
#######################################################################
#
#                 Cambridge Crystallographic Data Centre
#                                CCDC 
#
#######################################################################
#
# If this CIF has been generated from an entry in the Cambridge 
# Structural Database, then it will include bibliographic, chemical, 
# crystal, experimental, refinement or atomic coordinate data resulting 
# from the CCDC's data processing and validation procedures.
#
#######################################################################

data_KIMYIQ
_symmetry_cell_setting           triclinic
_symmetry_space_group_name_H-M   'P -1'
_symmetry_Int_Tables_number      2
_space_group_name_Hall           '-P 1'
loop_
_symmetry_equiv_pos_site_id
_symmetry_equiv_pos_as_xyz
1 x,y,z
2 -x,-y,-z
_cell_length_a                   9.7258(8)
_cell_length_b                   12.0425(8)
_cell_length_c                   14.3006(13)
_cell_angle_alpha                68.0810(10)
_cell_angle_beta                 76.7560(10)
_cell_angle_gamma                69.9110(10)
_cell_volume                     1449.5
loop_
_atom_site_label
_atom_site_type_symbol
_atom_site_fract_x
_atom_site_fract_y
_atom_site_fract_z
C1 C -0.3494(9) 1.2832(7) 0.4264(6)
C2 C -0.2662(9) 1.1469(7) 0.4546(6)
C3 C -0.2413(9) 1.0742(7) 0.5534(6)
H1 H -0.2749 1.1109 0.6043
C4 C -0.1676(9) 0.9483(7) 0.5783(6)
C5 C -0.1162(9) 0.8908(7) 0.5032(6)
C6 C -0.1384(9) 0.9629(7) 0.4030(6)
H2 H -0.1018 0.9268 0.3518
C7 C -0.2150(10) 1.0879(8) 0.3799(7)
H3 H -0.2331 1.1343 0.3132
C8 C -0.0212(9) 0.7051(7) 0.4581(6)
C9 C 0.1186(9) 0.6712(7) 0.4088(6)
H4 H 0.1938 0.6962 0.4177
C10 C 0.1470(9) 0.5997(7) 0.3456(6)
C11 C 0.0308(9) 0.5665(7) 0.3302(6)
H5 H 0.0477 0.5220 0.2857
C12 C -0.1102(10) 0.6002(7) 0.3815(6)
C13 C -0.1350(8) 0.6708(7) 0.4457(6)
H6 H -0.2283 0.6944 0.4797
C14 C -0.2356(9) 0.5618(7) 0.3706(6)
C15 C 0.2978(9) 0.5573(7) 0.2960(6)
C16 C 0.5023(12) 0.7771(8) 0.1952(7)
H7 H 0.4770 0.7580 0.2650
C17 C 0.4781(13) 0.8994(9) 0.1362(7)
H8 H 0.4360 0.9613 0.1667
C18 C 0.5145(10) 0.9330(7) 0.0330(6)
C19 C 0.5780(9) 0.8377(8) -0.0093(6)
H9 H 0.6054 0.8556 -0.0789
C20 C 0.5997(9) 0.7149(8) 0.0546(6)
H10 H 0.6429 0.6513 0.0260
C21 C 0.6331(10) 0.3954(8) 0.0935(7)
H11 H 0.5307 0.4204 0.1033
C22 C 0.7019(9) 0.3271(8) 0.0289(6)
H12 H 0.6467 0.3065 -0.0040
C23 C 0.8541(10) 0.2892(8) 0.0134(6)
C24 C 0.9304(10) 0.3230(9) 0.0642(7)
H13 H 1.0329 0.2982 0.0563
C25 C 0.8526(10) 0.3942(9) 0.1274(7)
H14 H 0.9045 0.4189 0.1595
C26 C 0.9336(10) 0.2142(9) -0.0545(7)
C27 C 0.8679(13) 0.1378(9) -0.0703(8)
H15 H 0.7733 0.1350 -0.0399
C28 C 0.9457(16) 0.0656(11) -0.1323(9)
H16 H 0.9004 0.0146 -0.1416
C29 C 1.1395(14) 0.1414(12) -0.1661(8)
H17 H 1.2327 0.1445 -0.1999
C30 C 1.0719(11) 0.2183(10) -0.1051(7)
H18 H 1.1188 0.2704 -0.0990
N1 N -0.1495(8) 0.8807(6) 0.6840(5)
N2 N 0.5619(8) 0.6829(6) 0.1555(5)
N3 N 0.7062(7) 0.4277(6) 0.1428(5)
N4 N 1.0804(14) 0.0649(10) -0.1790(7)
O1 O -0.3752(6) 1.3343(5) 0.4924(4)
O2 O -0.3886(6) 1.3324(5) 0.3378(4)
O3 O -0.2066(10) 0.9333(6) 0.7467(5)
O4 O -0.0768(9) 0.7715(6) 0.7094(5)
O5 O -0.0433(6) 0.7663(5) 0.5290(4)
O6 O -0.3486(6) 0.5812(5) 0.4334(4)
O7 O -0.2215(6) 0.5176(5) 0.3013(4)
O8 O 0.4028(6) 0.5638(5) 0.3328(4)
O9 O 0.3208(6) 0.5188(6) 0.2231(5)
Cu1 Cu -0.5000 1.5000 0.5000
Cu2 Cu 0.58909(11) 0.50601(9) 0.25080(7)
C16A C 0.4977(12) 1.2229(8) -0.1952(7)
H7A H 0.5230 1.2420 -0.2650
C17A C 0.5219(13) 1.1006(9) -0.1362(7)
H8A H 0.5640 1.0387 -0.1667
C18A C 0.4855(10) 1.0670(7) -0.0330(6)
C19A C 0.4220(9) 1.1623(8) 0.0093(6)
H9A H 0.3946 1.1444 0.0789
C20A C 0.4003(9) 1.2851(8) -0.0546(6)
H10A H 0.3571 1.3487 -0.0260
N2A N 0.4381(8) 1.3171(6) -0.1555(5)
C1A C -0.6506(9) 0.7168(7) 0.5736(6)
C2A C -0.7338(9) 0.8531(7) 0.5454(6)
C3A C -0.7587(9) 0.9258(7) 0.4466(6)
H1A H -0.7251 0.8891 0.3957
C4A C -0.8324(9) 1.0517(7) 0.4217(6)
C5A C -0.8838(9) 1.1092(7) 0.4968(6)
C6A C -0.8616(9) 1.0371(7) 0.5970(6)
H2A H -0.8982 1.0732 0.6482
C7A C -0.7850(10) 0.9121(8) 0.6201(7)
H3A H -0.7669 0.8657 0.6868
C8A C -0.9788(9) 1.2949(7) 0.5419(6)
C9A C -1.1186(9) 1.3288(7) 0.5912(6)
H4A H -1.1938 1.3038 0.5823
C10A C -1.1470(9) 1.4003(7) 0.6544(6)
C11A C -1.0308(9) 1.4335(7) 0.6698(6)
H5A H -1.0477 1.4780 0.7143
C12A C -0.8898(10) 1.3998(7) 0.6185(6)
C13A C -0.8650(8) 1.3292(7) 0.5543(6)
H6A H -0.7717 1.3056 0.5203
C14A C -0.7644(9) 1.4382(7) 0.6294(6)
C15A C -1.2978(9) 1.4427(7) 0.7040(6)
C21A C -1.6331(10) 1.6046(8) 0.9065(7)
H11A H -1.5307 1.5796 0.8967
C22A C -1.7019(9) 1.6729(8) 0.9711(6)
H12A H -1.6467 1.6935 1.0040
C23A C -1.8541(10) 1.7108(8) 0.9866(6)
C24A C -1.9304(10) 1.6770(9) 0.9358(7)
H13A H -2.0329 1.7018 0.9437
C25A C -1.8526(10) 1.6058(9) 0.8726(7)
H14A H -1.9045 1.5811 0.8405
C26A C -1.9336(10) 1.7858(9) 1.0545(7)
C27A C -1.8679(13) 1.8622(9) 1.0703(8)
H15A H -1.7733 1.8650 1.0399
C28A C -1.9457(16) 1.9344(11) 1.1323(9)
H16A H -1.9004 1.9854 1.1416
C29A C -2.1395(14) 1.8586(12) 1.1661(8)
H17A H -2.2327 1.8555 1.1999
C30A C -2.0719(11) 1.7817(10) 1.1051(7)
H18A H -2.1188 1.7296 1.0990
N1A N -0.8505(8) 1.1193(6) 0.3160(5)
N3A N -1.7062(7) 1.5723(6) 0.8572(5)
N4A N -2.0804(14) 1.9351(10) 1.1790(7)
O1A O -0.6248(6) 0.6657(5) 0.5076(4)
O2A O -0.6114(6) 0.6676(5) 0.6622(4)
O3A O -0.7934(10) 1.0667(6) 0.2533(5)
O4A O -0.9232(9) 1.2285(6) 0.2906(5)
O5A O -0.9567(6) 1.2337(5) 0.4710(4)
O6A O -0.6514(6) 1.4188(5) 0.5666(4)
O7A O -0.7785(6) 1.4824(5) 0.6987(4)
O8A O -1.4028(6) 1.4362(5) 0.6672(4)
O9A O -1.3208(6) 1.4812(6) 0.7769(5)
Cu2A Cu -1.58909(11) 1.49399(9) 0.74920(7)
N2A_2 N -1.5619(8) 1.3171(6) 0.8445(5)
O1A_2 O -0.6248(6) 1.6657(5) 0.5076(4)
O2_2 O 0.6114(6) 0.3324(5) 0.3378(4)
O2A_2 O -1.6114(6) 1.6676(5) 0.6622(4)
O6_2 O -0.3486(6) 1.5812(5) 0.4334(4)
O7_2 O 0.7785(6) 0.5176(5) 0.3013(4)
O7A_2 O -1.7785(6) 1.4824(5) 0.6987(4)
O8_2 O -0.5972(6) 1.5638(5) 0.3328(4)
O8A_2 O -0.4028(6) 1.4362(5) 0.6672(4)
Cu1_2 Cu -1.5000 1.5000 0.5000
Cu1_3 Cu -0.5000 0.5000 0.5000
Cu1_4 Cu 0.5000 0.5000 0.5000
Cu2_2 Cu -0.41091(11) 0.50601(9) 0.25080(7)
Cu2_3 Cu -0.41091(11) 1.50601(9) 0.25080(7)
Cu2A_2 Cu -0.58909(11) 0.49399(9) 0.74920(7)
Cu2A_3 Cu -0.58909(11) 1.49399(9) 0.74920(7)
Cu2A_4 Cu 0.41091(11) 1.49399(9) -0.25080(7)
O10 O 0.2337(9) 0.3924(7) 0.1299(6)
O11 O -0.582(2) 1.2141(15) 0.3114(18)
O12 O -0.434(7) 0.932(6) 0.339(5)
O13 O -0.432(3) 1.060(2) 0.2228(19)
loop_
_geom_bond_atom_site_label_1
_geom_bond_atom_site_label_2
_geom_bond_site_symmetry_1
_geom_bond_site_symmetry_2
C1 C2 1_555 1_555
C2 C3 1_555 1_555
C3 H1 1_555 1_555
C4 C3 1_555 1_555
C5 C4 1_555 1_555
C6 C5 1_555 1_555
H2 C6 1_555 1_555
C7 C2 1_555 1_555
H3 C7 1_555 1_555
C8 C9 1_555 1_555
C9 H4 1_555 1_555
C10 C9 1_555 1_555
C11 C10 1_555 1_555
H5 C11 1_555 1_555
C12 C11 1_555 1_555
C13 C8 1_555 1_555
H6 C13 1_555 1_555
C14 C12 1_555 1_555
C15 C10 1_555 1_555
C16 H7 1_555 1_555
C17 C16 1_555 1_555
H8 C17 1_555 1_555
C18 C17 1_555 1_555
C19 C18 1_555 1_555
H9 C19 1_555 1_555
C20 C19 1_555 1_555
H10 C20 1_555 1_555
C21 H11 1_555 1_555
C22 C21 1_555 1_555
H12 C22 1_555 1_555
C23 C22 1_555 1_555
C24 C23 1_555 1_555
H13 C24 1_555 1_555
C25 C24 1_555 1_555
H14 C25 1_555 1_555
C26 C23 1_555 1_555
C27 C26 1_555 1_555
H15 C27 1_555 1_555
C28 C27 1_555 1_555
H16 C28 1_555 1_555
C29 H17 1_555 1_555
C30 C26 1_555 1_555
H18 C30 1_555 1_555
N1 C4 1_555 1_555
N2 C16 1_555 1_555
N3 C21 1_555 1_555
N4 C28 1_555 1_555
O1 C1 1_555 1_555
O2 C1 1_555 1_555
O3 N1 1_555 1_555
O4 N1 1_555 1_555
O5 C5 1_555 1_555
O6 C14 1_555 1_555
O7 C14 1_555 1_555
O8 C15 1_555 1_555
O9 C15 1_555 1_555
Cu1 O1 1_555 1_555
Cu2 N2 1_555 1_555
C16A H7A 1_555 1_555
C17A C16A 1_555 1_555
H8A C17A 1_555 1_555
C18A C18 1_555 1_555
C19A C18A 1_555 1_555
H9A C19A 1_555 1_555
C20A C19A 1_555 1_555
H10A C20A 1_555 1_555
N2A C16A 1_555 1_555
C1A C2A 1_555 1_555
C2A C3A 1_555 1_555
C3A H1A 1_555 1_555
C4A C3A 1_555 1_555
C5A C4A 1_555 1_555
C6A C5A 1_555 1_555
H2A C6A 1_555 1_555
C7A C2A 1_555 1_555
H3A C7A 1_555 1_555
C8A C9A 1_555 1_555
C9A H4A 1_555 1_555
C10A C9A 1_555 1_555
C11A C10A 1_555 1_555
H5A C11A 1_555 1_555
C12A C11A 1_555 1_555
C13A C8A 1_555 1_555
H6A C13A 1_555 1_555
C14A C12A 1_555 1_555
C15A C10A 1_555 1_555
C21A H11A 1_555 1_555
C22A C21A 1_555 1_555
H12A C22A 1_555 1_555
C23A C22A 1_555 1_555
C24A C23A 1_555 1_555
H13A C24A 1_555 1_555
C25A C24A 1_555 1_555
H14A C25A 1_555 1_555
C26A C23A 1_555 1_555
C27A C26A 1_555 1_555
H15A C27A 1_555 1_555
C28A C27A 1_555 1_555
H16A C28A 1_555 1_555
C29A H17A 1_555 1_555
C30A C26A 1_555 1_555
H18A C30A 1_555 1_555
N1A C4A 1_555 1_555
N3A C21A 1_555 1_555
N4A C28A 1_555 1_555
O1A C1A 1_555 1_555
O2A C1A 1_555 1_555
O3A N1A 1_555 1_555
O4A N1A 1_555 1_555
O5A C5A 1_555 1_555
O6A Cu1 1_555 1_555
O7A C14A 1_555 1_555
O8A C15A 1_555 1_555
O9A C15A 1_555 1_555
Cu2A N3A 1_555 1_555
N2A_2 Cu2A 1_555 1_555
O1A_2 Cu1 1_555 1_555
O2_2 Cu2 1_555 1_555
O2A_2 Cu2A 1_555 1_555
O6_2 Cu1 1_555 1_555
O7_2 Cu2 1_555 1_555
O7A_2 Cu2A 1_555 1_555
O8_2 Cu1 1_555 1_555
O8A_2 Cu1 1_555 1_555
Cu1_2 O8A 1_555 1_555
Cu1_3 O6 1_555 1_555
Cu1_4 O8 1_555 1_555
Cu2_2 O7 1_555 1_555
Cu2_3 O2 1_555 1_555
Cu2A_2 O2A 1_555 1_555
Cu2A_3 O7A 1_555 1_555
Cu2A_4 N2A 1_555 1_555
C6 C7 1_555 1_555
C8 O5 1_555 1_555
C12 C13 1_555 1_555
C20 N2 1_555 1_555
C25 N3 1_555 1_555
C29 C30 1_555 1_555
C29 N4 1_555 1_555
N3 Cu2 1_555 1_555
O8 Cu2 1_555 1_555
O9 Cu2 1_555 1_555
C17A C18A 1_555 1_555
C20A N2A 1_555 1_555
C6A C7A 1_555 1_555
C8A O5A 1_555 1_555
C12A C13A 1_555 1_555
C14A O6A 1_555 1_555
C25A N3A 1_555 1_555
C29A C30A 1_555 1_555
C29A N4A 1_555 1_555
O1A Cu1_3 1_555 1_555
O8A Cu2A 1_555 1_555
O9A Cu2A 1_555 1_555
O8_2 Cu2_3 1_555 1_555
O8A_2 Cu2A_3 1_555 1_555

#END
