
#######################################################################
#
#                 Cambridge Crystallographic Data Centre
#                                CCDC 
#
#######################################################################
#
# If this CIF has been generated from an entry in the Cambridge 
# Structural Database, then it will include bibliographic, chemical, 
# crystal, experimental, refinement or atomic coordinate data resulting 
# from the CCDC's data processing and validation procedures.
#
#######################################################################

data_KIMYAI
_symmetry_cell_setting           triclinic
_symmetry_space_group_name_H-M   'P -1'
_symmetry_Int_Tables_number      2
_space_group_name_Hall           '-P 1'
loop_
_symmetry_equiv_pos_site_id
_symmetry_equiv_pos_as_xyz
1 x,y,z
2 -x,-y,-z
_cell_length_a                   9.5962(12)
_cell_length_b                   15.1199(17)
_cell_length_c                   20.649(2)
_cell_angle_alpha                77.390(2)
_cell_angle_beta                 83.275(2)
_cell_angle_gamma                86.432(2)
_cell_volume                     2901.57
loop_
_atom_site_label
_atom_site_type_symbol
_atom_site_fract_x
_atom_site_fract_y
_atom_site_fract_z
N1 N 0.8849(7) 0.3455(4) -0.0311(3)
O1 O 0.8719(8) 0.2745(4) 0.0088(3)
C1 C 0.8483(7) 0.4306(4) -0.0105(3)
O2 O 0.9265(6) 0.3474(3) -0.0887(2)
C2 C 0.2038(8) -0.1369(4) 0.2718(3)
H1 H 0.1878 -0.1520 0.3192
C3 C -0.2646(7) -0.0866(4) 0.5446(3)
C4 C 0.7744(8) 0.5952(5) 0.0213(3)
H2 H 0.7497 0.6523 0.0324
C5 C 0.2215(7) -0.2054(4) 0.2361(3)
C6 C 0.8352(7) 0.5067(4) -0.0609(3)
H3 H 0.8511 0.5015 -0.1062
C7 C 0.7993(8) 0.5900(4) -0.0459(3)
Co1 Co 0.20478(9) 0.37100(5) 0.37518(4)
Co2 Co 0.23389(9) 0.12042(6) 0.12690(4)
Co3 Co 0.21888(9) 0.24429(6) 0.25099(4)
O3 O -0.1919(5) -0.2386(3) 0.5779(2)
O4 O 1.1011(4) 0.3470(3) 0.2966(2)
O5 O 0.4187(4) 0.3645(3) 0.3456(2)
N2 N 0.2068(5) -0.4871(3) 0.3311(3)
O6 O 0.7943(5) 0.6649(3) -0.1591(2)
O7 O 0.0499(5) 0.1771(3) 0.2436(2)
O8 O 0.3923(4) 0.3096(3) 0.2560(2)
O9 O -0.2310(5) -0.1554(3) 0.6562(2)
O10 O 0.9582(4) 0.3855(3) 0.3766(2)
O11 O 0.0193(5) 0.1256(3) 0.1525(2)
O12 O 0.7494(6) 0.7467(3) -0.0809(2)
O13 O -0.3812(5) 0.1304(3) 0.3966(2)
O14 O -0.4029(7) 0.2218(3) 0.4883(3)
O15 O -0.3401(8) 0.1643(4) 0.5828(3)
O16 O 0.8311(5) 0.3598(3) 0.1050(2)
C8 C 0.7817(7) 0.6730(4) -0.1005(3)
C9 C 0.2540(8) 0.1107(5) -0.1079(3)
C10 C 0.1208(8) 0.1167(6) -0.0032(4)
H4 H 0.0322 0.1253 0.0209
C11 C 0.3554(9) 0.0885(6) -0.0060(4)
H5 H 0.4378 0.0762 0.0163
C12 C 0.1281(8) 0.1221(6) -0.0718(4)
H6 H 0.0449 0.1339 -0.0936
C13 C 0.3684(9) 0.0937(7) -0.0745(4)
H7 H 0.4581 0.0853 -0.0977
C14 C 0.2676(8) 0.1211(5) -0.1816(3)
C15 C 0.3909(8) 0.1511(5) -0.2207(4)
H8 H 0.4697 0.1633 -0.2006
C16 C 0.1593(8) 0.1028(5) -0.2149(4)
H9 H 0.0732 0.0813 -0.1908
C17 C 0.1782(10) 0.1161(6) -0.2839(4)
H10 H 0.1032 0.1021 -0.3058
C18 C 0.3965(9) 0.1626(6) -0.2883(4)
H11 H 0.4818 0.1836 -0.3136
C19 C 0.8591(6) 0.3658(4) 0.2797(3)
C20 C 0.4639(6) 0.3406(4) 0.2919(3)
C21 C 0.7186(6) 0.3590(4) 0.3062(3)
H12 H 0.6937 0.3583 0.3522
C22 C 0.8937(7) 0.3690(4) 0.2116(3)
H13 H 0.9888 0.3745 0.1928
C23 C 0.7909(7) 0.3643(4) 0.1722(3)
C24 C 0.6151(7) 0.3532(4) 0.2659(3)
C25 C 0.6538(7) 0.3547(4) 0.1986(3)
H14 H 0.5843 0.3490 0.1707
C26 C 0.8193(7) 0.4360(4) 0.0569(3)
C27 C 0.7849(8) 0.5194(5) 0.0718(3)
H15 H 0.7683 0.5249 0.1170
C28 C 0.2152(7) -0.3017(4) 0.2691(3)
C29 C 0.2306(7) -0.3320(4) 0.3369(3)
H16 H 0.2434 -0.2898 0.3635
C30 C 0.1936(7) -0.4579(4) 0.2665(3)
H17 H 0.1809 -0.5017 0.2412
C31 C 0.2272(7) -0.4238(4) 0.3651(3)
H18 H 0.2399 -0.4430 0.4111
C32 C 0.1971(7) -0.3684(4) 0.2340(3)
H19 H 0.1872 -0.3519 0.1876
C33 C 0.2901(7) 0.3931(5) 0.6715(3)
C34 C 0.2698(7) 0.3938(4) 0.6018(3)
C35 C 0.1903(8) 0.3563(5) 0.7240(4)
H20 H 0.1050 0.3344 0.7155
C36 C 0.1248(8) 0.4010(5) 0.5142(4)
H21 H 0.0331 0.4069 0.5003
C37 C 0.1393(8) 0.4027(5) 0.5796(4)
H22 H 0.0583 0.4101 0.6094
C38 C 0.4092(8) 0.4255(5) 0.6882(4)
H23 H 0.4784 0.4522 0.6540
C39 C 0.3812(8) 0.3832(5) 0.5564(3)
H24 H 0.4737 0.3763 0.5694
C40 C 0.4286(8) 0.4195(5) 0.7539(4)
H25 H 0.5113 0.4433 0.7636
C41 C 0.2196(10) 0.3527(5) 0.7893(4)
H26 H 0.1515 0.3277 0.8247
C42 C 0.3599(8) 0.3825(5) 0.4911(3)
H27 H 0.4392 0.3754 0.4603
C43 C -0.2805(7) 0.1274(4) 0.1951(3)
H28 H -0.2577 0.1260 0.1493
C44 C -0.0220(8) 0.1475(4) 0.2073(3)
C45 C -0.1744(6) 0.1341(4) 0.2342(3)
C46 C -0.4530(7) 0.1202(4) 0.2916(3)
H29 H -0.5475 0.1156 0.3113
C47 C -0.3446(7) 0.1245(4) 0.3297(3)
C48 C -0.2088(6) 0.1331(4) 0.3021(3)
H30 H -0.1373 0.1385 0.3290
C49 C -0.4194(7) 0.1227(4) 0.2229(3)
C50 C -0.3417(7) 0.0592(4) 0.4440(3)
C51 C -0.3163(7) -0.0264(4) 0.4316(3)
H31 H -0.3254 -0.0360 0.3884
C52 C -0.2780(7) -0.0983(4) 0.4802(3)
H32 H -0.2605 -0.1565 0.4701
C53 C -0.2935(7) -0.0022(4) 0.5581(3)
H33 H -0.2860 0.0068 0.6016
C54 C -0.3334(7) 0.0703(4) 0.5091(3)
C55 C -0.2257(7) -0.1659(4) 0.5979(3)
C56 C 0.9760(7) 0.3656(4) 0.3210(3)
N3 N 0.2330(6) 0.3914(3) 0.4700(3)
N4 N 0.2351(6) 0.0997(4) 0.0295(3)
N5 N -0.3590(7) 0.1584(4) 0.5271(3)
N6 N 0.3364(8) 0.3817(5) 0.8053(3)
N7 N 0.2949(8) 0.1475(5) -0.3219(3)
O17 O -0.6628(4) 0.1402(3) 0.2077(2)
O18 O -0.5171(5) 0.1067(3) 0.1257(2)
N8 N 0.2312(6) -0.0207(3) 0.1720(3)
C57 C 0.2467(7) -0.0866(4) 0.1373(3)
H34 H 0.2609 -0.0696 0.0900
C58 C -0.5380(7) 0.1231(4) 0.1825(3)
C59 C 0.2093(7) -0.0479(4) 0.2394(3)
H35 H 0.1971 -0.0028 0.2653
C60 C 0.2434(7) -0.1775(4) 0.1664(3)
H36 H 0.2558 -0.2214 0.1393
Co1_2 Co 0.20478(9) -0.62900(5) 0.37518(4)
Co1_3 Co 1.20478(9) 0.37100(5) 0.37518(4)
Co1A Co -0.20478(9) -0.37100(5) 0.62482(4)
Co2_2 Co -0.76611(9) 0.12042(6) 0.12690(4)
Co2A Co 0.76611(9) 0.87958(6) -0.12690(4)
Co3_2 Co -0.78112(9) 0.24429(6) 0.25099(4)
Co3_3 Co 1.21888(9) 0.24429(6) 0.25099(4)
Co3A Co -0.21888(9) -0.24429(6) 0.74901(4)
Co3A_2 Co 0.78112(9) 0.75571(6) -0.25099(4)
O3A O 0.1919(5) 0.2386(3) 0.4221(2)
O4_2 O 0.1011(4) 0.3470(3) 0.2966(2)
N2_2 N 0.2068(5) 0.5129(3) 0.3311(3)
O6A O 0.2057(5) 0.3351(3) 0.1591(2)
O9A O 0.2310(5) 0.1554(3) 0.3438(2)
O10_2 O -0.0418(4) 0.3855(3) 0.3766(2)
O12A O 0.2506(6) 0.2533(3) 0.0809(2)
O17_2 O 0.3372(4) 0.1402(3) 0.2077(2)
O18_2 O 0.4829(5) 0.1067(3) 0.1257(2)
O19 O 0.2431(7) 0.6200(4) 0.5113(3)
O20 O 0.4417(8) -0.3395(5) 0.1007(3)
O21 O 0.5505(9) 0.2994(6) 0.0354(4)
O22 O 0.298(2) -0.1323(12) -0.0115(7)
O23 O 0.5000 0.5000 0.0000
O24 O 0.422(3) 0.4748(14) 0.1299(12)
O25 O -0.0510(16) 0.2052(10) 0.5298(9)
loop_
_geom_bond_atom_site_label_1
_geom_bond_atom_site_label_2
_geom_bond_site_symmetry_1
_geom_bond_site_symmetry_2
N1 O1 1_555 1_555
C1 N1 1_555 1_555
O2 N1 1_555 1_555
C2 H1 1_555 1_555
C3 C52 1_555 1_555
C4 H2 1_555 1_555
C5 C2 1_555 1_555
C6 C1 1_555 1_555
H3 C6 1_555 1_555
C7 C4 1_555 1_555
Co1 O5 1_555 1_555
Co2 O11 1_555 1_555
Co3 O7 1_555 1_555
O3 C55 1_555 1_555
O4 C56 1_555 1_555
O5 C20 1_555 1_555
N2 C30 1_555 1_555
O6 C8 1_555 1_555
O7 C44 1_555 1_555
O8 Co3 1_555 1_555
O9 C55 1_555 1_555
O10 C56 1_555 1_555
O11 C44 1_555 1_555
O12 C8 1_555 1_555
O13 C47 1_555 1_555
O14 N5 1_555 1_555
O15 N5 1_555 1_555
O16 C23 1_555 1_555
C8 C7 1_555 1_555
C9 C12 1_555 1_555
C10 H4 1_555 1_555
C11 H5 1_555 1_555
C12 C10 1_555 1_555
H6 C12 1_555 1_555
C13 C9 1_555 1_555
H7 C13 1_555 1_555
C14 C9 1_555 1_555
C15 C14 1_555 1_555
H8 C15 1_555 1_555
C16 C14 1_555 1_555
H9 C16 1_555 1_555
C17 C16 1_555 1_555
H10 C17 1_555 1_555
C18 C15 1_555 1_555
H11 C18 1_555 1_555
C19 C21 1_555 1_555
C20 O8 1_555 1_555
C21 H12 1_555 1_555
C22 C19 1_555 1_555
H13 C22 1_555 1_555
C23 C22 1_555 1_555
C24 C20 1_555 1_555
C25 C23 1_555 1_555
H14 C25 1_555 1_555
C26 C1 1_555 1_555
C27 C4 1_555 1_555
H15 C27 1_555 1_555
C28 C5 1_555 1_555
C29 C28 1_555 1_555
H16 C29 1_555 1_555
C30 H17 1_555 1_555
C31 N2 1_555 1_555
H18 C31 1_555 1_555
C32 C28 1_555 1_555
H19 C32 1_555 1_555
C33 C34 1_555 1_555
C34 C37 1_555 1_555
C35 C33 1_555 1_555
H20 C35 1_555 1_555
C36 H21 1_555 1_555
C37 C36 1_555 1_555
H22 C37 1_555 1_555
C38 C33 1_555 1_555
H23 C38 1_555 1_555
C39 C34 1_555 1_555
H24 C39 1_555 1_555
C40 C38 1_555 1_555
H25 C40 1_555 1_555
C41 C35 1_555 1_555
H26 C41 1_555 1_555
C42 C39 1_555 1_555
H27 C42 1_555 1_555
C43 H28 1_555 1_555
C44 C45 1_555 1_555
C45 C43 1_555 1_555
C46 H29 1_555 1_555
C47 C46 1_555 1_555
C48 C45 1_555 1_555
H30 C48 1_555 1_555
C49 C43 1_555 1_555
C50 O13 1_555 1_555
C51 C50 1_555 1_555
H31 C51 1_555 1_555
C52 C51 1_555 1_555
H32 C52 1_555 1_555
C53 C3 1_555 1_555
H33 C53 1_555 1_555
C54 C50 1_555 1_555
C55 C3 1_555 1_555
C56 C19 1_555 1_555
N3 Co1 1_555 1_555
N4 Co2 1_555 1_555
N5 C54 1_555 1_555
N6 C40 1_555 1_555
N7 C17 1_555 1_555
O17 C58 1_555 1_555
O18 C58 1_555 1_555
N8 Co2 1_555 1_555
C57 N8 1_555 1_555
H34 C57 1_555 1_555
C58 C49 1_555 1_555
C59 C2 1_555 1_555
H35 C59 1_555 1_555
C60 C5 1_555 1_555
H36 C60 1_555 1_555
Co1_2 N2 1_555 1_555
Co1_3 O4 1_555 1_555
Co1A O3 1_555 1_555
Co2_2 O17 1_555 1_555
Co2A O12 1_555 1_555
Co3_2 O17 1_555 1_555
Co3_3 O4 1_555 1_555
Co3A O9 1_555 1_555
Co3A_2 O6 1_555 1_555
O3A Co1 1_555 1_555
O4_2 Co1 1_555 1_555
N2_2 Co1 1_555 1_555
O6A Co3 1_555 1_555
O9A Co3 1_555 1_555
O10_2 Co1 1_555 1_555
O12A Co2 1_555 1_555
O17_2 Co2 1_555 1_555
O18_2 Co2 1_555 1_555
C6 C7 1_555 1_555
Co3 O4_2 1_555 1_555
Co3 O17_2 1_555 1_555
O10 Co1_3 1_555 1_555
O16 C26 1_555 1_555
C10 N4 1_555 1_555
C11 C13 1_555 1_555
C11 N4 1_555 1_555
C18 N7 1_555 1_555
C21 C24 1_555 1_555
C24 C25 1_555 1_555
C26 C27 1_555 1_555
C29 C31 1_555 1_555
C30 C32 1_555 1_555
C36 N3 1_555 1_555
C41 N6 1_555 1_555
C42 N3 1_555 1_555
C46 C49 1_555 1_555
C47 C48 1_555 1_555
C53 C54 1_555 1_555
O18 Co2_2 1_555 1_555
N8 C59 1_555 1_555
C57 C60 1_555 1_555

#END
