
#######################################################################
#
#                 Cambridge Crystallographic Data Centre
#                                CCDC 
#
#######################################################################
#
# If this CIF has been generated from an entry in the Cambridge 
# Structural Database, then it will include bibliographic, chemical, 
# crystal, experimental, refinement or atomic coordinate data resulting 
# from the CCDC's data processing and validation procedures.
#
#######################################################################

data_KIMYOW
_symmetry_cell_setting           triclinic
_symmetry_space_group_name_H-M   'P -1'
_symmetry_Int_Tables_number      2
_space_group_name_Hall           '-P 1'
loop_
_symmetry_equiv_pos_site_id
_symmetry_equiv_pos_as_xyz
1 x,y,z
2 -x,-y,-z
_cell_length_a                   10.1438(7)
_cell_length_b                   11.2973(9)
_cell_length_c                   14.1941(10)
_cell_angle_alpha                72.8820(10)
_cell_angle_beta                 88.1010(10)
_cell_angle_gamma                81.0840(10)
_cell_volume                     1535.63
loop_
_atom_site_label
_atom_site_type_symbol
_atom_site_fract_x
_atom_site_fract_y
_atom_site_fract_z
C1 C 0.2533(3) 0.4091(3) 0.3580(2)
C2 C 0.3903(3) 0.3903(3) 0.4004(2)
C3 C 0.4921(3) 0.4465(3) 0.3447(2)
H1 H 0.4746 0.4982 0.2807
C4 C 0.6193(3) 0.4250(3) 0.3852(2)
C5 C 0.6452(3) 0.3502(3) 0.4814(2)
H2 H 0.7299 0.3378 0.5091
C6 C 0.5440(3) 0.2942(3) 0.5356(2)
C7 C 0.4166(3) 0.3147(3) 0.4967(2)
H3 H 0.3488 0.2782 0.5346
C8 C 0.4882(3) 0.1405(3) 0.6778(2)
C9 C 0.3946(3) 0.1858(3) 0.7373(2)
H4 H 0.3916 0.2667 0.7417
C10 C 0.3057(3) 0.1106(3) 0.7901(2)
H5 H 0.2410 0.1428 0.8276
C11 C 0.3116(3) -0.0129(3) 0.7878(2)
C12 C 0.4063(3) -0.0582(3) 0.7286(2)
H6 H 0.4115 -0.1400 0.7259
C13 C 0.4930(3) 0.0186(3) 0.6737(2)
C14 C 0.2184(3) -0.0950(3) 0.8503(3)
C15 C 0.7334(3) 0.4753(3) 0.3229(3)
C16 C -0.0516(3) 0.1887(3) 0.3604(2)
H7 H -0.1093 0.2231 0.4010
C17 C -0.0500(3) 0.0647(3) 0.3666(2)
H8 H -0.1058 0.0178 0.4105
C18 C 0.0349(3) 0.0091(3) 0.3074(2)
C19 C 0.1170(3) 0.0854(3) 0.2453(3)
H9 H 0.1771 0.0530 0.2050
C20 C 0.1093(4) 0.2091(3) 0.2436(3)
H10 H 0.1655 0.2577 0.2015
C21 C 0.0346(3) -0.1220(3) 0.3066(2)
C22 C -0.0145(3) -0.2114(3) 0.3841(2)
H11 H -0.0450 -0.1909 0.4407
C23 C -0.0181(3) -0.3302(3) 0.3771(2)
H12 H -0.0517 -0.3879 0.4298
C24 C 0.0728(3) -0.2805(3) 0.2227(2)
H13 H 0.1032 -0.3039 0.1673
C25 C 0.0790(3) -0.1609(3) 0.2242(2)
H14 H 0.1129 -0.1051 0.1704
N1 N 0.5919(3) -0.0356(3) 0.6137(2)
N2 N 0.0259(3) 0.2630(2) 0.29888(19)
N3 N 0.0245(3) -0.3663(2) 0.29820(19)
O1 O 0.2335(2) 0.4441(2) 0.26524(16)
O2 O 0.1563(2) 0.3898(2) 0.41633(16)
O3 O -0.0523(3) 0.5211(2) 0.15207(18)
O4 O 0.8472(2) 0.4493(2) 0.36390(15)
O5 O 0.5804(2) 0.2156(2) 0.62997(16)
O6 O 0.6295(3) 0.0347(3) 0.53691(19)
O7 O 0.6322(3) -0.1478(2) 0.6437(2)
O8 O 0.2276(2) -0.2062(2) 0.84545(17)
O9 O 0.1384(2) -0.0482(2) 0.90329(18)
O10 O 0.7095(2) 0.5362(2) 0.23319(16)
Ni1 Ni 0.02461(4) 0.45092(4) 0.29484(3)
H15 H -0.048(4) 0.466(4) 0.119(3)
H16 H -0.135(6) 0.544(5) 0.159(4)
N3_2 N 0.0245(3) 0.6337(2) 0.29820(19)
O4_2 O -0.1528(2) 0.4493(2) 0.36390(15)
Ni1_2 Ni 0.02461(4) -0.54908(4) 0.29484(3)
Ni1_3 Ni 1.02461(4) 0.45092(4) 0.29484(3)
C26 C 0.3957(5) 0.2564(4) 0.0253(4)
H17 H 0.3233 0.2979 0.0508
C27 C 0.3950(5) 0.1328(4) 0.0320(4)
H18 H 0.3235 0.0938 0.0614
C28 C 0.4977(3) 0.0668(3) -0.0037(2)
C29 C 0.5947(4) 0.1341(4) -0.0495(3)
H19 H 0.6660 0.0955 -0.0781
C30 C 0.5884(4) 0.2571(4) -0.0538(3)
H20 H 0.6563 0.2993 -0.0864
N4 N 0.4922(3) 0.3207(2) -0.0148(2)
O11 O 0.3164(3) 0.4947(2) 0.0729(2)
O12 O 0.5908(3) 0.4124(3) 0.13203(18)
Ni2 Ni 0.5000 0.5000 0.0000
H21 H 0.255(4) 0.528(3) 0.046(3)
H22 H 0.300(4) 0.473(4) 0.137(3)
H23 H 0.638(4) 0.346(4) 0.137(3)
H24 H 0.618(4) 0.452(4) 0.162(3)
C26A C 0.6043(5) -0.2564(4) -0.0253(4)
H17A H 0.6767 -0.2979 -0.0508
C27A C 0.6050(5) -0.1328(4) -0.0320(4)
H18A H 0.6765 -0.0938 -0.0614
C28A C 0.5023(3) -0.0668(3) 0.0037(2)
C29A C 0.4053(4) -0.1341(4) 0.0495(3)
H19A H 0.3340 -0.0955 0.0781
C30A C 0.4116(4) -0.2571(4) 0.0538(3)
H20A H 0.3437 -0.2993 0.0864
N4A N 0.5078(3) -0.3207(2) 0.0148(2)
O11A O 0.6836(3) 0.5053(2) -0.0729(2)
H21A H 0.745(4) 0.472(3) -0.046(3)
H22A H 0.700(4) 0.527(4) -0.137(3)
O12A O 0.4092(3) 0.5876(3) -0.13203(18)
H23A H 0.362(4) 0.654(4) -0.137(3)
H24A H 0.382(4) 0.548(4) -0.162(3)
N4A_2 N 0.5078(3) 0.6793(2) 0.0148(2)
Ni2_2 Ni 0.5000 -0.5000 0.0000
O13 O -0.0790(3) -0.1395(3) 0.9964(2)
H25 H -0.100(4) -0.090(4) 1.030(3)
H26 H -0.001(4) -0.115(4) 0.967(3)
O14 O 0.0902(3) -0.3705(2) 0.9657(2)
H27 H 0.031(4) -0.341(3) 0.992(3)
H28 H 0.127(4) -0.311(4) 0.932(3)
loop_
_geom_bond_atom_site_label_1
_geom_bond_atom_site_label_2
_geom_bond_site_symmetry_1
_geom_bond_site_symmetry_2
C1 C2 1_555 1_555
C2 C3 1_555 1_555
C3 H1 1_555 1_555
C4 C3 1_555 1_555
C5 C4 1_555 1_555
H2 C5 1_555 1_555
C6 C5 1_555 1_555
C7 C2 1_555 1_555
H3 C7 1_555 1_555
C8 C9 1_555 1_555
C9 H4 1_555 1_555
C10 C9 1_555 1_555
H5 C10 1_555 1_555
C11 C10 1_555 1_555
C12 C11 1_555 1_555
H6 C12 1_555 1_555
C13 C8 1_555 1_555
C14 C11 1_555 1_555
C15 C4 1_555 1_555
C16 H7 1_555 1_555
C17 C16 1_555 1_555
H8 C17 1_555 1_555
C18 C17 1_555 1_555
C19 C18 1_555 1_555
H9 C19 1_555 1_555
C20 C19 1_555 1_555
H10 C20 1_555 1_555
C21 C18 1_555 1_555
C22 C21 1_555 1_555
H11 C22 1_555 1_555
C23 C22 1_555 1_555
H12 C23 1_555 1_555
C24 H13 1_555 1_555
C25 C21 1_555 1_555
H14 C25 1_555 1_555
N1 C13 1_555 1_555
N2 C16 1_555 1_555
N3 C23 1_555 1_555
O1 C1 1_555 1_555
O2 C1 1_555 1_555
O3 Ni1 1_555 1_555
O4 C15 1_555 1_555
O5 C6 1_555 1_555
O6 N1 1_555 1_555
O7 N1 1_555 1_555
O8 C14 1_555 1_555
O9 C14 1_555 1_555
O10 C15 1_555 1_555
Ni1 N2 1_555 1_555
H15 O3 1_555 1_555
H16 O3 1_555 1_555
C26 H17 1_555 1_555
C27 C26 1_555 1_555
H18 C27 1_555 1_555
C28 C27 1_555 1_555
C29 C28 1_555 1_555
H19 C29 1_555 1_555
C30 C29 1_555 1_555
H20 C30 1_555 1_555
N4 C26 1_555 1_555
O11 Ni2 1_555 1_555
O12 Ni2 1_555 1_555
Ni2 N4 1_555 1_555
H21 O11 1_555 1_555
H22 O11 1_555 1_555
H23 O12 1_555 1_555
H24 O12 1_555 1_555
O13 H25 1_555 1_555
H26 O13 1_555 1_555
O14 H27 1_555 1_555
H28 O14 1_555 1_555
N3_2 Ni1 1_555 1_555
O4_2 Ni1 1_555 1_555
Ni1_2 N3 1_555 1_555
Ni1_3 O4 1_555 1_555
C26A H17A 1_555 1_555
C27A C26A 1_555 1_555
H18A C27A 1_555 1_555
C28A C28 1_555 1_555
C29A C28A 1_555 1_555
H19A C29A 1_555 1_555
C30A C29A 1_555 1_555
H20A C30A 1_555 1_555
N4A C26A 1_555 1_555
O11A Ni2 1_555 1_555
H21A O11A 1_555 1_555
H22A O11A 1_555 1_555
O12A Ni2 1_555 1_555
H23A O12A 1_555 1_555
H24A O12A 1_555 1_555
N4A_2 Ni2 1_555 1_555
Ni2_2 N4A 1_555 1_555
C6 C7 1_555 1_555
C8 O5 1_555 1_555
C12 C13 1_555 1_555
C20 N2 1_555 1_555
C24 C25 1_555 1_555
C24 N3 1_555 1_555
O1 Ni1 1_555 1_555
O2 Ni1 1_555 1_555
C30 N4 1_555 1_555
C27A C28A 1_555 1_555
C30A N4A 1_555 1_555

#END
