
#######################################################################
#
#                 Cambridge Crystallographic Data Centre
#                                CCDC 
#
#######################################################################
#
# If this CIF has been generated from an entry in the Cambridge 
# Structural Database, then it will include bibliographic, chemical, 
# crystal, experimental, refinement or atomic coordinate data resulting 
# from the CCDC's data processing and validation procedures.
#
#######################################################################

data_KINGOF
_symmetry_cell_setting           monoclinic
_symmetry_space_group_name_H-M   'P 2/c'
_symmetry_Int_Tables_number      13
_space_group_name_Hall           '-P 2yc'
loop_
_symmetry_equiv_pos_site_id
_symmetry_equiv_pos_as_xyz
1 x,y,z
2 -x,y,1/2-z
3 -x,-y,-z
4 x,-y,1/2+z
_cell_length_a                   15.4994(14)
_cell_length_b                   7.5708(7)
_cell_length_c                   23.427(2)
_cell_angle_alpha                90
_cell_angle_beta                 96.993(2)
_cell_angle_gamma                90
_cell_volume                     2728.54
loop_
_atom_site_label
_atom_site_type_symbol
_atom_site_fract_x
_atom_site_fract_y
_atom_site_fract_z
C1 C 0.57015(17) 0.3714(4) 0.41472(12)
C2 C 0.62427(17) 0.3035(4) 0.37010(11)
C3 C 0.69341(17) 0.4029(4) 0.35530(12)
H1 H 0.7025 0.5163 0.3701
C4 C 0.74922(18) 0.3345(4) 0.31858(12)
H2 H 0.7953 0.4024 0.3088
C5 C 0.73622(17) 0.1649(4) 0.29646(11)
C6 C 0.66457(17) 0.0681(4) 0.30993(12)
H3 H 0.6539 -0.0435 0.2940
C7 C 0.60957(18) 0.1360(4) 0.34648(12)
H4 H 0.5625 0.0696 0.3554
C8 C 0.79966(17) 0.0727(4) 0.25981(12)
C9 C 0.85795(19) -0.0471(4) 0.30198(13)
C10 C 0.85893(18) 0.2040(4) 0.23263(13)
C11 C 0.74911(17) -0.0306(4) 0.20975(12)
C12 C 0.77180(18) -0.1999(4) 0.19362(12)
H5 H 0.8204 -0.2551 0.2130
C13 C 0.72216(18) -0.2868(4) 0.14874(13)
H6 H 0.7376 -0.4002 0.1386
C14 C 0.64955(17) -0.2059(4) 0.11887(12)
C15 C 0.62837(17) -0.0354(3) 0.13400(12)
H7 H 0.5809 0.0212 0.1138
C16 C 0.67715(17) 0.0510(4) 0.17886(11)
H8 H 0.6619 0.1650 0.1886
C17 C 0.59474(17) -0.3033(4) 0.07211(12)
C18 C 0.25792(18) 0.2261(4) 0.45664(13)
H9 H 0.2528 0.3353 0.4383
C19 C 0.18585(19) 0.1180(4) 0.45258(14)
H10 H 0.1338 0.1537 0.4318
C20 C 0.19198(18) -0.0462(4) 0.48016(13)
C21 C 0.27223(18) -0.0913(4) 0.50961(13)
H11 H 0.2795 -0.1999 0.5282
C22 C 0.34102(17) 0.0247(4) 0.51133(12)
H12 H 0.3941 -0.0083 0.5314
C23 C 0.11740(19) -0.1662(4) 0.47703(14)
C24 C 0.0368(2) -0.1487(5) 0.44784(18)
H13 H 0.0200 -0.0522 0.4246
C25 C -0.0189(2) -0.2900(5) 0.45608(19)
H14 H -0.0762 -0.2954 0.4390
C26 C 0.0187(2) -0.4178(4) 0.49119(15)
F1 F 0.81325(11) -0.1848(2) 0.31924(7)
F2 F 0.88960(11) 0.0408(2) 0.34965(7)
F3 F 0.92659(10) -0.1128(2) 0.27945(7)
F4 F 0.91681(10) 0.2847(2) 0.27093(7)
F5 F 0.90384(10) 0.1255(2) 0.19441(7)
F6 F 0.81181(10) 0.3330(2) 0.20368(7)
N1 N 0.33500(13) 0.1825(3) 0.48555(9)
O1 O 0.59522(12) 0.5138(3) 0.43905(8)
O2 O 0.50746(12) 0.2783(3) 0.42632(8)
O3 O 0.52849(12) -0.2250(2) 0.04788(8)
O4 O 0.61897(12) -0.4562(2) 0.06034(9)
S1 S 0.12352(5) -0.36064(11) 0.51572(4)
Zn1 Zn 0.437994(19) 0.34906(4) 0.491309(13)
C18B C -0.25792(18) -1.2261(4) 0.54336(13)
H9B H -0.2528 -1.3353 0.5617
C19B C -0.18585(19) -1.1180(4) 0.54742(14)
H10B H -0.1338 -1.1537 0.5682
C20B C -0.19198(18) -0.9538(4) 0.51984(13)
C21B C -0.27223(18) -0.9087(4) 0.49039(13)
H11B H -0.2795 -0.8001 0.4718
C22B C -0.34102(17) -1.0247(4) 0.48867(12)
H12B H -0.3941 -0.9917 0.4686
C23B C -0.11740(19) -0.8338(4) 0.52297(14)
C24B C -0.0368(2) -0.8513(5) 0.55216(18)
H13B H -0.0200 -0.9478 0.5754
C25B C 0.0189(2) -0.7100(5) 0.54392(19)
H14B H 0.0762 -0.7046 0.5610
C26B C -0.0187(2) -0.5822(4) 0.50881(15)
N1B N -0.33500(13) -1.1825(3) 0.51445(9)
S1B S -0.12352(5) -0.63936(11) 0.48428(4)
C1B C -0.57015(17) -1.3714(4) 0.58528(12)
C2B C -0.62427(17) -1.3035(4) 0.62990(11)
C3B C -0.69341(17) -1.4029(4) 0.64470(12)
H1B H -0.7025 -1.5163 0.6299
C4B C -0.74922(18) -1.3345(4) 0.68142(12)
H2B H -0.7953 -1.4024 0.6912
C5B C -0.73622(17) -1.1649(4) 0.70354(11)
C6B C -0.66457(17) -1.0681(4) 0.69007(12)
H3B H -0.6539 -0.9565 0.7060
C7B C -0.60957(18) -1.1360(4) 0.65352(12)
H4B H -0.5625 -1.0696 0.6446
C8B C -0.79966(17) -1.0727(4) 0.74019(12)
C9B C -0.85795(19) -0.9529(4) 0.69802(13)
C10B C -0.85893(18) -1.2040(4) 0.76737(13)
C11B C -0.74911(17) -0.9694(4) 0.79025(12)
C12B C -0.77180(18) -0.8001(4) 0.80638(12)
H5B H -0.8204 -0.7449 0.7870
C13B C -0.72216(18) -0.7132(4) 0.85126(13)
H6B H -0.7376 -0.5998 0.8614
C14B C -0.64955(17) -0.7941(4) 0.88113(12)
C15B C -0.62837(17) -0.9646(3) 0.86600(12)
H7B H -0.5809 -1.0212 0.8862
C16B C -0.67715(17) -1.0510(4) 0.82114(11)
H8B H -0.6619 -1.1650 0.8114
C17B C -0.59474(17) -0.6967(4) 0.92789(12)
F1B F -0.81325(11) -0.8152(2) 0.68076(7)
F2B F -0.88960(11) -1.0408(2) 0.65035(7)
F3B F -0.92659(10) -0.8872(2) 0.72055(7)
F4B F -0.91681(10) -1.2847(2) 0.72907(7)
F5B F -0.90384(10) -1.1255(2) 0.80559(7)
F6B F -0.81181(10) -1.3330(2) 0.79632(7)
O1B O -0.59522(12) -1.5138(3) 0.56095(8)
O2B O -0.50746(12) -1.2783(3) 0.57368(8)
O3B O -0.52849(12) -0.7750(2) 0.95212(8)
O4B O -0.61897(12) -0.5438(2) 0.93966(9)
Zn1B Zn -0.437994(19) -1.34906(4) 0.508691(13)
O1_2 O -0.40478(12) -1.4862(3) 0.43905(8)
O1B_2 O 0.40478(12) 0.4862(3) 0.56095(8)
O3A O -0.52849(12) -1.2250(2) 0.45212(8)
O3C O 0.52849(12) 0.2250(2) 0.54788(8)
O4A O 0.38103(12) 0.5438(2) 0.43966(9)
O4C O -0.38103(12) -1.5438(2) 0.56034(9)
Zn1_2 Zn -0.562006(19) -1.65094(4) 0.491309(13)
Zn1A Zn -0.437994(19) -0.65094(4) 1.008691(13)
Zn1A_2 Zn 0.562006(19) -0.65094(4) 0.008691(13)
Zn1B_2 Zn 0.562006(19) 0.65094(4) 0.508691(13)
Zn1C Zn -0.562006(19) -0.34906(4) 0.991309(13)
Zn1C_2 Zn 0.437994(19) -0.34906(4) -0.008691(13)
loop_
_geom_bond_atom_site_label_1
_geom_bond_atom_site_label_2
_geom_bond_site_symmetry_1
_geom_bond_site_symmetry_2
C1 C2 1_555 1_555
C2 C3 1_555 1_555
C3 H1 1_555 1_555
C4 C3 1_555 1_555
H2 C4 1_555 1_555
C5 C4 1_555 1_555
C6 C5 1_555 1_555
H3 C6 1_555 1_555
C7 C2 1_555 1_555
H4 C7 1_555 1_555
C8 C5 1_555 1_555
C9 C8 1_555 1_555
C10 C8 1_555 1_555
C11 C8 1_555 1_555
C12 C11 1_555 1_555
H5 C12 1_555 1_555
C13 C12 1_555 1_555
H6 C13 1_555 1_555
C14 C13 1_555 1_555
C15 C14 1_555 1_555
H7 C15 1_555 1_555
C16 C11 1_555 1_555
H8 C16 1_555 1_555
C17 C14 1_555 1_555
C18 H9 1_555 1_555
C19 C18 1_555 1_555
H10 C19 1_555 1_555
C20 C19 1_555 1_555
C21 C20 1_555 1_555
H11 C21 1_555 1_555
C22 C21 1_555 1_555
H12 C22 1_555 1_555
C23 C20 1_555 1_555
C24 C23 1_555 1_555
H13 C24 1_555 1_555
C25 C24 1_555 1_555
H14 C25 1_555 1_555
C26 C25 1_555 1_555
F1 C9 1_555 1_555
F2 C9 1_555 1_555
F3 C9 1_555 1_555
F4 C10 1_555 1_555
F5 C10 1_555 1_555
F6 C10 1_555 1_555
N1 C18 1_555 1_555
O1 C1 1_555 1_555
O2 C1 1_555 1_555
O3 C17 1_555 1_555
O4 C17 1_555 1_555
S1 C23 1_555 1_555
Zn1 N1 1_555 1_555
C18B H9B 1_555 1_555
C19B C18B 1_555 1_555
H10B C19B 1_555 1_555
C20B C19B 1_555 1_555
C21B C20B 1_555 1_555
H11B C21B 1_555 1_555
C22B C21B 1_555 1_555
H12B C22B 1_555 1_555
C23B C20B 1_555 1_555
C24B C23B 1_555 1_555
H13B C24B 1_555 1_555
C25B C24B 1_555 1_555
H14B C25B 1_555 1_555
C26B C26 1_555 1_555
N1B C18B 1_555 1_555
S1B C23B 1_555 1_555
C1B C2B 1_555 1_555
C2B C3B 1_555 1_555
C3B H1B 1_555 1_555
C4B C3B 1_555 1_555
H2B C4B 1_555 1_555
C5B C4B 1_555 1_555
C6B C5B 1_555 1_555
H3B C6B 1_555 1_555
C7B C2B 1_555 1_555
H4B C7B 1_555 1_555
C8B C5B 1_555 1_555
C9B C8B 1_555 1_555
C10B C8B 1_555 1_555
C11B C8B 1_555 1_555
C12B C11B 1_555 1_555
H5B C12B 1_555 1_555
C13B C12B 1_555 1_555
H6B C13B 1_555 1_555
C14B C13B 1_555 1_555
C15B C14B 1_555 1_555
H7B C15B 1_555 1_555
C16B C11B 1_555 1_555
H8B C16B 1_555 1_555
C17B C14B 1_555 1_555
F1B C9B 1_555 1_555
F2B C9B 1_555 1_555
F3B C9B 1_555 1_555
F4B C10B 1_555 1_555
F5B C10B 1_555 1_555
F6B C10B 1_555 1_555
O1B C1B 1_555 1_555
O2B C1B 1_555 1_555
O3B C17B 1_555 1_555
O4B C17B 1_555 1_555
Zn1B N1B 1_555 1_555
O1_2 Zn1B 1_555 1_555
O1B_2 Zn1 1_555 1_555
O3A Zn1B 1_555 1_555
O3C Zn1 1_555 1_555
O4A Zn1 1_555 1_555
O4C Zn1B 1_555 1_555
Zn1_2 O1B 1_555 1_555
Zn1A O3B 1_555 1_555
Zn1A_2 O4 1_555 1_555
Zn1B_2 O1 1_555 1_555
Zn1C O4B 1_555 1_555
Zn1C_2 O3 1_555 1_555
C6 C7 1_555 1_555
C15 C16 1_555 1_555
C22 N1 1_555 1_555
C26 S1 1_555 1_555
O2 Zn1 1_555 1_555
C22B N1B 1_555 1_555
C25B C26B 1_555 1_555
C26B S1B 1_555 1_555
C6B C7B 1_555 1_555
C15B C16B 1_555 1_555
O2B Zn1B 1_555 1_555

#END
