
#######################################################################
#
#                 Cambridge Crystallographic Data Centre
#                                CCDC 
#
#######################################################################
#
# If this CIF has been generated from an entry in the Cambridge 
# Structural Database, then it will include bibliographic, chemical, 
# crystal, experimental, refinement or atomic coordinate data resulting 
# from the CCDC's data processing and validation procedures.
#
#######################################################################

data_KINGUL
_symmetry_cell_setting           monoclinic
_symmetry_space_group_name_H-M   'P 2/c'
_symmetry_Int_Tables_number      13
_space_group_name_Hall           '-P 2yc'
loop_
_symmetry_equiv_pos_site_id
_symmetry_equiv_pos_as_xyz
1 x,y,z
2 -x,y,1/2-z
3 -x,-y,-z
4 x,-y,1/2+z
_cell_length_a                   15.4985(11)
_cell_length_b                   7.5058(5)
_cell_length_c                   23.5458(17)
_cell_angle_alpha                90
_cell_angle_beta                 96.2720(10)
_cell_angle_gamma                90
_cell_volume                     2722.66
loop_
_atom_site_label
_atom_site_type_symbol
_atom_site_fract_x
_atom_site_fract_y
_atom_site_fract_z
C1 C 0.42517(17) 0.6314(3) 0.58333(11)
C2 C 0.37154(17) 0.7006(4) 0.62794(11)
C3 C 0.30112(18) 0.6042(4) 0.64256(12)
H1 H 0.2903 0.4912 0.6272
C4 C 0.24680(19) 0.6734(4) 0.67971(13)
H2 H 0.1996 0.6070 0.6890
C5 C 0.26210(17) 0.8417(4) 0.70336(12)
C6 C 0.33388(18) 0.9362(4) 0.68917(12)
H3 H 0.3455 1.0482 0.7051
C7 C 0.38794(19) 0.8676(4) 0.65221(12)
H4 H 0.4357 0.9330 0.6434
C8 C 0.20005(17) 0.9357(4) 0.74110(11)
C9 C 0.1440(2) 1.0598(5) 0.70037(14)
C10 C 0.14115(19) 0.8028(5) 0.76809(14)
C11 C 0.25198(16) 1.0371(4) 0.79116(11)
C12 C 0.22896(19) 1.2043(4) 0.80882(13)
H5 H 0.1802 1.2607 0.7905
C13 C 0.27760(19) 1.2877(4) 0.85327(13)
H6 H 0.2617 1.4009 0.8644
C14 C 0.35013(16) 1.2061(4) 0.88189(11)
C15 C 0.37115(16) 1.0361(3) 0.86563(11)
H7 H 0.4184 0.9774 0.8850
C16 C 0.32227(17) 0.9528(4) 0.82070(11)
H8 H 0.3369 0.8382 0.8102
C17 C 0.40560(16) 1.3035(4) 0.92745(11)
C18 C 0.74052(19) 0.7701(4) 0.54238(16)
H9 H 0.7451 0.6612 0.5613
C19 C 0.8124(2) 0.8789(5) 0.54606(18)
H10 H 0.8640 0.8424 0.5667
C20 C 0.80779(17) 1.0428(4) 0.51897(12)
C21 C 0.72893(18) 1.0868(4) 0.49063(14)
H11 H 0.7217 1.1970 0.4727
C22 C 0.66007(16) 0.9702(4) 0.48828(12)
H12 H 0.6076 1.0039 0.4682
C23 C 0.8820(2) 1.1644(4) 0.52288(16)
C24 C 0.9576(3) 1.1539(7) 0.5549(3)
H13 H 0.9718 1.0613 0.5805
C25 C 1.0152(3) 1.2961(7) 0.5466(3)
H14 H 1.0711 1.3038 0.5652
C26 C 0.9810(2) 1.4177(5) 0.50943(16)
Co1 Co 0.557951(19) 0.64631(4) 0.507868(12)
F1 F 0.18860(15) 1.1968(3) 0.68335(9)
F2 F 0.11040(15) 0.9736(4) 0.65333(9)
F3 F 0.07573(12) 1.1273(3) 0.72381(10)
F4 F 0.18728(14) 0.6731(3) 0.79577(9)
F5 F 0.09675(13) 0.8825(3) 0.80662(10)
F6 F 0.08277(12) 0.7242(3) 0.73061(9)
N1 N 0.66525(13) 0.8120(3) 0.51340(9)
O1 O 0.48919(12) 0.7219(3) 0.57203(8)
O2 O 0.39953(13) 0.4889(3) 0.55937(8)
O3 O 0.47348(12) 1.2263(3) 0.94994(8)
O4 O 0.38178(12) 1.4557(3) 0.94031(9)
S1 S 0.87909(6) 1.35400(12) 0.48204(5)
C18B C 1.25948(19) 2.2299(4) 0.45762(16)
H9B H 1.2549 2.3388 0.4387
C19B C 1.1876(2) 2.1211(5) 0.45394(18)
H10B H 1.1360 2.1576 0.4333
C20B C 1.19221(17) 1.9572(4) 0.48103(12)
C21B C 1.27107(18) 1.9132(4) 0.50937(14)
H11B H 1.2783 1.8030 0.5273
C22B C 1.33993(16) 2.0298(4) 0.51172(12)
H12B H 1.3924 1.9961 0.5318
C23B C 1.1180(2) 1.8356(4) 0.47712(16)
C24B C 1.0424(3) 1.8461(7) 0.4451(3)
H13B H 1.0282 1.9387 0.4195
C25B C 0.9848(3) 1.7039(7) 0.4534(3)
H14B H 0.9289 1.6962 0.4348
C26B C 1.0190(2) 1.5823(5) 0.49057(16)
N1B N 1.33475(13) 2.1880(3) 0.48660(9)
S1B S 1.12091(6) 1.64600(12) 0.51796(5)
C1B C 0.57483(17) 0.3686(3) 0.41667(11)
C2B C 0.62846(17) 0.2994(4) 0.37206(11)
C3B C 0.69888(18) 0.3958(4) 0.35744(12)
H1B H 0.7097 0.5088 0.3728
C4B C 0.75320(19) 0.3266(4) 0.32029(13)
H2B H 0.8004 0.3930 0.3110
C5B C 0.73790(17) 0.1583(4) 0.29664(12)
C6B C 0.66612(18) 0.0638(4) 0.31083(12)
H3B H 0.6545 -0.0482 0.2949
C7B C 0.61206(19) 0.1324(4) 0.34779(12)
H4B H 0.5643 0.0670 0.3566
C8B C 0.79995(17) 0.0643(4) 0.25890(11)
C9B C 0.8560(2) -0.0598(5) 0.29963(14)
C10B C 0.85885(19) 0.1972(5) 0.23191(14)
C11B C 0.74802(16) -0.0371(4) 0.20884(11)
C12B C 0.77104(19) -0.2043(4) 0.19118(13)
H5B H 0.8198 -0.2607 0.2095
C13B C 0.72240(19) -0.2877(4) 0.14673(13)
H6B H 0.7383 -0.4009 0.1356
C14B C 0.64987(16) -0.2061(4) 0.11811(11)
C15B C 0.62885(16) -0.0361(3) 0.13437(11)
H7B H 0.5816 0.0226 0.1150
C16B C 0.67773(17) 0.0472(4) 0.17930(11)
H8B H 0.6631 0.1618 0.1898
C17B C 0.59440(16) -0.3035(4) 0.07255(11)
Co1B Co 0.442049(19) 0.35369(4) 0.492132(12)
F1B F 0.81140(15) -0.1968(3) 0.31665(9)
F2B F 0.88960(15) 0.0264(4) 0.34667(9)
F3B F 0.92427(12) -0.1273(3) 0.27619(10)
F4B F 0.81272(14) 0.3269(3) 0.20423(9)
F5B F 0.90325(13) 0.1175(3) 0.19338(10)
F6B F 0.91723(12) 0.2758(3) 0.26939(9)
O1B O 0.51081(12) 0.2781(3) 0.42797(8)
O2B O 0.60047(13) 0.5111(3) 0.44063(8)
O3B O 0.52652(12) -0.2263(3) 0.05006(8)
O4B O 0.61822(12) -0.4557(3) 0.05969(9)
Co1A Co 0.442049(19) -0.35369(4) -0.007868(12)
Co1A_2 Co 0.442049(19) 1.64631(4) 0.992132(12)
Co1B_2 Co 1.442049(19) 2.35369(4) 0.492132(12)
Co1C Co 0.557951(19) -0.64631(4) 0.007868(12)
Co1C_2 Co 0.557951(19) 1.35369(4) 1.007868(12)
N1B_2 N 0.33475(13) 0.1880(3) 0.48660(9)
O3A O 0.52652(12) 0.2263(3) 0.55006(8)
O3C O 0.47348(12) 0.7737(3) 0.44994(8)
O4A O 0.61822(12) 0.4557(3) 0.55969(9)
O4C O 0.38178(12) 0.5443(3) 0.44031(9)
loop_
_geom_bond_atom_site_label_1
_geom_bond_atom_site_label_2
_geom_bond_site_symmetry_1
_geom_bond_site_symmetry_2
C1 C2 1_555 1_555
C2 C3 1_555 1_555
C3 H1 1_555 1_555
C4 C3 1_555 1_555
H2 C4 1_555 1_555
C5 C4 1_555 1_555
C6 C5 1_555 1_555
H3 C6 1_555 1_555
C7 C2 1_555 1_555
H4 C7 1_555 1_555
C8 C5 1_555 1_555
C9 C8 1_555 1_555
C10 C8 1_555 1_555
C11 C8 1_555 1_555
C12 C11 1_555 1_555
H5 C12 1_555 1_555
C13 C12 1_555 1_555
H6 C13 1_555 1_555
C14 C13 1_555 1_555
C15 C14 1_555 1_555
H7 C15 1_555 1_555
C16 C11 1_555 1_555
H8 C16 1_555 1_555
C17 C14 1_555 1_555
C18 H9 1_555 1_555
C19 C18 1_555 1_555
H10 C19 1_555 1_555
C20 C19 1_555 1_555
C21 C20 1_555 1_555
H11 C21 1_555 1_555
C22 C21 1_555 1_555
H12 C22 1_555 1_555
C23 C20 1_555 1_555
C24 C23 1_555 1_555
H13 C24 1_555 1_555
C25 C24 1_555 1_555
H14 C25 1_555 1_555
C26 C25 1_555 1_555
Co1 N1 1_555 1_555
F1 C9 1_555 1_555
F2 C9 1_555 1_555
F3 C9 1_555 1_555
F4 C10 1_555 1_555
F5 C10 1_555 1_555
F6 C10 1_555 1_555
N1 C18 1_555 1_555
O1 C1 1_555 1_555
O2 C1 1_555 1_555
O3 C17 1_555 1_555
O4 C17 1_555 1_555
S1 C23 1_555 1_555
C18B H9B 1_555 1_555
C19B C18B 1_555 1_555
H10B C19B 1_555 1_555
C20B C19B 1_555 1_555
C21B C20B 1_555 1_555
H11B C21B 1_555 1_555
C22B C21B 1_555 1_555
H12B C22B 1_555 1_555
C23B C20B 1_555 1_555
C24B C23B 1_555 1_555
H13B C24B 1_555 1_555
C25B C24B 1_555 1_555
H14B C25B 1_555 1_555
C26B C26 1_555 1_555
N1B C18B 1_555 1_555
S1B C23B 1_555 1_555
C1B C2B 1_555 1_555
C2B C3B 1_555 1_555
C3B H1B 1_555 1_555
C4B C3B 1_555 1_555
H2B C4B 1_555 1_555
C5B C4B 1_555 1_555
C6B C5B 1_555 1_555
H3B C6B 1_555 1_555
C7B C2B 1_555 1_555
H4B C7B 1_555 1_555
C8B C5B 1_555 1_555
C9B C8B 1_555 1_555
C10B C8B 1_555 1_555
C11B C8B 1_555 1_555
C12B C11B 1_555 1_555
H5B C12B 1_555 1_555
C13B C12B 1_555 1_555
H6B C13B 1_555 1_555
C14B C13B 1_555 1_555
C15B C14B 1_555 1_555
H7B C15B 1_555 1_555
C16B C11B 1_555 1_555
H8B C16B 1_555 1_555
C17B C14B 1_555 1_555
Co1B O2 1_555 1_555
F1B C9B 1_555 1_555
F2B C9B 1_555 1_555
F3B C9B 1_555 1_555
F4B C10B 1_555 1_555
F5B C10B 1_555 1_555
F6B C10B 1_555 1_555
O1B C1B 1_555 1_555
O2B Co1 1_555 1_555
O3B C17B 1_555 1_555
O4B C17B 1_555 1_555
Co1A O3B 1_555 1_555
Co1A_2 O4 1_555 1_555
Co1B_2 N1B 1_555 1_555
Co1C O4B 1_555 1_555
Co1C_2 O3 1_555 1_555
N1B_2 Co1B 1_555 1_555
O3A Co1B 1_555 1_555
O3C Co1 1_555 1_555
O4A Co1 1_555 1_555
O4C Co1B 1_555 1_555
C6 C7 1_555 1_555
C15 C16 1_555 1_555
C22 N1 1_555 1_555
C26 S1 1_555 1_555
Co1 O1 1_555 1_555
C22B N1B 1_555 1_555
C25B C26B 1_555 1_555
C26B S1B 1_555 1_555
C1B O2B 1_555 1_555
C6B C7B 1_555 1_555
C15B C16B 1_555 1_555
Co1B O1B 1_555 1_555

#END
