
#######################################################################
#
#                 Cambridge Crystallographic Data Centre
#                                CCDC 
#
#######################################################################
#
# If this CIF has been generated from an entry in the Cambridge 
# Structural Database, then it will include bibliographic, chemical, 
# crystal, experimental, refinement or atomic coordinate data resulting 
# from the CCDC's data processing and validation procedures.
#
#######################################################################

data_KINHIA
_symmetry_cell_setting           monoclinic
_symmetry_space_group_name_H-M   'P 21/c'
_symmetry_Int_Tables_number      14
_space_group_name_Hall           '-P 2ybc'
loop_
_symmetry_equiv_pos_site_id
_symmetry_equiv_pos_as_xyz
1 x,y,z
2 -x,1/2+y,1/2-z
3 -x,-y,-z
4 x,1/2-y,1/2+z
_cell_length_a                   14.3794(12)
_cell_length_b                   23.893(2)
_cell_length_c                   15.9117(11)
_cell_angle_alpha                90
_cell_angle_beta                 117.102(6)
_cell_angle_gamma                90
_cell_volume                     4866.47
loop_
_atom_site_label
_atom_site_type_symbol
_atom_site_fract_x
_atom_site_fract_y
_atom_site_fract_z
Zn1 Zn 0.89285(4) 0.83877(2) -0.00521(4)
Zn2 Zn 0.76404(5) 0.83570(2) -0.24912(4)
S1 S 1.15675(11) 0.78295(6) 0.50786(10)
S2 S 1.42208(11) 0.78969(7) 0.78315(10)
O1 O 0.7547(2) 0.87135(14) -0.0387(2)
O2 O 0.6785(3) 0.87370(15) -0.1971(2)
O3 O 0.3257(3) 0.98751(15) -0.1246(2)
O4 O 0.0006(3) 0.83748(17) -0.0560(3)
O5 O -0.0333(3) 0.92044(18) -0.0180(3)
O6 O 0.8932(3) 0.82558(14) -0.2994(3)
O7 O 0.8391(3) 0.90289(14) -0.2610(2)
O8 O 1.1822(3) 1.00139(14) -0.3690(2)
O9 O 1.1503(3) 1.25872(13) -0.4678(2)
O10 O 1.1976(3) 1.26297(14) -0.3123(2)
N1 N 0.9710(3) 0.83827(16) 0.1393(3)
N2 N 1.6485(3) 0.6902(2) 1.1227(3)
C1 C 0.6802(4) 0.8833(2) -0.1195(3)
C2 C 0.5872(4) 0.9106(2) -0.1194(3)
C3 C 0.5680(4) 0.9057(2) -0.0417(3)
H1 H 0.6144 0.8858 0.0111
C4 C 0.4800(4) 0.9303(2) -0.0421(3)
H2 H 0.4673 0.9273 0.0101
C5 C 0.4115(4) 0.9593(2) -0.1218(3)
C6 C 0.4304(4) 0.9650(2) -0.2007(3)
H3 H 0.3845 0.9848 -0.2538
C7 C 0.5182(4) 0.9405(2) -0.1971(3)
H4 H 0.5319 0.9442 -0.2485
C8 C 0.2578(4) 0.9605(2) -0.0993(3)
C9 C 0.1998(4) 0.9948(2) -0.0703(3)
H5 H 0.2131 1.0330 -0.0624
C10 C 0.1221(4) 0.9714(2) -0.0534(3)
H6 H 0.0820 0.9943 -0.0352
C11 C 0.1029(4) 0.9142(2) -0.0631(3)
C12 C 0.1635(4) 0.8807(2) -0.0911(4)
H7 H 0.1522 0.8422 -0.0968
C13 C 0.2386(4) 0.9033(2) -0.1103(4)
H8 H 0.2768 0.8806 -0.1307
C14 C 0.0192(4) 0.8894(2) -0.0442(4)
C15 C 0.8988(4) 0.8774(2) -0.2882(3)
C16 C 0.9735(4) 0.9114(2) -0.3083(3)
C17 C 0.9693(4) 0.9693(2) -0.3083(3)
H9 H 0.9209 0.9871 -0.2938
C18 C 1.0371(4) 1.0013(2) -0.3299(4)
H10 H 1.0329 1.0401 -0.3313
C19 C 1.1096(4) 0.9746(2) -0.3490(3)
C20 C 1.1131(4) 0.9163(2) -0.3514(4)
H11 H 1.1605 0.8984 -0.3671
C21 C 1.0459(4) 0.8858(2) -0.3305(4)
H12 H 1.0490 0.8469 -0.3311
C22 C 1.1820(4) 1.0599(2) -0.3710(3)
C23 C 1.2066(4) 1.0906(2) -0.2896(4)
H13 H 1.2238 1.0726 -0.2326
C24 C 1.2050(4) 1.1479(2) -0.2947(4)
H14 H 1.2209 1.1691 -0.2408
C25 C 1.1796(4) 1.1747(2) -0.3809(3)
C26 C 1.1584(4) 1.1428(2) -0.4593(4)
H15 H 1.1438 1.1604 -0.5161
C27 C 1.1584(4) 1.0846(2) -0.4554(4)
H16 H 1.1426 1.0632 -0.5091
C28 C 1.1758(3) 1.2368(2) -0.3873(3)
C29 C 0.9674(4) 0.7948(2) 0.1920(3)
H17 H 0.9237 0.7648 0.1618
C30 C 1.0256(4) 0.7931(2) 0.2883(3)
H18 H 1.0205 0.7624 0.3219
C31 C 1.0930(4) 0.8377(2) 0.3366(3)
C32 C 1.0938(4) 0.8824(2) 0.2801(4)
H19 H 1.1370 0.9130 0.3081
C33 C 1.0328(4) 0.8820(2) 0.1855(3)
H20 H 1.0334 0.9131 0.1507
C34 C 1.1608(4) 0.8371(2) 0.4371(4)
C35 C 1.2407(4) 0.8739(2) 0.4906(4)
H21 H 1.2553 0.9059 0.4657
C36 C 1.2975(4) 0.8582(3) 0.5861(4)
H22 H 1.3537 0.8785 0.6304
C37 C 1.2617(4) 0.8108(3) 0.6064(4)
C38 C 1.2970(4) 0.7818(3) 0.6970(4)
C39 C 1.2492(5) 0.7442(4) 0.7250(5)
H23 H 1.1801 0.7337 0.6878
C40 C 1.3089(5) 0.7217(4) 0.8129(5)
H24 H 1.2848 0.6940 0.8390
C41 C 1.4067(4) 0.7439(3) 0.8582(4)
C42 C 1.4703(5) 0.6960(3) 1.0106(4)
H25 H 1.4016 0.6863 0.9946
C43 C 1.5496(5) 0.6778(3) 1.0960(4)
H26 H 1.5326 0.6561 1.1356
C44 C 1.6687(4) 0.7220(3) 1.0632(4)
H27 H 1.7379 0.7316 1.0810
C45 C 1.5937(4) 0.7413(3) 0.9779(4)
H28 H 1.6125 0.7633 0.9399
C46 C 1.4905(4) 0.7280(3) 0.9490(4)
Zn1_2 Zn -0.10715(4) 0.83877(2) -0.00521(4)
Zn1A Zn 1.10715(4) 1.33877(2) -0.49479(4)
Zn2A Zn 1.23596(5) 1.33570(2) -0.25088(4)
Zn2C Zn 1.76404(5) 0.66430(2) 1.25088(4)
O4_2 O 1.0006(3) 0.83748(17) -0.0560(3)
O5_2 O 0.9667(3) 0.92044(18) -0.0180(3)
O9A O 0.8497(3) 0.75872(13) -0.0322(2)
O10A O 0.8024(3) 0.76297(14) -0.1877(2)
N2C N 0.6485(3) 0.8098(2) -0.3773(3)
loop_
_geom_bond_atom_site_label_1
_geom_bond_atom_site_label_2
_geom_bond_site_symmetry_1
_geom_bond_site_symmetry_2
Zn1 O1 1_555 1_555
Zn2 O2 1_555 1_555
S1 C34 1_555 1_555
S2 C38 1_555 1_555
O1 C1 1_555 1_555
O2 C1 1_555 1_555
O3 C5 1_555 1_555
O4 C14 1_555 1_555
O5 C14 1_555 1_555
O6 Zn2 1_555 1_555
O7 Zn2 1_555 1_555
O8 C19 1_555 1_555
O9 C28 1_555 1_555
O10 C28 1_555 1_555
N1 Zn1 1_555 1_555
N2 C43 1_555 1_555
C1 C2 1_555 1_555
C2 C3 1_555 1_555
C3 H1 1_555 1_555
C4 C3 1_555 1_555
H2 C4 1_555 1_555
C5 C4 1_555 1_555
C6 C5 1_555 1_555
H3 C6 1_555 1_555
C7 C2 1_555 1_555
H4 C7 1_555 1_555
C8 O3 1_555 1_555
C9 C8 1_555 1_555
H5 C9 1_555 1_555
C10 C9 1_555 1_555
H6 C10 1_555 1_555
C11 C10 1_555 1_555
C12 C11 1_555 1_555
H7 C12 1_555 1_555
C13 C8 1_555 1_555
H8 C13 1_555 1_555
C14 C11 1_555 1_555
C15 O6 1_555 1_555
C16 C15 1_555 1_555
C17 C16 1_555 1_555
H9 C17 1_555 1_555
C18 C17 1_555 1_555
H10 C18 1_555 1_555
C19 C18 1_555 1_555
C20 C19 1_555 1_555
H11 C20 1_555 1_555
C21 C16 1_555 1_555
H12 C21 1_555 1_555
C22 O8 1_555 1_555
C23 C22 1_555 1_555
H13 C23 1_555 1_555
C24 C23 1_555 1_555
H14 C24 1_555 1_555
C25 C24 1_555 1_555
C26 C25 1_555 1_555
H15 C26 1_555 1_555
C27 C22 1_555 1_555
H16 C27 1_555 1_555
C28 C25 1_555 1_555
C29 N1 1_555 1_555
H17 C29 1_555 1_555
C30 C29 1_555 1_555
H18 C30 1_555 1_555
C31 C30 1_555 1_555
C32 C31 1_555 1_555
H19 C32 1_555 1_555
C33 N1 1_555 1_555
H20 C33 1_555 1_555
C34 C31 1_555 1_555
C35 C34 1_555 1_555
H21 C35 1_555 1_555
C36 C35 1_555 1_555
H22 C36 1_555 1_555
C37 S1 1_555 1_555
C38 C37 1_555 1_555
C39 C38 1_555 1_555
H23 C39 1_555 1_555
C40 C39 1_555 1_555
H24 C40 1_555 1_555
C41 S2 1_555 1_555
C42 H25 1_555 1_555
C43 C42 1_555 1_555
H26 C43 1_555 1_555
C44 N2 1_555 1_555
H27 C44 1_555 1_555
C45 C44 1_555 1_555
H28 C45 1_555 1_555
C46 C41 1_555 1_555
Zn1_2 O4 1_555 1_555
Zn1A O9 1_555 1_555
Zn2A O10 1_555 1_555
Zn2C N2 1_555 1_555
O4_2 Zn1 1_555 1_555
O5_2 Zn1 1_555 1_555
O9A Zn1 1_555 1_555
O10A Zn2 1_555 1_555
N2C Zn2 1_555 1_555
O5 Zn1_2 1_555 1_555
O7 C15 1_555 1_555
C6 C7 1_555 1_555
C12 C13 1_555 1_555
C20 C21 1_555 1_555
C26 C27 1_555 1_555
C32 C33 1_555 1_555
C36 C37 1_555 1_555
C40 C41 1_555 1_555
C42 C46 1_555 1_555
C45 C46 1_555 1_555

#END
