
#######################################################################
#
#                 Cambridge Crystallographic Data Centre
#                                CCDC 
#
#######################################################################
#
# If this CIF has been generated from an entry in the Cambridge 
# Structural Database, then it will include bibliographic, chemical, 
# crystal, experimental, refinement or atomic coordinate data resulting 
# from the CCDC's data processing and validation procedures.
#
#######################################################################

data_KINKID
_symmetry_cell_setting           monoclinic
_symmetry_space_group_name_H-M   'P 21/c'
_symmetry_Int_Tables_number      14
_space_group_name_Hall           '-P 2ybc'
loop_
_symmetry_equiv_pos_site_id
_symmetry_equiv_pos_as_xyz
1 x,y,z
2 -x,1/2+y,1/2-z
3 -x,-y,-z
4 x,1/2-y,1/2+z
_cell_length_a                   29.729(4)
_cell_length_b                   16.864(5)
_cell_length_c                   10.889(3)
_cell_angle_alpha                90
_cell_angle_beta                 92.976(5)
_cell_angle_gamma                90
_cell_volume                     5451.84
loop_
_atom_site_label
_atom_site_type_symbol
_atom_site_fract_x
_atom_site_fract_y
_atom_site_fract_z
Cd1 Cd 0.988994(6) 0.242065(12) 0.081852(19)
Cd2 Cd 1.534663(7) 0.758937(12) 0.892773(19)
O1 O 1.03347(6) 0.16781(12) 0.22349(18)
O2 O 1.06550(7) 0.18763(13) 0.04717(19)
O3 O 1.41391(6) 0.17620(12) 0.48860(19)
O4 O 1.38733(7) 0.24265(13) 0.64462(19)
O5 O 0.91849(7) 0.25798(12) 0.1326(2)
O6 O 0.91024(7) 0.16274(13) 0.2731(2)
O7 O 0.53461(7) 0.18413(14) 0.1012(2)
O8 O 0.54052(7) 0.27177(15) -0.0501(2)
N1 N 0.96021(8) 0.14425(15) -0.0457(2)
N2 N 0.91538(8) 0.08568(14) -0.1861(2)
N3 N 0.77313(8) 0.02294(15) -0.5295(2)
N4 N 0.73350(8) 0.03326(14) -0.4974(2)
N5 N 0.59483(8) -0.06959(14) -0.8301(2)
N6 N 0.55694(8) -0.14656(14) -0.9618(2)
N7 N 1.02922(8) 0.34912(14) 0.1679(2)
N8 N 1.08619(8) 0.41509(14) 0.2567(2)
N9 N 1.25705(9) 0.45622(15) 0.4954(2)
N10 N 1.26356(9) 0.51991(15) 0.5497(2)
N11 N 1.43631(8) 0.57772(14) 0.7678(2)
N12 N 1.49599(8) 0.64762(14) 0.8287(2)
C1 C 0.92093(10) 0.14748(18) -0.1072(3)
H1 H 0.8997 0.1872 -0.0977
C2 C 0.98081(10) 0.07720(18) -0.0864(3)
H2 H 1.0092 0.0596 -0.0588
C3 C 0.95382(10) 0.04028(18) -0.1727(3)
H3 H 0.9600 -0.0063 -0.2144
C4 C 0.87843(10) 0.07325(17) -0.2730(3)
C5 C 0.83476(10) 0.0841(2) -0.2386(3)
H4 H 0.8295 0.1010 -0.1592
C6 C 0.79883(11) 0.0701(2) -0.3213(3)
H5 H 0.7695 0.0778 -0.2982
C7 C 0.80696(10) 0.04429(17) -0.4390(3)
C8 C 0.85071(10) 0.03564(19) -0.4734(3)
H6 H 0.8560 0.0198 -0.5532
C9 C 0.88669(11) 0.05013(19) -0.3913(3)
H7 H 0.9161 0.0444 -0.4154
C10 C 0.70008(10) 0.00689(17) -0.5869(3)
C11 C 0.65580(10) 0.02439(17) -0.5630(3)
H8 H 0.6495 0.0527 -0.4926
C12 C 0.62084(10) 0.00009(17) -0.6432(3)
H9 H 0.5912 0.0127 -0.6276
C13 C 0.63029(10) -0.04304(17) -0.7465(3)
C14 C 0.67485(10) -0.06088(18) -0.7709(3)
H10 H 0.6811 -0.0896 -0.8409
C15 C 0.70927(10) -0.03592(17) -0.6915(3)
H11 H 0.7389 -0.0478 -0.7078
C16 C 0.59341(10) -0.14033(18) -0.8901(3)
H12 H 0.6155 -0.1792 -0.8812
C17 C 0.53330(10) -0.07736(18) -0.9469(3)
H13 H 0.5056 -0.0655 -0.9864
C18 C 0.55612(10) -0.02902(19) -0.8665(3)
H14 H 0.5475 0.0211 -0.8410
C19 C 1.06377(10) 0.34486(17) 0.2472(3)
H15 H 1.0720 0.2995 0.2915
C20 C 1.02889(10) 0.42652(18) 0.1249(3)
H16 H 1.0079 0.4470 0.0669
C21 C 1.06325(10) 0.46789(18) 0.1788(3)
H17 H 1.0701 0.5210 0.1664
C22 C 1.12894(10) 0.42735(18) 0.3191(3)
C23 C 1.13860(10) 0.49962(18) 0.3750(3)
H18 H 1.1171 0.5397 0.3739
C24 C 1.18069(11) 0.51139(19) 0.4326(3)
H19 H 1.1877 0.5600 0.4693
C25 C 1.21261(10) 0.45086(19) 0.4360(3)
C26 C 1.20280(10) 0.37973(19) 0.3778(3)
H20 H 1.2243 0.3397 0.3785
C27 C 1.16107(10) 0.36789(18) 0.3184(3)
H21 H 1.1546 0.3202 0.2783
C28 C 1.30823(10) 0.52741(19) 0.6064(3)
C29 C 1.31698(10) 0.60027(19) 0.6604(3)
H22 H 1.2944 0.6385 0.6604
C30 C 1.35899(10) 0.61692(19) 0.7145(3)
H23 H 1.3647 0.6659 0.7511
C31 C 1.39263(10) 0.55956(18) 0.7136(3)
C32 C 1.38424(10) 0.48542(18) 0.6619(3)
H24 H 1.4067 0.4470 0.6628
C33 C 1.34167(10) 0.46949(19) 0.6087(3)
H25 H 1.3355 0.4199 0.5744
C34 C 1.45734(10) 0.64883(18) 0.7648(3)
H26 H 1.4458 0.6930 0.7227
C35 C 1.46372(10) 0.52816(18) 0.8394(3)
H27 H 1.4584 0.4753 0.8583
C36 C 1.49996(10) 0.57249(18) 0.8764(3)
H28 H 1.5240 0.5546 0.9269
C37 C 1.06790(10) 0.17040(17) 0.1589(3)
C38 C 1.11329(9) 0.15900(16) 0.2234(3)
C39 C 1.15140(10) 0.15664(17) 0.1547(3)
H29 H 1.1482 0.1557 0.0693
C40 C 1.19394(10) 0.15567(17) 0.2118(3)
H30 H 1.2190 0.1538 0.1642
C41 C 1.20007(10) 0.15749(16) 0.3399(3)
C42 C 1.16161(10) 0.15758(18) 0.4079(3)
H31 H 1.1647 0.1574 0.4933
C43 C 1.11893(10) 0.15787(18) 0.3506(3)
H32 H 1.0938 0.1573 0.3980
C44 C 1.24614(9) 0.16374(17) 0.3980(3)
C45 C 1.25412(10) 0.20212(18) 0.5101(3)
H33 H 1.2298 0.2202 0.5526
C46 C 1.29749(10) 0.21403(18) 0.5600(3)
H34 H 1.3020 0.2402 0.6347
C47 C 1.33424(9) 0.18680(17) 0.4981(3)
C48 C 1.32657(10) 0.14621(18) 0.3886(3)
H35 H 1.3509 0.1263 0.3479
C49 C 1.28343(10) 0.13485(17) 0.3387(3)
H36 H 1.2791 0.1076 0.2648
C50 C 1.38147(9) 0.20190(18) 0.5483(3)
C51 C 0.89538(10) 0.20995(18) 0.1932(3)
C52 C 0.84523(9) 0.21090(17) 0.1658(3)
C53 C 0.81666(10) 0.17336(18) 0.2436(3)
H37 H 0.8286 0.1470 0.3129
C54 C 0.77073(10) 0.17458(18) 0.2194(3)
H38 H 0.7522 0.1499 0.2741
C55 C 0.75132(9) 0.21168(17) 0.1158(3)
C56 C 0.78069(10) 0.24700(17) 0.0356(3)
H39 H 0.7689 0.2705 -0.0363
C57 C 0.82650(10) 0.24783(17) 0.0606(3)
H40 H 0.8451 0.2732 0.0069
C58 C 0.70186(9) 0.21438(17) 0.0919(3)
C59 C 0.67364(10) 0.16018(18) 0.1467(3)
H41 H 0.6862 0.1210 0.1979
C60 C 0.62756(10) 0.16372(19) 0.1262(3)
H42 H 0.6095 0.1277 0.1655
C61 C 0.60751(10) 0.22006(18) 0.0480(3)
C62 C 0.63529(10) 0.27261(18) -0.0100(3)
H43 H 0.6227 0.3095 -0.0652
C63 C 0.68131(10) 0.27093(18) 0.0128(3)
H44 H 0.6991 0.3081 -0.0250
C64 C 0.55708(10) 0.2260(2) 0.0289(3)
O9 O 0.98251(8) 0.33110(13) -0.0779(2)
O10 O 1.53349(8) 0.82631(13) 0.7081(2)
H45 H 0.9595(15) 0.332(3) -0.117(4)
H46 H 1.0044(11) 0.327(3) -0.130(3)
Cd2_2 Cd 0.534663(7) -0.241063(12) -1.107227(19)
Cd2A Cd 1.465337(7) 0.258937(12) 0.607227(19)
Cd2B Cd 0.465337(7) 0.241063(12) 0.107227(19)
O3A O 1.58609(6) 0.67620(12) 1.01140(19)
O4A O 1.61267(7) 0.74265(13) 0.85538(19)
O7B O 1.46539(7) 0.81587(14) 0.8988(2)
N6_2 N 1.55694(8) 0.85344(14) 1.0382(2)
O11 O 0.5341(14) 0.371(3) -0.181(4)
loop_
_geom_bond_atom_site_label_1
_geom_bond_atom_site_label_2
_geom_bond_site_symmetry_1
_geom_bond_site_symmetry_2
Cd1 O1 1_555 1_555
Cd2 N12 1_555 1_555
O1 C37 1_555 1_555
O2 Cd1 1_555 1_555
O3 C50 1_555 1_555
O4 C50 1_555 1_555
O5 Cd1 1_555 1_555
O6 C51 1_555 1_555
O7 C64 1_555 1_555
O8 C64 1_555 1_555
N1 Cd1 1_555 1_555
N2 C1 1_555 1_555
N3 N4 1_555 1_555
N4 C10 1_555 1_555
N5 C13 1_555 1_555
N6 C16 1_555 1_555
N7 Cd1 1_555 1_555
N8 C19 1_555 1_555
N9 N10 1_555 1_555
N10 C28 1_555 1_555
N11 C31 1_555 1_555
N12 C34 1_555 1_555
C1 N1 1_555 1_555
H1 C1 1_555 1_555
C2 N1 1_555 1_555
H2 C2 1_555 1_555
C3 N2 1_555 1_555
H3 C3 1_555 1_555
C4 N2 1_555 1_555
C5 C4 1_555 1_555
H4 C5 1_555 1_555
C6 C5 1_555 1_555
H5 C6 1_555 1_555
C7 N3 1_555 1_555
C8 C7 1_555 1_555
H6 C8 1_555 1_555
C9 C4 1_555 1_555
H7 C9 1_555 1_555
C10 C11 1_555 1_555
C11 H8 1_555 1_555
C12 C11 1_555 1_555
H9 C12 1_555 1_555
C13 C12 1_555 1_555
C14 C13 1_555 1_555
H10 C14 1_555 1_555
C15 C10 1_555 1_555
H11 C15 1_555 1_555
C16 N5 1_555 1_555
H12 C16 1_555 1_555
C17 N6 1_555 1_555
H13 C17 1_555 1_555
C18 N5 1_555 1_555
H14 C18 1_555 1_555
C19 N7 1_555 1_555
H15 C19 1_555 1_555
C20 N7 1_555 1_555
H16 C20 1_555 1_555
C21 N8 1_555 1_555
H17 C21 1_555 1_555
C22 N8 1_555 1_555
C23 C22 1_555 1_555
H18 C23 1_555 1_555
C24 C23 1_555 1_555
H19 C24 1_555 1_555
C25 N9 1_555 1_555
C26 C25 1_555 1_555
H20 C26 1_555 1_555
C27 C22 1_555 1_555
H21 C27 1_555 1_555
C28 C29 1_555 1_555
C29 H22 1_555 1_555
C30 C29 1_555 1_555
H23 C30 1_555 1_555
C31 C30 1_555 1_555
C32 C31 1_555 1_555
H24 C32 1_555 1_555
C33 C28 1_555 1_555
H25 C33 1_555 1_555
C34 N11 1_555 1_555
H26 C34 1_555 1_555
C35 N11 1_555 1_555
H27 C35 1_555 1_555
C36 N12 1_555 1_555
H28 C36 1_555 1_555
C37 O2 1_555 1_555
C38 C37 1_555 1_555
C39 C38 1_555 1_555
H29 C39 1_555 1_555
C40 C39 1_555 1_555
H30 C40 1_555 1_555
C41 C40 1_555 1_555
C42 C41 1_555 1_555
H31 C42 1_555 1_555
C43 C38 1_555 1_555
H32 C43 1_555 1_555
C44 C41 1_555 1_555
C45 C44 1_555 1_555
H33 C45 1_555 1_555
C46 C45 1_555 1_555
H34 C46 1_555 1_555
C47 C46 1_555 1_555
C48 C47 1_555 1_555
H35 C48 1_555 1_555
C49 C44 1_555 1_555
H36 C49 1_555 1_555
C50 C47 1_555 1_555
C51 O5 1_555 1_555
C52 C51 1_555 1_555
C53 C52 1_555 1_555
H37 C53 1_555 1_555
C54 C53 1_555 1_555
H38 C54 1_555 1_555
C55 C54 1_555 1_555
C56 C55 1_555 1_555
H39 C56 1_555 1_555
C57 C52 1_555 1_555
H40 C57 1_555 1_555
C58 C55 1_555 1_555
C59 C58 1_555 1_555
H41 C59 1_555 1_555
C60 C59 1_555 1_555
H42 C60 1_555 1_555
C61 C60 1_555 1_555
C62 C61 1_555 1_555
H43 C62 1_555 1_555
C63 C58 1_555 1_555
H44 C63 1_555 1_555
C64 C61 1_555 1_555
O9 Cd1 1_555 1_555
O10 Cd2 1_555 1_555
H45 O9 1_555 1_555
H46 O9 1_555 1_555
Cd2_2 N6 1_555 1_555
Cd2A O3 1_555 1_555
Cd2B O7 1_555 1_555
O3A Cd2 1_555 1_555
O4A Cd2 1_555 1_555
O7B Cd2 1_555 1_555
N6_2 Cd2 1_555 1_555
O4 Cd2A 1_555 1_555
C2 C3 1_555 1_555
C6 C7 1_555 1_555
C8 C9 1_555 1_555
C14 C15 1_555 1_555
C17 C18 1_555 1_555
C20 C21 1_555 1_555
C24 C25 1_555 1_555
C26 C27 1_555 1_555
C32 C33 1_555 1_555
C35 C36 1_555 1_555
C42 C43 1_555 1_555
C48 C49 1_555 1_555
C56 C57 1_555 1_555
C62 C63 1_555 1_555

#END
