
#######################################################################
#
#                 Cambridge Crystallographic Data Centre
#                                CCDC 
#
#######################################################################
#
# If this CIF has been generated from an entry in the Cambridge 
# Structural Database, then it will include bibliographic, chemical, 
# crystal, experimental, refinement or atomic coordinate data resulting 
# from the CCDC's data processing and validation procedures.
#
#######################################################################

data_KINKEZ
_symmetry_cell_setting           monoclinic
_symmetry_space_group_name_H-M   'P 21/c'
_symmetry_Int_Tables_number      14
_space_group_name_Hall           '-P 2ybc'
loop_
_symmetry_equiv_pos_site_id
_symmetry_equiv_pos_as_xyz
1 x,y,z
2 -x,1/2+y,1/2-z
3 -x,-y,-z
4 x,1/2-y,1/2+z
_cell_length_a                   8.055(5)
_cell_length_b                   17.819(5)
_cell_length_c                   18.976(5)
_cell_angle_alpha                90
_cell_angle_beta                 100.336(5)
_cell_angle_gamma                90
_cell_volume                     2679.47
loop_
_atom_site_label
_atom_site_type_symbol
_atom_site_fract_x
_atom_site_fract_y
_atom_site_fract_z
Cd1 Cd -0.19942(4) 0.11428(2) 0.373976(19)
O1 O -0.1130(4) 0.0040(2) 0.30433(19)
O2 O 0.0472(4) 0.10354(19) 0.33775(19)
O3 O 0.6492(5) 0.2070(2) 0.2801(2)
O4 O 0.5289(4) 0.11268(18) 0.32739(19)
N1 N -0.1024(6) 0.2148(2) 0.4418(2)
N2 N 0.0423(5) 0.3196(2) 0.4644(2)
N3 N 0.3380(6) 0.6013(2) 0.4317(2)
N4 N 0.7709(5) 1.0294(2) 0.4604(2)
N5 N 0.6736(5) 0.9215(2) 0.4927(2)
N6 N 0.4027(6) 0.6311(2) 0.4908(2)
C1 C -0.0633(7) 0.2795(3) 0.4150(3)
H1 H -0.1032 0.2954 0.3683
C2 C -0.0171(7) 0.2129(3) 0.5116(3)
H2 H -0.0202 0.1737 0.5437
C3 C 0.0711(7) 0.2768(3) 0.5261(3)
H3 H 0.1387 0.2897 0.5694
C4 C 0.1147(6) 0.3915(3) 0.4558(3)
C5 C 0.1686(7) 0.4354(3) 0.5168(3)
H4 H 0.1533 0.4187 0.5617
C6 C 0.2444(7) 0.5037(3) 0.5099(3)
H5 H 0.2832 0.5325 0.5503
C7 C 0.2633(6) 0.5297(3) 0.4431(3)
C8 C 0.2068(6) 0.4865(3) 0.3823(3)
H6 H 0.2180 0.5044 0.3373
C9 C 0.1336(7) 0.4169(3) 0.3887(3)
H7 H 0.0975 0.3876 0.3483
C10 C 0.7298(6) 0.9592(3) 0.4401(3)
H8 H 0.7386 0.9391 0.3957
C11 C 0.7377(6) 1.0351(3) 0.5286(3)
H9 H 0.7544 1.0782 0.5566
C12 C 0.6776(7) 0.9696(3) 0.5499(3)
H10 H 0.6458 0.9592 0.5937
C13 C 0.6094(6) 0.8460(3) 0.4889(3)
C14 C 0.5284(6) 0.8174(3) 0.4236(3)
H11 H 0.5191 0.8459 0.3821
C15 C 0.4612(6) 0.7450(3) 0.4214(3)
H12 H 0.4094 0.7243 0.3780
C16 C 0.4722(6) 0.7042(3) 0.4844(3)
C17 C 0.5543(7) 0.7336(3) 0.5486(3)
H13 H 0.5614 0.7055 0.5904
C18 C 0.6266(7) 0.8049(3) 0.5515(3)
H14 H 0.6848 0.8243 0.5944
C19 C 0.0186(6) 0.0417(3) 0.3053(3)
C20 C 0.1525(6) 0.0119(3) 0.2662(3)
C21 C 0.1819(7) -0.0648(3) 0.2673(3)
H15 H 0.1165 -0.0960 0.2905
C22 C 0.3077(7) -0.0964(3) 0.2343(3)
H16 H 0.3290 -0.1478 0.2369
C23 C 0.3997(7) -0.0493(3) 0.1976(3)
H17 H 0.4809 -0.0695 0.1739
C24 C 0.3718(6) 0.0278(3) 0.1958(3)
H18 H 0.4356 0.0586 0.1714
C25 C 0.2488(6) 0.0595(3) 0.2302(3)
C26 C 0.2190(6) 0.1429(3) 0.2263(3)
C27 C 0.0586(7) 0.1707(3) 0.1990(3)
H19 H -0.0293 0.1375 0.1833
C28 C 0.0283(7) 0.2475(3) 0.1950(3)
H20 H -0.0806 0.2651 0.1788
C29 C 0.1584(7) 0.2980(3) 0.2149(3)
H21 H 0.1384 0.3494 0.2106
C30 C 0.3210(7) 0.2708(3) 0.2416(3)
H22 H 0.4089 0.3046 0.2551
C31 C 0.3531(6) 0.1940(3) 0.2483(3)
C32 C 0.5227(6) 0.1694(3) 0.2862(3)
Cd1_2 Cd 0.80058(4) 0.11428(2) 0.373976(19)
Cd1_3 Cd 0.80058(4) 1.11428(2) 0.373976(19)
O3_2 O -0.3508(5) 0.2070(2) 0.2801(2)
O4_2 O -0.4711(4) 0.11268(18) 0.32739(19)
N4_2 N -0.2291(5) 0.0294(2) 0.4604(2)
loop_
_geom_bond_atom_site_label_1
_geom_bond_atom_site_label_2
_geom_bond_site_symmetry_1
_geom_bond_site_symmetry_2
Cd1 O1 1_555 1_555
O1 C19 1_555 1_555
O2 Cd1 1_555 1_555
O3 C32 1_555 1_555
O4 C32 1_555 1_555
N1 Cd1 1_555 1_555
N2 C1 1_555 1_555
N3 N6 1_555 1_555
N4 C10 1_555 1_555
N5 C10 1_555 1_555
N6 C16 1_555 1_555
C1 N1 1_555 1_555
H1 C1 1_555 1_555
C2 N1 1_555 1_555
H2 C2 1_555 1_555
C3 N2 1_555 1_555
H3 C3 1_555 1_555
C4 N2 1_555 1_555
C5 C4 1_555 1_555
H4 C5 1_555 1_555
C6 C5 1_555 1_555
H5 C6 1_555 1_555
C7 N3 1_555 1_555
C8 C7 1_555 1_555
H6 C8 1_555 1_555
C9 C4 1_555 1_555
H7 C9 1_555 1_555
C10 H8 1_555 1_555
C11 N4 1_555 1_555
H9 C11 1_555 1_555
C12 N5 1_555 1_555
H10 C12 1_555 1_555
C13 N5 1_555 1_555
C14 C13 1_555 1_555
H11 C14 1_555 1_555
C15 C14 1_555 1_555
H12 C15 1_555 1_555
C16 C15 1_555 1_555
C17 C16 1_555 1_555
H13 C17 1_555 1_555
C18 C13 1_555 1_555
H14 C18 1_555 1_555
C19 O2 1_555 1_555
C20 C19 1_555 1_555
C21 C20 1_555 1_555
H15 C21 1_555 1_555
C22 C21 1_555 1_555
H16 C22 1_555 1_555
C23 C22 1_555 1_555
H17 C23 1_555 1_555
C24 C23 1_555 1_555
H18 C24 1_555 1_555
C25 C20 1_555 1_555
C26 C25 1_555 1_555
C27 C26 1_555 1_555
H19 C27 1_555 1_555
C28 C27 1_555 1_555
H20 C28 1_555 1_555
C29 C28 1_555 1_555
H21 C29 1_555 1_555
C30 C29 1_555 1_555
H22 C30 1_555 1_555
C31 C26 1_555 1_555
C32 C31 1_555 1_555
Cd1_2 O3 1_555 1_555
Cd1_3 N4 1_555 1_555
O3_2 Cd1 1_555 1_555
O4_2 Cd1 1_555 1_555
N4_2 Cd1 1_555 1_555
O4 Cd1_2 1_555 1_555
C2 C3 1_555 1_555
C6 C7 1_555 1_555
C8 C9 1_555 1_555
C11 C12 1_555 1_555
C17 C18 1_555 1_555
C24 C25 1_555 1_555
C30 C31 1_555 1_555

#END
