
#######################################################################
#
#                 Cambridge Crystallographic Data Centre
#                                CCDC 
#
#######################################################################
#
# If this CIF has been generated from an entry in the Cambridge 
# Structural Database, then it will include bibliographic, chemical, 
# crystal, experimental, refinement or atomic coordinate data resulting 
# from the CCDC's data processing and validation procedures.
#
#######################################################################

data_KINNOM
_symmetry_cell_setting           monoclinic
_symmetry_space_group_name_H-M   'P 2/c'
_symmetry_Int_Tables_number      13
_space_group_name_Hall           '-P 2yc'
loop_
_symmetry_equiv_pos_site_id
_symmetry_equiv_pos_as_xyz
1 x,y,z
2 -x,y,1/2-z
3 -x,-y,-z
4 x,-y,1/2+z
_cell_length_a                   18.2594(6)
_cell_length_b                   11.8015(3)
_cell_length_c                   14.9782(4)
_cell_angle_alpha                90
_cell_angle_beta                 108.109(3)
_cell_angle_gamma                90
_cell_volume                     3067.75
loop_
_atom_site_label
_atom_site_type_symbol
_atom_site_fract_x
_atom_site_fract_y
_atom_site_fract_z
P1 P 0.24996(2) 0.61265(4) 0.14103(3)
C15 C 0.20850(11) 0.40168(17) 0.06358(13)
H1 H 0.2080 0.4363 0.0061
C16 C 0.30051(10) 0.63503(18) 0.05647(12)
C17 C 0.16000(10) 0.68804(17) 0.10503(12)
C18 C 0.30978(10) 0.66626(16) 0.25220(13)
C19 C 0.18779(11) 0.23920(17) 0.14894(14)
H2 H 0.1724 0.1624 0.1497
C20 C 0.09013(12) 0.8636(2) 0.08840(16)
H3 H 0.0888 0.9423 0.1012
C21 C 0.21094(12) 0.30091(18) 0.23200(14)
H4 H 0.2120 0.2657 0.2894
C22 C 0.23098(11) 0.46394(16) 0.14698(13)
C23 C 0.15829(11) 0.80363(18) 0.12372(14)
H5 H 0.2037 0.8411 0.1605
C24 C 0.09296(11) 0.6332(2) 0.05185(14)
H6 H 0.0936 0.5542 0.0398
C25 C 0.23243(11) 0.41341(18) 0.23174(13)
H7 H 0.2479 0.4556 0.2885
C26 C 0.29522(12) 0.74008(19) 0.01356(14)
H8 H 0.2612 0.7959 0.0239
C27 C 0.02543(11) 0.6948(2) 0.01673(15)
H9 H -0.0202 0.6578 -0.0199
C28 C 0.34921(12) 0.55146(19) 0.04016(15)
H10 H 0.3533 0.4797 0.0700
C29 C 0.18704(11) 0.28969(18) 0.06473(14)
H11 H 0.1718 0.2471 0.0081
C30 C 0.02395(12) 0.8094(2) 0.03452(15)
H12 H -0.0225 0.8510 0.0098
C31 C 0.40403(13) 0.7510(2) 0.42170(15)
H13 H 0.4363 0.7805 0.4796
C32 C 0.27770(11) 0.70404(18) 0.32007(14)
H14 H 0.2235 0.7009 0.3085
C33 C 0.32537(13) 0.7462(2) 0.40457(14)
H15 H 0.3037 0.7718 0.4510
C34 C 0.38938(12) 0.6708(2) 0.26975(15)
H16 H 0.4114 0.6451 0.2237
C35 C 0.33936(13) 0.7637(2) -0.04427(16)
H17 H 0.3371 0.8366 -0.0719
C36 C 0.39158(13) 0.5751(2) -0.02040(16)
H18 H 0.4238 0.5184 -0.0333
C37 C 0.38702(13) 0.6806(2) -0.06181(15)
H19 H 0.4166 0.6963 -0.1025
C38 C 0.43614(13) 0.7130(3) 0.35463(16)
H20 H 0.4904 0.7159 0.3669
F1 F 0.42898(7) 0.01436(15) 0.38308(8)
F2 F 0.57890(7) 0.01056(16) 0.43507(8)
N1 N 0.24664(8) 0.02306(14) 0.02030(10)
N2 N 0.25297(9) 0.00188(14) 0.30576(11)
C1 C 0.33211(10) 0.01146(16) 0.19153(12)
C2 C 0.29045(10) 0.00682(15) 0.25632(12)
C3 C 0.28664(9) 0.01880(15) 0.09712(12)
C4 C 0.46217(11) 0.01073(18) 0.31450(12)
C5 C 0.41586(10) 0.00976(16) 0.22073(12)
C6 C 0.54135(10) 0.00956(18) 0.34179(12)
Cu1 Cu 0.185612(13) 0.01283(2) -0.112458(16)
F3 F -0.12488(6) -0.37670(9) -0.36202(7)
F4 F -0.12633(6) -0.59629(10) -0.35653(8)
C7 C -0.06146(9) -0.54373(16) -0.30269(11)
C8 C 0.0000 -0.3611(2) -0.2500
N3 N 0.11369(8) -0.85612(13) -0.15826(10)
C9 C 0.0000 -0.6105(2) -0.2500
C10 C -0.06132(9) -0.42771(16) -0.30426(11)
N4 N 0.11000(9) -0.11437(14) -0.14999(11)
C11 C 0.06343(9) -0.79834(14) -0.19885(11)
C12 C 0.0000 -0.2383(2) -0.2500
C13 C 0.06150(9) -0.17298(15) -0.19386(12)
C14 C 0.0000 -0.7331(2) -0.2500
F1A F 0.57102(7) 0.01436(15) 0.11692(8)
F2A F 0.42110(7) 0.01056(16) 0.06493(8)
N1A N 0.75336(8) 0.02306(14) 0.47970(10)
N2A N 0.74703(9) 0.00188(14) 0.19424(11)
C1A C 0.66789(10) 0.01146(16) 0.30847(12)
C2A C 0.70955(10) 0.00682(15) 0.24368(12)
C3A C 0.71336(9) 0.01880(15) 0.40288(12)
C4A C 0.53783(11) 0.01073(18) 0.18550(12)
C5A C 0.58414(10) 0.00976(16) 0.27927(12)
C6A C 0.45865(10) 0.00956(18) 0.15821(12)
F3A F 0.12488(6) -0.37670(9) -0.13798(7)
C10A C 0.06132(9) -0.42771(16) -0.19574(11)
N4A N -0.11000(9) -0.11437(14) -0.35001(11)
C13A C -0.06150(9) -0.17298(15) -0.30614(12)
F4A F 0.12633(6) -0.59629(10) -0.14347(8)
C7A C 0.06146(9) -0.54373(16) -0.19731(11)
N3A N -0.11369(8) -0.85612(13) -0.34174(10)
C11A C -0.06343(9) -0.79834(14) -0.30115(11)
Cu1A Cu -0.185612(13) 0.01283(2) -0.387542(16)
N1A_2 N -0.24664(8) 0.02306(14) -0.52030(10)
N2B N -0.25297(9) -0.00188(14) -0.30576(11)
N2C N 0.25297(9) -0.00188(14) -0.19424(11)
Cu1_2 Cu 0.185612(13) -0.98717(2) -0.112458(16)
Cu1A_2 Cu -0.185612(13) -0.98717(2) -0.387542(16)
Cu1A_3 Cu 0.814388(13) 0.01283(2) 0.612458(16)
Cu1B Cu 0.814388(13) -0.01283(2) 0.112458(16)
Cu1C Cu 0.185612(13) -0.01283(2) 0.387542(16)
N3_2 N 0.11369(8) 0.14388(13) -0.15826(10)
N3A_2 N -0.11369(8) 0.14388(13) -0.34174(10)
loop_
_geom_bond_atom_site_label_1
_geom_bond_atom_site_label_2
_geom_bond_site_symmetry_1
_geom_bond_site_symmetry_2
F1 C4 1_555 1_555
F2 C6 1_555 1_555
N1 C3 1_555 1_555
N2 C2 1_555 1_555
C1 C2 1_555 1_555
C3 C1 1_555 1_555
C4 C5 1_555 1_555
C5 C1 1_555 1_555
C6 C4 1_555 1_555
Cu1 N1 1_555 1_555
F3 C10 1_555 1_555
F4 C7 1_555 1_555
C7 C9 1_555 1_555
C8 C10 1_555 1_555
N3 C11 1_555 1_555
C9 C14 1_555 1_555
C10 C7 1_555 1_555
N4 Cu1 1_555 1_555
C11 C14 1_555 1_555
C12 C8 1_555 1_555
C13 N4 1_555 1_555
C14 C11A 1_555 1_555
P1 C16 1_555 1_555
C15 H1 1_555 1_555
C16 C26 1_555 1_555
C17 P1 1_555 1_555
C18 P1 1_555 1_555
C19 H2 1_555 1_555
C20 H3 1_555 1_555
C21 C19 1_555 1_555
H4 C21 1_555 1_555
C22 P1 1_555 1_555
C23 C17 1_555 1_555
H5 C23 1_555 1_555
C24 C17 1_555 1_555
H6 C24 1_555 1_555
C25 C21 1_555 1_555
H7 C25 1_555 1_555
C26 H8 1_555 1_555
C27 C24 1_555 1_555
H9 C27 1_555 1_555
C28 C16 1_555 1_555
H10 C28 1_555 1_555
C29 C15 1_555 1_555
H11 C29 1_555 1_555
C30 C20 1_555 1_555
H12 C30 1_555 1_555
C31 H13 1_555 1_555
C32 C18 1_555 1_555
H14 C32 1_555 1_555
C33 C31 1_555 1_555
H15 C33 1_555 1_555
C34 C18 1_555 1_555
H16 C34 1_555 1_555
C35 C26 1_555 1_555
H17 C35 1_555 1_555
C36 C28 1_555 1_555
H18 C36 1_555 1_555
C37 C35 1_555 1_555
H19 C37 1_555 1_555
C38 C31 1_555 1_555
H20 C38 1_555 1_555
F1A C4A 1_555 1_555
F2A C6A 1_555 1_555
N1A C3A 1_555 1_555
N2A C2A 1_555 1_555
C1A C2A 1_555 1_555
C3A C1A 1_555 1_555
C4A C5A 1_555 1_555
C5A C6 1_555 1_555
C6A C5 1_555 1_555
F3A C10A 1_555 1_555
C10A C8 1_555 1_555
N4A C13A 1_555 1_555
C13A C12 1_555 1_555
F4A C7A 1_555 1_555
C7A C9 1_555 1_555
N3A C11A 1_555 1_555
Cu1A N4A 1_555 1_555
N1A_2 Cu1A 1_555 1_555
N2B Cu1A 1_555 1_555
N2C Cu1 1_555 1_555
Cu1_2 N3 1_555 1_555
Cu1A_2 N3A 1_555 1_555
Cu1A_3 N1A 1_555 1_555
Cu1B N2A 1_555 1_555
Cu1C N2 1_555 1_555
N3_2 Cu1 1_555 1_555
N3A_2 Cu1A 1_555 1_555
C12 C13 1_555 1_555
C15 C22 1_555 1_555
C19 C29 1_555 1_555
C20 C23 1_555 1_555
C22 C25 1_555 1_555
C27 C30 1_555 1_555
C32 C33 1_555 1_555
C34 C38 1_555 1_555
C36 C37 1_555 1_555
C1A C5A 1_555 1_555
C4A C6A 1_555 1_555
C10A C7A 1_555 1_555

#END
