
#######################################################################
#
#                 Cambridge Crystallographic Data Centre
#                                CCDC 
#
#######################################################################
#
# If this CIF has been generated from an entry in the Cambridge 
# Structural Database, then it will include bibliographic, chemical, 
# crystal, experimental, refinement or atomic coordinate data resulting 
# from the CCDC's data processing and validation procedures.
#
#######################################################################

data_KINNUS
_symmetry_cell_setting           triclinic
_symmetry_space_group_name_H-M   'P -1'
_symmetry_Int_Tables_number      2
_space_group_name_Hall           '-P 1'
loop_
_symmetry_equiv_pos_site_id
_symmetry_equiv_pos_as_xyz
1 x,y,z
2 -x,-y,-z
_cell_length_a                   7.5735(3)
_cell_length_b                   11.7547(4)
_cell_length_c                   17.0842(5)
_cell_angle_alpha                82.190(3)
_cell_angle_beta                 86.285(3)
_cell_angle_gamma                88.218(3)
_cell_volume                     1503.25
loop_
_atom_site_label
_atom_site_type_symbol
_atom_site_fract_x
_atom_site_fract_y
_atom_site_fract_z
O1 O 0.2885(6) 0.4262(4) 0.4342(3)
N1 N 0.3044(6) 0.3771(4) 0.5619(3)
C1 C 0.1032(8) 0.3771(5) 0.5802(4)
H1 H 0.0436 0.4080 0.5324
H2 H 0.0724 0.4250 0.6220
H3 H 0.0652 0.2984 0.5980
C2 C 0.4142(8) 0.3439(5) 0.6264(4)
H4 H 0.5311 0.3191 0.6060
H5 H 0.3600 0.2804 0.6621
H6 H 0.4271 0.4094 0.6553
C3 C 0.3621(8) 0.3995(5) 0.4918(4)
H7 H 0.4872 0.3940 0.4840
Cu1 Cu 0.58373(4) 0.94727(3) 0.194135(18)
F1 F 1.30760(18) 1.05975(14) 0.41788(8)
F2 F 0.62202(18) 1.37435(11) 0.13092(8)
F3 F 0.38180(18) 1.40368(11) -0.12093(8)
F4 F 0.74619(18) 0.88779(13) 0.43871(8)
N2 N 0.7978(2) 0.92304(16) 0.25423(11)
N3 N 0.4454(3) 1.14485(16) -0.10775(11)
N4 N 0.5826(3) 1.10763(16) 0.13064(12)
N5 N 1.3649(3) 0.93520(18) 0.26676(11)
C4 C 0.8759(3) 0.94448(19) 0.46720(13)
C5 C 0.4438(3) 1.44825(19) -0.05929(13)
C6 C 0.5059(3) 1.37395(18) 0.00474(12)
C7 C 1.0591(3) 0.94453(19) 0.33854(12)
C8 C 1.0301(3) 0.97123(18) 0.41974(12)
C9 C 0.5534(3) 1.17517(18) 0.07665(13)
C10 C 0.4754(3) 1.19362(18) -0.05580(13)
C11 C 0.5606(3) 1.43389(18) 0.06388(13)
C12 C 0.5125(3) 1.24984(18) 0.00843(13)
C13 C 0.9156(3) 0.93169(18) 0.29262(12)
C14 C 1.2277(3) 0.93899(19) 0.30076(13)
C15 C 1.1527(3) 1.02790(19) 0.45737(13)
F1A F 0.69240(18) 0.94025(14) 0.58212(8)
F4A F 1.25381(18) 1.11221(13) 0.56129(8)
N2A N 1.2022(2) 1.07696(16) 0.74577(11)
C4A C 1.1241(3) 1.05552(19) 0.53280(13)
C7A C 0.9409(3) 1.05547(19) 0.66146(12)
C8A C 0.9699(3) 1.02877(18) 0.58026(12)
C13A C 1.0844(3) 1.06831(18) 0.70738(12)
C15A C 0.8473(3) 0.97210(19) 0.54263(13)
N5A N 0.6351(3) 1.06480(18) 0.73324(11)
C14A C 0.7723(3) 1.06101(19) 0.69924(13)
F2A F 0.37798(18) 1.62565(11) -0.13092(8)
F3A F 0.61820(18) 1.59632(11) 0.12093(8)
N4A N 0.4174(3) 1.89237(16) -0.13064(12)
C5A C 0.5562(3) 1.55175(19) 0.05929(13)
C6A C 0.4941(3) 1.62605(18) -0.00474(12)
C9A C 0.4466(3) 1.82483(18) -0.07665(13)
C11A C 0.4394(3) 1.56611(18) -0.06388(13)
C12A C 0.4875(3) 1.75016(18) -0.00843(13)
N3A N 0.5546(3) 1.85515(16) 0.10775(11)
C10A C 0.5246(3) 1.80638(18) 0.05580(13)
Cu1A Cu 0.41627(4) 1.05273(3) -0.194135(18)
Cu1_2 Cu 0.58373(4) 1.94727(3) 0.194135(18)
Cu1_3 Cu 1.58373(4) 0.94727(3) 0.194135(18)
Cu1A_2 Cu 0.41627(4) 1.05273(3) 0.805865(18)
Cu1A_3 Cu 0.41627(4) 2.05273(3) -0.194135(18)
Cu1A_4 Cu 1.41627(4) 1.05273(3) 0.805865(18)
N2A_2 N 0.2022(2) 1.07696(16) -0.25423(11)
N3A_2 N 0.5546(3) 0.85515(16) 0.10775(11)
N4A_2 N 0.4174(3) 0.89237(16) -0.13064(12)
N5_2 N 0.3649(3) 0.93520(18) 0.26676(11)
N5A_2 N 0.6351(3) 1.06480(18) -0.26676(11)
P1 P 0.10479(7) 0.32386(5) 0.23452(3)
C16 C -0.1984(3) 0.20073(19) 0.28714(14)
H8 H -0.1976 0.1784 0.2357
C17 C 0.2643(3) 0.5352(2) 0.22205(16)
H9 H 0.3727 0.4930 0.2283
C18 C 0.1058(3) 0.47766(19) 0.22311(13)
C19 C -0.0717(3) 0.2750(2) 0.30501(14)
C20 C 0.0784(3) 0.2735(2) 0.14165(14)
C21 C 0.0148(3) 0.3455(2) 0.07758(15)
H10 H -0.0132 0.4238 0.0820
C22 C 0.1208(4) 0.1582(2) 0.13450(16)
H11 H 0.1638 0.1084 0.1780
C23 C -0.0075(4) 0.3028(2) 0.00744(15)
H12 H -0.0520 0.3517 -0.0361
C24 C 0.0348(4) 0.1888(2) 0.00053(16)
H13 H 0.0192 0.1598 -0.0478
C25 C 0.1048(4) 0.7151(2) 0.20202(15)
H14 H 0.1046 0.7967 0.1943
C26 C 0.2629(4) 0.6546(2) 0.21183(16)
H15 H 0.3702 0.6944 0.2116
C27 C -0.0721(4) 0.3083(3) 0.38028(17)
H16 H 0.0155 0.3584 0.3922
C28 C 0.3092(3) 0.2673(2) 0.27249(15)
H17 H 0.3269 0.2971 0.3222
H18 H 0.4071 0.2906 0.2339
H19 H 0.3053 0.1833 0.2822
C29 C -0.0529(3) 0.5391(2) 0.21454(15)
H20 H -0.1608 0.4995 0.2163
C30 C -0.3260(3) 0.1596(2) 0.34548(15)
H21 H -0.4118 0.1079 0.3341
C31 C 0.0995(4) 0.1176(2) 0.06358(17)
H22 H 0.1297 0.0399 0.0582
C32 C -0.0539(4) 0.6584(2) 0.20333(15)
H23 H -0.1620 0.7008 0.1966
C33 C -0.2017(4) 0.2677(3) 0.43761(17)
H24 H -0.2035 0.2906 0.4889
C34 C -0.3288(3) 0.1935(2) 0.42016(16)
H25 H -0.4176 0.1662 0.4594
loop_
_geom_bond_atom_site_label_1
_geom_bond_atom_site_label_2
_geom_bond_site_symmetry_1
_geom_bond_site_symmetry_2
O1 C3 1_555 1_555
N1 C1 1_555 1_555
C1 H1 1_555 1_555
H2 C1 1_555 1_555
H3 C1 1_555 1_555
C2 N1 1_555 1_555
H4 C2 1_555 1_555
H5 C2 1_555 1_555
H6 C2 1_555 1_555
C3 N1 1_555 1_555
H7 C3 1_555 1_555
Cu1 N2 1_555 1_555
F1 C15 1_555 1_555
F2 C11 1_555 1_555
F3 C5 1_555 1_555
F4 C4 1_555 1_555
N2 C13 1_555 1_555
N3 C10 1_555 1_555
N4 Cu1 1_555 1_555
N5 C14 1_555 1_555
C4 C8 1_555 1_555
C5 C6 1_555 1_555
C6 C11 1_555 1_555
C7 C8 1_555 1_555
C8 C15 1_555 1_555
C9 N4 1_555 1_555
C10 C12 1_555 1_555
C11 C5A 1_555 1_555
C12 C6 1_555 1_555
C13 C7 1_555 1_555
C14 C7 1_555 1_555
C15 C4A 1_555 1_555
P1 C18 1_555 1_555
C16 H8 1_555 1_555
C17 H9 1_555 1_555
C18 C17 1_555 1_555
C19 P1 1_555 1_555
C20 P1 1_555 1_555
C21 C20 1_555 1_555
H10 C21 1_555 1_555
C22 C20 1_555 1_555
H11 C22 1_555 1_555
C23 C21 1_555 1_555
H12 C23 1_555 1_555
C24 C23 1_555 1_555
H13 C24 1_555 1_555
C25 H14 1_555 1_555
C26 C17 1_555 1_555
H15 C26 1_555 1_555
C27 C19 1_555 1_555
H16 C27 1_555 1_555
C28 P1 1_555 1_555
H17 C28 1_555 1_555
H18 C28 1_555 1_555
H19 C28 1_555 1_555
C29 C18 1_555 1_555
H20 C29 1_555 1_555
C30 C16 1_555 1_555
H21 C30 1_555 1_555
C31 C22 1_555 1_555
H22 C31 1_555 1_555
C32 C25 1_555 1_555
H23 C32 1_555 1_555
C33 C27 1_555 1_555
H24 C33 1_555 1_555
C34 C30 1_555 1_555
H25 C34 1_555 1_555
F1A C15A 1_555 1_555
F4A C4A 1_555 1_555
N2A C13A 1_555 1_555
C4A C8A 1_555 1_555
C7A C8A 1_555 1_555
C8A C15A 1_555 1_555
C13A C7A 1_555 1_555
C15A C4 1_555 1_555
N5A C14A 1_555 1_555
C14A C7A 1_555 1_555
F2A C11A 1_555 1_555
F3A C5A 1_555 1_555
N4A C9A 1_555 1_555
C5A C6A 1_555 1_555
C6A C11A 1_555 1_555
C9A C12A 1_555 1_555
C11A C5 1_555 1_555
C12A C6A 1_555 1_555
N3A C10A 1_555 1_555
C10A C12A 1_555 1_555
Cu1A N3 1_555 1_555
Cu1_2 N3A 1_555 1_555
Cu1_3 N5 1_555 1_555
Cu1A_2 N5A 1_555 1_555
Cu1A_3 N4A 1_555 1_555
Cu1A_4 N2A 1_555 1_555
N2A_2 Cu1A 1_555 1_555
N3A_2 Cu1 1_555 1_555
N4A_2 Cu1A 1_555 1_555
N5_2 Cu1 1_555 1_555
N5A_2 Cu1A 1_555 1_555
C9 C12 1_555 1_555
C16 C19 1_555 1_555
C24 C31 1_555 1_555
C25 C26 1_555 1_555
C29 C32 1_555 1_555
C33 C34 1_555 1_555

#END
