
#######################################################################
#
#                 Cambridge Crystallographic Data Centre
#                                CCDC 
#
#######################################################################
#
# If this CIF has been generated from an entry in the Cambridge 
# Structural Database, then it will include bibliographic, chemical, 
# crystal, experimental, refinement or atomic coordinate data resulting 
# from the CCDC's data processing and validation procedures.
#
#######################################################################

data_KINQUV
_symmetry_cell_setting           triclinic
_symmetry_space_group_name_H-M   'P -1'
_symmetry_Int_Tables_number      2
_space_group_name_Hall           '-P 1'
loop_
_symmetry_equiv_pos_site_id
_symmetry_equiv_pos_as_xyz
1 x,y,z
2 -x,-y,-z
_cell_length_a                   13.4863(18)
_cell_length_b                   15.176(2)
_cell_length_c                   20.111(3)
_cell_angle_alpha                84.901(10)
_cell_angle_beta                 76.434(9)
_cell_angle_gamma                64.154(9)
_cell_volume                     3600.57
loop_
_atom_site_label
_atom_site_type_symbol
_atom_site_fract_x
_atom_site_fract_y
_atom_site_fract_z
Gd1 Gd 1.12777(3) 0.05246(3) 0.226483(17)
Gd2 Gd 0.46537(3) 0.45432(3) 0.28072(2)
Cu1 Cu 1.00152(7) -0.00930(8) 0.38356(4)
Cu2 Cu 1.15711(8) -0.18438(8) 0.26941(4)
Cu3 Cu 1.05165(7) 0.07961(8) 0.06923(4)
Cu4 Cu 0.89543(7) 0.25440(8) 0.18648(5)
Cu5 Cu 1.40898(7) 0.01032(8) 0.16861(5)
Cu6 Cu 1.26646(8) 0.17357(8) 0.27713(5)
O1 O 1.3264(4) -0.0719(4) 0.2063(3)
O2 O 1.3515(4) -0.2232(4) 0.2312(3)
O3 O 1.1917(4) 0.0434(4) 0.1005(2)
O4 O 1.3759(4) 0.0048(5) 0.0615(3)
O5 O 1.1155(4) -0.0933(4) 0.1919(2)
O6 O 1.0660(5) -0.0806(4) 0.0922(3)
O7 O 0.9527(4) 0.0879(4) 0.3121(2)
O8 O 0.7985(4) 0.2115(5) 0.2869(3)
O9 O 1.0256(4) 0.2314(4) 0.2266(3)
O10 O 1.1131(5) 0.3112(5) 0.2595(3)
O11 O 1.1688(4) 0.1090(4) 0.3244(2)
O12 O 1.0794(5) 0.0821(5) 0.4254(3)
O13 O 1.4822(5) 0.0996(5) 0.1439(3)
O14 O 1.3834(5) 0.2151(5) 0.2261(3)
O15 O 0.7873(4) 0.2738(5) 0.1303(3)
O16 O 0.6365(5) 0.3774(5) 0.2018(3)
O17 O 1.1716(5) -0.2584(5) 0.3533(3)
O18 O 1.3006(5) -0.4019(5) 0.3047(3)
O19 O 1.2636(4) 0.1199(4) 0.1952(2)
O20 O 1.1423(4) -0.0696(4) 0.3156(2)
O21 O 0.9747(4) 0.1131(4) 0.1645(2)
O22 O 1.0518(5) -0.1144(5) 0.4495(3)
O23 O 0.9071(4) 0.1256(5) 0.0387(3)
O24 O 0.5070(5) 0.5832(5) 0.2263(4)
N1 N 1.5433(5) -0.1131(6) 0.1537(4)
H1 H 1.5715 -0.1253 0.1086
H2 H 1.5963 -0.1100 0.1722
N2 N 1.1492(6) 0.0501(6) -0.0225(3)
H3 H 1.1454 0.0007 -0.0418
H4 H 1.1269 0.1030 -0.0491
N3 N 1.1591(7) -0.2799(6) 0.2086(3)
H5 H 1.2309 -0.3204 0.1898
H6 H 1.1254 -0.3160 0.2328
N4 N 0.8476(5) 0.0648(6) 0.4369(3)
H7 H 0.8168 0.0235 0.4546
H8 H 0.8494 0.0971 0.4717
N5 N 0.8427(6) 0.3919(6) 0.2153(4)
H9 H 0.8143 0.4326 0.1823
H10 H 0.7877 0.4060 0.2536
N6 N 1.2558(6) 0.2162(7) 0.3676(4)
H11 H 1.3251 0.1996 0.3748
H12 H 1.2164 0.2817 0.3720
C1 C 1.5128(7) -0.1941(8) 0.1865(5)
H13 H 1.5442 -0.2480 0.1539
H14 H 1.5474 -0.2178 0.2256
C2 C 1.3875(6) -0.1634(7) 0.2098(4)
C3 C 1.2636(8) 0.0226(9) -0.0158(5)
H15 H 1.3106 -0.0419 -0.0364
H16 H 1.2899 0.0677 -0.0425
C4 C 1.2821(7) 0.0205(7) 0.0514(4)
C5 C 1.0997(9) -0.2284(8) 0.1548(5)
H17 H 1.0236 -0.2240 0.1670
H18 H 1.1379 -0.2660 0.1125
C6 C 1.0934(6) -0.1258(6) 0.1432(4)
C7 C 0.7802(7) 0.1338(9) 0.3928(5)
H19 H 0.7369 0.1966 0.4164
H20 H 0.7270 0.1113 0.3843
C8 C 0.8465(6) 0.1478(7) 0.3262(4)
C9 C 0.9369(8) 0.4052(7) 0.2282(5)
H21 H 0.9110 0.4468 0.2685
H22 H 0.9640 0.4382 0.1897
C10 C 1.0356(7) 0.3070(7) 0.2394(4)
C11 C 1.1421(8) 0.1144(7) 0.3877(4)
C12 C 1.4578(8) 0.1763(8) 0.1736(5)
H23 H 1.5006 0.2101 0.1544
C13 C 0.6805(7) 0.3278(8) 0.1513(5)
H24 H 0.6333 0.3278 0.1243
C14 C 1.2391(7) -0.3484(7) 0.3557(5)
H25 H 1.2429 -0.3764 0.3986
O25 O 0.9499(5) -0.1200(5) 0.3254(3)
O26 O 1.4400(6) 0.0168(6) 0.2912(4)
O27 O 0.5581(6) 0.2871(6) 0.3087(4)
O28 O 0.4082(7) 0.4731(8) 0.1723(4)
O29 O 0.3315(7) 0.3881(7) 0.2837(6)
O30 O 0.3863(9) 0.4391(8) 0.3992(4)
O31 O 0.5901(11) 0.4692(10) 0.3394(5)
C15 C 1.1973(11) 0.1668(10) 0.4170(6)
H26 H 1.1393 0.2153 0.4503
H27 H 1.2514 0.1192 0.4414
O32 O 1.0291(6) 0.2584(6) 0.0724(4)
Gd2_2 Gd 1.46537(3) -0.54568(3) 0.28072(2)
O18_2 O 0.3006(5) 0.5981(5) 0.3047(3)
loop_
_geom_bond_atom_site_label_1
_geom_bond_atom_site_label_2
_geom_bond_site_symmetry_1
_geom_bond_site_symmetry_2
Gd1 O1 1_555 1_555
Gd2 O16 1_555 1_555
Cu1 O7 1_555 1_555
Cu2 O2 1_555 1_555
Cu3 O3 1_555 1_555
Cu4 O8 1_555 1_555
Cu5 O1 1_555 1_555
Cu6 O10 1_555 1_555
O1 C2 1_555 1_555
O2 C2 1_555 1_555
O3 Gd1 1_555 1_555
O4 Cu5 1_555 1_555
O5 Gd1 1_555 1_555
O6 Cu3 1_555 1_555
O7 Gd1 1_555 1_555
O8 C8 1_555 1_555
O9 Gd1 1_555 1_555
O10 C10 1_555 1_555
O11 Gd1 1_555 1_555
O12 Cu1 1_555 1_555
O13 Cu5 1_555 1_555
O14 Cu6 1_555 1_555
O15 Cu4 1_555 1_555
O16 C13 1_555 1_555
O17 Cu2 1_555 1_555
O18 C14 1_555 1_555
O19 Gd1 1_555 1_555
O20 Gd1 1_555 1_555
O21 Gd1 1_555 1_555
O22 Cu1 1_555 1_555
O23 Cu3 1_555 1_555
O24 Gd2 1_555 1_555
N1 Cu5 1_555 1_555
H1 N1 1_555 1_555
H2 N1 1_555 1_555
N2 Cu3 1_555 1_555
H3 N2 1_555 1_555
H4 N2 1_555 1_555
N3 Cu2 1_555 1_555
H5 N3 1_555 1_555
H6 N3 1_555 1_555
N4 Cu1 1_555 1_555
H7 N4 1_555 1_555
H8 N4 1_555 1_555
N5 Cu4 1_555 1_555
H9 N5 1_555 1_555
H10 N5 1_555 1_555
N6 Cu6 1_555 1_555
H11 N6 1_555 1_555
H12 N6 1_555 1_555
C1 N1 1_555 1_555
H13 C1 1_555 1_555
H14 C1 1_555 1_555
C2 C1 1_555 1_555
C3 N2 1_555 1_555
H15 C3 1_555 1_555
H16 C3 1_555 1_555
C4 O3 1_555 1_555
C5 N3 1_555 1_555
H17 C5 1_555 1_555
H18 C5 1_555 1_555
C6 O5 1_555 1_555
C7 N4 1_555 1_555
H19 C7 1_555 1_555
H20 C7 1_555 1_555
C8 O7 1_555 1_555
C9 N5 1_555 1_555
H21 C9 1_555 1_555
H22 C9 1_555 1_555
C10 O9 1_555 1_555
C11 O11 1_555 1_555
C12 O13 1_555 1_555
H23 C12 1_555 1_555
C13 O15 1_555 1_555
H24 C13 1_555 1_555
C14 O17 1_555 1_555
H25 C14 1_555 1_555
O25 Cu1 1_555 1_555
O26 Cu5 1_555 1_555
O27 Gd2 1_555 1_555
O28 Gd2 1_555 1_555
O29 Gd2 1_555 1_555
O30 Gd2 1_555 1_555
O31 Gd2 1_555 1_555
C15 N6 1_555 1_555
H26 C15 1_555 1_555
H27 C15 1_555 1_555
O32 Cu3 1_555 1_555
Gd2_2 O18 1_555 1_555
O18_2 Gd2 1_555 1_555
Cu1 O20 1_555 1_555
Cu2 O5 1_555 1_555
Cu2 O20 1_555 1_555
Cu2 O25 1_555 1_555
Cu3 O21 1_555 1_555
Cu4 O9 1_555 1_555
Cu4 O21 1_555 1_555
Cu4 O32 1_555 1_555
Cu5 O19 1_555 1_555
Cu6 O11 1_555 1_555
Cu6 O19 1_555 1_555
Cu6 O26 1_555 1_555
O4 C4 1_555 1_555
O6 C6 1_555 1_555
O12 C11 1_555 1_555
O14 C12 1_555 1_555
C3 C4 1_555 1_555
C5 C6 1_555 1_555
C7 C8 1_555 1_555
C9 C10 1_555 1_555
C11 C15 1_555 1_555

#END
