
#######################################################################
#
#                 Cambridge Crystallographic Data Centre
#                                CCDC 
#
#######################################################################
#
# If this CIF has been generated from an entry in the Cambridge 
# Structural Database, then it will include bibliographic, chemical, 
# crystal, experimental, refinement or atomic coordinate data resulting 
# from the CCDC's data processing and validation procedures.
#
#######################################################################

data_KINQEF
_symmetry_cell_setting           orthorhombic
_symmetry_space_group_name_H-M   'P n a 21'
_symmetry_Int_Tables_number      33
_space_group_name_Hall           'P 2c -2n'
loop_
_symmetry_equiv_pos_site_id
_symmetry_equiv_pos_as_xyz
1 x,y,z
2 -x,-y,1/2+z
3 1/2-x,1/2+y,1/2+z
4 1/2+x,1/2-y,z
_cell_length_a                   21.453(2)
_cell_length_b                   16.3701(16)
_cell_length_c                   10.3056(10)
_cell_angle_alpha                90
_cell_angle_beta                 90
_cell_angle_gamma                90
_cell_volume                     3619.2
loop_
_atom_site_label
_atom_site_type_symbol
_atom_site_fract_x
_atom_site_fract_y
_atom_site_fract_z
C1 C 0.9576(2) 0.4463(3) 0.4265(6)
H1 H 0.9437 0.4998 0.4354
C2 C 0.9281(2) 0.3791(3) 0.4729(6)
H2 H 0.8899 0.3775 0.5154
C3 C 1.0164(2) 0.3452(3) 0.3832(5)
H3 H 1.0507 0.3144 0.3577
C4 C 0.9665(2) -0.3847(3) 0.2159(5)
H4 H 0.9547 -0.4186 0.1477
C5 C 0.9354(2) -0.3192(3) 0.2536(5)
H5 H 0.8985 -0.2994 0.2181
C6 C 1.0191(2) -0.3336(2) 0.3723(5)
H6 H 1.0504 -0.3241 0.4329
C7 C 0.7878(2) -0.0180(3) 1.2077(5)
H7 H 0.7802 -0.0717 1.1831
C8 C 0.7876(2) 0.0947(3) 1.3122(5)
H8 H 0.7798 0.1336 1.3759
C9 C 0.8194(3) 0.1081(3) 1.2068(5)
H9 H 0.8379 0.1572 1.1822
C10 C 0.8483(2) 0.0220(3) 1.0135(4)
C11 C 0.8333(2) -0.0437(3) 0.9377(5)
H10 H 0.8056 -0.0827 0.9689
C12 C 0.8588(2) -0.0530(2) 0.8161(5)
H11 H 0.8474 -0.0979 0.7660
C13 C 0.9010(2) 0.0029(2) 0.7666(4)
C14 C 0.9172(2) 0.0687(3) 0.8483(4)
H12 H 0.9461 0.1068 0.8192
C15 C 0.8918(2) 0.0780(3) 0.9679(5)
H13 H 0.9036 0.1219 1.0197
C16 C 0.95626(12) 0.23184(12) 0.4817(3)
C17 C 0.89640(10) 0.20732(15) 0.5156(3)
H14 H 0.8632 0.2434 0.5069
C18 C 0.88619(10) 0.12886(16) 0.5626(4)
H15 H 0.8461 0.1125 0.5853
C19 C 0.93584(13) 0.07492(12) 0.5757(3)
C20 C 0.99569(11) 0.09944(14) 0.5418(3)
H16 H 1.0289 0.0634 0.5505
C21 C 1.00591(9) 0.17790(15) 0.4948(3)
H17 H 1.0460 0.1943 0.4721
C22 C 0.9327(2) -0.0742(2) 0.5706(4)
C23 C 0.9585(3) -0.1416(3) 0.6313(5)
H18 H 0.9682 -0.1397 0.7192
C24 C 0.9697(3) -0.2118(3) 0.5606(5)
H19 H 0.9873 -0.2571 0.6008
C25 C 0.9547(2) -0.2148(2) 0.4296(4)
C26 C 0.9280(2) -0.1475(3) 0.3705(5)
H20 H 0.9179 -0.1496 0.2828
C27 C 0.9163(2) -0.0779(3) 0.4398(5)
H21 H 0.8974 -0.0334 0.3999
C28 C 1.1778(2) 0.3823(3) 0.0326(4)
C29 C 1.2013(2) 0.3033(3) 0.0194(4)
H22 H 1.1958 0.2656 0.0859
C30 C 1.2325(2) 0.2810(2) -0.0913(4)
C31 C 1.2386(2) 0.3355(2) -0.1939(5)
H23 H 1.2591 0.3196 -0.2693
C32 C 1.21422(17) 0.4138(2) -0.1838(4)
C33 C 1.18515(19) 0.4372(3) -0.0685(3)
H24 H 1.1706 0.4904 -0.0594
C34 C 1.1433(2) 0.4069(3) 0.1514(4)
C35 C 1.2575(2) 0.1950(3) -0.1050(4)
C36 C 1.2161(2) 0.4740(3) -0.2925(5)
N1 N 1.01107(17) 0.4226(2) 0.3643(4)
N2 N 0.96602(16) 0.3143(2) 0.4444(4)
N3 N 0.9244(2) 0.0001(2) 0.6408(4)
N4 N 1.01810(17) -0.3958(2) 0.2903(4)
N5 N 0.96830(18) -0.2858(2) 0.3559(4)
N6 N 0.76733(17) 0.0158(2) 1.3166(4)
N7 N 0.82047(18) 0.0352(2) 1.1384(4)
O1 O 1.12090(17) 0.47906(19) 0.1523(3)
O2 O 1.13775(16) 0.3578(2) 0.2429(3)
O3 O 1.23920(18) 0.4499(2) -0.4008(3)
O4 O 1.19476(16) 0.54242(19) -0.2792(3)
O5 O 1.28309(15) 0.1735(2) -0.2065(4)
O6 O 1.25063(16) 0.14870(18) -0.0072(3)
O7 O 0.63032(15) -0.0298(2) 1.4503(4)
H25 H 0.6161 -0.0828 1.4803
Zn1 Zn 1.07595(2) 0.50555(2) 0.30890(6)
Zn2 Zn 0.72003(2) -0.03661(3) 1.46423(5)
N4_2 N 1.01810(17) 0.6042(2) 0.2903(4)
O3C O 0.73920(18) 0.0501(2) 1.5992(3)
O6A O 0.74937(16) -0.14870(18) 1.4928(3)
O7C O 1.13032(15) 0.5298(2) 0.4503(4)
Zn1_2 Zn 1.07595(2) -0.49445(2) 0.30890(6)
Zn1C Zn 0.57595(2) -0.00555(2) 1.30890(6)
Zn2A Zn 1.27997(2) 0.03661(3) -0.03577(5)
Zn2C Zn 1.22003(2) 0.53661(3) -0.53577(5)
O8 O 0.83258(16) 0.6896(2) 0.9978(3)
H26 H 0.8544 0.6737 0.9338
H27 H 0.8105 0.6502 1.0254
O9 O 0.29267(15) 0.2020(2) 0.2775(4)
H28 H 0.2812 0.1783 0.2080
H29 H 0.2875 0.1700 0.3414
O10 O 0.39524(16) 0.1796(2) 0.1361(3)
H30 H 0.3890 0.1465 0.1984
H31 H 0.3715 0.2208 0.1446
O11 O 0.25820(17) 0.1942(2) 0.5354(4)
H32 H 0.2885 0.1826 0.5852
H33 H 0.2479 0.2430 0.5536
loop_
_geom_bond_atom_site_label_1
_geom_bond_atom_site_label_2
_geom_bond_site_symmetry_1
_geom_bond_site_symmetry_2
C1 H1 1_555 1_555
C2 C1 1_555 1_555
H2 C2 1_555 1_555
C3 H3 1_555 1_555
C4 H4 1_555 1_555
C5 C4 1_555 1_555
H5 C5 1_555 1_555
C6 H6 1_555 1_555
C7 H7 1_555 1_555
C8 H8 1_555 1_555
C9 C8 1_555 1_555
H9 C9 1_555 1_555
C10 C11 1_555 1_555
C11 H10 1_555 1_555
C12 C11 1_555 1_555
H11 C12 1_555 1_555
C13 C12 1_555 1_555
C14 C13 1_555 1_555
H12 C14 1_555 1_555
C15 C10 1_555 1_555
H13 C15 1_555 1_555
C16 C17 1_555 1_555
C17 H14 1_555 1_555
C18 C17 1_555 1_555
H15 C18 1_555 1_555
C19 C18 1_555 1_555
C20 C19 1_555 1_555
H16 C20 1_555 1_555
C21 C16 1_555 1_555
H17 C21 1_555 1_555
C22 C23 1_555 1_555
C23 H18 1_555 1_555
C24 C23 1_555 1_555
H19 C24 1_555 1_555
C25 C24 1_555 1_555
C26 C25 1_555 1_555
H20 C26 1_555 1_555
C27 C22 1_555 1_555
H21 C27 1_555 1_555
C28 C29 1_555 1_555
C29 H22 1_555 1_555
C30 C29 1_555 1_555
C31 C30 1_555 1_555
H23 C31 1_555 1_555
C32 C31 1_555 1_555
C33 C28 1_555 1_555
H24 C33 1_555 1_555
C34 C28 1_555 1_555
C35 C30 1_555 1_555
C36 C32 1_555 1_555
N1 C1 1_555 1_555
N2 C2 1_555 1_555
N3 C13 1_555 1_555
N4 C4 1_555 1_555
N5 C5 1_555 1_555
N6 C7 1_555 1_555
N7 C7 1_555 1_555
O1 C34 1_555 1_555
O2 C34 1_555 1_555
O3 C36 1_555 1_555
O4 C36 1_555 1_555
O5 C35 1_555 1_555
O6 C35 1_555 1_555
O7 H25 1_555 1_555
Zn1 N1 1_555 1_555
Zn2 N6 1_555 1_555
O8 H26 1_555 1_555
H27 O8 1_555 1_555
O9 H28 1_555 1_555
H29 O9 1_555 1_555
O10 H30 1_555 1_555
H31 O10 1_555 1_555
O11 H32 1_555 1_555
H33 O11 1_555 1_555
N4_2 Zn1 1_555 1_555
O3C Zn2 1_555 1_555
O6A Zn2 1_555 1_555
O7C Zn1 1_555 1_555
Zn1_2 N4 1_555 1_555
Zn1C O7 1_555 1_555
Zn2A O6 1_555 1_555
Zn2C O3 1_555 1_555
C3 N1 1_555 1_555
C3 N2 1_555 1_555
C6 N4 1_555 1_555
C6 N5 1_555 1_555
C8 N6 1_555 1_555
C9 N7 1_555 1_555
C10 N7 1_555 1_555
C14 C15 1_555 1_555
C16 N2 1_555 1_555
C19 N3 1_555 1_555
C20 C21 1_555 1_555
C22 N3 1_555 1_555
C25 N5 1_555 1_555
C26 C27 1_555 1_555
C32 C33 1_555 1_555
O1 Zn1 1_555 1_555
O7 Zn2 1_555 1_555

#END
