
#######################################################################
#
#                 Cambridge Crystallographic Data Centre
#                                CCDC 
#
#######################################################################
#
# If this CIF has been generated from an entry in the Cambridge 
# Structural Database, then it will include bibliographic, chemical, 
# crystal, experimental, refinement or atomic coordinate data resulting 
# from the CCDC's data processing and validation procedures.
#
#######################################################################

data_KINREG
_symmetry_cell_setting           triclinic
_symmetry_space_group_name_H-M   'P -1'
_symmetry_Int_Tables_number      2
_space_group_name_Hall           '-P 1'
loop_
_symmetry_equiv_pos_site_id
_symmetry_equiv_pos_as_xyz
1 x,y,z
2 -x,-y,-z
_cell_length_a                   13.4553(5)
_cell_length_b                   15.1834(5)
_cell_length_c                   20.1340(7)
_cell_angle_alpha                84.834(2)
_cell_angle_beta                 76.451(2)
_cell_angle_gamma                64.080(2)
_cell_volume                     3596.22
loop_
_atom_site_label
_atom_site_type_symbol
_atom_site_fract_x
_atom_site_fract_y
_atom_site_fract_z
Dy1 Dy 0.127262(17) 0.052021(14) 0.226265(9)
Dy2 Dy 0.46345(2) -0.547018(16) 0.278515(13)
Cu1 Cu 0.00171(5) -0.00956(4) 0.38297(3)
Cu2 Cu -0.10549(5) 0.25359(4) 0.18663(3)
Cu3 Cu 0.26536(5) 0.17244(4) 0.27684(3)
Cu4 Cu 0.15722(5) -0.18455(4) 0.26921(3)
Cu5 Cu 0.40849(5) 0.00952(4) 0.16853(3)
Cu6 Cu 0.05133(5) 0.07946(4) 0.06955(3)
O1 O -0.0478(3) 0.0880(2) 0.31170(15)
O2 O -0.2022(3) 0.2102(2) 0.28540(16)
O3 O 0.0255(3) 0.2304(2) 0.22650(16)
O4 O 0.1118(3) 0.3104(2) 0.25993(19)
O5 O 0.1665(3) 0.1080(2) 0.32351(15)
O6 O 0.0781(3) 0.0801(3) 0.42536(16)
O7 O 0.1142(3) -0.0920(2) 0.19211(15)
O8 O 0.0669(3) -0.0817(2) 0.09190(16)
O9 O 0.3255(3) -0.0720(2) 0.20585(16)
O10 O 0.3511(3) -0.2241(2) 0.23051(18)
O11 O 0.1923(3) 0.0431(2) 0.10100(14)
O12 O 0.3752(3) 0.0046(3) 0.06213(17)
O13 O 0.3813(3) 0.2153(3) 0.22567(19)
O14 O 0.4820(3) 0.0983(2) 0.14373(19)
O15 O 0.1742(3) -0.2605(2) 0.35277(16)
O16 O 0.3017(3) -0.4028(2) 0.30353(17)
O17 O -0.2146(3) 0.2728(2) 0.13056(17)
O18 O -0.3656(3) 0.3782(3) 0.20152(18)
O19 O 0.2618(3) 0.1174(2) 0.19530(15)
O20 O 0.1433(2) -0.0696(2) 0.31461(14)
O21 O -0.0245(2) 0.1118(2) 0.16535(14)
O22 O 0.0538(3) -0.1149(2) 0.44958(16)
O23 O -0.0927(3) 0.1256(3) 0.03908(16)
N1 N -0.1527(4) 0.0634(3) 0.4360(2)
H1 H -0.1836 0.0218 0.4524
H2 H -0.1510 0.0942 0.4716
N2 N -0.1591(4) 0.3920(3) 0.2163(2)
H3 H -0.1899 0.4332 0.1841
H4 H -0.2125 0.4051 0.2553
N3 N 0.2555(4) 0.2137(4) 0.3688(2)
H5 H 0.3251 0.1975 0.3757
H6 H 0.2149 0.2790 0.3742
N4 N 0.1574(4) -0.2796(3) 0.2086(2)
H7 H 0.2292 -0.3212 0.1902
H8 H 0.1223 -0.3146 0.2329
N5 N 0.5448(4) -0.1146(3) 0.1540(2)
H9 H 0.5739 -0.1269 0.1090
H10 H 0.5974 -0.1117 0.1732
N6 N 0.1495(4) 0.0511(3) -0.02215(19)
H11 H 0.1458 0.0018 -0.0416
H12 H 0.1262 0.1043 -0.0484
C1 C -0.2214(5) 0.1359(5) 0.3916(3)
H13 H -0.2776 0.1164 0.3842
H14 H -0.2613 0.1990 0.4151
C2 C -0.1543(4) 0.1466(4) 0.3251(2)
C3 C -0.0658(5) 0.4057(4) 0.2269(3)
H15 H -0.0912 0.4499 0.2655
H16 H -0.0381 0.4359 0.1869
C4 C 0.0319(4) 0.3085(3) 0.2405(2)
C5 C 0.1991(7) 0.1619(6) 0.4172(3)
H17 H 0.1433 0.2083 0.4525
H18 H 0.2553 0.1117 0.4392
C6 C 0.1415(4) 0.1146(4) 0.3880(2)
C7 C 0.0990(6) -0.2272(4) 0.1544(3)
H19 H 0.0223 -0.2218 0.1661
H20 H 0.1373 -0.2650 0.1122
C8 C 0.0946(4) -0.1256(3) 0.1431(2)
C9 C 0.5123(5) -0.1941(4) 0.1863(3)
H21 H 0.5439 -0.2480 0.1537
H22 H 0.5464 -0.2182 0.2255
C10 C 0.3873(4) -0.1638(4) 0.2090(2)
C11 C 0.2627(5) 0.0244(6) -0.0172(3)
H23 H 0.2881 0.0704 -0.0435
H24 H 0.3101 -0.0398 -0.0383
C12 C 0.2811(4) 0.0216(4) 0.0530(2)
C13 C 0.4549(5) 0.1778(4) 0.1736(3)
H25 H 0.4958 0.2130 0.1537
C14 C 0.2421(5) -0.3492(4) 0.3551(3)
H26 H 0.2487 -0.3768 0.3979
C15 C -0.3206(5) 0.3270(4) 0.1509(3)
H27 H -0.3678 0.3270 0.1237
O24 O 0.5063(3) -0.4197(3) 0.2260(2)
O25 O 0.5579(4) -0.7141(3) 0.3049(3)
O26 O 0.3297(4) -0.6116(3) 0.2820(3)
O27 O 0.4077(4) -0.5247(4) 0.1706(2)
O28 O 0.3849(5) -0.5624(3) 0.3958(2)
O29 O 0.5840(7) -0.5310(5) 0.3389(3)
O30 O 0.4410(4) 0.0146(3) 0.2905(2)
O31 O 0.0261(4) 0.2606(3) 0.0742(2)
O32 O -0.0503(3) -0.1188(3) 0.3254(2)
Dy2_2 Dy -0.53655(2) 0.452982(16) 0.278515(13)
O18_2 O 0.6344(3) -0.6218(3) 0.20152(18)
loop_
_geom_bond_atom_site_label_1
_geom_bond_atom_site_label_2
_geom_bond_site_symmetry_1
_geom_bond_site_symmetry_2
Dy1 O1 1_555 1_555
Dy2 O16 1_555 1_555
Cu1 O1 1_555 1_555
Cu2 O2 1_555 1_555
Cu3 O4 1_555 1_555
Cu4 O7 1_555 1_555
Cu5 O9 1_555 1_555
Cu6 O8 1_555 1_555
O1 C2 1_555 1_555
O2 C2 1_555 1_555
O3 Dy1 1_555 1_555
O4 C4 1_555 1_555
O5 Dy1 1_555 1_555
O6 Cu1 1_555 1_555
O7 Dy1 1_555 1_555
O8 C8 1_555 1_555
O9 Dy1 1_555 1_555
O10 Cu4 1_555 1_555
O11 Dy1 1_555 1_555
O12 Cu5 1_555 1_555
O13 Cu3 1_555 1_555
O14 Cu5 1_555 1_555
O15 Cu4 1_555 1_555
O16 C14 1_555 1_555
O17 Cu2 1_555 1_555
O18 C15 1_555 1_555
O19 Dy1 1_555 1_555
O20 Dy1 1_555 1_555
O21 Dy1 1_555 1_555
O22 Cu1 1_555 1_555
O23 Cu6 1_555 1_555
N1 Cu1 1_555 1_555
H1 N1 1_555 1_555
H2 N1 1_555 1_555
N2 Cu2 1_555 1_555
H3 N2 1_555 1_555
H4 N2 1_555 1_555
N3 Cu3 1_555 1_555
H5 N3 1_555 1_555
H6 N3 1_555 1_555
N4 Cu4 1_555 1_555
H7 N4 1_555 1_555
H8 N4 1_555 1_555
N5 Cu5 1_555 1_555
H9 N5 1_555 1_555
H10 N5 1_555 1_555
N6 Cu6 1_555 1_555
H11 N6 1_555 1_555
H12 N6 1_555 1_555
C1 N1 1_555 1_555
H13 C1 1_555 1_555
H14 C1 1_555 1_555
C2 C1 1_555 1_555
C3 N2 1_555 1_555
H15 C3 1_555 1_555
H16 C3 1_555 1_555
C4 O3 1_555 1_555
C5 N3 1_555 1_555
H17 C5 1_555 1_555
H18 C5 1_555 1_555
C6 O5 1_555 1_555
C7 N4 1_555 1_555
H19 C7 1_555 1_555
H20 C7 1_555 1_555
C8 O7 1_555 1_555
C9 N5 1_555 1_555
H21 C9 1_555 1_555
H22 C9 1_555 1_555
C10 O9 1_555 1_555
C11 N6 1_555 1_555
H23 C11 1_555 1_555
H24 C11 1_555 1_555
C12 O11 1_555 1_555
C13 O13 1_555 1_555
H25 C13 1_555 1_555
C14 O15 1_555 1_555
H26 C14 1_555 1_555
C15 O17 1_555 1_555
H27 C15 1_555 1_555
O24 Dy2 1_555 1_555
O25 Dy2 1_555 1_555
O26 Dy2 1_555 1_555
O27 Dy2 1_555 1_555
O28 Dy2 1_555 1_555
O29 Dy2 1_555 1_555
O30 Cu3 1_555 1_555
O31 Cu2 1_555 1_555
O32 Cu1 1_555 1_555
Dy2_2 O18 1_555 1_555
O18_2 Dy2 1_555 1_555
Cu1 O20 1_555 1_555
Cu2 O3 1_555 1_555
Cu2 O21 1_555 1_555
Cu3 O5 1_555 1_555
Cu3 O19 1_555 1_555
Cu4 O20 1_555 1_555
Cu4 O32 1_555 1_555
Cu5 O19 1_555 1_555
Cu5 O30 1_555 1_555
Cu6 O11 1_555 1_555
Cu6 O21 1_555 1_555
Cu6 O31 1_555 1_555
O6 C6 1_555 1_555
O10 C10 1_555 1_555
O12 C12 1_555 1_555
O14 C13 1_555 1_555
C3 C4 1_555 1_555
C5 C6 1_555 1_555
C7 C8 1_555 1_555
C9 C10 1_555 1_555
C11 C12 1_555 1_555

#END
