
#######################################################################
#
#                 Cambridge Crystallographic Data Centre
#                                CCDC 
#
#######################################################################
#
# If this CIF has been generated from an entry in the Cambridge 
# Structural Database, then it will include bibliographic, chemical, 
# crystal, experimental, refinement or atomic coordinate data resulting 
# from the CCDC's data processing and validation procedures.
#
#######################################################################

data_KINYUD
_symmetry_cell_setting           orthorhombic
_symmetry_space_group_name_H-M   'P 21 21 21'
_symmetry_Int_Tables_number      19
_space_group_name_Hall           'P 2ac 2ab'
loop_
_symmetry_equiv_pos_site_id
_symmetry_equiv_pos_as_xyz
1 x,y,z
2 1/2-x,-y,1/2+z
3 1/2+x,1/2-y,-z
4 -x,1/2+y,1/2-z
_cell_length_a                   12.071(3)
_cell_length_b                   13.885(5)
_cell_length_c                   17.666(7)
_cell_angle_alpha                90
_cell_angle_beta                 90
_cell_angle_gamma                90
_cell_volume                     2960.92
loop_
_atom_site_label
_atom_site_type_symbol
_atom_site_fract_x
_atom_site_fract_y
_atom_site_fract_z
Co1 Co 0.14250(5) 0.69343(5) 0.26266(4)
O1 O 0.3772(3) 0.8411(2) 0.3953(2)
O2 O 0.0543(3) 0.7321(3) 0.3521(2)
O3 O 0.7612(3) 1.1158(3) 0.3214(2)
O4 O 0.8025(3) 1.0475(3) 0.2125(2)
N1 N 0.2788(3) 0.7570(3) 0.3147(3)
N2 N 0.3867(3) 0.7694(3) 0.2845(3)
N3 N 0.1251(3) 0.8131(3) 0.1894(2)
N4 N -0.0108(3) 0.6342(3) 0.2150(3)
C1 C 0.0804(4) 0.7756(4) 0.4153(3)
C2 C -0.0026(4) 0.7939(4) 0.4705(3)
H1 H -0.0757 0.7720 0.4605
C3 C 0.0160(5) 0.8398(4) 0.5353(3)
H2 H -0.0436 0.8512 0.5693
C4 C 0.1231(5) 0.8717(4) 0.5538(3)
H3 H 0.1370 0.9034 0.6005
C5 C 0.2075(5) 0.8560(4) 0.5028(3)
H4 H 0.2802 0.8774 0.5146
C6 C 0.1881(4) 0.8087(4) 0.4334(3)
C7 C 0.2773(4) 0.7995(4) 0.3799(3)
C8 C 0.4398(4) 0.8183(4) 0.3333(3)
C9 C 0.5593(4) 0.8452(4) 0.3331(3)
H5 H 0.5927 0.8198 0.3809
C10 C 0.6206(5) 0.7993(4) 0.2677(4)
H6 H 0.5715 0.7931 0.2231
H7 H 0.6477 0.7345 0.2819
C11 C 0.7178(5) 0.8667(4) 0.2504(5)
H8 H 0.7887 0.8311 0.2541
H9 H 0.7109 0.8929 0.1985
C12 C 0.7149(4) 0.9482(4) 0.3083(4)
C13 C 0.5876(4) 0.9543(4) 0.3285(3)
C14 C 0.5242(4) 1.0032(4) 0.2649(4)
H10 H 0.4452 1.0056 0.2777
H11 H 0.5342 0.9666 0.2179
H12 H 0.5522 1.0688 0.2579
C15 C 0.5635(5) 1.0053(5) 0.4028(4)
H13 H 0.4833 1.0063 0.4116
H14 H 0.5915 1.0715 0.4003
H15 H 0.6001 0.9710 0.4443
C16 C 0.7842(5) 0.9206(5) 0.3762(5)
H16 H 0.8625 0.9186 0.3617
H17 H 0.7612 0.8571 0.3945
H18 H 0.7738 0.9684 0.4165
C17 C 0.7605(4) 1.0421(4) 0.2788(3)
C18 C 0.2077(4) 0.8418(4) 0.1436(3)
H19 H 0.2771 0.8098 0.1464
C19 C 0.1945(5) 0.9163(4) 0.0928(4)
H20 H 0.2542 0.9349 0.0609
C20 C 0.0948(6) 0.9635(5) 0.0884(4)
H21 H 0.0837 1.0135 0.0525
C21 C 0.0108(5) 0.9369(4) 0.1374(4)
H22 H -0.0581 0.9701 0.1375
C22 C 0.0293(5) 0.8617(4) 0.1858(4)
H23 H -0.0291 0.8429 0.2187
C23 C -0.0119(5) 0.6019(5) 0.1436(3)
H24 H 0.0520 0.6116 0.1131
C24 C -0.1014(5) 0.5553(5) 0.1123(4)
H25 H -0.0991 0.5324 0.0617
C25 C -0.1947(5) 0.5426(5) 0.1563(4)
H26 H -0.2582 0.5118 0.1357
C26 C -0.1955(4) 0.5745(4) 0.2297(4)
H27 H -0.2584 0.5654 0.2612
C27 C -0.1009(4) 0.6206(4) 0.2563(3)
H28 H -0.1010 0.6436 0.3069
Co1C Co 0.85750(5) 1.19343(5) 0.23734(4)
O3C O 0.2388(3) 0.6158(3) 0.1786(2)
O4C O 0.1975(3) 0.5475(3) 0.2875(2)
N5 N 0.6315(17) 0.8250(19) 0.0479(7)
O5 O 0.4702(11) 0.8814(12) 0.0681(5)
C28 C 0.572(2) 0.908(2) 0.0563(10)
H29 H 0.6000 0.9720 0.0540
C29 C 0.5771(16) 0.7248(18) 0.0562(9)
H30 H 0.5698 0.6950 0.0062
H31 H 0.5036 0.7319 0.0791
H32 H 0.6234 0.6840 0.0886
C30 C 0.7530(16) 0.8249(17) 0.0403(8)
H33 H 0.7735 0.7973 -0.0089
H34 H 0.7857 0.7861 0.0809
H35 H 0.7808 0.8910 0.0437
loop_
_geom_bond_atom_site_label_1
_geom_bond_atom_site_label_2
_geom_bond_site_symmetry_1
_geom_bond_site_symmetry_2
Co1 O2 1_555 1_555
O1 C7 1_555 1_555
O2 C1 1_555 1_555
O3 C17 1_555 1_555
O4 C17 1_555 1_555
N1 Co1 1_555 1_555
N2 N1 1_555 1_555
N3 Co1 1_555 1_555
N4 Co1 1_555 1_555
C1 C2 1_555 1_555
C2 H1 1_555 1_555
C3 C2 1_555 1_555
H2 C3 1_555 1_555
C4 C3 1_555 1_555
H3 C4 1_555 1_555
C5 C4 1_555 1_555
H4 C5 1_555 1_555
C6 C1 1_555 1_555
C7 N1 1_555 1_555
C8 O1 1_555 1_555
C9 C8 1_555 1_555
H5 C9 1_555 1_555
C10 C9 1_555 1_555
H6 C10 1_555 1_555
H7 C10 1_555 1_555
C11 C10 1_555 1_555
H8 C11 1_555 1_555
H9 C11 1_555 1_555
C12 C11 1_555 1_555
C13 C9 1_555 1_555
C14 C13 1_555 1_555
H10 C14 1_555 1_555
H11 C14 1_555 1_555
H12 C14 1_555 1_555
C15 C13 1_555 1_555
H13 C15 1_555 1_555
H14 C15 1_555 1_555
H15 C15 1_555 1_555
C16 C12 1_555 1_555
H16 C16 1_555 1_555
H17 C16 1_555 1_555
H18 C16 1_555 1_555
C17 C12 1_555 1_555
C18 N3 1_555 1_555
H19 C18 1_555 1_555
C19 C18 1_555 1_555
H20 C19 1_555 1_555
C20 C19 1_555 1_555
H21 C20 1_555 1_555
C21 C20 1_555 1_555
H22 C21 1_555 1_555
C22 N3 1_555 1_555
H23 C22 1_555 1_555
C23 N4 1_555 1_555
H24 C23 1_555 1_555
C24 C23 1_555 1_555
H25 C24 1_555 1_555
C25 C24 1_555 1_555
H26 C25 1_555 1_555
C26 C25 1_555 1_555
H27 C26 1_555 1_555
C27 N4 1_555 1_555
H28 C27 1_555 1_555
N5 C28 1_555 1_555
O5 C28 1_555 1_555
C28 H29 1_555 1_555
C29 N5 1_555 1_555
H30 C29 1_555 1_555
H31 C29 1_555 1_555
H32 C29 1_555 1_555
C30 N5 1_555 1_555
H33 C30 1_555 1_555
H34 C30 1_555 1_555
H35 C30 1_555 1_555
Co1C O3 1_555 1_555
O3C Co1 1_555 1_555
O4C Co1 1_555 1_555
O4 Co1C 1_555 1_555
N2 C8 1_555 1_555
C5 C6 1_555 1_555
C6 C7 1_555 1_555
C12 C13 1_555 1_555
C21 C22 1_555 1_555
C26 C27 1_555 1_555

#END
