
#######################################################################
#
#                 Cambridge Crystallographic Data Centre
#                                CCDC 
#
#######################################################################
#
# If this CIF has been generated from an entry in the Cambridge 
# Structural Database, then it will include bibliographic, chemical, 
# crystal, experimental, refinement or atomic coordinate data resulting 
# from the CCDC's data processing and validation procedures.
#
#######################################################################

data_KINZIS
_symmetry_cell_setting           monoclinic
_symmetry_space_group_name_H-M   'P 21'
_symmetry_Int_Tables_number      4
_space_group_name_Hall           'P 2yb'
loop_
_symmetry_equiv_pos_site_id
_symmetry_equiv_pos_as_xyz
1 x,y,z
2 -x,1/2+y,-z
_cell_length_a                   10.0633(5)
_cell_length_b                   13.4316(7)
_cell_length_c                   15.0358(7)
_cell_angle_alpha                90
_cell_angle_beta                 94.9244(9)
_cell_angle_gamma                90
_cell_volume                     2024.83
loop_
_atom_site_label
_atom_site_type_symbol
_atom_site_fract_x
_atom_site_fract_y
_atom_site_fract_z
Zn1 Zn 0.25680(6) 0.56774(4) 0.19456(4)
N1 N 0.4548(5) 0.5281(4) 0.2049(3)
N2 N 0.1970(5) 0.4204(4) 0.2279(3)
O1 O 0.2993(4) 0.7242(3) 0.1931(2)
O2 O 0.1925(4) 0.6080(3) 0.3140(2)
O3 O -0.2357(5) 0.0251(4) -0.0251(5)
O4 O -0.0886(6) 0.0817(5) -0.1067(3)
C1 C 0.4980(7) 0.4606(7) 0.1515(5)
C2 C 0.5467(6) 0.5723(6) 0.2621(3)
C3 C 0.0977(6) 0.4063(5) 0.2782(4)
N3 N 0.2085(6) 0.3336(5) 0.1770(4)
Zn2 Zn 0.23829(6) 0.76401(4) 0.31326(4)
C4 C 0.3855(5) 0.7658(6) 0.1448(3)
C5 C 0.1008(5) 0.5672(6) 0.3599(3)
H1 H 0.4337 0.4271 0.1123
C6 C 0.6294(7) 0.4346(8) 0.1479(5)
C7 C 0.6803(7) 0.5490(6) 0.2636(4)
H2 H 0.5187 0.6209 0.3024
C8 C 0.0475(6) 0.4717(5) 0.3433(4)
O5 O 0.0405(4) 0.3149(3) 0.2597(3)
C9 C 0.1125(6) 0.2756(6) 0.1977(4)
N4 N 0.3042(5) 0.9106(4) 0.2832(3)
N5 N 0.0359(5) 0.8018(4) 0.2974(3)
O6 O 0.7300(5) 1.2902(4) 0.5430(3)
O7 O 0.5609(6) 1.2458(5) 0.6127(3)
C10 C 0.4354(6) 0.7135(5) 0.0738(4)
C11 C 0.4386(6) 0.8631(5) 0.1606(4)
C12 C 0.0533(6) 0.6193(5) 0.4324(4)
H3 H 0.6547 0.3866 0.1062
C13 C 0.7208(7) 0.4783(6) 0.2045(5)
H4 H 0.7437 0.5810 0.3046
C14 C -0.0548(6) 0.4349(5) 0.3934(4)
C15 C 0.0827(7) 0.1739(5) 0.1596(4)
C16 C 0.3932(6) 0.9256(5) 0.2284(4)
N6 N 0.2929(6) 0.9973(4) 0.3369(4)
C17 C -0.0047(7) 0.8727(5) 0.3524(4)
C18 C -0.0555(6) 0.7582(6) 0.2429(3)
H5 H 0.4002 0.6493 0.0594
C19 C 0.5315(6) 0.7505(7) 0.0249(4)
C20 C 0.5369(7) 0.8984(6) 0.1100(4)
H6 H 0.0919 0.6817 0.4494
C21 C -0.0467(6) 0.5822(6) 0.4786(4)
H7 H 0.8124 0.4612 0.2043
C22 C -0.1039(6) 0.4907(5) 0.4587(4)
H8 H -0.0899 0.3702 0.3812
H9 H 0.1707 0.1397 0.1578
C23 C -0.0014(9) 0.1068(5) 0.2105(4)
C24 C 0.0201(6) 0.1774(4) 0.0629(4)
O8 O 0.4459(4) 1.0186(3) 0.2391(3)
C25 C 0.3768(6) 1.0593(6) 0.3078(4)
H10 H 0.0600 0.9071 0.3905
C26 C -0.1362(7) 0.8963(6) 0.3547(5)
C27 C -0.1891(7) 0.7793(6) 0.2402(4)
H11 H -0.0272 0.7091 0.2031
H12 H 0.5598 0.7127 -0.0234
C28 C 0.5882(7) 0.8415(6) 0.0445(4)
H13 H 0.5703 0.9638 0.1206
H14 H -0.0777 0.6205 0.5258
H15 H -0.1758 0.4672 0.4899
H16 H -0.0666 0.1454 0.2422
H17 H 0.0544 0.0666 0.2545
C29 C -0.0732(10) 0.0394(6) 0.1375(5)
C30 C -0.0231(6) 0.0671(6) 0.0476(3)
C31 C -0.1079(8) 0.2418(5) 0.0633(5)
C32 C 0.1049(10) 0.2220(7) 0.0004(5)
C33 C 0.4151(6) 1.1597(5) 0.3396(4)
H18 H -0.1630 0.9456 0.3948
C34 C -0.2307(7) 0.8471(7) 0.2972(5)
H19 H -0.2510 0.7466 0.1987
H20 H 0.6607 0.8649 0.0138
H21 H -0.0537 -0.0315 0.1511
H22 H -0.1709 0.0494 0.1355
C35 C -0.1213(8) 0.0559(6) -0.0344(5)
C36 C 0.0940(8) 0.0020(7) 0.0318(7)
H23 H -0.0839 0.3090 0.0844
H24 H -0.1688 0.2116 0.1030
H25 H -0.1518 0.2456 0.0026
H26 H 0.0559 0.2264 -0.0587
H27 H 0.1846 0.1807 -0.0034
H28 H 0.1316 0.2889 0.0210
H29 H 0.4240 1.2031 0.2864
C37 C 0.3072(6) 1.2055(5) 0.3952(5)
C38 C 0.5477(5) 1.1662(4) 0.4014(3)
H30 H -0.3230 0.8613 0.2984
H31 H 0.1714 0.0225 0.0716
H32 H 0.1149 0.0088 -0.0304
H33 H 0.0722 -0.0675 0.0438
H34 H 0.2469 1.2489 0.3570
H35 H 0.2534 1.1520 0.4198
C39 C 0.3744(6) 1.2630(6) 0.4673(4)
C40 C 0.5243(6) 1.2655(6) 0.4535(3)
C41 C 0.6666(5) 1.1681(4) 0.3477(4)
C42 C 0.5565(6) 1.0769(5) 0.4668(4)
H36 H 0.3603 1.2320 0.5255
H37 H 0.3381 1.3316 0.4669
C43 C 0.6089(7) 1.2674(6) 0.5428(4)
C44 C 0.5552(6) 1.3579(4) 0.3991(3)
H38 H 0.7464 1.1854 0.3866
H39 H 0.6525 1.2178 0.3001
H40 H 0.6784 1.1023 0.3213
H41 H 0.5634 1.0149 0.4332
H42 H 0.4762 1.0750 0.4993
H43 H 0.6353 1.0844 0.5093
H44 H 0.5406 1.4179 0.4341
H45 H 0.4963 1.3593 0.3437
H46 H 0.6483 1.3556 0.3848
Zn1A Zn -0.25680(6) 0.06774(4) -0.19456(4)
O3A O 0.2357(5) 0.5251(4) 0.0251(5)
O4A O 0.0886(6) 0.5817(5) 0.1067(3)
Zn2A Zn 0.76171(6) 1.26401(4) 0.68674(4)
O6A O 0.2700(5) 0.7902(4) 0.4570(3)
O7A O 0.4391(6) 0.7458(5) 0.3873(3)
loop_
_geom_bond_atom_site_label_1
_geom_bond_atom_site_label_2
_geom_bond_site_symmetry_1
_geom_bond_site_symmetry_2
Zn1 N1 1_555 1_555
N1 C1 1_555 1_555
N2 Zn1 1_555 1_555
O1 Zn1 1_555 1_555
O2 Zn1 1_555 1_555
O3 C35 1_555 1_555
O4 C35 1_555 1_555
C1 H1 1_555 1_555
C2 N1 1_555 1_555
C3 N2 1_555 1_555
N3 N2 1_555 1_555
Zn2 O1 1_555 1_555
C4 O1 1_555 1_555
C5 O2 1_555 1_555
C6 C1 1_555 1_555
C7 C2 1_555 1_555
H2 C2 1_555 1_555
C8 C3 1_555 1_555
O5 C3 1_555 1_555
C9 N3 1_555 1_555
N4 Zn2 1_555 1_555
N5 Zn2 1_555 1_555
O6 C43 1_555 1_555
O7 C43 1_555 1_555
C10 C4 1_555 1_555
C11 C4 1_555 1_555
C12 C5 1_555 1_555
H3 C6 1_555 1_555
C13 C6 1_555 1_555
H4 C7 1_555 1_555
C14 C8 1_555 1_555
C15 C9 1_555 1_555
C16 N4 1_555 1_555
N6 N4 1_555 1_555
C17 N5 1_555 1_555
C18 N5 1_555 1_555
H5 C10 1_555 1_555
C19 C10 1_555 1_555
C20 C11 1_555 1_555
H6 C12 1_555 1_555
C21 C12 1_555 1_555
H7 C13 1_555 1_555
C22 C14 1_555 1_555
H8 C14 1_555 1_555
H9 C15 1_555 1_555
C23 C15 1_555 1_555
C24 C15 1_555 1_555
O8 C16 1_555 1_555
C25 N6 1_555 1_555
H10 C17 1_555 1_555
C26 C17 1_555 1_555
C27 C18 1_555 1_555
H11 C18 1_555 1_555
H12 C19 1_555 1_555
C28 C19 1_555 1_555
H13 C20 1_555 1_555
H14 C21 1_555 1_555
H15 C22 1_555 1_555
H16 C23 1_555 1_555
H17 C23 1_555 1_555
C29 C23 1_555 1_555
C30 C24 1_555 1_555
C31 C24 1_555 1_555
C32 C24 1_555 1_555
C33 C25 1_555 1_555
H18 C26 1_555 1_555
C34 C26 1_555 1_555
H19 C27 1_555 1_555
H20 C28 1_555 1_555
H21 C29 1_555 1_555
H22 C29 1_555 1_555
C35 C30 1_555 1_555
C36 C30 1_555 1_555
H23 C31 1_555 1_555
H24 C31 1_555 1_555
H25 C31 1_555 1_555
H26 C32 1_555 1_555
H27 C32 1_555 1_555
H28 C32 1_555 1_555
H29 C33 1_555 1_555
C37 C33 1_555 1_555
C38 C33 1_555 1_555
H30 C34 1_555 1_555
H31 C36 1_555 1_555
H32 C36 1_555 1_555
H33 C36 1_555 1_555
H34 C37 1_555 1_555
H35 C37 1_555 1_555
C39 C37 1_555 1_555
C40 C38 1_555 1_555
C41 C38 1_555 1_555
C42 C38 1_555 1_555
H36 C39 1_555 1_555
H37 C39 1_555 1_555
C43 C40 1_555 1_555
C44 C40 1_555 1_555
H38 C41 1_555 1_555
H39 C41 1_555 1_555
H40 C41 1_555 1_555
H41 C42 1_555 1_555
H42 C42 1_555 1_555
H43 C42 1_555 1_555
H44 C44 1_555 1_555
H45 C44 1_555 1_555
H46 C44 1_555 1_555
Zn1A O3 1_555 1_555
O3A Zn1 1_555 1_555
O4A Zn1 1_555 1_555
Zn2A O6 1_555 1_555
O6A Zn2 1_555 1_555
O7A Zn2 1_555 1_555
O2 Zn2 1_555 1_555
O4 Zn1A 1_555 1_555
C5 C8 1_555 1_555
C7 C13 1_555 1_555
O5 C9 1_555 1_555
O7 Zn2A 1_555 1_555
C11 C16 1_555 1_555
C20 C28 1_555 1_555
C21 C22 1_555 1_555
O8 C25 1_555 1_555
C27 C34 1_555 1_555
C29 C30 1_555 1_555
C39 C40 1_555 1_555

#END
