
#######################################################################
#
#                 Cambridge Crystallographic Data Centre
#                                CCDC 
#
#######################################################################
#
# If this CIF has been generated from an entry in the Cambridge 
# Structural Database, then it will include bibliographic, chemical, 
# crystal, experimental, refinement or atomic coordinate data resulting 
# from the CCDC's data processing and validation procedures.
#
#######################################################################

data_KINZEO
_symmetry_cell_setting           monoclinic
_symmetry_space_group_name_H-M   'P 21'
_symmetry_Int_Tables_number      4
_space_group_name_Hall           'P 2yb'
loop_
_symmetry_equiv_pos_site_id
_symmetry_equiv_pos_as_xyz
1 x,y,z
2 -x,1/2+y,-z
_cell_length_a                   7.4795(6)
_cell_length_b                   11.4662(9)
_cell_length_c                   23.901(2)
_cell_angle_alpha                90
_cell_angle_beta                 98.773(2)
_cell_angle_gamma                90
_cell_volume                     2025.8
loop_
_atom_site_label
_atom_site_type_symbol
_atom_site_fract_x
_atom_site_fract_y
_atom_site_fract_z
Cu1 Cu 0.11144(16) 0.42469(11) 0.83089(5)
O1 O 0.1480(10) 0.4549(8) 0.7557(3)
O2 O 0.5906(10) 0.6039(8) 0.8585(3)
O3 O 0.9128(9) 0.8668(8) 1.0926(3)
O4 O 0.7944(10) 0.7209(8) 1.1354(3)
N1 N 0.3411(11) 0.5062(8) 0.8588(3)
N2 N 0.4332(13) 0.5065(10) 0.9148(4)
N3 N -0.1485(11) 0.3791(9) 0.8017(4)
C1 C 0.2607(14) 0.5219(11) 0.7348(4)
C2 C 0.2392(17) 0.5394(12) 0.6755(5)
H1 H 0.1417 0.5038 0.6514
C3 C 0.3617(18) 0.6089(13) 0.6531(5)
H2 H 0.3476 0.6173 0.6132
C4 C 0.5031(18) 0.6667(14) 0.6853(6)
H3 H 0.5815 0.7161 0.6683
C5 C 0.5259(16) 0.6502(13) 0.7423(5)
H4 H 0.6225 0.6885 0.7656
C6 C 0.4105(15) 0.5782(11) 0.7674(5)
C7 C 0.4424(15) 0.5615(11) 0.8266(4)
C8 C 0.5781(17) 0.5666(13) 0.9130(5)
C9 C 0.7336(15) 0.5913(13) 0.9583(5)
H5 H 0.7927 0.5142 0.9682
C10 C 0.8770(15) 0.6678(12) 0.9440(4)
H6 H 0.8284 0.7199 0.9122
H7 H 0.9760 0.6207 0.9324
C11 C 0.5542(16) 0.7394(13) 1.0022(6)
H8 H 0.4351 0.7106 0.9850
H9 H 0.6006 0.7934 0.9760
H10 H 0.5434 0.7800 1.0376
C12 C 0.5967(17) 0.5443(10) 1.0462(4)
H11 H 0.4779 0.5234 1.0254
H12 H 0.5825 0.5730 1.0839
H13 H 0.6752 0.4755 1.0500
C13 C 0.6812(13) 0.6393(10) 1.0142(4)
C14 C 0.8685(15) 0.6857(13) 1.0437(5)
C15 C 0.9498(15) 0.7416(13) 0.9978(5)
H14 H 1.0835 0.7388 1.0059
H15 H 0.9109 0.8240 0.9927
C16 C 0.9927(16) 0.5776(12) 1.0669(5)
H16 H 1.1122 0.6059 1.0841
H17 H 1.0059 0.5249 1.0355
H18 H 0.9363 0.5356 1.0954
C17 C 0.8551(15) 0.7632(14) 1.0944(5)
C18 C -0.2596(15) 0.3333(13) 0.8351(5)
H19 H -0.2199 0.3329 0.8747
C19 C -0.4220(18) 0.2886(14) 0.8161(6)
H20 H -0.4946 0.2576 0.8418
C20 C -0.4817(18) 0.2878(14) 0.7604(8)
H21 H -0.5975 0.2568 0.7461
C21 C -0.3724(17) 0.3327(14) 0.7241(5)
H22 H -0.4094 0.3313 0.6843
C22 C -0.2113(15) 0.3787(12) 0.7467(5)
H23 H -0.1386 0.4127 0.7217
Cu1A Cu 0.88856(16) 0.92469(11) 1.16911(5)
O3A O 0.0872(9) 0.3668(8) 0.9074(3)
O4A O 0.2056(10) 0.2209(8) 0.8646(3)
Cu2 Cu 0.42026(16) 0.97719(10) 0.66159(5)
O5 O 0.3893(9) 0.9435(8) 0.7377(3)
O6 O -0.0638(10) 0.8025(8) 0.6354(3)
O7 O -0.4370(9) 0.5423(8) 0.4149(3)
O8 O -0.3282(10) 0.6744(8) 0.3628(3)
N4 N 0.1938(11) 0.8951(9) 0.6346(4)
N5 N 0.0992(11) 0.8966(9) 0.5794(3)
N6 N 0.6801(11) 1.0255(9) 0.6909(4)
C23 C 0.2742(15) 0.8773(11) 0.7590(5)
C24 C 0.2943(15) 0.8611(11) 0.8190(5)
H24 H 0.3909 0.8990 0.8424
C25 C 0.1799(16) 0.7935(13) 0.8431(5)
H25 H 0.1984 0.7841 0.8831
C26 C 0.0362(17) 0.7377(13) 0.8108(4)
H26 H -0.0436 0.6904 0.8283
C27 C 0.0103(15) 0.7512(11) 0.7539(6)
H27 H -0.0896 0.7135 0.7319
C28 C 0.1265(14) 0.8192(11) 0.7264(4)
C29 C 0.0958(14) 0.8400(10) 0.6665(4)
C30 C -0.0508(16) 0.8445(11) 0.5821(5)
C31 C -0.2115(15) 0.8263(12) 0.5387(5)
H28 H -0.3200 0.8318 0.5584
C32 C -0.2367(14) 0.9155(9) 0.4914(4)
H29 H -0.3061 0.9832 0.5022
H30 H -0.1176 0.9435 0.4837
C33 C -0.2238(13) 0.7059(10) 0.5067(4)
C34 C -0.0466(12) 0.6836(12) 0.4839(5)
H31 H -0.0213 0.7492 0.4600
H32 H -0.0573 0.6117 0.4614
H33 H 0.0523 0.6755 0.5156
C35 C -0.2597(14) 0.6027(9) 0.5445(4)
H34 H -0.1560 0.5924 0.5745
H35 H -0.2776 0.5316 0.5216
H36 H -0.3685 0.6184 0.5615
C36 C -0.3379(14) 0.8571(9) 0.4396(4)
H37 H -0.2627 0.8552 0.4090
H38 H -0.4508 0.9002 0.4259
C37 C -0.5680(13) 0.7320(10) 0.4744(5)
H39 H -0.6598 0.7496 0.4417
H40 H -0.5740 0.7902 0.5041
H41 H -0.5904 0.6543 0.4889
C38 C -0.3810(14) 0.7349(11) 0.4565(5)
C39 C -0.3767(14) 0.6444(11) 0.4078(5)
C40 C 0.7455(14) 1.0238(11) 0.7473(4)
H42 H 0.6750 0.9886 0.7726
C41 C 0.9104(15) 1.0716(14) 0.7689(6)
H43 H 0.9518 1.0691 0.8084
C42 C 1.0118(16) 1.1210(13) 0.7346(5)
H44 H 1.1233 1.1568 0.7496
C43 C 0.9547(18) 1.1200(15) 0.6776(6)
H45 H 1.0264 1.1537 0.6523
C44 C 0.7862(16) 1.0675(12) 0.6572(5)
H46 H 0.7488 1.0627 0.6174
Cu2A Cu -0.42026(16) 0.47719(10) 0.33841(5)
O7A O 0.4370(9) 1.0423(8) 0.5851(3)
O8A O 0.3282(10) 1.1744(8) 0.6372(3)
loop_
_geom_bond_atom_site_label_1
_geom_bond_atom_site_label_2
_geom_bond_site_symmetry_1
_geom_bond_site_symmetry_2
Cu1 O1 1_555 1_555
O1 C1 1_555 1_555
O2 C7 1_555 1_555
O3 C17 1_555 1_555
O4 C17 1_555 1_555
N1 Cu1 1_555 1_555
N2 N1 1_555 1_555
N3 Cu1 1_555 1_555
C1 C2 1_555 1_555
C2 H1 1_555 1_555
C3 C2 1_555 1_555
H2 C3 1_555 1_555
C4 C3 1_555 1_555
H3 C4 1_555 1_555
C5 C4 1_555 1_555
H4 C5 1_555 1_555
C6 C1 1_555 1_555
C7 N1 1_555 1_555
C8 O2 1_555 1_555
C9 C8 1_555 1_555
H5 C9 1_555 1_555
C10 C9 1_555 1_555
H6 C10 1_555 1_555
H7 C10 1_555 1_555
C11 H8 1_555 1_555
H9 C11 1_555 1_555
H10 C11 1_555 1_555
C12 H11 1_555 1_555
H12 C12 1_555 1_555
H13 C12 1_555 1_555
C13 C9 1_555 1_555
C14 C13 1_555 1_555
C15 C10 1_555 1_555
H14 C15 1_555 1_555
H15 C15 1_555 1_555
C16 C14 1_555 1_555
H16 C16 1_555 1_555
H17 C16 1_555 1_555
H18 C16 1_555 1_555
C17 C14 1_555 1_555
C18 N3 1_555 1_555
H19 C18 1_555 1_555
C19 C18 1_555 1_555
H20 C19 1_555 1_555
C20 C19 1_555 1_555
H21 C20 1_555 1_555
C21 C20 1_555 1_555
H22 C21 1_555 1_555
C22 N3 1_555 1_555
H23 C22 1_555 1_555
Cu2 O5 1_555 1_555
O5 C23 1_555 1_555
O6 C29 1_555 1_555
O7 C39 1_555 1_555
O8 C39 1_555 1_555
N4 Cu2 1_555 1_555
N5 N4 1_555 1_555
N6 Cu2 1_555 1_555
C23 C24 1_555 1_555
C24 H24 1_555 1_555
C25 C24 1_555 1_555
H25 C25 1_555 1_555
C26 C25 1_555 1_555
H26 C26 1_555 1_555
C27 C26 1_555 1_555
H27 C27 1_555 1_555
C28 C23 1_555 1_555
C29 N4 1_555 1_555
C30 O6 1_555 1_555
C31 C30 1_555 1_555
H28 C31 1_555 1_555
C32 C31 1_555 1_555
H29 C32 1_555 1_555
H30 C32 1_555 1_555
C33 C31 1_555 1_555
C34 C33 1_555 1_555
H31 C34 1_555 1_555
H32 C34 1_555 1_555
H33 C34 1_555 1_555
C35 C33 1_555 1_555
H34 C35 1_555 1_555
H35 C35 1_555 1_555
H36 C35 1_555 1_555
C36 C32 1_555 1_555
H37 C36 1_555 1_555
H38 C36 1_555 1_555
C37 H39 1_555 1_555
H40 C37 1_555 1_555
H41 C37 1_555 1_555
C38 C33 1_555 1_555
C39 C38 1_555 1_555
C40 N6 1_555 1_555
H42 C40 1_555 1_555
C41 C40 1_555 1_555
H43 C41 1_555 1_555
C42 C41 1_555 1_555
H44 C42 1_555 1_555
C43 C42 1_555 1_555
H45 C43 1_555 1_555
C44 N6 1_555 1_555
H46 C44 1_555 1_555
Cu1A O3 1_555 1_555
O3A Cu1 1_555 1_555
O4A Cu1 1_555 1_555
Cu2A O7 1_555 1_555
O7A Cu2 1_555 1_555
O8A Cu2 1_555 1_555
O4 Cu1A 1_555 1_555
N2 C8 1_555 1_555
C5 C6 1_555 1_555
C6 C7 1_555 1_555
C11 C13 1_555 1_555
C12 C13 1_555 1_555
C14 C15 1_555 1_555
C21 C22 1_555 1_555
O8 Cu2A 1_555 1_555
N5 C30 1_555 1_555
C27 C28 1_555 1_555
C28 C29 1_555 1_555
C36 C38 1_555 1_555
C37 C38 1_555 1_555
C43 C44 1_555 1_555

#END
