
#######################################################################
#
#                 Cambridge Crystallographic Data Centre
#                                CCDC 
#
#######################################################################
#
# If this CIF has been generated from an entry in the Cambridge 
# Structural Database, then it will include bibliographic, chemical, 
# crystal, experimental, refinement or atomic coordinate data resulting 
# from the CCDC's data processing and validation procedures.
#
#######################################################################

data_KINZOY
_symmetry_cell_setting           monoclinic
_symmetry_space_group_name_H-M   'P 21'
_symmetry_Int_Tables_number      4
_space_group_name_Hall           'P 2yb'
loop_
_symmetry_equiv_pos_site_id
_symmetry_equiv_pos_as_xyz
1 x,y,z
2 -x,1/2+y,-z
_cell_length_a                   10.2397(5)
_cell_length_b                   13.5650(7)
_cell_length_c                   15.0505(8)
_cell_angle_alpha                90
_cell_angle_beta                 93.3840(10)
_cell_angle_gamma                90
_cell_volume                     2086.89
loop_
_atom_site_label
_atom_site_type_symbol
_atom_site_fract_x
_atom_site_fract_y
_atom_site_fract_z
Cd1 Cd 0.26077(4) 0.56369(3) 0.18202(3)
Cd2 Cd 0.23041(4) 0.76676(2) 0.32008(3)
C1 C 0.3833(6) 0.7741(8) 0.1352(5)
C2 C 0.4332(7) 0.7250(7) 0.0633(5)
H1 H 0.3977 0.6627 0.0460
C3 C 0.5312(7) 0.7637(9) 0.0174(5)
H2 H 0.5618 0.7267 -0.0308
C4 C 0.5884(8) 0.8529(7) 0.0364(6)
H3 H 0.6599 0.8768 0.0052
C5 C 0.5359(7) 0.9062(8) 0.1038(5)
H4 H 0.5700 0.9700 0.1172
C6 C 0.4346(7) 0.8701(7) 0.1531(5)
C7 C 0.3866(7) 0.9343(6) 0.2220(5)
C8 C 0.3744(6) 1.0636(9) 0.3016(5)
C9 C 0.4098(7) 1.1651(7) 0.3339(5)
H5 H 0.4187 1.2093 0.2815
C10 C 0.3073(6) 1.2082(5) 0.3929(5)
H6 H 0.2439 1.2487 0.3565
H7 H 0.2589 1.1543 0.4206
C11 C 0.3753(6) 1.2709(6) 0.4639(4)
H8 H 0.3608 1.2439 0.5236
H9 H 0.3411 1.3392 0.4608
C12 C 0.5235(6) 1.2698(9) 0.4468(5)
C13 C 0.5422(6) 1.1689(4) 0.3957(4)
C14 C 0.6098(6) 1.2731(8) 0.5322(5)
C15 C 0.5556(7) 1.3587(5) 0.3888(4)
H10 H 0.5373 1.4197 0.4206
H11 H 0.5017 1.3562 0.3329
H12 H 0.6483 1.3568 0.3760
C16 C 0.6609(5) 1.1663(5) 0.3410(4)
H13 H 0.7390 1.1827 0.3789
H14 H 0.6502 1.2144 0.2925
H15 H 0.6705 1.1002 0.3161
C17 C 0.5467(8) 1.0809(8) 0.4588(6)
H16 H 0.5547 1.0200 0.4246
H17 H 0.4662 1.0788 0.4909
H18 H 0.6222 1.0874 0.5016
C18 C -0.0409(9) 0.8647(8) 0.3590(6)
H19 H 0.0144 0.8944 0.4043
C19 C -0.1710(8) 0.8851(8) 0.3561(6)
H20 H -0.2056 0.9275 0.3991
C20 C -0.2511(8) 0.8441(9) 0.2909(8)
H21 H -0.3422 0.8577 0.2876
C21 C -0.1994(9) 0.7839(10) 0.2313(6)
H22 H -0.2539 0.7547 0.1853
C22 C -0.0678(7) 0.7649(10) 0.2373(5)
H23 H -0.0323 0.7220 0.1950
C23 C 0.5306(10) 0.4761(10) 0.1438(7)
H24 H 0.4724 0.4443 0.1014
C24 C 0.6602(10) 0.4560(12) 0.1396(7)
H25 H 0.6909 0.4127 0.0957
C25 C 0.7406(10) 0.4982(10) 0.1979(8)
H26 H 0.8321 0.4880 0.1953
C26 C 0.6943(8) 0.5577(11) 0.2637(7)
H27 H 0.7511 0.5861 0.3088
C27 C 0.5592(8) 0.5737(9) 0.2601(6)
H28 H 0.5240 0.6153 0.3035
C28 C 0.1002(6) 0.5593(8) 0.3631(5)
C29 C 0.0502(8) 0.6112(7) 0.4357(5)
H29 H 0.0892 0.6726 0.4522
C30 C -0.0501(7) 0.5784(8) 0.4828(6)
H30 H -0.0807 0.6163 0.5304
C31 C -0.1079(8) 0.4867(7) 0.4599(6)
H31 H -0.1813 0.4641 0.4898
C32 C -0.0578(7) 0.4303(7) 0.3944(5)
H32 H -0.0947 0.3674 0.3810
C33 C 0.0475(7) 0.4644(7) 0.3464(5)
C34 C 0.0984(7) 0.4017(7) 0.2805(6)
C35 C 0.1099(7) 0.2658(8) 0.2018(5)
C36 C 0.0771(7) 0.1671(6) 0.1672(5)
H33 H 0.1588 0.1266 0.1725
C37 C -0.0280(7) 0.1117(5) 0.2162(4)
H34 H -0.0855 0.1586 0.2458
H35 H 0.0127 0.0668 0.2617
C38 C -0.1063(8) 0.0530(6) 0.1434(4)
H36 H -0.1134 -0.0172 0.1606
H37 H -0.1955 0.0805 0.1330
C39 C -0.0288(6) 0.0635(10) 0.0598(5)
C40 C 0.0298(6) 0.1681(5) 0.0696(4)
C41 C -0.1143(7) 0.0563(9) -0.0277(5)
C42 C 0.0738(9) -0.0176(6) 0.0571(5)
H38 H 0.1347 -0.0124 0.1096
H39 H 0.1220 -0.0105 0.0031
H40 H 0.0306 -0.0821 0.0568
C43 C -0.0770(8) 0.2448(7) 0.0516(6)
H41 H -0.0451 0.3095 0.0722
H42 H -0.1542 0.2267 0.0835
H43 H -0.1005 0.2476 -0.0124
C44 C 0.1431(7) 0.1869(7) 0.0123(4)
H44 H 0.1147 0.1771 -0.0504
H45 H 0.2144 0.1411 0.0289
H46 H 0.1738 0.2548 0.0211
N1 N 0.2940(6) 0.9199(5) 0.2757(4)
N2 N 0.2859(6) 1.0074(5) 0.3278(5)
N3 N 0.0126(6) 0.8051(5) 0.3011(5)
N4 N 0.4798(6) 0.5338(6) 0.1994(5)
N5 N 0.1990(6) 0.4089(5) 0.2317(5)
N6 N 0.2090(7) 0.3229(6) 0.1817(5)
O1 O 0.2944(5) 0.7329(4) 0.1820(3)
O2 O 0.4421(5) 1.0253(4) 0.2345(4)
O3 O 0.7299(4) 1.2901(4) 0.5276(3)
O4 O 0.5608(5) 1.2544(6) 0.6060(3)
O5 O 0.1908(5) 0.6005(4) 0.3170(3)
O6 O 0.0372(5) 0.3110(4) 0.2645(4)
O7 O -0.2337(5) 0.0360(5) -0.0263(4)
O8 O -0.0608(5) 0.0704(7) -0.0988(3)
Cd1A Cd -0.26077(4) 0.06369(3) -0.18202(3)
Cd2A Cd 0.76959(4) 1.26676(2) 0.67992(3)
O3A O 0.2701(4) 0.7901(4) 0.4724(3)
O4A O 0.4392(5) 0.7544(6) 0.3940(3)
O7A O 0.2337(5) 0.5360(5) 0.0263(4)
O8A O 0.0608(5) 0.5704(7) 0.0988(3)
loop_
_geom_bond_atom_site_label_1
_geom_bond_atom_site_label_2
_geom_bond_site_symmetry_1
_geom_bond_site_symmetry_2
Cd1 N4 1_555 1_555
Cd2 N1 1_555 1_555
C1 C2 1_555 1_555
C2 H1 1_555 1_555
C3 C2 1_555 1_555
H2 C3 1_555 1_555
C4 C3 1_555 1_555
H3 C4 1_555 1_555
C5 C4 1_555 1_555
H4 C5 1_555 1_555
C6 C1 1_555 1_555
C7 C6 1_555 1_555
C8 C9 1_555 1_555
C9 H5 1_555 1_555
C10 C9 1_555 1_555
H6 C10 1_555 1_555
H7 C10 1_555 1_555
C11 C10 1_555 1_555
H8 C11 1_555 1_555
H9 C11 1_555 1_555
C12 C11 1_555 1_555
C13 C9 1_555 1_555
C14 C12 1_555 1_555
C15 C12 1_555 1_555
H10 C15 1_555 1_555
H11 C15 1_555 1_555
H12 C15 1_555 1_555
C16 C13 1_555 1_555
H13 C16 1_555 1_555
H14 C16 1_555 1_555
H15 C16 1_555 1_555
C17 C13 1_555 1_555
H16 C17 1_555 1_555
H17 C17 1_555 1_555
H18 C17 1_555 1_555
C18 H19 1_555 1_555
C19 C18 1_555 1_555
H20 C19 1_555 1_555
C20 C19 1_555 1_555
H21 C20 1_555 1_555
C21 C20 1_555 1_555
H22 C21 1_555 1_555
C22 C21 1_555 1_555
H23 C22 1_555 1_555
C23 H24 1_555 1_555
C24 C23 1_555 1_555
H25 C24 1_555 1_555
C25 C24 1_555 1_555
H26 C25 1_555 1_555
C26 C25 1_555 1_555
H27 C26 1_555 1_555
C27 C26 1_555 1_555
H28 C27 1_555 1_555
C28 C29 1_555 1_555
C29 H29 1_555 1_555
C30 C29 1_555 1_555
H30 C30 1_555 1_555
C31 C30 1_555 1_555
H31 C31 1_555 1_555
C32 C31 1_555 1_555
H32 C32 1_555 1_555
C33 C28 1_555 1_555
C34 C33 1_555 1_555
C35 C36 1_555 1_555
C36 H33 1_555 1_555
C37 C36 1_555 1_555
H34 C37 1_555 1_555
H35 C37 1_555 1_555
C38 C37 1_555 1_555
H36 C38 1_555 1_555
H37 C38 1_555 1_555
C39 C38 1_555 1_555
C40 C36 1_555 1_555
C41 C39 1_555 1_555
C42 C39 1_555 1_555
H38 C42 1_555 1_555
H39 C42 1_555 1_555
H40 C42 1_555 1_555
C43 C40 1_555 1_555
H41 C43 1_555 1_555
H42 C43 1_555 1_555
H43 C43 1_555 1_555
C44 C40 1_555 1_555
H44 C44 1_555 1_555
H45 C44 1_555 1_555
H46 C44 1_555 1_555
N1 C7 1_555 1_555
N2 C8 1_555 1_555
N3 Cd2 1_555 1_555
N4 C23 1_555 1_555
N5 Cd1 1_555 1_555
N6 C35 1_555 1_555
O1 Cd1 1_555 1_555
O2 C7 1_555 1_555
O3 C14 1_555 1_555
O4 C14 1_555 1_555
O5 Cd1 1_555 1_555
O6 C34 1_555 1_555
O7 C41 1_555 1_555
O8 C41 1_555 1_555
Cd1A O7 1_555 1_555
Cd2A O3 1_555 1_555
O3A Cd2 1_555 1_555
O4A Cd2 1_555 1_555
O7A Cd1 1_555 1_555
O8A Cd1 1_555 1_555
Cd2 O1 1_555 1_555
Cd2 O5 1_555 1_555
C1 O1 1_555 1_555
C5 C6 1_555 1_555
C8 O2 1_555 1_555
C12 C13 1_555 1_555
C18 N3 1_555 1_555
C22 N3 1_555 1_555
C27 N4 1_555 1_555
C28 O5 1_555 1_555
C32 C33 1_555 1_555
C34 N5 1_555 1_555
C35 O6 1_555 1_555
C39 C40 1_555 1_555
N1 N2 1_555 1_555
N5 N6 1_555 1_555
O4 Cd2A 1_555 1_555
O8 Cd1A 1_555 1_555

#END
