
#######################################################################
#
#                 Cambridge Crystallographic Data Centre
#                                CCDC 
#
#######################################################################
#
# If this CIF has been generated from an entry in the Cambridge 
# Structural Database, then it will include bibliographic, chemical, 
# crystal, experimental, refinement or atomic coordinate data resulting 
# from the CCDC's data processing and validation procedures.
#
#######################################################################

data_KINZUE
_symmetry_cell_setting           orthorhombic
_symmetry_space_group_name_H-M   'P 21 21 21'
_symmetry_Int_Tables_number      19
_space_group_name_Hall           'P 2ac 2ab'
loop_
_symmetry_equiv_pos_site_id
_symmetry_equiv_pos_as_xyz
1 x,y,z
2 1/2-x,-y,1/2+z
3 -x,1/2+y,1/2-z
4 1/2+x,1/2-y,-z
_cell_length_a                   8.5905(4)
_cell_length_b                   15.3257(7)
_cell_length_c                   25.5881(11)
_cell_angle_alpha                90
_cell_angle_beta                 90
_cell_angle_gamma                90
_cell_volume                     3368.81
loop_
_atom_site_label
_atom_site_type_symbol
_atom_site_fract_x
_atom_site_fract_y
_atom_site_fract_z
C1 C 0.3291(3) -0.19743(19) 0.18241(13)
H1 H 0.3717 -0.2468 0.1980
C2 C 0.4118(3) -0.1283(2) 0.16607(12)
H2 H 0.5190 -0.1209 0.1683
C3 C 0.1645(3) -0.10846(19) 0.15068(11)
H3 H 0.0719 -0.0828 0.1397
C4 C 0.4381(3) 0.27343(18) -0.19711(10)
H4 H 0.4671 0.2156 -0.1921
C5 C 0.3844(4) 0.39436(19) -0.23322(11)
H5 H 0.3686 0.4368 -0.2586
C6 C 0.3620(4) 0.40633(18) -0.18140(11)
H6 H 0.3299 0.4572 -0.1648
C7 C 0.6061(6) 0.5602(3) 0.22623(15)
H7 H 0.553(5) 0.511(3) 0.2505(15)
C8 C 0.7008(5) 0.6284(3) 0.23700(15)
H8 H 0.7082 0.6563 0.2695
C9 C 0.7230(4) 0.60421(19) 0.15643(11)
H9 H 0.7555 0.6074 0.1218
C10 C 0.5558(3) 0.47359(18) 0.14578(10)
C11 C 0.4154(4) 0.4377(2) 0.15888(13)
H10 H 0.3577 0.4609 0.1863
C12 C 0.3590(4) 0.3664(2) 0.13104(13)
H11 H 0.2646 0.3412 0.1404
C13 C 0.4417(3) 0.33300(16) 0.08992(9)
C14 C 0.5846(3) 0.3687(2) 0.07827(11)
H12 H 0.6427 0.3451 0.0510
C15 C 0.6438(3) 0.4381(2) 0.10567(11)
H13 H 0.7411 0.4609 0.0975
C16 C 0.3913(3) 0.30833(17) -0.10355(9)
C17 C 0.3356(3) 0.37116(18) -0.06937(10)
H14 H 0.3010 0.4246 -0.0821
C18 C 0.3314(3) 0.35438(18) -0.01611(10)
H15 H 0.2931 0.3967 0.0066
C19 C 0.3834(3) 0.27562(16) 0.00373(9)
C20 C 0.4389(3) 0.21273(16) -0.03100(10)
H16 H 0.4741 0.1595 -0.0182
C21 C 0.4421(3) 0.22840(17) -0.08412(9)
H17 H 0.4782 0.1856 -0.1069
C22 C 0.3678(3) 0.17922(17) 0.08050(9)
C23 C 0.4661(3) 0.14970(17) 0.11998(10)
H18 H 0.5447 0.1858 0.1325
C24 C 0.4474(3) 0.06700(19) 0.14078(10)
H19 H 0.5139 0.0479 0.1671
C25 C 0.3310(3) 0.01252(17) 0.12278(10)
C26 C 0.2355(3) 0.04102(18) 0.08249(11)
H20 H 0.1594 0.0040 0.0692
C27 C 0.2524(3) 0.12314(19) 0.06221(11)
H21 H 0.1858 0.1418 0.0358
C28 C 0.1525(5) -0.4189(3) 0.05880(13)
H22 H 0.1845 -0.4784 0.0497
C29 C 0.0338(4) -0.3973(3) 0.01955(12)
H23 H -0.0155 -0.3430 0.0297
H24 H -0.0455 -0.4423 0.0203
C30 C 0.0914(4) -0.3880(3) -0.03639(12)
H25 H 0.0977 -0.4456 -0.0520
H26 H 0.0153 -0.3547 -0.0561
C31 C 0.2442(5) -0.3451(4) -0.04149(13)
H27 H 0.2162 -0.2840 -0.0354
C32 C 0.3592(5) -0.3592(4) -0.00176(13)
H28 H 0.4334 -0.3115 -0.0031
H29 H 0.4153 -0.4124 -0.0100
C33 C 0.2984(4) -0.3663(3) 0.05344(12)
H30 H 0.3785 -0.3923 0.0752
H31 H 0.2788 -0.3079 0.0666
C34 C 0.0855(4) -0.4273(2) 0.11286(11)
C35 C 0.3070(3) -0.3411(2) -0.09756(11)
Co1 Co -0.02196(4) -0.26710(2) 0.182849(12)
N1 N 0.1733(3) -0.18534(15) 0.17300(9)
N2 N 0.3061(3) -0.07087(15) 0.14548(9)
N3 N 0.4331(3) 0.31167(15) -0.24294(8)
N4 N 0.3966(3) 0.32759(14) -0.15833(7)
N5 N 0.7738(3) 0.65567(16) 0.19297(9)
N6 N 0.6185(3) 0.54588(15) 0.17392(9)
N7 N 0.3826(3) 0.26288(14) 0.05884(8)
O1 O 0.0964(3) -0.36777(14) 0.14604(8)
O2 O 0.0250(3) -0.50061(16) 0.12103(10)
O3 O 0.3781(3) -0.27338(14) -0.11014(7)
O4 O 0.2854(3) -0.40505(14) -0.12712(9)
O5 O -0.1426(3) -0.16106(13) 0.22097(7)
H32 H -0.1515 -0.1617 0.2541
H33 H -0.2117 -0.1331 0.2041
Co1_2 Co 0.97804(4) 0.73290(2) 0.182849(12)
Co1A Co 0.52196(4) 0.26710(2) -0.317151(12)
Co1C Co 0.47804(4) -0.23290(2) -0.182849(12)
N3A N 0.0669(3) -0.31167(15) 0.25706(8)
N5_2 N -0.2262(3) -0.34433(16) 0.19297(9)
O3C O -0.1219(3) -0.22662(14) 0.11014(7)
O6 O 0.9530(4) 0.43224(15) 0.21072(11)
H34 H 0.9064 0.4757 0.1973
H35 H 0.9709 0.4424 0.2428
loop_
_geom_bond_atom_site_label_1
_geom_bond_atom_site_label_2
_geom_bond_site_symmetry_1
_geom_bond_site_symmetry_2
C1 H1 1_555 1_555
C2 C1 1_555 1_555
H2 C2 1_555 1_555
C3 H3 1_555 1_555
C4 H4 1_555 1_555
C5 H5 1_555 1_555
C6 C5 1_555 1_555
H6 C6 1_555 1_555
C7 H7 1_555 1_555
C8 C7 1_555 1_555
H8 C8 1_555 1_555
C9 H9 1_555 1_555
C10 C11 1_555 1_555
C11 H10 1_555 1_555
C12 C11 1_555 1_555
H11 C12 1_555 1_555
C13 C12 1_555 1_555
C14 C13 1_555 1_555
H12 C14 1_555 1_555
C15 C10 1_555 1_555
H13 C15 1_555 1_555
C16 C17 1_555 1_555
C17 H14 1_555 1_555
C18 C17 1_555 1_555
H15 C18 1_555 1_555
C19 C18 1_555 1_555
C20 C19 1_555 1_555
H16 C20 1_555 1_555
C21 C16 1_555 1_555
H17 C21 1_555 1_555
C22 C23 1_555 1_555
C23 H18 1_555 1_555
C24 C23 1_555 1_555
H19 C24 1_555 1_555
C25 C24 1_555 1_555
C26 C25 1_555 1_555
H20 C26 1_555 1_555
C27 C22 1_555 1_555
H21 C27 1_555 1_555
C28 H22 1_555 1_555
C29 C28 1_555 1_555
H23 C29 1_555 1_555
H24 C29 1_555 1_555
C30 C29 1_555 1_555
H25 C30 1_555 1_555
H26 C30 1_555 1_555
C31 C30 1_555 1_555
H27 C31 1_555 1_555
C32 C31 1_555 1_555
H28 C32 1_555 1_555
H29 C32 1_555 1_555
C33 C28 1_555 1_555
H30 C33 1_555 1_555
H31 C33 1_555 1_555
C34 C28 1_555 1_555
C35 C31 1_555 1_555
Co1 N1 1_555 1_555
N1 C1 1_555 1_555
N2 C2 1_555 1_555
N3 C4 1_555 1_555
N4 C4 1_555 1_555
N5 C8 1_555 1_555
N6 C7 1_555 1_555
N7 C13 1_555 1_555
O1 C34 1_555 1_555
O2 C34 1_555 1_555
O3 C35 1_555 1_555
O4 C35 1_555 1_555
O5 Co1 1_555 1_555
H32 O5 1_555 1_555
H33 O5 1_555 1_555
O6 H34 1_555 1_555
H35 O6 1_555 1_555
Co1_2 N5 1_555 1_555
Co1A N3 1_555 1_555
Co1C O3 1_555 1_555
N3A Co1 1_555 1_555
N5_2 Co1 1_555 1_555
O3C Co1 1_555 1_555
C3 N1 1_555 1_555
C3 N2 1_555 1_555
C5 N3 1_555 1_555
C6 N4 1_555 1_555
C9 N5 1_555 1_555
C9 N6 1_555 1_555
C10 N6 1_555 1_555
C14 C15 1_555 1_555
C16 N4 1_555 1_555
C19 N7 1_555 1_555
C20 C21 1_555 1_555
C22 N7 1_555 1_555
C25 N2 1_555 1_555
C26 C27 1_555 1_555
C32 C33 1_555 1_555
Co1 O1 1_555 1_555

#END
