
#######################################################################
#
#                 Cambridge Crystallographic Data Centre
#                                CCDC 
#
#######################################################################
#
# If this CIF has been generated from an entry in the Cambridge 
# Structural Database, then it will include bibliographic, chemical, 
# crystal, experimental, refinement or atomic coordinate data resulting 
# from the CCDC's data processing and validation procedures.
#
#######################################################################

data_KINZAK
_symmetry_cell_setting           orthorhombic
_symmetry_space_group_name_H-M   'P 21 21 21'
_symmetry_Int_Tables_number      19
_space_group_name_Hall           'P 2ac 2ab'
loop_
_symmetry_equiv_pos_site_id
_symmetry_equiv_pos_as_xyz
1 x,y,z
2 1/2-x,-y,1/2+z
3 1/2+x,1/2-y,-z
4 -x,1/2+y,1/2-z
_cell_length_a                   12.1844(5)
_cell_length_b                   12.9184(5)
_cell_length_c                   18.8908(7)
_cell_angle_alpha                90
_cell_angle_beta                 90
_cell_angle_gamma                90
_cell_volume                     2973.47
loop_
_atom_site_label
_atom_site_type_symbol
_atom_site_fract_x
_atom_site_fract_y
_atom_site_fract_z
Ni1 Ni 0.13372(4) 0.71863(4) 0.24227(3)
O1 O 0.3815(2) 0.8329(2) 0.37099(15)
O2 O 0.0492(2) 0.7708(2) 0.32528(15)
O3 O 0.7738(2) 1.1244(2) 0.32539(16)
O4 O 0.8118(2) 1.0712(2) 0.21857(16)
N1 N 0.2699(3) 0.7847(3) 0.28698(19)
N2 N 0.3742(3) 0.7993(3) 0.25593(19)
N3 N 0.1124(3) 0.8416(3) 0.17365(18)
N4 N -0.0117(3) 0.6474(3) 0.2045(2)
C1 C 0.0825(3) 0.7849(3) 0.3889(2)
C2 C 0.0064(3) 0.7880(4) 0.4460(2)
H1 H -0.0692 0.7777 0.4362
C3 C 0.0380(4) 0.8054(4) 0.5142(2)
H2 H -0.0156 0.8045 0.5508
C4 C 0.1447(5) 0.8238(5) 0.5308(3)
H3 H 0.1653 0.8386 0.5782
C5 C 0.2226(4) 0.8208(4) 0.4783(3)
H4 H 0.2976 0.8316 0.4901
C6 C 0.1938(3) 0.8026(3) 0.4088(2)
C7 C 0.2775(3) 0.8041(3) 0.3531(2)
C8 C 0.4356(3) 0.8265(3) 0.3080(3)
C9 C 0.5571(3) 0.8459(4) 0.3064(3)
H5 H 0.5900 0.8047 0.3459
C10 C 0.6105(4) 0.8105(4) 0.2399(4)
H6 H 0.5607 0.8201 0.1991
H7 H 0.6305 0.7364 0.2432
C11 C 0.7139(4) 0.8777(4) 0.2315(4)
H8 H 0.7805 0.8338 0.2307
H9 H 0.7106 0.9176 0.1868
C12 C 0.7163(3) 0.9509(3) 0.2952(3)
C13 C 0.5930(3) 0.9603(3) 0.3176(2)
C14 C 0.5325(4) 1.0302(3) 0.2648(3)
H10 H 0.4546 1.0338 0.2776
H11 H 0.5398 1.0016 0.2170
H12 H 0.5644 1.0998 0.2662
C15 C 0.5757(4) 0.9966(5) 0.3917(3)
H13 H 0.4970 0.9982 0.4021
H14 H 0.6065 1.0663 0.3971
H15 H 0.6125 0.9492 0.4245
C16 C 0.7885(4) 0.9054(4) 0.3544(3)
H16 H 0.8653 0.9048 0.3390
H17 H 0.7648 0.8345 0.3647
H18 H 0.7814 0.9479 0.3971
C17 C 0.7692(3) 1.0558(3) 0.2777(2)
C18 C 0.1923(4) 0.8668(4) 0.1292(3)
H19 H 0.2587 0.8283 0.1308
C19 C 0.1835(5) 0.9459(4) 0.0808(3)
H20 H 0.2430 0.9635 0.0506
C20 C 0.0836(5) 0.9994(5) 0.0776(3)
H21 H 0.0732 1.0524 0.0434
C21 C 0.0029(4) 0.9758(4) 0.1227(3)
H22 H -0.0645 1.0129 0.1221
C22 C 0.0200(4) 0.8963(4) 0.1701(3)
H23 H -0.0375 0.8796 0.2020
C23 C -0.0197(4) 0.6152(4) 0.1382(3)
H24 H 0.0404 0.6261 0.1071
C24 C -0.1130(4) 0.5661(4) 0.1126(3)
H25 H -0.1161 0.5432 0.0649
C25 C -0.1983(4) 0.5513(4) 0.1559(3)
H26 H -0.2634 0.5192 0.1390
C26 C -0.1907(4) 0.5823(4) 0.2226(4)
H27 H -0.2502 0.5707 0.2541
C27 C -0.0969(3) 0.6313(3) 0.2467(3)
H28 H -0.0936 0.6539 0.2945
Ni1C Ni 0.86628(4) 1.21863(4) 0.25773(3)
O3C O 0.2262(2) 0.6244(2) 0.17461(16)
O4C O 0.1882(2) 0.5712(2) 0.28143(16)
C28 C 0.631(2) 0.965(2) 0.0434(10)
H29 H 0.6203 0.9979 -0.0029
H30 H 0.7023 0.9854 0.0627
H31 H 0.5725 0.9876 0.0757
C29 C 0.729(2) 0.783(2) 0.0273(9)
H32 H 0.7588 0.7671 0.0743
H33 H 0.7836 0.8226 0.0002
H34 H 0.7123 0.7186 0.0023
N5 N 0.626(2) 0.846(2) 0.0350(8)
C30 C 0.518(3) 0.806(3) 0.0491(11)
H35 H 0.5013 0.7342 0.0525
O5 O 0.4519(14) 0.8756(17) 0.0560(7)
loop_
_geom_bond_atom_site_label_1
_geom_bond_atom_site_label_2
_geom_bond_site_symmetry_1
_geom_bond_site_symmetry_2
Ni1 O2 1_555 1_555
O1 C7 1_555 1_555
O2 C1 1_555 1_555
O3 C17 1_555 1_555
O4 C17 1_555 1_555
N1 Ni1 1_555 1_555
N2 N1 1_555 1_555
N3 Ni1 1_555 1_555
N4 Ni1 1_555 1_555
C1 C2 1_555 1_555
C2 H1 1_555 1_555
C3 C2 1_555 1_555
H2 C3 1_555 1_555
C4 C3 1_555 1_555
H3 C4 1_555 1_555
C5 C4 1_555 1_555
H4 C5 1_555 1_555
C6 C1 1_555 1_555
C7 N1 1_555 1_555
C8 O1 1_555 1_555
C9 C8 1_555 1_555
H5 C9 1_555 1_555
C10 C9 1_555 1_555
H6 C10 1_555 1_555
H7 C10 1_555 1_555
C11 C10 1_555 1_555
H8 C11 1_555 1_555
H9 C11 1_555 1_555
C12 C11 1_555 1_555
C13 C9 1_555 1_555
C14 C13 1_555 1_555
H10 C14 1_555 1_555
H11 C14 1_555 1_555
H12 C14 1_555 1_555
C15 C13 1_555 1_555
H13 C15 1_555 1_555
H14 C15 1_555 1_555
H15 C15 1_555 1_555
C16 C12 1_555 1_555
H16 C16 1_555 1_555
H17 C16 1_555 1_555
H18 C16 1_555 1_555
C17 C12 1_555 1_555
C18 N3 1_555 1_555
H19 C18 1_555 1_555
C19 C18 1_555 1_555
H20 C19 1_555 1_555
C20 C19 1_555 1_555
H21 C20 1_555 1_555
C21 C20 1_555 1_555
H22 C21 1_555 1_555
C22 N3 1_555 1_555
H23 C22 1_555 1_555
C23 N4 1_555 1_555
H24 C23 1_555 1_555
C24 C23 1_555 1_555
H25 C24 1_555 1_555
C25 C24 1_555 1_555
H26 C25 1_555 1_555
C26 C25 1_555 1_555
H27 C26 1_555 1_555
C27 N4 1_555 1_555
H28 C27 1_555 1_555
C28 H29 1_555 1_555
H30 C28 1_555 1_555
H31 C28 1_555 1_555
C29 H32 1_555 1_555
H33 C29 1_555 1_555
H34 C29 1_555 1_555
N5 C28 1_555 1_555
C30 N5 1_555 1_555
H35 C30 1_555 1_555
O5 C30 1_555 1_555
Ni1C O3 1_555 1_555
O3C Ni1 1_555 1_555
O4C Ni1 1_555 1_555
O4 Ni1C 1_555 1_555
N2 C8 1_555 1_555
C5 C6 1_555 1_555
C6 C7 1_555 1_555
C12 C13 1_555 1_555
C21 C22 1_555 1_555
C26 C27 1_555 1_555
C29 N5 1_555 1_555

#END
