
#######################################################################
#
#                 Cambridge Crystallographic Data Centre
#                                CCDC 
#
#######################################################################
#
# If this CIF has been generated from an entry in the Cambridge 
# Structural Database, then it will include bibliographic, chemical, 
# crystal, experimental, refinement or atomic coordinate data resulting 
# from the CCDC's data processing and validation procedures.
#
#######################################################################

data_KIPHIC
_symmetry_cell_setting           triclinic
_symmetry_space_group_name_H-M   'P -1'
_symmetry_Int_Tables_number      2
_space_group_name_Hall           '-P 1'
loop_
_symmetry_equiv_pos_site_id
_symmetry_equiv_pos_as_xyz
1 x,y,z
2 -x,-y,-z
_cell_length_a                   10.0974(2)
_cell_length_b                   10.2305(2)
_cell_length_c                   11.0096(2)
_cell_angle_alpha                64.9650(10)
_cell_angle_beta                 78.8000(10)
_cell_angle_gamma                78.3230(10)
_cell_volume                     1001.55
loop_
_atom_site_label
_atom_site_type_symbol
_atom_site_fract_x
_atom_site_fract_y
_atom_site_fract_z
Mn1 Mn 0.34198(3) 0.28788(3) 0.36228(3)
O1 O 0.26371(14) 0.14978(14) 0.56523(14)
H1 H 0.292(2) 0.172(2) 0.617(2)
H2 H 0.269(3) 0.0619(11) 0.595(2)
O2 O 0.66278(13) 0.55963(14) 0.54753(13)
O3 O 0.66237(15) 0.69264(14) 0.32438(14)
O4 O 0.54496(13) 0.18628(14) 0.35956(14)
O5 O 0.77000(13) 0.12644(14) 0.35228(14)
N1 N 0.36853(16) 0.48881(17) 0.16458(15)
N2 N 0.12879(15) 0.37074(16) 0.28361(16)
N3 N 0.28728(15) 0.11364(17) 0.30918(15)
C1 C 0.4658(2) 0.5746(2) 0.1303(2)
H3 H 0.5402 0.5412 0.182
C2 C 0.4627(2) 0.7093(2) 0.0235(2)
H4 H 0.5334 0.767 0.0023
C3 C 0.3548(2) 0.7582(2) -0.0520(2)
H5 H 0.3501 0.8502 -0.1263
C4 C 0.2538(2) 0.6711(2) -0.01762(19)
H6 H 0.1784 0.7027 -0.0679
C5 C 0.26341(18) 0.5375(2) 0.09061(18)
C6 C 0.15778(19) 0.4355(2) 0.13506(19)
H7 H 0.0729 0.4897 0.0955
H8 H 0.1914 0.3572 0.1018
C7 C 0.05830(18) 0.2425(2) 0.3273(2)
H9 H -0.0191 0.2682 0.2747
H10 H 0.0214 0.2128 0.4239
C8 C 0.15406(19) 0.1163(2) 0.30772(18)
C9 C 0.1050(2) 0.0072(2) 0.2929(2)
H11 H 0.0103 0.0113 0.2924
C10 C 0.1965(2) -0.1076(2) 0.2789(2)
H12 H 0.1652 -0.183 0.2679
C11 C 0.3346(2) -0.1117(2) 0.2809(2)
H13 H 0.3993 -0.1894 0.2716
C12 C 0.37479(19) 0.0006(2) 0.29706(19)
H14 H 0.4688 -0.0022 0.2997
C13 C 0.04718(18) 0.4844(2) 0.32794(19)
H15 H -0.0387 0.5183 0.2863
H16 H 0.0984 0.5686 0.2935
C14 C 0.01238(18) 0.43534(19) 0.47962(19)
H17 H 0.0881 0.3642 0.525
H18 H -0.0703 0.3863 0.5096
C15 C 0.66528(18) 0.5759(2) 0.42764(19)
C16 C 0.67233(18) 0.4422(2) 0.40612(18)
C17 C 0.66252(18) 0.20613(19) 0.36493(18)
C18 C 0.67178(18) 0.3358(2) 0.38694(19)
N1A N -0.36853(16) 0.51119(17) 0.83542(15)
N2A N -0.12879(15) 0.62926(16) 0.71639(16)
N3A N -0.28728(15) 0.88636(17) 0.69082(15)
C1A C -0.4658(2) 0.4254(2) 0.8697(2)
H3A H -0.5402 0.4588 0.818
C2A C -0.4627(2) 0.2907(2) 0.9765(2)
H4A H -0.5334 0.233 0.9977
C3A C -0.3548(2) 0.2418(2) 1.0520(2)
H5A H -0.3501 0.1498 1.1263
C4A C -0.2538(2) 0.3289(2) 1.01762(19)
H6A H -0.1784 0.2973 1.0679
C5A C -0.26341(18) 0.4625(2) 0.90939(18)
C6A C -0.15778(19) 0.5645(2) 0.86494(19)
H7A H -0.0729 0.5103 0.9045
H8A H -0.1914 0.6428 0.8982
C7A C -0.05830(18) 0.7575(2) 0.6727(2)
H9A H 0.0191 0.7318 0.7253
H10A H -0.0214 0.7872 0.5761
C8A C -0.15406(19) 0.8837(2) 0.69228(18)
C9A C -0.1050(2) 0.9928(2) 0.7071(2)
H11A H -0.0103 0.9887 0.7076
C10A C -0.1965(2) 1.1076(2) 0.7211(2)
H12A H -0.1652 1.183 0.7321
C11A C -0.3346(2) 1.1117(2) 0.7191(2)
H13A H -0.3993 1.1894 0.7284
C12A C -0.37479(19) 0.9994(2) 0.70294(19)
H14A H -0.4688 1.0022 0.7003
C13A C -0.04718(18) 0.5156(2) 0.67206(19)
H15A H 0.0387 0.4817 0.7137
H16A H -0.0984 0.4314 0.7065
C14A C -0.01238(18) 0.56466(19) 0.52038(19)
H17A H -0.0881 0.6358 0.475
H18A H 0.0703 0.6137 0.4904
Mn1A Mn -0.34198(3) 0.71212(3) 0.63772(3)
O1A O -0.26371(14) 0.85022(14) 0.43477(14)
H1A H -0.292(2) 0.828(2) 0.383(2)
H2A H -0.269(3) 0.9381(11) 0.405(2)
O2A O -0.66278(13) 0.44037(14) 0.45247(13)
O3A O -0.66237(15) 0.30736(14) 0.67562(14)
O4A O -0.54496(13) 0.81372(14) 0.64044(14)
O5A O -0.77000(13) 0.87356(14) 0.64772(14)
C15A C -0.66528(18) 0.4241(2) 0.57236(19)
C16A C -0.67233(18) 0.5578(2) 0.59388(18)
C17A C -0.66252(18) 0.79387(19) 0.63507(18)
C18A C -0.67178(18) 0.6642(2) 0.61306(19)
Mn1_2 Mn -0.65802(3) 0.28788(3) 0.36228(3)
Mn1A_2 Mn 0.65802(3) 0.71212(3) 0.63772(3)
O2_2 O -0.33722(13) 0.55963(14) 0.54753(13)
O2A_2 O 0.33722(13) 0.44037(14) 0.45247(13)
O6 O 0.1893(2) 0.2603(2) 0.92671(18)
H19 H 0.2493 0.2812 0.8594
C19 C 0.1215(3) 0.1503(3) 0.9309(3)
H20 H 0.1845 0.0593 0.9509
H21 H 0.0898 0.1795 0.8433
H22 H 0.0434 0.1357 1.0014
loop_
_geom_bond_atom_site_label_1
_geom_bond_atom_site_label_2
_geom_bond_site_symmetry_1
_geom_bond_site_symmetry_2
Mn1 O1 1_555 1_555
O1 H1 1_555 1_555
H2 O1 1_555 1_555
O2 C15 1_555 1_555
O3 C15 1_555 1_555
O4 Mn1 1_555 1_555
O5 C17 1_555 1_555
N1 Mn1 1_555 1_555
N2 Mn1 1_555 1_555
N3 Mn1 1_555 1_555
C1 N1 1_555 1_555
H3 C1 1_555 1_555
C2 C1 1_555 1_555
H4 C2 1_555 1_555
C3 C2 1_555 1_555
H5 C3 1_555 1_555
C4 C3 1_555 1_555
H6 C4 1_555 1_555
C5 N1 1_555 1_555
C6 N2 1_555 1_555
H7 C6 1_555 1_555
H8 C6 1_555 1_555
C7 N2 1_555 1_555
H9 C7 1_555 1_555
H10 C7 1_555 1_555
C8 N3 1_555 1_555
C9 C8 1_555 1_555
H11 C9 1_555 1_555
C10 C9 1_555 1_555
H12 C10 1_555 1_555
C11 C10 1_555 1_555
H13 C11 1_555 1_555
C12 N3 1_555 1_555
H14 C12 1_555 1_555
C13 N2 1_555 1_555
H15 C13 1_555 1_555
H16 C13 1_555 1_555
C14 C13 1_555 1_555
H17 C14 1_555 1_555
H18 C14 1_555 1_555
C15 C16 1_555 1_555
C16 C18 1_555 1_555
C17 O4 1_555 1_555
C18 C17 1_555 1_555
O6 H19 1_555 1_555
C19 O6 1_555 1_555
H20 C19 1_555 1_555
H21 C19 1_555 1_555
H22 C19 1_555 1_555
N1A C1A 1_555 1_555
N2A C6A 1_555 1_555
N3A C8A 1_555 1_555
C1A H3A 1_555 1_555
C2A C1A 1_555 1_555
H4A C2A 1_555 1_555
C3A C2A 1_555 1_555
H5A C3A 1_555 1_555
C4A C3A 1_555 1_555
H6A C4A 1_555 1_555
C5A N1A 1_555 1_555
C6A C5A 1_555 1_555
H7A C6A 1_555 1_555
H8A C6A 1_555 1_555
C7A N2A 1_555 1_555
H9A C7A 1_555 1_555
H10A C7A 1_555 1_555
C8A C7A 1_555 1_555
C9A C8A 1_555 1_555
H11A C9A 1_555 1_555
C10A C9A 1_555 1_555
H12A C10A 1_555 1_555
C11A C10A 1_555 1_555
H13A C11A 1_555 1_555
C12A N3A 1_555 1_555
H14A C12A 1_555 1_555
C13A N2A 1_555 1_555
H15A C13A 1_555 1_555
H16A C13A 1_555 1_555
C14A C14 1_555 1_555
H17A C14A 1_555 1_555
H18A C14A 1_555 1_555
Mn1A N1A 1_555 1_555
O1A Mn1A 1_555 1_555
H1A O1A 1_555 1_555
H2A O1A 1_555 1_555
O2A C15A 1_555 1_555
O3A C15A 1_555 1_555
O4A Mn1A 1_555 1_555
O5A C17A 1_555 1_555
C15A C16A 1_555 1_555
C16A C18A 1_555 1_555
C17A O4A 1_555 1_555
C18A C17A 1_555 1_555
Mn1_2 O2A 1_555 1_555
Mn1A_2 O2 1_555 1_555
O2_2 Mn1A 1_555 1_555
O2A_2 Mn1 1_555 1_555
C4 C5 1_555 1_555
C5 C6 1_555 1_555
C7 C8 1_555 1_555
C11 C12 1_555 1_555
N2A Mn1A 1_555 1_555
N3A Mn1A 1_555 1_555
C4A C5A 1_555 1_555
C11A C12A 1_555 1_555
C13A C14A 1_555 1_555

#END
