
#######################################################################
#
#                 Cambridge Crystallographic Data Centre
#                                CCDC 
#
#######################################################################
#
# If this CIF has been generated from an entry in the Cambridge 
# Structural Database, then it will include bibliographic, chemical, 
# crystal, experimental, refinement or atomic coordinate data resulting 
# from the CCDC's data processing and validation procedures.
#
#######################################################################

data_KIPKIF
_symmetry_cell_setting           tetragonal
_symmetry_space_group_name_H-M   'I 41/a'
_symmetry_Int_Tables_number      88
_space_group_name_Hall           '-I 4ad'
loop_
_symmetry_equiv_pos_site_id
_symmetry_equiv_pos_as_xyz
1 x,y,z
2 1/2-x,-y,1/2+z
3 3/4-y,1/4+x,1/4+z
4 3/4+y,3/4-x,3/4+z
5 1/2+x,1/2+y,1/2+z
6 -x,1/2-y,z
7 1/4-y,3/4+x,3/4+z
8 1/4+y,1/4-x,1/4+z
9 -x,-y,-z
10 1/2+x,y,1/2-z
11 1/4+y,3/4-x,3/4-z
12 1/4-y,1/4+x,1/4-z
13 1/2-x,1/2-y,1/2-z
14 x,1/2+y,-z
15 3/4+y,1/4-x,1/4-z
16 3/4-y,3/4+x,3/4-z
_cell_length_a                   43.719(6)
_cell_length_b                   43.719(6)
_cell_length_c                   8.5159(17)
_cell_angle_alpha                90
_cell_angle_beta                 90
_cell_angle_gamma                90
_cell_volume                     16276.9
loop_
_atom_site_label
_atom_site_type_symbol
_atom_site_fract_x
_atom_site_fract_y
_atom_site_fract_z
Zn1 Zn 0.345943(11) 0.197710(11) 0.43989(7)
Zn2 Zn 0.380932(11) 0.175517(11) 0.75533(7)
C1 C 0.35985(14) 0.27606(11) 0.4171(7)
H1 H 0.3463 0.2630 0.3589
H2 H 0.3740 0.2857 0.3464
H3 H 0.3482 0.2915 0.4708
C2 C 0.37716(11) 0.25732(9) 0.5347(6)
C3 C 0.39884(10) 0.26642(10) 0.6424(6)
C4 C 0.40716(11) 0.24032(10) 0.7261(6)
C5 C 0.42994(13) 0.23726(12) 0.8546(8)
H4 H 0.4306 0.2164 0.8896
H5 H 0.4242 0.2503 0.9406
H6 H 0.4498 0.2431 0.8167
C6 C 0.38206(15) 0.30388(13) 0.9482(7)
H7 H 0.3812 0.3196 1.0268
H8 H 0.3903 0.2855 0.9935
H9 H 0.3618 0.2999 0.9093
C7 C 0.40195(11) 0.31411(10) 0.8167(6)
C8 C 0.40909(11) 0.29797(10) 0.6798(6)
C9 C 0.42725(12) 0.31744(10) 0.5920(6)
C10 C 0.44270(15) 0.31309(12) 0.4373(7)
H10 H 0.4535 0.3314 0.4096
H11 H 0.4277 0.3087 0.3584
H12 H 0.4569 0.2964 0.4444
C11 C 0.31589(10) 0.17221(12) 0.7313(7)
C12 C 0.28518(10) 0.16502(12) 0.7988(7)
C13 C 0.28255(12) 0.15391(14) 0.9486(8)
H13 H 0.3001 0.1503 1.0075
C14 C 0.25405(12) 0.14802(14) 1.0135(7)
H14 H 0.2526 0.1404 1.1153
C15 C 0.22742(11) 0.15350(14) 0.9255(7)
C16 C 0.23061(12) 0.16484(14) 0.7754(8)
H15 H 0.2132 0.1688 0.7160
C17 C 0.25906(11) 0.17051(13) 0.7110(7)
H16 H 0.2607 0.1780 0.6091
C18 C 0.10953(10) 0.12918(10) 1.2056(7)
C19 C 0.13974(11) 0.13573(11) 1.1310(7)
C20 C 0.14475(12) 0.13066(13) 0.9734(7)
H17 H 0.1290 0.1231 0.9113
C21 C 0.17282(12) 0.13665(15) 0.9068(8)
H18 H 0.1757 0.1332 0.8001
C22 C 0.19696(12) 0.14781(14) 0.9959(8)
C23 C 0.19188(12) 0.15304(14) 1.1542(8)
H19 H 0.2077 0.1605 1.2165
C24 C 0.16331(11) 0.14732(13) 1.2215(7)
H20 H 0.1601 0.1513 1.3275
C25 C 0.33075(12) 0.22098(11) 0.1476(7)
C26 C 0.30741(11) 0.23218(12) 0.0316(7)
C27 C 0.27684(13) 0.23221(17) 0.0709(8)
H21 H 0.2710 0.2270 0.1725
C28 C 0.25454(13) 0.23982(18) -0.0385(8)
H22 H 0.2341 0.2400 -0.0078
C29 C 0.26186(11) 0.24702(13) -0.1899(6)
C30 C 0.29289(11) 0.24777(12) -0.2282(7)
H23 H 0.2987 0.2533 -0.3293
C31 C 0.31517(11) 0.24050(12) -0.1185(7)
H24 H 0.3357 0.2413 -0.1472
N1 N 0.37239(8) 0.22704(8) 0.5498(5)
N2 N 0.39090(8) 0.21652(8) 0.6700(5)
N3 N 0.41507(9) 0.34185(8) 0.8138(5)
N4 N 0.43023(9) 0.34325(8) 0.6743(5)
O1 O 0.31650(7) 0.18102(9) 0.5903(5)
O2 O 0.33897(7) 0.16924(8) 0.8191(5)
O3 O 0.10634(7) 0.13702(8) 1.3456(5)
O4 O 0.08934(7) 0.11702(8) 1.1210(4)
O5 O 0.31998(8) 0.21331(8) 0.2809(5)
O6 O 0.35816(8) 0.21978(8) 0.1105(5)
H25 H 0.4429(13) 0.3599(13) 0.651(7)
C25L C 0.16925(12) 0.27902(11) -0.6476(7)
C26L C 0.19259(11) 0.26782(12) -0.5316(7)
C27L C 0.22316(13) 0.26779(17) -0.5709(8)
H21L H 0.2290 0.2730 -0.6725
C28L C 0.24546(13) 0.26018(18) -0.4615(8)
H22L H 0.2659 0.2600 -0.4922
C29L C 0.23814(11) 0.25298(13) -0.3101(6)
C30L C 0.20711(11) 0.25223(12) -0.2718(7)
H23L H 0.2013 0.2467 -0.1707
C31L C 0.18483(11) 0.25950(12) -0.3815(7)
H24L H 0.1643 0.2587 -0.3528
O5L O 0.18002(8) 0.28669(8) -0.7809(5)
O6L O 0.14184(8) 0.28022(8) -0.6105(5)
Zn1J Zn 0.447710(11) 0.404057(11) 1.31011(7)
Zn2J Zn 0.425517(11) 0.369068(11) 0.99467(7)
C1J C 0.52606(11) 0.39015(14) 1.3329(7)
H1J H 0.5130 0.4037 1.3911
H2J H 0.5357 0.3760 1.4036
H3J H 0.5415 0.4018 1.2792
C2J C 0.50732(9) 0.37284(11) 1.2153(6)
C3J C 0.51642(10) 0.35116(10) 1.1076(6)
C4J C 0.49032(10) 0.34284(11) 1.0239(6)
C5J C 0.48726(12) 0.32006(13) 0.8954(8)
H4J H 0.4664 0.3194 0.8604
H5J H 0.5003 0.3258 0.8094
H6J H 0.4931 0.3002 0.9333
C6J C 0.55388(13) 0.36794(15) 0.8018(7)
H7J H 0.5696 0.3688 0.7232
H8J H 0.5355 0.3597 0.7565
H9J H 0.5499 0.3882 0.8407
C7J C 0.56411(10) 0.34805(11) 0.9333(6)
C8J C 0.54797(10) 0.34091(11) 1.0702(6)
C9J C 0.56744(10) 0.32275(12) 1.1580(6)
C10J C 0.56309(12) 0.30730(15) 1.3127(7)
H10J H 0.5814 0.2965 1.3404
H11J H 0.5587 0.3223 1.3916
H12J H 0.5464 0.2931 1.3056
C11J C 0.42221(12) 0.43411(10) 1.0187(7)
C12J C 0.41502(12) 0.46482(10) 0.9512(7)
C13J C 0.40391(14) 0.46745(12) 0.8014(8)
H13J H 0.4003 0.4499 0.7425
C14J C 0.39802(14) 0.49595(12) 0.7365(7)
H14J H 0.3904 0.4974 0.6347
C15J C 0.40350(14) 0.52258(11) 0.8245(7)
C16J C 0.41484(14) 0.51939(12) 0.9746(8)
H15J H 0.4188 0.5368 1.0340
C17J C 0.42051(13) 0.49094(11) 1.0390(7)
H16J H 0.4280 0.4893 1.1409
C18J C 0.37918(10) 0.64047(10) 0.5444(7)
C19J C 0.38573(11) 0.61026(11) 0.6190(7)
C20J C 0.38066(13) 0.60525(12) 0.7766(7)
H17J H 0.3731 0.6210 0.8387
C21J C 0.38665(15) 0.57718(12) 0.8432(8)
H18J H 0.3832 0.5743 0.9499
C22J C 0.39781(14) 0.55304(12) 0.7541(8)
C23J C 0.40304(14) 0.55812(12) 0.5958(8)
H19J H 0.4105 0.5423 0.5335
C24J C 0.39732(13) 0.58669(11) 0.5285(7)
H20J H 0.4013 0.5899 0.4225
N1J N 0.47704(8) 0.37761(8) 1.2002(5)
N2J N 0.46652(8) 0.35910(8) 1.0800(5)
N3J N 0.59185(8) 0.33493(9) 0.9362(5)
N4J N 0.59325(8) 0.31977(9) 1.0757(5)
O1J O 0.43102(9) 0.43350(7) 1.1597(5)
O2J O 0.41924(8) 0.41103(7) 0.9309(5)
O3J O 0.38702(8) 0.64366(7) 0.4044(5)
O4J O 0.36702(8) 0.66066(7) 0.6290(4)
H25J H 0.6099(13) 0.3071(13) 1.099(7)
Zn1F Zn 0.052290(11) 0.095943(11) 1.18989(7)
Zn1L Zn 0.154057(11) 0.302290(11) -0.93989(7)
Zn1M Zn 0.345943(11) 0.697710(11) 0.56011(7)
Zn2E Zn 0.619068(11) 0.324483(11) 0.75533(7)
Zn2F Zn 0.074483(11) 0.130932(11) 1.50533(7)
Zn2M Zn 0.380932(11) 0.675517(11) 0.24467(7)
N3O N 0.40815(8) 0.16507(9) 0.9362(5)
O3G O 0.38702(8) 0.14366(7) 0.5956(5)
O3L O 0.39366(7) 0.36298(8) 1.1544(5)
O4G O 0.36702(8) 0.16066(7) 0.3710(4)
O4L O 0.41066(7) 0.38298(8) 1.3790(4)
O5J O 0.46331(8) 0.43002(8) 1.4691(5)
loop_
_geom_bond_atom_site_label_1
_geom_bond_atom_site_label_2
_geom_bond_site_symmetry_1
_geom_bond_site_symmetry_2
Zn1 N1 1_555 1_555
Zn2 N2 1_555 1_555
C1 H1 1_555 1_555
H2 C1 1_555 1_555
H3 C1 1_555 1_555
C2 C1 1_555 1_555
C3 C2 1_555 1_555
C4 C3 1_555 1_555
C5 C4 1_555 1_555
H4 C5 1_555 1_555
H5 C5 1_555 1_555
H6 C5 1_555 1_555
C6 H7 1_555 1_555
H8 C6 1_555 1_555
H9 C6 1_555 1_555
C7 C6 1_555 1_555
C8 C3 1_555 1_555
C9 C8 1_555 1_555
C10 C9 1_555 1_555
H10 C10 1_555 1_555
H11 C10 1_555 1_555
H12 C10 1_555 1_555
C11 C12 1_555 1_555
C12 C13 1_555 1_555
C13 H13 1_555 1_555
C14 C13 1_555 1_555
H14 C14 1_555 1_555
C15 C14 1_555 1_555
C16 C15 1_555 1_555
H15 C16 1_555 1_555
C17 C12 1_555 1_555
H16 C17 1_555 1_555
C18 C19 1_555 1_555
C19 C20 1_555 1_555
C20 H17 1_555 1_555
C21 C20 1_555 1_555
H18 C21 1_555 1_555
C22 C15 1_555 1_555
C23 C22 1_555 1_555
H19 C23 1_555 1_555
C24 C19 1_555 1_555
H20 C24 1_555 1_555
C25 C26 1_555 1_555
C26 C27 1_555 1_555
C27 H21 1_555 1_555
C28 C27 1_555 1_555
H22 C28 1_555 1_555
C29 C28 1_555 1_555
C30 C29 1_555 1_555
H23 C30 1_555 1_555
C31 C26 1_555 1_555
H24 C31 1_555 1_555
N1 C2 1_555 1_555
N2 C4 1_555 1_555
N3 C7 1_555 1_555
N4 C9 1_555 1_555
O1 Zn1 1_555 1_555
O2 Zn2 1_555 1_555
O3 C18 1_555 1_555
O4 C18 1_555 1_555
O5 Zn1 1_555 1_555
O6 C25 1_555 1_555
H25 N4 1_555 1_555
C25L C26L 1_555 1_555
C26L C27L 1_555 1_555
C27L H21L 1_555 1_555
C28L C27L 1_555 1_555
H22L C28L 1_555 1_555
C29L C29 1_555 1_555
C30L C29L 1_555 1_555
H23L C30L 1_555 1_555
C31L C26L 1_555 1_555
H24L C31L 1_555 1_555
O5L C25L 1_555 1_555
O6L C25L 1_555 1_555
Zn1J N1J 1_555 1_555
Zn2J N3 1_555 1_555
C1J H1J 1_555 1_555
H2J C1J 1_555 1_555
H3J C1J 1_555 1_555
C2J C1J 1_555 1_555
C3J C2J 1_555 1_555
C4J C3J 1_555 1_555
C5J C4J 1_555 1_555
H4J C5J 1_555 1_555
H5J C5J 1_555 1_555
H6J C5J 1_555 1_555
C6J H7J 1_555 1_555
H8J C6J 1_555 1_555
H9J C6J 1_555 1_555
C7J C6J 1_555 1_555
C8J C3J 1_555 1_555
C9J C8J 1_555 1_555
C10J C9J 1_555 1_555
H10J C10J 1_555 1_555
H11J C10J 1_555 1_555
H12J C10J 1_555 1_555
C11J C12J 1_555 1_555
C12J C13J 1_555 1_555
C13J H13J 1_555 1_555
C14J C13J 1_555 1_555
H14J C14J 1_555 1_555
C15J C14J 1_555 1_555
C16J C15J 1_555 1_555
H15J C16J 1_555 1_555
C17J C12J 1_555 1_555
H16J C17J 1_555 1_555
C18J C19J 1_555 1_555
C19J C20J 1_555 1_555
C20J H17J 1_555 1_555
C21J C20J 1_555 1_555
H18J C21J 1_555 1_555
C22J C15J 1_555 1_555
C23J C22J 1_555 1_555
H19J C23J 1_555 1_555
C24J C19J 1_555 1_555
H20J C24J 1_555 1_555
N1J C2J 1_555 1_555
N2J Zn2J 1_555 1_555
N3J C7J 1_555 1_555
N4J C9J 1_555 1_555
O1J Zn1J 1_555 1_555
O2J Zn2J 1_555 1_555
O3J C18J 1_555 1_555
O4J C18J 1_555 1_555
H25J N4J 1_555 1_555
Zn1F O4 1_555 1_555
Zn1L O5L 1_555 1_555
Zn1M O4J 1_555 1_555
Zn2E N3J 1_555 1_555
Zn2F O3 1_555 1_555
Zn2M O3J 1_555 1_555
N3O Zn2 1_555 1_555
O3G Zn2 1_555 1_555
O3L Zn2J 1_555 1_555
O4G Zn1 1_555 1_555
O4L Zn1J 1_555 1_555
O5J Zn1J 1_555 1_555
C7 C8 1_555 1_555
C11 O1 1_555 1_555
C11 O2 1_555 1_555
C16 C17 1_555 1_555
C21 C22 1_555 1_555
C23 C24 1_555 1_555
C25 O5 1_555 1_555
C30 C31 1_555 1_555
N1 N2 1_555 1_555
N3 N4 1_555 1_555
C28L C29L 1_555 1_555
C30L C31L 1_555 1_555
C4J N2J 1_555 1_555
C7J C8J 1_555 1_555
C11J O1J 1_555 1_555
C11J O2J 1_555 1_555
C16J C17J 1_555 1_555
C21J C22J 1_555 1_555
C23J C24J 1_555 1_555
N1J N2J 1_555 1_555
N3J N4J 1_555 1_555

#END
