
#######################################################################
#
#                 Cambridge Crystallographic Data Centre
#                                CCDC 
#
#######################################################################
#
# If this CIF has been generated from an entry in the Cambridge 
# Structural Database, then it will include bibliographic, chemical, 
# crystal, experimental, refinement or atomic coordinate data resulting 
# from the CCDC's data processing and validation procedures.
#
#######################################################################

data_KIPMAX
_symmetry_cell_setting           monoclinic
_symmetry_space_group_name_H-M   'P 21/n'
_symmetry_Int_Tables_number      14
_space_group_name_Hall           '-P 2yn'
loop_
_symmetry_equiv_pos_site_id
_symmetry_equiv_pos_as_xyz
1 x,y,z
2 1/2-x,1/2+y,1/2-z
3 -x,-y,-z
4 1/2+x,1/2-y,1/2+z
_cell_length_a                   8.890(3)
_cell_length_b                   25.573(5)
_cell_length_c                   12.208(9)
_cell_angle_alpha                90
_cell_angle_beta                 103.52(5)
_cell_angle_gamma                90
_cell_volume                     2698.5
loop_
_atom_site_label
_atom_site_type_symbol
_atom_site_fract_x
_atom_site_fract_y
_atom_site_fract_z
Mn1 Mn 0.2380(3) 0.3331(1) 0.2544(2)
O1 O 0.0153(11) 0.3693(4) 0.1915(7)
O2 O 0.1953(10) 0.3571(3) 0.4124(7)
O3 O 0.2815(10) 0.3330(3) 0.0889(6)
O4 O 0.3338(10) 0.4108(3) 0.2565(7)
O5 O 0.4452(10) 0.2976(3) 0.3485(6)
O6 O 0.1286(9) 0.2584(3) 0.2151(6)
N1 N 0.5219(11) 0.2962(4) 0.4518(8)
N2 N 0.1156(11) 0.2318(4) 0.1227(8)
C1 C -0.0345(16) 0.4074(6) 0.2323(12)
C2 C 0.1254(16) 0.3977(6) 0.4266(12)
C3 C 0.0115(16) 0.4240(6) 0.3443(12)
C4 C -0.171(3) 0.4364(12) 0.1622(20)
C5 C 0.166(3) 0.4225(9) 0.5403(15)
C6 C 0.2999(16) 0.3719(6) 0.0332(12)
C7 C 0.3413(15) 0.4392(5) 0.1774(12)
C8 C 0.3262(16) 0.4248(6) 0.0662(13)
C9 C 0.278(4) 0.3610(10) -0.0915(17)
C10 C 0.372(3) 0.4960(7) 0.2094(19)
C11 C 0.5008(14) 0.2625(4) 0.5267(10)
C12 C 0.6725(15) 0.3269(5) 0.4863(11)
C13 C 0.2173(14) 0.1859(5) 0.1121(10)
C14 C 0.3708(15) 0.2248(5) 0.5151(11)
C15 C 0.2595(19) 0.2398(7) 0.5840(14)
C16 C 0.6389(19) 0.3840(5) 0.4584(13)
C17 C 0.7810(18) 0.3043(7) 0.4206(14)
C18 C 0.3862(15) 0.2028(7) 0.1602(14)
C19 C 0.166(2) 0.1450(6) 0.1923(14)
F1 F -0.2778(19) 0.4079(7) 0.118(3)
F2 F -0.2192(25) 0.4750(7) 0.1963(15)
F3 F -0.128(2) 0.4512(10) 0.0704(20)
F4 F 0.0501(16) 0.4312(7) 0.5838(11)
F5 F 0.255(2) 0.3953(8) 0.6108(10)
F6 F 0.226(2) 0.4659(8) 0.5454(12)
F7 F 0.1753(16) 0.3278(6) -0.1322(8)
F8 F 0.405(2) 0.3310(9) -0.1010(13)
F9 F 0.284(3) 0.3993(5) -0.1524(9)
F10 F 0.2432(19) 0.5189(4) 0.2079(17)
F11 F 0.4217(17) 0.5235(4) 0.1322(11)
F12 F 0.4621(20) 0.5041(4) 0.2985(11)
H1 H -0.0143 0.4531 0.3914
H2 H 0.3290 0.4422 -0.0066
H3 H 0.3143 0.2224 0.4342
H4 H 0.4151 0.1898 0.5416
H5 H 0.1752 0.2131 0.5745
H6 H 0.2138 0.2746 0.5578
H7 H 0.3145 0.2420 0.6652
H8 H 0.7375 0.4043 0.4801
H9 H 0.5639 0.3974 0.5013
H10 H 0.5938 0.3881 0.3757
H11 H 0.8815 0.3236 0.4406
H12 H 0.7346 0.3080 0.3381
H13 H 0.7992 0.2665 0.4397
H14 H 0.4519 0.2316 0.1413
H15 H 0.4228 0.1935 0.2416
H16 H 0.3940 0.1715 0.1127
H17 H 0.0667 0.1284 0.1998
H18 H 0.2112 0.1241 0.1388
H19 H 0.2401 0.1460 0.2676
C11C C 0.0008(14) 0.2375(4) 0.0267(10)
N2C N 0.6156(11) 0.2682(4) 0.6227(8)
C13C C 0.7173(14) 0.3141(5) 0.6121(10)
C12C C 0.1725(15) 0.1731(5) -0.0137(11)
N1C N 0.0219(11) 0.2038(4) -0.0482(8)
C14C C -0.1292(15) 0.2752(5) 0.0151(11)
O6C O 0.6286(9) 0.2416(3) 0.7151(6)
C18C C 0.8862(15) 0.2972(7) 0.6602(14)
C19C C 0.666(2) 0.3550(6) 0.6923(14)
C16C C 0.1389(19) 0.1160(5) -0.0416(13)
C17C C 0.2810(18) 0.1957(7) -0.0794(14)
O5C O -0.0548(10) 0.2024(3) -0.1515(6)
C15C C -0.2405(19) 0.2602(7) 0.0840(14)
H3C H -0.1857 0.2776 -0.0658
H4C H -0.0849 0.3102 0.0416
Mn1C Mn 0.7380(3) 0.1669(1) 0.7544(2)
H14C H 0.9519 0.2684 0.6413
H15C H 0.9228 0.3065 0.7416
H16C H 0.8940 0.3285 0.6127
H17C H 0.5667 0.3716 0.6998
H18C H 0.7112 0.3759 0.6388
H19C H 0.7401 0.3540 0.7676
H8C H 0.2375 0.0957 -0.0199
H9C H 0.0639 0.1026 0.0013
H10C H 0.0938 0.1119 -0.1243
H11C H 0.3815 0.1764 -0.0594
H12C H 0.2346 0.1920 -0.1619
H13C H 0.2992 0.2335 -0.0603
Mn1C_2 Mn -0.2620(3) 0.1669(1) -0.2456(2)
H5C H -0.3248 0.2869 0.0745
H6C H -0.2862 0.2254 0.0578
H7C H -0.1855 0.2580 0.1652
O1C O 0.5153(11) 0.1307(4) 0.6915(7)
O2C O 0.6953(10) 0.1429(3) 0.9124(7)
O3C O 0.7815(10) 0.1670(3) 0.5889(6)
O4C O 0.8338(10) 0.0892(3) 0.7565(7)
O5C_2 O 0.9452(10) 0.2024(3) 0.8485(6)
C1C C 0.4655(16) 0.0926(6) 0.7323(12)
C2C C 0.6254(16) 0.1023(6) 0.9266(12)
C6C C 0.7999(16) 0.1281(6) 0.5332(12)
C7C C 0.8413(15) 0.0608(5) 0.6774(12)
C3C C 0.5115(16) 0.0760(6) 0.8443(12)
C4C C 0.329(3) 0.0636(12) 0.6622(20)
C5C C 0.666(3) 0.0775(9) 1.0403(15)
C8C C 0.8262(16) 0.0752(6) 0.5662(13)
C9C C 0.778(4) 0.1390(10) 0.4085(17)
C10C C 0.872(3) 0.0040(7) 0.7094(19)
H1C H 0.4857 0.0469 0.8914
F1C F 0.2222(19) 0.0921(7) 0.618(3)
F2C F 0.2808(25) 0.0250(7) 0.6963(15)
F3C F 0.372(2) 0.0488(10) 0.5704(20)
F4C F 0.5501(16) 0.0688(7) 1.0838(11)
F5C F 0.755(2) 0.1047(8) 1.1108(10)
F6C F 0.726(2) 0.0341(8) 1.0454(12)
H2C H 0.8290 0.0578 0.4934
F7C F 0.6753(16) 0.1722(6) 0.3678(8)
F8C F 0.905(2) 0.1690(9) 0.3990(13)
F9C F 0.784(3) 0.1007(5) 0.3476(9)
F10C F 0.7432(19) -0.0189(4) 0.7079(17)
F11C F 0.9217(17) -0.0235(4) 0.6322(11)
F12C F 0.9621(20) -0.0041(4) 0.7985(11)
loop_
_geom_bond_atom_site_label_1
_geom_bond_atom_site_label_2
_geom_bond_site_symmetry_1
_geom_bond_site_symmetry_2
Mn1 O1 1_555 1_555
O1 C1 1_555 1_555
O2 Mn1 1_555 1_555
O3 Mn1 1_555 1_555
O4 Mn1 1_555 1_555
O5 Mn1 1_555 1_555
O6 Mn1 1_555 1_555
N1 O5 1_555 1_555
N2 O6 1_555 1_555
C1 C3 1_555 1_555
C2 O2 1_555 1_555
C3 C2 1_555 1_555
C4 C1 1_555 1_555
C5 C2 1_555 1_555
C6 O3 1_555 1_555
C7 O4 1_555 1_555
C8 C6 1_555 1_555
C9 C6 1_555 1_555
C10 C7 1_555 1_555
C11 N1 1_555 1_555
C12 N1 1_555 1_555
C13 N2 1_555 1_555
C14 C11 1_555 1_555
C15 C14 1_555 1_555
C16 C12 1_555 1_555
C17 C12 1_555 1_555
C18 C13 1_555 1_555
C19 C13 1_555 1_555
F1 C4 1_555 1_555
F2 C4 1_555 1_555
F3 C4 1_555 1_555
F4 C5 1_555 1_555
F5 C5 1_555 1_555
F6 C5 1_555 1_555
F7 C9 1_555 1_555
F8 C9 1_555 1_555
F9 C9 1_555 1_555
F10 C10 1_555 1_555
F11 C10 1_555 1_555
F12 C10 1_555 1_555
H1 C3 1_555 1_555
H2 C8 1_555 1_555
H3 C14 1_555 1_555
H4 C14 1_555 1_555
H5 C15 1_555 1_555
H6 C15 1_555 1_555
H7 C15 1_555 1_555
H8 C16 1_555 1_555
H9 C16 1_555 1_555
H10 C16 1_555 1_555
H11 C17 1_555 1_555
H12 C17 1_555 1_555
H13 C17 1_555 1_555
H14 C18 1_555 1_555
H15 C18 1_555 1_555
H16 C18 1_555 1_555
H17 C19 1_555 1_555
H18 C19 1_555 1_555
H19 C19 1_555 1_555
C11C N2 1_555 1_555
N2C C11 1_555 1_555
C13C C12 1_555 1_555
C12C C13 1_555 1_555
N1C C11C 1_555 1_555
C14C C11C 1_555 1_555
O6C N2C 1_555 1_555
C18C C13C 1_555 1_555
C19C C13C 1_555 1_555
C16C C12C 1_555 1_555
C17C C12C 1_555 1_555
O5C N1C 1_555 1_555
C15C C14C 1_555 1_555
H3C C14C 1_555 1_555
H4C C14C 1_555 1_555
Mn1C O6C 1_555 1_555
H14C C18C 1_555 1_555
H15C C18C 1_555 1_555
H16C C18C 1_555 1_555
H17C C19C 1_555 1_555
H18C C19C 1_555 1_555
H19C C19C 1_555 1_555
H8C C16C 1_555 1_555
H9C C16C 1_555 1_555
H10C C16C 1_555 1_555
H11C C17C 1_555 1_555
H12C C17C 1_555 1_555
H13C C17C 1_555 1_555
Mn1C_2 O5C 1_555 1_555
H5C C15C 1_555 1_555
H6C C15C 1_555 1_555
H7C C15C 1_555 1_555
O1C Mn1C 1_555 1_555
O2C Mn1C 1_555 1_555
O3C Mn1C 1_555 1_555
O4C Mn1C 1_555 1_555
O5C_2 Mn1C 1_555 1_555
C1C O1C 1_555 1_555
C2C O2C 1_555 1_555
C6C O3C 1_555 1_555
C7C O4C 1_555 1_555
C3C C1C 1_555 1_555
C4C C1C 1_555 1_555
C5C C2C 1_555 1_555
C8C C6C 1_555 1_555
C9C C6C 1_555 1_555
C10C C7C 1_555 1_555
H1C C3C 1_555 1_555
F1C C4C 1_555 1_555
F2C C4C 1_555 1_555
F3C C4C 1_555 1_555
F4C C5C 1_555 1_555
F5C C5C 1_555 1_555
F6C C5C 1_555 1_555
H2C C8C 1_555 1_555
F7C C9C 1_555 1_555
F8C C9C 1_555 1_555
F9C C9C 1_555 1_555
F10C C10C 1_555 1_555
F11C C10C 1_555 1_555
F12C C10C 1_555 1_555
C7 C8 1_555 1_555
N2C C13C 1_555 1_555
C12C N1C 1_555 1_555
C2C C3C 1_555 1_555
C7C C8C 1_555 1_555

#END
