
#######################################################################
#
#                 Cambridge Crystallographic Data Centre
#                                CCDC 
#
#######################################################################
#
# If this CIF has been generated from an entry in the Cambridge 
# Structural Database, then it will include bibliographic, chemical, 
# crystal, experimental, refinement or atomic coordinate data resulting 
# from the CCDC's data processing and validation procedures.
#
#######################################################################

data_KIPPIK
_symmetry_cell_setting           triclinic
_symmetry_space_group_name_H-M   'P -1'
_symmetry_Int_Tables_number      2
_space_group_name_Hall           '-P 1'
loop_
_symmetry_equiv_pos_site_id
_symmetry_equiv_pos_as_xyz
1 x,y,z
2 -x,-y,-z
_cell_length_a                   11.2116(3)
_cell_length_b                   14.9466(3)
_cell_length_c                   21.4462(4)
_cell_angle_alpha                100.775(2)
_cell_angle_beta                 94.367(2)
_cell_angle_gamma                109.150(2)
_cell_volume                     3298.33
loop_
_atom_site_label
_atom_site_type_symbol
_atom_site_fract_x
_atom_site_fract_y
_atom_site_fract_z
Ag1 Ag 0.70210(3) 0.835072(17) 0.627720(12)
Ag2 Ag 0.84194(3) 1.001222(18) 0.887806(12)
Ag3 Ag 0.71790(3) 0.693103(18) 0.371814(11)
Ag4 Ag 0.47443(3) 0.55426(3) 0.123151(14)
N1 N 0.6087(3) 0.69058(18) 0.65567(12)
H1 H 0.6771 0.6992 0.6847
N2 N 0.6433(3) 0.9111(2) 0.82452(13)
N3 N 0.7466(3) 0.63180(19) 0.46005(12)
N4 N 0.8321(3) 0.85017(19) 0.36905(13)
H2 H 0.7952 0.8901 0.3909
N5 N 0.8692(3) 0.85299(19) 0.56807(13)
N6 N 0.5449(3) 0.7097(2) 0.18713(16)
N7 N 0.9912(3) 1.11828(19) 0.85266(13)
H3 H 1.0262 1.0825 0.8236
N8 N 0.7399(3) 0.99250(19) 0.67469(13)
N9 N 1.1955(3) 1.0441(2) 1.01831(13)
N10 N 0.2992(3) 0.4371(2) 0.13243(13)
H4 H 0.2405 0.4666 0.1359
N11 N 0.5095(3) 0.62021(19) 0.32357(13)
N12 N 0.3553(3) 0.4339(2) -0.07230(14)
C1 C 0.4990(3) 0.6861(2) 0.68991(16)
H5 H 0.4848 0.6343 0.7129
H6 H 0.4235 0.6700 0.6588
C2 C 0.5759(4) 0.6026(2) 0.60326(15)
H7 H 0.4969 0.5941 0.5771
H8 H 0.5622 0.5462 0.6217
C3 C 0.6240(4) 0.8273(2) 0.78272(16)
H9 H 0.6865 0.7991 0.7844
C4 C 0.5162(3) 0.7803(2) 0.73715(15)
C5 C 0.4232(4) 0.8208(3) 0.73597(18)
H10 H 0.3494 0.7912 0.7061
C6 C 0.4403(4) 0.9063(3) 0.7799(2)
H11 H 0.3775 0.9344 0.7802
C7 C 0.5513(4) 0.9490(3) 0.82286(17)
H12 H 0.5626 1.0067 0.8520
C8 C 0.6593(3) 0.6235(2) 0.50005(15)
H13 H 0.5815 0.6280 0.4858
C9 C 0.6782(3) 0.6086(2) 0.56165(15)
C10 C 0.7950(4) 0.6021(2) 0.58190(16)
H14 H 0.8116 0.5918 0.6226
C11 C 0.8860(4) 0.6110(2) 0.54195(17)
H15 H 0.9650 0.6075 0.5552
C12 C 0.8576(3) 0.6252(2) 0.48144(16)
H16 H 0.9191 0.6304 0.4543
C13 C 0.9619(3) 0.8844(2) 0.40478(16)
H17 H 1.0036 0.9522 0.4041
H18 H 1.0099 0.8480 0.3828
C14 C 0.8402(3) 0.8657(3) 0.30301(16)
H19 H 0.8897 0.8298 0.2821
H20 H 0.8842 0.9342 0.3051
C15 C 0.8636(3) 0.8628(2) 0.50719(15)
H21 H 0.7871 0.8614 0.4863
C16 C 0.9675(3) 0.8748(2) 0.47377(15)
C17 C 1.0820(4) 0.8805(2) 0.50632(17)
H22 H 1.1541 0.8898 0.4860
C18 C 1.0876(4) 0.8723(3) 0.56961(17)
H23 H 1.1640 0.8770 0.5925
C19 C 0.9799(4) 0.8572(2) 0.59816(16)
H24 H 0.9842 0.8497 0.6403
C20 C 0.6613(4) 0.7446(3) 0.22194(17)
H25 H 0.7120 0.7062 0.2173
C21 C 0.7105(4) 0.8335(3) 0.26405(16)
C22 C 0.6352(4) 0.8906(3) 0.2700(2)
H26 H 0.6653 0.9519 0.2974
C23 C 0.5146(5) 0.8556(3) 0.2348(3)
H27 H 0.4622 0.8928 0.2383
C24 C 0.4735(4) 0.7649(3) 0.1944(2)
H28 H 0.3918 0.7414 0.1711
C25 C 0.9434(4) 1.1821(2) 0.82125(16)
H29 H 1.0161 1.2331 0.8130
H30 H 0.8999 1.2130 0.8509
C26 C 1.0929(4) 1.1806(2) 0.90648(16)
H31 H 1.0547 1.2102 0.9397
H32 H 1.1522 1.2324 0.8912
C27 C 0.8190(3) 1.0356(2) 0.73026(15)
H33 H 0.8525 0.9975 0.7507
C28 C 0.8535(3) 1.1329(2) 0.75895(15)
C29 C 0.8059(4) 1.1891(2) 0.72734(18)
H34 H 0.8275 1.2552 0.7448
C30 C 0.7262(4) 1.1468(3) 0.6698(2)
H35 H 0.6936 1.1839 0.6479
C31 C 0.6952(4) 1.0482(3) 0.64490(18)
H36 H 0.6413 1.0199 0.6060
C32 C 1.1329(3) 1.0924(2) 0.99019(15)
H37 H 1.0651 1.1041 1.0083
C33 C 1.1653(4) 1.1257(2) 0.93499(15)
C34 C 1.2665(4) 1.1085(3) 0.90932(18)
H38 H 1.2915 1.1310 0.8731
C35 C 1.3306(5) 1.0586(4) 0.9367(2)
H39 H 1.3979 1.0455 0.9190
C36 C 1.2923(4) 1.0277(3) 0.99217(18)
H40 H 1.3362 0.9944 1.0114
C37 C 0.3125(4) 0.4041(3) 0.19278(16)
H41 H 0.3792 0.3759 0.1928
H42 H 0.2331 0.3547 0.1961
C38 C 0.2504(4) 0.3530(3) 0.07621(17)
H43 H 0.1649 0.3123 0.0798
H44 H 0.3049 0.3141 0.0752
C39 C 0.4725(4) 0.5417(2) 0.27497(15)
H45 H 0.5352 0.5211 0.2577
C40 C 0.3456(4) 0.4892(2) 0.24881(15)
C41 C 0.2532(4) 0.5218(3) 0.27444(16)
H46 H 0.1674 0.4889 0.2581
C42 C 0.2887(4) 0.6025(3) 0.32372(17)
H47 H 0.2275 0.6250 0.3411
C43 C 0.4176(4) 0.6502(3) 0.34733(16)
H48 H 0.4414 0.7050 0.3808
C44 C 0.3484(4) 0.3987(2) -0.01896(16)
H49 H 0.4148 0.3798 -0.0047
C45 C 0.2484(4) 0.3892(3) 0.01576(17)
C46 C 0.1504(4) 0.4187(3) -0.00509(19)
H50 H 0.0815 0.4139 0.0173
C47 C 0.1568(5) 0.4553(3) -0.0596(2)
H51 H 0.0922 0.4757 -0.0744
C48 C 0.2589(4) 0.4614(3) -0.09187(19)
H52 H 0.2615 0.4856 -0.1289
S1 S 0.41087(9) 0.81150(6) 0.52498(4)
F1 F 0.1730(3) 0.69809(19) 0.48280(15)
F2 F 0.3047(3) 0.62413(17) 0.48067(15)
F3 F 0.2505(3) 0.6755(2) 0.56828(13)
O1 O 0.5185(3) 0.7845(2) 0.5376(2)
O2 O 0.3840(3) 0.8749(2) 0.57590(15)
O3 O 0.3994(3) 0.8357(2) 0.46333(14)
C49 C 0.2771(4) 0.6965(3) 0.51342(18)
S2 S 0.90295(10) 0.58748(6) 0.28281(4)
F4 F 0.9680(3) 0.4502(2) 0.31839(16)
F5 F 0.7923(3) 0.39979(17) 0.25388(14)
F6 F 0.7987(2) 0.46584(17) 0.35250(12)
O4 O 0.7811(3) 0.5953(3) 0.26893(16)
O5 O 0.9790(3) 0.65385(19) 0.34049(13)
O6 O 0.9708(3) 0.57952(19) 0.22930(12)
C50 C 0.8642(4) 0.4707(3) 0.3032(2)
S3 S 0.96949(10) 0.84747(7) 0.78703(4)
F7 F 1.1791(3) 0.8394(2) 0.84228(17)
F8 F 1.0284(3) 0.70112(18) 0.80985(16)
F9 F 1.1283(3) 0.7747(2) 0.73805(16)
O7 O 0.8768(3) 0.7804(2) 0.73452(12)
O8 O 1.0426(3) 0.93850(18) 0.77432(12)
O9 O 0.9244(3) 0.85344(19) 0.84941(13)
C51 C 1.0829(5) 0.7861(3) 0.7946(3)
Ag2A Ag 1.15806(3) 0.998778(18) 1.112194(12)
Ag4A Ag 0.52557(3) 0.44574(3) -0.123151(14)
N9A N 0.8045(3) 0.9559(2) 0.98169(13)
N12A N 0.6447(3) 0.5661(2) 0.07230(14)
S4 S 0.7790(2) 0.23339(14) -0.03133(9)
F10 F 0.6235(9) 0.1681(7) 0.0477(6)
F11 F 0.7461(9) 0.3144(10) 0.0811(6)
F12 F 0.5907(6) 0.2819(5) 0.0072(4)
O10 O 0.840(2) 0.332(2) -0.0479(12)
O11 O 0.7012(7) 0.1557(5) -0.0792(3)
O12 O 0.8780(7) 0.2090(6) 0.0016(4)
C52 C 0.6818(11) 0.2494(6) 0.0307(4)
O16 O 0.6425(3) 0.93773(19) 0.42639(14)
H53 H 0.5766 0.8999 0.4406
H54 H 0.6267 0.9984 0.4301
O17 O 0.8561(3) 0.4415(2) 0.85853(14)
H55 H 0.8508 0.4118 0.8868
H56 H 0.9038 0.4248 0.8324
S5? S 0.7135(3) 0.26424(18) -0.04314(11)
F13? F 0.8563(10) 0.2151(6) 0.0382(4)
F14? F 0.8092(13) 0.3362(12) 0.0799(8)
F15? F 0.6715(15) 0.1954(11) 0.0596(8)
O13? O 0.6193(8) 0.3079(6) -0.0372(4)
O14? O 0.6614(8) 0.1671(6) -0.0804(4)
O15? O 0.811(3) 0.318(3) -0.0585(16)
C53? C 0.7706(17) 0.2518(9) 0.0378(5)
loop_
_geom_bond_atom_site_label_1
_geom_bond_atom_site_label_2
_geom_bond_site_symmetry_1
_geom_bond_site_symmetry_2
Ag1 N1 1_555 1_555
Ag2 N2 1_555 1_555
Ag3 N3 1_555 1_555
Ag4 N6 1_555 1_555
N1 H1 1_555 1_555
N2 C3 1_555 1_555
N3 C8 1_555 1_555
N4 Ag3 1_555 1_555
H2 N4 1_555 1_555
N5 Ag1 1_555 1_555
N6 C20 1_555 1_555
N7 Ag2 1_555 1_555
H3 N7 1_555 1_555
N8 Ag1 1_555 1_555
N9 C32 1_555 1_555
N10 Ag4 1_555 1_555
H4 N10 1_555 1_555
N11 Ag3 1_555 1_555
N12 C44 1_555 1_555
C1 N1 1_555 1_555
H5 C1 1_555 1_555
H6 C1 1_555 1_555
C2 N1 1_555 1_555
H7 C2 1_555 1_555
H8 C2 1_555 1_555
C3 H9 1_555 1_555
C4 C1 1_555 1_555
C5 C4 1_555 1_555
H10 C5 1_555 1_555
C6 C5 1_555 1_555
H11 C6 1_555 1_555
C7 N2 1_555 1_555
H12 C7 1_555 1_555
C8 H13 1_555 1_555
C9 C2 1_555 1_555
C10 C9 1_555 1_555
H14 C10 1_555 1_555
C11 C10 1_555 1_555
H15 C11 1_555 1_555
C12 N3 1_555 1_555
H16 C12 1_555 1_555
C13 N4 1_555 1_555
H17 C13 1_555 1_555
H18 C13 1_555 1_555
C14 N4 1_555 1_555
H19 C14 1_555 1_555
H20 C14 1_555 1_555
C15 N5 1_555 1_555
H21 C15 1_555 1_555
C16 C13 1_555 1_555
C17 C16 1_555 1_555
H22 C17 1_555 1_555
C18 C17 1_555 1_555
H23 C18 1_555 1_555
C19 N5 1_555 1_555
H24 C19 1_555 1_555
C20 H25 1_555 1_555
C21 C14 1_555 1_555
C22 C21 1_555 1_555
H26 C22 1_555 1_555
C23 C22 1_555 1_555
H27 C23 1_555 1_555
C24 N6 1_555 1_555
H28 C24 1_555 1_555
C25 N7 1_555 1_555
H29 C25 1_555 1_555
H30 C25 1_555 1_555
C26 N7 1_555 1_555
H31 C26 1_555 1_555
H32 C26 1_555 1_555
C27 N8 1_555 1_555
H33 C27 1_555 1_555
C28 C25 1_555 1_555
C29 C28 1_555 1_555
H34 C29 1_555 1_555
C30 C29 1_555 1_555
H35 C30 1_555 1_555
C31 N8 1_555 1_555
H36 C31 1_555 1_555
C32 H37 1_555 1_555
C33 C26 1_555 1_555
C34 C33 1_555 1_555
H38 C34 1_555 1_555
C35 C34 1_555 1_555
H39 C35 1_555 1_555
C36 N9 1_555 1_555
H40 C36 1_555 1_555
C37 N10 1_555 1_555
H41 C37 1_555 1_555
H42 C37 1_555 1_555
C38 N10 1_555 1_555
H43 C38 1_555 1_555
H44 C38 1_555 1_555
C39 N11 1_555 1_555
H45 C39 1_555 1_555
C40 C37 1_555 1_555
C41 C40 1_555 1_555
H46 C41 1_555 1_555
C42 C41 1_555 1_555
H47 C42 1_555 1_555
C43 N11 1_555 1_555
H48 C43 1_555 1_555
C44 H49 1_555 1_555
C45 C38 1_555 1_555
C46 C45 1_555 1_555
H50 C46 1_555 1_555
C47 C46 1_555 1_555
H51 C47 1_555 1_555
C48 N12 1_555 1_555
H52 C48 1_555 1_555
S1 O1 1_555 1_555
F1 C49 1_555 1_555
F2 C49 1_555 1_555
F3 C49 1_555 1_555
O1 Ag1 1_555 1_555
O2 S1 1_555 1_555
O3 S1 1_555 1_555
C49 S1 1_555 1_555
S2 O4 1_555 1_555
F4 C50 1_555 1_555
F5 C50 1_555 1_555
F6 C50 1_555 1_555
O4 Ag3 1_555 1_555
O5 S2 1_555 1_555
O6 S2 1_555 1_555
C50 S2 1_555 1_555
S3 O7 1_555 1_555
F7 C51 1_555 1_555
F8 C51 1_555 1_555
F9 C51 1_555 1_555
O8 S3 1_555 1_555
O9 Ag2 1_555 1_555
C51 S3 1_555 1_555
S4 O10 1_555 1_555
F10 C52 1_555 1_555
F11 C52 1_555 1_555
F12 C52 1_555 1_555
O11 S4 1_555 1_555
O12 S4 1_555 1_555
C52 S4 1_555 1_555
O16 H53 1_555 1_555
H54 O16 1_555 1_555
O17 H55 1_555 1_555
H56 O17 1_555 1_555
Ag2A N9 1_555 1_555
Ag4A N12 1_555 1_555
N9A Ag2 1_555 1_555
N12A Ag4 1_555 1_555
C3 C4 1_555 1_555
C6 C7 1_555 1_555
C8 C9 1_555 1_555
C11 C12 1_555 1_555
C15 C16 1_555 1_555
C18 C19 1_555 1_555
C20 C21 1_555 1_555
C23 C24 1_555 1_555
C27 C28 1_555 1_555
C30 C31 1_555 1_555
C32 C33 1_555 1_555
C35 C36 1_555 1_555
C39 C40 1_555 1_555
C42 C43 1_555 1_555
C44 C45 1_555 1_555
C47 C48 1_555 1_555
S3 O9 1_555 1_555

#END
