
#######################################################################
#
#                 Cambridge Crystallographic Data Centre
#                                CCDC 
#
#######################################################################
#
# If this CIF has been generated from an entry in the Cambridge 
# Structural Database, then it will include bibliographic, chemical, 
# crystal, experimental, refinement or atomic coordinate data resulting 
# from the CCDC's data processing and validation procedures.
#
#######################################################################

data_KIPPAC
_symmetry_cell_setting           monoclinic
_symmetry_space_group_name_H-M   'P 21/c'
_symmetry_Int_Tables_number      14
_space_group_name_Hall           '-P 2ybc'
loop_
_symmetry_equiv_pos_site_id
_symmetry_equiv_pos_as_xyz
1 x,y,z
2 -x,1/2+y,1/2-z
3 -x,-y,-z
4 x,1/2-y,1/2+z
_cell_length_a                   10.1561(12)
_cell_length_b                   12.9047(16)
_cell_length_c                   11.6393(14)
_cell_angle_alpha                90
_cell_angle_beta                 106.807(5)
_cell_angle_gamma                90
_cell_volume                     1460.3
loop_
_atom_site_label
_atom_site_type_symbol
_atom_site_fract_x
_atom_site_fract_y
_atom_site_fract_z
Ag1 Ag 0.79262(3) 0.737317(17) 0.69559(2)
O1 O 1.0403(2) 0.70026(17) 0.8197(2)
H1 H 1.1036 0.7452 0.7938
H2 H 1.0776 0.6783 0.9045
N1 N 0.8620(2) 0.90562(17) 0.69073(19)
H3 H 0.9320 0.8864 0.6585
N2 N 0.6670(2) 0.82738(19) 0.3151(2)
N3 N 0.7703(2) 0.88702(18) 1.0480(2)
C1 C 0.7530(3) 0.9701(2) 0.6107(2)
H4 H 0.7949 1.0312 0.5837
H5 H 0.6895 0.9950 0.6551
C2 C 0.9320(3) 0.9597(2) 0.8051(2)
H6 H 0.9570 1.0307 0.7867
H7 H 1.0182 0.9225 0.8457
C3 C 0.7293(3) 0.8874(2) 0.4095(3)
H8 H 0.8155 0.9174 0.4122
C4 C 0.6743(3) 0.9078(2) 0.5034(2)
C5 C 0.5464(3) 0.8659(2) 0.4964(3)
H9 H 0.5049 0.8784 0.5585
C6 C 0.4796(3) 0.8059(2) 0.3985(3)
H10 H 0.3914 0.7775 0.3920
C7 C 0.5430(3) 0.7878(2) 0.3107(3)
H11 H 0.4973 0.7457 0.2442
C8 C 0.8429(3) 0.8859(2) 0.9686(2)
H12 H 0.8973 0.8265 0.9664
C9 C 0.8438(3) 0.9662(2) 0.8893(2)
C10 C 0.7646(3) 1.0529(2) 0.8940(3)
H13 H 0.7628 1.1101 0.8421
C11 C 0.6884(3) 1.0552(2) 0.9752(3)
H14 H 0.6328 1.1135 0.9793
C12 C 0.6944(3) 0.9719(2) 1.0497(3)
H15 H 0.6422 0.9743 1.1055
Ag1C Ag 0.79262(3) 0.762683(17) 0.19559(2)
Ag1C_2 Ag 0.79262(3) 0.762683(17) 1.19559(2)
N2C N 0.6670(2) 0.67262(19) 0.8151(2)
N3C N 0.7703(2) 0.61298(18) 0.5480(2)
O2 O 0.2806(2) 0.68482(18) 0.0805(2)
O3 O 0.0697(2) 0.6488(2) 0.0607(2)
O4 O 0.2133(3) 0.6602(2) 0.2375(2)
N4 N 0.1888(3) 0.6648(2) 0.1266(2)
loop_
_geom_bond_atom_site_label_1
_geom_bond_atom_site_label_2
_geom_bond_site_symmetry_1
_geom_bond_site_symmetry_2
Ag1 O1 1_555 1_555
O1 H1 1_555 1_555
H2 O1 1_555 1_555
N1 Ag1 1_555 1_555
H3 N1 1_555 1_555
N2 C3 1_555 1_555
N3 C8 1_555 1_555
C1 N1 1_555 1_555
H4 C1 1_555 1_555
H5 C1 1_555 1_555
C2 N1 1_555 1_555
H6 C2 1_555 1_555
H7 C2 1_555 1_555
C3 H8 1_555 1_555
C4 C1 1_555 1_555
C5 C4 1_555 1_555
H9 C5 1_555 1_555
C6 C5 1_555 1_555
H10 C6 1_555 1_555
C7 N2 1_555 1_555
H11 C7 1_555 1_555
C8 H12 1_555 1_555
C9 C2 1_555 1_555
C10 C9 1_555 1_555
H13 C10 1_555 1_555
C11 C10 1_555 1_555
H14 C11 1_555 1_555
C12 N3 1_555 1_555
H15 C12 1_555 1_555
O2 N4 1_555 1_555
O3 N4 1_555 1_555
O4 N4 1_555 1_555
Ag1C N2 1_555 1_555
Ag1C_2 N3 1_555 1_555
N2C Ag1 1_555 1_555
N3C Ag1 1_555 1_555
C3 C4 1_555 1_555
C6 C7 1_555 1_555
C8 C9 1_555 1_555
C11 C12 1_555 1_555

#END
