
#######################################################################
#
#                 Cambridge Crystallographic Data Centre
#                                CCDC 
#
#######################################################################
#
# If this CIF has been generated from an entry in the Cambridge 
# Structural Database, then it will include bibliographic, chemical, 
# crystal, experimental, refinement or atomic coordinate data resulting 
# from the CCDC's data processing and validation procedures.
#
#######################################################################

data_KIPQUX
_symmetry_cell_setting           monoclinic
_symmetry_space_group_name_H-M   'P 21/a'
_symmetry_Int_Tables_number      14
_space_group_name_Hall           '-P 2yab'
loop_
_symmetry_equiv_pos_site_id
_symmetry_equiv_pos_as_xyz
1 x,y,z
2 1/2-x,1/2+y,-z
3 -x,-y,-z
4 1/2+x,1/2-y,z
_cell_length_a                   13.458(2)
_cell_length_b                   13.046(1)
_cell_length_c                   13.826(2)
_cell_angle_alpha                90
_cell_angle_beta                 96.922(12)
_cell_angle_gamma                90
_cell_volume                     2409.78
loop_
_atom_site_label
_atom_site_type_symbol
_atom_site_fract_x
_atom_site_fract_y
_atom_site_fract_z
Cu1 Cu -0.01969(10) 0.43885(9) -0.07790(12)
N1 N -0.1079(8) 0.4119(7) -0.4616(8)
C1 C -0.1184(9) 0.3160(9) -0.4946(12)
H1 H -0.1311 0.3081 -0.5618
N2 N -0.1125(8) 0.2294(8) -0.4412(10)
C2 C -0.0937(8) 0.2494(9) -0.3455(12)
C3 C -0.0785(9) 0.3450(9) -0.2996(11)
C4 C -0.0879(9) 0.4292(10) -0.3659(10)
N3 N -0.0822(9) 0.5260(7) -0.3307(9)
H2 H -0.0914 0.5772 -0.3699
H3 H -0.0693 0.5364 -0.2690
N4 N -0.0584(7) 0.3378(7) -0.2005(8)
C5 C -0.0630(9) 0.2354(9) -0.1840(11)
H4 H -0.0540 0.2063 -0.1221
N5 N -0.0822(7) 0.1798(7) -0.2675(9)
C6 C -0.0933(10) 0.0699(9) -0.2743(11)
H5 H -0.0859 0.0408 -0.2100
H6 H -0.0431 0.0422 -0.3106
H7 H -0.1585 0.0535 -0.3068
C7 C 0.1658(9) 0.2713(8) 0.1335(11)
C8 C 0.1557(11) 0.2511(9) 0.2322(11)
H8 H 0.1144 0.2910 0.2662
C9 C 0.2101(11) 0.1689(9) 0.2770(10)
H9 H 0.2018 0.1506 0.3405
C10 C 0.2758(9) 0.1150(8) 0.2273(11)
H10 H 0.3131 0.0621 0.2586
C11 C 0.2872(9) 0.1376(8) 0.1334(9)
C12 C 0.2301(8) 0.2164(9) 0.0862(11)
H11 H 0.2364 0.2312 0.0215
C13 C 0.1054(9) 0.3584(9) 0.0799(11)
O1 O 0.0728(6) 0.3414(6) -0.0081(6)
O2 O 0.0992(6) 0.4409(6) 0.1275(6)
C14 C 0.3630(9) 0.0793(8) 0.0814(11)
O3 O 0.4064(6) 0.0050(6) 0.1275(6)
O4 O 0.3743(6) 0.1073(6) -0.0016(7)
Cu1A Cu 0.51969(10) -0.06115(9) 0.07790(12)
Cu1B Cu 0.01969(10) 0.56115(9) 0.07790(12)
Cu1C Cu 0.48031(10) 0.06115(9) -0.07790(12)
O2B O -0.0992(6) 0.5591(6) -0.1275(6)
O3A O 0.0936(6) 0.5050(6) -0.1275(6)
O4C O -0.1257(6) 0.3927(6) -0.0016(7)
C15 C 0.1529(9) 0.2540(9) 0.6295(10)
C16 C 0.1705(9) 0.2699(10) 0.7278(10)
H12 H 0.1724 0.3359 0.7533
C17 C 0.1850(10) 0.1866(10) 0.7877(12)
H13 H 0.1998 0.1962 0.8546
C18 C 0.1778(9) 0.0854(9) 0.7495(12)
H14 H 0.1872 0.0292 0.7910
C19 C 0.1575(9) 0.0715(10) 0.6530(11)
C20 C 0.1452(9) 0.1520(9) 0.5903(10)
H15 H 0.1321 0.1412 0.5235
C21 C 0.1376(9) 0.3367(10) 0.5568(13)
O5 O 0.1211(7) 0.3221(7) 0.4684(8)
O6 O 0.1453(6) 0.4321(6) 0.5952(7)
H16 H 0.1360 0.4746 0.5513
C22 C 0.1493(10) -0.0390(9) 0.6147(12)
O7 O 0.1414(8) -0.1125(7) 0.6655(8)
O8 O 0.1429(6) -0.0402(6) 0.5201(8)
H17 H 0.1382 -0.0996 0.5008
loop_
_geom_bond_atom_site_label_1
_geom_bond_atom_site_label_2
_geom_bond_site_symmetry_1
_geom_bond_site_symmetry_2
Cu1 N4 1_555 1_555
N1 C1 1_555 1_555
C1 H1 1_555 1_555
N2 C1 1_555 1_555
C2 N2 1_555 1_555
C3 C2 1_555 1_555
C4 N1 1_555 1_555
N3 C4 1_555 1_555
H2 N3 1_555 1_555
H3 N3 1_555 1_555
N4 C3 1_555 1_555
C5 N4 1_555 1_555
H4 C5 1_555 1_555
N5 C2 1_555 1_555
C6 N5 1_555 1_555
H5 C6 1_555 1_555
H6 C6 1_555 1_555
H7 C6 1_555 1_555
C7 C8 1_555 1_555
C8 H8 1_555 1_555
C9 C8 1_555 1_555
H9 C9 1_555 1_555
C10 C9 1_555 1_555
H10 C10 1_555 1_555
C11 C10 1_555 1_555
C12 C7 1_555 1_555
H11 C12 1_555 1_555
C13 C7 1_555 1_555
O1 Cu1 1_555 1_555
O2 C13 1_555 1_555
C14 C11 1_555 1_555
O3 C14 1_555 1_555
O4 C14 1_555 1_555
C15 C16 1_555 1_555
C16 H12 1_555 1_555
C17 C16 1_555 1_555
H13 C17 1_555 1_555
C18 C17 1_555 1_555
H14 C18 1_555 1_555
C19 C18 1_555 1_555
C20 C15 1_555 1_555
H15 C20 1_555 1_555
C21 C15 1_555 1_555
O5 C21 1_555 1_555
O6 C21 1_555 1_555
H16 O6 1_555 1_555
C22 C19 1_555 1_555
O7 C22 1_555 1_555
O8 C22 1_555 1_555
H17 O8 1_555 1_555
Cu1A O3 1_555 1_555
Cu1B O2 1_555 1_555
Cu1C O4 1_555 1_555
O2B Cu1 1_555 1_555
O3A Cu1 1_555 1_555
O4C Cu1 1_555 1_555
C3 C4 1_555 1_555
C5 N5 1_555 1_555
C11 C12 1_555 1_555
C13 O1 1_555 1_555
C19 C20 1_555 1_555

#END
