
#######################################################################
#
#                 Cambridge Crystallographic Data Centre
#                                CCDC 
#
#######################################################################
#
# If this CIF has been generated from an entry in the Cambridge 
# Structural Database, then it will include bibliographic, chemical, 
# crystal, experimental, refinement or atomic coordinate data resulting 
# from the CCDC's data processing and validation procedures.
#
#######################################################################

data_KIPQIL
_symmetry_cell_setting           tetragonal
_symmetry_space_group_name_H-M   'P -4 21 c'
_symmetry_Int_Tables_number      114
_space_group_name_Hall           'P -4 2n'
loop_
_symmetry_equiv_pos_site_id
_symmetry_equiv_pos_as_xyz
1 x,y,z
2 -x,-y,z
3 1/2+x,1/2-y,1/2-z
4 1/2-x,1/2+y,1/2-z
5 1/2+y,1/2+x,1/2+z
6 1/2-y,1/2-x,1/2+z
7 -y,x,-z
8 y,-x,-z
_cell_length_a                   16.6280(4)
_cell_length_b                   16.6280(4)
_cell_length_c                   11.0490(5)
_cell_angle_alpha                90
_cell_angle_beta                 90
_cell_angle_gamma                90
_cell_volume                     3054.94
loop_
_atom_site_label
_atom_site_type_symbol
_atom_site_fract_x
_atom_site_fract_y
_atom_site_fract_z
N1F N 0.3114(6) 0.6111(7) -0.8851(9)
C1F C 0.3379(11) 0.6263(11) -0.7764(15)
N2F N 0.3564(7) 0.5697(8) -0.6927(11)
C2F C 0.3442(8) 0.4962(10) -0.7423(12)
N3F N 0.3087(7) 0.3890(7) -0.8730(10)
C3F C 0.3353(9) 0.3616(9) -0.7588(14)
N4F N 0.3543(7) 0.4240(7) -0.6868(10)
C4F C 0.3150(14) 0.5341(14) -0.861(2)
C5F C 0.2960(14) 0.4684(13) -0.9291(19)
N5F N 0.2683(11) 0.4923(14) -1.0456(16)
C6F C 0.3898(15) 0.5955(14) -0.553(2)
Cu1A Cu 0.28994(8) 0.29648(8) -0.99324(15)
Cu1F Cu 0.29648(8) 0.71006(8) -1.00676(15)
N1G N 0.6886(6) 0.3889(7) -0.8851(9)
C1G C 0.6621(11) 0.3737(11) -0.7764(15)
N2G N 0.6436(7) 0.4303(8) -0.6927(11)
C2G C 0.6558(8) 0.5038(10) -0.7423(12)
N3G N 0.6913(7) 0.6110(7) -0.8730(10)
C3G C 0.6647(9) 0.6384(9) -0.7588(14)
N4G N 0.6457(7) 0.5760(7) -0.6868(10)
C4G C 0.6850(14) 0.4659(14) -0.861(2)
C5G C 0.7040(14) 0.5316(13) -0.9291(19)
N5G N 0.7317(11) 0.5077(14) -1.0456(16)
C6G C 0.6102(15) 0.4045(14) -0.553(2)
Cu1 Cu 0.71006(8) 0.70352(8) -0.99324(15)
Cu1G Cu 0.70352(8) 0.28994(8) -1.00676(15)
Cu1_2 Cu 0.71006(8) 0.70352(8) 0.00676(15)
N1 N 0.6111(7) 0.6886(6) -0.1149(9)
C1 C 0.6263(11) 0.6621(11) -0.2236(15)
N2 N 0.5697(8) 0.6436(7) -0.3073(11)
C2 C 0.4962(10) 0.6558(8) -0.2577(12)
N3 N 0.3890(7) 0.6913(7) -0.1270(10)
C3 C 0.3616(9) 0.6647(9) -0.2412(14)
N4 N 0.4240(7) 0.6457(7) -0.3132(10)
C4 C 0.5341(14) 0.6850(14) -0.139(2)
C5 C 0.4684(13) 0.7040(14) -0.0709(19)
N5 N 0.4923(14) 0.7317(11) 0.0456(16)
C6 C 0.5955(14) 0.6102(15) -0.447(2)
C7 C 1.0731(7) 0.6590(7) -0.1134(10)
C8 C 0.9986(7) 0.6726(6) -0.0556(9)
H1 H 0.9972 0.6939 0.0222
C9 C 0.9283(7) 0.6542(7) -0.1145(11)
C10 C 0.9302(9) 0.6226(8) -0.2299(13)
H2 H 0.8825 0.6112 -0.2703
C11 C 1.0052(10) 0.6075(8) -0.2870(12)
H3 H 1.0068 0.5852 -0.3642
C12 C 1.0746(8) 0.6257(8) -0.2283(12)
H4 H 1.1237 0.6158 -0.2658
C13 C 1.1433(8) 0.6829(8) -0.0440(12)
O1 O 1.1420(5) 0.7151(5) 0.0552(8)
O2 O 1.2146(7) 0.6710(7) -0.0929(10)
C14 C 0.8466(9) 0.6729(9) -0.0633(14)
O3 O 0.8383(6) 0.7138(7) 0.0125(11)
O4 O 0.7843(7) 0.6423(7) -0.1190(10)
N1G_2 N 0.6886(6) 0.3889(7) 0.1149(9)
C1G_2 C 0.6621(11) 0.3737(11) 0.2236(15)
N2G_2 N 0.6436(7) 0.4303(8) 0.3073(11)
C2G_2 C 0.6558(8) 0.5038(10) 0.2577(12)
N3G_2 N 0.6913(7) 0.6110(7) 0.1270(10)
C3G_2 C 0.6647(9) 0.6384(9) 0.2412(14)
N4G_2 N 0.6457(7) 0.5760(7) 0.3132(10)
C4G_2 C 0.6850(14) 0.4659(14) 0.139(2)
C5G_2 C 0.7040(14) 0.5316(13) 0.0709(19)
N5G_2 N 0.7317(11) 0.5077(14) -0.0456(16)
C6G_2 C 0.6102(15) 0.4045(14) 0.447(2)
Cu1G_2 Cu 0.70352(8) 0.28994(8) -0.00676(15)
C7G C 0.6590(7) -0.0731(7) 0.1134(10)
C8G C 0.6726(6) 0.0014(7) 0.0556(9)
H1G H 0.6939 0.0028 -0.0222
C9G C 0.6542(7) 0.0717(7) 0.1145(11)
C10G C 0.6226(8) 0.0698(9) 0.2299(13)
H2G H 0.6112 0.1175 0.2703
C11G C 0.6075(8) -0.0052(10) 0.2870(12)
H3G H 0.5852 -0.0068 0.3642
C12G C 0.6257(8) -0.0746(8) 0.2283(12)
H4G H 0.6158 -0.1237 0.2658
C13G C 0.6829(8) -0.1433(8) 0.0440(12)
O1G O 0.7151(5) -0.1420(5) -0.0552(8)
O2G O 0.6710(7) -0.2146(7) 0.0929(10)
C14G C 0.6729(9) 0.1534(9) 0.0633(14)
O3G O 0.7138(7) 0.1617(6) -0.0125(11)
O4G O 0.6423(7) 0.2157(7) 0.1190(10)
Cu1G_3 Cu 0.70352(8) 1.28994(8) -0.00676(15)
C7G_2 C 0.6590(7) 0.9269(7) 0.1134(10)
C8G_2 C 0.6726(6) 1.0014(7) 0.0556(9)
H1G_2 H 0.6939 1.0028 -0.0222
C9G_2 C 0.6542(7) 1.0717(7) 0.1145(11)
C10G_2 C 0.6226(8) 1.0698(9) 0.2299(13)
H2G_2 H 0.6112 1.1175 0.2703
C11G_2 C 0.6075(8) 0.9948(10) 0.2870(12)
H3G_2 H 0.5852 0.9932 0.3642
C12G_2 C 0.6257(8) 0.9254(8) 0.2283(12)
H4G_2 H 0.6158 0.8763 0.2658
C13G_2 C 0.6829(8) 0.8567(8) 0.0440(12)
O1G_2 O 0.7151(5) 0.8580(5) -0.0552(8)
O2G_2 O 0.6710(7) 0.7854(7) 0.0929(10)
C14G_2 C 0.6729(9) 1.1534(9) 0.0633(14)
O3G_2 O 0.7138(7) 1.1617(6) -0.0125(11)
O4G_2 O 0.6423(7) 1.2157(7) 0.1190(10)
Cu1A_2 Cu 1.28994(8) 1.29648(8) 0.00676(15)
C7A C 0.9269(7) 1.3410(7) -0.1134(10)
C8A C 1.0014(7) 1.3274(6) -0.0556(9)
H1A H 1.0028 1.3061 0.0222
C9A C 1.0717(7) 1.3458(7) -0.1145(11)
C10A C 1.0698(9) 1.3774(8) -0.2299(13)
H2A H 1.1175 1.3888 -0.2703
C11A C 0.9948(10) 1.3925(8) -0.2870(12)
H3A H 0.9932 1.4148 -0.3642
C12A C 0.9254(8) 1.3743(8) -0.2283(12)
H4A H 0.8763 1.3842 -0.2658
C13A C 0.8567(8) 1.3171(8) -0.0440(12)
O1A O 0.8580(5) 1.2849(5) 0.0552(8)
O2A O 0.7854(7) 1.3290(7) -0.0929(10)
C14A C 1.1534(9) 1.3271(9) -0.0633(14)
O3A O 1.1617(6) 1.2862(7) 0.0125(11)
O4A O 1.2157(7) 1.3577(7) -0.1190(10)
Cu1_3 Cu 0.71006(8) -0.29648(8) 0.00676(15)
Cu1F_2 Cu 0.29648(8) 0.71006(8) -0.00676(15)
Cu1F_3 Cu 1.29648(8) 0.71006(8) -0.00676(15)
N1A N 1.3889(7) 1.3114(6) -0.1149(9)
N1G_3 N 0.6886(6) 1.3889(7) 0.1149(9)
N3A N 0.6110(7) 0.3087(7) -0.1270(10)
N3A_2 N 0.6110(7) 1.3087(7) -0.1270(10)
N3F_2 N 1.3087(7) 1.3890(7) 0.1270(10)
O1A_2 O 0.8580(5) 0.2849(5) 0.0552(8)
O1F O 1.2849(5) 1.1420(5) -0.0552(8)
O2A_2 O 0.7854(7) 0.3290(7) -0.0929(10)
O2F O 1.3290(7) 1.2146(7) 0.0929(10)
C15? C 0.4687(14) 0.6819(14) -0.148(2)
C16? C 0.5290(14) 0.7040(16) -0.056(2)
N6? N 0.5291(13) 0.7294(11) 0.0550(16)
C17? C 0.4109(15) 0.6151(17) -0.436(2)
loop_
_geom_bond_atom_site_label_1
_geom_bond_atom_site_label_2
_geom_bond_site_symmetry_1
_geom_bond_site_symmetry_2
Cu1_2 N1 1_555 1_555
N1 C1 1_555 1_555
C1 N2 1_555 1_555
N2 C2 1_555 1_555
C2 N4 1_555 1_555
N3 C3 1_555 1_555
C3 N4 1_555 1_555
C4 N1 1_555 1_555
C5 N3 1_555 1_555
N5 C5 1_555 1_555
C6 N2 1_555 1_555
C7 C8 1_555 1_555
C8 H1 1_555 1_555
C9 C8 1_555 1_555
C10 C9 1_555 1_555
H2 C10 1_555 1_555
C11 C10 1_555 1_555
H3 C11 1_555 1_555
C12 C7 1_555 1_555
H4 C12 1_555 1_555
C13 C7 1_555 1_555
O1 C13 1_555 1_555
O2 C13 1_555 1_555
C14 C9 1_555 1_555
O3 Cu1_2 1_555 1_555
O4 Cu1_2 1_555 1_555
N1G_2 C1G_2 1_555 1_555
C1G_2 N2G_2 1_555 1_555
N2G_2 C2G_2 1_555 1_555
C2G_2 N4G_2 1_555 1_555
N3G_2 Cu1_2 1_555 1_555
C3G_2 N3G_2 1_555 1_555
N4G_2 C3G_2 1_555 1_555
C4G_2 N1G_2 1_555 1_555
C5G_2 N3G_2 1_555 1_555
N5G_2 C5G_2 1_555 1_555
C6G_2 N2G_2 1_555 1_555
Cu1G_2 N1G_2 1_555 1_555
C7G C8G 1_555 1_555
C8G H1G 1_555 1_555
C9G C8G 1_555 1_555
C10G C9G 1_555 1_555
H2G C10G 1_555 1_555
C11G C10G 1_555 1_555
H3G C11G 1_555 1_555
C12G C7G 1_555 1_555
H4G C12G 1_555 1_555
C13G C7G 1_555 1_555
O1G C13G 1_555 1_555
O2G C13G 1_555 1_555
C14G C9G 1_555 1_555
O3G Cu1G_2 1_555 1_555
O4G Cu1G_2 1_555 1_555
Cu1G_3 O3G_2 1_555 1_555
C7G_2 C8G_2 1_555 1_555
C8G_2 H1G_2 1_555 1_555
C9G_2 C8G_2 1_555 1_555
C10G_2 C9G_2 1_555 1_555
H2G_2 C10G_2 1_555 1_555
C11G_2 C10G_2 1_555 1_555
H3G_2 C11G_2 1_555 1_555
C12G_2 C7G_2 1_555 1_555
H4G_2 C12G_2 1_555 1_555
C13G_2 C7G_2 1_555 1_555
O1G_2 Cu1_2 1_555 1_555
O2G_2 Cu1_2 1_555 1_555
C14G_2 C9G_2 1_555 1_555
O3G_2 C14G_2 1_555 1_555
O4G_2 Cu1G_3 1_555 1_555
Cu1A_2 O3A 1_555 1_555
C7A C8A 1_555 1_555
C8A H1A 1_555 1_555
C9A C8A 1_555 1_555
C10A C9A 1_555 1_555
H2A C10A 1_555 1_555
C11A C10A 1_555 1_555
H3A C11A 1_555 1_555
C12A C7A 1_555 1_555
H4A C12A 1_555 1_555
C13A C7A 1_555 1_555
O1A Cu1G_3 1_555 1_555
O2A Cu1G_3 1_555 1_555
C14A C9A 1_555 1_555
O3A C14A 1_555 1_555
O4A Cu1A_2 1_555 1_555
Cu1_3 O1G 1_555 1_555
Cu1F_2 N3 1_555 1_555
Cu1F_3 O1 1_555 1_555
N1A Cu1A_2 1_555 1_555
N1G_3 Cu1G_3 1_555 1_555
N3A Cu1G_2 1_555 1_555
N3A_2 Cu1G_3 1_555 1_555
N3F_2 Cu1A_2 1_555 1_555
O1A_2 Cu1G_2 1_555 1_555
O1F Cu1A_2 1_555 1_555
O2A_2 Cu1G_2 1_555 1_555
O2F Cu1A_2 1_555 1_555
N1F C1F 1_555 1_555
C1F N2F 1_555 1_555
N2F C2F 1_555 1_555
C2F N4F 1_555 1_555
N3F C3F 1_555 1_555
C3F N4F 1_555 1_555
C4F N1F 1_555 1_555
C5F N3F 1_555 1_555
N5F C5F 1_555 1_555
C6F N2F 1_555 1_555
Cu1A N3F 1_555 1_555
Cu1F N1F 1_555 1_555
N1G C1G 1_555 1_555
C1G N2G 1_555 1_555
N2G C2G 1_555 1_555
C2G N4G 1_555 1_555
N3G C3G 1_555 1_555
C3G N4G 1_555 1_555
C4G N1G 1_555 1_555
C5G N3G 1_555 1_555
N5G C5G 1_555 1_555
C6G N2G 1_555 1_555
Cu1 N3G 1_555 1_555
Cu1G N1G 1_555 1_555
C2 C4 1_555 1_555
C4 C5 1_555 1_555
C11 C12 1_555 1_555
O2 Cu1F_3 1_555 1_555
C14 O3 1_555 1_555
C14 O4 1_555 1_555
C2G_2 C4G_2 1_555 1_555
C4G_2 C5G_2 1_555 1_555
C11G C12G 1_555 1_555
O2G Cu1_3 1_555 1_555
C14G O3G 1_555 1_555
C14G O4G 1_555 1_555
C11G_2 C12G_2 1_555 1_555
C13G_2 O1G_2 1_555 1_555
C13G_2 O2G_2 1_555 1_555
C14G_2 O4G_2 1_555 1_555
C11A C12A 1_555 1_555
C13A O1A 1_555 1_555
C13A O2A 1_555 1_555
C14A O4A 1_555 1_555
C2F C4F 1_555 1_555
C4F C5F 1_555 1_555
C2G C4G 1_555 1_555
C4G C5G 1_555 1_555

#END
