
#######################################################################
#
#                 Cambridge Crystallographic Data Centre
#                                CCDC 
#
#######################################################################
#
# If this CIF has been generated from an entry in the Cambridge 
# Structural Database, then it will include bibliographic, chemical, 
# crystal, experimental, refinement or atomic coordinate data resulting 
# from the CCDC's data processing and validation procedures.
#
#######################################################################

data_KIPQAD
_symmetry_cell_setting           orthorhombic
_symmetry_space_group_name_H-M   'P 21 21 21'
_symmetry_Int_Tables_number      19
_space_group_name_Hall           'P 2ac 2ab'
loop_
_symmetry_equiv_pos_site_id
_symmetry_equiv_pos_as_xyz
1 x,y,z
2 1/2-x,-y,1/2+z
3 1/2+x,1/2-y,-z
4 -x,1/2+y,1/2-z
_cell_length_a                   9.3510(3)
_cell_length_b                   10.9234(3)
_cell_length_c                   14.8553(5)
_cell_angle_alpha                90
_cell_angle_beta                 90
_cell_angle_gamma                90
_cell_volume                     1517.39
loop_
_atom_site_label
_atom_site_type_symbol
_atom_site_fract_x
_atom_site_fract_y
_atom_site_fract_z
Ag1 Ag 0.52605(4) 0.49273(4) -0.04708(3)
N1 N 0.2585(4) -0.0127(4) 0.0745(3)
H1 H 0.2815 -0.0901 0.0999
N2 N 0.3757(5) 0.3927(4) 0.0442(3)
N3 N 0.3737(6) -0.3426(4) -0.0854(3)
C1 C 0.3199(7) 0.0760(5) 0.1407(4)
H2 H 0.4243 0.0625 0.1451
H3 H 0.2779 0.0599 0.2007
C2 C 0.3456(6) -0.0177(5) -0.0094(4)
H4 H 0.4486 -0.0156 0.0059
H5 H 0.3240 0.0543 -0.0476
C3 C 0.3937(6) 0.2738(5) 0.0663(3)
H6 H 0.4786 0.2333 0.0477
C4 C 0.2925(6) 0.2081(5) 0.1154(4)
C5 C 0.1705(6) 0.2689(5) 0.1432(4)
H7 H 0.0991 0.2266 0.1764
C6 C 0.1528(6) 0.3916(6) 0.1223(4)
H8 H 0.0699 0.4347 0.1414
C7 C 0.2580(6) 0.4499(5) 0.0732(4)
H9 H 0.2463 0.5343 0.0595
C8 C 0.3999(6) -0.2336(5) -0.0490(4)
H10 H 0.4837 -0.2243 -0.0134
C9 C 0.3119(6) -0.1335(5) -0.0601(3)
C10 C 0.1927(7) -0.1468(6) -0.1148(4)
H11 H 0.1309 -0.0793 -0.1252
C11 C 0.1648(6) -0.2574(6) -0.1535(4)
H12 H 0.0838 -0.2680 -0.1913
C12 C 0.2571(7) -0.3540(5) -0.1366(4)
H13 H 0.2366 -0.4315 -0.1626
Ag1_2 Ag 0.52605(4) -0.50727(4) -0.04708(3)
Ag1B Ag 0.02605(4) 0.00727(4) 0.04708(3)
N1B N 0.7585(4) 0.5127(4) -0.0745(3)
N3_2 N 0.3737(6) 0.6574(4) -0.0854(3)
P1 P 0.75418(17) 0.23490(14) 0.23555(10)
F1 F 0.8684(4) 0.3419(4) 0.2410(4)
F2 F 0.8762(4) 0.1344(3) 0.2370(4)
F3 F 0.6394(4) 0.1293(4) 0.2341(3)
F4 F 0.6308(4) 0.3357(4) 0.2363(3)
F5 F 0.7609(8) 0.2369(6) 0.1310(3)
F6 F 0.7490(7) 0.2352(4) 0.3427(3)
loop_
_geom_bond_atom_site_label_1
_geom_bond_atom_site_label_2
_geom_bond_site_symmetry_1
_geom_bond_site_symmetry_2
Ag1 N2 1_555 1_555
N1 H1 1_555 1_555
N2 C3 1_555 1_555
N3 C8 1_555 1_555
C1 N1 1_555 1_555
H2 C1 1_555 1_555
H3 C1 1_555 1_555
C2 N1 1_555 1_555
H4 C2 1_555 1_555
H5 C2 1_555 1_555
C3 H6 1_555 1_555
C4 C1 1_555 1_555
C5 C4 1_555 1_555
H7 C5 1_555 1_555
C6 C5 1_555 1_555
H8 C6 1_555 1_555
C7 N2 1_555 1_555
H9 C7 1_555 1_555
C8 H10 1_555 1_555
C9 C2 1_555 1_555
C10 C9 1_555 1_555
H11 C10 1_555 1_555
C11 C10 1_555 1_555
H12 C11 1_555 1_555
C12 N3 1_555 1_555
H13 C12 1_555 1_555
P1 F1 1_555 1_555
F2 P1 1_555 1_555
F3 P1 1_555 1_555
F4 P1 1_555 1_555
F5 P1 1_555 1_555
F6 P1 1_555 1_555
Ag1_2 N3 1_555 1_555
Ag1B N1 1_555 1_555
N1B Ag1 1_555 1_555
N3_2 Ag1 1_555 1_555
C3 C4 1_555 1_555
C6 C7 1_555 1_555
C8 C9 1_555 1_555
C11 C12 1_555 1_555

#END
