
#######################################################################
#
#                 Cambridge Crystallographic Data Centre
#                                CCDC 
#
#######################################################################
#
# If this CIF has been generated from an entry in the Cambridge 
# Structural Database, then it will include bibliographic, chemical, 
# crystal, experimental, refinement or atomic coordinate data resulting 
# from the CCDC's data processing and validation procedures.
#
#######################################################################

data_KIPREI
_symmetry_cell_setting           monoclinic
_symmetry_space_group_name_H-M   'P 21/a'
_symmetry_Int_Tables_number      14
_space_group_name_Hall           '-P 2yab'
loop_
_symmetry_equiv_pos_site_id
_symmetry_equiv_pos_as_xyz
1 x,y,z
2 1/2-x,1/2+y,-z
3 -x,-y,-z
4 1/2+x,1/2-y,z
_cell_length_a                   9.628(1)
_cell_length_b                   19.315(1)
_cell_length_c                   14.872(1)
_cell_angle_alpha                90
_cell_angle_beta                 108.705(3)
_cell_angle_gamma                90
_cell_volume                     2619.59
loop_
_atom_site_label
_atom_site_type_symbol
_atom_site_fract_x
_atom_site_fract_y
_atom_site_fract_z
Cu1 Cu 1.38471(5) 0.48670(2) 0.92346(3)
Cu2 Cu 1.14904(6) 0.29379(3) 0.51515(3)
N1 N 1.2008(5) 0.4668(2) 0.7941(3)
C1 C 1.0828(6) 0.5056(3) 0.7806(4)
H1 H 1.0891 0.5395 0.8261
N2 N 0.9558(5) 0.5021(2) 0.7101(3)
C2 C 0.9639(5) 0.4518(3) 0.6497(4)
C3 C 1.0777(6) 0.4057(3) 0.6504(4)
C4 C 1.2031(6) 0.4125(3) 0.7289(4)
N3 N 1.3205(4) 0.3704(2) 0.7415(3)
H2 H 1.3184 0.3387 0.7006
H3 H 1.3971 0.3755 0.7906
N4 N 1.0442(6) 0.3608(2) 0.5768(3)
C5 C 0.9061(7) 0.3778(3) 0.5288(4)
H4 H 0.8501 0.3557 0.4735
N5 N 0.8563(5) 0.4312(2) 0.5700(3)
C6 C 0.7005(7) 0.4624(4) 0.5281(5)
H5 H 0.6692 0.4805 0.5785
H6 H 0.6336 0.4270 0.4949
H7 H 0.7021 0.4990 0.4848
C7 C 1.4481(4) 0.3152(2) 1.1079(3)
C8 C 1.5143(5) 0.3048(2) 1.2049(3)
H8 H 1.5802 0.3373 1.2409
C9 C 1.4819(5) 0.2460(2) 1.2481(3)
C10 C 1.3848(5) 0.1966(2) 1.1935(3)
H9 H 1.3608 0.1578 1.2224
C11 C 1.3239(5) 0.2057(2) 1.0956(3)
H10 H 1.2627 0.1719 1.0589
C12 C 1.3542(5) 0.2646(2) 1.0530(3)
H11 H 1.3124 0.2708 0.9878
C13 C 1.4714(4) 0.38219(19) 1.0642(3)
O1 O 1.3818(4) 0.39670(15) 0.9836(2)
O2 O 1.5760(3) 0.41956(14) 1.1124(2)
C14 C 1.5477(5) 0.2350(2) 1.3521(3)
O3 O 1.6375(4) 0.27724(18) 1.4047(2)
O4 O 1.5134(4) 0.18129(17) 1.3891(2)
C15 C 1.2878(4) 0.1676(2) 0.7507(3)
C16 C 1.2075(4) 0.1246(2) 0.7906(3)
H12 H 1.1086 0.1170 0.7583
C17 C 1.2722(4) 0.0926(2) 0.8782(3)
C18 C 1.4229(5) 0.1017(2) 0.9240(3)
H13 H 1.4686 0.0797 0.9815
C19 C 1.5045(5) 0.1436(2) 0.8833(3)
H14 H 1.6048 0.1487 0.9134
C20 C 1.4376(4) 0.1778(2) 0.7987(3)
H15 H 1.4919 0.2074 0.7736
C21 C 1.2082(5) 0.2016(2) 0.6570(3)
O5 O 1.2770(4) 0.24929(17) 0.6284(2)
O6 O 1.0825(4) 0.1838(2) 0.6134(3)
C22 C 1.1781(4) 0.0528(2) 0.9232(3)
O7 O 1.0427(3) 0.04961(15) 0.8777(2)
O8 O 1.2381(3) 0.02670(16) 1.0040(2)
O9 O 1.3229(4) 0.3581(2) 0.4976(3)
H16 H 1.3089 0.3536 0.4243
H17 H 1.4219 0.3332 0.5399
Cu1A Cu 1.11529(5) -0.01330(2) 1.07654(3)
Cu1B Cu 1.61529(5) 0.51330(2) 1.07654(3)
Cu1C Cu 0.88471(5) 0.01330(2) 0.92346(3)
Cu2C Cu 1.64904(6) 0.20621(3) 1.51515(3)
O2B O 1.4240(3) 0.58044(14) 0.8876(2)
O3C O 1.1375(4) 0.22276(18) 0.4047(2)
O4C O 1.0134(4) 0.31871(17) 0.3891(2)
O7C O 1.5427(3) 0.45039(15) 0.8777(2)
O8A O 1.2619(3) 0.52670(16) 0.9960(2)
O10 O 1.2586 0.3989 0.3101
loop_
_geom_bond_atom_site_label_1
_geom_bond_atom_site_label_2
_geom_bond_site_symmetry_1
_geom_bond_site_symmetry_2
Cu1 N1 1_555 1_555
Cu2 N4 1_555 1_555
N1 C1 1_555 1_555
C1 H1 1_555 1_555
N2 C1 1_555 1_555
C2 N2 1_555 1_555
C3 C2 1_555 1_555
C4 N1 1_555 1_555
N3 C4 1_555 1_555
H2 N3 1_555 1_555
H3 N3 1_555 1_555
N4 C3 1_555 1_555
C5 N4 1_555 1_555
H4 C5 1_555 1_555
N5 C2 1_555 1_555
C6 N5 1_555 1_555
H5 C6 1_555 1_555
H6 C6 1_555 1_555
H7 C6 1_555 1_555
C7 C8 1_555 1_555
C8 H8 1_555 1_555
C9 C8 1_555 1_555
C10 C9 1_555 1_555
H9 C10 1_555 1_555
C11 C10 1_555 1_555
H10 C11 1_555 1_555
C12 C7 1_555 1_555
H11 C12 1_555 1_555
C13 C7 1_555 1_555
O1 Cu1 1_555 1_555
O2 C13 1_555 1_555
C14 C9 1_555 1_555
O3 C14 1_555 1_555
O4 C14 1_555 1_555
C15 C16 1_555 1_555
C16 H12 1_555 1_555
C17 C16 1_555 1_555
C18 C17 1_555 1_555
H13 C18 1_555 1_555
C19 C18 1_555 1_555
H14 C19 1_555 1_555
C20 C15 1_555 1_555
H15 C20 1_555 1_555
C21 C15 1_555 1_555
O5 Cu2 1_555 1_555
O6 Cu2 1_555 1_555
C22 C17 1_555 1_555
O7 C22 1_555 1_555
O8 C22 1_555 1_555
O9 Cu2 1_555 1_555
H16 O9 1_555 1_555
H17 O9 1_555 1_555
Cu1A O8 1_555 1_555
Cu1B O2 1_555 1_555
Cu1C O7 1_555 1_555
Cu2C O3 1_555 1_555
O2B Cu1 1_555 1_555
O3C Cu2 1_555 1_555
O4C Cu2 1_555 1_555
O7C Cu1 1_555 1_555
O8A Cu1 1_555 1_555
C3 C4 1_555 1_555
C5 N5 1_555 1_555
C11 C12 1_555 1_555
C13 O1 1_555 1_555
O4 Cu2C 1_555 1_555
C19 C20 1_555 1_555
C21 O5 1_555 1_555
C21 O6 1_555 1_555

#END
