
#######################################################################
#
#                 Cambridge Crystallographic Data Centre
#                                CCDC 
#
#######################################################################
#
# If this CIF has been generated from an entry in the Cambridge 
# Structural Database, then it will include bibliographic, chemical, 
# crystal, experimental, refinement or atomic coordinate data resulting 
# from the CCDC's data processing and validation procedures.
#
#######################################################################

data_KIPXEM
_symmetry_cell_setting           orthorhombic
_symmetry_space_group_name_H-M   'P b c n'
_symmetry_Int_Tables_number      60
_space_group_name_Hall           '-P 2n 2ab'
loop_
_symmetry_equiv_pos_site_id
_symmetry_equiv_pos_as_xyz
1 x,y,z
2 1/2-x,1/2-y,1/2+z
3 1/2+x,1/2-y,-z
4 -x,y,1/2-z
5 -x,-y,-z
6 1/2+x,1/2+y,1/2-z
7 1/2-x,1/2+y,z
8 x,-y,1/2+z
_cell_length_a                   18.592(3)
_cell_length_b                   14.723(2)
_cell_length_c                   13.755(3)
_cell_angle_alpha                90
_cell_angle_beta                 90
_cell_angle_gamma                90
_cell_volume                     3765.16
loop_
_atom_site_label
_atom_site_type_symbol
_atom_site_fract_x
_atom_site_fract_y
_atom_site_fract_z
Cu1 Cu 0.32389(3) 0.16131(4) 0.39403(4)
O1 O 0.2201(2) 0.1618(2) 0.4049(2)
H1 H 0.206(3) 0.133(3) 0.464(2)
H2 H 0.198(3) 0.137(4) 0.349(2)
N1 N 0.4320(2) 0.1512(2) 0.3840(2)
C1 C 0.4817(2) 0.2197(3) 0.3792(3)
C2 C 0.5521(3) 0.1999(3) 0.3685(3)
C3 C 0.5724(2) 0.1083(3) 0.3649(3)
N2 N 0.5256(2) 0.0415(3) 0.3729(3)
C4 C 0.4578(2) 0.0674(3) 0.3819(3)
C5 C 0.4564(3) 0.3167(3) 0.3844(4)
O2 O 0.6417(2) 0.0891(3) 0.3527(3)
C6 C 0.6634(5) -0.0056(4) 0.3500(4)
N3 N 0.3357(2) 0.0242(3) 0.3994(3)
N4 N 0.4068(2) -0.0014(2) 0.3899(3)
C7 C 0.4116(3) -0.0949(3) 0.3898(3)
C8 C 0.3437(3) -0.1272(4) 0.3982(4)
C9 C 0.2982(3) -0.0535(3) 0.4045(3)
O3 O 0.4760(2) -0.1335(2) 0.3827(3)
C10 C 0.4747(4) -0.2317(3) 0.3769(4)
C11 C 0.2199(3) -0.0563(4) 0.4170(5)
O4 O 0.3185(2) 0.2524(2) 0.2865(2)
O5 O 0.3158(2) 0.3639(3) 0.0873(2)
O6 O 0.3358(2) 0.2292(2) 0.5280(2)
O7 O 0.1678(2) 0.1548(3) 0.2281(3)
C12 C 0.2749(2) 0.2574(3) 0.2159(3)
C13 C 0.2746(2) 0.3085(3) 0.1268(3)
C14 C 0.2936(2) 0.2337(3) 0.5993(3)
C15 C 0.2074(2) 0.2126(3) 0.1893(3)
H5 H 0.588 0.248 0.364
H6 H 0.498 0.357 0.380
H7 H 0.432 0.327 0.446
H8 H 0.423 0.329 0.331
H9 H 0.715 -0.011 0.341
H10 H 0.639 -0.035 0.296
H11 H 0.650 -0.035 0.410
H12 H 0.329 -0.190 0.399
H13 H 0.523 -0.255 0.372
H14 H 0.448 -0.250 0.320
H15 H 0.452 -0.256 0.435
H16 H 0.204 -0.119 0.419
H17 H 0.197 -0.025 0.363
H18 H 0.208 -0.026 0.477
C14A C 0.2064(2) 0.2663(3) 0.0993(3)
C13A C 0.2254(2) 0.1915(3) 0.6268(3)
C15A C 0.2926(2) 0.2874(3) 0.6893(3)
O6A O 0.1642(2) 0.2708(2) 0.0280(2)
O5A O 0.1842(2) 0.1361(3) 0.5873(2)
C12A C 0.2251(2) 0.2426(3) 0.7159(3)
O7A O 0.3322(2) 0.3452(3) 0.7281(3)
Cu1A Cu 0.17611(3) 0.33869(4) -0.10597(4)
O4A O 0.1815(2) 0.2476(2) 0.7865(2)
O1A O 0.2799(2) 0.3382(2) -0.0951(2)
N1A N 0.0680(2) 0.3488(2) -0.1160(2)
N3A N 0.1643(2) 0.4758(3) -0.1006(3)
O4A_2 O 0.1815(2) 0.2476(2) -0.2135(2)
Cu1A_2 Cu 0.17611(3) 0.33869(4) 0.89403(4)
H1A H 0.294(3) 0.367(3) -0.036(2)
H2A H 0.302(3) 0.363(4) -0.151(2)
C1A C 0.0183(2) 0.2803(3) -0.1208(3)
C4A C 0.0422(2) 0.4326(3) -0.1181(3)
N4A N 0.0932(2) 0.5014(2) -0.1101(3)
C9A C 0.2018(3) 0.5535(3) -0.0955(3)
C2A C -0.0521(3) 0.3001(3) -0.1315(3)
C5A C 0.0436(3) 0.1833(3) -0.1156(4)
N2A N -0.0256(2) 0.4585(3) -0.1271(3)
C7A C 0.0884(3) 0.5949(3) -0.1102(3)
C8A C 0.1563(3) 0.6272(4) -0.1018(4)
C11A C 0.2801(3) 0.5563(4) -0.0830(5)
C3A C -0.0724(2) 0.3917(3) -0.1351(3)
H5A H -0.088 0.252 -0.136
H6A H 0.002 0.143 -0.120
H7A H 0.068 0.173 -0.054
H8A H 0.077 0.171 -0.169
O3A O 0.0240(2) 0.6335(2) -0.1173(3)
H12A H 0.171 0.690 -0.101
H16A H 0.296 0.619 -0.081
H17A H 0.303 0.525 -0.137
H18A H 0.292 0.526 -0.023
O2A O -0.1417(2) 0.4109(3) -0.1473(3)
C10A C 0.0253(4) 0.7317(3) -0.1231(4)
C6A C -0.1634(5) 0.5056(4) -0.1500(4)
H13A H -0.023 0.755 -0.128
H14A H 0.052 0.750 -0.180
H15A H 0.048 0.756 -0.065
H9A H -0.215 0.511 -0.159
H10A H -0.139 0.535 -0.204
H11A H -0.150 0.535 -0.090
O8 O 0.0893(4) 0.0104(6) 0.1397(8)
H3 H 0.108(5) 0.004(4) 0.205(2)
H4 H 0.081(5) 0.075(1) 0.128(5)
O9 O -0.0556(5) 0.0586(5) 0.0972(8)
loop_
_geom_bond_atom_site_label_1
_geom_bond_atom_site_label_2
_geom_bond_site_symmetry_1
_geom_bond_site_symmetry_2
Cu1 O1 1_555 1_555
O1 H1 1_555 1_555
H2 O1 1_555 1_555
N1 Cu1 1_555 1_555
C1 N1 1_555 1_555
C2 C1 1_555 1_555
C3 C2 1_555 1_555
N2 C3 1_555 1_555
C4 N1 1_555 1_555
C5 C1 1_555 1_555
O2 C3 1_555 1_555
C6 O2 1_555 1_555
N3 Cu1 1_555 1_555
N4 C4 1_555 1_555
C7 N4 1_555 1_555
C8 C7 1_555 1_555
C9 N3 1_555 1_555
O3 C7 1_555 1_555
C10 O3 1_555 1_555
C11 C9 1_555 1_555
O4 Cu1 1_555 1_555
O5 C13 1_555 1_555
O6 Cu1 1_555 1_555
O7 C15 1_555 1_555
C12 O4 1_555 1_555
C13 C12 1_555 1_555
C14 O6 1_555 1_555
C15 C12 1_555 1_555
O8 H3 1_555 1_555
H4 O8 1_555 1_555
H5 C2 1_555 1_555
H6 C5 1_555 1_555
H7 C5 1_555 1_555
H8 C5 1_555 1_555
H9 C6 1_555 1_555
H10 C6 1_555 1_555
H11 C6 1_555 1_555
H12 C8 1_555 1_555
H13 C10 1_555 1_555
H14 C10 1_555 1_555
H15 C10 1_555 1_555
H16 C11 1_555 1_555
H17 C11 1_555 1_555
H18 C11 1_555 1_555
C14A C13 1_555 1_555
C13A C14 1_555 1_555
C15A C14 1_555 1_555
O6A C14A 1_555 1_555
O5A C13A 1_555 1_555
C12A C13A 1_555 1_555
O7A C15A 1_555 1_555
Cu1A O6A 1_555 1_555
O4A C12A 1_555 1_555
O1A Cu1A 1_555 1_555
N1A Cu1A 1_555 1_555
N3A Cu1A 1_555 1_555
O4A_2 Cu1A 1_555 1_555
Cu1A_2 O4A 1_555 1_555
H1A O1A 1_555 1_555
H2A O1A 1_555 1_555
C1A N1A 1_555 1_555
C4A N1A 1_555 1_555
N4A N3A 1_555 1_555
C9A N3A 1_555 1_555
C2A C1A 1_555 1_555
C5A C1A 1_555 1_555
N2A C4A 1_555 1_555
C7A N4A 1_555 1_555
C8A C9A 1_555 1_555
C11A C9A 1_555 1_555
C3A C2A 1_555 1_555
H5A C2A 1_555 1_555
H6A C5A 1_555 1_555
H7A C5A 1_555 1_555
H8A C5A 1_555 1_555
O3A C7A 1_555 1_555
H12A C8A 1_555 1_555
H16A C11A 1_555 1_555
H17A C11A 1_555 1_555
H18A C11A 1_555 1_555
O2A C3A 1_555 1_555
C10A O3A 1_555 1_555
C6A O2A 1_555 1_555
H13A C10A 1_555 1_555
H14A C10A 1_555 1_555
H15A C10A 1_555 1_555
H9A C6A 1_555 1_555
H10A C6A 1_555 1_555
H11A C6A 1_555 1_555
N2 C4 1_555 1_555
N3 N4 1_555 1_555
C8 C9 1_555 1_555
C15 C14A 1_555 1_555
C15A C12A 1_555 1_555
C4A N4A 1_555 1_555
N2A C3A 1_555 1_555
C7A C8A 1_555 1_555

#END
