
#######################################################################
#
#                 Cambridge Crystallographic Data Centre
#                                CCDC 
#
#######################################################################
#
# If this CIF has been generated from an entry in the Cambridge 
# Structural Database, then it will include bibliographic, chemical, 
# crystal, experimental, refinement or atomic coordinate data resulting 
# from the CCDC's data processing and validation procedures.
#
#######################################################################

data_KIPXUE
_symmetry_cell_setting           monoclinic
_symmetry_space_group_name_H-M   'P 21'
_symmetry_Int_Tables_number      4
_space_group_name_Hall           'P 2yb'
loop_
_symmetry_equiv_pos_site_id
_symmetry_equiv_pos_as_xyz
1 x,y,z
2 -x,1/2+y,-z
_cell_length_a                   10.7272(4)
_cell_length_b                   19.2135(7)
_cell_length_c                   13.6582(5)
_cell_angle_alpha                90
_cell_angle_beta                 95.605(2)
_cell_angle_gamma                90
_cell_volume                     2801.59
loop_
_atom_site_label
_atom_site_type_symbol
_atom_site_fract_x
_atom_site_fract_y
_atom_site_fract_z
Zn1 Zn 0.74896(7) 0.67403(6) 0.24876(5)
N1 N 0.5857(5) 0.6165(3) 0.2458(3)
N2 N 0.7961(5) 0.6256(3) 0.1229(4)
N3 N 0.9122(5) 0.7308(3) 0.2539(4)
N4 N 0.6994(5) 0.7243(3) 0.3742(3)
C1 C 0.4993(6) 0.6181(3) 0.3118(4)
C2 C 0.4054(7) 0.5638(4) 0.2900(5)
H1 H 0.3347 0.5540 0.3244
C3 C 0.4416(7) 0.5304(4) 0.2093(5)
H2 H 0.3996 0.4921 0.1768
C4 C 0.5537(7) 0.5626(4) 0.1816(5)
C5 C 0.6206(7) 0.5421(4) 0.1000(5)
C6 C 0.7330(6) 0.5726(4) 0.0731(5)
C7 C 0.7985(9) 0.5494(5) -0.0077(6)
H3 H 0.7725 0.5137 -0.0534
C8 C 0.9001(8) 0.5865(5) -0.0063(6)
H4 H 0.9616 0.5830 -0.0516
C9 C 0.9032(6) 0.6349(3) 0.0776(4)
C10 C 1.0000(6) 0.6835(3) 0.1054(4)
C11 C 1.0000(6) 0.7284(4) 0.1875(5)
C12 C 1.0876(7) 0.7835(4) 0.2090(6)
H5 H 1.1583 0.7931 0.1744
C13 C 1.0533(8) 0.8196(4) 0.2866(6)
H6 H 1.0928 0.8597 0.3160
C14 C 0.9438(8) 0.7844(4) 0.3155(5)
C15 C 0.8769(8) 0.8068(4) 0.3929(5)
C16 C 0.7644(8) 0.7786(4) 0.4196(5)
C17 C 0.6957(8) 0.8026(4) 0.4998(5)
H7 H 0.7197 0.8395 0.5441
C18 C 0.5890(7) 0.7621(4) 0.5002(5)
H8 H 0.5257 0.7657 0.5439
C19 C 0.5938(7) 0.7133(3) 0.4202(5)
C20 C 0.5004(7) 0.6658(4) 0.3919(4)
C21 C 0.5677(8) 0.4870(4) 0.0436(5)
C22 C 0.5241(8) 0.4380(4) -0.0039(6)
C23 C 0.4662(8) 0.3798(4) -0.0545(5)
C24 C 0.3475(8) 0.3561(5) -0.0382(7)
H9 H 0.2997 0.3798 0.0063
C25 C 0.3001(8) 0.2980(4) -0.0872(6)
H10 H 0.2221 0.2806 -0.0704
N5 N 0.3545(5) 0.2643(3) -0.1560(4)
C26 C 0.4667(7) 0.2878(4) -0.1750(5)
H11 H 0.5068 0.2645 -0.2247
C27 C 0.5301(7) 0.3439(3) -0.1277(4)
H12 H 0.6110 0.3577 -0.1430
C28 C 1.1087(6) 0.6852(4) 0.0491(5)
C29 C 1.1054(8) 0.7087(5) -0.0468(6)
H13 H 1.0268 0.7194 -0.0817
C30 C 1.2116(9) 0.7169(6) -0.0925(7)
H14 H 1.2051 0.7339 -0.1581
C31 C 1.3286(8) 0.7013(5) -0.0460(7)
C32 C 1.3358(7) 0.6758(6) 0.0452(6)
H15 H 1.4146 0.6618 0.0767
C33 C 1.2288(6) 0.6697(5) 0.0949(5)
H16 H 1.2371 0.6546 0.1614
O1 O 1.4388(8) 0.7080(6) -0.0875(6)
C34 C 1.4423(14) 0.7292(9) -0.1785(10)
H17 H 1.3740 0.7071 -0.2231
C35 C 1.4326(13) 0.8106(8) -0.1829(10)
H18 H 1.3637 0.8262 -0.1449
H19 H 1.5116 0.8312 -0.1521
C36 C 1.4077(13) 0.8373(9) -0.2917(9)
H20 H 1.3240 0.8226 -0.3192
H21 H 1.4707 0.8177 -0.3312
H22 H 1.4127 0.8882 -0.2926
C37 C 1.5709(13) 0.7131(8) -0.2126(10)
H23 H 1.6364 0.7332 -0.1659
H24 H 1.5764 0.7332 -0.2779
H25 H 1.5824 0.6626 -0.2156
C38 C 0.9267(9) 0.8672(5) 0.4502(6)
C39 C 0.9691(9) 0.9147(5) 0.4956(6)
C40 C 1.0263(8) 0.9719(4) 0.5517(6)
C41 C 0.9632(9) 1.0198(5) 0.5926(7)
H26 H 0.8742 1.0180 0.5861
C42 C 1.0253(9) 1.0745(5) 0.6468(7)
H27 H 0.9765 1.1082 0.6768
N6 N 1.1472(6) 1.0807(3) 0.6572(4)
C43 C 1.2137(9) 1.0334(4) 0.6113(6)
H28 H 1.3022 1.0375 0.6144
C44 C 1.1521(9) 0.9772(5) 0.5582(7)
H29 H 1.1999 0.9434 0.5274
C45 C 0.3904(7) 0.6607(3) 0.4549(4)
C46 C 0.2797(8) 0.6893(5) 0.4231(6)
H30 H 0.2700 0.7112 0.3604
C47 C 0.1773(8) 0.6876(6) 0.4808(7)
H31 H 0.0991 0.7075 0.4568
C48 C 0.1923(7) 0.6569(5) 0.5715(5)
C49 C 0.3071(9) 0.6291(5) 0.6060(6)
H32 H 0.3177 0.6085 0.6695
C50 C 0.4085(9) 0.6311(5) 0.5479(6)
H33 H 0.4878 0.6126 0.5720
O2 O 0.1011(8) 0.6506(7) 0.6358(6)
C51 C -0.0134(13) 0.7015(10) 0.6242(10)
H34 H -0.0451 0.7009 0.5529
C52 C -0.1080(12) 0.6778(10) 0.6734(9)
H35 H -0.1674 0.7165 0.6801
H36 H -0.0731 0.6644 0.7406
C53 C -0.1779(12) 0.6185(10) 0.6290(9)
H37 H -0.1347 0.5752 0.6495
H38 H -0.1834 0.6225 0.5572
H39 H -0.2624 0.6181 0.6505
C54 C 0.0253(13) 0.7742(11) 0.6477(9)
H40 H -0.0462 0.8054 0.6322
H41 H 0.0934 0.7874 0.6086
H42 H 0.0541 0.7779 0.7179
Zn1A Zn 0.25104(7) 0.17403(6) -0.24876(5)
Zn1A_2 Zn 1.25104(7) 1.17403(6) 0.75124(5)
N5A N 0.6455(5) 0.7643(3) 0.1560(4)
N6A N 0.8528(6) 0.5807(3) 0.3428(4)
C55 C 0.0205(14) 0.4285(7) 0.1195(9)
H43 H 0.0257 0.4782 0.0989
Cl1 Cl 0.1552(5) 0.4103(4) 0.1894(4)
Cl2 Cl -0.0038(5) 0.3804(3) 0.0140(4)
Cl3 Cl -0.1118(4) 0.4212(3) 0.1850(3)
C56 C 0.5265(10) 0.4221(6) 0.6144(8)
H44 H 0.4486 0.3988 0.6325
Cl4 Cl 0.6511(3) 0.36113(18) 0.6155(3)
Cl5 Cl 0.5011(3) 0.45915(14) 0.4958(2)
Cl6 Cl 0.5740(6) 0.4877(2) 0.7000(3)
C57 C 0.1691(19) 0.5008(16) 0.788(2)
H45 H 0.1736 0.5453 0.7503
Cl7 Cl 0.2564(5) 0.4491(3) 0.7319(4)
Cl8 Cl 0.0111(8) 0.4885(7) 0.7901(8)
Cl9 Cl 0.2299(8) 0.5255(4) 0.9124(8)
loop_
_geom_bond_atom_site_label_1
_geom_bond_atom_site_label_2
_geom_bond_site_symmetry_1
_geom_bond_site_symmetry_2
Zn1 N1 1_555 1_555
N1 C1 1_555 1_555
N2 Zn1 1_555 1_555
N3 Zn1 1_555 1_555
N4 Zn1 1_555 1_555
C1 C2 1_555 1_555
C2 H1 1_555 1_555
C3 C2 1_555 1_555
H2 C3 1_555 1_555
C4 N1 1_555 1_555
C5 C4 1_555 1_555
C6 N2 1_555 1_555
C7 C6 1_555 1_555
H3 C7 1_555 1_555
C8 C7 1_555 1_555
H4 C8 1_555 1_555
C9 N2 1_555 1_555
C10 C9 1_555 1_555
C11 N3 1_555 1_555
C12 C11 1_555 1_555
H5 C12 1_555 1_555
C13 C12 1_555 1_555
H6 C13 1_555 1_555
C14 N3 1_555 1_555
C15 C14 1_555 1_555
C16 N4 1_555 1_555
C17 C16 1_555 1_555
H7 C17 1_555 1_555
C18 C17 1_555 1_555
H8 C18 1_555 1_555
C19 N4 1_555 1_555
C20 C1 1_555 1_555
C21 C5 1_555 1_555
C22 C21 1_555 1_555
C23 C22 1_555 1_555
C24 C23 1_555 1_555
H9 C24 1_555 1_555
C25 C24 1_555 1_555
H10 C25 1_555 1_555
N5 C25 1_555 1_555
C26 N5 1_555 1_555
H11 C26 1_555 1_555
C27 C23 1_555 1_555
H12 C27 1_555 1_555
C28 C10 1_555 1_555
C29 C28 1_555 1_555
H13 C29 1_555 1_555
C30 C29 1_555 1_555
H14 C30 1_555 1_555
C31 C30 1_555 1_555
C32 C31 1_555 1_555
H15 C32 1_555 1_555
C33 C28 1_555 1_555
H16 C33 1_555 1_555
O1 C31 1_555 1_555
C34 O1 1_555 1_555
H17 C34 1_555 1_555
C35 C34 1_555 1_555
H18 C35 1_555 1_555
H19 C35 1_555 1_555
C36 C35 1_555 1_555
H20 C36 1_555 1_555
H21 C36 1_555 1_555
H22 C36 1_555 1_555
C37 C34 1_555 1_555
H23 C37 1_555 1_555
H24 C37 1_555 1_555
H25 C37 1_555 1_555
C38 C15 1_555 1_555
C39 C38 1_555 1_555
C40 C39 1_555 1_555
C41 C40 1_555 1_555
H26 C41 1_555 1_555
C42 C41 1_555 1_555
H27 C42 1_555 1_555
N6 C42 1_555 1_555
C43 N6 1_555 1_555
H28 C43 1_555 1_555
C44 C40 1_555 1_555
H29 C44 1_555 1_555
C45 C20 1_555 1_555
C46 C45 1_555 1_555
H30 C46 1_555 1_555
C47 C46 1_555 1_555
H31 C47 1_555 1_555
C48 C47 1_555 1_555
C49 C48 1_555 1_555
H32 C49 1_555 1_555
C50 C45 1_555 1_555
H33 C50 1_555 1_555
O2 C48 1_555 1_555
C51 O2 1_555 1_555
H34 C51 1_555 1_555
C52 C51 1_555 1_555
H35 C52 1_555 1_555
H36 C52 1_555 1_555
C53 C52 1_555 1_555
H37 C53 1_555 1_555
H38 C53 1_555 1_555
H39 C53 1_555 1_555
C54 C51 1_555 1_555
H40 C54 1_555 1_555
H41 C54 1_555 1_555
H42 C54 1_555 1_555
C55 H43 1_555 1_555
Cl1 C55 1_555 1_555
Cl2 C55 1_555 1_555
Cl3 C55 1_555 1_555
C56 H44 1_555 1_555
Cl4 C56 1_555 1_555
Cl5 C56 1_555 1_555
Cl6 C56 1_555 1_555
C57 H45 1_555 1_555
Cl7 C57 1_555 1_555
Cl8 C57 1_555 1_555
Cl9 C57 1_555 1_555
Zn1A N5 1_555 1_555
Zn1A_2 N6 1_555 1_555
N5A Zn1 1_555 1_555
N6A Zn1 1_555 1_555
C3 C4 1_555 1_555
C5 C6 1_555 1_555
C8 C9 1_555 1_555
C10 C11 1_555 1_555
C13 C14 1_555 1_555
C15 C16 1_555 1_555
C18 C19 1_555 1_555
C19 C20 1_555 1_555
C26 C27 1_555 1_555
C32 C33 1_555 1_555
C43 C44 1_555 1_555
C49 C50 1_555 1_555

#END
