
#######################################################################
#
#                 Cambridge Crystallographic Data Centre
#                                CCDC 
#
#######################################################################
#
# If this CIF has been generated from an entry in the Cambridge 
# Structural Database, then it will include bibliographic, chemical, 
# crystal, experimental, refinement or atomic coordinate data resulting 
# from the CCDC's data processing and validation procedures.
#
#######################################################################

data_KIPYUF
_symmetry_cell_setting           monoclinic
_symmetry_space_group_name_H-M   'P 21/c'
_symmetry_Int_Tables_number      14
_space_group_name_Hall           '-P 2ybc'
loop_
_symmetry_equiv_pos_site_id
_symmetry_equiv_pos_as_xyz
1 x,y,z
2 -x,1/2+y,1/2-z
3 -x,-y,-z
4 x,1/2-y,1/2+z
_cell_length_a                   16.0402(7)
_cell_length_b                   18.9585(8)
_cell_length_c                   20.3367(9)
_cell_angle_alpha                90
_cell_angle_beta                 105.888(4)
_cell_angle_gamma                90
_cell_volume                     5948.1
loop_
_atom_site_label
_atom_site_type_symbol
_atom_site_fract_x
_atom_site_fract_y
_atom_site_fract_z
Pt1 Pt 0.24812(3) 0.34928(3) 0.46533(3)
Pt2 Pt 0.26759(6) 0.46716(4) 0.10047(3)
Pt3 Pt 0.05689(3) 0.71264(3) 0.31758(3)
Ag1 Ag 0.63211(7) 0.33043(7) 0.35331(5)
N1 N 0.1395(7) 0.3316(7) 0.4980(7)
H1 H 0.1162 0.289 0.4823
H2 H 0.0999 0.3662 0.4817
H3 H 0.1542 0.3318 0.5445
N2 N 0.2254(8) 0.2613(7) 0.4099(7)
H4 H 0.2453 0.2665 0.3723
H5 H 0.1674 0.2527 0.3965
H6 H 0.2532 0.2245 0.4354
N3 N 0.2377(12) 0.3673(8) 0.0720(9)
H7 H 0.2649 0.3546 0.04
H8 H 0.1794 0.3633 0.054
H9 H 0.2552 0.3385 0.109
N4 N 0.1652(14) 0.5047(9) 0.0246(10)
H10 H 0.1822 0.5435 0.0052
H11 H 0.1211 0.5166 0.0426
H12 H 0.1468 0.4708 -0.0078
N5 N -0.0413(10) 0.7216(11) 0.2305(8)
H13 H -0.0238 0.7486 0.1998
H14 H -0.0879 0.7422 0.2402
H15 H -0.0564 0.678 0.2124
N6 N -0.0278(8) 0.6829(8) 0.3712(6)
H16 H -0.0037 0.6911 0.4165
H17 H -0.0399 0.6361 0.3644
H18 H -0.0777 0.7082 0.3565
N7 N 0.5117(7) 0.3724(8) 0.4016(5)
C1 C 0.4352(7) 0.3822(7) 0.3551(6)
C2 C 0.3592(7) 0.3774(6) 0.3738(6)
H19 H 0.3059 0.3832 0.3395
N8 N 0.3570(6) 0.3650(6) 0.4373(5)
C3 C 0.4329(8) 0.3586(9) 0.4863(7)
H20 H 0.4336 0.3499 0.5324
C4 C 0.5091(10) 0.3649(13) 0.4682(7)
H21 H 0.5622 0.3639 0.5032
N9 N 0.5097(7) 0.3732(6) 0.2693(5)
C5 C 0.4382(8) 0.3924(6) 0.2847(6)
C6 C 0.3684(8) 0.4227(7) 0.2347(6)
H22 H 0.3189 0.4383 0.2476
N10 N 0.3701(8) 0.4297(6) 0.1723(5)
C7 C 0.4418(11) 0.4099(9) 0.1564(7)
H23 H 0.4448 0.4136 0.1105
C8 C 0.5121(10) 0.3842(10) 0.2065(7)
H24 H 0.5641 0.3741 0.1946
N11 N 0.3668(9) 0.7009(7) 0.1629(6)
C9 C 0.2921(10) 0.6780(8) 0.1738(7)
C10 C 0.2647(10) 0.6087(7) 0.1570(6)
H25 H 0.2129 0.5926 0.166
N12 N 0.3097(11) 0.5645(7) 0.1283(6)
C11 C 0.3807(15) 0.5877(12) 0.1168(9)
H26 H 0.4136 0.5573 0.0963
C12 C 0.4103(14) 0.6592(10) 0.1347(11)
H27 H 0.4621 0.6753 0.1257
N13 N 0.2573(9) 0.7945(6) 0.2001(7)
C13 C 0.2453(8) 0.7273(7) 0.2068(7)
C14 C 0.1871(9) 0.7058(8) 0.2420(6)
H28 H 0.18 0.6565 0.2473
N14 N 0.1424(7) 0.7476(6) 0.2679(5)
C15 C 0.1532(13) 0.8145(8) 0.2592(9)
H29 H 0.1198 0.8476 0.2762
C16 C 0.2088(13) 0.8377(9) 0.2276(11)
H30 H 0.2154 0.8872 0.2238
N15 N 0.2799(7) 0.6882(6) 0.5251(5)
C17 C 0.2365(8) 0.6320(7) 0.4951(7)
C18 C 0.1713(8) 0.6402(7) 0.4337(6)
H31 H 0.1397 0.5998 0.413
N16 N 0.1524(7) 0.7016(6) 0.4037(5)
C19 C 0.1963(9) 0.7571(8) 0.4342(7)
H32 H 0.1834 0.8026 0.4143
C20 C 0.2609(9) 0.7495(8) 0.4950(8)
H33 H 0.2924 0.79 0.5154
N17 N 0.2945(7) 0.5637(7) 0.5946(5)
C21 C 0.2596(7) 0.5626(7) 0.5289(6)
C22 C 0.2469(8) 0.5014(8) 0.4900(7)
H34 H 0.2242 0.5038 0.4417
N18 N 0.2668(6) 0.4388(6) 0.5211(5)
C23 C 0.2986(10) 0.4384(9) 0.5872(8)
H35 H 0.3137 0.3948 0.6104
C24 C 0.3101(12) 0.4969(10) 0.6218(8)
H36 H 0.3311 0.4933 0.6701
Ag1A Ag 0.36789(7) 0.83043(7) 0.14669(5)
Ag1B Ag 0.36789(7) 0.66957(7) 0.64669(5)
N11A N 0.6332(9) 0.2009(7) 0.3371(6)
N13A N 0.7427(9) 0.2945(6) 0.2999(7)
N15B N 0.7201(7) 0.3118(6) 0.4749(5)
N17B N 0.7055(7) 0.4363(7) 0.4054(5)
Si1 Si -0.2708(3) 0.7244(3) 0.2785(3)
F1 F -0.3354(8) 0.7723(6) 0.3070(7)
F2 F -0.3233(10) 0.7433(8) 0.1971(7)
F3 F -0.2024(8) 0.6783(8) 0.2487(6)
F4 F -0.3310(9) 0.6531(7) 0.2750(9)
F5 F -0.2175(8) 0.7035(10) 0.3587(6)
F6 F -0.2048(15) 0.7913(11) 0.2812(9)
Si2 Si 0.0204(7) 0.8257(6) 0.5358(6)
F7 F 0.1137(12) 0.8573(10) 0.5233(10)
F8 F -0.0785(12) 0.8005(11) 0.5432(10)
F9 F 0.0053(13) 0.9072(12) 0.5554(10)
F10 F 0.0429(11) 0.7417(11) 0.5074(10)
F11 F 0.0617(11) 0.8029(11) 0.6118(10)
F12 F -0.0273(12) 0.8556(10) 0.4552(10)
B1 B 0.3483(12) 0.5727(10) 0.3510(8)
F13 F 0.3275(17) 0.6415(10) 0.3736(14)
F14 F 0.4076(13) 0.5361(13) 0.4076(9)
F15 F 0.3897(15) 0.5820(12) 0.2962(10)
F16 F 0.2696(12) 0.5317(11) 0.3266(11)
O1 O -0.0556(13) 0.8576(12) 0.1693(10)
O2 O -0.4583(13) 0.7021(14) 0.3616(10)
O3 O 0.0624(15) 0.9041(12) 0.3601(13)
O4 O -0.1945(18) 0.5272(12) 0.2703(14)
O5 O 0.2894(18) 0.5924(15) -0.0392(14)
O6 O 0.3638(13) 0.1739(13) 0.5007(15)
O7 O 0.5248(15) 0.5585(13) 0.2533(14)
O8 O 0.3291(17) 0.6521(13) -0.1239(13)
O9 O 0.1672(17) 0.407(2) 0.266(2)
O10 O 0.608(4) 0.612(3) 0.124(3)
Si3? Si -0.0223(7) 0.8610(6) 0.5753(6)
F17? F -0.0324(12) 0.9394(11) 0.5466(10)
F18? F 0.0769(13) 0.8530(10) 0.5590(11)
F19? F -0.0727(12) 0.8341(11) 0.4984(10)
F20? F 0.0248(11) 0.8899(10) 0.6578(10)
F21? F -0.0169(12) 0.7766(10) 0.6032(10)
F22? F -0.1221(12) 0.8644(10) 0.5836(10)
B2? B 0.3689(12) 0.5778(10) 0.3614(9)
F23? F 0.3393(17) 0.6449(11) 0.3814(14)
F24? F 0.3600(15) 0.5234(12) 0.4092(10)
F25? F 0.4602(11) 0.5839(12) 0.3632(11)
F26? F 0.3175(14) 0.5600(12) 0.2930(8)
O11? O 0.105(2) 0.9737(18) 0.685(3)
O12? O 0.388(3) 0.745(3) -0.147(2)
O13? O 0.480(3) 0.713(3) -0.037(2)
O14? O 0.424(4) 0.572(3) -0.049(3)
Si4? Si -0.0221(10) 0.4905(8) 0.4573(9)
F27? F 0.0058(17) 0.5773(10) 0.4771(16)
F28? F 0.0712(14) 0.4591(14) 0.4989(15)
F29? F -0.0579(13) 0.4109(12) 0.4132(14)
F30? F 0.0339(16) 0.4948(13) 0.3996(14)
F31? F -0.1163(13) 0.5181(13) 0.4106(13)
F32? F -0.0824(17) 0.4500(13) 0.5003(15)
loop_
_geom_bond_atom_site_label_1
_geom_bond_atom_site_label_2
_geom_bond_site_symmetry_1
_geom_bond_site_symmetry_2
Pt1 N1 1_555 1_555
Pt2 N3 1_555 1_555
Pt3 N5 1_555 1_555
Ag1 N7 1_555 1_555
N1 H1 1_555 1_555
H2 N1 1_555 1_555
H3 N1 1_555 1_555
N2 Pt1 1_555 1_555
H4 N2 1_555 1_555
H5 N2 1_555 1_555
H6 N2 1_555 1_555
N3 H7 1_555 1_555
H8 N3 1_555 1_555
H9 N3 1_555 1_555
N4 Pt2 1_555 1_555
H10 N4 1_555 1_555
H11 N4 1_555 1_555
H12 N4 1_555 1_555
N5 H13 1_555 1_555
H14 N5 1_555 1_555
H15 N5 1_555 1_555
N6 Pt3 1_555 1_555
H16 N6 1_555 1_555
H17 N6 1_555 1_555
H18 N6 1_555 1_555
N7 C1 1_555 1_555
C1 C2 1_555 1_555
C2 H19 1_555 1_555
N8 Pt1 1_555 1_555
C3 N8 1_555 1_555
H20 C3 1_555 1_555
C4 N7 1_555 1_555
H21 C4 1_555 1_555
N9 Ag1 1_555 1_555
C5 C1 1_555 1_555
C6 C5 1_555 1_555
H22 C6 1_555 1_555
N10 Pt2 1_555 1_555
C7 N10 1_555 1_555
H23 C7 1_555 1_555
C8 N9 1_555 1_555
H24 C8 1_555 1_555
N11 C9 1_555 1_555
C9 C10 1_555 1_555
C10 H25 1_555 1_555
N12 Pt2 1_555 1_555
C11 N12 1_555 1_555
H26 C11 1_555 1_555
C12 N11 1_555 1_555
H27 C12 1_555 1_555
N13 C13 1_555 1_555
C13 C9 1_555 1_555
C14 C13 1_555 1_555
H28 C14 1_555 1_555
N14 Pt3 1_555 1_555
C15 N14 1_555 1_555
H29 C15 1_555 1_555
C16 N13 1_555 1_555
H30 C16 1_555 1_555
N15 C17 1_555 1_555
C17 C18 1_555 1_555
C18 H31 1_555 1_555
N16 Pt3 1_555 1_555
C19 N16 1_555 1_555
H32 C19 1_555 1_555
C20 N15 1_555 1_555
H33 C20 1_555 1_555
N17 C21 1_555 1_555
C21 C17 1_555 1_555
C22 C21 1_555 1_555
H34 C22 1_555 1_555
N18 Pt1 1_555 1_555
C23 N18 1_555 1_555
H35 C23 1_555 1_555
C24 N17 1_555 1_555
H36 C24 1_555 1_555
Si1 F1 1_555 1_555
F2 Si1 1_555 1_555
F3 Si1 1_555 1_555
F4 Si1 1_555 1_555
F5 Si1 1_555 1_555
F6 Si1 1_555 1_555
Si2 F7 1_555 1_555
F8 Si2 1_555 1_555
F9 Si2 1_555 1_555
F10 Si2 1_555 1_555
F11 Si2 1_555 1_555
F12 Si2 1_555 1_555
B1 F13 1_555 1_555
F14 B1 1_555 1_555
F15 B1 1_555 1_555
F16 B1 1_555 1_555
Ag1A N11 1_555 1_555
Ag1B N15 1_555 1_555
N11A Ag1 1_555 1_555
N13A Ag1 1_555 1_555
N15B Ag1 1_555 1_555
N17B Ag1 1_555 1_555
C2 N8 1_555 1_555
C3 C4 1_555 1_555
N9 C5 1_555 1_555
C6 N10 1_555 1_555
C7 C8 1_555 1_555
C10 N12 1_555 1_555
C11 C12 1_555 1_555
N13 Ag1A 1_555 1_555
C14 N14 1_555 1_555
C15 C16 1_555 1_555
C18 N16 1_555 1_555
C19 C20 1_555 1_555
N17 Ag1B 1_555 1_555
C22 N18 1_555 1_555
C23 C24 1_555 1_555

#END
