
#######################################################################
#
#                 Cambridge Crystallographic Data Centre
#                                CCDC 
#
#######################################################################
#
# If this CIF has been generated from an entry in the Cambridge 
# Structural Database, then it will include bibliographic, chemical, 
# crystal, experimental, refinement or atomic coordinate data resulting 
# from the CCDC's data processing and validation procedures.
#
#######################################################################

data_KIPYAL
_symmetry_cell_setting           monoclinic
_symmetry_space_group_name_H-M   'P 21'
_symmetry_Int_Tables_number      4
_space_group_name_Hall           'P 2yb'
loop_
_symmetry_equiv_pos_site_id
_symmetry_equiv_pos_as_xyz
1 x,y,z
2 -x,1/2+y,-z
_cell_length_a                   10.9454(3)
_cell_length_b                   17.1422(6)
_cell_length_c                   11.7118(4)
_cell_angle_alpha                90
_cell_angle_beta                 99.639(2)
_cell_angle_gamma                90
_cell_volume                     2166.44
loop_
_atom_site_label
_atom_site_type_symbol
_atom_site_fract_x
_atom_site_fract_y
_atom_site_fract_z
Zn1 Zn 0.24714(3) 0.11164(4) 0.24449(3)
N1 N 0.3522(2) 0.01561(17) 0.3077(2)
N2 N 0.1959(2) 0.05636(17) 0.0874(2)
N3 N 0.1398(2) 0.20667(16) 0.1812(2)
N4 N 0.2979(2) 0.16722(17) 0.4014(2)
C1 C 0.4131(3) 0.0057(2) 0.4189(3)
C2 C 0.4638(3) -0.0727(2) 0.4308(3)
H1 H 0.5090 -0.0953 0.4992
C3 C 0.4347(3) -0.1075(2) 0.3270(3)
H2 H 0.4571 -0.1588 0.3079
C4 C 0.3636(3) -0.0527(2) 0.2501(3)
C5 C 0.3120(3) -0.0666(2) 0.1337(3)
C6 C 0.2335(3) -0.0163(2) 0.0584(3)
C7 C 0.1843(3) -0.0321(2) -0.0621(3)
H3 H 0.1947 -0.0786 -0.1035
C8 C 0.1205(3) 0.0323(2) -0.1043(3)
H4 H 0.0778 0.0393 -0.1812
C9 C 0.1292(3) 0.0880(2) -0.0119(3)
C10 C 0.0754(3) 0.1630(2) -0.0212(3)
C11 C 0.0785(3) 0.2174(2) 0.0707(3)
C12 C 0.0203(3) 0.2941(2) 0.0608(3)
H5 H -0.0270 0.3164 -0.0067
C13 C 0.0469(3) 0.3275(2) 0.1674(3)
H6 H 0.0200 0.3772 0.1894
C14 C 0.1241(3) 0.2728(2) 0.2407(3)
C15 C 0.1789(3) 0.2887(2) 0.3572(3)
C16 C 0.2626(3) 0.2398(2) 0.4302(3)
C17 C 0.3183(3) 0.2582(2) 0.5477(3)
H7 H 0.3097 0.3055 0.5879
C18 C 0.3852(3) 0.1948(2) 0.5894(3)
H8 H 0.4325 0.1892 0.6647
C19 C 0.3711(3) 0.13723(19) 0.4975(3)
C20 C 0.4225(3) 0.0606(2) 0.5087(3)
C21 C 0.3485(3) -0.1375(2) 0.0816(3)
C22 C 0.3852(3) -0.1910(2) 0.0340(3)
C23 C 0.4496(3) -0.2417(2) -0.0342(3)
C24 C 0.4662(3) -0.3211(2) -0.0153(3)
H9 H 0.4301 -0.3467 0.0429
C25 C 0.5367(3) -0.3628(2) -0.0829(3)
H10 H 0.5471 -0.4172 -0.0692
N5 N 0.5901(2) -0.33101(18) -0.1654(2)
C26 C 0.5694(3) -0.2543(2) -0.1863(3)
H11 H 0.6036 -0.2310 -0.2474
C27 C 0.5012(3) -0.2080(2) -0.1240(3)
H12 H 0.4896 -0.1541 -0.1416
C28 C 0.0170(3) 0.1883(2) -0.1396(3)
C29 C -0.1081(3) 0.2054(2) -0.1716(3)
H13 H -0.1605 0.2027 -0.1147
C30 C -0.1589(3) 0.2262(3) -0.2834(3)
H14 H -0.2451 0.2368 -0.3025
C31 C -0.0838(3) 0.2317(2) -0.3682(3)
C32 C 0.0429(3) 0.2160(2) -0.3371(3)
H15 H 0.0957 0.2203 -0.3935
C33 C 0.0913(3) 0.1945(2) -0.2263(3)
H16 H 0.1774 0.1835 -0.2073
O1 O -0.1202(2) 0.2515(2) -0.48096(19)
C34 C -0.2470(3) 0.2782(2) -0.5196(3)
H17 H -0.2744 0.3104 -0.4573
C35 C -0.3351(4) 0.2105(3) -0.5490(4)
H18 H -0.3354 0.1791 -0.4781
H19 H -0.4198 0.2315 -0.5729
C36 C -0.3064(4) 0.1585(3) -0.6413(5)
H20 H -0.3058 0.1888 -0.7121
H21 H -0.3695 0.1175 -0.6561
H22 H -0.2248 0.1347 -0.6168
C37 C -0.2351(4) 0.3311(3) -0.6252(3)
H23 H -0.1801 0.3750 -0.5996
H24 H -0.3172 0.3509 -0.6594
H25 H -0.2007 0.3007 -0.6832
C38 C 0.1400(3) 0.3578(2) 0.4098(3)
C39 C 0.1010(3) 0.4110(3) 0.4605(3)
C40 C 0.0423(3) 0.4623(2) 0.5320(3)
C41 C 0.0206(4) 0.5407(2) 0.5093(3)
H26 H 0.0476 0.5649 0.4449
C42 C -0.0416(3) 0.5836(2) 0.5826(3)
H27 H -0.0542 0.6377 0.5675
N6 N -0.0846(2) 0.55302(18) 0.6731(2)
C43 C -0.0620(3) 0.4780(2) 0.6950(3)
H28 H -0.0907 0.4554 0.7597
C44 C 0.0009(3) 0.4310(2) 0.6292(3)
H29 H 0.0160 0.3779 0.6496
C45 C 0.4820(3) 0.0374(2) 0.6270(3)
C46 C 0.4115(3) 0.0302(2) 0.7146(3)
H30 H 0.3249 0.0400 0.6977
C47 C 0.4641(3) 0.0091(2) 0.8251(3)
H31 H 0.4138 0.0048 0.8835
C48 C 0.5911(3) -0.0059(2) 0.8523(3)
C49 C 0.6630(3) -0.0017(3) 0.7670(3)
H32 H 0.7487 -0.0140 0.7838
C50 C 0.6088(3) 0.0209(3) 0.6545(3)
H33 H 0.6591 0.0251 0.5961
O2 O 0.6296(2) -0.02796(19) 0.9658(2)
C51 C 0.7573(5) -0.0474(4) 1.0051(5)
H34 H 0.7895 -0.0752 0.9412
C52 C 0.7599(5) -0.1033(4) 1.1059(4)
H35 H 0.8464 -0.1193 1.1348
H36 H 0.7118 -0.1507 1.0791
C53 C 0.7053(4) -0.0656(4) 1.2041(4)
H37 H 0.7425 -0.0140 1.2211
H38 H 0.7228 -0.0984 1.2734
H39 H 0.6154 -0.0601 1.1809
C54 C 0.8301(5) 0.0237(4) 1.0329(5)
H40 H 0.8247 0.0561 0.9633
H41 H 0.9169 0.0098 1.0605
H42 H 0.7976 0.0527 1.0933
Zn1A Zn -0.24714(3) 0.61164(4) 0.75551(3)
Zn1A_2 Zn 0.75286(3) -0.38836(4) -0.24449(3)
N5A N 0.4099(2) 0.16899(18) 0.1654(2)
N6A N 0.0846(2) 0.05302(18) 0.3269(2)
loop_
_geom_bond_atom_site_label_1
_geom_bond_atom_site_label_2
_geom_bond_site_symmetry_1
_geom_bond_site_symmetry_2
Zn1 N1 1_555 1_555
N1 C1 1_555 1_555
N2 Zn1 1_555 1_555
N3 Zn1 1_555 1_555
N4 Zn1 1_555 1_555
C1 C2 1_555 1_555
C2 H1 1_555 1_555
C3 C2 1_555 1_555
H2 C3 1_555 1_555
C4 N1 1_555 1_555
C5 C4 1_555 1_555
C6 N2 1_555 1_555
C7 C6 1_555 1_555
H3 C7 1_555 1_555
C8 C7 1_555 1_555
H4 C8 1_555 1_555
C9 N2 1_555 1_555
C10 C9 1_555 1_555
C11 N3 1_555 1_555
C12 C11 1_555 1_555
H5 C12 1_555 1_555
C13 C12 1_555 1_555
H6 C13 1_555 1_555
C14 N3 1_555 1_555
C15 C14 1_555 1_555
C16 N4 1_555 1_555
C17 C16 1_555 1_555
H7 C17 1_555 1_555
C18 C17 1_555 1_555
H8 C18 1_555 1_555
C19 N4 1_555 1_555
C20 C1 1_555 1_555
C21 C5 1_555 1_555
C22 C21 1_555 1_555
C23 C22 1_555 1_555
C24 C23 1_555 1_555
H9 C24 1_555 1_555
C25 C24 1_555 1_555
H10 C25 1_555 1_555
N5 C25 1_555 1_555
C26 N5 1_555 1_555
H11 C26 1_555 1_555
C27 C23 1_555 1_555
H12 C27 1_555 1_555
C28 C10 1_555 1_555
C29 C28 1_555 1_555
H13 C29 1_555 1_555
C30 C29 1_555 1_555
H14 C30 1_555 1_555
C31 C30 1_555 1_555
C32 C31 1_555 1_555
H15 C32 1_555 1_555
C33 C28 1_555 1_555
H16 C33 1_555 1_555
O1 C31 1_555 1_555
C34 O1 1_555 1_555
H17 C34 1_555 1_555
C35 C34 1_555 1_555
H18 C35 1_555 1_555
H19 C35 1_555 1_555
C36 C35 1_555 1_555
H20 C36 1_555 1_555
H21 C36 1_555 1_555
H22 C36 1_555 1_555
C37 C34 1_555 1_555
H23 C37 1_555 1_555
H24 C37 1_555 1_555
H25 C37 1_555 1_555
C38 C15 1_555 1_555
C39 C38 1_555 1_555
C40 C39 1_555 1_555
C41 C40 1_555 1_555
H26 C41 1_555 1_555
C42 C41 1_555 1_555
H27 C42 1_555 1_555
N6 C42 1_555 1_555
C43 N6 1_555 1_555
H28 C43 1_555 1_555
C44 C40 1_555 1_555
H29 C44 1_555 1_555
C45 C20 1_555 1_555
C46 C45 1_555 1_555
H30 C46 1_555 1_555
C47 C46 1_555 1_555
H31 C47 1_555 1_555
C48 C47 1_555 1_555
C49 C48 1_555 1_555
H32 C49 1_555 1_555
C50 C45 1_555 1_555
H33 C50 1_555 1_555
O2 C48 1_555 1_555
C51 O2 1_555 1_555
H34 C51 1_555 1_555
C52 C51 1_555 1_555
H35 C52 1_555 1_555
H36 C52 1_555 1_555
C53 C52 1_555 1_555
H37 C53 1_555 1_555
H38 C53 1_555 1_555
H39 C53 1_555 1_555
C54 C51 1_555 1_555
H40 C54 1_555 1_555
H41 C54 1_555 1_555
H42 C54 1_555 1_555
Zn1A N6 1_555 1_555
Zn1A_2 N5 1_555 1_555
N5A Zn1 1_555 1_555
N6A Zn1 1_555 1_555
C3 C4 1_555 1_555
C5 C6 1_555 1_555
C8 C9 1_555 1_555
C10 C11 1_555 1_555
C13 C14 1_555 1_555
C15 C16 1_555 1_555
C18 C19 1_555 1_555
C19 C20 1_555 1_555
C26 C27 1_555 1_555
C32 C33 1_555 1_555
C43 C44 1_555 1_555
C49 C50 1_555 1_555

#END
