
#######################################################################
#
#                 Cambridge Crystallographic Data Centre
#                                CCDC 
#
#######################################################################
#
# If this CIF has been generated from an entry in the Cambridge 
# Structural Database, then it will include bibliographic, chemical, 
# crystal, experimental, refinement or atomic coordinate data resulting 
# from the CCDC's data processing and validation procedures.
#
#######################################################################

data_KIPZAM
_symmetry_cell_setting           monoclinic
_symmetry_space_group_name_H-M   'P 21/n'
_symmetry_Int_Tables_number      14
_space_group_name_Hall           '-P 2yn'
loop_
_symmetry_equiv_pos_site_id
_symmetry_equiv_pos_as_xyz
1 x,y,z
2 1/2-x,1/2+y,1/2-z
3 -x,-y,-z
4 1/2+x,1/2-y,1/2+z
_cell_length_a                   15.182(3)
_cell_length_b                   9.7285(19)
_cell_length_c                   19.240(4)
_cell_angle_alpha                90
_cell_angle_beta                 100.61(3)
_cell_angle_gamma                90
_cell_volume                     2793.13
loop_
_atom_site_label
_atom_site_type_symbol
_atom_site_fract_x
_atom_site_fract_y
_atom_site_fract_z
Co1 Co 0.63802(5) 0.31346(7) 0.40262(4)
Co2 Co 0.71931(5) 0.52340(8) 0.55193(4)
O1 O 0.3672(3) 0.3624(4) 0.4039(2)
O2 O 0.6416(3) 0.5298(4) 0.4478(2)
O3 O 0.5016(3) 0.3224(4) 0.3799(2)
N1 N 0.6348(3) 1.1598(5) 0.3243(3)
O4 O 0.7751(3) 0.2927(4) 0.4165(2)
N2 N 0.8007(3) 0.4817(5) 0.6544(2)
O5 O 0.8503(3) 0.8445(4) 0.9332(2)
O6 O 0.8176(3) 0.4263(5) 0.5108(2)
O7 O 0.6409(3) 0.4910(4) 0.3367(2)
O8 O 0.8700(3) 0.6827(4) 1.0170(2)
N3 N 1.2046(3) 0.2877(5) 0.4515(3)
C1 C 0.6381(5) 1.1925(6) 0.2573(3)
H1 H 0.6365 1.2849 0.2447
C2 C 0.8034(4) 0.5644(6) 0.7093(3)
H2 H 0.7720 0.6468 0.7020
C3 C 0.8650(4) 0.7249(6) 0.9544(3)
C4 C 0.8918(4) 0.3255(6) 0.7306(3)
H3 H 0.9211 0.2412 0.7366
C5 C 1.1151(4) 0.2977(6) 0.4436(3)
H4 H 1.0904 0.3855 0.4394
C6 C 0.9606(4) 0.2138(6) 0.4339(3)
H5 H 0.9212 0.1552 0.4053
C7 C 1.0572(4) 0.1891(6) 0.4412(3)
C8 C 0.6409(4) 0.5738(6) 0.3866(3)
C9 C 0.8495(4) 0.5368(6) 0.7767(3)
C10 C 0.6352(4) 1.0269(6) 0.3404(3)
H6 H 0.6314 1.0028 0.3865
C11 C 0.6416(4) 0.7769(6) 0.3112(3)
H7 H 0.6452 0.7151 0.2750
C12 C 0.8778(4) 0.6192(6) 0.9013(3)
H8 H 0.9081 0.5386 0.9168
C13 C 0.8316(4) 0.3466(6) 0.4633(3)
C14 C 0.9275(4) 0.3147(6) 0.4660(3)
H9 H 0.9687 0.3726 0.4935
C15 C 0.6409(4) 0.9220(6) 0.2926(3)
C16 C 0.4502(4) 0.3752(7) 0.4134(4)
C17 C 0.8476(4) 0.6354(6) 0.8328(3)
H10 H 0.8221 0.7204 0.8190
C18 C 0.8457(4) 0.3631(6) 0.6659(3)
H11 H 0.8455 0.3038 0.6279
C19 C 0.6376(4) 0.7232(6) 0.3727(3)
H12 H 0.6324 0.7822 0.4098
C20 C 1.2390(4) 0.1616(7) 0.4564(3)
H13 H 1.3007 0.1516 0.4612
C21 C 0.6438(6) 1.0964(7) 0.2066(4)
H14 H 0.6464 1.1231 0.1606
C22 C 0.8947(4) 0.4129(6) 0.7867(3)
H15 H 0.9268 0.3892 0.8310
C23 C 0.6456(5) 0.9586(6) 0.2247(3)
H16 H 0.6500 0.8915 0.1911
C24 C 1.1872(5) 0.0457(7) 0.4547(4)
H17 H 1.2139 -0.0406 0.4597
C25 C 1.0943(5) 0.0576(7) 0.4457(4)
H18 H 1.0580 -0.0200 0.4426
H19 H 0.472(4) 0.426(6) 0.441(3)
Co1_2 Co 0.63802(5) 1.31346(7) 0.40262(4)
Co1A Co 0.86198(5) 0.81346(7) 1.09738(4)
Co2A Co 0.78069(5) 1.02340(8) 0.94807(4)
Co2B Co 0.28069(5) 0.47660(8) 0.44807(4)
Co2B_2 Co 1.28069(5) 0.47660(8) 0.44807(4)
O1B O 0.6328(3) 0.6376(4) 0.5961(2)
N1_2 N 0.6348(3) 0.1598(5) 0.3243(3)
O5A O 0.6497(3) 0.3445(4) 0.5668(2)
O8A O 0.6300(3) 0.1827(4) 0.4830(2)
N3B N 0.7954(3) 0.7123(5) 0.5485(3)
O9 O 0.4967(5) 0.5081(7) 0.2178(3)
C26 C 0.4248(9) 0.5789(15) 0.2408(7)
H20 H 0.538(7) 0.492(9) 0.265(5)
H21 H 0.370(11) 0.562(16) 0.193(9)
H22 H 0.425(10) 0.562(15) 0.287(8)
H23 H 0.436(8) 0.695(14) 0.225(6)
loop_
_geom_bond_atom_site_label_1
_geom_bond_atom_site_label_2
_geom_bond_site_symmetry_1
_geom_bond_site_symmetry_2
Co1 O2 1_555 1_555
Co2 O2 1_555 1_555
O1 C16 1_555 1_555
O2 C8 1_555 1_555
O3 Co1 1_555 1_555
N1 C1 1_555 1_555
O4 Co1 1_555 1_555
N2 Co2 1_555 1_555
O5 C3 1_555 1_555
O6 Co2 1_555 1_555
O7 Co1 1_555 1_555
O8 C3 1_555 1_555
N3 C5 1_555 1_555
C1 H1 1_555 1_555
C2 N2 1_555 1_555
H2 C2 1_555 1_555
C3 C12 1_555 1_555
C4 H3 1_555 1_555
C5 H4 1_555 1_555
C6 H5 1_555 1_555
C7 C5 1_555 1_555
C8 O7 1_555 1_555
C9 C2 1_555 1_555
C10 N1 1_555 1_555
H6 C10 1_555 1_555
C11 H7 1_555 1_555
C12 H8 1_555 1_555
C13 O4 1_555 1_555
C14 C6 1_555 1_555
H9 C14 1_555 1_555
C15 C10 1_555 1_555
C16 O3 1_555 1_555
C17 C9 1_555 1_555
H10 C17 1_555 1_555
C18 N2 1_555 1_555
H11 C18 1_555 1_555
C19 C8 1_555 1_555
H12 C19 1_555 1_555
C20 N3 1_555 1_555
H13 C20 1_555 1_555
C21 C1 1_555 1_555
H14 C21 1_555 1_555
C22 C4 1_555 1_555
H15 C22 1_555 1_555
C23 C15 1_555 1_555
H16 C23 1_555 1_555
C24 C20 1_555 1_555
H17 C24 1_555 1_555
C25 C7 1_555 1_555
H18 C25 1_555 1_555
H19 C16 1_555 1_555
O9 C26 1_555 1_555
C26 H21 1_555 1_555
H20 O9 1_555 1_555
H22 C26 1_555 1_555
H23 C26 1_555 1_555
Co1_2 N1 1_555 1_555
Co1A O8 1_555 1_555
Co2A O5 1_555 1_555
Co2B O1 1_555 1_555
Co2B_2 N3 1_555 1_555
O1B Co2 1_555 1_555
N1_2 Co1 1_555 1_555
O5A Co2 1_555 1_555
O8A Co1 1_555 1_555
N3B Co2 1_555 1_555
O6 C13 1_555 1_555
C4 C18 1_555 1_555
C6 C7 1_555 1_555
C9 C22 1_555 1_555
C11 C15 1_555 1_555
C11 C19 1_555 1_555
C12 C17 1_555 1_555
C13 C14 1_555 1_555
C21 C23 1_555 1_555
C24 C25 1_555 1_555

#END
