
#######################################################################
#
#                 Cambridge Crystallographic Data Centre
#                                CCDC 
#
#######################################################################
#
# If this CIF has been generated from an entry in the Cambridge 
# Structural Database, then it will include bibliographic, chemical, 
# crystal, experimental, refinement or atomic coordinate data resulting 
# from the CCDC's data processing and validation procedures.
#
#######################################################################

data_KIQCIW
_symmetry_cell_setting           monoclinic
_symmetry_space_group_name_H-M   'P 21/c'
_symmetry_Int_Tables_number      14
_space_group_name_Hall           '-P 2ybc'
loop_
_symmetry_equiv_pos_site_id
_symmetry_equiv_pos_as_xyz
1 x,y,z
2 -x,1/2+y,1/2-z
3 -x,-y,-z
4 x,1/2-y,1/2+z
_cell_length_a                   14.586(2)
_cell_length_b                   21.020(4)
_cell_length_c                   16.382(2)
_cell_angle_alpha                90
_cell_angle_beta                 114.569(10)
_cell_angle_gamma                90
_cell_volume                     4567.94
loop_
_atom_site_label
_atom_site_type_symbol
_atom_site_fract_x
_atom_site_fract_y
_atom_site_fract_z
Co1 Co -0.2102(1) -0.2234(1) 0.1349(1)
N1 N -0.3688(2) -0.2315(1) 0.0505(2)
N2 N -1.0528(2) -0.2853(1) -0.2768(2)
N3 N -0.0912(2) -0.3893(1) 0.4808(2)
N4 N -0.2259(2) -0.1209(1) 0.1405(2)
N5 N -0.1875(2) -0.3248(1) 0.1319(2)
O1 O -0.2481(2) -0.2338(1) 0.2448(2)
O2 O -0.1839(2) -0.2127(1) 0.0194(2)
C1 C -0.6821(2) -0.2343(2) -0.1340(3)
C2 C -0.4392(2) -0.2001(2) 0.0678(2)
C3 C -0.5396(2) -0.1992(2) 0.0097(2)
C4 C -0.5722(2) -0.2320(2) -0.0709(2)
C5 C -0.5002(3) -0.2649(2) -0.0887(2)
C6 C -0.4011(2) -0.2634(2) -0.0274(2)
C7 C -0.7330(2) -0.2914(2) -0.1142(3)
C8 C -1.0108(2) -0.2561(2) -0.1968(2)
C9 C -0.9096(2) -0.2579(2) -0.1429(2)
C10 C -0.8449(2) -0.2903(2) -0.1706(2)
C11 C -0.8873(2) -0.3193(2) -0.2540(2)
C12 C -0.9899(2) -0.3162(2) -0.3035(2)
C13 C 0.0047(3) -0.5071(2) 0.3164(2)
C14 C -0.1358(3) -0.4446(2) 0.4479(2)
C15 C -0.1061(3) -0.4845(2) 0.3970(2)
C16 C -0.0252(3) -0.4673(2) 0.3777(2)
C17 C 0.0234(3) -0.4109(2) 0.4142(2)
C18 C -0.0116(3) -0.3739(2) 0.4645(3)
C19 C -0.3475(3) 0.0594(2) 0.1723(2)
C20 C -0.2915(2) -0.0888(2) 0.0697(2)
C21 C -0.3286(3) -0.0296(2) 0.0757(2)
C22 C -0.2978(2) -0.0005(2) 0.1592(2)
C23 C -0.2252(2) -0.0317(2) 0.2317(2)
C24 C -0.1918(2) -0.0909(1) 0.2202(2)
C25 C -0.0822(3) -0.5144(2) 0.2225(2)
C26 C -0.1002(2) -0.3469(2) 0.1338(2)
C27 C -0.0664(3) -0.4081(2) 0.1590(2)
C28 C -0.1229(3) -0.4499(2) 0.1846(2)
C29 C -0.2146(3) -0.4278(2) 0.1795(2)
C30 C -0.2441(2) -0.3663(2) 0.1526(2)
N7 N -0.5946(2) 0.1957(1) 0.2490(2)
C37 C -0.4111(3) 0.0428(2) 0.2237(3)
C38 C -0.6343(3) 0.1443(2) 0.1997(2)
C39 C -0.5778(3) 0.0947(2) 0.1897(2)
C40 C -0.4740(3) 0.0970(2) 0.2322(2)
C41 C -0.4322(3) 0.1504(2) 0.2831(3)
C42 C -0.4943(3) 0.1981(2) 0.2897(3)
H1 H -0.7153(2) -0.1952(2) -0.1279(3)
H2 H -0.6889(2) -0.2368(2) -0.1960(3)
H3 H -0.4187(2) -0.1777(2) 0.1222(2)
H4 H -0.5859(2) -0.1764(2) 0.0246(2)
H5 H -0.5190(3) -0.2880(2) -0.1423(2)
H6 H -0.3534(2) -0.2860(2) -0.0409(2)
H7 H -0.7201(2) -0.2913(2) -0.0505(3)
H8 H -0.7044(2) -0.3305(2) -0.1264(3)
H9 H -1.0529(2) -0.2333(2) -0.1767(2)
H10 H -0.8840(2) -0.2372(2) -0.0870(2)
H11 H -0.8463(2) -0.3410(2) -0.2765(2)
H12 H -1.0174(2) -0.3370(2) -0.3594(2)
H13 H 0.0256(3) -0.5494(2) 0.3430(2)
H14 H 0.0626(3) -0.4873(2) 0.3105(2)
H15 H -0.1907(3) -0.4571(2) 0.4603(2)
H16 H -0.1401(3) -0.5231(2) 0.3755(2)
H17 H 0.0799(3) -0.3979(2) 0.4047(2)
H18 H 0.0224(3) -0.3358(2) 0.4887(3)
H19 H -0.3904(3) 0.0778(2) 0.1139(2)
H20 H -0.2960(3) 0.0907(2) 0.2061(2)
H21 H -0.3134(2) -0.1078(2) 0.0127(2)
H22 H -0.3743(3) -0.0090(2) 0.0238(2)
H23 H -0.1987(2) -0.0124(2) 0.2887(2)
H24 H -0.1429(2) -0.1114(1) 0.2705(2)
H25 H -0.0579(3) -0.5362(2) 0.1825(2)
H26 H -0.1361(3) -0.5402(2) 0.2266(2)
H27 H -0.0602(2) -0.3193(2) 0.1172(2)
H28 H -0.0050(3) -0.4215(2) 0.1587(2)
H29 H -0.2567(3) -0.4549(2) 0.1943(2)
H30 H -0.3072(2) -0.3527(2) 0.1487(2)
H37 H -0.4559(3) 0.0073(2) 0.1932(3)
H38 H -0.3661(3) 0.0282(2) 0.2840(3)
H39 H -0.7048(3) 0.1415(2) 0.1699(2)
H40 H -0.6100(3) 0.0594(2) 0.1540(2)
H41 H -0.3618(3) 0.1544(2) 0.3132(3)
H42 H -0.4642(3) 0.2340(2) 0.3247(3)
H43 H -0.2984(22) -0.2502(18) 0.2442(26)
H44 H -0.2179(27) -0.2196(17) 0.2951(19)
H45 H -0.1779(27) -0.2417(14) -0.0096(22)
H46 H -0.1599(31) -0.1816(15) 0.0083(29)
N2C N -0.0528(2) -0.2147(1) 0.2232(2)
Co1C Co -1.2102(1) -0.2766(1) -0.3651(1)
Cl1 Cl 0.1104(1) -0.1293(1) 0.5397(1)
O4 O 0.0253(6) -0.0843(4) 0.4708(6)
O5 O 0.1895(4) -0.1376(3) 0.5169(4)
O6 O 0.1440(3) -0.1018(3) 0.6239(4)
O7 O 0.0559(3) -0.1868(2) 0.5334(3)
Cl2 Cl -0.6686(1) -0.1091(1) 0.1512(1)
O8 O -0.7493(4) -0.1407(3) 0.0885(4)
O9 O -0.6470(5) -0.0614(2) 0.1069(4)
O10 O -0.6933(3) -0.0819(3) 0.2192(3)
O11 O -0.5854(4) -0.1477(2) 0.1908(3)
N6 N -0.2731(3) -0.0864(2) 0.4035(2)
C31 C -0.4920(4) 0.0178(2) 0.4625(3)
C32 C -0.2470(3) -0.0350(2) 0.4561(3)
C33 C -0.3156(3) 0.0013(2) 0.4740(3)
C34 C -0.4159(3) -0.0158(2) 0.4379(3)
C35 C -0.4441(3) -0.0677(2) 0.3801(3)
C36 C -0.3711(3) -0.1005(2) 0.3649(3)
H31 H -0.5563(4) 0.0207(2) 0.4094(3)
H32 H -0.4686(4) 0.0611(2) 0.4824(3)
H33 H -0.1788(3) -0.0229(2) 0.4821(3)
H34 H -0.2938(3) 0.0376(2) 0.5106(3)
H35 H -0.5120(3) -0.0802(2) 0.3518(3)
H36 H -0.3915(3) -0.1351(2) 0.3249(3)
C31B C -0.5080(4) -0.0178(2) 0.5375(3)
C34B C -0.5841(3) 0.0158(2) 0.5621(3)
C33B C -0.6844(3) -0.0013(2) 0.5260(3)
C32B C -0.7530(3) 0.0350(2) 0.5439(3)
N6B N -0.7269(3) 0.0864(2) 0.5965(2)
C36B C -0.6289(3) 0.1005(2) 0.6351(3)
C35B C -0.5559(3) 0.0677(2) 0.6199(3)
H35B H -0.4880(3) 0.0802(2) 0.6482(3)
H36B H -0.6085(3) 0.1351(2) 0.6751(3)
H33B H -0.8212(3) 0.0229(2) 0.5179(3)
H34B H -0.7062(3) -0.0376(2) 0.4894(3)
H31B H -0.4437(4) -0.0207(2) 0.5906(3)
H32B H -0.5314(4) -0.0611(2) 0.5176(3)
O3 O -0.1543(2) -0.1898(1) 0.4164(2)
H47 H -0.0959(20) -0.1810(21) 0.4407(29)
H48 H -0.1872(30) -0.1585(16) 0.4134(31)
loop_
_geom_bond_atom_site_label_1
_geom_bond_atom_site_label_2
_geom_bond_site_symmetry_1
_geom_bond_site_symmetry_2
Co1 N1 1_555 1_555
Cl1 O4 1_555 1_555
Cl2 O8 1_555 1_555
N1 C2 1_555 1_555
N2 C8 1_555 1_555
N3 C14 1_555 1_555
N4 Co1 1_555 1_555
N5 Co1 1_555 1_555
N6 C32 1_555 1_555
O1 Co1 1_555 1_555
O2 Co1 1_555 1_555
O3 H47 1_555 1_555
O5 Cl1 1_555 1_555
O6 Cl1 1_555 1_555
O7 Cl1 1_555 1_555
O9 Cl2 1_555 1_555
O10 Cl2 1_555 1_555
O11 Cl2 1_555 1_555
C1 C4 1_555 1_555
C2 C3 1_555 1_555
C3 C4 1_555 1_555
C4 C5 1_555 1_555
C5 C6 1_555 1_555
C6 N1 1_555 1_555
C7 C1 1_555 1_555
C8 C9 1_555 1_555
C9 C10 1_555 1_555
C10 C7 1_555 1_555
C11 C10 1_555 1_555
C12 N2 1_555 1_555
C13 C16 1_555 1_555
C14 C15 1_555 1_555
C15 C16 1_555 1_555
C16 C17 1_555 1_555
C17 C18 1_555 1_555
C18 N3 1_555 1_555
C19 C22 1_555 1_555
C20 N4 1_555 1_555
C21 C20 1_555 1_555
C22 C21 1_555 1_555
C23 C22 1_555 1_555
C24 N4 1_555 1_555
C25 C13 1_555 1_555
C26 N5 1_555 1_555
C27 C26 1_555 1_555
C28 C25 1_555 1_555
C29 C28 1_555 1_555
C30 N5 1_555 1_555
C31 C34 1_555 1_555
C32 C33 1_555 1_555
C33 C34 1_555 1_555
C34 C35 1_555 1_555
C35 C36 1_555 1_555
C36 N6 1_555 1_555
N7 C38 1_555 1_555
C37 C19 1_555 1_555
C38 C39 1_555 1_555
C39 C40 1_555 1_555
C40 C37 1_555 1_555
C41 C40 1_555 1_555
C42 N7 1_555 1_555
H1 C1 1_555 1_555
H2 C1 1_555 1_555
H3 C2 1_555 1_555
H4 C3 1_555 1_555
H5 C5 1_555 1_555
H6 C6 1_555 1_555
H7 C7 1_555 1_555
H8 C7 1_555 1_555
H9 C8 1_555 1_555
H10 C9 1_555 1_555
H11 C11 1_555 1_555
H12 C12 1_555 1_555
H13 C13 1_555 1_555
H14 C13 1_555 1_555
H15 C14 1_555 1_555
H16 C15 1_555 1_555
H17 C17 1_555 1_555
H18 C18 1_555 1_555
H19 C19 1_555 1_555
H20 C19 1_555 1_555
H21 C20 1_555 1_555
H22 C21 1_555 1_555
H23 C23 1_555 1_555
H24 C24 1_555 1_555
H25 C25 1_555 1_555
H26 C25 1_555 1_555
H27 C26 1_555 1_555
H28 C27 1_555 1_555
H29 C29 1_555 1_555
H30 C30 1_555 1_555
H31 C31 1_555 1_555
H32 C31 1_555 1_555
H33 C32 1_555 1_555
H34 C33 1_555 1_555
H35 C35 1_555 1_555
H36 C36 1_555 1_555
H37 C37 1_555 1_555
H38 C37 1_555 1_555
H39 C38 1_555 1_555
H40 C39 1_555 1_555
H41 C41 1_555 1_555
H42 C42 1_555 1_555
H43 O1 1_555 1_555
H44 O1 1_555 1_555
H45 O2 1_555 1_555
H46 O2 1_555 1_555
H48 O3 1_555 1_555
N2C Co1 1_555 1_555
Co1C N2 1_555 1_555
C31B C31 1_555 1_555
C34B C31B 1_555 1_555
C33B C34B 1_555 1_555
C32B C33B 1_555 1_555
N6B C32B 1_555 1_555
C36B N6B 1_555 1_555
C35B C34B 1_555 1_555
H35B C35B 1_555 1_555
H36B C36B 1_555 1_555
H33B C32B 1_555 1_555
H34B C33B 1_555 1_555
H31B C31B 1_555 1_555
H32B C31B 1_555 1_555
C11 C12 1_555 1_555
C23 C24 1_555 1_555
C27 C28 1_555 1_555
C29 C30 1_555 1_555
C41 C42 1_555 1_555
C36B C35B 1_555 1_555

#END
