
#######################################################################
#
#                 Cambridge Crystallographic Data Centre
#                                CCDC 
#
#######################################################################
#
# If this CIF has been generated from an entry in the Cambridge 
# Structural Database, then it will include bibliographic, chemical, 
# crystal, experimental, refinement or atomic coordinate data resulting 
# from the CCDC's data processing and validation procedures.
#
#######################################################################

data_KIQDEV
_symmetry_cell_setting           triclinic
_symmetry_space_group_name_H-M   'P -1'
_symmetry_Int_Tables_number      2
_space_group_name_Hall           '-P 1'
loop_
_symmetry_equiv_pos_site_id
_symmetry_equiv_pos_as_xyz
1 x,y,z
2 -x,-y,-z
_cell_length_a                   11.6575(5)
_cell_length_b                   11.7073(4)
_cell_length_c                   19.9358(7)
_cell_angle_alpha                81.307(3)
_cell_angle_beta                 76.495(3)
_cell_angle_gamma                62.819(4)
_cell_volume                     2350.3
loop_
_atom_site_label
_atom_site_type_symbol
_atom_site_fract_x
_atom_site_fract_y
_atom_site_fract_z
Fe1 Fe 1.09108(6) 0.09093(5) 0.09394(3)
Cu1 Cu 0.93277(4) 0.28447(4) 0.26670(2)
P1 P 0.93129(10) 0.38591(9) 0.15972(5)
P2 P 1.02834(9) 0.06587(9) 0.27083(5)
N1 N 0.9988(4) 0.3516(3) 0.33529(19)
N2 N 0.7519(4) 0.3612(3) 0.3297(2)
N3 N 0.8232(4) 0.2763(4) 0.5143(2)
N4 N 0.7435(4) 0.6493(4) 0.4072(3)
C1 C 1.0083(4) 0.3904(4) 0.3817(2)
C2 C 1.0078(4) 0.4442(4) 0.4420(2)
C3 C 1.0681(4) 0.5235(4) 0.4357(2)
H1 H 1.1148 0.5393 0.3923
C4 C 0.9410(4) 0.4198(4) 0.5057(2)
C5 C 0.8752(4) 0.3382(4) 0.5115(2)
C6 C 0.6720(4) 0.4053(4) 0.3756(2)
C7 C 0.5807(4) 0.4550(4) 0.4378(2)
C8 C 0.4975(4) 0.3999(4) 0.4701(2)
H2 H 0.4956 0.3327 0.4496
C9 C 0.5827(4) 0.5549(4) 0.4671(2)
C10 C 0.6712(4) 0.6095(4) 0.4346(3)
C11 C 0.7808(4) 0.4461(4) 0.1227(2)
H3 H 0.7866 0.3705 0.1020
C12 C 0.7701(5) 0.5489(5) 0.0632(3)
H4 H 0.7651 0.6262 0.0807
H5 H 0.8496 0.5154 0.0268
C13 C 0.6489(6) 0.5859(7) 0.0324(4)
H6 H 0.6419 0.6552 -0.0040
H7 H 0.6583 0.5107 0.0107
C14 C 0.5274(6) 0.6305(8) 0.0861(4)
H8 H 0.4515 0.6491 0.0649
H9 H 0.5129 0.7114 0.1040
C15 C 0.5344(5) 0.5322(7) 0.1455(4)
H10 H 0.5357 0.4560 0.1289
H11 H 0.4548 0.5691 0.1815
C16 C 0.6552(5) 0.4901(6) 0.1772(3)
H12 H 0.6609 0.4187 0.2120
H13 H 0.6466 0.5626 0.2011
C17 C 0.9721(4) 0.5230(4) 0.1533(2)
H14 H 0.9671 0.5644 0.1057
C18 C 1.1113(5) 0.4758(5) 0.1655(3)
H15 H 1.1745 0.4218 0.1273
H16 H 1.1217 0.4218 0.2091
C19 C 1.1428(6) 0.5876(6) 0.1700(3)
H17 H 1.2313 0.5535 0.1813
H18 H 1.1430 0.6357 0.1247
C20 C 1.0433(8) 0.6765(6) 0.2243(3)
H19 H 1.0652 0.7481 0.2263
H20 H 1.0462 0.6292 0.2699
C21 C 0.9071(7) 0.7299(5) 0.2090(3)
H21 H 0.9025 0.7814 0.1646
H22 H 0.8431 0.7870 0.2458
C22 C 0.8724(5) 0.6209(4) 0.2047(3)
H23 H 0.8659 0.5770 0.2510
H24 H 0.7853 0.6575 0.1913
C23 C 0.9344(4) -0.0118(4) 0.3320(2)
H25 H 0.9843 -0.1070 0.3278
C24 C 0.8005(4) 0.0311(4) 0.3144(2)
H26 H 0.8118 0.0036 0.2677
H27 H 0.7534 0.1261 0.3134
C25 C 0.7185(5) -0.0248(5) 0.3664(3)
H28 H 0.6304 0.0094 0.3546
H29 H 0.7606 -0.1194 0.3636
C26 C 0.7045(5) 0.0077(6) 0.4392(3)
H30 H 0.6555 -0.0344 0.4719
H31 H 0.6540 0.1018 0.4435
C27 C 0.8386(5) -0.0370(6) 0.4572(3)
H32 H 0.8275 -0.0099 0.5040
H33 H 0.8848 -0.1321 0.4581
C28 C 0.9212(5) 0.0176(5) 0.4058(2)
H34 H 1.0097 -0.0186 0.4175
H35 H 0.8808 0.1120 0.4094
C29 C 1.1994(4) -0.0187(4) 0.2856(3)
H36 H 1.2539 -0.0156 0.2391
C30 C 1.2502(4) -0.1622(4) 0.3064(3)
H37 H 1.1971 -0.1739 0.3512
H38 H 1.2396 -0.2065 0.2714
C31 C 1.3925(6) -0.2222(5) 0.3128(4)
H39 H 1.4176 -0.3116 0.3321
H40 H 1.4466 -0.2260 0.2660
C32 C 1.4223(7) -0.1549(7) 0.3555(6)
H41 H 1.5185 -0.1949 0.3530
H42 H 1.3810 -0.1645 0.4040
C33 C 1.3755(6) -0.0124(6) 0.3349(4)
H43 H 1.4283 -0.0018 0.2898
H44 H 1.3889 0.0303 0.3696
C34 C 1.2305(5) 0.0517(5) 0.3296(3)
H45 H 1.1768 0.0562 0.3765
H46 H 1.2066 0.1408 0.3100
C35 C 1.0556(4) 0.2791(3) 0.0952(2)
C36 C 1.1851(4) 0.1920(4) 0.1072(2)
H47 H 1.2187 0.1859 0.1473
C37 C 1.2541(5) 0.1167(5) 0.0484(3)
H48 H 1.3424 0.0524 0.0420
C38 C 1.1690(5) 0.1541(4) 0.0017(3)
H49 H 1.1901 0.1188 -0.0419
C39 C 1.0469(5) 0.2522(4) 0.0296(2)
H50 H 0.9718 0.2934 0.0084
C40 C 1.0405(4) 0.0117(3) 0.1881(2)
C41 C 1.1470(5) -0.0842(4) 0.1463(2)
H51 H 1.2313 -0.1368 0.1575
C42 C 1.1071(6) -0.0884(4) 0.0861(2)
H52 H 1.1595 -0.1441 0.0495
C43 C 0.9750(6) 0.0048(5) 0.0892(2)
H53 H 0.9227 0.0220 0.0554
C44 C 0.9356(4) 0.0668(4) 0.1509(2)
H54 H 0.8519 0.1351 0.1657
N1A N 1.0012(4) 0.6484(3) 0.66471(19)
N3A N 1.1768(4) 0.7237(4) 0.4857(2)
C1A C 0.9917(4) 0.6096(4) 0.6183(2)
C2A C 0.9922(4) 0.5558(4) 0.5580(2)
C3A C 0.9319(4) 0.4765(4) 0.5643(2)
H1A H 0.8852 0.4607 0.6077
C4A C 1.0590(4) 0.5802(4) 0.4943(2)
C5A C 1.1248(4) 0.6618(4) 0.4885(2)
N2A N 0.2481(4) 0.6388(3) 0.6703(2)
N4A N 0.2565(4) 0.3507(4) 0.5928(3)
C6A C 0.3280(4) 0.5947(4) 0.6244(2)
C7A C 0.4193(4) 0.5450(4) 0.5622(2)
C8A C 0.5025(4) 0.6001(4) 0.5299(2)
H2A H 0.5044 0.6673 0.5504
C9A C 0.4173(4) 0.4451(4) 0.5329(2)
C10A C 0.3288(4) 0.3905(4) 0.5654(3)
Fe1A Fe -0.09108(6) 0.90907(5) 0.90606(3)
Cu1A Cu 0.06723(4) 0.71553(4) 0.73330(2)
P1A P 0.06871(10) 0.61409(9) 0.84028(5)
P2A P -0.02834(9) 0.93413(9) 0.72917(5)
C11A C 0.2192(4) 0.5539(4) 0.8773(2)
H3A H 0.2134 0.6295 0.8980
C12A C 0.2299(5) 0.4511(5) 0.9368(3)
H4A H 0.2349 0.3738 0.9193
H5A H 0.1504 0.4846 0.9732
C13A C 0.3511(6) 0.4141(7) 0.9676(4)
H6A H 0.3581 0.3448 1.0040
H7A H 0.3417 0.4893 0.9893
C14A C 0.4726(6) 0.3695(8) 0.9139(4)
H8A H 0.5485 0.3509 0.9351
H9A H 0.4871 0.2886 0.8960
C15A C 0.4656(5) 0.4678(7) 0.8545(4)
H10A H 0.4643 0.5440 0.8711
H11A H 0.5452 0.4309 0.8185
C16A C 0.3448(5) 0.5099(6) 0.8228(3)
H12A H 0.3391 0.5813 0.7880
H13A H 0.3534 0.4374 0.7989
C17A C 0.0279(4) 0.4770(4) 0.8467(2)
H14A H 0.0329 0.4356 0.8943
C18A C -0.1113(5) 0.5242(5) 0.8345(3)
H15A H -0.1745 0.5782 0.8727
H16A H -0.1217 0.5782 0.7909
C19A C -0.1428(6) 0.4124(6) 0.8300(3)
H17A H -0.2313 0.4465 0.8187
H18A H -0.1430 0.3643 0.8753
C20A C -0.0433(8) 0.3235(6) 0.7757(3)
H19A H -0.0652 0.2519 0.7737
H20A H -0.0462 0.3708 0.7301
C21A C 0.0929(7) 0.2701(5) 0.7910(3)
H21A H 0.0975 0.2186 0.8354
H22A H 0.1569 0.2130 0.7542
C22A C 0.1276(5) 0.3791(4) 0.7953(3)
H23A H 0.1341 0.4230 0.7490
H24A H 0.2147 0.3425 0.8087
C23A C 0.0656(4) 1.0118(4) 0.6680(2)
H25A H 0.0157 1.1070 0.6722
C24A C 0.1995(4) 0.9689(4) 0.6856(2)
H26A H 0.1882 0.9964 0.7323
H27A H 0.2466 0.8739 0.6866
C25A C 0.2815(5) 1.0248(5) 0.6336(3)
H28A H 0.3696 0.9906 0.6454
H29A H 0.2394 1.1194 0.6364
C26A C 0.2955(5) 0.9923(6) 0.5608(3)
H30A H 0.3445 1.0344 0.5281
H31A H 0.3460 0.8982 0.5565
C27A C 0.1614(5) 1.0370(6) 0.5428(3)
H32A H 0.1725 1.0099 0.4960
H33A H 0.1152 1.1321 0.5419
C28A C 0.0788(5) 0.9824(5) 0.5942(2)
H34A H -0.0097 1.0186 0.5825
H35A H 0.1192 0.8880 0.5906
C29A C -0.1994(4) 1.0187(4) 0.7144(3)
H36A H -0.2539 1.0156 0.7609
C30A C -0.2502(4) 1.1622(4) 0.6936(3)
H37A H -0.1971 1.1739 0.6488
H38A H -0.2396 1.2065 0.7286
C31A C -0.3925(6) 1.2222(5) 0.6872(4)
H39A H -0.4176 1.3116 0.6679
H40A H -0.4466 1.2260 0.7340
C32A C -0.4223(7) 1.1549(7) 0.6445(6)
H41A H -0.5185 1.1949 0.6470
H42A H -0.3810 1.1645 0.5960
C33A C -0.3755(6) 1.0124(6) 0.6651(4)
H43A H -0.4283 1.0018 0.7102
H44A H -0.3889 0.9697 0.6304
C34A C -0.2305(5) 0.9483(5) 0.6704(3)
H45A H -0.1768 0.9438 0.6235
H46A H -0.2066 0.8592 0.6900
C35A C -0.0556(4) 0.7209(3) 0.9048(2)
C36A C -0.1851(4) 0.8080(4) 0.8928(2)
H47A H -0.2187 0.8141 0.8527
C37A C -0.2541(5) 0.8833(5) 0.9516(3)
H48A H -0.3424 0.9476 0.9580
C38A C -0.1690(5) 0.8459(4) 0.9983(3)
H49A H -0.1901 0.8812 1.0419
C39A C -0.0469(5) 0.7478(4) 0.9704(2)
H50A H 0.0282 0.7066 0.9916
C40A C -0.0405(4) 0.9883(3) 0.8119(2)
C41A C -0.1470(5) 1.0842(4) 0.8537(2)
H51A H -0.2313 1.1368 0.8425
C42A C -0.1071(6) 1.0884(4) 0.9139(2)
H52A H -0.1595 1.1441 0.9505
C43A C 0.0250(6) 0.9952(5) 0.9108(2)
H53A H 0.0773 0.9780 0.9446
C44A C 0.0644(4) 0.9332(4) 0.8491(2)
H54A H 0.1481 0.8649 0.8343
Cu1A_2 Cu 1.06723(4) 0.71553(4) 0.73330(2)
N1A_2 N 0.0012(4) 0.6484(3) 0.66471(19)
F1 F 0.5004(5) 0.3001(7) 0.3049(5)
F2 F 0.3411(7) 0.4756(5) 0.3335(4)
F3 F 0.3115(8) 0.3388(8) 0.2926(4)
F4 F 0.3583(7) 0.2961(6) 0.3891(3)
B1 B 0.3810(8) 0.3517(8) 0.3242(5)
C45 C 0.5649(16) 1.105(2) 0.1617(6)
H55 H 0.6351 1.0790 0.1887
H56 H 0.4812 1.1631 0.1899
Cl1 Cl 0.5540(4) 0.9798(4) 0.1466(2)
Cl2 Cl 0.6008(4) 1.1922(3) 0.0828(2)
loop_
_geom_bond_atom_site_label_1
_geom_bond_atom_site_label_2
_geom_bond_site_symmetry_1
_geom_bond_site_symmetry_2
Fe1 C35 1_555 1_555
Cu1 P1 1_555 1_555
P1 C11 1_555 1_555
P2 Cu1 1_555 1_555
N1 Cu1 1_555 1_555
N2 Cu1 1_555 1_555
N3 C5 1_555 1_555
N4 C10 1_555 1_555
C1 N1 1_555 1_555
C2 C1 1_555 1_555
C3 C2 1_555 1_555
H1 C3 1_555 1_555
C4 C2 1_555 1_555
C5 C4 1_555 1_555
C6 N2 1_555 1_555
C7 C6 1_555 1_555
C8 C7 1_555 1_555
H2 C8 1_555 1_555
C9 C7 1_555 1_555
C10 C9 1_555 1_555
C11 H3 1_555 1_555
C12 C11 1_555 1_555
H4 C12 1_555 1_555
H5 C12 1_555 1_555
C13 C12 1_555 1_555
H6 C13 1_555 1_555
H7 C13 1_555 1_555
C14 C13 1_555 1_555
H8 C14 1_555 1_555
H9 C14 1_555 1_555
C15 C14 1_555 1_555
H10 C15 1_555 1_555
H11 C15 1_555 1_555
C16 C11 1_555 1_555
H12 C16 1_555 1_555
H13 C16 1_555 1_555
C17 P1 1_555 1_555
H14 C17 1_555 1_555
C18 C17 1_555 1_555
H15 C18 1_555 1_555
H16 C18 1_555 1_555
C19 C18 1_555 1_555
H17 C19 1_555 1_555
H18 C19 1_555 1_555
C20 C19 1_555 1_555
H19 C20 1_555 1_555
H20 C20 1_555 1_555
C21 C20 1_555 1_555
H21 C21 1_555 1_555
H22 C21 1_555 1_555
C22 C17 1_555 1_555
H23 C22 1_555 1_555
H24 C22 1_555 1_555
C23 P2 1_555 1_555
H25 C23 1_555 1_555
C24 C23 1_555 1_555
H26 C24 1_555 1_555
H27 C24 1_555 1_555
C25 C24 1_555 1_555
H28 C25 1_555 1_555
H29 C25 1_555 1_555
C26 C25 1_555 1_555
H30 C26 1_555 1_555
H31 C26 1_555 1_555
C27 C26 1_555 1_555
H32 C27 1_555 1_555
H33 C27 1_555 1_555
C28 C23 1_555 1_555
H34 C28 1_555 1_555
H35 C28 1_555 1_555
C29 P2 1_555 1_555
H36 C29 1_555 1_555
C30 C29 1_555 1_555
H37 C30 1_555 1_555
H38 C30 1_555 1_555
C31 C30 1_555 1_555
H39 C31 1_555 1_555
H40 C31 1_555 1_555
C32 C31 1_555 1_555
H41 C32 1_555 1_555
H42 C32 1_555 1_555
C33 C32 1_555 1_555
H43 C33 1_555 1_555
H44 C33 1_555 1_555
C34 C29 1_555 1_555
H45 C34 1_555 1_555
H46 C34 1_555 1_555
C35 P1 1_555 1_555
C36 Fe1 1_555 1_555
H47 C36 1_555 1_555
C37 Fe1 1_555 1_555
H48 C37 1_555 1_555
C38 Fe1 1_555 1_555
H49 C38 1_555 1_555
C39 Fe1 1_555 1_555
H50 C39 1_555 1_555
C40 Fe1 1_555 1_555
C41 Fe1 1_555 1_555
H51 C41 1_555 1_555
C42 Fe1 1_555 1_555
H52 C42 1_555 1_555
C43 Fe1 1_555 1_555
H53 C43 1_555 1_555
C44 Fe1 1_555 1_555
H54 C44 1_555 1_555
F1 B1 1_555 1_555
F2 B1 1_555 1_555
F3 B1 1_555 1_555
F4 B1 1_555 1_555
C45 H55 1_555 1_555
H56 C45 1_555 1_555
Cl1 C45 1_555 1_555
Cl2 C45 1_555 1_555
N1A C1A 1_555 1_555
N3A C5A 1_555 1_555
C1A C2A 1_555 1_555
C2A C3A 1_555 1_555
C3A C4 1_555 1_555
H1A C3A 1_555 1_555
C4A C3 1_555 1_555
C5A C4A 1_555 1_555
N2A C6A 1_555 1_555
N4A C10A 1_555 1_555
C6A C7A 1_555 1_555
C7A C8A 1_555 1_555
C8A C9 1_555 1_555
H2A C8A 1_555 1_555
C9A C8 1_555 1_555
C10A C9A 1_555 1_555
Fe1A C35A 1_555 1_555
Cu1A N2A 1_555 1_555
P1A Cu1A 1_555 1_555
P2A Cu1A 1_555 1_555
C11A P1A 1_555 1_555
H3A C11A 1_555 1_555
C12A C11A 1_555 1_555
H4A C12A 1_555 1_555
H5A C12A 1_555 1_555
C13A C12A 1_555 1_555
H6A C13A 1_555 1_555
H7A C13A 1_555 1_555
C14A C13A 1_555 1_555
H8A C14A 1_555 1_555
H9A C14A 1_555 1_555
C15A C14A 1_555 1_555
H10A C15A 1_555 1_555
H11A C15A 1_555 1_555
C16A C11A 1_555 1_555
H12A C16A 1_555 1_555
H13A C16A 1_555 1_555
C17A P1A 1_555 1_555
H14A C17A 1_555 1_555
C18A C17A 1_555 1_555
H15A C18A 1_555 1_555
H16A C18A 1_555 1_555
C19A C18A 1_555 1_555
H17A C19A 1_555 1_555
H18A C19A 1_555 1_555
C20A C19A 1_555 1_555
H19A C20A 1_555 1_555
H20A C20A 1_555 1_555
C21A C20A 1_555 1_555
H21A C21A 1_555 1_555
H22A C21A 1_555 1_555
C22A C17A 1_555 1_555
H23A C22A 1_555 1_555
H24A C22A 1_555 1_555
C23A P2A 1_555 1_555
H25A C23A 1_555 1_555
C24A C23A 1_555 1_555
H26A C24A 1_555 1_555
H27A C24A 1_555 1_555
C25A C24A 1_555 1_555
H28A C25A 1_555 1_555
H29A C25A 1_555 1_555
C26A C25A 1_555 1_555
H30A C26A 1_555 1_555
H31A C26A 1_555 1_555
C27A C26A 1_555 1_555
H32A C27A 1_555 1_555
H33A C27A 1_555 1_555
C28A C23A 1_555 1_555
H34A C28A 1_555 1_555
H35A C28A 1_555 1_555
C29A P2A 1_555 1_555
H36A C29A 1_555 1_555
C30A C29A 1_555 1_555
H37A C30A 1_555 1_555
H38A C30A 1_555 1_555
C31A C30A 1_555 1_555
H39A C31A 1_555 1_555
H40A C31A 1_555 1_555
C32A C31A 1_555 1_555
H41A C32A 1_555 1_555
H42A C32A 1_555 1_555
C33A C32A 1_555 1_555
H43A C33A 1_555 1_555
H44A C33A 1_555 1_555
C34A C29A 1_555 1_555
H45A C34A 1_555 1_555
H46A C34A 1_555 1_555
C35A P1A 1_555 1_555
C36A Fe1A 1_555 1_555
H47A C36A 1_555 1_555
C37A Fe1A 1_555 1_555
H48A C37A 1_555 1_555
C38A Fe1A 1_555 1_555
H49A C38A 1_555 1_555
C39A Fe1A 1_555 1_555
H50A C39A 1_555 1_555
C40A Fe1A 1_555 1_555
C41A Fe1A 1_555 1_555
H51A C41A 1_555 1_555
C42A Fe1A 1_555 1_555
H52A C42A 1_555 1_555
C43A Fe1A 1_555 1_555
H53A C43A 1_555 1_555
C44A Fe1A 1_555 1_555
H54A C44A 1_555 1_555
Cu1A_2 N1A 1_555 1_555
N1A_2 Cu1A 1_555 1_555
P2 C40 1_555 1_555
C15 C16 1_555 1_555
C21 C22 1_555 1_555
C27 C28 1_555 1_555
C33 C34 1_555 1_555
C35 C36 1_555 1_555
C35 C39 1_555 1_555
C36 C37 1_555 1_555
C37 C38 1_555 1_555
C38 C39 1_555 1_555
C40 C41 1_555 1_555
C40 C44 1_555 1_555
C41 C42 1_555 1_555
C42 C43 1_555 1_555
C43 C44 1_555 1_555
C2A C4A 1_555 1_555
C7A C9A 1_555 1_555
P2A C40A 1_555 1_555
C15A C16A 1_555 1_555
C21A C22A 1_555 1_555
C27A C28A 1_555 1_555
C33A C34A 1_555 1_555
C35A C36A 1_555 1_555
C35A C39A 1_555 1_555
C36A C37A 1_555 1_555
C37A C38A 1_555 1_555
C38A C39A 1_555 1_555
C40A C41A 1_555 1_555
C40A C44A 1_555 1_555
C41A C42A 1_555 1_555
C42A C43A 1_555 1_555
C43A C44A 1_555 1_555

#END
