
#######################################################################
#
#                 Cambridge Crystallographic Data Centre
#                                CCDC 
#
#######################################################################
#
# If this CIF has been generated from an entry in the Cambridge 
# Structural Database, then it will include bibliographic, chemical, 
# crystal, experimental, refinement or atomic coordinate data resulting 
# from the CCDC's data processing and validation procedures.
#
#######################################################################

data_KIQHUN
_symmetry_cell_setting           monoclinic
_symmetry_space_group_name_H-M   'C 2/c'
_symmetry_Int_Tables_number      15
_space_group_name_Hall           '-C 2yn'
loop_
_symmetry_equiv_pos_site_id
_symmetry_equiv_pos_as_xyz
1 x,y,z
2 -x,y,1/2-z
3 1/2+x,1/2+y,z
4 1/2-x,1/2+y,1/2-z
5 -x,-y,-z
6 x,-y,1/2+z
7 1/2-x,1/2-y,-z
8 1/2+x,1/2-y,1/2+z
_cell_length_a                   21.274(1)
_cell_length_b                   6.114(1)
_cell_length_c                   17.137(1)
_cell_angle_alpha                90
_cell_angle_beta                 101.63(1)
_cell_angle_gamma                90
_cell_volume                     2183.23
loop_
_atom_site_label
_atom_site_type_symbol
_atom_site_fract_x
_atom_site_fract_y
_atom_site_fract_z
Cu1 Cu 0.2500 0.2500 0.0000
N1 N 0.2670(2) 0.0116(6) 0.0769(2)
C1 C 0.2180(2) -0.1308(7) 0.0698(3)
C2 C 0.2172(2) -0.3005(7) 0.1232(3)
C3 C 0.2702(2) -0.3223(8) 0.1842(3)
C4 C 0.3205(2) -0.1789(8) 0.1917(3)
C5 C 0.3173(2) -0.0118(8) 0.1372(3)
C6 C 0.1616(2) -0.4565(7) 0.1190(3)
O1 O 0.1172(2) -0.3916(6) 0.1504(2)
O2 O 0.1670(2) -0.6408(6) 0.0905(2)
C7 C 0.1655(2) -0.0878(7) -0.0023(3)
O3 O 0.1755(2) 0.0732(5) -0.0458(2)
O4 O 0.1185(2) -0.2089(6) -0.0155(2)
Na1 Na 0.0173(1) -0.1220(4) -0.0902(1)
O5 O -0.0894(2) -0.0406(6) -0.1594(2)
O6 O 0.0354(2) 0.2512(8) -0.0127(3)
O7 O 0.0017(2) -0.4688(8) -0.1585(3)
O8 O 0.0679(2) 0.0795(7) -0.1807(2)
H1 H 0.2722(2) -0.4403(8) 0.2216(3)
H2 H 0.3570(2) -0.1936(8) 0.2345(3)
H3 H 0.3523(2) 0.0898(8) 0.1424(3)
H4 H -0.1078(2) -0.1177(6) -0.1390(2)
H5 H -0.1030(2) 0.0724(6) -0.1587(2)
H6 H 0.0689(2) 0.2923(8) 0.0053(3)
H7 H 0.0157(2) 0.3414(8) -0.0351(3)
H8 H 0.0356(2) -0.5445(8) -0.1682(3)
H9 H -0.0314(2) -0.5118(8) -0.1714(3)
H10 H 0.0643(2) 0.0496(7) -0.2237(2)
H11 H 0.1009(2) 0.0507(7) -0.1585(2)
N1F N 0.2330(2) 0.4884(6) -0.0769(2)
C1F C 0.2820(2) 0.6308(7) -0.0698(3)
C2F C 0.2828(2) 0.8005(7) -0.1232(3)
C3F C 0.2298(2) 0.8223(8) -0.1842(3)
C4F C 0.1795(2) 0.6789(8) -0.1917(3)
C5F C 0.1827(2) 0.5118(8) -0.1372(3)
C6F C 0.3384(2) 0.9565(7) -0.1190(3)
O1F O 0.3828(2) 0.8916(6) -0.1504(2)
O2F O 0.3330(2) 1.1408(6) -0.0905(2)
C7F C 0.3345(2) 0.5878(7) 0.0023(3)
O3F O 0.3245(2) 0.4268(5) 0.0458(2)
O4F O 0.3815(2) 0.7089(6) 0.0155(2)
H1F H 0.2278(2) 0.9403(8) -0.2216(3)
H2F H 0.1430(2) 0.6936(8) -0.2345(3)
H3F H 0.1477(2) 0.4102(8) -0.1424(3)
Na1F Na 0.4827(1) 0.6220(4) 0.0902(1)
O6D O -0.0354(2) -0.2512(8) 0.0127(3)
H6D H -0.0689(2) -0.2923(8) -0.0053(3)
H7D H -0.0157(2) -0.3414(8) 0.0351(3)
O5F O 0.5894(2) 0.5406(6) 0.1594(2)
H4F H 0.6078(2) 0.6177(6) 0.1390(2)
H5F H 0.6030(2) 0.4276(6) 0.1587(2)
O7F O 0.4983(2) 0.9688(8) 0.1585(3)
H8F H 0.4644(2) 1.0445(8) 0.1682(3)
H9F H 0.5314(2) 1.0118(8) 0.1714(3)
O8F O 0.4321(2) 0.4205(7) 0.1807(2)
H10F H 0.4357(2) 0.4504(7) 0.2237(2)
H11F H 0.3991(2) 0.4493(7) 0.1585(2)
O2_2 O 0.1670(2) 0.3592(6) 0.0905(2)
O2F_2 O 0.3330(2) 0.1408(6) -0.0905(2)
Cu1_2 Cu 0.2500 -0.7500 0.0000
Na1D Na -0.0173(1) 0.1220(4) 0.0902(1)
Cu1_3 Cu 0.2500 1.2500 0.0000
O6B O 0.5354(2) 0.7512(8) -0.0127(3)
O6F O 0.4646(2) 0.2488(8) 0.0127(3)
H6B H 0.5689(2) 0.7923(8) 0.0053(3)
H7B H 0.5157(2) 0.8414(8) -0.0351(3)
H6F H 0.4311(2) 0.2077(8) -0.0053(3)
H7F H 0.4843(2) 0.1586(8) 0.0351(3)
loop_
_geom_bond_atom_site_label_1
_geom_bond_atom_site_label_2
_geom_bond_site_symmetry_1
_geom_bond_site_symmetry_2
Cu1 N1 1_555 1_555
N1 C1 1_555 1_555
C1 C2 1_555 1_555
C2 C3 1_555 1_555
C3 C4 1_555 1_555
C4 C5 1_555 1_555
C5 N1 1_555 1_555
C6 C2 1_555 1_555
O1 C6 1_555 1_555
O2 C6 1_555 1_555
C7 C1 1_555 1_555
O3 Cu1 1_555 1_555
O4 C7 1_555 1_555
Na1 O4 1_555 1_555
O5 Na1 1_555 1_555
O6 Na1 1_555 1_555
O7 Na1 1_555 1_555
O8 Na1 1_555 1_555
H1 C3 1_555 1_555
H2 C4 1_555 1_555
H3 C5 1_555 1_555
H4 O5 1_555 1_555
H5 O5 1_555 1_555
H6 O6 1_555 1_555
H7 O6 1_555 1_555
H8 O7 1_555 1_555
H9 O7 1_555 1_555
H10 O8 1_555 1_555
H11 O8 1_555 1_555
N1F Cu1 1_555 1_555
C1F N1F 1_555 1_555
C2F C1F 1_555 1_555
C3F C2F 1_555 1_555
C4F C3F 1_555 1_555
C5F N1F 1_555 1_555
C6F C2F 1_555 1_555
O1F C6F 1_555 1_555
O2F C6F 1_555 1_555
C7F C1F 1_555 1_555
O3F Cu1 1_555 1_555
O4F C7F 1_555 1_555
H1F C3F 1_555 1_555
H2F C4F 1_555 1_555
H3F C5F 1_555 1_555
Na1F O4F 1_555 1_555
O6D Na1 1_555 1_555
H6D O6D 1_555 1_555
H7D O6D 1_555 1_555
O5F Na1F 1_555 1_555
H4F O5F 1_555 1_555
H5F O5F 1_555 1_555
O7F Na1F 1_555 1_555
H8F O7F 1_555 1_555
H9F O7F 1_555 1_555
O8F Na1F 1_555 1_555
H10F O8F 1_555 1_555
H11F O8F 1_555 1_555
O2_2 Cu1 1_555 1_555
O2F_2 Cu1 1_555 1_555
Cu1_2 O2 1_555 1_555
Na1D O6 1_555 1_555
Cu1_3 O2F 1_555 1_555
O6B Na1F 1_555 1_555
O6F Na1F 1_555 1_555
H6B O6B 1_555 1_555
H7B O6B 1_555 1_555
H6F O6F 1_555 1_555
H7F O6F 1_555 1_555
C7 O3 1_555 1_555
C4F C5F 1_555 1_555
C7F O3F 1_555 1_555
O6D Na1D 1_555 1_555

#END
