
#######################################################################
#
#                 Cambridge Crystallographic Data Centre
#                                CCDC 
#
#######################################################################
#
# If this CIF has been generated from an entry in the Cambridge 
# Structural Database, then it will include bibliographic, chemical, 
# crystal, experimental, refinement or atomic coordinate data resulting 
# from the CCDC's data processing and validation procedures.
#
#######################################################################

data_KIQHUN01
_symmetry_cell_setting           monoclinic
_symmetry_space_group_name_H-M   'C 2/c'
_symmetry_Int_Tables_number      15
_space_group_name_Hall           '-C 2yn'
loop_
_symmetry_equiv_pos_site_id
_symmetry_equiv_pos_as_xyz
1 x,y,z
2 1/2+x,1/2+y,z
3 -x,y,1/2-z
4 1/2-x,1/2+y,1/2-z
5 -x,-y,-z
6 1/2-x,1/2-y,-z
7 x,-y,1/2+z
8 1/2+x,1/2-y,1/2+z
_cell_length_a                   21.412(1)
_cell_length_b                   6.0967(7)
_cell_length_c                   16.990(1)
_cell_angle_alpha                90
_cell_angle_beta                 101.780(2)
_cell_angle_gamma                90
_cell_volume                     2171.21
loop_
_atom_site_label
_atom_site_type_symbol
_atom_site_fract_x
_atom_site_fract_y
_atom_site_fract_z
Na1 Na 0.98284(4) 0.8777(1) 0.58941(6)
Cu1 Cu 0.7500 1.2500 0.5000
O1 O 0.82439(6) 1.0720(2) 0.54694(7)
O2 O 0.88153(6) 0.7900(2) 0.51565(8)
O3 O 0.88240(6) 0.6067(2) 0.34848(9)
O4 O 0.83327(7) 0.3528(2) 0.40907(9)
O5 O 1.08858(7) 0.9618(2) 0.65887(9)
O6 O 0.93231(8) 1.0801(3) 0.6807(1)
O7 O 0.96343(9) 1.2475(3) 0.5134(1)
O8 O 0.99853(9) 0.5308(3) 0.6580(2)
N1 N 0.73259(7) 1.0089(2) 0.42180(9)
C1 C 0.78191(8) 0.8671(3) 0.4297(1)
C2 C 0.78241(8) 0.6959(3) 0.3760(1)
C3 C 0.72898(9) 0.6709(3) 0.3140(1)
C4 C 0.67854(9) 0.8153(3) 0.3067(1)
C5 C 0.68208(8) 0.9853(3) 0.3621(1)
C6 C 0.83432(8) 0.9092(3) 0.5023(1)
C7 C 0.83825(9) 0.5395(3) 0.3801(1)
H1 H 0.7273 0.5504 0.2756
H2 H 0.6410 0.7983 0.2634
H3 H 0.6467 1.0897 0.3570
H4 H 1.109(1) 0.885(5) 0.642(2)
H5 H 1.100(1) 1.087(4) 0.657(2)
H6 H 0.925(1) 1.036(5) 0.716(2)
H7 H 0.895(2) 1.071(5) 0.647(2)
H8 H 0.926(2) 1.274(5) 0.488(2)
H9 H 0.972(2) 1.335(5) 0.536(2)
H10 H 1.032(2) 0.509(5) 0.658(2)
H11 H 0.987(2) 0.438(7) 0.674(3)
O1E O 0.67561(6) 1.4280(2) 0.45306(7)
O2E O 0.61847(6) 1.7100(2) 0.48435(8)
O3E O 0.61760(6) 1.8933(2) 0.65152(9)
O4E O 0.66673(7) 2.1472(2) 0.59093(9)
N1E N 0.76741(7) 1.4911(2) 0.57820(9)
C1E C 0.71809(8) 1.6329(3) 0.5703(1)
C2E C 0.71759(8) 1.8041(3) 0.6240(1)
C3E C 0.77102(9) 1.8291(3) 0.6860(1)
C4E C 0.82146(9) 1.6847(3) 0.6933(1)
C5E C 0.81792(8) 1.5147(3) 0.6379(1)
C6E C 0.66568(8) 1.5908(3) 0.4977(1)
C7E C 0.66175(9) 1.9605(3) 0.6199(1)
H1E H 0.7727 1.9496 0.7244
H2E H 0.8590 1.7017 0.7366
H3E H 0.8533 1.4103 0.6430
Na1E Na 0.51716(4) 1.6223(1) 0.41059(6)
O7D O 1.03657(9) 0.7525(3) 0.4866(1)
H8D H 1.074(2) 0.726(5) 0.512(2)
H9D H 1.028(2) 0.665(5) 0.464(2)
O5E O 0.41142(7) 1.5382(2) 0.34113(9)
H4E H 0.391(1) 1.615(5) 0.358(2)
H5E H 0.400(1) 1.413(4) 0.343(2)
O6E O 0.56769(8) 1.4199(3) 0.3193(1)
H6E H 0.575(1) 1.464(5) 0.284(2)
H7E H 0.605(2) 1.429(5) 0.353(2)
O8E O 0.50147(9) 1.9692(3) 0.3420(2)
H10E H 0.468(2) 1.991(5) 0.342(2)
H11E H 0.513(2) 2.062(7) 0.326(3)
O4_2 O 0.83327(7) 1.3528(2) 0.40907(9)
O4E_2 O 0.66673(7) 1.1472(2) 0.59093(9)
Cu1_2 Cu 0.7500 0.2500 0.5000
Na1D Na 1.01716(4) 1.1223(1) 0.41059(6)
Cu1_3 Cu 0.7500 2.2500 0.5000
O7A O 0.46343(9) 1.7475(3) 0.5134(1)
O7E O 0.53657(9) 1.2525(3) 0.4866(1)
H8A H 0.426(2) 1.774(5) 0.488(2)
H9A H 0.472(2) 1.835(5) 0.536(2)
H8E H 0.574(2) 1.226(5) 0.512(2)
H9E H 0.528(2) 1.165(5) 0.464(2)
loop_
_geom_bond_atom_site_label_1
_geom_bond_atom_site_label_2
_geom_bond_site_symmetry_1
_geom_bond_site_symmetry_2
Na1 O2 1_555 1_555
Cu1 O1 1_555 1_555
O1 C6 1_555 1_555
O2 C6 1_555 1_555
O3 C7 1_555 1_555
O4 C7 1_555 1_555
O5 Na1 1_555 1_555
O6 Na1 1_555 1_555
O7 Na1 1_555 1_555
O8 Na1 1_555 1_555
N1 Cu1 1_555 1_555
C1 N1 1_555 1_555
C2 C1 1_555 1_555
C3 C2 1_555 1_555
C4 C3 1_555 1_555
C5 N1 1_555 1_555
C6 C1 1_555 1_555
C7 C2 1_555 1_555
H1 C3 1_555 1_555
H2 C4 1_555 1_555
H3 C5 1_555 1_555
H4 O5 1_555 1_555
H5 O5 1_555 1_555
H6 O6 1_555 1_555
H7 O6 1_555 1_555
H8 O7 1_555 1_555
H9 O7 1_555 1_555
H10 O8 1_555 1_555
H11 O8 1_555 1_555
O1E Cu1 1_555 1_555
O2E C6E 1_555 1_555
O3E C7E 1_555 1_555
O4E C7E 1_555 1_555
N1E Cu1 1_555 1_555
C1E N1E 1_555 1_555
C2E C1E 1_555 1_555
C3E C2E 1_555 1_555
C4E C3E 1_555 1_555
C5E N1E 1_555 1_555
C6E O1E 1_555 1_555
C7E C2E 1_555 1_555
H1E C3E 1_555 1_555
H2E C4E 1_555 1_555
H3E C5E 1_555 1_555
Na1E O2E 1_555 1_555
O7D Na1 1_555 1_555
H8D O7D 1_555 1_555
H9D O7D 1_555 1_555
O5E Na1E 1_555 1_555
H4E O5E 1_555 1_555
H5E O5E 1_555 1_555
O6E Na1E 1_555 1_555
H6E O6E 1_555 1_555
H7E O6E 1_555 1_555
O8E Na1E 1_555 1_555
H10E O8E 1_555 1_555
H11E O8E 1_555 1_555
O4_2 Cu1 1_555 1_555
O4E_2 Cu1 1_555 1_555
Cu1_2 O4 1_555 1_555
Na1D O7 1_555 1_555
Cu1_3 O4E 1_555 1_555
O7A Na1E 1_555 1_555
O7E Na1E 1_555 1_555
H8A O7A 1_555 1_555
H9A O7A 1_555 1_555
H8E O7E 1_555 1_555
H9E O7E 1_555 1_555
C4 C5 1_555 1_555
C1E C6E 1_555 1_555
C4E C5E 1_555 1_555
O7D Na1D 1_555 1_555

#END
