
#######################################################################
#
#                 Cambridge Crystallographic Data Centre
#                                CCDC 
#
#######################################################################
#
# If this CIF has been generated from an entry in the Cambridge 
# Structural Database, then it will include bibliographic, chemical, 
# crystal, experimental, refinement or atomic coordinate data resulting 
# from the CCDC's data processing and validation procedures.
#
#######################################################################

data_KIQJUP
_symmetry_cell_setting           monoclinic
_symmetry_space_group_name_H-M   'C 2/c'
_symmetry_Int_Tables_number      15
_space_group_name_Hall           '-C 2yn'
loop_
_symmetry_equiv_pos_site_id
_symmetry_equiv_pos_as_xyz
1 x,y,z
2 -x,y,1/2-z
3 1/2+x,1/2+y,z
4 1/2-x,1/2+y,1/2-z
5 -x,-y,-z
6 x,-y,1/2+z
7 1/2-x,1/2-y,-z
8 1/2+x,1/2-y,1/2+z
_cell_length_a                   4.904(2)
_cell_length_b                   14.288(2)
_cell_length_c                   14.080(1)
_cell_angle_alpha                90
_cell_angle_beta                 94.11(2)
_cell_angle_gamma                90
_cell_volume                     984.025
loop_
_atom_site_label
_atom_site_type_symbol
_atom_site_fract_x
_atom_site_fract_y
_atom_site_fract_z
Mn1 Mn -0.5000 0.38167(4) -0.2500
Cl1 Cl 0.2172(1) 0.40173(5) 0.03816(5)
O1 O -0.3220(4) 0.1205(1) 0.1338(1)
O2 O 0.0967(4) 0.2340(1) 0.1557(1)
O3 O -0.7203(5) 0.4891(2) -0.1838(2)
C1 C -0.2956(5) 0.1771(2) 0.0672(2)
C2 C -0.0621(5) 0.2474(2) 0.0824(2)
C3 C -0.0387(5) 0.3196(2) 0.0176(2)
H1 H -0.698(8) 0.539(2) -0.193(3)
H2 H -0.839(8) 0.479(3) -0.156(3)
C1F C -0.2044(5) 0.3229(2) -0.0672(2)
O1F O -0.1780(4) 0.3795(1) -0.1338(1)
Mn1F Mn 0.0000 0.11833(4) 0.2500
O1G O -0.8220(4) 0.3795(1) -0.3662(1)
O2G O -0.4033(4) 0.2660(1) -0.3443(1)
O2F O -0.5967(4) 0.2660(1) -0.1557(1)
C2F C -0.4379(5) 0.2526(2) -0.0824(2)
C3F C -0.4613(5) 0.1804(2) -0.0176(2)
Cl1F Cl -0.7172(1) 0.09827(5) -0.03816(5)
O3A O -0.2797(5) 0.4891(2) -0.3162(2)
H1A H -0.302(8) 0.539(2) -0.307(3)
H2A H -0.161(8) 0.479(3) -0.344(3)
O4 O -0.5000 0.3483(2) 0.2500
H3 H -0.397(8) 0.313(2) 0.281(3)
H3A H -0.603(8) 0.313(2) 0.219(3)
loop_
_geom_bond_atom_site_label_1
_geom_bond_atom_site_label_2
_geom_bond_site_symmetry_1
_geom_bond_site_symmetry_2
Mn1 O3 1_555 1_555
Cl1 C3 1_555 1_555
O1 C1 1_555 1_555
O2 C2 1_555 1_555
O3 H1 1_555 1_555
O4 H3 1_555 1_555
C1 C2 1_555 1_555
C2 C3 1_555 1_555
C3 C1F 1_555 1_555
H2 O3 1_555 1_555
C1F O1F 1_555 1_555
O1F Mn1 1_555 1_555
Mn1F O1 1_555 1_555
O1G Mn1 1_555 1_555
O2G Mn1 1_555 1_555
O2F Mn1 1_555 1_555
C2F C1F 1_555 1_555
C3F C1 1_555 1_555
Cl1F C3F 1_555 1_555
O3A Mn1 1_555 1_555
H1A O3A 1_555 1_555
H2A O3A 1_555 1_555
H3A O4 1_555 1_555
O2 Mn1F 1_555 1_555
O2F C2F 1_555 1_555
C2F C3F 1_555 1_555

#END
