
#######################################################################
#
#                 Cambridge Crystallographic Data Centre
#                                CCDC 
#
#######################################################################
#
# If this CIF has been generated from an entry in the Cambridge 
# Structural Database, then it will include bibliographic, chemical, 
# crystal, experimental, refinement or atomic coordinate data resulting 
# from the CCDC's data processing and validation procedures.
#
#######################################################################

data_KIQJAV
_symmetry_cell_setting           monoclinic
_symmetry_space_group_name_H-M   'P 21/c'
_symmetry_Int_Tables_number      14
_space_group_name_Hall           '-P 2ybc'
loop_
_symmetry_equiv_pos_site_id
_symmetry_equiv_pos_as_xyz
1 x,y,z
2 -x,1/2+y,1/2-z
3 -x,-y,-z
4 x,1/2-y,1/2+z
_cell_length_a                   7.272(2)
_cell_length_b                   11.319(3)
_cell_length_c                   25.453(9)
_cell_angle_alpha                90
_cell_angle_beta                 90.58(1)
_cell_angle_gamma                90
_cell_volume                     2094.97
loop_
_atom_site_label
_atom_site_type_symbol
_atom_site_fract_x
_atom_site_fract_y
_atom_site_fract_z
Cu1 Cu 0.0000 0.0000 0.0000
Cu2 Cu -0.2413(2) 0.2380(1) 0.2518(1)
Cu3 Cu -0.5000 0.0000 0.5000
O1 O -0.0757(7) 0.1991(6) 0.1932(2)
O2 O 0.1806(8) 0.2981(7) 0.2163(2)
O3 O 0.5545(7) 0.1794(5) 0.2094(2)
O4 O 0.5650(9) 0.3480(6) 0.1646(2)
N1 N 0.1524(9) 0.0901(6) 0.0541(2)
C1 C 0.0813(11) 0.1360(8) 0.0976(3)
C2 C 0.1835(11) 0.1872(8) 0.1383(3)
C3 C 0.3731(11) 0.1919(8) 0.1320(3)
C4 C 0.4479(11) 0.1460(8) 0.0869(3)
C5 C 0.3376(11) 0.0960(8) 0.0491(3)
C6 C 0.0909(11) 0.2334(8) 0.1862(3)
C7 C 0.5059(11) 0.2465(9) 0.1728(3)
O5 O -0.4887(8) 0.1234(6) 0.4476(2)
O6 O -0.7772(8) 0.1916(6) 0.4534(2)
O7 O -1.0232(8) 0.3598(6) 0.3909(2)
O8 O -0.8275(7) 0.4504(6) 0.4462(2)
N2 N -0.4199(8) 0.2921(7) 0.3060(2)
C8 C -0.4515(11) 0.2328(8) 0.3505(3)
C9 C -0.5901(11) 0.2598(8) 0.3847(3)
C10 C -0.7030(11) 0.3546(7) 0.3731(3)
C11 C -0.6666(10) 0.4218(8) 0.3287(3)
C12 C -0.5254(11) 0.3857(8) 0.2965(3)
C13 C -0.6225(12) 0.1869(8) 0.4324(3)
C14 C -0.8656(11) 0.3893(8) 0.4065(3)
O10 O -0.2713(11) 0.1152(8) 0.5593(3)
O11 O -0.3050(9) -0.0774(6) 0.4604(3)
O12 O -0.0486(9) 0.3126(12) 0.2908(3)
O13 O -0.1523(12) 0.0525(7) 0.2954(4)
O14 O 0.2150(12) -0.1703(6) 0.0117(3)
O1B O 0.0757(7) -0.1991(6) -0.1932(2)
O2B O -0.1806(8) -0.2981(7) -0.2163(2)
O3B O -0.5545(7) -0.1794(5) -0.2094(2)
O4B O -0.5650(9) -0.3480(6) -0.1646(2)
N1B N -0.1524(9) -0.0901(6) -0.0541(2)
C1B C -0.0813(11) -0.1360(8) -0.0976(3)
C2B C -0.1835(11) -0.1872(8) -0.1383(3)
C3B C -0.3731(11) -0.1919(8) -0.1320(3)
C4B C -0.4479(11) -0.1460(8) -0.0869(3)
C5B C -0.3376(11) -0.0960(8) -0.0491(3)
C6B C -0.0909(11) -0.2334(8) -0.1862(3)
C7B C -0.5059(11) -0.2465(9) -0.1728(3)
O8C O 0.1725(7) 0.0496(6) -0.0538(2)
O14B O -0.2150(12) 0.1703(6) -0.0117(3)
Cu2B Cu 0.2413(2) -0.2380(1) -0.2518(1)
Cu2_2 Cu 0.7587(2) 0.2380(1) 0.2518(1)
Cu2B_2 Cu -0.7587(2) -0.2380(1) -0.2518(1)
O3_2 O -0.4455(7) 0.1794(5) 0.2094(2)
O8A O -0.1725(7) -0.0496(6) 0.0538(2)
O3B_2 O 0.4455(7) -0.1794(5) -0.2094(2)
O5B O 0.4887(8) -0.1234(6) -0.4476(2)
O6B O 0.7772(8) -0.1916(6) -0.4534(2)
O7B O 1.0232(8) -0.3598(6) -0.3909(2)
O8B O 0.8275(7) -0.4504(6) -0.4462(2)
N2B N 0.4199(8) -0.2921(7) -0.3060(2)
C8B C 0.4515(11) -0.2328(8) -0.3505(3)
C9B C 0.5901(11) -0.2598(8) -0.3847(3)
C10B C 0.7030(11) -0.3546(7) -0.3731(3)
C11B C 0.6666(10) -0.4218(8) -0.3287(3)
C12B C 0.5254(11) -0.3857(8) -0.2965(3)
C13B C 0.6225(12) -0.1869(8) -0.4324(3)
C14B C 0.8656(11) -0.3893(8) -0.4065(3)
O12B O 0.0486(9) -0.3126(12) -0.2908(3)
O13B O 0.1523(12) -0.0525(7) -0.2954(4)
Cu1A Cu -1.0000 0.5000 0.5000
Cu1C Cu 1.0000 -0.5000 -0.5000
Cu3_2 Cu 0.5000 0.0000 -0.5000
O5B_2 O -0.5113(8) -0.1234(6) 0.5524(2)
O10B O -0.7287(11) -0.1152(8) 0.4407(3)
O11B O -0.6950(9) 0.0774(6) 0.5396(3)
O9 O 0.0400(11) 0.5407(8) 0.0935(3)
O15 O -1.2349(12) -0.4534(9) 0.2107(4)
loop_
_geom_bond_atom_site_label_1
_geom_bond_atom_site_label_2
_geom_bond_site_symmetry_1
_geom_bond_site_symmetry_2
Cu1 N1 1_555 1_555
Cu2 O1 1_555 1_555
Cu3 O5 1_555 1_555
O1 C6 1_555 1_555
O2 C6 1_555 1_555
O3 C7 1_555 1_555
O4 C7 1_555 1_555
N1 C1 1_555 1_555
C1 C2 1_555 1_555
C2 C3 1_555 1_555
C3 C4 1_555 1_555
C4 C5 1_555 1_555
C5 N1 1_555 1_555
C6 C2 1_555 1_555
C7 C3 1_555 1_555
O5 C13 1_555 1_555
O6 C13 1_555 1_555
O7 C14 1_555 1_555
O8 C14 1_555 1_555
N2 Cu2 1_555 1_555
C8 N2 1_555 1_555
C9 C8 1_555 1_555
C10 C9 1_555 1_555
C11 C10 1_555 1_555
C12 N2 1_555 1_555
C13 C9 1_555 1_555
C14 C10 1_555 1_555
O10 Cu3 1_555 1_555
O11 Cu3 1_555 1_555
O12 Cu2 1_555 1_555
O13 Cu2 1_555 1_555
O14 Cu1 1_555 1_555
O1B C6B 1_555 1_555
O2B C6B 1_555 1_555
O3B C7B 1_555 1_555
O4B C7B 1_555 1_555
N1B Cu1 1_555 1_555
C1B N1B 1_555 1_555
C2B C1B 1_555 1_555
C3B C2B 1_555 1_555
C4B C3B 1_555 1_555
C5B N1B 1_555 1_555
C6B C2B 1_555 1_555
C7B C3B 1_555 1_555
O8C Cu1 1_555 1_555
O14B Cu1 1_555 1_555
Cu2B O1B 1_555 1_555
Cu2_2 O3 1_555 1_555
Cu2B_2 O3B 1_555 1_555
O3_2 Cu2 1_555 1_555
O8A Cu1 1_555 1_555
O3B_2 Cu2B 1_555 1_555
O5B C13B 1_555 1_555
O6B C13B 1_555 1_555
O7B C14B 1_555 1_555
O8B C14B 1_555 1_555
N2B Cu2B 1_555 1_555
C8B N2B 1_555 1_555
C9B C8B 1_555 1_555
C10B C9B 1_555 1_555
C11B C10B 1_555 1_555
C12B N2B 1_555 1_555
C13B C9B 1_555 1_555
C14B C10B 1_555 1_555
O12B Cu2B 1_555 1_555
O13B Cu2B 1_555 1_555
Cu1A O8 1_555 1_555
Cu1C O8B 1_555 1_555
Cu3_2 O5B 1_555 1_555
O5B_2 Cu3 1_555 1_555
O10B Cu3 1_555 1_555
O11B Cu3 1_555 1_555
C11 C12 1_555 1_555
C4B C5B 1_555 1_555
C11B C12B 1_555 1_555

#END
