
#######################################################################
#
#                 Cambridge Crystallographic Data Centre
#                                CCDC 
#
#######################################################################
#
# If this CIF has been generated from an entry in the Cambridge 
# Structural Database, then it will include bibliographic, chemical, 
# crystal, experimental, refinement or atomic coordinate data resulting 
# from the CCDC's data processing and validation procedures.
#
#######################################################################

data_KIQJOJ
_symmetry_cell_setting           monoclinic
_symmetry_space_group_name_H-M   'C 2/c'
_symmetry_Int_Tables_number      15
_space_group_name_Hall           '-C 2yn'
loop_
_symmetry_equiv_pos_site_id
_symmetry_equiv_pos_as_xyz
1 x,y,z
2 -x,y,1/2-z
3 1/2+x,1/2+y,z
4 1/2-x,1/2+y,1/2-z
5 -x,-y,-z
6 x,-y,1/2+z
7 1/2-x,1/2-y,-z
8 1/2+x,1/2-y,1/2+z
_cell_length_a                   4.927(4)
_cell_length_b                   14.067(4)
_cell_length_c                   14.007(3)
_cell_angle_alpha                90
_cell_angle_beta                 96.05(4)
_cell_angle_gamma                90
_cell_volume                     965.392
loop_
_atom_site_label
_atom_site_type_symbol
_atom_site_fract_x
_atom_site_fract_y
_atom_site_fract_z
Co1 Co 0.0000 0.37513(4) -0.7500
Cl1 Cl 0.7222(2) 0.40293(6) -0.46314(5)
O1 O 0.1819(4) 0.1233(2) -0.3618(1)
O2 O 0.6022(4) 0.2367(2) -0.3409(1)
O3 O -0.2066(6) 0.4786(2) -0.6827(2)
C1 C 0.2060(6) 0.1786(2) -0.4310(2)
C2 C 0.4416(5) 0.2489(2) -0.4158(2)
C3 C 0.4637(6) 0.3200(2) -0.4832(2)
H1 H -0.193(8) 0.533(3) -0.696(3)
H2 H -0.330(8) 0.465(3) -0.662(3)
C1F C 0.2940(6) 0.3214(2) -0.5690(2)
O1F O 0.3181(4) 0.3767(2) -0.6382(1)
Co1F Co 0.5000 0.12487(4) -0.2500
O1G O -0.3181(4) 0.3767(2) -0.8618(1)
O2G O 0.1022(4) 0.2633(2) -0.8409(1)
O2F O -0.1022(4) 0.2633(2) -0.6591(1)
C2F C 0.0584(5) 0.2511(2) -0.5842(2)
C3F C 0.0363(6) 0.1800(2) -0.5168(2)
Cl1F Cl -0.2222(2) 0.09707(6) -0.53686(5)
O3A O 0.2066(6) 0.4786(2) -0.8173(2)
H1A H 0.193(8) 0.533(3) -0.804(3)
H2A H 0.330(8) 0.465(3) -0.838(3)
O4 O 1.0000 0.3562(3) -0.2500
H3 H 0.891(7) 0.323(3) -0.283(3)
H3A H 1.109(7) 0.323(3) -0.217(3)
loop_
_geom_bond_atom_site_label_1
_geom_bond_atom_site_label_2
_geom_bond_site_symmetry_1
_geom_bond_site_symmetry_2
Co1 O3 1_555 1_555
Cl1 C3 1_555 1_555
O1 C1 1_555 1_555
O2 C2 1_555 1_555
O3 H1 1_555 1_555
O4 H3 1_555 1_555
C1 C2 1_555 1_555
C2 C3 1_555 1_555
C3 C1F 1_555 1_555
H2 O3 1_555 1_555
C1F O1F 1_555 1_555
O1F Co1 1_555 1_555
Co1F O1 1_555 1_555
O1G Co1 1_555 1_555
O2G Co1 1_555 1_555
O2F Co1 1_555 1_555
C2F C1F 1_555 1_555
C3F C1 1_555 1_555
Cl1F C3F 1_555 1_555
O3A Co1 1_555 1_555
H1A O3A 1_555 1_555
H2A O3A 1_555 1_555
H3A O4 1_555 1_555
O2 Co1F 1_555 1_555
O2F C2F 1_555 1_555
C2F C3F 1_555 1_555

#END
