
#######################################################################
#
#                 Cambridge Crystallographic Data Centre
#                                CCDC 
#
#######################################################################
#
# If this CIF has been generated from an entry in the Cambridge 
# Structural Database, then it will include bibliographic, chemical, 
# crystal, experimental, refinement or atomic coordinate data resulting 
# from the CCDC's data processing and validation procedures.
#
#######################################################################

data_KIQJID01
_symmetry_cell_setting           monoclinic
_symmetry_space_group_name_H-M   'C 2/c'
_symmetry_Int_Tables_number      15
_space_group_name_Hall           '-C 2yn'
loop_
_symmetry_equiv_pos_site_id
_symmetry_equiv_pos_as_xyz
1 x,y,z
2 1/2+x,1/2+y,z
3 x,-y,1/2+z
4 1/2+x,1/2-y,1/2+z
5 -x,-y,-z
6 1/2-x,1/2-y,-z
7 -x,y,1/2-z
8 1/2-x,1/2+y,1/2-z
_cell_length_a                   4.9199(2)
_cell_length_b                   14.255(1)
_cell_length_c                   14.011(3)
_cell_angle_alpha                90
_cell_angle_beta                 94.980(7)
_cell_angle_gamma                90
_cell_volume                     978.927
loop_
_atom_site_label
_atom_site_type_symbol
_atom_site_fract_x
_atom_site_fract_y
_atom_site_fract_z
Fe1 Fe 0.0000 0.12185(4) 0.2500
Cl1 Cl -0.71915(13) 0.09764(5) -0.03710(5)
O1 O -0.3162(4) 0.12201(13) 0.13688(14)
O2 O -0.6003(4) 0.26499(13) -0.15694(12)
C1 C -0.2937(5) 0.17766(18) 0.06835(18)
C2 C -0.4404(5) 0.25172(17) -0.08303(17)
C3 C -0.4631(5) 0.17963(17) -0.01688(17)
O3 O 0.2139(5) 0.01588(16) 0.18507(17)
H1 H 0.182(9) -0.038(2) 0.197(3)
H2 H 0.354(7) 0.031(4) 0.166(4)
C2E C -0.0596(5) 0.24828(17) 0.08303(17)
O2E O 0.1003(4) 0.23501(13) 0.15694(12)
C3E C -0.0369(5) 0.32037(17) 0.01688(17)
Cl1E Cl 0.21915(13) 0.40236(5) 0.03710(5)
C1E C -0.2063(5) 0.32234(18) -0.06835(18)
O1E O -0.1838(4) 0.37799(13) -0.13688(14)
O3F O -0.2139(5) 0.01588(16) 0.31493(17)
H1F H -0.182(9) -0.038(2) 0.303(3)
H2F H -0.354(7) 0.031(4) 0.334(4)
O1F O 0.3162(4) 0.12201(13) 0.36312(14)
O2C O -0.1003(4) 0.23501(13) 0.34306(12)
Fe1C Fe -0.5000 0.37815(4) -0.2500
O4 O 0.5000 0.3515(2) 0.2500
H3 H 0.388(8) 0.320(3) 0.221(3)
H3F H 0.612(8) 0.320(3) 0.279(3)
loop_
_geom_bond_atom_site_label_1
_geom_bond_atom_site_label_2
_geom_bond_site_symmetry_1
_geom_bond_site_symmetry_2
Fe1 O1 1_555 1_555
Cl1 C3 1_555 1_555
O1 C1 1_555 1_555
O2 C2 1_555 1_555
C1 C3 1_555 1_555
C2 C3 1_555 1_555
O3 Fe1 1_555 1_555
H1 O3 1_555 1_555
H2 O3 1_555 1_555
O4 H3 1_555 1_555
C2E C1 1_555 1_555
O2E Fe1 1_555 1_555
C3E C2E 1_555 1_555
Cl1E C3E 1_555 1_555
C1E C2 1_555 1_555
O1E C1E 1_555 1_555
H3F O4 1_555 1_555
O3F Fe1 1_555 1_555
H1F O3F 1_555 1_555
H2F O3F 1_555 1_555
O1F Fe1 1_555 1_555
O2C Fe1 1_555 1_555
Fe1C O2 1_555 1_555
C2E O2E 1_555 1_555
C3E C1E 1_555 1_555
O1E Fe1C 1_555 1_555

#END
