
#######################################################################
#
#                 Cambridge Crystallographic Data Centre
#                                CCDC 
#
#######################################################################
#
# If this CIF has been generated from an entry in the Cambridge 
# Structural Database, then it will include bibliographic, chemical, 
# crystal, experimental, refinement or atomic coordinate data resulting 
# from the CCDC's data processing and validation procedures.
#
#######################################################################

data_KIQKAW
_symmetry_cell_setting           triclinic
_symmetry_space_group_name_H-M   'P -1'
_symmetry_Int_Tables_number      2
_space_group_name_Hall           '-P 1'
loop_
_symmetry_equiv_pos_site_id
_symmetry_equiv_pos_as_xyz
1 x,y,z
2 -x,-y,-z
_cell_length_a                   8.079(2)
_cell_length_b                   11.366(3)
_cell_length_c                   5.055(2)
_cell_angle_alpha                96.57(3)
_cell_angle_beta                 98.70(3)
_cell_angle_gamma                83.07(2)
_cell_volume                     453.294
loop_
_atom_site_label
_atom_site_type_symbol
_atom_site_fract_x
_atom_site_fract_y
_atom_site_fract_z
Fe1 Fe 0.0000 0.0000 0.0000
Cl1 Cl -0.42703(9) -0.19283(6) 0.4208(1)
O1 O -0.2407(2) 0.0820(2) -0.1676(4)
O2 O -0.1774(2) -0.0796(2) 0.1762(4)
O3 O 0.0136(2) 0.1298(2) 0.3254(4)
C1 C -0.3668(3) 0.0473(2) -0.0971(5)
C2 C -0.3322(3) -0.0462(2) 0.1028(5)
C3 C -0.4658(3) -0.0885(2) 0.1895(5)
H1 H -0.0002 0.1943 0.3143
H2 H 0.0732 0.1065 0.4806
O1A O 0.2407(2) -0.0820(2) 0.1676(4)
O2A O 0.1774(2) 0.0796(2) -0.1762(4)
O3A O -0.0136(2) -0.1298(2) -0.3254(4)
H1A H 0.0002 -0.1943 -0.3143
H2A H -0.0732 -0.1065 -0.4806
C1A C -0.6332(3) -0.0473(2) 0.0971(5)
O1A_2 O -0.7593(2) -0.0820(2) 0.1676(4)
C2A C -0.6678(3) 0.0462(2) -0.1028(5)
C3A C -0.5342(3) 0.0885(2) -0.1895(5)
Cl1A Cl -0.57297(9) 0.19283(6) -0.4208(1)
O2A_2 O -0.8226(2) 0.0796(2) -0.1762(4)
Fe1_2 Fe -1.0000 0.0000 0.0000
N1 N 0.0035(3) 0.3774(2) -0.5886(5)
C4 C -0.2858(4) 0.4067(3) -0.1013(7)
C5 C -0.1925(4) 0.3576(3) -0.2915(7)
C6 C -0.0935(4) 0.4280(2) -0.4060(6)
C7 C 0.0971(4) 0.4471(3) -0.6858(6)
C8 C 0.1991(4) 0.3982(3) -0.8837(7)
C9 C -0.2892(4) 0.5304(3) -0.0097(7)
H3 H -0.3409 0.3584 -0.0013
H4 H -0.1808 0.2753 -0.3527
H5 H 0.2059 0.3122 -0.9270
H6 H -0.3519 0.5652 0.1469
C8A C -0.1991(4) 0.6018(3) -0.1163(7)
C7A C -0.0971(4) 0.5529(3) -0.3142(6)
N1A N -0.0035(3) 0.6226(2) -0.4114(5)
C6A C 0.0935(4) 0.5720(2) -0.5940(6)
C5A C 0.1925(4) 0.6424(3) -0.7085(7)
C4A C 0.2858(4) 0.5933(3) -0.8987(7)
C9A C 0.2892(4) 0.4696(3) -0.9903(7)
H6A H 0.3519 0.4348 -1.1469
H3A H 0.3409 0.6416 -0.9987
H4A H 0.1808 0.7247 -0.6473
H5A H -0.2059 0.6878 -0.0730
loop_
_geom_bond_atom_site_label_1
_geom_bond_atom_site_label_2
_geom_bond_site_symmetry_1
_geom_bond_site_symmetry_2
Fe1 O1 1_555 1_555
Cl1 C3 1_555 1_555
O1 C1 1_555 1_555
O2 Fe1 1_555 1_555
O3 Fe1 1_555 1_555
N1 C6 1_555 1_555
C1 C2 1_555 1_555
C2 O2 1_555 1_555
C3 C2 1_555 1_555
C4 C5 1_555 1_555
C5 C6 1_555 1_555
C6 C7A 1_555 1_555
C7 N1 1_555 1_555
C8 C7 1_555 1_555
C9 C4 1_555 1_555
H1 O3 1_555 1_555
H2 O3 1_555 1_555
H3 C4 1_555 1_555
H4 C5 1_555 1_555
H5 C8 1_555 1_555
H6 C9 1_555 1_555
O1A Fe1 1_555 1_555
O2A Fe1 1_555 1_555
O3A Fe1 1_555 1_555
H1A O3A 1_555 1_555
H2A O3A 1_555 1_555
C1A C3 1_555 1_555
O1A_2 C1A 1_555 1_555
C2A C1A 1_555 1_555
C3A C1 1_555 1_555
Cl1A C3A 1_555 1_555
O2A_2 C2A 1_555 1_555
C8A C9 1_555 1_555
C7A C8A 1_555 1_555
N1A C7A 1_555 1_555
C6A C7 1_555 1_555
C5A C6A 1_555 1_555
C4A C5A 1_555 1_555
C9A C8 1_555 1_555
H6A C9A 1_555 1_555
H3A C4A 1_555 1_555
H4A C5A 1_555 1_555
H5A C8A 1_555 1_555
Fe1_2 O1A_2 1_555 1_555
C2A C3A 1_555 1_555
O2A_2 Fe1_2 1_555 1_555
N1A C6A 1_555 1_555
C4A C9A 1_555 1_555

#END
