
#######################################################################
#
#                 Cambridge Crystallographic Data Centre
#                                CCDC 
#
#######################################################################
#
# If this CIF has been generated from an entry in the Cambridge 
# Structural Database, then it will include bibliographic, chemical, 
# crystal, experimental, refinement or atomic coordinate data resulting 
# from the CCDC's data processing and validation procedures.
#
#######################################################################

data_KIQKIE
_symmetry_cell_setting           triclinic
_symmetry_space_group_name_H-M   'P -1'
_symmetry_Int_Tables_number      2
_space_group_name_Hall           '-P 1'
loop_
_symmetry_equiv_pos_site_id
_symmetry_equiv_pos_as_xyz
1 x,y,z
2 -x,-y,-z
_cell_length_a                   8.178(1)
_cell_length_b                   11.433(1)
_cell_length_c                   5.0684(5)
_cell_angle_alpha                96.121(9)
_cell_angle_beta                 98.477(9)
_cell_angle_gamma                83.398(10)
_cell_volume                     463.662
loop_
_atom_site_label
_atom_site_type_symbol
_atom_site_fract_x
_atom_site_fract_y
_atom_site_fract_z
Mn1 Mn 0.0000 -0.5000 0.0000
Cl1 Cl -0.43003(9) -0.69297(7) 0.4200(2)
O1 O -0.2432(2) -0.4173(2) -0.1689(4)
O2 O -0.1836(2) -0.5797(2) 0.1762(4)
O3 O 0.0158(3) -0.3680(2) 0.3322(4)
C1 C -0.3682(3) -0.4526(2) -0.0985(6)
C2 C -0.3346(3) -0.5467(2) 0.1024(5)
C3 C -0.4675(3) -0.5885(2) 0.1886(6)
H1 H 0.0117 -0.2977 0.3361
H2 H 0.0739 -0.3823 0.4756
O1A O 0.2432(2) -0.5827(2) 0.1689(4)
O2A O 0.1836(2) -0.4203(2) -0.1762(4)
O3A O -0.0158(3) -0.6320(2) -0.3322(4)
H1A H -0.0117 -0.7023 -0.3361
H2A H -0.0739 -0.6177 -0.4756
C1A C -0.6318(3) -0.5474(2) 0.0985(6)
O1A_2 O -0.7568(2) -0.5827(2) 0.1689(4)
C2A C -0.6654(3) -0.4533(2) -0.1024(5)
C3A C -0.5325(3) -0.4115(2) -0.1886(6)
Cl1A Cl -0.56997(9) -0.30703(7) -0.4200(2)
O2A_2 O -0.8164(2) -0.4203(2) -0.1762(4)
Mn1_2 Mn -1.0000 -0.5000 0.0000
N1 N 0.0004(3) -0.1214(2) -0.5863(5)
C4 C -0.2862(4) -0.0897(3) -0.1012(8)
C5 C -0.1953(4) -0.1397(3) -0.2905(7)
C6 C -0.0952(4) -0.0706(3) -0.4038(7)
C7 C 0.0956(4) -0.0529(3) -0.6832(7)
C8 C 0.1964(4) -0.1016(3) -0.8819(7)
C9 C -0.2880(4) 0.0322(3) -0.0150(7)
H3 H -0.3450 -0.1382 -0.0230
H4 H -0.1885 -0.2183 -0.3445
H5 H 0.1960 -0.1794 -0.9366
H6 H -0.3479 0.0599 0.1293
C8A C -0.1964(4) 0.1016(3) -0.1181(7)
C7A C -0.0956(4) 0.0529(3) -0.3168(7)
N1A N -0.0004(3) 0.1214(2) -0.4137(5)
C6A C 0.0952(4) 0.0706(3) -0.5962(7)
C5A C 0.1953(4) 0.1397(3) -0.7095(7)
C4A C 0.2862(4) 0.0897(3) -0.8988(8)
C9A C 0.2880(4) -0.0322(3) -0.9850(7)
H6A H 0.3479 -0.0599 -1.1293
H3A H 0.3450 0.1382 -0.9770
H4A H 0.1885 0.2183 -0.6555
H5A H -0.1960 0.1794 -0.0634
loop_
_geom_bond_atom_site_label_1
_geom_bond_atom_site_label_2
_geom_bond_site_symmetry_1
_geom_bond_site_symmetry_2
Mn1 O1 1_555 1_555
Cl1 C3 1_555 1_555
O1 C1 1_555 1_555
O2 Mn1 1_555 1_555
O3 Mn1 1_555 1_555
N1 C6 1_555 1_555
C1 C2 1_555 1_555
C2 O2 1_555 1_555
C3 C2 1_555 1_555
C4 C5 1_555 1_555
C5 C6 1_555 1_555
C6 C7A 1_555 1_555
C7 N1 1_555 1_555
C8 C7 1_555 1_555
C9 C4 1_555 1_555
H1 O3 1_555 1_555
H2 O3 1_555 1_555
H3 C4 1_555 1_555
H4 C5 1_555 1_555
H5 C8 1_555 1_555
H6 C9 1_555 1_555
O1A Mn1 1_555 1_555
O2A Mn1 1_555 1_555
O3A Mn1 1_555 1_555
H1A O3A 1_555 1_555
H2A O3A 1_555 1_555
C1A C3 1_555 1_555
O1A_2 C1A 1_555 1_555
C2A C1A 1_555 1_555
C3A C1 1_555 1_555
Cl1A C3A 1_555 1_555
O2A_2 C2A 1_555 1_555
C8A C9 1_555 1_555
C7A C8A 1_555 1_555
N1A C7A 1_555 1_555
C6A C7 1_555 1_555
C5A C6A 1_555 1_555
C4A C5A 1_555 1_555
C9A C8 1_555 1_555
H6A C9A 1_555 1_555
H3A C4A 1_555 1_555
H4A C5A 1_555 1_555
H5A C8A 1_555 1_555
Mn1_2 O1A_2 1_555 1_555
C2A C3A 1_555 1_555
O2A_2 Mn1_2 1_555 1_555
N1A C6A 1_555 1_555
C4A C9A 1_555 1_555

#END
