
#######################################################################
#
#                 Cambridge Crystallographic Data Centre
#                                CCDC 
#
#######################################################################
#
# If this CIF has been generated from an entry in the Cambridge 
# Structural Database, then it will include bibliographic, chemical, 
# crystal, experimental, refinement or atomic coordinate data resulting 
# from the CCDC's data processing and validation procedures.
#
#######################################################################

data_KIQKUQ
_symmetry_cell_setting           monoclinic
_symmetry_space_group_name_H-M   'P 21/n'
_symmetry_Int_Tables_number      14
_space_group_name_Hall           '-P 2yn'
loop_
_symmetry_equiv_pos_site_id
_symmetry_equiv_pos_as_xyz
1 x,y,z
2 1/2+x,1/2-y,1/2+z
3 -x,-y,-z
4 1/2-x,1/2+y,1/2-z
_cell_length_a                   5.1894(4)
_cell_length_b                   11.9100(7)
_cell_length_c                   8.2030(5)
_cell_angle_alpha                90
_cell_angle_beta                 102.413(2)
_cell_angle_gamma                90
_cell_volume                     495.141
loop_
_atom_site_label
_atom_site_type_symbol
_atom_site_fract_x
_atom_site_fract_y
_atom_site_fract_z
O1 O -0.4088(6) 0.7751(3) 0.1864(4)
O2 O -0.2413(6) 0.9054(3) 0.5275(5)
O3 O 0.2846(6) 0.9501(2) 0.7347(4)
O4 O -0.7649(6) 0.8373(3) 0.4142(4)
N1 N -0.7869(8) 0.9695(3) 0.1257(5)
C1 C -0.9636(9) 0.8930(3) 0.0524(6)
C2 C -0.8234(9) 1.0770(3) 0.0736(6)
H1 H -0.955(11) 0.8192(49) 0.0862(66)
H2 H -0.684(11) 1.1195(48) 0.1282(74)
Mo1 Mo 0.09284(7) 0.85496(3) 0.58927(5)
Cu1 Cu -0.50400(10) 0.92795(4) 0.32152(7)
Cu1B Cu 0.50400(10) 1.07205(4) 0.67848(7)
O1A O 0.0912(6) 0.7249(3) 0.6864(4)
O3B O -0.2846(6) 1.0499(2) 0.2653(4)
O4_2 O 0.2351(6) 0.8373(3) 0.4142(4)
O1B O 0.4088(6) 1.2249(3) 0.8136(4)
O2B O 0.2413(6) 1.0946(3) 0.4725(5)
O4B O 0.7649(6) 1.1627(3) 0.5858(4)
N1B N 0.7869(8) 1.0305(3) 0.8743(5)
Mo1A Mo -0.40716(7) 0.64504(3) 0.08927(5)
Mo1B Mo -0.09284(7) 1.14504(3) 0.41073(5)
Mo1_2 Mo -0.90716(7) 0.85496(3) 0.58927(5)
O1C O -0.0912(6) 1.2751(3) 0.3136(4)
O4B_2 O -0.2351(6) 1.1627(3) 0.5858(4)
C2B C -1.1766(9) 0.9230(3) -0.0736(6)
C1B C -1.0364(9) 1.1070(3) -0.0524(6)
Cu1C Cu 0.00400(10) 1.42795(4) 0.17848(7)
Cu1B_2 Cu -0.49600(10) 1.07205(4) 0.67848(7)
N1B_2 N -1.2131(8) 1.0305(3) -0.1257(5)
H2B H -1.316(11) 0.8805(48) -0.1282(74)
H1B H -1.045(11) 1.1808(49) -0.0862(66)
Cu1B_3 Cu -1.49600(10) 1.07205(4) -0.32152(7)
loop_
_geom_bond_atom_site_label_1
_geom_bond_atom_site_label_2
_geom_bond_site_symmetry_1
_geom_bond_site_symmetry_2
O1 Cu1 1_555 1_555
O2 Mo1 1_555 1_555
O3 Mo1 1_555 1_555
O4 Cu1 1_555 1_555
N1 C1 1_555 1_555
C1 H1 1_555 1_555
C2 N1 1_555 1_555
H2 C2 1_555 1_555
Mo1 O1A 1_555 1_555
Cu1 O2 1_555 1_555
Cu1B O3 1_555 1_555
O3B Cu1 1_555 1_555
O4_2 Mo1 1_555 1_555
O1B Cu1B 1_555 1_555
O2B Cu1B 1_555 1_555
O4B Cu1B 1_555 1_555
N1B Cu1B 1_555 1_555
Mo1A O1 1_555 1_555
Mo1B O3B 1_555 1_555
Mo1_2 O4 1_555 1_555
O1C Mo1B 1_555 1_555
O4B_2 Mo1B 1_555 1_555
C2B C1 1_555 1_555
C1B C2 1_555 1_555
Cu1C O1C 1_555 1_555
Cu1B_2 O4B_2 1_555 1_555
N1B_2 C2B 1_555 1_555
H2B C2B 1_555 1_555
H1B C1B 1_555 1_555
Cu1B_3 N1B_2 1_555 1_555
N1 Cu1 1_555 1_555
O2B Mo1B 1_555 1_555
C1B N1B_2 1_555 1_555

#END
