
#######################################################################
#
#                 Cambridge Crystallographic Data Centre
#                                CCDC 
#
#######################################################################
#
# If this CIF has been generated from an entry in the Cambridge 
# Structural Database, then it will include bibliographic, chemical, 
# crystal, experimental, refinement or atomic coordinate data resulting 
# from the CCDC's data processing and validation procedures.
#
#######################################################################

data_KIQLEB01
_symmetry_cell_setting           monoclinic
_symmetry_space_group_name_H-M   'P 21/c'
_symmetry_Int_Tables_number      14
_space_group_name_Hall           '-P 2ybc'
loop_
_symmetry_equiv_pos_site_id
_symmetry_equiv_pos_as_xyz
1 x,y,z
2 -x,1/2+y,1/2-z
3 -x,-y,-z
4 x,1/2-y,1/2+z
_cell_length_a                   15.444(6)
_cell_length_b                   6.050(2)
_cell_length_c                   8.587(3)
_cell_angle_alpha                90
_cell_angle_beta                 94.035(7)
_cell_angle_gamma                90
_cell_volume                     800.348
loop_
_atom_site_label
_atom_site_type_symbol
_atom_site_fract_x
_atom_site_fract_y
_atom_site_fract_z
Ag1 Ag 1.03999(4) 0.13397(8) -0.19708(6)
C1 C 0.7139(5) 0.6540(12) -0.4993(9)
H1 H 0.7116 0.7959 -0.5468
C2 C 0.7854(5) 0.5194(13) -0.5168(8)
H2 H 0.8317 0.5696 -0.5746
C3 C 0.7886(5) 0.3082(14) -0.4482(9)
C4 C 0.7196(5) 0.2328(13) -0.3643(8)
H3 H 0.7212 0.0891 -0.3196
C5 C 0.6483(5) 0.3721(13) -0.3469(11)
H4 H 0.6017 0.3214 -0.2898
C6 C 0.6444(5) 0.5845(15) -0.4122(9)
C7 C 0.5673(6) 0.7333(17) -0.3872(11)
H5 H 0.5617 0.8442 -0.4705
H6 H 0.5143 0.6441 -0.3891
H7 H 0.5763 0.8076 -0.2859
O1 O 0.8869(4) -0.0109(9) -0.3340(6)
O2 O 0.8664(3) 0.0178(8) -0.6199(6)
O3 O 0.9569(3) 0.2880(9) -0.4703(6)
S1 S 0.88096(13) 0.1360(3) -0.4706(2)
Ag1A Ag 0.96001(4) -0.36603(8) -0.30292(6)
Ag1B Ag 0.96001(4) -0.13397(8) -0.80292(6)
Ag1C Ag 1.03999(4) 0.36603(8) -0.69708(6)
Ag1A_2 Ag 0.96001(4) 0.63397(8) -0.30292(6)
O1A O 1.1131(4) 0.4891(9) -0.1660(6)
O2B O 1.1336(3) -0.0178(8) -0.3801(6)
O3C O 0.9569(3) 0.2120(9) 0.0297(6)
O3A O 1.0431(3) -0.2120(9) -0.0297(6)
loop_
_geom_bond_atom_site_label_1
_geom_bond_atom_site_label_2
_geom_bond_site_symmetry_1
_geom_bond_site_symmetry_2
Ag1 O1 1_555 1_555
C1 H1 1_555 1_555
C2 C1 1_555 1_555
H2 C2 1_555 1_555
C3 C2 1_555 1_555
C4 C3 1_555 1_555
H3 C4 1_555 1_555
C5 C4 1_555 1_555
H4 C5 1_555 1_555
C6 C1 1_555 1_555
C7 C6 1_555 1_555
H5 C7 1_555 1_555
H6 C7 1_555 1_555
H7 C7 1_555 1_555
O1 S1 1_555 1_555
O2 S1 1_555 1_555
O3 S1 1_555 1_555
S1 C3 1_555 1_555
Ag1A O1 1_555 1_555
Ag1B O2 1_555 1_555
Ag1C O3 1_555 1_555
Ag1A_2 O3 1_555 1_555
O1A Ag1 1_555 1_555
O2B Ag1 1_555 1_555
O3C Ag1 1_555 1_555
O3A Ag1 1_555 1_555
C5 C6 1_555 1_555
Ag1A_2 O1A 1_555 1_555

#END
