
#######################################################################
#
#                 Cambridge Crystallographic Data Centre
#                                CCDC 
#
#######################################################################
#
# If this CIF has been generated from an entry in the Cambridge 
# Structural Database, then it will include bibliographic, chemical, 
# crystal, experimental, refinement or atomic coordinate data resulting 
# from the CCDC's data processing and validation procedures.
#
#######################################################################

data_KIQLAX
_symmetry_cell_setting           orthorhombic
_symmetry_space_group_name_H-M   'C m c m'
_symmetry_Int_Tables_number      63
_space_group_name_Hall           '-C 2n 2'
loop_
_symmetry_equiv_pos_site_id
_symmetry_equiv_pos_as_xyz
1 x,y,z
2 -x,-y,1/2+z
3 x,-y,-z
4 -x,y,1/2-z
5 1/2+x,1/2+y,z
6 1/2-x,1/2-y,1/2+z
7 1/2+x,1/2-y,-z
8 1/2-x,1/2+y,1/2-z
9 -x,-y,-z
10 x,y,1/2-z
11 -x,y,z
12 x,-y,1/2+z
13 1/2-x,1/2-y,-z
14 1/2+x,1/2+y,1/2-z
15 1/2-x,1/2+y,z
16 1/2+x,1/2-y,1/2+z
_cell_length_a                   12.4422(2)
_cell_length_b                   12.1223(3)
_cell_length_c                   7.6790(2)
_cell_angle_alpha                90
_cell_angle_beta                 90
_cell_angle_gamma                90
_cell_volume                     1158.21
loop_
_atom_site_label
_atom_site_type_symbol
_atom_site_fract_x
_atom_site_fract_y
_atom_site_fract_z
Cu1 Cu 0.2309(1) 0.2373(1) 0.2500
O1 O 0.3870(4) 0.4762(3) 0.2500
O2 O 0.5000 0.3923(4) 0.0147(5)
O3 O 0.3895(4) 0.2473(3) 0.2500
O4 O 0.2255(2) 0.1099(3) 0.0428(4)
C1 C 0.0949(5) 0.4362(5) 0.2500
C2 C 0.0000 0.4959(7) 0.2500
C3 C 0.0000 0.2747(7) 0.2500
N1 N 0.0961(4) 0.3244(4) 0.2500
H1 H 0.1599(5) 0.4741(5) 0.2500
H2 H 0.0000 0.5726(7) 0.2500
H3 H 0.0000 0.1980(7) 0.2500
Mo1 Mo 0.5000 0.3353(1) 0.2500
Mo2 Mo 0.3588(1) 0.5000 0.0000
O4I O 0.2255(2) 0.1099(3) 0.4572(4)
Mo2I Mo 0.3588(1) 0.5000 0.5000
Mo2L Mo 0.1412(1) 0.0000 0.0000
Mo2H Mo 0.6412(1) 0.5000 0.0000
C1C C -0.0949(5) 0.4362(5) 0.2500
N1C N -0.0961(4) 0.3244(4) 0.2500
O1C O 0.6130(4) 0.4762(3) 0.2500
O2C O 0.5000 0.3923(4) 0.4853(5)
O3C O 0.6105(4) 0.2473(3) 0.2500
Mo2E Mo 0.1412(1) 0.0000 0.5000
O1B O 0.3870(4) 0.5238(3) -0.2500
O2B O 0.5000 0.6077(4) -0.0147(5)
O4L O 0.2745(2) 0.3901(3) -0.0428(4)
O4N O 0.2745(2) 0.6099(3) 0.0428(4)
O1A O 0.6130(4) 0.5238(3) -0.2500
O4D O 0.7255(2) 0.6099(3) 0.0428(4)
O4F O 0.7255(2) 0.3901(3) -0.0428(4)
H1C H -0.1599(5) 0.4741(5) 0.2500
Cu1C Cu -0.2309(1) 0.2373(1) 0.2500
Mo2A Mo 0.6412(1) 0.5000 0.5000
Cu1C_2 Cu 0.7691(1) 0.2373(1) 0.2500
Mo1A Mo 0.5000 0.6647(1) -0.2500
Cu1D Cu 0.7309(1) 0.7373(1) 0.2500
Cu1F Cu 0.7309(1) 0.2627(1) -0.2500
O4C O 0.7745(2) 0.1099(3) 0.4572(4)
O4J O 0.7745(2) 0.1099(3) 0.0428(4)
N1C_2 N 0.9039(4) 0.3244(4) 0.2500
loop_
_geom_bond_atom_site_label_1
_geom_bond_atom_site_label_2
_geom_bond_site_symmetry_1
_geom_bond_site_symmetry_2
Cu1 O3 1_555 1_555
O1 Mo1 1_555 1_555
O2 Mo1 1_555 1_555
O3 Mo1 1_555 1_555
O4 Cu1 1_555 1_555
C1 C2 1_555 1_555
C2 H2 1_555 1_555
C3 N1 1_555 1_555
N1 Cu1 1_555 1_555
H1 C1 1_555 1_555
H3 C3 1_555 1_555
Mo1 O1C 1_555 1_555
Mo2 O1 1_555 1_555
O4I Cu1 1_555 1_555
Mo2I O1 1_555 1_555
Mo2L O4 1_555 1_555
Mo2H O2 1_555 1_555
C1C C2 1_555 1_555
N1C C3 1_555 1_555
O1C Mo2H 1_555 1_555
O2C Mo1 1_555 1_555
O3C Mo1 1_555 1_555
Mo2E O4I 1_555 1_555
O1B Mo2 1_555 1_555
O2B Mo2 1_555 1_555
O4L Mo2 1_555 1_555
O4N Mo2 1_555 1_555
O1A Mo2H 1_555 1_555
O4D Mo2H 1_555 1_555
O4F Mo2H 1_555 1_555
H1C C1C 1_555 1_555
Cu1C N1C 1_555 1_555
Mo2A O1C 1_555 1_555
Cu1C_2 O3C 1_555 1_555
Mo1A O1B 1_555 1_555
Cu1D O4D 1_555 1_555
Cu1F O4F 1_555 1_555
O4C Cu1C_2 1_555 1_555
O4J Cu1C_2 1_555 1_555
N1C_2 Cu1C_2 1_555 1_555
O2 Mo2 1_555 1_555
C1 N1 1_555 1_555
Mo2I O2C 1_555 1_555
Mo2H O2B 1_555 1_555
C1C N1C 1_555 1_555
O2C Mo2A 1_555 1_555
O2B Mo1A 1_555 1_555
O1A Mo1A 1_555 1_555

#END
