
#######################################################################
#
#                 Cambridge Crystallographic Data Centre
#                                CCDC 
#
#######################################################################
#
# If this CIF has been generated from an entry in the Cambridge 
# Structural Database, then it will include bibliographic, chemical, 
# crystal, experimental, refinement or atomic coordinate data resulting 
# from the CCDC's data processing and validation procedures.
#
#######################################################################

data_KIQLEB02
_symmetry_cell_setting           monoclinic
_symmetry_space_group_name_H-M   'P 21/a'
_symmetry_Int_Tables_number      14
_space_group_name_Hall           '-P 2yab'
loop_
_symmetry_equiv_pos_site_id
_symmetry_equiv_pos_as_xyz
1 x,y,z
2 1/2-x,1/2+y,-z
3 -x,-y,-z
4 1/2+x,1/2-y,z
_cell_length_a                   8.596(3)
_cell_length_b                   6.0330(4)
_cell_length_c                   15.363(4)
_cell_angle_alpha                90
_cell_angle_beta                 93.030(10)
_cell_angle_gamma                90
_cell_volume                     795.606
loop_
_atom_site_label
_atom_site_type_symbol
_atom_site_fract_x
_atom_site_fract_y
_atom_site_fract_z
C1 C 0.0912(14) -0.0796(19) 0.1457(6)
C2 C 0.1140(17) -0.2277(23) 0.0691(7)
H1 H 0.171(11) -0.3573(94) 0.0881(15)
H2 H 0.171(11) -0.1497(71) 0.0268(33)
H3 H 0.0144(17) -0.271(14) 0.0435(42)
C3 C 0.1586(15) 0.1292(17) 0.1504(6)
H4 H 0.2179(15) 0.1785(17) 0.1053(6)
C4 C 0.1384(12) 0.2656(17) 0.2219(6)
H5 H 0.1808(12) 0.4074(17) 0.2237(6)
C5 C 0.0548(10) 0.1892(17) 0.2902(6)
S1 S 0.0300(3) 0.3616(3) 0.38225(14)
O1 O 0.0320(8) 0.2126(12) 0.4573(3)
O2 O 0.1628(8) 0.5077(11) 0.3875(4)
O3 O -0.1150(8) 0.4759(11) 0.3680(4)
C6 C -0.0134(11) -0.0184(14) 0.2868(5)
H6 H -0.0712(11) -0.0692(14) 0.3322(5)
C7 C 0.0066(15) -0.1489(16) 0.2138(6)
H7 H -0.0391(15) -0.2887(16) 0.2110(6)
Ag1 Ag 0.19731(9) 0.86221(11) 0.45936(4)
Ag1C Ag -0.30269(9) 0.63779(11) 0.45936(4)
O1B O -0.0320(8) 0.7874(12) 0.5427(3)
S1B S -0.0300(3) 0.6384(3) 0.61775(14)
C5B C -0.0548(10) 0.8108(17) 0.7098(6)
C4B C -0.1384(12) 0.7344(17) 0.7781(6)
C3B C -0.1586(15) 0.8708(17) 0.8496(6)
C1B C -0.0912(14) 1.0796(19) 0.8543(6)
C2B C -0.1140(17) 1.2277(23) 0.9309(7)
H1B H -0.171(11) 1.3573(94) 0.9119(15)
H2B H -0.171(11) 1.1497(71) 0.9732(33)
H3B H -0.0144(17) 1.271(14) 0.9565(42)
C7B C -0.0066(15) 1.1489(16) 0.7862(6)
C6B C 0.0134(11) 1.0184(14) 0.7132(5)
H6B H 0.0712(11) 1.0692(14) 0.6678(5)
H7B H 0.0391(15) 1.2887(16) 0.7890(6)
H4B H -0.2179(15) 0.8215(17) 0.8947(6)
H5B H -0.1808(12) 0.5926(17) 0.7763(6)
O2B O -0.1628(8) 0.4923(11) 0.6125(4)
O3B O 0.1150(8) 0.5241(11) 0.6320(4)
Ag1A Ag 0.30269(9) 0.36221(11) 0.54064(4)
Ag1_2 Ag 0.19731(9) -0.13779(11) 0.45936(4)
O1B_2 O -0.0320(8) -0.2126(12) 0.5427(3)
Ag1B Ag -0.19731(9) 0.13779(11) 0.54064(4)
O3A O -0.3850(8) -0.0241(11) 0.6320(4)
Ag1B_2 Ag -0.19731(9) 1.13779(11) 0.54064(4)
O1_2 O 0.0320(8) 1.2126(12) 0.4573(3)
O3C O 0.3850(8) 1.0241(11) 0.3680(4)
loop_
_geom_bond_atom_site_label_1
_geom_bond_atom_site_label_2
_geom_bond_site_symmetry_1
_geom_bond_site_symmetry_2
C1 C2 1_555 1_555
C2 H1 1_555 1_555
H2 C2 1_555 1_555
H3 C2 1_555 1_555
C3 C1 1_555 1_555
H4 C3 1_555 1_555
C4 C3 1_555 1_555
H5 C4 1_555 1_555
C5 C4 1_555 1_555
S1 C5 1_555 1_555
O1 S1 1_555 1_555
O2 S1 1_555 1_555
O3 S1 1_555 1_555
C6 C5 1_555 1_555
H6 C6 1_555 1_555
C7 C1 1_555 1_555
H7 C7 1_555 1_555
Ag1 O2 1_555 1_555
Ag1C O3 1_555 1_555
O1B Ag1 1_555 1_555
S1B O1B 1_555 1_555
C5B S1B 1_555 1_555
C4B C5B 1_555 1_555
C3B C4B 1_555 1_555
C1B C3B 1_555 1_555
C2B C1B 1_555 1_555
H1B C2B 1_555 1_555
H2B C2B 1_555 1_555
H3B C2B 1_555 1_555
C7B C1B 1_555 1_555
C6B C5B 1_555 1_555
H6B C6B 1_555 1_555
H7B C7B 1_555 1_555
H4B C3B 1_555 1_555
H5B C4B 1_555 1_555
O2B S1B 1_555 1_555
O3B S1B 1_555 1_555
Ag1A O3B 1_555 1_555
Ag1_2 O1 1_555 1_555
O1B_2 Ag1_2 1_555 1_555
Ag1B O1 1_555 1_555
O3A Ag1B 1_555 1_555
Ag1B_2 O1B 1_555 1_555
O1_2 Ag1 1_555 1_555
O3C Ag1 1_555 1_555
C6 C7 1_555 1_555
C7B C6B 1_555 1_555
O2B Ag1B 1_555 1_555
O1B_2 Ag1B 1_555 1_555
Ag1B_2 O1_2 1_555 1_555

#END
