
#######################################################################
#
#                 Cambridge Crystallographic Data Centre
#                                CCDC 
#
#######################################################################
#
# If this CIF has been generated from an entry in the Cambridge 
# Structural Database, then it will include bibliographic, chemical, 
# crystal, experimental, refinement or atomic coordinate data resulting 
# from the CCDC's data processing and validation procedures.
#
#######################################################################

data_KIQLEB
_symmetry_cell_setting           monoclinic
_symmetry_space_group_name_H-M   'P 21/c'
_symmetry_Int_Tables_number      14
_space_group_name_Hall           '-P 2ybc'
loop_
_symmetry_equiv_pos_site_id
_symmetry_equiv_pos_as_xyz
1 x,y,z
2 -x,1/2+y,1/2-z
3 -x,-y,-z
4 x,1/2-y,1/2+z
_cell_length_a                   15.3410(9)
_cell_length_b                   6.0145(3)
_cell_length_c                   8.5605(5)
_cell_angle_alpha                90
_cell_angle_beta                 93.688(5)
_cell_angle_gamma                90
_cell_volume                     788.228
loop_
_atom_site_label
_atom_site_type_symbol
_atom_site_fract_x
_atom_site_fract_y
_atom_site_fract_z
S1 S 0.88132(5) 0.36283(15) 0.02953(10)
O1 O 0.86687(16) 0.47827(43) -0.11819(29)
O2 O 0.95660(17) 0.21153(43) 0.03056(32)
O3 O 0.88753(17) 0.51010(43) 0.16492(30)
C1 C 0.78906(23) 0.19205(59) 0.05191(41)
C2 C 0.72102(26) 0.26568(65) 0.13604(47)
C3 C 0.64970(25) 0.12876(71) 0.15480(47)
C4 C 0.64477(25) -0.08109(67) 0.08834(47)
C5 C 0.71328(26) -0.15196(62) 0.00299(45)
C6 C 0.78535(25) -0.01783(62) -0.01508(43)
C7 C 0.56842(30) -0.23175(85) 0.11138(62)
H1 H 0.7228(21) 0.3976(54) 0.1765(37)
H2 H 0.6046(25) 0.1901(59) 0.2154(44)
H3 H 0.7120(25) -0.2920(64) -0.0445(44)
H4 H 0.8249(25) -0.0734(61) -0.0693(43)
H5 H 0.5155(31) -0.1745(71) 0.1164(55)
H6 H 0.5736(34) -0.3014(86) 0.2189(64)
H7 H 0.5613(48) -0.318(11) 0.0392(85)
Ag1 Ag 0.95980(1) 0.63514(4) -0.30309(3)
Ag1A Ag 1.04020(1) 0.13514(4) -0.19691(3)
Ag1C Ag 0.95980(1) -0.13514(4) 0.19691(3)
Ag1B Ag 1.04020(1) 0.36486(4) 0.30309(3)
Ag1C_2 Ag 0.95980(1) 0.86486(4) 0.19691(3)
Ag1A_2 Ag 1.04020(1) 1.13514(4) -0.19691(3)
O2A O 1.04340(17) 0.71153(43) -0.53056(32)
O2C O 0.95660(17) 0.28847(43) -0.46944(32)
O3B O 1.11247(17) 0.48990(43) -0.16492(30)
O3C O 0.88753(17) 0.98990(43) -0.33508(30)
loop_
_geom_bond_atom_site_label_1
_geom_bond_atom_site_label_2
_geom_bond_site_symmetry_1
_geom_bond_site_symmetry_2
S1 O1 1_555 1_555
O1 Ag1 1_555 1_555
O2 S1 1_555 1_555
O3 S1 1_555 1_555
C1 S1 1_555 1_555
C2 C1 1_555 1_555
C3 C2 1_555 1_555
C4 C3 1_555 1_555
C5 C4 1_555 1_555
C6 C1 1_555 1_555
C7 C4 1_555 1_555
H1 C2 1_555 1_555
H2 C3 1_555 1_555
H3 C5 1_555 1_555
H4 C6 1_555 1_555
H5 C7 1_555 1_555
H6 C7 1_555 1_555
H7 C7 1_555 1_555
Ag1 Ag1A 1_555 1_555
Ag1A O2 1_555 1_555
Ag1C O2 1_555 1_555
Ag1B O3 1_555 1_555
Ag1C_2 O3 1_555 1_555
Ag1A_2 Ag1 1_555 1_555
O2A Ag1 1_555 1_555
O2C Ag1 1_555 1_555
O3B Ag1 1_555 1_555
O3C Ag1 1_555 1_555
C5 C6 1_555 1_555
Ag1A O3B 1_555 1_555
Ag1C Ag1B 1_555 1_555
Ag1B Ag1C_2 1_555 1_555
Ag1A_2 O3C 1_555 1_555

#END
