
#######################################################################
#
#                 Cambridge Crystallographic Data Centre
#                                CCDC 
#
#######################################################################
#
# If this CIF has been generated from an entry in the Cambridge 
# Structural Database, then it will include bibliographic, chemical, 
# crystal, experimental, refinement or atomic coordinate data resulting 
# from the CCDC's data processing and validation procedures.
#
#######################################################################

data_KIRDOG
_symmetry_cell_setting           monoclinic
_symmetry_space_group_name_H-M   'C 2/c'
_symmetry_Int_Tables_number      15
_space_group_name_Hall           '-C 2yn'
loop_
_symmetry_equiv_pos_site_id
_symmetry_equiv_pos_as_xyz
1 x,y,z
2 -x,y,1/2-z
3 1/2+x,1/2+y,z
4 1/2-x,1/2+y,1/2-z
5 -x,-y,-z
6 x,-y,1/2+z
7 1/2-x,1/2-y,-z
8 1/2+x,1/2-y,1/2+z
_cell_length_a                   8.0624(3)
_cell_length_b                   20.7020(8)
_cell_length_c                   17.2456(7)
_cell_angle_alpha                90
_cell_angle_beta                 97.0970(10)
_cell_angle_gamma                90
_cell_volume                     2856.37
loop_
_atom_site_label
_atom_site_type_symbol
_atom_site_fract_x
_atom_site_fract_y
_atom_site_fract_z
Hg1 Hg 1.0000 0.993917(19) 0.7500
Hg2 Hg 0.93199(3) 0.845268(14) 0.846298(15)
F1 F 0.7845(8) 0.8821(3) 1.0031(3)
F2 F 0.6866(9) 0.9936(3) 1.0603(4)
F3 F 0.7324(10) 1.1069(3) 0.9840(4)
F4 F 0.8674(9) 1.1035(3) 0.8506(4)
F5 F 0.9159(9) 0.6995(3) 0.8963(3)
F6 F 0.9561(9) 0.5865(3) 0.8235(4)
C1 C 0.9015(9) 0.9917(4) 0.8550(4)
C2 C 0.8788(9) 0.9334(4) 0.8940(4)
C3 C 0.8047(11) 0.9363(4) 0.9638(5)
C4 C 0.7564(12) 0.9921(6) 0.9934(5)
C5 C 0.7758(13) 1.0483(5) 0.9553(6)
C6 C 0.8492(11) 1.0467(5) 0.8848(5)
C7 C 0.9765(10) 0.7612(4) 0.7873(5)
C8 C 0.9562(10) 0.7012(4) 0.8231(5)
C9 C 0.9784(12) 0.6433(4) 0.7847(6)
O1 O 0.7410(6) 0.8936(3) 0.6941(3)
O2 O 0.4928(8) 0.8468(3) 0.6592(4)
C10 C 0.5670(17) 0.8053(6) 0.6078(8)
H1 H 0.6843 0.7995 0.6268
H2 H 0.5596 0.8251 0.5565
C11 C 0.5935(9) 0.8896(4) 0.6980(5)
C12 C 0.5000 0.9282(6) 0.7500
H3 H 0.4223 0.9556 0.7187
C13 C 0.484(2) 0.7420(7) 0.6012(13)
H4 H 0.5105 0.7206 0.5548
H5 H 0.3657 0.7478 0.5983
H6 H 0.5232 0.7163 0.6461
F5A F 1.0841(9) 0.6995(3) 0.6037(3)
F6A F 1.0439(9) 0.5865(3) 0.6765(4)
C7A C 1.0235(10) 0.7612(4) 0.7127(5)
C8A C 1.0438(10) 0.7012(4) 0.6769(5)
C9A C 1.0216(12) 0.6433(4) 0.7153(6)
O1A O 0.2590(6) 0.8936(3) 0.8059(3)
O2A O 0.5072(8) 0.8468(3) 0.8408(4)
C10A C 0.4330(17) 0.8053(6) 0.8922(8)
H1A H 0.3157 0.7995 0.8732
H2A H 0.4404 0.8251 0.9435
C11A C 0.4065(9) 0.8896(4) 0.8020(5)
H3A H 0.5777 0.9556 0.7813
C13A C 0.516(2) 0.7420(7) 0.8988(13)
H4A H 0.4895 0.7206 0.9452
H5A H 0.6343 0.7478 0.9017
H6A H 0.4768 0.7163 0.8539
Hg2A Hg 1.06801(3) 0.845268(14) 0.653702(15)
F1A F 1.2155(8) 0.8821(3) 0.4969(3)
F2A F 1.3134(9) 0.9936(3) 0.4397(4)
F3A F 1.2676(10) 1.1069(3) 0.5160(4)
F4A F 1.1326(9) 1.1035(3) 0.6494(4)
C1A C 1.0985(9) 0.9917(4) 0.6450(4)
C2A C 1.1212(9) 0.9334(4) 0.6060(4)
C3A C 1.1953(11) 0.9363(4) 0.5362(5)
C4A C 1.2436(12) 0.9921(6) 0.5066(5)
C5A C 1.2242(13) 1.0483(5) 0.5447(6)
C6A C 1.1508(11) 1.0467(5) 0.6152(5)
Hg1_2 Hg 0.0000 0.993917(19) 0.7500
Hg2_2 Hg -0.06801(3) 0.845268(14) 0.846298(15)
O1A_2 O 1.2590(6) 0.8936(3) 0.8059(3)
loop_
_geom_bond_atom_site_label_1
_geom_bond_atom_site_label_2
_geom_bond_site_symmetry_1
_geom_bond_site_symmetry_2
Hg1 C1 1_555 1_555
Hg2 C2 1_555 1_555
F1 C3 1_555 1_555
F2 C4 1_555 1_555
F3 C5 1_555 1_555
F4 C6 1_555 1_555
F5 C8 1_555 1_555
F6 C9 1_555 1_555
C1 C2 1_555 1_555
C2 C3 1_555 1_555
C3 C4 1_555 1_555
C4 C5 1_555 1_555
C5 C6 1_555 1_555
C6 C1 1_555 1_555
C7 Hg2 1_555 1_555
C8 C7 1_555 1_555
C9 C8 1_555 1_555
O1 Hg1 1_555 1_555
O2 C10 1_555 1_555
C10 H1 1_555 1_555
H2 C10 1_555 1_555
C11 O1 1_555 1_555
C12 C11 1_555 1_555
H3 C12 1_555 1_555
C13 C10 1_555 1_555
H4 C13 1_555 1_555
H5 C13 1_555 1_555
H6 C13 1_555 1_555
F5A C8A 1_555 1_555
F6A C9A 1_555 1_555
C7A C7 1_555 1_555
C8A C7A 1_555 1_555
C9A C9 1_555 1_555
O1A C11A 1_555 1_555
O2A C10A 1_555 1_555
C10A H1A 1_555 1_555
H2A C10A 1_555 1_555
C11A C12 1_555 1_555
H3A C12 1_555 1_555
C13A C10A 1_555 1_555
H4A C13A 1_555 1_555
H5A C13A 1_555 1_555
H6A C13A 1_555 1_555
Hg2A O1 1_555 1_555
F1A C3A 1_555 1_555
F2A C4A 1_555 1_555
F3A C5A 1_555 1_555
F4A C6A 1_555 1_555
C1A Hg1 1_555 1_555
C2A Hg2A 1_555 1_555
C3A C2A 1_555 1_555
C4A C3A 1_555 1_555
C5A C4A 1_555 1_555
C6A C1A 1_555 1_555
Hg1_2 O1A 1_555 1_555
Hg2_2 O1A 1_555 1_555
O1A_2 Hg1 1_555 1_555
Hg2 O1A_2 1_555 1_555
O2 C11 1_555 1_555
C7A Hg2A 1_555 1_555
C8A C9A 1_555 1_555
O2A C11A 1_555 1_555
C1A C2A 1_555 1_555
C5A C6A 1_555 1_555

#END
