
#######################################################################
#
#                 Cambridge Crystallographic Data Centre
#                                CCDC 
#
#######################################################################
#
# If this CIF has been generated from an entry in the Cambridge 
# Structural Database, then it will include bibliographic, chemical, 
# crystal, experimental, refinement or atomic coordinate data resulting 
# from the CCDC's data processing and validation procedures.
#
#######################################################################

data_KIRJOM
_symmetry_cell_setting           monoclinic
_symmetry_space_group_name_H-M   'P 21/c'
_symmetry_Int_Tables_number      14
_space_group_name_Hall           '-P 2ybc'
loop_
_symmetry_equiv_pos_site_id
_symmetry_equiv_pos_as_xyz
1 x,y,z
2 -x,1/2+y,1/2-z
3 -x,-y,-z
4 x,1/2-y,1/2+z
_cell_length_a                   10.741(2)
_cell_length_b                   15.253(3)
_cell_length_c                   19.025(4)
_cell_angle_alpha                90
_cell_angle_beta                 98.161(4)
_cell_angle_gamma                90
_cell_volume                     3085.35
loop_
_atom_site_label
_atom_site_type_symbol
_atom_site_fract_x
_atom_site_fract_y
_atom_site_fract_z
C1 C 0.7169(3) 0.4759(2) 0.05466(19)
H1 H 0.7782 0.4662 0.0256
C2 C 0.6547(3) 0.5556(2) 0.04925(18)
C3 C 0.5618(3) 0.5664(2) 0.09242(19)
H2 H 0.5174 0.6189 0.0906
C4 C 0.5340(3) 0.5013(2) 0.13779(18)
C5 C 0.6032(3) 0.4246(2) 0.13930(19)
H3 H 0.5856 0.3798 0.1696
C6 C 0.4367(3) 0.5129(2) 0.18469(19)
C7 C 0.3510(3) 0.4481(2) 0.1940(2)
H4 H 0.3550 0.3943 0.1715
C8 C 0.2590(4) 0.4627(3) 0.2368(2)
H5 H 0.1997 0.4193 0.2412
C9 C 0.2544(4) 0.5407(3) 0.2729(2)
H6 H 0.1943 0.5494 0.3029
C10 C 0.3403(3) 0.6063(2) 0.26403(18)
C11 C 0.4302(3) 0.5919(2) 0.22059(19)
H7 H 0.4880 0.6358 0.2151
C12 C 0.3374(4) 0.6950(3) 0.30008(19)
C13 C 0.6868(3) 0.6249(2) 0.00057(18)
C14 C 0.5972(3) 0.6871(2) -0.02781(19)
H8 H 0.5161 0.6845 -0.0161
C15 C 0.6276(3) 0.7518(3) -0.0726(2)
H9 H 0.5670 0.7922 -0.0913
C16 C 0.7479(3) 0.7570(2) -0.0902(2)
H10 H 0.7685 0.8014 -0.1200
C17 C 0.8375(3) 0.6960(2) -0.06335(18)
C18 C 0.8067(3) 0.6310(2) -0.01869(18)
H11 H 0.8674 0.5902 -0.0010
C19 C 0.9668(3) 0.6998(2) -0.08327(19)
C20 C 0.7767(4) 0.2905(3) -0.0537(2)
H12 H 0.8228 0.3409 -0.0595
C21 C 0.7207(4) 0.2384(3) -0.1070(2)
H13 H 0.7207 0.2465 -0.1554
C22 C 0.6864(4) 0.1863(3) -0.0057(2)
H14 H 0.6566 0.1502 0.0276
C23 C 0.5809(4) 0.1051(3) -0.1128(2)
H15 H 0.5963 0.0492 -0.0889
H16 H 0.5984 0.0986 -0.1612
C24 C 0.4453(4) 0.1310(3) -0.1135(2)
C25 C 0.3695(4) 0.0908(3) -0.0720(2)
H17 H 0.4010 0.0442 -0.0433
C26 C 0.2468(4) 0.1174(4) -0.0713(2)
H18 H 0.1970 0.0891 -0.0421
C27 C 0.1983(4) 0.1855(3) -0.1135(2)
C28 C 0.2736(5) 0.2259(3) -0.1559(3)
H19 H 0.2418 0.2726 -0.1844
C29 C 0.3960(4) 0.1990(3) -0.1572(3)
H20 H 0.4451 0.2263 -0.1873
C30 C 0.0629(4) 0.2136(4) -0.1156(3)
H21 H 0.0325 0.1950 -0.0724
H22 H 0.0576 0.2770 -0.1182
C31 C -0.0535(4) 0.2152(3) -0.2392(2)
H23 H -0.0380 0.2738 -0.2484
C32 C -0.1171(4) 0.0838(3) -0.2511(2)
H24 H -0.1554 0.0329 -0.2704
C33 C -0.0549(5) 0.0911(4) -0.1839(2)
H25 H -0.0417 0.0472 -0.1497
N1 N 0.6940(3) 0.41204(19) 0.09918(15)
N2 N 0.7540(3) 0.2565(2) 0.01040(16)
N3 N 0.6650(3) 0.1724(2) -0.07578(17)
N4 N -0.0163(3) 0.1753(3) -0.17710(19)
N5 N -0.1151(3) 0.1609(2) -0.28574(16)
Ni1 Ni 0.81326(4) 0.30247(3) 0.11178(2)
O1 O 1.0061(2) 0.76910(17) -0.10861(14)
O2 O 1.0362(2) 0.63295(16) -0.07362(13)
O3 O 0.3932(3) 0.7558(2) 0.27531(16)
O4 O 0.2757(3) 0.69972(17) 0.35123(14)
N5C N 0.8849(3) 0.3391(2) 0.21426(16)
Ni1A Ni 0.18674(4) 0.80247(3) 0.38822(2)
Ni1B Ni 1.18674(4) 0.69753(3) -0.11178(2)
Ni1C Ni -0.18674(4) 0.19753(3) -0.38822(2)
O1B O 0.9939(2) 0.23090(17) 0.10861(14)
O2B O 0.9638(2) 0.36705(16) 0.07362(13)
O4A O 0.7243(3) 0.19972(17) 0.14877(14)
O5 O 0.0357(5) 0.5447(3) 0.1142(3)
H26 H 0.091(4) 0.576(16) 0.137(11)
H27 H -0.019(18) 0.527(19) 0.138(11)
O6 O 0.9856(9) 0.0637(5) 0.0528(6)
H28 H 0.928(2) 0.060(3) 0.0769(16)
H29 H 0.964(4) 0.081(6) 0.0120(16)
loop_
_geom_bond_atom_site_label_1
_geom_bond_atom_site_label_2
_geom_bond_site_symmetry_1
_geom_bond_site_symmetry_2
C1 H1 1_555 1_555
C2 C1 1_555 1_555
C3 C2 1_555 1_555
H2 C3 1_555 1_555
C4 C3 1_555 1_555
C5 C4 1_555 1_555
H3 C5 1_555 1_555
C6 C4 1_555 1_555
C7 C6 1_555 1_555
H4 C7 1_555 1_555
C8 C7 1_555 1_555
H5 C8 1_555 1_555
C9 C8 1_555 1_555
H6 C9 1_555 1_555
C10 C9 1_555 1_555
C11 C6 1_555 1_555
H7 C11 1_555 1_555
C12 C10 1_555 1_555
C13 C2 1_555 1_555
C14 C13 1_555 1_555
H8 C14 1_555 1_555
C15 C14 1_555 1_555
H9 C15 1_555 1_555
C16 C15 1_555 1_555
H10 C16 1_555 1_555
C17 C16 1_555 1_555
C18 C13 1_555 1_555
H11 C18 1_555 1_555
C19 C17 1_555 1_555
C20 H12 1_555 1_555
C21 C20 1_555 1_555
H13 C21 1_555 1_555
C22 H14 1_555 1_555
C23 H15 1_555 1_555
H16 C23 1_555 1_555
C24 C23 1_555 1_555
C25 C24 1_555 1_555
H17 C25 1_555 1_555
C26 C25 1_555 1_555
H18 C26 1_555 1_555
C27 C26 1_555 1_555
C28 C27 1_555 1_555
H19 C28 1_555 1_555
C29 C24 1_555 1_555
H20 C29 1_555 1_555
C30 C27 1_555 1_555
H21 C30 1_555 1_555
H22 C30 1_555 1_555
C31 H23 1_555 1_555
C32 H24 1_555 1_555
C33 C32 1_555 1_555
H25 C33 1_555 1_555
N1 C1 1_555 1_555
N2 C20 1_555 1_555
N3 C21 1_555 1_555
N4 C30 1_555 1_555
N5 C31 1_555 1_555
Ni1 N1 1_555 1_555
O1 C19 1_555 1_555
O2 C19 1_555 1_555
O3 C12 1_555 1_555
O4 C12 1_555 1_555
O5 H26 1_555 1_555
H27 O5 1_555 1_555
O6 H28 1_555 1_555
H29 O6 1_555 1_555
N5C Ni1 1_555 1_555
Ni1A O4 1_555 1_555
Ni1B O1 1_555 1_555
Ni1C N5 1_555 1_555
O1B Ni1 1_555 1_555
O2B Ni1 1_555 1_555
O4A Ni1 1_555 1_555
C5 N1 1_555 1_555
C10 C11 1_555 1_555
C17 C18 1_555 1_555
C22 N2 1_555 1_555
C22 N3 1_555 1_555
C23 N3 1_555 1_555
C28 C29 1_555 1_555
C31 N4 1_555 1_555
C32 N5 1_555 1_555
C33 N4 1_555 1_555
N2 Ni1 1_555 1_555
O2 Ni1B 1_555 1_555

#END
