
#######################################################################
#
#                 Cambridge Crystallographic Data Centre
#                                CCDC 
#
#######################################################################
#
# If this CIF has been generated from an entry in the Cambridge 
# Structural Database, then it will include bibliographic, chemical, 
# crystal, experimental, refinement or atomic coordinate data resulting 
# from the CCDC's data processing and validation procedures.
#
#######################################################################

data_KIRJUS
_symmetry_cell_setting           monoclinic
_symmetry_space_group_name_H-M   'P 21/c'
_symmetry_Int_Tables_number      14
_space_group_name_Hall           '-P 2ybc'
loop_
_symmetry_equiv_pos_site_id
_symmetry_equiv_pos_as_xyz
1 x,y,z
2 -x,1/2+y,1/2-z
3 -x,-y,-z
4 x,1/2-y,1/2+z
_cell_length_a                   10.990(3)
_cell_length_b                   16.233(4)
_cell_length_c                   18.276(4)
_cell_angle_alpha                90
_cell_angle_beta                 96.617(4)
_cell_angle_gamma                90
_cell_volume                     3238.73
loop_
_atom_site_label
_atom_site_type_symbol
_atom_site_fract_x
_atom_site_fract_y
_atom_site_fract_z
C1 C 0.7176(5) 0.9682(4) 0.0619(3)
H1 H 0.7798 0.9602 0.0322
C2 C 0.6569(5) 1.0439(3) 0.0580(3)
C3 C 0.5653(5) 1.0540(3) 0.1027(3)
H2 H 0.5239 1.1040 0.1026
C4 C 0.5337(5) 0.9901(3) 0.1482(3)
C5 C 0.6003(5) 0.9167(3) 0.1482(3)
H3 H 0.5809 0.8736 0.1783
C6 C 0.4354(5) 1.0019(3) 0.1961(3)
C7 C 0.3485(5) 0.9405(4) 0.2030(3)
H4 H 0.3544 0.8907 0.1785
C8 C 0.2537(6) 0.9526(4) 0.2456(4)
H5 H 0.1966 0.9111 0.2501
C9 C 0.2446(5) 1.0265(4) 0.2814(3)
H6 H 0.1804 1.0350 0.3095
C10 C 0.3303(5) 1.0889(4) 0.2759(3)
C11 C 0.4270(5) 1.0749(4) 0.2337(3)
H7 H 0.4862 1.1154 0.2310
C12 C 0.6890(5) 1.1112(3) 0.0072(3)
C13 C 0.6017(5) 1.1664(3) -0.0216(3)
H8 H 0.5217 1.1621 -0.0101
C14 C 0.6336(6) 1.2297(4) -0.0687(4)
H9 H 0.5747 1.2671 -0.0884
C15 C 0.7511(6) 1.2358(4) -0.0853(3)
H10 H 0.7723 1.2782 -0.1156
C16 C 0.8378(5) 1.1802(4) -0.0579(3)
C17 C 0.8077(5) 1.1172(4) -0.0123(3)
H11 H 0.8667 1.0788 0.0054
C18 C 0.9696(7) 1.1847(7) -0.0750(4)
C19 C 0.3220(5) 1.1719(4) 0.3131(3)
C20 C 0.6693(6) 0.7038(4) -0.0118(4)
H12 H 0.6383 0.6669 0.0203
C21 C 0.7083(6) 0.7644(6) -0.1133(4)
H13 H 0.7094 0.7781 -0.1626
C22 C 0.7666(6) 0.8039(4) -0.0550(4)
H14 H 0.8170 0.8496 -0.0576
C23 C 0.5657(7) 0.6389(6) -0.1278(5)
H15 H 0.5776 0.5850 -0.1053
H16 H 0.5853 0.6354 -0.1781
C24 C 0.4316(7) 0.6664(6) -0.1273(5)
C25 C 0.3817(7) 0.7271(5) -0.1722(5)
H17 H 0.4284 0.7530 -0.2047
C26 C 0.2638(7) 0.7499(5) -0.1697(5)
H18 H 0.2305 0.7917 -0.2006
C27 C 0.1911(6) 0.7119(5) -0.1213(4)
C28 C 0.2415(7) 0.6492(7) -0.0766(4)
H19 H 0.1946 0.6227 -0.0444
C29 C 0.3617(7) 0.6262(6) -0.0797(4)
H20 H 0.3958 0.5837 -0.0499
C30 C 0.0600(7) 0.7394(7) -0.1194(5)
H21 H 0.0337 0.7258 -0.0719
H22 H 0.0545 0.7987 -0.1257
C31 C -0.0642(6) 0.7319(5) -0.2423(4)
H23 H -0.0500 0.7862 -0.2551
C32 C -0.0616(7) 0.6178(6) -0.1789(4)
H24 H -0.0461 0.5793 -0.1413
C33 C -0.1288(7) 0.6069(5) -0.2455(4)
H25 H -0.1677 0.5582 -0.2613
Cu1 Cu 0.80034(6) 0.79608(4) 0.11221(4)
N1 N 0.6912(4) 0.9067(3) 0.1060(2)
N2 N 0.7411(4) 0.7668(3) 0.0089(3)
N3 N 0.6469(5) 0.7000(4) -0.0860(3)
N4 N -0.0216(5) 0.6979(4) -0.1792(3)
N5 N -0.1308(4) 0.6781(3) -0.2857(3)
O1 O 1.0344(4) 1.1249(5) -0.0710(3)
O2 O 1.0073(5) 1.2520(5) -0.0941(3)
O3 O 0.3912(4) 1.2272(3) 0.2998(3)
O4 O 0.2401(4) 1.1782(3) 0.3564(3)
Cu1A Cu 0.19966(6) 1.29608(4) 0.38779(4)
Cu1B Cu 1.19966(6) 1.20392(4) -0.11221(4)
Cu1C Cu -0.19966(6) 0.70392(4) -0.38779(4)
N5C N 0.8692(4) 0.8219(3) 0.2143(3)
O1B O 0.9656(4) 0.8751(5) 0.0710(3)
O2B O 0.9927(5) 0.7480(5) 0.0941(3)
O4A O 0.7599(4) 0.6782(3) 0.1436(3)
O5 O 1.0477(9) 0.0373(7) 0.1208(7)
H26 H 0.997(3) 0.059(6) 0.144(4)
H27 H 1.018(3) 0.011(2) 0.0846(15)
loop_
_geom_bond_atom_site_label_1
_geom_bond_atom_site_label_2
_geom_bond_site_symmetry_1
_geom_bond_site_symmetry_2
C1 H1 1_555 1_555
C2 C1 1_555 1_555
C3 C2 1_555 1_555
H2 C3 1_555 1_555
C4 C3 1_555 1_555
C5 C4 1_555 1_555
H3 C5 1_555 1_555
C6 C4 1_555 1_555
C7 C6 1_555 1_555
H4 C7 1_555 1_555
C8 C7 1_555 1_555
H5 C8 1_555 1_555
C9 C8 1_555 1_555
H6 C9 1_555 1_555
C10 C9 1_555 1_555
C11 C6 1_555 1_555
H7 C11 1_555 1_555
C12 C2 1_555 1_555
C13 C12 1_555 1_555
H8 C13 1_555 1_555
C14 C13 1_555 1_555
H9 C14 1_555 1_555
C15 C14 1_555 1_555
H10 C15 1_555 1_555
C16 C15 1_555 1_555
C17 C12 1_555 1_555
H11 C17 1_555 1_555
C18 C16 1_555 1_555
C19 C10 1_555 1_555
C20 H12 1_555 1_555
C21 H13 1_555 1_555
C22 C21 1_555 1_555
H14 C22 1_555 1_555
C23 H15 1_555 1_555
H16 C23 1_555 1_555
C24 C23 1_555 1_555
C25 C24 1_555 1_555
H17 C25 1_555 1_555
C26 C25 1_555 1_555
H18 C26 1_555 1_555
C27 C26 1_555 1_555
C28 C27 1_555 1_555
H19 C28 1_555 1_555
C29 C24 1_555 1_555
H20 C29 1_555 1_555
C30 C27 1_555 1_555
H21 C30 1_555 1_555
H22 C30 1_555 1_555
C31 H23 1_555 1_555
C32 H24 1_555 1_555
C33 C32 1_555 1_555
H25 C33 1_555 1_555
Cu1 N1 1_555 1_555
N1 C1 1_555 1_555
N2 C20 1_555 1_555
N3 C20 1_555 1_555
N4 C30 1_555 1_555
N5 C31 1_555 1_555
O1 C18 1_555 1_555
O2 C18 1_555 1_555
O3 C19 1_555 1_555
O4 C19 1_555 1_555
O5 H26 1_555 1_555
H27 O5 1_555 1_555
Cu1A O4 1_555 1_555
Cu1B O1 1_555 1_555
Cu1C N5 1_555 1_555
N5C Cu1 1_555 1_555
O1B Cu1 1_555 1_555
O2B Cu1 1_555 1_555
O4A Cu1 1_555 1_555
C5 N1 1_555 1_555
C10 C11 1_555 1_555
C16 C17 1_555 1_555
C21 N3 1_555 1_555
C22 N2 1_555 1_555
C23 N3 1_555 1_555
C28 C29 1_555 1_555
C31 N4 1_555 1_555
C32 N4 1_555 1_555
C33 N5 1_555 1_555
Cu1 N2 1_555 1_555
O2 Cu1B 1_555 1_555

#END
