
#######################################################################
#
#                 Cambridge Crystallographic Data Centre
#                                CCDC 
#
#######################################################################
#
# If this CIF has been generated from an entry in the Cambridge 
# Structural Database, then it will include bibliographic, chemical, 
# crystal, experimental, refinement or atomic coordinate data resulting 
# from the CCDC's data processing and validation procedures.
#
#######################################################################

data_KIRJAY
_symmetry_cell_setting           triclinic
_symmetry_space_group_name_H-M   'P -1'
_symmetry_Int_Tables_number      2
_space_group_name_Hall           '-P 1'
loop_
_symmetry_equiv_pos_site_id
_symmetry_equiv_pos_as_xyz
1 x,y,z
2 -x,-y,-z
_cell_length_a                   10.496(3)
_cell_length_b                   16.263(4)
_cell_length_c                   19.895(5)
_cell_angle_alpha                70.954(4)
_cell_angle_beta                 81.123(5)
_cell_angle_gamma                87.101(4)
_cell_volume                     3171.65
loop_
_atom_site_label
_atom_site_type_symbol
_atom_site_fract_x
_atom_site_fract_y
_atom_site_fract_z
C1 C 0.1329(5) 0.7270(3) 0.2106(3)
H1 H 0.2034 0.6896 0.2149
C2 C 0.0538(5) 0.7273(3) 0.2732(3)
C3 C -0.0468(5) 0.7864(3) 0.2661(3)
H2 H -0.1002 0.7908 0.3066
C4 C -0.0683(4) 0.8397(3) 0.1975(3)
C5 C 0.0143(5) 0.8319(3) 0.1384(3)
H3 H 0.0000 0.8662 0.0926
C6 C -0.1810(5) 0.8998(3) 0.1878(3)
C7 C -0.1751(5) 0.9808(3) 0.1355(3)
H4 H -0.0985 0.9987 0.1046
C8 C -0.2819(5) 1.0363(3) 0.1282(3)
C9 C -0.3948(5) 1.0102(4) 0.1751(3)
H5 H -0.4652 1.0476 0.1720
C10 C -0.4035(6) 0.9288(4) 0.2265(4)
H6 H -0.4804 0.9108 0.2572
C11 C -0.2976(5) 0.8744(4) 0.2322(3)
H7 H -0.3045 0.8193 0.2665
C12 C -0.2771(5) 1.1264(3) 0.0744(3)
C13 C 0.0785(5) 0.6625(3) 0.3422(3)
C14 C 0.1190(5) 0.5798(3) 0.3416(3)
H8 H 0.1268 0.5672 0.2988
C15 C 0.1481(4) 0.5155(3) 0.4030(3)
C16 C 0.1384(5) 0.5347(3) 0.4665(3)
H9 H 0.1604 0.4929 0.5076
C17 C 0.0957(5) 0.6165(3) 0.4691(3)
H10 H 0.0890 0.6287 0.5120
C18 C 0.0631(5) 0.6797(3) 0.4079(3)
H11 H 0.0313 0.7333 0.4103
C19 C 0.1837(5) 0.4260(3) 0.3963(3)
C20 C 0.3612(5) 0.2958(3) 0.2960(3)
H12 H 0.2932 0.3351 0.2933
C21 C 0.4355(5) 0.2950(3) 0.2322(3)
C22 C 0.5376(4) 0.2351(3) 0.2370(3)
H13 H 0.5896 0.2323 0.1955
C23 C 0.5609(5) 0.1800(3) 0.3040(3)
C24 C 0.4807(5) 0.1871(3) 0.3647(3)
H14 H 0.4969 0.1511 0.4096
C25 C 0.6695(5) 0.1167(3) 0.3106(3)
C26 C 0.7824(5) 0.1357(3) 0.2613(3)
H15 H 0.7910 0.1894 0.2253
C27 C 0.8820(5) 0.0758(3) 0.2653(3)
H16 H 0.9563 0.0891 0.2316
C28 C 0.8710(5) -0.0035(3) 0.3191(3)
H17 H 0.9376 -0.0438 0.3214
C29 C 0.7623(5) -0.0233(3) 0.3694(3)
C30 C 0.6611(5) 0.0375(3) 0.3643(3)
H18 H 0.5868 0.0238 0.3979
C31 C 0.7497(5) -0.1080(3) 0.4291(3)
C32 C 0.4074(4) 0.3550(3) 0.1612(3)
C33 C 0.4376(4) 0.3309(3) 0.0997(3)
H19 H 0.4764 0.2773 0.1028
C34 C 0.4110(5) 0.3851(3) 0.0343(3)
H20 H 0.4299 0.3671 -0.0059
C35 C 0.3569(5) 0.4654(3) 0.0275(3)
H21 H 0.3405 0.5018 -0.0172
C36 C 0.3269(5) 0.4924(3) 0.0872(3)
C37 C 0.3508(4) 0.4361(3) 0.1548(3)
H22 H 0.3287 0.4532 0.1954
C38 C 0.2767(5) 0.5843(4) 0.0781(3)
C39 C 0.5472(5) -0.2644(3) 0.4402(3)
H23 H 0.5832 -0.2173 0.4022
C40 C 0.4968(6) -0.3558(4) 0.5446(3)
H24 H 0.4918 -0.3842 0.5938
C41 C 0.4365(6) -0.3814(4) 0.4999(4)
H25 H 0.3832 -0.4297 0.5123
C42 C 0.4378(6) -0.3291(4) 0.3653(3)
H26 H 0.4394 -0.2712 0.3303
H27 H 0.3511 -0.3518 0.3733
C43 C 0.5318(5) -0.3876(4) 0.3343(3)
C44 C 0.4860(5) -0.4420(4) 0.3023(3)
H28 H 0.3977 -0.4463 0.3033
C45 C 0.5697(5) -0.4897(4) 0.2690(3)
H29 H 0.5365 -0.5250 0.2473
C46 C 0.7031(5) -0.4866(4) 0.2671(3)
C47 C 0.7464(6) -0.4322(4) 0.3000(4)
H30 H 0.8346 -0.4282 0.2995
C48 C 0.6643(6) -0.3842(4) 0.3331(4)
H31 H 0.6975 -0.3492 0.3550
C49 C 0.9712(5) -0.7347(3) 0.0370(3)
H32 H 0.9363 -0.7855 0.0711
C50 C 1.0249(5) -0.6342(4) -0.0618(3)
H33 H 1.0339 -0.6015 -0.1104
C51 C 1.0766(6) -0.6136(4) -0.0115(3)
H34 H 1.1264 -0.5650 -0.0185
C52 C 1.0641(5) -0.6808(4) 0.1236(3)
H35 H 1.1498 -0.6587 0.1200
H36 H 1.0612 -0.7409 0.1548
C53 C 0.9677(5) -0.6290(3) 0.1572(3)
C54 C 0.8429(5) -0.6110(4) 0.1404(3)
H37 H 0.8166 -0.6302 0.1055
C55 C 0.7579(5) -0.5649(4) 0.1751(3)
H38 H 0.6758 -0.5526 0.1623
C56 C 0.7923(5) -0.5363(3) 0.2290(3)
C57 C 0.9173(5) -0.5565(4) 0.2458(3)
H39 H 0.9429 -0.5402 0.2824
C58 C 1.0030(5) -0.5996(4) 0.2098(3)
H40 H 1.0865 -0.6094 0.2209
C59 C 0.4809(5) 0.8223(4) 0.0451(3)
H41 H 0.4603 0.8715 0.0086
C60 C 0.5884(6) 0.7309(4) 0.1199(3)
H42 H 0.6540 0.7035 0.1457
C61 C 0.4679(6) 0.7014(4) 0.1295(3)
H43 H 0.4364 0.6493 0.1632
C62 C 0.7096(6) 0.8650(5) 0.0364(3)
H44 H 0.7859 0.8327 0.0519
H45 H 0.6996 0.9132 0.0553
C63 C 0.7282(5) 0.9004(4) -0.0453(3)
C64 C 0.7196(6) 0.8488(4) -0.0866(4)
H46 H 0.7054 0.7894 -0.0642
C65 C 0.7313(6) 0.8820(4) -0.1604(3)
H47 H 0.7252 0.8448 -0.1867
C66 C 0.7521(5) 0.9697(4) -0.1961(3)
C67 C 0.7637(7) 1.0208(4) -0.1540(4)
H48 H 0.7808 1.0798 -0.1764
C68 C 0.7510(7) 0.9878(4) -0.0795(4)
H49 H 0.7579 1.0245 -0.0529
C69 C 0.7567(5) 1.0068(4) -0.2763(3)
C70 C 0.7669(8) 0.9539(4) -0.3192(4)
H50 H 0.7723 0.8939 -0.2981
C71 C 0.7691(8) 0.9883(5) -0.3922(4)
H51 H 0.7729 0.9511 -0.4194
C72 C 0.7660(6) 1.0757(5) -0.4258(4)
C73 C 0.7560(6) 1.1292(4) -0.3834(4)
H52 H 0.7517 1.1892 -0.4049
C74 C 0.7523(6) 1.0954(4) -0.3106(3)
H53 H 0.7468 1.1329 -0.2836
C75 C 0.7722(7) 1.1136(5) -0.5058(4)
H54 H 0.7635 1.0671 -0.5253
H55 H 0.7001 1.1530 -0.5166
C76 C 1.0034(6) 1.1578(4) -0.5151(3)
H56 H 1.0158 1.1223 -0.4694
C77 C 0.9116(8) 1.2194(6) -0.6070(4)
H57 H 0.8517 1.2363 -0.6389
C78 C 1.0316(8) 1.2488(6) -0.6183(4)
H58 H 1.0687 1.2905 -0.6603
N1 N 0.9568(4) -0.7104(3) -0.0310(2)
N2 N 1.0416(4) -0.6783(3) 0.0518(2)
N3 N 0.4685(4) -0.3231(3) 0.4330(2)
N4 N 0.5671(4) -0.2814(3) 0.5071(2)
N5 N 0.8937(5) 1.1612(3) -0.5416(3)
N6 N 1.0930(4) 1.2101(3) -0.5606(2)
N7 N 0.5973(4) 0.8083(3) 0.0656(2)
N8 N 0.3976(4) 0.7598(3) 0.0817(2)
N9 N 0.3811(4) 0.2433(3) 0.3618(2)
N10 N 0.1149(4) 0.7760(3) 0.1453(2)
Ni1 Ni 0.72908(6) -0.24321(4) 0.53955(3)
Ni2 Ni 0.21510(6) 0.73964(4) 0.06021(3)
O1 O -0.2107(3) 1.1381(2) 0.01323(18)
O2 O -0.3387(5) 1.1836(3) 0.0922(2)
O3 O 0.1822(6) 0.4189(3) 0.3363(2)
O4 O 0.2110(4) 0.3673(2) 0.4505(2)
O5 O 0.2913(4) 0.6386(2) 0.0155(2)
O6 O 0.2280(4) 0.6051(2) 0.1319(2)
O7 O 0.8070(3) -0.1747(2) 0.42069(19)
O8 O 0.6845(4) -0.1107(2) 0.48882(19)
N1A N 0.0432(4) 0.7104(3) 0.0310(2)
N6A N 0.9070(4) -0.2101(3) 0.5606(2)
N9A N 0.6189(4) -0.2433(3) 0.6382(2)
Ni1A Ni 0.27092(6) 0.24321(4) 0.46045(3)
Ni1A_2 Ni 1.27092(6) 1.24321(4) -0.53955(3)
Ni2A Ni -0.21510(6) 1.26036(4) -0.06021(3)
Ni2A_2 Ni 0.78490(6) -0.73964(4) -0.06021(3)
O1A O 0.2107(3) 0.8619(2) -0.01323(18)
O4A O 0.7890(4) -0.3673(2) 0.5495(2)
loop_
_geom_bond_atom_site_label_1
_geom_bond_atom_site_label_2
_geom_bond_site_symmetry_1
_geom_bond_site_symmetry_2
C1 H1 1_555 1_555
C2 C1 1_555 1_555
C3 C2 1_555 1_555
H2 C3 1_555 1_555
C4 C3 1_555 1_555
C5 C4 1_555 1_555
H3 C5 1_555 1_555
C6 C4 1_555 1_555
C7 C6 1_555 1_555
H4 C7 1_555 1_555
C8 C7 1_555 1_555
C9 C8 1_555 1_555
H5 C9 1_555 1_555
C10 C9 1_555 1_555
H6 C10 1_555 1_555
C11 C6 1_555 1_555
H7 C11 1_555 1_555
C12 C8 1_555 1_555
C13 C2 1_555 1_555
C14 C13 1_555 1_555
H8 C14 1_555 1_555
C15 C14 1_555 1_555
C16 C15 1_555 1_555
H9 C16 1_555 1_555
C17 C16 1_555 1_555
H10 C17 1_555 1_555
C18 C13 1_555 1_555
H11 C18 1_555 1_555
C19 C15 1_555 1_555
C20 H12 1_555 1_555
C21 C20 1_555 1_555
C22 C21 1_555 1_555
H13 C22 1_555 1_555
C23 C22 1_555 1_555
C24 C23 1_555 1_555
H14 C24 1_555 1_555
C25 C23 1_555 1_555
C26 C25 1_555 1_555
H15 C26 1_555 1_555
C27 C26 1_555 1_555
H16 C27 1_555 1_555
C28 C27 1_555 1_555
H17 C28 1_555 1_555
C29 C28 1_555 1_555
C30 C25 1_555 1_555
H18 C30 1_555 1_555
C31 C29 1_555 1_555
C32 C21 1_555 1_555
C33 C32 1_555 1_555
H19 C33 1_555 1_555
C34 C33 1_555 1_555
H20 C34 1_555 1_555
C35 C34 1_555 1_555
H21 C35 1_555 1_555
C36 C35 1_555 1_555
C37 C32 1_555 1_555
H22 C37 1_555 1_555
C38 C36 1_555 1_555
C39 H23 1_555 1_555
C40 H24 1_555 1_555
C41 C40 1_555 1_555
H25 C41 1_555 1_555
C42 H26 1_555 1_555
H27 C42 1_555 1_555
C43 C42 1_555 1_555
C44 C43 1_555 1_555
H28 C44 1_555 1_555
C45 C44 1_555 1_555
H29 C45 1_555 1_555
C46 C45 1_555 1_555
C47 C46 1_555 1_555
H30 C47 1_555 1_555
C48 C43 1_555 1_555
H31 C48 1_555 1_555
C49 H32 1_555 1_555
C50 H33 1_555 1_555
C51 C50 1_555 1_555
H34 C51 1_555 1_555
C52 H35 1_555 1_555
H36 C52 1_555 1_555
C53 C52 1_555 1_555
C54 C53 1_555 1_555
H37 C54 1_555 1_555
C55 C54 1_555 1_555
H38 C55 1_555 1_555
C56 C46 1_555 1_555
C57 C56 1_555 1_555
H39 C57 1_555 1_555
C58 C53 1_555 1_555
H40 C58 1_555 1_555
C59 H41 1_555 1_555
C60 H42 1_555 1_555
C61 C60 1_555 1_555
H43 C61 1_555 1_555
C62 H44 1_555 1_555
H45 C62 1_555 1_555
C63 C62 1_555 1_555
C64 C63 1_555 1_555
H46 C64 1_555 1_555
C65 C64 1_555 1_555
H47 C65 1_555 1_555
C66 C65 1_555 1_555
C67 C66 1_555 1_555
H48 C67 1_555 1_555
C68 C63 1_555 1_555
H49 C68 1_555 1_555
C69 C66 1_555 1_555
C70 C69 1_555 1_555
H50 C70 1_555 1_555
C71 C70 1_555 1_555
H51 C71 1_555 1_555
C72 C71 1_555 1_555
C73 C72 1_555 1_555
H52 C73 1_555 1_555
C74 C69 1_555 1_555
H53 C74 1_555 1_555
C75 C72 1_555 1_555
H54 C75 1_555 1_555
H55 C75 1_555 1_555
C76 H56 1_555 1_555
C77 H57 1_555 1_555
C78 C77 1_555 1_555
H58 C78 1_555 1_555
N1 C49 1_555 1_555
N2 C49 1_555 1_555
N3 C39 1_555 1_555
N4 C39 1_555 1_555
N5 C75 1_555 1_555
N6 C76 1_555 1_555
N7 C59 1_555 1_555
N8 C59 1_555 1_555
N9 C20 1_555 1_555
N10 C1 1_555 1_555
Ni1 N4 1_555 1_555
Ni2 N8 1_555 1_555
O1 C12 1_555 1_555
O2 C12 1_555 1_555
O3 C19 1_555 1_555
O4 C19 1_555 1_555
O5 C38 1_555 1_555
O6 C38 1_555 1_555
O7 C31 1_555 1_555
O8 C31 1_555 1_555
N1A Ni2 1_555 1_555
N6A Ni1 1_555 1_555
N9A Ni1 1_555 1_555
Ni1A N9 1_555 1_555
Ni1A_2 N6 1_555 1_555
Ni2A O1 1_555 1_555
Ni2A_2 N1 1_555 1_555
O1A Ni2 1_555 1_555
O4A Ni1 1_555 1_555
C5 N10 1_555 1_555
C10 C11 1_555 1_555
C17 C18 1_555 1_555
C24 N9 1_555 1_555
C29 C30 1_555 1_555
C36 C37 1_555 1_555
C40 N4 1_555 1_555
C41 N3 1_555 1_555
C42 N3 1_555 1_555
C47 C48 1_555 1_555
C50 N1 1_555 1_555
C51 N2 1_555 1_555
C52 N2 1_555 1_555
C55 C56 1_555 1_555
C57 C58 1_555 1_555
C60 N7 1_555 1_555
C61 N8 1_555 1_555
C62 N7 1_555 1_555
C67 C68 1_555 1_555
C73 C74 1_555 1_555
C76 N5 1_555 1_555
C77 N5 1_555 1_555
C78 N6 1_555 1_555
N10 Ni2 1_555 1_555
Ni1 O7 1_555 1_555
Ni1 O8 1_555 1_555
Ni2 O5 1_555 1_555
Ni2 O6 1_555 1_555
O4 Ni1A 1_555 1_555

#END
