
#######################################################################
#
#                 Cambridge Crystallographic Data Centre
#                                CCDC 
#
#######################################################################
#
# If this CIF has been generated from an entry in the Cambridge 
# Structural Database, then it will include bibliographic, chemical, 
# crystal, experimental, refinement or atomic coordinate data resulting 
# from the CCDC's data processing and validation procedures.
#
#######################################################################

data_KIRKIF01
_symmetry_cell_setting           monoclinic
_symmetry_space_group_name_H-M   'P 21'
_symmetry_Int_Tables_number      4
_space_group_name_Hall           'P 2yb'
loop_
_symmetry_equiv_pos_site_id
_symmetry_equiv_pos_as_xyz
1 x,y,z
2 -x,1/2+y,-z
_cell_length_a                   10.5050(10)
_cell_length_b                   7.7135(7)
_cell_length_c                   25.545(2)
_cell_angle_alpha                90
_cell_angle_beta                 90.531(2)
_cell_angle_gamma                90
_cell_volume                     2069.83
loop_
_atom_site_label
_atom_site_type_symbol
_atom_site_fract_x
_atom_site_fract_y
_atom_site_fract_z
Cu1 Cu 0.62835(4) 0.00012(5) 0.059131(17)
O1 O 0.5373(2) 0.1612(3) 0.00942(10)
N1 N 0.7985(3) 0.0900(4) 0.04202(12)
N2 N 0.4522(3) -0.0632(4) 0.07767(12)
H1 H 0.4254 -0.1526 0.0578
H2 H 0.4490 -0.0956 0.1115
O2 O 0.3508(2) 0.3002(3) 0.00193(10)
C1 C 0.9172(4) -0.0377(6) 0.17221(16)
H3 H 0.9986 0.0093 0.1745
C2 C 0.7453(4) 0.5055(6) 0.08945(17)
H4 H 0.7688 0.5708 0.0605
N3 N 0.7223(3) -0.0758(4) 0.12435(12)
C3 C 0.4228(3) 0.1911(5) 0.02279(15)
C4 C 0.3584(3) 0.2021(5) 0.11820(14)
H5 H 0.3234 0.3137 0.1081
H6 H 0.2979 0.1476 0.1415
N4 N 0.6249(3) 0.2132(5) 0.21408(14)
C5 C 0.8314(4) 0.1617(5) -0.00357(16)
H7 H 0.7712 0.1663 -0.0305
C6 C 0.5903(4) 0.3321(5) 0.13428(16)
C7 C 0.8337(4) 0.4789(6) 0.13048(18)
H8 H 0.9153 0.5247 0.1279
C8 C 0.7484(4) -0.2039(6) 0.20861(16)
H9 H 0.7146 -0.2710 0.2354
C9 C 0.6793(4) 0.3147(5) 0.17625(16)
C10 C 0.8420(4) -0.0107(5) 0.12790(15)
C11 C 1.0385(4) 0.2264(6) 0.02820(17)
H10 H 1.1187 0.2750 0.0238
C12 C 0.8008(4) 0.3860(6) 0.17428(17)
H11 H 0.8582 0.3712 0.2018
C13 C 0.8860(4) 0.0827(5) 0.08113(15)
C14 C 0.8685(4) -0.1367(6) 0.21319(16)
H12 H 0.9171 -0.1566 0.2432
C15 C 0.9510(4) 0.2291(6) -0.01233(16)
H13 H 0.9720 0.2752 -0.0448
C16 C 0.6782(4) -0.1712(5) 0.16398(15)
H14 H 0.5966 -0.2174 0.1612
C17 C 0.3697(4) 0.0893(5) 0.06871(14)
H15 H 0.2844 0.0481 0.0590
C18 C 0.6247(4) 0.4362(5) 0.09158(16)
H16 H 0.5662 0.4582 0.0648
C19 C 0.4800(4) 0.2328(5) 0.14821(14)
C20 C 1.0068(4) 0.1514(5) 0.07525(16)
H17 H 1.0656 0.1471 0.1027
C21 C 0.5053(4) 0.1655(5) 0.19656(15)
H18 H 0.4492 0.0964 0.2153
Cu1A Cu 0.37165(4) 0.50012(5) -0.059131(17)
O2A O 0.6492(2) -0.1998(3) -0.00193(10)
Cu2 Cu 0.37342(4) 0.62513(5) 0.438466(18)
O3 O 0.4592(2) 0.7893(3) 0.48907(10)
N5 N 0.2010(3) 0.7096(4) 0.45364(12)
N6 N 0.5521(3) 0.5699(4) 0.42052(13)
H19 H 0.5807 0.4817 0.4404
H20 H 0.5571 0.5384 0.3867
C22 C 0.2445(4) 1.1420(6) 0.41321(17)
H21 H 0.2223 1.2085 0.4421
N7 N 0.2842(3) 0.5390(4) 0.37330(12)
C23 C 0.5745(3) 0.8224(5) 0.47699(15)
C24 C 0.3077(4) 0.9440(5) 0.32757(16)
N8 N 0.3594(3) 0.8430(5) 0.28957(13)
C25 C 0.1137(4) 0.6902(5) 0.41430(14)
C26 C 0.6339(3) 0.8472(6) 0.38175(15)
H22 H 0.6646 0.9599 0.3930
H23 H 0.6953 0.8007 0.3574
C27 C 0.3983(4) 0.9689(5) 0.36783(15)
C28 C 0.1623(4) 0.5940(5) 0.36863(15)
C29 C 0.0447(4) 0.8543(6) 0.50493(16)
H24 H 0.0223 0.9072 0.5362
C30 C 0.2683(4) 0.4111(5) 0.28856(15)
H25 H 0.3069 0.3492 0.2618
C31 C -0.0080(4) 0.7572(5) 0.41877(15)
H26 H -0.0663 0.7462 0.3914
C32 C 0.0895(4) 0.5579(5) 0.32439(16)
H27 H 0.0051 0.5941 0.3223
C33 C -0.0418(4) 0.8408(5) 0.46454(17)
H28 H -0.1229 0.8876 0.4679
C34 C 0.1660(4) 0.7877(5) 0.49820(16)
H29 H 0.2249 0.7974 0.5254
C35 C 0.1432(4) 0.4676(5) 0.28348(16)
H30 H 0.0966 0.4451 0.2531
C36 C 0.4811(4) 0.7981(5) 0.30585(16)
H31 H 0.5359 0.7272 0.2871
C37 C 0.1843(4) 1.0159(5) 0.32980(17)
H32 H 0.1257 0.9987 0.3028
C38 C 0.1530(4) 1.1128(6) 0.37347(16)
H33 H 0.0716 1.1586 0.3766
C39 C 0.3653(4) 1.0754(5) 0.41051(16)
H34 H 0.4249 1.1002 0.4366
C40 C 0.3334(4) 0.4483(5) 0.33373(16)
H35 H 0.4165 0.4082 0.3371
C41 C 0.6296(4) 0.7266(5) 0.43014(15)
H36 H 0.7167 0.6907 0.4389
C42 C 0.5096(4) 0.8720(5) 0.35312(15)
O5 O 0.6458(2) 0.9278(3) 0.49975(10)
Cu2A Cu 0.62658(4) 1.12513(5) 0.561534(18)
O5A O 0.3542(2) 0.4278(3) 0.50025(10)
Cl1 Cl 0.77219(9) 0.35303(14) 0.33345(4)
O8 O 0.6418(3) 0.3008(5) 0.34059(13)
O10 O 0.8339(3) 0.2283(5) 0.30172(12)
O11 O 0.7748(3) 0.5193(4) 0.30791(14)
O12 O 0.8350(3) 0.3683(5) 0.38303(11)
Cl2 Cl 0.21995(9) 0.70992(12) 0.16225(4)
O4 O 0.3566(3) 0.7038(4) 0.16802(12)
O6 O 0.1680(3) 0.7808(4) 0.20975(10)
O7 O 0.1873(3) 0.8223(4) 0.11886(11)
O9 O 0.1700(3) 0.5406(4) 0.15361(13)
loop_
_geom_bond_atom_site_label_1
_geom_bond_atom_site_label_2
_geom_bond_site_symmetry_1
_geom_bond_site_symmetry_2
Cu1 O1 1_555 1_555
O1 C3 1_555 1_555
N1 Cu1 1_555 1_555
N2 Cu1 1_555 1_555
H1 N2 1_555 1_555
H2 N2 1_555 1_555
O2 C3 1_555 1_555
C1 H3 1_555 1_555
C2 H4 1_555 1_555
N3 Cu1 1_555 1_555
C3 C17 1_555 1_555
C4 H5 1_555 1_555
H6 C4 1_555 1_555
N4 C9 1_555 1_555
C5 N1 1_555 1_555
H7 C5 1_555 1_555
C6 C9 1_555 1_555
C7 C2 1_555 1_555
H8 C7 1_555 1_555
C8 H9 1_555 1_555
C9 C12 1_555 1_555
C10 C1 1_555 1_555
C11 H10 1_555 1_555
C12 C7 1_555 1_555
H11 C12 1_555 1_555
C13 N1 1_555 1_555
C14 C1 1_555 1_555
H12 C14 1_555 1_555
C15 C5 1_555 1_555
H13 C15 1_555 1_555
C16 N3 1_555 1_555
H14 C16 1_555 1_555
C17 N2 1_555 1_555
H15 C17 1_555 1_555
C18 C2 1_555 1_555
H16 C18 1_555 1_555
C19 C4 1_555 1_555
C20 C11 1_555 1_555
H17 C20 1_555 1_555
C21 N4 1_555 1_555
H18 C21 1_555 1_555
Cu2 O3 1_555 1_555
Cl1 O8 1_555 1_555
O3 C23 1_555 1_555
N5 Cu2 1_555 1_555
N6 Cu2 1_555 1_555
H19 N6 1_555 1_555
H20 N6 1_555 1_555
C22 H21 1_555 1_555
N7 Cu2 1_555 1_555
C23 C41 1_555 1_555
C24 N8 1_555 1_555
N8 C36 1_555 1_555
C25 N5 1_555 1_555
C26 H22 1_555 1_555
H23 C26 1_555 1_555
C27 C24 1_555 1_555
C28 N7 1_555 1_555
C29 H24 1_555 1_555
C30 H25 1_555 1_555
C31 C25 1_555 1_555
H26 C31 1_555 1_555
C32 C28 1_555 1_555
H27 C32 1_555 1_555
C33 C29 1_555 1_555
H28 C33 1_555 1_555
C34 N5 1_555 1_555
H29 C34 1_555 1_555
C35 C30 1_555 1_555
H30 C35 1_555 1_555
C36 H31 1_555 1_555
C37 C24 1_555 1_555
H32 C37 1_555 1_555
C38 C22 1_555 1_555
H33 C38 1_555 1_555
C39 C22 1_555 1_555
H34 C39 1_555 1_555
C40 N7 1_555 1_555
H35 C40 1_555 1_555
C41 N6 1_555 1_555
H36 C41 1_555 1_555
C42 C26 1_555 1_555
Cl2 O4 1_555 1_555
O5 C23 1_555 1_555
O6 Cl2 1_555 1_555
O7 Cl2 1_555 1_555
O9 Cl2 1_555 1_555
O10 Cl1 1_555 1_555
O11 Cl1 1_555 1_555
O12 Cl1 1_555 1_555
Cu1A O2 1_555 1_555
O2A Cu1 1_555 1_555
Cu2A O5 1_555 1_555
O5A Cu2 1_555 1_555
N3 C10 1_555 1_555
C4 C17 1_555 1_555
C6 C18 1_555 1_555
C6 C19 1_555 1_555
C8 C14 1_555 1_555
C8 C16 1_555 1_555
C10 C13 1_555 1_555
C11 C15 1_555 1_555
C13 C20 1_555 1_555
C19 C21 1_555 1_555
C25 C28 1_555 1_555
C26 C41 1_555 1_555
C27 C39 1_555 1_555
C27 C42 1_555 1_555
C29 C34 1_555 1_555
C30 C40 1_555 1_555
C31 C33 1_555 1_555
C32 C35 1_555 1_555
C36 C42 1_555 1_555
C37 C38 1_555 1_555

#END
