
#######################################################################
#
#                 Cambridge Crystallographic Data Centre
#                                CCDC 
#
#######################################################################
#
# If this CIF has been generated from an entry in the Cambridge 
# Structural Database, then it will include bibliographic, chemical, 
# crystal, experimental, refinement or atomic coordinate data resulting 
# from the CCDC's data processing and validation procedures.
#
#######################################################################

data_KIRKED
_symmetry_cell_setting           monoclinic
_symmetry_space_group_name_H-M   'P 21/c'
_symmetry_Int_Tables_number      14
_space_group_name_Hall           '-P 2ybc'
loop_
_symmetry_equiv_pos_site_id
_symmetry_equiv_pos_as_xyz
1 x,y,z
2 -x,1/2+y,1/2-z
3 -x,-y,-z
4 x,1/2-y,1/2+z
_cell_length_a                   12.5108(5)
_cell_length_b                   19.1026(8)
_cell_length_c                   8.6495(3)
_cell_angle_alpha                90
_cell_angle_beta                 100.9520(10)
_cell_angle_gamma                90
_cell_volume                     2029.48
loop_
_atom_site_label
_atom_site_type_symbol
_atom_site_fract_x
_atom_site_fract_y
_atom_site_fract_z
C1 C 0.72687(13) 0.00716(9) 0.2242(2)
H1 H 0.7614 -0.0077 0.1438
C2 C 0.60421(13) 0.03782(9) 0.3536(2)
H2 H 0.5366 0.0479 0.3779
C3 C 0.70025(14) 0.04201(9) 0.4559(2)
H3 H 0.7110 0.0556 0.5609
C4 C 0.89211(13) 0.01196(9) 0.4357(2)
C5 C 0.94732(14) -0.04178(10) 0.3797(2)
H4 H 0.9116 -0.0701 0.2986
C6 C 0.94419(14) 0.05396(10) 0.5564(2)
H5 H 0.9068 0.0902 0.5946
C7 C 0.62590(13) 0.12582(8) -0.09770(19)
H6 H 0.6770 0.0905 -0.0984
C8 C 0.65768(13) 0.19446(8) -0.11736(19)
C9 C 0.57984(13) 0.24621(8) -0.1136(2)
H7 H 0.5986 0.2930 -0.1216
C10 C 0.47464(13) 0.22897(8) -0.09819(19)
C11 C 0.45144(13) 0.15825(8) -0.08140(19)
H8 H 0.3811 0.1457 -0.0723
C12 C 0.38932(12) 0.28360(8) -0.10018(19)
C13 C 0.30967(14) 0.27752(9) -0.0086(2)
H9 H 0.3107 0.2395 0.0589
C14 C 0.22902(14) 0.32767(9) -0.0173(2)
H10 H 0.1777 0.3241 0.0474
C15 C 0.22408(13) 0.38308(9) -0.1215(2)
H11 H 0.1674 0.4153 -0.1307
C16 C 0.30372(12) 0.39062(8) -0.21248(18)
C17 C 0.38670(12) 0.34132(8) -0.19880(18)
H12 H 0.4416 0.3471 -0.2568
C18 C 0.30098(12) 0.45091(8) -0.32546(19)
C19 C 0.77100(13) 0.21116(9) -0.1356(2)
C20 C 0.85637(13) 0.16443(9) -0.0868(2)
H13 H 0.8421 0.1214 -0.0448
C21 C 0.96226(14) 0.18118(10) -0.0999(2)
C22 C 0.98383(15) 0.24468(11) -0.1657(2)
H14 H 1.0542 0.2553 -0.1784
C23 C 0.90062(16) 0.29185(11) -0.2123(3)
H15 H 0.9154 0.3350 -0.2535
C24 C 0.79511(15) 0.27544(10) -0.1981(2)
H16 H 0.7396 0.3076 -0.2306
C25 C 1.05621(14) 0.13393(10) -0.0400(2)
Co1 Co 0.5000 0.0000 0.0000
N1 N 0.62128(10) 0.01641(7) 0.20826(16)
N2 N 0.77910(11) 0.02204(8) 0.37278(16)
N3 N 0.52597(10) 0.10755(6) -0.07776(16)
O1 O 0.21626(9) 0.48774(6) -0.35764(15)
O2 O 0.38578(9) 0.46111(6) -0.37960(14)
O3 O 1.14591(10) 0.14275(8) -0.07061(18)
O4 O 1.03249(10) 0.08222(7) 0.04884(19)
H17 H 1.0870 0.0584 0.0787
C1B C 1.27313(13) -0.00716(9) 0.7758(2)
H1B H 1.2386 0.0077 0.8562
C2B C 1.39579(13) -0.03782(9) 0.6464(2)
H2B H 1.4634 -0.0479 0.6221
C3B C 1.29975(14) -0.04201(9) 0.5441(2)
H3B H 1.2890 -0.0556 0.4391
C4B C 1.10789(13) -0.01196(9) 0.5643(2)
C5B C 1.05268(14) 0.04178(10) 0.6203(2)
H4B H 1.0884 0.0701 0.7014
C6B C 1.05581(14) -0.05396(10) 0.4436(2)
H5B H 1.0932 -0.0902 0.4054
N1B N 1.37872(10) -0.01641(7) 0.79174(16)
N2B N 1.22090(11) -0.02204(8) 0.62722(16)
C7B C 0.37410(13) -0.12582(8) 0.09770(19)
H6B H 0.3230 -0.0905 0.0984
C8B C 0.34232(13) -0.19446(8) 0.11736(19)
C9B C 0.42016(13) -0.24621(8) 0.1136(2)
H7B H 0.4014 -0.2930 0.1216
C10B C 0.52536(13) -0.22897(8) 0.09819(19)
C11B C 0.54856(13) -0.15825(8) 0.08140(19)
H8B H 0.6189 -0.1457 0.0723
C12B C 0.61068(12) -0.28360(8) 0.10018(19)
C13B C 0.69033(14) -0.27752(9) 0.0086(2)
H9B H 0.6893 -0.2395 -0.0589
C14B C 0.77098(14) -0.32767(9) 0.0173(2)
H10B H 0.8223 -0.3241 -0.0474
C15B C 0.77592(13) -0.38308(9) 0.1215(2)
H11B H 0.8326 -0.4153 0.1307
C16B C 0.69628(12) -0.39062(8) 0.21248(18)
C17B C 0.61330(12) -0.34132(8) 0.19880(18)
H12B H 0.5584 -0.3471 0.2568
C18B C 0.69902(12) -0.45091(8) 0.32546(19)
C19B C 0.22900(13) -0.21116(9) 0.1356(2)
C20B C 0.14363(13) -0.16443(9) 0.0868(2)
H13B H 0.1579 -0.1214 0.0448
C21B C 0.03774(14) -0.18118(10) 0.0999(2)
C22B C 0.01617(15) -0.24468(11) 0.1657(2)
H14B H -0.0542 -0.2553 0.1784
C23B C 0.09938(16) -0.29185(11) 0.2123(3)
H15B H 0.0846 -0.3350 0.2535
C24B C 0.20489(15) -0.27544(10) 0.1981(2)
H16B H 0.2604 -0.3076 0.2306
C25B C -0.05621(14) -0.13393(10) 0.0400(2)
N3B N 0.47403(10) -0.10755(6) 0.07776(16)
O1B O 0.78374(9) -0.48774(6) 0.35764(15)
O2B O 0.61422(9) -0.46111(6) 0.37960(14)
O3B O -0.14591(10) -0.14275(8) 0.07061(18)
O4B O -0.03249(10) -0.08222(7) -0.04884(19)
H17B H -0.0870 -0.0584 -0.0787
Co1_2 Co 1.5000 0.0000 1.0000
Co1A Co 0.5000 -0.5000 0.5000
Co1A_2 Co 0.5000 0.5000 -0.5000
N1B_2 N 0.37872(10) -0.01641(7) -0.20826(16)
O2A O 0.61422(9) -0.03889(6) -0.12040(14)
O2C O 0.38578(9) 0.03889(6) 0.12040(14)
loop_
_geom_bond_atom_site_label_1
_geom_bond_atom_site_label_2
_geom_bond_site_symmetry_1
_geom_bond_site_symmetry_2
C1 H1 1_555 1_555
C2 H2 1_555 1_555
C3 C2 1_555 1_555
H3 C3 1_555 1_555
C4 C5 1_555 1_555
C5 H4 1_555 1_555
C6 C4 1_555 1_555
H5 C6 1_555 1_555
C7 H6 1_555 1_555
C8 C7 1_555 1_555
C9 C8 1_555 1_555
H7 C9 1_555 1_555
C10 C9 1_555 1_555
C11 C10 1_555 1_555
H8 C11 1_555 1_555
C12 C10 1_555 1_555
C13 C12 1_555 1_555
H9 C13 1_555 1_555
C14 C13 1_555 1_555
H10 C14 1_555 1_555
C15 C14 1_555 1_555
H11 C15 1_555 1_555
C16 C15 1_555 1_555
C17 C12 1_555 1_555
H12 C17 1_555 1_555
C18 C16 1_555 1_555
C19 C8 1_555 1_555
C20 C19 1_555 1_555
H13 C20 1_555 1_555
C21 C20 1_555 1_555
C22 C21 1_555 1_555
H14 C22 1_555 1_555
C23 C22 1_555 1_555
H15 C23 1_555 1_555
C24 C19 1_555 1_555
H16 C24 1_555 1_555
C25 C21 1_555 1_555
Co1 N1 1_555 1_555
N1 C1 1_555 1_555
N2 C1 1_555 1_555
N3 C7 1_555 1_555
O1 C18 1_555 1_555
O2 C18 1_555 1_555
O3 C25 1_555 1_555
O4 C25 1_555 1_555
H17 O4 1_555 1_555
C1B H1B 1_555 1_555
C2B H2B 1_555 1_555
C3B C2B 1_555 1_555
H3B C3B 1_555 1_555
C4B C5B 1_555 1_555
C5B C6 1_555 1_555
H4B C5B 1_555 1_555
C6B C5 1_555 1_555
H5B C6B 1_555 1_555
N1B C1B 1_555 1_555
N2B C1B 1_555 1_555
C7B H6B 1_555 1_555
C8B C7B 1_555 1_555
C9B C8B 1_555 1_555
H7B C9B 1_555 1_555
C10B C9B 1_555 1_555
C11B C10B 1_555 1_555
H8B C11B 1_555 1_555
C12B C10B 1_555 1_555
C13B C12B 1_555 1_555
H9B C13B 1_555 1_555
C14B C13B 1_555 1_555
H10B C14B 1_555 1_555
C15B C14B 1_555 1_555
H11B C15B 1_555 1_555
C16B C15B 1_555 1_555
C17B C12B 1_555 1_555
H12B C17B 1_555 1_555
C18B C16B 1_555 1_555
C19B C8B 1_555 1_555
C20B C19B 1_555 1_555
H13B C20B 1_555 1_555
C21B C20B 1_555 1_555
C22B C21B 1_555 1_555
H14B C22B 1_555 1_555
C23B C22B 1_555 1_555
H15B C23B 1_555 1_555
C24B C19B 1_555 1_555
H16B C24B 1_555 1_555
C25B C21B 1_555 1_555
N3B Co1 1_555 1_555
O1B C18B 1_555 1_555
O2B C18B 1_555 1_555
O3B C25B 1_555 1_555
O4B C25B 1_555 1_555
H17B O4B 1_555 1_555
Co1_2 N1B 1_555 1_555
Co1A O2B 1_555 1_555
Co1A_2 O2 1_555 1_555
N1B_2 Co1 1_555 1_555
O2A Co1 1_555 1_555
O2C Co1 1_555 1_555
C2 N1 1_555 1_555
C3 N2 1_555 1_555
C4 N2 1_555 1_555
C11 N3 1_555 1_555
C16 C17 1_555 1_555
C23 C24 1_555 1_555
Co1 N3 1_555 1_555
C2B N1B 1_555 1_555
C3B N2B 1_555 1_555
C4B C6B 1_555 1_555
C4B N2B 1_555 1_555
C7B N3B 1_555 1_555
C11B N3B 1_555 1_555
C16B C17B 1_555 1_555
C23B C24B 1_555 1_555

#END
