
#######################################################################
#
#                 Cambridge Crystallographic Data Centre
#                                CCDC 
#
#######################################################################
#
# If this CIF has been generated from an entry in the Cambridge 
# Structural Database, then it will include bibliographic, chemical, 
# crystal, experimental, refinement or atomic coordinate data resulting 
# from the CCDC's data processing and validation procedures.
#
#######################################################################

data_KIRROT
_symmetry_cell_setting           monoclinic
_symmetry_space_group_name_H-M   'P 21/c'
_symmetry_Int_Tables_number      14
_space_group_name_Hall           '-P 2ybc'
loop_
_symmetry_equiv_pos_site_id
_symmetry_equiv_pos_as_xyz
1 x,y,z
2 -x,1/2+y,1/2-z
3 -x,-y,-z
4 x,1/2-y,1/2+z
_cell_length_a                   11.729(3)
_cell_length_b                   13.314(3)
_cell_length_c                   19.666(4)
_cell_angle_alpha                90.00
_cell_angle_beta                 98.902(3)
_cell_angle_gamma                90.00
_cell_volume                     3034.05
loop_
_atom_site_label
_atom_site_type_symbol
_atom_site_fract_x
_atom_site_fract_y
_atom_site_fract_z
Co1 Co 0.503047(13) 0.619349(11) -0.002055(8)
Co2 Co 0.704600(13) 0.528230(11) -0.071480(8)
O1 O 0.67872(7) 0.62917(6) 0.05190(4)
O2 O 0.79640(7) 0.64518(7) -0.02674(4)
O3 O 0.63120(8) 0.63412(6) -0.15023(4)
O4 O 0.54562(8) 0.72052(6) -0.07408(4)
O5 O 0.34166(7) 0.61616(7) -0.06141(4)
O6 O 0.20719(8) 0.56981(7) 0.00239(4)
O7 O 0.45698(7) 0.50971(6) 0.06260(4)
N1 N 1.27215(11) 1.00809(10) 0.00463(7)
N2 N 0.52538(9) 1.25515(7) -0.06192(5)
N3 N 0.22422(9) 0.96135(7) -0.34901(5)
C1 C 1.24401(13) 0.91144(12) -0.00808(8)
H1 H 1.2855 0.8754 -0.0366
C2 C 1.15650(12) 0.86180(11) 0.01875(7)
H2 H 1.1414 0.7944 0.0086
C3 C 1.09169(11) 0.91382(10) 0.06099(7)
C4 C 1.12094(12) 1.01416(10) 0.07476(8)
H3 H 1.0810 1.0522 0.1030
C5 C 1.21056(12) 1.05673(11) 0.04567(8)
H4 H 1.2286 1.1237 0.0556
C6 C 0.99358(11) 0.86575(9) 0.08811(6)
C7 C 0.93183(10) 0.78774(9) 0.05123(6)
H5 H 0.9558 0.7636 0.0114
C8 C 0.83503(10) 0.74578(9) 0.07342(6)
C9 C 0.79980(11) 0.78102(9) 0.13364(6)
H6 H 0.7353 0.7533 0.1487
C10 C 0.86112(12) 0.85761(10) 0.17119(7)
H7 H 0.8377 0.8808 0.2115
C11 C 0.95713(12) 0.89958(10) 0.14872(7)
H8 H 0.9976 0.9507 0.1742
C12 C 0.76518(10) 0.66714(9) 0.03039(6)
C13 C 0.59740(11) 1.25383(9) -0.10898(6)
H9 H 0.6402 1.3113 -0.1143
C14 C 0.61107(11) 1.17103(9) -0.15000(6)
H10 H 0.6616 1.1739 -0.1820
C15 C 0.54839(10) 1.08324(9) -0.14278(6)
C16 C 0.47105(10) 1.08626(9) -0.09550(6)
H11 H 0.4252 1.0307 -0.0901
C17 C 0.46254(10) 1.17156(9) -0.05679(6)
H12 H 0.4107 1.1714 -0.0255
C18 C 0.56815(10) 0.98846(8) -0.17904(6)
C19 C 0.55733(10) 0.89764(9) -0.14485(6)
H13 H 0.5308 0.8982 -0.1027
C20 C 0.58561(10) 0.80630(8) -0.17276(6)
C21 C 0.62103(11) 0.80531(9) -0.23742(6)
H14 H 0.6395 0.7448 -0.2567
C22 C 0.62857(12) 0.89506(9) -0.27290(6)
H15 H 0.6502 0.8940 -0.3165
C23 C 0.60408(12) 0.98637(9) -0.24375(6)
H16 H 0.6116 1.0460 -0.2673
C24 C 0.58647(10) 0.71205(8) -0.12957(6)
C25 C 0.12214(10) 0.91326(9) -0.36133(6)
H17 H 0.0790 0.9178 -0.4051
C26 C 0.07852(11) 0.85735(9) -0.31189(6)
H18 H 0.0066 0.8269 -0.3223
C27 C 0.14293(10) 0.84691(9) -0.24638(6)
C28 C 0.24801(11) 0.89847(9) -0.23330(6)
H19 H 0.2931 0.8949 -0.1901
C29 C 0.28459(10) 0.95490(9) -0.28510(6)
H20 H 0.3538 0.9898 -0.2753
C30 C 0.10342(10) 0.78127(9) -0.19376(6)
C31 C 0.18401(10) 0.72622(9) -0.14894(6)
H21 H 0.2621 0.7322 -0.1518
C32 C 0.14859(10) 0.66228(9) -0.09994(6)
C33 C 0.03109(11) 0.65217(9) -0.09630(6)
H22 H 0.0071 0.6093 -0.0639
C34 C -0.05003(11) 0.70620(10) -0.14108(6)
H23 H -0.1282 0.6991 -0.1388
C35 C -0.01433(10) 0.77091(10) -0.18928(6)
H24 H -0.0688 0.8075 -0.2187
C36 C 0.23997(10) 0.61086(8) -0.04927(6)
Co1B Co 0.496953(13) 0.380651(11) 0.002055(8)
Co1B_2 Co 0.496953(13) 1.380651(11) 0.002055(8)
Co2B Co 0.295400(13) 0.471770(11) 0.071480(8)
Co2A Co 0.295400(13) 1.028230(11) -0.428520(8)
O6B O 0.79281(8) 0.43019(7) -0.00239(4)
O7B O 0.54302(7) 0.49029(6) -0.06260(4)
N2B N 0.47462(9) 0.74485(7) 0.06192(5)
N3A N 0.77578(9) 0.46135(7) -0.15099(5)
loop_
_geom_bond_atom_site_label_1
_geom_bond_atom_site_label_2
_geom_bond_site_symmetry_1
_geom_bond_site_symmetry_2
Co1 O1 1_555 1_555
Co2 O2 1_555 1_555
O1 C12 1_555 1_555
O2 C12 1_555 1_555
O3 Co2 1_555 1_555
O4 Co1 1_555 1_555
O5 Co1 1_555 1_555
O6 C36 1_555 1_555
O7 Co1 1_555 1_555
N1 C1 1_555 1_555
N2 C13 1_555 1_555
N3 C25 1_555 1_555
C1 H1 1_555 1_555
C2 C1 1_555 1_555
H2 C2 1_555 1_555
C3 C2 1_555 1_555
C4 C3 1_555 1_555
H3 C4 1_555 1_555
C5 N1 1_555 1_555
H4 C5 1_555 1_555
C6 C3 1_555 1_555
C7 C6 1_555 1_555
H5 C7 1_555 1_555
C8 C7 1_555 1_555
C9 C8 1_555 1_555
H6 C9 1_555 1_555
C10 C9 1_555 1_555
H7 C10 1_555 1_555
C11 C6 1_555 1_555
H8 C11 1_555 1_555
C12 C8 1_555 1_555
C13 H9 1_555 1_555
C14 C13 1_555 1_555
H10 C14 1_555 1_555
C15 C14 1_555 1_555
C16 C15 1_555 1_555
H11 C16 1_555 1_555
C17 N2 1_555 1_555
H12 C17 1_555 1_555
C18 C15 1_555 1_555
C19 C18 1_555 1_555
H13 C19 1_555 1_555
C20 C19 1_555 1_555
C21 C20 1_555 1_555
H14 C21 1_555 1_555
C22 C21 1_555 1_555
H15 C22 1_555 1_555
C23 C18 1_555 1_555
H16 C23 1_555 1_555
C24 O3 1_555 1_555
C25 H17 1_555 1_555
C26 C25 1_555 1_555
H18 C26 1_555 1_555
C27 C26 1_555 1_555
C28 C27 1_555 1_555
H19 C28 1_555 1_555
C29 N3 1_555 1_555
H20 C29 1_555 1_555
C30 C27 1_555 1_555
C31 C30 1_555 1_555
H21 C31 1_555 1_555
C32 C31 1_555 1_555
C33 C32 1_555 1_555
H22 C33 1_555 1_555
C34 C33 1_555 1_555
H23 C34 1_555 1_555
C35 C30 1_555 1_555
H24 C35 1_555 1_555
C36 O5 1_555 1_555
Co1B O7 1_555 1_555
Co1B_2 N2 1_555 1_555
Co2B O6 1_555 1_555
Co2A N3 1_555 1_555
O6B Co2 1_555 1_555
O7B Co1 1_555 1_555
N2B Co1 1_555 1_555
N3A Co2 1_555 1_555
Co2 O7B 1_555 1_555
O4 C24 1_555 1_555
O7 Co2B 1_555 1_555
C4 C5 1_555 1_555
C10 C11 1_555 1_555
C16 C17 1_555 1_555
C20 C24 1_555 1_555
C22 C23 1_555 1_555
C28 C29 1_555 1_555
C32 C36 1_555 1_555
C34 C35 1_555 1_555
Co1B O7B 1_555 1_555

#END
