
#######################################################################
#
#                 Cambridge Crystallographic Data Centre
#                                CCDC 
#
#######################################################################
#
# If this CIF has been generated from an entry in the Cambridge 
# Structural Database, then it will include bibliographic, chemical, 
# crystal, experimental, refinement or atomic coordinate data resulting 
# from the CCDC's data processing and validation procedures.
#
#######################################################################

data_KIRWUE
_symmetry_cell_setting           monoclinic
_symmetry_space_group_name_H-M   'P 21'
_symmetry_Int_Tables_number      4
_space_group_name_Hall           'P 2yb'
loop_
_symmetry_equiv_pos_site_id
_symmetry_equiv_pos_as_xyz
1 x,y,z
2 -x,1/2+y,-z
_cell_length_a                   7.0267(3)
_cell_length_b                   9.6235(7)
_cell_length_c                   13.8161(9)
_cell_angle_alpha                90
_cell_angle_beta                 91.824(4)
_cell_angle_gamma                90
_cell_volume                     933.791
loop_
_atom_site_label
_atom_site_type_symbol
_atom_site_fract_x
_atom_site_fract_y
_atom_site_fract_z
Ag1 Ag 0.80466(6) 0.78597(6) 0.44864(3)
N1 N 0.7290(7) 0.8232(7) 0.5954(4)
H1 H 0.6304 0.8861 0.5945
H2 H 0.6832 0.7414 0.6200
N2 N 1.1135(9) 1.2306(6) 0.6941(4)
H3 H 1.2071 1.2606 0.7373
H4 H 1.0040 1.2783 0.7076
O1 O 1.1910(6) 0.8213(5) 0.8149(3)
Si1 Si 1.2974(2) 0.69567(19) 0.87698(13)
C1 C 0.8794(9) 0.8755(7) 0.6636(5)
H5 H 0.8354 0.8646 0.7313
C2 C 0.9184(9) 1.0281(7) 0.6447(5)
H6 H 0.8016 1.0829 0.6554
H7 H 0.9536 1.0407 0.5765
C3 C 1.0798(9) 1.0813(7) 0.7118(4)
H8 H 1.0411 1.0695 0.7804
C4 C 1.2596(8) 0.9980(7) 0.6975(4)
H9 H 1.3608 1.0309 0.7434
H10 H 1.3037 1.0130 0.6309
C5 C 1.2256(9) 0.8429(7) 0.7135(4)
H11 H 1.3424 0.7904 0.6960
C6 C 1.0582(7) 0.7907(11) 0.6520(4)
H12 H 1.0928 0.7921 0.5831
H13 H 1.0319 0.6930 0.6698
C7 C 1.5599(8) 0.7096(8) 0.8625(5)
H14 H 1.5972 0.8078 0.8633
H15 H 1.5939 0.6678 0.8007
H16 H 1.6263 0.6607 0.9158
C8 C 1.2117(9) 0.5245(7) 0.8311(5)
H17 H 1.0725 0.5212 0.8327
H18 H 1.2660 0.4503 0.8719
H19 H 1.2516 0.5117 0.7643
C9 C 1.2326(9) 0.7286(7) 1.0067(5)
C10 C 1.3076(11) 0.8708(9) 1.0388(5)
H20 H 1.2524 0.9428 0.9963
H21 H 1.4466 0.8724 1.0350
H22 H 1.2719 0.8886 1.1056
C11 C 1.0141(10) 0.7286(8) 1.0139(5)
H23 H 0.9592 0.7993 0.9702
H24 H 0.9802 0.7496 1.0806
H25 H 0.9640 0.6370 0.9955
C12 C 1.3162(11) 0.6156(9) 1.0745(5)
H26 H 1.4552 0.6152 1.0709
H27 H 1.2660 0.5246 1.0545
H28 H 1.2804 0.6349 1.1411
Ag1A Ag 1.19534(6) 1.28597(6) 0.55136(3)
N2A N 0.8865(9) 0.7306(6) 0.3059(4)
H3A H 0.7929 0.7606 0.2627
H4A H 0.9960 0.7783 0.2924
Cl1 Cl 0.3537(2) 0.9217(2) 0.37771(13)
O2 O 0.4871(8) 1.0326(7) 0.3802(5)
O3 O 0.3640(9) 0.8433(8) 0.4629(4)
O4 O 0.3938(18) 0.8291(10) 0.3040(5)
O5 O 0.1766(12) 0.9717(10) 0.3630(12)
loop_
_geom_bond_atom_site_label_1
_geom_bond_atom_site_label_2
_geom_bond_site_symmetry_1
_geom_bond_site_symmetry_2
Ag1 N1 1_555 1_555
N1 H1 1_555 1_555
H2 N1 1_555 1_555
N2 H3 1_555 1_555
H4 N2 1_555 1_555
O1 Si1 1_555 1_555
Si1 C7 1_555 1_555
C1 N1 1_555 1_555
H5 C1 1_555 1_555
C2 C1 1_555 1_555
H6 C2 1_555 1_555
H7 C2 1_555 1_555
C3 N2 1_555 1_555
H8 C3 1_555 1_555
C4 C3 1_555 1_555
H9 C4 1_555 1_555
H10 C4 1_555 1_555
C5 O1 1_555 1_555
H11 C5 1_555 1_555
C6 C1 1_555 1_555
H12 C6 1_555 1_555
H13 C6 1_555 1_555
C7 H14 1_555 1_555
H15 C7 1_555 1_555
H16 C7 1_555 1_555
C8 Si1 1_555 1_555
H17 C8 1_555 1_555
H18 C8 1_555 1_555
H19 C8 1_555 1_555
C9 Si1 1_555 1_555
C10 C9 1_555 1_555
H20 C10 1_555 1_555
H21 C10 1_555 1_555
H22 C10 1_555 1_555
C11 C9 1_555 1_555
H23 C11 1_555 1_555
H24 C11 1_555 1_555
H25 C11 1_555 1_555
C12 C9 1_555 1_555
H26 C12 1_555 1_555
H27 C12 1_555 1_555
H28 C12 1_555 1_555
Cl1 O2 1_555 1_555
O3 Cl1 1_555 1_555
O4 Cl1 1_555 1_555
O5 Cl1 1_555 1_555
Ag1A N2 1_555 1_555
N2A Ag1 1_555 1_555
H3A N2A 1_555 1_555
H4A N2A 1_555 1_555
C2 C3 1_555 1_555
C4 C5 1_555 1_555
C5 C6 1_555 1_555

#END
