
#######################################################################
#
#                 Cambridge Crystallographic Data Centre
#                                CCDC 
#
#######################################################################
#
# If this CIF has been generated from an entry in the Cambridge 
# Structural Database, then it will include bibliographic, chemical, 
# crystal, experimental, refinement or atomic coordinate data resulting 
# from the CCDC's data processing and validation procedures.
#
#######################################################################

data_KISFAU
_symmetry_cell_setting           monoclinic
_symmetry_space_group_name_H-M   'P 21/n'
_symmetry_Int_Tables_number      14
_space_group_name_Hall           '-P 2yn'
loop_
_symmetry_equiv_pos_site_id
_symmetry_equiv_pos_as_xyz
1 x,y,z
2 1/2-x,1/2+y,1/2-z
3 -x,-y,-z
4 1/2+x,1/2-y,1/2+z
_cell_length_a                   10.567(2)
_cell_length_b                   17.521(3)
_cell_length_c                   12.336(2)
_cell_angle_alpha                90
_cell_angle_beta                 110.333(15)
_cell_angle_gamma                90
_cell_volume                     2141.63
loop_
_atom_site_label
_atom_site_type_symbol
_atom_site_fract_x
_atom_site_fract_y
_atom_site_fract_z
Au1 Au 0.34439(8) 0.40711(5) 0.68695(7)
Au2 Au 0.86641(8) 0.68912(5) 0.56936(7)
Mn1 Mn 0.8428(3) 0.40133(15) 0.6824(2)
N1 N 0.6299(17) 0.4078(9) 0.6621(13)
N2 N 0.0623(17) 0.4086(9) 0.7143(14)
N3 N 0.8407(15) 0.5235(9) 0.6458(12)
N4 N 0.9052(18) 0.8575(10) 0.5134(15)
N5 N 0.8880(15) 0.3667(9) 0.8699(13)
N6 N 0.8585(15) 0.2744(8) 0.6946(13)
N7 N 0.8027(14) 0.3537(8) 0.5045(12)
C1 C 0.523(2) 0.4072(11) 0.6699(16)
C2 C 0.166(2) 0.4096(11) 0.7005(16)
C3 C 0.8476(19) 0.5830(11) 0.6144(16)
C4 C 0.890(2) 0.7936(12) 0.5339(17)
C5 C 0.895(2) 0.4167(13) 0.9531(19)
C6 C 0.941(2) 0.3957(14) 1.072(2)
C7 C 0.980(2) 0.3236(15) 1.095(2)
C8 C 0.965(2) 0.2686(14) 1.014(2)
C9 C 0.9177(19) 0.2938(11) 0.8950(16)
C10 C 0.8973(18) 0.2430(11) 0.8007(17)
C11 C 0.906(2) 0.1611(11) 0.8050(19)
C12 C 0.882(2) 0.1217(14) 0.708(2)
C13 C 0.845(2) 0.1553(12) 0.6056(19)
C14 C 0.8351(18) 0.2351(10) 0.5999(15)
C15 C 0.8018(17) 0.2781(10) 0.4922(14)
C16 C 0.7709(18) 0.2452(11) 0.3822(17)
C17 C 0.741(2) 0.2915(11) 0.2884(17)
C18 C 0.7427(19) 0.3684(11) 0.2985(17)
C19 C 0.7789(19) 0.3972(11) 0.4108(16)
H3 H 0.8714 0.4673 0.9333
H4 H 0.9431 0.4301 1.1305
H5 H 1.0201 0.3098 1.1725
H6 H 0.9822 0.2176 1.0328
H7 H 0.9301 0.1366 0.8760
H8 H 0.8900 0.0688 0.7130
H9 H 0.8273 0.1267 0.5384
H10 H 0.7670 0.1923 0.3748
H11 H 0.7244 0.2696 0.2159
H12 H 0.7190 0.3998 0.2338
H13 H 0.7862 0.4499 0.4204
Mn1_2 Mn -0.1572(3) 0.40133(15) 0.6824(2)
N2_2 N 1.0623(17) 0.4086(9) 0.7143(14)
O1 O 0.395(3) 0.488(2) 0.956(3)
H1 H 0.4193 0.5355 0.9817
H2 H 0.4685 0.4579 0.9748
loop_
_geom_bond_atom_site_label_1
_geom_bond_atom_site_label_2
_geom_bond_site_symmetry_1
_geom_bond_site_symmetry_2
Au1 C1 1_555 1_555
Au2 C3 1_555 1_555
Mn1 N1 1_555 1_555
O1 H1 1_555 1_555
N1 C1 1_555 1_555
N2 C2 1_555 1_555
N3 Mn1 1_555 1_555
N4 C4 1_555 1_555
N5 Mn1 1_555 1_555
N6 Mn1 1_555 1_555
N7 Mn1 1_555 1_555
C2 Au1 1_555 1_555
C3 N3 1_555 1_555
C4 Au2 1_555 1_555
C5 N5 1_555 1_555
C6 C5 1_555 1_555
C7 C6 1_555 1_555
C8 C7 1_555 1_555
C9 N5 1_555 1_555
C10 N6 1_555 1_555
C11 C10 1_555 1_555
C12 C11 1_555 1_555
C13 C12 1_555 1_555
C14 N6 1_555 1_555
C15 N7 1_555 1_555
C16 C15 1_555 1_555
C17 C16 1_555 1_555
C18 C17 1_555 1_555
C19 N7 1_555 1_555
H2 O1 1_555 1_555
H3 C5 1_555 1_555
H4 C6 1_555 1_555
H5 C7 1_555 1_555
H6 C8 1_555 1_555
H7 C11 1_555 1_555
H8 C12 1_555 1_555
H9 C13 1_555 1_555
H10 C16 1_555 1_555
H11 C17 1_555 1_555
H12 C18 1_555 1_555
H13 C19 1_555 1_555
Mn1_2 N2 1_555 1_555
N2_2 Mn1 1_555 1_555
C8 C9 1_555 1_555
C9 C10 1_555 1_555
C13 C14 1_555 1_555
C14 C15 1_555 1_555
C18 C19 1_555 1_555

#END
