
#######################################################################
#
#                 Cambridge Crystallographic Data Centre
#                                CCDC 
#
#######################################################################
#
# If this CIF has been generated from an entry in the Cambridge 
# Structural Database, then it will include bibliographic, chemical, 
# crystal, experimental, refinement or atomic coordinate data resulting 
# from the CCDC's data processing and validation procedures.
#
#######################################################################

data_KISSEL
_symmetry_cell_setting           orthorhombic
_symmetry_space_group_name_H-M   'P b c a'
_symmetry_Int_Tables_number      61
_space_group_name_Hall           '-P 2ac 2ab'
loop_
_symmetry_equiv_pos_site_id
_symmetry_equiv_pos_as_xyz
1 x,y,z
2 1/2-x,-y,1/2+z
3 -x,1/2+y,1/2-z
4 1/2+x,1/2-y,-z
5 -x,-y,-z
6 1/2+x,y,1/2-z
7 x,1/2-y,1/2+z
8 1/2-x,1/2+y,z
_cell_length_a                   8.754(1)
_cell_length_b                   11.262(1)
_cell_length_c                   33.874(3)
_cell_angle_alpha                90
_cell_angle_beta                 90
_cell_angle_gamma                90
_cell_volume                     3339.55
loop_
_atom_site_label
_atom_site_type_symbol
_atom_site_fract_x
_atom_site_fract_y
_atom_site_fract_z
Cd1 Cd 0.41807(2) 0.521685(18) 0.149521(6)
S1 S -0.03543(9) 0.59036(7) 0.06393(2)
S2 S 0.66898(9) 0.39826(8) 0.02334(2)
S3 S 0.32370(9) 0.66325(6) 0.21378(2)
N1 N 0.6580(2) 0.50095(18) 0.18090(6)
N2 N 0.5779(2) 0.6813(2) 0.13041(6)
N3 N 0.4487(3) 0.8126(2) 0.03518(7)
H1 H 0.5030 0.8803 0.0369
H2 H 0.4599 0.7843 0.0105
N4 N 0.2181(3) 0.5840(3) 0.11341(7)
N5 N 0.5272(3) 0.4195(3) 0.09678(8)
N6 N 0.1808(3) 0.8536(2) 0.17651(8)
C1 C 0.7021(3) 0.4120(2) 0.20407(8)
H3 H 0.6295 0.3568 0.2122
C2 C 0.8506(3) 0.3980(3) 0.21656(9)
H4 H 0.8776 0.3341 0.2325
C3 C 0.9579(4) 0.4794(3) 0.20517(10)
H5 H 1.0589 0.4719 0.2133
C4 C 0.9139(3) 0.5722(3) 0.18154(9)
H6 H 0.9847 0.6290 0.1737
C5 C 0.7640(3) 0.5805(2) 0.16954(7)
C6 C 0.7135(3) 0.6765(2) 0.14308(7)
H7 H 0.7829 0.7348 0.1355
C7 C 0.5350(4) 0.7777(2) 0.10400(8)
H8 H 0.6143 0.8378 0.1035
H9 H 0.4408 0.8143 0.1129
C8 C 0.5140(3) 0.7251(2) 0.06328(8)
H10 H 0.6120 0.6979 0.0534
H11 H 0.4467 0.6569 0.0650
C9 C 0.2851(3) 0.8410(3) 0.04161(10)
H12 H 0.2251 0.7702 0.0387
H13 H 0.2527 0.8990 0.0226
H14 H 0.2716 0.8722 0.0678
C10 C 0.1142(3) 0.5881(2) 0.09284(8)
C11 C 0.5861(3) 0.4102(3) 0.06645(9)
C12 C 0.2403(3) 0.7745(2) 0.19089(8)
Cd1G Cd 0.08193(2) 1.021685(18) 0.149521(6)
N6G N 0.3192(3) 0.3536(2) 0.17651(8)
loop_
_geom_bond_atom_site_label_1
_geom_bond_atom_site_label_2
_geom_bond_site_symmetry_1
_geom_bond_site_symmetry_2
Cd1 S3 1_555 1_555
S1 C10 1_555 1_555
S2 C11 1_555 1_555
S3 C12 1_555 1_555
N1 Cd1 1_555 1_555
N2 Cd1 1_555 1_555
N3 H1 1_555 1_555
H2 N3 1_555 1_555
N4 Cd1 1_555 1_555
N5 Cd1 1_555 1_555
N6 C12 1_555 1_555
C1 N1 1_555 1_555
H3 C1 1_555 1_555
C2 C1 1_555 1_555
H4 C2 1_555 1_555
C3 C2 1_555 1_555
H5 C3 1_555 1_555
C4 C3 1_555 1_555
H6 C4 1_555 1_555
C5 N1 1_555 1_555
C6 N2 1_555 1_555
H7 C6 1_555 1_555
C7 N2 1_555 1_555
H8 C7 1_555 1_555
H9 C7 1_555 1_555
C8 N3 1_555 1_555
H10 C8 1_555 1_555
H11 C8 1_555 1_555
C9 N3 1_555 1_555
H12 C9 1_555 1_555
H13 C9 1_555 1_555
H14 C9 1_555 1_555
C10 N4 1_555 1_555
C11 N5 1_555 1_555
Cd1G N6 1_555 1_555
N6G Cd1 1_555 1_555
C4 C5 1_555 1_555
C5 C6 1_555 1_555
C7 C8 1_555 1_555

#END
