
#######################################################################
#
#                 Cambridge Crystallographic Data Centre
#                                CCDC 
#
#######################################################################
#
# If this CIF has been generated from an entry in the Cambridge 
# Structural Database, then it will include bibliographic, chemical, 
# crystal, experimental, refinement or atomic coordinate data resulting 
# from the CCDC's data processing and validation procedures.
#
#######################################################################

data_KISWIS
_symmetry_cell_setting           monoclinic
_symmetry_space_group_name_H-M   'P 21'
_symmetry_Int_Tables_number      4
_space_group_name_Hall           'P 2yb'
loop_
_symmetry_equiv_pos_site_id
_symmetry_equiv_pos_as_xyz
1 x,y,z
2 -x,1/2+y,-z
_cell_length_a                   7.456(1)
_cell_length_b                   5.035(1)
_cell_length_c                   8.345(1)
_cell_angle_alpha                90
_cell_angle_beta                 115.47(1)
_cell_angle_gamma                90
_cell_volume                     282.832
loop_
_atom_site_label
_atom_site_type_symbol
_atom_site_fract_x
_atom_site_fract_y
_atom_site_fract_z
O1 O 0.8852(2) 0.63590 0.0452(1)
O2 O 0.9009(2) 1.0023(4) 0.2011(2)
O3 O 0.7606(2) 0.9085(4) 0.6458(2)
N1 N 0.8308(2) 0.6759(4) 0.4452(2)
C1 C 0.8576(3) 0.7639(4) 0.1628(2)
C2 C 0.7515(3) 0.6160(5) 0.2569(2)
C3 C 0.5329(3) 0.7109(5) 0.1875(2)
C4 C 0.5321(3) 0.9033(5) 0.3285(2)
C5 C 0.7170(3) 0.8340(4) 0.4925(2)
Li1 Li 0.9711(5) 0.7862(6) -0.1243(4)
H1 H 0.941(3) 0.598(4) 0.526(2)
H2 H 0.756(2) 0.440(4) 0.239(2)
H3 H 0.485(3) 0.797(3) 0.063(2)
H4 H 0.454(3) 0.557(4) 0.176(2)
H5 H 0.418(3) 0.886(5) 0.351(2)
Li1A Li 1.0289(5) 0.2862(6) 0.1243(4)
Li1A_2 Li 1.0289(5) 1.2862(6) 0.1243(4)
Li1_2 Li 0.9711(5) 0.7862(6) 0.8757(4)
O1A O 1.1148(2) 1.13590 -0.0452(1)
O2A O 1.0991(2) 0.5023(4) -0.2011(2)
O3_2 O 0.7606(2) 0.9085(4) -0.3542(2)
loop_
_geom_bond_atom_site_label_1
_geom_bond_atom_site_label_2
_geom_bond_site_symmetry_1
_geom_bond_site_symmetry_2
O1 C1 1_555 1_555
O2 C1 1_555 1_555
O3 C5 1_555 1_555
N1 C2 1_555 1_555
C1 C2 1_555 1_555
C2 C3 1_555 1_555
C3 C4 1_555 1_555
C4 C5 1_555 1_555
C5 N1 1_555 1_555
Li1 O1 1_555 1_555
H1 N1 1_555 1_555
H2 C2 1_555 1_555
H3 C3 1_555 1_555
H4 C3 1_555 1_555
H5 C4 1_555 1_555
Li1A O1 1_555 1_555
Li1A_2 O2 1_555 1_555
Li1_2 O3 1_555 1_555
O1A Li1 1_555 1_555
O2A Li1 1_555 1_555
O3_2 Li1 1_555 1_555
Li1A_2 O1A 1_555 1_555

#END
