
#######################################################################
#
#                 Cambridge Crystallographic Data Centre
#                                CCDC 
#
#######################################################################
#
# If this CIF has been generated from an entry in the Cambridge 
# Structural Database, then it will include bibliographic, chemical, 
# crystal, experimental, refinement or atomic coordinate data resulting 
# from the CCDC's data processing and validation procedures.
#
#######################################################################

data_KITBAS
_symmetry_cell_setting           monoclinic
_symmetry_space_group_name_H-M   'P 21/c'
_symmetry_Int_Tables_number      14
_space_group_name_Hall           '-P 2ybc'
loop_
_symmetry_equiv_pos_site_id
_symmetry_equiv_pos_as_xyz
1 x,y,z
2 -x,1/2+y,1/2-z
3 -x,-y,-z
4 x,1/2-y,1/2+z
_cell_length_a                   9.5401(8)
_cell_length_b                   14.3545(12)
_cell_length_c                   14.9823(12)
_cell_angle_alpha                90
_cell_angle_beta                 106.3710(10)
_cell_angle_gamma                90
_cell_volume                     1968.54
loop_
_atom_site_label
_atom_site_type_symbol
_atom_site_fract_x
_atom_site_fract_y
_atom_site_fract_z
Cu1 Cu 0.21042(4) 0.15311(3) -0.15064(2)
C1 C 0.2812(4) 0.1560(3) 0.0498(2)
H1 H 0.1819 0.1693 0.0351
C2 C 0.3576(5) 0.1493(3) 0.1418(2)
H2 H 0.3103 0.1579 0.1876
C3 C 0.5033(4) 0.1301(2) 0.1658(2)
C4 C 0.5679(4) 0.1174(3) 0.0949(3)
H3 H 0.6669 0.1036 0.1087
C5 C 0.4841(4) 0.1253(3) 0.0029(3)
H4 H 0.5286 0.1170 -0.0444
C6 C 0.5825(5) 0.1229(3) 0.2667(3)
H5 H 0.5540 0.1763 0.2972
H6 H 0.5454 0.0681 0.2904
C7 C 0.8213(4) 0.1770(3) 0.4360(2)
H7 H 0.7383 0.2179 0.4304
H8 H 0.8859 0.2083 0.4061
C8 C 0.8995(4) 0.1708(3) 0.5360(2)
C9 C 0.9356(4) 0.2503(3) 0.5887(2)
H9 H 0.9050 0.3082 0.5627
C10 C 1.0173(4) 0.2436(3) 0.6805(2)
H10 H 1.0399 0.2979 0.7154
C11 C 1.0247(4) 0.0848(2) 0.6702(2)
H11 H 1.0539 0.0274 0.6981
C12 C 0.9424(4) 0.0862(3) 0.5792(2)
H12 H 0.9155 0.0308 0.5467
C13 C 0.3954(4) 0.1084(3) -0.2913(3)
H13 H 0.3071 0.1108 -0.3377
C14 C 0.5109(6) 0.1112(4) -0.4156(3)
H14 H 0.4118 0.1035 -0.4530
H15 H 0.5698 0.0616 -0.4286
H16 H 0.5478 0.1699 -0.4296
C15 C 0.6582(5) 0.1084(4) -0.2505(3)
H17 H 0.6472 0.1192 -0.1896
H18 H 0.7175 0.1567 -0.2654
H19 H 0.7042 0.0491 -0.2517
N1 N 0.3411(3) 0.14457(19) -0.01966(18)
N2 N 0.7157(4) 0.1185(3) 0.2928(2)
N3 N 0.7744(4) 0.1056(2) 0.3890(2)
N4 N 1.0653(3) 0.16233(19) 0.72114(18)
N5 N 0.5158(3) 0.1087(2) -0.3181(2)
N6 N 0.2330(4) 0.3456(2) -0.1237(2)
N7 N 0.0074(3) 0.0365(2) -0.1151(2)
O1 O -0.0311(3) 0.1157(2) -0.10126(19)
O2 O 0.1313(3) 0.02747(18) -0.13277(16)
O3 O -0.0660(4) -0.0318(2) -0.1143(3)
O4 O 0.2874(3) 0.28081(17) -0.16262(16)
O5 O 0.1405(4) 0.3260(2) -0.0858(3)
O6 O 0.2791(5) 0.4246(2) -0.1275(3)
O7 O 0.3897(3) 0.1054(2) -0.21101(18)
Cu1_2 Cu 1.21042(4) 0.15311(3) 0.84936(2)
N4_2 N 0.0653(3) 0.16233(19) -0.27886(18)
loop_
_geom_bond_atom_site_label_1
_geom_bond_atom_site_label_2
_geom_bond_site_symmetry_1
_geom_bond_site_symmetry_2
Cu1 N1 1_555 1_555
C1 H1 1_555 1_555
C2 C1 1_555 1_555
H2 C2 1_555 1_555
C3 C2 1_555 1_555
C4 C3 1_555 1_555
H3 C4 1_555 1_555
C5 C4 1_555 1_555
H4 C5 1_555 1_555
C6 C3 1_555 1_555
H5 C6 1_555 1_555
H6 C6 1_555 1_555
C7 H7 1_555 1_555
H8 C7 1_555 1_555
C8 C7 1_555 1_555
C9 C8 1_555 1_555
H9 C9 1_555 1_555
C10 C9 1_555 1_555
H10 C10 1_555 1_555
C11 H11 1_555 1_555
C12 C8 1_555 1_555
H12 C12 1_555 1_555
C13 H13 1_555 1_555
C14 H14 1_555 1_555
H15 C14 1_555 1_555
H16 C14 1_555 1_555
C15 H17 1_555 1_555
H18 C15 1_555 1_555
H19 C15 1_555 1_555
N1 C1 1_555 1_555
N2 C6 1_555 1_555
N3 C7 1_555 1_555
N4 C10 1_555 1_555
N5 C13 1_555 1_555
N6 O4 1_555 1_555
N7 O1 1_555 1_555
O1 Cu1 1_555 1_555
O2 Cu1 1_555 1_555
O3 N7 1_555 1_555
O4 Cu1 1_555 1_555
O5 N6 1_555 1_555
O6 N6 1_555 1_555
O7 Cu1 1_555 1_555
Cu1_2 N4 1_555 1_555
N4_2 Cu1 1_555 1_555
C5 N1 1_555 1_555
C11 C12 1_555 1_555
C11 N4 1_555 1_555
C13 O7 1_555 1_555
C14 N5 1_555 1_555
C15 N5 1_555 1_555
N2 N3 1_555 1_555
N7 O2 1_555 1_555

#END
