
#######################################################################
#
#                 Cambridge Crystallographic Data Centre
#                                CCDC 
#
#######################################################################
#
# If this CIF has been generated from an entry in the Cambridge 
# Structural Database, then it will include bibliographic, chemical, 
# crystal, experimental, refinement or atomic coordinate data resulting 
# from the CCDC's data processing and validation procedures.
#
#######################################################################

data_KITGUQ01
_symmetry_cell_setting           trigonal
_symmetry_space_group_name_H-M   'P -3 c 1'
_symmetry_Int_Tables_number      165
_space_group_name_Hall           '-P 3 2"c'
loop_
_symmetry_equiv_pos_site_id
_symmetry_equiv_pos_as_xyz
1 x,y,z
2 -y,x-y,z
3 -x+y,-x,z
4 x-y,-y,1/2-z
5 -x,-x+y,1/2-z
6 y,x,1/2-z
7 -x,-y,-z
8 y,-x+y,-z
9 x-y,x,-z
10 -x+y,y,1/2+z
11 x,x-y,1/2+z
12 -y,-x,1/2+z
_cell_length_a                   16.106(4)
_cell_length_b                   16.106(4)
_cell_length_c                   16.405(4)
_cell_angle_alpha                90
_cell_angle_beta                 90
_cell_angle_gamma                120
_cell_volume                     3685.38
loop_
_atom_site_label
_atom_site_type_symbol
_atom_site_fract_x
_atom_site_fract_y
_atom_site_fract_z
Nd1 Nd 0.6667 0.3333 0.33805(4)
O1 O 0.5907(4) 0.1915(2) 0.4146(2)
O2 O 0.5696(4) 0.2132(4) 0.2268(3)
O3 O 0.4875(3) 0.2611(3) 0.3013(2)
O4 O 0.4200(5) 0.1648(5) 0.2000(4)
N1 N 0.5727(4) 0.0389(4) 0.3416(2)
N2 N 0.4905(5) 0.2106(5) 0.2424(4)
C1 C 0.5029(5) 0.1362(5) 0.4435(4)
C2 C 0.4598(6) 0.1743(5) 0.4974(4)
C3 C 0.3694(6) 0.1162(6) 0.5258(4)
C4 C 0.3169(5) 0.0192(6) 0.5052(5)
C5 C 0.3570(5) -0.0174(5) 0.4570(4)
C6 C 0.4493(5) 0.0385(5) 0.4244(3)
C7 C 0.4885(6) -0.0053(5) 0.3751(3)
C8 C 0.6121(5) -0.0118(5) 0.2951(3)
H1 H 0.4944 0.2398 0.5132
H2 H 0.3412 0.1424 0.5605
H3 H 0.2536 -0.0200 0.5252
H4 H 0.3218 -0.0838 0.4443
H5 H 0.4502 -0.0722 0.3658
H6 H 0.6732 0.0052 0.3171
H7 H 0.5701 -0.0788 0.3012
Nd1C Nd 0.3334 -0.3333 0.16195(4)
Nd1E Nd 1.3333 0.6667 0.16195(4)
Nd1D Nd 0.3333 0.6666 0.16195(4)
O1C O 0.3992(4) -0.1915(2) 0.0854(2)
O1A O 0.8085(2) 0.3992(4) 0.4146(2)
O1E O 1.1915(2) 0.5907(4) 0.0854(2)
O1B O 0.6008(4) 0.4093(4) 0.4146(2)
O1D O 0.4093(4) 0.6008(4) 0.0854(2)
O1D_2 O 0.4093(4) -0.3992(4) 0.0854(2)
O1E_2 O 0.1915(2) -0.4093(4) 0.0854(2)
O2A O 0.7868(4) 0.3564(6) 0.2268(3)
O2B O 0.6436(6) 0.4304(4) 0.2268(3)
O2C O 0.3564(6) -0.2132(4) 0.2732(3)
O2D O 0.4304(4) -0.3564(6) 0.2732(3)
O2E O 0.2132(4) -0.4304(4) 0.2732(3)
O3A O 0.7389(3) 0.2264(4) 0.3013(2)
O3B O 0.7736(4) 0.5125(3) 0.3013(2)
O3C O 0.2264(4) -0.2611(3) 0.1987(2)
O3D O 0.5125(3) -0.2264(4) 0.1987(2)
O3E O 0.2611(3) -0.5125(3) 0.1987(2)
O4A O 0.8352(5) 0.2552(7) 0.2000(4)
O4B O 0.7448(7) 0.5800(5) 0.2000(4)
O4C O 0.2552(7) -0.1648(5) 0.3000(4)
O4D O 0.5800(5) -0.2552(7) 0.3000(4)
O4E O 0.1648(5) -0.5800(5) 0.3000(4)
N1C N 0.5338(6) -0.0389(4) 0.1584(2)
N1A N 0.9611(4) 0.5338(6) 0.3416(2)
N1E N 1.0389(4) 0.5727(4) 0.1584(2)
N1B N 0.4662(6) 0.4273(4) 0.3416(2)
N1D N 0.4273(4) 0.4662(6) 0.1584(2)
N2A N 0.7894(5) 0.2799(7) 0.2424(4)
N2B N 0.7201(7) 0.5095(5) 0.2424(4)
N2C N 0.2799(7) -0.2106(5) 0.2576(4)
N2D N 0.5095(5) -0.2799(7) 0.2576(4)
N2E N 0.2106(5) -0.5095(5) 0.2576(4)
C1C C 0.3667(7) -0.1362(5) 0.0565(4)
C1A C 0.8638(5) 0.3667(7) 0.4435(4)
C1E C 1.1362(5) 0.5029(5) 0.0565(4)
C1B C 0.6333(7) 0.4971(5) 0.4435(4)
C1D C 0.4971(5) 0.6333(7) 0.0565(4)
C2C C 0.2855(8) -0.1743(5) 0.0026(4)
C2A C 0.8257(5) 0.2855(8) 0.4974(4)
C2E C 1.1743(5) 0.4598(6) 0.0026(4)
C2B C 0.7145(8) 0.5402(6) 0.4974(4)
C2D C 0.5402(6) 0.7145(8) 0.0026(4)
C3C C 0.2532(8) -0.1162(6) -0.0258(4)
C3A C 0.8838(6) 0.2532(8) 0.5258(4)
C3E C 1.1162(6) 0.3694(6) -0.0258(4)
C3B C 0.7468(8) 0.6306(6) 0.5258(4)
C3D C 0.6306(6) 0.7468(8) -0.0258(4)
C4C C 0.2977(8) -0.0192(6) -0.0052(5)
C4A C 0.9808(6) 0.2977(8) 0.5052(5)
C4E C 1.0192(6) 0.3169(5) -0.0052(5)
C4B C 0.7023(8) 0.6831(5) 0.5052(5)
C4D C 0.6831(5) 0.7023(8) -0.0052(5)
C5C C 0.3744(7) 0.0174(5) 0.0430(4)
C5A C 1.0174(5) 0.3744(7) 0.4570(4)
C5E C 0.9826(5) 0.3570(5) 0.0430(4)
C5B C 0.6256(7) 0.6430(5) 0.4570(4)
C5D C 0.6430(5) 0.6256(7) 0.0430(4)
C6C C 0.4108(7) -0.0385(5) 0.0756(3)
C6A C 0.9615(5) 0.4108(7) 0.4244(3)
C6E C 1.0385(5) 0.4493(5) 0.0756(3)
C6B C 0.5892(7) 0.5507(5) 0.4244(3)
C6D C 0.5507(5) 0.5892(7) 0.0756(3)
C7C C 0.4938(8) 0.0053(5) 0.1249(3)
C7A C 1.0053(5) 0.4938(8) 0.3751(3)
C7E C 0.9947(5) 0.4885(6) 0.1249(3)
C7B C 0.5062(8) 0.5115(6) 0.3751(3)
C7D C 0.5115(6) 0.5062(8) 0.1249(3)
C8C C 0.6239(7) 0.0118(5) 0.2049(3)
C8A C 1.0118(5) 0.6239(7) 0.2951(3)
C8E C 0.9882(5) 0.6121(5) 0.2049(3)
C8B C 0.3761(7) 0.3879(5) 0.2951(3)
C8D C 0.3879(5) 0.3761(7) 0.2049(3)
H1C H 0.2546 -0.2398 -0.0132
H1A H 0.7602 0.2546 0.5132
H1E H 1.2398 0.4944 -0.0132
H1B H 0.7454 0.5056 0.5132
H1D H 0.5056 0.7454 -0.0132
H2C H 0.1988 -0.1424 -0.0605
H2A H 0.8576 0.1988 0.5605
H2E H 1.1424 0.3412 -0.0605
H2B H 0.8012 0.6588 0.5605
H2D H 0.6588 0.8012 -0.0605
H3C H 0.2736 0.0200 -0.0252
H3A H 1.0200 0.2736 0.5252
H3E H 0.9800 0.2536 -0.0252
H3B H 0.7264 0.7464 0.5252
H3D H 0.7464 0.7264 -0.0252
H4C H 0.4056 0.0838 0.0557
H4A H 1.0838 0.4056 0.4443
H4E H 0.9162 0.3218 0.0557
H4B H 0.5944 0.6782 0.4443
H4D H 0.6782 0.5944 0.0557
H5C H 0.5224 0.0722 0.1342
H5A H 1.0722 0.5224 0.3658
H5E H 0.9278 0.4502 0.1342
H5B H 0.4776 0.5498 0.3658
H5D H 0.5498 0.4776 0.1342
H6C H 0.6680 -0.0052 0.1829
H6A H 0.9948 0.6680 0.3171
H6E H 1.0052 0.6732 0.1829
H6B H 0.3320 0.3268 0.3171
H6D H 0.3268 0.3320 0.1829
H7C H 0.6489 0.0788 0.1988
H7A H 1.0788 0.6489 0.3012
H7E H 0.9212 0.5701 0.1988
H7B H 0.3511 0.4299 0.3012
H7D H 0.4299 0.3511 0.1988
loop_
_geom_bond_atom_site_label_1
_geom_bond_atom_site_label_2
_geom_bond_site_symmetry_1
_geom_bond_site_symmetry_2
Nd1 O1 1_555 1_555
O1 C1 1_555 1_555
O2 Nd1 1_555 1_555
O3 Nd1 1_555 1_555
O4 N2 1_555 1_555
N1 C7 1_555 1_555
N2 O2 1_555 1_555
C1 C2 1_555 1_555
C2 C3 1_555 1_555
C3 C4 1_555 1_555
C4 C5 1_555 1_555
C5 C6 1_555 1_555
C6 C1 1_555 1_555
C7 C6 1_555 1_555
C8 N1 1_555 1_555
H1 C2 1_555 1_555
H2 C3 1_555 1_555
H3 C4 1_555 1_555
H4 C5 1_555 1_555
H5 C7 1_555 1_555
H6 C8 1_555 1_555
H7 C8 1_555 1_555
Nd1C O1C 1_555 1_555
Nd1E O1E 1_555 1_555
Nd1D O1D 1_555 1_555
O1C C1C 1_555 1_555
O1A Nd1 1_555 1_555
O1E C1E 1_555 1_555
O1B Nd1 1_555 1_555
O1D C1D 1_555 1_555
O1D_2 Nd1C 1_555 1_555
O1E_2 Nd1C 1_555 1_555
O2A Nd1 1_555 1_555
O2B Nd1 1_555 1_555
O2C Nd1C 1_555 1_555
O2D Nd1C 1_555 1_555
O2E Nd1C 1_555 1_555
O3A Nd1 1_555 1_555
O3B Nd1 1_555 1_555
O3C Nd1C 1_555 1_555
O3D Nd1C 1_555 1_555
O3E Nd1C 1_555 1_555
O4A N2A 1_555 1_555
O4B N2B 1_555 1_555
O4C N2C 1_555 1_555
O4D N2D 1_555 1_555
O4E N2E 1_555 1_555
N1C C7C 1_555 1_555
N1A C7A 1_555 1_555
N1E C7E 1_555 1_555
N1B C7B 1_555 1_555
N1D C7D 1_555 1_555
N2A O2A 1_555 1_555
N2B O2B 1_555 1_555
N2C O2C 1_555 1_555
N2D O2D 1_555 1_555
N2E O2E 1_555 1_555
C1C C2C 1_555 1_555
C1A O1A 1_555 1_555
C1E C2E 1_555 1_555
C1B O1B 1_555 1_555
C1D C2D 1_555 1_555
C2C C3C 1_555 1_555
C2A C1A 1_555 1_555
C2E C3E 1_555 1_555
C2B C1B 1_555 1_555
C2D C3D 1_555 1_555
C3C C4C 1_555 1_555
C3A C2A 1_555 1_555
C3E C4E 1_555 1_555
C3B C2B 1_555 1_555
C3D C4D 1_555 1_555
C4C C5C 1_555 1_555
C4A C3A 1_555 1_555
C4E C5E 1_555 1_555
C4B C3B 1_555 1_555
C4D C5D 1_555 1_555
C5C C6C 1_555 1_555
C5A C4A 1_555 1_555
C5E C6E 1_555 1_555
C5B C4B 1_555 1_555
C5D C6D 1_555 1_555
C6C C1C 1_555 1_555
C6A C1A 1_555 1_555
C6E C1E 1_555 1_555
C6B C1B 1_555 1_555
C6D C1D 1_555 1_555
C7C C6C 1_555 1_555
C7A C6A 1_555 1_555
C7E C6E 1_555 1_555
C7B C6B 1_555 1_555
C7D C6D 1_555 1_555
C8C C8 1_555 1_555
C8A N1A 1_555 1_555
C8E N1E 1_555 1_555
C8B N1B 1_555 1_555
C8D N1D 1_555 1_555
H1C C2C 1_555 1_555
H1A C2A 1_555 1_555
H1E C2E 1_555 1_555
H1B C2B 1_555 1_555
H1D C2D 1_555 1_555
H2C C3C 1_555 1_555
H2A C3A 1_555 1_555
H2E C3E 1_555 1_555
H2B C3B 1_555 1_555
H2D C3D 1_555 1_555
H3C C4C 1_555 1_555
H3A C4A 1_555 1_555
H3E C4E 1_555 1_555
H3B C4B 1_555 1_555
H3D C4D 1_555 1_555
H4C C5C 1_555 1_555
H4A C5A 1_555 1_555
H4E C5E 1_555 1_555
H4B C5B 1_555 1_555
H4D C5D 1_555 1_555
H5C C7C 1_555 1_555
H5A C7A 1_555 1_555
H5E C7E 1_555 1_555
H5B C7B 1_555 1_555
H5D C7D 1_555 1_555
H6C C8C 1_555 1_555
H6A C8A 1_555 1_555
H6E C8E 1_555 1_555
H6B C8B 1_555 1_555
H6D C8D 1_555 1_555
H7C C8C 1_555 1_555
H7A C8A 1_555 1_555
H7E C8E 1_555 1_555
H7B C8B 1_555 1_555
H7D C8D 1_555 1_555
O3 N2 1_555 1_555
O3A N2A 1_555 1_555
O3B N2B 1_555 1_555
O3C N2C 1_555 1_555
O3D N2D 1_555 1_555
O3E N2E 1_555 1_555
N1C C8C 1_555 1_555
C5A C6A 1_555 1_555
C5B C6B 1_555 1_555
C8A C8E 1_555 1_555
C8B C8D 1_555 1_555

#END
