
#######################################################################
#
#                 Cambridge Crystallographic Data Centre
#                                CCDC 
#
#######################################################################
#
# If this CIF has been generated from an entry in the Cambridge 
# Structural Database, then it will include bibliographic, chemical, 
# crystal, experimental, refinement or atomic coordinate data resulting 
# from the CCDC's data processing and validation procedures.
#
#######################################################################

data_KITHEB
_symmetry_cell_setting           trigonal
_symmetry_space_group_name_H-M   'P -3 c 1'
_symmetry_Int_Tables_number      165
_space_group_name_Hall           '-P 3 2"c'
loop_
_symmetry_equiv_pos_site_id
_symmetry_equiv_pos_as_xyz
1 x,y,z
2 -y,x-y,z
3 -x+y,-x,z
4 y,x,1/2-z
5 x-y,-y,1/2-z
6 -x,-x+y,1/2-z
7 -x,-y,-z
8 y,-x+y,-z
9 x-y,x,-z
10 -y,-x,1/2+z
11 -x+y,y,1/2+z
12 x,x-y,1/2+z
_cell_length_a                   15.9869(6)
_cell_length_b                   15.9869(6)
_cell_length_c                   16.5270(13)
_cell_angle_alpha                90
_cell_angle_beta                 90
_cell_angle_gamma                120
_cell_volume                     3658.08
loop_
_atom_site_label
_atom_site_type_symbol
_atom_site_fract_x
_atom_site_fract_y
_atom_site_fract_z
C1 C -0.0131(3) 0.3754(3) 0.2948(2)
H1 H -0.0823 0.3480 0.3002
H2 H 0.0036 0.3298 0.3178
O1 O 0.1944(2) 0.60265(16) 0.41291(18)
Eu1 Eu 0.3333 0.6667 0.335868(19)
N1 N 0.0351(2) 0.4642(2) 0.34015(19)
C2 C 0.0401(2) 0.5896(2) 0.4230(2)
C3 C 0.1399(2) 0.6344(2) 0.4430(2)
C4 C 0.1759(3) 0.7126(3) 0.4959(3)
H3 H 0.2405 0.7423 0.5112
C5 C -0.0162(3) 0.6265(3) 0.4556(3)
H4 H -0.0815 0.5966 0.4428
C6 C 0.1193(3) 0.7474(3) 0.5264(3)
H5 H 0.1462 0.8001 0.5614
C7 C 0.0222(3) 0.7049(4) 0.5056(3)
H6 H -0.0157 0.7293 0.5253
C8 C -0.0063(3) 0.5064(3) 0.3738(2)
H7 H -0.0722 0.4800 0.3651
O2 O 0.2286(2) 0.4881(2) 0.3002(2)
O3 O 0.3563(2) 0.5687(2) 0.22705(18)
N2 N 0.2792(3) 0.4893(3) 0.2409(2)
O4 O 0.2542(3) 0.4186(3) 0.1991(2)
H8 H 0.090(3) 0.490(2) 0.349(2)
C1E C 0.0131(3) 0.3885(4) 0.2052(2)
C1A C 0.6246(3) 0.6115(4) 0.2948(2)
C1D C 0.6115(4) 0.6246(3) 0.2052(2)
C1B C 0.3885(4) 1.0131(3) 0.2948(2)
C1C C 0.3754(3) 0.9869(3) 0.2052(2)
H1E H 0.0823 0.4303 0.1998
H1A H 0.6520 0.5697 0.3002
H1D H 0.5697 0.6520 0.1998
H1B H 0.4303 1.0823 0.3002
H1C H 0.3480 0.9177 0.1998
H2E H -0.0036 0.3262 0.1822
H2A H 0.6702 0.6738 0.3178
H2D H 0.6738 0.6702 0.1822
H2B H 0.3262 0.9964 0.3178
H2C H 0.3298 1.0036 0.1822
O1E O -0.1944(2) 0.40825(26) 0.08709(18)
O1A O 0.39735(16) 0.59175(26) 0.41291(18)
O1D O 0.59175(26) 0.39735(16) 0.08709(18)
O1B O 0.40825(26) 0.8056(2) 0.41291(18)
O1C O 0.60265(16) 1.1944(2) 0.08709(18)
O1C_2 O -0.39735(16) 0.1944(2) 0.08709(18)
O1D_2 O -0.40825(26) 0.39735(16) 0.08709(18)
Eu1E Eu -0.3333 0.3334 0.164132(19)
Eu1C Eu 0.6667 0.3333 0.164132(19)
Eu1C_2 Eu 0.6667 1.3333 0.164132(19)
N1E N -0.0351(2) 0.4291(3) 0.15985(19)
N1A N 0.5358(2) 0.5709(3) 0.34015(19)
N1D N 0.5709(3) 0.5358(2) 0.15985(19)
N1B N 0.4291(3) 0.9649(2) 0.34015(19)
N1C N 0.4642(2) 1.0351(2) 0.15985(19)
C2E C -0.0401(2) 0.5495(3) 0.0770(2)
C2A C 0.4104(2) 0.4505(3) 0.4230(2)
C2D C 0.4505(3) 0.4104(2) 0.0770(2)
C2B C 0.5495(3) 0.9599(2) 0.4230(2)
C2C C 0.5896(2) 1.0401(2) 0.0770(2)
C3E C -0.1399(2) 0.4945(3) 0.0570(2)
C3A C 0.3656(2) 0.5055(3) 0.4430(2)
C3D C 0.5055(3) 0.3656(2) 0.0570(2)
C3B C 0.4945(3) 0.8601(2) 0.4430(2)
C3C C 0.6344(2) 1.1399(2) 0.0570(2)
C4E C -0.1759(3) 0.5367(4) 0.0041(3)
C4A C 0.2874(3) 0.4633(4) 0.4959(3)
C4D C 0.4633(4) 0.2874(3) 0.0041(3)
C4B C 0.5367(4) 0.8241(3) 0.4959(3)
C4C C 0.7126(3) 1.1759(3) 0.0041(3)
H3E H -0.2405 0.5018 -0.0112
H3A H 0.2577 0.4982 0.5112
H3D H 0.4982 0.2577 -0.0112
H3B H 0.5018 0.7595 0.5112
H3C H 0.7423 1.2405 -0.0112
C5E C 0.0162(3) 0.6427(4) 0.0444(3)
C5A C 0.3735(3) 0.3573(4) 0.4556(3)
C5D C 0.3573(4) 0.3735(3) 0.0444(3)
C5B C 0.6427(4) 1.0162(3) 0.4556(3)
C5C C 0.6265(3) 0.9838(3) 0.0444(3)
H4E H 0.0815 0.6781 0.0572
H4A H 0.4034 0.3219 0.4428
H4D H 0.3219 0.4034 0.0572
H4B H 0.6781 1.0815 0.4428
H4C H 0.5966 0.9185 0.0572
C6E C -0.1193(3) 0.6281(4) -0.0264(3)
C6A C 0.2526(3) 0.3719(4) 0.5264(3)
C6D C 0.3719(4) 0.2526(3) -0.0264(3)
C6B C 0.6281(4) 0.8807(3) 0.5264(3)
C6C C 0.7474(3) 1.1193(3) -0.0264(3)
H5E H -0.1462 0.6539 -0.0614
H5A H 0.1999 0.3461 0.5614
H5D H 0.3461 0.1999 -0.0614
H5B H 0.6539 0.8538 0.5614
H5C H 0.8001 1.1462 -0.0614
C7E C -0.0222(3) 0.6827(5) -0.0056(3)
C7A C 0.2951(4) 0.3173(5) 0.5056(3)
C7D C 0.3173(5) 0.2951(4) -0.0056(3)
C7B C 0.6827(5) 0.9778(3) 0.5056(3)
C7C C 0.7049(4) 1.0222(3) -0.0056(3)
H6E H 0.0157 0.7450 -0.0253
H6A H 0.2707 0.2550 0.5253
H6D H 0.2550 0.2707 -0.0253
H6B H 0.7450 1.0157 0.5253
H6C H 0.7293 0.9843 -0.0253
C8E C 0.0063(3) 0.5127(4) 0.1262(2)
C8A C 0.4936(3) 0.4873(4) 0.3738(2)
C8D C 0.4873(4) 0.4936(3) 0.1262(2)
C8B C 0.5127(4) 1.0063(3) 0.3738(2)
C8C C 0.5064(3) 0.9937(3) 0.1262(2)
H7E H 0.0722 0.5522 0.1349
H7A H 0.5200 0.4478 0.3651
H7D H 0.4478 0.5200 0.1349
H7B H 0.5522 1.0722 0.3651
H7C H 0.4800 0.9278 0.1349
O2A O 0.5119(2) 0.7405(3) 0.3002(2)
O2B O 0.2595(3) 0.7714(2) 0.3002(2)
O2E O -0.2286(2) 0.2595(3) 0.1998(2)
O2C O -0.5119(2) 0.2286(2) 0.1998(2)
O2D O -0.2595(3) 0.5119(2) 0.1998(2)
O3A O 0.4313(2) 0.7876(3) 0.22705(18)
O3B O 0.2124(3) 0.6437(2) 0.22705(18)
O3E O -0.3563(2) 0.2124(3) 0.27295(18)
O3C O -0.4313(2) 0.3563(2) 0.27295(18)
O3D O -0.2124(3) 0.4313(2) 0.27295(18)
N2A N 0.5107(3) 0.7899(4) 0.2409(2)
N2B N 0.2101(4) 0.7208(3) 0.2409(2)
N2E N -0.2792(3) 0.2101(4) 0.2591(2)
N2C N -0.5107(3) 0.2792(3) 0.2591(2)
N2D N -0.2101(4) 0.5107(3) 0.2591(2)
O4A O 0.5814(3) 0.8356(4) 0.1991(2)
O4B O 0.1644(4) 0.7458(3) 0.1991(2)
O4E O -0.2542(3) 0.1644(4) 0.3009(2)
O4C O -0.5814(3) 0.2542(3) 0.3009(2)
O4D O -0.1644(4) 0.5814(3) 0.3009(2)
H8E H -0.090(3) 0.400(4) 0.151(2)
H8A H 0.510(2) 0.600(4) 0.349(2)
H8D H 0.600(4) 0.510(2) 0.151(2)
H8B H 0.400(4) 0.910(3) 0.349(2)
H8C H 0.490(2) 1.090(3) 0.151(2)
loop_
_geom_bond_atom_site_label_1
_geom_bond_atom_site_label_2
_geom_bond_site_symmetry_1
_geom_bond_site_symmetry_2
C1 H1 1_555 1_555
H2 C1 1_555 1_555
O1 Eu1 1_555 1_555
Eu1 O2 1_555 1_555
N1 C1 1_555 1_555
C2 C3 1_555 1_555
C3 O1 1_555 1_555
C4 C3 1_555 1_555
H3 C4 1_555 1_555
C5 C2 1_555 1_555
H4 C5 1_555 1_555
C6 C4 1_555 1_555
H5 C6 1_555 1_555
C7 C5 1_555 1_555
H6 C7 1_555 1_555
C8 N1 1_555 1_555
H7 C8 1_555 1_555
O2 N2 1_555 1_555
O3 Eu1 1_555 1_555
N2 O3 1_555 1_555
O4 N2 1_555 1_555
H8 N1 1_555 1_555
C1E C1 1_555 1_555
C1A C1D 1_555 1_555
C1D H1D 1_555 1_555
C1B C1C 1_555 1_555
C1C H1C 1_555 1_555
H1E C1E 1_555 1_555
H1A C1A 1_555 1_555
H1B C1B 1_555 1_555
H2E C1E 1_555 1_555
H2A C1A 1_555 1_555
H2D C1D 1_555 1_555
H2B C1B 1_555 1_555
H2C C1C 1_555 1_555
O1E Eu1E 1_555 1_555
O1A Eu1 1_555 1_555
O1D Eu1C 1_555 1_555
O1B Eu1 1_555 1_555
O1C Eu1C_2 1_555 1_555
O1C_2 Eu1E 1_555 1_555
O1D_2 Eu1E 1_555 1_555
Eu1E O2E 1_555 1_555
N1E C1E 1_555 1_555
N1A C1A 1_555 1_555
N1D C1D 1_555 1_555
N1B C1B 1_555 1_555
N1C C1C 1_555 1_555
C2E C3E 1_555 1_555
C2A C3A 1_555 1_555
C2D C3D 1_555 1_555
C2B C3B 1_555 1_555
C2C C3C 1_555 1_555
C3E O1E 1_555 1_555
C3A O1A 1_555 1_555
C3D O1D 1_555 1_555
C3B O1B 1_555 1_555
C3C O1C 1_555 1_555
C4E C3E 1_555 1_555
C4A C3A 1_555 1_555
C4D C3D 1_555 1_555
C4B C3B 1_555 1_555
C4C C3C 1_555 1_555
H3E C4E 1_555 1_555
H3A C4A 1_555 1_555
H3D C4D 1_555 1_555
H3B C4B 1_555 1_555
H3C C4C 1_555 1_555
C5E C2E 1_555 1_555
C5A C2A 1_555 1_555
C5D C2D 1_555 1_555
C5B C2B 1_555 1_555
C5C C2C 1_555 1_555
H4E C5E 1_555 1_555
H4A C5A 1_555 1_555
H4D C5D 1_555 1_555
H4B C5B 1_555 1_555
H4C C5C 1_555 1_555
C6E C4E 1_555 1_555
C6A C4A 1_555 1_555
C6D C4D 1_555 1_555
C6B C4B 1_555 1_555
C6C C4C 1_555 1_555
H5E C6E 1_555 1_555
H5A C6A 1_555 1_555
H5D C6D 1_555 1_555
H5B C6B 1_555 1_555
H5C C6C 1_555 1_555
C7E C5E 1_555 1_555
C7A C5A 1_555 1_555
C7D C5D 1_555 1_555
C7B C5B 1_555 1_555
C7C C5C 1_555 1_555
H6E C7E 1_555 1_555
H6A C7A 1_555 1_555
H6D C7D 1_555 1_555
H6B C7B 1_555 1_555
H6C C7C 1_555 1_555
C8E N1E 1_555 1_555
C8A N1A 1_555 1_555
C8D N1D 1_555 1_555
C8B N1B 1_555 1_555
C8C N1C 1_555 1_555
H7E C8E 1_555 1_555
H7A C8A 1_555 1_555
H7D C8D 1_555 1_555
H7B C8B 1_555 1_555
H7C C8C 1_555 1_555
O2A Eu1 1_555 1_555
O2B Eu1 1_555 1_555
O2E N2E 1_555 1_555
O2C Eu1E 1_555 1_555
O2D Eu1E 1_555 1_555
O3A Eu1 1_555 1_555
O3B Eu1 1_555 1_555
O3E Eu1E 1_555 1_555
O3C Eu1E 1_555 1_555
O3D Eu1E 1_555 1_555
N2A O2A 1_555 1_555
N2B O2B 1_555 1_555
N2E O3E 1_555 1_555
N2C O2C 1_555 1_555
N2D O2D 1_555 1_555
O4A N2A 1_555 1_555
O4B N2B 1_555 1_555
O4E N2E 1_555 1_555
O4C N2C 1_555 1_555
O4D N2D 1_555 1_555
H8E N1E 1_555 1_555
H8A N1A 1_555 1_555
H8D N1D 1_555 1_555
H8B N1B 1_555 1_555
H8C N1C 1_555 1_555
C2 C8 1_555 1_555
C6 C7 1_555 1_555
C2E C8E 1_555 1_555
C2A C8A 1_555 1_555
C2D C8D 1_555 1_555
C2B C8B 1_555 1_555
C2C C8C 1_555 1_555
C6E C7E 1_555 1_555
C6A C7A 1_555 1_555
C6D C7D 1_555 1_555
C6B C7B 1_555 1_555
C6C C7C 1_555 1_555
O3A N2A 1_555 1_555
O3B N2B 1_555 1_555
O3C N2C 1_555 1_555
O3D N2D 1_555 1_555

#END
