
#######################################################################
#
#                 Cambridge Crystallographic Data Centre
#                                CCDC 
#
#######################################################################
#
# If this CIF has been generated from an entry in the Cambridge 
# Structural Database, then it will include bibliographic, chemical, 
# crystal, experimental, refinement or atomic coordinate data resulting 
# from the CCDC's data processing and validation procedures.
#
#######################################################################

data_KITHUR
_symmetry_cell_setting           trigonal
_symmetry_space_group_name_H-M   'P -3 c 1'
_symmetry_Int_Tables_number      165
_space_group_name_Hall           '-P 3 2"c'
loop_
_symmetry_equiv_pos_site_id
_symmetry_equiv_pos_as_xyz
1 x,y,z
2 -y,x-y,z
3 -x+y,-x,z
4 y,x,1/2-z
5 -x,-x+y,1/2-z
6 x-y,-y,1/2-z
7 -x,-y,-z
8 y,-x+y,-z
9 x-y,x,-z
10 -y,-x,1/2+z
11 x,x-y,1/2+z
12 -x+y,y,1/2+z
_cell_length_a                   16.084(2)
_cell_length_b                   16.084(2)
_cell_length_c                   16.348(3)
_cell_angle_alpha                90
_cell_angle_beta                 90
_cell_angle_gamma                120
_cell_volume                     3662.55
loop_
_atom_site_label
_atom_site_type_symbol
_atom_site_fract_x
_atom_site_fract_y
_atom_site_fract_z
C1 C 0.5029(3) 0.1369(3) 0.0536(3)
C2 C 0.4604(4) 0.1731(4) -0.0002(3)
H1 H 0.4956 0.2365 -0.0177
C3 C 0.3677(4) 0.1163(4) -0.0277(4)
H2 H 0.3407 0.1427 -0.0617
C4 C 0.3137(4) 0.0202(5) -0.0055(3)
H3 H 0.2513 -0.0175 -0.0246
C5 C 0.3536(4) -0.0176(4) 0.0447(3)
H4 H 0.3179 -0.0821 0.0589
C6 C 0.4468(3) 0.0376(3) 0.0755(3)
C7 C 0.4846(4) -0.0071(4) 0.1257(3)
H5 H 0.4455 -0.0724 0.1358
C8 C 0.6093(4) -0.0135(4) 0.2047(3)
H6 H 0.6710 0.0026 0.1812
H7 H 0.5674 -0.0824 0.1996
N1 N 0.5687(3) 0.0349(3) 0.1586(2)
N2 N 0.7886(4) 0.2764(4) 0.2571(3)
O1 O 0.5885(2) 0.1906(2) 0.0826(2)
O2 O 0.7891(3) 0.3535(3) 0.2716(3)
O3 O 0.7391(3) 0.2254(3) 0.1980(2)
O4 O 0.8332(4) 0.2499(4) 0.2985(3)
Pr1 Pr 0.6667 0.3333 0.16014(3)
H8 H 0.602(3) 0.0943(11) 0.149(3)
C1E C 0.3660(4) -0.1369(3) 0.4464(3)
C1A C 0.8631(3) 0.3660(4) 0.0536(3)
C1C C 1.1369(3) 0.5029(3) 0.4464(3)
C1B C 0.6340(4) 0.4971(3) 0.0536(3)
C1D C 0.4971(3) 0.6340(4) 0.4464(3)
C2E C 0.2873(6) -0.1731(4) 0.5002(3)
C2A C 0.8269(4) 0.2873(6) -0.0002(3)
C2C C 1.1731(4) 0.4604(4) 0.5002(3)
C2B C 0.7127(6) 0.5396(4) -0.0002(3)
C2D C 0.5396(4) 0.7127(6) 0.5002(3)
H1E H 0.2591 -0.2365 0.5177
H1A H 0.7635 0.2591 -0.0177
H1C H 1.2365 0.4956 0.5177
H1B H 0.7409 0.5044 -0.0177
H1D H 0.5044 0.7409 0.5177
C3E C 0.2514(6) -0.1163(4) 0.5277(4)
C3A C 0.8837(4) 0.2514(6) -0.0277(4)
C3C C 1.1163(4) 0.3677(4) 0.5277(4)
C3B C 0.7486(6) 0.6323(4) -0.0277(4)
C3D C 0.6323(4) 0.7486(6) 0.5277(4)
H2E H 0.1980 -0.1427 0.5617
H2A H 0.8573 0.1980 -0.0617
H2C H 1.1427 0.3407 0.5617
H2B H 0.8020 0.6593 -0.0617
H2D H 0.6593 0.8020 0.5617
C4E C 0.2935(6) -0.0202(5) 0.5055(3)
C4A C 0.9798(5) 0.2935(6) -0.0055(3)
C4C C 1.0202(5) 0.3137(4) 0.5055(3)
C4B C 0.7065(6) 0.6863(4) -0.0055(3)
C4D C 0.6863(4) 0.7065(6) 0.5055(3)
H3E H 0.2688 0.0175 0.5246
H3A H 1.0175 0.2688 -0.0246
H3C H 0.9825 0.2513 0.5246
H3B H 0.7312 0.7487 -0.0246
H3D H 0.7487 0.7312 0.5246
C5E C 0.3712(6) 0.0176(4) 0.4553(3)
C5A C 1.0176(4) 0.3712(6) 0.0447(3)
C5C C 0.9824(4) 0.3536(4) 0.4553(3)
C5B C 0.6288(6) 0.6464(4) 0.0447(3)
C5D C 0.6464(4) 0.6288(6) 0.4553(3)
H4E H 0.4000 0.0821 0.4411
H4A H 1.0821 0.4000 0.0589
H4C H 0.9179 0.3179 0.4411
H4B H 0.6000 0.6821 0.0589
H4D H 0.6821 0.6000 0.4411
C6E C 0.4092(4) -0.0376(3) 0.4245(3)
C6A C 0.9624(3) 0.4092(4) 0.0755(3)
C6C C 1.0376(3) 0.4468(3) 0.4245(3)
C6B C 0.5908(4) 0.5532(3) 0.0755(3)
C6D C 0.5532(3) 0.5908(4) 0.4245(3)
C7E C 0.4917(6) 0.0071(4) 0.3743(3)
C7A C 1.0071(4) 0.4917(6) 0.1257(3)
C7C C 0.9929(4) 0.4846(4) 0.3743(3)
C7B C 0.5083(6) 0.5154(4) 0.1257(3)
C7D C 0.5154(4) 0.5083(6) 0.3743(3)
H5E H 0.5179 0.0724 0.3642
H5A H 1.0724 0.5179 0.1358
H5C H 0.9276 0.4455 0.3642
H5B H 0.4821 0.5545 0.1358
H5D H 0.5545 0.4821 0.3642
C8E C 0.6228(6) 0.0135(4) 0.2953(3)
C8A C 1.0135(4) 0.6228(6) 0.2047(3)
C8C C 0.9865(4) 0.6093(4) 0.2953(3)
C8B C 0.3772(6) 0.3907(4) 0.2047(3)
C8D C 0.3907(4) 0.3772(6) 0.2953(3)
H6E H 0.6684 -0.0026 0.3188
H6A H 0.9974 0.6684 0.1812
H6C H 1.0026 0.6710 0.3188
H6B H 0.3316 0.3290 0.1812
H6D H 0.3290 0.3316 0.3188
H7E H 0.6498 0.0824 0.3004
H7A H 1.0824 0.6498 0.1996
H7C H 0.9176 0.5674 0.3004
H7B H 0.3502 0.4326 0.1996
H7D H 0.4326 0.3502 0.3004
N1E N 0.5338(4) -0.0349(3) 0.3414(2)
N1A N 0.9651(3) 0.5338(4) 0.1586(2)
N1C N 1.0349(3) 0.5687(3) 0.3414(2)
N1B N 0.4662(4) 0.4313(3) 0.1586(2)
N1D N 0.4313(3) 0.4662(4) 0.3414(2)
N2A N 0.7236(4) 0.5122(6) 0.2571(3)
N2B N 0.4878(6) 0.2114(4) 0.2571(3)
N2E N 0.5122(6) -0.2764(4) 0.2429(3)
N2D N 0.2114(4) -0.5122(6) 0.2429(3)
N2C N 0.2764(4) -0.2114(4) 0.2429(3)
O1E O 0.3979(3) -0.1906(2) 0.4174(2)
O1A O 0.8094(2) 0.3979(3) 0.0826(2)
O1C O 1.1906(2) 0.5885(2) 0.4174(2)
O1B O 0.6021(3) 0.4115(2) 0.0826(2)
O1D O 0.4115(2) 0.6021(3) 0.4174(2)
O1C_2 O 0.1906(2) -0.4115(2) 0.4174(2)
O1D_2 O 0.4115(2) -0.3979(3) 0.4174(2)
O2A O 0.6465(3) 0.4356(4) 0.2716(3)
O2B O 0.5644(4) 0.2109(3) 0.2716(3)
O2E O 0.4356(4) -0.3535(3) 0.2284(3)
O2D O 0.2109(3) -0.4356(4) 0.2284(3)
O2C O 0.3535(3) -0.2109(3) 0.2284(3)
O3A O 0.7746(3) 0.5137(4) 0.1980(2)
O3B O 0.4863(4) 0.2609(3) 0.1980(2)
O3E O 0.5137(4) -0.2254(3) 0.3020(2)
O3D O 0.2609(3) -0.5137(4) 0.3020(2)
O3C O 0.2254(3) -0.2609(3) 0.3020(2)
O4A O 0.7501(4) 0.5833(6) 0.2985(3)
O4B O 0.4167(6) 0.1668(4) 0.2985(3)
O4E O 0.5833(6) -0.2499(4) 0.2015(3)
O4D O 0.1668(4) -0.5833(6) 0.2015(3)
O4C O 0.2499(4) -0.1668(4) 0.2015(3)
Pr1E Pr 0.3334 -0.3333 0.33986(3)
Pr1C Pr 1.3333 0.6667 0.33986(3)
Pr1C_2 Pr 0.3333 0.6667 0.33986(3)
H8E H 0.5077(32) -0.0943(11) 0.351(3)
H8A H 0.9057(11) 0.5077(32) 0.149(3)
H8C H 1.0943(11) 0.602(3) 0.351(3)
H8B H 0.4923(32) 0.398(3) 0.149(3)
H8D H 0.398(3) 0.4923(32) 0.351(3)
loop_
_geom_bond_atom_site_label_1
_geom_bond_atom_site_label_2
_geom_bond_site_symmetry_1
_geom_bond_site_symmetry_2
C1 C2 1_555 1_555
C2 H1 1_555 1_555
C3 C2 1_555 1_555
H2 C3 1_555 1_555
C4 C3 1_555 1_555
H3 C4 1_555 1_555
C5 C4 1_555 1_555
H4 C5 1_555 1_555
C6 C1 1_555 1_555
C7 C6 1_555 1_555
H5 C7 1_555 1_555
C8 H6 1_555 1_555
H7 C8 1_555 1_555
N1 C7 1_555 1_555
N2 O2 1_555 1_555
O1 C1 1_555 1_555
O2 Pr1 1_555 1_555
O3 N2 1_555 1_555
O4 N2 1_555 1_555
Pr1 O1 1_555 1_555
H8 N1 1_555 1_555
C1E C2E 1_555 1_555
C1A C2A 1_555 1_555
C1C C2C 1_555 1_555
C1B C2B 1_555 1_555
C1D C2D 1_555 1_555
C2E H1E 1_555 1_555
C2A H1A 1_555 1_555
C2C H1C 1_555 1_555
C2B H1B 1_555 1_555
C2D H1D 1_555 1_555
C3E C2E 1_555 1_555
C3A C2A 1_555 1_555
C3C C2C 1_555 1_555
C3B C2B 1_555 1_555
C3D C2D 1_555 1_555
H2E C3E 1_555 1_555
H2A C3A 1_555 1_555
H2C C3C 1_555 1_555
H2B C3B 1_555 1_555
H2D C3D 1_555 1_555
C4E C3E 1_555 1_555
C4A C3A 1_555 1_555
C4C C3C 1_555 1_555
C4B C3B 1_555 1_555
C4D C3D 1_555 1_555
H3E C4E 1_555 1_555
H3A C4A 1_555 1_555
H3C C4C 1_555 1_555
H3B C4B 1_555 1_555
H3D C4D 1_555 1_555
C5E C4E 1_555 1_555
C5A C4A 1_555 1_555
C5C C4C 1_555 1_555
C5B C4B 1_555 1_555
C5D C4D 1_555 1_555
H4E C5E 1_555 1_555
H4A C5A 1_555 1_555
H4C C5C 1_555 1_555
H4B C5B 1_555 1_555
H4D C5D 1_555 1_555
C6E C1E 1_555 1_555
C6A C1A 1_555 1_555
C6C C1C 1_555 1_555
C6B C1B 1_555 1_555
C6D C1D 1_555 1_555
C7E C6E 1_555 1_555
C7A C6A 1_555 1_555
C7C C6C 1_555 1_555
C7B C6B 1_555 1_555
C7D C6D 1_555 1_555
H5E C7E 1_555 1_555
H5A C7A 1_555 1_555
H5C C7C 1_555 1_555
H5B C7B 1_555 1_555
H5D C7D 1_555 1_555
C8E C8 1_555 1_555
C8A C8C 1_555 1_555
C8C H6C 1_555 1_555
C8B C8D 1_555 1_555
C8D H6D 1_555 1_555
H6E C8E 1_555 1_555
H6A C8A 1_555 1_555
H6B C8B 1_555 1_555
H7E C8E 1_555 1_555
H7A C8A 1_555 1_555
H7C C8C 1_555 1_555
H7B C8B 1_555 1_555
H7D C8D 1_555 1_555
N1E C7E 1_555 1_555
N1A C7A 1_555 1_555
N1C C7C 1_555 1_555
N1B C7B 1_555 1_555
N1D C7D 1_555 1_555
N2A O2A 1_555 1_555
N2B O2B 1_555 1_555
N2E O2E 1_555 1_555
N2D O2D 1_555 1_555
N2C O2C 1_555 1_555
O1E C1E 1_555 1_555
O1A Pr1 1_555 1_555
O1C C1C 1_555 1_555
O1B Pr1 1_555 1_555
O1D C1D 1_555 1_555
O1C_2 Pr1E 1_555 1_555
O1D_2 Pr1E 1_555 1_555
O2A Pr1 1_555 1_555
O2B Pr1 1_555 1_555
O2E Pr1E 1_555 1_555
O2D Pr1E 1_555 1_555
O2C Pr1E 1_555 1_555
O3A Pr1 1_555 1_555
O3B Pr1 1_555 1_555
O3E N2E 1_555 1_555
O3D N2D 1_555 1_555
O3C N2C 1_555 1_555
O4A N2A 1_555 1_555
O4B N2B 1_555 1_555
O4E N2E 1_555 1_555
O4D N2D 1_555 1_555
O4C N2C 1_555 1_555
Pr1E O1E 1_555 1_555
Pr1C O1C 1_555 1_555
Pr1C_2 O1D 1_555 1_555
H8E N1E 1_555 1_555
H8A N1A 1_555 1_555
H8C N1C 1_555 1_555
H8B N1B 1_555 1_555
H8D N1D 1_555 1_555
C5 C6 1_555 1_555
C8 N1 1_555 1_555
O3 Pr1 1_555 1_555
C1A O1A 1_555 1_555
C1B O1B 1_555 1_555
C5E C6E 1_555 1_555
C5A C6A 1_555 1_555
C5C C6C 1_555 1_555
C5B C6B 1_555 1_555
C5D C6D 1_555 1_555
C8E N1E 1_555 1_555
C8A N1A 1_555 1_555
C8C N1C 1_555 1_555
C8B N1B 1_555 1_555
C8D N1D 1_555 1_555
N2A O3A 1_555 1_555
N2B O3B 1_555 1_555
O3E Pr1E 1_555 1_555
O3D Pr1E 1_555 1_555
O3C Pr1E 1_555 1_555

#END
