
#######################################################################
#
#                 Cambridge Crystallographic Data Centre
#                                CCDC 
#
#######################################################################
#
# If this CIF has been generated from an entry in the Cambridge 
# Structural Database, then it will include bibliographic, chemical, 
# crystal, experimental, refinement or atomic coordinate data resulting 
# from the CCDC's data processing and validation procedures.
#
#######################################################################

data_KITHOL
_symmetry_cell_setting           monoclinic
_symmetry_space_group_name_H-M   'P 21/n'
_symmetry_Int_Tables_number      14
_space_group_name_Hall           '-P 2yn'
loop_
_symmetry_equiv_pos_site_id
_symmetry_equiv_pos_as_xyz
1 x,y,z
2 1/2-x,1/2+y,1/2-z
3 -x,-y,-z
4 1/2+x,1/2-y,1/2+z
_cell_length_a                   11.3537(19)
_cell_length_b                   17.014(3)
_cell_length_c                   13.340(2)
_cell_angle_alpha                90
_cell_angle_beta                 96.264(2)
_cell_angle_gamma                90
_cell_volume                     2561.53
loop_
_atom_site_label
_atom_site_type_symbol
_atom_site_fract_x
_atom_site_fract_y
_atom_site_fract_z
Pr1 Pr 0.143945(12) 0.238268(8) 0.902638(10)
O1 O 0.26129(17) 0.35029(11) 0.94567(14)
O2 O 0.18583(16) 0.65537(12) 0.56479(15)
O3 O 0.2910(3) 0.26332(13) 0.76365(19)
O4 O 0.1688(3) 0.17356(18) 0.7210(2)
O5 O 0.3012(3) 0.2058(2) 0.6224(2)
O6 O -0.03544(19) 0.15975(12) 0.97108(16)
O7 O 0.07136(19) 0.09746(12) 0.8752(2)
O8 O -0.08535(19) 0.04178(13) 0.92178(19)
O9 O 0.06722(19) 0.34826(15) 0.77915(17)
O10 O -0.0557(2) 0.25266(14) 0.7743(2)
O11 O -0.0926(2) 0.35372(17) 0.6766(2)
O12 O 0.19516(18) 0.21103(14) 1.08701(14)
O13 O -0.0048(2) 0.31890(12) 0.99320(18)
N1 N 0.3325(2) 0.42637(14) 0.79061(17)
N2 N 0.1933(2) 0.50359(14) 0.60980(17)
N3 N 0.2573(3) 0.21341(16) 0.69947(19)
N4 N -0.01846(19) 0.09797(13) 0.92378(18)
N5 N -0.0287(2) 0.31824(17) 0.74218(19)
C1 C 0.2922(2) 0.41259(16) 1.0000(2)
C2 C 0.2899(3) 0.4135(2) 1.1052(2)
H1 H 0.2673 0.3685 1.1379
C3 C 0.3207(3) 0.4799(2) 1.1603(3)
H2 H 0.3189 0.4790 1.2298
C4 C 0.3545(3) 0.5488(2) 1.1148(3)
H3 H 0.3726 0.5937 1.1531
C5 C 0.3607(3) 0.54948(19) 1.0140(3)
H4 H 0.3847 0.5950 0.9833
C6 C 0.3312(2) 0.48210(16) 0.9550(2)
C7 C 0.3506(2) 0.48493(16) 0.8510(2)
H5 H 0.3778 0.5317 0.8257
C8 C 0.3608(3) 0.42454(18) 0.6865(2)
H6 H 0.4050 0.3770 0.6758
H7 H 0.4108 0.4691 0.6748
C9 C 0.2511(3) 0.42694(18) 0.6120(2)
H8 H 0.2724 0.4148 0.5452
H9 H 0.1960 0.3871 0.6298
C10 C 0.0847(3) 0.51413(18) 0.6291(2)
H10 H 0.0447 0.4711 0.6519
C11 C 0.0231(2) 0.58629(18) 0.6180(2)
C12 C 0.0746(2) 0.65473(17) 0.5809(2)
C13 C 0.0003(3) 0.7206(2) 0.5608(3)
H11 H 0.0299 0.7655 0.5325
C14 C -0.1149(3) 0.7193(2) 0.5825(3)
H12 H -0.1619 0.7636 0.5690
C15 C -0.1631(3) 0.6539(3) 0.6240(3)
H13 H -0.2405 0.6551 0.6406
C16 C -0.0966(3) 0.5882(2) 0.6403(3)
H14 H -0.1297 0.5436 0.6664
C17 C 0.1370(4) 0.2076(4) 1.1732(3)
H15 H 0.0610 0.2326 1.1604
H16 H 0.1833 0.2343 1.2274
H17 H 0.1264 0.1537 1.1914
C18 C -0.0229(4) 0.4014(2) 1.0011(4)
H18 H 0.0233 0.4285 0.9557
H19 H 0.0011 0.4182 1.0689
H20 H -0.1053 0.4132 0.9838
Pr1A Pr 0.356055(12) 0.738268(8) 0.597362(10)
O2A O 0.31417(16) 0.15537(12) 0.93521(15)
loop_
_geom_bond_atom_site_label_1
_geom_bond_atom_site_label_2
_geom_bond_site_symmetry_1
_geom_bond_site_symmetry_2
Pr1 O1 1_555 1_555
O1 C1 1_555 1_555
O2 C12 1_555 1_555
O3 Pr1 1_555 1_555
O4 Pr1 1_555 1_555
O5 N3 1_555 1_555
O6 Pr1 1_555 1_555
O7 Pr1 1_555 1_555
O8 N4 1_555 1_555
O9 Pr1 1_555 1_555
O10 Pr1 1_555 1_555
O11 N5 1_555 1_555
O12 Pr1 1_555 1_555
O13 Pr1 1_555 1_555
N1 C7 1_555 1_555
N2 C9 1_555 1_555
N3 O3 1_555 1_555
N4 O6 1_555 1_555
N5 O9 1_555 1_555
C1 C2 1_555 1_555
C2 H1 1_555 1_555
C3 C2 1_555 1_555
H2 C3 1_555 1_555
C4 C3 1_555 1_555
H3 C4 1_555 1_555
C5 C4 1_555 1_555
H4 C5 1_555 1_555
C6 C1 1_555 1_555
C7 C6 1_555 1_555
H5 C7 1_555 1_555
C8 N1 1_555 1_555
H6 C8 1_555 1_555
H7 C8 1_555 1_555
C9 C8 1_555 1_555
H8 C9 1_555 1_555
H9 C9 1_555 1_555
C10 N2 1_555 1_555
H10 C10 1_555 1_555
C11 C10 1_555 1_555
C12 C11 1_555 1_555
C13 C12 1_555 1_555
H11 C13 1_555 1_555
C14 C13 1_555 1_555
H12 C14 1_555 1_555
C15 C14 1_555 1_555
H13 C15 1_555 1_555
C16 C11 1_555 1_555
H14 C16 1_555 1_555
C17 O12 1_555 1_555
H15 C17 1_555 1_555
H16 C17 1_555 1_555
H17 C17 1_555 1_555
C18 O13 1_555 1_555
H18 C18 1_555 1_555
H19 C18 1_555 1_555
H20 C18 1_555 1_555
Pr1A O2 1_555 1_555
O2A Pr1 1_555 1_555
O4 N3 1_555 1_555
O7 N4 1_555 1_555
O10 N5 1_555 1_555
C5 C6 1_555 1_555
C15 C16 1_555 1_555

#END
