
#######################################################################
#
#                 Cambridge Crystallographic Data Centre
#                                CCDC 
#
#######################################################################
#
# If this CIF has been generated from an entry in the Cambridge 
# Structural Database, then it will include bibliographic, chemical, 
# crystal, experimental, refinement or atomic coordinate data resulting 
# from the CCDC's data processing and validation procedures.
#
#######################################################################

data_KITHAX
_symmetry_cell_setting           trigonal
_symmetry_space_group_name_H-M   'P -3 c 1'
_symmetry_Int_Tables_number      165
_space_group_name_Hall           '-P 3 2"c'
loop_
_symmetry_equiv_pos_site_id
_symmetry_equiv_pos_as_xyz
1 x,y,z
2 -y,x-y,z
3 -x+y,-x,z
4 y,x,1/2-z
5 x-y,-y,1/2-z
6 -x,-x+y,1/2-z
7 -x,-y,-z
8 y,-x+y,-z
9 x-y,x,-z
10 -y,-x,1/2+z
11 -x+y,y,1/2+z
12 x,x-y,1/2+z
_cell_length_a                   16.029(2)
_cell_length_b                   16.029(2)
_cell_length_c                   16.522(5)
_cell_angle_alpha                90
_cell_angle_beta                 90
_cell_angle_gamma                120
_cell_volume                     3676.26
loop_
_atom_site_label
_atom_site_type_symbol
_atom_site_fract_x
_atom_site_fract_y
_atom_site_fract_z
O1 O 0.7398(3) 0.5122(3) 0.3006(3)
N1 N 0.7899(4) 0.5114(4) 0.2407(4)
O2 O 0.7884(3) 0.4322(3) 0.2275(3)
O3 O 0.8352(4) 0.5814(4) 0.1991(3)
N2 N 0.5695(4) 0.5347(3) 0.3399(3)
Sm1 Sm 0.6667 0.3333 0.33654(3)
O4 O 0.5905(2) 0.3972(2) 0.4141(2)
C1 C 0.4501(4) 0.4100(4) 0.4230(3)
C2 C 0.4866(4) 0.4922(4) 0.3735(4)
H1 H 0.4468 0.5180 0.3644
C3 C 0.5052(4) 0.3656(4) 0.4428(3)
C4 C 0.4623(4) 0.2875(4) 0.4960(4)
H2 H 0.4971 0.2582 0.5120
C5 C 0.6104(4) 0.6234(4) 0.2947(3)
H3 H 0.6725 0.6687 0.3178
H4 H 0.5688 0.6510 0.3001
C6 C 0.3568(4) 0.3733(5) 0.4551(4)
H5 H 0.3214 0.4031 0.4422
C7 C 0.3174(5) 0.2945(5) 0.5049(4)
H6 H 0.2550 0.2697 0.5245
C8 C 0.3710(4) 0.2526(4) 0.5255(4)
H7 H 0.3449 0.1996 0.5600
H8 H 0.594(3) 0.512(4) 0.351(3)
O1A O 0.4878(3) 0.2276(4) 0.3006(3)
O1B O 0.7724(4) 0.2602(3) 0.3006(3)
O1C O 0.5122(3) 0.7398(3) 0.1994(3)
O1D O 0.2276(4) 0.4878(3) 0.1994(3)
O1E O 0.2602(3) 0.7724(4) 0.1994(3)
N1A N 0.4886(4) 0.2785(6) 0.2407(4)
N1B N 0.7215(6) 0.2101(4) 0.2407(4)
N1C N 0.5114(4) 0.7899(4) 0.2593(4)
N1D N 0.2785(6) 0.4886(4) 0.2593(4)
N1E N 0.2101(4) 0.7215(6) 0.2593(4)
O2A O 0.5678(3) 0.3562(4) 0.2275(3)
O2B O 0.6438(4) 0.2116(3) 0.2275(3)
O2C O 0.4322(3) 0.7884(3) 0.2725(3)
O2D O 0.3562(4) 0.5678(3) 0.2725(3)
O2E O 0.2116(3) 0.6438(4) 0.2725(3)
O3A O 0.4186(4) 0.2538(6) 0.1991(3)
O3B O 0.7462(6) 0.1648(4) 0.1991(3)
O3C O 0.5814(4) 0.8352(4) 0.3009(3)
O3D O 0.2538(6) 0.4186(4) 0.3009(3)
O3E O 0.1648(4) 0.7462(6) 0.3009(3)
N2C N 0.5347(3) 0.5695(4) 0.1601(3)
N2A N 0.4653(3) 0.0348(5) 0.3399(3)
N2E N 0.4305(4) -0.0348(5) 0.1601(3)
N2B N 0.9652(5) 0.4305(4) 0.3399(3)
N2D N 1.0348(5) 0.4653(3) 0.1601(3)
Sm1C Sm 0.3333 0.6667 0.16346(3)
Sm1C_2 Sm 0.3333 -0.3333 0.16346(3)
Sm1C_3 Sm 1.3333 0.6667 0.16346(3)
O4C O 0.3972(2) 0.5905(2) 0.0859(2)
O4A O 0.6028(2) 0.1933(3) 0.4141(2)
O4E O 0.4095(2) -0.1933(3) 0.0859(2)
O4B O 0.8067(3) 0.4095(2) 0.4141(2)
O4D O 1.1933(3) 0.6028(2) 0.0859(2)
O4D_2 O 0.1933(3) 0.6028(2) 0.0859(2)
O4E_2 O 0.4095(2) 0.8067(3) 0.0859(2)
C1C C 0.4100(4) 0.4501(4) 0.0770(3)
C1A C 0.5900(4) 0.0401(6) 0.4230(3)
C1E C 0.5499(4) -0.0401(6) 0.0770(3)
C1B C 0.9599(6) 0.5499(4) 0.4230(3)
C1D C 1.0401(6) 0.5900(4) 0.0770(3)
C2C C 0.4922(4) 0.4866(4) 0.1265(4)
C2A C 0.5078(4) -0.0056(6) 0.3735(4)
C2E C 0.5134(4) 0.0056(6) 0.1265(4)
C2B C 1.0056(6) 0.5134(4) 0.3735(4)
C2D C 0.9944(6) 0.5078(4) 0.1265(4)
H1C H 0.5180 0.4468 0.1356
H1A H 0.4820 -0.0712 0.3644
H1E H 0.5532 0.0712 0.1356
H1B H 1.0712 0.5532 0.3644
H1D H 0.9288 0.4820 0.1356
C3C C 0.3656(4) 0.5052(4) 0.0572(3)
C3A C 0.6344(4) 0.1396(6) 0.4428(3)
C3E C 0.4948(4) -0.1396(6) 0.0572(3)
C3B C 0.8604(6) 0.4948(4) 0.4428(3)
C3D C 1.1396(6) 0.6344(4) 0.0572(3)
C4C C 0.2875(4) 0.4623(4) 0.0040(4)
C4A C 0.7125(4) 0.1748(6) 0.4960(4)
C4E C 0.5377(4) -0.1748(6) 0.0040(4)
C4B C 0.8252(6) 0.5377(4) 0.4960(4)
C4D C 1.1748(6) 0.7125(4) 0.0040(4)
H2C H 0.2582 0.4971 -0.0120
H2A H 0.7418 0.2389 0.5120
H2E H 0.5029 -0.2389 -0.0120
H2B H 0.7611 0.5029 0.5120
H2D H 1.2389 0.7418 -0.0120
C5C C 0.6234(4) 0.6104(4) 0.2053(3)
C5A C 0.3766(4) -0.0130(6) 0.2947(3)
C5E C 0.3896(4) 0.0130(6) 0.2053(3)
C5B C 1.0130(6) 0.3896(4) 0.2947(3)
C5D C 0.9870(6) 0.3766(4) 0.2053(3)
H3C H 0.6687 0.6725 0.1822
H3A H 0.3313 0.0038 0.3178
H3E H 0.3275 -0.0038 0.1822
H3B H 0.9962 0.3275 0.3178
H3D H 1.0038 0.3313 0.1822
H4C H 0.6510 0.5688 0.1999
H4A H 0.3490 -0.0822 0.3001
H4E H 0.4312 0.0822 0.1999
H4B H 1.0822 0.4312 0.3001
H4D H 0.9178 0.3490 0.1999
C6C C 0.3733(5) 0.3568(4) 0.0449(4)
C6A C 0.6267(5) -0.0165(6) 0.4551(4)
C6E C 0.6432(4) 0.0165(6) 0.0449(4)
C6B C 1.0165(6) 0.6432(4) 0.4551(4)
C6D C 0.9835(6) 0.6267(5) 0.0449(4)
H5C H 0.4031 0.3214 0.0578
H5A H 0.5969 -0.0817 0.4422
H5E H 0.6786 0.0817 0.0578
H5B H 1.0817 0.6786 0.4422
H5D H 0.9183 0.5969 0.0578
C7C C 0.2945(5) 0.3174(5) -0.0049(4)
C7A C 0.7055(5) 0.0229(7) 0.5049(4)
C7E C 0.6826(5) -0.0229(7) -0.0049(4)
C7B C 0.9771(7) 0.6826(5) 0.5049(4)
C7D C 1.0229(7) 0.7055(5) -0.0049(4)
H6C H 0.2697 0.2550 -0.0245
H6A H 0.7303 -0.0147 0.5245
H6E H 0.7450 0.0147 -0.0245
H6B H 1.0147 0.7450 0.5245
H6D H 0.9853 0.7303 -0.0245
C8C C 0.2526(4) 0.3710(4) -0.0255(4)
C8A C 0.7474(4) 0.1184(6) 0.5255(4)
C8E C 0.6290(4) -0.1184(6) -0.0255(4)
C8B C 0.8816(6) 0.6290(4) 0.5255(4)
C8D C 1.1184(6) 0.7474(4) -0.0255(4)
H7C H 0.1996 0.3449 -0.0600
H7A H 0.8004 0.1453 0.5600
H7E H 0.6551 -0.1453 -0.0600
H7B H 0.8547 0.6551 0.5600
H7D H 1.1453 0.8004 -0.0600
H8C H 0.512(4) 0.594(3) 0.149(3)
H8A H 0.488(4) 0.082(5) 0.351(3)
H8E H 0.406(3) -0.082(5) 0.149(3)
H8B H 0.918(5) 0.406(3) 0.351(3)
H8D H 1.082(5) 0.488(4) 0.149(3)
loop_
_geom_bond_atom_site_label_1
_geom_bond_atom_site_label_2
_geom_bond_site_symmetry_1
_geom_bond_site_symmetry_2
O1 N1 1_555 1_555
N1 O2 1_555 1_555
O2 Sm1 1_555 1_555
O3 N1 1_555 1_555
N2 C2 1_555 1_555
Sm1 O1 1_555 1_555
O4 Sm1 1_555 1_555
C1 C2 1_555 1_555
C2 H1 1_555 1_555
C3 O4 1_555 1_555
C4 C3 1_555 1_555
H2 C4 1_555 1_555
C5 N2 1_555 1_555
H3 C5 1_555 1_555
H4 C5 1_555 1_555
C6 C1 1_555 1_555
H5 C6 1_555 1_555
C7 C6 1_555 1_555
H6 C7 1_555 1_555
C8 C4 1_555 1_555
H7 C8 1_555 1_555
H8 N2 1_555 1_555
O1A Sm1 1_555 1_555
O1B Sm1 1_555 1_555
O1C N1C 1_555 1_555
O1D N1D 1_555 1_555
O1E N1E 1_555 1_555
N1A O1A 1_555 1_555
N1B O1B 1_555 1_555
N1C O2C 1_555 1_555
N1D O2D 1_555 1_555
N1E O2E 1_555 1_555
O2A Sm1 1_555 1_555
O2B Sm1 1_555 1_555
O2C Sm1C 1_555 1_555
O2D Sm1C 1_555 1_555
O2E Sm1C 1_555 1_555
O3A N1A 1_555 1_555
O3B N1B 1_555 1_555
O3C N1C 1_555 1_555
O3D N1D 1_555 1_555
O3E N1E 1_555 1_555
N2C C2C 1_555 1_555
N2A C2A 1_555 1_555
N2E C2E 1_555 1_555
N2B C2B 1_555 1_555
N2D C2D 1_555 1_555
Sm1C O1C 1_555 1_555
Sm1C_2 O4E 1_555 1_555
Sm1C_3 O4D 1_555 1_555
O4C Sm1C 1_555 1_555
O4A Sm1 1_555 1_555
O4E C3E 1_555 1_555
O4B Sm1 1_555 1_555
O4D C3D 1_555 1_555
O4D_2 Sm1C 1_555 1_555
O4E_2 Sm1C 1_555 1_555
C1C C2C 1_555 1_555
C1A C2A 1_555 1_555
C1E C2E 1_555 1_555
C1B C2B 1_555 1_555
C1D C2D 1_555 1_555
C2C H1C 1_555 1_555
C2A H1A 1_555 1_555
C2E H1E 1_555 1_555
C2B H1B 1_555 1_555
C2D H1D 1_555 1_555
C3C O4C 1_555 1_555
C3A O4A 1_555 1_555
C3E C1E 1_555 1_555
C3B O4B 1_555 1_555
C3D C1D 1_555 1_555
C4C C3C 1_555 1_555
C4A C3A 1_555 1_555
C4E C3E 1_555 1_555
C4B C3B 1_555 1_555
C4D C3D 1_555 1_555
H2C C4C 1_555 1_555
H2A C4A 1_555 1_555
H2E C4E 1_555 1_555
H2B C4B 1_555 1_555
H2D C4D 1_555 1_555
C5C C5 1_555 1_555
C5A N2A 1_555 1_555
C5E N2E 1_555 1_555
C5B N2B 1_555 1_555
C5D N2D 1_555 1_555
H3C C5C 1_555 1_555
H3A C5A 1_555 1_555
H3E C5E 1_555 1_555
H3B C5B 1_555 1_555
H3D C5D 1_555 1_555
H4C C5C 1_555 1_555
H4A C5A 1_555 1_555
H4E C5E 1_555 1_555
H4B C5B 1_555 1_555
H4D C5D 1_555 1_555
C6C C1C 1_555 1_555
C6A C1A 1_555 1_555
C6E C1E 1_555 1_555
C6B C1B 1_555 1_555
C6D C1D 1_555 1_555
H5C C6C 1_555 1_555
H5A C6A 1_555 1_555
H5E C6E 1_555 1_555
H5B C6B 1_555 1_555
H5D C6D 1_555 1_555
C7C C6C 1_555 1_555
C7A C6A 1_555 1_555
C7E C6E 1_555 1_555
C7B C6B 1_555 1_555
C7D C6D 1_555 1_555
H6C C7C 1_555 1_555
H6A C7A 1_555 1_555
H6E C7E 1_555 1_555
H6B C7B 1_555 1_555
H6D C7D 1_555 1_555
C8C C4C 1_555 1_555
C8A C4A 1_555 1_555
C8E C4E 1_555 1_555
C8B C4B 1_555 1_555
C8D C4D 1_555 1_555
H7C C8C 1_555 1_555
H7A C8A 1_555 1_555
H7E C8E 1_555 1_555
H7B C8B 1_555 1_555
H7D C8D 1_555 1_555
H8C N2C 1_555 1_555
H8A N2A 1_555 1_555
H8E N2E 1_555 1_555
H8B N2B 1_555 1_555
H8D N2D 1_555 1_555
C1 C3 1_555 1_555
C7 C8 1_555 1_555
O1D Sm1C 1_555 1_555
O1E Sm1C 1_555 1_555
N1A O2A 1_555 1_555
N1B O2B 1_555 1_555
N2C C5C 1_555 1_555
C1C C3C 1_555 1_555
C1A C3A 1_555 1_555
C1B C3B 1_555 1_555
C5A C5E 1_555 1_555
C5B C5D 1_555 1_555
C7C C8C 1_555 1_555
C7A C8A 1_555 1_555
C7E C8E 1_555 1_555
C7B C8B 1_555 1_555
C7D C8D 1_555 1_555

#END
