
#######################################################################
#
#                 Cambridge Crystallographic Data Centre
#                                CCDC 
#
#######################################################################
#
# If this CIF has been generated from an entry in the Cambridge 
# Structural Database, then it will include bibliographic, chemical, 
# crystal, experimental, refinement or atomic coordinate data resulting 
# from the CCDC's data processing and validation procedures.
#
#######################################################################

data_KITLIK
_symmetry_cell_setting           triclinic
_symmetry_space_group_name_H-M   'P -1'
_symmetry_Int_Tables_number      2
_space_group_name_Hall           '-P 1'
loop_
_symmetry_equiv_pos_site_id
_symmetry_equiv_pos_as_xyz
1 x,y,z
2 -x,-y,-z
_cell_length_a                   7.858(5)
_cell_length_b                   10.508(5)
_cell_length_c                   11.554(5)
_cell_angle_alpha                112.221(5)
_cell_angle_beta                 95.625(5)
_cell_angle_gamma                105.097(5)
_cell_volume                     831.833
loop_
_atom_site_label
_atom_site_type_symbol
_atom_site_fract_x
_atom_site_fract_y
_atom_site_fract_z
Cd1 Cd 0.74245(6) 0.98332(4) 0.46336(3)
O1 O 0.6868(5) 0.7806(4) 0.2806(4)
O2 O 0.9763(5) 0.8683(4) 0.3727(4)
O3 O 0.5847(6) 1.0424(4) 0.6287(3)
O4 O 0.7176(5) 0.8776(4) 0.6065(4)
N1 N 0.8261(7) 1.1554(5) 0.3883(5)
C1 C 0.7911(9) 1.2794(7) 0.4302(6)
C2 C 0.7226(10) 1.3185(7) 0.5406(7)
H1 H 0.7017 1.2564 0.5835
C3 C 0.6848(12) 1.4483(7) 0.5881(8)
H2 H 0.6389 1.4751 0.6637
C4 C 0.7138(13) 1.5396(9) 0.5255(9)
H3 H 0.6889 1.6288 0.5589
C5 C 0.7782(12) 1.5006(8) 0.4158(8)
H4 H 0.7967 1.5636 0.3738
C6 C 0.8166(10) 1.3740(7) 0.3648(7)
C7 C 0.8822(11) 1.3287(8) 0.2534(8)
H5 H 0.8989 1.3864 0.2064
C8 C 0.9223(10) 1.2038(8) 0.2115(8)
H6 H 0.9676 1.1734 0.1358
C9 C 0.8959(9) 1.1199(8) 0.2818(7)
H7 H 0.9283 1.0338 0.2536
C10 C 0.8460(8) 0.7772(5) 0.2829(5)
C11 C 0.8780(8) 0.6618(6) 0.1695(5)
C12 C 0.7274(8) 0.5515(7) 0.0762(6)
H8 H 0.6088 0.5508 0.0869
C13 C 0.7498(8) 0.4465(7) -0.0286(6)
H9 H 0.6470 0.3732 -0.0904
C14 C 0.9249(8) 0.4457(6) -0.0462(5)
C15 C 1.0482(8) 0.6629(6) 0.1550(5)
H10 H 1.1495 0.7367 0.2180
C16 C 0.6344(7) 0.9568(6) 0.6669(5)
C17 C 0.5938(8) 0.9538(6) 0.7902(5)
C18 C 0.6336(8) 0.8518(6) 0.8301(5)
H11 H 0.6861 0.7846 0.7789
C19 C 0.5968(8) 0.8493(6) 0.9424(5)
H12 H 0.6236 0.7798 0.9685
C20 C 0.5189(7) 1.0507(6) 0.8629(5)
H13 H 0.4922 1.1186 0.8344
C21 C 0.4803(7) 1.0518(6) 0.9799(5)
O1A O 1.3132(5) 0.2194(4) -0.2806(4)
C10A C 1.1540(8) 0.2228(5) -0.2829(5)
C11A C 1.1220(8) 0.3382(6) -0.1695(5)
C12A C 1.2726(8) 0.4485(7) -0.0762(6)
H8A H 1.3912 0.4492 -0.0869
C13A C 1.2502(8) 0.5535(7) 0.0286(6)
H9A H 1.3530 0.6268 0.0904
C14A C 1.0751(8) 0.5543(6) 0.0462(5)
C15A C 0.9518(8) 0.3371(6) -0.1550(5)
H10A H 0.8505 0.2633 -0.2180
O2A O 1.0237(5) 0.1317(4) -0.3727(4)
O3A O 0.4153(6) 0.9576(4) 1.3713(3)
O4A O 0.2824(5) 1.1224(4) 1.3935(4)
C16A C 0.3656(7) 1.0432(6) 1.3331(5)
C17A C 0.4062(8) 1.0462(6) 1.2098(5)
C18A C 0.3664(8) 1.1482(6) 1.1699(5)
H11A H 0.3139 1.2154 1.2211
C19A C 0.4032(8) 1.1507(6) 1.0576(5)
H12A H 0.3764 1.2202 1.0315
C20A C 0.4811(7) 0.9493(6) 1.1371(5)
H13A H 0.5078 0.8814 1.1656
C21A C 0.5197(7) 0.9482(6) 1.0201(5)
Cd1A Cd 0.25755(6) 1.01668(4) 0.53664(3)
N1A N 0.1739(7) 0.8446(5) 0.6117(5)
C1A C 0.2089(9) 0.7206(7) 0.5698(6)
C2A C 0.2774(10) 0.6815(7) 0.4594(7)
H1A H 0.2983 0.7436 0.4165
C3A C 0.3152(12) 0.5517(7) 0.4119(8)
H2A H 0.3611 0.5249 0.3363
C4A C 0.2862(13) 0.4604(9) 0.4745(9)
H3A H 0.3111 0.3712 0.4411
C5A C 0.2218(12) 0.4994(8) 0.5842(8)
H4A H 0.2033 0.4364 0.6262
C6A C 0.1834(10) 0.6260(7) 0.6352(7)
C7A C 0.1178(11) 0.6713(8) 0.7466(8)
H5A H 0.1011 0.6136 0.7936
C8A C 0.0777(10) 0.7962(8) 0.7885(8)
H6A H 0.0324 0.8266 0.8642
C9A C 0.1041(9) 0.8801(8) 0.7182(7)
H7A H 0.0717 0.9662 0.7464
Cd1_2 Cd 0.74245(6) -0.01668(4) -0.53664(3)
Cd1_3 Cd 0.74245(6) 0.98332(4) 1.46336(3)
Cd1A_2 Cd 0.25755(6) 1.01668(4) 1.53664(3)
Cd1A_3 Cd 1.25755(6) 0.01668(4) -0.46336(3)
Cd1A_4 Cd 1.25755(6) 1.01668(4) 0.53664(3)
O1A_2 O 0.3132(5) 1.2194(4) 0.7194(4)
O2_2 O -0.0237(5) 0.8683(4) 0.3727(4)
O2A_2 O 0.0237(5) 1.1317(4) 0.6273(4)
O2A_3 O 1.0237(5) 1.1317(4) 0.6273(4)
O3A_2 O 0.4153(6) 0.9576(4) 0.3713(3)
O4A_2 O 0.2824(5) 1.1224(4) 0.3935(4)
loop_
_geom_bond_atom_site_label_1
_geom_bond_atom_site_label_2
_geom_bond_site_symmetry_1
_geom_bond_site_symmetry_2
Cd1 O1 1_555 1_555
O1 C10 1_555 1_555
O2 Cd1 1_555 1_555
O3 Cd1 1_555 1_555
O4 Cd1 1_555 1_555
N1 Cd1 1_555 1_555
C1 N1 1_555 1_555
C2 C1 1_555 1_555
H1 C2 1_555 1_555
C3 C2 1_555 1_555
H2 C3 1_555 1_555
C4 C3 1_555 1_555
H3 C4 1_555 1_555
C5 C4 1_555 1_555
H4 C5 1_555 1_555
C6 C1 1_555 1_555
C7 C6 1_555 1_555
H5 C7 1_555 1_555
C8 C7 1_555 1_555
H6 C8 1_555 1_555
C9 N1 1_555 1_555
H7 C9 1_555 1_555
C10 O2 1_555 1_555
C11 C10 1_555 1_555
C12 C11 1_555 1_555
H8 C12 1_555 1_555
C13 C12 1_555 1_555
H9 C13 1_555 1_555
C14 C13 1_555 1_555
C15 C11 1_555 1_555
H10 C15 1_555 1_555
C16 O3 1_555 1_555
C17 C16 1_555 1_555
C18 C17 1_555 1_555
H11 C18 1_555 1_555
C19 C18 1_555 1_555
H12 C19 1_555 1_555
C20 C17 1_555 1_555
H13 C20 1_555 1_555
C21 C20 1_555 1_555
O1A C10A 1_555 1_555
C10A C11A 1_555 1_555
C11A C12A 1_555 1_555
C12A H8A 1_555 1_555
C13A C12A 1_555 1_555
H9A C13A 1_555 1_555
C14A C14 1_555 1_555
C15A C14 1_555 1_555
H10A C15A 1_555 1_555
O2A C10A 1_555 1_555
O3A C16A 1_555 1_555
O4A C16A 1_555 1_555
C16A C17A 1_555 1_555
C17A C18A 1_555 1_555
C18A H11A 1_555 1_555
C19A C21 1_555 1_555
H12A C19A 1_555 1_555
C20A C17A 1_555 1_555
H13A C20A 1_555 1_555
C21A C19 1_555 1_555
Cd1A O3 1_555 1_555
N1A Cd1A 1_555 1_555
C1A N1A 1_555 1_555
C2A C1A 1_555 1_555
H1A C2A 1_555 1_555
C3A C2A 1_555 1_555
H2A C3A 1_555 1_555
C4A C3A 1_555 1_555
H3A C4A 1_555 1_555
C5A C4A 1_555 1_555
H4A C5A 1_555 1_555
C6A C1A 1_555 1_555
C7A C6A 1_555 1_555
H5A C7A 1_555 1_555
C8A C7A 1_555 1_555
H6A C8A 1_555 1_555
C9A N1A 1_555 1_555
H7A C9A 1_555 1_555
Cd1_2 O2A 1_555 1_555
Cd1_3 O3A 1_555 1_555
Cd1A_2 O3A 1_555 1_555
Cd1A_3 O1A 1_555 1_555
Cd1A_4 O2 1_555 1_555
O1A_2 Cd1A 1_555 1_555
O2_2 Cd1A 1_555 1_555
O2A_2 Cd1A 1_555 1_555
O2A_3 Cd1 1_555 1_555
O3A_2 Cd1 1_555 1_555
O4A_2 Cd1A 1_555 1_555
O4 C16 1_555 1_555
C5 C6 1_555 1_555
C8 C9 1_555 1_555
C15 C14A 1_555 1_555
C21 C21A 1_555 1_555
C11A C15A 1_555 1_555
C13A C14A 1_555 1_555
O2A Cd1A_3 1_555 1_555
O4A Cd1A_2 1_555 1_555
C18A C19A 1_555 1_555
C20A C21A 1_555 1_555
Cd1A O3A_2 1_555 1_555
C5A C6A 1_555 1_555
C8A C9A 1_555 1_555
Cd1A_4 O2A_3 1_555 1_555

#END
