
#######################################################################
#
#                 Cambridge Crystallographic Data Centre
#                                CCDC 
#
#######################################################################
#
# If this CIF has been generated from an entry in the Cambridge 
# Structural Database, then it will include bibliographic, chemical, 
# crystal, experimental, refinement or atomic coordinate data resulting 
# from the CCDC's data processing and validation procedures.
#
#######################################################################

data_KITMIK
_symmetry_cell_setting           triclinic
_symmetry_space_group_name_H-M   'P -1'
_symmetry_Int_Tables_number      2
_space_group_name_Hall           '-P 1'
loop_
_symmetry_equiv_pos_site_id
_symmetry_equiv_pos_as_xyz
1 x,y,z
2 -x,-y,-z
_cell_length_a                   11.4925(9)
_cell_length_b                   11.5009(9)
_cell_length_c                   26.085(2)
_cell_angle_alpha                77.6010(10)
_cell_angle_beta                 87.6020(10)
_cell_angle_gamma                89.6300(10)
_cell_volume                     3364.39
loop_
_atom_site_label
_atom_site_type_symbol
_atom_site_fract_x
_atom_site_fract_y
_atom_site_fract_z
W1 W 0.17546(5) 0.58230(5) 0.24701(2)
W2 W -0.24002(5) 0.40218(5) 0.15176(2)
W3 W 0.04346(5) 0.33881(5) 0.34894(2)
W4 W -0.30313(5) 0.59666(5) 0.35086(2)
W5 W -0.02349(5) 0.65517(5) 0.35030(2)
W6 W -0.41477(5) 0.46548(5) 0.24341(2)
W7 W -0.05486(5) 0.22517(5) 0.25337(2)
W8 W -0.23239(5) 0.28717(5) 0.34400(2)
W9 W 0.01830(5) 0.74873(5) 0.15315(2)
W10 W -0.29472(5) 0.67455(5) 0.15574(2)
W11 W -0.18391(5) 0.81145(5) 0.25867(2)
W12 W 0.07537(5) 0.46790(5) 0.15136(2)
Ce1 Ce -0.53331(7) 0.91419(7) 0.07494(3)
Ce2 Ce -0.44207(7) 0.00854(7) 0.42578(3)
O1 O -0.4459(8) 0.6059(8) 0.1916(4)
O2 O -0.4947(9) 0.9595(10) 0.1619(4)
H1 H -0.4501 0.9102 0.1845
H2 H -0.5253 1.0251 0.1706
O3 O -0.3354(8) 0.3386(8) 0.2911(4)
O4 O -0.6198(9) 0.7329(8) 0.1379(4)
H3 H -0.5749 0.6692 0.1497
H4 H -0.6954 0.7325 0.1485
O5 O -0.0916(8) 0.2646(8) 0.3862(4)
O6 O -0.7317(9) 0.9791(10) 0.0988(5)
H5 H -0.7747 0.9330 0.1250
H6 H -0.7605 1.0486 0.0812
O7 O 0.1452(9) 0.4386(9) 0.2947(4)
O8 O -0.2847(9) -0.0415(9) 0.3629(4)
H7 H -0.2415 -0.1076 0.3724
H8 H -0.2720 0.0069 0.3312
O9 O 0.1567(8) 0.7353(9) 0.1913(4)
O10 O -0.5150(10) -0.1756(10) 0.4018(5)
H9 H -0.5040 -0.2470 0.4232
H10 H -0.5521 -0.1708 0.3717
O11 O -0.1422(8) 0.7175(9) 0.1352(4)
O12 O -0.5169(10) 0.0931(12) 0.3388(5)
H11 H -0.5423 0.0447 0.3187
H12 H -0.5190 0.1726 0.3270
O13 O -0.3711(8) 0.7864(9) 0.1138(4)
O15 O -0.5532(8) 0.4140(9) 0.2586(4)
O17 O -0.3215(9) 0.1881(9) 0.3885(4)
O19 O 0.1429(9) 0.2846(9) 0.3956(4)
O21 O 0.3151(8) 0.6211(8) 0.2598(4)
O23 O 0.0500(9) 0.8785(9) 0.1077(4)
O25 O -0.2657(8) 0.3272(9) 0.1029(4)
O27 O -0.0133(8) 0.0927(9) 0.2374(4)
O28 O -0.4102(9) 0.6029(9) 0.3982(4)
O29 O -0.2261(8) 0.9598(9) 0.2466(4)
O30 O 0.1503(9) 0.4108(10) 0.1038(4)
O31 O 0.0598(9) 0.7001(10) 0.3956(5)
O32 O -0.2943(8) 0.5561(9) 0.1137(4)
O33 O -0.1720(8) 0.2786(9) 0.2040(4)
O34 O -0.1712(8) 0.1646(9) 0.3074(4)
O35 O -0.2624(8) 0.4306(8) 0.3674(4)
O36 O -0.3087(8) 0.7617(9) 0.3151(4)
O37 O -0.0602(8) 0.8139(8) 0.2086(4)
O38 O 0.0742(8) 0.6347(8) 0.1144(4)
O39 O 0.0469(8) 0.3298(8) 0.2052(4)
O40 O -0.3918(8) 0.5562(9) 0.2966(4)
O41 O -0.1711(9) 0.6309(9) 0.3892(4)
O42 O 0.0894(8) 0.6607(8) 0.2937(4)
O43 O 0.2066(8) 0.5072(9) 0.1882(4)
O44 O -0.0821(9) 0.4562(9) 0.1333(4)
O45 O -0.3875(8) 0.3715(8) 0.1885(4)
O46 O -0.0766(8) 0.8093(9) 0.3142(4)
O47 O 0.0026(8) 0.4877(9) 0.3668(4)
O48 O 0.0608(8) 0.2197(9) 0.3076(4)
O49 O -0.2797(8) 0.7542(9) 0.2124(4)
O50 O -0.2438(8) 0.5198(9) 0.2091(4)
O51 O 0.0030(8) 0.5704(8) 0.2105(4)
O52 O -0.0972(8) 0.3754(9) 0.2909(4)
O53 O -0.1557(8) 0.6190(8) 0.2931(4)
O54 O -0.5422(9) 1.1339(9) 0.0695(4)
O55 O -0.3670(9) 1.0172(9) 0.0180(4)
O56 O -0.3010(9) 1.1843(9) -0.0333(4)
O57 O -0.5402(10) 1.2191(10) -0.0164(4)
O58 O -0.6589(9) -0.0004(11) 0.4291(5)
O59 O -0.7106(9) -0.0459(10) 0.5146(4)
O60 O -0.3287(9) -0.1817(9) 0.4671(4)
O61 O -0.4744(8) -0.1486(9) 0.5199(4)
C1 C -0.5533(12) 1.2182(13) 0.0315(5)
C2 C -0.9257(13) -0.1346(13) 0.4919(6)
H27 H -0.8979 -0.1706 0.5245
C3 C -0.5844(12) 1.3389(14) 0.0446(6)
C4 C -0.8551(12) -0.0606(13) 0.4544(6)
C5 C -0.7324(12) -0.0359(13) 0.4669(5)
N1 N -0.6366(11) 1.5559(12) 0.0672(5)
N2 N -1.0794(11) -0.1001(13) 0.4320(6)
C6 C -0.2115(14) 1.0582(14) 0.0972(6)
H28 H -0.2750 1.0094 0.1101
C7 C -0.6374(12) 1.4270(13) 0.0072(6)
H29 H -0.6534 1.4130 -0.0256
C8 C -0.6659(13) 1.5366(13) 0.0198(6)
H30 H -0.7041 1.5949 -0.0039
C9 C -0.3880(12) -0.2118(13) 0.5078(6)
C10 C -0.3634(13) -0.3293(14) 0.5441(6)
C11 C -1.0390(14) -0.1531(14) 0.4793(7)
H31 H -1.0880 -0.2027 0.5036
C12 C -0.8965(13) -0.0111(14) 0.4058(6)
H32 H -0.8486 0.0363 0.3801
C13 C -0.2972(13) 1.1055(13) 0.0071(6)
C14 C -0.5556(13) 1.3635(14) 0.0933(6)
H33 H -0.5179 1.3075 0.1182
C15 C -0.2018(14) 1.1155(15) 0.0443(6)
C16 C -0.5855(14) 1.4742(16) 0.1025(7)
H34 H -0.5691 1.4916 0.1346
C17 C -0.1075(14) 1.1867(18) 0.0262(7)
H35 H -0.1016 1.2265 -0.0088
C18 C -0.2893(17) -0.4091(15) 0.5249(7)
H36 H -0.2566 -0.3893 0.4909
C19 C -1.0121(16) -0.0335(16) 0.3957(7)
H37 H -1.0412 -0.0009 0.3630
C20 C -0.2658(16) -0.5182(17) 0.5576(8)
H38 H -0.2213 -0.5743 0.5447
N3 N -0.0318(12) 1.1457(13) 0.1104(6)
N4 N -0.3075(11) -0.5431(14) 0.6081(6)
C21 C -0.1242(13) 1.0755(14) 0.1304(6)
H39 H -0.1293 1.0392 0.1659
C22 C -0.4074(13) -0.3566(15) 0.5959(6)
H40 H -0.4547 -0.3033 0.6093
C23 C -0.3789(14) -0.4642(16) 0.6261(6)
H41 H -0.4093 -0.4846 0.6605
C24 C -0.0213(17) 1.1999(19) 0.0596(7)
H42 H 0.0439 1.2463 0.0469
Ce1A Ce -0.46669(7) 1.08581(7) -0.07494(3)
Ce2A Ce -0.55793(7) -0.00854(7) 0.57422(3)
O17A O -0.6785(9) -0.1881(9) 0.6115(4)
O55A O -0.6330(9) 0.9828(9) -0.0180(4)
O56A O -0.6990(9) 0.8157(9) 0.0333(4)
O57A O -0.4598(10) 0.7809(10) 0.0164(4)
O59A O -0.2894(9) 0.0459(10) 0.4854(4)
O61A O -0.5256(8) 0.1486(9) 0.4801(4)
O14 O -0.4121(11) 1.1232(12) 0.2398(6)
H13 H -0.3630 1.0855 0.2639
H14 H -0.4415 1.1946 0.2422
O16 O 0.4756(9) 0.8019(10) 0.2597(5)
H15 H 0.5070 0.7291 0.2697
H16 H 0.5157 0.8668 0.2628
O18 O 0.1900(12) 0.1690(13) 0.1360(7)
H17 H 0.1861 0.1094 0.1647
H18 H 0.2491 0.1719 0.1120
O20 O -0.6962(12) 0.2121(13) 0.2855(6)
H19 H -0.6397 0.1574 0.2934
H20 H -0.7691 0.1958 0.2989
O22 O 0.3276(13) 0.0778(16) 0.2099(7)
H21 H 0.3091 0.0045 0.2286
H22 H 0.4023 0.0965 0.2000
O24 O 0.1656(12) -0.0811(11) 0.2592(6)
H23 H 0.2431 -0.0770 0.2526
H24 H 0.1329 -0.1490 0.2777
O26 O -0.6954(10) -0.2161(10) 0.3425(5)
H25 H -0.6339 -0.2648 0.3498
H26 H -0.7677 -0.2429 0.3530
loop_
_geom_bond_atom_site_label_1
_geom_bond_atom_site_label_2
_geom_bond_site_symmetry_1
_geom_bond_site_symmetry_2
W1 O7 1_555 1_555
W2 O25 1_555 1_555
W3 O5 1_555 1_555
W4 O28 1_555 1_555
W5 O31 1_555 1_555
W6 O1 1_555 1_555
W7 O27 1_555 1_555
W8 O3 1_555 1_555
W9 O9 1_555 1_555
W10 O1 1_555 1_555
W11 O29 1_555 1_555
W12 O30 1_555 1_555
Ce1 O2 1_555 1_555
Ce2 O8 1_555 1_555
O2 H1 1_555 1_555
H2 O2 1_555 1_555
O3 W6 1_555 1_555
O4 Ce1 1_555 1_555
H3 O4 1_555 1_555
H4 O4 1_555 1_555
O5 W8 1_555 1_555
O6 Ce1 1_555 1_555
H5 O6 1_555 1_555
H6 O6 1_555 1_555
O7 W3 1_555 1_555
O8 H7 1_555 1_555
H8 O8 1_555 1_555
O9 W1 1_555 1_555
O10 Ce2 1_555 1_555
H9 O10 1_555 1_555
H10 O10 1_555 1_555
O11 W9 1_555 1_555
O12 Ce2 1_555 1_555
H11 O12 1_555 1_555
H12 O12 1_555 1_555
O13 W10 1_555 1_555
O14 H13 1_555 1_555
H14 O14 1_555 1_555
O15 W6 1_555 1_555
O16 H15 1_555 1_555
H16 O16 1_555 1_555
O17 W8 1_555 1_555
O18 H17 1_555 1_555
H18 O18 1_555 1_555
O19 W3 1_555 1_555
O20 H19 1_555 1_555
H20 O20 1_555 1_555
O21 W1 1_555 1_555
O22 H21 1_555 1_555
H22 O22 1_555 1_555
O23 W9 1_555 1_555
O24 H23 1_555 1_555
H24 O24 1_555 1_555
O26 H25 1_555 1_555
H26 O26 1_555 1_555
O32 W2 1_555 1_555
O33 W2 1_555 1_555
O34 W7 1_555 1_555
O35 W4 1_555 1_555
O36 W4 1_555 1_555
O37 W9 1_555 1_555
O38 W9 1_555 1_555
O39 W7 1_555 1_555
O40 W4 1_555 1_555
O41 W4 1_555 1_555
O42 W1 1_555 1_555
O43 W1 1_555 1_555
O44 W2 1_555 1_555
O45 W2 1_555 1_555
O46 W5 1_555 1_555
O47 W3 1_555 1_555
O48 W3 1_555 1_555
O49 W10 1_555 1_555
O50 W2 1_555 1_555
O51 W1 1_555 1_555
O52 W3 1_555 1_555
O53 W4 1_555 1_555
O54 Ce1 1_555 1_555
O55 Ce1 1_555 1_555
O56 C13 1_555 1_555
O57 C1 1_555 1_555
O58 Ce2 1_555 1_555
O59 C5 1_555 1_555
O60 Ce2 1_555 1_555
O61 Ce2 1_555 1_555
C1 O54 1_555 1_555
C2 H27 1_555 1_555
C3 C1 1_555 1_555
C4 C2 1_555 1_555
C5 O58 1_555 1_555
N1 C8 1_555 1_555
N2 C11 1_555 1_555
C6 H28 1_555 1_555
C7 C3 1_555 1_555
H29 C7 1_555 1_555
C8 C7 1_555 1_555
H30 C8 1_555 1_555
C9 O60 1_555 1_555
C10 C9 1_555 1_555
C11 C2 1_555 1_555
H31 C11 1_555 1_555
C12 C4 1_555 1_555
H32 C12 1_555 1_555
C13 O55 1_555 1_555
C14 C3 1_555 1_555
H33 C14 1_555 1_555
C15 C6 1_555 1_555
C16 N1 1_555 1_555
H34 C16 1_555 1_555
C17 C15 1_555 1_555
H35 C17 1_555 1_555
C18 C10 1_555 1_555
H36 C18 1_555 1_555
C19 N2 1_555 1_555
H37 C19 1_555 1_555
C20 C18 1_555 1_555
H38 C20 1_555 1_555
N3 C21 1_555 1_555
N4 C20 1_555 1_555
C21 C6 1_555 1_555
H39 C21 1_555 1_555
C22 C10 1_555 1_555
H40 C22 1_555 1_555
C23 N4 1_555 1_555
H41 C23 1_555 1_555
C24 C17 1_555 1_555
H42 C24 1_555 1_555
Ce1A O55 1_555 1_555
Ce2A O59 1_555 1_555
O17A Ce2A 1_555 1_555
O55A Ce1 1_555 1_555
O56A Ce1 1_555 1_555
O57A Ce1 1_555 1_555
O59A Ce2 1_555 1_555
O61A Ce2 1_555 1_555
W5 O41 1_555 1_555
W5 O42 1_555 1_555
W5 O47 1_555 1_555
W5 O53 1_555 1_555
W6 O40 1_555 1_555
W6 O45 1_555 1_555
W6 O50 1_555 1_555
W7 O33 1_555 1_555
W7 O48 1_555 1_555
W7 O52 1_555 1_555
W8 O34 1_555 1_555
W8 O35 1_555 1_555
W8 O52 1_555 1_555
W9 O51 1_555 1_555
W10 O11 1_555 1_555
W10 O32 1_555 1_555
W10 O50 1_555 1_555
W11 O36 1_555 1_555
W11 O37 1_555 1_555
W11 O46 1_555 1_555
W11 O49 1_555 1_555
W11 O53 1_555 1_555
W12 O38 1_555 1_555
W12 O39 1_555 1_555
W12 O43 1_555 1_555
W12 O44 1_555 1_555
W12 O51 1_555 1_555
Ce1 O13 1_555 1_555
Ce2 O17 1_555 1_555
O56 Ce1A 1_555 1_555
O57 Ce1A 1_555 1_555
O61 C9 1_555 1_555
O61 Ce2A 1_555 1_555
C4 C5 1_555 1_555
C12 C19 1_555 1_555
C13 C15 1_555 1_555
C14 C16 1_555 1_555
N3 C24 1_555 1_555
C22 C23 1_555 1_555
Ce1A O55A 1_555 1_555
Ce2A O61A 1_555 1_555

#END
