
#######################################################################
#
#                 Cambridge Crystallographic Data Centre
#                                CCDC 
#
#######################################################################
#
# If this CIF has been generated from an entry in the Cambridge 
# Structural Database, then it will include bibliographic, chemical, 
# crystal, experimental, refinement or atomic coordinate data resulting 
# from the CCDC's data processing and validation procedures.
#
#######################################################################

data_KITNIM03
_symmetry_cell_setting           monoclinic
_symmetry_space_group_name_H-M   'C 2/c'
_symmetry_Int_Tables_number      15
_space_group_name_Hall           '-C 2yn'
loop_
_symmetry_equiv_pos_site_id
_symmetry_equiv_pos_as_xyz
1 x,y,z
2 -x,y,1/2-z
3 1/2+x,1/2+y,z
4 1/2-x,1/2+y,1/2-z
5 -x,-y,-z
6 x,-y,1/2+z
7 1/2-x,1/2-y,-z
8 1/2+x,1/2-y,1/2+z
_cell_length_a                   18.4558(11)
_cell_length_b                   19.0332(11)
_cell_length_c                   12.2097(8)
_cell_angle_alpha                90
_cell_angle_beta                 114.5550(10)
_cell_angle_gamma                90
_cell_volume                     3901.06
loop_
_atom_site_label
_atom_site_type_symbol
_atom_site_fract_x
_atom_site_fract_y
_atom_site_fract_z
Cu1 Cu 0.43564(4) 0.15224(4) 0.63962(6)
Cu2 Cu 0.55492(4) 0.25235(4) 0.70962(7)
I1 I 0.57676(2) 0.116030(19) 0.65435(3)
I2 I 0.40997(2) 0.287688(19) 0.55591(3)
C1 C 0.2780(3) 0.0833(3) 0.5286(5)
H1 H 0.2735 0.1025 0.5973
C2 C 0.2153(4) 0.0449(3) 0.4492(5)
H2 H 0.1687 0.0383 0.4629
C3 C 0.2207(3) 0.0158(3) 0.3478(5)
C4 C 0.2887(4) 0.0285(3) 0.3323(5)
H3 H 0.2939 0.0108 0.2632
C5 C 0.3501(4) 0.0673(3) 0.4171(5)
H4 H 0.3974 0.0743 0.4054
C6 C 0.1560(4) -0.0300(3) 0.2597(6)
H5 H 0.1425 -0.0127 0.1770
H6 H 0.1765 -0.0785 0.2650
C7 C 0.0342(3) 0.0319(3) 0.2332(5)
H7 H 0.0144 0.0331 0.1444
H8 H 0.0669 0.0745 0.2660
C8 C 0.0349(4) -0.0927(3) 0.2332(6)
H9 H 0.0672 -0.1355 0.2655
H10 H 0.0153 -0.0934 0.1444
C9 C 0.6308(4) 0.3322(3) 0.5772(6)
H11 H 0.5774 0.3435 0.5249
C10 C 0.6910(4) 0.3541(4) 0.5467(6)
H12 H 0.6786 0.3790 0.4737
C11 C 0.7702(4) 0.3400(3) 0.6225(5)
C12 C 0.7842(4) 0.3037(3) 0.7282(6)
H13 H 0.8372 0.2933 0.7838
C13 C 0.7200(4) 0.2828(3) 0.7516(6)
H14 H 0.7305 0.2580 0.8242
C14 C 0.8367(4) 0.3678(4) 0.5910(6)
H15 H 0.8393 0.3387 0.5256
H16 H 0.8235 0.4164 0.5602
C15 C 0.9604(4) 0.4308(3) 0.6946(5)
H17 H 0.9294 0.4731 0.6955
H18 H 0.9704 0.4324 0.6210
C16 C 0.9615(4) 0.3052(3) 0.6945(6)
H19 H 0.9726 0.3047 0.6219
H20 H 0.9306 0.2625 0.6934
N1 N 0.3456(3) 0.0954(2) 0.5149(4)
N2 N 0.6443(3) 0.2955(3) 0.6776(5)
N3 N 0.9147(3) 0.3678(3) 0.6927(5)
N4 N 0.0841(3) -0.0313(2) 0.2806(5)
C1A C -0.2780(3) 0.0833(3) -0.0286(5)
H1A H -0.2735 0.1025 -0.0973
C2A C -0.2153(4) 0.0449(3) 0.0508(5)
H2A H -0.1687 0.0383 0.0371
C3A C -0.2207(3) 0.0158(3) 0.1522(5)
C4A C -0.2887(4) 0.0285(3) 0.1677(5)
H3A H -0.2939 0.0108 0.2368
C5A C -0.3501(4) 0.0673(3) 0.0829(5)
H4A H -0.3974 0.0743 0.0946
C6A C -0.1560(4) -0.0300(3) 0.2403(6)
H5A H -0.1425 -0.0127 0.3230
H6A H -0.1765 -0.0785 0.2350
C7A C -0.0342(3) 0.0319(3) 0.2668(5)
H7A H -0.0144 0.0331 0.3556
H8A H -0.0669 0.0745 0.2340
C8A C -0.0349(4) -0.0927(3) 0.2668(6)
H9A H -0.0672 -0.1355 0.2345
H10A H -0.0153 -0.0934 0.3556
N1A N -0.3456(3) 0.0954(2) -0.0149(4)
N4A N -0.0841(3) -0.0313(2) 0.2194(5)
C9A C 1.3692(4) 0.3322(3) 0.9228(6)
H11A H 1.4226 0.3435 0.9751
C10A C 1.3090(4) 0.3541(4) 0.9533(6)
H12A H 1.3214 0.3790 1.0263
C11A C 1.2298(4) 0.3400(3) 0.8775(5)
C12A C 1.2158(4) 0.3037(3) 0.7718(6)
H13A H 1.1628 0.2933 0.7162
C13A C 1.2800(4) 0.2828(3) 0.7484(6)
H14A H 1.2695 0.2580 0.6758
C14A C 1.1633(4) 0.3678(4) 0.9090(6)
H15A H 1.1607 0.3387 0.9744
H16A H 1.1765 0.4164 0.9398
C15A C 1.0396(4) 0.4308(3) 0.8054(5)
H17A H 1.0706 0.4731 0.8045
H18A H 1.0296 0.4324 0.8790
C16A C 1.0385(4) 0.3052(3) 0.8055(6)
H19A H 1.0274 0.3047 0.8781
H20A H 1.0694 0.2625 0.8066
N2A N 1.3557(3) 0.2955(3) 0.8224(5)
N3A N 1.0853(3) 0.3678(3) 0.8073(5)
Cu1A Cu -0.43564(4) 0.15224(4) -0.13962(6)
Cu2A Cu -0.55492(4) 0.25235(4) -0.20962(7)
I1A I -0.57676(2) 0.116030(19) -0.15435(3)
I2A I -0.40997(2) 0.287688(19) -0.05591(3)
Cu1_2 Cu -0.56436(4) 0.15224(4) -0.36038(6)
Cu1A_2 Cu 0.56436(4) 0.15224(4) 0.86038(6)
Cu2_2 Cu -0.44508(4) 0.25235(4) -0.29038(7)
Cu2A_2 Cu 0.44508(4) 0.25235(4) 0.79038(7)
Cu2A_3 Cu 1.44508(4) 0.25235(4) 0.79038(7)
I1_2 I -0.42324(2) 0.116030(19) -0.34565(3)
I1A_2 I 0.42324(2) 0.116030(19) 0.84565(3)
I2_2 I -0.59003(2) 0.287688(19) -0.44409(3)
I2A_2 I 0.59003(2) 0.287688(19) 0.94409(3)
N2A_2 N -0.6443(3) 0.2955(3) -0.1776(5)
loop_
_geom_bond_atom_site_label_1
_geom_bond_atom_site_label_2
_geom_bond_site_symmetry_1
_geom_bond_site_symmetry_2
Cu1 I1 1_555 1_555
Cu2 I1 1_555 1_555
I1 Cu1A_2 1_555 1_555
I2 Cu1 1_555 1_555
C1 H1 1_555 1_555
C2 C1 1_555 1_555
H2 C2 1_555 1_555
C3 C2 1_555 1_555
C4 C3 1_555 1_555
H3 C4 1_555 1_555
C5 C4 1_555 1_555
H4 C5 1_555 1_555
C6 C3 1_555 1_555
H5 C6 1_555 1_555
H6 C6 1_555 1_555
C7 H7 1_555 1_555
H8 C7 1_555 1_555
C8 H9 1_555 1_555
H10 C8 1_555 1_555
C9 H11 1_555 1_555
C10 C9 1_555 1_555
H12 C10 1_555 1_555
C11 C10 1_555 1_555
C12 C11 1_555 1_555
H13 C12 1_555 1_555
C13 C12 1_555 1_555
H14 C13 1_555 1_555
C14 C11 1_555 1_555
H15 C14 1_555 1_555
H16 C14 1_555 1_555
C15 H17 1_555 1_555
H18 C15 1_555 1_555
C16 H19 1_555 1_555
H20 C16 1_555 1_555
N1 Cu1 1_555 1_555
N2 Cu2 1_555 1_555
N3 C14 1_555 1_555
N4 C6 1_555 1_555
C1A H1A 1_555 1_555
C2A C1A 1_555 1_555
H2A C2A 1_555 1_555
C3A C2A 1_555 1_555
C4A C3A 1_555 1_555
H3A C4A 1_555 1_555
C5A C4A 1_555 1_555
H4A C5A 1_555 1_555
C6A C3A 1_555 1_555
H5A C6A 1_555 1_555
H6A C6A 1_555 1_555
C7A C7 1_555 1_555
H7A C7A 1_555 1_555
H8A C7A 1_555 1_555
C8A C8 1_555 1_555
H9A C8A 1_555 1_555
H10A C8A 1_555 1_555
N1A C1A 1_555 1_555
N4A C6A 1_555 1_555
C9A H11A 1_555 1_555
C10A C9A 1_555 1_555
H12A C10A 1_555 1_555
C11A C10A 1_555 1_555
C12A C11A 1_555 1_555
H13A C12A 1_555 1_555
C13A C12A 1_555 1_555
H14A C13A 1_555 1_555
C14A C11A 1_555 1_555
H15A C14A 1_555 1_555
H16A C14A 1_555 1_555
C15A C15 1_555 1_555
H17A C15A 1_555 1_555
H18A C15A 1_555 1_555
C16A C16 1_555 1_555
H19A C16A 1_555 1_555
H20A C16A 1_555 1_555
N2A C9A 1_555 1_555
N3A C14A 1_555 1_555
Cu1A N1A 1_555 1_555
Cu2A I1A 1_555 1_555
I1A Cu1A 1_555 1_555
I2A Cu1A 1_555 1_555
Cu1_2 I1A 1_555 1_555
Cu1A_2 I1A_2 1_555 1_555
Cu2_2 I2A 1_555 1_555
Cu2A_2 I2 1_555 1_555
Cu2A_3 N2A 1_555 1_555
I1_2 Cu1A 1_555 1_555
I1A_2 Cu1 1_555 1_555
I2_2 Cu2A 1_555 1_555
I2A_2 Cu2 1_555 1_555
N2A_2 Cu2A 1_555 1_555
Cu2 I2 1_555 1_555
C1 N1 1_555 1_555
C5 N1 1_555 1_555
C7 N4 1_555 1_555
C8 N4 1_555 1_555
C9 N2 1_555 1_555
C13 N2 1_555 1_555
C15 N3 1_555 1_555
C16 N3 1_555 1_555
C5A N1A 1_555 1_555
C7A N4A 1_555 1_555
C8A N4A 1_555 1_555
C13A N2A 1_555 1_555
C15A N3A 1_555 1_555
C16A N3A 1_555 1_555
Cu2A I2A 1_555 1_555
Cu1_2 I1_2 1_555 1_555
Cu1_2 I2_2 1_555 1_555
Cu1A_2 I2A_2 1_555 1_555
Cu2_2 I1_2 1_555 1_555
Cu2_2 I2_2 1_555 1_555
Cu2A_2 I1A_2 1_555 1_555
Cu2A_2 I2A_2 1_555 1_555

#END
