
#######################################################################
#
#                 Cambridge Crystallographic Data Centre
#                                CCDC 
#
#######################################################################
#
# If this CIF has been generated from an entry in the Cambridge 
# Structural Database, then it will include bibliographic, chemical, 
# crystal, experimental, refinement or atomic coordinate data resulting 
# from the CCDC's data processing and validation procedures.
#
#######################################################################

data_KITNIM01
_symmetry_cell_setting           monoclinic
_symmetry_space_group_name_H-M   'C 2/c'
_symmetry_Int_Tables_number      15
_space_group_name_Hall           '-C 2yn'
loop_
_symmetry_equiv_pos_site_id
_symmetry_equiv_pos_as_xyz
1 x,y,z
2 -x,y,1/2-z
3 1/2+x,1/2+y,z
4 1/2-x,1/2+y,1/2-z
5 -x,-y,-z
6 x,-y,1/2+z
7 1/2-x,1/2-y,-z
8 1/2+x,1/2-y,1/2+z
_cell_length_a                   18.4469(10)
_cell_length_b                   18.9875(11)
_cell_length_c                   12.1745(7)
_cell_angle_alpha                90
_cell_angle_beta                 114.5462(10)
_cell_angle_gamma                90
_cell_volume                     3878.87
loop_
_atom_site_label
_atom_site_type_symbol
_atom_site_fract_x
_atom_site_fract_y
_atom_site_fract_z
Cu1 Cu 0.43587(5) 0.15240(4) 0.63951(8)
Cu2 Cu 0.55496(5) 0.25243(4) 0.70976(8)
I1 I 0.57682(3) 0.11604(2) 0.65436(4)
I2 I 0.41005(3) 0.28790(2) 0.55560(4)
C1 C 0.2779(5) 0.0840(4) 0.5274(6)
H1 H 0.2726 0.1048 0.5948
C2 C 0.2152(5) 0.0444(4) 0.4492(6)
H2 H 0.1697 0.0364 0.4653
C3 C 0.2192(4) 0.0161(3) 0.3461(6)
C4 C 0.2886(5) 0.0285(4) 0.3307(7)
H3 H 0.2942 0.0103 0.2618
C5 C 0.3507(5) 0.0679(4) 0.4170(7)
H4 H 0.3979 0.0755 0.4053
C6 C 0.1545(5) -0.0301(4) 0.2581(7)
H5 H 0.1409 -0.0131 0.1751
H6 H 0.1750 -0.0788 0.2640
C7 C 0.0349(4) 0.0323(3) 0.2333(6)
H7 H 0.0155 0.0341 0.1443
H8 H 0.0681 0.0745 0.2676
C8 C 0.0362(4) -0.0939(4) 0.2337(7)
H9 H 0.0695 -0.1359 0.2690
H10 H 0.0176 -0.0960 0.1449
C9 C 0.6304(5) 0.3328(4) 0.5782(7)
H11 H 0.5769 0.3444 0.5266
C10 C 0.6912(5) 0.3552(4) 0.5475(7)
H12 H 0.6787 0.3803 0.4744
C11 C 0.7689(4) 0.3414(4) 0.6219(7)
C12 C 0.7853(5) 0.3038(4) 0.7278(7)
H13 H 0.8385 0.2931 0.7821
C13 C 0.7204(4) 0.2820(4) 0.7516(7)
H14 H 0.7308 0.2564 0.8237
C14 C 0.8363(5) 0.3687(5) 0.5898(7)
H15 H 0.8387 0.3393 0.5243
H16 H 0.8237 0.4175 0.5590
C15 C 0.9608(4) 0.4313(3) 0.6945(6)
H17 H 0.9299 0.4739 0.6947
H18 H 0.9712 0.4326 0.6210
C16 C 0.9616(5) 0.3051(4) 0.6942(7)
H19 H 0.9730 0.3048 0.6216
H20 H 0.9308 0.2621 0.6926
N1 N 0.3457(3) 0.0952(3) 0.5149(5)
N2 N 0.6450(4) 0.2955(3) 0.6777(6)
N3 N 0.9144(4) 0.3680(3) 0.6926(5)
N4 N 0.0829(4) -0.0311(3) 0.2794(6)
C1A C -0.2779(5) 0.0840(4) -0.0274(6)
H1A H -0.2726 0.1048 -0.0948
C2A C -0.2152(5) 0.0444(4) 0.0508(6)
H2A H -0.1697 0.0364 0.0347
C3A C -0.2192(4) 0.0161(3) 0.1539(6)
C4A C -0.2886(5) 0.0285(4) 0.1693(7)
H3A H -0.2942 0.0103 0.2382
C5A C -0.3507(5) 0.0679(4) 0.0830(7)
H4A H -0.3979 0.0755 0.0947
C6A C -0.1545(5) -0.0301(4) 0.2419(7)
H5A H -0.1409 -0.0131 0.3249
H6A H -0.1750 -0.0788 0.2360
C7A C -0.0349(4) 0.0323(3) 0.2667(6)
H7A H -0.0155 0.0341 0.3557
H8A H -0.0681 0.0745 0.2324
C8A C -0.0362(4) -0.0939(4) 0.2663(7)
H9A H -0.0695 -0.1359 0.2310
H10A H -0.0176 -0.0960 0.3551
N1A N -0.3457(3) 0.0952(3) -0.0149(5)
N4A N -0.0829(4) -0.0311(3) 0.2206(6)
C9A C 1.3696(5) 0.3328(4) 0.9218(7)
H11A H 1.4231 0.3444 0.9734
C10A C 1.3088(5) 0.3552(4) 0.9525(7)
H12A H 1.3213 0.3803 1.0256
C11A C 1.2311(4) 0.3414(4) 0.8781(7)
C12A C 1.2147(5) 0.3038(4) 0.7722(7)
H13A H 1.1615 0.2931 0.7179
C13A C 1.2796(4) 0.2820(4) 0.7484(7)
H14A H 1.2692 0.2564 0.6763
C14A C 1.1637(5) 0.3687(5) 0.9102(7)
H15A H 1.1613 0.3393 0.9757
H16A H 1.1763 0.4175 0.9410
C15A C 1.0392(4) 0.4313(3) 0.8055(6)
H17A H 1.0701 0.4739 0.8053
H18A H 1.0288 0.4326 0.8790
C16A C 1.0384(5) 0.3051(4) 0.8058(7)
H19A H 1.0270 0.3048 0.8784
H20A H 1.0692 0.2621 0.8074
N2A N 1.3550(4) 0.2955(3) 0.8223(6)
N3A N 1.0856(4) 0.3680(3) 0.8074(5)
Cu1A Cu -0.43587(5) 0.15240(4) -0.13951(8)
Cu2A Cu -0.55496(5) 0.25243(4) -0.20976(8)
I1A I -0.57682(3) 0.11604(2) -0.15436(4)
I2A I -0.41005(3) 0.28790(2) -0.05560(4)
Cu1_2 Cu -0.56413(5) 0.15240(4) -0.36049(8)
Cu1A_2 Cu 0.56413(5) 0.15240(4) 0.86049(8)
Cu2_2 Cu -0.44504(5) 0.25243(4) -0.29024(8)
Cu2A_2 Cu 0.44504(5) 0.25243(4) 0.79024(8)
Cu2A_3 Cu 1.44504(5) 0.25243(4) 0.79024(8)
I1_2 I -0.42318(3) 0.11604(2) -0.34564(4)
I1A_2 I 0.42318(3) 0.11604(2) 0.84564(4)
I2_2 I -0.58995(3) 0.28790(2) -0.44440(4)
I2A_2 I 0.58995(3) 0.28790(2) 0.94440(4)
N2A_2 N -0.6450(4) 0.2955(3) -0.1777(6)
loop_
_geom_bond_atom_site_label_1
_geom_bond_atom_site_label_2
_geom_bond_site_symmetry_1
_geom_bond_site_symmetry_2
Cu1 I1 1_555 1_555
Cu2 I1 1_555 1_555
I1 Cu1A_2 1_555 1_555
I2 Cu1 1_555 1_555
C1 H1 1_555 1_555
C2 C1 1_555 1_555
H2 C2 1_555 1_555
C3 C2 1_555 1_555
C4 C3 1_555 1_555
H3 C4 1_555 1_555
C5 C4 1_555 1_555
H4 C5 1_555 1_555
C6 C3 1_555 1_555
H5 C6 1_555 1_555
H6 C6 1_555 1_555
C7 H7 1_555 1_555
H8 C7 1_555 1_555
C8 H9 1_555 1_555
H10 C8 1_555 1_555
C9 H11 1_555 1_555
C10 C9 1_555 1_555
H12 C10 1_555 1_555
C11 C10 1_555 1_555
C12 C11 1_555 1_555
H13 C12 1_555 1_555
C13 C12 1_555 1_555
H14 C13 1_555 1_555
C14 C11 1_555 1_555
H15 C14 1_555 1_555
H16 C14 1_555 1_555
C15 H17 1_555 1_555
H18 C15 1_555 1_555
C16 H19 1_555 1_555
H20 C16 1_555 1_555
N1 Cu1 1_555 1_555
N2 Cu2 1_555 1_555
N3 C14 1_555 1_555
N4 C6 1_555 1_555
C1A H1A 1_555 1_555
C2A C1A 1_555 1_555
H2A C2A 1_555 1_555
C3A C2A 1_555 1_555
C4A C3A 1_555 1_555
H3A C4A 1_555 1_555
C5A C4A 1_555 1_555
H4A C5A 1_555 1_555
C6A C3A 1_555 1_555
H5A C6A 1_555 1_555
H6A C6A 1_555 1_555
C7A C7 1_555 1_555
H7A C7A 1_555 1_555
H8A C7A 1_555 1_555
C8A C8 1_555 1_555
H9A C8A 1_555 1_555
H10A C8A 1_555 1_555
N1A C1A 1_555 1_555
N4A C6A 1_555 1_555
C9A H11A 1_555 1_555
C10A C9A 1_555 1_555
H12A C10A 1_555 1_555
C11A C10A 1_555 1_555
C12A C11A 1_555 1_555
H13A C12A 1_555 1_555
C13A C12A 1_555 1_555
H14A C13A 1_555 1_555
C14A C11A 1_555 1_555
H15A C14A 1_555 1_555
H16A C14A 1_555 1_555
C15A C15 1_555 1_555
H17A C15A 1_555 1_555
H18A C15A 1_555 1_555
C16A C16 1_555 1_555
H19A C16A 1_555 1_555
H20A C16A 1_555 1_555
N2A C9A 1_555 1_555
N3A C14A 1_555 1_555
Cu1A N1A 1_555 1_555
Cu2A I1A 1_555 1_555
I1A Cu1A 1_555 1_555
I2A Cu1A 1_555 1_555
Cu1_2 I1A 1_555 1_555
Cu1A_2 I1A_2 1_555 1_555
Cu2_2 I2A 1_555 1_555
Cu2A_2 I2 1_555 1_555
Cu2A_3 N2A 1_555 1_555
I1_2 Cu1A 1_555 1_555
I1A_2 Cu1 1_555 1_555
I2_2 Cu2A 1_555 1_555
I2A_2 Cu2 1_555 1_555
N2A_2 Cu2A 1_555 1_555
Cu2 I2 1_555 1_555
C1 N1 1_555 1_555
C5 N1 1_555 1_555
C7 N4 1_555 1_555
C8 N4 1_555 1_555
C9 N2 1_555 1_555
C13 N2 1_555 1_555
C15 N3 1_555 1_555
C16 N3 1_555 1_555
C5A N1A 1_555 1_555
C7A N4A 1_555 1_555
C8A N4A 1_555 1_555
C13A N2A 1_555 1_555
C15A N3A 1_555 1_555
C16A N3A 1_555 1_555
Cu2A I2A 1_555 1_555
Cu1_2 I1_2 1_555 1_555
Cu1_2 I2_2 1_555 1_555
Cu1A_2 I2A_2 1_555 1_555
Cu2_2 I1_2 1_555 1_555
Cu2_2 I2_2 1_555 1_555
Cu2A_2 I1A_2 1_555 1_555
Cu2A_2 I2A_2 1_555 1_555

#END
