
#######################################################################
#
#                 Cambridge Crystallographic Data Centre
#                                CCDC 
#
#######################################################################
#
# If this CIF has been generated from an entry in the Cambridge 
# Structural Database, then it will include bibliographic, chemical, 
# crystal, experimental, refinement or atomic coordinate data resulting 
# from the CCDC's data processing and validation procedures.
#
#######################################################################

data_KITZUK
_symmetry_cell_setting           orthorhombic
_symmetry_space_group_name_H-M   'C c c a'
_symmetry_Int_Tables_number      68
_space_group_name_Hall           '-C 2b 2bc'
loop_
_symmetry_equiv_pos_site_id
_symmetry_equiv_pos_as_xyz
1 x,y,z
2 1/2-x,-y,z
3 -x,y,1/2-z
4 1/2+x,-y,1/2-z
5 1/2+x,1/2+y,z
6 -x,1/2-y,z
7 1/2-x,1/2+y,1/2-z
8 x,1/2-y,1/2-z
9 -x,-y,-z
10 1/2+x,y,-z
11 x,-y,1/2+z
12 1/2-x,y,1/2+z
13 1/2-x,1/2-y,-z
14 x,1/2+y,-z
15 1/2+x,1/2-y,1/2+z
16 -x,1/2+y,1/2+z
_cell_length_a                   13.8345(7)
_cell_length_b                   16.0014(8)
_cell_length_c                   20.2152(10)
_cell_angle_alpha                90
_cell_angle_beta                 90
_cell_angle_gamma                90
_cell_volume                     4475.07
loop_
_atom_site_label
_atom_site_type_symbol
_atom_site_fract_x
_atom_site_fract_y
_atom_site_fract_z
Zn1 Zn 0.5000 0.2500 0.446074(14)
S1 S 0.5000 0.13185(4) 0.2500
N1 N 0.39735(11) 0.28372(10) 0.51081(7)
N2 N 0.30926(12) 0.35726(9) 0.58167(7)
O1 O 0.46726(14) 0.16261(10) 0.38621(8)
C1 C 0.2500 0.5000 0.57997(12)
H1 H 0.2500 0.5000 0.5340
C2 C 0.35931(16) 0.14157(12) 0.55825(11)
H2 H 0.3981 0.1112 0.5293
C3 C 0.35149(14) 0.22793(12) 0.55400(9)
C4 C 0.29454(14) 0.27355(11) 0.59843(9)
N3 N 0.2500 0.5000 0.71821(11)
C5 C 0.23770(15) 0.23404(12) 0.64583(10)
H3 H 0.1968 0.2639 0.6737
C6 C 0.27572(14) 0.43240(12) 0.68401(9)
H4 H 0.2941 0.3847 0.7071
C7 C 0.37125(14) 0.35874(12) 0.52941(9)
H5 H 0.3926 0.4076 0.5092
C8 C 0.27621(13) 0.43012(11) 0.61544(9)
C9 C 0.48817(14) 0.08473(14) 0.38136(10)
C10 C 0.24534(16) 0.14814(13) 0.64923(11)
H6 H 0.2085 0.1193 0.6802
C11 C 0.30683(16) 0.10324(13) 0.60742(12)
H7 H 0.3124 0.0458 0.6130
C12 C 0.49538(13) 0.05711(12) 0.31082(9)
O2 O 0.50080(13) 0.03595(12) 0.42635(8)
C13 C 0.49843(14) -0.02128(12) 0.28492(9)
H8 H 0.4984 -0.0696 0.3104
O1B O 0.53274(14) 0.16261(10) 0.11379(8)
C9B C 0.51183(14) 0.08473(14) 0.11864(10)
C12B C 0.50462(13) 0.05711(12) 0.18918(9)
O2B O 0.49920(13) 0.03595(12) 0.07365(8)
C13B C 0.50157(14) -0.02128(12) 0.21508(9)
H8B H 0.5016 -0.0696 0.1896
N1A N 0.10265(11) 0.71628(10) 0.51081(7)
N2A N 0.19074(12) 0.64274(9) 0.58167(7)
C2A C 0.14069(16) 0.85843(12) 0.55825(11)
H2A H 0.1019 0.8888 0.5293
C3A C 0.14851(14) 0.77207(12) 0.55400(9)
C4A C 0.20546(14) 0.72645(11) 0.59843(9)
C5A C 0.26230(15) 0.76596(12) 0.64583(10)
H3A H 0.3032 0.7361 0.6737
C6A C 0.22428(14) 0.56760(12) 0.68401(9)
H4A H 0.2059 0.6153 0.7071
C7A C 0.12875(14) 0.64126(12) 0.52941(9)
H5A H 0.1074 0.5924 0.5092
C8A C 0.22379(13) 0.56988(11) 0.61544(9)
C10A C 0.25466(16) 0.85186(13) 0.64923(11)
H6A H 0.2915 0.8807 0.6802
C11A C 0.19317(16) 0.89676(13) 0.60742(12)
H7A H 0.1876 0.9542 0.6130
Zn1A Zn 0.0000 0.7500 0.446074(14)
Zn1B Zn 0.5000 0.2500 0.053926(14)
N1E N 0.60265(11) 0.21628(10) 0.51081(7)
O1E O 0.53274(14) 0.33739(10) 0.38621(8)
loop_
_geom_bond_atom_site_label_1
_geom_bond_atom_site_label_2
_geom_bond_site_symmetry_1
_geom_bond_site_symmetry_2
Zn1 N1 1_555 1_555
S1 C12 1_555 1_555
N1 C3 1_555 1_555
N2 C4 1_555 1_555
O1 Zn1 1_555 1_555
C1 H1 1_555 1_555
C2 H2 1_555 1_555
C3 C2 1_555 1_555
C4 C3 1_555 1_555
N3 C6 1_555 1_555
C5 C4 1_555 1_555
H3 C5 1_555 1_555
C6 H4 1_555 1_555
C7 N1 1_555 1_555
H5 C7 1_555 1_555
C8 N2 1_555 1_555
C9 O1 1_555 1_555
C10 C5 1_555 1_555
H6 C10 1_555 1_555
C11 C2 1_555 1_555
H7 C11 1_555 1_555
C12 C9 1_555 1_555
O2 C9 1_555 1_555
C13 C12 1_555 1_555
H8 C13 1_555 1_555
O1B C9B 1_555 1_555
C9B C12B 1_555 1_555
C12B S1 1_555 1_555
O2B C9B 1_555 1_555
C13B C13 1_555 1_555
H8B C13B 1_555 1_555
N1A C3A 1_555 1_555
N2A C4A 1_555 1_555
C2A H2A 1_555 1_555
C3A C2A 1_555 1_555
C4A C3A 1_555 1_555
C5A C4A 1_555 1_555
H3A C5A 1_555 1_555
C6A N3 1_555 1_555
H4A C6A 1_555 1_555
C7A N1A 1_555 1_555
H5A C7A 1_555 1_555
C8A C1 1_555 1_555
C10A C5A 1_555 1_555
H6A C10A 1_555 1_555
C11A C2A 1_555 1_555
H7A C11A 1_555 1_555
Zn1A N1A 1_555 1_555
Zn1B O1B 1_555 1_555
N1E Zn1 1_555 1_555
O1E Zn1 1_555 1_555
N2 C7 1_555 1_555
C1 C8 1_555 1_555
C6 C8 1_555 1_555
C10 C11 1_555 1_555
C12B C13B 1_555 1_555
N2A C7A 1_555 1_555
N2A C8A 1_555 1_555
C6A C8A 1_555 1_555
C10A C11A 1_555 1_555

#END
