
#######################################################################
#
#                 Cambridge Crystallographic Data Centre
#                                CCDC 
#
#######################################################################
#
# If this CIF has been generated from an entry in the Cambridge 
# Structural Database, then it will include bibliographic, chemical, 
# crystal, experimental, refinement or atomic coordinate data resulting 
# from the CCDC's data processing and validation procedures.
#
#######################################################################

data_KIVDOJ
_symmetry_cell_setting           triclinic
_symmetry_space_group_name_H-M   'P -1'
_symmetry_Int_Tables_number      2
_space_group_name_Hall           '-P 1'
loop_
_symmetry_equiv_pos_site_id
_symmetry_equiv_pos_as_xyz
1 x,y,z
2 -x,-y,-z
_cell_length_a                   6.383(2)
_cell_length_b                   12.333(3)
_cell_length_c                   13.507(2)
_cell_angle_alpha                97.427(3)
_cell_angle_beta                 93.019(2)
_cell_angle_gamma                95.519(3)
_cell_volume                     1047.2
loop_
_atom_site_label
_atom_site_type_symbol
_atom_site_fract_x
_atom_site_fract_y
_atom_site_fract_z
Cu1 Cu -0.2533(7) -0.2311(3) -0.4413(3)
Eu1 Eu -0.31751(13) -0.37785(7) -0.07122(6)
N1 N -0.285(3) -0.1736(13) -0.0329(13)
N2 N -0.518(5) -0.324(2) -0.463(2)
N3 N 0.018(4) -0.158(2) -0.4678(15)
O1 O -0.245(2) -0.2794(11) -0.2086(11)
O2 O -0.261(3) -0.1286(13) -0.2865(13)
O3 O -0.366(2) -0.3075(10) 0.0949(8)
O4 O -0.380(4) -0.1638(16) 0.2193(13)
O5 O -0.6979(19) -0.4684(10) -0.0234(9)
O6 O -0.943(2) -0.3225(10) -0.0029(11)
O7 O -0.672(2) -0.3230(11) -0.1244(11)
O8 O -0.990(2) -0.4572(10) -0.1457(11)
O9 O -0.436(2) -0.5367(11) -0.1979(11)
H1 H -0.5634 -0.5575 -0.1886
H2 H -0.3967 -0.5877 -0.1666
S1 S -0.8260(6) -0.3927(3) -0.0742(3)
C1 C -0.259(3) -0.1799(15) -0.2106(14)
C2 C -0.260(3) -0.1087(16) -0.1089(15)
C3 C -0.236(3) 0.0053(16) -0.0918(16)
H5 H -0.2195 0.0469 -0.1441
C4 C -0.237(3) 0.0567(19) 0.0103(18)
H6 H -0.2199 0.1330 0.0245
C5 C -0.263(3) -0.0080(14) 0.0894(15)
H7 H -0.2592 0.0246 0.1556
C6 C -0.295(3) -0.1210(15) 0.0646(14)
C7 C -0.343(4) -0.2052(12) 0.1340(11)
C8 C -0.607(6) -0.358(3) -0.388(3)
H8 H -0.5361 -0.3403 -0.3251
C9 C -0.817(6) -0.424(3) -0.395(3)
H9 H -0.8884 -0.4370 -0.3390
C10 C -0.902(6) -0.465(3) -0.495(2)
C11 C -0.788(6) -0.424(3) -0.571(3)
H10 H -0.8403 -0.4442 -0.6371
C12 C -0.598(6) -0.353(3) -0.553(3)
H11 H -0.5317 -0.3266 -0.6057
C13 C 0.150(4) -0.124(3) -0.382(2)
H12 H 0.1205 -0.1437 -0.3199
C14 C 0.333(5) -0.058(3) -0.399(2)
H13 H 0.4201 -0.0276 -0.3433
C15 C 0.397(4) -0.033(2) -0.4926(17)
C16 C 0.258(4) -0.082(3) -0.573(2)
H14 H 0.2933 -0.0714 -0.6377
C17 C 0.071(5) -0.145(3) -0.5631(19)
H15 H -0.0157 -0.1777 -0.6186
Cu1A Cu -1.7467(7) -0.7689(3) -0.5587(3)
Cu1A_2 Cu 1.2533(7) 0.2311(3) -0.5587(3)
Cu1_2 Cu -1.2533(7) -0.2311(3) -0.4413(3)
Eu1A Eu -0.68249(13) -0.62215(7) 0.07122(6)
Eu1A_2 Eu 0.31751(13) -0.62215(7) 0.07122(6)
Eu1_2 Eu -1.31751(13) -0.37785(7) -0.07122(6)
Eu1_3 Eu 0.68249(13) -0.37785(7) -0.07122(6)
N1_2 N -1.285(3) -0.1736(13) -0.0329(13)
N2A N -1.482(5) -0.676(2) -0.537(2)
N3A N 0.982(4) 0.158(2) -0.5322(15)
N3A_2 N -2.018(4) -0.842(2) -0.5322(15)
O1_2 O -1.245(2) -0.2794(11) -0.2086(11)
O2A O -1.739(3) -0.8714(13) -0.7135(13)
O2_2 O -1.261(3) -0.1286(13) -0.2865(13)
O3_2 O -1.366(2) -0.3075(10) 0.0949(8)
O4_2 O -1.380(4) -0.1638(16) 0.2193(13)
O5A O -0.3021(19) -0.5316(10) 0.0234(9)
O5_2 O 0.3021(19) -0.4684(10) -0.0234(9)
O5A_2 O -1.3021(19) -0.5316(10) 0.0234(9)
O5_3 O -1.6979(19) -0.4684(10) -0.0234(9)
O6_2 O 0.057(2) -0.3225(10) -0.0029(11)
O7_2 O 0.328(2) -0.3230(11) -0.1244(11)
O7_3 O -1.672(2) -0.3230(11) -0.1244(11)
O8_2 O 0.010(2) -0.4572(10) -0.1457(11)
O9_2 O -1.436(2) -0.5367(11) -0.1979(11)
H1_2 H -1.5634 -0.5575 -0.1886
H2_2 H -1.3967 -0.5877 -0.1666
S1_2 S 0.1740(6) -0.3927(3) -0.0742(3)
C1_2 C -1.259(3) -0.1799(15) -0.2106(14)
C2_2 C -1.260(3) -0.1087(16) -0.1089(15)
C3_2 C -1.236(3) 0.0053(16) -0.0918(16)
H5_2 H -1.2195 0.0469 -0.1441
C4_2 C -1.237(3) 0.0567(19) 0.0103(18)
H6_2 H -1.2199 0.1330 0.0245
C5_2 C -1.263(3) -0.0080(14) 0.0894(15)
H7_2 H -1.2592 0.0246 0.1556
C6_2 C -1.295(3) -0.1210(15) 0.0646(14)
C7_2 C -1.343(4) -0.2052(12) 0.1340(11)
C8A C -1.393(6) -0.642(3) -0.612(3)
H8A H -1.4639 -0.6597 -0.6749
C9A C -1.183(6) -0.576(3) -0.605(3)
H9A H -1.1116 -0.5630 -0.6610
C10A C -1.098(6) -0.535(3) -0.505(2)
C11A C -1.212(6) -0.576(3) -0.429(3)
H10A H -1.1597 -0.5558 -0.3629
C12A C -1.402(6) -0.647(3) -0.447(3)
H11A H -1.4683 -0.6734 -0.3943
C13A C 0.850(4) 0.124(3) -0.618(2)
H12A H 0.8795 0.1437 -0.6801
C14A C 0.667(5) 0.058(3) -0.601(2)
H13A H 0.5799 0.0276 -0.6567
C15A C 0.603(4) 0.033(2) -0.5074(17)
C16A C 0.742(4) 0.082(3) -0.427(2)
H14A H 0.7067 0.0714 -0.3623
C17A C 0.929(5) 0.145(3) -0.4369(19)
H15A H 1.0157 0.1777 -0.3814
O10 O -0.160(3) -0.7033(16) -0.2186(15)
H3 H -0.1425 -0.7183 -0.1593
H4 H -0.2700 -0.6696 -0.2201
loop_
_geom_bond_atom_site_label_1
_geom_bond_atom_site_label_2
_geom_bond_site_symmetry_1
_geom_bond_site_symmetry_2
Cu1 N2 1_555 1_555
Eu1 N1 1_555 1_555
N1 C2 1_555 1_555
N2 C8 1_555 1_555
N3 Cu1 1_555 1_555
O1 Eu1 1_555 1_555
O2 Cu1 1_555 1_555
O3 Eu1 1_555 1_555
O4 C7 1_555 1_555
O5 Eu1 1_555 1_555
O6 S1 1_555 1_555
O7 Eu1 1_555 1_555
O8 S1 1_555 1_555
O9 Eu1 1_555 1_555
H1 O9 1_555 1_555
H2 O9 1_555 1_555
O10 H3 1_555 1_555
H4 O10 1_555 1_555
S1 O5 1_555 1_555
C1 O1 1_555 1_555
C2 C1 1_555 1_555
C3 C2 1_555 1_555
H5 C3 1_555 1_555
C4 C3 1_555 1_555
H6 C4 1_555 1_555
C5 C4 1_555 1_555
H7 C5 1_555 1_555
C6 N1 1_555 1_555
C7 O3 1_555 1_555
C8 H8 1_555 1_555
C9 C8 1_555 1_555
H9 C9 1_555 1_555
C10 C9 1_555 1_555
C11 C10 1_555 1_555
H10 C11 1_555 1_555
C12 N2 1_555 1_555
H11 C12 1_555 1_555
C13 N3 1_555 1_555
H12 C13 1_555 1_555
C14 C13 1_555 1_555
H13 C14 1_555 1_555
C15 C14 1_555 1_555
C16 C15 1_555 1_555
H14 C16 1_555 1_555
C17 N3 1_555 1_555
H15 C17 1_555 1_555
Cu1A N2A 1_555 1_555
Cu1A_2 N3A 1_555 1_555
Cu1_2 O2_2 1_555 1_555
Eu1A O5 1_555 1_555
Eu1A_2 O5_2 1_555 1_555
Eu1_2 O6 1_555 1_555
Eu1_3 O5_2 1_555 1_555
N1_2 Eu1_2 1_555 1_555
N2A C8A 1_555 1_555
N3A C13A 1_555 1_555
N3A_2 Cu1A 1_555 1_555
O1_2 Eu1_2 1_555 1_555
O2A Cu1A 1_555 1_555
O2_2 C1_2 1_555 1_555
O3_2 Eu1_2 1_555 1_555
O4_2 C7_2 1_555 1_555
O5A Eu1 1_555 1_555
O5_2 S1_2 1_555 1_555
O5A_2 Eu1_2 1_555 1_555
O5_3 Eu1_2 1_555 1_555
O6_2 Eu1 1_555 1_555
O7_2 Eu1_3 1_555 1_555
O7_3 Eu1_2 1_555 1_555
O8_2 Eu1 1_555 1_555
O9_2 Eu1_2 1_555 1_555
H1_2 O9_2 1_555 1_555
H2_2 O9_2 1_555 1_555
S1_2 O6_2 1_555 1_555
C1_2 O1_2 1_555 1_555
C2_2 N1_2 1_555 1_555
C3_2 C2_2 1_555 1_555
H5_2 C3_2 1_555 1_555
C4_2 C3_2 1_555 1_555
H6_2 C4_2 1_555 1_555
C5_2 C4_2 1_555 1_555
H7_2 C5_2 1_555 1_555
C6_2 N1_2 1_555 1_555
C7_2 O3_2 1_555 1_555
C8A H8A 1_555 1_555
C9A C8A 1_555 1_555
H9A C9A 1_555 1_555
C10A C10 1_555 1_555
C11A C10A 1_555 1_555
H10A C11A 1_555 1_555
C12A N2A 1_555 1_555
H11A C12A 1_555 1_555
C13A H12A 1_555 1_555
C14A C13A 1_555 1_555
H13A C14A 1_555 1_555
C15A C15 1_555 1_555
C16A C15A 1_555 1_555
H14A C16A 1_555 1_555
C17A N3A 1_555 1_555
H15A C17A 1_555 1_555
O2 C1 1_555 1_555
O7 S1 1_555 1_555
O8 Eu1_2 1_555 1_555
C5 C6 1_555 1_555
C6 C7 1_555 1_555
C11 C12 1_555 1_555
C16 C17 1_555 1_555
Eu1A O5A 1_555 1_555
O7_2 S1_2 1_555 1_555
O8_2 S1_2 1_555 1_555
C1_2 C2_2 1_555 1_555
C5_2 C6_2 1_555 1_555
C6_2 C7_2 1_555 1_555
C9A C10A 1_555 1_555
C11A C12A 1_555 1_555
C14A C15A 1_555 1_555
C16A C17A 1_555 1_555

#END
