
#######################################################################
#
#                 Cambridge Crystallographic Data Centre
#                                CCDC 
#
#######################################################################
#
# If this CIF has been generated from an entry in the Cambridge 
# Structural Database, then it will include bibliographic, chemical, 
# crystal, experimental, refinement or atomic coordinate data resulting 
# from the CCDC's data processing and validation procedures.
#
#######################################################################

data_KIVDID
_symmetry_cell_setting           triclinic
_symmetry_space_group_name_H-M   'P -1'
_symmetry_Int_Tables_number      2
_space_group_name_Hall           '-P 1'
loop_
_symmetry_equiv_pos_site_id
_symmetry_equiv_pos_as_xyz
1 x,y,z
2 -x,-y,-z
_cell_length_a                   6.3467(16)
_cell_length_b                   12.237(3)
_cell_length_c                   13.363(4)
_cell_angle_alpha                97.447(3)
_cell_angle_beta                 93.032(3)
_cell_angle_gamma                95.620(3)
_cell_volume                     1021.87
loop_
_atom_site_label
_atom_site_type_symbol
_atom_site_fract_x
_atom_site_fract_y
_atom_site_fract_z
O1 O 1.0564(9) 0.6753(5) 0.4970(5)
O2 O 1.0093(10) 0.5428(5) 0.3524(5)
Sm1 Sm 0.68260(6) 0.62180(3) 0.42820(3)
Cu1 Cu 0.7459(4) 0.76889(16) 0.05788(15)
N1 N 0.7152(11) 0.8300(6) 0.4667(6)
N2 N 0.486(3) 0.6730(12) 0.0373(10)
N3 N 1.016(2) 0.8450(12) 0.0324(9)
O3 O 0.7552(10) 0.7206(6) 0.2900(5)
O4 O 0.7339(16) 0.8703(7) 0.2122(6)
O5 O 0.6467(11) 0.6970(6) 0.5998(5)
O6 O 0.624(2) 0.8335(9) 0.7224(8)
O7 O 1.3284(10) 0.6757(5) 0.3746(5)
O8 O 1.3042(10) 0.5343(5) 0.4760(5)
O9 O 0.5631(12) 0.4623(6) 0.2999(5)
H1 H 0.5022 0.4066 0.3242
H2 H 0.6892 0.4458 0.2889
S1 S 1.1724(3) 0.60709(17) 0.42337(16)
C1 C 0.7459(15) 0.8228(8) 0.2895(8)
C2 C 0.7421(14) 0.8904(7) 0.3916(8)
C3 C 0.7617(17) 1.0052(9) 0.4096(10)
H5 H 0.7750 1.0465 0.3561
C4 C 0.7613(16) 1.0572(9) 0.5060(10)
H6 H 0.7794 1.1341 0.5195
C5 C 0.7332(15) 0.9930(8) 0.5844(9)
H7 H 0.7341 1.0267 0.6510
C6 C 0.7039(14) 0.8777(8) 0.5617(8)
C7 C 0.6579(18) 0.7974(8) 0.6342(8)
C8 C 0.379(3) 0.6445(16) 0.1125(13)
H8 H 0.4356 0.6706 0.1779
C9 C 0.180(4) 0.5758(16) 0.1013(13)
H9 H 0.1084 0.5603 0.1577
C10 C 0.099(3) 0.5347(14) 0.0081(11)
C11 C 0.214(3) 0.5652(17) -0.0706(12)
H10 H 0.1662 0.5373 -0.1368
C12 C 0.399(3) 0.6368(16) -0.0524(12)
H11 H 0.4642 0.6604 -0.1077
C13 C 1.142(3) 0.8951(17) 0.1068(13)
H12 H 1.1045 0.8870 0.1719
C14 C 1.329(3) 0.9599(17) 0.0973(12)
H13 H 1.4069 0.9980 0.1544
C15 C 1.397(3) 0.9672(14) 0.0067(11)
C16 C 1.273(3) 0.9115(16) -0.0721(13)
H14 H 1.3172 0.9130 -0.1372
C17 C 1.087(3) 0.8536(16) -0.0592(12)
H15 H 1.0049 0.8184 -0.1160
O1_2 O 0.0564(9) 0.6753(5) 0.4970(5)
O2_2 O 0.0093(10) 0.5428(5) 0.3524(5)
Sm1_2 Sm -0.31740(6) 0.62180(3) 0.42820(3)
Sm1_3 Sm 1.68260(6) 0.62180(3) 0.42820(3)
Sm1A Sm 1.31740(6) 0.37820(3) 0.57180(3)
Sm1A_2 Sm 0.31740(6) 0.37820(3) 0.57180(3)
Cu1A Cu -0.7459(4) 0.23111(16) -0.05788(15)
Cu1A_2 Cu 2.2541(4) 1.23111(16) -0.05788(15)
Cu1_2 Cu -0.2541(4) 0.76889(16) 0.05788(15)
N1_2 N -0.2848(11) 0.8300(6) 0.4667(6)
N2A N -0.486(3) 0.3270(12) -0.0373(10)
N3A N 1.984(2) 1.1550(12) -0.0324(9)
N3A_2 N -1.016(2) 0.1550(12) -0.0324(9)
O3_2 O -0.2448(10) 0.7206(6) 0.2900(5)
O4_2 O -0.2661(16) 0.8703(7) 0.2122(6)
O4A O -0.7339(16) 0.1297(7) -0.2122(6)
O5_2 O -0.3533(11) 0.6970(6) 0.5998(5)
O6_2 O -0.376(2) 0.8335(9) 0.7224(8)
O7_2 O 0.3284(10) 0.6757(5) 0.3746(5)
O7_3 O -0.6716(10) 0.6757(5) 0.3746(5)
O8_2 O 0.3042(10) 0.5343(5) 0.4760(5)
O8A O 0.6958(10) 0.4657(5) 0.5240(5)
O8_3 O -0.6958(10) 0.5343(5) 0.4760(5)
O8A_2 O -0.3042(10) 0.4657(5) 0.5240(5)
O9_2 O -0.4369(12) 0.4623(6) 0.2999(5)
H1_2 H -0.4978 0.4066 0.3242
H2_2 H -0.3108 0.4458 0.2889
S1_2 S 0.1724(3) 0.60709(17) 0.42337(16)
C1_2 C -0.2541(15) 0.8228(8) 0.2895(8)
C2_2 C -0.2579(14) 0.8904(7) 0.3916(8)
C3_2 C -0.2383(17) 1.0052(9) 0.4096(10)
H5_2 H -0.2250 1.0465 0.3561
C4_2 C -0.2387(16) 1.0572(9) 0.5060(10)
H6_2 H -0.2206 1.1341 0.5195
C5_2 C -0.2668(15) 0.9930(8) 0.5844(9)
H7_2 H -0.2659 1.0267 0.6510
C6_2 C -0.2961(14) 0.8777(8) 0.5617(8)
C7_2 C -0.3421(18) 0.7974(8) 0.6342(8)
C8A C -0.379(3) 0.3555(16) -0.1125(13)
H8A H -0.4356 0.3294 -0.1779
C9A C -0.180(4) 0.4242(16) -0.1013(13)
H9A H -0.1084 0.4397 -0.1577
C10A C -0.099(3) 0.4653(14) -0.0081(11)
C11A C -0.214(3) 0.4348(17) 0.0706(12)
H10A H -0.1662 0.4627 0.1368
C12A C -0.399(3) 0.3632(16) 0.0524(12)
H11A H -0.4642 0.3396 0.1077
C13A C 1.858(3) 1.1049(17) -0.1068(13)
H12A H 1.8955 1.1130 -0.1719
C14A C 1.671(3) 1.0401(17) -0.0973(12)
H13A H 1.5931 1.0020 -0.1544
C15A C 1.603(3) 1.0328(14) -0.0067(11)
C16A C 1.727(3) 1.0885(16) 0.0721(13)
H14A H 1.6828 1.0870 0.1372
C17A C 1.913(3) 1.1464(16) 0.0592(12)
H15A H 1.9951 1.1816 0.1160
O10 O 0.8425(19) 0.2919(9) 0.2843(8)
H3 H 0.8844 0.2879 0.3459
H4 H 0.8018 0.3571 0.2865
loop_
_geom_bond_atom_site_label_1
_geom_bond_atom_site_label_2
_geom_bond_site_symmetry_1
_geom_bond_site_symmetry_2
O1 Sm1 1_555 1_555
O2 Sm1 1_555 1_555
Sm1 N1 1_555 1_555
Cu1 N2 1_555 1_555
N1 C2 1_555 1_555
N2 C8 1_555 1_555
N3 Cu1 1_555 1_555
O3 Sm1 1_555 1_555
O4 Cu1 1_555 1_555
O5 Sm1 1_555 1_555
O6 C7 1_555 1_555
O7 S1 1_555 1_555
O8 S1 1_555 1_555
O9 Sm1 1_555 1_555
H1 O9 1_555 1_555
H2 O9 1_555 1_555
O10 H3 1_555 1_555
H4 O10 1_555 1_555
S1 O1 1_555 1_555
C1 O3 1_555 1_555
C2 C1 1_555 1_555
C3 C2 1_555 1_555
H5 C3 1_555 1_555
C4 C3 1_555 1_555
H6 C4 1_555 1_555
C5 C4 1_555 1_555
H7 C5 1_555 1_555
C6 N1 1_555 1_555
C7 O5 1_555 1_555
C8 H8 1_555 1_555
C9 C8 1_555 1_555
H9 C9 1_555 1_555
C10 C9 1_555 1_555
C11 C10 1_555 1_555
H10 C11 1_555 1_555
C12 N2 1_555 1_555
H11 C12 1_555 1_555
C13 N3 1_555 1_555
H12 C13 1_555 1_555
C14 C13 1_555 1_555
H13 C14 1_555 1_555
C15 C14 1_555 1_555
C16 C15 1_555 1_555
H14 C16 1_555 1_555
C17 N3 1_555 1_555
H15 C17 1_555 1_555
O1_2 Sm1_2 1_555 1_555
O2_2 Sm1_2 1_555 1_555
Sm1_2 N1_2 1_555 1_555
Sm1_3 O7 1_555 1_555
Sm1A O8 1_555 1_555
Sm1A_2 O8_2 1_555 1_555
Cu1A N2A 1_555 1_555
Cu1A_2 N3A 1_555 1_555
Cu1_2 O4_2 1_555 1_555
N1_2 C2_2 1_555 1_555
N2A C8A 1_555 1_555
N3A C13A 1_555 1_555
N3A_2 Cu1A 1_555 1_555
O3_2 Sm1_2 1_555 1_555
O4_2 C1_2 1_555 1_555
O4A Cu1A 1_555 1_555
O5_2 Sm1_2 1_555 1_555
O6_2 C7_2 1_555 1_555
O7_2 Sm1 1_555 1_555
O7_3 Sm1_2 1_555 1_555
O8_2 Sm1 1_555 1_555
O8A Sm1 1_555 1_555
O8_3 Sm1_2 1_555 1_555
O8A_2 Sm1_2 1_555 1_555
O9_2 Sm1_2 1_555 1_555
H1_2 O9_2 1_555 1_555
H2_2 O9_2 1_555 1_555
S1_2 O1_2 1_555 1_555
C1_2 O3_2 1_555 1_555
C2_2 C1_2 1_555 1_555
C3_2 C2_2 1_555 1_555
H5_2 C3_2 1_555 1_555
C4_2 C3_2 1_555 1_555
H6_2 C4_2 1_555 1_555
C5_2 C4_2 1_555 1_555
H7_2 C5_2 1_555 1_555
C6_2 N1_2 1_555 1_555
C7_2 O5_2 1_555 1_555
C8A H8A 1_555 1_555
C9A C8A 1_555 1_555
H9A C9A 1_555 1_555
C10A C10 1_555 1_555
C11A C10A 1_555 1_555
H10A C11A 1_555 1_555
C12A N2A 1_555 1_555
H11A C12A 1_555 1_555
C13A H12A 1_555 1_555
C14A C13A 1_555 1_555
H13A C14A 1_555 1_555
C15A C15 1_555 1_555
C16A C15A 1_555 1_555
H14A C16A 1_555 1_555
C17A N3A 1_555 1_555
H15A C17A 1_555 1_555
O2 S1 1_555 1_555
O4 C1 1_555 1_555
O8 Sm1_3 1_555 1_555
C5 C6 1_555 1_555
C6 C7 1_555 1_555
C11 C12 1_555 1_555
C16 C17 1_555 1_555
O2_2 S1_2 1_555 1_555
Sm1A_2 O8A 1_555 1_555
O7_2 S1_2 1_555 1_555
O8_2 S1_2 1_555 1_555
C5_2 C6_2 1_555 1_555
C6_2 C7_2 1_555 1_555
C9A C10A 1_555 1_555
C11A C12A 1_555 1_555
C14A C15A 1_555 1_555
C16A C17A 1_555 1_555

#END
