
#######################################################################
#
#                 Cambridge Crystallographic Data Centre
#                                CCDC 
#
#######################################################################
#
# If this CIF has been generated from an entry in the Cambridge 
# Structural Database, then it will include bibliographic, chemical, 
# crystal, experimental, refinement or atomic coordinate data resulting 
# from the CCDC's data processing and validation procedures.
#
#######################################################################

data_KIVDUP
_symmetry_cell_setting           triclinic
_symmetry_space_group_name_H-M   'P -1'
_symmetry_Int_Tables_number      2
_space_group_name_Hall           '-P 1'
loop_
_symmetry_equiv_pos_site_id
_symmetry_equiv_pos_as_xyz
1 x,y,z
2 -x,-y,-z
_cell_length_a                   12.648(3)
_cell_length_b                   13.225(3)
_cell_length_c                   14.475(3)
_cell_angle_alpha                87.804(3)
_cell_angle_beta                 67.298(2)
_cell_angle_gamma                66.926(3)
_cell_volume                     2036.68
loop_
_atom_site_label
_atom_site_type_symbol
_atom_site_fract_x
_atom_site_fract_y
_atom_site_fract_z
Cu1 Cu 0.47552(13) -0.22242(11) 0.05309(11)
Cu2 Cu 1.05591(13) 0.24030(12) -0.06388(10)
Gd1 Gd 0.31286(4) -0.37559(4) 0.43283(3)
Gd2 Gd -0.18282(4) -0.37938(4) 0.42592(3)
N1 N 0.2092(7) -0.1693(6) 0.4694(6)
N2 N -0.2916(7) -0.1745(6) 0.4654(5)
N3 N 0.5788(8) -0.1410(7) 0.0281(6)
N4 N 0.9412(7) 0.1706(7) -0.0368(6)
N5 N 0.4070(8) -0.3201(7) 0.0321(6)
N6 N 0.1302(8) -0.6652(7) -0.0449(6)
O1 O 0.1378(6) -0.3222(5) 0.3789(5)
O2 O 0.1419(5) -0.4655(5) 0.4805(4)
O3 O -0.0613(5) -0.3235(5) 0.4977(4)
O4 O 0.0572(6) -0.4558(5) 0.3529(4)
O5 O 0.6478(5) -0.4682(5) 0.4759(4)
O6 O 0.6381(6) -0.3261(5) 0.3747(4)
O7 O 0.5538(6) -0.4587(5) 0.3553(4)
O8 O 0.4428(5) -0.3260(5) 0.4990(4)
O9 O 0.3760(6) -0.2822(5) 0.2935(4)
O10 O 0.3402(7) -0.1320(6) 0.2143(5)
O11 O 0.1702(6) -0.3010(5) 0.6026(5)
O12 O 0.0315(9) -0.1604(7) 0.7257(6)
O13 O -0.1324(6) -0.2809(5) 0.2872(5)
O14 O -0.1882(7) -0.1298(6) 0.2125(5)
O15 O -0.3233(6) -0.3096(5) 0.5969(4)
O16 O -0.4713(9) -0.1734(7) 0.7195(6)
O17 O 0.3929(6) -0.5314(5) 0.3043(4)
H1 H 0.3511 -0.5676 0.3372
H2 H 0.4690 -0.5722 0.2930
O18 O -0.0981(6) -0.5363(5) 0.2984(5)
H3 H -0.1351 -0.5800 0.3109
H4 H -0.0315 -0.5691 0.3085
S1 S 0.0687(2) -0.39135(18) 0.42599(16)
S2 S 0.5697(2) -0.39435(18) 0.42501(16)
C1 C 0.3229(9) -0.1791(8) 0.2917(7)
C2 C 0.2322(9) -0.1085(8) 0.3921(7)
C3 C 0.1771(9) 0.0062(8) 0.4073(8)
H9 H 0.1913 0.0470 0.3536
C4 C 0.0995(10) 0.0586(8) 0.5063(8)
H10 H 0.0635 0.1356 0.5197
C5 C 0.0763(9) -0.0047(8) 0.5845(8)
H11 H 0.0238 0.0296 0.6504
C6 C 0.1322(9) -0.1195(8) 0.5633(8)
C7 C 0.1071(10) -0.1973(9) 0.6370(7)
C8 C -0.1920(9) -0.1772(9) 0.2883(7)
C9 C -0.2725(9) -0.1115(8) 0.3911(7)
C10 C -0.3284(9) 0.0041(8) 0.4118(8)
H12 H -0.3162 0.0473 0.3596
C11 C -0.4028(9) 0.0542(8) 0.5118(9)
H13 H -0.4382 0.1310 0.5270
C12 C -0.4239(9) -0.0115(8) 0.5888(8)
H14 H -0.4740 0.0200 0.6558
C13 C -0.3667(9) -0.1268(8) 0.5613(7)
C14 C -0.3906(9) -0.2072(9) 0.6340(7)
C15 C 0.5585(10) -0.0698(9) 0.1034(7)
H15 H 0.4927 -0.0599 0.1656
C16 C 0.6306(10) -0.0107(9) 0.0929(7)
H16 H 0.6127 0.0380 0.1469
C17 C 0.7297(8) -0.0244(8) 0.0016(7)
C18 C 0.7489(10) -0.0958(9) -0.0753(7)
H17 H 0.8126 -0.1053 -0.1387
C19 C 0.6750(10) -0.1535(9) -0.0598(8)
H18 H 0.6927 -0.2034 -0.1128
C20 C 0.9193(10) 0.1421(9) -0.1126(8)
H19 H 0.9496 0.1668 -0.1744
C21 C 0.8530(9) 0.0770(8) -0.1032(7)
H20 H 0.8427 0.0559 -0.1586
C22 C 0.8033(9) 0.0445(8) -0.0119(7)
C23 C 0.8245(9) 0.0751(8) 0.0673(7)
H21 H 0.7930 0.0525 0.1301
C24 C 0.8921(9) 0.1388(8) 0.0539(7)
H22 H 0.9040 0.1602 0.1083
C25 C 0.3578(11) -0.3736(9) 0.1032(8)
H23 H 0.3628 -0.3665 0.1648
C26 C 0.3005(11) -0.4380(9) 0.0936(8)
H24 H 0.2643 -0.4700 0.1484
C27 C 0.2964(9) -0.4557(8) 0.0024(7)
C28 C 0.3458(10) -0.4000(9) -0.0737(7)
H25 H 0.3417 -0.4062 -0.1359
C29 C 0.4004(10) -0.3361(9) -0.0569(8)
H26 H 0.4353 -0.3013 -0.1098
C30 C 0.0878(10) -0.6076(10) 0.0459(8)
H27 H 0.0209 -0.6142 0.0990
C31 C 0.1377(10) -0.5402(9) 0.0640(7)
H28 H 0.1053 -0.5018 0.1280
C32 C 0.2392(9) -0.5295(8) -0.0156(7)
C33 C 0.2816(10) -0.5868(9) -0.1086(7)
H29 H 0.3468 -0.5803 -0.1637
C34 C 0.2260(10) -0.6539(9) -0.1192(8)
H30 H 0.2572 -0.6939 -0.1823
Cu2_2 Cu 0.05591(13) -0.75970(12) -0.06388(10)
Cu2A Cu -0.05591(13) -0.24030(12) 0.06388(10)
Gd1A Gd 0.68714(4) -0.62441(4) 0.56717(3)
Gd2A Gd 0.18282(4) -0.62062(4) 0.57408(3)
Gd2_2 Gd 0.81718(4) -0.37938(4) 0.42592(3)
N6_2 N 1.1302(8) 0.3348(7) -0.0449(6)
O2A O -0.1419(5) -0.5345(5) 0.5195(4)
O5A O 0.3522(5) -0.5318(5) 0.5241(4)
O5_2 O -0.3522(5) -0.4682(5) 0.4759(4)
O6_2 O -0.3619(6) -0.3261(5) 0.3747(4)
O14A O 1.1882(7) 0.1298(6) -0.2125(5)
O19 O 0.6328(8) -0.7097(8) 0.2819(6)
H5 H 0.5972 -0.7523 0.2814
H6 H 0.6322 -0.7077 0.3408
O20 O 0.1346(9) -0.6990(8) 0.2829(6)
H7 H 0.1244 -0.7180 0.3414
H8 H 0.1136 -0.6294 0.2901
loop_
_geom_bond_atom_site_label_1
_geom_bond_atom_site_label_2
_geom_bond_site_symmetry_1
_geom_bond_site_symmetry_2
Cu1 N3 1_555 1_555
Cu2 N4 1_555 1_555
Gd1 N1 1_555 1_555
Gd2 N2 1_555 1_555
N1 C2 1_555 1_555
N2 C9 1_555 1_555
N3 C15 1_555 1_555
N4 C20 1_555 1_555
N5 Cu1 1_555 1_555
N6 C30 1_555 1_555
O1 Gd1 1_555 1_555
O2 Gd1 1_555 1_555
O3 Gd2 1_555 1_555
O4 Gd2 1_555 1_555
O5 S2 1_555 1_555
O6 S2 1_555 1_555
O7 Gd1 1_555 1_555
O8 Gd1 1_555 1_555
O9 Gd1 1_555 1_555
O10 Cu1 1_555 1_555
O11 Gd1 1_555 1_555
O12 C7 1_555 1_555
O13 Gd2 1_555 1_555
O14 C8 1_555 1_555
O15 Gd2 1_555 1_555
O16 C14 1_555 1_555
O17 Gd1 1_555 1_555
H1 O17 1_555 1_555
H2 O17 1_555 1_555
O18 Gd2 1_555 1_555
H3 O18 1_555 1_555
H4 O18 1_555 1_555
O19 H5 1_555 1_555
H6 O19 1_555 1_555
O20 H7 1_555 1_555
H8 O20 1_555 1_555
S1 O1 1_555 1_555
S2 O7 1_555 1_555
C1 O9 1_555 1_555
C2 C1 1_555 1_555
C3 C2 1_555 1_555
H9 C3 1_555 1_555
C4 C3 1_555 1_555
H10 C4 1_555 1_555
C5 C4 1_555 1_555
H11 C5 1_555 1_555
C6 N1 1_555 1_555
C7 O11 1_555 1_555
C8 O13 1_555 1_555
C9 C8 1_555 1_555
C10 C9 1_555 1_555
H12 C10 1_555 1_555
C11 C10 1_555 1_555
H13 C11 1_555 1_555
C12 C11 1_555 1_555
H14 C12 1_555 1_555
C13 N2 1_555 1_555
C14 O15 1_555 1_555
C15 H15 1_555 1_555
C16 C15 1_555 1_555
H16 C16 1_555 1_555
C17 C16 1_555 1_555
C18 C17 1_555 1_555
H17 C18 1_555 1_555
C19 N3 1_555 1_555
H18 C19 1_555 1_555
C20 H19 1_555 1_555
C21 C20 1_555 1_555
H20 C21 1_555 1_555
C22 C17 1_555 1_555
C23 C22 1_555 1_555
H21 C23 1_555 1_555
C24 N4 1_555 1_555
H22 C24 1_555 1_555
C25 N5 1_555 1_555
H23 C25 1_555 1_555
C26 C25 1_555 1_555
H24 C26 1_555 1_555
C27 C26 1_555 1_555
C28 C27 1_555 1_555
H25 C28 1_555 1_555
C29 N5 1_555 1_555
H26 C29 1_555 1_555
C30 H27 1_555 1_555
C31 C30 1_555 1_555
H28 C31 1_555 1_555
C32 C27 1_555 1_555
C33 C32 1_555 1_555
H29 C33 1_555 1_555
C34 N6 1_555 1_555
H30 C34 1_555 1_555
Cu2_2 N6 1_555 1_555
Cu2A O14 1_555 1_555
Gd1A O5 1_555 1_555
Gd2A O2 1_555 1_555
Gd2_2 O5 1_555 1_555
N6_2 Cu2 1_555 1_555
O2A Gd2 1_555 1_555
O5A Gd1 1_555 1_555
O5_2 Gd2 1_555 1_555
O6_2 Gd2 1_555 1_555
O14A Cu2 1_555 1_555
O2 S1 1_555 1_555
O3 S1 1_555 1_555
O4 S1 1_555 1_555
O6 Gd2_2 1_555 1_555
O8 S2 1_555 1_555
O10 C1 1_555 1_555
C5 C6 1_555 1_555
C6 C7 1_555 1_555
C12 C13 1_555 1_555
C13 C14 1_555 1_555
C18 C19 1_555 1_555
C21 C22 1_555 1_555
C23 C24 1_555 1_555
C28 C29 1_555 1_555
C31 C32 1_555 1_555
C33 C34 1_555 1_555
Gd2A O5A 1_555 1_555

#END
