
#######################################################################
#
#                 Cambridge Crystallographic Data Centre
#                                CCDC 
#
#######################################################################
#
# If this CIF has been generated from an entry in the Cambridge 
# Structural Database, then it will include bibliographic, chemical, 
# crystal, experimental, refinement or atomic coordinate data resulting 
# from the CCDC's data processing and validation procedures.
#
#######################################################################

data_KIVFEB
_symmetry_cell_setting           triclinic
_symmetry_space_group_name_H-M   'P -1'
_symmetry_Int_Tables_number      2
_space_group_name_Hall           '-P 1'
loop_
_symmetry_equiv_pos_site_id
_symmetry_equiv_pos_as_xyz
1 x,y,z
2 -x,-y,-z
_cell_length_a                   12.624(2)
_cell_length_b                   13.208(3)
_cell_length_c                   14.457(3)
_cell_angle_alpha                87.744(2)
_cell_angle_beta                 67.324(2)
_cell_angle_gamma                66.785(2)
_cell_volume                     2026
loop_
_atom_site_label
_atom_site_type_symbol
_atom_site_fract_x
_atom_site_fract_y
_atom_site_fract_z
Tb1 Tb -0.31693(3) -0.12109(2) 0.07347(2)
Tb2 Tb 0.18710(3) -0.12473(2) 0.06661(2)
Cu1 Cu -0.44482(10) -0.25949(9) 0.43639(8)
Cu2 Cu -0.02437(10) 0.27718(9) 0.55342(9)
N1 N -0.2079(5) -0.3259(5) 0.0327(4)
N2 N 0.2906(5) -0.3296(4) 0.0304(5)
N3 N -0.3705(6) -0.1656(5) 0.4555(5)
N4 N -0.5595(6) -0.3285(5) 0.4630(5)
N5 N -0.9207(6) -0.6418(5) 0.5292(5)
N6 N -0.0933(6) 0.1796(5) 0.5311(5)
O1 O -0.3680(5) -0.2177(4) 0.2121(4)
O2 O -0.3120(5) -0.3701(5) 0.2866(4)
O3 O -0.1768(5) -0.1896(4) -0.0970(4)
O4 O -0.0288(7) -0.3255(5) -0.2203(5)
O5 O 0.1254(5) -0.2171(4) 0.2048(4)
O6 O 0.1600(5) -0.3681(5) 0.2854(4)
O7 O 0.3287(5) -0.1973(4) -0.1024(4)
O8 O 0.4674(7) -0.3366(6) -0.2255(5)
O9 O -0.1375(4) -0.1748(4) 0.1236(4)
O10 O -0.1471(4) -0.0308(4) 0.0230(4)
O11 O -0.0537(4) -0.0417(4) 0.1450(4)
O12 O 0.0586(4) -0.1744(4) 0.0007(4)
O13 O -0.5575(5) -0.0451(4) 0.1478(4)
O14 O -0.4381(4) -0.1759(4) 0.0019(4)
O15 O -0.6360(5) -0.1783(4) 0.1185(4)
O16 O -0.6407(4) -0.0341(4) 0.0185(4)
O17 O -0.4010(5) 0.0334(4) 0.2002(4)
H1 H -0.4414 0.0734 0.1672
H2 H -0.3558 0.0680 0.1975
O18 O 0.1070(5) 0.0291(4) 0.1947(4)
H3 H 0.0675 0.0697 0.1614
H4 H 0.1572 0.0595 0.1875
S1 S -0.06973(15) -0.10537(14) 0.07439(13)
S2 S -0.56859(15) -0.10816(14) 0.07319(13)
C1 C -0.3084(7) -0.3216(6) 0.2110(6)
C2 C -0.2270(7) -0.3879(6) 0.1081(6)
C3 C -0.1719(7) -0.5045(6) 0.0880(7)
H9 H -0.1848 -0.5477 0.1401
C4 C -0.0971(7) -0.5539(6) -0.0123(7)
H10 H -0.0615 -0.6308 -0.0278
C5 C -0.0762(7) -0.4890(6) -0.0877(7)
H11 H -0.0252 -0.5209 -0.1546
C6 C -0.1337(7) -0.3736(6) -0.0616(6)
C7 C -0.1104(7) -0.2912(7) -0.1350(6)
C8 C 0.1782(7) -0.3213(6) 0.2076(6)
C9 C 0.2682(7) -0.3898(6) 0.1077(6)
C10 C 0.3238(7) -0.5055(6) 0.0914(7)
H12 H 0.3101 -0.5469 0.1448
C11 C 0.4013(7) -0.5574(6) -0.0082(7)
H13 H 0.4378 -0.6345 -0.0220
C12 C 0.4235(7) -0.4950(6) -0.0852(7)
H14 H 0.4756 -0.5292 -0.1513
C13 C 0.3669(7) -0.3790(6) -0.0635(6)
C14 C 0.3913(7) -0.3005(6) -0.1386(6)
C15 C -0.4129(8) -0.1083(7) 0.5468(6)
H15 H -0.4794 -0.1156 0.6001
C16 C -0.3629(8) -0.0401(7) 0.5650(6)
H16 H -0.3956 -0.0019 0.6293
C17 C -0.2623(7) -0.0280(6) 0.4862(6)
C18 C -0.2198(8) -0.0858(7) 0.3926(6)
H17 H -0.1540 -0.0794 0.3380
C19 C -0.2749(8) -0.1536(7) 0.3797(6)
H18 H -0.2445 -0.1922 0.3160
C20 C -0.6075(7) -0.3628(6) 0.5540(6)
H19 H -0.5936 -0.3434 0.6080
C21 C -0.6761(7) -0.4254(6) 0.5680(6)
H20 H -0.7091 -0.4464 0.6313
C22 C -0.6962(7) -0.4573(6) 0.4886(6)
C23 C -0.6470(7) -0.4222(6) 0.3970(6)
H21 H -0.6583 -0.4420 0.3416
C24 C -0.5814(7) -0.3580(7) 0.3875(6)
H22 H -0.5508 -0.3340 0.3253
C25 C -0.8260(8) -0.6534(7) 0.4415(7)
H23 H -0.8095 -0.7033 0.3888
C26 C -0.7509(7) -0.5968(6) 0.4234(6)
H24 H -0.6870 -0.6068 0.3600
C27 C -0.7726(7) -0.5234(6) 0.5029(6)
C28 C -0.8707(8) -0.5109(7) 0.5943(6)
H25 H -0.8886 -0.4629 0.6489
C29 C -0.9413(8) -0.5698(7) 0.6035(6)
H26 H -1.0079 -0.5593 0.6654
C30 C -0.0980(8) 0.1640(7) 0.4422(6)
H27 H -0.0627 0.1985 0.3891
C31 C -0.1527(8) 0.0989(7) 0.4266(6)
H28 H -0.1549 0.0911 0.3638
C32 C -0.2051(7) 0.0443(6) 0.5032(6)
C33 C -0.1965(9) 0.0591(7) 0.5935(6)
H29 H -0.2282 0.0232 0.6470
C34 C -0.1418(8) 0.1264(7) 0.6052(6)
H30 H -0.1382 0.1355 0.6673
Tb1A Tb -0.68307(3) 0.12109(2) -0.07347(2)
Tb2A Tb -0.18710(3) 0.12473(2) -0.06661(2)
Tb2_2 Tb -0.81290(3) -0.12473(2) 0.06661(2)
Cu2_2 Cu -1.02437(10) -0.72282(9) 0.55342(9)
Cu2A Cu 0.02437(10) -0.27718(9) 0.44658(9)
N5_2 N 0.0793(6) 0.3582(5) 0.5292(5)
O6A O -0.1600(5) 0.3681(5) 0.7146(4)
O10A O 0.1471(4) 0.0308(4) -0.0230(4)
O15_2 O 0.3640(5) -0.1783(4) 0.1185(4)
O16A O -0.3593(4) 0.0341(4) -0.0185(4)
O16_2 O 0.3593(4) -0.0341(4) 0.0185(4)
O19 O -0.1345(7) -0.7894(6) 0.2182(5)
H5 H -0.0672 -0.8484 0.1939
H6 H -0.1086 -0.7394 0.2200
O20 O -0.6345(7) -0.8024(6) 0.2180(5)
H7 H -0.6251 -0.7867 0.1586
H8 H -0.5730 -0.8642 0.2104
loop_
_geom_bond_atom_site_label_1
_geom_bond_atom_site_label_2
_geom_bond_site_symmetry_1
_geom_bond_site_symmetry_2
Tb1 N1 1_555 1_555
Tb2 N2 1_555 1_555
Cu1 N3 1_555 1_555
Cu2 N6 1_555 1_555
N1 C2 1_555 1_555
N2 C9 1_555 1_555
N3 C15 1_555 1_555
N4 Cu1 1_555 1_555
N5 C25 1_555 1_555
N6 C30 1_555 1_555
O1 Tb1 1_555 1_555
O2 Cu1 1_555 1_555
O3 Tb1 1_555 1_555
O4 C7 1_555 1_555
O5 Tb2 1_555 1_555
O6 C8 1_555 1_555
O7 Tb2 1_555 1_555
O8 C14 1_555 1_555
O9 Tb1 1_555 1_555
O10 Tb1 1_555 1_555
O11 Tb2 1_555 1_555
O12 Tb2 1_555 1_555
O13 Tb1 1_555 1_555
O14 Tb1 1_555 1_555
O15 S2 1_555 1_555
O16 S2 1_555 1_555
O17 Tb1 1_555 1_555
H1 O17 1_555 1_555
H2 O17 1_555 1_555
O18 Tb2 1_555 1_555
H3 O18 1_555 1_555
H4 O18 1_555 1_555
O19 H5 1_555 1_555
H6 O19 1_555 1_555
O20 H7 1_555 1_555
H8 O20 1_555 1_555
S1 O9 1_555 1_555
S2 O13 1_555 1_555
C1 O1 1_555 1_555
C2 C1 1_555 1_555
C3 C2 1_555 1_555
H9 C3 1_555 1_555
C4 C3 1_555 1_555
H10 C4 1_555 1_555
C5 C4 1_555 1_555
H11 C5 1_555 1_555
C6 N1 1_555 1_555
C7 O3 1_555 1_555
C8 O5 1_555 1_555
C9 C8 1_555 1_555
C10 C9 1_555 1_555
H12 C10 1_555 1_555
C11 C10 1_555 1_555
H13 C11 1_555 1_555
C12 C11 1_555 1_555
H14 C12 1_555 1_555
C13 N2 1_555 1_555
C14 O7 1_555 1_555
C15 H15 1_555 1_555
C16 C15 1_555 1_555
H16 C16 1_555 1_555
C17 C16 1_555 1_555
C18 C17 1_555 1_555
H17 C18 1_555 1_555
C19 N3 1_555 1_555
H18 C19 1_555 1_555
C20 N4 1_555 1_555
H19 C20 1_555 1_555
C21 C20 1_555 1_555
H20 C21 1_555 1_555
C22 C21 1_555 1_555
C23 C22 1_555 1_555
H21 C23 1_555 1_555
C24 N4 1_555 1_555
H22 C24 1_555 1_555
C25 H23 1_555 1_555
C26 C25 1_555 1_555
H24 C26 1_555 1_555
C27 C22 1_555 1_555
C28 C27 1_555 1_555
H25 C28 1_555 1_555
C29 N5 1_555 1_555
H26 C29 1_555 1_555
C30 H27 1_555 1_555
C31 C30 1_555 1_555
H28 C31 1_555 1_555
C32 C17 1_555 1_555
C33 C32 1_555 1_555
H29 C33 1_555 1_555
C34 N6 1_555 1_555
H30 C34 1_555 1_555
Tb1A O16 1_555 1_555
Tb2A O10 1_555 1_555
Tb2_2 O15 1_555 1_555
Cu2_2 N5 1_555 1_555
Cu2A O6 1_555 1_555
N5_2 Cu2 1_555 1_555
O6A Cu2 1_555 1_555
O10A Tb2 1_555 1_555
O15_2 Tb2 1_555 1_555
O16A Tb1 1_555 1_555
O16_2 Tb2 1_555 1_555
O2 C1 1_555 1_555
O10 S1 1_555 1_555
O11 S1 1_555 1_555
O12 S1 1_555 1_555
O14 S2 1_555 1_555
O16 Tb2_2 1_555 1_555
C5 C6 1_555 1_555
C6 C7 1_555 1_555
C12 C13 1_555 1_555
C13 C14 1_555 1_555
C18 C19 1_555 1_555
C23 C24 1_555 1_555
C26 C27 1_555 1_555
C28 C29 1_555 1_555
C31 C32 1_555 1_555
C33 C34 1_555 1_555
Tb2A O16A 1_555 1_555

#END
