
#######################################################################
#
#                 Cambridge Crystallographic Data Centre
#                                CCDC 
#
#######################################################################
#
# If this CIF has been generated from an entry in the Cambridge 
# Structural Database, then it will include bibliographic, chemical, 
# crystal, experimental, refinement or atomic coordinate data resulting 
# from the CCDC's data processing and validation procedures.
#
#######################################################################

data_KIVFIF
_symmetry_cell_setting           triclinic
_symmetry_space_group_name_H-M   'P -1'
_symmetry_Int_Tables_number      2
_space_group_name_Hall           '-P 1'
loop_
_symmetry_equiv_pos_site_id
_symmetry_equiv_pos_as_xyz
1 x,y,z
2 -x,-y,-z
_cell_length_a                   9.8207(13)
_cell_length_b                   11.2083(10)
_cell_length_c                   11.8496(11)
_cell_angle_alpha                62.435(10)
_cell_angle_beta                 77.407(13)
_cell_angle_gamma                71.735(12)
_cell_volume                     1093.88
loop_
_atom_site_label
_atom_site_type_symbol
_atom_site_fract_x
_atom_site_fract_y
_atom_site_fract_z
Pb1 Pb 0.190602(16) 0.094949(16) 0.342237(14)
O1 O 0.2976(3) -0.0796(3) 0.5370(3)
O2 O 0.0813(3) 0.0289(3) 0.5892(3)
O3 O 0.2733(3) 0.2399(3) 0.3815(3)
O4 O 0.0665(4) 0.3661(4) 0.2965(3)
N1 N 0.4561(4) 0.0257(4) 0.2619(3)
N2 N 0.2715(4) 0.2469(4) 0.0971(3)
N3 N 0.4930(5) -0.4594(4) 0.9429(4)
N4 N 0.4472(5) 0.5487(4) 0.4986(4)
C1 C 0.5493(5) -0.0785(5) 0.3418(4)
H1 H 0.5200 -0.1155 0.4306
C2 C 0.6872(5) -0.1355(5) 0.3011(5)
H2 H 0.7499 -0.2100 0.3612
C3 C 0.7312(5) -0.0835(5) 0.1744(5)
H3 H 0.8249 -0.1219 0.1452
C4 C 0.6374(5) 0.0274(5) 0.0866(4)
C5 C 0.5002(5) 0.0804(4) 0.1349(4)
C6 C 0.1808(5) 0.3536(5) 0.0171(4)
H4 H 0.0887 0.3884 0.0515
C7 C 0.2140(6) 0.4170(5) -0.1148(5)
H5 H 0.1463 0.4932 -0.1686
C8 C 0.3455(6) 0.3673(5) -0.1643(4)
H6 H 0.3706 0.4090 -0.2538
C9 C 0.4448(5) 0.2541(5) -0.0836(4)
C10 C 0.4027(5) 0.1962(4) 0.0485(4)
C11 C 0.6762(5) 0.0887(5) -0.0487(5)
H7 H 0.7685 0.0522 -0.0817
C12 C 0.5851(6) 0.1965(5) -0.1295(4)
H8 H 0.6141 0.2351 -0.2184
C13 C 0.1957(5) -0.0645(4) 0.6183(4)
C14 C 0.2136(5) -0.1651(4) 0.7563(4)
C15 C 0.3411(5) -0.2658(4) 0.7900(4)
H9 H 0.4169 -0.2720 0.7261
C16 C 0.3580(5) -0.3583(4) 0.9178(4)
C17 C 0.2467(6) -0.3511(5) 1.0117(4)
H10 H 0.2575 -0.4151 1.0986
C18 C 0.1209(6) -0.2503(6) 0.9770(4)
H11 H 0.0447 -0.2446 1.0408
C19 C 0.1034(5) -0.1566(5) 0.8503(4)
H12 H 0.0162 -0.0869 0.8279
C20 C 0.1733(5) 0.3519(5) 0.3459(4)
C21 C 0.1886(5) 0.4670(4) 0.3708(4)
C22 C 0.3131(5) 0.4527(4) 0.4173(4)
H13 H 0.3915 0.3739 0.4273
C23 C 0.3232(6) 0.5544(5) 0.4495(5)
C24 C 0.2085(7) 0.6690(6) 0.4364(6)
H14 H 0.2141 0.7363 0.4615
C25 C 0.0868(7) 0.6846(5) 0.3868(6)
H15 H 0.0095 0.7644 0.3754
C26 C 0.0751(6) 0.5847(5) 0.3529(5)
H16 H -0.0092 0.5966 0.3180
Pb1A Pb 0.809398(16) -1.094949(16) 1.657763(14)
Pb1A_2 Pb 0.809398(16) 0.905051(16) 0.657763(14)
O1A O 0.7024(3) -0.9204(3) 1.4630(3)
O2A O 0.9187(3) -1.0289(3) 1.4108(3)
O3A O 0.7267(3) 0.7601(3) 0.6185(3)
O3A_2 O 0.7267(3) -1.2399(3) 1.6185(3)
O4A O 0.9335(4) 0.6339(4) 0.7035(3)
O4A_2 O 0.9335(4) -1.3661(4) 1.7035(3)
N1A N 0.5439(4) -1.0257(4) 1.7381(3)
N2A N 0.7285(4) -1.2469(4) 1.9029(3)
N3A N 0.5070(5) -0.5406(4) 1.0571(4)
N4A N 0.5528(5) 0.4513(4) 0.5014(4)
C1A C 0.4507(5) -0.9215(5) 1.6582(4)
H1A H 0.4800 -0.8845 1.5694
C2A C 0.3128(5) -0.8645(5) 1.6989(5)
H2A H 0.2501 -0.7900 1.6388
C3A C 0.2688(5) -0.9165(5) 1.8256(5)
H3A H 0.1751 -0.8781 1.8548
C4A C 0.3626(5) -1.0274(5) 1.9134(4)
C5A C 0.4998(5) -1.0804(4) 1.8651(4)
C6A C 0.8192(5) -1.3536(5) 1.9829(4)
H4A H 0.9113 -1.3884 1.9485
C7A C 0.7860(6) -1.4170(5) 2.1148(5)
H5A H 0.8537 -1.4932 2.1686
C8A C 0.6545(6) -1.3673(5) 2.1643(4)
H6A H 0.6294 -1.4090 2.2538
C9A C 0.5552(5) -1.2541(5) 2.0836(4)
C10A C 0.5973(5) -1.1962(4) 1.9515(4)
C11A C 0.3238(5) -1.0887(5) 2.0487(5)
H7A H 0.2315 -1.0522 2.0817
C12A C 0.4149(6) -1.1965(5) 2.1295(4)
H8A H 0.3859 -1.2351 2.2184
C13A C 0.8043(5) -0.9355(4) 1.3817(4)
C14A C 0.7864(5) -0.8349(4) 1.2437(4)
C15A C 0.6589(5) -0.7342(4) 1.2100(4)
H9A H 0.5831 -0.7280 1.2739
C16A C 0.6420(5) -0.6417(4) 1.0822(4)
C17A C 0.7533(6) -0.6489(5) 0.9883(4)
H10A H 0.7425 -0.5849 0.9014
C18A C 0.8791(6) -0.7497(6) 1.0230(4)
H11A H 0.9553 -0.7554 0.9592
C19A C 0.8966(5) -0.8434(5) 1.1497(4)
H12A H 0.9838 -0.9131 1.1721
C20A C 0.8267(5) 0.6481(5) 0.6541(4)
C21A C 0.8114(5) 0.5330(4) 0.6292(4)
C22A C 0.6869(5) 0.5473(4) 0.5827(4)
H13A H 0.6085 0.6261 0.5727
C23A C 0.6768(6) 0.4456(5) 0.5505(5)
C24A C 0.7915(7) 0.3310(6) 0.5636(6)
H14A H 0.7859 0.2637 0.5385
C25A C 0.9132(7) 0.3154(5) 0.6132(6)
H15A H 0.9905 0.2356 0.6246
C26A C 0.9249(6) 0.4153(5) 0.6471(5)
H16A H 1.0092 0.4034 0.6820
loop_
_geom_bond_atom_site_label_1
_geom_bond_atom_site_label_2
_geom_bond_site_symmetry_1
_geom_bond_site_symmetry_2
Pb1 O1 1_555 1_555
O1 C13 1_555 1_555
O2 Pb1 1_555 1_555
O3 Pb1 1_555 1_555
O4 Pb1 1_555 1_555
N1 Pb1 1_555 1_555
N2 Pb1 1_555 1_555
N3 C16 1_555 1_555
N4 C23 1_555 1_555
C1 N1 1_555 1_555
H1 C1 1_555 1_555
C2 C1 1_555 1_555
H2 C2 1_555 1_555
C3 C2 1_555 1_555
H3 C3 1_555 1_555
C4 C3 1_555 1_555
C5 N1 1_555 1_555
C6 N2 1_555 1_555
H4 C6 1_555 1_555
C7 C6 1_555 1_555
H5 C7 1_555 1_555
C8 C7 1_555 1_555
H6 C8 1_555 1_555
C9 C8 1_555 1_555
C10 N2 1_555 1_555
C11 C4 1_555 1_555
H7 C11 1_555 1_555
C12 C9 1_555 1_555
H8 C12 1_555 1_555
C13 O2 1_555 1_555
C14 C13 1_555 1_555
C15 C14 1_555 1_555
H9 C15 1_555 1_555
C16 C15 1_555 1_555
C17 C16 1_555 1_555
H10 C17 1_555 1_555
C18 C17 1_555 1_555
H11 C18 1_555 1_555
C19 C14 1_555 1_555
H12 C19 1_555 1_555
C20 O3 1_555 1_555
C21 C20 1_555 1_555
C22 C21 1_555 1_555
H13 C22 1_555 1_555
C23 C22 1_555 1_555
C24 C23 1_555 1_555
H14 C24 1_555 1_555
C25 C24 1_555 1_555
H15 C25 1_555 1_555
C26 C21 1_555 1_555
H16 C26 1_555 1_555
Pb1A O1A 1_555 1_555
Pb1A_2 O3A 1_555 1_555
O1A C13A 1_555 1_555
O2A Pb1A 1_555 1_555
O3A C20A 1_555 1_555
O3A_2 Pb1A 1_555 1_555
O4A Pb1A_2 1_555 1_555
O4A_2 Pb1A 1_555 1_555
N1A Pb1A 1_555 1_555
N2A Pb1A 1_555 1_555
N3A N3 1_555 1_555
N4A N4 1_555 1_555
C1A N1A 1_555 1_555
H1A C1A 1_555 1_555
C2A C1A 1_555 1_555
H2A C2A 1_555 1_555
C3A C2A 1_555 1_555
H3A C3A 1_555 1_555
C4A C3A 1_555 1_555
C5A N1A 1_555 1_555
C6A N2A 1_555 1_555
H4A C6A 1_555 1_555
C7A C6A 1_555 1_555
H5A C7A 1_555 1_555
C8A C7A 1_555 1_555
H6A C8A 1_555 1_555
C9A C8A 1_555 1_555
C10A N2A 1_555 1_555
C11A C4A 1_555 1_555
H7A C11A 1_555 1_555
C12A C9A 1_555 1_555
H8A C12A 1_555 1_555
C13A O2A 1_555 1_555
C14A C13A 1_555 1_555
C15A C14A 1_555 1_555
H9A C15A 1_555 1_555
C16A N3A 1_555 1_555
C17A C16A 1_555 1_555
H10A C17A 1_555 1_555
C18A C17A 1_555 1_555
H11A C18A 1_555 1_555
C19A C14A 1_555 1_555
H12A C19A 1_555 1_555
C20A O4A 1_555 1_555
C21A C20A 1_555 1_555
C22A C21A 1_555 1_555
H13A C22A 1_555 1_555
C23A N4A 1_555 1_555
C24A C23A 1_555 1_555
H14A C24A 1_555 1_555
C25A C24A 1_555 1_555
H15A C25A 1_555 1_555
C26A C21A 1_555 1_555
H16A C26A 1_555 1_555
O4 C20 1_555 1_555
C4 C5 1_555 1_555
C5 C10 1_555 1_555
C9 C10 1_555 1_555
C11 C12 1_555 1_555
C18 C19 1_555 1_555
C25 C26 1_555 1_555
C4A C5A 1_555 1_555
C5A C10A 1_555 1_555
C9A C10A 1_555 1_555
C11A C12A 1_555 1_555
C15A C16A 1_555 1_555
C18A C19A 1_555 1_555
C22A C23A 1_555 1_555
C25A C26A 1_555 1_555

#END
