
#######################################################################
#
#                 Cambridge Crystallographic Data Centre
#                                CCDC 
#
#######################################################################
#
# If this CIF has been generated from an entry in the Cambridge 
# Structural Database, then it will include bibliographic, chemical, 
# crystal, experimental, refinement or atomic coordinate data resulting 
# from the CCDC's data processing and validation procedures.
#
#######################################################################

data_KIVFAX
_symmetry_cell_setting           triclinic
_symmetry_space_group_name_H-M   'P -1'
_symmetry_Int_Tables_number      2
_space_group_name_Hall           '-P 1'
loop_
_symmetry_equiv_pos_site_id
_symmetry_equiv_pos_as_xyz
1 x,y,z
2 -x,-y,-z
_cell_length_a                   12.632(6)
_cell_length_b                   13.234(7)
_cell_length_c                   14.431(7)
_cell_angle_alpha                87.700(6)
_cell_angle_beta                 67.347(6)
_cell_angle_gamma                66.628(5)
_cell_volume                     2025.52
loop_
_atom_site_label
_atom_site_type_symbol
_atom_site_fract_x
_atom_site_fract_y
_atom_site_fract_z
Dy1 Dy -0.31683(4) -0.12164(3) 0.07287(3)
Dy2 Dy 0.18693(4) -0.12509(3) 0.06638(3)
Cu1 Cu -0.44565(14) -0.25950(12) 0.43627(12)
Cu2 Cu -0.02451(14) 0.27640(12) 0.55326(12)
N1 N -0.2082(7) -0.3256(6) 0.0332(6)
N2 N 0.2902(7) -0.3295(6) 0.0305(6)
N3 N -0.3717(9) -0.1655(8) 0.4552(7)
N4 N -0.5606(8) -0.3287(7) 0.4629(8)
N5 N -0.9211(8) -0.6420(7) 0.5288(7)
N6 N -0.0941(8) 0.1790(7) 0.5316(7)
O1 O -0.3673(7) -0.2183(6) 0.2103(6)
O2 O -0.3132(8) -0.3693(7) 0.2868(6)
O3 O -0.1762(7) -0.1893(5) -0.0976(5)
O4 O -0.0301(10) -0.3251(8) -0.2211(7)
O5 O 0.1256(7) -0.2162(5) 0.2041(5)
O6 O 0.1594(8) -0.3668(6) 0.2853(6)
O7 O 0.3278(7) -0.1963(6) -0.1023(6)
O8 O 0.4690(9) -0.3370(8) -0.2269(7)
O9 O -0.1369(6) -0.1743(5) 0.1221(5)
O10 O -0.1468(6) -0.0286(5) 0.0219(5)
O11 O -0.0540(6) -0.0414(5) 0.1451(5)
O12 O 0.0589(6) -0.1745(5) -0.0003(5)
O13 O -0.5577(7) -0.0455(6) 0.1471(5)
O14 O -0.4366(6) -0.1769(5) 0.0007(5)
O15 O -0.6367(7) -0.1775(5) 0.1172(6)
O16 O -0.6409(6) -0.0319(5) 0.0182(5)
O17 O -0.3994(7) 0.0322(6) 0.1987(5)
H1 H -0.4775 0.0631 0.2366
H2 H -0.3758 0.0849 0.1849
O18 O 0.1082(7) 0.0276(6) 0.1938(5)
H3 H 0.0544 0.0829 0.1810
H4 H 0.1586 0.0567 0.1900
S1 S -0.0697(2) -0.10498(19) 0.07390(18)
S2 S -0.5682(2) -0.10793(19) 0.07260(18)
C1 C -0.3083(10) -0.3219(9) 0.2097(8)
C2 C -0.2270(9) -0.3869(8) 0.1070(8)
C3 C -0.1713(10) -0.5044(9) 0.0874(9)
H9 H -0.1833 -0.5474 0.1398
C4 C -0.0985(10) -0.5530(8) -0.0119(10)
H10 H -0.0645 -0.6297 -0.0276
C5 C -0.0760(10) -0.4874(9) -0.0885(9)
H11 H -0.0241 -0.5195 -0.1553
C6 C -0.1331(9) -0.3724(8) -0.0626(8)
C7 C -0.1112(10) -0.2913(8) -0.1340(8)
C8 C 0.1786(10) -0.3200(9) 0.2061(9)
C9 C 0.2686(9) -0.3894(9) 0.1064(9)
C10 C 0.3258(10) -0.5061(9) 0.0901(10)
H12 H 0.3134 -0.5477 0.1436
C11 C 0.4020(10) -0.5568(9) -0.0095(10)
H13 H 0.4383 -0.6338 -0.0242
C12 C 0.4230(10) -0.4928(9) -0.0857(10)
H14 H 0.4746 -0.5263 -0.1522
C13 C 0.3681(9) -0.3794(9) -0.0641(8)
C14 C 0.3913(10) -0.3002(9) -0.1385(8)
C15 C -0.4129(11) -0.1090(10) 0.5465(9)
H15 H -0.4794 -0.1160 0.5999
C16 C -0.3615(11) -0.0406(10) 0.5655(9)
H16 H -0.3918 -0.0046 0.6304
C17 C -0.2635(10) -0.0267(9) 0.4856(8)
C18 C -0.2188(11) -0.0856(10) 0.3925(9)
H17 H -0.1521 -0.0806 0.3378
C19 C -0.2760(11) -0.1538(10) 0.3813(9)
H18 H -0.2447 -0.1934 0.3178
C20 C -0.6091(10) -0.3623(9) 0.5537(9)
H19 H -0.5954 -0.3421 0.6077
C21 C -0.6772(10) -0.4245(9) 0.5692(8)
H20 H -0.7102 -0.4447 0.6330
C22 C -0.6968(10) -0.4574(8) 0.4893(9)
C23 C -0.6486(10) -0.4228(9) 0.3970(8)
H21 H -0.6607 -0.4426 0.3419
C24 C -0.5818(10) -0.3580(9) 0.3869(9)
H22 H -0.5509 -0.3343 0.3245
C25 C -0.8271(11) -0.6524(10) 0.4398(9)
H23 H -0.8125 -0.6996 0.3860
C26 C -0.7510(11) -0.5973(9) 0.4234(9)
H24 H -0.6859 -0.6088 0.3602
C27 C -0.7713(9) -0.5236(8) 0.5020(8)
C28 C -0.8698(11) -0.5121(9) 0.5950(9)
H25 H -0.8866 -0.4655 0.6501
C29 C -0.9419(11) -0.5704(9) 0.6043(9)
H26 H -1.0086 -0.5598 0.6662
C30 C -0.0983(11) 0.1639(9) 0.4412(9)
H27 H -0.0624 0.1982 0.3882
C31 C -0.1543(11) 0.0992(10) 0.4249(9)
H28 H -0.1584 0.0925 0.3626
C32 C -0.2045(10) 0.0442(9) 0.5024(9)
C33 C -0.1979(12) 0.0589(10) 0.5935(9)
H29 H -0.2299 0.0233 0.6471
C34 C -0.1434(12) 0.1271(10) 0.6047(9)
H30 H -0.1413 0.1371 0.6673
Dy1A Dy -0.68317(4) 0.12164(3) -0.07287(3)
Dy2A Dy -0.18693(4) 0.12509(3) -0.06638(3)
Dy2_2 Dy -0.81307(4) -0.12509(3) 0.06638(3)
Cu2_2 Cu -1.02451(14) -0.72360(12) 0.55326(12)
Cu2A Cu 0.02451(14) -0.27640(12) 0.44674(12)
N5_2 N 0.0789(8) 0.3580(7) 0.5288(7)
O6A O -0.1594(8) 0.3668(6) 0.7147(6)
O10A O 0.1468(6) 0.0286(5) -0.0219(5)
O15_2 O 0.3633(7) -0.1775(5) 0.1172(6)
O16A O -0.3591(6) 0.0319(5) -0.0182(5)
O16_2 O 0.3591(6) -0.0319(5) 0.0182(5)
O19 O -0.1328(10) -0.7885(8) 0.2188(7)
H5 H -0.0655 -0.8475 0.1944
H6 H -0.1678 -0.7813 0.1775
O20 O -0.6335(10) -0.8018(9) 0.2179(8)
H7 H -0.6089 -0.7779 0.1615
H8 H -0.6461 -0.8569 0.2044
loop_
_geom_bond_atom_site_label_1
_geom_bond_atom_site_label_2
_geom_bond_site_symmetry_1
_geom_bond_site_symmetry_2
Dy1 N1 1_555 1_555
Dy2 N2 1_555 1_555
Cu1 N3 1_555 1_555
Cu2 N6 1_555 1_555
N1 C2 1_555 1_555
N2 C9 1_555 1_555
N3 C15 1_555 1_555
N4 Cu1 1_555 1_555
N5 C25 1_555 1_555
N6 C30 1_555 1_555
O1 Dy1 1_555 1_555
O2 Cu1 1_555 1_555
O3 Dy1 1_555 1_555
O4 C7 1_555 1_555
O5 Dy2 1_555 1_555
O6 C8 1_555 1_555
O7 Dy2 1_555 1_555
O8 C14 1_555 1_555
O9 Dy1 1_555 1_555
O10 Dy1 1_555 1_555
O11 Dy2 1_555 1_555
O12 Dy2 1_555 1_555
O13 Dy1 1_555 1_555
O14 Dy1 1_555 1_555
O15 S2 1_555 1_555
O16 S2 1_555 1_555
O17 Dy1 1_555 1_555
H1 O17 1_555 1_555
H2 O17 1_555 1_555
O18 Dy2 1_555 1_555
H3 O18 1_555 1_555
H4 O18 1_555 1_555
O19 H5 1_555 1_555
H6 O19 1_555 1_555
O20 H7 1_555 1_555
H8 O20 1_555 1_555
S1 O9 1_555 1_555
S2 O13 1_555 1_555
C1 O1 1_555 1_555
C2 C1 1_555 1_555
C3 C2 1_555 1_555
H9 C3 1_555 1_555
C4 C3 1_555 1_555
H10 C4 1_555 1_555
C5 C4 1_555 1_555
H11 C5 1_555 1_555
C6 N1 1_555 1_555
C7 O3 1_555 1_555
C8 O5 1_555 1_555
C9 C8 1_555 1_555
C10 C9 1_555 1_555
H12 C10 1_555 1_555
C11 C10 1_555 1_555
H13 C11 1_555 1_555
C12 C11 1_555 1_555
H14 C12 1_555 1_555
C13 N2 1_555 1_555
C14 O7 1_555 1_555
C15 H15 1_555 1_555
C16 C15 1_555 1_555
H16 C16 1_555 1_555
C17 C16 1_555 1_555
C18 C17 1_555 1_555
H17 C18 1_555 1_555
C19 N3 1_555 1_555
H18 C19 1_555 1_555
C20 N4 1_555 1_555
H19 C20 1_555 1_555
C21 C20 1_555 1_555
H20 C21 1_555 1_555
C22 C21 1_555 1_555
C23 C22 1_555 1_555
H21 C23 1_555 1_555
C24 N4 1_555 1_555
H22 C24 1_555 1_555
C25 H23 1_555 1_555
C26 C25 1_555 1_555
H24 C26 1_555 1_555
C27 C22 1_555 1_555
C28 C27 1_555 1_555
H25 C28 1_555 1_555
C29 N5 1_555 1_555
H26 C29 1_555 1_555
C30 H27 1_555 1_555
C31 C30 1_555 1_555
H28 C31 1_555 1_555
C32 C17 1_555 1_555
C33 C32 1_555 1_555
H29 C33 1_555 1_555
C34 N6 1_555 1_555
H30 C34 1_555 1_555
Dy1A O16 1_555 1_555
Dy2A O10 1_555 1_555
Dy2_2 O15 1_555 1_555
Cu2_2 N5 1_555 1_555
Cu2A O6 1_555 1_555
N5_2 Cu2 1_555 1_555
O6A Cu2 1_555 1_555
O10A Dy2 1_555 1_555
O15_2 Dy2 1_555 1_555
O16A Dy1 1_555 1_555
O16_2 Dy2 1_555 1_555
O2 C1 1_555 1_555
O10 S1 1_555 1_555
O11 S1 1_555 1_555
O12 S1 1_555 1_555
O14 S2 1_555 1_555
O16 Dy2_2 1_555 1_555
C5 C6 1_555 1_555
C6 C7 1_555 1_555
C12 C13 1_555 1_555
C13 C14 1_555 1_555
C18 C19 1_555 1_555
C23 C24 1_555 1_555
C26 C27 1_555 1_555
C28 C29 1_555 1_555
C31 C32 1_555 1_555
C33 C34 1_555 1_555
Dy2A O16A 1_555 1_555

#END
