
#######################################################################
#
#                 Cambridge Crystallographic Data Centre
#                                CCDC 
#
#######################################################################
#
# If this CIF has been generated from an entry in the Cambridge 
# Structural Database, then it will include bibliographic, chemical, 
# crystal, experimental, refinement or atomic coordinate data resulting 
# from the CCDC's data processing and validation procedures.
#
#######################################################################

data_KIVFUR
_symmetry_cell_setting           triclinic
_symmetry_space_group_name_H-M   'P -1'
_symmetry_Int_Tables_number      2
_space_group_name_Hall           '-P 1'
loop_
_symmetry_equiv_pos_site_id
_symmetry_equiv_pos_as_xyz
1 x,y,z
2 -x,-y,-z
_cell_length_a                   8.0104(8)
_cell_length_b                   8.3900(8)
_cell_length_c                   16.5826(17)
_cell_angle_alpha                101.017(2)
_cell_angle_beta                 96.9130(10)
_cell_angle_gamma                93.6290(10)
_cell_volume                     1081.71
loop_
_atom_site_label
_atom_site_type_symbol
_atom_site_fract_x
_atom_site_fract_y
_atom_site_fract_z
Zn1 Zn 0.26685(6) 0.09874(6) 0.75375(3)
N1 N 1.0200(6) 0.4904(6) 0.5349(3)
N2 N 0.0457(5) 0.9669(5) 1.0244(3)
N3 N 0.0343(4) -0.0163(4) 0.6904(2)
N4 N 0.3474(4) -0.1059(5) 0.7906(3)
O1 O 0.3617(5) 0.1484(5) 0.6451(2)
O2 O 0.5301(5) 0.2062(4) 0.7605(2)
O3 O 0.1669(4) 0.2795(4) 0.8123(2)
O4 O 0.3273(5) 0.2658(4) 0.9291(2)
C1 C 0.5973(7) 0.3050(9) 0.5648(4)
H1 H 0.4886 0.2778 0.5367
C2 C 0.7212(8) 0.3740(9) 0.5266(4)
H2 H 0.6953 0.3923 0.4731
C3 C 0.8796(6) 0.4142(6) 0.5676(3)
C4 C 0.9174(7) 0.3855(7) 0.6457(4)
H3 H 1.0261 0.4119 0.6741
C5 C 0.7922(6) 0.3168(6) 0.6819(3)
H4 H 0.8182 0.2971 0.7351
C6 C 0.6340(6) 0.2773(6) 0.6428(3)
C7 C 0.5010(7) 0.2037(6) 0.6856(4)
C8 C 0.0486(6) 0.5690(6) 0.8817(3)
H5 H -0.0051 0.5114 0.8307
C9 C 0.0035(6) 0.7210(6) 0.9120(3)
H6 H -0.0794 0.7665 0.8817
C10 C 0.0820(6) 0.8065(6) 0.9883(3)
C11 C 0.2029(6) 0.7367(6) 1.0337(3)
H7 H 0.2537 0.7928 1.0856
C12 C 0.2481(6) 0.5843(6) 1.0020(3)
H8 H 0.3302 0.5384 1.0326
C13 C 0.1736(6) 0.4986(5) 0.9256(3)
C14 C 0.2267(6) 0.3353(6) 0.8885(3)
C15 C 0.3235(6) -0.2482(6) 0.7367(3)
H9 H 0.2567 -0.2535 0.6861
C16 C 0.3922(6) -0.3869(6) 0.7520(4)
H10 H 0.3720 -0.4840 0.7131
C17 C 0.4912(7) -0.3785(7) 0.8261(4)
H11 H 0.5418 -0.4698 0.8377
C18 C 0.5152(7) -0.2360(7) 0.8827(4)
H12 H 0.5799 -0.2295 0.9339
C19 C 0.4423(6) -0.1007(6) 0.8633(3)
H13 H 0.4598 -0.0030 0.9019
C20 C -0.0800(6) -0.0485(6) 0.7387(3)
H14 H -0.0512 -0.0186 0.7959
C21 C -0.2367(6) -0.1231(7) 0.7083(4)
H15 H -0.3121 -0.1452 0.7441
C22 C -0.2813(7) -0.1646(8) 0.6252(4)
H16 H -0.3883 -0.2145 0.6031
C23 C -0.1664(7) -0.1319(7) 0.5739(4)
H17 H -0.1937 -0.1599 0.5166
C24 C -0.0111(6) -0.0572(6) 0.6092(3)
H18 H 0.0663 -0.0341 0.5745
Zn1A Zn 1.73315(6) 0.90126(6) 0.24625(3)
Zn1A_2 Zn -0.26685(6) 1.90126(6) 1.24625(3)
N1A N 0.9800(6) 0.5096(6) 0.4651(3)
N2A N -0.0457(5) 1.0331(5) 0.9756(3)
N3A N 1.9657(4) 1.0163(4) 0.3096(2)
N4A N 1.6526(4) 1.1059(5) 0.2094(3)
O1A O 1.6383(5) 0.8516(5) 0.3549(2)
O2A O 1.4699(5) 0.7938(4) 0.2395(2)
O3A O -0.1669(4) 1.7205(4) 1.1877(2)
O3A_2 O 1.8331(4) 0.7205(4) 0.1877(2)
O4A O -0.3273(5) 1.7342(4) 1.0709(2)
C1A C 1.4027(7) 0.6950(9) 0.4352(4)
H1A H 1.5114 0.7222 0.4633
C2A C 1.2788(8) 0.6260(9) 0.4734(4)
H2A H 1.3047 0.6077 0.5269
C3A C 1.1204(6) 0.5858(6) 0.4324(3)
C4A C 1.0826(7) 0.6145(7) 0.3543(4)
H3A H 0.9739 0.5881 0.3259
C5A C 1.2078(6) 0.6832(6) 0.3181(3)
H4A H 1.1818 0.7029 0.2649
C6A C 1.3660(6) 0.7227(6) 0.3572(3)
C7A C 1.4990(7) 0.7963(6) 0.3144(4)
C8A C -0.0486(6) 1.4310(6) 1.1183(3)
H5A H 0.0051 1.4886 1.1693
C9A C -0.0035(6) 1.2790(6) 1.0880(3)
H6A H 0.0794 1.2335 1.1183
C10A C -0.0820(6) 1.1935(6) 1.0117(3)
C11A C -0.2029(6) 1.2633(6) 0.9663(3)
H7A H -0.2537 1.2072 0.9144
C12A C -0.2481(6) 1.4157(6) 0.9980(3)
H8A H -0.3302 1.4616 0.9674
C13A C -0.1736(6) 1.5014(5) 1.0744(3)
C14A C -0.2267(6) 1.6647(6) 1.1115(3)
C15A C 1.6765(6) 1.2482(6) 0.2633(3)
H9A H 1.7433 1.2535 0.3139
C16A C 1.6078(6) 1.3869(6) 0.2480(4)
H10A H 1.6280 1.4840 0.2869
C17A C 1.5088(7) 1.3785(7) 0.1739(4)
H11A H 1.4582 1.4698 0.1623
C18A C 1.4848(7) 1.2360(7) 0.1173(4)
H12A H 1.4201 1.2295 0.0661
C19A C 1.5577(6) 1.1007(6) 0.1367(3)
H13A H 1.5402 1.0030 0.0981
C20A C 2.0800(6) 1.0485(6) 0.2613(3)
H14A H 2.0512 1.0186 0.2041
C21A C 2.2367(6) 1.1231(7) 0.2917(4)
H15A H 2.3121 1.1452 0.2559
C22A C 2.2813(7) 1.1646(8) 0.3748(4)
H16A H 2.3883 1.2145 0.3969
C23A C 2.1664(7) 1.1319(7) 0.4261(4)
H17A H 2.1937 1.1599 0.4834
C24A C 2.0111(6) 1.0572(6) 0.3908(3)
H18A H 1.9337 1.0341 0.4255
loop_
_geom_bond_atom_site_label_1
_geom_bond_atom_site_label_2
_geom_bond_site_symmetry_1
_geom_bond_site_symmetry_2
Zn1 N3 1_555 1_555
N1 C3 1_555 1_555
N2 C10 1_555 1_555
N3 C20 1_555 1_555
N4 Zn1 1_555 1_555
O1 Zn1 1_555 1_555
O2 Zn1 1_555 1_555
O3 Zn1 1_555 1_555
O4 C14 1_555 1_555
C1 H1 1_555 1_555
C2 C1 1_555 1_555
H2 C2 1_555 1_555
C3 C2 1_555 1_555
C4 C3 1_555 1_555
H3 C4 1_555 1_555
C5 C4 1_555 1_555
H4 C5 1_555 1_555
C6 C1 1_555 1_555
C7 O1 1_555 1_555
C8 H5 1_555 1_555
C9 C8 1_555 1_555
H6 C9 1_555 1_555
C10 C9 1_555 1_555
C11 C10 1_555 1_555
H7 C11 1_555 1_555
C12 C11 1_555 1_555
H8 C12 1_555 1_555
C13 C8 1_555 1_555
C14 O3 1_555 1_555
C15 N4 1_555 1_555
H9 C15 1_555 1_555
C16 C15 1_555 1_555
H10 C16 1_555 1_555
C17 C16 1_555 1_555
H11 C17 1_555 1_555
C18 C17 1_555 1_555
H12 C18 1_555 1_555
C19 N4 1_555 1_555
H13 C19 1_555 1_555
C20 H14 1_555 1_555
C21 C20 1_555 1_555
H15 C21 1_555 1_555
C22 C21 1_555 1_555
H16 C22 1_555 1_555
C23 C22 1_555 1_555
H17 C23 1_555 1_555
C24 N3 1_555 1_555
H18 C24 1_555 1_555
Zn1A N3A 1_555 1_555
Zn1A_2 O3A 1_555 1_555
N1A N1 1_555 1_555
N2A N2 1_555 1_555
N3A C20A 1_555 1_555
N4A Zn1A 1_555 1_555
O1A Zn1A 1_555 1_555
O2A Zn1A 1_555 1_555
O3A C14A 1_555 1_555
O3A_2 Zn1A 1_555 1_555
O4A C14A 1_555 1_555
C1A H1A 1_555 1_555
C2A C1A 1_555 1_555
H2A C2A 1_555 1_555
C3A N1A 1_555 1_555
C4A C3A 1_555 1_555
H3A C4A 1_555 1_555
C5A C4A 1_555 1_555
H4A C5A 1_555 1_555
C6A C1A 1_555 1_555
C7A O1A 1_555 1_555
C8A H5A 1_555 1_555
C9A C8A 1_555 1_555
H6A C9A 1_555 1_555
C10A N2A 1_555 1_555
C11A C10A 1_555 1_555
H7A C11A 1_555 1_555
C12A C11A 1_555 1_555
H8A C12A 1_555 1_555
C13A C8A 1_555 1_555
C14A C13A 1_555 1_555
C15A N4A 1_555 1_555
H9A C15A 1_555 1_555
C16A C15A 1_555 1_555
H10A C16A 1_555 1_555
C17A C16A 1_555 1_555
H11A C17A 1_555 1_555
C18A C17A 1_555 1_555
H12A C18A 1_555 1_555
C19A N4A 1_555 1_555
H13A C19A 1_555 1_555
C20A H14A 1_555 1_555
C21A C20A 1_555 1_555
H15A C21A 1_555 1_555
C22A C21A 1_555 1_555
H16A C22A 1_555 1_555
C23A C22A 1_555 1_555
H17A C23A 1_555 1_555
C24A N3A 1_555 1_555
H18A C24A 1_555 1_555
O2 C7 1_555 1_555
C5 C6 1_555 1_555
C6 C7 1_555 1_555
C12 C13 1_555 1_555
C13 C14 1_555 1_555
C18 C19 1_555 1_555
C23 C24 1_555 1_555
O2A C7A 1_555 1_555
C2A C3A 1_555 1_555
C5A C6A 1_555 1_555
C6A C7A 1_555 1_555
C9A C10A 1_555 1_555
C12A C13A 1_555 1_555
C18A C19A 1_555 1_555
C23A C24A 1_555 1_555

#END
