
#######################################################################
#
#                 Cambridge Crystallographic Data Centre
#                                CCDC 
#
#######################################################################
#
# If this CIF has been generated from an entry in the Cambridge 
# Structural Database, then it will include bibliographic, chemical, 
# crystal, experimental, refinement or atomic coordinate data resulting 
# from the CCDC's data processing and validation procedures.
#
#######################################################################

data_KIVFOL
_symmetry_cell_setting           monoclinic
_symmetry_space_group_name_H-M   'P 21/c'
_symmetry_Int_Tables_number      14
_space_group_name_Hall           '-P 2ybc'
loop_
_symmetry_equiv_pos_site_id
_symmetry_equiv_pos_as_xyz
1 x,y,z
2 -x,1/2+y,1/2-z
3 -x,-y,-z
4 x,1/2-y,1/2+z
_cell_length_a                   15.152(3)
_cell_length_b                   12.764(2)
_cell_length_c                   22.213(4)
_cell_angle_alpha                90
_cell_angle_beta                 97.324(5)
_cell_angle_gamma                90
_cell_volume                     4260.95
loop_
_atom_site_label
_atom_site_type_symbol
_atom_site_fract_x
_atom_site_fract_y
_atom_site_fract_z
Cu1 Cu 0.12681(3) 0.38980(4) 0.31885(2)
Cu2 Cu 0.29583(3) 0.35957(4) 0.39780(2)
P1 P 0.06962(7) 0.25365(8) 0.27175(4)
P2 P 0.36412(6) 0.21709(8) 0.43065(4)
O1 O 0.09828(15) 0.47166(17) 0.38817(10)
O2 O 0.22678(16) 0.4508(2) 0.44742(11)
O3 O 0.20640(15) 1.01065(19) 0.78214(10)
O4 O 0.33568(16) 1.04091(18) 0.83792(10)
O5 O 0.3116(3) 0.6357(3) 0.61919(16)
N1 N 0.2055(2) 0.7589(3) 0.61606(15)
N2 N 0.2667(3) 0.7211(3) 0.62897(18)
C1 C -0.0380(2) 0.2832(3) 0.22887(14)
C2 C -0.0959(2) 0.3413(3) 0.25825(16)
H1 H -0.0794 0.3629 0.2981
C3 C -0.1774(2) 0.3671(3) 0.22909(16)
H2 H -0.2158 0.4065 0.2495
C4 C -0.2044(2) 0.3369(3) 0.17068(17)
H3 H -0.2603 0.3556 0.1514
C5 C -0.1487(3) 0.2797(3) 0.14181(17)
H4 H -0.1667 0.2583 0.1021
C6 C -0.0642(2) 0.2512(3) 0.16986(16)
H5 H -0.0263 0.2115 0.1492
C7 C 0.0445(2) 0.1442(2) 0.31835(14)
C8 C -0.0287(2) 0.0787(2) 0.30437(14)
H6 H -0.0658 0.0892 0.2682
C9 C -0.0478(2) -0.0007(3) 0.34205(15)
H7 H -0.0970 -0.0436 0.3316
C10 C 0.0073(2) -0.0160(3) 0.39598(16)
H8 H -0.0048 -0.0699 0.4219
C11 C 0.0798(2) 0.0480(3) 0.41160(16)
H9 H 0.1163 0.0377 0.4480
C12 C 0.0978(2) 0.1272(3) 0.37309(14)
H10 H 0.1467 0.1703 0.3839
C13 C 0.1385(2) 0.1953(3) 0.21841(13)
C14 C 0.1159(2) 0.1008(3) 0.18889(15)
H11 H 0.0650 0.0649 0.1964
C15 C 0.1697(3) 0.0606(3) 0.14832(16)
H12 H 0.1540 -0.0012 0.1276
C16 C 0.2472(3) 0.1132(3) 0.13878(16)
H13 H 0.2844 0.0850 0.1128
C17 C 0.2682(3) 0.2046(3) 0.16712(15)
H14 H 0.3191 0.2404 0.1597
C18 C 0.2141(2) 0.2462(3) 0.20766(14)
H15 H 0.2298 0.3090 0.2274
C19 C 0.3086(2) 0.1282(3) 0.47762(14)
C20 C 0.2559(2) 0.1705(3) 0.51725(15)
H16 H 0.2470 0.2425 0.5179
C21 C 0.2151(2) 0.1055(3) 0.55706(15)
H17 H 0.1799 0.1353 0.5839
C22 C 0.2268(2) -0.0015(3) 0.55658(15)
H18 H 0.1989 -0.0440 0.5825
C23 C 0.2797(2) -0.0446(3) 0.51774(16)
H19 H 0.2881 -0.1168 0.5169
C24 C 0.3204(2) 0.0201(3) 0.47974(15)
H20 H 0.3575 -0.0101 0.4543
C25 C 0.4108(2) 0.1288(2) 0.37988(13)
C26 C 0.3592(2) 0.0955(3) 0.32664(15)
H21 H 0.3022 0.1225 0.3168
C27 C 0.3905(2) 0.0243(3) 0.28868(17)
H22 H 0.3552 0.0042 0.2532
C28 C 0.4731(3) -0.0172(3) 0.30261(16)
H23 H 0.4939 -0.0663 0.2769
C29 C 0.5262(2) 0.0131(3) 0.35464(15)
H24 H 0.5831 -0.0145 0.3637
C30 C 0.4946(2) 0.0846(3) 0.39348(14)
H25 H 0.5300 0.1034 0.4292
C31 C 0.4585(2) 0.2611(2) 0.48153(13)
C32 C 0.4930(2) 0.2103(3) 0.53477(15)
H26 H 0.4652 0.1497 0.5460
C33 C 0.5675(2) 0.2468(3) 0.57179(16)
H27 H 0.5889 0.2110 0.6071
C34 C 0.6092(3) 0.3356(3) 0.55602(17)
H28 H 0.6596 0.3602 0.5802
C35 C 0.5768(2) 0.3875(3) 0.50483(16)
H29 H 0.6045 0.4489 0.4947
C36 C 0.5031(2) 0.3511(3) 0.46726(15)
H30 H 0.4832 0.3875 0.4319
C37 C 0.1520(3) 0.4924(3) 0.43579(15)
C38 C 0.1244(2) 0.5743(2) 0.47689(14)
C39 C 0.1849(2) 0.6138(3) 0.52367(13)
H31 H 0.2431 0.5890 0.5298
C40 C 0.1575(3) 0.6900(3) 0.56062(15)
C41 C 0.0729(3) 0.7285(3) 0.55214(16)
H32 H 0.0562 0.7818 0.5769
C42 C 0.0127(3) 0.6881(3) 0.50691(15)
H33 H -0.0457 0.7123 0.5014
C43 C 0.0393(2) 0.6115(3) 0.46981(14)
H34 H -0.0017 0.5843 0.4391
C44 C 0.3193(3) 0.7818(3) 0.68628(15)
C45 C 0.4052(2) 0.7467(3) 0.70513(15)
H35 H 0.4294 0.6921 0.6849
C46 C 0.4525(2) 0.7929(3) 0.75317(15)
H36 H 0.5106 0.7715 0.7660
C47 C 0.4141(2) 0.8734(3) 0.78376(14)
H37 H 0.4466 0.9051 0.8172
C48 C 0.3293(2) 0.9057(3) 0.76493(14)
C49 C 0.2806(2) 0.8597(3) 0.71492(15)
H38 H 0.2229 0.8816 0.7014
C50 C 0.2872(3) 0.9918(3) 0.79730(16)
Cu1C Cu 0.12681(3) 1.11020(4) 0.81885(2)
Cu2C Cu 0.29583(3) 1.14043(4) 0.89780(2)
O3C O 0.20640(15) 0.48935(19) 0.28214(10)
O4C O 0.33568(16) 0.45909(18) 0.33792(10)
loop_
_geom_bond_atom_site_label_1
_geom_bond_atom_site_label_2
_geom_bond_site_symmetry_1
_geom_bond_site_symmetry_2
Cu1 P1 1_555 1_555
Cu2 P2 1_555 1_555
P1 C1 1_555 1_555
P2 C19 1_555 1_555
O1 Cu1 1_555 1_555
O2 Cu2 1_555 1_555
O3 C50 1_555 1_555
O4 C50 1_555 1_555
O5 N2 1_555 1_555
N1 N2 1_555 1_555
N2 C44 1_555 1_555
C1 C2 1_555 1_555
C2 H1 1_555 1_555
C3 C2 1_555 1_555
H2 C3 1_555 1_555
C4 C3 1_555 1_555
H3 C4 1_555 1_555
C5 C4 1_555 1_555
H4 C5 1_555 1_555
C6 C1 1_555 1_555
H5 C6 1_555 1_555
C7 P1 1_555 1_555
C8 C7 1_555 1_555
H6 C8 1_555 1_555
C9 C8 1_555 1_555
H7 C9 1_555 1_555
C10 C9 1_555 1_555
H8 C10 1_555 1_555
C11 C10 1_555 1_555
H9 C11 1_555 1_555
C12 C7 1_555 1_555
H10 C12 1_555 1_555
C13 P1 1_555 1_555
C14 C13 1_555 1_555
H11 C14 1_555 1_555
C15 C14 1_555 1_555
H12 C15 1_555 1_555
C16 C15 1_555 1_555
H13 C16 1_555 1_555
C17 C16 1_555 1_555
H14 C17 1_555 1_555
C18 C13 1_555 1_555
H15 C18 1_555 1_555
C19 C20 1_555 1_555
C20 H16 1_555 1_555
C21 C20 1_555 1_555
H17 C21 1_555 1_555
C22 C21 1_555 1_555
H18 C22 1_555 1_555
C23 C22 1_555 1_555
H19 C23 1_555 1_555
C24 C19 1_555 1_555
H20 C24 1_555 1_555
C25 P2 1_555 1_555
C26 C25 1_555 1_555
H21 C26 1_555 1_555
C27 C26 1_555 1_555
H22 C27 1_555 1_555
C28 C27 1_555 1_555
H23 C28 1_555 1_555
C29 C28 1_555 1_555
H24 C29 1_555 1_555
C30 C25 1_555 1_555
H25 C30 1_555 1_555
C31 P2 1_555 1_555
C32 C31 1_555 1_555
H26 C32 1_555 1_555
C33 C32 1_555 1_555
H27 C33 1_555 1_555
C34 C33 1_555 1_555
H28 C34 1_555 1_555
C35 C34 1_555 1_555
H29 C35 1_555 1_555
C36 C31 1_555 1_555
H30 C36 1_555 1_555
C37 O1 1_555 1_555
C38 C37 1_555 1_555
C39 C38 1_555 1_555
H31 C39 1_555 1_555
C40 N1 1_555 1_555
C41 C40 1_555 1_555
H32 C41 1_555 1_555
C42 C41 1_555 1_555
H33 C42 1_555 1_555
C43 C38 1_555 1_555
H34 C43 1_555 1_555
C44 C45 1_555 1_555
C45 H35 1_555 1_555
C46 C45 1_555 1_555
H36 C46 1_555 1_555
C47 C46 1_555 1_555
H37 C47 1_555 1_555
C48 C47 1_555 1_555
C49 C44 1_555 1_555
H38 C49 1_555 1_555
C50 C48 1_555 1_555
Cu1C O3 1_555 1_555
Cu2C O4 1_555 1_555
O3C Cu1 1_555 1_555
O4C Cu2 1_555 1_555
O2 C37 1_555 1_555
C5 C6 1_555 1_555
C11 C12 1_555 1_555
C17 C18 1_555 1_555
C23 C24 1_555 1_555
C29 C30 1_555 1_555
C35 C36 1_555 1_555
C39 C40 1_555 1_555
C42 C43 1_555 1_555
C48 C49 1_555 1_555

#END
