
#######################################################################
#
#                 Cambridge Crystallographic Data Centre
#                                CCDC 
#
#######################################################################
#
# If this CIF has been generated from an entry in the Cambridge 
# Structural Database, then it will include bibliographic, chemical, 
# crystal, experimental, refinement or atomic coordinate data resulting 
# from the CCDC's data processing and validation procedures.
#
#######################################################################

data_KIVGOM
_symmetry_cell_setting           triclinic
_symmetry_space_group_name_H-M   'P -1'
_symmetry_Int_Tables_number      2
_space_group_name_Hall           '-P 1'
loop_
_symmetry_equiv_pos_site_id
_symmetry_equiv_pos_as_xyz
1 x,y,z
2 -x,-y,-z
_cell_length_a                   10.3958(13)
_cell_length_b                   11.3170(15)
_cell_length_c                   11.5539(15)
_cell_angle_alpha                91.235(3)
_cell_angle_beta                 92.032(3)
_cell_angle_gamma                113.549(3)
_cell_volume                     1244.37
loop_
_atom_site_label
_atom_site_type_symbol
_atom_site_fract_x
_atom_site_fract_y
_atom_site_fract_z
Co1 Co 0.65353(5) 0.01422(5) 0.26804(5)
Co2 Co 0.5000 0.0000 0.0000
O1 O 0.5834(3) 0.1573(3) 0.2754(2)
O2 O 0.5565(3) 0.1815(2) 0.0859(2)
O3 O 0.4681(3) -0.1367(3) 0.2878(2)
O4 O 0.3661(3) -0.0988(3) 0.1272(2)
O5 O 0.6647(3) -0.0205(3) 0.0919(2)
O6 O 0.7751(4) -0.1165(3) 0.1866(3)
N1 N 0.7355(3) 0.0213(3) 0.4380(3)
N2 N 0.8621(3) 0.1629(3) 0.2611(3)
N3 N 0.5095(4) 0.5400(3) 0.4628(3)
N4 N 0.0611(3) -0.4617(3) 0.4893(3)
C1 C 0.6704(5) -0.0464(4) 0.5263(4)
H1 H 0.5754 -0.0995 0.5161
C2 C 0.7382(5) -0.0418(5) 0.6341(4)
H2 H 0.6895 -0.0915 0.6940
C3 C 0.8759(5) 0.0364(5) 0.6494(4)
H3 H 0.9226 0.0401 0.7204
C4 C 0.9485(5) 0.1113(4) 0.5605(4)
C5 C 1.0937(5) 0.1966(5) 0.5691(5)
H4 H 1.1452 0.2042 0.6384
C6 C 1.1565(5) 0.2651(5) 0.4801(5)
H5 H 1.2516 0.3184 0.4884
C7 C 1.0831(4) 0.2597(4) 0.3724(4)
C8 C 1.1430(5) 0.3311(5) 0.2761(5)
H6 H 1.2372 0.3874 0.2800
C9 C 1.0629(5) 0.3179(5) 0.1770(5)
H7 H 1.1016 0.3649 0.1127
C10 C 0.9216(5) 0.2324(4) 0.1735(4)
H8 H 0.8672 0.2245 0.1058
C11 C 0.9411(4) 0.1761(4) 0.3605(4)
C12 C 0.8728(4) 0.1007(4) 0.4553(4)
C13 C 0.5688(4) 0.2189(4) 0.1898(4)
C14 C 0.5641(4) 0.3475(4) 0.2165(3)
C15 C 0.5808(5) 0.4333(4) 0.1295(4)
H9 H 0.5949 0.4113 0.0544
C16 C 0.5765(5) 0.5529(5) 0.1535(4)
H10 H 0.5894 0.6112 0.0950
C17 C 0.5531(5) 0.5845(4) 0.2643(4)
H11 H 0.5496 0.6640 0.2808
C18 C 0.5350(4) 0.4978(4) 0.3509(4)
C19 C 0.5434(4) 0.3812(4) 0.3270(4)
H12 H 0.5349 0.3248 0.3864
C20 C 0.3647(4) -0.1596(4) 0.2164(4)
C21 C 0.2260(4) -0.2637(4) 0.2442(4)
C22 C 0.1141(5) -0.2980(5) 0.1653(4)
H13 H 0.1264 -0.2595 0.0939
C23 C -0.0165(5) -0.3889(6) 0.1900(5)
H14 H -0.0900 -0.4119 0.1342
C24 C -0.0401(5) -0.4460(5) 0.2952(5)
H15 H -0.1284 -0.5066 0.3116
C25 C 0.0715(4) -0.4109(4) 0.3759(4)
C26 C 0.2036(4) -0.3212(4) 0.3501(4)
H16 H 0.2779 -0.2997 0.4048
C27 C 0.7385(4) -0.0864(4) 0.0929(4)
C28 C 0.7819(6) -0.1218(6) -0.0203(5)
H17 H 0.8614 -0.1435 -0.0072
H18 H 0.8067 -0.0500 -0.0702
H19 H 0.7054 -0.1946 -0.0563
Co1A Co 0.34647(5) 0.98578(5) 0.73196(5)
Co1A_2 Co -0.65353(5) -1.01422(5) 0.73196(5)
Co1A_3 Co 0.34647(5) -0.01422(5) -0.26804(5)
Co2_2 Co 0.5000 1.0000 1.0000
Co2_3 Co -0.5000 -1.0000 1.0000
O1A O 0.4166(3) 0.8427(3) 0.7246(2)
O2A O 0.4435(3) 0.8185(2) 0.9141(2)
O2A_2 O 0.4435(3) -0.1815(2) -0.0859(2)
O3A O -0.4681(3) -0.8633(3) 0.7122(2)
O3A_2 O 0.5319(3) 1.1367(3) 0.7122(2)
O4A O -0.3661(3) -0.9012(3) 0.8728(2)
O4A_2 O 0.6339(3) 0.0988(3) -0.1272(2)
O5A O 0.3353(3) 0.0205(3) -0.0919(2)
O5A_2 O 0.3353(3) 1.0205(3) 0.9081(2)
O6A O 0.2249(4) 0.1165(3) -0.1866(3)
O6A_2 O 0.2249(4) 1.1165(3) 0.8134(3)
N1A N 0.2645(3) 0.9787(3) 0.5620(3)
N2A N 0.1379(3) 0.8371(3) 0.7389(3)
N3A N 0.4905(4) 0.4600(3) 0.5372(3)
N4A N -0.0611(3) -0.5383(3) 0.5107(3)
C1A C 0.3296(5) 1.0464(4) 0.4737(4)
H1A H 0.4246 1.0995 0.4839
C2A C 0.2618(5) 1.0418(5) 0.3659(4)
H2A H 0.3105 1.0915 0.3060
C3A C 0.1241(5) 0.9636(5) 0.3506(4)
H3A H 0.0774 0.9599 0.2796
C4A C 0.0515(5) 0.8887(4) 0.4395(4)
C5A C -0.0937(5) 0.8034(5) 0.4309(5)
H4A H -0.1452 0.7958 0.3616
C6A C -0.1565(5) 0.7349(5) 0.5199(5)
H5A H -0.2516 0.6816 0.5116
C7A C -0.0831(4) 0.7403(4) 0.6276(4)
C8A C -0.1430(5) 0.6689(5) 0.7239(5)
H6A H -0.2372 0.6126 0.7200
C9A C -0.0629(5) 0.6821(5) 0.8230(5)
H7A H -0.1016 0.6351 0.8873
C10A C 0.0784(5) 0.7676(4) 0.8265(4)
H8A H 0.1328 0.7755 0.8942
C11A C 0.0589(4) 0.8239(4) 0.6395(4)
C12A C 0.1272(4) 0.8993(4) 0.5447(4)
C13A C 0.4312(4) 0.7811(4) 0.8102(4)
C14A C 0.4359(4) 0.6525(4) 0.7835(3)
C15A C 0.4192(5) 0.5667(4) 0.8705(4)
H9A H 0.4051 0.5887 0.9456
C16A C 0.4235(5) 0.4471(5) 0.8465(4)
H10A H 0.4106 0.3888 0.9050
C17A C 0.4469(5) 0.4155(4) 0.7357(4)
H11A H 0.4504 0.3360 0.7192
C18A C 0.4650(4) 0.5022(4) 0.6491(4)
C19A C 0.4566(4) 0.6188(4) 0.6730(4)
H12A H 0.4651 0.6752 0.6136
C20A C -0.3647(4) -0.8404(4) 0.7836(4)
C21A C -0.2260(4) -0.7363(4) 0.7558(4)
C22A C -0.1141(5) -0.7020(5) 0.8347(4)
H13A H -0.1264 -0.7405 0.9061
C23A C 0.0165(5) -0.6111(6) 0.8100(5)
H14A H 0.0900 -0.5881 0.8658
C24A C 0.0401(5) -0.5540(5) 0.7048(5)
H15A H 0.1284 -0.4934 0.6884
C25A C -0.0715(4) -0.5891(4) 0.6241(4)
C26A C -0.2036(4) -0.6788(4) 0.6499(4)
H16A H -0.2779 -0.7003 0.5952
C27A C 0.2615(4) 0.0864(4) -0.0929(4)
C28A C 0.2181(6) 0.1218(6) 0.0203(5)
H17A H 0.1386 0.1435 0.0072
H18A H 0.1933 0.0500 0.0702
H19A H 0.2946 0.1946 0.0563
loop_
_geom_bond_atom_site_label_1
_geom_bond_atom_site_label_2
_geom_bond_site_symmetry_1
_geom_bond_site_symmetry_2
Co1 O1 1_555 1_555
Co2 O2 1_555 1_555
O1 C13 1_555 1_555
O2 C13 1_555 1_555
O3 Co1 1_555 1_555
O4 Co2 1_555 1_555
O5 Co1 1_555 1_555
O6 Co1 1_555 1_555
N1 Co1 1_555 1_555
N2 Co1 1_555 1_555
N3 C18 1_555 1_555
N4 C25 1_555 1_555
C1 N1 1_555 1_555
H1 C1 1_555 1_555
C2 C1 1_555 1_555
H2 C2 1_555 1_555
C3 C2 1_555 1_555
H3 C3 1_555 1_555
C4 C3 1_555 1_555
C5 C4 1_555 1_555
H4 C5 1_555 1_555
C6 C5 1_555 1_555
H5 C6 1_555 1_555
C7 C6 1_555 1_555
C8 C7 1_555 1_555
H6 C8 1_555 1_555
C9 C8 1_555 1_555
H7 C9 1_555 1_555
C10 N2 1_555 1_555
H8 C10 1_555 1_555
C11 N2 1_555 1_555
C12 N1 1_555 1_555
C13 C14 1_555 1_555
C14 C15 1_555 1_555
C15 H9 1_555 1_555
C16 C15 1_555 1_555
H10 C16 1_555 1_555
C17 C16 1_555 1_555
H11 C17 1_555 1_555
C18 C17 1_555 1_555
C19 C14 1_555 1_555
H12 C19 1_555 1_555
C20 O3 1_555 1_555
C21 C20 1_555 1_555
C22 C21 1_555 1_555
H13 C22 1_555 1_555
C23 C22 1_555 1_555
H14 C23 1_555 1_555
C24 C23 1_555 1_555
H15 C24 1_555 1_555
C25 C24 1_555 1_555
C26 C21 1_555 1_555
H16 C26 1_555 1_555
C27 O5 1_555 1_555
C28 C27 1_555 1_555
H17 C28 1_555 1_555
H18 C28 1_555 1_555
H19 C28 1_555 1_555
Co1A O1A 1_555 1_555
Co1A_2 O3A 1_555 1_555
Co1A_3 O5A 1_555 1_555
Co2_2 O2A 1_555 1_555
Co2_3 O4A 1_555 1_555
O1A C13A 1_555 1_555
O2A C13A 1_555 1_555
O2A_2 Co2 1_555 1_555
O3A C20A 1_555 1_555
O3A_2 Co1A 1_555 1_555
O4A C20A 1_555 1_555
O4A_2 Co2 1_555 1_555
O5A Co2 1_555 1_555
O5A_2 Co1A 1_555 1_555
O6A Co1A_3 1_555 1_555
O6A_2 Co1A 1_555 1_555
N1A Co1A 1_555 1_555
N2A Co1A 1_555 1_555
N3A N3 1_555 1_555
N4A N4 1_555 1_555
C1A N1A 1_555 1_555
H1A C1A 1_555 1_555
C2A C1A 1_555 1_555
H2A C2A 1_555 1_555
C3A C2A 1_555 1_555
H3A C3A 1_555 1_555
C4A C3A 1_555 1_555
C5A C4A 1_555 1_555
H4A C5A 1_555 1_555
C6A C5A 1_555 1_555
H5A C6A 1_555 1_555
C7A C6A 1_555 1_555
C8A C7A 1_555 1_555
H6A C8A 1_555 1_555
C9A C8A 1_555 1_555
H7A C9A 1_555 1_555
C10A N2A 1_555 1_555
H8A C10A 1_555 1_555
C11A N2A 1_555 1_555
C12A N1A 1_555 1_555
C13A C14A 1_555 1_555
C14A C15A 1_555 1_555
C15A H9A 1_555 1_555
C16A C15A 1_555 1_555
H10A C16A 1_555 1_555
C17A C16A 1_555 1_555
H11A C17A 1_555 1_555
C18A N3A 1_555 1_555
C19A C14A 1_555 1_555
H12A C19A 1_555 1_555
C20A C21A 1_555 1_555
C21A C22A 1_555 1_555
C22A H13A 1_555 1_555
C23A C22A 1_555 1_555
H14A C23A 1_555 1_555
C24A C23A 1_555 1_555
H15A C24A 1_555 1_555
C25A N4A 1_555 1_555
C26A C21A 1_555 1_555
H16A C26A 1_555 1_555
C27A O5A 1_555 1_555
C28A C27A 1_555 1_555
H17A C28A 1_555 1_555
H18A C28A 1_555 1_555
H19A C28A 1_555 1_555
Co2 O5 1_555 1_555
O4 C20 1_555 1_555
O6 C27 1_555 1_555
C4 C12 1_555 1_555
C7 C11 1_555 1_555
C9 C10 1_555 1_555
C11 C12 1_555 1_555
C18 C19 1_555 1_555
C25 C26 1_555 1_555
Co2_2 O5A_2 1_555 1_555
O6A C27A 1_555 1_555
C4A C12A 1_555 1_555
C7A C11A 1_555 1_555
C9A C10A 1_555 1_555
C11A C12A 1_555 1_555
C17A C18A 1_555 1_555
C18A C19A 1_555 1_555
C24A C25A 1_555 1_555
C25A C26A 1_555 1_555

#END
