
#######################################################################
#
#                 Cambridge Crystallographic Data Centre
#                                CCDC 
#
#######################################################################
#
# If this CIF has been generated from an entry in the Cambridge 
# Structural Database, then it will include bibliographic, chemical, 
# crystal, experimental, refinement or atomic coordinate data resulting 
# from the CCDC's data processing and validation procedures.
#
#######################################################################

data_KIVGUS
_symmetry_cell_setting           monoclinic
_symmetry_space_group_name_H-M   'P 21/c'
_symmetry_Int_Tables_number      14
_space_group_name_Hall           '-P 2ybc'
loop_
_symmetry_equiv_pos_site_id
_symmetry_equiv_pos_as_xyz
1 x,y,z
2 -x,1/2+y,1/2-z
3 -x,-y,-z
4 x,1/2-y,1/2+z
_cell_length_a                   16.6386(7)
_cell_length_b                   6.3953(3)
_cell_length_c                   27.2889(10)
_cell_angle_alpha                90
_cell_angle_beta                 112.700(2)
_cell_angle_gamma                90
_cell_volume                     2678.85
loop_
_atom_site_label
_atom_site_type_symbol
_atom_site_fract_x
_atom_site_fract_y
_atom_site_fract_z
Cd1 Cd 0.482052(15) 0.68432(4) 0.331428(10)
O1 O 0.4244(2) 0.3709(5) 0.28938(14)
O2 O 0.35603(18) 0.7023(5) 0.34683(13)
O3 O 0.39051(17) 1.0271(5) 0.33754(13)
O4 O -0.44623(16) 1.3368(4) 0.25066(11)
O5 O -0.39562(16) 1.5753(5) 0.31431(11)
N1 N 0.5975(2) 0.8909(5) 0.38939(12)
N2 N 0.5411(2) 0.5262(5) 0.41721(13)
N3 N -0.0118(2) 1.1003(6) 0.31115(17)
N4 N -0.0316(2) 1.2860(6) 0.31276(16)
C1 C 0.6259(3) 1.0646(7) 0.37551(18)
H1 H 0.5968 1.1143 0.3411
C2 C 0.6969(4) 1.1774(9) 0.4093(2)
H2 H 0.7157 1.2972 0.3976
C3 C 0.7385(4) 1.1079(10) 0.4603(2)
H3 H 0.7851 1.1835 0.4840
C4 C 0.7114(3) 0.9239(9) 0.47693(18)
C5 C 0.7504(4) 0.8436(10) 0.5304(2)
H4 H 0.7966 0.9149 0.5556
C6 C 0.7204(5) 0.6667(10) 0.5443(2)
H5 H 0.7472 0.6169 0.5788
C7 C 0.6488(4) 0.5541(8) 0.50721(18)
C8 C 0.6148(5) 0.3717(9) 0.5204(2)
H6 H 0.6383 0.3196 0.5549
C9 C 0.5474(5) 0.2718(9) 0.4823(3)
H7 H 0.5251 0.1493 0.4904
C10 C 0.5122(4) 0.3534(8) 0.4313(2)
H8 H 0.4660 0.2830 0.4058
C11 C 0.6080(3) 0.6275(6) 0.45412(16)
C12 C 0.6392(3) 0.8170(6) 0.43937(15)
C13 C 0.3378(2) 0.8918(7) 0.34013(14)
C14 C 0.2466(2) 0.9578(6) 0.33373(15)
C15 C 0.1902(3) 0.8076(7) 0.33817(18)
H9 H 0.2093 0.6706 0.3465
C16 C 0.1051(3) 0.8593(7) 0.3303(2)
H10 H 0.0670 0.7570 0.3326
C17 C 0.0772(2) 1.0644(7) 0.31895(17)
C18 C 0.1333(3) 1.2164(7) 0.31371(19)
H11 H 0.1142 1.3532 0.3051
C19 C 0.2179(2) 1.1618(6) 0.32145(18)
H12 H 0.2558 1.2630 0.3184
C20 C -0.1219(2) 1.3161(7) 0.30442(17)
C21 C -0.1829(2) 1.1569(6) 0.28824(17)
H13 H -0.1667 1.0230 0.2823
C22 C -0.2685(2) 1.1996(6) 0.28094(16)
H14 H -0.3100 1.0938 0.2699
C23 C -0.2927(2) 1.3984(6) 0.28999(14)
C24 C -0.2305(2) 1.5565(7) 0.30688(18)
H15 H -0.2460 1.6892 0.3141
C25 C -0.1456(2) 1.5153(7) 0.31283(19)
H16 H -0.1045 1.6221 0.3225
C26 C -0.3854(2) 1.4420(6) 0.28412(14)
H17 H 0.451(3) 0.331(8) 0.281(2)
H18 H 0.411(4) 0.222(10) 0.306(2)
Cd1A Cd -0.482052(15) 1.18432(4) 0.168572(10)
Cd1_2 Cd -0.517948(15) 1.68432(4) 0.331428(10)
O4A O 0.44623(16) 0.8368(4) 0.24934(11)
O5_2 O 0.60438(16) 0.5753(5) 0.31431(11)
loop_
_geom_bond_atom_site_label_1
_geom_bond_atom_site_label_2
_geom_bond_site_symmetry_1
_geom_bond_site_symmetry_2
Cd1 O1 1_555 1_555
O1 H17 1_555 1_555
O2 Cd1 1_555 1_555
O3 Cd1 1_555 1_555
O4 C26 1_555 1_555
O5 C26 1_555 1_555
N1 Cd1 1_555 1_555
N2 Cd1 1_555 1_555
N3 N4 1_555 1_555
N4 C20 1_555 1_555
C1 N1 1_555 1_555
H1 C1 1_555 1_555
C2 C1 1_555 1_555
H2 C2 1_555 1_555
C3 C2 1_555 1_555
H3 C3 1_555 1_555
C4 C3 1_555 1_555
C5 C4 1_555 1_555
H4 C5 1_555 1_555
C6 C5 1_555 1_555
H5 C6 1_555 1_555
C7 C6 1_555 1_555
C8 C7 1_555 1_555
H6 C8 1_555 1_555
C9 C8 1_555 1_555
H7 C9 1_555 1_555
C10 N2 1_555 1_555
H8 C10 1_555 1_555
C11 N2 1_555 1_555
C12 N1 1_555 1_555
C13 O2 1_555 1_555
C14 C13 1_555 1_555
C15 C14 1_555 1_555
H9 C15 1_555 1_555
C16 C15 1_555 1_555
H10 C16 1_555 1_555
C17 N3 1_555 1_555
C18 C17 1_555 1_555
H11 C18 1_555 1_555
C19 C14 1_555 1_555
H12 C19 1_555 1_555
C20 C21 1_555 1_555
C21 H13 1_555 1_555
C22 C21 1_555 1_555
H14 C22 1_555 1_555
C23 C22 1_555 1_555
C24 C23 1_555 1_555
H15 C24 1_555 1_555
C25 C20 1_555 1_555
H16 C25 1_555 1_555
C26 C23 1_555 1_555
H18 O1 1_555 1_555
Cd1A O4 1_555 1_555
Cd1_2 O5 1_555 1_555
O4A Cd1 1_555 1_555
O5_2 Cd1 1_555 1_555
O3 C13 1_555 1_555
C4 C12 1_555 1_555
C7 C11 1_555 1_555
C9 C10 1_555 1_555
C11 C12 1_555 1_555
C16 C17 1_555 1_555
C18 C19 1_555 1_555
C24 C25 1_555 1_555

#END
