
#######################################################################
#
#                 Cambridge Crystallographic Data Centre
#                                CCDC 
#
#######################################################################
#
# If this CIF has been generated from an entry in the Cambridge 
# Structural Database, then it will include bibliographic, chemical, 
# crystal, experimental, refinement or atomic coordinate data resulting 
# from the CCDC's data processing and validation procedures.
#
#######################################################################

data_KIVGEC
_symmetry_cell_setting           triclinic
_symmetry_space_group_name_H-M   'P -1'
_symmetry_Int_Tables_number      2
_space_group_name_Hall           '-P 1'
loop_
_symmetry_equiv_pos_site_id
_symmetry_equiv_pos_as_xyz
1 x,y,z
2 -x,-y,-z
_cell_length_a                   6.0885(13)
_cell_length_b                   9.586(2)
_cell_length_c                   13.926(3)
_cell_angle_alpha                92.253(4)
_cell_angle_beta                 90.182(4)
_cell_angle_gamma                102.491(4)
_cell_volume                     792.873
loop_
_atom_site_label
_atom_site_type_symbol
_atom_site_fract_x
_atom_site_fract_y
_atom_site_fract_z
Co1 Co 0.0000 0.0000 0.0000
N1 N 0.0934(6) 0.5198(5) 0.4852(3)
N2 N -0.0202(6) -0.2120(3) 0.0494(2)
O1 O 0.1634(5) 0.0750(3) 0.12945(19)
O2 O 0.5101(5) 0.2155(3) 0.1347(2)
O3 O 0.3044(5) 0.0023(3) -0.0703(2)
C1 C 0.3131(8) 0.1783(5) 0.1641(3)
C2 C 0.2477(7) 0.2603(4) 0.2495(3)
C3 C 0.0298(7) 0.2295(5) 0.2850(3)
H1 H -0.0775 0.1550 0.2568
C4 C -0.0277(8) 0.3095(5) 0.3623(3)
H2 H -0.1722 0.2865 0.3870
C5 C 0.1277(9) 0.4226(5) 0.4026(3)
C6 C 0.3431(8) 0.4544(5) 0.3688(3)
H3 H 0.4492 0.5294 0.3972
C7 C 0.4017(7) 0.3743(5) 0.2923(3)
H4 H 0.5474 0.3973 0.2689
C8 C 0.1623(7) -0.2483(5) 0.0897(3)
H5 H 0.2991 -0.1823 0.0898
C9 C 0.1544(8) -0.3773(6) 0.1300(3)
H6 H 0.2823 -0.3971 0.1583
C10 C -0.0453(9) -0.4769(5) 0.1281(3)
H7 H -0.0536 -0.5657 0.1542
C11 C -0.2329(8) -0.4441(5) 0.0872(3)
H8 H -0.3702 -0.5096 0.0855
C12 C -0.2120(7) -0.3119(5) 0.0488(3)
H9 H -0.3388 -0.2904 0.0206
H15 H 0.354(7) -0.073(3) -0.079(3)
H16 H 0.311(8) 0.037(5) -0.1256(15)
Co1_2 Co 0.0000 1.0000 1.0000
N1A N -0.0934(6) 0.4802(5) 0.5148(3)
N2A N 0.0202(6) 0.2120(3) -0.0494(2)
O1A O -0.1634(5) -0.0750(3) -0.12945(19)
O1A_2 O -0.1634(5) 0.9250(3) 0.87055(19)
O2A O -0.5101(5) 0.7845(3) 0.8653(2)
O3A O -0.3044(5) -0.0023(3) 0.0703(2)
C1A C -0.3131(8) 0.8217(5) 0.8359(3)
C2A C -0.2477(7) 0.7397(4) 0.7505(3)
C3A C -0.0298(7) 0.7705(5) 0.7150(3)
H1A H 0.0775 0.8450 0.7432
C4A C 0.0277(8) 0.6905(5) 0.6377(3)
H2A H 0.1722 0.7135 0.6130
C5A C -0.1277(9) 0.5774(5) 0.5974(3)
C6A C -0.3431(8) 0.5456(5) 0.6312(3)
H3A H -0.4492 0.4706 0.6028
C7A C -0.4017(7) 0.6257(5) 0.7077(3)
H4A H -0.5474 0.6027 0.7311
C8A C -0.1623(7) 0.2483(5) -0.0897(3)
H5A H -0.2991 0.1823 -0.0898
C9A C -0.1544(8) 0.3773(6) -0.1300(3)
H6A H -0.2823 0.3971 -0.1583
C10A C 0.0453(9) 0.4769(5) -0.1281(3)
H7A H 0.0536 0.5657 -0.1542
C11A C 0.2329(8) 0.4441(5) -0.0872(3)
H8A H 0.3702 0.5096 -0.0855
C12A C 0.2120(7) 0.3119(5) -0.0488(3)
H9A H 0.3388 0.2904 -0.0206
H15A H -0.354(7) 0.073(3) 0.079(3)
H16A H -0.311(8) -0.037(5) 0.1256(15)
N3 N 0.6524(9) 0.8810(5) 0.2579(3)
C13 C 0.8162(10) 0.8333(6) 0.3003(5)
H10 H 0.9368 0.8187 0.2634
C14 C 0.8153(11) 0.8047(6) 0.3959(5)
H11 H 0.9328 0.7713 0.4232
C15 C 0.6397(13) 0.8260(6) 0.4502(4)
H12 H 0.6364 0.8086 0.5154
C16 C 0.4687(11) 0.8731(6) 0.4084(5)
H13 H 0.3454 0.8868 0.4439
C17 C 0.4837(9) 0.8996(5) 0.3128(4)
H14 H 0.3675 0.9330 0.2845
loop_
_geom_bond_atom_site_label_1
_geom_bond_atom_site_label_2
_geom_bond_site_symmetry_1
_geom_bond_site_symmetry_2
Co1 N2 1_555 1_555
N1 C5 1_555 1_555
N2 C8 1_555 1_555
N3 C13 1_555 1_555
O1 Co1 1_555 1_555
O2 C1 1_555 1_555
O3 Co1 1_555 1_555
C1 O1 1_555 1_555
C2 C1 1_555 1_555
C3 C2 1_555 1_555
H1 C3 1_555 1_555
C4 C3 1_555 1_555
H2 C4 1_555 1_555
C5 C4 1_555 1_555
C6 C5 1_555 1_555
H3 C6 1_555 1_555
C7 C2 1_555 1_555
H4 C7 1_555 1_555
C8 H5 1_555 1_555
C9 C8 1_555 1_555
H6 C9 1_555 1_555
C10 C9 1_555 1_555
H7 C10 1_555 1_555
C11 C10 1_555 1_555
H8 C11 1_555 1_555
C12 N2 1_555 1_555
H9 C12 1_555 1_555
C13 H10 1_555 1_555
C14 C13 1_555 1_555
H11 C14 1_555 1_555
C15 C14 1_555 1_555
H12 C15 1_555 1_555
C16 C15 1_555 1_555
H13 C16 1_555 1_555
C17 N3 1_555 1_555
H14 C17 1_555 1_555
H15 O3 1_555 1_555
H16 O3 1_555 1_555
Co1_2 O1A_2 1_555 1_555
N1A N1 1_555 1_555
N2A Co1 1_555 1_555
O1A Co1 1_555 1_555
O1A_2 C1A 1_555 1_555
O2A C1A 1_555 1_555
O3A Co1 1_555 1_555
C1A C2A 1_555 1_555
C2A C3A 1_555 1_555
C3A H1A 1_555 1_555
C4A C3A 1_555 1_555
H2A C4A 1_555 1_555
C5A N1A 1_555 1_555
C6A C5A 1_555 1_555
H3A C6A 1_555 1_555
C7A C2A 1_555 1_555
H4A C7A 1_555 1_555
C8A N2A 1_555 1_555
H5A C8A 1_555 1_555
C9A C8A 1_555 1_555
H6A C9A 1_555 1_555
C10A C9A 1_555 1_555
H7A C10A 1_555 1_555
C11A C10A 1_555 1_555
H8A C11A 1_555 1_555
C12A N2A 1_555 1_555
H9A C12A 1_555 1_555
H15A O3A 1_555 1_555
H16A O3A 1_555 1_555
C6 C7 1_555 1_555
C11 C12 1_555 1_555
C16 C17 1_555 1_555
C4A C5A 1_555 1_555
C6A C7A 1_555 1_555
C11A C12A 1_555 1_555

#END
