
#######################################################################
#
#                 Cambridge Crystallographic Data Centre
#                                CCDC 
#
#######################################################################
#
# If this CIF has been generated from an entry in the Cambridge 
# Structural Database, then it will include bibliographic, chemical, 
# crystal, experimental, refinement or atomic coordinate data resulting 
# from the CCDC's data processing and validation procedures.
#
#######################################################################

data_KIVHAZ
_symmetry_cell_setting           monoclinic
_symmetry_space_group_name_H-M   'P 21/n'
_symmetry_Int_Tables_number      14
_space_group_name_Hall           '-P 2yn'
loop_
_symmetry_equiv_pos_site_id
_symmetry_equiv_pos_as_xyz
1 x,y,z
2 1/2-x,1/2+y,1/2-z
3 -x,-y,-z
4 1/2+x,1/2-y,1/2+z
_cell_length_a                   13.852(6)
_cell_length_b                   11.785(5)
_cell_length_c                   19.365(8)
_cell_angle_alpha                90
_cell_angle_beta                 107.722(7)
_cell_angle_gamma                90
_cell_volume                     3011.24
loop_
_atom_site_label
_atom_site_type_symbol
_atom_site_fract_x
_atom_site_fract_y
_atom_site_fract_z
Y1 Y -0.17630(6) -0.56186(7) 0.01647(5)
N1 N -0.1669(6) -0.7497(6) -0.0479(4)
N2 N -0.3466(6) -0.6439(6) -0.0557(4)
N3 N -0.4083(6) -0.2325(7) -0.2444(5)
N4 N -0.4529(6) -0.2931(8) -0.2116(5)
N5 N -0.4856(7) -0.0447(7) -0.0133(6)
O1 O -0.1337(5) -0.5038(5) -0.0832(3)
O2 O -0.0102(5) -0.5898(5) 0.0765(4)
O3 O -0.7251(5) -0.4445(5) -0.1015(4)
O4 O -0.8152(5) -0.2903(5) -0.1016(4)
O5 O -0.2864(5) -0.3989(5) -0.0182(3)
O6 O -0.1310(5) -0.3718(5) 0.0577(4)
C1 C -0.0799(7) -0.8001(9) -0.0447(6)
H1 H -0.0197 -0.7613 -0.0238
C2 C -0.0754(9) -0.9096(9) -0.0717(7)
H2 H -0.0131 -0.9425 -0.0683
C3 C -0.1639(10) -0.9683(10) -0.1032(7)
H3 H -0.1612 -1.0418 -0.1201
C4 C -0.2582(9) -0.9176(9) -0.1100(6)
C5 C -0.3530(10) -0.9717(9) -0.1449(6)
H4 H -0.3538 -1.0439 -0.1644
C6 C -0.4415(9) -0.9188(8) -0.1497(6)
H5 H -0.5022 -0.9560 -0.1721
C7 C -0.4442(7) -0.8053(8) -0.1209(5)
C8 C -0.5349(7) -0.7465(9) -0.1256(6)
H6 H -0.5976 -0.7798 -0.1475
C9 C -0.5282(7) -0.6396(9) -0.0973(6)
H7 H -0.5873 -0.5989 -0.1013
C10 C -0.4352(7) -0.5908(9) -0.0626(6)
H8 H -0.4338 -0.5183 -0.0432
C11 C -0.3518(7) -0.7510(8) -0.0847(5)
C12 C -0.2551(7) -0.8081(8) -0.0801(5)
C13 C -0.0853(7) -0.4263(8) -0.1030(5)
C14 C -0.1427(7) -0.3410(8) -0.1602(5)
C15 C -0.2491(6) -0.3360(8) -0.1787(5)
H9 H -0.2841 -0.3853 -0.1574
C16 C -0.3012(7) -0.2558(8) -0.2297(6)
C17 C -0.2492(7) -0.1807(8) -0.2616(5)
H10 H -0.2845 -0.1271 -0.2950
C18 C -0.1441(7) -0.1867(8) -0.2428(5)
H11 H -0.1092 -0.1376 -0.2644
C19 C -0.0898(7) -0.2667(8) -0.1914(5)
H12 H -0.0195 -0.2698 -0.1786
C20 C -0.5567(7) -0.2590(9) -0.2187(6)
C21 C -0.6077(7) -0.1695(9) -0.2630(5)
H13 H -0.5769 -0.1312 -0.2926
C22 C -0.7026(8) -0.1388(8) -0.2625(6)
H14 H -0.7360 -0.0805 -0.2927
C23 C -0.7510(7) -0.1936(8) -0.2172(5)
H15 H -0.8143 -0.1693 -0.2158
C24 C -0.7025(7) -0.2852(8) -0.1743(5)
C25 C -0.6067(7) -0.3177(9) -0.1760(5)
H16 H -0.5750 -0.3795 -0.1485
C26 C -0.7509(7) -0.3436(9) -0.1239(5)
C27 C -0.2198(8) -0.3340(8) 0.0247(5)
C28 C -0.2497(7) -0.2157(8) 0.0371(5)
C29 C -0.1820(8) -0.1434(9) 0.0830(6)
H17 H -0.1166 -0.1685 0.1066
C30 C -0.2099(10) -0.0313(10) 0.0951(7)
H18 H -0.1623 0.0184 0.1238
C31 C -0.3085(9) 0.0029(9) 0.0639(7)
H19 H -0.3280 0.0758 0.0723
C32 C -0.3796(8) -0.0707(9) 0.0198(6)
C33 C -0.3476(8) -0.1773(8) 0.0040(5)
H20 H -0.3929 -0.2235 -0.0295
Y1B Y 0.17630(6) -0.43814(7) -0.01647(5)
Y1B_2 Y -0.82370(6) 0.56186(7) -0.01647(5)
Y1B_3 Y -0.82370(6) -0.43814(7) -0.01647(5)
Y1_2 Y 0.82370(6) -0.56186(7) 0.01647(5)
N1B N 0.1669(6) -0.2503(6) 0.0479(4)
N2B N 0.3466(6) -0.3561(6) 0.0557(4)
N3B N 0.4083(6) -0.7675(7) 0.2444(5)
N4B N 0.4529(6) -0.7069(8) 0.2116(5)
N5B N -0.5144(7) 0.0447(7) 0.0133(6)
O1B O 0.1337(5) -0.4962(5) 0.0832(3)
O2B O 0.0102(5) -0.4102(5) -0.0765(4)
O3_2 O 0.2749(5) -0.4445(5) -0.1015(4)
O3B O -0.2749(5) -0.5555(5) 0.1015(4)
O3B_2 O 0.7251(5) -0.5555(5) 0.1015(4)
O4_2 O 0.1848(5) -0.2903(5) -0.1016(4)
O4B O -0.1848(5) -0.7097(5) 0.1016(4)
O4B_2 O 0.8152(5) -0.7097(5) 0.1016(4)
O5B O -0.7136(5) 0.3989(5) 0.0182(3)
O5B_2 O 0.2864(5) -0.6011(5) 0.0182(3)
O6B O -0.8690(5) 0.3718(5) -0.0577(4)
O6B_2 O 0.1310(5) -0.6282(5) -0.0577(4)
C1B C 0.0799(7) -0.1999(9) 0.0447(6)
H1B H 0.0197 -0.2387 0.0238
C2B C 0.0754(9) -0.0904(9) 0.0717(7)
H2B H 0.0131 -0.0575 0.0683
C3B C 0.1639(10) -0.0317(10) 0.1032(7)
H3B H 0.1612 0.0418 0.1201
C4B C 0.2582(9) -0.0824(9) 0.1100(6)
C5B C 0.3530(10) -0.0283(9) 0.1449(6)
H4B H 0.3538 0.0439 0.1644
C6B C 0.4415(9) -0.0812(8) 0.1497(6)
H5B H 0.5022 -0.0440 0.1721
C7B C 0.4442(7) -0.1947(8) 0.1209(5)
C8B C 0.5349(7) -0.2535(9) 0.1256(6)
H6B H 0.5976 -0.2202 0.1475
C9B C 0.5282(7) -0.3604(9) 0.0973(6)
H7B H 0.5873 -0.4011 0.1013
C10B C 0.4352(7) -0.4092(9) 0.0626(6)
H8B H 0.4338 -0.4817 0.0432
C11B C 0.3518(7) -0.2490(8) 0.0847(5)
C12B C 0.2551(7) -0.1919(8) 0.0801(5)
C13B C 0.0853(7) -0.5737(8) 0.1030(5)
C14B C 0.1427(7) -0.6590(8) 0.1602(5)
C15B C 0.2491(6) -0.6640(8) 0.1787(5)
H9B H 0.2841 -0.6147 0.1574
C16B C 0.3012(7) -0.7442(8) 0.2297(6)
C17B C 0.2492(7) -0.8193(8) 0.2616(5)
H10B H 0.2845 -0.8729 0.2950
C18B C 0.1441(7) -0.8133(8) 0.2428(5)
H11B H 0.1092 -0.8624 0.2644
C19B C 0.0898(7) -0.7333(8) 0.1914(5)
H12B H 0.0195 -0.7302 0.1786
C20B C 0.5567(7) -0.7410(9) 0.2187(6)
C21B C 0.6077(7) -0.8305(9) 0.2630(5)
H13B H 0.5769 -0.8688 0.2926
C22B C 0.7026(8) -0.8612(8) 0.2625(6)
H14B H 0.7360 -0.9195 0.2927
C23B C 0.7510(7) -0.8064(8) 0.2172(5)
H15B H 0.8143 -0.8307 0.2158
C24B C 0.7025(7) -0.7148(8) 0.1743(5)
C25B C 0.6067(7) -0.6823(9) 0.1760(5)
H16B H 0.5750 -0.6205 0.1485
C26B C 0.7509(7) -0.6564(9) 0.1239(5)
C27B C -0.7802(8) 0.3340(8) -0.0247(5)
C28B C -0.7503(7) 0.2157(8) -0.0371(5)
C29B C -0.8180(8) 0.1434(9) -0.0830(6)
H17B H -0.8834 0.1685 -0.1066
C30B C -0.7901(10) 0.0313(10) -0.0951(7)
H18B H -0.8377 -0.0184 -0.1238
C31B C -0.6915(9) -0.0029(9) -0.0639(7)
H19B H -0.6720 -0.0758 -0.0723
C32B C -0.6204(8) 0.0707(9) -0.0198(6)
C33B C -0.6524(8) 0.1773(8) -0.0040(5)
H20B H -0.6071 0.2235 0.0295
loop_
_geom_bond_atom_site_label_1
_geom_bond_atom_site_label_2
_geom_bond_site_symmetry_1
_geom_bond_site_symmetry_2
Y1 N1 1_555 1_555
N1 C1 1_555 1_555
N2 Y1 1_555 1_555
N3 N4 1_555 1_555
N4 C20 1_555 1_555
N5 C32 1_555 1_555
O1 Y1 1_555 1_555
O2 Y1 1_555 1_555
O3 C26 1_555 1_555
O4 C26 1_555 1_555
O5 Y1 1_555 1_555
O6 Y1 1_555 1_555
C1 H1 1_555 1_555
C2 C1 1_555 1_555
H2 C2 1_555 1_555
C3 C2 1_555 1_555
H3 C3 1_555 1_555
C4 C3 1_555 1_555
C5 C4 1_555 1_555
H4 C5 1_555 1_555
C6 C5 1_555 1_555
H5 C6 1_555 1_555
C7 C6 1_555 1_555
C8 C7 1_555 1_555
H6 C8 1_555 1_555
C9 C8 1_555 1_555
H7 C9 1_555 1_555
C10 N2 1_555 1_555
H8 C10 1_555 1_555
C11 N2 1_555 1_555
C12 N1 1_555 1_555
C13 O1 1_555 1_555
C14 C13 1_555 1_555
C15 C14 1_555 1_555
H9 C15 1_555 1_555
C16 N3 1_555 1_555
C17 C16 1_555 1_555
H10 C17 1_555 1_555
C18 C17 1_555 1_555
H11 C18 1_555 1_555
C19 C14 1_555 1_555
H12 C19 1_555 1_555
C20 C21 1_555 1_555
C21 H13 1_555 1_555
C22 C21 1_555 1_555
H14 C22 1_555 1_555
C23 C22 1_555 1_555
H15 C23 1_555 1_555
C24 C23 1_555 1_555
C25 C20 1_555 1_555
H16 C25 1_555 1_555
C26 C24 1_555 1_555
C27 O5 1_555 1_555
C28 C27 1_555 1_555
C29 C28 1_555 1_555
H17 C29 1_555 1_555
C30 C29 1_555 1_555
H18 C30 1_555 1_555
C31 C30 1_555 1_555
H19 C31 1_555 1_555
C32 C31 1_555 1_555
C33 C28 1_555 1_555
H20 C33 1_555 1_555
Y1B N1B 1_555 1_555
Y1B_2 O5B 1_555 1_555
Y1B_3 O3 1_555 1_555
Y1_2 O3B_2 1_555 1_555
N1B C1B 1_555 1_555
N2B Y1B 1_555 1_555
N3B N4B 1_555 1_555
N4B C20B 1_555 1_555
N5B N5 1_555 1_555
O1B Y1B 1_555 1_555
O2B C13 1_555 1_555
O3_2 Y1B 1_555 1_555
O3B Y1 1_555 1_555
O3B_2 C26B 1_555 1_555
O4_2 Y1B 1_555 1_555
O4B Y1 1_555 1_555
O4B_2 Y1_2 1_555 1_555
O5B C27B 1_555 1_555
O5B_2 Y1B 1_555 1_555
O6B Y1B_2 1_555 1_555
O6B_2 Y1B 1_555 1_555
C1B H1B 1_555 1_555
C2B C1B 1_555 1_555
H2B C2B 1_555 1_555
C3B C2B 1_555 1_555
H3B C3B 1_555 1_555
C4B C3B 1_555 1_555
C5B C4B 1_555 1_555
H4B C5B 1_555 1_555
C6B C5B 1_555 1_555
H5B C6B 1_555 1_555
C7B C6B 1_555 1_555
C8B C7B 1_555 1_555
H6B C8B 1_555 1_555
C9B C8B 1_555 1_555
H7B C9B 1_555 1_555
C10B N2B 1_555 1_555
H8B C10B 1_555 1_555
C11B N2B 1_555 1_555
C12B N1B 1_555 1_555
C13B O2 1_555 1_555
C14B C13B 1_555 1_555
C15B C14B 1_555 1_555
H9B C15B 1_555 1_555
C16B N3B 1_555 1_555
C17B C16B 1_555 1_555
H10B C17B 1_555 1_555
C18B C17B 1_555 1_555
H11B C18B 1_555 1_555
C19B C14B 1_555 1_555
H12B C19B 1_555 1_555
C20B C21B 1_555 1_555
C21B H13B 1_555 1_555
C22B C21B 1_555 1_555
H14B C22B 1_555 1_555
C23B C22B 1_555 1_555
H15B C23B 1_555 1_555
C24B C23B 1_555 1_555
C25B C20B 1_555 1_555
H16B C25B 1_555 1_555
C26B O4B_2 1_555 1_555
C27B O6B 1_555 1_555
C28B C27B 1_555 1_555
C29B C28B 1_555 1_555
H17B C29B 1_555 1_555
C30B C29B 1_555 1_555
H18B C30B 1_555 1_555
C31B C30B 1_555 1_555
H19B C31B 1_555 1_555
C32B N5B 1_555 1_555
C33B C28B 1_555 1_555
H20B C33B 1_555 1_555
O4 Y1B_3 1_555 1_555
O6 C27 1_555 1_555
C4 C12 1_555 1_555
C7 C11 1_555 1_555
C9 C10 1_555 1_555
C11 C12 1_555 1_555
C15 C16 1_555 1_555
C18 C19 1_555 1_555
C24 C25 1_555 1_555
C32 C33 1_555 1_555
Y1B O2B 1_555 1_555
O1B C13B 1_555 1_555
C4B C12B 1_555 1_555
C7B C11B 1_555 1_555
C9B C10B 1_555 1_555
C11B C12B 1_555 1_555
C15B C16B 1_555 1_555
C18B C19B 1_555 1_555
C24B C25B 1_555 1_555
C24B C26B 1_555 1_555
C31B C32B 1_555 1_555
C32B C33B 1_555 1_555

#END
