
#######################################################################
#
#                 Cambridge Crystallographic Data Centre
#                                CCDC 
#
#######################################################################
#
# If this CIF has been generated from an entry in the Cambridge 
# Structural Database, then it will include bibliographic, chemical, 
# crystal, experimental, refinement or atomic coordinate data resulting 
# from the CCDC's data processing and validation procedures.
#
#######################################################################

data_KIVHON
_symmetry_cell_setting           orthorhombic
_symmetry_space_group_name_H-M   'P b c a'
_symmetry_Int_Tables_number      61
_space_group_name_Hall           '-P 2ac 2ab'
loop_
_symmetry_equiv_pos_site_id
_symmetry_equiv_pos_as_xyz
1 x,y,z
2 1/2-x,-y,1/2+z
3 -x,1/2+y,1/2-z
4 1/2+x,1/2-y,-z
5 -x,-y,-z
6 1/2+x,y,1/2-z
7 x,1/2-y,1/2+z
8 1/2-x,1/2+y,z
_cell_length_a                   7.786(3)
_cell_length_b                   10.464(4)
_cell_length_c                   31.574(10)
_cell_angle_alpha                90
_cell_angle_beta                 90
_cell_angle_gamma                90
_cell_volume                     2572.42
loop_
_atom_site_label
_atom_site_type_symbol
_atom_site_fract_x
_atom_site_fract_y
_atom_site_fract_z
Ba1 Ba 0.96824(18) 0.20015(13) 0.51415(5)
N1 N 0.627(3) 0.109(2) 0.2787(7)
N2 N 0.594(3) 0.021(2) 0.2536(8)
O1 O 0.6754(19) 0.0916(15) 0.4807(6)
O2 O 0.6945(19) -0.1192(13) 0.4642(5)
O3 O 0.548(2) 0.0291(14) 0.0521(6)
O4 O 0.697(2) 0.2092(17) 0.0608(5)
C1 C 0.661(3) 0.000(2) 0.4547(9)
C2 C 0.638(3) 0.029(2) 0.4095(8)
C3 C 0.561(3) -0.060(2) 0.3818(8)
H1 H 0.5163 -0.1357 0.3926
C4 C 0.553(4) -0.037(2) 0.3389(8)
H2 H 0.5030 -0.0969 0.3209
C5 C 0.620(4) 0.079(2) 0.3222(8)
C6 C 0.685(4) 0.171(2) 0.3501(9)
H3 H 0.7216 0.2494 0.3397
C7 C 0.696(3) 0.147(2) 0.3931(8)
H4 H 0.7410 0.2080 0.4112
C8 C 0.629(3) 0.106(2) 0.0751(8)
C9 C 0.629(3) 0.086(2) 0.1222(8)
C10 C 0.550(3) -0.026(2) 0.1390(8)
H5 H 0.5044 -0.0875 0.1211
C11 C 0.542(4) -0.041(2) 0.1820(9)
H6 H 0.4901 -0.1142 0.1928
C12 C 0.607(3) 0.049(3) 0.2103(9)
C13 C 0.691(3) 0.160(2) 0.1936(9)
H7 H 0.7388 0.2204 0.2116
C14 C 0.698(3) 0.175(2) 0.1504(9)
H8 H 0.7513 0.2471 0.1395
Ba1C Ba 0.46824(18) 0.29985(13) 0.48585(5)
Ba1G Ba 0.53176(18) -0.29985(13) 0.51415(5)
Ba1D Ba 1.03176(18) -0.20015(13) 0.48585(5)
Ba1E Ba 0.46824(18) 0.20015(13) -0.01415(5)
Ba1A Ba 0.53176(18) -0.20015(13) 0.01415(5)
Ba1F Ba 0.96824(18) 0.29985(13) 0.01415(5)
O1C O 1.1754(19) 0.4084(15) 0.5193(6)
O2G O 0.8055(19) 0.3808(13) 0.4642(5)
O2D O 1.3055(19) 0.1192(13) 0.5358(5)
O3E O 1.048(2) 0.0291(14) 0.4479(6)
O3A O 0.952(2) -0.0291(14) 0.5521(6)
O4F O 0.697(2) 0.2908(17) 0.5608(5)
loop_
_geom_bond_atom_site_label_1
_geom_bond_atom_site_label_2
_geom_bond_site_symmetry_1
_geom_bond_site_symmetry_2
Ba1 O1 1_555 1_555
N1 N2 1_555 1_555
N2 C12 1_555 1_555
O1 C1 1_555 1_555
O2 C1 1_555 1_555
O3 C8 1_555 1_555
O4 C8 1_555 1_555
C1 C2 1_555 1_555
C2 C3 1_555 1_555
C3 H1 1_555 1_555
C4 C3 1_555 1_555
H2 C4 1_555 1_555
C5 N1 1_555 1_555
C6 C5 1_555 1_555
H3 C6 1_555 1_555
C7 C2 1_555 1_555
H4 C7 1_555 1_555
C8 C9 1_555 1_555
C9 C10 1_555 1_555
C10 H5 1_555 1_555
C11 C10 1_555 1_555
H6 C11 1_555 1_555
C12 C11 1_555 1_555
C13 C12 1_555 1_555
H7 C13 1_555 1_555
C14 C9 1_555 1_555
H8 C14 1_555 1_555
Ba1C O1 1_555 1_555
Ba1G O2 1_555 1_555
Ba1D O2 1_555 1_555
Ba1E O3 1_555 1_555
Ba1A O3 1_555 1_555
Ba1F O4 1_555 1_555
O1C Ba1 1_555 1_555
O2G Ba1 1_555 1_555
O2D Ba1 1_555 1_555
O3E Ba1 1_555 1_555
O3A Ba1 1_555 1_555
O4F Ba1 1_555 1_555
C4 C5 1_555 1_555
C6 C7 1_555 1_555
C13 C14 1_555 1_555
Ba1C O2G 1_555 1_555
Ba1D O3E 1_555 1_555
Ba1D O3A 1_555 1_555

#END
