
#######################################################################
#
#                 Cambridge Crystallographic Data Centre
#                                CCDC 
#
#######################################################################
#
# If this CIF has been generated from an entry in the Cambridge 
# Structural Database, then it will include bibliographic, chemical, 
# crystal, experimental, refinement or atomic coordinate data resulting 
# from the CCDC's data processing and validation procedures.
#
#######################################################################

data_KIVHED
_symmetry_cell_setting           monoclinic
_symmetry_space_group_name_H-M   'P 21/n'
_symmetry_Int_Tables_number      14
_space_group_name_Hall           '-P 2yn'
loop_
_symmetry_equiv_pos_site_id
_symmetry_equiv_pos_as_xyz
1 x,y,z
2 1/2-x,1/2+y,1/2-z
3 -x,-y,-z
4 1/2+x,1/2-y,1/2+z
_cell_length_a                   13.771(6)
_cell_length_b                   11.733(5)
_cell_length_c                   18.983(8)
_cell_angle_alpha                90
_cell_angle_beta                 107.627(5)
_cell_angle_gamma                90
_cell_volume                     2923.17
loop_
_atom_site_label
_atom_site_type_symbol
_atom_site_fract_x
_atom_site_fract_y
_atom_site_fract_z
Sm1 Sm 0.82275(4) 0.43905(4) 1.01748(3)
N1 N 0.8287(7) 0.2473(7) 0.9504(5)
N2 N 0.6523(6) 0.3549(7) 0.9418(5)
N3 N 0.5949(7) 0.7719(8) 0.7543(5)
N4 N 0.5494(7) 0.7100(8) 0.7873(5)
N5 N 0.5132(8) 0.9571(7) 0.9882(6)
O1 O 0.8665(5) 0.4984(5) 0.9135(4)
O2 O 1.0087(5) 0.5881(6) 0.9201(4)
O3 O 0.2810(5) 0.5584(6) 0.8965(4)
O4 O 0.1869(6) 0.7098(6) 0.8939(4)
O5 O 0.7100(5) 0.6039(6) 0.9824(4)
O6 O 0.8672(6) 0.6357(5) 1.0549(4)
C1 C 0.9152(9) 0.1986(9) 0.9536(7)
H1 H 0.9759 0.2380 0.9740
C2 C 0.9179(10) 0.0880(11) 0.9269(8)
H2 H 0.9802 0.0535 0.9311
C3 C 0.8316(11) 0.0318(10) 0.8953(8)
H3 H 0.8339 -0.0420 0.8779
C4 C 0.7379(9) 0.0834(9) 0.8883(7)
C5 C 0.6418(11) 0.0308(10) 0.8528(7)
H4 H 0.6400 -0.0415 0.8324
C6 C 0.5551(11) 0.0838(10) 0.8488(7)
H5 H 0.4937 0.0472 0.8261
C7 C 0.5535(9) 0.1957(9) 0.8783(6)
C8 C 0.4626(9) 0.2550(10) 0.8724(6)
H6 H 0.3994 0.2217 0.8501
C9 C 0.4700(9) 0.3625(11) 0.9006(7)
H7 H 0.4120 0.4059 0.8965
C10 C 0.5654(9) 0.4051(9) 0.9350(7)
H8 H 0.5685 0.4774 0.9556
C11 C 0.6464(8) 0.2476(8) 0.9134(6)
C12 C 0.7395(8) 0.1921(9) 0.9189(6)
C13 C 0.9144(8) 0.5752(9) 0.8937(6)
C14 C 0.8581(7) 0.6615(8) 0.8383(5)
C15 C 0.7541(8) 0.6672(9) 0.8199(6)
H9 H 0.7194 0.6151 0.8403
C16 C 0.6998(8) 0.7496(9) 0.7712(6)
C17 C 0.7537(9) 0.8221(10) 0.7385(6)
H10 H 0.7191 0.8755 0.7037
C18 C 0.8573(9) 0.8145(9) 0.7575(6)
H11 H 0.8923 0.8641 0.7356
C19 C 0.9110(8) 0.7371(9) 0.8072(6)
H12 H 0.9818 0.7348 0.8201
C20 C 0.4472(9) 0.7424(9) 0.7795(7)
C21 C 0.3967(9) 0.8302(10) 0.7348(7)
H13 H 0.4273 0.8673 0.7038
C22 C 0.3010(9) 0.8633(10) 0.7360(7)
H14 H 0.2678 0.9240 0.7072
C23 C 0.2555(8) 0.8052(9) 0.7804(6)
H15 H 0.1910 0.8278 0.7810
C24 C 0.3006(8) 0.7168(9) 0.8232(6)
C25 C 0.3990(9) 0.6848(9) 0.8213(6)
H16 H 0.4313 0.6229 0.8494
C26 C 0.2536(8) 0.6569(9) 0.8738(6)
C27 C 0.7753(9) 0.6667(9) 1.0216(6)
C28 C 0.7489(9) 0.7878(9) 1.0354(6)
C29 C 0.8186(9) 0.8600(9) 1.0813(7)
H17 H 0.8852 0.8363 1.1038
C30 C 0.7876(11) 0.9695(10) 1.0936(8)
H18 H 0.8348 1.0193 1.1235
C31 C 0.6898(11) 1.0048(10) 1.0627(8)
H19 H 0.6706 1.0782 1.0715
C32 C 0.6197(9) 0.9313(10) 1.0184(6)
C33 C 0.6502(8) 0.8232(8) 1.0040(6)
H20 H 0.6033 0.7743 0.9727
Sm1B Sm 1.17725(4) 0.56095(4) 0.98252(3)
Sm1B_2 Sm 0.17725(4) 0.56095(4) 0.98252(3)
Sm1B_3 Sm 0.17725(4) 1.56095(4) 0.98252(3)
Sm1_2 Sm 1.82275(4) 0.43905(4) 1.01748(3)
N1B N 1.1713(7) 0.7527(7) 1.0496(5)
N2B N 1.3477(6) 0.6451(7) 1.0582(5)
N3B N 1.4051(7) 0.2281(8) 1.2457(5)
N4B N 1.4506(7) 0.2900(8) 1.2127(5)
N5B N 0.4868(8) 1.0429(7) 1.0118(6)
O1B O 1.1335(5) 0.5016(5) 1.0865(4)
O2B O 0.9913(5) 0.4119(6) 1.0799(4)
O3B O 1.7190(5) 0.4416(6) 1.1035(4)
O3B_2 O 0.7190(5) 0.4416(6) 1.1035(4)
O3_2 O 1.2810(5) 0.5584(6) 0.8965(4)
O4B O 1.8131(6) 0.2902(6) 1.1061(4)
O4B_2 O 0.8131(6) 0.2902(6) 1.1061(4)
O4_2 O 1.1869(6) 0.7098(6) 0.8939(4)
O5B O 0.2900(5) 1.3961(6) 1.0176(4)
O5B_2 O 1.2900(5) 0.3961(6) 1.0176(4)
O6B O 0.1328(6) 1.3643(5) 0.9451(4)
O6B_2 O 1.1328(6) 0.3643(5) 0.9451(4)
C1B C 1.0848(9) 0.8014(9) 1.0464(7)
H1B H 1.0241 0.7620 1.0260
C2B C 1.0821(10) 0.9120(11) 1.0731(8)
H2B H 1.0198 0.9465 1.0689
C3B C 1.1684(11) 0.9682(10) 1.1047(8)
H3B H 1.1661 1.0420 1.1221
C4B C 1.2621(9) 0.9166(9) 1.1117(7)
C5B C 1.3582(11) 0.9692(10) 1.1472(7)
H4B H 1.3600 1.0415 1.1676
C6B C 1.4449(11) 0.9162(10) 1.1512(7)
H5B H 1.5063 0.9528 1.1739
C7B C 1.4465(9) 0.8043(9) 1.1217(6)
C8B C 1.5374(9) 0.7450(10) 1.1276(6)
H6B H 1.6006 0.7783 1.1499
C9B C 1.5300(9) 0.6375(11) 1.0994(7)
H7B H 1.5880 0.5941 1.1035
C10B C 1.4346(9) 0.5949(9) 1.0650(7)
H8B H 1.4315 0.5226 1.0444
C11B C 1.3536(8) 0.7524(8) 1.0866(6)
C12B C 1.2605(8) 0.8079(9) 1.0811(6)
C13B C 1.0856(8) 0.4248(9) 1.1063(6)
C14B C 1.1419(7) 0.3385(8) 1.1617(5)
C15B C 1.2459(8) 0.3328(9) 1.1801(6)
H9B H 1.2806 0.3849 1.1597
C16B C 1.3002(8) 0.2504(9) 1.2288(6)
C17B C 1.2463(9) 0.1779(10) 1.2615(6)
H10B H 1.2809 0.1245 1.2963
C18B C 1.1427(9) 0.1855(9) 1.2425(6)
H11B H 1.1077 0.1359 1.2644
C19B C 1.0890(8) 0.2629(9) 1.1928(6)
H12B H 1.0182 0.2652 1.1799
C20B C 1.5528(9) 0.2576(9) 1.2205(7)
C21B C 1.6033(9) 0.1698(10) 1.2652(7)
H13B H 1.5727 0.1327 1.2962
C22B C 1.6990(9) 0.1367(10) 1.2640(7)
H14B H 1.7322 0.0760 1.2928
C23B C 1.7445(8) 0.1948(9) 1.2196(6)
H15B H 1.8090 0.1722 1.2190
C24B C 1.6994(8) 0.2832(9) 1.1768(6)
C25B C 1.6010(9) 0.3152(9) 1.1787(6)
H16B H 1.5687 0.3771 1.1506
C26B C 1.7464(8) 0.3431(9) 1.1262(6)
C27B C 0.2247(9) 1.3333(9) 0.9784(6)
C28B C 0.2511(9) 1.2122(9) 0.9646(6)
C29B C 0.1814(9) 1.1400(9) 0.9187(7)
H17B H 0.1148 1.1637 0.8962
C30B C 0.2124(11) 1.0305(10) 0.9064(8)
H18B H 0.1652 0.9807 0.8765
C31B C 0.3102(11) 0.9952(10) 0.9373(8)
H19B H 0.3294 0.9218 0.9285
C32B C 0.3803(9) 1.0687(10) 0.9816(6)
C33B C 0.3498(8) 1.1768(8) 0.9960(6)
H20B H 0.3967 1.2257 1.0273
loop_
_geom_bond_atom_site_label_1
_geom_bond_atom_site_label_2
_geom_bond_site_symmetry_1
_geom_bond_site_symmetry_2
Sm1 N1 1_555 1_555
N1 C1 1_555 1_555
N2 Sm1 1_555 1_555
N3 N4 1_555 1_555
N4 C20 1_555 1_555
N5 C32 1_555 1_555
O1 Sm1 1_555 1_555
O2 C13 1_555 1_555
O3 C26 1_555 1_555
O4 C26 1_555 1_555
O5 Sm1 1_555 1_555
O6 Sm1 1_555 1_555
C1 H1 1_555 1_555
C2 C1 1_555 1_555
H2 C2 1_555 1_555
C3 C2 1_555 1_555
H3 C3 1_555 1_555
C4 C3 1_555 1_555
C5 C4 1_555 1_555
H4 C5 1_555 1_555
C6 C5 1_555 1_555
H5 C6 1_555 1_555
C7 C6 1_555 1_555
C8 C7 1_555 1_555
H6 C8 1_555 1_555
C9 C8 1_555 1_555
H7 C9 1_555 1_555
C10 N2 1_555 1_555
H8 C10 1_555 1_555
C11 N2 1_555 1_555
C12 N1 1_555 1_555
C13 O1 1_555 1_555
C14 C13 1_555 1_555
C15 C14 1_555 1_555
H9 C15 1_555 1_555
C16 N3 1_555 1_555
C17 C16 1_555 1_555
H10 C17 1_555 1_555
C18 C17 1_555 1_555
H11 C18 1_555 1_555
C19 C14 1_555 1_555
H12 C19 1_555 1_555
C20 C21 1_555 1_555
C21 H13 1_555 1_555
C22 C21 1_555 1_555
H14 C22 1_555 1_555
C23 C22 1_555 1_555
H15 C23 1_555 1_555
C24 C23 1_555 1_555
C25 C20 1_555 1_555
H16 C25 1_555 1_555
C26 C24 1_555 1_555
C27 O5 1_555 1_555
C28 C27 1_555 1_555
C29 C28 1_555 1_555
H17 C29 1_555 1_555
C30 C29 1_555 1_555
H18 C30 1_555 1_555
C31 C30 1_555 1_555
H19 C31 1_555 1_555
C32 C31 1_555 1_555
C33 C28 1_555 1_555
H20 C33 1_555 1_555
Sm1B O2 1_555 1_555
Sm1B_2 O3 1_555 1_555
Sm1B_3 O5B 1_555 1_555
Sm1_2 O3B 1_555 1_555
N1B Sm1B 1_555 1_555
N2B Sm1B 1_555 1_555
N3B N4B 1_555 1_555
N4B C20B 1_555 1_555
N5B N5 1_555 1_555
O1B Sm1B 1_555 1_555
O2B Sm1 1_555 1_555
O3B C26B 1_555 1_555
O3B_2 Sm1 1_555 1_555
O3_2 Sm1B 1_555 1_555
O4B Sm1_2 1_555 1_555
O4B_2 Sm1 1_555 1_555
O4_2 Sm1B 1_555 1_555
O5B C27B 1_555 1_555
O5B_2 Sm1B 1_555 1_555
O6B Sm1B_3 1_555 1_555
O6B_2 Sm1B 1_555 1_555
C1B N1B 1_555 1_555
H1B C1B 1_555 1_555
C2B C1B 1_555 1_555
H2B C2B 1_555 1_555
C3B C2B 1_555 1_555
H3B C3B 1_555 1_555
C4B C3B 1_555 1_555
C5B C4B 1_555 1_555
H4B C5B 1_555 1_555
C6B C5B 1_555 1_555
H5B C6B 1_555 1_555
C7B C6B 1_555 1_555
C8B C7B 1_555 1_555
H6B C8B 1_555 1_555
C9B C8B 1_555 1_555
H7B C9B 1_555 1_555
C10B N2B 1_555 1_555
H8B C10B 1_555 1_555
C11B N2B 1_555 1_555
C12B N1B 1_555 1_555
C13B O1B 1_555 1_555
C14B C13B 1_555 1_555
C15B C14B 1_555 1_555
H9B C15B 1_555 1_555
C16B N3B 1_555 1_555
C17B C16B 1_555 1_555
H10B C17B 1_555 1_555
C18B C17B 1_555 1_555
H11B C18B 1_555 1_555
C19B C14B 1_555 1_555
H12B C19B 1_555 1_555
C20B C21B 1_555 1_555
C21B H13B 1_555 1_555
C22B C21B 1_555 1_555
H14B C22B 1_555 1_555
C23B C22B 1_555 1_555
H15B C23B 1_555 1_555
C24B C23B 1_555 1_555
C25B C20B 1_555 1_555
H16B C25B 1_555 1_555
C26B O4B 1_555 1_555
C27B O6B 1_555 1_555
C28B C27B 1_555 1_555
C29B C28B 1_555 1_555
H17B C29B 1_555 1_555
C30B C29B 1_555 1_555
H18B C30B 1_555 1_555
C31B C30B 1_555 1_555
H19B C31B 1_555 1_555
C32B N5B 1_555 1_555
C33B C28B 1_555 1_555
H20B C33B 1_555 1_555
O4 Sm1B_2 1_555 1_555
O6 C27 1_555 1_555
C4 C12 1_555 1_555
C7 C11 1_555 1_555
C9 C10 1_555 1_555
C11 C12 1_555 1_555
C15 C16 1_555 1_555
C18 C19 1_555 1_555
C24 C25 1_555 1_555
C32 C33 1_555 1_555
O2B C13B 1_555 1_555
C4B C12B 1_555 1_555
C7B C11B 1_555 1_555
C9B C10B 1_555 1_555
C11B C12B 1_555 1_555
C15B C16B 1_555 1_555
C18B C19B 1_555 1_555
C24B C25B 1_555 1_555
C24B C26B 1_555 1_555
C31B C32B 1_555 1_555
C32B C33B 1_555 1_555

#END
