
#######################################################################
#
#                 Cambridge Crystallographic Data Centre
#                                CCDC 
#
#######################################################################
#
# If this CIF has been generated from an entry in the Cambridge 
# Structural Database, then it will include bibliographic, chemical, 
# crystal, experimental, refinement or atomic coordinate data resulting 
# from the CCDC's data processing and validation procedures.
#
#######################################################################

data_KIVHIH
_symmetry_cell_setting           monoclinic
_symmetry_space_group_name_H-M   'P 21/n'
_symmetry_Int_Tables_number      14
_space_group_name_Hall           '-P 2yn'
loop_
_symmetry_equiv_pos_site_id
_symmetry_equiv_pos_as_xyz
1 x,y,z
2 1/2-x,1/2+y,1/2-z
3 -x,-y,-z
4 1/2+x,1/2-y,1/2+z
_cell_length_a                   13.728(4)
_cell_length_b                   11.688(4)
_cell_length_c                   19.196(6)
_cell_angle_alpha                90
_cell_angle_beta                 107.743(4)
_cell_angle_gamma                90
_cell_volume                     2933.54
loop_
_atom_site_label
_atom_site_type_symbol
_atom_site_fract_x
_atom_site_fract_y
_atom_site_fract_z
Er1 Er 0.82370(6) 0.43772(6) 1.01613(5)
N1 N 0.8330(10) 0.2508(11) 0.9531(8)
N2 N 0.6537(10) 0.3559(11) 0.9435(8)
N3 N 0.5900(10) 0.7678(11) 0.7559(8)
N4 N 0.5486(10) 0.7077(13) 0.7905(9)
N5 N 0.5143(12) 0.9567(12) 0.9877(10)
O1 O 0.8670(8) 0.4961(9) 0.9172(7)
O2 O 1.0109(8) 0.5917(9) 0.9235(7)
O3 O 0.2750(8) 0.5563(9) 0.8987(7)
O4 O 0.1840(8) 0.7105(10) 0.8991(7)
O5 O 0.7157(8) 0.6014(9) 0.9814(7)
O6 O 0.8688(8) 0.6261(9) 1.0594(7)
C1 C 0.9208(14) 0.2010(17) 0.9552(12)
H1 H 0.9817 0.2404 0.9758
C2 C 0.9243(16) 0.0895(15) 0.9269(11)
H2 H 0.9869 0.0564 0.9295
C3 C 0.8348(17) 0.0303(16) 0.8957(13)
H3 H 0.8361 -0.0443 0.8792
C4 C 0.7432(15) 0.0847(14) 0.8897(12)
C5 C 0.6442(17) 0.0308(14) 0.8550(12)
H4 H 0.6433 -0.0434 0.8373
C6 C 0.5588(16) 0.0806(16) 0.8478(11)
H5 H 0.4984 0.0441 0.8220
C7 C 0.5541(14) 0.1932(16) 0.8791(11)
C8 C 0.4648(13) 0.2567(17) 0.8740(12)
H6 H 0.4016 0.2255 0.8489
C9 C 0.4682(13) 0.3652(15) 0.9056(10)
H7 H 0.4096 0.4045 0.9062
C10 C 0.5664(12) 0.4098(19) 0.9361(11)
H8 H 0.5708 0.4849 0.9528
C11 C 0.6496(12) 0.2488(13) 0.9150(10)
C12 C 0.7461(12) 0.1944(13) 0.9206(10)
C13 C 0.9143(12) 0.5768(13) 0.8959(9)
C14 C 0.8599(11) 0.6587(14) 0.8399(10)
C15 C 0.7502(12) 0.6620(14) 0.8210(10)
H9 H 0.7151 0.6095 0.8409
C16 C 0.6981(12) 0.7450(14) 0.7726(9)
C17 C 0.7528(14) 0.8188(16) 0.7372(10)
H10 H 0.7178 0.8694 0.7007
C18 C 0.8567(12) 0.8127(14) 0.7582(10)
H11 H 0.8927 0.8640 0.7383
C19 C 0.9111(12) 0.7315(13) 0.8091(10)
H12 H 0.9820 0.7279 0.8215
C20 C 0.4416(14) 0.7389(16) 0.7808(12)
C21 C 0.3903(13) 0.8303(15) 0.7359(11)
H13 H 0.4203 0.8686 0.7052
C22 C 0.2949(14) 0.8610(15) 0.7392(11)
H14 H 0.2613 0.9220 0.7108
C23 C 0.2481(12) 0.8055(14) 0.7822(10)
H15 H 0.1839 0.8291 0.7833
C24 C 0.2952(11) 0.7152(14) 0.8238(9)
C25 C 0.3966(12) 0.6837(15) 0.8235(10)
H16 H 0.4309 0.6244 0.8534
C26 C 0.2488(13) 0.6567(14) 0.8761(11)
C27 C 0.7778(14) 0.6649(14) 1.0264(12)
C28 C 0.7533(13) 0.7856(14) 1.0366(11)
C29 C 0.8217(16) 0.8557(14) 1.0849(11)
H17 H 0.8866 0.8290 1.1104
C30 C 0.7936(17) 0.9650(16) 1.0953(12)
H18 H 0.8427 1.0162 1.1220
C31 C 0.6928(19) 1.0009(16) 1.0665(13)
H19 H 0.6737 1.0717 1.0803
C32 C 0.6202(15) 0.9336(16) 1.0179(11)
C33 C 0.6528(13) 0.8230(15) 1.0025(10)
H20 H 0.6070 0.7752 0.9696
Er1B Er 1.17630(6) 0.56228(6) 0.98387(5)
Er1B_2 Er 0.17630(6) 0.56228(6) 0.98387(5)
Er1B_3 Er 0.17630(6) 1.56228(6) 0.98387(5)
Er1_2 Er 1.82370(6) 0.43772(6) 1.01613(5)
N1B N 1.1670(10) 0.7492(11) 1.0469(8)
N2B N 1.3463(10) 0.6441(11) 1.0565(8)
N3B N 1.4100(10) 0.2322(11) 1.2441(8)
N4B N 1.4514(10) 0.2923(13) 1.2095(9)
N5B N 0.4857(12) 1.0433(12) 1.0123(10)
O1B O 1.1330(8) 0.5039(9) 1.0828(7)
O2B O 0.9891(8) 0.4083(9) 1.0765(7)
O3B O 1.7250(8) 0.4437(9) 1.1013(7)
O3B_2 O 0.7250(8) 0.4437(9) 1.1013(7)
O3_2 O 1.2750(8) 0.5563(9) 0.8987(7)
O4B O 1.8160(8) 0.2895(10) 1.1009(7)
O4B_2 O 0.8160(8) 0.2895(10) 1.1009(7)
O4_2 O 1.1840(8) 0.7105(10) 0.8991(7)
O5B O 0.2843(8) 1.3986(9) 1.0186(7)
O5B_2 O 1.2843(8) 0.3986(9) 1.0186(7)
O6B O 0.1312(8) 1.3739(9) 0.9406(7)
O6B_2 O 1.1312(8) 0.3739(9) 0.9406(7)
C1B C 1.0792(14) 0.7990(17) 1.0448(12)
H1B H 1.0183 0.7596 1.0242
C2B C 1.0757(16) 0.9105(15) 1.0731(11)
H2B H 1.0131 0.9436 1.0705
C3B C 1.1652(17) 0.9697(16) 1.1043(13)
H3B H 1.1639 1.0443 1.1208
C4B C 1.2568(15) 0.9153(14) 1.1103(12)
C5B C 1.3558(17) 0.9692(14) 1.1450(12)
H4B H 1.3567 1.0434 1.1627
C6B C 1.4412(16) 0.9194(16) 1.1522(11)
H5B H 1.5016 0.9559 1.1780
C7B C 1.4459(14) 0.8068(16) 1.1209(11)
C8B C 1.5352(13) 0.7433(17) 1.1260(12)
H6B H 1.5984 0.7745 1.1511
C9B C 1.5318(13) 0.6348(15) 1.0944(10)
H7B H 1.5904 0.5955 1.0938
C10B C 1.4336(12) 0.5902(19) 1.0639(11)
H8B H 1.4292 0.5151 1.0472
C11B C 1.3504(12) 0.7512(13) 1.0850(10)
C12B C 1.2539(12) 0.8056(13) 1.0794(10)
C13B C 1.0857(12) 0.4232(13) 1.1041(9)
C14B C 1.1401(11) 0.3413(14) 1.1601(10)
C15B C 1.2498(12) 0.3380(14) 1.1790(10)
H9B H 1.2849 0.3905 1.1591
C16B C 1.3019(12) 0.2550(14) 1.2274(9)
C17B C 1.2472(14) 0.1812(16) 1.2628(10)
H10B H 1.2822 0.1306 1.2993
C18B C 1.1433(12) 0.1873(14) 1.2418(10)
H11B H 1.1073 0.1360 1.2617
C19B C 1.0889(12) 0.2685(13) 1.1909(10)
H12B H 1.0180 0.2721 1.1785
C20B C 1.5584(14) 0.2611(16) 1.2192(12)
C21B C 1.6097(13) 0.1697(15) 1.2641(11)
H13B H 1.5797 0.1314 1.2948
C22B C 1.7051(14) 0.1390(15) 1.2608(11)
H14B H 1.7387 0.0780 1.2892
C23B C 1.7519(12) 0.1945(14) 1.2178(10)
H15B H 1.8161 0.1709 1.2167
C24B C 1.7048(11) 0.2848(14) 1.1762(9)
C25B C 1.6034(12) 0.3163(15) 1.1765(10)
H16B H 1.5691 0.3756 1.1466
C26B C 1.7512(13) 0.3433(14) 1.1239(11)
C27B C 0.2222(14) 1.3351(14) 0.9736(12)
C28B C 0.2467(13) 1.2144(14) 0.9634(11)
C29B C 0.1783(16) 1.1443(14) 0.9151(11)
H17B H 0.1134 1.1710 0.8896
C30B C 0.2064(17) 1.0350(16) 0.9047(12)
H18B H 0.1573 0.9838 0.8780
C31B C 0.3072(19) 0.9991(16) 0.9335(13)
H19B H 0.3263 0.9283 0.9197
C32B C 0.3798(15) 1.0664(16) 0.9821(11)
C33B C 0.3472(13) 1.1770(15) 0.9975(10)
H20B H 0.3930 1.2248 1.0304
loop_
_geom_bond_atom_site_label_1
_geom_bond_atom_site_label_2
_geom_bond_site_symmetry_1
_geom_bond_site_symmetry_2
Er1 N1 1_555 1_555
N1 C1 1_555 1_555
N2 Er1 1_555 1_555
N3 N4 1_555 1_555
N4 C20 1_555 1_555
N5 C32 1_555 1_555
O1 Er1 1_555 1_555
O2 C13 1_555 1_555
O3 C26 1_555 1_555
O4 C26 1_555 1_555
O5 Er1 1_555 1_555
O6 Er1 1_555 1_555
C1 H1 1_555 1_555
C2 C1 1_555 1_555
H2 C2 1_555 1_555
C3 C2 1_555 1_555
H3 C3 1_555 1_555
C4 C3 1_555 1_555
C5 C4 1_555 1_555
H4 C5 1_555 1_555
C6 C5 1_555 1_555
H5 C6 1_555 1_555
C7 C6 1_555 1_555
C8 C7 1_555 1_555
H6 C8 1_555 1_555
C9 C8 1_555 1_555
H7 C9 1_555 1_555
C10 N2 1_555 1_555
H8 C10 1_555 1_555
C11 N2 1_555 1_555
C12 N1 1_555 1_555
C13 O1 1_555 1_555
C14 C13 1_555 1_555
C15 C14 1_555 1_555
H9 C15 1_555 1_555
C16 N3 1_555 1_555
C17 C16 1_555 1_555
H10 C17 1_555 1_555
C18 C17 1_555 1_555
H11 C18 1_555 1_555
C19 C14 1_555 1_555
H12 C19 1_555 1_555
C20 C21 1_555 1_555
C21 H13 1_555 1_555
C22 C21 1_555 1_555
H14 C22 1_555 1_555
C23 C22 1_555 1_555
H15 C23 1_555 1_555
C24 C23 1_555 1_555
C25 C20 1_555 1_555
H16 C25 1_555 1_555
C26 C24 1_555 1_555
C27 O5 1_555 1_555
C28 C27 1_555 1_555
C29 C28 1_555 1_555
H17 C29 1_555 1_555
C30 C29 1_555 1_555
H18 C30 1_555 1_555
C31 C30 1_555 1_555
H19 C31 1_555 1_555
C32 C31 1_555 1_555
C33 C28 1_555 1_555
H20 C33 1_555 1_555
Er1B O2 1_555 1_555
Er1B_2 O3 1_555 1_555
Er1B_3 O5B 1_555 1_555
Er1_2 O3B 1_555 1_555
N1B Er1B 1_555 1_555
N2B Er1B 1_555 1_555
N3B N4B 1_555 1_555
N4B C20B 1_555 1_555
N5B N5 1_555 1_555
O1B Er1B 1_555 1_555
O2B Er1 1_555 1_555
O3B C26B 1_555 1_555
O3B_2 Er1 1_555 1_555
O3_2 Er1B 1_555 1_555
O4B Er1_2 1_555 1_555
O4B_2 Er1 1_555 1_555
O4_2 Er1B 1_555 1_555
O5B C27B 1_555 1_555
O5B_2 Er1B 1_555 1_555
O6B Er1B_3 1_555 1_555
O6B_2 Er1B 1_555 1_555
C1B N1B 1_555 1_555
H1B C1B 1_555 1_555
C2B C1B 1_555 1_555
H2B C2B 1_555 1_555
C3B C2B 1_555 1_555
H3B C3B 1_555 1_555
C4B C3B 1_555 1_555
C5B C4B 1_555 1_555
H4B C5B 1_555 1_555
C6B C5B 1_555 1_555
H5B C6B 1_555 1_555
C7B C6B 1_555 1_555
C8B C7B 1_555 1_555
H6B C8B 1_555 1_555
C9B C8B 1_555 1_555
H7B C9B 1_555 1_555
C10B N2B 1_555 1_555
H8B C10B 1_555 1_555
C11B N2B 1_555 1_555
C12B N1B 1_555 1_555
C13B O1B 1_555 1_555
C14B C13B 1_555 1_555
C15B C14B 1_555 1_555
H9B C15B 1_555 1_555
C16B N3B 1_555 1_555
C17B C16B 1_555 1_555
H10B C17B 1_555 1_555
C18B C17B 1_555 1_555
H11B C18B 1_555 1_555
C19B C14B 1_555 1_555
H12B C19B 1_555 1_555
C20B C21B 1_555 1_555
C21B H13B 1_555 1_555
C22B C21B 1_555 1_555
H14B C22B 1_555 1_555
C23B C22B 1_555 1_555
H15B C23B 1_555 1_555
C24B C23B 1_555 1_555
C25B C20B 1_555 1_555
H16B C25B 1_555 1_555
C26B O4B 1_555 1_555
C27B O6B 1_555 1_555
C28B C27B 1_555 1_555
C29B C28B 1_555 1_555
H17B C29B 1_555 1_555
C30B C29B 1_555 1_555
H18B C30B 1_555 1_555
C31B C30B 1_555 1_555
H19B C31B 1_555 1_555
C32B N5B 1_555 1_555
C33B C28B 1_555 1_555
H20B C33B 1_555 1_555
O4 Er1B_2 1_555 1_555
O6 C27 1_555 1_555
C4 C12 1_555 1_555
C7 C11 1_555 1_555
C9 C10 1_555 1_555
C11 C12 1_555 1_555
C15 C16 1_555 1_555
C18 C19 1_555 1_555
C24 C25 1_555 1_555
C32 C33 1_555 1_555
O2B C13B 1_555 1_555
C4B C12B 1_555 1_555
C7B C11B 1_555 1_555
C9B C10B 1_555 1_555
C11B C12B 1_555 1_555
C15B C16B 1_555 1_555
C18B C19B 1_555 1_555
C24B C25B 1_555 1_555
C24B C26B 1_555 1_555
C31B C32B 1_555 1_555
C32B C33B 1_555 1_555

#END
