
#######################################################################
#
#                 Cambridge Crystallographic Data Centre
#                                CCDC 
#
#######################################################################
#
# If this CIF has been generated from an entry in the Cambridge 
# Structural Database, then it will include bibliographic, chemical, 
# crystal, experimental, refinement or atomic coordinate data resulting 
# from the CCDC's data processing and validation procedures.
#
#######################################################################

data_KIVHUT
_symmetry_cell_setting           orthorhombic
_symmetry_space_group_name_H-M   'P 21 21 21'
_symmetry_Int_Tables_number      19
_space_group_name_Hall           'P 2ac 2ab'
loop_
_symmetry_equiv_pos_site_id
_symmetry_equiv_pos_as_xyz
1 x,y,z
2 1/2-x,-y,1/2+z
3 -x,1/2+y,1/2-z
4 1/2+x,1/2-y,-z
_cell_length_a                   8.0984(14)
_cell_length_b                   16.458(3)
_cell_length_c                   16.621(3)
_cell_angle_alpha                90
_cell_angle_beta                 90
_cell_angle_gamma                90
_cell_volume                     2215.3
loop_
_atom_site_label
_atom_site_type_symbol
_atom_site_fract_x
_atom_site_fract_y
_atom_site_fract_z
C1 C 0.8592(5) 0.2823(2) 0.6822(2)
C2 C 0.8898(5) 0.3594(2) 0.7098(2)
H1 H 0.9487 0.3670 0.7573
C3 C 0.8334(5) 0.4259(2) 0.6672(2)
C4 C 0.7398(5) 0.4139(2) 0.5977(2)
H2 H 0.7004 0.4585 0.5693
C5 C 0.7047(5) 0.3356(2) 0.5705(2)
C6 C 0.7679(5) 0.2706(3) 0.6133(2)
H3 H 0.7483 0.2180 0.5952
C7 C 0.6048(5) 0.3212(2) 0.4951(2)
H4 H 0.5563 0.3722 0.4778
H5 H 0.5153 0.2840 0.5072
C8 C 0.7080(5) 0.2866(2) 0.4271(2)
C9 C 0.8040(5) 0.3364(3) 0.3793(2)
H6 H 0.8080 0.3919 0.3898
C10 C 0.8946(5) 0.3045(2) 0.3157(2)
C11 C 0.8933(5) 0.2218(3) 0.3026(2)
H7 H 0.9538 0.2003 0.2601
C12 C 0.8046(5) 0.1705(3) 0.3511(2)
C13 C 0.7089(5) 0.2033(2) 0.4128(2)
H8 H 0.6451 0.1692 0.4447
C14 C 0.9318(5) 0.2126(2) 0.7273(2)
C15 C 0.8743(5) 0.5115(3) 0.6917(3)
C16 C 0.9928(5) 0.3587(2) 0.2630(2)
C17 C 0.8079(5) 0.0792(2) 0.3406(2)
Mg1 Mg 1.04929(16) 0.16895(8) 0.90080(8)
O1 O 0.9099(3) 0.14183(17) 0.69411(16)
H9 H 0.9677 0.1080 0.7170
O2 O 1.0041(4) 0.22324(16) 0.79076(15)
O3 O 0.9413(4) 0.51940(17) 0.76052(15)
O4 O 0.8442(4) 0.56722(18) 0.64504(17)
O5 O 1.0205(4) 0.43032(17) 0.29215(16)
H10 H 1.0701 0.4578 0.2588
O6 O 1.0377(4) 0.33689(17) 0.19540(15)
O7 O 0.7610(4) 0.03686(18) 0.39815(16)
O8 O 0.8566(4) 0.05283(16) 0.27444(16)
O9 O 1.2862(3) 0.22336(17) 0.90202(16)
H11 H 1.3484 0.2027 0.8662
H12 H 1.2655 0.2729 0.8918
O10 O 1.0877(4) 0.12431(19) 1.01573(16)
H13 H 1.1889 0.1227 1.0293
H14 H 1.0306 0.1486 1.0513
O11 O 0.8168(3) 0.11970(16) 0.90076(17)
H15 H 0.7528 0.1437 0.8679
H16 H 0.8182 0.0690 0.8908
O12 O 0.9604(4) 0.27526(17) 0.95013(16)
H17 H 0.9393 0.3113 0.9150
H18 H 0.8773 0.2677 0.9805
Mg1B Mg 0.95071(16) 0.66895(8) 0.59920(8)
O4B O 1.1558(4) 0.06722(18) 0.85496(17)
O13 O 0.3248(4) 0.38509(16) 0.87718(16)
H19 H 0.3126 0.3996 0.8285
H20 H 0.2931 0.4228 0.9085
O14 O 0.8226(4) 0.02195(18) 0.55733(18)
H21 H 0.7883 0.0359 0.5110
H22 H 0.8009 0.0591 0.5913
O15 O 0.3769(4) 0.05918(19) 0.08889(18)
H23 H 0.3710 0.0408 0.1366
H24 H 0.4613 0.0398 0.0654
loop_
_geom_bond_atom_site_label_1
_geom_bond_atom_site_label_2
_geom_bond_site_symmetry_1
_geom_bond_site_symmetry_2
C1 C2 1_555 1_555
C2 H1 1_555 1_555
C3 C2 1_555 1_555
C4 C3 1_555 1_555
H2 C4 1_555 1_555
C5 C4 1_555 1_555
C6 C1 1_555 1_555
H3 C6 1_555 1_555
C7 C5 1_555 1_555
H4 C7 1_555 1_555
H5 C7 1_555 1_555
C8 C7 1_555 1_555
C9 C8 1_555 1_555
H6 C9 1_555 1_555
C10 C9 1_555 1_555
C11 C10 1_555 1_555
H7 C11 1_555 1_555
C12 C11 1_555 1_555
C13 C8 1_555 1_555
H8 C13 1_555 1_555
C14 C1 1_555 1_555
C15 C3 1_555 1_555
C16 C10 1_555 1_555
C17 C12 1_555 1_555
Mg1 O2 1_555 1_555
O1 C14 1_555 1_555
H9 O1 1_555 1_555
O2 C14 1_555 1_555
O3 C15 1_555 1_555
O4 C15 1_555 1_555
O5 C16 1_555 1_555
H10 O5 1_555 1_555
O6 C16 1_555 1_555
O7 C17 1_555 1_555
O8 C17 1_555 1_555
O9 Mg1 1_555 1_555
H11 O9 1_555 1_555
H12 O9 1_555 1_555
O10 Mg1 1_555 1_555
H13 O10 1_555 1_555
H14 O10 1_555 1_555
O11 Mg1 1_555 1_555
H15 O11 1_555 1_555
H16 O11 1_555 1_555
O12 Mg1 1_555 1_555
H17 O12 1_555 1_555
H18 O12 1_555 1_555
O13 H19 1_555 1_555
H20 O13 1_555 1_555
O14 H21 1_555 1_555
H22 O14 1_555 1_555
O15 H23 1_555 1_555
H24 O15 1_555 1_555
Mg1B O4 1_555 1_555
O4B Mg1 1_555 1_555
C5 C6 1_555 1_555
C12 C13 1_555 1_555

#END
