
#######################################################################
#
#                 Cambridge Crystallographic Data Centre
#                                CCDC 
#
#######################################################################
#
# If this CIF has been generated from an entry in the Cambridge 
# Structural Database, then it will include bibliographic, chemical, 
# crystal, experimental, refinement or atomic coordinate data resulting 
# from the CCDC's data processing and validation procedures.
#
#######################################################################

data_KIVJUV
_symmetry_cell_setting           triclinic
_symmetry_space_group_name_H-M   'P -1'
_symmetry_Int_Tables_number      2
_space_group_name_Hall           '-P 1'
loop_
_symmetry_equiv_pos_site_id
_symmetry_equiv_pos_as_xyz
1 x,y,z
2 -x,-y,-z
_cell_length_a                   7.2984(17)
_cell_length_b                   9.985(2)
_cell_length_c                   11.724(3)
_cell_angle_alpha                76.244(3)
_cell_angle_beta                 75.3920(10)
_cell_angle_gamma                74.173(5)
_cell_volume                     782.204
loop_
_atom_site_label
_atom_site_type_symbol
_atom_site_fract_x
_atom_site_fract_y
_atom_site_fract_z
Co1 Co 0.17644(11) 0.12592(8) 0.44822(6)
C1 C 0.0637(7) 0.2342(5) 0.0766(4)
C2 C -0.0763(8) 0.1616(6) 0.0884(5)
H1 H -0.1158 0.1043 0.1607
C3 C -0.1585(7) 0.1753(5) -0.0103(5)
C4 C -0.1034(7) 0.2661(5) -0.1169(5)
H2 H -0.1621 0.2767 -0.1813
C5 C 0.0352(8) 0.3399(5) -0.1284(4)
C6 C 0.1216(7) 0.3214(5) -0.0312(4)
H3 H 0.2194 0.3678 -0.0382
C7 C 0.0892(7) 0.4406(6) -0.2420(4)
H4 H 0.0301 0.5363 -0.2280
H5 H 0.0326 0.4256 -0.3031
C8 C 0.3025(8) 0.4301(5) -0.2906(5)
C9 C 0.3828(7) 0.5458(5) -0.3148(4)
H6 H 0.3060 0.6305 -0.2931
C10 C 0.5767(7) 0.5389(5) -0.3710(4)
C11 C 0.6922(7) 0.4121(5) -0.4038(4)
H7 H 0.8210 0.4066 -0.4431
C12 C 0.6117(7) 0.2929(6) -0.3767(4)
C13 C 0.4203(7) 0.3028(5) -0.3189(4)
H8 H 0.3692 0.2225 -0.2984
C14 C 0.1560(7) 0.2173(5) 0.1803(4)
C15 C -0.3056(7) 0.0958(5) -0.0036(4)
C16 C 0.6619(8) 0.6640(6) -0.3977(5)
C17 C 0.7325(7) 0.1574(5) -0.4132(4)
O1 O 0.0762(5) 0.1752(4) 0.2832(3)
O2 O 0.3218(5) 0.2540(4) 0.1520(3)
H9 H 0.3679 0.2378 0.2121
O3 O -0.3458(5) 0.0105(4) 0.0959(3)
H10 H -0.4334 -0.0249 0.0933
O4 O -0.3788(5) 0.1097(4) -0.0907(3)
O5 O 0.5636(5) 0.7732(3) -0.3531(3)
O6 O 0.8231(5) 0.6672(4) -0.4630(3)
O7 O 0.9007(5) 0.1493(4) -0.4677(4)
O8 O 0.6544(5) 0.0525(4) -0.3890(3)
O9 O 0.2678(5) 0.0374(4) 0.6131(3)
H11 H 0.2762 -0.0514 0.6303
H12 H 0.3773 0.0535 0.6108
Co1A Co 0.82356(11) 0.87408(8) -0.44822(6)
Co1_2 Co 1.17644(11) 0.12592(8) -0.55178(6)
Co1A_2 Co 0.82356(11) -0.12592(8) -0.44822(6)
Co1A_3 Co -0.17644(11) 0.87408(8) 0.55178(6)
Co1_3 Co 0.17644(11) 1.12592(8) 0.44822(6)
C1A C 0.9363(7) 0.7658(5) -0.0766(4)
C2A C 1.0763(8) 0.8384(6) -0.0884(5)
H1A H 1.1158 0.8957 -0.1607
C3A C 1.1585(7) 0.8247(5) 0.0103(5)
C4A C 1.1034(7) 0.7339(5) 0.1169(5)
H2A H 1.1621 0.7233 0.1813
C5A C 0.9648(8) 0.6601(5) 0.1284(4)
C6A C 0.8784(7) 0.6786(5) 0.0312(4)
H3A H 0.7806 0.6322 0.0382
C7A C 0.9108(7) 0.5594(6) 0.2420(4)
H4A H 0.9699 0.4637 0.2280
H5A H 0.9674 0.5744 0.3031
C8A C 0.6975(8) 0.5699(5) 0.2906(5)
C9A C 0.6172(7) 0.4542(5) 0.3148(4)
H6A H 0.6940 0.3695 0.2931
C10A C 0.4233(7) 0.4611(5) 0.3710(4)
C11A C 0.3078(7) 0.5879(5) 0.4038(4)
H7A H 0.1790 0.5934 0.4431
C12A C 0.3883(7) 0.7071(6) 0.3767(4)
C13A C 0.5797(7) 0.6972(5) 0.3189(4)
H8A H 0.6308 0.7775 0.2984
C14A C 0.8440(7) 0.7827(5) -0.1803(4)
C15A C 1.3056(7) 0.9042(5) 0.0036(4)
C16A C 0.3381(8) 0.3360(6) 0.3977(5)
C17A C 0.2675(7) 0.8426(5) 0.4132(4)
O1A O 0.9238(5) 0.8248(4) -0.2832(3)
O2A O 0.6782(5) 0.7460(4) -0.1520(3)
H9A H 0.6321 0.7622 -0.2121
O3A O 1.3458(5) 0.9895(4) -0.0959(3)
H10A H 1.4334 1.0249 -0.0933
O4A O 1.3788(5) 0.8903(4) 0.0907(3)
O5A O 0.4364(5) 0.2268(3) 0.3531(3)
O6A O 0.1769(5) 0.3328(4) 0.4630(3)
O7A O 0.0993(5) 0.8507(4) 0.4677(4)
O7_2 O -0.0993(5) 0.1493(4) 0.5323(4)
O7A_2 O 1.0993(5) 0.8507(4) -0.5323(4)
O8A O 0.3456(5) 0.9475(4) 0.3890(3)
O8A_2 O 0.3456(5) -0.0525(4) 0.3890(3)
O8_2 O 0.6544(5) 1.0525(4) -0.3890(3)
O9A O 0.7322(5) 0.9626(4) -0.6131(3)
H11A H 0.7238 1.0514 -0.6303
H12A H 0.6227 0.9465 -0.6108
O10 O 0.5000 0.5000 0.0000
H14 H 0.4877 0.4469 0.0686
H14A H 0.5123 0.5531 -0.0686
H13? H 0.4874 0.5885 -0.0064
loop_
_geom_bond_atom_site_label_1
_geom_bond_atom_site_label_2
_geom_bond_site_symmetry_1
_geom_bond_site_symmetry_2
Co1 O1 1_555 1_555
C1 C2 1_555 1_555
C2 H1 1_555 1_555
C3 C2 1_555 1_555
C4 C3 1_555 1_555
H2 C4 1_555 1_555
C5 C4 1_555 1_555
C6 C1 1_555 1_555
H3 C6 1_555 1_555
C7 C5 1_555 1_555
H4 C7 1_555 1_555
H5 C7 1_555 1_555
C8 C7 1_555 1_555
C9 C8 1_555 1_555
H6 C9 1_555 1_555
C10 C9 1_555 1_555
C11 C10 1_555 1_555
H7 C11 1_555 1_555
C12 C11 1_555 1_555
C13 C8 1_555 1_555
H8 C13 1_555 1_555
C14 C1 1_555 1_555
C15 C3 1_555 1_555
C16 C10 1_555 1_555
C17 C12 1_555 1_555
O1 C14 1_555 1_555
O2 C14 1_555 1_555
H9 O2 1_555 1_555
O3 C15 1_555 1_555
H10 O3 1_555 1_555
O4 C15 1_555 1_555
O5 C16 1_555 1_555
O6 C16 1_555 1_555
O7 C17 1_555 1_555
O8 C17 1_555 1_555
O9 Co1 1_555 1_555
H11 O9 1_555 1_555
H12 O9 1_555 1_555
O10 H14 1_555 1_555
Co1A O5 1_555 1_555
Co1_2 O7 1_555 1_555
Co1A_2 O8 1_555 1_555
Co1A_3 O7A 1_555 1_555
Co1_3 O8A 1_555 1_555
C1A C2A 1_555 1_555
C2A H1A 1_555 1_555
C3A C2A 1_555 1_555
C4A C3A 1_555 1_555
H2A C4A 1_555 1_555
C5A C4A 1_555 1_555
C6A C1A 1_555 1_555
H3A C6A 1_555 1_555
C7A C5A 1_555 1_555
H4A C7A 1_555 1_555
H5A C7A 1_555 1_555
C8A C7A 1_555 1_555
C9A C8A 1_555 1_555
H6A C9A 1_555 1_555
C10A C9A 1_555 1_555
C11A C10A 1_555 1_555
H7A C11A 1_555 1_555
C12A C11A 1_555 1_555
C13A C8A 1_555 1_555
H8A C13A 1_555 1_555
C14A C1A 1_555 1_555
C15A C3A 1_555 1_555
C16A C10A 1_555 1_555
C17A C12A 1_555 1_555
O1A Co1A 1_555 1_555
O2A C14A 1_555 1_555
H9A O2A 1_555 1_555
O3A C15A 1_555 1_555
H10A O3A 1_555 1_555
O4A C15A 1_555 1_555
O5A Co1 1_555 1_555
O6A Co1 1_555 1_555
O7A C17A 1_555 1_555
O7_2 Co1 1_555 1_555
O7A_2 Co1A 1_555 1_555
O8A C17A 1_555 1_555
O8A_2 Co1 1_555 1_555
O8_2 Co1A 1_555 1_555
O9A Co1A 1_555 1_555
H11A O9A 1_555 1_555
H12A O9A 1_555 1_555
H14A O10 1_555 1_555
C5 C6 1_555 1_555
C12 C13 1_555 1_555
O6 Co1A 1_555 1_555
C5A C6A 1_555 1_555
C12A C13A 1_555 1_555
C14A O1A 1_555 1_555
C16A O5A 1_555 1_555
C16A O6A 1_555 1_555

#END
