
#######################################################################
#
#                 Cambridge Crystallographic Data Centre
#                                CCDC 
#
#######################################################################
#
# If this CIF has been generated from an entry in the Cambridge 
# Structural Database, then it will include bibliographic, chemical, 
# crystal, experimental, refinement or atomic coordinate data resulting 
# from the CCDC's data processing and validation procedures.
#
#######################################################################

data_KIVJOP
_symmetry_cell_setting           triclinic
_symmetry_space_group_name_H-M   'P -1'
_symmetry_Int_Tables_number      2
_space_group_name_Hall           '-P 1'
loop_
_symmetry_equiv_pos_site_id
_symmetry_equiv_pos_as_xyz
1 x,y,z
2 -x,-y,-z
_cell_length_a                   7.3196(17)
_cell_length_b                   10.067(2)
_cell_length_c                   11.818(3)
_cell_angle_alpha                75.913(3)
_cell_angle_beta                 75.671(4)
_cell_angle_gamma                74.625(4)
_cell_volume                     798.673
loop_
_atom_site_label
_atom_site_type_symbol
_atom_site_fract_x
_atom_site_fract_y
_atom_site_fract_z
C1 C 0.0769(5) 0.5402(4) -0.3750(3)
C2 C -0.1140(5) 0.5510(4) -0.3160(3)
H1 H -0.1872 0.6368 -0.2981
C3 C -0.1961(5) 0.4351(4) -0.2835(3)
C4 C -0.0857(5) 0.3067(4) -0.3100(3)
H2 H -0.1404 0.2285 -0.2877
C5 C 0.1054(5) 0.2944(4) -0.3695(3)
C6 C 0.1872(5) 0.4120(4) -0.4016(3)
H3 H 0.3154 0.4047 -0.4408
C7 C -0.4140(5) 0.4449(4) -0.2410(3)
H4 H -0.4653 0.4290 -0.3036
H5 H -0.4753 0.5393 -0.2277
C8 C -0.4677(5) 0.3412(4) -0.1275(3)
C9 C -0.6057(5) 0.2671(4) -0.1164(3)
H6 H -0.6647 0.2782 -0.1803
C10 C -0.6589(5) 0.1762(4) -0.0121(3)
C11 C -0.5718(5) 0.1600(4) 0.0859(3)
H7 H -0.6073 0.0999 0.1569
C12 C -0.4353(5) 0.2335(4) 0.0749(3)
C13 C -0.3810(5) 0.3237(4) -0.0317(3)
H8 H -0.2859 0.3723 -0.0382
C14 C 0.1650(5) 0.6599(4) -0.3992(3)
C15 C 0.2133(5) 0.1586(3) -0.4089(3)
C16 C -0.8069(5) 0.0945(3) -0.0048(3)
C17 C -0.3449(5) 0.2163(3) 0.1784(3)
Mn1 Mn 0.32801(8) 0.87811(5) -0.45308(5)
O1 O 0.0690(4) 0.7662(3) -0.3521(2)
O2 O 0.3246(4) 0.6619(3) -0.4664(2)
O3 O 0.3832(4) 0.1465(3) -0.4668(2)
O4 O 0.1330(4) 0.0547(3) -0.3822(2)
O5 O -0.8797(3) 0.1124(3) -0.0917(2)
O6 O -0.8470(3) 0.0117(3) 0.0946(2)
H9 H -0.9243 -0.0458 0.0953
O7 O -0.4220(3) 0.1719(2) 0.2792(2)
O8 O -0.1796(3) 0.2550(3) 0.1513(2)
H10 H -0.1245 0.2476 0.2125
O9 O 0.2356(4) 0.9861(3) -0.6164(2)
H11 H 0.1296 0.9592 -0.5989
H12 H 0.1846 1.0734 -0.6254
C1A C 0.9231(5) 0.4598(4) -0.6250(3)
C2A C 1.1140(5) 0.4490(4) -0.6840(3)
H1A H 1.1872 0.3632 -0.7019
C3A C 1.1961(5) 0.5649(4) -0.7165(3)
C4A C 1.0857(5) 0.6933(4) -0.6900(3)
H2A H 1.1404 0.7715 -0.7123
C5A C 0.8946(5) 0.7056(4) -0.6305(3)
C6A C 0.8128(5) 0.5880(4) -0.5984(3)
H3A H 0.6846 0.5953 -0.5592
C7A C 1.4140(5) 0.5551(4) -0.7590(3)
H4A H 1.4653 0.5710 -0.6964
H5A H 1.4753 0.4607 -0.7723
C8A C 1.4677(5) 0.6588(4) -0.8725(3)
C9A C 1.6057(5) 0.7329(4) -0.8836(3)
H6A H 1.6647 0.7218 -0.8197
C10A C 1.6589(5) 0.8238(4) -0.9879(3)
C11A C 1.5718(5) 0.8400(4) -1.0859(3)
H7A H 1.6073 0.9001 -1.1569
C12A C 1.4353(5) 0.7665(4) -1.0749(3)
C13A C 1.3810(5) 0.6763(4) -0.9683(3)
H8A H 1.2859 0.6277 -0.9618
C14A C 0.8350(5) 0.3401(4) -0.6008(3)
C15A C 0.7867(5) 0.8414(3) -0.5911(3)
C16A C 1.8069(5) 0.9055(3) -0.9952(3)
C17A C 1.3449(5) 0.7837(3) -1.1784(3)
Mn1A Mn 0.67199(8) 0.12189(5) -0.54692(5)
Mn1_2 Mn 0.32801(8) -0.12189(5) -0.45308(5)
Mn1A_2 Mn -0.32801(8) 0.12189(5) 0.45308(5)
Mn1A_3 Mn 0.67199(8) 1.12189(5) -0.54692(5)
Mn1_3 Mn 1.32801(8) 0.87811(5) -1.45308(5)
O1A O 0.9310(4) 0.2338(3) -0.6479(2)
O2A O 0.6754(4) 0.3381(3) -0.5336(2)
O3A O 0.6168(4) 0.8535(3) -0.5332(2)
O4A O 0.8670(4) 0.9453(3) -0.6178(2)
O4_2 O 0.1330(4) 1.0547(3) -0.3822(2)
O4A_2 O 0.8670(4) -0.0547(3) -0.6178(2)
O5A O 1.8797(3) 0.8876(3) -0.9083(2)
O6A O 1.8470(3) 0.9883(3) -1.0946(2)
H9A H 1.9243 1.0458 -1.0953
O7A O 1.4220(3) 0.8281(2) -1.2792(2)
O7A_2 O 0.4220(3) 0.8281(2) -0.2792(2)
O7_2 O 0.5780(3) 0.1719(2) -0.7208(2)
O8A O 1.1796(3) 0.7450(3) -1.1513(2)
H10A H 1.1245 0.7524 -1.2125
O9A O 0.7644(4) 0.0139(3) -0.3836(2)
H11A H 0.8704 0.0408 -0.4011
H12A H 0.8154 -0.0734 -0.3746
O10 O 0.0000 0.5000 0.0000
H13 H 0.0948 0.5399 -0.0287
H13A H -0.0948 0.4601 0.0287
H14? H 0.0317 0.4281 0.0522
loop_
_geom_bond_atom_site_label_1
_geom_bond_atom_site_label_2
_geom_bond_site_symmetry_1
_geom_bond_site_symmetry_2
C1 C2 1_555 1_555
C2 H1 1_555 1_555
C3 C2 1_555 1_555
C4 C3 1_555 1_555
H2 C4 1_555 1_555
C5 C4 1_555 1_555
C6 C1 1_555 1_555
H3 C6 1_555 1_555
C7 C3 1_555 1_555
H4 C7 1_555 1_555
H5 C7 1_555 1_555
C8 C7 1_555 1_555
C9 C8 1_555 1_555
H6 C9 1_555 1_555
C10 C9 1_555 1_555
C11 C10 1_555 1_555
H7 C11 1_555 1_555
C12 C11 1_555 1_555
C13 C8 1_555 1_555
H8 C13 1_555 1_555
C14 C1 1_555 1_555
C15 C5 1_555 1_555
C16 C10 1_555 1_555
C17 C12 1_555 1_555
Mn1 O1 1_555 1_555
O1 C14 1_555 1_555
O2 C14 1_555 1_555
O3 C15 1_555 1_555
O4 C15 1_555 1_555
O5 C16 1_555 1_555
O6 C16 1_555 1_555
H9 O6 1_555 1_555
O7 C17 1_555 1_555
O8 C17 1_555 1_555
H10 O8 1_555 1_555
O9 Mn1 1_555 1_555
H11 O9 1_555 1_555
H12 O9 1_555 1_555
O10 H13 1_555 1_555
C1A C2A 1_555 1_555
C2A H1A 1_555 1_555
C3A C2A 1_555 1_555
C4A C3A 1_555 1_555
H2A C4A 1_555 1_555
C5A C4A 1_555 1_555
C6A C1A 1_555 1_555
H3A C6A 1_555 1_555
C7A C3A 1_555 1_555
H4A C7A 1_555 1_555
H5A C7A 1_555 1_555
C8A C7A 1_555 1_555
C9A C8A 1_555 1_555
H6A C9A 1_555 1_555
C10A C9A 1_555 1_555
C11A C10A 1_555 1_555
H7A C11A 1_555 1_555
C12A C11A 1_555 1_555
C13A C8A 1_555 1_555
H8A C13A 1_555 1_555
C14A C1A 1_555 1_555
C15A C5A 1_555 1_555
C16A C10A 1_555 1_555
C17A C12A 1_555 1_555
Mn1A O3 1_555 1_555
Mn1_2 O4 1_555 1_555
Mn1A_2 O7 1_555 1_555
Mn1A_3 O4A 1_555 1_555
Mn1_3 O7A 1_555 1_555
O1A C14A 1_555 1_555
O2A C14A 1_555 1_555
O3A Mn1 1_555 1_555
O4A C15A 1_555 1_555
O4_2 Mn1 1_555 1_555
O4A_2 Mn1A 1_555 1_555
O5A C16A 1_555 1_555
O6A C16A 1_555 1_555
H9A O6A 1_555 1_555
O7A C17A 1_555 1_555
O7A_2 Mn1 1_555 1_555
O7_2 Mn1A 1_555 1_555
O8A C17A 1_555 1_555
H10A O8A 1_555 1_555
O9A Mn1A 1_555 1_555
H11A O9A 1_555 1_555
H12A O9A 1_555 1_555
H13A O10 1_555 1_555
C5 C6 1_555 1_555
C12 C13 1_555 1_555
Mn1 O2 1_555 1_555
C5A C6A 1_555 1_555
C12A C13A 1_555 1_555
C15A O3A 1_555 1_555
Mn1A O1A 1_555 1_555
Mn1A O2A 1_555 1_555

#END
