
#######################################################################
#
#                 Cambridge Crystallographic Data Centre
#                                CCDC 
#
#######################################################################
#
# If this CIF has been generated from an entry in the Cambridge 
# Structural Database, then it will include bibliographic, chemical, 
# crystal, experimental, refinement or atomic coordinate data resulting 
# from the CCDC's data processing and validation procedures.
#
#######################################################################

data_KIVJAB
_symmetry_cell_setting           monoclinic
_symmetry_space_group_name_H-M   'C 2/c'
_symmetry_Int_Tables_number      15
_space_group_name_Hall           '-C 2yn'
loop_
_symmetry_equiv_pos_site_id
_symmetry_equiv_pos_as_xyz
1 x,y,z
2 1/2+x,1/2+y,z
3 -x,y,1/2-z
4 1/2-x,1/2+y,1/2-z
5 -x,-y,-z
6 1/2-x,1/2-y,-z
7 x,-y,1/2+z
8 1/2+x,1/2-y,1/2+z
_cell_length_a                   19.436(18)
_cell_length_b                   13.549(13)
_cell_length_c                   20.662(19)
_cell_angle_alpha                90
_cell_angle_beta                 116.932(17)
_cell_angle_gamma                90
_cell_volume                     4850.98
loop_
_atom_site_label
_atom_site_type_symbol
_atom_site_fract_x
_atom_site_fract_y
_atom_site_fract_z
C1 C 0.36568(17) 0.0414(2) 0.19122(18)
C2 C 0.34781(17) 0.1273(2) 0.21630(17)
H1 H 0.3157 0.1254 0.2387
C3 C 0.37797(17) 0.2166(2) 0.20796(17)
C4 C 0.42207(16) 0.2198(2) 0.17127(16)
H2 H 0.4392 0.2804 0.1630
C5 C 0.4414(2) 0.1333(2) 0.14631(18)
C6 C 0.41371(18) 0.0448(3) 0.15817(18)
H3 H 0.4276 -0.0137 0.1437
C7 C 0.48803(17) 0.1352(2) 0.10378(17)
H4 H 0.5177 0.1958 0.1145
H5 H 0.5240 0.0803 0.1189
C8 C 0.43644(19) 0.1286(3) 0.02304(18)
C9 C 0.41624(18) 0.2128(2) -0.01967(17)
H6 H 0.4352 0.2737 0.0016
C10 C 0.36810(17) 0.2076(2) -0.09374(17)
C11 C 0.33624(18) 0.1177(2) -0.12603(18)
H7 H 0.3030 0.1145 -0.1755
C12 C 0.35467(18) 0.0328(2) -0.08361(18)
C13 C 0.40585(17) 0.0394(2) -0.01037(17)
H8 H 0.4201 -0.0181 0.0172
C14 C 0.32963(19) -0.0555(2) 0.19561(18)
C15 C 0.36067(16) 0.3085(2) 0.23919(16)
C16 C 0.35003(18) 0.2988(2) -0.14029(18)
C17 C 0.31798(18) -0.0644(2) -0.11698(18)
Ca1 Ca 0.25342(4) -0.24453(5) 0.17113(4)
Ca2 Ca 0.16060(4) 0.00807(5) 0.21055(4)
O1 O 0.36352(14) -0.13381(18) 0.19675(12)
O2 O 0.26574(13) -0.05461(17) 0.19671(12)
O3 O 0.33347(13) 0.29892(16) 0.28303(13)
O4 O 0.37499(14) 0.39161(18) 0.22116(13)
O5 O 0.36292(12) 0.38256(16) -0.10900(11)
O6 O 0.32463(13) 0.29177(15) -0.20749(12)
O7 O 0.25987(13) -0.06439(17) -0.17801(12)
O8 O 0.34641(13) -0.14347(16) -0.08294(12)
O9 O 0.19899(13) -0.15285(15) 0.05710(11)
H12 H 0.1504 -0.1532 0.0416
H13 H 0.2079 -0.1888 0.0280
O10 O 0.32966(13) -0.31857(16) 0.11924(12)
H14 H 0.3028 -0.3626 0.0891
H15 H 0.3690 -0.3465 0.1524
O11 O 0.05892(14) -0.07466(18) 0.10626(13)
H16 H 0.0155 -0.0692 0.1066
H17 H 0.0676 -0.1334 0.0974
O12 O 0.05002(13) 0.08727(16) 0.20814(12)
H18 H 0.0090 0.0639 0.1741
H19 H 0.0531 0.1487 0.2016
Ca1C Ca 0.24658(4) 0.25547(5) 0.32887(4)
Ca1F Ca 0.25342(4) 0.24453(5) -0.32887(4)
Ca1E Ca 0.24658(4) -0.25547(5) -0.17113(4)
Ca2C Ca 0.33940(4) 0.50807(5) 0.28945(4)
Ca2E Ca 0.33940(4) 0.49193(5) -0.21055(4)
Ca2F Ca 0.16060(4) -0.00807(5) -0.28945(4)
O3C O 0.16653(13) -0.20108(16) 0.21697(13)
O4C O 0.12501(14) -0.10839(18) 0.27884(13)
O5E O 0.13708(12) 0.11744(16) 0.10900(11)
O6F O 0.32463(13) -0.29177(15) 0.29251(12)
O6E O 0.17537(13) 0.20823(15) 0.20749(12)
O7E O 0.24013(13) -0.43561(17) 0.17801(12)
O7F O 0.25987(13) 0.06439(17) 0.32199(12)
O8E O 0.15359(13) -0.35653(16) 0.08294(12)
C18 C 0.26921(18) 0.3789(2) 0.99361(18)
H9 H 0.2977 0.3407 1.0367
H10 H 0.2502 0.3362 0.9520
H11 H 0.2266 0.4106 0.9966
O14 O 0.31767(12) 0.45058(17) 0.98702(12)
H22 H 0.3354 0.4273 0.9594
O13 O 0.40542(13) 0.50060(19) 0.12892(13)
H20 H 0.4008 0.4939 0.1677
H21 H 0.3653 0.4786 0.0930
O15 O 0.41539(13) 0.77560(18) 0.05373(13)
H23 H 0.3923 0.7985 0.0109
H24 H 0.4036 0.8096 0.0818
O16 O 0.00206(13) 0.28942(16) 0.18791(12)
H25 H 0.0023 0.2780 0.2285
H26 H 0.0467 0.3087 0.1955
O17 O 0.03233(13) 0.91732(18) 0.97659(13)
H27 H 0.0573 0.9370 0.9543
H28 H 0.0258 0.8584 0.9608
loop_
_geom_bond_atom_site_label_1
_geom_bond_atom_site_label_2
_geom_bond_site_symmetry_1
_geom_bond_site_symmetry_2
C1 C2 1_555 1_555
C2 H1 1_555 1_555
C3 C2 1_555 1_555
C4 C3 1_555 1_555
H2 C4 1_555 1_555
C5 C4 1_555 1_555
C6 C1 1_555 1_555
H3 C6 1_555 1_555
C7 C5 1_555 1_555
H4 C7 1_555 1_555
H5 C7 1_555 1_555
C8 C7 1_555 1_555
C9 C8 1_555 1_555
H6 C9 1_555 1_555
C10 C9 1_555 1_555
C11 C10 1_555 1_555
H7 C11 1_555 1_555
C12 C11 1_555 1_555
C13 C8 1_555 1_555
H8 C13 1_555 1_555
C14 C1 1_555 1_555
C15 C3 1_555 1_555
C16 C10 1_555 1_555
C17 C12 1_555 1_555
C18 H9 1_555 1_555
H10 C18 1_555 1_555
H11 C18 1_555 1_555
Ca1 O1 1_555 1_555
Ca2 O2 1_555 1_555
O1 C14 1_555 1_555
O2 C14 1_555 1_555
O3 C15 1_555 1_555
O4 C15 1_555 1_555
O5 C16 1_555 1_555
O6 C16 1_555 1_555
O7 C17 1_555 1_555
O8 C17 1_555 1_555
O9 Ca1 1_555 1_555
H12 O9 1_555 1_555
H13 O9 1_555 1_555
O10 Ca1 1_555 1_555
H14 O10 1_555 1_555
H15 O10 1_555 1_555
O11 Ca2 1_555 1_555
H16 O11 1_555 1_555
H17 O11 1_555 1_555
O12 Ca2 1_555 1_555
H18 O12 1_555 1_555
H19 O12 1_555 1_555
O13 H20 1_555 1_555
H21 O13 1_555 1_555
O14 C18 1_555 1_555
H22 O14 1_555 1_555
O15 H23 1_555 1_555
H24 O15 1_555 1_555
O16 H25 1_555 1_555
H26 O16 1_555 1_555
O17 H27 1_555 1_555
H28 O17 1_555 1_555
Ca1C O3 1_555 1_555
Ca1F O6 1_555 1_555
Ca1E O7 1_555 1_555
Ca2C O3 1_555 1_555
Ca2E O5 1_555 1_555
Ca2F O7 1_555 1_555
O3C Ca1 1_555 1_555
O4C Ca2 1_555 1_555
O5E Ca2 1_555 1_555
O6F Ca1 1_555 1_555
O6E Ca2 1_555 1_555
O7E Ca1 1_555 1_555
O7F Ca2 1_555 1_555
O8E Ca1 1_555 1_555
C5 C6 1_555 1_555
C12 C13 1_555 1_555
Ca1 O2 1_555 1_555
Ca2 O3C 1_555 1_555
O4 Ca2C 1_555 1_555
O6 Ca2E 1_555 1_555
O8 Ca1E 1_555 1_555
Ca1C O6E 1_555 1_555
Ca1C O7F 1_555 1_555

#END
