
#######################################################################
#
#                 Cambridge Crystallographic Data Centre
#                                CCDC 
#
#######################################################################
#
# If this CIF has been generated from an entry in the Cambridge 
# Structural Database, then it will include bibliographic, chemical, 
# crystal, experimental, refinement or atomic coordinate data resulting 
# from the CCDC's data processing and validation procedures.
#
#######################################################################

data_KIVJIJ
_symmetry_cell_setting           monoclinic
_symmetry_space_group_name_H-M   'C 2/c'
_symmetry_Int_Tables_number      15
_space_group_name_Hall           '-C 2yn'
loop_
_symmetry_equiv_pos_site_id
_symmetry_equiv_pos_as_xyz
1 x,y,z
2 1/2+x,1/2+y,z
3 -x,y,1/2-z
4 1/2-x,1/2+y,1/2-z
5 -x,-y,-z
6 1/2-x,1/2-y,-z
7 x,-y,1/2+z
8 1/2+x,1/2-y,1/2+z
_cell_length_a                   21.440(5)
_cell_length_b                   13.160(3)
_cell_length_c                   10.837(2)
_cell_angle_alpha                90
_cell_angle_beta                 119.847(3)
_cell_angle_gamma                90
_cell_volume                     2652.09
loop_
_atom_site_label
_atom_site_type_symbol
_atom_site_fract_x
_atom_site_fract_y
_atom_site_fract_z
Ba1 Ba 0.187168(19) 0.10245(3) 0.42995(4)
C1 C 0.0814(3) 0.2133(4) 0.1386(6)
C2 C 0.0259(3) 0.2852(4) 0.0344(7)
C3 C 0.0380(3) 0.3464(4) -0.0542(7)
H1 H 0.0824 0.3436 -0.0499
C4 C -0.0141(3) 0.4121(4) -0.1500(6)
C5 C -0.0787(3) 0.4177(4) -0.1522(6)
H2 H -0.1137 0.4626 -0.2148
C6 C -0.0932(3) 0.3577(5) -0.0627(6)
C7 C -0.0401(3) 0.2925(4) 0.0311(6)
H3 H -0.0483 0.2530 0.0928
C8 C 0.0000 0.4767(6) -0.2500
H4 H 0.0413 0.5200 -0.1945
C9 C -0.1634(3) 0.3650(4) -0.0649(7)
O1 O 0.0603(2) 0.1456(3) 0.1909(5)
O2 O 0.1455(2) 0.2220(3) 0.1685(5)
O3 O -0.1785(2) 0.2990(3) -0.0017(5)
O4 O -0.2045(2) 0.4371(3) -0.1314(5)
O5 O 0.1358(3) -0.0672(4) 0.2441(6)
H5 H 0.1199 -0.1126 0.2771
H6 H 0.1703 -0.0902 0.2348
O6 O 0.2635(3) 0.1192(3) 0.7293(5)
H7 H 0.2909 0.1810 0.7562
H8 H 0.2954 0.0622 0.7688
O7 O 0.0657(2) 0.0357(4) 0.4495(5)
H9 H 0.0290 0.0696 0.3917
H10 H 0.0732 0.0466 0.5331
O8 O 0.2238(2) -0.0874(3) 0.5647(5)
H11 H 0.1898 -0.1290 0.5171
H12 H 0.2306 -0.0804 0.6588
Ba1B Ba -0.187168(19) 0.10245(3) -0.92995(4)
Ba1G Ba -0.312832(19) 0.39755(3) -0.07005(4)
Ba1B_2 Ba -0.187168(19) 0.10245(3) 0.07005(4)
Ba1_2 Ba 0.187168(19) 0.10245(3) -0.57005(4)
Ba1E Ba 0.312832(19) 0.39755(3) -0.42995(4)
C1B C -0.0814(3) 0.2133(4) -0.6386(6)
C2B C -0.0259(3) 0.2852(4) -0.5344(7)
C3B C -0.0380(3) 0.3464(4) -0.4458(7)
H1B H -0.0824 0.3436 -0.4501
C4B C 0.0141(3) 0.4121(4) -0.3500(6)
C5B C 0.0787(3) 0.4177(4) -0.3478(6)
H2B H 0.1137 0.4626 -0.2852
C6B C 0.0932(3) 0.3577(5) -0.4373(6)
C7B C 0.0401(3) 0.2925(4) -0.5311(6)
H3B H 0.0483 0.2530 -0.5928
H4B H -0.0413 0.5200 -0.3055
C9B C 0.1634(3) 0.3650(4) -0.4351(7)
O1B O -0.0603(2) 0.1456(3) -0.6909(5)
O2B O -0.1455(2) 0.2220(3) -0.6685(5)
O3B O 0.1785(2) 0.2990(3) -0.4983(5)
O3G O 0.3215(2) 0.2010(3) 0.4983(5)
O3B_2 O 0.1785(2) 0.2990(3) 0.5017(5)
O3_2 O -0.1785(2) 0.2990(3) -1.0017(5)
O3E O -0.3215(2) 0.2010(3) -0.9983(5)
O4B O 0.2045(2) 0.4371(3) -0.3686(5)
O4G O 0.2955(2) 0.0629(3) 0.3686(5)
O4E O -0.2955(2) 0.0629(3) -0.8686(5)
O5B O -0.1358(3) -0.0672(4) -0.7441(6)
H5B H -0.1199 -0.1126 -0.7771
H6B H -0.1703 -0.0902 -0.7348
O6B O -0.2635(3) 0.1192(3) -1.2293(5)
H7B H -0.2909 0.1810 -1.2562
H8B H -0.2954 0.0622 -1.2688
O7B O -0.0657(2) 0.0357(4) -0.9495(5)
H9B H -0.0290 0.0696 -0.8917
H10B H -0.0732 0.0466 -1.0331
O8B O -0.2238(2) -0.0874(3) -1.0647(5)
H11B H -0.1898 -0.1290 -1.0171
H12B H -0.2306 -0.0804 -1.1588
O9 O 1.0000 0.8712(6) 0.2500
H14 H 1.0103 0.8571 0.3346
H14B H 0.9897 0.8571 0.1654
O10 O 0.1879(4) -0.2569(5) 0.4457(8)
H15 H 0.2056 -0.3037 0.5080
H16 H 0.2033 -0.2633 0.3874
H13? H 0.9809 0.8197 0.1971
loop_
_geom_bond_atom_site_label_1
_geom_bond_atom_site_label_2
_geom_bond_site_symmetry_1
_geom_bond_site_symmetry_2
Ba1 O1 1_555 1_555
C1 C2 1_555 1_555
C2 C3 1_555 1_555
C3 H1 1_555 1_555
C4 C3 1_555 1_555
C5 C4 1_555 1_555
H2 C5 1_555 1_555
C6 C5 1_555 1_555
C7 C2 1_555 1_555
H3 C7 1_555 1_555
C8 C4 1_555 1_555
H4 C8 1_555 1_555
C9 C6 1_555 1_555
O1 C1 1_555 1_555
O2 Ba1 1_555 1_555
O3 C9 1_555 1_555
O4 C9 1_555 1_555
O5 Ba1 1_555 1_555
H5 O5 1_555 1_555
H6 O5 1_555 1_555
O6 Ba1 1_555 1_555
H7 O6 1_555 1_555
H8 O6 1_555 1_555
O7 Ba1 1_555 1_555
H9 O7 1_555 1_555
H10 O7 1_555 1_555
O8 Ba1 1_555 1_555
H11 O8 1_555 1_555
H12 O8 1_555 1_555
O9 H14 1_555 1_555
O10 H15 1_555 1_555
H16 O10 1_555 1_555
Ba1B O1B 1_555 1_555
Ba1G O3 1_555 1_555
Ba1B_2 O3 1_555 1_555
Ba1_2 O3B 1_555 1_555
Ba1E O3B 1_555 1_555
C1B C2B 1_555 1_555
C2B C3B 1_555 1_555
C3B H1B 1_555 1_555
C4B C8 1_555 1_555
C5B C4B 1_555 1_555
H2B C5B 1_555 1_555
C6B C5B 1_555 1_555
C7B C2B 1_555 1_555
H3B C7B 1_555 1_555
H4B C8 1_555 1_555
C9B C6B 1_555 1_555
O1B C1B 1_555 1_555
O2B Ba1B 1_555 1_555
O3B C9B 1_555 1_555
O3G Ba1 1_555 1_555
O3B_2 Ba1 1_555 1_555
O3_2 Ba1B 1_555 1_555
O3E Ba1B 1_555 1_555
O4B Ba1E 1_555 1_555
O4G Ba1 1_555 1_555
O4E Ba1B 1_555 1_555
O5B Ba1B 1_555 1_555
H5B O5B 1_555 1_555
H6B O5B 1_555 1_555
O6B Ba1B 1_555 1_555
H7B O6B 1_555 1_555
H8B O6B 1_555 1_555
O7B Ba1B 1_555 1_555
H9B O7B 1_555 1_555
H10B O7B 1_555 1_555
O8B Ba1B 1_555 1_555
H11B O8B 1_555 1_555
H12B O8B 1_555 1_555
H14B O9 1_555 1_555
C1 O2 1_555 1_555
C6 C7 1_555 1_555
O4 Ba1G 1_555 1_555
C1B O2B 1_555 1_555
C3B C4B 1_555 1_555
C6B C7B 1_555 1_555
C9B O4B 1_555 1_555

#END
