
#######################################################################
#
#                 Cambridge Crystallographic Data Centre
#                                CCDC 
#
#######################################################################
#
# If this CIF has been generated from an entry in the Cambridge 
# Structural Database, then it will include bibliographic, chemical, 
# crystal, experimental, refinement or atomic coordinate data resulting 
# from the CCDC's data processing and validation procedures.
#
#######################################################################

data_KIVNUA
_symmetry_cell_setting           triclinic
_symmetry_space_group_name_H-M   'P -1'
_symmetry_Int_Tables_number      2
_space_group_name_Hall           '-P 1'
loop_
_symmetry_equiv_pos_site_id
_symmetry_equiv_pos_as_xyz
1 x,y,z
2 -x,-y,-z
_cell_length_a                   10.2635(17)
_cell_length_b                   10.3041(12)
_cell_length_c                   10.8060(13)
_cell_angle_alpha                62.028(11)
_cell_angle_beta                 80.325(15)
_cell_angle_gamma                78.738(14)
_cell_volume                     985.997
loop_
_atom_site_label
_atom_site_type_symbol
_atom_site_fract_x
_atom_site_fract_y
_atom_site_fract_z
N1 N 0.7273(2) 0.8439(2) -0.7842(2)
C1 C 0.7179(3) 0.7408(3) -0.6490(3)
C2 C 0.5999(3) 0.7017(3) -0.5674(3)
C3 C 0.5972(3) 0.5875(3) -0.4176(3)
C4 C 0.7057(3) 0.4765(3) -0.3697(3)
C5 C 0.7069(3) 0.3719(3) -0.2291(3)
C6 C 0.8273(3) 0.2570(3) -0.1797(3)
O1 O 0.8180(2) 0.1522(2) -0.05907(18)
O2 O 0.9322(2) 0.27301(19) -0.2628(2)
Ag1 Ag 1.07784(2) 0.12555(2) -0.059662(19)
O3 O 1.0306(3) -0.5494(2) 0.8531(2)
O4 O 1.0155(2) -0.4690(2) 0.62518(18)
N2 N 1.1522(2) 0.1360(2) 0.1265(2)
C7 C 0.6125(3) 0.9145(3) -0.8411(3)
H1 H 0.6160 0.9888 -0.9347
C8 C 0.4899(3) 0.8840(3) -0.7699(3)
H2 H 0.4117 0.9362 -0.8145
C9 C 0.4824(3) 0.7758(3) -0.6319(3)
H3 H 0.3991 0.7524 -0.5819
H4 H 0.7979 0.6917 -0.6071
C10 C 0.4895(3) 0.5903(3) -0.3217(3)
H5 H 0.4159 0.6643 -0.3518
C11 C 0.4895(3) 0.4848(3) -0.1815(3)
H6 H 0.4156 0.4874 -0.1178
C12 C 0.5975(3) 0.3761(3) -0.1352(3)
H7 H 0.5970 0.3051 -0.0402
H8 H 0.7786 0.4723 -0.4335
C13 C 1.2215(3) 0.2451(3) 0.0963(3)
H9 H 1.2307 0.3187 0.0027
C14 C 1.2801(4) 0.2545(3) 0.1961(3)
H10 H 1.3292 0.3327 0.1709
C15 C 1.2664(4) 0.1480(3) 0.3337(3)
H11 H 1.3068 0.1529 0.4030
C16 C 1.1930(3) 0.0333(3) 0.3707(3)
C17 C 1.1379(3) 0.0340(3) 0.2616(3)
H12 H 1.0871 -0.0419 0.2836
C18 C 1.1738(3) -0.0827(3) 0.5190(3)
C19 C 1.2080(3) -0.0657(3) 0.6292(3)
H13 H 1.2436 0.0203 0.6089
C20 C 1.1912(3) -0.1713(3) 0.7678(3)
H14 H 1.2156 -0.1565 0.8399
C21 C 1.1392(3) -0.2975(3) 0.8002(3)
H15 H 1.1275 -0.3693 0.8942
C22 C 1.1038(3) -0.3185(3) 0.6926(3)
C23 C 1.1223(3) -0.2126(3) 0.5529(3)
H16 H 1.1000 -0.2287 0.4808
C24 C 1.0467(3) -0.4567(3) 0.7326(3)
H17 H 0.987(3) -0.5501(19) 0.657(3)
N1A N 1.2727(2) 0.1561(2) -0.2158(2)
O1A O 1.1820(2) -0.1522(2) 0.05907(18)
Ag1A Ag 0.92216(2) -0.12555(2) 0.059662(19)
Ag1A_2 Ag 0.92216(2) 0.87445(2) -0.940338(19)
loop_
_geom_bond_atom_site_label_1
_geom_bond_atom_site_label_2
_geom_bond_site_symmetry_1
_geom_bond_site_symmetry_2
N1 C1 1_555 1_555
C1 C2 1_555 1_555
C2 C3 1_555 1_555
C3 C4 1_555 1_555
C4 C5 1_555 1_555
C5 C6 1_555 1_555
C6 O1 1_555 1_555
O1 Ag1 1_555 1_555
O2 C6 1_555 1_555
Ag1 O2 1_555 1_555
O3 C24 1_555 1_555
O4 C24 1_555 1_555
N2 Ag1 1_555 1_555
C7 N1 1_555 1_555
H1 C7 1_555 1_555
C8 C7 1_555 1_555
H2 C8 1_555 1_555
C9 C2 1_555 1_555
H3 C9 1_555 1_555
H4 C1 1_555 1_555
C10 C3 1_555 1_555
H5 C10 1_555 1_555
C11 C10 1_555 1_555
H6 C11 1_555 1_555
C12 C5 1_555 1_555
H7 C12 1_555 1_555
H8 C4 1_555 1_555
C13 N2 1_555 1_555
H9 C13 1_555 1_555
C14 C13 1_555 1_555
H10 C14 1_555 1_555
C15 C14 1_555 1_555
H11 C15 1_555 1_555
C16 C15 1_555 1_555
C17 N2 1_555 1_555
H12 C17 1_555 1_555
C18 C16 1_555 1_555
C19 C18 1_555 1_555
H13 C19 1_555 1_555
C20 C19 1_555 1_555
H14 C20 1_555 1_555
C21 C20 1_555 1_555
H15 C21 1_555 1_555
C22 C21 1_555 1_555
C23 C18 1_555 1_555
H16 C23 1_555 1_555
C24 C22 1_555 1_555
H17 O4 1_555 1_555
N1A Ag1 1_555 1_555
O1A Ag1 1_555 1_555
Ag1A O1 1_555 1_555
Ag1A_2 N1 1_555 1_555
Ag1 Ag1A 1_555 1_555
C8 C9 1_555 1_555
C11 C12 1_555 1_555
C16 C17 1_555 1_555
C22 C23 1_555 1_555
O1A Ag1A 1_555 1_555

#END
