
#######################################################################
#
#                 Cambridge Crystallographic Data Centre
#                                CCDC 
#
#######################################################################
#
# If this CIF has been generated from an entry in the Cambridge 
# Structural Database, then it will include bibliographic, chemical, 
# crystal, experimental, refinement or atomic coordinate data resulting 
# from the CCDC's data processing and validation procedures.
#
#######################################################################

data_KIVNIO
_symmetry_cell_setting           triclinic
_symmetry_space_group_name_H-M   'P -1'
_symmetry_Int_Tables_number      2
_space_group_name_Hall           '-P 1'
loop_
_symmetry_equiv_pos_site_id
_symmetry_equiv_pos_as_xyz
1 x,y,z
2 -x,-y,-z
_cell_length_a                   7.570(2)
_cell_length_b                   7.808(2)
_cell_length_c                   9.232(3)
_cell_angle_alpha                108.511(16)
_cell_angle_beta                 94.450(19)
_cell_angle_gamma                106.061(16)
_cell_volume                     488.981
loop_
_atom_site_label
_atom_site_type_symbol
_atom_site_fract_x
_atom_site_fract_y
_atom_site_fract_z
C1 C 0.7825(7) 0.2821(7) 0.3723(5)
C2 C 0.8934(8) 0.2983(8) 0.2504(6)
H1 H 0.8650 0.1728 0.1717
H2 H 1.0249 0.3408 0.2958
C3 C 0.7685(7) 0.3657(7) 0.0266(6)
H3 H 0.7371 0.2365 -0.0313
C4 C 0.9063(8) 0.6224(7) 0.2605(7)
H4 H 0.9724 0.6672 0.3615
C5 C 0.8570(8) 0.7454(6) 0.2024(5)
H5 H 0.8854 0.8733 0.2632
C6 C 0.7609(7) 0.6737(7) 0.0464(5)
H6 H 0.7257 0.7536 0.0021
C7 C 0.7215(7) 0.4832(7) -0.0372(5)
C8 C 0.6236(7) 0.4032(7) -0.2102(5)
Mn1 Mn 0.5000 0.0000 0.5000
Mn2 Mn 0.5000 0.5000 0.5000
N1 N 0.8601(6) 0.4338(6) 0.1725(5)
N2 N 0.3455(6) 0.1741(6) 0.4138(5)
N3 N 0.2754(6) 0.1073(6) 0.2798(5)
N4 N 0.1995(8) 0.0397(7) 0.1495(6)
O1 O 0.7397(6) 0.1179(5) 0.3884(4)
O2 O 0.7485(5) 0.4327(5) 0.4545(4)
O3 O 0.6087(5) 0.2300(5) -0.2792(4)
O4 O 0.5679(5) 0.5081(5) -0.2652(4)
C1A C 0.2175(7) -0.2821(7) -0.3723(5)
C2A C 0.1066(8) -0.2983(8) -0.2504(6)
H1A H 0.1350 -0.1728 -0.1717
H2A H -0.0249 -0.3408 -0.2958
C3A C 0.2315(7) -0.3657(7) -0.0266(6)
H3A H 0.2629 -0.2365 0.0313
C4A C 0.0937(8) -0.6224(7) -0.2605(7)
H4A H 0.0276 -0.6672 -0.3615
C5A C 0.1430(8) -0.7454(6) -0.2024(5)
H5A H 0.1146 -0.8733 -0.2632
C6A C 0.2391(7) -0.6737(7) -0.0464(5)
H6A H 0.2743 -0.7536 -0.0021
C7A C 0.2785(7) -0.4832(7) 0.0372(5)
C8A C 0.3764(7) -0.4032(7) 0.2102(5)
N1A N 0.1399(6) -0.4338(6) -0.1725(5)
O1A O 0.2603(6) -0.1179(5) -0.3884(4)
O2A O 0.2515(5) -0.4327(5) -0.4545(4)
O3A O 0.3913(5) -0.2300(5) 0.2792(4)
O4A O 0.4321(5) -0.5081(5) 0.2652(4)
N2A N 0.6545(6) -0.1741(6) 0.5862(5)
N3A N 0.7246(6) -0.1073(6) 0.7202(5)
N4A N 0.8005(8) -0.0397(7) 0.8505(6)
Mn1_2 Mn 0.5000 0.0000 -0.5000
Mn2_2 Mn 0.5000 -0.5000 -0.5000
Mn2_3 Mn 0.5000 -0.5000 0.5000
Mn2_4 Mn 0.5000 0.5000 -0.5000
N2A_2 N 0.6545(6) 0.8259(6) 0.5862(5)
O1A_2 O 0.2603(6) -0.1179(5) 0.6116(4)
O2A_2 O 0.2515(5) 0.5673(5) 0.5455(4)
O3_2 O 0.6087(5) 0.2300(5) 0.7208(4)
O4_2 O 0.5679(5) 0.5081(5) 0.7348(4)
O4A_2 O 0.4321(5) 0.4919(5) 0.2652(4)
loop_
_geom_bond_atom_site_label_1
_geom_bond_atom_site_label_2
_geom_bond_site_symmetry_1
_geom_bond_site_symmetry_2
C1 C2 1_555 1_555
C2 H1 1_555 1_555
H2 C2 1_555 1_555
C3 H3 1_555 1_555
C4 H4 1_555 1_555
C5 C4 1_555 1_555
H5 C5 1_555 1_555
C6 C5 1_555 1_555
H6 C6 1_555 1_555
C7 C3 1_555 1_555
C8 C7 1_555 1_555
Mn1 N2 1_555 1_555
Mn2 N2 1_555 1_555
N1 C2 1_555 1_555
N2 N3 1_555 1_555
N3 N4 1_555 1_555
O1 C1 1_555 1_555
O2 C1 1_555 1_555
O3 C8 1_555 1_555
O4 C8 1_555 1_555
C1A C2A 1_555 1_555
C2A H1A 1_555 1_555
H2A C2A 1_555 1_555
C3A H3A 1_555 1_555
C4A H4A 1_555 1_555
C5A C4A 1_555 1_555
H5A C5A 1_555 1_555
C6A C5A 1_555 1_555
H6A C6A 1_555 1_555
C7A C3A 1_555 1_555
C8A C7A 1_555 1_555
N1A C2A 1_555 1_555
O1A C1A 1_555 1_555
O2A C1A 1_555 1_555
O3A Mn1 1_555 1_555
O4A C8A 1_555 1_555
N2A Mn1 1_555 1_555
N3A N2A 1_555 1_555
N4A N3A 1_555 1_555
Mn1_2 O3 1_555 1_555
Mn2_2 O2A 1_555 1_555
Mn2_3 O4A 1_555 1_555
Mn2_4 O4 1_555 1_555
N2A_2 Mn2 1_555 1_555
O1A_2 Mn1 1_555 1_555
O2A_2 Mn2 1_555 1_555
O3_2 Mn1 1_555 1_555
O4_2 Mn2 1_555 1_555
O4A_2 Mn2 1_555 1_555
C3 N1 1_555 1_555
C4 N1 1_555 1_555
C6 C7 1_555 1_555
Mn1 O1 1_555 1_555
Mn2 O2 1_555 1_555
C3A N1A 1_555 1_555
C4A N1A 1_555 1_555
C6A C7A 1_555 1_555
C8A O3A 1_555 1_555
O1A Mn1_2 1_555 1_555
N2A Mn2_3 1_555 1_555

#END
