
#######################################################################
#
#                 Cambridge Crystallographic Data Centre
#                                CCDC 
#
#######################################################################
#
# If this CIF has been generated from an entry in the Cambridge 
# Structural Database, then it will include bibliographic, chemical, 
# crystal, experimental, refinement or atomic coordinate data resulting 
# from the CCDC's data processing and validation procedures.
#
#######################################################################

data_KIVPEM
_symmetry_cell_setting           triclinic
_symmetry_space_group_name_H-M   'P -1'
_symmetry_Int_Tables_number      2
_space_group_name_Hall           '-P 1'
loop_
_symmetry_equiv_pos_site_id
_symmetry_equiv_pos_as_xyz
1 x,y,z
2 -x,-y,-z
_cell_length_a                   10.4566(7)
_cell_length_b                   11.0799(7)
_cell_length_c                   30.5156(18)
_cell_angle_alpha                88.3306(12)
_cell_angle_beta                 87.8310(13)
_cell_angle_gamma                79.7213(11)
_cell_volume                     3475.35
loop_
_atom_site_label
_atom_site_type_symbol
_atom_site_fract_x
_atom_site_fract_y
_atom_site_fract_z
Pr1 Pr 0.44267(2) 0.345142(19) 0.372914(7)
O1 O 0.5389(3) 0.4937(2) 0.32449(9)
N1 N 0.6838(3) 0.3614(3) 0.38362(10)
C1 C 0.7401(4) 0.4425(3) 0.35985(13)
C2 C 1.1314(5) 0.8921(4) 0.02261(15)
H1 H 1.1437 0.8183 0.0079
Pr2 Pr 0.87102(2) 1.04476(2) 0.148538(7)
O2 O 0.7038(3) 0.5840(2) 0.30013(9)
N2 N 0.2939(3) 0.3397(3) 0.44263(10)
C3 C 0.8656(4) 0.4562(4) 0.36545(14)
H2 H 0.9011 0.5149 0.3490
Sr1 Sr 0.72827(4) 0.57189(3) 0.214740(13)
O3 O 0.5684(3) 0.1985(2) 0.42679(9)
N3 N 0.3625(3) 0.3303(3) 0.29398(11)
C4 C 0.9396(5) 0.3820(4) 0.39584(16)
H3 H 1.0253 0.3897 0.4002
O4 O 0.7468(3) 0.1223(3) 0.46265(10)
N4 N 0.6284(3) 1.0282(3) 0.14668(10)
C5 C 0.8831(4) 0.2967(4) 0.41934(15)
H4 H 0.9309 0.2446 0.4396
O5 O 0.4295(3) 0.5154(3) 0.42461(9)
C6 C 0.7556(4) 0.2884(3) 0.41287(12)
N5 N 1.0294(3) 1.0154(3) 0.08053(11)
O6 O 0.3566(4) 0.6125(3) 0.48597(11)
C7 C 0.6544(4) 0.5130(4) 0.32525(13)
N6 N 0.9670(3) 1.0877(3) 0.22155(11)
O7 O 0.3143(3) 0.1732(2) 0.38163(9)
C8 C 0.6856(4) 0.1956(4) 0.43675(13)
O8 O 0.1789(3) 0.0708(3) 0.41828(11)
C9 C 0.2874(4) 0.4264(4) 0.47217(14)
O9 O 0.5683(3) 0.1858(3) 0.32593(9)
C10 C 0.2151(5) 0.4245(4) 0.51110(15)
H5 H 0.2109 0.4868 0.5312
O10 O 0.6150(3) 0.0907(3) 0.26266(9)
C11 C 0.1498(5) 0.3289(5) 0.51936(16)
H6 H 0.1002 0.3260 0.5452
O11 O 0.2355(3) 0.4825(3) 0.35098(9)
C12 C 0.1579(5) 0.2370(4) 0.48925(15)
H7 H 0.1161 0.1704 0.4947
O12 O 0.0911(3) 0.5678(3) 0.30238(10)
C13 C 0.2300(4) 0.2469(4) 0.45075(13)
O13 O 0.7902(3) 0.9006(3) 0.20174(9)
C14 C 0.3639(5) 0.5266(4) 0.46024(15)
O14 O 0.6381(3) 0.8016(2) 0.23055(10)
C15 C 0.2405(4) 0.1550(4) 0.41448(13)
O15 O 0.7390(3) 1.1653(3) 0.09067(10)
C16 C 0.4351(4) 0.2524(4) 0.26597(13)
O16 O 0.5514(3) 1.2496(3) 0.06239(11)
C17 C 0.4040(5) 0.2477(4) 0.22291(15)
H8 H 0.4567 0.1949 0.2038
O17 O 0.8752(3) 0.8575(3) 0.10289(10)
C18 C 0.2937(6) 0.3224(5) 0.20842(17)
H9 H 0.2704 0.3197 0.1794
O18 O 0.9922(4) 0.7138(3) 0.06054(12)
C19 C 0.2178(5) 0.4010(5) 0.23679(16)
H10 H 0.1420 0.4509 0.2276
O19 O 1.0004(3) 1.2116(3) 0.12993(10)
C20 C 0.2570(4) 0.4043(4) 0.27959(14)
O20 O 1.1321(3) 1.2999(3) 0.08548(11)
C21 C 0.5494(4) 0.1708(4) 0.28599(13)
O21 O 1.0664(3) 0.9014(3) 0.17185(11)
C22 C 0.1878(4) 0.4930(4) 0.31323(14)
O22 O 1.2073(4) 0.8231(4) 0.22266(13)
C23 C 0.5784(4) 0.9528(3) 0.17485(13)
O23 O 0.7595(3) 1.2276(3) 0.18968(9)
C24 C 0.4479(5) 0.9436(4) 0.17525(15)
H11 H 0.4148 0.8899 0.1947
O24 O 0.7432(4) 1.3556(3) 0.24541(10)
C25 C 0.3683(5) 1.0157(5) 0.14620(17)
H12 H 0.2805 1.0109 0.1456
O25 O 0.7362(3) 0.6827(3) 0.13964(9)
H13 H 0.7899 0.7318 0.1398
H14 H 0.6663 0.6852 0.1257
C26 C 0.4198(5) 1.0948(4) 0.11812(15)
H15 H 0.3668 1.1460 0.0989
O26 O 0.9268(3) 0.4372(3) 0.17326(11)
H16 H 0.9876 0.4877 0.1731
H17 H 0.9577 0.3660 0.1576
C27 C 0.5502(4) 1.0976(4) 0.11863(13)
O27 O 0.6199(4) 0.4466(3) 0.15845(11)
H18 H 0.5791 0.4944 0.1391
H19 H 0.6524 0.3801 0.1455
C28 C 0.6758(4) 0.8798(3) 0.20504(13)
O28 O 0.4841(3) 0.5897(3) 0.23954(11)
H20 H 0.4299 0.6033 0.2189
H21 H 0.4570 0.5239 0.2468
C29 C 0.6179(5) 1.1778(4) 0.08802(14)
O29 O 0.9412(3) 0.6569(3) 0.22628(12)
H22 H 0.9965 0.6466 0.2466
H23 H 0.9475 0.7188 0.2098
C30 C 1.0458(4) 0.9111(4) 0.05840(14)
C31 C 1.1984(5) 0.9836(4) 0.00896(16)
H24 H 1.2543 0.9733 -0.0156
C32 C 1.1819(5) 1.0892(4) 0.03181(15)
H25 H 1.2271 1.1515 0.0232
C33 C 1.0971(4) 1.1028(4) 0.06798(13)
C34 C 0.9649(5) 0.8191(4) 0.07528(15)
C35 C 1.0750(4) 1.2152(4) 0.09633(14)
C36 C 1.0718(5) 1.0134(4) 0.23590(15)
C37 C 1.1315(6) 1.0383(6) 0.27299(18)
H26 H 1.2036 0.9843 0.2830
C38 C 1.0844(7) 1.1430(6) 0.29513(19)
H27 H 1.1264 1.1631 0.3195
C39 C 0.9736(6) 1.2186(5) 0.28094(16)
H28 H 0.9380 1.2890 0.2961
C40 C 0.9171(5) 1.1876(4) 0.24407(14)
C41 C 1.1198(5) 0.9029(5) 0.20813(17)
C42 C 0.7965(5) 1.2639(4) 0.22538(14)
Sr1_2 Sr 0.72827(4) 1.57189(3) 0.214740(13)
O24_2 O 0.7432(4) 0.3556(3) 0.24541(10)
N7 N 0.8346(5) 0.5508(4) 0.04206(15)
H29 H 0.8830 0.5982 0.0520
N8 N 0.7140(5) 0.4164(4) 0.03800(17)
H30 H 0.6697 0.3601 0.0453
C43 C 0.7837(7) 0.4683(5) 0.0649(2)
H31 H 0.7945 0.4495 0.0946
C44 C 0.7982(7) 0.5487(5) 0.00061(19)
H32 H 0.8217 0.5980 -0.0224
C45 C 0.7235(8) 0.4653(6) -0.0023(2)
H33 H 0.6851 0.4446 -0.0274
N9 N 0.3735(4) 0.9445(3) 0.34204(12)
H34 H 0.3657 1.0168 0.3525
N10 N 0.4376(4) 0.7891(4) 0.30279(14)
H35 H 0.4786 0.7421 0.2830
C46 C 0.4514(5) 0.9019(4) 0.30924(16)
H36 H 0.5071 0.9448 0.2933
C47 C 0.3486(5) 0.7581(5) 0.33218(19)
H37 H 0.3211 0.6828 0.3348
C48 C 0.3074(5) 0.8564(5) 0.35679(16)
H38 H 0.2452 0.8628 0.3796
N11 N 0.9380(4) 0.8213(5) 0.34403(19)
H39 H 0.9866 0.7527 0.3508
N12 N 0.8047(4) 0.9548(4) 0.31098(13)
H40 H 0.7499 0.9898 0.2922
C49 C 0.8642(6) 0.8413(5) 0.3104(2)
H41 H 0.8555 0.7843 0.2895
C50 C 0.8432(6) 1.0076(5) 0.34573(18)
H42 H 0.8161 1.0888 0.3537
C51 C 0.9259(6) 0.9251(7) 0.3666(2)
H43 H 0.9681 0.9362 0.3921
N13 N 0.5396(5) 0.9533(4) 0.43475(15)
H44 H 0.5450 1.0299 0.4345
N14 N 0.4803(4) 0.7817(4) 0.45153(14)
H45 H 0.4425 0.7273 0.4647
C52 C 0.4591(6) 0.8993(5) 0.46014(16)
H46 H 0.3983 0.9381 0.4805
C53 C 0.5711(5) 0.7603(5) 0.41862(18)
H47 H 0.5995 0.6857 0.4051
C54 C 0.6125(6) 0.8653(5) 0.40903(19)
H48 H 0.6782 0.8767 0.3888
C55 C 0.5456(8) 0.8314(7) 0.0413(3)
H49 H 0.5769 0.8840 0.0612
H50 H 0.4981 0.8803 0.0187
H51 H 0.6179 0.7771 0.0282
C56 C 0.4560(10) 0.7560(9) 0.0663(3)
H52 H 0.3784 0.8117 0.0760
H53 H 0.4291 0.7006 0.0458
O30 O 0.5035(5) 0.6911(7) 0.1003(2)
H54 H 0.4443 0.6838 0.1180
O31 O 0.3144(5) 0.6390(4) 0.16921(16)
H55 H 0.2832 0.6034 0.1488
H56 H 0.2436 0.6778 0.1810
O32 O 0.1292(4) 0.5279(4) 0.12025(14)
H57 H 0.1153 0.5782 0.0985
H58 H 0.1236 0.4554 0.1131
O33 O 0.0883(3) 0.6610(3) 0.40229(11)
H59 H 0.1499 0.6062 0.3921
H60 H 0.1210 0.6996 0.4215
O34 O 0.1162(4) 0.8551(4) 0.46041(12)
H61 H 0.1298 0.9237 0.4499
H62 H 0.1460 0.8560 0.4860
O35 O 0.4065(9) 0.4500(8) 0.1007(3)
H63 H 0.3235 0.4587 0.1033
H64 H 0.4439 0.3853 0.0875
loop_
_geom_bond_atom_site_label_1
_geom_bond_atom_site_label_2
_geom_bond_site_symmetry_1
_geom_bond_site_symmetry_2
Pr1 O1 1_555 1_555
O1 C7 1_555 1_555
N1 Pr1 1_555 1_555
C1 N1 1_555 1_555
C2 H1 1_555 1_555
Pr2 N4 1_555 1_555
O2 Sr1 1_555 1_555
N2 Pr1 1_555 1_555
C3 C1 1_555 1_555
H2 C3 1_555 1_555
Sr1 O14 1_555 1_555
O3 Pr1 1_555 1_555
N3 Pr1 1_555 1_555
C4 C3 1_555 1_555
H3 C4 1_555 1_555
O4 C8 1_555 1_555
N4 C23 1_555 1_555
C5 C4 1_555 1_555
H4 C5 1_555 1_555
O5 Pr1 1_555 1_555
C6 N1 1_555 1_555
N5 Pr2 1_555 1_555
O6 C14 1_555 1_555
C7 C1 1_555 1_555
N6 Pr2 1_555 1_555
O7 Pr1 1_555 1_555
C8 O3 1_555 1_555
O8 C15 1_555 1_555
C9 N2 1_555 1_555
O9 Pr1 1_555 1_555
C10 C9 1_555 1_555
H5 C10 1_555 1_555
O10 C21 1_555 1_555
C11 C10 1_555 1_555
H6 C11 1_555 1_555
O11 Pr1 1_555 1_555
C12 C11 1_555 1_555
H7 C12 1_555 1_555
O12 C22 1_555 1_555
C13 N2 1_555 1_555
O13 Pr2 1_555 1_555
C14 O5 1_555 1_555
O14 C28 1_555 1_555
C15 O7 1_555 1_555
O15 Pr2 1_555 1_555
C16 N3 1_555 1_555
O16 C29 1_555 1_555
C17 C16 1_555 1_555
H8 C17 1_555 1_555
O17 Pr2 1_555 1_555
C18 C17 1_555 1_555
H9 C18 1_555 1_555
O18 C34 1_555 1_555
C19 C18 1_555 1_555
H10 C19 1_555 1_555
O19 Pr2 1_555 1_555
C20 N3 1_555 1_555
O20 C35 1_555 1_555
C21 O9 1_555 1_555
O21 Pr2 1_555 1_555
C22 O11 1_555 1_555
O22 C41 1_555 1_555
C23 C24 1_555 1_555
O23 Pr2 1_555 1_555
C24 H11 1_555 1_555
O24 C42 1_555 1_555
C25 C24 1_555 1_555
H12 C25 1_555 1_555
O25 Sr1 1_555 1_555
H13 O25 1_555 1_555
H14 O25 1_555 1_555
C26 C25 1_555 1_555
H15 C26 1_555 1_555
O26 Sr1 1_555 1_555
H16 O26 1_555 1_555
H17 O26 1_555 1_555
C27 N4 1_555 1_555
O27 Sr1 1_555 1_555
H18 O27 1_555 1_555
H19 O27 1_555 1_555
C28 O13 1_555 1_555
O28 Sr1 1_555 1_555
H20 O28 1_555 1_555
H21 O28 1_555 1_555
C29 O15 1_555 1_555
O29 Sr1 1_555 1_555
H22 O29 1_555 1_555
H23 O29 1_555 1_555
C30 C2 1_555 1_555
C31 C2 1_555 1_555
H24 C31 1_555 1_555
C32 C31 1_555 1_555
H25 C32 1_555 1_555
C33 N5 1_555 1_555
C34 O17 1_555 1_555
C35 O19 1_555 1_555
C36 N6 1_555 1_555
C37 C36 1_555 1_555
H26 C37 1_555 1_555
C38 C37 1_555 1_555
H27 C38 1_555 1_555
C39 C38 1_555 1_555
H28 C39 1_555 1_555
C40 N6 1_555 1_555
C41 O21 1_555 1_555
C42 O23 1_555 1_555
N7 H29 1_555 1_555
N8 H30 1_555 1_555
C43 N7 1_555 1_555
H31 C43 1_555 1_555
C44 N7 1_555 1_555
H32 C44 1_555 1_555
C45 N8 1_555 1_555
H33 C45 1_555 1_555
N9 H34 1_555 1_555
N10 H35 1_555 1_555
C46 N9 1_555 1_555
H36 C46 1_555 1_555
C47 N10 1_555 1_555
H37 C47 1_555 1_555
C48 N9 1_555 1_555
H38 C48 1_555 1_555
N11 H39 1_555 1_555
N12 H40 1_555 1_555
C49 N11 1_555 1_555
H41 C49 1_555 1_555
C50 N12 1_555 1_555
H42 C50 1_555 1_555
C51 N11 1_555 1_555
H43 C51 1_555 1_555
N13 H44 1_555 1_555
N14 H45 1_555 1_555
C52 N13 1_555 1_555
H46 C52 1_555 1_555
C53 N14 1_555 1_555
H47 C53 1_555 1_555
C54 N13 1_555 1_555
H48 C54 1_555 1_555
C55 H49 1_555 1_555
H50 C55 1_555 1_555
H51 C55 1_555 1_555
C56 C55 1_555 1_555
H52 C56 1_555 1_555
H53 C56 1_555 1_555
O30 C56 1_555 1_555
H54 O30 1_555 1_555
O31 H55 1_555 1_555
H56 O31 1_555 1_555
O32 H57 1_555 1_555
H58 O32 1_555 1_555
O33 H59 1_555 1_555
H60 O33 1_555 1_555
O34 H61 1_555 1_555
H62 O34 1_555 1_555
O35 H63 1_555 1_555
H64 O35 1_555 1_555
Sr1_2 O24 1_555 1_555
O24_2 Sr1 1_555 1_555
O2 C7 1_555 1_555
C5 C6 1_555 1_555
C6 C8 1_555 1_555
N5 C30 1_555 1_555
C9 C14 1_555 1_555
C12 C13 1_555 1_555
C13 C15 1_555 1_555
C16 C21 1_555 1_555
C19 C20 1_555 1_555
C20 C22 1_555 1_555
C23 C28 1_555 1_555
C26 C27 1_555 1_555
C27 C29 1_555 1_555
C30 C34 1_555 1_555
C32 C33 1_555 1_555
C33 C35 1_555 1_555
C36 C41 1_555 1_555
C39 C40 1_555 1_555
C40 C42 1_555 1_555
N8 C43 1_555 1_555
C44 C45 1_555 1_555
N10 C46 1_555 1_555
C47 C48 1_555 1_555
N12 C49 1_555 1_555
C50 C51 1_555 1_555
N14 C52 1_555 1_555
C53 C54 1_555 1_555

#END
