
#######################################################################
#
#                 Cambridge Crystallographic Data Centre
#                                CCDC 
#
#######################################################################
#
# If this CIF has been generated from an entry in the Cambridge 
# Structural Database, then it will include bibliographic, chemical, 
# crystal, experimental, refinement or atomic coordinate data resulting 
# from the CCDC's data processing and validation procedures.
#
#######################################################################

data_KIVPAI
_symmetry_cell_setting           triclinic
_symmetry_space_group_name_H-M   'P -1'
_symmetry_Int_Tables_number      2
_space_group_name_Hall           '-P 1'
loop_
_symmetry_equiv_pos_site_id
_symmetry_equiv_pos_as_xyz
1 x,y,z
2 -x,-y,-z
_cell_length_a                   10.2501(6)
_cell_length_b                   11.1323(7)
_cell_length_c                   17.4007(11)
_cell_angle_alpha                108.3699(10)
_cell_angle_beta                 97.6602(11)
_cell_angle_gamma                101.6562(10)
_cell_volume                     1803.59
loop_
_atom_site_label
_atom_site_type_symbol
_atom_site_fract_x
_atom_site_fract_y
_atom_site_fract_z
Pr1 Pr 0.792453(15) 0.289896(14) 0.207996(9)
O1 O 0.6719(2) 0.3732(2) 0.11099(13)
N1 N 0.5471(2) 0.3079(2) 0.21974(14)
C1 C 0.4774(3) 0.3510(3) 0.16851(18)
Sr1 Sr 0.58485(3) 0.69702(3) 0.097643(17)
O2 O 0.4952(2) 0.4320(2) 0.05903(13)
N2 N 0.9847(2) 0.3999(2) 0.34002(15)
C2 C 0.3456(3) 0.3614(4) 0.1715(2)
H1 H 0.2997 0.3941 0.1362
O3 O 0.6980(2) 0.2343(2) 0.32171(14)
N3 N 0.8267(3) 0.1664(2) 0.06211(16)
C3 C 0.2840(4) 0.3211(4) 0.2293(2)
H2 H 0.1953 0.3257 0.2326
O4 O 0.5280(3) 0.1856(3) 0.38251(16)
C4 C 0.3551(3) 0.2748(4) 0.2809(2)
H3 H 0.3148 0.2464 0.3191
O5 O 0.8235(2) 0.5293(2) 0.29018(15)
C5 C 0.4880(3) 0.2710(3) 0.27545(18)
C6 C 0.5535(3) 0.3878(3) 0.10756(17)
O6 O 0.9476(3) 0.7200(2) 0.38432(18)
O7 O 0.9332(2) 0.1508(2) 0.24597(14)
C7 C 0.5782(3) 0.2266(3) 0.33110(18)
O8 O 1.0745(3) 0.1114(2) 0.33861(17)
C8 C 1.0109(3) 0.5276(3) 0.38344(19)
O9 O 0.9844(2) 0.3974(2) 0.15726(14)
C9 C 1.1118(3) 0.5887(3) 0.4551(2)
H4 H 1.1298 0.6783 0.4839
O10 O 1.0904(3) 0.4181(3) 0.05693(17)
C10 C 1.1848(4) 0.5130(4) 0.4827(2)
H5 H 1.2530 0.5513 0.5306
O11 O 0.6431(2) 0.0657(2) 0.13257(13)
C11 C 1.1556(3) 0.3802(3) 0.4386(2)
H6 H 1.2028 0.3277 0.4567
C12 C 1.0553(3) 0.3271(3) 0.36728(18)
O12 O 0.5871(3) -0.1283(2) 0.02923(14)
C13 C 0.9206(3) 0.5991(3) 0.3499(2)
O13 O 0.7960(3) 0.6014(2) 0.08066(17)
H7 H 0.8503 0.6029 0.0480
H8 H 0.7841 0.5282 0.0876
C14 C 1.0178(3) 0.1833(3) 0.31330(19)
O14 O 0.3281(3) 0.6480(3) 0.0976(3)
H9 H 0.3003 0.6795 0.1417
H10 H 0.2783 0.5706 0.0721
O15 O 0.8138(3) 0.8755(2) 0.16954(19)
H11 H 0.8814 0.8467 0.1815
H12 H 0.8486 0.9576 0.1864
C15 C 0.9165(4) 0.2256(3) 0.0278(2)
O16 O 0.5295(3) 0.8957(3) 0.20564(17)
H13 H 0.5469 0.9572 0.1866
H14 H 0.4668 0.9144 0.2308
O17 O 0.6430(3) 0.6600(2) 0.23453(14)
H15 H 0.6991 0.6197 0.2480
H16 H 0.5845 0.6691 0.2647
C16 C 0.7435(4) 0.0486(3) 0.0170(2)
C17 C 1.0046(3) 0.3578(3) 0.0842(2)
C18 C 0.6492(3) -0.0109(3) 0.06218(19)
C19 C 0.9274(6) 0.1678(5) -0.0527(3)
H17 H 0.9920 0.2095 -0.0752
C20 C 0.7466(6) -0.0131(5) -0.0639(3)
H18 H 0.6865 -0.0942 -0.0947
C21 C 0.8410(7) 0.0473(6) -0.0991(4)
H19 H 0.8458 0.0064 -0.1539
Sr1_2 Sr 0.58485(3) -0.30298(3) 0.097643(17)
Sr1A Sr 0.41515(3) 0.30298(3) -0.097643(17)
O2A O 0.5048(2) 0.5680(2) -0.05903(13)
O12_2 O 0.5871(3) 0.8717(2) 0.02923(14)
N4 N 0.8035(4) -0.0964(3) 0.4230(2)
H20 H 0.8441 -0.1560 0.4029
N5 N 0.6897(4) 0.0460(3) 0.4319(2)
H21 H 0.6431 0.0954 0.4187
C22 C 0.7386(5) -0.0395(4) 0.3808(3)
H22 H 0.7288 -0.0568 0.3242
C23 C 0.7253(6) 0.0427(5) 0.5087(3)
H23 H 0.7041 0.0934 0.5567
C24 C 0.7962(5) -0.0464(4) 0.5028(3)
H24 H 0.8337 -0.0697 0.5460
O18 O 0.1809(4) 0.6466(4) 0.2339(3)
H25 H 0.1406 0.7068 0.2361
H26 H 0.1212 0.5737 0.2126
O19 O 0.4471(5) 0.7024(7) 0.3249(3)
H27 H 0.3706 0.6936 0.2993
C25 C 0.4371(7) 0.6763(9) 0.4012(4)
H28 H 0.3473 0.6184 0.3915
H29 H 0.4385 0.7587 0.4429
C26 C 0.5372(6) 0.6186(7) 0.4400(5)
H30 H 0.5063 0.5247 0.4175
H31 H 0.5439 0.6482 0.4989
H32 H 0.6250 0.6462 0.4284
O20 O 0.3390(7) 0.9364(7) 0.3034(4)
H33 H 0.2654 0.9595 0.2975
H34 H 0.3887 0.9876 0.3498
O21 O 0.0467(4) 0.8509(3) 0.2750(2)
H35 H 0.0454 0.9304 0.2962
H36 H 0.0138 0.8264 0.3115
loop_
_geom_bond_atom_site_label_1
_geom_bond_atom_site_label_2
_geom_bond_site_symmetry_1
_geom_bond_site_symmetry_2
Pr1 O1 1_555 1_555
O1 C6 1_555 1_555
N1 Pr1 1_555 1_555
C1 N1 1_555 1_555
Sr1 O2 1_555 1_555
O2 C6 1_555 1_555
N2 Pr1 1_555 1_555
C2 C1 1_555 1_555
H1 C2 1_555 1_555
O3 Pr1 1_555 1_555
N3 Pr1 1_555 1_555
C3 C2 1_555 1_555
H2 C3 1_555 1_555
O4 C7 1_555 1_555
C4 C3 1_555 1_555
H3 C4 1_555 1_555
O5 Pr1 1_555 1_555
C5 N1 1_555 1_555
C6 C1 1_555 1_555
O6 C13 1_555 1_555
O7 Pr1 1_555 1_555
C7 O3 1_555 1_555
O8 C14 1_555 1_555
C8 N2 1_555 1_555
O9 Pr1 1_555 1_555
C9 C8 1_555 1_555
H4 C9 1_555 1_555
O10 C17 1_555 1_555
C10 C9 1_555 1_555
H5 C10 1_555 1_555
O11 Pr1 1_555 1_555
C11 C10 1_555 1_555
H6 C11 1_555 1_555
C12 N2 1_555 1_555
O12 C18 1_555 1_555
C13 O5 1_555 1_555
O13 Sr1 1_555 1_555
H7 O13 1_555 1_555
H8 O13 1_555 1_555
C14 O7 1_555 1_555
O14 Sr1 1_555 1_555
H9 O14 1_555 1_555
H10 O14 1_555 1_555
O15 Sr1 1_555 1_555
H11 O15 1_555 1_555
H12 O15 1_555 1_555
C15 N3 1_555 1_555
O16 Sr1 1_555 1_555
H13 O16 1_555 1_555
H14 O16 1_555 1_555
O17 Sr1 1_555 1_555
H15 O17 1_555 1_555
H16 O17 1_555 1_555
C16 N3 1_555 1_555
C17 O9 1_555 1_555
C18 O11 1_555 1_555
C19 C15 1_555 1_555
H17 C19 1_555 1_555
C20 C16 1_555 1_555
H18 C20 1_555 1_555
C21 C19 1_555 1_555
H19 C21 1_555 1_555
N4 H20 1_555 1_555
N5 H21 1_555 1_555
C22 N4 1_555 1_555
H22 C22 1_555 1_555
C23 N5 1_555 1_555
H23 C23 1_555 1_555
C24 N4 1_555 1_555
H24 C24 1_555 1_555
O18 H25 1_555 1_555
H26 O18 1_555 1_555
O19 H27 1_555 1_555
C25 O19 1_555 1_555
H28 C25 1_555 1_555
H29 C25 1_555 1_555
C26 C25 1_555 1_555
H30 C26 1_555 1_555
H31 C26 1_555 1_555
H32 C26 1_555 1_555
O20 H33 1_555 1_555
H34 O20 1_555 1_555
O21 H35 1_555 1_555
H36 O21 1_555 1_555
Sr1_2 O12 1_555 1_555
Sr1A O2 1_555 1_555
O2A Sr1 1_555 1_555
O12_2 Sr1 1_555 1_555
C4 C5 1_555 1_555
C5 C7 1_555 1_555
C8 C13 1_555 1_555
C11 C12 1_555 1_555
C12 C14 1_555 1_555
C15 C17 1_555 1_555
C16 C18 1_555 1_555
C20 C21 1_555 1_555
N5 C22 1_555 1_555
C23 C24 1_555 1_555
Sr1A O2A 1_555 1_555

#END
