
#######################################################################
#
#                 Cambridge Crystallographic Data Centre
#                                CCDC 
#
#######################################################################
#
# If this CIF has been generated from an entry in the Cambridge 
# Structural Database, then it will include bibliographic, chemical, 
# crystal, experimental, refinement or atomic coordinate data resulting 
# from the CCDC's data processing and validation procedures.
#
#######################################################################

data_KIVSOY
_symmetry_cell_setting           monoclinic
_symmetry_space_group_name_H-M   'P 21/n'
_symmetry_Int_Tables_number      14
_space_group_name_Hall           '-P 2yn'
loop_
_symmetry_equiv_pos_site_id
_symmetry_equiv_pos_as_xyz
1 x,y,z
2 1/2-x,1/2+y,1/2-z
3 -x,-y,-z
4 1/2+x,1/2-y,1/2+z
_cell_length_a                   12.073(2)
_cell_length_b                   18.601(4)
_cell_length_c                   16.998(3)
_cell_angle_alpha                90
_cell_angle_beta                 99.70(3)
_cell_angle_gamma                90
_cell_volume                     3762.67
loop_
_atom_site_label
_atom_site_type_symbol
_atom_site_fract_x
_atom_site_fract_y
_atom_site_fract_z
Ni1 Ni 0.22112(12) 0.22979(7) 0.56177(9)
Ni2 Ni -0.03150(12) 0.19491(7) 0.52840(10)
Br1 Br 0.08356(13) 0.04012(8) 0.93348(9)
Br2 Br 0.22582(16) 0.05054(10) 0.17433(10)
O1 O 0.1061(6) 0.1906(4) 0.4697(5)
O2 O 0.0952(6) 0.1960(4) 0.6226(5)
O3 O 0.1454(7) 0.3312(3) 0.5564(6)
N1 N -0.1425(8) 0.2018(5) 0.6055(7)
O4 O 0.3020(6) 0.1277(4) 0.5639(5)
N2 N 0.3311(7) 0.2688(5) 0.6609(6)
H1 H 0.2905 0.2784 0.6995
H2 H 0.3792 0.2332 0.6791
O5 O -0.0393(7) 0.0806(3) 0.5422(5)
N3 N 0.3122(7) 0.2653(5) 0.4782(7)
C1 C -0.0119(9) 0.1523(6) 0.7189(7)
C2 C 0.3059(11) 0.2376(7) 0.4092(9)
H3 H 0.3536 0.2563 0.3767
O6 O -0.0338(7) 0.3058(4) 0.5138(5)
C3 C 0.1885(10) 0.1338(6) 0.7383(8)
H4 H 0.2573 0.1407 0.7217
C4 C 0.4546(11) 0.0536(6) 0.5386(8)
C5 C -0.0120(10) 0.1164(6) 0.7916(8)
H5 H -0.0794 0.1106 0.8106
C6 C 0.1068(10) 0.4768(6) 0.5178(8)
H6 H 0.1808 0.4612 0.5306
C7 C 0.0228(10) 0.4280(5) 0.5162(7)
C8 C -0.0866(9) 0.4513(6) 0.4990(7)
H7 H -0.1459 0.4193 0.4986
C9 C 0.0476(10) 0.3474(6) 0.5299(8)
C10 C 0.0907(9) 0.1615(5) 0.6899(8)
O7 O 0.4710(9) 0.1478(6) 0.6357(8)
C11 C 0.0884(11) 0.0890(6) 0.8367(8)
N4 N -0.1509(8) 0.1941(5) 0.4240(6)
H8 H -0.1202 0.2149 0.3850
H9 H -0.1657 0.1481 0.4098
C12 C 0.1385(9) 0.1574(5) 0.4079(8)
C13 C 0.1890(12) 0.0938(7) 0.2708(8)
C14 C -0.1185(9) 0.1789(6) 0.6781(9)
H10 H -0.1768 0.1795 0.7075
C15 C 0.0766(10) 0.1015(6) 0.3692(8)
H11 H 0.0143 0.0855 0.3897
C16 C 0.1872(11) 0.0969(6) 0.8089(8)
H12 H 0.2532 0.0777 0.8371
C17 C 0.3881(11) 0.3258(7) 0.4973(9)
H13 H 0.3442 0.3698 0.4914
H14 H 0.4387 0.3274 0.4587
C18 C 0.3977(11) 0.3332(7) 0.6498(9)
H15 H 0.4511 0.3423 0.6981
H16 H 0.3482 0.3745 0.6402
C19 C 0.5615(11) 0.0293(7) 0.5649(9)
H17 H 0.6039 0.0510 0.6093
C20 C 0.4589(11) 0.3244(7) 0.5819(9)
H18 H 0.4990 0.2790 0.5886
H19 H 0.5148 0.3622 0.5851
C21 C 0.2318(10) 0.1797(7) 0.3761(8)
C22 C 0.4053(11) 0.1158(7) 0.5821(9)
C23 C 0.1023(12) 0.0673(7) 0.3009(9)
H20 H 0.0609 0.0283 0.2779
C24 C 0.2547(11) 0.1482(7) 0.3059(9)
H21 H 0.3150 0.1645 0.2832
C25 C 0.3921(11) 0.0254(7) 0.4713(8)
H22 H 0.3208 0.0429 0.4511
C26 C -0.2576(10) 0.2302(8) 0.4282(9)
H23 H -0.3102 0.2210 0.3796
H24 H -0.2453 0.2817 0.4325
C27 C -0.2567(10) 0.2300(8) 0.5798(9)
H25 H -0.3034 0.2161 0.6184
H26 H -0.2538 0.2821 0.5787
C28 C -0.3083(11) 0.2037(9) 0.5006(10)
H27 H -0.3871 0.2171 0.4919
H28 H -0.3049 0.1516 0.5014
Ni1B Ni -0.22112(12) 0.77021(7) 0.43823(9)
Ni1B_2 Ni 0.77888(12) -0.22979(7) 0.43823(9)
Ni2B Ni 0.03150(12) 0.80509(7) 0.47160(10)
Br1B Br -0.08356(13) 0.95988(8) 0.06652(9)
Br2B Br -0.22582(16) 0.94946(10) 0.82567(10)
O1B O -0.1061(6) 0.8094(4) 0.5303(5)
O2B O -0.0952(6) 0.8040(4) 0.3774(5)
O3B O -0.1454(7) 0.6688(3) 0.4436(6)
N1B N 0.1425(8) 0.7982(5) 0.3945(7)
O4B O 0.6980(6) -0.1277(4) 0.4361(5)
O4B_2 O -0.3020(6) 0.8723(4) 0.4361(5)
N2B N -0.3311(7) 0.7312(5) 0.3391(6)
H1B H -0.2905 0.7216 0.3005
H2B H -0.3792 0.7668 0.3209
O5B O 0.0393(7) 0.9194(3) 0.4578(5)
N3B N -0.3122(7) 0.7347(5) 0.5218(7)
C1B C 0.0119(9) 0.8477(6) 0.2811(7)
C2B C -0.3059(11) 0.7624(7) 0.5908(9)
H3B H -0.3536 0.7437 0.6233
O6B O 0.0338(7) 0.6942(4) 0.4862(5)
C3B C -0.1885(10) 0.8662(6) 0.2617(8)
H4B H -0.2573 0.8593 0.2783
C4B C 0.5454(11) -0.0536(6) 0.4614(8)
C5B C 0.0120(10) 0.8836(6) 0.2084(8)
H5B H 0.0794 0.8894 0.1894
C6B C -0.1068(10) 0.5232(6) 0.4822(8)
H6B H -0.1808 0.5388 0.4694
C7B C -0.0228(10) 0.5720(5) 0.4838(7)
C8B C 0.0866(9) 0.5487(6) 0.5010(7)
H7B H 0.1459 0.5807 0.5014
C9B C -0.0476(10) 0.6526(6) 0.4701(8)
C10B C -0.0907(9) 0.8385(5) 0.3101(8)
O7B O 0.5290(9) -0.1478(6) 0.3643(8)
C11B C -0.0884(11) 0.9110(6) 0.1633(8)
N4B N 0.1509(8) 0.8059(5) 0.5760(6)
H8B H 0.1202 0.7851 0.6150
H9B H 0.1657 0.8519 0.5902
C12B C -0.1385(9) 0.8426(5) 0.5921(8)
C13B C -0.1890(12) 0.9062(7) 0.7292(8)
C14B C 0.1185(9) 0.8211(6) 0.3219(9)
H10B H 0.1768 0.8205 0.2925
C15B C -0.0766(10) 0.8985(6) 0.6308(8)
H11B H -0.0143 0.9145 0.6103
C16B C -0.1872(11) 0.9031(6) 0.1911(8)
H12B H -0.2532 0.9223 0.1629
C17B C -0.3881(11) 0.6742(7) 0.5027(9)
H13B H -0.3442 0.6302 0.5086
H14B H -0.4387 0.6726 0.5413
C18B C -0.3977(11) 0.6668(7) 0.3502(9)
H15B H -0.4511 0.6577 0.3019
H16B H -0.3482 0.6255 0.3598
C19B C 0.4385(11) -0.0293(7) 0.4351(9)
H17B H 0.3961 -0.0510 0.3907
C20B C -0.4589(11) 0.6756(7) 0.4181(9)
H18B H -0.4990 0.7210 0.4114
H19B H -0.5148 0.6378 0.4149
C21B C -0.2318(10) 0.8203(7) 0.6239(8)
C22B C 0.5947(11) -0.1158(7) 0.4179(9)
C23B C -0.1023(12) 0.9327(7) 0.6991(9)
H20B H -0.0609 0.9717 0.7221
C24B C -0.2547(11) 0.8518(7) 0.6941(9)
H21B H -0.3150 0.8355 0.7168
C25B C 0.6079(11) -0.0254(7) 0.5287(8)
H22B H 0.6792 -0.0429 0.5489
C26B C 0.2576(10) 0.7698(8) 0.5718(9)
H23B H 0.3102 0.7790 0.6204
H24B H 0.2453 0.7183 0.5675
C27B C 0.2567(10) 0.7700(8) 0.4202(9)
H25B H 0.3034 0.7839 0.3816
H26B H 0.2538 0.7179 0.4213
C28B C 0.3083(11) 0.7963(9) 0.4994(10)
H27B H 0.3871 0.7829 0.5081
H28B H 0.3049 0.8484 0.4986
O8 O 0.1665(7) 0.0137(5) 0.5659(6)
O9 O 0.6489(16) 0.1485(10) 0.7630(13)
C29 C 0.605(3) 0.1325(17) 0.824(2)
C30 C 0.481(3) 0.178(2) 0.826(3)
O10 O 0.643(2) 0.1426(14) 0.2218(17)
C31 C 0.542(3) 0.1334(19) 0.238(2)
C32 C 0.577(6) 0.072(4) 0.266(4)
O11 O 0.195(2) -0.0572(12) 0.7037(15)
C33 C 0.268(5) -0.064(3) 0.721(3)
loop_
_geom_bond_atom_site_label_1
_geom_bond_atom_site_label_2
_geom_bond_site_symmetry_1
_geom_bond_site_symmetry_2
Ni1 O1 1_555 1_555
Ni2 O1 1_555 1_555
Br1 C11 1_555 1_555
Br2 C13 1_555 1_555
O1 C12 1_555 1_555
O2 Ni1 1_555 1_555
O3 Ni1 1_555 1_555
N1 Ni2 1_555 1_555
O4 Ni1 1_555 1_555
N2 Ni1 1_555 1_555
H1 N2 1_555 1_555
H2 N2 1_555 1_555
O5 Ni2 1_555 1_555
N3 Ni1 1_555 1_555
C1 C5 1_555 1_555
C2 N3 1_555 1_555
H3 C2 1_555 1_555
O6 Ni2 1_555 1_555
C3 H4 1_555 1_555
C4 C19 1_555 1_555
C5 H5 1_555 1_555
C6 H6 1_555 1_555
C7 C6 1_555 1_555
C8 C7 1_555 1_555
H7 C8 1_555 1_555
C9 O3 1_555 1_555
C10 O2 1_555 1_555
O7 C22 1_555 1_555
C11 C5 1_555 1_555
N4 Ni2 1_555 1_555
H8 N4 1_555 1_555
H9 N4 1_555 1_555
C12 C15 1_555 1_555
C13 C23 1_555 1_555
C14 N1 1_555 1_555
H10 C14 1_555 1_555
C15 H11 1_555 1_555
C16 C3 1_555 1_555
H12 C16 1_555 1_555
C17 N3 1_555 1_555
H13 C17 1_555 1_555
H14 C17 1_555 1_555
C18 N2 1_555 1_555
H15 C18 1_555 1_555
H16 C18 1_555 1_555
C19 H17 1_555 1_555
C20 C17 1_555 1_555
H18 C20 1_555 1_555
H19 C20 1_555 1_555
C21 C2 1_555 1_555
C22 O4 1_555 1_555
C23 C15 1_555 1_555
H20 C23 1_555 1_555
C24 C13 1_555 1_555
H21 C24 1_555 1_555
C25 C4 1_555 1_555
H22 C25 1_555 1_555
C26 N4 1_555 1_555
H23 C26 1_555 1_555
H24 C26 1_555 1_555
C27 N1 1_555 1_555
H25 C27 1_555 1_555
H26 C27 1_555 1_555
C28 C26 1_555 1_555
H27 C28 1_555 1_555
H28 C28 1_555 1_555
O9 C29 1_555 1_555
C29 C30 1_555 1_555
O10 C31 1_555 1_555
C31 C32 1_555 1_555
O11 C33 1_555 1_555
Ni1B O1B 1_555 1_555
Ni1B_2 O4B 1_555 1_555
Ni2B O1B 1_555 1_555
Br1B C11B 1_555 1_555
Br2B C13B 1_555 1_555
O1B C12B 1_555 1_555
O2B Ni1B 1_555 1_555
O3B Ni1B 1_555 1_555
N1B Ni2B 1_555 1_555
O4B C22B 1_555 1_555
O4B_2 Ni1B 1_555 1_555
N2B Ni1B 1_555 1_555
H1B N2B 1_555 1_555
H2B N2B 1_555 1_555
O5B Ni2B 1_555 1_555
N3B Ni1B 1_555 1_555
C1B C5B 1_555 1_555
C2B N3B 1_555 1_555
H3B C2B 1_555 1_555
O6B Ni2B 1_555 1_555
C3B H4B 1_555 1_555
C4B C19B 1_555 1_555
C5B H5B 1_555 1_555
C6B C8 1_555 1_555
H6B C6B 1_555 1_555
C7B C6B 1_555 1_555
C8B C6 1_555 1_555
H7B C8B 1_555 1_555
C9B O3B 1_555 1_555
C10B O2B 1_555 1_555
O7B C22B 1_555 1_555
C11B C5B 1_555 1_555
N4B Ni2B 1_555 1_555
H8B N4B 1_555 1_555
H9B N4B 1_555 1_555
C12B C15B 1_555 1_555
C13B C23B 1_555 1_555
C14B N1B 1_555 1_555
H10B C14B 1_555 1_555
C15B H11B 1_555 1_555
C16B C3B 1_555 1_555
H12B C16B 1_555 1_555
C17B N3B 1_555 1_555
H13B C17B 1_555 1_555
H14B C17B 1_555 1_555
C18B N2B 1_555 1_555
H15B C18B 1_555 1_555
H16B C18B 1_555 1_555
C19B C25 1_555 1_555
H17B C19B 1_555 1_555
C20B C17B 1_555 1_555
H18B C20B 1_555 1_555
H19B C20B 1_555 1_555
C21B C2B 1_555 1_555
C22B C4B 1_555 1_555
C23B C15B 1_555 1_555
H20B C23B 1_555 1_555
C24B C13B 1_555 1_555
H21B C24B 1_555 1_555
C25B C19 1_555 1_555
H22B C25B 1_555 1_555
C26B N4B 1_555 1_555
H23B C26B 1_555 1_555
H24B C26B 1_555 1_555
C27B N1B 1_555 1_555
H25B C27B 1_555 1_555
H26B C27B 1_555 1_555
C28B C26B 1_555 1_555
H27B C28B 1_555 1_555
H28B C28B 1_555 1_555
Ni2 O2 1_555 1_555
C1 C10 1_555 1_555
C1 C14 1_555 1_555
O6 C9 1_555 1_555
C3 C10 1_555 1_555
C4 C22 1_555 1_555
C7 C9 1_555 1_555
C11 C16 1_555 1_555
C12 C21 1_555 1_555
C18 C20 1_555 1_555
C21 C24 1_555 1_555
C27 C28 1_555 1_555
Ni2B O2B 1_555 1_555
C1B C10B 1_555 1_555
C1B C14B 1_555 1_555
O6B C9B 1_555 1_555
C3B C10B 1_555 1_555
C4B C25B 1_555 1_555
C7B C8B 1_555 1_555
C7B C9B 1_555 1_555
C11B C16B 1_555 1_555
C12B C21B 1_555 1_555
C18B C20B 1_555 1_555
C21B C24B 1_555 1_555
C27B C28B 1_555 1_555

#END
