
#######################################################################
#
#                 Cambridge Crystallographic Data Centre
#                                CCDC 
#
#######################################################################
#
# If this CIF has been generated from an entry in the Cambridge 
# Structural Database, then it will include bibliographic, chemical, 
# crystal, experimental, refinement or atomic coordinate data resulting 
# from the CCDC's data processing and validation procedures.
#
#######################################################################

data_KIVSUE
_symmetry_cell_setting           monoclinic
_symmetry_space_group_name_H-M   'P 21/c'
_symmetry_Int_Tables_number      14
_space_group_name_Hall           '-P 2ybc'
loop_
_symmetry_equiv_pos_site_id
_symmetry_equiv_pos_as_xyz
1 x,y,z
2 -x,1/2+y,1/2-z
3 -x,-y,-z
4 x,1/2-y,1/2+z
_cell_length_a                   10.204(2)
_cell_length_b                   21.706(4)
_cell_length_c                   8.0562(16)
_cell_angle_alpha                90
_cell_angle_beta                 110.33(3)
_cell_angle_gamma                90
_cell_volume                     1673.2
loop_
_atom_site_label
_atom_site_type_symbol
_atom_site_fract_x
_atom_site_fract_y
_atom_site_fract_z
Ag1 Ag 0.50176(5) 0.93345(2) 0.78549(7)
Ni1 Ni 1.00820(6) 0.92252(3) 1.27294(9)
Br1 Br 0.45830(7) 0.71623(3) 1.35589(12)
N1 N 1.0146(5) 0.8288(2) 1.2506(6)
N2 N 1.1207(5) 0.9394(2) 1.1069(6)
H1 H 1.0588 0.9454 0.9971
H2 H 1.1672 0.9750 1.1414
N3 N 0.8167(5) 0.9283(2) 1.0584(7)
N4 N 0.1964(5) 0.9278(2) 0.4893(7)
O1 O 0.8924(4) 0.91316(16) 1.4293(5)
O2 O 0.9847(4) 1.02062(18) 1.2894(6)
H3 H 0.901(2) 1.022(3) 1.276(9)
H4 H 1.027(6) 1.042(3) 1.377(5)
C1 C 0.7994(6) 0.8694(2) 1.4100(7)
C2 C 0.8092(5) 0.8110(2) 1.3358(7)
C3 C 0.9188(6) 0.7934(2) 1.2707(8)
H5 H 0.9211 0.7523 1.2397
C4 C 1.1228(7) 0.7991(3) 1.1995(10)
H6 H 1.0946 0.7570 1.1651
H7 H 1.2082 0.7976 1.3019
C5 C 1.1538(8) 0.8305(3) 1.0489(10)
H8 H 1.2140 0.8039 1.0104
H9 H 1.0669 0.8353 0.9501
C6 C 1.2226(6) 0.8928(3) 1.0942(9)
H10 H 1.2996 0.8904 1.2062
H11 H 1.2600 0.9051 1.0037
C7 C 0.7044(6) 0.9322(3) 0.9623(9)
C8 C 0.3032(6) 0.9315(3) 0.5979(9)
C9 C 0.6826(6) 0.8794(3) 1.4635(8)
H12 H 0.6728 0.9176 1.5105
C10 C 0.5838(6) 0.8353(2) 1.4487(8)
H13 H 0.5087 0.8435 1.4856
C11 C 0.5959(6) 0.7784(2) 1.3786(8)
C12 C 0.7065(6) 0.7657(2) 1.3248(8)
H14 H 0.7143 0.7269 1.2804
Ni1_2 Ni 0.00820(6) 0.92252(3) 0.27294(9)
N4_2 N 1.1964(5) 0.9278(2) 1.4893(7)
loop_
_geom_bond_atom_site_label_1
_geom_bond_atom_site_label_2
_geom_bond_site_symmetry_1
_geom_bond_site_symmetry_2
Ag1 C7 1_555 1_555
Ni1 N1 1_555 1_555
Br1 C11 1_555 1_555
N1 C3 1_555 1_555
N2 Ni1 1_555 1_555
H1 N2 1_555 1_555
H2 N2 1_555 1_555
N3 Ni1 1_555 1_555
N4 C8 1_555 1_555
O1 Ni1 1_555 1_555
O2 Ni1 1_555 1_555
H3 O2 1_555 1_555
H4 O2 1_555 1_555
C1 O1 1_555 1_555
C2 C1 1_555 1_555
C3 C2 1_555 1_555
H5 C3 1_555 1_555
C4 N1 1_555 1_555
H6 C4 1_555 1_555
H7 C4 1_555 1_555
C5 C4 1_555 1_555
H8 C5 1_555 1_555
H9 C5 1_555 1_555
C6 N2 1_555 1_555
H10 C6 1_555 1_555
H11 C6 1_555 1_555
C7 N3 1_555 1_555
C8 Ag1 1_555 1_555
C9 C1 1_555 1_555
H12 C9 1_555 1_555
C10 C9 1_555 1_555
H13 C10 1_555 1_555
C11 C10 1_555 1_555
C12 C2 1_555 1_555
H14 C12 1_555 1_555
Ni1_2 N4 1_555 1_555
N4_2 Ni1 1_555 1_555
C5 C6 1_555 1_555
C11 C12 1_555 1_555

#END
