
#######################################################################
#
#                 Cambridge Crystallographic Data Centre
#                                CCDC 
#
#######################################################################
#
# If this CIF has been generated from an entry in the Cambridge 
# Structural Database, then it will include bibliographic, chemical, 
# crystal, experimental, refinement or atomic coordinate data resulting 
# from the CCDC's data processing and validation procedures.
#
#######################################################################

data_KIVTAL
_symmetry_cell_setting           triclinic
_symmetry_space_group_name_H-M   'P -1'
_symmetry_Int_Tables_number      2
_space_group_name_Hall           '-P 1'
loop_
_symmetry_equiv_pos_site_id
_symmetry_equiv_pos_as_xyz
1 x,y,z
2 -x,-y,-z
_cell_length_a                   8.2964(3)
_cell_length_b                   10.4145(5)
_cell_length_c                   11.3805(5)
_cell_angle_alpha                96.918(4)
_cell_angle_beta                 102.963(4)
_cell_angle_gamma                96.348(4)
_cell_volume                     941.602
loop_
_atom_site_label
_atom_site_type_symbol
_atom_site_fract_x
_atom_site_fract_y
_atom_site_fract_z
Ag1 Ag 0.09275(3) 0.371007(19) 0.35348(2)
Br1 Br -0.58490(4) 0.34513(3) 0.21512(3)
Ni1 Ni 0.09941(4) 0.86994(3) 0.33478(3)
O1 O -0.1302(2) 0.85718(17) 0.37108(17)
O2 O 0.2323(3) 0.95004(18) 0.51446(16)
N1 N -0.0208(3) 0.7968(2) 0.1581(2)
N2 N 0.3331(3) 0.8768(2) 0.2940(2)
H1 H 0.4040 0.9380 0.3500
H2 H 0.3688 0.7995 0.3046
N3 N 0.1185(3) 0.6814(2) 0.3750(2)
N4 N 0.0870(3) 0.0613(2) 0.3090(2)
C1 C -0.2339(4) 0.7489(3) 0.3323(2)
C2 C -0.3454(4) 0.7064(3) 0.4012(2)
H3 H -0.3492 0.7594 0.4721
C3 C -0.4491(4) 0.5887(3) 0.3667(3)
H4 H -0.5200 0.5621 0.4147
C4 C -0.4468(4) 0.5101(3) 0.2599(3)
C5 C -0.3502(4) 0.5516(3) 0.1853(3)
H5 H -0.3558 0.5002 0.1114
C6 C -0.2432(3) 0.6704(3) 0.2186(2)
C7 C -0.1502(4) 0.7111(3) 0.1322(2)
H6 H -0.1884 0.6713 0.0515
C8 C 0.0474(4) 0.8360(3) 0.0582(3)
H7 H 0.0404 0.9281 0.0559
H8 H -0.0217 0.7878 -0.0180
C9 C 0.2294(4) 0.8137(3) 0.0668(3)
C10 C 0.2733(4) 0.8492(4) -0.0505(3)
H9 H 0.3855 0.8340 -0.0499
H10 H 0.2644 0.9397 -0.0550
H11 H 0.1973 0.7961 -0.1199
C11 C 0.2458(4) 0.6702(3) 0.0762(3)
H12 H 0.2177 0.6487 0.1496
H13 H 0.3586 0.6560 0.0781
H14 H 0.1712 0.6157 0.0070
C12 C 0.3505(4) 0.9037(3) 0.1733(3)
H15 H 0.4638 0.8956 0.1673
H16 H 0.3332 0.9933 0.1662
C13 C 0.1084(4) 0.5706(3) 0.3745(3)
C14 C 0.0813(4) 0.1710(3) 0.3185(3)
C15 C 0.2987(4) 0.8735(3) 0.6055(3)
H17 H 0.2169 0.8001 0.6041
H18 H 0.3262 0.9262 0.6844
H19 H 0.3975 0.8428 0.5891
Ni1_2 Ni 0.09941(4) -0.13006(3) 0.33478(3)
N4_2 N 0.0870(3) 1.0613(2) 0.3090(2)
loop_
_geom_bond_atom_site_label_1
_geom_bond_atom_site_label_2
_geom_bond_site_symmetry_1
_geom_bond_site_symmetry_2
Ag1 C13 1_555 1_555
Br1 C4 1_555 1_555
Ni1 O1 1_555 1_555
O1 C1 1_555 1_555
O2 Ni1 1_555 1_555
N1 Ni1 1_555 1_555
N2 Ni1 1_555 1_555
H1 N2 1_555 1_555
H2 N2 1_555 1_555
N3 Ni1 1_555 1_555
N4 C14 1_555 1_555
C1 C2 1_555 1_555
C2 H3 1_555 1_555
C3 C2 1_555 1_555
H4 C3 1_555 1_555
C4 C3 1_555 1_555
C5 C4 1_555 1_555
H5 C5 1_555 1_555
C6 C1 1_555 1_555
C7 N1 1_555 1_555
H6 C7 1_555 1_555
C8 N1 1_555 1_555
H7 C8 1_555 1_555
H8 C8 1_555 1_555
C9 C8 1_555 1_555
C10 C9 1_555 1_555
H9 C10 1_555 1_555
H10 C10 1_555 1_555
H11 C10 1_555 1_555
C11 C9 1_555 1_555
H12 C11 1_555 1_555
H13 C11 1_555 1_555
H14 C11 1_555 1_555
C12 N2 1_555 1_555
H15 C12 1_555 1_555
H16 C12 1_555 1_555
C13 N3 1_555 1_555
C14 Ag1 1_555 1_555
C15 O2 1_555 1_555
H17 C15 1_555 1_555
H18 C15 1_555 1_555
H19 C15 1_555 1_555
Ni1_2 N4 1_555 1_555
N4_2 Ni1 1_555 1_555
C5 C6 1_555 1_555
C6 C7 1_555 1_555
C9 C12 1_555 1_555

#END
