
#######################################################################
#
#                 Cambridge Crystallographic Data Centre
#                                CCDC 
#
#######################################################################
#
# If this CIF has been generated from an entry in the Cambridge 
# Structural Database, then it will include bibliographic, chemical, 
# crystal, experimental, refinement or atomic coordinate data resulting 
# from the CCDC's data processing and validation procedures.
#
#######################################################################

data_KIVVUH
_symmetry_cell_setting           monoclinic
_symmetry_space_group_name_H-M   'P 21/n'
_symmetry_Int_Tables_number      14
_space_group_name_Hall           '-P 2yn'
loop_
_symmetry_equiv_pos_site_id
_symmetry_equiv_pos_as_xyz
1 x,y,z
2 1/2-x,1/2+y,1/2-z
3 -x,-y,-z
4 1/2+x,1/2-y,1/2+z
_cell_length_a                   8.8931(12)
_cell_length_b                   8.1700(11)
_cell_length_c                   17.816(2)
_cell_angle_alpha                90
_cell_angle_beta                 103.040(3)
_cell_angle_gamma                90
_cell_volume                     1261.07
loop_
_atom_site_label
_atom_site_type_symbol
_atom_site_fract_x
_atom_site_fract_y
_atom_site_fract_z
Cu1 Cu 0.83780(6) 0.02891(5) 0.19124(2)
C1 C 0.6610(4) 0.1258(4) 0.0255(2)
H1 H 0.5729 0.0904 0.0406
C2 C 0.6431(4) 0.1905(4) -0.0482(2)
H2 H 0.5469 0.1929 -0.0822
C3 C 0.7704(4) 0.2503(4) -0.06904(18)
H3 H 0.7617 0.2959 -0.1177
C4 C 0.9134(4) 0.2434(4) -0.01785(16)
C5 C 1.0531(3) 0.3136(3) -0.03399(15)
C6 C 1.1689(4) 0.4628(4) -0.11175(18)
H4 H 1.1651 0.5225 -0.1566
C7 C 1.3088(4) 0.4433(4) -0.06061(19)
H5 H 1.3960 0.4896 -0.0726
C8 C 1.1939(3) 0.2971(4) 0.01897(16)
C9 C 1.2036(4) 0.2117(4) 0.09158(16)
C10 C 1.3412(4) 0.1916(4) 0.14611(18)
H6 H 1.4333 0.2324 0.1372
C11 C 1.3389(5) 0.1114(5) 0.21271(19)
H7 H 1.4301 0.0952 0.2495
C12 C 1.2015(5) 0.0543(5) 0.22544(19)
H8 H 1.2031 -0.0008 0.2713
C13 C 1.0678(4) 0.1508(4) 0.10833(16)
C14 C 0.9223(4) 0.1681(4) 0.05401(16)
C15 C 0.7617(4) -0.1661(4) 0.22569(19)
N1 N 0.7945(3) 0.1113(3) 0.07523(14)
N2 N 1.0659(4) 0.0733(3) 0.17578(14)
N3 N 1.0397(3) 0.3998(3) -0.09947(13)
N4 N 1.3248(3) 0.3617(3) 0.00466(15)
N5 N 0.7126(4) -0.2724(3) 0.25326(16)
Cu1A Cu 0.66220(6) -0.47109(5) 0.30876(2)
N5A N 0.7874(4) 0.2276(3) 0.24674(16)
loop_
_geom_bond_atom_site_label_1
_geom_bond_atom_site_label_2
_geom_bond_site_symmetry_1
_geom_bond_site_symmetry_2
Cu1 C15 1_555 1_555
C1 H1 1_555 1_555
C2 C1 1_555 1_555
H2 C2 1_555 1_555
C3 C2 1_555 1_555
H3 C3 1_555 1_555
C4 C3 1_555 1_555
C5 C4 1_555 1_555
C6 H4 1_555 1_555
C7 C6 1_555 1_555
H5 C7 1_555 1_555
C8 C5 1_555 1_555
C9 C8 1_555 1_555
C10 C9 1_555 1_555
H6 C10 1_555 1_555
C11 C10 1_555 1_555
H7 C11 1_555 1_555
C12 C11 1_555 1_555
H8 C12 1_555 1_555
C13 C9 1_555 1_555
C14 C4 1_555 1_555
C15 N5 1_555 1_555
N1 Cu1 1_555 1_555
N2 Cu1 1_555 1_555
N3 C5 1_555 1_555
N4 C7 1_555 1_555
N5 Cu1A 1_555 1_555
N5A Cu1 1_555 1_555
C1 N1 1_555 1_555
C6 N3 1_555 1_555
C8 N4 1_555 1_555
C12 N2 1_555 1_555
C13 C14 1_555 1_555
C13 N2 1_555 1_555
C14 N1 1_555 1_555

#END
