
#######################################################################
#
#                 Cambridge Crystallographic Data Centre
#                                CCDC 
#
#######################################################################
#
# If this CIF has been generated from an entry in the Cambridge 
# Structural Database, then it will include bibliographic, chemical, 
# crystal, experimental, refinement or atomic coordinate data resulting 
# from the CCDC's data processing and validation procedures.
#
#######################################################################

data_KIVWET
_symmetry_cell_setting           monoclinic
_symmetry_space_group_name_H-M   'P 2/c'
_symmetry_Int_Tables_number      13
_space_group_name_Hall           '-P 2yc'
loop_
_symmetry_equiv_pos_site_id
_symmetry_equiv_pos_as_xyz
1 x,y,z
2 -x,y,1/2-z
3 -x,-y,-z
4 x,-y,1/2+z
_cell_length_a                   15.40(2)
_cell_length_b                   6.960(10)
_cell_length_c                   7.865(11)
_cell_angle_alpha                90
_cell_angle_beta                 90.32(3)
_cell_angle_gamma                90
_cell_volume                     842.989
loop_
_atom_site_label
_atom_site_type_symbol
_atom_site_fract_x
_atom_site_fract_y
_atom_site_fract_z
C1 C 0.5000 0.7515(10) 0.7500
H1 H 0.5000 0.8851 0.7500
C2 C 0.5662(3) 0.6536(7) 0.8117(7)
H2 H 0.6118 0.7232 0.8594
C3 C 0.5736(3) 0.4512(7) 0.8113(7)
C4 C 0.5000 0.3508(9) 0.7500
H3 H 0.5000 0.2172 0.7500
C5 C 0.6433(3) 0.3406(7) 0.9057(6)
C6 C 0.7740(3) 0.3522(8) 1.0907(7)
H4 H 0.7496 0.2505 1.1599
H5 H 0.7967 0.4502 1.1666
C7 C 0.8493(3) 0.2695(7) 0.9836(6)
N1 N 0.7047(3) 0.4365(6) 0.9831(5)
Ni1 Ni 1.0000 0.0000 1.0000
O1 O 0.9050(2) 0.1846(5) 1.0733(5)
O2 O 0.8509(2) 0.2713(5) 0.8244(4)
O3 O 0.64227(19) 0.1603(5) 0.9075(4)
O4 O 1.0000 0.1201(6) 0.7500
H6 H 1.0439 0.1940 0.7505
O5 O 1.09186(19) 0.1973(4) 1.0712(4)
H7 H 1.1050 0.1791 1.1750
H8 H 1.1368 0.1831 1.0103
C2A C 0.4338(3) 0.6536(7) 0.6883(7)
H2A H 0.3882 0.7232 0.6406
C3A C 0.4264(3) 0.4512(7) 0.6887(7)
C5A C 0.3567(3) 0.3406(7) 0.5943(6)
C6A C 0.2260(3) 0.3522(8) 0.4093(7)
H4A H 0.2504 0.2505 0.3401
H5A H 0.2033 0.4502 0.3334
C7A C 0.1507(3) 0.2695(7) 0.5164(6)
N1A N 0.2953(3) 0.4365(6) 0.5169(5)
O1A O 0.0950(2) 0.1846(5) 0.4267(5)
O2A O 0.1491(2) 0.2713(5) 0.6756(4)
O3A O 0.35773(19) 0.1603(5) 0.5925(4)
H6A H 0.9561 0.1940 0.7495
O5B O 0.90814(19) -0.1973(4) 0.9288(4)
H7B H 0.8950 -0.1791 0.8250
H8B H 0.8632 -0.1831 0.9897
Ni1A Ni 0.0000 0.0000 0.5000
Ni1A_2 Ni 1.0000 0.0000 0.5000
O1B O 1.0950(2) -0.1846(5) 0.9267(5)
O4B O 1.0000 -0.1201(6) 1.2500
O6 O 0.74257(19) 0.8536(4) 0.0389(4)
H9 H 0.7327 0.7841 0.1256
H10 H 0.6986 0.9239 0.0186
loop_
_geom_bond_atom_site_label_1
_geom_bond_atom_site_label_2
_geom_bond_site_symmetry_1
_geom_bond_site_symmetry_2
C1 H1 1_555 1_555
C2 C1 1_555 1_555
H2 C2 1_555 1_555
C3 C2 1_555 1_555
C4 C3 1_555 1_555
H3 C4 1_555 1_555
C5 C3 1_555 1_555
C6 H4 1_555 1_555
H5 C6 1_555 1_555
C7 C6 1_555 1_555
N1 C5 1_555 1_555
Ni1 O1 1_555 1_555
O1 C7 1_555 1_555
O2 C7 1_555 1_555
O3 C5 1_555 1_555
O4 Ni1 1_555 1_555
H6 O4 1_555 1_555
O5 Ni1 1_555 1_555
H7 O5 1_555 1_555
H8 O5 1_555 1_555
O6 H9 1_555 1_555
H10 O6 1_555 1_555
C2A C1 1_555 1_555
H2A C2A 1_555 1_555
C3A C4 1_555 1_555
C5A C3A 1_555 1_555
C6A H4A 1_555 1_555
H5A C6A 1_555 1_555
C7A C6A 1_555 1_555
N1A C5A 1_555 1_555
O1A C7A 1_555 1_555
O2A C7A 1_555 1_555
O3A C5A 1_555 1_555
H6A O4 1_555 1_555
O5B Ni1 1_555 1_555
H7B O5B 1_555 1_555
H8B O5B 1_555 1_555
Ni1A O1A 1_555 1_555
Ni1A_2 O4 1_555 1_555
O1B Ni1 1_555 1_555
O4B Ni1 1_555 1_555
C6 N1 1_555 1_555
C2A C3A 1_555 1_555
C6A N1A 1_555 1_555

#END
