
#######################################################################
#
#                 Cambridge Crystallographic Data Centre
#                                CCDC 
#
#######################################################################
#
# If this CIF has been generated from an entry in the Cambridge 
# Structural Database, then it will include bibliographic, chemical, 
# crystal, experimental, refinement or atomic coordinate data resulting 
# from the CCDC's data processing and validation procedures.
#
#######################################################################

data_KIVWOD
_symmetry_cell_setting           monoclinic
_symmetry_space_group_name_H-M   'C 2/c'
_symmetry_Int_Tables_number      15
_space_group_name_Hall           '-C 2yn'
loop_
_symmetry_equiv_pos_site_id
_symmetry_equiv_pos_as_xyz
1 x,y,z
2 -x,y,1/2-z
3 1/2+x,1/2+y,z
4 1/2-x,1/2+y,1/2-z
5 -x,-y,-z
6 x,-y,1/2+z
7 1/2-x,1/2-y,-z
8 1/2+x,1/2-y,1/2+z
_cell_length_a                   15.738(3)
_cell_length_b                   8.6356(15)
_cell_length_c                   12.839(2)
_cell_angle_alpha                90
_cell_angle_beta                 105.369(2)
_cell_angle_gamma                90
_cell_volume                     1682.51
loop_
_atom_site_label
_atom_site_type_symbol
_atom_site_fract_x
_atom_site_fract_y
_atom_site_fract_z
Mn1 Mn 0.0000 0.0000 0.0000
S1 S 0.0000 0.64765(13) -0.2500
O1 O 0.04366(13) 0.1086(2) -0.13076(15)
O2 O -0.04143(14) 0.2358(2) -0.04959(15)
N1 N 0.11280(16) 0.0864(3) 0.11020(18)
N2 N 0.21350(16) 0.1208(3) 0.26453(18)
C1 C -0.0068(2) 0.5106(4) -0.1574(2)
H1 H -0.0121 0.5335 -0.0886
C2 C -0.00373(19) 0.3630(3) -0.1951(2)
C3 C -0.00063(19) 0.2273(3) -0.1222(2)
C4 C 0.1806(2) 0.1741(4) 0.0926(3)
H2 H 0.1832 0.2133 0.0260
C5 C 0.2431(2) 0.1945(4) 0.1868(3)
H3 H 0.2959 0.2483 0.1967
C6 C 0.13523(19) 0.0577(3) 0.2152(2)
H4 H 0.1010 0.0008 0.2505
C7 C 0.2553(2) 0.1180(4) 0.3812(2)
H5 H 0.3188 0.1196 0.3932
H6 H 0.2399 0.0222 0.4111
C8 C 0.2281(2) 0.2527(4) 0.4398(2)
H7 H 0.1646 0.2514 0.4280
H8 H 0.2438 0.3487 0.4103
O1A O -0.04366(13) 0.1086(2) -0.36924(15)
O2A O 0.04143(14) 0.2358(2) -0.45041(15)
C1A C 0.0068(2) 0.5106(4) -0.3426(2)
H1A H 0.0121 0.5335 -0.4114
C2A C 0.00373(19) 0.3630(3) -0.3049(2)
C3A C 0.00063(19) 0.2273(3) -0.3778(2)
N1F N 0.38720(16) 0.4136(3) 0.88980(18)
N2F N 0.28650(16) 0.3792(3) 0.73547(18)
C4F C 0.3194(2) 0.3259(4) 0.9074(3)
H2F H 0.3168 0.2867 0.9740
C5F C 0.2569(2) 0.3055(4) 0.8132(3)
H3F H 0.2041 0.2517 0.8033
C6F C 0.36477(19) 0.4423(3) 0.7848(2)
H4F H 0.3990 0.4992 0.7495
C7F C 0.2447(2) 0.3820(4) 0.6188(2)
H5F H 0.1812 0.3804 0.6068
H6F H 0.2601 0.4778 0.5889
C8F C 0.2719(2) 0.2473(4) 0.5602(2)
H7F H 0.3354 0.2486 0.5720
H8F H 0.2562 0.1513 0.5897
Mn1A Mn 0.0000 0.0000 -0.5000
Mn1B Mn 0.5000 0.5000 1.0000
O1D O -0.04366(13) -0.1086(2) 0.13076(15)
O2D O 0.04143(14) -0.2358(2) 0.04959(15)
N1D N -0.11280(16) -0.0864(3) -0.11020(18)
loop_
_geom_bond_atom_site_label_1
_geom_bond_atom_site_label_2
_geom_bond_site_symmetry_1
_geom_bond_site_symmetry_2
Mn1 O1 1_555 1_555
S1 C1 1_555 1_555
O1 C3 1_555 1_555
O2 Mn1 1_555 1_555
N1 Mn1 1_555 1_555
N2 C5 1_555 1_555
C1 H1 1_555 1_555
C2 C1 1_555 1_555
C3 O2 1_555 1_555
C4 N1 1_555 1_555
H2 C4 1_555 1_555
C5 C4 1_555 1_555
H3 C5 1_555 1_555
C6 N1 1_555 1_555
H4 C6 1_555 1_555
C7 N2 1_555 1_555
H5 C7 1_555 1_555
H6 C7 1_555 1_555
C8 C7 1_555 1_555
H7 C8 1_555 1_555
H8 C8 1_555 1_555
O1A C3A 1_555 1_555
O2A C3A 1_555 1_555
C1A S1 1_555 1_555
H1A C1A 1_555 1_555
C2A C2 1_555 1_555
C3A C2A 1_555 1_555
N1F C4F 1_555 1_555
N2F C5F 1_555 1_555
C4F H2F 1_555 1_555
C5F C4F 1_555 1_555
H3F C5F 1_555 1_555
C6F N1F 1_555 1_555
H4F C6F 1_555 1_555
C7F N2F 1_555 1_555
H5F C7F 1_555 1_555
H6F C7F 1_555 1_555
C8F C8 1_555 1_555
H7F C8F 1_555 1_555
H8F C8F 1_555 1_555
Mn1A O1A 1_555 1_555
Mn1B N1F 1_555 1_555
O1D Mn1 1_555 1_555
O2D Mn1 1_555 1_555
N1D Mn1 1_555 1_555
N2 C6 1_555 1_555
C2 C3 1_555 1_555
O2A Mn1A 1_555 1_555
C1A C2A 1_555 1_555
N2F C6F 1_555 1_555
C7F C8F 1_555 1_555

#END
