
#######################################################################
#
#                 Cambridge Crystallographic Data Centre
#                                CCDC 
#
#######################################################################
#
# If this CIF has been generated from an entry in the Cambridge 
# Structural Database, then it will include bibliographic, chemical, 
# crystal, experimental, refinement or atomic coordinate data resulting 
# from the CCDC's data processing and validation procedures.
#
#######################################################################

data_KIVXAQ
_symmetry_cell_setting           monoclinic
_symmetry_space_group_name_H-M   'P 21/m'
_symmetry_Int_Tables_number      11
_space_group_name_Hall           '-P 2yb'
loop_
_symmetry_equiv_pos_site_id
_symmetry_equiv_pos_as_xyz
1 x,y,z
2 -x,1/2+y,-z
3 -x,-y,-z
4 x,1/2-y,z
_cell_length_a                   7.5456(9)
_cell_length_b                   18.294(2)
_cell_length_c                   11.4517(14)
_cell_angle_alpha                90
_cell_angle_beta                 102.0820(10)
_cell_angle_gamma                90
_cell_volume                     1545.77
loop_
_atom_site_label
_atom_site_type_symbol
_atom_site_fract_x
_atom_site_fract_y
_atom_site_fract_z
Ag1 Ag 0.25444(3) 0.522494(10) 0.975245(15)
S1 S 1.00494(13) 0.7500 1.05767(12)
O1 O 0.5472(3) 0.59279(9) 0.99988(19)
O2 O 0.3546(2) 0.68429(9) 0.97384(17)
H1 H 0.3052 0.6737 1.0289
N1 N 0.2254(3) 0.51751(11) 0.78184(17)
N2 N 0.2442(3) 0.52187(11) 0.16354(18)
C1 C 0.2455(4) 0.58344(14) 0.2267(2)
H2 H 0.2475 0.6278 0.1873
C2 C 0.8445(3) 0.68347(14) 1.0363(2)
H3 H 0.8710 0.6338 1.0398
C3 C 0.6723(3) 0.71085(12) 1.01345(19)
C4 C 0.5159(3) 0.65909(12) 0.9955(2)
C5 C 0.2119(4) 0.57968(14) 0.7193(2)
H4 H 0.1974 0.6233 0.7580
C6 C 0.2185(3) 0.58214(13) 0.6002(2)
H5 H 0.2088 0.6268 0.5607
C7 C 0.2395(3) 0.51854(12) 0.53842(19)
C8 C 0.2532(4) 0.45395(14) 0.6044(2)
H6 H 0.2677 0.4096 0.5677
C9 C 0.2455(4) 0.45540(14) 0.7233(2)
H7 H 0.2546 0.4115 0.7650
C10 C 0.2452(3) 0.51962(12) 0.4096(2)
C11 C 0.2507(4) 0.45556(14) 0.3448(2)
H8 H 0.2554 0.4104 0.3827
C12 C 0.2492(4) 0.45915(15) 0.2248(2)
H9 H 0.2518 0.4155 0.1835
C13 C 0.2442(4) 0.58475(13) 0.3464(2)
H10 H 0.2427 0.6293 0.3854
O1C O 0.5472(3) 0.90721(9) 0.99988(19)
O2C O 0.3546(2) 0.81571(9) 0.97384(17)
H1C H 0.3052 0.8263 1.0289
C2C C 0.8445(3) 0.81653(14) 1.0363(2)
H3C H 0.8710 0.8662 1.0398
C3C C 0.6723(3) 0.78915(12) 1.01345(19)
C4C C 0.5159(3) 0.84091(12) 0.9955(2)
Ag1B Ag 0.74556(3) 0.477506(10) 1.024755(15)
N1B N 0.7746(3) 0.48249(11) 1.21816(17)
N2B N 0.7558(3) 0.47813(11) 1.83646(18)
C1B C 0.7545(4) 0.41656(14) 1.7733(2)
H2B H 0.7525 0.3722 1.8127
C5B C 0.7881(4) 0.42032(14) 1.2807(2)
H4B H 0.8026 0.3767 1.2420
C6B C 0.7815(3) 0.41786(13) 1.3998(2)
H5B H 0.7912 0.3732 1.4393
C7B C 0.7605(3) 0.48146(12) 1.46158(19)
C8B C 0.7468(4) 0.54605(14) 1.3956(2)
H6B H 0.7323 0.5904 1.4323
C9B C 0.7545(4) 0.54460(14) 1.2767(2)
H7B H 0.7454 0.5885 1.2350
C10B C 0.7548(3) 0.48038(12) 1.5904(2)
C11B C 0.7493(4) 0.54444(14) 1.6552(2)
H8B H 0.7446 0.5896 1.6173
C12B C 0.7508(4) 0.54085(15) 1.7752(2)
H9B H 0.7482 0.5845 1.8165
C13B C 0.7558(4) 0.41525(13) 1.6536(2)
H10B H 0.7573 0.3707 1.6146
Ag1_2 Ag 0.25444(3) 0.522494(10) -0.024755(15)
Ag1A Ag 0.74556(3) 1.022494(10) 1.024755(15)
Ag1B_2 Ag 0.74556(3) 0.477506(10) 2.024755(15)
Ag1C Ag 0.25444(3) 0.977506(10) 0.975245(15)
O1B O 0.4528(3) 0.40721(9) 1.00012(19)
N2_2 N 0.2442(3) 0.52187(11) 1.16354(18)
N2B_2 N 0.7558(3) 0.47813(11) 0.83646(18)
S2 S 0.45550(14) 0.2500 0.30334(9)
O3 O 0.2535(5) 0.2500 0.6891(3)
O4 O 0.5513(5) 0.2500 0.7006(3)
O5 O -0.0247(4) 0.2500 0.5395(3)
O6 O -0.1188(3) 0.2500 0.3434(3)
C14 C 0.2303(5) 0.2500 0.3058(3)
H11 H 0.1390 0.2500 0.2372
C15 C 0.1976(5) 0.2500 0.4179(3)
C16 C 0.0030(5) 0.2500 0.4335(4)
C17 C 0.3655(5) 0.2500 0.5073(3)
C18 C 0.3973(6) 0.2500 0.6419(3)
C19 C 0.5123(5) 0.2500 0.4550(3)
H12 H 0.6314 0.2500 0.4981
loop_
_geom_bond_atom_site_label_1
_geom_bond_atom_site_label_2
_geom_bond_site_symmetry_1
_geom_bond_site_symmetry_2
Ag1 O1 1_555 1_555
S1 C2 1_555 1_555
O1 C4 1_555 1_555
O2 H1 1_555 1_555
N1 Ag1 1_555 1_555
N2 C1 1_555 1_555
C1 H2 1_555 1_555
C2 H3 1_555 1_555
C3 C2 1_555 1_555
C4 O2 1_555 1_555
C5 N1 1_555 1_555
H4 C5 1_555 1_555
C6 C5 1_555 1_555
H5 C6 1_555 1_555
C7 C6 1_555 1_555
C8 C7 1_555 1_555
H6 C8 1_555 1_555
C9 N1 1_555 1_555
H7 C9 1_555 1_555
C10 C7 1_555 1_555
C11 C10 1_555 1_555
H8 C11 1_555 1_555
C12 N2 1_555 1_555
H9 C12 1_555 1_555
C13 C1 1_555 1_555
H10 C13 1_555 1_555
S2 C14 1_555 1_555
O3 C18 1_555 1_555
O4 C18 1_555 1_555
O5 C16 1_555 1_555
O6 C16 1_555 1_555
C14 H11 1_555 1_555
C15 C14 1_555 1_555
C16 C15 1_555 1_555
C17 C15 1_555 1_555
C18 C17 1_555 1_555
C19 S2 1_555 1_555
H12 C19 1_555 1_555
O1C C4C 1_555 1_555
O2C H1C 1_555 1_555
C2C S1 1_555 1_555
H3C C2C 1_555 1_555
C3C C3 1_555 1_555
C4C O2C 1_555 1_555
Ag1B O1 1_555 1_555
N1B Ag1B 1_555 1_555
N2B C1B 1_555 1_555
C1B H2B 1_555 1_555
C5B N1B 1_555 1_555
H4B C5B 1_555 1_555
C6B C5B 1_555 1_555
H5B C6B 1_555 1_555
C7B C6B 1_555 1_555
C8B C7B 1_555 1_555
H6B C8B 1_555 1_555
C9B N1B 1_555 1_555
H7B C9B 1_555 1_555
C10B C7B 1_555 1_555
C11B C10B 1_555 1_555
H8B C11B 1_555 1_555
C12B N2B 1_555 1_555
H9B C12B 1_555 1_555
C13B C1B 1_555 1_555
H10B C13B 1_555 1_555
Ag1_2 N2 1_555 1_555
Ag1A O1C 1_555 1_555
Ag1B_2 N2B 1_555 1_555
Ag1C O1C 1_555 1_555
O1B Ag1 1_555 1_555
N2_2 Ag1 1_555 1_555
N2B_2 Ag1B 1_555 1_555
C3 C4 1_555 1_555
C8 C9 1_555 1_555
C10 C13 1_555 1_555
C11 C12 1_555 1_555
C17 C19 1_555 1_555
C2C C3C 1_555 1_555
C3C C4C 1_555 1_555
Ag1B O1B 1_555 1_555
C8B C9B 1_555 1_555
C10B C13B 1_555 1_555
C11B C12B 1_555 1_555

#END
