
#######################################################################
#
#                 Cambridge Crystallographic Data Centre
#                                CCDC 
#
#######################################################################
#
# If this CIF has been generated from an entry in the Cambridge 
# Structural Database, then it will include bibliographic, chemical, 
# crystal, experimental, refinement or atomic coordinate data resulting 
# from the CCDC's data processing and validation procedures.
#
#######################################################################

data_KIVXUK
_symmetry_cell_setting           monoclinic
_symmetry_space_group_name_H-M   'P 21'
_symmetry_Int_Tables_number      4
_space_group_name_Hall           'P 2yb'
loop_
_symmetry_equiv_pos_site_id
_symmetry_equiv_pos_as_xyz
1 x,y,z
2 -x,1/2+y,-z
_cell_length_a                   13.303(2)
_cell_length_b                   10.4967(19)
_cell_length_c                   18.774(3)
_cell_angle_alpha                90
_cell_angle_beta                 93.366(2)
_cell_angle_gamma                90
_cell_volume                     2617.03
loop_
_atom_site_label
_atom_site_type_symbol
_atom_site_fract_x
_atom_site_fract_y
_atom_site_fract_z
C1 C 1.1812(5) 1.0283(6) 0.2001(3)
C2 C 1.2093(6) 0.9742(7) 0.1346(4)
H1 H 1.1601 0.9520 0.0996
C3 C 1.3073(6) 0.9554(8) 0.1237(5)
H2 H 1.3251 0.9244 0.0798
C4 C 1.3844(6) 0.9817(8) 0.1777(5)
H3 H 1.4516 0.9653 0.1700
C5 C 1.3573(6) 1.0310(8) 0.2404(4)
H4 H 1.4073 1.0490 0.2757
C6 C 1.2572(5) 1.0557(7) 0.2540(4)
C7 C 1.2384(6) 1.1157(7) 0.3211(4)
H5 H 1.2939 1.1208 0.3535
C8 C 1.1571(6) 1.2247(8) 0.4175(4)
C9 C 1.2591(6) 1.2038(10) 0.4595(4)
H6 H 1.2746 1.1145 0.4610
H7 H 1.2552 1.2355 0.5072
H8 H 1.3111 1.2486 0.4363
C10 C 1.0725(5) 1.1586(9) 0.4564(4)
H9 H 1.0599 1.0742 0.4368
H10 H 1.0915 1.1504 0.5068
C11 C 0.9792(7) 1.2409(10) 0.4454(4)
H11 H 0.9589 1.2737 0.4907
H12 H 0.9239 1.1921 0.4232
C12 C 1.0093(6) 1.3521(8) 0.3957(4)
H13 H 0.9773 1.4315 0.4100
C13 C 1.1233(6) 1.3617(8) 0.4094(4)
C14 C 1.1756(7) 1.4335(9) 0.3502(5)
H14 H 1.2470 1.4341 0.3610
H15 H 1.1511 1.5195 0.3474
H16 H 1.1611 1.3916 0.3053
C15 C 1.1447(9) 1.4361(12) 0.4807(5)
H17 H 1.2155 1.4335 0.4939
H18 H 1.1081 1.3974 0.5177
H19 H 1.1236 1.5230 0.4745
C16 C 0.9151(6) 1.3976(7) 0.2901(4)
H20 H 0.8976 1.4698 0.3152
C17 C 0.8666(6) 1.3845(8) 0.2184(4)
C18 C 0.8060(7) 1.4845(9) 0.1930(5)
H21 H 0.8016 1.5572 0.2209
C19 C 0.7538(8) 1.4802(10) 0.1299(5)
H22 H 0.7135 1.5482 0.1143
C20 C 0.7613(7) 1.3745(10) 0.0896(5)
H23 H 0.7249 1.3703 0.0458
C21 C 0.8204(6) 1.2737(9) 0.1109(5)
H24 H 0.8235 1.2025 0.0817
C22 C 0.8768(5) 1.2765(7) 0.1767(4)
C23 C 0.5999(5) 0.4033(8) 0.3021(4)
C24 C 0.6615(6) 0.3858(8) 0.3647(4)
H25 H 0.6719 0.4503 0.3983
C25 C 0.7070(7) 0.2648(11) 0.3738(5)
H26 H 0.7488 0.2517 0.4146
C26 C 0.6937(6) 0.1648(9) 0.3266(5)
H27 H 0.7237 0.0859 0.3352
C27 C 0.6331(6) 0.1885(8) 0.2657(5)
H28 H 0.6232 0.1236 0.2323
C28 C 0.5863(5) 0.3057(7) 0.2522(4)
C29 C 0.5239(6) 0.3171(7) 0.1868(4)
H29 H 0.5258 0.2467 0.1569
C30 C 0.4156(6) 0.3945(8) 0.0880(4)
C31 C 0.4414(7) 0.2680(8) 0.0516(4)
H30 H 0.5130 0.2556 0.0550
H31 H 0.4179 0.2707 0.0023
H32 H 0.4094 0.1988 0.0749
C32 C 0.4490(6) 0.5074(8) 0.0446(4)
H33 H 0.4550 0.4832 -0.0049
H34 H 0.5135 0.5394 0.0636
C33 C 0.3657(6) 0.6101(8) 0.0506(4)
H35 H 0.3949 0.6893 0.0687
H36 H 0.3321 0.6262 0.0042
C34 C 0.2913(6) 0.5585(8) 0.1018(3)
H37 H 0.2228 0.5845 0.0862
C35 C 0.3014(6) 0.4139(8) 0.0965(4)
C36 C 0.2601(6) 0.3408(8) 0.1576(4)
H38 H 0.2877 0.3748 0.2020
H39 H 0.2783 0.2526 0.1541
H40 H 0.1881 0.3484 0.1555
C37 C 0.2387(7) 0.3738(9) 0.0269(4)
H41 H 0.2487 0.2847 0.0181
H42 H 0.2605 0.4224 -0.0127
H43 H 0.1686 0.3897 0.0326
C38 C 0.2474(5) 0.6673(7) 0.2058(4)
H44 H 0.1877 0.6806 0.1785
C39 C 0.2511(5) 0.7192(6) 0.2757(3)
C40 C 0.1608(6) 0.7676(8) 0.3001(4)
H45 H 0.1032 0.7664 0.2696
C41 C 0.1547(6) 0.8172(8) 0.3682(4)
H46 H 0.0951 0.8522 0.3829
C42 C 0.2407(6) 0.8128(8) 0.4135(4)
H47 H 0.2377 0.8423 0.4601
C43 C 0.3292(6) 0.7665(7) 0.3918(4)
H48 H 0.3856 0.7673 0.4236
C44 C 0.3381(5) 0.7182(6) 0.3236(4)
C45 C 0.9064(5) 0.8997(10) 0.3238(4)
C46 C 0.7865(6) 0.7392(8) 0.3364(4)
C47 C 0.5110(9) 0.5697(10) 0.5029(5)
C48 C 0.4641(9) 0.4443(9) 0.5944(5)
C49 C 0.7328(6) 0.9344(8) 0.1575(4)
C50 C 0.6000(5) 0.7956(8) 0.1672(4)
C51 C 0.9953(6) 1.1082(8) -0.0095(5)
C52 C 1.0067(6) 1.2420(8) -0.1019(4)
Cu1 Cu 1.03346(6) 1.17082(9) 0.27891(4)
Cu2 Cu 0.95635(6) 1.01096(8) 0.15466(5)
Cu3 Cu 0.56425(6) 0.67756(9) 0.34593(4)
Cu4 Cu 0.44620(6) 0.55913(8) 0.22151(4)
N1 N 1.1567(4) 1.1632(6) 0.3429(3)
N2 N 0.9788(5) 1.3223(6) 0.3229(3)
N3 N 0.9392(5) 0.9945(8) 0.3221(4)
N4 N 0.8789(5) 0.7728(8) 0.3290(5)
N5 N 0.7114(5) 0.6922(8) 0.3432(4)
N6 N 0.8137(5) 0.9693(7) 0.1527(4)
N7 N 0.6356(5) 0.9084(8) 0.1564(5)
N8 N 0.5531(5) 0.7065(7) 0.1724(4)
N9 N 0.3159(4) 0.6041(5) 0.1751(3)
N10 N 0.4671(4) 0.4061(6) 0.1631(3)
N11 N 0.5364(5) 0.5993(7) 0.4508(4)
N12 N 0.5053(8) 0.5527(10) 0.5736(5)
N13 N 0.4438(5) 0.3582(7) 0.6244(4)
N14 N 0.9878(5) 1.0769(7) 0.0476(3)
N15 N 0.9991(8) 1.1283(8) -0.0779(4)
N16 N 1.0096(5) 1.3331(7) -0.1336(3)
O1 O 1.0839(3) 1.0491(5) 0.2113(2)
O2 O 0.9328(4) 1.1800(6) 0.1986(3)
O3 O 0.5561(4) 0.5203(4) 0.2902(3)
O4 O 0.4232(3) 0.6743(6) 0.3006(2)
Cu2A Cu 1.04365(6) 1.51096(8) -0.15466(5)
Cu3A Cu 0.43575(6) 0.17756(9) 0.65407(4)
N13A N 0.5562(5) 0.8582(7) 0.3756(4)
N16A N 0.9904(5) 0.8331(7) 0.1336(3)
loop_
_geom_bond_atom_site_label_1
_geom_bond_atom_site_label_2
_geom_bond_site_symmetry_1
_geom_bond_site_symmetry_2
C1 C2 1_555 1_555
C2 H1 1_555 1_555
C3 C2 1_555 1_555
H2 C3 1_555 1_555
C4 C3 1_555 1_555
H3 C4 1_555 1_555
C5 C4 1_555 1_555
H4 C5 1_555 1_555
C6 C1 1_555 1_555
C7 C6 1_555 1_555
H5 C7 1_555 1_555
C8 C9 1_555 1_555
C9 H6 1_555 1_555
H7 C9 1_555 1_555
H8 C9 1_555 1_555
C10 C8 1_555 1_555
H9 C10 1_555 1_555
H10 C10 1_555 1_555
C11 C10 1_555 1_555
H11 C11 1_555 1_555
H12 C11 1_555 1_555
C12 C11 1_555 1_555
H13 C12 1_555 1_555
C13 C8 1_555 1_555
C14 C13 1_555 1_555
H14 C14 1_555 1_555
H15 C14 1_555 1_555
H16 C14 1_555 1_555
C15 C13 1_555 1_555
H17 C15 1_555 1_555
H18 C15 1_555 1_555
H19 C15 1_555 1_555
C16 H20 1_555 1_555
C17 C16 1_555 1_555
C18 C17 1_555 1_555
H21 C18 1_555 1_555
C19 C18 1_555 1_555
H22 C19 1_555 1_555
C20 C19 1_555 1_555
H23 C20 1_555 1_555
C21 C20 1_555 1_555
H24 C21 1_555 1_555
C22 C17 1_555 1_555
C23 C24 1_555 1_555
C24 H25 1_555 1_555
C25 C24 1_555 1_555
H26 C25 1_555 1_555
C26 C25 1_555 1_555
H27 C26 1_555 1_555
C27 C26 1_555 1_555
H28 C27 1_555 1_555
C28 C23 1_555 1_555
C29 C28 1_555 1_555
H29 C29 1_555 1_555
C30 C31 1_555 1_555
C31 H30 1_555 1_555
H31 C31 1_555 1_555
H32 C31 1_555 1_555
C32 C30 1_555 1_555
H33 C32 1_555 1_555
H34 C32 1_555 1_555
C33 C32 1_555 1_555
H35 C33 1_555 1_555
H36 C33 1_555 1_555
C34 C33 1_555 1_555
H37 C34 1_555 1_555
C35 C30 1_555 1_555
C36 C35 1_555 1_555
H38 C36 1_555 1_555
H39 C36 1_555 1_555
H40 C36 1_555 1_555
C37 C35 1_555 1_555
H41 C37 1_555 1_555
H42 C37 1_555 1_555
H43 C37 1_555 1_555
C38 H44 1_555 1_555
C39 C38 1_555 1_555
C40 C39 1_555 1_555
H45 C40 1_555 1_555
C41 C40 1_555 1_555
H46 C41 1_555 1_555
C42 C41 1_555 1_555
H47 C42 1_555 1_555
C43 C42 1_555 1_555
H48 C43 1_555 1_555
C44 C39 1_555 1_555
C45 N3 1_555 1_555
C46 N4 1_555 1_555
C47 N11 1_555 1_555
C48 N12 1_555 1_555
C49 N6 1_555 1_555
C50 N7 1_555 1_555
C51 N14 1_555 1_555
C52 N15 1_555 1_555
Cu1 N1 1_555 1_555
Cu2 N6 1_555 1_555
Cu3 N5 1_555 1_555
Cu4 N8 1_555 1_555
N1 C7 1_555 1_555
N2 C12 1_555 1_555
N3 Cu1 1_555 1_555
N4 C45 1_555 1_555
N5 C46 1_555 1_555
N7 C49 1_555 1_555
N8 C50 1_555 1_555
N9 C34 1_555 1_555
N10 C29 1_555 1_555
N11 Cu3 1_555 1_555
N12 C47 1_555 1_555
N13 C48 1_555 1_555
N14 Cu2 1_555 1_555
N15 C51 1_555 1_555
N16 C52 1_555 1_555
O1 C1 1_555 1_555
O2 C22 1_555 1_555
O3 C23 1_555 1_555
O4 C44 1_555 1_555
Cu2A N16 1_555 1_555
Cu3A N13 1_555 1_555
N13A Cu3 1_555 1_555
N16A Cu2 1_555 1_555
C5 C6 1_555 1_555
C8 N1 1_555 1_555
C12 C13 1_555 1_555
C16 N2 1_555 1_555
C21 C22 1_555 1_555
C27 C28 1_555 1_555
C30 N10 1_555 1_555
C34 C35 1_555 1_555
C38 N9 1_555 1_555
C43 C44 1_555 1_555
Cu1 N2 1_555 1_555
Cu1 O1 1_555 1_555
Cu1 O2 1_555 1_555
Cu2 O1 1_555 1_555
Cu2 O2 1_555 1_555
Cu3 O3 1_555 1_555
Cu3 O4 1_555 1_555
Cu4 N9 1_555 1_555
Cu4 N10 1_555 1_555
Cu4 O3 1_555 1_555
Cu4 O4 1_555 1_555

#END
