
#######################################################################
#
#                 Cambridge Crystallographic Data Centre
#                                CCDC 
#
#######################################################################
#
# If this CIF has been generated from an entry in the Cambridge 
# Structural Database, then it will include bibliographic, chemical, 
# crystal, experimental, refinement or atomic coordinate data resulting 
# from the CCDC's data processing and validation procedures.
#
#######################################################################

data_KIVYIY
_symmetry_cell_setting           monoclinic
_symmetry_space_group_name_H-M   'C c'
_symmetry_Int_Tables_number      9
_space_group_name_Hall           'C -2yc'
loop_
_symmetry_equiv_pos_site_id
_symmetry_equiv_pos_as_xyz
1 x,y,z
2 x,-y,1/2+z
3 1/2+x,1/2+y,z
4 1/2+x,1/2-y,1/2+z
_cell_length_a                   11.884(3)
_cell_length_b                   18.718(5)
_cell_length_c                   7.5815(15)
_cell_angle_alpha                90.00
_cell_angle_beta                 119.971(3)
_cell_angle_gamma                90.00
_cell_volume                     1460.95
loop_
_atom_site_label
_atom_site_type_symbol
_atom_site_fract_x
_atom_site_fract_y
_atom_site_fract_z
Ba1 Ba -0.09199(4) 0.337713(10) 0.73282(4)
O1 O 0.0721(3) 0.44551(18) 0.8210(6)
O2 O -0.2231(4) 0.2461(2) 0.4062(6)
H1 H -0.2712 0.2134 0.4106
H2 H -0.2153 0.2507 0.3013
O3 O -0.2141(4) 0.4204(2) 0.3970(6)
H3 H -0.2957 0.4270 0.3406
H4 H -0.1944 0.4645 0.4160
O4 O -0.1496(3) 0.43525(18) 0.9592(6)
H5 H -0.1833 0.4205 1.0285
H6 H -0.1693 0.4793 0.9402
O5 O 0.1020(4) 0.3203(2) 1.1248(6)
H7 H 0.0933 0.3557 1.1876
H8 H 0.1609 0.2952 1.2192
O6 O 0.0581(4) 0.3134(2) 0.5511(6)
H9 H 0.0848 0.2715 0.5487
H10 H 0.0773 0.3479 0.4980
O7 O -0.2023(3) 0.26409(19) 0.9394(6)
H11 H -0.2244 0.2872 1.0138
H12 H -0.2133 0.2191 0.9264
O8 O 0.0739(3) 0.56441(17) 0.8280(6)
O9 O 0.4796(5) 0.3185(2) 1.2837(8)
O10 O 0.6161(4) 0.37182(19) 1.5601(6)
O11 O 0.6522(3) 0.63438(17) 1.5047(5)
O12 O 0.4696(3) 0.69328(16) 1.3102(6)
N1 N 0.5329(5) 0.6374(2) 1.3789(7)
C1 C 0.2654(6) 0.5029(4) 1.0622(11)
C2 C 0.3318(6) 0.5672(4) 1.1438(9)
H13 H 0.2897 0.6105 1.0925
C3 C 0.4603(5) 0.5665(4) 1.3009(9)
C4 C 0.5239(6) 0.5025(4) 1.3838(10)
H14 H 0.6094 0.5016 1.4902
C5 C 0.4539(6) 0.4391(4) 1.3009(9)
C6 C 0.3297(6) 0.4395(4) 1.1417(9)
H15 H 0.2879 0.3965 1.0861
C7 C 0.1256(5) 0.5041(3) 0.8908(8)
C8 C 0.5217(4) 0.3718(2) 1.3893(6)
Ba1C Ba 0.40801(4) 0.162287(10) 1.23282(4)
Ba1_2 Ba 0.90801(4) 0.337713(10) 1.73282(4)
O9C O -0.0204(5) 0.1815(2) 0.7837(8)
O10_2 O -0.3839(4) 0.37182(19) 0.5601(6)
loop_
_geom_bond_atom_site_label_1
_geom_bond_atom_site_label_2
_geom_bond_site_symmetry_1
_geom_bond_site_symmetry_2
Ba1 O1 1_555 1_555
O1 C7 1_555 1_555
O2 Ba1 1_555 1_555
H1 O2 1_555 1_555
H2 O2 1_555 1_555
O3 Ba1 1_555 1_555
H3 O3 1_555 1_555
H4 O3 1_555 1_555
O4 Ba1 1_555 1_555
H5 O4 1_555 1_555
H6 O4 1_555 1_555
O5 Ba1 1_555 1_555
H7 O5 1_555 1_555
H8 O5 1_555 1_555
O6 Ba1 1_555 1_555
H9 O6 1_555 1_555
H10 O6 1_555 1_555
O7 Ba1 1_555 1_555
H11 O7 1_555 1_555
H12 O7 1_555 1_555
O8 C7 1_555 1_555
O9 C8 1_555 1_555
O10 C8 1_555 1_555
O11 N1 1_555 1_555
O12 N1 1_555 1_555
N1 C3 1_555 1_555
C1 C2 1_555 1_555
C2 H13 1_555 1_555
C3 C2 1_555 1_555
C4 C3 1_555 1_555
H14 C4 1_555 1_555
C5 C4 1_555 1_555
C6 C1 1_555 1_555
H15 C6 1_555 1_555
C7 C1 1_555 1_555
C8 C5 1_555 1_555
Ba1C O9 1_555 1_555
Ba1_2 O10 1_555 1_555
O9C Ba1 1_555 1_555
O10_2 Ba1 1_555 1_555
C5 C6 1_555 1_555

#END
