
#######################################################################
#
#                 Cambridge Crystallographic Data Centre
#                                CCDC 
#
#######################################################################
#
# If this CIF has been generated from an entry in the Cambridge 
# Structural Database, then it will include bibliographic, chemical, 
# crystal, experimental, refinement or atomic coordinate data resulting 
# from the CCDC's data processing and validation procedures.
#
#######################################################################

data_KIVYUK
_symmetry_cell_setting           monoclinic
_symmetry_space_group_name_H-M   'C 2/c'
_symmetry_Int_Tables_number      15
_space_group_name_Hall           '-C 2yn'
loop_
_symmetry_equiv_pos_site_id
_symmetry_equiv_pos_as_xyz
1 x,y,z
2 1/2+x,1/2+y,z
3 -x,y,1/2-z
4 1/2-x,1/2+y,1/2-z
5 -x,-y,-z
6 1/2-x,1/2-y,-z
7 x,-y,1/2+z
8 1/2+x,1/2-y,1/2+z
_cell_length_a                   21.8174(18)
_cell_length_b                   5.2742(6)
_cell_length_c                   15.1633(15)
_cell_angle_alpha                90
_cell_angle_beta                 128.759(5)
_cell_angle_gamma                90
_cell_volume                     1360.59
loop_
_atom_site_label
_atom_site_type_symbol
_atom_site_fract_x
_atom_site_fract_y
_atom_site_fract_z
Cu1 Cu 0.08229(4) -0.12985(14) 0.09879(5)
C1 C 0.2344(3) 0.3648(10) 0.3703(4)
H1 H 0.2878 0.4015 0.4154
C2 C 0.1858(3) 0.5030(9) 0.3817(3)
C3 C 0.2130(3) 0.7125(9) 0.4625(4)
H2 H 0.1752 0.7995 0.4607
C4 C 0.2032(3) 0.1737(10) 0.2922(4)
H3 H 0.2370 0.0829 0.2862
C5 C 0.1072(3) 0.4422(11) 0.3092(4)
H4 H 0.0721 0.5343 0.3121
C6 C 0.0799(3) 0.2487(11) 0.2332(4)
H5 H 0.0264 0.2120 0.1860
N1 N 0.1270(2) 0.1092(8) 0.2239(3)
N2 N 0.0693(2) -0.6205(8) 0.0014(3)
N3 N 0.0979(3) -0.4242(9) 0.0415(4)
N4 N 0.0444(3) -0.8211(8) -0.0394(4)
Cu1E Cu 0.41771(4) 1.62985(14) 0.90121(5)
Cu1_2 Cu 0.08229(4) -1.12985(14) 0.09879(5)
Cu1D Cu -0.08229(4) -0.87015(14) -0.09879(5)
Cu1_3 Cu 0.08229(4) 0.87015(14) 0.09879(5)
Cu1D_2 Cu -0.08229(4) 0.12985(14) -0.09879(5)
C1E C 0.2656(3) 1.1352(10) 0.6297(4)
H1E H 0.2122 1.0985 0.5846
C2E C 0.3142(3) 0.9970(9) 0.6183(3)
C3E C 0.2870(3) 0.7875(9) 0.5375(4)
H2E H 0.3248 0.7005 0.5393
C4E C 0.2968(3) 1.3263(10) 0.7078(4)
H3E H 0.2630 1.4171 0.7138
C5E C 0.3928(3) 1.0578(11) 0.6908(4)
H4E H 0.4279 0.9657 0.6879
C6E C 0.4201(3) 1.2513(11) 0.7668(4)
H5E H 0.4736 1.2880 0.8140
N1E N 0.3730(2) 1.3908(8) 0.7761(3)
N2_2 N 0.0693(2) 0.3795(8) 0.0014(3)
N3_2 N 0.0979(3) 0.5758(9) 0.0415(4)
N3E N 0.4021(3) 1.9242(9) 0.9585(4)
N4_2 N 0.0444(3) 0.1789(8) -0.0394(4)
N4D N -0.0444(3) -0.1789(8) 0.0394(4)
N4A N 0.5444(3) 1.6789(8) 0.9606(4)
N4E N 0.4556(3) 1.3211(8) 1.0394(4)
loop_
_geom_bond_atom_site_label_1
_geom_bond_atom_site_label_2
_geom_bond_site_symmetry_1
_geom_bond_site_symmetry_2
Cu1 N1 1_555 1_555
C1 H1 1_555 1_555
C2 C1 1_555 1_555
C3 C2 1_555 1_555
H2 C3 1_555 1_555
C4 C1 1_555 1_555
H3 C4 1_555 1_555
C5 C2 1_555 1_555
H4 C5 1_555 1_555
C6 C5 1_555 1_555
H5 C6 1_555 1_555
N1 C4 1_555 1_555
N2 N3 1_555 1_555
N3 Cu1 1_555 1_555
N4 N2 1_555 1_555
Cu1E N1E 1_555 1_555
Cu1_2 N4 1_555 1_555
Cu1D N4 1_555 1_555
Cu1_3 N3_2 1_555 1_555
Cu1D_2 N4_2 1_555 1_555
C1E H1E 1_555 1_555
C2E C1E 1_555 1_555
C3E C3 1_555 1_555
H2E C3E 1_555 1_555
C4E C1E 1_555 1_555
H3E C4E 1_555 1_555
C5E C2E 1_555 1_555
H4E C5E 1_555 1_555
C6E C5E 1_555 1_555
H5E C6E 1_555 1_555
N1E C4E 1_555 1_555
N2_2 N3_2 1_555 1_555
N3E Cu1E 1_555 1_555
N4_2 Cu1 1_555 1_555
N4D Cu1 1_555 1_555
N4A Cu1E 1_555 1_555
N4E Cu1E 1_555 1_555
C6 N1 1_555 1_555
Cu1D_2 N4D 1_555 1_555
C2E C3E 1_555 1_555
C6E N1E 1_555 1_555
N2_2 N4_2 1_555 1_555

#END
