
#######################################################################
#
#                 Cambridge Crystallographic Data Centre
#                                CCDC 
#
#######################################################################
#
# If this CIF has been generated from an entry in the Cambridge 
# Structural Database, then it will include bibliographic, chemical, 
# crystal, experimental, refinement or atomic coordinate data resulting 
# from the CCDC's data processing and validation procedures.
#
#######################################################################

data_KIVYEU
_symmetry_cell_setting           monoclinic
_symmetry_space_group_name_H-M   'C c'
_symmetry_Int_Tables_number      9
_space_group_name_Hall           'C -2yc'
loop_
_symmetry_equiv_pos_site_id
_symmetry_equiv_pos_as_xyz
1 x,y,z
2 x,-y,1/2+z
3 1/2+x,1/2+y,z
4 1/2+x,1/2-y,1/2+z
_cell_length_a                   11.7031(11)
_cell_length_b                   18.4855(16)
_cell_length_c                   7.3184(7)
_cell_angle_alpha                90.00
_cell_angle_beta                 118.9330(10)
_cell_angle_gamma                90.00
_cell_volume                     1385.63
loop_
_atom_site_label
_atom_site_type_symbol
_atom_site_fract_x
_atom_site_fract_y
_atom_site_fract_z
Sr1 Sr 0.99395(8) 0.34142(2) 0.71860(10)
O1 O 0.8347(4) 0.4444(2) 0.6271(7)
O2 O 1.1237(5) 0.2542(3) 1.0212(8)
H1 H 1.1709 0.2216 1.0091
H2 H 1.1197 0.2578 1.1338
O3 O 1.1077(5) 0.4198(3) 1.0350(7)
H3 H 1.1901 0.4249 1.0944
H4 H 1.0638 0.4414 1.0831
O4 O 1.0524(4) 0.4325(2) 0.4964(7)
H5 H 1.0874 0.4168 0.4259
H6 H 1.0361 0.4774 0.4954
O5 O 0.8114(5) 0.3182(3) 0.3419(7)
H7 H 0.8281 0.2948 0.2575
H8 H 0.7347 0.3339 0.3020
O6 O 0.8442(4) 0.3138(2) 0.8757(7)
H9 H 0.8170 0.2710 0.8724
H10 H 0.8219 0.3475 0.9309
O7 O 1.1027(4) 0.2655(2) 0.5244(7)
H11 H 1.1269 0.2871 0.4463
H12 H 1.1125 0.2200 0.5416
O8 O 0.8309(4) 0.5650(2) 0.6195(7)
O9 O 0.4199(6) 0.3157(3) 0.1673(9)
O10 O 0.2844(4) 0.3696(2) -0.1182(7)
O11 O 0.2507(4) 0.6358(2) -0.0621(6)
O12 O 0.4345(4) 0.6950(2) 0.1324(7)
N1 N 0.3717(6) 0.6386(3) 0.0660(9)
C1 C 0.6389(6) 0.5028(4) 0.3829(9)
C2 C 0.5729(6) 0.5675(4) 0.3020(10)
H13 H 0.6151 0.6115 0.3532
C3 C 0.4421(6) 0.5662(4) 0.1427(10)
C4 C 0.3785(6) 0.5016(3) 0.0603(10)
H14 H 0.2927 0.5006 -0.0476
C5 C 0.4477(6) 0.4384(3) 0.1447(10)
C6 C 0.5741(6) 0.4367(3) 0.3055(10)
H15 H 0.6156 0.3930 0.3615
C7 C 0.7802(5) 0.5037(3) 0.5577(9)
C8 C 0.3793(5) 0.3697(3) 0.0578(8)
Sr1C Sr 0.49395(8) 0.15858(2) 0.21860(10)
Sr1_2 Sr -0.00605(8) 0.34142(2) -0.28140(10)
O9C O 0.9199(6) 0.1843(3) 0.6673(9)
O10_2 O 1.2844(4) 0.3696(2) 0.8818(7)
loop_
_geom_bond_atom_site_label_1
_geom_bond_atom_site_label_2
_geom_bond_site_symmetry_1
_geom_bond_site_symmetry_2
Sr1 O1 1_555 1_555
O1 C7 1_555 1_555
O2 Sr1 1_555 1_555
H1 O2 1_555 1_555
H2 O2 1_555 1_555
O3 Sr1 1_555 1_555
H3 O3 1_555 1_555
H4 O3 1_555 1_555
O4 Sr1 1_555 1_555
H5 O4 1_555 1_555
H6 O4 1_555 1_555
O5 Sr1 1_555 1_555
H7 O5 1_555 1_555
H8 O5 1_555 1_555
O6 Sr1 1_555 1_555
H9 O6 1_555 1_555
H10 O6 1_555 1_555
O7 Sr1 1_555 1_555
H11 O7 1_555 1_555
H12 O7 1_555 1_555
O8 C7 1_555 1_555
O9 C8 1_555 1_555
O10 C8 1_555 1_555
O11 N1 1_555 1_555
O12 N1 1_555 1_555
N1 C3 1_555 1_555
C1 C2 1_555 1_555
C2 H13 1_555 1_555
C3 C2 1_555 1_555
C4 C3 1_555 1_555
H14 C4 1_555 1_555
C5 C4 1_555 1_555
C6 C1 1_555 1_555
H15 C6 1_555 1_555
C7 C1 1_555 1_555
C8 C5 1_555 1_555
Sr1C O9 1_555 1_555
Sr1_2 O10 1_555 1_555
O9C Sr1 1_555 1_555
O10_2 Sr1 1_555 1_555
C5 C6 1_555 1_555

#END
