
#######################################################################
#
#                 Cambridge Crystallographic Data Centre
#                                CCDC 
#
#######################################################################
#
# If this CIF has been generated from an entry in the Cambridge 
# Structural Database, then it will include bibliographic, chemical, 
# crystal, experimental, refinement or atomic coordinate data resulting 
# from the CCDC's data processing and validation procedures.
#
#######################################################################

data_KIVZAR
_symmetry_cell_setting           monoclinic
_symmetry_space_group_name_H-M   'P 21/n'
_symmetry_Int_Tables_number      14
_space_group_name_Hall           '-P 2yn'
loop_
_symmetry_equiv_pos_site_id
_symmetry_equiv_pos_as_xyz
1 x,y,z
2 1/2-x,1/2+y,1/2-z
3 -x,-y,-z
4 1/2+x,1/2-y,1/2+z
_cell_length_a                   7.523(3)
_cell_length_b                   7.089(3)
_cell_length_c                   11.446(5)
_cell_angle_alpha                90
_cell_angle_beta                 103.135(8)
_cell_angle_gamma                90
_cell_volume                     594.451
loop_
_atom_site_label
_atom_site_type_symbol
_atom_site_fract_x
_atom_site_fract_y
_atom_site_fract_z
Cu1 Cu 0.12328(8) 0.18611(9) 0.56410(5)
Cu2 Cu 0.01041(7) -0.06989(8) 0.74712(5)
C1 C 0.4292(5) -0.0760(6) 0.5851(3)
H1 H 0.3834 -0.1327 0.6454
C2 C 0.5795(5) -0.1540(6) 0.5542(4)
H2 H 0.6314 -0.2621 0.5937
N1 N 0.3466(4) 0.0784(5) 0.5315(3)
N2 N -0.0668(5) 0.1804(5) 0.6529(3)
N3 N -0.1934(5) 0.2762(5) 0.6582(3)
N4 N -0.3185(5) 0.3671(6) 0.6647(3)
N5 N 0.2402(5) 0.4774(5) 0.6434(3)
N6 N 0.1343(5) 0.6016(5) 0.6350(3)
N7 N 0.0241(5) 0.7246(5) 0.6225(3)
Cu1B Cu 0.87672(8) -0.18611(9) 0.43590(5)
Cu1B_2 Cu -0.12328(8) 0.81389(9) 0.43590(5)
Cu1A Cu -0.62328(8) -0.31389(9) 0.93590(5)
Cu2A Cu -0.51041(7) 0.43011(8) 0.75288(5)
Cu2A_2 Cu 0.48959(7) 0.43011(8) 0.75288(5)
Cu2_2 Cu 0.01041(7) 0.93011(8) 0.74712(5)
Cu2C Cu -0.48959(7) 0.56989(8) 0.24712(5)
Cu2B Cu -0.01041(7) 0.06989(8) 0.25288(5)
Cu2A_3 Cu -0.51041(7) -0.56989(8) 0.75288(5)
C1B C 0.5708(5) 0.0760(6) 0.4149(3)
H1B H 0.6166 0.1327 0.3546
C2B C 0.4205(5) 0.1540(6) 0.4458(4)
H2B H 0.3686 0.2621 0.4063
N1B N 0.6534(4) -0.0784(5) 0.4685(3)
N2A N -0.4332(5) -0.3196(5) 0.8471(3)
N2B N 1.0668(5) -0.1804(5) 0.3471(3)
N2A_2 N -0.4332(5) 0.6804(5) 0.8471(3)
N3A N -0.3066(5) -0.2238(5) 0.8418(3)
N4A N -0.1815(5) -0.1329(6) 0.8353(3)
N5B N -0.2402(5) 0.5226(5) 0.3566(3)
N5A N 0.2598(5) -0.0226(5) 0.8566(3)
N5B_2 N 0.7598(5) -0.4774(5) 0.3566(3)
N5_2 N -0.7598(5) 0.4774(5) 0.6434(3)
N6B N -0.1343(5) 0.3984(5) 0.3650(3)
N7B N -0.0241(5) 0.2754(5) 0.3775(3)
N7_2 N 0.0241(5) -0.2754(5) 0.6225(3)
N7_3 N 1.0241(5) -0.2754(5) 0.6225(3)
N7A N -0.5241(5) 0.2246(5) 0.8775(3)
loop_
_geom_bond_atom_site_label_1
_geom_bond_atom_site_label_2
_geom_bond_site_symmetry_1
_geom_bond_site_symmetry_2
Cu1 N1 1_555 1_555
Cu2 N2 1_555 1_555
C1 H1 1_555 1_555
C2 C1 1_555 1_555
H2 C2 1_555 1_555
N1 C1 1_555 1_555
N2 Cu1 1_555 1_555
N3 N2 1_555 1_555
N4 N3 1_555 1_555
N5 Cu1 1_555 1_555
N6 N5 1_555 1_555
N7 N6 1_555 1_555
Cu1B N1B 1_555 1_555
Cu1B_2 N7 1_555 1_555
Cu1A N2A 1_555 1_555
Cu2A N4 1_555 1_555
Cu2A_2 N5 1_555 1_555
Cu2_2 N7 1_555 1_555
Cu2C N5B 1_555 1_555
Cu2B N7B 1_555 1_555
Cu2A_3 N2A 1_555 1_555
C1B H1B 1_555 1_555
C2B N1 1_555 1_555
H2B C2B 1_555 1_555
N1B C2 1_555 1_555
N2A N3A 1_555 1_555
N2B Cu1B 1_555 1_555
N2A_2 Cu2A 1_555 1_555
N3A N4A 1_555 1_555
N4A Cu2 1_555 1_555
N5B Cu1B_2 1_555 1_555
N5A Cu2 1_555 1_555
N5B_2 Cu1B 1_555 1_555
N5_2 Cu2A 1_555 1_555
N6B N5B 1_555 1_555
N7B Cu1 1_555 1_555
N7_2 Cu2 1_555 1_555
N7_3 Cu1B 1_555 1_555
N7A Cu2A 1_555 1_555
C1B C2B 1_555 1_555
C1B N1B 1_555 1_555
N6B N7B 1_555 1_555

#END
