
#######################################################################
#
#                 Cambridge Crystallographic Data Centre
#                                CCDC 
#
#######################################################################
#
# If this CIF has been generated from an entry in the Cambridge 
# Structural Database, then it will include bibliographic, chemical, 
# crystal, experimental, refinement or atomic coordinate data resulting 
# from the CCDC's data processing and validation procedures.
#
#######################################################################

data_KIVZEW
_symmetry_cell_setting           monoclinic
_symmetry_space_group_name_H-M   'C 2/c'
_symmetry_Int_Tables_number      15
_space_group_name_Hall           '-C 2yn'
loop_
_symmetry_equiv_pos_site_id
_symmetry_equiv_pos_as_xyz
1 x,y,z
2 -x,y,1/2-z
3 1/2+x,1/2+y,z
4 1/2-x,1/2+y,1/2-z
5 -x,-y,-z
6 x,-y,1/2+z
7 1/2-x,1/2-y,-z
8 1/2+x,1/2-y,1/2+z
_cell_length_a                   11.862(3)
_cell_length_b                   16.910(4)
_cell_length_c                   17.577(6)
_cell_angle_alpha                90
_cell_angle_beta                 100.161(6)
_cell_angle_gamma                90
_cell_volume                     3470.41
loop_
_atom_site_label
_atom_site_type_symbol
_atom_site_fract_x
_atom_site_fract_y
_atom_site_fract_z
Cd1 Cd 1.127212(14) 0.088500(9) 1.019079(9)
O1 O 0.91629(15) 0.05966(11) 0.96453(9)
O2 O 0.85071(13) 0.20044(9) 0.57600(8)
O3 O 0.85089(13) 0.07249(9) 0.60195(9)
O4 O 1.32597(13) 0.13113(9) 1.05876(9)
H1 H 1.3690 0.1140 1.0262
H2 H 1.3305 0.1831 1.0603
O5 O 0.83226(16) -0.01645(10) 0.87049(10)
C1 C 0.85264(16) 0.16102(12) 0.70669(12)
O6 O 0.88323(17) 0.33005(9) 0.83923(10)
H3 H 0.8749 0.3615 0.8031
C2 C 0.87296(18) 0.25476(12) 0.81105(13)
N1 N 1.04209(16) 0.17812(11) 1.08557(11)
C3 C 0.86738(17) 0.11596(12) 0.83803(12)
C4 C 0.85513(17) 0.09954(11) 0.75943(12)
H4 H 0.8486 0.0475 0.7422
N2 N 1.04026(16) 0.43394(11) 1.05096(12)
C5 C 0.85959(17) 0.23852(12) 0.73284(12)
H5 H 0.8552 0.2799 0.6976
C6 C 0.85034(16) 0.14434(12) 0.62271(12)
C7 C 0.9125(2) 0.48531(13) 0.93664(15)
H6 H 0.9544 0.4567 0.9027
H7 H 0.8330 0.4885 0.9114
C8 C 1.06807(19) 0.25472(13) 1.08835(13)
H8 H 1.1286 0.2714 1.0651
C9 C 0.9199(2) 0.44063(14) 1.01136(15)
H9 H 0.8755 0.4679 1.0447
H10 H 0.8877 0.3882 1.0010
C10 C 0.8960(3) 0.20428(19) 1.1581(2)
H11 H 0.8375 0.1856 1.1822
C11 C 1.0473(2) 0.39658(14) 1.12693(16)
H12 H 0.9998 0.4262 1.1565
H13 H 1.1257 0.3999 1.1542
C12 C 0.9576(2) 0.15335(16) 1.12093(18)
H14 H 0.9401 0.0997 1.1203
C13 C 0.87275(18) 0.04963(13) 0.89512(13)
C14 C 0.87780(18) 0.19361(12) 0.86404(12)
H15 H 0.8880 0.2045 0.9167
C15 C 1.0101(2) 0.31102(14) 1.12382(14)
C16 C 0.9222(2) 0.28418(17) 1.15906(19)
H16 H 0.8806 0.3197 1.1835
N1D N 0.95791(16) 0.82188(11) 0.91443(11)
N2D N 0.95974(16) 0.56606(11) 0.94904(12)
C7D C 1.0875(2) 0.51469(13) 1.06336(15)
H6D H 1.0456 0.5433 1.0973
H7D H 1.1670 0.5115 1.0886
C8D C 0.93193(19) 0.74528(13) 0.91165(13)
H8D H 0.8714 0.7286 0.9349
C9D C 1.0801(2) 0.55937(14) 0.98864(15)
H9D H 1.1245 0.5321 0.9553
H10D H 1.1123 0.6118 0.9990
C10D C 1.1040(3) 0.79572(19) 0.8419(2)
H11D H 1.1625 0.8144 0.8178
C11D C 0.9527(2) 0.60342(14) 0.87307(16)
H12D H 1.0002 0.5738 0.8435
H13D H 0.8743 0.6001 0.8458
C12D C 1.0424(2) 0.84665(16) 0.87907(18)
H14D H 1.0599 0.9003 0.8797
C15D C 0.9899(2) 0.68898(14) 0.87618(14)
C16D C 1.0778(2) 0.71582(17) 0.84094(19)
H16D H 1.1194 0.6803 0.8165
Cd1A Cd 0.872788(14) 0.088500(9) 0.480921(9)
O1A O 1.08371(15) 0.05966(11) 0.53547(9)
O2A O 1.14929(13) 0.20044(9) 0.92400(8)
O3A O 1.14911(13) 0.07249(9) 0.89805(9)
O4A O 0.67403(13) 0.13113(9) 0.44124(9)
H1A H 0.6310 0.1140 0.4738
H2A H 0.6695 0.1831 0.4397
O5A O 1.16774(16) -0.01645(10) 0.62951(10)
C1A C 1.14736(16) 0.16102(12) 0.79331(12)
O6A O 1.11677(17) 0.33005(9) 0.66077(10)
H3A H 1.1251 0.3615 0.6969
C2A C 1.12704(18) 0.25476(12) 0.68895(13)
C3A C 1.13262(17) 0.11596(12) 0.66197(12)
C4A C 1.14487(17) 0.09954(11) 0.74057(12)
H4A H 1.1514 0.0475 0.7578
C5A C 1.14041(17) 0.23852(12) 0.76716(12)
H5A H 1.1448 0.2799 0.8024
C6A C 1.14966(16) 0.14434(12) 0.87729(12)
C13A C 1.12725(18) 0.04963(13) 0.60488(13)
C14A C 1.12220(18) 0.19361(12) 0.63596(12)
H15A H 1.1120 0.2045 0.5833
Cd1D Cd 0.872788(14) -0.088500(9) 0.980921(9)
Cd1D_2 Cd 0.872788(14) 0.911500(9) 0.980921(9)
Cd1E Cd 1.127212(14) -0.088500(9) 0.519079(9)
O1D O 1.08371(15) -0.05966(11) 1.03547(9)
O1E O 0.91629(15) -0.05966(11) 0.46453(9)
O5D O 1.16774(16) 0.01645(10) 1.12951(10)
O5E O 0.83226(16) 0.01645(10) 0.37049(10)
N1A N 0.95791(16) 0.17812(11) 0.41443(11)
O7 O 0.8676(2) 0.44081(14) 0.72570(13)
H17 H 0.9005 0.4269 0.6886
H18 H 0.7991 0.4547 0.7080
loop_
_geom_bond_atom_site_label_1
_geom_bond_atom_site_label_2
_geom_bond_site_symmetry_1
_geom_bond_site_symmetry_2
Cd1 O1 1_555 1_555
O1 C13 1_555 1_555
O2 C6 1_555 1_555
O3 C6 1_555 1_555
O4 Cd1 1_555 1_555
H1 O4 1_555 1_555
H2 O4 1_555 1_555
O5 C13 1_555 1_555
C1 C4 1_555 1_555
O6 H3 1_555 1_555
C2 O6 1_555 1_555
N1 Cd1 1_555 1_555
C3 C4 1_555 1_555
C4 H4 1_555 1_555
N2 C9 1_555 1_555
C5 C1 1_555 1_555
H5 C5 1_555 1_555
C6 C1 1_555 1_555
C7 H6 1_555 1_555
H7 C7 1_555 1_555
C8 N1 1_555 1_555
H8 C8 1_555 1_555
C9 C7 1_555 1_555
H9 C9 1_555 1_555
H10 C9 1_555 1_555
C10 H11 1_555 1_555
C11 N2 1_555 1_555
H12 C11 1_555 1_555
H13 C11 1_555 1_555
C12 N1 1_555 1_555
H14 C12 1_555 1_555
C13 C3 1_555 1_555
C14 C2 1_555 1_555
H15 C14 1_555 1_555
C15 C8 1_555 1_555
C16 C10 1_555 1_555
H16 C16 1_555 1_555
O7 H17 1_555 1_555
H18 O7 1_555 1_555
N1D C8D 1_555 1_555
N2D C7 1_555 1_555
C7D N2 1_555 1_555
H6D C7D 1_555 1_555
H7D C7D 1_555 1_555
C8D H8D 1_555 1_555
C9D N2D 1_555 1_555
H9D C9D 1_555 1_555
H10D C9D 1_555 1_555
C10D H11D 1_555 1_555
C11D N2D 1_555 1_555
H12D C11D 1_555 1_555
H13D C11D 1_555 1_555
C12D N1D 1_555 1_555
H14D C12D 1_555 1_555
C15D C8D 1_555 1_555
C16D C10D 1_555 1_555
H16D C16D 1_555 1_555
Cd1A O2 1_555 1_555
O1A Cd1A 1_555 1_555
O2A Cd1 1_555 1_555
O3A Cd1 1_555 1_555
O4A Cd1A 1_555 1_555
H1A O4A 1_555 1_555
H2A O4A 1_555 1_555
O5A C13A 1_555 1_555
C1A C4A 1_555 1_555
O6A H3A 1_555 1_555
C2A O6A 1_555 1_555
C3A C4A 1_555 1_555
C4A H4A 1_555 1_555
C5A C1A 1_555 1_555
H5A C5A 1_555 1_555
C6A O2A 1_555 1_555
C13A O1A 1_555 1_555
C14A C2A 1_555 1_555
H15A C14A 1_555 1_555
Cd1D O1 1_555 1_555
Cd1D_2 N1D 1_555 1_555
Cd1E O1A 1_555 1_555
O1D Cd1 1_555 1_555
O1E Cd1A 1_555 1_555
O5D Cd1 1_555 1_555
O5E Cd1A 1_555 1_555
N1A Cd1A 1_555 1_555
O3 Cd1A 1_555 1_555
O5 Cd1D 1_555 1_555
C2 C5 1_555 1_555
C3 C14 1_555 1_555
C10 C12 1_555 1_555
C11 C15 1_555 1_555
C15 C16 1_555 1_555
C7D C9D 1_555 1_555
C10D C12D 1_555 1_555
C11D C15D 1_555 1_555
C15D C16D 1_555 1_555
O3A C6A 1_555 1_555
O5A Cd1E 1_555 1_555
C1A C6A 1_555 1_555
C2A C5A 1_555 1_555
C3A C13A 1_555 1_555
C3A C14A 1_555 1_555
Cd1D O1D 1_555 1_555
Cd1E O1E 1_555 1_555

#END
