
#######################################################################
#
#                 Cambridge Crystallographic Data Centre
#                                CCDC 
#
#######################################################################
#
# If this CIF has been generated from an entry in the Cambridge 
# Structural Database, then it will include bibliographic, chemical, 
# crystal, experimental, refinement or atomic coordinate data resulting 
# from the CCDC's data processing and validation procedures.
#
#######################################################################

data_KIWCEZ
_symmetry_cell_setting           monoclinic
_symmetry_space_group_name_H-M   'P 21/c'
_symmetry_Int_Tables_number      14
_space_group_name_Hall           '-P 2ybc'
loop_
_symmetry_equiv_pos_site_id
_symmetry_equiv_pos_as_xyz
1 x,y,z
2 -x,1/2+y,1/2-z
3 -x,-y,-z
4 x,1/2-y,1/2+z
_cell_length_a                   7.8631(2)
_cell_length_b                   14.2780(3)
_cell_length_c                   14.3028(3)
_cell_angle_alpha                90
_cell_angle_beta                 104.829(1)
_cell_angle_gamma                90
_cell_volume                     1552.28
loop_
_atom_site_label
_atom_site_type_symbol
_atom_site_fract_x
_atom_site_fract_y
_atom_site_fract_z
Cu1 Cu 0.43442(3) 0.255188(16) 0.123478(17)
O1 O 0.62840(18) 0.27684(10) 0.23923(10)
N1 N 0.3334(2) 0.38342(12) 0.12503(12)
C1 C 0.7664(3) 0.30671(13) 0.22084(15)
H1 H 0.316(4) 0.1877(19) 0.270(2)
O2 O 0.78314(19) 0.34065(11) 0.14439(11)
N2 N 0.5740(2) 0.14957(11) 0.08690(12)
C2 C 0.9278(3) 0.29393(14) 0.30067(15)
O3 O 1.22717(18) 0.28122(10) 0.51924(10)
C3 C 1.0596(3) 0.27752(14) 0.36108(15)
O4 O 1.33154(19) 0.20320(11) 0.41115(11)
C4 C 1.2214(3) 0.25048(13) 0.43610(15)
O5 O 0.3040(2) 0.17378(11) 0.22095(12)
C5 C 0.1668(3) 0.39553(15) 0.13100(15)
H2 H 0.1008 0.3425 0.1410
C6 C 0.0892(3) 0.48271(17) 0.12299(17)
H3 H -0.0278 0.4896 0.1288
C7 C 0.1830(3) 0.56006(16) 0.10646(18)
H4 H 0.1311 0.6206 0.1003
C8 C 0.3530(3) 0.54795(15) 0.09909(17)
H5 H 0.4201 0.5999 0.0871
C9 C 0.4242(3) 0.45884(15) 0.10950(16)
H6 H 0.5420 0.4507 0.1055
C10 C 0.5966(3) 0.06945(15) 0.13683(16)
H7 H 0.5429 0.0627 0.1889
C11 C 0.6947(3) -0.00381(15) 0.11584(17)
H8 H 0.7076 -0.0600 0.1525
C12 C 0.7738(3) 0.00572(15) 0.04095(16)
H9 H 0.8424 -0.0438 0.0252
C13 C 0.7519(3) 0.08836(15) -0.01088(17)
H10 H 0.8055 0.0968 -0.0628
C14 C 0.6512(3) 0.15833(15) 0.01383(16)
H11 H 0.6357 0.2150 -0.0222
C15 C 0.1583(3) 0.11185(18) 0.19550(18)
H12 H 0.1207 0.1054 0.1250
H13 H 0.0611 0.1370 0.2192
H14 H 0.1925 0.0504 0.2248
Cu1C Cu 1.43442(3) 0.244812(16) 0.623478(17)
O3C O 0.22717(18) 0.21878(10) 0.01924(10)
loop_
_geom_bond_atom_site_label_1
_geom_bond_atom_site_label_2
_geom_bond_site_symmetry_1
_geom_bond_site_symmetry_2
Cu1 O1 1_555 1_555
O1 C1 1_555 1_555
N1 Cu1 1_555 1_555
C1 O2 1_555 1_555
H1 O5 1_555 1_555
N2 Cu1 1_555 1_555
C2 C1 1_555 1_555
O3 C4 1_555 1_555
C3 C2 1_555 1_555
O4 C4 1_555 1_555
C4 C3 1_555 1_555
O5 Cu1 1_555 1_555
C5 N1 1_555 1_555
H2 C5 1_555 1_555
C6 C5 1_555 1_555
H3 C6 1_555 1_555
C7 C6 1_555 1_555
H4 C7 1_555 1_555
C8 C7 1_555 1_555
H5 C8 1_555 1_555
C9 N1 1_555 1_555
H6 C9 1_555 1_555
C10 N2 1_555 1_555
H7 C10 1_555 1_555
C11 C10 1_555 1_555
H8 C11 1_555 1_555
C12 C11 1_555 1_555
H9 C12 1_555 1_555
C13 C12 1_555 1_555
H10 C13 1_555 1_555
C14 N2 1_555 1_555
H11 C14 1_555 1_555
C15 O5 1_555 1_555
H12 C15 1_555 1_555
H13 C15 1_555 1_555
H14 C15 1_555 1_555
Cu1C O3 1_555 1_555
O3C Cu1 1_555 1_555
C8 C9 1_555 1_555
C13 C14 1_555 1_555

#END
