
#######################################################################
#
#                 Cambridge Crystallographic Data Centre
#                                CCDC 
#
#######################################################################
#
# If this CIF has been generated from an entry in the Cambridge 
# Structural Database, then it will include bibliographic, chemical, 
# crystal, experimental, refinement or atomic coordinate data resulting 
# from the CCDC's data processing and validation procedures.
#
#######################################################################

data_KIWFOL
_symmetry_cell_setting           triclinic
_symmetry_space_group_name_H-M   'P -1'
_symmetry_Int_Tables_number      2
_space_group_name_Hall           '-P 1'
loop_
_symmetry_equiv_pos_site_id
_symmetry_equiv_pos_as_xyz
1 x,y,z
2 -x,-y,-z
_cell_length_a                   8.616(2)
_cell_length_b                   11.843(3)
_cell_length_c                   12.177(3)
_cell_angle_alpha                103.40(1)
_cell_angle_beta                 112.00(2)
_cell_angle_gamma                75.50(1)
_cell_volume                     1102.11
loop_
_atom_site_label
_atom_site_type_symbol
_atom_site_fract_x
_atom_site_fract_y
_atom_site_fract_z
Cu1 Cu 0.20138(6) 0.06506(4) 0.47985(4)
O1 O 0.3972(4) 0.0591(3) 0.6278(2)
N1 N -0.1842(5) 0.4726(3) 0.5375(3)
C1 C -0.0395(6) 0.3987(4) 0.5734(4)
C2 C -0.0194(5) 0.2841(4) 0.5106(3)
C3 C -0.1580(5) 0.2505(3) 0.4102(3)
C4 C -0.3116(5) 0.3313(4) 0.3754(4)
C5 C -0.3194(5) 0.4409(4) 0.4387(4)
C6 C 0.0974(6) 0.4408(4) 0.6856(4)
C7 C -0.4649(6) 0.3013(4) 0.2725(4)
O2 O 0.1248(4) 0.2172(3) 0.5528(3)
O3 O -0.5253(3) 0.2040(2) 0.2865(2)
P1 P -0.6366(1) 0.2242(1) 0.3710(1)
O4 O -0.5226(4) 0.2738(3) 0.4990(2)
O5 O -0.7865(4) 0.3174(2) 0.3334(3)
O6 O -0.6666(3) 0.1037(2) 0.3663(2)
C8 C -0.1512(5) 0.1335(4) 0.3389(3)
N2 N -0.0163(4) 0.0553(3) 0.3546(3)
C9 C -0.0213(5) -0.0543(4) 0.2712(3)
C10 C 0.1289(6) -0.1456(4) 0.3305(3)
C11 C 0.0086(6) -0.0368(5) 0.1585(4)
O7 O 0.2462(4) -0.1063(2) 0.4243(2)
O8 O 0.1331(5) -0.2484(3) 0.2835(3)
C12 C -0.1348(7) 0.0420(5) 0.0829(4)
C13 C -0.1274(7) 0.1578(5) 0.0929(4)
C14 C -0.2579(8) 0.2299(6) 0.0151(5)
C15 C -0.3926(8) 0.1722(7) -0.0730(5)
C16 C -0.4033(8) 0.0593(6) -0.0819(5)
C17 C -0.2750(7) -0.0028(6) -0.0033(5)
O9 O -0.5182(6) 0.2417(5) -0.1575(4)
H1 H -0.199 0.544 0.575
H2 H -0.433(6) 0.242(4) 0.538(4)
H3 H -0.423(4) 0.504(3) 0.427(3)
H4 H 0.203(5) 0.416(3) 0.680(3)
H5 H 0.092(8) 0.412(5) 0.758(5)
H6 H 0.079(6) 0.519(4) 0.706(4)
H7 H -0.448(5) 0.282(3) 0.196(3)
H8 H -0.563(6) 0.373(4) 0.260(4)
H9 H -0.262(6) 0.112(4) 0.262(4)
H10 H -0.142(6) -0.090(4) 0.239(4)
H11 H 0.020(7) -0.125(4) 0.110(4)
H12 H 0.119(6) -0.012(4) 0.174(4)
H13 H -0.027(6) 0.201(4) 0.167(4)
H14 H -0.234(7) 0.319(5) 0.034(5)
H15 H -0.511(7) 0.023(4) -0.158(4)
H16 H -0.281(6) -0.076(3) -0.011(3)
H17 H 0.429(7) 0.124(5) 0.674(5)
H18 H 0.516(7) -0.007(5) 0.628(5)
O6_2 O 0.3334(3) 0.1037(2) 0.3663(2)
Cu1_2 Cu -0.79862(6) 0.06506(4) 0.47985(4)
O10 O 0.6134(7) 0.4064(4) 0.7919(4)
O11 O -0.1792(10) -0.2809(7) 0.0870(7)
O12 O 0.1043(12) 0.3953(7) 0.1046(6)
O13 O -0.2448 0.5408 -0.0008
loop_
_geom_bond_atom_site_label_1
_geom_bond_atom_site_label_2
_geom_bond_site_symmetry_1
_geom_bond_site_symmetry_2
Cu1 O1 1_555 1_555
O1 H17 1_555 1_555
N1 C1 1_555 1_555
C1 C2 1_555 1_555
C2 C3 1_555 1_555
C3 C4 1_555 1_555
C4 C5 1_555 1_555
C5 N1 1_555 1_555
C6 C1 1_555 1_555
C7 C4 1_555 1_555
O2 Cu1 1_555 1_555
O3 C7 1_555 1_555
P1 O3 1_555 1_555
O4 P1 1_555 1_555
O5 P1 1_555 1_555
O6 P1 1_555 1_555
C8 C3 1_555 1_555
N2 Cu1 1_555 1_555
C9 N2 1_555 1_555
C10 C9 1_555 1_555
C11 C9 1_555 1_555
O7 Cu1 1_555 1_555
O8 C10 1_555 1_555
C12 C11 1_555 1_555
C13 C12 1_555 1_555
C14 C13 1_555 1_555
C15 C14 1_555 1_555
C16 C15 1_555 1_555
C17 C12 1_555 1_555
O9 C15 1_555 1_555
H1 N1 1_555 1_555
H2 O4 1_555 1_555
H3 C5 1_555 1_555
H4 C6 1_555 1_555
H5 C6 1_555 1_555
H6 C6 1_555 1_555
H7 C7 1_555 1_555
H8 C7 1_555 1_555
H9 C8 1_555 1_555
H10 C9 1_555 1_555
H11 C11 1_555 1_555
H12 C11 1_555 1_555
H13 C13 1_555 1_555
H14 C14 1_555 1_555
H15 C16 1_555 1_555
H16 C17 1_555 1_555
H18 O1 1_555 1_555
O6_2 Cu1 1_555 1_555
Cu1_2 O6 1_555 1_555
C2 O2 1_555 1_555
C8 N2 1_555 1_555
C10 O7 1_555 1_555
C16 C17 1_555 1_555

#END
