
#######################################################################
#
#                 Cambridge Crystallographic Data Centre
#                                CCDC 
#
#######################################################################
#
# If this CIF has been generated from an entry in the Cambridge 
# Structural Database, then it will include bibliographic, chemical, 
# crystal, experimental, refinement or atomic coordinate data resulting 
# from the CCDC's data processing and validation procedures.
#
#######################################################################

data_KIWJAC
_symmetry_cell_setting           monoclinic
_symmetry_space_group_name_H-M   'P 21/n'
_symmetry_Int_Tables_number      14
_space_group_name_Hall           '-P 2yn'
loop_
_symmetry_equiv_pos_site_id
_symmetry_equiv_pos_as_xyz
1 x,y,z
2 1/2-x,1/2+y,1/2-z
3 -x,-y,-z
4 1/2+x,1/2-y,1/2+z
_cell_length_a                   7.8541(17)
_cell_length_b                   4.7829(10)
_cell_length_c                   14.057(3)
_cell_angle_alpha                90
_cell_angle_beta                 95.937(4)
_cell_angle_gamma                90
_cell_volume                     525.224
loop_
_atom_site_label
_atom_site_type_symbol
_atom_site_fract_x
_atom_site_fract_y
_atom_site_fract_z
C1 C 0.0587(7) 0.8748(12) 0.4925(4)
Co1 Co -0.09154(9) 1.03015(14) 0.30562(5)
Co2 Co 0.29548(8) 0.52553(14) 0.36609(5)
O1 O 0.0694(5) 0.7987(8) 0.4079(2)
O2 O 0.0645(5) 1.3657(8) 0.1038(3)
O3 O 0.1188(4) 1.3429(8) 0.2802(3)
O4 O 0.1373(4) 0.7726(8) 0.5660(2)
O5 O -0.1756(4) 1.3621(8) 0.2117(3)
O6 O 0.0073(4) 1.7998(7) 0.1976(2)
O7 O 0.2935(5) 0.3396(9) 0.4932(3)
H1 H 0.2182 0.4160 0.5240
H2 H 0.2701 0.1672 0.4851
P1 P 0.00344(18) 1.4775(3) 0.19632(10)
C1B C -0.0587(7) 1.1252(12) 0.5075(4)
Co1B Co 0.09154(9) 0.96985(14) 0.69438(5)
Co1A Co -0.40846(9) 1.53015(14) 0.19438(5)
Co1_2 Co -0.09154(9) 2.03015(14) 0.30562(5)
Co1A_2 Co -0.40846(9) 0.53015(14) 0.19438(5)
Co2B Co -0.29548(8) 1.47447(14) 0.63391(5)
Co2A Co 0.20452(8) 1.02553(14) 0.13391(5)
Co2_2 Co 0.29548(8) 1.52553(14) 0.36609(5)
Co2A_2 Co 0.20452(8) 2.02553(14) 0.13391(5)
Co2_3 Co -0.70452(8) 0.52553(14) 0.36609(5)
Co2A_3 Co -0.79548(8) 1.02553(14) 0.13391(5)
Co2_4 Co -0.70452(8) 1.52553(14) 0.36609(5)
O1B O -0.0694(5) 1.2013(8) 0.5921(2)
O2A O -0.5645(5) 0.8657(8) 0.3962(3)
O2A_2 O 0.4355(5) 0.8657(8) 0.3962(3)
O2C O -0.4355(5) 1.1343(8) 0.6038(3)
O3A O -0.6188(4) 0.8429(8) 0.2198(3)
O3_2 O 0.1188(4) 0.3429(8) 0.2802(3)
O3B O -0.1188(4) 0.6571(8) 0.7198(3)
O3B_2 O -0.1188(4) 1.6571(8) 0.7198(3)
O4B O -0.1373(4) 1.2274(8) 0.4340(2)
O5A O -0.3244(4) 0.8621(8) 0.2883(3)
O5C O 0.3244(4) 1.1379(8) 0.7117(3)
O5B O 0.1756(4) 0.6379(8) 0.7883(3)
O6A O -0.5073(4) 1.2998(7) 0.3024(2)
O6_2 O 0.0073(4) 0.7998(7) 0.1976(2)
O6A_2 O 0.4927(4) 0.2998(7) 0.3024(2)
O6B O -0.0073(4) 1.2002(7) 0.8024(2)
O6C O -0.4927(4) 1.7002(7) 0.6976(2)
O7B O -0.2935(5) 1.6604(9) 0.5068(3)
H1B H -0.2182 1.5840 0.4760
H2B H -0.2701 1.8328 0.5149
P1A P -0.50344(18) 0.9775(3) 0.30368(10)
loop_
_geom_bond_atom_site_label_1
_geom_bond_atom_site_label_2
_geom_bond_site_symmetry_1
_geom_bond_site_symmetry_2
C1 O1 1_555 1_555
Co1 O1 1_555 1_555
Co2 O1 1_555 1_555
O2 P1 1_555 1_555
O3 Co1 1_555 1_555
O4 C1 1_555 1_555
O5 Co1 1_555 1_555
O6 P1 1_555 1_555
O7 Co2 1_555 1_555
H1 O7 1_555 1_555
H2 O7 1_555 1_555
P1 O3 1_555 1_555
C1B C1 1_555 1_555
Co1B O4 1_555 1_555
Co1A O5 1_555 1_555
Co1_2 O6 1_555 1_555
Co1A_2 O3A 1_555 1_555
Co2B O1B 1_555 1_555
Co2A O2 1_555 1_555
Co2_2 O3 1_555 1_555
Co2A_2 O6 1_555 1_555
Co2_3 O2A 1_555 1_555
Co2A_3 O3A 1_555 1_555
Co2_4 O6A 1_555 1_555
O1B C1B 1_555 1_555
O2A P1A 1_555 1_555
O2A_2 Co2 1_555 1_555
O2C Co2B 1_555 1_555
O3A P1A 1_555 1_555
O3_2 Co2 1_555 1_555
O3B Co1B 1_555 1_555
O3B_2 Co2B 1_555 1_555
O4B Co1 1_555 1_555
O5A Co1 1_555 1_555
O5C Co1B 1_555 1_555
O5B Co1B 1_555 1_555
O6A Co1A 1_555 1_555
O6_2 Co1 1_555 1_555
O6A_2 Co2 1_555 1_555
O6B Co1B 1_555 1_555
O6C Co2B 1_555 1_555
O7B Co2B 1_555 1_555
H1B O7B 1_555 1_555
H2B O7B 1_555 1_555
P1A O5A 1_555 1_555
O5 P1 1_555 1_555
C1B O4B 1_555 1_555
Co1B O1B 1_555 1_555
Co1A_2 O5A 1_555 1_555
Co2A O6_2 1_555 1_555
O6A P1A 1_555 1_555

#END
