
#######################################################################
#
#                 Cambridge Crystallographic Data Centre
#                                CCDC 
#
#######################################################################
#
# If this CIF has been generated from an entry in the Cambridge 
# Structural Database, then it will include bibliographic, chemical, 
# crystal, experimental, refinement or atomic coordinate data resulting 
# from the CCDC's data processing and validation procedures.
#
#######################################################################

data_KIWLOS
_symmetry_cell_setting           triclinic
_symmetry_space_group_name_H-M   'P -1'
_symmetry_Int_Tables_number      2
_space_group_name_Hall           '-P 1'
loop_
_symmetry_equiv_pos_site_id
_symmetry_equiv_pos_as_xyz
1 x,y,z
2 -x,-y,-z
_cell_length_a                   6.829(2)
_cell_length_b                   7.765(2)
_cell_length_c                   16.930(4)
_cell_angle_alpha                79.25(3)
_cell_angle_beta                 85.31(3)
_cell_angle_gamma                86.71(3)
_cell_volume                     878.227
loop_
_atom_site_label
_atom_site_type_symbol
_atom_site_fract_x
_atom_site_fract_y
_atom_site_fract_z
Cd1 Cd 0.5000 0.5000 0.5000
N1 N 0.7197(3) 0.2022(3) 0.20406(12)
N2 N 0.2681(3) 0.7076(2) 0.43955(11)
O1 O 0.5810(2) 0.2645(2) 0.35027(10)
O2 O 0.6740(2) 0.5163(2) 0.38047(9)
O3 O -0.3074(2) 0.7089(2) 0.53597(9)
C1 C 0.6931(3) 0.3927(3) 0.34046(14)
C2 C 0.8654(3) 0.3967(3) 0.27859(14)
C3 C 1.0243(3) 0.4955(3) 0.28732(15)
H1 H 1.0159 0.5627 0.3290
C4 C 1.1945(4) 0.4974(3) 0.23628(15)
H2 H 1.3022 0.5640 0.2433
C5 C 1.2045(4) 0.4011(3) 0.17537(15)
H3 H 1.3208 0.4008 0.1405
C6 C 1.0488(3) 0.3050(3) 0.16404(14)
H4 H 1.0583 0.2418 0.1209
C7 C 0.8761(3) 0.2994(3) 0.21548(14)
C8 C 0.7302(3) 0.0801(3) 0.14937(15)
C9 C 0.7325(3) 0.1415(3) 0.06625(15)
C10 C 0.7413(3) 0.0186(3) 0.01387(15)
C11 C 0.7457(3) -0.1599(3) 0.04723(15)
H5 H 0.7522 -0.2432 0.0124
C12 C 0.7409(4) -0.2189(3) 0.12952(16)
H6 H 0.7423 -0.3411 0.1507
C13 C 0.7341(3) -0.0990(3) 0.18106(15)
H7 H 0.7321 -0.1388 0.2377
C14 C 0.7222(4) 0.3341(3) 0.03169(15)
H8 H 0.6992 0.4009 0.0756
H9 H 0.6142 0.3600 -0.0040
H10 H 0.8465 0.3673 0.0010
C15 C 0.7481(4) 0.0776(4) -0.07602(15)
H11 H 0.8841 0.0999 -0.0970
H12 H 0.6663 0.1855 -0.0890
H13 H 0.6983 -0.0141 -0.1007
C16 C -0.2568(3) 0.8672(3) 0.48322(15)
H14 H -0.2578 0.9633 0.5144
H15 H -0.3555 0.8987 0.4426
C17 C -0.0558(3) 0.8469(3) 0.44113(14)
C18 C -0.0057(4) 0.9524(3) 0.36745(15)
H16 H -0.0984 1.0372 0.3428
C19 C 0.1808(3) 0.9330(3) 0.33008(15)
H17 H 0.2169 1.0035 0.2794
C20 C 0.3126(3) 0.8097(3) 0.36774(14)
H18 H 0.4399 0.7964 0.3419
C21 C 0.0861(3) 0.7263(3) 0.47475(14)
H19 H 0.0531 0.6532 0.5251
H20 H 0.6340 0.1764 0.2482
H21 H -0.3791 0.7267 0.5766
Cd1_2 Cd -0.5000 0.5000 0.5000
Cd1_3 Cd 1.5000 0.5000 0.5000
N1A N 0.2803(3) 0.7978(3) 0.79594(12)
N2A N 0.7319(3) 0.2924(2) 0.56045(11)
O1A O 0.4190(2) 0.7355(2) 0.64973(10)
O2A O 0.3260(2) 0.4837(2) 0.61953(9)
O3A O 1.3074(2) 0.2911(2) 0.46403(9)
O3_2 O 0.6926(2) 0.7089(2) 0.53597(9)
O3A_2 O 0.3074(2) 0.2911(2) 0.46403(9)
C1A C 0.3069(3) 0.6073(3) 0.65954(14)
C2A C 0.1346(3) 0.6033(3) 0.72141(14)
C3A C -0.0243(3) 0.5045(3) 0.71268(15)
H1A H -0.0159 0.4373 0.6710
C4A C -0.1945(4) 0.5026(3) 0.76372(15)
H2A H -0.3022 0.4360 0.7567
C5A C -0.2045(4) 0.5989(3) 0.82463(15)
H3A H -0.3208 0.5992 0.8595
C6A C -0.0488(3) 0.6950(3) 0.83596(14)
H4A H -0.0583 0.7582 0.8791
C7A C 0.1239(3) 0.7006(3) 0.78452(14)
C8A C 0.2698(3) 0.9199(3) 0.85063(15)
C9A C 0.2675(3) 0.8585(3) 0.93375(15)
C10A C 0.2587(3) 0.9814(3) 0.98613(15)
C11A C 0.2543(3) 1.1599(3) 0.95277(15)
H5A H 0.2478 1.2432 0.9876
C12A C 0.2591(4) 1.2189(3) 0.87048(16)
H6A H 0.2577 1.3411 0.8493
C13A C 0.2659(3) 1.0990(3) 0.81894(15)
H7A H 0.2679 1.1388 0.7623
C14A C 0.2778(4) 0.6659(3) 0.96831(15)
H8A H 0.3008 0.5991 0.9244
H9A H 0.3858 0.6400 1.0040
H10A H 0.1535 0.6327 0.9990
C15A C 0.2519(4) 0.9224(4) 1.07602(15)
H11A H 0.1159 0.9001 1.0970
H12A H 0.3337 0.8145 1.0890
H13A H 0.3017 1.0141 1.1007
C16A C 1.2568(3) 0.1328(3) 0.51678(15)
H14A H 1.2578 0.0367 0.4856
H15A H 1.3555 0.1013 0.5574
C17A C 1.0558(3) 0.1531(3) 0.55887(14)
C18A C 1.0057(4) 0.0476(3) 0.63255(15)
H16A H 1.0984 -0.0372 0.6572
C19A C 0.8192(3) 0.0670(3) 0.66992(15)
H17A H 0.7831 -0.0035 0.7206
C20A C 0.6874(3) 0.1903(3) 0.63226(14)
H18A H 0.5601 0.2036 0.6581
C21A C 0.9139(3) 0.2737(3) 0.52525(14)
H19A H 0.9469 0.3468 0.4749
H20A H 0.3660 0.8236 0.7518
H21A H 1.3791 0.2733 0.4234
H21_2 H 0.6209 0.7267 0.5766
H21A_2 H 0.3791 0.2733 0.4234
loop_
_geom_bond_atom_site_label_1
_geom_bond_atom_site_label_2
_geom_bond_site_symmetry_1
_geom_bond_site_symmetry_2
Cd1 N2 1_555 1_555
N1 C7 1_555 1_555
N2 C20 1_555 1_555
O1 C1 1_555 1_555
O2 Cd1 1_555 1_555
O3 C16 1_555 1_555
C1 O2 1_555 1_555
C2 C1 1_555 1_555
C3 C2 1_555 1_555
H1 C3 1_555 1_555
C4 C3 1_555 1_555
H2 C4 1_555 1_555
C5 C4 1_555 1_555
H3 C5 1_555 1_555
C6 C5 1_555 1_555
H4 C6 1_555 1_555
C7 C2 1_555 1_555
C8 N1 1_555 1_555
C9 C8 1_555 1_555
C10 C9 1_555 1_555
C11 C10 1_555 1_555
H5 C11 1_555 1_555
C12 C11 1_555 1_555
H6 C12 1_555 1_555
C13 C8 1_555 1_555
H7 C13 1_555 1_555
C14 C9 1_555 1_555
H8 C14 1_555 1_555
H9 C14 1_555 1_555
H10 C14 1_555 1_555
C15 C10 1_555 1_555
H11 C15 1_555 1_555
H12 C15 1_555 1_555
H13 C15 1_555 1_555
C16 H14 1_555 1_555
H15 C16 1_555 1_555
C17 C16 1_555 1_555
C18 C17 1_555 1_555
H16 C18 1_555 1_555
C19 C18 1_555 1_555
H17 C19 1_555 1_555
C20 C19 1_555 1_555
H18 C20 1_555 1_555
C21 N2 1_555 1_555
H19 C21 1_555 1_555
H20 N1 1_555 1_555
H21 O3 1_555 1_555
Cd1_2 O3 1_555 1_555
Cd1_3 O3A 1_555 1_555
N1A C7A 1_555 1_555
N2A Cd1 1_555 1_555
O1A C1A 1_555 1_555
O2A Cd1 1_555 1_555
O3A C16A 1_555 1_555
O3_2 Cd1 1_555 1_555
O3A_2 Cd1 1_555 1_555
C1A O2A 1_555 1_555
C2A C1A 1_555 1_555
C3A C2A 1_555 1_555
H1A C3A 1_555 1_555
C4A C3A 1_555 1_555
H2A C4A 1_555 1_555
C5A C4A 1_555 1_555
H3A C5A 1_555 1_555
C6A C5A 1_555 1_555
H4A C6A 1_555 1_555
C7A C2A 1_555 1_555
C8A N1A 1_555 1_555
C9A C8A 1_555 1_555
C10A C9A 1_555 1_555
C11A C10A 1_555 1_555
H5A C11A 1_555 1_555
C12A C11A 1_555 1_555
H6A C12A 1_555 1_555
C13A C8A 1_555 1_555
H7A C13A 1_555 1_555
C14A C9A 1_555 1_555
H8A C14A 1_555 1_555
H9A C14A 1_555 1_555
H10A C14A 1_555 1_555
C15A C10A 1_555 1_555
H11A C15A 1_555 1_555
H12A C15A 1_555 1_555
H13A C15A 1_555 1_555
C16A H14A 1_555 1_555
H15A C16A 1_555 1_555
C17A C16A 1_555 1_555
C18A C17A 1_555 1_555
H16A C18A 1_555 1_555
C19A C18A 1_555 1_555
H17A C19A 1_555 1_555
C20A N2A 1_555 1_555
H18A C20A 1_555 1_555
C21A N2A 1_555 1_555
H19A C21A 1_555 1_555
H20A N1A 1_555 1_555
H21A O3A 1_555 1_555
H21_2 O3_2 1_555 1_555
H21A_2 O3A_2 1_555 1_555
C6 C7 1_555 1_555
C12 C13 1_555 1_555
C17 C21 1_555 1_555
C6A C7A 1_555 1_555
C12A C13A 1_555 1_555
C17A C21A 1_555 1_555
C19A C20A 1_555 1_555

#END
