
#######################################################################
#
#                 Cambridge Crystallographic Data Centre
#                                CCDC 
#
#######################################################################
#
# If this CIF has been generated from an entry in the Cambridge 
# Structural Database, then it will include bibliographic, chemical, 
# crystal, experimental, refinement or atomic coordinate data resulting 
# from the CCDC's data processing and validation procedures.
#
#######################################################################

data_KIWNIN
_symmetry_cell_setting           monoclinic
_symmetry_space_group_name_H-M   'P 21'
_symmetry_Int_Tables_number      4
_space_group_name_Hall           'P 2yb'
loop_
_symmetry_equiv_pos_site_id
_symmetry_equiv_pos_as_xyz
1 x,y,z
2 -x,1/2+y,-z
_cell_length_a                   8.471(2)
_cell_length_b                   15.678(4)
_cell_length_c                   9.722(2)
_cell_angle_alpha                90
_cell_angle_beta                 112.77(2)
_cell_angle_gamma                90
_cell_volume                     1190.54
loop_
_atom_site_label
_atom_site_type_symbol
_atom_site_fract_x
_atom_site_fract_y
_atom_site_fract_z
Fe1 Fe 0.0377(1) 0.0000 0.2861(1)
C1 C 0.0588(4) 0.1234(2) 0.2848(3)
N1 N 0.0703(4) 0.1953(2) 0.2877(3)
C2 C 0.2575(3) -0.0056(2) 0.4485(2)
N2 N 0.3816(3) -0.0086(2) 0.5521(2)
C3 C -0.0520(4) 0.0152(2) 0.4400(3)
N3 N -0.0950(4) 0.0241(2) 0.5379(3)
C4 C 0.1451(4) -0.0061(2) 0.1414(2)
N4 N 0.2124(4) -0.0127(2) 0.0602(2)
C5 C -0.1833(3) 0.0097(2) 0.1227(2)
N5 N -0.3103(3) 0.0118(2) 0.0207(2)
N6 N 0.0140(3) -0.1237(1) 0.2881(2)
C6 C -0.0634(4) -0.1726(2) 0.1689(3)
C7 C 0.0695(4) -0.1789(2) 0.4079(3)
C8 C 0.0264(5) -0.2597(2) 0.3571(4)
N7 N -0.0565(3) -0.2546(2) 0.2074(3)
C9 C -0.1260(3) -0.3254(2) 0.1038(4)
Mg1 Mg 0.5400(1) -0.0004(1) 0.7852(1)
N8 N 0.5259(3) -0.1395(2) 0.8095(3)
C10 C 0.5351(5) -0.1994(2) 0.7196(4)
C11 C 0.4638(6) -0.1792(2) 0.9048(4)
C12 C 0.4371(6) -0.2631(2) 0.8675(5)
N9 N 0.4811(4) -0.2754(2) 0.7498(3)
C13 C 0.4739(7) -0.3555(3) 0.6676(6)
N10 N 0.5443(3) 0.1383(2) 0.7596(2)
C14 C 0.6829(5) 0.1898(2) 0.8305(4)
C15 C 0.6434(5) 0.2720(2) 0.7909(4)
C16 C 0.4232(5) 0.1909(2) 0.6777(4)
N11 N 0.4753(4) 0.2721(2) 0.6933(3)
C17 C 0.3700(6) 0.3469(2) 0.6229(5)
O3 O 0.3059(2) 0.0080(2) 0.8133(2)
O4 O 0.7592(3) -0.0146(2) 0.7473(2)
H1 H -0.1169 -0.1517 0.0686
H2 H 0.1287 -0.1628 0.5104
H3 H 0.0501 -0.3108 0.4162
H4 H -0.2484 -0.3258 0.0711
H5 H -0.0805 -0.3783 0.1530
H6 H -0.0953 -0.3186 0.0192
H7 H 0.5750 -0.1903 0.6409
H8 H 0.4432 -0.1521 0.9848
H9 H 0.3944 -0.3054 0.9157
H10 H 0.4345 -0.3439 0.5627
H11 H 0.3964 -0.3943 0.6857
H12 H 0.5860 -0.3805 0.7016
H13 H 0.7928 0.1702 0.8986
H14 H 0.7174 0.3206 0.8249
H15 H 0.3100 0.1731 0.6141
H16 H 0.4310 0.3829 0.5805
H17 H 0.3453 0.3781 0.6972
H18 H 0.2647 0.3285 0.5459
H19 H 0.2810 -0.0053 0.8707
H20 H 0.2028 0.0005 0.7309
H21 H 0.7792(40) 0.0021(24) 0.6815(35)
H22 H 0.8237(41) -0.0564(22) 0.7659(34)
Mg1_2 Mg -0.4600(1) -0.0004(1) -0.2148(1)
N5_2 N 0.6897(3) 0.0118(2) 1.0207(2)
O1 O 0.0190(4) 0.3518(2) 0.1466(3)
O2? O -0.0065(15) 0.3657(7) 0.1966(11)
loop_
_geom_bond_atom_site_label_1
_geom_bond_atom_site_label_2
_geom_bond_site_symmetry_1
_geom_bond_site_symmetry_2
Fe1 C1 1_555 1_555
C1 N1 1_555 1_555
C2 Fe1 1_555 1_555
N2 C2 1_555 1_555
C3 Fe1 1_555 1_555
N3 C3 1_555 1_555
C4 Fe1 1_555 1_555
N4 C4 1_555 1_555
C5 Fe1 1_555 1_555
N5 C5 1_555 1_555
N6 Fe1 1_555 1_555
C6 N6 1_555 1_555
C7 N6 1_555 1_555
C8 C7 1_555 1_555
N7 C6 1_555 1_555
C9 N7 1_555 1_555
Mg1 N2 1_555 1_555
N8 Mg1 1_555 1_555
C10 N8 1_555 1_555
C11 N8 1_555 1_555
C12 C11 1_555 1_555
N9 C10 1_555 1_555
C13 N9 1_555 1_555
N10 Mg1 1_555 1_555
C14 N10 1_555 1_555
C15 C14 1_555 1_555
C16 N10 1_555 1_555
N11 C15 1_555 1_555
C17 N11 1_555 1_555
O3 Mg1 1_555 1_555
O4 Mg1 1_555 1_555
H1 C6 1_555 1_555
H2 C7 1_555 1_555
H3 C8 1_555 1_555
H4 C9 1_555 1_555
H5 C9 1_555 1_555
H6 C9 1_555 1_555
H7 C10 1_555 1_555
H8 C11 1_555 1_555
H9 C12 1_555 1_555
H10 C13 1_555 1_555
H11 C13 1_555 1_555
H12 C13 1_555 1_555
H13 C14 1_555 1_555
H14 C15 1_555 1_555
H15 C16 1_555 1_555
H16 C17 1_555 1_555
H17 C17 1_555 1_555
H18 C17 1_555 1_555
H19 O3 1_555 1_555
H20 O3 1_555 1_555
H21 O4 1_555 1_555
H22 O4 1_555 1_555
Mg1_2 N5 1_555 1_555
N5_2 Mg1 1_555 1_555
C8 N7 1_555 1_555
C12 N9 1_555 1_555
C16 N11 1_555 1_555

#END
