
#######################################################################
#
#                 Cambridge Crystallographic Data Centre
#                                CCDC 
#
#######################################################################
#
# If this CIF has been generated from an entry in the Cambridge 
# Structural Database, then it will include bibliographic, chemical, 
# crystal, experimental, refinement or atomic coordinate data resulting 
# from the CCDC's data processing and validation procedures.
#
#######################################################################

data_KIWPUC01
_symmetry_cell_setting           orthorhombic
_symmetry_space_group_name_H-M   'P b c a'
_symmetry_Int_Tables_number      61
_space_group_name_Hall           '-P 2ac 2ab'
loop_
_symmetry_equiv_pos_site_id
_symmetry_equiv_pos_as_xyz
1 x,y,z
2 1/2+x,1/2-y,-z
3 -x,1/2+y,1/2-z
4 1/2-x,-y,1/2+z
5 -x,-y,-z
6 1/2-x,1/2+y,z
7 x,1/2-y,1/2+z
8 1/2+x,y,1/2-z
_cell_length_a                   12.903(5)
_cell_length_b                   9.022(4)
_cell_length_c                   24.54(1)
_cell_angle_alpha                90
_cell_angle_beta                 90
_cell_angle_gamma                90
_cell_volume                     2856.72
loop_
_atom_site_label
_atom_site_type_symbol
_atom_site_fract_x
_atom_site_fract_y
_atom_site_fract_z
Ag1 Ag 0.16609(3) 0.11063(4) -0.00178(1)
O1 O 0.1861(2) -0.3552(4) -0.2362(1)
N1 N 0.1991(3) -0.0193(4) -0.0738(1)
N2 N 0.3651(3) -0.2164(4) -0.4246(1)
N3 N 0.3578(2) -0.3405(4) -0.2216(1)
C1 C 0.1252(3) -0.0760(6) -0.1041(2)
C2 C 0.1424(3) -0.1705(5) -0.1470(2)
C3 C 0.2420(3) -0.2091(4) -0.1607(1)
C4 C 0.3211(3) -0.1505(5) -0.1295(2)
C5 C 0.2959(3) -0.0568(5) -0.0868(2)
C6 C 0.3419(3) -0.1423(4) -0.3784(2)
C7 C 0.3484(3) -0.2063(4) -0.3276(1)
C8 C 0.3772(3) -0.3524(4) -0.3222(1)
C9 C 0.4019(3) -0.4289(4) -0.3702(1)
C10 C 0.3943(4) -0.3580(5) -0.4198(1)
C11 C 0.2597(3) -0.3094(4) -0.2093(1)
C12 C 0.3850(3) -0.4323(4) -0.2683(1)
H1 H 0.0555 -0.0519 -0.0956
H2 H 0.0855 -0.2077 -0.1674
H3 H 0.3915 -0.1743 -0.1369
H4 H 0.3512 -0.0172 -0.0657
H5 H 0.3203 -0.0416 -0.3812
H6 H 0.3330 -0.1489 -0.2962
H7 H 0.4245 -0.5291 -0.3685
H8 H 0.4110 -0.4116 -0.4519
H9 H 0.4121 -0.3023 -0.1993
H10 H 0.3395 -0.5145 -0.2689
H11 H 0.4542 -0.4651 -0.2638
Ag1C Ag 0.33391(3) -0.11063(4) -0.50178(1)
N2C N 0.1349(3) 0.2164(4) 0.0754(1)
O2 O -0.1325(4) 0.3285(6) 0.4344(2)
O3 O 0.0032(3) 0.2102(7) 0.4520(2)
O4 O -0.1254(4) 0.1899(5) 0.5034(1)
N4 N -0.0831(3) 0.2504(4) 0.4644(1)
O5 O -0.0553(2) 0.2953(3) 0.3257(1)
loop_
_geom_bond_atom_site_label_1
_geom_bond_atom_site_label_2
_geom_bond_site_symmetry_1
_geom_bond_site_symmetry_2
Ag1 N1 1_555 1_555
O1 C11 1_555 1_555
O2 N4 1_555 1_555
O3 N4 1_555 1_555
O4 N4 1_555 1_555
N1 C1 1_555 1_555
N2 C6 1_555 1_555
N3 C11 1_555 1_555
C1 C2 1_555 1_555
C2 C3 1_555 1_555
C3 C4 1_555 1_555
C4 C5 1_555 1_555
C5 N1 1_555 1_555
C6 C7 1_555 1_555
C7 C8 1_555 1_555
C8 C9 1_555 1_555
C9 C10 1_555 1_555
C10 N2 1_555 1_555
C11 C3 1_555 1_555
C12 N3 1_555 1_555
H1 C1 1_555 1_555
H2 C2 1_555 1_555
H3 C4 1_555 1_555
H4 C5 1_555 1_555
H5 C6 1_555 1_555
H6 C7 1_555 1_555
H7 C9 1_555 1_555
H8 C10 1_555 1_555
H9 N3 1_555 1_555
H10 C12 1_555 1_555
H11 C12 1_555 1_555
Ag1C N2 1_555 1_555
N2C Ag1 1_555 1_555
C8 C12 1_555 1_555

#END
