
#######################################################################
#
#                 Cambridge Crystallographic Data Centre
#                                CCDC 
#
#######################################################################
#
# If this CIF has been generated from an entry in the Cambridge 
# Structural Database, then it will include bibliographic, chemical, 
# crystal, experimental, refinement or atomic coordinate data resulting 
# from the CCDC's data processing and validation procedures.
#
#######################################################################

data_KIWPOW
_symmetry_cell_setting           triclinic
_symmetry_space_group_name_H-M   'P -1'
_symmetry_Int_Tables_number      2
_space_group_name_Hall           '-P 1'
loop_
_symmetry_equiv_pos_site_id
_symmetry_equiv_pos_as_xyz
1 x,y,z
2 -x,-y,-z
_cell_length_a                   12.5716(4)
_cell_length_b                   13.7737(2)
_cell_length_c                   15.8867(3)
_cell_angle_alpha                75.301(4)
_cell_angle_beta                 69.112(2)
_cell_angle_gamma                65.617(2)
_cell_volume                     2322.45
loop_
_atom_site_label
_atom_site_type_symbol
_atom_site_fract_x
_atom_site_fract_y
_atom_site_fract_z
Tm1 Tm -0.31816(2) 0.12071(2) 0.463579(18)
Tm2 Tm -0.00120(2) 0.00357(2) 0.241350(18)
Tm3 Tm -0.30710(2) 0.11202(2) -0.002950(18)
Tm4 Tm 0.48514(2) -0.04932(2) 0.258510(18)
O1 O -0.1567(4) 0.1696(5) 0.4135(4)
O2 O 0.0298(4) 0.0745(4) 0.3378(3)
O3 O 0.2956(4) 0.0633(4) 0.3023(3)
O4 O 0.2189(4) -0.0054(4) 0.4425(3)
O5 O -0.3224(4) 0.1930(4) 0.3206(3)
O6 O -0.1474(4) 0.1583(4) 0.2105(3)
O7 O -0.3531(4) 0.1884(4) 0.1302(3)
O8 O -0.3630(4) 0.3019(4) 0.0065(3)
O9 O -0.0324(4) -0.0860(4) 0.1619(3)
O10 O 0.1308(4) -0.1341(4) 0.0439(4)
O11 O -0.3142(4) -0.1192(4) 0.2113(3)
O12 O -0.2293(4) -0.0281(4) 0.0877(3)
O13 O -0.1513(4) 0.1479(4) 0.7335(3)
O14 O -0.3183(4) 0.1874(4) 0.8517(3)
O15 O -0.3801(4) 0.2562(4) 0.5475(3)
O16 O -0.3972(5) 0.1774(4) 0.6903(3)
O17 O 0.4870(4) 0.1881(4) 0.0108(3)
O18 O 0.4869(4) 0.0711(4) 0.1315(3)
O19 O 0.3293(4) 0.0348(4) 0.0425(3)
O20 O 0.1436(4) 0.0430(4) 0.1219(3)
O21 O -0.4977(4) 0.1011(4) 0.5962(3)
O22 O -0.5267(4) 0.1920(4) 0.4665(3)
O23 O -0.8542(4) 0.0407(4) 0.6419(3)
O24 O -0.6686(4) 0.0309(4) 0.5611(3)
O25 O 0.5258(5) -0.1444(5) 0.1427(3)
O26 O 0.5219(5) 0.0892(5) 0.2904(4)
C1 C -0.0433(6) 0.1453(6) 0.3882(4)
C2 C 0.0057(6) 0.2099(6) 0.4160(4)
C3 C -0.0740(7) 0.3070(6) 0.4508(5)
H1 H -0.1578 0.3266 0.4630
C4 C -0.0269(8) 0.3731(7) 0.4667(6)
H2 H -0.0795 0.4363 0.4915
C5 C 0.0940(8) 0.3469(7) 0.4466(6)
H3 H 0.1237 0.3949 0.4541
C6 C 0.1761(7) 0.2499(7) 0.4150(5)
H4 H 0.2595 0.2316 0.4032
C7 C 0.1294(6) 0.1807(5) 0.4014(4)
C8 C 0.2211(6) 0.0706(6) 0.3786(5)
C9 C -0.2531(5) 0.2181(5) 0.2461(4)
C10 C -0.3008(6) 0.3307(6) 0.2024(4)
C11 C -0.2968(7) 0.4109(6) 0.2387(5)
H5 H -0.2646 0.3919 0.2874
C12 C -0.3396(8) 0.5178(7) 0.2041(5)
H6 H -0.3377 0.5702 0.2301
C13 C -0.3853(7) 0.5465(6) 0.1304(6)
H7 H -0.4120 0.6182 0.1057
C14 C -0.3913(7) 0.4700(6) 0.0937(5)
H8 H -0.4231 0.4901 0.0447
C15 C -0.3498(6) 0.3608(6) 0.1294(4)
C16 C -0.3577(5) 0.2801(6) 0.0867(4)
C17 C 0.0328(6) -0.1417(5) 0.0971(5)
C18 C -0.0077(6) -0.2241(6) 0.0859(4)
C19 C 0.0831(6) -0.3190(6) 0.0542(5)
H9 H 0.1648 -0.3266 0.0367
C20 C 0.0510(8) -0.4018(7) 0.0489(6)
H10 H 0.1114 -0.4645 0.0272
C21 C -0.0675(7) -0.3920(7) 0.0751(6)
H11 H -0.0882 -0.4479 0.0711
C22 C -0.1584(6) -0.2989(6) 0.1079(5)
H12 H -0.2395 -0.2932 0.1269
C23 C -0.1287(6) -0.2141(6) 0.1125(4)
C24 C -0.2311(5) -0.1127(6) 0.1400(4)
C25 C -0.2553(6) 0.2075(6) 0.7724(4)
C26 C -0.3052(5) 0.3180(5) 0.7224(4)
C27 C -0.2949(7) 0.4028(6) 0.7473(5)
H13 H -0.2622 0.3910 0.7947
C28 C -0.3340(8) 0.5060(7) 0.7008(6)
H14 H -0.3290 0.5631 0.7184
C29 C -0.3802(8) 0.5236(6) 0.6288(6)
H15 H -0.4050 0.5921 0.5975
C30 C -0.3891(7) 0.4394(6) 0.6040(5)
H16 H -0.4182 0.4510 0.5547
C31 C -0.3552(6) 0.3363(6) 0.6517(4)
C32 C -0.3785(6) 0.2512(6) 0.6269(4)
C33 C 0.4302(5) 0.1514(5) 0.0863(4)
C34 C 0.2981(5) 0.2149(5) 0.1220(4)
C35 C 0.2714(7) 0.3091(6) 0.1544(5)
H17 H 0.3344 0.3291 0.1526
C36 C 0.1533(7) 0.3730(7) 0.1891(6)
H18 H 0.1366 0.4350 0.2122
C37 C 0.0585(7) 0.3461(7) 0.1900(6)
H19 H -0.0218 0.3908 0.2120
C38 C 0.0842(6) 0.2520(6) 0.1578(5)
H20 H 0.0207 0.2334 0.1585
C39 C 0.2038(5) 0.1850(5) 0.1247(4)
C40 C 0.2282(6) 0.0829(6) 0.0942(4)
C41 C -0.5685(6) 0.1676(5) 0.5502(4)
C42 C -0.6987(5) 0.2301(5) 0.5971(4)
C43 C -0.7210(7) 0.3312(6) 0.6131(5)
H21 H -0.6574 0.3570 0.5941
C44 C -0.8384(7) 0.3961(7) 0.6576(5)
H22 H -0.8523 0.4632 0.6706
C45 C -0.9334(7) 0.3585(6) 0.6820(5)
H23 H -1.0123 0.4019 0.7094
C46 C -0.9118(6) 0.2577(6) 0.6661(5)
H24 H -0.9765 0.2336 0.6830
C47 C -0.7946(5) 0.1908(6) 0.6248(4)
C48 C -0.7720(6) 0.0824(6) 0.6094(4)
H25 H 0.472(6) -0.165(7) 0.146(5)
H26 H 0.560(7) -0.127(7) 0.0899(18)
H27 H 0.578(5) 0.096(7) 0.246(3)
H28 H 0.519(7) 0.107(7) 0.337(3)
Tm1A Tm 0.31816(2) -0.12071(2) 0.536421(18)
Tm1A_2 Tm -0.68184(2) -0.12071(2) 0.536421(18)
Tm2A Tm 0.00120(2) -0.00357(2) 0.758650(18)
Tm2A_2 Tm -0.99880(2) -0.00357(2) 0.758650(18)
Tm3A Tm 0.30710(2) -0.11202(2) 0.002950(18)
Tm3_2 Tm -0.30710(2) 0.11202(2) 0.997050(18)
Tm3_3 Tm 0.69290(2) 0.11202(2) -0.002950(18)
Tm4_2 Tm -0.51486(2) -0.04932(2) 0.258510(18)
Tm4A Tm -0.48514(2) 0.04932(2) 0.741490(18)
O4A O -0.2189(4) 0.0054(4) 0.5575(3)
O10A O -0.1308(4) 0.1341(4) -0.0439(4)
O11_2 O 0.6858(4) -0.1192(4) 0.2113(3)
O13A O 0.1513(4) -0.1479(4) 0.2665(3)
O14_2 O -0.3183(4) 0.1874(4) -0.1483(3)
O16A O 0.3972(5) -0.1774(4) 0.3097(3)
O17_2 O -0.5130(4) 0.1881(4) 0.0108(3)
O18_2 O -0.5131(4) 0.0711(4) 0.1315(3)
O19A O -0.3293(4) -0.0348(4) -0.0425(3)
O20A O -0.1436(4) -0.0430(4) -0.1219(3)
O21A O 0.4977(4) -0.1011(4) 0.4038(3)
O23A O -0.1458(4) -0.0407(4) 0.3581(3)
O24A O -0.3314(4) -0.0309(4) 0.4389(3)
loop_
_geom_bond_atom_site_label_1
_geom_bond_atom_site_label_2
_geom_bond_site_symmetry_1
_geom_bond_site_symmetry_2
Tm1 O1 1_555 1_555
Tm2 O2 1_555 1_555
Tm3 O7 1_555 1_555
Tm4 O3 1_555 1_555
O1 C1 1_555 1_555
O2 C1 1_555 1_555
O3 C8 1_555 1_555
O4 C8 1_555 1_555
O5 Tm1 1_555 1_555
O6 Tm2 1_555 1_555
O7 C16 1_555 1_555
O8 Tm3 1_555 1_555
O9 Tm2 1_555 1_555
O10 C17 1_555 1_555
O11 C24 1_555 1_555
O12 Tm3 1_555 1_555
O13 C25 1_555 1_555
O14 C25 1_555 1_555
O15 Tm1 1_555 1_555
O16 C32 1_555 1_555
O17 C33 1_555 1_555
O18 Tm4 1_555 1_555
O19 C40 1_555 1_555
O20 Tm2 1_555 1_555
O21 Tm1 1_555 1_555
O22 Tm1 1_555 1_555
O23 C48 1_555 1_555
O24 C48 1_555 1_555
O25 Tm4 1_555 1_555
O26 Tm4 1_555 1_555
C1 C2 1_555 1_555
C2 C3 1_555 1_555
C3 H1 1_555 1_555
C4 C3 1_555 1_555
H2 C4 1_555 1_555
C5 C4 1_555 1_555
H3 C5 1_555 1_555
C6 C5 1_555 1_555
H4 C6 1_555 1_555
C7 C2 1_555 1_555
C8 C7 1_555 1_555
C9 O5 1_555 1_555
C10 C9 1_555 1_555
C11 C10 1_555 1_555
H5 C11 1_555 1_555
C12 C11 1_555 1_555
H6 C12 1_555 1_555
C13 C12 1_555 1_555
H7 C13 1_555 1_555
C14 C13 1_555 1_555
H8 C14 1_555 1_555
C15 C10 1_555 1_555
C16 O8 1_555 1_555
C17 O9 1_555 1_555
C18 C17 1_555 1_555
C19 C18 1_555 1_555
H9 C19 1_555 1_555
C20 C19 1_555 1_555
H10 C20 1_555 1_555
C21 C20 1_555 1_555
H11 C21 1_555 1_555
C22 C21 1_555 1_555
H12 C22 1_555 1_555
C23 C18 1_555 1_555
C24 O12 1_555 1_555
C25 C26 1_555 1_555
C26 C27 1_555 1_555
C27 H13 1_555 1_555
C28 C27 1_555 1_555
H14 C28 1_555 1_555
C29 C28 1_555 1_555
H15 C29 1_555 1_555
C30 C29 1_555 1_555
H16 C30 1_555 1_555
C31 C26 1_555 1_555
C32 O15 1_555 1_555
C33 O18 1_555 1_555
C34 C33 1_555 1_555
C35 C34 1_555 1_555
H17 C35 1_555 1_555
C36 C35 1_555 1_555
H18 C36 1_555 1_555
C37 C36 1_555 1_555
H19 C37 1_555 1_555
C38 C37 1_555 1_555
H20 C38 1_555 1_555
C39 C34 1_555 1_555
C40 O20 1_555 1_555
C41 O21 1_555 1_555
C42 C41 1_555 1_555
C43 C42 1_555 1_555
H21 C43 1_555 1_555
C44 C43 1_555 1_555
H22 C44 1_555 1_555
C45 C44 1_555 1_555
H23 C45 1_555 1_555
C46 C45 1_555 1_555
H24 C46 1_555 1_555
C47 C42 1_555 1_555
C48 C47 1_555 1_555
H25 O25 1_555 1_555
H26 O25 1_555 1_555
H27 O26 1_555 1_555
H28 O26 1_555 1_555
Tm1A O4 1_555 1_555
Tm1A_2 O23 1_555 1_555
Tm2A O13 1_555 1_555
Tm2A_2 O23 1_555 1_555
Tm3A O10 1_555 1_555
Tm3_2 O14 1_555 1_555
Tm3_3 O17 1_555 1_555
Tm4_2 O11 1_555 1_555
Tm4A O16 1_555 1_555
O4A Tm1 1_555 1_555
O10A Tm3 1_555 1_555
O11_2 Tm4 1_555 1_555
O13A Tm2 1_555 1_555
O14_2 Tm3 1_555 1_555
O16A Tm4 1_555 1_555
O17_2 Tm3 1_555 1_555
O18_2 Tm3 1_555 1_555
O19A Tm3 1_555 1_555
O20A Tm3 1_555 1_555
O21A Tm4 1_555 1_555
O23A Tm1 1_555 1_555
O24A Tm1 1_555 1_555
Tm2 O23A 1_555 1_555
O6 C9 1_555 1_555
O18 Tm3_3 1_555 1_555
O19 Tm3A 1_555 1_555
O20 Tm3A 1_555 1_555
O21 Tm4A 1_555 1_555
O22 C41 1_555 1_555
O24 Tm1A_2 1_555 1_555
C6 C7 1_555 1_555
C14 C15 1_555 1_555
C15 C16 1_555 1_555
C22 C23 1_555 1_555
C23 C24 1_555 1_555
C30 C31 1_555 1_555
C31 C32 1_555 1_555
C38 C39 1_555 1_555
C39 C40 1_555 1_555
C46 C47 1_555 1_555
Tm1A O21A 1_555 1_555
Tm4_2 O18_2 1_555 1_555

#END
