
#######################################################################
#
#                 Cambridge Crystallographic Data Centre
#                                CCDC 
#
#######################################################################
#
# If this CIF has been generated from an entry in the Cambridge 
# Structural Database, then it will include bibliographic, chemical, 
# crystal, experimental, refinement or atomic coordinate data resulting 
# from the CCDC's data processing and validation procedures.
#
#######################################################################

data_KIWPUC
_symmetry_cell_setting           orthorhombic
_symmetry_space_group_name_H-M   'P b c a'
_symmetry_Int_Tables_number      61
_space_group_name_Hall           '-P 2ac 2ab'
loop_
_symmetry_equiv_pos_site_id
_symmetry_equiv_pos_as_xyz
1 x,y,z
2 1/2-x,-y,1/2+z
3 1/2+x,1/2-y,-z
4 -x,1/2+y,1/2-z
5 -x,-y,-z
6 1/2+x,y,1/2-z
7 1/2-x,1/2+y,z
8 x,1/2-y,1/2+z
_cell_length_a                   12.912(7)
_cell_length_b                   9.021(5)
_cell_length_c                   24.520(10)
_cell_angle_alpha                90
_cell_angle_beta                 90
_cell_angle_gamma                90
_cell_volume                     2856.07
loop_
_atom_site_label
_atom_site_type_symbol
_atom_site_fract_x
_atom_site_fract_y
_atom_site_fract_z
Ag1 Ag 0.16581(3) 0.61149(5) 0.002207(15)
O1 O 0.1859(3) 0.1438(4) 0.23653(13)
N1 N 0.1990(3) 0.4795(4) 0.07408(14)
N2 N 0.3572(3) 0.1578(4) 0.22161(14)
H3 H 0.408(3) 0.198(5) 0.2048(19)
N3 N 0.3656(3) 0.2837(4) 0.42466(15)
C1 C 0.1231(4) 0.4240(6) 0.1046(2)
H4 H 0.0551 0.4506 0.0967
C2 C 0.1412(4) 0.3281(6) 0.14763(19)
H5 H 0.0859 0.2895 0.1674
C3 C 0.2413(3) 0.2900(4) 0.16112(14)
C4 C 0.3201(4) 0.3498(6) 0.1298(2)
H6 H 0.3890 0.3279 0.1376
C5 C 0.2952(4) 0.4425(6) 0.08692(19)
H7 H 0.3489 0.4809 0.0659
C6 C 0.2592(4) 0.1894(5) 0.20953(15)
C7 C 0.3844(4) 0.0665(5) 0.26853(17)
H8 H 0.4547 0.0307 0.2639
H9 H 0.3390 -0.0191 0.2694
C8 C 0.3770(3) 0.1465(4) 0.32274(16)
C9 C 0.3479(4) 0.2929(5) 0.32757(19)
H10 H 0.3325 0.3486 0.2967
C10 C 0.3418(4) 0.3559(5) 0.3786(2)
H11 H 0.3201 0.4540 0.3812
C11 C 0.3960(4) 0.1419(5) 0.41994(18)
H12 H 0.4134 0.0895 0.4513
C12 C 0.4021(4) 0.0715(5) 0.37027(17)
H13 H 0.4233 -0.0270 0.3686
Ag1A Ag 0.33419(3) 0.38851(5) 0.502207(15)
N3A N 0.1344(3) 0.7163(4) -0.07534(15)
O2 O 0.3756(4) 0.6914(6) 0.00374(16)
O3 O 0.5035(4) 0.7095(7) -0.0481(2)
O4 O 0.3682(5) 0.8329(7) -0.0644(2)
N4 N 0.4163(3) 0.7500(4) -0.03557(16)
O5 O 0.5539(3) 0.2042(5) 0.17401(17)
H1 H 0.608(3) 0.189(8) 0.193(2)
H2 H 0.562(8) 0.176(10) 0.1412(13)
loop_
_geom_bond_atom_site_label_1
_geom_bond_atom_site_label_2
_geom_bond_site_symmetry_1
_geom_bond_site_symmetry_2
Ag1 N1 1_555 1_555
O1 C6 1_555 1_555
O2 N4 1_555 1_555
O3 N4 1_555 1_555
O4 N4 1_555 1_555
O5 H1 1_555 1_555
H2 O5 1_555 1_555
N1 C1 1_555 1_555
N2 H3 1_555 1_555
N3 C10 1_555 1_555
C1 H4 1_555 1_555
C2 C1 1_555 1_555
H5 C2 1_555 1_555
C3 C2 1_555 1_555
C4 C3 1_555 1_555
H6 C4 1_555 1_555
C5 N1 1_555 1_555
H7 C5 1_555 1_555
C6 N2 1_555 1_555
C7 N2 1_555 1_555
H8 C7 1_555 1_555
H9 C7 1_555 1_555
C8 C7 1_555 1_555
C9 C8 1_555 1_555
H10 C9 1_555 1_555
C10 C9 1_555 1_555
H11 C10 1_555 1_555
C11 N3 1_555 1_555
H12 C11 1_555 1_555
C12 C8 1_555 1_555
H13 C12 1_555 1_555
Ag1A N3 1_555 1_555
N3A Ag1 1_555 1_555
C3 C6 1_555 1_555
C4 C5 1_555 1_555
C11 C12 1_555 1_555

#END
