
#######################################################################
#
#                 Cambridge Crystallographic Data Centre
#                                CCDC 
#
#######################################################################
#
# If this CIF has been generated from an entry in the Cambridge 
# Structural Database, then it will include bibliographic, chemical, 
# crystal, experimental, refinement or atomic coordinate data resulting 
# from the CCDC's data processing and validation procedures.
#
#######################################################################

data_KIWPOW01
_symmetry_cell_setting           triclinic
_symmetry_space_group_name_H-M   'P -1'
_symmetry_Int_Tables_number      2
_space_group_name_Hall           '-P 1'
loop_
_symmetry_equiv_pos_site_id
_symmetry_equiv_pos_as_xyz
1 x,y,z
2 -x,-y,-z
_cell_length_a                   12.5598(4)
_cell_length_b                   13.7827(4)
_cell_length_c                   15.9026(5)
_cell_angle_alpha                75.286(2)
_cell_angle_beta                 69.048(2)
_cell_angle_gamma                65.654(2)
_cell_volume                     2323.78
loop_
_atom_site_label
_atom_site_type_symbol
_atom_site_fract_x
_atom_site_fract_y
_atom_site_fract_z
C1 C 0.5063(4) 0.2251(3) 0.4142(3)
C2 C 0.4168(4) 0.3192(3) 0.4451(3)
H1 H 0.3352 0.3266 0.4622
C3 C 0.4475(5) 0.4027(4) 0.4507(3)
H2 H 0.3868 0.4655 0.4720
C4 C 0.5685(5) 0.3919(4) 0.4246(3)
H3 H 0.5895 0.4477 0.4281
C5 C 0.6587(4) 0.2988(3) 0.3931(3)
H4 H 0.7402 0.2923 0.3753
C6 C 0.6281(4) 0.2144(3) 0.3880(2)
C7 C 0.4669(4) 0.1417(3) 0.4031(3)
C8 C 0.7296(4) 0.1132(3) 0.3605(3)
C9 C 0.8497(4) -0.3614(3) 0.3717(3)
C10 C 0.8899(4) -0.4686(3) 0.4069(3)
H5 H 0.9206 -0.4883 0.4563
C11 C 0.8852(5) -0.5471(4) 0.3699(3)
H6 H 0.9133 -0.6188 0.3940
C12 C 0.8388(5) -0.5181(4) 0.2975(3)
H7 H 0.8351 -0.5703 0.2725
C13 C 0.7973(4) -0.4111(4) 0.2613(3)
H8 H 0.7667 -0.3923 0.2119
C14 C 0.8011(4) -0.3319(3) 0.2980(2)
C15 C 0.8572(4) -0.2794(3) 0.4136(3)
C16 C 0.7535(4) -0.2182(3) 0.2536(2)
C17 C 0.2963(4) -0.1853(3) 0.3747(2)
C18 C 0.4156(4) -0.2524(3) 0.3424(3)
H9 H 0.4793 -0.2347 0.3429
C19 C 0.4408(4) -0.3456(4) 0.3093(3)
H10 H 0.5213 -0.3893 0.2860
C20 C 0.3468(5) -0.3734(4) 0.3110(3)
H11 H 0.3634 -0.4355 0.2881
C21 C 0.2281(4) -0.3091(4) 0.3466(3)
H12 H 0.1647 -0.3298 0.3500
C22 C 0.2016(4) -0.2146(3) 0.3774(2)
C23 C 0.2720(4) -0.0822(3) 0.4051(3)
C24 C 0.0689(4) -0.1513(3) 0.4144(2)
C25 C 1.1985(4) -0.2292(3) -0.0974(2)
C26 C 1.2210(4) -0.3316(3) -0.1138(3)
H13 H 1.1575 -0.3576 -0.0952
C27 C 1.3369(5) -0.3944(4) -0.1576(3)
H14 H 1.3507 -0.4613 -0.1707
C28 C 1.4322(5) -0.3586(4) -0.1819(3)
H15 H 1.5109 -0.4026 -0.2090
C29 C 1.4110(4) -0.2571(3) -0.1662(3)
H16 H 1.4757 -0.2328 -0.1835
C30 C 1.2946(4) -0.1916(3) -0.1249(2)
C31 C 1.0691(4) -0.1681(3) -0.0503(2)
C32 C 1.2711(4) -0.0814(3) -0.1095(2)
C33 C 0.5059(4) 0.2107(3) -0.0844(3)
C34 C 0.4272(4) 0.3072(4) -0.0502(3)
H17 H 0.3434 0.3272 -0.0389
C35 C 0.4730(6) 0.3731(4) -0.0330(4)
H18 H 0.4198 0.4358 -0.0075
C36 C 0.5957(5) 0.3471(4) -0.0532(3)
H19 H 0.6260 0.3945 -0.0455
C37 C 0.6759(4) 0.2499(4) -0.0852(3)
H20 H 0.7596 0.2314 -0.0973
C38 C 0.6306(4) 0.1804(3) -0.0989(2)
C39 C 0.4556(4) 0.1460(3) -0.1115(3)
C40 C 0.7200(4) 0.0717(3) -0.1212(3)
C41 C 0.8537(4) -0.3366(3) -0.1504(2)
C42 C 0.8890(4) -0.4399(3) -0.1046(3)
H21 H 0.9194 -0.4525 -0.0559
C43 C 0.8797(5) -0.5233(4) -0.1300(3)
H22 H 0.9050 -0.5920 -0.0992
C44 C 0.8333(5) -0.5056(4) -0.2005(3)
H23 H 0.8267 -0.5624 -0.2173
C45 C 0.7959(4) -0.4036(4) -0.2471(3)
H24 H 0.7645 -0.3923 -0.2951
C46 C 0.8051(4) -0.3176(3) -0.2225(2)
C47 C 0.8781(4) -0.2497(3) -0.1270(3)
C48 C 0.7554(4) -0.2080(3) -0.2727(2)
O1 O 0.5321(3) 0.0865(2) 0.33842(19)
O2 O 0.3693(3) 0.1341(3) 0.4554(2)
O3 O 0.7288(3) 0.0285(2) 0.41266(19)
O4 O 0.8139(3) 0.1188(2) 0.28899(19)
O5 O 0.8621(3) -0.3012(2) 0.49386(18)
O6 O 0.8528(3) -0.1880(2) 0.36971(17)
O7 O 0.6475(3) -0.1583(2) 0.28930(18)
O8 O 0.8229(3) -0.1926(2) 0.17925(18)
O9 O 0.0128(3) -0.0699(2) 0.36865(18)
O10 O 0.0132(3) -0.1885(2) 0.48956(17)
O11 O 0.1704(3) -0.0353(2) 0.45756(18)
O12 O 0.3567(3) -0.0436(2) 0.37831(18)
O13 O 0.7955(3) 0.0631(2) -0.1977(2)
O14 O 0.7192(3) -0.0044(2) -0.05787(18)
O15 O 0.5298(3) 0.0746(2) -0.16215(19)
O16 O 0.3436(3) 0.1689(3) -0.0871(2)
O17 O 0.9978(2) -0.1005(2) -0.09626(17)
O18 O 1.0262(3) -0.1917(2) 0.03325(17)
O19 O 1.1685(3) -0.0308(2) -0.06152(19)
O20 O 1.3548(3) -0.0417(2) -0.14213(18)
O21 O 0.8174(3) -0.1872(2) -0.35163(17)
O22 O 0.6514(3) -0.1480(2) -0.23368(19)
O23 O 0.8795(3) -0.2559(2) -0.04721(17)
O24 O 0.8971(3) -0.1770(2) -0.19000(18)
O25 O 1.0224(3) 0.0891(3) -0.2100(2)
H25 H 1.0581 0.1173 -0.2573
O26 O 1.0262(3) -0.1446(3) -0.3572(2)
H26 H 1.0482 -0.1108 -0.4064
Tm1 Tm 0.818100(16) -0.120770(13) 0.036630(11)
Tm2 Tm 0.501253(15) -0.003571(13) 0.258701(11)
Tm3 Tm 0.807000(16) -0.111950(13) 0.503130(11)
Tm4 Tm 0.985270(16) -0.049320(14) -0.241680(10)
H27 H 1.017(5) 0.106(4) -0.1629(12)
H28 H 0.984(4) -0.177(4) -0.358(3)
O2A O 0.6307(3) -0.1341(3) 0.5446(2)
O4A O 1.1861(3) -0.1188(2) -0.28899(19)
O9_2 O 1.0128(3) -0.0699(2) 0.36865(18)
O9A O 0.9872(3) 0.0699(2) -0.36865(18)
O10_2 O 1.0132(3) -0.1885(2) 0.48956(17)
O11A O 0.8296(3) 0.0353(2) 0.54244(18)
O12A O 0.6433(3) 0.0436(2) 0.62169(18)
O15A O 0.4702(3) -0.0746(2) 0.16215(19)
O16A O 0.6564(3) -0.1689(3) 0.0871(2)
O19A O 0.8315(3) 0.0308(2) 0.06152(19)
O20A O 0.6452(3) 0.0417(2) 0.14213(18)
O21_2 O 0.8174(3) -0.1872(2) 0.64837(17)
O22A O 0.3486(3) 0.1480(2) 0.23368(19)
Tm1A Tm 0.181900(16) 0.120770(13) -0.036630(11)
Tm1A_2 Tm 1.181900(16) 0.120770(13) -0.036630(11)
Tm2A Tm 0.498747(15) 0.003571(13) -0.258701(11)
Tm2A_2 Tm 1.498747(15) 0.003571(13) -0.258701(11)
Tm3A Tm 0.193000(16) 0.111950(13) 0.496870(11)
Tm3_2 Tm -0.193000(16) -0.111950(13) 0.503130(11)
Tm3_3 Tm 0.807000(16) -0.111950(13) -0.496870(11)
Tm4A Tm 1.014730(16) 0.049320(14) 0.241680(10)
Tm4A_2 Tm 0.014730(16) 0.049320(14) 0.241680(10)
loop_
_geom_bond_atom_site_label_1
_geom_bond_atom_site_label_2
_geom_bond_site_symmetry_1
_geom_bond_site_symmetry_2
C1 C2 1_555 1_555
C2 H1 1_555 1_555
C3 C2 1_555 1_555
H2 C3 1_555 1_555
C4 C3 1_555 1_555
H3 C4 1_555 1_555
C5 C4 1_555 1_555
H4 C5 1_555 1_555
C6 C1 1_555 1_555
C7 C1 1_555 1_555
C8 C6 1_555 1_555
C9 C10 1_555 1_555
C10 H5 1_555 1_555
C11 C10 1_555 1_555
H6 C11 1_555 1_555
C12 C11 1_555 1_555
H7 C12 1_555 1_555
C13 C12 1_555 1_555
H8 C13 1_555 1_555
C14 C9 1_555 1_555
C15 C9 1_555 1_555
C16 C14 1_555 1_555
C17 C18 1_555 1_555
C18 H9 1_555 1_555
C19 C18 1_555 1_555
H10 C19 1_555 1_555
C20 C19 1_555 1_555
H11 C20 1_555 1_555
C21 C20 1_555 1_555
H12 C21 1_555 1_555
C22 C17 1_555 1_555
C23 C17 1_555 1_555
C24 C22 1_555 1_555
C25 C26 1_555 1_555
C26 H13 1_555 1_555
C27 C26 1_555 1_555
H14 C27 1_555 1_555
C28 C27 1_555 1_555
H15 C28 1_555 1_555
C29 C28 1_555 1_555
H16 C29 1_555 1_555
C30 C25 1_555 1_555
C31 C25 1_555 1_555
C32 C30 1_555 1_555
C33 C34 1_555 1_555
C34 H17 1_555 1_555
C35 C34 1_555 1_555
H18 C35 1_555 1_555
C36 C35 1_555 1_555
H19 C36 1_555 1_555
C37 C36 1_555 1_555
H20 C37 1_555 1_555
C38 C33 1_555 1_555
C39 C33 1_555 1_555
C40 C38 1_555 1_555
C41 C42 1_555 1_555
C42 H21 1_555 1_555
C43 C42 1_555 1_555
H22 C43 1_555 1_555
C44 C43 1_555 1_555
H23 C44 1_555 1_555
C45 C44 1_555 1_555
H24 C45 1_555 1_555
C46 C41 1_555 1_555
C47 C41 1_555 1_555
C48 C46 1_555 1_555
O1 C7 1_555 1_555
O2 C7 1_555 1_555
O3 C8 1_555 1_555
O4 C8 1_555 1_555
O5 C15 1_555 1_555
O6 C15 1_555 1_555
O7 C16 1_555 1_555
O8 C16 1_555 1_555
O9 C24 1_555 1_555
O10 C24 1_555 1_555
O11 C23 1_555 1_555
O12 C23 1_555 1_555
O13 C40 1_555 1_555
O14 C40 1_555 1_555
O15 C39 1_555 1_555
O16 C39 1_555 1_555
O17 C31 1_555 1_555
O18 C31 1_555 1_555
O19 C32 1_555 1_555
O20 C32 1_555 1_555
O21 C48 1_555 1_555
O22 C48 1_555 1_555
O23 C47 1_555 1_555
O24 C47 1_555 1_555
O25 H25 1_555 1_555
O26 H26 1_555 1_555
Tm1 O8 1_555 1_555
Tm2 O1 1_555 1_555
Tm3 O3 1_555 1_555
Tm4 O13 1_555 1_555
H27 O25 1_555 1_555
H28 O26 1_555 1_555
O2A Tm3 1_555 1_555
O4A Tm4 1_555 1_555
O9_2 Tm3 1_555 1_555
O9A Tm4 1_555 1_555
O10_2 Tm3 1_555 1_555
O11A Tm3 1_555 1_555
O12A Tm3 1_555 1_555
O15A Tm2 1_555 1_555
O16A Tm1 1_555 1_555
O19A Tm1 1_555 1_555
O20A Tm1 1_555 1_555
O21_2 Tm3 1_555 1_555
O22A Tm2 1_555 1_555
Tm1A O16 1_555 1_555
Tm1A_2 O19 1_555 1_555
Tm2A O15 1_555 1_555
Tm2A_2 O20 1_555 1_555
Tm3A O2 1_555 1_555
Tm3_2 O9 1_555 1_555
Tm3_3 O21 1_555 1_555
Tm4A O4 1_555 1_555
Tm4A_2 O9 1_555 1_555
C5 C6 1_555 1_555
C13 C14 1_555 1_555
C21 C22 1_555 1_555
C29 C30 1_555 1_555
C37 C38 1_555 1_555
C45 C46 1_555 1_555
O5 Tm3 1_555 1_555
O6 Tm3 1_555 1_555
O7 Tm2 1_555 1_555
O10 Tm3_2 1_555 1_555
O11 Tm3A 1_555 1_555
O12 Tm2 1_555 1_555
O12 Tm3A 1_555 1_555
O14 Tm1 1_555 1_555
O17 Tm1 1_555 1_555
O17 Tm4 1_555 1_555
O18 Tm1 1_555 1_555
O20 Tm1A_2 1_555 1_555
O22 Tm2A 1_555 1_555
O23 Tm1 1_555 1_555
O24 Tm4 1_555 1_555
O25 Tm4 1_555 1_555
O26 Tm4 1_555 1_555
Tm2 O20A 1_555 1_555
O9_2 Tm4A 1_555 1_555

#END
