
#######################################################################
#
#                 Cambridge Crystallographic Data Centre
#                                CCDC 
#
#######################################################################
#
# If this CIF has been generated from an entry in the Cambridge 
# Structural Database, then it will include bibliographic, chemical, 
# crystal, experimental, refinement or atomic coordinate data resulting 
# from the CCDC's data processing and validation procedures.
#
#######################################################################

data_KIWQAI
_symmetry_cell_setting           monoclinic
_symmetry_space_group_name_H-M   'P 21/c'
_symmetry_Int_Tables_number      14
_space_group_name_Hall           '-P 2ybc'
loop_
_symmetry_equiv_pos_site_id
_symmetry_equiv_pos_as_xyz
1 x,y,z
2 x,1/2-y,1/2+z
3 -x,-y,-z
4 -x,1/2+y,1/2-z
_cell_length_a                   11.1132(13)
_cell_length_b                   5.8547(6)
_cell_length_c                   13.1706(13)
_cell_angle_alpha                90
_cell_angle_beta                 100.466(9)
_cell_angle_gamma                90
_cell_volume                     842.681
loop_
_atom_site_label
_atom_site_type_symbol
_atom_site_fract_x
_atom_site_fract_y
_atom_site_fract_z
Cd1 Cd 0.0000 0.5000 0.5000
S1 S -0.10627(8) 0.74326(10) 0.63889(5)
C1 C -0.0890(2) 1.0014(3) 0.59413(18)
N1 N 0.0779(2) 0.8191(3) 0.43614(16)
N2 N -0.1773(2) 0.5709(4) 0.37581(16)
H1 H -0.2129 0.6990 0.3939
H2 H -0.1545 0.5978 0.3147
C2 C -0.2668(2) 0.3916(5) 0.36198(18)
C3 C -0.2635(2) 0.2250(5) 0.2885(2)
H3 H -0.2048 0.2314 0.2464
C4 C -0.3465(3) 0.0503(6) 0.2777(3)
H4 H -0.3443 -0.0611 0.2277
C5 C -0.4337(3) 0.0375(6) 0.3403(4)
H5 H -0.4897 -0.0821 0.3331
C6 C -0.4362(3) 0.2026(7) 0.4122(3)
H6 H -0.4949 0.1958 0.4543
C7 C -0.3526(3) 0.3819(6) 0.4243(2)
H7 H -0.3550 0.4935 0.4742
S1B S 0.10627(8) 0.25674(10) 0.36111(5)
N1B N -0.0779(2) 0.1809(3) 0.56386(16)
N2B N 0.1773(2) 0.4291(4) 0.62419(16)
N1B_2 N -0.0779(2) 1.1809(3) 0.56386(16)
C1B C 0.0890(2) 0.9986(3) 0.40587(18)
H1B H 0.2129 0.3010 0.6061
H2B H 0.1545 0.4022 0.6853
C2B C 0.2668(2) 0.6084(5) 0.63802(18)
Cd1_2 Cd 0.0000 1.5000 0.5000
S1B_2 S 0.10627(8) 1.25674(10) 0.36111(5)
C3B C 0.2635(2) 0.7750(5) 0.7115(2)
C7B C 0.3526(3) 0.6181(6) 0.5757(2)
H3B H 0.2048 0.7686 0.7536
C4B C 0.3465(3) 0.9497(6) 0.7223(3)
C6B C 0.4362(3) 0.7974(7) 0.5878(3)
H7B H 0.3550 0.5065 0.5258
H4B H 0.3443 1.0611 0.7723
C5B C 0.4337(3) 0.9625(6) 0.6597(4)
H6B H 0.4949 0.8042 0.5457
H5B H 0.4897 1.0821 0.6669
loop_
_geom_bond_atom_site_label_1
_geom_bond_atom_site_label_2
_geom_bond_site_symmetry_1
_geom_bond_site_symmetry_2
Cd1 S1 1_555 1_555
S1 C1 1_555 1_555
C1 N1B_2 1_555 1_555
N1 Cd1 1_555 1_555
N2 Cd1 1_555 1_555
H1 N2 1_555 1_555
H2 N2 1_555 1_555
C2 N2 1_555 1_555
C3 C2 1_555 1_555
H3 C3 1_555 1_555
C4 C3 1_555 1_555
H4 C4 1_555 1_555
C5 C4 1_555 1_555
H5 C5 1_555 1_555
C6 C5 1_555 1_555
H6 C6 1_555 1_555
C7 C2 1_555 1_555
H7 C7 1_555 1_555
S1B Cd1 1_555 1_555
N1B Cd1 1_555 1_555
N2B Cd1 1_555 1_555
N1B_2 Cd1_2 1_555 1_555
C1B N1 1_555 1_555
H1B N2B 1_555 1_555
H2B N2B 1_555 1_555
C2B N2B 1_555 1_555
Cd1_2 S1B_2 1_555 1_555
S1B_2 C1B 1_555 1_555
C3B C2B 1_555 1_555
C7B C2B 1_555 1_555
H3B C3B 1_555 1_555
C4B C3B 1_555 1_555
C6B C7B 1_555 1_555
H7B C7B 1_555 1_555
H4B C4B 1_555 1_555
C5B C4B 1_555 1_555
H6B C6B 1_555 1_555
H5B C5B 1_555 1_555
C6 C7 1_555 1_555
C6B C5B 1_555 1_555

#END
