
#######################################################################
#
#                 Cambridge Crystallographic Data Centre
#                                CCDC 
#
#######################################################################
#
# If this CIF has been generated from an entry in the Cambridge 
# Structural Database, then it will include bibliographic, chemical, 
# crystal, experimental, refinement or atomic coordinate data resulting 
# from the CCDC's data processing and validation procedures.
#
#######################################################################

data_KIWRUE
_symmetry_cell_setting           orthorhombic
_symmetry_space_group_name_H-M   'P 21 21 21'
_symmetry_Int_Tables_number      19
_space_group_name_Hall           'P 2ac 2ab'
loop_
_symmetry_equiv_pos_site_id
_symmetry_equiv_pos_as_xyz
1 x,y,z
2 1/2-x,-y,1/2+z
3 1/2+x,1/2-y,-z
4 -x,1/2+y,1/2-z
_cell_length_a                   6.9047(4)
_cell_length_b                   12.5332(9)
_cell_length_c                   21.8652(18)
_cell_angle_alpha                90
_cell_angle_beta                 90
_cell_angle_gamma                90
_cell_volume                     1892.17
loop_
_atom_site_label
_atom_site_type_symbol
_atom_site_fract_x
_atom_site_fract_y
_atom_site_fract_z
Cu1 Cu 0.40468(3) 0.220250(15) 0.831398(9)
S1 S 0.79981(9) 0.09578(5) 0.68072(3)
S2 S -0.13170(9) 0.26397(5) 0.96452(3)
N1 N 0.3141(2) 0.06553(11) 0.82787(8)
N2 N 0.4377(2) -0.02263(11) 0.83130(8)
N3 N 0.1425(2) -0.07576(11) 0.81393(7)
N4 N -0.2701(3) -0.24093(12) 0.81414(7)
N5 N -0.2307(2) -0.22949(12) 0.75148(7)
N6 N -0.0146(3) -0.14111(12) 0.80226(7)
N7 N 0.5203(3) 0.36161(12) 0.85532(7)
N8 N 0.6754(3) 0.41012(13) 0.82639(8)
N9 N 0.6022(3) 0.49857(11) 0.90889(7)
N10 N 0.6811(3) 0.64115(16) 1.04494(8)
N11 N 0.5754(3) 0.71456(14) 1.01082(8)
N12 N 0.6122(3) 0.57128(12) 0.95664(7)
N13 N 0.6402(3) 0.17816(13) 0.78821(8)
N14 N 0.1825(3) 0.24998(13) 0.88514(8)
C1 C 0.1385(3) 0.03238(14) 0.81808(9)
H5 H 0.0279 0.0757 0.8145
C2 C 0.3286(3) -0.10618(14) 0.82260(9)
H6 H 0.3727 -0.1771 0.8224
C3 C -0.1371(3) -0.18731(15) 0.84297(8)
H7 H -0.1272 -0.1814 0.8857
C4 C -0.0788(3) -0.17001(14) 0.74566(8)
H8 H -0.0217 -0.1499 0.7084
C5 C 0.4781(3) 0.41586(14) 0.90471(8)
H9 H 0.3784 0.3999 0.9325
C6 C 0.7224(4) 0.49264(17) 0.85969(10)
H10 H 0.8236 0.5405 0.8510
C7 C 0.7026(4) 0.55633(18) 1.01149(10)
H11 H 0.7699 0.4944 1.0232
C8 C 0.5355(4) 0.67114(16) 0.95857(10)
H12 H 0.4647 0.7036 0.9269
C9 C 0.7048(3) 0.14259(14) 0.74378(9)
C10 C 0.0517(3) 0.25614(14) 0.91798(8)
Cu1C Cu -0.40468(3) -0.279750(15) 0.668602(9)
N5C N 0.2307(2) 0.27051(12) 0.74852(7)
O1 O 0.6274(4) 0.94852(15) 1.03402(10)
H1 H 0.5809 0.8858 1.0353
H2 H 0.6482 0.9643 0.9968
O2 O 0.7618(4) 0.01984(15) 0.91451(11)
H3 H 0.7561 0.0841 0.9268
H4 H 0.6810 0.0121 0.8855
loop_
_geom_bond_atom_site_label_1
_geom_bond_atom_site_label_2
_geom_bond_site_symmetry_1
_geom_bond_site_symmetry_2
Cu1 N1 1_555 1_555
S1 C9 1_555 1_555
S2 C10 1_555 1_555
O1 H1 1_555 1_555
H2 O1 1_555 1_555
O2 H3 1_555 1_555
H4 O2 1_555 1_555
N1 N2 1_555 1_555
N2 C2 1_555 1_555
N3 N6 1_555 1_555
N4 N5 1_555 1_555
N5 C4 1_555 1_555
N6 C3 1_555 1_555
N7 Cu1 1_555 1_555
N8 N7 1_555 1_555
N9 N12 1_555 1_555
N10 N11 1_555 1_555
N11 C8 1_555 1_555
N12 C7 1_555 1_555
N13 Cu1 1_555 1_555
N14 Cu1 1_555 1_555
C1 N1 1_555 1_555
H5 C1 1_555 1_555
C2 N3 1_555 1_555
H6 C2 1_555 1_555
C3 N4 1_555 1_555
H7 C3 1_555 1_555
C4 N6 1_555 1_555
H8 C4 1_555 1_555
C5 N7 1_555 1_555
H9 C5 1_555 1_555
C6 N8 1_555 1_555
H10 C6 1_555 1_555
C7 N10 1_555 1_555
H11 C7 1_555 1_555
C8 N12 1_555 1_555
H12 C8 1_555 1_555
C9 N13 1_555 1_555
C10 N14 1_555 1_555
Cu1C N5 1_555 1_555
N5C Cu1 1_555 1_555
N3 C1 1_555 1_555
N9 C5 1_555 1_555
N9 C6 1_555 1_555

#END
