
#######################################################################
#
#                 Cambridge Crystallographic Data Centre
#                                CCDC 
#
#######################################################################
#
# If this CIF has been generated from an entry in the Cambridge 
# Structural Database, then it will include bibliographic, chemical, 
# crystal, experimental, refinement or atomic coordinate data resulting 
# from the CCDC's data processing and validation procedures.
#
#######################################################################

data_KIWRUE01
_symmetry_cell_setting           orthorhombic
_symmetry_space_group_name_H-M   'P 21 21 21'
_symmetry_Int_Tables_number      19
_space_group_name_Hall           'P 2ac 2ab'
loop_
_symmetry_equiv_pos_site_id
_symmetry_equiv_pos_as_xyz
1 x,y,z
2 1/2+x,1/2-y,-z
3 -x,1/2+y,1/2-z
4 1/2-x,-y,1/2+z
_cell_length_a                   6.8459(6)
_cell_length_b                   12.4795(11)
_cell_length_c                   21.686(2)
_cell_angle_alpha                90
_cell_angle_beta                 90
_cell_angle_gamma                90
_cell_volume                     1852.71
loop_
_atom_site_label
_atom_site_type_symbol
_atom_site_fract_x
_atom_site_fract_y
_atom_site_fract_z
Cu1 Cu 0.09361(3) 0.219058(17) 0.831834(10)
S1 S -0.30001(8) 0.09471(4) 0.67949(2)
S2 S 0.63914(7) 0.26372(4) 0.96440(2)
N1 N -0.0196(2) 0.36129(12) 0.85529(7)
N2 N -0.1760(2) 0.41068(12) 0.82543(8)
N3 N -0.1026(3) 0.49944(11) 0.90870(7)
N4 N -0.1132(2) 0.57241(12) 0.95645(7)
N5 N -0.0738(3) 0.71661(14) 1.01139(7)
N6 N -0.1849(3) 0.64296(14) 1.04550(8)
N7 N 0.1832(2) 0.06461(12) 0.82877(8)
N8 N 0.0595(2) -0.02441(11) 0.83159(8)
N9 N 0.3569(2) -0.07735(12) 0.81478(7)
N10 N 0.5159(2) -0.14272(12) 0.80295(7)
N11 N 0.7336(2) -0.23142(12) 0.75160(7)
N12 N 0.7728(2) -0.24356(12) 0.81500(7)
N13 N -0.1458(2) 0.17667(12) 0.78916(8)
N14 N 0.3195(2) 0.24950(13) 0.88506(7)
C1 C 0.0225(3) 0.41579(14) 0.90481(9)
H5 H 0.1237 0.3995 0.9333
C2 C -0.2216(3) 0.49338(16) 0.85857(10)
H6 H -0.3232 0.5426 0.8492
C3 C -0.0319(3) 0.67196(16) 0.95894(10)
H7 H 0.0439 0.7038 0.9272
C4 C -0.2058(3) 0.55768(17) 1.01155(10)
H8 H -0.2748 0.4949 1.0233
C5 C 0.3613(3) 0.03098(15) 0.81885(9)
H9 H 0.4742 0.0748 0.8151
C6 C 0.1693(3) -0.10777(14) 0.82294(9)
H10 H 0.1243 -0.1798 0.8224
C7 C 0.5812(3) -0.17158(14) 0.74596(9)
H11 H 0.5234 -0.1508 0.7080
C8 C 0.6389(3) -0.18988(14) 0.84426(9)
H12 H 0.6284 -0.1844 0.8878
C9 C -0.2086(3) 0.14143(15) 0.74383(10)
C10 C 0.4523(3) 0.25577(14) 0.91788(8)
Cu1B Cu 0.90639(3) -0.280942(17) 0.668166(10)
N11B N 0.2664(2) 0.26858(12) 0.74840(7)
O1 O 0.7320(3) 0.01805(13) 0.91390(9)
H1 H 0.733(4) 0.0809(18) 0.9264(12)
H2 H 0.812(4) 0.011(2) 0.8889(13)
O2 O 0.3695(3) 0.55003(13) 0.96679(8)
H3 H 0.400(4) 0.617(2) 0.9680(12)
H4 H 0.339(4) 0.526(2) 1.0076(12)
loop_
_geom_bond_atom_site_label_1
_geom_bond_atom_site_label_2
_geom_bond_site_symmetry_1
_geom_bond_site_symmetry_2
Cu1 N1 1_555 1_555
S1 C9 1_555 1_555
S2 C10 1_555 1_555
O1 H1 1_555 1_555
H2 O1 1_555 1_555
O2 H3 1_555 1_555
H4 O2 1_555 1_555
N1 N2 1_555 1_555
N2 C2 1_555 1_555
N3 N4 1_555 1_555
N4 C3 1_555 1_555
N5 N6 1_555 1_555
N6 C4 1_555 1_555
N7 Cu1 1_555 1_555
N8 N7 1_555 1_555
N9 N10 1_555 1_555
N10 C7 1_555 1_555
N11 N12 1_555 1_555
N12 C8 1_555 1_555
N13 Cu1 1_555 1_555
N14 Cu1 1_555 1_555
C1 N1 1_555 1_555
H5 C1 1_555 1_555
C2 N3 1_555 1_555
H6 C2 1_555 1_555
C3 N5 1_555 1_555
H7 C3 1_555 1_555
C4 N4 1_555 1_555
H8 C4 1_555 1_555
C5 N7 1_555 1_555
H9 C5 1_555 1_555
C6 N8 1_555 1_555
H10 C6 1_555 1_555
C7 N11 1_555 1_555
H11 C7 1_555 1_555
C8 N10 1_555 1_555
H12 C8 1_555 1_555
C9 N13 1_555 1_555
C10 N14 1_555 1_555
Cu1B N11 1_555 1_555
N11B Cu1 1_555 1_555
N3 C1 1_555 1_555
N9 C5 1_555 1_555
N9 C6 1_555 1_555

#END
