
#######################################################################
#
#                 Cambridge Crystallographic Data Centre
#                                CCDC 
#
#######################################################################
#
# If this CIF has been generated from an entry in the Cambridge 
# Structural Database, then it will include bibliographic, chemical, 
# crystal, experimental, refinement or atomic coordinate data resulting 
# from the CCDC's data processing and validation procedures.
#
#######################################################################

data_KIWSUF
_symmetry_cell_setting           monoclinic
_symmetry_space_group_name_H-M   'P 21/n'
_symmetry_Int_Tables_number      14
_space_group_name_Hall           '-P 2yn'
loop_
_symmetry_equiv_pos_site_id
_symmetry_equiv_pos_as_xyz
1 x,y,z
2 1/2-x,1/2+y,1/2-z
3 -x,-y,-z
4 1/2+x,1/2-y,1/2+z
_cell_length_a                   11.170(3)
_cell_length_b                   17.119(3)
_cell_length_c                   14.225(3)
_cell_angle_alpha                90
_cell_angle_beta                 95.42(3)
_cell_angle_gamma                90
_cell_volume                     2707.93
loop_
_atom_site_label
_atom_site_type_symbol
_atom_site_fract_x
_atom_site_fract_y
_atom_site_fract_z
Cd1 Cd 0.319672(18) 0.465334(12) 0.498216(16)
O1 O 0.43080(17) 0.37363(11) 0.58599(15)
O2 O 0.19595(17) 0.36586(11) 0.55523(14)
O3 O 0.04632(16) 0.25986(12) 0.63366(15)
O4 O 0.27611(16) 0.54872(12) 0.62401(14)
O5 O 0.49360(16) 0.54035(11) 0.57673(14)
O6 O 0.69068(17) 0.60571(13) 0.64531(16)
O7 O 0.12527(17) 0.51076(10) 0.45451(16)
O8 O 0.32487(16) 0.58577(11) 0.41791(14)
O9 O 0.35247(16) 0.73406(12) 0.36360(15)
C1 C 0.3760(2) 0.31223(16) 0.6330(2)
C2 C 0.2424(2) 0.31707(16) 0.6096(2)
C3 C 0.1713(2) 0.25687(16) 0.6567(2)
C4 C 0.3643(2) 0.58764(18) 0.6860(2)
C5 C 0.4838(2) 0.57800(15) 0.6492(2)
C6 C 0.5926(2) 0.61543(17) 0.7005(2)
C7 C 0.1151(2) 0.59239(16) 0.4349(2)
C8 C 0.2328(2) 0.62430(16) 0.4086(2)
C9 C 0.2339(2) 0.70740(16) 0.3737(2)
H1 H 0.5052 0.3736 0.6019
H2 H 0.0299 0.2450 0.5777
H3 H 0.3959 0.3170 0.7021
H4 H 0.4060 0.2612 0.6125
H5 H 0.2002 0.2045 0.6399
H6 H 0.1878 0.2629 0.7259
H7 H 0.2078 0.5556 0.6428
H8 H 0.7524 0.6263 0.6731
H9 H 0.3661 0.5651 0.7502
H10 H 0.3443 0.6438 0.6897
H11 H 0.5775 0.6717 0.7103
H12 H 0.6109 0.5906 0.7630
H13 H 0.0754 0.4862 0.4178
H14 H 0.3858 0.7473 0.4166
H15 H 0.0913 0.6202 0.4913
H16 H 0.0518 0.6012 0.3824
H17 H 0.1852 0.7110 0.3120
H18 H 0.1966 0.7417 0.4188
Cd1B Cd 0.680328(18) 0.534666(12) 0.501784(16)
O1B O 0.56920(17) 0.62637(11) 0.41401(15)
O2B O 0.80405(17) 0.63414(11) 0.44477(14)
O3B O 0.95368(16) 0.74014(12) 0.36634(15)
O4B O 0.72389(16) 0.45128(12) 0.37599(14)
O5B O 0.50640(16) 0.45965(11) 0.42327(14)
O6B O 0.30932(17) 0.39429(13) 0.35469(16)
O7B O 0.87473(17) 0.48924(10) 0.54549(16)
O8B O 0.67513(16) 0.41423(11) 0.58209(14)
O9B O 0.64753(16) 0.26594(12) 0.63640(15)
C1B C 0.6240(2) 0.68777(16) 0.3670(2)
C2B C 0.7576(2) 0.68293(16) 0.3904(2)
C3B C 0.8287(2) 0.74313(16) 0.3433(2)
C4B C 0.6357(2) 0.41236(18) 0.3140(2)
C5B C 0.5162(2) 0.42200(15) 0.3508(2)
C6B C 0.4074(2) 0.38457(17) 0.2995(2)
C7B C 0.8849(2) 0.40761(16) 0.5651(2)
C8B C 0.7672(2) 0.37570(16) 0.5914(2)
C9B C 0.7661(2) 0.29260(16) 0.6263(2)
H1B H 0.4948 0.6264 0.3981
H2B H 0.9701 0.7550 0.4223
H3B H 0.6041 0.6830 0.2979
H4B H 0.5940 0.7388 0.3875
H5B H 0.7998 0.7955 0.3601
H6B H 0.8122 0.7371 0.2741
H7B H 0.7922 0.4444 0.3572
H8B H 0.2476 0.3737 0.3269
H9B H 0.6339 0.4349 0.2498
H10B H 0.6557 0.3562 0.3103
H11B H 0.4225 0.3283 0.2897
H12B H 0.3891 0.4094 0.2370
H13B H 0.9246 0.5138 0.5822
H14B H 0.6142 0.2527 0.5834
H15B H 0.9087 0.3798 0.5087
H16B H 0.9482 0.3988 0.6176
H17B H 0.8148 0.2890 0.6880
H18B H 0.8034 0.2583 0.5812
Cd2 Cd 0.572487(18) 0.087048(13) 0.424834(16)
Cd3 Cd 0.24097(2) 0.070741(11) 0.425621(17)
Cd4 Cd 0.908190(18) 0.088850(13) 0.421730(16)
Cl1 Cl 0.72384(6) 0.07307(4) 0.30044(5)
Cl2 Cl 0.54850(6) 0.23422(4) 0.42923(6)
Cl3 Cl 0.42159(6) 0.07355(4) 0.55909(5)
Cl4 Cl 0.39153(6) 0.06458(4) 0.30073(5)
Cl5 Cl 0.75798(6) 0.08493(4) 0.55578(5)
Cl6 Cl 0.06281(6) 0.07522(4) 0.29948(5)
Cl7 Cl 0.08956(6) 0.07314(4) 0.55509(5)
Cl8 Cl 0.91669(7) 0.23712(4) 0.41625(6)
O10 O 0.2660(2) 0.20634(12) 0.43647(16)
H19 H 0.336(3) 0.2157(19) 0.434(2)
H20 H 0.232(3) 0.233(2) 0.401(3)
Cd2B Cd 0.427513(18) -0.087048(13) 0.575166(16)
Cd3B Cd 0.75903(2) -0.070741(11) 0.574379(17)
Cd4_2 Cd -0.091810(18) 0.088850(13) 0.421730(16)
Cd4B Cd 0.091810(18) -0.088850(13) 0.578270(16)
Cl3B Cl 0.57841(6) -0.07355(4) 0.44091(5)
Cl5B Cl 0.24202(6) -0.08493(4) 0.44422(5)
Cl6_2 Cl 1.06281(6) 0.07522(4) 0.29948(5)
Cl7_2 Cl 1.08956(6) 0.07314(4) 0.55509(5)
Cl7B Cl 0.91044(6) -0.07314(4) 0.44491(5)
O11 O 0.0408(2) 0.55934(13) 0.67754(17)
H21 H 0.043(3) 0.539(2) 0.724(3)
H22 H 0.008(3) 0.597(2) 0.687(3)
O12 O 0.8866(2) 0.69741(14) 0.69807(17)
H23 H 0.953(3) 0.719(2) 0.666(3)
H24 H 0.872(3) 0.706(2) 0.748(3)
loop_
_geom_bond_atom_site_label_1
_geom_bond_atom_site_label_2
_geom_bond_site_symmetry_1
_geom_bond_site_symmetry_2
Cd1 O1 1_555 1_555
O1 C1 1_555 1_555
O2 Cd1 1_555 1_555
O3 C3 1_555 1_555
O4 Cd1 1_555 1_555
O5 Cd1 1_555 1_555
O6 C6 1_555 1_555
O7 Cd1 1_555 1_555
O8 Cd1 1_555 1_555
O9 C9 1_555 1_555
C1 C2 1_555 1_555
C2 O2 1_555 1_555
C3 C2 1_555 1_555
C4 O4 1_555 1_555
C5 O5 1_555 1_555
C6 C5 1_555 1_555
C7 O7 1_555 1_555
C8 O8 1_555 1_555
C9 C8 1_555 1_555
H1 O1 1_555 1_555
H2 O3 1_555 1_555
H3 C1 1_555 1_555
H4 C1 1_555 1_555
H5 C3 1_555 1_555
H6 C3 1_555 1_555
H7 O4 1_555 1_555
H8 O6 1_555 1_555
H9 C4 1_555 1_555
H10 C4 1_555 1_555
H11 C6 1_555 1_555
H12 C6 1_555 1_555
H13 O7 1_555 1_555
H14 O9 1_555 1_555
H15 C7 1_555 1_555
H16 C7 1_555 1_555
H17 C9 1_555 1_555
H18 C9 1_555 1_555
Cd2 Cl1 1_555 1_555
Cd3 Cl3 1_555 1_555
Cd4 Cl1 1_555 1_555
Cl2 Cd2 1_555 1_555
Cl3 Cd2 1_555 1_555
Cl4 Cd2 1_555 1_555
Cl5 Cd2 1_555 1_555
Cl6 Cd3 1_555 1_555
Cl7 Cd3 1_555 1_555
Cl8 Cd4 1_555 1_555
O10 Cd3 1_555 1_555
H19 O10 1_555 1_555
H20 O10 1_555 1_555
O11 H21 1_555 1_555
H22 O11 1_555 1_555
O12 H23 1_555 1_555
H24 O12 1_555 1_555
Cd1B O5 1_555 1_555
O1B Cd1B 1_555 1_555
O2B Cd1B 1_555 1_555
O3B C3B 1_555 1_555
O4B Cd1B 1_555 1_555
O5B Cd1 1_555 1_555
O6B Cd1 1_555 1_555
O7B Cd1B 1_555 1_555
O8B Cd1B 1_555 1_555
O9B C9B 1_555 1_555
C1B O1B 1_555 1_555
C2B O2B 1_555 1_555
C3B C2B 1_555 1_555
C4B O4B 1_555 1_555
C5B O5B 1_555 1_555
C6B O6B 1_555 1_555
C7B O7B 1_555 1_555
C8B O8B 1_555 1_555
C9B C8B 1_555 1_555
H1B O1B 1_555 1_555
H2B O3B 1_555 1_555
H3B C1B 1_555 1_555
H4B C1B 1_555 1_555
H5B C3B 1_555 1_555
H6B C3B 1_555 1_555
H7B O4B 1_555 1_555
H8B O6B 1_555 1_555
H9B C4B 1_555 1_555
H10B C4B 1_555 1_555
H11B C6B 1_555 1_555
H12B C6B 1_555 1_555
H13B O7B 1_555 1_555
H14B O9B 1_555 1_555
H15B C7B 1_555 1_555
H16B C7B 1_555 1_555
H17B C9B 1_555 1_555
H18B C9B 1_555 1_555
Cd2B Cl3 1_555 1_555
Cd3B Cl5 1_555 1_555
Cd4_2 Cl6 1_555 1_555
Cd4B Cl7 1_555 1_555
Cl3B Cd2 1_555 1_555
Cl5B Cd3 1_555 1_555
Cl6_2 Cd4 1_555 1_555
Cl7_2 Cd4 1_555 1_555
Cl7B Cd4 1_555 1_555
O6 Cd1B 1_555 1_555
C4 C5 1_555 1_555
C7 C8 1_555 1_555
Cd3 Cl4 1_555 1_555
Cd4 Cl5 1_555 1_555
Cl7 Cd4_2 1_555 1_555
Cd1B O5B 1_555 1_555
C1B C2B 1_555 1_555
C4B C5B 1_555 1_555
C5B C6B 1_555 1_555
C7B C8B 1_555 1_555
Cd2B Cl3B 1_555 1_555
Cd2B Cl5B 1_555 1_555
Cd3B Cl3B 1_555 1_555
Cd3B Cl7B 1_555 1_555
Cd4B Cl5B 1_555 1_555

#END
