
#######################################################################
#
#                 Cambridge Crystallographic Data Centre
#                                CCDC 
#
#######################################################################
#
# If this CIF has been generated from an entry in the Cambridge 
# Structural Database, then it will include bibliographic, chemical, 
# crystal, experimental, refinement or atomic coordinate data resulting 
# from the CCDC's data processing and validation procedures.
#
#######################################################################

data_KIWSAL
_symmetry_cell_setting           triclinic
_symmetry_space_group_name_H-M   'P -1'
_symmetry_Int_Tables_number      2
_space_group_name_Hall           '-P 1'
loop_
_symmetry_equiv_pos_site_id
_symmetry_equiv_pos_as_xyz
1 x,y,z
2 -x,-y,-z
_cell_length_a                   7.0920(10)
_cell_length_b                   10.4867(18)
_cell_length_c                   13.836(2)
_cell_angle_alpha                87.440(18)
_cell_angle_beta                 81.158(16)
_cell_angle_gamma                82.847(11)
_cell_volume                     1008.52
loop_
_atom_site_label
_atom_site_type_symbol
_atom_site_fract_x
_atom_site_fract_y
_atom_site_fract_z
Cd1 Cd 0.74354(3) 0.37189(2) -0.590400(15)
Cd2 Cd 0.0000 0.0000 0.0000
S1 S 0.44852(19) -0.32200(10) 0.14859(8)
S2 S 1.14967(16) -0.04039(12) -0.66033(11)
S3 S 0.94218(13) 0.53903(9) -0.69250(6)
N1 N 0.4891(4) 0.2901(3) -0.48925(19)
N2 N 0.3557(5) 0.2315(4) -0.5296(2)
N3 N 0.3515(4) 0.1684(3) -0.37792(17)
N4 N 0.3156(4) 0.0950(2) -0.29296(17)
N5 N 0.1980(4) 0.0290(3) -0.14965(19)
N6 N 0.3276(4) -0.0699(3) -0.1927(2)
N7 N 0.6982(4) 0.3887(3) 0.19224(18)
N8 N 0.5744(4) 0.3779(3) 0.27976(18)
N9 N 0.4234(4) 0.3403(2) 0.16256(17)
N10 N 0.2841(4) 0.3071(2) 0.11294(18)
N11 N 0.1116(4) 0.1904(3) 0.04664(19)
N12 N 0.0499(4) 0.3191(3) 0.02676(19)
N13 N 0.2451(5) -0.1146(3) 0.0635(2)
N14 N 0.9291(6) 0.1925(4) -0.6224(3)
N15 N 1.1769(5) 0.5806(4) -0.5548(2)
C1 C 0.4844(4) 0.2503(3) -0.3986(2)
H1 H 0.5614 0.2749 -0.3548
C2 C 0.2750(6) 0.1589(4) -0.4616(2)
H2 H 0.1787 0.1076 -0.4688
C3 C 0.1929(5) 0.1262(3) -0.2105(2)
H3 H 0.1163 0.2055 -0.1992
C4 C 0.3938(5) -0.0277(3) -0.2791(3)
H4 H 0.4829 -0.0753 -0.3253
C5 C 0.6043(4) 0.3643(3) 0.1238(2)
H5 H 0.6537 0.3632 0.0568
C6 C 0.4110(4) 0.3484(3) 0.2609(2)
H6 H 0.3032 0.3352 0.3074
C7 C 0.2519(5) 0.1862(3) 0.0968(2)
H7 H 0.3208 0.1108 0.1186
C8 C 0.1557(4) 0.3861(3) 0.0677(2)
H8 H 0.1454 0.4764 0.0663
C9 C 0.3274(5) -0.2004(3) 0.1001(2)
C10 C 1.0222(5) 0.0961(4) -0.6390(2)
C11 C 1.0773(5) 0.5648(3) -0.6101(2)
Cd1A Cd -0.74354(3) -0.37189(2) 0.590400(15)
Cd1_2 Cd 0.74354(3) 0.37189(2) 0.409600(15)
Cd1A_2 Cd 1.25646(3) 0.62811(2) -0.409600(15)
Cd1A_3 Cd -0.74354(3) -0.37189(2) -0.409600(15)
S1A S -0.44852(19) 0.32200(10) -0.14859(8)
S2A S -1.14967(16) 0.04039(12) 0.66033(11)
S3A S 1.05782(13) 0.46097(9) -0.30750(6)
S3A_2 S -0.94218(13) -0.53903(9) 0.69250(6)
N1A N -0.4891(4) -0.2901(3) 0.48925(19)
N2A N -0.3557(5) -0.2315(4) 0.5296(2)
N3A N -0.3515(4) -0.1684(3) 0.37792(17)
N4A N -0.3156(4) -0.0950(2) 0.29296(17)
N5A N -0.1980(4) -0.0290(3) 0.14965(19)
N6A N -0.3276(4) 0.0699(3) 0.1927(2)
N7A N -0.6982(4) -0.3887(3) -0.19224(18)
N8A N -0.5744(4) -0.3779(3) -0.27976(18)
N8_2 N 0.5744(4) 0.3779(3) -0.72024(18)
N8A_2 N -0.5744(4) -0.3779(3) 0.72024(18)
N9A N -0.4234(4) -0.3403(2) -0.16256(17)
N10A N -0.2841(4) -0.3071(2) -0.11294(18)
N11A N -0.1116(4) -0.1904(3) -0.04664(19)
N12A N -0.0499(4) -0.3191(3) -0.02676(19)
N13A N -0.2451(5) 0.1146(3) -0.0635(2)
N14A N -0.9291(6) -0.1925(4) 0.6224(3)
N15A N 0.8231(5) 0.4194(4) -0.4452(2)
N15_2 N -0.8231(5) -0.4194(4) 0.4452(2)
C1A C -0.4844(4) -0.2503(3) 0.3986(2)
H1A H -0.5614 -0.2749 0.3548
C2A C -0.2750(6) -0.1589(4) 0.4616(2)
H2A H -0.1787 -0.1076 0.4688
C3A C -0.1929(5) -0.1262(3) 0.2105(2)
H3A H -0.1163 -0.2055 0.1992
C4A C -0.3938(5) 0.0277(3) 0.2791(3)
H4A H -0.4829 0.0753 0.3253
C5A C -0.6043(4) -0.3643(3) -0.1238(2)
H5A H -0.6537 -0.3632 -0.0568
C6A C -0.4110(4) -0.3484(3) -0.2609(2)
H6A H -0.3032 -0.3352 -0.3074
C7A C -0.2519(5) -0.1862(3) -0.0968(2)
H7A H -0.3208 -0.1108 -0.1186
C8A C -0.1557(4) -0.3861(3) -0.0677(2)
H8A H -0.1454 -0.4764 -0.0663
C9A C -0.3274(5) 0.2004(3) -0.1001(2)
C10A C -1.0222(5) -0.0961(4) 0.6390(2)
C11A C 0.9227(5) 0.4352(3) -0.3899(2)
loop_
_geom_bond_atom_site_label_1
_geom_bond_atom_site_label_2
_geom_bond_site_symmetry_1
_geom_bond_site_symmetry_2
Cd1 S3 1_555 1_555
Cd2 N5 1_555 1_555
S1 C9 1_555 1_555
S2 C10 1_555 1_555
S3 C11 1_555 1_555
N1 Cd1 1_555 1_555
N2 N1 1_555 1_555
N3 N4 1_555 1_555
N4 C3 1_555 1_555
N5 N6 1_555 1_555
N6 C4 1_555 1_555
N7 N8 1_555 1_555
N8 C6 1_555 1_555
N9 N10 1_555 1_555
N10 C7 1_555 1_555
N11 Cd2 1_555 1_555
N12 N11 1_555 1_555
N13 Cd2 1_555 1_555
N14 Cd1 1_555 1_555
N15 C11 1_555 1_555
C1 N1 1_555 1_555
H1 C1 1_555 1_555
C2 N2 1_555 1_555
H2 C2 1_555 1_555
C3 N5 1_555 1_555
H3 C3 1_555 1_555
C4 N4 1_555 1_555
H4 C4 1_555 1_555
C5 N7 1_555 1_555
H5 C5 1_555 1_555
C6 N9 1_555 1_555
H6 C6 1_555 1_555
C7 N11 1_555 1_555
H7 C7 1_555 1_555
C8 N10 1_555 1_555
H8 C8 1_555 1_555
C9 N13 1_555 1_555
C10 N14 1_555 1_555
Cd1A S3A_2 1_555 1_555
Cd1_2 N8 1_555 1_555
Cd1A_2 N15 1_555 1_555
Cd1A_3 N8A 1_555 1_555
S1A C9A 1_555 1_555
S2A C10A 1_555 1_555
S3A Cd1A_2 1_555 1_555
N1A Cd1A 1_555 1_555
N2A N1A 1_555 1_555
N3A N4A 1_555 1_555
N4A C3A 1_555 1_555
N5A Cd2 1_555 1_555
N6A N5A 1_555 1_555
N7A N8A 1_555 1_555
N8A C6A 1_555 1_555
N8_2 Cd1 1_555 1_555
N8A_2 Cd1A 1_555 1_555
N9A N10A 1_555 1_555
N10A C7A 1_555 1_555
N11A Cd2 1_555 1_555
N12A N11A 1_555 1_555
N13A Cd2 1_555 1_555
N14A Cd1A 1_555 1_555
N15A Cd1 1_555 1_555
N15_2 Cd1A 1_555 1_555
C1A N1A 1_555 1_555
H1A C1A 1_555 1_555
C2A N2A 1_555 1_555
H2A C2A 1_555 1_555
C3A N5A 1_555 1_555
H3A C3A 1_555 1_555
C4A N4A 1_555 1_555
H4A C4A 1_555 1_555
C5A N7A 1_555 1_555
H5A C5A 1_555 1_555
C6A N9A 1_555 1_555
H6A C6A 1_555 1_555
C7A N11A 1_555 1_555
H7A C7A 1_555 1_555
C8A N10A 1_555 1_555
H8A C8A 1_555 1_555
C9A N13A 1_555 1_555
C10A N14A 1_555 1_555
C11A S3A 1_555 1_555
N3 C1 1_555 1_555
N3 C2 1_555 1_555
N9 C5 1_555 1_555
N12 C8 1_555 1_555
N3A C1A 1_555 1_555
N3A C2A 1_555 1_555
N6A C4A 1_555 1_555
N9A C5A 1_555 1_555
N12A C8A 1_555 1_555
N15A C11A 1_555 1_555

#END
