
#######################################################################
#
#                 Cambridge Crystallographic Data Centre
#                                CCDC 
#
#######################################################################
#
# If this CIF has been generated from an entry in the Cambridge 
# Structural Database, then it will include bibliographic, chemical, 
# crystal, experimental, refinement or atomic coordinate data resulting 
# from the CCDC's data processing and validation procedures.
#
#######################################################################

data_KIXDIE10
_symmetry_cell_setting           monoclinic
_symmetry_space_group_name_H-M   'P 21/n'
_symmetry_Int_Tables_number      14
_space_group_name_Hall           '-P 2yn'
loop_
_symmetry_equiv_pos_site_id
_symmetry_equiv_pos_as_xyz
1 x,y,z
2 1/2-x,1/2+y,1/2-z
3 -x,-y,-z
4 1/2+x,1/2-y,1/2+z
_cell_length_a                   12.360(2)
_cell_length_b                   6.908
_cell_length_c                   25.936(6)
_cell_angle_alpha                90
_cell_angle_beta                 101.30(2)
_cell_angle_gamma                90
_cell_volume                     2171.56
loop_
_atom_site_label
_atom_site_type_symbol
_atom_site_fract_x
_atom_site_fract_y
_atom_site_fract_z
Tb1 Tb 0.7313(1) 0.8802(1) 0.2035(1)
Cl1 Cl 0.9646(2) 0.8216(4) 0.0549(1)
Cl2 Cl 0.5169(2) 0.8403(4) 0.3548(1)
Cl3 Cl 0.3650(2) 0.5407(4) 0.1332(1)
O1 O 0.9206(3) 0.8800(7) 0.2490(2)
O2 O 0.8284(4) 0.8694(8) 0.1333(2)
O3 O 0.6488(4) 0.8804(10) 0.1136(2)
O4 O 0.7317(4) 1.0374(6) 0.2948(2)
O5 O 0.7326(4) 0.7221(6) 0.2944(2)
O6 O 0.5508(4) 1.0400(7) 0.2002(2)
O7 O 0.5549(4) 0.7235(7) 0.2028(2)
C1 C 0.7402(5) 0.8730(10) 0.0992(3)
C2 C 0.7401(5) 0.8674(11) 0.0417(3)
C3 C 0.8318(6) 0.8461(10) 0.0183(3)
C4 C 0.8216(7) 0.8504(12) -0.0356(3)
C5 C 0.7201(7) 0.8709(12) -0.0677(3)
C6 C 0.6274(7) 0.8875(13) -0.0458(3)
C7 C 0.6362(6) 0.8847(12) 0.0076(3)
C8 C 0.7331(4) 0.8793(10) 0.3192(2)
C9 C 0.7371(5) 0.8761(10) 0.3775(2)
C10 C 0.6421(6) 0.8550(11) 0.3976(3)
C11 C 0.6475(8) 0.8470(12) 0.4519(3)
C12 C 0.7459(9) 0.8603(13) 0.4852(3)
C13 C 0.8414(8) 0.8785(13) 0.4659(3)
C14 C 0.8389(7) 0.8876(12) 0.4128(3)
C15 C 0.5023(5) 0.8773(10) 0.1982(2)
C16 C 0.3771(4) 0.8761(11) 0.1913(2)
C17 C 0.3115(6) 0.7324(11) 0.1629(3)
C18 C 0.1953(6) 0.7437(13) 0.1582(4)
C19 C 0.1483(3) 0.8910(16) 0.1790(4)
C20 C 0.2121(7) 1.0286(17) 0.2077(3)
C21 C 0.3262(6) 1.0255(12) 0.2126(3)
O4A O 0.7683(4) 0.5374(6) 0.2052(2)
O5A O 0.7674(4) 1.2221(6) 0.2056(2)
Tb1A Tb 0.7687(1) 1.3802(1) 0.2965(1)
Tb1A_2 Tb 0.7687(1) 0.3802(1) 0.2965(1)
loop_
_geom_bond_atom_site_label_1
_geom_bond_atom_site_label_2
_geom_bond_site_symmetry_1
_geom_bond_site_symmetry_2
Tb1 O1 1_555 1_555
Cl1 C3 1_555 1_555
Cl2 C10 1_555 1_555
Cl3 C17 1_555 1_555
O2 Tb1 1_555 1_555
O3 Tb1 1_555 1_555
O4 Tb1 1_555 1_555
O5 Tb1 1_555 1_555
O6 Tb1 1_555 1_555
O7 Tb1 1_555 1_555
C1 O2 1_555 1_555
C2 C1 1_555 1_555
C3 C2 1_555 1_555
C4 C3 1_555 1_555
C5 C4 1_555 1_555
C6 C5 1_555 1_555
C7 C2 1_555 1_555
C8 O4 1_555 1_555
C9 C8 1_555 1_555
C10 C9 1_555 1_555
C11 C10 1_555 1_555
C12 C11 1_555 1_555
C13 C12 1_555 1_555
C14 C9 1_555 1_555
C15 O6 1_555 1_555
C16 C15 1_555 1_555
C17 C16 1_555 1_555
C18 C17 1_555 1_555
C19 C18 1_555 1_555
C20 C19 1_555 1_555
C21 C16 1_555 1_555
O4A Tb1 1_555 1_555
O5A Tb1 1_555 1_555
Tb1A O4 1_555 1_555
Tb1A_2 O5 1_555 1_555
O3 C1 1_555 1_555
O5 C8 1_555 1_555
O7 C15 1_555 1_555
C6 C7 1_555 1_555
C13 C14 1_555 1_555
C20 C21 1_555 1_555
O4A Tb1A_2 1_555 1_555
O5A Tb1A 1_555 1_555

#END
