
#######################################################################
#
#                 Cambridge Crystallographic Data Centre
#                                CCDC 
#
#######################################################################
#
# If this CIF has been generated from an entry in the Cambridge 
# Structural Database, then it will include bibliographic, chemical, 
# crystal, experimental, refinement or atomic coordinate data resulting 
# from the CCDC's data processing and validation procedures.
#
#######################################################################

data_KIXDOK
_symmetry_cell_setting           monoclinic
_symmetry_space_group_name_H-M   'P 21/n'
_symmetry_Int_Tables_number      14
_space_group_name_Hall           '-P 2yn'
loop_
_symmetry_equiv_pos_site_id
_symmetry_equiv_pos_as_xyz
1 x,y,z
2 1/2-x,1/2+y,1/2-z
3 -x,-y,-z
4 1/2+x,1/2-y,1/2+z
_cell_length_a                   12.373(5)
_cell_length_b                   7.021(2)
_cell_length_c                   26.086(9)
_cell_angle_alpha                90
_cell_angle_beta                 101.71(3)
_cell_angle_gamma                90
_cell_volume                     2218.95
loop_
_atom_site_label
_atom_site_type_symbol
_atom_site_fract_x
_atom_site_fract_y
_atom_site_fract_z
Nd1 Nd 0.7317(1) 0.8735(1) 0.2026(1)
Cl1 Cl 0.9646(3) 0.8163(7) 0.0531(2)
Cl2 Cl 0.5173(3) 0.8310(8) 0.3545(2)
Cl3 Cl 0.3604(4) 0.5383(7) 0.1320(2)
O1 O 0.9269(7) 0.8684(12) 0.2511(3)
O2 O 0.8285(8) 0.8601(15) 0.1305(3)
O3 O 0.6494(8) 0.8737(20) 0.1110(4)
O4 O 0.7338(7) 1.0267(11) 0.2955(3)
O5 O 0.7317(8) 0.7170(13) 0.2954(3)
O6 O 0.5448(7) 1.0290(12) 0.1995(4)
O7 O 0.5512(8) 0.7151(14) 0.2013(4)
C1 C 0.7390(11) 0.8638(18) 0.0394(5)
C2 C 0.8317(12) 0.8462(21) 0.0168(5)
C3 C 0.8218(14) 0.8501(22) -0.0378(5)
C4 C 0.7194(15) 0.8773(25) -0.0806(5)
C5 C 0.6258(15) 0.8951(24) -0.0481(6)
C6 C 0.6369(12) 0.8884(12) 0.0067(5)
C7 C 0.7401(11) 0.8688(19) 0.0968(5)
C8 C 0.7401(12) 0.8680(19) 0.3774(4)
C9 C 0.6428(12) 0.8515(21) 0.3966(5)
C10 C 0.6471(18) 0.8448(22) 0.4516(7)
C11 C 0.7501(22) 0.8684(27) 0.4856(6)
C12 C 0.8408(17) 0.8802(25) 0.4656(6)
C13 C 0.8393(14) 0.8850(22) 0.4127(5)
C14 C 0.7344(7) 0.8657(16) 0.3196(4)
C15 C 0.3726(9) 0.8663(19) 0.1908(5)
C16 C 0.3043(12) 0.7260(23) 0.1623(6)
C17 C 0.1942(12) 0.7351(28) 0.1559(7)
C18 C 0.1448(11) 0.8874(31) 0.1793(6)
C19 C 0.2080(13) 1.0263(28) 0.2076(6)
C20 C 0.3214(12) 1.0095(22) 0.2114(6)
C21 C 0.4957(9) 0.8717(19) 0.1981(4)
O4A O 0.7662(7) 0.5267(11) 0.2045(3)
O5A O 0.7683(8) 1.2170(13) 0.2046(3)
Nd1A Nd 0.7683(1) 1.3735(1) 0.2974(1)
Nd1A_2 Nd 0.7683(1) 0.3735(1) 0.2974(1)
loop_
_geom_bond_atom_site_label_1
_geom_bond_atom_site_label_2
_geom_bond_site_symmetry_1
_geom_bond_site_symmetry_2
Nd1 O1 1_555 1_555
Cl1 C2 1_555 1_555
Cl2 C9 1_555 1_555
Cl3 C16 1_555 1_555
O2 Nd1 1_555 1_555
O3 Nd1 1_555 1_555
O4 Nd1 1_555 1_555
O5 Nd1 1_555 1_555
O6 Nd1 1_555 1_555
O7 Nd1 1_555 1_555
C1 C2 1_555 1_555
C2 C3 1_555 1_555
C3 C4 1_555 1_555
C4 C5 1_555 1_555
C5 C6 1_555 1_555
C6 C1 1_555 1_555
C7 O2 1_555 1_555
C8 C9 1_555 1_555
C9 C10 1_555 1_555
C10 C11 1_555 1_555
C11 C12 1_555 1_555
C12 C13 1_555 1_555
C13 C8 1_555 1_555
C14 O4 1_555 1_555
C15 C16 1_555 1_555
C16 C17 1_555 1_555
C17 C18 1_555 1_555
C18 C19 1_555 1_555
C19 C20 1_555 1_555
C20 C15 1_555 1_555
C21 O6 1_555 1_555
O4A Nd1 1_555 1_555
O5A Nd1 1_555 1_555
Nd1A O4 1_555 1_555
Nd1A_2 O5 1_555 1_555
O3 C7 1_555 1_555
O5 C14 1_555 1_555
O7 C21 1_555 1_555
C1 C7 1_555 1_555
C8 C14 1_555 1_555
C15 C21 1_555 1_555
O4A Nd1A_2 1_555 1_555
O5A Nd1A 1_555 1_555

#END
