
#######################################################################
#
#                 Cambridge Crystallographic Data Centre
#                                CCDC 
#
#######################################################################
#
# If this CIF has been generated from an entry in the Cambridge 
# Structural Database, then it will include bibliographic, chemical, 
# crystal, experimental, refinement or atomic coordinate data resulting 
# from the CCDC's data processing and validation procedures.
#
#######################################################################

data_KIXDOK10
_symmetry_cell_setting           monoclinic
_symmetry_space_group_name_H-M   'P 21/n'
_symmetry_Int_Tables_number      14
_space_group_name_Hall           '-P 2yn'
loop_
_symmetry_equiv_pos_site_id
_symmetry_equiv_pos_as_xyz
1 x,y,z
2 1/2-x,1/2+y,1/2-z
3 -x,-y,-z
4 1/2+x,1/2-y,1/2+z
_cell_length_a                   12.373(5)
_cell_length_b                   7.021(2)
_cell_length_c                   26.086(9)
_cell_angle_alpha                90
_cell_angle_beta                 101.71(3)
_cell_angle_gamma                90
_cell_volume                     2218.95
loop_
_atom_site_label
_atom_site_type_symbol
_atom_site_fract_x
_atom_site_fract_y
_atom_site_fract_z
Nd1 Nd 0.7317(1) 0.8734(1) 0.2026(1)
Cl1 Cl 0.9645(4) 0.8165(8) 0.0531(1)
Cl2 Cl 0.5171(4) 0.8303(9) 0.3546(2)
Cl3 Cl 0.3606(5) 0.5393(8) 0.1317(3)
O1 O 0.9269(8) 0.8682(13) 0.2510(4)
O2 O 0.8288(9) 0.8611(17) 0.1307(4)
O3 O 0.6495(10) 0.8580(23) 0.1108(4)
O4 O 0.7325(8) 1.0288(13) 0.2954(3)
O5 O 0.7330(9) 0.7186(14) 0.2955(4)
O6 O 0.5455(8) 1.0266(14) 0.1999(5)
O7 O 0.5502(9) 0.7133(16) 0.2011(5)
C1 C 0.7409(13) 0.8735(23) 0.0969(5)
C2 C 0.7397(13) 0.8667(22) 0.0395(6)
C3 C 0.8313(14) 0.8472(23) 0.0167(6)
C4 C 0.8219(16) 0.8519(25) -0.0377(6)
C5 C 0.7208(18) 0.8759(29) -0.0695(6)
C6 C 0.6267(18) 0.8957(27) -0.0481(7)
C7 C 0.6381(14) 0.8860(25) 0.0065(5)
C8 C 0.7342(9) 0.8698(19) 0.3199(5)
C9 C 0.7402(14) 0.8690(21) 0.3775(5)
C10 C 0.6429(14) 0.8479(21) 0.3966(7)
C11 C 0.6483(20) 0.8428(22) 0.4517(8)
C12 C 0.7496(27) 0.8693(35) 0.4856(7)
C13 C 0.8416(22) 0.8847(29) 0.4659(7)
C14 C 0.8398(17) 0.8838(25) 0.4128(6)
C15 C 0.4953(11) 0.8698(21) 0.1980(5)
C16 C 0.3727(10) 0.8704(23) 0.1911(6)
C17 C 0.3052(13) 0.7183(26) 0.1626(7)
C18 C 0.1940(14) 0.7395(32) 0.1558(8)
C19 C 0.1443(13) 0.8836(36) 0.1795(7)
C20 C 0.2082(15) 1.0279(31) 0.2077(7)
C21 C 0.3219(14) 1.0040(25) 0.2116(7)
O4A O 0.7675(8) 0.5288(13) 0.2046(3)
O5A O 0.7670(9) 1.2186(14) 0.2045(4)
Nd1A Nd 0.7683(1) 1.3734(1) 0.2974(1)
Nd1A_2 Nd 0.7683(1) 0.3734(1) 0.2974(1)
loop_
_geom_bond_atom_site_label_1
_geom_bond_atom_site_label_2
_geom_bond_site_symmetry_1
_geom_bond_site_symmetry_2
Nd1 O1 1_555 1_555
Cl1 C3 1_555 1_555
Cl2 C10 1_555 1_555
Cl3 C17 1_555 1_555
O2 Nd1 1_555 1_555
O3 Nd1 1_555 1_555
O4 Nd1 1_555 1_555
O5 Nd1 1_555 1_555
O6 Nd1 1_555 1_555
O7 Nd1 1_555 1_555
C1 O2 1_555 1_555
C2 C1 1_555 1_555
C3 C2 1_555 1_555
C4 C3 1_555 1_555
C5 C4 1_555 1_555
C6 C5 1_555 1_555
C7 C2 1_555 1_555
C8 O4 1_555 1_555
C9 C8 1_555 1_555
C10 C9 1_555 1_555
C11 C10 1_555 1_555
C12 C11 1_555 1_555
C13 C12 1_555 1_555
C14 C9 1_555 1_555
C15 O6 1_555 1_555
C16 C15 1_555 1_555
C17 C16 1_555 1_555
C18 C17 1_555 1_555
C19 C18 1_555 1_555
C20 C19 1_555 1_555
C21 C16 1_555 1_555
O4A Nd1 1_555 1_555
O5A Nd1 1_555 1_555
Nd1A O4 1_555 1_555
Nd1A_2 O5 1_555 1_555
O3 C1 1_555 1_555
O5 C8 1_555 1_555
O7 C15 1_555 1_555
C6 C7 1_555 1_555
C13 C14 1_555 1_555
C20 C21 1_555 1_555
O4A Nd1A_2 1_555 1_555
O5A Nd1A 1_555 1_555

#END
