
#######################################################################
#
#                 Cambridge Crystallographic Data Centre
#                                CCDC 
#
#######################################################################
#
# If this CIF has been generated from an entry in the Cambridge 
# Structural Database, then it will include bibliographic, chemical, 
# crystal, experimental, refinement or atomic coordinate data resulting 
# from the CCDC's data processing and validation procedures.
#
#######################################################################

data_KIXFEC01
_symmetry_cell_setting           monoclinic
_symmetry_space_group_name_H-M   'C c'
_symmetry_Int_Tables_number      9
_space_group_name_Hall           'C -2yc'
loop_
_symmetry_equiv_pos_site_id
_symmetry_equiv_pos_as_xyz
1 x,y,z
2 x,-y,1/2+z
3 1/2+x,1/2+y,z
4 1/2+x,1/2-y,1/2+z
_cell_length_a                   16.217(2)
_cell_length_b                   14.877(2)
_cell_length_c                   9.835(2)
_cell_angle_alpha                90
_cell_angle_beta                 101.46(1)
_cell_angle_gamma                90
_cell_volume                     2325.49
loop_
_atom_site_label
_atom_site_type_symbol
_atom_site_fract_x
_atom_site_fract_y
_atom_site_fract_z
Ho1 Ho 0.117000 0.000000 0.001000
O1 O 0.014400 0.039600 -0.176900
O2 O 0.009300 0.058500 -0.402700
O3 O -0.115300 0.149300 -0.545300
O4 O 0.235000 -0.046100 -0.084100
O5 O 0.215700 -0.030400 -0.307400
O6 O 0.357000 -0.131000 0.055500
O7 O 0.158900 -0.148100 0.102800
O8 O 0.076600 -0.144500 -0.104000
O9 O 0.215100 -0.307700 0.188200
O10 O 0.171500 0.133500 -0.101200
O11 O 0.060200 0.124000 0.104100
C1 C -0.022800 0.066500 -0.303300
C2 C 0.260200 -0.053000 -0.204500
C3 C 0.117200 -0.189200 0.007100
C4 C -0.111500 0.097100 -0.319800
C5 C -0.150100 0.136900 -0.437300
C6 C -0.230700 0.168100 -0.449700
C7 C -0.269700 0.171100 -0.339200
C8 C -0.229300 0.135800 -0.211900
C9 C -0.154500 0.100700 -0.196600
C10 C 0.341500 -0.099100 -0.197700
C11 C 0.388600 -0.136700 -0.071000
C12 C 0.466900 -0.182100 -0.072700
C13 C 0.497000 -0.177500 -0.199800
C14 C 0.453000 -0.138800 -0.311600
C15 C 0.374400 -0.101700 -0.305600
C16 C 0.109900 -0.288400 -0.020400
C17 C 0.159800 -0.343700 0.081500
C18 C 0.156800 -0.433100 0.067200
C19 C 0.101900 -0.471500 -0.043800
C20 C 0.050800 -0.420100 -0.144200
C21 C 0.057300 -0.330700 -0.126800
Ho1A Ho 0.117000 0.000000 -0.499000
O2A O 0.009300 -0.058500 0.097300
O5A O 0.215700 0.030400 0.192600
O12 O 0.831600 0.339300 0.355700
O13 O 0.894200 0.154200 0.150600
loop_
_geom_bond_atom_site_label_1
_geom_bond_atom_site_label_2
_geom_bond_site_symmetry_1
_geom_bond_site_symmetry_2
Ho1 O1 1_555 1_555
O1 C1 1_555 1_555
O2 C1 1_555 1_555
O3 C5 1_555 1_555
O4 Ho1 1_555 1_555
O5 C2 1_555 1_555
O6 C11 1_555 1_555
O7 Ho1 1_555 1_555
O8 Ho1 1_555 1_555
O9 C17 1_555 1_555
O10 Ho1 1_555 1_555
O11 Ho1 1_555 1_555
C1 C4 1_555 1_555
C2 O4 1_555 1_555
C3 O7 1_555 1_555
C4 C5 1_555 1_555
C5 C6 1_555 1_555
C6 C7 1_555 1_555
C7 C8 1_555 1_555
C8 C9 1_555 1_555
C9 C4 1_555 1_555
C10 C2 1_555 1_555
C11 C10 1_555 1_555
C12 C11 1_555 1_555
C13 C12 1_555 1_555
C14 C13 1_555 1_555
C15 C10 1_555 1_555
C16 C3 1_555 1_555
C17 C16 1_555 1_555
C18 C17 1_555 1_555
C19 C18 1_555 1_555
C20 C19 1_555 1_555
C21 C16 1_555 1_555
Ho1A O2 1_555 1_555
O2A Ho1 1_555 1_555
O5A Ho1 1_555 1_555
O5 Ho1A 1_555 1_555
O8 C3 1_555 1_555
C14 C15 1_555 1_555
C20 C21 1_555 1_555

#END
