
#######################################################################
#
#                 Cambridge Crystallographic Data Centre
#                                CCDC 
#
#######################################################################
#
# If this CIF has been generated from an entry in the Cambridge 
# Structural Database, then it will include bibliographic, chemical, 
# crystal, experimental, refinement or atomic coordinate data resulting 
# from the CCDC's data processing and validation procedures.
#
#######################################################################

data_KIXGED
_symmetry_cell_setting           monoclinic
_symmetry_space_group_name_H-M   'P 2/c'
_symmetry_Int_Tables_number      13
_space_group_name_Hall           '-P 2yc'
loop_
_symmetry_equiv_pos_site_id
_symmetry_equiv_pos_as_xyz
1 x,y,z
2 -x,y,1/2-z
3 -x,-y,-z
4 x,-y,1/2+z
_cell_length_a                   8.531(2)
_cell_length_b                   6.870(1)
_cell_length_c                   14.463(2)
_cell_angle_alpha                90
_cell_angle_beta                 93.84(2)
_cell_angle_gamma                90
_cell_volume                     845.744
loop_
_atom_site_label
_atom_site_type_symbol
_atom_site_fract_x
_atom_site_fract_y
_atom_site_fract_z
Cu1 Cu 0.4574(2) 0.1702(2) 0.4122(1)
C1 C 0.671(1) -0.159(2) 0.3528(9)
C2 C 0.416(1) 0.524(2) 0.4915(8)
C3 C 0.165(1) 0.432(2) 0.425(1)
C4 C 0.117(2) 0.085(3) 0.367(2)
C5 C 0.077(2) 0.250(3) 0.403(2)
N1 N 0.598(1) -0.040(2) 0.383(1)
N2 N 0.272(1) -0.001(2) 0.3792(9)
N3 N 0.332(1) 0.396(1) 0.4433(7)
O1 O 0.5000 0.330(2) 0.2500
O2 O 0.3670(9) 0.687(1) 0.5230(6)
S1 S 0.7815(5) -0.3258(6) 0.3092(3)
C2B C 0.584(1) 0.476(2) 0.5085(8)
N3B N 0.668(1) 0.604(1) 0.5567(7)
C3B C 0.835(1) 0.568(2) 0.575(1)
C5B C 0.923(2) 0.750(3) 0.597(2)
C4B C 0.883(2) 0.915(3) 0.633(2)
N2B N 0.728(1) 1.001(2) 0.6208(9)
O2B O 0.6330(9) 0.313(1) 0.4770(6)
Cu1B Cu 0.5426(2) 0.8298(2) 0.5878(1)
C1B C 0.329(1) 1.159(2) 0.6472(9)
N1B N 0.402(1) 1.040(2) 0.617(1)
S1B S 0.2185(5) 1.3258(6) 0.6908(3)
Cu1B_2 Cu 0.5426(2) -0.1702(2) 0.5878(1)
Cu1A Cu 0.5426(2) 0.1702(2) 0.0878(1)
Cu1_2 Cu 0.4574(2) 1.1702(2) 0.4122(1)
O1B O 0.5000 0.670(2) 0.7500
loop_
_geom_bond_atom_site_label_1
_geom_bond_atom_site_label_2
_geom_bond_site_symmetry_1
_geom_bond_site_symmetry_2
Cu1 N1 1_555 1_555
C1 N1 1_555 1_555
C2 N3 1_555 1_555
C3 C5 1_555 1_555
C4 C5 1_555 1_555
N2 Cu1 1_555 1_555
N3 Cu1 1_555 1_555
O1 Cu1 1_555 1_555
O2 C2 1_555 1_555
S1 C1 1_555 1_555
C2B C2 1_555 1_555
N3B C2B 1_555 1_555
C3B N3B 1_555 1_555
C5B C3B 1_555 1_555
C4B C5B 1_555 1_555
N2B C4B 1_555 1_555
O2B Cu1 1_555 1_555
Cu1B O2 1_555 1_555
C1B N1B 1_555 1_555
N1B Cu1B 1_555 1_555
S1B C1B 1_555 1_555
Cu1B_2 Cu1 1_555 1_555
Cu1A O1 1_555 1_555
Cu1_2 Cu1B 1_555 1_555
O1B Cu1B 1_555 1_555
C3 N3 1_555 1_555
C4 N2 1_555 1_555
C2B O2B 1_555 1_555
N3B Cu1B 1_555 1_555
N2B Cu1B 1_555 1_555

#END
