
#######################################################################
#
#                 Cambridge Crystallographic Data Centre
#                                CCDC 
#
#######################################################################
#
# If this CIF has been generated from an entry in the Cambridge 
# Structural Database, then it will include bibliographic, chemical, 
# crystal, experimental, refinement or atomic coordinate data resulting 
# from the CCDC's data processing and validation procedures.
#
#######################################################################

data_KIXKOT
_symmetry_cell_setting           triclinic
_symmetry_space_group_name_H-M   'P -1'
_symmetry_Int_Tables_number      2
_space_group_name_Hall           '-P 1'
loop_
_symmetry_equiv_pos_site_id
_symmetry_equiv_pos_as_xyz
1 x,y,z
2 -x,-y,-z
_cell_length_a                   10.201(5)
_cell_length_b                   12.926(5)
_cell_length_c                   13.471(5)
_cell_angle_alpha                77.245(5)
_cell_angle_beta                 68.035(5)
_cell_angle_gamma                82.256(5)
_cell_volume                     1604
loop_
_atom_site_label
_atom_site_type_symbol
_atom_site_fract_x
_atom_site_fract_y
_atom_site_fract_z
O2 O 0.348(3) 0.619(2) -0.064(2)
O3 O 0.161(2) 0.400(2) 0.3328(14)
O4 O -0.0082(18) 0.3166(17) 0.2584(16)
O5 O 0.1123(17) 0.2209(17) 0.0858(15)
O6 O 0.259(2) 0.3546(18) 0.1242(17)
O7 O -0.108(2) 0.1332(11) 0.2573(13)
O8 O 0.227(2) 0.3111(14) -0.3308(14)
O9 O 0.157(3) 0.4394(19) -0.0748(19)
O10 O 0.2881(17) 0.7552(11) 0.0735(15)
O11 O 0.5106(16) 0.5764(14) -0.2689(15)
O12 O 0.242(3) 0.284(2) -0.126(2)
O13 O 0.4073(17) 0.2127(13) -0.007(2)
O14 O -0.013(2) 0.2957(16) -0.149(2)
O15 O 0.286(2) 0.4733(17) -0.2557(17)
O16 O -0.125(2) 0.3968(17) 0.0689(17)
O17 O 0.046(2) 0.4827(17) -0.286(2)
O18 O 0.388(3) 0.417(2) -0.091(2)
O19 O 0.215(2) 0.5508(17) 0.152(2)
O20 O 0.139(2) 0.770(2) -0.0619(19)
O21 O 0.250(2) 0.6734(17) -0.2325(16)
O22 O 0.032(2) 0.5439(17) 0.1034(16)
O23 O 0.058(2) 0.4039(17) 0.0730(16)
Mo1 Mo 0.2010(2) 0.67637(17) 0.0437(2)
Mo2 Mo 0.1122(2) 0.43070(15) 0.22642(17)
Mo3 Mo -0.0675(2) 0.24818(13) 0.17054(15)
Mo4 Mo 0.2814(2) 0.30674(14) -0.00309(17)
Mo5 Mo 0.3475(2) 0.55322(19) -0.18690(16)
Mo6 Mo 0.1524(2) 0.36344(17) -0.21957(18)
Ag4 Ag 0.5000 0.5000 0.0000
Ge1 Ge 0.0000 0.5000 0.0000
O2A O -0.348(3) 0.381(2) 0.064(2)
O3A O -0.161(2) 0.600(2) -0.3328(14)
O4A O 0.0082(18) 0.6834(17) -0.2584(16)
O5A O -0.1123(17) 0.7791(17) -0.0858(15)
O6A O -0.259(2) 0.6454(18) -0.1242(17)
O7A O 0.108(2) 0.8668(11) -0.2573(13)
O8A O -0.227(2) 0.6889(14) 0.3308(14)
O9A O -0.157(3) 0.5606(19) 0.0748(19)
O10A O -0.2881(17) 0.2448(11) -0.0735(15)
O11A O -0.5106(16) 0.4236(14) 0.2689(15)
O12A O -0.242(3) 0.716(2) 0.126(2)
O13A O -0.4073(17) 0.7873(13) 0.007(2)
O14A O 0.013(2) 0.7043(16) 0.149(2)
O15A O -0.286(2) 0.5267(17) 0.2557(17)
O16A O 0.125(2) 0.6032(17) -0.0689(17)
O17A O -0.046(2) 0.5173(17) 0.286(2)
O18A O -0.388(3) 0.583(2) 0.091(2)
O19A O -0.215(2) 0.4492(17) -0.152(2)
O20A O -0.139(2) 0.230(2) 0.0619(19)
O21A O -0.250(2) 0.3266(17) 0.2325(16)
O22A O -0.032(2) 0.4561(17) -0.1034(16)
O23A O -0.058(2) 0.5961(17) -0.0730(16)
Mo1A Mo -0.2010(2) 0.32363(17) -0.0437(2)
Mo2A Mo -0.1122(2) 0.56930(15) -0.22642(17)
Mo3A Mo 0.0675(2) 0.75182(13) -0.17054(15)
Mo4A Mo -0.2814(2) 0.69326(14) 0.00309(17)
Mo5A Mo -0.3475(2) 0.44678(19) 0.18690(16)
Mo6A Mo -0.1524(2) 0.63656(17) 0.21957(18)
O2A_2 O 0.652(3) 0.381(2) 0.064(2)
O18A_2 O 0.612(3) 0.583(2) 0.091(2)
Ag4_2 Ag -0.5000 0.5000 0.0000
O24 O 0.360(4) 0.170(3) 0.347(4)
H11 H 0.3923 0.1844 0.3914
H12 H 0.3240 0.2271 0.3199
C1 C 0.1192(18) -0.0833(16) 0.2968(15)
C2 C 0.176(2) -0.0407(15) 0.3547(16)
H1 H 0.2378 0.0137 0.3182
C3 C 0.588(2) 0.2618(17) 0.5975(17)
C4 C 0.054(2) -0.1492(16) 0.5144(16)
H2 H 0.0355 -0.1747 0.5883
C5 C -0.015(3) -0.1900(17) 0.4598(18)
H3 H -0.0835 -0.2391 0.4980
C6 C 0.020(2) -0.1568(16) 0.3504(17)
H4 H -0.0234 -0.1839 0.3127
C7 C 0.1644(17) -0.0484(13) 0.1782(14)
C8 C 0.614(2) 0.297(2) 0.678(2)
H5 H 0.5742 0.2632 0.7502
C9 C 0.697(3) 0.3803(18) 0.656(2)
H6 H 0.7125 0.4020 0.7120
C10 C 0.735(3) 0.398(2) 0.470(3)
H7 H 0.7797 0.4296 0.3975
C11 C 0.499(2) 0.1806(18) 0.6176(16)
C12 C 0.758(3) 0.432(2) 0.548(3)
H8 H 0.8139 0.4899 0.5306
N1 N 0.3033(17) -0.0012(13) 0.0110(12)
N2 N 0.3000(15) -0.0262(14) 0.1142(12)
N3 N 0.1751(17) -0.0058(13) 0.0125(13)
N4 N 0.0853(16) -0.0346(12) 0.1162(12)
N5 N 0.3508(16) 0.0614(14) 0.7056(13)
N6 N 0.3634(17) 0.0812(14) 0.6023(14)
N7 N 0.459(2) 0.1521(16) 0.5432(14)
N8 N 0.4331(16) 0.1209(14) 0.7197(13)
N9 N 0.1478(17) -0.0738(14) 0.4607(13)
N10 N 0.647(3) 0.315(2) 0.491(2)
Ag1 Ag 0.2507(2) -0.00409(19) 0.54177(16)
Ag2 Ag 0.49377(17) 0.05163(16) -0.13443(13)
Ag3 Ag -0.14651(16) -0.01993(15) 0.15214(13)
O1 O 0.470(5) -0.138(3) -0.176(3)
H9 H 0.3859 -0.1568 -0.1519
H10 H 0.5019 -0.1551 -0.1240
N2A N 0.7000(15) 0.0262(14) -0.1142(12)
N3A N -0.1751(17) 0.0058(13) -0.0125(13)
N5A N -0.3508(16) -0.0614(14) 0.2944(13)
N8_2 N 0.4331(16) 0.1209(14) -0.2803(13)
Ag2_2 Ag 0.49377(17) 0.05163(16) 0.86557(13)
Ag2A Ag 0.50623(17) -0.05163(16) 0.13443(13)
Ag3A Ag 0.14651(16) 0.01993(15) -0.15214(13)
Ag3A_2 Ag 0.14651(16) 0.01993(15) 0.84786(13)
loop_
_geom_bond_atom_site_label_1
_geom_bond_atom_site_label_2
_geom_bond_site_symmetry_1
_geom_bond_site_symmetry_2
C1 C2 1_555 1_555
C2 H1 1_555 1_555
C3 C8 1_555 1_555
C4 H2 1_555 1_555
C5 C4 1_555 1_555
H3 C5 1_555 1_555
C6 C1 1_555 1_555
H4 C6 1_555 1_555
C7 C1 1_555 1_555
C8 H5 1_555 1_555
C9 C8 1_555 1_555
H6 C9 1_555 1_555
C10 H7 1_555 1_555
C11 C3 1_555 1_555
C12 C9 1_555 1_555
H8 C12 1_555 1_555
N1 N2 1_555 1_555
N2 C7 1_555 1_555
N3 N1 1_555 1_555
N4 C7 1_555 1_555
N5 N6 1_555 1_555
N6 N7 1_555 1_555
N7 C11 1_555 1_555
N8 C11 1_555 1_555
N9 C2 1_555 1_555
N10 C3 1_555 1_555
Ag1 N6 1_555 1_555
Ag2 N1 1_555 1_555
Ag3 N4 1_555 1_555
O1 Ag2 1_555 1_555
H9 O1 1_555 1_555
H10 O1 1_555 1_555
O2 Mo1 1_555 1_555
O3 Mo2 1_555 1_555
O4 Mo2 1_555 1_555
O5 Mo3 1_555 1_555
O6 Mo2 1_555 1_555
O7 Mo3 1_555 1_555
O8 Mo6 1_555 1_555
O9 Mo4 1_555 1_555
O10 Mo1 1_555 1_555
O11 Mo5 1_555 1_555
O12 Mo4 1_555 1_555
O13 Mo4 1_555 1_555
O14 Mo6 1_555 1_555
O15 Mo5 1_555 1_555
O16 Mo3 1_555 1_555
O17 Mo6 1_555 1_555
O18 Mo4 1_555 1_555
O19 Mo1 1_555 1_555
O20 Mo1 1_555 1_555
O21 Mo5 1_555 1_555
O22 Mo1 1_555 1_555
O23 Mo2 1_555 1_555
Mo1 O14A 1_555 1_555
Mo2 O19 1_555 1_555
Mo3 O4 1_555 1_555
Mo4 O5 1_555 1_555
Mo5 O2 1_555 1_555
Mo6 O9 1_555 1_555
Ag4 O2 1_555 1_555
Ge1 O9 1_555 1_555
O24 H11 1_555 1_555
H12 O24 1_555 1_555
N2A Ag2 1_555 1_555
N3A Ag3 1_555 1_555
N5A Ag3 1_555 1_555
N8_2 Ag2 1_555 1_555
Ag2_2 N8 1_555 1_555
Ag2A N2 1_555 1_555
Ag3A N3 1_555 1_555
Ag3A_2 N5 1_555 1_555
O2A Mo1A 1_555 1_555
O3A Mo2A 1_555 1_555
O4A Mo2A 1_555 1_555
O5A Mo3A 1_555 1_555
O6A Mo2A 1_555 1_555
O7A Mo3A 1_555 1_555
O8A Mo6A 1_555 1_555
O9A Ge1 1_555 1_555
O10A Mo1A 1_555 1_555
O11A Mo5A 1_555 1_555
O12A Mo4A 1_555 1_555
O13A Mo4A 1_555 1_555
O14A Mo6A 1_555 1_555
O15A Mo5A 1_555 1_555
O16A Mo1 1_555 1_555
O17A Mo2 1_555 1_555
O18A Mo4A 1_555 1_555
O19A Mo1A 1_555 1_555
O20A Mo3 1_555 1_555
O21A Mo3 1_555 1_555
O22A Mo6 1_555 1_555
O23A Ge1 1_555 1_555
Mo1A O14 1_555 1_555
Mo2A O17 1_555 1_555
Mo3A O20 1_555 1_555
Mo4A O5A 1_555 1_555
Mo5A O16 1_555 1_555
Mo6A O22 1_555 1_555
O2A_2 Ag4 1_555 1_555
O18A_2 Ag4 1_555 1_555
Ag4_2 O2A 1_555 1_555
C4 N9 1_555 1_555
C5 C6 1_555 1_555
C10 C12 1_555 1_555
C10 N10 1_555 1_555
N3 N4 1_555 1_555
N5 N8 1_555 1_555
N9 Ag1 1_555 1_555
O6 Mo4 1_555 1_555
O9 Mo5 1_555 1_555
O12 Mo6 1_555 1_555
O15 Mo6 1_555 1_555
O16 Ge1 1_555 1_555
O16 Mo1A 1_555 1_555
O18 Mo5 1_555 1_555
O18 Ag4 1_555 1_555
O21 Mo3A 1_555 1_555
O22 Mo2 1_555 1_555
O22 Ge1 1_555 1_555
O23 Mo3 1_555 1_555
O23 Mo4 1_555 1_555
O23 Ge1 1_555 1_555
Mo5 O16A 1_555 1_555
Ge1 O16A 1_555 1_555
Ge1 O22A 1_555 1_555
O2A Mo5A 1_555 1_555
O4A Mo3A 1_555 1_555
O6A Mo4A 1_555 1_555
O9A Mo4A 1_555 1_555
O9A Mo5A 1_555 1_555
O9A Mo6A 1_555 1_555
O12A Mo6A 1_555 1_555
O15A Mo6A 1_555 1_555
O16A Mo3A 1_555 1_555
O17A Mo6A 1_555 1_555
O18A Mo5A 1_555 1_555
O18A Ag4_2 1_555 1_555
O19A Mo2A 1_555 1_555
O20A Mo1A 1_555 1_555
O21A Mo5A 1_555 1_555
O22A Mo1A 1_555 1_555
O22A Mo2A 1_555 1_555
O23A Mo2A 1_555 1_555
O23A Mo3A 1_555 1_555
O23A Mo4A 1_555 1_555

#END
