
#######################################################################
#
#                 Cambridge Crystallographic Data Centre
#                                CCDC 
#
#######################################################################
#
# If this CIF has been generated from an entry in the Cambridge 
# Structural Database, then it will include bibliographic, chemical, 
# crystal, experimental, refinement or atomic coordinate data resulting 
# from the CCDC's data processing and validation procedures.
#
#######################################################################

data_KIXSIV
_symmetry_cell_setting           monoclinic
_symmetry_space_group_name_H-M   'C 2/c'
_symmetry_Int_Tables_number      15
_space_group_name_Hall           '-C 2yn'
loop_
_symmetry_equiv_pos_site_id
_symmetry_equiv_pos_as_xyz
1 x,y,z
2 -x,y,1/2-z
3 1/2+x,1/2+y,z
4 1/2-x,1/2+y,1/2-z
5 -x,-y,-z
6 x,-y,1/2+z
7 1/2-x,1/2-y,-z
8 1/2+x,1/2-y,1/2+z
_cell_length_a                   25.874(5)
_cell_length_b                   9.6099(19)
_cell_length_c                   20.060(4)
_cell_angle_alpha                90
_cell_angle_beta                 122.638(2)
_cell_angle_gamma                90
_cell_volume                     4200.24
loop_
_atom_site_label
_atom_site_type_symbol
_atom_site_fract_x
_atom_site_fract_y
_atom_site_fract_z
Pr1 Pr -0.00243(2) 0.72669(2) 0.47699(2)
O1 O 0.07115(14) 0.8927(3) 0.4793(2)
O2 O 0.09362(13) 0.6142(3) 0.5700(2)
O3 O 0.02957(16) 0.6172(3) 0.3930(2)
C1 C 0.12335(16) 0.5099(4) 0.6097(2)
C2 C 0.19222(17) 0.5273(4) 0.6577(2)
C3 C 0.06286(16) 0.4198(4) 0.3558(2)
C4 C 0.0800(2) 0.4983(5) 0.3126(2)
H1 H 0.0795 0.5950 0.3140
C5 C 0.0852(3) 0.2229(6) 0.3064(4)
C6 C 0.21874(19) 0.6309(5) 0.6373(3)
H2 H 0.1954 0.6915 0.5953
C7 C 0.03786(17) 0.4880(4) 0.4005(2)
C8 C 0.2932(2) 0.4643(7) 0.7640(3)
H3 H 0.3184 0.4081 0.8075
C9 C 0.2830(2) 0.6381(6) 0.6845(3)
C10 C 0.0654(2) 0.2764(4) 0.3536(3)
H4 H 0.0547 0.2194 0.3818
C11 C 0.2303(2) 0.4410(5) 0.7222(3)
H5 H 0.2139 0.3699 0.7368
C12 C 0.0978(2) 0.4305(7) 0.2675(3)
H6 H 0.1093 0.4840 0.2389
N1 N 0.0995(2) 0.2920(6) 0.2627(3)
N2 N 0.31953(17) 0.5634(5) 0.7449(3)
F1 F 0.0871(3) 0.0829(4) 0.3008(3)
F2 F 0.31093(19) 0.7366(5) 0.6664(3)
C13 C 0.09403(16) 1.0066(4) 0.5108(2)
C14 C 0.2744(2) 1.1068(7) 0.5635(4)
H7 H 0.3138 1.1275 0.5757
C15 C 0.15697(16) 1.0414(4) 0.5275(2)
C16 C 0.2460(3) 0.9935(7) 0.5269(3)
N3 N 0.2436(2) 1.1913(7) 0.5823(4)
C17 C 0.1876(2) 0.9514(5) 0.5051(3)
H8 H 0.1700 0.8691 0.4776
C18 C 0.1863(2) 1.1643(5) 0.5677(3)
H9 H 0.1675 1.2258 0.5841
O4 O 0.10176(12) 0.3951(3) 0.61395(17)
O5 O 0.06965(14) 1.0952(3) 0.5306(2)
O6 O 0.02620(16) 0.4128(4) 0.44150(18)
F3 F 0.2776(2) 0.9080(8) 0.5092(4)
O7 O -0.05421(13) 0.8554(3) 0.34122(17)
H10 H -0.0277 0.8518 0.3215
H11 H -0.0614 0.9508 0.3482
O8 O 0.04848(17) 0.8491(3) 0.61086(18)
H12 H 0.0730 0.7835 0.6523
H13 H 0.0174 0.8864 0.6180
Pr1D Pr 0.00243(2) 0.27331(2) 0.52301(2)
Pr1D_2 Pr 0.00243(2) 1.27331(2) 0.52301(2)
O4D O -0.10176(12) 0.6049(3) 0.38605(17)
O5D O -0.06965(14) 0.9048(3) 0.4694(2)
O6D O -0.02620(16) 0.5872(4) 0.55850(18)
O9 O 0.0272(5) 0.8266(12) 0.2905(6)
loop_
_geom_bond_atom_site_label_1
_geom_bond_atom_site_label_2
_geom_bond_site_symmetry_1
_geom_bond_site_symmetry_2
Pr1 O1 1_555 1_555
O1 C13 1_555 1_555
O2 Pr1 1_555 1_555
O3 Pr1 1_555 1_555
C1 O2 1_555 1_555
C2 C1 1_555 1_555
C3 C4 1_555 1_555
C4 H1 1_555 1_555
C5 C10 1_555 1_555
C6 C2 1_555 1_555
H2 C6 1_555 1_555
C7 O3 1_555 1_555
C8 H3 1_555 1_555
C9 C6 1_555 1_555
C10 C3 1_555 1_555
H4 C10 1_555 1_555
C11 C2 1_555 1_555
H5 C11 1_555 1_555
C12 C4 1_555 1_555
H6 C12 1_555 1_555
N1 C5 1_555 1_555
N2 C8 1_555 1_555
F1 C5 1_555 1_555
F2 C9 1_555 1_555
C13 C15 1_555 1_555
C14 H7 1_555 1_555
C15 C17 1_555 1_555
C16 C14 1_555 1_555
N3 C14 1_555 1_555
C17 C16 1_555 1_555
H8 C17 1_555 1_555
C18 C15 1_555 1_555
H9 C18 1_555 1_555
O4 C1 1_555 1_555
O5 C13 1_555 1_555
O6 C7 1_555 1_555
F3 C16 1_555 1_555
O7 Pr1 1_555 1_555
H10 O7 1_555 1_555
H11 O7 1_555 1_555
O8 Pr1 1_555 1_555
H12 O8 1_555 1_555
H13 O8 1_555 1_555
Pr1D O4 1_555 1_555
Pr1D_2 O5 1_555 1_555
O4D Pr1 1_555 1_555
O5D Pr1 1_555 1_555
O6D Pr1 1_555 1_555
C3 C7 1_555 1_555
C8 C11 1_555 1_555
C9 N2 1_555 1_555
C12 N1 1_555 1_555
N3 C18 1_555 1_555
O6 Pr1D 1_555 1_555

#END
