
#######################################################################
#
#                 Cambridge Crystallographic Data Centre
#                                CCDC 
#
#######################################################################
#
# If this CIF has been generated from an entry in the Cambridge 
# Structural Database, then it will include bibliographic, chemical, 
# crystal, experimental, refinement or atomic coordinate data resulting 
# from the CCDC's data processing and validation procedures.
#
#######################################################################

data_KIXSUH
_symmetry_cell_setting           monoclinic
_symmetry_space_group_name_H-M   'C 2/c'
_symmetry_Int_Tables_number      15
_space_group_name_Hall           '-C 2yn'
loop_
_symmetry_equiv_pos_site_id
_symmetry_equiv_pos_as_xyz
1 x,y,z
2 -x,y,1/2-z
3 1/2+x,1/2+y,z
4 1/2-x,1/2+y,1/2-z
5 -x,-y,-z
6 x,-y,1/2+z
7 1/2-x,1/2-y,-z
8 1/2+x,1/2-y,1/2+z
_cell_length_a                   26.133(14)
_cell_length_b                   9.669(5)
_cell_length_c                   20.408(11)
_cell_angle_alpha                90
_cell_angle_beta                 122.874(6)
_cell_angle_gamma                90
_cell_volume                     4330.93
loop_
_atom_site_label
_atom_site_type_symbol
_atom_site_fract_x
_atom_site_fract_y
_atom_site_fract_z
Eu1 Eu 0.99743(2) 0.77084(2) -0.02235(2)
O1 O 1.09057(12) 0.8876(3) 0.06805(16)
O2 O 0.97083(14) 0.9001(4) 0.05536(16)
O3 O 0.93169(12) 0.5943(3) -0.03090(17)
C1 C 1.22896(17) 1.0573(5) 0.2229(2)
H1 H 1.2127 1.1266 0.2380
C2 C 1.19044(15) 0.9731(4) 0.15737(18)
N1 N 0.72607(18) 0.6080(6) -0.0627(3)
C3 C 0.9037(2) 0.9409(6) 0.2327(2)
H2 H 0.8937 0.9967 0.2613
C4 C 0.84376(14) 0.5414(4) -0.02683(18)
C5 C 1.12091(14) 0.9923(4) 0.10882(15)
F1 F 0.7229(2) 0.4088(7) -0.0074(3)
C6 C 0.93723(14) 0.9209(4) 0.14304(17)
C7 C 0.90693(13) 0.5053(3) -0.01082(15)
N2 N 1.31846(15) 0.9354(5) 0.2447(2)
C8 C 0.92052(18) 1.0049(5) 0.1854(2)
H3 H 0.9207 1.1008 0.1819
C9 C 0.81262(19) 0.4514(5) -0.0048(2)
H4 H 0.8301 0.3696 0.0223
C10 C 0.81414(17) 0.6655(4) -0.0681(3)
H5 H 0.8325 0.7254 -0.0850
N3 N 0.90117(19) 0.8012(6) 0.2388(2)
C11 C 1.21689(17) 0.8701(4) 0.1360(2)
H6 H 1.1937 0.8105 0.0943
C12 C 0.9342(2) 0.7764(4) 0.1476(2)
H7 H 0.9442 0.7168 0.1204
C13 C 0.96177(14) 0.9828(4) 0.09654(16)
C14 C 1.29218(18) 1.0344(6) 0.2650(2)
H8 H 1.3172 1.0891 0.3084
C15 C 0.7545(2) 0.4923(6) -0.0260(3)
O4 O 1.09943(11) 1.1078(3) 0.11324(14)
O5 O 0.92954(12) 0.3890(3) 0.02027(16)
O6 O 0.97189(13) 1.1129(3) 0.10265(16)
O7 O 1.04920(15) 0.6513(3) 0.10960(15)
H9 H 1.0545 0.7163 0.1484
H10 H 1.0242 0.5759 0.1069
C16 C 0.9148(3) 0.7270(5) 0.1966(3)
C17 C 1.2818(2) 0.8638(5) 0.1830(3)
C18 C 0.7566(2) 0.6938(6) -0.0822(3)
H11 H 0.7381 0.7769 -0.1064
F2 F 1.30922(19) 0.7630(4) 0.1643(3)
F3 F 0.9122(2) 0.5862(4) 0.2034(2)
O8 O 0.94681(12) 0.6442(3) -0.15573(14)
H12 H 0.9615 0.6833 -0.1858
H13 H 0.9034 0.6553 -0.1834
Eu1D Eu 1.00257(2) 0.22916(2) 0.02235(2)
Eu1D_2 Eu 1.00257(2) 1.22916(2) 0.02235(2)
O4D O 0.90057(11) 0.8922(3) -0.11324(14)
O5D O 1.07046(12) 0.6110(3) -0.02027(16)
O6D O 1.02811(13) 0.8871(3) -0.10265(16)
O9 O 0.9727(4) 0.3247(11) 0.2081(4)
loop_
_geom_bond_atom_site_label_1
_geom_bond_atom_site_label_2
_geom_bond_site_symmetry_1
_geom_bond_site_symmetry_2
Eu1 O1 1_555 1_555
O1 C5 1_555 1_555
O2 Eu1 1_555 1_555
O3 Eu1 1_555 1_555
C1 H1 1_555 1_555
C2 C1 1_555 1_555
N1 C15 1_555 1_555
C3 H2 1_555 1_555
C4 C7 1_555 1_555
C5 C2 1_555 1_555
F1 C15 1_555 1_555
C6 C8 1_555 1_555
C7 O3 1_555 1_555
N2 C14 1_555 1_555
C8 C3 1_555 1_555
H3 C8 1_555 1_555
C9 C4 1_555 1_555
H4 C9 1_555 1_555
C10 C4 1_555 1_555
H5 C10 1_555 1_555
N3 C3 1_555 1_555
C11 C2 1_555 1_555
H6 C11 1_555 1_555
C12 C6 1_555 1_555
H7 C12 1_555 1_555
C13 O2 1_555 1_555
C14 C1 1_555 1_555
H8 C14 1_555 1_555
C15 C9 1_555 1_555
O4 C5 1_555 1_555
O5 C7 1_555 1_555
O6 C13 1_555 1_555
O7 Eu1 1_555 1_555
H9 O7 1_555 1_555
H10 O7 1_555 1_555
C16 N3 1_555 1_555
C17 N2 1_555 1_555
C18 N1 1_555 1_555
H11 C18 1_555 1_555
F2 C17 1_555 1_555
F3 C16 1_555 1_555
O8 Eu1 1_555 1_555
H12 O8 1_555 1_555
H13 O8 1_555 1_555
Eu1D O5 1_555 1_555
Eu1D_2 O4 1_555 1_555
O4D Eu1 1_555 1_555
O5D Eu1 1_555 1_555
O6D Eu1 1_555 1_555
C6 C13 1_555 1_555
C10 C18 1_555 1_555
C11 C17 1_555 1_555
C12 C16 1_555 1_555
O6 Eu1D_2 1_555 1_555

#END
