
#######################################################################
#
#                 Cambridge Crystallographic Data Centre
#                                CCDC 
#
#######################################################################
#
# If this CIF has been generated from an entry in the Cambridge 
# Structural Database, then it will include bibliographic, chemical, 
# crystal, experimental, refinement or atomic coordinate data resulting 
# from the CCDC's data processing and validation procedures.
#
#######################################################################

data_KIXSOB
_symmetry_cell_setting           monoclinic
_symmetry_space_group_name_H-M   'C 2/c'
_symmetry_Int_Tables_number      15
_space_group_name_Hall           '-C 2yn'
loop_
_symmetry_equiv_pos_site_id
_symmetry_equiv_pos_as_xyz
1 x,y,z
2 -x,y,1/2-z
3 1/2+x,1/2+y,z
4 1/2-x,1/2+y,1/2-z
5 -x,-y,-z
6 x,-y,1/2+z
7 1/2-x,1/2-y,-z
8 1/2+x,1/2-y,1/2+z
_cell_length_a                   25.779(4)
_cell_length_b                   9.5524(13)
_cell_length_c                   20.012(3)
_cell_angle_alpha                90
_cell_angle_beta                 122.815(2)
_cell_angle_gamma                90
_cell_volume                     4141.6
loop_
_atom_site_label
_atom_site_type_symbol
_atom_site_fract_x
_atom_site_fract_y
_atom_site_fract_z
O1 O 0.0273(4) 0.8266(9) 0.7901(4)
O2 O 1.06937(11) 1.0941(3) 1.03097(17)
Nd1 Nd 0.99751(2) 0.72733(2) 0.97715(2)
N1 N 0.90043(19) 0.7060(5) 1.2372(2)
O3 O 0.89854(10) 0.6055(3) 0.88588(14)
O4 O 1.04832(15) 0.8482(3) 1.11037(15)
O5 O 1.07138(12) 0.8913(3) 0.97965(16)
O6 O 0.94625(12) 0.8560(3) 0.84244(15)
O7 O 0.97339(13) 0.5902(3) 1.05793(15)
F1 F 0.68926(17) 0.2633(4) 0.8339(3)
C1 C 1.2434(2) 1.1911(6) 1.0821(3)
H1 H 1.2620 1.2752 1.1071
C2 C 0.71761(17) 0.3626(4) 0.8159(2)
C3 C 0.90234(19) 0.5666(6) 1.2322(2)
H2 H 0.8911 0.5121 1.2609
C4 C 1.09400(13) 1.0054(3) 1.01096(15)
C5 C 0.80797(13) 0.4728(3) 0.84197(17)
C6 C 1.15679(13) 1.0407(3) 1.02729(17)
F2 F 0.9120(2) 0.9154(4) 1.1998(2)
N2 N 0.68070(14) 0.4369(4) 0.7548(2)
C7 C 0.93693(13) 0.5797(3) 1.14386(16)
C8 C 0.92003(18) 0.4998(4) 1.18664(19)
H3 H 0.9206 0.4025 1.1847
N3 N 1.27438(17) 1.1070(6) 1.0634(3)
F3 F 1.2769(2) 0.9075(6) 1.0085(3)
C9 C 1.18608(17) 1.1634(4) 1.0673(3)
H4 H 1.1672 1.2251 1.0836
C10 C 0.87713(13) 0.4905(3) 0.89019(15)
C11 C 1.2452(2) 0.9913(6) 1.0256(3)
C12 C 0.76996(16) 0.5576(4) 0.7767(2)
H5 H 0.7865 0.6273 0.7613
C13 C 0.9341(2) 0.7237(3) 1.1467(2)
H6 H 0.9442 0.7818 1.1182
C14 C 0.78166(16) 0.3695(4) 0.8627(2)
H7 H 0.8052 0.3087 0.9050
C15 C 0.9151(2) 0.7763(4) 1.1948(3)
C16 C 0.96184(14) 0.5135(3) 1.09855(16)
C17 C 0.70693(18) 0.5358(6) 0.7354(2)
H8 H 0.6815 0.5928 0.6919
C18 C 1.18720(17) 0.9513(4) 1.0055(2)
H9 H 1.1693 0.8682 0.9785
O8 O 0.90681(11) 0.3860(3) 0.93027(15)
O9 O 0.97071(13) 0.3835(3) 1.10605(16)
H10 H 0.9108(10) 0.876(4) 0.8094(18)
H11 H 0.951(3) 0.787(7) 0.822(4)
H12 H 1.075(2) 0.815(5) 1.151(2)
H13 H 1.054(3) 0.931(2) 1.114(4)
O2D O 0.93063(11) 0.9059(3) 0.96903(17)
Nd1D Nd 1.00249(2) 0.27267(2) 1.02285(2)
Nd1D_2 Nd 1.00249(2) 1.27267(2) 1.02285(2)
O8D O 1.09319(11) 0.6140(3) 1.06973(15)
O9D O 1.02929(13) 0.6165(3) 0.89395(16)
loop_
_geom_bond_atom_site_label_1
_geom_bond_atom_site_label_2
_geom_bond_site_symmetry_1
_geom_bond_site_symmetry_2
O2 C4 1_555 1_555
Nd1 O3 1_555 1_555
N1 C3 1_555 1_555
O3 C10 1_555 1_555
O4 Nd1 1_555 1_555
O5 Nd1 1_555 1_555
O6 Nd1 1_555 1_555
O7 Nd1 1_555 1_555
F1 C2 1_555 1_555
C1 H1 1_555 1_555
C2 N2 1_555 1_555
C3 H2 1_555 1_555
C4 O5 1_555 1_555
C5 C10 1_555 1_555
C6 C4 1_555 1_555
F2 C15 1_555 1_555
N2 C17 1_555 1_555
C7 C8 1_555 1_555
C8 C3 1_555 1_555
H3 C8 1_555 1_555
N3 C1 1_555 1_555
F3 C11 1_555 1_555
C9 C1 1_555 1_555
H4 C9 1_555 1_555
C10 O8 1_555 1_555
C11 N3 1_555 1_555
C12 C5 1_555 1_555
H5 C12 1_555 1_555
C13 C7 1_555 1_555
H6 C13 1_555 1_555
C14 C2 1_555 1_555
H7 C14 1_555 1_555
C15 N1 1_555 1_555
C16 O7 1_555 1_555
C17 C12 1_555 1_555
H8 C17 1_555 1_555
C18 C6 1_555 1_555
H9 C18 1_555 1_555
O8 Nd1D 1_555 1_555
O9 C16 1_555 1_555
H10 O6 1_555 1_555
H11 O6 1_555 1_555
H12 O4 1_555 1_555
H13 O4 1_555 1_555
O2D Nd1 1_555 1_555
Nd1D O9 1_555 1_555
Nd1D_2 O2 1_555 1_555
O8D Nd1 1_555 1_555
O9D Nd1 1_555 1_555
C5 C14 1_555 1_555
C6 C9 1_555 1_555
C7 C16 1_555 1_555
C11 C18 1_555 1_555
C13 C15 1_555 1_555

#END
