
#######################################################################
#
#                 Cambridge Crystallographic Data Centre
#                                CCDC 
#
#######################################################################
#
# If this CIF has been generated from an entry in the Cambridge 
# Structural Database, then it will include bibliographic, chemical, 
# crystal, experimental, refinement or atomic coordinate data resulting 
# from the CCDC's data processing and validation procedures.
#
#######################################################################

data_KIXTAO
_symmetry_cell_setting           monoclinic
_symmetry_space_group_name_H-M   'C 2/c'
_symmetry_Int_Tables_number      15
_space_group_name_Hall           '-C 2yn'
loop_
_symmetry_equiv_pos_site_id
_symmetry_equiv_pos_as_xyz
1 x,y,z
2 -x,y,1/2-z
3 1/2+x,1/2+y,z
4 1/2-x,1/2+y,1/2-z
5 -x,-y,-z
6 x,-y,1/2+z
7 1/2-x,1/2-y,-z
8 1/2+x,1/2-y,1/2+z
_cell_length_a                   25.751(3)
_cell_length_b                   9.4954(11)
_cell_length_c                   20.092(2)
_cell_angle_alpha                90
_cell_angle_beta                 123.0630(10)
_cell_angle_gamma                90
_cell_volume                     4117.29
loop_
_atom_site_label
_atom_site_type_symbol
_atom_site_fract_x
_atom_site_fract_y
_atom_site_fract_z
Gd1 Gd 0.99743(2) 0.72955(2) 0.47779(2)
O1 O 1.09034(11) 0.6120(3) 0.56768(16)
N1 N 0.72574(17) 0.8913(6) 0.4372(3)
C1 C 1.21667(17) 0.6296(4) 0.6355(2)
H1 H 1.1929 0.6901 0.5929
O2 O 0.97066(14) 0.6016(4) 0.55492(16)
N2 N 1.31880(15) 0.5641(5) 0.7452(2)
F1 F 1.30920(18) 0.7362(4) 0.6636(3)
O3 O 0.93169(12) 0.9059(3) 0.46915(17)
C2 C 0.93708(14) 0.5789(4) 0.64295(17)
C3 C 0.81324(18) 1.0484(5) 0.4945(2)
H2 H 0.8312 1.1325 0.5208
C4 C 1.29233(19) 0.4656(6) 0.7644(3)
H3 H 1.3179 0.4092 0.8082
C5 C 1.22909(17) 0.4422(5) 0.7231(2)
H4 H 1.2129 0.3721 0.7390
C6 C 0.84367(15) 0.9588(4) 0.4730(2)
C7 C 1.28152(18) 0.6366(5) 0.6823(3)
C8 C 1.12043(14) 0.5080(4) 0.60845(16)
C9 C 0.90671(14) 0.9949(4) 0.48924(16)
C10 C 1.19013(15) 0.5265(4) 0.65694(18)
C11 C 0.9335(2) 0.7239(4) 0.6477(3)
H5 H 0.9430 0.7851 0.6197
C12 C 0.81434(17) 0.8345(5) 0.4318(3)
H6 H 0.8328 0.7738 0.4143
C13 C 0.96177(14) 0.5175(4) 0.59586(17)
C14 C 0.92084(19) 0.4937(5) 0.6849(2)
H7 H 0.9214 0.3961 0.6813
C15 C 0.7565(2) 0.8062(6) 0.4184(3)
H8 H 0.7380 0.7209 0.3943
O4 O 1.09909(11) 0.3911(3) 0.61291(15)
O5 O 0.92914(12) 1.1114(3) 0.51970(16)
O6 O 0.97196(13) 0.3875(3) 0.60160(16)
F2 F 0.7232(2) 1.0935(7) 0.4915(3)
F3 F 0.9120(2) 0.9131(4) 0.7046(2)
N3 N 0.90116(18) 0.6977(5) 0.7388(2)
O7 O 0.94689(12) 0.8548(3) 0.34470(15)
H9 H 0.9028 0.8412 0.3158
H10 H 0.9626 0.8166 0.3148
O8 O 1.04953(15) 0.8475(3) 0.60938(15)
H11 H 1.0481 0.9477 0.6023
H12 H 1.0286 0.8229 0.6352
C16 C 0.9038(2) 0.5567(6) 0.7321(2)
H13 H 0.8936 0.4991 0.7607
C17 C 0.9148(3) 0.7725(5) 0.6970(3)
C18 C 0.7548(2) 1.0086(6) 0.4753(3)
Gd1D Gd 1.00257(2) 0.27045(2) 0.52221(2)
Gd1D_2 Gd 1.00257(2) 1.27045(2) 0.52221(2)
O4D O 0.90091(11) 0.6089(3) 0.38709(15)
O5D O 1.07086(12) 0.8886(3) 0.48030(16)
O6D O 1.02804(13) 0.6125(3) 0.39840(16)
O9 O 0.9711(4) 0.1719(11) 0.7052(5)
loop_
_geom_bond_atom_site_label_1
_geom_bond_atom_site_label_2
_geom_bond_site_symmetry_1
_geom_bond_site_symmetry_2
Gd1 O1 1_555 1_555
O1 C8 1_555 1_555
N1 C15 1_555 1_555
C1 H1 1_555 1_555
O2 Gd1 1_555 1_555
N2 C4 1_555 1_555
F1 C7 1_555 1_555
O3 Gd1 1_555 1_555
C2 C11 1_555 1_555
C3 H2 1_555 1_555
C4 H3 1_555 1_555
C5 C4 1_555 1_555
H4 C5 1_555 1_555
C6 C3 1_555 1_555
C7 C1 1_555 1_555
C8 C10 1_555 1_555
C9 O3 1_555 1_555
C10 C1 1_555 1_555
C11 H5 1_555 1_555
C12 C6 1_555 1_555
H6 C12 1_555 1_555
C13 O2 1_555 1_555
C14 C2 1_555 1_555
H7 C14 1_555 1_555
C15 C12 1_555 1_555
H8 C15 1_555 1_555
O4 C8 1_555 1_555
O5 C9 1_555 1_555
O6 C13 1_555 1_555
F2 C18 1_555 1_555
F3 C17 1_555 1_555
N3 C16 1_555 1_555
O7 Gd1 1_555 1_555
H9 O7 1_555 1_555
H10 O7 1_555 1_555
O8 Gd1 1_555 1_555
H11 O8 1_555 1_555
H12 O8 1_555 1_555
C16 C14 1_555 1_555
H13 C16 1_555 1_555
C17 C11 1_555 1_555
C18 N1 1_555 1_555
Gd1D O4 1_555 1_555
Gd1D_2 O5 1_555 1_555
O4D Gd1 1_555 1_555
O5D Gd1 1_555 1_555
O6D Gd1 1_555 1_555
N2 C7 1_555 1_555
C2 C13 1_555 1_555
C3 C18 1_555 1_555
C5 C10 1_555 1_555
C6 C9 1_555 1_555
O6 Gd1D 1_555 1_555
N3 C17 1_555 1_555

#END
