
#######################################################################
#
#                 Cambridge Crystallographic Data Centre
#                                CCDC 
#
#######################################################################
#
# If this CIF has been generated from an entry in the Cambridge 
# Structural Database, then it will include bibliographic, chemical, 
# crystal, experimental, refinement or atomic coordinate data resulting 
# from the CCDC's data processing and validation procedures.
#
#######################################################################

data_KIXTIW
_symmetry_cell_setting           triclinic
_symmetry_space_group_name_H-M   'P -1'
_symmetry_Int_Tables_number      2
_space_group_name_Hall           '-P 1'
loop_
_symmetry_equiv_pos_site_id
_symmetry_equiv_pos_as_xyz
1 x,y,z
2 -x,-y,-z
_cell_length_a                   7.7863(17)
_cell_length_b                   11.119(3)
_cell_length_c                   13.950(3)
_cell_angle_alpha                69.788(3)
_cell_angle_beta                 76.132(3)
_cell_angle_gamma                87.981(3)
_cell_volume                     1098.82
loop_
_atom_site_label
_atom_site_type_symbol
_atom_site_fract_x
_atom_site_fract_y
_atom_site_fract_z
Gd1 Gd 0.31409(2) 0.40635(2) 0.49869(2)
F1 F -0.0269(5) 0.2430(3) 1.0576(3)
F2 F 0.5000(6) 0.7736(4) 0.0029(2)
O1 O 0.2534(3) 0.4280(2) 0.67029(18)
O2 O 0.4711(3) 0.5579(3) 0.6663(2)
O3 O 0.1651(3) 0.5313(2) 0.37187(19)
N1 N 0.2559(4) 0.2328(3) 0.4242(2)
N2 N 0.3447(3) 0.1717(2) 0.6115(2)
N3 N 0.2976(6) 0.9087(4) 0.0363(3)
N4 N 0.1526(5) 0.3996(4) 1.0451(3)
C1 C 0.3352(4) 0.4834(3) 0.7106(2)
C2 C 0.2675(4) 0.4565(3) 0.8280(2)
C3 C 0.3363(5) 0.5260(3) 0.8783(3)
H1 H 0.4224 0.5920 0.8403
C4 C 0.2730(6) 0.4938(4) 0.9858(3)
H2 H 0.3177 0.5412 1.0187
C5 C 0.0924(5) 0.3378(4) 0.9958(3)
C6 C 0.1412(5) 0.3596(3) 0.8881(3)
H3 H 0.0909 0.3110 0.8584
C7 C 0.0999(4) 0.6387(3) 0.3502(2)
C8 C 0.1703(4) 0.7342(3) 0.2396(2)
C9 C 0.3113(5) 0.7054(4) 0.1720(3)
H4 H 0.3681 0.6290 0.1917
C10 C 0.3639(6) 0.7980(5) 0.0719(3)
C11 C 0.1594(6) 0.9334(4) 0.1034(3)
H5 H 0.1057 1.0107 0.0805
C12 C 0.0917(5) 0.8506(3) 0.2049(3)
H6 H -0.0043 0.8722 0.2491
C13 C 0.2167(6) 0.2609(5) 0.3315(4)
H7 H 0.2095 0.3467 0.2921
C14 C 0.1855(6) 0.1675(6) 0.2902(4)
H8 H 0.1636 0.1917 0.2236
C15 C 0.1877(6) 0.0431(6) 0.3476(5)
H9 H 0.1610 -0.0168 0.3235
C16 C 0.2240(4) 0.0058(4) 0.4480(4)
C17 C 0.2293(6) -0.1249(4) 0.5135(6)
H10 H 0.2058 -0.1908 0.4909
C18 C 0.2680(6) -0.1533(4) 0.6074(5)
H11 H 0.2705 -0.2389 0.6488
C19 C 0.3053(5) -0.0557(3) 0.6456(4)
C20 C 0.3467(6) -0.0800(4) 0.7434(4)
H12 H 0.3449 -0.1641 0.7890
C21 C 0.3887(6) 0.0174(4) 0.7713(3)
H13 H 0.4162 0.0011 0.8358
C22 C 0.3908(5) 0.1438(4) 0.7021(3)
H14 H 0.4256 0.2105 0.7204
C23 C 0.3038(4) 0.0748(3) 0.5821(3)
C24 C 0.2590(4) 0.1066(3) 0.4826(3)
O4 O -0.0190(3) 0.6762(2) 0.41030(18)
O5 O 0.5822(2) 0.39265(16) 0.53878(15)
Gd1A Gd -0.31409(2) 0.59365(2) 0.50131(2)
Gd1A_2 Gd 0.68591(2) 0.59365(2) 0.50131(2)
O2A O 0.5289(3) 0.4421(3) 0.3337(2)
O4A O 0.0190(3) 0.3238(2) 0.58970(18)
O5A O 0.4178(2) 0.60735(16) 0.46122(15)
loop_
_geom_bond_atom_site_label_1
_geom_bond_atom_site_label_2
_geom_bond_site_symmetry_1
_geom_bond_site_symmetry_2
Gd1 O1 1_555 1_555
F1 C5 1_555 1_555
F2 C10 1_555 1_555
O1 C1 1_555 1_555
O2 C1 1_555 1_555
O3 Gd1 1_555 1_555
N1 Gd1 1_555 1_555
N2 Gd1 1_555 1_555
N3 C10 1_555 1_555
N4 C4 1_555 1_555
C1 C2 1_555 1_555
C2 C3 1_555 1_555
C3 H1 1_555 1_555
C4 C3 1_555 1_555
H2 C4 1_555 1_555
C5 N4 1_555 1_555
C6 C2 1_555 1_555
H3 C6 1_555 1_555
C7 O3 1_555 1_555
C8 C7 1_555 1_555
C9 C8 1_555 1_555
H4 C9 1_555 1_555
C10 C9 1_555 1_555
C11 N3 1_555 1_555
H5 C11 1_555 1_555
C12 C8 1_555 1_555
H6 C12 1_555 1_555
C13 N1 1_555 1_555
H7 C13 1_555 1_555
C14 C13 1_555 1_555
H8 C14 1_555 1_555
C15 C14 1_555 1_555
H9 C15 1_555 1_555
C16 C15 1_555 1_555
C17 C16 1_555 1_555
H10 C17 1_555 1_555
C18 C17 1_555 1_555
H11 C18 1_555 1_555
C19 C18 1_555 1_555
C20 C19 1_555 1_555
H12 C20 1_555 1_555
C21 C20 1_555 1_555
H13 C21 1_555 1_555
C22 N2 1_555 1_555
H14 C22 1_555 1_555
C23 N2 1_555 1_555
C24 N1 1_555 1_555
O4 C7 1_555 1_555
O5 Gd1 1_555 1_555
Gd1A O4 1_555 1_555
Gd1A_2 O2 1_555 1_555
O2A Gd1 1_555 1_555
O4A Gd1 1_555 1_555
O5A Gd1 1_555 1_555
C5 C6 1_555 1_555
C11 C12 1_555 1_555
C16 C24 1_555 1_555
C19 C23 1_555 1_555
C21 C22 1_555 1_555
C23 C24 1_555 1_555
O5 Gd1A_2 1_555 1_555
Gd1A_2 O5A 1_555 1_555

#END
