
#######################################################################
#
#                 Cambridge Crystallographic Data Centre
#                                CCDC 
#
#######################################################################
#
# If this CIF has been generated from an entry in the Cambridge 
# Structural Database, then it will include bibliographic, chemical, 
# crystal, experimental, refinement or atomic coordinate data resulting 
# from the CCDC's data processing and validation procedures.
#
#######################################################################

data_KIXVIY
_symmetry_cell_setting           monoclinic
_symmetry_space_group_name_H-M   'P 21/c'
_symmetry_Int_Tables_number      14
_space_group_name_Hall           '-P 2ybc'
loop_
_symmetry_equiv_pos_site_id
_symmetry_equiv_pos_as_xyz
1 x,y,z
2 -x,1/2+y,1/2-z
3 -x,-y,-z
4 x,1/2-y,1/2+z
_cell_length_a                   7.5915(15)
_cell_length_b                   8.4050(17)
_cell_length_c                   24.204(6)
_cell_angle_alpha                90
_cell_angle_beta                 99.05(3)
_cell_angle_gamma                90
_cell_volume                     1525.15
loop_
_atom_site_label
_atom_site_type_symbol
_atom_site_fract_x
_atom_site_fract_y
_atom_site_fract_z
Cu1 Cu 0.46863(7) 0.87549(7) 0.88612(2)
O1 O 0.0259(5) 0.7142(5) 0.90045(14)
O2 O 0.6601(5) 0.7514(5) 0.84282(16)
H1 H 0.7587 0.7477 0.8557
H2 H 0.6312 0.7110 0.8103
O3 O 0.3170(4) 0.6909(4) 0.89650(15)
O4 O -0.0667(4) 0.5836(4) 0.80065(13)
O5 O -0.3900(4) 0.5218(5) 0.74510(14)
O6 O -0.2748(4) 0.4548(4) 0.66791(13)
N1 N 0.6073(5) 1.0809(4) 0.89755(16)
N2 N 0.6138(5) 0.8338(4) 0.96187(15)
C1 C 0.1513(6) 0.6760(6) 0.8765(2)
C2 C 0.1111(6) 0.6006(6) 0.8205(2)
C3 C 0.2074(7) 0.5504(7) 0.7813(2)
H3 H 0.3311 0.5492 0.7845
C4 C 0.0840(6) 0.5003(7) 0.7347(2)
H4 H 0.1107 0.4598 0.7012
C5 C -0.0801(6) 0.5225(6) 0.74810(19)
C6 C -0.2653(6) 0.4965(6) 0.71905(19)
C7 C 0.6134(6) 0.6989(6) 0.9908(2)
H5 H 0.5490 0.6126 0.9742
C8 C 0.7044(6) 0.6823(6) 1.0443(2)
H6 H 0.7024 0.5865 1.0633
C9 C 0.7988(6) 0.8107(6) 1.0691(2)
H7 H 0.8598 0.8030 1.1054
C10 C 0.8020(6) 0.9508(6) 1.03941(19)
H8 H 0.8656 1.0382 1.0555
C11 C 0.7091(6) 0.9594(6) 0.98543(19)
C12 C 0.7041(6) 1.0996(5) 0.94896(18)
C13 C 0.7934(6) 1.2411(6) 0.9647(2)
H9 H 0.8569 1.2537 1.0005
C14 C 0.7852(7) 1.3622(6) 0.9258(2)
H10 H 0.8445 1.4575 0.9353
C15 C 0.6900(7) 1.3420(6) 0.8734(2)
H11 H 0.6846 1.4226 0.8469
C16 C 0.6019(7) 1.1995(6) 0.8606(2)
H12 H 0.5367 1.1858 0.8251
Cu1A Cu -0.46863(7) 0.37549(7) 0.61388(2)
O6A O 0.2748(4) 0.9548(4) 0.83209(13)
loop_
_geom_bond_atom_site_label_1
_geom_bond_atom_site_label_2
_geom_bond_site_symmetry_1
_geom_bond_site_symmetry_2
Cu1 O2 1_555 1_555
O1 C1 1_555 1_555
O2 H1 1_555 1_555
H2 O2 1_555 1_555
O3 Cu1 1_555 1_555
O4 C2 1_555 1_555
O5 C6 1_555 1_555
O6 C6 1_555 1_555
N1 Cu1 1_555 1_555
N2 Cu1 1_555 1_555
C1 O3 1_555 1_555
C2 C1 1_555 1_555
C3 C2 1_555 1_555
H3 C3 1_555 1_555
C4 C3 1_555 1_555
H4 C4 1_555 1_555
C5 O4 1_555 1_555
C6 C5 1_555 1_555
C7 N2 1_555 1_555
H5 C7 1_555 1_555
C8 C7 1_555 1_555
H6 C8 1_555 1_555
C9 C8 1_555 1_555
H7 C9 1_555 1_555
C10 C9 1_555 1_555
H8 C10 1_555 1_555
C11 N2 1_555 1_555
C12 N1 1_555 1_555
C13 C12 1_555 1_555
H9 C13 1_555 1_555
C14 C13 1_555 1_555
H10 C14 1_555 1_555
C15 C14 1_555 1_555
H11 C15 1_555 1_555
C16 N1 1_555 1_555
H12 C16 1_555 1_555
Cu1A O6 1_555 1_555
O6A Cu1 1_555 1_555
C4 C5 1_555 1_555
C10 C11 1_555 1_555
C11 C12 1_555 1_555
C15 C16 1_555 1_555

#END
