
#######################################################################
#
#                 Cambridge Crystallographic Data Centre
#                                CCDC 
#
#######################################################################
#
# If this CIF has been generated from an entry in the Cambridge 
# Structural Database, then it will include bibliographic, chemical, 
# crystal, experimental, refinement or atomic coordinate data resulting 
# from the CCDC's data processing and validation procedures.
#
#######################################################################

data_KIXWIX
_symmetry_cell_setting           triclinic
_symmetry_space_group_name_H-M   'P -1'
_symmetry_Int_Tables_number      2
_space_group_name_Hall           '-P 1'
loop_
_symmetry_equiv_pos_site_id
_symmetry_equiv_pos_as_xyz
1 x,y,z
2 -x,-y,-z
_cell_length_a                   10.649(1)
_cell_length_b                   14.122(1)
_cell_length_c                   10.635(1)
_cell_angle_alpha                94.64(1)
_cell_angle_beta                 98.04(1)
_cell_angle_gamma                108.81(1)
_cell_volume                     1485.44
loop_
_atom_site_label
_atom_site_type_symbol
_atom_site_fract_x
_atom_site_fract_y
_atom_site_fract_z
Cr1 Cr -0.51518(5) 0.23851(4) -0.14667(5)
K1 K -0.02663(7) 0.25550(5) -0.35474(7)
O1 O -0.1411(2) 0.1268(2) -0.5850(2)
O2 O 0.0473(3) 0.3174(2) -0.5912(2)
O3 O 0.1427(2) 0.4531(2) -0.3622(2)
O4 O 0.1428(3) 0.3721(2) -0.1303(2)
O5 O -0.0283(3) 0.1754(2) -0.1254(2)
O6 O -0.1237(2) 0.0427(2) -0.3563(2)
O7 O -0.2323(2) 0.3108(2) -0.3223(3)
C1 C -0.0940(5) 0.1582(4) -0.6975(4)
C2 C -0.0639(4) 0.2686(4) -0.6908(4)
C3 C 0.0934(5) 0.4236(3) -0.5886(4)
C4 C 0.1995(4) 0.4698(3) -0.4733(5)
C5 C 0.2386(4) 0.5019(3) -0.2499(5)
C6 C 0.1724(5) 0.4763(3) -0.1379(4)
C7 C 0.0907(5) 0.3410(4) -0.0202(4)
C8 C 0.0724(4) 0.2320(4) -0.0205(4)
C9 C -0.0537(4) 0.0711(3) -0.1320(4)
C10 C -0.1662(4) 0.0171(3) -0.2403(4)
C11 C -0.2261(4) -0.0069(3) -0.4647(4)
C12 C -0.1714(4) 0.0222(3) -0.5826(4)
C13 C -0.4274(3) 0.2965(3) -0.4661(3)
C14 C -0.5205(4) 0.3413(3) -0.5080(4)
C15 C -0.5901(5) 0.3160(4) -0.6335(4)
C16 C -0.5697(5) 0.2460(4) -0.7161(4)
C17 C -0.4792(5) 0.2010(3) -0.6755(4)
C18 C -0.4075(4) 0.2257(3) -0.5508(4)
C19 C -0.3404(3) 0.3275(3) -0.3343(3)
C20 C -0.3852(3) 0.3722(3) -0.2324(3)
C21 C -0.6675(3) 0.2352(3) -0.2620(3)
O8 O -0.7628(3) 0.2305(2) -0.3305(3)
C22 C -0.4873(3) 0.1395(3) -0.2564(3)
O9 O -0.4732(3) 0.0743(2) -0.3187(3)
C23 C -0.3568(4) 0.2463(3) -0.0349(4)
O10 O -0.2627(3) 0.2502(3) 0.0333(3)
C24 C -0.5409(3) 0.3370(3) -0.0321(3)
O11 O -0.5594(3) 0.3945(2) 0.0389(3)
C25 C -0.6176(4) 0.1376(3) -0.0701(4)
O12 O -0.6845(3) 0.0727(2) -0.0229(3)
H1 H -0.0006 0.1388 -0.6895
H2 H -0.1460 0.1238 -0.7753
H3 H -0.1565 0.2818 -0.6704
H4 H -0.0437 0.2874 -0.7753
H5 H -0.0038 0.4450 -0.5825
H6 H 0.1364 0.4392 -0.6733
H7 H 0.2431 0.5468 -0.4792
H8 H 0.2894 0.4518 -0.4836
H9 H 0.2728 0.5854 -0.2569
H10 H 0.3196 0.4725 -0.2363
H11 H 0.0759 0.4831 -0.1360
H12 H 0.2281 0.5128 -0.0624
H13 H 0.1575 0.3944 0.0544
H14 H 0.0029 0.3520 -0.0239
H15 H 0.0373 0.2121 0.0569
H16 H 0.1690 0.2164 -0.0316
H17 H 0.0387 0.0577 -0.1438
H18 H -0.0907 0.0417 -0.0559
H19 H -0.2450 0.0403 -0.2239
H20 H -0.1958 -0.0594 -0.2415
H21 H -0.2660 -0.0934 -0.4702
H22 H -0.3045 0.0193 -0.4637
H23 H -0.0866 0.0060 -0.5839
H24 H -0.2425 -0.0123 -0.6613
H25 H -0.5199 0.4130 -0.4333
H26 H -0.6749 0.3384 -0.6534
H27 H -0.6243 0.2312 -0.8174
H28 H -0.4568 0.1392 -0.7406
H29 H -0.3251 0.2034 -0.5177
H30 H -0.3056 0.4177 -0.1642
H31 H -0.4489 0.4209 -0.2532
O8_2 O 0.2372(3) 0.2305(2) -0.3305(3)
K1_2 K -1.02663(7) 0.25550(5) -0.35474(7)
loop_
_geom_bond_atom_site_label_1
_geom_bond_atom_site_label_2
_geom_bond_site_symmetry_1
_geom_bond_site_symmetry_2
Cr1 C20 1_555 1_555
K1 O1 1_555 1_555
O1 C1 1_555 1_555
O2 K1 1_555 1_555
O3 K1 1_555 1_555
O4 K1 1_555 1_555
O5 K1 1_555 1_555
O6 K1 1_555 1_555
O7 K1 1_555 1_555
C1 C2 1_555 1_555
C2 O2 1_555 1_555
C3 O2 1_555 1_555
C4 O3 1_555 1_555
C5 O3 1_555 1_555
C6 O4 1_555 1_555
C7 O4 1_555 1_555
C8 O5 1_555 1_555
C9 O5 1_555 1_555
C10 O6 1_555 1_555
C11 O6 1_555 1_555
C12 O1 1_555 1_555
C13 C14 1_555 1_555
C14 C15 1_555 1_555
C15 C16 1_555 1_555
C16 C17 1_555 1_555
C17 C18 1_555 1_555
C18 C13 1_555 1_555
C19 O7 1_555 1_555
C20 C19 1_555 1_555
C21 Cr1 1_555 1_555
O8 C21 1_555 1_555
C22 Cr1 1_555 1_555
O9 C22 1_555 1_555
C23 Cr1 1_555 1_555
O10 C23 1_555 1_555
C24 Cr1 1_555 1_555
O11 C24 1_555 1_555
C25 Cr1 1_555 1_555
O12 C25 1_555 1_555
H1 C1 1_555 1_555
H2 C1 1_555 1_555
H3 C2 1_555 1_555
H4 C2 1_555 1_555
H5 C3 1_555 1_555
H6 C3 1_555 1_555
H7 C4 1_555 1_555
H8 C4 1_555 1_555
H9 C5 1_555 1_555
H10 C5 1_555 1_555
H11 C6 1_555 1_555
H12 C6 1_555 1_555
H13 C7 1_555 1_555
H14 C7 1_555 1_555
H15 C8 1_555 1_555
H16 C8 1_555 1_555
H17 C9 1_555 1_555
H18 C9 1_555 1_555
H19 C10 1_555 1_555
H20 C10 1_555 1_555
H21 C11 1_555 1_555
H22 C11 1_555 1_555
H23 C12 1_555 1_555
H24 C12 1_555 1_555
H25 C14 1_555 1_555
H26 C15 1_555 1_555
H27 C16 1_555 1_555
H28 C17 1_555 1_555
H29 C18 1_555 1_555
H30 C20 1_555 1_555
H31 C20 1_555 1_555
O8_2 K1 1_555 1_555
K1_2 O8 1_555 1_555
C3 C4 1_555 1_555
C5 C6 1_555 1_555
C7 C8 1_555 1_555
C9 C10 1_555 1_555
C11 C12 1_555 1_555
C13 C19 1_555 1_555

#END
