
#######################################################################
#
#                 Cambridge Crystallographic Data Centre
#                                CCDC 
#
#######################################################################
#
# If this CIF has been generated from an entry in the Cambridge 
# Structural Database, then it will include bibliographic, chemical, 
# crystal, experimental, refinement or atomic coordinate data resulting 
# from the CCDC's data processing and validation procedures.
#
#######################################################################

data_KIXZAU
_symmetry_cell_setting           monoclinic
_symmetry_space_group_name_H-M   'P 21/c'
_symmetry_Int_Tables_number      14
_space_group_name_Hall           '-P 2ybc'
loop_
_symmetry_equiv_pos_site_id
_symmetry_equiv_pos_as_xyz
1 x,y,z
2 -x,1/2+y,1/2-z
3 -x,-y,-z
4 x,1/2-y,1/2+z
_cell_length_a                   13.6393(3)
_cell_length_b                   12.9385(3)
_cell_length_c                   20.2697(5)
_cell_angle_alpha                90
_cell_angle_beta                 92.4420(10)
_cell_angle_gamma                90
_cell_volume                     3573.79
loop_
_atom_site_label
_atom_site_type_symbol
_atom_site_fract_x
_atom_site_fract_y
_atom_site_fract_z
Ni1 Ni 1.01853(4) 0.80317(4) 0.55165(2)
N1 N 0.9728(2) 0.6931(2) 0.61405(16)
O1 O 0.9258(2) 0.7348(2) 0.47179(13)
O2 O 0.88340(19) 0.8689(2) 0.53037(13)
F1 F 0.39446(19) 0.7876(3) 0.24118(15)
F2 F 0.4846(2) 0.6829(2) 0.29858(15)
F3 F 0.5475(2) 0.7771(3) 0.22352(14)
C1 C 0.8662(3) 0.8065(3) 0.48342(19)
N2 N 0.9989(3) 0.5935(3) 0.60638(18)
H1 H 1.0411 0.5728 0.5790
F4 F 0.59884(19) 0.9727(2) 0.25829(15)
F5 F 0.50897(19) 1.0450(2) 0.32894(14)
F6 F 0.44328(19) 0.9808(2) 0.24046(14)
C2 C 0.9062(3) 0.6918(3) 0.66087(19)
C3 C 0.7742(3) 0.8188(3) 0.4415(2)
C4 C 0.4161(3) 0.8596(3) 0.3687(2)
C5 C 0.8913(3) 0.5911(3) 0.68319(19)
C6 C 0.7538(3) 0.7555(3) 0.3877(2)
H2 H 0.7980 0.7038 0.3775
C7 C 0.6692(3) 0.7676(3) 0.3491(2)
H3 H 0.6575 0.7248 0.3128
C8 C 0.6008(3) 0.8433(3) 0.3637(2)
C9 C 0.8276(3) 0.5538(3) 0.7368(2)
H4 H 0.7846 0.4999 0.7189
H5 H 0.7865 0.6105 0.7504
C10 C 0.5037(3) 0.8610(3) 0.3234(2)
C11 C 0.5126(3) 0.9662(4) 0.2874(2)
C12 C 0.3345(3) 0.9215(3) 0.3597(2)
H6 H 0.3335 0.9715 0.3267
C13 C 0.8597(4) 0.7904(4) 0.6821(2)
H7 H 0.9096 0.8365 0.6995
H8 H 0.8139 0.7759 0.7155
H9 H 0.8259 0.8221 0.6448
C14 C 0.4831(3) 0.7770(4) 0.2711(2)
C15 C 0.7076(3) 0.8955(3) 0.4558(2)
H10 H 0.7208 0.9402 0.4910
C16 C 0.6216(3) 0.9058(3) 0.4181(2)
H11 H 0.5764 0.9559 0.4293
C17 C 0.9510(4) 0.5305(3) 0.6465(2)
C18 C 0.4154(3) 0.7867(4) 0.4197(3)
H12 H 0.4699 0.7445 0.4274
C19 C 0.9628(6) 0.4165(4) 0.6468(3)
H13 H 1.0310 0.3995 0.6435
H14 H 0.9259 0.3874 0.6099
H15 H 0.9393 0.3888 0.6871
C20 C 0.2536(3) 0.9112(3) 0.3987(2)
H16 H 0.1996 0.9544 0.3918
C21 C 0.2528(3) 0.8365(3) 0.4482(2)
C22 C 0.3352(3) 0.7759(4) 0.4590(3)
H17 H 0.3370 0.7275 0.4929
C23 C 0.1651(3) 0.8232(3) 0.4882(2)
O3 O 0.09285(19) 0.8844(2) 0.47929(13)
O4 O 0.1605(2) 0.7511(2) 0.52961(14)
C24 C 0.8838(3) 0.5122(3) 0.79653(19)
C25 C 0.8753(3) 0.4160(3) 0.82708(19)
C26 C 0.9561(3) 0.5646(3) 0.83292(18)
N3 N 0.9385(2) 0.4095(2) 0.87982(15)
C27 C 0.8093(4) 0.3270(4) 0.8090(2)
H18 H 0.8379 0.2641 0.8259
H19 H 0.8012 0.3225 0.7618
H20 H 0.7465 0.3373 0.8276
N4 N 0.9866(2) 0.5010(2) 0.88238(16)
H21 H 1.0312 0.5166 0.9119
C28 C 0.9999(3) 0.6686(3) 0.8253(2)
H22 H 1.0315 0.6896 0.8663
H23 H 0.9492 0.7173 0.8129
H24 H 1.0472 0.6664 0.7916
Ni1_2 Ni 0.01853(4) 0.80317(4) 0.55165(2)
Ni1A Ni 0.98147(4) 0.30317(4) 0.94835(2)
O3_2 O 1.09285(19) 0.8844(2) 0.47929(13)
O4_2 O 1.1605(2) 0.7511(2) 0.52961(14)
N3A N 1.0615(2) 0.9095(2) 0.62018(15)
O5 O 1.1241(4) 1.0165(3) 0.0246(3)
O6 O 1.2651(6) 0.9144(7) 0.0954(4)
O7 O 1.1944(15) 1.0095(14) 0.2079(11)
N5 N 1.6155(10) 0.9419(10) 0.0705(6)
C29 C 1.6839(10) 1.0213(11) 0.0874(7)
H25 H 1.6502 1.0784 0.1065
H26 H 1.7152 1.0440 0.0484
H27 H 1.7325 0.9951 0.1187
C30 C 1.6583(12) 0.8571(13) 0.0422(8)
H28 H 1.6094 0.8049 0.0335
H29 H 1.7088 0.8302 0.0718
H30 H 1.6864 0.8772 0.0015
O8 O 1.4540(8) 0.8939(9) 0.0659(5)
C31 C 1.5179(12) 0.9603(13) 0.0792(8)
H31 H 1.4989 1.0242 0.0954
C32? C 1.607(4) 0.978(4) -0.055(3)
O9? O 1.699(3) 0.955(3) -0.012(2)
loop_
_geom_bond_atom_site_label_1
_geom_bond_atom_site_label_2
_geom_bond_site_symmetry_1
_geom_bond_site_symmetry_2
Ni1 N1 1_555 1_555
N1 N2 1_555 1_555
O1 Ni1 1_555 1_555
O2 Ni1 1_555 1_555
F1 C14 1_555 1_555
F2 C14 1_555 1_555
F3 C14 1_555 1_555
C1 O1 1_555 1_555
N2 H1 1_555 1_555
F4 C11 1_555 1_555
F5 C11 1_555 1_555
F6 C11 1_555 1_555
C2 N1 1_555 1_555
C3 C1 1_555 1_555
C4 C10 1_555 1_555
C5 C2 1_555 1_555
C6 C3 1_555 1_555
H2 C6 1_555 1_555
C7 C6 1_555 1_555
H3 C7 1_555 1_555
C8 C7 1_555 1_555
C9 C5 1_555 1_555
H4 C9 1_555 1_555
H5 C9 1_555 1_555
C10 C8 1_555 1_555
C11 C10 1_555 1_555
C12 C4 1_555 1_555
H6 C12 1_555 1_555
C13 C2 1_555 1_555
H7 C13 1_555 1_555
H8 C13 1_555 1_555
H9 C13 1_555 1_555
C14 C10 1_555 1_555
C15 C3 1_555 1_555
H10 C15 1_555 1_555
C16 C8 1_555 1_555
H11 C16 1_555 1_555
C17 N2 1_555 1_555
C18 C4 1_555 1_555
H12 C18 1_555 1_555
C19 C17 1_555 1_555
H13 C19 1_555 1_555
H14 C19 1_555 1_555
H15 C19 1_555 1_555
C20 C12 1_555 1_555
H16 C20 1_555 1_555
C21 C20 1_555 1_555
C22 C18 1_555 1_555
H17 C22 1_555 1_555
C23 C21 1_555 1_555
O3 C23 1_555 1_555
O4 C23 1_555 1_555
C24 C9 1_555 1_555
C25 C24 1_555 1_555
C26 C24 1_555 1_555
N3 C25 1_555 1_555
C27 C25 1_555 1_555
H18 C27 1_555 1_555
H19 C27 1_555 1_555
H20 C27 1_555 1_555
N4 C26 1_555 1_555
H21 N4 1_555 1_555
C28 C26 1_555 1_555
H22 C28 1_555 1_555
H23 C28 1_555 1_555
H24 C28 1_555 1_555
N5 C29 1_555 1_555
C29 H25 1_555 1_555
H26 C29 1_555 1_555
H27 C29 1_555 1_555
C30 N5 1_555 1_555
H28 C30 1_555 1_555
H29 C30 1_555 1_555
H30 C30 1_555 1_555
O8 C31 1_555 1_555
C31 N5 1_555 1_555
H31 C31 1_555 1_555
Ni1_2 O3 1_555 1_555
Ni1A N3 1_555 1_555
O3_2 Ni1 1_555 1_555
O4_2 Ni1 1_555 1_555
N3A Ni1 1_555 1_555
O2 C1 1_555 1_555
C5 C17 1_555 1_555
C15 C16 1_555 1_555
C21 C22 1_555 1_555
O4 Ni1_2 1_555 1_555
N3 N4 1_555 1_555

#END
