
#######################################################################
#
#                 Cambridge Crystallographic Data Centre
#                                CCDC 
#
#######################################################################
#
# If this CIF has been generated from an entry in the Cambridge 
# Structural Database, then it will include bibliographic, chemical, 
# crystal, experimental, refinement or atomic coordinate data resulting 
# from the CCDC's data processing and validation procedures.
#
#######################################################################

data_KIXZOI
_symmetry_cell_setting           orthorhombic
_symmetry_space_group_name_H-M   'P 21 21 21'
_symmetry_Int_Tables_number      19
_space_group_name_Hall           'P 2ac 2ab'
loop_
_symmetry_equiv_pos_site_id
_symmetry_equiv_pos_as_xyz
1 x,y,z
2 1/2-x,-y,1/2+z
3 -x,1/2+y,1/2-z
4 1/2+x,1/2-y,-z
_cell_length_a                   13.739(6)
_cell_length_b                   15.730(7)
_cell_length_c                   18.234(8)
_cell_angle_alpha                90
_cell_angle_beta                 90
_cell_angle_gamma                90
_cell_volume                     3940.63
loop_
_atom_site_label
_atom_site_type_symbol
_atom_site_fract_x
_atom_site_fract_y
_atom_site_fract_z
Ni1 Ni 0.75648(3) 0.97461(3) 0.17834(2)
S1 S 0.32010(9) 0.92888(9) 0.45455(6)
N1 N 0.7171(2) 0.8850(2) 0.09767(15)
O1 O 0.60476(17) 1.00479(19) 0.20274(12)
N2 N 0.7557(2) 0.8779(2) 0.26137(13)
C1 C 0.7474(3) 0.8675(3) 0.02847(17)
C2 C 0.7255(3) 0.8747(3) 0.33221(17)
S2 S 0.21772(7) 0.99184(10) 0.51393(5)
N3 N 0.6331(2) 0.8417(2) 0.10563(16)
H1 H 0.5992 0.8417 0.1452
O2 O 0.5071(2) 0.8878(2) 0.20942(16)
N4 N 0.8003(2) 0.8015(2) 0.24924(16)
H2 H 0.8245 0.7864 0.2077
C3 C 0.6817(3) 0.8131(3) -0.0073(2)
C4 C 0.7527(3) 0.7969(3) 0.36476(17)
C5 C 0.6081(3) 0.7982(3) 0.0441(2)
C6 C 0.8018(3) 0.7519(3) 0.31070(19)
O3 O 0.59167(18) 1.04457(19) 0.66233(12)
N5 N 0.7571(2) 0.9264(2) 0.59689(14)
N6 N 0.6959(2) 0.9362(2) -0.24172(16)
O4 O 0.55458(19) 1.1837(2) 0.64513(13)
C7 C 0.7027(3) 0.8744(3) 0.55624(19)
N7 N 0.8506(2) 0.9174(3) 0.56961(16)
H3 H 0.9001 0.9449 0.5861
C8 C 0.7304(3) 0.8681(3) -0.20410(18)
N8 N 0.6133(2) 0.9594(3) -0.20482(16)
H4 H 0.5771 1.0016 -0.2172
N9 N 0.4453(2) 1.1421(3) 0.19615(18)
O5 O 0.4594(3) 1.2192(3) 0.20077(17)
C9 C 0.7598(3) 0.8321(3) 0.50274(17)
C10 C 0.6699(3) 0.8500(3) -0.14316(19)
O6 O 0.4454(2) 1.1013(2) 0.13747(14)
N10 N 0.4048(3) 1.1447(3) 0.78210(18)
C11 C 0.8551(3) 0.8606(3) 0.51422(19)
C12 C 0.5948(3) 0.9080(3) -0.14640(19)
C13 C 0.6847(3) 0.7801(3) -0.08610(18)
H5 H 0.7471 0.7529 -0.0947
H6 H 0.6344 0.7374 -0.0923
C14 C 0.7287(3) 0.7690(3) 0.44323(18)
H7 H 0.6591 0.7600 0.4470
H8 H 0.7604 0.7149 0.4526
O7 O 0.3511(3) 1.1879(3) 0.8218(2)
C15 C 0.6776(3) 0.9477(3) 0.3699(2)
H9 H 0.6542 0.9873 0.3339
H10 H 0.7239 0.9755 0.4012
H11 H 0.6241 0.9273 0.3987
C16 C 0.8419(3) 0.9015(3) -0.0012(2)
H12 H 0.8492 0.9599 0.0129
H13 H 0.8418 0.8973 -0.0538
H14 H 0.8950 0.8688 0.0182
O8 O 0.4901(2) 1.1281(2) 0.79683(14)
C17 C 0.8516(4) 0.6656(3) 0.3111(2)
H15 H 0.9090 0.6679 0.2811
H16 H 0.8078 0.6235 0.2919
H17 H 0.8693 0.6509 0.3604
C18 C 0.5155(3) 0.7482(3) 0.0402(2)
H18 H 0.4754 0.7617 0.0816
H19 H 0.5303 0.6885 0.0405
H20 H 0.4815 0.7622 -0.0042
C19 C 0.5960(3) 0.8654(3) 0.5700(2)
H21 H 0.5765 0.9045 0.6077
H22 H 0.5821 0.8084 0.5854
H23 H 0.5609 0.8777 0.5257
C20 C 0.8212(3) 0.8240(3) -0.2283(2)
H24 H 0.8260 0.8264 -0.2808
H25 H 0.8193 0.7657 -0.2127
H26 H 0.8767 0.8516 -0.2069
C21 C 0.9492(3) 0.8366(4) 0.4784(2)
H27 H 1.0019 0.8653 0.5026
H28 H 0.9476 0.8528 0.4277
H29 H 0.9584 0.7762 0.4821
C22 C 0.5048(4) 0.9208(4) -0.0997(3)
H30 H 0.4692 0.9691 -0.1174
H31 H 0.5238 0.9303 -0.0497
H32 H 0.4645 0.8711 -0.1025
C23 C 0.4562(3) 1.0109(3) 0.27197(19)
C24 C 0.4222(3) 1.0942(3) 0.26340(19)
C25 C 0.3610(3) 1.1328(3) 0.3142(2)
H33 H 0.3417 1.1891 0.3082
C26 C 0.3288(3) 1.0855(4) 0.3748(2)
H34 H 0.2872 1.1101 0.4090
C27 C 0.3591(3) 1.0015(3) 0.3836(2)
C28 C 0.4228(3) 0.9639(3) 0.33330(19)
H35 H 0.4432 0.9081 0.3401
C29 C 0.5291(3) 0.9644(3) 0.22248(18)
C30 C 0.2820(3) 1.0371(3) 0.58978(19)
C31 C 0.2219(3) 1.0642(3) 0.6483(2)
H36 H 0.1547 1.0589 0.6449
C32 C 0.2635(3) 1.0986(3) 0.7105(2)
H37 H 0.2245 1.1150 0.7497
C33 C 0.3631(3) 1.1087(3) 0.7142(2)
C34 C 0.4255(3) 1.0854(3) 0.65538(18)
C35 C 0.3820(3) 1.0493(3) 0.59356(19)
H38 H 0.4208 1.0331 0.5541
C36 C 0.5342(3) 1.1074(3) 0.65492(18)
Ni1A Ni 0.74352(3) 1.02539(3) -0.32166(2)
Ni1A_2 Ni 0.74352(3) 1.02539(3) 0.67834(2)
O3A O 0.90833(18) 0.95543(19) 0.16233(12)
N5A N 0.7429(2) 1.0736(2) 0.09689(14)
N6A N 0.8041(2) 1.0638(2) 0.25828(16)
loop_
_geom_bond_atom_site_label_1
_geom_bond_atom_site_label_2
_geom_bond_site_symmetry_1
_geom_bond_site_symmetry_2
Ni1 N1 1_555 1_555
S1 S2 1_555 1_555
N1 C1 1_555 1_555
O1 Ni1 1_555 1_555
N2 Ni1 1_555 1_555
C1 C3 1_555 1_555
C2 N2 1_555 1_555
S2 C30 1_555 1_555
N3 N1 1_555 1_555
H1 N3 1_555 1_555
O2 C29 1_555 1_555
N4 N2 1_555 1_555
H2 N4 1_555 1_555
C3 C5 1_555 1_555
C4 C2 1_555 1_555
C5 N3 1_555 1_555
C6 N4 1_555 1_555
O3 C36 1_555 1_555
N5 C7 1_555 1_555
N6 C8 1_555 1_555
O4 C36 1_555 1_555
C7 C9 1_555 1_555
N7 N5 1_555 1_555
H3 N7 1_555 1_555
C8 C10 1_555 1_555
N8 N6 1_555 1_555
H4 N8 1_555 1_555
N9 O5 1_555 1_555
C9 C11 1_555 1_555
C10 C12 1_555 1_555
O6 N9 1_555 1_555
N10 O7 1_555 1_555
C11 N7 1_555 1_555
C12 N8 1_555 1_555
C13 C3 1_555 1_555
H5 C13 1_555 1_555
H6 C13 1_555 1_555
C14 C4 1_555 1_555
H7 C14 1_555 1_555
H8 C14 1_555 1_555
C15 C2 1_555 1_555
H9 C15 1_555 1_555
H10 C15 1_555 1_555
H11 C15 1_555 1_555
C16 C1 1_555 1_555
H12 C16 1_555 1_555
H13 C16 1_555 1_555
H14 C16 1_555 1_555
O8 N10 1_555 1_555
C17 C6 1_555 1_555
H15 C17 1_555 1_555
H16 C17 1_555 1_555
H17 C17 1_555 1_555
C18 C5 1_555 1_555
H18 C18 1_555 1_555
H19 C18 1_555 1_555
H20 C18 1_555 1_555
C19 C7 1_555 1_555
H21 C19 1_555 1_555
H22 C19 1_555 1_555
H23 C19 1_555 1_555
C20 C8 1_555 1_555
H24 C20 1_555 1_555
H25 C20 1_555 1_555
H26 C20 1_555 1_555
C21 C11 1_555 1_555
H27 C21 1_555 1_555
H28 C21 1_555 1_555
H29 C21 1_555 1_555
C22 C12 1_555 1_555
H30 C22 1_555 1_555
H31 C22 1_555 1_555
H32 C22 1_555 1_555
C23 C24 1_555 1_555
C24 N9 1_555 1_555
C25 C24 1_555 1_555
H33 C25 1_555 1_555
C26 C25 1_555 1_555
H34 C26 1_555 1_555
C27 S1 1_555 1_555
C28 C23 1_555 1_555
H35 C28 1_555 1_555
C29 O1 1_555 1_555
C30 C31 1_555 1_555
C31 H36 1_555 1_555
C32 C31 1_555 1_555
H37 C32 1_555 1_555
C33 N10 1_555 1_555
C34 C33 1_555 1_555
C35 C30 1_555 1_555
H38 C35 1_555 1_555
C36 C34 1_555 1_555
Ni1A N6 1_555 1_555
Ni1A_2 O3 1_555 1_555
O3A Ni1 1_555 1_555
N5A Ni1 1_555 1_555
N6A Ni1 1_555 1_555
C4 C6 1_555 1_555
N5 Ni1A_2 1_555 1_555
C9 C14 1_555 1_555
C10 C13 1_555 1_555
C23 C29 1_555 1_555
C26 C27 1_555 1_555
C27 C28 1_555 1_555
C32 C33 1_555 1_555
C34 C35 1_555 1_555

#END
