
#######################################################################
#
#                 Cambridge Crystallographic Data Centre
#                                CCDC 
#
#######################################################################
#
# If this CIF has been generated from an entry in the Cambridge 
# Structural Database, then it will include bibliographic, chemical, 
# crystal, experimental, refinement or atomic coordinate data resulting 
# from the CCDC's data processing and validation procedures.
#
#######################################################################

data_KIYBAX
_symmetry_cell_setting           triclinic
_symmetry_space_group_name_H-M   'P -1'
_symmetry_Int_Tables_number      2
_space_group_name_Hall           '-P 1'
loop_
_symmetry_equiv_pos_site_id
_symmetry_equiv_pos_as_xyz
1 x,y,z
2 -x,-y,-z
_cell_length_a                   10.178(6)
_cell_length_b                   12.409(7)
_cell_length_c                   13.390(8)
_cell_angle_alpha                78.630(16)
_cell_angle_beta                 75.404(15)
_cell_angle_gamma                85.896(16)
_cell_volume                     1604.02
loop_
_atom_site_label
_atom_site_type_symbol
_atom_site_fract_x
_atom_site_fract_y
_atom_site_fract_z
Ni1 Ni 0.18142(5) 0.32570(4) 0.46251(4)
S1 S 0.30853(12) 0.73491(8) 0.85967(7)
O1 O 0.1242(2) 0.3685(2) 0.61008(19)
N1 N -0.0077(3) 0.2769(2) 0.4689(2)
C1 C -0.0611(4) 0.2049(3) 0.4280(3)
O2 O 0.3284(3) 0.4067(2) 0.5109(2)
N2 N -0.1156(3) 0.3174(2) 0.5353(2)
H1 H -0.1096 0.3653 0.5722
C2 C -0.2026(4) 0.1998(3) 0.4679(3)
C3 C -0.2332(4) 0.2731(3) 0.5361(3)
N3 N -0.2690(3) -0.1734(2) 0.5231(2)
O3 O 0.1481(3) 0.49049(19) 1.37216(18)
C4 C -0.2428(4) -0.0808(3) 0.4505(3)
N4 N -0.3488(3) -0.1405(2) 0.6100(2)
H2 H -0.3806 -0.1845 0.6682
O4 O 0.2616(2) 0.35627(19) 1.30135(19)
C5 C -0.3044(3) 0.0112(3) 0.4929(3)
O5 O 0.4492(3) 0.7669(2) 0.8275(2)
O6 O 0.2046(4) 0.8194(2) 0.8602(2)
C6 C -0.3725(4) -0.0309(3) 0.5943(3)
C7 C -0.2995(4) 0.1310(3) 0.4396(3)
H3 H -0.2741 0.1345 0.3642
H4 H -0.3901 0.1633 0.4572
C8 C 0.0290(4) 0.1459(4) 0.3468(3)
H5 H 0.1085 0.1882 0.3120
H6 H -0.0196 0.1370 0.2962
H7 H 0.0554 0.0750 0.3805
C9 C -0.3647(4) 0.3092(3) 0.6027(3)
H8 H -0.3631 0.3867 0.6016
H9 H -0.3764 0.2700 0.6735
H10 H -0.4387 0.2941 0.5754
C10 C -0.1577(5) -0.0875(3) 0.3419(3)
H11 H -0.1788 -0.1531 0.3217
H12 H -0.0632 -0.0894 0.3418
H13 H -0.1769 -0.0244 0.2930
C11 C -0.4586(5) 0.0229(3) 0.6793(4)
H14 H -0.5121 -0.0315 0.7321
H15 H -0.5175 0.0772 0.6503
H16 H -0.4015 0.0575 0.7103
C12 C 0.2530(4) 0.4938(3) 0.6599(3)
C13 C 0.1420(4) 0.5292(3) 0.7304(3)
H17 H 0.0563 0.5028 0.7373
C14 C 0.1582(4) 0.6038(3) 0.7907(3)
H18 H 0.0834 0.6284 0.8373
C15 C 0.2866(4) 0.6415(3) 0.7811(3)
C16 C 0.3983(4) 0.6067(3) 0.7107(3)
H19 H 0.4843 0.6318 0.7050
C17 C 0.3807(4) 0.5350(3) 0.6498(3)
H20 H 0.4550 0.5134 0.6008
C18 C 0.2351(4) 0.4177(3) 0.5914(3)
C19 C 0.2803(4) 0.6535(3) 0.9875(3)
C20 C 0.3337(5) 0.5474(4) 1.0001(3)
H21 H 0.3836 0.5192 0.9422
C21 C 0.3122(5) 0.4838(4) 1.0997(3)
H22 H 0.3475 0.4123 1.1086
C22 C 0.2382(4) 0.5256(3) 1.1864(3)
C23 C 0.1853(5) 0.6315(3) 1.1722(3)
H23 H 0.1356 0.6601 1.2299
C24 C 0.2055(5) 0.6956(3) 1.0726(3)
H24 H 0.1687 0.7666 1.0634
C25 C 0.2147(4) 0.4545(3) 1.2922(3)
Ni1_2 Ni 0.18142(5) 0.32570(4) 1.46251(4)
Ni1A Ni -0.18142(5) -0.32570(4) 0.53749(4)
N3A N 0.2690(3) 0.1734(2) 0.4769(2)
O3_2 O 0.1481(3) 0.49049(19) 0.37216(18)
O4_2 O 0.2616(2) 0.35627(19) 0.30135(19)
loop_
_geom_bond_atom_site_label_1
_geom_bond_atom_site_label_2
_geom_bond_site_symmetry_1
_geom_bond_site_symmetry_2
Ni1 O1 1_555 1_555
S1 O5 1_555 1_555
O1 C18 1_555 1_555
N1 Ni1 1_555 1_555
C1 N1 1_555 1_555
O2 Ni1 1_555 1_555
N2 N1 1_555 1_555
H1 N2 1_555 1_555
C2 C1 1_555 1_555
C3 N2 1_555 1_555
N3 C4 1_555 1_555
O3 C25 1_555 1_555
C4 C5 1_555 1_555
N4 N3 1_555 1_555
H2 N4 1_555 1_555
O4 C25 1_555 1_555
C5 C6 1_555 1_555
O6 S1 1_555 1_555
C6 N4 1_555 1_555
C7 C2 1_555 1_555
H3 C7 1_555 1_555
H4 C7 1_555 1_555
C8 C1 1_555 1_555
H5 C8 1_555 1_555
H6 C8 1_555 1_555
H7 C8 1_555 1_555
C9 C3 1_555 1_555
H8 C9 1_555 1_555
H9 C9 1_555 1_555
H10 C9 1_555 1_555
C10 C4 1_555 1_555
H11 C10 1_555 1_555
H12 C10 1_555 1_555
H13 C10 1_555 1_555
C11 C6 1_555 1_555
H14 C11 1_555 1_555
H15 C11 1_555 1_555
H16 C11 1_555 1_555
C12 C13 1_555 1_555
C13 H17 1_555 1_555
C14 C13 1_555 1_555
H18 C14 1_555 1_555
C15 S1 1_555 1_555
C16 C15 1_555 1_555
H19 C16 1_555 1_555
C17 C12 1_555 1_555
H20 C17 1_555 1_555
C18 O2 1_555 1_555
C19 S1 1_555 1_555
C20 C19 1_555 1_555
H21 C20 1_555 1_555
C21 C20 1_555 1_555
H22 C21 1_555 1_555
C22 C21 1_555 1_555
C23 C22 1_555 1_555
H23 C23 1_555 1_555
C24 C19 1_555 1_555
H24 C24 1_555 1_555
C25 C22 1_555 1_555
Ni1_2 O3 1_555 1_555
Ni1A N3 1_555 1_555
N3A Ni1 1_555 1_555
O3_2 Ni1 1_555 1_555
O4_2 Ni1 1_555 1_555
C2 C3 1_555 1_555
O4 Ni1_2 1_555 1_555
C5 C7 1_555 1_555
C12 C18 1_555 1_555
C14 C15 1_555 1_555
C16 C17 1_555 1_555
C23 C24 1_555 1_555

#END
