
#######################################################################
#
#                 Cambridge Crystallographic Data Centre
#                                CCDC 
#
#######################################################################
#
# If this CIF has been generated from an entry in the Cambridge 
# Structural Database, then it will include bibliographic, chemical, 
# crystal, experimental, refinement or atomic coordinate data resulting 
# from the CCDC's data processing and validation procedures.
#
#######################################################################

data_KIYBEZ01
_symmetry_cell_setting           trigonal
_symmetry_space_group_name_H-M   'P 31 2 1'
_symmetry_Int_Tables_number      152
_space_group_name_Hall           'P 31 2"'
loop_
_symmetry_equiv_pos_site_id
_symmetry_equiv_pos_as_xyz
1 x,y,z
2 -y,x-y,1/3+z
3 -x+y,-x,2/3+z
4 y,x,-z
5 x-y,-y,2/3-z
6 -x,-x+y,1/3-z
_cell_length_a                   9.7885(5)
_cell_length_b                   9.7885(5)
_cell_length_c                   11.8035(12)
_cell_angle_alpha                90
_cell_angle_beta                 90
_cell_angle_gamma                120
_cell_volume                     979.431
loop_
_atom_site_label
_atom_site_type_symbol
_atom_site_fract_x
_atom_site_fract_y
_atom_site_fract_z
K1 K 1.0000 0.55125(5) 0.1667
K2 K 0.64604(4) 0.15745(4) 0.47726(3)
O1 O 0.74457(16) 0.00000(16) 0.3333
O2 O 0.92169(13) 0.31016(14) 0.35004(10)
O3 O 1.14622(14) 0.38601(14) 0.42965(9)
O4 O 1.29838(13) 0.27791(13) 0.31332(9)
O5 O 1.32358(14) -0.11183(13) 0.37403(10)
O6 O 1.25931(14) 0.50983(15) 0.18586(11)
H1 H 1.2797 0.4706 0.2432
H2 H 1.2252 0.4502 0.1281
N1 N 1.03039(14) 0.28365(15) 0.37502(10)
N2 N 1.31372(17) 0.00000(17) 0.3333
C1 C 0.8722(2) 0.0000(2) 0.3333
C2 C 1.02405(18) 0.14197(19) 0.34610(12)
C3 C 1.17502(18) 0.14942(17) 0.32921(11)
C4 C 1.1711(2) 0.0000(2) 0.3333
K1A K 0.44875(5) 0.44875(5) 0.5000
K1A_2 K 1.44875(5) 0.44875(5) 0.5000
K1_2 K 1.0000 -0.44875(5) 0.1667
K1A_3 K 0.44875(5) -0.55125(5) 0.5000
K1_3 K 0.0000 -0.44875(5) 0.1667
K2D K 0.48859(6) -0.15745(4) 0.18941(3)
K2B K 0.51141(6) 0.35396(4) 0.14393(3)
K2D_2 K 1.48859(6) 0.84255(4) 0.18941(3)
K2C K 1.15745(4) 0.64604(4) 0.52274(3)
K2B_2 K 1.51141(6) 0.35396(4) 0.14393(3)
K2_2 K 1.64604(4) 0.15745(4) 0.47726(3)
K2C_2 K 1.15745(4) -0.35396(4) 0.52274(3)
K2D_3 K 1.48859(6) -0.15745(4) 0.18941(3)
K2B_3 K 0.51141(6) -0.64604(4) 0.14393(3)
O2D O 0.61153(19) -0.31016(14) 0.31663(10)
O2E O 1.07831(13) 0.38847(19) -0.01671(10)
O3D O 0.76021(20) -0.38601(14) 0.23702(9)
O3B O 1.23979(20) 0.85378(14) 0.09632(9)
O3D_2 O 0.76021(20) 0.61399(14) 0.23702(9)
O3C O 0.38601(14) 0.14622(14) 0.57035(9)
O3B_2 O 0.23979(20) -0.14622(14) 0.09632(9)
O4D O 1.02047(18) -0.27791(13) 0.35335(9)
O4B O 0.97953(18) 0.70162(13) -0.02001(9)
O4D_2 O 1.02047(18) 0.72209(13) 0.35335(9)
O4A O 0.72209(13) 0.02047(18) 0.64665(9)
O4E O 0.70162(13) -0.02047(18) 0.02001(9)
O5D O 1.43541(19) 0.11183(13) 0.29264(10)
O5_2 O 0.32358(14) -0.11183(13) 0.37403(10)
O5C O 0.88817(13) 0.32358(14) 0.62597(10)
O5D_2 O 0.43541(19) 0.11183(13) 0.29264(10)
O5B O 0.56459(19) -0.32358(14) 0.04070(10)
O6E O 0.74069(14) 0.25052(21) 0.14747(11)
O6D O 0.74948(21) 0.49017(15) 0.48081(11)
O6_2 O 0.25931(14) -0.49017(15) 0.18586(11)
H1E H 0.7203 0.1909 0.0901
H1D H 0.8091 0.5294 0.4235
H1_2 H 0.2797 -0.5294 0.2432
H2E H 0.7748 0.2250 0.2052
H2D H 0.7750 0.5498 0.5386
H2_2 H 0.2252 -0.5498 0.1281
N1D N 0.74674(21) -0.28365(15) 0.29165(10)
C2D C 0.88208(26) -0.14197(19) 0.32057(12)
C3D C 1.02560(25) -0.14942(17) 0.33746(11)
loop_
_geom_bond_atom_site_label_1
_geom_bond_atom_site_label_2
_geom_bond_site_symmetry_1
_geom_bond_site_symmetry_2
K1 O2 1_555 1_555
K2 O1 1_555 1_555
O1 C1 1_555 1_555
O2 K2 1_555 1_555
O3 N1 1_555 1_555
O4 C3 1_555 1_555
O5 N2 1_555 1_555
O6 K1 1_555 1_555
H1 O6 1_555 1_555
H2 O6 1_555 1_555
N1 O2 1_555 1_555
N2 C4 1_555 1_555
C1 C2 1_555 1_555
C2 N1 1_555 1_555
C3 C2 1_555 1_555
C4 C3 1_555 1_555
K1A K2 1_555 1_555
K1A_2 O3 1_555 1_555
K1_2 K2D_3 1_555 1_555
K1A_3 O2D 1_555 1_555
K1_3 K2D 1_555 1_555
K2D O1 1_555 1_555
K2B K1 1_555 1_555
K2D_2 K1 1_555 1_555
K2C O3 1_555 1_555
K2B_2 O4 1_555 1_555
K2_2 O5 1_555 1_555
K2C_2 O5 1_555 1_555
K2D_3 O5 1_555 1_555
K2B_3 K1_2 1_555 1_555
O2D K2D 1_555 1_555
O2E K1 1_555 1_555
O3D K1_2 1_555 1_555
O3B K1 1_555 1_555
O3D_2 K1 1_555 1_555
O3C K2 1_555 1_555
O3B_2 K1_3 1_555 1_555
O4D K1_2 1_555 1_555
O4B K1 1_555 1_555
O4D_2 K1 1_555 1_555
O4A K2 1_555 1_555
O4E K2D 1_555 1_555
O5D N2 1_555 1_555
O5_2 K2 1_555 1_555
O5C K2 1_555 1_555
O5D_2 K2 1_555 1_555
O5B K2D 1_555 1_555
O6E K1 1_555 1_555
O6D K2 1_555 1_555
O6_2 K1_3 1_555 1_555
H1E O6E 1_555 1_555
H1D O6D 1_555 1_555
H1_2 O6_2 1_555 1_555
H2E O6E 1_555 1_555
H2D O6D 1_555 1_555
H2_2 O6_2 1_555 1_555
N1D O2D 1_555 1_555
C2D C1 1_555 1_555
C3D C4 1_555 1_555
O4 K1A_2 1_555 1_555
O6 K2D_2 1_555 1_555
K1A O3C 1_555 1_555
K1A O6D 1_555 1_555
K1A_2 K2C 1_555 1_555
K1A_2 K2_2 1_555 1_555
K2D O3B_2 1_555 1_555
K2D O5_2 1_555 1_555
K2D O5D_2 1_555 1_555
K2D O6_2 1_555 1_555
K2B O3D_2 1_555 1_555
K2B O5D_2 1_555 1_555
K2B O6E 1_555 1_555
K2D_2 O3B 1_555 1_555
K2C O4D_2 1_555 1_555
K2C O5C 1_555 1_555
K2B_2 O5D 1_555 1_555
K2_2 O5D 1_555 1_555
K2C_2 O4D 1_555 1_555
K2D_3 O5D 1_555 1_555
K2B_3 O3D 1_555 1_555
K2B_3 O5B 1_555 1_555
O3D N1D 1_555 1_555
O4D C3D 1_555 1_555
N1D C2D 1_555 1_555
C2D C3D 1_555 1_555

#END
