
#######################################################################
#
#                 Cambridge Crystallographic Data Centre
#                                CCDC 
#
#######################################################################
#
# If this CIF has been generated from an entry in the Cambridge 
# Structural Database, then it will include bibliographic, chemical, 
# crystal, experimental, refinement or atomic coordinate data resulting 
# from the CCDC's data processing and validation procedures.
#
#######################################################################

data_KIYBOL
_symmetry_cell_setting           monoclinic
_symmetry_space_group_name_H-M   'C 2/c'
_symmetry_Int_Tables_number      15
_space_group_name_Hall           '-C 2yn'
loop_
_symmetry_equiv_pos_site_id
_symmetry_equiv_pos_as_xyz
1 x,y,z
2 -x,y,1/2-z
3 1/2+x,1/2+y,z
4 1/2-x,1/2+y,1/2-z
5 -x,-y,-z
6 x,-y,1/2+z
7 1/2-x,1/2-y,-z
8 1/2+x,1/2-y,1/2+z
_cell_length_a                   20.812(4)
_cell_length_b                   9.2072(18)
_cell_length_c                   22.178(4)
_cell_angle_alpha                90
_cell_angle_beta                 104.60(3)
_cell_angle_gamma                90
_cell_volume                     4112.53
loop_
_atom_site_label
_atom_site_type_symbol
_atom_site_fract_x
_atom_site_fract_y
_atom_site_fract_z
N1 N 0.6384(2) 0.5124(5) 0.4475(2)
C1 C 0.6941(3) 0.5651(7) 0.4843(3)
H1 H 0.6909 0.6402 0.5114
C2 C 0.6448(3) 0.4042(6) 0.4095(3)
H2 H 0.6066 0.3652 0.3834
Co1 Co 1.0455 0.1183(1) 0.4433
O1 O 1.0375(2) 0.1839(5) 0.3487(2)
O2 O 1.0968(2) 0.3204(5) 0.4227(2)
O3 O 1.0021(2) 0.9299(4) 0.0861(2)
O4 O 1.0771(2) 0.8564(4) 0.0361(2)
N2 N 0.9548(2) 0.2336(5) 0.4389(2)
C3 C 1.0751(3) 0.2916(7) 0.3666(3)
C4 C 1.0946(4) 0.3794(9) 0.3167(3)
H3 H 1.0888 0.3198 0.2796
H4 H 1.0648 0.4618 0.3062
O5 O 1.1585(3) 0.4291(7) 0.3331(3)
C5 C 1.2832(3) 0.5269(8) 0.2487(4)
H5 H 1.3285 0.5148 0.2531
C6 C 1.2541(4) 0.4757(8) 0.2938(4)
H6 H 1.2799 0.4308 0.3293
C7 C 1.1865(3) 0.4911(7) 0.2865(3)
C8 C 0.9468(3) 0.3287(6) 0.4817(3)
H7 H 0.9847 0.3580 0.5113
C9 C 0.8995(3) 0.2007(7) 0.3949(3)
H8 H 0.9030 0.1379 0.3630
C10 C 0.7638(2) 0.4047(5) 0.4439(2)
C11 C 0.8874(3) 0.3868(6) 0.4857(3)
H9 H 0.8856 0.4508 0.5177
C12 C 1.1778(3) 0.6169(6) 0.1903(3)
C13 C 1.0518(2) 0.8581(5) 0.0813(2)
C14 C 0.8299(2) 0.3486(5) 0.4412(2)
C15 C 1.1412(2) 0.6984(6) 0.1369(2)
H10 H 1.1575 0.7036 0.1017
C16 C 0.7570(3) 0.5140(7) 0.4843(3)
H11 H 0.7943 0.5535 0.5115
C17 C 0.7055(3) 0.3475(6) 0.4073(3)
H12 H 0.7073 0.2700 0.3808
C18 C 0.8376(3) 0.2555(7) 0.3945(3)
H13 H 0.8009 0.2297 0.3627
C19 C 1.2448(3) 0.5965(7) 0.1967(4)
H14 H 1.2643 0.6297 0.1659
C20 C 1.0833(3) 0.7681(7) 0.1369(3)
H15 H 1.0641 0.7598 0.1704
C21 C 1.1481(3) 0.5636(7) 0.2350(3)
H16 H 1.1028 0.5762 0.2306
N1B N 1.1384(2) 0.0124(5) 0.4475(2)
Co1A Co 0.9545 1.1183(1) 0.0567
Co1E Co 1.0455 0.8817(1) -0.0567
Co1B Co 0.5455 0.6183(1) 0.4433
O3A O 0.9979(2) -0.0701(4) 0.4139(2)
O4E O 1.0771(2) 0.1436(4) 0.5361(2)
loop_
_geom_bond_atom_site_label_1
_geom_bond_atom_site_label_2
_geom_bond_site_symmetry_1
_geom_bond_site_symmetry_2
N1 C1 1_555 1_555
C1 H1 1_555 1_555
C2 N1 1_555 1_555
H2 C2 1_555 1_555
Co1 O1 1_555 1_555
O1 C3 1_555 1_555
O2 Co1 1_555 1_555
O3 C13 1_555 1_555
O4 C13 1_555 1_555
N2 Co1 1_555 1_555
C3 O2 1_555 1_555
C4 C3 1_555 1_555
H3 C4 1_555 1_555
H4 C4 1_555 1_555
O5 C4 1_555 1_555
C5 H5 1_555 1_555
C6 C5 1_555 1_555
H6 C6 1_555 1_555
C7 O5 1_555 1_555
C8 N2 1_555 1_555
H7 C8 1_555 1_555
C9 N2 1_555 1_555
H8 C9 1_555 1_555
C10 C14 1_555 1_555
C11 C8 1_555 1_555
H9 C11 1_555 1_555
C12 C15 1_555 1_555
C13 C20 1_555 1_555
C14 C11 1_555 1_555
C15 H10 1_555 1_555
C16 C1 1_555 1_555
H11 C16 1_555 1_555
C17 C2 1_555 1_555
H12 C17 1_555 1_555
C18 C9 1_555 1_555
H13 C18 1_555 1_555
C19 C5 1_555 1_555
H14 C19 1_555 1_555
C20 C15 1_555 1_555
H15 C20 1_555 1_555
C21 C7 1_555 1_555
H16 C21 1_555 1_555
N1B Co1 1_555 1_555
Co1A O3 1_555 1_555
Co1E O4 1_555 1_555
Co1B N1 1_555 1_555
O3A Co1 1_555 1_555
O4E Co1 1_555 1_555
C6 C7 1_555 1_555
C10 C16 1_555 1_555
C10 C17 1_555 1_555
C12 C19 1_555 1_555
C12 C21 1_555 1_555
C14 C18 1_555 1_555

#END
