
#######################################################################
#
#                 Cambridge Crystallographic Data Centre
#                                CCDC 
#
#######################################################################
#
# If this CIF has been generated from an entry in the Cambridge 
# Structural Database, then it will include bibliographic, chemical, 
# crystal, experimental, refinement or atomic coordinate data resulting 
# from the CCDC's data processing and validation procedures.
#
#######################################################################

data_KIYBEB
_symmetry_cell_setting           monoclinic
_symmetry_space_group_name_H-M   'P 21/n'
_symmetry_Int_Tables_number      14
_space_group_name_Hall           '-P 2yn'
loop_
_symmetry_equiv_pos_site_id
_symmetry_equiv_pos_as_xyz
1 x,y,z
2 1/2-x,1/2+y,1/2-z
3 -x,-y,-z
4 1/2+x,1/2-y,1/2+z
_cell_length_a                   11.518(2)
_cell_length_b                   10.585(2)
_cell_length_c                   18.041(4)
_cell_angle_alpha                90
_cell_angle_beta                 90.54(3)
_cell_angle_gamma                90
_cell_volume                     2199.43
loop_
_atom_site_label
_atom_site_type_symbol
_atom_site_fract_x
_atom_site_fract_y
_atom_site_fract_z
Co1 Co 0.2199(1) 0.5967(1) 0.286
C1 C 1.0774(6) 0.1344(7) 0.1669(4)
C2 C 0.9612(6) 0.1702(7) 0.1383(4)
H1 H 0.9390 0.1423 0.0914
C3 C 0.8875(6) 0.2401(7) 0.1765(5)
H2 H 0.9091 0.2579 0.2252
C4 C 0.7757(6) 0.2930(8) 0.1514(4)
C5 C 0.7020(6) 0.3501(8) 0.2027(4)
H3 H 0.7256 0.3554 0.2520
C6 C 0.5949(6) 0.3989(8) 0.1822(4)
H4 H 0.5468 0.4342 0.2177
C7 C 0.5598(6) 0.3951(7) 0.1095(4)
C8 C 0.6325(6) 0.3438(7) 0.0568(4)
H5 H 0.6100 0.3432 0.0072
C9 C 0.7380(6) 0.2937(7) 0.0777(4)
H6 H 0.7856 0.2592 0.0416
O1 O 0.4547(4) 0.4372(4) 0.0816(2)
C10 C 0.3195(5) 0.3811(6) 0.1842(4)
C11 C 0.0476(6) 0.5337(7) 0.1612(4)
H7 H 0.0555 0.4539 0.1822
C12 C -0.0328(6) 0.5492(8) 0.1052(5)
H8 H -0.0779 0.4810 0.0899
C13 C -0.0468(6) 0.6643(8) 0.0717(4)
C14 C 0.0269(7) 0.7596(8) 0.0948(4)
H9 H 0.0240 0.8382 0.0719
C15 C 0.1047(6) 0.7383(7) 0.1517(4)
H10 H 0.1526 0.8046 0.1664
C16 C -0.1430(6) 0.6850(9) 0.0155(5)
H11 H -0.1641 0.6052 -0.0074
H12 H -0.1167 0.7418 -0.0231
C17 C -0.2507(9) 0.7430(17) 0.0552(7)
H13 H -0.2735 0.7033 0.0987
C18 C -0.302(2) 0.8237(13) 0.0381(14)
H14 H -0.2834 0.8608 -0.0070
C19 C -0.4015(12) 0.8823(9) 0.0815(9)
C20 C -0.4082(16) 1.0093(11) 0.0934(14)
H15 H -0.3487 1.0604 0.0760
C21 C -0.4971(13) 1.0643(9) 0.1292(11)
H16 H -0.4968 1.1517 0.1345
C22 C -0.5747(7) 0.8789(6) 0.1482(4)
H17 H -0.6334 0.8296 0.1683
C23 C -0.4866(7) 0.8176(7) 0.1122(4)
H18 H -0.4868 0.7299 0.1094
N1 N 0.1156(5) 0.6272(5) 0.1875(3)
N2 N -0.5825(5) 1.0017(5) 0.1564(4)
O2 O 1.1083(4) 0.1685(4) 0.2314(3)
O3 O 1.1454(4) 0.0712(5) 0.1264(3)
O4 O 0.2639(4) 0.4217(4) 0.2385(2)
O5 O 0.3342(4) 0.2682(4) 0.1678(3)
C24 C 0.3719(6) 0.4817(6) 0.1338(4)
H19 H 0.3093 0.5227 0.1067
H20 H 0.4090 0.5453 0.1646
Co1A Co -0.7199(1) 1.0967(1) 0.214
Co1A_2 Co 0.2801(1) 0.0967(1) 0.214
Co1A_3 Co 1.2801(1) 0.0967(1) 0.214
N2A N 0.0825(5) 0.5017(5) 0.3436(4)
O2A O 0.3917(4) 0.6685(4) 0.2686(3)
O3A O 0.3546(4) 0.5712(5) 0.3736(3)
O5A O 0.1658(4) 0.7682(4) 0.3322(3)
loop_
_geom_bond_atom_site_label_1
_geom_bond_atom_site_label_2
_geom_bond_site_symmetry_1
_geom_bond_site_symmetry_2
Co1 N1 1_555 1_555
C1 C2 1_555 1_555
C2 H1 1_555 1_555
C3 C2 1_555 1_555
H2 C3 1_555 1_555
C4 C3 1_555 1_555
C5 C4 1_555 1_555
H3 C5 1_555 1_555
C6 C5 1_555 1_555
H4 C6 1_555 1_555
C7 C6 1_555 1_555
C8 C7 1_555 1_555
H5 C8 1_555 1_555
C9 C4 1_555 1_555
H6 C9 1_555 1_555
O1 C7 1_555 1_555
C10 O4 1_555 1_555
C11 H7 1_555 1_555
C12 C11 1_555 1_555
H8 C12 1_555 1_555
C13 C12 1_555 1_555
C14 C13 1_555 1_555
H9 C14 1_555 1_555
C15 C14 1_555 1_555
H10 C15 1_555 1_555
C16 C13 1_555 1_555
H11 C16 1_555 1_555
H12 C16 1_555 1_555
C17 C16 1_555 1_555
H13 C17 1_555 1_555
C18 C17 1_555 1_555
H14 C18 1_555 1_555
C19 C18 1_555 1_555
C20 C19 1_555 1_555
H15 C20 1_555 1_555
C21 C20 1_555 1_555
H16 C21 1_555 1_555
C22 H17 1_555 1_555
C23 C19 1_555 1_555
H18 C23 1_555 1_555
N1 C11 1_555 1_555
N2 C21 1_555 1_555
O2 C1 1_555 1_555
O3 C1 1_555 1_555
O4 Co1 1_555 1_555
O5 C10 1_555 1_555
C24 O1 1_555 1_555
H19 C24 1_555 1_555
H20 C24 1_555 1_555
Co1A N2 1_555 1_555
Co1A_2 O5 1_555 1_555
Co1A_3 O2 1_555 1_555
N2A Co1 1_555 1_555
O2A Co1 1_555 1_555
O3A Co1 1_555 1_555
O5A Co1 1_555 1_555
C8 C9 1_555 1_555
C10 C24 1_555 1_555
C15 N1 1_555 1_555
C22 C23 1_555 1_555
C22 N2 1_555 1_555
O3 Co1A_3 1_555 1_555

#END
