
#######################################################################
#
#                 Cambridge Crystallographic Data Centre
#                                CCDC 
#
#######################################################################
#
# If this CIF has been generated from an entry in the Cambridge 
# Structural Database, then it will include bibliographic, chemical, 
# crystal, experimental, refinement or atomic coordinate data resulting 
# from the CCDC's data processing and validation procedures.
#
#######################################################################

data_KIYCOL
_symmetry_cell_setting           monoclinic
_symmetry_space_group_name_H-M   'P 21/c'
_symmetry_Int_Tables_number      14
_space_group_name_Hall           '-P 2ybc'
loop_
_symmetry_equiv_pos_site_id
_symmetry_equiv_pos_as_xyz
1 x,y,z
2 -x,1/2+y,1/2-z
3 -x,-y,-z
4 x,1/2-y,1/2+z
_cell_length_a                   6.251(1)
_cell_length_b                   7.178(1)
_cell_length_c                   30.105(5)
_cell_angle_alpha                90
_cell_angle_beta                 90.34(2)
_cell_angle_gamma                90
_cell_volume                     1350.78
loop_
_atom_site_label
_atom_site_type_symbol
_atom_site_fract_x
_atom_site_fract_y
_atom_site_fract_z
K1 K 0.27278(8) 0.34932(7) 0.029055(15)
K2 K -0.35285(7) 0.26976(6) 0.386590(15)
F1 F -0.4191(3) 0.2578(3) 0.29506(5)
C1 C -0.0668(3) 0.2453(3) 0.18177(6)
C2 C -0.2723(3) 0.3184(3) 0.18071(7)
H1 H -0.3296 0.3641 0.1543
C3 C -0.3909(4) 0.3227(4) 0.21929(8)
H2 H -0.5289 0.3711 0.2194
C4 C -0.3003(4) 0.2542(3) 0.25729(7)
C5 C -0.0983(5) 0.1813(4) 0.25953(8)
H3 H -0.0421 0.1370 0.2862
C6 C 0.0195(4) 0.1757(3) 0.22073(7)
H4 H 0.1565 0.1252 0.2209
S1 S 0.08799(8) 0.24609(7) 0.132791(16)
O1 O 0.2641(2) 0.1186(2) 0.13906(6)
O2 O 0.1514(3) 0.4367(2) 0.12484(5)
N1 N -0.0674(3) 0.1971(2) 0.09160(5)
C7 C -0.1693(3) 0.0317(3) 0.08836(6)
S2 S -0.14773(8) -0.14810(7) 0.125193(18)
S3 S -0.33419(9) 0.00830(7) 0.042307(16)
O3 O 0.6587(3) 0.5085(2) 0.05997(6)
H5 H 0.727(5) 0.418(5) 0.0663(10)
H6 H 0.713(5) 0.589(5) 0.0736(10)
O4 O -0.1253(3) 0.2884(3) -0.02852(6)
H7 H -0.173(5) 0.211(5) -0.0099(11)
H8 H -0.032(5) 0.228(5) -0.0395(11)
K1B K 0.72722(8) 0.65068(7) -0.029055(15)
K1A K -0.27278(8) -0.15068(7) 0.470945(15)
K1B_2 K -0.27278(8) -0.34932(7) -0.029055(15)
K1B_3 K -0.27278(8) 0.65068(7) -0.029055(15)
K2A K 0.35285(7) 0.76976(6) 0.113410(15)
K2A_2 K 0.35285(7) -0.23024(6) 0.113410(15)
K2A_3 K -0.64715(7) -0.23024(6) 0.113410(15)
K2C K -0.35285(7) 0.23024(6) -0.113410(15)
O1A O -0.2641(2) 0.6186(2) 0.36094(6)
O2A O -0.1514(3) -0.0633(2) 0.37516(5)
S2A S -0.85227(8) 0.35190(7) 0.374807(18)
S2A_2 S 0.14773(8) 0.35190(7) 0.374807(18)
S3B S 0.33419(9) -0.00830(7) -0.042307(16)
S3A S -0.66581(9) 0.50830(7) 0.457693(16)
O3B O 0.3413(3) 0.4915(2) -0.05997(6)
O3A O -0.6587(3) 0.0085(2) 0.44003(6)
H5B H 0.273(5) 0.582(5) -0.0663(10)
H5A H -0.727(5) -0.082(5) 0.4337(10)
H6B H 0.287(5) 0.411(5) -0.0736(10)
H6A H -0.713(5) 0.089(5) 0.4264(10)
O4B O 0.1253(3) 0.7116(3) 0.02852(6)
O4C O -0.1253(3) 0.2116(3) 0.47148(6)
H7B H 0.173(5) 0.789(5) 0.0099(11)
H7C H -0.173(5) 0.289(5) 0.4901(11)
H8B H 0.032(5) 0.772(5) 0.0395(11)
H8C H -0.032(5) 0.272(5) 0.4605(11)
loop_
_geom_bond_atom_site_label_1
_geom_bond_atom_site_label_2
_geom_bond_site_symmetry_1
_geom_bond_site_symmetry_2
K1 O2 1_555 1_555
K2 F1 1_555 1_555
F1 C4 1_555 1_555
C1 C2 1_555 1_555
C2 H1 1_555 1_555
C3 C2 1_555 1_555
H2 C3 1_555 1_555
C4 C3 1_555 1_555
C5 C4 1_555 1_555
H3 C5 1_555 1_555
C6 C1 1_555 1_555
H4 C6 1_555 1_555
S1 C1 1_555 1_555
O1 S1 1_555 1_555
O2 S1 1_555 1_555
N1 K1 1_555 1_555
C7 N1 1_555 1_555
S2 C7 1_555 1_555
S3 C7 1_555 1_555
O3 K1 1_555 1_555
H5 O3 1_555 1_555
H6 O3 1_555 1_555
O4 K1 1_555 1_555
H7 O4 1_555 1_555
H8 O4 1_555 1_555
K1B O3 1_555 1_555
K1A O2A 1_555 1_555
K1B_2 S3 1_555 1_555
K1B_3 O4 1_555 1_555
K2A O2 1_555 1_555
K2A_2 O1 1_555 1_555
K2A_3 S2 1_555 1_555
K2C O4 1_555 1_555
O1A K2 1_555 1_555
O2A K2 1_555 1_555
S2A K2 1_555 1_555
S2A_2 K2 1_555 1_555
S3B K1 1_555 1_555
S3A K2 1_555 1_555
O3B K1 1_555 1_555
O3A K2 1_555 1_555
H5B O3B 1_555 1_555
H5A O3A 1_555 1_555
H6B O3B 1_555 1_555
H6A O3A 1_555 1_555
O4B K1 1_555 1_555
O4C K2 1_555 1_555
H7B O4B 1_555 1_555
H7C O4C 1_555 1_555
H8B O4B 1_555 1_555
H8C O4C 1_555 1_555
C5 C6 1_555 1_555
S1 N1 1_555 1_555
S2 K2A_2 1_555 1_555
S3 K2A_3 1_555 1_555
O3 K2A 1_555 1_555
K1B O3B 1_555 1_555
K1A O3A 1_555 1_555
K1A O4C 1_555 1_555
K1B_3 O4B 1_555 1_555
K2A O4B 1_555 1_555

#END
