
#######################################################################
#
#                 Cambridge Crystallographic Data Centre
#                                CCDC 
#
#######################################################################
#
# If this CIF has been generated from an entry in the Cambridge 
# Structural Database, then it will include bibliographic, chemical, 
# crystal, experimental, refinement or atomic coordinate data resulting 
# from the CCDC's data processing and validation procedures.
#
#######################################################################

data_KIYCIG
_symmetry_cell_setting           monoclinic
_symmetry_space_group_name_H-M   'C 2/c'
_symmetry_Int_Tables_number      15
_space_group_name_Hall           '-C 2yn'
loop_
_symmetry_equiv_pos_site_id
_symmetry_equiv_pos_as_xyz
1 x,y,z
2 -x,y,1/2-z
3 1/2+x,1/2+y,z
4 1/2-x,1/2+y,1/2-z
5 -x,-y,-z
6 x,-y,1/2+z
7 1/2-x,1/2-y,-z
8 1/2+x,1/2-y,1/2+z
_cell_length_a                   11.2319(9)
_cell_length_b                   17.0040(13)
_cell_length_c                   33.097(3)
_cell_angle_alpha                90
_cell_angle_beta                 95.524(6)
_cell_angle_gamma                90
_cell_volume                     6291.75
loop_
_atom_site_label
_atom_site_type_symbol
_atom_site_fract_x
_atom_site_fract_y
_atom_site_fract_z
Co1 Co 0.16011(4) 0.20226(3) 0.026136(14)
Co2 Co -0.02878(4) 0.11357(3) 0.085987(14)
O1 O -0.0552(2) 0.17075(16) 0.14295(7)
O2 O 0.0217(2) 0.05165(16) 0.14374(7)
O3 O 0.1472(2) 0.09312(15) 0.00745(7)
O4 O 0.0265(2) 0.03147(15) 0.04812(7)
O5 O 0.5206(2) -0.22848(16) 0.02305(8)
O6 O 0.3862(2) -0.29747(16) 0.05452(7)
N1 N -0.8624(7) -0.4686(4) 0.2186(2)
N2 N -0.7378(3) -0.1067(2) 0.14264(9)
N3 N -0.1967(3) 0.05572(19) 0.08757(9)
N4 N 0.1480(3) 0.1652(2) 0.08685(9)
N5 N 0.1863(3) 0.2049(2) 0.11472(10)
N6 N 0.2213(4) 0.2470(3) 0.14144(12)
N7 N 0.3166(3) 0.26040(19) 0.03612(9)
N8 N 0.3980(3) 0.25078(19) 0.06236(10)
N9 N 0.4772(3) 0.2430(2) 0.08688(11)
C1 C -0.8549(7) -0.4011(4) 0.2210(2)
C2 C -0.8422(5) -0.3161(4) 0.22411(16)
C3 C -0.8558(4) -0.2686(3) 0.18940(14)
H1 H -0.8754 -0.2919 0.1642
C4 C -0.8162(5) -0.2811(4) 0.26146(16)
H2 H -0.8083 -0.3120 0.2848
C5 C -0.8019(5) -0.2010(4) 0.26459(15)
H3 H -0.7843 -0.1781 0.2900
C6 C -0.8135(4) -0.1535(3) 0.22964(14)
H4 H -0.8031 -0.0993 0.2317
C7 C -0.8411(4) -0.1888(3) 0.19155(12)
C8 C -0.8547(4) -0.1390(3) 0.15336(12)
H5 H -0.8901 -0.1706 0.1310
H6 H -0.9087 -0.0957 0.1572
C9 C -0.7347(4) -0.0324(3) 0.12893(12)
H7 H -0.8033 -0.0015 0.1278
C10 C -0.6402(4) -0.1531(3) 0.14331(12)
H8 H -0.6447 -0.2050 0.1518
C11 C -0.5341(4) -0.1245(2) 0.13165(11)
H9 H -0.4671 -0.1568 0.1329
C12 C -0.6308(3) -0.0019(3) 0.11664(13)
H10 H -0.6297 0.0497 0.1073
C13 C -0.5268(3) -0.0470(2) 0.11790(11)
C14 C -0.4139(3) -0.0129(2) 0.10593(11)
C15 C -0.3986(4) 0.0680(3) 0.10474(12)
H11 H -0.4609 0.1012 0.1101
C16 C -0.3176(4) -0.0586(3) 0.09581(13)
H12 H -0.3238 -0.1131 0.0949
C17 C -0.2131(4) -0.0223(3) 0.08718(12)
H13 H -0.1502 -0.0539 0.0807
C18 C -0.2914(3) 0.0991(2) 0.09566(12)
H14 H -0.2840 0.1536 0.0951
C19 C -0.0138(3) 0.1115(2) 0.16221(11)
C20 C -0.0065(3) 0.1119(2) 0.20778(11)
C21 C -0.0026(4) 0.0414(2) 0.22879(11)
H15 H -0.0034 -0.0060 0.2147
C22 C -0.0046(4) 0.1827(2) 0.22894(11)
H16 H -0.0095 0.2301 0.2148
C23 C 0.1139(3) 0.0337(2) 0.02680(10)
C24 C 0.1867(3) -0.0388(2) 0.02484(10)
C25 C 0.3000(3) -0.0348(2) 0.01102(11)
H17 H 0.3257 0.0117 -0.0002
C26 C 0.1467(3) -0.1097(2) 0.04015(11)
H18 H 0.0700 -0.1131 0.0484
C27 C 0.2206(3) -0.1745(2) 0.04298(11)
H19 H 0.1937 -0.2217 0.0531
C28 C 0.3747(3) -0.1001(2) 0.01391(11)
H20 H 0.4502 -0.0974 0.0047
C29 C 0.3359(3) -0.1695(2) 0.03070(10)
C30 C 0.4200(3) -0.2376(2) 0.03665(11)
O1A O 0.0552(2) 0.17075(16) 0.35705(7)
O2A O -0.0217(2) 0.05165(16) 0.35626(7)
C19A C 0.0138(3) 0.1115(2) 0.33779(11)
C20A C 0.0065(3) 0.1119(2) 0.29222(11)
C21A C 0.0026(4) 0.0414(2) 0.27121(11)
H15A H 0.0034 -0.0060 0.2853
C22A C 0.0046(4) 0.1827(2) 0.27106(11)
H16A H 0.0095 0.2301 0.2852
Co1A Co -0.16011(4) 0.20226(3) 0.473864(14)
Co2A Co 0.02878(4) 0.11357(3) 0.414013(14)
O3A O -0.1472(2) 0.09312(15) 0.49255(7)
O4A O -0.0265(2) 0.03147(15) 0.45188(7)
O5A O -0.5206(2) -0.22848(16) 0.47695(8)
O6A O -0.3862(2) -0.29747(16) 0.44548(7)
N1A N 0.8624(7) -0.4686(4) 0.2814(2)
N2A N 0.7378(3) -0.1067(2) 0.35736(9)
N3A N 0.1967(3) 0.05572(19) 0.41243(9)
N4A N -0.1480(3) 0.1652(2) 0.41315(9)
N5A N -0.1863(3) 0.2049(2) 0.38528(10)
N6A N -0.2213(4) 0.2470(3) 0.35856(12)
N7A N -0.3166(3) 0.26040(19) 0.46388(9)
N8A N -0.3980(3) 0.25078(19) 0.43764(10)
N9A N -0.4772(3) 0.2430(2) 0.41312(11)
C1A C 0.8549(7) -0.4011(4) 0.2790(2)
C2A C 0.8422(5) -0.3161(4) 0.27589(16)
C3A C 0.8558(4) -0.2686(3) 0.31060(14)
H1A H 0.8754 -0.2919 0.3358
C4A C 0.8162(5) -0.2811(4) 0.23854(16)
H2A H 0.8083 -0.3120 0.2152
C5A C 0.8019(5) -0.2010(4) 0.23541(15)
H3A H 0.7843 -0.1781 0.2100
C6A C 0.8135(4) -0.1535(3) 0.27036(14)
H4A H 0.8031 -0.0993 0.2683
C7A C 0.8411(4) -0.1888(3) 0.30845(12)
C8A C 0.8547(4) -0.1390(3) 0.34664(12)
H5A H 0.8901 -0.1706 0.3690
H6A H 0.9087 -0.0957 0.3428
C9A C 0.7347(4) -0.0324(3) 0.37107(12)
H7A H 0.8033 -0.0015 0.3722
C10A C 0.6402(4) -0.1531(3) 0.35669(12)
H8A H 0.6447 -0.2050 0.3482
C11A C 0.5341(4) -0.1245(2) 0.36835(11)
H9A H 0.4671 -0.1568 0.3671
C12A C 0.6308(3) -0.0019(3) 0.38336(13)
H10A H 0.6297 0.0497 0.3927
C13A C 0.5268(3) -0.0470(2) 0.38210(11)
C14A C 0.4139(3) -0.0129(2) 0.39407(11)
C15A C 0.3986(4) 0.0680(3) 0.39526(12)
H11A H 0.4609 0.1012 0.3899
C16A C 0.3176(4) -0.0586(3) 0.40419(13)
H12A H 0.3238 -0.1131 0.4051
C17A C 0.2131(4) -0.0223(3) 0.41282(12)
H13A H 0.1502 -0.0539 0.4193
C18A C 0.2914(3) 0.0991(2) 0.40434(12)
H14A H 0.2840 0.1536 0.4049
C23A C -0.1139(3) 0.0337(2) 0.47320(10)
C24A C -0.1867(3) -0.0388(2) 0.47516(10)
C25A C -0.3000(3) -0.0348(2) 0.48898(11)
H17A H -0.3257 0.0117 0.5002
C26A C -0.1467(3) -0.1097(2) 0.45985(11)
H18A H -0.0700 -0.1131 0.4516
C27A C -0.2206(3) -0.1745(2) 0.45702(11)
H19A H -0.1937 -0.2217 0.4469
C28A C -0.3747(3) -0.1001(2) 0.48609(11)
H20A H -0.4502 -0.0974 0.4953
C29A C -0.3359(3) -0.1695(2) 0.46930(10)
C30A C -0.4200(3) -0.2376(2) 0.46335(11)
Co1B Co 0.66011(4) -0.29774(3) 0.026136(14)
Co1C Co -0.66011(4) -0.29774(3) 0.473864(14)
Co1F Co 0.33989(4) 0.29774(3) -0.026136(14)
Co1G Co -0.33989(4) 0.29774(3) 0.526136(14)
Co2B Co 0.47122(4) -0.38643(3) 0.085987(14)
Co2C Co -0.47122(4) -0.38643(3) 0.414013(14)
O5B O 0.0206(2) 0.27152(16) 0.02305(8)
O5C O -0.0206(2) 0.27152(16) 0.47695(8)
O6B O -0.1138(2) 0.20253(16) 0.05452(7)
O6C O 0.1138(2) 0.20253(16) 0.44548(7)
N7F N 0.1834(3) 0.23960(19) -0.03612(9)
N7G N -0.1834(3) 0.23960(19) 0.53612(9)
O7 O 0.0000 0.3935(6) 0.2500
loop_
_geom_bond_atom_site_label_1
_geom_bond_atom_site_label_2
_geom_bond_site_symmetry_1
_geom_bond_site_symmetry_2
Co1 O3 1_555 1_555
Co2 O1 1_555 1_555
O1 C19 1_555 1_555
O2 Co2 1_555 1_555
O3 C23 1_555 1_555
O4 Co2 1_555 1_555
O5 C30 1_555 1_555
O6 C30 1_555 1_555
N1 C1 1_555 1_555
N2 C8 1_555 1_555
N3 Co2 1_555 1_555
N4 Co1 1_555 1_555
N5 N4 1_555 1_555
N6 N5 1_555 1_555
N7 Co1 1_555 1_555
N8 N7 1_555 1_555
N9 N8 1_555 1_555
C1 C2 1_555 1_555
C2 C3 1_555 1_555
C3 H1 1_555 1_555
C4 C2 1_555 1_555
H2 C4 1_555 1_555
C5 C4 1_555 1_555
H3 C5 1_555 1_555
C6 C5 1_555 1_555
H4 C6 1_555 1_555
C7 C3 1_555 1_555
C8 C7 1_555 1_555
H5 C8 1_555 1_555
H6 C8 1_555 1_555
C9 N2 1_555 1_555
H7 C9 1_555 1_555
C10 N2 1_555 1_555
H8 C10 1_555 1_555
C11 C10 1_555 1_555
H9 C11 1_555 1_555
C12 C9 1_555 1_555
H10 C12 1_555 1_555
C13 C11 1_555 1_555
C14 C13 1_555 1_555
C15 C14 1_555 1_555
H11 C15 1_555 1_555
C16 C14 1_555 1_555
H12 C16 1_555 1_555
C17 N3 1_555 1_555
H13 C17 1_555 1_555
C18 N3 1_555 1_555
H14 C18 1_555 1_555
C19 O2 1_555 1_555
C20 C19 1_555 1_555
C21 C20 1_555 1_555
H15 C21 1_555 1_555
C22 C20 1_555 1_555
H16 C22 1_555 1_555
C23 O4 1_555 1_555
C24 C23 1_555 1_555
C25 C24 1_555 1_555
H17 C25 1_555 1_555
C26 C24 1_555 1_555
H18 C26 1_555 1_555
C27 C26 1_555 1_555
H19 C27 1_555 1_555
C28 C25 1_555 1_555
H20 C28 1_555 1_555
C29 C27 1_555 1_555
C30 C29 1_555 1_555
O1A C19A 1_555 1_555
O2A C19A 1_555 1_555
C19A C20A 1_555 1_555
C20A C21A 1_555 1_555
C21A C21 1_555 1_555
H15A C21A 1_555 1_555
C22A C22 1_555 1_555
H16A C22A 1_555 1_555
Co1A O3A 1_555 1_555
Co2A O1A 1_555 1_555
O3A C23A 1_555 1_555
O4A Co2A 1_555 1_555
O5A C30A 1_555 1_555
O6A C30A 1_555 1_555
N1A C1A 1_555 1_555
N2A C8A 1_555 1_555
N3A Co2A 1_555 1_555
N4A Co1A 1_555 1_555
N5A N4A 1_555 1_555
N6A N5A 1_555 1_555
N7A Co1A 1_555 1_555
N8A N7A 1_555 1_555
N9A N8A 1_555 1_555
C1A C2A 1_555 1_555
C2A C3A 1_555 1_555
C3A H1A 1_555 1_555
C4A C2A 1_555 1_555
H2A C4A 1_555 1_555
C5A C4A 1_555 1_555
H3A C5A 1_555 1_555
C6A C5A 1_555 1_555
H4A C6A 1_555 1_555
C7A C3A 1_555 1_555
C8A C7A 1_555 1_555
H5A C8A 1_555 1_555
H6A C8A 1_555 1_555
C9A N2A 1_555 1_555
H7A C9A 1_555 1_555
C10A N2A 1_555 1_555
H8A C10A 1_555 1_555
C11A C10A 1_555 1_555
H9A C11A 1_555 1_555
C12A C9A 1_555 1_555
H10A C12A 1_555 1_555
C13A C11A 1_555 1_555
C14A C13A 1_555 1_555
C15A C14A 1_555 1_555
H11A C15A 1_555 1_555
C16A C14A 1_555 1_555
H12A C16A 1_555 1_555
C17A N3A 1_555 1_555
H13A C17A 1_555 1_555
C18A N3A 1_555 1_555
H14A C18A 1_555 1_555
C23A O4A 1_555 1_555
C24A C23A 1_555 1_555
C25A C24A 1_555 1_555
H17A C25A 1_555 1_555
C26A C24A 1_555 1_555
H18A C26A 1_555 1_555
C27A C26A 1_555 1_555
H19A C27A 1_555 1_555
C28A C25A 1_555 1_555
H20A C28A 1_555 1_555
C29A C27A 1_555 1_555
C30A C29A 1_555 1_555
Co1B O5 1_555 1_555
Co1C O5A 1_555 1_555
Co1F N7 1_555 1_555
Co1G N7A 1_555 1_555
Co2B O6 1_555 1_555
Co2C O6A 1_555 1_555
O5B Co1 1_555 1_555
O5C Co1A 1_555 1_555
O6B Co2 1_555 1_555
O6C Co2A 1_555 1_555
N7F Co1 1_555 1_555
N7G Co1A 1_555 1_555
Co2 N4 1_555 1_555
C6 C7 1_555 1_555
C12 C13 1_555 1_555
C15 C18 1_555 1_555
C16 C17 1_555 1_555
C28 C29 1_555 1_555
O2A Co2A 1_555 1_555
C20A C22A 1_555 1_555
Co2A N4A 1_555 1_555
C6A C7A 1_555 1_555
C12A C13A 1_555 1_555
C15A C18A 1_555 1_555
C16A C17A 1_555 1_555
C28A C29A 1_555 1_555
Co1F N7F 1_555 1_555
Co1G N7G 1_555 1_555

#END
