
#######################################################################
#
#                 Cambridge Crystallographic Data Centre
#                                CCDC 
#
#######################################################################
#
# If this CIF has been generated from an entry in the Cambridge 
# Structural Database, then it will include bibliographic, chemical, 
# crystal, experimental, refinement or atomic coordinate data resulting 
# from the CCDC's data processing and validation procedures.
#
#######################################################################

data_KIYHUX
_symmetry_cell_setting           triclinic
_symmetry_space_group_name_H-M   'P -1'
_symmetry_Int_Tables_number      2
_space_group_name_Hall           '-P 1'
loop_
_symmetry_equiv_pos_site_id
_symmetry_equiv_pos_as_xyz
1 x,y,z
2 -x,-y,-z
_cell_length_a                   8.1702(4)
_cell_length_b                   15.7344(13)
_cell_length_c                   22.5501(15)
_cell_angle_alpha                91.459(6)
_cell_angle_beta                 93.380(5)
_cell_angle_gamma                93.366(5)
_cell_volume                     2887.64
loop_
_atom_site_label
_atom_site_type_symbol
_atom_site_fract_x
_atom_site_fract_y
_atom_site_fract_z
Co1 Co -0.35648(10) -0.46860(6) 0.23573(4)
Co2 Co 0.29246(10) -0.16883(6) -0.02603(4)
Co3 Co 0.81562(9) 0.09031(5) 0.43345(3)
O1 O -0.4614(6) -0.3938(4) 0.1753(2)
O2 O -0.2495(6) -0.4495(3) 0.1436(2)
O3 O 0.2041(6) -0.2823(3) -0.0017(2)
O4 O 0.1596(5) -0.2809(3) -0.0976(2)
O5 O 1.5152(6) 0.5443(3) 0.3089(2)
O6 O 1.3632(9) 0.4651(5) 0.2450(3)
O7 O 0.9286(5) 0.2135(3) 0.44915(18)
O8 O 0.8270(6) 0.2412(3) 0.5366(2)
O9 O 0.8491(7) 0.0752(4) 0.0404(2)
O10 O 0.7900(7) 0.0826(4) 0.1310(3)
O11 O 0.9086(5) 0.0845(3) 0.34453(18)
O12 O 1.0474(5) 0.0324(3) 0.42011(19)
O13 O 0.7701(5) 0.0783(3) 0.52099(18)
N1 N -0.1567(6) -0.3934(3) 0.2721(2)
N2 N 0.0677(5) -0.3093(3) 0.2898(2)
N3 N 0.3671(6) -0.1309(3) 0.0592(2)
N4 N 0.3768(5) -0.1351(3) 0.15663(19)
N5 N 0.7081(6) -0.0360(3) 0.4140(2)
N6 N 0.5511(6) -0.1341(3) 0.3628(2)
N7 N -0.2604(6) -0.5849(3) 0.2490(2)
N8 N -0.0691(6) -0.6754(4) 0.2614(2)
N9 N 0.4952(6) -0.8209(3) 0.0669(2)
N10 N 0.3306(6) -0.7947(3) 0.1367(2)
N11 N 0.5966(5) -0.8555(3) 0.4071(2)
N12 N 0.3992(5) -0.8063(3) 0.3513(2)
C1 C -0.3214(9) -0.3751(5) 0.0254(4)
C2 C -0.1557(8) -0.3796(4) 0.0158(3)
H1 H -0.0779 -0.3659 0.0469
C3 C -0.1043(8) -0.4041(4) -0.0391(3)
C4 C -0.2176(12) -0.4232(5) -0.0840(4)
H2 H -0.1839 -0.4387 -0.1213
C5 C -0.3791(12) -0.4203(6) -0.0756(5)
H3 H -0.4555 -0.4351 -0.1069
C6 C -0.4327(11) -0.3958(6) -0.0214(5)
H4 H -0.5446 -0.3932 -0.0165
C7 C -0.3771(11) -0.3447(5) 0.0834(4)
H5 H -0.4921 -0.3332 0.0774
H6 H -0.3175 -0.2907 0.0936
C8 C -0.3606(8) -0.4004(5) 0.1370(3)
C9 C 0.0747(9) -0.4068(4) -0.0479(3)
H7 H 0.0903 -0.4378 -0.0847
H8 H 0.1275 -0.4363 -0.0155
C10 C 0.1517(8) -0.3180(5) -0.0504(3)
C11 C 1.2407(9) 0.4613(5) 0.3880(4)
C12 C 1.0950(8) 0.4334(4) 0.4098(3)
H9 H 0.9978 0.4465 0.3895
C13 C 1.0856(9) 0.3862(4) 0.4610(3)
C14 C 1.2277(12) 0.3666(7) 0.4905(4)
H10 H 1.2250 0.3336 0.5241
C15 C 1.3786(10) 0.3969(8) 0.4699(5)
H11 H 1.4765 0.3848 0.4902
C16 C 1.3812(11) 0.4445(6) 0.4192(4)
H12 H 1.4815 0.4655 0.4064
C17 C 1.2442(9) 0.5151(6) 0.3339(4)
H13 H 1.1411 0.5034 0.3107
H14 H 1.2477 0.5743 0.3472
C18 C 1.3769(10) 0.5056(6) 0.2941(4)
C19 C 0.9193(9) 0.3581(4) 0.4813(3)
H15 H 0.8362 0.3751 0.4521
H16 H 0.9031 0.3881 0.5184
C20 C 0.8925(7) 0.2638(4) 0.4903(3)
C21 C 0.9688(8) -0.0546(4) 0.1641(3)
C22 C 1.0531(7) -0.0148(4) 0.2124(3)
H17 H 1.1233 0.0326 0.2066
C23 C 1.0368(7) -0.0430(4) 0.2700(3)
C24 C 0.9346(8) -0.1126(4) 0.2776(3)
H18 H 0.9212 -0.1324 0.3156
C25 C 0.8507(8) -0.1539(5) 0.2295(4)
H19 H 0.7829 -0.2021 0.2354
C26 C 0.8650(8) -0.1254(5) 0.1727(4)
H20 H 0.8059 -0.1532 0.1407
C27 C 0.9811(10) -0.0182(5) 0.1043(3)
H21 H 0.9588 -0.0635 0.0744
H22 H 1.0926 0.0049 0.1005
C28 C 0.8620(8) 0.0523(4) 0.0920(3)
C29 C 1.1337(8) 0.0014(5) 0.3222(3)
H23 H 1.2091 0.0449 0.3075
H24 H 1.1984 -0.0396 0.3430
C30 C 1.0245(7) 0.0422(4) 0.3652(3)
C31 C 0.2088(7) -0.2554(4) 0.2794(2)
C32 C 0.2269(6) -0.2250(4) 0.2232(2)
H25 H 0.1539 -0.2437 0.1917
C33 C 0.3546(6) -0.1667(3) 0.2143(2)
C34 C 0.4605(7) -0.1366(4) 0.2603(3)
H26 H 0.5442 -0.0958 0.2541
C35 C 0.4407(6) -0.1679(4) 0.3159(2)
C36 C 0.3147(7) -0.2271(4) 0.3263(3)
H27 H 0.3017 -0.2473 0.3642
C37 C -0.0245(7) -0.3577(4) 0.2488(3)
H28 H 0.0011 -0.3652 0.2095
C38 C -0.0099(8) -0.3137(4) 0.3421(3)
H29 H 0.0244 -0.2868 0.3783
C39 C -0.1472(8) -0.3654(4) 0.3300(3)
H30 H -0.2242 -0.3797 0.3574
C40 C 0.3286(7) -0.1758(4) 0.1057(3)
H31 H 0.2743 -0.2295 0.1031
C41 C 0.4520(8) -0.0583(4) 0.1424(3)
H32 H 0.4984 -0.0158 0.1687
C42 C 0.4444(8) -0.0573(4) 0.0824(3)
H33 H 0.4860 -0.0129 0.0602
C43 C 0.5947(7) -0.0507(4) 0.3712(3)
H34 H 0.5488 -0.0081 0.3490
C44 C 0.6442(8) -0.1746(5) 0.4041(3)
H35 H 0.6419 -0.2330 0.4098
C45 C 0.7403(8) -0.1144(5) 0.4350(3)
H36 H 0.8166 -0.1246 0.4658
C46 C 0.0784(6) -0.7177(4) 0.2547(3)
C47 C 0.1299(7) -0.7348(4) 0.1980(3)
H37 H 0.0684 -0.7198 0.1642
C48 C 0.2753(6) -0.7747(4) 0.1935(3)
C49 C 0.3646(7) -0.7984(4) 0.2440(2)
H38 H 0.4613 -0.8260 0.2406
C50 C 0.3094(7) -0.7808(4) 0.2991(3)
C51 C 0.1659(7) -0.7397(4) 0.3058(3)
H39 H 0.1298 -0.7274 0.3432
C52 C -0.1205(8) -0.6108(5) 0.2321(3)
H40 H -0.0634 -0.5855 0.2020
C53 C -0.1798(8) -0.6923(5) 0.3046(3)
H41 H -0.1736 -0.7331 0.3337
C54 C -0.2978(9) -0.6371(5) 0.2956(4)
H42 H -0.3907 -0.6344 0.3173
C55 C 0.4864(7) -0.8019(4) 0.1231(3)
H43 H 0.5766 -0.7942 0.1503
C56 C 0.2344(7) -0.8094(4) 0.0862(3)
H44 H 0.1207 -0.8080 0.0819
C57 C 0.3389(8) -0.8270(4) 0.0425(3)
H45 H 0.3078 -0.8407 0.0029
C58 C 0.5492(7) -0.8352(4) 0.3537(3)
H46 H 0.6124 -0.8402 0.3209
C59 C 0.4702(9) -0.8434(7) 0.4409(3)
H47 H 0.4690 -0.8535 0.4813
C60 C 0.3448(9) -0.8143(6) 0.4071(3)
H48 H 0.2418 -0.8022 0.4194
H49 H 0.7647 0.1256 0.5378
H50 H 0.7810 0.0308 0.5443
Co1_2 Co 1.64352(10) 0.53140(6) 0.23573(4)
Co2A Co 0.70754(10) -0.83117(6) 0.02603(4)
Co2A_2 Co 0.70754(10) 0.16883(6) 0.02603(4)
Co3_2 Co 0.81562(9) -0.90969(5) 0.43345(3)
O5_2 O -0.4848(6) -0.4557(3) 0.3089(2)
O9A O 0.1509(7) -0.0752(4) -0.0404(2)
N9A N 0.5048(6) -0.1791(3) -0.0669(2)
N11_2 N 0.5966(5) 0.1445(3) 0.4071(2)
O14 O 0.3099(5) -0.0725(3) -0.2422(2)
O15 O -0.7947(7) -0.3772(3) 0.1347(2)
loop_
_geom_bond_atom_site_label_1
_geom_bond_atom_site_label_2
_geom_bond_site_symmetry_1
_geom_bond_site_symmetry_2
Co1 O1 1_555 1_555
Co2 O3 1_555 1_555
Co3 O7 1_555 1_555
O1 C8 1_555 1_555
O2 Co1 1_555 1_555
O3 C10 1_555 1_555
O4 C10 1_555 1_555
O5 C18 1_555 1_555
O6 C18 1_555 1_555
O7 C20 1_555 1_555
O8 C20 1_555 1_555
O9 C28 1_555 1_555
O10 C28 1_555 1_555
O11 Co3 1_555 1_555
O12 Co3 1_555 1_555
O13 Co3 1_555 1_555
N1 Co1 1_555 1_555
N2 C31 1_555 1_555
N3 Co2 1_555 1_555
N4 C33 1_555 1_555
N5 Co3 1_555 1_555
N6 C35 1_555 1_555
N7 Co1 1_555 1_555
N8 C46 1_555 1_555
N9 C55 1_555 1_555
N10 C48 1_555 1_555
N11 C58 1_555 1_555
N12 C50 1_555 1_555
C1 C2 1_555 1_555
C2 H1 1_555 1_555
C3 C2 1_555 1_555
C4 C3 1_555 1_555
H2 C4 1_555 1_555
C5 C4 1_555 1_555
H3 C5 1_555 1_555
C6 C1 1_555 1_555
H4 C6 1_555 1_555
C7 C1 1_555 1_555
H5 C7 1_555 1_555
H6 C7 1_555 1_555
C8 O2 1_555 1_555
C9 C3 1_555 1_555
H7 C9 1_555 1_555
H8 C9 1_555 1_555
C10 C9 1_555 1_555
C11 C12 1_555 1_555
C12 H9 1_555 1_555
C13 C12 1_555 1_555
C14 C13 1_555 1_555
H10 C14 1_555 1_555
C15 C14 1_555 1_555
H11 C15 1_555 1_555
C16 C11 1_555 1_555
H12 C16 1_555 1_555
C17 C11 1_555 1_555
H13 C17 1_555 1_555
H14 C17 1_555 1_555
C18 C17 1_555 1_555
C19 C13 1_555 1_555
H15 C19 1_555 1_555
H16 C19 1_555 1_555
C20 C19 1_555 1_555
C21 C22 1_555 1_555
C22 H17 1_555 1_555
C23 C22 1_555 1_555
C24 C23 1_555 1_555
H18 C24 1_555 1_555
C25 C24 1_555 1_555
H19 C25 1_555 1_555
C26 C21 1_555 1_555
H20 C26 1_555 1_555
C27 C21 1_555 1_555
H21 C27 1_555 1_555
H22 C27 1_555 1_555
C28 C27 1_555 1_555
C29 C23 1_555 1_555
H23 C29 1_555 1_555
H24 C29 1_555 1_555
C30 O11 1_555 1_555
C31 C32 1_555 1_555
C32 H25 1_555 1_555
C33 C32 1_555 1_555
C34 C33 1_555 1_555
H26 C34 1_555 1_555
C35 C34 1_555 1_555
C36 C31 1_555 1_555
H27 C36 1_555 1_555
C37 N1 1_555 1_555
H28 C37 1_555 1_555
C38 N2 1_555 1_555
H29 C38 1_555 1_555
C39 N1 1_555 1_555
H30 C39 1_555 1_555
C40 N3 1_555 1_555
H31 C40 1_555 1_555
C41 N4 1_555 1_555
H32 C41 1_555 1_555
C42 N3 1_555 1_555
H33 C42 1_555 1_555
C43 N5 1_555 1_555
H34 C43 1_555 1_555
C44 N6 1_555 1_555
H35 C44 1_555 1_555
C45 N5 1_555 1_555
H36 C45 1_555 1_555
C46 C47 1_555 1_555
C47 H37 1_555 1_555
C48 C47 1_555 1_555
C49 C48 1_555 1_555
H38 C49 1_555 1_555
C50 C49 1_555 1_555
C51 C46 1_555 1_555
H39 C51 1_555 1_555
C52 N7 1_555 1_555
H40 C52 1_555 1_555
C53 N8 1_555 1_555
H41 C53 1_555 1_555
C54 N7 1_555 1_555
H42 C54 1_555 1_555
C55 N10 1_555 1_555
H43 C55 1_555 1_555
C56 N10 1_555 1_555
H44 C56 1_555 1_555
C57 N9 1_555 1_555
H45 C57 1_555 1_555
C58 N12 1_555 1_555
H46 C58 1_555 1_555
C59 N11 1_555 1_555
H47 C59 1_555 1_555
C60 N12 1_555 1_555
H48 C60 1_555 1_555
H49 O13 1_555 1_555
H50 O13 1_555 1_555
Co1_2 O5 1_555 1_555
Co2A N9 1_555 1_555
Co2A_2 O9 1_555 1_555
Co3_2 N11 1_555 1_555
O5_2 Co1 1_555 1_555
O9A Co2 1_555 1_555
N9A Co2 1_555 1_555
N11_2 Co3 1_555 1_555
O12 C30 1_555 1_555
N2 C37 1_555 1_555
N4 C40 1_555 1_555
N6 C43 1_555 1_555
N8 C52 1_555 1_555
C5 C6 1_555 1_555
C7 C8 1_555 1_555
C15 C16 1_555 1_555
C25 C26 1_555 1_555
C29 C30 1_555 1_555
C35 C36 1_555 1_555
C38 C39 1_555 1_555
C41 C42 1_555 1_555
C44 C45 1_555 1_555
C50 C51 1_555 1_555
C53 C54 1_555 1_555
C56 C57 1_555 1_555
C59 C60 1_555 1_555

#END
