
#######################################################################
#
#                 Cambridge Crystallographic Data Centre
#                                CCDC 
#
#######################################################################
#
# If this CIF has been generated from an entry in the Cambridge 
# Structural Database, then it will include bibliographic, chemical, 
# crystal, experimental, refinement or atomic coordinate data resulting 
# from the CCDC's data processing and validation procedures.
#
#######################################################################

data_KIYLIP
_symmetry_cell_setting           triclinic
_symmetry_space_group_name_H-M   'P -1'
_symmetry_Int_Tables_number      2
_space_group_name_Hall           '-P 1'
loop_
_symmetry_equiv_pos_site_id
_symmetry_equiv_pos_as_xyz
1 x,y,z
2 -x,-y,-z
_cell_length_a                   10.801(2)
_cell_length_b                   12.105(2)
_cell_length_c                   12.156(3)
_cell_angle_alpha                60.239(3)
_cell_angle_beta                 83.089(5)
_cell_angle_gamma                78.436(3)
_cell_volume                     1351.31
loop_
_atom_site_label
_atom_site_type_symbol
_atom_site_fract_x
_atom_site_fract_y
_atom_site_fract_z
Cd1 Cd 0.28703(2) 0.49132(2) 0.93516(2)
C1 C 0.1496(3) 0.2694(3) 0.7831(3)
C2 C 0.1738(4) 0.1651(4) 0.7612(4)
H1 H 0.1186 0.1528 0.7166
C3 C 0.2841(4) 0.0809(4) 0.8092(4)
H2 H 0.3043 0.0099 0.7960
C4 C 0.3667(4) 0.0980(4) 0.8769(4)
H3 H 0.4399 0.0381 0.9079
C5 C 0.3430(4) 0.2009(4) 0.8991(4)
H4 H 0.3985 0.2124 0.9440
C6 C 0.2313(3) 0.2878(4) 0.8508(3)
C7 C 0.0746(3) 0.4439(3) 0.8015(3)
H5 H 0.0219 0.5184 0.7933
C8 C -0.0594(3) 0.4004(3) 0.6815(3)
C9 C -0.1749(3) 0.4577(3) 0.7078(3)
H6 H -0.1853 0.4759 0.7746
C10 C -0.2739(3) 0.4870(3) 0.6309(3)
C11 C -0.2545(4) 0.4605(4) 0.5311(4)
H7 H -0.3224 0.4807 0.4804
C12 C -0.0477(4) 0.3770(4) 0.5799(4)
H8 H 0.0304 0.3381 0.5636
C13 C -0.4855(3) 0.6341(3) 0.5697(3)
C14 C -0.4797(4) 0.7136(4) 0.4391(4)
H9 H -0.4072 0.7080 0.3911
C15 C -0.5863(4) 0.8007(4) 0.3848(4)
H10 H -0.5861 0.8551 0.2976
C16 C -0.6946(4) 0.8105(4) 0.4556(4)
H11 H -0.7648 0.8711 0.4147
C17 C -0.7005(4) 0.7323(4) 0.5856(4)
H12 H -0.7728 0.7394 0.6332
C18 C -0.5935(3) 0.6425(3) 0.6420(3)
C19 C -0.4546(3) 0.4954(3) 0.7736(3)
H13 H -0.4153 0.4313 0.8480
C20 C 0.1536(4) 0.7035(3) 0.9358(3)
C21 C 0.0808(4) 0.8178(4) 0.9446(4)
C22 C 0.1205(4) 0.8562(4) 1.0191(4)
H14 H 0.1964 0.8087 1.0656
C23 C 0.0555(5) 0.9638(4) 1.0331(4)
C24 C 0.0884(7) 1.0037(7) 1.0989(7)
H15 H 0.1650 0.9582 1.1447
C25 C 0.0242(7) 1.1105(7) 1.1132(7)
H16 H 0.0583 1.1308 1.1664
C26 C 0.3703(6) 0.2907(4) 1.1593(5)
C27 C 0.4339(7) 0.1827(5) 1.2778(5)
C28 C 0.3743(8) 0.1286(6) 1.3887(5)
H17 H 0.2888 0.1575 1.3960
C29 C 0.4408(7) 0.0254(7) 1.4980(6)
C30 C 0.3944(10) -0.0415(7) 1.6055(7)
H18 H 0.3073 -0.0247 1.6168
C31 C 0.4615(10) -0.1360(7) 1.7059(9)
H19 H 0.4115 -0.1717 1.7790
N1 N 0.0478(3) 0.3712(3) 0.7539(3)
N2 N 0.1821(3) 0.3986(3) 0.8602(3)
N3 N -0.1426(3) 0.4073(3) 0.5044(3)
N4 N -0.3971(3) 0.5388(3) 0.6569(3)
N5 N -0.5712(3) 0.5536(3) 0.7698(3)
O1 O 0.1175(3) 0.6703(3) 0.8640(3)
O2 O 0.2495(3) 0.6420(3) 1.0010(2)
O3 O 0.2548(4) 0.3376(3) 1.1603(3)
O4 O 0.4374(4) 0.3316(3) 1.0619(3)
C20A C -0.1536(4) 1.2965(3) 1.0642(3)
C21A C -0.0808(4) 1.1822(4) 1.0554(4)
C22A C -0.1205(4) 1.1438(4) 0.9809(4)
H14A H -0.1964 1.1913 0.9344
C23A C -0.0555(5) 1.0362(4) 0.9669(4)
C24A C -0.0884(7) 0.9963(7) 0.9011(7)
H15A H -0.1650 1.0418 0.8553
C25A C -0.0242(7) 0.8895(7) 0.8868(7)
H16A H -0.0583 0.8692 0.8336
O1A O -0.1175(3) 1.3297(3) 1.1360(3)
O2A O -0.2495(3) 1.3580(3) 0.9990(2)
C26A C 0.6297(6) -0.2907(4) 1.8407(5)
C27A C 0.5661(7) -0.1827(5) 1.7222(5)
C28A C 0.6257(8) -0.1286(6) 1.6113(5)
H17A H 0.7112 -0.1575 1.6040
C29A C 0.5592(7) -0.0254(7) 1.5020(6)
C30A C 0.6056(10) 0.0415(7) 1.3945(7)
H18A H 0.6927 0.0247 1.3832
C31A C 0.5385(10) 0.1360(7) 1.2941(9)
H19A H 0.5885 0.1717 1.2210
O3A O 0.7452(4) -0.3376(3) 1.8397(3)
O4A O 0.5626(4) -0.3316(3) 1.9381(3)
Cd1A Cd -0.28703(2) 1.50868(2) 1.06484(2)
C1A C -0.1496(3) 1.7306(3) 1.2169(3)
C2A C -0.1738(4) 1.8349(4) 1.2388(4)
H1A H -0.1186 1.8472 1.2834
C3A C -0.2841(4) 1.9191(4) 1.1908(4)
H2A H -0.3043 1.9901 1.2040
C4A C -0.3667(4) 1.9020(4) 1.1231(4)
H3A H -0.4399 1.9619 1.0921
C5A C -0.3430(4) 1.7991(4) 1.1009(4)
H4A H -0.3985 1.7876 1.0560
C6A C -0.2313(3) 1.7122(4) 1.1492(3)
C7A C -0.0746(3) 1.5561(3) 1.1985(3)
H5A H -0.0219 1.4816 1.2067
C8A C 0.0594(3) 1.5996(3) 1.3185(3)
C9A C 0.1749(3) 1.5423(3) 1.2922(3)
H6A H 0.1853 1.5241 1.2254
C10A C 0.2739(3) 1.5130(3) 1.3691(3)
C11A C 0.2545(4) 1.5395(4) 1.4689(4)
H7A H 0.3224 1.5193 1.5196
C12A C 0.0477(4) 1.6230(4) 1.4201(4)
H8A H -0.0304 1.6619 1.4364
C13A C 0.4855(3) 1.3659(3) 1.4303(3)
C14A C 0.4797(4) 1.2864(4) 1.5609(4)
H9A H 0.4072 1.2920 1.6089
C15A C 0.5863(4) 1.1993(4) 1.6152(4)
H10A H 0.5861 1.1449 1.7024
C16A C 0.6946(4) 1.1895(4) 1.5444(4)
H11A H 0.7648 1.1289 1.5853
C17A C 0.7005(4) 1.2677(4) 1.4144(4)
H12A H 0.7728 1.2606 1.3668
C18A C 0.5935(3) 1.3575(3) 1.3580(3)
C19A C 0.4546(3) 1.5046(3) 1.2264(3)
H13A H 0.4153 1.5687 1.1520
N1A N -0.0478(3) 1.6288(3) 1.2461(3)
N2A N -0.1821(3) 1.6014(3) 1.1398(3)
N3A N 0.1426(3) 1.5927(3) 1.4956(3)
N4A N 0.3971(3) 1.4612(3) 1.3431(3)
N5A N 0.5712(3) 1.4464(3) 1.2302(3)
Cd1_2 Cd -0.71297(2) 0.49132(2) 0.93516(2)
Cd1A_2 Cd 0.71297(2) -0.49132(2) 2.06484(2)
Cd1A_3 Cd 0.71297(2) 1.50868(2) 1.06484(2)
N5_2 N 0.4288(3) 0.5536(3) 0.7698(3)
N5A_2 N -0.4288(3) 1.4464(3) 1.2302(3)
O3A_2 O -0.2548(4) 1.6624(3) 0.8397(3)
O4A_2 O -0.4374(4) 1.6684(3) 0.9381(3)
O5 O 0.9397(5) 0.7916(7) 0.6870(5)
H20 H 0.9125 0.7031 0.7170
H21 H 1.0191 0.7791 0.7337
O6 O 0.0413(6) 0.0733(6) 0.5820(6)
H22 H 0.0792 -0.0043 0.6198
H23 H 0.0174 0.1218 0.5044
loop_
_geom_bond_atom_site_label_1
_geom_bond_atom_site_label_2
_geom_bond_site_symmetry_1
_geom_bond_site_symmetry_2
Cd1 N2 1_555 1_555
C1 C2 1_555 1_555
C2 H1 1_555 1_555
C3 C2 1_555 1_555
H2 C3 1_555 1_555
C4 C3 1_555 1_555
H3 C4 1_555 1_555
C5 C4 1_555 1_555
H4 C5 1_555 1_555
C6 C1 1_555 1_555
C7 H5 1_555 1_555
C8 C9 1_555 1_555
C9 H6 1_555 1_555
C10 C9 1_555 1_555
C11 C10 1_555 1_555
H7 C11 1_555 1_555
C12 C8 1_555 1_555
H8 C12 1_555 1_555
C13 C14 1_555 1_555
C14 H9 1_555 1_555
C15 C14 1_555 1_555
H10 C15 1_555 1_555
C16 C15 1_555 1_555
H11 C16 1_555 1_555
C17 C16 1_555 1_555
H12 C17 1_555 1_555
C18 C13 1_555 1_555
C19 H13 1_555 1_555
C20 C21 1_555 1_555
C21 C22 1_555 1_555
C22 H14 1_555 1_555
C23 C22 1_555 1_555
C24 C23 1_555 1_555
H15 C24 1_555 1_555
C25 C24 1_555 1_555
H16 C25 1_555 1_555
C26 C27 1_555 1_555
C27 C28 1_555 1_555
C28 H17 1_555 1_555
C29 C28 1_555 1_555
C30 C29 1_555 1_555
H18 C30 1_555 1_555
C31 C30 1_555 1_555
H19 C31 1_555 1_555
N1 C1 1_555 1_555
N2 C6 1_555 1_555
N3 C11 1_555 1_555
N4 C10 1_555 1_555
N5 C18 1_555 1_555
O1 Cd1 1_555 1_555
O2 Cd1 1_555 1_555
O3 Cd1 1_555 1_555
O4 Cd1 1_555 1_555
O5 H20 1_555 1_555
H21 O5 1_555 1_555
O6 H22 1_555 1_555
H23 O6 1_555 1_555
C20A C21A 1_555 1_555
C21A C25 1_555 1_555
C22A C21A 1_555 1_555
H14A C22A 1_555 1_555
C23A C23 1_555 1_555
C24A C23A 1_555 1_555
H15A C24A 1_555 1_555
C25A C21 1_555 1_555
H16A C25A 1_555 1_555
O1A C20A 1_555 1_555
O2A C20A 1_555 1_555
C26A C27A 1_555 1_555
C27A C31 1_555 1_555
C28A C27A 1_555 1_555
H17A C28A 1_555 1_555
C29A C29 1_555 1_555
C30A C29A 1_555 1_555
H18A C30A 1_555 1_555
C31A C27 1_555 1_555
H19A C31A 1_555 1_555
O3A C26A 1_555 1_555
O4A C26A 1_555 1_555
Cd1A O1A 1_555 1_555
C1A C2A 1_555 1_555
C2A H1A 1_555 1_555
C3A C2A 1_555 1_555
H2A C3A 1_555 1_555
C4A C3A 1_555 1_555
H3A C4A 1_555 1_555
C5A C4A 1_555 1_555
H4A C5A 1_555 1_555
C6A C1A 1_555 1_555
C7A H5A 1_555 1_555
C8A C9A 1_555 1_555
C9A H6A 1_555 1_555
C10A C9A 1_555 1_555
C11A C10A 1_555 1_555
H7A C11A 1_555 1_555
C12A C8A 1_555 1_555
H8A C12A 1_555 1_555
C13A C14A 1_555 1_555
C14A H9A 1_555 1_555
C15A C14A 1_555 1_555
H10A C15A 1_555 1_555
C16A C15A 1_555 1_555
H11A C16A 1_555 1_555
C17A C16A 1_555 1_555
H12A C17A 1_555 1_555
C18A C13A 1_555 1_555
C19A H13A 1_555 1_555
N1A C1A 1_555 1_555
N2A Cd1A 1_555 1_555
N3A C11A 1_555 1_555
N4A C10A 1_555 1_555
N5A C18A 1_555 1_555
Cd1_2 N5 1_555 1_555
Cd1A_2 O3A 1_555 1_555
Cd1A_3 N5A 1_555 1_555
N5_2 Cd1 1_555 1_555
N5A_2 Cd1A 1_555 1_555
O3A_2 Cd1A 1_555 1_555
O4A_2 Cd1A 1_555 1_555
C5 C6 1_555 1_555
C7 N1 1_555 1_555
C7 N2 1_555 1_555
C8 N1 1_555 1_555
C12 N3 1_555 1_555
C13 N4 1_555 1_555
C17 C18 1_555 1_555
C19 N4 1_555 1_555
C19 N5 1_555 1_555
C20 O1 1_555 1_555
C20 O2 1_555 1_555
C26 O3 1_555 1_555
C26 O4 1_555 1_555
C22A C23A 1_555 1_555
C24A C25A 1_555 1_555
O2A Cd1A 1_555 1_555
C28A C29A 1_555 1_555
C30A C31A 1_555 1_555
O4A Cd1A_2 1_555 1_555
C5A C6A 1_555 1_555
C6A N2A 1_555 1_555
C7A N1A 1_555 1_555
C7A N2A 1_555 1_555
C8A N1A 1_555 1_555
C12A N3A 1_555 1_555
C13A N4A 1_555 1_555
C17A C18A 1_555 1_555
C19A N4A 1_555 1_555
C19A N5A 1_555 1_555

#END
