
#######################################################################
#
#                 Cambridge Crystallographic Data Centre
#                                CCDC 
#
#######################################################################
#
# If this CIF has been generated from an entry in the Cambridge 
# Structural Database, then it will include bibliographic, chemical, 
# crystal, experimental, refinement or atomic coordinate data resulting 
# from the CCDC's data processing and validation procedures.
#
#######################################################################

data_KIYLEL
_symmetry_cell_setting           triclinic
_symmetry_space_group_name_H-M   'P -1'
_symmetry_Int_Tables_number      2
_space_group_name_Hall           '-P 1'
loop_
_symmetry_equiv_pos_site_id
_symmetry_equiv_pos_as_xyz
1 x,y,z
2 -x,-y,-z
_cell_length_a                   13.1828(4)
_cell_length_b                   15.9386(6)
_cell_length_c                   16.0139(5)
_cell_angle_alpha                115.179(3)
_cell_angle_beta                 105.020(3)
_cell_angle_gamma                102.893(3)
_cell_volume                     2718.68
loop_
_atom_site_label
_atom_site_type_symbol
_atom_site_fract_x
_atom_site_fract_y
_atom_site_fract_z
C1 C 0.1865(9) 0.2444(9) 0.5609(8)
C2 C 0.1231(8) 0.1922(9) 0.4453(8)
C3 C 0.1308(10) -0.0732(9) 0.5053(9)
C4 C 0.1035(9) -0.1370(9) 0.3920(8)
C5 C 0.5386(9) 0.0452(9) 0.5040(8)
C6 C 0.9463(9) 0.5021(9) 1.5093(7)
Ce1 Ce 0.30277(5) 0.08288(5) 0.47322(4)
Ce2 Ce 0.96497(5) 0.30748(5) 1.53493(4)
Ge1 Ge 0.62588(8) 0.18279(8) 1.00639(7)
Mn1 Mn 0.34460(13) 0.03047(13) 0.86854(11)
Mn2 Mn 0.46711(12) 0.07075(12) 1.09330(11)
Mn3 Mn 1.19332(14) 0.35301(14) 1.00203(13)
O1 O 0.4119(6) 0.0598(5) 0.7719(5)
O2 O 0.3632(6) 0.1852(6) 0.9459(5)
O3 O 0.4384(6) 0.1339(6) 0.6464(5)
O4 O 0.6234(6) 0.1206(6) 0.7790(5)
O5 O 0.5790(5) 0.2429(5) 0.9433(5)
O6 O 0.6158(5) 0.2996(5) 0.8202(5)
O7 O 0.4110(6) 0.2442(6) 0.8221(5)
O8 O 0.3412(6) 0.3604(6) 0.9668(5)
O9 O 0.5668(6) 0.4128(6) 0.9762(5)
O10 O 0.5248(6) 0.3607(5) 1.1060(5)
O11 O 0.7677(6) 0.4971(6) 0.9599(5)
O12 O 0.7576(6) 0.4387(5) 1.1033(5)
O13 O 0.8040(6) 0.3277(6) 0.9521(5)
O14 O 1.0370(6) 0.3463(6) 1.0171(5)
O15 O 0.9525(5) 0.1953(5) 1.0545(5)
O16 O 0.9047(6) 0.3550(6) 1.1324(5)
O17 O 0.7366(6) 0.1538(6) 0.9747(5)
O18 O 0.8495(6) 0.1671(6) 0.8703(5)
O19 O 0.9483(6) 0.5475(6) 1.2903(5)
O20 O 0.6859(6) 0.2710(6) 1.1359(5)
O21 O 0.7249(6) 0.4549(5) 1.2620(5)
O22 O 0.8748(6) 0.3694(6) 1.2913(5)
O23 O 0.7048(6) -0.0047(6) 1.0211(5)
O24 O 0.8422(6) 0.1790(6) 1.1693(5)
O25 O 0.9364(6) 0.0344(6) 1.0849(5)
O26 O 0.8072(6) 0.0146(6) 0.8995(5)
O27 O 0.6459(5) 0.1178(6) 1.1835(5)
O28 O 0.6775(6) 0.3110(6) 1.3047(5)
O29 O 0.7169(6) -0.0227(6) 0.7022(5)
O30 O 0.5841(6) -0.0386(6) 0.8062(5)
O31 O 0.8384(6) 0.2368(6) 1.3602(5)
O32 O 0.5291(7) 0.4139(6) 1.3022(6)
O33 O 0.5161(5) 0.0766(5) 0.9753(5)
O34 O 0.4720(6) 0.2180(6) 1.1537(5)
O35 O 0.2689(6) 0.2244(6) 0.5933(5)
O36 O 0.1479(7) 0.1234(6) 0.3918(5)
O37 O 0.1513(6) 0.3042(6) 0.6146(5)
O38 O 0.0532(6) 0.2240(6) 0.4129(5)
O39 O 0.1766(8) 0.0204(7) 0.5447(6)
O40 O 0.1324(6) -0.0895(6) 0.3514(5)
O41 O 0.1035(9) -0.1179(7) 0.5481(7)
O42 O 0.0581(7) -0.2299(6) 0.3524(5)
O43 O 0.6448(6) 0.0638(6) 0.5381(6)
O44 O 0.4965(7) 0.0976(7) 0.4764(6)
O45 O 0.8982(7) 0.4446(6) 1.5320(6)
O46 O 0.9179(7) 0.5727(7) 1.5013(6)
O47 O 0.1698(6) -0.0164(7) 0.7619(6)
O48 O 0.4146(8) 0.2537(7) 0.4946(7)
O49 O 0.7646(10) 0.2654(13) 1.5399(11)
O50 O 1.1741(8) 0.2043(7) 0.9837(8)
O51 O 1.1048(9) 0.2892(10) 0.8408(7)
O52 O 1.2943(8) 0.4160(8) 1.1643(7)
W1 W 0.49450(3) 0.16288(3) 0.77108(3)
W2 W 0.44175(3) 0.30409(3) 0.96669(3)
W3 W 0.69695(3) 0.39091(3) 0.96063(3)
W4 W 0.90610(3) 0.27351(3) 1.00395(3)
W5 W 0.83692(3) 0.43024(3) 1.21663(3)
W6 W 0.83843(3) 0.07813(3) 1.04124(3)
W7 W 0.76778(3) 0.23565(3) 1.25233(3)
W8 W 0.70324(3) 0.04650(3) 0.81358(3)
W9 W 0.57827(3) 0.34088(3) 1.21889(3)
C5A C 0.4614(9) -0.0452(9) 0.4960(8)
O43A O 0.3552(6) -0.0638(6) 0.4619(6)
O44A O 0.5035(7) -0.0976(7) 0.5236(6)
C6A C 1.0537(9) 0.4979(9) 1.4907(7)
O45A O 1.1018(7) 0.5554(6) 1.4680(6)
O46A O 1.0821(7) 0.4273(7) 1.4987(6)
C1A C 0.8135(9) -0.2444(9) 0.4391(8)
C2A C 0.8769(8) -0.1922(9) 0.5547(8)
C3A C 0.8692(10) 0.0732(9) 0.4947(9)
C4A C 0.8965(9) 0.1370(9) 0.6080(8)
Ce1A Ce 0.69723(5) -0.08288(5) 0.52678(4)
Ce2A Ce 0.03503(5) -0.30748(5) -0.53493(4)
Ge1A Ge 0.37412(8) -0.18279(8) -0.00639(7)
Mn1A Mn 0.65540(13) -0.03047(13) 0.13146(11)
Mn2A Mn 0.53289(12) -0.07075(12) -0.09330(11)
Mn3A Mn -0.19332(14) -0.35301(14) -0.00203(13)
O1A O 0.5881(6) -0.0598(5) 0.2281(5)
O2A O 0.6368(6) -0.1852(6) 0.0541(5)
O3A O 0.5616(6) -0.1339(6) 0.3536(5)
O4A O 0.3766(6) -0.1206(6) 0.2210(5)
O5A O 0.4210(5) -0.2429(5) 0.0567(5)
O6A O 0.3842(5) -0.2996(5) 0.1798(5)
O7A O 0.5890(6) -0.2442(6) 0.1779(5)
O8A O 0.6588(6) -0.3604(6) 0.0332(5)
O9A O 0.4332(6) -0.4128(6) 0.0238(5)
O10A O 0.4752(6) -0.3607(5) -0.1060(5)
O11A O 0.2323(6) -0.4971(6) 0.0401(5)
O12A O 0.2424(6) -0.4387(5) -0.1033(5)
O13A O 0.1960(6) -0.3277(6) 0.0479(5)
O14A O -0.0370(6) -0.3463(6) -0.0171(5)
O15A O 0.0475(5) -0.1953(5) -0.0545(5)
O16A O 0.0953(6) -0.3550(6) -0.1324(5)
O17A O 0.2634(6) -0.1538(6) 0.0253(5)
O18A O 0.1505(6) -0.1671(6) 0.1297(5)
O19A O 0.0517(6) -0.5475(6) -0.2903(5)
O20A O 0.3141(6) -0.2710(6) -0.1359(5)
O21A O 0.2751(6) -0.4549(5) -0.2620(5)
O22A O 0.1252(6) -0.3694(6) -0.2913(5)
O23A O 0.2952(6) 0.0047(6) -0.0211(5)
O24A O 0.1578(6) -0.1790(6) -0.1693(5)
O25A O 0.0636(6) -0.0344(6) -0.0849(5)
O26A O 0.1928(6) -0.0146(6) 0.1005(5)
O27A O 0.3541(5) -0.1178(6) -0.1835(5)
O28A O 0.3225(6) -0.3110(6) -0.3047(5)
O29A O 0.2831(6) 0.0227(6) 0.2978(5)
O30A O 0.4159(6) 0.0386(6) 0.1938(5)
O31A O 0.1616(6) -0.2368(6) -0.3602(5)
O32A O 0.4709(7) -0.4139(6) -0.3022(6)
O33A O 0.4839(5) -0.0766(5) 0.0247(5)
O34A O 0.5280(6) -0.2180(6) -0.1537(5)
O35A O 0.7311(6) -0.2244(6) 0.4067(5)
O36A O 0.8521(7) -0.1234(6) 0.6082(5)
O37A O 0.8487(6) -0.3042(6) 0.3854(5)
O38A O 0.9468(6) -0.2240(6) 0.5871(5)
O39A O 0.8234(8) -0.0204(7) 0.4553(6)
O40A O 0.8676(6) 0.0895(6) 0.6486(5)
O41A O 0.8965(9) 0.1179(7) 0.4519(7)
O42A O 0.9419(7) 0.2299(6) 0.6476(5)
O47A O 0.8302(6) 0.0164(7) 0.2381(6)
O48A O 0.5854(8) -0.2537(7) 0.5054(7)
O49A O 0.2354(10) -0.2654(13) -0.5399(11)
O50A O -0.1741(8) -0.2043(7) 0.0163(8)
O51A O -0.1048(9) -0.2892(10) 0.1592(7)
O52A O -0.2943(8) -0.4160(8) -0.1643(7)
W1A W 0.50550(3) -0.16288(3) 0.22892(3)
W2A W 0.55825(3) -0.30409(3) 0.03331(3)
W3A W 0.30305(3) -0.39091(3) 0.03937(3)
W4A W 0.09390(3) -0.27351(3) -0.00395(3)
W5A W 0.16308(3) -0.43024(3) -0.21663(3)
W6A W 0.16157(3) -0.07813(3) -0.04124(3)
W7A W 0.23222(3) -0.23565(3) -0.25233(3)
W8A W 0.29676(3) -0.04650(3) 0.18642(3)
W9A W 0.42173(3) -0.34088(3) -0.21889(3)
Ce2_2 Ce -0.03503(5) -0.69252(5) -0.46507(4)
Ce2_3 Ce -0.03503(5) 0.30748(5) 0.53493(4)
Ce2_4 Ce 0.96497(5) 0.30748(5) 0.53493(4)
Ce2A_2 Ce 0.03503(5) -0.30748(5) 0.46507(4)
Ce2A_3 Ce 1.03503(5) -0.30748(5) 0.46507(4)
Ce2A_4 Ce 1.03503(5) 0.69252(5) 1.46507(4)
Mn1_2 Mn 0.34460(13) 0.03047(13) -0.13146(11)
Mn1A_2 Mn 0.65540(13) -0.03047(13) 1.13146(11)
Mn2_2 Mn 0.46711(12) 0.07075(12) 0.09330(11)
Mn2A_2 Mn 0.53289(12) -0.07075(12) 0.90670(11)
Mn3_2 Mn 0.19332(14) -0.64699(14) 0.00203(13)
Mn3_3 Mn 0.19332(14) 0.35301(14) 1.00203(13)
Mn3A_2 Mn 0.80668(14) -0.35301(14) -0.00203(13)
Mn3A_3 Mn 0.80668(14) 0.64699(14) 0.99797(13)
O8_2 O 1.3412(6) 0.3604(6) 0.9668(5)
O8A_2 O -0.3412(6) -0.3604(6) 0.0332(5)
O11_2 O -0.2323(6) -0.5029(6) -0.0401(5)
O11A_2 O 1.2323(6) 0.5029(6) 1.0401(5)
O19_2 O -0.0517(6) -0.4525(6) -0.7097(5)
O19A_2 O 1.0517(6) 0.4525(6) 1.7097(5)
O23_2 O 0.7048(6) -0.0047(6) 0.0211(5)
O23A_2 O 0.2952(6) 0.0047(6) 0.9789(5)
O27_2 O 0.6459(5) 0.1178(6) 0.1835(5)
O27A_2 O 0.3541(5) -0.1178(6) 0.8165(5)
O30_2 O 0.5841(6) -0.0386(6) -0.1938(5)
O30A_2 O 0.4159(6) 0.0386(6) 1.1938(5)
O33_2 O 0.5161(5) 0.0766(5) -0.0247(5)
O33A_2 O 0.4839(5) -0.0766(5) 1.0247(5)
O37_2 O 1.1513(6) 0.3042(6) 1.6146(5)
O37A_2 O -0.1513(6) -0.3042(6) -0.6146(5)
O38_2 O 1.0532(6) 0.2240(6) 1.4129(5)
O38A_2 O -0.0532(6) -0.2240(6) -0.4129(5)
O41_2 O 0.1035(9) -0.1179(7) -0.4519(7)
O41A_2 O 0.8965(9) 0.1179(7) 1.4519(7)
O42_2 O 0.0581(7) -0.2299(6) -0.6476(5)
O42A_2 O 0.9419(7) 0.2299(6) 1.6476(5)
O45A_2 O 0.1018(7) -0.4446(6) -0.5320(6)
O46_2 O -0.0821(7) -0.4273(7) -0.4987(6)
K1 K 0.9786(3) 0.0485(3) 0.8027(2)
K2 K 0.7773(3) 0.2454(3) 0.7421(3)
Na1 Na 0.3490(4) 0.4164(4) 0.8089(3)
Na2 Na 0.0785(7) 0.3075(9) 0.2809(6)
O53 O 0.9484(18) 0.4299(13) 0.8547(16)
O54 O 0.5262(10) 0.3970(9) 0.7312(9)
O55 O 0.2031(19) 0.1892(12) 0.1541(12)
O56 O 0.3038(10) 0.4043(10) 0.5176(10)
O57 O 0.4394(15) 0.7709(14) 0.6111(12)
O58 O 0.8255(8) 0.8539(8) 0.2717(7)
O59 O 0.379(2) 0.868(2) 0.623(2)
loop_
_geom_bond_atom_site_label_1
_geom_bond_atom_site_label_2
_geom_bond_site_symmetry_1
_geom_bond_site_symmetry_2
C1 C2 1_555 1_555
C2 O36 1_555 1_555
C3 C4 1_555 1_555
C4 O40 1_555 1_555
C5 O43 1_555 1_555
C6 O45 1_555 1_555
Ce1 O3 1_555 1_555
Ce2 O31 1_555 1_555
Ge1 O5 1_555 1_555
Mn1 O1 1_555 1_555
Mn2 O27 1_555 1_555
Mn3 O14 1_555 1_555
O1 W1 1_555 1_555
O2 Mn1 1_555 1_555
O3 W1 1_555 1_555
O4 W1 1_555 1_555
O5 W1 1_555 1_555
O6 W1 1_555 1_555
O7 W1 1_555 1_555
O8 W2 1_555 1_555
O9 W2 1_555 1_555
O10 W2 1_555 1_555
O11 W3 1_555 1_555
O12 W3 1_555 1_555
O13 W3 1_555 1_555
O14 W4 1_555 1_555
O15 W4 1_555 1_555
O16 W4 1_555 1_555
O17 Ge1 1_555 1_555
O18 W4 1_555 1_555
O19 W5 1_555 1_555
O20 Ge1 1_555 1_555
O21 W5 1_555 1_555
O22 W5 1_555 1_555
O23 W6 1_555 1_555
O24 W6 1_555 1_555
O25 W6 1_555 1_555
O26 W6 1_555 1_555
O27 W7 1_555 1_555
O28 W7 1_555 1_555
O29 W8 1_555 1_555
O30 W8 1_555 1_555
O31 W7 1_555 1_555
O32 W9 1_555 1_555
O33 Ge1 1_555 1_555
O34 Mn2 1_555 1_555
O35 C1 1_555 1_555
O36 Ce1 1_555 1_555
O37 C1 1_555 1_555
O38 C2 1_555 1_555
O39 C3 1_555 1_555
O40 Ce1 1_555 1_555
O41 C3 1_555 1_555
O42 C4 1_555 1_555
O43 Ce1A 1_555 1_555
O44 C5 1_555 1_555
O45 Ce2 1_555 1_555
O46 C6 1_555 1_555
O47 Mn1 1_555 1_555
O48 Ce1 1_555 1_555
O49 Ce2 1_555 1_555
O50 Mn3 1_555 1_555
O51 Mn3 1_555 1_555
O52 Mn3 1_555 1_555
W2 O2 1_555 1_555
W3 O5 1_555 1_555
W4 O13 1_555 1_555
W5 O12 1_555 1_555
W6 O15 1_555 1_555
W7 O20 1_555 1_555
W8 O4 1_555 1_555
W9 O10 1_555 1_555
C5A C5 1_555 1_555
O43A Ce1 1_555 1_555
O44A C5A 1_555 1_555
C6A C6 1_555 1_555
O45A C6A 1_555 1_555
O46A Ce2 1_555 1_555
C1A C2A 1_555 1_555
C2A O36A 1_555 1_555
C3A C4A 1_555 1_555
C4A O40A 1_555 1_555
Ce1A O29 1_555 1_555
Ce2A O31A 1_555 1_555
Ge1A O5A 1_555 1_555
Mn1A O1A 1_555 1_555
Mn2A O27A 1_555 1_555
Mn3A O14A 1_555 1_555
O1A W1A 1_555 1_555
O2A Mn1A 1_555 1_555
O3A Ce1A 1_555 1_555
O4A W1A 1_555 1_555
O5A W1A 1_555 1_555
O6A W1A 1_555 1_555
O7A W1A 1_555 1_555
O8A W2A 1_555 1_555
O9A W2A 1_555 1_555
O10A W2A 1_555 1_555
O11A W3A 1_555 1_555
O12A W3A 1_555 1_555
O13A W3A 1_555 1_555
O14A W4A 1_555 1_555
O15A W4A 1_555 1_555
O16A W4A 1_555 1_555
O17A Ge1A 1_555 1_555
O18A W4A 1_555 1_555
O19A W5A 1_555 1_555
O20A Ge1A 1_555 1_555
O21A W5A 1_555 1_555
O22A W5A 1_555 1_555
O23A W6A 1_555 1_555
O24A W6A 1_555 1_555
O25A W6A 1_555 1_555
O26A W6A 1_555 1_555
O27A W7A 1_555 1_555
O28A W7A 1_555 1_555
O29A Ce1 1_555 1_555
O30A W8A 1_555 1_555
O31A W7A 1_555 1_555
O32A W9A 1_555 1_555
O33A Ge1A 1_555 1_555
O34A Mn2A 1_555 1_555
O35A C1A 1_555 1_555
O36A Ce1A 1_555 1_555
O37A C1A 1_555 1_555
O38A C2A 1_555 1_555
O39A C3A 1_555 1_555
O40A Ce1A 1_555 1_555
O41A C3A 1_555 1_555
O42A C4A 1_555 1_555
O47A Mn1A 1_555 1_555
O48A Ce1A 1_555 1_555
O49A Ce2A 1_555 1_555
O50A Mn3A 1_555 1_555
O51A Mn3A 1_555 1_555
O52A Mn3A 1_555 1_555
W1A O3A 1_555 1_555
W2A O2A 1_555 1_555
W3A O5A 1_555 1_555
W4A O13A 1_555 1_555
W5A O12A 1_555 1_555
W6A O15A 1_555 1_555
W7A O20A 1_555 1_555
W8A O4A 1_555 1_555
W9A O10A 1_555 1_555
Ce2_2 O19A 1_555 1_555
Ce2_3 O37 1_555 1_555
Ce2_4 O41A 1_555 1_555
Ce2A_2 O41 1_555 1_555
Ce2A_3 O37A 1_555 1_555
Ce2A_4 O19 1_555 1_555
Mn1_2 O23A 1_555 1_555
Mn1A_2 O23 1_555 1_555
Mn2_2 O23A 1_555 1_555
Mn2A_2 O23 1_555 1_555
Mn3_2 O11A 1_555 1_555
Mn3_3 O8 1_555 1_555
Mn3A_2 O8A 1_555 1_555
Mn3A_3 O11 1_555 1_555
O8_2 Mn3 1_555 1_555
O8A_2 Mn3A 1_555 1_555
O11_2 Mn3A 1_555 1_555
O11A_2 Mn3 1_555 1_555
O19_2 Ce2A 1_555 1_555
O19A_2 Ce2 1_555 1_555
O23_2 Mn1A 1_555 1_555
O23A_2 Mn1 1_555 1_555
O27_2 Mn1A 1_555 1_555
O27A_2 Mn1 1_555 1_555
O30_2 Mn2A 1_555 1_555
O30A_2 Mn2 1_555 1_555
O33_2 Mn2A 1_555 1_555
O33A_2 Mn2 1_555 1_555
O37_2 Ce2 1_555 1_555
O37A_2 Ce2A 1_555 1_555
O38_2 Ce2 1_555 1_555
O38A_2 Ce2A 1_555 1_555
O41_2 Ce2A 1_555 1_555
O41A_2 Ce2 1_555 1_555
O42_2 Ce2A 1_555 1_555
O42A_2 Ce2 1_555 1_555
O45A_2 Ce2A 1_555 1_555
O46_2 Ce2A 1_555 1_555
Ce1 O35 1_555 1_555
Ce1 O39 1_555 1_555
Ce1 O44 1_555 1_555
Mn1 O33 1_555 1_555
Mn2 O33 1_555 1_555
Mn2 O23A_2 1_555 1_555
O5 W2 1_555 1_555
O6 W3 1_555 1_555
O7 W2 1_555 1_555
O9 W3 1_555 1_555
O16 W5 1_555 1_555
O17 W4 1_555 1_555
O17 W6 1_555 1_555
O17 W8 1_555 1_555
O18 W8 1_555 1_555
O20 W5 1_555 1_555
O20 W9 1_555 1_555
O21 W9 1_555 1_555
O22 W7 1_555 1_555
O24 W7 1_555 1_555
O26 W8 1_555 1_555
O27 Mn1A_2 1_555 1_555
O28 W9 1_555 1_555
O30 Mn2A_2 1_555 1_555
O33 Mn2A_2 1_555 1_555
O34 W9 1_555 1_555
O38 Ce2_3 1_555 1_555
O42 Ce2A_2 1_555 1_555
O46 Ce2A_4 1_555 1_555
C5A O43A 1_555 1_555
O44A Ce1A 1_555 1_555
C6A O46A 1_555 1_555
O45A Ce2A_4 1_555 1_555
Ce1A O35A 1_555 1_555
Ce1A O39A 1_555 1_555
Mn1A O33A 1_555 1_555
Mn2A O33A 1_555 1_555
Mn2A O23_2 1_555 1_555
O5A W2A 1_555 1_555
O6A W3A 1_555 1_555
O7A W2A 1_555 1_555
O9A W3A 1_555 1_555
O16A W5A 1_555 1_555
O17A W4A 1_555 1_555
O17A W6A 1_555 1_555
O17A W8A 1_555 1_555
O18A W8A 1_555 1_555
O20A W5A 1_555 1_555
O20A W9A 1_555 1_555
O21A W9A 1_555 1_555
O22A W7A 1_555 1_555
O24A W7A 1_555 1_555
O26A W8A 1_555 1_555
O27A Mn1_2 1_555 1_555
O28A W9A 1_555 1_555
O29A W8A 1_555 1_555
O30A Mn2_2 1_555 1_555
O33A Mn2_2 1_555 1_555
O34A W9A 1_555 1_555
O38A Ce2A_3 1_555 1_555
O42A Ce2_4 1_555 1_555
Mn1_2 O33_2 1_555 1_555
Mn1A_2 O33A_2 1_555 1_555
Mn2_2 O27_2 1_555 1_555
Mn2_2 O33_2 1_555 1_555
Mn2A_2 O27A_2 1_555 1_555
Mn2A_2 O33A_2 1_555 1_555

#END
