
#######################################################################
#
#                 Cambridge Crystallographic Data Centre
#                                CCDC 
#
#######################################################################
#
# If this CIF has been generated from an entry in the Cambridge 
# Structural Database, then it will include bibliographic, chemical, 
# crystal, experimental, refinement or atomic coordinate data resulting 
# from the CCDC's data processing and validation procedures.
#
#######################################################################

data_KIYMEM01
_symmetry_cell_setting           orthorhombic
_symmetry_space_group_name_H-M   'P 21 21 21'
_symmetry_Int_Tables_number      19
_space_group_name_Hall           'P 2ac 2ab'
loop_
_symmetry_equiv_pos_site_id
_symmetry_equiv_pos_as_xyz
1 x,y,z
2 1/2-x,-y,1/2+z
3 -x,1/2+y,1/2-z
4 1/2+x,1/2-y,-z
_cell_length_a                   7.1395(15)
_cell_length_b                   14.678(3)
_cell_length_c                   15.014(3)
_cell_angle_alpha                90
_cell_angle_beta                 90
_cell_angle_gamma                90
_cell_volume                     1573.37
loop_
_atom_site_label
_atom_site_type_symbol
_atom_site_fract_x
_atom_site_fract_y
_atom_site_fract_z
Ba1 Ba 0.92802(4) 0.194093(18) 0.438910(16)
O1 O 0.7943(5) 0.2608(2) 0.60272(18)
O2 O 1.0534(4) 0.33141(19) 0.55707(19)
O3 O 0.8444(5) 0.6157(3) 0.9426(3)
O4 O 0.6834(7) 0.6753(3) 0.8300(3)
O5 O 0.9045(7) 0.0549(3) 0.3279(3)
N1 N 0.8419(7) 0.0393(4) 0.1798(4)
C1 C 0.9172(7) 0.3228(3) 0.6095(2)
C2 C 0.7801(8) 0.6140(4) 0.8652(4)
C3 C 0.8983(7) 0.4831(3) 0.6562(3)
H1 H 0.9263 0.4982 0.5975
C4 C 0.8958(6) 0.3942(3) 0.6808(3)
C5 C 0.8567(7) 0.3701(3) 0.7717(3)
C6 C 0.8542(7) 0.2777(3) 0.8020(3)
H2 H 0.8679 0.2306 0.7611
C7 C 0.8321(9) 0.2580(4) 0.8891(4)
H3 H 0.8304 0.1975 0.9075
C8 C 0.8118(9) 0.3271(4) 0.9519(3)
H4 H 0.7991 0.3123 1.0119
C9 C 0.8103(8) 0.4159(4) 0.9264(3)
H5 H 0.7945 0.4611 0.9692
C10 C 0.8324(7) 0.4408(3) 0.8356(3)
C11 C 0.8267(7) 0.5342(3) 0.8051(3)
C12 C 0.8593(7) 0.5524(3) 0.7175(3)
H6 H 0.8557 0.6125 0.6979
C13 C 0.8753(9) 0.0085(5) 0.2601(5)
H7 H 0.8774 -0.0544 0.2671
C14 C 0.8156(11) -0.0218(5) 0.1060(4)
H8 H 0.8250 -0.0836 0.1264
H9 H 0.9102 -0.0106 0.0619
H10 H 0.6941 -0.0119 0.0803
C15 C 0.8353(10) 0.1364(5) 0.1666(6)
H11 H 0.8559 0.1667 0.2224
H12 H 0.7147 0.1532 0.1435
H13 H 0.9308 0.1541 0.1250
Ba1A Ba 0.57198(4) 0.805907(18) 0.938910(16)
Ba1B Ba 1.07198(4) 0.694093(18) 1.061090(16)
Ba1C Ba 0.42802(4) 0.305907(18) 0.561090(16)
Ba1C_2 Ba 1.42802(4) 0.305907(18) 0.561090(16)
O1C O 1.2943(5) 0.2392(2) 0.39728(18)
O2C O 0.5534(4) 0.16859(19) 0.44293(19)
O3B O 1.1556(5) 0.1157(3) 0.5574(3)
O4A O 0.8166(7) 0.3247(3) 0.3300(3)
loop_
_geom_bond_atom_site_label_1
_geom_bond_atom_site_label_2
_geom_bond_site_symmetry_1
_geom_bond_site_symmetry_2
Ba1 O1 1_555 1_555
O1 C1 1_555 1_555
O2 Ba1 1_555 1_555
O3 C2 1_555 1_555
O4 C2 1_555 1_555
O5 Ba1 1_555 1_555
N1 C13 1_555 1_555
C1 O2 1_555 1_555
C2 C11 1_555 1_555
C3 H1 1_555 1_555
C4 C1 1_555 1_555
C5 C4 1_555 1_555
C6 C5 1_555 1_555
H2 C6 1_555 1_555
C7 C6 1_555 1_555
H3 C7 1_555 1_555
C8 C7 1_555 1_555
H4 C8 1_555 1_555
C9 C8 1_555 1_555
H5 C9 1_555 1_555
C10 C5 1_555 1_555
C11 C10 1_555 1_555
C12 C3 1_555 1_555
H6 C12 1_555 1_555
C13 O5 1_555 1_555
H7 C13 1_555 1_555
C14 N1 1_555 1_555
H8 C14 1_555 1_555
H9 C14 1_555 1_555
H10 C14 1_555 1_555
C15 N1 1_555 1_555
H11 C15 1_555 1_555
H12 C15 1_555 1_555
H13 C15 1_555 1_555
Ba1A O4 1_555 1_555
Ba1B O3 1_555 1_555
Ba1C O1 1_555 1_555
Ba1C_2 O2 1_555 1_555
O1C Ba1 1_555 1_555
O2C Ba1 1_555 1_555
O3B Ba1 1_555 1_555
O4A Ba1 1_555 1_555
C3 C4 1_555 1_555
C9 C10 1_555 1_555
C11 C12 1_555 1_555
Ba1C O2C 1_555 1_555
Ba1C_2 O1C 1_555 1_555

#END
