
#######################################################################
#
#                 Cambridge Crystallographic Data Centre
#                                CCDC 
#
#######################################################################
#
# If this CIF has been generated from an entry in the Cambridge 
# Structural Database, then it will include bibliographic, chemical, 
# crystal, experimental, refinement or atomic coordinate data resulting 
# from the CCDC's data processing and validation procedures.
#
#######################################################################

data_KIYMOV
_symmetry_cell_setting           monoclinic
_symmetry_space_group_name_H-M   'C 2/c'
_symmetry_Int_Tables_number      15
_space_group_name_Hall           '-C 2yn'
loop_
_symmetry_equiv_pos_site_id
_symmetry_equiv_pos_as_xyz
1 x,y,z
2 1/2+x,1/2+y,z
3 -x,y,1/2-z
4 1/2-x,1/2+y,1/2-z
5 -x,-y,-z
6 1/2-x,1/2-y,-z
7 x,-y,1/2+z
8 1/2+x,1/2-y,1/2+z
_cell_length_a                   28.026(6)
_cell_length_b                   12.176(2)
_cell_length_c                   21.761(4)
_cell_angle_alpha                90
_cell_angle_beta                 92.48(3)
_cell_angle_gamma                90
_cell_volume                     7418.87
loop_
_atom_site_label
_atom_site_type_symbol
_atom_site_fract_x
_atom_site_fract_y
_atom_site_fract_z
Ni1 Ni 0.317400(11) -0.67921(3) 0.448180(15)
Ni2 Ni 0.0000 0.09252(4) 0.2500
C1 C 0.22924(10) -0.6093(2) 0.33801(12)
C2 C 0.19922(9) -0.6283(2) 0.38670(12)
C3 C 0.15994(10) -0.5599(2) 0.39474(13)
H1 H 0.1399 -0.5735 0.4269
C4 C 0.15032(10) -0.4722(2) 0.35551(13)
C5 C 0.17906(11) -0.4574(2) 0.30525(13)
H2 H 0.1722 -0.4012 0.2773
C6 C 0.21766(11) -0.5256(2) 0.29675(13)
H3 H 0.2362 -0.5152 0.2628
C7 C 0.27366(10) -0.6766(2) 0.32669(12)
C8 C 0.21006(9) -0.7204(2) 0.43197(11)
C9 C 0.10908(11) -0.3901(2) 0.36341(14)
C10 C 0.12414(10) -0.2722(2) 0.34600(14)
C11 C 0.09270(11) -0.1979(2) 0.31641(14)
H4 H 0.0615 -0.2194 0.3062
C12 C 0.10748(10) -0.0926(2) 0.30219(13)
C13 C 0.15447(11) -0.0602(2) 0.31597(14)
C14 C 0.18527(11) -0.1337(3) 0.34626(15)
H5 H 0.2165 -0.1125 0.3562
C15 C 0.17035(11) -0.2371(3) 0.36172(15)
H6 H 0.1913 -0.2842 0.3829
C16 C 0.06929(10) -0.0171(2) 0.27674(13)
C17 C 0.17252(11) 0.0491(3) 0.29507(15)
C18 C 0.06619(12) -0.4312(3) 0.32223(17)
C19 C 0.09329(13) -0.3839(3) 0.43010(16)
C20 C 0.25787(11) -0.5013(2) 0.51155(14)
H7 H 0.2471 -0.5599 0.5346
C21 C 0.24198(11) -0.3977(2) 0.52513(14)
H8 H 0.2206 -0.3883 0.5562
C22 C 0.25756(10) -0.3069(2) 0.49294(12)
C23 C 0.28814(13) -0.3297(2) 0.44627(15)
H9 H 0.2996 -0.2727 0.4226
C24 C 0.30185(12) -0.4366(2) 0.43460(15)
H10 H 0.3219 -0.4491 0.4023
C25 C 0.41478(11) -0.5862(3) 0.41950(13)
H11 H 0.4055 -0.6023 0.3789
C26 C 0.46037(11) -0.5450(3) 0.43183(14)
H12 H 0.4808 -0.5340 0.3999
C27 C 0.47554(10) -0.5202(2) 0.49184(13)
C28 C 0.44251(11) -0.5355(3) 0.53695(13)
H13 H 0.4505 -0.5180 0.5777
C29 C 0.39781(11) -0.5769(3) 0.52081(14)
H14 H 0.3763 -0.5866 0.5517
C30 C 0.10276(11) -0.6476(3) 0.55969(14)
H15 H 0.0862 -0.6947 0.5328
C31 C 0.07909(11) -0.5565(3) 0.58108(14)
H16 H 0.0472 -0.5445 0.5693
C32 C 0.10317(11) -0.4830(2) 0.62029(13)
C33 C 0.15100(11) -0.5062(2) 0.63528(14)
H17 H 0.1690 -0.4583 0.6602
C34 C 0.17146(11) -0.6001(2) 0.61308(14)
H18 H 0.2031 -0.6149 0.6246
C35 C 0.07964(11) -0.3864(2) 0.64696(14)
C36 C 0.09390(11) -0.3494(3) 0.70483(14)
H19 H 0.1193 -0.3831 0.7263
C37 C 0.07071(11) -0.2629(2) 0.73058(14)
H20 H 0.0807 -0.2398 0.7698
C38 C 0.02059(12) -0.2439(3) 0.64558(15)
H21 H -0.0045 -0.2075 0.6249
C39 C 0.04216(12) -0.3308(3) 0.61698(15)
H22 H 0.0316 -0.3521 0.5777
F1 F 0.02474(7) -0.38205(18) 0.33399(12)
F2 F 0.07353(7) -0.41580(16) 0.26309(9)
F3 F 0.05879(8) -0.53887(16) 0.33025(12)
F4 F 0.06408(9) -0.2990(2) 0.43930(11)
F5 F 0.13024(9) -0.3724(2) 0.46996(9)
F6 F 0.06921(8) -0.4739(2) 0.44729(11)
N1 N 0.28785(8) -0.52260(18) 0.46719(10)
N2 N 0.38383(8) -0.60380(18) 0.46306(10)
N3 N 0.14802(8) -0.67132(19) 0.57563(11)
N4 N 0.03446(9) -0.21052(19) 0.70195(11)
O1 O 0.31243(7) -0.64861(16) 0.35306(8)
O2 O 0.26838(7) -0.75476(16) 0.28901(9)
O3 O 0.25237(6) -0.75695(14) 0.43540(8)
O4 O 0.32316(6) -0.74382(15) 0.53740(8)
O5 O 0.04896(7) -0.03415(17) 0.22538(9)
O6 O 0.05539(7) 0.05874(15) 0.31218(8)
O7 O 0.15275(9) 0.1019(2) 0.25459(13)
O8 O 0.21317(8) 0.07778(19) 0.32331(11)
H23 H 0.2230 0.1345 0.3080
Ni1E Ni 0.182600(11) -0.82079(3) 0.551820(15)
Ni1D Ni 0.682600(11) -0.32079(3) 0.551820(15)
Ni1E_2 Ni 0.182600(11) 0.17921(3) 0.551820(15)
Ni1A Ni -0.182600(11) -1.17921(3) 0.448180(15)
Ni2G Ni 0.5000 -1.59252(4) 0.7500
Ni2F Ni 0.0000 -0.09252(4) 0.7500
C1E C 0.27076(10) -0.8907(2) 0.66199(12)
C2E C 0.30078(9) -0.8717(2) 0.61330(12)
C3E C 0.34006(10) -0.9401(2) 0.60526(13)
H1E H 0.3601 -0.9265 0.5731
C4E C 0.34968(10) -1.0278(2) 0.64449(13)
C5E C 0.32094(11) -1.0426(2) 0.69475(13)
H2E H 0.3278 -1.0988 0.7227
C6E C 0.28234(11) -0.9744(2) 0.70325(13)
H3E H 0.2638 -0.9848 0.7372
C7E C 0.22634(10) -0.8234(2) 0.67331(12)
C8E C 0.28994(9) -0.7796(2) 0.56803(11)
C9E C 0.39092(11) -1.1099(2) 0.63659(14)
C10E C 0.37586(10) -1.2278(2) 0.65400(14)
C11E C 0.40730(11) -1.3021(2) 0.68359(14)
H4E H 0.4385 -1.2806 0.6938
C12E C 0.39252(10) -1.4074(2) 0.69781(13)
C13E C 0.34553(11) -1.4398(2) 0.68403(14)
C14E C 0.31473(11) -1.3663(3) 0.65374(15)
H5E H 0.2835 -1.3875 0.6438
C15E C 0.32965(11) -1.2629(3) 0.63828(15)
H6E H 0.3087 -1.2158 0.6171
C16E C 0.43071(10) -1.4829(2) 0.72326(13)
C17E C 0.32748(11) -1.5491(3) 0.70493(15)
C18E C 0.43381(12) -1.0688(3) 0.67777(17)
C19E C 0.40671(13) -1.1161(3) 0.56990(16)
C20E C 0.24213(11) 0.0013(2) 0.48845(14)
H7E H 0.2529 0.0599 0.4654
C21E C 0.25802(11) -0.1023(2) 0.47487(14)
H8E H 0.2794 -0.1117 0.4438
C22E C 0.24244(10) -0.1931(2) 0.50706(12)
C23E C 0.21186(13) -0.1703(2) 0.55373(15)
H9E H 0.2004 -0.2273 0.5774
C24E C 0.19815(12) -0.0634(2) 0.56540(15)
H10E H 0.1781 -0.0509 0.5977
C25D C 0.58522(11) -0.4138(3) 0.58050(13)
C25E C 0.08522(11) -0.9138(3) 0.58050(13)
C25A C -0.08522(11) -1.0862(3) 0.41950(13)
H11D H 0.5945 -0.3977 0.6211
H11E H 0.0945 -0.8977 0.6211
H11A H -0.0945 -1.1023 0.3789
C26D C 0.53963(11) -0.4550(3) 0.56817(14)
C26E C 0.03963(11) -0.9550(3) 0.56817(14)
C26A C -0.03963(11) -1.0450(3) 0.43183(14)
H12D H 0.5192 -0.4660 0.6001
H12E H 0.0192 -0.9660 0.6001
H12A H -0.0192 -1.0340 0.3999
C27D C 0.52446(10) -0.4798(2) 0.50816(13)
C27E C 0.02446(10) -0.9798(2) 0.50816(13)
C27A C -0.02446(10) -1.0202(2) 0.49184(13)
C28D C 0.55749(11) -0.4645(3) 0.46305(13)
C28E C 0.05749(11) -0.9645(3) 0.46305(13)
C28A C -0.05749(11) -1.0355(3) 0.53695(13)
H13D H 0.5495 -0.4820 0.4223
H13E H 0.0495 -0.9820 0.4223
H13A H -0.0495 -1.0180 0.5777
C29D C 0.60219(11) -0.4231(3) 0.47919(14)
C29E C 0.10219(11) -0.9231(3) 0.47919(14)
C29A C -0.10219(11) -1.0769(3) 0.52081(14)
H14D H 0.6237 -0.4134 0.4483
H14E H 0.1237 -0.9134 0.4483
H14A H -0.1237 -1.0866 0.5517
F1E F 0.47526(7) -1.11795(18) 0.66601(12)
F2E F 0.42647(7) -1.08420(16) 0.73691(9)
F3E F 0.44121(8) -0.96113(16) 0.66975(12)
F4E F 0.43592(9) -1.2010(2) 0.56070(11)
F5E F 0.36976(9) -1.1276(2) 0.53004(9)
F6E F 0.43079(8) -1.0261(2) 0.55271(11)
N1E N 0.21215(8) 0.02260(18) 0.53281(10)
N1E_2 N 0.21215(8) -0.97740(18) 0.53281(10)
N2D N 0.61617(8) -0.39620(18) 0.53694(10)
N2E N 0.11617(8) -0.89620(18) 0.53694(10)
N2A N -0.11617(8) -1.10380(18) 0.46306(10)
N3E N 0.35198(8) -0.82868(19) 0.42437(11)
N4D N -0.03446(9) 0.21052(19) 0.29805(11)
N4F N 0.03446(9) 0.21052(19) 0.20195(11)
O1E O 0.18757(7) -0.85139(16) 0.64694(8)
O2E O 0.23162(7) -0.74524(16) 0.71099(9)
O3E O 0.24763(6) -0.74305(14) 0.56460(8)
O4E O 0.17684(6) -0.75618(15) 0.46260(8)
O5E O 0.45104(7) -1.46585(17) 0.77462(9)
O5B O -0.04896(7) -0.03415(17) 0.27462(9)
O6E O 0.44461(7) -1.55874(15) 0.68782(8)
O6B O -0.05539(7) 0.05874(15) 0.18782(8)
O7E O 0.34725(9) -1.6019(2) 0.74541(13)
O8E O 0.28683(8) -1.57778(19) 0.67669(11)
H23E H 0.2770 -1.6345 0.6920
O9 O 0.20349(10) -0.7282(2) 0.18616(11)
H24 H 0.2223 -0.7238 0.2162
H25 H 0.1814 -0.7700 0.1936
loop_
_geom_bond_atom_site_label_1
_geom_bond_atom_site_label_2
_geom_bond_site_symmetry_1
_geom_bond_site_symmetry_2
Ni1 N1 1_555 1_555
Ni2 O5 1_555 1_555
C1 C2 1_555 1_555
C2 C3 1_555 1_555
C3 H1 1_555 1_555
C4 C3 1_555 1_555
C5 C4 1_555 1_555
H2 C5 1_555 1_555
C6 C1 1_555 1_555
H3 C6 1_555 1_555
C7 C1 1_555 1_555
C8 C2 1_555 1_555
C9 C4 1_555 1_555
C10 C9 1_555 1_555
C11 C10 1_555 1_555
H4 C11 1_555 1_555
C12 C11 1_555 1_555
C13 C12 1_555 1_555
C14 C13 1_555 1_555
H5 C14 1_555 1_555
C15 C10 1_555 1_555
H6 C15 1_555 1_555
C16 C12 1_555 1_555
C17 C13 1_555 1_555
C18 C9 1_555 1_555
C19 C9 1_555 1_555
C20 H7 1_555 1_555
C21 C20 1_555 1_555
H8 C21 1_555 1_555
C22 C21 1_555 1_555
C23 C22 1_555 1_555
H9 C23 1_555 1_555
C24 C23 1_555 1_555
H10 C24 1_555 1_555
C25 H11 1_555 1_555
C26 C25 1_555 1_555
H12 C26 1_555 1_555
C27 C26 1_555 1_555
C28 C27 1_555 1_555
H13 C28 1_555 1_555
C29 C28 1_555 1_555
H14 C29 1_555 1_555
C30 H15 1_555 1_555
C31 C30 1_555 1_555
H16 C31 1_555 1_555
C32 C31 1_555 1_555
C33 C32 1_555 1_555
H17 C33 1_555 1_555
C34 C33 1_555 1_555
H18 C34 1_555 1_555
C35 C32 1_555 1_555
C36 C35 1_555 1_555
H19 C36 1_555 1_555
C37 C36 1_555 1_555
H20 C37 1_555 1_555
C38 H21 1_555 1_555
C39 C35 1_555 1_555
H22 C39 1_555 1_555
F1 C18 1_555 1_555
F2 C18 1_555 1_555
F3 C18 1_555 1_555
F4 C19 1_555 1_555
F5 C19 1_555 1_555
F6 C19 1_555 1_555
N1 C20 1_555 1_555
N2 Ni1 1_555 1_555
N3 C30 1_555 1_555
N4 C37 1_555 1_555
O1 Ni1 1_555 1_555
O2 C7 1_555 1_555
O3 Ni1 1_555 1_555
O4 Ni1 1_555 1_555
O5 C16 1_555 1_555
O6 Ni2 1_555 1_555
O7 C17 1_555 1_555
O8 C17 1_555 1_555
H23 O8 1_555 1_555
O9 H24 1_555 1_555
H25 O9 1_555 1_555
Ni1E N3 1_555 1_555
Ni1D N2D 1_555 1_555
Ni1E_2 N1E 1_555 1_555
Ni1A N2A 1_555 1_555
Ni2G O5E 1_555 1_555
Ni2F N4 1_555 1_555
C1E C2E 1_555 1_555
C2E C3E 1_555 1_555
C3E H1E 1_555 1_555
C4E C3E 1_555 1_555
C5E C4E 1_555 1_555
H2E C5E 1_555 1_555
C6E C1E 1_555 1_555
H3E C6E 1_555 1_555
C7E C1E 1_555 1_555
C8E O4 1_555 1_555
C9E C4E 1_555 1_555
C10E C9E 1_555 1_555
C11E C10E 1_555 1_555
H4E C11E 1_555 1_555
C12E C11E 1_555 1_555
C13E C12E 1_555 1_555
C14E C13E 1_555 1_555
H5E C14E 1_555 1_555
C15E C10E 1_555 1_555
H6E C15E 1_555 1_555
C16E C12E 1_555 1_555
C17E C13E 1_555 1_555
C18E C9E 1_555 1_555
C19E C9E 1_555 1_555
C20E H7E 1_555 1_555
C21E C20E 1_555 1_555
H8E C21E 1_555 1_555
C22E C22 1_555 1_555
C23E C22E 1_555 1_555
H9E C23E 1_555 1_555
C24E C23E 1_555 1_555
H10E C24E 1_555 1_555
C25D H11D 1_555 1_555
C25E H11E 1_555 1_555
C25A H11A 1_555 1_555
C26D C25D 1_555 1_555
C26E C25E 1_555 1_555
C26A C25A 1_555 1_555
H12D C26D 1_555 1_555
H12E C26E 1_555 1_555
H12A C26A 1_555 1_555
C27D C27 1_555 1_555
C27E C26E 1_555 1_555
C27A C26A 1_555 1_555
C28D C27D 1_555 1_555
C28E C27E 1_555 1_555
C28A C27A 1_555 1_555
H13D C28D 1_555 1_555
H13E C28E 1_555 1_555
H13A C28A 1_555 1_555
C29D C28D 1_555 1_555
C29E C28E 1_555 1_555
C29A C28A 1_555 1_555
H14D C29D 1_555 1_555
H14E C29E 1_555 1_555
H14A C29A 1_555 1_555
F1E C18E 1_555 1_555
F2E C18E 1_555 1_555
F3E C18E 1_555 1_555
F4E C19E 1_555 1_555
F5E C19E 1_555 1_555
F6E C19E 1_555 1_555
N1E C20E 1_555 1_555
N1E_2 Ni1E 1_555 1_555
N2D C25D 1_555 1_555
N2E Ni1E 1_555 1_555
N2A C25A 1_555 1_555
N3E Ni1 1_555 1_555
N4D Ni2 1_555 1_555
N4F Ni2 1_555 1_555
O1E Ni1E 1_555 1_555
O2E C7E 1_555 1_555
O3E Ni1E 1_555 1_555
O4E C8 1_555 1_555
O5E C16E 1_555 1_555
O5B Ni2 1_555 1_555
O6E Ni2G 1_555 1_555
O6B Ni2 1_555 1_555
O7E C17E 1_555 1_555
O8E C17E 1_555 1_555
H23E O8E 1_555 1_555
C5 C6 1_555 1_555
C7 O1 1_555 1_555
C8 O3 1_555 1_555
C14 C15 1_555 1_555
C16 O6 1_555 1_555
C24 N1 1_555 1_555
C25 N2 1_555 1_555
C29 N2 1_555 1_555
C34 N3 1_555 1_555
C38 C39 1_555 1_555
C38 N4 1_555 1_555
Ni1E O4E 1_555 1_555
C2E C8E 1_555 1_555
C5E C6E 1_555 1_555
C7E O1E 1_555 1_555
C8E O3E 1_555 1_555
C14E C15E 1_555 1_555
C16E O6E 1_555 1_555
C21E C22E 1_555 1_555
C24E N1E 1_555 1_555
C25E N2E 1_555 1_555
C26D C27D 1_555 1_555
C27E C27A 1_555 1_555
C29D N2D 1_555 1_555
C29E N2E 1_555 1_555
C29A N2A 1_555 1_555

#END
