
#######################################################################
#
#                 Cambridge Crystallographic Data Centre
#                                CCDC 
#
#######################################################################
#
# If this CIF has been generated from an entry in the Cambridge 
# Structural Database, then it will include bibliographic, chemical, 
# crystal, experimental, refinement or atomic coordinate data resulting 
# from the CCDC's data processing and validation procedures.
#
#######################################################################

data_KIYRUH
_symmetry_cell_setting           triclinic
_symmetry_space_group_name_H-M   'P -1'
_symmetry_Int_Tables_number      2
_space_group_name_Hall           '-P 1'
loop_
_symmetry_equiv_pos_site_id
_symmetry_equiv_pos_as_xyz
1 x,y,z
2 -x,-y,-z
_cell_length_a                   10.1306(4)
_cell_length_b                   10.1685(4)
_cell_length_c                   11.9873(5)
_cell_angle_alpha                83.831(2)
_cell_angle_beta                 78.767(2)
_cell_angle_gamma                81.005(2)
_cell_volume                     1192.51
loop_
_atom_site_label
_atom_site_type_symbol
_atom_site_fract_x
_atom_site_fract_y
_atom_site_fract_z
Cd1 Cd 0.5000 1.0000 0.5000
Cd2 Cd 0.138184(10) 1.076080(10) 0.289607(9)
O1 O 0.65193(12) 0.83670(12) 0.41449(11)
H1 H 0.7123(18) 0.818(2) 0.4530(18)
H2 H 0.621(2) 0.7691(16) 0.406(2)
O2 O 0.66235(12) 1.13400(12) 0.46520(10)
H3 H 0.705(2) 1.127(2) 0.5178(15)
H4 H 0.724(2) 1.120(3) 0.4108(16)
O3 O 0.40917(11) 1.06499(12) 0.33493(9)
O4 O 0.34152(11) 1.07649(12) 0.16803(9)
C1 C 0.43135(14) 1.07415(15) 0.22856(13)
C2 C 0.57057(14) 1.08446(15) 0.16495(13)
O5 O 0.66788(10) 1.09040(11) 0.22792(9)
C3 C 0.78678(14) 1.09573(15) 0.15177(13)
C4 C 0.76657(15) 1.09334(16) 0.04330(13)
H5 H 0.8330 1.0960 -0.0246
C5 C 0.62582(15) 1.08610(16) 0.05196(13)
H6 H 0.5795 1.0830 -0.0092
C6 C 0.91013(15) 1.09572(15) 0.20149(13)
O6 O 1.02148(11) 1.09488(12) 0.13385(10)
O7 O 0.89728(11) 1.09553(13) 0.30812(10)
O8 O 0.17297(12) 0.87734(11) 0.37671(10)
O9 O 0.09220(13) 0.79406(12) 0.24285(10)
C7 C 0.13564(15) 0.78284(15) 0.33427(14)
C8 C 0.14963(15) 0.65186(15) 0.40074(13)
O10 O 0.13218(11) 0.54377(11) 0.34954(9)
C9 C 0.14905(15) 0.43582(15) 0.42643(13)
C10 C 0.17535(15) 0.47411(15) 0.52411(14)
H7 H 0.1903 0.4180 0.5904
C11 C 0.17611(15) 0.61446(16) 0.50762(14)
H8 H 0.1919 0.6709 0.5605
C12 C 0.13746(14) 0.30441(15) 0.38966(14)
O11 O 0.12012(12) 0.30101(12) 0.28837(10)
O12 O 0.14691(11) 0.20387(11) 0.45878(10)
Cd2A Cd 0.861816(10) 0.923920(10) 0.710393(9)
O1A O 0.34807(12) 1.16330(12) 0.58551(11)
H1A H 0.2877(18) 1.182(2) 0.5470(18)
H2A H 0.379(2) 1.2309(16) 0.594(2)
O2A O 0.33765(12) 0.86600(12) 0.53480(10)
H3A H 0.295(2) 0.873(2) 0.4822(15)
H4A H 0.276(2) 0.880(3) 0.5892(16)
O3A O 0.59083(11) 0.93501(12) 0.66507(9)
O4A O 0.65848(11) 0.92351(12) 0.83197(9)
C1A C 0.56865(14) 0.92585(15) 0.77144(13)
C2A C 0.42943(14) 0.91554(15) 0.83505(13)
O5A O 0.33212(10) 0.90960(11) 0.77208(9)
C3A C 0.21322(14) 0.90427(15) 0.84823(13)
C4A C 0.23343(15) 0.90666(16) 0.95670(13)
H5A H 0.1670 0.9040 1.0246
C5A C 0.37418(15) 0.91390(16) 0.94804(13)
H6A H 0.4205 0.9170 1.0092
C6A C 0.08987(15) 0.90428(15) 0.79851(13)
O6A O -0.02148(11) 0.90512(12) 0.86615(10)
O7A O 0.10272(11) 0.90447(13) 0.69188(10)
O8A O 0.82703(12) 1.12266(11) 0.62329(10)
O9A O 0.90780(13) 1.20594(12) 0.75715(10)
C7A C 0.86436(15) 1.21716(15) 0.66573(14)
C8A C 0.85037(15) 1.34814(15) 0.59926(13)
O10A O 0.86782(11) 1.45623(11) 0.65046(9)
C9A C 0.85095(15) 1.56418(15) 0.57357(13)
C10A C 0.82465(15) 1.52589(15) 0.47589(14)
H7A H 0.8097 1.5820 0.4096
C11A C 0.82389(15) 1.38554(16) 0.49238(14)
H8A H 0.8081 1.3291 0.4395
C12A C 0.86254(14) 1.69559(15) 0.61034(14)
O11A O 0.87988(12) 1.69899(12) 0.71163(10)
O12A O 0.85309(11) 1.79613(11) 0.54122(10)
Cd2_2 Cd 0.138184(10) 0.076080(10) 0.289607(9)
Cd2_3 Cd 1.138184(10) 1.076080(10) 0.289607(9)
Cd2A_2 Cd -0.138184(10) 0.923920(10) 0.710393(9)
Cd2A_3 Cd 0.861816(10) 1.923920(10) 0.710393(9)
O6_2 O 0.02148(11) 1.09488(12) 0.13385(10)
O6A_2 O 0.97852(11) 0.90512(12) 0.86615(10)
O7_2 O -0.10272(11) 1.09553(13) 0.30812(10)
O7A_2 O 1.10272(11) 0.90447(13) 0.69188(10)
O11_2 O 0.12012(12) 1.30101(12) 0.28837(10)
O11A_2 O 0.87988(12) 0.69899(12) 0.71163(10)
O12_2 O 0.14691(11) 1.20387(11) 0.45878(10)
O12A_2 O 0.85309(11) 0.79613(11) 0.54122(10)
N1 N 0.94572(14) 0.65255(14) 1.15467(12)
C13 C 0.93519(17) 0.52171(17) 1.16902(14)
H9 H 0.9839 0.4647 1.2198
C14 C 0.85397(17) 0.47003(17) 1.11025(14)
H10 H 0.8456 0.3776 1.1218
C15 C 0.78340(16) 0.55245(16) 1.03332(13)
C16 C 0.79694(17) 0.68849(17) 1.02103(15)
H11 H 0.7502 0.7480 0.9704
C17 C 0.87836(17) 0.73544(17) 1.08278(14)
H12 H 0.8872 0.8278 1.0746
C18 C 0.70498(17) 0.49192(17) 0.96723(14)
H13 H 0.6931 0.4011 0.9876
C19 C 0.64889(16) 0.55410(17) 0.88070(14)
H14 H 0.6557 0.6465 0.8635
C20 C 0.57742(15) 0.49136(16) 0.80983(13)
C21 C 0.56379(18) 0.35595(18) 0.82371(15)
H15 H 0.6000 0.2997 0.8823
C22 C 0.49748(18) 0.30399(18) 0.75192(16)
H16 H 0.4895 0.2115 0.7632
N2 N 0.44385(15) 0.37586(15) 0.66753(13)
C23 C 0.45794(18) 0.50548(18) 0.65342(15)
H17 H 0.4221 0.5586 0.5932
C24 C 0.52190(17) 0.56675(17) 0.72172(14)
H18 H 0.5279 0.6596 0.7085
loop_
_geom_bond_atom_site_label_1
_geom_bond_atom_site_label_2
_geom_bond_site_symmetry_1
_geom_bond_site_symmetry_2
Cd1 O1 1_555 1_555
Cd2 O4 1_555 1_555
O1 H1 1_555 1_555
H2 O1 1_555 1_555
O2 Cd1 1_555 1_555
H3 O2 1_555 1_555
H4 O2 1_555 1_555
O3 Cd1 1_555 1_555
O4 C1 1_555 1_555
C1 O3 1_555 1_555
C2 C1 1_555 1_555
O5 C2 1_555 1_555
C3 O5 1_555 1_555
C4 C3 1_555 1_555
H5 C4 1_555 1_555
C5 C2 1_555 1_555
H6 C5 1_555 1_555
C6 C3 1_555 1_555
O6 C6 1_555 1_555
O7 C6 1_555 1_555
O8 Cd2 1_555 1_555
O9 C7 1_555 1_555
C7 O8 1_555 1_555
C8 C7 1_555 1_555
O10 C8 1_555 1_555
C9 O10 1_555 1_555
C10 C9 1_555 1_555
H7 C10 1_555 1_555
C11 C8 1_555 1_555
H8 C11 1_555 1_555
C12 C9 1_555 1_555
O11 C12 1_555 1_555
O12 C12 1_555 1_555
N1 C13 1_555 1_555
C13 H9 1_555 1_555
C14 C13 1_555 1_555
H10 C14 1_555 1_555
C15 C14 1_555 1_555
C16 C15 1_555 1_555
H11 C16 1_555 1_555
C17 N1 1_555 1_555
H12 C17 1_555 1_555
C18 C15 1_555 1_555
H13 C18 1_555 1_555
C19 C18 1_555 1_555
H14 C19 1_555 1_555
C20 C19 1_555 1_555
C21 C20 1_555 1_555
H15 C21 1_555 1_555
C22 C21 1_555 1_555
H16 C22 1_555 1_555
N2 C22 1_555 1_555
C23 N2 1_555 1_555
H17 C23 1_555 1_555
C24 C20 1_555 1_555
H18 C24 1_555 1_555
Cd2A O4A 1_555 1_555
O1A Cd1 1_555 1_555
H1A O1A 1_555 1_555
H2A O1A 1_555 1_555
O2A Cd1 1_555 1_555
H3A O2A 1_555 1_555
H4A O2A 1_555 1_555
O3A Cd1 1_555 1_555
O4A C1A 1_555 1_555
C1A O3A 1_555 1_555
C2A C1A 1_555 1_555
O5A C2A 1_555 1_555
C3A O5A 1_555 1_555
C4A C3A 1_555 1_555
H5A C4A 1_555 1_555
C5A C2A 1_555 1_555
H6A C5A 1_555 1_555
C6A C3A 1_555 1_555
O6A C6A 1_555 1_555
O7A C6A 1_555 1_555
O8A Cd2A 1_555 1_555
O9A C7A 1_555 1_555
C7A O8A 1_555 1_555
C8A C7A 1_555 1_555
O10A C8A 1_555 1_555
C9A O10A 1_555 1_555
C10A C9A 1_555 1_555
H7A C10A 1_555 1_555
C11A C8A 1_555 1_555
H8A C11A 1_555 1_555
C12A C9A 1_555 1_555
O11A C12A 1_555 1_555
O12A C12A 1_555 1_555
Cd2_2 O11 1_555 1_555
Cd2_3 O6 1_555 1_555
Cd2A_2 O6A 1_555 1_555
Cd2A_3 O11A 1_555 1_555
O6_2 Cd2 1_555 1_555
O6A_2 Cd2A 1_555 1_555
O7_2 Cd2 1_555 1_555
O7A_2 Cd2A 1_555 1_555
O11_2 Cd2 1_555 1_555
O11A_2 Cd2A 1_555 1_555
O12_2 Cd2 1_555 1_555
O12A_2 Cd2A 1_555 1_555
C4 C5 1_555 1_555
O7 Cd2_3 1_555 1_555
C10 C11 1_555 1_555
O12 Cd2_2 1_555 1_555
C16 C17 1_555 1_555
C23 C24 1_555 1_555
C4A C5A 1_555 1_555
O7A Cd2A_2 1_555 1_555
C10A C11A 1_555 1_555
O12A Cd2A_3 1_555 1_555

#END
