
#######################################################################
#
#                 Cambridge Crystallographic Data Centre
#                                CCDC 
#
#######################################################################
#
# If this CIF has been generated from an entry in the Cambridge 
# Structural Database, then it will include bibliographic, chemical, 
# crystal, experimental, refinement or atomic coordinate data resulting 
# from the CCDC's data processing and validation procedures.
#
#######################################################################

data_KIYROB
_symmetry_cell_setting           triclinic
_symmetry_space_group_name_H-M   'P -1'
_symmetry_Int_Tables_number      2
_space_group_name_Hall           '-P 1'
loop_
_symmetry_equiv_pos_site_id
_symmetry_equiv_pos_as_xyz
1 x,y,z
2 -x,-y,-z
_cell_length_a                   9.9344(6)
_cell_length_b                   11.6032(6)
_cell_length_c                   16.4640(10)
_cell_angle_alpha                76.643(3)
_cell_angle_beta                 82.486(3)
_cell_angle_gamma                75.074(2)
_cell_volume                     1779.05
loop_
_atom_site_label
_atom_site_type_symbol
_atom_site_fract_x
_atom_site_fract_y
_atom_site_fract_z
Cd1 Cd 0.361521(17) -0.761494(15) -0.004914(11)
Cd2 Cd 0.206450(17) 0.166273(15) -0.484627(11)
O1 O 0.4226(2) -0.86279(18) -0.11440(13)
H1 H 0.502(3) -0.852(5) -0.130(3)
H2 H 0.425(4) -0.9360(12) -0.098(2)
O2 O 0.23239(18) -0.90258(18) 0.07353(12)
O3 O 0.11518(19) -0.74617(18) -0.01442(14)
C1 C 0.1218(2) -0.8427(2) 0.03891(17)
C2 C -0.0045(2) -0.8910(2) 0.06489(16)
O4 O -0.12591(16) -0.82158(15) 0.03282(11)
C3 C -0.2250(2) -0.8858(2) 0.06433(16)
C4 C -0.1686(3) -0.9928(2) 0.11458(16)
H3 H -0.2159 -1.0535 0.1438
C5 C -0.0248(3) -0.9967(2) 0.11506(17)
H4 H 0.0434 -1.0603 0.1445
C6 C -0.3683(2) -0.8301(2) 0.03852(16)
O5 O -0.45850(17) -0.89189(16) 0.06879(13)
O6 O -0.39616(19) -0.72967(18) -0.00950(13)
O7 O 0.2696(2) 0.01477(18) -0.56358(13)
O8 O 0.45617(19) 0.15101(17) -0.48089(13)
O9 O 0.32593(19) 0.31652(18) -0.55373(14)
C7 C 0.4399(3) 0.2558(2) -0.52626(17)
C8 C 0.5626(2) 0.3101(2) -0.54901(16)
O10 O 0.68707(17) 0.23344(15) -0.52618(11)
C9 C 0.7879(2) 0.2965(2) -0.55347(16)
C10 C 0.7292(3) 0.4124(2) -0.59270(17)
H5 H 0.7762 0.4752 -0.6172
C11 C 0.5833(3) 0.4205(2) -0.58960(18)
H6 H 0.5138 0.4900 -0.6117
C12 C 0.9309(3) 0.2289(2) -0.53221(17)
O11 O 0.9454(2) 0.13202(19) -0.47903(14)
O12 O 1.02955(18) 0.27648(17) -0.56812(12)
N1 N 0.3276(2) -0.58215(19) -0.10604(14)
C13 C 0.4347(3) -0.5416(2) -0.14823(18)
H7 H 0.5254 -0.5943 -0.1441
C14 C 0.4213(3) -0.4263(2) -0.19789(18)
H8 H 0.5012 -0.4013 -0.2273
C15 C 0.2899(3) -0.3471(2) -0.20449(16)
C16 C 0.1777(3) -0.3895(2) -0.15961(19)
H9 H 0.0861 -0.3382 -0.1615
C17 C 0.2003(3) -0.5065(3) -0.11232(19)
H10 H 0.1223 -0.5349 -0.0829
C18 C 0.2699(3) -0.2234(2) -0.25862(16)
C19 C 0.3787(3) -0.1651(2) -0.28382(18)
H11 H 0.4679 -0.2015 -0.2629
C20 C 0.3569(3) -0.0544(2) -0.33929(18)
H12 H 0.4330 -0.0164 -0.3564
N2 N 0.2334(2) 0.00190(19) -0.37007(14)
C21 C 0.1267(3) -0.0512(2) -0.34351(17)
H13 H 0.0375 -0.0106 -0.3633
C22 C 0.1406(3) -0.1625(2) -0.28848(17)
H14 H 0.0621 -0.1973 -0.2712
N3 N 0.1015(3) 0.2868(2) -0.38407(14)
C23 C 0.1279(3) 0.2587(3) -0.30288(19)
H15 H 0.2018 0.1906 -0.2847
C24 C 0.0530(3) 0.3238(3) -0.24472(19)
H16 H 0.0740 0.2999 -0.1877
C25 C -0.0539(3) 0.4251(2) -0.27081(17)
C26 C -0.0802(3) 0.4559(2) -0.35482(17)
H17 H -0.1514 0.5252 -0.3751
C27 C -0.0014(3) 0.3844(2) -0.40818(17)
H18 H -0.0212 0.4056 -0.4654
C28 C -0.1386(3) 0.4990(2) -0.21143(17)
C29 C -0.1715(3) 0.6263(2) -0.23382(17)
H19 H -0.1443 0.6667 -0.2882
C30 C -0.2442(3) 0.6919(2) -0.17536(17)
H20 H -0.2636 0.7783 -0.1903
N4 N -0.2889(2) 0.6401(2) -0.09870(15)
C31 C -0.2635(3) 0.5182(3) -0.07984(19)
H21 H -0.3001 0.4803 -0.0271
C32 C -0.1874(3) 0.4449(3) -0.13274(19)
H22 H -0.1686 0.3587 -0.1157
Cd1_2 Cd -0.638479(17) -0.761494(15) -0.004914(11)
Cd1A Cd -0.361521(17) 0.761494(15) 0.004914(11)
Cd2_2 Cd 1.206450(17) 0.166273(15) -0.484627(11)
O5_2 O 0.54150(17) -0.89189(16) 0.06879(13)
O6_2 O 0.60384(19) -0.72967(18) -0.00950(13)
O11_2 O -0.0546(2) 0.13202(19) -0.47903(14)
O12_2 O 0.02955(18) 0.27648(17) -0.56812(12)
N4A N 0.2889(2) -0.6401(2) 0.09870(15)
O13 O 0.6946(2) 0.1288(2) 0.82488(15)
H23 H 0.737(4) 0.0517(19) 0.854(2)
C33 C 0.7191(6) 0.1285(5) 0.7381(3)
H24 H 0.6856 0.0614 0.7258
H25 H 0.8205 0.1150 0.7217
C34 C 0.6437(7) 0.2481(5) 0.6892(3)
H26 H 0.5428 0.2538 0.6969
H27 H 0.6746 0.2542 0.6296
H28 H 0.6642 0.3148 0.7089
loop_
_geom_bond_atom_site_label_1
_geom_bond_atom_site_label_2
_geom_bond_site_symmetry_1
_geom_bond_site_symmetry_2
Cd1 O1 1_555 1_555
Cd2 O7 1_555 1_555
O1 H1 1_555 1_555
H2 O1 1_555 1_555
O2 Cd1 1_555 1_555
O3 Cd1 1_555 1_555
C1 O2 1_555 1_555
C2 C1 1_555 1_555
O4 C2 1_555 1_555
C3 O4 1_555 1_555
C4 C3 1_555 1_555
H3 C4 1_555 1_555
C5 C2 1_555 1_555
H4 C5 1_555 1_555
C6 C3 1_555 1_555
O5 C6 1_555 1_555
O6 C6 1_555 1_555
O8 Cd2 1_555 1_555
O9 Cd2 1_555 1_555
C7 O8 1_555 1_555
C8 C7 1_555 1_555
O10 C8 1_555 1_555
C9 O10 1_555 1_555
C10 C9 1_555 1_555
H5 C10 1_555 1_555
C11 C8 1_555 1_555
H6 C11 1_555 1_555
C12 C9 1_555 1_555
O11 C12 1_555 1_555
O12 C12 1_555 1_555
N1 Cd1 1_555 1_555
C13 N1 1_555 1_555
H7 C13 1_555 1_555
C14 C13 1_555 1_555
H8 C14 1_555 1_555
C15 C14 1_555 1_555
C16 C15 1_555 1_555
H9 C16 1_555 1_555
C17 N1 1_555 1_555
H10 C17 1_555 1_555
C18 C15 1_555 1_555
C19 C18 1_555 1_555
H11 C19 1_555 1_555
C20 C19 1_555 1_555
H12 C20 1_555 1_555
N2 Cd2 1_555 1_555
C21 N2 1_555 1_555
H13 C21 1_555 1_555
C22 C18 1_555 1_555
H14 C22 1_555 1_555
N3 Cd2 1_555 1_555
C23 N3 1_555 1_555
H15 C23 1_555 1_555
C24 C23 1_555 1_555
H16 C24 1_555 1_555
C25 C24 1_555 1_555
C26 C25 1_555 1_555
H17 C26 1_555 1_555
C27 N3 1_555 1_555
H18 C27 1_555 1_555
C28 C25 1_555 1_555
C29 C28 1_555 1_555
H19 C29 1_555 1_555
C30 C29 1_555 1_555
H20 C30 1_555 1_555
N4 C30 1_555 1_555
C31 N4 1_555 1_555
H21 C31 1_555 1_555
C32 C28 1_555 1_555
H22 C32 1_555 1_555
O13 H23 1_555 1_555
C33 O13 1_555 1_555
H24 C33 1_555 1_555
H25 C33 1_555 1_555
C34 C33 1_555 1_555
H26 C34 1_555 1_555
H27 C34 1_555 1_555
H28 C34 1_555 1_555
Cd1_2 O5 1_555 1_555
Cd1A N4 1_555 1_555
Cd2_2 O11 1_555 1_555
O5_2 Cd1 1_555 1_555
O6_2 Cd1 1_555 1_555
O11_2 Cd2 1_555 1_555
O12_2 Cd2 1_555 1_555
N4A Cd1 1_555 1_555
O3 C1 1_555 1_555
C4 C5 1_555 1_555
O6 Cd1_2 1_555 1_555
O9 C7 1_555 1_555
C10 C11 1_555 1_555
O12 Cd2_2 1_555 1_555
C16 C17 1_555 1_555
C20 N2 1_555 1_555
C21 C22 1_555 1_555
C26 C27 1_555 1_555
C31 C32 1_555 1_555

#END
