
#######################################################################
#
#                 Cambridge Crystallographic Data Centre
#                                CCDC 
#
#######################################################################
#
# If this CIF has been generated from an entry in the Cambridge 
# Structural Database, then it will include bibliographic, chemical, 
# crystal, experimental, refinement or atomic coordinate data resulting 
# from the CCDC's data processing and validation procedures.
#
#######################################################################

data_KIYRIV
_symmetry_cell_setting           monoclinic
_symmetry_space_group_name_H-M   'P 21/n'
_symmetry_Int_Tables_number      14
_space_group_name_Hall           '-P 2yn'
loop_
_symmetry_equiv_pos_site_id
_symmetry_equiv_pos_as_xyz
1 x,y,z
2 1/2-x,1/2+y,1/2-z
3 -x,-y,-z
4 1/2+x,1/2-y,1/2+z
_cell_length_a                   9.9478(3)
_cell_length_b                   10.9061(3)
_cell_length_c                   18.6373(6)
_cell_angle_alpha                90
_cell_angle_beta                 103.2360(10)
_cell_angle_gamma                90
_cell_volume                     1968.28
loop_
_atom_site_label
_atom_site_type_symbol
_atom_site_fract_x
_atom_site_fract_y
_atom_site_fract_z
Cd1 Cd 0.126220(12) 0.291028(11) 0.164196(7)
O1 O 0.08789(14) 0.11063(12) 0.10459(7)
H1 H 0.1572(19) 0.071(2) 0.1023(17)
H2 H 0.034(2) 0.102(2) 0.0641(8)
O2 O 0.19742(15) 0.16348(13) 0.26114(7)
H3 H 0.192(2) 0.0886(9) 0.2639(13)
H4 H 0.212(3) 0.194(2) 0.3022(7)
O3 O 0.38830(14) 0.27284(12) 0.14593(8)
O4 O 0.30911(12) 0.41330(12) 0.21232(8)
C1 C 0.40667(18) 0.35878(16) 0.19192(10)
C2 C 0.54827(17) 0.40116(16) 0.22524(10)
O5 O 0.65111(12) 0.34656(12) 0.19976(7)
C3 C 0.77098(17) 0.40200(16) 0.23463(9)
C4 C 0.74571(17) 0.48906(17) 0.28216(10)
H5 H 0.8117 0.5402 0.3132
C5 C 0.60085(17) 0.48806(17) 0.27611(10)
H6 H 0.5506 0.5383 0.3024
C6 C 0.89570(17) 0.36091(16) 0.21130(9)
O6 O 0.88433(12) 0.27687(12) 0.16391(7)
O7 O 1.00898(12) 0.41433(12) 0.23750(7)
N1 N 0.04539(16) 0.41797(14) 0.05807(8)
C7 C -0.08922(19) 0.43432(17) 0.02745(10)
H7 H -0.1556 0.3890 0.0459
C8 C 0.13432(19) 0.48460(18) 0.03042(10)
H8 H 0.2305 0.4763 0.0508
N1B N -0.04539(16) 0.58203(14) -0.05807(8)
C7B C 0.08922(19) 0.56568(17) -0.02745(10)
H7B H 0.1556 0.6110 -0.0459
C8B C -0.13432(19) 0.51540(18) -0.03042(10)
H8B H -0.2305 0.5237 -0.0508
Cd1B Cd -0.126220(12) 0.708972(11) -0.164196(7)
O1B O -0.08789(14) 0.88937(12) -0.10459(7)
H1B H -0.1572(19) 0.929(2) -0.1023(17)
H2B H -0.034(2) 0.898(2) -0.0641(8)
O2B O -0.19742(15) 0.83652(13) -0.26114(7)
H3B H -0.192(2) 0.9114(9) -0.2639(13)
H4B H -0.212(3) 0.806(2) -0.3022(7)
O3B O -0.38830(14) 0.72716(12) -0.14593(8)
O4B O -0.30911(12) 0.58670(12) -0.21232(8)
C1B C -0.40667(18) 0.64122(16) -0.19192(10)
C2B C -0.54827(17) 0.59884(16) -0.22524(10)
O5B O -0.65111(12) 0.65344(12) -0.19976(7)
C3B C -0.77098(17) 0.59800(16) -0.23463(9)
C4B C -0.74571(17) 0.51094(17) -0.28216(10)
H5B H -0.8117 0.4598 -0.3132
C5B C -0.60085(17) 0.51194(17) -0.27611(10)
H6B H -0.5506 0.4617 -0.3024
C6B C -0.89570(17) 0.63909(16) -0.21130(9)
O6B O -0.88433(12) 0.72313(12) -0.16391(7)
O7B O -1.00898(12) 0.58567(12) -0.23750(7)
Cd1_2 Cd 1.126220(12) 0.291028(11) 0.164196(7)
Cd1B_2 Cd -1.126220(12) 0.708972(11) -0.164196(7)
O6_2 O -0.11567(12) 0.27687(12) 0.16391(7)
O6B_2 O 0.11567(12) 0.72313(12) -0.16391(7)
O7_2 O 0.00898(12) 0.41433(12) 0.23750(7)
O7B_2 O -0.00898(12) 0.58567(12) -0.23750(7)
Cd2 Cd 0.368680(12) 0.896221(12) 0.034112(7)
O8 O 0.37103(14) 1.02081(13) 0.13357(7)
H9 H 0.405(3) 0.992(2) 0.1744(8)
H10 H 0.395(3) 1.0930(11) 0.1338(15)
O9 O 0.35541(16) 0.80178(17) -0.07481(9)
H11 H 0.4220(19) 0.773(2) -0.0872(15)
H12 H 0.2826(18) 0.778(2) -0.1024(13)
O10 O 0.24637(12) 0.76348(12) 0.10243(7)
O11 O 0.12650(12) 0.88508(12) 0.01658(7)
C9 C 0.13364(17) 0.80934(16) 0.06868(9)
C10 C 0.00688(16) 0.77298(16) 0.09161(9)
O12 O -0.11289(12) 0.83099(11) 0.05820(7)
C11 C -0.21356(17) 0.78020(16) 0.08714(10)
C12 C -0.16138(17) 0.69213(17) 0.13717(10)
H13 H -0.2110 0.6436 0.1647
C13 C -0.01786(17) 0.68715(16) 0.14008(10)
H14 H 0.0480 0.6344 0.1699
C14 C -0.35508(17) 0.82965(17) 0.06368(10)
O13 O -0.44654(13) 0.77910(14) 0.08979(8)
O14 O -0.37990(14) 0.91790(13) 0.02001(8)
Cd2_2 Cd -0.631320(12) 0.896221(12) 0.034112(7)
Cd2B Cd -0.368680(12) 1.103779(12) -0.034112(7)
O13_2 O 0.55346(13) 0.77910(14) 0.08979(8)
O14_2 O 0.62010(14) 0.91790(13) 0.02001(8)
O14B O 0.37990(14) 1.08210(13) -0.02001(8)
O15 O 0.4625(6) 0.5329(5) 0.0758(3)
O16? O 0.5060(8) 0.5009(9) 0.0496(5)
loop_
_geom_bond_atom_site_label_1
_geom_bond_atom_site_label_2
_geom_bond_site_symmetry_1
_geom_bond_site_symmetry_2
Cd1 O1 1_555 1_555
O1 H1 1_555 1_555
H2 O1 1_555 1_555
O2 Cd1 1_555 1_555
H3 O2 1_555 1_555
H4 O2 1_555 1_555
O3 Cd1 1_555 1_555
O4 Cd1 1_555 1_555
C1 O3 1_555 1_555
C2 C1 1_555 1_555
O5 C2 1_555 1_555
C3 O5 1_555 1_555
C4 C3 1_555 1_555
H5 C4 1_555 1_555
C5 C2 1_555 1_555
H6 C5 1_555 1_555
C6 C3 1_555 1_555
O6 C6 1_555 1_555
O7 C6 1_555 1_555
N1 Cd1 1_555 1_555
C7 N1 1_555 1_555
H7 C7 1_555 1_555
C8 N1 1_555 1_555
H8 C8 1_555 1_555
Cd2 O8 1_555 1_555
O8 H9 1_555 1_555
H10 O8 1_555 1_555
O9 Cd2 1_555 1_555
H11 O9 1_555 1_555
H12 O9 1_555 1_555
O10 Cd2 1_555 1_555
O11 Cd2 1_555 1_555
C9 O10 1_555 1_555
C10 C9 1_555 1_555
O12 C10 1_555 1_555
C11 O12 1_555 1_555
C12 C11 1_555 1_555
H13 C12 1_555 1_555
C13 C10 1_555 1_555
H14 C13 1_555 1_555
C14 C11 1_555 1_555
O13 C14 1_555 1_555
O14 C14 1_555 1_555
N1B C7B 1_555 1_555
C7B C8 1_555 1_555
H7B C7B 1_555 1_555
C8B C7 1_555 1_555
H8B C8B 1_555 1_555
Cd1B N1B 1_555 1_555
O1B Cd1B 1_555 1_555
H1B O1B 1_555 1_555
H2B O1B 1_555 1_555
O2B Cd1B 1_555 1_555
H3B O2B 1_555 1_555
H4B O2B 1_555 1_555
O3B Cd1B 1_555 1_555
O4B Cd1B 1_555 1_555
C1B O3B 1_555 1_555
C2B C1B 1_555 1_555
O5B C2B 1_555 1_555
C3B O5B 1_555 1_555
C4B C3B 1_555 1_555
H5B C4B 1_555 1_555
C5B C2B 1_555 1_555
H6B C5B 1_555 1_555
C6B C3B 1_555 1_555
O6B C6B 1_555 1_555
O7B C6B 1_555 1_555
Cd1_2 O6 1_555 1_555
Cd1B_2 O6B 1_555 1_555
O6_2 Cd1 1_555 1_555
O6B_2 Cd1B 1_555 1_555
O7_2 Cd1 1_555 1_555
O7B_2 Cd1B 1_555 1_555
Cd2_2 O13 1_555 1_555
Cd2B O14 1_555 1_555
O13_2 Cd2 1_555 1_555
O14_2 Cd2 1_555 1_555
O14B Cd2 1_555 1_555
O4 C1 1_555 1_555
C4 C5 1_555 1_555
O7 Cd1_2 1_555 1_555
O11 C9 1_555 1_555
C12 C13 1_555 1_555
O14 Cd2_2 1_555 1_555
N1B C8B 1_555 1_555
O4B C1B 1_555 1_555
C4B C5B 1_555 1_555
O7B Cd1B_2 1_555 1_555

#END
