
#######################################################################
#
#                 Cambridge Crystallographic Data Centre
#                                CCDC 
#
#######################################################################
#
# If this CIF has been generated from an entry in the Cambridge 
# Structural Database, then it will include bibliographic, chemical, 
# crystal, experimental, refinement or atomic coordinate data resulting 
# from the CCDC's data processing and validation procedures.
#
#######################################################################

data_KIYZID03
_symmetry_cell_setting           monoclinic
_symmetry_space_group_name_H-M   'P 21/c'
_symmetry_Int_Tables_number      14
_space_group_name_Hall           '-P 2ybc'
loop_
_symmetry_equiv_pos_site_id
_symmetry_equiv_pos_as_xyz
1 x,y,z
2 -x,1/2+y,1/2-z
3 -x,-y,-z
4 x,1/2-y,1/2+z
_cell_length_a                   16.067(2)
_cell_length_b                   3.8672(3)
_cell_length_c                   11.326(1)
_cell_angle_alpha                90
_cell_angle_beta                 93.847(5)
_cell_angle_gamma                90
_cell_volume                     702.147
loop_
_atom_site_label
_atom_site_type_symbol
_atom_site_fract_x
_atom_site_fract_y
_atom_site_fract_z
K1 K 0.06709(8) 0.3129(4) 0.37910(11)
O1 O 0.0897(4) 0.8257(14) 0.5420(4)
O2 O 0.1069(4) 0.6743(14) 0.7309(5)
C1 C 0.1336(3) 0.713(2) 0.6314(5)
C2 C 0.2235(5) 0.628(2) 0.6072(7)
C3 C 0.2752(5) 0.461(2) 0.6912(7)
H1 H 0.2550 0.3913 0.7625
C4 C 0.3592(4) 0.396(2) 0.6679(6)
H2 H 0.3940 0.2852 0.7250
C5 C 0.3903(4) 0.492(2) 0.5628(6)
C6 C 0.3354(5) 0.644(2) 0.4751(7)
H3 H 0.3549 0.7048 0.4025
C7 C 0.2528(4) 0.702(3) 0.4967(6)
H4 H 0.2165 0.7915 0.4369
C8 C 0.4794(5) 0.433(3) 0.5449(7)
H5 H 0.5094 0.2924 0.5992
O1B O 0.9103(4) 0.1743(14) 0.4580(4)
O2B O 0.8931(4) 0.3257(14) 0.2691(5)
C1B C 0.8664(3) 0.287(2) 0.3686(5)
C2B C 0.7765(5) 0.372(2) 0.3928(7)
C3B C 0.7248(5) 0.539(2) 0.3088(7)
H1B H 0.7450 0.6087 0.2375
C4B C 0.6408(4) 0.604(2) 0.3321(6)
H2B H 0.6060 0.7148 0.2750
C5B C 0.6097(4) 0.508(2) 0.4372(6)
C6B C 0.6646(5) 0.356(2) 0.5249(7)
H3B H 0.6451 0.2952 0.5975
C7B C 0.7472(4) 0.298(3) 0.5033(6)
H4B H 0.7835 0.2085 0.5631
C8B C 0.5206(5) 0.567(3) 0.4551(7)
H5B H 0.4906 0.7076 0.4008
K1B K -0.06709(8) 0.6871(4) 0.62090(11)
K1_2 K 0.06709(8) 1.3129(4) 0.37910(11)
K1_3 K 1.06709(8) 0.3129(4) 0.37910(11)
K1A K 0.93291(8) -0.1871(4) 0.12090(11)
K1A_2 K 0.93291(8) 0.8129(4) 0.12090(11)
K1B_2 K 0.93291(8) -0.3129(4) 0.62090(11)
K1B_3 K 0.93291(8) 0.6871(4) 0.62090(11)
K1C K 0.06709(8) 0.1871(4) 0.87910(11)
K1C_2 K 0.06709(8) 1.1871(4) 0.87910(11)
O1_2 O 0.0897(4) -0.1743(14) 0.5420(4)
O1B_2 O -0.0897(4) 0.1743(14) 0.4580(4)
O1B_3 O -0.0897(4) 1.1743(14) 0.4580(4)
O2A O -0.1069(4) 0.1743(14) 0.7691(5)
O2A_2 O -0.1069(4) 1.1743(14) 0.7691(5)
O2B_2 O -0.1069(4) 0.3257(14) 0.2691(5)
O2C O 0.1069(4) -0.1743(14) 0.2309(5)
O2C_2 O 0.1069(4) 0.8257(14) 0.2309(5)
loop_
_geom_bond_atom_site_label_1
_geom_bond_atom_site_label_2
_geom_bond_site_symmetry_1
_geom_bond_site_symmetry_2
K1 O1 1_555 1_555
O1 C1 1_555 1_555
O2 C1 1_555 1_555
C1 C2 1_555 1_555
C2 C3 1_555 1_555
C3 H1 1_555 1_555
C4 C3 1_555 1_555
H2 C4 1_555 1_555
C5 C4 1_555 1_555
C6 C5 1_555 1_555
H3 C6 1_555 1_555
C7 C2 1_555 1_555
H4 C7 1_555 1_555
C8 C5 1_555 1_555
H5 C8 1_555 1_555
O1B C1B 1_555 1_555
O2B C1B 1_555 1_555
C1B C2B 1_555 1_555
C2B C3B 1_555 1_555
C3B H1B 1_555 1_555
C4B C3B 1_555 1_555
H2B C4B 1_555 1_555
C5B C4B 1_555 1_555
C6B C5B 1_555 1_555
H3B C6B 1_555 1_555
C7B C2B 1_555 1_555
H4B C7B 1_555 1_555
C8B C8 1_555 1_555
H5B C8B 1_555 1_555
K1B O1 1_555 1_555
K1_2 O1 1_555 1_555
K1_3 O1B 1_555 1_555
K1A O2B 1_555 1_555
K1A_2 O2B 1_555 1_555
K1B_2 O1B 1_555 1_555
K1B_3 O1B 1_555 1_555
K1C O2 1_555 1_555
K1C_2 O2 1_555 1_555
O1_2 K1 1_555 1_555
O1B_2 K1 1_555 1_555
O1B_3 K1B 1_555 1_555
O2A K1B 1_555 1_555
O2A_2 K1B 1_555 1_555
O2B_2 K1 1_555 1_555
O2C K1 1_555 1_555
O2C_2 K1 1_555 1_555
O2 K1B 1_555 1_555
C6 C7 1_555 1_555
O2B K1_3 1_555 1_555
C5B C8B 1_555 1_555
C6B C7B 1_555 1_555
K1B O1B_2 1_555 1_555
K1_2 O1B_3 1_555 1_555
K1_2 O2C_2 1_555 1_555
K1C O2A 1_555 1_555
K1C_2 O2A_2 1_555 1_555

#END
