
#######################################################################
#
#                 Cambridge Crystallographic Data Centre
#                                CCDC 
#
#######################################################################
#
# If this CIF has been generated from an entry in the Cambridge 
# Structural Database, then it will include bibliographic, chemical, 
# crystal, experimental, refinement or atomic coordinate data resulting 
# from the CCDC's data processing and validation procedures.
#
#######################################################################

data_KIZBEC01
_symmetry_cell_setting           monoclinic
_symmetry_space_group_name_H-M   'P 21/c'
_symmetry_Int_Tables_number      14
_space_group_name_Hall           '-P 2ybc'
loop_
_symmetry_equiv_pos_site_id
_symmetry_equiv_pos_as_xyz
1 x,y,z
2 -x,1/2+y,1/2-z
3 -x,-y,-z
4 x,1/2-y,1/2+z
_cell_length_a                   18.057(6)
_cell_length_b                   3.810(2)
_cell_length_c                   11.380(4)
_cell_angle_alpha                90
_cell_angle_beta                 93.75(2)
_cell_angle_gamma                90
_cell_volume                     781.236
loop_
_atom_site_label
_atom_site_type_symbol
_atom_site_fract_x
_atom_site_fract_y
_atom_site_fract_z
O1 O -0.02241(11) 0.2202(7) 0.3634(2)
H1 H -0.0551(18) 0.067(10) 0.389(3)
H2 H -0.044(2) 0.396(11) 0.343(4)
K1 K 0.10125(3) 0.67556(16) 0.38711(5)
O2 O 0.13372(8) 0.1882(5) 0.56185(14)
O3 O 0.15844(9) 0.3474(5) 0.74782(14)
C1 C 0.17698(12) 0.2988(6) 0.6447(2)
C2 C 0.48243(12) 0.5610(7) 0.5452(2)
H3 H 0.5102 0.6955 0.6002
C3 C 0.28074(12) 0.2978(6) 0.5070(2)
H4 H 0.2481 0.1996 0.4495
C4 C 0.25551(11) 0.3832(6) 0.61657(18)
C5 C 0.35335(12) 0.3570(6) 0.4826(2)
H5 H 0.3690 0.2980 0.4088
C6 C 0.40411(11) 0.5045(6) 0.5668(2)
C7 C 0.30479(12) 0.5427(6) 0.6997(2)
H6 H 0.2885 0.6089 0.7723
C8 C 0.37777(12) 0.6034(6) 0.6752(2)
H7 H 0.4098 0.7113 0.7314
O2B O 0.86628(8) 0.8118(5) 0.43815(14)
O3B O 0.84156(9) 0.6526(5) 0.25218(14)
C1B C 0.82302(12) 0.7012(6) 0.3553(2)
C2B C 0.51757(12) 0.4390(7) 0.4548(2)
H3B H 0.4898 0.3045 0.3998
C3B C 0.71926(12) 0.7022(6) 0.4930(2)
H4B H 0.7519 0.8004 0.5505
C4B C 0.74449(11) 0.6168(6) 0.38343(18)
C5B C 0.64665(12) 0.6430(6) 0.5174(2)
H5B H 0.6310 0.7020 0.5912
C6B C 0.59589(11) 0.4955(6) 0.4332(2)
C7B C 0.69521(12) 0.4573(6) 0.3003(2)
H6B H 0.7115 0.3911 0.2277
C8B C 0.62223(12) 0.3966(6) 0.3248(2)
H7B H 0.5902 0.2887 0.2686
O1B O 0.02241(11) 0.7798(7) 0.6366(2)
H1B H 0.0551(18) 0.933(10) 0.611(3)
H2B H 0.044(2) 0.604(11) 0.657(4)
K1B K -0.10125(3) 0.32444(16) 0.61289(5)
O1_2 O -0.02241(11) 1.2202(7) 0.3634(2)
O1A O 0.02241(11) 0.7202(7) 0.1366(2)
O1B_2 O 0.02241(11) -0.2202(7) 0.6366(2)
O1C O -0.02241(11) 0.2798(7) 0.8634(2)
K1_2 K 0.10125(3) -0.32444(16) 0.38711(5)
K1A K -0.10125(3) 0.17556(16) 0.11289(5)
K1A_2 K 0.89875(3) 0.17556(16) 0.11289(5)
K1A_3 K 0.89875(3) 1.17556(16) 0.11289(5)
K1B_2 K -0.10125(3) 1.32444(16) 0.61289(5)
K1B_3 K 0.89875(3) 0.32444(16) 0.61289(5)
K1B_4 K 0.89875(3) 1.32444(16) 0.61289(5)
K1C K 0.10125(3) -0.17556(16) 0.88711(5)
K1C_2 K 0.10125(3) 0.82444(16) 0.88711(5)
O2_2 O 0.13372(8) 1.1882(5) 0.56185(14)
O2B_2 O -0.13372(8) -0.1882(5) 0.43815(14)
O2B_3 O -0.13372(8) 0.8118(5) 0.43815(14)
O3A O -0.15844(9) -0.1526(5) 0.75218(14)
O3A_2 O -0.15844(9) 0.8474(5) 0.75218(14)
O3C O 0.15844(9) 0.1526(5) 0.24782(14)
O3C_2 O 0.15844(9) 1.1526(5) 0.24782(14)
loop_
_geom_bond_atom_site_label_1
_geom_bond_atom_site_label_2
_geom_bond_site_symmetry_1
_geom_bond_site_symmetry_2
O1 H1 1_555 1_555
H2 O1 1_555 1_555
K1 O1 1_555 1_555
O2 K1 1_555 1_555
O3 C1 1_555 1_555
C1 O2 1_555 1_555
C2 H3 1_555 1_555
C3 H4 1_555 1_555
C4 C1 1_555 1_555
C5 C3 1_555 1_555
H5 C5 1_555 1_555
C6 C2 1_555 1_555
C7 C4 1_555 1_555
H6 C7 1_555 1_555
C8 C6 1_555 1_555
H7 C8 1_555 1_555
O2B C1B 1_555 1_555
O3B C1B 1_555 1_555
C1B C4B 1_555 1_555
C2B C2 1_555 1_555
H3B C2B 1_555 1_555
C3B H4B 1_555 1_555
C4B C3B 1_555 1_555
C5B C3B 1_555 1_555
H5B C5B 1_555 1_555
C6B C2B 1_555 1_555
C7B C4B 1_555 1_555
H6B C7B 1_555 1_555
C8B C6B 1_555 1_555
H7B C8B 1_555 1_555
O1B K1 1_555 1_555
H1B O1B 1_555 1_555
H2B O1B 1_555 1_555
K1B O1 1_555 1_555
O1_2 K1 1_555 1_555
O1A K1 1_555 1_555
O1B_2 K1B 1_555 1_555
O1C K1B 1_555 1_555
K1_2 O1 1_555 1_555
K1A O1 1_555 1_555
K1A_2 O3B 1_555 1_555
K1A_3 O3B 1_555 1_555
K1B_2 O1B 1_555 1_555
K1B_3 O2B 1_555 1_555
K1B_4 O2B 1_555 1_555
K1C O3 1_555 1_555
K1C_2 O3 1_555 1_555
O2_2 K1 1_555 1_555
O2B_2 K1B 1_555 1_555
O2B_3 K1B 1_555 1_555
O3A K1B 1_555 1_555
O3A_2 K1B 1_555 1_555
O3C K1 1_555 1_555
O3C_2 K1 1_555 1_555
O2 K1_2 1_555 1_555
C3 C4 1_555 1_555
C5 C6 1_555 1_555
C7 C8 1_555 1_555
C5B C6B 1_555 1_555
C7B C8B 1_555 1_555
O1B K1B 1_555 1_555
O1B K1C_2 1_555 1_555
O1_2 K1B_2 1_555 1_555
O1A K1A 1_555 1_555
O1B_2 K1_2 1_555 1_555
O1B_2 K1C 1_555 1_555
O1C K1C 1_555 1_555
O1C K1C_2 1_555 1_555
K1_2 O3C 1_555 1_555
K1B_2 O2B_3 1_555 1_555
K1B_2 O3A_2 1_555 1_555

#END
