
#######################################################################
#
#                 Cambridge Crystallographic Data Centre
#                                CCDC 
#
#######################################################################
#
# If this CIF has been generated from an entry in the Cambridge 
# Structural Database, then it will include bibliographic, chemical, 
# crystal, experimental, refinement or atomic coordinate data resulting 
# from the CCDC's data processing and validation procedures.
#
#######################################################################

data_KIZGEH
_symmetry_cell_setting           monoclinic
_symmetry_space_group_name_H-M   'P 21/c'
_symmetry_Int_Tables_number      14
_space_group_name_Hall           '-P 2ybc'
loop_
_symmetry_equiv_pos_site_id
_symmetry_equiv_pos_as_xyz
1 x,y,z
2 -x,1/2+y,1/2-z
3 -x,-y,-z
4 x,1/2-y,1/2+z
_cell_length_a                   7.9945(5)
_cell_length_b                   20.0744(11)
_cell_length_c                   11.3336(6)
_cell_angle_alpha                90
_cell_angle_beta                 94.5330(10)
_cell_angle_gamma                90
_cell_volume                     1813.18
loop_
_atom_site_label
_atom_site_type_symbol
_atom_site_fract_x
_atom_site_fract_y
_atom_site_fract_z
Cd1 Cd 0.46240(3) 0.530213(9) 0.804011(18)
O1 O 0.3272(3) 0.50410(13) 0.6101(2)
H1 H 0.371(4) 0.5319(17) 0.575(3)
H2 H 0.339(5) 0.468(2) 0.575(4)
O2 O 0.4646(3) 0.09439(9) 0.97594(18)
O3 O 0.4967(3) 0.13247(9) 0.79484(17)
O4 O 0.3612(3) 0.43934(9) 1.02939(18)
O5 O 0.3852(3) 0.42240(9) 0.83712(18)
N1 N 0.7419(3) 0.08897(11) 0.6144(2)
N2 N 0.8622(3) 0.17788(11) 0.5445(2)
N3 N 1.0083(4) 0.32758(12) 0.3965(2)
N4 N 0.8572(3) 0.41316(11) 0.6532(2)
N5 N 0.7012(3) 0.48293(11) 0.7450(2)
S1 S 0.44402(10) 0.27653(3) 0.85319(6)
C1 C 0.7558(4) 0.15364(14) 0.6210(3)
H3 H 0.6991 0.1800 0.6723
C2 C 0.8436(4) 0.06984(14) 0.5281(3)
H4 H 0.8577 0.0262 0.5032
C3 C 0.9192(4) 0.12293(14) 0.4852(3)
H5 H 0.9951 0.1230 0.4270
C4 C 0.8976(3) 0.24605(13) 0.5233(3)
C5 C 0.8599(3) 0.29487(13) 0.6033(3)
H6 H 0.8108 0.2841 0.6725
C6 C 0.8974(3) 0.35974(13) 0.5768(3)
C7 C 0.9715(4) 0.37415(14) 0.4739(3)
H7 H 0.9968 0.4183 0.4579
C8 C 0.9721(4) 0.26477(14) 0.4225(3)
H8 H 0.9986 0.2316 0.3698
C9 C 0.7060(4) 0.42498(13) 0.6932(3)
H9 H 0.6161 0.3955 0.6848
C10 C 0.8572(4) 0.51015(15) 0.7392(3)
H10 H 0.8904 0.5515 0.7697
C11 C 0.9551(4) 0.46844(14) 0.6831(3)
H11 H 1.0663 0.4753 0.6674
C12 C 0.4633(4) 0.13971(13) 0.9002(3)
C13 C 0.4233(3) 0.20786(12) 0.9414(2)
C14 C 0.3680(4) 0.22542(13) 1.0472(2)
H12 H 0.3481 0.1949 1.1062
C15 C 0.3437(4) 0.29456(13) 1.0588(2)
H13 H 0.3061 0.3145 1.1259
C16 C 0.3812(3) 0.32879(12) 0.9613(2)
C17 C 0.3761(3) 0.40292(13) 0.9415(3)
Cd1A Cd 0.53760(3) 0.030213(9) 0.695989(18)
Cd1B Cd 0.53760(3) 0.469787(9) 1.195989(18)
O3A O 0.5033(3) 0.63247(9) 0.70516(17)
O4B O 0.6388(3) 0.56066(9) 0.97061(18)
N1A N 0.2581(3) 0.58897(11) 0.8856(2)
loop_
_geom_bond_atom_site_label_1
_geom_bond_atom_site_label_2
_geom_bond_site_symmetry_1
_geom_bond_site_symmetry_2
Cd1 O1 1_555 1_555
O1 H1 1_555 1_555
H2 O1 1_555 1_555
O2 C12 1_555 1_555
O3 C12 1_555 1_555
O4 C17 1_555 1_555
O5 Cd1 1_555 1_555
N1 C1 1_555 1_555
N2 C1 1_555 1_555
N3 C7 1_555 1_555
N4 C6 1_555 1_555
N5 Cd1 1_555 1_555
S1 C13 1_555 1_555
C1 H3 1_555 1_555
C2 N1 1_555 1_555
H4 C2 1_555 1_555
C3 N2 1_555 1_555
H5 C3 1_555 1_555
C4 N2 1_555 1_555
C5 C4 1_555 1_555
H6 C5 1_555 1_555
C6 C5 1_555 1_555
C7 C6 1_555 1_555
H7 C7 1_555 1_555
C8 N3 1_555 1_555
H8 C8 1_555 1_555
C9 N4 1_555 1_555
H9 C9 1_555 1_555
C10 N5 1_555 1_555
H10 C10 1_555 1_555
C11 N4 1_555 1_555
H11 C11 1_555 1_555
C12 C13 1_555 1_555
C13 C14 1_555 1_555
C14 H12 1_555 1_555
C15 C14 1_555 1_555
H13 C15 1_555 1_555
C16 S1 1_555 1_555
C17 O5 1_555 1_555
Cd1A O3 1_555 1_555
Cd1B O4 1_555 1_555
O3A Cd1 1_555 1_555
O4B Cd1 1_555 1_555
N1A Cd1 1_555 1_555
N1 Cd1A 1_555 1_555
N5 C9 1_555 1_555
C2 C3 1_555 1_555
C4 C8 1_555 1_555
C10 C11 1_555 1_555
C15 C16 1_555 1_555
C16 C17 1_555 1_555

#END
