
#######################################################################
#
#                 Cambridge Crystallographic Data Centre
#                                CCDC 
#
#######################################################################
#
# If this CIF has been generated from an entry in the Cambridge 
# Structural Database, then it will include bibliographic, chemical, 
# crystal, experimental, refinement or atomic coordinate data resulting 
# from the CCDC's data processing and validation procedures.
#
#######################################################################

data_KIZKAH
_symmetry_cell_setting           monoclinic
_symmetry_space_group_name_H-M   'P 21/c'
_symmetry_Int_Tables_number      14
_space_group_name_Hall           '-P 2ybc'
loop_
_symmetry_equiv_pos_site_id
_symmetry_equiv_pos_as_xyz
1 x,y,z
2 -x,1/2+y,1/2-z
3 -x,-y,-z
4 x,1/2-y,1/2+z
_cell_length_a                   9.793(5)
_cell_length_b                   32.163(5)
_cell_length_c                   10.355(5)
_cell_angle_alpha                90
_cell_angle_beta                 99.707(5)
_cell_angle_gamma                90
_cell_volume                     3214.84
loop_
_atom_site_label
_atom_site_type_symbol
_atom_site_fract_x
_atom_site_fract_y
_atom_site_fract_z
Cd1 Cd 0.887482(15) 0.043186(5) 0.422620(15)
Cd2 Cd 0.902586(17) 0.129580(5) 0.628478(15)
O1 O 0.12126(16) 0.02880(5) 0.48702(16)
O2 O 0.63983(16) 0.04464(5) 0.42606(16)
O3 O 0.78818(15) 0.06456(5) 0.59896(16)
O4 O 0.89745(18) 0.12268(5) -0.14975(15)
O5 O 0.76900(19) 0.17182(5) -0.25567(15)
O6 O 0.07337(16) 0.08355(6) 0.59946(19)
O7 O 0.8998(2) 0.10436(5) 0.32250(17)
N1 N 0.6967(2) -0.09386(6) -0.12146(19)
N2 N 0.8619(2) 0.01332(6) 0.22085(18)
O8 O 0.50829(18) 0.08998(7) 0.95085(17)
H1 H 0.4380 0.0922 0.9835
O9 O 0.8111(2) 0.15337(6) 0.43564(17)
C1 C 0.3068(2) 0.06278(6) 0.6300(2)
O10 O 0.6558(2) 0.26562(5) 0.09471(18)
H2 H 0.6975 0.2804 0.1528
C2 C 0.5493(2) 0.06155(7) 0.6198(2)
C3 C 0.7167(2) 0.22714(7) 0.1005(2)
C4 C 0.8100(2) 0.16474(7) 0.2100(2)
C5 C 0.9223(2) -0.03602(7) 0.0675(2)
H3 H 0.9863 -0.0550 0.0455
C6 C 0.3364(2) 0.07665(7) 0.7589(2)
H4 H 0.2645 0.0836 0.8031
C7 C 0.8283(2) 0.14780(7) 0.0914(2)
H5 H 0.8661 0.1213 0.0884
C8 C 0.4122(2) 0.05422(7) 0.5599(2)
H6 H 0.3924 0.0439 0.4750
C9 C 0.6636(2) 0.05658(7) 0.5416(2)
C10 C 0.1580(2) 0.05832(7) 0.5681(2)
C11 C 0.8193(2) 0.15360(7) -0.1500(2)
C12 C 0.7565(2) 0.20487(7) 0.2150(2)
H7 H 0.7476 0.2166 0.2953
C13 C 0.7321(2) 0.20937(7) -0.0181(2)
H8 H 0.7029 0.2239 -0.0955
C14 C 0.7904(2) 0.17037(7) -0.0228(2)
N3 N 0.6719(2) -0.18098(7) -0.1882(3)
N4 N 0.9244(2) -0.31960(7) -0.1516(3)
C15 C 0.9492(2) -0.01483(7) 0.1843(2)
H9 H 1.0318 -0.0202 0.2407
C16 C 0.5792(2) 0.07350(7) 0.7505(2)
H10 H 0.6709 0.0771 0.7904
C17 C 0.7986(3) -0.02896(7) -0.0177(2)
C18 C 0.4729(2) 0.08011(7) 0.8219(2)
C19 C 0.7103(3) 0.00113(8) 0.0182(2)
H11 H 0.6281 0.0075 -0.0373
C20 C 0.8432(2) 0.13886(7) 0.3323(2)
C21 C 0.7567(3) -0.05297(8) -0.1437(2)
H12 H 0.6893 -0.0369 -0.2028
H13 H 0.8373 -0.0569 -0.1855
C22 C 0.8063(3) -0.12414(8) -0.0752(3)
H14 H 0.8566 -0.1153 0.0092
H15 H 0.8712 -0.1251 -0.1364
C23 C 0.6179(3) -0.10896(8) -0.2466(3)
H16 H 0.6782 -0.1100 -0.3118
H17 H 0.5430 -0.0898 -0.2772
C24 C 0.7469(3) -0.16699(9) -0.0624(3)
H18 H 0.8213 -0.1863 -0.0314
H19 H 0.6848 -0.1663 0.0013
C25 C 0.7451(3) 0.02151(8) 0.1367(2)
H20 H 0.6852 0.0417 0.1590
C26 C 0.9395(3) -0.28412(10) -0.2123(4)
H21 H 1.0180 -0.2806 -0.2507
C27 C 0.5592(3) -0.15151(8) -0.2306(3)
H22 H 0.4980 -0.1505 -0.1661
H23 H 0.5057 -0.1606 -0.3132
C28 C 0.7278(3) -0.25609(9) -0.1665(4)
C29 C 0.8102(4) -0.32337(10) -0.0993(5)
H24 H 0.7960 -0.3480 -0.0565
C30 C 0.6173(3) -0.22286(9) -0.1779(5)
H25 H 0.5481 -0.2285 -0.2546
H26 H 0.5719 -0.2242 -0.1017
C31 C 0.8447(4) -0.25205(10) -0.2217(4)
H27 H 0.8602 -0.2277 -0.2655
C32 C 0.7114(4) -0.29247(10) -0.1053(5)
H28 H 0.6331 -0.2967 -0.0670
Cd1_2 Cd -0.112518(15) 0.043186(5) 0.422620(15)
Cd1B Cd 0.112518(15) -0.043186(5) 0.577380(15)
Cd2_2 Cd -0.097414(17) 0.129580(5) 0.628478(15)
Cd2_3 Cd 0.902586(17) 0.129580(5) -0.371522(15)
Cd2A Cd 1.097414(17) -0.370420(5) -0.128478(15)
O1_2 O 1.12126(16) 0.02880(5) 0.48702(16)
O1B O 0.87874(16) -0.02880(5) 0.51298(16)
O4_2 O 0.89745(18) 0.12268(5) 0.85025(15)
O5_2 O 0.76900(19) 0.17182(5) 0.74433(15)
O6_2 O 1.07337(16) 0.08355(6) 0.59946(19)
N4A N 1.0756(2) 0.18040(7) 0.6516(3)
loop_
_geom_bond_atom_site_label_1
_geom_bond_atom_site_label_2
_geom_bond_site_symmetry_1
_geom_bond_site_symmetry_2
Cd1 O2 1_555 1_555
Cd2 O3 1_555 1_555
O1 C10 1_555 1_555
O2 C9 1_555 1_555
O3 Cd1 1_555 1_555
O4 C11 1_555 1_555
O5 C11 1_555 1_555
O6 C10 1_555 1_555
O7 Cd1 1_555 1_555
N1 C21 1_555 1_555
N2 Cd1 1_555 1_555
O8 H1 1_555 1_555
O9 Cd2 1_555 1_555
C1 C6 1_555 1_555
O10 H2 1_555 1_555
C2 C8 1_555 1_555
C3 O10 1_555 1_555
C4 C7 1_555 1_555
C5 H3 1_555 1_555
C6 H4 1_555 1_555
C7 H5 1_555 1_555
C8 C1 1_555 1_555
H6 C8 1_555 1_555
C9 O3 1_555 1_555
C10 C1 1_555 1_555
C11 C14 1_555 1_555
C12 C3 1_555 1_555
H7 C12 1_555 1_555
C13 C3 1_555 1_555
H8 C13 1_555 1_555
C14 C7 1_555 1_555
N3 C24 1_555 1_555
N4 C26 1_555 1_555
C15 N2 1_555 1_555
H9 C15 1_555 1_555
C16 C2 1_555 1_555
H10 C16 1_555 1_555
C17 C5 1_555 1_555
C18 O8 1_555 1_555
C19 C17 1_555 1_555
H11 C19 1_555 1_555
C20 O7 1_555 1_555
C21 C17 1_555 1_555
H12 C21 1_555 1_555
H13 C21 1_555 1_555
C22 N1 1_555 1_555
H14 C22 1_555 1_555
H15 C22 1_555 1_555
C23 N1 1_555 1_555
H16 C23 1_555 1_555
H17 C23 1_555 1_555
C24 C22 1_555 1_555
H18 C24 1_555 1_555
H19 C24 1_555 1_555
C25 N2 1_555 1_555
H20 C25 1_555 1_555
C26 H21 1_555 1_555
C27 N3 1_555 1_555
H22 C27 1_555 1_555
H23 C27 1_555 1_555
C28 C30 1_555 1_555
C29 N4 1_555 1_555
H24 C29 1_555 1_555
C30 N3 1_555 1_555
H25 C30 1_555 1_555
H26 C30 1_555 1_555
C31 C26 1_555 1_555
H27 C31 1_555 1_555
C32 C28 1_555 1_555
H28 C32 1_555 1_555
Cd1_2 O1 1_555 1_555
Cd1B O1 1_555 1_555
Cd2_2 O6 1_555 1_555
Cd2_3 O4 1_555 1_555
Cd2A N4 1_555 1_555
O1_2 Cd1 1_555 1_555
O1B Cd1 1_555 1_555
O4_2 Cd2 1_555 1_555
O5_2 Cd2 1_555 1_555
O6_2 Cd1 1_555 1_555
N4A Cd2 1_555 1_555
Cd2 O6_2 1_555 1_555
O5 Cd2_3 1_555 1_555
O6 Cd1_2 1_555 1_555
O9 C20 1_555 1_555
C2 C9 1_555 1_555
C4 C12 1_555 1_555
C4 C20 1_555 1_555
C5 C15 1_555 1_555
C6 C18 1_555 1_555
C13 C14 1_555 1_555
C16 C18 1_555 1_555
C19 C25 1_555 1_555
C23 C27 1_555 1_555
C28 C31 1_555 1_555
C29 C32 1_555 1_555

#END
