
#######################################################################
#
#                 Cambridge Crystallographic Data Centre
#                                CCDC 
#
#######################################################################
#
# If this CIF has been generated from an entry in the Cambridge 
# Structural Database, then it will include bibliographic, chemical, 
# crystal, experimental, refinement or atomic coordinate data resulting 
# from the CCDC's data processing and validation procedures.
#
#######################################################################

data_KIZMIR
_symmetry_cell_setting           triclinic
_symmetry_space_group_name_H-M   'P -1'
_symmetry_Int_Tables_number      2
_space_group_name_Hall           '-P 1'
loop_
_symmetry_equiv_pos_site_id
_symmetry_equiv_pos_as_xyz
1 x,y,z
2 -x,-y,-z
_cell_length_a                   10.103(2)
_cell_length_b                   21.167(4)
_cell_length_c                   21.235(4)
_cell_angle_alpha                115.50(3)
_cell_angle_beta                 90.44(3)
_cell_angle_gamma                98.26(3)
_cell_volume                     4043.91
loop_
_atom_site_label
_atom_site_type_symbol
_atom_site_fract_x
_atom_site_fract_y
_atom_site_fract_z
Mn1 Mn 0.00549(4) 0.49868(2) 0.33290(2)
Mn2 Mn 1.0000 -0.5000 0.0000
Mn3 Mn 0.52279(5) 0.00685(2) 0.13544(2)
Mn4 Mn -0.5000 1.0000 0.5000
O1 O 0.0782(2) 0.48199(12) 0.22924(12)
O2 O 0.3303(2) -0.07733(11) 0.13923(11)
O3 O 1.1770(2) -0.43113(11) 0.16099(11)
O4 O 0.3751(2) -0.05644(11) 0.04823(11)
O5 O -0.1770(2) 0.43647(11) 0.17226(11)
O6 O 0.8459(2) 0.09477(12) 0.16149(11)
O7 O 0.7896(4) 0.22136(14) 0.31277(15)
O8 O 0.1832(2) 0.56560(12) 0.49395(11)
O9 O 0.6414(2) 0.03752(13) 0.06787(12)
O10 O 0.9233(2) -0.48028(12) 0.10292(11)
O11 O 1.1892(2) -0.43846(11) 0.05362(11)
O12 O -0.0704(2) 0.51552(12) 0.43549(12)
O13 O -0.2948(2) 0.28358(11) 0.16942(12)
O14 O 0.6765(2) 0.06444(11) 0.21670(11)
O15 O -0.4512(2) 0.49805(12) 0.24211(12)
O16 O 1.4588(2) -0.48433(11) 0.09279(11)
O17 O 0.1974(2) 0.55369(11) 0.38502(11)
O18 O -0.1860(2) 0.44349(11) 0.27965(11)
O19 O -0.3368(2) 1.07129(11) 0.57038(11)
O20 O -0.0211(2) 1.06672(11) 0.61531(11)
O21 O 1.2844(2) -0.27369(11) 0.16946(11)
O22 O -0.5852(2) 0.96330(12) 0.57658(12)
O23 O -0.2764(2) 1.23897(11) 0.63065(11)
O24 O 0.4503(2) 0.49306(13) 0.41550(13)
O25 O -0.1889(2) 1.09752(12) 0.50336(11)
O26 O 0.3212(3) 0.71596(12) 0.50288(12)
O27 O 0.3341(2) -0.23214(12) 0.02621(12)
O28 O 0.0690(2) -0.06399(12) 0.04013(12)
O29 O 0.9799(3) 0.01566(19) 0.23495(18)
N1 N 0.0657(3) 0.39155(13) 0.31378(14)
N2 N 0.3940(3) 0.09086(13) 0.18957(14)
N3 N 0.6258(3) -0.08846(14) 0.11061(14)
N4 N 0.9296(3) -0.39613(13) 0.01601(13)
N5 N -0.0540(3) 0.60621(13) 0.35325(14)
N6 N -0.3711(3) 0.91199(14) 0.46231(14)
C1 C -0.2362(3) 0.42603(15) 0.21896(15)
C2 C 0.7821(8) 0.2944(3) 0.3540(3)
H1 H 0.7074 0.3073 0.3347
H2 H 0.8661 0.3236 0.3532
H3 H 0.7676 0.3027 0.4023
C3 C -0.5762(4) 0.9948(2) 0.65154(17)
H4 H -0.6449 0.9681 0.6678
H5 H -0.5930 1.0443 0.6700
C4 C 0.3055(3) -0.09148(16) 0.07687(16)
C5 C 0.7963(3) 0.09176(18) 0.21371(18)
C6 C 0.1742(3) 0.26509(16) 0.27526(16)
C7 C 1.0951(5) -0.0190(3) 0.2331(3)
H6 H 1.0807 -0.0663 0.1935
H7 H 1.1064 -0.0234 0.2768
H8 H 1.1759 0.0093 0.2276
C8 C 0.8887(4) 0.1217(3) 0.2786(2)
C9 C 0.2711(3) 0.08738(17) 0.16170(18)
H9 H 0.2357 0.0461 0.1206
C10 C -0.4387(4) 0.9937(2) 0.6783(2)
H10 H -0.4325 1.0154 0.7296
H11 H -0.3711 1.0205 0.6623
H12 H -0.4229 0.9446 0.6604
C11 C 0.8843(5) 0.1861(3) 0.3259(3)
C12 C 0.9329(3) -0.27196(16) 0.08686(16)
H13 H 0.9771 -0.2290 0.1236
C13 C 0.9802(5) 0.2238(3) 0.3903(3)
H14 H 0.9809 0.2708 0.4252
C14 C 0.0645(3) 0.26850(16) 0.23702(16)
H15 H 0.0235 0.2274 0.1971
C15 C 1.0639(5) 0.1807(2) 0.3904(2)
H16 H 1.1277 0.2012 0.4298
C16 C 1.2367(3) -0.41900(15) 0.11504(16)
C17 C 1.0765(5) 0.1106(3) 0.3437(3)
H17 H 1.1426 0.0869 0.3522
C18 C -0.4880(3) 0.42600(17) 0.21315(16)
C19 C 0.2431(3) 0.20248(16) 0.24908(16)
C20 C -0.2190(3) 0.66854(16) 0.33357(17)
H18 H -0.2956 0.6668 0.3063
C21 C -0.1643(3) 0.73209(15) 0.39055(16)
C22 C 0.2459(3) 0.57230(16) 0.44656(16)
C23 C -0.4063(3) 0.31438(16) 0.17566(16)
C24 C 1.3779(3) -0.37710(15) 0.13497(15)
C25 C -0.3804(3) 0.38853(16) 0.20217(15)
C26 C -0.2507(3) 0.91571(17) 0.49265(17)
H19 H -0.2136 0.9587 0.5317
C27 C -0.2301(3) 0.79593(15) 0.41358(15)
C28 C -0.5373(3) 0.27835(17) 0.15826(16)
H20 H -0.5549 0.2281 0.1401
C29 C 1.4889(3) -0.41175(16) 0.12472(16)
C30 C 0.4932(3) 0.5643(2) 0.44761(18)
C31 C -0.0484(3) 0.73098(16) 0.42586(16)
H21 H -0.0033 0.7732 0.4631
C32 C 0.2199(3) 0.32627(16) 0.33626(17)
H22 H 0.2897 0.3262 0.3665
C33 C -0.4190(3) 0.85062(16) 0.40663(17)
H23 H -0.5029 0.8468 0.3836
C34 C 1.3982(3) -0.30313(15) 0.16469(15)
C35 C 0.7584(3) -0.33684(16) -0.00236(16)
H24 H 0.6793 -0.3397 -0.0286
C36 C 0.8148(3) -0.27267(16) 0.05229(16)
C37 C 0.7521(3) -0.20828(16) 0.07247(16)
C38 C 0.0155(3) 0.33160(16) 0.25717(17)
H25 H -0.0578 0.3326 0.2295
C39 C 0.7085(3) -0.09489(17) 0.15645(17)
H26 H 0.7240 -0.0578 0.2027
C40 C -0.3530(3) 0.79317(17) 0.38121(17)
H27 H -0.3913 0.7513 0.3413
C41 C -0.1618(3) 0.60816(17) 0.31680(17)
H28 H -0.2007 0.5659 0.2775
C42 C 0.0003(3) 0.66779(16) 0.40620(16)
H29 H 0.0778 0.6682 0.4321
C43 C 0.4269(3) 0.67991(18) 0.49378(17)
C44 C 0.1643(3) 0.38704(17) 0.35318(17)
H30 H 0.1981 0.4278 0.3951
C45 C 0.3918(3) 0.60628(17) 0.46313(16)
C46 C -0.3140(4) 0.20768(16) 0.14088(18)
H31 H -0.2267 0.1921 0.1389
H32 H -0.3584 0.1871 0.0936
H33 H -0.3699 0.1920 0.1706
C47 C 0.8170(3) -0.39643(17) -0.01861(18)
H34 H 0.7760 -0.4398 -0.0560
C48 C 0.0414(3) 1.18527(17) 0.71104(16)
H35 H 0.1142 1.1722 0.7288
C49 C 0.9857(3) -0.33368(16) 0.06769(16)
H36 H 1.0660 -0.3319 0.0924
C50 C -0.1706(3) 1.22490(16) 0.66045(16)
C51 C -0.0384(3) 1.13633(16) 0.65212(16)
C52 C 0.9875(3) 0.0784(2) 0.28505(18)
C53 C -0.6194(3) 0.39003(18) 0.19553(16)
H37 H -0.6925 0.4153 0.2025
C54 C 0.6674(3) -0.20060(16) 0.02513(16)
H38 H 0.6506 -0.2366 -0.0216
C55 C -0.1784(3) 0.86034(16) 0.46996(16)
H39 H -0.0932 0.8661 0.4928
C56 C 1.5264(3) -0.26386(17) 0.18639(16)
H40 H 1.5400 -0.2135 0.2071
C57 C 0.2159(3) -0.22163(16) 0.00315(16)
C58 C 1.6186(3) -0.37369(17) 0.14598(16)
H41 H 1.6941 -0.3973 0.1394
C59 C -0.0153(3) -0.18822(17) -0.03874(17)
H42 H -0.0954 -0.1773 -0.0526
C60 C 0.5627(4) 0.7118(2) 0.51172(19)
H43 H 0.5872 0.7620 0.5335
C61 C -0.0933(3) 1.27444(16) 0.72012(16)
H44 H -0.1128 1.3212 0.7441
C62 C 0.1941(3) 0.14064(17) 0.18982(18)
H45 H 0.1074 0.1349 0.1685
C63 C 0.0080(3) -0.25791(17) -0.06651(17)
H46 H -0.0557 -0.2944 -0.1006
C64 C -0.1447(3) 1.15598(15) 0.62599(16)
C65 C 0.4384(3) 0.14845(17) 0.24846(17)
H47 H 0.5227 0.1514 0.2705
C66 C 0.0127(3) 1.25401(17) 0.74379(16)
H48 H 0.0681 1.2880 0.7838
C67 C 0.6082(3) -0.14095(17) 0.04587(17)
H49 H 0.5516 -0.1369 0.0123
C68 C -0.2291(3) 1.10405(15) 0.56081(16)
C69 C 1.3001(3) -0.19764(16) 0.20039(18)
H50 H 1.2121 -0.1831 0.2009
H51 H 1.3584 -0.1798 0.1730
H52 H 1.3405 -0.1781 0.2484
C70 C 0.0796(3) -0.13477(17) 0.00943(16)
C71 C 0.7719(3) -0.15282(17) 0.13944(16)
H53 H 0.8297 -0.1549 0.1737
C72 C -0.6416(3) 0.31650(18) 0.16766(18)
H54 H -0.7310 0.2917 0.1547
C73 C -0.3109(3) 1.30872(16) 0.66441(17)
H55 H -0.3875 1.3117 0.6379
H56 H -0.2341 1.3438 0.6664
H57 H -0.3345 1.3184 0.7120
C74 C 0.6592(4) 0.6685(3) 0.4968(2)
H58 H 0.7508 0.6898 0.5088
C75 C 0.3677(3) 0.20434(18) 0.27920(18)
H59 H 0.4044 0.2443 0.3212
C76 C 0.1222(3) -0.27539(17) -0.04555(16)
H60 H 0.1360 -0.3234 -0.0642
C77 C 0.1975(3) -0.15063(16) 0.03074(16)
C78 C 1.6340(3) -0.30040(17) 0.17691(17)
H61 H 1.7218 -0.2739 0.1923
C79 C 0.3548(4) -0.30434(17) 0.00261(18)
H62 H 0.4421 -0.3051 0.0224
H63 H 0.3526 -0.3271 -0.0486
H64 H 0.2836 -0.3300 0.0179
C80 C -0.0630(3) -0.04735(19) 0.0398(2)
H65 H -0.0588 0.0042 0.0628
H66 H -0.1198 -0.0688 0.0649
H67 H -0.1009 -0.0660 -0.0086
C81 C 0.0971(3) 1.04641(18) 0.63298(19)
H68 H 0.0971 0.9959 0.6031
H69 H 0.0992 1.0548 0.6821
H70 H 0.1763 1.0745 0.6258
C82 C -0.5570(3) 0.53928(19) 0.26468(19)
H71 H -0.5192 0.5898 0.2843
H72 H -0.6031 0.5292 0.3005
H73 H -0.6209 0.5271 0.2247
C83 C 0.6279(3) 0.5956(2) 0.46526(19)
H74 H 0.6966 0.5672 0.4557
C84 C 0.5504(4) 0.4477(2) 0.3910(2)
H75 H 0.5067 0.3980 0.3691
H76 H 0.6119 0.4557 0.4306
H77 H 0.6009 0.4585 0.3567
C85 C 1.5688(3) -0.52258(18) 0.07181(19)
H78 H 1.5349 -0.5736 0.0499
H79 H 1.6295 -0.5107 0.1129
H80 H 1.6175 -0.5096 0.0382
C86 C 0.3510(4) 0.79236(19) 0.5345(2)
H81 H 0.2674 0.8117 0.5380
H82 H 0.4101 0.8077 0.5055
H83 H 0.3957 0.8096 0.5813
H84 H 1.005(2) -0.465(2) 0.127(2)
H85 H -0.120(3) 0.4843(19) 0.448(2)
H86 H 0.127(3) 0.5147(18) 0.219(2)
H87 H 0.871(3) -0.5106(19) 0.117(2)
H88 H -0.002(3) 0.462(2) 0.203(2)
H89 H 0.014(2) 0.532(2) 0.456(2)
H90 H -0.668(3) 0.944(3) 0.556(2)
H91 H 0.627(5) 0.041(3) 0.0277(16)
H92 H 0.719(3) 0.062(2) 0.093(2)
Mn1A Mn -1.00549(4) 1.50132(2) 0.66710(2)
Mn3A Mn -1.52279(5) 1.99315(2) 0.86456(2)
O1A O -1.0782(2) 1.51801(12) 0.77076(12)
O2A O -1.3303(2) 2.07733(11) 0.86077(11)
O4A O -1.3751(2) 2.05644(11) 0.95177(11)
O5A O -0.8230(2) 1.56353(11) 0.82774(11)
O6A O -1.8459(2) 1.90523(12) 0.83851(11)
O7A O -1.7896(4) 1.77864(14) 0.68723(15)
O8A O -1.1832(2) 1.43440(12) 0.50605(11)
O9A O -1.6414(2) 1.96248(13) 0.93213(12)
O12A O -0.9296(2) 1.48448(12) 0.56451(12)
O13A O -0.7052(2) 1.71642(11) 0.83058(12)
O14A O -1.6765(2) 1.93556(11) 0.78330(11)
O15A O -0.5488(2) 1.50195(12) 0.75789(12)
O17A O -1.1974(2) 1.44631(11) 0.61498(11)
O18A O -0.8140(2) 1.55651(11) 0.72035(11)
O19A O -0.6632(2) 0.92871(11) 0.42962(11)
O20A O -0.9789(2) 0.93328(11) 0.38469(11)
O22A O -0.4148(2) 1.03670(12) 0.42342(12)
O23A O -0.7236(2) 0.76103(11) 0.36935(11)
O24A O -1.4503(2) 1.50694(13) 0.58450(13)
O25A O -0.8111(2) 0.90248(12) 0.49664(11)
O26A O -1.3212(3) 1.28404(12) 0.49712(12)
O27A O -1.3341(2) 2.23214(12) 0.97379(12)
O28A O -1.0690(2) 2.06399(12) 0.95987(12)
O29A O -1.9799(3) 1.98434(19) 0.76505(18)
N1A N -1.0657(3) 1.60845(13) 0.68622(14)
N2A N -1.3940(3) 1.90914(13) 0.81043(14)
N3A N -1.6258(3) 2.08846(14) 0.88939(14)
N4A N -1.9296(3) 2.39613(13) 0.98399(13)
N5A N -0.9460(3) 1.39379(13) 0.64675(14)
N6A N -0.6289(3) 1.08801(14) 0.53769(14)
C1A C -0.7638(3) 1.57397(15) 0.78104(15)
C2A C -1.7821(8) 1.7056(3) 0.6460(3)
H1A H -1.7074 1.6927 0.6653
H2A H -1.8661 1.6764 0.6468
H3A H -1.7676 1.6973 0.5977
C3A C -0.4238(4) 1.0052(2) 0.34846(17)
H4A H -0.3551 1.0319 0.3322
H5A H -0.4070 0.9557 0.3300
C4A C -1.3055(3) 2.09148(16) 0.92313(16)
C5A C -1.7963(3) 1.90824(18) 0.78629(18)
C6A C -1.1742(3) 1.73491(16) 0.72474(16)
C7A C -2.0951(5) 2.0190(3) 0.7669(3)
H6A H -2.0807 2.0663 0.8065
H7A H -2.1064 2.0234 0.7232
H8A H -2.1759 1.9907 0.7724
C8A C -1.8887(4) 1.8783(3) 0.7214(2)
C9A C -1.2711(3) 1.91262(17) 0.83830(18)
H9A H -1.2357 1.9539 0.8794
C10A C -0.5613(4) 1.0063(2) 0.3217(2)
H10A H -0.5675 0.9846 0.2704
H11A H -0.6289 0.9795 0.3377
H12A H -0.5771 1.0554 0.3396
C11A C -1.8843(5) 1.8139(3) 0.6741(3)
C12A C -1.9329(3) 2.27196(16) 0.91314(16)
H13A H -1.9771 2.2290 0.8764
C13A C -1.9802(5) 1.7762(3) 0.6097(3)
H14A H -1.9809 1.7292 0.5748
C14A C -1.0645(3) 1.73150(16) 0.76298(16)
H15A H -1.0235 1.7726 0.8029
C15A C -2.0639(5) 1.8193(2) 0.6096(2)
H16A H -2.1277 1.7988 0.5702
C17A C -2.0765(5) 1.8894(3) 0.6563(3)
H17A H -2.1426 1.9131 0.6478
C18A C -0.5120(3) 1.57400(17) 0.78685(16)
C19A C -1.2431(3) 1.79752(16) 0.75092(16)
C20A C -0.7810(3) 1.33146(16) 0.66643(17)
H18A H -0.7044 1.3332 0.6937
C21A C -0.8357(3) 1.26791(15) 0.60945(16)
C22A C -1.2459(3) 1.42770(16) 0.55344(16)
C23A C -0.5937(3) 1.68562(16) 0.82434(16)
C25A C -0.6196(3) 1.61147(16) 0.79783(15)
C26A C -0.7493(3) 1.08429(17) 0.50735(17)
H19A H -0.7864 1.0413 0.4683
C27A C -0.7699(3) 1.20407(15) 0.58642(15)
C28A C -0.4627(3) 1.72165(17) 0.84174(16)
H20A H -0.4451 1.7719 0.8599
C30A C -1.4932(3) 1.4357(2) 0.55239(18)
C31A C -0.9516(3) 1.26902(16) 0.57414(16)
H21A H -0.9967 1.2268 0.5369
C32A C -1.2199(3) 1.67373(16) 0.66374(17)
H22A H -1.2897 1.6738 0.6335
C33A C -0.5810(3) 1.14938(16) 0.59337(17)
H23A H -0.4971 1.1532 0.6164
C35A C -1.7584(3) 2.33684(16) 1.00236(16)
H24A H -1.6793 2.3397 1.0286
C36A C -1.8148(3) 2.27267(16) 0.94771(16)
C37A C -1.7521(3) 2.20828(16) 0.92753(16)
C38A C -1.0155(3) 1.66840(16) 0.74283(17)
H25A H -0.9422 1.6674 0.7705
C39A C -1.7085(3) 2.09489(17) 0.84355(17)
H26A H -1.7240 2.0578 0.7973
C40A C -0.6470(3) 1.20683(17) 0.61879(17)
H27A H -0.6087 1.2487 0.6587
C41A C -0.8382(3) 1.39184(17) 0.68320(17)
H28A H -0.7993 1.4341 0.7225
C42A C -1.0003(3) 1.33221(16) 0.59380(16)
H29A H -1.0778 1.3318 0.5679
C43A C -1.4269(3) 1.32009(18) 0.50622(17)
C44A C -1.1643(3) 1.61296(17) 0.64682(17)
H30A H -1.1981 1.5722 0.6049
C45A C -1.3918(3) 1.39372(17) 0.53687(16)
C46A C -0.6860(4) 1.79232(16) 0.85912(18)
H31A H -0.7733 1.8079 0.8611
H32A H -0.6416 1.8129 0.9064
H33A H -0.6301 1.8080 0.8294
C47A C -1.8170(3) 2.39643(17) 1.01861(18)
H34A H -1.7760 2.4398 1.0560
C48A C -1.0414(3) 0.81473(17) 0.28896(16)
H35A H -1.1142 0.8278 0.2712
C49A C -1.9857(3) 2.33368(16) 0.93231(16)
H36A H -2.0660 2.3319 0.9076
C50A C -0.8294(3) 0.77510(16) 0.33955(16)
C51A C -0.9616(3) 0.86367(16) 0.34788(16)
C52A C -1.9875(3) 1.9216(2) 0.71495(18)
C53A C -0.3806(3) 1.60997(18) 0.80447(16)
H37A H -0.3075 1.5847 0.7975
C54A C -1.6674(3) 2.20060(16) 0.97487(16)
H38A H -1.6506 2.2366 1.0216
C55A C -0.8216(3) 1.13966(16) 0.53004(16)
H39A H -0.9068 1.1339 0.5072
C57A C -1.2159(3) 2.22163(16) 0.99685(16)
C59A C -0.9847(3) 2.18822(17) 1.03874(17)
H42A H -0.9046 2.1773 1.0526
C60A C -1.5627(4) 1.2882(2) 0.48828(19)
H43A H -1.5872 1.2380 0.4665
C61A C -0.9067(3) 0.72556(16) 0.27988(16)
H44A H -0.8872 0.6788 0.2559
C62A C -1.1941(3) 1.85936(17) 0.81018(18)
H45A H -1.1074 1.8651 0.8315
C63A C -1.0080(3) 2.25791(17) 1.06651(17)
H46A H -0.9443 2.2944 1.1006
C64A C -0.8553(3) 0.84402(15) 0.37401(16)
C65A C -1.4384(3) 1.85155(17) 0.75154(17)
H47A H -1.5227 1.8486 0.7295
C66A C -1.0127(3) 0.74599(17) 0.25621(16)
H48A H -1.0681 0.7120 0.2162
C67A C -1.6082(3) 2.14095(17) 0.95413(17)
H49A H -1.5516 2.1369 0.9877
C68A C -0.7709(3) 0.89595(15) 0.43919(16)
C70A C -1.0796(3) 2.13477(17) 0.99057(16)
C71A C -1.7719(3) 2.15282(17) 0.86056(16)
H53A H -1.8297 2.1549 0.8263
C72A C -0.3584(3) 1.68350(18) 0.83234(18)
H54A H -0.2690 1.7083 0.8453
C73A C -0.6891(3) 0.69128(16) 0.33559(17)
H55A H -0.6125 0.6883 0.3621
H56A H -0.7659 0.6562 0.3336
H57A H -0.6655 0.6816 0.2880
C74A C -1.6592(4) 1.3315(3) 0.5032(2)
H58A H -1.7508 1.3102 0.4912
C75A C -1.3677(3) 1.79566(18) 0.72080(18)
H59A H -1.4044 1.7557 0.6788
C76A C -1.1222(3) 2.27539(17) 1.04555(16)
H60A H -1.1360 2.3234 1.0642
C77A C -1.1975(3) 2.15063(16) 0.96926(16)
C79A C -1.3548(4) 2.30434(17) 0.99739(18)
H62A H -1.4421 2.3051 0.9776
H63A H -1.3526 2.3271 1.0486
H64A H -1.2836 2.3300 0.9821
C80A C -0.9370(3) 2.04735(19) 0.9602(2)
H65A H -0.9412 1.9958 0.9372
H66A H -0.8802 2.0688 0.9351
H67A H -0.8991 2.0660 1.0086
C81A C -1.0971(3) 0.95359(18) 0.36702(19)
H68A H -1.0971 1.0041 0.3969
H69A H -1.0992 0.9452 0.3179
H70A H -1.1763 0.9255 0.3742
C82A C -0.4430(3) 1.46072(19) 0.73532(19)
H71A H -0.4808 1.4102 0.7157
H72A H -0.3969 1.4708 0.6995
H73A H -0.3791 1.4729 0.7753
C83A C -1.6279(3) 1.4044(2) 0.53474(19)
H74A H -1.6966 1.4328 0.5443
C84A C -1.5504(4) 1.5523(2) 0.6090(2)
H75A H -1.5067 1.6020 0.6309
H76A H -1.6119 1.5443 0.5694
H77A H -1.6009 1.5415 0.6433
C86A C -1.3510(4) 1.20764(19) 0.4655(2)
H81A H -1.2674 1.1883 0.4620
H82A H -1.4101 1.1923 0.4945
H83A H -1.3957 1.1904 0.4187
H85A H -0.880(3) 1.5157(19) 0.552(2)
H86A H -1.127(3) 1.4853(18) 0.781(2)
H88A H -0.998(3) 1.538(2) 0.797(2)
H89A H -1.014(2) 1.468(2) 0.544(2)
H90A H -0.332(3) 1.056(3) 0.444(2)
H91A H -1.627(5) 1.959(3) 0.9723(16)
H92A H -1.719(3) 1.938(2) 0.907(2)
O3A O 0.8230(2) -0.56887(11) -0.16099(11)
O11A O 0.8108(2) -0.56154(11) -0.05362(11)
O16A O 0.5412(2) -0.51567(11) -0.09279(11)
O21A O 0.7156(2) -0.72631(11) -0.16946(11)
C16A C 0.7633(3) -0.58100(15) -0.11504(16)
C24A C 0.6221(3) -0.62290(15) -0.13497(15)
C29A C 0.5111(3) -0.58825(16) -0.12472(16)
C34A C 0.6018(3) -0.69687(15) -0.16469(15)
C56A C 0.4736(3) -0.73614(17) -0.18639(16)
H40A H 0.4600 -0.7865 -0.2071
C58A C 0.3814(3) -0.62631(17) -0.14598(16)
H41A H 0.3059 -0.6027 -0.1394
C69A C 0.6999(3) -0.80236(16) -0.20039(18)
H50A H 0.7879 -0.8169 -0.2009
H51A H 0.6416 -0.8202 -0.1730
H52A H 0.6595 -0.8219 -0.2484
C78A C 0.3660(3) -0.69960(17) -0.17691(17)
H61A H 0.2782 -0.7261 -0.1923
C85A C 0.4312(3) -0.47742(18) -0.07181(19)
H78A H 0.4651 -0.4264 -0.0499
H79A H 0.3705 -0.4893 -0.1129
H80A H 0.3825 -0.4904 -0.0382
O10A O 1.0767(2) -0.51972(12) -0.10292(11)
H84A H 0.995(2) -0.535(2) -0.127(2)
H87A H 1.129(3) -0.4894(19) -0.117(2)
Mn2_2 Mn -2.0000 2.5000 1.0000
N4A_2 N 1.0704(3) -0.60387(13) -0.01601(13)
loop_
_geom_bond_atom_site_label_1
_geom_bond_atom_site_label_2
_geom_bond_site_symmetry_1
_geom_bond_site_symmetry_2
Mn1 O1 1_555 1_555
Mn2 O10 1_555 1_555
Mn3 O2 1_555 1_555
Mn4 O19 1_555 1_555
O1 H86 1_555 1_555
O2 C4 1_555 1_555
O3 C16 1_555 1_555
O4 Mn3 1_555 1_555
O5 C1 1_555 1_555
O6 C5 1_555 1_555
O7 C2 1_555 1_555
O8 C22 1_555 1_555
O9 Mn3 1_555 1_555
O10 H84 1_555 1_555
O11 Mn2 1_555 1_555
O12 Mn1 1_555 1_555
O13 C23 1_555 1_555
O14 Mn3 1_555 1_555
O15 C18 1_555 1_555
O16 C29 1_555 1_555
O17 Mn1 1_555 1_555
O18 Mn1 1_555 1_555
O19 C68 1_555 1_555
O20 C51 1_555 1_555
O21 C34 1_555 1_555
O22 Mn4 1_555 1_555
O23 C50 1_555 1_555
O24 C30 1_555 1_555
O25 C68 1_555 1_555
O26 C43 1_555 1_555
O27 C57 1_555 1_555
O28 C70 1_555 1_555
O29 C7 1_555 1_555
N1 Mn1 1_555 1_555
N2 Mn3 1_555 1_555
N3 Mn3 1_555 1_555
N4 Mn2 1_555 1_555
N5 Mn1 1_555 1_555
N6 Mn4 1_555 1_555
C1 O18 1_555 1_555
C2 H1 1_555 1_555
H2 C2 1_555 1_555
H3 C2 1_555 1_555
C3 O22 1_555 1_555
H4 C3 1_555 1_555
H5 C3 1_555 1_555
C4 O4 1_555 1_555
C5 O14 1_555 1_555
C6 C14 1_555 1_555
C7 H6 1_555 1_555
H7 C7 1_555 1_555
H8 C7 1_555 1_555
C8 C5 1_555 1_555
C9 N2 1_555 1_555
H9 C9 1_555 1_555
C10 C3 1_555 1_555
H10 C10 1_555 1_555
H11 C10 1_555 1_555
H12 C10 1_555 1_555
C11 O7 1_555 1_555
C12 H13 1_555 1_555
C13 C11 1_555 1_555
H14 C13 1_555 1_555
C14 H15 1_555 1_555
C15 C13 1_555 1_555
H16 C15 1_555 1_555
C16 O11 1_555 1_555
C17 C15 1_555 1_555
H17 C17 1_555 1_555
C18 C25 1_555 1_555
C19 C6 1_555 1_555
C20 H18 1_555 1_555
C21 C20 1_555 1_555
C22 O17 1_555 1_555
C23 C25 1_555 1_555
C24 C16 1_555 1_555
C25 C1 1_555 1_555
C26 N6 1_555 1_555
H19 C26 1_555 1_555
C27 C21 1_555 1_555
C28 C23 1_555 1_555
H20 C28 1_555 1_555
C29 C24 1_555 1_555
C30 C45 1_555 1_555
C31 C21 1_555 1_555
H21 C31 1_555 1_555
C32 C6 1_555 1_555
H22 C32 1_555 1_555
C33 N6 1_555 1_555
H23 C33 1_555 1_555
C34 C24 1_555 1_555
C35 H24 1_555 1_555
C36 C12 1_555 1_555
C37 C36 1_555 1_555
C38 N1 1_555 1_555
H25 C38 1_555 1_555
C39 N3 1_555 1_555
H26 C39 1_555 1_555
C40 C27 1_555 1_555
H27 C40 1_555 1_555
C41 N5 1_555 1_555
H28 C41 1_555 1_555
C42 N5 1_555 1_555
H29 C42 1_555 1_555
C43 C45 1_555 1_555
C44 N1 1_555 1_555
H30 C44 1_555 1_555
C45 C22 1_555 1_555
C46 O13 1_555 1_555
H31 C46 1_555 1_555
H32 C46 1_555 1_555
H33 C46 1_555 1_555
C47 N4 1_555 1_555
H34 C47 1_555 1_555
C48 H35 1_555 1_555
C49 N4 1_555 1_555
H36 C49 1_555 1_555
C50 C61 1_555 1_555
C51 C48 1_555 1_555
C52 O29 1_555 1_555
C53 C18 1_555 1_555
H37 C53 1_555 1_555
C54 C37 1_555 1_555
H38 C54 1_555 1_555
C55 C26 1_555 1_555
H39 C55 1_555 1_555
C56 C34 1_555 1_555
H40 C56 1_555 1_555
C57 C76 1_555 1_555
C58 C29 1_555 1_555
H41 C58 1_555 1_555
C59 H42 1_555 1_555
C60 C43 1_555 1_555
H43 C60 1_555 1_555
C61 H44 1_555 1_555
C62 C9 1_555 1_555
H45 C62 1_555 1_555
C63 C59 1_555 1_555
H46 C63 1_555 1_555
C64 C50 1_555 1_555
C65 N2 1_555 1_555
H47 C65 1_555 1_555
C66 C48 1_555 1_555
H48 C66 1_555 1_555
C67 N3 1_555 1_555
H49 C67 1_555 1_555
C68 C64 1_555 1_555
C69 O21 1_555 1_555
H50 C69 1_555 1_555
H51 C69 1_555 1_555
H52 C69 1_555 1_555
C70 C59 1_555 1_555
C71 C37 1_555 1_555
H53 C71 1_555 1_555
C72 C28 1_555 1_555
H54 C72 1_555 1_555
C73 O23 1_555 1_555
H55 C73 1_555 1_555
H56 C73 1_555 1_555
H57 C73 1_555 1_555
C74 C60 1_555 1_555
H58 C74 1_555 1_555
C75 C19 1_555 1_555
H59 C75 1_555 1_555
C76 C63 1_555 1_555
H60 C76 1_555 1_555
C77 C4 1_555 1_555
C78 C56 1_555 1_555
H61 C78 1_555 1_555
C79 O27 1_555 1_555
H62 C79 1_555 1_555
H63 C79 1_555 1_555
H64 C79 1_555 1_555
C80 O28 1_555 1_555
H65 C80 1_555 1_555
H66 C80 1_555 1_555
H67 C80 1_555 1_555
C81 O20 1_555 1_555
H68 C81 1_555 1_555
H69 C81 1_555 1_555
H70 C81 1_555 1_555
C82 O15 1_555 1_555
H71 C82 1_555 1_555
H72 C82 1_555 1_555
H73 C82 1_555 1_555
C83 C30 1_555 1_555
H74 C83 1_555 1_555
C84 O24 1_555 1_555
H75 C84 1_555 1_555
H76 C84 1_555 1_555
H77 C84 1_555 1_555
C85 O16 1_555 1_555
H78 C85 1_555 1_555
H79 C85 1_555 1_555
H80 C85 1_555 1_555
C86 O26 1_555 1_555
H81 C86 1_555 1_555
H82 C86 1_555 1_555
H83 C86 1_555 1_555
H85 O12 1_555 1_555
H87 O10 1_555 1_555
H88 O1 1_555 1_555
H89 O12 1_555 1_555
H90 O22 1_555 1_555
H91 O9 1_555 1_555
H92 O9 1_555 1_555
Mn1A O1A 1_555 1_555
Mn3A O2A 1_555 1_555
O1A H86A 1_555 1_555
O2A C4A 1_555 1_555
O4A Mn3A 1_555 1_555
O5A C1A 1_555 1_555
O6A C5A 1_555 1_555
O7A C2A 1_555 1_555
O8A C22A 1_555 1_555
O9A Mn3A 1_555 1_555
O12A Mn1A 1_555 1_555
O13A C23A 1_555 1_555
O14A Mn3A 1_555 1_555
O15A C18A 1_555 1_555
O17A Mn1A 1_555 1_555
O18A Mn1A 1_555 1_555
O19A Mn4 1_555 1_555
O20A C51A 1_555 1_555
O22A Mn4 1_555 1_555
O23A C50A 1_555 1_555
O24A C30A 1_555 1_555
O25A C68A 1_555 1_555
O26A C43A 1_555 1_555
O27A C57A 1_555 1_555
O28A C70A 1_555 1_555
O29A C7A 1_555 1_555
N1A Mn1A 1_555 1_555
N2A Mn3A 1_555 1_555
N3A Mn3A 1_555 1_555
N4A C47A 1_555 1_555
N5A Mn1A 1_555 1_555
N6A Mn4 1_555 1_555
C1A O18A 1_555 1_555
C2A H1A 1_555 1_555
H2A C2A 1_555 1_555
H3A C2A 1_555 1_555
C3A O22A 1_555 1_555
H4A C3A 1_555 1_555
H5A C3A 1_555 1_555
C4A O4A 1_555 1_555
C5A O14A 1_555 1_555
C6A C14A 1_555 1_555
C7A H6A 1_555 1_555
H7A C7A 1_555 1_555
H8A C7A 1_555 1_555
C8A C5A 1_555 1_555
C9A N2A 1_555 1_555
H9A C9A 1_555 1_555
C10A C3A 1_555 1_555
H10A C10A 1_555 1_555
H11A C10A 1_555 1_555
H12A C10A 1_555 1_555
C11A O7A 1_555 1_555
C12A H13A 1_555 1_555
C13A C11A 1_555 1_555
H14A C13A 1_555 1_555
C14A H15A 1_555 1_555
C15A C13A 1_555 1_555
H16A C15A 1_555 1_555
C17A C15A 1_555 1_555
H17A C17A 1_555 1_555
C18A C25A 1_555 1_555
C19A C6A 1_555 1_555
C20A H18A 1_555 1_555
C21A C20A 1_555 1_555
C22A O17A 1_555 1_555
C23A C25A 1_555 1_555
C25A C1A 1_555 1_555
C26A N6A 1_555 1_555
H19A C26A 1_555 1_555
C27A C21A 1_555 1_555
C28A C23A 1_555 1_555
H20A C28A 1_555 1_555
C30A C45A 1_555 1_555
C31A C21A 1_555 1_555
H21A C31A 1_555 1_555
C32A C6A 1_555 1_555
H22A C32A 1_555 1_555
C33A N6A 1_555 1_555
H23A C33A 1_555 1_555
C35A H24A 1_555 1_555
C36A C12A 1_555 1_555
C37A C36A 1_555 1_555
C38A N1A 1_555 1_555
H25A C38A 1_555 1_555
C39A N3A 1_555 1_555
H26A C39A 1_555 1_555
C40A C27A 1_555 1_555
H27A C40A 1_555 1_555
C41A N5A 1_555 1_555
H28A C41A 1_555 1_555
C42A N5A 1_555 1_555
H29A C42A 1_555 1_555
C43A C45A 1_555 1_555
C44A N1A 1_555 1_555
H30A C44A 1_555 1_555
C45A C22A 1_555 1_555
C46A O13A 1_555 1_555
H31A C46A 1_555 1_555
H32A C46A 1_555 1_555
H33A C46A 1_555 1_555
C47A C35A 1_555 1_555
H34A C47A 1_555 1_555
C48A H35A 1_555 1_555
C49A N4A 1_555 1_555
H36A C49A 1_555 1_555
C50A C61A 1_555 1_555
C51A C48A 1_555 1_555
C52A O29A 1_555 1_555
C53A C18A 1_555 1_555
H37A C53A 1_555 1_555
C54A C37A 1_555 1_555
H38A C54A 1_555 1_555
C55A C26A 1_555 1_555
H39A C55A 1_555 1_555
C57A C76A 1_555 1_555
C59A H42A 1_555 1_555
C60A C43A 1_555 1_555
H43A C60A 1_555 1_555
C61A H44A 1_555 1_555
C62A C9A 1_555 1_555
H45A C62A 1_555 1_555
C63A C59A 1_555 1_555
H46A C63A 1_555 1_555
C64A C50A 1_555 1_555
C65A N2A 1_555 1_555
H47A C65A 1_555 1_555
C66A C48A 1_555 1_555
H48A C66A 1_555 1_555
C67A N3A 1_555 1_555
H49A C67A 1_555 1_555
C68A O19A 1_555 1_555
C70A C59A 1_555 1_555
C71A C37A 1_555 1_555
H53A C71A 1_555 1_555
C72A C28A 1_555 1_555
H54A C72A 1_555 1_555
C73A O23A 1_555 1_555
H55A C73A 1_555 1_555
H56A C73A 1_555 1_555
H57A C73A 1_555 1_555
C74A C60A 1_555 1_555
H58A C74A 1_555 1_555
C75A C19A 1_555 1_555
H59A C75A 1_555 1_555
C76A C63A 1_555 1_555
H60A C76A 1_555 1_555
C77A C4A 1_555 1_555
C79A O27A 1_555 1_555
H62A C79A 1_555 1_555
H63A C79A 1_555 1_555
H64A C79A 1_555 1_555
C80A O28A 1_555 1_555
H65A C80A 1_555 1_555
H66A C80A 1_555 1_555
H67A C80A 1_555 1_555
C81A O20A 1_555 1_555
H68A C81A 1_555 1_555
H69A C81A 1_555 1_555
H70A C81A 1_555 1_555
C82A O15A 1_555 1_555
H71A C82A 1_555 1_555
H72A C82A 1_555 1_555
H73A C82A 1_555 1_555
C83A C30A 1_555 1_555
H74A C83A 1_555 1_555
C84A O24A 1_555 1_555
H75A C84A 1_555 1_555
H76A C84A 1_555 1_555
H77A C84A 1_555 1_555
C86A O26A 1_555 1_555
H81A C86A 1_555 1_555
H82A C86A 1_555 1_555
H83A C86A 1_555 1_555
H85A O12A 1_555 1_555
H88A O1A 1_555 1_555
H89A O12A 1_555 1_555
H90A O22A 1_555 1_555
H91A O9A 1_555 1_555
H92A O9A 1_555 1_555
O3A C16A 1_555 1_555
O11A Mn2 1_555 1_555
O16A C29A 1_555 1_555
O21A C34A 1_555 1_555
C16A O11A 1_555 1_555
C24A C16A 1_555 1_555
C29A C24A 1_555 1_555
C34A C24A 1_555 1_555
C56A C34A 1_555 1_555
H40A C56A 1_555 1_555
C58A C29A 1_555 1_555
H41A C58A 1_555 1_555
C69A O21A 1_555 1_555
H50A C69A 1_555 1_555
H51A C69A 1_555 1_555
H52A C69A 1_555 1_555
C78A C56A 1_555 1_555
H61A C78A 1_555 1_555
C85A O16A 1_555 1_555
H78A C85A 1_555 1_555
H79A C85A 1_555 1_555
H80A C85A 1_555 1_555
O10A Mn2 1_555 1_555
H84A O10A 1_555 1_555
H87A O10A 1_555 1_555
Mn2_2 N4A 1_555 1_555
N4A_2 Mn2 1_555 1_555
C8 C11 1_555 1_555
C8 C52 1_555 1_555
C12 C49 1_555 1_555
C14 C38 1_555 1_555
C17 C52 1_555 1_555
C19 C62 1_555 1_555
C20 C41 1_555 1_555
C27 C55 1_555 1_555
C31 C42 1_555 1_555
C32 C44 1_555 1_555
C33 C40 1_555 1_555
C35 C36 1_555 1_555
C35 C47 1_555 1_555
C39 C71 1_555 1_555
C51 C64 1_555 1_555
C53 C72 1_555 1_555
C54 C67 1_555 1_555
C57 C77 1_555 1_555
C58 C78 1_555 1_555
C61 C66 1_555 1_555
C65 C75 1_555 1_555
C70 C77 1_555 1_555
C74 C83 1_555 1_555
C8A C11A 1_555 1_555
C8A C52A 1_555 1_555
C12A C49A 1_555 1_555
C14A C38A 1_555 1_555
C17A C52A 1_555 1_555
C19A C62A 1_555 1_555
C20A C41A 1_555 1_555
C27A C55A 1_555 1_555
C31A C42A 1_555 1_555
C32A C44A 1_555 1_555
C33A C40A 1_555 1_555
C35A C36A 1_555 1_555
C39A C71A 1_555 1_555
C51A C64A 1_555 1_555
C53A C72A 1_555 1_555
C54A C67A 1_555 1_555
C57A C77A 1_555 1_555
C61A C66A 1_555 1_555
C64A C68A 1_555 1_555
C65A C75A 1_555 1_555
C70A C77A 1_555 1_555
C74A C83A 1_555 1_555
C58A C78A 1_555 1_555

#END
