
#######################################################################
#
#                 Cambridge Crystallographic Data Centre
#                                CCDC 
#
#######################################################################
#
# If this CIF has been generated from an entry in the Cambridge 
# Structural Database, then it will include bibliographic, chemical, 
# crystal, experimental, refinement or atomic coordinate data resulting 
# from the CCDC's data processing and validation procedures.
#
#######################################################################

data_KIZQAN
_symmetry_cell_setting           monoclinic
_symmetry_space_group_name_H-M   'P 21'
_symmetry_Int_Tables_number      4
_space_group_name_Hall           'P 2yb'
loop_
_symmetry_equiv_pos_site_id
_symmetry_equiv_pos_as_xyz
1 x,y,z
2 -x,1/2+y,-z
_cell_length_a                   10.9118(11)
_cell_length_b                   3.8178(3)
_cell_length_c                   11.2117(12)
_cell_angle_alpha                90
_cell_angle_beta                 112.3600(10)
_cell_angle_gamma                90
_cell_volume                     431.951
loop_
_atom_site_label
_atom_site_type_symbol
_atom_site_fract_x
_atom_site_fract_y
_atom_site_fract_z
Cd1 Cd 0.48734(3) 0.2925 0.65278(3)
Cl1 Cl 0.61845(12) 0.8003(12) 0.80535(12)
Cl2 Cl 0.64239(11) 0.2991(11) 0.51572(11)
N1 N 0.1226(5) 0.4898(16) 0.7114(5)
N2 N 0.1929(5) 0.338(3) 0.6490(5)
N3 N 0.3186(5) 0.3615(18) 0.7302(5)
C1 C 0.3265(6) 0.5124(19) 0.8399(6)
H1 H 0.4046 0.5525 0.9106
C2 C 0.2014(6) 0.6001(19) 0.8328(6)
C3 C 0.1419(6) 0.765(4) 0.9111(5)
H2 H 0.1924 0.8425 0.9940
C4 C 0.0078(5) 0.805(5) 0.8598(5)
H3 H -0.0339 0.9086 0.9094
C5 C -0.0691(6) 0.6947(18) 0.7341(7)
H4 H -0.1602 0.7320 0.7014
C6 C -0.0138(6) 0.537(2) 0.6608(6)
H5 H -0.0652 0.4604 0.5780
Cd1_2 Cd 0.48734(3) 1.2925 0.65278(3)
Cd1A Cd 0.51266(3) -0.2075 0.34722(3)
Cd1A_2 Cd 0.51266(3) 0.7925 0.34722(3)
Cl1_2 Cl 0.61845(12) -0.1997(12) 0.80535(12)
Cl2A Cl 0.35761(11) -0.2009(11) 0.48428(11)
Cl2A_2 Cl 0.35761(11) 0.7991(11) 0.48428(11)
loop_
_geom_bond_atom_site_label_1
_geom_bond_atom_site_label_2
_geom_bond_site_symmetry_1
_geom_bond_site_symmetry_2
Cd1 Cl1 1_555 1_555
Cl1 Cd1_2 1_555 1_555
Cl2 Cd1 1_555 1_555
N1 N2 1_555 1_555
N2 N3 1_555 1_555
N3 Cd1 1_555 1_555
C1 N3 1_555 1_555
H1 C1 1_555 1_555
C2 N1 1_555 1_555
C3 C2 1_555 1_555
H2 C3 1_555 1_555
C4 C3 1_555 1_555
H3 C4 1_555 1_555
C5 C4 1_555 1_555
H4 C5 1_555 1_555
C6 N1 1_555 1_555
H5 C6 1_555 1_555
Cd1_2 Cl2A_2 1_555 1_555
Cd1A Cl2 1_555 1_555
Cd1A_2 Cl2 1_555 1_555
Cl1_2 Cd1 1_555 1_555
Cl2A Cd1 1_555 1_555
Cl2A_2 Cd1 1_555 1_555
C1 C2 1_555 1_555
C5 C6 1_555 1_555
Cd1A Cl2A 1_555 1_555
Cd1A_2 Cl2A_2 1_555 1_555

#END
