
#######################################################################
#
#                 Cambridge Crystallographic Data Centre
#                                CCDC 
#
#######################################################################
#
# If this CIF has been generated from an entry in the Cambridge 
# Structural Database, then it will include bibliographic, chemical, 
# crystal, experimental, refinement or atomic coordinate data resulting 
# from the CCDC's data processing and validation procedures.
#
#######################################################################

data_KIZXUM
_symmetry_cell_setting           monoclinic
_symmetry_space_group_name_H-M   'P 21/c'
_symmetry_Int_Tables_number      14
_space_group_name_Hall           '-P 2ybc'
loop_
_symmetry_equiv_pos_site_id
_symmetry_equiv_pos_as_xyz
1 x,y,z
2 -x,1/2+y,1/2-z
3 -x,-y,-z
4 x,1/2-y,1/2+z
_cell_length_a                   5.682(1)
_cell_length_b                   10.412(2)
_cell_length_c                   16.838(5)
_cell_angle_alpha                90
_cell_angle_beta                 97.48(2)
_cell_angle_gamma                90
_cell_volume                     987.676
loop_
_atom_site_label
_atom_site_type_symbol
_atom_site_fract_x
_atom_site_fract_y
_atom_site_fract_z
Cu1 Cu -0.5707(2) 0.5180(1) 0.08423(6)
S1 S -0.6570(3) 0.3280(2) -0.0197(1)
N1 N -1.120(1) 0.4085(6) -0.0752(3)
C1 C -0.930(1) 0.3754(7) -0.0536(4)
N2 N -0.3396(9) 0.4302(6) 0.1655(3)
C2 C -0.173(1) 0.3563(8) 0.1415(4)
C3 C 0.010(1) 0.2994(7) 0.1923(5)
C4 C 0.027(1) 0.3212(8) 0.2724(5)
C5 C -0.135(2) 0.4273(8) 0.3836(5)
C6 C -0.303(2) 0.5024(9) 0.4098(4)
C7 C -0.488(1) 0.5544(8) 0.3549(5)
C8 C -0.497(1) 0.5321(8) 0.2752(5)
C9 C -0.325(1) 0.4527(7) 0.2464(4)
C10 C -0.140(1) 0.3993(8) 0.3023(4)
H1 H -0.1792 0.3416 0.0838
H2 H 0.1253 0.2433 0.1701
H3 H 0.1588 0.2832 0.3084
H4 H -0.0067 0.3913 0.4223
H5 H -0.2972 0.5224 0.4666
H6 H -0.6131 0.6076 0.3742
H7 H -0.6215 0.5727 0.2367
Cu1B Cu -0.4293(2) 0.4820(1) -0.08423(6)
S1B S -0.3430(3) 0.6720(2) 0.0197(1)
Cu1B_2 Cu -1.4293(2) 0.4820(1) -0.08423(6)
N1B N -0.880(1) 0.5915(6) 0.0752(3)
loop_
_geom_bond_atom_site_label_1
_geom_bond_atom_site_label_2
_geom_bond_site_symmetry_1
_geom_bond_site_symmetry_2
Cu1 S1 1_555 1_555
S1 C1 1_555 1_555
N1 C1 1_555 1_555
N2 Cu1 1_555 1_555
C2 N2 1_555 1_555
C3 C2 1_555 1_555
C4 C3 1_555 1_555
C5 C6 1_555 1_555
C6 C7 1_555 1_555
C7 C8 1_555 1_555
C8 C9 1_555 1_555
C9 N2 1_555 1_555
C10 C4 1_555 1_555
H1 C2 1_555 1_555
H2 C3 1_555 1_555
H3 C4 1_555 1_555
H4 C5 1_555 1_555
H5 C6 1_555 1_555
H6 C7 1_555 1_555
H7 C8 1_555 1_555
Cu1B S1 1_555 1_555
S1B Cu1 1_555 1_555
Cu1B_2 N1 1_555 1_555
N1B Cu1 1_555 1_555
C5 C10 1_555 1_555
C9 C10 1_555 1_555
Cu1B S1B 1_555 1_555

#END
