
#######################################################################
#
#                 Cambridge Crystallographic Data Centre
#                                CCDC 
#
#######################################################################
#
# If this CIF has been generated from an entry in the Cambridge 
# Structural Database, then it will include bibliographic, chemical, 
# crystal, experimental, refinement or atomic coordinate data resulting 
# from the CCDC's data processing and validation procedures.
#
#######################################################################

data_KIZZAV
_symmetry_cell_setting           orthorhombic
_symmetry_space_group_name_H-M   'P 21 21 21'
_symmetry_Int_Tables_number      19
_space_group_name_Hall           'P 2ac 2ab'
loop_
_symmetry_equiv_pos_site_id
_symmetry_equiv_pos_as_xyz
1 x,y,z
2 1/2-x,-y,1/2+z
3 -x,1/2+y,1/2-z
4 1/2+x,1/2-y,-z
_cell_length_a                   8.0276(16)
_cell_length_b                   19.859(4)
_cell_length_c                   21.265(4)
_cell_angle_alpha                90
_cell_angle_beta                 90
_cell_angle_gamma                90
_cell_volume                     3390.07
loop_
_atom_site_label
_atom_site_type_symbol
_atom_site_fract_x
_atom_site_fract_y
_atom_site_fract_z
C1 C -0.4336(9) 0.5703(4) 1.0792(4)
C2 C -0.4097(9) 0.6348(3) 1.1154(3)
H1 H -0.5112 0.6452 1.1381
H2 H -0.3212 0.6287 1.1459
C3 C -0.2527(11) 0.7421(4) 1.0979(3)
H3 H -0.1964 0.7237 1.1344
H4 H -0.3151 0.7814 1.1113
C4 C -0.1201(9) 0.7639(3) 1.0481(4)
C5 C -0.0606(12) 0.5626(4) 0.9218(4)
H5 H -0.0559 0.5321 0.9550
C6 C -0.1266(9) 0.6487(3) 0.8644(3)
C7 C -0.1861(10) 0.7070(4) 0.8384(4)
H6 H -0.2664 0.7322 0.8593
C8 C -0.1264(11) 0.7280(5) 0.7810(4)
H7 H -0.1679 0.7676 0.7637
C9 C -0.0082(13) 0.6927(5) 0.7486(4)
H8 H 0.0297 0.7088 0.7101
C10 C 0.0561(13) 0.6330(6) 0.7727(4)
H9 H 0.1355 0.6080 0.7510
C11 C -0.0050(10) 0.6125(4) 0.8310(3)
C12 C 0.1869(15) 0.5113(6) 0.8618(6)
H10 H 0.1809 0.4742 0.8914
H11 H 0.1908 0.4928 0.8196
C13 C 0.3449(13) 0.5536(7) 0.8745(6)
H12 H 0.3691 0.5525 0.9192
H13 H 0.3227 0.6000 0.8630
C14 C 0.5019(16) 0.5287(5) 0.8375(6)
H14 H 0.4789 0.5276 0.7928
H15 H 0.5951 0.5588 0.8448
C15 C 0.6150(9) 0.4478(3) 0.9164(4)
H16 H 0.6262 0.4790 0.9488
C16 C 0.5420(9) 0.4024(3) 0.8252(4)
C17 C 0.4812(10) 0.3879(4) 0.7652(4)
H17 H 0.4248 0.4197 0.7411
C18 C 0.5102(12) 0.3238(4) 0.7441(4)
H18 H 0.4746 0.3125 0.7038
C19 C 0.5897(13) 0.2748(5) 0.7796(5)
H19 H 0.6038 0.2317 0.7634
C20 C 0.6477(12) 0.2899(4) 0.8386(4)
H20 H 0.7015 0.2575 0.8628
C21 C 0.6236(10) 0.3561(4) 0.8620(4)
C22 C 0.6100(9) 0.2364(4) 1.0493(4)
C23 C 0.7413(13) 0.2582(4) 1.0991(3)
H21 H 0.6843 0.2773 1.1352
H22 H 0.8018 0.2187 1.1133
C24 C 0.8994(10) 0.3644(4) 1.1162(4)
H23 H 1.0003 0.3545 1.1395
H24 H 0.8099 0.3710 1.1462
C25 C 0.9243(9) 0.4289(3) 1.0779(4)
Cu1 Cu -0.27322(11) 0.65391(4) 0.99454(4)
Cu2 Cu 0.76954(11) 0.34449(4) 0.99439(4)
N1 N -0.3671(7) 0.6923(3) 1.0731(3)
N2 N -0.1589(9) 0.6159(3) 0.9210(3)
N3 N 0.0323(11) 0.5571(4) 0.8691(3)
N4 N 0.5415(9) 0.4612(3) 0.8603(3)
N5 N 0.6688(8) 0.3850(3) 0.9193(3)
N6 N 0.8587(8) 0.3071(3) 1.0748(3)
O1 O -0.3879(6) 0.5707(2) 1.0210(3)
O2 O -0.4865(9) 0.5210(3) 1.1073(3)
O3 O -0.1331(6) 0.7365(2) 0.9939(2)
O4 O -0.0133(7) 0.8049(3) 1.0642(3)
O5 O 0.6251(6) 0.2624(2) 0.9947(2)
O6 O 0.5025(8) 0.1955(3) 1.0644(3)
O7 O 0.8838(7) 0.4280(3) 1.0202(3)
O8 O 0.9783(9) 0.4784(3) 1.1073(3)
Cu1C Cu 0.22678(11) 0.84609(4) 1.00546(4)
Cu2C Cu 0.26954(11) 0.15551(4) 1.00561(4)
O4C O -0.5133(7) 0.6951(3) 0.9358(3)
O6C O 1.0025(8) 0.3045(3) 0.9356(3)
C26 C 0.6428(12) 0.8783(5) 0.9391(6)
O9 O 0.4697(7) 0.8923(3) 0.9307(3)
C27 C 0.8531(14) 0.1173(6) 0.9526(8)
O10 O 1.0216(8) 0.1064(3) 0.9366(4)
C28 C 0.962(3) 0.3995(10) 0.7821(9)
O11 O 1.074(2) 0.3682(8) 0.8238(9)
O12 O 0.2575(9) 0.5117(4) 0.6909(4)
H25 H 0.320(7) 0.539(3) 0.702(3)
H26 H 0.218(9) 0.472(3) 0.703(3)
loop_
_geom_bond_atom_site_label_1
_geom_bond_atom_site_label_2
_geom_bond_site_symmetry_1
_geom_bond_site_symmetry_2
C1 C2 1_555 1_555
C2 H1 1_555 1_555
H2 C2 1_555 1_555
C3 H3 1_555 1_555
H4 C3 1_555 1_555
C4 C3 1_555 1_555
C5 H5 1_555 1_555
C6 C7 1_555 1_555
C7 H6 1_555 1_555
C8 C7 1_555 1_555
H7 C8 1_555 1_555
C9 C8 1_555 1_555
H8 C9 1_555 1_555
C10 C9 1_555 1_555
H9 C10 1_555 1_555
C11 C6 1_555 1_555
C12 H10 1_555 1_555
H11 C12 1_555 1_555
C13 C12 1_555 1_555
H12 C13 1_555 1_555
H13 C13 1_555 1_555
C14 C13 1_555 1_555
H14 C14 1_555 1_555
H15 C14 1_555 1_555
C15 H16 1_555 1_555
C16 C17 1_555 1_555
C17 H17 1_555 1_555
C18 C17 1_555 1_555
H18 C18 1_555 1_555
C19 C18 1_555 1_555
H19 C19 1_555 1_555
C20 C19 1_555 1_555
H20 C20 1_555 1_555
C21 C16 1_555 1_555
C22 C23 1_555 1_555
C23 H21 1_555 1_555
H22 C23 1_555 1_555
C24 H23 1_555 1_555
H24 C24 1_555 1_555
C25 C24 1_555 1_555
C26 O9 1_555 1_555
C27 O10 1_555 1_555
C28 O11 1_555 1_555
Cu1 N1 1_555 1_555
Cu2 N5 1_555 1_555
N1 C2 1_555 1_555
N2 C5 1_555 1_555
N3 C5 1_555 1_555
N4 C14 1_555 1_555
N5 C15 1_555 1_555
N6 C23 1_555 1_555
O1 C1 1_555 1_555
O2 C1 1_555 1_555
O3 C4 1_555 1_555
O4 C4 1_555 1_555
O5 C22 1_555 1_555
O6 C22 1_555 1_555
O7 C25 1_555 1_555
O8 C25 1_555 1_555
O12 H25 1_555 1_555
H26 O12 1_555 1_555
Cu1C O4 1_555 1_555
Cu2C O6 1_555 1_555
O4C Cu1 1_555 1_555
O6C Cu2 1_555 1_555
C3 N1 1_555 1_555
C6 N2 1_555 1_555
C10 C11 1_555 1_555
C11 N3 1_555 1_555
C12 N3 1_555 1_555
C15 N4 1_555 1_555
C16 N4 1_555 1_555
C20 C21 1_555 1_555
C21 N5 1_555 1_555
C24 N6 1_555 1_555
Cu1 N2 1_555 1_555
Cu1 O1 1_555 1_555
Cu1 O3 1_555 1_555
Cu2 N6 1_555 1_555
Cu2 O5 1_555 1_555
Cu2 O7 1_555 1_555

#END
