
#######################################################################
#
#                 Cambridge Crystallographic Data Centre
#                                CCDC 
#
#######################################################################
#
# If this CIF has been generated from an entry in the Cambridge 
# Structural Database, then it will include bibliographic, chemical, 
# crystal, experimental, refinement or atomic coordinate data resulting 
# from the CCDC's data processing and validation procedures.
#
#######################################################################

data_KNATAR07
_symmetry_cell_setting           orthorhombic
_symmetry_space_group_name_H-M   'P 21 21 2'
_symmetry_Int_Tables_number      18
_space_group_name_Hall           'P 2 2ab'
loop_
_symmetry_equiv_pos_site_id
_symmetry_equiv_pos_as_xyz
1 x,y,z
2 -x,-y,z
3 1/2+x,1/2-y,-z
4 1/2-x,1/2+y,-z
_cell_length_a                   11.880(3)
_cell_length_b                   14.298(3)
_cell_length_c                   6.216(2)
_cell_angle_alpha                90
_cell_angle_beta                 90
_cell_angle_gamma                90
_cell_volume                     1055.85
loop_
_atom_site_label
_atom_site_type_symbol
_atom_site_fract_x
_atom_site_fract_y
_atom_site_fract_z
O1 O 0.1201(1) 0.1088(1) -0.6512(2)
O2 O 0.2115(1) 0.2036(1) -0.8822(2)
O3 O 0.2305(1) 0.4068(1) -0.1829(2)
O4 O 0.0502(1) 0.3602(1) -0.1537(2)
O5 O 0.1646(1) 0.3578(1) -0.6759(2)
O6 O 0.2961(1) 0.2487(1) -0.3687(2)
O7 O -0.1039(1) 0.4167(1) 0.5154(2)
O8 O 0.2601(2) 0.5414(1) 0.1179(2)
O9 O -0.0598(1) 0.1941(2) -0.0331(3)
O10 O -0.0773(1) 0.1059(1) -0.4275(3)
C1 C 0.1549(1) 0.1880(1) -0.7163(2)
C2 C 0.1250(1) 0.2736(1) -0.5770(2)
C3 C 0.1779(1) 0.2636(1) -0.3533(2)
C4 C 0.1503(2) 0.3508(1) -0.2172(2)
K1 K 0.0000 0.0000 0.0441(1)
K2 K 0.0000 0.5000 0.1600(1)
Na1 Na 0.2322(1) -0.0068(1) 0.5185(1)
O1_2 O 0.1201(1) 0.1088(1) 0.3488(2)
O1A O -0.1201(1) -0.1088(1) 0.3488(2)
O1C O 0.3799(1) 0.6088(1) 0.6512(2)
O2_2 O 0.2115(1) 0.2036(1) 0.1178(2)
O3_2 O 0.2305(1) 0.4068(1) 0.8171(2)
O3C O 0.2695(1) -0.0932(1) 0.1829(2)
O4A O -0.0502(1) 0.6398(1) -0.1537(2)
O4_2 O 0.0502(1) 0.3602(1) 0.8463(2)
O5_2 O 0.1646(1) 0.3578(1) 0.3241(2)
O5A O -0.1646(1) 0.6422(1) 0.3241(2)
O5C O 0.3354(1) -0.1422(1) 0.6759(2)
O6_2 O 0.2961(1) 0.2487(1) 0.6313(2)
O7A O 0.1039(1) 0.5833(1) 0.5154(2)
O7B O 0.3961(1) 0.0833(1) 0.4846(2)
O8A O -0.2601(2) 0.4586(1) 0.1179(2)
O8C O 0.2399(2) 0.0414(1) -0.1179(2)
O8B O -0.2399(2) -0.0414(1) -0.1179(2)
O8C_2 O 0.2399(2) 0.0414(1) 0.8821(2)
O9A O 0.0598(1) -0.1941(2) -0.0331(3)
O10A O 0.0773(1) -0.1059(1) -0.4275(3)
O10B O 0.4227(1) 0.3941(1) 0.4275(3)
O10A_2 O 0.0773(1) -0.1059(1) 0.5725(3)
C1_2 C 0.1549(1) 0.1880(1) 0.2837(2)
C2_2 C 0.1250(1) 0.2736(1) 0.4230(2)
C3_2 C 0.1779(1) 0.2636(1) 0.6467(2)
C4_2 C 0.1503(2) 0.3508(1) 0.7828(2)
K1_2 K 0.0000 0.0000 -0.9559(1)
K1B K 0.5000 0.5000 -0.0441(1)
K2_2 K 0.0000 0.5000 -0.8400(1)
K2_3 K 0.0000 0.5000 1.1600(1)
K2B K 0.5000 0.0000 -0.1600(1)
Na1A Na -0.2322(1) 0.0068(1) -0.4815(1)
Na1C Na 0.2678(1) 0.4932(1) -0.5185(1)
Na1_2 Na 0.2322(1) -0.0068(1) -0.4815(1)
Na1C_2 Na 0.2678(1) 0.4932(1) 0.4815(1)
Na1B Na -0.2678(1) 0.5068(1) 0.4815(1)
loop_
_geom_bond_atom_site_label_1
_geom_bond_atom_site_label_2
_geom_bond_site_symmetry_1
_geom_bond_site_symmetry_2
O1 C1 1_555 1_555
O2 C1 1_555 1_555
O3 C4 1_555 1_555
O4 C4 1_555 1_555
O5 C2 1_555 1_555
O6 C3 1_555 1_555
O7 K2 1_555 1_555
O8 K2 1_555 1_555
O9 K1 1_555 1_555
O10 K1 1_555 1_555
C1 C2 1_555 1_555
C2 C3 1_555 1_555
C3 C4 1_555 1_555
K1 O1_2 1_555 1_555
K2 O4 1_555 1_555
Na1 O1_2 1_555 1_555
O1_2 C1_2 1_555 1_555
O1A K1 1_555 1_555
O1C Na1C_2 1_555 1_555
O2_2 C1_2 1_555 1_555
O3_2 C4_2 1_555 1_555
O3C Na1 1_555 1_555
O4A K2 1_555 1_555
O4_2 C4_2 1_555 1_555
O5_2 K2 1_555 1_555
O5A K2 1_555 1_555
O5C Na1 1_555 1_555
O6_2 C3_2 1_555 1_555
O7A K2 1_555 1_555
O7B Na1 1_555 1_555
O8A K2 1_555 1_555
O8C K1 1_555 1_555
O8B K1 1_555 1_555
O8C_2 Na1 1_555 1_555
O9A K1 1_555 1_555
O10A K1 1_555 1_555
O10B K1B 1_555 1_555
O10A_2 Na1 1_555 1_555
C1_2 C2_2 1_555 1_555
C2_2 O5_2 1_555 1_555
C3_2 C2_2 1_555 1_555
C4_2 C3_2 1_555 1_555
K1_2 O1 1_555 1_555
K1B O8 1_555 1_555
K2_2 O5 1_555 1_555
K2_3 O4_2 1_555 1_555
K2B O8C 1_555 1_555
Na1A O10 1_555 1_555
Na1C O3 1_555 1_555
Na1_2 O1 1_555 1_555
Na1C_2 O8 1_555 1_555
Na1B O7 1_555 1_555
O5 Na1C 1_555 1_555
O3_2 Na1C_2 1_555 1_555
O5_2 Na1C_2 1_555 1_555
O5A Na1B 1_555 1_555
O7A Na1C_2 1_555 1_555
O8A Na1B 1_555 1_555
O8C Na1_2 1_555 1_555
O8B Na1A 1_555 1_555
O10A Na1_2 1_555 1_555
O10B Na1C_2 1_555 1_555

#END
