
#######################################################################
#
#                 Cambridge Crystallographic Data Centre
#                                CCDC 
#
#######################################################################
#
# If this CIF has been generated from an entry in the Cambridge 
# Structural Database, then it will include bibliographic, chemical, 
# crystal, experimental, refinement or atomic coordinate data resulting 
# from the CCDC's data processing and validation procedures.
#
#######################################################################

data_KNTMET01
_symmetry_cell_setting           tetragonal
_symmetry_space_group_name_H-M   'I -4 2 d'
_symmetry_Int_Tables_number      122
_space_group_name_Hall           'I -4 2bw'
loop_
_symmetry_equiv_pos_site_id
_symmetry_equiv_pos_as_xyz
1 x,y,z
2 -x,-y,z
3 x,1/2-y,1/4-z
4 -x,1/2+y,1/4-z
5 y,1/2+x,1/4+z
6 -y,1/2-x,1/4+z
7 -y,x,-z
8 y,-x,-z
9 1/2+x,1/2+y,1/2+z
10 1/2-x,1/2-y,1/2+z
11 1/2+x,-y,3/4-z
12 1/2-x,y,3/4-z
13 1/2+y,x,3/4+z
14 1/2-y,-x,3/4+z
15 1/2-y,1/2+x,1/2-z
16 1/2+y,1/2-x,1/2-z
_cell_length_a                   11.3594(5)
_cell_length_b                   11.3594(5)
_cell_length_c                   8.7883(5)
_cell_angle_alpha                90
_cell_angle_beta                 90
_cell_angle_gamma                90
_cell_volume                     1134.01
loop_
_atom_site_label
_atom_site_type_symbol
_atom_site_fract_x
_atom_site_fract_y
_atom_site_fract_z
K1 K 0.47637(6) 0.2500 0.6250
O1 O 0.62947(12) 0.03764(13) 0.58187(18)
O2 O 0.63209(13) -0.09628(13) 0.4051(2)
O3 O 0.66694(12) 0.23780(13) 0.43635(17)
N1 N 0.66557(17) -0.00163(16) 0.4595(2)
N2 N 0.7500 0.1835(2) 0.3750
C1 C 0.7500 0.0625(2) 0.3750
K1E K 0.7500 0.02363(6) 0.8750
K1A K 0.52363(6) -0.2500 0.6250
K1F K 0.7500 0.47637(6) 0.3750
K1E_2 K 0.7500 0.02363(6) -0.1250
K1I K 1.02363(6) 0.2500 0.1250
K1H K 0.97637(6) -0.2500 0.1250
O1K O 0.87053(12) 0.03764(13) 0.16813(18)
O1B O 0.62947(12) 0.46236(13) 0.66813(18)
O1M O 0.46236(13) 0.37053(12) 0.33187(18)
O1N O 0.46236(13) 0.12947(12) 0.91813(18)
O2K O 0.86791(13) -0.09628(13) 0.3449(2)
O2A O 0.36791(13) 0.09628(13) 0.4051(2)
O2C O 0.36791(13) 0.40372(13) 0.8449(2)
O3K O 0.83306(12) 0.23780(13) 0.31365(17)
O3B O 0.66694(12) 0.26220(13) 0.81365(17)
O3D O 0.23780(13) 0.16694(12) 0.68635(17)
O3G O 0.23780(13) 0.33306(12) 0.56365(17)
N1K N 0.83443(17) -0.00163(16) 0.2905(2)
loop_
_geom_bond_atom_site_label_1
_geom_bond_atom_site_label_2
_geom_bond_site_symmetry_1
_geom_bond_site_symmetry_2
K1 O1 1_555 1_555
O1 N1 1_555 1_555
O2 N1 1_555 1_555
O3 K1 1_555 1_555
N1 C1 1_555 1_555
N2 O3 1_555 1_555
C1 N2 1_555 1_555
K1E O1 1_555 1_555
K1A O2 1_555 1_555
K1F O3 1_555 1_555
K1E_2 O1K 1_555 1_555
K1I O1K 1_555 1_555
K1H O2K 1_555 1_555
O1K N1K 1_555 1_555
O1B K1 1_555 1_555
O1M K1 1_555 1_555
O1N K1 1_555 1_555
O2K N1K 1_555 1_555
O2A K1 1_555 1_555
O2C K1 1_555 1_555
O3K N2 1_555 1_555
O3B K1 1_555 1_555
O3D K1 1_555 1_555
O3G K1 1_555 1_555
N1K C1 1_555 1_555
K1E O3B 1_555 1_555
K1F O1B 1_555 1_555
K1F O3K 1_555 1_555
K1I O3K 1_555 1_555

#END
