
#######################################################################
#
#                 Cambridge Crystallographic Data Centre
#                                CCDC 
#
#######################################################################
#
# If this CIF has been generated from an entry in the Cambridge 
# Structural Database, then it will include bibliographic, chemical, 
# crystal, experimental, refinement or atomic coordinate data resulting 
# from the CCDC's data processing and validation procedures.
#
#######################################################################

data_KOBBOS
_symmetry_cell_setting           triclinic
_symmetry_space_group_name_H-M   'P -1'
_symmetry_Int_Tables_number      2
_space_group_name_Hall           '-P 1'
loop_
_symmetry_equiv_pos_site_id
_symmetry_equiv_pos_as_xyz
1 x,y,z
2 -x,-y,-z
_cell_length_a                   9.459(6)
_cell_length_b                   10.607(7)
_cell_length_c                   14.367(8)
_cell_angle_alpha                101.89(4)
_cell_angle_beta                 105.33(3)
_cell_angle_gamma                91.55(4)
_cell_volume                     1355.26
loop_
_atom_site_label
_atom_site_type_symbol
_atom_site_fract_x
_atom_site_fract_y
_atom_site_fract_z
O14 O 0.4212(4) 0.3467(3) 0.3499(2)
H19 H 0.404 0.416 0.337
H20 H 0.407 0.295 0.292
O18 O 0.1557(4) 0.6866(3) 0.1139(2)
H27 H 0.120 0.649 0.139
H28 H 0.220 0.684 0.135
Ca1 Ca 0.3631(1) 0.1444(1) 0.7642(1)
Na1 Na -0.1295(2) 0.4358(2) 0.6239(1)
Na2 Na 0.9185(2) -0.1506(2) 0.8948(1)
C1 C 0.4469(5) 0.3174(4) 1.0066(3)
C2 C 0.5518(5) 0.2278(4) 1.0109(3)
C3 C 0.6635(5) 0.2347(4) 1.0963(3)
C4 C 0.6689(5) 0.3323(4) 1.1785(3)
C5 C 0.5637(6) 0.4199(4) 1.1753(3)
C6 C 0.4511(5) 0.4127(4) 1.0894(3)
O1 O 0.3440(3) 0.3016(3) 0.9155(2)
O2 O 0.5331(3) 0.1336(3) 0.9245(2)
C7 C 0.2289(5) 0.3871(4) 0.9078(3)
C8 C 0.6338(5) 0.0344(4) 0.9276(3)
C9 C 0.1451(5) 0.3699(4) 0.7994(3)
C10 C 0.5914(5) -0.0620(4) 0.8272(3)
O3 O 0.1958(3) 0.3012(3) 0.7350(2)
O4 O 0.4866(4) -0.0421(3) 0.7602(2)
O5 O 0.0304(3) 0.4263(3) 0.7827(2)
O6 O 0.6726(3) -0.1533(3) 0.8216(2)
C11 C 0.3079(5) 0.0660(4) 0.5099(3)
C12 C 0.2089(5) -0.0218(4) 0.5244(3)
C13 C 0.1265(5) -0.1160(4) 0.4447(3)
C14 C 0.1446(5) -0.1199(4) 0.3516(3)
C15 C 0.2431(5) -0.0326(4) 0.3376(3)
C16 C 0.3258(5) 0.0613(4) 0.4168(3)
O7 O 0.3851(3) 0.1548(3) 0.5954(2)
O8 O 0.1987(3) -0.0065(3) 0.6203(2)
C17 C 0.4925(5) 0.2459(4) 0.5855(3)
C18 C 0.1109(5) -0.1064(4) 0.6384(3)
C19 C 0.5820(5) 0.3171(4) 0.6875(3)
C20 C 0.1074(5) -0.0731(4) 0.7464(3)
O9 O 0.5617(3) 0.2819(3) 0.7621(2)
O10 O 0.1768(3) 0.0279(3) 0.8027(2)
O11 O -0.3264(3) 0.4064(3) 0.6904(2)
O12 O 1.0282(3) -0.1533(3) 0.7683(2)
O13 O -0.1400(4) 0.6559(3) 0.6176(2)
O15 O -0.2689(4) 0.3819(3) 0.4549(3)
O16 O 0.9960(4) -0.0960(3) 1.0706(2)
O17 O 0.9857(4) -0.3517(3) 0.9166(3)
O19 O 0.0937(4) 0.4068(3) 0.5716(2)
H1 H 0.754 0.172 1.103
H2 H 0.746 0.334 1.239
H3 H 0.581 0.487 1.237
H4 H 0.362 0.467 1.083
H5 H 0.265 0.483 0.928
H6 H 0.159 0.362 0.945
H7 H 0.746 0.071 0.940
H8 H 0.645 -0.011 0.988
H9 H 0.042 -0.166 0.451
H10 H 0.072 -0.194 0.288
H11 H 0.237 -0.029 0.259
H12 H 0.394 0.124 0.405
H13 H 0.462 0.315 0.551
H14 H 0.557 0.196 0.549
H15 H -0.012 -0.117 0.588
H16 H 0.146 -0.196 0.618
H17 H -0.099 0.722 0.656
H18 H -0.218 0.672 0.621
H21 H -0.380 0.354 0.415
H22 H -0.221 0.449 0.433
H23 H 1.059 -0.159 1.105
H24 H 0.940 -0.082 1.106
H25 H 1.067 -0.359 0.979
H26 H 1.043 -0.413 0.886
H29 H 0.109 0.352 0.514
H30 H 0.140 0.365 0.621
O11_2 O 0.6736(3) 0.4064(3) 0.6904(2)
O12_2 O 0.0282(3) -0.1533(3) 0.7683(2)
C19_2 C -0.4180(5) 0.3171(4) 0.6875(3)
C20_2 C 1.1074(5) -0.0731(4) 0.7464(3)
loop_
_geom_bond_atom_site_label_1
_geom_bond_atom_site_label_2
_geom_bond_site_symmetry_1
_geom_bond_site_symmetry_2
Ca1 O1 1_555 1_555
Na1 O5 1_555 1_555
Na2 O6 1_555 1_555
C1 C2 1_555 1_555
C2 C3 1_555 1_555
C3 C4 1_555 1_555
C4 C5 1_555 1_555
C5 C6 1_555 1_555
C6 C1 1_555 1_555
O1 C1 1_555 1_555
O2 Ca1 1_555 1_555
C7 O1 1_555 1_555
C8 O2 1_555 1_555
C9 C7 1_555 1_555
C10 C8 1_555 1_555
O3 Ca1 1_555 1_555
O4 Ca1 1_555 1_555
O5 C9 1_555 1_555
O6 C10 1_555 1_555
C11 C12 1_555 1_555
C12 C13 1_555 1_555
C13 C14 1_555 1_555
C14 C15 1_555 1_555
C15 C16 1_555 1_555
C16 C11 1_555 1_555
O7 Ca1 1_555 1_555
O8 Ca1 1_555 1_555
C17 O7 1_555 1_555
C18 O8 1_555 1_555
C19 C17 1_555 1_555
C20 C18 1_555 1_555
O9 Ca1 1_555 1_555
O10 Ca1 1_555 1_555
O11 Na1 1_555 1_555
O12 Na2 1_555 1_555
O13 Na1 1_555 1_555
O14 H19 1_555 1_555
O15 Na1 1_555 1_555
O16 Na2 1_555 1_555
O17 Na2 1_555 1_555
O18 H27 1_555 1_555
O19 Na1 1_555 1_555
H1 C3 1_555 1_555
H2 C4 1_555 1_555
H3 C5 1_555 1_555
H4 C6 1_555 1_555
H5 C7 1_555 1_555
H6 C7 1_555 1_555
H7 C8 1_555 1_555
H8 C8 1_555 1_555
H9 C13 1_555 1_555
H10 C14 1_555 1_555
H11 C15 1_555 1_555
H12 C16 1_555 1_555
H13 C17 1_555 1_555
H14 C17 1_555 1_555
H15 C18 1_555 1_555
H16 C18 1_555 1_555
H17 O13 1_555 1_555
H18 O13 1_555 1_555
H20 O14 1_555 1_555
H21 O15 1_555 1_555
H22 O15 1_555 1_555
H23 O16 1_555 1_555
H24 O16 1_555 1_555
H25 O17 1_555 1_555
H26 O17 1_555 1_555
H28 O18 1_555 1_555
H29 O19 1_555 1_555
H30 O19 1_555 1_555
O11_2 C19 1_555 1_555
O12_2 C20 1_555 1_555
C19_2 O11 1_555 1_555
C20_2 O12 1_555 1_555
C2 O2 1_555 1_555
C9 O3 1_555 1_555
C10 O4 1_555 1_555
C11 O7 1_555 1_555
C12 O8 1_555 1_555
C19 O9 1_555 1_555
C20 O10 1_555 1_555

#END
