
#######################################################################
#
#                 Cambridge Crystallographic Data Centre
#                                CCDC 
#
#######################################################################
#
# If this CIF has been generated from an entry in the Cambridge 
# Structural Database, then it will include bibliographic, chemical, 
# crystal, experimental, refinement or atomic coordinate data resulting 
# from the CCDC's data processing and validation procedures.
#
#######################################################################

data_KOBBEI
_symmetry_cell_setting           monoclinic
_symmetry_space_group_name_H-M   'I 2/m'
_symmetry_Int_Tables_number      12
_space_group_name_Hall           '-I 2y'
loop_
_symmetry_equiv_pos_site_id
_symmetry_equiv_pos_as_xyz
1 x,y,z
2 1/2+x,1/2+y,1/2+z
3 -x,y,-z
4 1/2-x,1/2+y,1/2-z
5 -x,-y,-z
6 1/2-x,1/2-y,1/2-z
7 x,-y,z
8 1/2+x,1/2-y,1/2+z
_cell_length_a                   7.474(2)
_cell_length_b                   7.655(1)
_cell_length_c                   15.830(4)
_cell_angle_alpha                90
_cell_angle_beta                 95.45(2)
_cell_angle_gamma                90
_cell_volume                     901.595
loop_
_atom_site_label
_atom_site_type_symbol
_atom_site_fract_x
_atom_site_fract_y
_atom_site_fract_z
Tl1 Tl 0.2792(1) 0.000 0.05748(5)
S1 S -0.3912(7) 0.000 -0.2412(3)
S2 S -0.7684(7) 0.000 -0.3097(3)
O1 O -0.063(2) 0.000 0.0909(8)
N1 N -0.328(2) 0.000 0.1471(9)
C1 C 0.281(3) 0.279(2) 0.047(1)
C2 C -0.607(3) 0.000 -0.223(1)
C3 C -0.054(2) 0.000 0.242(1)
C4 C -0.151(3) 0.000 0.152(1)
O1B O 0.063(2) 0.000 -0.0909(8)
C1F C 0.281(3) -0.279(2) 0.047(1)
Tl1B Tl -0.2792(1) 0.000 -0.05748(5)
S1B S 0.3912(7) 0.000 0.2412(3)
C1D C -0.281(3) -0.279(2) -0.047(1)
C1B C -0.281(3) 0.279(2) -0.047(1)
N1B N -0.672(2) 0.000 -0.1471(9)
C2B C -0.393(3) 0.000 0.223(1)
S2B S -0.2316(7) 0.000 0.3097(3)
C3B C -0.946(2) 0.000 -0.242(1)
C4B C -0.849(3) 0.000 -0.152(1)
S1B_2 S -0.6088(7) 0.000 0.2412(3)
O1B_2 O -0.937(2) 0.000 -0.0909(8)
Tl1_2 Tl -0.7208(1) 0.000 0.05748(5)
Tl1B_2 Tl -1.2792(1) 0.000 -0.05748(5)
loop_
_geom_bond_atom_site_label_1
_geom_bond_atom_site_label_2
_geom_bond_site_symmetry_1
_geom_bond_site_symmetry_2
Tl1 O1 1_555 1_555
S1 C2 1_555 1_555
S2 C2 1_555 1_555
O1 C4 1_555 1_555
N1 C4 1_555 1_555
C1 Tl1 1_555 1_555
C2 N1B 1_555 1_555
C3 C4 1_555 1_555
O1B Tl1 1_555 1_555
C1F Tl1 1_555 1_555
Tl1B S1 1_555 1_555
S1B Tl1 1_555 1_555
C1D Tl1B 1_555 1_555
C1B Tl1B 1_555 1_555
N1B C4B 1_555 1_555
C2B N1 1_555 1_555
S2B C3 1_555 1_555
C3B S2 1_555 1_555
C4B C3B 1_555 1_555
S1B_2 C2B 1_555 1_555
O1B_2 C4B 1_555 1_555
Tl1_2 S1B_2 1_555 1_555
Tl1B_2 O1B_2 1_555 1_555
O1 Tl1B 1_555 1_555
O1B Tl1B 1_555 1_555
C2B S2B 1_555 1_555
O1B_2 Tl1_2 1_555 1_555

#END
