
#######################################################################
#
#                 Cambridge Crystallographic Data Centre
#                                CCDC 
#
#######################################################################
#
# If this CIF has been generated from an entry in the Cambridge 
# Structural Database, then it will include bibliographic, chemical, 
# crystal, experimental, refinement or atomic coordinate data resulting 
# from the CCDC's data processing and validation procedures.
#
#######################################################################

data_KOBFEN
_symmetry_cell_setting           orthorhombic
_symmetry_space_group_name_H-M   'P n a 21'
_symmetry_Int_Tables_number      33
_space_group_name_Hall           'P 2c -2n'
loop_
_symmetry_equiv_pos_site_id
_symmetry_equiv_pos_as_xyz
1 x,y,z
2 -x,-y,1/2+z
3 1/2+x,1/2-y,z
4 1/2-x,1/2+y,1/2+z
_cell_length_a                   18.6983(13)
_cell_length_b                   13.7126(12)
_cell_length_c                   16.305(2)
_cell_angle_alpha                90
_cell_angle_beta                 90
_cell_angle_gamma                90
_cell_volume                     4180.64
loop_
_atom_site_label
_atom_site_type_symbol
_atom_site_fract_x
_atom_site_fract_y
_atom_site_fract_z
Cu1 Cu 0.03279(3) 0.66718(4) 0.21533(4)
Cu2 Cu 0.02549(3) 0.32599(4) 0.20872(4)
S1 S -0.08384(6) 0.50017(9) 0.19596(11)
S2 S 0.14125(6) 0.49468(8) 0.19371(9)
O1 O -0.0999(2) 1.0985(3) 0.3961(4)
O2 O -0.3942(2) 1.3903(3) 0.5294(3)
O3 O 0.1572(2) 1.1126(3) 0.0405(3)
O4 O 0.3456(2) 1.3905(3) -0.1164(4)
O5 O -0.03915(19) 0.5680(2) 0.2441(3)
O6 O -0.03830(19) 0.4241(2) 0.1579(3)
O7 O -0.1214(2) 0.5519(3) 0.1311(4)
O8 O -0.1341(2) 0.4534(3) 0.2515(4)
O9 O 0.09500(18) 0.5726(2) 0.1586(2)
O10 O 0.09749(19) 0.4247(2) 0.2407(2)
O11 O 0.1775(2) 0.4449(3) 0.1257(3)
O12 O 0.1933(2) 0.5387(3) 0.2500(3)
O14 O 0.0901(3) 0.6531(3) 0.3379(3)
O15 O -0.0287(3) 0.3337(4) 0.3376(3)
N1 N -0.0343(2) 0.7687(3) 0.2568(3)
N2 N -0.1730(3) 0.9924(3) 0.3280(3)
H1 H -0.2164 0.9843 0.3118
N3 N -0.3208(3) 1.5046(3) 0.5839(3)
H2 H -0.2765 1.5161 0.5947
N4 N -0.4602(2) 1.7208(3) 0.6657(3)
N5 N 0.0959(2) 0.7750(3) 0.1725(3)
N6 N 0.2331(3) 0.9956(3) 0.0892(3)
H3 H 0.2777 0.9830 0.0964
N7 N 0.2702(3) 1.4985(3) -0.1764(3)
H4 H 0.2262 1.5081 -0.1893
N8 N 0.4078(2) 1.7216(3) -0.2517(3)
C1 C -0.0143(3) 0.8349(4) 0.3110(5)
H5 H 0.0318 0.8297 0.3320
C2 C -0.0553(3) 0.9100(4) 0.3387(4)
H6 H -0.0383 0.9528 0.3784
C3 C -0.1243(3) 0.9211(3) 0.3054(3)
C4 C -0.1459(3) 0.8528(4) 0.2470(3)
H7 H -0.1909 0.8572 0.2230
C5 C -0.0997(2) 0.7785(3) 0.2250(4)
H8 H -0.1149 0.7333 0.1863
C6 C -0.1594(3) 1.0742(4) 0.3731(4)
C7 C -0.2261(3) 1.1322(4) 0.3935(4)
H9 H -0.2566 1.0925 0.4280
H10 H -0.2518 1.1449 0.3430
C8 C -0.2129(3) 1.2287(4) 0.4365(4)
H11 H -0.1782 1.2192 0.4799
H12 H -0.1929 1.2748 0.3976
C9 C -0.2803(3) 1.2709(4) 0.4725(4)
H13 H -0.3007 1.2246 0.5110
H14 H -0.3149 1.2815 0.4291
C10 C -0.2662(3) 1.3666(4) 0.5164(4)
H15 H -0.2387 1.4088 0.4806
H16 H -0.2375 1.3540 0.5648
C11 C -0.3346(3) 1.4195(4) 0.5419(4)
C12 C -0.3689(3) 1.5735(4) 0.6107(4)
C13 C -0.3454(3) 1.6453(4) 0.6630(4)
H17 H -0.2980 1.6453 0.6802
C14 C -0.3908(2) 1.7173(4) 0.6903(4)
H18 H -0.3737 1.7645 0.7262
C15 C -0.4829(3) 1.6498(5) 0.6144(5)
H19 H -0.5304 1.6510 0.5974
C16 C -0.4404(3) 1.5772(4) 0.5863(4)
H20 H -0.4587 1.5300 0.5511
C17 C 0.1666(3) 0.7746(4) 0.1867(4)
H21 H 0.1858 0.7224 0.2157
C18 C 0.2122(3) 0.8468(4) 0.1610(4)
H22 H 0.2607 0.8427 0.1731
C19 C 0.1861(3) 0.9261(3) 0.1167(3)
C20 C 0.1109(3) 0.9269(4) 0.1008(4)
H23 H 0.0899 0.9776 0.0715
C21 C 0.0706(3) 0.8508(4) 0.1298(4)
H24 H 0.0218 0.8521 0.1190
C22 C 0.2176(3) 1.0833(4) 0.0512(4)
C23 C 0.2835(3) 1.1395(4) 0.0264(4)
H25 H 0.3069 1.1048 -0.0180
H26 H 0.3164 1.1408 0.0724
C24 C 0.2694(4) 1.2443(4) -0.0012(4)
H27 H 0.2384 1.2757 0.0386
H28 H 0.3143 1.2796 -0.0020
C25 C 0.2351(4) 1.2511(4) -0.0850(4)
H29 H 0.1906 1.2145 -0.0844
H30 H 0.2665 1.2207 -0.1249
C26 C 0.2193(3) 1.3554(4) -0.1126(4)
H31 H 0.1882 1.3532 -0.1601
H32 H 0.1937 1.3887 -0.0691
C27 C 0.2850(3) 1.4141(4) -0.1340(4)
C28 C 0.3186(3) 1.5701(3) -0.2007(3)
C29 C 0.3895(3) 1.5716(4) -0.1788(4)
H33 H 0.4086 1.5219 -0.1467
C30 C 0.4322(3) 1.6476(4) -0.2048(4)
H34 H 0.4800 1.6479 -0.1893
C31 C 0.3374(2) 1.7199(3) -0.2717(4)
H35 H 0.3190 1.7708 -0.3029
C32 C 0.2925(3) 1.6473(4) -0.2481(4)
H36 H 0.2446 1.6488 -0.2635
Cu2C Cu -0.52549(3) 1.82599(4) 0.70872(4)
Cu2C_2 Cu 0.47451(3) 1.82599(4) -0.29128(4)
N4C N -0.0398(2) 0.2208(3) 0.1657(3)
N8C N 0.0922(2) 0.2216(3) 0.2483(3)
O13 O 0.0904(3) 0.3095(5) 0.0561(5)
O16 O -0.0258(7) 0.3942(12) -0.0171(6)
O17 O -0.3892(12) 1.052(2) 0.4208(13)
O18 O -0.0953(10) 1.4479(18) 0.4724(15)
loop_
_geom_bond_atom_site_label_1
_geom_bond_atom_site_label_2
_geom_bond_site_symmetry_1
_geom_bond_site_symmetry_2
Cu1 O5 1_555 1_555
Cu2 O6 1_555 1_555
S1 O5 1_555 1_555
S2 O9 1_555 1_555
O1 C6 1_555 1_555
O2 C11 1_555 1_555
O3 C22 1_555 1_555
O4 C27 1_555 1_555
O6 S1 1_555 1_555
O7 S1 1_555 1_555
O8 S1 1_555 1_555
O9 Cu1 1_555 1_555
O10 Cu2 1_555 1_555
O11 S2 1_555 1_555
O12 S2 1_555 1_555
O14 Cu1 1_555 1_555
O15 Cu2 1_555 1_555
N1 Cu1 1_555 1_555
N2 H1 1_555 1_555
N3 H2 1_555 1_555
N4 C14 1_555 1_555
N5 Cu1 1_555 1_555
N6 H3 1_555 1_555
N7 H4 1_555 1_555
N8 C30 1_555 1_555
C1 N1 1_555 1_555
H5 C1 1_555 1_555
C2 C1 1_555 1_555
H6 C2 1_555 1_555
C3 N2 1_555 1_555
C4 C3 1_555 1_555
H7 C4 1_555 1_555
C5 N1 1_555 1_555
H8 C5 1_555 1_555
C6 N2 1_555 1_555
C7 C6 1_555 1_555
H9 C7 1_555 1_555
H10 C7 1_555 1_555
C8 C7 1_555 1_555
H11 C8 1_555 1_555
H12 C8 1_555 1_555
C9 C8 1_555 1_555
H13 C9 1_555 1_555
H14 C9 1_555 1_555
C10 C9 1_555 1_555
H15 C10 1_555 1_555
H16 C10 1_555 1_555
C11 N3 1_555 1_555
C12 N3 1_555 1_555
C13 C12 1_555 1_555
H17 C13 1_555 1_555
C14 C13 1_555 1_555
H18 C14 1_555 1_555
C15 N4 1_555 1_555
H19 C15 1_555 1_555
C16 C12 1_555 1_555
H20 C16 1_555 1_555
C17 N5 1_555 1_555
H21 C17 1_555 1_555
C18 C17 1_555 1_555
H22 C18 1_555 1_555
C19 N6 1_555 1_555
C20 C19 1_555 1_555
H23 C20 1_555 1_555
C21 N5 1_555 1_555
H24 C21 1_555 1_555
C22 N6 1_555 1_555
C23 C22 1_555 1_555
H25 C23 1_555 1_555
H26 C23 1_555 1_555
C24 C23 1_555 1_555
H27 C24 1_555 1_555
H28 C24 1_555 1_555
C25 C24 1_555 1_555
H29 C25 1_555 1_555
H30 C25 1_555 1_555
C26 C25 1_555 1_555
H31 C26 1_555 1_555
H32 C26 1_555 1_555
C27 N7 1_555 1_555
C28 N7 1_555 1_555
C29 C28 1_555 1_555
H33 C29 1_555 1_555
C30 C29 1_555 1_555
H34 C30 1_555 1_555
C31 N8 1_555 1_555
H35 C31 1_555 1_555
C32 C28 1_555 1_555
H36 C32 1_555 1_555
Cu2C N4 1_555 1_555
Cu2C_2 N8 1_555 1_555
N4C Cu2 1_555 1_555
N8C Cu2 1_555 1_555
S2 O10 1_555 1_555
C2 C3 1_555 1_555
C4 C5 1_555 1_555
C10 C11 1_555 1_555
C15 C16 1_555 1_555
C18 C19 1_555 1_555
C20 C21 1_555 1_555
C26 C27 1_555 1_555
C31 C32 1_555 1_555

#END
