
#######################################################################
#
#                 Cambridge Crystallographic Data Centre
#                                CCDC 
#
#######################################################################
#
# If this CIF has been generated from an entry in the Cambridge 
# Structural Database, then it will include bibliographic, chemical, 
# crystal, experimental, refinement or atomic coordinate data resulting 
# from the CCDC's data processing and validation procedures.
#
#######################################################################

data_KOBGOY01
_symmetry_cell_setting           monoclinic
_symmetry_space_group_name_H-M   'P 21/c'
_symmetry_Int_Tables_number      14
_space_group_name_Hall           '-P 2ybc'
loop_
_symmetry_equiv_pos_site_id
_symmetry_equiv_pos_as_xyz
1 x,y,z
2 -x,1/2+y,1/2-z
3 -x,-y,-z
4 x,1/2-y,1/2+z
_cell_length_a                   4.806(2)
_cell_length_b                   11.806(5)
_cell_length_c                   9.478(5)
_cell_angle_alpha                90
_cell_angle_beta                 103.682(8)
_cell_angle_gamma                90
_cell_volume                     522.518
loop_
_atom_site_label
_atom_site_type_symbol
_atom_site_fract_x
_atom_site_fract_y
_atom_site_fract_z
Cu1 Cu 0.0000 0.5000 0.5000
C1 C 0.3282(4) 0.38723(14) 0.76794(18)
H1 H 0.1883 0.3323 0.7649
C2 C 0.6738(4) 0.32497(15) 0.99598(19)
H2 H 0.5150 0.3029 1.0369
H3 H 0.8092 0.3671 1.0694
C3 C 0.8197(4) 0.21857(13) 0.95553(19)
N1 N 0.3217(3) 0.46798(13) 0.67189(16)
N2 N 0.5680(4) 0.52865(14) 0.71688(19)
N3 N 0.7175(4) 0.48677(13) 0.8357(2)
N4 N 0.5681(3) 0.39762(12) 0.86979(15)
O1 O 0.8216(3) 0.13765(10) 1.04428(13)
O2 O 0.9215(4) 0.21763(12) 0.85001(18)
Cu1C Cu 1.0000 0.0000 1.0000
Cu1C_2 Cu -1.0000 1.0000 0.0000
C1B C -0.3282(4) 0.61277(14) 0.23206(18)
H1B H -0.1883 0.6677 0.2351
C2B C -0.6738(4) 0.67503(15) 0.00402(19)
H2B H -0.5150 0.6971 -0.0369
H3B H -0.8092 0.6329 -0.0694
C3B C -0.8197(4) 0.78143(13) 0.04447(19)
N1B N -0.3217(3) 0.53202(13) 0.32811(16)
N2B N -0.5680(4) 0.47135(14) 0.28312(19)
N3B N -0.7175(4) 0.51323(13) 0.1643(2)
N4B N -0.5681(3) 0.60238(12) 0.13021(15)
O1B O -0.8216(3) 0.86235(10) -0.04428(13)
O1C O -0.1784(3) 0.36235(10) 0.54428(13)
O1A O 0.1784(3) 0.63765(10) 0.45572(13)
O2B O -0.9215(4) 0.78237(12) 0.14999(18)
loop_
_geom_bond_atom_site_label_1
_geom_bond_atom_site_label_2
_geom_bond_site_symmetry_1
_geom_bond_site_symmetry_2
Cu1 N1 1_555 1_555
C1 H1 1_555 1_555
C2 H2 1_555 1_555
H3 C2 1_555 1_555
C3 C2 1_555 1_555
N1 C1 1_555 1_555
N2 N1 1_555 1_555
N3 N2 1_555 1_555
N4 C1 1_555 1_555
O1 C3 1_555 1_555
O2 C3 1_555 1_555
Cu1C O1 1_555 1_555
Cu1C_2 O1B 1_555 1_555
C1B H1B 1_555 1_555
C2B H2B 1_555 1_555
H3B C2B 1_555 1_555
C3B C2B 1_555 1_555
N1B Cu1 1_555 1_555
N2B N1B 1_555 1_555
N3B N2B 1_555 1_555
N4B C1B 1_555 1_555
O1B C3B 1_555 1_555
O1C Cu1 1_555 1_555
O1A Cu1 1_555 1_555
O2B C3B 1_555 1_555
C2 N4 1_555 1_555
N3 N4 1_555 1_555
C1B N1B 1_555 1_555
C2B N4B 1_555 1_555
N3B N4B 1_555 1_555

#END
