
#######################################################################
#
#                 Cambridge Crystallographic Data Centre
#                                CCDC 
#
#######################################################################
#
# If this CIF has been generated from an entry in the Cambridge 
# Structural Database, then it will include bibliographic, chemical, 
# crystal, experimental, refinement or atomic coordinate data resulting 
# from the CCDC's data processing and validation procedures.
#
#######################################################################

data_KOBGUE
_symmetry_cell_setting           monoclinic
_symmetry_space_group_name_H-M   'C 2/c'
_symmetry_Int_Tables_number      15
_space_group_name_Hall           '-C 2yn'
loop_
_symmetry_equiv_pos_site_id
_symmetry_equiv_pos_as_xyz
1 x,y,z
2 1/2+x,1/2+y,z
3 -x,y,1/2-z
4 1/2-x,1/2+y,1/2-z
5 -x,-y,-z
6 1/2-x,1/2-y,-z
7 x,-y,1/2+z
8 1/2+x,1/2-y,1/2+z
_cell_length_a                   16.105(2)
_cell_length_b                   4.8728(7)
_cell_length_c                   29.455(4)
_cell_angle_alpha                90
_cell_angle_beta                 101.130(2)
_cell_angle_gamma                90
_cell_volume                     2268.05
loop_
_atom_site_label
_atom_site_type_symbol
_atom_site_fract_x
_atom_site_fract_y
_atom_site_fract_z
Cu1 Cu 1.0000 0.0000 0.5000
O1 O 0.90781(10) 0.1845(3) 0.52197(6)
O2 O 0.90912(12) 0.5995(4) 0.48884(6)
O3 O 0.83440(13) -0.4103(5) 0.26057(7)
H1 H 0.8631 -0.5140 0.2480
O4 O 0.95973(12) -0.2711(5) 0.30060(7)
N1 N 0.81996(13) 0.3588(4) 0.58414(7)
N2 N 0.75330(14) 0.1925(5) 0.58233(9)
N3 N 0.76938(17) 0.0416(5) 0.61919(10)
N4 N 0.84591(18) 0.1017(6) 0.64472(9)
N5 N 0.88315(13) 0.0064(4) 0.36224(7)
N6 N 0.93064(16) 0.2343(5) 0.36276(7)
N7 N 0.97063(15) 0.2661(5) 0.40483(7)
N8 N 0.94991(12) 0.0620(4) 0.43176(6)
C1 C 0.88738(15) 0.4346(5) 0.51590(8)
C2 C 0.82662(18) 0.5406(5) 0.54594(9)
H2 H 0.8458 0.7193 0.5582
H3 H 0.7709 0.5639 0.5267
C3 C 0.8757(2) 0.2977(7) 0.62194(10)
H4 H 0.9281 0.3813 0.6310
C4 C 0.88405(17) -0.2673(6) 0.29269(8)
C5 C 0.83156(16) -0.0968(6) 0.31961(8)
H5 H 0.8066 0.0563 0.3007
H6 H 0.7859 -0.2081 0.3269
C6 C 0.89575(14) -0.0959(5) 0.40474(8)
H7 H 0.8705 -0.2529 0.4138
Cu1_2 Cu 1.0000 1.0000 0.5000
Cu1_3 Cu 1.0000 -1.0000 0.5000
O1D O 1.09219(10) -0.1845(3) 0.47803(6)
O2D O 1.09088(12) -0.5995(4) 0.51116(6)
O2_2 O 0.90912(12) -0.4005(4) 0.48884(6)
O2D_2 O 1.09088(12) 0.4005(4) 0.51116(6)
O3D O 1.16560(13) 0.4103(5) 0.73943(7)
H1D H 1.1369 0.5140 0.7520
O4D O 1.04027(12) 0.2711(5) 0.69940(7)
N1D N 1.18004(13) -0.3588(4) 0.41586(7)
N2D N 1.24670(14) -0.1925(5) 0.41767(9)
N3D N 1.23062(17) -0.0416(5) 0.38081(10)
N4D N 1.15409(18) -0.1017(6) 0.35528(9)
N5D N 1.11685(13) -0.0064(4) 0.63776(7)
N6D N 1.06936(16) -0.2343(5) 0.63724(7)
N7D N 1.02937(15) -0.2661(5) 0.59517(7)
N8D N 1.05009(12) -0.0620(4) 0.56824(6)
C1D C 1.11262(15) -0.4346(5) 0.48410(8)
C2D C 1.17338(18) -0.5406(5) 0.45406(9)
H2D H 1.1542 -0.7193 0.4418
H3D H 1.2291 -0.5639 0.4733
C3D C 1.1243(2) -0.2977(7) 0.37806(10)
H4D H 1.0719 -0.3813 0.3690
C4D C 1.11595(17) 0.2673(6) 0.70731(8)
C5D C 1.16844(16) 0.0968(6) 0.68039(8)
H5D H 1.1934 -0.0563 0.6993
H6D H 1.2141 0.2081 0.6731
C6D C 1.10425(14) 0.0959(5) 0.59526(8)
H7D H 1.1295 0.2529 0.5862
O5 O 0.91949(17) 0.2655(6) 0.21735(9)
H8 H 0.8987 0.1469 0.2332
H9 H 0.9054 0.2455 0.1877
loop_
_geom_bond_atom_site_label_1
_geom_bond_atom_site_label_2
_geom_bond_site_symmetry_1
_geom_bond_site_symmetry_2
Cu1 O1 1_555 1_555
O1 C1 1_555 1_555
O2 C1 1_555 1_555
O3 H1 1_555 1_555
O4 C4 1_555 1_555
N1 N2 1_555 1_555
N2 N3 1_555 1_555
N3 N4 1_555 1_555
N4 C3 1_555 1_555
N5 N6 1_555 1_555
N6 N7 1_555 1_555
N7 N8 1_555 1_555
N8 Cu1 1_555 1_555
C1 C2 1_555 1_555
C2 N1 1_555 1_555
H2 C2 1_555 1_555
H3 C2 1_555 1_555
C3 N1 1_555 1_555
H4 C3 1_555 1_555
C4 O3 1_555 1_555
C5 N5 1_555 1_555
H5 C5 1_555 1_555
H6 C5 1_555 1_555
C6 N5 1_555 1_555
H7 C6 1_555 1_555
O5 H8 1_555 1_555
H9 O5 1_555 1_555
Cu1_2 O2 1_555 1_555
Cu1_3 O2D 1_555 1_555
O1D Cu1 1_555 1_555
O2D C1D 1_555 1_555
O2_2 Cu1 1_555 1_555
O2D_2 Cu1 1_555 1_555
O3D H1D 1_555 1_555
O4D C4D 1_555 1_555
N1D N2D 1_555 1_555
N2D N3D 1_555 1_555
N3D N4D 1_555 1_555
N4D C3D 1_555 1_555
N5D N6D 1_555 1_555
N6D N7D 1_555 1_555
N7D N8D 1_555 1_555
N8D Cu1 1_555 1_555
C1D O1D 1_555 1_555
C2D N1D 1_555 1_555
H2D C2D 1_555 1_555
H3D C2D 1_555 1_555
C3D N1D 1_555 1_555
H4D C3D 1_555 1_555
C4D O3D 1_555 1_555
C5D N5D 1_555 1_555
H5D C5D 1_555 1_555
H6D C5D 1_555 1_555
C6D N5D 1_555 1_555
H7D C6D 1_555 1_555
N8 C6 1_555 1_555
C4 C5 1_555 1_555
N8D C6D 1_555 1_555
C1D C2D 1_555 1_555
C4D C5D 1_555 1_555

#END
