
#######################################################################
#
#                 Cambridge Crystallographic Data Centre
#                                CCDC 
#
#######################################################################
#
# If this CIF has been generated from an entry in the Cambridge 
# Structural Database, then it will include bibliographic, chemical, 
# crystal, experimental, refinement or atomic coordinate data resulting 
# from the CCDC's data processing and validation procedures.
#
#######################################################################

data_KOBGOY
_symmetry_cell_setting           monoclinic
_symmetry_space_group_name_H-M   'P 21/c'
_symmetry_Int_Tables_number      14
_space_group_name_Hall           '-P 2ybc'
loop_
_symmetry_equiv_pos_site_id
_symmetry_equiv_pos_as_xyz
1 x,y,z
2 -x,1/2+y,1/2-z
3 -x,-y,-z
4 x,1/2-y,1/2+z
_cell_length_a                   4.7999(7)
_cell_length_b                   11.7936(16)
_cell_length_c                   9.4857(13)
_cell_angle_alpha                90
_cell_angle_beta                 103.665(2)
_cell_angle_gamma                90
_cell_volume                     521.768
loop_
_atom_site_label
_atom_site_type_symbol
_atom_site_fract_x
_atom_site_fract_y
_atom_site_fract_z
Cu1 Cu 0.5000 0.5000 0.5000
C1 C 0.1723(4) 0.61250(17) 0.2317(2)
H1 H 0.3128 0.6674 0.2346
C2 C -0.1742(5) 0.67491(17) 0.0038(2)
H2 H -0.3101 0.6327 -0.0694
H3 H -0.0154 0.6968 -0.0373
C3 C -0.3195(4) 0.78135(16) 0.0440(2)
N1 N 0.1780(3) 0.53181(15) 0.32785(18)
N2 N -0.0682(4) 0.47106(16) 0.2828(2)
N3 N -0.2183(4) 0.51337(14) 0.1642(2)
N4 N -0.0681(3) 0.60214(14) 0.13005(17)
O1 O -0.3210(3) 0.86236(11) -0.04406(14)
O2 O -0.4225(4) 0.78232(13) 0.1498(2)
Cu1C Cu -0.5000 1.0000 0.0000
Cu1C_2 Cu 1.5000 0.0000 1.0000
C1B C 0.8277(4) 0.38750(17) 0.7683(2)
H1B H 0.6872 0.3326 0.7654
C2B C 1.1742(5) 0.32509(17) 0.9962(2)
H2B H 1.3101 0.3673 1.0694
H3B H 1.0154 0.3032 1.0373
C3B C 1.3195(4) 0.21865(16) 0.9560(2)
N1B N 0.8220(3) 0.46819(15) 0.67215(18)
N2B N 1.0682(4) 0.52894(16) 0.7172(2)
N3B N 1.2183(4) 0.48663(14) 0.8358(2)
N4B N 1.0681(3) 0.39786(14) 0.86995(17)
O1B O 1.3210(3) 0.13764(11) 1.04406(14)
O1C O 0.6790(3) 0.63764(11) 0.45594(14)
O1A O 0.3210(3) 0.36236(11) 0.54406(14)
O2B O 1.4225(4) 0.21768(13) 0.8502(2)
loop_
_geom_bond_atom_site_label_1
_geom_bond_atom_site_label_2
_geom_bond_site_symmetry_1
_geom_bond_site_symmetry_2
Cu1 N1 1_555 1_555
C1 H1 1_555 1_555
C2 H2 1_555 1_555
H3 C2 1_555 1_555
C3 C2 1_555 1_555
N1 C1 1_555 1_555
N2 N1 1_555 1_555
N3 N2 1_555 1_555
N4 C1 1_555 1_555
O1 C3 1_555 1_555
O2 C3 1_555 1_555
Cu1C O1 1_555 1_555
Cu1C_2 O1B 1_555 1_555
C1B H1B 1_555 1_555
C2B H2B 1_555 1_555
H3B C2B 1_555 1_555
C3B C2B 1_555 1_555
N1B Cu1 1_555 1_555
N2B N1B 1_555 1_555
N3B N2B 1_555 1_555
N4B C1B 1_555 1_555
O1B C3B 1_555 1_555
O1C Cu1 1_555 1_555
O1A Cu1 1_555 1_555
O2B C3B 1_555 1_555
C2 N4 1_555 1_555
N3 N4 1_555 1_555
C1B N1B 1_555 1_555
C2B N4B 1_555 1_555
N3B N4B 1_555 1_555

#END
