
#######################################################################
#
#                 Cambridge Crystallographic Data Centre
#                                CCDC 
#
#######################################################################
#
# If this CIF has been generated from an entry in the Cambridge 
# Structural Database, then it will include bibliographic, chemical, 
# crystal, experimental, refinement or atomic coordinate data resulting 
# from the CCDC's data processing and validation procedures.
#
#######################################################################

data_KOBGAK
_symmetry_cell_setting           monoclinic
_symmetry_space_group_name_H-M   'C 2/c'
_symmetry_Int_Tables_number      15
_space_group_name_Hall           '-C 2yn'
loop_
_symmetry_equiv_pos_site_id
_symmetry_equiv_pos_as_xyz
1 x,y,z
2 1/2+x,1/2+y,z
3 -x,y,1/2-z
4 1/2-x,1/2+y,1/2-z
5 -x,-y,-z
6 1/2-x,1/2-y,-z
7 x,-y,1/2+z
8 1/2+x,1/2-y,1/2+z
_cell_length_a                   15.913(5)
_cell_length_b                   6.0160(16)
_cell_length_c                   18.043(5)
_cell_angle_alpha                90
_cell_angle_beta                 90.518(9)
_cell_angle_gamma                90
_cell_volume                     1727.23
loop_
_atom_site_label
_atom_site_type_symbol
_atom_site_fract_x
_atom_site_fract_y
_atom_site_fract_z
Cu1 Cu 0.21933(4) 0.88705(8) 0.43557(3)
Cu2 Cu 0.0000 0.5000 0.5000
P1 P 0.17407(7) 0.39623(18) 0.42391(6)
N1 N 0.1794(2) 0.7660(6) 0.33977(18)
C1 C 0.1543(3) 0.5525(7) 0.3387(2)
C2 C 0.1204(3) 0.4601(7) 0.2754(2)
H1 H 0.1029 0.3127 0.2756
C3 C 0.1123(3) 0.5855(8) 0.2114(2)
C4 C 0.1365(3) 0.8053(8) 0.2140(2)
H2 H 0.1295 0.8963 0.1727
C5 C 0.1711(3) 0.8880(7) 0.2783(2)
H3 H 0.1895 1.0347 0.2791
C6 C 0.0852(3) 0.4789(8) 0.1388(2)
O1 O 0.22555(19) 0.5698(5) 0.46793(15)
O2 O 0.09196(19) 0.3357(5) 0.45825(16)
O3 O 0.22481(19) 0.1939(5) 0.40405(15)
O4 O 0.0384(2) 0.5921(6) 0.09838(16)
O5 O 0.1159(3) 0.2967(7) 0.1259(2)
O6 O -0.0882(2) 0.1198(5) 0.50806(18)
H4 H -0.0955 0.1727 0.4618
H5 H -0.0794 -0.0272 0.5131
Cu1D Cu -0.21933(4) 0.11295(8) 0.56443(3)
Cu1E Cu 0.28067(4) 0.61295(8) 0.56443(3)
Cu1_2 Cu 0.21933(4) -0.11295(8) 0.43557(3)
Cu1A Cu -0.28067(4) 0.38705(8) 0.43557(3)
Cu1D_2 Cu -0.21933(4) 1.11295(8) 0.56443(3)
Cu2F Cu 0.0000 0.5000 0.0000
Cu2F_2 Cu 0.0000 0.5000 1.0000
P1D P -0.17407(7) 0.60377(18) 0.57609(6)
N1D N -0.1794(2) 0.2340(6) 0.66023(18)
C1D C -0.1543(3) 0.4475(7) 0.6613(2)
C2D C -0.1204(3) 0.5399(7) 0.7246(2)
H1D H -0.1029 0.6873 0.7244
C3D C -0.1123(3) 0.4145(8) 0.7886(2)
C4D C -0.1365(3) 0.1947(8) 0.7860(2)
H2D H -0.1295 0.1037 0.8273
C5D C -0.1711(3) 0.1120(7) 0.7217(2)
H3D H -0.1895 -0.0347 0.7209
C6D C -0.0852(3) 0.5211(8) 0.8612(2)
O1D O -0.22555(19) 0.4302(5) 0.53207(15)
O1E O 0.27445(19) 0.9302(5) 0.53207(15)
O1A O -0.27445(19) 0.0698(5) 0.46793(15)
O2D O -0.09196(19) 0.6643(5) 0.54175(16)
O3D O -0.22481(19) 0.8061(5) 0.59595(15)
O3_2 O 0.22481(19) 1.1939(5) 0.40405(15)
O3D_2 O -0.22481(19) -0.1939(5) 0.59595(15)
O4D O -0.0384(2) 0.4079(6) 0.90162(16)
O4F O 0.0384(2) 0.4079(6) 0.59838(16)
O4B O -0.0384(2) 0.5921(6) 0.40162(16)
O5D O -0.1159(3) 0.7033(7) 0.8741(2)
O6D O 0.0882(2) 0.8802(5) 0.49194(18)
H4D H 0.0955 0.8273 0.5382
H5D H 0.0794 1.0272 0.4869
loop_
_geom_bond_atom_site_label_1
_geom_bond_atom_site_label_2
_geom_bond_site_symmetry_1
_geom_bond_site_symmetry_2
Cu1 N1 1_555 1_555
Cu2 O2 1_555 1_555
P1 C1 1_555 1_555
N1 C1 1_555 1_555
C1 C2 1_555 1_555
C2 H1 1_555 1_555
C3 C2 1_555 1_555
C4 C3 1_555 1_555
H2 C4 1_555 1_555
C5 N1 1_555 1_555
H3 C5 1_555 1_555
C6 C3 1_555 1_555
O1 Cu1 1_555 1_555
O2 P1 1_555 1_555
O3 P1 1_555 1_555
O4 C6 1_555 1_555
O5 C6 1_555 1_555
O6 Cu2 1_555 1_555
H4 O6 1_555 1_555
H5 O6 1_555 1_555
Cu1D O6 1_555 1_555
Cu1E O1 1_555 1_555
Cu1_2 O3 1_555 1_555
Cu1A O1D 1_555 1_555
Cu1D_2 O3D 1_555 1_555
Cu2F O4 1_555 1_555
Cu2F_2 O4D 1_555 1_555
P1D C1D 1_555 1_555
N1D Cu1D 1_555 1_555
C1D N1D 1_555 1_555
C2D C1D 1_555 1_555
H1D C2D 1_555 1_555
C3D C2D 1_555 1_555
C4D C3D 1_555 1_555
H2D C4D 1_555 1_555
C5D N1D 1_555 1_555
H3D C5D 1_555 1_555
C6D C3D 1_555 1_555
O1D Cu1D 1_555 1_555
O1E Cu1 1_555 1_555
O1A Cu1D 1_555 1_555
O2D Cu2 1_555 1_555
O3D P1D 1_555 1_555
O3_2 Cu1 1_555 1_555
O3D_2 Cu1D 1_555 1_555
O4D C6D 1_555 1_555
O4F Cu2 1_555 1_555
O4B Cu2 1_555 1_555
O5D C6D 1_555 1_555
O6D Cu1 1_555 1_555
H4D O6D 1_555 1_555
H5D O6D 1_555 1_555
Cu2 O6D 1_555 1_555
P1 O1 1_555 1_555
C4 C5 1_555 1_555
Cu1E O1E 1_555 1_555
Cu1A O1A 1_555 1_555
P1D O1D 1_555 1_555
P1D O2D 1_555 1_555
C4D C5D 1_555 1_555

#END
