
#######################################################################
#
#                 Cambridge Crystallographic Data Centre
#                                CCDC 
#
#######################################################################
#
# If this CIF has been generated from an entry in the Cambridge 
# Structural Database, then it will include bibliographic, chemical, 
# crystal, experimental, refinement or atomic coordinate data resulting 
# from the CCDC's data processing and validation procedures.
#
#######################################################################

data_KOBGEO
_symmetry_cell_setting           monoclinic
_symmetry_space_group_name_H-M   'C 2/c'
_symmetry_Int_Tables_number      15
_space_group_name_Hall           '-C 2yn'
loop_
_symmetry_equiv_pos_site_id
_symmetry_equiv_pos_as_xyz
1 x,y,z
2 1/2+x,1/2+y,z
3 -x,y,1/2-z
4 1/2-x,1/2+y,1/2-z
5 -x,-y,-z
6 1/2-x,1/2-y,-z
7 x,-y,1/2+z
8 1/2+x,1/2-y,1/2+z
_cell_length_a                   19.039(3)
_cell_length_b                   7.1853(13)
_cell_length_c                   12.355(2)
_cell_angle_alpha                90
_cell_angle_beta                 116.666(3)
_cell_angle_gamma                90
_cell_volume                     1510.4
loop_
_atom_site_label
_atom_site_type_symbol
_atom_site_fract_x
_atom_site_fract_y
_atom_site_fract_z
Cu1 Cu 0.2500 0.7500 0.0000
P1 P 0.40114(5) 0.61071(12) 0.01561(8)
C1 C 0.36168(18) 0.4540(5) 0.0903(3)
C2 C 0.39580(19) 0.2899(5) 0.1474(3)
H1 H 0.4454 0.2561 0.1569
C3 C 0.3552(2) 0.1759(5) 0.1905(3)
C4 C 0.2818(2) 0.2294(5) 0.1739(3)
H2 H 0.2528 0.1532 0.1999
C5 C 0.2518(2) 0.3952(5) 0.1191(3)
H3 H 0.2028 0.4325 0.1107
C6 C 0.3858(2) -0.0088(5) 0.2478(3)
N1 N 0.29022(15) 0.5063(4) 0.0769(2)
O1 O 0.34379(14) 0.7699(3) -0.0235(2)
O2 O 0.39195(14) 0.5022(4) -0.0986(2)
H4 H 0.4405 0.4644 -0.0892
O3 O 0.48511(14) 0.6569(3) 0.0955(2)
O4 O 0.34423(15) -0.1437(4) 0.2226(2)
O5 O 0.45966(15) -0.0065(4) 0.3267(3)
H5 H 0.4744 -0.1130 0.3494
Cu1_2 Cu 0.2500 -0.2500 0.0000
Cu1_3 Cu 0.2500 1.7500 0.0000
P1E P 0.09886(5) 0.88929(12) -0.01561(8)
C1E C 0.13832(18) 1.0460(5) -0.0903(3)
C2E C 0.10420(19) 1.2101(5) -0.1474(3)
H1E H 0.0546 1.2439 -0.1569
C3E C 0.1448(2) 1.3241(5) -0.1905(3)
C4E C 0.2182(2) 1.2706(5) -0.1739(3)
H2E H 0.2472 1.3468 -0.1999
C5E C 0.2482(2) 1.1048(5) -0.1191(3)
H3E H 0.2972 1.0675 -0.1107
C6E C 0.1142(2) 1.5088(5) -0.2478(3)
N1E N 0.20978(15) 0.9937(4) -0.0769(2)
O1E O 0.15621(14) 0.7301(3) 0.0235(2)
O2E O 0.10805(14) 0.9978(4) 0.0986(2)
H4E H 0.0595 1.0356 0.0892
O3E O 0.01489(14) 0.8431(3) -0.0955(2)
O4E O 0.15577(15) 1.6437(4) -0.2226(2)
O4_2 O 0.34423(15) 0.8563(4) 0.2226(2)
O4E_2 O 0.15577(15) 0.6437(4) -0.2226(2)
O5E O 0.04034(15) 1.5065(4) -0.3267(3)
H5E H 0.0256 1.6130 -0.3494
loop_
_geom_bond_atom_site_label_1
_geom_bond_atom_site_label_2
_geom_bond_site_symmetry_1
_geom_bond_site_symmetry_2
Cu1 N1 1_555 1_555
P1 C1 1_555 1_555
C1 C2 1_555 1_555
C2 H1 1_555 1_555
C3 C2 1_555 1_555
C4 C3 1_555 1_555
H2 C4 1_555 1_555
C5 C4 1_555 1_555
H3 C5 1_555 1_555
C6 C3 1_555 1_555
N1 C1 1_555 1_555
O1 Cu1 1_555 1_555
O2 P1 1_555 1_555
H4 O2 1_555 1_555
O3 P1 1_555 1_555
O4 C6 1_555 1_555
O5 C6 1_555 1_555
H5 O5 1_555 1_555
Cu1_2 O4 1_555 1_555
Cu1_3 O4E 1_555 1_555
P1E C1E 1_555 1_555
C1E C2E 1_555 1_555
C2E H1E 1_555 1_555
C3E C2E 1_555 1_555
C4E C3E 1_555 1_555
H2E C4E 1_555 1_555
C5E C4E 1_555 1_555
H3E C5E 1_555 1_555
C6E C3E 1_555 1_555
N1E Cu1 1_555 1_555
O1E Cu1 1_555 1_555
O2E P1E 1_555 1_555
H4E O2E 1_555 1_555
O3E P1E 1_555 1_555
O4E C6E 1_555 1_555
O4_2 Cu1 1_555 1_555
O4E_2 Cu1 1_555 1_555
O5E C6E 1_555 1_555
H5E O5E 1_555 1_555
P1 O1 1_555 1_555
C5 N1 1_555 1_555
P1E O1E 1_555 1_555
C1E N1E 1_555 1_555
C5E N1E 1_555 1_555

#END
