
#######################################################################
#
#                 Cambridge Crystallographic Data Centre
#                                CCDC 
#
#######################################################################
#
# If this CIF has been generated from an entry in the Cambridge 
# Structural Database, then it will include bibliographic, chemical, 
# crystal, experimental, refinement or atomic coordinate data resulting 
# from the CCDC's data processing and validation procedures.
#
#######################################################################

data_KOBHAL
_symmetry_cell_setting           monoclinic
_symmetry_space_group_name_H-M   'P 21/n'
_symmetry_Int_Tables_number      14
_space_group_name_Hall           '-P 2yn'
loop_
_symmetry_equiv_pos_site_id
_symmetry_equiv_pos_as_xyz
1 x,y,z
2 1/2-x,1/2+y,1/2-z
3 -x,-y,-z
4 1/2+x,1/2-y,1/2+z
_cell_length_a                   8.6369(9)
_cell_length_b                   19.3517(19)
_cell_length_c                   12.0519(13)
_cell_angle_alpha                90
_cell_angle_beta                 108.2950(10)
_cell_angle_gamma                90
_cell_volume                     1912.52
loop_
_atom_site_label
_atom_site_type_symbol
_atom_site_fract_x
_atom_site_fract_y
_atom_site_fract_z
Cu1 Cu 0.60643(3) 0.056558(14) 0.98437(2)
Cu2 Cu 0.33461(3) 0.004851(15) 0.74260(2)
O1 O 0.5638(2) 0.14570(9) 0.90784(15)
O2 O 0.4755(3) 0.10000(9) 0.72849(17)
O3 O 0.7258(2) -0.00900(8) 0.87860(15)
O4 O 0.5008(2) -0.06906(9) 0.78235(16)
O5 O 0.1148(2) 0.10069(10) 0.86461(16)
O6 O 0.1214(2) 0.05266(10) 0.69709(15)
O7 O 0.38311(18) 0.02354(8) 0.91115(13)
H1 H 0.3096 0.0512 0.9165
N1 N 0.4541(3) 0.22392(11) 0.62454(19)
N2 N 0.5738(3) 0.23134(16) 0.5790(3)
N3 N 0.5095(4) 0.22770(16) 0.4670(3)
N4 N 0.3496(4) 0.21711(18) 0.4385(2)
N5 N 1.1748(2) -0.08697(10) 0.91372(17)
N6 N 1.1458(3) -0.09585(12) 0.79699(19)
N7 N 0.9945(3) -0.10897(12) 0.74671(19)
N8 N 0.9230(2) -0.10875(10) 0.83118(19)
N9 N -0.2832(3) 0.01969(11) 0.42637(18)
N10 N -0.3140(4) -0.02513(14) 0.5030(2)
N11 N -0.2652(4) 0.00103(14) 0.6065(2)
N12 N -0.2033(3) 0.06317(12) 0.59797(18)
C1 C 0.5098(3) 0.14839(13) 0.7968(2)
C2 C 0.4859(4) 0.22198(14) 0.7503(2)
H2 H 0.3952 0.2429 0.7691
H3 H 0.5830 0.2488 0.7882
C3 C 0.3182(4) 0.2145(2) 0.5374(3)
H4 H 0.2157 0.2070 0.5453
C4 C 1.0345(3) -0.09524(13) 0.9325(2)
H5 H 1.0165 -0.0922 1.0045
C5 C 0.7485(3) -0.12177(14) 0.8035(3)
H6 H 0.7049 -0.1357 0.7223
H7 H 0.7326 -0.1599 0.8512
C6 C 0.6537(3) -0.05962(12) 0.8238(2)
C7 C -0.2140(4) 0.07346(15) 0.4878(2)
H8 H -0.1782 0.1126 0.4584
C8 C -0.1258(3) 0.10349(15) 0.7033(2)
H9 H -0.1324 0.1522 0.6832
H10 H -0.1849 0.0965 0.7587
C9 C 0.0534(3) 0.08378(13) 0.7611(2)
Cu1B Cu 0.39357(3) -0.056558(14) 1.01563(2)
Cu1B_2 Cu 1.39357(3) -0.056558(14) 1.01563(2)
Cu2B Cu -0.33461(3) -0.004851(15) 0.25740(2)
O7B O 0.61689(18) -0.02354(8) 1.08885(13)
H1B H 0.6904 -0.0512 1.0835
N5B N 0.8252(2) 0.08697(10) 1.08628(17)
N9B N 0.2832(3) -0.01969(11) 0.57363(18)
O8 O 0.5585(5) 0.7354(2) 0.9667(4)
H11 H 0.5174 0.7250 1.0224
H12 H 0.4910 0.7466 0.8989
O9 O 0.3810(4) 0.78358(16) 0.7402(3)
H13 H 0.3743 0.8276 0.7339
H14 H 0.3793 0.7598 0.6801
loop_
_geom_bond_atom_site_label_1
_geom_bond_atom_site_label_2
_geom_bond_site_symmetry_1
_geom_bond_site_symmetry_2
Cu1 O1 1_555 1_555
Cu2 O2 1_555 1_555
O1 C1 1_555 1_555
O2 C1 1_555 1_555
O3 Cu1 1_555 1_555
O4 Cu2 1_555 1_555
O5 C9 1_555 1_555
O6 Cu2 1_555 1_555
O7 Cu1 1_555 1_555
H1 O7 1_555 1_555
N1 N2 1_555 1_555
N2 N3 1_555 1_555
N3 N4 1_555 1_555
N4 C3 1_555 1_555
N5 N6 1_555 1_555
N6 N7 1_555 1_555
N7 N8 1_555 1_555
N8 C4 1_555 1_555
N9 N10 1_555 1_555
N10 N11 1_555 1_555
N11 N12 1_555 1_555
N12 C7 1_555 1_555
C1 C2 1_555 1_555
C2 N1 1_555 1_555
H2 C2 1_555 1_555
H3 C2 1_555 1_555
C3 N1 1_555 1_555
H4 C3 1_555 1_555
C4 N5 1_555 1_555
H5 C4 1_555 1_555
C5 N8 1_555 1_555
H6 C5 1_555 1_555
H7 C5 1_555 1_555
C6 O3 1_555 1_555
C7 N9 1_555 1_555
H8 C7 1_555 1_555
C8 N12 1_555 1_555
H9 C8 1_555 1_555
H10 C8 1_555 1_555
C9 O6 1_555 1_555
O8 H11 1_555 1_555
H12 O8 1_555 1_555
O9 H13 1_555 1_555
H14 O9 1_555 1_555
Cu1B O7 1_555 1_555
Cu1B_2 N5 1_555 1_555
Cu2B N9 1_555 1_555
O7B Cu1 1_555 1_555
H1B O7B 1_555 1_555
N5B Cu1 1_555 1_555
N9B Cu2 1_555 1_555
Cu2 O7 1_555 1_555
O4 C6 1_555 1_555
C5 C6 1_555 1_555
C8 C9 1_555 1_555
Cu1B O7B 1_555 1_555

#END
