
#######################################################################
#
#                 Cambridge Crystallographic Data Centre
#                                CCDC 
#
#######################################################################
#
# If this CIF has been generated from an entry in the Cambridge 
# Structural Database, then it will include bibliographic, chemical, 
# crystal, experimental, refinement or atomic coordinate data resulting 
# from the CCDC's data processing and validation procedures.
#
#######################################################################

data_KOBHIT
_symmetry_cell_setting           monoclinic
_symmetry_space_group_name_H-M   'C 2/c'
_symmetry_Int_Tables_number      15
_space_group_name_Hall           '-C 2yn'
loop_
_symmetry_equiv_pos_site_id
_symmetry_equiv_pos_as_xyz
1 x,y,z
2 1/2+x,1/2+y,z
3 -x,y,1/2-z
4 1/2-x,1/2+y,1/2-z
5 -x,-y,-z
6 1/2-x,1/2-y,-z
7 x,-y,1/2+z
8 1/2+x,1/2-y,1/2+z
_cell_length_a                   21.199(6)
_cell_length_b                   12.686(3)
_cell_length_c                   20.367(5)
_cell_angle_alpha                90
_cell_angle_beta                 105.112(4)
_cell_angle_gamma                90
_cell_volume                     5287.89
loop_
_atom_site_label
_atom_site_type_symbol
_atom_site_fract_x
_atom_site_fract_y
_atom_site_fract_z
Tb1 Tb 0.233738(11) 0.022427(19) 0.258269(11)
Na1 Na 0.31254(12) -0.21739(17) 0.35445(12)
O1 O 0.33835(7) -0.0553(3) 0.31061(8)
O2 O 0.42988(9) -0.1306(3) 0.3007(2)
O3 O 0.16710(6) 0.0935(3) 0.15447(6)
O4 O 0.08832(8) 0.0868(3) 0.05727(7)
O5 O 0.21858(8) -0.0951(3) 0.34255(7)
O6 O 0.17884(3) -0.1345(4) 0.4311(2)
O7 O 0.23835(5) 0.2143(3) 0.25785(5)
O8 O 0.25166(6) 0.3715(3) 0.30908(16)
N1 N 0.3279(2) 0.0598(4) 0.1998(2)
N2 N 0.12346(9) -0.0830(3) 0.19943(19)
N3 N 0.1429(2) 0.0765(4) 0.3146(2)
N4 N 0.2878(2) 0.1171(3) 0.3757(2)
C1 C 0.3835(2) -0.0682(4) 0.2819(3)
C2 C 0.3804(3) -0.0019(4) 0.2198(3)
C3 C 0.4284(3) -0.0067(5) 0.1848(3)
H1 H 0.4637 -0.0524 0.1989
C4 C 0.4231(3) 0.0575(5) 0.1285(3)
H2 H 0.4551 0.0565 0.1047
C5 C 0.3698(3) 0.1228(5) 0.1086(3)
H3 H 0.3654 0.1677 0.0716
C6 C 0.3232(3) 0.1203(5) 0.1445(3)
H4 H 0.2864 0.1627 0.1298
C7 C 0.1177(2) 0.0513(4) 0.1129(2)
C8 C 0.0941(2) -0.0512(4) 0.1358(2)
C9 C 0.0442(2) -0.1092(4) 0.0927(2)
H5 H 0.0253 -0.0857 0.0486
C10 C 0.0231(3) -0.2004(5) 0.1153(3)
H6 H -0.0106 -0.2393 0.0873
C11 C 0.0528(3) -0.2340(5) 0.1809(3)
H7 H 0.0398 -0.2962 0.1977
C12 C 0.1027(3) -0.1726(4) 0.2211(3)
H8 H 0.1224 -0.1951 0.2651
C13 C 0.1823(3) -0.0780(5) 0.3826(3)
C14 C 0.1375(3) 0.0142(4) 0.3666(3)
C15 C 0.0911(4) 0.0354(5) 0.4033(3)
H9 H 0.0883 -0.0074 0.4395
C16 C 0.0500(3) 0.1203(6) 0.3849(3)
H10 H 0.0190 0.1358 0.4084
C17 C 0.0555(3) 0.1812(5) 0.3318(3)
H11 H 0.0276 0.2382 0.3181
C18 C 0.1025(2) 0.1582(4) 0.2983(3)
H12 H 0.1062 0.2017 0.2627
C19 C 0.2554(2) 0.2740(4) 0.3093(2)
C20 C 0.2836(2) 0.2223(4) 0.3770(2)
C21 C 0.3045(3) 0.2803(4) 0.4366(2)
H13 H 0.3019 0.3535 0.4354
C22 C 0.3283(4) 0.2301(5) 0.4957(3)
H14 H 0.3397 0.2673 0.5364
C23 C 0.3356(4) 0.1210(5) 0.4949(3)
H15 H 0.3551 0.0846 0.5347
C24 C 0.3135(3) 0.0678(5) 0.4342(3)
H16 H 0.3167 -0.0053 0.4342
O9 O 0.3001(14) -0.2337(7) 0.4706(3)
O10 O 0.4288(7) -0.1960(12) 0.4365(8)
H17 H 0.287(5) -0.296(6) 0.464(5)
H18 H 0.281(6) -0.182(4) 0.470(4)
H19 H 0.392(4) -0.209(4) 0.451(5)
H20 H 0.444(5) -0.247(4) 0.421(6)
Tb1C Tb 0.266262(11) 0.522427(19) 0.241731(11)
Na1C Na 0.18746(12) 0.28261(17) 0.14555(12)
O3C O 0.33290(6) -0.4065(3) 0.34553(6)
O7C O 0.26165(5) -0.2857(3) 0.24215(5)
O8C O 0.24834(6) -0.1285(3) 0.19092(16)
loop_
_geom_bond_atom_site_label_1
_geom_bond_atom_site_label_2
_geom_bond_site_symmetry_1
_geom_bond_site_symmetry_2
Tb1 O1 1_555 1_555
Na1 O1 1_555 1_555
O1 C1 1_555 1_555
O2 C1 1_555 1_555
O3 Tb1 1_555 1_555
O4 C7 1_555 1_555
O5 Tb1 1_555 1_555
O6 C13 1_555 1_555
O7 Tb1 1_555 1_555
O8 C19 1_555 1_555
N1 Tb1 1_555 1_555
N2 Tb1 1_555 1_555
N3 Tb1 1_555 1_555
N4 Tb1 1_555 1_555
C1 C2 1_555 1_555
C2 N1 1_555 1_555
C3 C2 1_555 1_555
H1 C3 1_555 1_555
C4 C3 1_555 1_555
H2 C4 1_555 1_555
C5 C4 1_555 1_555
H3 C5 1_555 1_555
C6 N1 1_555 1_555
H4 C6 1_555 1_555
C7 O3 1_555 1_555
C8 N2 1_555 1_555
C9 C8 1_555 1_555
H5 C9 1_555 1_555
C10 C9 1_555 1_555
H6 C10 1_555 1_555
C11 C10 1_555 1_555
H7 C11 1_555 1_555
C12 N2 1_555 1_555
H8 C12 1_555 1_555
C13 O5 1_555 1_555
C14 N3 1_555 1_555
C15 C14 1_555 1_555
H9 C15 1_555 1_555
C16 C15 1_555 1_555
H10 C16 1_555 1_555
C17 C16 1_555 1_555
H11 C17 1_555 1_555
C18 N3 1_555 1_555
H12 C18 1_555 1_555
C19 O7 1_555 1_555
C20 N4 1_555 1_555
C21 C20 1_555 1_555
H13 C21 1_555 1_555
C22 C21 1_555 1_555
H14 C22 1_555 1_555
C23 C22 1_555 1_555
H15 C23 1_555 1_555
C24 N4 1_555 1_555
H16 C24 1_555 1_555
O9 Na1 1_555 1_555
O10 Na1 1_555 1_555
H17 O9 1_555 1_555
H18 O9 1_555 1_555
H19 O10 1_555 1_555
H20 O10 1_555 1_555
Tb1C O8 1_555 1_555
Na1C O3 1_555 1_555
O3C Na1 1_555 1_555
O7C Na1 1_555 1_555
O8C Tb1 1_555 1_555
Na1 O5 1_555 1_555
O7 Na1C 1_555 1_555
C5 C6 1_555 1_555
C7 C8 1_555 1_555
C11 C12 1_555 1_555
C13 C14 1_555 1_555
C17 C18 1_555 1_555
C19 C20 1_555 1_555
C23 C24 1_555 1_555

#END
