
#######################################################################
#
#                 Cambridge Crystallographic Data Centre
#                                CCDC 
#
#######################################################################
#
# If this CIF has been generated from an entry in the Cambridge 
# Structural Database, then it will include bibliographic, chemical, 
# crystal, experimental, refinement or atomic coordinate data resulting 
# from the CCDC's data processing and validation procedures.
#
#######################################################################

data_KOBHEP
_symmetry_cell_setting           triclinic
_symmetry_space_group_name_H-M   'P -1'
_symmetry_Int_Tables_number      2
_space_group_name_Hall           '-P 1'
loop_
_symmetry_equiv_pos_site_id
_symmetry_equiv_pos_as_xyz
1 x,y,z
2 -x,-y,-z
_cell_length_a                   8.5325(12)
_cell_length_b                   9.4912(14)
_cell_length_c                   11.0470(16)
_cell_angle_alpha                106.534(2)
_cell_angle_beta                 93.207(2)
_cell_angle_gamma                107.294(2)
_cell_volume                     809.152
loop_
_atom_site_label
_atom_site_type_symbol
_atom_site_fract_x
_atom_site_fract_y
_atom_site_fract_z
Cu1 Cu 0.63551(4) 0.54649(4) 0.42597(3)
Cu2 Cu 0.31613(4) 0.20237(4) 0.27606(3)
O1 O 0.7082(2) 0.3325(2) 0.4064(2)
O2 O 0.4641(2) 0.1406(2) 0.37819(18)
O3 O 0.1537(2) 0.2430(2) 0.16263(18)
O4 O 0.1668(3) 0.4827(2) 0.2802(2)
O5 O 0.6593(3) 0.5255(2) 0.24715(18)
O6 O 0.5916(4) 0.7368(3) 0.2764(3)
O7 O 0.3996(2) 0.4189(2) 0.39223(17)
H1 H 0.343(4) 0.454(4) 0.366(3)
O8 O 0.5132(3) 0.2114(3) 0.1277(3)
H2 H 0.560(5) 0.299(5) 0.147(3)
H3 H 0.498(5) 0.183(5) 0.058(4)
N1 N 1.1363(3) 0.2988(3) 0.5196(2)
N2 N 1.1036(3) 0.1693(3) 0.4165(2)
N3 N 0.9485(3) 0.0896(3) 0.3943(2)
N4 N 0.8779(3) 0.1671(3) 0.4844(2)
N5 N -0.2094(3) 0.0222(3) -0.1664(2)
N6 N -0.1740(4) 0.1469(3) -0.2082(3)
N7 N -0.1147(5) 0.2723(3) -0.1115(3)
N8 N -0.1123(3) 0.2293(3) -0.0059(2)
C1 C 0.9930(3) 0.2944(3) 0.5599(3)
H4 H 0.976(4) 0.365(4) 0.625(3)
C2 C 0.6981(3) 0.1179(4) 0.4812(3)
H5 H 0.6509 0.0074 0.4357
H6 H 0.6732 0.1355 0.5678
C3 C 0.6193(3) 0.2075(3) 0.4153(2)
C4 C -0.1700(4) 0.0768(4) -0.0411(3)
H7 H -0.180(4) 0.024(4) 0.005(3)
C5 C -0.0607(4) 0.3460(4) 0.1211(3)
H8 H -0.1472 0.3221 0.1726
H9 H -0.0518 0.4467 0.1121
C6 C 0.1029(3) 0.3584(3) 0.1926(3)
C7 C 0.6836(7) 0.6378(6) 0.0912(5)
H10 H 0.5850 0.6154 0.0329
H11 H 0.7352 0.5600 0.0604
H12 H 0.7594 0.7382 0.0976
C8 C 0.6419(4) 0.6374(4) 0.2103(3)
Cu1A Cu 0.36449(4) 0.45351(4) 0.57403(3)
Cu1A_2 Cu 1.36449(4) 0.45351(4) 0.57403(3)
Cu2_2 Cu 1.31613(4) 0.20237(4) 0.27606(3)
Cu2A Cu -0.31613(4) -0.20237(4) -0.27606(3)
O7A O 0.6004(2) 0.5811(2) 0.60777(17)
H1A H 0.657(4) 0.546(4) 0.634(3)
N1A N 0.8637(3) 0.7012(3) 0.4804(2)
N2_2 N 0.1036(3) 0.1693(3) 0.4165(2)
N5A N 0.2094(3) -0.0222(3) 0.1664(2)
O9 O 0.5921(5) 0.9387(4) 0.1294(3)
H13 H 0.562(6) 1.022(6) 0.158(4)
H14 H 0.574(7) 0.877(7) 0.177(5)
loop_
_geom_bond_atom_site_label_1
_geom_bond_atom_site_label_2
_geom_bond_site_symmetry_1
_geom_bond_site_symmetry_2
Cu1 O1 1_555 1_555
Cu2 O2 1_555 1_555
O1 C3 1_555 1_555
O2 C3 1_555 1_555
O3 Cu2 1_555 1_555
O4 C6 1_555 1_555
O5 Cu1 1_555 1_555
O6 C8 1_555 1_555
O7 Cu1 1_555 1_555
H1 O7 1_555 1_555
O8 Cu2 1_555 1_555
H2 O8 1_555 1_555
H3 O8 1_555 1_555
N1 N2 1_555 1_555
N2 N3 1_555 1_555
N3 N4 1_555 1_555
N4 C1 1_555 1_555
N5 N6 1_555 1_555
N6 N7 1_555 1_555
N7 N8 1_555 1_555
N8 C4 1_555 1_555
C1 N1 1_555 1_555
H4 C1 1_555 1_555
C2 N4 1_555 1_555
H5 C2 1_555 1_555
H6 C2 1_555 1_555
C3 C2 1_555 1_555
C4 N5 1_555 1_555
H7 C4 1_555 1_555
C5 N8 1_555 1_555
H8 C5 1_555 1_555
H9 C5 1_555 1_555
C6 O3 1_555 1_555
C7 H10 1_555 1_555
H11 C7 1_555 1_555
H12 C7 1_555 1_555
C8 O5 1_555 1_555
O9 H13 1_555 1_555
H14 O9 1_555 1_555
Cu1A O7 1_555 1_555
Cu1A_2 N1 1_555 1_555
Cu2_2 N2 1_555 1_555
Cu2A N5 1_555 1_555
O7A Cu1 1_555 1_555
H1A O7A 1_555 1_555
N1A Cu1 1_555 1_555
N2_2 Cu2 1_555 1_555
N5A Cu2 1_555 1_555
Cu2 O7 1_555 1_555
C5 C6 1_555 1_555
C7 C8 1_555 1_555
Cu1A O7A 1_555 1_555

#END
