
#######################################################################
#
#                 Cambridge Crystallographic Data Centre
#                                CCDC 
#
#######################################################################
#
# If this CIF has been generated from an entry in the Cambridge 
# Structural Database, then it will include bibliographic, chemical, 
# crystal, experimental, refinement or atomic coordinate data resulting 
# from the CCDC's data processing and validation procedures.
#
#######################################################################

data_KOBMIY
_symmetry_cell_setting           orthorhombic
_symmetry_space_group_name_H-M   'P b c a'
_symmetry_Int_Tables_number      61
_space_group_name_Hall           '-P 2ac 2ab'
loop_
_symmetry_equiv_pos_site_id
_symmetry_equiv_pos_as_xyz
1 x,y,z
2 1/2-x,-y,1/2+z
3 -x,1/2+y,1/2-z
4 1/2+x,1/2-y,-z
5 -x,-y,-z
6 1/2+x,y,1/2-z
7 x,1/2-y,1/2+z
8 1/2-x,1/2+y,z
_cell_length_a                   17.705(1)
_cell_length_b                   19.206(1)
_cell_length_c                   25.513(1)
_cell_angle_alpha                90
_cell_angle_beta                 90
_cell_angle_gamma                90
_cell_volume                     8675.5
loop_
_atom_site_label
_atom_site_type_symbol
_atom_site_fract_x
_atom_site_fract_y
_atom_site_fract_z
Ag1 Ag 0.237358(15) 0.253011(15) 0.348759(10)
Ag2 Ag 0.069102(15) 0.208652(14) 0.319121(9)
P1 P 0.20863(5) 0.21247(5) 0.43304(3)
P2 P 0.04898(5) 0.19310(4) 0.41012(3)
O1 O 0.24488(12) 0.13763(11) 0.44773(8)
O2 O 0.28703(14) 0.09908(13) 0.35101(9)
O3 O 0.24145(13) 0.26144(11) 0.47868(8)
O4 O 0.17327(14) 0.38596(13) 0.48089(12)
O5 O 0.01314(13) 0.12017(12) 0.42844(9)
O6 O 0.05183(15) 0.04153(13) 0.34714(10)
O7 O -0.01345(12) 0.24597(13) 0.43323(8)
O8 O -0.15273(13) 0.26973(14) 0.40366(10)
N1 N 0.12025(14) 0.19761(13) 0.45364(10)
N2 N 0.33752(16) 0.25522(15) 0.29413(10)
N3 N 0.46416(16) 0.23480(15) 0.23104(10)
C1 C 0.32202(19) 0.12741(17) 0.43709(13)
C2 C 0.3738(2) 0.13579(19) 0.47658(14)
H1 H 0.3578 0.1493 0.5106
C3 C 0.4502(2) 0.1243(2) 0.46614(15)
H2 H 0.4866 0.1291 0.4932
C4 C 0.4723(2) 0.1059(2) 0.41627(16)
H3 H 0.5245 0.0993 0.4090
C5 C 0.4199(2) 0.09686(18) 0.37649(14)
H4 H 0.4360 0.0837 0.3424
C6 C 0.3439(2) 0.10718(17) 0.38677(13)
C7 C 0.3057(2) 0.0612(2) 0.30418(14)
H5 H 0.3439 0.0870 0.2843
H6 H 0.2603 0.0554 0.2827
H7 H 0.3257 0.0153 0.3137
C8 C 0.28341(19) 0.32117(17) 0.46576(12)
C9 C 0.3595(2) 0.3160(2) 0.45448(14)
H8 H 0.3834 0.2717 0.4543
C10 C 0.4009(2) 0.3755(2) 0.44335(15)
H9 H 0.4533 0.3722 0.4358
C11 C 0.3657(2) 0.4393(2) 0.44326(15)
H10 H 0.3939 0.4799 0.4348
C12 C 0.2897(2) 0.4451(2) 0.45531(16)
H11 H 0.2660 0.4895 0.4553
C13 C 0.2481(2) 0.3858(2) 0.46737(14)
C14 C 0.1387(2) 0.4533(2) 0.4877(2)
H12 H 0.1674 0.4802 0.5136
H13 H 0.0866 0.4473 0.5000
H14 H 0.1384 0.4782 0.4542
C15 C 0.10770(17) 0.18087(17) 0.50899(12)
C16 C 0.11577(18) 0.11285(18) 0.52589(13)
H15 H 0.1269 0.0768 0.5016
C17 C 0.10742(19) 0.09777(19) 0.57880(13)
H16 H 0.1130 0.0513 0.5909
C18 C 0.09098(19) 0.1506(2) 0.61400(13)
H17 H 0.0862 0.1402 0.6503
C19 C 0.08153(19) 0.21838(19) 0.59655(13)
H18 H 0.0689 0.2542 0.6207
C20 C 0.09054(17) 0.23384(18) 0.54365(13)
H19 H 0.0850 0.2803 0.5315
C21 C -0.04506(19) 0.09359(18) 0.39589(13)
C22 C -0.1192(2) 0.10705(18) 0.40763(14)
H20 H -0.1320 0.1346 0.4373
C23 C -0.1758(2) 0.0797(2) 0.37543(15)
H21 H -0.2274 0.0887 0.3828
C24 C -0.1558(2) 0.0395(2) 0.33286(14)
H22 H -0.1942 0.0210 0.3110
C25 C -0.0806(2) 0.02556(19) 0.32125(14)
H23 H -0.0679 -0.0020 0.2916
C26 C -0.0242(2) 0.05220(18) 0.35335(13)
C27 C 0.0740(3) -0.0104(2) 0.30998(17)
H24 H 0.0485 -0.0544 0.3182
H25 H 0.1288 -0.0171 0.3117
H26 H 0.0598 0.0046 0.2746
C28 C -0.0279(2) 0.30858(19) 0.40521(14)
C29 C 0.0297(2) 0.3549(2) 0.39491(15)
H27 H 0.0800 0.3452 0.4054
C30 C 0.0118(3) 0.4163(2) 0.36858(19)
H28 H 0.0503 0.4491 0.3605
C31 C -0.0617(3) 0.4293(2) 0.35440(18)
H29 H -0.0734 0.4715 0.3368
C32 C -0.1192(3) 0.3823(2) 0.36503(16)
H30 H -0.1696 0.3922 0.3547
C33 C -0.1023(2) 0.3205(2) 0.39086(14)
C34 C -0.2307(2) 0.2826(3) 0.39172(16)
H31 H -0.2482 0.3235 0.4112
H32 H -0.2610 0.2420 0.4017
H33 H -0.2363 0.2911 0.3540
C35 C 0.4065(2) 0.2750(2) 0.30946(13)
H34 H 0.4126 0.2966 0.3427
C36 C 0.4692(2) 0.2649(2) 0.27792(13)
H35 H 0.5172 0.2799 0.2901
C37 C 0.3952(2) 0.21625(19) 0.21566(13)
H36 H 0.3893 0.1950 0.1823
C38 C 0.3317(2) 0.22676(18) 0.24654(13)
H37 H 0.2834 0.2135 0.2337
Cl1 Cl 0.16843(6) 0.36299(5) 0.27097(4)
O9 O 0.19351(16) 0.38036(14) 0.32316(10)
O10 O 0.15802(14) 0.28766(13) 0.26940(9)
O11 O 0.09876(17) 0.39595(15) 0.25947(11)
O12 O 0.22421(19) 0.38221(16) 0.23311(12)
Cl2 Cl 0.13383(5) 0.12138(5) 0.21219(3)
O13 O 0.15076(14) 0.13989(13) 0.26645(9)
O14 O 0.05409(17) 0.1198(2) 0.20600(14)
O15 O 0.16569(15) 0.05438(13) 0.20141(10)
O16 O 0.1676(2) 0.17220(16) 0.17835(11)
Ag2E Ag 0.569102(15) 0.208652(14) 0.180879(9)
N3E N -0.03584(16) 0.23480(15) 0.26896(10)
loop_
_geom_bond_atom_site_label_1
_geom_bond_atom_site_label_2
_geom_bond_site_symmetry_1
_geom_bond_site_symmetry_2
Ag1 Ag2 1_555 1_555
Ag2 P2 1_555 1_555
P1 Ag1 1_555 1_555
P2 O5 1_555 1_555
O1 P1 1_555 1_555
O2 C6 1_555 1_555
O3 P1 1_555 1_555
O4 C13 1_555 1_555
O5 C21 1_555 1_555
O6 C26 1_555 1_555
O7 P2 1_555 1_555
O8 C33 1_555 1_555
N1 P1 1_555 1_555
N2 Ag1 1_555 1_555
N3 C36 1_555 1_555
C1 O1 1_555 1_555
C2 C1 1_555 1_555
H1 C2 1_555 1_555
C3 C2 1_555 1_555
H2 C3 1_555 1_555
C4 C3 1_555 1_555
H3 C4 1_555 1_555
C5 C4 1_555 1_555
H4 C5 1_555 1_555
C6 C1 1_555 1_555
C7 O2 1_555 1_555
H5 C7 1_555 1_555
H6 C7 1_555 1_555
H7 C7 1_555 1_555
C8 O3 1_555 1_555
C9 C8 1_555 1_555
H8 C9 1_555 1_555
C10 C9 1_555 1_555
H9 C10 1_555 1_555
C11 C10 1_555 1_555
H10 C11 1_555 1_555
C12 C11 1_555 1_555
H11 C12 1_555 1_555
C13 C8 1_555 1_555
C14 O4 1_555 1_555
H12 C14 1_555 1_555
H13 C14 1_555 1_555
H14 C14 1_555 1_555
C15 N1 1_555 1_555
C16 C15 1_555 1_555
H15 C16 1_555 1_555
C17 C16 1_555 1_555
H16 C17 1_555 1_555
C18 C17 1_555 1_555
H17 C18 1_555 1_555
C19 C18 1_555 1_555
H18 C19 1_555 1_555
C20 C15 1_555 1_555
H19 C20 1_555 1_555
C21 C22 1_555 1_555
C22 H20 1_555 1_555
C23 C22 1_555 1_555
H21 C23 1_555 1_555
C24 C23 1_555 1_555
H22 C24 1_555 1_555
C25 C24 1_555 1_555
H23 C25 1_555 1_555
C26 C21 1_555 1_555
C27 O6 1_555 1_555
H24 C27 1_555 1_555
H25 C27 1_555 1_555
H26 C27 1_555 1_555
C28 O7 1_555 1_555
C29 C28 1_555 1_555
H27 C29 1_555 1_555
C30 C29 1_555 1_555
H28 C30 1_555 1_555
C31 C30 1_555 1_555
H29 C31 1_555 1_555
C32 C31 1_555 1_555
H30 C32 1_555 1_555
C33 C28 1_555 1_555
C34 O8 1_555 1_555
H31 C34 1_555 1_555
H32 C34 1_555 1_555
H33 C34 1_555 1_555
C35 N2 1_555 1_555
H34 C35 1_555 1_555
C36 C35 1_555 1_555
H35 C36 1_555 1_555
C37 N3 1_555 1_555
H36 C37 1_555 1_555
C38 N2 1_555 1_555
H37 C38 1_555 1_555
Cl1 O9 1_555 1_555
O9 Ag1 1_555 1_555
O10 Ag1 1_555 1_555
O11 Cl1 1_555 1_555
O12 Cl1 1_555 1_555
Cl2 O13 1_555 1_555
O13 Ag2 1_555 1_555
O14 Cl2 1_555 1_555
O15 Cl2 1_555 1_555
O16 Cl2 1_555 1_555
Ag2E N3 1_555 1_555
N3E Ag2 1_555 1_555
Ag2 O10 1_555 1_555
P2 N1 1_555 1_555
C5 C6 1_555 1_555
C12 C13 1_555 1_555
C19 C20 1_555 1_555
C25 C26 1_555 1_555
C32 C33 1_555 1_555
C37 C38 1_555 1_555
Cl1 O10 1_555 1_555

#END
