
#######################################################################
#
#                 Cambridge Crystallographic Data Centre
#                                CCDC 
#
#######################################################################
#
# If this CIF has been generated from an entry in the Cambridge 
# Structural Database, then it will include bibliographic, chemical, 
# crystal, experimental, refinement or atomic coordinate data resulting 
# from the CCDC's data processing and validation procedures.
#
#######################################################################

data_KOBZUX
_symmetry_cell_setting           monoclinic
_symmetry_space_group_name_H-M   'P 21/c'
_symmetry_Int_Tables_number      14
_space_group_name_Hall           '-P 2ybc'
loop_
_symmetry_equiv_pos_site_id
_symmetry_equiv_pos_as_xyz
1 x,y,z
2 -x,1/2+y,1/2-z
3 -x,-y,-z
4 x,1/2-y,1/2+z
_cell_length_a                   11.6096(3)
_cell_length_b                   8.5159(2)
_cell_length_c                   19.0202(5)
_cell_angle_alpha                90
_cell_angle_beta                 102.798(2)
_cell_angle_gamma                90
_cell_volume                     1833.74
loop_
_atom_site_label
_atom_site_type_symbol
_atom_site_fract_x
_atom_site_fract_y
_atom_site_fract_z
Au1 Au 0.53044(2) -0.28948(3) 0.056160(14)
Au2 Au 0.32413(2) -0.05404(4) -0.371200(15)
Cl1 Cl 0.65392(16) -0.2804(2) 0.16721(10)
Cl2 Cl 0.29199(17) 0.1844(2) -0.42419(13)
S1 S 0.41288(13) -0.30769(17) -0.05534(8)
S2 S 0.34160(16) -0.2962(2) -0.32001(9)
C1 C 0.2652(6) -0.2812(8) -0.0455(3)
C2 C 0.1846(6) -0.3964(10) -0.0729(5)
H1 H 0.2056 -0.4816 -0.0988
C3 C 0.0693(8) -0.3824(13) -0.0608(6)
H2 H 0.0128 -0.4601 -0.0785
C4 C 0.0394(7) -0.2592(13) -0.0243(5)
H3 H -0.0379 -0.2516 -0.0170
C5 C 0.1192(7) -0.1462(12) 0.0021(4)
H4 H 0.0966 -0.0615 0.0278
C6 C 0.2325(6) -0.1534(10) -0.0080(4)
H5 H 0.2871 -0.0738 0.0099
C7 C 0.4325(6) -0.1316(7) -0.1069(4)
H6 H 0.5167 -0.1163 -0.1054
H7 H 0.4038 -0.0394 -0.0852
C8 C 0.3647(6) -0.1482(8) -0.1851(4)
H8 H 0.3660 -0.0475 -0.2099
H9 H 0.2822 -0.1740 -0.1860
C9 C 0.4165(6) -0.2745(9) -0.2253(4)
H10 H 0.4998 -0.2500 -0.2227
H11 H 0.4134 -0.3752 -0.2008
C10 C 0.1954(7) -0.3510(9) -0.3157(4)
C11 C 0.1729(10) -0.5101(11) -0.3132(5)
H12 H 0.2338 -0.5845 -0.3094
C12 C 0.0548(15) -0.5570(15) -0.3165(6)
H13 H 0.0366 -0.6644 -0.3158
C13 C -0.0322(12) -0.4494(18) -0.3208(6)
H14 H -0.1097 -0.4831 -0.3222
C14 C -0.0090(8) -0.2939(14) -0.3230(5)
H15 H -0.0704 -0.2201 -0.3271
C15 C 0.1063(7) -0.2444(10) -0.3191(4)
H16 H 0.1232 -0.1364 -0.3188
Au1C Au 0.53044(2) -0.21052(3) -0.443840(14)
Au2C Au 0.32413(2) -0.44596(4) 0.128800(15)
loop_
_geom_bond_atom_site_label_1
_geom_bond_atom_site_label_2
_geom_bond_site_symmetry_1
_geom_bond_site_symmetry_2
Au1 Cl1 1_555 1_555
Au2 Cl2 1_555 1_555
S1 Au1 1_555 1_555
S2 Au2 1_555 1_555
C1 S1 1_555 1_555
C2 C1 1_555 1_555
H1 C2 1_555 1_555
C3 C2 1_555 1_555
H2 C3 1_555 1_555
C4 C3 1_555 1_555
H3 C4 1_555 1_555
C5 C4 1_555 1_555
H4 C5 1_555 1_555
C6 C1 1_555 1_555
H5 C6 1_555 1_555
C7 S1 1_555 1_555
H6 C7 1_555 1_555
H7 C7 1_555 1_555
C8 C7 1_555 1_555
H8 C8 1_555 1_555
H9 C8 1_555 1_555
C9 S2 1_555 1_555
H10 C9 1_555 1_555
H11 C9 1_555 1_555
C10 S2 1_555 1_555
C11 C10 1_555 1_555
H12 C11 1_555 1_555
C12 C11 1_555 1_555
H13 C12 1_555 1_555
C13 C12 1_555 1_555
H14 C13 1_555 1_555
C14 C13 1_555 1_555
H15 C14 1_555 1_555
C15 C10 1_555 1_555
H16 C15 1_555 1_555
Au1C Au2 1_555 1_555
Au2C Au1 1_555 1_555
C5 C6 1_555 1_555
C8 C9 1_555 1_555
C14 C15 1_555 1_555

#END
