
#######################################################################
#
#                 Cambridge Crystallographic Data Centre
#                                CCDC 
#
#######################################################################
#
# If this CIF has been generated from an entry in the Cambridge 
# Structural Database, then it will include bibliographic, chemical, 
# crystal, experimental, refinement or atomic coordinate data resulting 
# from the CCDC's data processing and validation procedures.
#
#######################################################################

data_KOBZUX01
_symmetry_cell_setting           monoclinic
_symmetry_space_group_name_H-M   'C 2'
_symmetry_Int_Tables_number      5
_space_group_name_Hall           'C 2y'
loop_
_symmetry_equiv_pos_site_id
_symmetry_equiv_pos_as_xyz
1 x,y,z
2 -x,y,-z
3 1/2+x,1/2+y,z
4 1/2-x,1/2+y,-z
_cell_length_a                   21.4504(6)
_cell_length_b                   5.6699(2)
_cell_length_c                   7.7774(2)
_cell_angle_alpha                90
_cell_angle_beta                 106.4230(10)
_cell_angle_gamma                90
_cell_volume                     907.308
loop_
_atom_site_label
_atom_site_type_symbol
_atom_site_fract_x
_atom_site_fract_y
_atom_site_fract_z
Au1 Au 0.42574(2) 0.5008(3) 0.50131(6)
Cl1 Cl 0.4054(3) 0.6673(12) 0.2256(6)
S1 S 0.43326(19) 0.3582(8) 0.7786(5)
C1 C 0.3646(8) 0.175(5) 0.753(3)
C2 C 0.3492(7) -0.001(6) 0.622(2)
H1 H 0.3743 -0.0183 0.5417
C3 C 0.2967(8) -0.152(4) 0.610(3)
H2 H 0.2861 -0.2716 0.5234
C4 C 0.2608(12) -0.120(4) 0.730(3)
H3 H 0.2252 -0.2207 0.7221
C5 C 0.2747(11) 0.052(6) 0.860(3)
H4 H 0.2493 0.0660 0.9407
C6 C 0.3267(10) 0.204(5) 0.872(3)
H5 H 0.3362 0.3247 0.9588
C7 C 0.4975(9) 0.131(4) 0.830(3)
H6 H 0.4897 0.0197 0.7303
H7 H 0.5397 0.2068 0.8431
C8 C 0.5000 -0.002(7) 1.0000
H8 H 0.5382 -0.1050 1.0258
H9 H 0.4618 -0.1050 0.9742
Au1A Au 0.57426(2) 0.5008(3) 1.49869(6)
Au1A_2 Au 0.57426(2) 0.5008(3) 0.49869(6)
Au1_2 Au 0.42574(2) 0.5008(3) 1.50131(6)
Cl1A Cl 0.5946(3) 0.6673(12) 1.7744(6)
S1A S 0.56674(19) 0.3582(8) 1.2214(5)
C1A C 0.6354(8) 0.175(5) 1.247(3)
C2A C 0.6508(7) -0.001(6) 1.378(2)
H1A H 0.6257 -0.0183 1.4583
C3A C 0.7033(8) -0.152(4) 1.390(3)
H2A H 0.7139 -0.2716 1.4766
C4A C 0.7392(12) -0.120(4) 1.270(3)
H3A H 0.7748 -0.2207 1.2779
C5A C 0.7253(11) 0.052(6) 1.140(3)
H4A H 0.7507 0.0660 1.0593
C6A C 0.6733(10) 0.204(5) 1.128(3)
H5A H 0.6638 0.3247 1.0412
C7A C 0.5025(9) 0.131(4) 1.170(3)
H6A H 0.5103 0.0197 1.2697
H7A H 0.4603 0.2068 1.1569
loop_
_geom_bond_atom_site_label_1
_geom_bond_atom_site_label_2
_geom_bond_site_symmetry_1
_geom_bond_site_symmetry_2
Au1 Cl1 1_555 1_555
S1 Au1 1_555 1_555
C1 S1 1_555 1_555
C2 C1 1_555 1_555
H1 C2 1_555 1_555
C3 C2 1_555 1_555
H2 C3 1_555 1_555
C4 C3 1_555 1_555
H3 C4 1_555 1_555
C5 C4 1_555 1_555
H4 C5 1_555 1_555
C6 C1 1_555 1_555
H5 C6 1_555 1_555
C7 S1 1_555 1_555
H6 C7 1_555 1_555
H7 C7 1_555 1_555
C8 C7 1_555 1_555
H8 C8 1_555 1_555
H9 C8 1_555 1_555
Au1A Au1_2 1_555 1_555
Au1A_2 Au1 1_555 1_555
Cl1A Au1A 1_555 1_555
S1A Au1A 1_555 1_555
C1A S1A 1_555 1_555
C2A C1A 1_555 1_555
H1A C2A 1_555 1_555
C3A C2A 1_555 1_555
H2A C3A 1_555 1_555
C4A C3A 1_555 1_555
H3A C4A 1_555 1_555
C5A C4A 1_555 1_555
H4A C5A 1_555 1_555
C6A C1A 1_555 1_555
H5A C6A 1_555 1_555
C7A C8 1_555 1_555
H6A C7A 1_555 1_555
H7A C7A 1_555 1_555
C5 C6 1_555 1_555
S1A C7A 1_555 1_555
C5A C6A 1_555 1_555

#END
