
#######################################################################
#
#                 Cambridge Crystallographic Data Centre
#                                CCDC 
#
#######################################################################
#
# If this CIF has been generated from an entry in the Cambridge 
# Structural Database, then it will include bibliographic, chemical, 
# crystal, experimental, refinement or atomic coordinate data resulting 
# from the CCDC's data processing and validation procedures.
#
#######################################################################

data_KOCCIQ
_symmetry_cell_setting           monoclinic
_symmetry_space_group_name_H-M   'P 21/c'
_symmetry_Int_Tables_number      14
_space_group_name_Hall           '-P 2ybc'
loop_
_symmetry_equiv_pos_site_id
_symmetry_equiv_pos_as_xyz
1 x,y,z
2 -x,1/2+y,1/2-z
3 -x,-y,-z
4 x,1/2-y,1/2+z
_cell_length_a                   17.1902(10)
_cell_length_b                   29.7214(18)
_cell_length_c                   16.0823(6)
_cell_angle_alpha                90
_cell_angle_beta                 98.722(5)
_cell_angle_gamma                90
_cell_volume                     8121.7
loop_
_atom_site_label
_atom_site_type_symbol
_atom_site_fract_x
_atom_site_fract_y
_atom_site_fract_z
Cd1 Cd 0.40134(3) 0.781545(15) 0.48035(3)
Cd2 Cd 0.85294(3) 0.710048(16) 0.01422(3)
C1 C 0.8689(3) 0.8501(2) -0.0149(4)
C2 C 0.6130(4) 1.1413(2) 0.9877(4)
O1 O 0.5460(3) 1.20997(14) 0.9551(3)
O2 O 0.8038(3) 0.78082(15) -0.0520(3)
C3 C 0.5618(4) 0.8989(2) 0.8443(4)
C4 C 0.4652(4) 0.8269(2) 0.6207(4)
O3 O 0.7479(3) 0.82761(18) 1.4303(3)
C5 C 0.6887(4) 0.9024(2) 1.1469(4)
C6 C 0.4993(4) 0.8511(2) 0.6978(4)
C7 C 0.5952(3) 0.9715(2) 0.9190(4)
H1 H 0.5761 0.9862 0.8690
C8 C 0.7538(4) 0.8573(2) 1.2947(4)
C9 C 0.5953(3) 0.9239(2) 0.9204(3)
O4 O 0.5060(3) 0.82063(18) 0.5640(3)
C10 C 0.6555(3) 0.9262(2) 1.0666(3)
O5 O 0.6639(3) 1.21385(15) 1.0282(4)
N1 N 0.7704(4) 0.7281(2) 0.1132(3)
C11 C 0.6531(3) 0.9734(2) 1.0640(4)
H2 H 0.6720 0.9895 1.1125
C12 C 0.7877(4) 0.8346(2) 1.3738(4)
O6 O 0.8578(3) 0.82105(18) 1.3814(3)
C13 C 0.5590(3) 1.0699(2) 0.9417(4)
H3 H 0.5179 1.0538 0.9110
C14 C 0.6589(4) 0.7460(3) 0.2192(4)
O7 O 0.9209(3) 0.77801(16) 0.0264(4)
O8 O 0.3949(3) 0.81256(18) 0.6136(3)
C15 C 0.6086(4) 1.1912(2) 0.9887(4)
C16 C 0.6215(3) 1.0469(2) 0.9887(3)
C17 C 0.5995(4) 0.7543(3) 0.2757(4)
C18 C 0.8651(4) 0.7992(2) -0.0150(4)
N2 N 0.4867(4) 0.76856(19) 0.3814(3)
C19 C 0.9060(4) 1.0636(2) 0.0718(4)
C20 C 0.5574(4) 1.1163(2) 0.9403(4)
H4 H 0.5168 1.1308 0.9056
C21 C 0.9042(4) 1.0167(2) 0.0662(4)
H5 H 0.9241 0.9997 0.1132
C22 C 0.8441(3) 1.0195(2) -0.0774(4)
H6 H 0.8238 1.0046 -0.1268
C23 C 0.8733(3) 0.9444(2) -0.0107(4)
C24 C 0.8740(3) 0.9951(2) -0.0069(4)
C25 C 0.6776(4) 1.1192(2) 1.0323(4)
H7 H 0.7190 1.1359 1.0612
C26 C 0.6258(3) 0.9024(2) 0.9945(3)
C27 C 0.8125(4) 0.8747(2) -0.0635(4)
H8 H 0.7732 0.8598 -0.0993
C28 C 0.6230(3) 0.9972(2) 0.9905(3)
C29 C 0.8090(4) 1.0912(3) -0.1517(4)
C30 C 0.9399(4) 1.0854(3) 0.1516(4)
C31 C 0.9309(4) 0.8725(2) 0.0323(4)
H9 H 0.9715 0.8559 0.0626
C32 C 0.8121(4) 0.9208(2) -0.0611(4)
H10 H 0.7713 0.9366 -0.0928
C33 C 0.6810(4) 1.0725(2) 1.0343(4)
H11 H 0.7235 1.0582 1.0663
C34 C 0.9342(3) 0.9187(2) 0.0355(4)
H12 H 0.9764 0.9330 0.0679
C35 C 0.8439(4) 1.0665(2) -0.0752(4)
C36 C 0.8746(4) 1.0890(3) -0.0004(4)
C37 C 1.0102(5) 1.1287(3) 0.2995(5)
O9 O 1.1186(4) 1.1441(3) 0.4045(4)
C38 C 0.6793(4) 0.8752(3) 1.2865(4)
H13 H 0.6494 0.8721 1.3296
N3 N 0.6259(4) 0.8554(3) 0.9987(4)
H14 H 0.6071 0.8399 0.9552
H15 H 0.6449 0.8421 1.0448
C39 C 0.6486(4) 0.8983(3) 1.2124(4)
H16 H 0.5989 0.9113 1.2084
C40 C 0.6131(4) 0.7420(3) 0.3583(4)
H17 H 0.6611 0.7295 0.3815
O10 O 0.6320(4) 1.1520(3) -0.4032(4)
C41 C 0.7937(4) 0.8596(3) 1.2275(4)
H18 H 0.8431 0.8463 1.2312
C42 C 0.7834(5) 0.7178(3) 0.1923(5)
H19 H 0.8311 0.7042 0.2133
C43 C 0.5719(4) 0.8699(3) 0.7060(4)
H20 H 0.6014 0.8672 0.6623
O11 O 1.0248(7) 1.1828(3) 0.4018(6)
C44 C 0.4899(4) 0.8790(3) 0.8361(4)
H21 H 0.4605 0.8818 0.8798
N4 N 0.8736(3) 1.1359(2) 0.0038(4)
H22 H 0.8541 1.1513 -0.0396
H23 H 0.8925 1.1493 0.0498
C45 C 0.7405(5) 1.1379(3) -0.2957(5)
C46 C 0.6471(4) 0.7585(3) 0.1385(4)
H24 H 0.6004 0.7727 0.1161
C47 C 0.4728(5) 0.7806(3) 0.3027(5)
H25 H 0.4245 0.7937 0.2824
C48 C 0.4581(5) 0.8543(3) 0.7641(4)
H26 H 0.4095 0.8402 0.7617
C49 C 0.5539(4) 0.7484(3) 0.4074(4)
H27 H 0.5626 0.7377 0.4624
C50 C 0.5269(5) 0.7745(3) 0.2477(4)
H28 H 0.5148 0.7840 0.1921
C51 C 0.7043(5) 0.7504(3) 0.0881(4)
H29 H 0.6956 0.7612 0.0333
C52 C 0.6030(4) 0.8931(3) 0.7784(4)
H30 H 0.6534 0.9050 0.7824
C53 C 0.7617(4) 0.8817(3) 1.1532(4)
H31 H 0.7895 0.8826 1.1079
C54 C 1.0182(5) 1.0770(3) 0.1829(5)
H32 H 1.0471 1.0567 0.1559
C55 C 0.7307(5) 0.7259(3) 0.2472(5)
H33 H 0.7435 0.7179 0.3035
C56 C 0.7296(5) 1.0832(3) -0.1829(5)
H34 H 0.7006 1.0627 -0.1565
C57 C 1.0535(5) 1.0995(3) 0.2565(5)
H35 H 1.1064 1.0947 0.2766
C58 C 0.6945(5) 1.1066(3) -0.2548(6)
H36 H 0.6418 1.1019 -0.2759
C59 C 0.8998(5) 1.1143(3) 0.1937(5)
H37 H 0.8473 1.1202 0.1728
C60 C 0.8502(5) 1.1198(3) -0.1940(5)
H38 H 0.9032 1.1250 -0.1744
C61 C 0.8143(5) 1.1416(3) -0.2666(6)
H39 H 0.8452 1.1598 -0.2954
C62 C 0.9344(6) 1.1361(3) 0.2689(6)
H40 H 0.9045 1.1553 0.2969
C63 C 0.6984(7) 1.1627(4) -0.3720(6)
O12 O 0.7205(7) 1.1919(3) -0.3947(6)
C64 C 1.0514(7) 1.1542(4) 0.3758(6)
Cd1A Cd 0.59866(3) 1.281545(15) 1.01965(3)
Cd1B Cd 0.59866(3) 1.218455(15) -0.48035(3)
Cd2A Cd 1.14706(3) 1.210048(16) 0.48578(3)
Cd2C Cd 0.85294(3) 0.789952(16) 1.51422(3)
O1A O 0.4540(3) 0.70997(14) 0.5449(3)
O3C O 0.7479(3) 0.67239(18) -0.0697(3)
O5A O 0.3361(3) 0.71385(15) 0.4718(4)
O6C O 0.8578(3) 0.67895(18) -0.1186(3)
O9A O 0.8814(4) 0.6441(3) 0.0955(4)
O10B O 0.3680(4) 0.8480(3) 0.4032(4)
O11A O 0.9752(7) 0.6828(3) 0.0982(6)
O12B O 0.2795(7) 0.8081(3) 0.3947(6)
loop_
_geom_bond_atom_site_label_1
_geom_bond_atom_site_label_2
_geom_bond_site_symmetry_1
_geom_bond_site_symmetry_2
Cd1 O4 1_555 1_555
Cd2 O2 1_555 1_555
C1 C18 1_555 1_555
C2 C15 1_555 1_555
O1 C15 1_555 1_555
O2 C18 1_555 1_555
C3 C9 1_555 1_555
C4 C6 1_555 1_555
O3 C12 1_555 1_555
C5 C10 1_555 1_555
C6 C43 1_555 1_555
C7 H1 1_555 1_555
C8 C12 1_555 1_555
C9 C7 1_555 1_555
O4 C4 1_555 1_555
C10 C11 1_555 1_555
O5 C15 1_555 1_555
N1 Cd2 1_555 1_555
C11 H2 1_555 1_555
C12 O6 1_555 1_555
O6 Cd2C 1_555 1_555
C13 H3 1_555 1_555
C14 C17 1_555 1_555
O7 Cd2 1_555 1_555
O8 Cd1 1_555 1_555
C16 C13 1_555 1_555
C17 C40 1_555 1_555
C18 O7 1_555 1_555
N2 Cd1 1_555 1_555
C19 C21 1_555 1_555
C20 C2 1_555 1_555
H4 C20 1_555 1_555
C21 H5 1_555 1_555
C22 H6 1_555 1_555
C23 C24 1_555 1_555
C24 C21 1_555 1_555
C25 C2 1_555 1_555
H7 C25 1_555 1_555
C26 C9 1_555 1_555
C27 C1 1_555 1_555
H8 C27 1_555 1_555
C28 C7 1_555 1_555
C29 C35 1_555 1_555
C30 C19 1_555 1_555
C31 C1 1_555 1_555
H9 C31 1_555 1_555
C32 C23 1_555 1_555
H10 C32 1_555 1_555
C33 C16 1_555 1_555
H11 C33 1_555 1_555
C34 C23 1_555 1_555
H12 C34 1_555 1_555
C35 C22 1_555 1_555
C36 C19 1_555 1_555
C37 C57 1_555 1_555
O9 C64 1_555 1_555
C38 C8 1_555 1_555
H13 C38 1_555 1_555
N3 C26 1_555 1_555
H14 N3 1_555 1_555
H15 N3 1_555 1_555
C39 C5 1_555 1_555
H16 C39 1_555 1_555
C40 H17 1_555 1_555
O10 C63 1_555 1_555
C41 C8 1_555 1_555
H18 C41 1_555 1_555
C42 N1 1_555 1_555
H19 C42 1_555 1_555
C43 H20 1_555 1_555
O11 C64 1_555 1_555
C44 C3 1_555 1_555
H21 C44 1_555 1_555
N4 C36 1_555 1_555
H22 N4 1_555 1_555
H23 N4 1_555 1_555
C45 C58 1_555 1_555
C46 C14 1_555 1_555
H24 C46 1_555 1_555
C47 N2 1_555 1_555
H25 C47 1_555 1_555
C48 C6 1_555 1_555
H26 C48 1_555 1_555
C49 N2 1_555 1_555
H27 C49 1_555 1_555
C50 C17 1_555 1_555
H28 C50 1_555 1_555
C51 N1 1_555 1_555
H29 C51 1_555 1_555
C52 C3 1_555 1_555
H30 C52 1_555 1_555
C53 C5 1_555 1_555
H31 C53 1_555 1_555
C54 C30 1_555 1_555
H32 C54 1_555 1_555
C55 C14 1_555 1_555
H33 C55 1_555 1_555
C56 C29 1_555 1_555
H34 C56 1_555 1_555
C57 C54 1_555 1_555
H35 C57 1_555 1_555
C58 C56 1_555 1_555
H36 C58 1_555 1_555
C59 C30 1_555 1_555
H37 C59 1_555 1_555
C60 C29 1_555 1_555
H38 C60 1_555 1_555
C61 C45 1_555 1_555
H39 C61 1_555 1_555
C62 C37 1_555 1_555
H40 C62 1_555 1_555
C63 C45 1_555 1_555
O12 C63 1_555 1_555
C64 C37 1_555 1_555
Cd1A O1 1_555 1_555
Cd1B O10 1_555 1_555
Cd2A O9 1_555 1_555
Cd2C O3 1_555 1_555
O1A Cd1 1_555 1_555
O3C Cd2 1_555 1_555
O5A Cd1 1_555 1_555
O6C Cd2 1_555 1_555
O9A Cd2 1_555 1_555
O10B Cd1 1_555 1_555
O11A Cd2 1_555 1_555
O12B Cd1 1_555 1_555
C4 O8 1_555 1_555
C10 C26 1_555 1_555
O5 Cd1A 1_555 1_555
C11 C28 1_555 1_555
C13 C20 1_555 1_555
C16 C28 1_555 1_555
C22 C24 1_555 1_555
C25 C33 1_555 1_555
C27 C32 1_555 1_555
C31 C34 1_555 1_555
C35 C36 1_555 1_555
C38 C39 1_555 1_555
C40 C49 1_555 1_555
C41 C53 1_555 1_555
C42 C55 1_555 1_555
C43 C52 1_555 1_555
O11 Cd2A 1_555 1_555
C44 C48 1_555 1_555
C46 C51 1_555 1_555
C47 C50 1_555 1_555
C59 C62 1_555 1_555
C60 C61 1_555 1_555
O12 Cd1B 1_555 1_555

#END
