
#######################################################################
#
#                 Cambridge Crystallographic Data Centre
#                                CCDC 
#
#######################################################################
#
# If this CIF has been generated from an entry in the Cambridge 
# Structural Database, then it will include bibliographic, chemical, 
# crystal, experimental, refinement or atomic coordinate data resulting 
# from the CCDC's data processing and validation procedures.
#
#######################################################################

data_KOCDOX
_symmetry_cell_setting           monoclinic
_symmetry_space_group_name_H-M   'C 2/m'
_symmetry_Int_Tables_number      12
_space_group_name_Hall           '-C 2y'
loop_
_symmetry_equiv_pos_site_id
_symmetry_equiv_pos_as_xyz
1 x,y,z
2 -x,y,-z
3 1/2+x,1/2+y,z
4 1/2-x,1/2+y,-z
5 -x,-y,-z
6 x,-y,z
7 1/2-x,1/2-y,-z
8 1/2+x,1/2-y,z
_cell_length_a                   16.315(4)
_cell_length_b                   12.127(3)
_cell_length_c                   11.430(2)
_cell_angle_alpha                90
_cell_angle_beta                 116.638(4)
_cell_angle_gamma                90
_cell_volume                     2021.41
loop_
_atom_site_label
_atom_site_type_symbol
_atom_site_fract_x
_atom_site_fract_y
_atom_site_fract_z
Nd1 Nd 0.109653(14) 0.00000 0.19499(2)
Nd2 Nd 0.286967(14) 0.00000 0.81338(2)
O1 O 0.19962(19) 0.00000 0.9427(3)
O2 O 0.06312(19) 0.00000 0.9477(3)
O3 O 0.1177(2) 0.00000 0.6848(3)
O4 O -0.01818(20) 0.00000 0.6835(3)
C1 C 0.1141(3) 0.00000 0.8920(4)
O5 O 0.05132(14) 0.19281(16) 0.1530(2)
O6 O 0.08476(13) 0.36947(16) 0.1409(2)
C2 C 0.10198(18) 0.2687(2) 0.1482(3)
O7 O 0.24162(15) 0.30902(16) 0.1392(2)
O8 O 0.21369(14) 0.13326(16) 0.1660(2)
N1 N 0.4011(3) 0.00000 1.0721(4)
C3 C 0.19364(19) 0.2337(2) 0.1510(3)
C4 C 0.0659(3) 0.00000 0.7409(4)
O9 O 0.25176(16) 0.10982(17) 0.6158(2)
O10 O 0.19382(18) 0.10943(18) 0.3983(2)
N2 N 0.3670(3) 0.00000 1.1700(4)
C5 C 0.2233(2) 0.0634(2) 0.5068(3)
H1 H 0.441571 -0.052146 1.089747
H2 H 0.413097 0.000 1.247861
H3 H 0.333796 0.058575 1.16036
H1E H 0.441571 0.052146 1.089747
H3E H 0.333796 -0.058575 1.16036
O9E O 0.25176(16) -0.10982(17) 0.6158(2)
O10E O 0.19382(18) -0.10943(18) 0.3983(2)
C5E C 0.2233(2) -0.0634(2) 0.5068(3)
O5E O 0.05132(14) -0.19281(16) 0.1530(2)
O6E O 0.08476(13) -0.36947(16) 0.1409(2)
C2E C 0.10198(18) -0.2687(2) 0.1482(3)
O7E O 0.24162(15) -0.30902(16) 0.1392(2)
O8E O 0.21369(14) -0.13326(16) 0.1660(2)
C3E C 0.19364(19) -0.2337(2) 0.1510(3)
Nd1_2 Nd 0.109653(14) 0.00000 1.19499(2)
Nd1A Nd -0.109653(14) 0.00000 0.80501(2)
Nd2C Nd 0.213033(14) -0.50000 0.18662(2)
Nd2C_2 Nd 0.213033(14) 0.50000 0.18662(2)
O2_2 O 0.06312(19) 0.00000 -0.0523(3)
O2A O -0.06312(19) 0.00000 0.0523(3)
O4A O 0.01818(20) 0.00000 0.3165(3)
O6C O 0.41524(13) -0.13053(16) 0.8591(2)
O6F O 0.41524(13) 0.13053(16) 0.8591(2)
O7C O 0.25838(15) -0.19098(16) 0.8608(2)
O7F O 0.25838(15) 0.19098(16) 0.8608(2)
O11 O 0.08242(19) 0.2691(3) 0.7809(4)
H4 H 0.048(3) 0.249(4) 0.813(5)
H5 H 0.1339(15) 0.242(4) 0.820(4)
O12 O 0.5295(4) 0.00000 1.3904(6)
H6 H 0.556(4) -0.059(3) 1.402(6)
H6E H 0.556(4) 0.059(3) 1.402(6)
N3 N 0.6108(3) 0.2102(3) 1.4976(4)
N4 N 0.5381(4) 0.2939(5) 1.4960(7)
N3A N 0.3892(3) 0.2102(3) 1.5024(4)
N4A N 0.4619(4) 0.2939(5) 1.5040(7)
O13? O 0.6108(3) 0.2102(3) 1.4976(4)
loop_
_geom_bond_atom_site_label_1
_geom_bond_atom_site_label_2
_geom_bond_site_symmetry_1
_geom_bond_site_symmetry_2
Nd1 O5 1_555 1_555
Nd2 O1 1_555 1_555
O1 C1 1_555 1_555
O2 C1 1_555 1_555
O3 Nd2 1_555 1_555
O4 C4 1_555 1_555
C1 C4 1_555 1_555
O5 C2 1_555 1_555
O6 C2 1_555 1_555
C2 C3 1_555 1_555
O7 C3 1_555 1_555
O8 Nd1 1_555 1_555
N1 Nd2 1_555 1_555
C3 O8 1_555 1_555
C4 O3 1_555 1_555
O9 Nd2 1_555 1_555
O10 Nd1 1_555 1_555
N2 N1 1_555 1_555
C5 O9 1_555 1_555
H1 N1 1_555 1_555
H2 N2 1_555 1_555
H3 N2 1_555 1_555
O11 H4 1_555 1_555
H5 O11 1_555 1_555
O12 H6 1_555 1_555
N3 N4 1_555 1_555
H1E N1 1_555 1_555
H3E N2 1_555 1_555
O9E Nd2 1_555 1_555
O10E Nd1 1_555 1_555
C5E C5 1_555 1_555
O5E Nd1 1_555 1_555
O6E C2E 1_555 1_555
C2E O5E 1_555 1_555
O7E C3E 1_555 1_555
O8E Nd1 1_555 1_555
C3E C2E 1_555 1_555
Nd1_2 O2 1_555 1_555
Nd1A O2 1_555 1_555
Nd2C O6E 1_555 1_555
Nd2C_2 O6 1_555 1_555
O2_2 Nd1 1_555 1_555
O2A Nd1 1_555 1_555
O4A Nd1 1_555 1_555
O6C Nd2 1_555 1_555
O6F Nd2 1_555 1_555
O7C Nd2 1_555 1_555
O7F Nd2 1_555 1_555
H6E O12 1_555 1_555
N3A N4A 1_555 1_555
O4 Nd1A 1_555 1_555
O7 Nd2C_2 1_555 1_555
O10 C5 1_555 1_555
O9E C5E 1_555 1_555
O10E C5E 1_555 1_555
O7E Nd2C 1_555 1_555
O8E C3E 1_555 1_555

#END
