
#######################################################################
#
#                 Cambridge Crystallographic Data Centre
#                                CCDC 
#
#######################################################################
#
# If this CIF has been generated from an entry in the Cambridge 
# Structural Database, then it will include bibliographic, chemical, 
# crystal, experimental, refinement or atomic coordinate data resulting 
# from the CCDC's data processing and validation procedures.
#
#######################################################################

data_KOCVUU
_symmetry_cell_setting           triclinic
_symmetry_space_group_name_H-M   'P -1'
_symmetry_Int_Tables_number      2
_space_group_name_Hall           '-P 1'
loop_
_symmetry_equiv_pos_site_id
_symmetry_equiv_pos_as_xyz
1 x,y,z
2 -x,-y,-z
_cell_length_a                   7.1962(4)
_cell_length_b                   9.7622(5)
_cell_length_c                   13.4791(7)
_cell_angle_alpha                93.074(1)
_cell_angle_beta                 94.827(1)
_cell_angle_gamma                91.753(1)
_cell_volume                     941.614
loop_
_atom_site_label
_atom_site_type_symbol
_atom_site_fract_x
_atom_site_fract_y
_atom_site_fract_z
Pb1 Pb 0.353523(18) 0.350096(13) 0.301955(9)
O1 O 0.5180(5) 0.1281(3) 0.2223(3)
O2 O 0.6742(4) 0.3091(3) 0.1930(2)
O3 O 0.7405(6) 0.1111(4) 0.1269(3)
O4 O 0.3203(6) 0.5703(4) 0.4447(3)
O5 O 0.1810(7) 0.3963(4) 0.4981(3)
O6 O 0.2854(5) 0.5619(4) 0.6017(2)
O7 O 0.0226(4) 0.4588(4) 0.2729(2)
H1 H -0.0133 0.4843 0.3267
H2 H -0.0520 0.4012 0.2449
N1 N 0.4125(5) 0.5611(3) 0.2090(2)
N2 N 0.2451(5) 0.3305(3) 0.1183(2)
N3 N 0.6476(5) 0.1814(4) 0.1797(3)
N4 N 0.2615(5) 0.5100(4) 0.5147(3)
N5 N 0.1092(5) 0.1213(4) 0.3172(3)
N6 N -0.4274(5) -0.0274(4) 0.4747(3)
C1 C 0.4969(6) 0.6733(4) 0.2575(3)
H3 H 0.5440 0.6679 0.3235
C2 C 0.5160(6) 0.7969(4) 0.2123(3)
H4 H 0.5763 0.8729 0.2469
C3 C 0.4437(6) 0.8042(4) 0.1154(3)
H5 H 0.4531 0.8862 0.0837
C4 C 0.3571(6) 0.6902(4) 0.0651(3)
H6 H 0.3065 0.6946 -0.0004
C5 C 0.3462(5) 0.5682(4) 0.1135(3)
C6 C 0.2593(5) 0.4400(4) 0.0625(3)
C7 C 0.1987(6) 0.4323(4) -0.0383(3)
H7 H 0.2100 0.5088 -0.0758
C8 C 0.1221(6) 0.3113(5) -0.0822(3)
H8 H 0.0800 0.3053 -0.1495
C9 C 0.1081(7) 0.1991(5) -0.0258(3)
H9 H 0.0583 0.1156 -0.0542
C10 C 0.1700(7) 0.2132(5) 0.0743(4)
H10 H 0.1589 0.1376 0.1129
C11 C 0.1577(6) -0.0073(5) 0.3013(4)
H11 H 0.2640 -0.0225 0.2681
C12 C 0.0611(7) -0.1197(5) 0.3306(4)
H12 H 0.1014 -0.2079 0.3172
C13 C -0.0967(6) -0.0996(4) 0.3802(3)
H13 H -0.1636 -0.1737 0.4018
C14 C -0.1532(6) 0.0332(4) 0.3974(3)
C15 C -0.0441(6) 0.1402(4) 0.3653(3)
H14 H -0.0801 0.2297 0.3780
C16 C -0.3161(6) 0.0672(5) 0.4494(3)
H15 H -0.3399 0.1587 0.4646
Pb1A Pb 0.646477(18) 0.649904(13) 0.698045(9)
Pb1A_2 Pb -1.353523(18) -0.350096(13) 0.698045(9)
O1A O 0.4820(5) 0.8719(3) 0.7777(3)
O2A O 0.3258(4) 0.6909(3) 0.8070(2)
O3A O 0.2595(6) 0.8889(4) 0.8731(3)
O4A O 0.6797(6) 0.4297(4) 0.5553(3)
O5A O 0.8190(7) 0.6037(4) 0.5019(3)
O6A O 0.7146(5) 0.4381(4) 0.3983(2)
O7A O 0.9774(4) 0.5412(4) 0.7271(2)
H1A H 1.0133 0.5157 0.6733
H2A H 1.0520 0.5988 0.7551
N1A N 0.5875(5) 0.4389(3) 0.7910(2)
N2A N 0.7549(5) 0.6695(3) 0.8817(2)
N3A N 0.3524(5) 0.8186(4) 0.8203(3)
N4A N 0.7385(5) 0.4900(4) 0.4853(3)
N5A N -1.1092(5) -0.1213(4) 0.6828(3)
N5A_2 N 0.8908(5) 0.8787(4) 0.6828(3)
N6A N -0.5726(5) 0.0274(4) 0.5253(3)
C1A C 0.5031(6) 0.3267(4) 0.7425(3)
H3A H 0.4560 0.3321 0.6765
C2A C 0.4840(6) 0.2031(4) 0.7877(3)
H4A H 0.4237 0.1271 0.7531
C3A C 0.5563(6) 0.1958(4) 0.8846(3)
H5A H 0.5469 0.1138 0.9163
C4A C 0.6429(6) 0.3098(4) 0.9349(3)
H6A H 0.6935 0.3054 1.0004
C5A C 0.6538(5) 0.4318(4) 0.8865(3)
C6A C 0.7407(5) 0.5600(4) 0.9375(3)
C7A C 0.8013(6) 0.5677(4) 1.0383(3)
H7A H 0.7900 0.4912 1.0758
C8A C 0.8779(6) 0.6887(5) 1.0822(3)
H8A H 0.9200 0.6947 1.1495
C9A C 0.8919(7) 0.8009(5) 1.0258(3)
H9A H 0.9417 0.8844 1.0542
C10A C 0.8300(7) 0.7868(5) 0.9257(4)
H10A H 0.8411 0.8624 0.8871
C11A C -1.1577(6) 0.0073(5) 0.6987(4)
H11A H -1.2640 0.0225 0.7319
C12A C -1.0611(7) 0.1197(5) 0.6694(4)
H12A H -1.1014 0.2079 0.6828
C13A C -0.9033(6) 0.0996(4) 0.6198(3)
H13A H -0.8364 0.1737 0.5982
C14A C -0.8468(6) -0.0332(4) 0.6026(3)
C15A C -0.9559(6) -0.1402(4) 0.6347(3)
H14A H -0.9199 -0.2297 0.6220
C16A C -0.6839(6) -0.0672(5) 0.5506(3)
H15A H -0.6601 -0.1587 0.5354
loop_
_geom_bond_atom_site_label_1
_geom_bond_atom_site_label_2
_geom_bond_site_symmetry_1
_geom_bond_site_symmetry_2
Pb1 O1 1_555 1_555
O1 N3 1_555 1_555
O2 Pb1 1_555 1_555
O3 N3 1_555 1_555
O4 Pb1 1_555 1_555
O5 Pb1 1_555 1_555
O6 N4 1_555 1_555
O7 Pb1 1_555 1_555
H1 O7 1_555 1_555
H2 O7 1_555 1_555
N1 Pb1 1_555 1_555
N2 Pb1 1_555 1_555
N3 O2 1_555 1_555
N4 O4 1_555 1_555
N5 Pb1 1_555 1_555
N6 C16 1_555 1_555
C1 N1 1_555 1_555
H3 C1 1_555 1_555
C2 C1 1_555 1_555
H4 C2 1_555 1_555
C3 C2 1_555 1_555
H5 C3 1_555 1_555
C4 C3 1_555 1_555
H6 C4 1_555 1_555
C5 N1 1_555 1_555
C6 N2 1_555 1_555
C7 C6 1_555 1_555
H7 C7 1_555 1_555
C8 C7 1_555 1_555
H8 C8 1_555 1_555
C9 C8 1_555 1_555
H9 C9 1_555 1_555
C10 N2 1_555 1_555
H10 C10 1_555 1_555
C11 N5 1_555 1_555
H11 C11 1_555 1_555
C12 C11 1_555 1_555
H12 C12 1_555 1_555
C13 C12 1_555 1_555
H13 C13 1_555 1_555
C14 C13 1_555 1_555
C15 N5 1_555 1_555
H14 C15 1_555 1_555
C16 C14 1_555 1_555
H15 C16 1_555 1_555
Pb1A O6 1_555 1_555
Pb1A_2 N5A 1_555 1_555
O1A Pb1A 1_555 1_555
O2A Pb1A 1_555 1_555
O3A N3A 1_555 1_555
O4A Pb1A 1_555 1_555
O5A Pb1A 1_555 1_555
O6A Pb1 1_555 1_555
O7A Pb1A 1_555 1_555
H1A O7A 1_555 1_555
H2A O7A 1_555 1_555
N1A Pb1A 1_555 1_555
N2A Pb1A 1_555 1_555
N3A O1A 1_555 1_555
N4A O4A 1_555 1_555
N5A C11A 1_555 1_555
N5A_2 Pb1A 1_555 1_555
N6A N6 1_555 1_555
C1A N1A 1_555 1_555
H3A C1A 1_555 1_555
C2A C1A 1_555 1_555
H4A C2A 1_555 1_555
C3A C2A 1_555 1_555
H5A C3A 1_555 1_555
C4A C3A 1_555 1_555
H6A C4A 1_555 1_555
C5A N1A 1_555 1_555
C6A N2A 1_555 1_555
C7A C6A 1_555 1_555
H7A C7A 1_555 1_555
C8A C7A 1_555 1_555
H8A C8A 1_555 1_555
C9A C8A 1_555 1_555
H9A C9A 1_555 1_555
C10A N2A 1_555 1_555
H10A C10A 1_555 1_555
C11A H11A 1_555 1_555
C12A C11A 1_555 1_555
H12A C12A 1_555 1_555
C13A C12A 1_555 1_555
H13A C13A 1_555 1_555
C14A C13A 1_555 1_555
C15A N5A 1_555 1_555
H14A C15A 1_555 1_555
C16A N6A 1_555 1_555
H15A C16A 1_555 1_555
O5 N4 1_555 1_555
C4 C5 1_555 1_555
C5 C6 1_555 1_555
C9 C10 1_555 1_555
C14 C15 1_555 1_555
O2A N3A 1_555 1_555
O5A N4A 1_555 1_555
O6A N4A 1_555 1_555
C4A C5A 1_555 1_555
C5A C6A 1_555 1_555
C9A C10A 1_555 1_555
C14A C15A 1_555 1_555
C14A C16A 1_555 1_555

#END
