
#######################################################################
#
#                 Cambridge Crystallographic Data Centre
#                                CCDC 
#
#######################################################################
#
# If this CIF has been generated from an entry in the Cambridge 
# Structural Database, then it will include bibliographic, chemical, 
# crystal, experimental, refinement or atomic coordinate data resulting 
# from the CCDC's data processing and validation procedures.
#
#######################################################################

data_KOCVOO
_symmetry_cell_setting           monoclinic
_symmetry_space_group_name_H-M   'P 21/n'
_symmetry_Int_Tables_number      14
_space_group_name_Hall           '-P 2yn'
loop_
_symmetry_equiv_pos_site_id
_symmetry_equiv_pos_as_xyz
1 x,y,z
2 1/2-x,1/2+y,1/2-z
3 -x,-y,-z
4 1/2+x,1/2-y,1/2+z
_cell_length_a                   8.857(3)
_cell_length_b                   14.545(5)
_cell_length_c                   11.249(4)
_cell_angle_alpha                90
_cell_angle_beta                 90.445(6)
_cell_angle_gamma                90
_cell_volume                     1449.11
loop_
_atom_site_label
_atom_site_type_symbol
_atom_site_fract_x
_atom_site_fract_y
_atom_site_fract_z
Pb1 Pb 0.22353(3) 0.525115(16) 0.57353(2)
N1 N 0.4931(6) 0.5656(4) 0.6197(5)
O1 O 0.3289(5) 0.6495(4) 0.4655(5)
C1 C 0.4722(8) 0.6622(5) 0.4693(6)
N3 N 0.5700(6) 0.6231(4) 0.5419(5)
C2 C 0.5355(8) 0.7307(5) 0.3823(6)
N4 N 0.3428(7) 0.4549(5) 0.7724(6)
C3 C 0.5674(8) 0.5284(4) 0.7036(7)
H1 H 0.6724 0.5406 0.7115
C4 C 0.4936(9) 0.4666(5) 0.7892(7)
C5 C 0.5721(10) 0.4229(6) 0.8769(7)
H2 H 0.6772 0.4333 0.8877
C6 C 0.2725(10) 0.3975(6) 0.8458(8)
H3 H 0.1669 0.3887 0.8356
C7 C 0.4941(11) 0.3622(6) 0.9507(8)
H4 H 0.5463 0.3294 1.0114
C8 C 0.3440(11) 0.3506(6) 0.9350(8)
H5 H 0.2890 0.3104 0.9852
C9 C 0.4965(8) 0.8384(5) 0.2254(7)
H6 H 0.4291 0.8685 0.1721
C10 C 0.4376(8) 0.7751(5) 0.3046(6)
H7 H 0.3324 0.7624 0.3055
C11 C 0.7373(8) 0.8151(5) 0.2947(7)
H8 H 0.8423 0.8279 0.2905
C12 C 0.6886(8) 0.7517(5) 0.3771(7)
H9 H 0.7586 0.7229 0.4295
N5 N 0.6436(6) 0.8594(4) 0.2202(5)
Pb1C Pb -0.27647(3) 0.974885(16) 1.07353(2)
Pb1C_2 Pb 0.72353(3) 0.974885(16) 0.07353(2)
N1C N -0.0069(6) 0.9344(4) 1.1197(5)
O1C O -0.1711(5) 0.8505(4) 0.9655(5)
C1C C -0.0278(8) 0.8378(5) 0.9693(6)
N3C N 0.0700(6) 0.8769(4) 1.0419(5)
C2C C 0.0355(8) 0.7693(5) 0.8823(6)
N4C N -0.1572(7) 1.0451(5) 1.2724(6)
C3C C 0.0674(8) 0.9716(4) 1.2036(7)
H1C H 0.1724 0.9594 1.2115
C4C C -0.0064(9) 1.0334(5) 1.2892(7)
C5C C 0.0721(10) 1.0771(6) 1.3769(7)
H2C H 0.1772 1.0667 1.3877
C6C C -0.2275(10) 1.1025(6) 1.3458(8)
H3C H -0.3331 1.1113 1.3356
C7C C -0.0059(11) 1.1378(6) 1.4507(8)
H4C H 0.0463 1.1706 1.5114
C8C C -0.1560(11) 1.1494(6) 1.4350(8)
H5C H -0.2110 1.1896 1.4852
C9C C -0.0035(8) 0.6616(5) 0.7254(7)
H6C H -0.0709 0.6315 0.6721
C10C C -0.0624(8) 0.7249(5) 0.8046(6)
H7C H -0.1676 0.7376 0.8055
C11C C 0.2373(8) 0.6849(5) 0.7947(7)
H8C H 0.3423 0.6721 0.7905
C12C C 0.1886(8) 0.7483(5) 0.8771(7)
H9C H 0.2586 0.7771 0.9295
N5C N 0.1436(6) 0.6406(4) 0.7202(5)
N5_2 N -0.3564(6) 0.8594(4) 1.2202(5)
O2 O 0.9439(6) 0.3009(4) 0.7155(5)
N2 N 0.9577(7) 0.3689(5) 0.6500(6)
O3 O 0.9384(7) 0.4501(4) 0.6874(5)
O4 O 0.9931(5) 0.3598(4) 0.5412(5)
O5 O 0.0000 0.5000 1.0000
loop_
_geom_bond_atom_site_label_1
_geom_bond_atom_site_label_2
_geom_bond_site_symmetry_1
_geom_bond_site_symmetry_2
Pb1 N1 1_555 1_555
N1 N3 1_555 1_555
O1 Pb1 1_555 1_555
O2 N2 1_555 1_555
C1 O1 1_555 1_555
N2 O3 1_555 1_555
O4 N2 1_555 1_555
N3 C1 1_555 1_555
C2 C1 1_555 1_555
N4 Pb1 1_555 1_555
C3 N1 1_555 1_555
H1 C3 1_555 1_555
C4 N4 1_555 1_555
C5 C4 1_555 1_555
H2 C5 1_555 1_555
C6 N4 1_555 1_555
H3 C6 1_555 1_555
C7 C5 1_555 1_555
H4 C7 1_555 1_555
C8 C6 1_555 1_555
H5 C8 1_555 1_555
C9 H6 1_555 1_555
C10 C2 1_555 1_555
H7 C10 1_555 1_555
C11 H8 1_555 1_555
C12 C2 1_555 1_555
H9 C12 1_555 1_555
N5 C9 1_555 1_555
Pb1C N1C 1_555 1_555
Pb1C_2 N5 1_555 1_555
N1C N3C 1_555 1_555
O1C Pb1C 1_555 1_555
C1C O1C 1_555 1_555
N3C C1C 1_555 1_555
C2C C1C 1_555 1_555
N4C Pb1C 1_555 1_555
C3C N1C 1_555 1_555
H1C C3C 1_555 1_555
C4C N4C 1_555 1_555
C5C C4C 1_555 1_555
H2C C5C 1_555 1_555
C6C N4C 1_555 1_555
H3C C6C 1_555 1_555
C7C C5C 1_555 1_555
H4C C7C 1_555 1_555
C8C C6C 1_555 1_555
H5C C8C 1_555 1_555
C9C H6C 1_555 1_555
C10C C2C 1_555 1_555
H7C C10C 1_555 1_555
C11C H8C 1_555 1_555
C12C C2C 1_555 1_555
H9C C12C 1_555 1_555
N5C Pb1 1_555 1_555
N5_2 Pb1C 1_555 1_555
C3 C4 1_555 1_555
C7 C8 1_555 1_555
C9 C10 1_555 1_555
C11 C12 1_555 1_555
C11 N5 1_555 1_555
C3C C4C 1_555 1_555
C7C C8C 1_555 1_555
C9C C10C 1_555 1_555
C9C N5C 1_555 1_555
C11C C12C 1_555 1_555
C11C N5C 1_555 1_555

#END
