
#######################################################################
#
#                 Cambridge Crystallographic Data Centre
#                                CCDC 
#
#######################################################################
#
# If this CIF has been generated from an entry in the Cambridge 
# Structural Database, then it will include bibliographic, chemical, 
# crystal, experimental, refinement or atomic coordinate data resulting 
# from the CCDC's data processing and validation procedures.
#
#######################################################################

data_KOCWAB
_symmetry_cell_setting           monoclinic
_symmetry_space_group_name_H-M   'P 21/c'
_symmetry_Int_Tables_number      14
_space_group_name_Hall           '-P 2ybc'
loop_
_symmetry_equiv_pos_site_id
_symmetry_equiv_pos_as_xyz
1 x,y,z
2 -x,1/2+y,1/2-z
3 -x,-y,-z
4 x,1/2-y,1/2+z
_cell_length_a                   10.5178(6)
_cell_length_b                   9.2009(5)
_cell_length_c                   10.3660(6)
_cell_angle_alpha                90
_cell_angle_beta                 98.0730(10)
_cell_angle_gamma                90
_cell_volume                     993.21
loop_
_atom_site_label
_atom_site_type_symbol
_atom_site_fract_x
_atom_site_fract_y
_atom_site_fract_z
Mn1 Mn 0.493872(15) 0.704916(17) 0.606744(15)
O1 O 0.36833(8) 0.82495(9) 0.71651(8)
O2 O 0.40454(8) 0.72491(9) 0.91413(8)
N1 N -0.36704(9) 1.00813(10) 0.90926(9)
N2 N -0.35545(9) 0.90719(10) 1.00190(9)
O3 O 0.62837(8) 0.88649(10) 0.59553(9)
O4 O 0.59922(8) 0.62616(10) 0.78921(8)
N3 N -0.26191(9) 1.00899(11) 0.85024(9)
N4 N -0.24224(9) 0.84054(11) 1.00488(9)
C1 C 0.19615(10) 0.81690(11) 0.84242(10)
C2 C 0.12052(10) 0.91690(12) 0.76433(10)
C3 C -0.00443(10) 0.94501(12) 0.78587(11)
C4 C -0.05679(10) 0.87086(12) 0.88388(10)
C5 C 0.01824(10) 0.76939(12) 0.96093(11)
C6 C 0.14405(10) 0.74400(12) 0.94114(11)
C7 C 0.33194(10) 0.78736(11) 0.82319(10)
C8 C -0.18614(10) 0.90492(11) 0.91130(10)
H1 H 0.1566(16) 0.9653(19) 0.6977(17)
H2 H -0.0536(17) 1.014(2) 0.7361(18)
H3 H -0.0173(18) 0.722(2) 1.0261(18)
H4 H 0.1967(17) 0.678(2) 0.9958(18)
H5 H 0.649(2) 0.943(3) 0.649(2)
H6 H 0.695(2) 0.848(3) 0.576(2)
H7 H 0.614(2) 0.537(2) 0.791(2)
H8 H 0.556(2) 0.646(2) 0.845(2)
Mn1C Mn 0.493872(15) 0.795084(17) 1.106744(15)
Mn1A Mn -0.493872(15) 1.204916(17) 0.893256(15)
Mn1C_2 Mn -0.506128(15) 0.795084(17) 1.106744(15)
O2C O 0.40454(8) 0.77509(9) 0.41413(8)
N1A N 0.36704(9) 0.50813(10) 0.59074(9)
N2C N 0.64455(9) 0.59281(10) 0.50190(9)
loop_
_geom_bond_atom_site_label_1
_geom_bond_atom_site_label_2
_geom_bond_site_symmetry_1
_geom_bond_site_symmetry_2
Mn1 O1 1_555 1_555
O1 C7 1_555 1_555
O2 C7 1_555 1_555
N1 N2 1_555 1_555
N2 N4 1_555 1_555
O3 Mn1 1_555 1_555
O4 Mn1 1_555 1_555
N3 N1 1_555 1_555
N4 C8 1_555 1_555
C1 C2 1_555 1_555
C2 C3 1_555 1_555
C3 C4 1_555 1_555
C4 C5 1_555 1_555
C5 C6 1_555 1_555
C6 C1 1_555 1_555
C7 C1 1_555 1_555
C8 N3 1_555 1_555
H1 C2 1_555 1_555
H2 C3 1_555 1_555
H3 C5 1_555 1_555
H4 C6 1_555 1_555
H5 O3 1_555 1_555
H6 O3 1_555 1_555
H7 O4 1_555 1_555
H8 O4 1_555 1_555
Mn1C O2 1_555 1_555
Mn1A N1 1_555 1_555
Mn1C_2 N2 1_555 1_555
O2C Mn1 1_555 1_555
N1A Mn1 1_555 1_555
N2C Mn1 1_555 1_555
C4 C8 1_555 1_555

#END
