
#######################################################################
#
#                 Cambridge Crystallographic Data Centre
#                                CCDC 
#
#######################################################################
#
# If this CIF has been generated from an entry in the Cambridge 
# Structural Database, then it will include bibliographic, chemical, 
# crystal, experimental, refinement or atomic coordinate data resulting 
# from the CCDC's data processing and validation procedures.
#
#######################################################################

data_KODGUH
_symmetry_cell_setting           orthorhombic
_symmetry_space_group_name_H-M   'P 21 21 21'
_symmetry_Int_Tables_number      19
_space_group_name_Hall           'P 2ac 2ab'
loop_
_symmetry_equiv_pos_site_id
_symmetry_equiv_pos_as_xyz
1 x,y,z
2 1/2-x,-y,1/2+z
3 -x,1/2+y,1/2-z
4 1/2+x,1/2-y,-z
_cell_length_a                   8.8885(14)
_cell_length_b                   13.849(2)
_cell_length_c                   17.692(3)
_cell_angle_alpha                90
_cell_angle_beta                 90
_cell_angle_gamma                90
_cell_volume                     2177.83
loop_
_atom_site_label
_atom_site_type_symbol
_atom_site_fract_x
_atom_site_fract_y
_atom_site_fract_z
Cu1 Cu 0.70156(5) 0.38417(3) 0.43739(2)
Cl1 Cl 0.64848(11) 0.40765(6) 0.31678(5)
N1 N 0.8271(3) 0.26397(18) 0.43431(16)
C1 C 0.8844(4) 0.2358(2) 0.5006(2)
O1 O 0.9695(3) 0.16547(17) 0.51295(14)
N2 N 0.7647(3) 0.3783(2) 0.54191(14)
C2 C 0.6478(4) 0.5303(2) 0.5510(2)
C3 C 0.8438(4) 0.3019(2) 0.5646(2)
N3 N 0.6395(3) 0.52306(19) 0.47873(16)
C4 C 0.8852(5) 0.2917(3) 0.6395(2)
H1 H 0.9405 0.2386 0.6557
C5 C 0.8414(4) 0.3636(2) 0.6898(2)
H2 H 0.8672 0.3585 0.7406
C6 C 0.7600(4) 0.4426(3) 0.6652(2)
H3 H 0.7313 0.4909 0.6988
C7 C 0.7222(4) 0.4482(2) 0.59002(18)
C8 C 0.5965(5) 0.6129(3) 0.5982(2)
H4 H 0.5515 0.6611 0.5663
H5 H 0.6810 0.6403 0.6242
H6 H 0.5238 0.5907 0.6343
C9 C 0.8653(4) 0.2094(3) 0.3688(2)
C10 C 0.9684(5) 0.2496(3) 0.3179(2)
C11 C 1.0016(5) 0.1998(3) 0.2521(2)
H7 H 1.0675 0.2269 0.2172
C12 C 0.9384(5) 0.1105(4) 0.2374(2)
H8 H 0.9625 0.0773 0.1934
C13 C 0.8400(5) 0.0718(3) 0.2885(2)
H9 H 0.7975 0.0118 0.2786
C14 C 0.8016(5) 0.1195(3) 0.35498(19)
C15 C 0.6966(5) 0.0725(3) 0.4102(2)
H10 H 0.6812 0.1147 0.4526
H11 H 0.7393 0.0128 0.4274
H12 H 0.6019 0.0600 0.3860
C16 C 1.0437(5) 0.3449(3) 0.3341(2)
H13 H 1.1103 0.3610 0.2933
H14 H 1.1002 0.3402 0.3802
H15 H 0.9686 0.3943 0.3392
C17 C 0.5982(4) 0.6077(2) 0.43443(19)
C18 C 0.4582(4) 0.6150(3) 0.40110(19)
C19 C 0.4267(5) 0.6974(3) 0.3585(2)
H16 H 0.3333 0.7039 0.3354
C20 C 0.5324(5) 0.7693(3) 0.3504(2)
H17 H 0.5094 0.8246 0.3229
C21 C 0.6723(5) 0.7593(3) 0.3829(2)
H18 H 0.7430 0.8082 0.3769
C22 C 0.7098(5) 0.6778(2) 0.4245(2)
C23 C 0.8666(5) 0.6635(3) 0.4554(2)
H19 H 0.8716 0.6031 0.4820
H20 H 0.8905 0.7153 0.4895
H21 H 0.9375 0.6630 0.4145
C24 C 0.3417(5) 0.5375(3) 0.4092(3)
H22 H 0.3808 0.4863 0.4401
H23 H 0.3165 0.5125 0.3602
H24 H 0.2533 0.5639 0.4325
Cu1C Cu 1.20156(5) 0.11583(3) 0.56261(2)
O1C O 0.4695(3) 0.33453(17) 0.48705(14)
loop_
_geom_bond_atom_site_label_1
_geom_bond_atom_site_label_2
_geom_bond_site_symmetry_1
_geom_bond_site_symmetry_2
Cu1 Cl1 1_555 1_555
N1 Cu1 1_555 1_555
C1 N1 1_555 1_555
O1 C1 1_555 1_555
N2 Cu1 1_555 1_555
C2 N3 1_555 1_555
C3 C1 1_555 1_555
N3 Cu1 1_555 1_555
C4 C3 1_555 1_555
H1 C4 1_555 1_555
C5 C4 1_555 1_555
H2 C5 1_555 1_555
C6 C5 1_555 1_555
H3 C6 1_555 1_555
C7 N2 1_555 1_555
C8 C2 1_555 1_555
H4 C8 1_555 1_555
H5 C8 1_555 1_555
H6 C8 1_555 1_555
C9 N1 1_555 1_555
C10 C9 1_555 1_555
C11 C10 1_555 1_555
H7 C11 1_555 1_555
C12 C11 1_555 1_555
H8 C12 1_555 1_555
C13 C12 1_555 1_555
H9 C13 1_555 1_555
C14 C9 1_555 1_555
C15 C14 1_555 1_555
H10 C15 1_555 1_555
H11 C15 1_555 1_555
H12 C15 1_555 1_555
C16 C10 1_555 1_555
H13 C16 1_555 1_555
H14 C16 1_555 1_555
H15 C16 1_555 1_555
C17 N3 1_555 1_555
C18 C17 1_555 1_555
C19 C18 1_555 1_555
H16 C19 1_555 1_555
C20 C19 1_555 1_555
H17 C20 1_555 1_555
C21 C20 1_555 1_555
H18 C21 1_555 1_555
C22 C17 1_555 1_555
C23 C22 1_555 1_555
H19 C23 1_555 1_555
H20 C23 1_555 1_555
H21 C23 1_555 1_555
C24 C18 1_555 1_555
H22 C24 1_555 1_555
H23 C24 1_555 1_555
H24 C24 1_555 1_555
Cu1C O1 1_555 1_555
O1C Cu1 1_555 1_555
N2 C3 1_555 1_555
C2 C7 1_555 1_555
C6 C7 1_555 1_555
C13 C14 1_555 1_555
C21 C22 1_555 1_555

#END
