
#######################################################################
#
#                 Cambridge Crystallographic Data Centre
#                                CCDC 
#
#######################################################################
#
# If this CIF has been generated from an entry in the Cambridge 
# Structural Database, then it will include bibliographic, chemical, 
# crystal, experimental, refinement or atomic coordinate data resulting 
# from the CCDC's data processing and validation procedures.
#
#######################################################################

data_KODKIZ
_symmetry_cell_setting           triclinic
_symmetry_space_group_name_H-M   'P -1'
_symmetry_Int_Tables_number      2
_space_group_name_Hall           '-P 1'
loop_
_symmetry_equiv_pos_site_id
_symmetry_equiv_pos_as_xyz
1 x,y,z
2 -x,-y,-z
_cell_length_a                   7.5240(15)
_cell_length_b                   9.3200(19)
_cell_length_c                   9.7440(19)
_cell_angle_alpha                89.01(3)
_cell_angle_beta                 71.16(3)
_cell_angle_gamma                74.82(3)
_cell_volume                     622.418
loop_
_atom_site_label
_atom_site_type_symbol
_atom_site_fract_x
_atom_site_fract_y
_atom_site_fract_z
Co1 Co 0.44926(4) 0.17400(3) 0.51141(3)
Co2 Co 0.5000 0.5000 0.5000
Co3 Co 0.5000 0.5000 0.0000
C1 C 0.1805(3) 0.3348(2) -0.0045(2)
C2 C 0.1260(3) 0.3204(2) 0.1573(2)
H1 H 0.0421 0.4187 0.2092
C3 C 0.0315(3) 0.1959(2) 0.2262(2)
H2 H 0.0606 0.1101 0.1548
C4 C 0.2926(3) 0.2609(2) 0.2220(2)
H3 H 0.4099 0.1949 0.1476
C5 C 0.1678(3) 0.1668(2) 0.3210(2)
H4 H 0.0961 0.2209 0.4191
C6 C 0.2769(3) 0.0107(2) 0.3373(2)
C7 C 0.3481(3) 0.3786(2) 0.2894(2)
C8 C -0.1804(3) 0.2451(2) 0.3195(2)
O1 O 0.3844(3) 0.48459(19) 0.21746(17)
O2 O 0.3532(2) 0.36904(16) 0.41924(16)
O3 O 0.0809(3) 0.2957(2) -0.07020(18)
O4 O 0.3225(2) 0.38848(19) -0.06631(17)
O5 O 0.2413(3) -0.10041(19) 0.2969(2)
O6 O 0.4110(2) 0.00493(16) 0.39512(17)
O7 O -0.2477(2) 0.38173(18) 0.35996(19)
O8 O -0.2715(2) 0.14708(17) 0.35756(18)
O9 O 0.4926(2) 0.32601(16) 0.64691(16)
O10 O 0.1822(3) 0.1745(2) 0.66023(18)
O11 O 0.2917(3) 0.7121(2) 0.0276(2)
Co1A Co -0.44926(4) 0.82600(3) 0.48859(3)
C1A C -0.1805(3) 0.6652(2) 1.0045(2)
C2A C -0.1260(3) 0.6796(2) 0.8427(2)
H1A H -0.0421 0.5813 0.7908
C3A C -0.0315(3) 0.8041(2) 0.7738(2)
H2A H -0.0606 0.8899 0.8452
C4A C -0.2926(3) 0.7391(2) 0.7780(2)
H3A H -0.4099 0.8051 0.8524
C5A C -0.1678(3) 0.8332(2) 0.6790(2)
H4A H -0.0961 0.7791 0.5809
C6A C -0.2769(3) 0.9893(2) 0.6627(2)
C7A C -0.3481(3) 0.6214(2) 0.7106(2)
C8A C 0.1804(3) 0.7549(2) 0.6805(2)
O1A O -0.3844(3) 0.51541(19) 0.78254(17)
O2A O -0.3532(2) 0.63096(16) 0.58076(16)
O3A O -0.0809(3) 0.7043(2) 1.07020(18)
O4A O -0.3225(2) 0.61152(19) 1.06631(17)
O5A O -0.2413(3) 1.10041(19) 0.7031(2)
O6A O -0.4110(2) 0.99507(16) 0.60488(17)
O7A O 0.2477(2) 0.61827(18) 0.64004(19)
O8A O 0.2715(2) 0.85292(17) 0.64244(18)
O9A O -0.4926(2) 0.67399(16) 0.35309(16)
O10A O -0.1822(3) 0.8255(2) 0.33977(18)
O11A O 0.7083(3) 0.2879(2) -0.0276(2)
Co1_2 Co -0.55074(4) 0.17400(3) 0.51141(3)
Co1_3 Co -0.55074(4) 1.17400(3) 0.51141(3)
Co1A_2 Co 0.55074(4) -0.17400(3) 0.48859(3)
Co1A_3 Co 0.55074(4) 0.82600(3) 0.48859(3)
Co2_2 Co -0.5000 0.5000 0.5000
Co3_2 Co -0.5000 0.5000 1.0000
O1A_2 O 0.6156(3) 0.51541(19) -0.21746(17)
O2A_2 O 0.6468(2) 0.63096(16) 0.58076(16)
O4A_2 O 0.6775(2) 0.61152(19) 0.06631(17)
O6_2 O -0.5890(2) 1.00493(16) 0.39512(17)
O6A_2 O 0.5890(2) -0.00493(16) 0.60488(17)
O7_2 O 0.7523(2) 0.38173(18) 0.35996(19)
O8_2 O 0.7285(2) 0.14708(17) 0.35756(18)
O8A_2 O -0.7285(2) 0.85292(17) 0.64244(18)
O9A_2 O 0.5074(2) 0.67399(16) 0.35309(16)
loop_
_geom_bond_atom_site_label_1
_geom_bond_atom_site_label_2
_geom_bond_site_symmetry_1
_geom_bond_site_symmetry_2
Co1 O2 1_555 1_555
Co2 O2 1_555 1_555
Co3 O1 1_555 1_555
C1 C2 1_555 1_555
C2 H1 1_555 1_555
C3 C2 1_555 1_555
H2 C3 1_555 1_555
C4 C2 1_555 1_555
H3 C4 1_555 1_555
C5 C3 1_555 1_555
H4 C5 1_555 1_555
C6 C5 1_555 1_555
C7 C4 1_555 1_555
C8 C3 1_555 1_555
O1 C7 1_555 1_555
O2 C7 1_555 1_555
O3 C1 1_555 1_555
O4 Co3 1_555 1_555
O5 C6 1_555 1_555
O6 Co1 1_555 1_555
O7 C8 1_555 1_555
O8 C8 1_555 1_555
O9 Co1 1_555 1_555
O10 Co1 1_555 1_555
O11 Co3 1_555 1_555
Co1A O2A 1_555 1_555
C1A C2A 1_555 1_555
C2A H1A 1_555 1_555
C3A C2A 1_555 1_555
H2A C3A 1_555 1_555
C4A C2A 1_555 1_555
H3A C4A 1_555 1_555
C5A C3A 1_555 1_555
H4A C5A 1_555 1_555
C6A C5A 1_555 1_555
C7A C4A 1_555 1_555
C8A C3A 1_555 1_555
O1A C7A 1_555 1_555
O2A C7A 1_555 1_555
O3A C1A 1_555 1_555
O4A C1A 1_555 1_555
O5A C6A 1_555 1_555
O6A Co1A 1_555 1_555
O7A Co2 1_555 1_555
O8A C8A 1_555 1_555
O9A Co1A 1_555 1_555
O10A Co1A 1_555 1_555
O11A Co3 1_555 1_555
Co1_2 O8 1_555 1_555
Co1_3 O6A 1_555 1_555
Co1A_2 O6 1_555 1_555
Co1A_3 O8A 1_555 1_555
Co2_2 O7 1_555 1_555
Co3_2 O1A 1_555 1_555
O1A_2 Co3 1_555 1_555
O2A_2 Co2 1_555 1_555
O4A_2 Co3 1_555 1_555
O6_2 Co1A 1_555 1_555
O6A_2 Co1 1_555 1_555
O7_2 Co2 1_555 1_555
O8_2 Co1 1_555 1_555
O8A_2 Co1A 1_555 1_555
O9A_2 Co2 1_555 1_555
Co2 O9 1_555 1_555
C1 O4 1_555 1_555
C4 C5 1_555 1_555
C6 O6 1_555 1_555
C4A C5A 1_555 1_555
C6A O6A 1_555 1_555
C8A O7A 1_555 1_555
O2A Co2_2 1_555 1_555
O4A Co3_2 1_555 1_555
O9A Co2_2 1_555 1_555
Co1_3 O6_2 1_555 1_555
Co1A_2 O6A_2 1_555 1_555
Co1A_3 O2A_2 1_555 1_555
Co1A_3 O9A_2 1_555 1_555

#END
