
#######################################################################
#
#                 Cambridge Crystallographic Data Centre
#                                CCDC 
#
#######################################################################
#
# If this CIF has been generated from an entry in the Cambridge 
# Structural Database, then it will include bibliographic, chemical, 
# crystal, experimental, refinement or atomic coordinate data resulting 
# from the CCDC's data processing and validation procedures.
#
#######################################################################

data_KODLEW
_symmetry_cell_setting           orthorhombic
_symmetry_space_group_name_H-M   'F d d 2'
_symmetry_Int_Tables_number      43
_space_group_name_Hall           'F 2 -2d'
loop_
_symmetry_equiv_pos_site_id
_symmetry_equiv_pos_as_xyz
1 x,y,z
2 -x,-y,z
3 1/4+x,1/4-y,1/4+z
4 1/4-x,1/4+y,1/4+z
5 x,1/2+y,1/2+z
6 -x,1/2-y,1/2+z
7 1/4+x,3/4-y,3/4+z
8 1/4-x,3/4+y,3/4+z
9 1/2+x,y,1/2+z
10 1/2-x,-y,1/2+z
11 3/4+x,1/4-y,3/4+z
12 3/4-x,1/4+y,3/4+z
13 1/2+x,1/2+y,z
14 1/2-x,1/2-y,z
15 3/4+x,3/4-y,1/4+z
16 3/4-x,3/4+y,1/4+z
_cell_length_a                   26.3979(18)
_cell_length_b                   27.717(3)
_cell_length_c                   15.3681(18)
_cell_angle_alpha                90
_cell_angle_beta                 90
_cell_angle_gamma                90
_cell_volume                     11244.4
loop_
_atom_site_label
_atom_site_type_symbol
_atom_site_fract_x
_atom_site_fract_y
_atom_site_fract_z
Cu1 Cu 0.04374(3) -0.70984(3) 0.60885(5)
Cu2 Cu 0.04290(3) -0.70464(3) 0.81917(5)
O1 O 0.0002(2) -0.74940(19) 0.7164(4)
H1 H -0.0350(8) -0.757(3) 0.725(6)
H2 H 0.013(3) -0.7790(18) 0.741(6)
N1 N 0.0546(2) -0.7715(2) 0.5301(4)
C1 C 0.0896(3) -0.8056(3) 0.5321(5)
H3 H 0.1122 -0.8072 0.5784
C2 C 0.0926(2) -0.8395(2) 0.4647(5)
H4 H 0.1176 -0.8631 0.4649
C3 C 0.0585(3) -0.8370(3) 0.3994(5)
H5 H 0.0609 -0.8584 0.3529
N2 N 0.0208(2) -0.8040(2) 0.4006(4)
C4 C 0.0214(2) -0.7727(2) 0.4647(5)
C5 C -0.0185(2) -0.7361(2) 0.4652(5)
N3 N -0.0181(3) -0.7046(2) 0.5305(4)
C6 C -0.0558(3) -0.6728(3) 0.5327(6)
H6 H -0.0586 -0.6517 0.5795
C7 C -0.0906(3) -0.6711(3) 0.4663(6)
H7 H -0.1148 -0.6467 0.4650
C8 C -0.0896(3) -0.7051(3) 0.4024(6)
H8 H -0.1142 -0.7052 0.3591
N4 N -0.0527(2) -0.7386(2) 0.4024(4)
N5 N 0.1077(2) -0.7181(2) 0.6707(4)
C9 C 0.1548(3) -0.7185(3) 0.6415(6)
H9 H 0.1640 -0.7207 0.5832
C10 C 0.1877(3) -0.7152(3) 0.7089(7)
H10 H 0.2229 -0.7153 0.7059
C11 C 0.1582(3) -0.7116(3) 0.7835(5)
C12 C 0.1740(4) -0.7072(4) 0.8744(6)
H11 H 0.2103 -0.7053 0.8773
H12 H 0.1626 -0.7349 0.9064
H13 H 0.1595 -0.6786 0.8992
N6 N 0.1091(2) -0.7146(2) 0.7588(4)
N7 N 0.0328(2) -0.6462(2) 0.6650(4)
C13 C 0.0322(3) -0.6001(3) 0.6379(5)
C14 C 0.0346(5) -0.5869(4) 0.5449(7)
H14 H 0.0369 -0.6157 0.5104
H15 H 0.0639 -0.5672 0.5347
H16 H 0.0046 -0.5694 0.5291
C15 C 0.0285(3) -0.5702(2) 0.7089(7)
H17 H 0.0261 -0.5367 0.7084
C16 C 0.0290(3) -0.5994(3) 0.7806(5)
H18 H 0.0286 -0.5890 0.8381
N8 N 0.0303(3) -0.6460(2) 0.7543(4)
Cu2E Cu -0.04290(3) -0.79536(3) 0.31917(5)
N2E N -0.0208(2) -0.6960(2) 0.9006(4)
N4E N 0.0527(2) -0.7614(2) 0.9024(4)
Cl2 Cl 0.0811(4) -0.6383(3) 1.0383(6)
O6 O 0.0732(7) -0.6329(6) 0.9475(6)
O7 O 0.0571(5) -0.6014(5) 1.0870(11)
O8 O 0.1340(4) -0.6377(5) 1.0559(8)
O9 O 0.0620(6) -0.6839(4) 1.0652(9)
Cl3 Cl 0.1196(3) -0.6858(2) 0.3887(4)
O10 O 0.1307(8) -0.6711(7) 0.3032(8)
O11 O 0.1467(6) -0.6486(5) 0.4401(10)
O12 O 0.0687(5) -0.6837(5) 0.4090(14)
O13 O 0.1372(6) -0.7315(4) 0.4043(11)
O18 O -0.0995(6) -0.7305(6) 0.7156(12)
O19 O 0.0238(5) -0.8428(5) 0.7203(11)
Cl1? Cl 0.0721(8) -0.6306(7) 1.0328(12)
O2? O 0.0753(10) -0.6637(10) 0.9600(19)
O3? O 0.1032(16) -0.6557(14) 1.098(2)
O4? O 0.0963(13) -0.5900(9) 1.001(2)
O5? O 0.0239(11) -0.6249(15) 1.063(3)
Cl4? Cl 0.1103(10) -0.6740(9) 0.3823(17)
O14? O 0.0639(14) -0.6986(16) 0.365(3)
O15? O 0.1155(15) -0.6794(15) 0.4755(18)
O16? O 0.1038(18) -0.6262(10) 0.354(3)
O17? O 0.1496(15) -0.6931(16) 0.334(3)
loop_
_geom_bond_atom_site_label_1
_geom_bond_atom_site_label_2
_geom_bond_site_symmetry_1
_geom_bond_site_symmetry_2
Cu1 O1 1_555 1_555
Cu2 O1 1_555 1_555
O1 H1 1_555 1_555
H2 O1 1_555 1_555
N1 Cu1 1_555 1_555
C1 N1 1_555 1_555
H3 C1 1_555 1_555
C2 C1 1_555 1_555
H4 C2 1_555 1_555
C3 C2 1_555 1_555
H5 C3 1_555 1_555
N2 C3 1_555 1_555
C4 N1 1_555 1_555
C5 C4 1_555 1_555
N3 Cu1 1_555 1_555
C6 N3 1_555 1_555
H6 C6 1_555 1_555
C7 C6 1_555 1_555
H7 C7 1_555 1_555
C8 C7 1_555 1_555
H8 C8 1_555 1_555
N4 C5 1_555 1_555
N5 Cu1 1_555 1_555
C9 N5 1_555 1_555
H9 C9 1_555 1_555
C10 C9 1_555 1_555
H10 C10 1_555 1_555
C11 C10 1_555 1_555
C12 C11 1_555 1_555
H11 C12 1_555 1_555
H12 C12 1_555 1_555
H13 C12 1_555 1_555
N6 Cu2 1_555 1_555
N7 Cu1 1_555 1_555
C13 N7 1_555 1_555
C14 C13 1_555 1_555
H14 C14 1_555 1_555
H15 C14 1_555 1_555
H16 C14 1_555 1_555
C15 C13 1_555 1_555
H17 C15 1_555 1_555
C16 C15 1_555 1_555
H18 C16 1_555 1_555
N8 Cu2 1_555 1_555
Cl2 O6 1_555 1_555
O7 Cl2 1_555 1_555
O8 Cl2 1_555 1_555
O9 Cl2 1_555 1_555
Cl3 O10 1_555 1_555
O11 Cl3 1_555 1_555
O12 Cl3 1_555 1_555
O13 Cl3 1_555 1_555
Cu2E N2 1_555 1_555
N2E Cu2 1_555 1_555
N4E Cu2 1_555 1_555
N2 C4 1_555 1_555
C5 N3 1_555 1_555
C8 N4 1_555 1_555
N4 Cu2E 1_555 1_555
N5 N6 1_555 1_555
C11 N6 1_555 1_555
N7 N8 1_555 1_555
C16 N8 1_555 1_555

#END
