
#######################################################################
#
#                 Cambridge Crystallographic Data Centre
#                                CCDC 
#
#######################################################################
#
# If this CIF has been generated from an entry in the Cambridge 
# Structural Database, then it will include bibliographic, chemical, 
# crystal, experimental, refinement or atomic coordinate data resulting 
# from the CCDC's data processing and validation procedures.
#
#######################################################################

data_KODSUT
_symmetry_cell_setting           tetragonal
_symmetry_space_group_name_H-M   'I 41/a c d'
_symmetry_Int_Tables_number      142
_space_group_name_Hall           '-I 4bd 2c'
loop_
_symmetry_equiv_pos_site_id
_symmetry_equiv_pos_as_xyz
1 x,y,z
2 1/2-x,-y,1/2+z
3 1/4-y,3/4+x,1/4+z
4 1/4+y,1/4-x,3/4+z
5 1/2-x,y,-z
6 x,-y,1/2-z
7 1/4+y,3/4+x,3/4-z
8 1/4-y,1/4-x,1/4-z
9 1/2+x,1/2+y,1/2+z
10 -x,1/2-y,z
11 3/4-y,1/4+x,3/4+z
12 3/4+y,3/4-x,1/4+z
13 -x,1/2+y,1/2-z
14 1/2+x,1/2-y,-z
15 3/4+y,1/4+x,1/4-z
16 3/4-y,3/4-x,3/4-z
17 -x,-y,-z
18 1/2+x,y,1/2-z
19 3/4+y,1/4-x,3/4-z
20 3/4-y,3/4+x,1/4-z
21 1/2+x,-y,z
22 -x,y,1/2+z
23 3/4-y,1/4-x,1/4+z
24 3/4+y,3/4+x,3/4+z
25 1/2-x,1/2-y,1/2-z
26 x,1/2+y,-z
27 1/4+y,3/4-x,1/4-z
28 1/4-y,1/4+x,3/4-z
29 x,1/2-y,1/2+z
30 1/2-x,1/2+y,z
31 1/4-y,3/4-x,3/4+z
32 1/4+y,1/4+x,1/4+z
_cell_length_a                   15.9325(6)
_cell_length_b                   15.9325(6)
_cell_length_c                   25.3047(10)
_cell_angle_alpha                90
_cell_angle_beta                 90
_cell_angle_gamma                90
_cell_volume                     6423.46
loop_
_atom_site_label
_atom_site_type_symbol
_atom_site_fract_x
_atom_site_fract_y
_atom_site_fract_z
Ag1 Ag 1.068078(14) 0.181922(14) 0.1250
N1 N 0.7500 0.07426(19) 0.0000
H1 H 0.7516 0.1104 0.0253
N2 N 1.01455(14) 0.13960(14) 0.05063(10)
C1 C 0.82689(16) 0.02068(18) 0.00055(14)
H2 H 0.8265 -0.0155 -0.0303
H3 H 0.8258 -0.0149 0.0317
C2 C 0.94293(15) 0.09527(17) 0.04803(12)
H4 H 0.9167 0.0798 0.0794
C3 C 0.90655(16) 0.07163(16) 0.00070(12)
C4 C 0.94628(17) 0.09388(19) -0.04562(13)
H5 H 0.9234 0.0787 -0.0780
C5 C 1.02031(18) 0.13889(19) -0.04354(13)
H6 H 1.0482 0.1541 -0.0744
C6 C 1.05179(18) 0.16073(19) 0.00513(15)
H7 H 1.1013 0.1916 0.0065
H1D H 0.7484 0.1104 -0.0253
N2D N 0.48545(14) 0.13960(14) -0.05063(10)
C1D C 0.67311(16) 0.02068(18) -0.00055(14)
H2D H 0.6735 -0.0155 0.0303
H3D H 0.6742 -0.0149 -0.0317
C2D C 0.55707(15) 0.09527(17) -0.04803(12)
H4D H 0.5833 0.0798 -0.0794
C3D C 0.59345(16) 0.07163(16) -0.00070(12)
C4D C 0.55372(17) 0.09388(19) 0.04562(13)
H5D H 0.5766 0.0787 0.0780
C5D C 0.47969(18) 0.13889(19) 0.04354(13)
H6D H 0.4518 0.1541 0.0744
C6D C 0.44821(18) 0.16073(19) -0.00513(15)
H7D H 0.3987 0.1916 -0.0065
Ag1C Ag 0.431922(14) 0.181922(14) -0.1250
Ag1I Ag 0.931922(14) 0.318078(14) 0.1250
N2G N 1.11040(14) 0.23545(14) 0.19937(10)
O1 O 0.23760(19) 0.16054(15) 0.08293(12)
O2 O 0.19392(16) 0.28424(16) 0.06854(12)
O3 O 0.32270(17) 0.2635(2) 0.07734(14)
N3 N 0.25216(15) 0.23532(16) 0.07550(10)
O4 O 0.2548(5) -0.0048(5) 0.1250
H8 H 0.2764 0.0457 0.1198
H8G H 0.2043 -0.0264 0.1302
O5? O 0.3161(6) 0.0188(6) 0.1282(4)
H9? H 0.3598 0.0352 0.1425
H10? H 0.2891 0.0557 0.1126
loop_
_geom_bond_atom_site_label_1
_geom_bond_atom_site_label_2
_geom_bond_site_symmetry_1
_geom_bond_site_symmetry_2
Ag1 N2 1_555 1_555
N1 H1 1_555 1_555
N2 C2 1_555 1_555
C1 N1 1_555 1_555
H2 C1 1_555 1_555
H3 C1 1_555 1_555
C2 H4 1_555 1_555
C3 C1 1_555 1_555
C4 C3 1_555 1_555
H5 C4 1_555 1_555
C5 C4 1_555 1_555
H6 C5 1_555 1_555
C6 N2 1_555 1_555
H7 C6 1_555 1_555
O1 N3 1_555 1_555
O2 N3 1_555 1_555
O3 N3 1_555 1_555
O4 H8 1_555 1_555
H1D N1 1_555 1_555
N2D C2D 1_555 1_555
C1D N1 1_555 1_555
H2D C1D 1_555 1_555
H3D C1D 1_555 1_555
C2D H4D 1_555 1_555
C3D C1D 1_555 1_555
C4D C3D 1_555 1_555
H5D C4D 1_555 1_555
C5D C4D 1_555 1_555
H6D C5D 1_555 1_555
C6D N2D 1_555 1_555
H7D C6D 1_555 1_555
Ag1C N2D 1_555 1_555
Ag1I Ag1 1_555 1_555
N2G Ag1 1_555 1_555
H8G O4 1_555 1_555
C2 C3 1_555 1_555
C5 C6 1_555 1_555
C2D C3D 1_555 1_555
C5D C6D 1_555 1_555

#END
