
#######################################################################
#
#                 Cambridge Crystallographic Data Centre
#                                CCDC 
#
#######################################################################
#
# If this CIF has been generated from an entry in the Cambridge 
# Structural Database, then it will include bibliographic, chemical, 
# crystal, experimental, refinement or atomic coordinate data resulting 
# from the CCDC's data processing and validation procedures.
#
#######################################################################

data_KOFLOI
_symmetry_cell_setting           triclinic
_symmetry_space_group_name_H-M   'P -1'
_symmetry_Int_Tables_number      2
_space_group_name_Hall           '-P 1'
loop_
_symmetry_equiv_pos_site_id
_symmetry_equiv_pos_as_xyz
1 x,y,z
2 -x,-y,-z
_cell_length_a                   13.414(7)
_cell_length_b                   13.995(8)
_cell_length_c                   18.686(10)
_cell_angle_alpha                81.429(8)
_cell_angle_beta                 73.640(8)
_cell_angle_gamma                63.948(7)
_cell_volume                     3022.58
loop_
_atom_site_label
_atom_site_type_symbol
_atom_site_fract_x
_atom_site_fract_y
_atom_site_fract_z
Mn1 Mn -0.11127(8) 0.18292(8) 1.01075(6)
Mn2 Mn 0.40635(9) 0.39242(8) 0.45096(6)
N1 N -0.2757(5) 0.2258(5) 0.9752(3)
N2 N -0.2533(4) 0.3128(4) 1.0872(3)
N3 N -0.0786(5) 0.3128(4) 0.9321(3)
N4 N 0.0333(5) 0.2014(5) 1.0397(3)
N5 N 0.2611(5) 0.4270(5) 0.3961(3)
N6 N 0.4853(6) 0.2983(5) 0.3412(3)
N7 N 0.3415(5) 0.2495(5) 0.5096(3)
N8 N 0.5459(6) 0.2584(5) 0.4991(3)
O1 O -0.0292(4) 0.0667(4) 0.9302(3)
O2 O 0.1320(4) -0.0793(4) 0.8971(3)
O3 O -0.0114(5) 0.0735(5) 0.7677(3)
O4 O -0.0356(5) 0.2369(5) 0.7195(3)
O5 O 0.2959(4) 0.4953(4) 0.5373(3)
O6 O 0.2077(6) 0.5944(5) 0.6373(3)
O7 O 0.4779(5) 0.5327(4) 0.5893(3)
O8 O 0.6227(6) 0.4145(5) 0.6356(3)
C1 C -0.2847(7) 0.1850(7) 0.9202(5)
H1 H -0.2189 0.1330 0.8926
C2 C -0.3885(8) 0.2153(8) 0.9001(6)
H2 H -0.3917 0.1852 0.8601
C3 C -0.4855(8) 0.2918(8) 0.9427(6)
H3 H -0.5551 0.3146 0.9303
C4 C -0.4815(7) 0.3354(7) 1.0035(5)
C5 C -0.5777(7) 0.4147(7) 1.0508(6)
H4 H -0.6500 0.4387 1.0422
C6 C -0.5658(7) 0.4547(7) 1.1067(6)
H5 H -0.6303 0.5042 1.1371
C7 C -0.4571(6) 0.4237(6) 1.1209(5)
C8 C -0.4423(7) 0.4652(6) 1.1785(5)
H6 H -0.5052 0.5163 1.2087
C9 C -0.3347(7) 0.4311(6) 1.1910(5)
H7 H -0.3236 0.4586 1.2290
C10 C -0.2430(6) 0.3532(6) 1.1438(4)
H8 H -0.1706 0.3282 1.1525
C11 C -0.3605(6) 0.3471(5) 1.0764(4)
C12 C -0.3730(6) 0.3002(6) 1.0174(4)
C13 C -0.1311(7) 0.3647(6) 0.8787(4)
H9 H -0.1861 0.3466 0.8711
C14 C -0.1088(7) 0.4449(7) 0.8334(5)
H10 H -0.1480 0.4785 0.7965
C15 C -0.0301(8) 0.4736(7) 0.8435(5)
H11 H -0.0158 0.5283 0.8142
C16 C 0.0304(7) 0.4203(6) 0.8987(5)
C17 C 0.1170(9) 0.4424(8) 0.9127(6)
H12 H 0.1339 0.4972 0.8858
C18 C 0.1748(8) 0.3853(8) 0.9640(6)
H13 H 0.2338 0.3992 0.9699
C19 C 0.1482(7) 0.3028(7) 1.0106(5)
C20 C 0.2047(8) 0.2441(9) 1.0627(6)
H14 H 0.2625 0.2575 1.0710
C21 C 0.1778(8) 0.1644(8) 1.1039(5)
H15 H 0.2169 0.1237 1.1396
C22 C 0.0889(7) 0.1468(7) 1.0900(4)
H16 H 0.0692 0.0941 1.1179
C23 C 0.0633(6) 0.2806(6) 0.9993(5)
C24 C 0.0038(6) 0.3389(5) 0.9434(4)
C25 C 0.1514(8) 0.4917(6) 0.4203(4)
H17 H 0.1318 0.5395 0.4569
C26 C 0.0637(8) 0.4919(8) 0.3937(5)
H18 H -0.0116 0.5396 0.4121
C27 C 0.0887(9) 0.4214(8) 0.3400(6)
H19 H 0.0312 0.4177 0.3236
C28 C 0.2021(8) 0.3571(7) 0.3119(5)
C29 C 0.2367(10) 0.2876(8) 0.2510(6)
H20 H 0.1817 0.2836 0.2319
C30 C 0.3499(10) 0.2279(7) 0.2214(5)
H21 H 0.3700 0.1831 0.1827
C31 C 0.4395(8) 0.2311(6) 0.2475(5)
C32 C 0.5546(10) 0.1740(7) 0.2184(5)
H22 H 0.5781 0.1322 0.1774
C33 C 0.6346(8) 0.1769(7) 0.2478(5)
H23 H 0.7122 0.1375 0.2278
C34 C 0.5960(7) 0.2425(6) 0.3106(5)
H24 H 0.6501 0.2463 0.3308
C35 C 0.4056(8) 0.2960(6) 0.3099(4)
C36 C 0.2861(7) 0.3617(6) 0.3401(4)
C37 C 0.2425(7) 0.2450(7) 0.5160(5)
H25 H 0.1880 0.3004 0.4948
C38 C 0.2161(8) 0.1621(8) 0.5525(5)
H26 H 0.1462 0.1616 0.5545
C39 C 0.2938(9) 0.0814(7) 0.5854(5)
H27 H 0.2767 0.0262 0.6111
C40 C 0.3996(8) 0.0824(6) 0.5802(4)
C41 C 0.4846(9) -0.0004(7) 0.6102(5)
H28 H 0.4702 -0.0576 0.6347
C42 C 0.5870(9) 0.0002(6) 0.6045(5)
H29 H 0.6414 -0.0557 0.6254
C43 C 0.6122(8) 0.0889(6) 0.5654(5)
C44 C 0.7159(8) 0.0925(8) 0.5568(6)
H30 H 0.7729 0.0381 0.5765
C45 C 0.7338(9) 0.1773(8) 0.5186(6)
H31 H 0.8043 0.1798 0.5109
C46 C 0.6461(8) 0.2600(7) 0.4914(5)
H32 H 0.6586 0.3181 0.4670
C47 C 0.5274(6) 0.1729(5) 0.5355(4)
C48 C 0.4196(7) 0.1688(6) 0.5425(4)
C49 C 0.0729(6) 0.0210(6) 0.8946(4)
C50 C 0.1361(6) 0.0850(5) 0.8495(4)
C51 C 0.2259(6) 0.0822(6) 0.8743(4)
H33 H 0.2464 0.0387 0.9153
C52 C 0.2849(6) 0.1419(5) 0.8399(4)
H34 H 0.3436 0.1391 0.8585
C53 C 0.2582(6) 0.2077(5) 0.7765(4)
C54 C 0.1685(6) 0.2096(5) 0.7526(4)
H35 H 0.1484 0.2524 0.7113
C55 C 0.1062(6) 0.1493(5) 0.7884(4)
C56 C 0.0116(6) 0.1544(6) 0.7560(4)
C57 C 0.2781(7) 0.5103(6) 0.6044(5)
C58 C 0.3404(6) 0.4180(5) 0.6543(4)
C59 C 0.2787(6) 0.3591(5) 0.6931(4)
H36 H 0.2041 0.3818 0.6890
C60 C 0.3228(6) 0.2688(5) 0.7371(4)
C61 C 0.4365(6) 0.2379(6) 0.7406(4)
H37 H 0.4705 0.1768 0.7683
C62 C 0.4999(7) 0.2946(6) 0.7047(4)
H38 H 0.5742 0.2717 0.7094
C63 C 0.4537(6) 0.3856(6) 0.6614(4)
C64 C 0.5254(8) 0.4481(7) 0.6257(4)
Mn1A Mn 0.11127(8) -0.18292(8) 0.98925(6)
Mn2A Mn 0.59365(9) 0.60758(8) 0.54904(6)
O2A O -0.1320(4) 0.0793(4) 1.1029(3)
O7A O 0.5221(5) 0.4673(4) 0.4107(3)
O9 O 0.0515(5) 0.6813(7) 0.7625(4)
O10 O 0.0435(6) 0.7173(6) 0.5519(4)
O11 O 0.7324(5) 0.3820(7) 0.7513(4)
O12 O 0.8789(8) 0.2390(7) 0.6025(5)
O13 O 0.7976(8) 0.0871(11) 0.7366(6)
O14 O 0.0042(10) 0.0161(11) 0.5705(7)
O15 O 0.1281(9) 0.8920(10) 0.6861(9)
O16 O 0.8982(10) 0.8614(9) 0.6637(9)
O17 O 0.6675(14) 0.0018(11) 0.7777(9)
loop_
_geom_bond_atom_site_label_1
_geom_bond_atom_site_label_2
_geom_bond_site_symmetry_1
_geom_bond_site_symmetry_2
Mn1 N1 1_555 1_555
Mn2 N5 1_555 1_555
N1 C1 1_555 1_555
N2 Mn1 1_555 1_555
N3 Mn1 1_555 1_555
N4 Mn1 1_555 1_555
N5 C25 1_555 1_555
N6 Mn2 1_555 1_555
N7 C37 1_555 1_555
N8 Mn2 1_555 1_555
O1 Mn1 1_555 1_555
O2 C49 1_555 1_555
O3 C56 1_555 1_555
O4 C56 1_555 1_555
O5 Mn2 1_555 1_555
O6 C57 1_555 1_555
O7 C64 1_555 1_555
O8 C64 1_555 1_555
C1 H1 1_555 1_555
C2 C1 1_555 1_555
H2 C2 1_555 1_555
C3 C2 1_555 1_555
H3 C3 1_555 1_555
C4 C3 1_555 1_555
C5 C4 1_555 1_555
H4 C5 1_555 1_555
C6 C5 1_555 1_555
H5 C6 1_555 1_555
C7 C6 1_555 1_555
C8 C7 1_555 1_555
H6 C8 1_555 1_555
C9 C8 1_555 1_555
H7 C9 1_555 1_555
C10 N2 1_555 1_555
H8 C10 1_555 1_555
C11 N2 1_555 1_555
C12 N1 1_555 1_555
C13 N3 1_555 1_555
H9 C13 1_555 1_555
C14 C13 1_555 1_555
H10 C14 1_555 1_555
C15 C14 1_555 1_555
H11 C15 1_555 1_555
C16 C15 1_555 1_555
C17 C16 1_555 1_555
H12 C17 1_555 1_555
C18 C17 1_555 1_555
H13 C18 1_555 1_555
C19 C18 1_555 1_555
C20 C19 1_555 1_555
H14 C20 1_555 1_555
C21 C20 1_555 1_555
H15 C21 1_555 1_555
C22 N4 1_555 1_555
H16 C22 1_555 1_555
C23 N4 1_555 1_555
C24 N3 1_555 1_555
C25 H17 1_555 1_555
C26 C25 1_555 1_555
H18 C26 1_555 1_555
C27 C26 1_555 1_555
H19 C27 1_555 1_555
C28 C27 1_555 1_555
C29 C28 1_555 1_555
H20 C29 1_555 1_555
C30 C29 1_555 1_555
H21 C30 1_555 1_555
C31 C30 1_555 1_555
C32 C31 1_555 1_555
H22 C32 1_555 1_555
C33 C32 1_555 1_555
H23 C33 1_555 1_555
C34 N6 1_555 1_555
H24 C34 1_555 1_555
C35 N6 1_555 1_555
C36 N5 1_555 1_555
C37 H25 1_555 1_555
C38 C37 1_555 1_555
H26 C38 1_555 1_555
C39 C38 1_555 1_555
H27 C39 1_555 1_555
C40 C39 1_555 1_555
C41 C40 1_555 1_555
H28 C41 1_555 1_555
C42 C41 1_555 1_555
H29 C42 1_555 1_555
C43 C42 1_555 1_555
C44 C43 1_555 1_555
H30 C44 1_555 1_555
C45 C44 1_555 1_555
H31 C45 1_555 1_555
C46 N8 1_555 1_555
H32 C46 1_555 1_555
C47 N8 1_555 1_555
C48 N7 1_555 1_555
C49 O1 1_555 1_555
C50 C49 1_555 1_555
C51 C50 1_555 1_555
H33 C51 1_555 1_555
C52 C51 1_555 1_555
H34 C52 1_555 1_555
C53 C52 1_555 1_555
C54 C53 1_555 1_555
H35 C54 1_555 1_555
C55 C50 1_555 1_555
C56 C55 1_555 1_555
C57 O5 1_555 1_555
C58 C57 1_555 1_555
C59 C58 1_555 1_555
H36 C59 1_555 1_555
C60 C53 1_555 1_555
C61 C60 1_555 1_555
H37 C61 1_555 1_555
C62 C61 1_555 1_555
H38 C62 1_555 1_555
C63 C58 1_555 1_555
C64 C63 1_555 1_555
Mn1A O2 1_555 1_555
Mn2A O7 1_555 1_555
O2A Mn1 1_555 1_555
O7A Mn2 1_555 1_555
C4 C12 1_555 1_555
C7 C11 1_555 1_555
C9 C10 1_555 1_555
C11 C12 1_555 1_555
C16 C24 1_555 1_555
C19 C23 1_555 1_555
C21 C22 1_555 1_555
C23 C24 1_555 1_555
C28 C36 1_555 1_555
C31 C35 1_555 1_555
C33 C34 1_555 1_555
C35 C36 1_555 1_555
C40 C48 1_555 1_555
C43 C47 1_555 1_555
C45 C46 1_555 1_555
C47 C48 1_555 1_555
C54 C55 1_555 1_555
C59 C60 1_555 1_555
C62 C63 1_555 1_555

#END
