
#######################################################################
#
#                 Cambridge Crystallographic Data Centre
#                                CCDC 
#
#######################################################################
#
# If this CIF has been generated from an entry in the Cambridge 
# Structural Database, then it will include bibliographic, chemical, 
# crystal, experimental, refinement or atomic coordinate data resulting 
# from the CCDC's data processing and validation procedures.
#
#######################################################################

data_KOFNEZ01
_symmetry_cell_setting           hexagonal
_symmetry_space_group_name_H-M   'P 65 2 2'
_symmetry_Int_Tables_number      179
_space_group_name_Hall           "P 65 2' (0,0,1)"
loop_
_symmetry_equiv_pos_site_id
_symmetry_equiv_pos_as_xyz
1 x,y,z
2 -y,x-y,2/3+z
3 -x+y,-x,1/3+z
4 -x,-y,1/2+z
5 y,-x+y,1/6+z
6 x-y,x,5/6+z
7 y,x,2/3-z
8 x-y,-y,-z
9 -x,-x+y,1/3-z
10 -y,-x,1/6-z
11 -x+y,y,1/2-z
12 x,x-y,5/6-z
_cell_length_a                   12.5870(10)
_cell_length_b                   12.5870(10)
_cell_length_c                   58.893(10)
_cell_angle_alpha                90
_cell_angle_beta                 90
_cell_angle_gamma                120
_cell_volume                     8080.51
loop_
_atom_site_label
_atom_site_type_symbol
_atom_site_fract_x
_atom_site_fract_y
_atom_site_fract_z
Eu1 Eu 0.57213(5) 0.47949(6) -0.003404(11)
Na1 Na 0.3828(4) 0.5886(5) -0.03470(8)
O1 O 0.5816(4) 0.6600(3) -0.01921(9)
O2 O 0.6134(4) 0.8508(4) -0.01638(6)
O3 O 0.6026(4) 0.4030(4) 0.03065(7)
O4 O 0.5443(3) 0.2733(3) 0.0625(3)
O5 O 0.4198(3) 0.4095(3) -0.03210(4)
O6 O 0.3272(3) 0.2969(4) -0.06274(3)
O7 O 0.7669(3) 0.4804(3) -0.00312(4)
O8 O 0.9170(3) 0.4669(3) -0.02024(4)
N1 N 0.7146(4) 0.6826(5) 0.01738(6)
N2 N 0.3729(4) 0.2843(3) 0.01475(8)
N3 N 0.5267(4) 0.2790(5) -0.02182(9)
N4 N 0.6962(4) 0.5358(5) -0.04175(9)
C1 C 0.6297(5) 0.7655(6) -0.0095(2)
C2 C 0.7040(5) 0.7813(6) 0.0114(2)
C3 C 0.7561(5) 0.8882(5) 0.0235(2)
H1 H 0.7447 0.9524 0.0189
C4 C 0.8255(6) 0.9027(6) 0.0423(2)
H2 H 0.8609 0.9758 0.0503
C5 C 0.8409(6) 0.8063(6) 0.0489(2)
H3 H 0.8885 0.8122 0.0612
C6 C 0.7801(6) 0.6977(7) 0.0361(2)
H4 H 0.7857 0.6305 0.0409
C7 C 0.5172(6) 0.3115(3) 0.0445(3)
C8 C 0.3940(5) 0.2515(6) 0.0352(3)
C9 C 0.3056(5) 0.1651(6) 0.0482(3)
H5 H 0.3246 0.1419 0.0615
C10 C 0.1810(3) 0.1101(3) 0.0405(3)
H6 H 0.1167 0.0528 0.0492
C11 C 0.1588(3) 0.1436(3) 0.0203(3)
H7 H 0.0789 0.1098 0.0150
C12 C 0.2620(4) 0.2329(4) 0.0072(2)
H8 H 0.2479 0.2536 -0.0069
C13 C 0.3952(5) 0.3228(5) -0.0454(2)
C14 C 0.4500(5) 0.2444(6) -0.0394(2)
C15 C 0.4212(7) 0.1329(7) -0.0511(3)
H9 H 0.3694 0.1111 -0.0633
C16 C 0.4643(7) 0.0592(6) -0.0453(2)
H10 H 0.4436 -0.0119 -0.0533
C17 C 0.5443(6) 0.0939(6) -0.0262(2)
H11 H 0.5751 0.0448 -0.0211
C18 C 0.5734(6) 0.2046(5) -0.0159(2)
H12 H 0.6286 0.2301 -0.0042
C19 C 0.8268(6) 0.4855(6) -0.0198(3)
C20 C 0.7975(6) 0.5212(6) -0.0420(2)
C21 C 0.8643(6) 0.5380(6) -0.0614(2)
H13 H 0.9310 0.5252 -0.0614
C22 C 0.8319(6) 0.5738(6) -0.0809(2)
H14 H 0.8792 0.5865 -0.0935
C23 C 0.7238(6) 0.5928(6) -0.0822(3)
H15 H 0.6982 0.6136 -0.0952
C24 C 0.6638(6) 0.5748(6) -0.0608(2)
H16 H 0.5991 0.5905 -0.0598
O9 O 0.3608(4) 0.5279(4) -0.07145(7)
O10 O 0.5008(4) 0.7679(4) -0.05245(7)
H17 H 0.291(4) 0.497(4) -0.072(7)
H18 H 0.381(4) 0.478(4) -0.075(7)
H19 H 0.470(4) 0.805(4) -0.053(7)
H20 H 0.570(4) 0.817(4) -0.052(2)
Eu1G Eu 1.09264(8) 0.52051(6) 0.003404(11)
Na1G Na 0.7942(6) 0.4114(5) 0.03470(8)
O3G O 0.1996(6) 0.5970(4) -0.03065(7)
O7G O 0.2865(4) 0.5196(3) 0.00312(4)
O8G O 0.4501(4) 0.5331(3) 0.02024(4)
loop_
_geom_bond_atom_site_label_1
_geom_bond_atom_site_label_2
_geom_bond_site_symmetry_1
_geom_bond_site_symmetry_2
Eu1 O1 1_555 1_555
Na1 O1 1_555 1_555
O1 C1 1_555 1_555
O2 C1 1_555 1_555
O3 Eu1 1_555 1_555
O4 C7 1_555 1_555
O5 Eu1 1_555 1_555
O6 C13 1_555 1_555
O7 Eu1 1_555 1_555
O8 C19 1_555 1_555
N1 Eu1 1_555 1_555
N2 Eu1 1_555 1_555
N3 Eu1 1_555 1_555
N4 Eu1 1_555 1_555
C1 C2 1_555 1_555
C2 N1 1_555 1_555
C3 C2 1_555 1_555
H1 C3 1_555 1_555
C4 C3 1_555 1_555
H2 C4 1_555 1_555
C5 C4 1_555 1_555
H3 C5 1_555 1_555
C6 N1 1_555 1_555
H4 C6 1_555 1_555
C7 O3 1_555 1_555
C8 N2 1_555 1_555
C9 C8 1_555 1_555
H5 C9 1_555 1_555
C10 C9 1_555 1_555
H6 C10 1_555 1_555
C11 C10 1_555 1_555
H7 C11 1_555 1_555
C12 N2 1_555 1_555
H8 C12 1_555 1_555
C13 O5 1_555 1_555
C14 N3 1_555 1_555
C15 C14 1_555 1_555
H9 C15 1_555 1_555
C16 C15 1_555 1_555
H10 C16 1_555 1_555
C17 C16 1_555 1_555
H11 C17 1_555 1_555
C18 N3 1_555 1_555
H12 C18 1_555 1_555
C19 O7 1_555 1_555
C20 N4 1_555 1_555
C21 C20 1_555 1_555
H13 C21 1_555 1_555
C22 C21 1_555 1_555
H14 C22 1_555 1_555
C23 C22 1_555 1_555
H15 C23 1_555 1_555
C24 N4 1_555 1_555
H16 C24 1_555 1_555
O9 Na1 1_555 1_555
O10 Na1 1_555 1_555
H17 O9 1_555 1_555
H18 O9 1_555 1_555
H19 O10 1_555 1_555
H20 O10 1_555 1_555
Eu1G O8 1_555 1_555
Na1G O3 1_555 1_555
O3G Na1 1_555 1_555
O7G Na1 1_555 1_555
O8G Eu1 1_555 1_555
Na1 O5 1_555 1_555
O7 Na1G 1_555 1_555
C5 C6 1_555 1_555
C7 C8 1_555 1_555
C11 C12 1_555 1_555
C13 C14 1_555 1_555
C17 C18 1_555 1_555
C19 C20 1_555 1_555
C23 C24 1_555 1_555

#END
