
#######################################################################
#
#                 Cambridge Crystallographic Data Centre
#                                CCDC 
#
#######################################################################
#
# If this CIF has been generated from an entry in the Cambridge 
# Structural Database, then it will include bibliographic, chemical, 
# crystal, experimental, refinement or atomic coordinate data resulting 
# from the CCDC's data processing and validation procedures.
#
#######################################################################

data_KOFPIG
_symmetry_cell_setting           monoclinic
_symmetry_space_group_name_H-M   'P 21/c'
_symmetry_Int_Tables_number      14
_space_group_name_Hall           '-P 2ybc'
loop_
_symmetry_equiv_pos_site_id
_symmetry_equiv_pos_as_xyz
1 x,y,z
2 -x,1/2+y,1/2-z
3 -x,-y,-z
4 x,1/2-y,1/2+z
_cell_length_a                   4.9679(11)
_cell_length_b                   14.917(3)
_cell_length_c                   8.3588(18)
_cell_angle_alpha                90
_cell_angle_beta                 96.199(4)
_cell_angle_gamma                90
_cell_volume                     615.817
loop_
_atom_site_label
_atom_site_type_symbol
_atom_site_fract_x
_atom_site_fract_y
_atom_site_fract_z
Cu1 Cu 0.0000 0.5000 0.5000
Cl1 Cl 0.78463(17) 0.59758(6) 0.97681(10)
O1 O 0.7110(4) 0.45221(15) 0.7345(3)
O2 O 0.3084(4) 0.43226(13) 0.5956(2)
N1 N 0.1658(5) 0.59707(16) 0.6354(3)
C1 C 0.4195(6) 0.7162(2) 0.8483(4)
H1 H 0.5063 0.7568 0.9208
C2 C 0.1969(7) 0.7425(2) 0.7470(4)
H2 H 0.1332 0.8011 0.7482
C3 C 0.0720(6) 0.6801(2) 0.6444(4)
H3 H -0.0836 0.6964 0.5789
C4 C 0.5137(6) 0.6294(2) 0.8422(3)
C5 C 0.3881(6) 0.56997(19) 0.7291(3)
C6 C 0.4817(6) 0.47701(19) 0.6885(4)
Cl1B Cl -0.78463(17) 0.40242(6) 0.02319(10)
O1B O -0.7110(4) 0.54779(15) 0.2655(3)
O2B O -0.3084(4) 0.56774(13) 0.4044(2)
N1B N -0.1658(5) 0.40293(16) 0.3646(3)
C1B C -0.4195(6) 0.2838(2) 0.1517(4)
H1B H -0.5063 0.2432 0.0792
C2B C -0.1969(7) 0.2575(2) 0.2530(4)
H2B H -0.1332 0.1989 0.2518
C3B C -0.0720(6) 0.3199(2) 0.3556(4)
H3B H 0.0836 0.3036 0.4211
C4B C -0.5137(6) 0.3706(2) 0.1578(3)
C5B C -0.3881(6) 0.43003(19) 0.2709(3)
C6B C -0.4817(6) 0.52299(19) 0.3115(4)
Cu1_2 Cu -1.0000 0.5000 0.5000
Cu1_3 Cu 1.0000 0.5000 0.5000
O1_2 O -0.2890(4) 0.45221(15) 0.7345(3)
O1B_2 O 0.2890(4) 0.54779(15) 0.2655(3)
loop_
_geom_bond_atom_site_label_1
_geom_bond_atom_site_label_2
_geom_bond_site_symmetry_1
_geom_bond_site_symmetry_2
Cu1 O2 1_555 1_555
Cl1 C4 1_555 1_555
O1 C6 1_555 1_555
O2 C6 1_555 1_555
N1 Cu1 1_555 1_555
C1 H1 1_555 1_555
C2 C1 1_555 1_555
H2 C2 1_555 1_555
C3 N1 1_555 1_555
H3 C3 1_555 1_555
C4 C1 1_555 1_555
C5 N1 1_555 1_555
C6 C5 1_555 1_555
Cl1B C4B 1_555 1_555
O1B C6B 1_555 1_555
O2B Cu1 1_555 1_555
N1B Cu1 1_555 1_555
C1B H1B 1_555 1_555
C2B C1B 1_555 1_555
H2B C2B 1_555 1_555
C3B N1B 1_555 1_555
H3B C3B 1_555 1_555
C4B C1B 1_555 1_555
C5B N1B 1_555 1_555
C6B O2B 1_555 1_555
Cu1_2 O1B 1_555 1_555
Cu1_3 O1 1_555 1_555
O1_2 Cu1 1_555 1_555
O1B_2 Cu1 1_555 1_555
C2 C3 1_555 1_555
C4 C5 1_555 1_555
C2B C3B 1_555 1_555
C4B C5B 1_555 1_555
C5B C6B 1_555 1_555

#END
