
#######################################################################
#
#                 Cambridge Crystallographic Data Centre
#                                CCDC 
#
#######################################################################
#
# If this CIF has been generated from an entry in the Cambridge 
# Structural Database, then it will include bibliographic, chemical, 
# crystal, experimental, refinement or atomic coordinate data resulting 
# from the CCDC's data processing and validation procedures.
#
#######################################################################

data_KOFQOM
_symmetry_cell_setting           monoclinic
_symmetry_space_group_name_H-M   'P 21/c'
_symmetry_Int_Tables_number      14
_space_group_name_Hall           '-P 2ybc'
loop_
_symmetry_equiv_pos_site_id
_symmetry_equiv_pos_as_xyz
1 x,y,z
2 -x,1/2+y,1/2-z
3 -x,-y,-z
4 x,1/2-y,1/2+z
_cell_length_a                   7.3486(12)
_cell_length_b                   6.5655(10)
_cell_length_c                   19.207(3)
_cell_angle_alpha                90
_cell_angle_beta                 91.819(4)
_cell_angle_gamma                90
_cell_volume                     926.218
loop_
_atom_site_label
_atom_site_type_symbol
_atom_site_fract_x
_atom_site_fract_y
_atom_site_fract_z
Pb1 Pb 0.28280(3) 0.21575(4) 0.282931(12)
Cl1 Cl -0.0100(2) 0.4141(3) 0.19808(10)
O1 O 0.4845(6) 0.4222(8) 0.2072(2)
O2 O 0.5417(7) 0.5271(8) 0.1006(3)
O3 O 0.2151(10) 0.5212(10) 0.3693(3)
H1 H 0.229(10) 0.514(12) 0.4118(8)
H2 H 0.167(11) 0.629(7) 0.358(5)
N1 N 0.3146(7) 0.0837(8) 0.1569(3)
N2 N 0.2784(8) 0.0196(9) 0.0153(3)
C1 C 0.3788(10) 0.2174(10) 0.1117(4)
C2 C 0.3596(10) 0.1850(10) 0.0419(4)
H3 H 0.4047 0.2819 0.0116
C3 C 0.2177(9) -0.1168(11) 0.0596(4)
C4 C 0.2367(9) -0.0829(11) 0.1318(4)
H4 H 0.1935 -0.1799 0.1625
C5 C 0.4751(9) 0.4046(10) 0.1406(4)
C6 C 0.1298(12) -0.3052(11) 0.0313(5)
H5 H 0.0207 -0.2696 0.0052
H6 H 0.0998 -0.3937 0.0690
H7 H 0.2121 -0.3737 0.0013
Pb1A Pb -0.28280(3) 0.71575(4) 0.217069(12)
Pb1A_2 Pb 0.71720(3) 0.71575(4) 0.217069(12)
Cl1A Cl 0.0100(2) -0.0859(3) 0.30192(10)
O1A O 0.5155(6) -0.0778(8) 0.2928(2)
O2A O 0.4583(7) 0.0271(8) 0.3994(3)
loop_
_geom_bond_atom_site_label_1
_geom_bond_atom_site_label_2
_geom_bond_site_symmetry_1
_geom_bond_site_symmetry_2
Pb1 Cl1 1_555 1_555
Cl1 Pb1A 1_555 1_555
O1 Pb1 1_555 1_555
O2 C5 1_555 1_555
O3 Pb1 1_555 1_555
H1 O3 1_555 1_555
H2 O3 1_555 1_555
N1 Pb1 1_555 1_555
N2 C2 1_555 1_555
C1 N1 1_555 1_555
C2 C1 1_555 1_555
H3 C2 1_555 1_555
C3 N2 1_555 1_555
C4 N1 1_555 1_555
H4 C4 1_555 1_555
C5 O1 1_555 1_555
C6 C3 1_555 1_555
H5 C6 1_555 1_555
H6 C6 1_555 1_555
H7 C6 1_555 1_555
Pb1A_2 O1 1_555 1_555
Cl1A Pb1 1_555 1_555
O1A Pb1 1_555 1_555
O2A Pb1 1_555 1_555
O2 Pb1A_2 1_555 1_555
C1 C5 1_555 1_555
C3 C4 1_555 1_555

#END
