
#######################################################################
#
#                 Cambridge Crystallographic Data Centre
#                                CCDC 
#
#######################################################################
#
# If this CIF has been generated from an entry in the Cambridge 
# Structural Database, then it will include bibliographic, chemical, 
# crystal, experimental, refinement or atomic coordinate data resulting 
# from the CCDC's data processing and validation procedures.
#
#######################################################################

data_KOFQIH
_symmetry_cell_setting           orthorhombic
_symmetry_space_group_name_H-M   'P b c n'
_symmetry_Int_Tables_number      60
_space_group_name_Hall           '-P 2n 2ab'
loop_
_symmetry_equiv_pos_site_id
_symmetry_equiv_pos_as_xyz
1 x,y,z
2 1/2-x,1/2-y,1/2+z
3 1/2+x,1/2-y,-z
4 -x,y,1/2-z
5 -x,-y,-z
6 1/2+x,1/2+y,1/2-z
7 1/2-x,1/2+y,z
8 x,-y,1/2+z
_cell_length_a                   19.1490(8)
_cell_length_b                   9.714(4)
_cell_length_c                   18.5891(9)
_cell_angle_alpha                90
_cell_angle_beta                 90
_cell_angle_gamma                90
_cell_volume                     3457.82
loop_
_atom_site_label
_atom_site_type_symbol
_atom_site_fract_x
_atom_site_fract_y
_atom_site_fract_z
F1 F -0.37145(14) 0.7729(3) -0.05588(13)
F2 F -0.38642(14) 0.6623(3) -0.18657(13)
F3 F -0.16131(13) 0.4722(3) -0.16927(13)
F4 F -0.14599(14) 0.5865(3) -0.03917(13)
O1 O -0.28217(15) 0.5729(2) -0.30820(12)
O2 O -0.29060(16) 0.3694(3) -0.25506(13)
O3 O -0.26643(15) 0.6843(3) 0.08212(12)
O4 O -0.22116(19) 0.8668(3) 0.02811(14)
O5 O -0.12791(19) 0.6236(4) -0.3309(2)
O6 O -0.4073(2) 0.4612(4) -0.4053(3)
N1 N -0.0701(2) 0.4284(5) -0.3571(4)
N2 N -0.5100(3) 0.3697(7) -0.3789(5)
C1 C -0.28326(17) 0.4956(3) -0.25463(16)
C2 C -0.27425(19) 0.5630(3) -0.18184(16)
C3 C -0.32584(19) 0.6420(4) -0.15083(17)
C4 C -0.3180(2) 0.6996(4) -0.08415(18)
C5 C -0.2579(2) 0.6844(3) -0.04455(17)
C6 C -0.20635(19) 0.6061(4) -0.07545(18)
C7 C -0.21442(19) 0.5466(4) -0.14213(18)
C8 C -0.2477(2) 0.7519(4) 0.02849(16)
C9 C -0.1212(3) 0.5015(6) -0.3436(3)
H1 H -0.1632 0.4534 -0.3430
C10 C -0.4480(5) 0.4135(10) -0.3722(6)
H2 H -0.4324 0.4018 -0.3252
C11 C -0.5487(7) 0.4045(17) -0.4297(9)
H3 H -0.5953 0.4180 -0.4122
H4 H -0.5487 0.3336 -0.4657
H5 H -0.5318 0.4888 -0.4503
C12 C -0.5554(8) 0.3037(16) -0.3209(10)
H6 H -0.6023 0.3381 -0.3247
H7 H -0.5370 0.3259 -0.2743
H8 H -0.5556 0.2056 -0.3271
C13 C -0.0197(8) 0.4971(14) -0.4153(7)
H9 H 0.0277 0.4711 -0.4055
H10 H -0.0240 0.5954 -0.4129
H11 H -0.0326 0.4660 -0.4625
C14 C -0.0679(4) 0.2851(6) -0.3697(4)
H12 H -0.0218 0.2511 -0.3594
H13 H -0.0791 0.2670 -0.4191
H14 H -0.1011 0.2399 -0.3391
Li1 Li -0.2150(4) 0.7253(6) -0.3252(3)
Li2 Li -0.3089(3) 0.4977(6) -0.4040(3)
O2F O -0.20940(16) 0.8694(3) -0.25506(13)
O3A O -0.23357(15) 0.8157(3) -0.41788(12)
O3G O -0.26643(15) 0.3157(3) -0.41788(12)
O4A O -0.27884(19) 0.6332(3) -0.47189(14)
Li1A Li -0.2850(4) 0.7747(6) 0.1748(3)
Li1F Li -0.2850(4) 0.2253(6) -0.3252(3)
Li2A Li -0.1911(3) 1.0023(6) 0.0960(3)
Li2G Li -0.3089(3) 0.5023(6) 0.0960(3)
loop_
_geom_bond_atom_site_label_1
_geom_bond_atom_site_label_2
_geom_bond_site_symmetry_1
_geom_bond_site_symmetry_2
F1 C4 1_555 1_555
F2 C3 1_555 1_555
F3 C7 1_555 1_555
F4 C6 1_555 1_555
O1 C1 1_555 1_555
O2 C1 1_555 1_555
O3 C8 1_555 1_555
O4 C8 1_555 1_555
O5 C9 1_555 1_555
O6 C10 1_555 1_555
N1 C9 1_555 1_555
N2 C10 1_555 1_555
C1 C2 1_555 1_555
C2 C3 1_555 1_555
C3 C4 1_555 1_555
C4 C5 1_555 1_555
C5 C6 1_555 1_555
C6 C7 1_555 1_555
C7 C2 1_555 1_555
C8 C5 1_555 1_555
C9 H1 1_555 1_555
C10 H2 1_555 1_555
C11 N2 1_555 1_555
H3 C11 1_555 1_555
H4 C11 1_555 1_555
H5 C11 1_555 1_555
C12 N2 1_555 1_555
H6 C12 1_555 1_555
H7 C12 1_555 1_555
H8 C12 1_555 1_555
C13 N1 1_555 1_555
H9 C13 1_555 1_555
H10 C13 1_555 1_555
H11 C13 1_555 1_555
C14 N1 1_555 1_555
H12 C14 1_555 1_555
H13 C14 1_555 1_555
H14 C14 1_555 1_555
Li1 O1 1_555 1_555
Li2 O1 1_555 1_555
O2F Li1 1_555 1_555
O3A Li1 1_555 1_555
O3G Li2 1_555 1_555
O4A Li2 1_555 1_555
Li1A O3 1_555 1_555
Li1F O2 1_555 1_555
Li2A O4 1_555 1_555
Li2G O3 1_555 1_555
O5 Li1 1_555 1_555
O6 Li2 1_555 1_555
O3G Li1F 1_555 1_555

#END
