
#######################################################################
#
#                 Cambridge Crystallographic Data Centre
#                                CCDC 
#
#######################################################################
#
# If this CIF has been generated from an entry in the Cambridge 
# Structural Database, then it will include bibliographic, chemical, 
# crystal, experimental, refinement or atomic coordinate data resulting 
# from the CCDC's data processing and validation procedures.
#
#######################################################################

data_KOFRUT
_symmetry_cell_setting           monoclinic
_symmetry_space_group_name_H-M   'P 21/n'
_symmetry_Int_Tables_number      14
_space_group_name_Hall           '-P 2yn'
loop_
_symmetry_equiv_pos_site_id
_symmetry_equiv_pos_as_xyz
1 x,y,z
2 1/2-x,1/2+y,1/2-z
3 -x,-y,-z
4 1/2+x,1/2-y,1/2+z
_cell_length_a                   11.637(3)
_cell_length_b                   5.5087(14)
_cell_length_c                   13.032(3)
_cell_angle_alpha                90
_cell_angle_beta                 104.624(4)
_cell_angle_gamma                90
_cell_volume                     808.349
loop_
_atom_site_label
_atom_site_type_symbol
_atom_site_fract_x
_atom_site_fract_y
_atom_site_fract_z
Cd1 Cd -0.08242(3) -0.73867(5) -0.09226(2)
N1 N -0.0422(3) -0.8462(6) -0.2489(3)
O1 O 0.0438(3) -1.1108(5) -0.0799(2)
C1 C 0.0280(4) -1.0301(8) -0.2604(3)
O2 O 0.1465(3) -1.3453(6) -0.1651(3)
C2 C 0.0475(4) -1.0946(8) -0.3556(3)
H1 H 0.0981 -1.2229 -0.3596
O3 O -0.1164(3) -0.4024(6) 0.0095(3)
O4 O -0.1750(3) -0.4581(5) -0.2266(2)
C3 C -0.0088(4) -0.9673(8) -0.4469(3)
C4 C -0.0821(4) -0.7785(7) -0.4344(3)
H2 H -0.1211 -0.6879 -0.4931
O5 O -0.2559(3) -0.4601(6) -0.4016(2)
C5 C -0.0980(4) -0.7232(7) -0.3361(3)
C6 C 0.0782(4) -1.1751(8) -0.1596(4)
C7 C -0.1828(4) -0.5305(8) -0.3187(3)
H3 H -0.154(5) -0.305(8) -0.010(4)
H4 H -0.137(4) -0.500(8) 0.059(4)
Cd1B Cd 0.08242(3) -1.26133(5) -0.90774(2)
Cd1B_2 Cd 0.08242(3) -1.26133(5) 0.09226(2)
Cd1B_3 Cd 0.08242(3) -0.26133(5) 0.09226(2)
Cd1A Cd -0.41758(3) -0.23867(5) -0.40774(2)
Cd1C Cd 0.41758(3) -1.76133(5) -0.59226(2)
Cd1_2 Cd -0.08242(3) -0.73867(5) -1.09226(2)
N1B N 0.0422(3) -1.1538(6) -0.7511(3)
O1B O -0.0438(3) -0.8892(5) -0.9201(2)
O1B_2 O -0.0438(3) -0.8892(5) 0.0799(2)
O1_2 O 0.0438(3) -1.1108(5) -1.0799(2)
C1B C -0.0280(4) -0.9699(8) -0.7396(3)
O2B O -0.1465(3) -0.6547(6) -0.8349(3)
C2B C -0.0475(4) -0.9054(8) -0.6444(3)
H1B H -0.0981 -0.7771 -0.6404
O3B O 0.1164(3) -0.5976(6) -0.0095(3)
O3_2 O -0.1164(3) -1.4024(6) -0.9905(3)
O3B_2 O 0.1164(3) -1.5976(6) -1.0095(3)
O4B O 0.1750(3) -1.5419(5) -0.7734(2)
C3B C 0.0088(4) -1.0327(8) -0.5531(3)
C4B C 0.0821(4) -1.2215(7) -0.5656(3)
H2B H 0.1211 -1.3121 -0.5069
O5B O 0.2559(3) -1.5399(6) -0.5984(2)
O5A O -0.2441(3) -0.9601(6) -0.0984(2)
O5C O 0.2441(3) -1.0399(6) -0.9016(2)
C5B C 0.0980(4) -1.2768(7) -0.6639(3)
C6B C -0.0782(4) -0.8249(8) -0.8404(4)
C7B C 0.1828(4) -1.4695(8) -0.6813(3)
H3B H 0.154(5) -0.695(8) 0.010(4)
H3_2 H -0.154(5) -1.305(8) -1.010(4)
H3B_2 H 0.154(5) -1.695(8) -0.990(4)
H4B H 0.137(4) -0.500(8) -0.059(4)
H4_2 H -0.137(4) -1.500(8) -0.941(4)
H4B_2 H 0.137(4) -1.500(8) -1.059(4)
loop_
_geom_bond_atom_site_label_1
_geom_bond_atom_site_label_2
_geom_bond_site_symmetry_1
_geom_bond_site_symmetry_2
Cd1 N1 1_555 1_555
N1 C1 1_555 1_555
O1 Cd1 1_555 1_555
C1 C2 1_555 1_555
O2 C6 1_555 1_555
C2 H1 1_555 1_555
O3 Cd1 1_555 1_555
O4 Cd1 1_555 1_555
C3 C2 1_555 1_555
C4 C3 1_555 1_555
H2 C4 1_555 1_555
O5 C7 1_555 1_555
C5 N1 1_555 1_555
C6 O1 1_555 1_555
C7 O4 1_555 1_555
H3 O3 1_555 1_555
H4 O3 1_555 1_555
Cd1B N1B 1_555 1_555
Cd1B_2 O1 1_555 1_555
Cd1B_3 O3 1_555 1_555
Cd1A O5 1_555 1_555
Cd1C O5B 1_555 1_555
Cd1_2 O1B 1_555 1_555
N1B C1B 1_555 1_555
O1B Cd1B 1_555 1_555
O1B_2 Cd1 1_555 1_555
O1_2 Cd1B 1_555 1_555
C1B C2B 1_555 1_555
O2B C6B 1_555 1_555
C2B H1B 1_555 1_555
O3B Cd1 1_555 1_555
O3_2 Cd1B 1_555 1_555
O3B_2 Cd1B 1_555 1_555
O4B Cd1B 1_555 1_555
C3B C3 1_555 1_555
C4B C3B 1_555 1_555
H2B C4B 1_555 1_555
O5B C7B 1_555 1_555
O5A Cd1 1_555 1_555
O5C Cd1B 1_555 1_555
C5B N1B 1_555 1_555
C6B O1B 1_555 1_555
C7B O4B 1_555 1_555
H3B O3B 1_555 1_555
H3_2 O3_2 1_555 1_555
H3B_2 O3B_2 1_555 1_555
H4B O3B 1_555 1_555
H4_2 O3_2 1_555 1_555
H4B_2 O3B_2 1_555 1_555
C1 C6 1_555 1_555
C4 C5 1_555 1_555
C5 C7 1_555 1_555
Cd1B_2 O1B_2 1_555 1_555
Cd1B_3 O3B 1_555 1_555
Cd1_2 O1_2 1_555 1_555
C1B C6B 1_555 1_555
C2B C3B 1_555 1_555
C4B C5B 1_555 1_555
C5B C7B 1_555 1_555

#END
