
#######################################################################
#
#                 Cambridge Crystallographic Data Centre
#                                CCDC 
#
#######################################################################
#
# If this CIF has been generated from an entry in the Cambridge 
# Structural Database, then it will include bibliographic, chemical, 
# crystal, experimental, refinement or atomic coordinate data resulting 
# from the CCDC's data processing and validation procedures.
#
#######################################################################

data_KOFRON
_symmetry_cell_setting           monoclinic
_symmetry_space_group_name_H-M   'P 21/c'
_symmetry_Int_Tables_number      14
_space_group_name_Hall           '-P 2ybc'
loop_
_symmetry_equiv_pos_site_id
_symmetry_equiv_pos_as_xyz
1 x,y,z
2 -x,1/2+y,1/2-z
3 -x,-y,-z
4 x,1/2-y,1/2+z
_cell_length_a                   7.1274(8)
_cell_length_b                   18.0919(19)
_cell_length_c                   6.3711(7)
_cell_angle_alpha                90
_cell_angle_beta                 107.121(2)
_cell_angle_gamma                90
_cell_volume                     785.135
loop_
_atom_site_label
_atom_site_type_symbol
_atom_site_fract_x
_atom_site_fract_y
_atom_site_fract_z
Cu1 Cu 0.09783(5) 0.307890(19) 0.71726(6)
O1 O 0.3234(3) 0.24320(12) 0.7931(3)
H1 H 0.285(7) 0.2068(18) 0.857(7)
H2 H 0.434(4) 0.2579(19) 0.877(5)
N1 N -0.1226(3) 0.37110(13) 0.6288(4)
C1 C -0.1403(4) 0.41566(15) 0.4595(5)
O2 O -0.3247(3) 0.30013(12) 1.0233(4)
O3 O -0.0396(3) 0.28099(11) 0.9513(3)
O4 O 0.2903(4) 0.39866(14) 0.9803(4)
H3 H 0.377(6) 0.372(2) 1.075(6)
H4 H 0.209(6) 0.412(3) 1.053(7)
C2 C -0.2910(4) 0.46615(16) 0.3997(5)
H5 H -0.3053 0.4964 0.2780
C3 C -0.4221(4) 0.47128(15) 0.5243(5)
O5 O 0.0178(3) 0.43890(12) 0.1882(4)
O6 O 0.1606(3) 0.36227(11) 0.4631(3)
C4 C -0.4033(4) 0.42108(16) 0.6952(5)
H6 H -0.4924 0.4215 0.7764
C5 C -0.2518(4) 0.37109(15) 0.7422(5)
C6 C 0.0236(4) 0.40604(15) 0.3559(5)
C7 C -0.2063(4) 0.31246(15) 0.9210(5)
Cu1B Cu -1.09783(5) 0.692110(19) 0.28274(6)
Cu1C Cu 0.09783(5) 0.192110(19) 1.21726(6)
Cu1A Cu -1.09783(5) 0.807890(19) -0.21726(6)
O1B O -1.3234(3) 0.75680(12) 0.2069(3)
H1B H -1.285(7) 0.7932(18) 0.143(7)
H2B H -1.434(4) 0.7421(19) 0.123(5)
N1B N -0.8774(3) 0.62890(13) 0.3712(4)
C1B C -0.8597(4) 0.58434(15) 0.5405(5)
O2B O -0.6753(3) 0.69987(12) -0.0233(4)
O3B O -0.9604(3) 0.71901(11) 0.0487(3)
O3C O -0.0396(3) 0.21901(11) 0.4513(3)
O3A O -0.9604(3) 0.78099(11) 0.5487(3)
O4B O -1.2903(4) 0.60134(14) 0.0197(4)
H3B H -1.377(6) 0.628(2) -0.075(6)
H4B H -1.209(6) 0.588(3) -0.053(7)
C2B C -0.7090(4) 0.53385(16) 0.6003(5)
H5B H -0.6947 0.5036 0.7220
C3B C -0.5779(4) 0.52872(15) 0.4757(5)
O5B O -1.0178(3) 0.56110(12) 0.8118(4)
O6B O -1.1606(3) 0.63773(11) 0.5369(3)
C4B C -0.5967(4) 0.57892(16) 0.3048(5)
H6B H -0.5076 0.5785 0.2236
C5B C -0.7482(4) 0.62891(15) 0.2578(5)
C6B C -1.0236(4) 0.59396(15) 0.6441(5)
C7B C -0.7937(4) 0.68754(15) 0.0790(5)
loop_
_geom_bond_atom_site_label_1
_geom_bond_atom_site_label_2
_geom_bond_site_symmetry_1
_geom_bond_site_symmetry_2
Cu1 O1 1_555 1_555
O1 H1 1_555 1_555
H2 O1 1_555 1_555
N1 Cu1 1_555 1_555
C1 N1 1_555 1_555
O2 C7 1_555 1_555
O3 Cu1 1_555 1_555
O4 Cu1 1_555 1_555
H3 O4 1_555 1_555
H4 O4 1_555 1_555
C2 C1 1_555 1_555
H5 C2 1_555 1_555
C3 C2 1_555 1_555
O5 C6 1_555 1_555
O6 Cu1 1_555 1_555
C4 C3 1_555 1_555
H6 C4 1_555 1_555
C5 N1 1_555 1_555
C6 C1 1_555 1_555
C7 O3 1_555 1_555
Cu1B O1B 1_555 1_555
Cu1C O3 1_555 1_555
Cu1A O3B 1_555 1_555
O1B H1B 1_555 1_555
H2B O1B 1_555 1_555
N1B Cu1B 1_555 1_555
C1B N1B 1_555 1_555
O2B C7B 1_555 1_555
O3B Cu1B 1_555 1_555
O3C Cu1 1_555 1_555
O3A Cu1B 1_555 1_555
O4B Cu1B 1_555 1_555
H3B O4B 1_555 1_555
H4B O4B 1_555 1_555
C2B C1B 1_555 1_555
H5B C2B 1_555 1_555
C3B C3 1_555 1_555
O5B C6B 1_555 1_555
O6B Cu1B 1_555 1_555
C4B C3B 1_555 1_555
H6B C4B 1_555 1_555
C5B N1B 1_555 1_555
C6B C1B 1_555 1_555
C7B O3B 1_555 1_555
O6 C6 1_555 1_555
C4 C5 1_555 1_555
C5 C7 1_555 1_555
C2B C3B 1_555 1_555
O6B C6B 1_555 1_555
C4B C5B 1_555 1_555
C5B C7B 1_555 1_555

#END
