
#######################################################################
#
#                 Cambridge Crystallographic Data Centre
#                                CCDC 
#
#######################################################################
#
# If this CIF has been generated from an entry in the Cambridge 
# Structural Database, then it will include bibliographic, chemical, 
# crystal, experimental, refinement or atomic coordinate data resulting 
# from the CCDC's data processing and validation procedures.
#
#######################################################################

data_KOFRON01
_symmetry_cell_setting           monoclinic
_symmetry_space_group_name_H-M   'P 21/c'
_symmetry_Int_Tables_number      14
_space_group_name_Hall           '-P 2ybc'
loop_
_symmetry_equiv_pos_site_id
_symmetry_equiv_pos_as_xyz
1 x,y,z
2 -x,1/2+y,1/2-z
3 -x,-y,-z
4 x,1/2-y,1/2+z
_cell_length_a                   7.1533(14)
_cell_length_b                   18.168(3)
_cell_length_c                   6.3974(12)
_cell_angle_alpha                90
_cell_angle_beta                 107.124(2)
_cell_angle_gamma                90
_cell_volume                     794.557
loop_
_atom_site_label
_atom_site_type_symbol
_atom_site_fract_x
_atom_site_fract_y
_atom_site_fract_z
Cu1 Cu 0.09740(11) 0.30787(4) 0.21700(13)
N1 N -0.1215(7) 0.3714(3) 0.1285(8)
O1 O -0.3255(7) 0.3003(2) 0.5213(7)
O2 O -0.0398(7) 0.2808(3) 0.4495(7)
O3 O 0.1605(7) 0.3626(3) -0.0373(7)
C1 C -0.2064(9) 0.3131(3) 0.4226(10)
O4 O 0.0180(7) 0.4386(3) -0.3124(7)
O5 O 0.3252(7) 0.2435(2) 0.2964(7)
H1 H 0.3373 0.2250 0.1789
H2 H 0.3002 0.2082 0.3713
C2 C -0.4024(9) 0.4215(3) 0.1959(10)
H3 H -0.4898 0.4226 0.2784
C3 C -0.1390(10) 0.4163(3) -0.0399(10)
C4 C -0.2914(9) 0.4667(4) -0.1009(10)
H4 H -0.3055 0.4970 -0.2216
C5 C -0.2511(9) 0.3712(3) 0.2431(10)
C6 C 0.0237(9) 0.4059(4) -0.1439(10)
C7 C -0.4229(9) 0.4709(4) 0.0221(10)
O6 O 0.2904(7) 0.3984(3) 0.4821(8)
Cu1B Cu -1.09740(11) 0.69213(4) -0.21700(13)
Cu1C Cu 0.09740(11) 0.19213(4) 0.71700(13)
Cu1A Cu -1.09740(11) 0.80787(4) -0.71700(13)
N1B N -0.8785(7) 0.6286(3) -0.1285(8)
O1B O -0.6745(7) 0.6997(2) -0.5213(7)
O2B O -0.9602(7) 0.7192(3) -0.4495(7)
O2C O -0.0398(7) 0.2192(3) -0.0505(7)
O2A O -0.9602(7) 0.7808(3) 0.0505(7)
O3B O -1.1605(7) 0.6374(3) 0.0373(7)
C1B C -0.7936(9) 0.6869(3) -0.4226(10)
O4B O -1.0180(7) 0.5614(3) 0.3124(7)
O5B O -1.3252(7) 0.7565(2) -0.2964(7)
H1B H -1.3373 0.7750 -0.1789
H2B H -1.3002 0.7918 -0.3713
C2B C -0.5976(9) 0.5785(3) -0.1959(10)
H3B H -0.5102 0.5774 -0.2784
C3B C -0.8610(10) 0.5837(3) 0.0399(10)
C4B C -0.7086(9) 0.5333(4) 0.1009(10)
H4B H -0.6945 0.5030 0.2216
C5B C -0.7489(9) 0.6288(3) -0.2431(10)
C6B C -1.0237(9) 0.5941(4) 0.1439(10)
C7B C -0.5771(9) 0.5291(4) -0.0221(10)
O6B O -1.2904(7) 0.6016(3) -0.4821(8)
loop_
_geom_bond_atom_site_label_1
_geom_bond_atom_site_label_2
_geom_bond_site_symmetry_1
_geom_bond_site_symmetry_2
Cu1 N1 1_555 1_555
N1 C3 1_555 1_555
O1 C1 1_555 1_555
O2 Cu1 1_555 1_555
O3 Cu1 1_555 1_555
C1 O2 1_555 1_555
O4 C6 1_555 1_555
O5 Cu1 1_555 1_555
H1 O5 1_555 1_555
H2 O5 1_555 1_555
C2 H3 1_555 1_555
C3 C4 1_555 1_555
C4 H4 1_555 1_555
C5 N1 1_555 1_555
C6 O3 1_555 1_555
C7 C2 1_555 1_555
O6 Cu1 1_555 1_555
Cu1B N1B 1_555 1_555
Cu1C O2 1_555 1_555
Cu1A O2B 1_555 1_555
N1B C3B 1_555 1_555
O1B C1B 1_555 1_555
O2B Cu1B 1_555 1_555
O2C Cu1 1_555 1_555
O2A Cu1B 1_555 1_555
O3B Cu1B 1_555 1_555
C1B O2B 1_555 1_555
O4B C6B 1_555 1_555
O5B Cu1B 1_555 1_555
H1B O5B 1_555 1_555
H2B O5B 1_555 1_555
C2B H3B 1_555 1_555
C3B C4B 1_555 1_555
C4B H4B 1_555 1_555
C5B N1B 1_555 1_555
C6B O3B 1_555 1_555
C7B C7 1_555 1_555
O6B Cu1B 1_555 1_555
C1 C5 1_555 1_555
C2 C5 1_555 1_555
C3 C6 1_555 1_555
C4 C7 1_555 1_555
C1B C5B 1_555 1_555
C2B C5B 1_555 1_555
C2B C7B 1_555 1_555
C3B C6B 1_555 1_555
C4B C7B 1_555 1_555

#END
