
#######################################################################
#
#                 Cambridge Crystallographic Data Centre
#                                CCDC 
#
#######################################################################
#
# If this CIF has been generated from an entry in the Cambridge 
# Structural Database, then it will include bibliographic, chemical, 
# crystal, experimental, refinement or atomic coordinate data resulting 
# from the CCDC's data processing and validation procedures.
#
#######################################################################

data_KOFSII
_symmetry_cell_setting           orthorhombic
_symmetry_space_group_name_H-M   'P c a b'
_symmetry_Int_Tables_number      61
_space_group_name_Hall           '-P 2bc 2ac'
loop_
_symmetry_equiv_pos_site_id
_symmetry_equiv_pos_as_xyz
1 x,y,z
2 1/2+x,-y,1/2-z
3 -x,1/2-y,1/2+z
4 1/2-x,1/2+y,-z
5 -x,-y,-z
6 1/2-x,y,1/2+z
7 x,1/2+y,1/2-z
8 1/2+x,1/2-y,z
_cell_length_a                   9.27184(80)
_cell_length_b                   11.5380(11)
_cell_length_c                   12.9000(11)
_cell_angle_alpha                90
_cell_angle_beta                 90
_cell_angle_gamma                90
_cell_volume                     1380.02
loop_
_atom_site_label
_atom_site_type_symbol
_atom_site_fract_x
_atom_site_fract_y
_atom_site_fract_z
Cu1 Cu 0.75926(47) 0.16600(27) 0.50154(35)
N1 N 0.795340 0.316350 0.466050
C1 C 0.735710 0.412990 0.500410
N2 N 0.794400 0.509950 0.459400
C2 C 0.901400 0.474830 0.391630
C3 C 0.995170 0.535910 0.329690
H1 H 0.992130 0.621230 0.328120
C4 C 1.091010 0.471490 0.271170
H2 H 1.160320 0.510170 0.226160
C5 C 1.091900 0.351410 0.274930
H3 H 1.158710 0.306210 0.232950
H4 H 0.997520 0.208070 0.339970
C6 C 0.997630 0.290770 0.337050
C7 C 0.900670 0.354240 0.396170
N3 N 0.622250 0.417600 0.565710
H5 H 0.586810 0.347250 0.599340
H6 H 0.609760 0.479480 0.598730
Cu1C Cu 0.74074(47) 0.66600(27) 0.49846(35)
N2C N 0.705600 0.009950 0.540600
loop_
_geom_bond_atom_site_label_1
_geom_bond_atom_site_label_2
_geom_bond_site_symmetry_1
_geom_bond_site_symmetry_2
Cu1 N1 1_555 1_555
N1 C1 1_555 1_555
C1 N2 1_555 1_555
N2 C2 1_555 1_555
C2 C3 1_555 1_555
C3 H1 1_555 1_555
C4 C3 1_555 1_555
H2 C4 1_555 1_555
C5 C4 1_555 1_555
H3 C5 1_555 1_555
H4 C6 1_555 1_555
C6 C5 1_555 1_555
C7 N1 1_555 1_555
N3 C1 1_555 1_555
H5 N3 1_555 1_555
H6 N3 1_555 1_555
Cu1C N2 1_555 1_555
N2C Cu1 1_555 1_555
C2 C7 1_555 1_555
C6 C7 1_555 1_555

#END
