
#######################################################################
#
#                 Cambridge Crystallographic Data Centre
#                                CCDC 
#
#######################################################################
#
# If this CIF has been generated from an entry in the Cambridge 
# Structural Database, then it will include bibliographic, chemical, 
# crystal, experimental, refinement or atomic coordinate data resulting 
# from the CCDC's data processing and validation procedures.
#
#######################################################################

data_KOFSOO
_symmetry_cell_setting           orthorhombic
_symmetry_space_group_name_H-M   'P c a b'
_symmetry_Int_Tables_number      61
_space_group_name_Hall           '-P 2bc 2ac'
loop_
_symmetry_equiv_pos_site_id
_symmetry_equiv_pos_as_xyz
1 x,y,z
2 1/2+x,-y,1/2-z
3 -x,1/2-y,1/2+z
4 1/2-x,1/2+y,-z
5 -x,-y,-z
6 1/2-x,y,1/2+z
7 x,1/2+y,1/2-z
8 1/2+x,1/2-y,z
_cell_length_a                   9.18538(89)
_cell_length_b                   12.3608(11)
_cell_length_c                   12.8277(11)
_cell_angle_alpha                90
_cell_angle_beta                 90
_cell_angle_gamma                90
_cell_volume                     1456.44
loop_
_atom_site_label
_atom_site_type_symbol
_atom_site_fract_x
_atom_site_fract_y
_atom_site_fract_z
Ag1 Ag 0.73572(47) 0.16355(27) 0.49359(39)
N1 N 0.792170 0.325310 0.460020
C1 C 0.728180 0.410830 0.501460
N2 N 0.787500 0.505770 0.470930
C2 C 0.899740 0.481370 0.403020
C3 C 0.996310 0.545560 0.349300
H1 H 0.991520 0.624920 0.355390
C4 C 1.097420 0.492870 0.287660
H2 H 1.168880 0.534220 0.248140
C5 C 1.100640 0.380980 0.280530
H3 H 1.171190 0.344100 0.236360
H4 H 1.005020 0.240080 0.329860
C6 C 1.003550 0.317180 0.334460
C7 C 0.901300 0.368920 0.396580
N3 N 0.610200 0.407100 0.563950
H5 H 0.590530 0.343030 0.606310
H6 H 0.579790 0.465980 0.588210
Ag1C Ag 0.76428(47) 0.66355(27) 0.50641(39)
N2C N 0.712500 0.005770 0.529070
loop_
_geom_bond_atom_site_label_1
_geom_bond_atom_site_label_2
_geom_bond_site_symmetry_1
_geom_bond_site_symmetry_2
Ag1 N1 1_555 1_555
N1 C1 1_555 1_555
C1 N2 1_555 1_555
N2 C2 1_555 1_555
C2 C3 1_555 1_555
C3 H1 1_555 1_555
C4 C3 1_555 1_555
H2 C4 1_555 1_555
C5 C4 1_555 1_555
H3 C5 1_555 1_555
H4 C6 1_555 1_555
C6 C5 1_555 1_555
C7 N1 1_555 1_555
N3 C1 1_555 1_555
H5 N3 1_555 1_555
H6 N3 1_555 1_555
Ag1C N2 1_555 1_555
N2C Ag1 1_555 1_555
C2 C7 1_555 1_555
C6 C7 1_555 1_555

#END
