
#######################################################################
#
#                 Cambridge Crystallographic Data Centre
#                                CCDC 
#
#######################################################################
#
# If this CIF has been generated from an entry in the Cambridge 
# Structural Database, then it will include bibliographic, chemical, 
# crystal, experimental, refinement or atomic coordinate data resulting 
# from the CCDC's data processing and validation procedures.
#
#######################################################################

data_KOFSOP
_symmetry_cell_setting           monoclinic
_symmetry_space_group_name_H-M   'C 2/c'
_symmetry_Int_Tables_number      15
_space_group_name_Hall           '-C 2yn'
loop_
_symmetry_equiv_pos_site_id
_symmetry_equiv_pos_as_xyz
1 x,y,z
2 -x,y,1/2-z
3 1/2+x,1/2+y,z
4 1/2-x,1/2+y,1/2-z
5 -x,-y,-z
6 x,-y,1/2+z
7 1/2-x,1/2-y,-z
8 1/2+x,1/2-y,1/2+z
_cell_length_a                   17.948(3)
_cell_length_b                   9.3593(16)
_cell_length_c                   22.830(5)
_cell_angle_alpha                90
_cell_angle_beta                 111.921(2)
_cell_angle_gamma                90
_cell_volume                     3557.73
loop_
_atom_site_label
_atom_site_type_symbol
_atom_site_fract_x
_atom_site_fract_y
_atom_site_fract_z
K1 K 0.12746(10) 0.58247(19) 0.23610(8)
K2 K 0.2410(2) 0.5237(2) 0.50348(12)
Cd1 Cd 0.24153(2) 0.77904(4) 0.132208(16)
S1 S 0.27825(8) 0.68477(14) 0.37784(6)
C1 C 0.5209(3) 0.6820(6) 0.4539(2)
C2 C 0.5420(3) 0.6975(6) 0.4010(2)
C3 C 0.4821(3) 0.7015(6) 0.3410(2)
H1 H 0.4969 0.7107 0.3062
C4 C 0.4019(3) 0.6924(6) 0.3313(2)
C5 C 0.3800(3) 0.6804(5) 0.3840(2)
C6 C 0.4387(3) 0.6738(6) 0.4436(2)
H2 H 0.4236 0.6637 0.4781
C7 C 0.5807(3) 0.6788(6) 0.5214(2)
C8 C 0.6268(4) 0.7198(10) 0.4040(3)
C9 C 0.3406(3) 0.6911(6) 0.2635(2)
O1 O 0.5527(3) 0.6751(6) 0.56371(19)
O2 O 0.6541(2) 0.6806(5) 0.53025(18)
O3 O 0.6645(3) 0.6180(10) 0.3954(3)
O4 O 0.6509(3) 0.8432(9) 0.4078(3)
O5 O 0.0703(6) 0.5216(9) 0.4935(4)
O6 O 0.3397(2) 0.7979(4) 0.23029(19)
O7 O 0.2994(3) 0.5826(5) 0.24563(19)
O8 O 0.2443(2) 0.5430(5) 0.3613(2)
O9 O 0.2389(3) 0.7888(5) 0.3288(2)
O10 O 0.2812(3) 0.7290(5) 0.4394(2)
O11 O -0.0448(5) 0.5651(11) 0.1718(4)
O12 O 0.1754(3) 0.5532(5) 0.1205(2)
O13 O 0.1539(2) 0.8346(4) 0.18305(17)
K1A K -0.12746(10) 0.58247(19) 0.26390(8)
K1C K 0.37254(10) 1.08247(19) 0.26390(8)
K2B K 0.7410(2) 1.0237(2) 0.50348(12)
K2D K 0.7590(2) 0.4763(2) 0.49652(12)
K2E K 0.2410(2) 0.4763(2) 0.00348(12)
K2F K 0.2590(2) 0.9763(2) 0.49652(12)
Cd1A Cd 0.75847(2) 0.77904(4) 0.367792(16)
Cd1C Cd 0.25847(2) 0.27904(4) 0.367792(16)
Cd1G Cd 0.74153(2) 0.72096(4) 0.632208(16)
O2D O 0.3459(2) 0.3194(5) 0.46975(18)
O2G O 0.1541(2) 0.8194(5) 0.03025(18)
O3A O 0.3355(3) 0.6180(10) 0.1046(3)
O3D O 0.3355(3) 0.3820(10) 0.6046(3)
O4A O 0.3491(3) 0.8432(9) 0.0922(3)
O4B O 0.1509(3) 0.3432(9) 0.4078(3)
O6C O 0.1603(2) 0.2979(4) 0.26971(19)
O8C O 0.2557(2) 1.0430(5) 0.1387(2)
O10F O 0.2188(3) 0.7710(5) 0.5606(2)
O11A O 0.0448(5) 0.5651(11) 0.3282(4)
O12E O 0.1754(3) 0.4468(5) 0.6205(2)
O14 O 0.4237(6) 0.6049(17) 0.7034(6)
O15 O 0.4148(5) 0.6923(12) 0.5914(5)
loop_
_geom_bond_atom_site_label_1
_geom_bond_atom_site_label_2
_geom_bond_site_symmetry_1
_geom_bond_site_symmetry_2
K1 O7 1_555 1_555
K2 O5 1_555 1_555
Cd1 O6 1_555 1_555
S1 C5 1_555 1_555
C1 C2 1_555 1_555
C2 C3 1_555 1_555
C3 H1 1_555 1_555
C4 C3 1_555 1_555
C5 C4 1_555 1_555
C6 C1 1_555 1_555
H2 C6 1_555 1_555
C7 C1 1_555 1_555
C8 C2 1_555 1_555
C9 C4 1_555 1_555
O1 C7 1_555 1_555
O2 C7 1_555 1_555
O3 C8 1_555 1_555
O4 C8 1_555 1_555
O6 C9 1_555 1_555
O7 C9 1_555 1_555
O8 K1 1_555 1_555
O9 K1 1_555 1_555
O10 K2 1_555 1_555
O11 K1 1_555 1_555
O12 K1 1_555 1_555
O13 K1 1_555 1_555
K1A O11 1_555 1_555
K1C O6 1_555 1_555
K2B O4 1_555 1_555
K2D O2 1_555 1_555
K2E O12 1_555 1_555
K2F O10 1_555 1_555
Cd1A O3 1_555 1_555
Cd1C O8 1_555 1_555
Cd1G O2 1_555 1_555
O2D K2 1_555 1_555
O2G Cd1 1_555 1_555
O3A Cd1 1_555 1_555
O3D K2 1_555 1_555
O4A Cd1 1_555 1_555
O4B K2 1_555 1_555
O6C K1 1_555 1_555
O8C Cd1 1_555 1_555
O10F K2 1_555 1_555
O11A K1 1_555 1_555
O12E K2 1_555 1_555
K2 O8 1_555 1_555
Cd1 O12 1_555 1_555
Cd1 O13 1_555 1_555
S1 O8 1_555 1_555
S1 O9 1_555 1_555
S1 O10 1_555 1_555
C5 C6 1_555 1_555
O3 K2D 1_555 1_555
O4 Cd1A 1_555 1_555
K1A O11A 1_555 1_555
K1C O8C 1_555 1_555
K2E O3A 1_555 1_555
K2F O10F 1_555 1_555
Cd1C O2D 1_555 1_555
Cd1C O4B 1_555 1_555
Cd1C O6C 1_555 1_555

#END
