
#######################################################################
#
#                 Cambridge Crystallographic Data Centre
#                                CCDC 
#
#######################################################################
#
# If this CIF has been generated from an entry in the Cambridge 
# Structural Database, then it will include bibliographic, chemical, 
# crystal, experimental, refinement or atomic coordinate data resulting 
# from the CCDC's data processing and validation procedures.
#
#######################################################################

data_KOFVUY
_symmetry_cell_setting           triclinic
_symmetry_space_group_name_H-M   'P -1'
_symmetry_Int_Tables_number      2
_space_group_name_Hall           '-P 1'
loop_
_symmetry_equiv_pos_site_id
_symmetry_equiv_pos_as_xyz
1 x,y,z
2 -x,-y,-z
_cell_length_a                   8.8008(18)
_cell_length_b                   10.898(2)
_cell_length_c                   11.603(2)
_cell_angle_alpha                62.37(3)
_cell_angle_beta                 87.58(3)
_cell_angle_gamma                85.66(3)
_cell_volume                     983.088
loop_
_atom_site_label
_atom_site_type_symbol
_atom_site_fract_x
_atom_site_fract_y
_atom_site_fract_z
Cd1 Cd -0.04674(4) 0.84806(4) 0.46846(3)
Cl1 Cl 0.03126(15) 0.62124(13) 0.64677(13)
Cl2 Cl 0.20321(13) 0.96711(13) 0.50489(14)
N1 N 0.0633(4) 0.9005(4) 0.2721(4)
N2 N 0.2066(4) 0.8926(4) 0.1122(4)
N3 N 0.7352(4) 0.7673(4) 0.4174(4)
S1 S 0.35869(14) 0.59477(14) 0.29028(13)
C1 C 0.1568(5) 1.0294(6) 0.0686(5)
C2 C 0.1798(7) 1.1487(6) -0.0477(5)
H1 H 0.246(6) 1.144(6) -0.107(5)
C3 C 0.1141(7) 1.2707(6) -0.0592(6)
H2 H 0.1288 1.3524 -0.1351
C4 C 0.0242(7) 1.2753(6) 0.0421(6)
H3 H -0.0192 1.3605 0.0312
C5 C -0.0015(6) 1.1587(6) 0.1563(5)
H4 H -0.0609 1.1632 0.2227
C6 C 0.0644(5) 1.0345(5) 0.1684(5)
C7 C 0.1501(5) 0.8210(5) 0.2342(5)
C8 C 0.1795(5) 0.6693(5) 0.3166(5)
H5 H 0.0984 0.6224 0.3024
H6 H 0.1739 0.6501 0.4070
C9 C 0.4955(5) 0.6659(5) 0.3436(4)
C10 C 0.4696(5) 0.7723(5) 0.3763(5)
H7 H 0.3717 0.8114 0.3752
C11 C 0.5927(5) 0.8193(5) 0.4109(5)
H8 H 0.5744 0.8925 0.4309
C12 C 0.7570(5) 0.6607(5) 0.3896(5)
H9 H 0.8552 0.6204 0.3957
C13 C 0.6432(5) 0.6081(5) 0.3529(4)
H10 H 0.6645 0.5342 0.3343
Cd1_2 Cd 0.95326(4) 0.84806(4) 0.46846(3)
Cd1A Cd 0.04674(4) 1.15194(4) 0.53154(3)
Cl2A Cl -0.20321(13) 1.03289(13) 0.49511(14)
N3_2 N -0.2648(4) 0.7673(4) 0.4174(4)
N4 N 0.5009(7) 0.2678(7) 0.1601(6)
O1 O 0.6147(8) 0.1607(9) 0.0573(6)
C14 C 0.6144(10) 0.3561(11) 0.1604(12)
H11 H 0.7047 0.3437 0.1165
H12 H 0.6386 0.3323 0.2485
H13 H 0.5757 0.4512 0.1164
C15 C 0.3641(9) 0.2794(9) 0.2236(7)
H14 H 0.2929 0.2186 0.2205
H15 H 0.3216 0.3734 0.1809
H16 H 0.3850 0.2542 0.3127
C16 C 0.5174(9) 0.1815(9) 0.1130(7)
loop_
_geom_bond_atom_site_label_1
_geom_bond_atom_site_label_2
_geom_bond_site_symmetry_1
_geom_bond_site_symmetry_2
Cd1 Cl1 1_555 1_555
Cl2 Cd1 1_555 1_555
N1 Cd1 1_555 1_555
N2 C1 1_555 1_555
N3 C11 1_555 1_555
S1 C8 1_555 1_555
C1 C2 1_555 1_555
C2 H1 1_555 1_555
C3 C2 1_555 1_555
H2 C3 1_555 1_555
C4 C3 1_555 1_555
H3 C4 1_555 1_555
C5 C4 1_555 1_555
H4 C5 1_555 1_555
C6 N1 1_555 1_555
C7 N1 1_555 1_555
C8 C7 1_555 1_555
H5 C8 1_555 1_555
H6 C8 1_555 1_555
C9 S1 1_555 1_555
C10 C9 1_555 1_555
H7 C10 1_555 1_555
C11 C10 1_555 1_555
H8 C11 1_555 1_555
C12 N3 1_555 1_555
H9 C12 1_555 1_555
C13 C9 1_555 1_555
H10 C13 1_555 1_555
N4 C14 1_555 1_555
O1 C16 1_555 1_555
C14 H11 1_555 1_555
H12 C14 1_555 1_555
H13 C14 1_555 1_555
C15 N4 1_555 1_555
H14 C15 1_555 1_555
H15 C15 1_555 1_555
H16 C15 1_555 1_555
C16 N4 1_555 1_555
Cd1_2 N3 1_555 1_555
Cd1A Cl2 1_555 1_555
Cl2A Cd1 1_555 1_555
N3_2 Cd1 1_555 1_555
N2 C7 1_555 1_555
C1 C6 1_555 1_555
C5 C6 1_555 1_555
C12 C13 1_555 1_555
Cd1A Cl2A 1_555 1_555

#END
