
#######################################################################
#
#                 Cambridge Crystallographic Data Centre
#                                CCDC 
#
#######################################################################
#
# If this CIF has been generated from an entry in the Cambridge 
# Structural Database, then it will include bibliographic, chemical, 
# crystal, experimental, refinement or atomic coordinate data resulting 
# from the CCDC's data processing and validation procedures.
#
#######################################################################

data_KOFWOT
_symmetry_cell_setting           triclinic
_symmetry_space_group_name_H-M   'P -1'
_symmetry_Int_Tables_number      2
_space_group_name_Hall           '-P 1'
loop_
_symmetry_equiv_pos_site_id
_symmetry_equiv_pos_as_xyz
1 x,y,z
2 -x,-y,-z
_cell_length_a                   10.3118(17)
_cell_length_b                   10.9266(16)
_cell_length_c                   11.6645(16)
_cell_angle_alpha                106.320(7)
_cell_angle_beta                 94.735(5)
_cell_angle_gamma                95.396(8)
_cell_volume                     1247.53
loop_
_atom_site_label
_atom_site_type_symbol
_atom_site_fract_x
_atom_site_fract_y
_atom_site_fract_z
Mn1 Mn 0.5000 0.5000 0.5000
Mn2 Mn 0.38007(4) 0.30541(4) 0.19548(3)
C1 C 0.4251(3) 0.1850(2) 0.9127(2)
C2 C 0.4227(3) 0.0650(2) 0.8261(2)
C3 C 0.4601(3) 0.0542(3) 0.7125(2)
H1 H 0.4607 -0.0253 0.6564
C4 C 0.4966(3) 0.1677(3) 0.6870(2)
H2 H 0.5211 0.1641 0.6112
C5 C 0.4980(3) 0.2887(3) 0.7715(2)
C6 C 0.4633(3) 0.2982(2) 0.8863(2)
H3 H 0.4656 0.3776 0.9432
C7 C 0.5326(3) 0.4093(3) 0.7366(2)
C8 C 0.1628(3) 0.0359(3) 0.5685(3)
C9 C 0.1234(3) 0.1316(3) 0.6629(3)
N1 N 0.0661(3) 0.0771(3) 0.7424(3)
C10 C 0.0731(4) -0.0469(4) 0.6976(3)
H4 H 0.0413 -0.1076 0.7338
N2 N 0.1302(3) -0.0784(3) 0.5954(3)
H5 H 0.152(4) -0.158(5) 0.552(4)
C11 C 0.1454(4) 0.2605(3) 0.6638(3)
H6 H 0.1195 0.3257 0.7247
C12 C 0.2067(3) 0.2876(3) 0.5711(3)
H7 H 0.2235 0.3727 0.5710
C13 C 0.2446(3) 0.1898(3) 0.4765(2)
C14 C 0.2223(3) 0.0621(3) 0.4742(3)
H8 H 0.2461 -0.0032 0.4122
C15 C 0.3525(3) 0.0389(3) 0.9908(2)
H9 H 0.3201 -0.0019 1.0444
C16 C 0.3037(3) 0.2242(3) 0.3758(2)
C17 C 1.0464(3) 0.3861(3) 0.3201(3)
H10 H 1.1189 0.4071 0.3779
C18 C 0.9205(3) 0.3877(3) 0.3525(2)
H11 H 0.9089 0.4115 0.4337
C19 C 0.8098(3) 0.3546(3) 0.2666(2)
C20 C 0.8232(3) 0.3240(4) 0.1452(3)
H12 H 0.7507 0.3041 0.0874
C21 C 0.6737(2) 0.3499(2) 0.3047(2)
O1 O 0.5464(2) 0.3988(2) 0.62888(18)
O2 O 0.5477(3) 0.5138(2) 0.8192(2)
O3 O 0.35086(18) 0.34109(17) 0.38912(16)
O4 O 0.3031(2) 0.1421(2) 0.27591(18)
O5 O 0.58409(19) 0.27579(19) 0.23056(18)
O6 O 0.65827(19) 0.4179(2) 0.40743(18)
N3 N 0.3800(2) 0.1650(2) 1.01715(19)
N4 N 0.3755(2) -0.0246(2) 0.8797(2)
H13 H 0.3630 -0.1065 0.8478
C22 C 1.0608(3) 0.3519(3) 0.1979(3)
N5 N 1.1728(3) 0.3366(3) 0.1388(2)
C23 C 0.9500(3) 0.3245(5) 0.1140(3)
C24 C 1.1282(4) 0.3063(8) 0.0248(4)
H14 H 1.1827 0.2927 -0.0361
N6 N 0.9980(4) 0.2966(7) 0.0034(3)
H15 H 0.9526 0.2769 -0.0659
Mn2A Mn 0.61993(4) 0.69459(4) 0.80452(3)
C1A C 0.5749(3) 0.8150(2) 0.0873(2)
C2A C 0.5773(3) 0.9350(2) 0.1739(2)
C3A C 0.5399(3) 0.9458(3) 0.2875(2)
H1A H 0.5393 1.0253 0.3436
C4A C 0.5034(3) 0.8323(3) 0.3130(2)
H2A H 0.4789 0.8359 0.3888
C5A C 0.5020(3) 0.7113(3) 0.2285(2)
C6A C 0.5367(3) 0.7018(2) 0.1137(2)
H3A H 0.5344 0.6224 0.0568
C7A C 0.4674(3) 0.5907(3) 0.2634(2)
C8A C 0.8372(3) 0.9641(3) 0.4315(3)
C9A C 0.8766(3) 0.8684(3) 0.3371(3)
N1A N 0.9339(3) 0.9229(3) 0.2576(3)
C10A C 0.9269(4) 1.0469(4) 0.3024(3)
H4A H 0.9587 1.1076 0.2662
N2A N 0.8698(3) 1.0784(3) 0.4046(3)
H5A H 0.848(4) 1.158(5) 0.448(4)
C11A C 0.8546(4) 0.7395(3) 0.3362(3)
H6A H 0.8805 0.6743 0.2753
C12A C 0.7933(3) 0.7124(3) 0.4289(3)
H7A H 0.7765 0.6273 0.4290
C13A C 0.7554(3) 0.8102(3) 0.5235(2)
C14A C 0.7777(3) 0.9379(3) 0.5258(3)
H8A H 0.7539 1.0032 0.5878
C15A C 0.6475(3) 0.9611(3) 0.0092(2)
H9A H 0.6799 1.0019 -0.0444
C16A C 0.6963(3) 0.7758(3) 0.6242(2)
C17A C -0.0464(3) 0.6139(3) 0.6799(3)
H10A H -0.1189 0.5929 0.6221
C18A C 0.0795(3) 0.6123(3) 0.6475(2)
H11A H 0.0911 0.5885 0.5663
C19A C 0.1902(3) 0.6454(3) 0.7334(2)
C20A C 0.1768(3) 0.6760(4) 0.8548(3)
H12A H 0.2493 0.6959 0.9126
C21A C 0.3263(2) 0.6501(2) 0.6953(2)
O1A O 0.4536(2) 0.6012(2) 0.37112(18)
O2A O 0.4523(3) 0.4862(2) 0.1808(2)
O3A O 0.64914(18) 0.65891(17) 0.61088(16)
O4A O 0.6969(2) 0.8579(2) 0.72409(18)
O5A O 0.41591(19) 0.72421(19) 0.76944(18)
O6A O 0.34173(19) 0.5821(2) 0.59257(18)
N3A N 0.6200(2) 0.8350(2) -0.01715(19)
N4A N 0.6245(2) 1.0246(2) 0.1203(2)
H13A H 0.6370 1.1065 0.1522
C22A C -0.0608(3) 0.6481(3) 0.8021(3)
N5A N -0.1728(3) 0.6634(3) 0.8612(2)
C23A C 0.0500(3) 0.6755(5) 0.8860(3)
C24A C -0.1282(4) 0.6937(8) 0.9752(4)
H14A H -0.1827 0.7073 1.0361
N6A N 0.0020(4) 0.7034(7) 0.9966(3)
H15A H 0.0474 0.7231 1.0659
Mn2_2 Mn 0.38007(4) 0.30541(4) 1.19548(3)
Mn2_3 Mn 1.38007(4) 0.30541(4) 0.19548(3)
Mn2A_2 Mn -0.38007(4) 0.69459(4) 0.80452(3)
Mn2A_3 Mn 0.61993(4) 0.69459(4) -0.19548(3)
N3_2 N 0.3800(2) 0.1650(2) 0.01715(19)
N3A_2 N 0.6200(2) 0.8350(2) 0.98285(19)
N5_2 N 0.1728(3) 0.3366(3) 0.1388(2)
N5A_2 N 0.8272(3) 0.6634(3) 0.8612(2)
loop_
_geom_bond_atom_site_label_1
_geom_bond_atom_site_label_2
_geom_bond_site_symmetry_1
_geom_bond_site_symmetry_2
Mn1 O1 1_555 1_555
Mn2 O3 1_555 1_555
C1 C2 1_555 1_555
C2 C3 1_555 1_555
C3 H1 1_555 1_555
C4 C3 1_555 1_555
H2 C4 1_555 1_555
C5 C4 1_555 1_555
C6 C1 1_555 1_555
H3 C6 1_555 1_555
C7 C5 1_555 1_555
C8 C9 1_555 1_555
C9 N1 1_555 1_555
N1 C10 1_555 1_555
C10 H4 1_555 1_555
N2 C8 1_555 1_555
H5 N2 1_555 1_555
C11 C9 1_555 1_555
H6 C11 1_555 1_555
C12 C11 1_555 1_555
H7 C12 1_555 1_555
C13 C12 1_555 1_555
C14 C8 1_555 1_555
H8 C14 1_555 1_555
C15 H9 1_555 1_555
C16 C13 1_555 1_555
C17 H10 1_555 1_555
C18 C17 1_555 1_555
H11 C18 1_555 1_555
C19 C18 1_555 1_555
C20 C19 1_555 1_555
H12 C20 1_555 1_555
C21 C19 1_555 1_555
O1 C7 1_555 1_555
O2 C7 1_555 1_555
O3 Mn1 1_555 1_555
O4 Mn2 1_555 1_555
O5 Mn2 1_555 1_555
O6 Mn1 1_555 1_555
N3 C1 1_555 1_555
N4 C2 1_555 1_555
H13 N4 1_555 1_555
C22 C17 1_555 1_555
N5 C22 1_555 1_555
C23 C20 1_555 1_555
C24 N5 1_555 1_555
H14 C24 1_555 1_555
N6 C23 1_555 1_555
H15 N6 1_555 1_555
Mn2A O2 1_555 1_555
C1A C2A 1_555 1_555
C2A C3A 1_555 1_555
C3A H1A 1_555 1_555
C4A C3A 1_555 1_555
H2A C4A 1_555 1_555
C5A C4A 1_555 1_555
C6A C1A 1_555 1_555
H3A C6A 1_555 1_555
C7A C5A 1_555 1_555
C8A C9A 1_555 1_555
C9A N1A 1_555 1_555
N1A C10A 1_555 1_555
C10A H4A 1_555 1_555
N2A C8A 1_555 1_555
H5A N2A 1_555 1_555
C11A C9A 1_555 1_555
H6A C11A 1_555 1_555
C12A C11A 1_555 1_555
H7A C12A 1_555 1_555
C13A C12A 1_555 1_555
C14A C8A 1_555 1_555
H8A C14A 1_555 1_555
C15A H9A 1_555 1_555
C16A C13A 1_555 1_555
C17A H10A 1_555 1_555
C18A C17A 1_555 1_555
H11A C18A 1_555 1_555
C19A C18A 1_555 1_555
C20A C19A 1_555 1_555
H12A C20A 1_555 1_555
C21A C19A 1_555 1_555
O1A Mn1 1_555 1_555
O2A Mn2 1_555 1_555
O3A Mn1 1_555 1_555
O4A Mn2A 1_555 1_555
O5A Mn2A 1_555 1_555
O6A Mn1 1_555 1_555
N3A C1A 1_555 1_555
N4A C2A 1_555 1_555
H13A N4A 1_555 1_555
C22A C17A 1_555 1_555
N5A C22A 1_555 1_555
C23A C20A 1_555 1_555
C24A N5A 1_555 1_555
H14A C24A 1_555 1_555
N6A C23A 1_555 1_555
H15A N6A 1_555 1_555
Mn2_2 N3 1_555 1_555
Mn2_3 N5 1_555 1_555
Mn2A_2 N5A 1_555 1_555
Mn2A_3 N3A 1_555 1_555
N3_2 Mn2 1_555 1_555
N3A_2 Mn2A 1_555 1_555
N5_2 Mn2 1_555 1_555
N5A_2 Mn2A 1_555 1_555
C5 C6 1_555 1_555
C10 N2 1_555 1_555
C13 C14 1_555 1_555
C15 N3 1_555 1_555
C15 N4 1_555 1_555
C16 O3 1_555 1_555
C16 O4 1_555 1_555
C21 O5 1_555 1_555
C21 O6 1_555 1_555
C22 C23 1_555 1_555
C24 N6 1_555 1_555
Mn2A O3A 1_555 1_555
C5A C6A 1_555 1_555
C7A O1A 1_555 1_555
C7A O2A 1_555 1_555
C10A N2A 1_555 1_555
C13A C14A 1_555 1_555
C15A N3A 1_555 1_555
C15A N4A 1_555 1_555
C16A O3A 1_555 1_555
C16A O4A 1_555 1_555
C21A O5A 1_555 1_555
C21A O6A 1_555 1_555
C22A C23A 1_555 1_555
C24A N6A 1_555 1_555

#END
