
#######################################################################
#
#                 Cambridge Crystallographic Data Centre
#                                CCDC 
#
#######################################################################
#
# If this CIF has been generated from an entry in the Cambridge 
# Structural Database, then it will include bibliographic, chemical, 
# crystal, experimental, refinement or atomic coordinate data resulting 
# from the CCDC's data processing and validation procedures.
#
#######################################################################

data_KOFYOV
_symmetry_cell_setting           monoclinic
_symmetry_space_group_name_H-M   'P 21/n'
_symmetry_Int_Tables_number      14
_space_group_name_Hall           '-P 2yn'
loop_
_symmetry_equiv_pos_site_id
_symmetry_equiv_pos_as_xyz
1 x,y,z
2 1/2-x,1/2+y,1/2-z
3 -x,-y,-z
4 1/2+x,1/2-y,1/2+z
_cell_length_a                   11.937(2)
_cell_length_b                   12.541(3)
_cell_length_c                   13.342(3)
_cell_angle_alpha                90
_cell_angle_beta                 97.33(3)
_cell_angle_gamma                90
_cell_volume                     1981
loop_
_atom_site_label
_atom_site_type_symbol
_atom_site_fract_x
_atom_site_fract_y
_atom_site_fract_z
Zn1 Zn 0.108226(19) 0.372027(19) 0.908979(17)
O1 O -0.01846(13) 0.38967(13) 0.79976(12)
O2 O -0.03586(14) 0.21578(13) 0.82361(12)
O3 O 0.16196(14) 0.51990(13) 0.92783(12)
O4 O 0.29929(14) 0.45918(14) 1.04210(13)
N1 N 0.06539(14) 0.32373(14) 1.04161(13)
N2 N 0.05586(14) 0.32075(14) 1.20451(13)
N3 N -0.27188(15) 0.21886(15) 1.35864(13)
N4 N -0.10988(15) 0.29670(14) 1.34548(13)
N5 N 0.17532(15) 0.40059(15) 1.33280(13)
N6 N 0.02425(15) 0.36120(14) 1.47276(13)
C1 C 0.08517(17) 0.37786(17) 1.12661(16)
H1 H 0.1153 0.4463 1.1320
C2 C 0.02145(18) 0.22661(18) 1.06615(17)
H2 H -0.0006 0.1723 1.0204
C3 C 0.01539(19) 0.22234(17) 1.16629(17)
H3 H -0.0103 0.1658 1.2023
C4 C -0.16739(18) 0.23302(18) 1.40253(16)
H4 H -0.1376 0.2033 1.4641
C5 C -0.28257(18) 0.27744(17) 1.26963(16)
H5 H -0.3480 0.2831 1.2240
C6 C -0.18329(18) 0.32488(17) 1.25973(16)
H6 H -0.1670 0.3677 1.2065
C7 C 0.07823(18) 0.35394(17) 1.30697(16)
C8 C 0.00006(17) 0.33804(17) 1.37693(15)
C9 C 0.20246(17) 0.42860(17) 1.43199(16)
C10 C 0.30697(19) 0.47798(18) 1.46455(18)
H7 H 0.3546 0.4976 1.4177
C11 C 0.3380(2) 0.49692(19) 1.56527(18)
H8 H 0.4073 0.5287 1.5867
C12 C 0.26664(19) 0.46895(18) 1.63645(17)
H9 H 0.2905 0.4796 1.7048
C13 C 0.16213(19) 0.42616(18) 1.60688(16)
H10 H 0.1137 0.4114 1.6545
C14 C 0.12831(18) 0.40463(17) 1.50333(16)
C15 C -0.06729(18) 0.2995(2) 0.77886(17)
C16 C -0.1650(2) 0.3005(2) 0.6948(2)
H11 H -0.1950 0.2297 0.6850
H12 H -0.1392 0.3249 0.6335
H13 H -0.2228 0.3474 0.7126
C17 C 0.2484(2) 0.5328(2) 0.99498(18)
C18 C 0.2846(4) 0.6469(3) 1.0165(3)
H14 H 0.3496 0.6481 1.0669
H15 H 0.2240 0.6856 1.0407
H16 H 0.3031 0.6795 0.9556
Zn1C Zn -0.391774(19) 0.127973(19) 1.408979(17)
N3C N 0.22812(15) 0.28114(15) 0.85864(13)
O5 O -0.0356(3) 0.0171(2) 0.7177(2)
H17 H -0.094(3) 0.021(4) 0.676(3)
H18 H -0.066(4) 0.065(3) 0.751(3)
loop_
_geom_bond_atom_site_label_1
_geom_bond_atom_site_label_2
_geom_bond_site_symmetry_1
_geom_bond_site_symmetry_2
Zn1 O1 1_555 1_555
O1 C15 1_555 1_555
O2 C15 1_555 1_555
O3 Zn1 1_555 1_555
O4 C17 1_555 1_555
N1 Zn1 1_555 1_555
N2 C1 1_555 1_555
N3 C4 1_555 1_555
N4 C4 1_555 1_555
N5 C7 1_555 1_555
N6 C8 1_555 1_555
C1 N1 1_555 1_555
H1 C1 1_555 1_555
C2 N1 1_555 1_555
H2 C2 1_555 1_555
C3 N2 1_555 1_555
H3 C3 1_555 1_555
C4 H4 1_555 1_555
C5 N3 1_555 1_555
H5 C5 1_555 1_555
C6 N4 1_555 1_555
H6 C6 1_555 1_555
C7 N2 1_555 1_555
C8 N4 1_555 1_555
C9 N5 1_555 1_555
C10 C9 1_555 1_555
H7 C10 1_555 1_555
C11 C10 1_555 1_555
H8 C11 1_555 1_555
C12 C11 1_555 1_555
H9 C12 1_555 1_555
C13 C12 1_555 1_555
H10 C13 1_555 1_555
C14 N6 1_555 1_555
C15 C16 1_555 1_555
C16 H11 1_555 1_555
H12 C16 1_555 1_555
H13 C16 1_555 1_555
C17 O3 1_555 1_555
C18 C17 1_555 1_555
H14 C18 1_555 1_555
H15 C18 1_555 1_555
H16 C18 1_555 1_555
O5 H17 1_555 1_555
H18 O5 1_555 1_555
Zn1C N3 1_555 1_555
N3C Zn1 1_555 1_555
C2 C3 1_555 1_555
C5 C6 1_555 1_555
C7 C8 1_555 1_555
C9 C14 1_555 1_555
C13 C14 1_555 1_555

#END
