
#######################################################################
#
#                 Cambridge Crystallographic Data Centre
#                                CCDC 
#
#######################################################################
#
# If this CIF has been generated from an entry in the Cambridge 
# Structural Database, then it will include bibliographic, chemical, 
# crystal, experimental, refinement or atomic coordinate data resulting 
# from the CCDC's data processing and validation procedures.
#
#######################################################################

data_KOFYUB
_symmetry_cell_setting           triclinic
_symmetry_space_group_name_H-M   'P -1'
_symmetry_Int_Tables_number      2
_space_group_name_Hall           '-P 1'
loop_
_symmetry_equiv_pos_site_id
_symmetry_equiv_pos_as_xyz
1 x,y,z
2 -x,-y,-z
_cell_length_a                   10.538(2)
_cell_length_b                   10.744(2)
_cell_length_c                   15.052(3)
_cell_angle_alpha                74.47(3)
_cell_angle_beta                 72.65(3)
_cell_angle_gamma                85.67(3)
_cell_volume                     1567.25
loop_
_atom_site_label
_atom_site_type_symbol
_atom_site_fract_x
_atom_site_fract_y
_atom_site_fract_z
Mn1 Mn 0.0000 1.0000 0.5000
Mn2 Mn 0.0000 1.0000 0.0000
N1 N -0.0115(3) 0.8224(3) 0.4481(2)
N2 N -0.0958(3) 0.6709(3) 0.4080(2)
N3 N -0.0508(3) 0.8034(3) 0.1062(2)
N4 N -0.1274(3) 0.6364(3) 0.2310(2)
N5 N -0.2648(3) 0.5204(3) 0.4940(2)
N6 N -0.2751(3) 0.4696(3) 0.3223(2)
N7 N 0.2008(3) 1.0489(3) 0.3914(2)
N8 N 0.3672(3) 1.1332(3) 0.2649(2)
N9 N 0.1660(3) 1.0190(3) 0.0611(2)
N10 N 0.3319(3) 1.0984(3) 0.0900(2)
N11 N 0.5244(3) 1.2918(3) 0.1728(2)
N12 N 0.4874(3) 1.2614(3) 0.0022(2)
N13 N -0.0959(3) 1.1134(3) 0.3885(2)
N14 N -0.1721(3) 1.0594(3) 0.3659(2)
N15 N -0.2476(4) 1.0063(4) 0.3448(3)
N16 N -0.1477(3) 1.0899(3) 0.1047(3)
N17 N -0.2561(3) 1.0436(3) 0.1315(2)
N18 N -0.3628(4) 0.9976(4) 0.1583(3)
C1 C -0.1196(4) 0.7600(4) 0.4603(3)
H1 H -0.2027 0.7747 0.4999
C2 C 0.0881(4) 0.7692(4) 0.3863(3)
H2 H 0.1770 0.7943 0.3651
C3 C 0.0397(4) 0.6765(4) 0.3608(3)
H3 H 0.0868 0.6265 0.3201
C4 C -0.1183(4) 0.7676(4) 0.1987(3)
H4 H -0.1546 0.8245 0.2366
C5 C -0.0164(4) 0.6883(4) 0.0782(3)
H5 H 0.0320 0.6832 0.0165
C6 C -0.0635(4) 0.5856(4) 0.1533(3)
H6 H -0.0551 0.4988 0.1532
C7 C -0.1900(3) 0.5820(3) 0.4092(3)
C8 C -0.2003(4) 0.5612(3) 0.3221(3)
C9 C -0.3486(4) 0.4273(4) 0.4959(3)
C10 C -0.4325(4) 0.3571(4) 0.5853(3)
H7 H -0.4351 0.3774 0.6421
C11 C -0.5096(4) 0.2593(4) 0.5870(3)
H8 H -0.5638 0.2120 0.6455
C12 C -0.5079(4) 0.2289(4) 0.5004(3)
H9 H -0.5611 0.1620 0.5031
C13 C -0.4297(4) 0.2963(4) 0.4134(3)
H10 H -0.4296 0.2753 0.3573
C14 C -0.3482(4) 0.3986(4) 0.4087(3)
C15 C 0.2333(4) 1.1191(4) 0.3018(3)
H11 H 0.1726 1.1545 0.2681
C16 C 0.3202(4) 1.0151(4) 0.4126(3)
H12 H 0.3284 0.9643 0.4712
C17 C 0.4230(4) 1.0670(4) 0.3353(3)
H13 H 0.5131 1.0594 0.3308
C18 C 0.2363(4) 1.1216(4) 0.0439(3)
H14 H 0.2228 1.2015 0.0047
C19 C 0.2214(4) 0.9218(4) 0.1192(3)
H15 H 0.1926 0.8363 0.1419
C20 C 0.3224(4) 0.9683(4) 0.1381(3)
H16 H 0.3750 0.9227 0.1757
C21 C 0.4406(4) 1.2084(3) 0.1733(3)
C22 C 0.4230(4) 1.1915(4) 0.0869(3)
C23 C 0.5984(4) 1.3628(4) 0.0847(3)
C24 C 0.6939(4) 1.4504(4) 0.0797(3)
H17 H 0.7079 1.4601 0.1356
C25 C 0.7666(4) 1.5218(4) -0.0091(3)
H18 H 0.8315 1.5787 -0.0130
C26 C 0.7444(4) 1.5102(4) -0.0938(3)
H19 H 0.7937 1.5608 -0.1529
C27 C 0.6515(4) 1.4256(4) -0.0912(3)
H20 H 0.6376 1.4180 -0.1477
C28 C 0.5771(4) 1.3502(4) -0.0004(3)
N1A N 0.0115(3) 1.1776(3) -0.4481(2)
N2A N 0.0958(3) 1.3291(3) -0.4080(2)
N3A N 0.0508(3) 1.1966(3) -0.1062(2)
N4A N 0.1274(3) 1.3636(3) -0.2310(2)
N5A N 0.2648(3) 1.4796(3) -0.4940(2)
N6A N 0.2751(3) 1.5304(3) -0.3223(2)
N7A N -0.2008(3) 0.9511(3) -0.3914(2)
N8A N -0.3672(3) 0.8668(3) -0.2649(2)
N9A N -0.1660(3) 0.9810(3) -0.0611(2)
N10A N -0.3319(3) 0.9016(3) -0.0900(2)
N11A N -0.5244(3) 0.7082(3) -0.1728(2)
N12A N -0.4874(3) 0.7386(3) -0.0022(2)
N16A N 0.1477(3) 0.9101(3) -0.1047(3)
N17A N 0.2561(3) 0.9564(3) -0.1315(2)
N18A N 0.3628(4) 1.0024(4) -0.1583(3)
C1A C 0.1196(4) 1.2400(4) -0.4603(3)
H1A H 0.2027 1.2253 -0.4999
C2A C -0.0881(4) 1.2308(4) -0.3863(3)
H2A H -0.1770 1.2057 -0.3651
C3A C -0.0397(4) 1.3235(4) -0.3608(3)
H3A H -0.0868 1.3735 -0.3201
C4A C 0.1183(4) 1.2324(4) -0.1987(3)
H4A H 0.1546 1.1755 -0.2366
C5A C 0.0164(4) 1.3117(4) -0.0782(3)
H5A H -0.0320 1.3168 -0.0165
C6A C 0.0635(4) 1.4144(4) -0.1533(3)
H6A H 0.0551 1.5012 -0.1532
C7A C 0.1900(3) 1.4180(3) -0.4092(3)
C8A C 0.2003(4) 1.4388(3) -0.3221(3)
C9A C 0.3486(4) 1.5727(4) -0.4959(3)
C10A C 0.4325(4) 1.6429(4) -0.5853(3)
H7A H 0.4351 1.6226 -0.6421
C11A C 0.5096(4) 1.7407(4) -0.5870(3)
H8A H 0.5638 1.7880 -0.6455
C12A C 0.5079(4) 1.7711(4) -0.5004(3)
H9A H 0.5611 1.8380 -0.5031
C13A C 0.4297(4) 1.7037(4) -0.4134(3)
H10A H 0.4296 1.7247 -0.3573
C14A C 0.3482(4) 1.6014(4) -0.4087(3)
C15A C -0.2333(4) 0.8809(4) -0.3018(3)
H11A H -0.1726 0.8455 -0.2681
C16A C -0.3202(4) 0.9849(4) -0.4126(3)
H12A H -0.3284 1.0357 -0.4712
C17A C -0.4230(4) 0.9330(4) -0.3353(3)
H13A H -0.5131 0.9406 -0.3308
C18A C -0.2363(4) 0.8784(4) -0.0439(3)
H14A H -0.2228 0.7985 -0.0047
C19A C -0.2214(4) 1.0782(4) -0.1192(3)
H15A H -0.1926 1.1637 -0.1419
C20A C -0.3224(4) 1.0317(4) -0.1381(3)
H16A H -0.3750 1.0773 -0.1757
C21A C -0.4406(4) 0.7916(3) -0.1733(3)
C22A C -0.4230(4) 0.8085(4) -0.0869(3)
C23A C -0.5984(4) 0.6372(4) -0.0847(3)
C24A C -0.6939(4) 0.5496(4) -0.0797(3)
H17A H -0.7079 0.5399 -0.1356
C25A C -0.7666(4) 0.4782(4) 0.0091(3)
H18A H -0.8315 0.4213 0.0130
C26A C -0.7444(4) 0.4898(4) 0.0938(3)
H19A H -0.7937 0.4392 0.1529
C27A C -0.6515(4) 0.5744(4) 0.0912(3)
H20A H -0.6376 0.5820 0.1477
C28A C -0.5771(4) 0.6498(4) 0.0004(3)
N13A N 0.0959(3) 0.8866(3) 0.6115(2)
N14A N 0.1721(3) 0.9406(3) 0.6341(2)
N15A N 0.2476(4) 0.9937(4) 0.6552(3)
Mn1_2 Mn 0.0000 1.0000 -0.5000
N1A_2 N 0.0115(3) 1.1776(3) 0.5519(2)
N7A_2 N -0.2008(3) 0.9511(3) 0.6086(2)
O1 O -0.2918(3) 0.5840(3) 0.6764(2)
O2 O 0.0196(3) 0.3794(3) 0.3361(3)
O3 O -0.0123(4) 1.2642(3) 0.1677(2)
O4 O -0.4329(4) 0.7303(4) 0.1845(3)
loop_
_geom_bond_atom_site_label_1
_geom_bond_atom_site_label_2
_geom_bond_site_symmetry_1
_geom_bond_site_symmetry_2
Mn1 N1 1_555 1_555
Mn2 N3 1_555 1_555
N1 C1 1_555 1_555
N2 C1 1_555 1_555
N3 C4 1_555 1_555
N4 C4 1_555 1_555
N5 C7 1_555 1_555
N6 C8 1_555 1_555
N7 Mn1 1_555 1_555
N8 C15 1_555 1_555
N9 Mn2 1_555 1_555
N10 C18 1_555 1_555
N11 C21 1_555 1_555
N12 C22 1_555 1_555
N13 Mn1 1_555 1_555
N14 N13 1_555 1_555
N15 N14 1_555 1_555
N16 Mn2 1_555 1_555
N17 N16 1_555 1_555
N18 N17 1_555 1_555
C1 H1 1_555 1_555
C2 N1 1_555 1_555
H2 C2 1_555 1_555
C3 N2 1_555 1_555
H3 C3 1_555 1_555
C4 H4 1_555 1_555
C5 N3 1_555 1_555
H5 C5 1_555 1_555
C6 N4 1_555 1_555
H6 C6 1_555 1_555
C7 N2 1_555 1_555
C8 N4 1_555 1_555
C9 N5 1_555 1_555
C10 C9 1_555 1_555
H7 C10 1_555 1_555
C11 C10 1_555 1_555
H8 C11 1_555 1_555
C12 C11 1_555 1_555
H9 C12 1_555 1_555
C13 C12 1_555 1_555
H10 C13 1_555 1_555
C14 N6 1_555 1_555
C15 N7 1_555 1_555
H11 C15 1_555 1_555
C16 N7 1_555 1_555
H12 C16 1_555 1_555
C17 N8 1_555 1_555
H13 C17 1_555 1_555
C18 N9 1_555 1_555
H14 C18 1_555 1_555
C19 N9 1_555 1_555
H15 C19 1_555 1_555
C20 N10 1_555 1_555
H16 C20 1_555 1_555
C21 N8 1_555 1_555
C22 N10 1_555 1_555
C23 N11 1_555 1_555
C24 C23 1_555 1_555
H17 C24 1_555 1_555
C25 C24 1_555 1_555
H18 C25 1_555 1_555
C26 C25 1_555 1_555
H19 C26 1_555 1_555
C27 C26 1_555 1_555
H20 C27 1_555 1_555
C28 N12 1_555 1_555
N1A C1A 1_555 1_555
N2A C1A 1_555 1_555
N3A Mn2 1_555 1_555
N4A C4A 1_555 1_555
N5A C7A 1_555 1_555
N6A C8A 1_555 1_555
N7A C15A 1_555 1_555
N8A C15A 1_555 1_555
N9A Mn2 1_555 1_555
N10A C18A 1_555 1_555
N11A C21A 1_555 1_555
N12A C22A 1_555 1_555
N16A Mn2 1_555 1_555
N17A N16A 1_555 1_555
N18A N17A 1_555 1_555
C1A H1A 1_555 1_555
C2A N1A 1_555 1_555
H2A C2A 1_555 1_555
C3A N2A 1_555 1_555
H3A C3A 1_555 1_555
C4A N3A 1_555 1_555
H4A C4A 1_555 1_555
C5A N3A 1_555 1_555
H5A C5A 1_555 1_555
C6A N4A 1_555 1_555
H6A C6A 1_555 1_555
C7A N2A 1_555 1_555
C8A N4A 1_555 1_555
C9A N5A 1_555 1_555
C10A C9A 1_555 1_555
H7A C10A 1_555 1_555
C11A C10A 1_555 1_555
H8A C11A 1_555 1_555
C12A C11A 1_555 1_555
H9A C12A 1_555 1_555
C13A C12A 1_555 1_555
H10A C13A 1_555 1_555
C14A N6A 1_555 1_555
C15A H11A 1_555 1_555
C16A N7A 1_555 1_555
H12A C16A 1_555 1_555
C17A N8A 1_555 1_555
H13A C17A 1_555 1_555
C18A N9A 1_555 1_555
H14A C18A 1_555 1_555
C19A N9A 1_555 1_555
H15A C19A 1_555 1_555
C20A N10A 1_555 1_555
H16A C20A 1_555 1_555
C21A N8A 1_555 1_555
C22A N10A 1_555 1_555
C23A N11A 1_555 1_555
C24A C23A 1_555 1_555
H17A C24A 1_555 1_555
C25A C24A 1_555 1_555
H18A C25A 1_555 1_555
C26A C25A 1_555 1_555
H19A C26A 1_555 1_555
C27A C26A 1_555 1_555
H20A C27A 1_555 1_555
C28A N12A 1_555 1_555
N13A Mn1 1_555 1_555
N14A N13A 1_555 1_555
N15A N14A 1_555 1_555
Mn1_2 N1A 1_555 1_555
N1A_2 Mn1 1_555 1_555
N7A_2 Mn1 1_555 1_555
C2 C3 1_555 1_555
C5 C6 1_555 1_555
C7 C8 1_555 1_555
C9 C14 1_555 1_555
C13 C14 1_555 1_555
C16 C17 1_555 1_555
C19 C20 1_555 1_555
C21 C22 1_555 1_555
C23 C28 1_555 1_555
C27 C28 1_555 1_555
N7A Mn1_2 1_555 1_555
C2A C3A 1_555 1_555
C5A C6A 1_555 1_555
C7A C8A 1_555 1_555
C9A C14A 1_555 1_555
C13A C14A 1_555 1_555
C16A C17A 1_555 1_555
C19A C20A 1_555 1_555
C21A C22A 1_555 1_555
C23A C28A 1_555 1_555
C27A C28A 1_555 1_555

#END
