
#######################################################################
#
#                 Cambridge Crystallographic Data Centre
#                                CCDC 
#
#######################################################################
#
# If this CIF has been generated from an entry in the Cambridge 
# Structural Database, then it will include bibliographic, chemical, 
# crystal, experimental, refinement or atomic coordinate data resulting 
# from the CCDC's data processing and validation procedures.
#
#######################################################################

data_KOGBUF
_symmetry_cell_setting           orthorhombic
_symmetry_space_group_name_H-M   'P c a 21'
_symmetry_Int_Tables_number      29
_space_group_name_Hall           'P 2c -2ac'
loop_
_symmetry_equiv_pos_site_id
_symmetry_equiv_pos_as_xyz
1 x,y,z
2 -x,-y,1/2+z
3 1/2-x,y,1/2+z
4 1/2+x,-y,z
_cell_length_a                   13.2738(14)
_cell_length_b                   3.8034(4)
_cell_length_c                   15.2172(15)
_cell_angle_alpha                90
_cell_angle_beta                 90
_cell_angle_gamma                90
_cell_volume                     768.249
loop_
_atom_site_label
_atom_site_type_symbol
_atom_site_fract_x
_atom_site_fract_y
_atom_site_fract_z
K1 K 0.06983(7) 0.1729(2) 0.41188(6)
O1 O 0.2088(3) 0.6145(11) 0.3136(2)
O2 O 0.1303(3) 0.9611(12) 0.2237(2)
O3 O 0.1148(2) 0.8471(10) 0.0448(2)
O4 O 0.2307(2) 1.0967(9) -0.0319(2)
O5 O -0.06094(11) 0.6671(4) 0.36438(9)
H1 H -0.1083 0.7509 0.4010
H2 H -0.0789 0.5821 0.3114
N1 N 0.37208(11) 0.7184(4) 0.05672(9)
N2 N 0.36730(11) 0.5751(4) 0.20203(9)
N3 N 0.20007(11) 0.7590(4) 0.24198(9)
N4 N 0.20294(11) 0.9203(4) 0.03061(9)
C1 C 0.42222(11) 0.5942(4) 0.12683(9)
H3 H 0.4909 0.5249 0.1240
C2 C 0.2765(3) 0.7054(12) 0.1779(3)
C3 C 0.2808(4) 0.7915(13) 0.0885(3)
K1_2 K 0.06983(7) 1.1729(2) 0.41188(6)
K1A K -0.06983(7) 0.8271(2) -0.08812(6)
K1B K 0.43017(7) 0.1729(2) -0.08812(6)
K1B_2 K 0.43017(7) 1.1729(2) -0.08812(6)
O1_2 O 0.2088(3) -0.3855(11) 0.3136(2)
O2_2 O 0.1303(3) -0.0389(12) 0.2237(2)
O3A O -0.1148(2) 0.1529(10) 0.5448(2)
O4B O 0.2693(2) 0.0967(9) 0.4681(2)
O5_2 O -0.06094(11) -0.3329(4) 0.36438(9)
N1B N 0.12792(11) -0.2816(4) 0.55672(9)
N1B_2 N 0.12792(11) 0.7184(4) 0.55672(9)
loop_
_geom_bond_atom_site_label_1
_geom_bond_atom_site_label_2
_geom_bond_site_symmetry_1
_geom_bond_site_symmetry_2
K1 O1 1_555 1_555
O1 N3 1_555 1_555
O2 N3 1_555 1_555
O3 N4 1_555 1_555
O4 N4 1_555 1_555
O5 K1 1_555 1_555
H1 O5 1_555 1_555
H2 O5 1_555 1_555
N1 C1 1_555 1_555
N2 C1 1_555 1_555
N3 C2 1_555 1_555
N4 C3 1_555 1_555
C1 H3 1_555 1_555
C2 N2 1_555 1_555
C3 N1 1_555 1_555
K1_2 O1 1_555 1_555
K1A O3 1_555 1_555
K1B N1 1_555 1_555
K1B_2 O4 1_555 1_555
O1_2 K1 1_555 1_555
O2_2 K1 1_555 1_555
O3A K1 1_555 1_555
O4B K1 1_555 1_555
O5_2 K1 1_555 1_555
N1B K1 1_555 1_555
N1B_2 K1 1_555 1_555
O2 K1_2 1_555 1_555
O5 K1_2 1_555 1_555
N1 K1B_2 1_555 1_555
C2 C3 1_555 1_555
K1_2 N1B_2 1_555 1_555

#END
