
#######################################################################
#
#                 Cambridge Crystallographic Data Centre
#                                CCDC 
#
#######################################################################
#
# If this CIF has been generated from an entry in the Cambridge 
# Structural Database, then it will include bibliographic, chemical, 
# crystal, experimental, refinement or atomic coordinate data resulting 
# from the CCDC's data processing and validation procedures.
#
#######################################################################

data_KOGBOY
_symmetry_cell_setting           monoclinic
_symmetry_space_group_name_H-M   'C 2/c'
_symmetry_Int_Tables_number      15
_space_group_name_Hall           '-C 2yn'
loop_
_symmetry_equiv_pos_site_id
_symmetry_equiv_pos_as_xyz
1 x,y,z
2 1/2+x,1/2+y,z
3 -x,y,1/2-z
4 1/2-x,1/2+y,1/2-z
5 -x,-y,-z
6 1/2-x,1/2-y,-z
7 x,-y,1/2+z
8 1/2+x,1/2-y,1/2+z
_cell_length_a                   23.840(2)
_cell_length_b                   20.5726(8)
_cell_length_c                   15.369(3)
_cell_angle_alpha                90
_cell_angle_beta                 127.126(2)
_cell_angle_gamma                90
_cell_volume                     6009.91
loop_
_atom_site_label
_atom_site_type_symbol
_atom_site_fract_x
_atom_site_fract_y
_atom_site_fract_z
Zn1 Zn 0.289587(16) -0.025526(17) 0.58569(2)
Cl1 Cl 0.23844(4) 0.03830(4) 0.64018(6)
Cl2 Cl 0.40195(3) 0.01360(4) 0.66677(5)
Cl3 Cl 0.29550(4) -0.12892(4) 0.64193(6)
Cl4 Cl 0.23296(4) -0.02311(4) 0.40297(5)
Zn2 Zn 0.51304(3) -0.28064(4) 0.73016(5)
Cl5 Cl 0.48290(12) -0.17731(10) 0.71386(12)
Cl6 Cl 0.52875(8) -0.26509(8) 0.59991(13)
Cl7 Cl 0.40404(6) -0.34226(7) 0.64450(10)
Cl8 Cl 0.41018(19) -0.3157(2) 0.6806(3)
Zn2B Zn 0.48696(3) -0.28064(4) 0.76984(5)
Cl5B Cl 0.51710(12) -0.17731(10) 0.78614(12)
Cl6B Cl 0.47125(8) -0.26509(8) 0.90009(13)
Cl7B Cl 0.59596(6) -0.34226(7) 0.85550(10)
Cl8B Cl 0.58982(19) -0.3157(2) 0.8194(3)
O9 O 0.42128(10) -0.52326(11) 0.67743(15)
H18 H 0.4257(10) -0.5591(6) 0.6591(16)
O10 O 0.28318(14) -0.10105(14) -0.16460(17)
H19 H 0.2697(12) -0.0637(5) -0.181(2)
Sm1 Sm 0.380553(6) -0.257503(6) 0.117394(9)
O1 O 0.42183(9) -0.17776(10) 0.25597(12)
O2 O 0.46511(8) -0.19963(10) 0.11465(13)
O3 O 0.28630(9) -0.25123(9) 0.13130(14)
O4 O 0.32255(9) -0.26265(10) -0.07603(14)
O5 O 0.43383(8) -0.31837(10) 0.28517(13)
O6 O 0.45095(8) -0.33995(9) 0.11374(14)
N1 N 0.47365(13) -0.05573(14) 0.57031(18)
H1 H 0.4721 -0.0338 0.6164
N2 N 0.31650(13) -0.20246(14) 0.47099(17)
H2 H 0.3322 -0.1935 0.5368
N3 N 0.47668(15) -0.45083(14) 0.5854(2)
H3 H 0.4741 -0.4710 0.6318
C1 C 0.47884(12) -0.17153(13) 0.34929(19)
C2 C 0.47762(12) -0.12612(13) 0.42639(18)
C3 C 0.53573(14) -0.12272(15) 0.53519(19)
H4 H 0.5769 -0.1446 0.5592
C4 C 0.53236(17) -0.08740(17) 0.6065(2)
H5 H 0.5708 -0.0855 0.6798
C5 C 0.41724(15) -0.05599(16) 0.4669(2)
H6 H 0.3775 -0.0324 0.4453
C6 C 0.41805(14) -0.09159(15) 0.3914(2)
H7 H 0.3790 -0.0922 0.3184
C7 C 0.24236(12) -0.24034(12) 0.1482(2)
C8 C 0.26804(12) -0.22802(13) 0.26381(19)
C9 C 0.33728(14) -0.24068(15) 0.3500(2)
H8 H 0.3678 -0.2580 0.3374
C10 C 0.36053(17) -0.2275(2) 0.4543(2)
H9 H 0.4069 -0.2361 0.5130
C11 C 0.25011(15) -0.19075(17) 0.3917(2)
H10 H 0.2210 -0.1734 0.4072
C12 C 0.22342(14) -0.20435(15) 0.2848(2)
H11 H 0.1761 -0.1975 0.2282
C13 C 0.48939(12) -0.34406(13) 0.36384(19)
C14 C 0.48342(13) -0.38481(14) 0.4394(2)
C15 C 0.54449(16) -0.40346(17) 0.5408(2)
H12 H 0.5886 -0.3934 0.5596
C16 C 0.5385(2) -0.43701(19) 0.6126(3)
H13 H 0.5787 -0.4497 0.6803
C17 C 0.41839(18) -0.4356(2) 0.4911(3)
H14 H 0.3755 -0.4476 0.4752
C18 C 0.41956(15) -0.40156(17) 0.4139(2)
H15 H 0.3780 -0.3905 0.3467
O7 O 0.31590(8) -0.36157(9) 0.05455(15)
H16 H 0.2746 -0.3551 0.0285
O8 O 0.32875(8) -0.14713(9) 0.03597(13)
H17 H 0.3191 -0.1449 -0.0250
Sm1B Sm 0.619447(6) -0.257503(6) 0.382606(9)
Sm1E Sm 0.119447(6) -0.242497(6) -0.117394(9)
O1B O 0.57817(9) -0.17776(10) 0.24403(12)
O2B O 0.53489(8) -0.19963(10) 0.38535(13)
O3E O 0.21370(9) -0.24877(9) -0.13130(14)
O3B O 0.71370(9) -0.25123(9) 0.36870(14)
O4E O 0.17745(9) -0.23735(10) 0.07603(14)
O4B O 0.67745(9) -0.26265(10) 0.57603(14)
O5B O 0.56617(8) -0.31837(10) 0.21483(13)
O6B O 0.54905(8) -0.33995(9) 0.38626(14)
N1B N 0.52635(13) -0.05573(14) -0.07031(18)
H1B H 0.5279 -0.0338 -0.1164
N2E N 0.18350(13) -0.29754(14) -0.47099(17)
H2E H 0.1678 -0.3065 -0.5368
N3B N 0.52332(15) -0.45083(14) -0.0854(2)
H3B H 0.5259 -0.4710 -0.1318
C1B C 0.52116(12) -0.17153(13) 0.15071(19)
C2B C 0.52238(12) -0.12612(13) 0.07361(18)
C3B C 0.46427(14) -0.12272(15) -0.03519(19)
H4B H 0.4231 -0.1446 -0.0592
C4B C 0.46764(17) -0.08740(17) -0.1065(2)
H5B H 0.4292 -0.0855 -0.1798
C5B C 0.58276(15) -0.05599(16) 0.0331(2)
H6B H 0.6225 -0.0324 0.0547
C6B C 0.58195(14) -0.09159(15) 0.1086(2)
H7B H 0.6210 -0.0922 0.1816
C7E C 0.25764(12) -0.25966(12) -0.1482(2)
C8E C 0.23196(12) -0.27198(13) -0.26381(19)
C9E C 0.16272(14) -0.25932(15) -0.3500(2)
H8E H 0.1322 -0.2420 -0.3374
C10E C 0.13947(17) -0.2725(2) -0.4543(2)
H9E H 0.0931 -0.2639 -0.5130
C11E C 0.24989(15) -0.30925(17) -0.3917(2)
H10E H 0.2790 -0.3266 -0.4072
C12E C 0.27658(14) -0.29565(15) -0.2848(2)
H11E H 0.3239 -0.3025 -0.2282
C13B C 0.51061(12) -0.34406(13) 0.13616(19)
C14B C 0.51658(13) -0.38481(14) 0.0606(2)
C15B C 0.45551(16) -0.40346(17) -0.0408(2)
H12B H 0.4114 -0.3934 -0.0596
C16B C 0.4615(2) -0.43701(19) -0.1126(3)
H13B H 0.4213 -0.4497 -0.1803
C17B C 0.58161(18) -0.4356(2) 0.0089(3)
H14B H 0.6245 -0.4476 0.0248
C18B C 0.58044(15) -0.40156(17) 0.0861(2)
H15B H 0.6220 -0.3905 0.1533
O7B O 0.68410(8) -0.36157(9) 0.44545(15)
H16B H 0.7254 -0.3551 0.4715
O8B O 0.67125(8) -0.14713(9) 0.46403(13)
H17B H 0.6809 -0.1449 0.5250
loop_
_geom_bond_atom_site_label_1
_geom_bond_atom_site_label_2
_geom_bond_site_symmetry_1
_geom_bond_site_symmetry_2
Sm1 O1 1_555 1_555
Zn1 Cl1 1_555 1_555
Zn2 Cl5 1_555 1_555
Cl2 Zn1 1_555 1_555
Cl3 Zn1 1_555 1_555
Cl4 Zn1 1_555 1_555
Cl5 Zn2B 1_555 1_555
Cl6 Zn2 1_555 1_555
Cl7 Zn2 1_555 1_555
Cl8 Zn2 1_555 1_555
O1 C1 1_555 1_555
O2 Sm1 1_555 1_555
O3 Sm1 1_555 1_555
O4 Sm1 1_555 1_555
O5 Sm1 1_555 1_555
O6 Sm1 1_555 1_555
N1 H1 1_555 1_555
N2 H2 1_555 1_555
N3 H3 1_555 1_555
C1 C2 1_555 1_555
C2 C3 1_555 1_555
C3 H4 1_555 1_555
C4 N1 1_555 1_555
H5 C4 1_555 1_555
C5 N1 1_555 1_555
H6 C5 1_555 1_555
C6 C2 1_555 1_555
H7 C6 1_555 1_555
C7 O3 1_555 1_555
C8 C7 1_555 1_555
C9 C8 1_555 1_555
H8 C9 1_555 1_555
C10 N2 1_555 1_555
H9 C10 1_555 1_555
C11 N2 1_555 1_555
H10 C11 1_555 1_555
C12 C8 1_555 1_555
H11 C12 1_555 1_555
C13 O5 1_555 1_555
C14 C13 1_555 1_555
C15 C14 1_555 1_555
H12 C15 1_555 1_555
C16 N3 1_555 1_555
H13 C16 1_555 1_555
C17 N3 1_555 1_555
H14 C17 1_555 1_555
C18 C14 1_555 1_555
H15 C18 1_555 1_555
O7 Sm1 1_555 1_555
H16 O7 1_555 1_555
O8 Sm1 1_555 1_555
H17 O8 1_555 1_555
O9 H18 1_555 1_555
O10 H19 1_555 1_555
Sm1B O1B 1_555 1_555
Sm1E O3E 1_555 1_555
Zn2B Zn2 1_555 1_555
Cl5B Zn2 1_555 1_555
Cl6B Zn2B 1_555 1_555
Cl7B Zn2 1_555 1_555
Cl8B Zn2 1_555 1_555
O1B C1B 1_555 1_555
O2B C1 1_555 1_555
O3E C7E 1_555 1_555
O3B Sm1B 1_555 1_555
O4E C7 1_555 1_555
O4B Sm1B 1_555 1_555
O5B Sm1B 1_555 1_555
O6B C13 1_555 1_555
N1B H1B 1_555 1_555
N2E H2E 1_555 1_555
N3B H3B 1_555 1_555
C1B O2 1_555 1_555
C2B C1B 1_555 1_555
C3B C2B 1_555 1_555
H4B C3B 1_555 1_555
C4B N1B 1_555 1_555
H5B C4B 1_555 1_555
C5B N1B 1_555 1_555
H6B C5B 1_555 1_555
C6B C2B 1_555 1_555
H7B C6B 1_555 1_555
C7E O4 1_555 1_555
C8E C7E 1_555 1_555
C9E C8E 1_555 1_555
H8E C9E 1_555 1_555
C10E N2E 1_555 1_555
H9E C10E 1_555 1_555
C11E N2E 1_555 1_555
H10E C11E 1_555 1_555
C12E C8E 1_555 1_555
H11E C12E 1_555 1_555
C13B O6 1_555 1_555
C14B C13B 1_555 1_555
C15B C14B 1_555 1_555
H12B C15B 1_555 1_555
C16B N3B 1_555 1_555
H13B C16B 1_555 1_555
C17B N3B 1_555 1_555
H14B C17B 1_555 1_555
C18B C14B 1_555 1_555
H15B C18B 1_555 1_555
O7B Sm1B 1_555 1_555
H16B O7B 1_555 1_555
O8B Sm1B 1_555 1_555
H17B O8B 1_555 1_555
Cl5 Cl5B 1_555 1_555
Cl7 Cl8 1_555 1_555
Cl7 Zn2B 1_555 1_555
Cl8 Zn2B 1_555 1_555
C3 C4 1_555 1_555
C5 C6 1_555 1_555
C9 C10 1_555 1_555
C11 C12 1_555 1_555
C15 C16 1_555 1_555
C17 C18 1_555 1_555
Sm1B O2B 1_555 1_555
Sm1B O6B 1_555 1_555
Sm1E O4E 1_555 1_555
Zn2B Cl5B 1_555 1_555
Zn2B Cl7B 1_555 1_555
Zn2B Cl8B 1_555 1_555
Cl7B Cl8B 1_555 1_555
O5B C13B 1_555 1_555
C3B C4B 1_555 1_555
C5B C6B 1_555 1_555
C9E C10E 1_555 1_555
C11E C12E 1_555 1_555
C15B C16B 1_555 1_555
C17B C18B 1_555 1_555

#END
