
#######################################################################
#
#                 Cambridge Crystallographic Data Centre
#                                CCDC 
#
#######################################################################
#
# If this CIF has been generated from an entry in the Cambridge 
# Structural Database, then it will include bibliographic, chemical, 
# crystal, experimental, refinement or atomic coordinate data resulting 
# from the CCDC's data processing and validation procedures.
#
#######################################################################

data_KOGBAL
_symmetry_cell_setting           monoclinic
_symmetry_space_group_name_H-M   'P 21/n'
_symmetry_Int_Tables_number      14
_space_group_name_Hall           '-P 2yn'
loop_
_symmetry_equiv_pos_site_id
_symmetry_equiv_pos_as_xyz
1 x,y,z
2 1/2-x,1/2+y,1/2-z
3 -x,-y,-z
4 1/2+x,1/2-y,1/2+z
_cell_length_a                   6.4701(3)
_cell_length_b                   14.2942(5)
_cell_length_c                   15.8828(6)
_cell_angle_alpha                90
_cell_angle_beta                 99.779(4)
_cell_angle_gamma                90
_cell_volume                     1447.58
loop_
_atom_site_label
_atom_site_type_symbol
_atom_site_fract_x
_atom_site_fract_y
_atom_site_fract_z
Ca1 Ca 0.31188(6) 0.29037(3) 0.50924(2)
O1 O -0.0475(2) 0.29427(11) 0.46370(9)
O2 O 0.3370(2) 0.43299(10) 0.41456(8)
O3 O 0.6458(2) 0.36747(11) 0.55395(10)
C1 C 0.2823(3) 0.24721(15) 0.72881(13)
O4 O 0.2138(3) 0.54573(11) 0.67136(10)
O5 O 0.1351(2) 0.32771(10) 0.07586(9)
O6 O 0.2103(3) 0.45328(11) 0.56336(9)
O7 O 0.1070(2) 0.51424(11) 0.82870(10)
O8 O 0.3083(3) 0.43148(12) 0.92053(10)
O9 O 0.3136(2) 0.49566(10) 0.28913(9)
N1 N 0.3097(2) 0.26143(11) 0.35250(10)
O10 O 0.2231(3) 0.13035(12) 0.50201(12)
N2 N 0.3207(3) 0.42674(11) 0.33533(10)
N3 N 0.2622(3) 0.21184(11) 0.21475(10)
N4 N 0.2797(3) 0.28737(12) 0.80457(10)
C2 C 0.2335(3) 0.38720(14) 0.69535(12)
O11 O 0.3781(3) 0.42323(12) 0.13321(10)
N5 N 0.2575(3) 0.30232(12) 0.66126(10)
C3 C 0.2819(3) 0.18939(14) 0.29827(12)
N6 N 0.2643(3) 0.35625(12) 0.13677(10)
N7 N 0.2166(3) 0.46774(12) 0.64026(11)
N8 N 0.2207(3) 0.44691(12) 0.84681(11)
C4 C 0.3099(3) 0.33592(13) 0.30009(12)
C5 C 0.2804(3) 0.30508(13) 0.21654(12)
C6 C 0.2478(3) 0.37842(14) 0.78275(12)
H1 H 0.296(4) 0.186(2) 0.7234(17)
H2 H 0.277(3) 0.1281(17) 0.3180(13)
H3 H -0.145(3) 0.3219(17) 0.4892(13)
H4 H -0.110(5) 0.275(2) 0.4118(9)
H5 H 0.653(4) 0.428(2) 0.5507(16)
H6 H 0.694(4) 0.3524(17) 0.6013(16)
H7 H 0.266(5) 0.089(2) 0.529(2)
H8 H 0.092(6) 0.113(2) 0.478(2)
Ca1C Ca -0.18812(6) 0.20963(3) 0.00924(2)
O5C O 0.6351(2) 0.17229(10) 0.57586(9)
loop_
_geom_bond_atom_site_label_1
_geom_bond_atom_site_label_2
_geom_bond_site_symmetry_1
_geom_bond_site_symmetry_2
Ca1 O1 1_555 1_555
O1 H3 1_555 1_555
O2 Ca1 1_555 1_555
O3 Ca1 1_555 1_555
C1 N4 1_555 1_555
O4 N7 1_555 1_555
O5 N6 1_555 1_555
O6 Ca1 1_555 1_555
O7 N8 1_555 1_555
O8 N8 1_555 1_555
O9 N2 1_555 1_555
N1 Ca1 1_555 1_555
O10 Ca1 1_555 1_555
N2 O2 1_555 1_555
N3 C3 1_555 1_555
N4 C6 1_555 1_555
C2 N5 1_555 1_555
O11 N6 1_555 1_555
N5 Ca1 1_555 1_555
C3 N1 1_555 1_555
N6 C5 1_555 1_555
N7 O6 1_555 1_555
N8 C6 1_555 1_555
C4 N1 1_555 1_555
C5 N3 1_555 1_555
C6 C2 1_555 1_555
H1 C1 1_555 1_555
H2 C3 1_555 1_555
H4 O1 1_555 1_555
H5 O3 1_555 1_555
H6 O3 1_555 1_555
H7 O10 1_555 1_555
H8 O10 1_555 1_555
Ca1C O5 1_555 1_555
O5C Ca1 1_555 1_555
C1 N5 1_555 1_555
N2 C4 1_555 1_555
C2 N7 1_555 1_555
C4 C5 1_555 1_555

#END
