
#######################################################################
#
#                 Cambridge Crystallographic Data Centre
#                                CCDC 
#
#######################################################################
#
# If this CIF has been generated from an entry in the Cambridge 
# Structural Database, then it will include bibliographic, chemical, 
# crystal, experimental, refinement or atomic coordinate data resulting 
# from the CCDC's data processing and validation procedures.
#
#######################################################################

data_KOGBEP
_symmetry_cell_setting           monoclinic
_symmetry_space_group_name_H-M   'C 2/c'
_symmetry_Int_Tables_number      15
_space_group_name_Hall           '-C 2yn'
loop_
_symmetry_equiv_pos_site_id
_symmetry_equiv_pos_as_xyz
1 x,y,z
2 -x,y,1/2-z
3 1/2+x,1/2+y,z
4 1/2-x,1/2+y,1/2-z
5 -x,-y,-z
6 x,-y,1/2+z
7 1/2-x,1/2-y,-z
8 1/2+x,1/2-y,1/2+z
_cell_length_a                   18.9556(15)
_cell_length_b                   6.5074(3)
_cell_length_c                   14.4955(12)
_cell_angle_alpha                90
_cell_angle_beta                 118.804(10)
_cell_angle_gamma                90
_cell_volume                     1566.81
loop_
_atom_site_label
_atom_site_type_symbol
_atom_site_fract_x
_atom_site_fract_y
_atom_site_fract_z
Ba1 Ba 0.0000 0.22843(4) 0.2500
O1 O 0.12402(13) 0.2481(3) 0.16903(17)
O2 O -0.02407(13) -0.0995(3) 0.12147(17)
O3 O 0.23965(14) 0.1559(3) 0.18706(17)
O4 O -0.09457(5) 0.58086(12) 0.18976(7)
H1 H -0.1007 0.6124 0.2413
H2 H -0.1556 0.5623 0.1284
O5 O 0.37802(5) 0.25879(12) 0.36859(7)
O6 O 0.42876(5) 0.12724(12) 0.52508(7)
N1 N 0.16104(5) 0.05815(12) 0.35221(7)
N2 N 0.28332(5) 0.01892(12) 0.49590(7)
N3 N 0.19327(5) 0.18111(12) 0.22202(7)
N4 N 0.37100(5) 0.16393(12) 0.43746(7)
C1 C 0.20403(5) -0.00284(12) 0.45362(7)
H3 H 0.1798 -0.0737 0.4976
C2 C 0.21792(5) 0.12004(12) 0.32887(7)
C3 C 0.29290(5) 0.09824(12) 0.41672(7)
H4 H -0.0437 -0.2107 0.1382
H5 H 0.0112 -0.1478 0.1020
O1A O -0.12402(13) 0.2481(3) 0.33097(17)
O2A O 0.02407(13) -0.0995(3) 0.37853(17)
O3A O -0.23965(14) 0.1559(3) 0.31294(17)
O4A O 0.09457(5) 0.58086(12) 0.31024(7)
H1A H 0.1007 0.6124 0.2587
H2A H 0.1556 0.5623 0.3716
O5A O -0.37802(5) 0.25879(12) 0.13141(7)
O6A O -0.42876(5) 0.12724(12) -0.02508(7)
N1A N -0.16104(5) 0.05815(12) 0.14779(7)
N2A N -0.28332(5) 0.01892(12) 0.00410(7)
N3A N -0.19327(5) 0.18111(12) 0.27798(7)
N4A N -0.37100(5) 0.16393(12) 0.06254(7)
C1A C -0.20403(5) -0.00284(12) 0.04638(7)
H3A H -0.1798 -0.0737 0.0024
C2A C -0.21792(5) 0.12004(12) 0.17113(7)
C3A C -0.29290(5) 0.09824(12) 0.08328(7)
H4A H 0.0437 -0.2107 0.3618
H5A H -0.0112 -0.1478 0.3980
Ba1F Ba -0.5000 0.27157(4) -0.2500
Ba1F_2 Ba 0.5000 0.27157(4) 0.7500
O6F O 0.07124(5) 0.37276(12) 0.47492(7)
O6G O -0.07124(5) 0.37276(12) 0.02508(7)
loop_
_geom_bond_atom_site_label_1
_geom_bond_atom_site_label_2
_geom_bond_site_symmetry_1
_geom_bond_site_symmetry_2
Ba1 O1 1_555 1_555
O1 N3 1_555 1_555
O2 Ba1 1_555 1_555
O3 N3 1_555 1_555
O4 Ba1 1_555 1_555
H1 O4 1_555 1_555
H2 O4 1_555 1_555
O5 N4 1_555 1_555
O6 N4 1_555 1_555
N1 Ba1 1_555 1_555
N2 C1 1_555 1_555
N3 C2 1_555 1_555
N4 C3 1_555 1_555
C1 N1 1_555 1_555
H3 C1 1_555 1_555
C2 N1 1_555 1_555
C3 N2 1_555 1_555
H4 O2 1_555 1_555
H5 O2 1_555 1_555
O1A Ba1 1_555 1_555
O2A Ba1 1_555 1_555
O3A N3A 1_555 1_555
O4A Ba1 1_555 1_555
H1A O4A 1_555 1_555
H2A O4A 1_555 1_555
O5A N4A 1_555 1_555
O6A N4A 1_555 1_555
N1A Ba1 1_555 1_555
N2A C1A 1_555 1_555
N3A O1A 1_555 1_555
N4A C3A 1_555 1_555
C1A N1A 1_555 1_555
H3A C1A 1_555 1_555
C2A N1A 1_555 1_555
C3A N2A 1_555 1_555
H4A O2A 1_555 1_555
H5A O2A 1_555 1_555
Ba1F O6A 1_555 1_555
Ba1F_2 O6 1_555 1_555
O6F Ba1 1_555 1_555
O6G Ba1 1_555 1_555
C2 C3 1_555 1_555
N3A C2A 1_555 1_555
C2A C3A 1_555 1_555

#END
