
#######################################################################
#
#                 Cambridge Crystallographic Data Centre
#                                CCDC 
#
#######################################################################
#
# If this CIF has been generated from an entry in the Cambridge 
# Structural Database, then it will include bibliographic, chemical, 
# crystal, experimental, refinement or atomic coordinate data resulting 
# from the CCDC's data processing and validation procedures.
#
#######################################################################

data_KOGCEP
_symmetry_cell_setting           monoclinic
_symmetry_space_group_name_H-M   'P 21/c'
_symmetry_Int_Tables_number      14
_space_group_name_Hall           '-P 2ybc'
loop_
_symmetry_equiv_pos_site_id
_symmetry_equiv_pos_as_xyz
1 x,y,z
2 -x,1/2+y,1/2-z
3 -x,-y,-z
4 x,1/2-y,1/2+z
_cell_length_a                   9.249(3)
_cell_length_b                   14.181(4)
_cell_length_c                   10.529(3)
_cell_angle_alpha                90.000
_cell_angle_beta                 95.738(4)
_cell_angle_gamma                90.000
_cell_volume                     1374.06
loop_
_atom_site_label
_atom_site_type_symbol
_atom_site_fract_x
_atom_site_fract_y
_atom_site_fract_z
O1 O 0.0104(3) 0.2625(2) -0.1484(3)
Gd1 Gd 0.1247 0.1337 -0.0295
N1 N 0.3880(3) 0.1768(2) 0.0646(3)
O2 O 0.8926(2) 0.1434(2) 0.0467(2)
O3 O 0.7533(3) 0.0141(2) 0.0384(3)
O4 O 0.2695(3) 0.3311(2) 0.2947(2)
O5 O 0.1496(2) 0.2641(2) 0.1220(2)
C1 C 0.7755(4) 0.1007(3) 0.0522(3)
C2 C 0.6467(4) 0.1587(2) 0.0829(3)
C3 C 0.6616(4) 0.2336(2) 0.1675(3)
H1 H 0.7535 0.2550 0.1985
C4 C 0.5382(4) 0.2763(3) 0.2056(4)
H2 H 0.5458 0.3248 0.2653
C5 C 0.4027(4) 0.2450(2) 0.1527(3)
C6 C 0.5072(3) 0.1334(2) 0.0337(3)
H3 H 0.4965 0.0835 -0.0237
C7 C 0.2632(4) 0.2843(2) 0.1936(3)
C8 C 0.1110(4) 0.0048(3) 0.2340(3)
C9 C 0.1707(4) -0.0129(3) 0.3691(3)
C10 C 0.1115(4) -0.0815(3) 0.4407(4)
H4 H 0.0354 -0.1175 0.4021
N2 N 0.1576(4) -0.0990(3) 0.5627(3)
C11 C 0.2666(5) -0.0469(3) 0.6159(4)
H5 H 0.2989 -0.0575 0.7012
C12 C 0.3343(5) 0.0220(3) 0.5511(4)
H6 H 0.4126 0.0554 0.5910
C13 C 0.2839(4) 0.0403(3) 0.4264(4)
H7 H 0.3255 0.0879 0.3812
O6 O 0.0180(3) -0.0509(2) 0.1833(2)
O7 O 0.1589(3) 0.0750(2) 0.1805(3)
H8 H 0.034(4) 0.280(3) -0.220(2)
H9 H -0.039(4) 0.307(2) -0.121(3)
Gd1_2 Gd 1.1247 0.1337 -0.0295
Gd1B Gd 0.8753 -0.1337 0.0295
Gd1B_2 Gd -0.1247 -0.1337 0.0295
Gd1C Gd 0.1247 0.3663 0.4705
O2_2 O -0.1074(2) 0.1434(2) 0.0467(2)
O3B O 0.2467(3) -0.0141(2) -0.0384(3)
O4C O 0.2695(3) 0.1689(2) -0.2053(2)
O6B O -0.0180(3) 0.0509(2) -0.1833(2)
loop_
_geom_bond_atom_site_label_1
_geom_bond_atom_site_label_2
_geom_bond_site_symmetry_1
_geom_bond_site_symmetry_2
O1 Gd1 1_555 1_555
Gd1 N1 1_555 1_555
N1 C5 1_555 1_555
O2 C1 1_555 1_555
O3 C1 1_555 1_555
O4 C7 1_555 1_555
O5 Gd1 1_555 1_555
C1 C2 1_555 1_555
C2 C3 1_555 1_555
C3 H1 1_555 1_555
C4 C3 1_555 1_555
H2 C4 1_555 1_555
C5 C4 1_555 1_555
C6 N1 1_555 1_555
H3 C6 1_555 1_555
C7 O5 1_555 1_555
C8 C9 1_555 1_555
C9 C10 1_555 1_555
C10 H4 1_555 1_555
N2 C10 1_555 1_555
C11 N2 1_555 1_555
H5 C11 1_555 1_555
C12 C11 1_555 1_555
H6 C12 1_555 1_555
C13 C9 1_555 1_555
H7 C13 1_555 1_555
O6 C8 1_555 1_555
O7 Gd1 1_555 1_555
H8 O1 1_555 1_555
H9 O1 1_555 1_555
Gd1_2 O2 1_555 1_555
Gd1B O3 1_555 1_555
Gd1B_2 O6 1_555 1_555
Gd1C O4 1_555 1_555
O2_2 Gd1 1_555 1_555
O3B Gd1 1_555 1_555
O4C Gd1 1_555 1_555
O6B Gd1 1_555 1_555
C2 C6 1_555 1_555
C5 C7 1_555 1_555
C8 O7 1_555 1_555
C12 C13 1_555 1_555

#END
