
#######################################################################
#
#                 Cambridge Crystallographic Data Centre
#                                CCDC 
#
#######################################################################
#
# If this CIF has been generated from an entry in the Cambridge 
# Structural Database, then it will include bibliographic, chemical, 
# crystal, experimental, refinement or atomic coordinate data resulting 
# from the CCDC's data processing and validation procedures.
#
#######################################################################

data_KOGCAM
_symmetry_cell_setting           orthorhombic
_symmetry_space_group_name_H-M   'P c a 21'
_symmetry_Int_Tables_number      29
_space_group_name_Hall           'P 2c -2ac'
loop_
_symmetry_equiv_pos_site_id
_symmetry_equiv_pos_as_xyz
1 x,y,z
2 -x,-y,1/2+z
3 1/2-x,y,1/2+z
4 1/2+x,-y,z
_cell_length_a                   12.8420(6)
_cell_length_b                   3.6205(2)
_cell_length_c                   14.7551(6)
_cell_angle_alpha                90
_cell_angle_beta                 90
_cell_angle_gamma                90
_cell_volume                     686.03
loop_
_atom_site_label
_atom_site_type_symbol
_atom_site_fract_x
_atom_site_fract_y
_atom_site_fract_z
Na1 Na 0.92470(8) 0.5800(3) 0.72216(7)
O1 O 0.73342(13) 0.6690(5) 0.66572(12)
O2 O 1.03571(13) 1.0753(5) 0.75762(13)
O3 O 0.63196(15) 0.5020(6) 0.39909(13)
O4 O 0.61553(13) 0.3966(5) 0.58486(13)
O5 O 0.71722(15) 0.1445(6) 0.30840(12)
N1 N 0.87918(15) 0.1139(6) 0.42630(14)
N2 N 0.88183(15) 0.2819(6) 0.57522(13)
N3 N 0.70666(15) 0.4790(6) 0.60002(15)
N4 N 0.70594(17) 0.2987(6) 0.38245(14)
C1 C 0.78450(18) 0.2432(7) 0.44993(17)
C2 C 0.78711(19) 0.3459(6) 0.54060(16)
C3 C 0.9332(2) 0.1411(7) 0.50324(18)
H1 H 1.002(3) 0.058(8) 0.503(2)
H2 H 1.069(3) 1.025(10) 0.813(3)
H3 H 1.086(3) 1.115(10) 0.723(3)
Na1_2 Na 0.92470(8) 1.5800(3) 0.72216(7)
Na1B Na 0.57530(8) -0.4200(3) 0.22216(7)
Na1B_2 Na 0.57530(8) 0.5800(3) 0.22216(7)
O2_2 O 1.03571(13) 0.0753(5) 0.75762(13)
O3B O 0.86804(15) 0.5020(6) 0.89909(13)
O5B O 0.78278(15) 0.1445(6) 0.80840(12)
O5B_2 O 0.78278(15) 1.1445(6) 0.80840(12)
loop_
_geom_bond_atom_site_label_1
_geom_bond_atom_site_label_2
_geom_bond_site_symmetry_1
_geom_bond_site_symmetry_2
Na1 O1 1_555 1_555
O1 N3 1_555 1_555
O2 Na1 1_555 1_555
O3 N4 1_555 1_555
O4 N3 1_555 1_555
O5 N4 1_555 1_555
N1 C1 1_555 1_555
N2 Na1 1_555 1_555
N3 C2 1_555 1_555
N4 C1 1_555 1_555
C1 C2 1_555 1_555
C2 N2 1_555 1_555
C3 N1 1_555 1_555
H1 C3 1_555 1_555
H2 O2 1_555 1_555
H3 O2 1_555 1_555
Na1_2 O2 1_555 1_555
Na1B O5 1_555 1_555
Na1B_2 O3 1_555 1_555
O2_2 Na1 1_555 1_555
O3B Na1 1_555 1_555
O5B Na1 1_555 1_555
O5B_2 Na1 1_555 1_555
O5 Na1B_2 1_555 1_555
N2 C3 1_555 1_555
Na1_2 O5B_2 1_555 1_555

#END
