
#######################################################################
#
#                 Cambridge Crystallographic Data Centre
#                                CCDC 
#
#######################################################################
#
# If this CIF has been generated from an entry in the Cambridge 
# Structural Database, then it will include bibliographic, chemical, 
# crystal, experimental, refinement or atomic coordinate data resulting 
# from the CCDC's data processing and validation procedures.
#
#######################################################################

data_KOGCEP02
_symmetry_cell_setting           monoclinic
_symmetry_space_group_name_H-M   'P 21/c'
_symmetry_Int_Tables_number      14
_space_group_name_Hall           '-P 2ybc'
loop_
_symmetry_equiv_pos_site_id
_symmetry_equiv_pos_as_xyz
1 x,y,z
2 -x,1/2+y,1/2-z
3 -x,-y,-z
4 x,1/2-y,1/2+z
_cell_length_a                   9.2511(14)
_cell_length_b                   14.186(2)
_cell_length_c                   10.5267(15)
_cell_angle_alpha                90
_cell_angle_beta                 95.737(2)
_cell_angle_gamma                90
_cell_volume                     1374.56
loop_
_atom_site_label
_atom_site_type_symbol
_atom_site_fract_x
_atom_site_fract_y
_atom_site_fract_z
Gd1 Gd 0.624703(16) 0.133791(10) -0.029598(15)
O1 O 0.6496(2) 0.26442(16) 0.1229(2)
O2 O 0.7694(2) 0.33094(17) 0.2948(2)
O3 O 1.3932(3) 0.14350(17) 0.0468(3)
O4 O 1.2534(3) 0.01387(16) 0.0385(3)
O5 O 0.6593(3) 0.07474(18) 0.1805(2)
O6 O 0.5180(3) -0.05106(18) 0.1837(3)
O7 O 0.5106(3) 0.26267(18) -0.1482(3)
N1 N 0.8875(3) 0.1768(2) 0.0651(3)
N2 N 0.6574(4) -0.0983(3) 0.5627(3)
C1 C 0.7633(3) 0.2837(2) 0.1937(3)
C2 C 0.9037(3) 0.2450(2) 0.1536(3)
C3 C 1.0389(4) 0.2756(2) 0.2059(4)
H1 H 1.0469 0.3238 0.2661
C4 C 1.1616(4) 0.2334(2) 0.1674(3)
H2 H 1.2535 0.2551 0.1976
C5 C 1.1464(4) 0.1589(2) 0.0839(4)
C6 C 1.0077(4) 0.1329(2) 0.0335(4)
H3 H 0.9975 0.0832 -0.0243
C7 C 1.2756(3) 0.1003(2) 0.0524(3)
C8 C 0.6111(4) 0.0044(2) 0.2339(3)
C9 C 0.6708(4) -0.0133(2) 0.3682(3)
C10 C 0.7841(4) 0.0398(3) 0.4259(4)
H4 H 0.8263 0.0870 0.3807
C11 C 0.8334(5) 0.0221(3) 0.5505(4)
H5 H 0.9113 0.0558 0.5906
C12 C 0.7656(5) -0.0462(3) 0.6149(4)
H6 H 0.7977 -0.0564 0.7003
C13 C 0.6112(4) -0.0819(3) 0.4405(4)
H7 H 0.5353 -0.1183 0.4022
H8 H 0.532(4) 0.273(2) -0.2233(16)
H9 H 0.459(3) 0.3044(18) -0.116(3)
Gd1C Gd 0.624703(16) 0.366209(10) 0.470402(15)
Gd1_2 Gd 1.624703(16) 0.133791(10) -0.029598(15)
Gd1B Gd 1.375297(16) -0.133791(10) 0.029598(15)
Gd1B_2 Gd 0.375297(16) -0.133791(10) 0.029598(15)
O2C O 0.7694(2) 0.16906(17) -0.2052(2)
O3_2 O 0.3932(3) 0.14350(17) 0.0468(3)
O4B O 0.7466(3) -0.01387(16) -0.0385(3)
O6B O 0.4820(3) 0.05106(18) -0.1837(3)
loop_
_geom_bond_atom_site_label_1
_geom_bond_atom_site_label_2
_geom_bond_site_symmetry_1
_geom_bond_site_symmetry_2
Gd1 O1 1_555 1_555
O1 C1 1_555 1_555
O2 C1 1_555 1_555
O3 C7 1_555 1_555
O4 C7 1_555 1_555
O5 Gd1 1_555 1_555
O6 C8 1_555 1_555
O7 Gd1 1_555 1_555
N1 Gd1 1_555 1_555
N2 C12 1_555 1_555
C1 C2 1_555 1_555
C2 N1 1_555 1_555
C3 C2 1_555 1_555
H1 C3 1_555 1_555
C4 C3 1_555 1_555
H2 C4 1_555 1_555
C5 C4 1_555 1_555
C6 N1 1_555 1_555
H3 C6 1_555 1_555
C7 C5 1_555 1_555
C8 O5 1_555 1_555
C9 C8 1_555 1_555
C10 C9 1_555 1_555
H4 C10 1_555 1_555
C11 C10 1_555 1_555
H5 C11 1_555 1_555
C12 C11 1_555 1_555
H6 C12 1_555 1_555
C13 N2 1_555 1_555
H7 C13 1_555 1_555
H8 O7 1_555 1_555
H9 O7 1_555 1_555
Gd1C O2 1_555 1_555
Gd1_2 O3 1_555 1_555
Gd1B O4 1_555 1_555
Gd1B_2 O6 1_555 1_555
O2C Gd1 1_555 1_555
O3_2 Gd1 1_555 1_555
O4B Gd1 1_555 1_555
O6B Gd1 1_555 1_555
C5 C6 1_555 1_555
C9 C13 1_555 1_555

#END
