
#######################################################################
#
#                 Cambridge Crystallographic Data Centre
#                                CCDC 
#
#######################################################################
#
# If this CIF has been generated from an entry in the Cambridge 
# Structural Database, then it will include bibliographic, chemical, 
# crystal, experimental, refinement or atomic coordinate data resulting 
# from the CCDC's data processing and validation procedures.
#
#######################################################################

data_KOGCEP01
_symmetry_cell_setting           monoclinic
_symmetry_space_group_name_H-M   'P 21/c'
_symmetry_Int_Tables_number      14
_space_group_name_Hall           '-P 2ybc'
loop_
_symmetry_equiv_pos_site_id
_symmetry_equiv_pos_as_xyz
1 x,y,z
2 -x,1/2+y,1/2-z
3 -x,-y,-z
4 x,1/2-y,1/2+z
_cell_length_a                   9.221(9)
_cell_length_b                   14.179(14)
_cell_length_c                   10.516(10)
_cell_angle_alpha                90
_cell_angle_beta                 95.658(14)
_cell_angle_gamma                90
_cell_volume                     1368.21
loop_
_atom_site_label
_atom_site_type_symbol
_atom_site_fract_x
_atom_site_fract_y
_atom_site_fract_z
Gd1 Gd -0.124587(19) 0.366147(12) 0.029374(16)
O1 O 0.1071(3) 0.3567(2) -0.0470(3)
O2 O 0.2467(3) 0.4863(2) -0.0384(3)
O3 O 0.8511(3) 0.23603(19) -0.1234(3)
O4 O 0.7302(3) 0.1689(2) -0.2950(3)
O5 O 0.0185(4) 0.4484(2) 0.1836(3)
O6 O 0.1593(3) 0.5748(2) 0.1807(3)
O7 O -0.0112(3) 0.2367(2) 0.1479(3)
H1 H 0.0397 0.1954 0.1151
H2 H -0.0239 0.2303 0.2258
N1 N 0.6125(3) 0.3233(2) -0.0652(3)
C1 C 0.2250(4) 0.3995(3) -0.0520(3)
C2 C 0.3526(4) 0.3411(3) -0.0836(4)
C3 C 0.3383(4) 0.2660(3) -0.1673(4)
H3 H 0.2463 0.2438 -0.1974
C4 C 0.4607(4) 0.2245(3) -0.2055(4)
H4 H 0.4529 0.1763 -0.2656
C5 C 0.5959(4) 0.2550(3) -0.1539(3)
C6 C 0.7371(4) 0.2161(3) -0.1938(4)
C7 C 0.4929(4) 0.3671(3) -0.0335(4)
H5 H 0.5034 0.4169 0.0242
C8 C 0.1120(4) 0.5047(3) 0.2338(4)
C9 C 0.1717(4) 0.4869(3) 0.3686(4)
C10 C 0.1112(5) 0.4180(3) 0.4402(4)
H6 H 0.0349 0.3818 0.4018
N2 N 0.1585(5) 0.4016(3) 0.5628(4)
C11 C 0.2668(6) 0.4545(4) 0.6146(5)
H7 H 0.2993 0.4445 0.7001
C12 C 0.3339(6) 0.5231(3) 0.5501(4)
H8 H 0.4118 0.5572 0.5898
C13 C 0.2835(5) 0.5397(3) 0.4263(4)
H9 H 0.3252 0.5872 0.3808
Gd1B Gd 0.124587(19) 0.633853(12) -0.029374(16)
Gd1_2 Gd 0.875413(19) 0.366147(12) 0.029374(16)
Gd1C Gd 0.875413(19) 0.133853(12) -0.470626(16)
O2B O -0.2467(3) 0.5137(2) 0.0384(3)
O3_2 O -0.1489(3) 0.23603(19) -0.1234(3)
O4C O -0.2698(3) 0.3311(2) 0.2050(3)
O6B O -0.1593(3) 0.4252(2) -0.1807(3)
N1_2 N -0.3875(3) 0.3233(2) -0.0652(3)
loop_
_geom_bond_atom_site_label_1
_geom_bond_atom_site_label_2
_geom_bond_site_symmetry_1
_geom_bond_site_symmetry_2
Gd1 O1 1_555 1_555
O1 C1 1_555 1_555
O2 C1 1_555 1_555
O3 C6 1_555 1_555
O4 C6 1_555 1_555
O5 Gd1 1_555 1_555
O6 C8 1_555 1_555
O7 Gd1 1_555 1_555
H1 O7 1_555 1_555
H2 O7 1_555 1_555
N1 C5 1_555 1_555
C1 C2 1_555 1_555
C2 C3 1_555 1_555
C3 H3 1_555 1_555
C4 C3 1_555 1_555
H4 C4 1_555 1_555
C5 C4 1_555 1_555
C6 C5 1_555 1_555
C7 N1 1_555 1_555
H5 C7 1_555 1_555
C8 O5 1_555 1_555
C9 C8 1_555 1_555
C10 C9 1_555 1_555
H6 C10 1_555 1_555
N2 C10 1_555 1_555
C11 N2 1_555 1_555
H7 C11 1_555 1_555
C12 C11 1_555 1_555
H8 C12 1_555 1_555
C13 C9 1_555 1_555
H9 C13 1_555 1_555
Gd1B O2 1_555 1_555
Gd1_2 O3 1_555 1_555
Gd1C O4 1_555 1_555
O2B Gd1 1_555 1_555
O3_2 Gd1 1_555 1_555
O4C Gd1 1_555 1_555
O6B Gd1 1_555 1_555
N1_2 Gd1 1_555 1_555
O6 Gd1B 1_555 1_555
N1 Gd1_2 1_555 1_555
C2 C7 1_555 1_555
C12 C13 1_555 1_555

#END
