
#######################################################################
#
#                 Cambridge Crystallographic Data Centre
#                                CCDC 
#
#######################################################################
#
# If this CIF has been generated from an entry in the Cambridge 
# Structural Database, then it will include bibliographic, chemical, 
# crystal, experimental, refinement or atomic coordinate data resulting 
# from the CCDC's data processing and validation procedures.
#
#######################################################################

data_KOGDEQ
_symmetry_cell_setting           monoclinic
_symmetry_space_group_name_H-M   'C c'
_symmetry_Int_Tables_number      9
_space_group_name_Hall           'C -2yc'
loop_
_symmetry_equiv_pos_site_id
_symmetry_equiv_pos_as_xyz
1 x,y,z
2 x,-y,1/2+z
3 1/2+x,1/2+y,z
4 1/2+x,1/2-y,1/2+z
_cell_length_a                   16.477(2)
_cell_length_b                   16.642(2)
_cell_length_c                   28.101(2)
_cell_angle_alpha                90
_cell_angle_beta                 90.083(2)
_cell_angle_gamma                90
_cell_volume                     7705.57
loop_
_atom_site_label
_atom_site_type_symbol
_atom_site_fract_x
_atom_site_fract_y
_atom_site_fract_z
Sn1 Sn -0.41987(6) -0.07593(6) -0.22666(4)
Sn3 Sn -0.17065(6) 0.17431(6) -0.29243(4)
N1 N -0.3282(8) -0.0246(7) -0.1779(4)
N2 N -0.2986(7) -0.0640(7) -0.1383(4)
N3 N -0.2540(7) 0.0622(8) -0.1391(4)
N4 N -0.2080(10) 0.1252(8) -0.1229(5)
N9 N -0.5788(7) -0.2741(7) -0.3394(4)
N10 N -0.5502(7) -0.3145(7) -0.3794(4)
N11 N -0.5019(8) -0.1903(8) -0.3776(4)
N12 N -0.4499(8) -0.1286(7) -0.3920(5)
S1 S -0.3194(2) 0.1174(2) -0.22473(13)
S2 S -0.1035(5) 0.2533(4) -0.0824(3)
S5 S -0.5686(2) -0.1328(2) -0.29331(12)
S6 S -0.3394(3) 0.0006(3) -0.4265(2)
C1 C -0.3025(9) 0.0503(9) -0.1802(6)
C2 C -0.2525(8) -0.0129(8) -0.1159(5)
C3 C -0.2041(9) -0.0292(10) -0.0733(5)
C4 C -0.2014(10) 0.0208(12) -0.0354(6)
H1 H -0.2307 0.0686 -0.0363
C5 C -0.1564(13) 0.0030(16) 0.0044(6)
H2 H -0.1564 0.0370 0.0307
C6 C -0.1111(11) -0.0671(16) 0.0044(8)
H3 H -0.0791 -0.0788 0.0308
C7 C -0.1116(11) -0.1190(14) -0.0325(8)
H4 H -0.0818 -0.1664 -0.0315
C8 C -0.1585(10) -0.0991(10) -0.0721(6)
H5 H -0.1593 -0.1334 -0.0982
C9 C -0.2318(9) 0.1943(9) -0.1330(5)
H6 H -0.2787 0.2013 -0.1509
C10 C -0.1875(10) 0.2621(9) -0.1172(5)
C11 C -0.2007(12) 0.3423(9) -0.1292(6)
H7 H -0.2415 0.3601 -0.1495
C12 C -0.144(2) 0.3927(14) -0.1064(11)
H8 H -0.1445 0.4484 -0.1091
C13 C -0.0895(18) 0.3522(15) -0.0806(12)
H9 H -0.0480 0.3768 -0.0635
C14 C -0.3443(9) -0.0889(10) -0.2858(5)
H10 H -0.3407 -0.0386 -0.3023
H11 H -0.3664 -0.1290 -0.3067
H12 H -0.2912 -0.1052 -0.2755
C15 C -0.5121(9) 0.0137(10) -0.2164(7)
H13 H -0.5373 0.0059 -0.1860
H14 H -0.5522 0.0090 -0.2411
H15 H -0.4880 0.0661 -0.2176
C16 C -0.4359(11) -0.1819(9) -0.1842(6)
H16 H -0.4710 -0.1701 -0.1579
H17 H -0.3842 -0.1995 -0.1724
H18 H -0.4596 -0.2236 -0.2033
C33 C -0.5500(9) -0.2003(9) -0.3356(6)
C34 C -0.5010(8) -0.2647(7) -0.4004(4)
C35 C -0.4524(8) -0.2840(8) -0.4423(5)
C36 C -0.4460(10) -0.2326(9) -0.4803(6)
H37 H -0.4713 -0.1827 -0.4796
C37 C -0.4000(13) -0.2567(13) -0.5208(6)
H38 H -0.3976 -0.2234 -0.5473
C38 C -0.3599(11) -0.3279(11) -0.5209(6)
H39 H -0.3270 -0.3419 -0.5465
C39 C -0.3684(10) -0.3804(10) -0.4821(6)
H40 H -0.3422 -0.4299 -0.4823
C40 C -0.4153(9) -0.3586(9) -0.4437(5)
H41 H -0.4222 -0.3942 -0.4185
C41 C -0.4764(9) -0.0570(9) -0.3818(5)
H42 H -0.5250 -0.0504 -0.3654
C42 C -0.4302(9) 0.0114(9) -0.3960(5)
C43 C -0.4503(11) 0.0915(8) -0.3877(6)
H43 H -0.4955 0.1097 -0.3711
C44 C -0.3891(13) 0.1411(11) -0.4092(8)
H44 H -0.3911 0.1969 -0.4087
C45 C -0.3298(13) 0.1010(11) -0.4296(7)
H45 H -0.2863 0.1260 -0.4445
C46 C -0.0958(9) 0.1631(10) -0.2307(5)
H46 H -0.0597 0.1183 -0.2345
H47 H -0.1294 0.1546 -0.2033
H48 H -0.0647 0.2114 -0.2265
C47 C -0.1838(10) 0.0645(9) -0.3303(6)
H49 H -0.2182 0.0729 -0.3575
H50 H -0.2077 0.0248 -0.3099
H51 H -0.1315 0.0463 -0.3407
C48 C -0.2609(10) 0.2621(10) -0.3028(6)
H52 H -0.2862 0.2542 -0.3332
H53 H -0.2367 0.3146 -0.3017
H54 H -0.3010 0.2577 -0.2781
Sn3B Sn -0.67065(6) -0.32569(6) -0.29243(4)
N9B N -0.0788(7) 0.2259(7) -0.3394(4)
Sn2 Sn -0.51649(6) 0.33033(7) -0.22780(4)
Sn4 Sn -0.76818(6) 0.08150(7) -0.29331(4)
N5 N -0.5687(7) 0.2384(7) -0.1791(4)
N6 N -0.5273(7) 0.2058(7) -0.1411(4)
N7 N -0.6512(7) 0.1606(8) -0.1427(4)
N8 N -0.7151(8) 0.1115(8) -0.1295(4)
N13 N -0.3226(8) 0.4904(8) -0.3405(5)
N14 N -0.2840(7) 0.4620(7) -0.3806(5)
N15 N -0.4076(8) 0.4151(8) -0.3768(5)
N16 N -0.4722(9) 0.3665(9) -0.3907(5)
S3 S -0.7113(2) 0.2288(2) -0.22661(13)
S4 S -0.8485(3) 0.0077(3) -0.0897(2)
S7 S -0.4627(2) 0.4791(2) -0.29158(13)
S8 S -0.5961(4) 0.2616(4) -0.4370(3)
C17 C -0.6432(10) 0.2076(9) -0.1812(5)
C18 C -0.5784(8) 0.1577(8) -0.1204(5)
C19 C -0.5550(9) 0.1045(8) -0.0810(5)
C20 C -0.4791(10) 0.0713(10) -0.0798(6)
H19 H -0.4426 0.0836 -0.1040
C21 C -0.4553(11) 0.0205(11) -0.0442(7)
H20 H -0.4034 -0.0016 -0.0441
C22 C -0.5108(15) 0.0020(11) -0.0076(7)
H21 H -0.4970 -0.0349 0.0159
C23 C -0.5842(15) 0.0383(11) -0.0070(8)
H22 H -0.6182 0.0306 0.0190
C24 C -0.6097(11) 0.0862(10) -0.0437(5)
H23 H -0.6623 0.1064 -0.0441
C25 C -0.7873(10) 0.1375(10) -0.1368(6)
H24 H -0.7946 0.1870 -0.1516
C26 C -0.8565(9) 0.0920(9) -0.1229(6)
C27 C -0.9379(9) 0.1135(10) -0.1316(6)
H25 H -0.9547 0.1582 -0.1489
C28 C -0.9897(10) 0.0574(12) -0.1103(8)
H26 H -1.0460 0.0609 -0.1119
C29 C -0.9509(10) -0.0020(10) -0.0873(7)
H27 H -0.9772 -0.0438 -0.0717
C30 C -0.4081(10) 0.3437(11) -0.1870(7)
H28 H -0.3711 0.3011 -0.1947
H29 H -0.4210 0.3416 -0.1537
H30 H -0.3833 0.3945 -0.1943
C31 C -0.5020(10) 0.2544(9) -0.2869(6)
H31 H -0.5526 0.2503 -0.3038
H32 H -0.4857 0.2020 -0.2763
H33 H -0.4613 0.2761 -0.3076
C32 C -0.6074(10) 0.4190(9) -0.2148(6)
H34 H -0.6541 0.4081 -0.2343
H35 H -0.5864 0.4712 -0.2225
H36 H -0.6228 0.4176 -0.1819
C49 C -0.3981(10) 0.4619(10) -0.3364(6)
C50 C -0.3363(9) 0.4145(8) -0.4008(5)
C51 C -0.3173(12) 0.3639(9) -0.4429(6)
C52 C -0.2440(13) 0.3248(10) -0.4441(7)
H55 H -0.2054 0.3328 -0.4204
C53 C -0.2293(19) 0.2730(14) -0.4817(10)
H56 H -0.1798 0.2463 -0.4828
C54 C -0.2835(19) 0.2596(13) -0.5168(8)
H57 H -0.2718 0.2240 -0.5414
C55 C -0.3533(18) 0.2979(14) -0.5157(6)
H58 H -0.3907 0.2898 -0.5401
C56 C -0.3724(14) 0.3510(11) -0.4783(6)
H59 H -0.4224 0.3771 -0.4778
C57 C -0.5434(10) 0.3851(10) -0.3805(5)
H60 H -0.5531 0.4300 -0.3616
C58 C -0.6099(10) 0.3385(10) -0.3974(6)
C59 C -0.6892(10) 0.3484(12) -0.3873(8)
H61 H -0.7084 0.3877 -0.3666
C60 C -0.7391(14) 0.2951(17) -0.4103(11)
H62 H -0.7949 0.2921 -0.4058
C61 C -0.6965(14) 0.2465(15) -0.4410(11)
H63 H -0.7205 0.2097 -0.4615
C62 C -0.7550(10) 0.0041(10) -0.2336(6)
H64 H -0.7089 -0.0302 -0.2383
H65 H -0.8030 -0.0280 -0.2302
H66 H -0.7472 0.0358 -0.2054
C63 C -0.6601(10) 0.0969(12) -0.3328(7)
H67 H -0.6702 0.1325 -0.3591
H68 H -0.6423 0.0458 -0.3447
H69 H -0.6189 0.1194 -0.3127
C64 C -0.8585(10) 0.1704(8) -0.3018(7)
H70 H -0.8510 0.1972 -0.3317
H71 H -0.8545 0.2087 -0.2764
H72 H -0.9111 0.1456 -0.3012
Sn4B Sn -0.26818(6) 0.58150(7) -0.29331(4)
N13B N -0.8226(8) -0.0096(8) -0.3405(5)
loop_
_geom_bond_atom_site_label_1
_geom_bond_atom_site_label_2
_geom_bond_site_symmetry_1
_geom_bond_site_symmetry_2
Sn1 N1 1_555 1_555
Sn2 N5 1_555 1_555
Sn3 S1 1_555 1_555
Sn4 S3 1_555 1_555
N1 N2 1_555 1_555
N2 C2 1_555 1_555
N3 N4 1_555 1_555
N4 C9 1_555 1_555
N5 N6 1_555 1_555
N6 C18 1_555 1_555
N7 N8 1_555 1_555
N8 C25 1_555 1_555
N9 N10 1_555 1_555
N10 C34 1_555 1_555
N11 N12 1_555 1_555
N12 C41 1_555 1_555
N13 N14 1_555 1_555
N14 C50 1_555 1_555
N15 N16 1_555 1_555
N16 C57 1_555 1_555
S1 C1 1_555 1_555
S2 C10 1_555 1_555
S3 C17 1_555 1_555
S4 C26 1_555 1_555
S5 Sn1 1_555 1_555
S6 C42 1_555 1_555
S7 Sn2 1_555 1_555
S8 C58 1_555 1_555
C1 N1 1_555 1_555
C2 N3 1_555 1_555
C3 C2 1_555 1_555
C4 C3 1_555 1_555
H1 C4 1_555 1_555
C5 C4 1_555 1_555
H2 C5 1_555 1_555
C6 C5 1_555 1_555
H3 C6 1_555 1_555
C7 C6 1_555 1_555
H4 C7 1_555 1_555
C8 C3 1_555 1_555
H5 C8 1_555 1_555
C9 H6 1_555 1_555
C10 C9 1_555 1_555
C11 C10 1_555 1_555
H7 C11 1_555 1_555
C12 C11 1_555 1_555
H8 C12 1_555 1_555
C13 S2 1_555 1_555
H9 C13 1_555 1_555
C14 Sn1 1_555 1_555
H10 C14 1_555 1_555
H11 C14 1_555 1_555
H12 C14 1_555 1_555
C15 Sn1 1_555 1_555
H13 C15 1_555 1_555
H14 C15 1_555 1_555
H15 C15 1_555 1_555
C16 Sn1 1_555 1_555
H16 C16 1_555 1_555
H17 C16 1_555 1_555
H18 C16 1_555 1_555
C17 N5 1_555 1_555
C18 N7 1_555 1_555
C19 C18 1_555 1_555
C20 C19 1_555 1_555
H19 C20 1_555 1_555
C21 C20 1_555 1_555
H20 C21 1_555 1_555
C22 C21 1_555 1_555
H21 C22 1_555 1_555
C23 C22 1_555 1_555
H22 C23 1_555 1_555
C24 C19 1_555 1_555
H23 C24 1_555 1_555
C25 H24 1_555 1_555
C26 C25 1_555 1_555
C27 C26 1_555 1_555
H25 C27 1_555 1_555
C28 C27 1_555 1_555
H26 C28 1_555 1_555
C29 S4 1_555 1_555
H27 C29 1_555 1_555
C30 Sn2 1_555 1_555
H28 C30 1_555 1_555
H29 C30 1_555 1_555
H30 C30 1_555 1_555
C31 Sn2 1_555 1_555
H31 C31 1_555 1_555
H32 C31 1_555 1_555
H33 C31 1_555 1_555
C32 Sn2 1_555 1_555
H34 C32 1_555 1_555
H35 C32 1_555 1_555
H36 C32 1_555 1_555
C33 N9 1_555 1_555
C34 N11 1_555 1_555
C35 C34 1_555 1_555
C36 C35 1_555 1_555
H37 C36 1_555 1_555
C37 C36 1_555 1_555
H38 C37 1_555 1_555
C38 C37 1_555 1_555
H39 C38 1_555 1_555
C39 C38 1_555 1_555
H40 C39 1_555 1_555
C40 C35 1_555 1_555
H41 C40 1_555 1_555
C41 H42 1_555 1_555
C42 C41 1_555 1_555
C43 C42 1_555 1_555
H43 C43 1_555 1_555
C44 C43 1_555 1_555
H44 C44 1_555 1_555
C45 S6 1_555 1_555
H45 C45 1_555 1_555
C46 Sn3 1_555 1_555
H46 C46 1_555 1_555
H47 C46 1_555 1_555
H48 C46 1_555 1_555
C47 Sn3 1_555 1_555
H49 C47 1_555 1_555
H50 C47 1_555 1_555
H51 C47 1_555 1_555
C48 Sn3 1_555 1_555
H52 C48 1_555 1_555
H53 C48 1_555 1_555
H54 C48 1_555 1_555
C49 N13 1_555 1_555
C50 N15 1_555 1_555
C51 C50 1_555 1_555
C52 C51 1_555 1_555
H55 C52 1_555 1_555
C53 C52 1_555 1_555
H56 C53 1_555 1_555
C54 C53 1_555 1_555
H57 C54 1_555 1_555
C55 C54 1_555 1_555
H58 C55 1_555 1_555
C56 C51 1_555 1_555
H59 C56 1_555 1_555
C57 H60 1_555 1_555
C58 C57 1_555 1_555
C59 C58 1_555 1_555
H61 C59 1_555 1_555
C60 C59 1_555 1_555
H62 C60 1_555 1_555
C61 S8 1_555 1_555
H63 C61 1_555 1_555
C62 Sn4 1_555 1_555
H64 C62 1_555 1_555
H65 C62 1_555 1_555
H66 C62 1_555 1_555
C63 Sn4 1_555 1_555
H67 C63 1_555 1_555
H68 C63 1_555 1_555
H69 C63 1_555 1_555
C64 Sn4 1_555 1_555
H70 C64 1_555 1_555
H71 C64 1_555 1_555
H72 C64 1_555 1_555
Sn3B N9 1_555 1_555
Sn4B N13 1_555 1_555
N9B Sn3 1_555 1_555
N13B Sn4 1_555 1_555
N3 C1 1_555 1_555
N7 C17 1_555 1_555
N11 C33 1_555 1_555
N15 C49 1_555 1_555
S5 C33 1_555 1_555
S7 C49 1_555 1_555
C7 C8 1_555 1_555
C12 C13 1_555 1_555
C23 C24 1_555 1_555
C28 C29 1_555 1_555
C39 C40 1_555 1_555
C44 C45 1_555 1_555
C55 C56 1_555 1_555
C60 C61 1_555 1_555

#END
