
#######################################################################
#
#                 Cambridge Crystallographic Data Centre
#                                CCDC 
#
#######################################################################
#
# If this CIF has been generated from an entry in the Cambridge 
# Structural Database, then it will include bibliographic, chemical, 
# crystal, experimental, refinement or atomic coordinate data resulting 
# from the CCDC's data processing and validation procedures.
#
#######################################################################

data_KOGFES
_symmetry_cell_setting           monoclinic
_symmetry_space_group_name_H-M   'P 21/c'
_symmetry_Int_Tables_number      14
_space_group_name_Hall           '-P 2ybc'
loop_
_symmetry_equiv_pos_site_id
_symmetry_equiv_pos_as_xyz
1 x,y,z
2 -x,1/2+y,1/2-z
3 -x,-y,-z
4 x,1/2-y,1/2+z
_cell_length_a                   11.929(9)
_cell_length_b                   6.704(3)
_cell_length_c                   15.865(13)
_cell_angle_alpha                90
_cell_angle_beta                 91.411(6)
_cell_angle_gamma                90
_cell_volume                     1268.37
loop_
_atom_site_label
_atom_site_type_symbol
_atom_site_fract_x
_atom_site_fract_y
_atom_site_fract_z
C1 C -0.2473(2) 0.1596(4) 0.15440(15)
C2 C -0.1356(2) 0.2553(4) 0.14016(16)
C3 C -0.1221(2) 0.4254(4) 0.18695(16)
C4 C -0.0279(2) 0.5439(5) 0.1828(2)
H1 H -0.0208 0.6609 0.2140
C5 C 0.0557(3) 0.4802(7) 0.1300(3)
H2 H 0.1206 0.5558 0.1254
C6 C 0.0441(3) 0.3071(7) 0.0845(3)
H3 H 0.1023 0.2657 0.0506
C7 C -0.0519(3) 0.1932(5) 0.0878(2)
H4 H -0.0600 0.0779 0.0556
C8 C -0.3874(2) 0.1285(4) 0.41924(16)
H5 H -0.3829 0.2668 0.4163
C9 C -0.3410(3) 0.0329(4) 0.48931(17)
C10 C -0.4004(2) -0.2629(4) 0.42490(15)
H6 H -0.4057 -0.4013 0.4260
C11 C -0.3476(2) -0.1682(4) 0.49270(16)
Cu1 Cu -0.49096(2) 0.18391(4) 0.247630(15)
N1 N -0.30721(16) 0.2560(3) 0.21308(13)
N2 N -0.43768(16) 0.0311(3) 0.35646(11)
N3 N -0.44346(16) -0.1678(3) 0.35896(12)
O1 O -0.28112(19) 0.0146(3) 0.11388(14)
O2 O -0.30351(17) 0.6284(3) 0.22300(15)
O3 O -0.49056(14) -0.0708(2) 0.19046(9)
O4 O -0.21579(18) 0.4353(3) 0.33621(12)
S1 S -0.24291(5) 0.45184(9) 0.24796(4)
H7 H -0.304(2) 0.109(4) 0.5297(15)
H8 H -0.313(2) -0.241(4) 0.5349(15)
H9 H -0.4245(17) -0.076(4) 0.1695(18)
Cu1A Cu -0.50904(2) -0.31609(4) 0.252370(15)
Cu1A_2 Cu -0.50904(2) 0.68391(4) 0.252370(15)
N3A N -0.55654(16) 0.3322(3) 0.14104(12)
O2A O -0.69649(17) 0.1284(3) 0.27700(15)
O3A O -0.50944(14) 0.4292(2) 0.30954(9)
H9A H -0.5755(17) 0.424(4) 0.3305(18)
loop_
_geom_bond_atom_site_label_1
_geom_bond_atom_site_label_2
_geom_bond_site_symmetry_1
_geom_bond_site_symmetry_2
C1 C2 1_555 1_555
C2 C3 1_555 1_555
C3 C4 1_555 1_555
C4 H1 1_555 1_555
C5 C4 1_555 1_555
H2 C5 1_555 1_555
C6 C5 1_555 1_555
H3 C6 1_555 1_555
C7 C2 1_555 1_555
H4 C7 1_555 1_555
C8 H5 1_555 1_555
C9 C8 1_555 1_555
C10 H6 1_555 1_555
C11 C9 1_555 1_555
Cu1 N1 1_555 1_555
N1 C1 1_555 1_555
N2 C8 1_555 1_555
N3 C10 1_555 1_555
O1 C1 1_555 1_555
O2 S1 1_555 1_555
O3 Cu1 1_555 1_555
O4 S1 1_555 1_555
S1 C3 1_555 1_555
H7 C9 1_555 1_555
H8 C11 1_555 1_555
H9 O3 1_555 1_555
Cu1A N3 1_555 1_555
Cu1A_2 O2 1_555 1_555
N3A Cu1 1_555 1_555
O2A Cu1 1_555 1_555
O3A Cu1 1_555 1_555
H9A O3A 1_555 1_555
C6 C7 1_555 1_555
C10 C11 1_555 1_555
Cu1 N2 1_555 1_555
N1 S1 1_555 1_555
N2 N3 1_555 1_555
O3 Cu1A 1_555 1_555
Cu1A_2 O3A 1_555 1_555

#END
