
#######################################################################
#
#                 Cambridge Crystallographic Data Centre
#                                CCDC 
#
#######################################################################
#
# If this CIF has been generated from an entry in the Cambridge 
# Structural Database, then it will include bibliographic, chemical, 
# crystal, experimental, refinement or atomic coordinate data resulting 
# from the CCDC's data processing and validation procedures.
#
#######################################################################

data_KOGGOD
_symmetry_cell_setting           monoclinic
_symmetry_space_group_name_H-M   'C 2/c'
_symmetry_Int_Tables_number      15
_space_group_name_Hall           '-C 2yn'
loop_
_symmetry_equiv_pos_site_id
_symmetry_equiv_pos_as_xyz
1 x,y,z
2 1/2+x,1/2+y,z
3 -x,y,1/2-z
4 1/2-x,1/2+y,1/2-z
5 -x,-y,-z
6 1/2-x,1/2-y,-z
7 x,-y,1/2+z
8 1/2+x,1/2-y,1/2+z
_cell_length_a                   25.436(3)
_cell_length_b                   6.9588(8)
_cell_length_c                   15.5506(17)
_cell_angle_alpha                90.00
_cell_angle_beta                 113.096(2)
_cell_angle_gamma                90.00
_cell_volume                     2531.9
loop_
_atom_site_label
_atom_site_type_symbol
_atom_site_fract_x
_atom_site_fract_y
_atom_site_fract_z
Zn1 Zn 0.176739(11) 0.83027(4) 0.232234(19)
N1 N 0.18214(8) 0.8243(3) 0.10670(14)
N2 N 0.10805(8) 0.9766(3) 0.22990(14)
N3 N 0.08673(9) 1.1322(3) 0.17538(16)
H1 H 0.1029 1.1878 0.1427
O1 O 0.13738(8) 0.5634(3) 0.17775(13)
O2 O 0.12387(10) 0.3604(3) 0.05971(15)
O3 O 0.22463(8) 1.0969(3) 0.22873(12)
O4 O 0.27055(7) 1.2262(3) 0.14648(12)
C1 C 0.20648(10) 0.9683(3) 0.07931(16)
C2 C 0.20673(11) 0.9705(4) -0.00955(17)
H2 H 0.2226 1.0726 -0.0296
C3 C 0.18257(12) 0.8160(4) -0.06740(18)
H3 H 0.1815 0.8151 -0.1279
C4 C 0.16004(12) 0.6636(4) -0.03686(19)
H4 H 0.1452 0.5574 -0.0750
C5 C 0.16009(11) 0.6721(3) 0.05250(17)
C6 C 0.13832(10) 0.5174(4) 0.10011(18)
C7 C 0.23513(10) 1.1103(4) 0.15728(17)
C8 C 0.08001(13) 0.7680(5) 0.3323(2)
H5 H 0.1152 0.7053 0.3403
H6 H 0.0490 0.6788 0.3064
H7 H 0.0818 0.8128 0.3918
C9 C 0.07076(10) 0.9336(3) 0.26787(17)
C10 C 0.02524(10) 1.0642(3) 0.23722(17)
C11 C 0.03708(11) 1.1891(4) 0.1787(2)
C12 C 0.00430(15) 1.3545(5) 0.1217(3)
H8 H 0.0253 1.4105 0.0885
H9 H -0.0014 1.4491 0.1621
H10 H -0.0321 1.3102 0.0778
Zn1C Zn 0.323261(11) 0.33027(4) 0.267766(19)
Zn1C_2 Zn 0.323261(11) 1.33027(4) 0.267766(19)
Zn1B Zn -0.176739(11) 0.83027(4) 0.267766(19)
N1C N 0.31786(8) 0.3243(3) 0.39330(14)
N2B N -0.10805(8) 0.9766(3) 0.27010(14)
N2C N 0.39195(8) 0.4766(3) 0.27010(14)
N3B N -0.08673(9) 1.1322(3) 0.32462(16)
H1B H -0.1029 1.1878 0.3573
O1C O 0.36262(8) 0.0634(3) 0.32225(13)
O2C O 0.37613(10) -0.1396(3) 0.44029(15)
O3C O 0.27537(8) 0.5969(3) 0.27127(12)
O4C O 0.22945(7) 0.7262(3) 0.35352(12)
O4_2 O 0.27055(7) 0.2262(3) 0.14648(12)
C1C C 0.29352(10) 0.4683(3) 0.42069(16)
C2C C 0.29327(11) 0.4705(4) 0.50955(17)
H2C H 0.2774 0.5726 0.5296
C3C C 0.31743(12) 0.3160(4) 0.56740(18)
H3C H 0.3185 0.3151 0.6279
C4C C 0.33996(12) 0.1636(4) 0.53686(19)
H4C H 0.3548 0.0574 0.5750
C5C C 0.33991(11) 0.1721(3) 0.44750(17)
C6C C 0.36168(10) 0.0174(4) 0.39989(18)
C7C C 0.26487(10) 0.6103(4) 0.34272(17)
C8B C -0.08001(13) 0.7680(5) 0.1677(2)
H5B H -0.1152 0.7053 0.1597
H6B H -0.0490 0.6788 0.1936
H7B H -0.0818 0.8128 0.1082
C9B C -0.07076(10) 0.9336(3) 0.23213(17)
C10B C -0.02524(10) 1.0642(3) 0.26278(17)
C11B C -0.03708(11) 1.1891(4) 0.3213(2)
C12B C -0.00430(15) 1.3545(5) 0.3783(3)
H8B H -0.0253 1.4105 0.4115
H9B H 0.0014 1.4491 0.3379
H10B H 0.0321 1.3102 0.4222
loop_
_geom_bond_atom_site_label_1
_geom_bond_atom_site_label_2
_geom_bond_site_symmetry_1
_geom_bond_site_symmetry_2
Zn1 N1 1_555 1_555
N1 C1 1_555 1_555
N2 Zn1 1_555 1_555
N3 N2 1_555 1_555
H1 N3 1_555 1_555
O1 Zn1 1_555 1_555
O2 C6 1_555 1_555
O3 Zn1 1_555 1_555
O4 C7 1_555 1_555
C1 C2 1_555 1_555
C2 H2 1_555 1_555
C3 C2 1_555 1_555
H3 C3 1_555 1_555
C4 C3 1_555 1_555
H4 C4 1_555 1_555
C5 N1 1_555 1_555
C6 O1 1_555 1_555
C7 O3 1_555 1_555
C8 H5 1_555 1_555
H6 C8 1_555 1_555
H7 C8 1_555 1_555
C9 N2 1_555 1_555
C10 C9 1_555 1_555
C11 N3 1_555 1_555
C12 C11 1_555 1_555
H8 C12 1_555 1_555
H9 C12 1_555 1_555
H10 C12 1_555 1_555
Zn1C N1C 1_555 1_555
Zn1C_2 O4 1_555 1_555
Zn1B N2B 1_555 1_555
N1C C1C 1_555 1_555
N2B N3B 1_555 1_555
N2C Zn1C 1_555 1_555
N3B H1B 1_555 1_555
O1C Zn1C 1_555 1_555
O2C C6C 1_555 1_555
O3C Zn1C 1_555 1_555
O4C Zn1 1_555 1_555
O4_2 Zn1C 1_555 1_555
C1C C2C 1_555 1_555
C2C H2C 1_555 1_555
C3C C2C 1_555 1_555
H3C C3C 1_555 1_555
C4C C3C 1_555 1_555
H4C C4C 1_555 1_555
C5C N1C 1_555 1_555
C6C O1C 1_555 1_555
C7C O3C 1_555 1_555
C8B H5B 1_555 1_555
H6B C8B 1_555 1_555
H7B C8B 1_555 1_555
C9B N2B 1_555 1_555
C10B C10 1_555 1_555
C11B N3B 1_555 1_555
C12B C11B 1_555 1_555
H8B C12B 1_555 1_555
H9B C12B 1_555 1_555
H10B C12B 1_555 1_555
C1 C7 1_555 1_555
C4 C5 1_555 1_555
C5 C6 1_555 1_555
C8 C9 1_555 1_555
C10 C11 1_555 1_555
O4C C7C 1_555 1_555
C1C C7C 1_555 1_555
C4C C5C 1_555 1_555
C5C C6C 1_555 1_555
C8B C9B 1_555 1_555
C9B C10B 1_555 1_555
C10B C11B 1_555 1_555

#END
