
#######################################################################
#
#                 Cambridge Crystallographic Data Centre
#                                CCDC 
#
#######################################################################
#
# If this CIF has been generated from an entry in the Cambridge 
# Structural Database, then it will include bibliographic, chemical, 
# crystal, experimental, refinement or atomic coordinate data resulting 
# from the CCDC's data processing and validation procedures.
#
#######################################################################

data_KOGGET
_symmetry_cell_setting           orthorhombic
_symmetry_space_group_name_H-M   'P 21 21 2'
_symmetry_Int_Tables_number      18
_space_group_name_Hall           'P 2 2ab'
loop_
_symmetry_equiv_pos_site_id
_symmetry_equiv_pos_as_xyz
1 x,y,z
2 -x,-y,z
3 1/2-x,1/2+y,-z
4 1/2+x,1/2-y,-z
_cell_length_a                   22.458(3)
_cell_length_b                   6.2300(10)
_cell_length_c                   9.464(2)
_cell_angle_alpha                90
_cell_angle_beta                 90
_cell_angle_gamma                90
_cell_volume                     1324.14
loop_
_atom_site_label
_atom_site_type_symbol
_atom_site_fract_x
_atom_site_fract_y
_atom_site_fract_z
Na1 Na 0.5000 0.0000 0.8474(2)
Na2 Na 0.5000 -0.5000 0.6557(2)
Na3 Na 0.64138(6) -0.7045(3) 0.58034(17)
Na4 Na 0.75389(6) -0.4135(2) 0.59232(14)
C1 C 0.64272(13) -0.3307(5) 0.8911(3)
C2 C 0.61816(13) -0.2955(5) 0.7444(3)
O1 O 0.65334(10) -0.3336(4) 0.6451(2)
O2 O 0.56660(10) -0.2248(4) 0.7319(3)
C3 C 0.62746(13) -0.5090(5) 0.9734(3)
C4 C 0.58489(14) -0.6774(5) 0.9184(3)
O3 O 0.57837(11) -0.6989(4) 0.7886(2)
O4 O 0.55588(13) -0.7835(5) 1.0075(3)
C5 C 0.65347(14) -0.5325(5) 1.1069(3)
H1 H 0.6435 -0.6506 1.1621
C6 C 0.69380(13) -0.3836(5) 1.1586(3)
C7 C 0.72273(13) -0.4129(5) 1.3008(3)
O5 O 0.70694(11) -0.5698(4) 1.3742(2)
O6 O 0.76154(11) -0.2789(4) 1.3373(2)
C8 C 0.70749(15) -0.2048(6) 1.0761(3)
H2 H 0.7341 -0.1024 1.1097
C9 C 0.68175(15) -0.1792(6) 0.9445(3)
H3 H 0.6908 -0.0583 0.8910
O7 O 0.64697(12) -1.0204(4) 0.4470(3)
H4 H 0.6198 -1.0439 0.3744
H5 H 0.6459 -1.1423 0.4974
O9 O 0.5530(2) -0.6405(12) 0.4562(4)
H8 H 0.5387 -0.6086 0.3721
H9 H 0.5347 -0.7632 0.4779
Na1_2 Na 0.5000 -1.0000 0.8474(2)
Na1_3 Na 0.5000 1.0000 0.8474(2)
Na2_2 Na 0.5000 0.5000 0.6557(2)
Na3A Na 0.35862(6) 0.7045(3) 0.58034(17)
Na3_2 Na 0.64138(6) -0.7045(3) 1.58034(17)
Na3B Na 0.85862(6) -0.2045(3) 1.41966(17)
Na3A_2 Na 0.35862(6) 0.7045(3) 1.58034(17)
Na3C Na 0.14138(6) 0.2045(3) 1.41966(17)
Na3A_3 Na 0.35862(6) -0.2955(3) 0.58034(17)
Na3B_2 Na 0.85862(6) -0.2045(3) 0.41966(17)
Na4A Na 0.24611(6) 0.4135(2) 0.59232(14)
Na4_2 Na 0.75389(6) -0.4135(2) 1.59232(14)
Na4B Na 0.74611(6) -0.9135(2) 1.40768(14)
Na4B_2 Na 0.74611(6) 0.0865(2) 1.40768(14)
Na4B_3 Na 0.74611(6) -0.9135(2) 0.40768(14)
Na4A_2 Na 0.24611(6) 0.4135(2) 1.59232(14)
Na4C Na 0.25389(6) 0.9135(2) 1.40768(14)
Na4C_2 Na 0.25389(6) -0.0865(2) 1.40768(14)
C1A C 0.35728(13) 0.3307(5) 0.8911(3)
C2A C 0.38184(13) 0.2955(5) 0.7444(3)
O1A O 0.34666(10) 0.3336(4) 0.6451(2)
O2A O 0.43340(10) 0.2248(4) 0.7319(3)
O2A_2 O 0.43340(10) -0.7752(4) 0.7319(3)
C3A C 0.37254(13) 0.5090(5) 0.9734(3)
C4A C 0.41511(14) 0.6774(5) 0.9184(3)
O3A O 0.42163(11) 0.6989(4) 0.7886(2)
O3_2 O 0.57837(11) 0.3011(4) 0.7886(2)
O3A_2 O 0.42163(11) -0.3011(4) 0.7886(2)
O4A O 0.44412(13) 0.7835(5) 1.0075(3)
O4_2 O 0.55588(13) 0.2165(5) 1.0075(3)
O4A_2 O 0.44412(13) -0.2165(5) 1.0075(3)
C5A C 0.34653(14) 0.5325(5) 1.1069(3)
H1A H 0.3565 0.6506 1.1621
C6A C 0.30620(13) 0.3836(5) 1.1586(3)
C7A C 0.27727(13) 0.4129(5) 1.3008(3)
O5A O 0.29306(11) 0.5698(4) 1.3742(2)
O5_2 O 0.70694(11) -0.5698(4) 0.3742(2)
O5B O 0.79306(11) -0.0698(4) 0.6258(2)
O5A_2 O 0.29306(11) 0.5698(4) 0.3742(2)
O5C O 0.20694(11) 0.0698(4) 0.6258(2)
O6A O 0.23846(11) 0.2789(4) 1.3373(2)
O6B O 0.73846(11) -0.7789(4) 0.6627(2)
O6_2 O 0.76154(11) -0.2789(4) 0.3373(2)
O6C O 0.26154(11) 0.7789(4) 0.6627(2)
O6A_2 O 0.23846(11) 0.2789(4) 0.3373(2)
C8A C 0.29251(15) 0.2048(6) 1.0761(3)
H2A H 0.2659 0.1024 1.1097
C9A C 0.31825(15) 0.1792(6) 0.9445(3)
H3A H 0.3092 0.0583 0.8910
O7B O 0.85303(12) -0.5204(4) 0.5530(3)
O7A O 0.35303(12) 1.0204(4) 0.4470(3)
O7C O 0.14697(12) 0.5204(4) 0.5530(3)
H4B H 0.8802 -0.5439 0.6256
H4A H 0.3802 1.0439 0.3744
H4C H 0.1198 0.5439 0.6256
H5B H 0.8541 -0.6423 0.5026
H5A H 0.3541 1.1423 0.4974
H5C H 0.1459 0.6423 0.5026
O9A O 0.4470(2) -0.3595(12) 0.4562(4)
O9A_2 O 0.4470(2) 0.6405(12) 0.4562(4)
H8A H 0.4613 -0.3914 0.3721
H8A_2 H 0.4613 0.6086 0.3721
H9A H 0.4653 -0.2368 0.4779
H9A_2 H 0.4653 0.7632 0.4779
O8 O 0.56611(16) -0.0670(7) 1.2335(4)
H6 H 0.5312 -0.1205 1.2313
H7 H 0.5753 0.0172 1.1566
O10 O 0.5000 1.0000 0.5232(13)
H10 H 0.5261 0.9297 0.5914
H10A H 0.4739 1.0703 0.5914
O11 O 0.5000 0.5000 1.1971(7)
H11 H 0.4739 0.6028 1.1594
H11A H 0.5261 0.3972 1.1594
loop_
_geom_bond_atom_site_label_1
_geom_bond_atom_site_label_2
_geom_bond_site_symmetry_1
_geom_bond_site_symmetry_2
Na1 O2 1_555 1_555
Na2 O2 1_555 1_555
Na3 O1 1_555 1_555
Na4 O1 1_555 1_555
C1 C2 1_555 1_555
C2 O1 1_555 1_555
O2 C2 1_555 1_555
C3 C1 1_555 1_555
C4 C3 1_555 1_555
O3 Na2 1_555 1_555
O4 C4 1_555 1_555
C5 C3 1_555 1_555
H1 C5 1_555 1_555
C6 C5 1_555 1_555
C7 C6 1_555 1_555
O5 C7 1_555 1_555
O6 C7 1_555 1_555
C8 C6 1_555 1_555
H2 C8 1_555 1_555
C9 C1 1_555 1_555
H3 C9 1_555 1_555
O7 Na3 1_555 1_555
H4 O7 1_555 1_555
H5 O7 1_555 1_555
O8 H6 1_555 1_555
H7 O8 1_555 1_555
O9 Na2 1_555 1_555
H8 O9 1_555 1_555
H9 O9 1_555 1_555
O10 H10 1_555 1_555
O11 H11 1_555 1_555
Na1_2 O3 1_555 1_555
Na1_3 O3A 1_555 1_555
Na2_2 O2A 1_555 1_555
Na3A O1A 1_555 1_555
Na3_2 O5 1_555 1_555
Na3B O6 1_555 1_555
Na3A_2 O5A 1_555 1_555
Na3C O6A 1_555 1_555
Na3A_3 O3A_2 1_555 1_555
Na3B_2 O5B 1_555 1_555
Na4A O1A 1_555 1_555
Na4_2 O5 1_555 1_555
Na4B O5 1_555 1_555
Na4B_2 O6 1_555 1_555
Na4B_3 O7 1_555 1_555
Na4A_2 O5A 1_555 1_555
Na4C O5A 1_555 1_555
Na4C_2 O6A 1_555 1_555
C1A C2A 1_555 1_555
C2A O1A 1_555 1_555
O2A Na1 1_555 1_555
O2A_2 Na2 1_555 1_555
C3A C1A 1_555 1_555
C4A C3A 1_555 1_555
O3A Na2_2 1_555 1_555
O3_2 Na1 1_555 1_555
O3A_2 Na1 1_555 1_555
O4A Na1_3 1_555 1_555
O4_2 Na1 1_555 1_555
O4A_2 Na1 1_555 1_555
C5A C3A 1_555 1_555
H1A C5A 1_555 1_555
C6A C5A 1_555 1_555
C7A C6A 1_555 1_555
O5A C7A 1_555 1_555
O5_2 Na3 1_555 1_555
O5B Na4 1_555 1_555
O5A_2 Na3A 1_555 1_555
O5C Na4A 1_555 1_555
O6A Na4A_2 1_555 1_555
O6B Na3 1_555 1_555
O6_2 Na4 1_555 1_555
O6C Na3A 1_555 1_555
O6A_2 Na4A 1_555 1_555
C8A C6A 1_555 1_555
H2A C8A 1_555 1_555
C9A C1A 1_555 1_555
H3A C9A 1_555 1_555
O7B Na4 1_555 1_555
O7A Na3A 1_555 1_555
O7C Na4A 1_555 1_555
H4B O7B 1_555 1_555
H4A O7A 1_555 1_555
H4C O7C 1_555 1_555
H5B O7B 1_555 1_555
H5A O7A 1_555 1_555
H5C O7C 1_555 1_555
O9A Na2 1_555 1_555
O9A_2 Na2_2 1_555 1_555
H8A O9A 1_555 1_555
H8A_2 O9A_2 1_555 1_555
H9A O9A 1_555 1_555
H9A_2 O9A_2 1_555 1_555
H10A O10 1_555 1_555
H11A O11 1_555 1_555
Na2 O3A_2 1_555 1_555
Na3 O3 1_555 1_555
Na3 O9 1_555 1_555
Na4 O5_2 1_555 1_555
Na4 O6B 1_555 1_555
C4 O3 1_555 1_555
O4 Na1_2 1_555 1_555
O6 Na4_2 1_555 1_555
C8 C9 1_555 1_555
Na1_2 O2A_2 1_555 1_555
Na2_2 O3_2 1_555 1_555
Na3A O3A 1_555 1_555
Na3A O9A_2 1_555 1_555
Na3A_3 O9A 1_555 1_555
Na3B_2 O6_2 1_555 1_555
Na3B_2 O7B 1_555 1_555
Na4A O5A_2 1_555 1_555
Na4A O6C 1_555 1_555
Na4B_3 O5_2 1_555 1_555
Na4B_3 O6B 1_555 1_555
C2A O2A 1_555 1_555
C4A O3A 1_555 1_555
C4A O4A 1_555 1_555
C7A O6A 1_555 1_555
C8A C9A 1_555 1_555

#END
