
#######################################################################
#
#                 Cambridge Crystallographic Data Centre
#                                CCDC 
#
#######################################################################
#
# If this CIF has been generated from an entry in the Cambridge 
# Structural Database, then it will include bibliographic, chemical, 
# crystal, experimental, refinement or atomic coordinate data resulting 
# from the CCDC's data processing and validation procedures.
#
#######################################################################

data_KOGHEU
_symmetry_cell_setting           orthorhombic
_symmetry_space_group_name_H-M   'P 21 21 21'
_symmetry_Int_Tables_number      19
_space_group_name_Hall           'P 2ac 2ab'
loop_
_symmetry_equiv_pos_site_id
_symmetry_equiv_pos_as_xyz
1 x,y,z
2 1/2-x,-y,1/2+z
3 1/2+x,1/2-y,-z
4 -x,1/2+y,1/2-z
_cell_length_a                   6.804(1)
_cell_length_b                   8.488(2)
_cell_length_c                   9.997(3)
_cell_angle_alpha                90
_cell_angle_beta                 90
_cell_angle_gamma                90
_cell_volume                     577.35
loop_
_atom_site_label
_atom_site_type_symbol
_atom_site_fract_x
_atom_site_fract_y
_atom_site_fract_z
Cd1 Cd 0.65703(4) 0.35223(3) 0.04662(3)
O1 O 0.6702(4) 0.5876(4) -0.0436(3)
O2 O 0.8195(4) 0.5368(4) -0.2370(3)
O3 O 0.8620(5) 0.8433(3) -0.2931(3)
H1 H 0.9168 0.9436 -0.3126
O4 O 0.8131(4) 1.1187(4) -0.0869(3)
O5 O 0.4979(4) 1.1617(4) -0.0764(3)
C1 C 0.7540(6) 0.6282(5) -0.1492(4)
C2 C 0.7879(6) 0.8063(5) -0.1637(4)
H2 H 0.8889 0.8384 -0.0964
C3 C 0.6018(6) 0.9012(5) -0.1369(5)
H3 H 0.5176 0.8987 -0.2177
H4 H 0.5279 0.8510 -0.0630
C4 C 0.6432(6) 1.0699(5) -0.1006(4)
Cd1A Cd 0.84297(4) 0.64777(3) -0.45338(3)
Cd1_2 Cd 0.65703(4) 1.35223(3) 0.04662(3)
Cd1B Cd 1.15703(4) 1.14777(3) -0.04662(3)
Cd1B_2 Cd 0.15703(4) 1.14777(3) -0.04662(3)
O2A O 0.6805(4) 0.4632(4) 0.2630(3)
O3A O 0.6380(5) 0.1567(3) 0.2069(3)
H1A H 0.5832 0.0564 0.1874
O4_2 O 0.8131(4) 0.1187(4) -0.0869(3)
O4B O 0.3131(4) 0.3813(4) 0.0869(3)
O5_2 O 0.4979(4) 0.1617(4) -0.0764(3)
O5B O 0.9979(4) 0.3383(4) 0.0764(3)
loop_
_geom_bond_atom_site_label_1
_geom_bond_atom_site_label_2
_geom_bond_site_symmetry_1
_geom_bond_site_symmetry_2
Cd1 O1 1_555 1_555
O1 C1 1_555 1_555
O2 C1 1_555 1_555
O3 H1 1_555 1_555
O4 C4 1_555 1_555
O5 C4 1_555 1_555
C1 C2 1_555 1_555
C2 O3 1_555 1_555
H2 C2 1_555 1_555
C3 C2 1_555 1_555
H3 C3 1_555 1_555
H4 C3 1_555 1_555
C4 C3 1_555 1_555
Cd1A O2 1_555 1_555
Cd1_2 O4 1_555 1_555
Cd1B O4 1_555 1_555
Cd1B_2 O5 1_555 1_555
O2A Cd1 1_555 1_555
O3A Cd1 1_555 1_555
H1A O3A 1_555 1_555
O4_2 Cd1 1_555 1_555
O4B Cd1 1_555 1_555
O5_2 Cd1 1_555 1_555
O5B Cd1 1_555 1_555
O3 Cd1A 1_555 1_555
O5 Cd1_2 1_555 1_555

#END
