
#######################################################################
#
#                 Cambridge Crystallographic Data Centre
#                                CCDC 
#
#######################################################################
#
# If this CIF has been generated from an entry in the Cambridge 
# Structural Database, then it will include bibliographic, chemical, 
# crystal, experimental, refinement or atomic coordinate data resulting 
# from the CCDC's data processing and validation procedures.
#
#######################################################################

data_KOGMUQ01
_symmetry_cell_setting           monoclinic
_symmetry_space_group_name_H-M   'P 21'
_symmetry_Int_Tables_number      4
_space_group_name_Hall           'P 2yb'
loop_
_symmetry_equiv_pos_site_id
_symmetry_equiv_pos_as_xyz
1 x,y,z
2 -x,1/2+y,-z
_cell_length_a                   10.4088(4)
_cell_length_b                   14.7524(8)
_cell_length_c                   18.2275(8)
_cell_angle_alpha                90
_cell_angle_beta                 94.741(3)
_cell_angle_gamma                90
_cell_volume                     2789.34
loop_
_atom_site_label
_atom_site_type_symbol
_atom_site_fract_x
_atom_site_fract_y
_atom_site_fract_z
Na1 Na -0.2016(8) 0.6919(7) 0.0073(4)
Cr1 Cr 0.3046(4) 0.5602(3) 0.0042(2)
C1 C 0.090(2) 0.6609(17) -0.0265(14)
C2 C 0.064(2) 0.6010(18) 0.0459(14)
O1 O 0.2002(16) 0.6593(13) -0.0413(10)
O2 O 0.1624(15) 0.5597(15) 0.0729(9)
O3 O -0.0450(17) 0.5978(14) 0.0676(11)
O4 O -0.0039(15) 0.7052(13) -0.0520(9)
C3 C 0.211(2) 0.3938(17) -0.0388(11)
C4 C 0.311(2) 0.3743(18) 0.0267(13)
O5 O 0.2019(15) 0.4717(12) -0.0596(9)
O6 O 0.3724(16) 0.4491(12) 0.0512(8)
O7 O 0.3241(18) 0.3012(13) 0.0572(10)
O8 O 0.1537(16) 0.3277(11) -0.0657(9)
C5 C 0.551(2) 0.5929(17) -0.0266(11)
C6 C 0.539(2) 0.643(2) 0.0471(14)
O9 O 0.4470(13) 0.5652(12) -0.0604(7)
O10 O 0.4207(15) 0.6380(12) 0.0669(8)
O11 O 0.6337(16) 0.6733(14) 0.0823(9)
O12 O 0.6610(15) 0.5902(12) -0.0527(8)
Na1_2 Na 0.7984(8) 0.6919(7) 0.0073(4)
Na1A Na 0.2016(8) 0.1919(7) -0.0073(4)
O7A O -0.3241(18) 0.8012(13) -0.0572(10)
O8A O -0.1537(16) 0.8277(11) 0.0657(9)
O11_2 O -0.3663(16) 0.6733(14) 0.0823(9)
O12_2 O -0.3390(15) 0.5902(12) -0.0527(8)
C9 C 0.012(3) 0.724(3) 0.197(2)
H5 H 0.0153 0.7507 0.1474
H6 H 0.0074 0.6577 0.1919
C10 C -0.108(4) 0.758(3) 0.2297(19)
H7 H -0.1808 0.7501 0.1920
H8 H -0.0971 0.8234 0.2390
C11 C -0.004(2) 0.722(2) 0.3653(14)
C12 C 0.113(2) 0.740(2) 0.3423(15)
C13 C 0.149(2) 0.734(2) 0.4845(14)
C14 C 0.205(2) 0.730(2) 0.5574(13)
C15 C 0.365(2) 0.732(2) 0.6680(13)
C16 C 0.246(2) 0.714(2) 0.6975(14)
C17 C 0.357(2) 0.7512(19) 0.8319(13)
H9 H 0.3559 0.8167 0.8200
H10 H 0.3537 0.7455 0.8858
C18 C 0.481(2) 0.712(2) 0.8112(12)
H11 H 0.4784 0.6451 0.8165
H12 H 0.5525 0.7348 0.8457
S1 S 0.1544(7) 0.7538(6) 0.2519(4)
S2 S -0.1520(6) 0.7059(6) 0.3131(4)
S3 S -0.0153(6) 0.7120(7) 0.4606(4)
S4 S 0.2395(6) 0.7492(6) 0.4101(4)
S5 S 0.3665(7) 0.7449(6) 0.5757(4)
S6 S 0.1147(6) 0.7113(6) 0.6303(4)
S7 S 0.2115(6) 0.7005(6) 0.7875(4)
S8 S 0.5146(6) 0.7395(6) 0.7184(4)
C19 C 0.400(3) 0.550(3) 0.2206(14)
H13 H 0.3215 0.5362 0.1878
H14 H 0.4275 0.6122 0.2098
C20 C 0.505(2) 0.484(3) 0.205(2)
H15 H 0.5134 0.4852 0.1512
H16 H 0.4761 0.4226 0.2174
C21 C 0.624(2) 0.514(2) 0.3418(13)
C22 C 0.509(2) 0.533(2) 0.3662(13)
C23 C 0.661(2) 0.521(2) 0.4817(13)
C24 C 0.718(2) 0.520(2) 0.5533(13)
C25 C 0.760(2) 0.5312(18) 0.6938(12)
C26 C 0.872(2) 0.519(2) 0.6730(13)
C27 C 0.973(4) 0.491(3) 0.8134(15)
H17 H 0.9348 0.4293 0.8155
H18 H 1.0489 0.4934 0.8497
C28 C 0.875(2) 0.560(3) 0.832(2)
H19 H 0.9095 0.6209 0.8216
H20 H 0.8674 0.5572 0.8861
S9 S 0.3602(6) 0.5440(7) 0.3152(4)
S10 S 0.6645(7) 0.5012(8) 0.2510(4)
S11 S 0.7552(7) 0.5020(7) 0.4086(4)
S12 S 0.5005(6) 0.5344(7) 0.4603(4)
S13 S 0.6270(6) 0.5358(7) 0.6282(3)
S14 S 0.8802(6) 0.5052(7) 0.5762(4)
S15 S 1.0225(6) 0.5115(6) 0.7217(4)
S16 S 0.7151(6) 0.5496(6) 0.7854(3)
C33 C 1.019(2) 0.918(2) 0.7985(15)
H29 H 1.0861 0.8728 0.7883
H30 H 1.0532 0.9548 0.8410
C34 C 0.900(2) 0.868(2) 0.8189(16)
H31 H 0.8311 0.9127 0.8245
H32 H 0.9203 0.8386 0.8674
C35 C 0.847(3) 0.844(2) 0.6696(16)
C36 C 0.896(3) 0.921(2) 0.6596(14)
C37 C 0.779(2) 0.873(2) 0.5357(16)
C38 C 0.720(2) 0.876(2) 0.4671(16)
C39 C 0.652(2) 0.914(2) 0.3269(15)
C40 C 0.587(2) 0.834(2) 0.3460(15)
C41 C 0.466(3) 0.835(2) 0.2044(16)
H33 H 0.4287 0.7966 0.1631
H34 H 0.3993 0.8796 0.2155
C42 C 0.580(3) 0.884(2) 0.1800(16)
H35 H 0.5557 0.9132 0.1318
H36 H 0.6494 0.8400 0.1729
S17 S 0.9886(7) 0.9911(6) 0.7182(4)
S18 S 0.8417(8) 0.7846(6) 0.7554(5)
S19 S 0.7502(8) 0.7891(6) 0.5976(4)
S20 S 0.8820(8) 0.9616(7) 0.5669(4)
S21 S 0.7428(7) 0.9633(6) 0.4017(4)
S22 S 0.6121(8) 0.7904(7) 0.4329(5)
S23 S 0.4985(8) 0.7634(7) 0.2837(5)
S24 S 0.6424(7) 0.9718(6) 0.2459(5)
C43 C 0.217(3) 0.858(3) 0.038(2)
C44 C 0.229(4) 0.899(3) -0.031(2)
H37 H 0.1747 0.8671 -0.0685
H38 H 0.3194 0.8960 -0.0423
H39 H 0.2023 0.9626 -0.0287
N1 N 0.198(3) 0.826(2) 0.0923(16)
C7? C -0.002(3) 0.772(3) 0.207(3)
H1? H -0.0329 0.8325 0.2218
H2? H 0.0060 0.7749 0.1529
C8? C -0.103(4) 0.703(4) 0.2210(17)
H3? H -0.0683 0.6420 0.2113
H4? H -0.1792 0.7130 0.1860
C29? C 0.397(8) 0.489(6) 0.231(3)
H21? H 0.4169 0.4239 0.2396
H22? H 0.3236 0.4936 0.1930
C30? C 0.513(4) 0.537(6) 0.205(4)
H23? H 0.5032 0.6031 0.2135
H24? H 0.5158 0.5274 0.1517
C31? C 0.975(4) 0.549(4) 0.8105(19)
H25? H 1.0480 0.5391 0.8476
H26? H 0.9600 0.6157 0.8075
C32? C 0.857(3) 0.507(4) 0.839(2)
H27? H 0.8527 0.5217 0.8914
H28? H 0.8615 0.4400 0.8338
loop_
_geom_bond_atom_site_label_1
_geom_bond_atom_site_label_2
_geom_bond_site_symmetry_1
_geom_bond_site_symmetry_2
Na1 O3 1_555 1_555
Cr1 O1 1_555 1_555
C1 C2 1_555 1_555
C2 O2 1_555 1_555
O1 C1 1_555 1_555
O2 Cr1 1_555 1_555
O3 C2 1_555 1_555
O4 Na1 1_555 1_555
C3 C4 1_555 1_555
C4 O6 1_555 1_555
O5 Cr1 1_555 1_555
O6 Cr1 1_555 1_555
O7 C4 1_555 1_555
O8 C3 1_555 1_555
C5 C6 1_555 1_555
C6 O10 1_555 1_555
O9 Cr1 1_555 1_555
O10 Cr1 1_555 1_555
O11 C6 1_555 1_555
O12 C5 1_555 1_555
C9 H5 1_555 1_555
H6 C9 1_555 1_555
C10 C9 1_555 1_555
H7 C10 1_555 1_555
H8 C10 1_555 1_555
C11 C12 1_555 1_555
C12 S1 1_555 1_555
C13 C14 1_555 1_555
C14 S5 1_555 1_555
C15 C16 1_555 1_555
C16 S6 1_555 1_555
C17 H9 1_555 1_555
H10 C17 1_555 1_555
C18 C17 1_555 1_555
H11 C18 1_555 1_555
H12 C18 1_555 1_555
S1 C9 1_555 1_555
S2 C10 1_555 1_555
S3 C11 1_555 1_555
S4 C12 1_555 1_555
S5 C15 1_555 1_555
S6 C14 1_555 1_555
S7 C16 1_555 1_555
S8 C15 1_555 1_555
C19 H13 1_555 1_555
H14 C19 1_555 1_555
C20 C19 1_555 1_555
H15 C20 1_555 1_555
H16 C20 1_555 1_555
C21 C22 1_555 1_555
C22 S9 1_555 1_555
C23 C24 1_555 1_555
C24 S13 1_555 1_555
C25 C26 1_555 1_555
C26 S14 1_555 1_555
C27 H17 1_555 1_555
H18 C27 1_555 1_555
C28 C27 1_555 1_555
H19 C28 1_555 1_555
H20 C28 1_555 1_555
S9 C19 1_555 1_555
S10 C20 1_555 1_555
S11 C21 1_555 1_555
S12 C22 1_555 1_555
S13 C25 1_555 1_555
S14 C24 1_555 1_555
S15 C26 1_555 1_555
S16 C25 1_555 1_555
C33 H29 1_555 1_555
H30 C33 1_555 1_555
C34 C33 1_555 1_555
H31 C34 1_555 1_555
H32 C34 1_555 1_555
C35 C36 1_555 1_555
C36 S17 1_555 1_555
C37 C38 1_555 1_555
C38 S21 1_555 1_555
C39 C40 1_555 1_555
C40 S22 1_555 1_555
C41 H33 1_555 1_555
H34 C41 1_555 1_555
C42 C41 1_555 1_555
H35 C42 1_555 1_555
H36 C42 1_555 1_555
S17 C33 1_555 1_555
S18 C34 1_555 1_555
S19 C35 1_555 1_555
S20 C36 1_555 1_555
S21 C39 1_555 1_555
S22 C38 1_555 1_555
S23 C40 1_555 1_555
S24 C39 1_555 1_555
C43 C44 1_555 1_555
C44 H37 1_555 1_555
H38 C44 1_555 1_555
H39 C44 1_555 1_555
N1 C43 1_555 1_555
Na1_2 O11 1_555 1_555
Na1A O7 1_555 1_555
O7A Na1 1_555 1_555
O8A Na1 1_555 1_555
O11_2 Na1 1_555 1_555
O12_2 Na1 1_555 1_555
C1 O4 1_555 1_555
C3 O5 1_555 1_555
O8 Na1A 1_555 1_555
C5 O9 1_555 1_555
O12 Na1_2 1_555 1_555
C11 S2 1_555 1_555
C13 S3 1_555 1_555
C13 S4 1_555 1_555
C17 S7 1_555 1_555
C18 S8 1_555 1_555
C21 S10 1_555 1_555
C23 S11 1_555 1_555
C23 S12 1_555 1_555
C27 S15 1_555 1_555
C28 S16 1_555 1_555
C35 S18 1_555 1_555
C37 S19 1_555 1_555
C37 S20 1_555 1_555
C41 S23 1_555 1_555
C42 S24 1_555 1_555

#END
