
#######################################################################
#
#                 Cambridge Crystallographic Data Centre
#                                CCDC 
#
#######################################################################
#
# If this CIF has been generated from an entry in the Cambridge 
# Structural Database, then it will include bibliographic, chemical, 
# crystal, experimental, refinement or atomic coordinate data resulting 
# from the CCDC's data processing and validation procedures.
#
#######################################################################

data_KOGMUQ
_symmetry_cell_setting           monoclinic
_symmetry_space_group_name_H-M   'P 21'
_symmetry_Int_Tables_number      4
_space_group_name_Hall           'P 2yb'
loop_
_symmetry_equiv_pos_site_id
_symmetry_equiv_pos_as_xyz
1 x,y,z
2 -x,1/2+y,-z
_cell_length_a                   10.4088(4)
_cell_length_b                   14.7524(8)
_cell_length_c                   18.2275(8)
_cell_angle_alpha                90
_cell_angle_beta                 94.741(3)
_cell_angle_gamma                90
_cell_volume                     2789.34
loop_
_atom_site_label
_atom_site_type_symbol
_atom_site_fract_x
_atom_site_fract_y
_atom_site_fract_z
Na1 Na -0.2014(6) 0.6919(5) 0.0073(3)
Cr1 Cr 0.3046(3) 0.5601(3) 0.00424(17)
C1 C 0.0900(18) 0.6600(13) -0.0264(10)
C2 C 0.0643(19) 0.6005(14) 0.0461(10)
O1 O 0.1994(14) 0.6589(9) -0.0417(7)
O2 O 0.1627(13) 0.5604(12) 0.0734(7)
O3 O -0.0442(14) 0.5986(12) 0.0672(9)
O4 O -0.0036(12) 0.7052(10) -0.0516(7)
C3 C 0.2112(13) 0.3941(11) -0.0384(7)
C4 C 0.3114(18) 0.3753(14) 0.0271(10)
O5 O 0.2024(11) 0.4714(10) -0.0596(6)
O6 O 0.3726(11) 0.4489(9) 0.0510(6)
O7 O 0.3239(13) 0.3001(10) 0.0577(8)
O8 O 0.1539(12) 0.3269(9) -0.0655(7)
C5 C 0.5506(15) 0.5919(12) -0.0267(8)
C6 C 0.5395(18) 0.6424(15) 0.0471(11)
O9 O 0.4471(9) 0.5655(8) -0.0608(5)
O10 O 0.4220(10) 0.6392(9) 0.0672(6)
O11 O 0.6352(12) 0.6753(12) 0.0814(7)
O12 O 0.6618(11) 0.5901(9) -0.0524(6)
Na1_2 Na 0.7986(6) 0.6919(5) 0.0073(3)
Na1A Na 0.2014(6) 0.1919(5) -0.0073(3)
O7A O -0.3239(13) 0.8001(10) -0.0577(8)
O8A O -0.1539(12) 0.8269(9) 0.0655(7)
O11_2 O -0.3648(12) 0.6753(12) 0.0814(7)
O12_2 O -0.3382(11) 0.5901(9) -0.0524(6)
C9 C 0.0120(18) 0.726(2) 0.1971(13)
H5 H 0.0146 0.7535 0.1478
H6 H 0.0071 0.6591 0.1907
C10 C -0.105(3) 0.758(3) 0.2313(16)
H7 H -0.1788 0.7532 0.1936
H8 H -0.0928 0.8236 0.2421
C11 C -0.0055(18) 0.7227(16) 0.3659(11)
C12 C 0.1128(19) 0.7407(16) 0.3424(11)
C13 C 0.1496(18) 0.7355(15) 0.4837(10)
C14 C 0.2050(15) 0.7297(13) 0.5573(8)
C15 C 0.3648(15) 0.7318(13) 0.6686(9)
C16 C 0.2468(15) 0.7129(14) 0.6978(10)
C17 C 0.3566(15) 0.7508(14) 0.8323(10)
H9 H 0.3559 0.8164 0.8210
H10 H 0.3539 0.7443 0.8862
C18 C 0.4816(16) 0.7115(15) 0.8110(9)
H11 H 0.4786 0.6447 0.8161
H12 H 0.5529 0.7341 0.8455
S1 S 0.1545(5) 0.7536(4) 0.2517(3)
S2 S -0.1523(4) 0.7056(5) 0.3133(3)
S3 S -0.0152(5) 0.7117(5) 0.4605(3)
S4 S 0.2399(5) 0.7491(4) 0.4101(3)
S5 S 0.3666(5) 0.7452(5) 0.5756(3)
S6 S 0.1144(4) 0.7112(4) 0.6304(3)
S7 S 0.2115(4) 0.7004(4) 0.7877(2)
S8 S 0.5148(4) 0.7395(4) 0.7184(3)
C19 C 0.597(2) 0.052(2) 0.7792(10)
H13 H 0.6754 0.0424 0.8131
H14 H 0.5650 0.1143 0.7881
C20 C 0.4960(16) -0.0160(17) 0.7949(13)
H15 H 0.4882 -0.0166 0.8487
H16 H 0.5268 -0.0766 0.7811
C21 C 0.3755(16) 0.0147(14) 0.6586(9)
C22 C 0.4902(16) 0.0337(14) 0.6347(9)
C23 C 0.3389(17) 0.0231(15) 0.5179(10)
C24 C 0.2813(19) 0.0196(16) 0.4477(11)
C25 C 0.2392(17) 0.0298(14) 0.3070(10)
C26 C 0.1268(18) 0.0183(15) 0.3277(11)
C27 C 0.026(2) -0.0086(19) 0.1864(10)
H17 H 0.0619 -0.0705 0.1836
H18 H -0.0503 -0.0043 0.1503
C28 C 0.1248(17) 0.0592(19) 0.1677(14)
H19 H 0.0913 0.1204 0.1778
H20 H 0.1334 0.0555 0.1141
S9 S 0.6395(4) 0.0438(5) 0.6849(3)
S10 S 0.3355(5) 0.0009(6) 0.7488(3)
S11 S 0.2449(5) 0.0019(5) 0.5915(3)
S12 S 0.4997(4) 0.0341(5) 0.5397(3)
S13 S 0.3728(4) 0.0359(5) 0.3718(2)
S14 S 0.1198(5) 0.0055(5) 0.4238(3)
S15 S -0.0224(4) 0.0114(4) 0.2781(3)
S16 S 0.2848(4) 0.0495(4) 0.2147(2)
C33 C 1.0192(17) 0.9181(15) 0.7986(11)
H29 H 1.0847 0.8723 0.7880
H30 H 1.0552 0.9552 0.8406
C34 C 0.9008(19) 0.8700(16) 0.8204(12)
H31 H 0.8319 0.9153 0.8256
H32 H 0.9207 0.8412 0.8691
C35 C 0.8468(18) 0.8447(15) 0.6702(11)
C36 C 0.8969(18) 0.9212(14) 0.6600(11)
C37 C 0.7793(18) 0.8725(15) 0.5353(11)
C38 C 0.7200(18) 0.8742(15) 0.4666(12)
C39 C 0.6516(18) 0.9148(16) 0.3275(11)
C40 C 0.5885(18) 0.8344(15) 0.3463(11)
C41 C 0.4657(19) 0.8352(16) 0.2046(11)
H33 H 0.4303 0.7975 0.1628
H34 H 0.3984 0.8795 0.2156
C42 C 0.5800(18) 0.8862(15) 0.1814(11)
H35 H 0.5556 0.9157 0.1334
H36 H 0.6497 0.8423 0.1739
S17 S 0.9885(5) 0.9911(4) 0.7183(3)
S18 S 0.8414(5) 0.7844(5) 0.7553(3)
S19 S 0.7501(5) 0.7894(5) 0.5977(3)
S20 S 0.8820(6) 0.9617(5) 0.5670(3)
S21 S 0.7428(5) 0.9636(5) 0.4019(3)
S22 S 0.6121(5) 0.7903(5) 0.4330(3)
S23 S 0.4983(6) 0.7631(5) 0.2838(3)
S24 S 0.6420(5) 0.9717(4) 0.2459(3)
C43 C 0.216(2) 0.8587(19) 0.0377(16)
C44 C 0.229(3) 0.900(2) -0.0306(15)
H37 H 0.1741 0.8692 -0.0689
H38 H 0.3194 0.8960 -0.0422
H39 H 0.2040 0.9639 -0.0283
N1 N 0.1972(18) 0.8259(15) 0.0926(10)
C7? C -0.002(2) 0.773(3) 0.208(2)
H1? H -0.0313 0.8335 0.2232
H2? H 0.0056 0.7762 0.1539
C8? C -0.105(3) 0.706(3) 0.2211(11)
H3? H -0.0744 0.6443 0.2094
H4? H -0.1822 0.7187 0.1870
C29? C 0.604(4) -0.009(4) 0.772(2)
H21? H 0.5861 -0.0741 0.7651
H22? H 0.6772 -0.0010 0.8096
C30? C 0.487(2) 0.040(3) 0.794(3)
H23? H 0.4965 0.1057 0.7825
H24? H 0.4836 0.0346 0.8475
C31? C 0.027(3) 0.049(3) 0.1896(13)
H25? H -0.0467 0.0396 0.1522
H26? H 0.0424 0.1154 0.1927
C32? C 0.1434(19) 0.005(3) 0.1624(18)
H27? H 0.1478 0.0186 0.1094
H28? H 0.1387 -0.0612 0.1686
loop_
_geom_bond_atom_site_label_1
_geom_bond_atom_site_label_2
_geom_bond_site_symmetry_1
_geom_bond_site_symmetry_2
Na1 O3 1_555 1_555
Cr1 O1 1_555 1_555
C1 C2 1_555 1_555
C2 O2 1_555 1_555
O1 C1 1_555 1_555
O2 Cr1 1_555 1_555
O3 C2 1_555 1_555
O4 Na1 1_555 1_555
C3 C4 1_555 1_555
C4 O6 1_555 1_555
O5 Cr1 1_555 1_555
O6 Cr1 1_555 1_555
O7 C4 1_555 1_555
O8 C3 1_555 1_555
C5 C6 1_555 1_555
C6 O10 1_555 1_555
O9 Cr1 1_555 1_555
O10 Cr1 1_555 1_555
O11 C6 1_555 1_555
O12 C5 1_555 1_555
C9 H5 1_555 1_555
H6 C9 1_555 1_555
C10 C9 1_555 1_555
H7 C10 1_555 1_555
H8 C10 1_555 1_555
C11 C12 1_555 1_555
C12 S1 1_555 1_555
C13 C14 1_555 1_555
C14 S5 1_555 1_555
C15 C16 1_555 1_555
C16 S6 1_555 1_555
C17 H9 1_555 1_555
H10 C17 1_555 1_555
C18 C17 1_555 1_555
H11 C18 1_555 1_555
H12 C18 1_555 1_555
S1 C9 1_555 1_555
S2 C10 1_555 1_555
S3 C11 1_555 1_555
S4 C12 1_555 1_555
S5 C15 1_555 1_555
S6 C14 1_555 1_555
S7 C16 1_555 1_555
S8 C15 1_555 1_555
C19 H13 1_555 1_555
H14 C19 1_555 1_555
C20 C19 1_555 1_555
H15 C20 1_555 1_555
H16 C20 1_555 1_555
C21 C22 1_555 1_555
C22 S9 1_555 1_555
C23 C24 1_555 1_555
C24 S13 1_555 1_555
C25 C26 1_555 1_555
C26 S14 1_555 1_555
C27 H17 1_555 1_555
H18 C27 1_555 1_555
C28 C27 1_555 1_555
H19 C28 1_555 1_555
H20 C28 1_555 1_555
S9 C19 1_555 1_555
S10 C20 1_555 1_555
S11 C21 1_555 1_555
S12 C22 1_555 1_555
S13 C25 1_555 1_555
S14 C24 1_555 1_555
S15 C26 1_555 1_555
S16 C25 1_555 1_555
C33 H29 1_555 1_555
H30 C33 1_555 1_555
C34 C33 1_555 1_555
H31 C34 1_555 1_555
H32 C34 1_555 1_555
C35 C36 1_555 1_555
C36 S17 1_555 1_555
C37 C38 1_555 1_555
C38 S21 1_555 1_555
C39 C40 1_555 1_555
C40 S22 1_555 1_555
C41 H33 1_555 1_555
H34 C41 1_555 1_555
C42 C41 1_555 1_555
H35 C42 1_555 1_555
H36 C42 1_555 1_555
S17 C33 1_555 1_555
S18 C34 1_555 1_555
S19 C35 1_555 1_555
S20 C36 1_555 1_555
S21 C39 1_555 1_555
S22 C38 1_555 1_555
S23 C40 1_555 1_555
S24 C39 1_555 1_555
C43 C44 1_555 1_555
C44 H37 1_555 1_555
H38 C44 1_555 1_555
H39 C44 1_555 1_555
N1 C43 1_555 1_555
Na1_2 O11 1_555 1_555
Na1A O7 1_555 1_555
O7A Na1 1_555 1_555
O8A Na1 1_555 1_555
O11_2 Na1 1_555 1_555
O12_2 Na1 1_555 1_555
C1 O4 1_555 1_555
C3 O5 1_555 1_555
O8 Na1A 1_555 1_555
C5 O9 1_555 1_555
O12 Na1_2 1_555 1_555
C11 S2 1_555 1_555
C13 S3 1_555 1_555
C13 S4 1_555 1_555
C17 S7 1_555 1_555
C18 S8 1_555 1_555
C21 S10 1_555 1_555
C23 S11 1_555 1_555
C23 S12 1_555 1_555
C27 S15 1_555 1_555
C28 S16 1_555 1_555
C35 S18 1_555 1_555
C37 S19 1_555 1_555
C37 S20 1_555 1_555
C41 S23 1_555 1_555
C42 S24 1_555 1_555

#END
