
#######################################################################
#
#                 Cambridge Crystallographic Data Centre
#                                CCDC 
#
#######################################################################
#
# If this CIF has been generated from an entry in the Cambridge 
# Structural Database, then it will include bibliographic, chemical, 
# crystal, experimental, refinement or atomic coordinate data resulting 
# from the CCDC's data processing and validation procedures.
#
#######################################################################

data_KOGNIE
_symmetry_cell_setting           triclinic
_symmetry_space_group_name_H-M   'P -1'
_symmetry_Int_Tables_number      2
_space_group_name_Hall           '-P 1'
loop_
_symmetry_equiv_pos_site_id
_symmetry_equiv_pos_as_xyz
1 x,y,z
2 -x,-y,-z
_cell_length_a                   8.9562(13)
_cell_length_b                   10.8383(15)
_cell_length_c                   11.6653(16)
_cell_angle_alpha                79.758(2)
_cell_angle_beta                 77.216(2)
_cell_angle_gamma                68.966(2)
_cell_volume                     1024.66
loop_
_atom_site_label
_atom_site_type_symbol
_atom_site_fract_x
_atom_site_fract_y
_atom_site_fract_z
Cu1 Cu 0.13267(6) 0.28597(5) 0.17001(4)
Cu2 Cu 0.47634(8) 0.39759(6) 0.12735(5)
C1 C 0.1582(5) -0.1012(4) 0.1920(3)
C2 C 0.1288(5) -0.1777(4) 0.2988(3)
C3 C 0.0833(5) -0.2878(4) 0.2983(3)
H1 H 0.0602 -0.3368 0.3697
C4 C 0.0714(5) -0.3263(4) 0.1949(3)
C5 C 0.1042(5) -0.2519(4) 0.0877(3)
C6 C 0.1461(5) -0.1404(4) 0.0881(3)
H2 H 0.1666 -0.0904 0.0167
C7 C 0.1995(5) 0.0247(4) 0.1793(3)
C8 C 0.1607(5) -0.1534(4) 0.4115(3)
C9 C 0.0437(5) -0.4566(4) 0.2019(4)
C10 C 0.0906(5) -0.2818(4) -0.0301(4)
C11 C 0.2568(5) 0.1912(4) 0.3927(3)
H3 H 0.1859 0.1428 0.4179
C12 C 0.4351(5) 0.2828(4) 0.3893(4)
H4 H 0.5104 0.3102 0.4121
C13 C 0.3502(5) 0.1608(4) 0.5842(3)
C14 C 0.3080(5) 0.0493(4) 0.6295(4)
H5 H 0.2855 0.0010 0.5810
C15 C 0.3004(5) 0.0119(4) 0.7490(4)
H6 H 0.2706 -0.0619 0.7833
C16 C 0.3373(5) 0.0848(4) 0.8181(4)
H7 H 0.3326 0.0622 0.8992
C17 C 0.3816(5) 0.1928(4) 0.7605(3)
C18 C 0.4342(5) 0.2519(4) 0.9436(3)
H8 H 0.4173 0.1808 0.9959
C19 C 0.4588(5) 0.3839(4) 0.7859(4)
H9 H 0.4626 0.4218 0.7077
N1 N 0.2801(4) 0.2519(3) 0.2871(3)
N2 N 0.3962(4) 0.3100(3) 0.2845(3)
N3 N 0.3504(4) 0.2085(3) 0.4608(3)
N4 N 0.3878(4) 0.2339(3) 0.6465(3)
N5 N 0.4233(4) 0.2712(3) 0.8268(3)
N6 N 0.4715(4) 0.3461(3) 0.9719(3)
N7 N 0.4869(4) 0.4327(3) 0.8699(3)
O1 O 0.0940(3) 0.1192(3) 0.2348(2)
O2 O 0.3218(4) 0.0322(3) 0.1095(3)
O3 O 0.2560(4) -0.0996(3) 0.4160(3)
O4 O 0.0807(4) -0.2039(4) 0.5045(3)
H10 H 0.1290 -0.2202 0.5604
O5 O -0.0601(5) -0.4837(3) 0.2814(3)
O6 O 0.1411(3) -0.5359(3) 0.1293(2)
O7 O -0.0433(4) -0.2974(3) -0.0319(2)
O8 O 0.2020(4) -0.2799(3) -0.1142(3)
Cu1_2 Cu 0.13267(6) -0.71403(5) 0.17001(4)
Cu1A Cu -0.13267(6) -0.28597(5) -0.17001(4)
Cu2_2 Cu 0.47634(8) 0.39759(6) 1.12735(5)
Cu2A Cu 0.52366(8) 0.60241(6) 0.87265(5)
N6_2 N 0.4715(4) 0.3461(3) -0.0281(3)
N7A N 0.5131(4) 0.5673(3) 0.1301(3)
O6_2 O 0.1411(3) 0.4641(3) 0.1293(2)
O7A O 0.0433(4) 0.2974(3) 0.0319(2)
O9 O 0.7695(5) 0.3407(4) 0.3297(3)
H11 H 0.816(7) 0.386(6) 0.322(5)
H12 H 0.780(6) 0.316(5) 0.270(5)
loop_
_geom_bond_atom_site_label_1
_geom_bond_atom_site_label_2
_geom_bond_site_symmetry_1
_geom_bond_site_symmetry_2
Cu1 N1 1_555 1_555
Cu2 N2 1_555 1_555
C1 C2 1_555 1_555
C2 C3 1_555 1_555
C3 H1 1_555 1_555
C4 C3 1_555 1_555
C5 C4 1_555 1_555
C6 C1 1_555 1_555
H2 C6 1_555 1_555
C7 C1 1_555 1_555
C8 C2 1_555 1_555
C9 C4 1_555 1_555
C10 C5 1_555 1_555
C11 H3 1_555 1_555
C12 H4 1_555 1_555
C13 C14 1_555 1_555
C14 H5 1_555 1_555
C15 C14 1_555 1_555
H6 C15 1_555 1_555
C16 C15 1_555 1_555
H7 C16 1_555 1_555
C17 C16 1_555 1_555
C18 H8 1_555 1_555
C19 H9 1_555 1_555
N1 C11 1_555 1_555
N2 C12 1_555 1_555
N3 C11 1_555 1_555
N4 C13 1_555 1_555
N5 C17 1_555 1_555
N6 C18 1_555 1_555
N7 C19 1_555 1_555
O1 Cu1 1_555 1_555
O2 C7 1_555 1_555
O3 C8 1_555 1_555
O4 C8 1_555 1_555
H10 O4 1_555 1_555
O5 C9 1_555 1_555
O6 C9 1_555 1_555
O7 C10 1_555 1_555
O8 C10 1_555 1_555
O9 H11 1_555 1_555
H12 O9 1_555 1_555
Cu1_2 O6 1_555 1_555
Cu1A O7 1_555 1_555
Cu2_2 N6 1_555 1_555
Cu2A N7 1_555 1_555
N6_2 Cu2 1_555 1_555
N7A Cu2 1_555 1_555
O6_2 Cu1 1_555 1_555
O7A Cu1 1_555 1_555
C5 C6 1_555 1_555
C7 O1 1_555 1_555
C12 N3 1_555 1_555
C13 N3 1_555 1_555
C17 N4 1_555 1_555
C18 N5 1_555 1_555
C19 N5 1_555 1_555
N1 N2 1_555 1_555
N6 N7 1_555 1_555

#END
