
#######################################################################
#
#                 Cambridge Crystallographic Data Centre
#                                CCDC 
#
#######################################################################
#
# If this CIF has been generated from an entry in the Cambridge 
# Structural Database, then it will include bibliographic, chemical, 
# crystal, experimental, refinement or atomic coordinate data resulting 
# from the CCDC's data processing and validation procedures.
#
#######################################################################

data_KOGNAW
_symmetry_cell_setting           monoclinic
_symmetry_space_group_name_H-M   'P 21/n'
_symmetry_Int_Tables_number      14
_space_group_name_Hall           '-P 2yn'
loop_
_symmetry_equiv_pos_site_id
_symmetry_equiv_pos_as_xyz
1 x,y,z
2 1/2-x,1/2+y,1/2-z
3 -x,-y,-z
4 1/2+x,1/2-y,1/2+z
_cell_length_a                   12.840(4)
_cell_length_b                   8.626(3)
_cell_length_c                   18.698(6)
_cell_angle_alpha                90
_cell_angle_beta                 102.528(3)
_cell_angle_gamma                90
_cell_volume                     2021.64
loop_
_atom_site_label
_atom_site_type_symbol
_atom_site_fract_x
_atom_site_fract_y
_atom_site_fract_z
Cd1 Cd 0.646560(11) 0.511937(17) 0.547782(8)
O3 O 0.65175(13) 0.6408(2) 0.64862(9)
O4 O 0.50386(15) 0.5572(3) 0.67615(11)
O5 O 1.15518(11) 0.79544(19) 0.94627(8)
O6 O 1.00310(11) 0.84801(17) 0.97637(8)
N1 N 0.72594(13) 0.3305(2) 0.48535(9)
N2 N 0.83519(14) 0.51758(19) 0.59398(9)
C1 C 0.58406(17) 0.6380(3) 0.68822(11)
C2 C 0.60850(18) 0.7434(3) 0.75559(12)
H5 H 0.5448 0.7568 0.7749
H6 H 0.6309 0.8446 0.7420
C3 C 0.69617(16) 0.6720(2) 0.81366(11)
C4 C 0.67357(19) 0.5554(3) 0.85890(13)
H7 H 0.6032 0.5255 0.8559
C5 C 0.7545(2) 0.4830(3) 0.90852(14)
H8 H 0.7383 0.4056 0.9390
C6 C 0.8596(2) 0.5256(3) 0.91289(14)
H9 H 0.9138 0.4754 0.9458
C7 C 0.88471(17) 0.6426(3) 0.86860(11)
C8 C 0.80208(17) 0.7161(3) 0.81988(11)
H10 H 0.8180 0.7964 0.7908
C9 C 0.99942(18) 0.6865(3) 0.87060(14)
H11 H 1.0012 0.7438 0.8262
H12 H 1.0397 0.5918 0.8693
C10 C 1.05630(16) 0.7818(2) 0.93515(11)
C11 C 0.6732(2) 0.2422(3) 0.43147(13)
H13 H 0.5992 0.2493 0.4191
C12 C 0.7241(2) 0.1386(3) 0.39227(14)
H14 H 0.6845 0.0812 0.3537
C13 C 0.8317(2) 0.1233(3) 0.41139(13)
H15 H 0.8665 0.0540 0.3864
C14 C 0.89041(18) 0.2130(2) 0.46917(12)
C15 C 1.00444(18) 0.2041(3) 0.49229(13)
H16 H 1.0418 0.1345 0.4693
C16 C 1.05828(18) 0.2941(3) 0.54637(13)
H17 H 1.1321 0.2860 0.5601
C17 C 1.00365(16) 0.4026(3) 0.58329(12)
C18 C 1.05634(19) 0.5018(3) 0.63936(14)
H18 H 1.1302 0.4975 0.6550
C19 C 0.99849(18) 0.6042(3) 0.67061(12)
H19 H 1.0326 0.6704 0.7076
C20 C 0.88813(17) 0.6087(3) 0.64677(11)
H20 H 0.8497 0.6787 0.6688
C21 C 0.89184(15) 0.4158(2) 0.56222(10)
C22 C 0.83372(16) 0.3177(2) 0.50421(11)
Cd1C Cd 1.146560(11) 0.988063(17) 1.047782(8)
Cd1A Cd 0.853440(11) 1.011937(17) 0.952218(8)
O5C O 0.65518(11) 0.70456(19) 0.44627(8)
O6C O 0.50310(11) 0.65199(17) 0.47637(8)
O6A O 0.49690(11) 0.34801(17) 0.52363(8)
O1 O 0.8513(3) 0.9743(3) 0.25585(16)
H1 H 0.8225 0.8959 0.2684
H2 H 0.8989 0.9520 0.2341
O2 O 0.22108(15) 0.7453(3) 0.80373(11)
H3 H 0.2022 0.8274 0.7814
H4 H 0.2135 0.7507 0.8467
loop_
_geom_bond_atom_site_label_1
_geom_bond_atom_site_label_2
_geom_bond_site_symmetry_1
_geom_bond_site_symmetry_2
Cd1 O3 1_555 1_555
O1 H1 1_555 1_555
H2 O1 1_555 1_555
O2 H3 1_555 1_555
H4 O2 1_555 1_555
O3 C1 1_555 1_555
O4 C1 1_555 1_555
O5 C10 1_555 1_555
O6 C10 1_555 1_555
N1 Cd1 1_555 1_555
N2 Cd1 1_555 1_555
C1 C2 1_555 1_555
C2 H5 1_555 1_555
H6 C2 1_555 1_555
C3 C2 1_555 1_555
C4 C3 1_555 1_555
H7 C4 1_555 1_555
C5 C4 1_555 1_555
H8 C5 1_555 1_555
C6 C5 1_555 1_555
H9 C6 1_555 1_555
C7 C6 1_555 1_555
C8 C3 1_555 1_555
H10 C8 1_555 1_555
C9 C7 1_555 1_555
H11 C9 1_555 1_555
H12 C9 1_555 1_555
C10 C9 1_555 1_555
C11 N1 1_555 1_555
H13 C11 1_555 1_555
C12 C11 1_555 1_555
H14 C12 1_555 1_555
C13 C12 1_555 1_555
H15 C13 1_555 1_555
C14 C13 1_555 1_555
C15 C14 1_555 1_555
H16 C15 1_555 1_555
C16 C15 1_555 1_555
H17 C16 1_555 1_555
C17 C16 1_555 1_555
C18 C17 1_555 1_555
H18 C18 1_555 1_555
C19 C18 1_555 1_555
H19 C19 1_555 1_555
C20 N2 1_555 1_555
H20 C20 1_555 1_555
C21 N2 1_555 1_555
C22 N1 1_555 1_555
Cd1C O5 1_555 1_555
Cd1A O6 1_555 1_555
O5C Cd1 1_555 1_555
O6C Cd1 1_555 1_555
O6A Cd1 1_555 1_555
O6 Cd1C 1_555 1_555
C7 C8 1_555 1_555
C14 C22 1_555 1_555
C17 C21 1_555 1_555
C19 C20 1_555 1_555
C21 C22 1_555 1_555

#END
