
#######################################################################
#
#                 Cambridge Crystallographic Data Centre
#                                CCDC 
#
#######################################################################
#
# If this CIF has been generated from an entry in the Cambridge 
# Structural Database, then it will include bibliographic, chemical, 
# crystal, experimental, refinement or atomic coordinate data resulting 
# from the CCDC's data processing and validation procedures.
#
#######################################################################

data_KOGNEA
_symmetry_cell_setting           monoclinic
_symmetry_space_group_name_H-M   'P 21/n'
_symmetry_Int_Tables_number      14
_space_group_name_Hall           '-P 2yn'
loop_
_symmetry_equiv_pos_site_id
_symmetry_equiv_pos_as_xyz
1 x,y,z
2 1/2-x,1/2+y,1/2-z
3 -x,-y,-z
4 1/2+x,1/2-y,1/2+z
_cell_length_a                   12.2645(13)
_cell_length_b                   10.9252(12)
_cell_length_c                   15.3261(17)
_cell_angle_alpha                90
_cell_angle_beta                 109.1340(10)
_cell_angle_gamma                90
_cell_volume                     1940.13
loop_
_atom_site_label
_atom_site_type_symbol
_atom_site_fract_x
_atom_site_fract_y
_atom_site_fract_z
Cu1 Cu 0.85446(3) 0.61708(4) 0.12209(3)
Cu2 Cu 0.49009(3) 0.85494(3) 0.47560(3)
C1 C 1.1200(3) 0.6113(3) 0.3665(2)
H1 H 1.1963 0.5972 0.4024
C2 C 0.9390(3) 0.6574(3) 0.3257(2)
H2 H 0.8665 0.6805 0.3268
C3 C 1.0369(3) 0.6520(3) 0.4950(2)
C4 C 1.1350(3) 0.6278(3) 0.5675(2)
H3 H 1.2045 0.6095 0.5582
C5 C 1.1262(3) 0.6318(3) 0.6548(2)
H4 H 1.1909 0.6164 0.7060
C6 C 1.0222(3) 0.6587(3) 0.6668(2)
H5 H 1.0141 0.6603 0.7251
C7 C 0.9308(3) 0.6829(3) 0.5879(2)
C8 C 0.7360(3) 0.7761(3) 0.5253(2)
H6 H 0.7426 0.8047 0.4701
C9 C 0.7721(3) 0.6916(3) 0.6596(2)
H7 H 0.8099 0.6511 0.7145
C10 C 0.5623(3) 0.5178(3) 0.1809(2)
C11 C 0.5560(3) 0.5816(3) 0.2579(2)
H8 H 0.6198 0.6253 0.2943
C12 C 0.4551(3) 0.5806(3) 0.2808(2)
C13 C 0.3592(3) 0.5190(3) 0.2245(2)
H9 H 0.2919 0.5173 0.2398
C14 C 0.3630(3) 0.4598(3) 0.1456(2)
C15 C 0.4650(3) 0.4585(3) 0.1247(2)
H10 H 0.4679 0.4173 0.0724
C16 C 0.6716(3) 0.5187(3) 0.1562(2)
C17 C 0.4473(3) 0.6534(3) 0.3621(2)
C18 C 0.2546(3) 0.4060(3) 0.0784(2)
N1 N 0.9644(2) 0.6311(3) 0.25105(19)
N2 N 1.0806(2) 0.6011(3) 0.2774(2)
N3 N 1.0347(2) 0.6456(2) 0.40105(19)
N4 N 0.9353(2) 0.6795(2) 0.50247(18)
N5 N 0.8193(2) 0.7156(2) 0.59177(18)
N6 N 0.6452(2) 0.7877(2) 0.55064(18)
N7 N 0.6671(2) 0.7333(3) 0.63645(19)
O1 O 0.72858(19) 0.6189(2) 0.17307(16)
O2 O 0.7002(2) 0.4264(2) 0.12370(18)
O3 O 0.50075(19) 0.7556(2) 0.37378(15)
O4 O 0.3918(2) 0.6131(2) 0.40953(17)
O5 O 0.16650(19) 0.4034(2) 0.10314(15)
O6 O 0.2606(2) 0.3701(2) 0.00235(16)
O7 O 0.9720(2) 0.5529(2) 0.07772(17)
H13 H 1.025(3) 0.557(3) 0.113(2)
Cu1B Cu 0.14554(3) 0.38292(4) -0.12209(3)
Cu2A Cu 0.00991(3) 0.35494(3) 0.02440(3)
Cu2C Cu 0.99009(3) 0.64506(3) -0.02440(3)
Cu2A_2 Cu 1.00991(3) 0.35494(3) 0.02440(3)
O5A O 0.33350(19) 0.9034(2) 0.39686(15)
O6B O 0.7394(2) 0.6299(2) -0.00235(16)
O7C O 0.4720(2) 0.9471(2) 0.57772(17)
O7A O 0.5280(2) 1.0529(2) 0.42228(17)
H13C H 0.525(3) 0.943(3) 0.613(2)
H13A H 0.475(3) 1.057(3) 0.387(2)
O8 O 0.9112(2) 0.8306(2) 0.09338(19)
H11 H 0.9120 0.8541 0.0402
H12 H 0.9727 0.8359 0.1235
loop_
_geom_bond_atom_site_label_1
_geom_bond_atom_site_label_2
_geom_bond_site_symmetry_1
_geom_bond_site_symmetry_2
Cu1 N1 1_555 1_555
Cu2 N6 1_555 1_555
C1 H1 1_555 1_555
C2 H2 1_555 1_555
C3 C4 1_555 1_555
C4 H3 1_555 1_555
C5 C4 1_555 1_555
H4 C5 1_555 1_555
C6 C5 1_555 1_555
H5 C6 1_555 1_555
C7 C6 1_555 1_555
C8 H6 1_555 1_555
C9 H7 1_555 1_555
C10 C11 1_555 1_555
C11 H8 1_555 1_555
C12 C11 1_555 1_555
C13 C12 1_555 1_555
H9 C13 1_555 1_555
C14 C13 1_555 1_555
C15 C10 1_555 1_555
H10 C15 1_555 1_555
C16 C10 1_555 1_555
C17 C12 1_555 1_555
C18 C14 1_555 1_555
N1 C2 1_555 1_555
N2 C1 1_555 1_555
N3 C1 1_555 1_555
N4 C3 1_555 1_555
N5 C7 1_555 1_555
N6 C8 1_555 1_555
N7 C9 1_555 1_555
O1 Cu1 1_555 1_555
O2 C16 1_555 1_555
O3 Cu2 1_555 1_555
O4 C17 1_555 1_555
O5 C18 1_555 1_555
O6 C18 1_555 1_555
O7 Cu1 1_555 1_555
O8 H11 1_555 1_555
H12 O8 1_555 1_555
H13 O7 1_555 1_555
Cu1B O6 1_555 1_555
Cu2A O5 1_555 1_555
Cu2C O7 1_555 1_555
Cu2A_2 O7 1_555 1_555
O5A Cu2 1_555 1_555
O6B Cu1 1_555 1_555
O7C Cu2 1_555 1_555
O7A Cu2 1_555 1_555
H13C O7C 1_555 1_555
H13A O7A 1_555 1_555
C2 N3 1_555 1_555
C3 N3 1_555 1_555
C7 N4 1_555 1_555
C8 N5 1_555 1_555
C9 N5 1_555 1_555
C14 C15 1_555 1_555
C16 O1 1_555 1_555
C17 O3 1_555 1_555
N1 N2 1_555 1_555
N6 N7 1_555 1_555

#END
