
#######################################################################
#
#                 Cambridge Crystallographic Data Centre
#                                CCDC 
#
#######################################################################
#
# If this CIF has been generated from an entry in the Cambridge 
# Structural Database, then it will include bibliographic, chemical, 
# crystal, experimental, refinement or atomic coordinate data resulting 
# from the CCDC's data processing and validation procedures.
#
#######################################################################

data_KOGNOK
_symmetry_cell_setting           trigonal
_symmetry_space_group_name_H-M   'P 31 2 1'
_symmetry_Int_Tables_number      152
_space_group_name_Hall           'P 31 2"'
loop_
_symmetry_equiv_pos_site_id
_symmetry_equiv_pos_as_xyz
1 x,y,z
2 -y,x-y,1/3+z
3 -x+y,-x,2/3+z
4 x-y,-y,2/3-z
5 -x,-x+y,1/3-z
6 y,x,-z
_cell_length_a                   9.268
_cell_length_b                   9.268
_cell_length_c                   36.855
_cell_angle_alpha                90
_cell_angle_beta                 90
_cell_angle_gamma                120
_cell_volume                     2741.57
loop_
_atom_site_label
_atom_site_type_symbol
_atom_site_fract_x
_atom_site_fract_y
_atom_site_fract_z
C1 C 0.9325(5) 0.7232(5) 0.68083(11)
C2 C 0.9397(5) 0.8252(5) 0.70940(10)
C3 C 0.8168(5) 0.7658(5) 0.73615(11)
C4 C 0.6869(6) 0.6029(6) 0.73266(12)
H1 H 0.6021 0.5626 0.7498
C5 C 0.5314(7) 0.3202(6) 0.70466(16)
H2 H 0.5424 0.2596 0.7249
H3 H 0.4284 0.3219 0.7079
C6 C 0.5208(15) 0.2344(12) 0.6724(3)
H4 H 0.4851 0.1206 0.6794
H5 H 0.4297 0.2304 0.6586
C7 C 0.6484(9) 0.2792(9) 0.6483(2)
H6 H 0.5998 0.2520 0.6243
H7 H 0.6954 0.2080 0.6529
C8 C 0.7878(7) 0.4516(7) 0.64712(15)
H8 H 0.7777 0.5037 0.6252
H9 H 0.8909 0.4490 0.6454
C9 C 0.8003(6) 0.5587(5) 0.67882(11)
C10 C 0.6771(6) 0.4993(6) 0.70547(12)
C11 C 1.0503(8) 1.1194(7) 0.71578(15)
H10 H 1.1554 1.2215 0.7155
H11 H 0.9975 1.1071 0.7389
H12 H 0.9802 1.1219 0.6969
C12 C 0.8150(6) 0.8611(6) 0.76897(11)
C13 C 0.7823(12) 0.6544(10) 0.8540(2)
H13 H 0.8805 0.7117 0.8407
C14 C 0.7444(14) 0.5020(10) 0.8677(2)
H14 H 0.8146 0.4581 0.8651
C15 C 0.5956(16) 0.4196(10) 0.8856(2)
H15 H 0.5612 0.3140 0.8949
C16 C 0.4986(12) 0.4864(14) 0.8901(3)
H16 H 0.3972 0.4301 0.9022
C17 C 0.5564(9) 0.6429(10) 0.8759(2)
H17 H 0.4916 0.6924 0.8796
C18 C 0.4739(7) 1.0041(8) 0.80283(18)
H18 H 0.5261 1.0038 0.7813
C19 C 0.3273(9) 1.0088(10) 0.8006(2)
H19 H 0.2833 1.0173 0.7786
C20 C 0.2504(11) 1.0000 0.8333
H20 H 0.1500 1.0000 0.8333
Cd1 Cd 0.79567(4) 1.0000 0.8333
N1 N 0.6920(6) 0.7266(6) 0.85789(11)
N2 N 0.5434(6) 1.0000 0.8333
O1 O 0.9387(4) 0.9231(4) 0.78945(8)
O2 O 0.6876(5) 0.8669(5) 0.77574(9)
O3 O 1.0767(4) 0.9836(4) 0.70998(8)
C1D C 1.0675(5) 0.7907(7) 0.65250(11)
C2D C 1.0603(5) 0.8855(7) 0.62393(10)
C3D C 1.1832(5) 0.9490(7) 0.59718(11)
C4D C 1.3131(6) 0.9160(8) 0.60067(12)
H1D H 1.3979 0.9605 0.5835
C5D C 1.4686(7) 0.7888(9) 0.62867(16)
H2D H 1.4576 0.7172 0.6084
H3D H 1.5716 0.8935 0.6254
C6D C 1.4792(15) 0.7136(19) 0.6609(3)
H4D H 1.5149 0.6355 0.6539
H5D H 1.5703 0.8007 0.6747
C7D C 1.3516(9) 0.6308(13) 0.6850(2)
H6D H 1.4002 0.6522 0.7090
H7D H 1.3046 0.5126 0.6804
C8D C 1.2122(7) 0.6638(10) 0.68621(15)
H8D H 1.2223 0.7260 0.7081
H9D H 1.1091 0.5581 0.6879
C9D C 1.1997(6) 0.7584(8) 0.65451(11)
C10D C 1.3229(6) 0.8222(8) 0.62786(12)
C11D C 0.9497(8) 1.0691(11) 0.61755(15)
H10D H 0.8446 1.0661 0.6178
H11D H 1.0025 1.1096 0.5944
H12D H 1.0198 1.1417 0.6364
C12D C 1.1850(6) 1.0461(8) 0.56436(11)
C13C C 1.1279(16) 1.3456(10) 0.8127(2)
H13C H 1.1688 1.2883 0.8260
C14C C 1.2424(17) 1.4980(10) 0.7990(2)
H14C H 1.3565 1.5419 0.8016
C15C C 1.1760(19) 1.5804(10) 0.7811(2)
H15C H 1.2472 1.6860 0.7718
C16C C 1.0122(18) 1.5136(14) 0.7766(3)
H16C H 0.9671 1.5699 0.7645
C17C C 0.9135(13) 1.3571(10) 0.7908(2)
H17C H 0.7992 1.3076 0.7871
C18C C 0.4698(11) 0.9959(8) 0.86384(18)
H18C H 0.5223 0.9962 0.8854
C19C C 0.3185(13) 0.9912(10) 0.8661(2)
H19C H 0.2660 0.9827 0.8881
Cd1D Cd 1.20433(4) 1.20433(4) 0.5000
N1C N 0.9654(8) 1.2734(6) 0.80878(11)
O1D O 1.0613(4) 0.9844(6) 0.54388(8)
O1C O 1.0156(6) 1.0769(4) 0.87722(8)
O2D O 1.3124(5) 1.1793(7) 0.55759(9)
O2C O 0.8207(7) 1.1331(5) 0.89093(9)
O3D O 0.9233(4) 0.9069(6) 0.62335(8)
loop_
_geom_bond_atom_site_label_1
_geom_bond_atom_site_label_2
_geom_bond_site_symmetry_1
_geom_bond_site_symmetry_2
C1 C2 1_555 1_555
C2 C3 1_555 1_555
C3 C4 1_555 1_555
C4 H1 1_555 1_555
C5 H2 1_555 1_555
H3 C5 1_555 1_555
C6 C5 1_555 1_555
H4 C6 1_555 1_555
H5 C6 1_555 1_555
C7 C6 1_555 1_555
H6 C7 1_555 1_555
H7 C7 1_555 1_555
C8 C7 1_555 1_555
H8 C8 1_555 1_555
H9 C8 1_555 1_555
C9 C1 1_555 1_555
C10 C4 1_555 1_555
C11 H10 1_555 1_555
H11 C11 1_555 1_555
H12 C11 1_555 1_555
C12 C3 1_555 1_555
C13 H13 1_555 1_555
C14 C13 1_555 1_555
H14 C14 1_555 1_555
C15 C14 1_555 1_555
H15 C15 1_555 1_555
C16 C15 1_555 1_555
H16 C16 1_555 1_555
C17 C16 1_555 1_555
H17 C17 1_555 1_555
C18 H18 1_555 1_555
C19 C18 1_555 1_555
H19 C19 1_555 1_555
C20 C19 1_555 1_555
H20 C20 1_555 1_555
Cd1 N1 1_555 1_555
N1 C13 1_555 1_555
N2 C18 1_555 1_555
O1 C12 1_555 1_555
O2 C12 1_555 1_555
O3 C2 1_555 1_555
C1D C1 1_555 1_555
C2D C1D 1_555 1_555
C3D C2D 1_555 1_555
C4D C3D 1_555 1_555
H1D C4D 1_555 1_555
C5D H2D 1_555 1_555
H3D C5D 1_555 1_555
C6D C5D 1_555 1_555
H4D C6D 1_555 1_555
H5D C6D 1_555 1_555
C7D C6D 1_555 1_555
H6D C7D 1_555 1_555
H7D C7D 1_555 1_555
C8D C7D 1_555 1_555
H8D C8D 1_555 1_555
H9D C8D 1_555 1_555
C9D C1D 1_555 1_555
C10D C4D 1_555 1_555
C11D H10D 1_555 1_555
H11D C11D 1_555 1_555
H12D C11D 1_555 1_555
C12D C3D 1_555 1_555
C13C H13C 1_555 1_555
C14C C13C 1_555 1_555
H14C C14C 1_555 1_555
C15C C14C 1_555 1_555
H15C C15C 1_555 1_555
C16C C15C 1_555 1_555
H16C C16C 1_555 1_555
C17C C16C 1_555 1_555
H17C C17C 1_555 1_555
C18C N2 1_555 1_555
H18C C18C 1_555 1_555
C19C C20 1_555 1_555
H19C C19C 1_555 1_555
Cd1D O1D 1_555 1_555
N1C Cd1 1_555 1_555
O1D C12D 1_555 1_555
O1C Cd1 1_555 1_555
O2D C12D 1_555 1_555
O2C Cd1 1_555 1_555
O3D C2D 1_555 1_555
C5 C10 1_555 1_555
C8 C9 1_555 1_555
C9 C10 1_555 1_555
C11 O3 1_555 1_555
C17 N1 1_555 1_555
Cd1 N2 1_555 1_555
Cd1 O1 1_555 1_555
Cd1 O2 1_555 1_555
C5D C10D 1_555 1_555
C8D C9D 1_555 1_555
C9D C10D 1_555 1_555
C11D O3D 1_555 1_555
C13C N1C 1_555 1_555
C17C N1C 1_555 1_555
C18C C19C 1_555 1_555
Cd1D O2D 1_555 1_555

#END
