
#######################################################################
#
#                 Cambridge Crystallographic Data Centre
#                                CCDC 
#
#######################################################################
#
# If this CIF has been generated from an entry in the Cambridge 
# Structural Database, then it will include bibliographic, chemical, 
# crystal, experimental, refinement or atomic coordinate data resulting 
# from the CCDC's data processing and validation procedures.
#
#######################################################################

data_KOGNUQ
_symmetry_cell_setting           trigonal
_symmetry_space_group_name_H-M   'P 31 2 1'
_symmetry_Int_Tables_number      152
_space_group_name_Hall           'P 31 2"'
loop_
_symmetry_equiv_pos_site_id
_symmetry_equiv_pos_as_xyz
1 x,y,z
2 -y,x-y,1/3+z
3 -x+y,-x,2/3+z
4 x-y,-y,2/3-z
5 -x,-x+y,1/3-z
6 y,x,-z
_cell_length_a                   9.128
_cell_length_b                   9.128
_cell_length_c                   36.718
_cell_angle_alpha                90
_cell_angle_beta                 90
_cell_angle_gamma                120
_cell_volume                     2649.48
loop_
_atom_site_label
_atom_site_type_symbol
_atom_site_fract_x
_atom_site_fract_y
_atom_site_fract_z
C1 C 0.2736(4) 0.3386(4) 0.98513(8)
C2 C 0.1812(4) 0.2319(4) 0.95655(8)
C3 C 0.1167(4) 0.2878(4) 0.92881(8)
C4 C 0.1488(4) 0.4543(4) 0.93056(9)
H1 H 0.1054 0.4929 0.9124
C5 C 0.2728(6) 0.7417(5) 0.95858(11)
H2 H 0.3484 0.8039 0.9387
H3 H 0.1661 0.7376 0.9541
C6 C 0.3426(14) 0.8325(8) 0.9913(2)
H4 H 0.4200 0.9486 0.9843
H5 H 0.2503 0.8333 1.0042
C7 C 0.4239(9) 0.7914(6) 1.01565(16)
H6 H 0.3973 0.8179 1.0395
H7 H 0.5439 0.8674 1.0118
C8 C 0.3983(6) 0.6187(5) 1.01786(11)
H8 H 0.3362 0.5660 1.0400
H9 H 0.5080 0.6266 1.0198
C9 C 0.3045(4) 0.5053(4) 0.98609(9)
C10 C 0.2423(4) 0.5632(4) 0.95811(9)
C11 C -0.0070(6) -0.0671(5) 0.95360(11)
H10 H -0.0049 -0.1710 0.9548
H11 H -0.0517 -0.0593 0.9305
H12 H -0.0772 -0.0645 0.9728
C12 C 0.0225(4) 0.1844(4) 0.89593(9)
C13 C -0.0222(5) 0.2510(5) 0.78994(10)
H13 H -0.1282 0.1579 0.7854
C14 C 0.0146(8) 0.4056(6) 0.77635(12)
H14 H -0.0659 0.4169 0.7631
C15 C 0.1710(8) 0.5429(6) 0.78250(13)
H15 H 0.1985 0.6495 0.7739
C16 C 0.2871(7) 0.5187(6) 0.80195(14)
H16 H 0.3964 0.6078 0.8058
C17 C 0.2383(6) 0.3626(5) 0.81533(12)
H17 H 0.3152 0.3490 0.8295
C18 C 0.3397(4) -0.0061(5) 0.80256(10)
H18 H 0.2866 -0.0093 0.7807
C19 C 0.4885(5) -0.0080(5) 0.80113(10)
H19 H 0.5340 -0.0145 0.7789
C20 C 0.5693(6) 0.0000 0.8333
H20 H 0.6712 0.0000 0.8333
Cu1 Cu 0.02175(5) 0.0000 0.8333
N1 N 0.0889(4) 0.2292(3) 0.80955(7)
N2 N 0.2666(4) 0.0000 0.8333
O1 O 0.0915(3) 0.1101(3) 0.88028(6)
O2 O -0.1075(4) 0.1793(4) 0.88603(7)
O3 O 0.1606(3) 0.0722(3) 0.95768(7)
C1E C 0.3386(4) 0.2736(4) 1.01487(8)
C2E C 0.2319(4) 0.1812(4) 1.04345(8)
C3E C 0.2878(4) 0.1167(4) 1.07119(8)
C4E C 0.4543(4) 0.1488(4) 1.06944(9)
H1E H 0.4929 0.1054 1.0876
C5E C 0.7417(5) 0.2728(6) 1.04142(11)
H2E H 0.8039 0.3484 1.0613
H3E H 0.7376 0.1661 1.0459
C6E C 0.8325(8) 0.3426(14) 1.0087(2)
H4E H 0.9486 0.4200 1.0157
H5E H 0.8333 0.2503 0.9958
C7E C 0.7914(6) 0.4239(9) 0.98435(16)
H6E H 0.8179 0.3973 0.9605
H7E H 0.8674 0.5439 0.9882
C8E C 0.6187(5) 0.3983(6) 0.98214(11)
H8E H 0.5660 0.3362 0.9600
H9E H 0.6266 0.5080 0.9802
C9E C 0.5053(4) 0.3045(4) 1.01391(9)
C10E C 0.5632(4) 0.2423(4) 1.04189(9)
C11E C -0.0671(5) -0.0070(6) 1.04640(11)
H10E H -0.1710 -0.0049 1.0452
H11E H -0.0593 -0.0517 1.0695
H12E H -0.0645 -0.0772 1.0272
C12E C 0.1844(4) 0.0225(4) 1.10407(9)
C13C C -0.2732(7) -0.2510(5) 0.87673(10)
H13C H -0.2861 -0.1579 0.8813
C14C C -0.3910(10) -0.4056(6) 0.89032(12)
H14C H -0.4828 -0.4169 0.9036
C15C C -0.3719(10) -0.5429(6) 0.88417(13)
H15C H -0.4510 -0.6495 0.8928
C16C C -0.2316(9) -0.5187(6) 0.86472(14)
H16C H -0.2114 -0.6078 0.8609
C17C C -0.1243(8) -0.3626(5) 0.85134(12)
H17C H -0.0338 -0.3490 0.8372
C18C C 0.3458(6) 0.0061(5) 0.86411(10)
H18C H 0.2959 0.0093 0.8860
C19C C 0.4965(7) 0.0080(5) 0.86554(10)
H19C H 0.5485 0.0145 0.8878
Cu1E Cu 0.0000 0.02175(5) 1.1667
N1C N -0.1403(5) -0.2292(3) 0.85712(7)
O1E O 0.1101(3) 0.0915(3) 1.11972(6)
O1C O -0.0186(4) -0.1101(3) 0.78639(6)
O2E O 0.1793(4) -0.1075(4) 1.11397(7)
O3E O 0.0722(3) 0.1606(3) 1.04232(7)
loop_
_geom_bond_atom_site_label_1
_geom_bond_atom_site_label_2
_geom_bond_site_symmetry_1
_geom_bond_site_symmetry_2
C1 C2 1_555 1_555
C2 C3 1_555 1_555
C3 C4 1_555 1_555
C4 H1 1_555 1_555
C5 H2 1_555 1_555
H3 C5 1_555 1_555
C6 C5 1_555 1_555
H4 C6 1_555 1_555
H5 C6 1_555 1_555
C7 C6 1_555 1_555
H6 C7 1_555 1_555
H7 C7 1_555 1_555
C8 C7 1_555 1_555
H8 C8 1_555 1_555
H9 C8 1_555 1_555
C9 C1 1_555 1_555
C10 C4 1_555 1_555
C11 H10 1_555 1_555
H11 C11 1_555 1_555
H12 C11 1_555 1_555
C12 C3 1_555 1_555
C13 H13 1_555 1_555
C14 C13 1_555 1_555
H14 C14 1_555 1_555
C15 C14 1_555 1_555
H15 C15 1_555 1_555
C16 C15 1_555 1_555
H16 C16 1_555 1_555
C17 C16 1_555 1_555
H17 C17 1_555 1_555
C18 H18 1_555 1_555
C19 C18 1_555 1_555
H19 C19 1_555 1_555
C20 C19 1_555 1_555
H20 C20 1_555 1_555
Cu1 N1 1_555 1_555
N1 C13 1_555 1_555
N2 C18 1_555 1_555
O1 C12 1_555 1_555
O2 C12 1_555 1_555
O3 C2 1_555 1_555
C1E C1 1_555 1_555
C2E C1E 1_555 1_555
C3E C2E 1_555 1_555
C4E C3E 1_555 1_555
H1E C4E 1_555 1_555
C5E H2E 1_555 1_555
H3E C5E 1_555 1_555
C6E C5E 1_555 1_555
H4E C6E 1_555 1_555
H5E C6E 1_555 1_555
C7E C6E 1_555 1_555
H6E C7E 1_555 1_555
H7E C7E 1_555 1_555
C8E C7E 1_555 1_555
H8E C8E 1_555 1_555
H9E C8E 1_555 1_555
C9E C1E 1_555 1_555
C10E C4E 1_555 1_555
C11E H10E 1_555 1_555
H11E C11E 1_555 1_555
H12E C11E 1_555 1_555
C12E C3E 1_555 1_555
C13C H13C 1_555 1_555
C14C C13C 1_555 1_555
H14C C14C 1_555 1_555
C15C C14C 1_555 1_555
H15C C15C 1_555 1_555
C16C C15C 1_555 1_555
H16C C16C 1_555 1_555
C17C C16C 1_555 1_555
H17C C17C 1_555 1_555
C18C N2 1_555 1_555
H18C C18C 1_555 1_555
C19C C20 1_555 1_555
H19C C19C 1_555 1_555
Cu1E O1E 1_555 1_555
N1C Cu1 1_555 1_555
O1E C12E 1_555 1_555
O1C Cu1 1_555 1_555
O2E C12E 1_555 1_555
O3E C2E 1_555 1_555
C5 C10 1_555 1_555
C8 C9 1_555 1_555
C9 C10 1_555 1_555
C11 O3 1_555 1_555
C17 N1 1_555 1_555
Cu1 N2 1_555 1_555
Cu1 O1 1_555 1_555
C5E C10E 1_555 1_555
C8E C9E 1_555 1_555
C9E C10E 1_555 1_555
C11E O3E 1_555 1_555
C13C N1C 1_555 1_555
C17C N1C 1_555 1_555
C18C C19C 1_555 1_555

#END
