
#######################################################################
#
#                 Cambridge Crystallographic Data Centre
#                                CCDC 
#
#######################################################################
#
# If this CIF has been generated from an entry in the Cambridge 
# Structural Database, then it will include bibliographic, chemical, 
# crystal, experimental, refinement or atomic coordinate data resulting 
# from the CCDC's data processing and validation procedures.
#
#######################################################################

data_KOGPOM
_symmetry_cell_setting           triclinic
_symmetry_space_group_name_H-M   'P -1'
_symmetry_Int_Tables_number      2
_space_group_name_Hall           '-P 1'
loop_
_symmetry_equiv_pos_site_id
_symmetry_equiv_pos_as_xyz
1 x,y,z
2 -x,-y,-z
_cell_length_a                   10.9868(11)
_cell_length_b                   11.1631(9)
_cell_length_c                   15.9021(17)
_cell_angle_alpha                103.393(8)
_cell_angle_beta                 100.277(8)
_cell_angle_gamma                104.714(8)
_cell_volume                     1775.79
loop_
_atom_site_label
_atom_site_type_symbol
_atom_site_fract_x
_atom_site_fract_y
_atom_site_fract_z
N9 N 0.5000 0.5000 0.5000
O10 O 0.4109(6) 0.3970(5) 0.4571(4)
O11 O 0.4601(7) 0.5779(6) 0.4657(5)
O12 O 0.6028(5) 0.5195(8) 0.5571(4)
O10A O 0.5891(6) 0.6030(5) 0.5429(4)
O11A O 0.5399(7) 0.4221(6) 0.5343(5)
O12A O 0.3972(5) 0.4805(8) 0.4429(4)
O13 O 0.7408(3) 0.5683(3) 0.72704(19)
H33 H 0.729(4) 0.635(3) 0.758(2)
H34 H 0.699(4) 0.548(4) 0.6732(10)
C1 C 0.3085(4) -0.0852(4) 0.1649(3)
H1 H 0.3819 -0.0215 0.1614
C2 C 0.1150(4) -0.2183(4) 0.1360(3)
H2 H 0.0263 -0.2657 0.1077
C3 C 0.1839(4) -0.2288(4) 0.2111(3)
H3 H 0.1533 -0.2842 0.2451
C4 C 0.4151(4) -0.1214(4) 0.3043(3)
C5 C 0.3976(4) -0.1841(5) 0.3675(3)
H4 H 0.3149 -0.2428 0.3617
C6 C 0.5352(4) -0.0371(5) 0.3140(3)
H5 H 0.5491 0.0063 0.2701
C7 C 0.4992(4) -0.1630(5) 0.4396(3)
H6 H 0.4852 -0.2092 0.4820
C8 C 0.6211(4) -0.0765(4) 0.4524(3)
C9 C 0.6364(4) -0.0146(4) 0.3873(3)
H7 H 0.7185 0.0450 0.3931
C10 C 0.7271(4) -0.0560(4) 0.5315(3)
C11 C 1.0146(4) -0.0651(4) 0.8227(3)
H8 H 0.9335 -0.1115 0.8296
C12 C 1.1613(4) 0.0464(4) 0.7684(3)
H9 H 1.2020 0.0914 0.7319
C13 C 1.2209(4) 0.0273(4) 0.8442(3)
H10 H 1.3120 0.0574 0.8702
C14 C 0.9275(4) -0.0231(4) 0.6810(3)
C15 C 0.9523(4) 0.0403(4) 0.6177(3)
H11 H 1.0374 0.0951 0.6245
C16 C 0.8538(4) 0.0240(4) 0.5447(3)
H12 H 0.8726 0.0685 0.5022
C17 C 0.8021(4) -0.1010(4) 0.6704(3)
H13 H 0.7828 -0.1442 0.7136
C18 C 0.7055(4) -0.1153(4) 0.5968(3)
H14 H 0.6200 -0.1685 0.5910
C19 C 1.6822(4) 0.4046(4) 0.9441(3)
H15 H 1.7735 0.4208 0.9624
C20 C 1.6196(4) 0.4240(4) 0.8702(3)
H16 H 1.6579 0.4566 0.8277
C21 C 1.4773(4) 0.3486(4) 0.9414(3)
H17 H 1.3975 0.3192 0.9567
C22 C 1.3847(4) 0.3844(3) 0.7987(2)
C23 C 1.4032(4) 0.3799(4) 0.7144(3)
H18 H 1.4862 0.3828 0.7039
C24 C 1.2622(4) 0.3839(3) 0.8141(3)
H19 H 1.2489 0.3910 0.8723
C25 C 0.7724(4) 0.3076(4) 0.2790(3)
H20 H 0.8492 0.3091 0.2592
C26 C 0.6367(4) 0.3090(4) 0.3657(3)
H21 H 0.6010 0.3117 0.4161
C27 C 0.5739(4) 0.3006(4) 0.2826(3)
H22 H 0.4852 0.2959 0.2644
C28 C 0.8661(4) 0.3249(4) 0.4374(3)
C29 C 0.9702(4) 0.2810(4) 0.4226(3)
H23 H 0.9729 0.2418 0.3635
C30 C 1.0700(4) 0.2947(4) 0.4945(3)
H24 H 1.1411 0.2649 0.4838
C31 C 1.0690(4) 0.3508(3) 0.5818(3)
C32 C 0.9626(4) 0.3931(4) 0.5954(3)
H25 H 0.9588 0.4307 0.6545
C33 C 0.8620(4) 0.3811(4) 0.5237(3)
H26 H 0.7911 0.4113 0.5340
C34 C 1.1778(4) 0.3654(3) 0.6583(3)
C35 C 1.3020(4) 0.3711(4) 0.6452(3)
H27 H 1.3167 0.3688 0.5878
C36 C 1.1620(4) 0.3730(4) 0.7445(3)
H28 H 1.0792 0.3705 0.7552
N1 N 0.1936(3) -0.1273(3) 0.1061(2)
N2 N 0.3084(3) -0.1435(3) 0.2297(2)
N3 N 1.1282(3) -0.0430(3) 0.8780(2)
N4 N 1.0287(3) -0.0128(3) 0.7545(2)
N5 N 0.6595(3) 0.3000(3) 0.2275(2)
N6 N 0.7631(3) 0.3130(3) 0.3636(2)
N7 N 1.5933(3) 0.3573(3) 0.9894(2)
N8 N 1.4886(3) 0.3874(3) 0.8679(2)
O1 O 0.4471(2) 0.2972(2) 0.10315(17)
O2 O 0.3097(2) 0.0665(2) 0.03946(18)
O3 O 0.2638(2) 0.2112(3) 0.17020(18)
O4 O 0.2182(2) 0.2454(2) 0.01730(17)
H29 H 0.1478 0.2409 0.0320
O5 O 0.0102(2) -0.2479(2) -0.05680(17)
O6 O 0.1981(2) -0.3115(2) -0.09532(17)
O7 O 0.0128(3) -0.4781(3) -0.0713(2)
H30 H -0.0694 -0.5122 -0.0806
O8 O -0.0132(3) -0.4036(3) -0.20732(18)
H31 H -0.0920 -0.4094 -0.2202
P1 P 0.31220(9) 0.20444(9) 0.08684(7)
P2 P 0.05357(9) -0.36025(10) -0.10392(7)
Cu1 Cu 0.16035(4) -0.08733(4) -0.00862(3)
Cu2 Cu 0.62540(4) 0.31002(5) 0.10246(3)
C1_2 C -0.6915(4) -0.0852(4) -0.8351(3)
H1_2 H -0.6181 -0.0215 -0.8386
C2_2 C -0.8850(4) -0.2183(4) -0.8640(3)
H2_2 H -0.9737 -0.2657 -0.8923
C3_2 C -0.8161(4) -0.2288(4) -0.7889(3)
H3_2 H -0.8467 -0.2842 -0.7549
C4_2 C -0.5849(4) -0.1214(4) -0.6957(3)
C5_2 C -0.6024(4) -0.1841(5) -0.6325(3)
H4_2 H -0.6851 -0.2428 -0.6383
C6_2 C -0.4648(4) -0.0371(5) -0.6860(3)
H5_2 H -0.4509 0.0063 -0.7299
C7_2 C -0.5008(4) -0.1630(5) -0.5604(3)
H6_2 H -0.5148 -0.2092 -0.5180
C8_2 C -0.3789(4) -0.0765(4) -0.5476(3)
C9_2 C -0.3636(4) -0.0146(4) -0.6127(3)
H7_2 H -0.2815 0.0450 -0.6069
C10_2 C -0.2729(4) -0.0560(4) -0.4685(3)
C11_2 C 0.0146(4) -0.0651(4) -0.1773(3)
H8_2 H -0.0665 -0.1115 -0.1704
C12_2 C 0.1613(4) 0.0464(4) -0.2316(3)
H9_2 H 0.2020 0.0914 -0.2681
C13_2 C 0.2209(4) 0.0273(4) -0.1558(3)
H10_2 H 0.3120 0.0574 -0.1298
C14_2 C -0.0725(4) -0.0231(4) -0.3190(3)
C15_2 C -0.0477(4) 0.0403(4) -0.3823(3)
H11_2 H 0.0374 0.0951 -0.3755
C16_2 C -0.1462(4) 0.0240(4) -0.4553(3)
H12_2 H -0.1274 0.0685 -0.4978
C17_2 C -0.1979(4) -0.1010(4) -0.3296(3)
H13_2 H -0.2172 -0.1442 -0.2864
C18_2 C -0.2945(4) -0.1153(4) -0.4032(3)
H14_2 H -0.3800 -0.1685 -0.4090
C19_2 C 0.6822(4) 0.4046(4) -0.0559(3)
H15_2 H 0.7735 0.4208 -0.0376
C20_2 C 0.6196(4) 0.4240(4) -0.1298(3)
H16_2 H 0.6579 0.4566 -0.1723
C21_2 C 0.4773(4) 0.3486(4) -0.0586(3)
H17_2 H 0.3975 0.3192 -0.0433
C22_2 C 0.3847(4) 0.3844(3) -0.2013(2)
C23_2 C 0.4032(4) 0.3799(4) -0.2856(3)
H18_2 H 0.4862 0.3828 -0.2961
C24_2 C 0.2622(4) 0.3839(3) -0.1859(3)
H19_2 H 0.2489 0.3910 -0.1277
C25_2 C -0.2276(4) 0.3076(4) -0.7210(3)
H20_2 H -0.1508 0.3091 -0.7408
C26_2 C -0.3633(4) 0.3090(4) -0.6343(3)
H21_2 H -0.3990 0.3117 -0.5839
C27_2 C -0.4261(4) 0.3006(4) -0.7174(3)
H22_2 H -0.5148 0.2959 -0.7356
C28_2 C -0.1339(4) 0.3249(4) -0.5626(3)
C29_2 C -0.0298(4) 0.2810(4) -0.5774(3)
H23_2 H -0.0271 0.2418 -0.6365
C30_2 C 0.0700(4) 0.2947(4) -0.5055(3)
H24_2 H 0.1411 0.2649 -0.5162
C31_2 C 0.0690(4) 0.3508(3) -0.4182(3)
C32_2 C -0.0374(4) 0.3931(4) -0.4046(3)
H25_2 H -0.0412 0.4307 -0.3455
C33_2 C -0.1380(4) 0.3811(4) -0.4763(3)
H26_2 H -0.2089 0.4113 -0.4660
C34_2 C 0.1778(4) 0.3654(3) -0.3417(3)
C35_2 C 0.3020(4) 0.3711(4) -0.3548(3)
H27_2 H 0.3167 0.3688 -0.4122
C36_2 C 0.1620(4) 0.3730(4) -0.2555(3)
H28_2 H 0.0792 0.3705 -0.2448
N1_2 N -0.8064(3) -0.1273(3) -0.8939(2)
N2_2 N -0.6916(3) -0.1435(3) -0.7703(2)
N3_2 N 0.1282(3) -0.0430(3) -0.1220(2)
N3_3 N -0.8718(3) -0.0430(3) -1.1220(2)
N4_2 N 0.0287(3) -0.0128(3) -0.2455(2)
N5_2 N -0.3405(3) 0.3000(3) -0.7725(2)
N5A N 0.3405(3) -0.3000(3) -0.2275(2)
N6_2 N -0.2369(3) 0.3130(3) -0.6364(2)
N7_2 N 0.5933(3) 0.3573(3) -0.0106(2)
N7A N 0.4067(3) -0.3573(3) 0.0106(2)
N8_2 N 0.4886(3) 0.3874(3) -0.1321(2)
O1_2 O -0.5529(2) 0.2972(2) -0.89685(17)
O1A O 0.5529(2) -0.2972(2) -0.10315(17)
O2_2 O -0.6903(2) 0.0665(2) -0.96054(18)
O3_2 O -0.7362(2) 0.2112(3) -0.82980(18)
O4_2 O -0.7818(2) 0.2454(2) -0.98270(17)
H29_2 H -0.8522 0.2409 -0.9680
O5A O 0.9898(2) 0.2479(2) 0.05680(17)
O5_2 O -0.9898(2) -0.2479(2) -1.05680(17)
O6A O 0.8019(2) 0.3115(2) 0.09532(17)
O7A O 0.9872(3) 0.4781(3) 0.0713(2)
H30A H 1.0694 0.5122 0.0806
O8A O 1.0132(3) 0.4036(3) 0.20732(18)
H31A H 1.0920 0.4094 0.2202
P1_2 P -0.68780(9) 0.20444(9) -0.91316(7)
P2A P 0.94643(9) 0.36025(10) 0.10392(7)
Cu1_2 Cu -0.83965(4) -0.08733(4) -1.00862(3)
Cu1_3 Cu 1.16035(4) -0.08733(4) 0.99138(3)
Cu1A Cu 0.83965(4) 0.08733(4) 0.00862(3)
Cu2A Cu 0.37460(4) -0.31002(5) -0.10246(3)
Cu2_2 Cu 1.62540(4) 0.31002(5) 1.10246(3)
Cu2_3 Cu -0.37460(4) 0.31002(5) -0.89754(3)
O9? O 0.5532(6) 0.0751(6) 0.0438(5)
H32? H 0.466(12) 0.024(12) 0.012(9)
loop_
_geom_bond_atom_site_label_1
_geom_bond_atom_site_label_2
_geom_bond_site_symmetry_1
_geom_bond_site_symmetry_2
C1 H1 1_555 1_555
C2 H2 1_555 1_555
C3 C2 1_555 1_555
H3 C3 1_555 1_555
C4 C5 1_555 1_555
C5 H4 1_555 1_555
C6 C4 1_555 1_555
H5 C6 1_555 1_555
C7 C5 1_555 1_555
H6 C7 1_555 1_555
C8 C7 1_555 1_555
C9 C6 1_555 1_555
H7 C9 1_555 1_555
C10 C8 1_555 1_555
C11 H8 1_555 1_555
C12 H9 1_555 1_555
C13 C12 1_555 1_555
H10 C13 1_555 1_555
C14 C15 1_555 1_555
C15 H11 1_555 1_555
C16 C10 1_555 1_555
H12 C16 1_555 1_555
C17 C14 1_555 1_555
H13 C17 1_555 1_555
C18 C10 1_555 1_555
H14 C18 1_555 1_555
C19 H15 1_555 1_555
C20 C19 1_555 1_555
H16 C20 1_555 1_555
C21 H17 1_555 1_555
C22 C23 1_555 1_555
C23 H18 1_555 1_555
C24 C22 1_555 1_555
H19 C24 1_555 1_555
C25 H20 1_555 1_555
C26 H21 1_555 1_555
C27 C26 1_555 1_555
H22 C27 1_555 1_555
C28 C29 1_555 1_555
C29 H23 1_555 1_555
C30 C29 1_555 1_555
H24 C30 1_555 1_555
C31 C30 1_555 1_555
C32 C31 1_555 1_555
H25 C32 1_555 1_555
C33 C28 1_555 1_555
H26 C33 1_555 1_555
C34 C31 1_555 1_555
C35 C23 1_555 1_555
H27 C35 1_555 1_555
C36 C24 1_555 1_555
H28 C36 1_555 1_555
N1 C1 1_555 1_555
N2 C1 1_555 1_555
N3 C11 1_555 1_555
N4 C11 1_555 1_555
N5 C25 1_555 1_555
N6 C25 1_555 1_555
N7 C19 1_555 1_555
N8 C20 1_555 1_555
O1 P1 1_555 1_555
O2 P1 1_555 1_555
O3 P1 1_555 1_555
O4 H29 1_555 1_555
O5 P2 1_555 1_555
O6 P2 1_555 1_555
O7 H30 1_555 1_555
O8 H31 1_555 1_555
P1 O4 1_555 1_555
P2 O7 1_555 1_555
Cu1 N1 1_555 1_555
Cu2 N5 1_555 1_555
N9 O10 1_555 1_555
O10 O11A 1_555 1_555
O11 N9 1_555 1_555
O12 N9 1_555 1_555
O13 H33 1_555 1_555
H34 O13 1_555 1_555
C1_2 H1_2 1_555 1_555
C2_2 H2_2 1_555 1_555
C3_2 C2_2 1_555 1_555
H3_2 C3_2 1_555 1_555
C4_2 C5_2 1_555 1_555
C5_2 H4_2 1_555 1_555
C6_2 C4_2 1_555 1_555
H5_2 C6_2 1_555 1_555
C7_2 C5_2 1_555 1_555
H6_2 C7_2 1_555 1_555
C8_2 C7_2 1_555 1_555
C9_2 C6_2 1_555 1_555
H7_2 C9_2 1_555 1_555
C10_2 C8_2 1_555 1_555
C11_2 H8_2 1_555 1_555
C12_2 H9_2 1_555 1_555
C13_2 C12_2 1_555 1_555
H10_2 C13_2 1_555 1_555
C14_2 C15_2 1_555 1_555
C15_2 H11_2 1_555 1_555
C16_2 C10_2 1_555 1_555
H12_2 C16_2 1_555 1_555
C17_2 C14_2 1_555 1_555
H13_2 C17_2 1_555 1_555
C18_2 C10_2 1_555 1_555
H14_2 C18_2 1_555 1_555
C19_2 H15_2 1_555 1_555
C20_2 C19_2 1_555 1_555
H16_2 C20_2 1_555 1_555
C21_2 H17_2 1_555 1_555
C22_2 C23_2 1_555 1_555
C23_2 H18_2 1_555 1_555
C24_2 C22_2 1_555 1_555
H19_2 C24_2 1_555 1_555
C25_2 H20_2 1_555 1_555
C26_2 H21_2 1_555 1_555
C27_2 C26_2 1_555 1_555
H22_2 C27_2 1_555 1_555
C28_2 C29_2 1_555 1_555
C29_2 H23_2 1_555 1_555
C30_2 C29_2 1_555 1_555
H24_2 C30_2 1_555 1_555
C31_2 C30_2 1_555 1_555
C32_2 C31_2 1_555 1_555
H25_2 C32_2 1_555 1_555
C33_2 C28_2 1_555 1_555
H26_2 C33_2 1_555 1_555
C34_2 C31_2 1_555 1_555
C35_2 C23_2 1_555 1_555
H27_2 C35_2 1_555 1_555
C36_2 C24_2 1_555 1_555
H28_2 C36_2 1_555 1_555
N1_2 C1_2 1_555 1_555
N2_2 C1_2 1_555 1_555
N3_2 Cu1 1_555 1_555
N3_3 Cu1_2 1_555 1_555
N4_2 C11_2 1_555 1_555
N5_2 C25_2 1_555 1_555
N5A Cu2A 1_555 1_555
N6_2 C25_2 1_555 1_555
N7_2 Cu2 1_555 1_555
N7A Cu2A 1_555 1_555
N8_2 C20_2 1_555 1_555
O1_2 P1_2 1_555 1_555
O1A Cu2A 1_555 1_555
O2_2 P1_2 1_555 1_555
O3_2 P1_2 1_555 1_555
O4_2 H29_2 1_555 1_555
O5A P2A 1_555 1_555
O5_2 Cu1_2 1_555 1_555
O6A Cu2 1_555 1_555
O7A H30A 1_555 1_555
O8A H31A 1_555 1_555
P1_2 O4_2 1_555 1_555
P2A O6A 1_555 1_555
Cu1_2 N1_2 1_555 1_555
Cu1_3 N3 1_555 1_555
Cu1A O5A 1_555 1_555
Cu2A O6 1_555 1_555
Cu2_2 N7 1_555 1_555
Cu2_3 N5_2 1_555 1_555
O10A N9 1_555 1_555
O11A N9 1_555 1_555
O12A N9 1_555 1_555
C2 N1 1_555 1_555
C3 N2 1_555 1_555
C4 N2 1_555 1_555
C8 C9 1_555 1_555
C12 N4 1_555 1_555
C13 N3 1_555 1_555
C14 N4 1_555 1_555
C15 C16 1_555 1_555
C17 C18 1_555 1_555
C21 N7 1_555 1_555
C21 N8 1_555 1_555
C22 N8 1_555 1_555
C26 N6 1_555 1_555
C27 N5 1_555 1_555
C28 N6 1_555 1_555
C32 C33 1_555 1_555
C34 C35 1_555 1_555
C34 C36 1_555 1_555
O1 Cu2 1_555 1_555
O2 Cu1 1_555 1_555
O5 Cu1 1_555 1_555
O8 P2 1_555 1_555
O10 O12A 1_555 1_555
O11 O10A 1_555 1_555
O11 O12A 1_555 1_555
O12 O10A 1_555 1_555
O12 O11A 1_555 1_555
C2_2 N1_2 1_555 1_555
C3_2 N2_2 1_555 1_555
C4_2 N2_2 1_555 1_555
C8_2 C9_2 1_555 1_555
C11_2 N3_2 1_555 1_555
C12_2 N4_2 1_555 1_555
C13_2 N3_2 1_555 1_555
C14_2 N4_2 1_555 1_555
C15_2 C16_2 1_555 1_555
C17_2 C18_2 1_555 1_555
C19_2 N7_2 1_555 1_555
C21_2 N7_2 1_555 1_555
C21_2 N8_2 1_555 1_555
C22_2 N8_2 1_555 1_555
C26_2 N6_2 1_555 1_555
C27_2 N5_2 1_555 1_555
C28_2 N6_2 1_555 1_555
C32_2 C33_2 1_555 1_555
C34_2 C35_2 1_555 1_555
C34_2 C36_2 1_555 1_555
O1_2 Cu2_3 1_555 1_555
O2_2 Cu1_2 1_555 1_555
O7A P2A 1_555 1_555
O8A P2A 1_555 1_555

#END
