
#######################################################################
#
#                 Cambridge Crystallographic Data Centre
#                                CCDC 
#
#######################################################################
#
# If this CIF has been generated from an entry in the Cambridge 
# Structural Database, then it will include bibliographic, chemical, 
# crystal, experimental, refinement or atomic coordinate data resulting 
# from the CCDC's data processing and validation procedures.
#
#######################################################################

data_KOGPAY
_symmetry_cell_setting           monoclinic
_symmetry_space_group_name_H-M   'C 2'
_symmetry_Int_Tables_number      5
_space_group_name_Hall           'C 2y'
loop_
_symmetry_equiv_pos_site_id
_symmetry_equiv_pos_as_xyz
1 x,y,z
2 -x,y,-z
3 1/2+x,1/2+y,z
4 1/2-x,1/2+y,-z
_cell_length_a                   26.001(8)
_cell_length_b                   12.666(4)
_cell_length_c                   13.309(4)
_cell_angle_alpha                90
_cell_angle_beta                 91.412(5)
_cell_angle_gamma                90
_cell_volume                     4381.7
loop_
_atom_site_label
_atom_site_type_symbol
_atom_site_fract_x
_atom_site_fract_y
_atom_site_fract_z
C1 C 0.1870(4) 1.0488(9) 0.6935(6)
C2 C 0.1477(3) 1.0236(13) 0.6237(5)
C3 C 0.1455(4) 1.0649(7) 0.5290(6)
C4 C 0.1814(4) 1.1409(9) 0.5062(7)
H1 H 0.1805 1.1697 0.4419
C5 C 0.2536(5) 1.2661(11) 0.5469(9)
H2 H 0.2724 1.2454 0.4879
H3 H 0.2325 1.3263 0.5280
C6 C 0.2904(8) 1.3002(17) 0.6222(12)
H4 H 0.2929 1.3766 0.6189
H5 H 0.3238 1.2717 0.6057
C7 C 0.2796(9) 1.2711(17) 0.7240(13)
H6 H 0.3112 1.2799 0.7634
H7 H 0.2552 1.3220 0.7491
C8 C 0.2602(5) 1.1693(11) 0.7451(9)
H8 H 0.2447 1.1705 0.8106
H9 H 0.2887 1.1198 0.7483
C9 C 0.2212(4) 1.1309(8) 0.6691(7)
C10 C 0.2181(4) 1.1760(9) 0.5737(7)
C11 C 0.1924(3) 0.9960(7) 0.7912(6)
C12 C 0.1594(3) 1.0246(13) 0.8694(6)
C13 C 0.1664(4) 0.9773(8) 0.9647(7)
C14 C 0.2056(4) 0.9053(8) 0.9793(6)
H10 H 0.2109 0.8764 1.0430
C15 C 0.2780(5) 0.7933(10) 0.9257(9)
H11 H 0.3006 0.8195 0.9792
H12 H 0.2616 0.7299 0.9502
C16 C 0.3092(7) 0.7652(17) 0.8408(13)
H13 H 0.3448 0.7736 0.8630
H14 H 0.3040 0.6902 0.8295
C17 C 0.3050(8) 0.8107(19) 0.7524(13)
H15 H 0.3018 0.7541 0.7036
H16 H 0.3378 0.8445 0.7410
C18 C 0.2653(6) 0.8885(15) 0.7243(11)
H17 H 0.2438 0.8592 0.6706
H18 H 0.2821 0.9507 0.6980
C19 C 0.2314(4) 0.9218(8) 0.8086(7)
C20 C 0.2370(4) 0.8750(8) 0.9042(7)
C21 C 0.1245(5) 0.8407(9) 0.6339(10)
H19 H 0.1601 0.8303 0.6519
H20 H 0.1190 0.8250 0.5639
H21 H 0.1037 0.7947 0.6734
C22 C 0.1044(3) 1.0403(11) 0.4474(6)
C23 C 0.1297(6) 1.1994(10) 0.8586(11)
H22 H 0.0996 1.2400 0.8411
H23 H 0.1573 1.2189 0.8157
H24 H 0.1396 1.2129 0.9273
C24 C 0.1330(4) 0.9995(7) 1.0553(7)
C25 C -0.0473(4) 0.5761(8) 0.2173(9)
C26 C -0.0144(5) 0.6624(10) 0.2315(10)
C27 C -0.0202(4) 0.7538(8) 0.1727(8)
C28 C -0.0566(5) 0.7518(8) 0.0959(8)
H25 H -0.0584 0.8087 0.0518
C29 C -0.1333(6) 0.6747(13) -0.0014(14)
H26 H -0.1544 0.7364 0.0104
H27 H -0.1172 0.6841 -0.0658
C30 C -0.1672(7) 0.5797(14) -0.0070(13)
H28 H -0.1534 0.5316 -0.0563
H29 H -0.2009 0.6018 -0.0318
C31 C -0.1740(4) 0.5199(19) 0.0885(11)
H30 H -0.1930 0.5627 0.1353
H31 H -0.1935 0.4561 0.0750
C32 C -0.1251(4) 0.4933(8) 0.1319(10)
H32 H -0.1103 0.4382 0.0911
H33 H -0.1307 0.4633 0.1978
C33 C -0.0856(5) 0.5807(9) 0.1440(9)
C34 C -0.0909(5) 0.6688(9) 0.0812(9)
C35 C 0.0749(5) 0.6737(16) 0.2885(15)
H34 H 0.0946 0.6675 0.3502
H35 H 0.0792 0.7432 0.2612
H36 H 0.0866 0.6222 0.2413
C36 C 0.0098(4) 0.8534(10) 0.1938(13)
C37 C -0.0401(4) 0.4791(8) 0.2780(9)
C38 C -0.0173(5) 0.3899(12) 0.2386(10)
C39 C -0.0142(4) 0.2951(8) 0.2923(8)
C40 C -0.0387(5) 0.2887(9) 0.3828(7)
H37 H -0.0391 0.2246 0.4169
C41 C -0.0875(6) 0.3661(13) 0.5236(9)
H38 H -0.1108 0.3063 0.5213
H39 H -0.0611 0.3511 0.5743
C42 C -0.1144(10) 0.4532(19) 0.5534(17)
H40 H -0.0951 0.4831 0.6098
H41 H -0.1464 0.4271 0.5798
C43 C -0.1276(9) 0.5387(19) 0.4893(16)
H42 H -0.1340 0.6003 0.5304
H43 H -0.1595 0.5217 0.4535
C44 C -0.0888(6) 0.5661(10) 0.4155(12)
H44 H -0.0630 0.6109 0.4475
H45 H -0.1051 0.6062 0.3614
C45 C -0.0627(5) 0.4715(9) 0.3717(9)
C46 C -0.0624(4) 0.3748(10) 0.4239(9)
C47 C 0.0458(5) 0.4403(12) 0.1238(11)
H46 H 0.0537 0.4370 0.0538
H47 H 0.0724 0.4056 0.1627
H48 H 0.0435 0.5128 0.1442
C48 C 0.0121(5) 0.1972(11) 0.2575(10)
Cd1 Cd 0.07586(2) 1.02664(6) 0.22063(4)
O1 O 0.1211(2) 1.0388(9) 0.3606(4)
O2 O 0.0596(2) 1.0232(10) 0.4703(4)
O3 O 0.1107(3) 0.9471(5) 0.6524(5)
O4 O 0.1442(3) 0.9618(8) 1.1366(5)
O5 O 0.0953(3) 1.0591(6) 1.0432(6)
O6 O 0.1187(3) 1.0909(6) 0.8462(5)
O7 O 0.0130(3) 0.9194(7) 0.1224(7)
O8 O 0.0278(4) 0.8737(9) 0.2759(7)
O9 O 0.0209(3) 0.6557(7) 0.3078(6)
O10 O -0.0039(4) 0.1113(8) 0.2680(8)
O11 O 0.0580(4) 0.2133(7) 0.2214(8)
O12 O -0.0014(3) 0.3898(6) 0.1394(5)
Na1 Na 0.01871(12) 0.9799(3) 0.6075(3)
O16 O 0.0000 0.8153(12) 0.5000
C1_2 C 0.1870(4) 1.0488(9) -0.3065(6)
C2_2 C 0.1477(3) 1.0236(13) -0.3763(5)
C3_2 C 0.1455(4) 1.0649(7) -0.4710(6)
C4_2 C 0.1814(4) 1.1409(9) -0.4938(7)
H1_2 H 0.1805 1.1697 -0.5581
C5_2 C 0.2536(5) 1.2661(11) -0.4531(9)
H2_2 H 0.2724 1.2454 -0.5121
H3_2 H 0.2325 1.3263 -0.4720
C6_2 C 0.2904(8) 1.3002(17) -0.3778(12)
H4_2 H 0.2929 1.3766 -0.3811
H5_2 H 0.3238 1.2717 -0.3943
C7_2 C 0.2796(9) 1.2711(17) -0.2760(13)
H6_2 H 0.3112 1.2799 -0.2366
H7_2 H 0.2552 1.3220 -0.2509
C8_2 C 0.2602(5) 1.1693(11) -0.2549(9)
H8_2 H 0.2447 1.1705 -0.1894
H9_2 H 0.2887 1.1198 -0.2517
C9_2 C 0.2212(4) 1.1309(8) -0.3309(7)
C10_2 C 0.2181(4) 1.1760(9) -0.4263(7)
C11_2 C 0.1924(3) 0.9960(7) -0.2088(6)
C12_2 C 0.1594(3) 1.0246(13) -0.1306(6)
C13_2 C 0.1664(4) 0.9773(8) -0.0353(7)
C14_2 C 0.2056(4) 0.9053(8) -0.0207(6)
H10_2 H 0.2109 0.8764 0.0430
C15_2 C 0.2780(5) 0.7933(10) -0.0743(9)
H11_2 H 0.3006 0.8195 -0.0208
H12_2 H 0.2616 0.7299 -0.0498
C16_2 C 0.3092(7) 0.7652(17) -0.1592(13)
H13_2 H 0.3448 0.7736 -0.1370
H14_2 H 0.3040 0.6902 -0.1705
C17_2 C 0.3050(8) 0.8107(19) -0.2476(13)
H15_2 H 0.3018 0.7541 -0.2964
H16_2 H 0.3378 0.8445 -0.2590
C18_2 C 0.2653(6) 0.8885(15) -0.2757(11)
H17_2 H 0.2438 0.8592 -0.3294
H18_2 H 0.2821 0.9507 -0.3020
C19_2 C 0.2314(4) 0.9218(8) -0.1914(7)
C20_2 C 0.2370(4) 0.8750(8) -0.0958(7)
C21_2 C 0.1245(5) 0.8407(9) -0.3661(10)
H19_2 H 0.1601 0.8303 -0.3481
H20_2 H 0.1190 0.8250 -0.4361
H21_2 H 0.1037 0.7947 -0.3266
C22_2 C 0.1044(3) 1.0403(11) -0.5526(6)
C23_2 C 0.1297(6) 1.1994(10) -0.1414(11)
H22_2 H 0.0996 1.2400 -0.1589
H23_2 H 0.1573 1.2189 -0.1843
H24_2 H 0.1396 1.2129 -0.0727
C24_2 C 0.1330(4) 0.9995(7) 0.0553(7)
C25_2 C -0.0473(4) 1.5761(8) 0.2173(9)
C26_2 C -0.0144(5) 1.6624(10) 0.2315(10)
C27_2 C -0.0202(4) 1.7538(8) 0.1727(8)
C28_2 C -0.0566(5) 1.7518(8) 0.0959(8)
H25_2 H -0.0584 1.8087 0.0518
C29_2 C -0.1333(6) 1.6747(13) -0.0014(14)
H26_2 H -0.1544 1.7364 0.0104
H27_2 H -0.1172 1.6841 -0.0658
C30_2 C -0.1672(7) 1.5797(14) -0.0070(13)
H28_2 H -0.1534 1.5316 -0.0563
H29_2 H -0.2009 1.6018 -0.0318
C31_2 C -0.1740(4) 1.5199(19) 0.0885(11)
H30_2 H -0.1930 1.5627 0.1353
H31_2 H -0.1935 1.4561 0.0750
C32_2 C -0.1251(4) 1.4933(8) 0.1319(10)
H32_2 H -0.1103 1.4382 0.0911
H33_2 H -0.1307 1.4633 0.1978
C33_2 C -0.0856(5) 1.5807(9) 0.1440(9)
C34_2 C -0.0909(5) 1.6688(9) 0.0812(9)
C35_2 C 0.0749(5) 1.6737(16) 0.2885(15)
H34_2 H 0.0946 1.6675 0.3502
H35_2 H 0.0792 1.7432 0.2612
H36_2 H 0.0866 1.6222 0.2413
C36_2 C 0.0098(4) 1.8534(10) 0.1938(13)
C37_2 C -0.0401(4) 1.4791(8) 0.2780(9)
C38_2 C -0.0173(5) 1.3899(12) 0.2386(10)
C39_2 C -0.0142(4) 1.2951(8) 0.2923(8)
C40_2 C -0.0387(5) 1.2887(9) 0.3828(7)
H37_2 H -0.0391 1.2246 0.4169
C41_2 C -0.0875(6) 1.3661(13) 0.5236(9)
H38_2 H -0.1108 1.3063 0.5213
H39_2 H -0.0611 1.3511 0.5743
C42_2 C -0.1144(10) 1.4532(19) 0.5534(17)
H40_2 H -0.0951 1.4831 0.6098
H41_2 H -0.1464 1.4271 0.5798
C43_2 C -0.1276(9) 1.5387(19) 0.4893(16)
H42_2 H -0.1340 1.6003 0.5304
H43_2 H -0.1595 1.5217 0.4535
C44_2 C -0.0888(6) 1.5661(10) 0.4155(12)
H44_2 H -0.0630 1.6109 0.4475
H45_2 H -0.1051 1.6062 0.3614
C45_2 C -0.0627(5) 1.4715(9) 0.3717(9)
C46_2 C -0.0624(4) 1.3748(10) 0.4239(9)
C47_2 C 0.0458(5) 1.4403(12) 0.1238(11)
H46_2 H 0.0537 1.4370 0.0538
H47_2 H 0.0724 1.4056 0.1627
H48_2 H 0.0435 1.5128 0.1442
C48_2 C 0.0121(5) 1.1972(11) 0.2575(10)
Cd1_2 Cd 0.07586(2) 1.02664(6) -0.77937(4)
Cd1_3 Cd 0.07586(2) 1.02664(6) 1.22063(4)
Cd1_4 Cd 0.07586(2) 0.02664(6) 0.22063(4)
Cd1_5 Cd 0.07586(2) 2.02664(6) 0.22063(4)
O1_2 O 0.1211(2) 1.0388(9) -0.6394(4)
O2_2 O 0.0596(2) 1.0232(10) -0.5297(4)
O2A O -0.0596(2) 1.0232(10) 0.5297(4)
O2A_2 O -0.0596(2) 1.0232(10) -0.4703(4)
O3_2 O 0.1107(3) 0.9471(5) -0.3476(5)
O4_2 O 0.1442(3) 0.9618(8) 0.1366(5)
O4_3 O 0.1442(3) 0.9618(8) -0.8634(5)
O5_2 O 0.0953(3) 1.0591(6) 0.0432(6)
O5_3 O 0.0953(3) 1.0591(6) -0.9568(6)
O6_2 O 0.1187(3) 1.0909(6) -0.1538(5)
O7_2 O 0.0130(3) 1.9194(7) 0.1224(7)
O7_3 O 0.0130(3) 0.9194(7) -0.8776(7)
O8_2 O 0.0278(4) 1.8737(9) 0.2759(7)
O8A O -0.0278(4) 0.8737(9) 0.7241(7)
O8_3 O 0.0278(4) 0.8737(9) -0.7241(7)
O8A_2 O -0.0278(4) 0.8737(9) -0.2759(7)
O9_2 O 0.0209(3) 1.6557(7) 0.3078(6)
O10_2 O -0.0039(4) 1.1113(8) 0.2680(8)
O10A O 0.0039(4) 1.1113(8) 0.7320(8)
O10_3 O -0.0039(4) 1.1113(8) -0.7320(8)
O10A_2 O 0.0039(4) 1.1113(8) -0.2680(8)
O11_2 O 0.0580(4) 1.2133(7) 0.2214(8)
O11_3 O 0.0580(4) 1.2133(7) -0.7786(8)
O12_2 O -0.0014(3) 1.3898(6) 0.1394(5)
Na1_2 Na 0.01871(12) 0.9799(3) -0.3925(3)
Na1A Na -0.01871(12) 0.9799(3) 0.3925(3)
Na1A_2 Na -0.01871(12) -0.0201(3) 0.3925(3)
Na1A_3 Na -0.01871(12) 0.9799(3) -0.6075(3)
Na1A_4 Na -0.01871(12) 1.9799(3) 0.3925(3)
O16_2 O 0.0000 0.8153(12) -0.5000
O13 O 0.0406(2) 0.0612(5) 0.9078(6)
O14 O 0.0000 0.2015(12) 0.0000
O15 O 0.0000 0.0516(10) 1.0000
loop_
_geom_bond_atom_site_label_1
_geom_bond_atom_site_label_2
_geom_bond_site_symmetry_1
_geom_bond_site_symmetry_2
C1 C2 1_555 1_555
C2 C3 1_555 1_555
C3 C4 1_555 1_555
C4 H1 1_555 1_555
C5 H2 1_555 1_555
H3 C5 1_555 1_555
C6 C5 1_555 1_555
H4 C6 1_555 1_555
H5 C6 1_555 1_555
C7 C6 1_555 1_555
H6 C7 1_555 1_555
H7 C7 1_555 1_555
C8 C7 1_555 1_555
H8 C8 1_555 1_555
H9 C8 1_555 1_555
C9 C1 1_555 1_555
C10 C4 1_555 1_555
C11 C1 1_555 1_555
C12 C11 1_555 1_555
C13 C12 1_555 1_555
C14 C13 1_555 1_555
H10 C14 1_555 1_555
C15 H11 1_555 1_555
H12 C15 1_555 1_555
C16 C15 1_555 1_555
H13 C16 1_555 1_555
H14 C16 1_555 1_555
C17 C16 1_555 1_555
H15 C17 1_555 1_555
H16 C17 1_555 1_555
C18 C17 1_555 1_555
H17 C18 1_555 1_555
H18 C18 1_555 1_555
C19 C11 1_555 1_555
C20 C14 1_555 1_555
C21 H19 1_555 1_555
H20 C21 1_555 1_555
H21 C21 1_555 1_555
C22 C3 1_555 1_555
C23 H22 1_555 1_555
H23 C23 1_555 1_555
H24 C23 1_555 1_555
C24 C13 1_555 1_555
C25 C26 1_555 1_555
C26 C27 1_555 1_555
C27 C28 1_555 1_555
C28 H25 1_555 1_555
C29 H26 1_555 1_555
H27 C29 1_555 1_555
C30 C29 1_555 1_555
H28 C30 1_555 1_555
H29 C30 1_555 1_555
C31 C30 1_555 1_555
H30 C31 1_555 1_555
H31 C31 1_555 1_555
C32 C31 1_555 1_555
H32 C32 1_555 1_555
H33 C32 1_555 1_555
C33 C25 1_555 1_555
C34 C28 1_555 1_555
C35 H34 1_555 1_555
H35 C35 1_555 1_555
H36 C35 1_555 1_555
C36 C27 1_555 1_555
C37 C25 1_555 1_555
C38 C37 1_555 1_555
C39 C38 1_555 1_555
C40 C39 1_555 1_555
H37 C40 1_555 1_555
C41 H38 1_555 1_555
H39 C41 1_555 1_555
C42 C41 1_555 1_555
H40 C42 1_555 1_555
H41 C42 1_555 1_555
C43 C42 1_555 1_555
H42 C43 1_555 1_555
H43 C43 1_555 1_555
C44 C43 1_555 1_555
H44 C44 1_555 1_555
H45 C44 1_555 1_555
C45 C37 1_555 1_555
C46 C40 1_555 1_555
C47 H46 1_555 1_555
H47 C47 1_555 1_555
H48 C47 1_555 1_555
C48 C39 1_555 1_555
Cd1 O1 1_555 1_555
O1 C22 1_555 1_555
O2 C22 1_555 1_555
O3 C2 1_555 1_555
O4 C24 1_555 1_555
O5 C24 1_555 1_555
O6 C12 1_555 1_555
O7 C36 1_555 1_555
O8 C36 1_555 1_555
O9 C26 1_555 1_555
O10 C48 1_555 1_555
O11 C48 1_555 1_555
O12 C38 1_555 1_555
Na1 O2 1_555 1_555
O16 Na1 1_555 1_555
C1_2 C2_2 1_555 1_555
C2_2 C3_2 1_555 1_555
C3_2 C4_2 1_555 1_555
C4_2 H1_2 1_555 1_555
C5_2 H2_2 1_555 1_555
H3_2 C5_2 1_555 1_555
C6_2 C5_2 1_555 1_555
H4_2 C6_2 1_555 1_555
H5_2 C6_2 1_555 1_555
C7_2 C6_2 1_555 1_555
H6_2 C7_2 1_555 1_555
H7_2 C7_2 1_555 1_555
C8_2 C7_2 1_555 1_555
H8_2 C8_2 1_555 1_555
H9_2 C8_2 1_555 1_555
C9_2 C1_2 1_555 1_555
C10_2 C4_2 1_555 1_555
C11_2 C1_2 1_555 1_555
C12_2 C11_2 1_555 1_555
C13_2 C12_2 1_555 1_555
C14_2 C13_2 1_555 1_555
H10_2 C14_2 1_555 1_555
C15_2 H11_2 1_555 1_555
H12_2 C15_2 1_555 1_555
C16_2 C15_2 1_555 1_555
H13_2 C16_2 1_555 1_555
H14_2 C16_2 1_555 1_555
C17_2 C16_2 1_555 1_555
H15_2 C17_2 1_555 1_555
H16_2 C17_2 1_555 1_555
C18_2 C17_2 1_555 1_555
H17_2 C18_2 1_555 1_555
H18_2 C18_2 1_555 1_555
C19_2 C11_2 1_555 1_555
C20_2 C14_2 1_555 1_555
C21_2 H19_2 1_555 1_555
H20_2 C21_2 1_555 1_555
H21_2 C21_2 1_555 1_555
C22_2 C3_2 1_555 1_555
C23_2 H22_2 1_555 1_555
H23_2 C23_2 1_555 1_555
H24_2 C23_2 1_555 1_555
C24_2 C13_2 1_555 1_555
C25_2 C26_2 1_555 1_555
C26_2 C27_2 1_555 1_555
C27_2 C28_2 1_555 1_555
C28_2 H25_2 1_555 1_555
C29_2 H26_2 1_555 1_555
H27_2 C29_2 1_555 1_555
C30_2 C29_2 1_555 1_555
H28_2 C30_2 1_555 1_555
H29_2 C30_2 1_555 1_555
C31_2 C30_2 1_555 1_555
H30_2 C31_2 1_555 1_555
H31_2 C31_2 1_555 1_555
C32_2 C31_2 1_555 1_555
H32_2 C32_2 1_555 1_555
H33_2 C32_2 1_555 1_555
C33_2 C25_2 1_555 1_555
C34_2 C28_2 1_555 1_555
C35_2 H34_2 1_555 1_555
H35_2 C35_2 1_555 1_555
H36_2 C35_2 1_555 1_555
C36_2 C27_2 1_555 1_555
C37_2 C25_2 1_555 1_555
C38_2 C37_2 1_555 1_555
C39_2 C38_2 1_555 1_555
C40_2 C39_2 1_555 1_555
H37_2 C40_2 1_555 1_555
C41_2 H38_2 1_555 1_555
H39_2 C41_2 1_555 1_555
C42_2 C41_2 1_555 1_555
H40_2 C42_2 1_555 1_555
H41_2 C42_2 1_555 1_555
C43_2 C42_2 1_555 1_555
H42_2 C43_2 1_555 1_555
H43_2 C43_2 1_555 1_555
C44_2 C43_2 1_555 1_555
H44_2 C44_2 1_555 1_555
H45_2 C44_2 1_555 1_555
C45_2 C37_2 1_555 1_555
C46_2 C40_2 1_555 1_555
C47_2 H46_2 1_555 1_555
H47_2 C47_2 1_555 1_555
H48_2 C47_2 1_555 1_555
C48_2 C39_2 1_555 1_555
Cd1_2 O1_2 1_555 1_555
Cd1_3 O4 1_555 1_555
Cd1_4 O10 1_555 1_555
Cd1_5 O7_2 1_555 1_555
O1_2 C22_2 1_555 1_555
O2_2 C22_2 1_555 1_555
O2A Na1 1_555 1_555
O2A_2 Na1_2 1_555 1_555
O3_2 C2_2 1_555 1_555
O4_2 Cd1 1_555 1_555
O4_3 Cd1_2 1_555 1_555
O5_2 Cd1 1_555 1_555
O5_3 Cd1_2 1_555 1_555
O6_2 C12_2 1_555 1_555
O7_2 C36_2 1_555 1_555
O7_3 Cd1_2 1_555 1_555
O8_2 C36_2 1_555 1_555
O8A Na1 1_555 1_555
O8_3 Cd1_2 1_555 1_555
O8A_2 Na1_2 1_555 1_555
O9_2 C26_2 1_555 1_555
O10_2 Cd1 1_555 1_555
O10A Na1 1_555 1_555
O10_3 Cd1_2 1_555 1_555
O10A_2 Na1_2 1_555 1_555
O11_2 Cd1 1_555 1_555
O11_3 Cd1_2 1_555 1_555
O12_2 C38_2 1_555 1_555
Na1_2 O2_2 1_555 1_555
Na1A O2 1_555 1_555
Na1A_2 O10 1_555 1_555
Na1A_3 O2_2 1_555 1_555
Na1A_4 O8_2 1_555 1_555
O16_2 Na1_2 1_555 1_555
C5 C10 1_555 1_555
C8 C9 1_555 1_555
C9 C10 1_555 1_555
C15 C20 1_555 1_555
C18 C19 1_555 1_555
C19 C20 1_555 1_555
C21 O3 1_555 1_555
C23 O6 1_555 1_555
C29 C34 1_555 1_555
C32 C33 1_555 1_555
C33 C34 1_555 1_555
C35 O9 1_555 1_555
C41 C46 1_555 1_555
C44 C45 1_555 1_555
C45 C46 1_555 1_555
C47 O12 1_555 1_555
Cd1 O7 1_555 1_555
Cd1 O8 1_555 1_555
O3 Na1 1_555 1_555
O5 Cd1_3 1_555 1_555
O8 Na1A 1_555 1_555
O11 Cd1_4 1_555 1_555
Na1 Na1A 1_555 1_555
O16 Na1A 1_555 1_555
C5_2 C10_2 1_555 1_555
C8_2 C9_2 1_555 1_555
C9_2 C10_2 1_555 1_555
C15_2 C20_2 1_555 1_555
C18_2 C19_2 1_555 1_555
C19_2 C20_2 1_555 1_555
C21_2 O3_2 1_555 1_555
C23_2 O6_2 1_555 1_555
C24_2 O4_2 1_555 1_555
C24_2 O5_2 1_555 1_555
C29_2 C34_2 1_555 1_555
C32_2 C33_2 1_555 1_555
C33_2 C34_2 1_555 1_555
C35_2 O9_2 1_555 1_555
C41_2 C46_2 1_555 1_555
C44_2 C45_2 1_555 1_555
C45_2 C46_2 1_555 1_555
C47_2 O12_2 1_555 1_555
C48_2 O10_2 1_555 1_555
C48_2 O11_2 1_555 1_555
Cd1_5 O8_2 1_555 1_555
O2A Na1A 1_555 1_555
O2A_2 Na1A_3 1_555 1_555
O3_2 Na1_2 1_555 1_555
O8_3 Na1A_3 1_555 1_555
O10_2 Na1A 1_555 1_555
O10_3 Na1A_3 1_555 1_555
Na1_2 Na1A_3 1_555 1_555
Na1A_3 O16_2 1_555 1_555

#END
