
#######################################################################
#
#                 Cambridge Crystallographic Data Centre
#                                CCDC 
#
#######################################################################
#
# If this CIF has been generated from an entry in the Cambridge 
# Structural Database, then it will include bibliographic, chemical, 
# crystal, experimental, refinement or atomic coordinate data resulting 
# from the CCDC's data processing and validation procedures.
#
#######################################################################

data_KOGPUS
_symmetry_cell_setting           triclinic
_symmetry_space_group_name_H-M   'P -1'
_symmetry_Int_Tables_number      2
_space_group_name_Hall           '-P 1'
loop_
_symmetry_equiv_pos_site_id
_symmetry_equiv_pos_as_xyz
1 x,y,z
2 -x,-y,-z
_cell_length_a                   10.5206(5)
_cell_length_b                   13.7200(6)
_cell_length_c                   17.5966(6)
_cell_angle_alpha                101.118(3)
_cell_angle_beta                 98.242(4)
_cell_angle_gamma                107.119(4)
_cell_volume                     2326.99
loop_
_atom_site_label
_atom_site_type_symbol
_atom_site_fract_x
_atom_site_fract_y
_atom_site_fract_z
Cu1 Cu 1.0000 0.0000 0.0000
Cu2 Cu 0.86120(4) 0.38780(3) 0.13070(2)
Cu3 Cu 0.59436(4) 0.17584(3) 0.11175(2)
P1 P 0.86873(8) 0.17639(6) 0.04406(5)
P2 P 0.65039(9) 0.49872(7) 0.20962(5)
P3 P 0.30611(8) 0.16684(7) 0.14555(5)
C1 C 0.9839(3) -0.0269(3) 0.16045(18)
H1 H 1.0338 0.0459 0.1812
C2 C 0.8743(4) -0.1779(3) 0.0798(2)
H2 H 0.8327 -0.2311 0.0319
C3 C 0.8747(4) -0.1930(3) 0.1535(2)
H3 H 0.8346 -0.2573 0.1670
C4 C 0.9675(3) -0.0712(3) 0.29035(18)
C5 C 0.8949(3) -0.1420(3) 0.32788(19)
H4 H 0.8357 -0.2095 0.2979
C6 C 0.9091(3) -0.1138(3) 0.40990(19)
H5 H 0.8588 -0.1630 0.4350
C7 C 0.9950(3) -0.0155(3) 0.45618(18)
C8 C 1.0721(3) 0.0526(3) 0.4169(2)
H6 H 1.1343 0.1191 0.4469
C9 C 1.0595(3) 0.0251(3) 0.33536(19)
H7 H 1.1137 0.0721 0.3103
C10 C 0.8804(3) 0.3754(3) 0.29698(19)
H8 H 0.8140 0.4091 0.3027
C11 C 1.0210(4) 0.3062(3) 0.2480(2)
H9 H 1.0711 0.2825 0.2119
C12 C 1.0326(4) 0.2993(3) 0.3243(2)
H10 H 1.0911 0.2699 0.3513
C13 C 0.9204(3) 0.3565(3) 0.43470(19)
C14 C 1.0187(3) 0.3537(3) 0.49524(19)
H11 H 1.0998 0.3425 0.4841
C15 C 0.9980(3) 0.3672(3) 0.57186(19)
H12 H 1.0657 0.3653 0.6130
C16 C 0.8800(3) 0.3837(3) 0.59030(19)
C17 C 0.7814(3) 0.3858(3) 0.5279(2)
H13 H 0.7001 0.3967 0.5388
C18 C 0.8012(3) 0.3720(3) 0.45073(19)
H14 H 0.7337 0.3732 0.4091
C19 C 0.8495(3) 0.4036(3) 0.96579(19)
H15 H 0.8814 0.3456 0.9542
C20 C 0.7826(3) 0.5256(3) 1.02784(19)
H16 H 0.7585 0.5685 1.0686
C21 C 0.7766(3) 0.5355(3) 0.95246(19)
H17 H 0.7492 0.5863 0.9309
C22 C 0.8321(3) 0.4365(3) 0.83142(19)
C23 C 0.7556(3) 0.4685(3) 0.77646(19)
H18 H 0.6936 0.5027 0.7921
C24 C 0.7705(3) 0.4502(3) 0.6985(2)
H19 H 0.7187 0.4729 0.6611
C25 C 0.8600(3) 0.3992(3) 0.67339(19)
C26 C 0.9327(4) 0.3656(3) 0.7301(2)
H20 H 0.9923 0.3289 0.7144
C27 C 0.9202(3) 0.3841(3) 0.80796(19)
H21 H 0.9715 0.3613 0.8455
C28 C 0.6016(3) 0.1543(3) 0.27677(18)
H22 H 0.5502 0.2000 0.2872
C29 C 0.7102(4) 0.0610(3) 0.2179(2)
H23 H 0.7489 0.0294 0.1785
C30 C 0.7184(4) 0.0474(3) 0.2925(2)
H24 H 0.7630 0.0054 0.3150
C31 C 0.6288(3) 0.1168(3) 0.40947(19)
C32 C 0.7288(3) 0.1127(3) 0.46777(19)
H25 H 0.8095 0.1026 0.4551
C33 C 0.7101(3) 0.1234(3) 0.5452(2)
H26 H 0.7788 0.1206 0.5853
C34 C 0.5926(3) 0.1382(3) 0.56496(19)
C35 C 0.4925(3) 0.1409(3) 0.50417(19)
H27 H 0.4111 0.1503 0.5164
C36 C 0.5097(3) 0.1301(3) 0.4270(2)
H28 H 0.4408 0.1317 0.3864
C37 C 0.5489(3) 0.1591(3) 0.93992(19)
H29 H 0.5710 0.0962 0.9296
C38 C 0.5027(4) 0.2940(3) 0.9994(2)
H30 H 0.4866 0.3432 1.0396
C39 C 0.4934(4) 0.2973(3) 0.9226(2)
H31 H 0.4712 0.3487 0.8992
C40 C 0.5379(3) 0.1881(3) 0.80402(19)
C41 C 0.4741(3) 0.2305(3) 0.75043(19)
H32 H 0.4189 0.2710 0.7666
C42 C 0.4922(4) 0.2129(3) 0.6733(2)
H33 H 0.4488 0.2419 0.6367
C43 C 0.5727(3) 0.1537(3) 0.64790(19)
C44 C 0.6353(3) 0.1118(3) 0.7030(2)
H34 H 0.6904 0.0711 0.6870
C45 C 0.6183(4) 0.1288(3) 0.7810(2)
H35 H 0.6613 0.1001 0.8179
N1 N 0.9432(3) -0.0740(2) 0.08433(16)
N2 N 0.9453(3) -0.0959(2) 0.20555(16)
N3 N 0.9240(3) 0.3535(2) 0.23103(16)
N4 N 0.9427(3) 0.3435(2) 0.35512(16)
N5 N 0.8294(3) 0.4431(2) 1.03607(15)
N6 N 0.8186(3) 0.4565(2) 0.91284(16)
N7 N 0.6368(3) 0.1282(2) 0.20804(16)
N8 N 0.6485(3) 0.1072(2) 0.32959(16)
N9 N 0.5390(3) 0.2080(2) 1.01029(16)
N10 N 0.5230(3) 0.2108(2) 0.88495(16)
O1 O 0.9755(2) 0.12376(17) 0.06380(12)
O2 O 0.9375(2) 0.29460(18) 0.07125(13)
O3 O 0.7435(2) 0.13537(18) 0.07704(13)
O4 O 0.8255(2) 0.14981(18) -0.04966(13)
H36 H 0.7866 0.0846 -0.0676
O5 O 0.7211(2) 0.42589(19) 0.17413(13)
O6 O 0.6904(3) 0.60750(19) 0.19971(14)
O7 O 0.6648(3) 0.49621(19) 0.30017(14)
H37 H 0.6640 0.5508 0.3306
O8 O 0.4925(2) 0.44150(18) 0.17276(14)
H38 H 0.4694 0.3797 0.1783
O9 O 0.4558(2) 0.22654(18) 0.15371(13)
O10 O 0.2795(2) 0.16386(19) 0.23160(13)
H39 H 0.3116 0.2251 0.2613
O11 O 0.2304(2) 0.24059(18) 0.11604(14)
H40 H 0.1475 0.2168 0.1168
O12 O 0.2486(2) 0.05769(19) 0.09405(14)
Cu1_2 Cu 1.0000 0.0000 1.0000
Cu2A Cu 1.13880(4) -0.38780(3) -0.13070(2)
Cu2_2 Cu 0.86120(4) 0.38780(3) 1.13070(2)
Cu2_3 Cu 0.86120(4) 0.38780(3) -0.86930(2)
Cu3A Cu 1.40564(4) -0.17584(3) -0.11175(2)
Cu3_2 Cu 0.59436(4) 0.17584(3) 1.11175(2)
Cu3_3 Cu 0.59436(4) 0.17584(3) -0.88825(2)
P1A P 1.13127(8) -0.17639(6) -0.04406(5)
P2A P 1.34961(9) -0.49872(7) -0.20962(5)
P3A P 1.69389(8) -0.16684(7) -0.14555(5)
C1A C 1.0161(3) 0.0269(3) 0.83955(18)
H1A H 0.9662 -0.0459 0.8188
C2A C 1.1257(4) 0.1779(3) 0.9202(2)
H2A H 1.1673 0.2311 0.9681
C3A C 1.1253(4) 0.1930(3) 0.8465(2)
H3A H 1.1654 0.2573 0.8330
C4A C 1.0325(3) 0.0712(3) 0.70965(18)
C5A C 1.1051(3) 0.1420(3) 0.67212(19)
H4A H 1.1643 0.2095 0.7021
C6A C 1.0909(3) 0.1138(3) 0.59010(19)
H5A H 1.1412 0.1630 0.5650
C7A C 1.0050(3) 0.0155(3) 0.54382(18)
C8A C 0.9279(3) -0.0526(3) 0.5831(2)
H6A H 0.8657 -0.1191 0.5531
C9A C 0.9405(3) -0.0251(3) 0.66464(19)
H7A H 0.8863 -0.0721 0.6897
C10_2 C 0.8804(3) 0.3754(3) -0.70302(19)
H8_2 H 0.8140 0.4091 -0.6973
C11_2 C 1.0210(4) 0.3062(3) -0.7520(2)
H9_2 H 1.0711 0.2825 -0.7881
C12_2 C 1.0326(4) 0.2993(3) -0.6757(2)
H10_2 H 1.0911 0.2699 -0.6487
C13_2 C 0.9204(3) 0.3565(3) -0.56530(19)
C14_2 C 1.0187(3) 0.3537(3) -0.50476(19)
H11_2 H 1.0998 0.3425 -0.5159
C15_2 C 0.9980(3) 0.3672(3) -0.42814(19)
H12_2 H 1.0657 0.3653 -0.3870
C16_2 C 0.8800(3) 0.3837(3) -0.40970(19)
C17_2 C 0.7814(3) 0.3858(3) -0.4721(2)
H13_2 H 0.7001 0.3967 -0.4612
C18_2 C 0.8012(3) 0.3720(3) -0.54927(19)
H14_2 H 0.7337 0.3732 -0.5909
C19_2 C 0.8495(3) 0.4036(3) -0.03421(19)
H15_2 H 0.8814 0.3456 -0.0458
C20_2 C 0.7826(3) 0.5256(3) 0.02784(19)
H16_2 H 0.7585 0.5685 0.0686
C21_2 C 0.7766(3) 0.5355(3) -0.04754(19)
H17_2 H 0.7492 0.5863 -0.0691
C22_2 C 0.8321(3) 0.4365(3) -0.16858(19)
C23_2 C 0.7556(3) 0.4685(3) -0.22354(19)
H18_2 H 0.6936 0.5027 -0.2079
C24_2 C 0.7705(3) 0.4502(3) -0.3015(2)
H19_2 H 0.7187 0.4729 -0.3389
C25_2 C 0.8600(3) 0.3992(3) -0.32661(19)
C26_2 C 0.9327(4) 0.3656(3) -0.2699(2)
H20_2 H 0.9923 0.3289 -0.2856
C27_2 C 0.9202(3) 0.3841(3) -0.19204(19)
H21_2 H 0.9715 0.3613 -0.1545
C28_2 C 0.6016(3) 0.1543(3) -0.72323(18)
H22_2 H 0.5502 0.2000 -0.7128
C29_2 C 0.7102(4) 0.0610(3) -0.7821(2)
H23_2 H 0.7489 0.0294 -0.8215
C30_2 C 0.7184(4) 0.0474(3) -0.7075(2)
H24_2 H 0.7630 0.0054 -0.6850
C31_2 C 0.6288(3) 0.1168(3) -0.59053(19)
C32_2 C 0.7288(3) 0.1127(3) -0.53223(19)
H25_2 H 0.8095 0.1026 -0.5449
C33_2 C 0.7101(3) 0.1234(3) -0.4548(2)
H26_2 H 0.7788 0.1206 -0.4147
C34_2 C 0.5926(3) 0.1382(3) -0.43504(19)
C35_2 C 0.4925(3) 0.1409(3) -0.49583(19)
H27_2 H 0.4111 0.1503 -0.4836
C36_2 C 0.5097(3) 0.1301(3) -0.5730(2)
H28_2 H 0.4408 0.1317 -0.6136
C37_2 C 0.5489(3) 0.1591(3) -0.06008(19)
H29_2 H 0.5710 0.0962 -0.0704
C38_2 C 0.5027(4) 0.2940(3) -0.0006(2)
H30_2 H 0.4866 0.3432 0.0396
C39_2 C 0.4934(4) 0.2973(3) -0.0774(2)
H31_2 H 0.4712 0.3487 -0.1008
C40_2 C 0.5379(3) 0.1881(3) -0.19598(19)
C41_2 C 0.4741(3) 0.2305(3) -0.24957(19)
H32_2 H 0.4189 0.2710 -0.2334
C42_2 C 0.4922(4) 0.2129(3) -0.3267(2)
H33_2 H 0.4488 0.2419 -0.3633
C43_2 C 0.5727(3) 0.1537(3) -0.35210(19)
C44_2 C 0.6353(3) 0.1118(3) -0.2970(2)
H34_2 H 0.6904 0.0711 -0.3130
C45_2 C 0.6183(4) 0.1288(3) -0.2190(2)
H35_2 H 0.6613 0.1001 -0.1821
N1A N 1.0568(3) 0.0740(2) 0.91567(16)
N1A_2 N 1.0568(3) 0.0740(2) -0.08433(16)
N2A N 1.0547(3) 0.0959(2) 0.79445(16)
N3_2 N 0.9240(3) 0.3535(2) -0.76897(16)
N3A N 1.0760(3) -0.3535(2) -0.23103(16)
N4_2 N 0.9427(3) 0.3435(2) -0.64488(16)
N5_2 N 0.8294(3) 0.4431(2) 0.03607(15)
N5A N 1.1706(3) -0.4431(2) -0.03607(15)
N6_2 N 0.8186(3) 0.4565(2) -0.08716(16)
N7_2 N 0.6368(3) 0.1282(2) -0.79196(16)
N7A N 1.3632(3) -0.1282(2) -0.20804(16)
N8_2 N 0.6485(3) 0.1072(2) -0.67041(16)
N9_2 N 0.5390(3) 0.2080(2) 0.01029(16)
N9A N 1.4610(3) -0.2080(2) -0.01029(16)
N10_2 N 0.5230(3) 0.2108(2) -0.11505(16)
O1A O 1.0245(2) -0.12376(17) -0.06380(12)
O2A O 1.0625(2) -0.29460(18) -0.07125(13)
O3A O 1.2565(2) -0.13537(18) -0.07704(13)
O4A O 1.1745(2) -0.14981(18) 0.04966(13)
H36A H 1.2134 -0.0846 0.0676
O5A O 1.2789(2) -0.42589(19) -0.17413(13)
O6A O 1.3096(3) -0.60750(19) -0.19971(14)
O7A O 1.3352(3) -0.49621(19) -0.30017(14)
H37A H 1.3360 -0.5508 -0.3306
O8A O 1.5075(2) -0.44150(18) -0.17276(14)
H38A H 1.5306 -0.3797 -0.1783
O9A O 1.5442(2) -0.22654(18) -0.15371(13)
O10A O 1.7205(2) -0.16386(19) -0.23160(13)
H39A H 1.6884 -0.2251 -0.2613
O11A O 1.7696(2) -0.24059(18) -0.11604(14)
H40A H 1.8525 -0.2168 -0.1168
O12A O 1.7514(2) -0.05769(19) -0.09405(14)
N11 N 0.6306(3) 0.6409(2) 0.46374(18)
O13 O 0.7019(3) 0.6621(2) 0.41274(15)
O14 O 0.6784(3) 0.6922(2) 0.53520(15)
O15 O 0.5177(3) 0.5720(2) 0.44287(17)
O16 O 0.4443(3) 0.3303(2) 0.34040(16)
H41 H 0.493(4) 0.3900(16) 0.336(2)
H42 H 0.403(5) 0.340(3) 0.379(2)
loop_
_geom_bond_atom_site_label_1
_geom_bond_atom_site_label_2
_geom_bond_site_symmetry_1
_geom_bond_site_symmetry_2
Cu1 N1 1_555 1_555
Cu2 N3 1_555 1_555
Cu3 N7 1_555 1_555
P1 O1 1_555 1_555
P2 O5 1_555 1_555
P3 O9 1_555 1_555
C1 H1 1_555 1_555
C2 H2 1_555 1_555
C3 C2 1_555 1_555
H3 C3 1_555 1_555
C4 C5 1_555 1_555
C5 H4 1_555 1_555
C6 C5 1_555 1_555
H5 C6 1_555 1_555
C7 C6 1_555 1_555
C8 C7 1_555 1_555
H6 C8 1_555 1_555
C9 C4 1_555 1_555
H7 C9 1_555 1_555
C10 H8 1_555 1_555
C11 H9 1_555 1_555
C12 C11 1_555 1_555
H10 C12 1_555 1_555
C13 C14 1_555 1_555
C14 H11 1_555 1_555
C15 C14 1_555 1_555
H12 C15 1_555 1_555
C16 C15 1_555 1_555
C17 C16 1_555 1_555
H13 C17 1_555 1_555
C18 C13 1_555 1_555
H14 C18 1_555 1_555
C19 H15 1_555 1_555
C20 H16 1_555 1_555
C21 C20 1_555 1_555
H17 C21 1_555 1_555
C22 C23 1_555 1_555
C23 H18 1_555 1_555
C24 C23 1_555 1_555
H19 C24 1_555 1_555
C25 C16 1_555 1_555
C26 C25 1_555 1_555
H20 C26 1_555 1_555
C27 C22 1_555 1_555
H21 C27 1_555 1_555
C28 H22 1_555 1_555
C29 H23 1_555 1_555
C30 C29 1_555 1_555
H24 C30 1_555 1_555
C31 C32 1_555 1_555
C32 H25 1_555 1_555
C33 C32 1_555 1_555
H26 C33 1_555 1_555
C34 C33 1_555 1_555
C35 C34 1_555 1_555
H27 C35 1_555 1_555
C36 C31 1_555 1_555
H28 C36 1_555 1_555
C37 H29 1_555 1_555
C38 H30 1_555 1_555
C39 C38 1_555 1_555
H31 C39 1_555 1_555
C40 C41 1_555 1_555
C41 H32 1_555 1_555
C42 C41 1_555 1_555
H33 C42 1_555 1_555
C43 C34 1_555 1_555
C44 C43 1_555 1_555
H34 C44 1_555 1_555
C45 C40 1_555 1_555
H35 C45 1_555 1_555
N1 C1 1_555 1_555
N2 C1 1_555 1_555
N3 C10 1_555 1_555
N4 C10 1_555 1_555
N5 C19 1_555 1_555
N6 C19 1_555 1_555
N7 C28 1_555 1_555
N8 C28 1_555 1_555
N9 C37 1_555 1_555
N10 C37 1_555 1_555
N11 O13 1_555 1_555
O1 Cu1 1_555 1_555
O2 Cu2 1_555 1_555
O3 Cu3 1_555 1_555
O4 P1 1_555 1_555
H36 O4 1_555 1_555
O5 Cu2 1_555 1_555
O6 P2 1_555 1_555
O7 P2 1_555 1_555
H37 O7 1_555 1_555
O8 P2 1_555 1_555
H38 O8 1_555 1_555
O9 Cu3 1_555 1_555
O10 P3 1_555 1_555
H39 O10 1_555 1_555
O11 P3 1_555 1_555
H40 O11 1_555 1_555
O12 P3 1_555 1_555
O14 N11 1_555 1_555
O15 N11 1_555 1_555
O16 H41 1_555 1_555
H42 O16 1_555 1_555
Cu1_2 N1A 1_555 1_555
Cu2A N3A 1_555 1_555
Cu2_2 N5 1_555 1_555
Cu2_3 N3_2 1_555 1_555
Cu3A N7A 1_555 1_555
Cu3_2 N9 1_555 1_555
Cu3_3 N7_2 1_555 1_555
P1A O1A 1_555 1_555
P2A O5A 1_555 1_555
P3A O9A 1_555 1_555
C1A H1A 1_555 1_555
C2A H2A 1_555 1_555
C3A C2A 1_555 1_555
H3A C3A 1_555 1_555
C4A C5A 1_555 1_555
C5A H4A 1_555 1_555
C6A C5A 1_555 1_555
H5A C6A 1_555 1_555
C7A C7 1_555 1_555
C8A C7A 1_555 1_555
H6A C8A 1_555 1_555
C9A C4A 1_555 1_555
H7A C9A 1_555 1_555
C10_2 H8_2 1_555 1_555
C11_2 H9_2 1_555 1_555
C12_2 C11_2 1_555 1_555
H10_2 C12_2 1_555 1_555
C13_2 C14_2 1_555 1_555
C14_2 H11_2 1_555 1_555
C15_2 C14_2 1_555 1_555
H12_2 C15_2 1_555 1_555
C16_2 C15_2 1_555 1_555
C17_2 C16_2 1_555 1_555
H13_2 C17_2 1_555 1_555
C18_2 C13_2 1_555 1_555
H14_2 C18_2 1_555 1_555
C19_2 H15_2 1_555 1_555
C20_2 H16_2 1_555 1_555
C21_2 C20_2 1_555 1_555
H17_2 C21_2 1_555 1_555
C22_2 C23_2 1_555 1_555
C23_2 H18_2 1_555 1_555
C24_2 C23_2 1_555 1_555
H19_2 C24_2 1_555 1_555
C25_2 C16_2 1_555 1_555
C26_2 C25_2 1_555 1_555
H20_2 C26_2 1_555 1_555
C27_2 C22_2 1_555 1_555
H21_2 C27_2 1_555 1_555
C28_2 H22_2 1_555 1_555
C29_2 H23_2 1_555 1_555
C30_2 C29_2 1_555 1_555
H24_2 C30_2 1_555 1_555
C31_2 C32_2 1_555 1_555
C32_2 H25_2 1_555 1_555
C33_2 C32_2 1_555 1_555
H26_2 C33_2 1_555 1_555
C34_2 C33_2 1_555 1_555
C35_2 C34_2 1_555 1_555
H27_2 C35_2 1_555 1_555
C36_2 C31_2 1_555 1_555
H28_2 C36_2 1_555 1_555
C37_2 H29_2 1_555 1_555
C38_2 H30_2 1_555 1_555
C39_2 C38_2 1_555 1_555
H31_2 C39_2 1_555 1_555
C40_2 C41_2 1_555 1_555
C41_2 H32_2 1_555 1_555
C42_2 C41_2 1_555 1_555
H33_2 C42_2 1_555 1_555
C43_2 C34_2 1_555 1_555
C44_2 C43_2 1_555 1_555
H34_2 C44_2 1_555 1_555
C45_2 C40_2 1_555 1_555
H35_2 C45_2 1_555 1_555
N1A C1A 1_555 1_555
N1A_2 Cu1 1_555 1_555
N2A C1A 1_555 1_555
N3_2 C10_2 1_555 1_555
N4_2 C10_2 1_555 1_555
N5_2 Cu2 1_555 1_555
N5A Cu2A 1_555 1_555
N6_2 C19_2 1_555 1_555
N7_2 C28_2 1_555 1_555
N8_2 C28_2 1_555 1_555
N9_2 Cu3 1_555 1_555
N9A Cu3A 1_555 1_555
N10_2 C37_2 1_555 1_555
O1A Cu1 1_555 1_555
O2A Cu2A 1_555 1_555
O3A Cu3A 1_555 1_555
O4A P1A 1_555 1_555
H36A O4A 1_555 1_555
O5A Cu2A 1_555 1_555
O6A P2A 1_555 1_555
O7A P2A 1_555 1_555
H37A O7A 1_555 1_555
O8A P2A 1_555 1_555
H38A O8A 1_555 1_555
O9A Cu3A 1_555 1_555
O10A P3A 1_555 1_555
H39A O10A 1_555 1_555
O11A P3A 1_555 1_555
H40A O11A 1_555 1_555
O12A P3A 1_555 1_555
P1 O2 1_555 1_555
P1 O3 1_555 1_555
C2 N1 1_555 1_555
C3 N2 1_555 1_555
C4 N2 1_555 1_555
C8 C9 1_555 1_555
C11 N3 1_555 1_555
C12 N4 1_555 1_555
C13 N4 1_555 1_555
C17 C18 1_555 1_555
C20 N5 1_555 1_555
C21 N6 1_555 1_555
C22 N6 1_555 1_555
C24 C25 1_555 1_555
C26 C27 1_555 1_555
C29 N7 1_555 1_555
C30 N8 1_555 1_555
C31 N8 1_555 1_555
C35 C36 1_555 1_555
C38 N9 1_555 1_555
C39 N10 1_555 1_555
C40 N10 1_555 1_555
C42 C43 1_555 1_555
C44 C45 1_555 1_555
P1A O2A 1_555 1_555
P1A O3A 1_555 1_555
C2A N1A 1_555 1_555
C3A N2A 1_555 1_555
C4A N2A 1_555 1_555
C6A C7A 1_555 1_555
C8A C9A 1_555 1_555
C11_2 N3_2 1_555 1_555
C12_2 N4_2 1_555 1_555
C13_2 N4_2 1_555 1_555
C17_2 C18_2 1_555 1_555
C19_2 N5_2 1_555 1_555
C20_2 N5_2 1_555 1_555
C21_2 N6_2 1_555 1_555
C22_2 N6_2 1_555 1_555
C24_2 C25_2 1_555 1_555
C26_2 C27_2 1_555 1_555
C29_2 N7_2 1_555 1_555
C30_2 N8_2 1_555 1_555
C31_2 N8_2 1_555 1_555
C35_2 C36_2 1_555 1_555
C37_2 N9_2 1_555 1_555
C38_2 N9_2 1_555 1_555
C39_2 N10_2 1_555 1_555
C40_2 N10_2 1_555 1_555
C42_2 C43_2 1_555 1_555
C44_2 C45_2 1_555 1_555

#END
