
#######################################################################
#
#                 Cambridge Crystallographic Data Centre
#                                CCDC 
#
#######################################################################
#
# If this CIF has been generated from an entry in the Cambridge 
# Structural Database, then it will include bibliographic, chemical, 
# crystal, experimental, refinement or atomic coordinate data resulting 
# from the CCDC's data processing and validation procedures.
#
#######################################################################

data_KOGPED
_symmetry_cell_setting           monoclinic
_symmetry_space_group_name_H-M   'P 21/c'
_symmetry_Int_Tables_number      14
_space_group_name_Hall           '-P 2ybc'
loop_
_symmetry_equiv_pos_site_id
_symmetry_equiv_pos_as_xyz
1 x,y,z
2 -x,1/2+y,1/2-z
3 -x,-y,-z
4 x,1/2-y,1/2+z
_cell_length_a                   9.2722(9)
_cell_length_b                   21.357(2)
_cell_length_c                   8.9798(8)
_cell_angle_alpha                90
_cell_angle_beta                 115.498(6)
_cell_angle_gamma                90
_cell_volume                     1605.04
loop_
_atom_site_label
_atom_site_type_symbol
_atom_site_fract_x
_atom_site_fract_y
_atom_site_fract_z
Cu1 Cu 0.81877(11) 0.15864(4) 0.11967(10)
O1 O 0.5517(10) 0.1927(4) -0.0022(11)
H1 H 0.579(7) 0.216(4) -0.065(10)
H2 H 0.581(7) 0.216(4) 0.105(13)
N1 N 0.9020(11) 0.2657(3) 0.5491(9)
C1 C 0.8203(14) 0.2363(4) 0.3993(12)
O2 O 0.6812(10) 0.2527(4) 0.3083(9)
N2 N 0.8944(11) 0.1909(4) 0.3511(9)
C2 C 1.0440(15) 0.1698(5) 0.4483(12)
O3 O 1.1034(11) 0.1288(4) 0.3916(9)
C3 C 1.1233(17) 0.1984(5) 0.6042(13)
C4 C 1.0507(16) 0.2452(5) 0.6444(14)
N3 N 0.8318(9) 0.1017(4) -0.0591(9)
N4 N 0.7357(10) 0.0784(4) 0.1717(9)
C5 C 0.8825(12) 0.1146(5) -0.1742(12)
H3 H 0.9075 0.1557 -0.1877
C6 C 0.8990(13) 0.0686(5) -0.2739(12)
H4 H 0.9373 0.0792 -0.3508
C7 C 0.8610(12) 0.0090(5) -0.2621(11)
H5 H 0.8716 -0.0215 -0.3307
C8 C 0.8038(12) -0.0073(5) -0.1426(11)
C9 C 0.7599(13) -0.0692(5) -0.1185(13)
H6 H 0.7679 -0.1019 -0.1827
C10 C 0.7066(13) -0.0802(5) -0.0022(14)
H7 H 0.6790 -0.1208 0.0126
C11 C 0.6919(11) -0.0316(5) 0.0973(11)
C12 C 0.6356(13) -0.0400(5) 0.2186(13)
H8 H 0.6051 -0.0795 0.2379
C13 C 0.6260(13) 0.0099(5) 0.3072(13)
H9 H 0.5834 0.0051 0.3833
C14 C 0.6795(12) 0.0684(5) 0.2848(12)
H10 H 0.6763 0.1016 0.3502
C15 C 0.7377(12) 0.0291(4) 0.0786(11)
C16 C 0.7928(11) 0.0420(4) -0.0460(10)
H11 H 1.105(12) 0.268(5) 0.744(13)
H12 H 1.225(11) 0.187(5) 0.673(12)
Cu1C Cu 0.81877(11) 0.34136(4) 0.61967(10)
N1C N 0.9020(11) 0.2343(3) 0.0491(9)
C17 C 0.508(3) -0.1601(13) 0.483(3)
O4 O 0.5648(19) -0.1138(8) 0.487(2)
loop_
_geom_bond_atom_site_label_1
_geom_bond_atom_site_label_2
_geom_bond_site_symmetry_1
_geom_bond_site_symmetry_2
Cu1 O1 1_555 1_555
O1 H1 1_555 1_555
H2 O1 1_555 1_555
N1 C1 1_555 1_555
C1 O2 1_555 1_555
N2 Cu1 1_555 1_555
C2 N2 1_555 1_555
O3 Cu1 1_555 1_555
C3 C2 1_555 1_555
C4 N1 1_555 1_555
N3 Cu1 1_555 1_555
N4 Cu1 1_555 1_555
C5 N3 1_555 1_555
H3 C5 1_555 1_555
C6 C5 1_555 1_555
H4 C6 1_555 1_555
C7 C6 1_555 1_555
H5 C7 1_555 1_555
C8 C7 1_555 1_555
C9 C8 1_555 1_555
H6 C9 1_555 1_555
C10 C9 1_555 1_555
H7 C10 1_555 1_555
C11 C10 1_555 1_555
C12 C11 1_555 1_555
H8 C12 1_555 1_555
C13 C12 1_555 1_555
H9 C13 1_555 1_555
C14 N4 1_555 1_555
H10 C14 1_555 1_555
C15 N4 1_555 1_555
C16 N3 1_555 1_555
H11 C4 1_555 1_555
H12 C3 1_555 1_555
C17 O4 1_555 1_555
Cu1C N1 1_555 1_555
N1C Cu1 1_555 1_555
C1 N2 1_555 1_555
C2 O3 1_555 1_555
C3 C4 1_555 1_555
C8 C16 1_555 1_555
C11 C15 1_555 1_555
C13 C14 1_555 1_555
C15 C16 1_555 1_555

#END
