
#######################################################################
#
#                 Cambridge Crystallographic Data Centre
#                                CCDC 
#
#######################################################################
#
# If this CIF has been generated from an entry in the Cambridge 
# Structural Database, then it will include bibliographic, chemical, 
# crystal, experimental, refinement or atomic coordinate data resulting 
# from the CCDC's data processing and validation procedures.
#
#######################################################################

data_KOGQON
_symmetry_cell_setting           monoclinic
_symmetry_space_group_name_H-M   'C 2/c'
_symmetry_Int_Tables_number      15
_space_group_name_Hall           '-C 2yn'
loop_
_symmetry_equiv_pos_site_id
_symmetry_equiv_pos_as_xyz
1 x,y,z
2 1/2+x,1/2+y,z
3 -x,y,1/2-z
4 1/2-x,1/2+y,1/2-z
5 -x,-y,-z
6 1/2-x,1/2-y,-z
7 x,-y,1/2+z
8 1/2+x,1/2-y,1/2+z
_cell_length_a                   24.408(3)
_cell_length_b                   18.772(2)
_cell_length_c                   17.672(2)
_cell_angle_alpha                90
_cell_angle_beta                 106.881(2)
_cell_angle_gamma                90
_cell_volume                     7748.18
loop_
_atom_site_label
_atom_site_type_symbol
_atom_site_fract_x
_atom_site_fract_y
_atom_site_fract_z
Nb1 Nb -0.278460(15) 0.102980(18) 0.51383(2)
Nb2 Nb -0.150580(15) 0.159900(19) 0.51342(2)
Nb3 Nb -0.394980(15) 0.182990(19) 0.40048(2)
Nb4 Nb -0.269270(15) 0.241250(18) 0.397090(19)
Nb5 Nb -0.359550(16) 0.19933(2) 0.59954(2)
Zn1 Zn -0.33438(2) 0.52803(3) 0.46162(3)
Zn2 Zn -0.5000 0.07606(4) 0.2500
N1 N -0.37308(17) 0.5215(2) 0.3344(2)
N2 N -0.29644(18) 0.6151(2) 0.4134(2)
N3 N -0.40231(15) 0.60087(19) 0.4766(2)
N4 N -0.30806(16) 0.55670(19) 0.5852(2)
N5 N -0.55477(16) 0.0593(2) 0.3204(2)
N6 N -0.45899(18) -0.0128(2) 0.3313(2)
O1 O -0.23437(11) 0.14741(13) 0.43651(15)
O2 O -0.30435(11) 0.22494(13) 0.49839(14)
O3 O -0.15344(11) 0.40279(14) 0.57301(16)
O4 O -0.37330(11) 0.30249(14) 0.57156(16)
O5 O -0.33881(11) 0.21054(14) 0.33460(15)
O6 O -0.22207(11) 0.26455(14) 0.33716(15)
O7 O -0.25362(12) 0.48212(14) 0.47507(17)
O8 O -0.37018(12) 0.43104(14) 0.47676(17)
O9 O -0.40375(11) 0.28875(14) 0.40556(15)
O10 O -0.45482(12) 0.15447(16) 0.32422(16)
O11 O -0.29278(11) 0.34083(14) 0.41456(15)
O12 O -0.18319(11) 0.38940(14) 0.40737(15)
O13 O -0.41534(11) 0.17410(14) 0.49827(15)
O14 O -0.39406(13) 0.18460(17) 0.67075(17)
C1 C -0.4117(2) 0.4728(3) 0.2982(3)
H4 H -0.4218 0.4378 0.3290
C2 C -0.4376(3) 0.4712(4) 0.2172(3)
H5 H -0.4643 0.4364 0.1941
C3 C -0.4226(3) 0.5222(4) 0.1730(3)
H6 H -0.4391 0.5224 0.1185
C4 C -0.3833(3) 0.5737(4) 0.2073(3)
H7 H -0.3731 0.6088 0.1768
C5 C -0.3585(2) 0.5719(3) 0.2912(3)
C6 C -0.3160(2) 0.6236(3) 0.3344(3)
C7 C -0.2051(3) -0.1771(4) 0.7028(4)
H8 H -0.1912 -0.1828 0.7573
C8 C -0.2457(3) -0.2208(4) 0.6596(4)
H9 H -0.2588 -0.2580 0.6844
C9 C -0.2683(3) -0.2116(3) 0.5792(4)
H10 H -0.2977 -0.2404 0.5493
C10 C -0.2449(2) -0.1565(3) 0.5443(3)
H11 H -0.2590 -0.1491 0.4901
C11 C -0.4481(2) 0.6230(3) 0.4196(3)
H12 H -0.4531 0.6064 0.3685
C12 C -0.4887(2) 0.6693(3) 0.4326(4)
H13 H -0.5203 0.6828 0.3914
C13 C -0.4810(2) 0.6946(3) 0.5074(4)
H14 H -0.5075 0.7257 0.5180
C14 C -0.4332(2) 0.6734(3) 0.5671(3)
H15 H -0.4270 0.6906 0.6183
C15 C -0.39443(19) 0.6261(2) 0.5499(3)
C16 C -0.34218(19) 0.6003(2) 0.6109(3)
C17 C -0.1704(2) -0.1181(3) 0.3101(3)
H16 H -0.1466 -0.1493 0.2935
C18 C -0.2174(2) -0.0903(3) 0.2564(3)
H17 H -0.2258 -0.1020 0.2031
C19 C -0.2523(2) -0.0447(3) 0.2824(3)
H18 H -0.2845 -0.0246 0.2472
C20 C -0.2381(2) -0.0295(3) 0.3620(3)
H19 H -0.2617 0.0010 0.3799
C21 C -0.6000(2) 0.1012(3) 0.3172(3)
H20 H -0.6079 0.1390 0.2816
C22 C -0.6348(3) 0.0903(3) 0.3646(4)
H21 H -0.6662 0.1198 0.3603
C23 C -0.6230(3) 0.0357(3) 0.4184(4)
H22 H -0.6459 0.0281 0.4514
C24 C -0.5770(3) -0.0077(3) 0.4229(3)
H23 H -0.5684 -0.0451 0.4589
C25 C -0.5433(2) 0.0051(3) 0.3728(3)
C26 C -0.4928(2) -0.0392(3) 0.3731(3)
C27 C -0.4802(3) -0.1041(3) 0.4128(4)
H24 H -0.5036 -0.1220 0.4415
C28 C -0.4327(3) -0.1409(3) 0.4087(4)
H25 H -0.4240 -0.1846 0.4342
C29 C -0.3979(3) -0.1136(3) 0.3669(4)
H26 H -0.3657 -0.1382 0.3635
C30 C -0.4123(2) -0.0487(3) 0.3303(3)
H27 H -0.3882 -0.0290 0.3036
Nb1E Nb -0.221540(15) 0.397020(18) 0.48617(2)
Nb2E Nb -0.349420(15) 0.340100(19) 0.48658(2)
Nb3E Nb -0.105020(15) 0.317010(19) 0.59952(2)
Nb4E Nb -0.230730(15) 0.258750(18) 0.602910(19)
Nb5E Nb -0.140450(16) 0.30067(2) 0.40046(2)
Zn1E Zn -0.16562(2) -0.02803(3) 0.53838(3)
Zn2G Zn 0.0000 0.42394(4) 0.7500
N1E N -0.12692(17) -0.0215(2) 0.6656(2)
N2E N -0.20356(18) -0.1151(2) 0.5866(2)
N3E N -0.09769(15) -0.10087(19) 0.5234(2)
N4E N -0.19194(16) -0.05670(19) 0.4148(2)
N5B N -0.44523(16) 0.0593(2) 0.1796(2)
N6B N -0.54101(18) -0.0128(2) 0.1687(2)
O1E O -0.26563(11) 0.35259(13) 0.56349(15)
O2E O -0.19565(11) 0.27506(13) 0.50161(14)
O3E O -0.34656(11) 0.09721(14) 0.42699(16)
O4E O -0.12670(11) 0.19751(14) 0.42844(16)
O5E O -0.16119(11) 0.28946(14) 0.66540(15)
O6E O -0.27793(11) 0.23545(14) 0.66284(15)
O7E O -0.24638(12) 0.01788(14) 0.52493(17)
O8E O -0.12982(12) 0.06896(14) 0.52324(17)
O9E O -0.09625(11) 0.21125(14) 0.59444(15)
O10B O -0.54518(12) 0.15447(16) 0.17578(16)
O10E O -0.04518(12) 0.34553(16) 0.67578(16)
O11E O -0.20722(11) 0.15917(14) 0.58544(15)
O12E O -0.31681(11) 0.11060(14) 0.59263(15)
O13E O -0.08466(11) 0.32590(14) 0.50173(15)
O14E O -0.10594(13) 0.31540(17) 0.32925(17)
C1E C -0.0883(2) 0.0272(3) 0.7018(3)
H4E H -0.0782 0.0622 0.6710
C2E C -0.0624(3) 0.0288(4) 0.7828(3)
H5E H -0.0357 0.0636 0.8059
C3E C -0.0774(3) -0.0222(4) 0.8270(3)
H6E H -0.0609 -0.0224 0.8815
C4E C -0.1167(3) -0.0737(4) 0.7927(3)
H7E H -0.1269 -0.1088 0.8232
C5E C -0.1415(2) -0.0719(3) 0.7088(3)
C6E C -0.1840(2) -0.1236(3) 0.6656(3)
C7E C -0.2949(3) 0.6771(4) 0.2972(4)
H8E H -0.3088 0.6828 0.2427
C8E C -0.2543(3) 0.7208(4) 0.3404(4)
H9E H -0.2412 0.7580 0.3156
C9E C -0.2317(3) 0.7116(3) 0.4208(4)
H10E H -0.2023 0.7404 0.4507
C10E C -0.2551(2) 0.6565(3) 0.4557(3)
H11E H -0.2410 0.6491 0.5099
C11E C -0.0519(2) -0.1230(3) 0.5804(3)
H12E H -0.0469 -0.1064 0.6315
C12E C -0.0113(2) -0.1693(3) 0.5674(4)
H13E H 0.0203 -0.1828 0.6086
C13E C -0.0190(2) -0.1946(3) 0.4926(4)
H14E H 0.0075 -0.2257 0.4820
C14E C -0.0668(2) -0.1734(3) 0.4329(3)
H15E H -0.0730 -0.1906 0.3817
C15E C -0.10557(19) -0.1261(2) 0.4501(3)
C16E C -0.15782(19) -0.1003(2) 0.3891(3)
C17E C -0.3296(2) 0.6181(3) 0.6899(3)
H16E H -0.3534 0.6493 0.7065
C18E C -0.2826(2) 0.5903(3) 0.7436(3)
H17E H -0.2742 0.6020 0.7969
C19E C -0.2477(2) 0.5447(3) 0.7176(3)
H18E H -0.2155 0.5246 0.7528
C20E C -0.2619(2) 0.5295(3) 0.6380(3)
H19E H -0.2383 0.4990 0.6201
C21B C -0.4000(2) 0.1012(3) 0.1828(3)
H20B H -0.3921 0.1390 0.2184
C22B C -0.3652(3) 0.0903(3) 0.1354(4)
H21B H -0.3338 0.1198 0.1397
C23B C -0.3770(3) 0.0357(3) 0.0816(4)
H22B H -0.3541 0.0281 0.0486
C24B C -0.4230(3) -0.0077(3) 0.0771(3)
H23B H -0.4316 -0.0451 0.0411
C25B C -0.4567(2) 0.0051(3) 0.1272(3)
C26B C -0.5072(2) -0.0392(3) 0.1269(3)
C27B C -0.5198(3) -0.1041(3) 0.0872(4)
H24B H -0.4964 -0.1220 0.0585
C28B C -0.5673(3) -0.1409(3) 0.0913(4)
H25B H -0.5760 -0.1846 0.0658
C29B C -0.6021(3) -0.1136(3) 0.1331(4)
H26B H -0.6343 -0.1382 0.1365
C30B C -0.5877(2) -0.0487(3) 0.1697(3)
H27B H -0.6118 -0.0290 0.1964
O15 O -0.9412(4) -0.7697(4) 0.2654(5)
H1 H -0.9734 -0.7495 0.2586
H2 H -0.9255 -0.7500 0.2336
O16 O -1.0000 -0.8176(5) 0.7500
H3 H -0.9702 -0.7916 0.7630
H3B H -1.0298 -0.7916 0.7370
loop_
_geom_bond_atom_site_label_1
_geom_bond_atom_site_label_2
_geom_bond_site_symmetry_1
_geom_bond_site_symmetry_2
Nb1 O1 1_555 1_555
Nb2 O1 1_555 1_555
Nb3 O2 1_555 1_555
Nb4 O1 1_555 1_555
Nb5 O2 1_555 1_555
Zn1 N1 1_555 1_555
Zn2 N5 1_555 1_555
N1 C1 1_555 1_555
N2 Zn1 1_555 1_555
N3 Zn1 1_555 1_555
N4 Zn1 1_555 1_555
N5 C21 1_555 1_555
N6 Zn2 1_555 1_555
O2 Nb1 1_555 1_555
O3 Nb1E 1_555 1_555
O4 Nb5 1_555 1_555
O5 Nb3 1_555 1_555
O6 Nb4 1_555 1_555
O7 Zn1 1_555 1_555
O8 Zn1 1_555 1_555
O9 Nb3 1_555 1_555
O10 Nb3 1_555 1_555
O11 Nb4 1_555 1_555
O12 Nb1E 1_555 1_555
O13 Nb3 1_555 1_555
O14 Nb5 1_555 1_555
O15 H1 1_555 1_555
H2 O15 1_555 1_555
O16 H3 1_555 1_555
C1 H4 1_555 1_555
C2 C1 1_555 1_555
H5 C2 1_555 1_555
C3 C2 1_555 1_555
H6 C3 1_555 1_555
C4 C3 1_555 1_555
H7 C4 1_555 1_555
C5 N1 1_555 1_555
C6 N2 1_555 1_555
C7 H8 1_555 1_555
C8 C7 1_555 1_555
H9 C8 1_555 1_555
C9 C8 1_555 1_555
H10 C9 1_555 1_555
C10 C9 1_555 1_555
H11 C10 1_555 1_555
C11 N3 1_555 1_555
H12 C11 1_555 1_555
C12 C11 1_555 1_555
H13 C12 1_555 1_555
C13 C12 1_555 1_555
H14 C13 1_555 1_555
C14 C13 1_555 1_555
H15 C14 1_555 1_555
C15 N3 1_555 1_555
C16 N4 1_555 1_555
C17 H16 1_555 1_555
C18 C17 1_555 1_555
H17 C18 1_555 1_555
C19 C18 1_555 1_555
H18 C19 1_555 1_555
C20 C19 1_555 1_555
H19 C20 1_555 1_555
C21 H20 1_555 1_555
C22 C21 1_555 1_555
H21 C22 1_555 1_555
C23 C22 1_555 1_555
H22 C23 1_555 1_555
C24 C23 1_555 1_555
H23 C24 1_555 1_555
C25 N5 1_555 1_555
C26 N6 1_555 1_555
C27 C26 1_555 1_555
H24 C27 1_555 1_555
C28 C27 1_555 1_555
H25 C28 1_555 1_555
C29 C28 1_555 1_555
H26 C29 1_555 1_555
C30 N6 1_555 1_555
H27 C30 1_555 1_555
Nb1E O7 1_555 1_555
Nb2E O2 1_555 1_555
Nb3E O3 1_555 1_555
Nb4E O2 1_555 1_555
Nb5E O6 1_555 1_555
Zn1E N1E 1_555 1_555
Zn2G O10E 1_555 1_555
N1E C1E 1_555 1_555
N2E C10 1_555 1_555
N3E Zn1E 1_555 1_555
N4E C20 1_555 1_555
N5B Zn2 1_555 1_555
N6B Zn2 1_555 1_555
O1E Nb1E 1_555 1_555
O2E Nb2 1_555 1_555
O3E Nb1 1_555 1_555
O4E Nb2 1_555 1_555
O5E Nb3E 1_555 1_555
O6E Nb5 1_555 1_555
O7E Nb1 1_555 1_555
O8E Nb2 1_555 1_555
O9E Nb2 1_555 1_555
O10B Zn2 1_555 1_555
O10E Nb3E 1_555 1_555
O11E Nb1 1_555 1_555
O12E Nb1 1_555 1_555
O13E Nb3E 1_555 1_555
O14E Nb5E 1_555 1_555
H3B O16 1_555 1_555
C1E H4E 1_555 1_555
C2E C1E 1_555 1_555
H5E C2E 1_555 1_555
C3E C2E 1_555 1_555
H6E C3E 1_555 1_555
C4E C3E 1_555 1_555
H7E C4E 1_555 1_555
C5E N1E 1_555 1_555
C6E C7 1_555 1_555
C7E C6 1_555 1_555
H8E C7E 1_555 1_555
C8E C7E 1_555 1_555
H9E C8E 1_555 1_555
C9E C8E 1_555 1_555
H10E C9E 1_555 1_555
C10E N2 1_555 1_555
H11E C10E 1_555 1_555
C11E N3E 1_555 1_555
H12E C11E 1_555 1_555
C12E C11E 1_555 1_555
H13E C12E 1_555 1_555
C13E C12E 1_555 1_555
H14E C13E 1_555 1_555
C14E C13E 1_555 1_555
H15E C14E 1_555 1_555
C15E N3E 1_555 1_555
C16E C17 1_555 1_555
C17E C16 1_555 1_555
H16E C17E 1_555 1_555
C18E C17E 1_555 1_555
H17E C18E 1_555 1_555
C19E C18E 1_555 1_555
H18E C19E 1_555 1_555
C20E N4 1_555 1_555
H19E C20E 1_555 1_555
C21B N5B 1_555 1_555
H20B C21B 1_555 1_555
C22B C21B 1_555 1_555
H21B C22B 1_555 1_555
C23B C22B 1_555 1_555
H22B C23B 1_555 1_555
C24B C23B 1_555 1_555
H23B C24B 1_555 1_555
C25B N5B 1_555 1_555
C26B N6B 1_555 1_555
C27B C26B 1_555 1_555
H24B C27B 1_555 1_555
C28B C27B 1_555 1_555
H25B C28B 1_555 1_555
C29B C28B 1_555 1_555
H26B C29B 1_555 1_555
C30B N6B 1_555 1_555
H27B C30B 1_555 1_555
Nb2 O11E 1_555 1_555
Nb3 O3E 1_555 1_555
Nb4 O2 1_555 1_555
Nb4 O5 1_555 1_555
Nb4 O2E 1_555 1_555
Nb5 O13 1_555 1_555
Nb5 O12E 1_555 1_555
Zn2 O10 1_555 1_555
O4 Nb2E 1_555 1_555
O8 Nb2E 1_555 1_555
O9 Nb2E 1_555 1_555
O11 Nb1E 1_555 1_555
O11 Nb2E 1_555 1_555
O12 Nb5E 1_555 1_555
C4 C5 1_555 1_555
C5 C6 1_555 1_555
C14 C15 1_555 1_555
C15 C16 1_555 1_555
C24 C25 1_555 1_555
C25 C26 1_555 1_555
C29 C30 1_555 1_555
Nb1E O2E 1_555 1_555
Nb2E O1E 1_555 1_555
Nb3E O2E 1_555 1_555
Nb3E O9E 1_555 1_555
Nb4E O1E 1_555 1_555
Nb4E O2E 1_555 1_555
Nb4E O5E 1_555 1_555
Nb4E O6E 1_555 1_555
Nb4E O11E 1_555 1_555
Nb5E O2E 1_555 1_555
Nb5E O4E 1_555 1_555
Nb5E O13E 1_555 1_555
Zn1E N2E 1_555 1_555
Zn1E N4E 1_555 1_555
Zn1E O7E 1_555 1_555
Zn1E O8E 1_555 1_555
N2E C6E 1_555 1_555
N4E C16E 1_555 1_555
C4E C5E 1_555 1_555
C5E C6E 1_555 1_555
C9E C10E 1_555 1_555
C14E C15E 1_555 1_555
C15E C16E 1_555 1_555
C19E C20E 1_555 1_555
C24B C25B 1_555 1_555
C25B C26B 1_555 1_555
C29B C30B 1_555 1_555

#END
