
#######################################################################
#
#                 Cambridge Crystallographic Data Centre
#                                CCDC 
#
#######################################################################
#
# If this CIF has been generated from an entry in the Cambridge 
# Structural Database, then it will include bibliographic, chemical, 
# crystal, experimental, refinement or atomic coordinate data resulting 
# from the CCDC's data processing and validation procedures.
#
#######################################################################

data_KOGQAA
_symmetry_cell_setting           monoclinic
_symmetry_space_group_name_H-M   'P 21/n'
_symmetry_Int_Tables_number      14
_space_group_name_Hall           '-P 2yn'
loop_
_symmetry_equiv_pos_site_id
_symmetry_equiv_pos_as_xyz
1 x,y,z
2 1/2-x,1/2+y,1/2-z
3 -x,-y,-z
4 1/2+x,1/2-y,1/2+z
_cell_length_a                   13.468(10)
_cell_length_b                   7.593(13)
_cell_length_c                   14.86(3)
_cell_angle_alpha                90
_cell_angle_beta                 104.71(5)
_cell_angle_gamma                90
_cell_volume                     1469.81
loop_
_atom_site_label
_atom_site_type_symbol
_atom_site_fract_x
_atom_site_fract_y
_atom_site_fract_z
Cu1 Cu 0.21103(5) 0.53476(10) 0.59251(5)
N1 N 0.1754(4) 0.7120(7) 0.6774(4)
N2 N 0.2072(4) 0.8991(7) 0.7990(4)
N3 N 0.2178(4) 0.3204(7) 0.5120(4)
N4 N 0.2226(4) 0.3428(7) 0.4220(4)
N5 N 0.1130(4) 0.6462(7) 0.4797(4)
N6 N 0.1327(4) 0.6328(7) 0.3950(4)
N7 N 0.3401(4) 0.6486(7) 0.5343(4)
N8 N 0.3252(4) 0.6229(7) 0.4407(4)
C1 C 0.2412(5) 0.8259(8) 0.7303(5)
C2 C 0.0918(5) 0.7117(9) 0.7177(5)
C3 C 0.1120(5) 0.8259(9) 0.7900(5)
C4 C 0.2261(5) 0.1470(9) 0.5287(5)
C5 C 0.2358(5) 0.0568(9) 0.4502(6)
C6 C 0.2341(5) 0.1843(9) 0.3846(5)
C7 C 0.0299(5) 0.7520(9) 0.4695(5)
C8 C -0.0025(5) 0.8063(9) 0.3761(6)
C9 C 0.0649(5) 0.7300(9) 0.3322(5)
C10 C 0.4301(5) 0.7324(9) 0.5620(5)
C11 C 0.4745(5) 0.7604(10) 0.4883(6)
C12 C 0.4050(5) 0.6894(9) 0.4125(5)
B1 B 0.2269(5) 0.5292(10) 0.3820(5)
H1 H 0.3050 0.8519 0.7202
H2 H 0.0326 0.6445 0.6981
H3 H 0.0683 0.8508 0.8277
H4 H 0.2254 0.0944 0.5850
H5 H 0.2421 -0.0641 0.4435
H6 H 0.2400 0.1650 0.3244
H7 H -0.0008 0.7836 0.5165
H8 H -0.0579 0.8787 0.3497
H9 H 0.0639 0.7433 0.2698
H10 H 0.4593 0.7676 0.6229
H11 H 0.5369 0.8144 0.4898
H12 H 0.4120 0.6879 0.3519
H13 H 0.2273 0.5239 0.3162
Cu1A Cu 0.28897(5) 1.03476(10) 0.90749(5)
N2A N 0.2928(4) 0.3991(7) 0.7010(4)
loop_
_geom_bond_atom_site_label_1
_geom_bond_atom_site_label_2
_geom_bond_site_symmetry_1
_geom_bond_site_symmetry_2
Cu1 N1 1_555 1_555
N1 C1 1_555 1_555
N2 C1 1_555 1_555
N3 Cu1 1_555 1_555
N4 N3 1_555 1_555
N5 Cu1 1_555 1_555
N6 N5 1_555 1_555
N7 Cu1 1_555 1_555
N8 N7 1_555 1_555
C1 H1 1_555 1_555
C2 N1 1_555 1_555
C3 N2 1_555 1_555
C4 N3 1_555 1_555
C5 C4 1_555 1_555
C6 N4 1_555 1_555
C7 N5 1_555 1_555
C8 C7 1_555 1_555
C9 N6 1_555 1_555
C10 N7 1_555 1_555
C11 C10 1_555 1_555
C12 N8 1_555 1_555
B1 N4 1_555 1_555
H2 C2 1_555 1_555
H3 C3 1_555 1_555
H4 C4 1_555 1_555
H5 C5 1_555 1_555
H6 C6 1_555 1_555
H7 C7 1_555 1_555
H8 C8 1_555 1_555
H9 C9 1_555 1_555
H10 C10 1_555 1_555
H11 C11 1_555 1_555
H12 C12 1_555 1_555
H13 B1 1_555 1_555
Cu1A N2 1_555 1_555
N2A Cu1 1_555 1_555
N6 B1 1_555 1_555
N8 B1 1_555 1_555
C2 C3 1_555 1_555
C5 C6 1_555 1_555
C8 C9 1_555 1_555
C11 C12 1_555 1_555

#END
