
#######################################################################
#
#                 Cambridge Crystallographic Data Centre
#                                CCDC 
#
#######################################################################
#
# If this CIF has been generated from an entry in the Cambridge 
# Structural Database, then it will include bibliographic, chemical, 
# crystal, experimental, refinement or atomic coordinate data resulting 
# from the CCDC's data processing and validation procedures.
#
#######################################################################

data_KOGQAZ
_symmetry_cell_setting           monoclinic
_symmetry_space_group_name_H-M   'P 2/c'
_symmetry_Int_Tables_number      13
_space_group_name_Hall           '-P 2yc'
loop_
_symmetry_equiv_pos_site_id
_symmetry_equiv_pos_as_xyz
1 x,y,z
2 -x,y,1/2-z
3 -x,-y,-z
4 x,-y,1/2+z
_cell_length_a                   17.5910(3)
_cell_length_b                   9.7089(2)
_cell_length_c                   31.8178(6)
_cell_angle_alpha                90
_cell_angle_beta                 103.6350(10)
_cell_angle_gamma                90
_cell_volume                     5280.99
loop_
_atom_site_label
_atom_site_type_symbol
_atom_site_fract_x
_atom_site_fract_y
_atom_site_fract_z
Er1 Er 0.48639(2) 0.18993(4) 0.442130(13)
Er2 Er -0.5000 0.65286(5) 0.2500
Er3 Er -0.5000 0.11548(5) 0.2500
Br1 Br 0.00686(7) 1.07013(13) 0.38041(5)
Br2 Br 0.00274(7) 0.65131(12) 0.42795(4)
Br3 Br 0.01968(10) 0.7567(2) 0.19652(6)
Br4 Br 0.0000 1.18317(16) 0.2500
Cu1 Cu 0.04939(9) 0.80691(19) 0.37437(5)
Cu2 Cu -0.04266(8) 0.89369(16) 0.42632(6)
Cu3 Cu 0.00285(7) 0.74544(15) 0.51990(5)
Cu4 Cu -0.03503(9) 0.98395(18) 0.20322(8)
Cu5 Cu -0.00993(9) 0.4855(2) 0.33085(6)
Cl1 Cl 0.0000 1.0000 0.5000
O1 O 0.5627(4) 0.2139(6) 0.5107(2)
O2 O 0.4805(5) 0.0479(8) 0.3813(2)
H1 H 0.4913 -0.0316 0.3893
H2 H 0.4917 0.0518 0.3577
O3 O 0.5634(4) 0.0145(6) 0.5439(2)
O4 O 0.5983(4) 0.0053(8) 0.4565(2)
H3 H 0.5999 -0.0326 0.4337
H4 H 0.5930 -0.0590 0.4723
O5 O 0.5910(4) 0.2671(7) 0.4192(2)
O6 O 0.6201(4) 0.3833(7) 0.3652(2)
O7 O 0.4879(4) 0.4337(7) 0.4489(2)
H5 H 0.4570 0.4572 0.4632
H6 H 0.5307 0.4525 0.4645
O8 O 0.3757(4) 0.2655(7) 0.3935(2)
O9 O -0.4945(4) 0.5591(6) 0.1772(2)
H7 H -0.4581 0.5060 0.1774
H8 H -0.5335 0.5123 0.1674
O10 O 0.3761(4) 0.3710(7) 0.3316(2)
O11 O -0.5026(3) 0.2291(6) 0.31621(19)
H9 H -0.5416 0.2682 0.3202
H10 H -0.4981 0.2594 0.2929
O12 O 0.3918(4) 0.2317(7) 0.4848(2)
O13 O 0.3788(4) 0.4543(7) 0.4983(3)
O14 O -0.4096(3) 0.4832(6) 0.2644(2)
O15 O -0.3897(3) 0.2573(6) 0.2649(2)
O16 O -0.4196(4) 0.7715(6) 0.3070(2)
O17 O -0.4151(4) 1.0011(7) 0.3055(2)
O18 O -0.4011(4) 0.7589(7) 0.2234(2)
O19 O -0.4226(4) 0.9857(7) 0.2174(2)
N1 N 0.8343(5) 0.1831(9) 0.6017(3)
N2 N -0.1602(5) 0.8906(8) 0.4031(3)
N3 N 0.8849(4) 0.2836(8) 0.4573(3)
N4 N -0.1476(5) 0.9481(9) 0.2053(3)
N5 N 0.0990(5) 0.4325(9) 0.3401(3)
N6 N 0.1086(4) 0.2780(8) 0.4868(3)
N7 N -0.1215(5) 0.4525(11) 0.3151(3)
C1 C 0.7923(6) 0.2861(11) 0.5820(4)
H11 H 0.8167 0.3709 0.5816
C2 C 0.7135(6) 0.2757(10) 0.5618(3)
H12 H 0.6863 0.3508 0.5475
C3 C 0.6763(5) 0.1508(9) 0.5635(3)
C4 C 0.7193(5) 0.0431(10) 0.5854(3)
H13 H 0.6956 -0.0413 0.5878
C5 C 0.7983(6) 0.0622(12) 0.6039(4)
H14 H 0.8273 -0.0110 0.6183
C6 C 0.5940(5) 0.1242(9) 0.5377(3)
C7 C -0.2046(6) 0.7764(10) 0.3983(3)
H15 H -0.1830 0.6972 0.4128
C8 C -0.2792(5) 0.7691(9) 0.3737(3)
H16 H -0.3075 0.6874 0.3718
C9 C -0.3125(5) 0.8866(8) 0.3514(3)
C10 C -0.2688(6) 1.0065(10) 0.3574(4)
H17 H -0.2900 1.0880 0.3444
C11 C -0.1934(6) 1.0045(10) 0.3830(4)
H18 H -0.1646 1.0857 0.3865
C12 C -0.3903(5) 0.8852(10) 0.3187(3)
C13 C -0.1774(6) 0.8208(10) 0.2047(4)
H19 H -0.1455 0.7464 0.2020
C14 C -0.2512(6) 0.7956(9) 0.2076(4)
H20 H -0.2689 0.7052 0.2073
C15 C -0.3016(5) 0.9040(8) 0.2113(3)
C16 C -0.2720(5) 1.0356(9) 0.2104(3)
H21 H -0.3033 1.1119 0.2118
C17 C -0.1965(6) 1.0522(10) 0.2075(4)
H22 H -0.1777 1.1415 0.2071
C18 C -0.3819(5) 0.8805(9) 0.2180(3)
C19 C 0.1389(6) 0.4629(11) 0.3109(3)
H23 H 0.1134 0.5062 0.2854
C20 C 0.2169(6) 0.4323(9) 0.3172(3)
H24 H 0.2432 0.4581 0.2963
C21 C 0.2569(5) 0.3653(8) 0.3533(3)
C22 C 0.2144(6) 0.3314(10) 0.3830(3)
H25 H 0.2392 0.2870 0.4084
C23 C 0.1380(6) 0.3612(12) 0.3761(4)
H26 H 0.1105 0.3326 0.3962
C24 C 0.3431(5) 0.3325(9) 0.3604(3)
C25 C -0.1478(6) 0.3244(12) 0.3074(4)
H27 H -0.1121 0.2521 0.3124
C26 C -0.2275(5) 0.2944(10) 0.2920(3)
H28 H -0.2443 0.2041 0.2861
C27 C -0.2807(5) 0.4020(9) 0.2857(3)
C28 C -0.2521(5) 0.5357(10) 0.2944(3)
H29 H -0.2864 0.6100 0.2906
C29 C -0.1712(6) 0.5574(12) 0.3089(3)
H30 H -0.1522 0.6466 0.3142
C30 C -0.3684(5) 0.3798(8) 0.2704(3)
C31 C 0.1435(6) 0.4018(10) 0.4935(3)
H31 H 0.1123 0.4779 0.4952
C32 C 0.2220(6) 0.4237(10) 0.4979(3)
H32 H 0.2428 0.5121 0.5021
C33 C 0.2699(5) 0.3118(9) 0.4959(3)
C34 C 0.2369(5) 0.1821(9) 0.4906(3)
H33 H 0.2680 0.1049 0.4903
C35 C 0.1563(6) 0.1683(10) 0.4857(3)
H34 H 0.1343 0.0808 0.4816
C36 C 0.3545(6) 0.3327(10) 0.4940(3)
C37 C 0.8576(6) 0.3611(10) 0.4216(3)
H35 H 0.8931 0.4069 0.4091
C38 C 0.7794(5) 0.3740(9) 0.4034(3)
H36 H 0.7628 0.4267 0.3785
C39 C 0.7249(5) 0.3102(9) 0.4214(3)
C40 C 0.7524(5) 0.2312(9) 0.4576(3)
H37 H 0.7176 0.1848 0.4705
C41 C 0.8316(5) 0.2212(9) 0.4747(3)
H38 H 0.8490 0.1686 0.4995
C42 C 0.6378(5) 0.3216(9) 0.3999(3)
Er1A Er -1.48639(2) 0.18993(4) 0.057870(13)
Er1B Er 0.51361(2) -0.18993(4) 0.557870(13)
Er1B_2 Er 0.51361(2) 0.81007(4) 0.557870(13)
Er1B_3 Er -0.48639(2) 0.81007(4) 0.557870(13)
Er3_2 Er -0.5000 1.11548(5) 0.2500
Br1A Br -1.00686(7) 1.07013(13) 0.11959(5)
Br2A Br -1.00274(7) 0.65131(12) 0.07205(4)
Br3A Br -0.01968(10) 0.7567(2) 0.30348(6)
Br3A_2 Br -1.01968(10) 0.7567(2) 0.30348(6)
Br3_2 Br -0.98032(10) 0.7567(2) 0.19652(6)
Br4_2 Br -1.0000 1.18317(16) 0.2500
Cu1A Cu -1.04939(9) 0.80691(19) 0.12563(5)
Cu1A_2 Cu -0.04939(9) 0.80691(19) 0.12563(5)
Cu1B Cu 0.95061(9) 0.19309(19) 0.62563(5)
Cu1_2 Cu 0.04939(9) -0.19309(19) 0.37437(5)
Cu2A Cu -0.95734(8) 0.89369(16) 0.07368(6)
Cu2B Cu 0.04266(8) 1.10631(16) 0.57368(6)
Cu3B Cu -0.00285(7) 1.25456(15) 0.48010(5)
Cu3B_2 Cu 0.99715(7) 0.25456(15) 0.48010(5)
Cu3B_3 Cu -0.00285(7) 0.25456(15) 0.48010(5)
Cu4A Cu -0.96497(9) 0.98395(18) 0.29678(8)
Cu4A_2 Cu 0.03503(9) 0.98395(18) 0.29678(8)
Cu5A Cu -0.99007(9) 0.4855(2) 0.16915(6)
Cu5A_2 Cu 0.00993(9) 0.4855(2) 0.16915(6)
Cl1C Cl -1.0000 1.0000 0.0000
O1B O 0.4373(4) -0.2139(6) 0.4893(2)
O1A O -1.5627(4) 0.2139(6) -0.0107(2)
O2A O -1.4805(5) 0.0479(8) 0.1187(2)
H1A H -1.4913 -0.0316 0.1107
H2A H -1.4917 0.0518 0.1423
O3B O 0.4366(4) -0.0145(6) 0.4561(2)
O3C O -1.4366(4) -0.0145(6) 0.0439(2)
O4A O -1.5983(4) 0.0053(8) 0.0435(2)
H3A H -1.5999 -0.0326 0.0663
H4A H -1.5930 -0.0590 0.0277
O5B O 0.4090(4) 0.7329(7) 0.5808(2)
O5A O -1.5910(4) 0.2671(7) 0.0808(2)
O6B O 0.3799(4) 0.6167(7) 0.6348(2)
O7A O -1.4879(4) 0.4337(7) 0.0511(2)
H5A H -1.4570 0.4572 0.0368
H6A H -1.5307 0.4525 0.0355
O8A O -1.3757(4) 0.2655(7) 0.1065(2)
O9A O -0.5055(4) 0.5591(6) 0.3228(2)
H7A H -0.5419 0.5060 0.3226
H8A H -0.4665 0.5123 0.3326
O10A O -1.3761(4) 0.3710(7) 0.1684(2)
O11A O -0.4974(3) 0.2291(6) 0.18379(19)
H9A H -0.4584 0.2682 0.1798
H10A H -0.5019 0.2594 0.2071
O12B O -0.3918(4) 0.7683(7) 0.5152(2)
O12A O -1.3918(4) 0.2317(7) 0.0152(2)
O13B O -0.3788(4) 0.5457(7) 0.5017(3)
O14A O -0.5904(3) 0.4832(6) 0.2356(2)
O15A O -0.6103(3) 0.2573(6) 0.2351(2)
O16A O -0.5804(4) 0.7715(6) 0.1930(2)
O17A O -0.5849(4) 1.0011(7) 0.1945(2)
O17_2 O -0.4151(4) 0.0011(7) 0.3055(2)
O17A_2 O -0.5849(4) 0.0011(7) 0.1945(2)
O18A O -0.5989(4) 0.7589(7) 0.2766(2)
O19A O -0.5774(4) 0.9857(7) 0.2826(2)
O19_2 O -0.4226(4) -0.0143(7) 0.2174(2)
O19A_2 O -0.5774(4) -0.0143(7) 0.2826(2)
N1B N 0.1657(5) -0.1831(9) 0.3983(3)
N1B_2 N 0.1657(5) 0.8169(9) 0.3983(3)
N1C N -1.1657(5) 0.8169(9) 0.1017(3)
N2A N -0.8398(5) 0.8906(8) 0.0969(3)
N3B N 0.1151(4) 0.7164(8) 0.5427(3)
N3_2 N -0.1151(4) 1.2836(8) 0.4573(3)
N4A N -0.8524(5) 0.9481(9) 0.2947(3)
N5A N -1.0990(5) 0.4325(9) 0.1599(3)
N6B N -0.1086(4) 0.7220(8) 0.5132(3)
N6_2 N 0.1086(4) 1.2780(8) 0.4868(3)
N7A N -0.8785(5) 0.4525(11) 0.1849(3)
C1B C 0.2077(6) -0.2861(11) 0.4180(4)
H11B H 0.1833 -0.3709 0.4184
C2B C 0.2865(6) -0.2757(10) 0.4382(3)
H12B H 0.3137 -0.3508 0.4525
C3B C 0.3237(5) -0.1508(9) 0.4365(3)
C4B C 0.2807(5) -0.0431(10) 0.4146(3)
H13B H 0.3044 0.0413 0.4122
C5B C 0.2017(6) -0.0622(12) 0.3961(4)
H14B H 0.1727 0.0110 0.3817
C6B C 0.4060(5) -0.1242(9) 0.4623(3)
C7A C -0.7954(6) 0.7764(10) 0.1017(3)
H15A H -0.8170 0.6972 0.0872
C8A C -0.7208(5) 0.7691(9) 0.1263(3)
H16A H -0.6925 0.6874 0.1282
C9A C -0.6875(5) 0.8866(8) 0.1486(3)
C10A C -0.7312(6) 1.0065(10) 0.1426(4)
H17A H -0.7100 1.0880 0.1556
C11A C -0.8066(6) 1.0045(10) 0.1170(4)
H18A H -0.8354 1.0857 0.1135
C12A C -0.6097(5) 0.8852(10) 0.1813(3)
C13A C -0.8226(6) 0.8208(10) 0.2953(4)
H19A H -0.8545 0.7464 0.2980
C14A C -0.7488(6) 0.7956(9) 0.2924(4)
H20A H -0.7311 0.7052 0.2927
C15A C -0.6984(5) 0.9040(8) 0.2887(3)
C16A C -0.7280(5) 1.0356(9) 0.2896(3)
H21A H -0.6967 1.1119 0.2882
C17A C -0.8035(6) 1.0522(10) 0.2925(4)
H22A H -0.8223 1.1415 0.2929
C18A C -0.6181(5) 0.8805(9) 0.2820(3)
C19A C -1.1389(6) 0.4629(11) 0.1891(3)
H23A H -1.1134 0.5062 0.2146
C20A C -1.2169(6) 0.4323(9) 0.1828(3)
H24A H -1.2432 0.4581 0.2037
C21A C -1.2569(5) 0.3653(8) 0.1467(3)
C22A C -1.2144(6) 0.3314(10) 0.1170(3)
H25A H -1.2392 0.2870 0.0916
C23A C -1.1380(6) 0.3612(12) 0.1239(4)
H26A H -1.1105 0.3326 0.1038
C24A C -1.3431(5) 0.3325(9) 0.1396(3)
C25A C -0.8522(6) 0.3244(12) 0.1926(4)
H27A H -0.8879 0.2521 0.1876
C26A C -0.7725(5) 0.2944(10) 0.2080(3)
H28A H -0.7557 0.2041 0.2139
C27A C -0.7193(5) 0.4020(9) 0.2143(3)
C28A C -0.7479(5) 0.5357(10) 0.2056(3)
H29A H -0.7136 0.6100 0.2094
C29A C -0.8288(6) 0.5574(12) 0.1911(3)
H30A H -0.8478 0.6466 0.1858
C30A C -0.6316(5) 0.3798(8) 0.2296(3)
C31B C -0.1435(6) 0.5982(10) 0.5065(3)
H31B H -0.1123 0.5221 0.5048
C32B C -0.2220(6) 0.5763(10) 0.5021(3)
H32B H -0.2428 0.4879 0.4979
C33B C -0.2699(5) 0.6882(9) 0.5041(3)
C34B C -0.2369(5) 0.8179(9) 0.5094(3)
H33B H -0.2680 0.8951 0.5097
C35B C -0.1563(6) 0.8317(10) 0.5143(3)
H34B H -0.1343 0.9192 0.5184
C36B C -0.3545(6) 0.6673(10) 0.5060(3)
C37B C 0.1424(6) 0.6389(10) 0.5784(3)
H35B H 0.1069 0.5931 0.5909
C38B C 0.2206(5) 0.6260(9) 0.5966(3)
H36B H 0.2372 0.5733 0.6215
C39B C 0.2751(5) 0.6898(9) 0.5786(3)
C40B C 0.2476(5) 0.7688(9) 0.5424(3)
H37B H 0.2824 0.8152 0.5295
C41B C 0.1684(5) 0.7788(9) 0.5253(3)
H38B H 0.1510 0.8314 0.5005
C42B C 0.3622(5) 0.6784(9) 0.6001(3)
O20 O 0.4991(8) 0.7646(10) 0.1103(3)
H39 H 0.5097 0.7100 0.1318
H40 H 0.5231 0.8400 0.1175
loop_
_geom_bond_atom_site_label_1
_geom_bond_atom_site_label_2
_geom_bond_site_symmetry_1
_geom_bond_site_symmetry_2
Er1 O1 1_555 1_555
Er2 O9 1_555 1_555
Er3 O11 1_555 1_555
Br1 Cu1 1_555 1_555
Br2 Cu1 1_555 1_555
Br3 Cu4 1_555 1_555
Br4 Cu4 1_555 1_555
Cu1 Br3A 1_555 1_555
Cu2 Br1 1_555 1_555
Cu3 Cl1 1_555 1_555
Cu4 N4 1_555 1_555
Cu5 N5 1_555 1_555
Cl1 Cu2 1_555 1_555
O1 C6 1_555 1_555
O2 Er1 1_555 1_555
H1 O2 1_555 1_555
H2 O2 1_555 1_555
O3 C6 1_555 1_555
O4 Er1 1_555 1_555
H3 O4 1_555 1_555
H4 O4 1_555 1_555
O5 Er1 1_555 1_555
O6 C42 1_555 1_555
O7 Er1 1_555 1_555
H5 O7 1_555 1_555
H6 O7 1_555 1_555
O8 Er1 1_555 1_555
O9 H7 1_555 1_555
H8 O9 1_555 1_555
O10 C24 1_555 1_555
O11 H9 1_555 1_555
H10 O11 1_555 1_555
O12 Er1 1_555 1_555
O13 C36 1_555 1_555
O14 Er2 1_555 1_555
O15 Er3 1_555 1_555
O16 Er2 1_555 1_555
O17 C12 1_555 1_555
O18 Er2 1_555 1_555
O19 C18 1_555 1_555
N1 C1 1_555 1_555
N2 Cu2 1_555 1_555
N3 C37 1_555 1_555
N4 C13 1_555 1_555
N5 C19 1_555 1_555
N6 C31 1_555 1_555
N7 Cu5 1_555 1_555
C1 H11 1_555 1_555
C2 C1 1_555 1_555
H12 C2 1_555 1_555
C3 C2 1_555 1_555
C4 C3 1_555 1_555
H13 C4 1_555 1_555
C5 N1 1_555 1_555
H14 C5 1_555 1_555
C6 C3 1_555 1_555
C7 N2 1_555 1_555
H15 C7 1_555 1_555
C8 C7 1_555 1_555
H16 C8 1_555 1_555
C9 C8 1_555 1_555
C10 C9 1_555 1_555
H17 C10 1_555 1_555
C11 N2 1_555 1_555
H18 C11 1_555 1_555
C12 O16 1_555 1_555
C13 H19 1_555 1_555
C14 C13 1_555 1_555
H20 C14 1_555 1_555
C15 C14 1_555 1_555
C16 C15 1_555 1_555
H21 C16 1_555 1_555
C17 N4 1_555 1_555
H22 C17 1_555 1_555
C18 O18 1_555 1_555
C19 H23 1_555 1_555
C20 C19 1_555 1_555
H24 C20 1_555 1_555
C21 C20 1_555 1_555
C22 C21 1_555 1_555
H25 C22 1_555 1_555
C23 N5 1_555 1_555
H26 C23 1_555 1_555
C24 O8 1_555 1_555
C25 N7 1_555 1_555
H27 C25 1_555 1_555
C26 C25 1_555 1_555
H28 C26 1_555 1_555
C27 C26 1_555 1_555
C28 C27 1_555 1_555
H29 C28 1_555 1_555
C29 N7 1_555 1_555
H30 C29 1_555 1_555
C30 O14 1_555 1_555
C31 H31 1_555 1_555
C32 C31 1_555 1_555
H32 C32 1_555 1_555
C33 C32 1_555 1_555
C34 C33 1_555 1_555
H33 C34 1_555 1_555
C35 N6 1_555 1_555
H34 C35 1_555 1_555
C36 O12 1_555 1_555
C37 H35 1_555 1_555
C38 C37 1_555 1_555
H36 C38 1_555 1_555
C39 C38 1_555 1_555
C40 C39 1_555 1_555
H37 C40 1_555 1_555
C41 N3 1_555 1_555
H38 C41 1_555 1_555
C42 O5 1_555 1_555
O20 H39 1_555 1_555
H40 O20 1_555 1_555
Er1A O1A 1_555 1_555
Er1B O3 1_555 1_555
Er1B_2 O5B 1_555 1_555
Er1B_3 O12B 1_555 1_555
Er3_2 O17 1_555 1_555
Br1A Cu1A 1_555 1_555
Br2A Cu1A 1_555 1_555
Br3A Cu5 1_555 1_555
Br3A_2 Cu4A 1_555 1_555
Br3_2 Cu1A 1_555 1_555
Br4_2 Cu4A 1_555 1_555
Cu1A N1C 1_555 1_555
Cu1A_2 Br3 1_555 1_555
Cu1B N1 1_555 1_555
Cu1_2 N1B 1_555 1_555
Cu2A Br1A 1_555 1_555
Cu2B Cl1 1_555 1_555
Cu3B Cl1 1_555 1_555
Cu3B_2 N3 1_555 1_555
Cu3B_3 N6 1_555 1_555
Cu4A N4A 1_555 1_555
Cu4A_2 Br4 1_555 1_555
Cu5A Br3_2 1_555 1_555
Cu5A_2 Br3 1_555 1_555
Cl1C Cu2A 1_555 1_555
O1B Er1B 1_555 1_555
O2A Er1A 1_555 1_555
H1A O2A 1_555 1_555
H2A O2A 1_555 1_555
O3B Er1 1_555 1_555
O3C Er1A 1_555 1_555
O4A Er1A 1_555 1_555
H3A O4A 1_555 1_555
H4A O4A 1_555 1_555
O5B C42B 1_555 1_555
O5A Er1A 1_555 1_555
O6B C42B 1_555 1_555
O7A Er1A 1_555 1_555
H5A O7A 1_555 1_555
H6A O7A 1_555 1_555
O8A Er1A 1_555 1_555
O9A Er2 1_555 1_555
H7A O9A 1_555 1_555
H8A O9A 1_555 1_555
O10A C24A 1_555 1_555
O11A Er3 1_555 1_555
H9A O11A 1_555 1_555
H10A O11A 1_555 1_555
O12B C36B 1_555 1_555
O12A Er1A 1_555 1_555
O13B C36B 1_555 1_555
O14A Er2 1_555 1_555
O15A Er3 1_555 1_555
O16A Er2 1_555 1_555
O17A Er3_2 1_555 1_555
O17_2 Er3 1_555 1_555
O17A_2 Er3 1_555 1_555
O18A Er2 1_555 1_555
O19A Er3_2 1_555 1_555
O19_2 Er3 1_555 1_555
O19A_2 Er3 1_555 1_555
N1B C1B 1_555 1_555
N1B_2 Cu1 1_555 1_555
N2A Cu2A 1_555 1_555
N3B Cu3 1_555 1_555
N3_2 Cu3B 1_555 1_555
N4A C13A 1_555 1_555
N5A Cu5A 1_555 1_555
N6B Cu3 1_555 1_555
N6_2 Cu3B 1_555 1_555
N7A Cu5A 1_555 1_555
C1B H11B 1_555 1_555
C2B C1B 1_555 1_555
H12B C2B 1_555 1_555
C3B C2B 1_555 1_555
C4B C3B 1_555 1_555
H13B C4B 1_555 1_555
C5B N1B 1_555 1_555
H14B C5B 1_555 1_555
C6B O1B 1_555 1_555
C7A N2A 1_555 1_555
H15A C7A 1_555 1_555
C8A C7A 1_555 1_555
H16A C8A 1_555 1_555
C9A C8A 1_555 1_555
C10A C9A 1_555 1_555
H17A C10A 1_555 1_555
C11A N2A 1_555 1_555
H18A C11A 1_555 1_555
C12A O16A 1_555 1_555
C13A H19A 1_555 1_555
C14A C13A 1_555 1_555
H20A C14A 1_555 1_555
C15A C14A 1_555 1_555
C16A C15A 1_555 1_555
H21A C16A 1_555 1_555
C17A N4A 1_555 1_555
H22A C17A 1_555 1_555
C18A O18A 1_555 1_555
C19A N5A 1_555 1_555
H23A C19A 1_555 1_555
C20A C19A 1_555 1_555
H24A C20A 1_555 1_555
C21A C20A 1_555 1_555
C22A C21A 1_555 1_555
H25A C22A 1_555 1_555
C23A N5A 1_555 1_555
H26A C23A 1_555 1_555
C24A O8A 1_555 1_555
C25A N7A 1_555 1_555
H27A C25A 1_555 1_555
C26A C25A 1_555 1_555
H28A C26A 1_555 1_555
C27A C26A 1_555 1_555
C28A C27A 1_555 1_555
H29A C28A 1_555 1_555
C29A N7A 1_555 1_555
H30A C29A 1_555 1_555
C30A O14A 1_555 1_555
C31B N6B 1_555 1_555
H31B C31B 1_555 1_555
C32B C31B 1_555 1_555
H32B C32B 1_555 1_555
C33B C32B 1_555 1_555
C34B C33B 1_555 1_555
H33B C34B 1_555 1_555
C35B N6B 1_555 1_555
H34B C35B 1_555 1_555
C36B C33B 1_555 1_555
C37B N3B 1_555 1_555
H35B C37B 1_555 1_555
C38B C37B 1_555 1_555
H36B C38B 1_555 1_555
C39B C38B 1_555 1_555
C40B C39B 1_555 1_555
H37B C40B 1_555 1_555
C41B N3B 1_555 1_555
H38B C41B 1_555 1_555
C42B C39B 1_555 1_555
Br2 Cu2 1_555 1_555
O15 C30 1_555 1_555
O19 Er3_2 1_555 1_555
C4 C5 1_555 1_555
C9 C12 1_555 1_555
C10 C11 1_555 1_555
C15 C18 1_555 1_555
C16 C17 1_555 1_555
C21 C24 1_555 1_555
C22 C23 1_555 1_555
C27 C30 1_555 1_555
C28 C29 1_555 1_555
C33 C36 1_555 1_555
C34 C35 1_555 1_555
C39 C42 1_555 1_555
C40 C41 1_555 1_555
Br2A Cu2A 1_555 1_555
Br3A Cu4A_2 1_555 1_555
O3B C6B 1_555 1_555
O15A C30A 1_555 1_555
O17A C12A 1_555 1_555
O19A C18A 1_555 1_555
C3B C6B 1_555 1_555
C4B C5B 1_555 1_555
C9A C12A 1_555 1_555
C10A C11A 1_555 1_555
C15A C18A 1_555 1_555
C16A C17A 1_555 1_555
C21A C24A 1_555 1_555
C22A C23A 1_555 1_555
C27A C30A 1_555 1_555
C28A C29A 1_555 1_555
C34B C35B 1_555 1_555
C40B C41B 1_555 1_555

#END
