
#######################################################################
#
#                 Cambridge Crystallographic Data Centre
#                                CCDC 
#
#######################################################################
#
# If this CIF has been generated from an entry in the Cambridge 
# Structural Database, then it will include bibliographic, chemical, 
# crystal, experimental, refinement or atomic coordinate data resulting 
# from the CCDC's data processing and validation procedures.
#
#######################################################################

data_KOGXOU
_symmetry_cell_setting           triclinic
_symmetry_space_group_name_H-M   'P -1'
_symmetry_Int_Tables_number      2
_space_group_name_Hall           '-P 1'
loop_
_symmetry_equiv_pos_site_id
_symmetry_equiv_pos_as_xyz
1 x,y,z
2 -x,-y,-z
_cell_length_a                   9.6984(6)
_cell_length_b                   13.2334(9)
_cell_length_c                   13.7678(9)
_cell_angle_alpha                103.273(2)
_cell_angle_beta                 109.719(2)
_cell_angle_gamma                95.579(2)
_cell_volume                     1589.25
loop_
_atom_site_label
_atom_site_type_symbol
_atom_site_fract_x
_atom_site_fract_y
_atom_site_fract_z
Ag1 Ag -0.01331(5) 0.42809(4) 0.23171(3)
Ag2 Ag 0.0000 0.5000 0.0000
Ag3 Ag 0.0000 0.5000 0.5000
C1 C 0.1752(6) 0.3154(5) 0.0941(4)
C2 C 0.1274(6) 0.2085(5) 0.0908(4)
H1 H 0.0467 0.1864 0.1103
C3 C 0.2094(6) 0.1434(5) 0.0573(4)
C4 C 0.3718(6) 0.4208(5) 0.0596(5)
H2 H 0.3110 0.4440 -0.0010
H3 H 0.4665 0.4095 0.0522
H4 H 0.3915 0.4751 0.1270
C5 C -0.0707(6) 0.6734(4) 0.1860(4)
C6 C 0.0035(6) 0.7716(5) 0.1853(4)
H5 H 0.0783 0.7770 0.1556
C7 C -0.0425(6) 0.8541(5) 0.2301(4)
C8 C -0.2711(7) 0.6106(5) 0.2480(5)
H6 H -0.2703 0.5409 0.2046
H7 H -0.3730 0.6245 0.2257
H8 H -0.2356 0.6122 0.3241
C9 C 0.1712(6) 0.6782(5) 0.4168(4)
C10 C 0.1411(7) 0.7775(5) 0.4698(5)
H9 H 0.0669 0.7822 0.5005
C11 C 0.2286(7) 0.8594(5) 0.4699(5)
C12 C 0.3408(7) 0.6183(6) 0.3240(5)
H10 H 0.3126 0.5501 0.3353
H11 H 0.4498 0.6376 0.3503
H12 H 0.2987 0.6130 0.2471
C13 C -0.2622(6) 0.3080(5) 0.2971(4)
C14 C -0.2591(6) 0.2022(5) 0.2424(5)
H13 H -0.1861 0.1846 0.2129
C15 C -0.3716(6) 0.1309(5) 0.2379(4)
C16 C -0.4221(7) 0.4030(5) 0.3795(5)
H14 H -0.3446 0.4369 0.4506
H15 H -0.5174 0.3844 0.3872
H16 H -0.4318 0.4519 0.3349
Cl1 Cl 0.20076(18) 0.01141(13) 0.04372(14)
Cl2 Cl 0.0143(2) 0.98539(13) 0.24840(14)
Cl3 Cl 0.2356(3) 0.99077(15) 0.52233(16)
Cl4 Cl -0.41268(19) -0.00193(13) 0.18043(15)
Cl5 Cl 0.30670(15) 0.70617(11) 0.03344(11)
Cl6 Cl 0.20276(16) 0.29471(13) 0.41666(12)
N1 N 0.2916(5) 0.3218(4) 0.0608(4)
N2 N -0.1741(5) 0.6910(4) 0.2328(4)
N3 N 0.2838(5) 0.6984(4) 0.3819(4)
N4 N -0.3808(5) 0.3071(4) 0.3285(4)
O1 O 0.1234(4) 0.3955(3) 0.1221(3)
O2 O -0.0525(4) 0.5816(3) 0.1521(3)
O3 O 0.1057(5) 0.5865(3) 0.4011(3)
O4 O -0.1739(4) 0.3922(3) 0.3169(3)
O5 O 0.2249(5) 0.6514(4) 0.0808(4)
O6 O 0.2894(5) 0.6404(4) -0.0701(3)
O7 O 0.4592(5) 0.7306(5) 0.0999(4)
O8 O 0.2502(8) 0.7975(5) 0.0212(5)
O9 O 0.1555(9) 0.3523(6) 0.4920(5)
O10 O 0.2194(7) 0.3644(6) 0.3515(6)
O11 O 0.3392(6) 0.2671(6) 0.4610(5)
O12 O 0.0944(9) 0.2127(6) 0.3454(8)
S1 S 0.34491(16) 0.20544(12) 0.02458(11)
S2 S -0.18048(17) 0.82046(12) 0.27626(12)
S3 S 0.35293(18) 0.82795(14) 0.40765(13)
S4 S -0.48541(16) 0.18639(12) 0.29819(12)
Ag1A Ag 0.01331(5) 0.57191(4) -0.23171(3)
Ag3_2 Ag 0.0000 0.5000 -0.5000
C1A C -0.1752(6) 0.6846(5) -0.0941(4)
C2A C -0.1274(6) 0.7915(5) -0.0908(4)
H1A H -0.0467 0.8136 -0.1103
C3A C -0.2094(6) 0.8566(5) -0.0573(4)
C4A C -0.3718(6) 0.5792(5) -0.0596(5)
H2A H -0.3110 0.5560 0.0010
H3A H -0.4665 0.5905 -0.0522
H4A H -0.3915 0.5249 -0.1270
C5A C 0.0707(6) 0.3266(4) -0.1860(4)
C6A C -0.0035(6) 0.2284(5) -0.1853(4)
H5A H -0.0783 0.2230 -0.1556
C7A C 0.0425(6) 0.1459(5) -0.2301(4)
C8A C 0.2711(7) 0.3894(5) -0.2480(5)
H6A H 0.2703 0.4591 -0.2046
H7A H 0.3730 0.3755 -0.2257
H8A H 0.2356 0.3878 -0.3241
C9A C -0.1712(6) 0.3218(5) -0.4168(4)
C10A C -0.1411(7) 0.2225(5) -0.4698(5)
H9A H -0.0669 0.2178 -0.5005
C11A C -0.2286(7) 0.1406(5) -0.4699(5)
C12A C -0.3408(7) 0.3817(6) -0.3240(5)
H10A H -0.3126 0.4499 -0.3353
H11A H -0.4498 0.3624 -0.3503
H12A H -0.2987 0.3870 -0.2471
C13A C 0.2622(6) 0.6920(5) -0.2971(4)
C14A C 0.2591(6) 0.7978(5) -0.2424(5)
H13A H 0.1861 0.8154 -0.2129
C15A C 0.3716(6) 0.8691(5) -0.2379(4)
C16A C 0.4221(7) 0.5970(5) -0.3795(5)
H14A H 0.3446 0.5631 -0.4506
H15A H 0.5174 0.6156 -0.3872
H16A H 0.4318 0.5481 -0.3349
Cl1A Cl -0.20076(18) 0.98859(13) -0.04372(14)
Cl2A Cl -0.0143(2) 0.01461(13) -0.24840(14)
Cl3A Cl -0.2356(3) 0.00923(15) -0.52233(16)
Cl4A Cl 0.41268(19) 1.00193(13) -0.18043(15)
Cl5A Cl -0.30670(15) 0.29383(11) -0.03344(11)
Cl6A Cl -0.20276(16) 0.70529(13) 0.58334(12)
N1A N -0.2916(5) 0.6782(4) -0.0608(4)
N2A N 0.1741(5) 0.3090(4) -0.2328(4)
N3A N -0.2838(5) 0.3016(4) -0.3819(4)
N4A N 0.3808(5) 0.6929(4) -0.3285(4)
O1A O -0.1234(4) 0.6045(3) -0.1221(3)
O2A O 0.0525(4) 0.4184(3) -0.1521(3)
O3A O -0.1057(5) 0.4135(3) -0.4011(3)
O3A_2 O -0.1057(5) 0.4135(3) 0.5989(3)
O4A O 0.1739(4) 0.6078(3) -0.3169(3)
O4A_2 O 0.1739(4) 0.6078(3) 0.6831(3)
O5A O -0.2249(5) 0.3486(4) -0.0808(4)
O6A O -0.2894(5) 0.3596(4) 0.0701(3)
O7A O -0.4592(5) 0.2694(5) -0.0999(4)
O8A O -0.2502(8) 0.2025(5) -0.0212(5)
O9A O -0.1555(9) 0.6477(6) 0.5080(5)
O10A O -0.2194(7) 0.6356(6) 0.6485(6)
O11A O -0.3392(6) 0.7329(6) 0.5390(5)
O12A O -0.0944(9) 0.7873(6) 0.6546(8)
S1A S -0.34491(16) 0.79456(12) -0.02458(11)
S2A S 0.18048(17) 0.17954(12) -0.27626(12)
S3A S -0.35293(18) 0.17205(14) -0.40765(13)
S4A S 0.48541(16) 0.81361(12) -0.29819(12)
loop_
_geom_bond_atom_site_label_1
_geom_bond_atom_site_label_2
_geom_bond_site_symmetry_1
_geom_bond_site_symmetry_2
Ag1 O1 1_555 1_555
Ag2 O1 1_555 1_555
Ag3 O3 1_555 1_555
C1 C2 1_555 1_555
C2 H1 1_555 1_555
C3 C2 1_555 1_555
C4 H2 1_555 1_555
H3 C4 1_555 1_555
H4 C4 1_555 1_555
C5 C6 1_555 1_555
C6 H5 1_555 1_555
C7 C6 1_555 1_555
C8 H6 1_555 1_555
H7 C8 1_555 1_555
H8 C8 1_555 1_555
C9 C10 1_555 1_555
C10 H9 1_555 1_555
C11 C10 1_555 1_555
C12 H10 1_555 1_555
H11 C12 1_555 1_555
H12 C12 1_555 1_555
C13 C14 1_555 1_555
C14 H13 1_555 1_555
C15 C14 1_555 1_555
C16 H14 1_555 1_555
H15 C16 1_555 1_555
H16 C16 1_555 1_555
Cl1 C3 1_555 1_555
Cl2 C7 1_555 1_555
Cl3 C11 1_555 1_555
Cl4 C15 1_555 1_555
Cl5 O5 1_555 1_555
Cl6 O9 1_555 1_555
N1 C1 1_555 1_555
N2 C5 1_555 1_555
N3 C9 1_555 1_555
N4 C13 1_555 1_555
O1 C1 1_555 1_555
O2 Ag1 1_555 1_555
O3 Ag1 1_555 1_555
O4 Ag1 1_555 1_555
O5 Ag2 1_555 1_555
O6 Cl5 1_555 1_555
O7 Cl5 1_555 1_555
O8 Cl5 1_555 1_555
O9 Ag3 1_555 1_555
O10 Cl6 1_555 1_555
O11 Cl6 1_555 1_555
O12 Cl6 1_555 1_555
S1 C3 1_555 1_555
S2 C7 1_555 1_555
S3 C11 1_555 1_555
S4 C15 1_555 1_555
Ag1A O1A 1_555 1_555
Ag3_2 O3A 1_555 1_555
C1A C2A 1_555 1_555
C2A H1A 1_555 1_555
C3A C2A 1_555 1_555
C4A H2A 1_555 1_555
H3A C4A 1_555 1_555
H4A C4A 1_555 1_555
C5A C6A 1_555 1_555
C6A H5A 1_555 1_555
C7A C6A 1_555 1_555
C8A H6A 1_555 1_555
H7A C8A 1_555 1_555
H8A C8A 1_555 1_555
C9A C10A 1_555 1_555
C10A H9A 1_555 1_555
C11A C10A 1_555 1_555
C12A H10A 1_555 1_555
H11A C12A 1_555 1_555
H12A C12A 1_555 1_555
C13A C14A 1_555 1_555
C14A H13A 1_555 1_555
C15A C14A 1_555 1_555
C16A H14A 1_555 1_555
H15A C16A 1_555 1_555
H16A C16A 1_555 1_555
Cl1A C3A 1_555 1_555
Cl2A C7A 1_555 1_555
Cl3A C11A 1_555 1_555
Cl4A C15A 1_555 1_555
Cl5A O5A 1_555 1_555
Cl6A O9A 1_555 1_555
N1A C1A 1_555 1_555
N2A C5A 1_555 1_555
N3A C9A 1_555 1_555
N4A C13A 1_555 1_555
O1A Ag2 1_555 1_555
O2A Ag2 1_555 1_555
O3A Ag1A 1_555 1_555
O3A_2 Ag3 1_555 1_555
O4A Ag1A 1_555 1_555
O4A_2 Ag3 1_555 1_555
O5A Ag2 1_555 1_555
O6A Cl5A 1_555 1_555
O7A Cl5A 1_555 1_555
O8A Cl5A 1_555 1_555
O9A Ag3 1_555 1_555
O10A Cl6A 1_555 1_555
O11A Cl6A 1_555 1_555
O12A Cl6A 1_555 1_555
S1A C3A 1_555 1_555
S2A C7A 1_555 1_555
S3A C11A 1_555 1_555
S4A C15A 1_555 1_555
Ag2 O2 1_555 1_555
Ag3 O4 1_555 1_555
C4 N1 1_555 1_555
C5 O2 1_555 1_555
C8 N2 1_555 1_555
C9 O3 1_555 1_555
C12 N3 1_555 1_555
C13 O4 1_555 1_555
C16 N4 1_555 1_555
N1 S1 1_555 1_555
N2 S2 1_555 1_555
N3 S3 1_555 1_555
N4 S4 1_555 1_555
Ag1A O2A 1_555 1_555
Ag3_2 O4A 1_555 1_555
C1A O1A 1_555 1_555
C4A N1A 1_555 1_555
C5A O2A 1_555 1_555
C8A N2A 1_555 1_555
C9A O3A 1_555 1_555
C12A N3A 1_555 1_555
C13A O4A 1_555 1_555
C16A N4A 1_555 1_555
N1A S1A 1_555 1_555
N2A S2A 1_555 1_555
N3A S3A 1_555 1_555
N4A S4A 1_555 1_555

#END
