
#######################################################################
#
#                 Cambridge Crystallographic Data Centre
#                                CCDC 
#
#######################################################################
#
# If this CIF has been generated from an entry in the Cambridge 
# Structural Database, then it will include bibliographic, chemical, 
# crystal, experimental, refinement or atomic coordinate data resulting 
# from the CCDC's data processing and validation procedures.
#
#######################################################################

data_KOGZAI
_symmetry_cell_setting           orthorhombic
_symmetry_space_group_name_H-M   'C m c m'
_symmetry_Int_Tables_number      63
_space_group_name_Hall           '-C 2n 2'
loop_
_symmetry_equiv_pos_site_id
_symmetry_equiv_pos_as_xyz
1 x,y,z
2 1/2+x,1/2+y,z
3 -x,-y,1/2+z
4 -x,y,1/2-z
5 x,-y,-z
6 1/2-x,1/2-y,1/2+z
7 1/2-x,1/2+y,1/2-z
8 1/2+x,1/2-y,-z
9 -x,-y,-z
10 1/2-x,1/2-y,-z
11 x,y,1/2-z
12 x,-y,1/2+z
13 -x,y,z
14 1/2+x,1/2+y,1/2-z
15 1/2+x,1/2-y,1/2+z
16 1/2-x,1/2+y,z
_cell_length_a                   10.720(3)
_cell_length_b                   15.228(5)
_cell_length_c                   13.331(4)
_cell_angle_alpha                90
_cell_angle_beta                 90
_cell_angle_gamma                90
_cell_volume                     2176.21
loop_
_atom_site_label
_atom_site_type_symbol
_atom_site_fract_x
_atom_site_fract_y
_atom_site_fract_z
Mn1 Mn 0.19128(4) 0.48046(3) 0.7500
K1 K 0.5000 0.40726(6) 0.60962(6)
O1 O 0.31031(18) 0.36882(13) 0.7500
O2 O 0.3250(2) 0.22293(15) 0.7500
O3 O 0.30728(13) 0.53518(10) 0.86366(15)
O4 O 0.32512(16) 0.64048(12) 0.97898(15)
N1 N 0.0625(2) 0.36069(14) 0.7500
N2 N 0.06232(15) 0.54821(10) 0.86450(12)
C1 C 0.1242(3) 0.28542(18) 0.7500
C2 C 0.0633(3) 0.20443(19) 0.7500
H1 H 0.1080 0.1521 0.7500
C3 C 0.2664(3) 0.2920(2) 0.7500
C4 C 0.1240(2) 0.60260(13) 0.92391(15)
C5 C 0.0635(2) 0.66442(13) 0.98378(15)
H2 H 0.1084 0.7043 1.0224
C6 C 0.2649(2) 0.59280(14) 0.92249(17)
Mn1L Mn -0.19128(4) 0.48046(3) 0.7500
K1_2 K -0.5000 0.40726(6) 0.60962(6)
K1J K 0.5000 0.40726(6) 0.89038(6)
K1K K 0.5000 0.59274(6) 1.10962(6)
K1J_2 K -0.5000 0.40726(6) 0.89038(6)
K1K_2 K -0.5000 0.59274(6) 1.10962(6)
K1H K 0.5000 0.59274(6) 0.39038(6)
K1H_2 K -0.5000 0.59274(6) 0.39038(6)
O1L O -0.31031(18) 0.36882(13) 0.7500
O1L_2 O 0.68969(18) 0.36882(13) 0.7500
O1_2 O -0.68969(18) 0.36882(13) 0.7500
O2L O -0.3250(2) 0.22293(15) 0.7500
O3L O -0.30728(13) 0.53518(10) 0.86366(15)
O3J O 0.30728(13) 0.53518(10) 0.63634(15)
O3C O -0.30728(13) 0.53518(10) 0.63634(15)
O3C_2 O 0.69272(13) 0.53518(10) 0.63634(15)
O3J_2 O -0.69272(13) 0.53518(10) 0.63634(15)
O4L O -0.32512(16) 0.64048(12) 0.97898(15)
O4J O 0.32512(16) 0.64048(12) 0.52102(15)
O4C O -0.32512(16) 0.64048(12) 0.52102(15)
O4K O 0.32512(16) 0.35952(12) 0.47898(15)
O4B O 0.67488(16) 0.35952(12) 0.47898(15)
O4K_2 O -0.67488(16) 0.35952(12) 0.47898(15)
O4B_2 O -0.32512(16) 0.35952(12) 0.47898(15)
N1L N -0.0625(2) 0.36069(14) 0.7500
N2L N -0.06232(15) 0.54821(10) 0.86450(12)
N2J N 0.06232(15) 0.54821(10) 0.63550(12)
N2C N -0.06232(15) 0.54821(10) 0.63550(12)
C1L C -0.1242(3) 0.28542(18) 0.7500
C2L C -0.0633(3) 0.20443(19) 0.7500
H1L H -0.1080 0.1521 0.7500
C3L C -0.2664(3) 0.2920(2) 0.7500
C4L C -0.1240(2) 0.60260(13) 0.92391(15)
C4J C 0.1240(2) 0.60260(13) 0.57609(15)
C4C C -0.1240(2) 0.60260(13) 0.57609(15)
C5L C -0.0635(2) 0.66442(13) 0.98378(15)
C5J C 0.0635(2) 0.66442(13) 0.51622(15)
C5C C -0.0635(2) 0.66442(13) 0.51622(15)
H2L H -0.1084 0.7043 1.0224
H2J H 0.1084 0.7043 0.4776
H2C H -0.1084 0.7043 0.4776
C6L C -0.2649(2) 0.59280(14) 0.92249(17)
C6J C 0.2649(2) 0.59280(14) 0.57751(17)
C6C C -0.2649(2) 0.59280(14) 0.57751(17)
loop_
_geom_bond_atom_site_label_1
_geom_bond_atom_site_label_2
_geom_bond_site_symmetry_1
_geom_bond_site_symmetry_2
Mn1 O1 1_555 1_555
K1 O1 1_555 1_555
O1 C3 1_555 1_555
O2 C3 1_555 1_555
O3 Mn1 1_555 1_555
O4 C6 1_555 1_555
N1 Mn1 1_555 1_555
N2 Mn1 1_555 1_555
C1 N1 1_555 1_555
C2 C1 1_555 1_555
H1 C2 1_555 1_555
C3 C1 1_555 1_555
C4 N2 1_555 1_555
C5 C4 1_555 1_555
H2 C5 1_555 1_555
C6 O3 1_555 1_555
Mn1L O1L 1_555 1_555
K1_2 O1L 1_555 1_555
K1J O1 1_555 1_555
K1K O4 1_555 1_555
K1J_2 O1L 1_555 1_555
K1K_2 O4L 1_555 1_555
K1H O4J 1_555 1_555
K1H_2 O4C 1_555 1_555
O1L C3L 1_555 1_555
O1L_2 K1 1_555 1_555
O1_2 K1_2 1_555 1_555
O2L C3L 1_555 1_555
O3L Mn1L 1_555 1_555
O3J Mn1 1_555 1_555
O3C Mn1L 1_555 1_555
O3C_2 K1 1_555 1_555
O3J_2 K1_2 1_555 1_555
O4L C6L 1_555 1_555
O4J C6J 1_555 1_555
O4C C6C 1_555 1_555
O4K K1 1_555 1_555
O4B K1 1_555 1_555
O4K_2 K1_2 1_555 1_555
O4B_2 K1_2 1_555 1_555
N1L N1 1_555 1_555
N2L N2 1_555 1_555
N2J Mn1 1_555 1_555
N2C Mn1L 1_555 1_555
C1L N1L 1_555 1_555
C2L C2 1_555 1_555
H1L C2L 1_555 1_555
C3L C1L 1_555 1_555
C4L N2L 1_555 1_555
C4J N2J 1_555 1_555
C4C N2C 1_555 1_555
C5L C5 1_555 1_555
C5J C4J 1_555 1_555
C5C C4C 1_555 1_555
H2L C5L 1_555 1_555
H2J C5J 1_555 1_555
H2C C5C 1_555 1_555
C6L O3L 1_555 1_555
C6J O3J 1_555 1_555
C6C O3C 1_555 1_555
K1 O3J 1_555 1_555
O3 K1J 1_555 1_555
C4 C6 1_555 1_555
Mn1L N1L 1_555 1_555
Mn1L N2L 1_555 1_555
K1_2 O3C 1_555 1_555
K1J O1L_2 1_555 1_555
K1J_2 O1_2 1_555 1_555
K1J_2 O3L 1_555 1_555
N2J N2C 1_555 1_555
C1L C2L 1_555 1_555
C4L C5L 1_555 1_555
C4L C6L 1_555 1_555
C4J C6J 1_555 1_555
C4C C6C 1_555 1_555
C5J C5C 1_555 1_555

#END
