
#######################################################################
#
#                 Cambridge Crystallographic Data Centre
#                                CCDC 
#
#######################################################################
#
# If this CIF has been generated from an entry in the Cambridge 
# Structural Database, then it will include bibliographic, chemical, 
# crystal, experimental, refinement or atomic coordinate data resulting 
# from the CCDC's data processing and validation procedures.
#
#######################################################################

data_KOGZUC
_symmetry_cell_setting           monoclinic
_symmetry_space_group_name_H-M   'P 21/n'
_symmetry_Int_Tables_number      14
_space_group_name_Hall           '-P 2yn'
loop_
_symmetry_equiv_pos_site_id
_symmetry_equiv_pos_as_xyz
1 x,y,z
2 1/2-x,1/2+y,1/2-z
3 -x,-y,-z
4 1/2+x,1/2-y,1/2+z
_cell_length_a                   9.5936(17)
_cell_length_b                   13.010(2)
_cell_length_c                   18.569(3)
_cell_angle_alpha                90
_cell_angle_beta                 101.359(2)
_cell_angle_gamma                90
_cell_volume                     2272.25
loop_
_atom_site_label
_atom_site_type_symbol
_atom_site_fract_x
_atom_site_fract_y
_atom_site_fract_z
Mn1 Mn 0.56385(8) 0.23833(6) 0.39815(4)
Mn2 Mn 0.37999(8) 0.26228(6) 0.58174(4)
Na1 Na 0.8333(3) 0.41997(19) 0.27594(13)
O1 O 0.7168(4) 0.3389(3) 0.3694(2)
O2 O 0.8935(4) 0.4469(4) 0.4098(2)
O3 O 0.4178(4) 0.3867(3) 0.6589(2)
O4 O 0.5665(4) 0.5094(4) 0.7119(2)
O5 O 0.8076(5) 0.6025(3) 0.2695(2)
O6 O 0.4539(4) 0.2267(3) 0.2892(2)
O7 O 0.2513(4) 0.2256(3) 0.2076(2)
O8 O 0.1616(4) 0.2685(3) 0.5807(2)
O9 O -0.0610(4) 0.2408(3) 0.5213(2)
O10 O 0.7025(4) 0.1158(3) 0.3794(2)
O11 O 0.8576(5) -0.0058(4) 0.4290(2)
O12 O 0.4172(4) 0.1628(3) 0.6734(2)
O13 O 0.5675(4) 0.0561(4) 0.7422(2)
N1 N 0.6103(4) 0.3622(3) 0.4899(2)
N2 N 0.5482(4) 0.3720(3) 0.5485(2)
N3 N 0.3231(4) 0.2401(3) 0.4012(2)
N4 N 0.2636(4) 0.2460(3) 0.4604(2)
N5 N 0.6026(4) 0.1309(3) 0.5008(2)
N6 N 0.5456(4) 0.1400(3) 0.5608(2)
C1 C 0.7862(6) 0.3996(4) 0.4168(3)
C2 C 0.7272(6) 0.4154(4) 0.4865(3)
C3 C 0.7937(6) 0.4790(4) 0.5430(3)
H1 H 0.8781 0.5129 0.5405
C4 C 0.7306(6) 0.4901(4) 0.6024(3)
H2 H 0.7700 0.5324 0.6416
C5 C 0.6050(5) 0.4357(4) 0.6024(3)
C6 C 0.5238(6) 0.4452(5) 0.6634(3)
C7 C 0.3206(6) 0.2284(4) 0.2709(3)
C8 C 0.2417(5) 0.2296(4) 0.3346(3)
C9 C 0.0944(6) 0.2203(4) 0.3241(3)
H3 H 0.0390 0.2123 0.2773
C10 C 0.0342(6) 0.2233(4) 0.3848(3)
H4 H -0.0633 0.2152 0.3810
C11 C 0.1239(5) 0.2389(4) 0.4530(3)
C12 C 0.0676(6) 0.2494(4) 0.5249(3)
C13 C 0.7627(6) 0.0589(5) 0.4312(3)
C14 C 0.7152(6) 0.0708(4) 0.5037(3)
C15 C 0.7827(6) 0.0229(4) 0.5672(3)
H5 H 0.8650 -0.0152 0.5683
C16 C 0.7256(6) 0.0330(4) 0.6284(3)
H6 H 0.7675 0.0025 0.6726
C17 C 0.6027(5) 0.0905(4) 0.6218(3)
C18 C 0.5248(6) 0.1044(5) 0.6849(3)
Na2 Na 0.5250(3) 0.22796(19) 0.17400(13)
O14 O 0.6006(4) 0.3987(3) 0.1996(2)
Na1C Na 0.3333(3) 0.08003(19) 0.77594(13)
O5A O 0.6924(5) 0.1025(3) 0.2305(2)
O8C O 0.6616(4) 0.2315(3) 0.0807(2)
O9C O 0.4390(4) 0.2592(3) 0.0213(2)
O12C O 0.9172(4) 0.3372(3) 0.1734(2)
O13C O 1.0675(4) 0.4439(4) 0.2422(2)
Na2A Na 0.9750(3) 0.72796(19) 0.32600(13)
Na2C Na 0.0250(3) 0.27204(19) 0.67400(13)
loop_
_geom_bond_atom_site_label_1
_geom_bond_atom_site_label_2
_geom_bond_site_symmetry_1
_geom_bond_site_symmetry_2
Mn1 O1 1_555 1_555
Mn2 O3 1_555 1_555
Na1 O1 1_555 1_555
O1 C1 1_555 1_555
O2 Na1 1_555 1_555
O3 C6 1_555 1_555
O4 C6 1_555 1_555
O5 Na1 1_555 1_555
O6 Mn1 1_555 1_555
O7 C7 1_555 1_555
O8 Mn2 1_555 1_555
O9 C12 1_555 1_555
O10 Mn1 1_555 1_555
O11 C13 1_555 1_555
O12 Mn2 1_555 1_555
O13 C18 1_555 1_555
N1 Mn1 1_555 1_555
N2 Mn2 1_555 1_555
N3 Mn1 1_555 1_555
N4 Mn2 1_555 1_555
N5 Mn1 1_555 1_555
N6 Mn2 1_555 1_555
C1 O2 1_555 1_555
C2 N1 1_555 1_555
C3 C2 1_555 1_555
H1 C3 1_555 1_555
C4 C3 1_555 1_555
H2 C4 1_555 1_555
C5 N2 1_555 1_555
C6 C5 1_555 1_555
C7 O6 1_555 1_555
C8 N3 1_555 1_555
C9 C8 1_555 1_555
H3 C9 1_555 1_555
C10 C9 1_555 1_555
H4 C10 1_555 1_555
C11 N4 1_555 1_555
C12 O8 1_555 1_555
C13 O10 1_555 1_555
C14 N5 1_555 1_555
C15 C14 1_555 1_555
H5 C15 1_555 1_555
C16 C15 1_555 1_555
H6 C16 1_555 1_555
C17 N6 1_555 1_555
C18 O12 1_555 1_555
Na2 O6 1_555 1_555
O14 Na1 1_555 1_555
Na1C O12 1_555 1_555
O5A Na2 1_555 1_555
O8C Na2 1_555 1_555
O9C Na2 1_555 1_555
O12C Na1 1_555 1_555
O13C Na1 1_555 1_555
Na2A O5 1_555 1_555
Na2C O8 1_555 1_555
O7 Na2 1_555 1_555
O9 Na2C 1_555 1_555
O13 Na1C 1_555 1_555
N1 N2 1_555 1_555
N3 N4 1_555 1_555
N5 N6 1_555 1_555
C1 C2 1_555 1_555
C4 C5 1_555 1_555
C7 C8 1_555 1_555
C10 C11 1_555 1_555
C11 C12 1_555 1_555
C13 C14 1_555 1_555
C16 C17 1_555 1_555
C17 C18 1_555 1_555
Na2 O14 1_555 1_555

#END
