
#######################################################################
#
#                 Cambridge Crystallographic Data Centre
#                                CCDC 
#
#######################################################################
#
# If this CIF has been generated from an entry in the Cambridge 
# Structural Database, then it will include bibliographic, chemical, 
# crystal, experimental, refinement or atomic coordinate data resulting 
# from the CCDC's data processing and validation procedures.
#
#######################################################################

data_KOGZEM
_symmetry_cell_setting           orthorhombic
_symmetry_space_group_name_H-M   'C m c m'
_symmetry_Int_Tables_number      63
_space_group_name_Hall           '-C 2n 2'
loop_
_symmetry_equiv_pos_site_id
_symmetry_equiv_pos_as_xyz
1 x,y,z
2 1/2+x,1/2+y,z
3 -x,-y,1/2+z
4 -x,y,1/2-z
5 x,-y,-z
6 1/2-x,1/2-y,1/2+z
7 1/2-x,1/2+y,1/2-z
8 1/2+x,1/2-y,-z
9 -x,-y,-z
10 1/2-x,1/2-y,-z
11 x,y,1/2-z
12 x,-y,1/2+z
13 -x,y,z
14 1/2+x,1/2+y,1/2-z
15 1/2+x,1/2-y,1/2+z
16 1/2-x,1/2+y,z
_cell_length_a                   10.7037(10)
_cell_length_b                   15.0640(14)
_cell_length_c                   13.2866(16)
_cell_angle_alpha                90
_cell_angle_beta                 90
_cell_angle_gamma                90
_cell_volume                     2142.34
loop_
_atom_site_label
_atom_site_type_symbol
_atom_site_fract_x
_atom_site_fract_y
_atom_site_fract_z
Zn1 Zn 0.18927(3) 0.48146(2) 0.7500
K1 K 0.5000 0.40922(6) 0.61061(6)
O1 O 0.30916(18) 0.37461(14) 0.7500
O2 O 0.3255(2) 0.22729(15) 0.7500
O3 O 0.30656(14) 0.53474(11) 0.85824(16)
O4 O 0.32603(17) 0.63867(12) 0.97662(16)
N1 N 0.0625(2) 0.36594(14) 0.7500
N2 N 0.06248(17) 0.54773(10) 0.86053(14)
C1 C 0.1245(3) 0.28937(18) 0.7500
C2 C 0.0637(3) 0.20769(19) 0.7500
H1 H 0.1086 0.1548 0.7500
C3 C 0.2658(3) 0.2966(2) 0.7500
C4 C 0.1241(2) 0.60215(12) 0.92098(17)
C5 C 0.0632(2) 0.66419(14) 0.98204(17)
H2 H 0.1081 0.7041 1.0213
C6 C 0.2646(2) 0.59190(14) 0.91881(18)
Zn1L Zn -0.18927(3) 0.48146(2) 0.7500
K1_2 K -0.5000 0.40922(6) 0.61061(6)
K1J K 0.5000 0.40922(6) 0.88939(6)
K1K K 0.5000 0.59078(6) 1.11061(6)
K1J_2 K -0.5000 0.40922(6) 0.88939(6)
K1K_2 K -0.5000 0.59078(6) 1.11061(6)
K1H K 0.5000 0.59078(6) 0.38939(6)
K1H_2 K -0.5000 0.59078(6) 0.38939(6)
O1L O -0.30916(18) 0.37461(14) 0.7500
O1L_2 O 0.69084(18) 0.37461(14) 0.7500
O1_2 O -0.69084(18) 0.37461(14) 0.7500
O2L O -0.3255(2) 0.22729(15) 0.7500
O3L O -0.30656(14) 0.53474(11) 0.85824(16)
O3J O 0.30656(14) 0.53474(11) 0.64176(16)
O3C O -0.30656(14) 0.53474(11) 0.64176(16)
O3C_2 O 0.69344(14) 0.53474(11) 0.64176(16)
O3J_2 O -0.69344(14) 0.53474(11) 0.64176(16)
O4L O -0.32603(17) 0.63867(12) 0.97662(16)
O4J O 0.32603(17) 0.63867(12) 0.52338(16)
O4C O -0.32603(17) 0.63867(12) 0.52338(16)
O4K O 0.32603(17) 0.36133(12) 0.47662(16)
O4B O 0.67397(17) 0.36133(12) 0.47662(16)
O4K_2 O -0.67397(17) 0.36133(12) 0.47662(16)
O4B_2 O -0.32603(17) 0.36133(12) 0.47662(16)
N1L N -0.0625(2) 0.36594(14) 0.7500
N2L N -0.06248(17) 0.54773(10) 0.86053(14)
N2J N 0.06248(17) 0.54773(10) 0.63947(14)
N2C N -0.06248(17) 0.54773(10) 0.63947(14)
C1L C -0.1245(3) 0.28937(18) 0.7500
C2L C -0.0637(3) 0.20769(19) 0.7500
H1L H -0.1086 0.1548 0.7500
C3L C -0.2658(3) 0.2966(2) 0.7500
C4L C -0.1241(2) 0.60215(12) 0.92098(17)
C4J C 0.1241(2) 0.60215(12) 0.57902(17)
C4C C -0.1241(2) 0.60215(12) 0.57902(17)
C5L C -0.0632(2) 0.66419(14) 0.98204(17)
C5J C 0.0632(2) 0.66419(14) 0.51796(17)
C5C C -0.0632(2) 0.66419(14) 0.51796(17)
H2L H -0.1081 0.7041 1.0213
H2J H 0.1081 0.7041 0.4787
H2C H -0.1081 0.7041 0.4787
C6L C -0.2646(2) 0.59190(14) 0.91881(18)
C6J C 0.2646(2) 0.59190(14) 0.58119(18)
C6C C -0.2646(2) 0.59190(14) 0.58119(18)
loop_
_geom_bond_atom_site_label_1
_geom_bond_atom_site_label_2
_geom_bond_site_symmetry_1
_geom_bond_site_symmetry_2
Zn1 O1 1_555 1_555
K1 O1 1_555 1_555
O1 C3 1_555 1_555
O2 C3 1_555 1_555
O3 Zn1 1_555 1_555
O4 C6 1_555 1_555
N1 Zn1 1_555 1_555
N2 Zn1 1_555 1_555
C1 N1 1_555 1_555
C2 C1 1_555 1_555
H1 C2 1_555 1_555
C3 C1 1_555 1_555
C4 N2 1_555 1_555
C5 C4 1_555 1_555
H2 C5 1_555 1_555
C6 O3 1_555 1_555
Zn1L O1L 1_555 1_555
K1_2 O1L 1_555 1_555
K1J O1 1_555 1_555
K1K O4 1_555 1_555
K1J_2 O1L 1_555 1_555
K1K_2 O4L 1_555 1_555
K1H O4J 1_555 1_555
K1H_2 O4C 1_555 1_555
O1L C3L 1_555 1_555
O1L_2 K1 1_555 1_555
O1_2 K1_2 1_555 1_555
O2L C3L 1_555 1_555
O3L Zn1L 1_555 1_555
O3J Zn1 1_555 1_555
O3C Zn1L 1_555 1_555
O3C_2 K1 1_555 1_555
O3J_2 K1_2 1_555 1_555
O4L C6L 1_555 1_555
O4J C6J 1_555 1_555
O4C C6C 1_555 1_555
O4K K1 1_555 1_555
O4B K1 1_555 1_555
O4K_2 K1_2 1_555 1_555
O4B_2 K1_2 1_555 1_555
N1L N1 1_555 1_555
N2L N2 1_555 1_555
N2J Zn1 1_555 1_555
N2C Zn1L 1_555 1_555
C1L N1L 1_555 1_555
C2L C2 1_555 1_555
H1L C2L 1_555 1_555
C3L C1L 1_555 1_555
C4L N2L 1_555 1_555
C4J N2J 1_555 1_555
C4C N2C 1_555 1_555
C5L C5 1_555 1_555
C5J C4J 1_555 1_555
C5C C4C 1_555 1_555
H2L C5L 1_555 1_555
H2J C5J 1_555 1_555
H2C C5C 1_555 1_555
C6L O3L 1_555 1_555
C6J O3J 1_555 1_555
C6C O3C 1_555 1_555
K1 O3J 1_555 1_555
O3 K1J 1_555 1_555
C4 C6 1_555 1_555
Zn1L N1L 1_555 1_555
Zn1L N2L 1_555 1_555
K1_2 O3C 1_555 1_555
K1J O1L_2 1_555 1_555
K1J_2 O1_2 1_555 1_555
K1J_2 O3L 1_555 1_555
N2J N2C 1_555 1_555
C1L C2L 1_555 1_555
C4L C5L 1_555 1_555
C4L C6L 1_555 1_555
C4J C6J 1_555 1_555
C4C C6C 1_555 1_555
C5J C5C 1_555 1_555

#END
