
#######################################################################
#
#                 Cambridge Crystallographic Data Centre
#                                CCDC 
#
#######################################################################
#
# If this CIF has been generated from an entry in the Cambridge 
# Structural Database, then it will include bibliographic, chemical, 
# crystal, experimental, refinement or atomic coordinate data resulting 
# from the CCDC's data processing and validation procedures.
#
#######################################################################

data_KOHBAL
_symmetry_cell_setting           triclinic
_symmetry_space_group_name_H-M   'P -1'
_symmetry_Int_Tables_number      2
_space_group_name_Hall           '-P 1'
loop_
_symmetry_equiv_pos_site_id
_symmetry_equiv_pos_as_xyz
1 x,y,z
2 -x,-y,-z
_cell_length_a                   11.7254(12)
_cell_length_b                   12.6702(13)
_cell_length_c                   16.507(3)
_cell_angle_alpha                96.307(2)
_cell_angle_beta                 96.961(2)
_cell_angle_gamma                113.7600(10)
_cell_volume                     2193.68
loop_
_atom_site_label
_atom_site_type_symbol
_atom_site_fract_x
_atom_site_fract_y
_atom_site_fract_z
Co1 Co 0.14412(4) -0.00939(3) 0.12859(2)
Co2 Co 0.83121(4) 1.01599(3) 0.37603(3)
S1 S 0.26915(8) -0.26429(7) 0.29392(5)
S2 S 0.48225(8) 0.75031(7) 0.50973(6)
S3 S 0.52866(8) 0.27009(7) -0.01497(5)
S4 S 0.70740(8) 1.26616(7) 0.20538(5)
O1 O 0.14882(18) -0.44827(16) 0.17326(12)
O2 O 0.0913(2) -0.06818(19) 0.25448(15)
O3 O 0.24686(19) -0.08028(17) 0.20028(12)
O4 O 0.40770(19) 0.55246(17) 0.40398(13)
O5 O 0.8288(2) 0.94318(19) 0.49314(14)
O6 O 0.6580(2) 0.9558(2) 0.43969(15)
O7 O 0.59348(19) 0.46082(17) 0.09698(13)
O8 O 0.3988(3) 0.0673(3) 0.06812(18)
O9 O 0.2084(2) 0.05663(19) 0.02700(14)
O10 O 0.84453(18) 1.44580(16) 0.32562(12)
O11 O 0.7419(2) 1.08674(17) 0.29848(12)
O12 O 0.8649(2) 1.0495(2) 0.22183(16)
O13 O -0.0226(2) 0.0032(2) 0.10410(14)
H1 H -0.0574 0.0048 0.1462
H2 H -0.0712 -0.0336 0.0582
O14 O 1.0064(2) 1.0285(2) 0.37334(14)
H3 H 1.0515 1.0230 0.4157
H4 H 1.0251 1.0140 0.3265
N1 N -0.0672(2) -0.8153(2) -0.04774(15)
N2 N -0.0450(2) -0.4589(2) 0.14456(16)
N3 N 0.0260(2) -0.3626(2) 0.20868(16)
N4 N 0.5829(3) 0.5320(2) 0.39200(18)
N5 N 0.6154(3) 0.6378(2) 0.44631(18)
N6 N 0.2427(2) 0.1614(2) 0.20763(15)
N7 N 0.4123(3) 0.4614(2) 0.11888(18)
N8 N 0.3860(3) 0.3604(2) 0.06093(18)
N9 N 0.7373(2) 0.8411(2) 0.30113(15)
N10 N 1.0336(2) 1.4447(2) 0.34607(16)
N11 N 0.9544(2) 1.3505(2) 0.28270(16)
N12 N 1.0871(2) 1.8096(2) 0.54418(16)
C1 C 0.0003(3) -0.6097(2) 0.06539(18)
C2 C 0.0875(3) -0.6535(3) 0.0524(2)
H5 H 0.1704 -0.6154 0.0814
C3 C 0.0502(3) -0.7554(3) -0.0046(2)
H6 H 0.1105 -0.7837 -0.0132
C4 C -0.1499(3) -0.7697(3) -0.03490(19)
H7 H -0.2321 -0.8089 -0.0648
C5 C -0.1212(3) -0.6695(3) 0.01933(18)
H8 H -0.1824 -0.6415 0.0254
C6 C 0.0296(3) -0.5057(2) 0.12653(18)
C7 C 0.1373(3) -0.3606(2) 0.22290(18)
C8 C 0.2072(3) -0.1599(3) 0.32433(19)
H9 H 0.1293 -0.2000 0.3445
H10 H 0.2674 -0.1013 0.3699
C9 C 0.1805(3) -0.0984(2) 0.25534(18)
C10 C 0.3834(3) 0.3752(2) 0.31393(18)
C11 C 0.4413(3) 0.3071(3) 0.2827(2)
H11 H 0.5285 0.3323 0.2967
C12 C 0.3688(3) 0.2026(3) 0.2312(2)
H12 H 0.4089 0.1577 0.2114
C13 C 0.1880(3) 0.2279(3) 0.2383(2)
H13 H 0.1006 0.2008 0.2233
C14 C 0.2536(3) 0.3338(3) 0.2908(2)
H14 H 0.2113 0.3768 0.3104
C15 C 0.4627(3) 0.4861(2) 0.36915(19)
C16 C 0.5097(3) 0.6442(2) 0.45079(19)
C17 C 0.6454(3) 0.8479(2) 0.55155(18)
H15 H 0.6482 0.9005 0.5999
H16 H 0.6898 0.8021 0.5696
C18 C 0.7141(3) 0.9201(2) 0.49090(18)
C19 C 0.6060(3) 0.6270(2) 0.19384(18)
C20 C 0.7363(3) 0.6730(3) 0.2185(2)
H17 H 0.7819 0.6331 0.1994
C21 C 0.7972(3) 0.7788(3) 0.2717(2)
H18 H 0.8846 0.8087 0.2881
C22 C 0.6112(3) 0.7958(3) 0.27665(19)
H19 H 0.5679 0.8377 0.2963
C23 C 0.5431(3) 0.6912(3) 0.2244(2)
H20 H 0.4556 0.6631 0.2093
C24 C 0.5330(3) 0.5164(2) 0.13741(19)
C25 C 0.4951(3) 0.3651(3) 0.05062(18)
C26 C 0.3687(3) 0.1585(2) -0.04591(18)
H21 H 0.3126 0.1950 -0.0610
H22 H 0.3643 0.1055 -0.0945
C27 C 0.3232(3) 0.0889(3) 0.0218(2)
C28 C 1.0044(3) 1.6020(2) 0.43106(18)
C29 C 1.1269(3) 1.6545(3) 0.47716(19)
H23 H 1.1834 1.6208 0.4708
C30 C 1.1628(3) 1.7561(3) 0.53178(19)
H24 H 1.2449 1.7902 0.5622
C31 C 0.9690(3) 1.7565(3) 0.5011(2)
H25 H 0.9139 1.7911 0.5096
C32 C 0.9236(3) 1.6537(3) 0.4449(2)
H26 H 0.8401 1.6198 0.4169
C33 C 0.9661(3) 1.4974(2) 0.36913(18)
C34 C 0.8461(3) 1.3552(2) 0.27308(18)
C35 C 0.7542(3) 1.1540(3) 0.16856(19)
H27 H 0.8262 1.1886 0.1415
H28 H 0.6853 1.0958 0.1271
C36 C 0.7894(3) 1.0926(2) 0.23458(19)
Co1A Co -0.14412(4) -0.99061(3) -0.12859(2)
Co2A Co 1.16879(4) 1.98401(3) 0.62397(3)
N1A N 0.0672(2) -0.1847(2) 0.04774(15)
N12A N 0.9129(2) 1.1904(2) 0.45582(16)
O15 O 0.5007(2) 0.0363(3) 0.35367(17)
H29 H 0.5371 0.0092 0.3880
H30 H 0.5330 0.0535 0.3109
O16 O 0.4753(2) 0.9294(3) 0.15526(17)
H31 H 0.4648 0.9672 0.1177
H32 H 0.4330 0.9258 0.1940
loop_
_geom_bond_atom_site_label_1
_geom_bond_atom_site_label_2
_geom_bond_site_symmetry_1
_geom_bond_site_symmetry_2
Co1 O2 1_555 1_555
Co2 O5 1_555 1_555
S1 C7 1_555 1_555
S2 C16 1_555 1_555
S3 C25 1_555 1_555
S4 C34 1_555 1_555
O1 C6 1_555 1_555
O2 C9 1_555 1_555
O3 Co1 1_555 1_555
O4 C15 1_555 1_555
O5 C18 1_555 1_555
O6 Co2 1_555 1_555
O7 C24 1_555 1_555
O8 C27 1_555 1_555
O9 Co1 1_555 1_555
O10 C33 1_555 1_555
O11 Co2 1_555 1_555
O12 C36 1_555 1_555
O13 Co1 1_555 1_555
H1 O13 1_555 1_555
H2 O13 1_555 1_555
O14 Co2 1_555 1_555
H3 O14 1_555 1_555
H4 O14 1_555 1_555
N1 C3 1_555 1_555
N2 N3 1_555 1_555
N3 C7 1_555 1_555
N4 N5 1_555 1_555
N5 C16 1_555 1_555
N6 Co1 1_555 1_555
N7 N8 1_555 1_555
N8 C25 1_555 1_555
N9 Co2 1_555 1_555
N10 N11 1_555 1_555
N11 C34 1_555 1_555
N12 C30 1_555 1_555
C1 C2 1_555 1_555
C2 H5 1_555 1_555
C3 C2 1_555 1_555
H6 C3 1_555 1_555
C4 N1 1_555 1_555
H7 C4 1_555 1_555
C5 C1 1_555 1_555
H8 C5 1_555 1_555
C6 N2 1_555 1_555
C7 O1 1_555 1_555
C8 S1 1_555 1_555
H9 C8 1_555 1_555
H10 C8 1_555 1_555
C9 O3 1_555 1_555
C10 C11 1_555 1_555
C11 H11 1_555 1_555
C12 N6 1_555 1_555
H12 C12 1_555 1_555
C13 N6 1_555 1_555
H13 C13 1_555 1_555
C14 C10 1_555 1_555
H14 C14 1_555 1_555
C15 N4 1_555 1_555
C16 O4 1_555 1_555
C17 S2 1_555 1_555
H15 C17 1_555 1_555
H16 C17 1_555 1_555
C18 O6 1_555 1_555
C19 C20 1_555 1_555
C20 H17 1_555 1_555
C21 N9 1_555 1_555
H18 C21 1_555 1_555
C22 N9 1_555 1_555
H19 C22 1_555 1_555
C23 C19 1_555 1_555
H20 C23 1_555 1_555
C24 N7 1_555 1_555
C25 O7 1_555 1_555
C26 S3 1_555 1_555
H21 C26 1_555 1_555
H22 C26 1_555 1_555
C27 O9 1_555 1_555
C28 C29 1_555 1_555
C29 H23 1_555 1_555
C30 C29 1_555 1_555
H24 C30 1_555 1_555
C31 N12 1_555 1_555
H25 C31 1_555 1_555
C32 C28 1_555 1_555
H26 C32 1_555 1_555
C33 N10 1_555 1_555
C34 O10 1_555 1_555
C35 S4 1_555 1_555
H27 C35 1_555 1_555
H28 C35 1_555 1_555
C36 O11 1_555 1_555
O15 H29 1_555 1_555
H30 O15 1_555 1_555
O16 H31 1_555 1_555
H32 O16 1_555 1_555
Co1A N1 1_555 1_555
Co2A N12 1_555 1_555
N1A Co1 1_555 1_555
N12A Co2 1_555 1_555
C1 C6 1_555 1_555
C4 C5 1_555 1_555
C8 C9 1_555 1_555
C10 C15 1_555 1_555
C11 C12 1_555 1_555
C13 C14 1_555 1_555
C17 C18 1_555 1_555
C19 C24 1_555 1_555
C20 C21 1_555 1_555
C22 C23 1_555 1_555
C26 C27 1_555 1_555
C28 C33 1_555 1_555
C31 C32 1_555 1_555
C35 C36 1_555 1_555

#END
