
#######################################################################
#
#                 Cambridge Crystallographic Data Centre
#                                CCDC 
#
#######################################################################
#
# If this CIF has been generated from an entry in the Cambridge 
# Structural Database, then it will include bibliographic, chemical, 
# crystal, experimental, refinement or atomic coordinate data resulting 
# from the CCDC's data processing and validation procedures.
#
#######################################################################

data_KOHBOZ
_symmetry_cell_setting           orthorhombic
_symmetry_space_group_name_H-M   'P 21 21 21'
_symmetry_Int_Tables_number      19
_space_group_name_Hall           'P 2ac 2ab'
loop_
_symmetry_equiv_pos_site_id
_symmetry_equiv_pos_as_xyz
1 x,y,z
2 1/2-x,-y,1/2+z
3 -x,1/2+y,1/2-z
4 1/2+x,1/2-y,-z
_cell_length_a                   7.4910(7)
_cell_length_b                   14.3672(13)
_cell_length_c                   22.775(2)
_cell_angle_alpha                90
_cell_angle_beta                 90
_cell_angle_gamma                90
_cell_volume                     2451.15
loop_
_atom_site_label
_atom_site_type_symbol
_atom_site_fract_x
_atom_site_fract_y
_atom_site_fract_z
Cu1 Cu 0.49767(5) 0.50238(3) 0.083187(14)
S1 S -0.04172(11) 0.44365(6) 0.25232(3)
S2 S 1.05623(13) 0.55606(7) -0.07864(4)
O1 O 0.2610(3) 0.50583(18) 0.11859(9)
O2 O 0.2949(4) 0.39875(19) 0.18749(13)
O3 O 0.0452(3) 0.53335(15) 0.34846(8)
O4 O 0.7170(4) 0.5993(2) -0.01632(14)
O5 O 0.7421(3) 0.48808(19) 0.05153(9)
O6 O 0.9654(3) 0.47082(16) -0.17754(9)
O7 O 0.3761(4) 0.6199(2) 0.02146(13)
H1 H 0.3331 0.6605 0.0447
H2 H 0.4617 0.6370 -0.0005
N1 N 0.1448(4) 0.6055(2) 0.26969(11)
N2 N 0.1887(4) 0.6587(2) 0.31973(12)
N3 N 0.0850(4) 0.59656(18) 0.52591(10)
N4 N 0.8507(5) 0.4022(2) -0.09931(12)
N5 N 0.8045(5) 0.3509(2) -0.14926(13)
N6 N 0.9086(4) 0.40785(19) -0.35574(11)
C1 C 0.2078(4) 0.4572(2) 0.16137(13)
C2 C 0.0152(4) 0.4774(2) 0.17833(12)
H3 H -0.0632 0.4450 0.1513
H4 H -0.0066 0.5436 0.1739
C3 C 0.0605(4) 0.5343(2) 0.28870(13)
C4 C 0.1263(4) 0.6147(2) 0.36401(14)
C5 C 0.1348(4) 0.6400(2) 0.42627(13)
C6 C 0.0743(4) 0.5777(2) 0.46837(12)
H5 H 0.0250 0.5215 0.4563
C7 C 0.1537(4) 0.6775(2) 0.54302(13)
H6 H 0.1615 0.6902 0.5830
C8 C 0.2132(5) 0.7430(3) 0.50397(16)
H7 H 0.2596 0.7991 0.5175
C9 C 0.2042(5) 0.7251(2) 0.44400(15)
H8 H 0.2434 0.7687 0.4167
C10 C 0.8002(5) 0.5380(3) 0.01015(14)
C11 C 0.9929(4) 0.5161(3) -0.00639(13)
H9 H 1.0105 0.4492 -0.0044
H10 H 1.0715 0.5445 0.0223
C12 C 0.9458(5) 0.4703(2) -0.11804(13)
C13 C 0.8728(4) 0.3933(2) -0.19347(13)
C14 C 0.8589(4) 0.3680(2) -0.25494(13)
C15 C 0.9238(4) 0.4269(2) -0.29820(12)
H11 H 0.9800 0.4818 -0.2869
C16 C 0.8260(5) 0.3288(3) -0.37130(15)
H12 H 0.8128 0.3155 -0.4110
C17 C 0.7600(6) 0.2667(3) -0.33066(17)
H13 H 0.7043 0.2123 -0.3429
C18 C 0.7772(5) 0.2860(3) -0.27170(16)
H14 H 0.7346 0.2445 -0.2437
Cu1A Cu 0.00233(5) 0.49762(3) 0.583187(14)
Cu1A_2 Cu 1.00233(5) 0.49762(3) -0.416813(14)
N3A N 0.4150(4) 0.40344(18) 0.02591(10)
N6A N 0.5914(4) 0.59215(19) 0.14426(11)
O8 O 0.6429(4) 0.3464(2) 0.17148(15)
H15 H 0.5376 0.3568 0.1838
H16 H 0.6877 0.2934 0.1792
O9 O 0.7166(13) 0.7478(4) 0.9143(2)
H17 H 0.6532 0.7354 0.8843
H18 H 0.8288 0.7408 0.9109
O10? O 0.7314(11) 0.7429(6) 0.8476(5)
H19? H 0.7373 0.7616 0.8123
H20? H 0.6574 0.6995 0.8551
loop_
_geom_bond_atom_site_label_1
_geom_bond_atom_site_label_2
_geom_bond_site_symmetry_1
_geom_bond_site_symmetry_2
Cu1 O1 1_555 1_555
S1 C2 1_555 1_555
S2 C11 1_555 1_555
O1 C1 1_555 1_555
O2 C1 1_555 1_555
O3 C3 1_555 1_555
O4 C10 1_555 1_555
O5 Cu1 1_555 1_555
O6 C12 1_555 1_555
O7 Cu1 1_555 1_555
H1 O7 1_555 1_555
H2 O7 1_555 1_555
N1 N2 1_555 1_555
N2 C4 1_555 1_555
N3 C6 1_555 1_555
N4 N5 1_555 1_555
N5 C13 1_555 1_555
N6 C15 1_555 1_555
C1 C2 1_555 1_555
C2 H3 1_555 1_555
H4 C2 1_555 1_555
C3 S1 1_555 1_555
C4 O3 1_555 1_555
C5 C4 1_555 1_555
C6 C5 1_555 1_555
H5 C6 1_555 1_555
C7 N3 1_555 1_555
H6 C7 1_555 1_555
C8 C7 1_555 1_555
H7 C8 1_555 1_555
C9 C5 1_555 1_555
H8 C9 1_555 1_555
C10 O5 1_555 1_555
C11 C10 1_555 1_555
H9 C11 1_555 1_555
H10 C11 1_555 1_555
C12 S2 1_555 1_555
C13 O6 1_555 1_555
C14 C13 1_555 1_555
C15 C14 1_555 1_555
H11 C15 1_555 1_555
C16 N6 1_555 1_555
H12 C16 1_555 1_555
C17 C16 1_555 1_555
H13 C17 1_555 1_555
C18 C14 1_555 1_555
H14 C18 1_555 1_555
O8 H15 1_555 1_555
H16 O8 1_555 1_555
O9 H17 1_555 1_555
H18 O9 1_555 1_555
Cu1A N3 1_555 1_555
Cu1A_2 N6 1_555 1_555
N3A Cu1 1_555 1_555
N6A Cu1 1_555 1_555
N1 C3 1_555 1_555
N4 C12 1_555 1_555
C8 C9 1_555 1_555
C17 C18 1_555 1_555

#END
