
#######################################################################
#
#                 Cambridge Crystallographic Data Centre
#                                CCDC 
#
#######################################################################
#
# If this CIF has been generated from an entry in the Cambridge 
# Structural Database, then it will include bibliographic, chemical, 
# crystal, experimental, refinement or atomic coordinate data resulting 
# from the CCDC's data processing and validation procedures.
#
#######################################################################

data_KOHPAZ
_symmetry_cell_setting           monoclinic
_symmetry_space_group_name_H-M   'P 21/n'
_symmetry_Int_Tables_number      14
_space_group_name_Hall           '-P 2yn'
loop_
_symmetry_equiv_pos_site_id
_symmetry_equiv_pos_as_xyz
1 x,y,z
2 1/2-x,1/2+y,1/2-z
3 -x,-y,-z
4 1/2+x,1/2-y,1/2+z
_cell_length_a                   13.1282(3)
_cell_length_b                   8.5385(2)
_cell_length_c                   17.7763(4)
_cell_angle_alpha                90
_cell_angle_beta                 91.9390(10)
_cell_angle_gamma                90
_cell_volume                     1991.5
loop_
_atom_site_label
_atom_site_type_symbol
_atom_site_fract_x
_atom_site_fract_y
_atom_site_fract_z
Zn1 Zn 0.371219(19) 0.75494(3) 0.184658(14)
O1 O 0.27477(12) 0.83309(19) 0.26127(9)
O2 O 0.22267(12) 1.02527(19) 0.33705(9)
O3 O 0.5857(2) 1.2330(2) 0.30247(16)
O4 O 0.48847(16) 1.3627(2) 0.38409(13)
O5 O 0.65454(18) 0.8485(3) 0.44458(14)
O6 O 0.61199(14) 1.0914(2) 0.46802(10)
O7 O 0.45433(14) 0.63755(18) 0.26140(10)
O8 O 0.57475(16) 0.63502(19) 0.35218(12)
O9 O 0.46500(11) 0.95494(16) 0.24655(8)
N1 N 0.30817(15) 0.8854(2) 0.09982(10)
N2 N 0.47211(15) 0.7019(3) 0.10233(12)
C1 C 0.28731(15) 0.9625(2) 0.29589(11)
C2 C 0.39002(16) 1.0507(2) 0.28438(11)
H1 H 0.3761 1.1445 0.2540
C3 C 0.44339(16) 1.1007(2) 0.35951(12)
H2 H 0.3939 1.1262 0.3977
C4 C 0.5150(2) 1.2387(2) 0.34518(16)
C5 C 0.51851(18) 0.7049(3) 0.30368(13)
C6 C 0.53188(16) 0.8819(2) 0.30176(11)
H3 H 0.6028 0.9076 0.2915
C7 C 0.50318(16) 0.9520(2) 0.37981(11)
H4 H 0.4561 0.8788 0.4030
C8 C 0.59487(18) 0.9725(3) 0.43408(12)
C9 C 0.5559(2) 0.6123(4) 0.1066(2)
H5 H 0.5740 0.5633 0.1518
C10 C 0.6193(2) 0.5901(4) 0.0417(3)
H6 H 0.6780 0.5293 0.0459
C11 C 0.5919(3) 0.6593(5) -0.0257(2)
H7 H 0.6313 0.6440 -0.0676
C12 C 0.5052(3) 0.7522(4) -0.0310(2)
C13 C 0.4678(4) 0.8312(5) -0.09943(17)
H8 H 0.5027 0.8177 -0.1436
C14 C 0.3850(4) 0.9221(5) -0.10043(18)
H9 H 0.3643 0.9702 -0.1453
C15 C 0.3263(3) 0.9486(4) -0.03402(15)
C16 C 0.2407(3) 1.0475(4) -0.0293(2)
H10 H 0.2172 1.1018 -0.0718
C17 C 0.1919(3) 1.0643(4) 0.0371(2)
H11 H 0.1359 1.1305 0.0398
C18 C 0.2267(2) 0.9813(3) 0.10125(17)
H12 H 0.1925 0.9929 0.1459
C19 C 0.3584(2) 0.8688(3) 0.03351(13)
C20 C 0.4471(2) 0.7715(3) 0.03530(15)
H13 H 0.518(3) 1.434(5) 0.370(2)
H14 H 0.642(4) 0.792(6) 0.423(3)
Zn1A Zn 0.128781(19) 1.25494(3) 0.315342(14)
O2A O 0.27733(12) 0.52527(19) 0.16295(9)
O10 O 0.7254(4) 0.4380(10) 0.2333(4)
loop_
_geom_bond_atom_site_label_1
_geom_bond_atom_site_label_2
_geom_bond_site_symmetry_1
_geom_bond_site_symmetry_2
Zn1 O1 1_555 1_555
O1 C1 1_555 1_555
O2 C1 1_555 1_555
O3 C4 1_555 1_555
O4 C4 1_555 1_555
O5 C8 1_555 1_555
O6 C8 1_555 1_555
O7 Zn1 1_555 1_555
O8 C5 1_555 1_555
O9 Zn1 1_555 1_555
N1 Zn1 1_555 1_555
N2 Zn1 1_555 1_555
C1 C2 1_555 1_555
C2 O9 1_555 1_555
H1 C2 1_555 1_555
C3 C2 1_555 1_555
H2 C3 1_555 1_555
C4 C3 1_555 1_555
C5 O7 1_555 1_555
C6 O9 1_555 1_555
H3 C6 1_555 1_555
C7 C3 1_555 1_555
H4 C7 1_555 1_555
C8 C7 1_555 1_555
C9 N2 1_555 1_555
H5 C9 1_555 1_555
C10 C9 1_555 1_555
H6 C10 1_555 1_555
C11 C10 1_555 1_555
H7 C11 1_555 1_555
C12 C11 1_555 1_555
C13 C12 1_555 1_555
H8 C13 1_555 1_555
C14 C13 1_555 1_555
H9 C14 1_555 1_555
C15 C14 1_555 1_555
C16 C15 1_555 1_555
H10 C16 1_555 1_555
C17 C16 1_555 1_555
H11 C17 1_555 1_555
C18 N1 1_555 1_555
H12 C18 1_555 1_555
C19 N1 1_555 1_555
C20 N2 1_555 1_555
H13 O4 1_555 1_555
H14 O5 1_555 1_555
Zn1A O2 1_555 1_555
O2A Zn1 1_555 1_555
C5 C6 1_555 1_555
C6 C7 1_555 1_555
C12 C20 1_555 1_555
C15 C19 1_555 1_555
C17 C18 1_555 1_555
C19 C20 1_555 1_555

#END
