
#######################################################################
#
#                 Cambridge Crystallographic Data Centre
#                                CCDC 
#
#######################################################################
#
# If this CIF has been generated from an entry in the Cambridge 
# Structural Database, then it will include bibliographic, chemical, 
# crystal, experimental, refinement or atomic coordinate data resulting 
# from the CCDC's data processing and validation procedures.
#
#######################################################################

data_KOHRUW
_symmetry_cell_setting           monoclinic
_symmetry_space_group_name_H-M   'C 2/c'
_symmetry_Int_Tables_number      15
_space_group_name_Hall           '-C 2yn'
loop_
_symmetry_equiv_pos_site_id
_symmetry_equiv_pos_as_xyz
1 x,y,z
2 -x,y,1/2-z
3 1/2+x,1/2+y,z
4 1/2-x,1/2+y,1/2-z
5 -x,-y,-z
6 x,-y,1/2+z
7 1/2-x,1/2-y,-z
8 1/2+x,1/2-y,1/2+z
_cell_length_a                   24.011(2)
_cell_length_b                   13.1094(8)
_cell_length_c                   20.548(2)
_cell_angle_alpha                90
_cell_angle_beta                 124.399(15)
_cell_angle_gamma                90
_cell_volume                     5336.81
loop_
_atom_site_label
_atom_site_type_symbol
_atom_site_fract_x
_atom_site_fract_y
_atom_site_fract_z
Zn1 Zn 0.0000 0.34597(10) 0.2500
Zn2 Zn 0.68117(5) 0.86733(7) 0.90358(6)
C1 C 0.6913(3) 0.5489(5) 0.7796(4)
H1 H 0.6459 0.5547 0.7606
C2 C 0.7362(3) 0.6216(5) 0.8304(4)
C3 C 0.8039(3) 0.6129(5) 0.8608(4)
H2 H 0.8343 0.6619 0.8955
C4 C 0.8264(3) 0.5303(5) 0.8393(4)
C5 C 0.7806(3) 0.4593(5) 0.7879(4)
H3 H 0.7956 0.4037 0.7737
C6 C 0.7123(3) 0.4684(5) 0.7566(4)
C7 C 0.6624(3) 0.3930(5) 0.6973(4)
H4 H 0.6861 0.3363 0.6931
H5 H 0.6348 0.3666 0.7143
C8 C 0.6236(3) 0.5514(5) 0.5251(4)
H6 H 0.6553 0.5778 0.5142
H7 H 0.5869 0.5190 0.4774
C9 C 0.6585(3) 0.4732(5) 0.5894(4)
H8 H 0.6677 0.4132 0.5693
H9 H 0.7013 0.5005 0.6324
C10 C 0.5631(3) 0.3766(5) 0.5639(4)
H10 H 0.5815 0.3135 0.5590
H11 H 0.5375 0.4090 0.5124
C11 C 0.5160(3) 0.3520(6) 0.5881(4)
H12 H 0.5041 0.4149 0.6022
H13 H 0.5397 0.3093 0.6348
C12 C 0.4521(3) 0.2984(6) 0.5255(4)
H14 H 0.4641 0.2387 0.5082
H15 H 0.4289 0.2750 0.5490
C13 C 0.3502(3) 0.2964(5) 0.3884(4)
H16 H 0.3251 0.3375 0.3409
H17 H 0.3723 0.2425 0.3786
C14 C 0.3013(3) 0.2485(5) 0.4022(4)
C15 C 0.3186(3) 0.1633(5) 0.4492(3)
H18 H 0.3627 0.1392 0.4764
C16 C 0.2724(3) 0.1129(5) 0.4572(3)
C17 C 0.2061(3) 0.1477(5) 0.4154(4)
H19 H 0.1742 0.1132 0.4193
C18 C 0.1876(3) 0.2324(5) 0.3688(4)
C19 C 0.2357(3) 0.2829(5) 0.3631(4)
H20 H 0.2233 0.3413 0.3321
C20 C 0.1164(4) 0.2685(7) 0.3241(4)
C21 C 0.2942(3) 0.0227(5) 0.5098(4)
C22 C 0.7070(4) 0.7128(7) 0.8461(5)
C23 C 0.9001(4) 0.5219(7) 0.8683(5)
N1 N 0.6186(2) 0.4435(4) 0.6192(3)
N2 N 0.4038(2) 0.3623(4) 0.4543(3)
O1 O 0.7451(3) 0.7647(4) 0.9049(4)
O2 O 0.6493(6) 0.7437(9) 0.7901(7)
O3 O 0.9395(3) 0.5885(5) 0.9110(4)
O4 O 0.9149(2) 0.4473(6) 0.8441(3)
H21 H 0.9552 0.4491 0.8618
O5 O 0.1019(2) 0.3500(5) 0.2859(3)
O6 O 0.0732(3) 0.2208(5) 0.3252(4)
O7 O 0.3554(2) 0.0037(4) 0.5544(3)
O8 O 0.2512(2) -0.0328(4) 0.5086(3)
O9 O 0.0215(3) 0.4237(7) 0.3456(5)
H22 H 0.061(2) 0.436(11) 0.392(3)
H23 H -0.009(4) 0.413(8) 0.358(5)
O10 O 0.6497(4) 0.9579(5) 0.8119(3)
H24 H 0.643(5) 1.0259(12) 0.807(3)
H25 H 0.622(4) 0.928(2) 0.7644(5)
O11 O 0.6363(5) 0.7850(5) 0.9408(7)
H26 H 0.594(3) 0.803(6) 0.925(6)
H27 H 0.636(6) 0.7172(10) 0.935(7)
C1D C 0.3087(3) 0.4511(5) 0.2204(4)
H1D H 0.3541 0.4453 0.2394
C2D C 0.2638(3) 0.3784(5) 0.1696(4)
C3D C 0.1961(3) 0.3871(5) 0.1392(4)
H2D H 0.1657 0.3381 0.1045
C4D C 0.1736(3) 0.4697(5) 0.1607(4)
C5D C 0.2194(3) 0.5407(5) 0.2121(4)
H3D H 0.2044 0.5963 0.2263
C6D C 0.2877(3) 0.5316(5) 0.2434(4)
C7D C 0.3376(3) 0.6070(5) 0.3027(4)
H4D H 0.3139 0.6637 0.3069
H5D H 0.3652 0.6334 0.2857
C8D C 0.3764(3) 0.4486(5) 0.4749(4)
H6D H 0.3447 0.4222 0.4858
H7D H 0.4131 0.4810 0.5226
C9D C 0.3415(3) 0.5268(5) 0.4106(4)
H8D H 0.3323 0.5868 0.4307
H9D H 0.2987 0.4995 0.3676
C10D C 0.4369(3) 0.6234(5) 0.4361(4)
H10D H 0.4185 0.6865 0.4410
H11D H 0.4625 0.5910 0.4876
C11D C 0.4840(3) 0.6480(6) 0.4119(4)
H12D H 0.4959 0.5851 0.3978
H13D H 0.4603 0.6907 0.3652
C12D C 0.5479(3) 0.7016(6) 0.4745(4)
H14D H 0.5359 0.7613 0.4918
H15D H 0.5711 0.7250 0.4510
C13D C 0.6498(3) 0.7036(5) 0.6116(4)
H16D H 0.6749 0.6625 0.6591
H17D H 0.6277 0.7575 0.6214
C14D C 0.6987(3) 0.7515(5) 0.5978(4)
C15D C 0.6814(3) 0.8367(5) 0.5508(3)
H18D H 0.6373 0.8608 0.5236
C16D C 0.7276(3) 0.8871(5) 0.5428(3)
C17D C 0.7939(3) 0.8523(5) 0.5846(4)
H19D H 0.8258 0.8868 0.5807
C18D C 0.8124(3) 0.7676(5) 0.6312(4)
C19D C 0.7643(3) 0.7171(5) 0.6369(4)
H20D H 0.7767 0.6587 0.6679
C20D C 0.8836(4) 0.7315(7) 0.6759(4)
C21D C 0.7058(3) 0.9773(5) 0.4902(4)
C22D C 0.2930(4) 0.2872(7) 0.1539(5)
C23D C 0.0999(4) 0.4781(7) 0.1317(5)
N1D N 0.3814(2) 0.5565(4) 0.3808(3)
N2D N 0.5962(2) 0.6377(4) 0.5457(3)
O1D O 0.2549(3) 0.2353(4) 0.0951(4)
O2D O 0.3507(6) 0.2563(9) 0.2099(7)
O3D O 0.0605(3) 0.4115(5) 0.0890(4)
O4D O 0.0851(2) 0.5527(6) 0.1559(3)
H21D H 0.0448 0.5509 0.1382
O5D O 0.8981(2) 0.6500(5) 0.7141(3)
O6D O 0.9268(3) 0.7792(5) 0.6748(4)
O7D O 0.6446(2) 0.9963(4) 0.4456(3)
O8D O 0.7488(2) 1.0328(4) 0.4914(3)
O9A O -0.0215(3) 0.4237(7) 0.1544(5)
H22A H -0.061(2) 0.436(11) 0.108(3)
H23A H 0.009(4) 0.413(8) 0.142(5)
Zn2A Zn 0.31883(5) -0.13267(7) 0.59642(6)
O10A O 0.3503(4) -0.0421(5) 0.6881(3)
H24A H 0.357(5) 0.0259(12) 0.693(3)
H25A H 0.378(4) -0.072(2) 0.7356(5)
O11A O 0.3637(5) -0.2150(5) 0.5592(7)
H26A H 0.406(3) -0.197(6) 0.575(6)
H27A H 0.364(6) -0.2828(10) 0.565(7)
Zn1D Zn 1.0000 0.65403(10) 0.7500
Zn2D Zn 0.31883(5) 0.13267(7) 0.09642(6)
Zn2E Zn 0.68117(5) 1.13267(7) 0.40358(6)
O1A O 0.2549(3) -0.2353(4) 0.5951(4)
O2A O 0.3507(6) -0.2563(9) 0.7099(7)
O5A O -0.1019(2) 0.3500(5) 0.2141(3)
O6A O -0.0732(3) 0.2208(5) 0.1748(4)
O7A O 0.6446(2) 1.0037(4) 0.9456(3)
O8A O 0.7488(2) 0.9672(4) 0.9914(3)
O13 O 0.6148(7) 0.5872(10) 0.8932(8)
O14 O 0.5673(12) 0.5758(18) 0.8582(14)
O15 O 0.5211(11) 0.4807(18) 0.7509(16)
O16 O 0.4654(3) 0.3400(6) 0.3675(4)
H28 H 0.466(3) 0.407(2) 0.359(5)
H29 H 0.505(2) 0.326(4) 0.412(4)
O17 O 1.0329(3) 0.3505(5) 0.9463(4)
H30 H 0.9923(7) 0.322(2) 0.926(3)
H31 H 1.046(4) 0.375(7) 0.994(3)
O12? O 0.6444(8) 0.7187(12) 0.8145(10)
loop_
_geom_bond_atom_site_label_1
_geom_bond_atom_site_label_2
_geom_bond_site_symmetry_1
_geom_bond_site_symmetry_2
Zn1 O5 1_555 1_555
Zn2 O1 1_555 1_555
C1 H1 1_555 1_555
C2 C1 1_555 1_555
C3 C2 1_555 1_555
H2 C3 1_555 1_555
C4 C3 1_555 1_555
C5 C4 1_555 1_555
H3 C5 1_555 1_555
C6 C1 1_555 1_555
C7 C6 1_555 1_555
H4 C7 1_555 1_555
H5 C7 1_555 1_555
C8 H6 1_555 1_555
H7 C8 1_555 1_555
C9 C8 1_555 1_555
H8 C9 1_555 1_555
H9 C9 1_555 1_555
C10 H10 1_555 1_555
H11 C10 1_555 1_555
C11 C10 1_555 1_555
H12 C11 1_555 1_555
H13 C11 1_555 1_555
C12 C11 1_555 1_555
H14 C12 1_555 1_555
H15 C12 1_555 1_555
C13 H16 1_555 1_555
H17 C13 1_555 1_555
C14 C13 1_555 1_555
C15 C14 1_555 1_555
H18 C15 1_555 1_555
C16 C15 1_555 1_555
C17 C16 1_555 1_555
H19 C17 1_555 1_555
C18 C17 1_555 1_555
C19 C14 1_555 1_555
H20 C19 1_555 1_555
C20 C18 1_555 1_555
C21 C16 1_555 1_555
C22 C2 1_555 1_555
C23 C4 1_555 1_555
N1 C7 1_555 1_555
N2 C12 1_555 1_555
O1 C22 1_555 1_555
O2 Zn2 1_555 1_555
O3 C23 1_555 1_555
O4 C23 1_555 1_555
H21 O4 1_555 1_555
O5 C20 1_555 1_555
O6 Zn1 1_555 1_555
O7 C21 1_555 1_555
O8 C21 1_555 1_555
O9 Zn1 1_555 1_555
H22 O9 1_555 1_555
H23 O9 1_555 1_555
O10 Zn2 1_555 1_555
H24 O10 1_555 1_555
H25 O10 1_555 1_555
O11 Zn2 1_555 1_555
H26 O11 1_555 1_555
H27 O11 1_555 1_555
O16 H28 1_555 1_555
H29 O16 1_555 1_555
O17 H30 1_555 1_555
H31 O17 1_555 1_555
C1D H1D 1_555 1_555
C2D C1D 1_555 1_555
C3D C2D 1_555 1_555
H2D C3D 1_555 1_555
C4D C3D 1_555 1_555
C5D C4D 1_555 1_555
H3D C5D 1_555 1_555
C6D C1D 1_555 1_555
C7D C6D 1_555 1_555
H4D C7D 1_555 1_555
H5D C7D 1_555 1_555
C8D N2 1_555 1_555
H6D C8D 1_555 1_555
H7D C8D 1_555 1_555
C9D C8D 1_555 1_555
H8D C9D 1_555 1_555
H9D C9D 1_555 1_555
C10D H10D 1_555 1_555
H11D C10D 1_555 1_555
C11D C10D 1_555 1_555
H12D C11D 1_555 1_555
H13D C11D 1_555 1_555
C12D C11D 1_555 1_555
H14D C12D 1_555 1_555
H15D C12D 1_555 1_555
C13D H16D 1_555 1_555
H17D C13D 1_555 1_555
C14D C13D 1_555 1_555
C15D C14D 1_555 1_555
H18D C15D 1_555 1_555
C16D C15D 1_555 1_555
C17D C16D 1_555 1_555
H19D C17D 1_555 1_555
C18D C17D 1_555 1_555
C19D C14D 1_555 1_555
H20D C19D 1_555 1_555
C20D C18D 1_555 1_555
C21D C16D 1_555 1_555
C22D C2D 1_555 1_555
C23D C4D 1_555 1_555
N1D C7D 1_555 1_555
N2D C8 1_555 1_555
O1D C22D 1_555 1_555
O2D C22D 1_555 1_555
O3D C23D 1_555 1_555
O4D C23D 1_555 1_555
H21D O4D 1_555 1_555
O5D C20D 1_555 1_555
O6D C20D 1_555 1_555
O7D C21D 1_555 1_555
O8D C21D 1_555 1_555
O9A Zn1 1_555 1_555
H22A O9A 1_555 1_555
H23A O9A 1_555 1_555
Zn2A O7 1_555 1_555
O10A Zn2A 1_555 1_555
H24A O10A 1_555 1_555
H25A O10A 1_555 1_555
O11A Zn2A 1_555 1_555
H26A O11A 1_555 1_555
H27A O11A 1_555 1_555
Zn1D O5D 1_555 1_555
Zn2D O1D 1_555 1_555
Zn2E O7D 1_555 1_555
O1A Zn2A 1_555 1_555
O2A Zn2A 1_555 1_555
O5A Zn1 1_555 1_555
O6A Zn1 1_555 1_555
O7A Zn2 1_555 1_555
O8A Zn2 1_555 1_555
C5 C6 1_555 1_555
C9 N1 1_555 1_555
C10 N1 1_555 1_555
C13 N2 1_555 1_555
C18 C19 1_555 1_555
C20 O6 1_555 1_555
C22 O2 1_555 1_555
O8 Zn2A 1_555 1_555
C5D C6D 1_555 1_555
C9D N1D 1_555 1_555
C10D N1D 1_555 1_555
C12D N2D 1_555 1_555
C13D N2D 1_555 1_555
C18D C19D 1_555 1_555
O2D Zn2D 1_555 1_555
O6D Zn1D 1_555 1_555
O8D Zn2E 1_555 1_555

#END
