
#######################################################################
#
#                 Cambridge Crystallographic Data Centre
#                                CCDC 
#
#######################################################################
#
# If this CIF has been generated from an entry in the Cambridge 
# Structural Database, then it will include bibliographic, chemical, 
# crystal, experimental, refinement or atomic coordinate data resulting 
# from the CCDC's data processing and validation procedures.
#
#######################################################################

data_KOHROQ
_symmetry_cell_setting           monoclinic
_symmetry_space_group_name_H-M   'C 2/c'
_symmetry_Int_Tables_number      15
_space_group_name_Hall           '-C 2yn'
loop_
_symmetry_equiv_pos_site_id
_symmetry_equiv_pos_as_xyz
1 x,y,z
2 -x,y,1/2-z
3 1/2+x,1/2+y,z
4 1/2-x,1/2+y,1/2-z
5 -x,-y,-z
6 x,-y,1/2+z
7 1/2-x,1/2-y,-z
8 1/2+x,1/2-y,1/2+z
_cell_length_a                   24.492(4)
_cell_length_b                   13.0355(14)
_cell_length_c                   20.310(3)
_cell_angle_alpha                90
_cell_angle_beta                 124.676(4)
_cell_angle_gamma                90
_cell_volume                     5332.56
loop_
_atom_site_label
_atom_site_type_symbol
_atom_site_fract_x
_atom_site_fract_y
_atom_site_fract_z
Mn1 Mn 0.5000 0.62623(9) 0.2500
Mn2 Mn 0.31445(4) 0.65107(6) 0.56878(5)
C1 C 0.3122(2) 0.7498(3) 0.1344(3)
C2 C 0.2951(2) 0.8383(3) 0.0893(3)
H1 H 0.3271 0.8728 0.0868
C3 C 0.2316(2) 0.8763(3) 0.0482(3)
C4 C 0.1846(2) 0.8265(3) 0.0543(3)
H2 H 0.1419 0.8531 0.0279
C5 C 0.2004(2) 0.7377(3) 0.0991(3)
C6 C 0.2636(2) 0.7004(3) 0.1379(3)
H3 H 0.2744 0.6402 0.1675
C7 C 0.3813(3) 0.7113(4) 0.1801(3)
C8 C 0.2142(3) 0.9735(3) 0.0025(3)
C9 C 0.1505(2) 0.6913(4) 0.1112(3)
H4 H 0.1296 0.7464 0.1216
H5 H 0.1740 0.6486 0.1587
C10 C -0.0609(3) 0.6267(4) -0.0664(4)
H6 H -0.0364 0.5972 -0.0131
H7 H -0.0779 0.6927 -0.0639
C11 C -0.0137(3) 0.6434(4) -0.0909(4)
H8 H -0.0040 0.5777 -0.1045
H9 H -0.0356 0.6856 -0.1388
C12 C 0.0504(3) 0.6935(4) -0.0281(3)
H10 H 0.0404 0.7549 -0.0098
H11 H 0.0730 0.7149 -0.0524
C13 C 0.1227(3) 0.5411(4) 0.0215(3)
H12 H 0.1543 0.5665 0.0111
H13 H 0.0863 0.5093 -0.0271
C14 C 0.1558(3) 0.4625(4) 0.0871(3)
H14 H 0.1619 0.3997 0.0664
H15 H 0.1994 0.4874 0.1298
C15 C 0.1586(3) 0.3938(4) 0.2009(3)
H16 H 0.1784 0.3312 0.1977
H17 H 0.1311 0.3757 0.2195
C16 C 0.2130(3) 0.4655(4) 0.2607(3)
C17 C 0.1984(3) 0.5461(4) 0.2919(3)
H18 H 0.1549 0.5567 0.2761
C18 C 0.2483(3) 0.6114(3) 0.3469(3)
C19 C 0.3126(3) 0.5964(4) 0.3689(3)
H19 H 0.3461 0.6405 0.4056
C20 C 0.3270(3) 0.5175(4) 0.3372(3)
C21 C 0.2772(3) 0.4519(4) 0.2839(3)
H20 H 0.2872 0.3971 0.2632
C22 C 0.2337(4) 0.6947(4) 0.3870(4)
C23 C 0.3970(3) 0.5007(5) 0.3614(4)
N1 N 0.0970(2) 0.6282(3) 0.0434(3)
N2 N 0.1164(2) 0.4398(3) 0.1203(3)
O1 O 0.39453(17) 0.6223(3) 0.2088(2)
O2 O 0.42609(19) 0.7668(3) 0.1889(3)
O3 O 0.15493(18) 1.0030(2) -0.0384(2)
O4 O 0.25914(17) 1.0265(2) 0.0071(2)
O5 O 0.2804(2) 0.7291(3) 0.4541(3)
O6 O 0.1769(3) 0.7259(3) 0.3518(3)
O7 O 0.4065(2) 0.4237(3) 0.3332(2)
H21 H 0.4457 0.4212 0.3493
O8 O 0.4394(2) 0.5649(3) 0.4049(3)
O9 O 0.53051(19) 0.5938(3) 0.3710(2)
H22 H 0.5693(11) 0.565(3) 0.409(2)
H23 H 0.5012(18) 0.544(2) 0.3452(7)
O10 O 0.5000 0.4424(6) 0.2500
H24 H 0.522(5) 0.383(4) 0.262(11)
O11 O 0.4161(2) 0.6942(3) 0.6179(3)
H25 H 0.3951(7) 0.724(3) 0.5688(11)
H26 H 0.424(3) 0.746(3) 0.651(2)
O12 O 0.3330(2) 0.5608(3) 0.6691(3)
H27 H 0.3726(11) 0.593(3) 0.6920(11)
H28 H 0.343(2) 0.4932(10) 0.676(4)
C1D C -0.3122(2) 0.2502(3) -0.1344(3)
C2D C -0.2951(2) 0.1617(3) -0.0893(3)
H1D H -0.3271 0.1272 -0.0868
C3D C -0.2316(2) 0.1237(3) -0.0482(3)
C4D C -0.1846(2) 0.1735(3) -0.0543(3)
H2D H -0.1419 0.1469 -0.0279
C5D C -0.2004(2) 0.2623(3) -0.0991(3)
C6D C -0.2636(2) 0.2996(3) -0.1379(3)
H3D H -0.2744 0.3598 -0.1675
C7D C -0.3813(3) 0.2887(4) -0.1801(3)
C8D C -0.2142(3) 0.0265(3) -0.0025(3)
C9D C -0.1505(2) 0.3087(4) -0.1112(3)
H4D H -0.1296 0.2536 -0.1216
H5D H -0.1740 0.3514 -0.1587
C10D C 0.0609(3) 0.3733(4) 0.0664(4)
H6D H 0.0364 0.4028 0.0131
H7D H 0.0779 0.3073 0.0639
C11D C 0.0137(3) 0.3566(4) 0.0909(4)
H8D H 0.0040 0.4223 0.1045
H9D H 0.0356 0.3144 0.1388
C12D C -0.0504(3) 0.3065(4) 0.0281(3)
H10D H -0.0404 0.2451 0.0098
H11D H -0.0730 0.2851 0.0524
C13D C -0.1227(3) 0.4589(4) -0.0215(3)
H12D H -0.1543 0.4335 -0.0111
H13D H -0.0863 0.4907 0.0271
C14D C -0.1558(3) 0.5375(4) -0.0871(3)
H14D H -0.1619 0.6003 -0.0664
H15D H -0.1994 0.5126 -0.1298
C15D C -0.1586(3) 0.6062(4) -0.2009(3)
H16D H -0.1784 0.6688 -0.1977
H17D H -0.1311 0.6243 -0.2195
C16D C -0.2130(3) 0.5345(4) -0.2607(3)
C17D C -0.1984(3) 0.4539(4) -0.2919(3)
H18D H -0.1549 0.4433 -0.2761
C18D C -0.2483(3) 0.3886(3) -0.3469(3)
C19D C -0.3126(3) 0.4036(4) -0.3689(3)
H19D H -0.3461 0.3595 -0.4056
C20D C -0.3270(3) 0.4825(4) -0.3372(3)
C21D C -0.2772(3) 0.5481(4) -0.2839(3)
H20D H -0.2872 0.6029 -0.2632
C22D C -0.2337(4) 0.3053(4) -0.3870(4)
C23D C -0.3970(3) 0.4993(5) -0.3614(4)
N1D N -0.0970(2) 0.3718(3) -0.0434(3)
N2D N -0.1164(2) 0.5602(3) -0.1203(3)
O1D O -0.39453(17) 0.3777(3) -0.2088(2)
O2D O -0.42609(19) 0.2332(3) -0.1889(3)
O3D O -0.15493(18) -0.0030(2) 0.0384(2)
O4D O -0.25914(17) -0.0265(2) -0.0071(2)
O5D O -0.2804(2) 0.2709(3) -0.4541(3)
O6D O -0.1769(3) 0.2741(3) -0.3518(3)
O7D O -0.4065(2) 0.5763(3) -0.3332(2)
H21D H -0.4457 0.5788 -0.3493
O8D O -0.4394(2) 0.4351(3) -0.4049(3)
H24A H 0.478(5) 0.383(4) 0.238(11)
O9A O 0.46949(19) 0.5938(3) 0.1290(2)
H22A H 0.4307(11) 0.565(3) 0.091(2)
H23A H 0.4988(18) 0.544(2) 0.1548(7)
Mn2C Mn 0.18555(4) 1.15107(6) -0.06878(5)
O11C O 0.0839(2) 1.1942(3) -0.1179(3)
H25C H 0.1049(7) 1.224(3) -0.0688(11)
H26C H 0.076(3) 1.246(3) -0.151(2)
O12C O 0.1670(2) 1.0608(3) -0.1691(3)
H27C H 0.1274(11) 1.093(3) -0.1920(11)
H28C H 0.157(2) 0.9932(10) -0.176(4)
Mn1D Mn -0.5000 0.37377(9) -0.2500
Mn2B Mn -0.18555(4) 0.15107(6) -0.43122(5)
Mn2D Mn -0.31445(4) 0.34893(6) -0.56878(5)
Mn2F Mn 0.18555(4) 0.84893(6) 0.43122(5)
Mn2G Mn -0.18555(4) -0.15107(6) 0.06878(5)
O1A O 0.60547(17) 0.6223(3) 0.2912(2)
O2A O 0.57391(19) 0.7668(3) 0.3111(3)
O3C O 0.34507(18) 0.5030(2) 0.5384(2)
O4C O 0.24086(17) 0.5265(2) 0.4929(2)
O5C O 0.2196(2) 1.2291(3) 0.0459(3)
O6E O 0.1769(3) 1.2741(3) -0.1482(3)
O6F O 0.3231(3) 0.7741(3) 0.6482(3)
O13 O 0.0362(3) 0.6438(5) 0.1349(5)
O14 O 0.4762(2) 0.6532(3) 0.5458(3)
H29 H 0.475(2) 0.652(3) 0.5891(17)
H30 H 0.4805(17) 0.5884(15) 0.5347(8)
O15 O 0.0000 0.4640(10) 0.2500
H31 H -0.041(3) 0.451(11) 0.238(9)
H31A H 0.041(3) 0.451(11) 0.262(9)
O16 O 0.0979(4) 0.5818(6) 0.3740(5)
H32 H 0.102(5) 0.617(8) 0.338(6)
H33 H 0.058(3) 0.603(9) 0.363(7)
loop_
_geom_bond_atom_site_label_1
_geom_bond_atom_site_label_2
_geom_bond_site_symmetry_1
_geom_bond_site_symmetry_2
Mn1 O1 1_555 1_555
Mn2 O5 1_555 1_555
C1 C2 1_555 1_555
C2 H1 1_555 1_555
C3 C2 1_555 1_555
C4 C3 1_555 1_555
H2 C4 1_555 1_555
C5 C4 1_555 1_555
C6 C1 1_555 1_555
H3 C6 1_555 1_555
C7 C1 1_555 1_555
C8 C3 1_555 1_555
C9 C5 1_555 1_555
H4 C9 1_555 1_555
H5 C9 1_555 1_555
C10 H6 1_555 1_555
H7 C10 1_555 1_555
C11 C10 1_555 1_555
H8 C11 1_555 1_555
H9 C11 1_555 1_555
C12 C11 1_555 1_555
H10 C12 1_555 1_555
H11 C12 1_555 1_555
C13 H12 1_555 1_555
H13 C13 1_555 1_555
C14 C13 1_555 1_555
H14 C14 1_555 1_555
H15 C14 1_555 1_555
C15 H16 1_555 1_555
H17 C15 1_555 1_555
C16 C15 1_555 1_555
C17 C16 1_555 1_555
H18 C17 1_555 1_555
C18 C17 1_555 1_555
C19 C18 1_555 1_555
H19 C19 1_555 1_555
C20 C19 1_555 1_555
C21 C16 1_555 1_555
H20 C21 1_555 1_555
C22 C18 1_555 1_555
C23 C20 1_555 1_555
N1 C9 1_555 1_555
N2 C14 1_555 1_555
O1 C7 1_555 1_555
O2 Mn1 1_555 1_555
O3 C8 1_555 1_555
O4 C8 1_555 1_555
O5 C22 1_555 1_555
O6 C22 1_555 1_555
O7 C23 1_555 1_555
H21 O7 1_555 1_555
O8 C23 1_555 1_555
O9 Mn1 1_555 1_555
H22 O9 1_555 1_555
H23 O9 1_555 1_555
O10 Mn1 1_555 1_555
H24 O10 1_555 1_555
O11 Mn2 1_555 1_555
H25 O11 1_555 1_555
H26 O11 1_555 1_555
O12 Mn2 1_555 1_555
H27 O12 1_555 1_555
H28 O12 1_555 1_555
O14 H29 1_555 1_555
H30 O14 1_555 1_555
O15 H31 1_555 1_555
O16 H32 1_555 1_555
H33 O16 1_555 1_555
C1D C2D 1_555 1_555
C2D H1D 1_555 1_555
C3D C2D 1_555 1_555
C4D C3D 1_555 1_555
H2D C4D 1_555 1_555
C5D C4D 1_555 1_555
C6D C1D 1_555 1_555
H3D C6D 1_555 1_555
C7D C1D 1_555 1_555
C8D C3D 1_555 1_555
C9D C5D 1_555 1_555
H4D C9D 1_555 1_555
H5D C9D 1_555 1_555
C10D N2 1_555 1_555
H6D C10D 1_555 1_555
H7D C10D 1_555 1_555
C11D C10D 1_555 1_555
H8D C11D 1_555 1_555
H9D C11D 1_555 1_555
C12D C11D 1_555 1_555
H10D C12D 1_555 1_555
H11D C12D 1_555 1_555
C13D H12D 1_555 1_555
H13D C13D 1_555 1_555
C14D C13D 1_555 1_555
H14D C14D 1_555 1_555
H15D C14D 1_555 1_555
C15D H16D 1_555 1_555
H17D C15D 1_555 1_555
C16D C15D 1_555 1_555
C17D C16D 1_555 1_555
H18D C17D 1_555 1_555
C18D C17D 1_555 1_555
C19D C18D 1_555 1_555
H19D C19D 1_555 1_555
C20D C19D 1_555 1_555
C21D C16D 1_555 1_555
H20D C21D 1_555 1_555
C22D C18D 1_555 1_555
C23D C20D 1_555 1_555
N1D C9D 1_555 1_555
N2D C10 1_555 1_555
O1D C7D 1_555 1_555
O2D C7D 1_555 1_555
O3D C8D 1_555 1_555
O4D C8D 1_555 1_555
O5D C22D 1_555 1_555
O6D C22D 1_555 1_555
O7D C23D 1_555 1_555
H21D O7D 1_555 1_555
O8D C23D 1_555 1_555
H24A O10 1_555 1_555
O9A Mn1 1_555 1_555
H22A O9A 1_555 1_555
H23A O9A 1_555 1_555
Mn2C O3 1_555 1_555
O11C Mn2C 1_555 1_555
H25C O11C 1_555 1_555
H26C O11C 1_555 1_555
O12C Mn2C 1_555 1_555
H27C O12C 1_555 1_555
H28C O12C 1_555 1_555
Mn1D O1D 1_555 1_555
Mn2B O6D 1_555 1_555
Mn2D O5D 1_555 1_555
Mn2F O6 1_555 1_555
Mn2G O3D 1_555 1_555
O1A Mn1 1_555 1_555
O2A Mn1 1_555 1_555
O3C Mn2 1_555 1_555
O4C Mn2 1_555 1_555
O5C Mn2C 1_555 1_555
O6E Mn2C 1_555 1_555
O6F Mn2 1_555 1_555
H31A O15 1_555 1_555
C5 C6 1_555 1_555
C7 O2 1_555 1_555
C12 N1 1_555 1_555
C13 N1 1_555 1_555
C15 N2 1_555 1_555
C20 C21 1_555 1_555
O4 Mn2C 1_555 1_555
C5D C6D 1_555 1_555
C12D N1D 1_555 1_555
C13D N1D 1_555 1_555
C14D N2D 1_555 1_555
C15D N2D 1_555 1_555
C20D C21D 1_555 1_555
O2D Mn1D 1_555 1_555
O4D Mn2G 1_555 1_555

#END
