
#######################################################################
#
#                 Cambridge Crystallographic Data Centre
#                                CCDC 
#
#######################################################################
#
# If this CIF has been generated from an entry in the Cambridge 
# Structural Database, then it will include bibliographic, chemical, 
# crystal, experimental, refinement or atomic coordinate data resulting 
# from the CCDC's data processing and validation procedures.
#
#######################################################################

data_KOHSEH
_symmetry_cell_setting           monoclinic
_symmetry_space_group_name_H-M   'C 2/c'
_symmetry_Int_Tables_number      15
_space_group_name_Hall           '-C 2yn'
loop_
_symmetry_equiv_pos_site_id
_symmetry_equiv_pos_as_xyz
1 x,y,z
2 -x,y,1/2-z
3 1/2+x,1/2+y,z
4 1/2-x,1/2+y,1/2-z
5 -x,-y,-z
6 x,-y,1/2+z
7 1/2-x,1/2-y,-z
8 1/2+x,1/2-y,1/2+z
_cell_length_a                   24.104(2)
_cell_length_b                   13.0540(9)
_cell_length_c                   21.0090(16)
_cell_angle_alpha                90
_cell_angle_beta                 124.662(10)
_cell_angle_gamma                90
_cell_volume                     5437.33
loop_
_atom_site_label
_atom_site_type_symbol
_atom_site_fract_x
_atom_site_fract_y
_atom_site_fract_z
Fe1 Fe 0.5000 0.16795(9) -0.2500
Fe2 Fe 0.15794(5) 0.63717(7) -0.61158(6)
C1 C 0.1254(3) 0.0543(4) -0.4737(3)
H1 H 0.1575 0.0823 -0.4830
H2 H 0.0899 0.0207 -0.5209
C2 C 0.1604(3) -0.0236(4) -0.4105(3)
H3 H 0.1705 -0.0833 -0.4297
H4 H 0.2028 0.0047 -0.3680
C3 C 0.0644(2) -0.1226(4) -0.4365(3)
H5 H 0.0826 -0.1866 -0.4406
H6 H 0.0393 -0.0903 -0.4870
C4 C 0.0168(3) -0.1452(5) -0.4130(3)
H7 H 0.0044 -0.0809 -0.4011
H8 H 0.0407 -0.1857 -0.3659
C5 C -0.0468(2) -0.2013(4) -0.4728(3)
H9 H -0.0344 -0.2625 -0.4882
H10 H -0.0696 -0.2230 -0.4491
C6 C 0.1643(3) -0.1067(4) -0.3056(3)
H11 H 0.1894 -0.1610 -0.3099
H12 H 0.1370 -0.1371 -0.2901
C7 C 0.2123(3) -0.0312(4) -0.2455(3)
C8 C 0.2798(3) -0.0344(4) -0.2129(3)
H13 H 0.2973 -0.0878 -0.2258
C9 C 0.3237(3) 0.0404(4) -0.1606(3)
C10 C 0.2967(3) 0.1192(4) -0.1427(3)
H14 H 0.3249 0.1696 -0.1079
C11 C 0.2278(3) 0.1239(4) -0.1763(3)
C12 C 0.1871(3) 0.0479(4) -0.2264(3)
H15 H 0.1411 0.0501 -0.2480
C13 C 0.3968(3) 0.0373(7) -0.1282(4)
C14 C 0.1983(4) 0.2127(6) -0.1610(5)
C15 C 0.1480(2) 0.2088(4) -0.3923(3)
H16 H 0.1250 0.2620 -0.3835
H17 H 0.1740 0.1688 -0.3452
C16 C 0.1963(2) 0.2593(4) -0.4060(3)
C17 C 0.2628(2) 0.2270(4) -0.3659(3)
H18 H 0.2758 0.1692 -0.3346
C18 C 0.3101(2) 0.2781(4) -0.3711(3)
C19 C 0.2906(2) 0.3637(4) -0.4180(3)
H19 H 0.3224 0.3994 -0.4211
C20 C 0.2244(2) 0.3965(4) -0.4603(3)
C21 C 0.1783(2) 0.3455(4) -0.4526(3)
H20 H 0.1342 0.3695 -0.4792
C22 C 0.3817(3) 0.2428(5) -0.3253(3)
C23 C 0.2036(3) 0.4877(4) -0.5118(3)
N1 N 0.09542(19) 0.1399(3) -0.4558(2)
N2 N 0.1200(2) -0.0558(3) -0.3814(2)
O1 O 0.39686(18) 0.1620(3) -0.2869(2)
O2 O 0.42580(18) 0.2918(3) -0.3261(3)
O3 O 0.47910(19) 0.0863(4) -0.3458(3)
O4 O 0.14086(18) 0.5063(3) -0.5579(2)
O5 O 0.1502(2) 0.5323(4) -0.6919(2)
O6 O 0.24550(19) 0.5425(3) -0.5114(2)
O7 O 0.0510(3) 0.6578(6) -0.6739(4)
O8 O 0.4348(3) 0.1020(5) -0.0810(4)
O9 O 0.1572(3) 0.7429(4) -0.5340(3)
O10 O 0.4160(2) -0.0303(5) -0.1538(3)
H21 H 0.4568 -0.0256 -0.1324
O11 O 0.1355(3) 0.2242(5) -0.2027(4)
O12 O 0.2337(3) 0.2722(4) -0.1075(3)
C1D C -0.1254(3) -0.0543(4) -0.5263(3)
H1D H -0.1575 -0.0823 -0.5170
H2D H -0.0899 -0.0207 -0.4791
C2D C -0.1604(3) 0.0236(4) -0.5895(3)
H3D H -0.1705 0.0833 -0.5703
H4D H -0.2028 -0.0047 -0.6320
C3D C -0.0644(2) 0.1226(4) -0.5635(3)
H5D H -0.0826 0.1866 -0.5594
H6D H -0.0393 0.0903 -0.5130
C4D C -0.0168(3) 0.1452(5) -0.5870(3)
H7D H -0.0044 0.0809 -0.5989
H8D H -0.0407 0.1857 -0.6341
C5D C 0.0468(2) 0.2013(4) -0.5272(3)
H9D H 0.0344 0.2625 -0.5118
H10D H 0.0696 0.2230 -0.5509
C6D C -0.1643(3) 0.1067(4) -0.6944(3)
H11D H -0.1894 0.1610 -0.6901
H12D H -0.1370 0.1371 -0.7099
C7D C -0.2123(3) 0.0312(4) -0.7545(3)
C8D C -0.2798(3) 0.0344(4) -0.7871(3)
H13D H -0.2973 0.0878 -0.7742
C9D C -0.3237(3) -0.0404(4) -0.8394(3)
C10D C -0.2967(3) -0.1192(4) -0.8573(3)
H14D H -0.3249 -0.1696 -0.8921
C11D C -0.2278(3) -0.1239(4) -0.8237(3)
C12D C -0.1871(3) -0.0479(4) -0.7736(3)
H15D H -0.1411 -0.0501 -0.7520
C13D C -0.3968(3) -0.0373(7) -0.8718(4)
C14D C -0.1983(4) -0.2127(6) -0.8390(5)
C15D C -0.1480(2) -0.2088(4) -0.6077(3)
H16D H -0.1250 -0.2620 -0.6165
H17D H -0.1740 -0.1688 -0.6548
C16D C -0.1963(2) -0.2593(4) -0.5940(3)
C17D C -0.2628(2) -0.2270(4) -0.6341(3)
H18D H -0.2758 -0.1692 -0.6654
C18D C -0.3101(2) -0.2781(4) -0.6289(3)
C19D C -0.2906(2) -0.3637(4) -0.5820(3)
H19D H -0.3224 -0.3994 -0.5789
C20D C -0.2244(2) -0.3965(4) -0.5397(3)
C21D C -0.1783(2) -0.3455(4) -0.5474(3)
H20D H -0.1342 -0.3695 -0.5208
C22D C -0.3817(3) -0.2428(5) -0.6747(3)
C23D C -0.2036(3) -0.4877(4) -0.4882(3)
N1D N -0.09542(19) -0.1399(3) -0.5442(2)
N2D N -0.1200(2) 0.0558(3) -0.6186(2)
O1D O -0.39686(18) -0.1620(3) -0.7131(2)
O2D O -0.42580(18) -0.2918(3) -0.6739(3)
O4D O -0.14086(18) -0.5063(3) -0.4421(2)
O6D O -0.24550(19) -0.5425(3) -0.4886(2)
O8D O -0.4348(3) -0.1020(5) -0.9190(4)
O10D O -0.4160(2) 0.0303(5) -0.8462(3)
H21D H -0.4568 0.0256 -0.8676
O11D O -0.1355(3) -0.2242(5) -0.7973(4)
O12D O -0.2337(3) -0.2722(4) -0.8925(3)
O3A O 0.52090(19) 0.0863(4) -0.1542(3)
Fe2E Fe 0.15794(5) 0.36283(7) -0.11158(6)
O5E O 0.1502(2) 0.4677(4) -0.1919(2)
O7E O 0.0510(3) 0.3422(6) -0.1739(4)
O9E O 0.1572(3) 0.2571(4) -0.0340(3)
Fe1D Fe -0.5000 -0.16795(9) -0.7500
Fe2A Fe -0.15794(5) -0.36283(7) -0.88842(6)
Fe2D Fe -0.15794(5) -0.63717(7) -0.38842(6)
O1A O 0.60314(18) 0.1620(3) -0.2131(2)
O2A O 0.57420(18) 0.2918(3) -0.1739(3)
O4E O 0.14086(18) 0.4937(3) -0.0579(2)
O6E O 0.24550(19) 0.4575(3) -0.0114(2)
O11E O 0.1355(3) 0.7758(5) -0.7027(4)
O12E O 0.2337(3) 0.7278(4) -0.6075(3)
O13 O 0.0333(2) 0.1560(5) -0.3702(3)
O14 O 0.5189(3) -0.1506(4) -0.0644(4)
O15 O 0.0648(8) 0.9101(16) -0.6436(11)
O16 O 0.1038(7) 0.9179(11) -0.6144(8)
O17 O 0.0202(9) 1.0172(12) -0.7537(14)
O17A O -0.0202(9) 1.0172(12) -0.7463(14)
loop_
_geom_bond_atom_site_label_1
_geom_bond_atom_site_label_2
_geom_bond_site_symmetry_1
_geom_bond_site_symmetry_2
Fe1 O1 1_555 1_555
Fe2 O4 1_555 1_555
C1 H1 1_555 1_555
H2 C1 1_555 1_555
C2 C1 1_555 1_555
H3 C2 1_555 1_555
H4 C2 1_555 1_555
C3 H5 1_555 1_555
H6 C3 1_555 1_555
C4 C3 1_555 1_555
H7 C4 1_555 1_555
H8 C4 1_555 1_555
C5 C4 1_555 1_555
H9 C5 1_555 1_555
H10 C5 1_555 1_555
C6 H11 1_555 1_555
H12 C6 1_555 1_555
C7 C6 1_555 1_555
C8 C7 1_555 1_555
H13 C8 1_555 1_555
C9 C8 1_555 1_555
C10 C9 1_555 1_555
H14 C10 1_555 1_555
C11 C10 1_555 1_555
C12 C7 1_555 1_555
H15 C12 1_555 1_555
C13 C9 1_555 1_555
C14 C11 1_555 1_555
C15 H16 1_555 1_555
H17 C15 1_555 1_555
C16 C15 1_555 1_555
C17 C16 1_555 1_555
H18 C17 1_555 1_555
C18 C17 1_555 1_555
C19 C18 1_555 1_555
H19 C19 1_555 1_555
C20 C19 1_555 1_555
C21 C16 1_555 1_555
H20 C21 1_555 1_555
C22 C18 1_555 1_555
C23 C20 1_555 1_555
N1 C1 1_555 1_555
N2 C2 1_555 1_555
O1 C22 1_555 1_555
O2 Fe1 1_555 1_555
O3 Fe1 1_555 1_555
O4 C23 1_555 1_555
O5 Fe2 1_555 1_555
O6 Fe2 1_555 1_555
O7 Fe2 1_555 1_555
O8 C13 1_555 1_555
O9 Fe2 1_555 1_555
O10 C13 1_555 1_555
H21 O10 1_555 1_555
O11 C14 1_555 1_555
O12 C14 1_555 1_555
C1D H1D 1_555 1_555
H2D C1D 1_555 1_555
C2D C1D 1_555 1_555
H3D C2D 1_555 1_555
H4D C2D 1_555 1_555
C3D H5D 1_555 1_555
H6D C3D 1_555 1_555
C4D C3D 1_555 1_555
H7D C4D 1_555 1_555
H8D C4D 1_555 1_555
C5D N1 1_555 1_555
H9D C5D 1_555 1_555
H10D C5D 1_555 1_555
C6D H11D 1_555 1_555
H12D C6D 1_555 1_555
C7D C6D 1_555 1_555
C8D C7D 1_555 1_555
H13D C8D 1_555 1_555
C9D C8D 1_555 1_555
C10D C9D 1_555 1_555
H14D C10D 1_555 1_555
C11D C10D 1_555 1_555
C12D C7D 1_555 1_555
H15D C12D 1_555 1_555
C13D C9D 1_555 1_555
C14D C11D 1_555 1_555
C15D H16D 1_555 1_555
H17D C15D 1_555 1_555
C16D C15D 1_555 1_555
C17D C16D 1_555 1_555
H18D C17D 1_555 1_555
C18D C17D 1_555 1_555
C19D C18D 1_555 1_555
H19D C19D 1_555 1_555
C20D C19D 1_555 1_555
C21D C16D 1_555 1_555
H20D C21D 1_555 1_555
C22D C18D 1_555 1_555
C23D C20D 1_555 1_555
N1D C5 1_555 1_555
N2D C2D 1_555 1_555
O1D C22D 1_555 1_555
O2D C22D 1_555 1_555
O4D C23D 1_555 1_555
O6D C23D 1_555 1_555
O8D C13D 1_555 1_555
O10D C13D 1_555 1_555
H21D O10D 1_555 1_555
O11D C14D 1_555 1_555
O12D C14D 1_555 1_555
O3A Fe1 1_555 1_555
Fe2E O11 1_555 1_555
O5E Fe2E 1_555 1_555
O7E Fe2E 1_555 1_555
O9E Fe2E 1_555 1_555
Fe1D O1D 1_555 1_555
Fe2A O11D 1_555 1_555
Fe2D O4D 1_555 1_555
O1A Fe1 1_555 1_555
O2A Fe1 1_555 1_555
O4E Fe2E 1_555 1_555
O6E Fe2E 1_555 1_555
O11E Fe2 1_555 1_555
O12E Fe2 1_555 1_555
C3 N2 1_555 1_555
C6 N2 1_555 1_555
C11 C12 1_555 1_555
C15 N1 1_555 1_555
C20 C21 1_555 1_555
C22 O2 1_555 1_555
C23 O6 1_555 1_555
O12 Fe2E 1_555 1_555
C1D N1D 1_555 1_555
C3D N2D 1_555 1_555
C4D C5D 1_555 1_555
C6D N2D 1_555 1_555
C11D C12D 1_555 1_555
C15D N1D 1_555 1_555
C20D C21D 1_555 1_555
O2D Fe1D 1_555 1_555
O6D Fe2D 1_555 1_555
O12D Fe2A 1_555 1_555

#END
