
#######################################################################
#
#                 Cambridge Crystallographic Data Centre
#                                CCDC 
#
#######################################################################
#
# If this CIF has been generated from an entry in the Cambridge 
# Structural Database, then it will include bibliographic, chemical, 
# crystal, experimental, refinement or atomic coordinate data resulting 
# from the CCDC's data processing and validation procedures.
#
#######################################################################

data_KOHTOR
_symmetry_cell_setting           orthorhombic
_symmetry_space_group_name_H-M   'F d d 2'
_symmetry_Int_Tables_number      43
_space_group_name_Hall           'F 2 -2d'
loop_
_symmetry_equiv_pos_site_id
_symmetry_equiv_pos_as_xyz
1 x,y,z
2 -x,-y,z
3 1/4-x,1/4+y,1/4+z
4 1/4+x,1/4-y,1/4+z
5 x,1/2+y,1/2+z
6 -x,1/2-y,1/2+z
7 1/4-x,3/4+y,3/4+z
8 1/4+x,3/4-y,3/4+z
9 1/2+x,y,1/2+z
10 1/2-x,-y,1/2+z
11 3/4-x,1/4+y,3/4+z
12 3/4+x,1/4-y,3/4+z
13 1/2+x,1/2+y,z
14 1/2-x,1/2-y,z
15 3/4-x,3/4+y,1/4+z
16 3/4+x,3/4-y,1/4+z
_cell_length_a                   21.952(4)
_cell_length_b                   30.898(7)
_cell_length_c                   11.369(5)
_cell_angle_alpha                90
_cell_angle_beta                 90
_cell_angle_gamma                90
_cell_volume                     7711.28
loop_
_atom_site_label
_atom_site_type_symbol
_atom_site_fract_x
_atom_site_fract_y
_atom_site_fract_z
Ag1 Ag 0.56571(2) 0.530513(18) 1.10205(5)
C11 C 0.6114(2) 0.50770(19) 0.7316(4)
H8 H 0.6413 0.4916 0.6934
C12 C 0.6079(2) 0.50697(18) 0.8514(6)
H9 H 0.6361 0.4902 0.8921
C13 C 0.5705(3) 0.5324(2) 0.6662(8)
C14 C 0.5271(2) 0.55550(18) 0.7316(4)
H10 H 0.4985 0.5725 0.6931
C15 C 0.5268(2) 0.55311(17) 0.8543(5)
H11 H 0.4978 0.5690 0.8956
C16 C 0.5706(2) 0.5332(2) 0.5352(7)
C17 C 0.5596(2) 0.57037(18) 0.4731(4)
H12 H 0.5538 0.5965 0.5122
C18 C 0.5570(2) 0.56862(19) 0.3515(6)
H13 H 0.5490 0.5938 0.3096
C19 C 0.5781(2) 0.49597(19) 0.3526(5)
H14 H 0.5849 0.4704 0.3115
C20 C 0.5813(2) 0.4953(2) 0.4746(4)
H15 H 0.5903 0.4699 0.5146
N1 N 0.56629(19) 0.52904(16) 0.9146(7)
N2 N 0.5659(2) 0.53158(18) 0.2928(7)
Ag1_2 Ag 0.56571(2) 0.530513(18) 0.10205(5)
N2_2 N 0.5659(2) 0.53158(18) 1.2928(7)
C1 C 0.6957(3) 0.5878(2) 1.0065(6)
H1 H 0.7228 0.5693 1.0442
C2 C 0.6545(3) 0.6105(2) 1.0696(6)
H2 H 0.6539 0.6074 1.1510
C3 C 0.6125(3) 0.6386(2) 1.0168(6)
H3 H 0.5854 0.6543 1.0631
C4 C 0.6115(3) 0.6428(2) 0.8995(6)
H4 H 0.5829 0.6605 0.8634
C5 C 0.6560(3) 0.61934(19) 0.8299(5)
C6 C 0.6579(3) 0.6234(2) 0.7054(6)
H5 H 0.6312 0.6424 0.6685
C7 C 0.6979(3) 0.6002(2) 0.6390(6)
H6 H 0.6978 0.6027 0.5575
C8 C 0.7401(3) 0.5719(2) 0.6967(6)
C9 C 0.7404(3) 0.5669(2) 0.8148(6)
H7 H 0.7674 0.5477 0.8505
C10 C 0.6974(3) 0.5922(2) 0.8855(5)
O1 O 0.8275(3) 0.5715(2) 0.5486(6)
O2 O 0.8178(2) 0.50929(18) 0.6758(5)
O3 O 0.7487(3) 0.5187(2) 0.5214(5)
S1 S 0.78971(8) 0.54177(6) 0.60644(19)
O4 O 0.9592(3) 0.5919(2) 0.6051(7)
H16 H 0.924(2) 0.588(3) 0.603(13)
H17 H 0.966(4) 0.6174(19) 0.584(10)
O5 O 0.5299(3) 0.8140(2) 0.5592(6)
H18 H 0.504(4) 0.803(4) 0.509(7)
H19 H 0.522(5) 0.801(3) 0.623(5)
loop_
_geom_bond_atom_site_label_1
_geom_bond_atom_site_label_2
_geom_bond_site_symmetry_1
_geom_bond_site_symmetry_2
Ag1 N1 1_555 1_555
C1 H1 1_555 1_555
C2 C1 1_555 1_555
H2 C2 1_555 1_555
C3 C2 1_555 1_555
H3 C3 1_555 1_555
C4 C3 1_555 1_555
H4 C4 1_555 1_555
C5 C4 1_555 1_555
C6 C5 1_555 1_555
H5 C6 1_555 1_555
C7 C6 1_555 1_555
H6 C7 1_555 1_555
C8 C7 1_555 1_555
C9 C8 1_555 1_555
H7 C9 1_555 1_555
C10 C1 1_555 1_555
C11 H8 1_555 1_555
C12 C11 1_555 1_555
H9 C12 1_555 1_555
C13 C11 1_555 1_555
C14 C13 1_555 1_555
H10 C14 1_555 1_555
C15 C14 1_555 1_555
H11 C15 1_555 1_555
C16 C13 1_555 1_555
C17 C16 1_555 1_555
H12 C17 1_555 1_555
C18 C17 1_555 1_555
H13 C18 1_555 1_555
C19 H14 1_555 1_555
C20 C16 1_555 1_555
H15 C20 1_555 1_555
N1 C12 1_555 1_555
N2 C18 1_555 1_555
O1 S1 1_555 1_555
O2 S1 1_555 1_555
O3 S1 1_555 1_555
O4 H16 1_555 1_555
S1 C8 1_555 1_555
O5 H18 1_555 1_555
H17 O4 1_555 1_555
H19 O5 1_555 1_555
Ag1_2 N2 1_555 1_555
N2_2 Ag1 1_555 1_555
C5 C10 1_555 1_555
C9 C10 1_555 1_555
C15 N1 1_555 1_555
C19 C20 1_555 1_555
C19 N2 1_555 1_555

#END
