
#######################################################################
#
#                 Cambridge Crystallographic Data Centre
#                                CCDC 
#
#######################################################################
#
# If this CIF has been generated from an entry in the Cambridge 
# Structural Database, then it will include bibliographic, chemical, 
# crystal, experimental, refinement or atomic coordinate data resulting 
# from the CCDC's data processing and validation procedures.
#
#######################################################################

data_KOHTAE
_symmetry_cell_setting           orthorhombic
_symmetry_space_group_name_H-M   'P b c a'
_symmetry_Int_Tables_number      61
_space_group_name_Hall           '-P 2ac 2ab'
loop_
_symmetry_equiv_pos_site_id
_symmetry_equiv_pos_as_xyz
1 x,y,z
2 1/2-x,-y,1/2+z
3 1/2+x,1/2-y,-z
4 -x,1/2+y,1/2-z
5 -x,-y,-z
6 1/2+x,y,1/2-z
7 1/2-x,1/2+y,z
8 x,1/2-y,1/2+z
_cell_length_a                   18.1000(5)
_cell_length_b                   23.3079(7)
_cell_length_c                   29.0723(11)
_cell_angle_alpha                90
_cell_angle_beta                 90
_cell_angle_gamma                90
_cell_volume                     12264.8
loop_
_atom_site_label
_atom_site_type_symbol
_atom_site_fract_x
_atom_site_fract_y
_atom_site_fract_z
Cd1 Cd 0.515129(16) 0.329884(12) 0.001242(12)
Cd2 Cd 0.573272(15) 0.201195(13) 0.219141(11)
C1 C 0.6857(2) 0.33655(19) 0.00224(17)
H1 H 0.7309 0.3417 -0.0153
H2 H 0.6978 0.3148 0.0297
C2 C 0.6561(2) 0.39437(18) 0.01601(17)
H3 H 0.6940 0.4156 0.0324
H4 H 0.6430 0.4160 -0.0113
C3 C 0.5564(2) 0.44192(17) 0.06124(18)
H5 H 0.5378 0.4627 0.0343
C4 C 0.4912(2) 0.4286(2) 0.09322(18)
H6 H 0.5078 0.3993 0.1145
H7 H 0.4822 0.4629 0.1113
C5 C 0.4166(2) 0.40906(19) 0.07439(17)
C6 C 0.4252(2) 0.30212(18) 0.08976(17)
H8 H 0.3775 0.2980 0.1046
H9 H 0.4613 0.3117 0.1132
C7 C 0.4464(2) 0.24622(19) 0.06729(18)
H10 H 0.4429 0.2152 0.0894
H11 H 0.4130 0.2380 0.0420
C8 C 0.5526(2) 0.19820(17) 0.02943(15)
H12 H 0.5224 0.1885 0.0026
C9 C 0.6317(2) 0.20758(19) 0.01318(16)
H13 H 0.6539 0.1700 0.0096
H14 H 0.6579 0.2265 0.0380
C10 C 0.6481(2) 0.2413(2) -0.03082(16)
C11 C 0.6112(3) 0.4805(2) 0.0867(2)
H15 H 0.6516 0.4897 0.0667
H16 H 0.6294 0.4608 0.1134
H17 H 0.5867 0.5152 0.0960
C12 C 0.3613(3) 0.4119(2) 0.1139(2)
H18 H 0.3777 0.3875 0.1385
H19 H 0.3138 0.3991 0.1033
H20 H 0.3576 0.4507 0.1247
C13 C 0.3914(3) 0.4472(2) 0.03554(19)
H21 H 0.4267 0.4456 0.0109
H22 H 0.3873 0.4860 0.0464
H23 H 0.3442 0.4344 0.0246
C14 C 0.5506(3) 0.1479(2) 0.06228(19)
H24 H 0.5006 0.1413 0.0720
H25 H 0.5808 0.1561 0.0886
H26 H 0.5690 0.1142 0.0471
C15 C 0.6017(3) 0.2212(2) -0.07061(17)
H27 H 0.6132 0.2437 -0.0974
H28 H 0.5504 0.2257 -0.0631
H29 H 0.6119 0.1815 -0.0767
C16 C 0.7306(3) 0.2316(2) -0.0426(2)
H30 H 0.7607 0.2444 -0.0174
H31 H 0.7430 0.2529 -0.0698
H32 H 0.7391 0.1915 -0.0479
C17 C 0.7293(3) 0.1518(2) 0.2440(2)
H33 H 0.7760 0.1361 0.2336
H34 H 0.7201 0.1373 0.2748
C18 C 0.7350(2) 0.2158(3) 0.24577(19)
H35 H 0.7772 0.2268 0.2644
H36 H 0.7424 0.2308 0.2150
C19 C 0.6654(3) 0.3032(2) 0.2691(2)
H37 H 0.6640 0.3188 0.2378
C20 C 0.5952(3) 0.3225(2) 0.2942(2)
H38 H 0.5919 0.2999 0.3221
H39 H 0.6031 0.3619 0.3036
C21 C 0.5194(3) 0.3202(2) 0.27124(19)
C22 C 0.4722(3) 0.2280(3) 0.30390(19)
H40 H 0.4262 0.2437 0.3154
H41 H 0.5092 0.2323 0.3278
C23 C 0.4620(3) 0.1658(3) 0.2937(2)
H42 H 0.4433 0.1464 0.3208
H43 H 0.4260 0.1613 0.2693
C24 C 0.5288(3) 0.0789(2) 0.2674(2)
H44 H 0.5016 0.0754 0.2384
C25 C 0.6071(4) 0.0563(2) 0.2598(2)
H45 H 0.6364 0.0692 0.2857
H46 H 0.6044 0.0148 0.2619
C26 C 0.6508(3) 0.0699(2) 0.2169(2)
C27 C 0.7316(4) 0.3286(3) 0.2934(3)
H47 H 0.7759 0.3177 0.2775
H48 H 0.7334 0.3145 0.3244
H49 H 0.7274 0.3697 0.2938
C28 C 0.4639(4) 0.3518(3) 0.3025(2)
H50 H 0.4159 0.3511 0.2885
H51 H 0.4795 0.3909 0.3064
H52 H 0.4619 0.3332 0.3319
C29 C 0.5179(4) 0.3493(3) 0.2238(2)
H53 H 0.4692 0.3463 0.2109
H54 H 0.5526 0.3306 0.2037
H55 H 0.5310 0.3890 0.2270
C30 C 0.4916(5) 0.0421(3) 0.3024(3)
H56 H 0.4421 0.0555 0.3072
H57 H 0.5185 0.0439 0.3308
H58 H 0.4903 0.0031 0.2916
C31 C 0.6061(3) 0.0563(3) 0.1735(2)
H59 H 0.6348 0.0656 0.1468
H60 H 0.5614 0.0785 0.1735
H61 H 0.5940 0.0161 0.1731
C32 C 0.7217(4) 0.0325(3) 0.2151(3)
H62 H 0.7488 0.0412 0.1876
H63 H 0.7082 -0.0073 0.2151
H64 H 0.7519 0.0406 0.2415
C33 C 0.3422(2) 0.24385(17) -0.08773(14)
C34 C 0.2740(2) 0.25414(17) -0.10771(14)
H65 H 0.2577 0.2916 -0.1117
C35 C 0.2303(2) 0.20899(17) -0.12164(14)
C36 C 0.2563(2) 0.15343(18) -0.11741(15)
H66 H 0.2266 0.1230 -0.1267
C37 C 0.3257(2) 0.14244(18) -0.09966(15)
C38 C 0.3667(2) 0.18823(18) -0.08375(16)
H67 H 0.4121 0.1813 -0.0699
C39 C 0.3880(2) 0.29121(19) -0.06885(17)
C40 C 0.1516(2) 0.2197(2) -0.13818(15)
C41 C 0.3569(3) 0.08275(19) -0.10007(19)
H68 H 0.3173 0.0557 -0.0940
H69 H 0.3762 0.0746 -0.1305
C42 C 0.3870(3) 0.0609(2) -0.0216(2)
H70 H 0.3491 0.0887 -0.0139
H71 H 0.4266 0.0652 0.0007
C43 C 0.3552(3) 0.0020(2) -0.0169(2)
H72 H 0.3907 -0.0258 -0.0283
H73 H 0.3112 -0.0008 -0.0359
C44 C 0.3354(3) -0.0129(2) 0.0318(2)
H74 H 0.2969 0.0130 0.0421
H75 H 0.3153 -0.0515 0.0324
C45 C 0.3669(3) -0.0120(2) 0.1109(2)
H76 H 0.4054 -0.0240 0.1320
H77 H 0.3271 -0.0398 0.1125
C46 C 0.3386(2) 0.0458(2) 0.12477(18)
C47 C 0.2649(2) 0.0603(2) 0.12063(17)
H78 H 0.2313 0.0329 0.1105
C48 C 0.2401(2) 0.1149(2) 0.13127(15)
C49 C 0.2902(2) 0.15470(19) 0.14681(15)
H79 H 0.2743 0.1917 0.1536
C50 C 0.3644(2) 0.14067(19) 0.15257(16)
C51 C 0.3873(2) 0.0866(2) 0.14093(17)
H80 H 0.4370 0.0772 0.1440
C52 C 0.1591(2) 0.1286(2) 0.12651(17)
C53 C 0.4174(2) 0.1834(2) 0.17363(16)
C54 C 0.4771(3) 0.0392(2) -0.0816(2)
H81 H 0.4841 0.0448 -0.1144
H82 H 0.4654 -0.0009 -0.0766
C55 C 0.5488(3) 0.0536(2) -0.0566(2)
H83 H 0.5674 0.0902 -0.0676
H84 H 0.5392 0.0571 -0.0239
N1 N 0.4155(2) 0.07401(16) -0.06634(17)
N2 N 0.3963(2) -0.00999(16) 0.06408(17)
O1 O 0.43631(18) 0.27743(13) -0.04076(13)
O2 O 0.37669(18) 0.34071(14) -0.08229(15)
O3 O 0.13961(15) 0.26638(13) -0.15671(12)
O4 O 0.10619(16) 0.18215(14) -0.13031(12)
O5 O 0.48355(15) 0.16626(14) 0.17555(11)
O6 O 0.39327(17) 0.22952(15) 0.18730(12)
O7 O 0.13679(16) 0.17342(16) 0.14405(13)
O8 O 0.12074(17) 0.09354(17) 0.10504(13)
O9 O 0.50049(15) 0.39898(13) -0.05580(11)
H85 H 0.5375(15) 0.400(2) -0.0750(11)
H86 H 0.4627(14) 0.3841(18) -0.0695(13)
N3 N 0.63251(19) 0.30381(16) -0.02550(13)
H87 H 0.632(3) 0.318(2) -0.0510(18)
N4 N 0.59092(19) 0.38797(14) 0.04547(14)
H88 H 0.602(3) 0.368(2) 0.0691(17)
N5 N 0.42156(19) 0.34919(16) 0.05538(15)
H89 H 0.387(3) 0.345(2) 0.0412(19)
N6 N 0.52250(19) 0.25054(15) 0.05006(14)
H90 H 0.546(3) 0.260(2) 0.0708(17)
N7 N 0.6695(2) 0.1318(2) 0.21291(15)
H91 H 0.691(3) 0.144(3) 0.192(2)
N8 N 0.6666(2) 0.24060(18) 0.26571(14)
H92 H 0.657(3) 0.222(2) 0.2903(19)
N9 N 0.4952(2) 0.2601(2) 0.26313(15)
H93 H 0.463(3) 0.260(3) 0.246(2)
N10 N 0.5323(2) 0.13945(19) 0.27964(15)
H94 H 0.563(3) 0.148(2) 0.299(2)
C33D C 0.6578(2) -0.24385(17) 0.08773(14)
C34D C 0.7260(2) -0.25414(17) 0.10771(14)
H65D H 0.7423 -0.2916 0.1117
C35D C 0.7697(2) -0.20899(17) 0.12164(14)
C36D C 0.7437(2) -0.15343(18) 0.11741(15)
H66D H 0.7734 -0.1230 0.1267
C37D C 0.6743(2) -0.14244(18) 0.09966(15)
C38D C 0.6333(2) -0.18823(18) 0.08375(16)
H67D H 0.5879 -0.1813 0.0699
C39D C 0.6120(2) -0.29121(19) 0.06885(17)
C40D C 0.8484(2) -0.2197(2) 0.13818(15)
C41D C 0.6431(3) -0.08275(19) 0.10007(19)
H68D H 0.6827 -0.0557 0.0940
H69D H 0.6238 -0.0746 0.1305
C42D C 0.6130(3) -0.0609(2) 0.0216(2)
H70D H 0.6509 -0.0887 0.0139
H71D H 0.5734 -0.0652 -0.0007
C43D C 0.6448(3) -0.0020(2) 0.0169(2)
H72D H 0.6093 0.0258 0.0283
H73D H 0.6888 0.0008 0.0359
C44D C 0.6646(3) 0.0129(2) -0.0318(2)
H74D H 0.7031 -0.0130 -0.0421
H75D H 0.6847 0.0515 -0.0324
C45D C 0.6331(3) 0.0120(2) -0.1109(2)
H76D H 0.5946 0.0240 -0.1320
H77D H 0.6729 0.0398 -0.1125
C46D C 0.6614(2) -0.0458(2) -0.12477(18)
C47D C 0.7351(2) -0.0603(2) -0.12063(17)
H78D H 0.7687 -0.0329 -0.1105
C48D C 0.7599(2) -0.1149(2) -0.13127(15)
C49D C 0.7098(2) -0.15470(19) -0.14681(15)
H79D H 0.7257 -0.1917 -0.1536
C50D C 0.6356(2) -0.14067(19) -0.15257(16)
C51D C 0.6127(2) -0.0866(2) -0.14093(17)
H80D H 0.5630 -0.0772 -0.1440
C52D C 0.8409(2) -0.1286(2) -0.12651(17)
C53D C 0.5826(2) -0.1834(2) -0.17363(16)
C54D C 0.5229(3) -0.0392(2) 0.0816(2)
H81D H 0.5159 -0.0448 0.1144
H82D H 0.5346 0.0009 0.0766
C55D C 0.4512(3) -0.0536(2) 0.0566(2)
H83D H 0.4326 -0.0902 0.0676
H84D H 0.4608 -0.0571 0.0239
N1D N 0.5845(2) -0.07401(16) 0.06634(17)
N2D N 0.6037(2) 0.00999(16) -0.06408(17)
O1D O 0.56369(18) -0.27743(13) 0.04076(13)
O2D O 0.62331(18) -0.34071(14) 0.08229(15)
O3D O 0.86039(15) -0.26638(13) 0.15671(12)
O4D O 0.89381(16) -0.18215(14) 0.13031(12)
O5D O 0.51645(15) -0.16626(14) -0.17555(11)
O6D O 0.60673(17) -0.22952(15) -0.18730(12)
O7D O 0.86321(16) -0.17342(16) -0.14405(13)
O8D O 0.87926(17) -0.09354(17) -0.10504(13)
Cd1D Cd 0.484871(16) -0.329884(12) -0.001242(12)
Cd2D Cd 0.426728(15) -0.201195(13) -0.219141(11)
C1D C 0.3143(2) -0.33655(19) -0.00224(17)
H1D H 0.2691 -0.3417 0.0153
H2D H 0.3022 -0.3148 -0.0297
C2D C 0.3439(2) -0.39437(18) -0.01601(17)
H3D H 0.3060 -0.4156 -0.0324
H4D H 0.3570 -0.4160 0.0113
C3D C 0.4436(2) -0.44192(17) -0.06124(18)
H5D H 0.4622 -0.4627 -0.0343
C4D C 0.5088(2) -0.4286(2) -0.09322(18)
H6D H 0.4922 -0.3993 -0.1145
H7D H 0.5178 -0.4629 -0.1113
C5D C 0.5834(2) -0.40906(19) -0.07439(17)
C6D C 0.5748(2) -0.30212(18) -0.08976(17)
H8D H 0.6225 -0.2980 -0.1046
H9D H 0.5387 -0.3117 -0.1132
C7D C 0.5536(2) -0.24622(19) -0.06729(18)
H10D H 0.5571 -0.2152 -0.0894
H11D H 0.5870 -0.2380 -0.0420
C8D C 0.4474(2) -0.19820(17) -0.02943(15)
H12D H 0.4776 -0.1885 -0.0026
C9D C 0.3683(2) -0.20758(19) -0.01318(16)
H13D H 0.3461 -0.1700 -0.0096
H14D H 0.3421 -0.2265 -0.0380
C10D C 0.3519(2) -0.2413(2) 0.03082(16)
C11D C 0.3888(3) -0.4805(2) -0.0867(2)
H15D H 0.3484 -0.4897 -0.0667
H16D H 0.3706 -0.4608 -0.1134
H17D H 0.4133 -0.5152 -0.0960
C12D C 0.6387(3) -0.4119(2) -0.1139(2)
H18D H 0.6223 -0.3875 -0.1385
H19D H 0.6862 -0.3991 -0.1033
H20D H 0.6424 -0.4507 -0.1247
C13D C 0.6086(3) -0.4472(2) -0.03554(19)
H21D H 0.5733 -0.4456 -0.0109
H22D H 0.6127 -0.4860 -0.0464
H23D H 0.6558 -0.4344 -0.0246
C14D C 0.4494(3) -0.1479(2) -0.06228(19)
H24D H 0.4994 -0.1413 -0.0720
H25D H 0.4192 -0.1561 -0.0886
H26D H 0.4310 -0.1142 -0.0471
C15D C 0.3983(3) -0.2212(2) 0.07061(17)
H27D H 0.3868 -0.2437 0.0974
H28D H 0.4496 -0.2257 0.0631
H29D H 0.3881 -0.1815 0.0767
C16D C 0.2694(3) -0.2316(2) 0.0426(2)
H30D H 0.2393 -0.2444 0.0174
H31D H 0.2570 -0.2529 0.0698
H32D H 0.2609 -0.1915 0.0479
C17D C 0.2707(3) -0.1518(2) -0.2440(2)
H33D H 0.2240 -0.1361 -0.2336
H34D H 0.2799 -0.1373 -0.2748
C18D C 0.2650(2) -0.2158(3) -0.24577(19)
H35D H 0.2228 -0.2268 -0.2644
H36D H 0.2576 -0.2308 -0.2150
C19D C 0.3346(3) -0.3032(2) -0.2691(2)
H37D H 0.3360 -0.3188 -0.2378
C20D C 0.4048(3) -0.3225(2) -0.2942(2)
H38D H 0.4081 -0.2999 -0.3221
H39D H 0.3969 -0.3619 -0.3036
C21D C 0.4806(3) -0.3202(2) -0.27124(19)
C22D C 0.5278(3) -0.2280(3) -0.30390(19)
H40D H 0.5738 -0.2437 -0.3154
H41D H 0.4908 -0.2323 -0.3278
C23D C 0.5380(3) -0.1658(3) -0.2937(2)
H42D H 0.5567 -0.1464 -0.3208
H43D H 0.5740 -0.1613 -0.2693
C24D C 0.4712(3) -0.0789(2) -0.2674(2)
H44D H 0.4984 -0.0754 -0.2384
C25D C 0.3929(4) -0.0563(2) -0.2598(2)
H45D H 0.3636 -0.0692 -0.2857
H46D H 0.3956 -0.0148 -0.2619
C26D C 0.3492(3) -0.0699(2) -0.2169(2)
C27D C 0.2684(4) -0.3286(3) -0.2934(3)
H47D H 0.2241 -0.3177 -0.2775
H48D H 0.2666 -0.3145 -0.3244
H49D H 0.2726 -0.3697 -0.2938
C28D C 0.5361(4) -0.3518(3) -0.3025(2)
H50D H 0.5841 -0.3511 -0.2885
H51D H 0.5205 -0.3909 -0.3064
H52D H 0.5381 -0.3332 -0.3319
C29D C 0.4821(4) -0.3493(3) -0.2238(2)
H53D H 0.5308 -0.3463 -0.2109
H54D H 0.4474 -0.3306 -0.2037
H55D H 0.4690 -0.3890 -0.2270
C30D C 0.5084(5) -0.0421(3) -0.3024(3)
H56D H 0.5579 -0.0555 -0.3072
H57D H 0.4815 -0.0439 -0.3308
H58D H 0.5097 -0.0031 -0.2916
C31D C 0.3939(3) -0.0563(3) -0.1735(2)
H59D H 0.3652 -0.0656 -0.1468
H60D H 0.4386 -0.0785 -0.1735
H61D H 0.4060 -0.0161 -0.1731
C32D C 0.2783(4) -0.0325(3) -0.2151(3)
H62D H 0.2512 -0.0412 -0.1876
H63D H 0.2918 0.0073 -0.2151
H64D H 0.2481 -0.0406 -0.2415
O9D O 0.49951(15) -0.39898(13) 0.05580(11)
H85D H 0.4625(15) -0.400(2) 0.0750(11)
H86D H 0.5373(14) -0.3841(18) 0.0695(13)
N3D N 0.36749(19) -0.30381(16) 0.02550(13)
H87D H 0.368(3) -0.318(2) 0.0510(18)
N4D N 0.40908(19) -0.38797(14) -0.04547(14)
H88D H 0.398(3) -0.368(2) -0.0691(17)
N5D N 0.57844(19) -0.34919(16) -0.05538(15)
H89D H 0.613(3) -0.345(2) -0.0412(19)
N6D N 0.47750(19) -0.25054(15) -0.05006(14)
H90D H 0.454(3) -0.260(2) -0.0708(17)
N7D N 0.3305(2) -0.1318(2) -0.21291(15)
H91D H 0.309(3) -0.144(3) -0.192(2)
N8D N 0.3334(2) -0.24060(18) -0.26571(14)
H92D H 0.343(3) -0.222(2) -0.2903(19)
N9D N 0.5048(2) -0.2601(2) -0.26313(15)
H93D H 0.537(3) -0.260(3) -0.246(2)
N10D N 0.4677(2) -0.13945(19) -0.27964(15)
H94D H 0.437(3) -0.148(2) -0.299(2)
Cd2B Cd 0.073272(15) 0.298805(13) -0.219141(11)
Cd2F Cd 0.926728(15) -0.298805(13) 0.219141(11)
O3B O 0.63961(15) 0.23362(13) 0.15671(12)
O3F O 0.36039(15) -0.23362(13) -0.15671(12)
O10 O 0.7595(5) 0.0948(3) 0.1046(6)
loop_
_geom_bond_atom_site_label_1
_geom_bond_atom_site_label_2
_geom_bond_site_symmetry_1
_geom_bond_site_symmetry_2
Cd1 O1 1_555 1_555
Cd2 O5 1_555 1_555
C1 H1 1_555 1_555
H2 C1 1_555 1_555
C2 C1 1_555 1_555
H3 C2 1_555 1_555
H4 C2 1_555 1_555
C3 H5 1_555 1_555
C4 C3 1_555 1_555
H6 C4 1_555 1_555
H7 C4 1_555 1_555
C5 C4 1_555 1_555
C6 H8 1_555 1_555
H9 C6 1_555 1_555
C7 C6 1_555 1_555
H10 C7 1_555 1_555
H11 C7 1_555 1_555
C8 H12 1_555 1_555
C9 C8 1_555 1_555
H13 C9 1_555 1_555
H14 C9 1_555 1_555
C10 C9 1_555 1_555
C11 C3 1_555 1_555
H15 C11 1_555 1_555
H16 C11 1_555 1_555
H17 C11 1_555 1_555
C12 C5 1_555 1_555
H18 C12 1_555 1_555
H19 C12 1_555 1_555
H20 C12 1_555 1_555
C13 C5 1_555 1_555
H21 C13 1_555 1_555
H22 C13 1_555 1_555
H23 C13 1_555 1_555
C14 C8 1_555 1_555
H24 C14 1_555 1_555
H25 C14 1_555 1_555
H26 C14 1_555 1_555
C15 C10 1_555 1_555
H27 C15 1_555 1_555
H28 C15 1_555 1_555
H29 C15 1_555 1_555
C16 C10 1_555 1_555
H30 C16 1_555 1_555
H31 C16 1_555 1_555
H32 C16 1_555 1_555
C17 H33 1_555 1_555
H34 C17 1_555 1_555
C18 C17 1_555 1_555
H35 C18 1_555 1_555
H36 C18 1_555 1_555
C19 H37 1_555 1_555
C20 C19 1_555 1_555
H38 C20 1_555 1_555
H39 C20 1_555 1_555
C21 C20 1_555 1_555
C22 H40 1_555 1_555
H41 C22 1_555 1_555
C23 C22 1_555 1_555
H42 C23 1_555 1_555
H43 C23 1_555 1_555
C24 H44 1_555 1_555
C25 C24 1_555 1_555
H45 C25 1_555 1_555
H46 C25 1_555 1_555
C26 C25 1_555 1_555
C27 C19 1_555 1_555
H47 C27 1_555 1_555
H48 C27 1_555 1_555
H49 C27 1_555 1_555
C28 C21 1_555 1_555
H50 C28 1_555 1_555
H51 C28 1_555 1_555
H52 C28 1_555 1_555
C29 C21 1_555 1_555
H53 C29 1_555 1_555
H54 C29 1_555 1_555
H55 C29 1_555 1_555
C30 C24 1_555 1_555
H56 C30 1_555 1_555
H57 C30 1_555 1_555
H58 C30 1_555 1_555
C31 C26 1_555 1_555
H59 C31 1_555 1_555
H60 C31 1_555 1_555
H61 C31 1_555 1_555
C32 C26 1_555 1_555
H62 C32 1_555 1_555
H63 C32 1_555 1_555
H64 C32 1_555 1_555
C33 C34 1_555 1_555
C34 H65 1_555 1_555
C35 C34 1_555 1_555
C36 C35 1_555 1_555
H66 C36 1_555 1_555
C37 C36 1_555 1_555
C38 C33 1_555 1_555
H67 C38 1_555 1_555
C39 C33 1_555 1_555
C40 C35 1_555 1_555
C41 C37 1_555 1_555
H68 C41 1_555 1_555
H69 C41 1_555 1_555
C42 H70 1_555 1_555
H71 C42 1_555 1_555
C43 C42 1_555 1_555
H72 C43 1_555 1_555
H73 C43 1_555 1_555
C44 C43 1_555 1_555
H74 C44 1_555 1_555
H75 C44 1_555 1_555
C45 H76 1_555 1_555
H77 C45 1_555 1_555
C46 C45 1_555 1_555
C47 C46 1_555 1_555
H78 C47 1_555 1_555
C48 C47 1_555 1_555
C49 C48 1_555 1_555
H79 C49 1_555 1_555
C50 C49 1_555 1_555
C51 C46 1_555 1_555
H80 C51 1_555 1_555
C52 C48 1_555 1_555
C53 C50 1_555 1_555
C54 H81 1_555 1_555
H82 C54 1_555 1_555
C55 C54 1_555 1_555
H83 C55 1_555 1_555
H84 C55 1_555 1_555
N1 C41 1_555 1_555
N2 C44 1_555 1_555
O1 C39 1_555 1_555
O2 C39 1_555 1_555
O3 C40 1_555 1_555
O4 C40 1_555 1_555
O5 C53 1_555 1_555
O6 C53 1_555 1_555
O7 C52 1_555 1_555
O8 C52 1_555 1_555
O9 Cd1 1_555 1_555
H85 O9 1_555 1_555
H86 O9 1_555 1_555
N3 Cd1 1_555 1_555
H87 N3 1_555 1_555
N4 Cd1 1_555 1_555
H88 N4 1_555 1_555
N5 Cd1 1_555 1_555
H89 N5 1_555 1_555
N6 Cd1 1_555 1_555
H90 N6 1_555 1_555
N7 Cd2 1_555 1_555
H91 N7 1_555 1_555
N8 Cd2 1_555 1_555
H92 N8 1_555 1_555
N9 Cd2 1_555 1_555
H93 N9 1_555 1_555
N10 Cd2 1_555 1_555
H94 N10 1_555 1_555
C33D C34D 1_555 1_555
C34D H65D 1_555 1_555
C35D C34D 1_555 1_555
C36D C35D 1_555 1_555
H66D C36D 1_555 1_555
C37D C36D 1_555 1_555
C38D C33D 1_555 1_555
H67D C38D 1_555 1_555
C39D C33D 1_555 1_555
C40D C35D 1_555 1_555
C41D C37D 1_555 1_555
H68D C41D 1_555 1_555
H69D C41D 1_555 1_555
C42D H70D 1_555 1_555
H71D C42D 1_555 1_555
C43D C42D 1_555 1_555
H72D C43D 1_555 1_555
H73D C43D 1_555 1_555
C44D C43D 1_555 1_555
H74D C44D 1_555 1_555
H75D C44D 1_555 1_555
C45D H76D 1_555 1_555
H77D C45D 1_555 1_555
C46D C45D 1_555 1_555
C47D C46D 1_555 1_555
H78D C47D 1_555 1_555
C48D C47D 1_555 1_555
C49D C48D 1_555 1_555
H79D C49D 1_555 1_555
C50D C49D 1_555 1_555
C51D C46D 1_555 1_555
H80D C51D 1_555 1_555
C52D C48D 1_555 1_555
C53D C50D 1_555 1_555
C54D H81D 1_555 1_555
H82D C54D 1_555 1_555
C55D N2 1_555 1_555
H83D C55D 1_555 1_555
H84D C55D 1_555 1_555
N1D C41D 1_555 1_555
N2D C55 1_555 1_555
O1D C39D 1_555 1_555
O2D C39D 1_555 1_555
O3D C40D 1_555 1_555
O4D C40D 1_555 1_555
O5D C53D 1_555 1_555
O6D C53D 1_555 1_555
O7D C52D 1_555 1_555
O8D C52D 1_555 1_555
Cd1D O1D 1_555 1_555
Cd2D O5D 1_555 1_555
C1D H1D 1_555 1_555
H2D C1D 1_555 1_555
C2D C1D 1_555 1_555
H3D C2D 1_555 1_555
H4D C2D 1_555 1_555
C3D H5D 1_555 1_555
C4D C3D 1_555 1_555
H6D C4D 1_555 1_555
H7D C4D 1_555 1_555
C5D C4D 1_555 1_555
C6D H8D 1_555 1_555
H9D C6D 1_555 1_555
C7D C6D 1_555 1_555
H10D C7D 1_555 1_555
H11D C7D 1_555 1_555
C8D H12D 1_555 1_555
C9D C8D 1_555 1_555
H13D C9D 1_555 1_555
H14D C9D 1_555 1_555
C10D C9D 1_555 1_555
C11D C3D 1_555 1_555
H15D C11D 1_555 1_555
H16D C11D 1_555 1_555
H17D C11D 1_555 1_555
C12D C5D 1_555 1_555
H18D C12D 1_555 1_555
H19D C12D 1_555 1_555
H20D C12D 1_555 1_555
C13D C5D 1_555 1_555
H21D C13D 1_555 1_555
H22D C13D 1_555 1_555
H23D C13D 1_555 1_555
C14D C8D 1_555 1_555
H24D C14D 1_555 1_555
H25D C14D 1_555 1_555
H26D C14D 1_555 1_555
C15D C10D 1_555 1_555
H27D C15D 1_555 1_555
H28D C15D 1_555 1_555
H29D C15D 1_555 1_555
C16D C10D 1_555 1_555
H30D C16D 1_555 1_555
H31D C16D 1_555 1_555
H32D C16D 1_555 1_555
C17D H33D 1_555 1_555
H34D C17D 1_555 1_555
C18D C17D 1_555 1_555
H35D C18D 1_555 1_555
H36D C18D 1_555 1_555
C19D H37D 1_555 1_555
C20D C19D 1_555 1_555
H38D C20D 1_555 1_555
H39D C20D 1_555 1_555
C21D C20D 1_555 1_555
C22D H40D 1_555 1_555
H41D C22D 1_555 1_555
C23D C22D 1_555 1_555
H42D C23D 1_555 1_555
H43D C23D 1_555 1_555
C24D H44D 1_555 1_555
C25D C24D 1_555 1_555
H45D C25D 1_555 1_555
H46D C25D 1_555 1_555
C26D C25D 1_555 1_555
C27D C19D 1_555 1_555
H47D C27D 1_555 1_555
H48D C27D 1_555 1_555
H49D C27D 1_555 1_555
C28D C21D 1_555 1_555
H50D C28D 1_555 1_555
H51D C28D 1_555 1_555
H52D C28D 1_555 1_555
C29D C21D 1_555 1_555
H53D C29D 1_555 1_555
H54D C29D 1_555 1_555
H55D C29D 1_555 1_555
C30D C24D 1_555 1_555
H56D C30D 1_555 1_555
H57D C30D 1_555 1_555
H58D C30D 1_555 1_555
C31D C26D 1_555 1_555
H59D C31D 1_555 1_555
H60D C31D 1_555 1_555
H61D C31D 1_555 1_555
C32D C26D 1_555 1_555
H62D C32D 1_555 1_555
H63D C32D 1_555 1_555
H64D C32D 1_555 1_555
O9D Cd1D 1_555 1_555
H85D O9D 1_555 1_555
H86D O9D 1_555 1_555
N3D Cd1D 1_555 1_555
H87D N3D 1_555 1_555
N4D Cd1D 1_555 1_555
H88D N4D 1_555 1_555
N5D Cd1D 1_555 1_555
H89D N5D 1_555 1_555
N6D Cd1D 1_555 1_555
H90D N6D 1_555 1_555
N7D Cd2D 1_555 1_555
H91D N7D 1_555 1_555
N8D Cd2D 1_555 1_555
H92D N8D 1_555 1_555
N9D Cd2D 1_555 1_555
H93D N9D 1_555 1_555
N10D Cd2D 1_555 1_555
H94D N10D 1_555 1_555
Cd2B O3 1_555 1_555
Cd2F O3D 1_555 1_555
O3B Cd2 1_555 1_555
O3F Cd2D 1_555 1_555
C1 N3 1_555 1_555
C2 N4 1_555 1_555
C3 N4 1_555 1_555
C5 N5 1_555 1_555
C6 N5 1_555 1_555
C7 N6 1_555 1_555
C8 N6 1_555 1_555
C10 N3 1_555 1_555
C17 N7 1_555 1_555
C18 N8 1_555 1_555
C19 N8 1_555 1_555
C21 N9 1_555 1_555
C22 N9 1_555 1_555
C23 N10 1_555 1_555
C24 N10 1_555 1_555
C26 N7 1_555 1_555
C37 C38 1_555 1_555
C42 N1 1_555 1_555
C45 N2 1_555 1_555
C50 C51 1_555 1_555
C54 N1 1_555 1_555
C37D C38D 1_555 1_555
C42D N1D 1_555 1_555
C44D N2D 1_555 1_555
C45D N2D 1_555 1_555
C50D C51D 1_555 1_555
C54D C55D 1_555 1_555
C54D N1D 1_555 1_555
C1D N3D 1_555 1_555
C2D N4D 1_555 1_555
C3D N4D 1_555 1_555
C5D N5D 1_555 1_555
C6D N5D 1_555 1_555
C7D N6D 1_555 1_555
C8D N6D 1_555 1_555
C10D N3D 1_555 1_555
C17D N7D 1_555 1_555
C18D N8D 1_555 1_555
C19D N8D 1_555 1_555
C21D N9D 1_555 1_555
C22D N9D 1_555 1_555
C23D N10D 1_555 1_555
C24D N10D 1_555 1_555
C26D N7D 1_555 1_555

#END
