
#######################################################################
#
#                 Cambridge Crystallographic Data Centre
#                                CCDC 
#
#######################################################################
#
# If this CIF has been generated from an entry in the Cambridge 
# Structural Database, then it will include bibliographic, chemical, 
# crystal, experimental, refinement or atomic coordinate data resulting 
# from the CCDC's data processing and validation procedures.
#
#######################################################################

data_KOHTIL
_symmetry_cell_setting           monoclinic
_symmetry_space_group_name_H-M   'P 21/n'
_symmetry_Int_Tables_number      14
_space_group_name_Hall           '-P 2yn'
loop_
_symmetry_equiv_pos_site_id
_symmetry_equiv_pos_as_xyz
1 x,y,z
2 1/2-x,1/2+y,1/2-z
3 -x,-y,-z
4 1/2+x,1/2-y,1/2+z
_cell_length_a                   11.089(2)
_cell_length_b                   15.699(3)
_cell_length_c                   11.355(2)
_cell_angle_alpha                90
_cell_angle_beta                 106.39(3)
_cell_angle_gamma                90
_cell_volume                     1896.42
loop_
_atom_site_label
_atom_site_type_symbol
_atom_site_fract_x
_atom_site_fract_y
_atom_site_fract_z
Ag1 Ag 0.15769(2) 0.579266(14) 0.687741(16)
C1 C 0.4792(2) 0.67729(14) 0.2462(2)
C2 C 0.4155(3) 0.72317(16) 0.1457(2)
H1 H 0.4432 0.7231 0.0756
C3 C 0.3077(3) 0.77072(17) 0.1473(2)
H2 H 0.2634 0.8003 0.0775
C4 C 0.2685(2) 0.77349(16) 0.2499(2)
H3 H 0.1984 0.8059 0.2502
C5 C 0.3325(2) 0.72782(14) 0.3568(2)
C6 C 0.4385(2) 0.67674(14) 0.35547(19)
C7 C 0.4972(2) 0.62977(15) 0.4633(2)
H4 H 0.5645 0.5943 0.4639
C8 C 0.4570(2) 0.63562(15) 0.5659(2)
H5 H 0.4966 0.6034 0.6346
C9 C 0.3562(2) 0.68974(14) 0.5700(2)
C10 C 0.1936(3) 0.51450(18) 0.4518(2)
H6 H 0.2493 0.4806 0.5093
C11 C 0.2002(3) 0.51364(17) 0.3321(2)
H7 H 0.2590 0.4793 0.3106
C12 C 0.1195(2) 0.56391(14) 0.2441(2)
C13 C 0.0317(2) 0.61028(17) 0.2829(2)
H8 H -0.0270 0.6434 0.2269
C14 C 0.0307(2) 0.60776(18) 0.4043(2)
H9 H -0.0291 0.6399 0.4279
C15 C 0.1289(2) 0.56720(14) 0.1167(2)
C16 C 0.0610(3) 0.62294(19) 0.0307(2)
H10 H 0.0063 0.6610 0.0519
C17 C 0.0726(3) 0.62326(19) -0.0872(2)
H11 H 0.0239 0.6616 -0.1432
C18 C 0.2136(4) 0.5185(3) -0.0433(3)
H12 H 0.2676 0.4814 -0.0674
C19 C 0.2066(4) 0.5138(3) 0.0752(3)
H13 H 0.2552 0.4738 0.1284
C20 C 0.2951(2) 0.73380(15) 0.4660(2)
H14 H 0.2274 0.7685 0.4672
N1 N 0.11138(19) 0.56143(13) 0.48885(17)
N2 N 0.1477(2) 0.57299(13) -0.12467(18)
N3 N 0.3178(2) 0.69345(14) 0.6769(2)
O1 O 0.63776(19) 0.64429(12) 0.12327(16)
O2 O 0.71945(17) 0.65860(13) 0.34289(17)
O3 O 0.6009(2) 0.53330(11) 0.25697(18)
S1 S 0.62019(6) 0.62385(4) 0.24270(5)
H17 H 0.277(3) 0.7353(18) 0.682(3)
H18 H 0.374(3) 0.6813(19) 0.743(3)
Ag1_2 Ag 0.15769(2) 0.579266(14) -0.312259(16)
N2_2 N 0.1477(2) 0.57299(13) 0.87533(18)
O4 O 0.4782(3) 0.38880(15) 0.1266(2)
H15 H 0.516(3) 0.4345(17) 0.142(3)
H16 H 0.450(3) 0.3881(18) 0.053(2)
loop_
_geom_bond_atom_site_label_1
_geom_bond_atom_site_label_2
_geom_bond_site_symmetry_1
_geom_bond_site_symmetry_2
Ag1 N1 1_555 1_555
C1 C2 1_555 1_555
C2 H1 1_555 1_555
C3 C2 1_555 1_555
H2 C3 1_555 1_555
C4 C3 1_555 1_555
H3 C4 1_555 1_555
C5 C4 1_555 1_555
C6 C1 1_555 1_555
C7 C6 1_555 1_555
H4 C7 1_555 1_555
C8 C7 1_555 1_555
H5 C8 1_555 1_555
C9 C8 1_555 1_555
C10 H6 1_555 1_555
C11 C10 1_555 1_555
H7 C11 1_555 1_555
C12 C11 1_555 1_555
C13 C12 1_555 1_555
H8 C13 1_555 1_555
C14 C13 1_555 1_555
H9 C14 1_555 1_555
C15 C12 1_555 1_555
C16 C15 1_555 1_555
H10 C16 1_555 1_555
C17 C16 1_555 1_555
H11 C17 1_555 1_555
C18 H12 1_555 1_555
C19 C15 1_555 1_555
H13 C19 1_555 1_555
C20 C5 1_555 1_555
H14 C20 1_555 1_555
N1 C10 1_555 1_555
N2 C17 1_555 1_555
N3 Ag1 1_555 1_555
O1 S1 1_555 1_555
O2 S1 1_555 1_555
O3 S1 1_555 1_555
O4 H15 1_555 1_555
S1 C1 1_555 1_555
H16 O4 1_555 1_555
H17 N3 1_555 1_555
H18 N3 1_555 1_555
Ag1_2 N2 1_555 1_555
N2_2 Ag1 1_555 1_555
C5 C6 1_555 1_555
C9 C20 1_555 1_555
C9 N3 1_555 1_555
C14 N1 1_555 1_555
C18 C19 1_555 1_555
C18 N2 1_555 1_555

#END
