
#######################################################################
#
#                 Cambridge Crystallographic Data Centre
#                                CCDC 
#
#######################################################################
#
# If this CIF has been generated from an entry in the Cambridge 
# Structural Database, then it will include bibliographic, chemical, 
# crystal, experimental, refinement or atomic coordinate data resulting 
# from the CCDC's data processing and validation procedures.
#
#######################################################################

data_KOHVOT
_symmetry_cell_setting           monoclinic
_symmetry_space_group_name_H-M   'C 2/c'
_symmetry_Int_Tables_number      15
_space_group_name_Hall           '-C 2yn'
loop_
_symmetry_equiv_pos_site_id
_symmetry_equiv_pos_as_xyz
1 x,y,z
2 1/2+x,1/2+y,z
3 -x,y,1/2-z
4 1/2-x,1/2+y,1/2-z
5 -x,-y,-z
6 1/2-x,1/2-y,-z
7 x,-y,1/2+z
8 1/2+x,1/2-y,1/2+z
_cell_length_a                   16.818(5)
_cell_length_b                   13.215(5)
_cell_length_c                   16.947(7)
_cell_angle_alpha                90
_cell_angle_beta                 94.991(5)
_cell_angle_gamma                90
_cell_volume                     3752.19
loop_
_atom_site_label
_atom_site_type_symbol
_atom_site_fract_x
_atom_site_fract_y
_atom_site_fract_z
Ag1 Ag 0.0000 0.72964(3) 0.2500
Ag2 Ag -0.405040(13) 0.39892(2) 0.106600(13)
C1 C -0.22538(16) 0.4100(2) 0.15693(15)
H1 H -0.2241 0.3695 0.1122
C2 C -0.15440(15) 0.4298(2) 0.20200(16)
H2 H -0.1070 0.4010 0.1884
C3 C -0.15427(13) 0.49120(19) 0.26574(15)
H3 H -0.1066 0.5048 0.2960
C4 C -0.23171(13) 0.6031(2) 0.35122(14)
C5 C -0.30393(14) 0.64246(19) 0.36532(15)
H4 H -0.3071 0.6878 0.4069
C6 C -0.37349(14) 0.6160(2) 0.31846(16)
H5 H -0.4216 0.6458 0.3289
C7 C -0.37303(14) 0.5479(2) 0.25787(15)
C8 C -0.22623(13) 0.53487(18) 0.28664(14)
C9 C -0.29675(13) 0.50871(19) 0.23897(14)
C10 C 0.42065(17) 0.5746(2) 0.54906(16)
H6 H 0.4256 0.5273 0.5898
C11 C 0.34626(15) 0.5883(2) 0.50913(15)
H7 H 0.3028 0.5505 0.5226
C12 C 0.33715(13) 0.65889(18) 0.44890(13)
C13 C 0.40476(14) 0.7097(2) 0.43135(15)
H8 H 0.4019 0.7568 0.3904
C14 C 0.47676(14) 0.6914(2) 0.47413(15)
H9 H 0.5214 0.7273 0.4612
C15 C 0.11559(14) 0.6622(2) 0.39002(15)
H10 H 0.0696 0.6351 0.4083
C16 C 0.18787(14) 0.6405(2) 0.43080(14)
H11 H 0.1897 0.5987 0.4751
C17 C 0.25770(13) 0.68009(18) 0.40658(13)
C18 C 0.24932(14) 0.7408(2) 0.34002(15)
H12 H 0.2941 0.7700 0.3208
C19 C 0.17589(14) 0.7582(2) 0.30246(15)
H13 H 0.1724 0.7991 0.2577
N1 N -0.29497(12) 0.44634(16) 0.17490(12)
N2 N 0.48536(12) 0.62511(17) 0.53272(13)
N3 N 0.10841(11) 0.71979(16) 0.32607(12)
O1 O -0.12365(11) 0.54529(16) 0.45818(11)
O2 O -0.08645(10) 0.67125(17) 0.36741(10)
O3 O -0.17195(11) 0.71476(17) 0.46711(12)
O4 O -0.43794(9) 0.51597(15) 0.21586(10)
H14 H -0.4895 0.5345 0.2255
S1 S -0.14668(4) 0.63676(6) 0.41600(4)
Ag2B Ag 0.405040(13) 0.39892(2) 0.393400(13)
Ag2F Ag 0.594960(13) 0.60108(2) 0.606600(13)
Ag2D Ag -0.594960(13) 0.60108(2) -0.106600(13)
C1B C 0.22538(16) 0.4100(2) 0.34307(15)
H1B H 0.2241 0.3695 0.3878
C2B C 0.15440(15) 0.4298(2) 0.29800(16)
H2B H 0.1070 0.4010 0.3116
C3B C 0.15427(13) 0.49120(19) 0.23426(15)
H3B H 0.1066 0.5048 0.2040
C4B C 0.23171(13) 0.6031(2) 0.14878(14)
C5B C 0.30393(14) 0.64246(19) 0.13468(15)
H4B H 0.3071 0.6878 0.0931
C6B C 0.37349(14) 0.6160(2) 0.18154(16)
H5B H 0.4216 0.6458 0.1711
C7B C 0.37303(14) 0.5479(2) 0.24213(15)
C8B C 0.22623(13) 0.53487(18) 0.21336(14)
C9B C 0.29675(13) 0.50871(19) 0.26103(14)
C10B C -0.42065(17) 0.5746(2) -0.04906(16)
H6B H -0.4256 0.5273 -0.0898
C11B C -0.34626(15) 0.5883(2) -0.00913(15)
H7B H -0.3028 0.5505 -0.0226
C12B C -0.33715(13) 0.65889(18) 0.05110(13)
C13B C -0.40476(14) 0.7097(2) 0.06865(15)
H8B H -0.4019 0.7568 0.1096
C14B C -0.47676(14) 0.6914(2) 0.02587(15)
H9B H -0.5214 0.7273 0.0388
C15B C -0.11559(14) 0.6622(2) 0.10998(15)
H10B H -0.0696 0.6351 0.0917
C16B C -0.18787(14) 0.6405(2) 0.06920(14)
H11B H -0.1897 0.5987 0.0249
C17B C -0.25770(13) 0.68009(18) 0.09342(13)
C18B C -0.24932(14) 0.7408(2) 0.15998(15)
H12B H -0.2941 0.7700 0.1792
C19B C -0.17589(14) 0.7582(2) 0.19754(15)
H13B H -0.1724 0.7991 0.2423
N1B N 0.29497(12) 0.44634(16) 0.32510(12)
N2B N -0.48536(12) 0.62511(17) -0.03272(13)
N2F N -0.51464(12) 0.37489(17) 0.03272(13)
N2D N 0.51464(12) 0.37489(17) 0.46728(13)
N3B N -0.10841(11) 0.71979(16) 0.17393(12)
O1B O 0.12365(11) 0.54529(16) 0.04182(11)
O2B O 0.08645(10) 0.67125(17) 0.13259(10)
O3B O 0.17195(11) 0.71476(17) 0.03289(12)
O4B O 0.43794(9) 0.51597(15) 0.28414(10)
H14B H 0.4895 0.5345 0.2745
S1B S 0.14668(4) 0.63676(6) 0.08400(4)
O5 O 1.00394(14) 0.5798(2) 0.90916(15)
H15 H 0.9680(14) 0.5419(19) 0.9284(16)
H16 H 1.0403(13) 0.574(2) 0.9487(11)
loop_
_geom_bond_atom_site_label_1
_geom_bond_atom_site_label_2
_geom_bond_site_symmetry_1
_geom_bond_site_symmetry_2
Ag1 N3 1_555 1_555
Ag2 N1 1_555 1_555
C1 H1 1_555 1_555
C2 C1 1_555 1_555
H2 C2 1_555 1_555
C3 C2 1_555 1_555
H3 C3 1_555 1_555
C4 C5 1_555 1_555
C5 H4 1_555 1_555
C6 C5 1_555 1_555
H5 C6 1_555 1_555
C7 C6 1_555 1_555
C8 C3 1_555 1_555
C9 C7 1_555 1_555
C10 H6 1_555 1_555
C11 C10 1_555 1_555
H7 C11 1_555 1_555
C12 C11 1_555 1_555
C13 C12 1_555 1_555
H8 C13 1_555 1_555
C14 C13 1_555 1_555
H9 C14 1_555 1_555
C15 H10 1_555 1_555
C16 C15 1_555 1_555
H11 C16 1_555 1_555
C17 C12 1_555 1_555
C18 C17 1_555 1_555
H12 C18 1_555 1_555
C19 C18 1_555 1_555
H13 C19 1_555 1_555
N1 C1 1_555 1_555
N2 C10 1_555 1_555
N3 C15 1_555 1_555
O1 S1 1_555 1_555
O2 Ag1 1_555 1_555
O3 S1 1_555 1_555
O4 Ag2 1_555 1_555
H14 O4 1_555 1_555
O5 H15 1_555 1_555
S1 C4 1_555 1_555
H16 O5 1_555 1_555
Ag2B N1B 1_555 1_555
Ag2F N2 1_555 1_555
Ag2D N2B 1_555 1_555
C1B H1B 1_555 1_555
C2B C1B 1_555 1_555
H2B C2B 1_555 1_555
C3B C2B 1_555 1_555
H3B C3B 1_555 1_555
C4B C5B 1_555 1_555
C5B H4B 1_555 1_555
C6B C5B 1_555 1_555
H5B C6B 1_555 1_555
C7B C6B 1_555 1_555
C8B C3B 1_555 1_555
C9B C7B 1_555 1_555
C10B H6B 1_555 1_555
C11B C10B 1_555 1_555
H7B C11B 1_555 1_555
C12B C11B 1_555 1_555
C13B C12B 1_555 1_555
H8B C13B 1_555 1_555
C14B C13B 1_555 1_555
H9B C14B 1_555 1_555
C15B H10B 1_555 1_555
C16B C15B 1_555 1_555
H11B C16B 1_555 1_555
C17B C12B 1_555 1_555
C18B C17B 1_555 1_555
H12B C18B 1_555 1_555
C19B C18B 1_555 1_555
H13B C19B 1_555 1_555
N1B C1B 1_555 1_555
N2B C10B 1_555 1_555
N2F Ag2 1_555 1_555
N2D Ag2B 1_555 1_555
N3B Ag1 1_555 1_555
O1B S1B 1_555 1_555
O2B Ag1 1_555 1_555
O3B S1B 1_555 1_555
O4B Ag2B 1_555 1_555
H14B O4B 1_555 1_555
S1B C4B 1_555 1_555
C4 C8 1_555 1_555
C7 O4 1_555 1_555
C8 C9 1_555 1_555
C9 N1 1_555 1_555
C14 N2 1_555 1_555
C16 C17 1_555 1_555
C19 N3 1_555 1_555
O2 S1 1_555 1_555
C4B C8B 1_555 1_555
C7B O4B 1_555 1_555
C8B C9B 1_555 1_555
C9B N1B 1_555 1_555
C14B N2B 1_555 1_555
C15B N3B 1_555 1_555
C16B C17B 1_555 1_555
C19B N3B 1_555 1_555
O2B S1B 1_555 1_555

#END
