
#######################################################################
#
#                 Cambridge Crystallographic Data Centre
#                                CCDC 
#
#######################################################################
#
# If this CIF has been generated from an entry in the Cambridge 
# Structural Database, then it will include bibliographic, chemical, 
# crystal, experimental, refinement or atomic coordinate data resulting 
# from the CCDC's data processing and validation procedures.
#
#######################################################################

data_KOHVAF
_symmetry_cell_setting           triclinic
_symmetry_space_group_name_H-M   'P -1'
_symmetry_Int_Tables_number      2
_space_group_name_Hall           '-P 1'
loop_
_symmetry_equiv_pos_site_id
_symmetry_equiv_pos_as_xyz
1 x,y,z
2 -x,-y,-z
_cell_length_a                   9.992(2)
_cell_length_b                   10.059(1)
_cell_length_c                   10.216(2)
_cell_angle_alpha                103.93(3)
_cell_angle_beta                 111.48(1)
_cell_angle_gamma                103.55(1)
_cell_volume                     866.273
loop_
_atom_site_label
_atom_site_type_symbol
_atom_site_fract_x
_atom_site_fract_y
_atom_site_fract_z
Ag1 Ag -0.12942(3) 0.39222(3) 0.08450(3)
C1 C 0.1693(3) 0.8519(3) 0.3848(3)
C2 C 0.0933(3) 0.8688(3) 0.4724(3)
H1 H -0.0053 0.8717 0.4315
C3 C 0.1641(4) 0.8816(3) 0.6214(4)
H2 H 0.1136 0.8961 0.6811
C4 C 0.3105(3) 0.8731(3) 0.6840(3)
C5 C 0.3867(4) 0.8595(4) 0.5943(4)
H3 H 0.4856 0.8572 0.6345
C6 C 0.3171(4) 0.8495(4) 0.4467(4)
H4 H 0.3695 0.8411 0.3882
C7 C 0.1149(4) 0.4922(3) 0.4111(3)
H5 H 0.0778 0.5689 0.4173
C8 C 0.2265(4) 0.4948(3) 0.5399(3)
H6 H 0.2627 0.5715 0.6307
C9 C 0.2858(3) 0.3825(3) 0.5350(3)
C10 C 0.2251(3) 0.2711(3) 0.3966(3)
H7 H 0.2601 0.1930 0.3875
C11 C 0.5284(4) 0.5150(3) 0.7754(4)
H8 H 0.5285 0.6029 0.7610
C12 C 0.4085(3) 0.3844(3) 0.6727(3)
C13 C 0.4120(3) 0.2599(3) 0.7057(3)
H9 H 0.3325 0.1706 0.6429
C14 C 0.5332(4) 0.2680(3) 0.8318(4)
H10 H 0.5323 0.1825 0.8520
C15 C 0.6464(4) 0.5141(4) 0.8976(4)
H11 H 0.7264 0.6024 0.9633
C16 C 0.1121(3) 0.2768(3) 0.2719(3)
H12 H 0.0727 0.2010 0.1797
N1 N 0.3744(4) 0.8734(4) 0.8287(4)
N2 N 0.0566(3) 0.3859(3) 0.2773(3)
N3 N 0.6517(3) 0.3915(3) 0.9267(3)
O1 O 0.0164(3) 0.6665(2) 0.1104(3)
O2 O 0.1947(4) 0.8930(3) 0.1531(3)
O3 O -0.0425(4) 0.8835(4) 0.1708(3)
S1 S 0.07540(10) 0.82240(9) 0.19061(9)
H13 H 0.481(5) 0.891(4) 0.876(4)
H14 H 0.352(6) 0.922(5) 0.888(6)
Ag1_2 Ag 0.87058(3) 0.39222(3) 1.08450(3)
Ag1A Ag 0.12942(3) 0.60778(3) -0.08450(3)
N3_2 N -0.3483(3) 0.3915(3) -0.0733(3)
O1A O -0.0164(3) 0.3335(2) -0.1104(3)
O4 O 0.2934(3) 0.0916(4) 0.0433(4)
H15 H 0.224(5) 0.104(5) -0.016(5)
H16 H 0.251(5) 0.015(4) 0.056(5)
loop_
_geom_bond_atom_site_label_1
_geom_bond_atom_site_label_2
_geom_bond_site_symmetry_1
_geom_bond_site_symmetry_2
Ag1 N2 1_555 1_555
C1 C2 1_555 1_555
C2 H1 1_555 1_555
C3 C2 1_555 1_555
H2 C3 1_555 1_555
C4 C3 1_555 1_555
C5 C4 1_555 1_555
H3 C5 1_555 1_555
C6 C1 1_555 1_555
H4 C6 1_555 1_555
C7 H5 1_555 1_555
C8 C7 1_555 1_555
H6 C8 1_555 1_555
C9 C8 1_555 1_555
C10 C9 1_555 1_555
H7 C10 1_555 1_555
C11 H8 1_555 1_555
C12 C9 1_555 1_555
C13 C12 1_555 1_555
H9 C13 1_555 1_555
C14 C13 1_555 1_555
H10 C14 1_555 1_555
C15 C11 1_555 1_555
H11 C15 1_555 1_555
C16 C10 1_555 1_555
H12 C16 1_555 1_555
N1 C4 1_555 1_555
N2 C7 1_555 1_555
N3 C14 1_555 1_555
O1 Ag1 1_555 1_555
O2 S1 1_555 1_555
O3 S1 1_555 1_555
O4 H15 1_555 1_555
S1 C1 1_555 1_555
H13 N1 1_555 1_555
H14 N1 1_555 1_555
H16 O4 1_555 1_555
Ag1_2 N3 1_555 1_555
Ag1A O1 1_555 1_555
N3_2 Ag1 1_555 1_555
O1A Ag1 1_555 1_555
C5 C6 1_555 1_555
C11 C12 1_555 1_555
C15 N3 1_555 1_555
C16 N2 1_555 1_555
O1 S1 1_555 1_555
Ag1A O1A 1_555 1_555

#END
