
#######################################################################
#
#                 Cambridge Crystallographic Data Centre
#                                CCDC 
#
#######################################################################
#
# If this CIF has been generated from an entry in the Cambridge 
# Structural Database, then it will include bibliographic, chemical, 
# crystal, experimental, refinement or atomic coordinate data resulting 
# from the CCDC's data processing and validation procedures.
#
#######################################################################

data_KOHWEK
_symmetry_cell_setting           monoclinic
_symmetry_space_group_name_H-M   'C c'
_symmetry_Int_Tables_number      9
_space_group_name_Hall           'C -2yc'
loop_
_symmetry_equiv_pos_site_id
_symmetry_equiv_pos_as_xyz
1 x,y,z
2 x,-y,1/2+z
3 1/2+x,1/2+y,z
4 1/2+x,1/2-y,1/2+z
_cell_length_a                   11.809(2)
_cell_length_b                   18.114(4)
_cell_length_c                   20.703(4)
_cell_angle_alpha                90
_cell_angle_beta                 95.88(3)
_cell_angle_gamma                90
_cell_volume                     4405.24
loop_
_atom_site_label
_atom_site_type_symbol
_atom_site_fract_x
_atom_site_fract_y
_atom_site_fract_z
Ag1 Ag 1.11236(3) 0.747566(19) 0.347481(16)
Ag3 Ag 0.74831(3) 0.25424(2) 0.132100(17)
C1 C 0.7262(3) 0.48407(19) 0.39191(17)
C2 C 0.7935(3) 0.48603(19) 0.33872(16)
C3 C 0.7455(3) 0.47704(18) 0.27354(16)
H1 H 0.6677 0.4687 0.2647
C4 C 0.8131(4) 0.48050(17) 0.22353(17)
C5 C 0.9313(4) 0.4936(2) 0.23563(19)
H2 H 0.9759 0.4969 0.2013
C6 C 0.9798(3) 0.50124(19) 0.29822(18)
C7 C 0.9128(3) 0.49749(17) 0.35158(16)
C8 C 0.9607(3) 0.5027(2) 0.41770(18)
H3 H 1.0389 0.5088 0.4267
C9 C 0.8954(4) 0.4991(2) 0.46730(17)
H4 H 0.9285 0.5018 0.5100
C10 C 0.7772(4) 0.4914(2) 0.45424(18)
H5 H 0.7322 0.4911 0.4886
C11 C 1.3300(5) 0.7433(2) 0.5650(2)
C12 C 1.2785(5) 0.8061(2) 0.5384(2)
H6 H 1.2871 0.8506 0.5609
C13 C 1.2146(5) 0.8039(2) 0.4788(2)
H7 H 1.1815 0.8474 0.4622
C14 C 1.2419(4) 0.6804(2) 0.4704(2)
H8 H 1.2279 0.6364 0.4479
C15 C 1.3076(4) 0.6786(2) 0.5301(2)
H9 H 1.3366 0.6339 0.5466
C16 C 1.4024(5) 0.7440(2) 0.6280(3)
C17 C 1.4208(5) 0.8092(2) 0.6625(2)
H10 H 1.3895 0.8532 0.6457
C18 C 1.4511(4) 0.6815(2) 0.6570(2)
H11 H 1.4409 0.6363 0.6359
C19 C 1.4852(5) 0.8086(3) 0.7216(2)
H12 H 1.4976 0.8534 0.7432
C20 C 1.5137(4) 0.6849(2) 0.7160(2)
H13 H 1.5458 0.6415 0.7335
C31 C 0.3280(3) 0.3114(2) -0.23250(18)
H22 H 0.2817 0.3507 -0.2473
C32 C 0.3844(3) 0.3148(2) -0.17077(18)
H23 H 0.3765 0.3564 -0.1452
C33 C 0.4529(5) 0.2566(2) -0.1464(2)
C34 C 0.4617(4) 0.1961(2) -0.18787(17)
H24 H 0.5064 0.1557 -0.1740
C35 C 0.4034(4) 0.1967(2) -0.24964(18)
H25 H 0.4106 0.1562 -0.2765
C36 C 0.6222(4) 0.3191(3) 0.0077(2)
H26 H 0.6508 0.3629 0.0263
C37 C 0.5587(4) 0.3223(2) -0.0526(2)
H27 H 0.5448 0.3673 -0.0735
C38 C 0.5163(5) 0.2574(2) -0.0813(3)
C39 C 0.5369(4) 0.1919(2) -0.0465(2)
H28 H 0.5085 0.1473 -0.0636
C40 C 0.5995(4) 0.1936(3) 0.0135(2)
H29 H 0.6114 0.1496 0.0364
N1 N 0.6442(5) 0.2558(2) 0.0404(2)
N2 N 0.3376(4) 0.25289(19) -0.2722(3)
N5 N 1.1982(5) 0.7424(2) 0.4441(3)
N6 N 1.5314(4) 0.74798(18) 0.7501(2)
O1 O 0.6366(3) 0.4587(2) 0.14125(14)
O2 O 0.8121(3) 0.40123(16) 0.12054(14)
O3 O 0.7908(4) 0.53212(17) 0.10787(14)
O4 O 1.1658(3) 0.5244(2) 0.24552(16)
O5 O 1.1786(3) 0.46028(16) 0.34943(17)
O6 O 1.1384(3) 0.59121(15) 0.34316(15)
O7 O 0.5364(3) 0.4777(2) 0.44383(14)
O8 O 0.5327(2) 0.52895(16) 0.33592(14)
O9 O 0.5597(3) 0.39750(17) 0.35176(15)
S1 S 1.12863(8) 0.52085(5) 0.31019(5)
S2 S 0.75790(9) 0.46700(5) 0.14165(4)
S3 S 0.57638(8) 0.47077(5) 0.37927(4)
Ag1C Ag 1.61236(3) 0.752434(19) 0.847481(16)
Ag1B Ag 0.61236(3) 0.247566(19) 0.347481(16)
Ag3C Ag 0.24831(3) 0.24576(2) -0.367900(17)
N2C N 0.8376(4) 0.24711(19) 0.2278(3)
N6C N 1.0314(4) 0.75202(18) 0.2501(2)
O9B O 1.0597(3) 0.89750(17) 0.35176(15)
Ag2 Ag 1.02495(3) 0.76497(2) 0.594301(18)
C21 C 0.6338(4) 0.6771(2) 0.2276(2)
H14 H 0.5972 0.6335 0.2140
C22 C 0.6946(4) 0.6788(2) 0.28814(19)
H15 H 0.6976 0.6373 0.3147
C23 C 0.7514(5) 0.7431(2) 0.3092(2)
C24 C 0.7428(4) 0.8040(2) 0.26807(19)
H16 H 0.7786 0.8482 0.2805
C25 C 0.6800(4) 0.7973(2) 0.20843(19)
H17 H 0.6754 0.8379 0.1809
C26 C 0.8767(4) 0.8164(2) 0.4702(2)
H18 H 0.8782 0.8608 0.4927
C27 C 0.8215(4) 0.8139(2) 0.4096(2)
H19 H 0.7884 0.8566 0.3913
C28 C 0.8134(4) 0.7482(2) 0.3743(2)
C29 C 0.8694(4) 0.6870(2) 0.4049(2)
H20 H 0.8689 0.6419 0.3835
C30 C 0.9254(4) 0.6939(2) 0.4667(2)
H21 H 0.9614 0.6527 0.4862
N3 N 0.9295(5) 0.75755(19) 0.4993(2)
N4 N 0.6252(4) 0.7352(2) 0.1879(2)
O12 O 1.0480(3) 0.60947(18) 0.59395(18)
O13 O 1.0452(5) 0.9166(3) 0.5669(3)
H32 H 1.080(7) 0.576(5) 0.572(5)
H33 H 0.970(5) 0.594(6) 0.575(5)
Ag2C Ag 0.52495(3) 0.73503(2) 0.094301(18)
N4C N 1.1252(4) 0.7648(2) 0.6879(2)
O10 O 0.8299(7) 0.9004(4) 0.6309(3)
O11 O 0.3101(4) 0.5077(3) 0.4616(2)
H30 H 0.277(8) 0.482(5) 0.424(4)
H31 H 0.369(6) 0.482(5) 0.469(5)
O14 O 0.3873(4) 0.4940(4) 0.2213(2)
H36 H 0.314(4) 0.495(6) 0.226(5)
H37 H 0.415(8) 0.515(6) 0.258(3)
O15 O 1.1712(5) 0.5109(4) 0.0608(3)
H34 H 1.202(8) 0.499(6) 0.022(3)
H35 H 1.238(6) 0.525(6) 0.084(4)
loop_
_geom_bond_atom_site_label_1
_geom_bond_atom_site_label_2
_geom_bond_site_symmetry_1
_geom_bond_site_symmetry_2
Ag1 N5 1_555 1_555
Ag2 N3 1_555 1_555
Ag3 N1 1_555 1_555
C1 C2 1_555 1_555
C2 C3 1_555 1_555
C3 H1 1_555 1_555
C4 C3 1_555 1_555
C5 C4 1_555 1_555
H2 C5 1_555 1_555
C6 C5 1_555 1_555
C7 C2 1_555 1_555
C8 C7 1_555 1_555
H3 C8 1_555 1_555
C9 C8 1_555 1_555
H4 C9 1_555 1_555
C10 C1 1_555 1_555
H5 C10 1_555 1_555
C11 C12 1_555 1_555
C12 H6 1_555 1_555
C13 C12 1_555 1_555
H7 C13 1_555 1_555
C14 H8 1_555 1_555
C15 C11 1_555 1_555
H9 C15 1_555 1_555
C16 C11 1_555 1_555
C17 C16 1_555 1_555
H10 C17 1_555 1_555
C18 C16 1_555 1_555
H11 C18 1_555 1_555
C19 C17 1_555 1_555
H12 C19 1_555 1_555
C20 C18 1_555 1_555
H13 C20 1_555 1_555
C21 H14 1_555 1_555
C22 C21 1_555 1_555
H15 C22 1_555 1_555
C23 C22 1_555 1_555
C24 C23 1_555 1_555
H16 C24 1_555 1_555
C25 C24 1_555 1_555
H17 C25 1_555 1_555
C26 H18 1_555 1_555
C27 C26 1_555 1_555
H19 C27 1_555 1_555
C28 C23 1_555 1_555
C29 C28 1_555 1_555
H20 C29 1_555 1_555
C30 C29 1_555 1_555
H21 C30 1_555 1_555
C31 H22 1_555 1_555
C32 C31 1_555 1_555
H23 C32 1_555 1_555
C33 C32 1_555 1_555
C34 C33 1_555 1_555
H24 C34 1_555 1_555
C35 C34 1_555 1_555
H25 C35 1_555 1_555
C36 H26 1_555 1_555
C37 C36 1_555 1_555
H27 C37 1_555 1_555
C38 C33 1_555 1_555
C39 C38 1_555 1_555
H28 C39 1_555 1_555
C40 C39 1_555 1_555
H29 C40 1_555 1_555
N1 C36 1_555 1_555
N2 C31 1_555 1_555
N3 C26 1_555 1_555
N4 C21 1_555 1_555
N5 C13 1_555 1_555
N6 C19 1_555 1_555
O1 S2 1_555 1_555
O2 Ag3 1_555 1_555
O3 S2 1_555 1_555
O4 S1 1_555 1_555
O5 S1 1_555 1_555
O6 Ag1 1_555 1_555
O7 S3 1_555 1_555
O8 S3 1_555 1_555
O9 S3 1_555 1_555
O11 H30 1_555 1_555
O12 Ag2 1_555 1_555
O13 Ag2 1_555 1_555
O14 H36 1_555 1_555
S1 C6 1_555 1_555
S2 C4 1_555 1_555
S3 C1 1_555 1_555
O15 H34 1_555 1_555
H31 O11 1_555 1_555
H32 O12 1_555 1_555
H33 O12 1_555 1_555
H35 O15 1_555 1_555
H37 O14 1_555 1_555
Ag1C N6 1_555 1_555
Ag1B O9 1_555 1_555
Ag2C N4 1_555 1_555
Ag3C N2 1_555 1_555
N2C Ag3 1_555 1_555
N4C Ag2 1_555 1_555
N6C Ag1 1_555 1_555
O9B Ag1 1_555 1_555
C6 C7 1_555 1_555
C9 C10 1_555 1_555
C14 C15 1_555 1_555
C14 N5 1_555 1_555
C20 N6 1_555 1_555
C25 N4 1_555 1_555
C27 C28 1_555 1_555
C30 N3 1_555 1_555
C35 N2 1_555 1_555
C37 C38 1_555 1_555
C40 N1 1_555 1_555
O2 S2 1_555 1_555
O6 S1 1_555 1_555

#END
