
#######################################################################
#
#                 Cambridge Crystallographic Data Centre
#                                CCDC 
#
#######################################################################
#
# If this CIF has been generated from an entry in the Cambridge 
# Structural Database, then it will include bibliographic, chemical, 
# crystal, experimental, refinement or atomic coordinate data resulting 
# from the CCDC's data processing and validation procedures.
#
#######################################################################

data_KOHWUA
_symmetry_cell_setting           triclinic
_symmetry_space_group_name_H-M   'P -1'
_symmetry_Int_Tables_number      2
_space_group_name_Hall           '-P 1'
loop_
_symmetry_equiv_pos_site_id
_symmetry_equiv_pos_as_xyz
1 x,y,z
2 -x,-y,-z
_cell_length_a                   9.835(2)
_cell_length_b                   10.322(2)
_cell_length_c                   10.979(2)
_cell_angle_alpha                70.75(3)
_cell_angle_beta                 84.63(3)
_cell_angle_gamma                70.97(3)
_cell_volume                     994.61
loop_
_atom_site_label
_atom_site_type_symbol
_atom_site_fract_x
_atom_site_fract_y
_atom_site_fract_z
La1 La 0.40312(6) 0.90587(6) 1.41938(5)
Cu1 Cu 0.5000 0.5000 1.5000
O1 O 0.3325(8) 0.6727(8) 1.5009(8)
O2 O 0.1626(9) 0.8768(9) 1.4797(9)
O3 O -0.3587(8) 0.8836(8) 1.5149(8)
O4 O -0.3798(9) 0.6836(9) 1.5030(9)
O5 O -0.0220(12) 0.2434(12) 1.7846(15)
O6 O 0.1969(11) 0.2281(10) 1.7602(12)
O7 O 0.3824(9) 0.8427(9) 0.6483(7)
O8 O 0.4840(9) 0.9465(9) 0.7422(8)
O9 O 0.4393(10) 0.8020(10) 1.2484(8)
O10 O 0.4917(9) 0.5588(9) 1.3185(8)
O11 O 0.2370(13) 0.3685(12) 1.1101(10)
O12 O 0.2030(18) 0.4516(16) 0.9069(11)
O13 O 0.2196(9) 1.0792(10) 1.2618(9)
N1 N 0.0733(12) 0.2979(11) 1.7441(11)
N2 N 0.2415(13) 0.4582(13) 1.0044(11)
C1 C 0.0948(12) 0.6644(11) 1.5662(11)
C2 C -0.0517(12) 0.7414(13) 1.5403(11)
H1 H -0.0803 0.8410 1.5005
C3 C -0.1522(12) 0.6715(12) 1.5729(11)
C4 C -0.1116(12) 0.5224(13) 1.6408(11)
H2 H -0.1796 0.4738 1.6632
C5 C 0.0328(12) 0.4497(12) 1.6736(11)
C6 C 0.1361(11) 0.5185(13) 1.6356(11)
H3 H 0.2325 0.4673 1.6565
C7 C 0.2013(12) 0.7437(13) 1.5128(11)
C8 C -0.3058(13) 0.7502(12) 1.5275(10)
C9 C 0.3864(11) 0.7684(12) 0.8746(10)
C10 C 0.4208(13) 0.7818(13) 0.9878(10)
H4 H 0.4535 0.8576 0.9852
C11 C 0.4066(12) 0.6809(12) 1.1075(11)
C12 C 0.3532(12) 0.5709(12) 1.1101(11)
H5 H 0.3491 0.4999 1.1876
C13 C 0.3065(13) 0.5681(13) 0.9971(11)
C14 C 0.3272(13) 0.6626(13) 0.8783(11)
H6 H 0.3014 0.6548 0.8023
C15 C 0.4183(12) 0.8623(12) 0.7450(10)
C16 C 0.4508(12) 0.6839(12) 1.2340(11)
H7 H 0.1237 1.1037 1.2519
H8 H 0.2414 1.1543 1.2289
La1A La 0.59688(6) 0.09413(6) 1.58062(5)
La1_2 La -0.59688(6) 0.90587(6) 1.41938(5)
La1A_2 La -0.40312(6) 1.09413(6) 1.58062(5)
La1_3 La 0.40312(6) 0.90587(6) 0.41938(5)
La1A_3 La 0.59688(6) 1.09413(6) 0.58062(5)
La1_4 La 1.40312(6) -0.09413(6) 1.41938(5)
La1A_4 La 1.59688(6) 0.09413(6) 1.58062(5)
La1A_5 La 0.59688(6) 0.09413(6) 2.58062(5)
La1_5 La 0.40312(6) -0.09413(6) 2.41938(5)
Cu1_2 Cu -0.5000 0.5000 1.5000
Cu1_3 Cu 1.5000 0.5000 1.5000
O1A O 0.6675(8) 0.3273(8) 1.4991(8)
O2A O 0.8374(9) 0.1232(9) 1.5203(9)
O3A O 1.3587(8) 0.1164(8) 1.4851(8)
O3_2 O 0.6413(8) 0.8836(8) 1.5149(8)
O3A_2 O 0.3587(8) 1.1164(8) 1.4851(8)
O3_3 O 0.6413(8) -0.1164(8) 1.5149(8)
O3A_3 O 0.3587(8) 0.1164(8) 1.4851(8)
O4A O 1.3798(9) 0.3164(9) 1.4970(9)
O4_2 O 0.6202(9) 0.6836(9) 1.5030(9)
O4A_2 O 0.3798(9) 0.3164(9) 1.4970(9)
O5A O 1.0220(12) 0.7566(12) 1.2154(15)
O6A O 0.8031(11) 0.7719(10) 1.2398(12)
O7A O 0.6176(9) 0.1573(9) 2.3517(7)
O7_2 O 0.3824(9) 0.8427(9) 1.6483(7)
O7A_2 O 0.6176(9) 0.1573(9) 1.3517(7)
O8A O 0.5160(9) 0.0535(9) 2.2578(8)
O8A_2 O 0.5160(9) 1.0535(9) 1.2578(8)
O8_2 O 0.4840(9) -0.0535(9) 1.7422(8)
O9A O 0.5607(10) 0.1980(10) 1.7516(8)
O10A O 0.5083(9) 0.4412(9) 1.6815(8)
O11A O 0.7630(13) 0.6315(12) 1.8899(10)
O12A O 0.7970(18) 0.5484(16) 2.0931(11)
O13A O 0.7804(9) -0.0792(10) 1.7382(9)
N1A N 0.9267(12) 0.7021(11) 1.2559(11)
N2A N 0.7585(13) 0.5418(13) 1.9956(11)
C1A C 0.9052(12) 0.3356(11) 1.4338(11)
C2A C 1.0517(12) 0.2586(13) 1.4597(11)
H1A H 1.0803 0.1590 1.4995
C3A C 1.1522(12) 0.3285(12) 1.4271(11)
C4A C 1.1116(12) 0.4776(13) 1.3592(11)
H2A H 1.1796 0.5262 1.3368
C5A C 0.9672(12) 0.5503(12) 1.3264(11)
C6A C 0.8639(11) 0.4815(13) 1.3644(11)
H3A H 0.7675 0.5327 1.3435
C7A C 0.7987(12) 0.2563(13) 1.4872(11)
C8A C 1.3058(13) 0.2498(12) 1.4725(10)
C9A C 0.6136(11) 0.2316(12) 2.1254(10)
C10A C 0.5792(13) 0.2182(13) 2.0122(10)
H4A H 0.5465 0.1424 2.0148
C11A C 0.5934(12) 0.3191(12) 1.8925(11)
C12A C 0.6468(12) 0.4291(12) 1.8899(11)
H5A H 0.6509 0.5001 1.8124
C13A C 0.6935(13) 0.4319(13) 2.0029(11)
C14A C 0.6728(13) 0.3374(13) 2.1217(11)
H6A H 0.6986 0.3452 2.1977
C15A C 0.5817(12) 0.1377(12) 2.2550(10)
C16A C 0.5492(12) 0.3161(12) 1.7660(11)
H7A H 0.8763 -0.1037 1.7481
H8A H 0.7586 -0.1543 1.7711
loop_
_geom_bond_atom_site_label_1
_geom_bond_atom_site_label_2
_geom_bond_site_symmetry_1
_geom_bond_site_symmetry_2
La1 O1 1_555 1_555
Cu1 O1 1_555 1_555
O1 C7 1_555 1_555
O2 La1 1_555 1_555
O3 C8 1_555 1_555
O4 C8 1_555 1_555
O5 N1 1_555 1_555
O6 N1 1_555 1_555
O7 C15 1_555 1_555
O8 C15 1_555 1_555
O9 La1 1_555 1_555
O10 Cu1 1_555 1_555
O11 N2 1_555 1_555
O12 N2 1_555 1_555
O13 La1 1_555 1_555
N1 C5 1_555 1_555
N2 C13 1_555 1_555
C1 C2 1_555 1_555
C2 H1 1_555 1_555
C3 C2 1_555 1_555
C4 C3 1_555 1_555
H2 C4 1_555 1_555
C5 C4 1_555 1_555
C6 C1 1_555 1_555
H3 C6 1_555 1_555
C7 O2 1_555 1_555
C8 C3 1_555 1_555
C9 C10 1_555 1_555
C10 H4 1_555 1_555
C11 C10 1_555 1_555
C12 C11 1_555 1_555
H5 C12 1_555 1_555
C13 C12 1_555 1_555
C14 C9 1_555 1_555
H6 C14 1_555 1_555
C15 C9 1_555 1_555
C16 O9 1_555 1_555
H7 O13 1_555 1_555
H8 O13 1_555 1_555
La1A O1A 1_555 1_555
La1_2 O3 1_555 1_555
La1A_2 O3 1_555 1_555
La1_3 O7 1_555 1_555
La1A_3 O8 1_555 1_555
La1_4 O3A 1_555 1_555
La1A_4 O3A 1_555 1_555
La1A_5 O7A 1_555 1_555
La1_5 O8A 1_555 1_555
Cu1_2 O4 1_555 1_555
Cu1_3 O4A 1_555 1_555
O1A Cu1 1_555 1_555
O2A La1A 1_555 1_555
O3A C8A 1_555 1_555
O3_2 La1 1_555 1_555
O3A_2 La1 1_555 1_555
O3_3 La1A 1_555 1_555
O3A_3 La1A 1_555 1_555
O4A La1A_4 1_555 1_555
O4_2 La1 1_555 1_555
O4A_2 Cu1 1_555 1_555
O5A N1A 1_555 1_555
O6A N1A 1_555 1_555
O7A C15A 1_555 1_555
O7_2 La1 1_555 1_555
O7A_2 La1A 1_555 1_555
O8A C15A 1_555 1_555
O8A_2 La1 1_555 1_555
O8_2 La1A 1_555 1_555
O9A La1A 1_555 1_555
O10A Cu1 1_555 1_555
O11A N2A 1_555 1_555
O12A N2A 1_555 1_555
O13A La1A 1_555 1_555
N1A C5A 1_555 1_555
N2A C13A 1_555 1_555
C1A C2A 1_555 1_555
C2A H1A 1_555 1_555
C3A C2A 1_555 1_555
C4A C3A 1_555 1_555
H2A C4A 1_555 1_555
C5A C4A 1_555 1_555
C6A C1A 1_555 1_555
H3A C6A 1_555 1_555
C7A O1A 1_555 1_555
C8A O4A 1_555 1_555
C9A C10A 1_555 1_555
C10A H4A 1_555 1_555
C11A C10A 1_555 1_555
C12A C11A 1_555 1_555
H5A C12A 1_555 1_555
C13A C12A 1_555 1_555
C14A C9A 1_555 1_555
H6A C14A 1_555 1_555
C15A C9A 1_555 1_555
C16A O9A 1_555 1_555
H7A O13A 1_555 1_555
H8A O13A 1_555 1_555
Cu1 O4_2 1_555 1_555
O4 La1_2 1_555 1_555
O10 C16 1_555 1_555
C1 C7 1_555 1_555
C5 C6 1_555 1_555
C11 C16 1_555 1_555
C13 C14 1_555 1_555
La1A O4A_2 1_555 1_555
O2A C7A 1_555 1_555
O10A C16A 1_555 1_555
C1A C7A 1_555 1_555
C3A C8A 1_555 1_555
C5A C6A 1_555 1_555
C11A C16A 1_555 1_555
C13A C14A 1_555 1_555

#END
