
#######################################################################
#
#                 Cambridge Crystallographic Data Centre
#                                CCDC 
#
#######################################################################
#
# If this CIF has been generated from an entry in the Cambridge 
# Structural Database, then it will include bibliographic, chemical, 
# crystal, experimental, refinement or atomic coordinate data resulting 
# from the CCDC's data processing and validation procedures.
#
#######################################################################

data_KOHWIO
_symmetry_cell_setting           triclinic
_symmetry_space_group_name_H-M   'P -1'
_symmetry_Int_Tables_number      2
_space_group_name_Hall           '-P 1'
loop_
_symmetry_equiv_pos_site_id
_symmetry_equiv_pos_as_xyz
1 x,y,z
2 -x,-y,-z
_cell_length_a                   8.2278(16)
_cell_length_b                   11.123(2)
_cell_length_c                   12.977(3)
_cell_angle_alpha                91.94(3)
_cell_angle_beta                 105.96(3)
_cell_angle_gamma                93.67(3)
_cell_volume                     1137.87
loop_
_atom_site_label
_atom_site_type_symbol
_atom_site_fract_x
_atom_site_fract_y
_atom_site_fract_z
La1 La 0.56478(3) 0.852097(18) 0.655769(18)
Cu1 Cu 0.08588(6) 0.62221(4) 0.53208(4)
O1 O 0.4964(4) 0.6847(3) 0.7771(2)
O2 O 0.3082(3) 0.6739(2) 0.6221(2)
O3 O -0.0464(4) 0.2290(2) 0.5324(2)
O4 O 0.0721(4) 0.0956(3) 0.6427(3)
O5 O 0.5366(7) 0.1770(4) 0.9459(4)
O6 O 0.6497(5) 0.3544(4) 0.9943(3)
O7 O 0.6255(4) 1.0716(3) 0.6700(3)
O8 O 0.5134(4) 1.1880(3) 0.5369(2)
O9 O 0.6826(4) 1.6524(3) 0.6244(3)
O10 O 0.9643(4) 1.6655(3) 0.6681(2)
O11 O 1.1584(6) 1.4139(4) 0.9922(4)
O12 O 1.0861(8) 1.2279(5) 0.9640(4)
O13 O 0.1162(3) 0.4566(2) 0.5684(2)
O14 O 0.2859(4) 0.9358(3) 0.5827(3)
H1 H 0.2173 0.8824 0.5481
O15 O 0.4576(6) 0.9407(3) 0.8121(3)
H2 H 0.3715 0.9011 0.8148
O16 O 0.8060(5) 0.8621(4) 0.8284(3)
H3 H 0.8942 0.8475 0.8144
O17 O 0.8454(4) 0.8952(3) 0.6153(3)
H4 H 0.8803 0.9656 0.6336
N1 N 0.5458(5) 0.2862(4) 0.9331(3)
N2 N 1.0700(6) 1.3319(4) 0.9409(3)
C1 C 0.3447(5) 0.4947(3) 0.7258(3)
C2 C 0.2194(5) 0.4168(3) 0.6552(3)
C3 C 0.2040(5) 0.2935(3) 0.6801(3)
C4 C 0.3095(5) 0.2522(4) 0.7704(3)
H5 H 0.2992 0.1714 0.7856
C5 C 0.4309(6) 0.3302(4) 0.8388(3)
C6 C 0.4503(5) 0.4518(3) 0.8177(3)
H6 H 0.5331 0.5035 0.8648
C7 C 0.3833(5) 0.6246(3) 0.7083(3)
C8 C 0.0681(5) 0.2007(3) 0.6144(3)
C9 C 0.7178(5) 1.2768(3) 0.6904(3)
C10 C 0.7103(5) 1.3921(3) 0.6519(3)
H7 H 0.6286 1.4058 0.5888
C11 C 0.8231(5) 1.4877(3) 0.7063(3)
C12 C 0.9440(5) 1.4672(3) 0.8018(3)
H8 H 1.0224 1.5290 0.8382
C13 C 0.9451(6) 1.3542(4) 0.8410(3)
C14 C 0.8353(5) 1.2582(4) 0.7857(3)
H9 H 0.8414 1.1819 0.8131
C15 C 0.6114(5) 1.1706(3) 0.6277(3)
C16 C 0.8215(5) 1.6111(3) 0.6619(3)
H12 H 0.900(3) 0.8306(19) 0.607(3)
H13 H 0.272(4) 0.995(2) 0.627(2)
H14 H 0.547(3) 0.980(3) 0.859(3)
H15 H 0.791(4) 0.831(3) 0.8874(17)
La1A La 0.43522(3) 1.147903(18) 0.344231(18)
La1_2 La 0.56478(3) 1.852097(18) 0.655769(18)
Cu1A Cu -0.08588(6) 0.37779(4) 0.46792(4)
Cu1_2 Cu 1.08588(6) 1.62221(4) 0.53208(4)
O3A O 0.0464(4) 0.7710(2) 0.4676(2)
O8A O 0.4866(4) 0.8120(3) 0.4631(2)
O9_2 O 0.6826(4) 0.6524(3) 0.6244(3)
O10_2 O -0.0357(4) 0.6655(3) 0.6681(2)
O13A O -0.1162(3) 0.5434(2) 0.4316(2)
O18 O 0.1586(5) 0.8193(5) 0.8391(4)
H10 H 0.245(2) 0.773(2) 0.844(4)
H11 H 0.166(5) 0.782(3) 0.9008(16)
loop_
_geom_bond_atom_site_label_1
_geom_bond_atom_site_label_2
_geom_bond_site_symmetry_1
_geom_bond_site_symmetry_2
La1 O1 1_555 1_555
Cu1 O2 1_555 1_555
O1 C7 1_555 1_555
O2 La1 1_555 1_555
O3 C8 1_555 1_555
O4 C8 1_555 1_555
O5 N1 1_555 1_555
O6 N1 1_555 1_555
O7 La1 1_555 1_555
O8 C15 1_555 1_555
O9 C16 1_555 1_555
O10 C16 1_555 1_555
O11 N2 1_555 1_555
O12 N2 1_555 1_555
O13 Cu1 1_555 1_555
O14 La1 1_555 1_555
H1 O14 1_555 1_555
O15 La1 1_555 1_555
H2 O15 1_555 1_555
O16 La1 1_555 1_555
H3 O16 1_555 1_555
O17 La1 1_555 1_555
H4 O17 1_555 1_555
O18 H10 1_555 1_555
N1 C5 1_555 1_555
N2 C13 1_555 1_555
C1 C2 1_555 1_555
C2 O13 1_555 1_555
C3 C2 1_555 1_555
C4 C3 1_555 1_555
H5 C4 1_555 1_555
C5 C4 1_555 1_555
C6 C1 1_555 1_555
H6 C6 1_555 1_555
C7 O2 1_555 1_555
C8 C3 1_555 1_555
C9 C10 1_555 1_555
C10 H7 1_555 1_555
C11 C10 1_555 1_555
C12 C11 1_555 1_555
H8 C12 1_555 1_555
C13 C12 1_555 1_555
C14 C9 1_555 1_555
H9 C14 1_555 1_555
C15 O7 1_555 1_555
C16 C11 1_555 1_555
H11 O18 1_555 1_555
H12 O17 1_555 1_555
H13 O14 1_555 1_555
H14 O15 1_555 1_555
H15 O16 1_555 1_555
La1A O8 1_555 1_555
La1_2 O9 1_555 1_555
Cu1A O3 1_555 1_555
Cu1_2 O10 1_555 1_555
O3A Cu1 1_555 1_555
O8A La1 1_555 1_555
O9_2 La1 1_555 1_555
O10_2 Cu1 1_555 1_555
O13A Cu1 1_555 1_555
O13 Cu1A 1_555 1_555
C1 C7 1_555 1_555
C5 C6 1_555 1_555
C9 C15 1_555 1_555
C13 C14 1_555 1_555
Cu1A O13A 1_555 1_555

#END
