
#######################################################################
#
#                 Cambridge Crystallographic Data Centre
#                                CCDC 
#
#######################################################################
#
# If this CIF has been generated from an entry in the Cambridge 
# Structural Database, then it will include bibliographic, chemical, 
# crystal, experimental, refinement or atomic coordinate data resulting 
# from the CCDC's data processing and validation procedures.
#
#######################################################################

data_KOHWAG
_symmetry_cell_setting           monoclinic
_symmetry_space_group_name_H-M   'P 21/c'
_symmetry_Int_Tables_number      14
_space_group_name_Hall           '-P 2ybc'
loop_
_symmetry_equiv_pos_site_id
_symmetry_equiv_pos_as_xyz
1 x,y,z
2 -x,1/2+y,1/2-z
3 -x,-y,-z
4 x,1/2-y,1/2+z
_cell_length_a                   18.944(4)
_cell_length_b                   11.431(2)
_cell_length_c                   13.951(3)
_cell_angle_alpha                90
_cell_angle_beta                 100.24(3)
_cell_angle_gamma                90
_cell_volume                     2972.95
loop_
_atom_site_label
_atom_site_type_symbol
_atom_site_fract_x
_atom_site_fract_y
_atom_site_fract_z
Ag1 Ag 0.23925(4) 0.11032(5) 0.87243(7)
C11 C 0.1812(5) 0.3633(8) 0.8243(8)
H9 H 0.1392 0.3235 0.7993
C12 C 0.1804(5) 0.4823(7) 0.8202(8)
H10 H 0.1388 0.5209 0.7915
C13 C 0.2414(5) 0.5470(8) 0.8585(7)
C14 C 0.3025(5) 0.4811(8) 0.8972(8)
H11 H 0.3451 0.5182 0.9239
C15 C 0.2982(5) 0.3558(8) 0.8951(8)
H12 H 0.3394 0.3129 0.9183
C16 C 0.2414(5) 0.6774(7) 0.8641(7)
C17 C 0.1785(5) 0.7372(7) 0.8651(7)
H13 H 0.1356 0.6968 0.8631
C18 C 0.1797(5) 0.8574(7) 0.8692(8)
H14 H 0.1366 0.8958 0.8706
C19 C 0.3001(5) 0.8616(8) 0.8699(7)
H15 H 0.3426 0.9030 0.8719
C20 C 0.3032(5) 0.7401(7) 0.8657(8)
H16 H 0.3464 0.7022 0.8639
C26 C 0.0039(5) 0.1625(6) 0.5190(7)
H20 H 0.0037 0.2305 0.4824
C27 C 0.0092(5) 0.1694(7) 0.6171(7)
H21 H 0.0114 0.2424 0.6469
C28 C 0.0115(4) 0.0667(8) 0.6747(7)
C29 C 0.0062(5) -0.0413(8) 0.6310(7)
H22 H 0.0058 -0.1081 0.6689
C30 C -0.0015(4) 0.0524(6) 0.4720(7)
N3 N 0.2393(4) 0.2999(7) 0.8624(6)
N4 N 0.2392(4) 0.9238(5) 0.8714(6)
O1 O 0.0015(4) -0.0341(6) 0.8388(6)
O2 O -0.0407(4) 0.1668(6) 0.8115(5)
O3 O 0.0857(4) 0.1239(6) 0.8425(6)
O8 O 0.3813(4) 0.1123(7) 0.9471(7)
S1 S 0.01486(12) 0.08277(19) 0.80217(18)
H24 H 0.418(4) 0.100(9) 0.920(7)
H25 H 0.393(7) 0.094(12) 1.007(4)
Ag1_2 Ag 0.23925(4) -0.88968(5) 0.87243(7)
Ag1_3 Ag 0.23925(4) 1.11032(5) 0.87243(7)
Ag1B Ag -0.23925(4) -0.11032(5) 0.12757(7)
C11_2 C 0.1812(5) -0.6367(8) 0.8243(8)
H9_2 H 0.1392 -0.6765 0.7993
C12_2 C 0.1804(5) -0.5177(7) 0.8202(8)
H10_2 H 0.1388 -0.4791 0.7915
C13_2 C 0.2414(5) -0.4530(8) 0.8585(7)
C14_2 C 0.3025(5) -0.5189(8) 0.8972(8)
H11_2 H 0.3451 -0.4818 0.9239
C15_2 C 0.2982(5) -0.6442(8) 0.8951(8)
H12_2 H 0.3394 -0.6871 0.9183
C16_2 C 0.2414(5) -0.3226(7) 0.8641(7)
C17_2 C 0.1785(5) -0.2628(7) 0.8651(7)
H13_2 H 0.1356 -0.3032 0.8631
C18_2 C 0.1797(5) -0.1426(7) 0.8692(8)
H14_2 H 0.1366 -0.1042 0.8706
C19_2 C 0.3001(5) -0.1384(8) 0.8699(7)
H15_2 H 0.3426 -0.0970 0.8719
C20_2 C 0.3032(5) -0.2599(7) 0.8657(8)
H16_2 H 0.3464 -0.2978 0.8639
C26B C -0.0039(5) -0.1625(6) 0.4810(7)
H20B H -0.0037 -0.2305 0.5176
C27B C -0.0092(5) -0.1694(7) 0.3829(7)
H21B H -0.0114 -0.2424 0.3531
C28B C -0.0115(4) -0.0667(8) 0.3253(7)
C29B C -0.0062(5) 0.0413(8) 0.3690(7)
H22B H -0.0058 0.1081 0.3311
C30B C 0.0015(4) -0.0524(6) 0.5280(7)
N3_2 N 0.2393(4) -0.7001(7) 0.8624(6)
N4_2 N 0.2392(4) -0.0762(5) 0.8714(6)
N4_3 N 0.2392(4) -1.0762(5) 0.8714(6)
O1B O -0.0015(4) 0.0341(6) 0.1612(6)
O2B O 0.0407(4) -0.1668(6) 0.1885(5)
O3B O -0.0857(4) -0.1239(6) 0.1575(6)
O3_2 O 0.0857(4) -0.8761(6) 0.8425(6)
O8_2 O 0.3813(4) -0.8877(7) 0.9471(7)
S1B S -0.01486(12) -0.08277(19) 0.19783(18)
H24_2 H 0.418(4) -0.900(9) 0.920(7)
H25_2 H 0.393(7) -0.906(12) 1.007(4)
Ag2 Ag 0.25886(4) 0.45180(6) 0.61419(7)
C1 C 0.1985(5) 0.2011(8) 0.5900(9)
H1 H 0.1568 0.2415 0.5645
C2 C 0.1953(5) 0.0781(7) 0.5925(8)
H2 H 0.1526 0.0388 0.5697
C3 C 0.2569(4) 0.0174(6) 0.6296(7)
C4 C 0.3197(5) 0.0803(8) 0.6668(8)
H3 H 0.3614 0.0410 0.6943
C5 C 0.3186(5) 0.2006(8) 0.6618(9)
H4 H 0.3606 0.2409 0.6865
C6 C 0.3204(5) -0.2976(8) 0.6208(8)
H5 H 0.3632 -0.3379 0.6215
C7 C 0.3214(4) -0.1758(7) 0.6240(8)
H6 H 0.3644 -0.1362 0.6246
C8 C 0.2582(4) -0.1116(6) 0.6264(6)
C9 C 0.1955(5) -0.1815(7) 0.6248(7)
H7 H 0.1520 -0.1449 0.6274
C10 C 0.1978(5) -0.2989(7) 0.6195(7)
H8 H 0.1556 -0.3412 0.6176
C21 C 0.4913(6) 0.5735(13) 0.8666(10)
H17 H 0.4886 0.6458 0.8355
C22 C 0.4888(5) 0.4652(11) 0.8202(9)
C23 C 0.4886(7) 0.3529(12) 0.8636(8)
H18 H 0.4844 0.2864 0.8247
C24 C 0.4947(6) 0.3415(8) 0.9653(10)
H19 H 0.4948 0.2683 0.9945
C25 C 0.4992(5) 0.5549(6) 0.9785(9)
N1 N 0.2591(4) 0.2646(5) 0.6227(6)
N2 N 0.2599(4) -0.3578(7) 0.6169(6)
O4 O 0.5074(6) 0.5770(8) 0.6639(7)
O5 O 0.5328(5) 0.3714(10) 0.6750(7)
O6 O 0.4106(4) 0.4397(8) 0.6499(6)
O7 O 0.1135(4) 0.4471(7) 0.5529(6)
S2 S 0.48506(13) 0.4624(2) 0.6919(2)
H23 H 0.078(5) 0.457(12) 0.577(8)
H26 H 0.100(7) 0.430(15) 0.495(5)
Ag2_2 Ag 0.25886(4) 1.45180(6) 0.61419(7)
Ag2_3 Ag 0.25886(4) -0.54820(6) 0.61419(7)
Ag2B Ag 0.74114(4) 0.54820(6) 1.38581(7)
C1_2 C 0.1985(5) 1.2011(8) 0.5900(9)
H1_2 H 0.1568 1.2415 0.5645
C2_2 C 0.1953(5) 1.0781(7) 0.5925(8)
H2_2 H 0.1526 1.0388 0.5697
C3_2 C 0.2569(4) 1.0174(6) 0.6296(7)
C4_2 C 0.3197(5) 1.0803(8) 0.6668(8)
H3_2 H 0.3614 1.0410 0.6943
C5_2 C 0.3186(5) 1.2006(8) 0.6618(9)
H4_2 H 0.3606 1.2409 0.6865
C6_2 C 0.3204(5) 0.7024(8) 0.6208(8)
H5_2 H 0.3632 0.6621 0.6215
C7_2 C 0.3214(4) 0.8242(7) 0.6240(8)
H6_2 H 0.3644 0.8638 0.6246
C8_2 C 0.2582(4) 0.8884(6) 0.6264(6)
C9_2 C 0.1955(5) 0.8185(7) 0.6248(7)
H7_2 H 0.1520 0.8551 0.6274
C10_2 C 0.1978(5) 0.7011(7) 0.6195(7)
H8_2 H 0.1556 0.6588 0.6176
C21B C 0.5087(6) 0.4265(13) 1.1334(10)
H17B H 0.5114 0.3542 1.1645
C22B C 0.5112(5) 0.5348(11) 1.1798(9)
C23B C 0.5114(7) 0.6471(12) 1.1364(8)
H18B H 0.5156 0.7136 1.1753
C24B C 0.5053(6) 0.6585(8) 1.0347(10)
H19B H 0.5052 0.7317 1.0055
C25B C 0.5008(5) 0.4451(6) 1.0215(9)
N1_2 N 0.2591(4) 1.2646(5) 0.6227(6)
N2_2 N 0.2599(4) 0.6422(7) 0.6169(6)
N2_3 N 0.2599(4) 1.6422(7) 0.6169(6)
O4B O 0.4926(6) 0.4230(8) 1.3361(7)
O5B O 0.4672(5) 0.6286(10) 1.3250(7)
O6B O 0.5894(4) 0.5603(8) 1.3501(6)
O6_2 O 0.4106(4) 1.4397(8) 0.6499(6)
O7_2 O 0.1135(4) 1.4471(7) 0.5529(6)
S2B S 0.51494(13) 0.5376(2) 1.3081(2)
H23_2 H 0.078(5) 1.457(12) 0.577(8)
H26_2 H 0.100(7) 1.430(15) 0.495(5)
loop_
_geom_bond_atom_site_label_1
_geom_bond_atom_site_label_2
_geom_bond_site_symmetry_1
_geom_bond_site_symmetry_2
Ag1 N3 1_555 1_555
Ag2 N1 1_555 1_555
C1 H1 1_555 1_555
C2 C1 1_555 1_555
H2 C2 1_555 1_555
C3 C2 1_555 1_555
C4 C3 1_555 1_555
H3 C4 1_555 1_555
C5 C4 1_555 1_555
H4 C5 1_555 1_555
C6 H5 1_555 1_555
C7 C6 1_555 1_555
H6 C7 1_555 1_555
C8 C3 1_555 1_555
C9 C8 1_555 1_555
H7 C9 1_555 1_555
C10 C9 1_555 1_555
H8 C10 1_555 1_555
C11 H9 1_555 1_555
C12 C11 1_555 1_555
H10 C12 1_555 1_555
C13 C12 1_555 1_555
C14 C13 1_555 1_555
H11 C14 1_555 1_555
C15 C14 1_555 1_555
H12 C15 1_555 1_555
C16 C13 1_555 1_555
C17 C16 1_555 1_555
H13 C17 1_555 1_555
C18 C17 1_555 1_555
H14 C18 1_555 1_555
C19 H15 1_555 1_555
C20 C16 1_555 1_555
H16 C20 1_555 1_555
C21 H17 1_555 1_555
C22 C21 1_555 1_555
C23 C22 1_555 1_555
H18 C23 1_555 1_555
C24 C23 1_555 1_555
H19 C24 1_555 1_555
C25 C21 1_555 1_555
C26 H20 1_555 1_555
C27 C26 1_555 1_555
H21 C27 1_555 1_555
C28 C27 1_555 1_555
C29 C28 1_555 1_555
H22 C29 1_555 1_555
C30 C26 1_555 1_555
N1 C1 1_555 1_555
N2 C6 1_555 1_555
N3 C11 1_555 1_555
N4 C18 1_555 1_555
O1 S1 1_555 1_555
O2 S1 1_555 1_555
O3 Ag1 1_555 1_555
O4 S2 1_555 1_555
O5 S2 1_555 1_555
O6 Ag2 1_555 1_555
O7 Ag2 1_555 1_555
O8 Ag1 1_555 1_555
S1 C28 1_555 1_555
S2 C22 1_555 1_555
H23 O7 1_555 1_555
H24 O8 1_555 1_555
H25 O8 1_555 1_555
H26 O7 1_555 1_555
Ag1_2 N3_2 1_555 1_555
Ag1_3 N4 1_555 1_555
Ag1B O3B 1_555 1_555
Ag2_2 N1_2 1_555 1_555
Ag2_3 N2 1_555 1_555
Ag2B O6B 1_555 1_555
C1_2 H1_2 1_555 1_555
C2_2 C1_2 1_555 1_555
H2_2 C2_2 1_555 1_555
C3_2 C2_2 1_555 1_555
C4_2 C3_2 1_555 1_555
H3_2 C4_2 1_555 1_555
C5_2 C4_2 1_555 1_555
H4_2 C5_2 1_555 1_555
C6_2 H5_2 1_555 1_555
C7_2 C6_2 1_555 1_555
H6_2 C7_2 1_555 1_555
C8_2 C3_2 1_555 1_555
C9_2 C8_2 1_555 1_555
H7_2 C9_2 1_555 1_555
C10_2 C9_2 1_555 1_555
H8_2 C10_2 1_555 1_555
C11_2 H9_2 1_555 1_555
C12_2 C11_2 1_555 1_555
H10_2 C12_2 1_555 1_555
C13_2 C12_2 1_555 1_555
C14_2 C13_2 1_555 1_555
H11_2 C14_2 1_555 1_555
C15_2 C14_2 1_555 1_555
H12_2 C15_2 1_555 1_555
C16_2 C13_2 1_555 1_555
C17_2 C16_2 1_555 1_555
H13_2 C17_2 1_555 1_555
C18_2 C17_2 1_555 1_555
H14_2 C18_2 1_555 1_555
C19_2 H15_2 1_555 1_555
C20_2 C16_2 1_555 1_555
H16_2 C20_2 1_555 1_555
C21B H17B 1_555 1_555
C22B C21B 1_555 1_555
C23B C22B 1_555 1_555
H18B C23B 1_555 1_555
C24B C25 1_555 1_555
H19B C24B 1_555 1_555
C25B C24 1_555 1_555
C26B H20B 1_555 1_555
C27B C26B 1_555 1_555
H21B C27B 1_555 1_555
C28B C27B 1_555 1_555
C29B C30 1_555 1_555
H22B C29B 1_555 1_555
C30B C29 1_555 1_555
N1_2 C1_2 1_555 1_555
N2_2 Ag2 1_555 1_555
N2_3 Ag2_2 1_555 1_555
N3_2 C11_2 1_555 1_555
N4_2 Ag1 1_555 1_555
N4_3 Ag1_2 1_555 1_555
O1B S1B 1_555 1_555
O2B S1B 1_555 1_555
O3B S1B 1_555 1_555
O3_2 Ag1_2 1_555 1_555
O4B S2B 1_555 1_555
O5B S2B 1_555 1_555
O6B S2B 1_555 1_555
O6_2 Ag2_2 1_555 1_555
O7_2 Ag2_2 1_555 1_555
O8_2 Ag1_2 1_555 1_555
S1B C28B 1_555 1_555
S2B C22B 1_555 1_555
H23_2 O7_2 1_555 1_555
H24_2 O8_2 1_555 1_555
H25_2 O8_2 1_555 1_555
H26_2 O7_2 1_555 1_555
C5 N1 1_555 1_555
C7 C8 1_555 1_555
C10 N2 1_555 1_555
C15 N3 1_555 1_555
C19 C20 1_555 1_555
C19 N4 1_555 1_555
C25 C25B 1_555 1_555
C30 C30B 1_555 1_555
O3 S1 1_555 1_555
O6 S2 1_555 1_555
C5_2 N1_2 1_555 1_555
C6_2 N2_2 1_555 1_555
C7_2 C8_2 1_555 1_555
C10_2 N2_2 1_555 1_555
C15_2 N3_2 1_555 1_555
C18_2 N4_2 1_555 1_555
C19_2 C20_2 1_555 1_555
C19_2 N4_2 1_555 1_555
C21B C25B 1_555 1_555
C23B C24B 1_555 1_555
C26B C30B 1_555 1_555
C28B C29B 1_555 1_555

#END
