
#######################################################################
#
#                 Cambridge Crystallographic Data Centre
#                                CCDC 
#
#######################################################################
#
# If this CIF has been generated from an entry in the Cambridge 
# Structural Database, then it will include bibliographic, chemical, 
# crystal, experimental, refinement or atomic coordinate data resulting 
# from the CCDC's data processing and validation procedures.
#
#######################################################################

data_KOHWOU
_symmetry_cell_setting           triclinic
_symmetry_space_group_name_H-M   'P -1'
_symmetry_Int_Tables_number      2
_space_group_name_Hall           '-P 1'
loop_
_symmetry_equiv_pos_site_id
_symmetry_equiv_pos_as_xyz
1 x,y,z
2 -x,-y,-z
_cell_length_a                   10.259(2)
_cell_length_b                   10.491(2)
_cell_length_c                   11.112(2)
_cell_angle_alpha                75.76(3)
_cell_angle_beta                 63.72(3)
_cell_angle_gamma                67.13(3)
_cell_volume                     984.081
loop_
_atom_site_label
_atom_site_type_symbol
_atom_site_fract_x
_atom_site_fract_y
_atom_site_fract_z
La1 La 1.227010(5) 0.328470(5) 0.310850(5)
Cu1 Cu 1.5000 0.5000 1.0000
O1 O 1.22150(7) 0.45882(8) 0.46732(7)
O2 O 1.03785(8) 0.54004(9) 0.65930(7)
O3 O 1.16956(8) 0.36581(11) 1.07965(8)
O4 O 1.39764(7) 0.36349(7) 1.04526(7)
O5 O 1.78340(9) 0.14339(11) 0.61515(9)
O6 O 1.75270(8) 0.26634(9) 0.43759(8)
O7 O 1.33825(7) 0.63548(8) 0.94815(7)
O8 O 1.49912(7) 0.68848(8) 0.74376(7)
O9 O 1.29986(9) 1.12113(9) 0.47756(8)
O10 O 1.05995(8) 1.25481(8) 0.56916(8)
O11 O 0.70564(9) 1.05263(11) 0.95640(10)
O12 O 0.78995(9) 0.87590(9) 1.07962(9)
O13 O 1.41307(11) 0.09318(9) 0.19649(10)
O14 O 1.20286(9) 0.59205(8) 0.22752(7)
O15 O 1.08979(9) 0.16181(8) 0.32356(9)
N1 N 1.70435(9) 0.23227(10) 0.55847(9)
N2 N 0.81037(9) 0.95810(9) 0.97984(9)
C1 C 1.28624(10) 0.41668(10) 0.65621(9)
C2 C 1.23983(10) 0.42204(10) 0.79323(9)
C3 C 1.34714(10) 0.36773(10) 0.85277(9)
C4 C 1.50144(10) 0.30599(11) 0.77573(10)
C5 C 1.54295(10) 0.30041(11) 0.64015(10)
C6 C 1.44033(10) 0.35472(11) 0.57724(9)
C7 C 1.17250(10) 0.47609(10) 0.58883(9)
C8 C 1.29758(10) 0.36857(10) 1.00120(9)
C9 C 1.23716(10) 0.82550(10) 0.81493(9)
C10 C 1.26360(10) 0.92691(10) 0.70730(10)
C11 C 1.14230(10) 1.03852(10) 0.69008(9)
C12 C 0.99262(10) 1.04911(10) 0.78038(10)
C13 C 0.96869(10) 0.94621(10) 0.88485(10)
C14 C 1.08702(10) 0.83392(10) 0.90422(9)
C15 C 1.36956(10) 0.70837(10) 0.83482(9)
C16 C 1.16949(11) 1.14620(10) 0.57192(10)
H1 H 1.3677(12) 0.9172(12) 0.6472(12)
H2 H 1.0665(13) 0.7664(13) 0.9748(12)
H3 H 1.4718(13) 0.3485(13) 0.4842(12)
H4 H 0.9102(13) 1.1225(13) 0.7692(12)
H5 H 1.1351(13) 0.4632(13) 0.8453(12)
H6 H 1.5790(13) 0.2668(13) 0.8166(12)
H7 H 1.1897(13) 0.6268(13) 0.1621(13)
H8 H 1.1279(13) 0.6334(13) 0.2940(13)
H9 H 1.1166(13) 0.0957(13) 0.3409(12)
H10 H 1.4876(13) 0.0763(13) 0.1374(12)
H11 H 1.0027(13) 0.1969(13) 0.3505(12)
H12 H 1.4214(13) 0.0438(13) 0.2436(13)
La1A La 1.772990(5) 0.671530(5) 1.689150(5)
La1A_2 La 0.772990(5) 0.671530(5) 0.689150(5)
La1_2 La 1.227010(5) 0.328470(5) 1.310850(5)
La1A_3 La 1.772990(5) 0.671530(5) 0.689150(5)
La1_3 La 1.227010(5) 1.328470(5) 0.310850(5)
La1_4 La 2.227010(5) 0.328470(5) 1.310850(5)
La1A_4 La 1.772990(5) -0.328470(5) 1.689150(5)
O1A O 1.77850(7) 0.54118(8) 1.53268(7)
O2A O 1.96215(8) 0.45996(9) 1.34070(7)
O2A_2 O 0.96215(8) 0.45996(9) 0.34070(7)
O2_2 O 2.03785(8) 0.54004(9) 1.65930(7)
O3A O 1.83044(8) 0.63419(11) 0.92035(8)
O3_2 O 1.16956(8) 0.36581(11) 0.07965(8)
O3A_2 O 1.83044(8) 0.63419(11) 1.92035(8)
O4A O 1.60236(7) 0.63651(7) 0.95474(7)
O4_2 O 1.39764(7) 0.36349(7) 0.04526(7)
O4A_2 O 1.60236(7) 0.63651(7) 1.95474(7)
O5A O 1.21660(9) 0.85661(11) 1.38485(9)
O6A O 1.24730(8) 0.73366(9) 1.56241(8)
O7A O 1.66175(7) 0.36452(8) 1.05185(7)
O8A O 1.50088(7) 0.31152(8) 1.25624(7)
O8A_2 O 1.50088(7) 0.31152(8) 0.25624(7)
O8_2 O 1.49912(7) 0.68848(8) 1.74376(7)
O9A O 1.70014(9) -0.12113(9) 1.52244(8)
O9_2 O 1.29986(9) 0.12113(9) 0.47756(8)
O9A_2 O 1.70014(9) 0.87887(9) 1.52244(8)
O10A O 1.94005(8) -0.25481(8) 1.43084(8)
O10_2 O 1.05995(8) 0.25481(8) 0.56916(8)
O10A_2 O 1.94005(8) 0.74519(8) 1.43084(8)
O11A O 2.29436(9) -0.05263(11) 1.04360(10)
O12A O 2.21005(9) 0.12410(9) 0.92038(9)
O13A O 1.58693(11) 0.90682(9) 1.80351(10)
O14A O 1.79714(9) 0.40795(8) 1.77248(7)
O15A O 1.91021(9) 0.83819(8) 1.67644(9)
N1A N 1.29565(9) 0.76773(10) 1.44153(9)
N2A N 2.18963(9) 0.04190(9) 1.02016(9)
C1A C 1.71376(10) 0.58332(10) 1.34379(9)
C2A C 1.76017(10) 0.57796(10) 1.20677(9)
C3A C 1.65286(10) 0.63227(10) 1.14723(9)
C4A C 1.49856(10) 0.69401(11) 1.22427(10)
C5A C 1.45705(10) 0.69959(11) 1.35985(10)
C6A C 1.55967(10) 0.64528(11) 1.42276(9)
C7A C 1.82750(10) 0.52391(10) 1.41117(9)
C8A C 1.70242(10) 0.63143(10) 0.99880(9)
C9A C 1.76284(10) 0.17450(10) 1.18507(9)
C10A C 1.73640(10) 0.07309(10) 1.29270(10)
C11A C 1.85770(10) -0.03852(10) 1.30992(9)
C12A C 2.00738(10) -0.04911(10) 1.21962(10)
C13A C 2.03131(10) 0.05379(10) 1.11515(10)
C14A C 1.91298(10) 0.16608(10) 1.09578(9)
C15A C 1.63044(10) 0.29163(10) 1.16518(9)
C16A C 1.83051(11) -0.14620(10) 1.42808(10)
H1A H 1.6323(12) 0.0828(12) 1.3528(12)
H2A H 1.9335(13) 0.2336(13) 1.0252(12)
H3A H 1.5282(13) 0.6515(13) 1.5158(12)
H4A H 2.0898(13) -0.1225(13) 1.2308(12)
H5A H 1.8649(13) 0.5368(13) 1.1547(12)
H6A H 1.4210(13) 0.7332(13) 1.1834(12)
H7A H 1.8103(13) 0.3732(13) 1.8379(13)
H8A H 1.8721(13) 0.3666(13) 1.7060(13)
H9A H 1.8834(13) 0.9043(13) 1.6591(12)
H10A H 1.5124(13) 0.9237(13) 1.8626(12)
H11A H 1.9973(13) 0.8031(13) 1.6495(12)
H12A H 1.5786(13) 0.9562(13) 1.7564(13)
loop_
_geom_bond_atom_site_label_1
_geom_bond_atom_site_label_2
_geom_bond_site_symmetry_1
_geom_bond_site_symmetry_2
La1 O1 1_555 1_555
Cu1 O4 1_555 1_555
O1 C7 1_555 1_555
O2 C7 1_555 1_555
O3 C8 1_555 1_555
O4 C8 1_555 1_555
O5 N1 1_555 1_555
O6 N1 1_555 1_555
O7 Cu1 1_555 1_555
O8 C15 1_555 1_555
O9 C16 1_555 1_555
O10 C16 1_555 1_555
O11 N2 1_555 1_555
O12 N2 1_555 1_555
O13 La1 1_555 1_555
O14 La1 1_555 1_555
O15 La1 1_555 1_555
N1 C5 1_555 1_555
N2 C13 1_555 1_555
C1 C2 1_555 1_555
C2 C3 1_555 1_555
C3 C4 1_555 1_555
C4 C5 1_555 1_555
C5 C6 1_555 1_555
C6 C1 1_555 1_555
C7 C1 1_555 1_555
C8 C3 1_555 1_555
C9 C10 1_555 1_555
C10 C11 1_555 1_555
C11 C12 1_555 1_555
C12 C13 1_555 1_555
C13 C14 1_555 1_555
C14 C9 1_555 1_555
C15 O7 1_555 1_555
C16 C11 1_555 1_555
H1 C10 1_555 1_555
H2 C14 1_555 1_555
H3 C6 1_555 1_555
H4 C12 1_555 1_555
H5 C2 1_555 1_555
H6 C4 1_555 1_555
H7 O14 1_555 1_555
H8 O14 1_555 1_555
H9 O15 1_555 1_555
H10 O13 1_555 1_555
H11 O15 1_555 1_555
H12 O13 1_555 1_555
La1A O1A 1_555 1_555
La1A_2 O2 1_555 1_555
La1_2 O3 1_555 1_555
La1A_3 O8 1_555 1_555
La1_3 O9 1_555 1_555
La1_4 O2A 1_555 1_555
La1A_4 O9A 1_555 1_555
O1A C7A 1_555 1_555
O2A C7A 1_555 1_555
O2A_2 La1 1_555 1_555
O2_2 La1A 1_555 1_555
O3A La1A_3 1_555 1_555
O3_2 La1 1_555 1_555
O3A_2 La1A 1_555 1_555
O4A Cu1 1_555 1_555
O4_2 La1 1_555 1_555
O4A_2 La1A 1_555 1_555
O5A N1A 1_555 1_555
O6A N1A 1_555 1_555
O7A Cu1 1_555 1_555
O8A La1_2 1_555 1_555
O8A_2 La1 1_555 1_555
O8_2 La1A 1_555 1_555
O9A C16A 1_555 1_555
O9_2 La1 1_555 1_555
O9A_2 La1A 1_555 1_555
O10A La1A_4 1_555 1_555
O10_2 La1 1_555 1_555
O10A_2 La1A 1_555 1_555
O11A N2A 1_555 1_555
O12A N2A 1_555 1_555
O13A La1A 1_555 1_555
O14A La1A 1_555 1_555
O15A La1A 1_555 1_555
N1A C5A 1_555 1_555
N2A C13A 1_555 1_555
C1A C2A 1_555 1_555
C2A C3A 1_555 1_555
C3A C4A 1_555 1_555
C4A C5A 1_555 1_555
C5A C6A 1_555 1_555
C6A C1A 1_555 1_555
C7A C1A 1_555 1_555
C8A O3A 1_555 1_555
C9A C10A 1_555 1_555
C10A C11A 1_555 1_555
C11A C12A 1_555 1_555
C12A C13A 1_555 1_555
C13A C14A 1_555 1_555
C14A C9A 1_555 1_555
C15A O7A 1_555 1_555
C16A O10A 1_555 1_555
H1A C10A 1_555 1_555
H2A C14A 1_555 1_555
H3A C6A 1_555 1_555
H4A C12A 1_555 1_555
H5A C2A 1_555 1_555
H6A C4A 1_555 1_555
H7A O14A 1_555 1_555
H8A O14A 1_555 1_555
H9A O15A 1_555 1_555
H10A O13A 1_555 1_555
H11A O15A 1_555 1_555
H12A O13A 1_555 1_555
O4 La1_2 1_555 1_555
O10 La1_3 1_555 1_555
C9 C15 1_555 1_555
La1A_3 O4A 1_555 1_555
O4A C8A 1_555 1_555
O8A C15A 1_555 1_555
C3A C8A 1_555 1_555
C9A C15A 1_555 1_555
C11A C16A 1_555 1_555

#END
