
#######################################################################
#
#                 Cambridge Crystallographic Data Centre
#                                CCDC 
#
#######################################################################
#
# If this CIF has been generated from an entry in the Cambridge 
# Structural Database, then it will include bibliographic, chemical, 
# crystal, experimental, refinement or atomic coordinate data resulting 
# from the CCDC's data processing and validation procedures.
#
#######################################################################

data_KOHXIP
_symmetry_cell_setting           triclinic
_symmetry_space_group_name_H-M   'P -1'
_symmetry_Int_Tables_number      2
_space_group_name_Hall           '-P 1'
loop_
_symmetry_equiv_pos_site_id
_symmetry_equiv_pos_as_xyz
1 x,y,z
2 -x,-y,-z
_cell_length_a                   6.7457(16)
_cell_length_b                   9.0945(19)
_cell_length_c                   9.999(3)
_cell_angle_alpha                78.90(2)
_cell_angle_beta                 81.43(2)
_cell_angle_gamma                74.33(2)
_cell_volume                     576.515
loop_
_atom_site_label
_atom_site_type_symbol
_atom_site_fract_x
_atom_site_fract_y
_atom_site_fract_z
Cu1 Cu 0.5000 0.0000 0.5000
P1 P 0.18589(8) 0.32625(6) 0.39673(5)
N1 N 0.6903(3) -0.01496(19) 0.32255(18)
O1 O 0.2867(2) 0.15534(16) 0.39838(15)
O2 O 0.2602(2) 0.39177(17) 0.50672(15)
O3 O -0.0528(2) 0.35525(16) 0.41576(16)
C1 C 0.8789(3) 0.0112(3) 0.3095(2)
H1 H 0.9293 0.0261 0.3883
C2 C 1.0039(3) 0.0174(3) 0.1864(2)
H2 H 1.1367 0.0361 0.1827
C3 C 0.9360(3) -0.0036(2) 0.0680(2)
C4 C 0.7416(3) -0.0353(3) 0.0846(2)
H3 H 0.6888 -0.0538 0.0082
C5 C 0.6255(3) -0.0400(3) 0.2104(2)
H4 H 0.4940 -0.0619 0.2179
C6 C 0.2580(4) 0.4315(2) 0.2291(2)
C7 C 0.4918(4) 0.4210(3) 0.2153(3)
H5 H 0.5688 0.3121 0.2262
H6 H 0.5219 0.4702 0.2863
H7 H 0.5333 0.4740 0.1247
C8 C 0.2090(4) 0.3570(3) 0.1174(3)
H8 H 0.0629 0.3545 0.1323
H9 H 0.2962 0.2512 0.1210
H10 H 0.2365 0.4174 0.0275
C9 C 0.1357(4) 0.6019(3) 0.2151(3)
H11 H 0.1778 0.6573 0.1259
H12 H 0.1640 0.6490 0.2882
H13 H -0.0127 0.6079 0.2225
O4 O 0.3559(3) -0.19997(19) 0.44064(18)
H14 H 0.460(5) -0.268(4) 0.451(3)
H15 H 0.263(5) -0.237(3) 0.483(3)
H16 H -0.1125 0.4387 0.4433
Cu1_2 Cu 1.5000 0.0000 -0.5000
P1A P 0.81411(8) -0.32625(6) 0.60327(5)
N1A N 1.3097(3) 0.01496(19) -0.32255(18)
N1A_2 N 0.3097(3) 0.01496(19) 0.67745(18)
O1A O 0.7133(2) -0.15534(16) 0.60162(15)
O2A O 0.7398(2) -0.39177(17) 0.49328(15)
O3A O 1.0528(2) -0.35525(16) 0.58424(16)
C1A C 1.1211(3) -0.0112(3) -0.3095(2)
H1A H 1.0707 -0.0261 -0.3883
C2A C 0.9961(3) -0.0174(3) -0.1864(2)
H2A H 0.8633 -0.0361 -0.1827
C3A C 1.0640(3) 0.0036(2) -0.0680(2)
C4A C 1.2584(3) 0.0353(3) -0.0846(2)
H3A H 1.3112 0.0538 -0.0082
C5A C 1.3745(3) 0.0400(3) -0.2104(2)
H4A H 1.5060 0.0619 -0.2179
C6A C 0.7420(4) -0.4315(2) 0.7709(2)
C7A C 0.5082(4) -0.4210(3) 0.7847(3)
H5A H 0.4312 -0.3121 0.7738
H6A H 0.4781 -0.4702 0.7137
H7A H 0.4667 -0.4740 0.8753
C8A C 0.7910(4) -0.3570(3) 0.8826(3)
H8A H 0.9371 -0.3545 0.8677
H9A H 0.7038 -0.2512 0.8790
H10A H 0.7635 -0.4174 0.9725
C9A C 0.8643(4) -0.6019(3) 0.7849(3)
H11A H 0.8222 -0.6573 0.8741
H12A H 0.8360 -0.6490 0.7118
H13A H 1.0127 -0.6079 0.7775
O4A O 0.6441(3) 0.19997(19) 0.55936(18)
H14A H 0.540(5) 0.268(4) 0.549(3)
H15A H 0.737(5) 0.237(3) 0.517(3)
H16A H 1.1125 -0.4387 0.5567
loop_
_geom_bond_atom_site_label_1
_geom_bond_atom_site_label_2
_geom_bond_site_symmetry_1
_geom_bond_site_symmetry_2
Cu1 N1 1_555 1_555
P1 O1 1_555 1_555
N1 C1 1_555 1_555
O1 Cu1 1_555 1_555
O2 P1 1_555 1_555
O3 P1 1_555 1_555
C1 H1 1_555 1_555
C2 C1 1_555 1_555
H2 C2 1_555 1_555
C3 C2 1_555 1_555
C4 C3 1_555 1_555
H3 C4 1_555 1_555
C5 N1 1_555 1_555
H4 C5 1_555 1_555
C6 P1 1_555 1_555
C7 C6 1_555 1_555
H5 C7 1_555 1_555
H6 C7 1_555 1_555
H7 C7 1_555 1_555
C8 C6 1_555 1_555
H8 C8 1_555 1_555
H9 C8 1_555 1_555
H10 C8 1_555 1_555
C9 C6 1_555 1_555
H11 C9 1_555 1_555
H12 C9 1_555 1_555
H13 C9 1_555 1_555
O4 Cu1 1_555 1_555
H14 O4 1_555 1_555
H15 O4 1_555 1_555
H16 O3 1_555 1_555
Cu1_2 N1A 1_555 1_555
P1A O1A 1_555 1_555
N1A C1A 1_555 1_555
N1A_2 Cu1 1_555 1_555
O1A Cu1 1_555 1_555
O2A P1A 1_555 1_555
O3A P1A 1_555 1_555
C1A H1A 1_555 1_555
C2A C1A 1_555 1_555
H2A C2A 1_555 1_555
C3A C3 1_555 1_555
C4A C3A 1_555 1_555
H3A C4A 1_555 1_555
C5A N1A 1_555 1_555
H4A C5A 1_555 1_555
C6A P1A 1_555 1_555
C7A C6A 1_555 1_555
H5A C7A 1_555 1_555
H6A C7A 1_555 1_555
H7A C7A 1_555 1_555
C8A C6A 1_555 1_555
H8A C8A 1_555 1_555
H9A C8A 1_555 1_555
H10A C8A 1_555 1_555
C9A C6A 1_555 1_555
H11A C9A 1_555 1_555
H12A C9A 1_555 1_555
H13A C9A 1_555 1_555
O4A Cu1 1_555 1_555
H14A O4A 1_555 1_555
H15A O4A 1_555 1_555
H16A O3A 1_555 1_555
C4 C5 1_555 1_555
C2A C3A 1_555 1_555
C4A C5A 1_555 1_555

#END
