
#######################################################################
#
#                 Cambridge Crystallographic Data Centre
#                                CCDC 
#
#######################################################################
#
# If this CIF has been generated from an entry in the Cambridge 
# Structural Database, then it will include bibliographic, chemical, 
# crystal, experimental, refinement or atomic coordinate data resulting 
# from the CCDC's data processing and validation procedures.
#
#######################################################################

data_KOHXOV
_symmetry_cell_setting           triclinic
_symmetry_space_group_name_H-M   'P -1'
_symmetry_Int_Tables_number      2
_space_group_name_Hall           '-P 1'
loop_
_symmetry_equiv_pos_site_id
_symmetry_equiv_pos_as_xyz
1 x,y,z
2 -x,-y,-z
_cell_length_a                   6.6570(17)
_cell_length_b                   8.896(2)
_cell_length_c                   10.671(2)
_cell_angle_alpha                76.67(2)
_cell_angle_beta                 81.426(19)
_cell_angle_gamma                79.53(2)
_cell_volume                     600.874
loop_
_atom_site_label
_atom_site_type_symbol
_atom_site_fract_x
_atom_site_fract_y
_atom_site_fract_z
C1 C 0.0082(5) 0.5514(4) 0.2745(3)
H1 H -0.0293 0.5087 0.2059
H2 H -0.0604 0.6596 0.2684
H3 H -0.0349 0.4885 0.3593
C2 C 0.3032(6) 0.6120(4) 0.3652(3)
H4 H 0.2352 0.7204 0.3597
H5 H 0.4526 0.6088 0.3545
H6 H 0.2608 0.5488 0.4499
Mn1 Mn 0.0000 1.0000 0.0000
P1 P 0.32367(8) 0.66528(6) 0.10245(5)
O1 O 0.5563(2) 0.63903(17) 0.07899(15)
O2 O 0.2271(2) 0.83262(16) 0.09771(14)
O3 O 0.2316(3) 0.6034(2) -0.00108(17)
O4 O -0.1365(3) 0.8054(2) -0.03797(19)
N1 N 0.2018(3) 0.9918(2) -0.19312(17)
C3 C 0.4377(3) 0.9981(3) -0.4356(2)
C4 C 0.2426(4) 0.5471(3) 0.2590(2)
C5 C 0.5141(4) 1.0243(3) -0.3310(2)
H7 H 0.6510 1.0452 -0.3398
C6 C 0.2411(4) 0.9615(5) -0.4126(3)
H8 H 0.1820 0.9367 -0.4796
C7 C 0.3937(4) 1.0208(3) -0.2132(2)
H9 H 0.4515 1.0400 -0.1433
C8 C 0.3482(6) 0.3770(3) 0.2683(3)
H10 H 0.3090 0.3348 0.1999
H11 H 0.3052 0.3144 0.3532
H12 H 0.4976 0.3733 0.2578
C9 C 0.1301(4) 0.9606(5) -0.2928(3)
H13 H -0.0056 0.9362 -0.2805
H14 H -0.055(6) 0.744(4) -0.029(3)
H15 H 0.287(5) 0.537(3) -0.011(3)
H16 H -0.240(5) 0.766(4) -0.005(3)
C1A C -0.0082(5) 1.4486(4) -0.2745(3)
H1A H 0.0293 1.4913 -0.2059
H2A H 0.0604 1.3404 -0.2684
H3A H 0.0349 1.5115 -0.3593
C2A C -0.3032(6) 1.3880(4) -0.3652(3)
H4A H -0.2352 1.2796 -0.3597
H5A H -0.4526 1.3912 -0.3545
H6A H -0.2608 1.4512 -0.4499
Mn1_2 Mn 1.0000 1.0000 -1.0000
P1A P -0.32367(8) 1.33472(6) -0.10245(5)
O1A O -0.5563(2) 1.36097(17) -0.07899(15)
O2A O -0.2271(2) 1.16738(16) -0.09771(14)
O3A O -0.2316(3) 1.3966(2) 0.00108(17)
O4A O 0.1365(3) 1.1946(2) 0.03797(19)
N1A N 0.7982(3) 1.0082(2) -0.80688(17)
N1A_2 N -0.2018(3) 1.0082(2) 0.19312(17)
C3A C 0.5623(3) 1.0019(3) -0.5644(2)
C4A C -0.2426(4) 1.4529(3) -0.2590(2)
C5A C 0.4859(4) 0.9757(3) -0.6690(2)
H7A H 0.3490 0.9548 -0.6602
C6A C 0.7589(4) 1.0385(5) -0.5874(3)
H8A H 0.8180 1.0633 -0.5204
C7A C 0.6063(4) 0.9792(3) -0.7868(2)
H9A H 0.5485 0.9600 -0.8567
C8A C -0.3482(6) 1.6230(3) -0.2683(3)
H10A H -0.3090 1.6652 -0.1999
H11A H -0.3052 1.6856 -0.3532
H12A H -0.4976 1.6267 -0.2578
C9A C 0.8699(4) 1.0394(5) -0.7072(3)
H13A H 1.0056 1.0638 -0.7195
H14A H 0.055(6) 1.256(4) 0.029(3)
H15A H -0.287(5) 1.463(3) 0.011(3)
H16A H 0.240(5) 1.234(4) 0.005(3)
loop_
_geom_bond_atom_site_label_1
_geom_bond_atom_site_label_2
_geom_bond_site_symmetry_1
_geom_bond_site_symmetry_2
C1 H1 1_555 1_555
H2 C1 1_555 1_555
H3 C1 1_555 1_555
C2 H4 1_555 1_555
H5 C2 1_555 1_555
H6 C2 1_555 1_555
Mn1 O2 1_555 1_555
P1 O1 1_555 1_555
O2 P1 1_555 1_555
O3 P1 1_555 1_555
O4 Mn1 1_555 1_555
N1 Mn1 1_555 1_555
C3 C5 1_555 1_555
C4 C1 1_555 1_555
C5 H7 1_555 1_555
C6 C3 1_555 1_555
H8 C6 1_555 1_555
C7 N1 1_555 1_555
H9 C7 1_555 1_555
C8 C4 1_555 1_555
H10 C8 1_555 1_555
H11 C8 1_555 1_555
H12 C8 1_555 1_555
C9 N1 1_555 1_555
H13 C9 1_555 1_555
H14 O4 1_555 1_555
H15 O3 1_555 1_555
H16 O4 1_555 1_555
C1A H1A 1_555 1_555
H2A C1A 1_555 1_555
H3A C1A 1_555 1_555
C2A H4A 1_555 1_555
H5A C2A 1_555 1_555
H6A C2A 1_555 1_555
Mn1_2 N1A 1_555 1_555
P1A O1A 1_555 1_555
O2A Mn1 1_555 1_555
O3A P1A 1_555 1_555
O4A Mn1 1_555 1_555
N1A C7A 1_555 1_555
N1A_2 Mn1 1_555 1_555
C3A C3 1_555 1_555
C4A C1A 1_555 1_555
C5A C3A 1_555 1_555
H7A C5A 1_555 1_555
C6A C3A 1_555 1_555
H8A C6A 1_555 1_555
C7A C5A 1_555 1_555
H9A C7A 1_555 1_555
C8A C4A 1_555 1_555
H10A C8A 1_555 1_555
H11A C8A 1_555 1_555
H12A C8A 1_555 1_555
C9A N1A 1_555 1_555
H13A C9A 1_555 1_555
H14A O4A 1_555 1_555
H15A O3A 1_555 1_555
H16A O4A 1_555 1_555
C2 C4 1_555 1_555
P1 C4 1_555 1_555
C5 C7 1_555 1_555
C6 C9 1_555 1_555
C2A C4A 1_555 1_555
P1A O2A 1_555 1_555
P1A C4A 1_555 1_555
C6A C9A 1_555 1_555

#END
