
#######################################################################
#
#                 Cambridge Crystallographic Data Centre
#                                CCDC 
#
#######################################################################
#
# If this CIF has been generated from an entry in the Cambridge 
# Structural Database, then it will include bibliographic, chemical, 
# crystal, experimental, refinement or atomic coordinate data resulting 
# from the CCDC's data processing and validation procedures.
#
#######################################################################

data_KOHXUB
_symmetry_cell_setting           monoclinic
_symmetry_space_group_name_H-M   'P 21/n'
_symmetry_Int_Tables_number      14
_space_group_name_Hall           '-P 2yn'
loop_
_symmetry_equiv_pos_site_id
_symmetry_equiv_pos_as_xyz
1 x,y,z
2 1/2-x,1/2+y,1/2-z
3 -x,-y,-z
4 1/2+x,1/2-y,1/2+z
_cell_length_a                   11.5166(14)
_cell_length_b                   16.0656(12)
_cell_length_c                   15.8367(15)
_cell_angle_alpha                90
_cell_angle_beta                 110.445(12)
_cell_angle_gamma                90
_cell_volume                     2745.55
loop_
_atom_site_label
_atom_site_type_symbol
_atom_site_fract_x
_atom_site_fract_y
_atom_site_fract_z
Ni1 Ni 0.72684(15) 0.23758(9) 0.76674(9)
O7 O 0.5598(9) 0.2155(5) 0.6676(5)
O8 O 0.7521(9) 0.1115(5) 0.7875(6)
O9 O 0.8934(7) 0.2514(5) 0.8730(5)
O10 O 0.7147(8) 0.3656(5) 0.7503(5)
C9 C 0.9295(12) 0.1991(9) 0.6911(9)
H19 H 0.9671 0.1724 0.7476
C10 C 0.9929(12) 0.2008(10) 0.6301(8)
H20 H 1.0723 0.1754 0.6473
C11 C 0.9452(10) 0.2379(6) 0.5456(7)
C12 C 0.8197(15) 0.2687(9) 0.5249(8)
H21 H 0.7757 0.2909 0.4669
C13 C 0.7646(14) 0.2658(9) 0.5893(8)
H22 H 0.6832 0.2878 0.5734
C14 C 1.0036(9) 0.2458(6) 0.4829(7)
C15 C 1.0893(14) 0.1807(8) 0.4771(8)
H23 H 1.1022 0.1326 0.5142
C16 C 1.1501(13) 0.1898(8) 0.4184(9)
H24 H 1.2103 0.1490 0.4194
C17 C 1.0510(14) 0.3091(9) 0.3610(9)
H25 H 1.0368 0.3548 0.3206
C18 C 0.9850(14) 0.3065(9) 0.4190(9)
H26 H 0.9247 0.3483 0.4143
N1 N 0.8159(9) 0.2344(6) 0.6722(6)
N2 N 1.1314(10) 0.2530(6) 0.3578(6)
H28 H 0.4955 0.2441 0.6376
H29 H 0.5518 0.1682 0.6414
H30 H 0.7061 0.0689 0.7864
H31 H 0.8175 0.1033 0.8581
H32 H 0.9651 0.2643 0.9100
H33 H 0.8521 0.2320 0.9040
H34 H 0.6781 0.3922 0.7013
H35 H 0.7499 0.4021 0.7904
Ni1C Ni 1.22684(15) 0.26242(9) 0.26674(9)
N2C N 0.6314(10) 0.2470(6) 0.8578(6)
P1 P 0.4897(3) 0.0194(2) 0.3677(2)
O1 O 0.4889(9) -0.0648(5) 0.4124(6)
O2 O 0.4000(9) 0.0234(6) 0.2737(6)
O3 O 0.4613(9) 0.0888(5) 0.4243(6)
C1 C 0.6477(15) 0.0386(9) 0.3703(11)
C2 C 0.6861(16) -0.0309(11) 0.3223(13)
H1 H 0.6836 -0.0838 0.3524
H2 H 0.7706 -0.0208 0.3234
H3 H 0.6293 -0.0335 0.2596
C3 C 0.7335(15) 0.0374(11) 0.4714(12)
H4 H 0.7093 0.0823 0.5037
H5 H 0.8198 0.0454 0.4757
H6 H 0.7253 -0.0163 0.4982
C4 C 0.6488(18) 0.1241(10) 0.3273(13)
H7 H 0.6228 0.1669 0.3611
H8 H 0.5917 0.1235 0.2647
H9 H 0.7328 0.1366 0.3287
P2 P 0.4169(4) 0.4011(2) 0.5457(2)
O4 O 0.5566(10) 0.4231(6) 0.5881(6)
O5 O 0.4031(10) 0.3084(6) 0.5379(6)
O6 O 0.3607(11) 0.4459(6) 0.4562(6)
C5 C 0.3440(15) 0.4410(10) 0.6229(11)
C6 C 0.4101(19) 0.4031(13) 0.7181(11)
H10 H 0.4986 0.4165 0.7385
H11 H 0.3994 0.3425 0.7153
H12 H 0.3738 0.4263 0.7605
C7 C 0.212(2) 0.4214(16) 0.5906(16)
H13 H 0.2007 0.3608 0.5867
H14 H 0.1716 0.4461 0.5309
H15 H 0.1745 0.4440 0.6327
C8 C 0.360(2) 0.5347(10) 0.6290(13)
H16 H 0.4487 0.5483 0.6511
H17 H 0.3221 0.5570 0.6707
H18 H 0.3202 0.5593 0.5692
H27 H 0.5482 0.4921 0.5907
O11 O 0.403(2) 0.030(2) 0.0986(15)
loop_
_geom_bond_atom_site_label_1
_geom_bond_atom_site_label_2
_geom_bond_site_symmetry_1
_geom_bond_site_symmetry_2
Ni1 O7 1_555 1_555
P1 O1 1_555 1_555
P2 O4 1_555 1_555
O2 P1 1_555 1_555
O3 P1 1_555 1_555
O4 H27 1_555 1_555
O5 P2 1_555 1_555
O6 P2 1_555 1_555
O7 H28 1_555 1_555
O8 Ni1 1_555 1_555
O9 Ni1 1_555 1_555
O10 Ni1 1_555 1_555
C1 P1 1_555 1_555
C2 C1 1_555 1_555
H1 C2 1_555 1_555
H2 C2 1_555 1_555
H3 C2 1_555 1_555
C3 C1 1_555 1_555
H4 C3 1_555 1_555
H5 C3 1_555 1_555
H6 C3 1_555 1_555
C4 C1 1_555 1_555
H7 C4 1_555 1_555
H8 C4 1_555 1_555
H9 C4 1_555 1_555
C5 P2 1_555 1_555
C6 C5 1_555 1_555
H10 C6 1_555 1_555
H11 C6 1_555 1_555
H12 C6 1_555 1_555
C7 C5 1_555 1_555
H13 C7 1_555 1_555
H14 C7 1_555 1_555
H15 C7 1_555 1_555
C8 C5 1_555 1_555
H16 C8 1_555 1_555
H17 C8 1_555 1_555
H18 C8 1_555 1_555
C9 H19 1_555 1_555
C10 C9 1_555 1_555
H20 C10 1_555 1_555
C11 C10 1_555 1_555
C12 C11 1_555 1_555
H21 C12 1_555 1_555
C13 C12 1_555 1_555
H22 C13 1_555 1_555
C14 C11 1_555 1_555
C15 C14 1_555 1_555
H23 C15 1_555 1_555
C16 C15 1_555 1_555
H24 C16 1_555 1_555
C17 H25 1_555 1_555
C18 C14 1_555 1_555
H26 C18 1_555 1_555
N1 Ni1 1_555 1_555
N2 C16 1_555 1_555
H29 O7 1_555 1_555
H30 O8 1_555 1_555
H31 O8 1_555 1_555
H32 O9 1_555 1_555
H33 O9 1_555 1_555
H34 O10 1_555 1_555
H35 O10 1_555 1_555
Ni1C N2 1_555 1_555
N2C Ni1 1_555 1_555
C9 N1 1_555 1_555
C13 N1 1_555 1_555
C17 C18 1_555 1_555
C17 N2 1_555 1_555

#END
