
#######################################################################
#
#                 Cambridge Crystallographic Data Centre
#                                CCDC 
#
#######################################################################
#
# If this CIF has been generated from an entry in the Cambridge 
# Structural Database, then it will include bibliographic, chemical, 
# crystal, experimental, refinement or atomic coordinate data resulting 
# from the CCDC's data processing and validation procedures.
#
#######################################################################

data_KOHXAH
_symmetry_cell_setting           triclinic
_symmetry_space_group_name_H-M   'P -1'
_symmetry_Int_Tables_number      2
_space_group_name_Hall           '-P 1'
loop_
_symmetry_equiv_pos_site_id
_symmetry_equiv_pos_as_xyz
1 x,y,z
2 -x,-y,-z
_cell_length_a                   10.845(2)
_cell_length_b                   12.041(2)
_cell_length_c                   13.634(3)
_cell_angle_alpha                108.07(3)
_cell_angle_beta                 108.82(3)
_cell_angle_gamma                103.88(3)
_cell_volume                     1483.36
loop_
_atom_site_label
_atom_site_type_symbol
_atom_site_fract_x
_atom_site_fract_y
_atom_site_fract_z
La1 La 0.338347(15) 0.775156(13) 0.148262(12)
Cu1 Cu 0.5000 1.0000 0.5000
Cu2 Cu -0.5000 0.5000 0.0000
O1 O 0.5542(2) 1.1293(2) 0.44584(19)
O2 O 0.5011(2) 0.99505(19) 0.26974(19)
O3 O 0.6291(3) 1.1713(2) 0.0136(2)
O4 O 0.6819(3) 1.3726(2) 0.0571(2)
O5 O 0.6291(3) 1.6308(3) 0.3905(3)
O6 O 0.6606(5) 1.5769(3) 0.5289(3)
O7 O 0.3106(2) 0.9929(2) 0.4395(2)
O8 O 0.2085(2) 0.8297(2) 0.2686(2)
O9 O -0.3239(2) 0.6394(2) 0.1212(2)
O10 O -0.4320(2) 0.7650(2) 0.1749(2)
O11 O -0.1561(3) 1.1895(3) 0.4653(3)
O12 O 0.0664(3) 1.2685(3) 0.5294(3)
O13 O 0.2780(3) 0.5515(2) 0.1260(2)
O14 O 0.4351(2) 0.4665(2) 0.1054(2)
O15 O 0.3061(4) 0.0239(2) 0.0054(3)
O16 O 0.2168(3) -0.0584(2) 0.1050(3)
O17 O -0.0892(4) 0.1592(4) 0.2289(4)
O18 O -0.0106(5) 0.3596(4) 0.2923(5)
O19 O 0.0786(2) 0.6590(2) 0.0234(2)
O20 O 0.4518(3) 0.7722(3) 0.3450(2)
N1 N 0.6409(3) 1.5553(3) 0.4316(3)
N2 N -0.0457(3) 1.1816(3) 0.4685(3)
N3 N -0.0087(4) 0.2585(4) 0.2430(3)
C1 C 0.5814(3) 1.2134(3) 0.3165(2)
C2 C 0.6022(3) 1.1981(3) 0.2185(2)
C3 C 0.6378(3) 1.3000(3) 0.1911(2)
C4 C 0.6532(3) 1.4193(3) 0.2621(3)
C5 C 0.6315(3) 1.4315(3) 0.3586(3)
C6 C 0.5958(3) 1.3314(3) 0.3876(2)
C7 C 0.5417(3) 1.1037(3) 0.3456(2)
C8 C 0.6520(3) 1.2810(3) 0.0819(3)
C9 C 0.0707(3) 0.9331(3) 0.3342(2)
C10 C -0.0587(3) 0.8357(3) 0.2587(2)
C11 C -0.1837(3) 0.8491(3) 0.2555(3)
C12 C -0.1796(3) 0.9628(3) 0.3249(3)
C13 C -0.0499(3) 1.0597(3) 0.3966(3)
C14 C 0.0752(3) 1.0481(3) 0.4045(2)
C15 C 0.2073(3) 0.9158(3) 0.3464(3)
C16 C -0.3245(3) 0.7430(3) 0.1778(3)
C17 C 0.2549(3) 0.3556(3) 0.1365(3)
C18 C 0.2782(3) 0.2447(3) 0.0971(3)
C19 C 0.2109(3) 0.1398(3) 0.1097(3)
C20 C 0.1184(4) 0.1429(3) 0.1593(3)
C21 C 0.0943(4) 0.2539(3) 0.1957(3)
C22 C 0.1617(4) 0.3602(3) 0.1863(3)
C23 C 0.3275(3) 0.4688(3) 0.1219(2)
C24 C 0.2431(3) 0.0238(3) 0.0729(3)
H1 H 0.5893 1.1052 0.1638
H2 H 0.6807 1.4961 0.2482
H3 H 0.5851 1.3611 0.4659
H4 H -0.0635 0.7589 0.2103
H5 H -0.2544 0.9598 0.3119
H6 H 0.1499 1.1064 0.4498
H7 H 0.1475 0.4395 0.2156
H8 H 0.3376 0.2381 0.0548
H9 H 0.0659 0.0651 0.1559
H10 H 0.0625 0.5937 -0.0380
H11 H 0.5237 0.7485 0.3499
H12 H 0.0280 0.6449 0.0600
H13 H 0.3876 0.7299 0.3602
H14 H 0.3223 -0.0464 -0.0145
La1A La 0.661653(15) 1.224844(13) 0.851738(12)
La1A_2 La 0.661653(15) 1.224844(13) -0.148262(12)
La1_2 La -0.661653(15) 0.775156(13) 0.148262(12)
La1_3 La 0.338347(15) -0.224844(13) 0.148262(12)
La1_4 La 0.338347(15) 0.775156(13) 1.148262(12)
La1A_3 La 1.661653(15) 1.224844(13) 0.851738(12)
La1_5 La 0.338347(15) 1.775156(13) 0.148262(12)
Cu2_2 Cu 0.5000 0.5000 0.0000
Cu2_3 Cu 1.5000 1.5000 1.0000
Cu2_4 Cu 0.5000 1.5000 0.0000
O1A O 0.4458(2) 0.8707(2) 0.55416(19)
O2A O 0.4989(2) 1.00495(19) 0.73026(19)
O3A O 0.3709(3) 0.8287(2) 0.9864(2)
O3A_2 O 0.3709(3) 0.8287(2) -0.0136(2)
O3_2 O 0.6291(3) 1.1713(2) 1.0136(2)
O4A O 0.3181(3) 0.6274(2) 0.9429(2)
O4A_2 O 0.3181(3) 0.6274(2) -0.0571(2)
O4_2 O 0.6819(3) 1.3726(2) 1.0571(2)
O5A O 0.3709(3) 0.3692(3) 0.6095(3)
O6A O 0.3394(5) 0.4231(3) 0.4711(3)
O7A O 0.6894(2) 1.0071(2) 0.5605(2)
O8A O 0.7915(2) 1.1703(2) 0.7314(2)
O9A O 1.3239(2) 1.3606(2) 0.8788(2)
O9A_2 O -0.6761(2) 0.3606(2) -0.1212(2)
O10A O 1.4320(2) 1.2350(2) 0.8251(2)
O10_2 O 0.5680(2) 0.7650(2) 0.1749(2)
O10A_2 O 0.4320(2) 1.2350(2) 0.8251(2)
O11A O 1.1561(3) 0.8105(3) 0.5347(3)
O12A O 0.9336(3) 0.7315(3) 0.4706(3)
O13_2 O 0.2780(3) 1.5515(2) 0.1260(2)
O13A O 0.7220(3) 1.4485(2) 0.8740(2)
O14_2 O 0.4351(2) 1.4665(2) 0.1054(2)
O14_3 O -0.5649(2) 0.4665(2) 0.1054(2)
O14A O -0.4351(2) 0.5335(2) -0.1054(2)
O15_2 O 0.3061(4) 1.0239(2) 0.0054(3)
O16_2 O 0.2168(3) 0.9416(2) 0.1050(3)
O16A O 0.7832(3) 1.0584(2) 0.8950(3)
O17_2 O -0.0892(4) 1.1592(4) 0.2289(4)
O18_2 O -0.0106(5) 1.3596(4) 0.2923(5)
O19A O 0.9214(2) 1.3410(2) 0.9766(2)
O20A O 0.5482(3) 1.2278(3) 0.6550(2)
N1A N 0.3591(3) 0.4447(3) 0.5684(3)
N2A N 1.0457(3) 0.8184(3) 0.5315(3)
N3_2 N -0.0087(4) 1.2585(4) 0.2430(3)
C1A C 0.4186(3) 0.7866(3) 0.6835(2)
C2A C 0.3978(3) 0.8019(3) 0.7815(2)
C3A C 0.3622(3) 0.7000(3) 0.8089(2)
C4A C 0.3468(3) 0.5807(3) 0.7379(3)
C5A C 0.3685(3) 0.5685(3) 0.6414(3)
C6A C 0.4042(3) 0.6686(3) 0.6124(2)
C7A C 0.4583(3) 0.8963(3) 0.6544(2)
C8A C 0.3480(3) 0.7190(3) 0.9181(3)
C9A C 0.9293(3) 1.0669(3) 0.6658(2)
C10A C 1.0587(3) 1.1643(3) 0.7413(2)
C11A C 1.1837(3) 1.1509(3) 0.7445(3)
C12A C 1.1796(3) 1.0372(3) 0.6751(3)
C13A C 1.0499(3) 0.9403(3) 0.6034(3)
C14A C 0.9248(3) 0.9519(3) 0.5955(2)
C15A C 0.7927(3) 1.0842(3) 0.6536(3)
C16A C 1.3245(3) 1.2570(3) 0.8222(3)
C17_2 C 0.2549(3) 1.3556(3) 0.1365(3)
C18_2 C 0.2782(3) 1.2447(3) 0.0971(3)
C19_2 C 0.2109(3) 1.1398(3) 0.1097(3)
C20_2 C 0.1184(4) 1.1429(3) 0.1593(3)
C21_2 C 0.0943(4) 1.2539(3) 0.1957(3)
C22_2 C 0.1617(4) 1.3602(3) 0.1863(3)
C23_2 C 0.3275(3) 1.4688(3) 0.1219(2)
C24_2 C 0.2431(3) 1.0238(3) 0.0729(3)
H1A H 0.4107 0.8948 0.8362
H2A H 0.3193 0.5039 0.7518
H3A H 0.4149 0.6389 0.5341
H4A H 1.0635 1.2411 0.7897
H5A H 1.2544 1.0402 0.6881
H6A H 0.8501 0.8936 0.5502
H7_2 H 0.1475 1.4395 0.2156
H8_2 H 0.3376 1.2381 0.0548
H9_2 H 0.0659 1.0651 0.1559
H10A H 0.9375 1.4063 1.0380
H11A H 0.4763 1.2515 0.6501
H12A H 0.9720 1.3551 0.9400
H13A H 0.6124 1.2701 0.6398
H14_2 H 0.3223 0.9536 -0.0145
O21 O 0.0443(3) 0.4439(3) 0.8535(2)
H15 H -0.0111 0.4157 0.7789
H16 H 0.1182 0.4637 0.8498
O22 O 0.8259(5) 0.3770(3) 0.6400(3)
H17 H 0.8743 0.4425 0.6332
H18 H 0.8459 0.3142 0.5784
loop_
_geom_bond_atom_site_label_1
_geom_bond_atom_site_label_2
_geom_bond_site_symmetry_1
_geom_bond_site_symmetry_2
La1 O2 1_555 1_555
Cu1 O1 1_555 1_555
Cu2 O9 1_555 1_555
O1 C7 1_555 1_555
O2 C7 1_555 1_555
O3 C8 1_555 1_555
O4 C8 1_555 1_555
O5 N1 1_555 1_555
O6 N1 1_555 1_555
O7 Cu1 1_555 1_555
O8 La1 1_555 1_555
O9 C16 1_555 1_555
O10 C16 1_555 1_555
O11 N2 1_555 1_555
O12 N2 1_555 1_555
O13 La1 1_555 1_555
O14 C23 1_555 1_555
O15 C24 1_555 1_555
O16 C24 1_555 1_555
O17 N3 1_555 1_555
O18 N3 1_555 1_555
O19 La1 1_555 1_555
O20 La1 1_555 1_555
N1 C5 1_555 1_555
N2 C13 1_555 1_555
N3 C21 1_555 1_555
C1 C2 1_555 1_555
C2 C3 1_555 1_555
C3 C4 1_555 1_555
C4 C5 1_555 1_555
C5 C6 1_555 1_555
C6 C1 1_555 1_555
C7 C1 1_555 1_555
C8 C3 1_555 1_555
C9 C10 1_555 1_555
C10 C11 1_555 1_555
C11 C12 1_555 1_555
C12 C13 1_555 1_555
C13 C14 1_555 1_555
C14 C9 1_555 1_555
C15 O7 1_555 1_555
C16 C11 1_555 1_555
C17 C18 1_555 1_555
C18 C19 1_555 1_555
C19 C20 1_555 1_555
C20 C21 1_555 1_555
C21 C22 1_555 1_555
C22 C17 1_555 1_555
C23 O13 1_555 1_555
C24 C19 1_555 1_555
H1 C2 1_555 1_555
H2 C4 1_555 1_555
H3 C6 1_555 1_555
H4 C10 1_555 1_555
H5 C12 1_555 1_555
H6 C14 1_555 1_555
H7 C22 1_555 1_555
H8 C18 1_555 1_555
H9 C20 1_555 1_555
H10 O19 1_555 1_555
H11 O20 1_555 1_555
H12 O19 1_555 1_555
H13 O20 1_555 1_555
H14 O15 1_555 1_555
O21 H15 1_555 1_555
H16 O21 1_555 1_555
O22 H17 1_555 1_555
H18 O22 1_555 1_555
La1A O2A 1_555 1_555
La1A_2 O3 1_555 1_555
La1_2 O10 1_555 1_555
La1_3 O16 1_555 1_555
La1_4 O3A 1_555 1_555
La1A_3 O10A 1_555 1_555
La1_5 O13_2 1_555 1_555
Cu2_2 O14 1_555 1_555
Cu2_3 O9A 1_555 1_555
Cu2_4 O14_2 1_555 1_555
O1A Cu1 1_555 1_555
O2A C7A 1_555 1_555
O3A C8A 1_555 1_555
O3A_2 La1 1_555 1_555
O3_2 La1A 1_555 1_555
O4A La1_4 1_555 1_555
O4A_2 La1 1_555 1_555
O4_2 La1A 1_555 1_555
O5A N1A 1_555 1_555
O6A N1A 1_555 1_555
O7A Cu1 1_555 1_555
O8A La1A 1_555 1_555
O9A C16A 1_555 1_555
O9A_2 Cu2 1_555 1_555
O10A C16A 1_555 1_555
O10_2 La1 1_555 1_555
O10A_2 La1A 1_555 1_555
O11A N2A 1_555 1_555
O12A N2A 1_555 1_555
O13_2 C23_2 1_555 1_555
O13A La1A 1_555 1_555
O14_2 C23_2 1_555 1_555
O14_3 Cu2 1_555 1_555
O14A Cu2 1_555 1_555
O15_2 C24_2 1_555 1_555
O16_2 La1 1_555 1_555
O16A La1A 1_555 1_555
O17_2 N3_2 1_555 1_555
O18_2 N3_2 1_555 1_555
O19A La1A 1_555 1_555
O20A Cu1 1_555 1_555
N1A C5A 1_555 1_555
N2A C13A 1_555 1_555
N3_2 C21_2 1_555 1_555
C1A C2A 1_555 1_555
C2A C3A 1_555 1_555
C3A C4A 1_555 1_555
C4A C5A 1_555 1_555
C5A C6A 1_555 1_555
C6A C1A 1_555 1_555
C7A O1A 1_555 1_555
C8A O4A 1_555 1_555
C9A C10A 1_555 1_555
C10A C11A 1_555 1_555
C11A C12A 1_555 1_555
C12A C13A 1_555 1_555
C13A C14A 1_555 1_555
C14A C9A 1_555 1_555
C15A O7A 1_555 1_555
C16A C11A 1_555 1_555
C17_2 C18_2 1_555 1_555
C18_2 C19_2 1_555 1_555
C19_2 C20_2 1_555 1_555
C20_2 C21_2 1_555 1_555
C21_2 C22_2 1_555 1_555
C22_2 C17_2 1_555 1_555
C23_2 C17_2 1_555 1_555
C24_2 O16_2 1_555 1_555
H1A C2A 1_555 1_555
H2A C4A 1_555 1_555
H3A C6A 1_555 1_555
H4A C10A 1_555 1_555
H5A C12A 1_555 1_555
H6A C14A 1_555 1_555
H7_2 C22_2 1_555 1_555
H8_2 C18_2 1_555 1_555
H9_2 C20_2 1_555 1_555
H10A O19A 1_555 1_555
H11A O20A 1_555 1_555
H12A O19A 1_555 1_555
H13A O20A 1_555 1_555
H14_2 O15_2 1_555 1_555
Cu1 O20 1_555 1_555
O4 La1A_2 1_555 1_555
O8 C15 1_555 1_555
C9 C15 1_555 1_555
C17 C23 1_555 1_555
La1A O20A 1_555 1_555
O8A C15A 1_555 1_555
C1A C7A 1_555 1_555
C3A C8A 1_555 1_555
C9A C15A 1_555 1_555
C19_2 C24_2 1_555 1_555

#END
