
#######################################################################
#
#                 Cambridge Crystallographic Data Centre
#                                CCDC 
#
#######################################################################
#
# If this CIF has been generated from an entry in the Cambridge 
# Structural Database, then it will include bibliographic, chemical, 
# crystal, experimental, refinement or atomic coordinate data resulting 
# from the CCDC's data processing and validation procedures.
#
#######################################################################

data_KOHXUC
_symmetry_cell_setting           triclinic
_symmetry_space_group_name_H-M   'P -1'
_symmetry_Int_Tables_number      2
_space_group_name_Hall           '-P 1'
loop_
_symmetry_equiv_pos_site_id
_symmetry_equiv_pos_as_xyz
1 x,y,z
2 -x,-y,-z
_cell_length_a                   9.2400(4)
_cell_length_b                   10.1910(4)
_cell_length_c                   16.5190(7)
_cell_angle_alpha                91.341(2)
_cell_angle_beta                 91.921(2)
_cell_angle_gamma                113.132(2)
_cell_volume                     1428.51
loop_
_atom_site_label
_atom_site_type_symbol
_atom_site_fract_x
_atom_site_fract_y
_atom_site_fract_z
O1 O 0.5235(7) 0.5212(6) 0.8455(4)
H1 H 0.5264 0.4888 0.8924
H2 H 0.4529 0.5539 0.8365
O2 O 0.5205(8) 0.7759(7) 0.7013(4)
H3 H 0.4514 0.7799 0.6652
H4 H 0.5244 0.6954 0.6879
O3 O 1.0577(7) 0.9589(7) 0.6106(4)
O4 O 0.4413(8) 1.2330(7) 0.7962(4)
H5 H 0.4536 1.3250 0.8004
H6 H 0.5245 1.2259 0.8225
O5 O 0.5325(7) 0.8880(7) 0.8702(4)
O6 O 0.0460(7) 0.7717(7) 0.7347(4)
O7 O 0.1954(7) 1.2421(7) 0.7017(4)
H7 H 0.2755 1.3228 0.6890
H8 H 0.1095 1.2625 0.7057
O8 O 0.4021(7) 1.1249(7) 0.6108(4)
O9 O 0.3243(8) 0.9440(7) 0.8419(4)
O10 O 0.2528(7) 0.8106(7) 0.6622(4)
O11 O 0.5529(7) 1.0564(6) 0.6913(4)
C1 C 0.6422(10) 1.2762(9) 0.5181(5)
N1 N 0.6261(10) 1.3637(10) 0.4810(5)
C2 C 0.8372(10) 1.2746(9) 0.8183(5)
N2 N 0.4385(11) 0.6407(10) 1.0164(5)
C3 C -0.1221(11) 0.5106(10) 0.6620(6)
C4 C 0.9122(10) 0.9295(10) 0.6054(5)
N3 N 0.9635(10) 0.6885(10) 0.4667(5)
O12 O 0.8403(7) 0.9830(6) 0.6501(4)
C5 C 0.0448(11) 0.5778(10) 0.6482(6)
H9 H 0.0601 0.5796 0.5891
H10 H 0.0989 0.5204 0.6724
C6 C 0.1191(11) 0.7296(10) 0.6844(6)
C7 C 0.5309(10) 1.1123(9) 0.6285(5)
C8 C 0.3239(10) 0.8205(10) 0.9609(6)
H11 H 0.3383 0.8959 1.0029
H12 H 0.2094 0.7684 0.9489
N4 N 1.2140(10) 1.5446(9) 0.8323(5)
C9 C 0.3885(11) 0.7220(10) 0.9922(6)
C10 C 0.8122(11) 0.8222(10) 0.5384(6)
H13 H 0.7181 0.7511 0.5624
H14 H 0.7754 0.8734 0.4978
C11 C 0.6637(10) 1.1678(9) 0.5678(5)
H15 H 0.7673 1.2093 0.5978
H16 H 0.6621 1.0873 0.5325
C12 C 1.0845(10) 1.4920(10) 0.8445(5)
O13 O 0.9081(7) 1.2366(6) 0.7646(4)
O14 O 0.7046(7) 1.1930(7) 0.8414(4)
C13 C 0.8959(11) 0.7478(10) 0.4979(6)
C14 C 0.4022(10) 0.8903(9) 0.8837(5)
C15 C 0.9161(10) 1.4227(10) 0.8601(6)
H17 H 0.8621 1.4838 0.8409
H18 H 0.9038 1.4138 0.9193
O15 O 0.7675(7) 0.7645(7) 0.7961(4)
H19 H 0.6888 0.6859 0.8069
H20 H 0.8442 0.7412 0.7811
N5 N -0.2517(10) 0.4617(9) 0.6747(5)
Gd1 Gd 0.24513(5) 1.02866(4) 0.72475(2)
Gd2 Gd 0.72472(5) 0.97779(4) 0.77224(2)
O16 O -0.1185(7) 1.0438(6) 0.9017(4)
O17 O 0.0422(7) 1.0290(6) 0.8097(4)
N6 N 0.0950(10) 1.3165(10) 1.0342(6)
C16 C 0.0177(10) 1.0648(9) 0.8791(5)
C17 C 0.1263(12) 1.2392(12) 0.9923(6)
C18 C 0.1588(11) 1.1422(10) 0.9390(6)
H21 H 0.1812 1.0711 0.9713
H22 H 0.2533 1.1955 0.9086
O3_2 O 0.0577(7) 0.9589(7) 0.6106(4)
Gd1_2 Gd 1.24513(5) 1.02866(4) 0.72475(2)
Gd2_2 Gd -0.27528(5) 0.97779(4) 0.77224(2)
O16_2 O 0.8815(7) 1.0438(6) 0.9017(4)
O17_2 O 1.0422(7) 1.0290(6) 0.8097(4)
O18 O 0.4375(7) 0.4846(7) 0.6516(4)
H23 H 0.4073 0.4964 0.6030
H24 H 0.5092 0.4484 0.6481
loop_
_geom_bond_atom_site_label_1
_geom_bond_atom_site_label_2
_geom_bond_site_symmetry_1
_geom_bond_site_symmetry_2
O1 H1 1_555 1_555
H2 O1 1_555 1_555
O2 H3 1_555 1_555
H4 O2 1_555 1_555
O3 C4 1_555 1_555
O4 H5 1_555 1_555
H6 O4 1_555 1_555
O5 C14 1_555 1_555
O6 C6 1_555 1_555
O7 H7 1_555 1_555
H8 O7 1_555 1_555
O8 C7 1_555 1_555
O9 C14 1_555 1_555
O10 C6 1_555 1_555
O11 C7 1_555 1_555
C1 N1 1_555 1_555
C2 O13 1_555 1_555
N2 C9 1_555 1_555
C3 C5 1_555 1_555
C4 O12 1_555 1_555
N3 C13 1_555 1_555
O12 Gd2 1_555 1_555
C5 H9 1_555 1_555
H10 C5 1_555 1_555
C6 C5 1_555 1_555
C7 C11 1_555 1_555
C8 H11 1_555 1_555
H12 C8 1_555 1_555
N4 C12 1_555 1_555
C9 C8 1_555 1_555
C10 C4 1_555 1_555
H13 C10 1_555 1_555
H14 C10 1_555 1_555
C11 C1 1_555 1_555
H15 C11 1_555 1_555
H16 C11 1_555 1_555
C12 C15 1_555 1_555
O13 Gd2 1_555 1_555
O14 C2 1_555 1_555
C13 C10 1_555 1_555
C14 C8 1_555 1_555
C15 C2 1_555 1_555
H17 C15 1_555 1_555
H18 C15 1_555 1_555
O15 H19 1_555 1_555
H20 O15 1_555 1_555
N5 C3 1_555 1_555
Gd1 O4 1_555 1_555
Gd2 O2 1_555 1_555
O16 C16 1_555 1_555
O17 Gd1 1_555 1_555
N6 C17 1_555 1_555
C16 O17 1_555 1_555
C17 C18 1_555 1_555
C18 C16 1_555 1_555
H21 C18 1_555 1_555
H22 C18 1_555 1_555
O18 H23 1_555 1_555
H24 O18 1_555 1_555
O3_2 Gd1 1_555 1_555
Gd1_2 O3 1_555 1_555
Gd2_2 O16 1_555 1_555
O16_2 Gd2 1_555 1_555
O17_2 Gd2 1_555 1_555
O5 Gd2 1_555 1_555
O6 Gd1 1_555 1_555
O7 Gd1 1_555 1_555
O8 Gd1 1_555 1_555
O9 Gd1 1_555 1_555
O10 Gd1 1_555 1_555
O11 Gd1 1_555 1_555
O11 Gd2 1_555 1_555
O14 Gd2 1_555 1_555
O15 Gd2 1_555 1_555
O17 Gd2_2 1_555 1_555
Gd1_2 O17_2 1_555 1_555

#END
