
#######################################################################
#
#                 Cambridge Crystallographic Data Centre
#                                CCDC 
#
#######################################################################
#
# If this CIF has been generated from an entry in the Cambridge 
# Structural Database, then it will include bibliographic, chemical, 
# crystal, experimental, refinement or atomic coordinate data resulting 
# from the CCDC's data processing and validation procedures.
#
#######################################################################

data_KOHZIS
_symmetry_cell_setting           monoclinic
_symmetry_space_group_name_H-M   'P 21/c'
_symmetry_Int_Tables_number      14
_space_group_name_Hall           '-P 2ybc'
loop_
_symmetry_equiv_pos_site_id
_symmetry_equiv_pos_as_xyz
1 x,y,z
2 -x,1/2+y,1/2-z
3 -x,-y,-z
4 x,1/2-y,1/2+z
_cell_length_a                   8.9949(4)
_cell_length_b                   14.1156(6)
_cell_length_c                   11.5353(6)
_cell_angle_alpha                90
_cell_angle_beta                 104.168(5)
_cell_angle_gamma                90
_cell_volume                     1420.07
loop_
_atom_site_label
_atom_site_type_symbol
_atom_site_fract_x
_atom_site_fract_y
_atom_site_fract_z
Ag1 Ag 0.40094(5) 0.09021(3) 0.51759(5)
Ag2 Ag -0.13246(5) -0.20970(3) 0.48168(5)
O1 O 0.2283(5) 0.0237(3) 0.8905(3)
H1 H 0.1586 -0.0184 0.8773
O2 O 0.3444(5) 0.1130(3) 0.7820(4)
O3 O -0.1238(5) -0.1715(3) 0.7031(4)
O4 O 0.0270(5) -0.0973(3) 0.8564(4)
N1 N 0.3092(5) -0.0391(3) 0.3615(4)
N2 N 0.2544(5) -0.0110(3) 0.5852(4)
N3 N 0.0648(5) -0.1194(3) 0.5526(4)
N4 N -0.2897(6) -0.3214(3) 0.4013(5)
H2 H -0.2840 -0.3668 0.4571
H3 H -0.2539 -0.3468 0.3419
N5 N -0.4815(5) -0.2264(3) 0.5387(4)
H4 H -0.4029 -0.2519 0.5934
H5 H -0.5561 -0.2136 0.5762
C1 C 0.3297(7) -0.0446(4) 0.2517(5)
H6 H 0.4123 -0.0123 0.2353
C2 C 0.2368(8) -0.0947(4) 0.1615(6)
H7 H 0.2558 -0.0970 0.0858
C3 C 0.1143(8) -0.1419(5) 0.1857(6)
H8 H 0.0470 -0.1755 0.1257
C4 C 0.0919(7) -0.1392(4) 0.2992(5)
H9 H 0.0121 -0.1732 0.3175
C5 C 0.1894(6) -0.0854(3) 0.3863(5)
C6 C 0.1682(6) -0.0732(3) 0.5074(5)
C7 C 0.0864(6) -0.0861(3) 0.6677(5)
C8 C 0.2046(6) -0.0182(4) 0.6869(5)
C9 C -0.0112(7) -0.1207(4) 0.7446(5)
C10 C 0.2635(6) 0.0442(4) 0.7915(5)
C11 C -0.4533(7) -0.3011(4) 0.3537(5)
H10 H -0.4975 -0.3480 0.2951
H11 H -0.4628 -0.2406 0.3145
C12 C -0.5381(7) -0.2991(4) 0.4487(6)
H12 H -0.6445 -0.2870 0.4130
H13 H -0.5305 -0.3601 0.4865
Ag1B Ag -0.40094(5) -0.09021(3) 0.48241(5)
Ag1B_2 Ag 0.59906(5) -0.09021(3) 0.48241(5)
Ag2B Ag 0.13246(5) 0.20970(3) 0.51832(5)
N5B N 0.4815(5) 0.2264(3) 0.4613(4)
loop_
_geom_bond_atom_site_label_1
_geom_bond_atom_site_label_2
_geom_bond_site_symmetry_1
_geom_bond_site_symmetry_2
Ag1 N1 1_555 1_555
Ag2 O3 1_555 1_555
O1 H1 1_555 1_555
O2 C10 1_555 1_555
O3 C9 1_555 1_555
O4 C9 1_555 1_555
N1 C1 1_555 1_555
N2 Ag1 1_555 1_555
N3 Ag2 1_555 1_555
N4 Ag2 1_555 1_555
H2 N4 1_555 1_555
H3 N4 1_555 1_555
N5 H4 1_555 1_555
H5 N5 1_555 1_555
C1 H6 1_555 1_555
C2 C1 1_555 1_555
H7 C2 1_555 1_555
C3 C2 1_555 1_555
H8 C3 1_555 1_555
C4 C3 1_555 1_555
H9 C4 1_555 1_555
C5 N1 1_555 1_555
C6 N2 1_555 1_555
C7 N3 1_555 1_555
C8 N2 1_555 1_555
C9 C7 1_555 1_555
C10 O1 1_555 1_555
C11 N4 1_555 1_555
H10 C11 1_555 1_555
H11 C11 1_555 1_555
C12 N5 1_555 1_555
H12 C12 1_555 1_555
H13 C12 1_555 1_555
Ag1B Ag2 1_555 1_555
Ag1B_2 Ag1 1_555 1_555
Ag2B Ag1 1_555 1_555
N5B Ag1 1_555 1_555
N3 C6 1_555 1_555
N5 Ag1B 1_555 1_555
C4 C5 1_555 1_555
C5 C6 1_555 1_555
C7 C8 1_555 1_555
C8 C10 1_555 1_555
C11 C12 1_555 1_555

#END
