
#######################################################################
#
#                 Cambridge Crystallographic Data Centre
#                                CCDC 
#
#######################################################################
#
# If this CIF has been generated from an entry in the Cambridge 
# Structural Database, then it will include bibliographic, chemical, 
# crystal, experimental, refinement or atomic coordinate data resulting 
# from the CCDC's data processing and validation procedures.
#
#######################################################################

data_KOJCET
_symmetry_cell_setting           monoclinic
_symmetry_space_group_name_H-M   'P 21/c'
_symmetry_Int_Tables_number      14
_space_group_name_Hall           '-P 2ybc'
loop_
_symmetry_equiv_pos_site_id
_symmetry_equiv_pos_as_xyz
1 x,y,z
2 -x,1/2+y,1/2-z
3 -x,-y,-z
4 x,1/2-y,1/2+z
_cell_length_a                   8.0844(1)
_cell_length_b                   16.9103(3)
_cell_length_c                   15.6815(3)
_cell_angle_alpha                90
_cell_angle_beta                 98.0550(10)
_cell_angle_gamma                90
_cell_volume                     2122.66
loop_
_atom_site_label
_atom_site_type_symbol
_atom_site_fract_x
_atom_site_fract_y
_atom_site_fract_z
Cu1 Cu 0.15805(4) 0.25569(2) 0.80720(2)
Na1 Na -0.17322(14) 0.13536(7) 0.78727(8)
O1 O -0.2924(2) 0.67014(11) 0.73341(13)
O2 O -0.4089(2) 0.67609(11) 0.91629(13)
O3 O 0.1863(2) 0.31650(12) 0.69877(13)
O4 O -0.4112(3) 0.11473(14) 0.85120(16)
O5 O -0.2307(2) 0.27440(11) 0.78365(14)
O6 O -0.3190(2) 0.14759(11) 1.02142(13)
O7 O -0.0757(2) 0.20427(12) 1.07293(14)
O8 O -0.0408(2) 0.63710(12) 0.79906(13)
O9 O -0.6526(2) 0.63420(12) 0.84858(14)
O10 O -0.3727(2) 0.30093(11) 0.96253(13)
O11 O 0.3056(2) 0.15899(12) 0.98797(15)
O12 O 0.0052(2) 0.33892(11) 0.83143(13)
O13 O -0.6145(2) 0.31657(12) 0.87600(15)
C1 C -0.0749(3) 0.07210(15) 1.01646(17)
O14 O 0.0771(2) 0.18442(11) 0.89280(13)
C2 C -0.2469(3) 0.40780(15) 0.82911(17)
C3 C -0.1595(3) 0.14768(15) 1.03885(18)
C4 C -0.1527(3) 0.33362(15) 0.81388(18)
C5 C 0.0755(3) 0.07233(15) 0.98119(17)
C6 C -0.1850(3) 0.47968(15) 0.80321(19)
H1 H -0.0866 0.4800 0.7788
C7 C -0.3963(3) 0.40731(15) 0.86547(17)
O15 O -0.1803(4) -0.00918(16) 0.7752(2)
C8 C -0.4145(3) 0.55086(15) 0.85066(18)
C9 C -0.5011(3) 0.62554(15) 0.87134(17)
C10 C -0.2666(3) 0.55056(15) 0.81291(18)
C11 C 0.1473(3) -0.00066(16) 0.96511(18)
H2 H 0.2465 -0.0013 0.9414
C12 C -0.1920(3) 0.62402(15) 0.78138(17)
C13 C -0.4787(3) 0.47856(16) 0.87516(18)
H3 H -0.5785 0.4781 0.8984
C14 C -0.4697(3) 0.33518(15) 0.90121(17)
C15 C 0.1614(3) 0.14565(15) 0.95356(18)
H4 H -0.494(3) 0.133(2) 0.824(2)
H5 H 0.122(3) 0.300(2) 0.6598(18)
H6 H -0.396(4) 0.136(2) 0.8981(15)
H7 H -0.176(5) -0.039(2) 0.7328(16)
H8 H 0.282(2) 0.318(2) 0.690(2)
H9 H -0.166(5) -0.0448(19) 0.8137(18)
Na2 Na -0.13005(15) 0.34570(8) 1.06592(9)
O16 O 0.1040(3) 0.36373(18) 1.00399(18)
O17 O -0.1540(4) 0.4856(2) 1.0561(3)
H10 H 0.088(5) 0.347(2) 0.9512(14)
H11 H 0.104(5) 0.4122(10) 0.999(2)
Cu2 Cu -0.54041(4) 0.76469(2) 0.95142(2)
O18 O -0.5143(2) 0.81465(12) 0.83845(14)
H12 H -0.575(4) 0.800(2) 0.7948(17)
H13 H -0.519(4) 0.8594(12) 0.850(2)
O11B O -0.3056(2) -0.15899(12) 1.01203(15)
O14B O -0.0771(2) -0.18442(11) 1.10720(13)
C5B C -0.0755(3) -0.07233(15) 1.01881(17)
C11B C -0.1473(3) 0.00066(16) 1.03489(18)
H2B H -0.2465 0.0013 1.0586
C15B C -0.1614(3) -0.14565(15) 1.04644(18)
O6B O 0.3190(2) -0.14759(11) 0.97858(13)
O7B O 0.0757(2) -0.20427(12) 0.92707(14)
C1B C 0.0749(3) -0.07210(15) 0.98354(17)
C3B C 0.1595(3) -0.14768(15) 0.96115(18)
Cu1B Cu -1.15805(4) 0.74431(2) 1.19280(2)
Na1B Na -0.82678(14) 0.86464(7) 1.21273(8)
O1B O -0.7076(2) 0.32986(11) 1.26659(13)
O2B O -0.5911(2) 0.32391(11) 1.08371(13)
O3B O -1.1863(2) 0.68350(12) 1.30123(13)
O4B O -0.5888(3) 0.88527(14) 1.14880(16)
O5B O -0.7693(2) 0.72560(11) 1.21635(14)
O8B O -0.9592(2) 0.36290(12) 1.20094(13)
O9B O -0.3474(2) 0.36580(12) 1.15142(14)
O10B O -0.6273(2) 0.69907(11) 1.03747(13)
O12B O -1.0052(2) 0.66108(11) 1.16857(13)
O13B O -0.3855(2) 0.68343(12) 1.12400(15)
C2B C -0.7531(3) 0.59220(15) 1.17089(17)
C4B C -0.8473(3) 0.66638(15) 1.18612(18)
C6B C -0.8150(3) 0.52032(15) 1.19679(19)
H1B H -0.9134 0.5200 1.2212
C7B C -0.6037(3) 0.59269(15) 1.13453(17)
O15B O -0.8197(4) 1.00918(16) 1.2248(2)
C8B C -0.5855(3) 0.44914(15) 1.14934(18)
C9B C -0.4989(3) 0.37446(15) 1.12866(17)
C10B C -0.7334(3) 0.44944(15) 1.18709(18)
C12B C -0.8080(3) 0.37598(15) 1.21862(17)
C13B C -0.5213(3) 0.52144(16) 1.12484(18)
H3B H -0.4215 0.5219 1.1016
C14B C -0.5303(3) 0.66482(15) 1.09879(17)
H4B H -0.506(3) 0.867(2) 1.176(2)
H5B H -1.122(3) 0.700(2) 1.3402(18)
H6B H -0.604(4) 0.864(2) 1.1019(15)
H7B H -0.824(5) 1.039(2) 1.2672(16)
H8B H -1.282(2) 0.682(2) 1.310(2)
H9B H -0.834(5) 1.0448(19) 1.1863(18)
Na2B Na -0.86995(15) 0.65430(8) 0.93408(9)
O16B O -1.1040(3) 0.63627(18) 0.99601(18)
O17B O -0.8460(4) 0.5144(2) 0.9439(3)
H10B H -1.088(5) 0.653(2) 1.0488(14)
H11B H -1.104(5) 0.5878(10) 1.001(2)
Cu2B Cu -0.45959(4) 0.23531(2) 1.04858(2)
O18B O -0.4857(2) 0.18535(12) 1.16155(14)
H12B H -0.425(4) 0.200(2) 1.2052(17)
H13B H -0.481(4) 0.1406(12) 1.150(2)
Cu1_2 Cu -0.84195(4) 0.25569(2) 0.80720(2)
Cu1A Cu -0.15805(4) 0.75569(2) 0.69280(2)
Cu1B_2 Cu -0.15805(4) -0.25569(2) 1.19280(2)
Cu1B_3 Cu -0.15805(4) 0.74431(2) 1.19280(2)
Cu1C Cu -0.84195(4) 0.24431(2) 1.30720(2)
Na1A Na -0.82678(14) 0.63536(7) 0.71273(8)
Na1A_2 Na 0.17322(14) 0.63536(7) 0.71273(8)
Na1B_2 Na 0.17322(14) -0.13536(7) 1.21273(8)
Na1C Na -1.17322(14) 0.36464(7) 1.28727(8)
Na1C_2 Na -0.17322(14) 0.36464(7) 1.28727(8)
O1A O 0.2924(2) 0.17014(11) 0.76659(13)
O1C O -1.2924(2) 0.82986(11) 1.23341(13)
O6B_2 O -0.6810(2) 0.85241(11) 0.97858(13)
O7B_2 O -0.9243(2) 0.79573(12) 0.92707(14)
O8_2 O -1.0408(2) 0.63710(12) 0.79906(13)
O8A O 0.0408(2) 0.13710(12) 0.70094(13)
O8B_2 O 0.0408(2) 0.36290(12) 1.20094(13)
O8C O -1.0408(2) 0.86290(12) 1.29906(13)
O9A O -0.3474(2) 0.13420(12) 0.65142(14)
O9C O -0.6526(2) 0.86580(12) 1.34858(14)
O11_2 O -0.6944(2) 0.15899(12) 0.98797(15)
O11B_2 O -0.3056(2) 0.84101(12) 1.01203(15)
O13_2 O 0.3855(2) 0.31657(12) 0.87600(15)
O13B_2 O -1.3855(2) 0.68343(12) 1.12400(15)
O14B_2 O -1.0771(2) 0.81558(11) 1.10720(13)
Na2_2 Na -1.13005(15) 0.34570(8) 1.06592(9)
Na2B_2 Na 0.13005(15) -0.34570(8) 0.93408(9)
Na2B_3 Na 0.13005(15) 0.65430(8) 0.93408(9)
Cu2_2 Cu -0.54041(4) -0.23531(2) 0.95142(2)
Cu2_3 Cu 0.45959(4) -0.23531(2) 0.95142(2)
Cu2B_2 Cu 0.54041(4) 0.23531(2) 1.04858(2)
O19 O -0.4788(3) -0.03675(15) 0.88423(19)
loop_
_geom_bond_atom_site_label_1
_geom_bond_atom_site_label_2
_geom_bond_site_symmetry_1
_geom_bond_site_symmetry_2
Cu1 O3 1_555 1_555
Na1 O4 1_555 1_555
O1 C12 1_555 1_555
O2 C9 1_555 1_555
O3 H5 1_555 1_555
O4 H4 1_555 1_555
O5 Na1 1_555 1_555
O6 C3 1_555 1_555
O7 C3 1_555 1_555
O8 C12 1_555 1_555
O9 C9 1_555 1_555
O10 C14 1_555 1_555
O11 C15 1_555 1_555
O12 Cu1 1_555 1_555
O13 C14 1_555 1_555
C1 C3 1_555 1_555
O14 Cu1 1_555 1_555
C2 C4 1_555 1_555
C4 O5 1_555 1_555
C5 C1 1_555 1_555
C6 C2 1_555 1_555
H1 C6 1_555 1_555
C7 C2 1_555 1_555
O15 Na1 1_555 1_555
C8 C9 1_555 1_555
C10 C6 1_555 1_555
C11 C5 1_555 1_555
H2 C11 1_555 1_555
C12 C10 1_555 1_555
C13 C7 1_555 1_555
H3 C13 1_555 1_555
C14 C7 1_555 1_555
C15 O14 1_555 1_555
H6 O4 1_555 1_555
H7 O15 1_555 1_555
H8 O3 1_555 1_555
H9 O15 1_555 1_555
Na2 O7 1_555 1_555
O16 Na2 1_555 1_555
O17 Na2 1_555 1_555
H10 O16 1_555 1_555
H11 O16 1_555 1_555
Cu2 O2 1_555 1_555
O18 Cu2 1_555 1_555
H12 O18 1_555 1_555
H13 O18 1_555 1_555
O11B C15B 1_555 1_555
O14B C15B 1_555 1_555
C5B C11B 1_555 1_555
C11B C1 1_555 1_555
H2B C11B 1_555 1_555
C15B C5B 1_555 1_555
O6B C3B 1_555 1_555
O7B C3B 1_555 1_555
C1B C11 1_555 1_555
C3B C1B 1_555 1_555
Cu1B O3B 1_555 1_555
Na1B O4B 1_555 1_555
O1B C12B 1_555 1_555
O2B C9B 1_555 1_555
O3B H5B 1_555 1_555
O4B H4B 1_555 1_555
O5B Na1B 1_555 1_555
O8B C12B 1_555 1_555
O9B Na2 1_555 1_555
O10B Cu2 1_555 1_555
O12B Cu1B 1_555 1_555
O13B C14B 1_555 1_555
C2B C4B 1_555 1_555
C4B O5B 1_555 1_555
C6B C2B 1_555 1_555
H1B C6B 1_555 1_555
C7B C2B 1_555 1_555
O15B Na1B 1_555 1_555
C8B C9B 1_555 1_555
C9B O9B 1_555 1_555
C10B C6B 1_555 1_555
C12B C10B 1_555 1_555
C13B C7B 1_555 1_555
H3B C13B 1_555 1_555
C14B O10B 1_555 1_555
H6B O4B 1_555 1_555
H7B O15B 1_555 1_555
H8B O3B 1_555 1_555
H9B O15B 1_555 1_555
Na2B O9 1_555 1_555
O16B Na2B 1_555 1_555
O17B Na2B 1_555 1_555
H10B O16B 1_555 1_555
H11B O16B 1_555 1_555
Cu2B O6 1_555 1_555
O18B Cu2B 1_555 1_555
H12B O18B 1_555 1_555
H13B O18B 1_555 1_555
Cu1_2 O13 1_555 1_555
Cu1A O1 1_555 1_555
Cu1B_2 O14B 1_555 1_555
Cu1B_3 O13B 1_555 1_555
Cu1C O1B 1_555 1_555
Na1A O9 1_555 1_555
Na1A_2 O8 1_555 1_555
Na1B_2 O14B 1_555 1_555
Na1C O8B 1_555 1_555
Na1C_2 O9B 1_555 1_555
O1A Cu1 1_555 1_555
O1C Cu1B 1_555 1_555
O6B_2 Cu2 1_555 1_555
O7B_2 Na2B 1_555 1_555
O8_2 Na2B 1_555 1_555
O8A Cu1 1_555 1_555
O8B_2 Na2 1_555 1_555
O8C Cu1B 1_555 1_555
O9A Na1 1_555 1_555
O9C Na1B 1_555 1_555
O11_2 Cu2B 1_555 1_555
O11B_2 Cu2 1_555 1_555
O13_2 Cu1 1_555 1_555
O13B_2 Cu1B 1_555 1_555
O14B_2 Cu1B 1_555 1_555
Na2_2 O8B 1_555 1_555
Na2B_2 O7B 1_555 1_555
Na2B_3 O8 1_555 1_555
Cu2_2 O11B 1_555 1_555
Cu2_3 O6B 1_555 1_555
Cu2B_2 O11 1_555 1_555
Na1 O14 1_555 1_555
Na1 O8A 1_555 1_555
O8 Cu1A 1_555 1_555
O10 Na2 1_555 1_555
O10 Cu2B 1_555 1_555
O12 C4 1_555 1_555
C5 C15 1_555 1_555
C8 C10 1_555 1_555
C8 C13 1_555 1_555
C5B C1B 1_555 1_555
Na1B O8C 1_555 1_555
Na1B O14B_2 1_555 1_555
O2B Cu2B 1_555 1_555
O8B Cu1C 1_555 1_555
O10B Na2B 1_555 1_555
O12B C4B 1_555 1_555
C7B C14B 1_555 1_555
C8B C10B 1_555 1_555
C8B C13B 1_555 1_555
Na1A O8_2 1_555 1_555
Na1C_2 O8B_2 1_555 1_555

#END
