
#######################################################################
#
#                 Cambridge Crystallographic Data Centre
#                                CCDC 
#
#######################################################################
#
# If this CIF has been generated from an entry in the Cambridge 
# Structural Database, then it will include bibliographic, chemical, 
# crystal, experimental, refinement or atomic coordinate data resulting 
# from the CCDC's data processing and validation procedures.
#
#######################################################################

data_KOJCIW
_symmetry_cell_setting           orthorhombic
_symmetry_space_group_name_H-M   'P 21 21 21'
_symmetry_Int_Tables_number      19
_space_group_name_Hall           'P 2ac 2ab'
loop_
_symmetry_equiv_pos_site_id
_symmetry_equiv_pos_as_xyz
1 x,y,z
2 1/2-x,-y,1/2+z
3 -x,1/2+y,1/2-z
4 1/2+x,1/2-y,-z
_cell_length_a                   6.0471(14)
_cell_length_b                   16.9379(13)
_cell_length_c                   27.476(2)
_cell_angle_alpha                90
_cell_angle_beta                 90
_cell_angle_gamma                90
_cell_volume                     2814.23
loop_
_atom_site_label
_atom_site_type_symbol
_atom_site_fract_x
_atom_site_fract_y
_atom_site_fract_z
C1 C 0.5265(12) 0.8426(4) 0.6688(3)
H1 H 0.3829 0.8400 0.6540
H2 H 0.5668 0.8969 0.6737
H3 H 0.5232 0.8159 0.6996
C2 C 0.6977(11) 0.8027(4) 0.6352(2)
H4 H 0.6414 0.8039 0.6022
H5 H 0.8324 0.8338 0.6359
C3 C 0.7553(15) 0.7185(4) 0.6478(2)
H6 H 0.6197 0.6868 0.6482
C4 C 0.9163(12) 0.6834(4) 0.6104(2)
C5 C 0.8818(13) 0.6067(3) 0.5930(2)
H7 H 0.7635 0.5770 0.6045
C6 C 1.0243(12) 0.5753(5) 0.5586(2)
H8 H 1.0000 0.5249 0.5464
C7 C 1.2032(11) 0.6192(4) 0.5425(2)
H9 H 1.2987 0.5976 0.5195
C8 C 1.2429(12) 0.6954(3) 0.5601(2)
H10 H 1.3649 0.7243 0.5497
C9 C 1.0936(12) 0.7266(4) 0.5936(2)
H11 H 1.1141 0.7779 0.6049
C10 C 0.7650(13) 0.6162(4) 0.8787(2)
H12 H 0.6629 0.6021 0.9040
H13 H 0.8954 0.5841 0.8813
H14 H 0.6971 0.6076 0.8475
C11 C 0.8261(11) 0.7004(4) 0.8836(2)
H15 H 0.9514 0.7124 0.8628
H16 H 0.8674 0.7118 0.9170
C12 C 0.6255(13) 0.7513(4) 0.8687(2)
H17 H 0.5032 0.7171 0.8587
C13 C 0.5559(11) 0.8005(4) 0.9125(2)
C14 C 0.3667(12) 0.7802(4) 0.9383(2)
H18 H 0.2803 0.7376 0.9286
C15 C 0.3089(12) 0.8243(4) 0.9788(2)
H19 H 0.1854 0.8099 0.9969
C16 C 0.4301(15) 0.8887(5) 0.9926(3)
H20 H 0.3885 0.9170 1.0201
C17 C 0.6131(13) 0.9124(4) 0.9664(2)
H21 H 0.6902 0.9576 0.9754
C18 C 0.6813(10) 0.8685(4) 0.9266(2)
H22 H 0.8070 0.8830 0.9092
Cu1 Cu 0.76237(12) 0.75577(4) 0.76046(2)
Cu2 Cu 0.39942(12) 1.01323(4) 0.74741(2)
Cu3 Cu 0.89619(12) 0.99600(4) 0.74659(2)
N1 N 0.8723(10) 0.7102(3) 0.69691(16)
H23 H 1.0094 0.7297 0.6926
H24 H 0.8884 0.6581 0.7020
N2 N 0.6975(9) 0.8014(3) 0.82672(16)
H25 H 0.8205 0.8270 0.8363
H26 H 0.5924 0.8384 0.8225
N3 N 0.5409(9) 0.6642(3) 0.76914(16)
N4 N 0.3530(11) 0.6724(3) 0.77248(17)
N5 N 0.1694(12) 0.6751(4) 0.7788(2)
N6 N 0.6623(9) 0.9915(3) 0.79214(16)
N7 N 0.6697(9) 1.0299(3) 0.83220(18)
N8 N 0.6841(10) 1.0641(3) 0.8668(2)
N9 N 0.6357(10) 0.9993(3) 0.69943(16)
N10 N 0.6559(10) 0.9944(3) 0.65539(17)
N11 N 0.6713(10) 0.9890(3) 0.61601(19)
N12 N 1.1452(9) 1.0223(3) 0.79696(15)
N13 N 1.1947(8) 0.9954(3) 0.83626(17)
N14 N 1.2256(10) 0.9757(3) 0.87332(19)
N15 N 1.1433(10) 1.0063(3) 0.70230(17)
N16 N 1.1507(10) 0.9777(3) 0.66366(18)
N17 N 1.1724(11) 0.9505(3) 0.6248(2)
N18 N 0.9505(8) 0.8525(2) 0.75191(18)
N19 N 1.1536(10) 0.8447(3) 0.7478(2)
N20 N 1.3442(11) 0.8444(3) 0.7449(2)
Cu2_2 Cu 1.39942(12) 1.01323(4) 0.74741(2)
Cu3_2 Cu -0.10381(12) 0.99600(4) 0.74659(2)
N12_2 N 0.1452(9) 1.0223(3) 0.79696(15)
N15_2 N 0.1433(10) 1.0063(3) 0.70230(17)
loop_
_geom_bond_atom_site_label_1
_geom_bond_atom_site_label_2
_geom_bond_site_symmetry_1
_geom_bond_site_symmetry_2
C1 H1 1_555 1_555
H2 C1 1_555 1_555
H3 C1 1_555 1_555
C2 C1 1_555 1_555
H4 C2 1_555 1_555
H5 C2 1_555 1_555
C3 C2 1_555 1_555
H6 C3 1_555 1_555
C4 C3 1_555 1_555
C5 C4 1_555 1_555
H7 C5 1_555 1_555
C6 C5 1_555 1_555
H8 C6 1_555 1_555
C7 C6 1_555 1_555
H9 C7 1_555 1_555
C8 C7 1_555 1_555
H10 C8 1_555 1_555
C9 C4 1_555 1_555
H11 C9 1_555 1_555
C10 H12 1_555 1_555
H13 C10 1_555 1_555
H14 C10 1_555 1_555
C11 C10 1_555 1_555
H15 C11 1_555 1_555
H16 C11 1_555 1_555
C12 C11 1_555 1_555
H17 C12 1_555 1_555
C13 C12 1_555 1_555
C14 C13 1_555 1_555
H18 C14 1_555 1_555
C15 C14 1_555 1_555
H19 C15 1_555 1_555
C16 C15 1_555 1_555
H20 C16 1_555 1_555
C17 C16 1_555 1_555
H21 C17 1_555 1_555
C18 C13 1_555 1_555
H22 C18 1_555 1_555
Cu1 N1 1_555 1_555
Cu2 N6 1_555 1_555
Cu3 N6 1_555 1_555
N1 C3 1_555 1_555
H23 N1 1_555 1_555
H24 N1 1_555 1_555
N2 C12 1_555 1_555
H25 N2 1_555 1_555
H26 N2 1_555 1_555
N3 Cu1 1_555 1_555
N4 N3 1_555 1_555
N5 N4 1_555 1_555
N6 N7 1_555 1_555
N7 N8 1_555 1_555
N9 Cu2 1_555 1_555
N10 N9 1_555 1_555
N11 N10 1_555 1_555
N12 Cu3 1_555 1_555
N13 N12 1_555 1_555
N14 N13 1_555 1_555
N15 Cu3 1_555 1_555
N16 N15 1_555 1_555
N17 N16 1_555 1_555
N18 Cu1 1_555 1_555
N19 N18 1_555 1_555
N20 N19 1_555 1_555
Cu2_2 N12 1_555 1_555
Cu3_2 N12_2 1_555 1_555
N12_2 Cu2 1_555 1_555
N15_2 Cu2 1_555 1_555
C8 C9 1_555 1_555
C17 C18 1_555 1_555
Cu1 N2 1_555 1_555
Cu3 N9 1_555 1_555
Cu3 N18 1_555 1_555
N15 Cu2_2 1_555 1_555
Cu3_2 N15_2 1_555 1_555

#END
