
#######################################################################
#
#                 Cambridge Crystallographic Data Centre
#                                CCDC 
#
#######################################################################
#
# If this CIF has been generated from an entry in the Cambridge 
# Structural Database, then it will include bibliographic, chemical, 
# crystal, experimental, refinement or atomic coordinate data resulting 
# from the CCDC's data processing and validation procedures.
#
#######################################################################

data_KOJDET
_symmetry_cell_setting           monoclinic
_symmetry_space_group_name_H-M   'C 2/c'
_symmetry_Int_Tables_number      15
_space_group_name_Hall           '-C 2yn'
loop_
_symmetry_equiv_pos_site_id
_symmetry_equiv_pos_as_xyz
1 x,y,z
2 1/2+x,1/2+y,z
3 -x,y,1/2-z
4 1/2-x,1/2+y,1/2-z
5 -x,-y,-z
6 1/2-x,1/2-y,-z
7 x,-y,1/2+z
8 1/2+x,1/2-y,1/2+z
_cell_length_a                   26.7150(19)
_cell_length_b                   12.9166(7)
_cell_length_c                   25.9898(19)
_cell_angle_alpha                90
_cell_angle_beta                 114.048(3)
_cell_angle_gamma                90
_cell_volume                     8189.82
loop_
_atom_site_label
_atom_site_type_symbol
_atom_site_fract_x
_atom_site_fract_y
_atom_site_fract_z
Mn1 Mn 0.0000 0.91208(5) 0.2500
Mn2 Mn 0.060798(18) 0.84875(3) 0.396756(18)
Mn3 Mn 0.5000 1.5000 0.5000
C1 C 0.08956(13) 1.1744(3) 0.36240(13)
C2 C 0.12600(14) 1.2087(3) 0.41496(14)
H1 H 0.1388 1.1619 0.4459
C3 C 0.14380(14) 1.3104(3) 0.42273(15)
C4 C 0.12895(13) 1.3835(3) 0.37905(17)
C5 C 0.08971(15) 1.3469(3) 0.32733(17)
C6 C 0.07117(14) 1.2459(3) 0.31905(15)
H2 H 0.0453 1.2251 0.2829
C7 C 0.32183(13) 1.5359(3) 0.46273(14)
C8 C 0.28400(16) 1.6104(3) 0.4624(2)
H3 H 0.2969 1.6758 0.4793
C9 C 0.22791(18) 1.5920(3) 0.4380(2)
H4 H 0.2027 1.6437 0.4383
C10 C 0.20941(14) 1.4960(3) 0.41306(18)
C11 C 0.24595(15) 1.4230(3) 0.41203(16)
H5 H 0.2330 1.3582 0.3943
C12 C 0.30184(14) 1.4428(3) 0.43672(15)
H6 H 0.3267 1.3913 0.4356
C13 C 0.07137(13) 1.0638(3) 0.35201(13)
C14 C 0.38185(12) 1.5596(2) 0.48752(12)
C15 C 0.15112(16) 0.7658(4) 0.29940(17)
C16 C 0.20727(18) 0.7729(4) 0.3317(2)
H7 H 0.2205 0.7954 0.3698
C17 C 0.24362(17) 0.7474(5) 0.3085(2)
C18 C 0.22784(18) 0.7074(5) 0.25439(18)
C19 C 0.1701(2) 0.7097(6) 0.22186(19)
C20 C 0.13345(17) 0.7375(5) 0.24385(19)
H8 H 0.0953 0.7372 0.2204
C21 C 0.40679(13) 0.4964(3) 0.32655(13)
C22 C 0.40243(19) 0.5595(5) 0.2822(2)
H9 H 0.4323 0.5640 0.2713
C23 C 0.3556(2) 0.6164(6) 0.2532(2)
H10 H 0.3538 0.6599 0.2230
C24 C 0.31182(18) 0.6107(5) 0.26759(17)
C25 C 0.31555(16) 0.5488(5) 0.31255(19)
H11 H 0.2853 0.5436 0.3227
C26 C 0.36340(15) 0.4946(4) 0.34280(17)
H12 H 0.3665 0.4558 0.3750
C27 C 0.11107(16) 0.7925(3) 0.32426(19)
C28 C 0.45834(12) 0.4370(2) 0.35785(12)
C29 C -0.03212(16) 0.2099(3) 0.42686(15)
H13 H -0.0634 0.1717 0.4032
C30 C -0.02591(17) 0.3103(3) 0.41116(15)
H14 H -0.0516 0.3383 0.3767
C31 C 0.01871(14) 0.3698(2) 0.44677(14)
C32 C 0.05477(15) 0.3224(3) 0.49584(15)
H15 H 0.0856 0.3595 0.5214
C33 C 0.04597(15) 0.2220(3) 0.50740(15)
H16 H 0.0712 0.1915 0.5413
C34 C 0.02693(14) 0.4783(2) 0.43397(14)
C35 C 0.00702(18) 0.5162(3) 0.37959(16)
H17 H -0.0128 0.4719 0.3488
C36 C 0.01592(18) 0.6188(3) 0.36991(15)
H18 H 0.0019 0.6431 0.3321
C37 C 0.06271(18) 0.6480(3) 0.46391(15)
H19 H 0.0825 0.6938 0.4939
C38 C 0.05540(17) 0.5467(3) 0.47667(15)
H20 H 0.0700 0.5243 0.5148
H21 H 0.1298 1.5347 0.3717
H22 H 0.2552 0.6725 0.1975
N1 N 0.15184(13) 1.4797(2) 0.38518(18)
N2 N 0.06991(19) 1.4121(3) 0.27682(19)
N3 N 0.17666(16) 1.3421(3) 0.48058(15)
N4 N 0.26320(17) 0.6648(5) 0.23449(16)
N5 N 0.30172(18) 0.7757(5) 0.3419(3)
N6 N 0.1467(2) 0.6775(9) 0.1625(2)
N7 N 0.00340(12) 0.1648(2) 0.47315(12)
N8 N 0.04307(12) 0.6845(2) 0.41103(12)
O1 O 0.04316(12) 1.0399(2) 0.30182(10)
O2 O 0.08552(12) 1.00592(19) 0.39354(11)
O3 O 0.2036(3) 1.2759(3) 0.51270(18)
O4 O 0.17499(17) 1.4308(3) 0.49509(17)
O5 O 0.0507(3) 1.3682(4) 0.23061(18)
O6 O 0.07236(19) 1.5071(3) 0.2820(2)
O7 O 0.41290(9) 1.49945(19) 0.47721(10)
O8 O 0.39689(10) 1.64029(17) 0.51667(9)
O9 O 0.12842(14) 0.8013(3) 0.37633(14)
O10 O 0.06122(11) 0.8011(2) 0.29141(14)
O11 O 0.31923(19) 0.7669(6) 0.3925(2)
O12 O 0.32808(19) 0.8073(5) 0.3164(3)
O13 O 0.1015(3) 0.6673(10) 0.1384(3)
O14 O 0.1743(3) 0.6920(11) 0.1357(2)
O15 O 0.47910(9) 0.43336(19) 0.41037(9)
O16 O 0.48044(9) 0.39028(18) 0.32966(9)
Mn1A Mn 0.5000 0.41208(5) 0.2500
Mn1A_2 Mn -0.5000 0.41208(5) 0.2500
Mn2B Mn -0.060798(18) 0.84875(3) 0.103244(18)
Mn2E Mn 0.439202(18) 1.65125(3) 0.603244(18)
Mn2A Mn 0.560798(18) 0.34875(3) 0.396756(18)
Mn2G Mn -0.439202(18) 1.65125(3) -0.103244(18)
Mn2C Mn -0.560798(18) 0.34875(3) 0.103244(18)
Mn2A_2 Mn 0.560798(18) 2.34875(3) 0.396756(18)
Mn3A Mn 0.0000 0.0000 0.5000
Mn3_2 Mn 0.5000 0.5000 0.5000
Mn3F Mn -0.5000 1.5000 0.0000
Mn3F_2 Mn -0.5000 0.5000 0.0000
C1B C -0.08956(13) 1.1744(3) 0.13760(13)
C2B C -0.12600(14) 1.2087(3) 0.08504(14)
H1B H -0.1388 1.1619 0.0541
C3B C -0.14380(14) 1.3104(3) 0.07727(15)
C4B C -0.12895(13) 1.3835(3) 0.12095(17)
C5B C -0.08971(15) 1.3469(3) 0.17267(17)
C6B C -0.07117(14) 1.2459(3) 0.18095(15)
H2B H -0.0453 1.2251 0.2171
C7B C -0.32183(13) 1.5359(3) 0.03727(14)
C8B C -0.28400(16) 1.6104(3) 0.0376(2)
H3B H -0.2969 1.6758 0.0207
C9B C -0.22791(18) 1.5920(3) 0.0620(2)
H4B H -0.2027 1.6437 0.0617
C10B C -0.20941(14) 1.4960(3) 0.08694(18)
C11B C -0.24595(15) 1.4230(3) 0.08797(16)
H5B H -0.2330 1.3582 0.1057
C12B C -0.30184(14) 1.4428(3) 0.06328(15)
H6B H -0.3267 1.3913 0.0644
C13B C -0.07137(13) 1.0638(3) 0.14799(13)
C14B C -0.38185(12) 1.5596(2) 0.01248(12)
C15B C -0.15112(16) 0.7658(4) 0.20060(17)
C16B C -0.20727(18) 0.7729(4) 0.1683(2)
H7B H -0.2205 0.7954 0.1302
C17B C -0.24362(17) 0.7474(5) 0.1915(2)
C18B C -0.22784(18) 0.7074(5) 0.24561(18)
C19B C -0.1701(2) 0.7097(6) 0.27814(19)
C20B C -0.13345(17) 0.7375(5) 0.25615(19)
H8B H -0.0953 0.7372 0.2796
C21B C -0.40679(13) 0.4964(3) 0.17345(13)
C22B C -0.40243(19) 0.5595(5) 0.2178(2)
H9B H -0.4323 0.5640 0.2287
C23B C -0.3556(2) 0.6164(6) 0.2468(2)
H10B H -0.3538 0.6599 0.2770
C24B C -0.31182(18) 0.6107(5) 0.23241(17)
C25B C -0.31555(16) 0.5488(5) 0.18745(19)
H11B H -0.2853 0.5436 0.1773
C26B C -0.36340(15) 0.4946(4) 0.15720(17)
H12B H -0.3665 0.4558 0.1250
C27B C -0.11107(16) 0.7925(3) 0.17574(19)
C28B C -0.45834(12) 0.4370(2) 0.14215(12)
C29A C 0.46788(16) 1.7099(3) 0.42686(15)
H13A H 0.4366 1.6717 0.4032
C30A C 0.47409(17) 1.8103(3) 0.41116(15)
H14A H 0.4484 1.8383 0.3767
C31A C 0.51871(14) 1.8698(2) 0.44677(14)
C32A C 0.55477(15) 1.8224(3) 0.49584(15)
H15A H 0.5856 1.8595 0.5214
C33A C 0.54597(15) 1.7220(3) 0.50740(15)
H16A H 0.5712 1.6915 0.5413
C34A C 0.52693(14) 1.9783(2) 0.43397(14)
C35A C 0.50702(18) 2.0162(3) 0.37959(16)
H17A H 0.4872 1.9719 0.3488
C36A C 0.51592(18) 2.1188(3) 0.36991(15)
H18A H 0.5019 2.1431 0.3321
C37A C 0.56271(18) 2.1480(3) 0.46391(15)
H19A H 0.5825 2.1938 0.4939
C38A C 0.55540(17) 2.0467(3) 0.47667(15)
H20A H 0.5700 2.0243 0.5148
H21B H -0.1298 1.5347 0.1283
H22B H -0.2552 0.6725 0.3025
N1B N -0.15184(13) 1.4797(2) 0.11482(18)
N2B N -0.06991(19) 1.4121(3) 0.22318(19)
N3B N -0.17666(16) 1.3421(3) 0.01942(15)
N4B N -0.26320(17) 0.6648(5) 0.26551(16)
N5B N -0.30172(18) 0.7757(5) 0.1581(3)
N6B N -0.1467(2) 0.6775(9) 0.3375(2)
N7A N 0.50340(12) 1.6648(2) 0.47315(12)
N7E N 0.49660(12) 1.3352(2) 0.52685(12)
N8A N 0.54307(12) 2.1845(2) 0.41103(12)
N8B N -0.04307(12) 0.6845(2) 0.08897(12)
O1B O -0.04316(12) 1.0399(2) 0.19818(10)
O2B O -0.08552(12) 1.00592(19) 0.10646(11)
O3B O -0.2036(3) 1.2759(3) -0.01270(18)
O4B O -0.17499(17) 1.4308(3) 0.00491(17)
O5B O -0.0507(3) 1.3682(4) 0.26939(18)
O6B O -0.07236(19) 1.5071(3) 0.2180(2)
O7B O -0.41290(9) 1.49945(19) 0.02279(10)
O7D O 0.58710(9) 1.50055(19) 0.52279(10)
O8B O -0.39689(10) 1.64029(17) -0.01667(9)
O8E O 0.10311(10) 0.85971(17) 0.48333(9)
O8G O -0.10311(10) 0.85971(17) 0.01667(9)
O9B O -0.12842(14) 0.8013(3) 0.12367(14)
O10B O -0.06122(11) 0.8011(2) 0.20859(14)
O11B O -0.31923(19) 0.7669(6) 0.1075(2)
O12B O -0.32808(19) 0.8073(5) 0.1836(3)
O13B O -0.1015(3) 0.6673(10) 0.3616(3)
O14B O -0.1743(3) 0.6920(11) 0.3643(2)
O15B O -0.47910(9) 0.43336(19) 0.08963(9)
O15A O -0.02090(9) 0.93336(19) 0.41037(9)
O15_2 O 0.47910(9) 1.43336(19) 0.41037(9)
O15D O 0.52090(9) 1.56664(19) 0.58963(9)
O15C O 0.02090(9) 0.93336(19) 0.08963(9)
O16B O -0.48044(9) 0.39028(18) 0.17034(9)
O16A O -0.01956(9) 0.89028(18) 0.32966(9)
O16C O 0.01956(9) 0.89028(18) 0.17034(9)
O17 O -0.2283(4) 1.1347(14) 0.1274(4)
O18 O -0.2895(5) 1.4796(11) 0.4158(6)
loop_
_geom_bond_atom_site_label_1
_geom_bond_atom_site_label_2
_geom_bond_site_symmetry_1
_geom_bond_site_symmetry_2
Mn1 O1 1_555 1_555
Mn2 N8 1_555 1_555
Mn3 O7 1_555 1_555
C1 C2 1_555 1_555
C2 H1 1_555 1_555
C3 C2 1_555 1_555
C4 C3 1_555 1_555
C5 C4 1_555 1_555
C6 C1 1_555 1_555
H2 C6 1_555 1_555
C7 C8 1_555 1_555
C8 H3 1_555 1_555
C9 C8 1_555 1_555
H4 C9 1_555 1_555
C10 C9 1_555 1_555
C11 C10 1_555 1_555
H5 C11 1_555 1_555
C12 C7 1_555 1_555
H6 C12 1_555 1_555
C13 C1 1_555 1_555
C14 C7 1_555 1_555
C15 C16 1_555 1_555
C16 H7 1_555 1_555
C17 C16 1_555 1_555
C18 C17 1_555 1_555
C19 C18 1_555 1_555
C20 C15 1_555 1_555
H8 C20 1_555 1_555
C21 C22 1_555 1_555
C22 H9 1_555 1_555
C23 C22 1_555 1_555
H10 C23 1_555 1_555
C24 C23 1_555 1_555
C25 C24 1_555 1_555
H11 C25 1_555 1_555
C26 C21 1_555 1_555
H12 C26 1_555 1_555
C27 C15 1_555 1_555
C28 C21 1_555 1_555
C29 H13 1_555 1_555
C30 C29 1_555 1_555
H14 C30 1_555 1_555
C31 C30 1_555 1_555
C32 C31 1_555 1_555
H15 C32 1_555 1_555
C33 C32 1_555 1_555
H16 C33 1_555 1_555
C34 C31 1_555 1_555
C35 C34 1_555 1_555
H17 C35 1_555 1_555
C36 C35 1_555 1_555
H18 C36 1_555 1_555
C37 H19 1_555 1_555
C38 C34 1_555 1_555
H20 C38 1_555 1_555
H21 N1 1_555 1_555
H22 N4 1_555 1_555
N1 C4 1_555 1_555
N2 C5 1_555 1_555
N3 C3 1_555 1_555
N4 C18 1_555 1_555
N5 C17 1_555 1_555
N6 C19 1_555 1_555
N7 C29 1_555 1_555
N8 C36 1_555 1_555
O1 C13 1_555 1_555
O2 Mn2 1_555 1_555
O3 N3 1_555 1_555
O4 N3 1_555 1_555
O5 N2 1_555 1_555
O6 N2 1_555 1_555
O7 C14 1_555 1_555
O8 C14 1_555 1_555
O9 Mn2 1_555 1_555
O10 Mn1 1_555 1_555
O11 N5 1_555 1_555
O12 N5 1_555 1_555
O13 N6 1_555 1_555
O14 N6 1_555 1_555
O15 C28 1_555 1_555
O16 C28 1_555 1_555
Mn1A O16 1_555 1_555
Mn1A_2 O16B 1_555 1_555
Mn2B N8B 1_555 1_555
Mn2E O8 1_555 1_555
Mn2A O15 1_555 1_555
Mn2G O8B 1_555 1_555
Mn2C O15B 1_555 1_555
Mn2A_2 N8A 1_555 1_555
Mn3A N7 1_555 1_555
Mn3_2 O15 1_555 1_555
Mn3F O7B 1_555 1_555
Mn3F_2 O15B 1_555 1_555
C1B C2B 1_555 1_555
C2B H1B 1_555 1_555
C3B C2B 1_555 1_555
C4B C3B 1_555 1_555
C5B C4B 1_555 1_555
C6B C1B 1_555 1_555
H2B C6B 1_555 1_555
C7B C8B 1_555 1_555
C8B H3B 1_555 1_555
C9B C8B 1_555 1_555
H4B C9B 1_555 1_555
C10B C9B 1_555 1_555
C11B C10B 1_555 1_555
H5B C11B 1_555 1_555
C12B C7B 1_555 1_555
H6B C12B 1_555 1_555
C13B C1B 1_555 1_555
C14B C7B 1_555 1_555
C15B C16B 1_555 1_555
C16B H7B 1_555 1_555
C17B C16B 1_555 1_555
C18B C17B 1_555 1_555
C19B C18B 1_555 1_555
C20B C15B 1_555 1_555
H8B C20B 1_555 1_555
C21B C22B 1_555 1_555
C22B H9B 1_555 1_555
C23B C22B 1_555 1_555
H10B C23B 1_555 1_555
C24B C23B 1_555 1_555
C25B C24B 1_555 1_555
H11B C25B 1_555 1_555
C26B C21B 1_555 1_555
H12B C26B 1_555 1_555
C27B C15B 1_555 1_555
C28B C21B 1_555 1_555
C29A H13A 1_555 1_555
C30A C29A 1_555 1_555
H14A C30A 1_555 1_555
C31A C30A 1_555 1_555
C32A C31A 1_555 1_555
H15A C32A 1_555 1_555
C33A C32A 1_555 1_555
H16A C33A 1_555 1_555
C34A C31A 1_555 1_555
C35A C34A 1_555 1_555
H17A C35A 1_555 1_555
C36A C35A 1_555 1_555
H18A C36A 1_555 1_555
C37A H19A 1_555 1_555
C38A C34A 1_555 1_555
H20A C38A 1_555 1_555
H21B N1B 1_555 1_555
H22B N4B 1_555 1_555
N1B C4B 1_555 1_555
N2B C5B 1_555 1_555
N3B C3B 1_555 1_555
N4B C18B 1_555 1_555
N5B C17B 1_555 1_555
N6B C19B 1_555 1_555
N7A Mn3 1_555 1_555
N7E Mn3 1_555 1_555
N8A C36A 1_555 1_555
O1B Mn1 1_555 1_555
O2B Mn2B 1_555 1_555
O3B N3B 1_555 1_555
O4B N3B 1_555 1_555
O5B N2B 1_555 1_555
O6B N2B 1_555 1_555
O7B C14B 1_555 1_555
O7D Mn3 1_555 1_555
O8B C14B 1_555 1_555
O8E Mn2 1_555 1_555
O8G Mn2B 1_555 1_555
O9B Mn2B 1_555 1_555
O10B Mn1 1_555 1_555
O11B N5B 1_555 1_555
O12B N5B 1_555 1_555
O13B N6B 1_555 1_555
O14B N6B 1_555 1_555
O15B C28B 1_555 1_555
O15A Mn2 1_555 1_555
O15_2 Mn3 1_555 1_555
O15D Mn3 1_555 1_555
O15C Mn2B 1_555 1_555
O16B Mn2C 1_555 1_555
O16A Mn1 1_555 1_555
O16C Mn1 1_555 1_555
Mn2 O16A 1_555 1_555
C5 C6 1_555 1_555
C10 N1 1_555 1_555
C11 C12 1_555 1_555
C13 O2 1_555 1_555
C19 C20 1_555 1_555
C24 N4 1_555 1_555
C25 C26 1_555 1_555
C27 O9 1_555 1_555
C27 O10 1_555 1_555
C33 N7 1_555 1_555
C37 C38 1_555 1_555
C37 N8 1_555 1_555
O16 Mn2A 1_555 1_555
Mn2B O16C 1_555 1_555
Mn2E O15D 1_555 1_555
C5B C6B 1_555 1_555
C10B N1B 1_555 1_555
C11B C12B 1_555 1_555
C13B O1B 1_555 1_555
C13B O2B 1_555 1_555
C19B C20B 1_555 1_555
C24B N4B 1_555 1_555
C25B C26B 1_555 1_555
C27B O9B 1_555 1_555
C27B O10B 1_555 1_555
C28B O16B 1_555 1_555
C29A N7A 1_555 1_555
C33A N7A 1_555 1_555
C37A C38A 1_555 1_555
C37A N8A 1_555 1_555

#END
