
#######################################################################
#
#                 Cambridge Crystallographic Data Centre
#                                CCDC 
#
#######################################################################
#
# If this CIF has been generated from an entry in the Cambridge 
# Structural Database, then it will include bibliographic, chemical, 
# crystal, experimental, refinement or atomic coordinate data resulting 
# from the CCDC's data processing and validation procedures.
#
#######################################################################

data_KOJJOK
_symmetry_cell_setting           triclinic
_symmetry_space_group_name_H-M   'P -1'
_symmetry_Int_Tables_number      2
_space_group_name_Hall           '-P 1'
loop_
_symmetry_equiv_pos_site_id
_symmetry_equiv_pos_as_xyz
1 x,y,z
2 -x,-y,-z
_cell_length_a                   7.999(10)
_cell_length_b                   11.703(5)
_cell_length_c                   17.386(2)
_cell_angle_alpha                104.387(2)
_cell_angle_beta                 98.557(2)
_cell_angle_gamma                96.306(2)
_cell_volume                     1540.53
loop_
_atom_site_label
_atom_site_type_symbol
_atom_site_fract_x
_atom_site_fract_y
_atom_site_fract_z
Zn1 Zn 0.84866(5) 0.27693(3) 0.50822(2)
Zn2 Zn 0.81360(5) -0.13789(3) 0.08772(2)
C1 C 0.4140(4) 0.0706(3) 0.32639(18)
H1 H 0.4226 -0.0103 0.3119
C2 C 0.4617(4) 0.1439(3) 0.27913(17)
C3 C 0.4499(4) 0.2642(3) 0.29985(18)
H2 H 0.4816 0.3122 0.2675
C4 C 0.3898(4) 0.3116(2) 0.36990(17)
C5 C 0.3405(4) 0.2420(3) 0.41850(18)
H3 H 0.2999 0.2751 0.4652
C6 C 0.3532(4) 0.1210(3) 0.39573(17)
C7 C 0.5444(4) 0.1476(3) 0.14588(19)
H4 H 0.5112 0.2196 0.1411
C8 C 0.6196(4) 0.0741(3) 0.09447(19)
H5 H 0.6467 0.0867 0.0467
C9 C 0.5936(4) -0.0076(3) 0.19087(19)
H6 H 0.5987 -0.0600 0.2233
C10 C 0.2647(5) 0.0857(3) 0.5219(2)
H7 H 0.2701 0.1644 0.5516
C11 C 0.2196(5) -0.0119(3) 0.5452(2)
H8 H 0.1881 -0.0123 0.5945
C12 C 0.2773(4) -0.0719(3) 0.42637(19)
H9 H 0.2937 -0.1204 0.3778
C13 C 0.4498(5) 0.5208(3) 0.3574(2)
H10 H 0.5207 0.5087 0.3193
C14 C 0.3978(5) 0.6233(3) 0.3909(2)
H11 H 0.4261 0.6953 0.3789
C15 C 0.2876(4) 0.4933(3) 0.44410(18)
H12 H 0.2272 0.4572 0.4758
C16 C 0.9667(4) 0.3568(3) 0.23315(19)
H13 H 0.9475 0.4350 0.2520
C17 C 1.0115(4) 0.3185(3) 0.15848(19)
H14 H 1.0219 0.3719 0.1271
C18 C 1.0418(4) 0.2018(3) 0.12865(17)
C19 C 1.0292(4) 0.1220(3) 0.17664(17)
C20 C 0.9826(4) 0.1605(3) 0.25160(17)
H15 H 0.9726 0.1077 0.2834
C21 C 0.9505(4) 0.2765(3) 0.28005(17)
C22 C 1.0915(4) 0.1665(3) 0.04723(18)
C23 C 0.9024(4) 0.3164(3) 0.36159(18)
N1 N 0.6510(3) -0.0228(2) 0.12260(15)
N2 N 0.5261(3) 0.0946(2) 0.20751(15)
N3 N 0.2271(3) -0.1119(2) 0.48487(15)
N4 N 0.3017(3) 0.0479(2) 0.44580(15)
N5 N 0.2968(3) 0.6066(2) 0.44532(15)
N6 N 0.3770(3) 0.4365(2) 0.39091(15)
N7 N 1.0508(3) 0.0004(2) 0.14823(15)
H16 H 1.1031 -0.0219 0.1905
H17 H 1.1228 -0.0033 0.1128
O1 O 0.8724(4) 0.4183(2) 0.38901(14)
O2 O 0.8950(4) 0.2369(2) 0.40055(14)
O3 O 1.0461(3) 0.2231(2) -0.00394(13)
O4 O 1.1792(3) 0.0848(2) 0.03056(13)
O5 O 0.8751(4) -0.2152(3) 0.31703(17)
O6 O 0.8211(3) -0.2141(2) 0.17925(14)
O7 O 1.1083(4) -0.1502(3) 0.2544(2)
O8 O 0.9823(4) -0.3556(3) 0.2199(2)
O9 O 1.0775(3) 0.3416(2) 0.58068(14)
H18 H 1.0836 0.4137 0.6001
H19 H 1.0949 0.3103 0.6226
O10 O 0.6084(3) -0.2877(2) 0.02327(15)
H20 H 0.5156 -0.2696 0.0323
H21 H 0.5919 -0.3342 -0.0317
S1 S 0.94998(12) -0.23190(8) 0.24375(5)
Zn1A Zn 0.15134(5) -0.27693(3) 0.49178(2)
Zn1A_2 Zn 0.15134(5) 0.72307(3) 0.49178(2)
Zn2A Zn 1.18640(5) 0.13789(3) -0.08772(2)
N3A N 0.7729(3) 0.1119(2) 0.51513(15)
N5A N 0.7032(3) 0.3934(2) 0.55468(15)
O3A O 0.9539(3) -0.2231(2) 0.00394(13)
O4A O 0.8208(3) -0.0848(2) -0.03056(13)
O11 O 0.4531(4) 0.4145(3) 0.14338(18)
H22 H 0.5569 0.4550 0.1448
H23 H 0.4069 0.4758 0.1527
O12 O 0.2594(4) 0.6815(3) 0.02716(19)
H24 H 0.1615 0.7197 0.0230
H25 H 0.2402 0.6175 -0.0203
O13 O 0.2901(4) 0.6130(3) 0.17035(19)
H26 H 0.2797 0.6344 0.1226
H27 H 0.1948 0.6199 0.1908
O14 O 0.5162(4) 0.7982(2) 0.28989(16)
H28 H 0.4572 0.7446 0.2502
H29 H 0.6321 0.7835 0.2879
O15 O 0.2715(4) 0.4771(3) 0.9097(2)
H30 H 0.1886 0.4327 0.8613
H31 H 0.3099 0.4032 0.9160
loop_
_geom_bond_atom_site_label_1
_geom_bond_atom_site_label_2
_geom_bond_site_symmetry_1
_geom_bond_site_symmetry_2
Zn1 O2 1_555 1_555
Zn2 N1 1_555 1_555
C1 H1 1_555 1_555
C2 C1 1_555 1_555
C3 C2 1_555 1_555
H2 C3 1_555 1_555
C4 C3 1_555 1_555
C5 C4 1_555 1_555
H3 C5 1_555 1_555
C6 C1 1_555 1_555
C7 H4 1_555 1_555
C8 C7 1_555 1_555
H5 C8 1_555 1_555
C9 H6 1_555 1_555
C10 H7 1_555 1_555
C11 C10 1_555 1_555
H8 C11 1_555 1_555
C12 H9 1_555 1_555
C13 H10 1_555 1_555
C14 C13 1_555 1_555
H11 C14 1_555 1_555
C15 H12 1_555 1_555
C16 H13 1_555 1_555
C17 C16 1_555 1_555
H14 C17 1_555 1_555
C18 C17 1_555 1_555
C19 C18 1_555 1_555
C20 C19 1_555 1_555
H15 C20 1_555 1_555
C21 C16 1_555 1_555
C22 C18 1_555 1_555
C23 C21 1_555 1_555
N1 C8 1_555 1_555
N2 C2 1_555 1_555
N3 C11 1_555 1_555
N4 C6 1_555 1_555
N5 C14 1_555 1_555
N6 C4 1_555 1_555
N7 Zn2 1_555 1_555
H16 N7 1_555 1_555
H17 N7 1_555 1_555
O1 C23 1_555 1_555
O2 C23 1_555 1_555
O3 C22 1_555 1_555
O4 C22 1_555 1_555
O5 S1 1_555 1_555
O6 Zn2 1_555 1_555
O7 S1 1_555 1_555
O8 S1 1_555 1_555
O9 Zn1 1_555 1_555
H18 O9 1_555 1_555
H19 O9 1_555 1_555
O10 Zn2 1_555 1_555
H20 O10 1_555 1_555
H21 O10 1_555 1_555
S1 O6 1_555 1_555
O11 H22 1_555 1_555
H23 O11 1_555 1_555
O12 H24 1_555 1_555
H25 O12 1_555 1_555
O13 H26 1_555 1_555
H27 O13 1_555 1_555
O14 H28 1_555 1_555
H29 O14 1_555 1_555
O15 H30 1_555 1_555
H31 O15 1_555 1_555
Zn1A N3 1_555 1_555
Zn1A_2 N5 1_555 1_555
Zn2A O3 1_555 1_555
N3A Zn1 1_555 1_555
N5A Zn1 1_555 1_555
O3A Zn2 1_555 1_555
O4A Zn2 1_555 1_555
C5 C6 1_555 1_555
C7 N2 1_555 1_555
C9 N1 1_555 1_555
C9 N2 1_555 1_555
C10 N4 1_555 1_555
C12 N3 1_555 1_555
C12 N4 1_555 1_555
C13 N6 1_555 1_555
C15 N5 1_555 1_555
C15 N6 1_555 1_555
C19 N7 1_555 1_555
C20 C21 1_555 1_555
O4 Zn2A 1_555 1_555

#END
