
#######################################################################
#
#                 Cambridge Crystallographic Data Centre
#                                CCDC 
#
#######################################################################
#
# If this CIF has been generated from an entry in the Cambridge 
# Structural Database, then it will include bibliographic, chemical, 
# crystal, experimental, refinement or atomic coordinate data resulting 
# from the CCDC's data processing and validation procedures.
#
#######################################################################

data_KOJKAX
_symmetry_cell_setting           monoclinic
_symmetry_space_group_name_H-M   'P 21/n'
_symmetry_Int_Tables_number      14
_space_group_name_Hall           '-P 2yn'
loop_
_symmetry_equiv_pos_site_id
_symmetry_equiv_pos_as_xyz
1 x,y,z
2 1/2-x,1/2+y,1/2-z
3 -x,-y,-z
4 1/2+x,1/2-y,1/2+z
_cell_length_a                   10.426(5)
_cell_length_b                   18.990(10)
_cell_length_c                   11.711(6)
_cell_angle_alpha                90
_cell_angle_beta                 96.875(10)
_cell_angle_gamma                90
_cell_volume                     2301.99
loop_
_atom_site_label
_atom_site_type_symbol
_atom_site_fract_x
_atom_site_fract_y
_atom_site_fract_z
Zn1 Zn 0.27659(2) 0.436438(11) 0.70853(2)
C1 C 0.67421(18) 0.69080(10) 0.74676(17)
H1 H 0.6045 0.7142 0.7719
C2 C 0.68001(18) 0.61788(10) 0.74748(17)
C3 C 0.78241(17) 0.58164(10) 0.71057(17)
H2 H 0.7848 0.5327 0.7113
C4 C 0.88109(17) 0.62044(10) 0.67260(17)
C5 C 0.87971(18) 0.69365(10) 0.67063(17)
H3 H 0.9473 0.7189 0.6452
C6 C 0.77483(18) 0.72805(10) 0.70763(17)
C7 C 0.51120(18) 0.52679(10) 0.72057(18)
H4 H 0.5330 0.5098 0.6510
C8 C 0.4162(2) 0.54170(14) 0.8719(2)
H5 H 0.3587 0.5363 0.9261
C9 C 0.5129(2) 0.58906(14) 0.8781(2)
H6 H 0.5347 0.6217 0.9364
C10 C 1.04736(19) 0.52724(11) 0.69012(19)
H7 H 1.0226 0.5064 0.7559
C11 C 1.1479(2) 0.54990(11) 0.54383(19)
H8 H 1.2067 0.5471 0.4902
C12 C 1.0529(2) 0.59826(11) 0.54296(18)
H9 H 1.0341 0.6342 0.4897
C13 C 0.6963(3) 0.84450(12) 0.7650(2)
H10 H 0.6490 0.8277 0.8218
C14 C 0.7802(3) 0.91234(12) 0.6514(2)
H11 H 0.8023 0.9529 0.6136
C15 C 0.8218(3) 0.84698(12) 0.6300(2)
H12 H 0.8765 0.8344 0.5762
C16 C 0.4811(2) 0.29492(11) 0.53274(18)
C17 C 0.5867(2) 0.30104(12) 0.47230(19)
H13 H 0.6161 0.3451 0.4524
C18 C 0.6478(2) 0.24019(12) 0.44193(18)
C19 C 0.6063(2) 0.17334(12) 0.46583(18)
C20 C 0.5021(2) 0.16782(12) 0.5274(2)
H14 H 0.4727 0.1236 0.5462
C21 C 0.4405(2) 0.22819(12) 0.5616(2)
H15 H 0.3713 0.2237 0.6042
C22 C 0.4146(2) 0.36103(12) 0.56697(19)
C23 C 0.6630(2) 0.10782(12) 0.4157(2)
N1 N 0.41554(15) 0.50256(9) 0.77322(15)
N2 N 0.57292(16) 0.57935(8) 0.78105(15)
N3 N 1.14439(15) 0.50555(9) 0.63604(15)
N4 N 0.98925(15) 0.58364(9) 0.63688(15)
N5 N 0.7012(2) 0.91071(10) 0.7362(2)
N6 N 0.76757(15) 0.80290(9) 0.70314(15)
N7 N 0.7664(2) 0.25042(11) 0.38733(19)
O1 O 0.32442(17) 0.35223(9) 0.62994(17)
O2 O 0.4486(2) 0.41836(9) 0.53379(16)
O3 O 0.6835(3) 0.05491(11) 0.4731(2)
O4 O 0.67928(18) 0.11545(9) 0.31236(15)
O5 O 0.86193(17) 0.21639(13) 0.4240(2)
O6 O 0.7654(2) 0.29415(11) 0.31053(18)
Zn1_2 Zn 1.27659(2) 0.436438(11) 0.70853(2)
Zn1C Zn 0.77659(2) 0.063562(11) 0.20853(2)
N3_2 N 0.14439(15) 0.50555(9) 0.63604(15)
O4C O 0.17928(18) 0.38455(9) 0.81236(15)
O7 O 0.0763(3) 0.27637(17) 0.6308(3)
loop_
_geom_bond_atom_site_label_1
_geom_bond_atom_site_label_2
_geom_bond_site_symmetry_1
_geom_bond_site_symmetry_2
Zn1 N1 1_555 1_555
C1 H1 1_555 1_555
C2 C1 1_555 1_555
C3 C2 1_555 1_555
H2 C3 1_555 1_555
C4 C3 1_555 1_555
C5 C4 1_555 1_555
H3 C5 1_555 1_555
C6 C1 1_555 1_555
C7 H4 1_555 1_555
C8 H5 1_555 1_555
C9 C8 1_555 1_555
H6 C9 1_555 1_555
C10 H7 1_555 1_555
C11 H8 1_555 1_555
C12 C11 1_555 1_555
H9 C12 1_555 1_555
C13 H10 1_555 1_555
C14 H11 1_555 1_555
C15 C14 1_555 1_555
H12 C15 1_555 1_555
C16 C17 1_555 1_555
C17 H13 1_555 1_555
C18 C17 1_555 1_555
C19 C18 1_555 1_555
C20 C19 1_555 1_555
H14 C20 1_555 1_555
C21 C16 1_555 1_555
H15 C21 1_555 1_555
C22 C16 1_555 1_555
C23 C19 1_555 1_555
N1 C7 1_555 1_555
N2 C2 1_555 1_555
N3 C10 1_555 1_555
N4 C4 1_555 1_555
N5 C13 1_555 1_555
N6 C6 1_555 1_555
N7 C18 1_555 1_555
O1 Zn1 1_555 1_555
O2 C22 1_555 1_555
O3 C23 1_555 1_555
O4 C23 1_555 1_555
O5 N7 1_555 1_555
O6 N7 1_555 1_555
Zn1_2 N3 1_555 1_555
Zn1C O4 1_555 1_555
N3_2 Zn1 1_555 1_555
O4C Zn1 1_555 1_555
C5 C6 1_555 1_555
C7 N2 1_555 1_555
C8 N1 1_555 1_555
C9 N2 1_555 1_555
C10 N4 1_555 1_555
C11 N3 1_555 1_555
C12 N4 1_555 1_555
C13 N6 1_555 1_555
C14 N5 1_555 1_555
C15 N6 1_555 1_555
C20 C21 1_555 1_555
C22 O1 1_555 1_555

#END
