
#######################################################################
#
#                 Cambridge Crystallographic Data Centre
#                                CCDC 
#
#######################################################################
#
# If this CIF has been generated from an entry in the Cambridge 
# Structural Database, then it will include bibliographic, chemical, 
# crystal, experimental, refinement or atomic coordinate data resulting 
# from the CCDC's data processing and validation procedures.
#
#######################################################################

data_KOJLUR
_symmetry_cell_setting           triclinic
_symmetry_space_group_name_H-M   'P -1'
_symmetry_Int_Tables_number      2
_space_group_name_Hall           '-P 1'
loop_
_symmetry_equiv_pos_site_id
_symmetry_equiv_pos_as_xyz
1 x,y,z
2 -x,-y,-z
_cell_length_a                   7.0589(9)
_cell_length_b                   7.5727(10)
_cell_length_c                   13.0623(16)
_cell_angle_alpha                91.035(2)
_cell_angle_beta                 105.557(2)
_cell_angle_gamma                96.258(2)
_cell_volume                     667.839
loop_
_atom_site_label
_atom_site_type_symbol
_atom_site_fract_x
_atom_site_fract_y
_atom_site_fract_z
Cu1 Cu 0.5000 0.5000 0.5000
O1 O 0.7683(2) 0.6302(2) 0.94694(14)
N1 N 0.3226(3) 0.6805(3) 0.43912(17)
N2 N 0.1289(3) 0.9300(3) 0.4252(2)
N3 N 0.2383(3) 1.2488(3) 0.42722(18)
N4 N 0.4045(3) 0.5150(2) 0.63448(14)
N5 N 0.5289(3) 0.7783(3) 0.97935(18)
H1 H 0.412(3) 0.812(4) 0.956(2)
H2 H 0.614(3) 0.832(3) 1.0339(17)
C1 C 0.2421(3) 0.8059(3) 0.43420(18)
C2 C 0.1948(4) 1.0985(3) 0.4265(2)
C3 C 0.5244(3) 0.5754(3) 0.72882(18)
H3 H 0.6589 0.6026 0.7352
C4 C 0.4562(3) 0.5991(3) 0.81783(17)
C5 C 0.2561(3) 0.5550(3) 0.80856(19)
H4 H 0.2059 0.5695 0.8668
C6 C 0.1336(4) 0.4898(4) 0.7120(2)
H5 H -0.0008 0.4580 0.7040
C7 C 0.2119(3) 0.4720(3) 0.62736(19)
H6 H 0.1276 0.4282 0.5621
C8 C 0.5980(3) 0.6716(3) 0.92026(18)
Cu1_2 Cu 0.5000 1.5000 0.5000
Cu1_3 Cu 0.5000 -0.5000 0.5000
O1A O 0.2317(2) 0.3698(2) 0.05306(14)
N1A N 0.6774(3) 0.3195(3) 0.56088(17)
N2A N 0.8711(3) 0.0700(3) 0.5748(2)
N3A N 0.7617(3) -0.2488(3) 0.57278(18)
N3_2 N 0.2383(3) 0.2488(3) 0.42722(18)
N3A_2 N 0.7617(3) 0.7512(3) 0.57278(18)
N4A N 0.5955(3) 0.4850(2) 0.36552(14)
N5A N 0.4711(3) 0.2217(3) 0.02065(18)
H1A H 0.588(3) 0.188(4) 0.044(2)
H2A H 0.386(3) 0.168(3) -0.0339(17)
C1A C 0.7579(3) 0.1941(3) 0.56580(18)
C2A C 0.8052(4) -0.0985(3) 0.5735(2)
C3A C 0.4756(3) 0.4246(3) 0.27118(18)
H3A H 0.3411 0.3974 0.2648
C4A C 0.5438(3) 0.4009(3) 0.18217(17)
C5A C 0.7439(3) 0.4450(3) 0.19144(19)
H4A H 0.7941 0.4305 0.1332
C6A C 0.8664(4) 0.5102(4) 0.2880(2)
H5A H 1.0008 0.5420 0.2960
C7A C 0.7881(3) 0.5280(3) 0.37264(19)
H6A H 0.8724 0.5718 0.4379
C8A C 0.4020(3) 0.3284(3) 0.07974(18)
O2 O -0.4453(3) 1.1797(2) 0.78867(15)
N6 N 0.1407(3) 0.9395(3) 0.8880(2)
N7 N -0.2082(3) 0.9918(3) 0.81518(18)
N8 N -0.1474(3) 1.2844(3) 0.88949(19)
H7 H -0.188(5) 1.385(3) 0.903(3)
H8 H -0.034(3) 1.269(4) 0.932(2)
C9 C -0.0207(4) 0.9690(3) 0.8557(2)
C10 C -0.2607(3) 1.1477(3) 0.83227(19)
C11 C -0.5769(4) 1.0490(4) 0.7128(2)
H9 H -0.6851 1.1045 0.6700
H10 H -0.6273 0.9551 0.7502
H11 H -0.5056 1.0008 0.6679
loop_
_geom_bond_atom_site_label_1
_geom_bond_atom_site_label_2
_geom_bond_site_symmetry_1
_geom_bond_site_symmetry_2
Cu1 N1 1_555 1_555
O1 C8 1_555 1_555
N1 C1 1_555 1_555
N2 C1 1_555 1_555
N3 C2 1_555 1_555
N4 Cu1 1_555 1_555
N5 H1 1_555 1_555
H2 N5 1_555 1_555
C2 N2 1_555 1_555
C3 N4 1_555 1_555
H3 C3 1_555 1_555
C4 C3 1_555 1_555
C5 C4 1_555 1_555
H4 C5 1_555 1_555
C6 C5 1_555 1_555
H5 C6 1_555 1_555
C7 N4 1_555 1_555
H6 C7 1_555 1_555
C8 N5 1_555 1_555
O2 C10 1_555 1_555
N6 C9 1_555 1_555
N7 C9 1_555 1_555
N8 H7 1_555 1_555
H8 N8 1_555 1_555
C10 N7 1_555 1_555
C11 O2 1_555 1_555
H9 C11 1_555 1_555
H10 C11 1_555 1_555
H11 C11 1_555 1_555
Cu1_2 N3 1_555 1_555
Cu1_3 N3A 1_555 1_555
O1A C8A 1_555 1_555
N1A Cu1 1_555 1_555
N2A C1A 1_555 1_555
N3A C2A 1_555 1_555
N3_2 Cu1 1_555 1_555
N3A_2 Cu1 1_555 1_555
N4A Cu1 1_555 1_555
N5A H1A 1_555 1_555
H2A N5A 1_555 1_555
C1A N1A 1_555 1_555
C2A N2A 1_555 1_555
C3A N4A 1_555 1_555
H3A C3A 1_555 1_555
C4A C3A 1_555 1_555
C5A C4A 1_555 1_555
H4A C5A 1_555 1_555
C6A C5A 1_555 1_555
H5A C6A 1_555 1_555
C7A N4A 1_555 1_555
H6A C7A 1_555 1_555
C8A N5A 1_555 1_555
C4 C8 1_555 1_555
C6 C7 1_555 1_555
N8 C10 1_555 1_555
C4A C8A 1_555 1_555
C6A C7A 1_555 1_555

#END
