
#######################################################################
#
#                 Cambridge Crystallographic Data Centre
#                                CCDC 
#
#######################################################################
#
# If this CIF has been generated from an entry in the Cambridge 
# Structural Database, then it will include bibliographic, chemical, 
# crystal, experimental, refinement or atomic coordinate data resulting 
# from the CCDC's data processing and validation procedures.
#
#######################################################################

data_KOJMOM
_symmetry_cell_setting           monoclinic
_symmetry_space_group_name_H-M   'P 21/n'
_symmetry_Int_Tables_number      14
_space_group_name_Hall           '-P 2yn'
loop_
_symmetry_equiv_pos_site_id
_symmetry_equiv_pos_as_xyz
1 x,y,z
2 1/2-x,1/2+y,1/2-z
3 -x,-y,-z
4 1/2+x,1/2-y,1/2+z
_cell_length_a                   12.57690(10)
_cell_length_b                   14.2997(2)
_cell_length_c                   12.5947(2)
_cell_angle_alpha                90
_cell_angle_beta                 90.9000(10)
_cell_angle_gamma                90
_cell_volume                     2264.83
loop_
_atom_site_label
_atom_site_type_symbol
_atom_site_fract_x
_atom_site_fract_y
_atom_site_fract_z
Cd1 Cd 0.389170(15) 0.005810(14) -0.157650(15)
N1 N 0.34243(18) 0.09007(17) -0.30725(17)
N2 N -0.23077(17) 0.07861(17) -0.82339(18)
O1 O 0.48433(15) -0.09684(14) -0.26510(15)
O2 O 0.54885(16) 0.07538(15) -0.11270(15)
H1 H 0.543(2) 0.102(2) -0.0534(18)
H2 H 0.596(2) 0.035(2) -0.097(3)
O3 O 0.47337(13) -0.13859(13) -0.09714(13)
O4 O 0.68249(18) -0.11142(17) 0.05542(17)
O5 O 0.68967(15) -0.06776(14) -0.11398(18)
C1 C 0.56529(18) -0.23934(19) -0.21497(19)
C2 C 0.5232(2) -0.2902(2) -0.2986(2)
H3 H 0.4673 -0.2652 -0.3385
C3 C 0.5628(3) -0.3787(2) -0.3248(3)
H4 H 0.5326 -0.4120 -0.3812
C4 C 0.6442(3) -0.4155(2) -0.2685(2)
H5 H 0.6697 -0.4743 -0.2864
C5 C 0.7767(3) -0.4067(2) -0.1256(3)
H6 H 0.8021 -0.4652 -0.1452
C6 C 0.8222(2) -0.3620(2) -0.0427(3)
H7 H 0.8763 -0.3906 -0.0034
C7 C 0.7873(2) -0.2719(2) -0.0159(2)
H8 H 0.8196 -0.2414 0.0413
C8 C 0.70753(18) -0.22741(18) -0.07077(18)
C9 C 0.65367(18) -0.27541(18) -0.15553(19)
C10 C 0.6920(2) -0.3667(2) -0.1829(2)
C11 C 0.50615(18) -0.15144(19) -0.1900(2)
C12 C 0.68969(18) -0.1269(2) -0.0420(2)
C13 C 0.2491(3) 0.1335(3) -0.3113(2)
H9 H 0.2101 0.1374 -0.2493
C14 C 0.2069(3) 0.1731(3) -0.4021(2)
H10 H 0.1411 0.2027 -0.4006
C15 C 0.2626(2) 0.1688(2) -0.4954(2)
C16 C 0.3597(2) 0.1257(2) -0.4908(2)
H11 H 0.4008 0.1219 -0.5514
C17 C 0.3969(2) 0.0879(2) -0.3962(2)
H12 H 0.4634 0.0595 -0.3951
C18 C 0.2174(2) 0.2074(2) -0.5976(2)
H13 H 0.2654 0.1926 -0.6547
H14 H 0.2134 0.2750 -0.5920
C19 C 0.1082(2) 0.1700(2) -0.6257(2)
H15 H 0.0584 0.1899 -0.5722
H16 H 0.1104 0.1021 -0.6251
C20 C 0.0690(2) 0.2030(2) -0.7338(2)
H17 H 0.0629 0.2706 -0.7327
H18 H 0.1213 0.1867 -0.7864
C21 C -0.0363(2) 0.1621(2) -0.7667(2)
C22 C -0.1228(2) 0.1651(3) -0.7017(3)
H19 H -0.1181 0.1959 -0.6368
C23 C -0.2153(2) 0.1229(3) -0.7321(3)
H20 H -0.2718 0.1253 -0.6854
C24 C -0.1494(2) 0.0780(2) -0.8874(2)
H21 H -0.1572 0.0485 -0.9529
C25 C -0.0528(2) 0.1190(2) -0.8623(2)
H22 H 0.0018 0.1173 -0.9112
Cd1B Cd -0.389170(15) -0.005810(14) -0.842350(15)
Cd1B_2 Cd 0.610830(15) -0.005810(14) 0.157650(15)
N2B N 0.23077(17) -0.07861(17) -0.17661(18)
O4B O 0.31751(18) 0.11142(17) -0.05542(17)
loop_
_geom_bond_atom_site_label_1
_geom_bond_atom_site_label_2
_geom_bond_site_symmetry_1
_geom_bond_site_symmetry_2
Cd1 N1 1_555 1_555
N1 C13 1_555 1_555
N2 C23 1_555 1_555
O1 Cd1 1_555 1_555
O2 Cd1 1_555 1_555
H1 O2 1_555 1_555
H2 O2 1_555 1_555
O3 Cd1 1_555 1_555
O4 C12 1_555 1_555
O5 C12 1_555 1_555
C1 C2 1_555 1_555
C2 H3 1_555 1_555
C3 C2 1_555 1_555
H4 C3 1_555 1_555
C4 C3 1_555 1_555
H5 C4 1_555 1_555
C5 H6 1_555 1_555
C6 C5 1_555 1_555
H7 C6 1_555 1_555
C7 C6 1_555 1_555
H8 C7 1_555 1_555
C8 C7 1_555 1_555
C9 C1 1_555 1_555
C10 C4 1_555 1_555
C11 O1 1_555 1_555
C12 C8 1_555 1_555
C13 H9 1_555 1_555
C14 C13 1_555 1_555
H10 C14 1_555 1_555
C15 C14 1_555 1_555
C16 C15 1_555 1_555
H11 C16 1_555 1_555
C17 N1 1_555 1_555
H12 C17 1_555 1_555
C18 C15 1_555 1_555
H13 C18 1_555 1_555
H14 C18 1_555 1_555
C19 C18 1_555 1_555
H15 C19 1_555 1_555
H16 C19 1_555 1_555
C20 C19 1_555 1_555
H17 C20 1_555 1_555
H18 C20 1_555 1_555
C21 C20 1_555 1_555
C22 C21 1_555 1_555
H19 C22 1_555 1_555
C23 C22 1_555 1_555
H20 C23 1_555 1_555
C24 N2 1_555 1_555
H21 C24 1_555 1_555
C25 C21 1_555 1_555
H22 C25 1_555 1_555
Cd1B N2 1_555 1_555
Cd1B_2 O4 1_555 1_555
N2B Cd1 1_555 1_555
O4B Cd1 1_555 1_555
O3 C11 1_555 1_555
C1 C11 1_555 1_555
C5 C10 1_555 1_555
C8 C9 1_555 1_555
C9 C10 1_555 1_555
C16 C17 1_555 1_555
C24 C25 1_555 1_555

#END
