
#######################################################################
#
#                 Cambridge Crystallographic Data Centre
#                                CCDC 
#
#######################################################################
#
# If this CIF has been generated from an entry in the Cambridge 
# Structural Database, then it will include bibliographic, chemical, 
# crystal, experimental, refinement or atomic coordinate data resulting 
# from the CCDC's data processing and validation procedures.
#
#######################################################################

data_KOJSAD
_symmetry_cell_setting           monoclinic
_symmetry_space_group_name_H-M   'P 1 1 21/n'
_symmetry_Int_Tables_number      14
_space_group_name_Hall           '-P 2n'
loop_
_symmetry_equiv_pos_site_id
_symmetry_equiv_pos_as_xyz
1 x,y,z
2 1/2-x,1/2-y,1/2+z
3 -x,-y,-z
4 1/2+x,1/2+y,1/2-z
_cell_length_a                   7.463(1)
_cell_length_b                   12.535(2)
_cell_length_c                   29.408(5)
_cell_angle_alpha                90
_cell_angle_beta                 90
_cell_angle_gamma                106.11(1)
_cell_volume                     2643.05
loop_
_atom_site_label
_atom_site_type_symbol
_atom_site_fract_x
_atom_site_fract_y
_atom_site_fract_z
Cu1 Cu 0.6053(1) -0.0253(1) -0.14653(3)
O1 O 0.6856(8) 0.1321(4) -0.1346(2)
N1 N 0.6286(9) 0.0022(5) -0.2115(2)
N2 N 0.6282(10) -0.0934(6) -0.2349(2)
C1 C 0.6022(11) -0.1848(7) -0.2094(3)
N3 N 0.5710(10) -0.1768(6) -0.1655(2)
S1 S 0.6079(4) -0.3114(2) -0.2334(1)
C2 C 0.6632(15) -0.2798(8) -0.2918(3)
C3 C 0.6427(12) 0.0930(7) -0.2327(3)
C4 C 0.6581(11) 0.1973(7) -0.2109(3)
C5 C 0.6818(11) 0.2149(6) -0.1630(3)
C6 C 0.6979(13) 0.3200(8) -0.1468(3)
C7 C 0.6931(14) 0.4077(7) -0.1753(3)
C8 C 0.6755(15) 0.3924(7) -0.2222(3)
C9 C 0.6566(14) 0.2866(8) -0.2388(3)
Cl1 Cl 0.0839(3) -0.0470(2) -0.1354(1)
O2 O 0.0209(16) -0.1417(7) -0.1087(3)
O3 O 0.0429(17) 0.0442(8) -0.1126(3)
O4 O -0.0021(13) -0.0584(8) -0.1780(3)
O5 O 0.2742(11) -0.0150(10) -0.1395(4)
Cu2 Cu 0.7854(1) 0.1281(1) -0.07351(3)
O6 O 0.6232(8) -0.0209(4) -0.0798(2)
N4 N 0.8422(9) 0.0974(5) -0.0115(2)
N5 N 0.9672(10) 0.1877(5) 0.0080(2)
C10 C 1.0237(11) 0.2793(6) -0.0188(3)
N6 N 0.9629(10) 0.2684(6) -0.0606(2)
S2 S 1.1685(4) 0.4017(2) 0.0026(1)
C11 C 1.2026(19) 0.3711(10) 0.0614(3)
C12 C 0.7777(12) 0.0099(7) 0.0120(3)
C13 C 0.6448(11) -0.0888(6) -0.0040(2)
C14 C 0.5697(11) -0.1020(6) -0.0486(3)
C15 C 0.4357(12) -0.2000(7) -0.0596(3)
C16 C 0.3815(13) -0.2861(7) -0.0285(3)
C17 C 0.4572(14) -0.2752(7) 0.0151(3)
C18 C 0.5849(13) -0.1775(7) 0.0268(3)
Cu2_2 Cu -0.2146(1) 0.1281(1) -0.07351(3)
O3_2 O 1.0429(17) 0.0442(8) -0.1126(3)
Cl2 Cl 0.7584(5) 0.4718(3) 0.1346(1)
O7 O 0.8780(13) 0.4994(7) 0.0982(3)
O8 O 0.7916(15) 0.5387(8) 0.1713(3)
O9 O 0.8247(21) 0.3691(9) 0.1535(4)
O10 O 0.5733(12) 0.4169(7) 0.1253(3)
loop_
_geom_bond_atom_site_label_1
_geom_bond_atom_site_label_2
_geom_bond_site_symmetry_1
_geom_bond_site_symmetry_2
Cu1 O1 1_555 1_555
O1 C5 1_555 1_555
N1 Cu1 1_555 1_555
N2 N1 1_555 1_555
C1 N2 1_555 1_555
N3 Cu1 1_555 1_555
S1 C1 1_555 1_555
C2 S1 1_555 1_555
C3 N1 1_555 1_555
C4 C3 1_555 1_555
C5 C4 1_555 1_555
C6 C5 1_555 1_555
C7 C6 1_555 1_555
C8 C7 1_555 1_555
C9 C4 1_555 1_555
Cl1 O2 1_555 1_555
O3 Cl1 1_555 1_555
O4 Cl1 1_555 1_555
O5 Cu1 1_555 1_555
Cu2 O1 1_555 1_555
O6 Cu1 1_555 1_555
N4 Cu2 1_555 1_555
N5 N4 1_555 1_555
C10 N5 1_555 1_555
N6 Cu2 1_555 1_555
S2 C10 1_555 1_555
C11 S2 1_555 1_555
C12 N4 1_555 1_555
C13 C12 1_555 1_555
C14 O6 1_555 1_555
C15 C14 1_555 1_555
C16 C15 1_555 1_555
C17 C16 1_555 1_555
C18 C13 1_555 1_555
Cl2 O7 1_555 1_555
O8 Cl2 1_555 1_555
O9 Cl2 1_555 1_555
O10 Cl2 1_555 1_555
Cu2_2 O3 1_555 1_555
O3_2 Cu2 1_555 1_555
C1 N3 1_555 1_555
C8 C9 1_555 1_555
Cl1 O5 1_555 1_555
Cu2 O6 1_555 1_555
C10 N6 1_555 1_555
C13 C14 1_555 1_555
C17 C18 1_555 1_555

#END
