
#######################################################################
#
#                 Cambridge Crystallographic Data Centre
#                                CCDC 
#
#######################################################################
#
# If this CIF has been generated from an entry in the Cambridge 
# Structural Database, then it will include bibliographic, chemical, 
# crystal, experimental, refinement or atomic coordinate data resulting 
# from the CCDC's data processing and validation procedures.
#
#######################################################################

data_KOJTUY
_symmetry_cell_setting           monoclinic
_symmetry_space_group_name_H-M   'P 21/c'
_symmetry_Int_Tables_number      14
_space_group_name_Hall           '-P 2ybc'
loop_
_symmetry_equiv_pos_site_id
_symmetry_equiv_pos_as_xyz
1 x,y,z
2 x,1/2-y,1/2+z
3 -x,-y,-z
4 -x,1/2+y,1/2-z
_cell_length_a                   9.649(2)
_cell_length_b                   13.235(2)
_cell_length_c                   25.107(2)
_cell_angle_alpha                90
_cell_angle_beta                 91.03(1)
_cell_angle_gamma                90
_cell_volume                     3205.76
loop_
_atom_site_label
_atom_site_type_symbol
_atom_site_fract_x
_atom_site_fract_y
_atom_site_fract_z
Ag1 Ag 0.14863(8) 0.02314(6) -1.05364(3)
Pd1 Pd 0.11000(8) 0.13279(5) -0.94968(3)
S1 S 0.1177(2) 0.0634(2) -0.86760(9)
S2 S 0.3402(3) 0.0919(2) -0.95982(9)
S3 S -0.1242(3) 0.1644(2) -0.94371(10)
S4 S 0.1086(3) 0.2064(2) -1.03362(9)
O1 O 0.0234(6) -0.0220(5) -0.8625(3)
O2 O 0.1118(7) 0.1348(5) -0.8237(2)
N1 N 0.353(1) -0.076(1) -0.7732(4)
N2 N 0.6280(9) -0.0384(7) -0.8989(3)
N3 N -0.424(1) 0.2387(10) -1.0296(5)
N4 N -0.139(1) 0.2913(8) -1.1369(4)
C1 C 0.2879(9) 0.0093(7) -0.8623(3)
C2 C 0.377(1) 0.0234(7) -0.9025(4)
C3 C 0.326(1) -0.0408(9) -0.8128(5)
C4 C 0.515(1) -0.0128(8) -0.9003(3)
C5 C -0.165(1) 0.2054(7) -1.0086(4)
C6 C -0.0696(10) 0.2242(7) -1.0449(4)
C7 C -0.308(1) 0.2250(10) -1.0196(5)
C8 C -0.111(1) 0.2614(8) -1.0970(4)
Ag1B Ag -0.14863(8) -0.02314(6) -0.94636(3)
S3B S 0.1242(3) -0.1644(2) -1.05629(10)
N2B N 0.3720(9) 0.0384(7) -1.1011(3)
Ag1B_2 Ag 0.85137(8) -0.02314(6) -0.94636(3)
N5 N 0.1805(9) 0.0754(6) -0.2884(3)
C9 C 0.168(1) -0.0226(9) -0.2567(5)
C10 C 0.289(1) -0.065(1) -0.2330(5)
C11 C 0.270(1) -0.165(1) -0.2075(6)
C12 C 0.394(2) -0.209(1) -0.1826(6)
C13 C 0.277(1) 0.062(1) -0.3330(5)
C14 C 0.295(2) 0.139(1) -0.3741(7)
C15 C 0.390(3) 0.109(2) -0.4194(9)
C16 C 0.357(5) 0.050(3) -0.453(1)
C17 C 0.229(2) 0.160(1) -0.2537(6)
C18 C 0.202(3) 0.190(1) -0.2098(7)
C19 C 0.250(2) 0.283(1) -0.1827(6)
C20 C 0.384(3) 0.304(2) -0.1655(10)
C21 C 0.037(2) 0.099(1) -0.3096(6)
C22 C -0.021(2) 0.046(2) -0.3516(8)
C23 C -0.158(2) 0.074(1) -0.3738(9)
C24 C -0.191(2) 0.024(2) -0.425(1)
H1 H 0.1029 -0.0103 -0.2276
H2 H 0.1263 -0.0735 -0.2787
H3 H 0.3601 -0.0693 -0.2598
H4 H 0.3271 -0.0174 -0.2061
H5 H 0.2000 -0.1603 -0.1805
H6 H 0.2345 -0.2122 -0.2341
H7 H 0.3790 -0.2751 -0.1672
H8 H 0.4672 -0.2183 -0.2087
H9 H 0.4323 -0.1668 -0.1550
H10 H 0.3691 0.0489 -0.3189
H11 H 0.2501 0.0015 -0.3529
H12 H 0.2050 0.1564 -0.3898
H13 H 0.3269 0.2020 -0.3566
H14 H 0.4286 0.1682 -0.4353
H15 H 0.4730 0.0764 -0.4006
H16 H 0.2736 0.0841 -0.4692
H17 H 0.4188 0.0358 -0.4760
H18 H 0.3179 -0.0077 -0.4344
H19 H 0.3328 0.1469 -0.2459
H20 H 0.2312 0.2219 -0.2736
H21 H 0.0955 0.1945 -0.2124
H22 H 0.2137 0.1341 -0.1844
H23 H 0.2284 0.3361 -0.2081
H24 H 0.1905 0.2946 -0.1525
H25 H 0.4114 0.2523 -0.1375
H26 H 0.4495 0.2934 -0.1932
H27 H 0.3970 0.3667 -0.1498
H28 H -0.0313 0.0928 -0.2814
H29 H 0.0308 0.1693 -0.3213
H30 H 0.0412 0.0479 -0.3821
H31 H -0.0244 -0.0270 -0.3422
H32 H -0.2293 0.0545 -0.3458
H33 H -0.1649 0.1472 -0.3740
H34 H -0.2765 0.0451 -0.4378
H35 H -0.1186 0.0468 -0.4484
H36 H -0.1843 -0.0454 -0.4203
loop_
_geom_bond_atom_site_label_1
_geom_bond_atom_site_label_2
_geom_bond_site_symmetry_1
_geom_bond_site_symmetry_2
Ag1 S4 1_555 1_555
Pd1 S1 1_555 1_555
S1 O1 1_555 1_555
S2 Pd1 1_555 1_555
S3 Pd1 1_555 1_555
S4 Pd1 1_555 1_555
O2 S1 1_555 1_555
N1 C3 1_555 1_555
N2 C4 1_555 1_555
N3 C7 1_555 1_555
N4 C8 1_555 1_555
N5 C9 1_555 1_555
C1 S1 1_555 1_555
C2 S2 1_555 1_555
C3 C1 1_555 1_555
C4 C2 1_555 1_555
C5 S3 1_555 1_555
C6 S4 1_555 1_555
C7 C5 1_555 1_555
C8 C6 1_555 1_555
C9 C10 1_555 1_555
C10 C11 1_555 1_555
C11 C12 1_555 1_555
C12 H7 1_555 1_555
C13 N5 1_555 1_555
C14 C13 1_555 1_555
C15 C14 1_555 1_555
C16 C15 1_555 1_555
C17 N5 1_555 1_555
C18 C17 1_555 1_555
C19 C18 1_555 1_555
C20 C19 1_555 1_555
C21 N5 1_555 1_555
C22 C21 1_555 1_555
C23 C22 1_555 1_555
C24 C23 1_555 1_555
H1 C9 1_555 1_555
H2 C9 1_555 1_555
H3 C10 1_555 1_555
H4 C10 1_555 1_555
H5 C11 1_555 1_555
H6 C11 1_555 1_555
H8 C12 1_555 1_555
H9 C12 1_555 1_555
H10 C13 1_555 1_555
H11 C13 1_555 1_555
H12 C14 1_555 1_555
H13 C14 1_555 1_555
H14 C15 1_555 1_555
H15 C15 1_555 1_555
H16 C16 1_555 1_555
H17 C16 1_555 1_555
H18 C16 1_555 1_555
H19 C17 1_555 1_555
H20 C17 1_555 1_555
H21 C18 1_555 1_555
H22 C18 1_555 1_555
H23 C19 1_555 1_555
H24 C19 1_555 1_555
H25 C20 1_555 1_555
H26 C20 1_555 1_555
H27 C20 1_555 1_555
H28 C21 1_555 1_555
H29 C21 1_555 1_555
H30 C22 1_555 1_555
H31 C22 1_555 1_555
H32 C23 1_555 1_555
H33 C23 1_555 1_555
H34 C24 1_555 1_555
H35 C24 1_555 1_555
H36 C24 1_555 1_555
Ag1B S3 1_555 1_555
S3B Ag1 1_555 1_555
N2B Ag1 1_555 1_555
Ag1B_2 N2 1_555 1_555
C1 C2 1_555 1_555
C5 C6 1_555 1_555

#END
