
#######################################################################
#
#                 Cambridge Crystallographic Data Centre
#                                CCDC 
#
#######################################################################
#
# If this CIF has been generated from an entry in the Cambridge 
# Structural Database, then it will include bibliographic, chemical, 
# crystal, experimental, refinement or atomic coordinate data resulting 
# from the CCDC's data processing and validation procedures.
#
#######################################################################

data_KOKBIW
_symmetry_cell_setting           monoclinic
_symmetry_space_group_name_H-M   'P 21/c'
_symmetry_Int_Tables_number      14
_space_group_name_Hall           '-P 2ybc'
loop_
_symmetry_equiv_pos_site_id
_symmetry_equiv_pos_as_xyz
1 x,y,z
2 -x,1/2+y,1/2-z
3 -x,-y,-z
4 x,1/2-y,1/2+z
_cell_length_a                   10.716(1)
_cell_length_b                   12.931(2)
_cell_length_c                   25.034(3)
_cell_angle_alpha                90
_cell_angle_beta                 99.343(2)
_cell_angle_gamma                90
_cell_volume                     3422.91
loop_
_atom_site_label
_atom_site_type_symbol
_atom_site_fract_x
_atom_site_fract_y
_atom_site_fract_z
Cu1 Cu 0.32381(5) 0.96813(5) 0.25621(2)
Cu2 Cu 0.81957(5) 0.97348(5) 0.22879(2)
O1 O 0.3077(4) 1.0119(3) 0.18245(16)
O2 O 0.8593(4) 1.0205(3) 0.30238(15)
N1 N 0.2180(4) 0.8464(3) 0.23126(16)
N2 N 0.3536(4) 0.9191(3) 0.33605(16)
N3 N 0.4852(4) 1.0487(4) 0.2724(2)
N4 N 0.5562(4) 1.0597(3) 0.24235(18)
N5 N 0.6304(4) 1.0738(4) 0.2133(2)
N6 N 0.7364(4) 0.8505(3) 0.25468(18)
N7 N 0.7879(4) 0.9295(4) 0.14775(17)
N8 N -0.0313(4) 1.0549(4) 0.21235(18)
N9 N 0.0628(4) 1.0655(3) 0.24341(17)
N10 N 0.1586(4) 1.0787(4) 0.2716(2)
C1 C 0.2908(5) 0.8418(5) 0.1445(2)
C2 C 0.3180(5) 0.9484(6) 0.1436(2)
C3 C 0.3546(5) 0.9884(6) 0.0943(3)
H5 H 0.3675 1.0591 0.0910
C4 C 0.3703(6) 0.9248(9) 0.0533(3)
H6 H 0.3937 0.9535 0.0224
C5 C 0.3531(6) 0.8174(8) 0.0550(3)
C6 C 0.3782(8) 0.7516(10) 0.0134(3)
H7 H 0.4032 0.7799 -0.0174
C7 C 0.3668(9) 0.6486(11) 0.0172(4)
H8 H 0.3865 0.6060 -0.0102
C8 C 0.3260(7) 0.6064(8) 0.0616(3)
H9 H 0.3150 0.5352 0.0633
C9 C 0.3008(6) 0.6671(6) 0.1038(3)
H10 H 0.2761 0.6367 0.1341
C10 C 0.3124(5) 0.7751(6) 0.1010(2)
C11 C 0.2267(4) 0.8027(4) 0.18603(19)
H11 H 0.1871 0.7389 0.1796
C12 C 0.1286(5) 0.8025(4) 0.2633(2)
H12 H 0.0913 0.7405 0.2456
H13 H 0.0611 0.8517 0.2650
C13 C 0.1906(5) 0.7760(4) 0.3199(2)
H14 H 0.1294 0.7411 0.3382
H15 H 0.2594 0.7281 0.3180
C14 C 0.2413(5) 0.8672(4) 0.3528(2)
H16 H 0.2640 0.8453 0.3902
H17 H 0.1741 0.9179 0.3514
C15 C 0.3831(6) 1.0083(5) 0.3726(2)
H18 H 0.4001 0.9846 0.4094
H19 H 0.3123 1.0548 0.3683
H20 H 0.4560 1.0437 0.3640
C16 C 0.4619(5) 0.8481(5) 0.3434(3)
H21 H 0.5336 0.8818 0.3326
H22 H 0.4411 0.7875 0.3216
H23 H 0.4818 0.8284 0.3808
C17 C 0.8654(5) 0.8545(4) 0.3447(2)
C18 C 0.8959(5) 0.9593(4) 0.3430(2)
C19 C 0.9703(5) 1.0042(5) 0.3903(2)
H24 H 0.9877 1.0747 0.3908
C20 C 1.0155(5) 0.9464(5) 0.4341(2)
H25 H 1.0648 0.9776 0.4637
C21 C 0.9894(5) 0.8399(5) 0.4358(2)
C22 C 1.0385(6) 0.7801(6) 0.4817(2)
H26 H 1.0874 0.8118 0.5112
C23 C 1.0154(7) 0.6773(7) 0.4832(3)
H27 H 1.0486 0.6389 0.5136
C24 C 0.9419(6) 0.6289(6) 0.4392(3)
H28 H 0.9265 0.5582 0.4403
C25 C 0.8918(5) 0.6855(5) 0.3941(2)
H29 H 0.8429 0.6522 0.3651
C26 C 0.9132(5) 0.7930(5) 0.3910(2)
C27 C 0.7741(5) 0.8115(4) 0.3016(2)
H30 H 0.7385 0.7484 0.3088
C28 C 0.6278(5) 0.8010(4) 0.2213(2)
H31 H 0.5548 0.8460 0.2194
H32 H 0.6086 0.7370 0.2384
C29 C 0.6511(5) 0.7782(4) 0.1648(2)
H33 H 0.7262 0.7355 0.1670
H34 H 0.5804 0.7386 0.1461
C30 C 0.6681(5) 0.8729(5) 0.1322(2)
H35 H 0.6615 0.8527 0.0945
H36 H 0.5988 0.9199 0.1348
C31 C 0.8958(6) 0.8649(6) 0.1386(3)
H37 H 0.8826 0.8411 0.1018
H38 H 0.9030 0.8065 0.1626
H39 H 0.9722 0.9049 0.1455
C32 C 0.7829(6) 1.0202(5) 0.1127(2)
H40 H 0.8625 1.0558 0.1195
H41 H 0.7169 1.0657 0.1200
H42 H 0.7659 0.9988 0.0755
Cu2_2 Cu -0.18043(5) 0.97348(5) 0.22879(2)
N8_2 N 0.9687(4) 1.0549(4) 0.21235(18)
O4 O 0.6866(14) 0.758(2) 0.9825(9)
H3 H 0.751(10) 0.782(10) 1.002(6)
H4 H 0.641(11) 0.806(7) 0.968(6)
O3? O 0.7135(14) 0.6787(16) 1.0059(8)
H1? H 0.692(10) 0.656(11) 0.974(2)
H2? H 0.659(7) 0.661(8) 1.024(3)
loop_
_geom_bond_atom_site_label_1
_geom_bond_atom_site_label_2
_geom_bond_site_symmetry_1
_geom_bond_site_symmetry_2
Cu1 O1 1_555 1_555
Cu2 O2 1_555 1_555
O1 C2 1_555 1_555
O2 C18 1_555 1_555
O4 H3 1_555 1_555
H4 O4 1_555 1_555
N1 Cu1 1_555 1_555
N2 Cu1 1_555 1_555
N3 Cu1 1_555 1_555
N4 N3 1_555 1_555
N5 Cu2 1_555 1_555
N6 Cu2 1_555 1_555
N7 Cu2 1_555 1_555
N8 N9 1_555 1_555
N9 N10 1_555 1_555
N10 Cu1 1_555 1_555
C1 C2 1_555 1_555
C2 C3 1_555 1_555
C3 H5 1_555 1_555
C4 C3 1_555 1_555
H6 C4 1_555 1_555
C5 C4 1_555 1_555
C6 C5 1_555 1_555
H7 C6 1_555 1_555
C7 C6 1_555 1_555
H8 C7 1_555 1_555
C8 C7 1_555 1_555
H9 C8 1_555 1_555
C9 C8 1_555 1_555
H10 C9 1_555 1_555
C10 C1 1_555 1_555
C11 N1 1_555 1_555
H11 C11 1_555 1_555
C12 N1 1_555 1_555
H12 C12 1_555 1_555
H13 C12 1_555 1_555
C13 C12 1_555 1_555
H14 C13 1_555 1_555
H15 C13 1_555 1_555
C14 N2 1_555 1_555
H16 C14 1_555 1_555
H17 C14 1_555 1_555
C15 N2 1_555 1_555
H18 C15 1_555 1_555
H19 C15 1_555 1_555
H20 C15 1_555 1_555
C16 N2 1_555 1_555
H21 C16 1_555 1_555
H22 C16 1_555 1_555
H23 C16 1_555 1_555
C17 C18 1_555 1_555
C18 C19 1_555 1_555
C19 H24 1_555 1_555
C20 C19 1_555 1_555
H25 C20 1_555 1_555
C21 C20 1_555 1_555
C22 C21 1_555 1_555
H26 C22 1_555 1_555
C23 C22 1_555 1_555
H27 C23 1_555 1_555
C24 C23 1_555 1_555
H28 C24 1_555 1_555
C25 C24 1_555 1_555
H29 C25 1_555 1_555
C26 C17 1_555 1_555
C27 N6 1_555 1_555
H30 C27 1_555 1_555
C28 N6 1_555 1_555
H31 C28 1_555 1_555
H32 C28 1_555 1_555
C29 C28 1_555 1_555
H33 C29 1_555 1_555
H34 C29 1_555 1_555
C30 N7 1_555 1_555
H35 C30 1_555 1_555
H36 C30 1_555 1_555
C31 N7 1_555 1_555
H37 C31 1_555 1_555
H38 C31 1_555 1_555
H39 C31 1_555 1_555
C32 N7 1_555 1_555
H40 C32 1_555 1_555
H41 C32 1_555 1_555
H42 C32 1_555 1_555
Cu2_2 N8 1_555 1_555
N8_2 Cu2 1_555 1_555
N4 N5 1_555 1_555
C1 C11 1_555 1_555
C5 C10 1_555 1_555
C9 C10 1_555 1_555
C13 C14 1_555 1_555
C17 C27 1_555 1_555
C21 C26 1_555 1_555
C25 C26 1_555 1_555
C29 C30 1_555 1_555

#END
