
#######################################################################
#
#                 Cambridge Crystallographic Data Centre
#                                CCDC 
#
#######################################################################
#
# If this CIF has been generated from an entry in the Cambridge 
# Structural Database, then it will include bibliographic, chemical, 
# crystal, experimental, refinement or atomic coordinate data resulting 
# from the CCDC's data processing and validation procedures.
#
#######################################################################

data_KOKCUJ
_symmetry_cell_setting           monoclinic
_symmetry_space_group_name_H-M   'P 21/c'
_symmetry_Int_Tables_number      14
_space_group_name_Hall           '-P 2ybc'
loop_
_symmetry_equiv_pos_site_id
_symmetry_equiv_pos_as_xyz
1 x,y,z
2 -x,1/2+y,1/2-z
3 -x,-y,-z
4 x,1/2-y,1/2+z
_cell_length_a                   11.4602(6)
_cell_length_b                   22.8607(12)
_cell_length_c                   30.7886(16)
_cell_angle_alpha                90
_cell_angle_beta                 96.0170(10)
_cell_angle_gamma                90
_cell_volume                     8021.81
loop_
_atom_site_label
_atom_site_type_symbol
_atom_site_fract_x
_atom_site_fract_y
_atom_site_fract_z
Cu1 Cu 0.87961(7) 0.20879(3) 0.56226(2)
Cu2 Cu 0.73145(7) 0.21370(3) 0.67949(2)
Cu3 Cu 0.97124(7) 0.17884(3) 0.65824(3)
Cu4 Cu 0.79406(8) 0.31867(3) 0.61494(2)
Cu5 Cu 0.65902(7) 0.17037(3) 0.58939(2)
Cu6 Cu 1.00439(11) 0.38986(4) 0.38819(3)
Cu7 Cu 0.65041(7) 0.08961(3) 0.33945(3)
N1 N 1.0262(6) 0.3647(2) 0.44942(18)
N2 N 1.0183(5) 0.2520(2) 0.59178(16)
N3 N 1.0504(5) 0.2413(2) 0.63473(16)
N4 N 1.2719(7) 0.2969(4) 0.7835(2)
N5 N 0.7059(5) 0.1498(2) 0.38743(17)
N6 N 0.7685(5) 0.2657(2) 0.53265(15)
N7 N 0.7530(5) 0.3168(2) 0.55457(16)
N8 N 0.6356(9) 0.5336(3) 0.5602(3)
N9 N 0.9579(6) 0.5359(2) 0.63916(19)
N10 N 0.8412(5) 0.3267(2) 0.67461(15)
N11 N 0.8313(5) 0.2807(2) 0.70230(15)
N12 N 0.9452(6) 0.1742(2) 0.84573(18)
N13 N 0.5898(5) 0.3749(2) 0.78111(17)
N14 N 0.5905(5) 0.2480(2) 0.64786(15)
N15 N 0.5632(4) 0.2314(2) 0.60538(15)
N16 N 0.3599(7) 0.2598(3) 0.4502(2)
N17 N 0.3962(8) 0.1016(4) 0.7586(4)
N18 N 0.7768(4) 0.13356(19) 0.69057(15)
N19 N 0.8869(4) 0.1183(2) 0.68124(16)
N20 N 1.2089(5) -0.0367(2) 0.66831(18)
N21 N 0.4760(5) -0.0435(2) 0.63373(17)
N22 N 0.7570(4) 0.10820(19) 0.57778(15)
N23 N 0.8640(4) 0.1244(2) 0.56584(15)
N24 N 1.2829(7) 0.0773(4) 0.5297(3)
C1 C 1.0292(7) 0.2864(3) 0.5006(2)
H1 H 1.0187 0.2466 0.5051
C2 C 1.0157(7) 0.3087(3) 0.4594(2)
H2 H 0.9979 0.2826 0.4365
C3 C 1.0552(9) 0.4000(3) 0.4838(3)
H3 H 1.0653 0.4396 0.4783
C4 C 1.0708(8) 0.3819(3) 0.5261(2)
H4 H 1.0898 0.4087 0.5485
C5 C 1.0583(6) 0.3229(3) 0.5357(2)
C6 C 1.0737(6) 0.3008(3) 0.5809(2)
C7 C 1.1407(6) 0.3234(3) 0.6175(2)
H5 H 1.1865 0.3570 0.6192
C8 C 1.1240(6) 0.2847(3) 0.6506(2)
C9 C 1.1758(6) 0.2877(3) 0.6961(2)
C10 C 1.2197(7) 0.3404(4) 0.7139(3)
H6 H 1.2175 0.3739 0.6966
C11 C 1.2653(8) 0.3429(4) 0.7562(3)
H7 H 1.2940 0.3787 0.7670
C12 C 1.2319(8) 0.2478(4) 0.7664(3)
H8 H 1.2374 0.2150 0.7844
C13 C 1.1821(6) 0.2400(3) 0.7240(2)
H9 H 1.1535 0.2037 0.7144
C14 C 0.7397(7) 0.2472(3) 0.4129(2)
H10 H 0.7530 0.2860 0.4060
C15 C 0.7283(7) 0.2058(3) 0.3806(2)
H11 H 0.7367 0.2176 0.3522
C16 C 0.7038(7) 0.1348(3) 0.4292(2)
H12 H 0.6931 0.0955 0.4354
C17 C 0.7162(7) 0.1733(3) 0.4636(2)
H13 H 0.7142 0.1598 0.4920
C18 C 0.7313(6) 0.2312(3) 0.45587(19)
C19 C 0.7334(6) 0.2769(3) 0.48992(19)
C20 C 0.6987(6) 0.3345(3) 0.4844(2)
H14 H 0.6729 0.3534 0.4584
C21 C 0.7106(6) 0.3577(3) 0.5256(2)
C22 C 0.6847(7) 0.4188(3) 0.5383(2)
C23 C 0.6872(9) 0.4629(3) 0.5081(3)
H15 H 0.7055 0.4555 0.4799
C24 C 0.6612(11) 0.5191(4) 0.5216(4)
H16 H 0.6623 0.5489 0.5011
C25 C 0.6370(9) 0.4918(4) 0.5888(3)
H17 H 0.6231 0.5011 0.6172
C26 C 0.6581(8) 0.4345(3) 0.5790(3)
H18 H 0.6544 0.4059 0.6004
C27 C 0.9379(7) 0.4337(3) 0.6351(2)
H19 H 0.9404 0.4004 0.6179
C28 C 0.9581(8) 0.4878(3) 0.6174(2)
H20 H 0.9725 0.4896 0.5882
C29 C 0.9362(12) 0.5310(3) 0.6798(3)
H21 H 0.9359 0.5649 0.6965
C30 C 0.9137(11) 0.4789(3) 0.6995(2)
H22 H 0.8980 0.4787 0.7286
C31 C 0.9142(7) 0.4282(3) 0.6774(2)
C32 C 0.8909(6) 0.3719(2) 0.69744(19)
C33 C 0.9184(6) 0.3543(3) 0.7406(2)
H23 H 0.9548 0.3762 0.7636
C34 C 0.8799(5) 0.2975(3) 0.74192(19)
C35 C 0.8953(6) 0.2562(2) 0.77904(19)
C36 C 0.9862(6) 0.2644(3) 0.8112(2)
H24 H 1.0321 0.2979 0.8113
C37 C 1.0092(7) 0.2225(3) 0.8433(2)
H25 H 1.0727 0.2283 0.8643
C38 C 0.8529(7) 0.1682(3) 0.8161(2)
H26 H 0.8050 0.1357 0.8180
C39 C 0.8240(7) 0.2076(3) 0.7827(2)
H27 H 0.7580 0.2016 0.7629
C40 C 0.5493(6) 0.2928(3) 0.7345(2)
H28 H 0.5379 0.2526 0.7323
C41 C 0.5692(6) 0.3183(3) 0.7749(2)
H29 H 0.5682 0.2945 0.7993
C42 C 0.5805(8) 0.4070(3) 0.7447(2)
H30 H 0.5900 0.4473 0.7478
C43 C 0.5579(7) 0.3852(3) 0.7026(2)
H31 H 0.5510 0.4102 0.6786
C44 C 0.5459(6) 0.3260(3) 0.6972(2)
C45 C 0.5327(6) 0.2983(3) 0.6542(2)
C46 C 0.4693(6) 0.3153(3) 0.6152(2)
H32 H 0.4222 0.3483 0.6103
C47 C 0.4915(6) 0.2724(3) 0.5851(2)
C48 C 0.4462(6) 0.2673(3) 0.5387(2)
C49 C 0.3882(8) 0.3141(3) 0.5169(3)
H33 H 0.3758 0.3487 0.5316
C50 C 0.3497(9) 0.3083(4) 0.4735(3)
H34 H 0.3138 0.3405 0.4593
C51 C 0.4149(7) 0.2156(4) 0.4712(2)
H35 H 0.4246 0.1814 0.4557
C52 C 0.4583(7) 0.2167(3) 0.5143(2)
H36 H 0.4956 0.1840 0.5272
C53 C 0.5240(6) 0.1251(3) 0.7039(3)
H37 H 0.5341 0.1454 0.6784
C54 C 0.4199(8) 0.1282(4) 0.7230(4)
H38 H 0.3609 0.1516 0.7091
C55 C 0.4822(11) 0.0678(5) 0.7775(4)
H39 H 0.4687 0.0476 0.8027
C56 C 0.5890(7) 0.0611(3) 0.7620(2)
H40 H 0.6455 0.0369 0.7765
C57 C 0.6124(6) 0.0906(3) 0.7245(2)
C58 C 0.7292(6) 0.0870(3) 0.7081(2)
C59 C 0.8060(6) 0.0402(3) 0.7096(2)
H41 H 0.7941 0.0028 0.7201
C60 C 0.9044(6) 0.0610(3) 0.6919(2)
C61 C 1.0105(6) 0.0292(3) 0.6837(2)
C62 C 1.0014(6) -0.0286(3) 0.6691(2)
H42 H 0.9282 -0.0465 0.6646
C63 C 1.1007(6) -0.0590(3) 0.6616(2)
H43 H 1.0922 -0.0971 0.6512
C64 C 1.2180(7) 0.0181(3) 0.6834(2)
H44 H 1.2923 0.0344 0.6894
C65 C 1.1212(7) 0.0517(3) 0.6905(2)
H45 H 1.1317 0.0902 0.7000
C66 C 0.5496(6) 0.0427(3) 0.6021(2)
H46 H 0.5349 0.0807 0.5923
C67 C 0.4628(6) 0.0118(3) 0.6192(2)
H47 H 0.3909 0.0300 0.6208
C68 C 0.5814(6) -0.0683(3) 0.6291(2)
H48 H 0.5931 -0.1069 0.6379
C69 C 0.6708(6) -0.0401(3) 0.6124(2)
H49 H 0.7407 -0.0598 0.6097
C70 C 0.6587(6) 0.0182(2) 0.59920(19)
C71 C 0.7578(5) 0.0491(2) 0.58345(18)
C72 C 0.8638(6) 0.0274(3) 0.5739(2)
H50 H 0.8868 -0.0117 0.5743
C73 C 0.9297(5) 0.0753(3) 0.5635(2)
C74 C 1.0491(6) 0.0765(3) 0.5519(2)
C75 C 1.1093(7) 0.0280(3) 0.5427(3)
H51 H 1.0741 -0.0085 0.5441
C76 C 1.2237(8) 0.0320(4) 0.5311(3)
H52 H 1.2590 -0.0028 0.5237
C77 C 1.2319(11) 0.1241(5) 0.5438(7)
H53 H 1.2751 0.1586 0.5458
C78 C 1.1192(10) 0.1261(4) 0.5559(5)
H54 H 1.0903 0.1607 0.5666
Cu6B Cu 0.99561(11) 0.61014(4) 0.61181(3)
Cu6C Cu 1.00439(11) 0.11014(4) 0.88819(3)
Cu7C Cu 0.65041(7) 0.41039(3) 0.83945(3)
Cu7B Cu 1.34959(7) -0.08961(3) 0.66055(3)
Cu7B_2 Cu 0.34959(7) -0.08961(3) 0.66055(3)
N9B N 1.0421(6) 0.4641(2) 0.36084(19)
N12C N 0.9452(6) 0.3258(2) 0.34573(18)
N13C N 0.5898(5) 0.1251(2) 0.28111(17)
N20B N 0.7911(5) 0.0367(2) 0.33169(18)
N21B N 0.5240(5) 0.0435(2) 0.36627(17)
F1 F 0.2377(8) 0.4729(4) 0.6589(3)
F2 F 0.2367(13) 0.5406(6) 0.6086(5)
F3 F 0.2836(14) 0.4500(5) 0.5941(4)
F4 F 0.4017(8) 0.5029(7) 0.6374(4)
B1 B 0.2867(7) 0.4921(3) 0.6244(3)
O1 O 0.2606(7) 0.3030(3) 0.8740(2)
H55 H 0.1939 0.3165 0.8786
H56 H 0.2876 0.2836 0.8964
O2 O 0.0851(9) 0.3644(4) 0.9096(4)
H57 H 0.1215 0.3933 0.9220
H58 H 0.0564 0.3440 0.9291
O3 O 0.5198(9) 0.1143(4) 0.8961(3)
H59 H 0.4617 0.0968 0.9053
H60 H 0.4944 0.1424 0.8797
O4 O 0.7224(18) 0.6399(8) 0.6468(7)
H61 H 0.7444 0.6053 0.6537
H62 H 0.7601 0.6520 0.6262
O5 O 0.5036(6) 0.4348(3) 0.9928(2)
H63 H 0.4400 0.4257 1.0031
H64 H 0.4990 0.4255 0.9659
F5? F 0.2119(12) 0.4807(7) 0.5884(3)
F6? F 0.3883(11) 0.4672(8) 0.6215(6)
F7? F 0.2975(16) 0.5502(4) 0.6268(4)
loop_
_geom_bond_atom_site_label_1
_geom_bond_atom_site_label_2
_geom_bond_site_symmetry_1
_geom_bond_site_symmetry_2
Cu1 N2 1_555 1_555
Cu2 N11 1_555 1_555
Cu3 N3 1_555 1_555
Cu4 N7 1_555 1_555
Cu5 N15 1_555 1_555
Cu6 N1 1_555 1_555
Cu7 N5 1_555 1_555
N1 C2 1_555 1_555
N2 N3 1_555 1_555
N3 C8 1_555 1_555
N4 C11 1_555 1_555
N5 C15 1_555 1_555
N6 Cu1 1_555 1_555
N7 N6 1_555 1_555
N8 C24 1_555 1_555
N9 C28 1_555 1_555
N10 Cu4 1_555 1_555
N11 N10 1_555 1_555
N12 C37 1_555 1_555
N13 C41 1_555 1_555
N14 Cu2 1_555 1_555
N15 N14 1_555 1_555
N16 C50 1_555 1_555
N17 C54 1_555 1_555
N18 Cu2 1_555 1_555
N19 Cu3 1_555 1_555
N20 C63 1_555 1_555
N21 C67 1_555 1_555
N22 Cu5 1_555 1_555
N23 Cu1 1_555 1_555
N24 C76 1_555 1_555
C1 H1 1_555 1_555
C2 C1 1_555 1_555
H2 C2 1_555 1_555
C3 N1 1_555 1_555
H3 C3 1_555 1_555
C4 C3 1_555 1_555
H4 C4 1_555 1_555
C5 C1 1_555 1_555
C6 N2 1_555 1_555
C7 C6 1_555 1_555
H5 C7 1_555 1_555
C8 C7 1_555 1_555
C9 C8 1_555 1_555
C10 C9 1_555 1_555
H6 C10 1_555 1_555
C11 C10 1_555 1_555
H7 C11 1_555 1_555
C12 N4 1_555 1_555
H8 C12 1_555 1_555
C13 C9 1_555 1_555
H9 C13 1_555 1_555
C14 H10 1_555 1_555
C15 C14 1_555 1_555
H11 C15 1_555 1_555
C16 N5 1_555 1_555
H12 C16 1_555 1_555
C17 C16 1_555 1_555
H13 C17 1_555 1_555
C18 C14 1_555 1_555
C19 N6 1_555 1_555
C20 C19 1_555 1_555
H14 C20 1_555 1_555
C21 N7 1_555 1_555
C22 C21 1_555 1_555
C23 C22 1_555 1_555
H15 C23 1_555 1_555
C24 C23 1_555 1_555
H16 C24 1_555 1_555
C25 N8 1_555 1_555
H17 C25 1_555 1_555
C26 C22 1_555 1_555
H18 C26 1_555 1_555
C27 H19 1_555 1_555
C28 C27 1_555 1_555
H20 C28 1_555 1_555
C29 N9 1_555 1_555
H21 C29 1_555 1_555
C30 C29 1_555 1_555
H22 C30 1_555 1_555
C31 C27 1_555 1_555
C32 N10 1_555 1_555
C33 C32 1_555 1_555
H23 C33 1_555 1_555
C34 N11 1_555 1_555
C35 C34 1_555 1_555
C36 C35 1_555 1_555
H24 C36 1_555 1_555
C37 C36 1_555 1_555
H25 C37 1_555 1_555
C38 N12 1_555 1_555
H26 C38 1_555 1_555
C39 C35 1_555 1_555
H27 C39 1_555 1_555
C40 H28 1_555 1_555
C41 C40 1_555 1_555
H29 C41 1_555 1_555
C42 N13 1_555 1_555
H30 C42 1_555 1_555
C43 C42 1_555 1_555
H31 C43 1_555 1_555
C44 C40 1_555 1_555
C45 N14 1_555 1_555
C46 C45 1_555 1_555
H32 C46 1_555 1_555
C47 N15 1_555 1_555
C48 C47 1_555 1_555
C49 C48 1_555 1_555
H33 C49 1_555 1_555
C50 C49 1_555 1_555
H34 C50 1_555 1_555
C51 N16 1_555 1_555
H35 C51 1_555 1_555
C52 C48 1_555 1_555
H36 C52 1_555 1_555
C53 H37 1_555 1_555
C54 C53 1_555 1_555
H38 C54 1_555 1_555
C55 N17 1_555 1_555
H39 C55 1_555 1_555
C56 C55 1_555 1_555
H40 C56 1_555 1_555
C57 C53 1_555 1_555
C58 N18 1_555 1_555
C59 C58 1_555 1_555
H41 C59 1_555 1_555
C60 N19 1_555 1_555
C61 C60 1_555 1_555
C62 C61 1_555 1_555
H42 C62 1_555 1_555
C63 C62 1_555 1_555
H43 C63 1_555 1_555
C64 N20 1_555 1_555
H44 C64 1_555 1_555
C65 C61 1_555 1_555
H45 C65 1_555 1_555
C66 H46 1_555 1_555
C67 C66 1_555 1_555
H47 C67 1_555 1_555
C68 N21 1_555 1_555
H48 C68 1_555 1_555
C69 C68 1_555 1_555
H49 C69 1_555 1_555
C70 C66 1_555 1_555
C71 N22 1_555 1_555
C72 C71 1_555 1_555
H50 C72 1_555 1_555
C73 N23 1_555 1_555
C74 C73 1_555 1_555
C75 C74 1_555 1_555
H51 C75 1_555 1_555
C76 C75 1_555 1_555
H52 C76 1_555 1_555
C77 N24 1_555 1_555
H53 C77 1_555 1_555
C78 C74 1_555 1_555
H54 C78 1_555 1_555
F1 B1 1_555 1_555
F2 B1 1_555 1_555
F3 B1 1_555 1_555
F4 B1 1_555 1_555
O1 H55 1_555 1_555
H56 O1 1_555 1_555
O2 H57 1_555 1_555
H58 O2 1_555 1_555
O3 H59 1_555 1_555
H60 O3 1_555 1_555
O4 H61 1_555 1_555
H62 O4 1_555 1_555
O5 H63 1_555 1_555
H64 O5 1_555 1_555
Cu6B N9 1_555 1_555
Cu6C N12 1_555 1_555
Cu7C N13 1_555 1_555
Cu7B N20 1_555 1_555
Cu7B_2 N21 1_555 1_555
N9B Cu6 1_555 1_555
N12C Cu6 1_555 1_555
N13C Cu7 1_555 1_555
N20B Cu7 1_555 1_555
N21B Cu7 1_555 1_555
N18 N19 1_555 1_555
N22 N23 1_555 1_555
C4 C5 1_555 1_555
C5 C6 1_555 1_555
C12 C13 1_555 1_555
C17 C18 1_555 1_555
C18 C19 1_555 1_555
C20 C21 1_555 1_555
C25 C26 1_555 1_555
C30 C31 1_555 1_555
C31 C32 1_555 1_555
C33 C34 1_555 1_555
C38 C39 1_555 1_555
C43 C44 1_555 1_555
C44 C45 1_555 1_555
C46 C47 1_555 1_555
C51 C52 1_555 1_555
C56 C57 1_555 1_555
C57 C58 1_555 1_555
C59 C60 1_555 1_555
C64 C65 1_555 1_555
C69 C70 1_555 1_555
C70 C71 1_555 1_555
C72 C73 1_555 1_555
C77 C78 1_555 1_555

#END
