
#######################################################################
#
#                 Cambridge Crystallographic Data Centre
#                                CCDC 
#
#######################################################################
#
# If this CIF has been generated from an entry in the Cambridge 
# Structural Database, then it will include bibliographic, chemical, 
# crystal, experimental, refinement or atomic coordinate data resulting 
# from the CCDC's data processing and validation procedures.
#
#######################################################################

data_KOKKOL
_symmetry_cell_setting           hexagonal
_symmetry_space_group_name_H-M   'P 63/m m c'
_symmetry_Int_Tables_number      194
_space_group_name_Hall           "-P 6c 2'c"
loop_
_symmetry_equiv_pos_site_id
_symmetry_equiv_pos_as_xyz
1 x,y,z
2 x-y,x,1/2+z
3 -y,-x,1/2-z
4 -y,x-y,z
5 x-y,-y,-z
6 -x,-y,1/2+z
7 x,x-y,1/2-z
8 -x+y,-x,z
9 y,x,-z
10 y,-x+y,1/2+z
11 -x+y,y,1/2-z
12 -x,-x+y,-z
13 -x,-y,-z
14 -x+y,-x,1/2-z
15 y,x,1/2+z
16 y,-x+y,-z
17 -x+y,y,z
18 x,y,1/2-z
19 -x,-x+y,1/2+z
20 x-y,x,-z
21 -y,-x,z
22 -y,x-y,1/2-z
23 x-y,-y,1/2+z
24 x,x-y,z
_cell_length_a                   11.1075(10)
_cell_length_b                   11.1075(10)
_cell_length_c                   19.0925(10)
_cell_angle_alpha                90
_cell_angle_beta                 90
_cell_angle_gamma                120
_cell_volume                     2039.98
loop_
_atom_site_label
_atom_site_type_symbol
_atom_site_fract_x
_atom_site_fract_y
_atom_site_fract_z
O1 O 1.1063 0.8937 0.6896
O2 O 0.2515 0.5033 0.8223
Fe1 Fe 0.7672 0.5344 0.7500
O3 O 0.6667 0.3333 0.7500
O4 O 0.6525 0.5526 0.8255
O5 O 0.8640 0.7278 0.7500
C1 C 0.5399 0.4601 0.8555
C2 C 0.5121 0.4878 0.9278
C3 C 0.3942 0.3792 0.9661
N1 N 0.2606 0.2829 0.9276
Fe1B Fe 0.4656 0.2328 0.7500
Fe1F Fe 0.7672 0.2328 0.7500
Fe1H Fe 0.5344 0.7672 1.2500
Fe1D Fe 0.2328 0.4656 1.2500
Fe1A Fe 1.2328 0.7672 0.2500
Fe1D_2 Fe 1.2328 0.4656 0.2500
Fe1A_2 Fe 1.2328 0.7672 1.2500
Fe1D_3 Fe 1.2328 0.4656 1.2500
O4T O 0.4474 0.3475 0.8255
O4H O 0.5526 0.6525 1.1745
O4L O 0.3475 0.4474 1.1745
O4J O 0.9001 0.5526 0.6745
O4M O 0.9001 0.3475 0.6745
O4A O 1.0999 0.6525 0.3255
O4V O 1.0999 0.4474 0.3255
O4P O 0.9001 0.5526 0.8255
O4G O 0.9001 0.3475 0.8255
O4S O 1.0999 0.6525 1.1745
O4D O 1.0999 0.4474 1.1745
O4Q O 0.6525 0.5526 0.6745
O4B O 0.4474 0.3475 0.6745
O4C O 0.4474 0.0999 0.8255
O4U O 0.4474 0.0999 0.6745
O4F O 0.6525 0.0999 0.6745
O4W O 0.6525 0.0999 0.8255
O5B O 0.2722 0.1360 0.7500
O5G O 0.8638 0.1360 0.7500
C1H C 0.4601 0.5399 1.1445
C1J C 0.9202 0.4601 0.6445
C1A C 1.0798 0.5399 0.3555
C1G C 0.9202 0.4601 0.8555
C1D C 1.0798 0.5399 1.1445
C2H C 0.4878 0.5121 1.0722
C2J C 0.9757 0.4878 0.5722
C2A C 1.0243 0.5121 0.4278
C2P C 0.9757 0.4878 0.9278
C2S C 1.0243 0.5121 1.0722
C3H C 0.3792 0.3942 1.0339
C3L C 0.6058 0.6208 1.0339
C3T C 0.6208 0.6058 0.9661
C3J C 0.9850 0.3792 0.5339
C3A C 1.0150 0.3942 0.4661
C3V C 1.0150 0.6208 0.4661
C3M C 0.9850 0.6058 0.5339
C3P C 0.9850 0.3792 0.9661
C3S C 1.0150 0.3942 1.0339
C3D C 1.0150 0.6208 1.0339
C3G C 0.9850 0.6058 0.9661
N1T N 0.7171 0.7394 0.9276
N1L N 0.7394 0.7171 1.0724
N1H N 0.2829 0.2606 1.0724
N1J N 1.0223 0.2829 0.5724
N1M N 1.0223 0.7394 0.5724
N1V N 0.9777 0.7171 0.4276
N1A N 0.9777 0.2606 0.4276
N1P N 1.0223 0.2829 0.9276
N1G N 1.0223 0.7394 0.9276
N1D N 0.9777 0.7171 1.0724
N1S N 0.9777 0.2606 1.0724
Br1 Br -0.0334 0.0334 0.5181
Br1C Br -0.0334 -0.0668 0.5181
Br1G Br 0.0668 0.0334 0.5181
Br1D Br -0.0668 -0.0334 0.4819
Br1K Br 0.0334 0.0668 0.4819
Br1H Br 0.0334 -0.0334 0.4819
loop_
_geom_bond_atom_site_label_1
_geom_bond_atom_site_label_2
_geom_bond_site_symmetry_1
_geom_bond_site_symmetry_2
Br1 Br1C 1_555 1_555
Fe1 O3 1_555 1_555
O3 Fe1B 1_555 1_555
O4 Fe1 1_555 1_555
O5 Fe1 1_555 1_555
C1 O4 1_555 1_555
C2 C1 1_555 1_555
C3 C2 1_555 1_555
N1 C3 1_555 1_555
Br1C Br1G 1_555 1_555
Br1G Br1 1_555 1_555
Br1D Br1 1_555 1_555
Br1K Br1 1_555 1_555
Br1H Br1 1_555 1_555
Fe1B O4T 1_555 1_555
Fe1F O3 1_555 1_555
Fe1H O4H 1_555 1_555
Fe1D O4L 1_555 1_555
Fe1A O4A 1_555 1_555
Fe1D_2 O4V 1_555 1_555
Fe1A_2 O4S 1_555 1_555
Fe1D_3 O4D 1_555 1_555
O4T C1 1_555 1_555
O4H C1H 1_555 1_555
O4L C1H 1_555 1_555
O4J Fe1 1_555 1_555
O4M Fe1F 1_555 1_555
O4A C1A 1_555 1_555
O4V C1A 1_555 1_555
O4P Fe1 1_555 1_555
O4G Fe1F 1_555 1_555
O4S C1D 1_555 1_555
O4D C1D 1_555 1_555
O4Q Fe1 1_555 1_555
O4B Fe1B 1_555 1_555
O4C Fe1B 1_555 1_555
O4U Fe1B 1_555 1_555
O4F Fe1F 1_555 1_555
O4W Fe1F 1_555 1_555
O5B Fe1B 1_555 1_555
O5G Fe1F 1_555 1_555
C1H C2H 1_555 1_555
C1J O4J 1_555 1_555
C1A C2A 1_555 1_555
C1G O4P 1_555 1_555
C1D C2S 1_555 1_555
C2H C3H 1_555 1_555
C2J C1J 1_555 1_555
C2A C3A 1_555 1_555
C2P C1G 1_555 1_555
C2S C3S 1_555 1_555
C3H C3 1_555 1_555
C3L C2H 1_555 1_555
C3T C2 1_555 1_555
C3J C2J 1_555 1_555
C3A C3J 1_555 1_555
C3V C2A 1_555 1_555
C3M C2J 1_555 1_555
C3P C2P 1_555 1_555
C3S C3P 1_555 1_555
C3D C2S 1_555 1_555
C3G C2P 1_555 1_555
N1T C3T 1_555 1_555
N1L C3L 1_555 1_555
N1H C3H 1_555 1_555
N1J C3J 1_555 1_555
N1M C3M 1_555 1_555
N1V C3V 1_555 1_555
N1A C3A 1_555 1_555
N1P C3P 1_555 1_555
N1G C3G 1_555 1_555
N1D C3D 1_555 1_555
N1S C3S 1_555 1_555
Br1C Br1D 1_555 1_555
Br1C Br1K 1_555 1_555
Br1C Br1H 1_555 1_555
Br1G Br1D 1_555 1_555
Br1G Br1K 1_555 1_555
Br1G Br1H 1_555 1_555
Br1D Br1K 1_555 1_555
Br1D Br1H 1_555 1_555
Br1K Br1H 1_555 1_555
O4M C1J 1_555 1_555
O4G C1G 1_555 1_555
C3L C3T 1_555 1_555
C3V C3M 1_555 1_555
C3D C3G 1_555 1_555

#END
