
#######################################################################
#
#                 Cambridge Crystallographic Data Centre
#                                CCDC 
#
#######################################################################
#
# If this CIF has been generated from an entry in the Cambridge 
# Structural Database, then it will include bibliographic, chemical, 
# crystal, experimental, refinement or atomic coordinate data resulting 
# from the CCDC's data processing and validation procedures.
#
#######################################################################

data_KOKMAZ
_symmetry_cell_setting           monoclinic
_symmetry_space_group_name_H-M   'P 21/c'
_symmetry_Int_Tables_number      14
_space_group_name_Hall           '-P 2ybc'
loop_
_symmetry_equiv_pos_site_id
_symmetry_equiv_pos_as_xyz
1 x,y,z
2 -x,1/2+y,1/2-z
3 -x,-y,-z
4 x,1/2-y,1/2+z
_cell_length_a                   19.6254(11)
_cell_length_b                   27.6834(15)
_cell_length_c                   16.7274(9)
_cell_angle_alpha                90
_cell_angle_beta                 91.590(1)
_cell_angle_gamma                90
_cell_volume                     9084.46
loop_
_atom_site_label
_atom_site_type_symbol
_atom_site_fract_x
_atom_site_fract_y
_atom_site_fract_z
Al1 Al 0.24647(6) -0.25045(4) 0.43703(7)
N1 N 0.28788(18) -0.31347(13) 0.4052(2)
N2 N 0.16191(17) -0.28500(13) 0.4679(2)
N3 N 0.20702(17) -0.18762(13) 0.4737(2)
N4 N 0.33547(17) -0.21692(13) 0.4173(2)
N5 N 0.28052(18) -0.23488(13) 0.0594(2)
O1 O 0.21897(15) -0.23654(11) 0.33216(17)
O2 O 0.1842(2) -0.29748(14) 0.2521(2)
C1 C 0.3519(2) -0.32056(16) 0.3747(3)
C2 C 0.3617(2) -0.37077(18) 0.3570(3)
H1 H 0.4005 -0.3848 0.3361
C3 C 0.3039(2) -0.39362(18) 0.3766(3)
H2 H 0.2954 -0.4266 0.3721
C4 C 0.2582(2) -0.35815(15) 0.4054(3)
C5 C 0.1923(2) -0.36851(15) 0.4328(3)
C6 C 0.1686(2) -0.41957(16) 0.4245(3)
C7 C 0.1597(2) -0.43861(17) 0.3477(3)
H3 H 0.1673 -0.4191 0.3035
C8 C 0.1397(2) -0.48618(18) 0.3363(3)
C9 C 0.1319(3) -0.5078(2) 0.2523(3)
C10 C 0.1487(3) -0.4725(2) 0.1862(3)
H4 H 0.1182 -0.4454 0.1878
H5 H 0.1438 -0.4883 0.1353
H6 H 0.1948 -0.4614 0.1937
C11 C 0.0590(4) -0.5258(3) 0.2393(4)
H7 H 0.0280 -0.4991 0.2425
H8 H 0.0488 -0.5491 0.2798
H9 H 0.0543 -0.5406 0.1875
C12 C 0.1830(5) -0.5501(2) 0.2467(4)
H10 H 0.2286 -0.5381 0.2544
H11 H 0.1785 -0.5649 0.1949
H12 H 0.1738 -0.5736 0.2872
C13 C 0.1276(2) -0.51391(17) 0.4034(3)
H13 H 0.1140 -0.5459 0.3965
C14 C 0.1351(2) -0.49564(17) 0.4810(3)
C15 C 0.1239(3) -0.53022(18) 0.5518(3)
C16 C 0.1223(4) -0.5026(3) 0.6307(4)
H14 H 0.1150 -0.5248 0.6737
H15 H 0.0860 -0.4793 0.6284
H16 H 0.1650 -0.4862 0.6397
C17 C 0.0568(3) -0.5577(3) 0.5411(4)
H17 H 0.0567 -0.5751 0.4915
H18 H 0.0195 -0.5352 0.5405
H19 H 0.0520 -0.5800 0.5845
C18 C 0.1831(3) -0.5664(2) 0.5574(4)
H20 H 0.1857 -0.5838 0.5080
H21 H 0.1756 -0.5886 0.6004
H22 H 0.2250 -0.5493 0.5675
C19 C 0.1564(2) -0.44846(16) 0.4911(3)
H23 H 0.1627 -0.4359 0.5423
C20 C 0.1490(2) -0.33421(15) 0.4634(3)
C21 C 0.0825(2) -0.34450(16) 0.4934(3)
H24 H 0.0620 -0.3747 0.4963
C22 C 0.0558(2) -0.30218(16) 0.5164(3)
H25 H 0.0135 -0.2978 0.5391
C23 C 0.1040(2) -0.26502(16) 0.4997(2)
C24 C 0.0941(2) -0.21587(16) 0.5147(2)
C25 C 0.0289(2) -0.20151(16) 0.5517(3)
C26 C 0.0276(2) -0.19559(16) 0.6331(3)
H26 H 0.0678 -0.1992 0.6633
C27 C -0.0327(2) -0.18426(16) 0.6719(3)
C28 C -0.0295(2) -0.17779(18) 0.7628(3)
C29 C -0.0019(3) -0.2243(2) 0.8029(3)
H27 H -0.0320 -0.2507 0.7902
H28 H 0.0006 -0.2198 0.8599
H29 H 0.0427 -0.2312 0.7838
C30 C -0.0993(3) -0.1674(2) 0.7962(3)
H30 H -0.1176 -0.1385 0.7721
H31 H -0.0951 -0.1631 0.8530
H32 H -0.1293 -0.1940 0.7844
C31 C 0.0178(3) -0.13567(19) 0.7834(3)
H33 H 0.0004 -0.1068 0.7586
H34 H 0.0625 -0.1423 0.7642
H35 H 0.0203 -0.1314 0.8403
C32 C -0.0919(2) -0.17900(16) 0.6246(3)
H36 H -0.1324 -0.1714 0.6492
C33 C -0.0924(2) -0.18472(16) 0.5417(3)
C34 C -0.1573(2) -0.17922(18) 0.4884(3)
C35 C -0.2210(3) -0.1728(2) 0.5383(4)
H37 H -0.2159 -0.1444 0.5710
H38 H -0.2266 -0.2005 0.5718
H39 H -0.2603 -0.1693 0.5033
C36 C -0.1494(3) -0.1354(2) 0.4340(4)
H40 H -0.1433 -0.1069 0.4660
H41 H -0.1894 -0.1320 0.4002
H42 H -0.1103 -0.1399 0.4014
C37 C -0.1662(3) -0.2250(2) 0.4374(3)
H43 H -0.1997 -0.2193 0.3956
H44 H -0.1808 -0.2512 0.4705
H45 H -0.1235 -0.2332 0.4142
C38 C -0.0306(2) -0.19621(16) 0.5057(3)
H46 H -0.0296 -0.2003 0.4506
C39 C 0.1420(2) -0.17999(15) 0.5010(2)
C40 C 0.1310(2) -0.12976(16) 0.5148(3)
H47 H 0.0914 -0.1156 0.5331
C41 C 0.1886(2) -0.10687(16) 0.4962(3)
H48 H 0.1962 -0.0737 0.4990
C42 C 0.2366(2) -0.14271(16) 0.4712(3)
C43 C 0.3018(2) -0.13305(15) 0.4466(3)
C44 C 0.3241(2) -0.08093(16) 0.4421(3)
C45 C 0.3404(2) -0.05511(16) 0.5110(3)
H49 H 0.3381 -0.0701 0.5606
C46 C 0.3601(2) -0.00674(17) 0.5063(3)
C47 C 0.3776(3) 0.02338(18) 0.5805(3)
C48 C 0.3256(3) 0.0651(2) 0.5841(4)
H50 H 0.3273 0.0839 0.5360
H51 H 0.3365 0.0853 0.6293
H52 H 0.2805 0.0521 0.5893
C49 C 0.4497(3) 0.0450(2) 0.5758(4)
H53 H 0.4531 0.0634 0.5275
H54 H 0.4827 0.0194 0.5760
H55 H 0.4584 0.0656 0.6211
C50 C 0.3737(3) -0.0055(2) 0.6577(3)
H56 H 0.4058 -0.0316 0.6567
H57 H 0.3285 -0.0181 0.6628
H58 H 0.3845 0.0152 0.7024
C51 C 0.3633(2) 0.01380(16) 0.4296(3)
H59 H 0.3769 0.0458 0.4254
C52 C 0.3470(2) -0.01138(18) 0.3602(3)
C53 C 0.3493(3) 0.0136(2) 0.2778(3)
C54 C 0.2930(4) 0.0526(2) 0.2754(4)
H60 H 0.3006 0.0749 0.3186
H61 H 0.2493 0.0375 0.2806
H62 H 0.2940 0.0696 0.2254
C55 C 0.4180(3) 0.0380(3) 0.2669(4)
H63 H 0.4534 0.0140 0.2682
H64 H 0.4261 0.0609 0.3093
H65 H 0.4178 0.0544 0.2164
C56 C 0.3355(4) -0.0209(2) 0.2095(3)
H66 H 0.3700 -0.0455 0.2098
H67 H 0.3362 -0.0035 0.1598
H68 H 0.2917 -0.0356 0.2153
C57 C 0.3275(2) -0.05933(17) 0.3675(3)
H69 H 0.3166 -0.0772 0.3219
C58 C 0.3474(2) -0.16776(16) 0.4207(2)
C59 C 0.4136(2) -0.15729(17) 0.3891(3)
H70 H 0.4336 -0.1270 0.3852
C60 C 0.4410(2) -0.19967(16) 0.3665(3)
H71 H 0.4834 -0.2042 0.3441
C61 C 0.3920(2) -0.23631(16) 0.3837(2)
C62 C 0.4005(2) -0.28533(16) 0.3638(3)
C63 C 0.4661(2) -0.29858(16) 0.3257(3)
C64 C 0.4665(2) -0.30453(16) 0.2438(3)
H72 H 0.4260 -0.3019 0.2140
C65 C 0.5272(2) -0.31448(16) 0.2049(3)
C66 C 0.5249(2) -0.31992(18) 0.1145(3)
C67 C 0.4975(3) -0.27293(19) 0.0761(3)
H73 H 0.4962 -0.2762 0.0190
H74 H 0.5268 -0.2465 0.0912
H75 H 0.4523 -0.2668 0.0943
C68 C 0.5957(2) -0.32949(19) 0.0806(3)
H76 H 0.6141 -0.3587 0.1032
H77 H 0.6255 -0.3030 0.0938
H78 H 0.5917 -0.3327 0.0235
C69 C 0.4774(3) -0.36118(19) 0.0912(3)
H79 H 0.4943 -0.3907 0.1145
H80 H 0.4752 -0.3643 0.0341
H81 H 0.4326 -0.3546 0.1104
C70 C 0.5873(2) -0.31859(16) 0.2527(3)
H82 H 0.6282 -0.3251 0.2280
C71 C 0.5876(2) -0.31338(16) 0.3346(3)
C72 C 0.6526(2) -0.31749(18) 0.3879(3)
C73 C 0.7169(2) -0.3193(2) 0.3389(3)
H83 H 0.7561 -0.3220 0.3742
H84 H 0.7203 -0.2903 0.3078
H85 H 0.7149 -0.3467 0.3038
C74 C 0.6579(2) -0.2738(2) 0.4439(3)
H86 H 0.6985 -0.2765 0.4770
H87 H 0.6188 -0.2729 0.4770
H88 H 0.6598 -0.2447 0.4127
C75 C 0.6483(3) -0.3641(2) 0.4373(4)
H89 H 0.6886 -0.3672 0.4708
H90 H 0.6446 -0.3913 0.4021
H91 H 0.6090 -0.3627 0.4701
C76 C 0.5257(2) -0.30368(16) 0.3714(3)
H92 H 0.5247 -0.3006 0.4267
C77 C 0.3281(2) -0.20198(19) 0.0758(3)
H93 H 0.3536 -0.1901 0.0340
C78 C 0.3416(3) -0.1844(2) 0.1533(3)
H94 H 0.3753 -0.1612 0.1625
C79 C 0.3042(3) -0.20189(18) 0.2155(3)
H95 H 0.3107 -0.1897 0.2670
C80 C 0.2563(2) -0.23823(16) 0.1998(3)
C81 C 0.2470(2) -0.25253(16) 0.1216(3)
H96 H 0.2147 -0.2764 0.1111
C82 C 0.2160(2) -0.26005(18) 0.2657(3)
Al1C Al 0.24647(6) -0.24955(4) -0.06297(7)
N5C N 0.28052(18) -0.26512(13) 0.5594(2)
C83 C -0.1041(5) -0.3181(3) 0.6356(5)
H97 H -0.0623 -0.3094 0.6631
H98 H -0.1101 -0.2986 0.5885
H99 H -0.1025 -0.3516 0.6207
C84 C -0.1643(5) -0.3098(3) 0.6912(6)
H100 H -0.1573 -0.3291 0.7391
H101 H -0.1646 -0.2761 0.7073
C85 C -0.2276(5) -0.3213(4) 0.6564(6)
H102 H -0.2254 -0.3536 0.6339
H103 H -0.2374 -0.2990 0.6128
C86 C -0.2870(5) -0.3193(4) 0.7165(6)
H104 H -0.2786 -0.3436 0.7574
H105 H -0.2860 -0.2880 0.7426
C87 C -0.3527(7) -0.3268(5) 0.6829(9)
H106 H -0.3535 -0.3576 0.6554
H107 H -0.3619 -0.3018 0.6433
C88 C -0.4075(5) -0.3262(4) 0.7415(6)
H108 H -0.4508 -0.3298 0.7140
H109 H -0.4065 -0.2961 0.7700
H110 H -0.4009 -0.3524 0.7786
C89 C 0.3426(11) -0.5279(8) 0.4110(13)
H111 H 0.3117 -0.5034 0.3917
H112 H 0.3195 -0.5487 0.4473
H113 H 0.3582 -0.5465 0.3666
C90 C 0.398(2) -0.5064(14) 0.450(2)
H114 H 0.3798 -0.5027 0.5033
H115 H 0.3954 -0.4742 0.4275
C91 C 0.4786(14) -0.5096(11) 0.4724(17)
H116 H 0.4863 -0.5440 0.4783
H117 H 0.4995 -0.5010 0.4225
C89B C 0.6574(11) -0.4721(8) 0.5890(13)
H111B H 0.6883 -0.4966 0.6083
H112B H 0.6805 -0.4513 0.5527
H113B H 0.6418 -0.4535 0.6334
C90B C 0.602(2) -0.4936(14) 0.550(2)
H114B H 0.6202 -0.4973 0.4967
H115B H 0.6046 -0.5258 0.5725
C91B C 0.5214(14) -0.4904(11) 0.5276(17)
H116B H 0.5137 -0.4560 0.5217
H117B H 0.5005 -0.4990 0.5775
C92 C 0.1109(5) -0.5387(3) 0.8813(5)
H118 H 0.1175 -0.5676 0.8507
H119 H 0.1481 -0.5349 0.9193
H120 H 0.1092 -0.5114 0.8460
C93 C 0.0450(4) -0.5423(3) 0.9248(5)
H121 H 0.0462 -0.5710 0.9582
H122 H 0.0077 -0.5460 0.8860
C94 C 0.0314(4) -0.4988(2) 0.9765(4)
H123 H 0.0700 -0.4943 1.0132
H124 H 0.0287 -0.4704 0.9424
C92B C -0.1109(5) -0.4613(3) 1.1187(5)
H118B H -0.1175 -0.4324 1.1493
H119B H -0.1481 -0.4651 1.0807
H120B H -0.1092 -0.4886 1.1540
C93B C -0.0450(4) -0.4577(3) 1.0752(5)
H121B H -0.0462 -0.4290 1.0418
H122B H -0.0077 -0.4540 1.1140
C94B C -0.0314(4) -0.5012(2) 1.0235(4)
H123B H -0.0700 -0.5057 0.9868
H124B H -0.0287 -0.5296 1.0576
C95 C 0.1183(3) -0.3440(2) 0.7898(3)
H125 H 0.1419 -0.3441 0.8422
Cl1 Cl 0.0338(4) -0.3644(3) 0.8065(6)
Cl2 Cl 0.1206(4) -0.2833(2) 0.7550(5)
Cl3 Cl 0.1644(4) -0.3842(2) 0.7283(5)
O3 O 0.2783(8) -0.1270(4) 0.6788(7)
C96? C 0.1147(3) -0.3595(2) 0.7845(3)
H126? H 0.1383 -0.3364 0.8200
Cl4? Cl 0.0325(4) -0.3686(3) 0.8244(5)
Cl5? Cl 0.1106(4) -0.3324(3) 0.6880(4)
Cl6? Cl 0.1648(4) -0.4131(3) 0.7866(5)
loop_
_geom_bond_atom_site_label_1
_geom_bond_atom_site_label_2
_geom_bond_site_symmetry_1
_geom_bond_site_symmetry_2
Al1 N1 1_555 1_555
N1 C1 1_555 1_555
N2 Al1 1_555 1_555
N3 Al1 1_555 1_555
N4 Al1 1_555 1_555
N5 C77 1_555 1_555
O1 Al1 1_555 1_555
O2 C82 1_555 1_555
C1 C2 1_555 1_555
C2 H1 1_555 1_555
C3 C2 1_555 1_555
H2 C3 1_555 1_555
C4 N1 1_555 1_555
C5 C4 1_555 1_555
C6 C5 1_555 1_555
C7 C6 1_555 1_555
H3 C7 1_555 1_555
C8 C7 1_555 1_555
C9 C8 1_555 1_555
C10 C9 1_555 1_555
H4 C10 1_555 1_555
H5 C10 1_555 1_555
H6 C10 1_555 1_555
C11 C9 1_555 1_555
H7 C11 1_555 1_555
H8 C11 1_555 1_555
H9 C11 1_555 1_555
C12 C9 1_555 1_555
H10 C12 1_555 1_555
H11 C12 1_555 1_555
H12 C12 1_555 1_555
C13 C8 1_555 1_555
H13 C13 1_555 1_555
C14 C13 1_555 1_555
C15 C14 1_555 1_555
C16 C15 1_555 1_555
H14 C16 1_555 1_555
H15 C16 1_555 1_555
H16 C16 1_555 1_555
C17 C15 1_555 1_555
H17 C17 1_555 1_555
H18 C17 1_555 1_555
H19 C17 1_555 1_555
C18 C15 1_555 1_555
H20 C18 1_555 1_555
H21 C18 1_555 1_555
H22 C18 1_555 1_555
C19 C6 1_555 1_555
H23 C19 1_555 1_555
C20 N2 1_555 1_555
C21 C20 1_555 1_555
H24 C21 1_555 1_555
C22 C21 1_555 1_555
H25 C22 1_555 1_555
C23 N2 1_555 1_555
C24 C23 1_555 1_555
C25 C24 1_555 1_555
C26 C25 1_555 1_555
H26 C26 1_555 1_555
C27 C26 1_555 1_555
C28 C27 1_555 1_555
C29 C28 1_555 1_555
H27 C29 1_555 1_555
H28 C29 1_555 1_555
H29 C29 1_555 1_555
C30 C28 1_555 1_555
H30 C30 1_555 1_555
H31 C30 1_555 1_555
H32 C30 1_555 1_555
C31 C28 1_555 1_555
H33 C31 1_555 1_555
H34 C31 1_555 1_555
H35 C31 1_555 1_555
C32 C27 1_555 1_555
H36 C32 1_555 1_555
C33 C32 1_555 1_555
C34 C33 1_555 1_555
C35 C34 1_555 1_555
H37 C35 1_555 1_555
H38 C35 1_555 1_555
H39 C35 1_555 1_555
C36 C34 1_555 1_555
H40 C36 1_555 1_555
H41 C36 1_555 1_555
H42 C36 1_555 1_555
C37 C34 1_555 1_555
H43 C37 1_555 1_555
H44 C37 1_555 1_555
H45 C37 1_555 1_555
C38 C25 1_555 1_555
H46 C38 1_555 1_555
C39 N3 1_555 1_555
C40 C39 1_555 1_555
H47 C40 1_555 1_555
C41 C40 1_555 1_555
H48 C41 1_555 1_555
C42 N3 1_555 1_555
C43 C42 1_555 1_555
C44 C43 1_555 1_555
C45 C44 1_555 1_555
H49 C45 1_555 1_555
C46 C45 1_555 1_555
C47 C46 1_555 1_555
C48 C47 1_555 1_555
H50 C48 1_555 1_555
H51 C48 1_555 1_555
H52 C48 1_555 1_555
C49 C47 1_555 1_555
H53 C49 1_555 1_555
H54 C49 1_555 1_555
H55 C49 1_555 1_555
C50 C47 1_555 1_555
H56 C50 1_555 1_555
H57 C50 1_555 1_555
H58 C50 1_555 1_555
C51 C46 1_555 1_555
H59 C51 1_555 1_555
C52 C51 1_555 1_555
C53 C52 1_555 1_555
C54 C53 1_555 1_555
H60 C54 1_555 1_555
H61 C54 1_555 1_555
H62 C54 1_555 1_555
C55 C53 1_555 1_555
H63 C55 1_555 1_555
H64 C55 1_555 1_555
H65 C55 1_555 1_555
C56 C53 1_555 1_555
H66 C56 1_555 1_555
H67 C56 1_555 1_555
H68 C56 1_555 1_555
C57 C44 1_555 1_555
H69 C57 1_555 1_555
C58 N4 1_555 1_555
C59 C58 1_555 1_555
H70 C59 1_555 1_555
C60 C59 1_555 1_555
H71 C60 1_555 1_555
C61 N4 1_555 1_555
C62 C1 1_555 1_555
C63 C62 1_555 1_555
C64 C63 1_555 1_555
H72 C64 1_555 1_555
C65 C64 1_555 1_555
C66 C65 1_555 1_555
C67 C66 1_555 1_555
H73 C67 1_555 1_555
H74 C67 1_555 1_555
H75 C67 1_555 1_555
C68 C66 1_555 1_555
H76 C68 1_555 1_555
H77 C68 1_555 1_555
H78 C68 1_555 1_555
C69 C66 1_555 1_555
H79 C69 1_555 1_555
H80 C69 1_555 1_555
H81 C69 1_555 1_555
C70 C65 1_555 1_555
H82 C70 1_555 1_555
C71 C70 1_555 1_555
C72 C71 1_555 1_555
C73 C72 1_555 1_555
H83 C73 1_555 1_555
H84 C73 1_555 1_555
H85 C73 1_555 1_555
C74 C72 1_555 1_555
H86 C74 1_555 1_555
H87 C74 1_555 1_555
H88 C74 1_555 1_555
C75 C72 1_555 1_555
H89 C75 1_555 1_555
H90 C75 1_555 1_555
H91 C75 1_555 1_555
C76 C63 1_555 1_555
H92 C76 1_555 1_555
C77 H93 1_555 1_555
C78 C77 1_555 1_555
H94 C78 1_555 1_555
C79 C78 1_555 1_555
H95 C79 1_555 1_555
C80 C79 1_555 1_555
C81 N5 1_555 1_555
H96 C81 1_555 1_555
C82 O1 1_555 1_555
C83 H97 1_555 1_555
H98 C83 1_555 1_555
H99 C83 1_555 1_555
C84 C83 1_555 1_555
H100 C84 1_555 1_555
H101 C84 1_555 1_555
C85 C84 1_555 1_555
H102 C85 1_555 1_555
H103 C85 1_555 1_555
C86 C85 1_555 1_555
H104 C86 1_555 1_555
H105 C86 1_555 1_555
C87 C86 1_555 1_555
H106 C87 1_555 1_555
H107 C87 1_555 1_555
C88 C87 1_555 1_555
H108 C88 1_555 1_555
H109 C88 1_555 1_555
H110 C88 1_555 1_555
C89 H111 1_555 1_555
H112 C89 1_555 1_555
H113 C89 1_555 1_555
C90 C89 1_555 1_555
H114 C90 1_555 1_555
H115 C90 1_555 1_555
C91 C90 1_555 1_555
H116 C91 1_555 1_555
H117 C91 1_555 1_555
C92 H118 1_555 1_555
H119 C92 1_555 1_555
H120 C92 1_555 1_555
C93 C92 1_555 1_555
H121 C93 1_555 1_555
H122 C93 1_555 1_555
C94 C93 1_555 1_555
H123 C94 1_555 1_555
H124 C94 1_555 1_555
C95 H125 1_555 1_555
Cl1 C95 1_555 1_555
Cl2 C95 1_555 1_555
Cl3 C95 1_555 1_555
Al1C N5 1_555 1_555
N5C Al1 1_555 1_555
C89B H111B 1_555 1_555
H112B C89B 1_555 1_555
H113B C89B 1_555 1_555
C90B C89B 1_555 1_555
H114B C90B 1_555 1_555
H115B C90B 1_555 1_555
C91B C91 1_555 1_555
H116B C91B 1_555 1_555
H117B C91B 1_555 1_555
C92B H118B 1_555 1_555
H119B C92B 1_555 1_555
H120B C92B 1_555 1_555
C93B C92B 1_555 1_555
H121B C93B 1_555 1_555
H122B C93B 1_555 1_555
C94B C94 1_555 1_555
H123B C94B 1_555 1_555
H124B C94B 1_555 1_555
C3 C4 1_555 1_555
C5 C20 1_555 1_555
C14 C19 1_555 1_555
C22 C23 1_555 1_555
C24 C39 1_555 1_555
C33 C38 1_555 1_555
C41 C42 1_555 1_555
C43 C58 1_555 1_555
C52 C57 1_555 1_555
C60 C61 1_555 1_555
C61 C62 1_555 1_555
C71 C76 1_555 1_555
C80 C81 1_555 1_555
C80 C82 1_555 1_555
C90B C91B 1_555 1_555
C93B C94B 1_555 1_555

#END
