
#######################################################################
#
#                 Cambridge Crystallographic Data Centre
#                                CCDC 
#
#######################################################################
#
# If this CIF has been generated from an entry in the Cambridge 
# Structural Database, then it will include bibliographic, chemical, 
# crystal, experimental, refinement or atomic coordinate data resulting 
# from the CCDC's data processing and validation procedures.
#
#######################################################################

data_KOKMED
_symmetry_cell_setting           monoclinic
_symmetry_space_group_name_H-M   'P 21/c'
_symmetry_Int_Tables_number      14
_space_group_name_Hall           '-P 2ybc'
loop_
_symmetry_equiv_pos_site_id
_symmetry_equiv_pos_as_xyz
1 x,y,z
2 -x,1/2+y,1/2-z
3 -x,-y,-z
4 x,1/2-y,1/2+z
_cell_length_a                   16.4641(11)
_cell_length_b                   30.555(2)
_cell_length_c                   35.228(2)
_cell_angle_alpha                90
_cell_angle_beta                 90.01(1)
_cell_angle_gamma                90
_cell_volume                     17721.8
loop_
_atom_site_label
_atom_site_type_symbol
_atom_site_fract_x
_atom_site_fract_y
_atom_site_fract_z
Al1 Al 0.09921(16) 0.74330(8) 0.02389(7)
Al2 Al 0.08741(15) 0.77481(8) -0.22522(7)
O1 O 0.1153(4) 0.7404(2) 0.07707(17)
O2 O 0.2403(7) 0.7622(3) 0.0912(2)
O3 O 0.0652(4) 0.76874(19) -0.17272(16)
O4 O -0.0283(5) 0.7171(3) -0.1647(2)
N1 N -0.0121(4) 0.7677(2) 0.03321(18)
N2 N 0.1442(4) 0.8038(2) 0.02014(19)
N3 N 0.2089(4) 0.7191(2) 0.01156(18)
N4 N 0.0521(4) 0.6828(2) 0.02652(18)
N5 N 0.0906(4) 0.8396(2) -0.22027(18)
N6 N 0.2065(4) 0.7728(2) -0.21370(19)
N7 N 0.0867(4) 0.7102(2) -0.23364(19)
N8 N -0.0317(4) 0.7775(2) -0.23826(18)
C1 C 0.1718(8) 0.7465(4) 0.0981(4)
C2 C 0.1540(7) 0.7345(4) 0.1419(4)
C3 C 0.0765(6) 0.7261(4) 0.1502(3)
H1 H 0.0347 0.7247 0.1316
C4 C 0.0625(8) 0.7194(5) 0.1900(4)
H2 H 0.0081 0.7133 0.1972
N9 N 0.1152(4) 0.7206(2) 0.21719(19)
C5 C 0.1923(9) 0.7328(6) 0.2041(3)
H3 H 0.2336 0.7373 0.2226
C6 C 0.2123(9) 0.7386(6) 0.1678(4)
H4 H 0.2665 0.7454 0.1607
C7 C 0.0207(7) 0.7431(4) -0.1541(3)
C8 C 0.0390(6) 0.7440(3) -0.1099(3)
C9 C 0.1134(5) 0.7610(3) -0.0993(2)
H5 H 0.151 0.773 -0.117
C10 C 0.1287(7) 0.7589(3) -0.0595(3)
H6 H 0.181 0.7675 -0.0508
N10 N 0.0747(4) 0.7458(2) -0.03343(18)
C11 C 0.0047(7) 0.7306(3) -0.0483(3)
H7 H -0.0343 0.7192 -0.0311
C12 C -0.0143(7) 0.7301(4) -0.0848(3)
H8 H -0.066 0.7198 -0.0929
C13 C -0.0828(5) 0.7447(3) 0.0380(2)
C14 C -0.1492(6) 0.7747(3) 0.0438(3)
H9 H -0.2049 0.767 0.0464
C15 C -0.1186(6) 0.8152(3) 0.0450(3)
H10 H -0.1478 0.8415 0.0495
C16 C -0.0321(5) 0.8114(3) 0.0379(2)
C17 C 0.0219(6) 0.8467(3) 0.0372(2)
C18 C 0.1038(5) 0.8425(3) 0.0283(2)
C19 C 0.1562(6) 0.8785(3) 0.0216(3)
H11 H 0.1433 0.9086 0.0251
C20 C 0.2278(6) 0.8624(3) 0.0092(3)
H12 H 0.2735 0.8792 0.0015
C21 C 0.2228(5) 0.8165(3) 0.0095(2)
C22 C 0.2843(6) 0.7878(3) 0.0004(3)
C23 C 0.2775(5) 0.7421(3) 0.0023(2)
C24 C 0.3440(6) 0.7116(3) -0.0036(3)
H13 H 0.3986 0.7188 -0.0098
C25 C 0.3136(6) 0.6718(3) 0.0014(3)
H14 H 0.3426 0.6451 -0.001
C26 C 0.2302(5) 0.6762(3) 0.0109(2)
C27 C 0.1791(5) 0.6402(3) 0.0183(3)
C28 C 0.0956(5) 0.6445(3) 0.0252(2)
C29 C 0.0430(6) 0.6082(3) 0.0322(3)
H15 H 0.0582 0.5782 0.0331
C30 C -0.0327(6) 0.6248(3) 0.0375(3)
H16 H -0.0811 0.6088 0.0423
C31 C -0.0246(6) 0.6709(3) 0.0342(2)
C32 C -0.0912(5) 0.7005(3) 0.0385(2)
C33 C -0.0089(5) 0.8903(3) 0.0479(3)
C34 C 0.0094(6) 0.9080(3) 0.0836(3)
H17 H 0.0453 0.8925 0.0998
C35 C -0.0233(6) 0.9475(3) 0.0959(3)
C36 C -0.0774(6) 0.9694(3) 0.0713(3)
H18 H -0.1011 0.9962 0.0792
C37 C -0.0971(6) 0.9527(3) 0.0358(3)
C38 C -0.0621(5) 0.9134(3) 0.0240(3)
H19 H -0.0745 0.902 -0.0005
C39 C -0.0018(6) 0.9677(3) 0.1347(3)
C40 C 0.0540(10) 0.9351(6) 0.1536(8)
H20 H 0.0986 0.9506 0.1661
H21 H 0.076 0.9151 0.1345
H22 H 0.0234 0.9183 0.1726
C41 C -0.0808(8) 0.9734(6) 0.1559(6)
H23 H -0.0767 0.9987 0.1729
H24 H -0.0921 0.947 0.1708
H25 H -0.125 0.9782 0.1377
C42 C 0.0398(10) 1.0108(4) 0.1268(6)
H26 H 0.0391 1.0166 0.0994
H27 H 0.0962 1.0094 0.1357
H28 H 0.0112 1.0344 0.1401
C43 C -0.1570(6) 0.9763(3) 0.0081(3)
C44 C -0.2280(7) 0.9465(4) 0.0009(5)
H29 H -0.2084 0.9183 -0.0086
H30 H -0.264 0.9599 -0.018
H31 H -0.258 0.942 0.0246
C45 C -0.1928(8) 1.0173(4) 0.0251(4)
H32 H -0.2242 1.0098 0.0478
H33 H -0.2286 1.0313 0.0064
H34 H -0.149 1.0375 0.032
C46 C -0.1124(6) 0.9892(4) -0.0272(3)
H35 H -0.0697 1.0103 -0.0208
H36 H -0.1505 1.0026 -0.0452
H37 H -0.0878 0.9633 -0.0388
C47 C 0.3645(6) 0.8066(3) -0.0121(3)
C48 C 0.3928(6) 0.7949(3) -0.0484(3)
H38 H 0.3609 0.7767 -0.0643
C49 C 0.4680(6) 0.8103(3) -0.0608(3)
C50 C 0.5103(6) 0.8375(4) -0.0375(3)
H39 H 0.561 0.8483 -0.0462
C51 C 0.4842(7) 0.8503(4) -0.0018(3)
C52 C 0.4095(6) 0.8328(4) 0.0106(3)
H40 H 0.3904 0.8396 0.0353
C53 C 0.5010(6) 0.7980(3) -0.1006(3)
C54 C 0.4664(8) 0.7545(4) -0.1133(3)
H41 H 0.479 0.732 -0.0943
H42 H 0.4905 0.7462 -0.1377
H43 H 0.4074 0.757 -0.1161
C55 C 0.4765(6) 0.8332(3) -0.1283(3)
H44 H 0.4942 0.825 -0.1539
H45 H 0.5021 0.8609 -0.121
H46 H 0.4173 0.8365 -0.1279
C56 C 0.5920(6) 0.7927(4) -0.1000(3)
H47 H 0.6069 0.7696 -0.082
H48 H 0.6172 0.8204 -0.0922
H49 H 0.6112 0.7849 -0.1254
C57 C 0.5347(8) 0.8806(4) 0.0239(4)
C58 C 0.5490(9) 0.9230(4) 0.0006(5)
H50 H 0.4977 0.9389 -0.002
H51 H 0.5698 0.9153 -0.0246
H52 H 0.5887 0.9415 0.0138
C59 C 0.6206(8) 0.8596(5) 0.0307(4)
H53 H 0.6515 0.8779 0.0485
H54 H 0.6497 0.8577 0.0065
H55 H 0.614 0.8302 0.0414
C60 C 0.5016(10) 0.8870(5) 0.0614(4)
H56 H 0.5398 0.9042 0.0767
H57 H 0.4927 0.8585 0.0735
H58 H 0.4498 0.9027 0.0595
C61 C 0.2142(5) 0.5954(3) 0.0171(3)
C62 C 0.2726(6) 0.5837(3) 0.0439(3)
H59 H 0.2884 0.6043 0.0626
C63 C 0.3083(6) 0.5422(4) 0.0437(3)
C64 C 0.2791(6) 0.5125(3) 0.0148(3)
H60 H 0.3008 0.4837 0.0142
C65 C 0.2221(6) 0.5237(3) -0.0115(3)
C66 C 0.1895(6) 0.5663(3) -0.0100(3)
H61 H 0.1499 0.5749 -0.0281
C67 C 0.3739(9) 0.5283(4) 0.0710(4)
C68 C 0.4069(10) 0.5667(5) 0.0953(4)
H62 H 0.3626 0.5792 0.1104
H63 H 0.4294 0.5893 0.0786
H64 H 0.4495 0.5559 0.1123
C69 C 0.3445(9) 0.4940(5) 0.0974(4)
H65 H 0.3089 0.5072 0.1165
H66 H 0.391 0.4802 0.11
H67 H 0.3141 0.4718 0.0832
C70 C 0.4468(8) 0.5100(6) 0.0475(4)
H68 H 0.4904 0.5011 0.0648
H69 H 0.4668 0.5327 0.0303
H70 H 0.4288 0.4846 0.0327
C71 C 0.1912(8) 0.4932(4) -0.0423(3)
C72 C 0.2298(7) 0.4471(3) -0.0382(3)
H71 H 0.2149 0.4291 -0.0601
H72 H 0.2097 0.4332 -0.0149
H73 H 0.289 0.4499 -0.0369
C73 C 0.2116(11) 0.5107(5) -0.0818(3)
H74 H 0.1877 0.5398 -0.085
H75 H 0.1895 0.4908 -0.1011
H76 H 0.2707 0.5125 -0.0847
C74 C 0.0986(7) 0.4880(4) -0.0384(5)
H77 H 0.0728 0.5169 -0.0394
H78 H 0.086 0.474 -0.014
H79 H 0.0781 0.4698 -0.0592
C75 C -0.1750(6) 0.6817(3) 0.0462(3)
C76 C -0.2280(6) 0.6769(3) 0.0165(3)
H80 H -0.2104 0.6826 -0.0087
C77 C -0.3088(6) 0.6636(3) 0.0233(3)
C78 C -0.3293(6) 0.6548(3) 0.0609(3)
H81 H -0.3833 0.6456 0.0661
C79 C -0.2764(6) 0.6585(3) 0.0913(3)
C80 C -0.1981(6) 0.6719(3) 0.0828(3)
H82 H -0.1595 0.6745 0.1028
C81 C -0.3681(6) 0.6593(4) -0.0105(4)
C82 C -0.3279(10) 0.6309(8) -0.0422(4)
H83 H -0.352 0.6382 -0.0668
H84 H -0.337 0.5998 -0.0368
H85 H -0.2694 0.6367 -0.0429
C83 C -0.3911(15) 0.7039(7) -0.0229(7)
H86 H -0.3735 0.7252 -0.0038
H87 H -0.4501 0.7056 -0.0259
H88 H -0.3647 0.7105 -0.0472
C84 C -0.4463(8) 0.6372(5) 0.0009(5)
H89 H -0.4695 0.6523 0.0229
H90 H -0.4353 0.6066 0.0075
H91 H -0.4848 0.6384 -0.0203
C85 C -0.3068(7) 0.6476(3) 0.1304(3)
C86 C -0.2388(9) 0.6502(5) 0.1601(3)
H92 H -0.1936 0.6313 0.1525
H93 H -0.2596 0.6406 0.1848
H94 H -0.2196 0.6805 0.1621
C87 C -0.3397(7) 0.6006(3) 0.1316(3)
H95 H -0.3829 0.5973 0.1127
H96 H -0.3615 0.5944 0.1569
H97 H -0.2957 0.58 0.1259
C88 C -0.3743(9) 0.6794(4) 0.1416(4)
H98 H -0.3526 0.7092 0.1423
H99 H -0.3951 0.6716 0.1668
H100 H -0.4184 0.6778 0.123
C89 C 0.1571(5) 0.8664(3) -0.2143(2)
C90 C 0.1331(6) 0.9107(3) -0.2125(3)
H101 H 0.1684 0.935 -0.2096
C91 C 0.0523(6) 0.9125(3) -0.2155(3)
H102 H 0.019 0.9379 -0.214
C92 C 0.0259(5) 0.8682(3) -0.2215(2)
C93 C 0.2355(5) 0.8512(3) -0.2091(2)
C94 C 0.2582(6) 0.8076(3) -0.2081(2)
C95 C 0.3384(6) 0.7912(3) -0.2010(3)
H103 H 0.3856 0.8085 -0.1967
C96 C 0.3352(6) 0.7478(3) -0.2016(3)
H104 H 0.3794 0.7284 -0.1974
C97 C 0.2527(6) 0.7357(3) -0.2097(3)
C98 C 0.2278(5) 0.6933(3) -0.2171(3)
C99 C 0.1520(6) 0.6815(3) -0.2293(3)
C100 C 0.1284(6) 0.6384(3) -0.2408(3)
H105 H 0.1618 0.613 -0.2405
C101 C 0.0498(6) 0.6404(3) -0.2522(3)
H106 H 0.0182 0.6169 -0.2619
C102 C 0.0236(6) 0.6849(3) -0.2468(2)
C103 C -0.0554(5) 0.6999(3) -0.2533(2)
C104 C -0.0807(5) 0.7429(3) -0.2477(2)
C105 C -0.1615(6) 0.7583(3) -0.2506(3)
H107 H -0.2073 0.741 -0.2573
C106 C -0.1632(5) 0.8002(3) -0.2424(2)
H108 H -0.2098 0.8186 -0.242
C107 C -0.0802(5) 0.8130(3) -0.2343(2)
C108 C -0.0553(5) 0.8553(3) -0.2263(2)
C109 C 0.3037(5) 0.8848(3) -0.2045(3)
C110 C 0.3112(5) 0.9090(3) -0.1716(3)
H109 H 0.2728 0.9053 -0.1517
C111 C 0.3738(6) 0.9385(3) -0.1672(3)
C112 C 0.4280(6) 0.9430(3) -0.1968(3)
H110 H 0.4711 0.9635 -0.1942
C113 C 0.4227(6) 0.9194(3) -0.2295(3)
C114 C 0.3593(6) 0.8897(3) -0.2332(3)
H111 H 0.3544 0.8727 -0.2557
C115 C 0.3796(6) 0.9662(4) -0.1302(3)
C116 C 0.3604(10) 0.9378(5) -0.0947(3)
H112 H 0.4041 0.9164 -0.0909
H113 H 0.3563 0.9567 -0.0723
H114 H 0.3089 0.9224 -0.0985
C117 C 0.3121(12) 0.9999(5) -0.1313(4)
H115 H 0.2619 0.986 -0.1401
H116 H 0.3038 1.0119 -0.1058
H117 H 0.327 1.0236 -0.1488
C118 C 0.4596(11) 0.9871(9) -0.1271(6)
H118 H 0.5021 0.9656 -0.1325
H119 H 0.4633 1.0113 -0.1453
H120 H 0.4668 0.9985 -0.1013
C119 C 0.4863(8) 0.9235(4) -0.2609(4)
C120 C 0.5529(8) 0.9548(5) -0.2537(4)
H121 H 0.5307 0.9845 -0.252
H122 H 0.58 0.9473 -0.2298
H123 H 0.5922 0.9534 -0.2746
C121 C 0.5355(13) 0.8798(6) -0.2610(6)
H124 H 0.5761 0.8806 -0.2814
H125 H 0.5628 0.8761 -0.2365
H126 H 0.4984 0.8552 -0.2653
C122 C 0.4521(14) 0.9308(7) -0.2961(6)
H127 H 0.4292 0.9603 -0.2969
H128 H 0.494 0.9279 -0.3157
H129 H 0.409 0.9093 -0.3006
C123 C 0.2924(7) 0.6583(3) -0.2135(4)
C124 C 0.3174(8) 0.6422(4) -0.1805(5)
H130 H 0.2896 0.6506 -0.1581
C125 C 0.3839(9) 0.6129(4) -0.1773(6)
C126 C 0.4221(9) 0.6025(4) -0.2112(7)
H131 H 0.4679 0.5836 -0.2098
C127 C 0.3992(7) 0.6174(4) -0.2475(5)
C128 C 0.3312(7) 0.6459(3) -0.2482(5)
H132 H 0.3115 0.6568 -0.2718
C129 C 0.4129(11) 0.5948(5) -0.1400(8)
C130 C 0.3644(15) 0.6105(6) -0.1065(6)
H133 H 0.3068 0.6038 -0.1105
H134 H 0.3835 0.5958 -0.0834
H135 H 0.3712 0.6422 -0.1037
C131 C 0.5029(11) 0.6106(6) -0.1340(7)
H136 H 0.503 0.6416 -0.1266
H137 H 0.5285 0.5932 -0.1139
H138 H 0.5334 0.607 -0.1577
C132 C 0.4094(11) 0.5450(4) -0.1417(6)
H139 H 0.4461 0.5345 -0.1617
H140 H 0.4261 0.5328 -0.1172
H141 H 0.3538 0.5357 -0.1475
C133 C 0.4398(8) 0.6049(4) -0.2865(5)
C134 C 0.4499(9) 0.6424(4) -0.3118(5)
H142 H 0.4877 0.6634 -0.3003
H143 H 0.4717 0.6325 -0.3362
H144 H 0.3972 0.6565 -0.3158
C135 C 0.5282(10) 0.5880(6) -0.2766(7)
H145 H 0.5248 0.5586 -0.2657
H146 H 0.5611 0.5871 -0.2998
H147 H 0.5534 0.6079 -0.2582
C136 C 0.3874(12) 0.5687(7) -0.3053(7)
H148 H 0.3368 0.5816 -0.3147
H149 H 0.4175 0.5557 -0.3265
H150 H 0.3749 0.5461 -0.2865
C137 C -0.1180(5) 0.6673(3) -0.2666(2)
C138 C -0.1367(5) 0.6305(3) -0.2451(2)
H151 H -0.1119 0.6264 -0.221
C139 C -0.1919(5) 0.5995(3) -0.2587(3)
C140 C -0.2291(5) 0.6077(3) -0.2930(3)
H152 H -0.2678 0.5872 -0.3021
C141 C -0.2126(5) 0.6448(3) -0.3150(2)
C142 C -0.1566(5) 0.6737(3) -0.3016(3)
H153 H -0.1433 0.6987 -0.3163
C143 C -0.2092(6) 0.5579(3) -0.2354(3)
C144 C -0.2476(9) 0.5709(4) -0.1984(3)
H154 H -0.259 0.5446 -0.1834
H155 H -0.2104 0.59 -0.1844
H156 H -0.2985 0.5865 -0.2034
C145 C -0.1259(7) 0.5339(4) -0.2278(4)
H157 H -0.0969 0.53 -0.2519
H158 H -0.0928 0.5516 -0.2105
H159 H -0.1363 0.5053 -0.2163
C146 C -0.2625(7) 0.5253(3) -0.2569(3)
H160 H -0.3173 0.5374 -0.2599
H161 H -0.239 0.5197 -0.282
H162 H -0.2655 0.4978 -0.2426
C147 C -0.2552(6) 0.6507(3) -0.3534(3)
C148 C -0.2413(7) 0.6975(3) -0.3693(3)
H163 H -0.1829 0.7034 -0.3706
H164 H -0.2649 0.6996 -0.3948
H165 H -0.2673 0.7189 -0.3525
C149 C -0.3448(6) 0.6440(4) -0.3499(3)
H166 H -0.3647 0.6591 -0.3272
H167 H -0.372 0.6559 -0.3725
H168 H -0.3565 0.6127 -0.3478
C150 C -0.2199(6) 0.6187(3) -0.3820(3)
H169 H -0.2348 0.5888 -0.3748
H170 H -0.2414 0.6252 -0.4073
H171 H -0.1606 0.6215 -0.3823
C151 C -0.1183(5) 0.8907(3) -0.2217(3)
C152 C -0.1671(5) 0.8920(3) -0.1888(3)
H172 H -0.1637 0.8691 -0.1706
C153 C -0.2199(6) 0.9265(3) -0.1832(3)
C154 C -0.2243(5) 0.9589(3) -0.2103(3)
H173 H -0.2603 0.9827 -0.2061
C155 C -0.1778(6) 0.9585(3) -0.2441(3)
C156 C -0.1258(5) 0.9239(3) -0.2485(3)
H174 H -0.0935 0.9225 -0.2708
C157 C -0.2712(6) 0.9275(3) -0.1465(3)
C158 C -0.2997(10) 0.9740(4) -0.1374(4)
H175 H -0.2549 0.9945 -0.1414
H176 H -0.3451 0.9817 -0.1541
H177 H -0.3175 0.9754 -0.1109
C159 C -0.2271(9) 0.9098(7) -0.1137(4)
H178 H -0.2173 0.8784 -0.1176
H179 H -0.1751 0.925 -0.111
H180 H -0.2596 0.914 -0.0907
C160 C -0.3465(9) 0.8992(6) -0.1534(4)
H181 H -0.3717 0.8918 -0.1291
H182 H -0.3854 0.9155 -0.1691
H183 H -0.3305 0.8723 -0.1666
C161 C -0.1811(6) 0.9951(3) -0.2736(3)
C162 C -0.0973(6) 1.0178(3) -0.2738(3)
H184 H -0.0987 1.043 -0.291
H185 H -0.0841 1.0278 -0.248
H186 H -0.0557 0.9971 -0.2824
C163 C -0.2454(6) 1.0308(3) -0.2640(3)
H187 H -0.2995 1.0174 -0.2629
H188 H -0.2325 1.044 -0.2394
H189 H -0.2448 1.0534 -0.2838
C164 C -0.2015(9) 0.9761(4) -0.3119(3)
H190 H -0.2081 0.9998 -0.3304
H191 H -0.1575 0.9567 -0.3202
H192 H -0.2522 0.9593 -0.3102
Al2C Al 0.08741(15) 0.72519(8) 0.27478(7)
N9C N 0.1152(4) 0.7794(2) -0.28281(19)
C165 C 0.7876(11) 0.7859(7) 0.3393(5)
H193 H 0.8337 0.789 0.321
Cl1 Cl 0.7946(4) 0.8286(2) 0.37382(19)
Cl2 Cl 0.7944(3) 0.7343(2) 0.36141(18)
Cl3 Cl 0.6961(3) 0.7937(3) 0.31470(19)
C166 C 0.2484(13) 0.8586(6) 0.1121(4)
H194 H 0.2965 0.8392 0.1115
H195 H 0.2112 0.8492 0.0915
Cl4 Cl 0.2793(4) 0.9125(2) 0.10370(17)
Cl5 Cl 0.1976(4) 0.85279(19) 0.15733(15)
C167 C 0.4271(14) 0.7607(6) 0.5897(6)
H196 H 0.3802 0.7496 0.5745
Cl6 Cl 0.5045(3) 0.7571(2) 0.56381(18)
Cl7 Cl 0.4012(3) 0.81490(19) 0.60459(17)
Cl8 Cl 0.4344(4) 0.7270(2) 0.6303(2)
C168 C 0.0912(7) 0.5917(4) 0.1372(4)
H197 H 0.1122 0.6101 0.1159
Cl9 Cl 0.1602(10) 0.5989(7) 0.1756(7)
Cl10 Cl -0.0078(8) 0.6118(5) 0.1478(5)
Cl11 Cl 0.0897(9) 0.5369(4) 0.1201(4)
C169 C 1.0173(12) 0.8808(7) 0.3810(7)
H198 H 0.9882 0.8543 0.3714
Cl12 Cl 0.9855(6) 0.9197(2) 0.3558(2)
Cl13 Cl 0.9940(7) 0.8835(2) 0.42933(18)
Cl14 Cl 1.1195(5) 0.8691(3) 0.3760(4)
C170 C 0.0511(17) 0.6327(6) 0.3802(5)
H199 H 0.0351 0.608 0.3636
H200 H 0.0624 0.6582 0.3638
Cl15 Cl 0.1374(4) 0.61898(17) 0.40427(15)
Cl16 Cl -0.0304(3) 0.64544(19) 0.4107(2)
loop_
_geom_bond_atom_site_label_1
_geom_bond_atom_site_label_2
_geom_bond_site_symmetry_1
_geom_bond_site_symmetry_2
Al1 O1 1_555 1_555
Al2 O3 1_555 1_555
O1 C1 1_555 1_555
O2 C1 1_555 1_555
O3 C7 1_555 1_555
O4 C7 1_555 1_555
N1 Al1 1_555 1_555
N2 Al1 1_555 1_555
N3 Al1 1_555 1_555
N4 Al1 1_555 1_555
N5 Al2 1_555 1_555
N6 Al2 1_555 1_555
N7 Al2 1_555 1_555
N8 Al2 1_555 1_555
C1 C2 1_555 1_555
C2 C3 1_555 1_555
C3 H1 1_555 1_555
C4 C3 1_555 1_555
H2 C4 1_555 1_555
N9 C4 1_555 1_555
C5 N9 1_555 1_555
H3 C5 1_555 1_555
C6 C2 1_555 1_555
H4 C6 1_555 1_555
C7 C8 1_555 1_555
C8 C9 1_555 1_555
C9 H5 1_555 1_555
C10 C9 1_555 1_555
H6 C10 1_555 1_555
N10 Al1 1_555 1_555
C11 N10 1_555 1_555
H7 C11 1_555 1_555
C12 C8 1_555 1_555
H8 C12 1_555 1_555
C13 N1 1_555 1_555
C14 C13 1_555 1_555
H9 C14 1_555 1_555
C15 C14 1_555 1_555
H10 C15 1_555 1_555
C16 N1 1_555 1_555
C17 C16 1_555 1_555
C18 N2 1_555 1_555
C19 C18 1_555 1_555
H11 C19 1_555 1_555
C20 C19 1_555 1_555
H12 C20 1_555 1_555
C21 N2 1_555 1_555
C22 C21 1_555 1_555
C23 N3 1_555 1_555
C24 C23 1_555 1_555
H13 C24 1_555 1_555
C25 C24 1_555 1_555
H14 C25 1_555 1_555
C26 N3 1_555 1_555
C27 C26 1_555 1_555
C28 N4 1_555 1_555
C29 C28 1_555 1_555
H15 C29 1_555 1_555
C30 C29 1_555 1_555
H16 C30 1_555 1_555
C31 N4 1_555 1_555
C32 C13 1_555 1_555
C33 C17 1_555 1_555
C34 C33 1_555 1_555
H17 C34 1_555 1_555
C35 C34 1_555 1_555
C36 C35 1_555 1_555
H18 C36 1_555 1_555
C37 C36 1_555 1_555
C38 C33 1_555 1_555
H19 C38 1_555 1_555
C39 C35 1_555 1_555
C40 C39 1_555 1_555
H20 C40 1_555 1_555
H21 C40 1_555 1_555
H22 C40 1_555 1_555
C41 C39 1_555 1_555
H23 C41 1_555 1_555
H24 C41 1_555 1_555
H25 C41 1_555 1_555
C42 C39 1_555 1_555
H26 C42 1_555 1_555
H27 C42 1_555 1_555
H28 C42 1_555 1_555
C43 C37 1_555 1_555
C44 C43 1_555 1_555
H29 C44 1_555 1_555
H30 C44 1_555 1_555
H31 C44 1_555 1_555
C45 C43 1_555 1_555
H32 C45 1_555 1_555
H33 C45 1_555 1_555
H34 C45 1_555 1_555
C46 C43 1_555 1_555
H35 C46 1_555 1_555
H36 C46 1_555 1_555
H37 C46 1_555 1_555
C47 C22 1_555 1_555
C48 C47 1_555 1_555
H38 C48 1_555 1_555
C49 C48 1_555 1_555
C50 C49 1_555 1_555
H39 C50 1_555 1_555
C51 C50 1_555 1_555
C52 C47 1_555 1_555
H40 C52 1_555 1_555
C53 C49 1_555 1_555
C54 C53 1_555 1_555
H41 C54 1_555 1_555
H42 C54 1_555 1_555
H43 C54 1_555 1_555
C55 C53 1_555 1_555
H44 C55 1_555 1_555
H45 C55 1_555 1_555
H46 C55 1_555 1_555
C56 C53 1_555 1_555
H47 C56 1_555 1_555
H48 C56 1_555 1_555
H49 C56 1_555 1_555
C57 C51 1_555 1_555
C58 C57 1_555 1_555
H50 C58 1_555 1_555
H51 C58 1_555 1_555
H52 C58 1_555 1_555
C59 C57 1_555 1_555
H53 C59 1_555 1_555
H54 C59 1_555 1_555
H55 C59 1_555 1_555
C60 C57 1_555 1_555
H56 C60 1_555 1_555
H57 C60 1_555 1_555
H58 C60 1_555 1_555
C61 C27 1_555 1_555
C62 C61 1_555 1_555
H59 C62 1_555 1_555
C63 C62 1_555 1_555
C64 C63 1_555 1_555
H60 C64 1_555 1_555
C65 C64 1_555 1_555
C66 C61 1_555 1_555
H61 C66 1_555 1_555
C67 C63 1_555 1_555
C68 C67 1_555 1_555
H62 C68 1_555 1_555
H63 C68 1_555 1_555
H64 C68 1_555 1_555
C69 C67 1_555 1_555
H65 C69 1_555 1_555
H66 C69 1_555 1_555
H67 C69 1_555 1_555
C70 C67 1_555 1_555
H68 C70 1_555 1_555
H69 C70 1_555 1_555
H70 C70 1_555 1_555
C71 C65 1_555 1_555
C72 C71 1_555 1_555
H71 C72 1_555 1_555
H72 C72 1_555 1_555
H73 C72 1_555 1_555
C73 C71 1_555 1_555
H74 C73 1_555 1_555
H75 C73 1_555 1_555
H76 C73 1_555 1_555
C74 C71 1_555 1_555
H77 C74 1_555 1_555
H78 C74 1_555 1_555
H79 C74 1_555 1_555
C75 C32 1_555 1_555
C76 C75 1_555 1_555
H80 C76 1_555 1_555
C77 C76 1_555 1_555
C78 C77 1_555 1_555
H81 C78 1_555 1_555
C79 C78 1_555 1_555
C80 C75 1_555 1_555
H82 C80 1_555 1_555
C81 C77 1_555 1_555
C82 C81 1_555 1_555
H83 C82 1_555 1_555
H84 C82 1_555 1_555
H85 C82 1_555 1_555
C83 C81 1_555 1_555
H86 C83 1_555 1_555
H87 C83 1_555 1_555
H88 C83 1_555 1_555
C84 C81 1_555 1_555
H89 C84 1_555 1_555
H90 C84 1_555 1_555
H91 C84 1_555 1_555
C85 C79 1_555 1_555
C86 C85 1_555 1_555
H92 C86 1_555 1_555
H93 C86 1_555 1_555
H94 C86 1_555 1_555
C87 C85 1_555 1_555
H95 C87 1_555 1_555
H96 C87 1_555 1_555
H97 C87 1_555 1_555
C88 C85 1_555 1_555
H98 C88 1_555 1_555
H99 C88 1_555 1_555
H100 C88 1_555 1_555
C89 N5 1_555 1_555
C90 C89 1_555 1_555
H101 C90 1_555 1_555
C91 C90 1_555 1_555
H102 C91 1_555 1_555
C92 N5 1_555 1_555
C93 C89 1_555 1_555
C94 N6 1_555 1_555
C95 C94 1_555 1_555
H103 C95 1_555 1_555
C96 C95 1_555 1_555
H104 C96 1_555 1_555
C97 N6 1_555 1_555
C98 C97 1_555 1_555
C99 N7 1_555 1_555
C100 C99 1_555 1_555
H105 C100 1_555 1_555
C101 C100 1_555 1_555
H106 C101 1_555 1_555
C102 N7 1_555 1_555
C103 C102 1_555 1_555
C104 N8 1_555 1_555
C105 C104 1_555 1_555
H107 C105 1_555 1_555
C106 C105 1_555 1_555
H108 C106 1_555 1_555
C107 N8 1_555 1_555
C108 C92 1_555 1_555
C109 C93 1_555 1_555
C110 C109 1_555 1_555
H109 C110 1_555 1_555
C111 C110 1_555 1_555
C112 C111 1_555 1_555
H110 C112 1_555 1_555
C113 C112 1_555 1_555
C114 C109 1_555 1_555
H111 C114 1_555 1_555
C115 C111 1_555 1_555
C116 C115 1_555 1_555
H112 C116 1_555 1_555
H113 C116 1_555 1_555
H114 C116 1_555 1_555
C117 C115 1_555 1_555
H115 C117 1_555 1_555
H116 C117 1_555 1_555
H117 C117 1_555 1_555
C118 C115 1_555 1_555
H118 C118 1_555 1_555
H119 C118 1_555 1_555
H120 C118 1_555 1_555
C119 C113 1_555 1_555
C120 C119 1_555 1_555
H121 C120 1_555 1_555
H122 C120 1_555 1_555
H123 C120 1_555 1_555
C121 C119 1_555 1_555
H124 C121 1_555 1_555
H125 C121 1_555 1_555
H126 C121 1_555 1_555
C122 C119 1_555 1_555
H127 C122 1_555 1_555
H128 C122 1_555 1_555
H129 C122 1_555 1_555
C123 C98 1_555 1_555
C124 C123 1_555 1_555
H130 C124 1_555 1_555
C125 C124 1_555 1_555
C126 C125 1_555 1_555
H131 C126 1_555 1_555
C127 C126 1_555 1_555
C128 C123 1_555 1_555
H132 C128 1_555 1_555
C129 C125 1_555 1_555
C130 C129 1_555 1_555
H133 C130 1_555 1_555
H134 C130 1_555 1_555
H135 C130 1_555 1_555
C131 C129 1_555 1_555
H136 C131 1_555 1_555
H137 C131 1_555 1_555
H138 C131 1_555 1_555
C132 C129 1_555 1_555
H139 C132 1_555 1_555
H140 C132 1_555 1_555
H141 C132 1_555 1_555
C133 C127 1_555 1_555
C134 C133 1_555 1_555
H142 C134 1_555 1_555
H143 C134 1_555 1_555
H144 C134 1_555 1_555
C135 C133 1_555 1_555
H145 C135 1_555 1_555
H146 C135 1_555 1_555
H147 C135 1_555 1_555
C136 C133 1_555 1_555
H148 C136 1_555 1_555
H149 C136 1_555 1_555
H150 C136 1_555 1_555
C137 C103 1_555 1_555
C138 C137 1_555 1_555
H151 C138 1_555 1_555
C139 C138 1_555 1_555
C140 C139 1_555 1_555
H152 C140 1_555 1_555
C141 C140 1_555 1_555
C142 C137 1_555 1_555
H153 C142 1_555 1_555
C143 C139 1_555 1_555
C144 C143 1_555 1_555
H154 C144 1_555 1_555
H155 C144 1_555 1_555
H156 C144 1_555 1_555
C145 C143 1_555 1_555
H157 C145 1_555 1_555
H158 C145 1_555 1_555
H159 C145 1_555 1_555
C146 C143 1_555 1_555
H160 C146 1_555 1_555
H161 C146 1_555 1_555
H162 C146 1_555 1_555
C147 C141 1_555 1_555
C148 C147 1_555 1_555
H163 C148 1_555 1_555
H164 C148 1_555 1_555
H165 C148 1_555 1_555
C149 C147 1_555 1_555
H166 C149 1_555 1_555
H167 C149 1_555 1_555
H168 C149 1_555 1_555
C150 C147 1_555 1_555
H169 C150 1_555 1_555
H170 C150 1_555 1_555
H171 C150 1_555 1_555
C151 C108 1_555 1_555
C152 C151 1_555 1_555
H172 C152 1_555 1_555
C153 C152 1_555 1_555
C154 C153 1_555 1_555
H173 C154 1_555 1_555
C155 C154 1_555 1_555
C156 C151 1_555 1_555
H174 C156 1_555 1_555
C157 C153 1_555 1_555
C158 C157 1_555 1_555
H175 C158 1_555 1_555
H176 C158 1_555 1_555
H177 C158 1_555 1_555
C159 C157 1_555 1_555
H178 C159 1_555 1_555
H179 C159 1_555 1_555
H180 C159 1_555 1_555
C160 C157 1_555 1_555
H181 C160 1_555 1_555
H182 C160 1_555 1_555
H183 C160 1_555 1_555
C161 C155 1_555 1_555
C162 C161 1_555 1_555
H184 C162 1_555 1_555
H185 C162 1_555 1_555
H186 C162 1_555 1_555
C163 C161 1_555 1_555
H187 C163 1_555 1_555
H188 C163 1_555 1_555
H189 C163 1_555 1_555
C164 C161 1_555 1_555
H190 C164 1_555 1_555
H191 C164 1_555 1_555
H192 C164 1_555 1_555
C165 H193 1_555 1_555
C166 H194 1_555 1_555
H195 C166 1_555 1_555
C167 H196 1_555 1_555
C168 H197 1_555 1_555
C169 H198 1_555 1_555
C170 H199 1_555 1_555
H200 C170 1_555 1_555
Cl1 C165 1_555 1_555
Cl2 C165 1_555 1_555
Cl3 C165 1_555 1_555
Cl4 C166 1_555 1_555
Cl5 C166 1_555 1_555
Cl6 C167 1_555 1_555
Cl7 C167 1_555 1_555
Cl8 C167 1_555 1_555
Cl9 C168 1_555 1_555
Cl10 C168 1_555 1_555
Cl11 C168 1_555 1_555
Cl12 C169 1_555 1_555
Cl13 C169 1_555 1_555
Cl14 C169 1_555 1_555
Cl15 C170 1_555 1_555
Cl16 C170 1_555 1_555
Al2C N9 1_555 1_555
N9C Al2 1_555 1_555
C5 C6 1_555 1_555
C10 N10 1_555 1_555
C11 C12 1_555 1_555
C15 C16 1_555 1_555
C17 C18 1_555 1_555
C20 C21 1_555 1_555
C22 C23 1_555 1_555
C25 C26 1_555 1_555
C27 C28 1_555 1_555
C30 C31 1_555 1_555
C31 C32 1_555 1_555
C37 C38 1_555 1_555
C51 C52 1_555 1_555
C65 C66 1_555 1_555
C79 C80 1_555 1_555
C91 C92 1_555 1_555
C93 C94 1_555 1_555
C96 C97 1_555 1_555
C98 C99 1_555 1_555
C101 C102 1_555 1_555
C103 C104 1_555 1_555
C106 C107 1_555 1_555
C107 C108 1_555 1_555
C113 C114 1_555 1_555
C127 C128 1_555 1_555
C141 C142 1_555 1_555
C155 C156 1_555 1_555

#END
