
#######################################################################
#
#                 Cambridge Crystallographic Data Centre
#                                CCDC 
#
#######################################################################
#
# If this CIF has been generated from an entry in the Cambridge 
# Structural Database, then it will include bibliographic, chemical, 
# crystal, experimental, refinement or atomic coordinate data resulting 
# from the CCDC's data processing and validation procedures.
#
#######################################################################

data_KOKSIO
_symmetry_cell_setting           monoclinic
_symmetry_space_group_name_H-M   'C c'
_symmetry_Int_Tables_number      9
_space_group_name_Hall           'C -2yc'
loop_
_symmetry_equiv_pos_site_id
_symmetry_equiv_pos_as_xyz
1 x,y,z
2 x,-y,1/2+z
3 1/2+x,1/2+y,z
4 1/2+x,1/2-y,1/2+z
_cell_length_a                   7.8256(12)
_cell_length_b                   22.331(2)
_cell_length_c                   8.9976(13)
_cell_angle_alpha                90
_cell_angle_beta                 110.040(16)
_cell_angle_gamma                90
_cell_volume                     1477.16
loop_
_atom_site_label
_atom_site_type_symbol
_atom_site_fract_x
_atom_site_fract_y
_atom_site_fract_z
Cu1 Cu 0.44720(19) 0.13211(4) 0.83884(18)
O1 O 0.3072(8) 0.1995(2) 1.2004(7)
O2 O 0.5973(10) 0.1326(3) 0.7054(9)
O3 O 0.7386(8) 0.0439(3) 0.7464(8)
N1 N 0.5958(11) 0.1988(3) 0.9695(9)
N2 N 0.7658(12) 0.2933(3) 1.1646(9)
N3 N 0.3109(12) 0.1421(4) 0.9844(11)
N4 N 0.3255(10) -0.0570(3) 1.2361(9)
C1 C 0.7378(15) 0.2255(5) 0.9510(12)
H1 H 0.7839 0.2120 0.8720
C2 C 0.8206(16) 0.2742(5) 1.0483(12)
H2 H 0.9191 0.2940 1.0304
C3 C 0.6208(15) 0.2647(4) 1.1831(13)
H3 H 0.5771 0.2774 1.2644
C4 C 0.5351(15) 0.2174(5) 1.0852(11)
C5 C 0.3707(11) 0.1848(3) 1.0932(10)
C6 C 0.1512(13) 0.1078(4) 0.9801(12)
H4 H 0.0774 0.0987 0.8689
H5 H 0.0757 0.1320 1.0262
C7 C 0.2058(11) 0.0497(3) 1.0721(11)
C8 C 0.1360(11) -0.0045(4) 1.0059(11)
H6 H 0.0425 -0.0061 0.9053
C9 C 0.2044(13) -0.0571(4) 1.0884(13)
H7 H 0.1638 -0.0944 1.0381
C10 C 0.3872(11) -0.0036(3) 1.3001(11)
H8 H 0.4747 -0.0028 1.4039
C11 C 0.3310(12) 0.0503(4) 1.2239(10)
H9 H 0.3775 0.0871 1.2748
C12 C 0.6927(13) 0.0907(5) 0.6705(13)
C13 C 0.7531(12) 0.1058(4) 0.5323(10)
H10 H 0.7724 0.0687 0.4820
H11 H 0.8669 0.1285 0.5701
H12 H 0.6591 0.1298 0.4552
Cu1A Cu 0.44720(19) -0.13211(4) 1.33884(18)
Cu1C Cu 0.94720(19) 0.36789(4) 1.33884(18)
N2C N 0.2658(12) 0.2067(3) 0.6646(9)
N4A N 0.3255(10) 0.0570(3) 0.7361(9)
O4 O 0.7662(12) 0.0650(3) 0.0791(10)
H13 H 0.764(17) 0.042(4) 0.151(8)
H14 H 0.752(15) 0.044(4) -0.002(7)
O5 O 0.9960(9) 0.1546(3) 0.2989(8)
H15 H 0.925(10) 0.134(4) 0.222(8)
H16 H 1.072(10) 0.169(4) 0.261(10)
loop_
_geom_bond_atom_site_label_1
_geom_bond_atom_site_label_2
_geom_bond_site_symmetry_1
_geom_bond_site_symmetry_2
Cu1 O2 1_555 1_555
O1 C5 1_555 1_555
O2 C12 1_555 1_555
O3 C12 1_555 1_555
N1 Cu1 1_555 1_555
N2 C2 1_555 1_555
N3 Cu1 1_555 1_555
N4 C9 1_555 1_555
C1 N1 1_555 1_555
H1 C1 1_555 1_555
C2 C1 1_555 1_555
H2 C2 1_555 1_555
C3 N2 1_555 1_555
H3 C3 1_555 1_555
C4 N1 1_555 1_555
C5 N3 1_555 1_555
C6 N3 1_555 1_555
H4 C6 1_555 1_555
H5 C6 1_555 1_555
C7 C6 1_555 1_555
C8 C7 1_555 1_555
H6 C8 1_555 1_555
C9 C8 1_555 1_555
H7 C9 1_555 1_555
C10 N4 1_555 1_555
H8 C10 1_555 1_555
C11 C7 1_555 1_555
H9 C11 1_555 1_555
C12 C13 1_555 1_555
C13 H10 1_555 1_555
H11 C13 1_555 1_555
H12 C13 1_555 1_555
O4 H13 1_555 1_555
H14 O4 1_555 1_555
O5 H15 1_555 1_555
H16 O5 1_555 1_555
Cu1A N4 1_555 1_555
Cu1C N2 1_555 1_555
N2C Cu1 1_555 1_555
N4A Cu1 1_555 1_555
C3 C4 1_555 1_555
C4 C5 1_555 1_555
C10 C11 1_555 1_555

#END
