
#######################################################################
#
#                 Cambridge Crystallographic Data Centre
#                                CCDC 
#
#######################################################################
#
# If this CIF has been generated from an entry in the Cambridge 
# Structural Database, then it will include bibliographic, chemical, 
# crystal, experimental, refinement or atomic coordinate data resulting 
# from the CCDC's data processing and validation procedures.
#
#######################################################################

data_KOKZIT
_symmetry_cell_setting           triclinic
_symmetry_space_group_name_H-M   'P -1'
_symmetry_Int_Tables_number      2
_space_group_name_Hall           '-P 1'
loop_
_symmetry_equiv_pos_site_id
_symmetry_equiv_pos_as_xyz
1 x,y,z
2 -x,-y,-z
_cell_length_a                   11.801(4)
_cell_length_b                   12.973(3)
_cell_length_c                   15.856(5)
_cell_angle_alpha                98.15(2)
_cell_angle_beta                 108.39(2)
_cell_angle_gamma                100.91(2)
_cell_volume                     2208.35
loop_
_atom_site_label
_atom_site_type_symbol
_atom_site_fract_x
_atom_site_fract_y
_atom_site_fract_z
K1 K -0.2736(3) 0.3557(2) -0.0840(2)
K2 K 0.0586(3) -0.1489(2) 0.1852(2)
K3 K -0.1896(3) 0.8372(2) -0.3290(3)
K4 K 0.4226(3) 0.7008(2) 0.5498(2)
K5 K 0.4334(3) 0.3731(2) 0.0357(2)
O22 O 0.0405(8) 0.9714(7) -0.2252(6)
O23 O 0.0709(10) 0.6078(8) 0.5391(7)
O24 O 0.1985(8) 0.2270(7) 0.8159(6)
O25 O 0.3237(12) 0.7856(11) 0.2603(9)
O26 O 0.1426(13) 0.7119(12) 0.4185(9)
O27 O 0.413(2) 0.757(1) 0.993(1)
O28 O 0.304(2) 0.814(1) 0.826(1)
O30 O 0.387(2) 0.653(2) 0.789(2)
O31 O 0.401(2) 1.032(2) 0.876(2)
O32 O 0.452(3) 0.106(2) 0.467(2)
O33 O 0.135(2) 0.094(2) 0.476(2)
O34 O 0.143(2) 0.885(2) -0.369(2)
O35 O 0.027(3) 0.156(2) 0.633(2)
O36 O 0.279(3) 0.969(3) 0.341(2)
O37 O 0.188(4) 0.112(4) 0.654(3)
O38 O 0.293(5) 0.878(4) 0.517(3)
O39 O 0.579(6) 0.883(5) 0.266(4)
Bi1 Bi 0.36085(3) 0.45993(3) 0.30491(2)
Bi2 Bi -0.05684(3) 0.68732(3) -0.06916(2)
C1 C 0.2895(8) 0.4363(8) 0.4633(6)
C2 C 0.2567(8) 0.4040(8) 0.5417(6)
C3 C 0.3729(8) 0.4178(8) 0.6243(6)
C4 C 0.3366(8) 0.4001(8) 0.7068(6)
C5 C 0.4416(9) 0.4161(9) 0.7963(7)
C6 C 0.4387(9) 0.3315(8) 0.6038(7)
O1 O 0.3522(7) 0.3863(5) 0.4314(4)
O2 O 0.2519(7) 0.5112(6) 0.4313(4)
O3 O 0.4458(5) 0.5236(5) 0.6409(4)
O4 O 0.5502(7) 0.4453(6) 0.7991(4)
O5 O 0.4155(7) 0.3995(7) 0.8631(5)
O6 O 0.3836(8) 0.2363(6) 0.5843(7)
O7 O 0.5525(7) 0.3622(5) 0.6136(5)
C7 C -0.1242(9) 0.5869(7) 0.0719(6)
C8 C -0.1184(8) 0.5459(7) 0.1588(6)
C9 C -0.0358(8) 0.4662(7) 0.1751(6)
C10 C -0.0426(9) 0.4199(8) 0.2558(6)
C11 C 0.0301(9) 0.3369(7) 0.2793(6)
C12 C 0.0989(8) 0.5286(7) 0.1955(6)
O8 O -0.0204(7) 0.6329(5) 0.0677(4)
O9 O -0.2235(7) 0.5728(6) 0.0104(4)
O10 O -0.0793(5) 0.3839(5) 0.0958(4)
O11 O 0.1044(6) 0.3202(5) 0.2393(4)
O12 O 0.0214(7) 0.2920(5) 0.3425(5)
O13 O 0.1473(7) 0.6079(5) 0.2575(4)
O14 O 0.1545(6) 0.4909(5) 0.1456(4)
C13 C 0.3579(8) 0.2464(7) 0.2011(6)
C14 C 0.3724(8) 0.1385(7) 0.1625(6)
C15 C 0.2524(8) 0.0664(7) 0.0896(6)
C16 C 0.2787(9) -0.0429(7) 0.0589(6)
C17 C 0.1628(9) -0.1276(7) 0.0029(6)
C18 C 0.2113(9) 0.1195(7) 0.0044(6)
O15 O 0.3882(7) 0.2747(5) 0.2857(4)
O16 O 0.3174(7) 0.3062(5) 0.1476(4)
O17 O 0.1596(6) 0.0540(5) 0.1276(4)
O18 O 0.1004(7) -0.1238(5) -0.0748(5)
O19 O 0.1315(6) -0.2041(5) 0.0396(4)
O20 O 0.2890(7) 0.1429(5) -0.0321(4)
O21 O 0.1044(7) 0.1304(5) -0.0194(4)
H1 H 0.2068(8) 0.4474(8) 0.5573(6)
H2 H 0.2123(8) 0.3306(8) 0.5240(6)
H3 H 0.2872(8) 0.4478(8) 0.7151(6)
H4 H 0.2879(8) 0.3285(8) 0.6932(6)
H5 H -0.1993(8) 0.5092(7) 0.1526(6)
H6 H -0.0883(8) 0.6054(7) 0.2092(6)
H7 H -0.1267(9) 0.3871(8) 0.2441(6)
H8 H -0.0146(9) 0.4776(8) 0.3075(6)
H9 H 0.4336(8) 0.1505(7) 0.1354(6)
H10 H 0.3990(8) 0.1023(7) 0.2104(6)
H11 H 0.3299(9) -0.0334(7) 0.0234(6)
H12 H 0.3202(9) -0.0667(7) 0.1114(6)
O3A O 0.5542(5) 0.4764(5) 0.3591(4)
O4A O 0.4498(7) 0.5547(6) 0.2009(4)
O7A O 0.4475(7) 0.6378(5) 0.3864(5)
O10A O 0.0793(5) 0.6161(5) -0.0958(4)
O11A O -0.1044(6) 0.6798(5) -0.2393(4)
O14A O -0.1545(6) 0.5091(5) -0.1456(4)
O16A O -0.3174(7) 0.6938(5) -0.1476(4)
O18_2 O 0.1004(7) 0.8762(5) -0.0748(5)
O19_2 O 0.1315(6) 0.7959(5) 0.0396(4)
O21A O -0.1044(7) 0.8696(5) 0.0194(4)
Bi1A Bi 0.63915(3) 0.54007(3) 0.69509(2)
Bi2A Bi 0.05684(3) 0.31268(3) 0.06916(2)
Bi2_2 Bi -0.05684(3) -0.31268(3) -0.06916(2)
O29? O 0.312(2) 0.689(2) 0.675(1)
O40? O 0.330(3) 0.712(3) 0.929(2)
loop_
_geom_bond_atom_site_label_1
_geom_bond_atom_site_label_2
_geom_bond_site_symmetry_1
_geom_bond_site_symmetry_2
Bi1 O1 1_555 1_555
Bi2 O8 1_555 1_555
C1 C2 1_555 1_555
C2 C3 1_555 1_555
C3 C4 1_555 1_555
C4 C5 1_555 1_555
C5 O4 1_555 1_555
C6 C3 1_555 1_555
O1 C1 1_555 1_555
O2 Bi1 1_555 1_555
O3 C3 1_555 1_555
O4 Bi1A 1_555 1_555
O5 C5 1_555 1_555
O6 C6 1_555 1_555
O7 C6 1_555 1_555
C7 C8 1_555 1_555
C8 C9 1_555 1_555
C9 C10 1_555 1_555
C10 C11 1_555 1_555
C11 O11 1_555 1_555
C12 C9 1_555 1_555
O8 C7 1_555 1_555
O9 Bi2 1_555 1_555
O10 C9 1_555 1_555
O11 Bi1 1_555 1_555
O12 C11 1_555 1_555
O13 C12 1_555 1_555
O14 Bi1 1_555 1_555
C13 C14 1_555 1_555
C14 C15 1_555 1_555
C15 C16 1_555 1_555
C16 C17 1_555 1_555
C17 O18 1_555 1_555
C18 C15 1_555 1_555
O15 Bi1 1_555 1_555
O16 Bi1 1_555 1_555
O17 C15 1_555 1_555
O18 Bi2_2 1_555 1_555
O19 C17 1_555 1_555
O20 C18 1_555 1_555
O21 C18 1_555 1_555
H1 C2 1_555 1_555
H2 C2 1_555 1_555
H3 C4 1_555 1_555
H4 C4 1_555 1_555
H5 C8 1_555 1_555
H6 C8 1_555 1_555
H7 C10 1_555 1_555
H8 C10 1_555 1_555
H9 C14 1_555 1_555
H10 C14 1_555 1_555
H11 C16 1_555 1_555
H12 C16 1_555 1_555
O3A Bi1 1_555 1_555
O4A Bi1 1_555 1_555
O7A Bi1 1_555 1_555
O10A Bi2 1_555 1_555
O11A Bi2 1_555 1_555
O14A Bi2 1_555 1_555
O16A Bi2 1_555 1_555
O18_2 Bi2 1_555 1_555
O19_2 Bi2 1_555 1_555
O21A Bi2 1_555 1_555
Bi1A O3 1_555 1_555
Bi2A O10 1_555 1_555
Bi2_2 O19 1_555 1_555
C1 O2 1_555 1_555
O7 Bi1A 1_555 1_555
C7 O9 1_555 1_555
C12 O14 1_555 1_555
O11 Bi2A 1_555 1_555
O14 Bi2A 1_555 1_555
C13 O15 1_555 1_555
C13 O16 1_555 1_555
O16 Bi2A 1_555 1_555
O21 Bi2A 1_555 1_555

#END
