
#######################################################################
#
#                 Cambridge Crystallographic Data Centre
#                                CCDC 
#
#######################################################################
#
# If this CIF has been generated from an entry in the Cambridge 
# Structural Database, then it will include bibliographic, chemical, 
# crystal, experimental, refinement or atomic coordinate data resulting 
# from the CCDC's data processing and validation procedures.
#
#######################################################################

data_KOLFUM
_symmetry_cell_setting           monoclinic
_symmetry_space_group_name_H-M   'P 21/n'
_symmetry_Int_Tables_number      14
_space_group_name_Hall           '-P 2yn'
loop_
_symmetry_equiv_pos_site_id
_symmetry_equiv_pos_as_xyz
1 x,y,z
2 1/2-x,1/2+y,1/2-z
3 -x,-y,-z
4 1/2+x,1/2-y,1/2+z
_cell_length_a                   13.653(8)
_cell_length_b                   9.288(3)
_cell_length_c                   11.232(3)
_cell_angle_alpha                90
_cell_angle_beta                 96.89(3)
_cell_angle_gamma                90
_cell_volume                     1414.03
loop_
_atom_site_label
_atom_site_type_symbol
_atom_site_fract_x
_atom_site_fract_y
_atom_site_fract_z
Cu1 Cu 0.4492(1) 0.1949(1) 0.7424(1)
C1 C 0.4053(5) 0.4701(8) 0.8404(6)
C2 C 0.4313(5) 0.6106(8) 0.8772(7)
C3 C 0.5247(6) 0.6597(8) 0.8729(7)
C4 C 0.5907(5) 0.5701(9) 0.8322(7)
C5 C 0.5644(5) 0.4358(9) 0.7970(7)
C6 C 0.1298(5) 0.4282(7) 0.8653(6)
C7 C 0.1167(5) 0.2981(9) 0.9203(7)
C8 C 0.0261(6) 0.2508(8) 0.9342(7)
C9 C -0.0538(5) 0.3309(8) 0.8978(7)
C10 C -0.0386(5) 0.4587(9) 0.8447(7)
C11 C 0.3087(5) 0.4111(7) 0.8493(7)
C12 C 0.2257(5) 0.4870(7) 0.8512(7)
N1 N 0.4738(4) 0.3824(7) 0.8010(5)
N2 N 0.4492(4) 0.0109(6) 0.6706(5)
H1 H 0.382(4) 0.663(6) 0.903(5)
H2 H 0.532(4) 0.755(6) 0.904(5)
H3 H 0.646(4) 0.601(6) 0.818(5)
H4 H 0.600(4) 0.386(6) 0.774(5)
H5 H 0.169(3) 0.252(4) 0.930(4)
H6 H 0.027(4) 0.174(7) 0.982(5)
H7 H -0.115(4) 0.288(6) 0.907(5)
H8 H -0.086(4) 0.513(6) 0.821(5)
H9 H 0.296(3) 0.313(5) 0.859(4)
H10 H 0.226(4) 0.582(6) 0.849(5)
N2A N 0.0508(4) 0.5109(6) 0.8294(5)
C6A C 0.3702(5) -0.0718(7) 0.6347(6)
C10A C 0.5386(5) -0.0413(9) 0.6553(7)
Cu1A Cu 0.0508(1) 0.6949(1) 0.7576(1)
C7A C 0.3833(5) -0.2019(9) 0.5797(7)
C12A C 0.2743(5) -0.0130(7) 0.6488(7)
C9A C 0.5538(5) -0.1691(8) 0.6022(7)
H8A H 0.586(4) 0.013(6) 0.679(5)
N1A N 0.0262(4) 0.8824(7) 0.6990(5)
C8A C 0.4739(6) -0.2492(8) 0.5658(7)
H5A H 0.331(3) -0.248(4) 0.570(4)
C11A C 0.1913(5) -0.0889(7) 0.6507(7)
H10A H 0.274(4) 0.082(6) 0.651(5)
H7A H 0.615(4) -0.212(6) 0.593(5)
H6A H 0.473(4) -0.326(7) 0.518(5)
C1A C 0.0947(5) -0.0299(8) 0.6596(6)
H9A H 0.204(3) -0.187(5) 0.641(4)
C2A C 0.0687(5) 0.1106(8) 0.6228(7)
N1A_2 N 0.0262(4) -0.1176(7) 0.6990(5)
C3A C -0.0247(6) 0.1597(8) 0.6271(7)
H1A H 0.118(4) 0.163(6) 0.597(5)
Cu1A_2 Cu 0.0508(1) -0.3051(1) 0.7576(1)
C5A C -0.0644(5) -0.0642(9) 0.7030(7)
C4A C -0.0907(5) 0.0701(9) 0.6678(7)
H2A H -0.032(4) 0.255(6) 0.596(5)
H4A H -0.100(4) -0.114(6) 0.726(5)
H3A H -0.146(4) 0.101(6) 0.682(5)
P1 P 0.7182(2) 0.0477(2) 0.9552(2)
F1 F 0.7392(4) 0.1908(7) 1.0261(7)
F2 F 0.7016(4) -0.0950(6) 0.8829(6)
F3 F 0.8330(3) 0.0206(5) 0.9679(5)
F4 F 0.6043(3) 0.0763(6) 0.9371(5)
F5 F 0.7264(4) 0.1332(6) 0.8359(5)
F6 F 0.7094(4) -0.0421(7) 1.0710(5)
loop_
_geom_bond_atom_site_label_1
_geom_bond_atom_site_label_2
_geom_bond_site_symmetry_1
_geom_bond_site_symmetry_2
Cu1 N1 1_555 1_555
P1 F1 1_555 1_555
F2 P1 1_555 1_555
F3 P1 1_555 1_555
F4 P1 1_555 1_555
F5 P1 1_555 1_555
F6 P1 1_555 1_555
C1 C2 1_555 1_555
C2 C3 1_555 1_555
C3 C4 1_555 1_555
C4 C5 1_555 1_555
C5 N1 1_555 1_555
C6 C7 1_555 1_555
C7 C8 1_555 1_555
C8 C9 1_555 1_555
C9 C10 1_555 1_555
C10 H8 1_555 1_555
C11 C1 1_555 1_555
C12 C6 1_555 1_555
N1 C1 1_555 1_555
N2 Cu1 1_555 1_555
H1 C2 1_555 1_555
H2 C3 1_555 1_555
H3 C4 1_555 1_555
H4 C5 1_555 1_555
H5 C7 1_555 1_555
H6 C8 1_555 1_555
H7 C9 1_555 1_555
H9 C11 1_555 1_555
H10 C12 1_555 1_555
N2A C6 1_555 1_555
C6A N2 1_555 1_555
C10A N2 1_555 1_555
Cu1A N2A 1_555 1_555
C7A C6A 1_555 1_555
C12A C6A 1_555 1_555
C9A C10A 1_555 1_555
H8A C10A 1_555 1_555
N1A Cu1A 1_555 1_555
C8A C7A 1_555 1_555
H5A C7A 1_555 1_555
C11A C12A 1_555 1_555
H10A C12A 1_555 1_555
H7A C9A 1_555 1_555
H6A C8A 1_555 1_555
C1A C11A 1_555 1_555
H9A C11A 1_555 1_555
C2A C1A 1_555 1_555
N1A_2 C1A 1_555 1_555
C3A C2A 1_555 1_555
H1A C2A 1_555 1_555
Cu1A_2 N1A_2 1_555 1_555
C5A N1A_2 1_555 1_555
C4A C3A 1_555 1_555
H2A C3A 1_555 1_555
H4A C5A 1_555 1_555
H3A C4A 1_555 1_555
C10 N2A 1_555 1_555
C11 C12 1_555 1_555
C9A C8A 1_555 1_555
C5A C4A 1_555 1_555

#END
