
#######################################################################
#
#                 Cambridge Crystallographic Data Centre
#                                CCDC 
#
#######################################################################
#
# If this CIF has been generated from an entry in the Cambridge 
# Structural Database, then it will include bibliographic, chemical, 
# crystal, experimental, refinement or atomic coordinate data resulting 
# from the CCDC's data processing and validation procedures.
#
#######################################################################

data_KOLGAT
_symmetry_cell_setting           triclinic
_symmetry_space_group_name_H-M   'P -1'
_symmetry_Int_Tables_number      2
_space_group_name_Hall           '-P 1'
loop_
_symmetry_equiv_pos_site_id
_symmetry_equiv_pos_as_xyz
1 x,y,z
2 -x,-y,-z
_cell_length_a                   7.569(1)
_cell_length_b                   13.253(5)
_cell_length_c                   6.757(1)
_cell_angle_alpha                92.24(3)
_cell_angle_beta                 104.05(1)
_cell_angle_gamma                78.41(3)
_cell_volume                     644.09
loop_
_atom_site_label
_atom_site_type_symbol
_atom_site_fract_x
_atom_site_fract_y
_atom_site_fract_z
Ag1 Ag 0.6853 0.2780 0.3975
C1 C 0.7410(3) 0.0365(2) 0.3660(4)
C2 C 0.6794(3) -0.0552(2) 0.3193(4)
C3 C 0.4950(4) -0.0560(2) 0.2388(4)
C4 C 0.3720(3) 0.0373(2) 0.2002(4)
C5 C 0.4396(3) 0.1260(2) 0.2428(4)
C6 C 0.6468(3) 0.5072(2) 0.2728(4)
C7 C 0.6840(4) 0.6067(2) 0.2987(5)
C8 C 0.7737(4) 0.6368(2) 0.4874(5)
C9 C 0.8249(4) 0.5676(2) 0.6491(5)
C10 C 0.7892(4) 0.4711(2) 0.6138(4)
C11 C 0.9349(3) 0.0401(2) 0.4604(4)
C12 C 0.5476(4) 0.4708(2) 0.0795(4)
N1 N 0.6198(3) 0.1276(2) 0.3264(3)
N2 N 0.7034(3) 0.4391(2) 0.4305(3)
H1 H 0.749(5) -0.111(3) 0.337(6)
H2 H 0.462(4) -0.120(2) 0.217(5)
H3 H 0.246(5) 0.036(3) 0.146(6)
H4 H 0.361(5) 0.189(3) 0.213(6)
H5 H 0.636(4) 0.657(3) 0.184(5)
H6 H 0.799(4) 0.703(2) 0.520(5)
H7 H 0.874(4) 0.587(3) 0.779(5)
H8 H 0.813(5) 0.425(3) 0.705(5)
H9 H 0.961(4) 0.102(3) 0.461(5)
H10 H 0.556(5) 0.405(3) 0.068(5)
C11A C 1.0651(3) -0.0401(2) 0.5396(4)
C12A C 0.4524(4) 0.5292(2) -0.0795(4)
C1A C 1.2590(3) -0.0365(2) 0.6340(4)
H9A H 1.039(4) -0.102(3) 0.539(5)
C6A C 0.3532(3) 0.4928(2) -0.2728(4)
H10A H 0.444(5) 0.595(3) -0.068(5)
C2A C 1.3206(3) 0.0552(2) 0.6807(4)
N1A N 1.3802(3) -0.1276(2) 0.6736(3)
C7A C 0.3160(4) 0.3933(2) -0.2987(5)
N2A N 0.2966(3) 0.5609(2) -0.4305(3)
C3A C 1.5050(4) 0.0560(2) 0.7612(4)
H1A H 1.251(5) 0.111(3) 0.663(6)
Ag1A Ag 1.3147 -0.2780 0.6025
C5A C 1.5604(3) -0.1260(2) 0.7572(4)
C8A C 0.2263(4) 0.3632(2) -0.4874(5)
H5A H 0.364(4) 0.343(3) -0.184(5)
Ag1A_2 Ag 0.3147 0.7220 -0.3975
C10A C 0.2108(4) 0.5289(2) -0.6138(4)
C4A C 1.6280(3) -0.0373(2) 0.7998(4)
H2A H 1.538(4) 0.120(2) 0.783(5)
N2A_2 N 1.2966(3) -0.4391(2) 0.5695(3)
H4A H 1.639(5) -0.189(3) 0.787(6)
C9A C 0.1751(4) 0.4324(2) -0.6491(5)
H6A H 0.201(4) 0.297(2) -0.520(5)
H8A H 0.187(5) 0.575(3) -0.705(5)
H3A H 1.754(5) -0.036(3) 0.854(6)
H7A H 0.126(4) 0.413(3) -0.779(5)
Cl1 Cl 0.9092(1) 0.2221 0.9497(1)
O1 O 0.9289(4) 0.1136(2) 0.9542(5)
O2 O 0.7232(3) 0.2668(2) 0.8436(5)
O3 O 1.0379(4) 0.2511(3) 0.8525(6)
O4 O 0.9449(5) 0.2594(3) 1.1518(5)
loop_
_geom_bond_atom_site_label_1
_geom_bond_atom_site_label_2
_geom_bond_site_symmetry_1
_geom_bond_site_symmetry_2
Ag1 N1 1_555 1_555
Cl1 O1 1_555 1_555
O2 Cl1 1_555 1_555
O3 Cl1 1_555 1_555
O4 Cl1 1_555 1_555
C1 C2 1_555 1_555
C2 C3 1_555 1_555
C3 C4 1_555 1_555
C4 C5 1_555 1_555
C5 N1 1_555 1_555
C6 C7 1_555 1_555
C7 C8 1_555 1_555
C8 C9 1_555 1_555
C9 C10 1_555 1_555
C10 N2 1_555 1_555
C11 C1 1_555 1_555
C12 C6 1_555 1_555
N1 C1 1_555 1_555
N2 Ag1 1_555 1_555
H1 C2 1_555 1_555
H2 C3 1_555 1_555
H3 C4 1_555 1_555
H4 C5 1_555 1_555
H5 C7 1_555 1_555
H6 C8 1_555 1_555
H7 C9 1_555 1_555
H8 C10 1_555 1_555
H9 C11 1_555 1_555
H10 C12 1_555 1_555
C11A C11 1_555 1_555
C12A C12 1_555 1_555
C1A C11A 1_555 1_555
H9A C11A 1_555 1_555
C6A C12A 1_555 1_555
H10A C12A 1_555 1_555
C2A C1A 1_555 1_555
N1A C1A 1_555 1_555
C7A C6A 1_555 1_555
N2A C6A 1_555 1_555
C3A C2A 1_555 1_555
H1A C2A 1_555 1_555
Ag1A N1A 1_555 1_555
C5A N1A 1_555 1_555
C8A C7A 1_555 1_555
H5A C7A 1_555 1_555
Ag1A_2 N2A 1_555 1_555
C10A N2A 1_555 1_555
C4A C3A 1_555 1_555
H2A C3A 1_555 1_555
N2A_2 Ag1A 1_555 1_555
H4A C5A 1_555 1_555
C9A C8A 1_555 1_555
H6A C8A 1_555 1_555
H8A C10A 1_555 1_555
H3A C4A 1_555 1_555
H7A C9A 1_555 1_555
C6 N2 1_555 1_555
C5A C4A 1_555 1_555
C10A C9A 1_555 1_555

#END
