
#######################################################################
#
#                 Cambridge Crystallographic Data Centre
#                                CCDC 
#
#######################################################################
#
# If this CIF has been generated from an entry in the Cambridge 
# Structural Database, then it will include bibliographic, chemical, 
# crystal, experimental, refinement or atomic coordinate data resulting 
# from the CCDC's data processing and validation procedures.
#
#######################################################################

data_KOLHUQ
_symmetry_cell_setting           triclinic
_symmetry_space_group_name_H-M   'P -1'
_symmetry_Int_Tables_number      2
_space_group_name_Hall           '-P 1'
loop_
_symmetry_equiv_pos_site_id
_symmetry_equiv_pos_as_xyz
1 x,y,z
2 -x,-y,-z
_cell_length_a                   8.5563(2)
_cell_length_b                   8.8685(1)
_cell_length_c                   11.7221(2)
_cell_angle_alpha                85.451(3)
_cell_angle_beta                 88.012(3)
_cell_angle_gamma                63.791(3)
_cell_volume                     795.528
loop_
_atom_site_label
_atom_site_type_symbol
_atom_site_fract_x
_atom_site_fract_y
_atom_site_fract_z
Eu1 Eu 0.60260(2) 0.63791(2) 0.916910(18)
Co1 Co 0.5000 0.5000 0.5000
C1 C -0.0670(5) 0.9432(5) 0.8849(4)
H1 H -0.1169 0.9291 0.9542
C2 C 0.0918(5) 0.8159(5) 0.8519(3)
C3 C 0.1649(5) 0.8350(5) 0.7477(3)
C4 C 0.0765(5) 0.9811(5) 0.6769(4)
H2 H 0.1239 0.9933 0.6061
C5 C -0.0801(5) 1.1080(5) 0.7098(4)
C6 C -0.1516(5) 1.0906(5) 0.8158(3)
C7 C 0.1829(5) 0.6631(5) 0.9310(3)
C8 C 0.3353(5) 0.7062(5) 0.7035(3)
C9 C -0.1713(5) 1.2615(5) 0.6283(4)
C10 C -0.3069(5) 1.2351(5) 0.8639(3)
O1 O 0.3488(3) 0.5777(3) 0.9214(2)
O2 O 0.1023(4) 0.6180(4) 1.0050(3)
O3 O 0.5311(5) 0.9318(4) 0.8602(3)
O4 O 0.4709(4) 0.7186(4) 0.7293(2)
O5 O 0.8397(5) 0.6288(5) 0.7948(3)
O6 O 0.3294(4) 0.6037(4) 0.6384(3)
O7 O 0.7581(4) 0.7254(4) 1.0474(3)
O8 O -0.0879(4) 1.3424(4) 0.5938(3)
O9 O 0.3508(4) 0.3686(4) 0.4748(3)
O10 O -0.3216(4) 1.2906(4) 0.5977(3)
O11 O -0.3252(4) 1.3798(3) 0.8318(2)
O12 O -0.4000(4) 1.1999(4) 0.9375(3)
Eu1A Eu -0.60260(2) 1.36209(2) 0.083090(18)
C1A C 0.0670(5) 1.0568(5) 0.1151(4)
H1A H 0.1169 1.0709 0.0458
C2A C -0.0918(5) 1.1841(5) 0.1481(3)
C3A C -0.1649(5) 1.1650(5) 0.2523(3)
C4A C -0.0765(5) 1.0189(5) 0.3231(4)
H2A H -0.1239 1.0067 0.3939
C5A C 0.0801(5) 0.8920(5) 0.2902(4)
C6A C 0.1516(5) 0.9094(5) 0.1842(3)
C7A C -0.1829(5) 1.3369(5) 0.0690(3)
C8A C -0.3353(5) 1.2938(5) 0.2965(3)
C9A C 0.1713(5) 0.7385(5) 0.3717(4)
C10A C 0.3069(5) 0.7649(5) 0.1361(3)
O1A O -0.3488(3) 1.4223(3) 0.0786(2)
O2A O -0.1023(4) 1.3820(4) -0.0050(3)
O3A O -0.5311(5) 1.0682(4) 0.1398(3)
O4A O -0.4709(4) 1.2814(4) 0.2707(2)
O5A O -0.8397(5) 1.3712(5) 0.2052(3)
O6A O -0.3294(4) 1.3963(4) 0.3616(3)
O7A O -0.7581(4) 1.2746(4) -0.0474(3)
O8A O 0.0879(4) 0.6576(4) 0.4062(3)
O10A O 0.3216(4) 0.7094(4) 0.4023(3)
O11A O 0.3252(4) 0.6202(3) 0.1682(2)
O12A O 0.4000(4) 0.8001(4) 0.0625(3)
O9A O 0.6492(4) 0.6314(4) 0.5252(3)
Eu1_2 Eu -0.39740(2) 1.63791(2) -0.083090(18)
Eu1_3 Eu -0.39740(2) 1.63791(2) 0.916910(18)
Eu1_4 Eu 0.60260(2) 0.63791(2) -0.083090(18)
Eu1A_2 Eu -0.60260(2) 1.36209(2) 1.083090(18)
Eu1A_3 Eu 0.39740(2) 0.36209(2) 0.083090(18)
Eu1A_4 Eu 0.39740(2) 0.36209(2) 1.083090(18)
Co1_2 Co -0.5000 1.5000 0.5000
O1_2 O -0.6512(3) 1.5777(3) -0.0786(2)
O1A_2 O 0.6512(3) 0.4223(3) 1.0786(2)
O2_2 O -0.8977(4) 1.6180(4) 0.0050(3)
O2A_2 O 0.8977(4) 0.3820(4) 0.9950(3)
O6A_2 O 0.6706(4) 0.3963(4) 0.3616(3)
O10_2 O 0.6784(4) 0.2906(4) 0.5977(3)
O11_2 O 0.6748(4) 0.3798(3) 0.8318(2)
O11A_2 O -0.6748(4) 1.6202(3) 0.1682(2)
O12_2 O -0.4000(4) 1.1999(4) -0.0625(3)
O12A_2 O 0.4000(4) 0.8001(4) 1.0625(3)
O13 O 0.1642(8) 0.3813(9) 0.7212(4)
O14 O 0.5480(12) 0.0397(10) 0.6268(6)
O15 O 0.8698(12) 0.7905(11) 0.6030(7)
loop_
_geom_bond_atom_site_label_1
_geom_bond_atom_site_label_2
_geom_bond_site_symmetry_1
_geom_bond_site_symmetry_2
Eu1 O1 1_555 1_555
Co1 O6 1_555 1_555
C1 H1 1_555 1_555
C2 C1 1_555 1_555
C3 C2 1_555 1_555
C4 C3 1_555 1_555
H2 C4 1_555 1_555
C5 C4 1_555 1_555
C6 C1 1_555 1_555
C7 C2 1_555 1_555
C8 C3 1_555 1_555
C9 C5 1_555 1_555
C10 C6 1_555 1_555
O1 C7 1_555 1_555
O2 C7 1_555 1_555
O3 Eu1 1_555 1_555
O4 Eu1 1_555 1_555
O5 Eu1 1_555 1_555
O6 C8 1_555 1_555
O7 Eu1 1_555 1_555
O8 C9 1_555 1_555
O9 Co1 1_555 1_555
O10 C9 1_555 1_555
O11 C10 1_555 1_555
O12 C10 1_555 1_555
Eu1A O1A 1_555 1_555
C1A H1A 1_555 1_555
C2A C1A 1_555 1_555
C3A C2A 1_555 1_555
C4A C3A 1_555 1_555
H2A C4A 1_555 1_555
C5A C4A 1_555 1_555
C6A C1A 1_555 1_555
C7A C2A 1_555 1_555
C8A C3A 1_555 1_555
C9A C5A 1_555 1_555
C10A C6A 1_555 1_555
O1A C7A 1_555 1_555
O2A C7A 1_555 1_555
O3A Eu1A 1_555 1_555
O4A Eu1A 1_555 1_555
O5A Eu1A 1_555 1_555
O6A C8A 1_555 1_555
O7A Eu1A 1_555 1_555
O8A C9A 1_555 1_555
O10A Co1 1_555 1_555
O11A C10A 1_555 1_555
O12A C10A 1_555 1_555
O9A Co1 1_555 1_555
Eu1_2 O1A 1_555 1_555
Eu1_3 O11 1_555 1_555
Eu1_4 O12A 1_555 1_555
Eu1A_2 O12 1_555 1_555
Eu1A_3 O11A 1_555 1_555
Eu1A_4 O1 1_555 1_555
Co1_2 O10 1_555 1_555
O1_2 Eu1A 1_555 1_555
O1A_2 Eu1 1_555 1_555
O2_2 Eu1A 1_555 1_555
O2A_2 Eu1 1_555 1_555
O6A_2 Co1 1_555 1_555
O10_2 Co1 1_555 1_555
O11_2 Eu1 1_555 1_555
O11A_2 Eu1A 1_555 1_555
O12_2 Eu1A 1_555 1_555
O12A_2 Eu1 1_555 1_555
C5 C6 1_555 1_555
C8 O4 1_555 1_555
O2 Eu1A_4 1_555 1_555
C5A C6A 1_555 1_555
C8A O4A 1_555 1_555
C9A O10A 1_555 1_555
O2A Eu1_2 1_555 1_555
O6A Co1_2 1_555 1_555
Eu1_2 O1_2 1_555 1_555
Eu1A_4 O1A_2 1_555 1_555

#END
