
#######################################################################
#
#                 Cambridge Crystallographic Data Centre
#                                CCDC 
#
#######################################################################
#
# If this CIF has been generated from an entry in the Cambridge 
# Structural Database, then it will include bibliographic, chemical, 
# crystal, experimental, refinement or atomic coordinate data resulting 
# from the CCDC's data processing and validation procedures.
#
#######################################################################

data_KOLHOK
_symmetry_cell_setting           monoclinic
_symmetry_space_group_name_H-M   'P 21/n'
_symmetry_Int_Tables_number      14
_space_group_name_Hall           '-P 2yn'
loop_
_symmetry_equiv_pos_site_id
_symmetry_equiv_pos_as_xyz
1 x,y,z
2 1/2-x,1/2+y,1/2-z
3 -x,-y,-z
4 1/2+x,1/2-y,1/2+z
_cell_length_a                   15.159(3)
_cell_length_b                   8.6660(17)
_cell_length_c                   15.744(3)
_cell_angle_alpha                90
_cell_angle_beta                 104.80(3)
_cell_angle_gamma                90
_cell_volume                     1999.64
loop_
_atom_site_label
_atom_site_type_symbol
_atom_site_fract_x
_atom_site_fract_y
_atom_site_fract_z
C1 C 0.2140(4) 0.0218(7) -0.2099(4)
H1 H 0.2341 0.1183 -0.2229
C2 C 0.2617(4) -0.0540(7) -0.1345(4)
C3 C 0.2308(4) -0.1957(7) -0.1116(4)
C4 C 0.1515(5) -0.2561(6) -0.1672(5)
H2 H 0.1287 -0.3487 -0.1518
C5 C 0.1055(4) -0.1851(7) -0.2437(4)
C6 C 0.1370(4) -0.0429(7) -0.2667(4)
C7 C 0.3419(4) 0.0356(7) -0.0803(4)
C8 C 0.2714(5) -0.2844(8) -0.0278(4)
C9 C 0.0134(6) -0.2481(6) -0.2920(5)
C10 C 0.0887(4) 0.0416(7) -0.3460(4)
O1 O 0.3323(3) 0.1787(5) -0.0706(3)
O2 O 0.4158(3) -0.0274(5) -0.0453(3)
O3 O 0.3793(3) 0.4016(5) 0.0732(3)
O4 O 0.3548(3) -0.3064(5) 0.0006(3)
O5 O 0.4324(3) 0.1056(5) 0.1234(3)
O6 O 0.2132(3) -0.3439(6) 0.0078(3)
O7 O 0.0031(3) -0.3155(5) -0.3643(3)
O8 O -0.0489(5) -0.2276(7) -0.2542(5)
O9 O 0.0530(3) -0.0252(5) -0.4172(3)
O10 O 0.0838(3) 0.1882(5) -0.3401(3)
Eu1 Eu 0.48884(2) 0.25084(3) 0.01177(2)
O2B O 0.5842(3) 0.0274(5) 0.0453(3)
O4B O 0.6452(3) 0.3064(5) -0.0006(3)
O7A O 0.4969(3) 0.1845(5) -0.1357(3)
O9A O 0.4470(3) 0.4748(5) -0.0828(3)
O9C O 0.5530(3) 0.5252(5) 0.0828(3)
O10C O 0.5838(3) 0.3118(5) 0.1599(3)
Eu1A Eu 0.01116(2) -0.24916(3) -0.51177(2)
Eu1B Eu 0.51116(2) -0.25084(3) -0.01177(2)
Eu1C Eu -0.01116(2) 0.24916(3) -0.48823(2)
O11 O 1.0382(6) 0.7654(6) -0.0032(5)
O12 O 1.0355(5) 0.9756(7) 0.1373(4)
O13 O 1.1317(4) 1.0753(7) 0.0095(4)
Co1 Co 1.0000 1.0000 0.0000
O11B O 0.9618(6) 1.2346(6) 0.0032(5)
O12B O 0.9645(5) 1.0244(7) -0.1373(4)
O13B O 0.8683(4) 0.9247(7) -0.0095(4)
O14 O 0.1770(4) 0.3443(7) -0.0704(5)
O15 O -0.2264(7) -0.2256(11) -0.3122(7)
O16 O 0.9935(5) 0.6912(9) 0.1927(4)
O17 O 0.9241(5) 0.5619(9) -0.1169(5)
O18 O 1.2629(8) 1.0315(17) 0.1595(9)
loop_
_geom_bond_atom_site_label_1
_geom_bond_atom_site_label_2
_geom_bond_site_symmetry_1
_geom_bond_site_symmetry_2
C1 H1 1_555 1_555
C2 C1 1_555 1_555
C3 C2 1_555 1_555
C4 C3 1_555 1_555
H2 C4 1_555 1_555
C5 C4 1_555 1_555
C6 C1 1_555 1_555
C7 C2 1_555 1_555
C8 C3 1_555 1_555
C9 C5 1_555 1_555
C10 C6 1_555 1_555
O1 C7 1_555 1_555
O2 C7 1_555 1_555
O3 Eu1 1_555 1_555
O4 C8 1_555 1_555
O5 Eu1 1_555 1_555
O6 C8 1_555 1_555
O7 C9 1_555 1_555
O8 C9 1_555 1_555
O9 C10 1_555 1_555
O10 C10 1_555 1_555
Eu1 O1 1_555 1_555
O11 Co1 1_555 1_555
O12 Co1 1_555 1_555
O13 Co1 1_555 1_555
Co1 O11B 1_555 1_555
O2B Eu1 1_555 1_555
O4B Eu1 1_555 1_555
O7A Eu1 1_555 1_555
O9A Eu1 1_555 1_555
O9C Eu1 1_555 1_555
O10C Eu1 1_555 1_555
Eu1A O7 1_555 1_555
Eu1B O2 1_555 1_555
Eu1C O9 1_555 1_555
O12B Co1 1_555 1_555
O13B Co1 1_555 1_555
C5 C6 1_555 1_555
O2 Eu1 1_555 1_555
O4 Eu1B 1_555 1_555
O9 Eu1A 1_555 1_555
O10 Eu1C 1_555 1_555
O2B Eu1B 1_555 1_555

#END
