
#######################################################################
#
#                 Cambridge Crystallographic Data Centre
#                                CCDC 
#
#######################################################################
#
# If this CIF has been generated from an entry in the Cambridge 
# Structural Database, then it will include bibliographic, chemical, 
# crystal, experimental, refinement or atomic coordinate data resulting 
# from the CCDC's data processing and validation procedures.
#
#######################################################################

data_KOLJAY
_symmetry_cell_setting           triclinic
_symmetry_space_group_name_H-M   'P -1'
_symmetry_Int_Tables_number      2
_space_group_name_Hall           '-P 1'
loop_
_symmetry_equiv_pos_site_id
_symmetry_equiv_pos_as_xyz
1 x,y,z
2 -x,-y,-z
_cell_length_a                   8.5800(5)
_cell_length_b                   8.8986(6)
_cell_length_c                   11.7367(7)
_cell_angle_alpha                85.428(5)
_cell_angle_beta                 87.998(6)
_cell_angle_gamma                63.632(5)
_cell_volume                     800.312
loop_
_atom_site_label
_atom_site_type_symbol
_atom_site_fract_x
_atom_site_fract_y
_atom_site_fract_z
Sm1 Sm 0.60316(2) 0.63826(2) 0.916566(15)
Co1 Co 0.5000 0.5000 0.5000
C1 C -0.0675(4) 0.9432(4) 0.8851(3)
C2 C 0.0918(4) 0.8157(4) 0.8516(3)
C3 C 0.1641(4) 0.8352(4) 0.7468(3)
C4 C 0.0763(5) 0.9806(5) 0.6767(3)
C5 C -0.0807(4) 1.1088(4) 0.7097(3)
C6 C -0.1519(4) 1.0901(4) 0.8159(3)
C7 C 0.1830(4) 0.6625(4) 0.9306(3)
C8 C 0.3354(4) 0.7059(4) 0.7028(3)
C9 C -0.1715(4) 1.2606(4) 0.6281(3)
C10 C -0.3069(4) 1.2349(4) 0.8631(3)
O1 O 0.3485(3) 0.5784(3) 0.9210(2)
O2 O 0.1021(3) 0.6177(3) 1.0048(2)
O3 O 0.5323(4) 0.9333(3) 0.8595(3)
O4 O 0.4701(3) 0.7201(3) 0.7283(2)
O5 O 0.8407(4) 0.6289(5) 0.7935(3)
O6 O 0.3299(3) 0.6033(3) 0.6385(2)
O7 O 0.7587(3) 0.7262(3) 1.0478(2)
O8 O -0.0889(4) 1.3417(4) 0.5938(3)
O9 O 0.3507(3) 0.3691(3) 0.4749(2)
O10 O -0.3219(3) 1.2905(3) 0.5973(2)
O11 O -0.3255(3) 1.3798(3) 0.8313(2)
O12 O -0.3997(3) 1.1997(3) 0.9371(2)
H1 H -0.112(5) 0.928(5) 0.956(4)
H2 H 0.128(5) 0.984(5) 0.603(4)
Sm1A Sm -0.60316(2) 1.36174(2) 0.083434(15)
C1A C 0.0675(4) 1.0568(4) 0.1149(3)
C2A C -0.0918(4) 1.1843(4) 0.1484(3)
C3A C -0.1641(4) 1.1648(4) 0.2532(3)
C4A C -0.0763(5) 1.0194(5) 0.3233(3)
C5A C 0.0807(4) 0.8912(4) 0.2903(3)
C6A C 0.1519(4) 0.9099(4) 0.1841(3)
C7A C -0.1830(4) 1.3375(4) 0.0694(3)
C8A C -0.3354(4) 1.2941(4) 0.2972(3)
C9A C 0.1715(4) 0.7394(4) 0.3719(3)
C10A C 0.3069(4) 0.7651(4) 0.1369(3)
O1A O -0.3485(3) 1.4216(3) 0.0790(2)
O2A O -0.1021(3) 1.3823(3) -0.0048(2)
O3A O -0.5323(4) 1.0667(3) 0.1405(3)
O4A O -0.4701(3) 1.2799(3) 0.2717(2)
O5A O -0.8407(4) 1.3711(5) 0.2065(3)
O6A O -0.3299(3) 1.3967(3) 0.3615(2)
O7A O -0.7587(3) 1.2738(3) -0.0478(2)
O8A O 0.0889(4) 0.6583(4) 0.4062(3)
O10A O 0.3219(3) 0.7095(3) 0.4027(2)
O11A O 0.3255(3) 0.6202(3) 0.1687(2)
O12A O 0.3997(3) 0.8003(3) 0.0629(2)
H1A H 0.112(5) 1.072(5) 0.044(4)
H2A H -0.128(5) 1.016(5) 0.397(4)
O9A O 0.6493(3) 0.6309(3) 0.5251(2)
Sm1_2 Sm -0.39684(2) 1.63826(2) -0.083434(15)
Sm1_3 Sm -0.39684(2) 1.63826(2) 0.916566(15)
Sm1_4 Sm 0.60316(2) 0.63826(2) -0.083434(15)
Sm1A_2 Sm -0.60316(2) 1.36174(2) 1.083434(15)
Sm1A_3 Sm 0.39684(2) 0.36174(2) 0.083434(15)
Sm1A_4 Sm 0.39684(2) 0.36174(2) 1.083434(15)
Co1_2 Co -0.5000 1.5000 0.5000
O1_2 O -0.6515(3) 1.5784(3) -0.0790(2)
O1A_2 O 0.6515(3) 0.4216(3) 1.0790(2)
O2_2 O -0.8979(3) 1.6177(3) 0.0048(2)
O2A_2 O 0.8979(3) 0.3823(3) 0.9952(2)
O6A_2 O 0.6701(3) 0.3967(3) 0.3615(2)
O10_2 O 0.6781(3) 0.2905(3) 0.5973(2)
O11_2 O 0.6745(3) 0.3798(3) 0.8313(2)
O11A_2 O -0.6745(3) 1.6202(3) 0.1687(2)
O12_2 O -0.3997(3) 1.1997(3) -0.0629(2)
O12A_2 O 0.3997(3) 0.8003(3) 1.0629(2)
O13 O 0.1635(7) 0.3833(8) 0.7209(4)
O14 O 0.5498(11) 0.0388(9) 0.6254(6)
O15 O 0.8689(12) 0.7908(11) 0.6026(7)
loop_
_geom_bond_atom_site_label_1
_geom_bond_atom_site_label_2
_geom_bond_site_symmetry_1
_geom_bond_site_symmetry_2
Sm1 O1 1_555 1_555
Co1 O6 1_555 1_555
C1 C2 1_555 1_555
C2 C3 1_555 1_555
C3 C4 1_555 1_555
C4 C5 1_555 1_555
C5 C6 1_555 1_555
C6 C1 1_555 1_555
C7 C2 1_555 1_555
C8 C3 1_555 1_555
C9 C5 1_555 1_555
C10 C6 1_555 1_555
O1 C7 1_555 1_555
O2 C7 1_555 1_555
O3 Sm1 1_555 1_555
O4 Sm1 1_555 1_555
O5 Sm1 1_555 1_555
O6 C8 1_555 1_555
O7 Sm1 1_555 1_555
O8 C9 1_555 1_555
O9 Co1 1_555 1_555
O10 C9 1_555 1_555
O11 C10 1_555 1_555
O12 C10 1_555 1_555
H1 C1 1_555 1_555
H2 C4 1_555 1_555
Sm1A O1A 1_555 1_555
C1A C2A 1_555 1_555
C2A C3A 1_555 1_555
C3A C4A 1_555 1_555
C4A C5A 1_555 1_555
C5A C6A 1_555 1_555
C6A C1A 1_555 1_555
C7A C2A 1_555 1_555
C8A C3A 1_555 1_555
C9A C5A 1_555 1_555
C10A C6A 1_555 1_555
O1A C7A 1_555 1_555
O2A C7A 1_555 1_555
O3A Sm1A 1_555 1_555
O4A Sm1A 1_555 1_555
O5A Sm1A 1_555 1_555
O6A C8A 1_555 1_555
O7A Sm1A 1_555 1_555
O8A C9A 1_555 1_555
O10A Co1 1_555 1_555
O11A C10A 1_555 1_555
O12A C10A 1_555 1_555
H1A C1A 1_555 1_555
H2A C4A 1_555 1_555
O9A Co1 1_555 1_555
Sm1_2 O1A 1_555 1_555
Sm1_3 O11 1_555 1_555
Sm1_4 O12A 1_555 1_555
Sm1A_2 O12 1_555 1_555
Sm1A_3 O11A 1_555 1_555
Sm1A_4 O1 1_555 1_555
Co1_2 O10 1_555 1_555
O1_2 Sm1A 1_555 1_555
O1A_2 Sm1 1_555 1_555
O2_2 Sm1A 1_555 1_555
O2A_2 Sm1 1_555 1_555
O6A_2 Co1 1_555 1_555
O10_2 Co1 1_555 1_555
O11_2 Sm1 1_555 1_555
O11A_2 Sm1A 1_555 1_555
O12_2 Sm1A 1_555 1_555
O12A_2 Sm1 1_555 1_555
C8 O4 1_555 1_555
O2 Sm1A_4 1_555 1_555
C8A O4A 1_555 1_555
C9A O10A 1_555 1_555
O2A Sm1_2 1_555 1_555
O6A Co1_2 1_555 1_555
Sm1_2 O1_2 1_555 1_555
Sm1A_4 O1A_2 1_555 1_555

#END
