
#######################################################################
#
#                 Cambridge Crystallographic Data Centre
#                                CCDC 
#
#######################################################################
#
# If this CIF has been generated from an entry in the Cambridge 
# Structural Database, then it will include bibliographic, chemical, 
# crystal, experimental, refinement or atomic coordinate data resulting 
# from the CCDC's data processing and validation procedures.
#
#######################################################################

data_KOLJEC
_symmetry_cell_setting           triclinic
_symmetry_space_group_name_H-M   'P -1'
_symmetry_Int_Tables_number      2
_space_group_name_Hall           '-P 1'
loop_
_symmetry_equiv_pos_site_id
_symmetry_equiv_pos_as_xyz
1 x,y,z
2 -x,-y,-z
_cell_length_a                   8.5403(4)
_cell_length_b                   8.8537(6)
_cell_length_c                   11.7225(5)
_cell_angle_alpha                85.439(3)
_cell_angle_beta                 87.941(3)
_cell_angle_gamma                63.764(3)
_cell_volume                     792.545
loop_
_atom_site_label
_atom_site_type_symbol
_atom_site_fract_x
_atom_site_fract_y
_atom_site_fract_z
Gd1 Gd 0.60218(2) 0.63772(2) 0.917131(15)
Co1 Co 0.5000 0.5000 0.5000
C1 C -0.0670(5) 0.9427(4) 0.8855(3)
H1 H -0.1170 0.9280 0.9547
C2 C 0.0917(5) 0.8160(4) 0.8524(3)
C3 C 0.1646(5) 0.8354(5) 0.7476(3)
C4 C 0.0769(5) 0.9806(5) 0.6774(3)
H2 H 0.1245 0.9925 0.6066
C5 C -0.0798(5) 1.1083(5) 0.7102(3)
C6 C -0.1522(4) 1.0910(4) 0.8165(3)
C7 C 0.1827(5) 0.6625(4) 0.9319(3)
C8 C 0.3360(5) 0.7057(5) 0.7040(3)
C9 C -0.1711(5) 1.2608(5) 0.6282(3)
C10 C -0.3068(5) 1.2357(4) 0.8637(3)
O1 O 0.3490(3) 0.5773(3) 0.9222(2)
O2 O 0.1020(3) 0.6172(3) 1.0058(2)
O3 O 0.5309(5) 0.9311(4) 0.8605(3)
O4 O 0.4719(3) 0.7178(3) 0.7301(2)
O5 O 0.8389(4) 0.6287(5) 0.7963(3)
O6 O 0.3300(4) 0.6038(4) 0.6384(2)
O7 O 0.7568(4) 0.7252(4) 1.0468(3)
O8 O -0.0878(4) 1.3421(4) 0.5940(3)
O9 O 0.3506(4) 0.3678(4) 0.4750(3)
O10 O -0.3220(4) 1.2904(3) 0.5975(2)
O11 O -0.3254(3) 1.3803(3) 0.8322(2)
O12 O -0.3997(3) 1.2005(3) 0.9379(2)
Gd1A Gd -0.60218(2) 1.36228(2) 0.082869(15)
C1A C 0.0670(5) 1.0573(4) 0.1145(3)
H1A H 0.1170 1.0720 0.0453
C2A C -0.0917(5) 1.1840(4) 0.1476(3)
C3A C -0.1646(5) 1.1646(5) 0.2524(3)
C4A C -0.0769(5) 1.0194(5) 0.3226(3)
H2A H -0.1245 1.0075 0.3934
C5A C 0.0798(5) 0.8917(5) 0.2898(3)
C6A C 0.1522(4) 0.9090(4) 0.1835(3)
C7A C -0.1827(5) 1.3375(4) 0.0681(3)
C8A C -0.3360(5) 1.2943(5) 0.2960(3)
C9A C 0.1711(5) 0.7392(5) 0.3718(3)
C10A C 0.3068(5) 0.7643(4) 0.1363(3)
O1A O -0.3490(3) 1.4227(3) 0.0778(2)
O2A O -0.1020(3) 1.3828(3) -0.0058(2)
O3A O -0.5309(5) 1.0689(4) 0.1395(3)
O4A O -0.4719(3) 1.2822(3) 0.2699(2)
O5A O -0.8389(4) 1.3713(5) 0.2037(3)
O6A O -0.3300(4) 1.3962(4) 0.3616(2)
O7A O -0.7568(4) 1.2748(4) -0.0468(3)
O8A O 0.0878(4) 0.6579(4) 0.4060(3)
O10A O 0.3220(4) 0.7096(3) 0.4025(2)
O11A O 0.3254(3) 0.6197(3) 0.1678(2)
O12A O 0.3997(3) 0.7995(3) 0.0621(2)
O9A O 0.6494(4) 0.6322(4) 0.5250(3)
Gd1_2 Gd -0.39782(2) 1.63772(2) -0.082869(15)
Gd1_3 Gd -0.39782(2) 1.63772(2) 0.917131(15)
Gd1_4 Gd 0.60218(2) 0.63772(2) -0.082869(15)
Gd1A_2 Gd -0.60218(2) 1.36228(2) 1.082869(15)
Gd1A_3 Gd 0.39782(2) 0.36228(2) 0.082869(15)
Gd1A_4 Gd 0.39782(2) 0.36228(2) 1.082869(15)
Co1_2 Co -0.5000 1.5000 0.5000
O1_2 O -0.6510(3) 1.5773(3) -0.0778(2)
O1A_2 O 0.6510(3) 0.4227(3) 1.0778(2)
O2_2 O -0.8980(3) 1.6172(3) 0.0058(2)
O2A_2 O 0.8980(3) 0.3828(3) 0.9942(2)
O6A_2 O 0.6700(4) 0.3962(4) 0.3616(2)
O10_2 O 0.6780(4) 0.2904(3) 0.5975(2)
O11_2 O 0.6746(3) 0.3803(3) 0.8322(2)
O11A_2 O -0.6746(3) 1.6197(3) 0.1678(2)
O12_2 O -0.3997(3) 1.2005(3) -0.0621(2)
O12A_2 O 0.3997(3) 0.7995(3) 1.0621(2)
O13 O 0.1644(8) 0.3821(8) 0.7225(4)
O14 O 0.5467(12) 0.0401(10) 0.6278(6)
O15 O 0.8697(12) 0.7896(12) 0.6037(6)
loop_
_geom_bond_atom_site_label_1
_geom_bond_atom_site_label_2
_geom_bond_site_symmetry_1
_geom_bond_site_symmetry_2
Gd1 O1 1_555 1_555
Co1 O6 1_555 1_555
C1 H1 1_555 1_555
C2 C1 1_555 1_555
C3 C2 1_555 1_555
C4 C3 1_555 1_555
H2 C4 1_555 1_555
C5 C4 1_555 1_555
C6 C1 1_555 1_555
C7 C2 1_555 1_555
C8 C3 1_555 1_555
C9 C5 1_555 1_555
C10 C6 1_555 1_555
O1 C7 1_555 1_555
O2 C7 1_555 1_555
O3 Gd1 1_555 1_555
O4 Gd1 1_555 1_555
O5 Gd1 1_555 1_555
O6 C8 1_555 1_555
O7 Gd1 1_555 1_555
O8 C9 1_555 1_555
O9 Co1 1_555 1_555
O10 C9 1_555 1_555
O11 C10 1_555 1_555
O12 C10 1_555 1_555
Gd1A O1A 1_555 1_555
C1A H1A 1_555 1_555
C2A C1A 1_555 1_555
C3A C2A 1_555 1_555
C4A C3A 1_555 1_555
H2A C4A 1_555 1_555
C5A C4A 1_555 1_555
C6A C1A 1_555 1_555
C7A C2A 1_555 1_555
C8A C3A 1_555 1_555
C9A C5A 1_555 1_555
C10A C6A 1_555 1_555
O1A C7A 1_555 1_555
O2A C7A 1_555 1_555
O3A Gd1A 1_555 1_555
O4A Gd1A 1_555 1_555
O5A Gd1A 1_555 1_555
O6A C8A 1_555 1_555
O7A Gd1A 1_555 1_555
O8A C9A 1_555 1_555
O10A Co1 1_555 1_555
O11A C10A 1_555 1_555
O12A C10A 1_555 1_555
O9A Co1 1_555 1_555
Gd1_2 O1A 1_555 1_555
Gd1_3 O11 1_555 1_555
Gd1_4 O12A 1_555 1_555
Gd1A_2 O12 1_555 1_555
Gd1A_3 O11A 1_555 1_555
Gd1A_4 O1 1_555 1_555
Co1_2 O10 1_555 1_555
O1_2 Gd1A 1_555 1_555
O1A_2 Gd1 1_555 1_555
O2_2 Gd1A 1_555 1_555
O2A_2 Gd1 1_555 1_555
O6A_2 Co1 1_555 1_555
O10_2 Co1 1_555 1_555
O11_2 Gd1 1_555 1_555
O11A_2 Gd1A 1_555 1_555
O12_2 Gd1A 1_555 1_555
O12A_2 Gd1 1_555 1_555
C5 C6 1_555 1_555
C8 O4 1_555 1_555
O2 Gd1A_4 1_555 1_555
C5A C6A 1_555 1_555
C8A O4A 1_555 1_555
C9A O10A 1_555 1_555
O2A Gd1_2 1_555 1_555
O6A Co1_2 1_555 1_555
Gd1_2 O1_2 1_555 1_555
Gd1A_4 O1A_2 1_555 1_555

#END
