
#######################################################################
#
#                 Cambridge Crystallographic Data Centre
#                                CCDC 
#
#######################################################################
#
# If this CIF has been generated from an entry in the Cambridge 
# Structural Database, then it will include bibliographic, chemical, 
# crystal, experimental, refinement or atomic coordinate data resulting 
# from the CCDC's data processing and validation procedures.
#
#######################################################################

data_KOLJIG
_symmetry_cell_setting           triclinic
_symmetry_space_group_name_H-M   'P -1'
_symmetry_Int_Tables_number      2
_space_group_name_Hall           '-P 1'
loop_
_symmetry_equiv_pos_site_id
_symmetry_equiv_pos_as_xyz
1 x,y,z
2 -x,-y,-z
_cell_length_a                   8.5233(6)
_cell_length_b                   8.8297(7)
_cell_length_c                   11.7246(5)
_cell_angle_alpha                85.427(4)
_cell_angle_beta                 87.955(4)
_cell_angle_gamma                63.941(5)
_cell_volume                     790.148
loop_
_atom_site_label
_atom_site_type_symbol
_atom_site_fract_x
_atom_site_fract_y
_atom_site_fract_z
Tb1 Tb 0.60085(4) 0.63822(4) 0.91716(2)
Co1 Co 0.5000 0.5000 0.5000
C1 C -0.0670(8) 0.9437(8) 0.8858(5)
C2 C 0.0918(8) 0.8162(7) 0.8528(5)
C3 C 0.1643(8) 0.8359(8) 0.7479(5)
C4 C 0.0769(8) 0.9810(8) 0.6776(5)
C5 C -0.0792(8) 1.1097(8) 0.7099(5)
C6 C -0.1518(8) 1.0912(7) 0.8169(5)
C7 C 0.1825(8) 0.6624(7) 0.9319(5)
C8 C 0.3361(8) 0.7044(7) 0.7042(5)
C9 C -0.1712(8) 1.2616(8) 0.6283(5)
C10 C -0.3069(7) 1.2370(8) 0.8637(5)
O1 O 0.3493(5) 0.5761(5) 0.9225(3)
O2 O 0.1014(6) 0.6169(6) 1.0066(4)
O3 O 0.5277(7) 0.9312(6) 0.8621(4)
O4 O 0.4722(6) 0.7173(5) 0.7304(3)
O5 O 0.8361(7) 0.6333(8) 0.7961(4)
O6 O 0.3299(6) 0.6042(6) 0.6391(4)
O7 O 0.7552(6) 0.7251(6) 1.0457(4)
O8 O -0.0867(6) 1.3433(6) 0.5934(4)
O9 O 0.3509(6) 0.3656(6) 0.4751(4)
O10 O -0.3217(6) 1.2907(5) 0.5972(4)
O11 O -0.3245(5) 1.3819(5) 0.8315(3)
O12 O -0.3995(6) 1.2006(5) 0.9384(4)
H1 H -0.122(9) 0.924(8) 0.965(5)
H2 H 0.124(9) 0.984(9) 0.611(6)
Tb1A Tb -0.60085(4) 1.36178(4) 0.08284(2)
C1A C 0.0670(8) 1.0563(8) 0.1142(5)
C2A C -0.0918(8) 1.1838(7) 0.1472(5)
C3A C -0.1643(8) 1.1641(8) 0.2521(5)
C4A C -0.0769(8) 1.0190(8) 0.3224(5)
C5A C 0.0792(8) 0.8903(8) 0.2901(5)
C6A C 0.1518(8) 0.9088(7) 0.1831(5)
C7A C -0.1825(8) 1.3376(7) 0.0681(5)
C8A C -0.3361(8) 1.2956(7) 0.2958(5)
C9A C 0.1712(8) 0.7384(8) 0.3717(5)
C10A C 0.3069(7) 0.7630(8) 0.1363(5)
O1A O -0.3493(5) 1.4239(5) 0.0775(3)
O2A O -0.1014(6) 1.3831(6) -0.0066(4)
O3A O -0.5277(7) 1.0688(6) 0.1379(4)
O4A O -0.4722(6) 1.2827(5) 0.2696(3)
O5A O -0.8361(7) 1.3667(8) 0.2039(4)
O6A O -0.3299(6) 1.3958(6) 0.3609(4)
O7A O -0.7552(6) 1.2749(6) -0.0457(4)
O8A O 0.0867(6) 0.6567(6) 0.4066(4)
O10A O 0.3217(6) 0.7093(5) 0.4028(4)
O11A O 0.3245(5) 0.6181(5) 0.1685(3)
O12A O 0.3995(6) 0.7994(5) 0.0616(4)
H1A H 0.122(9) 1.076(8) 0.035(5)
H2A H -0.124(9) 1.016(9) 0.389(6)
O9A O 0.6491(6) 0.6344(6) 0.5249(4)
Tb1_2 Tb -0.39915(4) 1.63822(4) -0.08284(2)
Tb1_3 Tb -0.39915(4) 1.63822(4) 0.91716(2)
Tb1_4 Tb 0.60085(4) 0.63822(4) -0.08284(2)
Tb1A_2 Tb -0.60085(4) 1.36178(4) 1.08284(2)
Tb1A_3 Tb 0.39915(4) 0.36178(4) 0.08284(2)
Tb1A_4 Tb 0.39915(4) 0.36178(4) 1.08284(2)
Co1_2 Co -0.5000 1.5000 0.5000
O1_2 O -0.6507(5) 1.5761(5) -0.0775(3)
O1A_2 O 0.6507(5) 0.4239(5) 1.0775(3)
O2_2 O -0.8986(6) 1.6169(6) 0.0066(4)
O2A_2 O 0.8986(6) 0.3831(6) 0.9934(4)
O6A_2 O 0.6701(6) 0.3958(6) 0.3609(4)
O10_2 O 0.6783(6) 0.2907(5) 0.5972(4)
O11_2 O 0.6755(5) 0.3819(5) 0.8315(3)
O11A_2 O -0.6755(5) 1.6181(5) 0.1685(3)
O12_2 O -0.3995(6) 1.2006(5) -0.0616(4)
O12A_2 O 0.3995(6) 0.7994(5) 1.0616(4)
O13 O 0.1599(11) 0.3869(12) 0.7232(5)
O14 O 0.5457(18) 0.0390(15) 0.6288(9)
O15 O 0.866(2) 0.7946(19) 0.6032(10)
loop_
_geom_bond_atom_site_label_1
_geom_bond_atom_site_label_2
_geom_bond_site_symmetry_1
_geom_bond_site_symmetry_2
Tb1 O1 1_555 1_555
Co1 O6 1_555 1_555
C1 C2 1_555 1_555
C2 C3 1_555 1_555
C3 C4 1_555 1_555
C4 C5 1_555 1_555
C5 C6 1_555 1_555
C6 C1 1_555 1_555
C7 C2 1_555 1_555
C8 C3 1_555 1_555
C9 C5 1_555 1_555
C10 C6 1_555 1_555
O1 C7 1_555 1_555
O2 C7 1_555 1_555
O3 Tb1 1_555 1_555
O4 Tb1 1_555 1_555
O5 Tb1 1_555 1_555
O6 C8 1_555 1_555
O7 Tb1 1_555 1_555
O8 C9 1_555 1_555
O9 Co1 1_555 1_555
O10 C9 1_555 1_555
O11 C10 1_555 1_555
O12 C10 1_555 1_555
H1 C1 1_555 1_555
H2 C4 1_555 1_555
Tb1A O1A 1_555 1_555
C1A C2A 1_555 1_555
C2A C3A 1_555 1_555
C3A C4A 1_555 1_555
C4A C5A 1_555 1_555
C5A C6A 1_555 1_555
C6A C1A 1_555 1_555
C7A C2A 1_555 1_555
C8A C3A 1_555 1_555
C9A C5A 1_555 1_555
C10A C6A 1_555 1_555
O1A C7A 1_555 1_555
O2A C7A 1_555 1_555
O3A Tb1A 1_555 1_555
O4A Tb1A 1_555 1_555
O5A Tb1A 1_555 1_555
O6A C8A 1_555 1_555
O7A Tb1A 1_555 1_555
O8A C9A 1_555 1_555
O10A Co1 1_555 1_555
O11A C10A 1_555 1_555
O12A C10A 1_555 1_555
H1A C1A 1_555 1_555
H2A C4A 1_555 1_555
O9A Co1 1_555 1_555
Tb1_2 O1A 1_555 1_555
Tb1_3 O11 1_555 1_555
Tb1_4 O12A 1_555 1_555
Tb1A_2 O12 1_555 1_555
Tb1A_3 O11A 1_555 1_555
Tb1A_4 O1 1_555 1_555
Co1_2 O10 1_555 1_555
O1_2 Tb1A 1_555 1_555
O1A_2 Tb1 1_555 1_555
O2_2 Tb1A 1_555 1_555
O2A_2 Tb1 1_555 1_555
O6A_2 Co1 1_555 1_555
O10_2 Co1 1_555 1_555
O11_2 Tb1 1_555 1_555
O11A_2 Tb1A 1_555 1_555
O12_2 Tb1A 1_555 1_555
O12A_2 Tb1 1_555 1_555
C8 O4 1_555 1_555
O2 Tb1A_4 1_555 1_555
C8A O4A 1_555 1_555
C9A O10A 1_555 1_555
O2A Tb1_2 1_555 1_555
O6A Co1_2 1_555 1_555
Tb1_2 O1_2 1_555 1_555
Tb1A_4 O1A_2 1_555 1_555

#END
