
#######################################################################
#
#                 Cambridge Crystallographic Data Centre
#                                CCDC 
#
#######################################################################
#
# If this CIF has been generated from an entry in the Cambridge 
# Structural Database, then it will include bibliographic, chemical, 
# crystal, experimental, refinement or atomic coordinate data resulting 
# from the CCDC's data processing and validation procedures.
#
#######################################################################

data_KOLKUR
_symmetry_cell_setting           monoclinic
_symmetry_space_group_name_H-M   'P 21/n'
_symmetry_Int_Tables_number      14
_space_group_name_Hall           '-P 2yn'
loop_
_symmetry_equiv_pos_site_id
_symmetry_equiv_pos_as_xyz
1 x,y,z
2 1/2-x,1/2+y,1/2-z
3 -x,-y,-z
4 1/2+x,1/2-y,1/2+z
_cell_length_a                   4.673(1)
_cell_length_b                   20.476(3)
_cell_length_c                   12.026(1)
_cell_angle_alpha                90
_cell_angle_beta                 97.38(2)
_cell_angle_gamma                90
_cell_volume                     1141.17
loop_
_atom_site_label
_atom_site_type_symbol
_atom_site_fract_x
_atom_site_fract_y
_atom_site_fract_z
Cu1 Cu 0.0000 0.0000 0.0000
O1 O -0.2650(5) 0.0737(1) 0.0023(2)
O2 O 0.1175(5) 0.1086(1) 0.1131(2)
C1 C -0.1255(7) 0.1175(2) 0.0638(3)
C2 C -0.2824(7) 0.1820(2) 0.0685(3)
N1 N -0.1090(6) 0.2310(1) 0.1330(2)
C3 C -0.0039(7) 0.2828(2) 0.0863(3)
O3 O -0.0583(5) 0.2948(1) -0.0164(2)
C4 C 0.1842(7) 0.3276(2) 0.1607(3)
C5 C 0.3635(7) 0.3054(2) 0.2539(3)
C6 C 0.5369(7) 0.3487(2) 0.3208(3)
C7 C 0.5276(7) 0.4151(2) 0.2959(3)
C8 C 0.3501(8) 0.4374(2) 0.2031(3)
C9 C 0.1830(8) 0.3941(2) 0.1350(3)
N2 N 0.6892(6) 0.4604(1) 0.3699(2)
H1 H -0.3438 0.2014 -0.0136
H2 H -0.4694 0.1764 0.1072
H3 H -0.0621 0.2254 0.2180
H4 H 0.3646 0.2575 0.2778
H5 H 0.6700 0.3349 0.3968
H6 H 0.3419 0.4878 0.1852
H7 H 0.0767 0.4070 0.0602
H8 H 0.8554 0.4421 0.4042
H9 H 0.7186 0.4986 0.3296
O1B O 0.2650(5) -0.0737(1) -0.0023(2)
N2C N 0.1892(6) 0.0396(1) -0.1301(2)
N2A N -0.1892(6) -0.0396(1) 0.1301(2)
H8C H 0.3554 0.0579 -0.0958
H9C H 0.2186 0.0014 -0.1704
Cu1A Cu 0.5000 0.5000 0.5000
H8A H -0.3554 -0.0579 0.0958
H9A H -0.2186 -0.0014 0.1704
O1A O 0.7650(5) 0.5737(1) 0.4977(2)
O1C O 0.2350(5) 0.4263(1) 0.5023(2)
N2B N 0.3108(6) 0.5396(1) 0.6301(2)
C1A C 0.6255(7) 0.6175(2) 0.4362(3)
C1C C 0.3745(7) 0.3825(2) 0.5638(3)
C7B C 0.4724(7) 0.5849(2) 0.7041(3)
H8B H 0.1446 0.5579 0.5958
H9B H 0.2814 0.5014 0.6704
O2A O 0.3825(5) 0.6086(1) 0.3869(2)
C2A C 0.7824(7) 0.6820(2) 0.4315(3)
O2C O 0.6175(5) 0.3914(1) 0.6131(2)
C2C C 0.2176(7) 0.3180(2) 0.5685(3)
C6B C 0.4631(7) 0.6513(2) 0.6792(3)
C8B C 0.6499(8) 0.5626(2) 0.7969(3)
N1A N 0.6090(6) 0.7310(1) 0.3670(2)
H1A H 0.8438 0.7014 0.5136
H2A H 0.9694 0.6764 0.3928
N1C N 0.3910(6) 0.2690(1) 0.6330(2)
H1C H 0.1562 0.2986 0.4864
H2C H 0.0306 0.3236 0.6072
C5B C 0.6365(7) 0.6946(2) 0.7461(3)
H5B H 0.3300 0.6651 0.6032
C9B C 0.8170(8) 0.6059(2) 0.8650(3)
H6B H 0.6581 0.5122 0.8148
C3A C 0.5039(7) 0.7828(2) 0.4137(3)
H3A H 0.5621 0.7254 0.2820
C3C C 0.4961(7) 0.2172(2) 0.5863(3)
H3C H 0.4379 0.2746 0.7180
C4B C 0.8158(7) 0.6724(2) 0.8393(3)
H4B H 0.6354 0.7425 0.7222
H7B H 0.9233 0.5930 0.9398
O3A O 0.5583(5) 0.7948(1) 0.5164(2)
C4A C 0.3158(7) 0.8276(2) 0.3393(3)
O3C O 0.4417(5) 0.2052(1) 0.4836(2)
C4C C 0.6842(7) 0.1724(2) 0.6607(3)
C3B C 1.0039(7) 0.7172(2) 0.9137(3)
C5A C 0.1365(7) 0.8054(2) 0.2461(3)
C9A C 0.3170(8) 0.8941(2) 0.3650(3)
C5C C 0.8635(7) 0.1946(2) 0.7539(3)
C9C C 0.6830(8) 0.1059(2) 0.6350(3)
N1B N 1.1090(6) 0.7690(1) 0.8670(2)
O3B O 1.0583(5) 0.7052(1) 1.0164(2)
C6A C -0.0369(7) 0.8487(2) 0.1792(3)
H4A H 0.1354 0.7575 0.2222
C8A C 0.1499(8) 0.9374(2) 0.2969(3)
H7A H 0.4233 0.9070 0.4398
C6C C 1.0369(7) 0.1513(2) 0.8208(3)
H4C H 0.8646 0.2425 0.7778
C8C C 0.8501(8) 0.0626(2) 0.7031(3)
H7C H 0.5767 0.0930 0.5602
C2B C 1.2824(7) 0.8180(2) 0.9315(3)
H3B H 1.0621 0.7746 0.7820
C7A C -0.0276(7) 0.9151(2) 0.2041(3)
H5A H -0.1700 0.8349 0.1032
H6A H 0.1581 0.9878 0.3148
C7C C 1.0276(7) 0.0849(2) 0.7959(3)
H5C H 1.1700 0.1651 0.8968
H6C H 0.8419 0.0122 0.6852
C1B C 1.1255(7) 0.8825(2) 0.9362(3)
H1B H 1.3438 0.7986 1.0136
H2B H 1.4694 0.8236 0.8928
N2A_2 N -0.1892(6) 0.9604(1) 0.1301(2)
N2C_2 N 1.1892(6) 0.0396(1) 0.8699(2)
O1B_2 O 1.2650(5) 0.9263(1) 0.9977(2)
O2B O 0.8825(5) 0.8914(1) 0.8869(2)
Cu1_2 Cu 0.0000 1.0000 0.0000
H8A_2 H -0.3554 0.9421 0.0958
H9A_2 H -0.2186 0.9986 0.1704
Cu1_3 Cu 1.0000 0.0000 1.0000
H8C_2 H 1.3554 0.0579 0.9042
H9C_2 H 1.2186 0.0014 0.8296
Cu1_4 Cu 1.0000 1.0000 1.0000
O4 O 0.8942(5) 0.1809(1) 0.3608(2)
H10 H 0.7374 0.1986 0.4085
H11 H 1.0578 0.1855 0.4131
O5 O 0.5960(6) 0.0635(1) 0.2724(3)
H12 H 0.7057 0.0987 0.2897
H13 H 0.4290 0.0841 0.2274
loop_
_geom_bond_atom_site_label_1
_geom_bond_atom_site_label_2
_geom_bond_site_symmetry_1
_geom_bond_site_symmetry_2
Cu1 O1 1_555 1_555
O1 C1 1_555 1_555
O2 C1 1_555 1_555
C1 C2 1_555 1_555
C2 N1 1_555 1_555
N1 C3 1_555 1_555
C3 O3 1_555 1_555
C4 C3 1_555 1_555
C5 C4 1_555 1_555
C6 C5 1_555 1_555
C7 C6 1_555 1_555
C8 C7 1_555 1_555
C9 C4 1_555 1_555
N2 C7 1_555 1_555
O4 H10 1_555 1_555
O5 H12 1_555 1_555
H1 C2 1_555 1_555
H2 C2 1_555 1_555
H3 N1 1_555 1_555
H4 C5 1_555 1_555
H5 C6 1_555 1_555
H6 C8 1_555 1_555
H7 C9 1_555 1_555
H8 N2 1_555 1_555
H9 N2 1_555 1_555
H11 O4 1_555 1_555
H13 O5 1_555 1_555
O1B Cu1 1_555 1_555
N2C Cu1 1_555 1_555
N2A Cu1 1_555 1_555
H8C N2C 1_555 1_555
H9C N2C 1_555 1_555
Cu1A N2 1_555 1_555
H8A N2A 1_555 1_555
H9A N2A 1_555 1_555
O1A Cu1A 1_555 1_555
O1C Cu1A 1_555 1_555
N2B Cu1A 1_555 1_555
C1A O1A 1_555 1_555
C1C O1C 1_555 1_555
C7B N2B 1_555 1_555
H8B N2B 1_555 1_555
H9B N2B 1_555 1_555
O2A C1A 1_555 1_555
C2A C1A 1_555 1_555
O2C C1C 1_555 1_555
C2C C1C 1_555 1_555
C6B C7B 1_555 1_555
C8B C7B 1_555 1_555
N1A C2A 1_555 1_555
H1A C2A 1_555 1_555
H2A C2A 1_555 1_555
N1C C2C 1_555 1_555
H1C C2C 1_555 1_555
H2C C2C 1_555 1_555
C5B C6B 1_555 1_555
H5B C6B 1_555 1_555
C9B C8B 1_555 1_555
H6B C8B 1_555 1_555
C3A N1A 1_555 1_555
H3A N1A 1_555 1_555
C3C N1C 1_555 1_555
H3C N1C 1_555 1_555
C4B C5B 1_555 1_555
H4B C5B 1_555 1_555
H7B C9B 1_555 1_555
O3A C3A 1_555 1_555
C4A C3A 1_555 1_555
O3C C3C 1_555 1_555
C4C C3C 1_555 1_555
C3B C4B 1_555 1_555
C5A C4A 1_555 1_555
C9A C4A 1_555 1_555
C5C C4C 1_555 1_555
C9C C4C 1_555 1_555
N1B C3B 1_555 1_555
O3B C3B 1_555 1_555
C6A C5A 1_555 1_555
H4A C5A 1_555 1_555
C8A C9A 1_555 1_555
H7A C9A 1_555 1_555
C6C C5C 1_555 1_555
H4C C5C 1_555 1_555
C8C C9C 1_555 1_555
H7C C9C 1_555 1_555
C2B N1B 1_555 1_555
H3B N1B 1_555 1_555
C7A C6A 1_555 1_555
H5A C6A 1_555 1_555
H6A C8A 1_555 1_555
C7C C6C 1_555 1_555
H5C C6C 1_555 1_555
H6C C8C 1_555 1_555
C1B C2B 1_555 1_555
H1B C2B 1_555 1_555
H2B C2B 1_555 1_555
N2A_2 C7A 1_555 1_555
N2C_2 C7C 1_555 1_555
O1B_2 C1B 1_555 1_555
O2B C1B 1_555 1_555
Cu1_2 N2A_2 1_555 1_555
H8A_2 N2A_2 1_555 1_555
H9A_2 N2A_2 1_555 1_555
Cu1_3 N2C_2 1_555 1_555
H8C_2 N2C_2 1_555 1_555
H9C_2 N2C_2 1_555 1_555
Cu1_4 O1B_2 1_555 1_555
C8 C9 1_555 1_555
C9B C4B 1_555 1_555
C8A C7A 1_555 1_555
C8C C7C 1_555 1_555

#END
