
#######################################################################
#
#                 Cambridge Crystallographic Data Centre
#                                CCDC 
#
#######################################################################
#
# If this CIF has been generated from an entry in the Cambridge 
# Structural Database, then it will include bibliographic, chemical, 
# crystal, experimental, refinement or atomic coordinate data resulting 
# from the CCDC's data processing and validation procedures.
#
#######################################################################

data_KOLKIF
_symmetry_cell_setting           triclinic
_symmetry_space_group_name_H-M   'P -1'
_symmetry_Int_Tables_number      2
_space_group_name_Hall           '-P 1'
loop_
_symmetry_equiv_pos_site_id
_symmetry_equiv_pos_as_xyz
1 x,y,z
2 -x,-y,-z
_cell_length_a                   8.027(2)
_cell_length_b                   8.031(2)
_cell_length_c                   10.033(1)
_cell_angle_alpha                96.52(2)
_cell_angle_beta                 100.17(2)
_cell_angle_gamma                119.19(2)
_cell_volume                     540.557
loop_
_atom_site_label
_atom_site_type_symbol
_atom_site_fract_x
_atom_site_fract_y
_atom_site_fract_z
Co1 Co 0.0000 -1.0000 0.0000
O1 O 0.9166(2) 0.0488(2) 0.8070(2)
O2 O 1.1863(3) 0.3356(2) 0.8182(2)
C1 C 1.0203(3) 0.1894(3) 0.7564(3)
C2 C 0.9391(4) 0.1813(3) 0.6074(3)
N1 N 0.7544(3) -0.0010(3) 0.5389(2)
C3 C 0.6714(3) -0.0370(3) 0.4038(2)
O3 O 0.7490(3) 0.0867(2) 0.3363(2)
C4 C 0.4856(3) -0.2285(3) 0.3353(2)
C5 C 0.4037(4) -0.2623(3) 0.1942(3)
C6 C 0.2354(4) -0.4379(3) 0.1223(3)
C7 C -0.1430(3) -1.4161(3) -0.1920(3)
C8 C 0.2233(4) -0.5519(3) 0.3322(3)
C9 C 0.3940(4) -0.3758(4) 0.4038(3)
N2 N 0.0285(3) -1.2329(3) -0.1172(2)
O4 O 0.2958(2) -0.8260(2) 0.0146(2)
H1 H 1.0446 0.2066 0.5636
H2 H 0.9082 0.2868 0.6008
H3 H 0.7046 -0.0860 0.6024
H4 H 0.4721 -0.1627 0.1379
H5 H 0.1874 -0.4689 0.0187
H6 H 0.1509 -0.6627 0.3788
H7 H 0.4528 -0.3487 0.5140
H8 H 0.1105 -1.1721 -0.1881
H9 H 0.1026 -1.2513 -0.0467
H10 H 0.3861 -0.7717 0.0944
H11 H 0.3123 -0.7456 -0.0348
O1_2 O -0.0834(2) -0.9512(2) -0.1930(2)
N2A N -0.0285(3) -0.7671(3) 0.1172(2)
O4A O -0.2958(2) -1.1740(2) -0.0146(2)
C7A C 0.1430(3) -0.5839(3) 0.1920(3)
H8A H -0.1105 -0.8279 0.1881
H9A H -0.1026 -0.7487 0.0467
H10A H -0.3861 -1.2283 -0.0944
H11A H -0.3123 -1.2544 0.0348
Co1_2 Co 1.0000 0.0000 1.0000
C6A C -0.2354(4) -1.5621(3) -0.1223(3)
C8A C -0.2233(4) -1.4481(3) -0.3322(3)
C5A C -0.4037(4) -1.7377(3) -0.1942(3)
H5A H -0.1874 -1.5311 -0.0187
C9A C -0.3940(4) -1.6242(4) -0.4038(3)
H6A H -0.1509 -1.3373 -0.3788
C4A C -0.4856(3) -1.7715(3) -0.3353(2)
H4A H -0.4721 -1.8373 -0.1379
H7A H -0.4528 -1.6513 -0.5140
C3A C -0.6714(3) -1.9630(3) -0.4038(2)
O1A O 0.0834(2) -1.0488(2) 0.1930(2)
N1A N -0.7544(3) -1.9990(3) -0.5389(2)
O3A O -0.7490(3) -2.0867(2) -0.3363(2)
Co1_3 Co -1.0000 -2.0000 -1.0000
C2A C -0.9391(4) -2.1813(3) -0.6074(3)
H3A H -0.7046 -1.9140 -0.6024
C1A C -1.0203(3) -2.1894(3) -0.7564(3)
H1A H -1.0446 -2.2066 -0.5636
H2A H -0.9082 -2.2868 -0.6008
O1A_2 O -0.9166(2) -2.0488(2) -0.8070(2)
O2A O -1.1863(3) -2.3356(2) -0.8182(2)
O5 O 0.5859(3) -0.6795(3) 0.2518(2)
H12 H 0.6858 -0.5613 0.2434
H13 H 0.6432 -0.7352 0.2775
loop_
_geom_bond_atom_site_label_1
_geom_bond_atom_site_label_2
_geom_bond_site_symmetry_1
_geom_bond_site_symmetry_2
Co1 N2 1_555 1_555
O1 C1 1_555 1_555
O2 C1 1_555 1_555
C1 C2 1_555 1_555
C2 N1 1_555 1_555
N1 C3 1_555 1_555
C3 O3 1_555 1_555
C4 C3 1_555 1_555
C5 C4 1_555 1_555
C6 C5 1_555 1_555
C7 N2 1_555 1_555
C8 C9 1_555 1_555
C9 C4 1_555 1_555
N2 H8 1_555 1_555
O4 Co1 1_555 1_555
O5 H12 1_555 1_555
H1 C2 1_555 1_555
H2 C2 1_555 1_555
H3 N1 1_555 1_555
H4 C5 1_555 1_555
H5 C6 1_555 1_555
H6 C8 1_555 1_555
H7 C9 1_555 1_555
H9 N2 1_555 1_555
H10 O4 1_555 1_555
H11 O4 1_555 1_555
H13 O5 1_555 1_555
O1_2 Co1 1_555 1_555
N2A Co1 1_555 1_555
O4A Co1 1_555 1_555
C7A C6 1_555 1_555
H8A N2A 1_555 1_555
H9A N2A 1_555 1_555
H10A O4A 1_555 1_555
H11A O4A 1_555 1_555
Co1_2 O1 1_555 1_555
C6A C7 1_555 1_555
C8A C7 1_555 1_555
C5A C6A 1_555 1_555
H5A C6A 1_555 1_555
C9A C8A 1_555 1_555
H6A C8A 1_555 1_555
C4A C5A 1_555 1_555
H4A C5A 1_555 1_555
H7A C9A 1_555 1_555
C3A C4A 1_555 1_555
O1A Co1 1_555 1_555
N1A C3A 1_555 1_555
O3A C3A 1_555 1_555
Co1_3 O1A_2 1_555 1_555
C2A N1A 1_555 1_555
H3A N1A 1_555 1_555
C1A C2A 1_555 1_555
H1A C2A 1_555 1_555
H2A C2A 1_555 1_555
O1A_2 C1A 1_555 1_555
O2A C1A 1_555 1_555
C8 C7A 1_555 1_555
N2A C7A 1_555 1_555
C9A C4A 1_555 1_555

#END
