
#######################################################################
#
#                 Cambridge Crystallographic Data Centre
#                                CCDC 
#
#######################################################################
#
# If this CIF has been generated from an entry in the Cambridge 
# Structural Database, then it will include bibliographic, chemical, 
# crystal, experimental, refinement or atomic coordinate data resulting 
# from the CCDC's data processing and validation procedures.
#
#######################################################################

data_KOLLAZ
_symmetry_cell_setting           monoclinic
_symmetry_space_group_name_H-M   'C 2/c'
_symmetry_Int_Tables_number      15
_space_group_name_Hall           '-C 2yn'
loop_
_symmetry_equiv_pos_site_id
_symmetry_equiv_pos_as_xyz
1 x,y,z
2 1/2+x,1/2+y,z
3 -x,y,1/2-z
4 1/2-x,1/2+y,1/2-z
5 -x,-y,-z
6 1/2-x,1/2-y,-z
7 x,-y,1/2+z
8 1/2+x,1/2-y,1/2+z
_cell_length_a                   26.8102(15)
_cell_length_b                   5.8617(2)
_cell_length_c                   14.8147(5)
_cell_angle_alpha                90
_cell_angle_beta                 106.278(2)
_cell_angle_gamma                90
_cell_volume                     2234.85
loop_
_atom_site_label
_atom_site_type_symbol
_atom_site_fract_x
_atom_site_fract_y
_atom_site_fract_z
S1 S -0.18585(5) -0.2534(2) 0.23377(9)
S2 S -0.09583(5) -0.4091(2) 0.16747(9)
Na1 Na -0.21921(8) 0.0073(3) 0.04792(14)
O1 O -0.19461(14) -0.6423(7) 0.4834(2)
H1 H -0.1703 -0.6251 0.5330
O2 O -0.13237(15) 0.0872(7) 0.0742(3)
H2 H -0.1217 0.2165 0.0955
H3 H -0.1117 -0.0167 0.0999
O3 O -0.24956(14) 0.1657(7) -0.1082(3)
H4 H -0.2667 0.0446 -0.1223
H5 H -0.2234 0.1653 -0.1287
N1 N -0.10464(17) -0.4875(7) 0.3395(3)
C1 C -0.12730(19) -0.3935(9) 0.2552(3)
C2 C -0.1295(2) -0.4784(10) 0.4160(3)
H6 H -0.1469 -0.3287 0.4145
H7 H -0.1025 -0.4911 0.4770
C3 C -0.1697(2) -0.6683(10) 0.4093(4)
H8 H -0.1961 -0.6613 0.3474
H9 H -0.1523 -0.8188 0.4149
C4 C -0.0531(2) -0.5993(10) 0.3624(4)
H10 H -0.0334 -0.5571 0.4273
H11 H -0.0337 -0.5399 0.3194
C5 C -0.0554(2) -0.8568(11) 0.3547(5)
H12 H -0.0758 -0.9014 0.2906
H13 H -0.0730 -0.9191 0.3998
C6 C -0.0012(2) -0.9553(12) 0.3755(5)
H14 H -0.0033 -1.1219 0.3707
H15 H 0.0189 -0.9120 0.4393
H16 H 0.0160 -0.8957 0.3301
Na1F Na -0.21921(8) -1.0073(3) 0.54792(14)
Na1C Na -0.28079(8) -0.4927(3) 0.45208(14)
Na1E Na -0.28079(8) 0.4927(3) -0.04792(14)
O1F O -0.19461(14) -0.3577(7) -0.0166(2)
O1C O -0.30539(14) -0.1423(7) 0.0166(2)
H1F H -0.1703 -0.3749 0.0330
H1C H -0.3297 -0.1251 -0.0330
O3E O -0.25044(14) 0.3343(7) 0.1082(3)
H4E H -0.2333 0.4554 0.1223
H5E H -0.2766 0.3347 0.1287
loop_
_geom_bond_atom_site_label_1
_geom_bond_atom_site_label_2
_geom_bond_site_symmetry_1
_geom_bond_site_symmetry_2
S1 Na1 1_555 1_555
S2 C1 1_555 1_555
Na1 O2 1_555 1_555
O1 H1 1_555 1_555
O2 H2 1_555 1_555
H3 O2 1_555 1_555
O3 Na1 1_555 1_555
H4 O3 1_555 1_555
H5 O3 1_555 1_555
N1 C1 1_555 1_555
C1 S1 1_555 1_555
C2 N1 1_555 1_555
H6 C2 1_555 1_555
H7 C2 1_555 1_555
C3 O1 1_555 1_555
H8 C3 1_555 1_555
H9 C3 1_555 1_555
C4 N1 1_555 1_555
H10 C4 1_555 1_555
H11 C4 1_555 1_555
C5 C4 1_555 1_555
H12 C5 1_555 1_555
H13 C5 1_555 1_555
C6 C5 1_555 1_555
H14 C6 1_555 1_555
H15 C6 1_555 1_555
H16 C6 1_555 1_555
Na1F O1 1_555 1_555
Na1C O1 1_555 1_555
Na1E O3 1_555 1_555
O1F Na1 1_555 1_555
O1C Na1 1_555 1_555
H1F O1F 1_555 1_555
H1C O1C 1_555 1_555
O3E Na1 1_555 1_555
H4E O3E 1_555 1_555
H5E O3E 1_555 1_555
C2 C3 1_555 1_555
Na1E O3E 1_555 1_555

#END
