
#######################################################################
#
#                 Cambridge Crystallographic Data Centre
#                                CCDC 
#
#######################################################################
#
# If this CIF has been generated from an entry in the Cambridge 
# Structural Database, then it will include bibliographic, chemical, 
# crystal, experimental, refinement or atomic coordinate data resulting 
# from the CCDC's data processing and validation procedures.
#
#######################################################################

data_KOLMEE
_symmetry_cell_setting           triclinic
_symmetry_space_group_name_H-M   'P -1'
_symmetry_Int_Tables_number      2
_space_group_name_Hall           '-P 1'
loop_
_symmetry_equiv_pos_site_id
_symmetry_equiv_pos_as_xyz
1 x,y,z
2 -x,-y,-z
_cell_length_a                   10.2701(13)
_cell_length_b                   13.3741(17)
_cell_length_c                   14.9368(19)
_cell_angle_alpha                89.016(2)
_cell_angle_beta                 86.975(2)
_cell_angle_gamma                67.753(2)
_cell_volume                     1896.24
loop_
_atom_site_label
_atom_site_type_symbol
_atom_site_fract_x
_atom_site_fract_y
_atom_site_fract_z
Cu1 Cu 0.79392(7) 0.84381(5) -0.07801(5)
O1 O 0.6598(4) 0.8694(3) 0.0264(3)
O2 O 0.8275(4) 0.7534(4) 0.1074(3)
O3 O 0.6162(4) 1.0106(3) 0.2033(3)
O4 O 0.3945(4) 1.0917(3) 0.1676(3)
O5 O 0.3687(4) 0.5826(3) 0.2934(3)
O6 O 1.0296(4) 0.2120(3) 0.1517(3)
O7 O 1.0980(5) 0.1915(4) 0.2928(3)
O8 O 0.8400(4) 0.1143(3) 0.2498(3)
O9 O 0.6148(4) 0.1950(3) 0.2165(3)
H1 H 0.6238 0.1335 0.2029
N1 N 0.7866(5) 0.6931(3) -0.0881(3)
N2 N 0.8090(5) -0.0119(3) -0.0635(3)
C1 C 0.7026(6) 0.8113(4) 0.0948(4)
C2 C 0.4952(6) 1.0109(4) 0.1860(4)
C3 C 0.4792(6) 0.5930(4) 0.2721(4)
C4 C 0.5884(5) 0.8086(4) 0.1621(4)
C5 C 0.4830(5) 0.9023(4) 0.1981(4)
C6 C 0.3740(6) 0.8946(4) 0.2526(4)
H14 H 0.3022 0.9570 0.2746
C7 C 0.3711(6) 0.7935(4) 0.2749(4)
H15 H 0.2968 0.7887 0.3107
C8 C 0.4793(6) 0.7000(4) 0.2435(4)
C9 C 0.5845(6) 0.7090(4) 0.1854(4)
H16 H 0.6540 0.6466 0.1616
C10 C 0.6158(6) 0.4973(4) 0.2725(4)
C11 C 0.6138(6) 0.3959(4) 0.2567(4)
H17 H 0.5281 0.3885 0.2510
C12 C 0.7393(5) 0.3043(4) 0.2492(3)
C13 C 0.8670(6) 0.3173(4) 0.2596(4)
C14 C 0.8666(6) 0.4165(4) 0.2826(4)
H18 H 0.9509 0.4231 0.2946
C15 C 0.7417(6) 0.5070(4) 0.2882(4)
H19 H 0.7431 0.5739 0.3025
C16 C 1.0099(6) 0.2293(4) 0.2350(4)
C17 C 0.7350(6) 0.1953(4) 0.2371(4)
C18 C 0.8999(6) 0.6017(4) -0.0922(4)
H20 H 0.9879 0.6069 -0.0944
C19 C 0.8959(7) 0.5004(5) -0.0935(5)
H21 H 0.9791 0.4395 -0.0969
C20 C 0.7656(7) 0.4895(4) -0.0898(4)
C21 C 0.6463(6) 0.5841(5) -0.0828(5)
H22 H 0.5571 0.5814 -0.0775
C22 C 0.6623(6) 0.6828(5) -0.0839(5)
H23 H 0.5813 0.7454 -0.0817
C23 C 0.7537(8) 0.3800(5) -0.0956(5)
H24 H 0.6552 0.3900 -0.0881
H25 H 0.7874 0.3501 -0.1550
C24 C 0.8354(7) 0.3002(4) -0.0267(4)
H26 H 0.7974 0.3268 0.0329
H27 H 0.9331 0.2929 -0.0314
C25 C 0.8272(6) 0.1904(4) -0.0404(4)
C26 C 0.9277(6) 0.1101(4) -0.0930(4)
H28 H 1.0028 0.1224 -0.1218
C27 C 0.9142(6) 0.0120(4) -0.1018(4)
H29 H 0.9829 -0.0409 -0.1366
C28 C 0.7099(6) 0.0666(4) -0.0139(4)
H30 H 0.6345 0.0529 0.0128
C29 C 0.7168(7) 0.1667(4) -0.0016(5)
H31 H 0.6465 0.2187 0.0331
Cu1A Cu 0.20608(7) 1.15619(5) 0.07801(5)
Cu1A_2 Cu 1.20608(7) 0.15619(5) 0.07801(5)
Cu1_2 Cu 0.79392(7) -0.15619(5) -0.07801(5)
Cu1_3 Cu -0.20608(7) 1.84381(5) -0.07801(5)
Cu1_4 Cu 0.79392(7) 1.84381(5) -0.07801(5)
O1A O 0.3402(4) 1.1306(3) -0.0264(3)
O2A O 0.1725(4) 1.2466(4) -0.1074(3)
O3A O 0.3838(4) 0.9894(3) -0.2033(3)
O4A O 0.6055(4) 0.9083(3) -0.1676(3)
O5A O 0.6313(4) 1.4174(3) -0.2934(3)
O6A O -0.0296(4) 1.7880(3) -0.1517(3)
O6A_2 O 0.9704(4) 0.7880(3) -0.1517(3)
O6_2 O 0.0296(4) 1.2120(3) 0.1517(3)
O7A O -0.0980(5) 1.8085(4) -0.2928(3)
O8A O 0.1600(4) 1.8857(3) -0.2498(3)
O9A O 0.3852(4) 1.8050(3) -0.2165(3)
H1A H 0.3762 1.8665 -0.2029
N1_2 N 0.7866(5) 1.6931(3) -0.0881(3)
N1A N 0.2134(5) 1.3069(3) 0.0881(3)
N2_2 N 0.8090(5) 0.9881(3) -0.0635(3)
N2A N 0.1910(5) 1.0119(3) 0.0635(3)
C1A C 0.2974(6) 1.1887(4) -0.0948(4)
C2A C 0.5048(6) 0.9891(4) -0.1860(4)
C3A C 0.5208(6) 1.4070(4) -0.2721(4)
C4A C 0.4116(5) 1.1914(4) -0.1621(4)
C5A C 0.5170(5) 1.0977(4) -0.1981(4)
C6A C 0.6260(6) 1.1054(4) -0.2526(4)
H14A H 0.6978 1.0430 -0.2746
C7A C 0.6289(6) 1.2065(4) -0.2749(4)
H15A H 0.7032 1.2113 -0.3107
C8A C 0.5207(6) 1.3000(4) -0.2435(4)
C9A C 0.4155(6) 1.2910(4) -0.1854(4)
H16A H 0.3460 1.3534 -0.1616
C10A C 0.3842(6) 1.5027(4) -0.2725(4)
C11A C 0.3862(6) 1.6041(4) -0.2567(4)
H17A H 0.4719 1.6115 -0.2510
C12A C 0.2607(5) 1.6957(4) -0.2492(3)
C13A C 0.1330(6) 1.6827(4) -0.2596(4)
C14A C 0.1334(6) 1.5835(4) -0.2826(4)
H18A H 0.0491 1.5769 -0.2946
C15A C 0.2583(6) 1.4930(4) -0.2882(4)
H19A H 0.2569 1.4261 -0.3025
C16A C -0.0099(6) 1.7707(4) -0.2350(4)
C17A C 0.2650(6) 1.8047(4) -0.2371(4)
C18_2 C 0.8999(6) 1.6017(4) -0.0922(4)
H20_2 H 0.9879 1.6069 -0.0944
C19_2 C 0.8959(7) 1.5004(5) -0.0935(5)
H21_2 H 0.9791 1.4395 -0.0969
C20_2 C 0.7656(7) 1.4895(4) -0.0898(4)
C21_2 C 0.6463(6) 1.5841(5) -0.0828(5)
H22_2 H 0.5571 1.5814 -0.0775
C22_2 C 0.6623(6) 1.6828(5) -0.0839(5)
H23_2 H 0.5813 1.7454 -0.0817
C23_2 C 0.7537(8) 1.3800(5) -0.0956(5)
H24_2 H 0.6552 1.3900 -0.0881
H25_2 H 0.7874 1.3501 -0.1550
C24_2 C 0.8354(7) 1.3002(4) -0.0267(4)
H26_2 H 0.7974 1.3268 0.0329
H27_2 H 0.9331 1.2929 -0.0314
C25_2 C 0.8272(6) 1.1904(4) -0.0404(4)
C26_2 C 0.9277(6) 1.1101(4) -0.0930(4)
H28_2 H 1.0028 1.1224 -0.1218
C27_2 C 0.9142(6) 1.0120(4) -0.1018(4)
H29_2 H 0.9829 0.9591 -0.1366
C28_2 C 0.7099(6) 1.0666(4) -0.0139(4)
H30_2 H 0.6345 1.0529 0.0128
C29_2 C 0.7168(7) 1.1667(4) -0.0016(5)
H31_2 H 0.6465 1.2187 0.0331
Cu2 Cu 1.0000 0.0000 0.5000
O10 O 0.9566(9) -0.0519(5) 0.3654(4)
H2 H 1.0079 -0.1021 0.3290
H3 H 0.9230 -0.0007 0.3273
O11 O 1.1390(6) 0.0632(5) 0.4370(4)
H4 H 1.2060 0.0062 0.4162
H5 H 1.1123 0.1056 0.3919
N3 N 0.8409(6) 0.1445(4) 0.4875(4)
C30 C 0.8588(7) 0.2365(5) 0.5050(5)
H32 H 0.9482 0.2329 0.5176
C31 C 0.7485(7) 0.3371(5) 0.5051(4)
H33 H 0.7651 0.3993 0.5164
C32 C 0.6145(6) 0.3442(5) 0.4884(4)
C33 C 0.5978(7) 0.2497(5) 0.4689(5)
H34 H 0.5095 0.2509 0.4562
C34 C 0.7119(8) 0.1536(5) 0.4684(5)
H35 H 0.6982 0.0911 0.4537
C35 C 0.4860(6) 0.4494(4) 0.4893(4)
H36 H 0.4165 0.4433 0.5333
H37 H 0.4454 0.4587 0.4311
Cu2_2 Cu 0.0000 1.0000 0.5000
O10A O 1.0434(9) 0.0519(5) 0.6346(4)
H2A H 0.9921 0.1021 0.6710
H3A H 1.0770 0.0007 0.6727
O11A O 0.8610(6) -0.0632(5) 0.5630(4)
H4A H 0.7940 -0.0062 0.5838
H5A H 0.8877 -0.1056 0.6081
N3A N 0.1591(6) 0.8555(4) 0.5125(4)
N3A_2 N 1.1591(6) -0.1445(4) 0.5125(4)
C30A C 0.1412(7) 0.7635(5) 0.4950(5)
H32A H 0.0518 0.7671 0.4824
C31A C 0.2515(7) 0.6629(5) 0.4949(4)
H33A H 0.2349 0.6007 0.4836
C32A C 0.3855(6) 0.6558(5) 0.5116(4)
C33A C 0.4022(7) 0.7503(5) 0.5311(5)
H34A H 0.4905 0.7491 0.5438
C34A C 0.2881(8) 0.8464(5) 0.5316(5)
H35A H 0.3018 0.9089 0.5463
C35A C 0.5140(6) 0.5506(4) 0.5107(4)
H36A H 0.5835 0.5567 0.4667
H37A H 0.5546 0.5413 0.5689
O12 O 0.3657(18) 0.0899(14) 0.4927(18)
H6 H 0.3888 0.0384 0.4540
H7 H 0.3205 0.0839 0.5413
O13 O 0.3313(8) 0.2480(7) 0.3225(5)
H8 H 0.4178 0.2320 0.3047
H9 H 0.2839 0.3058 0.2941
O14 O 0.1531(11) 0.5011(10) 0.3318(6)
H10 H 0.2059 0.4383 0.3506
H11 H 0.2185 0.5257 0.3209
O15 O 0.9128(13) 0.7267(16) 0.2833(7)
H12 H 0.8885 0.7356 0.2286
H13 H 0.9247 0.7818 0.3045
loop_
_geom_bond_atom_site_label_1
_geom_bond_atom_site_label_2
_geom_bond_site_symmetry_1
_geom_bond_site_symmetry_2
Cu1 O1 1_555 1_555
Cu2 O10 1_555 1_555
O1 C1 1_555 1_555
O2 C1 1_555 1_555
O3 C2 1_555 1_555
O4 C2 1_555 1_555
O5 C3 1_555 1_555
O6 C16 1_555 1_555
O7 C16 1_555 1_555
O8 C17 1_555 1_555
O9 H1 1_555 1_555
O10 H2 1_555 1_555
H3 O10 1_555 1_555
O11 Cu2 1_555 1_555
H4 O11 1_555 1_555
H5 O11 1_555 1_555
O12 H6 1_555 1_555
H7 O12 1_555 1_555
O13 H8 1_555 1_555
H9 O13 1_555 1_555
O14 H10 1_555 1_555
H11 O14 1_555 1_555
O15 H12 1_555 1_555
H13 O15 1_555 1_555
N1 Cu1 1_555 1_555
N2 C27 1_555 1_555
N3 Cu2 1_555 1_555
C1 C4 1_555 1_555
C2 C5 1_555 1_555
C3 C8 1_555 1_555
C4 C5 1_555 1_555
C5 C6 1_555 1_555
C6 H14 1_555 1_555
C7 C6 1_555 1_555
H15 C7 1_555 1_555
C8 C7 1_555 1_555
C9 C4 1_555 1_555
H16 C9 1_555 1_555
C10 C3 1_555 1_555
C11 C10 1_555 1_555
H17 C11 1_555 1_555
C12 C11 1_555 1_555
C13 C12 1_555 1_555
C14 C13 1_555 1_555
H18 C14 1_555 1_555
C15 C10 1_555 1_555
H19 C15 1_555 1_555
C16 C13 1_555 1_555
C17 O9 1_555 1_555
C18 N1 1_555 1_555
H20 C18 1_555 1_555
C19 C18 1_555 1_555
H21 C19 1_555 1_555
C20 C19 1_555 1_555
C21 C20 1_555 1_555
H22 C21 1_555 1_555
C22 N1 1_555 1_555
H23 C22 1_555 1_555
C23 C20 1_555 1_555
H24 C23 1_555 1_555
H25 C23 1_555 1_555
C24 C23 1_555 1_555
H26 C24 1_555 1_555
H27 C24 1_555 1_555
C25 C24 1_555 1_555
C26 C25 1_555 1_555
H28 C26 1_555 1_555
C27 C26 1_555 1_555
H29 C27 1_555 1_555
C28 N2 1_555 1_555
H30 C28 1_555 1_555
C29 C25 1_555 1_555
H31 C29 1_555 1_555
C30 N3 1_555 1_555
H32 C30 1_555 1_555
C31 C30 1_555 1_555
H33 C31 1_555 1_555
C32 C31 1_555 1_555
C33 C32 1_555 1_555
H34 C33 1_555 1_555
C34 N3 1_555 1_555
H35 C34 1_555 1_555
C35 C32 1_555 1_555
H36 C35 1_555 1_555
H37 C35 1_555 1_555
Cu1A O4 1_555 1_555
Cu1A_2 O6 1_555 1_555
Cu1_2 N2 1_555 1_555
Cu1_3 O6A 1_555 1_555
Cu1_4 N1_2 1_555 1_555
Cu2_2 N3A 1_555 1_555
O1A Cu1A 1_555 1_555
O2A C1A 1_555 1_555
O3A C2A 1_555 1_555
O4A Cu1 1_555 1_555
O5A C3A 1_555 1_555
O6A C16A 1_555 1_555
O6A_2 Cu1 1_555 1_555
O6_2 Cu1A 1_555 1_555
O7A C16A 1_555 1_555
O8A C17A 1_555 1_555
O9A H1A 1_555 1_555
O10A Cu2 1_555 1_555
H2A O10A 1_555 1_555
H3A O10A 1_555 1_555
O11A Cu2 1_555 1_555
H4A O11A 1_555 1_555
H5A O11A 1_555 1_555
N1_2 C18_2 1_555 1_555
N1A Cu1A 1_555 1_555
N2_2 Cu1 1_555 1_555
N2A Cu1A 1_555 1_555
N3A C30A 1_555 1_555
N3A_2 Cu2 1_555 1_555
C1A O1A 1_555 1_555
C2A O4A 1_555 1_555
C3A C8A 1_555 1_555
C4A C1A 1_555 1_555
C5A C2A 1_555 1_555
C6A C5A 1_555 1_555
H14A C6A 1_555 1_555
C7A C6A 1_555 1_555
H15A C7A 1_555 1_555
C8A C7A 1_555 1_555
C9A C4A 1_555 1_555
H16A C9A 1_555 1_555
C10A C3A 1_555 1_555
C11A C10A 1_555 1_555
H17A C11A 1_555 1_555
C12A C11A 1_555 1_555
C13A C12A 1_555 1_555
C14A C13A 1_555 1_555
H18A C14A 1_555 1_555
C15A C10A 1_555 1_555
H19A C15A 1_555 1_555
C16A C13A 1_555 1_555
C17A O9A 1_555 1_555
C18_2 H20_2 1_555 1_555
C19_2 C18_2 1_555 1_555
H21_2 C19_2 1_555 1_555
C20_2 C19_2 1_555 1_555
C21_2 C20_2 1_555 1_555
H22_2 C21_2 1_555 1_555
C22_2 N1_2 1_555 1_555
H23_2 C22_2 1_555 1_555
C23_2 C20_2 1_555 1_555
H24_2 C23_2 1_555 1_555
H25_2 C23_2 1_555 1_555
C24_2 C23_2 1_555 1_555
H26_2 C24_2 1_555 1_555
H27_2 C24_2 1_555 1_555
C25_2 C24_2 1_555 1_555
C26_2 C25_2 1_555 1_555
H28_2 C26_2 1_555 1_555
C27_2 N2_2 1_555 1_555
H29_2 C27_2 1_555 1_555
C28_2 N2_2 1_555 1_555
H30_2 C28_2 1_555 1_555
C29_2 C25_2 1_555 1_555
H31_2 C29_2 1_555 1_555
C30A H32A 1_555 1_555
C31A C30A 1_555 1_555
H33A C31A 1_555 1_555
C32A C31A 1_555 1_555
C33A C32A 1_555 1_555
H34A C33A 1_555 1_555
C34A N3A 1_555 1_555
H35A C34A 1_555 1_555
C35A C35 1_555 1_555
H36A C35A 1_555 1_555
H37A C35A 1_555 1_555
C8 C9 1_555 1_555
C12 C17 1_555 1_555
C14 C15 1_555 1_555
C21 C22 1_555 1_555
C28 C29 1_555 1_555
C33 C34 1_555 1_555
C4A C5A 1_555 1_555
C8A C9A 1_555 1_555
C12A C17A 1_555 1_555
C14A C15A 1_555 1_555
C21_2 C22_2 1_555 1_555
C26_2 C27_2 1_555 1_555
C28_2 C29_2 1_555 1_555
C32A C35A 1_555 1_555
C33A C34A 1_555 1_555

#END
