
#######################################################################
#
#                 Cambridge Crystallographic Data Centre
#                                CCDC 
#
#######################################################################
#
# If this CIF has been generated from an entry in the Cambridge 
# Structural Database, then it will include bibliographic, chemical, 
# crystal, experimental, refinement or atomic coordinate data resulting 
# from the CCDC's data processing and validation procedures.
#
#######################################################################

data_KOLMII
_symmetry_cell_setting           monoclinic
_symmetry_space_group_name_H-M   'C 2/c'
_symmetry_Int_Tables_number      15
_space_group_name_Hall           '-C 2yn'
loop_
_symmetry_equiv_pos_site_id
_symmetry_equiv_pos_as_xyz
1 x,y,z
2 1/2+x,1/2+y,z
3 -x,y,1/2-z
4 1/2-x,1/2+y,1/2-z
5 -x,-y,-z
6 1/2-x,1/2-y,-z
7 x,-y,1/2+z
8 1/2+x,1/2-y,1/2+z
_cell_length_a                   34.849(5)
_cell_length_b                   13.4109(15)
_cell_length_c                   26.387(3)
_cell_angle_alpha                90
_cell_angle_beta                 131.039(4)
_cell_angle_gamma                90
_cell_volume                     9301.67
loop_
_atom_site_label
_atom_site_type_symbol
_atom_site_fract_x
_atom_site_fract_y
_atom_site_fract_z
Cu1 Cu 0.75810(5) 0.50148(11) 0.85866(6)
Cu2 Cu 0.58261(5) 0.74618(11) 0.62706(7)
O1 O 0.6019(4) 0.5732(7) 0.6455(5)
O2 O 0.5738(4) 0.6439(8) 0.6883(6)
O3 O 0.6833(2) 0.5171(6) 0.7938(3)
O4 O 0.7013(3) 0.3575(6) 0.8042(4)
O5 O 0.5659(3) 0.1300(7) 0.7587(4)
O6 O 0.4131(3) 0.2037(6) 0.4385(4)
O7 O 0.4212(3) 0.0399(7) 0.4290(4)
O8 O 0.3286(3) 0.0410(6) 0.4223(4)
O9 O 0.3464(3) -0.1029(7) 0.4746(4)
O10 O 0.5638(3) 0.8823(6) 0.6556(4)
H1 H 0.5750 0.8950 0.6948
H2 H 0.5685 0.9065 0.6304
N1 N 0.6579(3) 0.7694(7) 0.7069(4)
N2 N 1.0087(3) 0.7761(8) 1.0477(5)
N3 N 0.7642(3) 0.5371(6) 0.7903(4)
N4 N 0.7538(4) 0.5116(9) 0.4300(4)
C1 C 0.5764(4) 0.4717(9) 0.6912(6)
C2 C 0.6137(5) 0.4070(10) 0.7333(6)
C3 C 0.6012(4) 0.3054(11) 0.7379(5)
H16 H 0.6270 0.2600 0.7670
C4 C 0.5496(4) 0.2761(9) 0.6980(5)
C5 C 0.5134(4) 0.3491(12) 0.6570(6)
H17 H 0.4791 0.3347 0.6317
C6 C 0.5279(5) 0.4422(11) 0.6537(6)
H18 H 0.5025 0.4878 0.6236
C7 C 0.5846(5) 0.5713(10) 0.6733(7)
C8 C 0.6703(4) 0.4263(11) 0.7810(5)
C9 C 0.5386(5) 0.1734(11) 0.7032(6)
C10 C 0.4940(4) 0.1195(9) 0.6452(5)
C11 C 0.4772(4) 0.1388(9) 0.5814(6)
H19 H 0.4940 0.1857 0.5759
C12 C 0.4340(5) 0.0860(10) 0.5242(5)
C13 C 0.4072(4) 0.0237(8) 0.5316(5)
C14 C 0.4260(4) -0.0001(10) 0.5961(5)
H20 H 0.4098 -0.0481 0.6017
C15 C 0.4683(5) 0.0475(10) 0.6506(6)
H21 H 0.4803 0.0310 0.6931
C16 C 0.4207(4) 0.1190(15) 0.4567(6)
C17 C 0.3576(5) -0.0174(11) 0.4728(7)
C18 C 0.6754(4) 0.7583(8) 0.7680(5)
H22 H 0.6531 0.7417 0.7746
C19 C 0.7268(4) 0.7708(8) 0.8234(5)
H23 H 0.7387 0.7645 0.8667
C20 C 0.7593(4) 0.7923(8) 0.8134(6)
C21 C 0.7414(4) 0.8013(8) 0.7524(5)
H24 H 0.7633 0.8129 0.7443
C22 C 0.6915(5) 0.7938(8) 0.7013(6)
H25 H 0.6795 0.8069 0.6584
C23 C 0.8171(4) 0.8009(9) 0.8784(5)
H26 H 0.8218 0.8582 0.9043
H27 H 0.8271 0.7419 0.9058
C24 C 0.8524(4) 0.8121(10) 0.8614(6)
H28 H 0.8439 0.7624 0.8287
H29 H 0.8485 0.8777 0.8430
C25 C 0.9079(4) 0.7970(11) 0.9282(6)
C26 C 0.9398(5) 0.8805(10) 0.9615(6)
H30 H 0.9281 0.9451 0.9459
C27 C 0.9899(4) 0.8613(11) 1.0192(6)
H31 H 1.0119 0.9156 1.0392
C28 C 0.9760(5) 0.7011(10) 1.0146(6)
H32 H 0.9877 0.6383 1.0340
C29 C 0.9278(4) 0.7067(9) 0.9557(6)
H33 H 0.9085 0.6492 0.9345
C30 C 0.8072(5) 0.5397(8) 0.8035(6)
H34 H 0.8366 0.5276 0.8476
C31 C 0.8126(5) 0.5587(9) 0.7579(6)
H35 H 0.8445 0.5632 0.7705
C32 C 0.7682(5) 0.5709(9) 0.6916(6)
C33 C 0.7240(5) 0.5720(9) 0.6769(6)
H36 H 0.6941 0.5847 0.6333
C34 C 0.7228(4) 0.5550(8) 0.7251(5)
H37 H 0.6912 0.5552 0.7135
C35 C 0.7728(5) 0.5883(11) 0.6390(7)
H38 H 0.7574 0.6517 0.6170
H39 H 0.8085 0.5909 0.6606
C36 C 0.7477(6) 0.5082(13) 0.5890(8)
H40 H 0.7124 0.5050 0.5688
H41 H 0.7635 0.4453 0.6117
C37 C 0.7497(7) 0.5205(16) 0.5344(9)
C38 C 0.7326(6) 0.4436(15) 0.4920(9)
H42 H 0.7173 0.3906 0.4957
C39 C 0.7365(6) 0.4383(13) 0.4415(7)
H43 H 0.7262 0.3804 0.4161
C40 C 0.7726(6) 0.5905(12) 0.4705(8)
H44 H 0.7882 0.6416 0.4660
C41 C 0.7683(7) 0.5968(15) 0.5230(7)
H45 H 0.7788 0.6546 0.5485
Cu1G Cu 1.25810(5) -0.00148(11) 1.35866(6)
Cu1G_2 Cu 0.25810(5) -0.00148(11) 0.35866(6)
Cu1F Cu 0.75810(5) 0.49852(11) 0.35866(6)
Cu1F_2 Cu 0.75810(5) 0.49852(11) 1.35866(6)
Cu2G Cu 1.08261(5) -0.24618(11) 1.12706(7)
Cu2D Cu 0.41739(5) 0.25382(11) 0.37294(7)
Cu2G_2 Cu 1.08261(5) 0.75382(11) 1.12706(7)
Cu2C Cu 0.91739(5) 0.24618(11) 0.87294(7)
Cu2G_3 Cu 0.08261(5) 0.75382(11) 0.12706(7)
O1G O 1.1019(4) -0.0732(7) 1.1455(5)
O2G O 1.0738(4) -0.1439(8) 1.1883(6)
O3G O 1.1833(2) -0.0171(6) 1.2938(3)
O4G O 1.2013(3) 0.1425(6) 1.3042(4)
O5G O 1.0659(3) 0.3700(7) 1.2587(4)
O6G O 0.9131(3) 0.2963(6) 0.9385(4)
O6D O 0.5869(3) 0.7963(6) 0.5615(4)
O6C O 1.0869(3) -0.2963(6) 1.0615(4)
O7G O 0.9212(3) 0.4601(7) 0.9290(4)
O8G O 0.8286(3) 0.4590(6) 0.9223(4)
O8_2 O 1.3286(3) 0.0410(6) 1.4223(4)
O9G O 0.8464(3) 0.6029(7) 0.9746(4)
O10G O 1.0638(3) -0.3823(6) 1.1556(4)
H1G H 1.0750 -0.3950 1.1948
H2G H 1.0685 -0.4065 1.1304
N1G N 0.1579(3) 0.7306(7) 0.2069(4)
N1G_2 N 1.1579(3) -0.2694(7) 1.2069(4)
N2G N 0.5087(3) 0.7239(8) 0.5477(5)
N2_2 N 1.0087(3) -0.2239(8) 1.0477(5)
N3F N 0.7642(3) 0.4629(6) 1.2903(4)
N3G N 1.2642(3) -0.0371(6) 1.2903(4)
N4F N 0.7538(4) 0.4884(9) 0.9300(4)
N4A N 1.2538(4) 0.0116(9) 1.4300(4)
C1G C 1.0764(4) 0.0283(9) 1.1912(6)
C2G C 1.1137(5) 0.0930(10) 1.2333(6)
C3G C 1.1012(4) 0.1946(11) 1.2379(5)
H16G H 1.1270 0.2400 1.2670
C4G C 1.0496(4) 0.2239(9) 1.1980(5)
C5G C 1.0134(4) 0.1509(12) 1.1570(6)
H17G H 0.9791 0.1653 1.1317
C6G C 1.0279(5) 0.0578(11) 1.1537(6)
H18G H 1.0025 0.0122 1.1236
C7G C 1.0846(5) -0.0713(10) 1.1733(7)
C8G C 1.1703(4) 0.0737(11) 1.2810(5)
C9G C 1.0386(5) 0.3266(11) 1.2032(6)
C10G C 0.9940(4) 0.3805(9) 1.1452(5)
C11G C 0.9772(4) 0.3612(9) 1.0814(6)
H19G H 0.9940 0.3143 1.0759
C12G C 0.9340(5) 0.4140(10) 1.0242(5)
C13G C 0.9072(4) 0.4763(8) 1.0316(5)
C14G C 0.9260(4) 0.5001(10) 1.0961(5)
H20G H 0.9098 0.5481 1.1017
C15G C 0.9683(5) 0.4525(10) 1.1506(6)
H21G H 0.9803 0.4690 1.1931
C16G C 0.9207(4) 0.3810(15) 0.9567(6)
C17G C 0.8576(5) 0.5174(11) 0.9728(7)
C18G C 0.1754(4) 0.7417(8) 0.2680(5)
H22G H 0.1531 0.7583 0.2746
C19G C 0.2268(4) 0.7292(8) 0.3234(5)
H23G H 0.2387 0.7355 0.3667
C20G C 0.2593(4) 0.7077(8) 0.3134(6)
C21G C 0.2414(4) 0.6987(8) 0.2524(5)
H24G H 0.2633 0.6871 0.2443
C22G C 0.1915(5) 0.7062(8) 0.2013(6)
H25G H 0.1795 0.6931 0.1584
C23G C 0.3171(4) 0.6991(9) 0.3784(5)
H26G H 0.3218 0.6418 0.4043
H27G H 0.3271 0.7581 0.4058
C24G C 0.3524(4) 0.6879(10) 0.3614(6)
H28G H 0.3439 0.7376 0.3287
H29G H 0.3485 0.6223 0.3430
C25G C 0.4079(4) 0.7030(11) 0.4282(6)
C26G C 0.4398(5) 0.6195(10) 0.4615(6)
H30G H 0.4281 0.5549 0.4459
C27G C 0.4899(4) 0.6387(11) 0.5192(6)
H31G H 0.5119 0.5844 0.5392
C28G C 0.4760(5) 0.7989(10) 0.5146(6)
H32G H 0.4877 0.8617 0.5340
C29G C 0.4278(4) 0.7933(9) 0.4557(6)
H33G H 0.4085 0.8508 0.4345
C30F C 0.8072(5) 0.4603(8) 1.3035(6)
H34F H 0.8366 0.4724 1.3476
C31F C 0.8126(5) 0.4413(9) 1.2579(6)
H35F H 0.8445 0.4368 1.2705
C32F C 0.7682(5) 0.4291(9) 1.1916(6)
C33F C 0.7240(5) 0.4280(9) 1.1769(6)
H36F H 0.6941 0.4153 1.1333
C34F C 0.7228(4) 0.4450(8) 1.2251(5)
H37F H 0.6912 0.4448 1.2135
C35F C 0.7728(5) 0.4117(11) 1.1390(7)
H38F H 0.7574 0.3483 1.1170
H39F H 0.8085 0.4091 1.1606
C36F C 0.7477(6) 0.4918(13) 1.0890(8)
H40F H 0.7124 0.4950 1.0688
H41F H 0.7635 0.5547 1.1117
C37F C 0.7497(7) 0.4795(16) 1.0344(9)
C38F C 0.7326(6) 0.5564(15) 0.9920(9)
H42F H 0.7173 0.6094 0.9957
C39F C 0.7365(6) 0.5617(13) 0.9415(7)
H43F H 0.7262 0.6196 0.9161
C40F C 0.7726(6) 0.4095(12) 0.9705(8)
H44F H 0.7882 0.3584 0.9660
C41F C 0.7683(7) 0.4032(15) 1.0230(7)
H45F H 0.7788 0.3454 1.0485
O11 O 0.6043(5) 1.7348(10) 0.9337(6)
H3 H 0.6189 1.7831 0.9612
H4 H 0.6053 1.6725 0.9404
O12 O 0.6068(6) 1.5385(11) 0.9569(8)
H5 H 0.5946 1.5258 0.9173
H6 H 0.6104 1.4830 0.9752
O13 O 0.6213(6) 1.3411(12) 1.0135(8)
H7 H 0.6203 1.3137 0.9844
H8 H 0.6206 1.2982 1.0359
O14 O 0.5814(7) 1.4762(13) 0.8372(8)
H9 H 0.5968 1.5118 0.8283
H10 H 0.5500 1.4867 0.8045
O15 O 0.6013(5) 0.9288(10) 0.7835(6)
H13 H 0.5932 0.9876 0.7785
H14 H 0.6014 0.8556 0.7776
H11 H 0.6065 1.3367 0.8777
H12 H 0.6014 1.2327 0.8553
O16 O 0.6168(6) 1.2701(11) 0.8910(8)
O17 O 0.5000 0.715(9) 0.7500
H15 H 0.5193 0.6973 0.7911
H15B H 0.4807 0.6973 0.7089
loop_
_geom_bond_atom_site_label_1
_geom_bond_atom_site_label_2
_geom_bond_site_symmetry_1
_geom_bond_site_symmetry_2
Cu1 O3 1_555 1_555
Cu2 O1 1_555 1_555
O1 C7 1_555 1_555
O2 Cu2 1_555 1_555
O3 C8 1_555 1_555
O4 Cu1 1_555 1_555
O5 C9 1_555 1_555
O6 C16 1_555 1_555
O7 C16 1_555 1_555
O8 C17 1_555 1_555
O9 C17 1_555 1_555
O10 Cu2 1_555 1_555
H1 O10 1_555 1_555
H2 O10 1_555 1_555
O11 H3 1_555 1_555
H4 O11 1_555 1_555
O12 H5 1_555 1_555
H6 O12 1_555 1_555
O13 H7 1_555 1_555
H8 O13 1_555 1_555
O14 H9 1_555 1_555
H10 O14 1_555 1_555
O15 H13 1_555 1_555
H11 O16 1_555 1_555
H12 O16 1_555 1_555
H14 O15 1_555 1_555
O17 H15 1_555 1_555
N1 Cu2 1_555 1_555
N2 C27 1_555 1_555
N3 Cu1 1_555 1_555
N4 C39 1_555 1_555
C1 C2 1_555 1_555
C2 C3 1_555 1_555
C3 H16 1_555 1_555
C4 C3 1_555 1_555
C5 C4 1_555 1_555
H17 C5 1_555 1_555
C6 C1 1_555 1_555
H18 C6 1_555 1_555
C7 O2 1_555 1_555
C8 O4 1_555 1_555
C9 C4 1_555 1_555
C10 C9 1_555 1_555
C11 C10 1_555 1_555
H19 C11 1_555 1_555
C12 C11 1_555 1_555
C13 C12 1_555 1_555
C14 C13 1_555 1_555
H20 C14 1_555 1_555
C15 C10 1_555 1_555
H21 C15 1_555 1_555
C16 C12 1_555 1_555
C17 C13 1_555 1_555
C18 N1 1_555 1_555
H22 C18 1_555 1_555
C19 C18 1_555 1_555
H23 C19 1_555 1_555
C20 C19 1_555 1_555
C21 C20 1_555 1_555
H24 C21 1_555 1_555
C22 N1 1_555 1_555
H25 C22 1_555 1_555
C23 C20 1_555 1_555
H26 C23 1_555 1_555
H27 C23 1_555 1_555
C24 C23 1_555 1_555
H28 C24 1_555 1_555
H29 C24 1_555 1_555
C25 C24 1_555 1_555
C26 C25 1_555 1_555
H30 C26 1_555 1_555
C27 C26 1_555 1_555
H31 C27 1_555 1_555
C28 N2 1_555 1_555
H32 C28 1_555 1_555
C29 C25 1_555 1_555
H33 C29 1_555 1_555
C30 N3 1_555 1_555
H34 C30 1_555 1_555
C31 C30 1_555 1_555
H35 C31 1_555 1_555
C32 C31 1_555 1_555
C33 C32 1_555 1_555
H36 C33 1_555 1_555
C34 N3 1_555 1_555
H37 C34 1_555 1_555
C35 C32 1_555 1_555
H38 C35 1_555 1_555
H39 C35 1_555 1_555
C36 C35 1_555 1_555
H40 C36 1_555 1_555
H41 C36 1_555 1_555
C37 C36 1_555 1_555
C38 C37 1_555 1_555
H42 C38 1_555 1_555
C39 C38 1_555 1_555
H43 C39 1_555 1_555
C40 N4 1_555 1_555
H44 C40 1_555 1_555
C41 C37 1_555 1_555
H45 C41 1_555 1_555
Cu1G O3G 1_555 1_555
Cu1G_2 O8 1_555 1_555
Cu1F N4 1_555 1_555
Cu1F_2 N3F 1_555 1_555
Cu2G O1G 1_555 1_555
Cu2D O6 1_555 1_555
Cu2G_2 N2 1_555 1_555
Cu2C O6G 1_555 1_555
Cu2G_3 N1G 1_555 1_555
O1G C7G 1_555 1_555
O2G Cu2G 1_555 1_555
O3G C8G 1_555 1_555
O4G Cu1G 1_555 1_555
O5G C9G 1_555 1_555
O6G C16G 1_555 1_555
O6D Cu2 1_555 1_555
O6C Cu2G 1_555 1_555
O7G C16G 1_555 1_555
O8G Cu1 1_555 1_555
O8_2 Cu1G 1_555 1_555
O9G C17G 1_555 1_555
O10G Cu2G 1_555 1_555
H1G O10G 1_555 1_555
H2G O10G 1_555 1_555
H15B O17 1_555 1_555
N1G C18G 1_555 1_555
N1G_2 Cu2G 1_555 1_555
N2G Cu2 1_555 1_555
N2_2 Cu2G 1_555 1_555
N3F C30F 1_555 1_555
N3G Cu1G 1_555 1_555
N4F Cu1 1_555 1_555
N4A Cu1G 1_555 1_555
C1G C2G 1_555 1_555
C2G C3G 1_555 1_555
C3G H16G 1_555 1_555
C4G C3G 1_555 1_555
C5G C4G 1_555 1_555
H17G C5G 1_555 1_555
C6G C1G 1_555 1_555
H18G C6G 1_555 1_555
C7G O2G 1_555 1_555
C8G O4G 1_555 1_555
C9G C4G 1_555 1_555
C10G C9G 1_555 1_555
C11G C10G 1_555 1_555
H19G C11G 1_555 1_555
C12G C11G 1_555 1_555
C13G C12G 1_555 1_555
C14G C13G 1_555 1_555
H20G C14G 1_555 1_555
C15G C10G 1_555 1_555
H21G C15G 1_555 1_555
C16G C12G 1_555 1_555
C17G O8G 1_555 1_555
C18G H22G 1_555 1_555
C19G C18G 1_555 1_555
H23G C19G 1_555 1_555
C20G C19G 1_555 1_555
C21G C20G 1_555 1_555
H24G C21G 1_555 1_555
C22G N1G 1_555 1_555
H25G C22G 1_555 1_555
C23G C20G 1_555 1_555
H26G C23G 1_555 1_555
H27G C23G 1_555 1_555
C24G C23G 1_555 1_555
H28G C24G 1_555 1_555
H29G C24G 1_555 1_555
C25G C24G 1_555 1_555
C26G C25G 1_555 1_555
H30G C26G 1_555 1_555
C27G N2G 1_555 1_555
H31G C27G 1_555 1_555
C28G N2G 1_555 1_555
H32G C28G 1_555 1_555
C29G C25G 1_555 1_555
H33G C29G 1_555 1_555
C30F H34F 1_555 1_555
C31F C30F 1_555 1_555
H35F C31F 1_555 1_555
C32F C31F 1_555 1_555
C33F C32F 1_555 1_555
H36F C33F 1_555 1_555
C34F N3F 1_555 1_555
H37F C34F 1_555 1_555
C35F C32F 1_555 1_555
H38F C35F 1_555 1_555
H39F C35F 1_555 1_555
C36F C35F 1_555 1_555
H40F C36F 1_555 1_555
H41F C36F 1_555 1_555
C37F C36F 1_555 1_555
C38F C37F 1_555 1_555
H42F C38F 1_555 1_555
C39F N4F 1_555 1_555
H43F C39F 1_555 1_555
C40F N4F 1_555 1_555
H44F C40F 1_555 1_555
C41F C37F 1_555 1_555
H45F C41F 1_555 1_555
C1 C7 1_555 1_555
C2 C8 1_555 1_555
C5 C6 1_555 1_555
C14 C15 1_555 1_555
C21 C22 1_555 1_555
C28 C29 1_555 1_555
C33 C34 1_555 1_555
C40 C41 1_555 1_555
C1G C7G 1_555 1_555
C2G C8G 1_555 1_555
C5G C6G 1_555 1_555
C13G C17G 1_555 1_555
C14G C15G 1_555 1_555
C21G C22G 1_555 1_555
C26G C27G 1_555 1_555
C28G C29G 1_555 1_555
C33F C34F 1_555 1_555
C38F C39F 1_555 1_555
C40F C41F 1_555 1_555

#END
