
#######################################################################
#
#                 Cambridge Crystallographic Data Centre
#                                CCDC 
#
#######################################################################
#
# If this CIF has been generated from an entry in the Cambridge 
# Structural Database, then it will include bibliographic, chemical, 
# crystal, experimental, refinement or atomic coordinate data resulting 
# from the CCDC's data processing and validation procedures.
#
#######################################################################

data_KOLMUU
_symmetry_cell_setting           monoclinic
_symmetry_space_group_name_H-M   'P 2/c'
_symmetry_Int_Tables_number      13
_space_group_name_Hall           '-P 2yc'
loop_
_symmetry_equiv_pos_site_id
_symmetry_equiv_pos_as_xyz
1 x,y,z
2 -x,y,1/2-z
3 -x,-y,-z
4 x,-y,1/2+z
_cell_length_a                   15.9043(13)
_cell_length_b                   6.1361(5)
_cell_length_c                   16.1034(14)
_cell_angle_alpha                90
_cell_angle_beta                 102.5100(10)
_cell_angle_gamma                90
_cell_volume                     1534.23
loop_
_atom_site_label
_atom_site_type_symbol
_atom_site_fract_x
_atom_site_fract_y
_atom_site_fract_z
Co1 Co 0.37430(2) 0.94408(6) 0.16933(3)
N1 N 0.25973(15) 1.1140(4) 0.09714(17)
O1 O 0.38554(18) 0.7613(4) 0.06446(18)
O2 O 0.45599(14) 1.1820(4) 0.14261(17)
O3 O 0.5000 0.7824(5) 0.2500
O4 O 0.29735(12) 0.7089(3) 0.20218(14)
O5 O 0.38405(12) 0.5509(3) 0.31398(14)
O6 O 0.37627(12) 0.0944(3) 0.28367(14)
O7 O 0.35153(15) 0.0511(4) 0.41202(15)
O8 O 0.0000 0.7459(6) 0.2500
C1 C 0.1806(2) 1.0440(6) 0.0981(2)
H1 H 0.1746 0.9086 0.1220
C2 C 0.1068(2) 1.1626(7) 0.0651(2)
H2 H 0.0531 1.1061 0.0671
C3 C 0.1132(2) 1.3657(6) 0.0291(2)
C4 C 0.1947(2) 1.4339(6) 0.0262(3)
H3 H 0.2024 1.5655 0.0001
C5 C 0.2649(2) 1.3088(6) 0.0615(2)
H4 H 0.3194 1.3629 0.0606
C6 C 0.0396(2) 1.5132(8) -0.0035(3)
C7 C 0.31354(18) 0.5756(5) 0.2635(2)
C8 C 0.23730(17) 0.4434(5) 0.27666(19)
C9 C 0.15619(18) 0.5349(5) 0.2562(2)
H5 H 0.1499 0.6736 0.2324
C10 C 0.08374(18) 0.4277(5) 0.2699(2)
C11 C 0.0000 0.5458(8) 0.2500
C12 C 0.09355(19) 0.2213(5) 0.3067(2)
H6 H 0.0457 0.1465 0.3164
C13 C 0.17387(19) 0.1282(5) 0.3287(2)
H7 H 0.1801 -0.0088 0.3539
C14 C 0.24599(18) 0.2365(5) 0.3136(2)
C15 C 0.33117(19) 0.1206(5) 0.3379(2)
H8 H 0.368(3) 0.817(7) 0.0175(15)
H9 H 0.453(2) 1.231(6) 0.0945(11)
H11 H 0.4344(11) 0.745(6) 0.057(2)
H12 H 0.5062(10) 1.156(6) 0.165(2)
H14 H 0.040(3) 1.643(4) -0.019(4)
H15 H 0.470(2) 0.705(5) 0.274(2)
Co1B Co -0.37430(2) 2.05592(6) -0.16933(3)
Co1A Co 0.62570(2) 0.94408(6) 0.33067(3)
Co1_2 Co 0.37430(2) -0.05592(6) 0.16933(3)
Co1A_2 Co -0.37430(2) 0.94408(6) 0.33067(3)
Co1A_3 Co -0.37430(2) -0.05592(6) 0.33067(3)
N1B N -0.25973(15) 1.8860(4) -0.09714(17)
O1B O -0.38554(18) 2.2387(4) -0.06446(18)
O2B O -0.45599(14) 1.8180(4) -0.14261(17)
O3C O -0.5000 2.2176(5) -0.2500
O4A O -0.29735(12) 0.7089(3) 0.29782(14)
O4B O -0.29735(12) 2.2911(3) -0.20218(14)
O5A O -0.38405(12) 0.5509(3) 0.18602(14)
O6A O -0.37627(12) 0.0944(3) 0.21633(14)
O6_2 O 0.37627(12) 1.0944(3) 0.28367(14)
O6B O -0.37627(12) 1.9056(3) -0.28367(14)
O7A O -0.35153(15) 0.0511(4) 0.08798(15)
C1B C -0.1806(2) 1.9560(6) -0.0981(2)
H1B H -0.1746 2.0914 -0.1220
C2B C -0.1068(2) 1.8374(7) -0.0651(2)
H2B H -0.0531 1.8939 -0.0671
C3B C -0.1132(2) 1.6343(6) -0.0291(2)
C4B C -0.1947(2) 1.5661(6) -0.0262(3)
H3B H -0.2024 1.4345 -0.0001
C5B C -0.2649(2) 1.6912(6) -0.0615(2)
H4B H -0.3194 1.6371 -0.0606
C6B C -0.0396(2) 1.4868(8) 0.0035(3)
C7A C -0.31354(18) 0.5756(5) 0.2365(2)
C8A C -0.23730(17) 0.4434(5) 0.22334(19)
C9A C -0.15619(18) 0.5349(5) 0.2438(2)
H5A H -0.1499 0.6736 0.2676
C10A C -0.08374(18) 0.4277(5) 0.2301(2)
C12A C -0.09355(19) 0.2213(5) 0.1933(2)
H6A H -0.0457 0.1465 0.1836
C13A C -0.17387(19) 0.1282(5) 0.1713(2)
H7A H -0.1801 -0.0088 0.1461
C14A C -0.24599(18) 0.2365(5) 0.1864(2)
C15A C -0.33117(19) 0.1206(5) 0.1621(2)
H8B H -0.368(3) 2.183(7) -0.0175(15)
H9B H -0.453(2) 1.769(6) -0.0945(11)
H11B H -0.4344(11) 2.255(6) -0.057(2)
H12B H -0.5062(10) 1.844(6) -0.165(2)
H14B H -0.040(3) 1.357(4) 0.019(4)
H15A H 0.530(2) 0.705(5) 0.226(2)
H15C H -0.530(2) 2.295(5) -0.226(2)
H15B H -0.470(2) 2.295(5) -0.274(2)
O9 O 0.45427(16) 0.7161(5) 0.47285(17)
H10 H 0.434(3) 0.615(5) 0.442(2)
H13 H 0.429(2) 0.828(4) 0.454(2)
loop_
_geom_bond_atom_site_label_1
_geom_bond_atom_site_label_2
_geom_bond_site_symmetry_1
_geom_bond_site_symmetry_2
Co1 N1 1_555 1_555
N1 C1 1_555 1_555
O1 Co1 1_555 1_555
O2 Co1 1_555 1_555
O3 Co1 1_555 1_555
O4 Co1 1_555 1_555
O5 C7 1_555 1_555
O6 C15 1_555 1_555
O7 C15 1_555 1_555
O8 C11 1_555 1_555
C1 H1 1_555 1_555
C2 C1 1_555 1_555
H2 C2 1_555 1_555
C3 C2 1_555 1_555
C4 C3 1_555 1_555
H3 C4 1_555 1_555
C5 N1 1_555 1_555
H4 C5 1_555 1_555
C6 C3 1_555 1_555
C7 O4 1_555 1_555
C8 C7 1_555 1_555
C9 C8 1_555 1_555
H5 C9 1_555 1_555
C10 C9 1_555 1_555
C11 C10 1_555 1_555
C12 C10 1_555 1_555
H6 C12 1_555 1_555
C13 C12 1_555 1_555
H7 C13 1_555 1_555
C14 C8 1_555 1_555
C15 C14 1_555 1_555
O9 H10 1_555 1_555
H8 O1 1_555 1_555
H9 O2 1_555 1_555
H11 O1 1_555 1_555
H12 O2 1_555 1_555
H13 O9 1_555 1_555
H14 C6 1_555 1_555
H15 O3 1_555 1_555
Co1B N1B 1_555 1_555
Co1A O3 1_555 1_555
Co1_2 O6 1_555 1_555
Co1A_2 O4A 1_555 1_555
Co1A_3 O6A 1_555 1_555
N1B C1B 1_555 1_555
O1B Co1B 1_555 1_555
O2B Co1B 1_555 1_555
O3C Co1B 1_555 1_555
O4A C7A 1_555 1_555
O4B Co1B 1_555 1_555
O5A C7A 1_555 1_555
O6A C15A 1_555 1_555
O6_2 Co1 1_555 1_555
O6B Co1B 1_555 1_555
O7A C15A 1_555 1_555
C1B H1B 1_555 1_555
C2B C1B 1_555 1_555
H2B C2B 1_555 1_555
C3B C2B 1_555 1_555
C4B C3B 1_555 1_555
H3B C4B 1_555 1_555
C5B N1B 1_555 1_555
H4B C5B 1_555 1_555
C6B C6 1_555 1_555
C7A C8A 1_555 1_555
C8A C9A 1_555 1_555
C9A H5A 1_555 1_555
C10A C11 1_555 1_555
C12A C10A 1_555 1_555
H6A C12A 1_555 1_555
C13A C12A 1_555 1_555
H7A C13A 1_555 1_555
C14A C8A 1_555 1_555
C15A C14A 1_555 1_555
H8B O1B 1_555 1_555
H9B O2B 1_555 1_555
H11B O1B 1_555 1_555
H12B O2B 1_555 1_555
H14B C6B 1_555 1_555
H15A O3 1_555 1_555
H15C O3C 1_555 1_555
H15B O3C 1_555 1_555
C4 C5 1_555 1_555
C13 C14 1_555 1_555
C3B C6B 1_555 1_555
C4B C5B 1_555 1_555
C9A C10A 1_555 1_555
C13A C14A 1_555 1_555

#END
