
#######################################################################
#
#                 Cambridge Crystallographic Data Centre
#                                CCDC 
#
#######################################################################
#
# If this CIF has been generated from an entry in the Cambridge 
# Structural Database, then it will include bibliographic, chemical, 
# crystal, experimental, refinement or atomic coordinate data resulting 
# from the CCDC's data processing and validation procedures.
#
#######################################################################

data_KOLMOO
_symmetry_cell_setting           monoclinic
_symmetry_space_group_name_H-M   'P 2/c'
_symmetry_Int_Tables_number      13
_space_group_name_Hall           '-P 2yc'
loop_
_symmetry_equiv_pos_site_id
_symmetry_equiv_pos_as_xyz
1 x,y,z
2 -x,y,1/2-z
3 -x,-y,-z
4 x,-y,1/2+z
_cell_length_a                   15.9854(15)
_cell_length_b                   6.1864(6)
_cell_length_c                   16.4143(16)
_cell_angle_alpha                90
_cell_angle_beta                 102.6420(10)
_cell_angle_gamma                90
_cell_volume                     1583.89
loop_
_atom_site_label
_atom_site_type_symbol
_atom_site_fract_x
_atom_site_fract_y
_atom_site_fract_z
Mn1 Mn 0.62568(2) 0.56225(7) 0.83116(3)
N1 N 0.74505(15) 0.3845(4) 0.90496(16)
O1 O 0.61339(16) 0.7461(4) 0.94052(16)
O2 O 0.54241(14) 0.3086(4) 0.85939(15)
O3 O 0.5000 0.7347(5) 0.7500
O4 O 0.70350(11) 0.8097(3) 0.79777(13)
O5 O 0.61772(11) 0.9583(3) 0.68633(13)
O6 O 0.62578(12) 1.4120(3) 0.71555(13)
O7 O 0.64787(14) 1.4506(4) 0.58801(14)
O8 O 1.0000 0.7697(5) 0.7500
C1 C 0.76382(16) 1.0678(4) 0.72312(17)
C2 C 0.84422(17) 0.9769(5) 0.74403(18)
H1 H 0.8506 0.8398 0.7678
C3 C 0.91653(16) 1.0857(4) 0.73039(18)
C4 C 0.90683(18) 1.2893(5) 0.69427(19)
H2 H 0.9545 1.3644 0.6855
C5 C 0.82621(17) 1.3804(5) 0.67141(19)
H3 H 0.8198 1.5157 0.6461
C6 C 0.75457(16) 1.2724(5) 0.68567(17)
C7 C 0.66884(17) 1.3856(5) 0.66131(18)
C8 C 0.68790(17) 0.9373(5) 0.73648(19)
C9 C 1.0000 0.9660(7) 0.7500
C10 C 0.82251(19) 0.4588(6) 0.9031(2)
H4 H 0.8264 0.5874 0.8748
C11 C 0.8974(2) 0.3559(6) 0.9407(2)
H5 H 0.9499 0.4141 0.9363
C12 C 0.8952(2) 0.1683(6) 0.9846(2)
C13 C 0.8150(2) 0.0906(6) 0.9865(2)
H6 H 0.8095 -0.0359 1.0155
C14 C 0.7430(2) 0.1995(6) 0.9456(2)
H7 H 0.6897 0.1402 0.9464
C15 C 0.9763(2) 0.0525(7) 1.0288(2)
H8 H 1.0139 0.1558 1.0633
H9 H 0.9612 -0.0567 1.0655
H10 H 0.632(3) 0.682(7) 0.9872(16)
H11 H 0.542(3) 0.262(6) 0.9080(12)
H12 H 0.5634(13) 0.764(7) 0.950(3)
H13 H 0.4908(11) 0.324(8) 0.834(2)
H16 H 0.529(2) 0.817(5) 0.725(2)
Mn1B Mn 1.37432(2) -0.56225(7) 1.16884(3)
Mn1A Mn 0.37432(2) 0.56225(7) 0.66884(3)
Mn1_2 Mn 0.62568(2) 1.56225(7) 0.83116(3)
Mn1A_2 Mn 1.37432(2) 1.56225(7) 0.66884(3)
Mn1A_3 Mn 1.37432(2) 0.56225(7) 0.66884(3)
N1B N 1.25495(15) -0.3845(4) 1.09504(16)
O1B O 1.38661(16) -0.7461(4) 1.05948(16)
O2B O 1.45759(14) -0.3086(4) 1.14061(15)
O3C O 1.5000 -0.7347(5) 1.2500
O4A O 1.29650(11) 0.8097(3) 0.70223(13)
O4B O 1.29650(11) -0.8097(3) 1.20223(13)
O5A O 1.38228(11) 0.9583(3) 0.81367(13)
O6A O 1.37422(12) 1.4120(3) 0.78445(13)
O6_2 O 0.62578(12) 0.4120(3) 0.71555(13)
O6B O 1.37422(12) -0.4120(3) 1.28445(13)
O7A O 1.35213(14) 1.4506(4) 0.91199(14)
C1A C 1.23618(16) 1.0678(4) 0.77688(17)
C2A C 1.15578(17) 0.9769(5) 0.75597(18)
H1A H 1.1494 0.8398 0.7322
C3A C 1.08347(16) 1.0857(4) 0.76961(18)
C4A C 1.09317(18) 1.2893(5) 0.80573(19)
H2A H 1.0455 1.3644 0.8145
C5A C 1.17379(17) 1.3804(5) 0.82859(19)
H3A H 1.1802 1.5157 0.8539
C6A C 1.24543(16) 1.2724(5) 0.81433(17)
C7A C 1.33116(17) 1.3856(5) 0.83869(18)
C8A C 1.31210(17) 0.9373(5) 0.76352(19)
C10B C 1.17749(19) -0.4588(6) 1.0969(2)
H4B H 1.1736 -0.5874 1.1252
C11B C 1.1026(2) -0.3559(6) 1.0593(2)
H5B H 1.0501 -0.4141 1.0637
C12B C 1.1048(2) -0.1683(6) 1.0154(2)
C13B C 1.1850(2) -0.0906(6) 1.0135(2)
H6B H 1.1905 0.0359 0.9845
C14B C 1.2570(2) -0.1995(6) 1.0544(2)
H7B H 1.3103 -0.1402 1.0536
C15B C 1.0237(2) -0.0525(7) 0.9712(2)
H8B H 0.9861 -0.1558 0.9367
H9B H 1.0388 0.0567 0.9345
H10B H 1.368(3) -0.682(7) 1.0128(16)
H11B H 1.458(3) -0.262(6) 1.0920(12)
H12B H 1.4366(13) -0.764(7) 1.050(3)
H13B H 1.5092(11) -0.324(8) 1.166(2)
H16A H 0.471(2) 0.817(5) 0.775(2)
H16C H 1.529(2) -0.817(5) 1.225(2)
H16B H 1.471(2) -0.817(5) 1.275(2)
O9 O 0.45154(15) 0.2122(5) 0.47140(15)
H14 H 0.431(2) 0.114(5) 0.436(2)
H15 H 0.425(3) 0.320(5) 0.446(3)
loop_
_geom_bond_atom_site_label_1
_geom_bond_atom_site_label_2
_geom_bond_site_symmetry_1
_geom_bond_site_symmetry_2
Mn1 N1 1_555 1_555
N1 C10 1_555 1_555
O1 Mn1 1_555 1_555
O2 Mn1 1_555 1_555
O3 Mn1 1_555 1_555
O4 Mn1 1_555 1_555
O5 C8 1_555 1_555
O6 C7 1_555 1_555
O7 C7 1_555 1_555
O8 C9 1_555 1_555
O9 H14 1_555 1_555
C1 C2 1_555 1_555
C2 H1 1_555 1_555
C3 C2 1_555 1_555
C4 C3 1_555 1_555
H2 C4 1_555 1_555
C5 C4 1_555 1_555
H3 C5 1_555 1_555
C6 C1 1_555 1_555
C7 C6 1_555 1_555
C8 O4 1_555 1_555
C9 C3 1_555 1_555
C10 H4 1_555 1_555
C11 C10 1_555 1_555
H5 C11 1_555 1_555
C12 C11 1_555 1_555
C13 C12 1_555 1_555
H6 C13 1_555 1_555
C14 N1 1_555 1_555
H7 C14 1_555 1_555
C15 C12 1_555 1_555
H8 C15 1_555 1_555
H9 C15 1_555 1_555
H10 O1 1_555 1_555
H11 O2 1_555 1_555
H12 O1 1_555 1_555
H13 O2 1_555 1_555
H15 O9 1_555 1_555
H16 O3 1_555 1_555
Mn1B N1B 1_555 1_555
Mn1A O3 1_555 1_555
Mn1_2 O6 1_555 1_555
Mn1A_2 O6A 1_555 1_555
Mn1A_3 O4A 1_555 1_555
N1B C10B 1_555 1_555
O1B Mn1B 1_555 1_555
O2B Mn1B 1_555 1_555
O3C Mn1B 1_555 1_555
O4A C8A 1_555 1_555
O4B Mn1B 1_555 1_555
O5A C8A 1_555 1_555
O6A C7A 1_555 1_555
O6_2 Mn1 1_555 1_555
O6B Mn1B 1_555 1_555
O7A C7A 1_555 1_555
C1A C2A 1_555 1_555
C2A H1A 1_555 1_555
C3A C9 1_555 1_555
C4A C3A 1_555 1_555
H2A C4A 1_555 1_555
C5A C4A 1_555 1_555
H3A C5A 1_555 1_555
C6A C1A 1_555 1_555
C7A C6A 1_555 1_555
C8A C1A 1_555 1_555
C10B H4B 1_555 1_555
C11B C10B 1_555 1_555
H5B C11B 1_555 1_555
C12B C11B 1_555 1_555
C13B C12B 1_555 1_555
H6B C13B 1_555 1_555
C14B N1B 1_555 1_555
H7B C14B 1_555 1_555
C15B C15 1_555 1_555
H8B C15B 1_555 1_555
H9B C15B 1_555 1_555
H10B O1B 1_555 1_555
H11B O2B 1_555 1_555
H12B O1B 1_555 1_555
H13B O2B 1_555 1_555
H16A O3 1_555 1_555
H16C O3C 1_555 1_555
H16B O3C 1_555 1_555
C1 C8 1_555 1_555
C5 C6 1_555 1_555
C13 C14 1_555 1_555
C2A C3A 1_555 1_555
C5A C6A 1_555 1_555
C12B C15B 1_555 1_555
C13B C14B 1_555 1_555

#END
