
#######################################################################
#
#                 Cambridge Crystallographic Data Centre
#                                CCDC 
#
#######################################################################
#
# If this CIF has been generated from an entry in the Cambridge 
# Structural Database, then it will include bibliographic, chemical, 
# crystal, experimental, refinement or atomic coordinate data resulting 
# from the CCDC's data processing and validation procedures.
#
#######################################################################

data_KOLNUV
_symmetry_cell_setting           monoclinic
_symmetry_space_group_name_H-M   'P 21/n'
_symmetry_Int_Tables_number      14
_space_group_name_Hall           '-P 2yn'
loop_
_symmetry_equiv_pos_site_id
_symmetry_equiv_pos_as_xyz
1 x,y,z
2 1/2-x,1/2+y,1/2-z
3 -x,-y,-z
4 1/2+x,1/2-y,1/2+z
_cell_length_a                   13.3717(9)
_cell_length_b                   13.6950(9)
_cell_length_c                   24.4168(17)
_cell_angle_alpha                90
_cell_angle_beta                 96.4120(10)
_cell_angle_gamma                90
_cell_volume                     4443.37
loop_
_atom_site_label
_atom_site_type_symbol
_atom_site_fract_x
_atom_site_fract_y
_atom_site_fract_z
Zn1 Zn 0.75810(2) 0.246922(19) 0.997663(11)
N1 N 0.60600(16) 0.31409(15) 0.97643(9)
C1 C 0.5600(2) 0.3526(2) 1.01726(11)
H1 H 0.5962 0.3594 1.0518
C2 C 0.4607(2) 0.3827(2) 1.01010(11)
H2 H 0.4315 0.4094 1.0395
C3 C 0.4050(2) 0.3733(2) 0.95971(11)
H3 H 0.3375 0.3913 0.9548
C4 C 0.4526(2) 0.33573(19) 0.91578(10)
C5 C 0.55315(19) 0.30836(18) 0.92630(10)
H4 H 0.5855 0.2849 0.8972
N2 N 0.40505(16) 0.32200(16) 0.86226(9)
H5 H 0.4328 0.2828 0.8410
C6 C 0.31675(19) 0.36716(19) 0.84147(11)
O1 O 0.27527(15) 0.43072(14) 0.86670(8)
N3 N 0.27968(16) 0.33718(16) 0.79071(9)
H6 H 0.3082 0.2909 0.7744
C7 C 0.1901(2) 0.3852(2) 0.76428(11)
H7 H 0.2014 0.4552 0.7642
H8 H 0.1343 0.3725 0.7854
C8 C 0.1631(2) 0.3509(2) 0.70617(11)
H9 H 0.2214 0.3537 0.6859
H10 H 0.1390 0.2840 0.7059
N4 N 0.08422(17) 0.41578(17) 0.68135(9)
H11 H 0.0666 0.4642 0.7005
C9 C 0.03776(18) 0.40403(18) 0.63038(11)
O2 O 0.06067(14) 0.34142(13) 0.59740(8)
N5 N -0.03853(16) 0.46964(16) 0.61728(9)
H12 H -0.0548 0.5057 0.6438
C10 C -0.09261(18) 0.48444(18) 0.56597(10)
C11 C -0.13968(18) 0.57447(19) 0.55732(10)
H13 H -0.1304 0.6202 0.5856
N6 N -0.19711(15) 0.60013(15) 0.51145(9)
C12 C -0.21056(18) 0.53364(18) 0.47093(10)
H14 H -0.2514 0.5492 0.4388
C13 C -0.1654(2) 0.44223(19) 0.47550(11)
H15 H -0.1755 0.3981 0.4464
C14 C -0.10521(19) 0.41660(19) 0.52330(10)
H16 H -0.0742 0.3558 0.5268
N7 N 0.91069(16) 0.18173(15) 1.02246(9)
C15 C 0.9684(2) 0.1500(2) 0.98451(11)
H17 H 0.9417 0.1498 0.9477
C16 C 1.0656(2) 0.1178(2) 0.99800(12)
H18 H 1.1027 0.0955 0.9705
C17 C 1.1084(2) 0.1184(2) 1.05225(12)
H19 H 1.1741 0.0970 1.0618
C18 C 1.05024(19) 0.15188(18) 1.09202(11)
C19 C 0.95140(18) 0.18012(18) 1.07502(11)
H20 H 0.9113 0.1990 1.1019
N8 N 1.08279(16) 0.16342(16) 1.14815(9)
H21 H 1.0528 0.2072 1.1656
C20 C 1.15858(19) 0.11110(19) 1.17824(11)
O3 O 1.20794(14) 0.04790(14) 1.15711(8)
N9 N 1.17342(16) 0.13729(17) 1.23167(9)
H22 H 1.1392 0.1847 1.2432
C21 C 1.24659(19) 0.0865(2) 1.27009(11)
H23 H 1.2522 0.0195 1.2579
H24 H 1.2223 0.0852 1.3061
C22 C 1.3501(2) 0.1331(2) 1.27546(12)
H25 H 1.3700 0.1456 1.2391
H26 H 1.3482 0.1950 1.2946
N10 N 1.42278(17) 0.06894(18) 1.30569(9)
H27 H 1.4443 0.0199 1.2884
C23 C 1.45867(18) 0.08078(19) 1.35862(11)
O4 O 1.44100(14) 0.15223(14) 1.38706(8)
N11 N 1.51863(16) 0.00491(16) 1.37924(9)
H28 H 1.5210 -0.0452 1.3582
C24 C 1.57614(18) -0.00003(18) 1.43049(10)
C25 C 1.61932(18) -0.09046(18) 1.44411(10)
H29 H 1.6053 -0.1415 1.4193
N12 N 1.67934(15) -0.10888(15) 1.49017(8)
C26 C 1.69901(19) -0.03468(19) 1.52639(10)
H30 H 1.7409 -0.0455 1.5588
C27 C 1.6580(2) 0.0563(2) 1.51595(11)
H31 H 1.6725 0.1059 1.5416
C28 C 1.5956(2) 0.07589(19) 1.46822(11)
H32 H 1.5676 0.1375 1.4615
O5 O 0.78038(16) 0.25344(15) 0.91399(9)
H33 H 0.760(3) 0.225(3) 0.8890(14)
H34 H 0.825(3) 0.282(3) 0.9074(14)
O6 O 0.73514(15) 0.23840(14) 1.08178(8)
H35 H 0.744(3) 0.278(3) 1.1017(15)
H36 H 0.682(3) 0.211(3) 1.0873(15)
Zn1A Zn -0.25810(2) 0.746922(19) 0.502337(11)
Zn1A_2 Zn 1.74190(2) -0.253078(19) 1.502337(11)
N6A N 0.69711(15) 0.10013(15) 0.98855(9)
N12A N 0.82066(15) 0.39112(15) 1.00983(8)
S1 S 0.48040(5) 0.16202(5) 0.75038(2)
O7 O 0.52524(16) 0.24760(14) 0.78065(8)
O8 O 0.37157(14) 0.15888(14) 0.75477(8)
O9 O 0.49832(14) 0.16682(13) 0.69178(7)
O10 O 0.52891(14) 0.07207(14) 0.77500(8)
O11 O 0.16795(17) 0.93547(17) 0.36581(9)
C29 C 0.0739(3) 0.9519(3) 0.33082(14)
H37 H 0.0881 0.9634 0.2933
H38 H 0.0412 1.0097 0.3433
C30 C 0.0044(2) 0.8660(2) 0.33199(15)
H39 H -0.0162 0.8589 0.3686
H40 H -0.0553 0.8767 0.3064
O12 O 0.05424(18) 0.77823(18) 0.31719(10)
C31 C 0.1446(3) 0.7652(3) 0.35354(15)
H41 H 0.1776 0.7053 0.3443
H42 H 0.1285 0.7597 0.3912
C32 C 0.2132(3) 0.8496(3) 0.34882(13)
H43 H 0.2763 0.8384 0.3717
H44 H 0.2275 0.8564 0.3109
O13 O 0.17520(18) 0.12632(19) 0.86684(11)
C33 C 0.0836(3) 0.1791(2) 0.85116(16)
H45 H 0.0909 0.2190 0.8190
H46 H 0.0692 0.2219 0.8810
C34 C -0.0015(2) 0.1081(3) 0.83834(15)
H47 H -0.0105 0.0706 0.8711
H48 H -0.0632 0.1438 0.8276
O14 O 0.01793(19) 0.0435(2) 0.79512(10)
C35 C 0.1088(3) -0.0065(3) 0.81012(15)
H49 H 0.1234 -0.0485 0.7800
H50 H 0.1019 -0.0474 0.8419
C36 C 0.1953(3) 0.0647(3) 0.82380(16)
H51 H 0.2569 0.0287 0.8344
H52 H 0.2046 0.1034 0.7915
O15 O 0.73127(18) 0.14062(16) 0.82569(9)
H53 H 0.749(2) 0.084(3) 0.8265(14)
H54 H 0.684(3) 0.142(3) 0.8138(18)
O16 O 0.25121(17) 0.62464(17) 0.84209(9)
H55 H 0.256(2) 0.569(3) 0.8499(13)
H56 H 0.215(3) 0.636(3) 0.8183(16)
loop_
_geom_bond_atom_site_label_1
_geom_bond_atom_site_label_2
_geom_bond_site_symmetry_1
_geom_bond_site_symmetry_2
Zn1 N1 1_555 1_555
N1 C1 1_555 1_555
C1 H1 1_555 1_555
C2 C1 1_555 1_555
H2 C2 1_555 1_555
C3 C2 1_555 1_555
H3 C3 1_555 1_555
C4 C3 1_555 1_555
C5 N1 1_555 1_555
H4 C5 1_555 1_555
N2 C4 1_555 1_555
H5 N2 1_555 1_555
C6 N2 1_555 1_555
O1 C6 1_555 1_555
N3 C6 1_555 1_555
H6 N3 1_555 1_555
C7 N3 1_555 1_555
H7 C7 1_555 1_555
H8 C7 1_555 1_555
C8 C7 1_555 1_555
H9 C8 1_555 1_555
H10 C8 1_555 1_555
N4 C8 1_555 1_555
H11 N4 1_555 1_555
C9 N4 1_555 1_555
O2 C9 1_555 1_555
N5 C9 1_555 1_555
H12 N5 1_555 1_555
C10 N5 1_555 1_555
C11 C10 1_555 1_555
H13 C11 1_555 1_555
N6 C11 1_555 1_555
C12 N6 1_555 1_555
H14 C12 1_555 1_555
C13 C12 1_555 1_555
H15 C13 1_555 1_555
C14 C10 1_555 1_555
H16 C14 1_555 1_555
N7 Zn1 1_555 1_555
C15 N7 1_555 1_555
H17 C15 1_555 1_555
C16 C15 1_555 1_555
H18 C16 1_555 1_555
C17 C16 1_555 1_555
H19 C17 1_555 1_555
C18 C17 1_555 1_555
C19 N7 1_555 1_555
H20 C19 1_555 1_555
N8 C18 1_555 1_555
H21 N8 1_555 1_555
C20 N8 1_555 1_555
O3 C20 1_555 1_555
N9 C20 1_555 1_555
H22 N9 1_555 1_555
C21 N9 1_555 1_555
H23 C21 1_555 1_555
H24 C21 1_555 1_555
C22 C21 1_555 1_555
H25 C22 1_555 1_555
H26 C22 1_555 1_555
N10 C22 1_555 1_555
H27 N10 1_555 1_555
C23 N10 1_555 1_555
O4 C23 1_555 1_555
N11 C23 1_555 1_555
H28 N11 1_555 1_555
C24 N11 1_555 1_555
C25 C24 1_555 1_555
H29 C25 1_555 1_555
N12 C25 1_555 1_555
C26 N12 1_555 1_555
H30 C26 1_555 1_555
C27 C26 1_555 1_555
H31 C27 1_555 1_555
C28 C24 1_555 1_555
H32 C28 1_555 1_555
O5 Zn1 1_555 1_555
H33 O5 1_555 1_555
H34 O5 1_555 1_555
O6 Zn1 1_555 1_555
H35 O6 1_555 1_555
H36 O6 1_555 1_555
S1 O7 1_555 1_555
O8 S1 1_555 1_555
O9 S1 1_555 1_555
O10 S1 1_555 1_555
O11 C29 1_555 1_555
C29 H37 1_555 1_555
H38 C29 1_555 1_555
C30 C29 1_555 1_555
H39 C30 1_555 1_555
H40 C30 1_555 1_555
O12 C30 1_555 1_555
C31 O12 1_555 1_555
H41 C31 1_555 1_555
H42 C31 1_555 1_555
C32 O11 1_555 1_555
H43 C32 1_555 1_555
H44 C32 1_555 1_555
O13 C33 1_555 1_555
C33 H45 1_555 1_555
H46 C33 1_555 1_555
C34 C33 1_555 1_555
H47 C34 1_555 1_555
H48 C34 1_555 1_555
O14 C34 1_555 1_555
C35 O14 1_555 1_555
H49 C35 1_555 1_555
H50 C35 1_555 1_555
C36 O13 1_555 1_555
H51 C36 1_555 1_555
H52 C36 1_555 1_555
O15 H53 1_555 1_555
H54 O15 1_555 1_555
O16 H55 1_555 1_555
H56 O16 1_555 1_555
Zn1A N6 1_555 1_555
Zn1A_2 N12 1_555 1_555
N6A Zn1 1_555 1_555
N12A Zn1 1_555 1_555
C4 C5 1_555 1_555
C13 C14 1_555 1_555
C18 C19 1_555 1_555
C27 C28 1_555 1_555
C31 C32 1_555 1_555
C35 C36 1_555 1_555

#END
