
#######################################################################
#
#                 Cambridge Crystallographic Data Centre
#                                CCDC 
#
#######################################################################
#
# If this CIF has been generated from an entry in the Cambridge 
# Structural Database, then it will include bibliographic, chemical, 
# crystal, experimental, refinement or atomic coordinate data resulting 
# from the CCDC's data processing and validation procedures.
#
#######################################################################

data_KOLPOR
_symmetry_cell_setting           monoclinic
_symmetry_space_group_name_H-M   'C 2/c'
_symmetry_Int_Tables_number      15
_space_group_name_Hall           '-C 2yn'
loop_
_symmetry_equiv_pos_site_id
_symmetry_equiv_pos_as_xyz
1 x,y,z
2 1/2+x,1/2+y,z
3 -x,y,1/2-z
4 1/2-x,1/2+y,1/2-z
5 -x,-y,-z
6 1/2-x,1/2-y,-z
7 x,-y,1/2+z
8 1/2+x,1/2-y,1/2+z
_cell_length_a                   22.3162(11)
_cell_length_b                   9.3759(5)
_cell_length_c                   22.4546(12)
_cell_angle_alpha                90
_cell_angle_beta                 103.061(1)
_cell_angle_gamma                90
_cell_volume                     4576.73
loop_
_atom_site_label
_atom_site_type_symbol
_atom_site_fract_x
_atom_site_fract_y
_atom_site_fract_z
Sm1 Sm 0.046073(10) 0.27268(2) 0.432472(10)
Sm2 Sm 0.154291(9) 0.35796(2) 0.178889(9)
O1 O -0.03776(15) 0.2841(4) 0.48796(15)
H1 H -0.0319 0.3360 0.5198
H2 H -0.0738 0.2492 0.4819
O2 O 0.12524(17) 0.0957(4) 0.42622(17)
H3 H 0.1337 0.0835 0.3915
H4 H 0.1315 0.0201 0.4476
O3 O 0.05824(17) 0.0838(4) 0.51260(16)
H5 H 0.0371 0.0610 0.5383
H6 H 0.0604 0.0071 0.4930
O4 O 0.07322(15) 0.3039(4) 0.33465(14)
O5 O 0.13191(16) 0.3920(4) 0.27540(14)
O6 O 0.31830(18) 0.6822(4) 0.38638(17)
O7 O 0.35410(15) 0.6270(4) 0.48379(17)
O8 O 0.16737(15) 0.5271(4) 0.58583(14)
O9 O 0.09554(14) 0.3872(4) 0.52862(14)
O10 O -0.23337(14) -0.4640(3) 0.28298(15)
O11 O -0.26067(16) -0.2501(4) 0.24477(19)
O12 O -0.09999(15) 0.1417(3) 0.30877(16)
O13 O -0.02078(15) 0.0841(3) 0.38533(15)
O14 O 0.02800(14) -0.4577(3) 0.41359(14)
O15 O -0.04634(14) -0.5975(3) 0.36516(14)
N1 N 0.14415(16) 0.4119(4) 0.43384(16)
N2 N -0.11837(16) -0.3849(4) 0.32227(16)
C1 C 0.1636(2) 0.4284(5) 0.38219(19)
C2 C 0.2171(2) 0.4997(5) 0.3806(2)
H7 H 0.2295 0.5110 0.3440
C3 C 0.2524(2) 0.5548(5) 0.4352(2)
C4 C 0.2308(2) 0.5418(5) 0.4884(2)
H8 H 0.2529 0.5797 0.5251
C5 C 0.1758(2) 0.4714(5) 0.48562(19)
C6 C 0.1195(2) 0.3684(5) 0.3262(2)
C7 C 0.3132(2) 0.6277(5) 0.4353(2)
C8 C 0.1439(2) 0.4594(5) 0.5383(2)
C9 C -0.1588(2) -0.2820(5) 0.3007(2)
C10 C -0.1437(2) -0.1388(5) 0.3056(2)
H9 H -0.1728 -0.0693 0.2900
C11 C -0.0838(2) -0.1016(5) 0.3344(2)
C12 C -0.0414(2) -0.2079(5) 0.3573(2)
H10 H -0.0010 -0.1859 0.3763
C13 C -0.0615(2) -0.3478(5) 0.3506(2)
C14 C -0.2231(2) -0.3356(5) 0.2735(2)
C15 C -0.0667(2) 0.0545(5) 0.3430(2)
C16 C -0.02332(19) -0.4740(5) 0.37825(19)
Sm1_2 Sm 0.046073(10) 1.27268(2) 0.432472(10)
Sm1_3 Sm 0.046073(10) -0.72732(2) 0.432472(10)
Sm1C Sm 0.453927(10) -0.22732(2) 0.067528(10)
Sm2C Sm 0.345709(9) 0.85796(2) 0.321111(9)
Sm2F Sm 0.154291(9) 0.64204(2) 0.678889(9)
Sm2B Sm -0.154291(9) -0.64204(2) 0.321111(9)
Sm2A Sm -0.345709(9) -0.14204(2) 0.178889(9)
Sm2B_2 Sm -0.154291(9) 0.35796(2) 0.321111(9)
Sm2A_2 Sm -0.345709(9) 0.85796(2) 0.178889(9)
Sm2B_3 Sm -0.154291(9) 1.35796(2) 0.321111(9)
Sm2C_2 Sm 0.345709(9) -0.14204(2) 0.321111(9)
Sm2E Sm 0.345709(9) 0.14204(2) -0.178889(9)
O1_2 O -0.03776(15) 1.2841(4) 0.48796(15)
H1_2 H -0.0319 1.3360 0.5198
H2_2 H -0.0738 1.2492 0.4819
O2_2 O 0.12524(17) 1.0957(4) 0.42622(17)
H3_2 H 0.1337 1.0835 0.3915
H4_2 H 0.1315 1.0201 0.4476
O3_2 O 0.05824(17) 1.0838(4) 0.51260(16)
H5_2 H 0.0371 1.0610 0.5383
H6_2 H 0.0604 1.0071 0.4930
O4C O 0.42678(15) -0.1961(4) 0.16535(14)
O4_2 O 0.07322(15) 1.3039(4) 0.33465(14)
O5C O 0.36809(16) -0.1080(4) 0.22460(14)
O5C_2 O 0.36809(16) 0.8920(4) 0.22460(14)
O6C O 0.18170(18) 0.1822(4) 0.11362(17)
O7C O 0.14590(15) 0.1270(4) 0.01621(17)
O8C O 0.33263(15) 0.0271(4) -0.08583(14)
O8F O 0.16737(15) 0.4729(4) 0.08583(14)
O8E O 0.33263(15) 0.9729(4) 0.41417(14)
O9C O 0.40446(14) -0.1128(4) -0.02862(14)
O9_2 O 0.09554(14) 1.3872(4) 0.52862(14)
O10_2 O -0.23337(14) 0.5360(3) 0.28298(15)
O10B O 0.23337(14) 0.5360(3) 0.21702(15)
O10A O 0.26663(14) 1.0360(3) 0.28298(15)
O11_2 O -0.26067(16) 0.7499(4) 0.24477(19)
O11A O 0.23933(16) 0.2499(4) 0.24477(19)
O11B O 0.26067(16) 0.7499(4) 0.25523(19)
O12_2 O -0.09999(15) 1.1417(3) 0.30877(16)
O12B O 0.09999(15) 0.1417(3) 0.19123(16)
O12A O 0.40001(15) 0.6417(3) 0.30877(16)
O13_2 O -0.02078(15) 1.0841(3) 0.38533(15)
O14_2 O 0.02800(14) 0.5423(3) 0.41359(14)
O14_3 O 0.02800(14) 1.5423(3) 0.41359(14)
O15_2 O -0.04634(14) 0.4025(3) 0.36516(14)
O15B O 0.04634(14) 0.4025(3) 0.13484(14)
O15_3 O -0.04634(14) 1.4025(3) 0.36516(14)
O15A O 0.45366(14) 0.9025(3) 0.36516(14)
N1C N 0.35585(16) -0.0881(4) 0.06616(16)
N1_2 N 0.14415(16) 1.4119(4) 0.43384(16)
N2_2 N -0.11837(16) 0.6151(4) 0.32227(16)
N2B N 0.11837(16) 0.6151(4) 0.17773(16)
N2A N 0.38163(16) 1.1151(4) 0.32227(16)
C1C C 0.3364(2) -0.0716(5) 0.11781(19)
C2C C 0.2829(2) -0.0003(5) 0.1194(2)
H7C H 0.2705 0.0110 0.1560
C3C C 0.2476(2) 0.0548(5) 0.0648(2)
C4C C 0.2692(2) 0.0418(5) 0.0116(2)
H8C H 0.2471 0.0797 -0.0251
C5C C 0.3242(2) -0.0286(5) 0.01438(19)
C6C C 0.3805(2) -0.1316(5) 0.1738(2)
C7C C 0.1868(2) 0.1277(5) 0.0647(2)
C8C C 0.3561(2) -0.0406(5) -0.0383(2)
C9_2 C -0.1588(2) 0.7180(5) 0.3007(2)
C10_2 C -0.1437(2) 0.8612(5) 0.3056(2)
H9_2 H -0.1728 0.9307 0.2900
C11_2 C -0.0838(2) 0.8984(5) 0.3344(2)
C12_2 C -0.0414(2) 0.7921(5) 0.3573(2)
H10_2 H -0.0010 0.8141 0.3763
C13_2 C -0.0615(2) 0.6522(5) 0.3506(2)
C14_2 C -0.2231(2) 0.6644(5) 0.2735(2)
C15_2 C -0.0667(2) 1.0545(5) 0.3430(2)
C16_2 C -0.02332(19) 0.5260(5) 0.37825(19)
O16 O 0.1528(2) 0.0302(6) 0.3201(2)
O17 O 0.0000 0.5539(14) 0.2500
O18 O 0.0000 0.0696(18) 0.2500
O19 O -0.0872(12) 0.756(3) 0.1815(12)
loop_
_geom_bond_atom_site_label_1
_geom_bond_atom_site_label_2
_geom_bond_site_symmetry_1
_geom_bond_site_symmetry_2
Sm1 O1 1_555 1_555
Sm2 O5 1_555 1_555
O1 H1 1_555 1_555
H2 O1 1_555 1_555
O2 Sm1 1_555 1_555
H3 O2 1_555 1_555
H4 O2 1_555 1_555
O3 Sm1 1_555 1_555
H5 O3 1_555 1_555
H6 O3 1_555 1_555
O4 Sm1 1_555 1_555
O5 C6 1_555 1_555
O6 C7 1_555 1_555
O7 C7 1_555 1_555
O8 C8 1_555 1_555
O9 Sm1 1_555 1_555
O10 C14 1_555 1_555
O11 C14 1_555 1_555
O12 C15 1_555 1_555
O13 Sm1 1_555 1_555
O14 C16 1_555 1_555
O15 C16 1_555 1_555
N1 Sm1 1_555 1_555
N2 C9 1_555 1_555
C1 N1 1_555 1_555
C2 C1 1_555 1_555
H7 C2 1_555 1_555
C3 C2 1_555 1_555
C4 C3 1_555 1_555
H8 C4 1_555 1_555
C5 N1 1_555 1_555
C6 O4 1_555 1_555
C7 C3 1_555 1_555
C8 O9 1_555 1_555
C9 C10 1_555 1_555
C10 H9 1_555 1_555
C11 C10 1_555 1_555
C12 C11 1_555 1_555
H10 C12 1_555 1_555
C13 N2 1_555 1_555
C14 C9 1_555 1_555
C15 O13 1_555 1_555
C16 C13 1_555 1_555
Sm1_2 O1_2 1_555 1_555
Sm1_3 O14 1_555 1_555
Sm1C O4C 1_555 1_555
Sm2C O6 1_555 1_555
Sm2F O8 1_555 1_555
Sm2B O10 1_555 1_555
Sm2A O11 1_555 1_555
Sm2B_2 O12 1_555 1_555
Sm2A_2 O11_2 1_555 1_555
Sm2B_3 O12_2 1_555 1_555
Sm2C_2 O5C 1_555 1_555
Sm2E O8C 1_555 1_555
O1_2 H1_2 1_555 1_555
H2_2 O1_2 1_555 1_555
O2_2 Sm1_2 1_555 1_555
H3_2 O2_2 1_555 1_555
H4_2 O2_2 1_555 1_555
O3_2 Sm1_2 1_555 1_555
H5_2 O3_2 1_555 1_555
H6_2 O3_2 1_555 1_555
O4C C6C 1_555 1_555
O4_2 Sm1_2 1_555 1_555
O5C C6C 1_555 1_555
O5C_2 Sm2C 1_555 1_555
O6C Sm2 1_555 1_555
O7C C7C 1_555 1_555
O8C C8C 1_555 1_555
O8F Sm2 1_555 1_555
O8E Sm2C 1_555 1_555
O9C Sm1C 1_555 1_555
O9_2 Sm1_2 1_555 1_555
O10_2 Sm2B_2 1_555 1_555
O10B Sm2 1_555 1_555
O10A Sm2C 1_555 1_555
O11_2 C14_2 1_555 1_555
O11A Sm2 1_555 1_555
O11B Sm2C 1_555 1_555
O12_2 C15_2 1_555 1_555
O12B Sm2 1_555 1_555
O12A Sm2C 1_555 1_555
O13_2 Sm1_2 1_555 1_555
O14_2 Sm1 1_555 1_555
O14_3 Sm1_2 1_555 1_555
O15_2 Sm1 1_555 1_555
O15B Sm2 1_555 1_555
O15_3 Sm1_2 1_555 1_555
O15A Sm2C 1_555 1_555
N1C Sm1C 1_555 1_555
N1_2 Sm1_2 1_555 1_555
N2_2 Sm2B_2 1_555 1_555
N2B Sm2 1_555 1_555
N2A Sm2C 1_555 1_555
C1C N1C 1_555 1_555
C2C C1C 1_555 1_555
H7C C2C 1_555 1_555
C3C C2C 1_555 1_555
C4C C3C 1_555 1_555
H8C C4C 1_555 1_555
C5C N1C 1_555 1_555
C6C C1C 1_555 1_555
C7C O6C 1_555 1_555
C8C O9C 1_555 1_555
C9_2 N2_2 1_555 1_555
C10_2 C9_2 1_555 1_555
H9_2 C10_2 1_555 1_555
C11_2 C10_2 1_555 1_555
C12_2 C11_2 1_555 1_555
H10_2 C12_2 1_555 1_555
C13_2 N2_2 1_555 1_555
C14_2 O10_2 1_555 1_555
C15_2 O13_2 1_555 1_555
C16_2 O14_2 1_555 1_555
O15 Sm1_3 1_555 1_555
O15 Sm2B 1_555 1_555
N2 Sm2B 1_555 1_555
C1 C6 1_555 1_555
C4 C5 1_555 1_555
C5 C8 1_555 1_555
C11 C15 1_555 1_555
C12 C13 1_555 1_555
Sm2B_2 O15_2 1_555 1_555
Sm2B_3 O15_3 1_555 1_555
O15_2 C16_2 1_555 1_555
C3C C7C 1_555 1_555
C4C C5C 1_555 1_555
C5C C8C 1_555 1_555
C9_2 C14_2 1_555 1_555
C11_2 C15_2 1_555 1_555
C12_2 C13_2 1_555 1_555
C13_2 C16_2 1_555 1_555

#END
