
#######################################################################
#
#                 Cambridge Crystallographic Data Centre
#                                CCDC 
#
#######################################################################
#
# If this CIF has been generated from an entry in the Cambridge 
# Structural Database, then it will include bibliographic, chemical, 
# crystal, experimental, refinement or atomic coordinate data resulting 
# from the CCDC's data processing and validation procedures.
#
#######################################################################

data_KOLPAD
_symmetry_cell_setting           orthorhombic
_symmetry_space_group_name_H-M   'P 21 21 21'
_symmetry_Int_Tables_number      19
_space_group_name_Hall           'P 2ac 2ab'
loop_
_symmetry_equiv_pos_site_id
_symmetry_equiv_pos_as_xyz
1 x,y,z
2 1/2-x,-y,1/2+z
3 -x,1/2+y,1/2-z
4 1/2+x,1/2-y,-z
_cell_length_a                   8.7404(8)
_cell_length_b                   11.3039(10)
_cell_length_c                   27.252(3)
_cell_angle_alpha                90
_cell_angle_beta                 90
_cell_angle_gamma                90
_cell_volume                     2692.51
loop_
_atom_site_label
_atom_site_type_symbol
_atom_site_fract_x
_atom_site_fract_y
_atom_site_fract_z
Zn1 Zn 1.06681(3) 1.00329(3) 0.868002(10)
N1 N 1.2027(3) 1.1480(2) 0.87924(8)
N2 N 1.3805(3) 1.28146(18) 0.86537(10)
N3 N 1.2119(3) 1.8704(2) 0.88244(8)
N4 N 1.3064(3) 1.6915(2) 0.87684(9)
O1 O 0.8951(2) 1.03555(16) 0.91066(7)
O2 O 0.8609(3) 0.84079(19) 0.91424(8)
O3 O 0.5128(3) 1.16302(18) 1.28652(7)
O4 O 0.4476(2) 0.97407(15) 1.29754(6)
O5 O 0.2213(2) 1.13622(16) 1.04522(7)
O6 O 0.1862(2) 0.92043(17) 1.05503(7)
S1 S 0.28375(8) 1.02242(6) 1.05840(2)
C1 C 0.8283(3) 0.9420(3) 0.92676(10)
C2 C 0.7009(3) 0.9633(2) 0.96306(9)
C3 C 0.6455(3) 1.0768(2) 0.97077(10)
H1 H 0.6927 1.1409 0.9557
C4 C 0.5198(3) 1.0949(2) 1.00092(10)
H2 H 0.4832 1.1711 1.0064
C5 C 0.4494(3) 0.9988(2) 1.02286(8)
C6 C 0.5065(3) 0.8844(2) 1.01679(10)
H3 H 0.4610 0.8204 1.0325
C7 C 0.6326(3) 0.8685(2) 0.98670(10)
H4 H 0.6722 0.7929 0.9823
C8 C 0.4697(3) 1.0668(3) 1.27127(10)
C9 C 0.4343(4) 1.0521(2) 1.21707(10)
C10 C 0.4429(3) 1.1497(2) 1.18599(10)
H5 H 0.4778 1.2216 1.1982
C11 C 0.4002(3) 1.1413(2) 1.13726(10)
H6 H 0.4051 1.2069 1.1167
C12 C 0.3500(3) 1.0328(2) 1.11957(9)
C13 C 0.3434(3) 0.9333(2) 1.14932(10)
H7 H 0.3111 0.8609 1.1368
C14 C 0.3863(3) 0.9442(2) 1.19837(11)
H8 H 0.3828 0.8784 1.2188
C15 C 1.2900(4) 1.1981(2) 0.84604(11)
H9 H 1.2890 1.1781 0.8129
C16 C 1.2395(4) 1.2030(3) 0.92256(11)
H10 H 1.1963 1.1863 0.9530
C17 C 1.3479(4) 1.2848(3) 0.91390(13)
H11 H 1.3923 1.3346 0.9370
C18 C 1.4960(4) 1.3528(3) 0.83906(13)
H12 H 1.5681 1.2998 0.8233
H13 H 1.5523 1.3998 0.8627
C19 C 1.4287(4) 1.4342(2) 0.80080(13)
C20 C 1.4479(5) 1.4074(3) 0.75137(15)
H14 H 1.5023 1.3399 0.7426
C21 C 1.3887(5) 1.4779(4) 0.71544(15)
H15 H 1.4017 1.4578 0.6826
C22 C 1.3106(5) 1.5775(3) 0.72768(14)
H16 H 1.2709 1.6257 0.7031
C23 C 1.2899(4) 1.6073(3) 0.77601(13)
H17 H 1.2365 1.6759 0.7839
C24 C 1.3481(3) 1.5362(2) 0.81349(12)
C25 C 1.3170(4) 1.5649(2) 0.86684(13)
H18 H 1.2219 1.5274 0.8766
H19 H 1.3982 1.5316 0.8868
C26 C 1.4266(4) 1.7653(3) 0.88762(12)
H20 H 1.5285 1.7439 0.8918
C27 C 1.3665(4) 1.8751(3) 0.89099(12)
H21 H 1.4216 1.9435 0.8980
C28 C 1.1815(4) 1.7587(2) 0.87456(11)
H22 H 1.0840 1.7297 0.8681
Zn1_2 Zn 1.06681(3) 2.00329(3) 0.868002(10)
Zn1A Zn 0.43319(3) 0.99671(3) 1.368002(10)
N3_2 N 1.2119(3) 0.8704(2) 0.88244(8)
O4A O 1.0524(2) 1.02593(15) 0.79754(6)
loop_
_geom_bond_atom_site_label_1
_geom_bond_atom_site_label_2
_geom_bond_site_symmetry_1
_geom_bond_site_symmetry_2
Zn1 N1 1_555 1_555
N1 C15 1_555 1_555
N2 C15 1_555 1_555
N3 C27 1_555 1_555
N4 C25 1_555 1_555
O1 Zn1 1_555 1_555
O2 C1 1_555 1_555
O3 C8 1_555 1_555
O4 C8 1_555 1_555
O5 S1 1_555 1_555
O6 S1 1_555 1_555
S1 C5 1_555 1_555
C1 O1 1_555 1_555
C2 C1 1_555 1_555
C3 C2 1_555 1_555
H1 C3 1_555 1_555
C4 C3 1_555 1_555
H2 C4 1_555 1_555
C5 C4 1_555 1_555
C6 C5 1_555 1_555
H3 C6 1_555 1_555
C7 C2 1_555 1_555
H4 C7 1_555 1_555
C8 C9 1_555 1_555
C9 C10 1_555 1_555
C10 H5 1_555 1_555
C11 C10 1_555 1_555
H6 C11 1_555 1_555
C12 S1 1_555 1_555
C13 C12 1_555 1_555
H7 C13 1_555 1_555
C14 C9 1_555 1_555
H8 C14 1_555 1_555
C15 H9 1_555 1_555
C16 N1 1_555 1_555
H10 C16 1_555 1_555
C17 N2 1_555 1_555
H11 C17 1_555 1_555
C18 N2 1_555 1_555
H12 C18 1_555 1_555
H13 C18 1_555 1_555
C19 C18 1_555 1_555
C20 C19 1_555 1_555
H14 C20 1_555 1_555
C21 C20 1_555 1_555
H15 C21 1_555 1_555
C22 C21 1_555 1_555
H16 C22 1_555 1_555
C23 C22 1_555 1_555
H17 C23 1_555 1_555
C24 C19 1_555 1_555
C25 C24 1_555 1_555
H18 C25 1_555 1_555
H19 C25 1_555 1_555
C26 N4 1_555 1_555
H20 C26 1_555 1_555
C27 C26 1_555 1_555
H21 C27 1_555 1_555
C28 N3 1_555 1_555
H22 C28 1_555 1_555
Zn1_2 N3 1_555 1_555
Zn1A O4 1_555 1_555
N3_2 Zn1 1_555 1_555
O4A Zn1 1_555 1_555
N4 C28 1_555 1_555
C6 C7 1_555 1_555
C11 C12 1_555 1_555
C13 C14 1_555 1_555
C16 C17 1_555 1_555
C23 C24 1_555 1_555

#END
