
#######################################################################
#
#                 Cambridge Crystallographic Data Centre
#                                CCDC 
#
#######################################################################
#
# If this CIF has been generated from an entry in the Cambridge 
# Structural Database, then it will include bibliographic, chemical, 
# crystal, experimental, refinement or atomic coordinate data resulting 
# from the CCDC's data processing and validation procedures.
#
#######################################################################

data_KOLPEH
_symmetry_cell_setting           orthorhombic
_symmetry_space_group_name_H-M   'P c a 21'
_symmetry_Int_Tables_number      29
_space_group_name_Hall           'P 2c -2ac'
loop_
_symmetry_equiv_pos_site_id
_symmetry_equiv_pos_as_xyz
1 x,y,z
2 -x,-y,1/2+z
3 1/2-x,y,1/2+z
4 1/2+x,-y,z
_cell_length_a                   28.635(3)
_cell_length_b                   11.1436(12)
_cell_length_c                   17.0423(18)
_cell_angle_alpha                90
_cell_angle_beta                 90
_cell_angle_gamma                90
_cell_volume                     5438.15
loop_
_atom_site_label
_atom_site_type_symbol
_atom_site_fract_x
_atom_site_fract_y
_atom_site_fract_z
Zn1 Zn 0.29604(3) 0.52521(7) 0.64202(5)
N1 N 0.3051(2) 0.6561(5) 0.7210(3)
N2 N 0.2916(2) 0.7876(5) 0.8142(4)
N3 N 0.2910(2) 1.1993(6) 0.7635(4)
N4 N 0.2938(2) 1.3865(6) 0.7188(3)
O1 O 0.3515(2) 0.4820(6) 0.5830(4)
O2 O 0.3601(3) 0.6616(7) 0.5562(8)
O3 O 0.7425(3) 0.5366(9) 0.5727(5)
O4 O 0.7263(3) 0.3544(9) 0.6078(6)
O5 O 0.55220(16) 0.5451(5) 0.3097(3)
O6 O 0.54049(16) 0.3298(5) 0.3354(3)
S1 S 0.54596(6) 0.44774(18) 0.36561(12)
C1 C 0.3736(3) 0.5612(9) 0.5542(6)
C2 C 0.4177(3) 0.5333(7) 0.5107(5)
C3 C 0.4500(3) 0.6196(7) 0.4960(5)
H1 H 0.4450 0.6971 0.5145
C4 C 0.4904(2) 0.5942(7) 0.4539(4)
H2 H 0.5129 0.6532 0.4464
C5 C 0.4968(2) 0.4816(6) 0.4235(4)
C6 C 0.4641(3) 0.3918(7) 0.4387(5)
H3 H 0.4684 0.3144 0.4196
C7 C 0.4246(3) 0.4209(7) 0.4835(5)
H4 H 0.4028 0.3616 0.4947
C8 C 0.7188(4) 0.4513(14) 0.5712(6)
C9 C 0.6724(2) 0.4488(7) 0.5235(4)
C10 C 0.6584(2) 0.5502(7) 0.4879(5)
H5 H 0.6757 0.6200 0.4947
C11 C 0.6188(2) 0.5536(7) 0.4413(4)
H6 H 0.6091 0.6251 0.4184
C12 C 0.5939(2) 0.4487(6) 0.4296(4)
C13 C 0.6073(2) 0.3463(7) 0.4661(4)
H7 H 0.5899 0.2765 0.4597
C14 C 0.6467(2) 0.3454(7) 0.5128(4)
H8 H 0.6560 0.2746 0.5372
C15 C 0.2742(3) 0.7162(7) 0.7581(4)
H9 H 0.2424 0.7109 0.7472
C16 C 0.3465(3) 0.6904(8) 0.7540(5)
H10 H 0.3758 0.6625 0.7391
C17 C 0.3385(3) 0.7702(8) 0.8108(5)
H11 H 0.3608 0.8070 0.8422
C18 C 0.2680(3) 0.8596(8) 0.8729(5)
H12 H 0.2903 0.9138 0.8969
H13 H 0.2560 0.8073 0.9137
C19 C 0.2286(3) 0.9311(8) 0.8393(5)
C20 C 0.1822(4) 0.8997(9) 0.8563(5)
H14 H 0.1761 0.8335 0.8878
C21 C 0.1453(4) 0.9665(10) 0.8264(6)
H15 H 0.1148 0.9457 0.8394
C22 C 0.1534(4) 1.0657(11) 0.7767(7)
H16 H 0.1287 1.1099 0.7565
C23 C 0.1982(3) 1.0952(9) 0.7590(5)
H17 H 0.2039 1.1603 0.7263
C24 C 0.2354(3) 1.0311(8) 0.7883(6)
C25 C 0.2850(3) 1.0715(8) 0.7662(6)
H18 H 0.3068 1.0385 0.8040
H19 H 0.2928 1.0385 0.7152
C26 C 0.2873(2) 1.2736(9) 0.7015(5)
H20 H 0.2808 1.2469 0.6510
C27 C 0.3001(3) 1.2711(8) 0.8261(4)
H21 H 0.3044 1.2476 0.8779
C28 C 0.3014(2) 1.3849(8) 0.7970(4)
H22 H 0.3068 1.4530 0.8272
Zn1_2 Zn 0.29604(3) 1.52521(7) 0.64202(5)
Zn1C Zn 0.79604(3) 0.47479(7) 0.64202(5)
N4_2 N 0.2938(2) 0.3865(6) 0.7188(3)
O3C O 0.2425(3) 0.4634(9) 0.5727(5)
O4C O 0.2263(3) 0.6456(9) 0.6078(6)
Zn2 Zn 0.09737(3) 1.00428(7) 0.53728(5)
N5 N 0.06705(19) 0.8617(5) 0.5917(3)
N6 N 0.0490(2) 0.7291(5) 0.6837(4)
N7 N 0.0575(2) 0.3187(5) 0.6475(4)
N8 N 0.0707(2) 0.1375(6) 0.6013(3)
O7 O 0.08620(18) 0.9765(5) 0.4254(3)
O8 O 0.0671(2) 1.1731(6) 0.4172(3)
O9 O 0.33528(16) 0.9678(4) 0.0575(3)
O10 O 0.33094(19) 1.1485(5) 0.0057(4)
O11 O 0.08707(17) 0.9126(4) 0.0125(3)
O12 O 0.08443(16) 1.1360(5) -0.0019(3)
S2 S 0.10218(6) 1.02932(15) 0.03755(12)
C29 C 0.0760(3) 1.0771(9) 0.3878(5)
C30 C 0.0794(2) 1.0627(7) 0.2978(4)
C31 C 0.0740(2) 0.9530(6) 0.2623(4)
H23 H 0.0666 0.8861 0.2925
C32 C 0.0794(2) 0.9412(7) 0.1827(4)
H24 H 0.0755 0.8672 0.1584
C33 C 0.0909(2) 1.0433(6) 0.1394(5)
C34 C 0.0952(2) 1.1563(7) 0.1746(4)
H25 H 0.1016 1.2240 0.1446
C35 C 0.0898(2) 1.1648(6) 0.2536(4)
H26 H 0.0930 1.2387 0.2783
C36 C 0.3118(3) 1.0587(8) 0.0321(5)
C37 C 0.2601(2) 1.0485(6) 0.0345(4)
C38 C 0.2335(2) 1.1459(7) 0.0089(4)
H27 H 0.2483 1.2157 -0.0077
C39 C 0.1858(2) 1.1394(6) 0.0079(4)
H28 H 0.1682 1.2038 -0.0103
C40 C 0.1641(2) 1.0357(6) 0.0343(5)
C41 C 0.1891(2) 0.9369(6) 0.0610(4)
H29 H 0.1738 0.8679 0.0777
C42 C 0.2376(2) 0.9438(7) 0.0619(4)
H30 H 0.2552 0.8796 0.0806
C43 C 0.0800(2) 0.8083(6) 0.6575(4)
H31 H 0.1081 0.8246 0.6830
C44 C 0.0233(3) 0.8120(8) 0.5772(6)
H32 H 0.0041 0.8321 0.5352
C45 C 0.0130(3) 0.7322(8) 0.6317(6)
H33 H -0.0140 0.6862 0.6341
C46 C 0.0510(3) 0.6595(7) 0.7568(5)
H34 H 0.0231 0.6102 0.7600
H35 H 0.0503 0.7150 0.8006
C47 C 0.0920(3) 0.5811(7) 0.7658(5)
C48 C 0.1237(4) 0.6089(9) 0.8233(6)
H36 H 0.1186 0.6744 0.8561
C49 C 0.1630(5) 0.5394(12) 0.8323(7)
H37 H 0.1853 0.5614 0.8692
C50 C 0.1699(3) 0.4389(12) 0.7883(8)
H38 H 0.1961 0.3910 0.7957
C51 C 0.1375(3) 0.4109(9) 0.7333(6)
H39 H 0.1418 0.3426 0.7028
C52 C 0.0978(3) 0.4822(7) 0.7212(5)
C53 C 0.0624(3) 0.4481(7) 0.6590(6)
H40 H 0.0323 0.4810 0.6736
H41 H 0.0715 0.4845 0.6097
C54 C 0.0792(3) 0.2512(7) 0.5941(5)
H42 H 0.0986 0.2827 0.5554
C55 C 0.0338(3) 0.2436(8) 0.6961(5)
H43 H 0.0163 0.2641 0.7400
C56 C 0.0410(3) 0.1337(8) 0.6668(5)
H44 H 0.0281 0.0639 0.6873
Zn2_2 Zn 0.09737(3) 0.00428(7) 0.53728(5)
Zn2B Zn 0.40263(3) 1.00428(7) 0.03728(5)
N8_2 N 0.0707(2) 1.1375(6) 0.6013(3)
O9B O 0.16472(16) 0.9678(4) 0.5575(3)
O13 O 0.0320(7) 0.897(4) 0.8645(13)
loop_
_geom_bond_atom_site_label_1
_geom_bond_atom_site_label_2
_geom_bond_site_symmetry_1
_geom_bond_site_symmetry_2
Zn1 N1 1_555 1_555
Zn2 N5 1_555 1_555
N1 C15 1_555 1_555
N2 C15 1_555 1_555
N3 C25 1_555 1_555
N4 C26 1_555 1_555
N5 C43 1_555 1_555
N6 C43 1_555 1_555
N7 C53 1_555 1_555
N8 C54 1_555 1_555
O1 Zn1 1_555 1_555
O2 C1 1_555 1_555
O3 C8 1_555 1_555
O4 C8 1_555 1_555
O5 S1 1_555 1_555
O6 S1 1_555 1_555
O7 Zn2 1_555 1_555
O8 C29 1_555 1_555
O9 C36 1_555 1_555
O10 C36 1_555 1_555
O11 S2 1_555 1_555
O12 S2 1_555 1_555
S1 C5 1_555 1_555
S2 C33 1_555 1_555
C1 O1 1_555 1_555
C2 C1 1_555 1_555
C3 C2 1_555 1_555
H1 C3 1_555 1_555
C4 C3 1_555 1_555
H2 C4 1_555 1_555
C5 C4 1_555 1_555
C6 C5 1_555 1_555
H3 C6 1_555 1_555
C7 C2 1_555 1_555
H4 C7 1_555 1_555
C8 C9 1_555 1_555
C9 C10 1_555 1_555
C10 H5 1_555 1_555
C11 C10 1_555 1_555
H6 C11 1_555 1_555
C12 S1 1_555 1_555
C13 C12 1_555 1_555
H7 C13 1_555 1_555
C14 C9 1_555 1_555
H8 C14 1_555 1_555
C15 H9 1_555 1_555
C16 N1 1_555 1_555
H10 C16 1_555 1_555
C17 N2 1_555 1_555
H11 C17 1_555 1_555
C18 N2 1_555 1_555
H12 C18 1_555 1_555
H13 C18 1_555 1_555
C19 C18 1_555 1_555
C20 C19 1_555 1_555
H14 C20 1_555 1_555
C21 C20 1_555 1_555
H15 C21 1_555 1_555
C22 C21 1_555 1_555
H16 C22 1_555 1_555
C23 C22 1_555 1_555
H17 C23 1_555 1_555
C24 C19 1_555 1_555
C25 C24 1_555 1_555
H18 C25 1_555 1_555
H19 C25 1_555 1_555
C26 N3 1_555 1_555
H20 C26 1_555 1_555
C27 N3 1_555 1_555
H21 C27 1_555 1_555
C28 N4 1_555 1_555
H22 C28 1_555 1_555
C29 O7 1_555 1_555
C30 C29 1_555 1_555
C31 C30 1_555 1_555
H23 C31 1_555 1_555
C32 C31 1_555 1_555
H24 C32 1_555 1_555
C33 C32 1_555 1_555
C34 C33 1_555 1_555
H25 C34 1_555 1_555
C35 C30 1_555 1_555
H26 C35 1_555 1_555
C36 C37 1_555 1_555
C37 C38 1_555 1_555
C38 H27 1_555 1_555
C39 C38 1_555 1_555
H28 C39 1_555 1_555
C40 S2 1_555 1_555
C41 C40 1_555 1_555
H29 C41 1_555 1_555
C42 C37 1_555 1_555
H30 C42 1_555 1_555
C43 H31 1_555 1_555
C44 N5 1_555 1_555
H32 C44 1_555 1_555
C45 N6 1_555 1_555
H33 C45 1_555 1_555
C46 N6 1_555 1_555
H34 C46 1_555 1_555
H35 C46 1_555 1_555
C47 C46 1_555 1_555
C48 C47 1_555 1_555
H36 C48 1_555 1_555
C49 C48 1_555 1_555
H37 C49 1_555 1_555
C50 C49 1_555 1_555
H38 C50 1_555 1_555
C51 C50 1_555 1_555
H39 C51 1_555 1_555
C52 C47 1_555 1_555
C53 C52 1_555 1_555
H40 C53 1_555 1_555
H41 C53 1_555 1_555
C54 N7 1_555 1_555
H42 C54 1_555 1_555
C55 N7 1_555 1_555
H43 C55 1_555 1_555
C56 N8 1_555 1_555
H44 C56 1_555 1_555
Zn1_2 N4 1_555 1_555
Zn1C O3 1_555 1_555
Zn2_2 N8 1_555 1_555
Zn2B O9 1_555 1_555
N4_2 Zn1 1_555 1_555
N8_2 Zn2 1_555 1_555
O3C Zn1 1_555 1_555
O4C Zn1 1_555 1_555
O9B Zn2 1_555 1_555
O4 Zn1C 1_555 1_555
C6 C7 1_555 1_555
C11 C12 1_555 1_555
C13 C14 1_555 1_555
C16 C17 1_555 1_555
C23 C24 1_555 1_555
C27 C28 1_555 1_555
C34 C35 1_555 1_555
C39 C40 1_555 1_555
C41 C42 1_555 1_555
C44 C45 1_555 1_555
C51 C52 1_555 1_555
C55 C56 1_555 1_555

#END
