
#######################################################################
#
#                 Cambridge Crystallographic Data Centre
#                                CCDC 
#
#######################################################################
#
# If this CIF has been generated from an entry in the Cambridge 
# Structural Database, then it will include bibliographic, chemical, 
# crystal, experimental, refinement or atomic coordinate data resulting 
# from the CCDC's data processing and validation procedures.
#
#######################################################################

data_KOLPUX
_symmetry_cell_setting           monoclinic
_symmetry_space_group_name_H-M   'C 2/c'
_symmetry_Int_Tables_number      15
_space_group_name_Hall           '-C 2yn'
loop_
_symmetry_equiv_pos_site_id
_symmetry_equiv_pos_as_xyz
1 x,y,z
2 1/2+x,1/2+y,z
3 -x,y,1/2-z
4 1/2-x,1/2+y,1/2-z
5 -x,-y,-z
6 1/2-x,1/2-y,-z
7 x,-y,1/2+z
8 1/2+x,1/2-y,1/2+z
_cell_length_a                   22.2466(18)
_cell_length_b                   9.3529(7)
_cell_length_c                   22.4043(18)
_cell_angle_alpha                90
_cell_angle_beta                 103.0670(10)
_cell_angle_gamma                90
_cell_volume                     4540.96
loop_
_atom_site_label
_atom_site_type_symbol
_atom_site_fract_x
_atom_site_fract_y
_atom_site_fract_z
Eu1 Eu 0.046064(14) 0.27302(3) 0.432336(14)
Eu2 Eu 0.154393(14) 0.35922(3) 0.178937(13)
O1 O -0.0372(2) 0.2850(5) 0.4872(2)
H1 H -0.0340 0.3269 0.5214
H2 H -0.0737 0.2531 0.4757
O2 O 0.1247(2) 0.0963(6) 0.4264(2)
H3 H 0.1337 0.0833 0.3919
H4 H 0.1354 0.0226 0.4485
O3 O 0.0579(2) 0.0856(6) 0.5125(2)
H5 H 0.0374 0.0638 0.5389
H6 H 0.0608 0.0088 0.4931
O4 O 0.0723(2) 0.3032(5) 0.3345(2)
O5 O 0.1312(2) 0.3917(5) 0.2750(2)
O6 O 0.3175(3) 0.6862(6) 0.3858(2)
O7 O 0.3542(2) 0.6273(6) 0.4828(2)
O8 O 0.1676(2) 0.5252(5) 0.58599(19)
O9 O 0.0953(2) 0.3856(5) 0.52845(19)
O10 O -0.2336(2) -0.4647(5) 0.2830(2)
O11 O -0.2615(2) -0.2486(5) 0.2451(3)
O12 O -0.1011(2) 0.1429(5) 0.3091(2)
O13 O -0.0207(2) 0.0847(5) 0.3853(2)
O14 O 0.02837(19) -0.4581(5) 0.4133(2)
O15 O -0.04640(19) -0.5968(4) 0.36485(19)
N1 N 0.1438(2) 0.4108(6) 0.4335(2)
N2 N -0.1182(2) -0.3846(5) 0.3217(2)
C1 C 0.1633(3) 0.4273(7) 0.3818(3)
C2 C 0.2169(3) 0.5003(8) 0.3800(3)
H7 H 0.2293 0.5121 0.3433
C3 C 0.2524(3) 0.5566(7) 0.4355(3)
C4 C 0.2307(3) 0.5403(8) 0.4887(3)
H8 H 0.2530 0.5764 0.5258
C5 C 0.1756(3) 0.4696(7) 0.4854(3)
C6 C 0.1189(3) 0.3681(7) 0.3255(3)
C7 C 0.3134(3) 0.6300(7) 0.4345(3)
C8 C 0.1440(3) 0.4577(7) 0.5383(3)
C9 C -0.1591(3) -0.2813(6) 0.3005(3)
C10 C -0.1436(3) -0.1387(7) 0.3055(3)
H9 H -0.1727 -0.0690 0.2897
C11 C -0.0837(3) -0.1010(7) 0.3345(3)
C12 C -0.0416(3) -0.2072(7) 0.3575(3)
H10 H -0.0012 -0.1851 0.3771
C13 C -0.0614(3) -0.3470(7) 0.3505(3)
C14 C -0.2233(3) -0.3352(7) 0.2741(3)
C15 C -0.0672(3) 0.0561(7) 0.3431(3)
C16 C -0.0227(3) -0.4726(7) 0.3783(3)
Eu1_2 Eu 0.046064(14) 1.27302(3) 0.432336(14)
Eu1_3 Eu 0.046064(14) -0.72698(3) 0.432336(14)
Eu1C Eu 0.453936(14) -0.22698(3) 0.067664(14)
Eu2C Eu 0.345607(14) 0.85922(3) 0.321063(13)
Eu2F Eu 0.154393(14) 0.64078(3) 0.678937(13)
Eu2B Eu -0.154393(14) -0.64078(3) 0.321063(13)
Eu2A Eu -0.345607(14) -0.14078(3) 0.178937(13)
Eu2B_2 Eu -0.154393(14) 0.35922(3) 0.321063(13)
Eu2A_2 Eu -0.345607(14) 0.85922(3) 0.178937(13)
Eu2B_3 Eu -0.154393(14) 1.35922(3) 0.321063(13)
Eu2C_2 Eu 0.345607(14) -0.14078(3) 0.321063(13)
Eu2E Eu 0.345607(14) 0.14078(3) -0.178937(13)
O1_2 O -0.0372(2) 1.2850(5) 0.4872(2)
H1_2 H -0.0340 1.3269 0.5214
H2_2 H -0.0737 1.2531 0.4757
O2_2 O 0.1247(2) 1.0963(6) 0.4264(2)
H3_2 H 0.1337 1.0833 0.3919
H4_2 H 0.1354 1.0226 0.4485
O3_2 O 0.0579(2) 1.0856(6) 0.5125(2)
H5_2 H 0.0374 1.0638 0.5389
H6_2 H 0.0608 1.0088 0.4931
O4C O 0.4277(2) -0.1968(5) 0.1655(2)
O4_2 O 0.0723(2) 1.3032(5) 0.3345(2)
O5C O 0.3688(2) -0.1083(5) 0.2250(2)
O5C_2 O 0.3688(2) 0.8917(5) 0.2250(2)
O6C O 0.1825(3) 0.1862(6) 0.1142(2)
O7C O 0.1458(2) 0.1273(6) 0.0172(2)
O8C O 0.3324(2) 0.0252(5) -0.08599(19)
O8F O 0.1676(2) 0.4748(5) 0.08599(19)
O8E O 0.3324(2) 0.9748(5) 0.41401(19)
O9C O 0.4047(2) -0.1144(5) -0.02845(19)
O9_2 O 0.0953(2) 1.3856(5) 0.52845(19)
O10_2 O -0.2336(2) 0.5353(5) 0.2830(2)
O10B O 0.2336(2) 0.5353(5) 0.2170(2)
O10A O 0.2664(2) 1.0353(5) 0.2830(2)
O11_2 O -0.2615(2) 0.7514(5) 0.2451(3)
O11A O 0.2385(2) 0.2514(5) 0.2451(3)
O11B O 0.2615(2) 0.7514(5) 0.2549(3)
O12_2 O -0.1011(2) 1.1429(5) 0.3091(2)
O12B O 0.1011(2) 0.1429(5) 0.1909(2)
O12A O 0.3989(2) 0.6429(5) 0.3091(2)
O13_2 O -0.0207(2) 1.0847(5) 0.3853(2)
O14_2 O 0.02837(19) 0.5419(5) 0.4133(2)
O14_3 O 0.02837(19) 1.5419(5) 0.4133(2)
O15_2 O -0.04640(19) 0.4032(4) 0.36485(19)
O15B O 0.04640(19) 0.4032(4) 0.13515(19)
O15_3 O -0.04640(19) 1.4032(4) 0.36485(19)
O15A O 0.45360(19) 0.9032(4) 0.36485(19)
N1C N 0.3562(2) -0.0892(6) 0.0665(2)
N1_2 N 0.1438(2) 1.4108(6) 0.4335(2)
N2_2 N -0.1182(2) 0.6154(5) 0.3217(2)
N2B N 0.1182(2) 0.6154(5) 0.1783(2)
N2A N 0.3818(2) 1.1154(5) 0.3217(2)
C1C C 0.3367(3) -0.0727(7) 0.1182(3)
C2C C 0.2831(3) 0.0003(8) 0.1200(3)
H7C H 0.2707 0.0121 0.1567
C3C C 0.2476(3) 0.0566(7) 0.0645(3)
C4C C 0.2693(3) 0.0403(8) 0.0113(3)
H8C H 0.2470 0.0764 -0.0258
C5C C 0.3244(3) -0.0304(7) 0.0146(3)
C6C C 0.3811(3) -0.1319(7) 0.1745(3)
C7C C 0.1866(3) 0.1300(7) 0.0655(3)
C8C C 0.3560(3) -0.0423(7) -0.0383(3)
C9_2 C -0.1591(3) 0.7187(6) 0.3005(3)
C10_2 C -0.1436(3) 0.8613(7) 0.3055(3)
H9_2 H -0.1727 0.9310 0.2897
C11_2 C -0.0837(3) 0.8990(7) 0.3345(3)
C12_2 C -0.0416(3) 0.7928(7) 0.3575(3)
H10_2 H -0.0012 0.8149 0.3771
C13_2 C -0.0614(3) 0.6530(7) 0.3505(3)
C14_2 C -0.2233(3) 0.6648(7) 0.2741(3)
C15_2 C -0.0672(3) 1.0561(7) 0.3431(3)
C16_2 C -0.0227(3) 0.5274(7) 0.3783(3)
O16 O 0.1526(4) 0.0292(9) 0.3202(3)
O17 O 0.0000 0.553(2) 0.2500
O18 O 0.0000 0.069(2) 0.2500
O19 O -0.0849(14) 0.759(3) 0.1811(14)
loop_
_geom_bond_atom_site_label_1
_geom_bond_atom_site_label_2
_geom_bond_site_symmetry_1
_geom_bond_site_symmetry_2
Eu1 O1 1_555 1_555
Eu2 O5 1_555 1_555
O1 H1 1_555 1_555
H2 O1 1_555 1_555
O2 Eu1 1_555 1_555
H3 O2 1_555 1_555
H4 O2 1_555 1_555
O3 Eu1 1_555 1_555
H5 O3 1_555 1_555
H6 O3 1_555 1_555
O4 Eu1 1_555 1_555
O5 C6 1_555 1_555
O6 C7 1_555 1_555
O7 C7 1_555 1_555
O8 C8 1_555 1_555
O9 Eu1 1_555 1_555
O10 C14 1_555 1_555
O11 C14 1_555 1_555
O12 C15 1_555 1_555
O13 Eu1 1_555 1_555
O14 C16 1_555 1_555
O15 C16 1_555 1_555
N1 Eu1 1_555 1_555
N2 C9 1_555 1_555
C1 N1 1_555 1_555
C2 C1 1_555 1_555
H7 C2 1_555 1_555
C3 C2 1_555 1_555
C4 C3 1_555 1_555
H8 C4 1_555 1_555
C5 N1 1_555 1_555
C6 O4 1_555 1_555
C7 C3 1_555 1_555
C8 O9 1_555 1_555
C9 C10 1_555 1_555
C10 H9 1_555 1_555
C11 C10 1_555 1_555
C12 C11 1_555 1_555
H10 C12 1_555 1_555
C13 N2 1_555 1_555
C14 C9 1_555 1_555
C15 O13 1_555 1_555
C16 C13 1_555 1_555
Eu1_2 O1_2 1_555 1_555
Eu1_3 O14 1_555 1_555
Eu1C O4C 1_555 1_555
Eu2C O6 1_555 1_555
Eu2F O8 1_555 1_555
Eu2B O10 1_555 1_555
Eu2A O11 1_555 1_555
Eu2B_2 O12 1_555 1_555
Eu2A_2 O11_2 1_555 1_555
Eu2B_3 O12_2 1_555 1_555
Eu2C_2 O5C 1_555 1_555
Eu2E O8C 1_555 1_555
O1_2 H1_2 1_555 1_555
H2_2 O1_2 1_555 1_555
O2_2 Eu1_2 1_555 1_555
H3_2 O2_2 1_555 1_555
H4_2 O2_2 1_555 1_555
O3_2 Eu1_2 1_555 1_555
H5_2 O3_2 1_555 1_555
H6_2 O3_2 1_555 1_555
O4C C6C 1_555 1_555
O4_2 Eu1_2 1_555 1_555
O5C C6C 1_555 1_555
O5C_2 Eu2C 1_555 1_555
O6C Eu2 1_555 1_555
O7C C7C 1_555 1_555
O8C C8C 1_555 1_555
O8F Eu2 1_555 1_555
O8E Eu2C 1_555 1_555
O9C Eu1C 1_555 1_555
O9_2 Eu1_2 1_555 1_555
O10_2 Eu2B_2 1_555 1_555
O10B Eu2 1_555 1_555
O10A Eu2C 1_555 1_555
O11_2 C14_2 1_555 1_555
O11A Eu2 1_555 1_555
O11B Eu2C 1_555 1_555
O12_2 C15_2 1_555 1_555
O12B Eu2 1_555 1_555
O12A Eu2C 1_555 1_555
O13_2 Eu1_2 1_555 1_555
O14_2 Eu1 1_555 1_555
O14_3 Eu1_2 1_555 1_555
O15_2 Eu1 1_555 1_555
O15B Eu2 1_555 1_555
O15_3 Eu1_2 1_555 1_555
O15A Eu2C 1_555 1_555
N1C Eu1C 1_555 1_555
N1_2 Eu1_2 1_555 1_555
N2_2 Eu2B_2 1_555 1_555
N2B Eu2 1_555 1_555
N2A Eu2C 1_555 1_555
C1C N1C 1_555 1_555
C2C C1C 1_555 1_555
H7C C2C 1_555 1_555
C3C C2C 1_555 1_555
C4C C3C 1_555 1_555
H8C C4C 1_555 1_555
C5C N1C 1_555 1_555
C6C C1C 1_555 1_555
C7C O6C 1_555 1_555
C8C O9C 1_555 1_555
C9_2 N2_2 1_555 1_555
C10_2 C9_2 1_555 1_555
H9_2 C10_2 1_555 1_555
C11_2 C10_2 1_555 1_555
C12_2 C11_2 1_555 1_555
H10_2 C12_2 1_555 1_555
C13_2 N2_2 1_555 1_555
C14_2 O10_2 1_555 1_555
C15_2 O13_2 1_555 1_555
C16_2 O14_2 1_555 1_555
O15 Eu1_3 1_555 1_555
O15 Eu2B 1_555 1_555
N2 Eu2B 1_555 1_555
C1 C6 1_555 1_555
C4 C5 1_555 1_555
C5 C8 1_555 1_555
C11 C15 1_555 1_555
C12 C13 1_555 1_555
Eu2B_2 O15_2 1_555 1_555
Eu2B_3 O15_3 1_555 1_555
O15_2 C16_2 1_555 1_555
C3C C7C 1_555 1_555
C4C C5C 1_555 1_555
C5C C8C 1_555 1_555
C9_2 C14_2 1_555 1_555
C11_2 C15_2 1_555 1_555
C12_2 C13_2 1_555 1_555
C13_2 C16_2 1_555 1_555

#END
