
#######################################################################
#
#                 Cambridge Crystallographic Data Centre
#                                CCDC 
#
#######################################################################
#
# If this CIF has been generated from an entry in the Cambridge 
# Structural Database, then it will include bibliographic, chemical, 
# crystal, experimental, refinement or atomic coordinate data resulting 
# from the CCDC's data processing and validation procedures.
#
#######################################################################

data_KOLQAE
_symmetry_cell_setting           monoclinic
_symmetry_space_group_name_H-M   'C 2/c'
_symmetry_Int_Tables_number      15
_space_group_name_Hall           '-C 2yn'
loop_
_symmetry_equiv_pos_site_id
_symmetry_equiv_pos_as_xyz
1 x,y,z
2 1/2+x,1/2+y,z
3 -x,y,1/2-z
4 1/2-x,1/2+y,1/2-z
5 -x,-y,-z
6 1/2-x,1/2-y,-z
7 x,-y,1/2+z
8 1/2+x,1/2-y,1/2+z
_cell_length_a                   22.2267(16)
_cell_length_b                   9.3424(7)
_cell_length_c                   22.3427(16)
_cell_angle_alpha                90
_cell_angle_beta                 103.138(1)
_cell_angle_gamma                90
_cell_volume                     4518.04
loop_
_atom_site_label
_atom_site_type_symbol
_atom_site_fract_x
_atom_site_fract_y
_atom_site_fract_z
Gd1 Gd 0.045996(16) 0.27324(4) 0.432302(16)
Gd2 Gd 0.154251(15) 0.35990(3) 0.179096(15)
O1 O -0.0364(2) 0.2858(6) 0.4874(2)
H1 H -0.0332 0.3279 0.5217
H2 H -0.0730 0.2539 0.4758
O2 O 0.1243(3) 0.0965(6) 0.4265(3)
H3 H 0.1366 0.0666 0.3953
H4 H 0.1308 0.0370 0.4560
O3 O 0.0579(3) 0.0858(6) 0.5122(3)
H5 H 0.0377 0.0670 0.5394
H6 H 0.0613 0.0090 0.4929
O4 O 0.0723(2) 0.3029(6) 0.3341(2)
O5 O 0.1303(2) 0.3913(6) 0.2744(2)
O6 O 0.3168(3) 0.6884(6) 0.3852(3)
O7 O 0.3548(3) 0.6268(6) 0.4826(3)
O8 O 0.1673(2) 0.5259(6) 0.5863(2)
O9 O 0.0952(2) 0.3857(5) 0.5287(2)
O10 O -0.2333(2) -0.4651(5) 0.2829(2)
O11 O -0.2622(3) -0.2496(5) 0.2455(3)
O12 O -0.1010(3) 0.1440(5) 0.3099(3)
O13 O -0.0199(2) 0.0853(5) 0.3853(2)
O14 O 0.0285(2) -0.4598(5) 0.4140(2)
O15 O -0.0465(2) -0.5977(5) 0.3653(2)
N1 N 0.1438(3) 0.4103(6) 0.4337(2)
N2 N -0.1185(3) -0.3844(6) 0.3220(3)
C1 C 0.1630(3) 0.4263(8) 0.3817(3)
C2 C 0.2168(3) 0.4984(8) 0.3800(3)
H7 H 0.2297 0.5080 0.3434
C3 C 0.2518(3) 0.5574(8) 0.4356(3)
C4 C 0.2304(3) 0.5396(8) 0.4877(3)
H8 H 0.2529 0.5760 0.5248
C5 C 0.1760(3) 0.4687(7) 0.4859(3)
C6 C 0.1186(3) 0.3675(7) 0.3251(3)
C7 C 0.3130(4) 0.6305(7) 0.4346(4)
C8 C 0.1437(3) 0.4585(7) 0.5387(3)
C9 C -0.1589(3) -0.2814(7) 0.3003(3)
C10 C -0.1437(3) -0.1370(7) 0.3058(3)
H9 H -0.1727 -0.0665 0.2908
C11 C -0.0838(3) -0.1025(7) 0.3344(3)
C12 C -0.0413(3) -0.2068(7) 0.3572(3)
H10 H -0.0007 -0.1837 0.3761
C13 C -0.0612(3) -0.3483(7) 0.3510(3)
C14 C -0.2240(3) -0.3361(7) 0.2739(3)
C15 C -0.0669(3) 0.0556(7) 0.3438(3)
C16 C -0.0232(3) -0.4742(7) 0.3783(3)
Gd1_2 Gd 0.045996(16) 1.27324(4) 0.432302(16)
Gd1_3 Gd 0.045996(16) -0.72676(4) 0.432302(16)
Gd1C Gd 0.454004(16) -0.22676(4) 0.067698(16)
Gd2C Gd 0.345749(15) 0.85990(3) 0.320904(15)
Gd2F Gd 0.154251(15) 0.64010(3) 0.679096(15)
Gd2B Gd -0.154251(15) -0.64010(3) 0.320904(15)
Gd2A Gd -0.345749(15) -0.14010(3) 0.179096(15)
Gd2B_2 Gd -0.154251(15) 0.35990(3) 0.320904(15)
Gd2A_2 Gd -0.345749(15) 0.85990(3) 0.179096(15)
Gd2B_3 Gd -0.154251(15) 1.35990(3) 0.320904(15)
Gd2C_2 Gd 0.345749(15) -0.14010(3) 0.320904(15)
Gd2E Gd 0.345749(15) 0.14010(3) -0.179096(15)
O1_2 O -0.0364(2) 1.2858(6) 0.4874(2)
H1_2 H -0.0332 1.3279 0.5217
H2_2 H -0.0730 1.2539 0.4758
O2_2 O 0.1243(3) 1.0965(6) 0.4265(3)
H3_2 H 0.1366 1.0666 0.3953
H4_2 H 0.1308 1.0370 0.4560
O3_2 O 0.0579(3) 1.0858(6) 0.5122(3)
H5_2 H 0.0377 1.0670 0.5394
H6_2 H 0.0613 1.0090 0.4929
O4C O 0.4277(2) -0.1971(6) 0.1659(2)
O4_2 O 0.0723(2) 1.3029(6) 0.3341(2)
O5C O 0.3697(2) -0.1087(6) 0.2256(2)
O5C_2 O 0.3697(2) 0.8913(6) 0.2256(2)
O6C O 0.1832(3) 0.1884(6) 0.1148(3)
O7C O 0.1452(3) 0.1268(6) 0.0174(3)
O8C O 0.3327(2) 0.0259(6) -0.0863(2)
O8F O 0.1673(2) 0.4741(6) 0.0863(2)
O8E O 0.3327(2) 0.9741(6) 0.4137(2)
O9C O 0.4048(2) -0.1143(5) -0.0287(2)
O9_2 O 0.0952(2) 1.3857(5) 0.5287(2)
O10_2 O -0.2333(2) 0.5349(5) 0.2829(2)
O10B O 0.2333(2) 0.5349(5) 0.2171(2)
O10A O 0.2667(2) 1.0349(5) 0.2829(2)
O11_2 O -0.2622(3) 0.7504(5) 0.2455(3)
O11A O 0.2378(3) 0.2504(5) 0.2455(3)
O11B O 0.2622(3) 0.7504(5) 0.2545(3)
O12_2 O -0.1010(3) 1.1440(5) 0.3099(3)
O12B O 0.1010(3) 0.1440(5) 0.1901(3)
O12A O 0.3990(3) 0.6440(5) 0.3099(3)
O13_2 O -0.0199(2) 1.0853(5) 0.3853(2)
O14_2 O 0.0285(2) 0.5402(5) 0.4140(2)
O14_3 O 0.0285(2) 1.5402(5) 0.4140(2)
O15_2 O -0.0465(2) 0.4023(5) 0.3653(2)
O15B O 0.0465(2) 0.4023(5) 0.1347(2)
O15_3 O -0.0465(2) 1.4023(5) 0.3653(2)
O15A O 0.4535(2) 0.9023(5) 0.3653(2)
N1C N 0.3562(3) -0.0897(6) 0.0663(2)
N1_2 N 0.1438(3) 1.4103(6) 0.4337(2)
N2_2 N -0.1185(3) 0.6156(6) 0.3220(3)
N2B N 0.1185(3) 0.6156(6) 0.1780(3)
N2A N 0.3815(3) 1.1156(6) 0.3220(3)
C1C C 0.3370(3) -0.0737(8) 0.1183(3)
C2C C 0.2832(3) -0.0016(8) 0.1200(3)
H7C H 0.2703 0.0080 0.1566
C3C C 0.2482(3) 0.0574(8) 0.0644(3)
C4C C 0.2696(3) 0.0396(8) 0.0123(3)
H8C H 0.2471 0.0760 -0.0248
C5C C 0.3240(3) -0.0313(7) 0.0141(3)
C6C C 0.3814(3) -0.1325(7) 0.1749(3)
C7C C 0.1870(4) 0.1305(7) 0.0654(4)
C8C C 0.3563(3) -0.0415(7) -0.0387(3)
C9_2 C -0.1589(3) 0.7186(7) 0.3003(3)
C10_2 C -0.1437(3) 0.8630(7) 0.3058(3)
H9_2 H -0.1727 0.9335 0.2908
C11_2 C -0.0838(3) 0.8975(7) 0.3344(3)
C12_2 C -0.0413(3) 0.7932(7) 0.3572(3)
H10_2 H -0.0007 0.8163 0.3761
C13_2 C -0.0612(3) 0.6517(7) 0.3510(3)
C14_2 C -0.2240(3) 0.6639(7) 0.2739(3)
C15_2 C -0.0669(3) 1.0556(7) 0.3438(3)
C16_2 C -0.0232(3) 0.5258(7) 0.3783(3)
O16 O 0.1524(4) 0.0275(9) 0.3199(4)
O17 O 0.0000 0.555(2) 0.2500
O18 O 0.0000 0.067(2) 0.2500
O19 O -0.0869(15) 0.759(3) 0.1813(15)
loop_
_geom_bond_atom_site_label_1
_geom_bond_atom_site_label_2
_geom_bond_site_symmetry_1
_geom_bond_site_symmetry_2
Gd1 O1 1_555 1_555
Gd2 O5 1_555 1_555
O1 H1 1_555 1_555
H2 O1 1_555 1_555
O2 Gd1 1_555 1_555
H3 O2 1_555 1_555
H4 O2 1_555 1_555
O3 Gd1 1_555 1_555
H5 O3 1_555 1_555
H6 O3 1_555 1_555
O4 Gd1 1_555 1_555
O5 C6 1_555 1_555
O6 C7 1_555 1_555
O7 C7 1_555 1_555
O8 C8 1_555 1_555
O9 Gd1 1_555 1_555
O10 C14 1_555 1_555
O11 C14 1_555 1_555
O12 C15 1_555 1_555
O13 Gd1 1_555 1_555
O14 C16 1_555 1_555
O15 C16 1_555 1_555
N1 Gd1 1_555 1_555
N2 C9 1_555 1_555
C1 N1 1_555 1_555
C2 C1 1_555 1_555
H7 C2 1_555 1_555
C3 C2 1_555 1_555
C4 C3 1_555 1_555
H8 C4 1_555 1_555
C5 N1 1_555 1_555
C6 O4 1_555 1_555
C7 C3 1_555 1_555
C8 O9 1_555 1_555
C9 C10 1_555 1_555
C10 H9 1_555 1_555
C11 C10 1_555 1_555
C12 C11 1_555 1_555
H10 C12 1_555 1_555
C13 N2 1_555 1_555
C14 C9 1_555 1_555
C15 O13 1_555 1_555
C16 C13 1_555 1_555
Gd1_2 O1_2 1_555 1_555
Gd1_3 O14 1_555 1_555
Gd1C O4C 1_555 1_555
Gd2C O6 1_555 1_555
Gd2F O8 1_555 1_555
Gd2B O10 1_555 1_555
Gd2A O11 1_555 1_555
Gd2B_2 O12 1_555 1_555
Gd2A_2 O11_2 1_555 1_555
Gd2B_3 O12_2 1_555 1_555
Gd2C_2 O5C 1_555 1_555
Gd2E O8C 1_555 1_555
O1_2 H1_2 1_555 1_555
H2_2 O1_2 1_555 1_555
O2_2 Gd1_2 1_555 1_555
H3_2 O2_2 1_555 1_555
H4_2 O2_2 1_555 1_555
O3_2 Gd1_2 1_555 1_555
H5_2 O3_2 1_555 1_555
H6_2 O3_2 1_555 1_555
O4C C6C 1_555 1_555
O4_2 Gd1_2 1_555 1_555
O5C C6C 1_555 1_555
O5C_2 Gd2C 1_555 1_555
O6C Gd2 1_555 1_555
O7C C7C 1_555 1_555
O8C C8C 1_555 1_555
O8F Gd2 1_555 1_555
O8E Gd2C 1_555 1_555
O9C Gd1C 1_555 1_555
O9_2 Gd1_2 1_555 1_555
O10_2 Gd2B_2 1_555 1_555
O10B Gd2 1_555 1_555
O10A Gd2C 1_555 1_555
O11_2 C14_2 1_555 1_555
O11A Gd2 1_555 1_555
O11B Gd2C 1_555 1_555
O12_2 C15_2 1_555 1_555
O12B Gd2 1_555 1_555
O12A Gd2C 1_555 1_555
O13_2 Gd1_2 1_555 1_555
O14_2 Gd1 1_555 1_555
O14_3 Gd1_2 1_555 1_555
O15_2 Gd1 1_555 1_555
O15B Gd2 1_555 1_555
O15_3 Gd1_2 1_555 1_555
O15A Gd2C 1_555 1_555
N1C Gd1C 1_555 1_555
N1_2 Gd1_2 1_555 1_555
N2_2 Gd2B_2 1_555 1_555
N2B Gd2 1_555 1_555
N2A Gd2C 1_555 1_555
C1C N1C 1_555 1_555
C2C C1C 1_555 1_555
H7C C2C 1_555 1_555
C3C C2C 1_555 1_555
C4C C3C 1_555 1_555
H8C C4C 1_555 1_555
C5C N1C 1_555 1_555
C6C C1C 1_555 1_555
C7C O6C 1_555 1_555
C8C O9C 1_555 1_555
C9_2 N2_2 1_555 1_555
C10_2 C9_2 1_555 1_555
H9_2 C10_2 1_555 1_555
C11_2 C10_2 1_555 1_555
C12_2 C11_2 1_555 1_555
H10_2 C12_2 1_555 1_555
C13_2 N2_2 1_555 1_555
C14_2 O10_2 1_555 1_555
C15_2 O13_2 1_555 1_555
C16_2 O14_2 1_555 1_555
O15 Gd1_3 1_555 1_555
O15 Gd2B 1_555 1_555
N2 Gd2B 1_555 1_555
C1 C6 1_555 1_555
C4 C5 1_555 1_555
C5 C8 1_555 1_555
C11 C15 1_555 1_555
C12 C13 1_555 1_555
Gd2B_2 O15_2 1_555 1_555
Gd2B_3 O15_3 1_555 1_555
O15_2 C16_2 1_555 1_555
C3C C7C 1_555 1_555
C4C C5C 1_555 1_555
C5C C8C 1_555 1_555
C9_2 C14_2 1_555 1_555
C11_2 C15_2 1_555 1_555
C12_2 C13_2 1_555 1_555
C13_2 C16_2 1_555 1_555

#END
