
#######################################################################
#
#                 Cambridge Crystallographic Data Centre
#                                CCDC 
#
#######################################################################
#
# If this CIF has been generated from an entry in the Cambridge 
# Structural Database, then it will include bibliographic, chemical, 
# crystal, experimental, refinement or atomic coordinate data resulting 
# from the CCDC's data processing and validation procedures.
#
#######################################################################

data_KOLQIM
_symmetry_cell_setting           monoclinic
_symmetry_space_group_name_H-M   'C 2/c'
_symmetry_Int_Tables_number      15
_space_group_name_Hall           '-C 2yn'
loop_
_symmetry_equiv_pos_site_id
_symmetry_equiv_pos_as_xyz
1 x,y,z
2 1/2+x,1/2+y,z
3 -x,y,1/2-z
4 1/2-x,1/2+y,1/2-z
5 -x,-y,-z
6 1/2-x,1/2-y,-z
7 x,-y,1/2+z
8 1/2+x,1/2-y,1/2+z
_cell_length_a                   21.721(8)
_cell_length_b                   9.202(4)
_cell_length_c                   22.347(9)
_cell_angle_alpha                90
_cell_angle_beta                 101.243(6)
_cell_angle_gamma                90
_cell_volume                     4380.92
loop_
_atom_site_label
_atom_site_type_symbol
_atom_site_fract_x
_atom_site_fract_y
_atom_site_fract_z
Ho1 Ho 0.045266(9) 0.31018(2) 0.423288(9)
Ho2 Ho 0.156078(9) 0.39203(2) 0.176175(8)
O1 O -0.02207(16) 0.2498(4) 0.48728(15)
H1 H -0.0251 0.2970 0.5193
H2 H -0.0550 0.1994 0.4755
O2 O 0.11525(17) 0.1180(4) 0.44166(16)
H3 H 0.1288 0.0910 0.4102
H4 H 0.1202 0.0516 0.4686
O3 O 0.07407(16) 0.3422(4) 0.32927(14)
O4 O 0.13697(17) 0.4360(4) 0.27124(14)
O5 O 0.32871(18) 0.7149(4) 0.39173(17)
O6 O 0.36866(17) 0.6084(5) 0.47890(18)
O7 O 0.17399(15) 0.4950(4) 0.58654(14)
O8 O 0.09465(15) 0.3889(4) 0.52240(14)
O9 O -0.23636(14) -0.4308(3) 0.28585(14)
O10 O -0.25997(16) -0.2251(4) 0.23440(17)
O11 O -0.10035(16) 0.1859(3) 0.30338(16)
O12 O -0.01441(16) 0.1262(4) 0.37216(16)
O13 O 0.02820(14) -0.4241(3) 0.41385(14)
O14 O -0.04944(14) -0.5648(3) 0.37049(14)
N1 N 0.14737(17) 0.4278(4) 0.42923(16)
N2 N -0.12040(17) -0.3499(4) 0.32400(16)
C1 C 0.1688(2) 0.4528(5) 0.3778(2)
C2 C 0.2254(2) 0.5201(5) 0.3783(2)
H5 H 0.2389 0.5381 0.3420
C3 C 0.2625(2) 0.5610(5) 0.4343(2)
C4 C 0.2395(2) 0.5362(5) 0.4875(2)
H6 H 0.2628 0.5629 0.5253
C5 C 0.1811(2) 0.4713(5) 0.48289(19)
C6 C 0.1234(2) 0.4062(5) 0.3209(2)
C7 C 0.3254(2) 0.6344(5) 0.4357(2)
C8 C 0.1476(2) 0.4495(5) 0.5352(2)
C9 C -0.1600(2) -0.2460(5) 0.2983(2)
C10 C -0.1434(2) -0.1012(5) 0.3001(2)
H7 H -0.1715 -0.0313 0.2813
C11 C -0.0836(2) -0.0617(5) 0.3308(2)
C12 C -0.0425(2) -0.1686(5) 0.3585(2)
H8 H -0.0025 -0.1448 0.3796
C13 C -0.0628(2) -0.3116(5) 0.3536(2)
C14 C -0.2241(2) -0.3040(5) 0.2706(2)
C15 C -0.0643(2) 0.0972(5) 0.3356(2)
C16 C -0.0253(2) -0.4392(5) 0.38084(19)
Ho1_2 Ho 0.045266(9) 1.31018(2) 0.423288(9)
Ho1_3 Ho 0.045266(9) -0.68982(2) 0.423288(9)
Ho1C Ho 0.454734(9) -0.18982(2) 0.076712(9)
Ho2C Ho 0.343922(9) 0.89203(2) 0.323825(8)
Ho2F Ho 0.156078(9) 0.60797(2) 0.676175(8)
Ho2B Ho -0.156078(9) -0.60797(2) 0.323825(8)
Ho2A Ho -0.343922(9) -0.10797(2) 0.176175(8)
Ho2B_2 Ho -0.156078(9) 0.39203(2) 0.323825(8)
Ho2A_2 Ho -0.343922(9) 0.89203(2) 0.176175(8)
Ho2B_3 Ho -0.156078(9) 1.39203(2) 0.323825(8)
Ho2C_2 Ho 0.343922(9) -0.10797(2) 0.323825(8)
Ho2E Ho 0.343922(9) 0.10797(2) -0.176175(8)
O1_2 O -0.02207(16) 1.2498(4) 0.48728(15)
H1_2 H -0.0251 1.2970 0.5193
H2_2 H -0.0550 1.1994 0.4755
O2_2 O 0.11525(17) 1.1180(4) 0.44166(16)
H3_2 H 0.1288 1.0910 0.4102
H4_2 H 0.1202 1.0516 0.4686
O3C O 0.42593(16) -0.1578(4) 0.17073(14)
O3_2 O 0.07407(16) 1.3422(4) 0.32927(14)
O4C O 0.36303(17) -0.0640(4) 0.22876(14)
O4C_2 O 0.36303(17) 0.9360(4) 0.22876(14)
O5C O 0.17129(18) 0.2149(4) 0.10827(17)
O6C O 0.13134(17) 0.1084(5) 0.02110(18)
O7C O 0.32601(15) -0.0050(4) -0.08654(14)
O7F O 0.17399(15) 0.5050(4) 0.08654(14)
O7E O 0.32601(15) 1.0050(4) 0.41346(14)
O8C O 0.40535(15) -0.1111(4) -0.02240(14)
O8_2 O 0.09465(15) 1.3889(4) 0.52240(14)
O9_2 O -0.23636(14) 0.5692(3) 0.28585(14)
O9B O 0.23636(14) 0.5692(3) 0.21415(14)
O9A O 0.26364(14) 1.0692(3) 0.28585(14)
O10_2 O -0.25997(16) 0.7749(4) 0.23440(17)
O10A O 0.24003(16) 0.2749(4) 0.23440(17)
O10B O 0.25997(16) 0.7749(4) 0.26560(17)
O11_2 O -0.10035(16) 1.1859(3) 0.30338(16)
O11B O 0.10035(16) 0.1859(3) 0.19662(16)
O11A O 0.39965(16) 0.6859(3) 0.30338(16)
O12_2 O -0.01441(16) 1.1262(4) 0.37216(16)
O13_2 O 0.02820(14) 0.5759(3) 0.41385(14)
O13_3 O 0.02820(14) 1.5759(3) 0.41385(14)
O14_2 O -0.04944(14) 0.4352(3) 0.37049(14)
O14B O 0.04944(14) 0.4352(3) 0.12951(14)
O14_3 O -0.04944(14) 1.4352(3) 0.37049(14)
O14A O 0.45056(14) 0.9352(3) 0.37049(14)
N1C N 0.35263(17) -0.0722(4) 0.07077(16)
N1_2 N 0.14737(17) 1.4278(4) 0.42923(16)
N2_2 N -0.12040(17) 0.6501(4) 0.32400(16)
N2B N 0.12040(17) 0.6501(4) 0.17600(16)
N2A N 0.37960(17) 1.1501(4) 0.32400(16)
C1C C 0.3312(2) -0.0472(5) 0.1222(2)
C2C C 0.2746(2) 0.0201(5) 0.1217(2)
H5C H 0.2611 0.0381 0.1580
C3C C 0.2375(2) 0.0610(5) 0.0657(2)
C4C C 0.2605(2) 0.0362(5) 0.0125(2)
H6C H 0.2372 0.0629 -0.0253
C5C C 0.3189(2) -0.0287(5) 0.01711(19)
C6C C 0.3766(2) -0.0938(5) 0.1791(2)
C7C C 0.1746(2) 0.1344(5) 0.0643(2)
C8C C 0.3524(2) -0.0505(5) -0.0352(2)
C9_2 C -0.1600(2) 0.7540(5) 0.2983(2)
C10_2 C -0.1434(2) 0.8988(5) 0.3001(2)
H7_2 H -0.1715 0.9687 0.2813
C11_2 C -0.0836(2) 0.9383(5) 0.3308(2)
C12_2 C -0.0425(2) 0.8314(5) 0.3585(2)
H8_2 H -0.0025 0.8552 0.3796
C13_2 C -0.0628(2) 0.6884(5) 0.3536(2)
C14_2 C -0.2241(2) 0.6960(5) 0.2706(2)
C15_2 C -0.0643(2) 1.0972(5) 0.3356(2)
C16_2 C -0.0253(2) 0.5608(5) 0.38084(19)
O15 O -0.0975(7) 0.7530(16) 0.1703(7)
O16 O 0.1460(9) 0.060(2) 0.3300(7)
O18 O 0.0000 0.5842(13) 0.2500
O17? O 0.1651(11) 0.018(3) 0.3522(10)
loop_
_geom_bond_atom_site_label_1
_geom_bond_atom_site_label_2
_geom_bond_site_symmetry_1
_geom_bond_site_symmetry_2
Ho1 O1 1_555 1_555
Ho2 O4 1_555 1_555
O1 H1 1_555 1_555
H2 O1 1_555 1_555
O2 Ho1 1_555 1_555
H3 O2 1_555 1_555
H4 O2 1_555 1_555
O3 Ho1 1_555 1_555
O4 C6 1_555 1_555
O5 C7 1_555 1_555
O6 C7 1_555 1_555
O7 C8 1_555 1_555
O8 Ho1 1_555 1_555
O9 C14 1_555 1_555
O10 C14 1_555 1_555
O11 C15 1_555 1_555
O12 Ho1 1_555 1_555
O13 C16 1_555 1_555
O14 C16 1_555 1_555
N1 Ho1 1_555 1_555
N2 C9 1_555 1_555
C1 N1 1_555 1_555
C2 C1 1_555 1_555
H5 C2 1_555 1_555
C3 C2 1_555 1_555
C4 C3 1_555 1_555
H6 C4 1_555 1_555
C5 N1 1_555 1_555
C6 O3 1_555 1_555
C7 C3 1_555 1_555
C8 O8 1_555 1_555
C9 C10 1_555 1_555
C10 H7 1_555 1_555
C11 C10 1_555 1_555
C12 C11 1_555 1_555
H8 C12 1_555 1_555
C13 N2 1_555 1_555
C14 C9 1_555 1_555
C15 O12 1_555 1_555
C16 C13 1_555 1_555
Ho1_2 O1_2 1_555 1_555
Ho1_3 O13 1_555 1_555
Ho1C O3C 1_555 1_555
Ho2C O5 1_555 1_555
Ho2F O7 1_555 1_555
Ho2B O9 1_555 1_555
Ho2A O10 1_555 1_555
Ho2B_2 O11 1_555 1_555
Ho2A_2 O10_2 1_555 1_555
Ho2B_3 O11_2 1_555 1_555
Ho2C_2 O4C 1_555 1_555
Ho2E O7C 1_555 1_555
O1_2 H1_2 1_555 1_555
H2_2 O1_2 1_555 1_555
O2_2 Ho1_2 1_555 1_555
H3_2 O2_2 1_555 1_555
H4_2 O2_2 1_555 1_555
O3C C6C 1_555 1_555
O3_2 Ho1_2 1_555 1_555
O4C C6C 1_555 1_555
O4C_2 Ho2C 1_555 1_555
O5C Ho2 1_555 1_555
O6C C7C 1_555 1_555
O7C C8C 1_555 1_555
O7F Ho2 1_555 1_555
O7E Ho2C 1_555 1_555
O8C Ho1C 1_555 1_555
O8_2 Ho1_2 1_555 1_555
O9_2 Ho2B_2 1_555 1_555
O9B Ho2 1_555 1_555
O9A Ho2C 1_555 1_555
O10_2 C14_2 1_555 1_555
O10A Ho2 1_555 1_555
O10B Ho2C 1_555 1_555
O11_2 C15_2 1_555 1_555
O11B Ho2 1_555 1_555
O11A Ho2C 1_555 1_555
O12_2 Ho1_2 1_555 1_555
O13_2 Ho1 1_555 1_555
O13_3 Ho1_2 1_555 1_555
O14_2 Ho1 1_555 1_555
O14B Ho2 1_555 1_555
O14_3 Ho1_2 1_555 1_555
O14A Ho2C 1_555 1_555
N1C Ho1C 1_555 1_555
N1_2 Ho1_2 1_555 1_555
N2_2 Ho2B_2 1_555 1_555
N2B Ho2 1_555 1_555
N2A Ho2C 1_555 1_555
C1C N1C 1_555 1_555
C2C C1C 1_555 1_555
H5C C2C 1_555 1_555
C3C C2C 1_555 1_555
C4C C3C 1_555 1_555
H6C C4C 1_555 1_555
C5C N1C 1_555 1_555
C6C C1C 1_555 1_555
C7C O5C 1_555 1_555
C8C O8C 1_555 1_555
C9_2 N2_2 1_555 1_555
C10_2 C9_2 1_555 1_555
H7_2 C10_2 1_555 1_555
C11_2 C10_2 1_555 1_555
C12_2 C11_2 1_555 1_555
H8_2 C12_2 1_555 1_555
C13_2 N2_2 1_555 1_555
C14_2 O9_2 1_555 1_555
C15_2 O12_2 1_555 1_555
C16_2 O13_2 1_555 1_555
O14 Ho1_3 1_555 1_555
O14 Ho2B 1_555 1_555
N2 Ho2B 1_555 1_555
C1 C6 1_555 1_555
C4 C5 1_555 1_555
C5 C8 1_555 1_555
C11 C15 1_555 1_555
C12 C13 1_555 1_555
Ho2B_2 O14_2 1_555 1_555
Ho2B_3 O14_3 1_555 1_555
O14_2 C16_2 1_555 1_555
C3C C7C 1_555 1_555
C4C C5C 1_555 1_555
C5C C8C 1_555 1_555
C9_2 C14_2 1_555 1_555
C11_2 C15_2 1_555 1_555
C12_2 C13_2 1_555 1_555
C13_2 C16_2 1_555 1_555

#END
