
#######################################################################
#
#                 Cambridge Crystallographic Data Centre
#                                CCDC 
#
#######################################################################
#
# If this CIF has been generated from an entry in the Cambridge 
# Structural Database, then it will include bibliographic, chemical, 
# crystal, experimental, refinement or atomic coordinate data resulting 
# from the CCDC's data processing and validation procedures.
#
#######################################################################

data_KOLWOY
_symmetry_cell_setting           monoclinic
_symmetry_space_group_name_H-M   'P 2/c'
_symmetry_Int_Tables_number      13
_space_group_name_Hall           '-P 2yc'
loop_
_symmetry_equiv_pos_site_id
_symmetry_equiv_pos_as_xyz
1 x,y,z
2 -x,y,1/2-z
3 -x,-y,-z
4 x,-y,1/2+z
_cell_length_a                   18.3027(5)
_cell_length_b                   11.4073(1)
_cell_length_c                   13.7081(4)
_cell_angle_alpha                90
_cell_angle_beta                 92.440(2)
_cell_angle_gamma                90
_cell_volume                     2859.44
loop_
_atom_site_label
_atom_site_type_symbol
_atom_site_fract_x
_atom_site_fract_y
_atom_site_fract_z
Ag1 Ag 0.04784(4) 0.33244(5) 0.16224(5)
O1 O 0.1162(4) 0.3719(6) 0.3166(5)
O3 O 0.1799(4) 0.2071(6) 0.3092(5)
O5 O 0.2262(5) 0.6880(6) 0.5189(6)
H5 H 0.2362 0.7556 0.5346
O6 O 0.3079(4) 0.6472(6) 0.6387(6)
O7 O 0.2865(4) 0.0713(5) 0.6397(6)
O8 O 0.3958(4) 0.1808(7) 0.6407(9)
O9 O 0.3083(7) 0.2153(8) 0.7583(6)
N1 N 0.0408(4) 0.1460(6) 0.1291(5)
N2 N 0.0438(4) -0.4755(6) 0.1418(5)
C1 C 0.2066(4) 0.3378(7) 0.4397(6)
C2 C 0.2114(4) 0.4554(7) 0.4663(6)
H6 H 0.1879 0.5117 0.4273
C3 C 0.2511(4) 0.4901(7) 0.5506(6)
C4 C 0.2843(4) 0.4034(7) 0.6093(6)
H7 H 0.3101 0.4247 0.6664
C5 C 0.2791(4) 0.2874(6) 0.5836(6)
C6 C 0.2414(4) 0.2532(6) 0.4989(5)
H8 H 0.2391 0.1745 0.4815
C7 C 0.1652(5) 0.3022(7) 0.3464(6)
C8 C 0.2649(6) 0.6157(8) 0.5736(8)
C9 C -0.0213(5) 0.0836(7) 0.1286(6)
H9 H -0.0653 0.1240 0.1299
C10 C -0.0234(4) -0.0361(7) 0.1263(5)
H10 H -0.0683 -0.0743 0.1267
C11 C 0.0403(5) -0.1016(7) 0.1234(5)
C12 C 0.1046(5) -0.0360(7) 0.1205(6)
H11 H 0.1493 -0.0743 0.1168
C13 C 0.1028(5) 0.0838(7) 0.1231(6)
H12 H 0.1468 0.1243 0.1205
C14 C 0.0999(5) -0.4093(7) 0.1784(6)
H13 H 0.1400 -0.4471 0.2081
C15 C 0.1005(5) -0.2895(7) 0.1737(6)
H14 H 0.1398 -0.2475 0.2011
C16 C 0.0411(4) -0.2302(7) 0.1270(5)
C17 C -0.0167(4) -0.2987(7) 0.0907(6)
H15 H -0.0577 -0.2634 0.0611
C18 C -0.0133(5) -0.4169(7) 0.0986(6)
H16 H -0.0525 -0.4605 0.0728
S1 S 0.32227(13) 0.17929(18) 0.65995(18)
Ag1_2 Ag 0.04784(4) -0.66756(5) 0.16224(5)
N2_2 N 0.0438(4) 0.5245(6) 0.1418(5)
Ag2 Ag 0.54653(4) 0.17656(5) 0.64220(6)
N3 N 0.5461(4) -0.0122(6) 0.6376(5)
N4 N 0.5468(4) -0.6348(6) 0.6268(5)
C19 C 0.6054(5) -0.0751(7) 0.6618(7)
H17 H 0.6479 -0.0350 0.6809
C20 C 0.6078(4) -0.1951(7) 0.6602(7)
H18 H 0.6508 -0.2342 0.6785
C21 C 0.5455(4) -0.2581(6) 0.6313(5)
C22 C 0.4833(5) -0.1931(7) 0.6049(6)
H19 H 0.4405 -0.2309 0.5836
C23 C 0.4856(5) -0.0726(7) 0.6105(6)
H20 H 0.4431 -0.0309 0.5946
C24 C 0.4848(5) -0.5738(7) 0.6240(6)
H21 H 0.4410 -0.6154 0.6209
C25 C 0.4810(5) -0.4528(6) 0.6253(6)
H22 H 0.4359 -0.4152 0.6246
C26 C 0.5451(4) -0.3879(6) 0.6277(6)
C27 C 0.6102(5) -0.4514(7) 0.6293(6)
H23 H 0.6547 -0.4121 0.6305
C28 C 0.6089(5) -0.5720(7) 0.6291(6)
H24 H 0.6532 -0.6119 0.6306
Ag2_2 Ag 0.54653(4) -0.82344(5) 0.64220(6)
N4_2 N 0.5468(4) 0.3652(6) 0.6268(5)
O2 O 0.7904(4) -0.0255(7) 1.1531(6)
H1 H 0.7674 -0.0661 1.1991
H2 H 0.7986 0.0515 1.1626
O4 O 0.7104(5) 0.8925(7) 0.9943(7)
H3 H 0.7159 0.9005 0.9297
H4 H 0.7505 0.8925 1.0347
loop_
_geom_bond_atom_site_label_1
_geom_bond_atom_site_label_2
_geom_bond_site_symmetry_1
_geom_bond_site_symmetry_2
Ag1 O1 1_555 1_555
Ag2 N3 1_555 1_555
O1 C7 1_555 1_555
O2 H1 1_555 1_555
H2 O2 1_555 1_555
O3 C7 1_555 1_555
O4 H3 1_555 1_555
H4 O4 1_555 1_555
O5 H5 1_555 1_555
O6 C8 1_555 1_555
O7 S1 1_555 1_555
O8 S1 1_555 1_555
O9 S1 1_555 1_555
N1 Ag1 1_555 1_555
N2 C14 1_555 1_555
N3 C19 1_555 1_555
N4 C24 1_555 1_555
C1 C2 1_555 1_555
C2 H6 1_555 1_555
C3 C2 1_555 1_555
C4 C3 1_555 1_555
H7 C4 1_555 1_555
C5 C4 1_555 1_555
C6 C1 1_555 1_555
H8 C6 1_555 1_555
C7 C1 1_555 1_555
C8 O5 1_555 1_555
C9 N1 1_555 1_555
H9 C9 1_555 1_555
C10 C9 1_555 1_555
H10 C10 1_555 1_555
C11 C10 1_555 1_555
C12 C11 1_555 1_555
H11 C12 1_555 1_555
C13 N1 1_555 1_555
H12 C13 1_555 1_555
C14 H13 1_555 1_555
C15 C14 1_555 1_555
H14 C15 1_555 1_555
C16 C11 1_555 1_555
C17 C16 1_555 1_555
H15 C17 1_555 1_555
C18 N2 1_555 1_555
H16 C18 1_555 1_555
C19 H17 1_555 1_555
C20 C19 1_555 1_555
H18 C20 1_555 1_555
C21 C20 1_555 1_555
C22 C21 1_555 1_555
H19 C22 1_555 1_555
C23 N3 1_555 1_555
H20 C23 1_555 1_555
C24 H21 1_555 1_555
C25 C24 1_555 1_555
H22 C25 1_555 1_555
C26 C21 1_555 1_555
C27 C26 1_555 1_555
H23 C27 1_555 1_555
C28 N4 1_555 1_555
H24 C28 1_555 1_555
S1 C5 1_555 1_555
Ag1_2 N2 1_555 1_555
Ag2_2 N4 1_555 1_555
N2_2 Ag1 1_555 1_555
N4_2 Ag2 1_555 1_555
C3 C8 1_555 1_555
C5 C6 1_555 1_555
C12 C13 1_555 1_555
C15 C16 1_555 1_555
C17 C18 1_555 1_555
C22 C23 1_555 1_555
C25 C26 1_555 1_555
C27 C28 1_555 1_555

#END
