
#######################################################################
#
#                 Cambridge Crystallographic Data Centre
#                                CCDC 
#
#######################################################################
#
# If this CIF has been generated from an entry in the Cambridge 
# Structural Database, then it will include bibliographic, chemical, 
# crystal, experimental, refinement or atomic coordinate data resulting 
# from the CCDC's data processing and validation procedures.
#
#######################################################################

data_KOLXAL
_symmetry_cell_setting           tetragonal
_symmetry_space_group_name_H-M   'P -4 21 c'
_symmetry_Int_Tables_number      114
_space_group_name_Hall           'P -4 2n'
loop_
_symmetry_equiv_pos_site_id
_symmetry_equiv_pos_as_xyz
1 x,y,z
2 -x,-y,z
3 y,-x,-z
4 -y,x,-z
5 1/2-x,1/2+y,1/2-z
6 1/2+x,1/2-y,1/2-z
7 1/2-y,1/2-x,1/2+z
8 1/2+y,1/2+x,1/2+z
_cell_length_a                   16.0901(15)
_cell_length_b                   16.0901(15)
_cell_length_c                   6.7807(9)
_cell_angle_alpha                90
_cell_angle_beta                 90
_cell_angle_gamma                90
_cell_volume                     1755.46
loop_
_atom_site_label
_atom_site_type_symbol
_atom_site_fract_x
_atom_site_fract_y
_atom_site_fract_z
Cd1 Cd 0.82333(2) 0.23935(2) 0.51981(6)
O1 O 0.7716(2) 0.2112(2) 0.8352(5)
O2 O 0.6886(2) 0.1251(2) 1.0059(7)
O3 O 0.6057(2) -0.0329(2) 0.9024(6)
O4 O 0.6834(3) -0.1373(2) 0.7892(6)
N1 N 0.7985(2) 0.0956(2) 0.5464(7)
N2 N 0.7581(2) -0.0376(2) 0.5191(7)
C1 C 0.7482(3) 0.0767(3) 0.7054(7)
C2 C 0.7225(3) -0.0056(3) 0.6874(7)
C3 C 0.8029(3) 0.0251(3) 0.4402(8)
C4 C 0.7338(3) 0.1403(3) 0.8620(8)
C5 C 0.6665(3) -0.0615(3) 0.8058(8)
C6 C 0.8493(5) 0.0124(4) 0.2501(10)
H1 H 0.8854 -0.0354 0.2651
H2 H 0.8094 -0.0006 0.1475
C7 C 0.9008(5) 0.0843(4) 0.1823(10)
H3 H 0.8662 0.1324 0.1679
H4 H 0.9259 0.0711 0.0577
H5 H 0.9435 0.0954 0.2777
Cd1G Cd 0.73935(2) 0.32333(2) 1.01981(6)
Cd1C Cd 0.76065(2) -0.17667(2) 0.48019(6)
Cd1D Cd 0.67667(2) -0.26065(2) 0.98019(6)
O1G O 0.7112(2) 0.2716(2) 0.3352(5)
O4B O 0.8627(2) 0.3166(3) 0.2108(6)
O4D O 0.8166(3) 0.3627(2) 0.7108(6)
N2B N 0.9624(2) 0.2419(2) 0.4809(7)
K1 K 0.61936(8) 0.03252(8) 1.2790(2)
loop_
_geom_bond_atom_site_label_1
_geom_bond_atom_site_label_2
_geom_bond_site_symmetry_1
_geom_bond_site_symmetry_2
Cd1 O1 1_555 1_555
O1 C4 1_555 1_555
O2 C4 1_555 1_555
O3 C5 1_555 1_555
O4 C5 1_555 1_555
N1 Cd1 1_555 1_555
N2 C2 1_555 1_555
C1 N1 1_555 1_555
C2 C1 1_555 1_555
C3 N1 1_555 1_555
C4 C1 1_555 1_555
C5 C2 1_555 1_555
C6 C3 1_555 1_555
H1 C6 1_555 1_555
H2 C6 1_555 1_555
C7 C6 1_555 1_555
H3 C7 1_555 1_555
H4 C7 1_555 1_555
H5 C7 1_555 1_555
Cd1G O1 1_555 1_555
Cd1C O4 1_555 1_555
Cd1D O4 1_555 1_555
O1G Cd1 1_555 1_555
O4B Cd1 1_555 1_555
O4D Cd1 1_555 1_555
N2B Cd1 1_555 1_555
N2 C3 1_555 1_555
N2 Cd1C 1_555 1_555
Cd1G O4D 1_555 1_555

#END
