
#######################################################################
#
#                 Cambridge Crystallographic Data Centre
#                                CCDC 
#
#######################################################################
#
# If this CIF has been generated from an entry in the Cambridge 
# Structural Database, then it will include bibliographic, chemical, 
# crystal, experimental, refinement or atomic coordinate data resulting 
# from the CCDC's data processing and validation procedures.
#
#######################################################################

data_KOLYOA
_symmetry_cell_setting           monoclinic
_symmetry_space_group_name_H-M   'P 21/c'
_symmetry_Int_Tables_number      14
_space_group_name_Hall           '-P 2ybc'
loop_
_symmetry_equiv_pos_site_id
_symmetry_equiv_pos_as_xyz
1 x,y,z
2 -x,1/2+y,1/2-z
3 -x,-y,-z
4 x,1/2-y,1/2+z
_cell_length_a                   12.5026(11)
_cell_length_b                   11.8042(11)
_cell_length_c                   9.3038(9)
_cell_angle_alpha                90
_cell_angle_beta                 99.637(2)
_cell_angle_gamma                90
_cell_volume                     1353.71
loop_
_atom_site_label
_atom_site_type_symbol
_atom_site_fract_x
_atom_site_fract_y
_atom_site_fract_z
O1 O 0.67762(19) 1.2718(2) 0.2981(3)
O2 O 0.85743(19) 1.1609(2) 0.4247(3)
C1 C 0.8169(3) 1.2309(3) 0.5003(4)
C2 C 0.6655(3) 0.9513(3) 0.4301(4)
C3 C 0.7551(4) 0.9409(4) 0.5408(5)
C4 C 0.7494(4) 0.8625(4) 0.6485(5)
C5 C 0.6582(5) 0.7960(5) 0.6470(6)
C6 C 0.5699(4) 0.8046(4) 0.5398(6)
C7 C 0.5748(3) 0.8831(3) 0.4314(5)
C8 C 0.5511(3) 0.9921(4) 0.2392(5)
C9 C 0.8502(4) 0.9379(4) 0.0443(5)
C10 C 0.9280(4) 0.8579(4) 0.0555(6)
C11 C 0.9361(4) 0.9455(4) 0.2570(5)
C12 C 0.7123(3) 1.2940(3) 0.4298(4)
Co1 Co 0.75812(4) 1.12584(4) 0.22314(5)
H1 H 0.818(3) 0.983(4) 0.537(4)
H2 H 0.812(3) 0.847(3) 0.723(5)
H3 H 0.659(4) 0.743(4) 0.718(5)
H4 H 0.512(3) 0.763(3) 0.536(4)
H5 H 0.446(3) 0.879(3) 0.281(4)
H6 H 0.517(3) 1.029(3) 0.157(4)
H7 H 0.798(3) 0.949(4) -0.033(5)
H8 H 0.941(3) 0.804(4) -0.014(5)
H9 H 1.029(4) 0.825(4) 0.234(5)
H10 H 0.964(3) 0.967(3) 0.349(4)
N1 N 0.6483(2) 1.0203(3) 0.3057(3)
N2 N 0.5034(3) 0.9131(3) 0.3081(4)
N3 N 0.8555(2) 0.9939(3) 0.1730(3)
N4 N 0.9817(3) 0.8639(3) 0.1920(5)
O3 O 0.85372(19) 1.2570(2) 0.6296(3)
O4 O 0.67053(18) 1.3608(2) 0.5082(3)
Co1C Co 0.75812(4) 1.37416(4) 0.72314(5)
O3C O 0.85372(19) 1.2430(2) 0.1296(3)
O4C O 0.67053(18) 1.1392(2) 0.0082(3)
loop_
_geom_bond_atom_site_label_1
_geom_bond_atom_site_label_2
_geom_bond_site_symmetry_1
_geom_bond_site_symmetry_2
O1 C12 1_555 1_555
O2 C1 1_555 1_555
C1 C12 1_555 1_555
C2 C3 1_555 1_555
C3 C4 1_555 1_555
C4 C5 1_555 1_555
C5 C6 1_555 1_555
C6 C7 1_555 1_555
C7 C2 1_555 1_555
C8 H6 1_555 1_555
C9 C10 1_555 1_555
C10 H8 1_555 1_555
C11 H10 1_555 1_555
C12 O4 1_555 1_555
Co1 O1 1_555 1_555
H1 C3 1_555 1_555
H2 C4 1_555 1_555
H3 C5 1_555 1_555
H4 C6 1_555 1_555
H5 N2 1_555 1_555
H7 C9 1_555 1_555
H9 N4 1_555 1_555
N1 C2 1_555 1_555
N2 C7 1_555 1_555
N3 C9 1_555 1_555
N4 C10 1_555 1_555
O3 C1 1_555 1_555
O4 Co1C 1_555 1_555
Co1C O3 1_555 1_555
O3C Co1 1_555 1_555
O4C Co1 1_555 1_555
O2 Co1 1_555 1_555
C8 N1 1_555 1_555
C8 N2 1_555 1_555
C11 N3 1_555 1_555
C11 N4 1_555 1_555
Co1 N1 1_555 1_555
Co1 N3 1_555 1_555

#END
