
#######################################################################
#
#                 Cambridge Crystallographic Data Centre
#                                CCDC 
#
#######################################################################
#
# If this CIF has been generated from an entry in the Cambridge 
# Structural Database, then it will include bibliographic, chemical, 
# crystal, experimental, refinement or atomic coordinate data resulting 
# from the CCDC's data processing and validation procedures.
#
#######################################################################

data_KOLYAN
_symmetry_cell_setting           triclinic
_symmetry_space_group_name_H-M   'P -1'
_symmetry_Int_Tables_number      2
_space_group_name_Hall           '-P 1'
loop_
_symmetry_equiv_pos_site_id
_symmetry_equiv_pos_as_xyz
1 x,y,z
2 -x,-y,-z
_cell_length_a                   8.368(2)
_cell_length_b                   10.586(2)
_cell_length_c                   13.162(3)
_cell_angle_alpha                67.860(7)
_cell_angle_beta                 76.771(9)
_cell_angle_gamma                89.873(12)
_cell_volume                     1046.73
loop_
_atom_site_label
_atom_site_type_symbol
_atom_site_fract_x
_atom_site_fract_y
_atom_site_fract_z
Cu1 Cu 1.0000 0.5000 1.0000
O1 O 1.2705(2) 0.61078(19) 0.89629(17)
O2 O 1.5318(2) 0.6266(2) 0.88686(18)
O3 O 1.3632(3) 0.7151(2) 0.98758(19)
N1 N 0.9046(3) 0.65748(19) 1.03894(17)
N2 N 0.7405(3) 0.8143(2) 1.0445(2)
N3 N 0.8616(3) 0.8344(2) 1.0926(2)
N4 N 0.9467(3) 0.5880(2) 0.84798(16)
N5 N 0.8524(3) 0.6371(2) 0.69228(19)
N6 N 0.9474(3) 0.7466(2) 0.68533(18)
N7 N 1.3898(3) 0.6512(2) 0.92422(18)
C1 C 0.9562(3) 0.7375(3) 1.0873(2)
H1 H 1.0529 0.7242 1.1149
C2 C 0.7674(3) 0.7087(2) 1.0139(2)
H2 H 0.6990 0.6751 0.9794
C3 C 0.8364(4) 1.1581(3) 0.7382(3)
H3 H 0.9388 1.1733 0.6841
C4 C 0.8062(4) 1.0463(3) 0.8357(3)
H4 H 0.8877 0.9835 0.8492
C5 C 0.6537(3) 1.0208(3) 0.9188(2)
C6 C 0.6166(3) 0.9092(3) 1.0228(2)
C7 C 0.4694(3) 0.8838(3) 1.1049(2)
C8 C 0.4323(4) 0.7667(3) 1.2091(3)
H5 H 0.5117 0.7027 1.2260
C9 C 0.2837(4) 0.7463(3) 1.2845(3)
H6 H 0.2597 0.6674 1.3531
C10 C 1.0022(3) 0.7162(2) 0.7782(2)
H7 H 1.0699 0.7764 0.7924
C11 C 0.8554(3) 0.5443(3) 0.7924(2)
H8 H 0.7990 0.4553 0.8227
C12 C 0.5565(4) 0.9967(3) 0.6354(2)
H9 H 0.4507 0.9685 0.6864
C13 C 0.6805(4) 0.9141(3) 0.6517(2)
H10 H 0.6605 0.8285 0.7142
C14 C 0.8395(3) 0.9542(3) 0.5765(2)
C15 C 0.9740(3) 0.8756(2) 0.5894(2)
C16 C 1.1323(3) 0.9148(3) 0.5177(2)
C17 C 1.2666(4) 0.8318(3) 0.5310(2)
H11 H 1.2508 0.7453 0.5923
C18 C 1.4158(4) 0.8751(3) 0.4575(3)
H12 H 1.5039 0.8186 0.4682
N1A N 0.0954(3) 1.34252(19) 0.96106(17)
N2A N 0.2595(3) 1.1857(2) 0.9555(2)
N3A N 0.1384(3) 1.1656(2) 0.9074(2)
C1A C 0.0438(3) 1.2625(3) 0.9127(2)
H1A H -0.0529 1.2758 0.8851
C2A C 0.2326(3) 1.2913(2) 0.9861(2)
H2A H 0.3010 1.3249 1.0206
C3A C 0.1636(4) 0.8419(3) 1.2618(3)
H3A H 0.0612 0.8267 1.3159
C4A C 0.1938(4) 0.9537(3) 1.1643(3)
H4A H 0.1123 1.0165 1.1508
C5A C 0.3463(3) 0.9792(3) 1.0812(2)
C6A C 0.3834(3) 1.0908(3) 0.9772(2)
C7A C 0.5306(3) 1.1162(3) 0.8951(2)
C8A C 0.5677(4) 1.2333(3) 0.7909(3)
H5A H 0.4883 1.2973 0.7740
C9A C 0.7163(4) 1.2537(3) 0.7155(3)
H6A H 0.7403 1.3326 0.6469
N4A N 1.0533(3) 1.4120(2) 0.15202(16)
N5A N 1.1476(3) 1.3629(2) 0.30772(19)
N6A N 1.0526(3) 1.2534(2) 0.31467(18)
C10A C 0.9978(3) 1.2838(2) 0.2218(2)
H7A H 0.9301 1.2236 0.2076
C11A C 1.1446(3) 1.4557(3) 0.2076(2)
H8A H 1.2010 1.5447 0.1773
C12A C 1.4435(4) 1.0033(3) 0.3646(2)
H9A H 1.5493 1.0315 0.3136
C13A C 1.3195(4) 1.0859(3) 0.3483(2)
H10A H 1.3395 1.1715 0.2858
C14A C 1.1605(3) 1.0458(3) 0.4235(2)
C15A C 1.0260(3) 1.1244(2) 0.4106(2)
C16A C 0.8677(3) 1.0852(3) 0.4823(2)
C17A C 0.7334(4) 1.1682(3) 0.4690(2)
H11A H 0.7492 1.2547 0.4077
C18A C 0.5842(4) 1.1249(3) 0.5425(3)
H12A H 0.4961 1.1814 0.5318
O1A O 0.7295(2) 0.38922(19) 1.10371(17)
O2A O 0.4682(2) 0.3734(2) 1.11314(18)
O3A O 0.6368(3) 0.2849(2) 1.01242(19)
N7A N 0.6102(3) 0.3488(2) 1.07578(18)
Cu1_2 Cu 0.0000 1.5000 1.0000
Cu1_3 Cu 1.0000 1.5000 0.0000
N1A_2 N 1.0954(3) 0.34252(19) 0.96106(17)
N4A_2 N 1.0533(3) 0.4120(2) 1.15202(16)
O4 O 0.8148(3) 0.0747(2) 0.15751(19)
H13 H 0.766(4) 0.136(2) 0.113(2)
H14 H 0.834(4) 0.005(2) 0.139(3)
O5 O 0.6518(7) 0.5996(6) 0.5560(5)
C19 C 0.7491(9) 0.6207(10) 0.4381(6)
O7 O 0.6591(6) 0.4834(4) 0.2835(4)
O6? O 0.8641(10) 0.5617(7) 0.3927(8)
O8? O 0.5406(8) 0.4348(5) 0.3096(5)
loop_
_geom_bond_atom_site_label_1
_geom_bond_atom_site_label_2
_geom_bond_site_symmetry_1
_geom_bond_site_symmetry_2
Cu1 O1 1_555 1_555
O1 N7 1_555 1_555
O2 N7 1_555 1_555
O3 N7 1_555 1_555
N1 Cu1 1_555 1_555
N2 N3 1_555 1_555
N3 C1 1_555 1_555
N4 Cu1 1_555 1_555
N5 N6 1_555 1_555
N6 C10 1_555 1_555
C1 N1 1_555 1_555
H1 C1 1_555 1_555
C2 N1 1_555 1_555
H2 C2 1_555 1_555
C3 H3 1_555 1_555
C4 C3 1_555 1_555
H4 C4 1_555 1_555
C5 C4 1_555 1_555
C6 N2 1_555 1_555
C7 C6 1_555 1_555
C8 C7 1_555 1_555
H5 C8 1_555 1_555
C9 C8 1_555 1_555
H6 C9 1_555 1_555
C10 N4 1_555 1_555
H7 C10 1_555 1_555
C11 N4 1_555 1_555
H8 C11 1_555 1_555
C12 H9 1_555 1_555
C13 C12 1_555 1_555
H10 C13 1_555 1_555
C14 C13 1_555 1_555
C15 N6 1_555 1_555
C16 C15 1_555 1_555
C17 C16 1_555 1_555
H11 C17 1_555 1_555
C18 C17 1_555 1_555
H12 C18 1_555 1_555
O4 H13 1_555 1_555
H14 O4 1_555 1_555
O5 C19 1_555 1_555
N1A C1A 1_555 1_555
N2A N3A 1_555 1_555
N3A C1A 1_555 1_555
C1A H1A 1_555 1_555
C2A N1A 1_555 1_555
H2A C2A 1_555 1_555
C3A C9 1_555 1_555
H3A C3A 1_555 1_555
C4A C3A 1_555 1_555
H4A C4A 1_555 1_555
C5A C7 1_555 1_555
C6A N2A 1_555 1_555
C7A C5 1_555 1_555
C8A C7A 1_555 1_555
H5A C8A 1_555 1_555
C9A C3 1_555 1_555
H6A C9A 1_555 1_555
N4A C10A 1_555 1_555
N5A N6A 1_555 1_555
N6A C10A 1_555 1_555
C10A H7A 1_555 1_555
C11A N4A 1_555 1_555
H8A C11A 1_555 1_555
C12A C18 1_555 1_555
H9A C12A 1_555 1_555
C13A C12A 1_555 1_555
H10A C13A 1_555 1_555
C14A C16 1_555 1_555
C15A N6A 1_555 1_555
C16A C14 1_555 1_555
C17A C16A 1_555 1_555
H11A C17A 1_555 1_555
C18A C12 1_555 1_555
H12A C18A 1_555 1_555
O1A Cu1 1_555 1_555
O2A N7A 1_555 1_555
O3A N7A 1_555 1_555
N7A O1A 1_555 1_555
Cu1_2 N1A 1_555 1_555
Cu1_3 N4A 1_555 1_555
N1A_2 Cu1 1_555 1_555
N4A_2 Cu1 1_555 1_555
N2 C2 1_555 1_555
N5 C11 1_555 1_555
C5 C6 1_555 1_555
C14 C15 1_555 1_555
N2A C2A 1_555 1_555
C4A C5A 1_555 1_555
C5A C6A 1_555 1_555
C6A C7A 1_555 1_555
C8A C9A 1_555 1_555
N5A C11A 1_555 1_555
C13A C14A 1_555 1_555
C14A C15A 1_555 1_555
C15A C16A 1_555 1_555
C17A C18A 1_555 1_555

#END
