
#######################################################################
#
#                 Cambridge Crystallographic Data Centre
#                                CCDC 
#
#######################################################################
#
# If this CIF has been generated from an entry in the Cambridge 
# Structural Database, then it will include bibliographic, chemical, 
# crystal, experimental, refinement or atomic coordinate data resulting 
# from the CCDC's data processing and validation procedures.
#
#######################################################################

data_KOLYIV
_symmetry_cell_setting           monoclinic
_symmetry_space_group_name_H-M   'P 21/c'
_symmetry_Int_Tables_number      14
_space_group_name_Hall           '-P 2ybc'
loop_
_symmetry_equiv_pos_site_id
_symmetry_equiv_pos_as_xyz
1 x,y,z
2 -x,1/2+y,1/2-z
3 -x,-y,-z
4 x,1/2-y,1/2+z
_cell_length_a                   10.009(3)
_cell_length_b                   13.956(4)
_cell_length_c                   16.491(5)
_cell_angle_alpha                90
_cell_angle_beta                 105.060(4)
_cell_angle_gamma                90
_cell_volume                     2224.44
loop_
_atom_site_label
_atom_site_type_symbol
_atom_site_fract_x
_atom_site_fract_y
_atom_site_fract_z
Cu1 Cu 0.0000 0.5000 0.0000
O1 O -0.0800(2) 0.37473(12) 0.07306(12)
N1 N 0.19315(19) 0.44524(13) 0.02497(12)
N2 N 0.4065(2) 0.41400(15) 0.01212(13)
N3 N 0.38789(19) 0.37604(14) 0.08487(12)
N4 N 0.8161(2) 0.15193(14) 0.28568(13)
N5 N 0.9076(2) 0.10258(18) 0.25159(14)
N6 N 0.9405(2) 0.06822(13) 0.38851(12)
N7 N -0.1109(3) 0.21484(17) 0.04236(16)
C1 C 0.2868(2) 0.45502(17) -0.02127(15)
H1 H 0.2673 0.4886 -0.0731
C2 C 0.2604(2) 0.39482(16) 0.09126(15)
H2 H 0.2235 0.3752 0.1362
C3 C 0.4962(2) 0.31995(17) 0.13837(14)
C4 C 0.4917(2) 0.22066(17) 0.12550(15)
C5 C 0.3877(2) 0.17489(18) 0.06139(15)
H3 H 0.3174 0.2123 0.0254
C6 C 0.3884(3) 0.07807(18) 0.05139(16)
H4 H 0.3198 0.0486 0.0077
C7 C 0.4910(3) 0.02073(18) 0.10586(17)
H5 H 0.4877 -0.0470 0.0998
C8 C 0.5940(2) 0.06158(17) 0.16661(16)
H6 H 0.6625 0.0223 0.2019
C9 C 0.5998(2) 0.16332(17) 0.17760(15)
C10 C 0.7071(2) 0.21011(17) 0.23476(15)
C11 C 0.7143(2) 0.31009(17) 0.24546(14)
C12 C 0.8283(2) 0.35754(18) 0.30130(15)
H7 H 0.9033 0.3211 0.3339
C13 C 0.8298(3) 0.4545(2) 0.30796(16)
H8 H 0.9062 0.4853 0.3452
C14 C 0.7188(3) 0.51059(18) 0.26001(17)
H9 H 0.7216 0.5783 0.2659
C15 C 0.6088(3) 0.46872(18) 0.20591(15)
H10 H 0.5352 0.5072 0.1745
C16 C 0.6031(2) 0.36676(17) 0.19593(15)
C17 C 0.8360(2) 0.12959(17) 0.36633(15)
H11 H 0.7838 0.1538 0.4024
C18 C 0.9801(3) 0.0540(2) 0.31644(16)
H12 H 1.0538 0.0125 0.3133
C19 C -0.1501(3) 0.3010(2) 0.06221(17)
H13 H -0.2414 0.3061 0.0686
C20 C -0.2008(4) 0.1324(2) 0.0318(2)
H14 H -0.1627 0.0854 0.0759
H15 H -0.2081 0.1035 -0.0233
H16 H -0.2929 0.1523 0.0357
C21 C 0.0305(3) 0.1997(2) 0.0368(2)
H17 H 0.0615 0.2559 0.0111
H18 H 0.0337 0.1430 0.0023
H19 H 0.0912 0.1900 0.0932
O1B O 0.0800(2) 0.62527(12) -0.07306(12)
N1B N -0.19315(19) 0.55476(13) -0.02497(12)
N2B N -0.4065(2) 0.58600(15) -0.01212(13)
N3B N -0.38789(19) 0.62396(14) -0.08487(12)
N4B N -0.8161(2) 0.84807(14) -0.28568(13)
N5B N -0.9076(2) 0.89742(18) -0.25159(14)
N6B N -0.9405(2) 0.93178(13) -0.38851(12)
N7B N 0.1109(3) 0.78516(17) -0.04236(16)
C1B C -0.2868(2) 0.54498(17) 0.02127(15)
H1B H -0.2673 0.5114 0.0731
C2B C -0.2604(2) 0.60518(16) -0.09126(15)
H2B H -0.2235 0.6248 -0.1362
C3B C -0.4962(2) 0.68005(17) -0.13837(14)
C4B C -0.4917(2) 0.77934(17) -0.12550(15)
C5B C -0.3877(2) 0.82511(18) -0.06139(15)
H3B H -0.3174 0.7877 -0.0254
C6B C -0.3884(3) 0.92193(18) -0.05139(16)
H4B H -0.3198 0.9514 -0.0077
C7B C -0.4910(3) 0.97927(18) -0.10586(17)
H5B H -0.4877 1.0470 -0.0998
C8B C -0.5940(2) 0.93842(17) -0.16661(16)
H6B H -0.6625 0.9777 -0.2019
C9B C -0.5998(2) 0.83668(17) -0.17760(15)
C10B C -0.7071(2) 0.78989(17) -0.23476(15)
C11B C -0.7143(2) 0.68991(17) -0.24546(14)
C12B C -0.8283(2) 0.64246(18) -0.30130(15)
H7B H -0.9033 0.6789 -0.3339
C13B C -0.8298(3) 0.5455(2) -0.30796(16)
H8B H -0.9062 0.5147 -0.3452
C14B C -0.7188(3) 0.48941(18) -0.26001(17)
H9B H -0.7216 0.4217 -0.2659
C15B C -0.6088(3) 0.53128(18) -0.20591(15)
H10B H -0.5352 0.4928 -0.1745
C16B C -0.6031(2) 0.63324(17) -0.19593(15)
C17B C -0.8360(2) 0.87041(17) -0.36633(15)
H11B H -0.7838 0.8462 -0.4024
C18B C -0.9801(3) 0.9460(2) -0.31644(16)
H12B H -1.0538 0.9875 -0.3133
C19B C 0.1501(3) 0.6990(2) -0.06221(17)
H13B H 0.2414 0.6939 -0.0686
C20B C 0.2008(4) 0.8676(2) -0.0318(2)
H14B H 0.1627 0.9146 -0.0759
H15B H 0.2081 0.8965 0.0233
H16B H 0.2929 0.8477 -0.0357
C21B C -0.0305(3) 0.8003(2) -0.0368(2)
H17B H -0.0615 0.7441 -0.0111
H18B H -0.0337 0.8570 -0.0023
H19B H -0.0912 0.8100 -0.0932
Cu1A Cu -1.0000 1.0000 -0.5000
Cu1A_2 Cu 1.0000 0.0000 0.5000
N6A N 0.0595(2) 0.56822(13) 0.11149(12)
N6C N -0.0595(2) 0.43178(13) -0.11149(12)
Cl1 Cl 0.78321(7) 0.80337(5) 0.18358(4)
O2 O 0.6433(3) 0.81680(18) 0.18908(18)
O3 O 0.7930(3) 0.72030(17) 0.13542(16)
O4 O 0.8741(3) 0.7956(2) 0.26590(15)
O5 O 0.8224(3) 0.88473(17) 0.14161(17)
O6 O 0.4362(2) 0.6836(2) 0.09241(17)
H20 H 0.497(3) 0.720(2) 0.1254(19)
H21 H 0.465(3) 0.658(2) 0.0528(16)
loop_
_geom_bond_atom_site_label_1
_geom_bond_atom_site_label_2
_geom_bond_site_symmetry_1
_geom_bond_site_symmetry_2
Cu1 O1 1_555 1_555
O1 C19 1_555 1_555
N1 Cu1 1_555 1_555
N2 N3 1_555 1_555
N3 C2 1_555 1_555
N4 N5 1_555 1_555
N5 C18 1_555 1_555
N6 C17 1_555 1_555
N7 C19 1_555 1_555
C1 N1 1_555 1_555
H1 C1 1_555 1_555
C2 N1 1_555 1_555
H2 C2 1_555 1_555
C3 N3 1_555 1_555
C4 C3 1_555 1_555
C5 C4 1_555 1_555
H3 C5 1_555 1_555
C6 C5 1_555 1_555
H4 C6 1_555 1_555
C7 C6 1_555 1_555
H5 C7 1_555 1_555
C8 C7 1_555 1_555
H6 C8 1_555 1_555
C9 C4 1_555 1_555
C10 N4 1_555 1_555
C11 C10 1_555 1_555
C12 C11 1_555 1_555
H7 C12 1_555 1_555
C13 C12 1_555 1_555
H8 C13 1_555 1_555
C14 C13 1_555 1_555
H9 C14 1_555 1_555
C15 C14 1_555 1_555
H10 C15 1_555 1_555
C16 C3 1_555 1_555
C17 N4 1_555 1_555
H11 C17 1_555 1_555
C18 N6 1_555 1_555
H12 C18 1_555 1_555
C19 H13 1_555 1_555
C20 N7 1_555 1_555
H14 C20 1_555 1_555
H15 C20 1_555 1_555
H16 C20 1_555 1_555
C21 N7 1_555 1_555
H17 C21 1_555 1_555
H18 C21 1_555 1_555
H19 C21 1_555 1_555
Cl1 O2 1_555 1_555
O3 Cl1 1_555 1_555
O4 Cl1 1_555 1_555
O5 Cl1 1_555 1_555
O6 H20 1_555 1_555
H21 O6 1_555 1_555
O1B Cu1 1_555 1_555
N1B Cu1 1_555 1_555
N2B N3B 1_555 1_555
N3B C2B 1_555 1_555
N4B N5B 1_555 1_555
N5B C18B 1_555 1_555
N6B C17B 1_555 1_555
N7B C19B 1_555 1_555
C1B N1B 1_555 1_555
H1B C1B 1_555 1_555
C2B N1B 1_555 1_555
H2B C2B 1_555 1_555
C3B N3B 1_555 1_555
C4B C3B 1_555 1_555
C5B C4B 1_555 1_555
H3B C5B 1_555 1_555
C6B C5B 1_555 1_555
H4B C6B 1_555 1_555
C7B C6B 1_555 1_555
H5B C7B 1_555 1_555
C8B C7B 1_555 1_555
H6B C8B 1_555 1_555
C9B C4B 1_555 1_555
C10B N4B 1_555 1_555
C11B C10B 1_555 1_555
C12B C11B 1_555 1_555
H7B C12B 1_555 1_555
C13B C12B 1_555 1_555
H8B C13B 1_555 1_555
C14B C13B 1_555 1_555
H9B C14B 1_555 1_555
C15B C14B 1_555 1_555
H10B C15B 1_555 1_555
C16B C3B 1_555 1_555
C17B N4B 1_555 1_555
H11B C17B 1_555 1_555
C18B N6B 1_555 1_555
H12B C18B 1_555 1_555
C19B O1B 1_555 1_555
H13B C19B 1_555 1_555
C20B N7B 1_555 1_555
H14B C20B 1_555 1_555
H15B C20B 1_555 1_555
H16B C20B 1_555 1_555
C21B N7B 1_555 1_555
H17B C21B 1_555 1_555
H18B C21B 1_555 1_555
H19B C21B 1_555 1_555
Cu1A N6B 1_555 1_555
Cu1A_2 N6 1_555 1_555
N6A Cu1 1_555 1_555
N6C Cu1 1_555 1_555
N2 C1 1_555 1_555
C8 C9 1_555 1_555
C9 C10 1_555 1_555
C11 C16 1_555 1_555
C15 C16 1_555 1_555
N2B C1B 1_555 1_555
C8B C9B 1_555 1_555
C9B C10B 1_555 1_555
C11B C16B 1_555 1_555
C15B C16B 1_555 1_555

#END
