
#######################################################################
#
#                 Cambridge Crystallographic Data Centre
#                                CCDC 
#
#######################################################################
#
# If this CIF has been generated from an entry in the Cambridge 
# Structural Database, then it will include bibliographic, chemical, 
# crystal, experimental, refinement or atomic coordinate data resulting 
# from the CCDC's data processing and validation procedures.
#
#######################################################################

data_KOLYOB
_symmetry_cell_setting           triclinic
_symmetry_space_group_name_H-M   'P -1'
_symmetry_Int_Tables_number      2
_space_group_name_Hall           '-P 1'
loop_
_symmetry_equiv_pos_site_id
_symmetry_equiv_pos_as_xyz
1 x,y,z
2 -x,-y,-z
_cell_length_a                   8.4650(17)
_cell_length_b                   10.542(2)
_cell_length_c                   13.191(3)
_cell_angle_alpha                68.17(3)
_cell_angle_beta                 77.17(3)
_cell_angle_gamma                89.70(3)
_cell_volume                     1061.55
loop_
_atom_site_label
_atom_site_type_symbol
_atom_site_fract_x
_atom_site_fract_y
_atom_site_fract_z
Cu1 Cu 0.5000 0.5000 0.5000
O1 O 0.2330(3) 0.3910(2) 0.5956(2)
O2 O -0.0267(3) 0.3694(3) 0.6118(2)
O3 O 0.1377(4) 0.2972(3) 0.4983(3)
N1 N 0.4561(3) 0.5883(2) 0.34547(19)
N2 N 0.3692(4) 0.6359(3) 0.1875(3)
N3 N 0.4611(3) 0.7465(3) 0.1819(2)
N4 N 0.4079(3) 0.6613(2) 0.53400(19)
N5 N 0.3697(4) 0.8434(3) 0.5830(3)
N6 N 0.2446(3) 0.8189(3) 0.5405(2)
N7 N 0.1127(3) 0.3525(3) 0.5682(2)
C1 C 0.5104(3) 0.7168(3) 0.2768(2)
H1 H 0.5742 0.7775 0.2929
C2 C 0.3701(5) 0.5444(3) 0.2868(3)
H2 H 0.3157 0.4552 0.3156
C3 C 0.4806(4) 0.8756(3) 0.0884(2)
C4 C 0.3461(4) 0.9522(3) 0.0772(2)
C5 C 0.1897(4) 0.9081(4) 0.1549(3)
H3 H 0.1750 0.8228 0.2170
C6 C 0.0636(4) 0.9864(4) 0.1406(3)
H4 H -0.0391 0.9556 0.1924
C7 C 0.0829(4) 1.1136(4) 0.0495(3)
H5 H -0.0075 1.1670 0.0405
C8 C 0.7718(4) 0.8386(4) 0.0258(3)
H6 H 0.7611 0.7520 0.0861
C9 C 0.6350(4) 0.9185(3) 0.0146(2)
C10 C 0.2685(3) 0.7099(3) 0.5126(2)
H7 H 0.1973 0.6729 0.4823
C11 C 0.4645(4) 0.7463(4) 0.5767(3)
H8 H 0.5638 0.7362 0.6000
C12 C 0.1196(3) 0.9120(3) 0.5206(3)
C13 C -0.0246(4) 0.8841(3) 0.6039(3)
C14 C -0.0534(4) 0.7682(3) 0.7068(3)
H9 H 0.0286 0.7067 0.7221
C15 C -0.1985(5) 0.7451(4) 0.7836(3)
H10 H -0.2175 0.6668 0.8519
C16 C -0.3215(5) 0.8371(4) 0.7624(3)
H11 H -0.4216 0.8195 0.8171
C17 C 0.2990(4) 1.0509(3) 0.3339(3)
H12 H 0.3824 0.9903 0.3460
C18 C 0.1487(3) 1.0231(3) 0.4184(3)
N1A N 0.5439(3) 1.4117(2) -0.34547(19)
N2A N 0.6308(4) 1.3641(3) -0.1875(3)
N3A N 0.5389(3) 1.2535(3) -0.1819(2)
C1A C 0.4896(3) 1.2832(3) -0.2768(2)
H1A H 0.4258 1.2225 -0.2929
C2A C 0.6299(5) 1.4556(3) -0.2868(3)
H2A H 0.6843 1.5448 -0.3156
C3A C 0.5194(4) 1.1244(3) -0.0884(2)
C4A C 0.6539(4) 1.0478(3) -0.0772(2)
C5A C 0.8103(4) 1.0919(4) -0.1549(3)
H3A H 0.8250 1.1772 -0.2170
C6A C 0.9364(4) 1.0136(4) -0.1406(3)
H4A H 1.0391 1.0444 -0.1924
C7A C 0.9171(4) 0.8864(4) -0.0495(3)
H5A H 1.0075 0.8330 -0.0405
C8A C 0.2282(4) 1.1614(4) -0.0258(3)
H6A H 0.2389 1.2480 -0.0861
C9A C 0.3650(4) 1.0815(3) -0.0146(2)
N4A N -0.4079(3) 1.3387(2) 0.46600(19)
N5A N -0.3697(4) 1.1566(3) 0.4170(3)
N6A N -0.2446(3) 1.1811(3) 0.4595(2)
C10A C -0.2685(3) 1.2901(3) 0.4874(2)
H7A H -0.1973 1.3271 0.5177
C11A C -0.4645(4) 1.2537(4) 0.4233(3)
H8A H -0.5638 1.2638 0.4000
C12A C -0.1196(3) 1.0880(3) 0.4794(3)
C13A C 0.0246(4) 1.1159(3) 0.3961(3)
C14A C 0.0534(4) 1.2318(3) 0.2932(3)
H9A H -0.0286 1.2933 0.2779
C15A C 0.1985(5) 1.2549(4) 0.2164(3)
H10A H 0.2175 1.3332 0.1481
C16A C 0.3215(5) 1.1629(4) 0.2376(3)
H11A H 0.4216 1.1805 0.1829
C17A C -0.2990(4) 0.9491(3) 0.6661(3)
H12A H -0.3824 1.0097 0.6540
C18A C -0.1487(3) 0.9769(3) 0.5816(3)
O1A O 0.7670(3) 0.6090(2) 0.4044(2)
O2A O 1.0267(3) 0.6306(3) 0.3882(2)
O3A O 0.8623(4) 0.7028(3) 0.5017(3)
N7A N 0.8873(3) 0.6475(3) 0.4318(2)
Cu1_2 Cu -0.5000 1.5000 0.5000
Cu1_3 Cu 0.5000 1.5000 -0.5000
N1A_2 N 0.5439(3) 0.4117(2) 0.65453(19)
N4A_2 N 0.5921(3) 0.3387(2) 0.46600(19)
O4 O 0.3122(5) 0.0755(4) 0.6548(4)
C19 C 0.3249(7) -0.0130(6) 0.7538(5)
O5 O 0.1652(4) 0.4758(4) 0.7768(3)
C20 C 0.0157(7) 0.4254(6) 0.8295(6)
O6 O -0.3107(9) 0.2728(9) 1.0501(6)
C21 C -0.309(2) 0.3790(16) 1.0874(13)
O7 O -0.1527(16) 0.3958(12) 0.9438(9)
O8? O -0.361(2) 0.4331(19) 1.1083(18)
C22? C -0.244(3) 0.384(3) 1.0561(14)
loop_
_geom_bond_atom_site_label_1
_geom_bond_atom_site_label_2
_geom_bond_site_symmetry_1
_geom_bond_site_symmetry_2
Cu1 O1 1_555 1_555
O1 N7 1_555 1_555
O2 N7 1_555 1_555
O3 N7 1_555 1_555
N1 Cu1 1_555 1_555
N2 N3 1_555 1_555
N3 C1 1_555 1_555
N4 Cu1 1_555 1_555
N5 N6 1_555 1_555
N6 C10 1_555 1_555
C1 N1 1_555 1_555
H1 C1 1_555 1_555
C2 N1 1_555 1_555
H2 C2 1_555 1_555
C3 N3 1_555 1_555
C4 C3 1_555 1_555
C5 C4 1_555 1_555
H3 C5 1_555 1_555
C6 C5 1_555 1_555
H4 C6 1_555 1_555
C7 C6 1_555 1_555
H5 C7 1_555 1_555
C8 H6 1_555 1_555
C9 C3 1_555 1_555
C10 N4 1_555 1_555
H7 C10 1_555 1_555
C11 N4 1_555 1_555
H8 C11 1_555 1_555
C12 N6 1_555 1_555
C13 C12 1_555 1_555
C14 C13 1_555 1_555
H9 C14 1_555 1_555
C15 C14 1_555 1_555
H10 C15 1_555 1_555
C16 C15 1_555 1_555
H11 C16 1_555 1_555
C17 H12 1_555 1_555
C18 C12 1_555 1_555
O4 C19 1_555 1_555
O5 C20 1_555 1_555
O6 C21 1_555 1_555
N1A C1A 1_555 1_555
N2A N3A 1_555 1_555
N3A C1A 1_555 1_555
C1A H1A 1_555 1_555
C2A N1A 1_555 1_555
H2A C2A 1_555 1_555
C3A N3A 1_555 1_555
C4A C9 1_555 1_555
C5A C4A 1_555 1_555
H3A C5A 1_555 1_555
C6A C5A 1_555 1_555
H4A C6A 1_555 1_555
C7A C8 1_555 1_555
H5A C7A 1_555 1_555
C8A C7 1_555 1_555
H6A C8A 1_555 1_555
C9A C4 1_555 1_555
N4A C10A 1_555 1_555
N5A N6A 1_555 1_555
N6A C10A 1_555 1_555
C10A H7A 1_555 1_555
C11A N4A 1_555 1_555
H8A C11A 1_555 1_555
C12A N6A 1_555 1_555
C13A C18 1_555 1_555
C14A C13A 1_555 1_555
H9A C14A 1_555 1_555
C15A C14A 1_555 1_555
H10A C15A 1_555 1_555
C16A C17 1_555 1_555
H11A C16A 1_555 1_555
C17A C16 1_555 1_555
H12A C17A 1_555 1_555
C18A C13 1_555 1_555
O1A Cu1 1_555 1_555
O2A N7A 1_555 1_555
O3A N7A 1_555 1_555
N7A O1A 1_555 1_555
Cu1_2 N4A 1_555 1_555
Cu1_3 N1A 1_555 1_555
N1A_2 Cu1 1_555 1_555
N4A_2 Cu1 1_555 1_555
N2 C2 1_555 1_555
N5 C11 1_555 1_555
C8 C9 1_555 1_555
C17 C18 1_555 1_555
N2A C2A 1_555 1_555
C3A C4A 1_555 1_555
C3A C9A 1_555 1_555
C6A C7A 1_555 1_555
C8A C9A 1_555 1_555
N5A C11A 1_555 1_555
C12A C13A 1_555 1_555
C12A C18A 1_555 1_555
C15A C16A 1_555 1_555
C17A C18A 1_555 1_555

#END
