
#######################################################################
#
#                 Cambridge Crystallographic Data Centre
#                                CCDC 
#
#######################################################################
#
# If this CIF has been generated from an entry in the Cambridge 
# Structural Database, then it will include bibliographic, chemical, 
# crystal, experimental, refinement or atomic coordinate data resulting 
# from the CCDC's data processing and validation procedures.
#
#######################################################################

data_KOLYAM01
_symmetry_cell_setting           monoclinic
_symmetry_space_group_name_H-M   'C 2/c'
_symmetry_Int_Tables_number      15
_space_group_name_Hall           '-C 2yn'
loop_
_symmetry_equiv_pos_site_id
_symmetry_equiv_pos_as_xyz
1 x,y,z
2 -x,y,1/2-z
3 1/2+x,1/2+y,z
4 1/2-x,1/2+y,1/2-z
5 -x,-y,-z
6 x,-y,1/2+z
7 1/2-x,1/2-y,-z
8 1/2+x,1/2-y,1/2+z
_cell_length_a                   16.1013(4)
_cell_length_b                   16.0993(4)
_cell_length_c                   19.7514(5)
_cell_angle_alpha                90
_cell_angle_beta                 96.257(2)
_cell_angle_gamma                90
_cell_volume                     5089.45
loop_
_atom_site_label
_atom_site_type_symbol
_atom_site_fract_x
_atom_site_fract_y
_atom_site_fract_z
Zn1 Zn 0.25123(3) 0.34233(11) 0.24993(3)
Zn2 Zn 0.0000 0.09360(11) 0.2500
Zn3 Zn 0.0000 0.59121(11) 0.2500
N1 N 0.1822(5) 0.4180(5) 0.3015(4)
N2 N 0.0803(5) 0.5153(6) 0.3025(5)
N3 N 0.3211(5) 0.4176(5) 0.1988(5)
N4 N 0.4178(5) 0.5199(6) 0.1978(5)
N5 N 0.3334(5) 0.2661(6) 0.3021(5)
N6 N 0.4314(6) 0.1677(5) 0.3011(4)
N7 N 0.1693(5) 0.2661(6) 0.1980(5)
N8 N 0.0701(6) 0.1679(5) 0.1992(4)
C1 C 0.1427(4) 0.1975(4) 0.2261(4)
H1 H 0.1742 0.1712 0.2636
C2 C 0.0449(4) 0.2245(4) 0.1476(3)
C3 C -0.0281(4) 0.2265(4) 0.1040(3)
H2 H -0.0694 0.1846 0.1050
C4 C -0.0383(5) 0.2921(5) 0.0590(4)
H3 H -0.0885 0.2959 0.0290
C5 C 0.0232(5) 0.3533(5) 0.0563(4)
H4 H 0.0147 0.3970 0.0240
C6 C 0.0961(4) 0.3506(4) 0.1001(4)
H5 H 0.1379 0.3921 0.0988
C7 C 0.1061(4) 0.2849(4) 0.1463(3)
C8 C 0.1081(4) 0.4460(4) 0.2740(4)
H6 H 0.0769 0.4189 0.2368
C9 C 0.1443(4) 0.5328(4) 0.3536(3)
C10 C 0.1506(4) 0.5993(4) 0.3992(4)
H7 H 0.1071 0.6390 0.4002
C11 C 0.2231(5) 0.6043(5) 0.4426(4)
H8 H 0.2306 0.6498 0.4733
C12 C 0.2872(5) 0.5439(5) 0.4433(4)
H9 H 0.3360 0.5490 0.4748
C13 C 0.2795(4) 0.4778(4) 0.3985(4)
H10 H 0.3216 0.4365 0.3988
C14 C 0.2071(4) 0.4744(4) 0.3529(3)
C15 C 0.3520(4) 0.4882(4) 0.2259(4)
H11 H 0.3292 0.5146 0.2627
C16 C 0.4296(4) 0.4624(4) 0.1471(4)
C17 C 0.4897(4) 0.4609(4) 0.1017(4)
H12 H 0.5306 0.5034 0.1014
C18 C 0.4870(5) 0.3943(5) 0.0568(4)
H13 H 0.5266 0.3917 0.0245
C19 C 0.4284(5) 0.3317(5) 0.0579(4)
H14 H 0.4301 0.2863 0.0273
C20 C 0.3677(4) 0.3330(4) 0.1017(4)
H15 H 0.3265 0.2907 0.1009
C21 C 0.3693(4) 0.3994(4) 0.1476(3)
C22 C 0.3980(4) 0.2373(5) 0.2738(4)
H16 H 0.4192 0.2642 0.2366
C23 C 0.3822(4) 0.1488(4) 0.3531(3)
C24 C 0.3848(4) 0.0816(4) 0.3967(4)
H17 H 0.4260 0.0395 0.3958
C25 C 0.3257(5) 0.0781(5) 0.4414(4)
H18 H 0.3256 0.0323 0.4718
C26 C 0.2651(5) 0.1405(5) 0.4434(4)
H19 H 0.2252 0.1363 0.4753
C27 C 0.2624(4) 0.2083(4) 0.3997(4)
H20 H 0.2221 0.2511 0.4013
C28 C 0.3216(3) 0.2101(4) 0.3537(3)
Zn1A Zn -0.25123(3) 0.34233(11) 0.25007(3)
Zn2B Zn -0.5000 0.59360(11) 0.2500
Zn2B_2 Zn 0.5000 0.59360(11) 0.2500
Zn3B Zn -0.5000 0.09121(11) 0.2500
Zn3B_2 Zn 0.5000 0.09121(11) 0.2500
N1A N -0.1822(5) 0.4180(5) 0.1985(4)
N2A N -0.0803(5) 0.5153(6) 0.1975(5)
N3A N -0.3211(5) 0.4176(5) 0.3012(5)
N4A N -0.4178(5) 0.5199(6) 0.3022(5)
N4B N -0.0822(5) 0.0199(6) 0.1978(5)
N4C N 0.0822(5) 0.0199(6) 0.3022(5)
N5A N -0.3334(5) 0.2661(6) 0.1979(5)
N6A N -0.4314(6) 0.1677(5) 0.1989(4)
N6B N -0.0686(6) 0.6677(5) 0.3011(4)
N6C N 0.0686(6) 0.6677(5) 0.1989(4)
N7A N -0.1693(5) 0.2661(6) 0.3020(5)
N8A N -0.0701(6) 0.1679(5) 0.3008(4)
C1A C -0.1427(4) 0.1975(4) 0.2739(4)
H1A H -0.1742 0.1712 0.2364
C2A C -0.0449(4) 0.2245(4) 0.3524(3)
C3A C 0.0281(4) 0.2265(4) 0.3960(3)
H2A H 0.0694 0.1846 0.3950
C4A C 0.0383(5) 0.2921(5) 0.4410(4)
H3A H 0.0885 0.2959 0.4710
C5A C -0.0232(5) 0.3533(5) 0.4437(4)
H4A H -0.0147 0.3970 0.4760
C6A C -0.0961(4) 0.3506(4) 0.3999(4)
H5A H -0.1379 0.3921 0.4012
C7A C -0.1061(4) 0.2849(4) 0.3537(3)
C8A C -0.1081(4) 0.4460(4) 0.2260(4)
H6A H -0.0769 0.4189 0.2632
C9A C -0.1443(4) 0.5328(4) 0.1464(3)
C10A C -0.1506(4) 0.5993(4) 0.1008(4)
H7A H -0.1071 0.6390 0.0998
C11A C -0.2231(5) 0.6043(5) 0.0574(4)
H8A H -0.2306 0.6498 0.0267
C12A C -0.2872(5) 0.5439(5) 0.0567(4)
H9A H -0.3360 0.5490 0.0252
C13A C -0.2795(4) 0.4778(4) 0.1015(4)
H10A H -0.3216 0.4365 0.1012
C14A C -0.2071(4) 0.4744(4) 0.1471(3)
C15A C -0.3520(4) 0.4882(4) 0.2741(4)
H11A H -0.3292 0.5146 0.2373
C16A C -0.4296(4) 0.4624(4) 0.3529(4)
C17A C -0.4897(4) 0.4609(4) 0.3983(4)
H12A H -0.5306 0.5034 0.3986
C18A C -0.4870(5) 0.3943(5) 0.4432(4)
H13A H -0.5266 0.3917 0.4755
C19A C -0.4284(5) 0.3317(5) 0.4421(4)
H14A H -0.4301 0.2863 0.4727
C20A C -0.3677(4) 0.3330(4) 0.3983(4)
H15A H -0.3265 0.2907 0.3991
C21A C -0.3693(4) 0.3994(4) 0.3524(3)
C22A C -0.3980(4) 0.2373(5) 0.2262(4)
H16A H -0.4192 0.2642 0.2634
C23A C -0.3822(4) 0.1488(4) 0.1469(3)
C24A C -0.3848(4) 0.0816(4) 0.1033(4)
H17A H -0.4260 0.0395 0.1042
C25A C -0.3257(5) 0.0781(5) 0.0586(4)
H18A H -0.3256 0.0323 0.0282
C26A C -0.2651(5) 0.1405(5) 0.0566(4)
H19A H -0.2252 0.1363 0.0247
C27A C -0.2624(4) 0.2083(4) 0.1003(4)
H20A H -0.2221 0.2511 0.0987
C28A C -0.3216(3) 0.2101(4) 0.1463(3)
loop_
_geom_bond_atom_site_label_1
_geom_bond_atom_site_label_2
_geom_bond_site_symmetry_1
_geom_bond_site_symmetry_2
Zn1 N1 1_555 1_555
Zn2 N8 1_555 1_555
Zn3 N2 1_555 1_555
N1 C8 1_555 1_555
N2 C8 1_555 1_555
N3 Zn1 1_555 1_555
N4 C15 1_555 1_555
N5 Zn1 1_555 1_555
N6 C22 1_555 1_555
N7 Zn1 1_555 1_555
N8 C1 1_555 1_555
C1 N7 1_555 1_555
H1 C1 1_555 1_555
C2 N8 1_555 1_555
C3 C2 1_555 1_555
H2 C3 1_555 1_555
C4 C3 1_555 1_555
H3 C4 1_555 1_555
C5 C4 1_555 1_555
H4 C5 1_555 1_555
C6 C5 1_555 1_555
H5 C6 1_555 1_555
C7 N7 1_555 1_555
C8 H6 1_555 1_555
C9 N2 1_555 1_555
C10 C9 1_555 1_555
H7 C10 1_555 1_555
C11 C10 1_555 1_555
H8 C11 1_555 1_555
C12 C11 1_555 1_555
H9 C12 1_555 1_555
C13 C12 1_555 1_555
H10 C13 1_555 1_555
C14 N1 1_555 1_555
C15 N3 1_555 1_555
H11 C15 1_555 1_555
C16 N4 1_555 1_555
C17 C16 1_555 1_555
H12 C17 1_555 1_555
C18 C17 1_555 1_555
H13 C18 1_555 1_555
C19 C18 1_555 1_555
H14 C19 1_555 1_555
C20 C19 1_555 1_555
H15 C20 1_555 1_555
C21 N3 1_555 1_555
C22 N5 1_555 1_555
H16 C22 1_555 1_555
C23 N6 1_555 1_555
C24 C23 1_555 1_555
H17 C24 1_555 1_555
C25 C24 1_555 1_555
H18 C25 1_555 1_555
C26 C25 1_555 1_555
H19 C26 1_555 1_555
C27 C26 1_555 1_555
H20 C27 1_555 1_555
C28 N5 1_555 1_555
Zn1A N1A 1_555 1_555
Zn2B N4A 1_555 1_555
Zn2B_2 N4 1_555 1_555
Zn3B N6A 1_555 1_555
Zn3B_2 N6 1_555 1_555
N1A C8A 1_555 1_555
N2A Zn3 1_555 1_555
N3A Zn1A 1_555 1_555
N4A C15A 1_555 1_555
N4B Zn2 1_555 1_555
N4C Zn2 1_555 1_555
N5A Zn1A 1_555 1_555
N6A C22A 1_555 1_555
N6B Zn3 1_555 1_555
N6C Zn3 1_555 1_555
N7A Zn1A 1_555 1_555
N8A Zn2 1_555 1_555
C1A N7A 1_555 1_555
H1A C1A 1_555 1_555
C2A N8A 1_555 1_555
C3A C2A 1_555 1_555
H2A C3A 1_555 1_555
C4A C3A 1_555 1_555
H3A C4A 1_555 1_555
C5A C4A 1_555 1_555
H4A C5A 1_555 1_555
C6A C5A 1_555 1_555
H5A C6A 1_555 1_555
C7A N7A 1_555 1_555
C8A N2A 1_555 1_555
H6A C8A 1_555 1_555
C9A N2A 1_555 1_555
C10A C9A 1_555 1_555
H7A C10A 1_555 1_555
C11A C10A 1_555 1_555
H8A C11A 1_555 1_555
C12A C11A 1_555 1_555
H9A C12A 1_555 1_555
C13A C12A 1_555 1_555
H10A C13A 1_555 1_555
C14A N1A 1_555 1_555
C15A N3A 1_555 1_555
H11A C15A 1_555 1_555
C16A N4A 1_555 1_555
C17A C16A 1_555 1_555
H12A C17A 1_555 1_555
C18A C17A 1_555 1_555
H13A C18A 1_555 1_555
C19A C18A 1_555 1_555
H14A C19A 1_555 1_555
C20A C19A 1_555 1_555
H15A C20A 1_555 1_555
C21A N3A 1_555 1_555
C22A N5A 1_555 1_555
H16A C22A 1_555 1_555
C23A N6A 1_555 1_555
C24A C23A 1_555 1_555
H17A C24A 1_555 1_555
C25A C24A 1_555 1_555
H18A C25A 1_555 1_555
C26A C25A 1_555 1_555
H19A C26A 1_555 1_555
C27A C26A 1_555 1_555
H20A C27A 1_555 1_555
C28A N5A 1_555 1_555
C2 C7 1_555 1_555
C6 C7 1_555 1_555
C9 C14 1_555 1_555
C13 C14 1_555 1_555
C16 C21 1_555 1_555
C20 C21 1_555 1_555
C23 C28 1_555 1_555
C27 C28 1_555 1_555
N8A C1A 1_555 1_555
C2A C7A 1_555 1_555
C6A C7A 1_555 1_555
C9A C14A 1_555 1_555
C13A C14A 1_555 1_555
C16A C21A 1_555 1_555
C20A C21A 1_555 1_555
C23A C28A 1_555 1_555
C27A C28A 1_555 1_555

#END
