
#######################################################################
#
#                 Cambridge Crystallographic Data Centre
#                                CCDC 
#
#######################################################################
#
# If this CIF has been generated from an entry in the Cambridge 
# Structural Database, then it will include bibliographic, chemical, 
# crystal, experimental, refinement or atomic coordinate data resulting 
# from the CCDC's data processing and validation procedures.
#
#######################################################################

data_KOLYAM
_symmetry_cell_setting           monoclinic
_symmetry_space_group_name_H-M   'C 2/c'
_symmetry_Int_Tables_number      15
_space_group_name_Hall           '-C 2yn'
loop_
_symmetry_equiv_pos_site_id
_symmetry_equiv_pos_as_xyz
1 x,y,z
2 1/2+x,1/2+y,z
3 -x,y,1/2-z
4 1/2-x,1/2+y,1/2-z
5 -x,-y,-z
6 1/2-x,1/2-y,-z
7 x,-y,1/2+z
8 1/2+x,1/2-y,1/2+z
_cell_length_a                   16.106(3)
_cell_length_b                   16.126(3)
_cell_length_c                   19.511(4)
_cell_angle_alpha                90
_cell_angle_beta                 96.37(3)
_cell_angle_gamma                90
_cell_volume                     5036.22
loop_
_atom_site_label
_atom_site_type_symbol
_atom_site_fract_x
_atom_site_fract_y
_atom_site_fract_z
Zn1 Zn 1.0000 1.09397(4) 0.7500
Zn2 Zn 1.25150(2) 1.34265(4) 0.750040(18)
Zn3 Zn 1.0000 1.59126(4) 0.7500
C1 C 1.1445(2) 1.1987(2) 0.7265(2)
H1 H 1.1760 1.1732 0.7634
C2 C 1.0437(2) 1.22478(19) 0.64706(19)
C3 C 1.1054(2) 1.28528(19) 0.64542(19)
C4 C 1.0963(3) 1.3513(2) 0.5989(2)
H2 H 1.1380 1.3909 0.5970
C5 C 1.0225(3) 1.3549(2) 0.5561(2)
H3 H 1.0137 1.3988 0.5252
C6 C 0.9601(3) 1.2945(2) 0.5576(2)
H4 H 0.9113 1.2989 0.5276
C7 C 0.9701(2) 1.2286(2) 0.6030(2)
H5 H 0.9289 1.1884 0.6040
C8 C 0.8523(2) 0.9880(2) 0.7255(2)
H6 H 0.8304 1.0143 0.7620
C9 C 0.8703(2) 0.89990(19) 0.64660(19)
C10 C 0.9305(2) 0.96260(19) 0.64607(18)
C11 C 0.9906(2) 0.9601(2) 0.5998(2)
H7 H 1.0295 1.0025 0.5983
C12 C 0.9902(3) 0.8924(3) 0.5565(2)
H8 H 1.0309 0.8882 0.5263
C13 C 0.9299(3) 0.8298(2) 0.5570(2)
H9 H 0.9307 0.7857 0.5264
C14 C 0.8698(2) 0.8322(2) 0.6014(2)
H10 H 0.8300 0.7904 0.6015
C15 C 1.3987(2) 1.2375(2) 0.7747(2)
H11 H 1.4199 1.2639 0.7379
C16 C 1.3210(2) 1.2101(2) 0.85443(19)
C17 C 1.2616(2) 1.2073(2) 0.9010(2)
H12 H 1.2220 1.2490 0.9027
C18 C 1.2642(3) 1.1398(3) 0.9446(2)
H13 H 1.2250 1.1356 0.9760
C19 C 1.3244(3) 1.0774(2) 0.9427(2)
H14 H 1.3241 1.0326 0.9728
C20 C 1.3840(3) 1.0808(2) 0.8974(2)
H15 H 1.4240 1.0393 0.8964
C21 C 1.3823(2) 1.14803(19) 0.85344(19)
C22 C 1.1078(2) 1.4463(2) 0.7736(2)
H16 H 1.0768 1.4201 0.7368
C23 C 1.1445(2) 1.53457(19) 0.85417(19)
C24 C 1.1525(3) 1.6014(2) 0.9004(2)
H17 H 1.1106 1.6410 0.9013
C25 C 1.2251(3) 1.6056(2) 0.9442(2)
H18 H 1.2324 1.6493 0.9754
C26 C 1.2887(3) 1.5463(2) 0.9438(2)
H19 H 1.3371 1.5518 0.9742
C27 C 1.2805(2) 1.4799(2) 0.8989(2)
H20 H 1.3221 1.4400 0.8989
C28 C 1.2074(2) 1.47489(19) 0.85383(18)
N1 N 1.0704(3) 1.1694(2) 0.6989(2)
N2 N 1.1695(3) 1.2674(2) 0.6968(2)
N3 N 0.8204(3) 0.9170(2) 0.6987(2)
N4 N 0.9167(2) 1.0190(2) 0.6974(2)
N5 N 1.1824(2) 1.4178(2) 0.8010(2)
N6 N 1.0811(2) 1.5145(2) 0.8026(2)
N7 N 1.4314(2) 1.1679(2) 0.8015(2)
N8 N 1.3337(2) 1.2675(2) 0.8033(2)
Zn2B Zn 0.74850(2) 1.34265(4) 0.749960(18)
Zn2A Zn 0.75150(2) 0.84265(4) 0.750040(18)
Zn2C Zn 1.24850(2) 0.84265(4) 0.749960(18)
Zn3A Zn 1.5000 1.09126(4) 0.7500
Zn3A_2 Zn 0.5000 1.09126(4) 0.7500
C1B C 0.8555(2) 1.1987(2) 0.7735(2)
H1B H 0.8240 1.1732 0.7366
C2B C 0.9563(2) 1.22478(19) 0.85294(19)
C3B C 0.8946(2) 1.28528(19) 0.85458(19)
C4B C 0.9037(3) 1.3513(2) 0.9011(2)
H2B H 0.8620 1.3909 0.9030
C5B C 0.9775(3) 1.3549(2) 0.9439(2)
H3B H 0.9863 1.3988 0.9748
C6B C 1.0399(3) 1.2945(2) 0.9424(2)
H4B H 1.0887 1.2989 0.9724
C7B C 1.0299(2) 1.2286(2) 0.8970(2)
H5B H 1.0711 1.1884 0.8960
C8B C 1.1477(2) 0.9880(2) 0.7745(2)
H6B H 1.1696 1.0143 0.7380
C9B C 1.1297(2) 0.89990(19) 0.85340(19)
C10B C 1.0695(2) 0.96260(19) 0.85393(18)
C11B C 1.0094(2) 0.9601(2) 0.9002(2)
H7B H 0.9705 1.0025 0.9017
C12B C 1.0098(3) 0.8924(3) 0.9435(2)
H8B H 0.9691 0.8882 0.9737
C13B C 1.0701(3) 0.8298(2) 0.9430(2)
H9B H 1.0693 0.7857 0.9736
C14B C 1.1302(2) 0.8322(2) 0.8986(2)
H10B H 1.1700 0.7904 0.8985
C15B C 0.6013(2) 1.2375(2) 0.7253(2)
H11B H 0.5801 1.2639 0.7621
C16B C 0.6790(2) 1.2101(2) 0.64557(19)
C17B C 0.7384(2) 1.2073(2) 0.5990(2)
H12B H 0.7780 1.2490 0.5973
C18B C 0.7358(3) 1.1398(3) 0.5554(2)
H13B H 0.7750 1.1356 0.5240
C19B C 0.6756(3) 1.0774(2) 0.5573(2)
H14B H 0.6759 1.0326 0.5272
C20B C 0.6160(3) 1.0808(2) 0.6026(2)
H15B H 0.5760 1.0393 0.6036
C21B C 0.6177(2) 1.14803(19) 0.64656(19)
C22B C 0.8922(2) 1.4463(2) 0.7264(2)
H16B H 0.9232 1.4201 0.7632
C23B C 0.8555(2) 1.53457(19) 0.64583(19)
C24B C 0.8475(3) 1.6014(2) 0.5996(2)
H17B H 0.8894 1.6410 0.5987
C25B C 0.7749(3) 1.6056(2) 0.5558(2)
H18B H 0.7676 1.6493 0.5246
C26B C 0.7113(3) 1.5463(2) 0.5562(2)
H19B H 0.6629 1.5518 0.5258
C27B C 0.7195(2) 1.4799(2) 0.6011(2)
H20B H 0.6779 1.4400 0.6011
C28B C 0.7926(2) 1.47489(19) 0.64617(18)
N1B N 0.9296(3) 1.1694(2) 0.8011(2)
N2B N 0.8305(3) 1.2674(2) 0.8032(2)
N3B N 1.1796(3) 0.9170(2) 0.8013(2)
N3A N 1.3204(3) 1.4170(2) 0.6987(2)
N3C N 0.6796(3) 1.4170(2) 0.8013(2)
N4B N 1.0833(2) 1.0190(2) 0.8026(2)
N5B N 0.8176(2) 1.4178(2) 0.6990(2)
N6B N 0.9189(2) 1.5145(2) 0.6974(2)
N7B N 0.5686(2) 1.1679(2) 0.6985(2)
N7A N 0.9314(2) 1.6679(2) 0.8015(2)
N7C N 1.0686(2) 1.6679(2) 0.6985(2)
N8B N 0.6663(2) 1.2675(2) 0.6967(2)
loop_
_geom_bond_atom_site_label_1
_geom_bond_atom_site_label_2
_geom_bond_site_symmetry_1
_geom_bond_site_symmetry_2
Zn1 N1 1_555 1_555
Zn2 N2 1_555 1_555
Zn3 N6 1_555 1_555
C1 H1 1_555 1_555
C2 C3 1_555 1_555
C3 C4 1_555 1_555
C4 H2 1_555 1_555
C5 C4 1_555 1_555
H3 C5 1_555 1_555
C6 C5 1_555 1_555
H4 C6 1_555 1_555
C7 C2 1_555 1_555
H5 C7 1_555 1_555
C8 H6 1_555 1_555
C9 C10 1_555 1_555
C10 C11 1_555 1_555
C11 H7 1_555 1_555
C12 C11 1_555 1_555
H8 C12 1_555 1_555
C13 C12 1_555 1_555
H9 C13 1_555 1_555
C14 C9 1_555 1_555
H10 C14 1_555 1_555
C15 H11 1_555 1_555
C16 C17 1_555 1_555
C17 H12 1_555 1_555
C18 C17 1_555 1_555
H13 C18 1_555 1_555
C19 C18 1_555 1_555
H14 C19 1_555 1_555
C20 C19 1_555 1_555
H15 C20 1_555 1_555
C21 C16 1_555 1_555
C22 H16 1_555 1_555
C23 C24 1_555 1_555
C24 H17 1_555 1_555
C25 C24 1_555 1_555
H18 C25 1_555 1_555
C26 C25 1_555 1_555
H19 C26 1_555 1_555
C27 C26 1_555 1_555
H20 C27 1_555 1_555
C28 C23 1_555 1_555
N1 C1 1_555 1_555
N2 C1 1_555 1_555
N3 C8 1_555 1_555
N4 Zn1 1_555 1_555
N5 Zn2 1_555 1_555
N6 C22 1_555 1_555
N7 C15 1_555 1_555
N8 Zn2 1_555 1_555
Zn2B N2B 1_555 1_555
Zn2A N3 1_555 1_555
Zn2C N3B 1_555 1_555
Zn3A N7 1_555 1_555
Zn3A_2 N7B 1_555 1_555
C1B H1B 1_555 1_555
C2B C3B 1_555 1_555
C3B C4B 1_555 1_555
C4B H2B 1_555 1_555
C5B C4B 1_555 1_555
H3B C5B 1_555 1_555
C6B C5B 1_555 1_555
H4B C6B 1_555 1_555
C7B C2B 1_555 1_555
H5B C7B 1_555 1_555
C8B H6B 1_555 1_555
C9B C10B 1_555 1_555
C10B C11B 1_555 1_555
C11B H7B 1_555 1_555
C12B C11B 1_555 1_555
H8B C12B 1_555 1_555
C13B C12B 1_555 1_555
H9B C13B 1_555 1_555
C14B C9B 1_555 1_555
H10B C14B 1_555 1_555
C15B H11B 1_555 1_555
C16B C17B 1_555 1_555
C17B H12B 1_555 1_555
C18B C17B 1_555 1_555
H13B C18B 1_555 1_555
C19B C18B 1_555 1_555
H14B C19B 1_555 1_555
C20B C19B 1_555 1_555
H15B C20B 1_555 1_555
C21B C16B 1_555 1_555
C22B H16B 1_555 1_555
C23B C24B 1_555 1_555
C24B H17B 1_555 1_555
C25B C24B 1_555 1_555
H18B C25B 1_555 1_555
C26B C25B 1_555 1_555
H19B C26B 1_555 1_555
C27B C26B 1_555 1_555
H20B C27B 1_555 1_555
C28B C23B 1_555 1_555
N1B Zn1 1_555 1_555
N2B C1B 1_555 1_555
N3B C8B 1_555 1_555
N3A Zn2 1_555 1_555
N3C Zn2B 1_555 1_555
N4B Zn1 1_555 1_555
N5B Zn2B 1_555 1_555
N6B Zn3 1_555 1_555
N7B C15B 1_555 1_555
N7A Zn3 1_555 1_555
N7C Zn3 1_555 1_555
N8B Zn2B 1_555 1_555
C2 N1 1_555 1_555
C3 N2 1_555 1_555
C6 C7 1_555 1_555
C8 N4 1_555 1_555
C9 N3 1_555 1_555
C10 N4 1_555 1_555
C13 C14 1_555 1_555
C15 N8 1_555 1_555
C16 N8 1_555 1_555
C20 C21 1_555 1_555
C21 N7 1_555 1_555
C22 N5 1_555 1_555
C23 N6 1_555 1_555
C27 C28 1_555 1_555
C28 N5 1_555 1_555
C1B N1B 1_555 1_555
C2B N1B 1_555 1_555
C3B N2B 1_555 1_555
C6B C7B 1_555 1_555
C8B N4B 1_555 1_555
C9B N3B 1_555 1_555
C10B N4B 1_555 1_555
C13B C14B 1_555 1_555
C15B N8B 1_555 1_555
C16B N8B 1_555 1_555
C20B C21B 1_555 1_555
C21B N7B 1_555 1_555
C22B N5B 1_555 1_555
C22B N6B 1_555 1_555
C23B N6B 1_555 1_555
C27B C28B 1_555 1_555
C28B N5B 1_555 1_555

#END
