
#######################################################################
#
#                 Cambridge Crystallographic Data Centre
#                                CCDC 
#
#######################################################################
#
# If this CIF has been generated from an entry in the Cambridge 
# Structural Database, then it will include bibliographic, chemical, 
# crystal, experimental, refinement or atomic coordinate data resulting 
# from the CCDC's data processing and validation procedures.
#
#######################################################################

data_KOLYER
_symmetry_cell_setting           monoclinic
_symmetry_space_group_name_H-M   'P 21/c'
_symmetry_Int_Tables_number      14
_space_group_name_Hall           '-P 2ybc'
loop_
_symmetry_equiv_pos_site_id
_symmetry_equiv_pos_as_xyz
1 x,y,z
2 -x,1/2+y,1/2-z
3 -x,-y,-z
4 x,1/2-y,1/2+z
_cell_length_a                   10.6944(11)
_cell_length_b                   13.9742(14)
_cell_length_c                   15.8189(17)
_cell_angle_alpha                90
_cell_angle_beta                 107.169(2)
_cell_angle_gamma                90
_cell_volume                     2258.72
loop_
_atom_site_label
_atom_site_type_symbol
_atom_site_fract_x
_atom_site_fract_y
_atom_site_fract_z
Cu1 Cu 0.0000 1.0000 0.0000
O1 O -0.0683(4) 0.8781(2) 0.0839(2)
H1 H -0.0272 0.8764 0.1388
H2 H -0.0951 0.8217 0.0685
N1 N 0.3596(3) 0.8615(3) 0.0713(2)
N2 N 0.3760(3) 0.9122(3) 0.0017(2)
N3 N 0.1779(3) 0.9381(2) 0.0168(2)
N4 N 0.7878(3) 0.6470(3) 0.2761(2)
N5 N 0.8876(4) 0.6220(3) 0.2440(3)
N6 N 0.9231(3) 0.5691(2) 0.3829(2)
C1 C 0.2639(4) 0.9563(3) -0.0286(3)
H3 H 0.2451 0.9968 -0.0774
C2 C 0.2420(4) 0.8779(3) 0.0796(3)
H4 H 0.2093 0.8514 0.1227
C3 C 0.4670(4) 0.8054(3) 0.1262(3)
C4 C 0.5734(4) 0.8555(3) 0.1805(3)
C5 C 0.5780(5) 0.9574(3) 0.1884(3)
H5 H 0.5061 0.9935 0.1572
C6 C 0.6856(6) 1.0022(4) 0.2406(4)
H6 H 0.6874 1.0686 0.2449
C7 C 0.7954(5) 0.9475(4) 0.2885(3)
H7 H 0.8695 0.9787 0.3234
C8 C 0.7943(5) 0.8513(4) 0.2845(3)
H8 H 0.8671 0.8171 0.3173
C9 C 0.6840(4) 0.8015(3) 0.2310(3)
C10 C 0.6778(4) 0.7013(3) 0.2236(3)
C11 C 0.5728(4) 0.6520(3) 0.1685(3)
C12 C 0.5712(5) 0.5509(3) 0.1576(3)
H9 H 0.6421 0.5149 0.1904
C13 C 0.4691(6) 0.5064(4) 0.1007(4)
H10 H 0.4702 0.4403 0.0945
C14 C 0.3593(5) 0.5599(4) 0.0500(3)
H11 H 0.2892 0.5284 0.0108
C15 C 0.3561(4) 0.6561(4) 0.0582(3)
H12 H 0.2835 0.6900 0.0246
C16 C 0.4615(4) 0.7060(3) 0.1170(3)
C17 C 0.9666(4) 0.5763(4) 0.3110(3)
H13 H 1.0462 0.5508 0.3093
C18 C 0.8105(4) 0.6149(3) 0.3580(3)
H14 H 0.7550 0.6235 0.3929
O1B O 0.0683(4) 1.1219(2) -0.0839(2)
H1B H 0.0272 1.1236 -0.1388
H2B H 0.0951 1.1783 -0.0685
N1B N -0.3596(3) 1.1385(3) -0.0713(2)
N2B N -0.3760(3) 1.0878(3) -0.0017(2)
N3B N -0.1779(3) 1.0619(2) -0.0168(2)
N4B N -0.7878(3) 1.3530(3) -0.2761(2)
N5B N -0.8876(4) 1.3780(3) -0.2440(3)
N6B N -0.9231(3) 1.4309(2) -0.3829(2)
C1B C -0.2639(4) 1.0437(3) 0.0286(3)
H3B H -0.2451 1.0032 0.0774
C2B C -0.2420(4) 1.1221(3) -0.0796(3)
H4B H -0.2093 1.1486 -0.1227
C3B C -0.4670(4) 1.1946(3) -0.1262(3)
C4B C -0.5734(4) 1.1445(3) -0.1805(3)
C5B C -0.5780(5) 1.0426(3) -0.1884(3)
H5B H -0.5061 1.0065 -0.1572
C6B C -0.6856(6) 0.9978(4) -0.2406(4)
H6B H -0.6874 0.9314 -0.2449
C7B C -0.7954(5) 1.0525(4) -0.2885(3)
H7B H -0.8695 1.0213 -0.3234
C8B C -0.7943(5) 1.1487(4) -0.2845(3)
H8B H -0.8671 1.1829 -0.3173
C9B C -0.6840(4) 1.1985(3) -0.2310(3)
C10B C -0.6778(4) 1.2987(3) -0.2236(3)
C11B C -0.5728(4) 1.3480(3) -0.1685(3)
C12B C -0.5712(5) 1.4491(3) -0.1576(3)
H9B H -0.6421 1.4851 -0.1904
C13B C -0.4691(6) 1.4936(4) -0.1007(4)
H10B H -0.4702 1.5597 -0.0945
C14B C -0.3593(5) 1.4401(4) -0.0500(3)
H11B H -0.2892 1.4716 -0.0108
C15B C -0.3561(4) 1.3439(4) -0.0582(3)
H12B H -0.2835 1.3100 -0.0246
C16B C -0.4615(4) 1.2940(3) -0.1170(3)
C17B C -0.9666(4) 1.4237(4) -0.3110(3)
H13B H -1.0462 1.4492 -0.3093
C18B C -0.8105(4) 1.3851(3) -0.3580(3)
H14B H -0.7550 1.3765 -0.3929
Cu1A Cu -1.0000 1.5000 -0.5000
Cu1A_2 Cu 1.0000 0.5000 0.5000
N6A N 0.0769(3) 1.0691(2) 0.1171(2)
N6C N -0.0769(3) 0.9309(2) -0.1171(2)
Cl1 Cl 0.81431(14) 0.29694(10) 0.19917(9)
O2 O 0.6777(2) 0.3239(4) 0.1660(4)
O3 O 0.8921(5) 0.3805(3) 0.2354(4)
O4 O 0.8574(6) 0.2578(4) 0.1277(3)
O5 O 0.8302(6) 0.2255(3) 0.2680(3)
O10 O 0.8783(8) 0.6823(6) 0.0618(5)
H15 H 0.8939 0.6779 0.1156
C19 C 0.9844(10) 0.6358(8) 0.0345(6)
H16 H 1.0084 0.6756 -0.0077
H17 H 0.9547 0.5749 0.0080
H18 H 1.0590 0.6266 0.0854
O11 O 0.5956(8) 0.8505(5) 0.9433(7)
H19 H 0.5243 0.8736 0.9412
C20 C 0.5832(12) 0.7520(7) 0.9322(9)
H20 H 0.6667 0.7222 0.9580
H21 H 0.5529 0.7372 0.8702
H22 H 0.5215 0.7284 0.9606
O6? O 0.8719(10) 0.3717(6) 0.1590(8)
O7? O 0.9047(9) 0.2709(7) 0.2840(3)
O8? O 0.7873(10) 0.2140(5) 0.1417(6)
O9? O 0.6933(6) 0.3316(7) 0.2119(7)
loop_
_geom_bond_atom_site_label_1
_geom_bond_atom_site_label_2
_geom_bond_site_symmetry_1
_geom_bond_site_symmetry_2
Cu1 O1 1_555 1_555
O1 H1 1_555 1_555
H2 O1 1_555 1_555
N1 N2 1_555 1_555
N2 C1 1_555 1_555
N3 Cu1 1_555 1_555
N4 N5 1_555 1_555
N5 C17 1_555 1_555
N6 C17 1_555 1_555
C1 N3 1_555 1_555
H3 C1 1_555 1_555
C2 N1 1_555 1_555
H4 C2 1_555 1_555
C3 N1 1_555 1_555
C4 C3 1_555 1_555
C5 C4 1_555 1_555
H5 C5 1_555 1_555
C6 C5 1_555 1_555
H6 C6 1_555 1_555
C7 C6 1_555 1_555
H7 C7 1_555 1_555
C8 C7 1_555 1_555
H8 C8 1_555 1_555
C9 C4 1_555 1_555
C10 N4 1_555 1_555
C11 C10 1_555 1_555
C12 C11 1_555 1_555
H9 C12 1_555 1_555
C13 C12 1_555 1_555
H10 C13 1_555 1_555
C14 C13 1_555 1_555
H11 C14 1_555 1_555
C15 C14 1_555 1_555
H12 C15 1_555 1_555
C16 C3 1_555 1_555
C17 H13 1_555 1_555
C18 N4 1_555 1_555
H14 C18 1_555 1_555
Cl1 O2 1_555 1_555
O3 Cl1 1_555 1_555
O4 Cl1 1_555 1_555
O5 Cl1 1_555 1_555
O10 H15 1_555 1_555
C19 O10 1_555 1_555
H16 C19 1_555 1_555
H17 C19 1_555 1_555
H18 C19 1_555 1_555
O11 H19 1_555 1_555
C20 O11 1_555 1_555
H20 C20 1_555 1_555
H21 C20 1_555 1_555
H22 C20 1_555 1_555
O1B Cu1 1_555 1_555
H1B O1B 1_555 1_555
H2B O1B 1_555 1_555
N1B N2B 1_555 1_555
N2B C1B 1_555 1_555
N3B Cu1 1_555 1_555
N4B N5B 1_555 1_555
N5B C17B 1_555 1_555
N6B C17B 1_555 1_555
C1B N3B 1_555 1_555
H3B C1B 1_555 1_555
C2B N1B 1_555 1_555
H4B C2B 1_555 1_555
C3B N1B 1_555 1_555
C4B C3B 1_555 1_555
C5B C4B 1_555 1_555
H5B C5B 1_555 1_555
C6B C5B 1_555 1_555
H6B C6B 1_555 1_555
C7B C6B 1_555 1_555
H7B C7B 1_555 1_555
C8B C7B 1_555 1_555
H8B C8B 1_555 1_555
C9B C4B 1_555 1_555
C10B N4B 1_555 1_555
C11B C10B 1_555 1_555
C12B C11B 1_555 1_555
H9B C12B 1_555 1_555
C13B C12B 1_555 1_555
H10B C13B 1_555 1_555
C14B C13B 1_555 1_555
H11B C14B 1_555 1_555
C15B C14B 1_555 1_555
H12B C15B 1_555 1_555
C16B C3B 1_555 1_555
C17B H13B 1_555 1_555
C18B N4B 1_555 1_555
H14B C18B 1_555 1_555
Cu1A N6B 1_555 1_555
Cu1A_2 N6 1_555 1_555
N6A Cu1 1_555 1_555
N6C Cu1 1_555 1_555
N3 C2 1_555 1_555
N6 C18 1_555 1_555
C8 C9 1_555 1_555
C9 C10 1_555 1_555
C11 C16 1_555 1_555
C15 C16 1_555 1_555
N3B C2B 1_555 1_555
N6B C18B 1_555 1_555
C8B C9B 1_555 1_555
C9B C10B 1_555 1_555
C11B C16B 1_555 1_555
C15B C16B 1_555 1_555

#END
