
#######################################################################
#
#                 Cambridge Crystallographic Data Centre
#                                CCDC 
#
#######################################################################
#
# If this CIF has been generated from an entry in the Cambridge 
# Structural Database, then it will include bibliographic, chemical, 
# crystal, experimental, refinement or atomic coordinate data resulting 
# from the CCDC's data processing and validation procedures.
#
#######################################################################

data_KOLZEQ
_symmetry_cell_setting           triclinic
_symmetry_space_group_name_H-M   'P -1'
_symmetry_Int_Tables_number      2
_space_group_name_Hall           '-P 1'
loop_
_symmetry_equiv_pos_site_id
_symmetry_equiv_pos_as_xyz
1 x,y,z
2 -x,-y,-z
_cell_length_a                   6.2394(8)
_cell_length_b                   11.6342(8)
_cell_length_c                   14.1648(12)
_cell_angle_alpha                89.697(7)
_cell_angle_beta                 88.440(9)
_cell_angle_gamma                81.320(8)
_cell_volume                     1016.07
loop_
_atom_site_label
_atom_site_type_symbol
_atom_site_fract_x
_atom_site_fract_y
_atom_site_fract_z
Ca1 Ca 0.37991(5) 0.47407(3) 0.36167(2)
O1 O 0.2858(2) 0.53681(11) 0.53998(9)
H1 H 0.201(3) 0.4974(16) 0.5640(14)
H2 H 0.221(3) 0.6022(16) 0.5413(14)
O2 O 0.3643(2) 0.29612(11) 0.45747(9)
H3 H 0.454(3) 0.2439(17) 0.4399(15)
H4 H 0.250(3) 0.2711(18) 0.4574(15)
O3 O 0.4686(2) 0.66553(11) 0.37107(10)
H5 H 0.517(4) 0.6937(19) 0.4153(14)
H6 H 0.445(4) 0.7134(19) 0.3335(14)
O4 O 0.0164(2) 0.59266(12) 0.37396(9)
H7 H -0.046(3) 0.6081(18) 0.3242(14)
H8 H 0.021(4) 0.6506(17) 0.3990(14)
O5 O 0.6662(2) 0.32689(13) 0.28615(10)
H9 H 0.686(4) 0.2639(19) 0.3128(15)
H10 H 0.639(4) 0.315(2) 0.2352(14)
O6 O 0.1447(2) 0.36844(14) 0.27377(10)
H11 H 0.138(4) 0.399(2) 0.2215(15)
H12 H 0.035(4) 0.351(2) 0.2846(17)
O7 O 0.4400(2) 0.53731(11) 0.20218(8)
C1 C 0.3591(3) 0.52495(15) 0.12349(12)
O8 O 0.1779(2) 0.49517(13) 0.11197(9)
C2 C 0.4933(3) 0.5502(2) 0.03496(12)
H13 H 0.6407 0.5561 0.05444
C3 C 0.3991(3) 0.6655(2) -0.01053(13)
C4 C 0.1878(3) 0.6888(2) -0.04200(15)
H14 H 0.0974 0.6323 -0.03646
C5 C 0.1115(4) 0.7957(2) -0.0815(2)
H15 H -0.0304 0.8110 -0.1019
C6 C 0.2447(5) 0.8795(2) -0.0908(2)
H16 H 0.1928 0.9517 -0.1167
C7 C 0.4537(5) 0.8557(2) -0.0617(2)
H17 H 0.5447 0.9118 -0.0686
C8 C 0.5308(4) 0.7499(2) -0.0222(2)
H18 H 0.6738 0.7349 -0.0032
C2A C 0.5067(3) 0.4498(2) -0.03496(12)
C1A C 0.6409(3) 0.47505(15) -0.12349(12)
O7A O 0.5600(2) 0.46269(11) -0.20218(8)
O8A O 0.8221(2) 0.50483(13) -0.11197(9)
H13A H 0.3593 0.4439 -0.05444
C3A C 0.6009(3) 0.3345(2) 0.01053(13)
C4A C 0.8122(3) 0.3112(2) 0.04200(15)
H14A H 0.9026 0.3677 0.03646
C5A C 0.8885(4) 0.2043(2) 0.0815(2)
H15A H 1.0304 0.1890 0.1019
C6A C 0.7553(5) 0.1205(2) 0.0908(2)
H16A H 0.8072 0.0483 0.1167
C7A C 0.5463(5) 0.1443(2) 0.0617(2)
H17A H 0.4553 0.0882 0.0686
C8A C 0.4692(4) 0.2501(2) 0.0222(2)
H18A H 0.3262 0.2651 0.0032
O1A O 0.7142(2) 0.46319(11) 0.46002(9)
H1A H 0.799(3) 0.5026(16) 0.4360(14)
H2A H 0.779(3) 0.3978(16) 0.4587(14)
Ca1A Ca 0.62009(5) 0.52593(3) 0.63833(2)
Ca1A_2 Ca 0.62009(5) 0.52593(3) -0.36167(2)
O2A O 0.6357(2) 0.70388(11) 0.54253(9)
H3A H 0.546(3) 0.7561(17) 0.5601(15)
H4A H 0.750(3) 0.7289(18) 0.5426(15)
O3A O 0.5314(2) 0.33447(11) 0.62893(10)
H5A H 0.483(4) 0.3063(19) 0.5847(14)
H6A H 0.555(4) 0.2866(19) 0.6665(14)
O4A O 0.9836(2) 0.40734(12) 0.62604(9)
H7A H 1.046(3) 0.3919(18) 0.6758(14)
H8A H 0.979(4) 0.3494(17) 0.6010(14)
O5A O 0.3338(2) 0.67311(13) 0.71385(10)
H9A H 0.314(4) 0.7361(19) 0.6872(15)
H10A H 0.361(4) 0.685(2) 0.7648(14)
O6A O 0.8553(2) 0.63156(14) 0.72623(10)
H11A H 0.862(4) 0.601(2) 0.7785(15)
H12A H 0.965(4) 0.649(2) 0.7154(17)
O7A_2 O 0.5600(2) 0.46269(11) 0.79782(8)
O9 O 0.7241(2) 0.14112(11) 0.41269(11)
C9 C 0.8902(3) 0.1541(2) 0.45469(14)
C10 C 0.9960(6) 0.0581(3) 0.5249(3)
H19 H 1.1446 0.0710 0.5366
O10 O 0.9558(2) 0.24924(10) 0.46731(10)
C12 C 0.8740(4) 0.0448(3) 0.6234(2)
C13 C 0.6745(4) 0.0199(2) 0.6484(2)
H21 H 0.5990 -0.0199 0.6070
C14 C 0.5850(5) 0.0540(4) 0.7355(3)
H22 H 0.4484 0.0373 0.7533
C15 C 0.6961(10) 0.1120(4) 0.7953(2)
H23 H 0.6357 0.1341 0.8544
C16 C 0.8890(9) 0.1374(2) 0.7708(2)
H24 H 0.9627 0.1783 0.8122
C17 C 0.9791(5) 0.1043(3) 0.6861(2)
H25 H 1.1156 0.1223 0.6697
C10A C 1.0040(6) -0.0581(3) 0.4751(3)
C9A C 1.1098(3) -0.1541(2) 0.54531(14)
O9A O 1.2759(2) -0.14112(11) 0.58731(11)
O10A O 1.0442(2) -0.24924(10) 0.53269(10)
H19A H 0.8554 -0.0710 0.4634
C12A C 1.1260(4) -0.0448(3) 0.3766(2)
C13A C 1.3255(4) -0.0199(2) 0.3516(2)
H21A H 1.4010 0.0199 0.3930
C14A C 1.4150(5) -0.0540(4) 0.2645(3)
H22A H 1.5516 -0.0373 0.2467
C15A C 1.3039(10) -0.1120(4) 0.2047(2)
H23A H 1.3643 -0.1341 0.1456
C16A C 1.1110(9) -0.1374(2) 0.2292(2)
H24A H 1.0373 -0.1783 0.1878
C17A C 1.0209(5) -0.1043(3) 0.3139(2)
H25A H 0.8844 -0.1223 0.3303
O11 O -0.1697(3) 0.6331(2) 0.20785(11)
H26 H -0.277(4) 0.605(2) 0.2053(18)
H27 H -0.082(4) 0.594(2) 0.1728(17)
C11? C 1.0542(6) 0.0382(3) 0.4654(3)
H20? H 1.1855 0.0571 0.4942
loop_
_geom_bond_atom_site_label_1
_geom_bond_atom_site_label_2
_geom_bond_site_symmetry_1
_geom_bond_site_symmetry_2
Ca1 O1 1_555 1_555
O1 H1 1_555 1_555
H2 O1 1_555 1_555
O2 Ca1 1_555 1_555
H3 O2 1_555 1_555
H4 O2 1_555 1_555
O3 Ca1 1_555 1_555
H5 O3 1_555 1_555
H6 O3 1_555 1_555
O4 Ca1 1_555 1_555
H7 O4 1_555 1_555
H8 O4 1_555 1_555
O5 Ca1 1_555 1_555
H9 O5 1_555 1_555
H10 O5 1_555 1_555
O6 Ca1 1_555 1_555
H11 O6 1_555 1_555
H12 O6 1_555 1_555
O7 Ca1 1_555 1_555
C1 O7 1_555 1_555
O8 C1 1_555 1_555
C2 C1 1_555 1_555
H13 C2 1_555 1_555
C3 C2 1_555 1_555
C4 C3 1_555 1_555
H14 C4 1_555 1_555
C5 C4 1_555 1_555
H15 C5 1_555 1_555
C6 C5 1_555 1_555
H16 C6 1_555 1_555
C7 C6 1_555 1_555
H17 C7 1_555 1_555
C8 C3 1_555 1_555
H18 C8 1_555 1_555
O9 C9 1_555 1_555
C9 C10 1_555 1_555
C10 H19 1_555 1_555
O10 C9 1_555 1_555
C12 C10 1_555 1_555
C13 C12 1_555 1_555
H21 C13 1_555 1_555
C14 C13 1_555 1_555
H22 C14 1_555 1_555
C15 C14 1_555 1_555
H23 C15 1_555 1_555
C16 C15 1_555 1_555
H24 C16 1_555 1_555
C17 C12 1_555 1_555
H25 C17 1_555 1_555
O11 H26 1_555 1_555
H27 O11 1_555 1_555
C2A C2 1_555 1_555
C1A C2A 1_555 1_555
O7A C1A 1_555 1_555
O8A C1A 1_555 1_555
H13A C2A 1_555 1_555
C3A C2A 1_555 1_555
C4A C3A 1_555 1_555
H14A C4A 1_555 1_555
C5A C4A 1_555 1_555
H15A C5A 1_555 1_555
C6A C5A 1_555 1_555
H16A C6A 1_555 1_555
C7A C6A 1_555 1_555
H17A C7A 1_555 1_555
C8A C3A 1_555 1_555
H18A C8A 1_555 1_555
C10A C10 1_555 1_555
C9A C10A 1_555 1_555
O9A C9A 1_555 1_555
O10A C9A 1_555 1_555
H19A C10A 1_555 1_555
C12A C10A 1_555 1_555
C13A C12A 1_555 1_555
H21A C13A 1_555 1_555
C14A C13A 1_555 1_555
H22A C14A 1_555 1_555
C15A C14A 1_555 1_555
H23A C15A 1_555 1_555
C16A C15A 1_555 1_555
H24A C16A 1_555 1_555
C17A C12A 1_555 1_555
H25A C17A 1_555 1_555
O1A Ca1 1_555 1_555
H1A O1A 1_555 1_555
H2A O1A 1_555 1_555
Ca1A O1 1_555 1_555
Ca1A_2 O7A 1_555 1_555
O2A Ca1A 1_555 1_555
H3A O2A 1_555 1_555
H4A O2A 1_555 1_555
O3A Ca1A 1_555 1_555
H5A O3A 1_555 1_555
H6A O3A 1_555 1_555
O4A Ca1A 1_555 1_555
H7A O4A 1_555 1_555
H8A O4A 1_555 1_555
O5A Ca1A 1_555 1_555
H9A O5A 1_555 1_555
H10A O5A 1_555 1_555
O6A Ca1A 1_555 1_555
H11A O6A 1_555 1_555
H12A O6A 1_555 1_555
O7A_2 Ca1A 1_555 1_555
C7 C8 1_555 1_555
C16 C17 1_555 1_555
C7A C8A 1_555 1_555
C16A C17A 1_555 1_555
O1A Ca1A 1_555 1_555

#END
