
#######################################################################
#
#                 Cambridge Crystallographic Data Centre
#                                CCDC 
#
#######################################################################
#
# If this CIF has been generated from an entry in the Cambridge 
# Structural Database, then it will include bibliographic, chemical, 
# crystal, experimental, refinement or atomic coordinate data resulting 
# from the CCDC's data processing and validation procedures.
#
#######################################################################

data_KOMDEX
_symmetry_cell_setting           monoclinic
_symmetry_space_group_name_H-M   'C c'
_symmetry_Int_Tables_number      9
_space_group_name_Hall           'C -2yc'
loop_
_symmetry_equiv_pos_site_id
_symmetry_equiv_pos_as_xyz
1 x,y,z
2 x,-y,1/2+z
3 1/2+x,1/2+y,z
4 1/2+x,1/2-y,1/2+z
_cell_length_a                   17.8787(10)
_cell_length_b                   26.9969(16)
_cell_length_c                   19.9335(12)
_cell_angle_alpha                90
_cell_angle_beta                 115.5340(10)
_cell_angle_gamma                90
_cell_volume                     8681.58
loop_
_atom_site_label
_atom_site_type_symbol
_atom_site_fract_x
_atom_site_fract_y
_atom_site_fract_z
Cd1 Cd 0.32122(6) 0.59992(3) 0.43647(6)
Cd2 Cd 0.22931(5) 0.64395(3) 0.24126(5)
Cl1 Cl 0.2615(2) 0.55690(11) 0.3067(2)
Cl2 Cl 0.2900(2) 0.68734(11) 0.3712(2)
C1 C 0.4947(9) 0.6379(5) 0.4347(9)
H1 H 0.4795 0.6717 0.4346
C2 C 0.4936(9) 0.5584(6) 0.4409(11)
H2 H 0.4780 0.5256 0.4464
C3 C 0.5636(9) 0.5707(5) 0.4323(10)
H3 H 0.6036 0.5489 0.4291
C4 C 0.6110(9) 0.7000(6) 0.4005(10)
H4 H 0.5570 0.7131 0.3869
C5 C 0.6268(9) 0.6517(5) 0.4242(8)
C6 C 0.7046(9) 0.6312(5) 0.4412(9)
H5 H 0.7160 0.5976 0.4563
C7 C 0.7656(9) 0.6614(5) 0.4355(9)
H6 H 0.8185 0.6478 0.4461
C8 C 0.7500(9) 0.7108(5) 0.4146(9)
C9 C 0.6698(9) 0.7295(6) 0.3961(9)
H7 H 0.6571 0.7629 0.3805
C10 C 0.8302(9) 0.9795(4) 0.4556(8)
H8 H 0.8120 0.9769 0.4034
C11 C 0.8699(14) 1.0086(7) 0.5626(11)
H9 H 0.8840 1.0317 0.6021
C12 C 0.8729(14) 0.9592(7) 0.5711(10)
H10 H 0.8912 0.9412 0.6164
C13 C 0.8158(13) 0.8528(6) 0.5179(10)
H11 H 0.8035 0.8616 0.5582
C14 C 0.8372(11) 0.8889(5) 0.4781(9)
C15 C 0.8497(10) 0.8773(5) 0.4191(10)
H12 H 0.8659 0.9022 0.3943
C16 C 0.8388(10) 0.8274(5) 0.3930(9)
H13 H 0.8425 0.8187 0.3483
C17 C 0.8232(10) 0.7931(5) 0.4340(10)
C18 C 0.8134(12) 0.8044(7) 0.4963(11)
H14 H 0.8049 0.7787 0.5248
C19 C 1.0739(10) 0.6687(5) 0.2787(9)
H15 H 1.1114 0.6844 0.3231
C20 C 0.9599(11) 0.6441(8) 0.1883(11)
H16 H 0.9029 0.6384 0.1572
C21 C 1.0250(10) 0.6316(7) 0.1737(11)
H17 H 1.0218 0.6150 0.1305
C22 C 0.9459(8) 0.6856(5) 0.2951(9)
C23 C 0.8627(10) 0.6728(6) 0.2726(10)
H18 H 0.8354 0.6515 0.2312
C24 C 0.8212(9) 0.6913(6) 0.3110(10)
H19 H 0.7648 0.6822 0.2951
C25 C 0.8573(8) 0.7226(4) 0.3721(10)
C26 C 0.9391(9) 0.7353(5) 0.3912(10)
H20 H 0.9664 0.7569 0.4323
C27 C 0.9825(9) 0.7179(6) 0.3531(10)
H21 H 1.0380 0.7283 0.3672
C28 C 0.4063(8) 0.6061(5) 0.2461(8)
H22 H 0.3959 0.5726 0.2542
C29 C 0.3957(10) 0.6843(5) 0.2305(11)
H23 H 0.3752 0.7172 0.2255
C30 C 0.4684(10) 0.6708(6) 0.2303(13)
H24 H 0.5072 0.6922 0.2241
C31 C 0.5432(8) 0.5905(5) 0.2442(8)
C32 C 0.6088(9) 0.6125(5) 0.2327(8)
H25 H 0.6094 0.6471 0.2244
C33 C 0.6717(9) 0.5825(5) 0.2339(8)
H26 H 0.7153 0.5967 0.2252
C34 C 0.6730(8) 0.5316(5) 0.2476(8)
C35 C 0.6074(9) 0.5124(6) 0.2588(10)
H27 H 0.6067 0.4778 0.2676
C36 C 0.5451(10) 0.5401(5) 0.2577(11)
H28 H 0.5019 0.5252 0.2662
C37 C 0.7214(8) 0.2625(5) 0.2153(8)
H29 H 0.7487 0.2658 0.2679
C38 C 0.6645(14) 0.2818(7) 0.0967(10)
H30 H 0.6448 0.2992 0.0508
C39 C 0.6673(10) 0.2302(6) 0.1071(10)
H31 H 0.6469 0.2064 0.0683
C40 C 0.7083(10) 0.3528(5) 0.1867(9)
C41 C 0.6526(11) 0.3872(5) 0.1440(10)
H32 H 0.6069 0.3771 0.0995
C42 C 0.6615(12) 0.4374(6) 0.1643(10)
H33 H 0.6212 0.4609 0.1347
C43 C 0.7304(9) 0.4527(5) 0.2287(9)
C44 C 0.7884(9) 0.4169(5) 0.2695(9)
H34 H 0.8359 0.4267 0.3127
C45 C 0.7784(10) 0.3667(5) 0.2484(9)
H35 H 0.8192 0.3428 0.2761
C46 C 1.1288(8) 0.5723(5) 0.3922(8)
H36 H 1.1301 0.5473 0.3592
C47 C 1.0840(10) 0.6212(6) 0.4510(10)
H37 H 1.0492 0.6379 0.4688
C48 C 1.1626(10) 0.6304(5) 0.4696(9)
H38 H 1.1942 0.6553 0.5038
C49 C 0.9583(10) 0.5383(5) 0.2956(10)
H39 H 0.9961 0.5368 0.2737
C50 C 0.9812(8) 0.5610(5) 0.3644(8)
C51 C 0.9239(9) 0.5668(6) 0.3944(9)
H40 H 0.9377 0.5849 0.4391
C52 C 0.8460(8) 0.5454(5) 0.3566(9)
H41 H 0.8075 0.5475 0.3778
C53 C 0.8226(10) 0.5212(5) 0.2896(10)
C54 C 0.8796(9) 0.5177(5) 0.2592(10)
H42 H 0.8645 0.5011 0.2132
C55 C 0.4202(10) 0.6547(5) 0.5968(11)
H43 H 0.4615 0.6327 0.6289
C56 C 0.3761(14) 0.7415(9) 0.5595(14)
H44 H 0.3629 0.7333 0.5078
H45 H 0.4003 0.7747 0.5710
H46 H 0.3253 0.7406 0.5668
C57 C 0.5078(16) 0.7233(9) 0.6695(14)
H47 H 0.5392 0.6955 0.7006
H48 H 0.4916 0.7460 0.6992
H49 H 0.5424 0.7409 0.6502
C58 C 0.1715(15) 0.5542(7) 0.1270(11)
H50 H 0.1875 0.5391 0.1743
C59 C 0.132(2) 0.5412(8) -0.0014(15)
H51 H 0.1813 0.5374 -0.0102
H52 H 0.1153 0.5762 -0.0068
H53 H 0.0865 0.5213 -0.0377
C60 C 0.143(2) 0.4716(7) 0.0785(14)
H54 H 0.1914 0.4553 0.0767
H55 H 0.0924 0.4591 0.0378
H56 H 0.1420 0.4644 0.1262
N1 N 0.4497(7) 0.5996(4) 0.4403(8)
N2 N 0.5630(7) 0.6230(4) 0.4294(7)
N3 N 0.8443(8) 0.9403(4) 0.5014(7)
N4 N 0.8442(7) 1.0208(4) 0.4909(7)
N5 N 0.9928(6) 0.6665(4) 0.2570(7)
N6 N 1.0961(7) 0.6471(4) 0.2323(7)
N7 N 0.8142(8) 0.7399(5) 0.4111(8)
N8 N 0.3563(7) 0.6427(4) 0.2391(7)
N9 N 0.4755(7) 0.6221(4) 0.2402(7)
N10 N 0.6963(8) 0.3016(4) 0.1666(8)
N11 N 0.7029(7) 0.2197(4) 0.1800(7)
N12 N 1.0623(7) 0.5837(4) 0.4022(7)
N13 N 1.1924(7) 0.5997(4) 0.4337(7)
N14 N 0.7407(6) 0.5025(4) 0.2498(8)
N15 N 0.4360(10) 0.7050(6) 0.6095(9)
N16 N 0.1490(9) 0.5252(6) 0.0705(7)
O1 O 0.3609(9) 0.6370(5) 0.5503(7)
O2 O 0.1743(8) 0.6015(4) 0.1257(7)
Cd1_2 Cd 1.32122(6) 0.59992(3) 0.43647(6)
Cd1B Cd 0.82122(6) 1.09992(3) 0.43647(6)
Cd2_2 Cd 1.22931(5) 0.64395(3) 0.24126(5)
Cd2B Cd 0.72931(5) 0.14395(3) 0.24126(5)
N4B N 0.3442(7) 0.5208(4) 0.4909(7)
N6_2 N 0.0961(7) 0.6471(4) 0.2323(7)
N11B N 0.2029(7) 0.7197(4) 0.1800(7)
N13_2 N 0.1924(7) 0.5997(4) 0.4337(7)
I1 I -0.04087(9) 0.29887(5) 0.40979(9)
I2 I 0.04023(8) 0.36705(5) 0.34531(9)
I3 I 0.11826(9) 0.43713(6) 0.28468(11)
I4 I -0.33045(9) 0.31024(5) 0.38236(10)
I5 I -0.47105(9) 0.37739(5) 0.32409(8)
I6 I -0.61584(9) 0.44498(5) 0.26319(8)
C61 C 0.2564(11) 0.9681(6) 0.4500(11)
H57 H 0.2209 0.9474 0.4106
C62 C 0.3617(15) 0.9042(7) 0.4757(12)
H58 H 0.3179 0.8889 0.4318
H59 H 0.3747 0.8829 0.5191
H60 H 0.4115 0.9086 0.4674
C63 C 0.3947(19) 0.9835(8) 0.5558(17)
H61 H 0.4368 0.9984 0.5429
H62 H 0.4217 0.9621 0.5993
H63 H 0.3640 1.0098 0.5671
N17 N 0.3337(10) 0.9523(5) 0.4890(9)
O3 O 0.2276(10) 1.0051(5) 0.4593(11)
C64 C 0.2126(15) 0.9132(10) 0.5815(13)
H64 H 0.2329 0.9457 0.5816
C65 C 0.098(2) 0.8569(9) 0.5428(18)
H65 H 0.1063 0.8454 0.5921
H66 H 0.1293 0.8356 0.5240
H67 H 0.0391 0.8557 0.5088
C66 C 0.0762(15) 0.9477(8) 0.5201(15)
H68 H 0.0438 0.9441 0.4663
H69 H 0.1106 0.9776 0.5305
H70 H 0.0385 0.9506 0.5439
N18 N 0.1270(12) 0.9063(7) 0.5481(11)
O4 O 0.2614(11) 0.8816(11) 0.6096(11)
C67 C 0.2154(17) 0.3412(9) 0.1842(15)
H71 H 0.1694 0.3644 0.1597
H72 H 0.2546 0.3442 0.1620
H73 H 0.2437 0.3490 0.2373
C68 C 0.172(3) 0.2666(11) 0.111(2)
H74 H 0.1793 0.2310 0.1214
H75 H 0.2126 0.2778 0.0929
H76 H 0.1160 0.2729 0.0723
C69 C 0.1418(12) 0.2764(8) 0.2120(13)
H77 H 0.1381 0.2976 0.2484
N19 N 0.1843(12) 0.2922(5) 0.1749(11)
O5 O 0.1076(9) 0.2362(5) 0.2014(11)
C70 C -0.0377(12) 0.3314(10) 0.0789(11)
H78 H -0.0203 0.2984 0.0768
C71 C -0.0989(15) 0.2976(7) 0.1542(12)
H79 H -0.1027 0.3095 0.1990
H80 H -0.0557 0.2721 0.1678
H81 H -0.1522 0.2834 0.1199
C72 C -0.1080(14) 0.3872(8) 0.1263(13)
H82 H -0.1683 0.3885 0.0973
H83 H -0.0821 0.4127 0.1084
H84 H -0.0940 0.3931 0.1789
N20 N -0.0779(10) 0.3389(7) 0.1180(9)
O6 O -0.0202(10) 0.3626(8) 0.0444(9)
loop_
_geom_bond_atom_site_label_1
_geom_bond_atom_site_label_2
_geom_bond_site_symmetry_1
_geom_bond_site_symmetry_2
Cd1 Cl1 1_555 1_555
Cd2 Cl1 1_555 1_555
Cl2 Cd1 1_555 1_555
C1 H1 1_555 1_555
C2 H2 1_555 1_555
C3 C2 1_555 1_555
H3 C3 1_555 1_555
C4 H4 1_555 1_555
C5 C4 1_555 1_555
C6 C5 1_555 1_555
H5 C6 1_555 1_555
C7 C6 1_555 1_555
H6 C7 1_555 1_555
C8 C7 1_555 1_555
C9 C4 1_555 1_555
H7 C9 1_555 1_555
C10 H8 1_555 1_555
C11 H9 1_555 1_555
C12 C11 1_555 1_555
H10 C12 1_555 1_555
C13 H11 1_555 1_555
C14 C13 1_555 1_555
C15 C14 1_555 1_555
H12 C15 1_555 1_555
C16 C15 1_555 1_555
H13 C16 1_555 1_555
C17 C16 1_555 1_555
C18 C13 1_555 1_555
H14 C18 1_555 1_555
C19 H15 1_555 1_555
C20 H16 1_555 1_555
C21 C20 1_555 1_555
H17 C21 1_555 1_555
C22 C23 1_555 1_555
C23 H18 1_555 1_555
C24 C23 1_555 1_555
H19 C24 1_555 1_555
C25 C24 1_555 1_555
C26 C25 1_555 1_555
H20 C26 1_555 1_555
C27 C22 1_555 1_555
H21 C27 1_555 1_555
C28 H22 1_555 1_555
C29 H23 1_555 1_555
C30 C29 1_555 1_555
H24 C30 1_555 1_555
C31 C32 1_555 1_555
C32 H25 1_555 1_555
C33 C32 1_555 1_555
H26 C33 1_555 1_555
C34 C33 1_555 1_555
C35 C34 1_555 1_555
H27 C35 1_555 1_555
C36 C31 1_555 1_555
H28 C36 1_555 1_555
C37 H29 1_555 1_555
C38 H30 1_555 1_555
C39 C38 1_555 1_555
H31 C39 1_555 1_555
C40 C41 1_555 1_555
C41 H32 1_555 1_555
C42 C41 1_555 1_555
H33 C42 1_555 1_555
C43 C42 1_555 1_555
C44 C43 1_555 1_555
H34 C44 1_555 1_555
C45 C40 1_555 1_555
H35 C45 1_555 1_555
C46 H36 1_555 1_555
C47 H37 1_555 1_555
C48 C47 1_555 1_555
H38 C48 1_555 1_555
C49 H39 1_555 1_555
C50 C49 1_555 1_555
C51 C50 1_555 1_555
H40 C51 1_555 1_555
C52 C51 1_555 1_555
H41 C52 1_555 1_555
C53 C52 1_555 1_555
C54 C49 1_555 1_555
H42 C54 1_555 1_555
C55 H43 1_555 1_555
C56 H44 1_555 1_555
H45 C56 1_555 1_555
H46 C56 1_555 1_555
C57 H47 1_555 1_555
H48 C57 1_555 1_555
H49 C57 1_555 1_555
C58 H50 1_555 1_555
C59 H51 1_555 1_555
H52 C59 1_555 1_555
H53 C59 1_555 1_555
C60 H54 1_555 1_555
H55 C60 1_555 1_555
H56 C60 1_555 1_555
N1 Cd1 1_555 1_555
N2 C1 1_555 1_555
N3 C10 1_555 1_555
N4 C10 1_555 1_555
N5 C19 1_555 1_555
N6 C19 1_555 1_555
N7 C8 1_555 1_555
N8 Cd2 1_555 1_555
N9 C28 1_555 1_555
N10 C37 1_555 1_555
N11 C37 1_555 1_555
N12 C46 1_555 1_555
N13 C46 1_555 1_555
N14 C34 1_555 1_555
N15 C55 1_555 1_555
N16 C58 1_555 1_555
O1 Cd1 1_555 1_555
O2 Cd2 1_555 1_555
I1 I2 1_555 1_555
I2 I3 1_555 1_555
I4 I5 1_555 1_555
I5 I6 1_555 1_555
C61 H57 1_555 1_555
C62 H58 1_555 1_555
H59 C62 1_555 1_555
H60 C62 1_555 1_555
C63 H61 1_555 1_555
H62 C63 1_555 1_555
H63 C63 1_555 1_555
N17 C61 1_555 1_555
O3 C61 1_555 1_555
C64 H64 1_555 1_555
C65 H65 1_555 1_555
H66 C65 1_555 1_555
H67 C65 1_555 1_555
C66 H68 1_555 1_555
H69 C66 1_555 1_555
H70 C66 1_555 1_555
N18 C64 1_555 1_555
O4 C64 1_555 1_555
C67 H71 1_555 1_555
H72 C67 1_555 1_555
H73 C67 1_555 1_555
C68 H74 1_555 1_555
H75 C68 1_555 1_555
H76 C68 1_555 1_555
C69 H77 1_555 1_555
N19 C67 1_555 1_555
O5 C69 1_555 1_555
C70 H78 1_555 1_555
C71 H79 1_555 1_555
H80 C71 1_555 1_555
H81 C71 1_555 1_555
C72 H82 1_555 1_555
H83 C72 1_555 1_555
H84 C72 1_555 1_555
N20 C70 1_555 1_555
O6 C70 1_555 1_555
Cd1_2 N13 1_555 1_555
Cd1B N4 1_555 1_555
Cd2_2 N6 1_555 1_555
Cd2B N11 1_555 1_555
N4B Cd1 1_555 1_555
N6_2 Cd2 1_555 1_555
N11B Cd2 1_555 1_555
N13_2 Cd1 1_555 1_555
Cd2 Cl2 1_555 1_555
C1 N1 1_555 1_555
C2 N1 1_555 1_555
C3 N2 1_555 1_555
C5 N2 1_555 1_555
C8 C9 1_555 1_555
C11 N4 1_555 1_555
C12 N3 1_555 1_555
C14 N3 1_555 1_555
C17 C18 1_555 1_555
C17 N7 1_555 1_555
C20 N5 1_555 1_555
C21 N6 1_555 1_555
C22 N5 1_555 1_555
C25 N7 1_555 1_555
C26 C27 1_555 1_555
C28 N8 1_555 1_555
C29 N8 1_555 1_555
C30 N9 1_555 1_555
C31 N9 1_555 1_555
C35 C36 1_555 1_555
C38 N10 1_555 1_555
C39 N11 1_555 1_555
C40 N10 1_555 1_555
C43 N14 1_555 1_555
C44 C45 1_555 1_555
C47 N12 1_555 1_555
C48 N13 1_555 1_555
C50 N12 1_555 1_555
C53 C54 1_555 1_555
C53 N14 1_555 1_555
C55 O1 1_555 1_555
C56 N15 1_555 1_555
C57 N15 1_555 1_555
C58 O2 1_555 1_555
C59 N16 1_555 1_555
C60 N16 1_555 1_555
C62 N17 1_555 1_555
C63 N17 1_555 1_555
C65 N18 1_555 1_555
C66 N18 1_555 1_555
C68 N19 1_555 1_555
C69 N19 1_555 1_555
C71 N20 1_555 1_555
C72 N20 1_555 1_555

#END
