
#######################################################################
#
#                 Cambridge Crystallographic Data Centre
#                                CCDC 
#
#######################################################################
#
# If this CIF has been generated from an entry in the Cambridge 
# Structural Database, then it will include bibliographic, chemical, 
# crystal, experimental, refinement or atomic coordinate data resulting 
# from the CCDC's data processing and validation procedures.
#
#######################################################################

data_KOMDAT
_symmetry_cell_setting           orthorhombic
_symmetry_space_group_name_H-M   'P b c n'
_symmetry_Int_Tables_number      60
_space_group_name_Hall           '-P 2n 2ab'
loop_
_symmetry_equiv_pos_site_id
_symmetry_equiv_pos_as_xyz
1 x,y,z
2 1/2-x,1/2-y,1/2+z
3 -x,y,1/2-z
4 1/2+x,1/2-y,-z
5 -x,-y,-z
6 1/2+x,1/2+y,1/2-z
7 x,-y,1/2+z
8 1/2-x,1/2+y,z
_cell_length_a                   8.960(5)
_cell_length_b                   28.437(14)
_cell_length_c                   56.80(3)
_cell_angle_alpha                90
_cell_angle_beta                 90
_cell_angle_gamma                90
_cell_volume                     14472.4
loop_
_atom_site_label
_atom_site_type_symbol
_atom_site_fract_x
_atom_site_fract_y
_atom_site_fract_z
I1 I -0.2278(4) -0.42104(11) 0.00620(5)
I2 I 0.0000 -0.5000 0.0000
I1D I 0.2278(4) -0.57896(11) -0.00620(5)
C1 C 0.1760(12) 0.0316(4) 0.1810(2)
H1 H 0.2478 0.0561 0.1809
N1 N 0.1173(14) 0.0092(4) 0.20137(15)
C2 C 0.0136(14) -0.0255(4) 0.1939(2)
H2 H -0.0424 -0.0458 0.2038
C3 C 0.0083(13) -0.0245(4) 0.1689(2)
H3 H -0.0518 -0.0440 0.1592
N2 N 0.1087(14) 0.0107(4) 0.16095(14)
C4 C 0.2774(14) 0.0657(3) 0.2534(2)
H4 H 0.3098 0.0960 0.2582
C5 C 0.2244(14) 0.0587(4) 0.23065(19)
H5 H 0.2206 0.0842 0.2199
C6 C 0.1771(14) 0.0143(4) 0.22364(16)
C7 C 0.1827(14) -0.0231(3) 0.2394(2)
H6 H 0.1504 -0.0535 0.2346
C8 C 0.2357(14) -0.0161(4) 0.26210(19)
H7 H 0.2396 -0.0417 0.2729
C9 C 0.2831(14) 0.0283(4) 0.26911(16)
C10 C 0.3023(10) 0.2324(4) 0.3509(2)
H8 H 0.4048 0.2367 0.3472
C11 C 0.2118(13) 0.2640(3) 0.3639(2)
H9 H 0.2430 0.2932 0.3704
N3 N 0.0663(11) 0.2445(4) 0.36548(19)
C12 C 0.0669(11) 0.2008(3) 0.3534(2)
H10 H -0.0157 0.1801 0.3517
N4 N 0.2128(13) 0.1933(3) 0.34439(18)
C13 C 0.3838(12) 0.1371(4) 0.33333(19)
H11 H 0.4556 0.1511 0.3435
C14 C 0.2408(14) 0.1559(3) 0.33190(19)
C15 C 0.1358(11) 0.1355(4) 0.3171(2)
H12 H 0.0381 0.1483 0.3161
C16 C 0.1738(12) 0.0964(4) 0.30365(18)
H13 H 0.1020 0.0825 0.2935
C17 C 0.3168(14) 0.0777(3) 0.30508(19)
C18 C 0.4218(11) 0.0980(4) 0.3199(2)
H14 H 0.5196 0.0853 0.3209
C19 C 0.596(2) -0.1347(6) 0.3539(3)
H15 H 0.5030 -0.1249 0.3601
C20 C 0.807(2) -0.1689(6) 0.3505(3)
H16 H 0.8930 -0.1873 0.3534
C21 C 0.793(2) -0.1303(6) 0.3331(3)
H17 H 0.8611 -0.1201 0.3214
C22 C 0.5902(12) -0.0701(4) 0.30177(19)
H18 H 0.6481 -0.0916 0.2928
C23 C 0.5200(13) -0.0325(4) 0.29071(14)
H19 H 0.5300 -0.0283 0.2742
C24 C 0.4352(13) -0.0010(3) 0.30381(19)
C25 C 0.4205(12) -0.0071(4) 0.32798(18)
H20 H 0.3626 0.0144 0.3369
C26 C 0.4907(13) -0.0447(4) 0.33904(14)
H21 H 0.4806 -0.0489 0.3556
C27 C 0.5755(13) -0.0762(3) 0.32594(19)
N5 N 0.2126(12) -0.0211(3) 0.11077(17)
C28 C 0.1158(10) -0.0585(4) 0.1044(2)
H22 H 0.0150 -0.0621 0.1093
C29 C 0.1961(13) -0.0897(3) 0.08955(19)
N6 N 0.3425(11) -0.0715(4) 0.08667(17)
C30 C 0.3527(10) -0.0291(3) 0.09978(19)
H23 H 0.4383 -0.0095 0.1010
C31 C 0.0235(12) -0.1552(3) 0.09017(13)
H24 H -0.0088 -0.1457 0.1054
C32 C -0.0408(10) -0.1941(3) 0.07941(17)
H25 H -0.1169 -0.2113 0.0873
C33 C 0.0064(11) -0.2080(3) 0.05716(17)
C34 C 0.1178(11) -0.1829(3) 0.04566(13)
H26 H 0.1500 -0.1924 0.0304
C35 C 0.1820(10) -0.1439(3) 0.05641(17)
H27 H 0.2582 -0.1268 0.0486
C36 C 0.1349(11) -0.1301(3) 0.07867(17)
C37 C -0.2427(18) -0.3571(6) 0.0880(3)
C38 C -0.3055(17) -0.3425(5) 0.0660(3)
H28 H -0.3886 -0.3593 0.0599
C39 C -0.2496(18) -0.3044(5) 0.0530(3)
H29 H -0.3020 -0.2929 0.0397
C40 C -0.1233(18) -0.2848(5) 0.0597(3)
C41 C -0.0467(18) -0.2993(5) 0.0797(3)
H30 H 0.0435 -0.2840 0.0839
C42 C -0.1007(17) -0.3367(5) 0.0939(3)
H31 H -0.0446 -0.3479 0.1069
C43 C 0.0094(12) -0.3113(3) -0.00935(18)
H32 H 0.0425 -0.3414 -0.0143
C44 C -0.0028(12) -0.3013(3) 0.01454(16)
H33 H 0.0221 -0.3247 0.0259
C45 C -0.0513(12) -0.2573(4) 0.02185(13)
C46 C -0.0877(12) -0.2232(3) 0.00529(18)
H34 H -0.1209 -0.1931 0.0103
C47 C -0.0756(12) -0.2331(3) -0.01859(16)
H35 H -0.1005 -0.2098 -0.0299
C48 C -0.0271(12) -0.2772(4) -0.02591(13)
C49 C -0.0844(12) -0.2629(3) -0.06770(19)
H36 H -0.1508 -0.2371 -0.0659
N7 N 0.0002(13) -0.2843(4) -0.04946(14)
C50 C 0.0847(12) -0.3215(4) -0.05953(19)
H37 H 0.1511 -0.3417 -0.0513
C51 C 0.0523(13) -0.3231(4) -0.08399(17)
H38 H 0.0934 -0.3445 -0.0950
N8 N -0.0521(12) -0.2869(4) -0.08904(14)
Cl1 Cl 0.3412(5) 0.08133(15) 0.12813(7)
Cl2 Cl -0.2951(6) -0.21359(17) -0.12540(8)
N9 N 0.3525(17) 0.0348(5) 0.2920(2)
N10 N 0.6597(18) -0.1141(5) 0.3384(3)
N11 N 0.6687(17) -0.1731(5) 0.3617(2)
N12 N -0.0646(14) -0.2492(4) 0.0462(2)
N13 N -0.4712(9) -0.4418(3) 0.11741(17)
C52 C -0.3278(11) -0.4626(3) 0.11963(18)
H39 H -0.3062 -0.4918 0.1270
C53 C -0.2225(8) -0.4322(4) 0.10880(19)
H40 H -0.1180 -0.4375 0.1077
N14 N -0.3008(11) -0.3926(3) 0.09989(16)
C54 C -0.4545(10) -0.3986(3) 0.10521(17)
H41 H -0.5325 -0.3773 0.1013
Zn1 Zn 0.1563(2) 0.03105(7) 0.12988(4)
Zn2 Zn -0.1198(2) -0.26979(7) -0.12036(4)
N3F N 0.0663(11) -0.2445(4) -0.13452(19)
N11A N -0.1687(17) -0.3269(5) -0.1383(2)
N13G N -0.0288(9) 0.0582(3) 0.11741(17)
Zn1G Zn -0.6563(2) -0.46895(7) 0.12988(4)
Zn2A Zn 0.6198(2) -0.23021(7) 0.37964(4)
Zn2F Zn -0.1198(2) 0.26979(7) 0.37964(4)
loop_
_geom_bond_atom_site_label_1
_geom_bond_atom_site_label_2
_geom_bond_site_symmetry_1
_geom_bond_site_symmetry_2
C1 H1 1_555 1_555
N1 C1 1_555 1_555
C2 N1 1_555 1_555
H2 C2 1_555 1_555
C3 C2 1_555 1_555
H3 C3 1_555 1_555
N2 C1 1_555 1_555
C4 H4 1_555 1_555
C5 C4 1_555 1_555
H5 C5 1_555 1_555
C6 N1 1_555 1_555
C7 C6 1_555 1_555
H6 C7 1_555 1_555
C8 C7 1_555 1_555
H7 C8 1_555 1_555
C9 C4 1_555 1_555
C10 H8 1_555 1_555
C11 C10 1_555 1_555
H9 C11 1_555 1_555
N3 C11 1_555 1_555
C12 N3 1_555 1_555
H10 C12 1_555 1_555
N4 C10 1_555 1_555
C13 H11 1_555 1_555
C14 N4 1_555 1_555
C15 C14 1_555 1_555
H12 C15 1_555 1_555
C16 C15 1_555 1_555
H13 C16 1_555 1_555
C17 C16 1_555 1_555
C18 C13 1_555 1_555
H14 C18 1_555 1_555
C19 H15 1_555 1_555
C20 H16 1_555 1_555
C21 C20 1_555 1_555
H17 C21 1_555 1_555
C22 H18 1_555 1_555
C23 C22 1_555 1_555
H19 C23 1_555 1_555
C24 C23 1_555 1_555
C25 C24 1_555 1_555
H20 C25 1_555 1_555
C26 C25 1_555 1_555
H21 C26 1_555 1_555
C27 C22 1_555 1_555
N5 C28 1_555 1_555
C28 H22 1_555 1_555
C29 C28 1_555 1_555
N6 C29 1_555 1_555
C30 N5 1_555 1_555
H23 C30 1_555 1_555
C31 H24 1_555 1_555
C32 C31 1_555 1_555
H25 C32 1_555 1_555
C33 C32 1_555 1_555
C34 C33 1_555 1_555
H26 C34 1_555 1_555
C35 C34 1_555 1_555
H27 C35 1_555 1_555
C36 C29 1_555 1_555
C37 C38 1_555 1_555
C38 H28 1_555 1_555
C39 C38 1_555 1_555
H29 C39 1_555 1_555
C40 C39 1_555 1_555
C41 C40 1_555 1_555
H30 C41 1_555 1_555
C42 C37 1_555 1_555
H31 C42 1_555 1_555
C43 H32 1_555 1_555
C44 C43 1_555 1_555
H33 C44 1_555 1_555
C45 C44 1_555 1_555
C46 C45 1_555 1_555
H34 C46 1_555 1_555
C47 C46 1_555 1_555
H35 C47 1_555 1_555
C48 C43 1_555 1_555
C49 H36 1_555 1_555
N7 C48 1_555 1_555
C50 N7 1_555 1_555
H37 C50 1_555 1_555
C51 C50 1_555 1_555
H38 C51 1_555 1_555
N8 C49 1_555 1_555
Cl1 Zn1 1_555 1_555
Cl2 Zn2 1_555 1_555
N9 C9 1_555 1_555
N10 C19 1_555 1_555
N11 C19 1_555 1_555
N12 C33 1_555 1_555
N13 C52 1_555 1_555
C52 H39 1_555 1_555
C53 C52 1_555 1_555
H40 C53 1_555 1_555
N14 C37 1_555 1_555
C54 N13 1_555 1_555
H41 C54 1_555 1_555
Zn1 N2 1_555 1_555
Zn2 N8 1_555 1_555
I1 I2 1_555 1_555
I2 I1D 1_555 1_555
N3F Zn2 1_555 1_555
N11A Zn2 1_555 1_555
N13G Zn1 1_555 1_555
Zn1G N13 1_555 1_555
Zn2A N11 1_555 1_555
Zn2F N3 1_555 1_555
C3 N2 1_555 1_555
C5 C6 1_555 1_555
C8 C9 1_555 1_555
C12 N4 1_555 1_555
C13 C14 1_555 1_555
C17 C18 1_555 1_555
C17 N9 1_555 1_555
C20 N11 1_555 1_555
C21 N10 1_555 1_555
C24 N9 1_555 1_555
C26 C27 1_555 1_555
C27 N10 1_555 1_555
N5 Zn1 1_555 1_555
N6 C30 1_555 1_555
C31 C36 1_555 1_555
C35 C36 1_555 1_555
C40 N12 1_555 1_555
C41 C42 1_555 1_555
C45 N12 1_555 1_555
C47 C48 1_555 1_555
C49 N7 1_555 1_555
C51 N8 1_555 1_555
C53 N14 1_555 1_555
N14 C54 1_555 1_555

#END
