
#######################################################################
#
#                 Cambridge Crystallographic Data Centre
#                                CCDC 
#
#######################################################################
#
# If this CIF has been generated from an entry in the Cambridge 
# Structural Database, then it will include bibliographic, chemical, 
# crystal, experimental, refinement or atomic coordinate data resulting 
# from the CCDC's data processing and validation procedures.
#
#######################################################################

data_KOMFIC
_symmetry_cell_setting           monoclinic
_symmetry_space_group_name_H-M   'P 21/n'
_symmetry_Int_Tables_number      14
_space_group_name_Hall           '-P 2yn'
loop_
_symmetry_equiv_pos_site_id
_symmetry_equiv_pos_as_xyz
1 x,y,z
2 1/2-x,1/2+y,1/2-z
3 -x,-y,-z
4 1/2+x,1/2-y,1/2+z
_cell_length_a                   7.9693(18)
_cell_length_b                   12.977(3)
_cell_length_c                   10.267(2)
_cell_angle_alpha                90
_cell_angle_beta                 90.221(4)
_cell_angle_gamma                90
_cell_volume                     1061.78
loop_
_atom_site_label
_atom_site_type_symbol
_atom_site_fract_x
_atom_site_fract_y
_atom_site_fract_z
Cu1 Cu 0.0000 1.0000 0.5000
O1 O 0.1691(4) 1.0380(2) 0.6859(3)
H1 H 0.1710 1.0010 0.7536
H2 H 0.2546 1.0743 0.6689
N1 N 0.1064(3) 0.86203(19) 0.4688(3)
N2 N 0.1804(4) 0.7992(2) 0.5628(3)
N3 N 0.1872(3) 0.72320(19) 0.3734(3)
N4 N 0.2148(3) 0.6520(2) 0.2768(3)
N5 N 0.1697(4) 0.5310(3) 0.1345(4)
N6 N 0.3340(3) 0.56460(19) 0.1255(3)
C1 C 0.1122(4) 0.8154(2) 0.3567(3)
H3 H 0.0714 0.8413 0.2783
C2 C 0.2269(5) 0.7161(3) 0.5029(3)
H4 H 0.2794 0.6601 0.5421
C3 C 0.1009(5) 0.5849(3) 0.2264(4)
H5 H -0.0098 0.5785 0.2537
C4 C 0.3581(4) 0.6373(2) 0.2104(3)
H6 H 0.4577 0.6733 0.2231
Cu1C Cu 0.5000 0.5000 0.0000
Cu1C_2 Cu -0.5000 1.5000 1.0000
O1B O -0.1691(4) 0.9620(2) 0.3141(3)
H1B H -0.1710 0.9990 0.2464
H2B H -0.2546 0.9257 0.3311
N1B N -0.1064(3) 1.13797(19) 0.5312(3)
N2B N -0.1804(4) 1.2008(2) 0.4372(3)
N3B N -0.1872(3) 1.27680(19) 0.6266(3)
N4B N -0.2148(3) 1.3480(2) 0.7232(3)
N5B N -0.1697(4) 1.4690(3) 0.8655(4)
N6B N -0.3340(3) 1.43540(19) 0.8745(3)
N6C N -0.1660(3) 0.93540(19) 0.6255(3)
N6A N 0.1660(3) 1.06460(19) 0.3745(3)
C1B C -0.1122(4) 1.1846(2) 0.6433(3)
H3B H -0.0714 1.1587 0.7217
C2B C -0.2269(5) 1.2839(3) 0.4971(3)
H4B H -0.2794 1.3399 0.4579
C3B C -0.1009(5) 1.4151(3) 0.7736(4)
H5B H 0.0098 1.4215 0.7463
C4B C -0.3581(4) 1.3627(2) 0.7896(3)
H6B H -0.4577 1.3267 0.7769
B1 B 0.2328(5) 0.8823(3) 1.0035(3)
F1 F 0.2364(10) 0.8826(6) 0.8731(5)
F2 F 0.1946(9) 0.9744(4) 1.0580(8)
F3 F 0.3847(7) 0.8583(6) 1.0559(7)
F4 F 0.1001(6) 0.8229(4) 1.0436(5)
O2 O 0.4550(4) 0.1557(2) 0.6426(3)
H7 H 0.5113 0.1029 0.6188
H8 H 0.4214 0.1950 0.5805
F5? F 0.1370(14) 0.9343(9) 0.9148(10)
F6? F 0.2906(19) 0.9355(10) 1.1076(10)
F7? F 0.3420(10) 0.8303(8) 0.9263(9)
F8? F 0.1627(11) 0.7979(5) 1.0584(7)
loop_
_geom_bond_atom_site_label_1
_geom_bond_atom_site_label_2
_geom_bond_site_symmetry_1
_geom_bond_site_symmetry_2
Cu1 O1 1_555 1_555
O1 H1 1_555 1_555
H2 O1 1_555 1_555
N1 Cu1 1_555 1_555
N2 N1 1_555 1_555
N3 N4 1_555 1_555
N4 C3 1_555 1_555
N5 N6 1_555 1_555
N6 C4 1_555 1_555
C1 N1 1_555 1_555
H3 C1 1_555 1_555
C2 N2 1_555 1_555
H4 C2 1_555 1_555
C3 N5 1_555 1_555
H5 C3 1_555 1_555
C4 N4 1_555 1_555
H6 C4 1_555 1_555
B1 F1 1_555 1_555
F2 B1 1_555 1_555
F3 B1 1_555 1_555
F4 B1 1_555 1_555
O2 H7 1_555 1_555
H8 O2 1_555 1_555
Cu1C N6 1_555 1_555
Cu1C_2 N6B 1_555 1_555
O1B Cu1 1_555 1_555
H1B O1B 1_555 1_555
H2B O1B 1_555 1_555
N1B Cu1 1_555 1_555
N2B N1B 1_555 1_555
N3B N4B 1_555 1_555
N4B C3B 1_555 1_555
N5B N6B 1_555 1_555
N6B C4B 1_555 1_555
N6C Cu1 1_555 1_555
N6A Cu1 1_555 1_555
C1B N1B 1_555 1_555
H3B C1B 1_555 1_555
C2B N2B 1_555 1_555
H4B C2B 1_555 1_555
C3B N5B 1_555 1_555
H5B C3B 1_555 1_555
C4B N4B 1_555 1_555
H6B C4B 1_555 1_555
N3 C1 1_555 1_555
N3 C2 1_555 1_555
N3B C1B 1_555 1_555
N3B C2B 1_555 1_555

#END
