
#######################################################################
#
#                 Cambridge Crystallographic Data Centre
#                                CCDC 
#
#######################################################################
#
# If this CIF has been generated from an entry in the Cambridge 
# Structural Database, then it will include bibliographic, chemical, 
# crystal, experimental, refinement or atomic coordinate data resulting 
# from the CCDC's data processing and validation procedures.
#
#######################################################################

data_KOMGUP
_symmetry_cell_setting           orthorhombic
_symmetry_space_group_name_H-M   'P n m a'
_symmetry_Int_Tables_number      62
_space_group_name_Hall           '-P 2ac 2n'
loop_
_symmetry_equiv_pos_site_id
_symmetry_equiv_pos_as_xyz
1 x,y,z
2 1/2-x,-y,1/2+z
3 -x,1/2+y,-z
4 1/2+x,1/2-y,1/2-z
5 -x,-y,-z
6 1/2+x,y,1/2-z
7 x,1/2-y,z
8 1/2-x,1/2+y,1/2+z
_cell_length_a                   9.8055(11)
_cell_length_b                   16.1941(19)
_cell_length_c                   9.3531(11)
_cell_angle_alpha                90
_cell_angle_beta                 90
_cell_angle_gamma                90
_cell_volume                     1485.19
loop_
_atom_site_label
_atom_site_type_symbol
_atom_site_fract_x
_atom_site_fract_y
_atom_site_fract_z
Zn1 Zn 0.87998(4) 0.41766(3) 0.05950(5)
N1 N 1.0609(3) 0.4402(2) 0.1455(4)
N2 N 1.1513(4) 0.4989(2) 0.0976(4)
N3 N 1.2428(3) 0.4408(2) 0.2863(4)
N4 N 1.0608(6) 0.3512(4) 0.3466(7)
H1 H 0.9787 0.3352 0.3296
H2 H 1.1044 0.3317 0.4188
O1 O 0.8378(5) 0.3180(2) -0.0418(4)
O2 O 0.8901(6) 0.2500 0.1502(7)
C1 C 1.1210(4) 0.4068(3) 0.2597(6)
C2 C 1.2542(4) 0.4972(3) 0.1824(5)
H3 H 1.3292 0.5319 0.1726
C3 C 0.8596(6) 0.2500 0.0247(8)
Zn1D Zn 1.12002(4) 0.58234(3) -0.05950(5)
Zn1E Zn 1.37998(4) 0.41766(3) 0.44050(5)
Zn1F Zn 0.87998(4) 0.08234(3) 0.05950(5)
Zn1A Zn 0.62002(4) 0.58234(3) -0.44050(5)
N1D N 0.9391(3) 0.5598(2) -0.1455(4)
N2D N 0.8487(4) 0.5011(2) -0.0976(4)
N3D N 0.7572(3) 0.5592(2) -0.2863(4)
N3E N 0.7428(3) 0.4408(2) 0.2137(4)
N3A N 1.2572(3) 0.5592(2) -0.2137(4)
N4D N 0.9392(6) 0.6488(4) -0.3466(7)
H1D H 1.0213 0.6648 -0.3296
H2D H 0.8956 0.6683 -0.4188
O1F O 0.8378(5) 0.1820(2) -0.0418(4)
O1D O 1.1622(5) 0.6820(2) 0.0418(4)
C1D C 0.8790(4) 0.5932(3) -0.2597(6)
C2D C 0.7458(4) 0.5028(3) -0.1824(5)
H3D H 0.6708 0.4681 -0.1726
O3 O 0.734(3) 0.7500 -0.039(2)
H4 H 0.7781 0.7500 -0.1105
H5 H 0.6489 0.7500 -0.0558
O4 O 1.0007(15) 0.6469(11) 0.3233(17)
H6 H 1.0506 0.6322 0.3932
H7 H 1.0446 0.6802 0.2703
O5 O 0.821(3) 0.6913(15) 0.197(3)
H8 H 0.8456 0.6963 0.2835
H9 H 0.8707 0.7221 0.1444
loop_
_geom_bond_atom_site_label_1
_geom_bond_atom_site_label_2
_geom_bond_site_symmetry_1
_geom_bond_site_symmetry_2
Zn1 N1 1_555 1_555
N1 N2 1_555 1_555
N2 C2 1_555 1_555
N3 C1 1_555 1_555
N4 H1 1_555 1_555
H2 N4 1_555 1_555
O1 Zn1 1_555 1_555
O2 C3 1_555 1_555
C1 N1 1_555 1_555
C2 N3 1_555 1_555
H3 C2 1_555 1_555
C3 O1 1_555 1_555
O3 H4 1_555 1_555
H5 O3 1_555 1_555
O4 H6 1_555 1_555
H7 O4 1_555 1_555
O5 H8 1_555 1_555
H9 O5 1_555 1_555
Zn1D N2 1_555 1_555
Zn1E N3 1_555 1_555
Zn1F O1F 1_555 1_555
Zn1A N3D 1_555 1_555
N1D Zn1D 1_555 1_555
N2D Zn1 1_555 1_555
N3D C1D 1_555 1_555
N3E Zn1 1_555 1_555
N3A Zn1D 1_555 1_555
N4D H1D 1_555 1_555
H2D N4D 1_555 1_555
O1F C3 1_555 1_555
O1D Zn1D 1_555 1_555
C1D N1D 1_555 1_555
C2D N2D 1_555 1_555
H3D C2D 1_555 1_555
N4 C1 1_555 1_555
N1D N2D 1_555 1_555
N3D C2D 1_555 1_555
N4D C1D 1_555 1_555

#END
