
#######################################################################
#
#                 Cambridge Crystallographic Data Centre
#                                CCDC 
#
#######################################################################
#
# If this CIF has been generated from an entry in the Cambridge 
# Structural Database, then it will include bibliographic, chemical, 
# crystal, experimental, refinement or atomic coordinate data resulting 
# from the CCDC's data processing and validation procedures.
#
#######################################################################

data_KOMJEC
_symmetry_cell_setting           triclinic
_symmetry_space_group_name_H-M   'P -1'
_symmetry_Int_Tables_number      2
_space_group_name_Hall           '-P 1'
loop_
_symmetry_equiv_pos_site_id
_symmetry_equiv_pos_as_xyz
1 x,y,z
2 -x,-y,-z
_cell_length_a                   6.7590(14)
_cell_length_b                   7.6743(15)
_cell_length_c                   8.0505(16)
_cell_angle_alpha                101.92(3)
_cell_angle_beta                 103.14(3)
_cell_angle_gamma                101.44(3)
_cell_volume                     384.471
loop_
_atom_site_label
_atom_site_type_symbol
_atom_site_fract_x
_atom_site_fract_y
_atom_site_fract_z
Sm1 Sm -0.036185(17) -0.114930(14) 0.704516(14)
O1 O 0.2039(3) 0.0982(2) 0.5867(2)
O2 O 0.3231(3) 0.0934(3) 0.8602(2)
O3 O 0.9420(3) 0.1906(3) 1.0306(3)
O4 O 0.1985(3) -0.3000(2) 0.6160(3)
O5 O 0.2158(3) -0.5671(2) 0.4516(3)
O6 O -0.3697(3) -0.1862(3) 0.7765(3)
H1 H -0.370(6) -0.171(5) 0.870(6)
H2 H -0.493(6) -0.223(5) 0.716(5)
O7 O 0.8677(4) 0.1728(3) 0.7485(3)
C1 C 0.3433(4) 0.1625(3) 0.7358(3)
C2 C 0.5224(4) 0.3235(4) 0.7572(4)
H3 H 0.4700 0.4324 0.7614
H4 H 0.5719 0.3012 0.6530
C3 C 0.8464(4) 0.2330(3) 0.8976(3)
C4 C 0.7074(4) 0.3619(3) 0.9178(3)
H5 H 0.6554 0.3525 1.0190
H6 H 0.7900 0.4873 0.9410
C5 C 0.1203(4) -0.4619(3) 0.5189(3)
Sm1A Sm 0.036185(17) 0.114930(14) 0.295484(14)
Sm1A_2 Sm 1.036185(17) 0.114930(14) 1.295484(14)
Sm1A_3 Sm 0.036185(17) -0.885070(14) 0.295484(14)
Sm1_2 Sm 0.963815(17) -0.114930(14) 0.704516(14)
Sm1_3 Sm -1.036185(17) -0.114930(14) -0.295484(14)
Sm1A_4 Sm -0.963815(17) 0.114930(14) 0.295484(14)
O1A O -0.2039(3) -0.0982(2) 0.4133(2)
O2A O -0.3231(3) -0.0934(3) 0.1398(2)
O3A O -0.9420(3) -0.1906(3) -0.0306(3)
O3A_2 O 0.0580(3) -0.1906(3) 0.9694(3)
O3_2 O -0.0580(3) 0.1906(3) 0.0306(3)
O4A O -0.1985(3) -0.7000(2) 0.3840(3)
O4A_2 O -0.1985(3) 0.3000(2) 0.3840(3)
O5A O -0.2158(3) -0.4329(2) 0.5484(3)
O5_2 O 0.2158(3) 0.4329(2) 0.4516(3)
O6A O 0.3697(3) 0.1862(3) 0.2235(3)
H1A H 0.370(6) 0.171(5) 0.130(6)
H2A H 0.493(6) 0.223(5) 0.284(5)
O7A O -0.8677(4) -0.1728(3) 0.2515(3)
O7_2 O -0.1323(4) 0.1728(3) 0.7485(3)
O7A_2 O 0.1323(4) -0.1728(3) 0.2515(3)
C1A C -0.3433(4) -0.1625(3) 0.2642(3)
C2A C -0.5224(4) -0.3235(4) 0.2428(4)
H3A H -0.4700 -0.4324 0.2386
H4A H -0.5719 -0.3012 0.3470
C3A C -0.8464(4) -0.2330(3) 0.1024(3)
C4A C -0.7074(4) -0.3619(3) 0.0822(3)
H5A H -0.6554 -0.3525 -0.0190
H6A H -0.7900 -0.4873 0.0590
C5A C -0.1203(4) -0.5381(3) 0.4811(3)
loop_
_geom_bond_atom_site_label_1
_geom_bond_atom_site_label_2
_geom_bond_site_symmetry_1
_geom_bond_site_symmetry_2
Sm1 O1 1_555 1_555
O1 C1 1_555 1_555
O2 Sm1 1_555 1_555
O3 C3 1_555 1_555
O4 Sm1 1_555 1_555
O5 C5 1_555 1_555
O6 Sm1 1_555 1_555
H1 O6 1_555 1_555
H2 O6 1_555 1_555
O7 C3 1_555 1_555
C1 O2 1_555 1_555
C2 C1 1_555 1_555
H3 C2 1_555 1_555
H4 C2 1_555 1_555
C3 C4 1_555 1_555
C4 C2 1_555 1_555
H5 C4 1_555 1_555
H6 C4 1_555 1_555
C5 O4 1_555 1_555
Sm1A O1 1_555 1_555
Sm1A_2 O3 1_555 1_555
Sm1A_3 O5 1_555 1_555
Sm1_2 O7 1_555 1_555
Sm1_3 O3A 1_555 1_555
Sm1A_4 O7A 1_555 1_555
O1A Sm1 1_555 1_555
O2A Sm1A 1_555 1_555
O3A C3A 1_555 1_555
O3A_2 Sm1 1_555 1_555
O3_2 Sm1A 1_555 1_555
O4A Sm1A_3 1_555 1_555
O4A_2 Sm1A 1_555 1_555
O5A Sm1 1_555 1_555
O5_2 Sm1A 1_555 1_555
O6A Sm1A 1_555 1_555
H1A O6A 1_555 1_555
H2A O6A 1_555 1_555
O7A C3A 1_555 1_555
O7_2 Sm1 1_555 1_555
O7A_2 Sm1A 1_555 1_555
C1A O1A 1_555 1_555
C2A C1A 1_555 1_555
H3A C2A 1_555 1_555
H4A C2A 1_555 1_555
C3A C4A 1_555 1_555
C4A C2A 1_555 1_555
H5A C4A 1_555 1_555
H6A C4A 1_555 1_555
C5A C5 1_555 1_555
Sm1A O1A 1_555 1_555
O2A C1A 1_555 1_555
O4A C5A 1_555 1_555
O5A C5A 1_555 1_555

#END
