
#######################################################################
#
#                 Cambridge Crystallographic Data Centre
#                                CCDC 
#
#######################################################################
#
# If this CIF has been generated from an entry in the Cambridge 
# Structural Database, then it will include bibliographic, chemical, 
# crystal, experimental, refinement or atomic coordinate data resulting 
# from the CCDC's data processing and validation procedures.
#
#######################################################################

data_KOMJOM
_symmetry_cell_setting           orthorhombic
_symmetry_space_group_name_H-M   'P b a m'
_symmetry_Int_Tables_number      55
_space_group_name_Hall           '-P 2 2ab'
loop_
_symmetry_equiv_pos_site_id
_symmetry_equiv_pos_as_xyz
1 x,y,z
2 -x,-y,z
3 1/2-x,1/2+y,-z
4 1/2+x,1/2-y,-z
5 -x,-y,-z
6 x,y,-z
7 1/2+x,1/2-y,z
8 1/2-x,1/2+y,z
_cell_length_a                   8.9736(18)
_cell_length_b                   16.717(3)
_cell_length_c                   7.3096(15)
_cell_angle_alpha                90
_cell_angle_beta                 90
_cell_angle_gamma                90
_cell_volume                     1096.53
loop_
_atom_site_label
_atom_site_type_symbol
_atom_site_fract_x
_atom_site_fract_y
_atom_site_fract_z
H1 H -0.099(5) 0.625(3) 0.911(7)
Nd1 Nd 0.01099(3) 0.881775(13) 0.5000
K1 K -0.03044(16) 0.78586(8) 1.0000
C1 C 0.0000 1.0000 0.8927(7)
C2 C -0.2805(4) 0.7709(2) 0.6059(4)
C3 C 0.2907(6) 0.9753(3) 0.5000
C4 C 0.4304(7) 1.0242(4) 0.5000
H2 H 0.4303 1.0584 0.3929
H3 H 0.4303 1.0584 0.6071
O1 O 0.0216(3) 0.93383(15) 0.8164(4)
O2 O -0.1882(3) 0.81571(15) 0.6830(4)
O3 O 0.2923(5) 0.9018(3) 0.5000
O4 O -0.3744(3) 0.72737(17) 0.6824(4)
O5 O 0.1660(4) 1.0119(2) 0.5000
O6 O -0.1546(15) 0.6314(7) 1.0000
H1E H -0.099(5) 0.625(3) 1.089(7)
H1D H 0.099(5) 1.375(3) 1.089(7)
H1A H 0.099(5) 1.375(3) 0.911(7)
Nd1_2 Nd 0.01099(3) 0.881775(13) 1.5000
Nd1F Nd -0.48901(3) 0.618225(13) 0.5000
Nd1D Nd -0.01099(3) 1.118225(13) 0.5000
Nd1D_2 Nd -0.01099(3) 1.118225(13) 1.5000
Nd1D_3 Nd 0.98901(3) 1.118225(13) 0.5000
Nd1_3 Nd 1.01099(3) 0.881775(13) 0.5000
Nd1F_2 Nd 0.51099(3) 0.618225(13) 0.5000
K1D K 0.03044(16) 1.21414(8) 1.0000
K1F K -0.53044(16) 0.71414(8) 1.0000
K1_2 K -0.03044(16) 0.78586(8) 0.0000
K1F_2 K -0.53044(16) 0.71414(8) 0.0000
K1F_3 K 0.46956(16) 0.71414(8) 1.0000
K1F_4 K 0.46956(16) 0.71414(8) 0.0000
C1E C 0.0000 1.0000 1.1073(7)
C2E C -0.2805(4) 0.7709(2) 0.3941(4)
C2F C 0.2195(4) 0.7291(2) 0.6059(4)
C2C C 0.2195(4) 0.7291(2) 0.3941(4)
C3D C 0.7093(6) 1.0247(3) 0.5000
C4D C 0.5696(7) 0.9758(4) 0.5000
H2D H 0.5697 0.9416 0.6071
H2A H 0.5697 0.9416 0.3929
O1E O 0.0216(3) 0.93383(15) 1.1836(4)
O1D O -0.0216(3) 1.06617(15) 1.1836(4)
O1A O -0.0216(3) 1.06617(15) 0.8164(4)
O1E_2 O 0.0216(3) 0.93383(15) 0.1836(4)
O1_2 O 0.0216(3) 0.93383(15) 1.8164(4)
O2E O -0.1882(3) 0.81571(15) 0.3170(4)
O2F O 0.3118(3) 0.68429(15) 0.6830(4)
O2C O 0.3118(3) 0.68429(15) 0.3170(4)
O2E_2 O -0.1882(3) 0.81571(15) 1.3170(4)
O2_2 O -0.1882(3) 0.81571(15) 1.6830(4)
O2D O 0.1882(3) 1.18429(15) 1.3170(4)
O2A O 0.1882(3) 1.18429(15) 0.6830(4)
O3D O 0.7077(5) 1.0982(3) 0.5000
O3_2 O 0.2923(5) 0.9018(3) 1.5000
O4E O -0.3744(3) 0.72737(17) 0.3176(4)
O4F O 0.1256(3) 0.77263(17) 0.6824(4)
O4C O 0.1256(3) 0.77263(17) 0.3176(4)
O4C_2 O 0.1256(3) 0.77263(17) 1.3176(4)
O4F_2 O 0.1256(3) 0.77263(17) 1.6824(4)
O4G O -0.1256(3) 1.22737(17) 0.6824(4)
O4B O -0.1256(3) 1.22737(17) 1.3176(4)
O5D O 0.8340(4) 0.9881(2) 0.5000
O5D_2 O -0.1660(4) 0.9881(2) 0.5000
O5_2 O 0.1660(4) 1.0119(2) 1.5000
O5D_3 O -0.1660(4) 0.9881(2) 1.5000
O6D O 0.1546(15) 1.3686(7) 1.0000
O7 O 0.3409(19) 0.0527(11) 1.0000
loop_
_geom_bond_atom_site_label_1
_geom_bond_atom_site_label_2
_geom_bond_site_symmetry_1
_geom_bond_site_symmetry_2
H1 O6 1_555 1_555
Nd1 O1 1_555 1_555
K1 O1 1_555 1_555
C1 O1 1_555 1_555
C2 O2 1_555 1_555
C3 C4 1_555 1_555
C4 H2 1_555 1_555
H3 C4 1_555 1_555
O2 Nd1 1_555 1_555
O3 Nd1 1_555 1_555
O4 C2 1_555 1_555
O5 Nd1 1_555 1_555
O6 K1 1_555 1_555
H1E O6 1_555 1_555
H1D O6D 1_555 1_555
H1A O6D 1_555 1_555
Nd1_2 O1E 1_555 1_555
Nd1F O4 1_555 1_555
Nd1D O5 1_555 1_555
Nd1D_2 O1D 1_555 1_555
Nd1D_3 O3D 1_555 1_555
Nd1_3 O5D 1_555 1_555
Nd1F_2 O2F 1_555 1_555
K1D O1D 1_555 1_555
K1F O4 1_555 1_555
K1_2 O1E_2 1_555 1_555
K1F_2 O4E 1_555 1_555
K1F_3 O2F 1_555 1_555
K1F_4 O2C 1_555 1_555
C1E C1 1_555 1_555
C2E C2 1_555 1_555
C2F C2C 1_555 1_555
C2C O2C 1_555 1_555
C3D C4D 1_555 1_555
C4D C4 1_555 1_555
H2D C4D 1_555 1_555
H2A C4D 1_555 1_555
O1E K1 1_555 1_555
O1D C1E 1_555 1_555
O1A C1 1_555 1_555
O1E_2 Nd1 1_555 1_555
O1_2 Nd1_2 1_555 1_555
O2E Nd1 1_555 1_555
O2F C2F 1_555 1_555
O2C Nd1F_2 1_555 1_555
O2E_2 K1 1_555 1_555
O2_2 Nd1_2 1_555 1_555
O2D Nd1D_2 1_555 1_555
O2A Nd1D 1_555 1_555
O3D C3D 1_555 1_555
O3_2 Nd1_2 1_555 1_555
O4E Nd1F 1_555 1_555
O4F Nd1 1_555 1_555
O4C Nd1 1_555 1_555
O4C_2 K1 1_555 1_555
O4F_2 Nd1_2 1_555 1_555
O4G Nd1D 1_555 1_555
O4B Nd1D_2 1_555 1_555
O5D Nd1D_3 1_555 1_555
O5D_2 Nd1 1_555 1_555
O5_2 Nd1_2 1_555 1_555
O5D_3 Nd1_2 1_555 1_555
O6D K1D 1_555 1_555
K1 O2 1_555 1_555
K1 O4F 1_555 1_555
C3 O3 1_555 1_555
C3 O5 1_555 1_555
Nd1_2 O2E_2 1_555 1_555
Nd1_2 O4C_2 1_555 1_555
Nd1D O1A 1_555 1_555
Nd1D O5D_2 1_555 1_555
Nd1D_2 O5_2 1_555 1_555
Nd1D_2 O5D_3 1_555 1_555
K1D O1A 1_555 1_555
K1D O2D 1_555 1_555
K1D O2A 1_555 1_555
K1D O4G 1_555 1_555
K1D O4B 1_555 1_555
K1_2 O2E 1_555 1_555
K1_2 O4C 1_555 1_555
C1E O1E 1_555 1_555
C2E O2E 1_555 1_555
C2E O4E 1_555 1_555
C2F O4F 1_555 1_555
C2C O4C 1_555 1_555
C3D O5D 1_555 1_555

#END
