
#######################################################################
#
#                 Cambridge Crystallographic Data Centre
#                                CCDC 
#
#######################################################################
#
# If this CIF has been generated from an entry in the Cambridge 
# Structural Database, then it will include bibliographic, chemical, 
# crystal, experimental, refinement or atomic coordinate data resulting 
# from the CCDC's data processing and validation procedures.
#
#######################################################################

data_KOMKED
_symmetry_cell_setting           orthorhombic
_symmetry_space_group_name_H-M   'P b a m'
_symmetry_Int_Tables_number      55
_space_group_name_Hall           '-P 2 2ab'
loop_
_symmetry_equiv_pos_site_id
_symmetry_equiv_pos_as_xyz
1 x,y,z
2 -x,-y,z
3 1/2-x,1/2+y,-z
4 1/2+x,1/2-y,-z
5 -x,-y,-z
6 x,y,-z
7 1/2+x,1/2-y,z
8 1/2-x,1/2+y,z
_cell_length_a                   8.876(3)
_cell_length_b                   16.367(5)
_cell_length_c                   7.224(2)
_cell_angle_alpha                90
_cell_angle_beta                 90
_cell_angle_gamma                90
_cell_volume                     1049.46
loop_
_atom_site_label
_atom_site_type_symbol
_atom_site_fract_x
_atom_site_fract_y
_atom_site_fract_z
Tb1 Tb 0.48820(2) 0.118547(12) 0.5000
K1 K 0.52910(15) 0.21652(8) 0.0000
C1 C 0.5000 0.0000 0.1092(7)
C2 C 0.2781(4) 0.2706(2) 0.3935(4)
C3 C 0.7867(5) -0.0237(3) 0.5000
C4 C 0.9299(6) 0.0252(3) 0.5000
H1 H 0.9307 0.0602 0.3916
H2 H 0.9307 0.0602 0.6084
O1 O 0.4752(3) 0.06723(15) 0.1856(4)
O2 O 0.3731(3) 0.22590(17) 0.3166(4)
O3 O 0.1833(3) 0.31583(15) 0.3168(3)
O4 O 0.6613(4) 0.0134(2) 0.5000
O5 O 0.7885(5) -0.0993(2) 0.5000
O6 O 0.6483(11) 0.3729(4) 0.0000
Tb1_2 Tb 0.48820(2) 0.118547(12) -0.5000
Tb1F Tb -0.01180(2) 0.381453(12) 0.5000
Tb1D Tb 0.51180(2) -0.118547(12) 0.5000
Tb1D_2 Tb 0.51180(2) -0.118547(12) -0.5000
Tb1_3 Tb 1.48820(2) 0.118547(12) 0.5000
Tb1D_3 Tb 1.51180(2) -0.118547(12) 0.5000
Tb1F_2 Tb 0.98820(2) 0.381453(12) 0.5000
K1D K 0.47090(15) -0.21652(8) 0.0000
K1F K 0.02910(15) 0.28348(8) 0.0000
K1_2 K 0.52910(15) 0.21652(8) 1.0000
K1F_2 K 0.02910(15) 0.28348(8) 1.0000
K1F_3 K 1.02910(15) 0.28348(8) 0.0000
K1F_4 K 1.02910(15) 0.28348(8) 1.0000
C1E C 0.5000 0.0000 -0.1092(7)
C2E C 0.2781(4) 0.2706(2) 0.6065(4)
C2F C 0.7781(4) 0.2294(2) 0.3935(4)
C2C C 0.7781(4) 0.2294(2) 0.6065(4)
C3D C 1.2133(5) 0.0237(3) 0.5000
C4D C 1.0701(6) -0.0252(3) 0.5000
H1D H 1.0693 -0.0602 0.6084
H1A H 1.0693 -0.0602 0.3916
O1E O 0.4752(3) 0.06723(15) -0.1856(4)
O1D O 0.5248(3) -0.06723(15) -0.1856(4)
O1A O 0.5248(3) -0.06723(15) 0.1856(4)
O1E_2 O 0.4752(3) 0.06723(15) 0.8144(4)
O1_2 O 0.4752(3) 0.06723(15) -0.8144(4)
O2E O 0.3731(3) 0.22590(17) 0.6834(4)
O2F O 0.8731(3) 0.27410(17) 0.3166(4)
O2C O 0.8731(3) 0.27410(17) 0.6834(4)
O2E_2 O 0.3731(3) 0.22590(17) -0.3166(4)
O2_2 O 0.3731(3) 0.22590(17) -0.6834(4)
O2D O 0.6269(3) -0.22590(17) -0.3166(4)
O2A O 0.6269(3) -0.22590(17) 0.3166(4)
O3E O 0.1833(3) 0.31583(15) 0.6832(3)
O3F O 0.6833(3) 0.18417(15) 0.3168(3)
O3C O 0.6833(3) 0.18417(15) 0.6832(3)
O3C_2 O 0.6833(3) 0.18417(15) -0.3168(3)
O3F_2 O 0.6833(3) 0.18417(15) -0.6832(3)
O3G O 0.3167(3) -0.18417(15) 0.3168(3)
O3B O 0.3167(3) -0.18417(15) -0.3168(3)
O4D O 1.3387(4) -0.0134(2) 0.5000
O4D_2 O 0.3387(4) -0.0134(2) 0.5000
O4_2 O 0.6613(4) 0.0134(2) -0.5000
O4D_3 O 0.3387(4) -0.0134(2) -0.5000
O5D O 1.2115(5) 0.0993(2) 0.5000
O5D_2 O 0.2115(5) 0.0993(2) 0.5000
O5D_3 O 0.2115(5) 0.0993(2) -0.5000
O6D O 0.3517(11) -0.3729(4) 0.0000
O7 O 0.8408(18) 0.0533(9) 0.0000
loop_
_geom_bond_atom_site_label_1
_geom_bond_atom_site_label_2
_geom_bond_site_symmetry_1
_geom_bond_site_symmetry_2
Tb1 O1 1_555 1_555
K1 O1 1_555 1_555
C1 O1 1_555 1_555
C2 O2 1_555 1_555
C3 C4 1_555 1_555
C4 H1 1_555 1_555
H2 C4 1_555 1_555
O2 Tb1 1_555 1_555
O3 C2 1_555 1_555
O4 Tb1 1_555 1_555
O5 C3 1_555 1_555
O6 K1 1_555 1_555
Tb1_2 O1E 1_555 1_555
Tb1F O3 1_555 1_555
Tb1D O4 1_555 1_555
Tb1D_2 O1D 1_555 1_555
Tb1_3 O4D 1_555 1_555
Tb1D_3 O4D 1_555 1_555
Tb1F_2 O2F 1_555 1_555
K1D O1D 1_555 1_555
K1F O3 1_555 1_555
K1_2 O1E_2 1_555 1_555
K1F_2 O3E 1_555 1_555
K1F_3 O2F 1_555 1_555
K1F_4 O2C 1_555 1_555
C1E C1 1_555 1_555
C2E C2 1_555 1_555
C2F C2C 1_555 1_555
C2C O2C 1_555 1_555
C3D C4D 1_555 1_555
C4D C4 1_555 1_555
H1D C4D 1_555 1_555
H1A C4D 1_555 1_555
O1E K1 1_555 1_555
O1D C1E 1_555 1_555
O1A C1 1_555 1_555
O1E_2 Tb1 1_555 1_555
O1_2 Tb1_2 1_555 1_555
O2E Tb1 1_555 1_555
O2F C2F 1_555 1_555
O2C Tb1F_2 1_555 1_555
O2E_2 K1 1_555 1_555
O2_2 Tb1_2 1_555 1_555
O2D Tb1D_2 1_555 1_555
O2A Tb1D 1_555 1_555
O3E Tb1F 1_555 1_555
O3F Tb1 1_555 1_555
O3C Tb1 1_555 1_555
O3C_2 K1 1_555 1_555
O3F_2 Tb1_2 1_555 1_555
O3G Tb1D 1_555 1_555
O3B Tb1D_2 1_555 1_555
O4D C3D 1_555 1_555
O4D_2 Tb1 1_555 1_555
O4_2 Tb1_2 1_555 1_555
O4D_3 Tb1_2 1_555 1_555
O5D Tb1_3 1_555 1_555
O5D_2 Tb1 1_555 1_555
O5D_3 Tb1_2 1_555 1_555
O6D K1D 1_555 1_555
K1 O2 1_555 1_555
K1 O3F 1_555 1_555
C3 O4 1_555 1_555
O5 Tb1D 1_555 1_555
Tb1_2 O2E_2 1_555 1_555
Tb1_2 O3C_2 1_555 1_555
Tb1D O1A 1_555 1_555
Tb1D O4D_2 1_555 1_555
Tb1D_2 O4_2 1_555 1_555
Tb1D_2 O4D_3 1_555 1_555
K1D O1A 1_555 1_555
K1D O2D 1_555 1_555
K1D O2A 1_555 1_555
K1D O3G 1_555 1_555
K1D O3B 1_555 1_555
K1_2 O2E 1_555 1_555
K1_2 O3C 1_555 1_555
C1E O1E 1_555 1_555
C2E O2E 1_555 1_555
C2E O3E 1_555 1_555
C2F O3F 1_555 1_555
C2C O3C 1_555 1_555
C3D O5D 1_555 1_555

#END
