
#######################################################################
#
#                 Cambridge Crystallographic Data Centre
#                                CCDC 
#
#######################################################################
#
# If this CIF has been generated from an entry in the Cambridge 
# Structural Database, then it will include bibliographic, chemical, 
# crystal, experimental, refinement or atomic coordinate data resulting 
# from the CCDC's data processing and validation procedures.
#
#######################################################################

data_KOMKAZ
_symmetry_cell_setting           triclinic
_symmetry_space_group_name_H-M   'P -1'
_symmetry_Int_Tables_number      2
_space_group_name_Hall           '-P 1'
loop_
_symmetry_equiv_pos_site_id
_symmetry_equiv_pos_as_xyz
1 x,y,z
2 -x,-y,-z
_cell_length_a                   6.6560(11)
_cell_length_b                   7.6997(13)
_cell_length_c                   8.0393(13)
_cell_angle_alpha                101.679(2)
_cell_angle_beta                 102.290(2)
_cell_angle_gamma                101.454(2)
_cell_volume                     381.45
loop_
_atom_site_label
_atom_site_type_symbol
_atom_site_fract_x
_atom_site_fract_y
_atom_site_fract_z
Tb1 Tb 0.03590(5) 0.62017(4) 0.80274(4)
C1 C 0.1495(12) 0.2671(11) 0.5876(11)
C2 C 0.2938(14) 0.1392(12) 0.5848(11)
H1 H 0.3536 0.1408 0.4850
H2 H 0.2098 0.0155 0.5677
C3 C 0.4745(13) 0.1868(12) 0.7514(13)
H3 H 0.4171 0.2135 0.8523
H4 H 0.5296 0.0799 0.7562
C4 C 0.6563(12) 0.3463(10) 0.7682(10)
C5 C -0.1252(12) 0.9589(11) 0.9816(10)
O1 O 0.1224(14) 0.3397(10) 0.7350(10)
O2 O 0.6778(10) 0.4161(9) 0.6455(7)
O3 O 0.0543(12) 0.2939(12) 0.4468(10)
O4 O -0.1994(9) 0.8004(8) 0.8956(8)
O5 O -0.2193(10) 1.0712(8) 1.0452(9)
O6 O 0.3662(9) 0.6922(10) 0.7223(8)
O7 O 0.7966(10) 0.4071(8) 0.9176(8)
Tb1_2 Tb -0.96410(5) 0.62017(4) 0.80274(4)
Tb1_3 Tb 1.03590(5) 0.62017(4) 0.80274(4)
Tb1A Tb -0.03590(5) 0.37983(4) 0.19726(4)
Tb1A_2 Tb -0.03590(5) 1.37983(4) 1.19726(4)
Tb1A_3 Tb 0.96410(5) 0.37983(4) 1.19726(4)
Tb1A_4 Tb -1.03590(5) 0.37983(4) 0.19726(4)
Tb1A_5 Tb -0.03590(5) 0.37983(4) 1.19726(4)
C1_2 C -0.8505(12) 0.2671(11) 0.5876(11)
C2_2 C -0.7062(14) 0.1392(12) 0.5848(11)
H1_2 H -0.6464 0.1408 0.4850
H2_2 H -0.7902 0.0155 0.5677
C3_2 C -0.5255(13) 0.1868(12) 0.7514(13)
H3_2 H -0.5829 0.2135 0.8523
H4_2 H -0.4704 0.0799 0.7562
C4_2 C -0.3437(12) 0.3463(10) 0.7682(10)
C5A C 0.1252(12) 1.0411(11) 1.0184(10)
O1_2 O -0.8776(14) 0.3397(10) 0.7350(10)
O2_2 O -0.3222(10) 0.4161(9) 0.6455(7)
O2_3 O -1.3222(10) 0.4161(9) 0.6455(7)
O3_2 O -0.9457(12) 0.2939(12) 0.4468(10)
O3A O -0.0543(12) 0.7061(12) 0.5532(10)
O3A_2 O -1.0543(12) 0.7061(12) 0.5532(10)
O4A O 0.1994(9) 1.1996(8) 1.1044(8)
O4_2 O -1.1994(9) 0.8004(8) 0.8956(8)
O5A O 0.2193(10) 0.9288(8) 0.9548(9)
O5A_2 O -0.7807(10) 0.9288(8) 0.9548(9)
O6_2 O -0.6338(9) 0.6922(10) 0.7223(8)
O7_2 O -0.2034(10) 0.4071(8) 0.9176(8)
O7A O 0.2034(10) 0.5929(8) 1.0824(8)
O7_3 O -1.2034(10) 0.4071(8) 0.9176(8)
O7A_2 O -0.7966(10) 0.5929(8) 1.0824(8)
loop_
_geom_bond_atom_site_label_1
_geom_bond_atom_site_label_2
_geom_bond_site_symmetry_1
_geom_bond_site_symmetry_2
Tb1 O1 1_555 1_555
C1 C2 1_555 1_555
C2 H1 1_555 1_555
H2 C2 1_555 1_555
C3 C2 1_555 1_555
H3 C3 1_555 1_555
H4 C3 1_555 1_555
C4 C3 1_555 1_555
C5 O4 1_555 1_555
O1 C1 1_555 1_555
O2 C4 1_555 1_555
O3 C1 1_555 1_555
O4 Tb1 1_555 1_555
O5 C5 1_555 1_555
O6 Tb1 1_555 1_555
O7 C4 1_555 1_555
Tb1_2 O1_2 1_555 1_555
Tb1_3 O2 1_555 1_555
Tb1A O3 1_555 1_555
Tb1A_2 O5 1_555 1_555
Tb1A_3 O7 1_555 1_555
Tb1A_4 O3_2 1_555 1_555
Tb1A_5 O7_2 1_555 1_555
C1_2 C2_2 1_555 1_555
C2_2 H1_2 1_555 1_555
H2_2 C2_2 1_555 1_555
C3_2 C2_2 1_555 1_555
H3_2 C3_2 1_555 1_555
H4_2 C3_2 1_555 1_555
C4_2 C3_2 1_555 1_555
C5A C5 1_555 1_555
O1_2 C1_2 1_555 1_555
O2_2 Tb1 1_555 1_555
O2_3 Tb1_2 1_555 1_555
O3_2 C1_2 1_555 1_555
O3A Tb1 1_555 1_555
O3A_2 Tb1_2 1_555 1_555
O4A Tb1A_2 1_555 1_555
O4_2 Tb1_2 1_555 1_555
O5A Tb1 1_555 1_555
O5A_2 Tb1_2 1_555 1_555
O6_2 Tb1_2 1_555 1_555
O7_2 Tb1 1_555 1_555
O7A Tb1 1_555 1_555
O7_3 Tb1_2 1_555 1_555
O7A_2 Tb1_2 1_555 1_555
O7 Tb1_3 1_555 1_555
Tb1A_5 O7A 1_555 1_555
C4_2 O2_2 1_555 1_555
C4_2 O7_2 1_555 1_555
C5A O4A 1_555 1_555
C5A O5A 1_555 1_555

#END
