
#######################################################################
#
#                 Cambridge Crystallographic Data Centre
#                                CCDC 
#
#######################################################################
#
# If this CIF has been generated from an entry in the Cambridge 
# Structural Database, then it will include bibliographic, chemical, 
# crystal, experimental, refinement or atomic coordinate data resulting 
# from the CCDC's data processing and validation procedures.
#
#######################################################################

data_KOMMII
_symmetry_cell_setting           monoclinic
_symmetry_space_group_name_H-M   'P c'
_symmetry_Int_Tables_number      7
_space_group_name_Hall           'P -2yc'
loop_
_symmetry_equiv_pos_site_id
_symmetry_equiv_pos_as_xyz
1 x,y,z
2 x,-y,1/2+z
_cell_length_a                   21.093(2)
_cell_length_b                   4.6905(3)
_cell_length_c                   9.2544(9)
_cell_angle_alpha                90
_cell_angle_beta                 101.323(3)
_cell_angle_gamma                90
_cell_volume                     897.779
loop_
_atom_site_label
_atom_site_type_symbol
_atom_site_fract_x
_atom_site_fract_y
_atom_site_fract_z
Zn1 Zn 0.00002(6) 0.0581(2) -0.00046(7)
O1 O -0.0219(3) 0.4643(13) -0.0340(6)
O2 O -0.0795(3) 0.8507(13) -0.0857(6)
C1 C -0.0714(4) 0.592(2) -0.1056(9)
C2 C -0.1212(5) 0.433(2) -0.2202(10)
H1 H -0.0983 0.3208 -0.2818
H2 H -0.1446 0.3012 -0.1691
C3 C -0.1695(5) 0.6232(19) -0.3184(10)
H3 H -0.1468 0.7470 -0.3751
H4 H -0.1913 0.7424 -0.2577
C4 C -0.2192(5) 0.449(2) -0.4226(9)
H5 H -0.2406 0.3201 -0.3654
H6 H -0.1973 0.3342 -0.4849
C5 C -0.2703(4) 0.633(2) -0.5201(9)
H7 H -0.2906 0.7552 -0.4579
H8 H -0.2492 0.7544 -0.5812
C6 C -0.3220(4) 0.458(2) -0.6186(10)
H9 H -0.3428 0.3361 -0.5570
H10 H -0.3015 0.3353 -0.6802
C7 C -0.3737(4) 0.636(2) -0.7173(10)
H11 H -0.3941 0.7598 -0.6560
H12 H -0.3531 0.7562 -0.7799
C8 C -0.4255(5) 0.456(2) -0.8140(12)
H13 H -0.4082 0.3737 -0.8930
H14 H -0.4619 0.5738 -0.8539
H15 H -0.4390 0.3064 -0.7559
O3 O 0.0801(3) -0.0793(14) -0.0607(6)
O4 O 0.0214(3) -0.0339(13) -0.2842(6)
C9 C 0.0718(4) -0.1216(19) -0.1978(9)
C10 C 0.1229(5) -0.288(2) -0.2562(10)
H16 H 0.1400 -0.1680 -0.3248
H17 H 0.1024 -0.4510 -0.3109
C11 C 0.1787(5) -0.394(2) -0.1407(10)
H18 H 0.1981 -0.2347 -0.0810
H19 H 0.1628 -0.5282 -0.0764
C12 C 0.2295(4) -0.538(2) -0.2104(10)
H20 H 0.2106 -0.7026 -0.2659
H21 H 0.2435 -0.4065 -0.2789
C13 C 0.2878(4) -0.632(2) -0.0961(10)
H22 H 0.3049 -0.4679 -0.0370
H23 H 0.2738 -0.7700 -0.0310
C14 C 0.3418(4) -0.763(2) -0.1631(10)
H24 H 0.3540 -0.6278 -0.2323
H25 H 0.3251 -0.9318 -0.2182
C15 C 0.4020(5) -0.844(3) -0.0509(10)
H26 H 0.4182 -0.6760 0.0051
H27 H 0.3899 -0.9814 0.0173
C16 C 0.4565(5) -0.971(3) -0.1170(12)
H28 H 0.4736 -0.8277 -0.1725
H29 H 0.4901 -1.0393 -0.0392
H30 H 0.4400 -1.1270 -0.1808
O2_2 O -0.0795(3) -0.1493(13) -0.0857(6)
Zn1_2 Zn 0.00002(6) 1.0581(2) -0.00046(7)
Zn1A Zn 0.00002(6) -0.0581(2) -0.50046(7)
O4A O 0.0214(3) 0.0339(13) 0.2158(6)
loop_
_geom_bond_atom_site_label_1
_geom_bond_atom_site_label_2
_geom_bond_site_symmetry_1
_geom_bond_site_symmetry_2
Zn1 O1 1_555 1_555
O1 C1 1_555 1_555
O2 C1 1_555 1_555
C1 C2 1_555 1_555
C2 H1 1_555 1_555
H2 C2 1_555 1_555
C3 C2 1_555 1_555
H3 C3 1_555 1_555
H4 C3 1_555 1_555
C4 C3 1_555 1_555
H5 C4 1_555 1_555
H6 C4 1_555 1_555
C5 C4 1_555 1_555
H7 C5 1_555 1_555
H8 C5 1_555 1_555
C6 C5 1_555 1_555
H9 C6 1_555 1_555
H10 C6 1_555 1_555
C7 C6 1_555 1_555
H11 C7 1_555 1_555
H12 C7 1_555 1_555
C8 C7 1_555 1_555
H13 C8 1_555 1_555
H14 C8 1_555 1_555
H15 C8 1_555 1_555
O3 Zn1 1_555 1_555
O4 C9 1_555 1_555
C9 O3 1_555 1_555
C10 C9 1_555 1_555
H16 C10 1_555 1_555
H17 C10 1_555 1_555
C11 C10 1_555 1_555
H18 C11 1_555 1_555
H19 C11 1_555 1_555
C12 C11 1_555 1_555
H20 C12 1_555 1_555
H21 C12 1_555 1_555
C13 C12 1_555 1_555
H22 C13 1_555 1_555
H23 C13 1_555 1_555
C14 C13 1_555 1_555
H24 C14 1_555 1_555
H25 C14 1_555 1_555
C15 C14 1_555 1_555
H26 C15 1_555 1_555
H27 C15 1_555 1_555
C16 C15 1_555 1_555
H28 C16 1_555 1_555
H29 C16 1_555 1_555
H30 C16 1_555 1_555
O2_2 Zn1 1_555 1_555
Zn1_2 O2 1_555 1_555
Zn1A O4 1_555 1_555
O4A Zn1 1_555 1_555

#END
