
#######################################################################
#
#                 Cambridge Crystallographic Data Centre
#                                CCDC 
#
#######################################################################
#
# If this CIF has been generated from an entry in the Cambridge 
# Structural Database, then it will include bibliographic, chemical, 
# crystal, experimental, refinement or atomic coordinate data resulting 
# from the CCDC's data processing and validation procedures.
#
#######################################################################

data_KOMWEP
_symmetry_cell_setting           triclinic
_symmetry_space_group_name_H-M   'P -1'
_symmetry_Int_Tables_number      2
_space_group_name_Hall           '-P 1'
loop_
_symmetry_equiv_pos_site_id
_symmetry_equiv_pos_as_xyz
1 x,y,z
2 -x,-y,-z
_cell_length_a                   11.277(6)
_cell_length_b                   12.161(6)
_cell_length_c                   13.046(7)
_cell_angle_alpha                90.289(8)
_cell_angle_beta                 108.053(6)
_cell_angle_gamma                94.831(5)
_cell_volume                     1694.09
loop_
_atom_site_label
_atom_site_type_symbol
_atom_site_fract_x
_atom_site_fract_y
_atom_site_fract_z
Mn1 Mn 0.84316(5) 0.50068(3) 0.45276(4)
Mn2 Mn 0.54714(4) 0.13560(3) 0.48238(4)
N1 N 0.8597(3) 0.6182(2) 0.5635(2)
N2 N 0.7491(3) 0.6118(2) 0.3576(2)
N3 N 0.7120(2) 0.09523(19) 0.5739(2)
N4 N 0.6414(2) 0.16810(19) 0.3794(2)
O1 O 0.9590(2) 0.42022(16) 0.56006(16)
O2 O 0.8331(2) 0.40885(17) 0.33445(17)
O3 O 0.4723(2) 0.07208(16) 0.58334(15)
O4 O 0.3936(2) 0.15581(17) 0.37830(16)
C1 C 0.9509(3) 0.4116(2) 0.6607(2)
C2 C 0.9855(3) 0.3159(3) 0.7167(3)
H1 H 1.0100 0.2585 0.6829
C3 C 0.9838(4) 0.3054(3) 0.8210(3)
H2 H 1.0058 0.2404 0.8563
C4 C 0.9499(5) 0.3901(4) 0.8744(3)
H3 H 0.9504 0.3828 0.9455
C5 C 0.9158(4) 0.4843(3) 0.8213(3)
H4 H 0.8928 0.5414 0.8568
C6 C 0.9147(3) 0.4972(3) 0.7140(3)
C7 C 0.8857(4) 0.6019(3) 0.6650(3)
H5 H 0.8860 0.6616 0.7099
C8 C 0.8370(4) 0.7276(3) 0.5189(3)
H6 H 0.9115 0.7619 0.5057
H7 H 0.8147 0.7748 0.5690
C9 C 0.7298(4) 0.7107(3) 0.4139(3)
H8 H 0.6504 0.7007 0.4285
H9 H 0.7288 0.7746 0.3696
C10 C 0.7060(4) 0.6040(3) 0.2544(3)
H10 H 0.6626 0.6619 0.2196
C11 C 0.7183(4) 0.5149(3) 0.1878(3)
C12 C 0.6662(5) 0.5216(4) 0.0727(3)
H11 H 0.6225 0.5817 0.0443
C13 C 0.6791(6) 0.4436(5) 0.0056(4)
H12 H 0.6444 0.4495 -0.0685
C14 C 0.7445(5) 0.3540(4) 0.0469(3)
H13 H 0.7537 0.3000 -0.0001
C15 C 0.7966(4) 0.3432(3) 0.1578(3)
H14 H 0.8401 0.2823 0.1840
C16 C 0.7836(4) 0.4234(3) 0.2295(3)
C17 C 0.5270(3) 0.0833(2) 0.6905(2)
C18 C 0.4501(4) 0.0799(2) 0.7561(2)
H15 H 0.3636 0.0754 0.7250
C19 C 0.5014(4) 0.0834(3) 0.8675(3)
H16 H 0.4490 0.0817 0.9104
C20 C 0.6298(5) 0.0891(3) 0.9154(3)
H17 H 0.6635 0.0913 0.9902
C21 C 0.7080(4) 0.0917(3) 0.8519(3)
H18 H 0.7942 0.0938 0.8841
C22 C 0.6581(3) 0.0912(2) 0.7396(2)
C23 C 0.7428(3) 0.0851(2) 0.6773(3)
H19 H 0.8253 0.0730 0.7139
C24 C 0.7997(3) 0.0793(3) 0.5130(3)
H20 H 0.7839 0.0057 0.4798
H21 H 0.8854 0.0887 0.5604
C25 C 0.7776(3) 0.1657(3) 0.4276(3)
H22 H 0.8151 0.2374 0.4598
H23 H 0.8149 0.1472 0.3728
C26 C 0.5930(3) 0.1902(2) 0.2792(3)
H24 H 0.6481 0.2037 0.2395
C27 C 0.4632(3) 0.1959(3) 0.2234(3)
C28 C 0.4255(4) 0.2140(3) 0.1113(3)
H25 H 0.4867 0.2273 0.0776
C29 C 0.3039(5) 0.2127(4) 0.0516(3)
H26 H 0.2819 0.2254 -0.0219
C30 C 0.2114(4) 0.1920(3) 0.1016(3)
H27 H 0.1274 0.1900 0.0608
C31 C 0.2431(4) 0.1745(3) 0.2097(3)
H28 H 0.1801 0.1614 0.2415
C32 C 0.3682(3) 0.1759(2) 0.2734(2)
C33 C 0.6122(3) 0.3882(2) 0.5302(3)
C34 C 0.5529(3) 0.4885(3) 0.5530(3)
H29 H 0.6149 0.5516 0.5737
H30 H 0.5179 0.4747 0.6114
O5 O 0.6953(2) 0.40272(18) 0.4855(2)
O6 O 0.5697(2) 0.29658(16) 0.55248(18)
Mn1A Mn 1.15684(5) 0.49932(3) 0.54724(4)
Mn1A_2 Mn 0.15684(5) 0.49932(3) 0.54724(4)
Mn2A Mn 0.45286(4) 0.86440(3) 0.51762(4)
N1A N 1.1403(3) 0.3818(2) 0.4365(2)
N2A N 1.2509(3) 0.3882(2) 0.6424(2)
N3A N 0.2880(2) 0.90477(19) 0.4261(2)
N4A N 0.3586(2) 0.83190(19) 0.6206(2)
O1A O 1.0410(2) 0.57978(16) 0.43994(16)
O2A O 1.1669(2) 0.59115(17) 0.66555(17)
O3A O 0.5277(2) 0.92792(16) 0.41666(15)
O4A O 0.6064(2) 0.84419(17) 0.62170(16)
C1A C 1.0491(3) 0.5884(2) 0.3393(2)
C2A C 1.0145(3) 0.6841(3) 0.2833(3)
H1A H 0.9900 0.7415 0.3171
C3A C 1.0162(4) 0.6946(3) 0.1790(3)
H2A H 0.9942 0.7596 0.1437
C4A C 1.0501(5) 0.6099(4) 0.1256(3)
H3A H 1.0496 0.6172 0.0545
C5A C 1.0842(4) 0.5157(3) 0.1787(3)
H4A H 1.1072 0.4586 0.1432
C6A C 1.0853(3) 0.5028(3) 0.2860(3)
C7A C 1.1143(4) 0.3981(3) 0.3350(3)
H5A H 1.1140 0.3384 0.2901
C8A C 1.1630(4) 0.2724(3) 0.4811(3)
H6A H 1.0885 0.2381 0.4943
H7A H 1.1853 0.2252 0.4310
C9A C 1.2702(4) 0.2893(3) 0.5861(3)
H8A H 1.3496 0.2993 0.5715
H9A H 1.2712 0.2254 0.6304
C10A C 1.2940(4) 0.3960(3) 0.7456(3)
H10A H 1.3374 0.3381 0.7804
C11A C 1.2817(4) 0.4851(3) 0.8122(3)
C12A C 1.3338(5) 0.4784(4) 0.9273(3)
H11A H 1.3775 0.4183 0.9557
C13A C 1.3209(6) 0.5564(5) 0.9944(4)
H12A H 1.3556 0.5505 1.0685
C14A C 1.2555(5) 0.6460(4) 0.9531(3)
H13A H 1.2463 0.7000 1.0001
C15A C 1.2034(4) 0.6568(3) 0.8422(3)
H14A H 1.1599 0.7177 0.8160
C16A C 1.2164(4) 0.5766(3) 0.7705(3)
C17A C 0.4730(3) 0.9167(2) 0.3095(2)
C18A C 0.5499(4) 0.9201(2) 0.2439(2)
H15A H 0.6364 0.9246 0.2750
C19A C 0.4986(4) 0.9166(3) 0.1325(3)
H16A H 0.5510 0.9183 0.0896
C20A C 0.3702(5) 0.9109(3) 0.0846(3)
H17A H 0.3365 0.9087 0.0098
C21A C 0.2920(4) 0.9083(3) 0.1481(3)
H18A H 0.2058 0.9062 0.1159
C22A C 0.3419(3) 0.9088(2) 0.2604(2)
C23A C 0.2572(3) 0.9149(2) 0.3227(3)
H19A H 0.1747 0.9270 0.2861
C24A C 0.2003(3) 0.9207(3) 0.4870(3)
H20A H 0.2161 0.9943 0.5202
H21A H 0.1146 0.9113 0.4396
C25A C 0.2224(3) 0.8343(3) 0.5724(3)
H22A H 0.1849 0.7626 0.5402
H23A H 0.1851 0.8528 0.6272
C26A C 0.4070(3) 0.8098(2) 0.7208(3)
H24A H 0.3519 0.7963 0.7605
C27A C 0.5368(3) 0.8041(3) 0.7766(3)
C28A C 0.5745(4) 0.7860(3) 0.8887(3)
H25A H 0.5133 0.7727 0.9224
C29A C 0.6961(5) 0.7873(4) 0.9484(3)
H26A H 0.7181 0.7746 1.0219
C30A C 0.7886(4) 0.8080(3) 0.8984(3)
H27A H 0.8726 0.8100 0.9392
C31A C 0.7569(4) 0.8255(3) 0.7903(3)
H28A H 0.8199 0.8386 0.7585
C32A C 0.6318(3) 0.8241(2) 0.7266(2)
C33A C 0.3878(3) 0.6118(2) 0.4698(3)
C34A C 0.4471(3) 0.5115(3) 0.4470(3)
H29A H 0.3851 0.4484 0.4263
H30A H 0.4821 0.5253 0.3886
O5A O 0.3047(2) 0.59728(18) 0.5145(2)
O5A_2 O 1.3047(2) 0.59728(18) 0.5145(2)
O6A O 0.4303(2) 0.70342(16) 0.44752(18)
Cl1 Cl 0.90316(10) 1.00854(9) 0.22568(9)
O7 O 0.9910(4) 1.0880(3) 0.2981(3)
O8 O 0.7908(3) 1.0561(3) 0.1792(2)
O9 O 0.9603(4) 0.9705(3) 0.1528(3)
O10 O 0.8783(5) 0.9196(4) 0.2903(4)
loop_
_geom_bond_atom_site_label_1
_geom_bond_atom_site_label_2
_geom_bond_site_symmetry_1
_geom_bond_site_symmetry_2
Mn1 N1 1_555 1_555
Mn2 N3 1_555 1_555
N1 C7 1_555 1_555
N2 Mn1 1_555 1_555
N3 C23 1_555 1_555
N4 Mn2 1_555 1_555
O1 Mn1 1_555 1_555
O2 Mn1 1_555 1_555
O3 Mn2 1_555 1_555
O4 Mn2 1_555 1_555
C1 O1 1_555 1_555
C2 C1 1_555 1_555
H1 C2 1_555 1_555
C3 C2 1_555 1_555
H2 C3 1_555 1_555
C4 C3 1_555 1_555
H3 C4 1_555 1_555
C5 C4 1_555 1_555
H4 C5 1_555 1_555
C6 C1 1_555 1_555
C7 C6 1_555 1_555
H5 C7 1_555 1_555
C8 N1 1_555 1_555
H6 C8 1_555 1_555
H7 C8 1_555 1_555
C9 N2 1_555 1_555
H8 C9 1_555 1_555
H9 C9 1_555 1_555
C10 N2 1_555 1_555
H10 C10 1_555 1_555
C11 C10 1_555 1_555
C12 C11 1_555 1_555
H11 C12 1_555 1_555
C13 C12 1_555 1_555
H12 C13 1_555 1_555
C14 C13 1_555 1_555
H13 C14 1_555 1_555
C15 C14 1_555 1_555
H14 C15 1_555 1_555
C16 O2 1_555 1_555
C17 O3 1_555 1_555
C18 C17 1_555 1_555
H15 C18 1_555 1_555
C19 C18 1_555 1_555
H16 C19 1_555 1_555
C20 C19 1_555 1_555
H17 C20 1_555 1_555
C21 C20 1_555 1_555
H18 C21 1_555 1_555
C22 C17 1_555 1_555
C23 C22 1_555 1_555
H19 C23 1_555 1_555
C24 N3 1_555 1_555
H20 C24 1_555 1_555
H21 C24 1_555 1_555
C25 N4 1_555 1_555
H22 C25 1_555 1_555
H23 C25 1_555 1_555
C26 N4 1_555 1_555
H24 C26 1_555 1_555
C27 C26 1_555 1_555
C28 C27 1_555 1_555
H25 C28 1_555 1_555
C29 C28 1_555 1_555
H26 C29 1_555 1_555
C30 C29 1_555 1_555
H27 C30 1_555 1_555
C31 C30 1_555 1_555
H28 C31 1_555 1_555
C32 O4 1_555 1_555
C33 C34 1_555 1_555
C34 H29 1_555 1_555
H30 C34 1_555 1_555
O5 Mn1 1_555 1_555
O6 Mn2 1_555 1_555
Cl1 O7 1_555 1_555
O8 Cl1 1_555 1_555
O9 Cl1 1_555 1_555
O10 Cl1 1_555 1_555
Mn1A O1 1_555 1_555
Mn1A_2 O5A 1_555 1_555
Mn2A N3A 1_555 1_555
N1A Mn1A 1_555 1_555
N2A Mn1A 1_555 1_555
N3A C23A 1_555 1_555
N4A Mn2A 1_555 1_555
O1A Mn1 1_555 1_555
O2A Mn1A 1_555 1_555
O3A Mn2A 1_555 1_555
O4A Mn2A 1_555 1_555
C1A O1A 1_555 1_555
C2A C1A 1_555 1_555
H1A C2A 1_555 1_555
C3A C2A 1_555 1_555
H2A C3A 1_555 1_555
C4A C3A 1_555 1_555
H3A C4A 1_555 1_555
C5A C4A 1_555 1_555
H4A C5A 1_555 1_555
C6A C1A 1_555 1_555
C7A N1A 1_555 1_555
H5A C7A 1_555 1_555
C8A N1A 1_555 1_555
H6A C8A 1_555 1_555
H7A C8A 1_555 1_555
C9A N2A 1_555 1_555
H8A C9A 1_555 1_555
H9A C9A 1_555 1_555
C10A N2A 1_555 1_555
H10A C10A 1_555 1_555
C11A C10A 1_555 1_555
C12A C11A 1_555 1_555
H11A C12A 1_555 1_555
C13A C12A 1_555 1_555
H12A C13A 1_555 1_555
C14A C13A 1_555 1_555
H13A C14A 1_555 1_555
C15A C14A 1_555 1_555
H14A C15A 1_555 1_555
C16A O2A 1_555 1_555
C17A O3A 1_555 1_555
C18A C17A 1_555 1_555
H15A C18A 1_555 1_555
C19A C18A 1_555 1_555
H16A C19A 1_555 1_555
C20A C19A 1_555 1_555
H17A C20A 1_555 1_555
C21A C20A 1_555 1_555
H18A C21A 1_555 1_555
C22A C17A 1_555 1_555
C23A C22A 1_555 1_555
H19A C23A 1_555 1_555
C24A N3A 1_555 1_555
H20A C24A 1_555 1_555
H21A C24A 1_555 1_555
C25A N4A 1_555 1_555
H22A C25A 1_555 1_555
H23A C25A 1_555 1_555
C26A N4A 1_555 1_555
H24A C26A 1_555 1_555
C27A C26A 1_555 1_555
C28A C27A 1_555 1_555
H25A C28A 1_555 1_555
C29A C28A 1_555 1_555
H26A C29A 1_555 1_555
C30A C29A 1_555 1_555
H27A C30A 1_555 1_555
C31A C30A 1_555 1_555
H28A C31A 1_555 1_555
C32A O4A 1_555 1_555
C33A C34A 1_555 1_555
C34A C34 1_555 1_555
H29A C34A 1_555 1_555
H30A C34A 1_555 1_555
O5A C33A 1_555 1_555
O5A_2 Mn1A 1_555 1_555
O6A Mn2A 1_555 1_555
C5 C6 1_555 1_555
C8 C9 1_555 1_555
C11 C16 1_555 1_555
C15 C16 1_555 1_555
C21 C22 1_555 1_555
C24 C25 1_555 1_555
C27 C32 1_555 1_555
C31 C32 1_555 1_555
C33 O5 1_555 1_555
C33 O6 1_555 1_555
Mn1A O1A 1_555 1_555
C5A C6A 1_555 1_555
C6A C7A 1_555 1_555
C8A C9A 1_555 1_555
C11A C16A 1_555 1_555
C15A C16A 1_555 1_555
C21A C22A 1_555 1_555
C24A C25A 1_555 1_555
C27A C32A 1_555 1_555
C31A C32A 1_555 1_555
C33A O6A 1_555 1_555

#END
