
#######################################################################
#
#                 Cambridge Crystallographic Data Centre
#                                CCDC 
#
#######################################################################
#
# If this CIF has been generated from an entry in the Cambridge 
# Structural Database, then it will include bibliographic, chemical, 
# crystal, experimental, refinement or atomic coordinate data resulting 
# from the CCDC's data processing and validation procedures.
#
#######################################################################

data_KOMXUG
_symmetry_cell_setting           monoclinic
_symmetry_space_group_name_H-M   'P 21'
_symmetry_Int_Tables_number      4
_space_group_name_Hall           'P 2yb'
loop_
_symmetry_equiv_pos_site_id
_symmetry_equiv_pos_as_xyz
1 x,y,z
2 -x,1/2+y,-z
_cell_length_a                   13.731(3)
_cell_length_b                   6.0514(13)
_cell_length_c                   16.913(4)
_cell_angle_alpha                90
_cell_angle_beta                 97.761(4)
_cell_angle_gamma                90
_cell_volume                     1392.46
loop_
_atom_site_label
_atom_site_type_symbol
_atom_site_fract_x
_atom_site_fract_y
_atom_site_fract_z
C1 C 0.7840(6) 0.6943(17) 0.7935(5)
H1 H 0.7392 0.7894 0.8162
H2 H 0.8495 0.7184 0.8200
H3 H 0.7658 0.5430 0.8001
C2 C 0.7803(6) 0.7456(14) 0.7043(5)
H4 H 0.7921 0.6072 0.6771
C3 C 0.6907(6) 0.8456(19) 0.6620(6)
H5 H 0.7091 0.8893 0.6103
C4 C 0.6094(7) 0.6888(16) 0.6417(5)
H6 H 0.5872 0.6360 0.6904
H7 H 0.6327 0.5627 0.6143
C5 C 0.5242(6) 0.7939(16) 0.5893(5)
H8 H 0.5462 0.8437 0.5402
H9 H 0.4733 0.6841 0.5757
C6 C 0.4837(7) 0.978(2) 0.6275(6)
H10 H 0.4609 0.9302 0.6766
H11 H 0.4281 1.0386 0.5927
C7 C 0.5596(6) 1.1491(18) 0.6453(5)
H12 H 0.5340 1.2682 0.6748
H13 H 0.5760 1.2097 0.5956
C8 C 0.6551(6) 1.0540(15) 0.6952(6)
H14 H 0.7067 1.1642 0.6977
H15 H 0.6420 1.0267 0.7493
C9 C 1.2406(6) 0.9028(19) 0.7075(5)
H16 H 1.1800 0.9830 0.6966
H17 H 1.2614 0.8564 0.6582
H18 H 1.2900 0.9964 0.7358
C10 C 1.2259(6) 0.7050(18) 0.7571(6)
H19 H 1.2079 0.5806 0.7210
C11 C 1.3161(5) 0.6330(17) 0.8180(4)
H20 H 1.2943 0.5207 0.8534
C12 C 1.3611(6) 0.8157(17) 0.8671(5)
H21 H 1.3120 0.8875 0.8944
H22 H 1.3876 0.9242 0.8336
C13 C 1.4453(7) 0.7216(18) 0.9296(5)
H23 H 1.4724 0.8394 0.9648
H24 H 1.4188 0.6097 0.9618
C14 C 1.5243(7) 0.624(2) 0.8891(6)
H25 H 1.5769 0.5689 0.9282
H26 H 1.5512 0.7344 0.8566
C15 C 1.4801(6) 0.4366(19) 0.8373(6)
H27 H 1.4545 0.3244 0.8699
H28 H 1.5299 0.3693 0.8095
C16 C 1.3943(7) 0.5331(14) 0.7750(6)
H29 H 1.4203 0.6448 0.7425
H30 H 1.3660 0.4159 0.7400
Cu1 Cu 0.99994(7) 0.93894(14) 0.99421(7)
Cu2 Cu 1.00490(8) 0.8114(2) 0.74747(7)
Cu3 Cu 1.00099(7) 0.63578(16) 0.51136(6)
N1 N 0.8679(4) 0.8918(10) 0.7011(4)
H31 H 0.8543 1.0205 0.7239
H32 H 0.8698 0.9211 0.6492
N2 N 1.1407(5) 0.7537(12) 0.8000(4)
H33 H 1.1579 0.8722 0.8309
H34 H 1.1363 0.6396 0.8334
N3 N 0.9919(6) 1.0002(15) 0.8465(5)
N4 N 1.0195(4) 1.1840(15) 0.8438(4)
N5 N 1.0458(5) 1.3735(12) 0.8419(4)
N6 N 1.0087(6) 0.6036(17) 0.6599(5)
N7 N 1.0174(5) 0.3967(15) 0.6666(4)
N8 N 1.0263(5) 0.2049(11) 0.6678(3)
N9 N 0.9048(6) 0.6837(16) 0.9868(4)
N10 N 0.8188(7) 0.7124(15) 0.9703(4)
N11 N 0.7389(6) 0.7263(13) 0.9544(4)
N12 N 0.9029(5) 1.1894(14) 1.0019(4)
N13 N 0.8248(6) 1.1900(14) 0.9587(4)
N14 N 0.7543(6) 1.2056(14) 0.9238(4)
N15 N 1.0919(4) 0.8777(13) 0.5102(4)
N16 N 1.1725(4) 0.8646(13) 0.4864(4)
N17 N 1.2417(5) 0.8369(15) 0.4657(4)
N18 N 0.9025(5) 0.8910(14) 0.5038(4)
N19 N 0.8136(5) 0.8469(14) 0.4877(4)
N20 N 0.7324(5) 0.8159(16) 0.4806(4)
Cu1A Cu 1.00006(7) 0.43894(14) 1.00579(7)
Cu1A_2 Cu 1.00006(7) 1.43894(14) 1.00579(7)
Cu3A Cu 0.99901(7) 0.13578(16) 0.48864(6)
Cu3A_2 Cu 0.99901(7) 1.13578(16) 0.48864(6)
N9A N 1.0952(6) 1.1837(16) 1.0132(4)
N12A N 1.0971(5) 0.6894(14) 0.9981(4)
N15A N 0.9081(4) 0.3777(13) 0.4898(4)
N18A N 1.0975(5) 0.3910(14) 0.4962(4)
loop_
_geom_bond_atom_site_label_1
_geom_bond_atom_site_label_2
_geom_bond_site_symmetry_1
_geom_bond_site_symmetry_2
C1 H1 1_555 1_555
H2 C1 1_555 1_555
H3 C1 1_555 1_555
C2 C1 1_555 1_555
H4 C2 1_555 1_555
C3 C2 1_555 1_555
H5 C3 1_555 1_555
C4 C3 1_555 1_555
H6 C4 1_555 1_555
H7 C4 1_555 1_555
C5 C4 1_555 1_555
H8 C5 1_555 1_555
H9 C5 1_555 1_555
C6 C5 1_555 1_555
H10 C6 1_555 1_555
H11 C6 1_555 1_555
C7 C6 1_555 1_555
H12 C7 1_555 1_555
H13 C7 1_555 1_555
C8 C3 1_555 1_555
H14 C8 1_555 1_555
H15 C8 1_555 1_555
C9 H16 1_555 1_555
H17 C9 1_555 1_555
H18 C9 1_555 1_555
C10 C9 1_555 1_555
H19 C10 1_555 1_555
C11 C10 1_555 1_555
H20 C11 1_555 1_555
C12 C11 1_555 1_555
H21 C12 1_555 1_555
H22 C12 1_555 1_555
C13 C12 1_555 1_555
H23 C13 1_555 1_555
H24 C13 1_555 1_555
C14 C13 1_555 1_555
H25 C14 1_555 1_555
H26 C14 1_555 1_555
C15 C14 1_555 1_555
H27 C15 1_555 1_555
H28 C15 1_555 1_555
C16 C11 1_555 1_555
H29 C16 1_555 1_555
H30 C16 1_555 1_555
Cu1 N3 1_555 1_555
Cu2 N1 1_555 1_555
Cu3 N6 1_555 1_555
N1 C2 1_555 1_555
H31 N1 1_555 1_555
H32 N1 1_555 1_555
N2 C10 1_555 1_555
H33 N2 1_555 1_555
H34 N2 1_555 1_555
N3 Cu2 1_555 1_555
N4 N3 1_555 1_555
N5 N4 1_555 1_555
N6 Cu2 1_555 1_555
N7 N6 1_555 1_555
N8 N7 1_555 1_555
N9 Cu1 1_555 1_555
N10 N9 1_555 1_555
N11 N10 1_555 1_555
N12 Cu1 1_555 1_555
N13 N12 1_555 1_555
N14 N13 1_555 1_555
N15 Cu3 1_555 1_555
N16 N15 1_555 1_555
N17 N16 1_555 1_555
N18 Cu3 1_555 1_555
N19 N18 1_555 1_555
N20 N19 1_555 1_555
Cu1A N9 1_555 1_555
Cu1A_2 N12 1_555 1_555
Cu3A N15A 1_555 1_555
Cu3A_2 N15 1_555 1_555
N9A Cu1 1_555 1_555
N12A Cu1 1_555 1_555
N15A Cu3 1_555 1_555
N18A Cu3 1_555 1_555
C7 C8 1_555 1_555
C15 C16 1_555 1_555
Cu2 N2 1_555 1_555
N18 Cu3A_2 1_555 1_555
Cu1A N12A 1_555 1_555
Cu1A_2 N9A 1_555 1_555
Cu3A N18A 1_555 1_555

#END
