
#######################################################################
#
#                 Cambridge Crystallographic Data Centre
#                                CCDC 
#
#######################################################################
#
# If this CIF has been generated from an entry in the Cambridge 
# Structural Database, then it will include bibliographic, chemical, 
# crystal, experimental, refinement or atomic coordinate data resulting 
# from the CCDC's data processing and validation procedures.
#
#######################################################################

data_KOMYAN01
_symmetry_cell_setting           triclinic
_symmetry_space_group_name_H-M   'P -1'
_symmetry_Int_Tables_number      2
_space_group_name_Hall           '-P 1'
loop_
_symmetry_equiv_pos_site_id
_symmetry_equiv_pos_as_xyz
1 x,y,z
2 -x,-y,-z
_cell_length_a                   8.9220(4)
_cell_length_b                   9.0950(5)
_cell_length_c                   9.6560(4)
_cell_angle_alpha                110.318(3)
_cell_angle_beta                 97.529(3)
_cell_angle_gamma                105.768(3)
_cell_volume                     684.733
loop_
_atom_site_label
_atom_site_type_symbol
_atom_site_fract_x
_atom_site_fract_y
_atom_site_fract_z
Cu1 Cu 0.29103 0.05196 0.18606
O1 O 0.3956 0.1422 0.0500
C1 C 0.4858 0.0732 -0.0182
O2 O 0.5516 0.1114 -0.1116
O3 O 0.1192 -0.1236 0.0070
C2 C 0.0038 -0.0878 -0.0474
O4 O -0.1012 -0.1783 -0.1665
N1 N 0.2095 -0.0321 0.3356
C3 C 0.2975 0.0529 0.4807
C4 C 0.2567 0.0104 0.5987
H1 H 0.3182 0.0692 0.7044
C5 C 0.1188 -0.1281 0.5621
H2 H 0.0950 -0.1620 0.6458
C6 C 0.0300 -0.2148 0.4154
H3 H -0.0741 -0.3196 0.3774
C7 C 0.0771 -0.1642 0.3042
H4 H 0.0086 -0.2284 0.1896
N2 N 0.4580 0.2208 0.3770
C8 C 0.4412 0.1960 0.5042
C9 C 0.5499 0.2966 0.6434
H5 H 0.5404 0.2710 0.7302
C10 C 0.6800 0.4282 0.6524
H6 H 0.7646 0.5042 0.7552
C11 C 0.6954 0.4536 0.5214
H7 H 0.7880 0.5468 0.5206
C12 C 0.5841 0.3479 0.3860
H8 H 0.5898 0.3573 0.2924
Cu1A Cu -0.29103 -0.05196 -0.18606
Cu1A_2 Cu 0.70897 -0.05196 -0.18606
O1A O 0.6044 -0.1422 -0.0500
O1A_2 O -0.3956 -0.1422 -0.0500
C1A C 0.5142 -0.0732 0.0182
O2A O 0.4484 -0.1114 0.1116
O2_2 O -0.4484 0.1114 -0.1116
O3A O -0.1192 0.1236 -0.0070
C2A C -0.0038 0.0878 0.0474
O4A O 0.1012 0.1783 0.1665
N1A N -0.2095 0.0321 -0.3356
C3A C -0.2975 -0.0529 -0.4807
C4A C -0.2567 -0.0104 -0.5987
H1A H -0.3182 -0.0692 -0.7044
C5A C -0.1188 0.1281 -0.5621
H2A H -0.0950 0.1620 -0.6458
C6A C -0.0300 0.2148 -0.4154
H3A H 0.0741 0.3196 -0.3774
C7A C -0.0771 0.1642 -0.3042
H4A H -0.0086 0.2284 -0.1896
N2A N -0.4580 -0.2208 -0.3770
C8A C -0.4412 -0.1960 -0.5042
C9A C -0.5499 -0.2966 -0.6434
H5A H -0.5404 -0.2710 -0.7302
C10A C -0.6800 -0.4282 -0.6524
H6A H -0.7646 -0.5042 -0.7552
C11A C -0.6954 -0.4536 -0.5214
H7A H -0.7880 -0.5468 -0.5206
C12A C -0.5841 -0.3479 -0.3860
H8A H -0.5898 -0.3573 -0.2924
O5 O 0.3426 0.3894 -0.0548
O6 O 0.8749 0.4543 0.0590
loop_
_geom_bond_atom_site_label_1
_geom_bond_atom_site_label_2
_geom_bond_site_symmetry_1
_geom_bond_site_symmetry_2
Cu1 O1 1_555 1_555
O1 C1 1_555 1_555
C1 O2 1_555 1_555
O2 Cu1A_2 1_555 1_555
O3 Cu1 1_555 1_555
C2 O3 1_555 1_555
O4 C2 1_555 1_555
N1 Cu1 1_555 1_555
C3 N1 1_555 1_555
C4 C3 1_555 1_555
H1 C4 1_555 1_555
C5 C4 1_555 1_555
H2 C5 1_555 1_555
C6 C5 1_555 1_555
H3 C6 1_555 1_555
C7 N1 1_555 1_555
H4 C7 1_555 1_555
N2 Cu1 1_555 1_555
C8 C3 1_555 1_555
C9 C8 1_555 1_555
H5 C9 1_555 1_555
C10 C9 1_555 1_555
H6 C10 1_555 1_555
C11 C10 1_555 1_555
H7 C11 1_555 1_555
C12 N2 1_555 1_555
H8 C12 1_555 1_555
Cu1A O4 1_555 1_555
Cu1A_2 O1A 1_555 1_555
O1A C1A 1_555 1_555
O1A_2 Cu1A 1_555 1_555
C1A C1 1_555 1_555
O2A Cu1 1_555 1_555
O2_2 Cu1A 1_555 1_555
O3A Cu1A 1_555 1_555
C2A C2 1_555 1_555
O4A Cu1 1_555 1_555
N1A Cu1A 1_555 1_555
C3A N1A 1_555 1_555
C4A C3A 1_555 1_555
H1A C4A 1_555 1_555
C5A C4A 1_555 1_555
H2A C5A 1_555 1_555
C6A C5A 1_555 1_555
H3A C6A 1_555 1_555
C7A N1A 1_555 1_555
H4A C7A 1_555 1_555
N2A Cu1A 1_555 1_555
C8A C3A 1_555 1_555
C9A C8A 1_555 1_555
H5A C9A 1_555 1_555
C10A C9A 1_555 1_555
H6A C10A 1_555 1_555
C11A C10A 1_555 1_555
H7A C11A 1_555 1_555
C12A N2A 1_555 1_555
H8A C12A 1_555 1_555
C6 C7 1_555 1_555
N2 C8 1_555 1_555
C11 C12 1_555 1_555
C1A O2A 1_555 1_555
O3A C2A 1_555 1_555
C2A O4A 1_555 1_555
C6A C7A 1_555 1_555
N2A C8A 1_555 1_555
C11A C12A 1_555 1_555

#END
