
#######################################################################
#
#                 Cambridge Crystallographic Data Centre
#                                CCDC 
#
#######################################################################
#
# If this CIF has been generated from an entry in the Cambridge 
# Structural Database, then it will include bibliographic, chemical, 
# crystal, experimental, refinement or atomic coordinate data resulting 
# from the CCDC's data processing and validation procedures.
#
#######################################################################

data_KOMYAN
_symmetry_cell_setting           triclinic
_symmetry_space_group_name_H-M   'P 1'
_symmetry_Int_Tables_number      1
_space_group_name_Hall           'P 1'
loop_
_symmetry_equiv_pos_site_id
_symmetry_equiv_pos_as_xyz
1 x,y,z
_cell_length_a                   8.9220(4)
_cell_length_b                   9.0950(5)
_cell_length_c                   9.6560(4)
_cell_angle_alpha                110.318(3)
_cell_angle_beta                 97.529(3)
_cell_angle_gamma                105.768(3)
_cell_volume                     684.733
loop_
_atom_site_label
_atom_site_type_symbol
_atom_site_fract_x
_atom_site_fract_y
_atom_site_fract_z
Cu1 Cu 0.17701(5) 0.63368(5) 0.30057(5)
Cu2 Cu 0.59495(5) 0.52975(5) -0.07154(5)
O1 O 0.4906(10) 0.4381(11) 0.0667(9)
O2 O 0.4418(10) 0.6959(8) 0.0025(9)
O3 O 0.2819(11) 0.7225(10) 0.1668(9)
C1 C 0.3300(12) 0.7822(10) 0.6213(11)
C2 C 0.3706(12) 0.6592(11) 0.0975(11)
N1 N 0.4298(10) 0.3627(11) -0.2621(10)
N2 N 0.0970(13) 0.5493(11) 0.4555(10)
C3 C 0.4424(15) 0.8799(13) 0.7587(12)
H1 H 0.4277 0.8539 0.8426
C4 C 0.1450(14) 0.5947(15) 0.7099(13)
H2 H 0.2012 0.6527 0.8166
N3 N 0.3458(12) 0.8042(12) 0.4918(10)
C5 C 0.0087(19) 0.4570(18) 0.6724(18)
H3 H -0.0190 0.4216 0.7597
C6 C 0.3991(12) 0.5127(11) 0.1339(10)
C7 C 0.1838(13) 0.6320(12) 0.5929(13)
O4 O -0.2360(11) 0.7046(11) 0.1088(11)
O5 O 0.3386(10) 0.4732(9) 0.2256(9)
C8 C 0.4687(13) 0.9283(13) 0.4998(12)
H4 H 0.4707 0.9352 0.4098
C9 C -0.0367(14) 0.4137(13) 0.4113(14)
H5 H -0.1012 0.3507 0.3011
C10 C 0.5849(14) 1.0367(14) 0.6353(16)
H6 H 0.6736 1.1275 0.6299
O6 O -0.2130(9) 0.4059(8) -0.0547(8)
C11 C -0.1174(11) 0.6716(10) 0.1611(10)
C12 C -0.1099(11) 0.4961(11) 0.0663(11)
C13 C 0.5691(12) 1.0105(12) 0.7602(12)
H7 H 0.6542 1.0897 0.8717
C14 C 0.8629(17) 0.8051(14) -0.2985(14)
H8 H 0.9589 0.8971 -0.2642
C15 C -0.0772(17) 0.3754(15) 0.5324(18)
H9 H -0.1893 0.2580 0.4905
C16 C 0.5888(12) 0.5262(11) -0.3685(9)
C17 C 0.7710(13) 0.7132(13) -0.4518(10)
H10 H 0.7910 0.7456 -0.5318
N4 N 0.6780(12) 0.6135(12) -0.2158(11)
C18 C 0.6316(17) 0.5739(16) -0.4875(14)
H11 H 0.5649 0.5144 -0.5923
C19 C 0.8091(15) 0.7420(15) -0.1971(13)
H12 H 0.8815 0.8076 -0.0781
C20 C 0.4475(12) 0.3902(11) -0.3871(10)
C21 C 0.3426(16) 0.2866(14) -0.5282(14)
H13 H 0.3469 0.3120 -0.6178
C22 C 0.3005(13) 0.2325(12) -0.2721(13)
H14 H 0.2910 0.2206 -0.1749
C23 C 0.1940(16) 0.1296(15) -0.4074(15)
H15 H 0.0976 0.0339 -0.4114
C24 C 0.2090(17) 0.1541(15) -0.5446(14)
H16 H 0.1251 0.0814 -0.6387
O7 O -0.0106(9) 0.7625(8) 0.2783(8)
O8 O 0.0025(10) 0.4575(10) 0.1228(9)
Cu2_2 Cu -0.40505(5) 0.52975(5) -0.07154(5)
O4_2 O 0.7640(11) 0.7046(11) 0.1088(11)
O6_2 O 0.7870(9) 0.4059(8) -0.0547(8)
O9 O 0.2231(15) 0.9676(15) 0.0609(17)
O10 O 0.5380(13) 0.1888(12) 0.1706(14)
H17 H 0.5571 0.2915 0.1385
O11 O 0.7574(17) 0.0315(15) 0.160(3)
H18 H 0.7737 0.0448 0.2663
O12 O 0.0076(17) 0.1229(11) 0.042(3)
loop_
_geom_bond_atom_site_label_1
_geom_bond_atom_site_label_2
_geom_bond_site_symmetry_1
_geom_bond_site_symmetry_2
Cu1 O3 1_555 1_555
Cu2 O1 1_555 1_555
O1 C6 1_555 1_555
O2 Cu2 1_555 1_555
O3 C2 1_555 1_555
C1 C3 1_555 1_555
C2 O2 1_555 1_555
N1 Cu2 1_555 1_555
N2 Cu1 1_555 1_555
C3 H1 1_555 1_555
C4 H2 1_555 1_555
N3 Cu1 1_555 1_555
C5 C4 1_555 1_555
H3 C5 1_555 1_555
C6 C2 1_555 1_555
C7 C1 1_555 1_555
O4 C11 1_555 1_555
O5 Cu1 1_555 1_555
C8 N3 1_555 1_555
H4 C8 1_555 1_555
C9 N2 1_555 1_555
H5 C9 1_555 1_555
C10 C8 1_555 1_555
H6 C10 1_555 1_555
O6 C12 1_555 1_555
C11 C12 1_555 1_555
C12 O8 1_555 1_555
C13 C3 1_555 1_555
H7 C13 1_555 1_555
C14 H8 1_555 1_555
C15 C5 1_555 1_555
H9 C15 1_555 1_555
C16 N4 1_555 1_555
C17 C14 1_555 1_555
H10 C17 1_555 1_555
N4 Cu2 1_555 1_555
C18 C16 1_555 1_555
H11 C18 1_555 1_555
C19 C14 1_555 1_555
H12 C19 1_555 1_555
C20 N1 1_555 1_555
C21 C20 1_555 1_555
H13 C21 1_555 1_555
C22 N1 1_555 1_555
H14 C22 1_555 1_555
C23 C22 1_555 1_555
H15 C23 1_555 1_555
C24 C21 1_555 1_555
H16 C24 1_555 1_555
O7 Cu1 1_555 1_555
O8 Cu1 1_555 1_555
O10 H17 1_555 1_555
O11 H18 1_555 1_555
Cu2_2 O4 1_555 1_555
O4_2 Cu2 1_555 1_555
O6_2 Cu2 1_555 1_555
C1 N3 1_555 1_555
N2 C7 1_555 1_555
C4 C7 1_555 1_555
C6 O5 1_555 1_555
C9 C15 1_555 1_555
C10 C13 1_555 1_555
O6 Cu2_2 1_555 1_555
C11 O7 1_555 1_555
C16 C20 1_555 1_555
C17 C18 1_555 1_555
N4 C19 1_555 1_555
C23 C24 1_555 1_555

#END
