
#######################################################################
#
#                 Cambridge Crystallographic Data Centre
#                                CCDC 
#
#######################################################################
#
# If this CIF has been generated from an entry in the Cambridge 
# Structural Database, then it will include bibliographic, chemical, 
# crystal, experimental, refinement or atomic coordinate data resulting 
# from the CCDC's data processing and validation procedures.
#
#######################################################################

data_KONBOF
_symmetry_cell_setting           monoclinic
_symmetry_space_group_name_H-M   'C 2/c'
_symmetry_Int_Tables_number      15
_space_group_name_Hall           '-C 2yn'
loop_
_symmetry_equiv_pos_site_id
_symmetry_equiv_pos_as_xyz
1 x,y,z
2 1/2+x,1/2+y,z
3 -x,y,1/2-z
4 1/2-x,1/2+y,1/2-z
5 -x,-y,-z
6 1/2-x,1/2-y,-z
7 x,-y,1/2+z
8 1/2+x,1/2-y,1/2+z
_cell_length_a                   21.757(3)
_cell_length_b                   9.1657(13)
_cell_length_c                   22.457(3)
_cell_angle_alpha                90
_cell_angle_beta                 100.886(3)
_cell_angle_gamma                90
_cell_volume                     4397.74
loop_
_atom_site_label
_atom_site_type_symbol
_atom_site_fract_x
_atom_site_fract_y
_atom_site_fract_z
Tb1 Tb 0.045254(13) 0.31163(3) 0.422380(14)
Tb2 Tb 0.156559(13) 0.39137(3) 0.175579(13)
O1 O -0.0223(2) 0.2461(6) 0.4874(2)
H1 H -0.0222 0.2919 0.5203
H2 H -0.0597 0.2200 0.4735
O2 O 0.1163(2) 0.1188(5) 0.4383(2)
H3 H 0.1330 0.0902 0.4091
H4 H 0.1168 0.0496 0.4636
O3 O 0.0757(2) 0.3507(6) 0.3285(2)
O4 O 0.1410(2) 0.4407(5) 0.2717(2)
O5 O 0.3332(2) 0.7069(6) 0.3928(2)
O6 O 0.3690(2) 0.6067(6) 0.4824(2)
O7 O 0.1734(2) 0.4975(5) 0.5855(2)
O8 O 0.0947(2) 0.3899(5) 0.5218(2)
O9 O -0.23724(19) -0.4273(5) 0.2882(2)
O10 O -0.2586(2) -0.2266(5) 0.2322(2)
O11 O -0.0997(2) 0.1879(5) 0.3002(2)
O12 O -0.0153(2) 0.1290(5) 0.3702(2)
O13 O 0.0276(2) -0.4188(5) 0.4132(2)
O14 O -0.0496(2) -0.5623(5) 0.3711(2)
N1 N 0.1480(2) 0.4327(6) 0.4290(2)
N2 N -0.1210(2) -0.3478(6) 0.3249(2)
C1 C 0.1699(3) 0.4557(8) 0.3779(3)
C2 C 0.2272(3) 0.5214(7) 0.3788(3)
H5 H 0.2418 0.5391 0.3422
C3 C 0.2636(3) 0.5616(8) 0.4352(3)
C4 C 0.2402(3) 0.5369(7) 0.4877(3)
H6 H 0.2637 0.5630 0.5263
C5 C 0.1812(3) 0.4729(7) 0.4823(3)
C6 C 0.1255(3) 0.4125(7) 0.3216(3)
C7 C 0.3271(3) 0.6312(7) 0.4374(3)
C8 C 0.1475(3) 0.4514(7) 0.5342(3)
C9 C -0.1597(3) -0.2456(7) 0.2986(3)
C10 C -0.1434(3) -0.1001(7) 0.2994(3)
H7 H -0.1722 -0.0293 0.2798
C11 C -0.0840(3) -0.0588(7) 0.3294(3)
C12 C -0.0440(3) -0.1661(8) 0.3579(3)
H8 H -0.0036 -0.1417 0.3799
C13 C -0.0640(3) -0.3077(7) 0.3537(3)
C14 C -0.2238(3) -0.3042(7) 0.2708(3)
C15 C -0.0651(3) 0.0992(7) 0.3331(3)
C16 C -0.0260(3) -0.4352(7) 0.3817(3)
Tb1_2 Tb 0.045254(13) 1.31163(3) 0.422380(14)
Tb1_3 Tb 0.045254(13) -0.68837(3) 0.422380(14)
Tb1C Tb 0.454746(13) -0.18837(3) 0.077620(14)
Tb2C Tb 0.343441(13) 0.89137(3) 0.324421(13)
Tb2F Tb 0.156559(13) 0.60863(3) 0.675579(13)
Tb2B Tb -0.156559(13) -0.60863(3) 0.324421(13)
Tb2A Tb -0.343441(13) -0.10863(3) 0.175579(13)
Tb2B_2 Tb -0.156559(13) 0.39137(3) 0.324421(13)
Tb2A_2 Tb -0.343441(13) 0.89137(3) 0.175579(13)
Tb2B_3 Tb -0.156559(13) 1.39137(3) 0.324421(13)
Tb2C_2 Tb 0.343441(13) -0.10863(3) 0.324421(13)
Tb2E Tb 0.343441(13) 0.10863(3) -0.175579(13)
O1_2 O -0.0223(2) 1.2461(6) 0.4874(2)
H1_2 H -0.0222 1.2919 0.5203
H2_2 H -0.0597 1.2200 0.4735
O2_2 O 0.1163(2) 1.1188(5) 0.4383(2)
H3_2 H 0.1330 1.0902 0.4091
H4_2 H 0.1168 1.0496 0.4636
O3C O 0.4243(2) -0.1493(6) 0.1715(2)
O3_2 O 0.0757(2) 1.3507(6) 0.3285(2)
O4C O 0.3590(2) -0.0593(5) 0.2283(2)
O4C_2 O 0.3590(2) 0.9407(5) 0.2283(2)
O5C O 0.1668(2) 0.2069(6) 0.1072(2)
O6C O 0.1310(2) 0.1067(6) 0.0176(2)
O7C O 0.3266(2) -0.0025(5) -0.0855(2)
O7F O 0.1734(2) 0.5025(5) 0.0855(2)
O7E O 0.3266(2) 1.0025(5) 0.4145(2)
O8C O 0.4053(2) -0.1101(5) -0.0218(2)
O8_2 O 0.0947(2) 1.3899(5) 0.5218(2)
O9_2 O -0.23724(19) 0.5727(5) 0.2882(2)
O9B O 0.23724(19) 0.5727(5) 0.2118(2)
O9A O 0.26276(19) 1.0727(5) 0.2882(2)
O10_2 O -0.2586(2) 0.7734(5) 0.2322(2)
O10A O 0.2414(2) 0.2734(5) 0.2322(2)
O10B O 0.2586(2) 0.7734(5) 0.2678(2)
O11_2 O -0.0997(2) 1.1879(5) 0.3002(2)
O11B O 0.0997(2) 0.1879(5) 0.1998(2)
O11A O 0.4003(2) 0.6879(5) 0.3002(2)
O12_2 O -0.0153(2) 1.1290(5) 0.3702(2)
O13_2 O 0.0276(2) 0.5812(5) 0.4132(2)
O13_3 O 0.0276(2) 1.5812(5) 0.4132(2)
O14_2 O -0.0496(2) 0.4377(5) 0.3711(2)
O14B O 0.0496(2) 0.4377(5) 0.1289(2)
O14_3 O -0.0496(2) 1.4377(5) 0.3711(2)
O14A O 0.4504(2) 0.9377(5) 0.3711(2)
N1C N 0.3520(2) -0.0673(6) 0.0710(2)
N1_2 N 0.1480(2) 1.4327(6) 0.4290(2)
N2_2 N -0.1210(2) 0.6522(6) 0.3249(2)
N2B N 0.1210(2) 0.6522(6) 0.1751(2)
N2A N 0.3790(2) 1.1522(6) 0.3249(2)
C1C C 0.3301(3) -0.0443(8) 0.1221(3)
C2C C 0.2728(3) 0.0214(7) 0.1212(3)
H5C H 0.2582 0.0391 0.1578
C3C C 0.2364(3) 0.0616(8) 0.0648(3)
C4C C 0.2598(3) 0.0369(7) 0.0123(3)
H6C H 0.2363 0.0630 -0.0263
C5C C 0.3188(3) -0.0271(7) 0.0177(3)
C6C C 0.3745(3) -0.0875(7) 0.1784(3)
C7C C 0.1729(3) 0.1312(7) 0.0626(3)
C8C C 0.3525(3) -0.0486(7) -0.0342(3)
C9_2 C -0.1597(3) 0.7544(7) 0.2986(3)
C10_2 C -0.1434(3) 0.8999(7) 0.2994(3)
H7_2 H -0.1722 0.9707 0.2798
C11_2 C -0.0840(3) 0.9412(7) 0.3294(3)
C12_2 C -0.0440(3) 0.8339(8) 0.3579(3)
H8_2 H -0.0036 0.8583 0.3799
C13_2 C -0.0640(3) 0.6923(7) 0.3537(3)
C14_2 C -0.2238(3) 0.6958(7) 0.2708(3)
C15_2 C -0.0651(3) 1.0992(7) 0.3331(3)
C16_2 C -0.0260(3) 0.5648(7) 0.3817(3)
O15 O -0.0975(4) 0.7458(11) 0.1704(4)
O16 O 0.1466(5) 0.0603(13) 0.3282(5)
O18 O 0.0000 0.5931(12) 0.2500
O17? O 0.1697(5) -0.0158(13) 0.3594(5)
loop_
_geom_bond_atom_site_label_1
_geom_bond_atom_site_label_2
_geom_bond_site_symmetry_1
_geom_bond_site_symmetry_2
Tb1 O1 1_555 1_555
Tb2 O4 1_555 1_555
O1 H1 1_555 1_555
H2 O1 1_555 1_555
O2 Tb1 1_555 1_555
H3 O2 1_555 1_555
H4 O2 1_555 1_555
O3 Tb1 1_555 1_555
O4 C6 1_555 1_555
O5 C7 1_555 1_555
O6 C7 1_555 1_555
O7 C8 1_555 1_555
O8 Tb1 1_555 1_555
O9 C14 1_555 1_555
O10 C14 1_555 1_555
O11 C15 1_555 1_555
O12 Tb1 1_555 1_555
O13 C16 1_555 1_555
O14 C16 1_555 1_555
N1 Tb1 1_555 1_555
N2 C9 1_555 1_555
C1 N1 1_555 1_555
C2 C1 1_555 1_555
H5 C2 1_555 1_555
C3 C2 1_555 1_555
C4 C3 1_555 1_555
H6 C4 1_555 1_555
C5 N1 1_555 1_555
C6 O3 1_555 1_555
C7 C3 1_555 1_555
C8 O8 1_555 1_555
C9 C10 1_555 1_555
C10 H7 1_555 1_555
C11 C10 1_555 1_555
C12 C11 1_555 1_555
H8 C12 1_555 1_555
C13 N2 1_555 1_555
C14 C9 1_555 1_555
C15 O12 1_555 1_555
C16 C13 1_555 1_555
Tb1_2 O1_2 1_555 1_555
Tb1_3 O13 1_555 1_555
Tb1C O3C 1_555 1_555
Tb2C O5 1_555 1_555
Tb2F O7 1_555 1_555
Tb2B O9 1_555 1_555
Tb2A O10 1_555 1_555
Tb2B_2 O11 1_555 1_555
Tb2A_2 O10_2 1_555 1_555
Tb2B_3 O11_2 1_555 1_555
Tb2C_2 O4C 1_555 1_555
Tb2E O7C 1_555 1_555
O1_2 H1_2 1_555 1_555
H2_2 O1_2 1_555 1_555
O2_2 Tb1_2 1_555 1_555
H3_2 O2_2 1_555 1_555
H4_2 O2_2 1_555 1_555
O3C C6C 1_555 1_555
O3_2 Tb1_2 1_555 1_555
O4C C6C 1_555 1_555
O4C_2 Tb2C 1_555 1_555
O5C Tb2 1_555 1_555
O6C C7C 1_555 1_555
O7C C8C 1_555 1_555
O7F Tb2 1_555 1_555
O7E Tb2C 1_555 1_555
O8C Tb1C 1_555 1_555
O8_2 Tb1_2 1_555 1_555
O9_2 Tb2B_2 1_555 1_555
O9B Tb2 1_555 1_555
O9A Tb2C 1_555 1_555
O10_2 C14_2 1_555 1_555
O10A Tb2 1_555 1_555
O10B Tb2C 1_555 1_555
O11_2 C15_2 1_555 1_555
O11B Tb2 1_555 1_555
O11A Tb2C 1_555 1_555
O12_2 Tb1_2 1_555 1_555
O13_2 Tb1 1_555 1_555
O13_3 Tb1_2 1_555 1_555
O14_2 Tb1 1_555 1_555
O14B Tb2 1_555 1_555
O14_3 Tb1_2 1_555 1_555
O14A Tb2C 1_555 1_555
N1C Tb1C 1_555 1_555
N1_2 Tb1_2 1_555 1_555
N2_2 Tb2B_2 1_555 1_555
N2B Tb2 1_555 1_555
N2A Tb2C 1_555 1_555
C1C N1C 1_555 1_555
C2C C1C 1_555 1_555
H5C C2C 1_555 1_555
C3C C2C 1_555 1_555
C4C C3C 1_555 1_555
H6C C4C 1_555 1_555
C5C N1C 1_555 1_555
C6C C1C 1_555 1_555
C7C O5C 1_555 1_555
C8C O8C 1_555 1_555
C9_2 N2_2 1_555 1_555
C10_2 C9_2 1_555 1_555
H7_2 C10_2 1_555 1_555
C11_2 C10_2 1_555 1_555
C12_2 C11_2 1_555 1_555
H8_2 C12_2 1_555 1_555
C13_2 N2_2 1_555 1_555
C14_2 O9_2 1_555 1_555
C15_2 O12_2 1_555 1_555
C16_2 O13_2 1_555 1_555
O14 Tb1_3 1_555 1_555
O14 Tb2B 1_555 1_555
N2 Tb2B 1_555 1_555
C1 C6 1_555 1_555
C4 C5 1_555 1_555
C5 C8 1_555 1_555
C11 C15 1_555 1_555
C12 C13 1_555 1_555
Tb2B_2 O14_2 1_555 1_555
Tb2B_3 O14_3 1_555 1_555
O14_2 C16_2 1_555 1_555
C3C C7C 1_555 1_555
C4C C5C 1_555 1_555
C5C C8C 1_555 1_555
C9_2 C14_2 1_555 1_555
C11_2 C15_2 1_555 1_555
C12_2 C13_2 1_555 1_555
C13_2 C16_2 1_555 1_555

#END
