
#######################################################################
#
#                 Cambridge Crystallographic Data Centre
#                                CCDC 
#
#######################################################################
#
# If this CIF has been generated from an entry in the Cambridge 
# Structural Database, then it will include bibliographic, chemical, 
# crystal, experimental, refinement or atomic coordinate data resulting 
# from the CCDC's data processing and validation procedures.
#
#######################################################################

data_KONCIA
_symmetry_cell_setting           orthorhombic
_symmetry_space_group_name_H-M   'F d d d'
_symmetry_Int_Tables_number      70
_space_group_name_Hall           '-F 2uv 2vw'
loop_
_symmetry_equiv_pos_site_id
_symmetry_equiv_pos_as_xyz
1 x,y,z
2 x,1/2+y,1/2+z
3 x,1/4-y,1/4-z
4 1/2+x,y,1/2+z
5 1/4-x,y,1/4-z
6 1/2+x,1/2+y,z
7 1/4-x,1/4-y,z
8 3/4-x,3/4-y,z
9 3/4-x,y,3/4-z
10 x,3/4-y,3/4-z
11 3/4-x,1/4-y,1/2+z
12 3/4-x,1/2+y,1/4-z
13 1/4-x,3/4-y,1/2+z
14 1/2+x,3/4-y,1/4-z
15 1/4-x,1/2+y,3/4-z
16 1/2+x,1/4-y,3/4-z
17 -x,-y,-z
18 -x,1/2-y,1/2-z
19 -x,3/4+y,3/4+z
20 1/2-x,-y,1/2-z
21 3/4+x,-y,3/4+z
22 1/2-x,1/2-y,-z
23 3/4+x,3/4+y,-z
24 1/4+x,1/4+y,-z
25 1/4+x,-y,1/4+z
26 -x,1/4+y,1/4+z
27 1/4+x,3/4+y,1/2-z
28 1/4+x,1/2-y,3/4+z
29 3/4+x,1/4+y,1/2-z
30 1/2-x,1/4+y,3/4+z
31 3/4+x,1/2-y,1/4+z
32 1/2-x,3/4+y,1/4+z
_cell_length_a                   9.7219(19)
_cell_length_b                   15.535(3)
_cell_length_c                   28.003(6)
_cell_angle_alpha                90
_cell_angle_beta                 90
_cell_angle_gamma                90
_cell_volume                     4229.29
loop_
_atom_site_label
_atom_site_type_symbol
_atom_site_fract_x
_atom_site_fract_y
_atom_site_fract_z
H1 H 0.496(5) 0.649(3) 0.411(2)
H2 H 0.458(6) 0.586(4) 0.427(2)
Pr1 Pr 0.6250 0.6250 0.509460(7)
C1 C 0.6250 0.5749(3) 0.6250
C2 C 0.9340(3) 0.6584(2) 0.53123(12)
C3 C 1.0863(4) 0.6644(3) 0.5395(2)
H3 H 1.1246 0.7017 0.5152
H4 H 1.1007 0.6925 0.5701
O1 O 0.8684(3) 0.59044(15) 0.53985(9)
O2 O 0.6139(2) 0.53882(14) 0.58526(7)
O3 O 0.4722(3) 0.6271(2) 0.43534(9)
O4 O 0.8738(3) 0.72463(15) 0.51644(8)
H1F H 0.754(5) 0.601(3) 0.411(2)
H1F_2 H 1.754(5) 0.601(3) 0.411(2)
H1_2 H 1.496(5) 0.649(3) 0.411(2)
H2F H 0.792(6) 0.664(4) 0.427(2)
H2F_2 H 1.792(6) 0.664(4) 0.427(2)
H2_2 H 1.458(6) 0.586(4) 0.427(2)
Pr1_2 Pr 1.6250 0.6250 0.509460(7)
Pr1W Pr 0.8750 0.8750 0.490540(7)
Pr1B Pr 0.6250 0.6250 0.740540(7)
Pr1P Pr 1.3750 0.3750 0.490540(7)
Pr1P_2 Pr 0.3750 0.3750 0.490540(7)
Pr1_3 Pr -0.3750 0.6250 0.509460(7)
Pr1W_2 Pr -0.1250 0.8750 0.490540(7)
C1B C 0.6250 0.6751(3) 0.6250
C2F C 1.3160(3) 0.5916(2) 0.53123(12)
C2F_2 C 0.3160(3) 0.5916(2) 0.53123(12)
C2_2 C -0.0660(3) 0.6584(2) 0.53123(12)
C3F C 1.1637(4) 0.5856(3) 0.5395(2)
C3F_2 C 0.1637(4) 0.5856(3) 0.5395(2)
C3_2 C 0.0863(4) 0.6644(3) 0.5395(2)
H3F H 1.1254 0.5483 0.5152
H3F_2 H 0.1254 0.5483 0.5152
H3_2 H 0.1246 0.7017 0.5152
H4F H 1.1493 0.5575 0.5701
H4F_2 H 0.1493 0.5575 0.5701
H4_2 H 0.1007 0.6925 0.5701
O1F O 1.3816(3) 0.65956(15) 0.53985(9)
O1F_2 O 0.3816(3) 0.65956(15) 0.53985(9)
O1_2 O -0.1316(3) 0.59044(15) 0.53985(9)
O1_3 O 1.8684(3) 0.59044(15) 0.53985(9)
O2B O 0.6139(2) 0.71118(14) 0.66474(7)
O2F O 0.6361(2) 0.71118(14) 0.58526(7)
O2D O 0.6361(2) 0.53882(14) 0.66474(7)
O2_2 O 1.6139(2) 0.53882(14) 0.58526(7)
O2F_2 O 1.6361(2) 0.71118(14) 0.58526(7)
O3F O 0.7778(3) 0.6229(2) 0.43534(9)
O3F_2 O 1.7778(3) 0.6229(2) 0.43534(9)
O3_2 O 1.4722(3) 0.6271(2) 0.43534(9)
O4F O 1.3762(3) 0.52537(15) 0.51644(8)
O4F_2 O 0.3762(3) 0.52537(15) 0.51644(8)
O4_2 O -0.1262(3) 0.72463(15) 0.51644(8)
O4U O 0.6262(3) 0.77537(15) 0.48356(8)
O4V O 0.6238(3) 0.47463(15) 0.48356(8)
O4_3 O 1.8738(3) 0.72463(15) 0.51644(8)
O4U_2 O 1.6262(3) 0.77537(15) 0.48356(8)
O4V_2 O 1.6238(3) 0.47463(15) 0.48356(8)
O5 O 0.0524(5) 0.5494(3) 0.40228(18)
loop_
_geom_bond_atom_site_label_1
_geom_bond_atom_site_label_2
_geom_bond_site_symmetry_1
_geom_bond_site_symmetry_2
H1 O3 1_555 1_555
H2 O3 1_555 1_555
Pr1 O1 1_555 1_555
C1 O2 1_555 1_555
C2 C3 1_555 1_555
C3 H3 1_555 1_555
H4 C3 1_555 1_555
O1 C2 1_555 1_555
O2 Pr1 1_555 1_555
O3 Pr1 1_555 1_555
O4 Pr1 1_555 1_555
H1F O3F 1_555 1_555
H1F_2 O3F_2 1_555 1_555
H1_2 O3_2 1_555 1_555
H2F O3F 1_555 1_555
H2F_2 O3F_2 1_555 1_555
H2_2 O3_2 1_555 1_555
Pr1_2 O1F 1_555 1_555
Pr1W O4 1_555 1_555
Pr1B O2B 1_555 1_555
Pr1P O4F 1_555 1_555
Pr1P_2 O4F_2 1_555 1_555
Pr1_3 O1_2 1_555 1_555
Pr1W_2 O4_2 1_555 1_555
C1B C1 1_555 1_555
C2F C3F 1_555 1_555
C2F_2 C3F_2 1_555 1_555
C2_2 C3_2 1_555 1_555
C3F C3 1_555 1_555
C3F_2 C3_2 1_555 1_555
C3_2 H3_2 1_555 1_555
H3F C3F 1_555 1_555
H3F_2 C3F_2 1_555 1_555
H4F C3F 1_555 1_555
H4F_2 C3F_2 1_555 1_555
H4_2 C3_2 1_555 1_555
O1F C2F 1_555 1_555
O1F_2 Pr1 1_555 1_555
O1_2 C2_2 1_555 1_555
O1_3 Pr1_2 1_555 1_555
O2B C1B 1_555 1_555
O2F Pr1 1_555 1_555
O2D C1 1_555 1_555
O2_2 Pr1_2 1_555 1_555
O2F_2 Pr1_2 1_555 1_555
O3F Pr1 1_555 1_555
O3F_2 Pr1_2 1_555 1_555
O3_2 Pr1_2 1_555 1_555
O4F Pr1_2 1_555 1_555
O4F_2 Pr1 1_555 1_555
O4_2 Pr1_3 1_555 1_555
O4U Pr1 1_555 1_555
O4V Pr1 1_555 1_555
O4_3 Pr1_2 1_555 1_555
O4U_2 Pr1_2 1_555 1_555
O4V_2 Pr1_2 1_555 1_555
C2 O4 1_555 1_555
Pr1W O4U 1_555 1_555
Pr1B O2D 1_555 1_555
Pr1P O4V_2 1_555 1_555
Pr1P_2 O4V 1_555 1_555
C1B O2F 1_555 1_555
C2F O4F 1_555 1_555
C2F_2 O1F_2 1_555 1_555
C2F_2 O4F_2 1_555 1_555
C2_2 O4_2 1_555 1_555

#END
