
#######################################################################
#
#                 Cambridge Crystallographic Data Centre
#                                CCDC 
#
#######################################################################
#
# If this CIF has been generated from an entry in the Cambridge 
# Structural Database, then it will include bibliographic, chemical, 
# crystal, experimental, refinement or atomic coordinate data resulting 
# from the CCDC's data processing and validation procedures.
#
#######################################################################

data_KONDUO
_symmetry_cell_setting           triclinic
_symmetry_space_group_name_H-M   'P -1'
_symmetry_Int_Tables_number      2
_space_group_name_Hall           '-P 1'
loop_
_symmetry_equiv_pos_site_id
_symmetry_equiv_pos_as_xyz
1 x,y,z
2 -x,-y,-z
_cell_length_a                   8.2691(6)
_cell_length_b                   10.3254(7)
_cell_length_c                   10.9614(12)
_cell_angle_alpha                102.7690(10)
_cell_angle_beta                 109.2740(10)
_cell_angle_gamma                111.5200(10)
_cell_volume                     756.93
loop_
_atom_site_label
_atom_site_type_symbol
_atom_site_fract_x
_atom_site_fract_y
_atom_site_fract_z
La1 La 0.32712(3) 1.11038(2) 1.06812(2)
S1 S 0.81260(17) 1.41475(15) 0.73250(14)
O1 O 0.6493(5) 1.1351(3) 1.0073(3)
O2 O 0.5415(4) 1.2981(3) 0.9921(3)
O3 O 0.9617(4) 1.1090(3) 0.9620(3)
O4 O 1.2222(4) 1.3097(3) 1.0014(3)
O5 O 0.5185(4) 1.3698(3) 1.2828(3)
O6 O 0.2411(4) 1.2040(3) 1.2619(3)
O7 O 0.5322(5) 1.0873(4) 1.2681(3)
O8 O 0.7377(5) 1.0282(4) 1.3971(4)
O9 O 0.1397(5) 0.9886(4) 0.8046(3)
N1 N 0.6715(5) 1.3558(4) 0.8035(4)
N2 N 0.9735(5) 1.3650(4) 0.8047(4)
C1 C 0.7431(6) 1.2922(4) 0.8847(4)
C2 C 0.9169(6) 1.2964(4) 0.8835(4)
C3 C 0.6397(5) 1.2373(4) 0.9674(4)
C4 C 1.0422(6) 1.2351(4) 0.9564(4)
C5 C 0.4236(6) 1.4331(5) 1.4617(4)
H1 H 0.3293 1.4005 1.4924
C6 C 0.3942(6) 1.3312(5) 1.3279(4)
C7 C 0.4801(6) 1.0239(5) 1.4495(5)
H2 H 0.3754 1.0438 1.4273
C8 C 0.5924(6) 1.0483(5) 1.3674(4)
H3 H 0.184(5) 0.978(5) 0.745(3)
H4 H 0.025(3) 0.919(4) 0.772(4)
O5A O 0.4815(4) 1.6302(3) 1.7172(3)
O6A O 0.7589(4) 1.7960(3) 1.7381(3)
C5A C 0.5764(6) 1.5669(5) 1.5383(4)
H1A H 0.6707 1.5995 1.5076
C6A C 0.6058(6) 1.6688(5) 1.6721(4)
O7A O 0.4678(5) 0.9127(4) 1.7319(3)
O8A O 0.2623(5) 0.9718(4) 1.6029(4)
C7A C 0.5199(6) 0.9761(5) 1.5505(5)
H2A H 0.6246 0.9562 1.5727
C8A C 0.4076(6) 0.9517(5) 1.6326(4)
La1A La 0.67288(3) 0.88962(2) 0.93188(2)
S1A S 0.18740(17) 0.58525(15) 1.26750(14)
O1A O 0.3507(5) 0.8649(3) 0.9927(3)
O2A O 0.4585(4) 0.7019(3) 1.0079(3)
O3A O 0.0383(4) 0.8910(3) 1.0380(3)
O4A O -0.2222(4) 0.6903(3) 0.9986(3)
O9A O 0.8603(5) 1.0114(4) 1.1954(3)
N1A N 0.3285(5) 0.6442(4) 1.1965(4)
N2A N 0.0265(5) 0.6350(4) 1.1953(4)
C1A C 0.2569(6) 0.7078(4) 1.1153(4)
C2A C 0.0831(6) 0.7036(4) 1.1165(4)
C3A C 0.3603(5) 0.7627(4) 1.0326(4)
C4A C -0.0422(6) 0.7649(4) 1.0436(4)
H3A H 0.816(5) 1.022(5) 1.255(3)
H4A H 0.975(3) 1.081(4) 1.228(4)
La1_2 La 1.32712(3) 1.11038(2) 1.06812(2)
La1A_2 La -0.32712(3) 0.88962(2) 0.93188(2)
La1A_3 La 0.67288(3) 0.88962(2) 1.93188(2)
La1A_4 La 0.67288(3) 1.88962(2) 1.93188(2)
O3_2 O -0.0383(4) 1.1090(3) 0.9620(3)
O3A_2 O 1.0383(4) 0.8910(3) 1.0380(3)
O4_2 O 0.2222(4) 1.3097(3) 1.0014(3)
O4A_2 O 0.7778(4) 0.6903(3) 0.9986(3)
O5A_2 O 0.4815(4) 0.6302(3) 0.7172(3)
O6A_2 O 0.7589(4) 0.7960(3) 0.7381(3)
O7A_2 O 0.4678(5) 0.9127(4) 0.7319(3)
K1 K 0.35519(15) 1.41867(11) 0.81638(11)
O10 O 0.1505(6) 1.1967(5) 0.5676(5)
H5 H 0.029(4) 1.200(4) 0.532(3)
H6 H 0.128(7) 1.109(2) 0.588(3)
O11 O 1.0955(17) 1.6204(15) 1.6611(13)
O12? O 1.083(3) 1.562(2) 1.620(2)
loop_
_geom_bond_atom_site_label_1
_geom_bond_atom_site_label_2
_geom_bond_site_symmetry_1
_geom_bond_site_symmetry_2
La1 O1 1_555 1_555
S1 N1 1_555 1_555
O1 C3 1_555 1_555
O2 La1 1_555 1_555
O3 C4 1_555 1_555
O4 C4 1_555 1_555
O5 La1 1_555 1_555
O6 La1 1_555 1_555
O7 La1 1_555 1_555
O8 C8 1_555 1_555
O9 La1 1_555 1_555
N1 C1 1_555 1_555
N2 S1 1_555 1_555
C1 C2 1_555 1_555
C2 N2 1_555 1_555
C3 O2 1_555 1_555
C4 C2 1_555 1_555
C5 H1 1_555 1_555
C6 O5 1_555 1_555
C7 H2 1_555 1_555
C8 O7 1_555 1_555
H3 O9 1_555 1_555
H4 O9 1_555 1_555
O10 H5 1_555 1_555
H6 O10 1_555 1_555
O5A C6A 1_555 1_555
O6A C6A 1_555 1_555
C5A C5 1_555 1_555
H1A C5A 1_555 1_555
C6A C5A 1_555 1_555
O7A C8A 1_555 1_555
O8A C8A 1_555 1_555
C7A C7 1_555 1_555
H2A C7A 1_555 1_555
C8A C7A 1_555 1_555
La1A O1 1_555 1_555
S1A N1A 1_555 1_555
O1A La1 1_555 1_555
O2A La1A 1_555 1_555
O3A La1 1_555 1_555
O4A C4A 1_555 1_555
O9A La1A 1_555 1_555
N1A C1A 1_555 1_555
N2A S1A 1_555 1_555
C1A C2A 1_555 1_555
C2A N2A 1_555 1_555
C3A O1A 1_555 1_555
C4A O3A 1_555 1_555
H3A O9A 1_555 1_555
H4A O9A 1_555 1_555
La1_2 O3 1_555 1_555
La1A_2 O3A 1_555 1_555
La1A_3 O7A 1_555 1_555
La1A_4 O5A 1_555 1_555
O3_2 La1 1_555 1_555
O3A_2 La1A 1_555 1_555
O4_2 La1 1_555 1_555
O4A_2 La1A 1_555 1_555
O5A_2 La1A 1_555 1_555
O6A_2 La1A 1_555 1_555
O7A_2 La1A 1_555 1_555
O3 La1A 1_555 1_555
O4 La1_2 1_555 1_555
O6 C6 1_555 1_555
C1 C3 1_555 1_555
C5 C6 1_555 1_555
C7 C8 1_555 1_555
O6A La1A_4 1_555 1_555
La1A O1A 1_555 1_555
O2A C3A 1_555 1_555
O4A La1A_2 1_555 1_555
C1A C3A 1_555 1_555
C2A C4A 1_555 1_555
La1_2 O3A_2 1_555 1_555
La1A_2 O3_2 1_555 1_555

#END
