
#######################################################################
#
#                 Cambridge Crystallographic Data Centre
#                                CCDC 
#
#######################################################################
#
# If this CIF has been generated from an entry in the Cambridge 
# Structural Database, then it will include bibliographic, chemical, 
# crystal, experimental, refinement or atomic coordinate data resulting 
# from the CCDC's data processing and validation procedures.
#
#######################################################################

data_KONGUR
_symmetry_cell_setting           monoclinic
_symmetry_space_group_name_H-M   'C 2/c'
_symmetry_Int_Tables_number      15
_space_group_name_Hall           '-C 2yn'
loop_
_symmetry_equiv_pos_site_id
_symmetry_equiv_pos_as_xyz
1 x,y,z
2 -x,y,1/2-z
3 1/2+x,1/2+y,z
4 1/2-x,1/2+y,1/2-z
5 -x,-y,-z
6 x,-y,1/2+z
7 1/2-x,1/2-y,-z
8 1/2+x,1/2-y,1/2+z
_cell_length_a                   17.9598(11)
_cell_length_b                   8.3889(5)
_cell_length_c                   20.1191(13)
_cell_angle_alpha                90
_cell_angle_beta                 90.6390(10)
_cell_angle_gamma                90
_cell_volume                     3031.01
loop_
_atom_site_label
_atom_site_type_symbol
_atom_site_fract_x
_atom_site_fract_y
_atom_site_fract_z
Gd1 Gd 0.207966(8) 0.015997(17) 0.480171(7)
S1 S 0.15179(6) -0.44123(13) 0.21333(5)
S2 S -0.02656(5) -0.49308(10) 0.62588(5)
O1 O 0.13141(12) -0.1028(3) 0.38306(11)
O2 O 0.25238(12) -0.1462(3) 0.38969(11)
O3 O 0.28346(14) -0.5319(3) 0.40232(12)
O4 O 0.36570(14) -0.4310(4) 0.33167(13)
O5 O 0.11653(13) -0.1690(3) 0.52131(12)
O6 O 0.18084(12) -0.3782(3) 0.48843(11)
O7 O 0.18690(11) -0.6933(2) 0.52221(11)
O8 O 0.08757(12) -0.8400(2) 0.50344(11)
O9 O 0.19350(15) 0.1989(3) 0.38769(12)
N1 N 0.13321(15) -0.2956(3) 0.26439(14)
N2 N 0.2258(2) -0.5109(4) 0.25099(17)
N3 N 0.02372(15) -0.3533(3) 0.59409(14)
N4 N 0.01438(15) -0.6456(3) 0.59273(15)
C1 C 0.18513(17) -0.2960(4) 0.31112(16)
C2 C 0.23808(18) -0.4213(4) 0.30339(16)
C3 C 0.18888(18) -0.1726(4) 0.36422(16)
C4 C 0.30223(19) -0.4625(4) 0.34930(16)
C5 C 0.07529(17) -0.4207(4) 0.55658(15)
C6 C 0.06940(17) -0.5904(4) 0.55639(15)
C7 C 0.12891(17) -0.3140(4) 0.51938(16)
C8 C 0.11746(16) -0.7143(4) 0.52385(15)
H1 H 0.222(2) 0.290(4) 0.387(2)
H2 H 0.162(2) 0.187(5) 0.3525(18)
Gd1_2 Gd 0.207966(8) -0.984003(17) 0.480171(7)
Gd1F Gd 0.292034(8) -0.515997(17) 0.519829(7)
O3F O 0.21654(14) 0.0319(3) 0.59768(12)
O6F O 0.31916(12) -0.1218(3) 0.51157(11)
O7_2 O 0.18690(11) 0.3067(2) 0.52221(11)
O7F O 0.31310(11) 0.1933(2) 0.47779(11)
O8_2 O 0.08757(12) 0.1600(2) 0.50344(11)
K1 K 0.00642(4) -0.00850(9) 0.59930(5)
O10 O -0.08460(18) -0.2001(4) 0.71393(14)
H3 H -0.110(2) -0.135(3) 0.7408(15)
H4 H -0.0533(14) -0.261(4) 0.7385(16)
O11 O 0.0000 0.0879(6) 0.7500
H5 H -0.038(2) 0.164(4) 0.746(3)
H5A H 0.038(2) 0.164(4) 0.754(3)
loop_
_geom_bond_atom_site_label_1
_geom_bond_atom_site_label_2
_geom_bond_site_symmetry_1
_geom_bond_site_symmetry_2
Gd1 O1 1_555 1_555
S1 N1 1_555 1_555
S2 N3 1_555 1_555
O1 C3 1_555 1_555
O2 Gd1 1_555 1_555
O3 C4 1_555 1_555
O4 C4 1_555 1_555
O5 Gd1 1_555 1_555
O6 C7 1_555 1_555
O7 C8 1_555 1_555
O8 C8 1_555 1_555
O9 Gd1 1_555 1_555
N1 C1 1_555 1_555
N2 S1 1_555 1_555
N3 C5 1_555 1_555
N4 S2 1_555 1_555
C1 C2 1_555 1_555
C2 N2 1_555 1_555
C3 O2 1_555 1_555
C4 C2 1_555 1_555
C5 C6 1_555 1_555
C6 N4 1_555 1_555
C7 O5 1_555 1_555
C8 C6 1_555 1_555
H1 O9 1_555 1_555
H2 O9 1_555 1_555
O10 H3 1_555 1_555
H4 O10 1_555 1_555
O11 H5 1_555 1_555
Gd1_2 O7 1_555 1_555
Gd1F O3 1_555 1_555
O3F Gd1 1_555 1_555
O6F Gd1 1_555 1_555
O7_2 Gd1 1_555 1_555
O7F Gd1 1_555 1_555
O8_2 Gd1 1_555 1_555
H5A O11 1_555 1_555
O6 Gd1F 1_555 1_555
O7 Gd1F 1_555 1_555
O8 Gd1_2 1_555 1_555
C1 C3 1_555 1_555
C5 C7 1_555 1_555

#END
