
#######################################################################
#
#                 Cambridge Crystallographic Data Centre
#                                CCDC 
#
#######################################################################
#
# If this CIF has been generated from an entry in the Cambridge 
# Structural Database, then it will include bibliographic, chemical, 
# crystal, experimental, refinement or atomic coordinate data resulting 
# from the CCDC's data processing and validation procedures.
#
#######################################################################

data_KONYET
_symmetry_cell_setting           monoclinic
_symmetry_space_group_name_H-M   'P 21/c'
_symmetry_Int_Tables_number      14
_space_group_name_Hall           '-P 2ybc'
loop_
_symmetry_equiv_pos_site_id
_symmetry_equiv_pos_as_xyz
1 x,y,z
2 -x,1/2+y,1/2-z
3 -x,-y,-z
4 x,1/2-y,1/2+z
_cell_length_a                   13.489(2)
_cell_length_b                   8.559(2)
_cell_length_c                   32.007(4)
_cell_angle_alpha                90
_cell_angle_beta                 100.600(10)
_cell_angle_gamma                90
_cell_volume                     3632.22
loop_
_atom_site_label
_atom_site_type_symbol
_atom_site_fract_x
_atom_site_fract_y
_atom_site_fract_z
C1 C -0.0867(4) -0.0723(7) 0.70184(16)
C2 C -0.0371(4) 0.0323(6) 0.67997(15)
C3 C 0.0480(4) -0.0150(6) 0.66309(17)
C4 C 0.0781(4) -0.1711(7) 0.66773(19)
H1 H 0.1335 -0.2057 0.6568
C5 C 0.0256(5) -0.2736(7) 0.68856(19)
H2 H 0.0451 -0.3779 0.6913
C6 C -0.1075(6) -0.3398(8) 0.7271(2)
H3 H -0.0793 -0.4416 0.7246
H4 H -0.1778 -0.3407 0.7144
H5 H -0.1001 -0.3124 0.7566
C7 C -0.1749(5) -0.0244(9) 0.72034(19)
H6 H -0.2338 -0.0789 0.7062
H7 H -0.1851 0.0861 0.7167
H8 H -0.1629 -0.0495 0.7501
C8 C 0.0617(4) 0.3217(6) 0.51677(18)
C9 C 0.0255(4) 0.2886(6) 0.55363(17)
C10 C -0.0602(4) 0.1938(7) 0.55335(19)
C11 C -0.1061(5) 0.1296(7) 0.5137(2)
H9 H -0.1617 0.064 0.5118
C12 C -0.0686(6) 0.1643(8) 0.4789(2)
H10 H -0.1002 0.1229 0.453
C13 C 0.0473(7) 0.2817(11) 0.4393(2)
H11 H 0.0065 0.2223 0.4172
H12 H 0.1164 0.2493 0.4423
H13 H 0.042 0.3908 0.4323
C14 C 0.1503(5) 0.4199(8) 0.5168(2)
H14 H 0.2067 0.3554 0.5138
H15 H 0.1654 0.4764 0.5431
H16 H 0.1368 0.4924 0.4936
C15 C 0.3980(4) 0.0216(8) 0.70941(17)
C16 C 0.4539(4) 0.1096(7) 0.68644(16)
C17 C 0.5313(4) 0.0387(7) 0.66686(17)
C18 C 0.5466(5) -0.1218(7) 0.67307(18)
H17 H 0.5976 -0.1713 0.662
C19 C 0.4892(5) -0.2050(7) 0.6946(2)
H18 H 0.4997 -0.3123 0.6972
C20 C 0.3538(6) -0.2381(10) 0.7348(2)
H19 H 0.3739 -0.3453 0.7334
H20 H 0.2843 -0.2272 0.7215
H21 H 0.3621 -0.2063 0.764
C21 C 0.3174(5) 0.0906(9) 0.7286(2)
H22 H 0.3176 0.202 0.7251
H23 H 0.3283 0.0655 0.7583
H24 H 0.2535 0.0495 0.7148
C22 C 0.5442(4) 0.2951(7) 0.51412(19)
C23 C 0.5130(4) 0.2961(6) 0.55243(17)
C24 C 0.4220(4) 0.2189(6) 0.55785(18)
C25 C 0.3683(5) 0.1408(8) 0.52263(19)
H25 H 0.3094 0.0873 0.5248
C26 C 0.4016(6) 0.1426(8) 0.4853(2)
H26 H 0.3649 0.0894 0.4622
C27 C 0.5158(7) 0.2230(11) 0.4383(2)
H27 H 0.487 0.3136 0.4231
H28 H 0.4916 0.1306 0.4227
H29 H 0.588 0.2275 0.4418
C28 C 0.6384(5) 0.3748(10) 0.5085(2)
H30 H 0.6868 0.2984 0.5033
H31 H 0.6652 0.4327 0.5337
H32 H 0.6241 0.4449 0.4847
N1 N -0.0544(4) -0.2242(6) 0.70516(15)
N2 N 0.0121(4) 0.2555(6) 0.47964(15)
N3 N 0.4166(4) -0.1398(7) 0.71269(16)
N4 N 0.4865(4) 0.2190(7) 0.48028(15)
O1 O 0.0977(3) 0.3890(5) 0.67401(12)
O2 O -0.0850(3) 0.4449(5) 0.63407(13)
O3 O 0.2664(4) 0.6905(7) 0.6129(2)
O4 O -0.0653(3) 0.1802(4) 0.67531(12)
O5 O 0.0892(3) 0.0904(5) 0.64325(12)
O6 O -0.2373(4) -0.0523(6) 0.59729(18)
O7 O 0.0690(3) 0.3504(5) 0.59089(11)
O8 O -0.0885(3) 0.1713(5) 0.58894(12)
O9 O 0.6187(3) 0.4354(5) 0.66736(13)
O10 O 0.4417(3) 0.2624(5) 0.68100(12)
O11 O 0.5771(3) 0.1285(5) 0.64537(13)
O12 O 0.4363(3) 0.5135(5) 0.63310(15)
O13 O 0.5664(3) 0.3659(4) 0.58639(12)
O14 O 0.3965(3) 0.2268(5) 0.59436(12)
K1 K 0.25605(9) 0.38405(18) 0.63650(5)
K2 K -0.25256(9) 0.24156(16) 0.62770(5)
V1 V 0.00448(6) 0.31307(10) 0.64029(3)
V2 V 0.51381(6) 0.36450(11) 0.64002(3)
H33 H 0.309(4) 0.678(8) 0.6348(12)
H34 H 0.272(5) 0.782(4) 0.6035(18)
H35 H -0.246(5) -0.057(8) 0.6229(9)
H36 H -0.182(3) -0.006(6) 0.5953(18)
O9_2 O -0.3813(3) 0.4354(5) 0.66736(13)
O11_2 O -0.4229(3) 0.1285(5) 0.64537(13)
O13_2 O -0.4336(3) 0.3659(4) 0.58639(12)
K2_2 K 0.74744(9) 0.24156(16) 0.62770(5)
O15 O 0.2387(4) 0.0072(6) 0.59789(17)
H37 H 0.278(4) 0.040(7) 0.6197(12)
H38 H 0.194(3) 0.063(6) 0.6063(18)
O16 O -0.2506(4) -0.3570(7) 0.6253(3)
H39 H -0.275(5) -0.372(8) 0.5995(10)
H40 H -0.194(3) -0.403(7) 0.6243(18)
loop_
_geom_bond_atom_site_label_1
_geom_bond_atom_site_label_2
_geom_bond_site_symmetry_1
_geom_bond_site_symmetry_2
C1 C2 1_555 1_555
C2 C3 1_555 1_555
C3 C4 1_555 1_555
C4 H1 1_555 1_555
C5 C4 1_555 1_555
H2 C5 1_555 1_555
C6 H3 1_555 1_555
H4 C6 1_555 1_555
H5 C6 1_555 1_555
C7 C1 1_555 1_555
H6 C7 1_555 1_555
H7 C7 1_555 1_555
H8 C7 1_555 1_555
C8 C9 1_555 1_555
C9 C10 1_555 1_555
C10 C11 1_555 1_555
C11 H9 1_555 1_555
C12 C11 1_555 1_555
H10 C12 1_555 1_555
C13 H11 1_555 1_555
H12 C13 1_555 1_555
H13 C13 1_555 1_555
C14 C8 1_555 1_555
H14 C14 1_555 1_555
H15 C14 1_555 1_555
H16 C14 1_555 1_555
C15 C16 1_555 1_555
C16 C17 1_555 1_555
C17 C18 1_555 1_555
C18 H17 1_555 1_555
C19 C18 1_555 1_555
H18 C19 1_555 1_555
C20 H19 1_555 1_555
H20 C20 1_555 1_555
H21 C20 1_555 1_555
C21 C15 1_555 1_555
H22 C21 1_555 1_555
H23 C21 1_555 1_555
H24 C21 1_555 1_555
C22 C23 1_555 1_555
C23 C24 1_555 1_555
C24 C25 1_555 1_555
C25 H25 1_555 1_555
C26 C25 1_555 1_555
H26 C26 1_555 1_555
C27 H27 1_555 1_555
H28 C27 1_555 1_555
H29 C27 1_555 1_555
C28 C22 1_555 1_555
H30 C28 1_555 1_555
H31 C28 1_555 1_555
H32 C28 1_555 1_555
N1 C1 1_555 1_555
N2 C8 1_555 1_555
N3 C15 1_555 1_555
N4 C22 1_555 1_555
O1 K1 1_555 1_555
O2 K2 1_555 1_555
O3 K1 1_555 1_555
O4 C2 1_555 1_555
O5 C3 1_555 1_555
O6 K2 1_555 1_555
O7 C9 1_555 1_555
O8 C10 1_555 1_555
O9 V2 1_555 1_555
O10 C16 1_555 1_555
O11 C17 1_555 1_555
O12 K1 1_555 1_555
O13 C23 1_555 1_555
O14 C24 1_555 1_555
K1 O7 1_555 1_555
K2 O4 1_555 1_555
V1 O1 1_555 1_555
V2 O10 1_555 1_555
H33 O3 1_555 1_555
H34 O3 1_555 1_555
H35 O6 1_555 1_555
H36 O6 1_555 1_555
O15 H37 1_555 1_555
H38 O15 1_555 1_555
O16 H39 1_555 1_555
H40 O16 1_555 1_555
O9_2 K2 1_555 1_555
O11_2 K2 1_555 1_555
O13_2 K2 1_555 1_555
K2_2 O9 1_555 1_555
C5 N1 1_555 1_555
C6 N1 1_555 1_555
C12 N2 1_555 1_555
C13 N2 1_555 1_555
C19 N3 1_555 1_555
C20 N3 1_555 1_555
C26 N4 1_555 1_555
C27 N4 1_555 1_555
O2 V1 1_555 1_555
O4 V1 1_555 1_555
O5 V1 1_555 1_555
O7 V1 1_555 1_555
O8 K2 1_555 1_555
O8 V1 1_555 1_555
O10 K1 1_555 1_555
O11 V2 1_555 1_555
O11 K2_2 1_555 1_555
O12 V2 1_555 1_555
O13 V2 1_555 1_555
O13 K2_2 1_555 1_555
O14 K1 1_555 1_555
O14 V2 1_555 1_555

#END
