
#######################################################################
#
#                 Cambridge Crystallographic Data Centre
#                                CCDC 
#
#######################################################################
#
# If this CIF has been generated from an entry in the Cambridge 
# Structural Database, then it will include bibliographic, chemical, 
# crystal, experimental, refinement or atomic coordinate data resulting 
# from the CCDC's data processing and validation procedures.
#
#######################################################################

data_KOPBIC
_symmetry_cell_setting           monoclinic
_symmetry_space_group_name_H-M   'P n'
_symmetry_Int_Tables_number      7
_space_group_name_Hall           'P -2yac'
loop_
_symmetry_equiv_pos_site_id
_symmetry_equiv_pos_as_xyz
1 x,y,z
2 1/2+x,-y,1/2+z
_cell_length_a                   18.1964(7)
_cell_length_b                   8.1426(3)
_cell_length_c                   3.9569(1)
_cell_angle_alpha                90
_cell_angle_beta                 124.043(2)
_cell_angle_gamma                90
_cell_volume                     485.8
loop_
_atom_site_label
_atom_site_type_symbol
_atom_site_fract_x
_atom_site_fract_y
_atom_site_fract_z
C1 C 0.12104(12) 0.48141(18) 0.98511(75)
C2 C 0.141790(90) 0.31584(15) 1.05204(50)
C3 C 0.07615(11) 0.20803(19) 0.78949(79)
N1 N -0.00505(15) 0.25567(18) 0.4857(13)
C4 C -0.02327(18) 0.41508(17) 0.4287(14)
C5 C 0.23085(12) 0.26058(18) 1.39172(79)
C6 C 0.03743(13) 0.53293(19) 0.66721(93)
O1 O 0.24841(32) 0.11560(22) 1.4268(14)
N2 N 0.28890(17) 0.37395(28) 1.6364(16)
H1 H -0.089424 0.453494 0.181259
H2 H 0.020865 0.662918 0.61018
H3 H 0.170769 0.572136 1.18369
H4 H 0.090962 0.077140 0.830731
H5 H 0.350465 0.34016 1.8719
H6 H 0.271745 0.494471 1.58809
Ca1 Ca -0.1436(11) 0.0737(10) 0.1229(44)
Cl1 Cl -0.0639(12) -0.1083(11) -0.1621(58)
Cl2 Cl -0.21837(92) 0.2517(14) -0.5670(51)
O1A O -0.25159(32) -0.11560(22) -0.0732(14)
Ca1_2 Ca -0.1436(11) 0.0737(10) -0.8771(44)
Ca1A Ca 0.3564(11) -0.0737(10) 1.6229(44)
Cl1_2 Cl -0.0639(12) -0.1083(11) 0.8379(58)
Cl2_2 Cl -0.21837(92) 0.2517(14) 0.4330(51)
loop_
_geom_bond_atom_site_label_1
_geom_bond_atom_site_label_2
_geom_bond_site_symmetry_1
_geom_bond_site_symmetry_2
C1 C2 1_555 1_555
C2 C3 1_555 1_555
C3 N1 1_555 1_555
N1 C4 1_555 1_555
C4 C6 1_555 1_555
C5 C2 1_555 1_555
C6 C1 1_555 1_555
O1 C5 1_555 1_555
N2 C5 1_555 1_555
H1 C4 1_555 1_555
H2 C6 1_555 1_555
H3 C1 1_555 1_555
H4 C3 1_555 1_555
H5 N2 1_555 1_555
H6 N2 1_555 1_555
Ca1 N1 1_555 1_555
Cl1 Ca1 1_555 1_555
Cl2 Ca1 1_555 1_555
O1A Ca1 1_555 1_555
Ca1_2 Cl1 1_555 1_555
Ca1A O1 1_555 1_555
Cl1_2 Ca1 1_555 1_555
Cl2_2 Ca1 1_555 1_555
Cl2 Ca1_2 1_555 1_555

#END
