
#######################################################################
#
#                 Cambridge Crystallographic Data Centre
#                                CCDC 
#
#######################################################################
#
# If this CIF has been generated from an entry in the Cambridge 
# Structural Database, then it will include bibliographic, chemical, 
# crystal, experimental, refinement or atomic coordinate data resulting 
# from the CCDC's data processing and validation procedures.
#
#######################################################################

data_KOPFIG
_symmetry_cell_setting           monoclinic
_symmetry_space_group_name_H-M   'C 2/c'
_symmetry_Int_Tables_number      15
_space_group_name_Hall           '-C 2yn'
loop_
_symmetry_equiv_pos_site_id
_symmetry_equiv_pos_as_xyz
1 x,y,z
2 -x,y,1/2-z
3 1/2+x,1/2+y,z
4 1/2-x,1/2+y,1/2-z
5 -x,-y,-z
6 x,-y,1/2+z
7 1/2-x,1/2-y,-z
8 1/2+x,1/2-y,1/2+z
_cell_length_a                   25.985(5)
_cell_length_b                   13.713(3)
_cell_length_c                   24.798(5)
_cell_angle_alpha                90
_cell_angle_beta                 112.39(3)
_cell_angle_gamma                90
_cell_volume                     8170.18
loop_
_atom_site_label
_atom_site_type_symbol
_atom_site_fract_x
_atom_site_fract_y
_atom_site_fract_z
Cu1 Cu 0.23432(3) 0.86007(6) 0.44829(3)
Cu2 Cu 0.19568(3) 0.79624(5) 0.25558(3)
Cu3 Cu 0.25149(3) 0.74716(6) 0.10348(3)
O1 O 0.2958(2) 0.6923(4) 0.06430(19)
O2 O 0.18412(18) 0.7823(3) 0.46969(18)
O3 O 0.16039(19) 1.0106(3) 0.4167(2)
O4 O 0.28882(18) 0.9166(3) 0.41872(18)
O5 O 0.14018(18) 0.7569(3) 0.28506(18)
O6 O 0.13944(17) 0.8148(3) 0.17797(18)
O7 O 0.30467(17) 0.6999(3) 0.17833(17)
O8 O 0.18979(17) 0.7745(4) 0.03330(18)
O9 O 0.29260(19) 1.0812(3) 0.6122(2)
N1 N 0.2070(2) 0.8041(4) 0.3716(2)
N2 N 0.0708(4) 0.9771(6) 0.3874(5)
N3 N 0.2367(2) 0.8310(4) 0.3368(2)
N4 N 0.24244(19) 0.7698(3) 0.2113(2)
N5 N 0.2120(2) 0.7840(4) 0.1508(2)
N6 N 0.2685(2) 0.9263(4) 0.5269(2)
H1 H 0.289(2) 0.880(3) 0.550(2)
C1 C 0.1373(3) 0.7434(4) 0.4334(3)
C2 C 0.1132(4) 0.9976(6) 0.3772(5)
C3 C 0.0992(3) 0.7038(5) 0.4559(3)
H2 H 0.1091 0.7037 0.4970
C4 C 0.0755(4) 0.9584(7) 0.4455(4)
H3 H 0.0817 0.8885 0.4538
H4 H 0.0412 0.9784 0.4500
H5 H 0.1070 0.9952 0.4727
C5 C 0.0488(3) 0.6657(5) 0.4213(3)
H6 H 0.0247 0.6410 0.4387
C6 C 0.1078(4) 1.0071(7) 0.3109(4)
H7 H 0.1445 1.0208 0.3100
H8 H 0.0822 1.0605 0.2918
H9 H 0.0935 0.9459 0.2902
C7 C 0.0325(3) 0.6624(5) 0.3612(3)
H10 H -0.0029 0.6373 0.3371
C8 C 0.0154(4) 0.9562(9) 0.3366(6)
H11 H -0.0155 0.9777 0.3471
H12 H 0.0121 0.8860 0.3285
H13 H 0.0143 0.9915 0.3018
C9 C 0.0692(3) 0.6969(5) 0.3372(3)
H14 H 0.0586 0.6936 0.2961
C10 C 0.1212(3) 0.7363(4) 0.3708(3)
C11 C 0.1576(3) 0.7665(5) 0.3409(3)
C12 C 0.2782(3) 0.8897(5) 0.3660(3)
C13 C 0.3141(3) 0.9275(5) 0.3361(3)
C14 C 0.3178(3) 1.0279(5) 0.3303(3)
H15 H 0.2992 1.0704 0.3473
C15 C 0.3483(3) 1.0666(5) 0.3000(3)
H16 H 0.3512 1.1353 0.2969
C16 C 0.3745(3) 1.0053(5) 0.2744(3)
H17 H 0.3935 1.0315 0.2517
C17 C 0.3730(3) 0.9042(5) 0.2819(3)
H18 H 0.3923 0.8622 0.2655
C18 C 0.3432(2) 0.8649(4) 0.3132(3)
C19 C 0.3472(2) 0.7576(4) 0.3250(3)
C20 C 0.3785(3) 0.7238(5) 0.3804(3)
H19 H 0.3944 0.7692 0.4113
C21 C 0.3869(3) 0.6242(5) 0.3917(3)
H20 H 0.4081 0.6017 0.4300
C22 C 0.3639(3) 0.5578(5) 0.3463(3)
H21 H 0.3697 0.4898 0.3535
C23 C 0.3329(3) 0.5908(4) 0.2909(3)
H22 H 0.3176 0.5453 0.2599
C24 C 0.3236(2) 0.6904(4) 0.2798(2)
C25 C 0.2889(2) 0.7228(4) 0.2198(3)
C26 C 0.1587(3) 0.8028(4) 0.1378(3)
C27 C 0.1211(3) 0.8066(5) 0.0763(3)
C28 C 0.0639(3) 0.8199(5) 0.0652(3)
H23 H 0.0528 0.8305 0.0971
C29 C 0.0239(3) 0.8179(5) 0.0096(3)
H24 H -0.0143 0.8249 0.0031
C30 C 0.0406(3) 0.8056(5) -0.0373(3)
H25 H 0.0136 0.8065 -0.0761
C31 C 0.0954(3) 0.7923(5) -0.0279(3)
H26 H 0.1055 0.7838 -0.0606
C32 C 0.1374(3) 0.7905(5) 0.0280(3)
C33 C 0.3041(3) 1.0101(5) 0.5276(3)
H27 H 0.2813 1.0609 0.5008
H28 H 0.3330 0.9889 0.5132
C34 C 0.3320(3) 1.0533(6) 0.5881(3)
H29 H 0.3579 1.0047 0.6140
H30 H 0.3541 1.1110 0.5861
C35 C 0.2599(3) 0.9988(5) 0.6151(3)
H31 H 0.2327 1.0192 0.6321
H32 H 0.2845 0.9487 0.6410
C36 C 0.2293(3) 0.9554(5) 0.5553(3)
H33 H 0.2081 0.8974 0.5590
H34 H 0.2023 1.0037 0.5305
H35 H 0.307(3) 0.635(2) 0.073(3)
H36 H 0.300(3) 0.703(4) 0.0329(17)
Cu3E Cu 0.25149(3) 1.25284(6) 0.60348(3)
O9E O 0.29260(19) 0.9188(3) 0.1122(2)
loop_
_geom_bond_atom_site_label_1
_geom_bond_atom_site_label_2
_geom_bond_site_symmetry_1
_geom_bond_site_symmetry_2
Cu1 O2 1_555 1_555
Cu2 O5 1_555 1_555
Cu3 O1 1_555 1_555
O1 H35 1_555 1_555
O2 C1 1_555 1_555
O3 Cu1 1_555 1_555
O4 Cu1 1_555 1_555
O5 C11 1_555 1_555
O6 Cu2 1_555 1_555
O7 Cu3 1_555 1_555
O8 Cu3 1_555 1_555
O9 C34 1_555 1_555
N1 Cu1 1_555 1_555
N2 C2 1_555 1_555
N3 Cu2 1_555 1_555
N4 Cu2 1_555 1_555
N5 Cu3 1_555 1_555
N6 Cu1 1_555 1_555
H1 N6 1_555 1_555
C1 C3 1_555 1_555
C2 O3 1_555 1_555
C3 H2 1_555 1_555
C4 N2 1_555 1_555
H3 C4 1_555 1_555
H4 C4 1_555 1_555
H5 C4 1_555 1_555
C5 C3 1_555 1_555
H6 C5 1_555 1_555
C6 C2 1_555 1_555
H7 C6 1_555 1_555
H8 C6 1_555 1_555
H9 C6 1_555 1_555
C7 C5 1_555 1_555
H10 C7 1_555 1_555
C8 N2 1_555 1_555
H11 C8 1_555 1_555
H12 C8 1_555 1_555
H13 C8 1_555 1_555
C9 C7 1_555 1_555
H14 C9 1_555 1_555
C10 C1 1_555 1_555
C11 N1 1_555 1_555
C12 O4 1_555 1_555
C13 C12 1_555 1_555
C14 C13 1_555 1_555
H15 C14 1_555 1_555
C15 C14 1_555 1_555
H16 C15 1_555 1_555
C16 C15 1_555 1_555
H17 C16 1_555 1_555
C17 C16 1_555 1_555
H18 C17 1_555 1_555
C18 C13 1_555 1_555
C19 C18 1_555 1_555
C20 C19 1_555 1_555
H19 C20 1_555 1_555
C21 C20 1_555 1_555
H20 C21 1_555 1_555
C22 C21 1_555 1_555
H21 C22 1_555 1_555
C23 C22 1_555 1_555
H22 C23 1_555 1_555
C24 C19 1_555 1_555
C25 O7 1_555 1_555
C26 O6 1_555 1_555
C27 C26 1_555 1_555
C28 C27 1_555 1_555
H23 C28 1_555 1_555
C29 C28 1_555 1_555
H24 C29 1_555 1_555
C30 C29 1_555 1_555
H25 C30 1_555 1_555
C31 C30 1_555 1_555
H26 C31 1_555 1_555
C32 O8 1_555 1_555
C33 N6 1_555 1_555
H27 C33 1_555 1_555
H28 C33 1_555 1_555
C34 C33 1_555 1_555
H29 C34 1_555 1_555
H30 C34 1_555 1_555
C35 O9 1_555 1_555
H31 C35 1_555 1_555
H32 C35 1_555 1_555
C36 N6 1_555 1_555
H33 C36 1_555 1_555
H34 C36 1_555 1_555
H36 O1 1_555 1_555
Cu3E O9 1_555 1_555
O9E Cu3 1_555 1_555
N1 N3 1_555 1_555
N3 C12 1_555 1_555
N4 N5 1_555 1_555
N4 C25 1_555 1_555
N5 C26 1_555 1_555
C9 C10 1_555 1_555
C10 C11 1_555 1_555
C17 C18 1_555 1_555
C23 C24 1_555 1_555
C24 C25 1_555 1_555
C27 C32 1_555 1_555
C31 C32 1_555 1_555
C35 C36 1_555 1_555

#END
