
#######################################################################
#
#                 Cambridge Crystallographic Data Centre
#                                CCDC 
#
#######################################################################
#
# If this CIF has been generated from an entry in the Cambridge 
# Structural Database, then it will include bibliographic, chemical, 
# crystal, experimental, refinement or atomic coordinate data resulting 
# from the CCDC's data processing and validation procedures.
#
#######################################################################

data_KOPHEE
_symmetry_cell_setting           monoclinic
_symmetry_space_group_name_H-M   'C 2/c'
_symmetry_Int_Tables_number      15
_space_group_name_Hall           '-C 2yn'
loop_
_symmetry_equiv_pos_site_id
_symmetry_equiv_pos_as_xyz
1 x,y,z
2 -x,y,1/2-z
3 1/2+x,1/2+y,z
4 1/2-x,1/2+y,1/2-z
5 -x,-y,-z
6 x,-y,1/2+z
7 1/2-x,1/2-y,-z
8 1/2+x,1/2-y,1/2+z
_cell_length_a                   12.899(5)
_cell_length_b                   9.8587(17)
_cell_length_c                   7.0513(10)
_cell_angle_alpha                90
_cell_angle_beta                 111.41(3)
_cell_angle_gamma                90
_cell_volume                     834.816
loop_
_atom_site_label
_atom_site_type_symbol
_atom_site_fract_x
_atom_site_fract_y
_atom_site_fract_z
Co1 Co -0.25 0.250 0.000
V1 V -0.39513(3) 0.52352(5) -0.30898(7)
O1 O -0.30298(15) 0.4036(2) -0.1979(3)
O2 O -0.32975(16) 0.3365(2) 0.1779(3)
O3 O -0.44053(15) 0.4564(2) -0.5794(3)
N1 N -0.40011(19) 0.1269(3) -0.1595(4)
C1 C -0.4017(3) -0.0117(4) -0.1598(5)
H1 H -0.3354 -0.0589 -0.0982
C2 C -0.5 0.1843(5) -0.25
H2 H -0.5 0.2787 -0.25
C3 C -0.5 -0.0840(5) -0.25
H3 H -0.5 -0.1783 -0.25
N1A N -0.59989(19) 0.1269(3) -0.3405(4)
C1A C -0.5983(3) -0.0117(4) -0.3402(5)
H1A H -0.6646 -0.0589 -0.4018
V1F V -0.10487(3) -0.02352(5) 0.30898(7)
O1F O -0.19702(15) 0.0964(2) 0.1979(3)
O3F O -0.05947(15) 0.0436(2) 0.5794(3)
O2F O -0.17025(16) 0.1635(2) -0.1779(3)
Co1A Co -0.75 0.250 -0.500
V1B V 0.10487(3) 0.02352(5) 0.69102(7)
V1C V -0.10487(3) 0.02352(5) -0.19102(7)
V1C_2 V -0.10487(3) 0.02352(5) 0.80898(7)
V1D V -0.60487(3) 0.47648(5) -0.69102(7)
V1E V -0.39513(3) 0.47648(5) -0.80898(7)
V1E_2 V -0.39513(3) 0.47648(5) 0.19102(7)
O2C O -0.17025(16) -0.1635(2) 0.3221(3)
O2E O -0.32975(16) 0.6635(2) -0.3221(3)
O3B O 0.05947(15) -0.0436(2) 0.4206(3)
O3C O -0.05947(15) -0.0436(2) 0.0794(3)
O3D O -0.55947(15) 0.5436(2) -0.4206(3)
O3E O -0.44053(15) 0.5436(2) -0.0794(3)
N1F N -0.09989(19) 0.3731(3) 0.1595(4)
loop_
_geom_bond_atom_site_label_1
_geom_bond_atom_site_label_2
_geom_bond_site_symmetry_1
_geom_bond_site_symmetry_2
Co1 O1 1_555 1_555
V1 O1 1_555 1_555
O2 Co1 1_555 1_555
O3 V1 1_555 1_555
N1 Co1 1_555 1_555
C1 N1 1_555 1_555
H1 C1 1_555 1_555
C2 N1 1_555 1_555
H2 C2 1_555 1_555
C3 C1 1_555 1_555
H3 C3 1_555 1_555
N1A C2 1_555 1_555
C1A C3 1_555 1_555
H1A C1A 1_555 1_555
V1F O1F 1_555 1_555
O1F Co1 1_555 1_555
O3F V1F 1_555 1_555
O2F Co1 1_555 1_555
Co1A N1A 1_555 1_555
V1B O3F 1_555 1_555
V1C O2F 1_555 1_555
V1C_2 O3F 1_555 1_555
V1D O3 1_555 1_555
V1E O3 1_555 1_555
V1E_2 O2 1_555 1_555
O2C V1F 1_555 1_555
O2E V1 1_555 1_555
O3B V1F 1_555 1_555
O3C V1F 1_555 1_555
O3D V1 1_555 1_555
O3E V1 1_555 1_555
N1F Co1 1_555 1_555
N1A C1A 1_555 1_555
V1B O3B 1_555 1_555
V1C O3C 1_555 1_555
V1D O3D 1_555 1_555
V1E_2 O3E 1_555 1_555

#END
