
#######################################################################
#
#                 Cambridge Crystallographic Data Centre
#                                CCDC 
#
#######################################################################
#
# If this CIF has been generated from an entry in the Cambridge 
# Structural Database, then it will include bibliographic, chemical, 
# crystal, experimental, refinement or atomic coordinate data resulting 
# from the CCDC's data processing and validation procedures.
#
#######################################################################

data_KOPHAY
_symmetry_cell_setting           orthorhombic
_symmetry_space_group_name_H-M   'P 21 21 21'
_symmetry_Int_Tables_number      19
_space_group_name_Hall           'P 2ac 2ab'
loop_
_symmetry_equiv_pos_site_id
_symmetry_equiv_pos_as_xyz
1 x,y,z
2 1/2-x,-y,1/2+z
3 1/2+x,1/2-y,-z
4 -x,1/2+y,1/2-z
_cell_length_a                   6.565(2)
_cell_length_b                   8.537(2)
_cell_length_c                   13.136(3)
_cell_angle_alpha                90
_cell_angle_beta                 90
_cell_angle_gamma                90
_cell_volume                     736.212
loop_
_atom_site_label
_atom_site_type_symbol
_atom_site_fract_x
_atom_site_fract_y
_atom_site_fract_z
In1 In 0.2523(3) -0.2502(2) 0.7551
N1 N 0.2783(20) -0.5227(14) 0.7476(10)
C1 C 0.2004(22) -0.6277(21) 0.8213(12)
C2 C 0.2531(33) -0.7805(15) 0.7902(11)
C3 C 0.6425(20) -0.2708(21) 0.8080(12)
C4 C 0.3708(25) -0.6086(24) 0.6714(13)
C5 C 0.1429(24) -0.2231(35) 0.9050(13)
C6 C 0.2720(41) -0.3229(20) 0.6017(12)
C3C C 0.3575(20) -0.7708(21) 0.6920(12)
C2C C 0.7469(33) -0.2805(15) 0.7098(11)
C4C C 0.6292(25) -0.1086(24) 0.8286(13)
In1C In 0.7477(3) -0.7502(2) 0.7449
C1C C 0.7996(22) -0.1277(21) 0.6787(12)
N1C N 0.7217(20) -0.0227(14) 0.7524(10)
N1C_2 N 0.7217(20) -1.0227(14) 0.7524(10)
C5C C 0.8571(24) -0.7231(35) 0.5950(13)
C6C C 0.7280(41) -0.8229(20) 0.8983(12)
In1C_2 In 0.7477(3) 0.2498(2) 0.7449
loop_
_geom_bond_atom_site_label_1
_geom_bond_atom_site_label_2
_geom_bond_site_symmetry_1
_geom_bond_site_symmetry_2
In1 N1 1_555 1_555
N1 C1 1_555 1_555
C1 C2 1_555 1_555
C2 C3C 1_555 1_555
C3 In1 1_555 1_555
C4 N1 1_555 1_555
C5 In1 1_555 1_555
C6 In1 1_555 1_555
C3C C4 1_555 1_555
C2C C3 1_555 1_555
C4C C3 1_555 1_555
In1C C3C 1_555 1_555
C1C C2C 1_555 1_555
N1C C4C 1_555 1_555
N1C_2 In1C 1_555 1_555
C5C In1C 1_555 1_555
C6C In1C 1_555 1_555
In1C_2 N1C 1_555 1_555
C1C N1C 1_555 1_555

#END
