
#######################################################################
#
#                 Cambridge Crystallographic Data Centre
#                                CCDC 
#
#######################################################################
#
# If this CIF has been generated from an entry in the Cambridge 
# Structural Database, then it will include bibliographic, chemical, 
# crystal, experimental, refinement or atomic coordinate data resulting 
# from the CCDC's data processing and validation procedures.
#
#######################################################################

data_KOPJIK
_symmetry_cell_setting           monoclinic
_symmetry_space_group_name_H-M   'P 21/c'
_symmetry_Int_Tables_number      14
_space_group_name_Hall           '-P 2ybc'
loop_
_symmetry_equiv_pos_site_id
_symmetry_equiv_pos_as_xyz
1 x,y,z
2 -x,1/2+y,1/2-z
3 -x,-y,-z
4 x,1/2-y,1/2+z
_cell_length_a                   9.6951(19)
_cell_length_b                   21.832(4)
_cell_length_c                   19.246(4)
_cell_angle_alpha                90
_cell_angle_beta                 97.76(3)
_cell_angle_gamma                90
_cell_volume                     4036.37
loop_
_atom_site_label
_atom_site_type_symbol
_atom_site_fract_x
_atom_site_fract_y
_atom_site_fract_z
Cu1 Cu 0.43654(8) 0.52043(4) 0.56292(3)
Cu2 Cu 0.26931(8) 0.45964(4) 0.76357(3)
Cu3 Cu 0.16874(8) 0.50089(4) 0.98426(3)
N1 N 0.3982(5) 0.4780(2) 0.6436(2)
N2 N 0.2025(7) 0.5238(3) 1.1960(3)
N3 N 0.3158(6) 0.5099(2) 0.6863(2)
N4 N 0.2487(5) 0.5039(2) 0.8497(2)
N5 N 0.1674(5) 0.4709(2) 0.8920(2)
O1 O 0.2243(5) 0.5281(2) 1.0811(2)
O2 O 0.5391(4) 0.45130(18) 0.53217(19)
O3 O 0.6325(6) 0.5752(3) 0.6082(3)
H1 H 0.627(9) 0.615(4) 0.611(4)
H2 H 0.694(9) 0.578(4) 0.573(4)
O4 O 0.3026(4) 0.5786(2) 0.59616(19)
O5 O 0.3570(5) 0.39784(19) 0.7139(2)
O6 O 0.1595(5) 0.4005(2) 0.8047(2)
O7 O 0.2954(4) 0.5599(2) 0.9507(2)
O8 O 0.0528(5) 0.4367(2) 1.0100(2)
C1 C 0.5488(6) 0.3944(3) 0.5600(3)
C2 C 0.6168(8) 0.3485(3) 0.5268(4)
H3 H 0.6554 0.3581 0.4865
C3 C 0.6279(9) 0.2897(4) 0.5522(4)
H4 H 0.6738 0.2602 0.5291
C4 C 0.5713(9) 0.2738(4) 0.6121(4)
H5 H 0.5790 0.2341 0.6296
C5 C 0.5046(7) 0.3175(3) 0.6443(3)
H6 H 0.4660 0.3066 0.6842
C6 C 0.4903(6) 0.3774(3) 0.6215(3)
C7 C 0.4121(6) 0.4198(3) 0.6611(3)
C8 C 0.2719(6) 0.5620(3) 0.6555(3)
C9 C 0.1802(6) 0.6013(3) 0.6931(3)
C10 C 0.0463(7) 0.6139(3) 0.6615(3)
H7 H 0.0162 0.5985 0.6170
C11 C -0.0431(7) 0.6488(3) 0.6949(4)
H8 H -0.1329 0.6570 0.6733
C12 C 0.0036(7) 0.6717(3) 0.7615(4)
H9 H -0.0558 0.6948 0.7851
C13 C 0.1373(6) 0.6601(3) 0.7924(3)
H10 H 0.1677 0.6762 0.8365
C14 C 0.2280(6) 0.6247(3) 0.7592(3)
C15 C 0.3747(6) 0.6185(3) 0.7904(3)
C16 C 0.4778(6) 0.6488(3) 0.7604(3)
H11 H 0.4542 0.6689 0.7179
C17 C 0.6147(7) 0.6498(3) 0.7921(4)
H12 H 0.6823 0.6698 0.7706
C18 C 0.6503(7) 0.6207(3) 0.8562(4)
H13 H 0.7415 0.6222 0.8786
C19 C 0.5501(6) 0.5894(3) 0.8867(3)
H14 H 0.5743 0.5695 0.9294
C20 C 0.4118(6) 0.5874(3) 0.8535(3)
C21 C 0.3121(6) 0.5492(3) 0.8866(3)
C22 C 0.1275(7) 0.4173(3) 0.8650(3)
C23 C 0.0551(7) 0.3739(3) 0.9054(4)
C24 C 0.0173(10) 0.3178(4) 0.8745(5)
H15 H 0.0370 0.3103 0.8293
C25 C -0.0476(12) 0.2732(4) 0.9077(6)
H16 H -0.0763 0.2368 0.8852
C26 C -0.0699(12) 0.2845(4) 0.9782(6)
H17 H -0.1082 0.2540 1.0034
C27 C -0.0362(10) 0.3388(4) 1.0088(5)
H18 H -0.0556 0.3453 1.0542
C28 C 0.0267(7) 0.3860(3) 0.9752(3)
C29 C 0.1695(7) 0.5067(3) 1.1304(3)
C30 C 0.1364(10) 0.4966(5) 1.2516(4)
H19 H 0.0958 0.5283 1.2769
H20 H 0.2046 0.4748 1.2830
H21 H 0.0650 0.4688 1.2319
C31 C 0.3067(15) 0.5687(8) 1.2139(5)
H22 H 0.3659 0.5709 1.1778
H23 H 0.3613 0.5579 1.2576
H24 H 0.2636 0.6079 1.2185
H25 H 0.1020 0.4778 1.1206
Cu1B Cu 0.56346(8) 0.47957(4) 0.43708(3)
Cu3B Cu -0.16874(8) 0.49911(4) 1.01574(3)
O2B O 0.4609(4) 0.54870(18) 0.46783(19)
O8B O -0.0528(5) 0.5633(2) 0.9900(2)
N6 N -0.4410(12) 0.7964(4) 0.5895(5)
O9 O -0.3699(8) 0.7038(3) 0.6294(4)
C32 C -0.3755(15) 0.7478(9) 0.5920(8)
H26 H -0.3179 0.7446 0.5573
C33 C -0.535(3) 0.7952(10) 0.6436(11)
H27 H -0.5967 0.7608 0.6356
H28 H -0.5881 0.8323 0.6414
H29 H -0.4809 0.7915 0.6891
C34 C -0.4555(17) 0.8500(6) 0.5530(9)
H30 H -0.3869 0.8520 0.5215
H31 H -0.4428 0.8838 0.5851
H32 H -0.5468 0.8520 0.5267
N7 N -0.0735(13) 0.6196(7) 0.4269(6)
O10 O -0.1763(8) 0.5766(5) 0.5123(4)
C35 C -0.1638(14) 0.6205(9) 0.4713(7)
H33 H -0.2207 0.6546 0.4727
C36 C 0.017(2) 0.5684(9) 0.4211(8)
H34 H 0.1108 0.5799 0.4378
H35 H 0.0100 0.5561 0.3729
H36 H -0.0107 0.5350 0.4487
C37 C -0.067(2) 0.6699(9) 0.3745(9)
H37 H -0.0962 0.6544 0.3281
H38 H 0.0262 0.6851 0.3776
H39 H -0.1284 0.7026 0.3841
loop_
_geom_bond_atom_site_label_1
_geom_bond_atom_site_label_2
_geom_bond_site_symmetry_1
_geom_bond_site_symmetry_2
Cu1 N1 1_555 1_555
Cu2 N3 1_555 1_555
Cu3 N5 1_555 1_555
N1 N3 1_555 1_555
N2 C29 1_555 1_555
N3 C8 1_555 1_555
N4 Cu2 1_555 1_555
N5 N4 1_555 1_555
O1 Cu3 1_555 1_555
O2 Cu1 1_555 1_555
O3 Cu1 1_555 1_555
H1 O3 1_555 1_555
H2 O3 1_555 1_555
O4 Cu1 1_555 1_555
O5 Cu2 1_555 1_555
O6 Cu2 1_555 1_555
O7 Cu3 1_555 1_555
O8 Cu3 1_555 1_555
C1 O2 1_555 1_555
C2 C1 1_555 1_555
H3 C2 1_555 1_555
C3 C2 1_555 1_555
H4 C3 1_555 1_555
C4 C3 1_555 1_555
H5 C4 1_555 1_555
C5 C4 1_555 1_555
H6 C5 1_555 1_555
C6 C1 1_555 1_555
C7 N1 1_555 1_555
C8 O4 1_555 1_555
C9 C8 1_555 1_555
C10 C9 1_555 1_555
H7 C10 1_555 1_555
C11 C10 1_555 1_555
H8 C11 1_555 1_555
C12 C11 1_555 1_555
H9 C12 1_555 1_555
C13 C12 1_555 1_555
H10 C13 1_555 1_555
C14 C9 1_555 1_555
C15 C14 1_555 1_555
C16 C15 1_555 1_555
H11 C16 1_555 1_555
C17 C16 1_555 1_555
H12 C17 1_555 1_555
C18 C17 1_555 1_555
H13 C18 1_555 1_555
C19 C18 1_555 1_555
H14 C19 1_555 1_555
C20 C15 1_555 1_555
C21 N4 1_555 1_555
C22 N5 1_555 1_555
C23 C22 1_555 1_555
C24 C23 1_555 1_555
H15 C24 1_555 1_555
C25 C24 1_555 1_555
H16 C25 1_555 1_555
C26 C25 1_555 1_555
H17 C26 1_555 1_555
C27 C26 1_555 1_555
H18 C27 1_555 1_555
C28 O8 1_555 1_555
C29 O1 1_555 1_555
C30 N2 1_555 1_555
H19 C30 1_555 1_555
H20 C30 1_555 1_555
H21 C30 1_555 1_555
C31 N2 1_555 1_555
H22 C31 1_555 1_555
H23 C31 1_555 1_555
H24 C31 1_555 1_555
H25 C29 1_555 1_555
N6 C32 1_555 1_555
O9 C32 1_555 1_555
C32 H26 1_555 1_555
C33 N6 1_555 1_555
H27 C33 1_555 1_555
H28 C33 1_555 1_555
H29 C33 1_555 1_555
C34 N6 1_555 1_555
H30 C34 1_555 1_555
H31 C34 1_555 1_555
H32 C34 1_555 1_555
N7 C35 1_555 1_555
O10 C35 1_555 1_555
C35 H33 1_555 1_555
C36 N7 1_555 1_555
H34 C36 1_555 1_555
H35 C36 1_555 1_555
H36 C36 1_555 1_555
C37 N7 1_555 1_555
H37 C37 1_555 1_555
H38 C37 1_555 1_555
H39 C37 1_555 1_555
Cu1B O2 1_555 1_555
Cu3B O8 1_555 1_555
O2B Cu1 1_555 1_555
O8B Cu3 1_555 1_555
O5 C7 1_555 1_555
O6 C22 1_555 1_555
O7 C21 1_555 1_555
C5 C6 1_555 1_555
C6 C7 1_555 1_555
C13 C14 1_555 1_555
C19 C20 1_555 1_555
C20 C21 1_555 1_555
C23 C28 1_555 1_555
C27 C28 1_555 1_555
Cu1B O2B 1_555 1_555
Cu3B O8B 1_555 1_555

#END
