
#######################################################################
#
#                 Cambridge Crystallographic Data Centre
#                                CCDC 
#
#######################################################################
#
# If this CIF has been generated from an entry in the Cambridge 
# Structural Database, then it will include bibliographic, chemical, 
# crystal, experimental, refinement or atomic coordinate data resulting 
# from the CCDC's data processing and validation procedures.
#
#######################################################################

data_KOPKIL
_symmetry_cell_setting           orthorhombic
_symmetry_space_group_name_H-M   'P 21 21 21'
_symmetry_Int_Tables_number      19
_space_group_name_Hall           'P 2ac 2ab'
loop_
_symmetry_equiv_pos_site_id
_symmetry_equiv_pos_as_xyz
1 x,y,z
2 1/2-x,-y,1/2+z
3 1/2+x,1/2-y,-z
4 -x,1/2+y,1/2-z
_cell_length_a                   11.4770(11)
_cell_length_b                   17.8350(16)
_cell_length_c                   17.8350(16)
_cell_angle_alpha                90
_cell_angle_beta                 90
_cell_angle_gamma                90
_cell_volume                     3650.69
loop_
_atom_site_label
_atom_site_type_symbol
_atom_site_fract_x
_atom_site_fract_y
_atom_site_fract_z
Co1 Co 0.85626(15) 0.19172(11) 0.76053(10)
Co2 Co 0.95238(16) 0.01529(10) 0.47098(11)
V1 V 0.88751(18) 0.20517(12) 0.54896(13)
V2 V 0.60714(17) 0.19237(13) 0.52980(14)
V3 V 0.96756(18) -0.19317(13) 0.44472(12)
V4 V 0.81258(17) 0.20427(12) 0.96861(13)
O1 O 0.7500(9) 0.2292(5) 0.5056(5)
O2 O 0.9388(8) 0.1245(5) 0.5127(5)
O3 O 0.8673(7) 0.1958(5) 0.6400(5)
O4 O 0.9947(8) 0.2778(5) 0.5351(6)
O5 O 0.5739(9) 0.2175(6) 0.6129(5)
O6 O 0.6131(8) 0.0995(5) 0.5271(6)
O7 O 0.8382(8) -0.2358(5) 0.4802(5)
O8 O 0.9558(8) -0.1005(5) 0.4505(5)
O9 O 0.9877(8) -0.2171(6) 0.3578(5)
O10 O 1.0902(8) -0.2206(5) 0.4999(5)
O11 O 0.8375(8) 0.1867(5) 0.8788(5)
O12 O 0.8321(8) 0.1288(5) 1.0189(6)
O13 O 0.6731(7) 0.1782(5) 0.7493(5)
H1 H 0.6439 0.1900 0.7072
H2 H 0.6246 0.1898 0.7834
O14 O 0.7916(8) 0.0007(5) 0.5085(5)
H3 H 0.7400 0.0345 0.5139
H4 H 0.7584 -0.0418 0.5112
N1 N 1.2299(10) 0.1982(7) 0.7404(7)
N2 N 1.0370(10) 0.2013(7) 0.7688(7)
N3 N 0.8668(11) -0.0475(7) 0.7885(8)
N4 N 0.8704(10) 0.0733(7) 0.7585(7)
N5 N 0.8000(11) 0.4311(7) 0.7332(8)
N6 N 0.8323(10) 0.3109(8) 0.7653(7)
N7 N 1.3100(11) -0.0229(7) 0.5031(7)
N8 N 1.1252(10) 0.0137(6) 0.5003(7)
N9 N 0.9458(11) 0.0341(6) 0.2404(7)
N10 N 0.9539(11) 0.0434(6) 0.3631(7)
C1 C 1.1202(12) 0.1889(8) 0.7189(9)
H5 H 1.1023 0.1742 0.6702
C2 C 1.1089(13) 0.2212(8) 0.8286(9)
H6 H 1.0794 0.2344 0.8753
C3 C 1.2225(13) 0.2200(8) 0.8141(9)
H7 H 1.2834 0.2313 0.8466
C4 C 1.3353(13) 0.1866(10) 0.6948(9)
H8 H 1.4011 0.2086 0.7197
H9 H 1.3252 0.2098 0.6467
H10 H 1.3484 0.1338 0.6883
C5 C 0.8662(13) 0.0246(9) 0.8125(9)
H11 H 0.8631 0.0379 0.8628
C6 C 0.8773(14) 0.0283(9) 0.6956(10)
H12 H 0.8817 0.0462 0.6467
C7 C 0.8767(15) -0.0447(9) 0.7143(10)
H13 H 0.8822 -0.0853 0.6817
C8 C 0.8658(17) -0.1163(9) 0.8335(10)
H14 H 0.9197 -0.1518 0.8126
H15 H 0.7889 -0.1374 0.8333
H16 H 0.8883 -0.1048 0.8841
C9 C 0.8093(13) 0.3576(8) 0.7096(10)
H17 H 0.8005 0.3426 0.6600
C10 C 0.8380(15) 0.3582(9) 0.8257(10)
H18 H 0.8554 0.3429 0.8743
C11 C 0.8146(15) 0.4310(10) 0.8057(10)
H19 H 0.8102 0.4722 0.8376
C12 C 0.7782(17) 0.4974(9) 0.6874(10)
H20 H 0.7204 0.5281 0.7113
H21 H 0.7506 0.4822 0.6389
H22 H 0.8491 0.5254 0.6819
C13 C 1.1975(13) -0.0450(8) 0.4983(8)
H23 H 1.1735 -0.0947 0.4942
C14 C 1.1961(13) 0.0749(8) 0.5094(9)
H24 H 1.1690 0.1237 0.5146
C15 C 1.3132(14) 0.0553(8) 0.5100(9)
H25 H 1.3779 0.0864 0.5140
C16 C 1.4122(13) -0.0726(9) 0.4994(10)
H26 H 1.3877 -0.1222 0.4856
H27 H 1.4495 -0.0742 0.5476
H28 H 1.4660 -0.0538 0.4627
C17 C 0.9336(12) -0.0020(8) 0.3048(9)
H29 H 0.9135 -0.0523 0.3090
C18 C 0.9820(13) 0.1153(8) 0.3297(9)
H30 H 0.9997 0.1586 0.3565
C19 C 0.9788(14) 0.1103(8) 0.2520(9)
H31 H 0.9942 0.1472 0.2166
C20 C 0.9344(15) 0.0015(10) 0.1635(9)
H32 H 1.0097 -0.0139 0.1458
H33 H 0.9028 0.0385 0.1301
H34 H 0.8833 -0.0411 0.1651
V2B V 1.10714(17) 0.30763(13) 0.47020(14)
V4A V 0.68742(17) -0.20427(12) 0.46861(13)
V4C V 1.18742(17) -0.29573(12) 0.53139(13)
O4B O 0.4947(8) 0.2222(5) 0.4649(6)
O7A O 0.6618(8) 0.2358(5) 0.9802(5)
O10C O 0.9098(8) 0.2794(5) 1.0001(5)
loop_
_geom_bond_atom_site_label_1
_geom_bond_atom_site_label_2
_geom_bond_site_symmetry_1
_geom_bond_site_symmetry_2
Co1 O3 1_555 1_555
Co2 O2 1_555 1_555
V1 O1 1_555 1_555
V2 O1 1_555 1_555
V3 O7 1_555 1_555
V4 O11 1_555 1_555
O2 V1 1_555 1_555
O3 V1 1_555 1_555
O4 V1 1_555 1_555
O5 V2 1_555 1_555
O6 V2 1_555 1_555
O7 V4A 1_555 1_555
O8 Co2 1_555 1_555
O9 V3 1_555 1_555
O10 V3 1_555 1_555
O11 Co1 1_555 1_555
O12 V4 1_555 1_555
O13 Co1 1_555 1_555
H1 O13 1_555 1_555
H2 O13 1_555 1_555
O14 Co2 1_555 1_555
H3 O14 1_555 1_555
H4 O14 1_555 1_555
N1 C1 1_555 1_555
N2 Co1 1_555 1_555
N3 C5 1_555 1_555
N4 Co1 1_555 1_555
N5 C9 1_555 1_555
N6 Co1 1_555 1_555
N7 C13 1_555 1_555
N8 Co2 1_555 1_555
N9 C17 1_555 1_555
N10 Co2 1_555 1_555
C1 N2 1_555 1_555
H5 C1 1_555 1_555
C2 N2 1_555 1_555
H6 C2 1_555 1_555
C3 N1 1_555 1_555
H7 C3 1_555 1_555
C4 N1 1_555 1_555
H8 C4 1_555 1_555
H9 C4 1_555 1_555
H10 C4 1_555 1_555
C5 N4 1_555 1_555
H11 C5 1_555 1_555
C6 N4 1_555 1_555
H12 C6 1_555 1_555
C7 N3 1_555 1_555
H13 C7 1_555 1_555
C8 N3 1_555 1_555
H14 C8 1_555 1_555
H15 C8 1_555 1_555
H16 C8 1_555 1_555
C9 N6 1_555 1_555
H17 C9 1_555 1_555
C10 N6 1_555 1_555
H18 C10 1_555 1_555
C11 N5 1_555 1_555
H19 C11 1_555 1_555
C12 N5 1_555 1_555
H20 C12 1_555 1_555
H21 C12 1_555 1_555
H22 C12 1_555 1_555
C13 N8 1_555 1_555
H23 C13 1_555 1_555
C14 N8 1_555 1_555
H24 C14 1_555 1_555
C15 N7 1_555 1_555
H25 C15 1_555 1_555
C16 N7 1_555 1_555
H26 C16 1_555 1_555
H27 C16 1_555 1_555
H28 C16 1_555 1_555
C17 N10 1_555 1_555
H29 C17 1_555 1_555
C18 N10 1_555 1_555
H30 C18 1_555 1_555
C19 N9 1_555 1_555
H31 C19 1_555 1_555
C20 N9 1_555 1_555
H32 C20 1_555 1_555
H33 C20 1_555 1_555
H34 C20 1_555 1_555
V2B O4 1_555 1_555
V4C O10 1_555 1_555
O4B V2 1_555 1_555
O7A V4 1_555 1_555
O10C V4 1_555 1_555
V3 O8 1_555 1_555
C2 C3 1_555 1_555
C6 C7 1_555 1_555
C10 C11 1_555 1_555
C14 C15 1_555 1_555
C18 C19 1_555 1_555

#END
