
#######################################################################
#
#                 Cambridge Crystallographic Data Centre
#                                CCDC 
#
#######################################################################
#
# If this CIF has been generated from an entry in the Cambridge 
# Structural Database, then it will include bibliographic, chemical, 
# crystal, experimental, refinement or atomic coordinate data resulting 
# from the CCDC's data processing and validation procedures.
#
#######################################################################

data_KOPSIT
_symmetry_cell_setting           tetragonal
_symmetry_space_group_name_H-M   'I 41/a'
_symmetry_Int_Tables_number      88
_space_group_name_Hall           'I -4 -1bw'
loop_
_symmetry_equiv_pos_site_id
_symmetry_equiv_pos_as_xyz
1 x,y,z
2 -y,1/2+x,1/4+z
3 1/2-x,1/2-y,1/2+z
4 1/2+y,-x,3/4+z
5 -x,1/2-y,1/4-z
6 1/2+y,1/2-x,1/2-z
7 1/2+x,y,3/4-z
8 -y,x,-z
9 1/2+x,1/2+y,1/2+z
10 1/2-y,x,3/4+z
11 -x,-y,z
12 y,1/2-x,1/4+z
13 1/2-x,-y,3/4-z
14 y,-x,-z
15 x,1/2+y,1/4-z
16 1/2-y,1/2+x,1/2-z
_cell_length_a                   17.3635(5)
_cell_length_b                   17.3635(5)
_cell_length_c                   13.0372(4)
_cell_angle_alpha                90
_cell_angle_beta                 90
_cell_angle_gamma                90
_cell_volume                     3930.6
loop_
_atom_site_label
_atom_site_type_symbol
_atom_site_fract_x
_atom_site_fract_y
_atom_site_fract_z
Ru1 Ru 0.00000 0.50000 -0.16171(18)
Co1 Co 0.00000 0.50000 0.25000
O1 O 0.03113(17) 0.6168(3) -0.1705(6)
O2 O 0.03148(18) 0.6167(3) -0.3295(6)
N1 N 0.00000 0.50000 0.0131(16)
N2 N 0.0900(4) 0.4486(3) 0.25392(10)
N3 N 0.1883(5) 0.5513(3) 0.2417(10)
C1 C 0.00000 0.50000 0.096(3)
C2 C 0.1630(4) 0.4690(6) 0.2495(6)
C3 C 0.0421(3) 0.6580(8) -0.25000
C4 C 0.1093(5) 0.3755(6) 0.2624(5)
C5 C 0.2263(6) 0.4184(7) 0.2540(5)
C6 C 0.0641(3) 0.7404(8) -0.25000
C7 C 0.1851(5) 0.3466(5) 0.2639(4)
C8 C 0.3035(4) 0.4140(4) 0.2525(8)
C9 C 0.2280(8) 0.2825(7) 0.2707(6)
C10 C 0.3436(7) 0.3481(5) 0.2595(6)
C11 C 0.3052(7) 0.2813(5) 0.2688(4)
H1 H 0.1200(10) 0.7454(8) -0.233(5)
H2 H 0.030(2) 0.7695(9) -0.202(4)
H3 H 0.050(3) 0.7640(13) -0.3174(19)
H4 H 0.3350(8) 0.4619(7) 0.2458(13)
H5 H 0.2024(14) 0.2312(5) 0.2776(11)
H6 H 0.4012(7) 0.3493(12) 0.2579(8)
H7 H 0.3333(7) 0.2312(7) 0.2742(6)
N2E N -0.0514(3) 0.4100(4) 0.24608(10)
N3E N 0.0513(3) 0.3117(5) 0.2583(10)
C2E C -0.0310(6) 0.3370(4) 0.2505(6)
C4E C -0.1245(6) 0.3907(5) 0.2376(5)
C5E C -0.0816(7) 0.2737(6) 0.2460(5)
C7E C -0.1534(5) 0.3149(5) 0.2361(4)
C8E C -0.0860(4) 0.1965(4) 0.2475(8)
C9E C -0.2175(7) 0.2720(8) 0.2293(6)
C10E C -0.1519(5) 0.1564(7) 0.2405(6)
C11E C -0.2187(5) 0.1948(7) 0.2312(4)
H4E H -0.0381(7) 0.1650(8) 0.2542(13)
H5E H -0.2688(5) 0.2976(14) 0.2224(11)
H6E H -0.1507(12) 0.0988(7) 0.2421(8)
H7E H -0.2688(7) 0.1667(7) 0.2258(6)
N2O N 0.0514(3) 0.5900(4) 0.24608(10)
N3O N -0.0513(3) 0.6883(5) 0.2583(10)
C2O C 0.0310(6) 0.6630(4) 0.2505(6)
C4O C 0.1245(6) 0.6093(5) 0.2376(5)
C5O C 0.0816(7) 0.7263(6) 0.2460(5)
C7O C 0.1534(5) 0.6851(5) 0.2361(4)
C8O C 0.0860(4) 0.8035(4) 0.2475(8)
C9O C 0.2175(7) 0.7280(8) 0.2293(6)
C10O C 0.1519(5) 0.8436(7) 0.2405(6)
C11O C 0.2187(5) 0.8052(7) 0.2312(4)
H4O H 0.0381(7) 0.8350(8) 0.2542(13)
H5O H 0.2688(5) 0.7024(14) 0.2224(11)
H6O H 0.1507(12) 0.9012(7) 0.2421(8)
H7O H 0.2688(7) 0.8333(7) 0.2258(6)
N2J N -0.0900(4) 0.5514(3) 0.25392(10)
N3J N -0.1883(5) 0.4487(3) 0.2417(10)
C2J C -0.1630(4) 0.5310(6) 0.2495(6)
C4J C -0.1093(5) 0.6245(6) 0.2624(5)
C5J C -0.2263(6) 0.5816(7) 0.2540(5)
C7J C -0.1851(5) 0.6534(5) 0.2639(4)
C8J C -0.3035(4) 0.5860(4) 0.2525(8)
C9J C -0.2280(8) 0.7175(7) 0.2707(6)
C10J C -0.3436(7) 0.6519(5) 0.2595(6)
C11J C -0.3052(7) 0.7187(5) 0.2688(4)
H4J H -0.3350(8) 0.5381(7) 0.2458(13)
H5J H -0.2024(14) 0.7688(5) 0.2776(11)
H6J H -0.4012(7) 0.6507(12) 0.2579(8)
H7J H -0.3333(7) 0.7688(7) 0.2742(6)
Ru1E Ru 0.00000 0.50000 -0.33829(18)
O1E O 0.1168(3) 0.46887(17) -0.3295(6)
O2E O 0.1167(3) 0.46852(18) -0.1705(6)
N1E N 0.00000 0.50000 -0.5131(16)
C1E C 0.00000 0.50000 -0.596(3)
C3E C 0.1580(8) 0.4579(3) -0.25000
C6E C 0.2404(8) 0.4359(3) -0.25000
H1E H 0.2454(8) 0.3800(10) -0.267(5)
H2E H 0.2695(9) 0.470(2) -0.298(4)
H3E H 0.2640(13) 0.450(3) -0.1826(19)
O1J O -0.03113(17) 0.3832(3) -0.1705(6)
O2J O -0.03148(18) 0.3833(3) -0.3295(6)
C3J C -0.0421(3) 0.3420(8) -0.25000
C6J C -0.0641(3) 0.2596(8) -0.25000
H1J H -0.1200(10) 0.2546(8) -0.233(5)
H2J H -0.030(2) 0.2305(9) -0.202(4)
H3J H -0.050(3) 0.2360(13) -0.3174(19)
O1O O -0.1168(3) 0.53113(17) -0.3295(6)
O2O O -0.1167(3) 0.53148(18) -0.1705(6)
C3O C -0.1580(8) 0.5421(3) -0.25000
C6O C -0.2404(8) 0.5641(3) -0.25000
H1O H -0.2454(8) 0.6200(10) -0.267(5)
H2O H -0.2695(9) 0.530(2) -0.298(4)
H3O H -0.2640(13) 0.550(3) -0.1826(19)
Co1_2 Co 0.00000 0.50000 -0.75000
C1E_2 C 0.00000 0.50000 0.404(3)
loop_
_geom_bond_atom_site_label_1
_geom_bond_atom_site_label_2
_geom_bond_site_symmetry_1
_geom_bond_site_symmetry_2
Ru1 O1 1_555 1_555
Co1 N2 1_555 1_555
O1 C3 1_555 1_555
O2 C3 1_555 1_555
N1 Ru1 1_555 1_555
N2 C2 1_555 1_555
N3 C2 1_555 1_555
C1 Co1 1_555 1_555
C2 C5 1_555 1_555
C3 C6 1_555 1_555
C4 N2 1_555 1_555
C5 C7 1_555 1_555
C6 H1 1_555 1_555
C7 C4 1_555 1_555
C8 C5 1_555 1_555
C9 C7 1_555 1_555
C10 C8 1_555 1_555
C11 C9 1_555 1_555
H2 C6 1_555 1_555
H3 C6 1_555 1_555
H4 C8 1_555 1_555
H5 C9 1_555 1_555
H6 C10 1_555 1_555
H7 C11 1_555 1_555
N2E Co1 1_555 1_555
N3E C4 1_555 1_555
C2E N2E 1_555 1_555
C4E N2E 1_555 1_555
C5E C2E 1_555 1_555
C7E C4E 1_555 1_555
C8E C5E 1_555 1_555
C9E C7E 1_555 1_555
C10E C8E 1_555 1_555
C11E C9E 1_555 1_555
H4E C8E 1_555 1_555
H5E C9E 1_555 1_555
H6E C10E 1_555 1_555
H7E C11E 1_555 1_555
N2O Co1 1_555 1_555
N3O C2O 1_555 1_555
C2O N2O 1_555 1_555
C4O N3 1_555 1_555
C5O C2O 1_555 1_555
C7O C4O 1_555 1_555
C8O C5O 1_555 1_555
C9O C7O 1_555 1_555
C10O C8O 1_555 1_555
C11O C9O 1_555 1_555
H4O C8O 1_555 1_555
H5O C9O 1_555 1_555
H6O C10O 1_555 1_555
H7O C11O 1_555 1_555
N2J Co1 1_555 1_555
N3J C4E 1_555 1_555
C2J N2J 1_555 1_555
C4J N3O 1_555 1_555
C5J C2J 1_555 1_555
C7J C4J 1_555 1_555
C8J C5J 1_555 1_555
C9J C7J 1_555 1_555
C10J C8J 1_555 1_555
C11J C9J 1_555 1_555
H4J C8J 1_555 1_555
H5J C9J 1_555 1_555
H6J C10J 1_555 1_555
H7J C11J 1_555 1_555
Ru1E O2 1_555 1_555
O1E Ru1E 1_555 1_555
O2E Ru1 1_555 1_555
N1E Ru1E 1_555 1_555
C1E N1E 1_555 1_555
C3E O1E 1_555 1_555
C6E C3E 1_555 1_555
H1E C6E 1_555 1_555
H2E C6E 1_555 1_555
H3E C6E 1_555 1_555
O1J Ru1 1_555 1_555
O2J Ru1E 1_555 1_555
C3J O1J 1_555 1_555
C6J C3J 1_555 1_555
H1J C6J 1_555 1_555
H2J C6J 1_555 1_555
H3J C6J 1_555 1_555
O1O Ru1E 1_555 1_555
O2O Ru1 1_555 1_555
C3O O1O 1_555 1_555
C6O C3O 1_555 1_555
H1O C6O 1_555 1_555
H2O C6O 1_555 1_555
H3O C6O 1_555 1_555
Co1_2 C1E 1_555 1_555
C1E_2 Co1 1_555 1_555
N1 C1 1_555 1_555
C10 C11 1_555 1_555
N3E C2E 1_555 1_555
C5E C7E 1_555 1_555
C10E C11E 1_555 1_555
N2O C4O 1_555 1_555
C5O C7O 1_555 1_555
C10O C11O 1_555 1_555
N2J C4J 1_555 1_555
N3J C2J 1_555 1_555
C5J C7J 1_555 1_555
C10J C11J 1_555 1_555
O2E C3E 1_555 1_555
O2J C3J 1_555 1_555
O2O C3O 1_555 1_555

#END
