
#######################################################################
#
#                 Cambridge Crystallographic Data Centre
#                                CCDC 
#
#######################################################################
#
# If this CIF has been generated from an entry in the Cambridge 
# Structural Database, then it will include bibliographic, chemical, 
# crystal, experimental, refinement or atomic coordinate data resulting 
# from the CCDC's data processing and validation procedures.
#
#######################################################################

data_KOPZOG
_symmetry_cell_setting           monoclinic
_symmetry_space_group_name_H-M   'C 2/c'
_symmetry_Int_Tables_number      15
_space_group_name_Hall           '-C 2yn'
loop_
_symmetry_equiv_pos_site_id
_symmetry_equiv_pos_as_xyz
1 x,y,z
2 -x,y,1/2-z
3 1/2+x,1/2+y,z
4 1/2-x,1/2+y,1/2-z
5 -x,-y,-z
6 x,-y,1/2+z
7 1/2-x,1/2-y,-z
8 1/2+x,1/2-y,1/2+z
_cell_length_a                   18.101(14)
_cell_length_b                   20.893(16)
_cell_length_c                   13.626(11)
_cell_angle_alpha                90
_cell_angle_beta                 130.367(8)
_cell_angle_gamma                90
_cell_volume                     3926.23
loop_
_atom_site_label
_atom_site_type_symbol
_atom_site_fract_x
_atom_site_fract_y
_atom_site_fract_z
C1 C 0.0598(3) 0.14301(14) 1.0078(3)
H1 H 0.0406 0.1554 1.0539
C2 C 0.0871(2) 0.08517(13) 0.9100(3)
H2 H 0.0926 0.0506 0.8721
C3 C 0.1573(2) 0.17023(14) 0.8625(3)
C4 C 0.1283(2) 0.22977(14) 0.8036(3)
H3 H 0.0824 0.2538 0.7981
C5 C 0.1695(2) 0.25229(14) 0.7535(3)
C6 C 0.2407(2) 0.21665(14) 0.7660(3)
C7 C 0.2699(2) 0.15789(15) 0.8273(3)
H4 H 0.3178 0.1345 0.8364
C8 C 0.2271(2) 0.13428(15) 0.8749(3)
H5 H 0.2451 0.0945 0.9149
C9 C 0.1459(2) 0.31363(14) 0.6779(3)
C10 C 0.0421(3) 0.31220(19) 0.5495(4)
H6 H 0.0301 0.3502 0.5014
H7 H -0.0024 0.3103 0.5652
H8 H 0.0336 0.2752 0.5013
C11 C 0.1622(3) 0.37386(17) 0.7537(4)
H9 H 0.2288 0.3758 0.8313
H10 H 0.1211 0.3725 0.7752
H11 H 0.1469 0.4110 0.7022
C12 C 0.2179(2) 0.30940(14) 0.6552(3)
C13 C 0.2330(2) 0.35272(14) 0.5936(3)
H12 H 0.1969 0.3902 0.5586
C14 C 0.3034(2) 0.33901(14) 0.5853(3)
C15 C 0.3585(2) 0.28385(15) 0.6371(3)
H13 H 0.4056 0.2761 0.6302
C16 C 0.3437(2) 0.24009(14) 0.6992(3)
H14 H 0.3803 0.2028 0.7342
C17 C 0.2729(2) 0.25324(14) 0.7079(3)
C18 C 0.2969(2) 0.45343(15) 0.3967(3)
H15 H 0.2662 0.4818 0.3279
C19 C 0.4069(2) 0.40289(14) 0.5627(3)
H16 H 0.4669 0.3878 0.6352
Cl1 Cl 0.11349(6) 0.02162(4) 1.22923(7)
N1 N 0.05222(18) 0.08209(11) 0.9699(2)
N2 N 0.0959(2) 0.18377(11) 0.9755(3)
N3 N 0.11334(18) 0.14514(11) 0.9119(2)
N4 N 0.32146(18) 0.38351(11) 0.5238(2)
N5 N 0.2487(2) 0.41694(13) 0.4171(3)
N6 N 0.39389(18) 0.44655(11) 0.4830(2)
Ni1 Ni 0.0000 0.0000 1.0000
C1D C -0.0598(3) -0.14301(14) 0.9922(3)
H1D H -0.0406 -0.1554 0.9461
C2D C -0.0871(2) -0.08517(13) 1.0900(3)
H2D H -0.0926 -0.0506 1.1279
C3D C -0.1573(2) -0.17023(14) 1.1375(3)
C4D C -0.1283(2) -0.22977(14) 1.1964(3)
H3D H -0.0824 -0.2538 1.2019
C5D C -0.1695(2) -0.25229(14) 1.2465(3)
C6D C -0.2407(2) -0.21665(14) 1.2340(3)
C7D C -0.2699(2) -0.15789(15) 1.1727(3)
H4D H -0.3178 -0.1345 1.1636
C8D C -0.2271(2) -0.13428(15) 1.1251(3)
H5D H -0.2451 -0.0945 1.0851
C9D C -0.1459(2) -0.31363(14) 1.3221(3)
C10D C -0.0421(3) -0.31220(19) 1.4505(4)
H6D H -0.0301 -0.3502 1.4986
H7D H 0.0024 -0.3103 1.4348
H8D H -0.0336 -0.2752 1.4987
C11D C -0.1622(3) -0.37386(17) 1.2463(4)
H9D H -0.2288 -0.3758 1.1687
H10D H -0.1211 -0.3725 1.2248
H11D H -0.1469 -0.4110 1.2978
C12D C -0.2179(2) -0.30940(14) 1.3448(3)
C13D C -0.2330(2) -0.35272(14) 1.4064(3)
H12D H -0.1969 -0.3902 1.4414
C14D C -0.3034(2) -0.33901(14) 1.4147(3)
C15D C -0.3585(2) -0.28385(15) 1.3629(3)
H13D H -0.4056 -0.2761 1.3698
C16D C -0.3437(2) -0.24009(14) 1.3008(3)
H14D H -0.3803 -0.2028 1.2658
C17D C -0.2729(2) -0.25324(14) 1.2921(3)
C18D C -0.2969(2) -0.45343(15) 1.6033(3)
H15D H -0.2662 -0.4818 1.6721
C19D C -0.4069(2) -0.40289(14) 1.4373(3)
H16D H -0.4669 -0.3878 1.3648
Cl1D Cl -0.11349(6) -0.02162(4) 0.77077(7)
N1D N -0.05222(18) -0.08209(11) 1.0301(2)
N2D N -0.0959(2) -0.18377(11) 1.0245(3)
N3D N -0.11334(18) -0.14514(11) 1.0881(2)
N4D N -0.32146(18) -0.38351(11) 1.4762(2)
N5D N -0.2487(2) -0.41694(13) 1.5829(3)
N6D N -0.39389(18) -0.44655(11) 1.5170(2)
N6C N 0.10611(18) -0.05345(11) 1.0170(2)
N6G N -0.10611(18) 0.05345(11) 0.9830(2)
Ni1C Ni -0.5000 -0.5000 1.5000
Ni1C_2 Ni 0.5000 0.5000 0.5000
loop_
_geom_bond_atom_site_label_1
_geom_bond_atom_site_label_2
_geom_bond_site_symmetry_1
_geom_bond_site_symmetry_2
C1 H1 1_555 1_555
C2 H2 1_555 1_555
C3 C4 1_555 1_555
C4 H3 1_555 1_555
C5 C4 1_555 1_555
C6 C5 1_555 1_555
C7 C6 1_555 1_555
H4 C7 1_555 1_555
C8 C3 1_555 1_555
H5 C8 1_555 1_555
C9 C5 1_555 1_555
C10 C9 1_555 1_555
H6 C10 1_555 1_555
H7 C10 1_555 1_555
H8 C10 1_555 1_555
C11 C9 1_555 1_555
H9 C11 1_555 1_555
H10 C11 1_555 1_555
H11 C11 1_555 1_555
C12 C9 1_555 1_555
C13 C12 1_555 1_555
H12 C13 1_555 1_555
C14 C13 1_555 1_555
C15 C14 1_555 1_555
H13 C15 1_555 1_555
C16 C15 1_555 1_555
H14 C16 1_555 1_555
C17 C6 1_555 1_555
C18 H15 1_555 1_555
C19 H16 1_555 1_555
Cl1 Ni1 1_555 1_555
N1 C1 1_555 1_555
N2 C1 1_555 1_555
N3 C2 1_555 1_555
N4 C14 1_555 1_555
N5 C18 1_555 1_555
N6 C18 1_555 1_555
Ni1 N1 1_555 1_555
C1D H1D 1_555 1_555
C2D H2D 1_555 1_555
C3D C4D 1_555 1_555
C4D H3D 1_555 1_555
C5D C4D 1_555 1_555
C6D C5D 1_555 1_555
C7D C6D 1_555 1_555
H4D C7D 1_555 1_555
C8D C3D 1_555 1_555
H5D C8D 1_555 1_555
C9D C5D 1_555 1_555
C10D C9D 1_555 1_555
H6D C10D 1_555 1_555
H7D C10D 1_555 1_555
H8D C10D 1_555 1_555
C11D C9D 1_555 1_555
H9D C11D 1_555 1_555
H10D C11D 1_555 1_555
H11D C11D 1_555 1_555
C12D C9D 1_555 1_555
C13D C12D 1_555 1_555
H12D C13D 1_555 1_555
C14D C13D 1_555 1_555
C15D C14D 1_555 1_555
H13D C15D 1_555 1_555
C16D C15D 1_555 1_555
H14D C16D 1_555 1_555
C17D C6D 1_555 1_555
C18D H15D 1_555 1_555
C19D H16D 1_555 1_555
Cl1D Ni1 1_555 1_555
N1D Ni1 1_555 1_555
N2D C1D 1_555 1_555
N3D C2D 1_555 1_555
N4D C14D 1_555 1_555
N5D C18D 1_555 1_555
N6D C18D 1_555 1_555
N6C Ni1 1_555 1_555
N6G Ni1 1_555 1_555
Ni1C N6D 1_555 1_555
Ni1C_2 N6 1_555 1_555
C2 N1 1_555 1_555
C3 N3 1_555 1_555
C7 C8 1_555 1_555
C12 C17 1_555 1_555
C16 C17 1_555 1_555
C19 N4 1_555 1_555
C19 N6 1_555 1_555
N2 N3 1_555 1_555
N4 N5 1_555 1_555
C1D N1D 1_555 1_555
C2D N1D 1_555 1_555
C3D N3D 1_555 1_555
C7D C8D 1_555 1_555
C12D C17D 1_555 1_555
C16D C17D 1_555 1_555
C19D N4D 1_555 1_555
C19D N6D 1_555 1_555
N2D N3D 1_555 1_555
N4D N5D 1_555 1_555

#END
