
#######################################################################
#
#                 Cambridge Crystallographic Data Centre
#                                CCDC 
#
#######################################################################
#
# If this CIF has been generated from an entry in the Cambridge 
# Structural Database, then it will include bibliographic, chemical, 
# crystal, experimental, refinement or atomic coordinate data resulting 
# from the CCDC's data processing and validation procedures.
#
#######################################################################

data_KOQBEX
_symmetry_cell_setting           monoclinic
_symmetry_space_group_name_H-M   'P 21/c'
_symmetry_Int_Tables_number      14
_space_group_name_Hall           '-P 2ybc'
loop_
_symmetry_equiv_pos_site_id
_symmetry_equiv_pos_as_xyz
1 x,y,z
2 x,1/2-y,1/2+z
3 -x,-y,-z
4 -x,1/2+y,1/2-z
_cell_length_a                   15.9420(10)
_cell_length_b                   6.3738(4)
_cell_length_c                   20.895(2)
_cell_angle_alpha                90
_cell_angle_beta                 111.129(7)
_cell_angle_gamma                90
_cell_volume                     1980.43
loop_
_atom_site_label
_atom_site_type_symbol
_atom_site_fract_x
_atom_site_fract_y
_atom_site_fract_z
Sn1 Sn 0.758342(12) 0.21426(3) 0.521210(10)
Cl1 Cl 0.71887(6) -0.02450(16) 0.42758(5)
Cl2 Cl 0.90046(5) 0.02542(14) 0.57752(4)
Cl3 Cl 0.66978(6) 0.02035(14) 0.57538(5)
S1 S 0.89687(5) 0.27851(12) 0.43718(4)
S2 S 0.53944(5) 0.30484(12) 0.42835(4)
O1 O 0.82688(13) 0.3854(3) 0.46097(11)
O2 O 0.63579(13) 0.3895(4) 0.45767(11)
C1 C 0.7896(2) 0.4756(5) 0.58798(17)
H1 H 0.7658 0.6007 0.5623
H2 H 0.8537 0.4881 0.6096
H3 H 0.7636 0.4567 0.6224
C2 C 0.88585(19) 0.4101(5) 0.35948(15)
C3 C 0.9219(3) 0.3144(6) 0.31627(18)
H4 H 0.9508 0.1855 0.3279
C4 C 0.9147(3) 0.4116(8) 0.25533(18)
H5 H 0.9391 0.3473 0.226
C5 C 0.8729(3) 0.5988(8) 0.2378(2)
H6 H 0.8686 0.6633 0.1969
C6 C 0.8368(3) 0.6925(7) 0.2809(2)
H7 H 0.8079 0.8211 0.2686
C7 C 0.8421(3) 0.6010(6) 0.34254(18)
H8 H 0.8172 0.6657 0.3714
C8 C 0.4836(2) 0.4833(5) 0.36072(15)
C9 C 0.5274(2) 0.6618(6) 0.35142(18)
H9 H 0.5866 0.6874 0.3797
C10 C 0.4826(3) 0.8016(7) 0.3000(2)
H10 H 0.5118 0.9212 0.2933
C11 C 0.3961(3) 0.7646(8) 0.2592(2)
H11 H 0.3653 0.8609 0.2254
C12 C 0.3542(3) 0.5857(10) 0.2678(2)
H12 H 0.2955 0.5592 0.2384
C13 C 0.3968(3) 0.4430(8) 0.3190(2)
H13 H 0.3672 0.3229 0.3249
C14 C 1.00234(19) 0.3835(5) 0.49421(15)
H14 H 1.0196 0.3115 0.538
H15 H 1.0485 0.3567 0.4751
C15 C 0.48998(19) 0.3866(5) 0.48954(15)
H16 H 0.4254 0.3671 0.4697
H17 H 0.5129 0.2985 0.53
C14B C 0.99766(19) 0.6165(5) 0.50579(15)
S1B S 1.10313(5) 0.72149(12) 0.56282(4)
O1B O 1.17312(13) 0.6146(3) 0.53903(11)
C2B C 1.11415(19) 0.5899(5) 0.64052(15)
C3B C 1.0781(3) 0.6856(6) 0.68373(18)
H4B H 1.0492 0.8145 0.6721
C4B C 1.0853(3) 0.5884(8) 0.74467(18)
H5B H 1.0609 0.6527 0.774
C5B C 1.1271(3) 0.4012(8) 0.7622(2)
H6B H 1.1314 0.3367 0.8031
C6B C 1.1632(3) 0.3075(7) 0.7191(2)
H7B H 1.1921 0.1789 0.7314
C7B C 1.1579(3) 0.3990(6) 0.65746(18)
H8B H 1.1828 0.3343 0.6286
H14B H 0.9804 0.6885 0.462
H15B H 0.9515 0.6433 0.5249
C15B C 0.51002(19) 0.6134(5) 0.51046(15)
S2B S 0.46056(5) 0.69516(12) 0.57165(4)
O2B O 0.36421(13) 0.6105(4) 0.54233(11)
C8B C 0.5164(2) 0.5167(5) 0.63928(15)
C9B C 0.4726(2) 0.3382(6) 0.64858(18)
H9B H 0.4134 0.3126 0.6203
C10B C 0.5174(3) 0.1984(7) 0.7000(2)
H10B H 0.4882 0.0788 0.7067
C11B C 0.6039(3) 0.2354(8) 0.7408(2)
H11B H 0.6347 0.1391 0.7746
C12B C 0.6458(3) 0.4143(10) 0.7322(2)
H12B H 0.7045 0.4408 0.7616
C13B C 0.6032(3) 0.5570(8) 0.6810(2)
H13B H 0.6328 0.6771 0.6751
H16B H 0.5746 0.6329 0.5303
H17B H 0.4871 0.7015 0.47
Sn1B Sn 1.241658(12) 0.78574(3) 0.478790(10)
Sn1B_2 Sn 0.241658(12) 0.78574(3) 0.478790(10)
Cl1B Cl 1.28113(6) 1.02450(16) 0.57242(5)
Cl2B Cl 1.09954(5) 0.97458(14) 0.42248(4)
Cl3B Cl 1.33022(6) 0.97965(14) 0.42462(5)
O2B_2 O 1.36421(13) 0.6105(4) 0.54233(11)
C1B C 1.2104(2) 0.5244(5) 0.41202(17)
H1B H 1.2342 0.3993 0.4377
H2B H 1.1463 0.5119 0.3904
H3B H 1.2364 0.5433 0.3776
loop_
_geom_bond_atom_site_label_1
_geom_bond_atom_site_label_2
_geom_bond_site_symmetry_1
_geom_bond_site_symmetry_2
Sn1 Cl1 1_555 1_555
Cl2 Sn1 1_555 1_555
Cl3 Sn1 1_555 1_555
S1 O1 1_555 1_555
S2 O2 1_555 1_555
O1 Sn1 1_555 1_555
O2 Sn1 1_555 1_555
C1 Sn1 1_555 1_555
H1 C1 1_555 1_555
H2 C1 1_555 1_555
H3 C1 1_555 1_555
C2 S1 1_555 1_555
C3 C2 1_555 1_555
H4 C3 1_555 1_555
C4 C3 1_555 1_555
H5 C4 1_555 1_555
C5 C4 1_555 1_555
H6 C5 1_555 1_555
C6 C5 1_555 1_555
H7 C6 1_555 1_555
C7 C2 1_555 1_555
H8 C7 1_555 1_555
C8 S2 1_555 1_555
C9 C8 1_555 1_555
H9 C9 1_555 1_555
C10 C9 1_555 1_555
H10 C10 1_555 1_555
C11 C10 1_555 1_555
H11 C11 1_555 1_555
C12 C11 1_555 1_555
H12 C12 1_555 1_555
C13 C8 1_555 1_555
H13 C13 1_555 1_555
C14 S1 1_555 1_555
H14 C14 1_555 1_555
H15 C14 1_555 1_555
C15 S2 1_555 1_555
H16 C15 1_555 1_555
H17 C15 1_555 1_555
C14B C14 1_555 1_555
S1B C14B 1_555 1_555
O1B S1B 1_555 1_555
C2B S1B 1_555 1_555
C3B C2B 1_555 1_555
H4B C3B 1_555 1_555
C4B C3B 1_555 1_555
H5B C4B 1_555 1_555
C5B C4B 1_555 1_555
H6B C5B 1_555 1_555
C6B C5B 1_555 1_555
H7B C6B 1_555 1_555
C7B C2B 1_555 1_555
H8B C7B 1_555 1_555
H14B C14B 1_555 1_555
H15B C14B 1_555 1_555
C15B C15 1_555 1_555
S2B C15B 1_555 1_555
O2B S2B 1_555 1_555
C8B S2B 1_555 1_555
C9B C8B 1_555 1_555
H9B C9B 1_555 1_555
C10B C9B 1_555 1_555
H10B C10B 1_555 1_555
C11B C10B 1_555 1_555
H11B C11B 1_555 1_555
C12B C11B 1_555 1_555
H12B C12B 1_555 1_555
C13B C8B 1_555 1_555
H13B C13B 1_555 1_555
H16B C15B 1_555 1_555
H17B C15B 1_555 1_555
Sn1B O1B 1_555 1_555
Sn1B_2 O2B 1_555 1_555
Cl1B Sn1B 1_555 1_555
Cl2B Sn1B 1_555 1_555
Cl3B Sn1B 1_555 1_555
O2B_2 Sn1B 1_555 1_555
C1B Sn1B 1_555 1_555
H1B C1B 1_555 1_555
H2B C1B 1_555 1_555
H3B C1B 1_555 1_555
C6 C7 1_555 1_555
C12 C13 1_555 1_555
C6B C7B 1_555 1_555
C12B C13B 1_555 1_555

#END
