
#######################################################################
#
#                 Cambridge Crystallographic Data Centre
#                                CCDC 
#
#######################################################################
#
# If this CIF has been generated from an entry in the Cambridge 
# Structural Database, then it will include bibliographic, chemical, 
# crystal, experimental, refinement or atomic coordinate data resulting 
# from the CCDC's data processing and validation procedures.
#
#######################################################################

data_KOQDAX
_symmetry_cell_setting           triclinic
_symmetry_space_group_name_H-M   'P -1'
_symmetry_Int_Tables_number      2
_space_group_name_Hall           '-P 1'
loop_
_symmetry_equiv_pos_site_id
_symmetry_equiv_pos_as_xyz
1 x,y,z
2 -x,-y,-z
_cell_length_a                   9.820(2)
_cell_length_b                   11.519(2)
_cell_length_c                   16.954(3)
_cell_angle_alpha                101.25(3)
_cell_angle_beta                 97.92(3)
_cell_angle_gamma                96.46(3)
_cell_volume                     1843.71
loop_
_atom_site_label
_atom_site_type_symbol
_atom_site_fract_x
_atom_site_fract_y
_atom_site_fract_z
Cd1 Cd 0.54466(3) 0.21640(2) 0.752879(15)
C1 C 0.6604(4) 0.3654(4) 0.6502(3)
C2 C 0.7207(4) 0.3842(3) 0.5741(2)
C3 C 0.8493(4) 0.3508(4) 0.5651(3)
H1 H 0.8978 0.3216 0.6064
C4 C 0.9076(5) 0.3591(4) 0.4975(3)
H2 H 0.9956 0.3379 0.4940
C5 C 0.8365(6) 0.3989(5) 0.4345(3)
H3 H 0.8745 0.4014 0.3875
C6 C 0.7091(5) 0.4350(4) 0.4414(3)
H4 H 0.6617 0.4635 0.3994
C7 C 0.6507(4) 0.4289(4) 0.5113(3)
C8 C 0.5555(4) 0.0077(3) 0.8077(2)
C9 C 0.5541(3) -0.1060(3) 0.8392(2)
C10 C 0.5620(4) -0.2127(4) 0.7879(3)
H5 H 0.5716 -0.2136 0.7340
C11 C 0.5558(5) -0.3172(4) 0.8147(3)
H6 H 0.5581 -0.3887 0.7787
C12 C 0.5462(4) -0.3171(4) 0.8946(3)
H7 H 0.5446 -0.3883 0.9129
C13 C 0.5390(4) -0.2126(3) 0.9478(3)
H8 H 0.5335 -0.2124 1.0022
C14 C 0.5401(3) -0.1069(3) 0.9198(2)
C15 C 0.2946(4) 0.3888(4) 0.7465(3)
H9 H 0.3588 0.4376 0.7274
C16 C 0.1618(5) 0.4152(4) 0.7438(3)
H10 H 0.1365 0.4801 0.7230
C17 C 0.0664(4) 0.3441(4) 0.7723(3)
H11 H -0.0244 0.3603 0.7709
C18 C 0.1060(4) 0.2490(3) 0.8027(2)
C19 C 0.2421(4) 0.2300(4) 0.8026(3)
H12 H 0.2699 0.1659 0.8234
C20 C 0.0103(4) 0.1661(4) 0.8355(3)
H13 H -0.0836 0.1852 0.8271
H14 H 0.0097 0.0839 0.8079
C21 C 0.0261(4) 0.0883(4) 0.9570(3)
C22 C -0.0745(4) -0.0089(4) 0.9226(3)
H15 H -0.1245 -0.0155 0.8708
C23 C 0.0997(4) 0.0961(4) 1.0336(3)
H16 H 0.1678 0.1614 1.0563
C24 C 0.3848(5) -0.0103(4) 0.6113(3)
H17 H 0.4103 -0.0500 0.6526
C25 C 0.3243(7) -0.0757(5) 0.5380(4)
H18 H 0.3085 -0.1587 0.5289
C26 C 0.2858(6) -0.0177(5) 0.4758(3)
H19 H 0.2465 -0.0612 0.4239
C27 C 0.3064(4) 0.1051(4) 0.4921(3)
C28 C 0.3702(4) 0.1631(4) 0.5685(2)
H20 H 0.3867 0.2463 0.5797
C29 C 0.2706(5) 0.1745(5) 0.4282(3)
H21 H 0.3003 0.2592 0.4503
H22 H 0.3181 0.1502 0.3825
C30 C 0.0785(4) 0.2017(4) 0.3368(2)
C31 C -0.0470(4) 0.1484(4) 0.2912(3)
H23 H -0.0955 0.0836 0.3055
C32 C -0.1029(4) 0.1898(4) 0.2238(3)
H24 H -0.1886 0.1538 0.1934
C33 C -0.0289(4) 0.2852(4) 0.2029(2)
C34 C 0.0942(4) 0.3415(4) 0.2503(3)
H25 H 0.1408 0.4084 0.2374
C35 C 0.1493(5) 0.2998(4) 0.3168(3)
H26 H 0.2337 0.3375 0.3481
C36 C -0.1864(4) 0.2715(4) 0.0813(3)
H27 H -0.2664 0.2694 0.1090
H28 H -0.1729 0.1899 0.0600
C37 C -0.2108(4) 0.3360(4) 0.0123(2)
C38 C -0.2839(4) 0.2729(3) -0.0616(2)
H29 H -0.3136 0.1917 -0.0673
C39 C -0.2685(4) 0.4385(4) -0.1178(3)
H30 H -0.2870 0.4740 -0.1622
C40 C -0.1947(5) 0.5069(4) -0.0457(3)
H31 H -0.1643 0.5876 -0.0416
C41 C -0.1661(5) 0.4556(4) 0.0195(3)
H32 H -0.1168 0.5013 0.0686
N1 N 0.5118(4) 0.4554(3) 0.5142(2)
N2 N 0.5379(3) 0.0045(3) 0.97389(18)
N3 N 0.3362(3) 0.2964(3) 0.77513(19)
N4 N 0.4101(3) 0.1084(3) 0.62800(19)
N5 N -0.3143(3) 0.3225(3) -0.12569(18)
O1 O 0.6962(3) 0.2795(3) 0.67726(19)
O2 O 0.5814(3) 0.4309(3) 0.67655(19)
O3 O 0.4639(3) 0.0714(2) 0.82364(18)
O4 O 0.6457(3) 0.0328(3) 0.76656(17)
O5 O 0.0605(3) 0.1818(3) 0.92003(19)
O6 O 0.1273(3) 0.1534(3) 0.40195(18)
O7 O -0.0690(3) 0.3315(3) 0.13562(18)
C1A C 0.3396(4) 0.6346(4) 0.3498(3)
C2A C 0.2793(4) 0.6158(3) 0.4259(2)
C3A C 0.1507(4) 0.6492(4) 0.4349(3)
H1A H 0.1022 0.6784 0.3936
C4A C 0.0924(5) 0.6409(4) 0.5025(3)
H2A H 0.0044 0.6621 0.5060
C5A C 0.1635(6) 0.6011(5) 0.5655(3)
H3A H 0.1255 0.5986 0.6125
C6A C 0.2909(5) 0.5650(4) 0.5586(3)
H4A H 0.3383 0.5365 0.6006
C7A C 0.3493(4) 0.5711(4) 0.4887(3)
N1A N 0.4882(4) 0.5446(3) 0.4858(2)
O1A O 0.3038(3) 0.7205(3) 0.32274(19)
O2A O 0.4186(3) 0.5691(3) 0.32345(19)
C8A C 0.4445(4) -0.0077(3) 1.1923(2)
C9A C 0.4459(3) 0.1060(3) 1.1608(2)
C10A C 0.4380(4) 0.2127(4) 1.2121(3)
H5A H 0.4284 0.2136 1.2660
C11A C 0.4442(5) 0.3172(4) 1.1853(3)
H6A H 0.4419 0.3887 1.2213
C12A C 0.4538(4) 0.3171(4) 1.1054(3)
H7A H 0.4554 0.3883 1.0871
C13A C 0.4610(4) 0.2126(3) 1.0522(3)
H8A H 0.4665 0.2124 0.9978
C14A C 0.4599(3) 0.1069(3) 1.0802(2)
N2A N 0.4621(3) -0.0045(3) 1.02611(18)
O3A O 0.5361(3) -0.0714(2) 1.17636(18)
O4A O 0.3543(3) -0.0328(3) 1.23344(17)
C15A C -0.2946(4) -0.3888(4) 1.2535(3)
H9A H -0.3588 -0.4376 1.2726
C16A C -0.1618(5) -0.4152(4) 1.2562(3)
H10A H -0.1365 -0.4801 1.2770
C17A C -0.0664(4) -0.3441(4) 1.2277(3)
H11A H 0.0244 -0.3603 1.2291
C18A C -0.1060(4) -0.2490(3) 1.1973(2)
C19A C -0.2421(4) -0.2300(4) 1.1974(3)
H12A H -0.2699 -0.1659 1.1766
C20A C -0.0103(4) -0.1661(4) 1.1645(3)
H13A H 0.0836 -0.1852 1.1729
H14A H -0.0097 -0.0839 1.1921
C21A C -0.0261(4) -0.0883(4) 1.0430(3)
C22A C 0.0745(4) 0.0089(4) 1.0774(3)
H15A H 0.1245 0.0155 1.1292
C23A C -0.0997(4) -0.0961(4) 0.9664(3)
H16A H -0.1678 -0.1614 0.9437
N3A N -0.3362(3) -0.2964(3) 1.22487(19)
O5A O -0.0605(3) -0.1818(3) 1.07997(19)
Cd1A Cd -0.54466(3) -0.21640(2) 1.247121(15)
C24A C -0.3848(5) 0.0103(4) 1.3887(3)
H17A H -0.4103 0.0500 1.3474
C25A C -0.3243(7) 0.0757(5) 1.4620(4)
H18A H -0.3085 0.1587 1.4711
C26A C -0.2858(6) 0.0177(5) 1.5242(3)
H19A H -0.2465 0.0612 1.5761
C27A C -0.3064(4) -0.1051(4) 1.5079(3)
C28A C -0.3702(4) -0.1631(4) 1.4315(2)
H20A H -0.3867 -0.2463 1.4203
C29A C -0.2706(5) -0.1745(5) 1.5718(3)
H21A H -0.3003 -0.2592 1.5497
H22A H -0.3181 -0.1502 1.6175
C30A C -0.0785(4) -0.2017(4) 1.6632(2)
C31A C 0.0470(4) -0.1484(4) 1.7088(3)
H23A H 0.0955 -0.0836 1.6945
C32A C 0.1029(4) -0.1898(4) 1.7762(3)
H24A H 0.1886 -0.1538 1.8066
C33A C 0.0289(4) -0.2852(4) 1.7971(2)
C34A C -0.0942(4) -0.3415(4) 1.7497(3)
H25A H -0.1408 -0.4084 1.7626
C35A C -0.1493(5) -0.2998(4) 1.6832(3)
H26A H -0.2337 -0.3375 1.6519
C36A C 0.1864(4) -0.2715(4) 1.9187(3)
H27A H 0.2664 -0.2694 1.8910
H28A H 0.1729 -0.1899 1.9400
C37A C 0.2108(4) -0.3360(4) 1.9877(2)
C38A C 0.2839(4) -0.2729(3) 2.0616(2)
H29A H 0.3136 -0.1917 2.0673
C39A C 0.2685(4) -0.4385(4) 2.1178(3)
H30A H 0.2870 -0.4740 2.1622
C40A C 0.1947(5) -0.5069(4) 2.0457(3)
H31A H 0.1643 -0.5876 2.0416
C41A C 0.1661(5) -0.4556(4) 1.9805(3)
H32A H 0.1168 -0.5013 1.9314
N4A N -0.4101(3) -0.1084(3) 1.37200(19)
N5A N 0.3143(3) -0.3225(3) 2.12569(18)
O6A O -0.1273(3) -0.1534(3) 1.59805(18)
O7A O 0.0690(3) -0.3315(3) 1.86438(18)
Cd1_2 Cd -0.45534(3) 0.21640(2) -0.247121(15)
Cd1A_2 Cd 0.45534(3) -0.21640(2) 1.247121(15)
Cd1A_3 Cd 0.45534(3) -0.21640(2) 2.247121(15)
Cd1A_4 Cd 0.45534(3) 0.78360(2) 0.247121(15)
N5_2 N 0.6857(3) 0.3225(3) 0.87431(18)
N5A_2 N -0.6857(3) -0.3225(3) 1.12569(18)
O1A_2 O -0.6962(3) -0.2795(3) 1.32274(19)
O3A_2 O -0.4639(3) -0.0714(2) 1.17636(18)
O4A_2 O -0.6457(3) -0.0328(3) 1.23344(17)
loop_
_geom_bond_atom_site_label_1
_geom_bond_atom_site_label_2
_geom_bond_site_symmetry_1
_geom_bond_site_symmetry_2
Cd1 N3 1_555 1_555
C1 C2 1_555 1_555
C2 C3 1_555 1_555
C3 H1 1_555 1_555
C4 C3 1_555 1_555
H2 C4 1_555 1_555
C5 C4 1_555 1_555
H3 C5 1_555 1_555
C6 C5 1_555 1_555
H4 C6 1_555 1_555
C7 C2 1_555 1_555
C8 C9 1_555 1_555
C9 C10 1_555 1_555
C10 H5 1_555 1_555
C11 C10 1_555 1_555
H6 C11 1_555 1_555
C12 C11 1_555 1_555
H7 C12 1_555 1_555
C13 C12 1_555 1_555
H8 C13 1_555 1_555
C14 C9 1_555 1_555
C15 H9 1_555 1_555
C16 C15 1_555 1_555
H10 C16 1_555 1_555
C17 C16 1_555 1_555
H11 C17 1_555 1_555
C18 C17 1_555 1_555
C19 C18 1_555 1_555
H12 C19 1_555 1_555
C20 C18 1_555 1_555
H13 C20 1_555 1_555
H14 C20 1_555 1_555
C21 C22 1_555 1_555
C22 H15 1_555 1_555
C23 C21 1_555 1_555
H16 C23 1_555 1_555
C24 H17 1_555 1_555
C25 C24 1_555 1_555
H18 C25 1_555 1_555
C26 C25 1_555 1_555
H19 C26 1_555 1_555
C27 C26 1_555 1_555
C28 C27 1_555 1_555
H20 C28 1_555 1_555
C29 C27 1_555 1_555
H21 C29 1_555 1_555
H22 C29 1_555 1_555
C30 C31 1_555 1_555
C31 H23 1_555 1_555
C32 C31 1_555 1_555
H24 C32 1_555 1_555
C33 C32 1_555 1_555
C34 C33 1_555 1_555
H25 C34 1_555 1_555
C35 C30 1_555 1_555
H26 C35 1_555 1_555
C36 H27 1_555 1_555
H28 C36 1_555 1_555
C37 C36 1_555 1_555
C38 C37 1_555 1_555
H29 C38 1_555 1_555
C39 H30 1_555 1_555
C40 C39 1_555 1_555
H31 C40 1_555 1_555
C41 C37 1_555 1_555
H32 C41 1_555 1_555
N1 C7 1_555 1_555
N2 C14 1_555 1_555
N3 C15 1_555 1_555
N4 Cd1 1_555 1_555
N5 C38 1_555 1_555
O1 Cd1 1_555 1_555
O2 C1 1_555 1_555
O3 Cd1 1_555 1_555
O4 Cd1 1_555 1_555
O5 C20 1_555 1_555
O6 C29 1_555 1_555
O7 C33 1_555 1_555
C1A C2A 1_555 1_555
C2A C3A 1_555 1_555
C3A H1A 1_555 1_555
C4A C3A 1_555 1_555
H2A C4A 1_555 1_555
C5A C4A 1_555 1_555
H3A C5A 1_555 1_555
C6A C5A 1_555 1_555
H4A C6A 1_555 1_555
C7A C2A 1_555 1_555
N1A N1 1_555 1_555
O1A C1A 1_555 1_555
O2A C1A 1_555 1_555
C8A C9A 1_555 1_555
C9A C10A 1_555 1_555
C10A H5A 1_555 1_555
C11A C10A 1_555 1_555
H6A C11A 1_555 1_555
C12A C11A 1_555 1_555
H7A C12A 1_555 1_555
C13A C12A 1_555 1_555
H8A C13A 1_555 1_555
C14A C9A 1_555 1_555
N2A N2 1_555 1_555
O3A C8A 1_555 1_555
O4A C8A 1_555 1_555
C15A H9A 1_555 1_555
C16A C15A 1_555 1_555
H10A C16A 1_555 1_555
C17A C16A 1_555 1_555
H11A C17A 1_555 1_555
C18A C17A 1_555 1_555
C19A C18A 1_555 1_555
H12A C19A 1_555 1_555
C20A C18A 1_555 1_555
H13A C20A 1_555 1_555
H14A C20A 1_555 1_555
C21A C22A 1_555 1_555
C22A C23 1_555 1_555
H15A C22A 1_555 1_555
C23A C22 1_555 1_555
H16A C23A 1_555 1_555
N3A C15A 1_555 1_555
O5A C20A 1_555 1_555
Cd1A N3A 1_555 1_555
C24A H17A 1_555 1_555
C25A C24A 1_555 1_555
H18A C25A 1_555 1_555
C26A C25A 1_555 1_555
H19A C26A 1_555 1_555
C27A C26A 1_555 1_555
C28A C27A 1_555 1_555
H20A C28A 1_555 1_555
C29A C27A 1_555 1_555
H21A C29A 1_555 1_555
H22A C29A 1_555 1_555
C30A C31A 1_555 1_555
C31A H23A 1_555 1_555
C32A C31A 1_555 1_555
H24A C32A 1_555 1_555
C33A C32A 1_555 1_555
C34A C33A 1_555 1_555
H25A C34A 1_555 1_555
C35A C30A 1_555 1_555
H26A C35A 1_555 1_555
C36A H27A 1_555 1_555
H28A C36A 1_555 1_555
C37A C36A 1_555 1_555
C38A C37A 1_555 1_555
H29A C38A 1_555 1_555
C39A H30A 1_555 1_555
C40A C39A 1_555 1_555
H31A C40A 1_555 1_555
C41A C37A 1_555 1_555
H32A C41A 1_555 1_555
N4A Cd1A 1_555 1_555
N5A C38A 1_555 1_555
O6A C29A 1_555 1_555
O7A C33A 1_555 1_555
Cd1_2 N5 1_555 1_555
Cd1A_2 O3A 1_555 1_555
Cd1A_3 N5A 1_555 1_555
Cd1A_4 O1A 1_555 1_555
N5_2 Cd1 1_555 1_555
N5A_2 Cd1A 1_555 1_555
O1A_2 Cd1A 1_555 1_555
O3A_2 Cd1A 1_555 1_555
O4A_2 Cd1A 1_555 1_555
C1 O1 1_555 1_555
C6 C7 1_555 1_555
C8 O3 1_555 1_555
C8 O4 1_555 1_555
C13 C14 1_555 1_555
C19 N3 1_555 1_555
C21 O5 1_555 1_555
C24 N4 1_555 1_555
C28 N4 1_555 1_555
C30 O6 1_555 1_555
C34 C35 1_555 1_555
C36 O7 1_555 1_555
C39 N5 1_555 1_555
C40 C41 1_555 1_555
C6A C7A 1_555 1_555
C7A N1A 1_555 1_555
C13A C14A 1_555 1_555
C14A N2A 1_555 1_555
O4A Cd1A_2 1_555 1_555
C19A N3A 1_555 1_555
C21A C23A 1_555 1_555
C21A O5A 1_555 1_555
C24A N4A 1_555 1_555
C28A N4A 1_555 1_555
C30A O6A 1_555 1_555
C34A C35A 1_555 1_555
C36A O7A 1_555 1_555
C39A N5A 1_555 1_555
C40A C41A 1_555 1_555

#END
