
#######################################################################
#
#                 Cambridge Crystallographic Data Centre
#                                CCDC 
#
#######################################################################
#
# If this CIF has been generated from an entry in the Cambridge 
# Structural Database, then it will include bibliographic, chemical, 
# crystal, experimental, refinement or atomic coordinate data resulting 
# from the CCDC's data processing and validation procedures.
#
#######################################################################

data_KOQDOL
_symmetry_cell_setting           triclinic
_symmetry_space_group_name_H-M   'P -1'
_symmetry_Int_Tables_number      2
_space_group_name_Hall           '-P 1'
loop_
_symmetry_equiv_pos_site_id
_symmetry_equiv_pos_as_xyz
1 x,y,z
2 -x,-y,-z
_cell_length_a                   9.809(2)
_cell_length_b                   15.607(3)
_cell_length_c                   16.604(3)
_cell_angle_alpha                81.76(3)
_cell_angle_beta                 88.16(3)
_cell_angle_gamma                72.57(3)
_cell_volume                     2399.98
loop_
_atom_site_label
_atom_site_type_symbol
_atom_site_fract_x
_atom_site_fract_y
_atom_site_fract_z
Cd1 Cd 0.36478(2) 0.678394(12) 0.678366(11)
C1 C 0.4449(3) 0.5253(2) 0.79170(16)
C2 C 0.4859(3) 0.4344(2) 0.84500(17)
C3 C 0.5088(4) 0.3569(2) 0.8077(2)
H1 H 0.4913 0.3627 0.7522
C4 C 0.5571(4) 0.2718(2) 0.8520(2)
H2 H 0.5732 0.2205 0.8263
C5 C 0.5814(4) 0.2627(2) 0.9346(2)
H3 H 0.6141 0.2051 0.9643
C6 C 0.5579(3) 0.3373(2) 0.97287(19)
H4 H 0.5737 0.3305 1.0287
C7 C 0.5103(3) 0.42411(19) 0.92847(17)
C8 C 0.1358(3) 0.76979(18) 0.57068(17)
C9 C -0.0005(3) 0.81056(17) 0.52155(16)
C10 C -0.0748(4) 0.7534(2) 0.5007(2)
H5 H -0.0389 0.6913 0.5175
C11 C -0.1997(4) 0.7863(2) 0.4561(2)
H6 H -0.2468 0.7467 0.4424
C12 C -0.2552(4) 0.8786(2) 0.4314(2)
H7 H -0.3402 0.9014 0.4017
C13 C -0.1838(3) 0.9362(2) 0.4512(2)
H8 H -0.2213 0.9982 0.4346
C14 C -0.0572(3) 0.90374(18) 0.49540(16)
C15 C 0.6389(4) 0.5307(2) 0.6004(2)
H9 H 0.6553 0.5035 0.6543
C16 C 0.7406(4) 0.5001(2) 0.5437(2)
H10 H 0.8236 0.4536 0.5597
C17 C 0.7196(3) 0.53811(19) 0.46357(17)
C18 C 0.5956(4) 0.6051(3) 0.4451(2)
H11 H 0.5759 0.6329 0.3916
C19 C 0.4985(4) 0.6322(3) 0.5051(2)
H12 H 0.4141 0.6780 0.4903
C20 C 0.8272(4) 0.5099(2) 0.39869(19)
H13 H 0.9049 0.4574 0.4203
H14 H 0.7828 0.4947 0.3535
C21 C 0.9638(3) 0.5820(2) 0.30566(19)
C22 C 1.0200(4) 0.6547(2) 0.2886(2)
H15 H 0.9973 0.7011 0.3208
C23 C 1.1097(4) 0.6566(2) 0.2235(2)
H16 H 1.1486 0.7045 0.2123
C24 C 1.1435(3) 0.5891(2) 0.1743(2)
H17 H 1.2043 0.5913 0.1305
C25 C 1.0854(3) 0.5183(2) 0.19132(18)
C26 C 0.9956(3) 0.5137(2) 0.25759(19)
H18 H 0.9578 0.4653 0.2691
C27 C 1.2029(4) 0.4497(3) 0.0786(2)
H19 H 1.2949 0.4506 0.0976
H20 H 1.1641 0.5034 0.0393
C28 C 1.2198(3) 0.3662(3) 0.0401(2)
C29 C 1.2787(5) 0.2801(3) 0.0823(2)
H21 H 1.3055 0.2729 0.1366
C30 C 1.2973(5) 0.2058(3) 0.0439(3)
H22 H 1.3357 0.1488 0.0738
C31 C 1.2084(4) 0.2922(4) -0.0740(3)
H23 H 1.1847 0.2969 -0.1285
C32 C 1.1837(4) 0.3710(3) -0.0406(2)
H24 H 1.1432 0.4270 -0.0719
C33 C 0.6665(3) 0.7167(2) 0.6986(2)
H25 H 0.6913 0.6549 0.7174
C34 C 0.7665(3) 0.7614(2) 0.7031(2)
H26 H 0.8576 0.7296 0.7233
C35 C 0.7321(3) 0.8529(2) 0.67775(17)
C36 C 0.5995(4) 0.8946(2) 0.6438(2)
H27 H 0.5735 0.9559 0.6230
C37 C 0.5045(4) 0.8459(2) 0.6402(2)
H28 H 0.4148 0.8759 0.6170
C38 C 0.8343(4) 0.9052(2) 0.68853(19)
H29 H 0.9322 0.8663 0.6884
H30 H 0.8222 0.9554 0.6449
C39 C 0.8805(3) 0.99053(19) 0.78703(17)
C40 C 0.9857(4) 1.0142(2) 0.73885(19)
H31 H 1.0072 0.9947 0.6883
C41 C 1.0570(4) 1.0672(2) 0.7681(2)
H32 H 1.1274 1.0836 0.7363
C42 C 1.0277(4) 1.0970(2) 0.8435(2)
H33 H 1.0779 1.1323 0.8624
C43 C 0.9217(3) 1.07291(19) 0.88977(17)
C44 C 0.8474(3) 1.0202(2) 0.86164(17)
H34 H 0.7755 1.0049 0.8929
C45 C 0.9459(3) 1.1582(2) 0.99307(19)
H35 H 0.9330 1.2114 0.9525
H36 H 1.0476 1.1291 1.0016
C46 C 0.8783(3) 1.1857(2) 1.07114(18)
C47 C 0.9112(4) 1.2546(3) 1.1033(2)
H37 H 0.9756 1.2822 1.0770
C48 C 0.8482(4) 1.2817(3) 1.1741(2)
H38 H 0.8718 1.3278 1.1947
C49 C 0.7248(4) 1.1792(2) 1.1838(2)
H39 H 0.6600 1.1530 1.2114
C50 C 0.7835(4) 1.1471(2) 1.11332(18)
H40 H 0.7592 1.1001 1.0946
N1 N 0.4737(3) 0.50488(17) 0.96551(14)
N2 N 0.0085(3) 0.96428(15) 0.52331(14)
N3 N 0.5184(3) 0.59725(17) 0.58199(15)
N4 N 1.2638(4) 0.2099(3) -0.0335(3)
N5 N 0.5344(3) 0.75857(16) 0.66821(15)
N6 N 0.7552(3) 1.24556(18) 1.21475(16)
O1 O 0.5201(2) 0.57586(15) 0.79186(14)
O2 O 0.3382(3) 0.54287(15) 0.74585(13)
O3 O 0.2350(2) 0.80378(17) 0.56061(16)
O4 O 0.1439(3) 0.70023(15) 0.62021(15)
O5 O 0.8785(3) 0.58471(16) 0.37280(15)
O6 O 1.1075(2) 0.44848(17) 0.14580(14)
O7 O 0.8017(2) 0.93784(16) 0.76514(13)
O8 O 0.8820(2) 1.09756(15) 0.96527(13)
C1A C 0.5551(3) 0.4747(2) 1.20830(16)
C2A C 0.5141(3) 0.5656(2) 1.15500(17)
C3A C 0.4912(4) 0.6431(2) 1.1923(2)
H1A H 0.5087 0.6373 1.2478
C4A C 0.4429(4) 0.7282(2) 1.1480(2)
H2A H 0.4268 0.7795 1.1737
C5A C 0.4186(4) 0.7373(2) 1.0654(2)
H3A H 0.3859 0.7949 1.0357
C6A C 0.4421(3) 0.6627(2) 1.02713(19)
H4A H 0.4263 0.6695 0.9713
C7A C 0.4897(3) 0.57589(19) 1.07153(17)
N1A N 0.5263(3) 0.49512(17) 1.03449(14)
O1A O 0.4799(2) 0.42414(15) 1.20814(14)
O2A O 0.6618(3) 0.45713(15) 1.25415(13)
C8A C -0.1358(3) 1.23021(18) 0.42932(17)
C9A C 0.0005(3) 1.18944(17) 0.47845(16)
C10A C 0.0748(4) 1.2466(2) 0.4993(2)
H5A H 0.0389 1.3087 0.4825
C11A C 0.1997(4) 1.2137(2) 0.5439(2)
H6A H 0.2468 1.2533 0.5576
C12A C 0.2552(4) 1.1214(2) 0.5686(2)
H7A H 0.3402 1.0986 0.5983
C13A C 0.1838(3) 1.0638(2) 0.5488(2)
H8A H 0.2213 1.0018 0.5654
C14A C 0.0572(3) 1.09626(18) 0.50460(16)
N2A N -0.0085(3) 1.03572(15) 0.47669(14)
O3A O -0.2350(2) 1.19622(17) 0.43939(16)
O4A O -0.1439(3) 1.29977(15) 0.37979(15)
Cd1A Cd -0.36478(2) 1.321606(12) 0.321634(11)
C15A C -0.6389(4) 1.4693(2) 0.3996(2)
H9A H -0.6553 1.4965 0.3457
C16A C -0.7406(4) 1.4999(2) 0.4563(2)
H10A H -0.8236 1.5464 0.4403
C17A C -0.7196(3) 1.46189(19) 0.53643(17)
C18A C -0.5956(4) 1.3949(3) 0.5549(2)
H11A H -0.5759 1.3671 0.6084
C19A C -0.4985(4) 1.3678(3) 0.4949(2)
H12A H -0.4141 1.3220 0.5097
C20A C -0.8272(4) 1.4901(2) 0.60131(19)
H13A H -0.9049 1.5426 0.5797
H14A H -0.7828 1.5053 0.6465
C21A C -0.9638(3) 1.4180(2) 0.69434(19)
C22A C -1.0200(4) 1.3453(2) 0.7114(2)
H15A H -0.9973 1.2989 0.6792
C23A C -1.1097(4) 1.3434(2) 0.7765(2)
H16A H -1.1486 1.2955 0.7877
C24A C -1.1435(3) 1.4109(2) 0.8257(2)
H17A H -1.2043 1.4087 0.8695
C25A C -1.0854(3) 1.4817(2) 0.80868(18)
C26A C -0.9956(3) 1.4863(2) 0.74241(19)
H18A H -0.9578 1.5347 0.7309
C27A C -1.2029(4) 1.5503(3) 0.9214(2)
H19A H -1.2949 1.5494 0.9024
H20A H -1.1641 1.4966 0.9607
C28A C -1.2198(3) 1.6338(3) 0.9599(2)
C29A C -1.2787(5) 1.7199(3) 0.9177(2)
H21A H -1.3055 1.7271 0.8634
C30A C -1.2973(5) 1.7942(3) 0.9561(3)
H22A H -1.3357 1.8512 0.9262
C31A C -1.2084(4) 1.7078(4) 1.0740(3)
H23A H -1.1847 1.7031 1.1285
C32A C -1.1837(4) 1.6290(3) 1.0406(2)
H24A H -1.1432 1.5730 1.0719
C33A C -0.6665(3) 1.2833(2) 0.3014(2)
H25A H -0.6913 1.3451 0.2826
C34A C -0.7665(3) 1.2386(2) 0.2969(2)
H26A H -0.8576 1.2704 0.2767
C35A C -0.7321(3) 1.1471(2) 0.32225(17)
C36A C -0.5995(4) 1.1054(2) 0.3562(2)
H27A H -0.5735 1.0441 0.3770
C37A C -0.5045(4) 1.1541(2) 0.3598(2)
H28A H -0.4148 1.1241 0.3830
C38A C -0.8343(4) 1.0948(2) 0.31147(19)
H29A H -0.9322 1.1337 0.3116
H30A H -0.8222 1.0446 0.3551
C39A C -0.8805(3) 1.00947(19) 0.21297(17)
C40A C -0.9857(4) 0.9858(2) 0.26115(19)
H31A H -1.0072 1.0053 0.3117
C41A C -1.0570(4) 0.9328(2) 0.2319(2)
H32A H -1.1274 0.9164 0.2637
C42A C -1.0277(4) 0.9030(2) 0.1565(2)
H33A H -1.0779 0.8677 0.1376
C43A C -0.9217(3) 0.92709(19) 0.11023(17)
C44A C -0.8474(3) 0.9798(2) 0.13836(17)
H34A H -0.7755 0.9951 0.1071
C45A C -0.9459(3) 0.8418(2) 0.00693(19)
H35A H -0.9330 0.7886 0.0475
H36A H -1.0476 0.8709 -0.0016
C46A C -0.8783(3) 0.8143(2) -0.07114(18)
C47A C -0.9112(4) 0.7454(3) -0.1033(2)
H37A H -0.9756 0.7178 -0.0770
C48A C -0.8482(4) 0.7183(3) -0.1741(2)
H38A H -0.8718 0.6722 -0.1947
C49A C -0.7248(4) 0.8208(2) -0.1838(2)
H39A H -0.6600 0.8470 -0.2114
C50A C -0.7835(4) 0.8529(2) -0.11332(18)
H40A H -0.7592 0.8999 -0.0946
N3A N -0.5184(3) 1.40275(17) 0.41801(15)
N4A N -1.2638(4) 1.7901(3) 1.0335(3)
N5A N -0.5344(3) 1.24143(16) 0.33179(15)
N6A N -0.7552(3) 0.75444(18) -0.21475(16)
O5A O -0.8785(3) 1.41529(16) 0.62720(15)
O6A O -1.1075(2) 1.55152(17) 0.85420(14)
O7A O -0.8017(2) 1.06216(16) 0.23486(13)
O8A O -0.8820(2) 0.90244(15) 0.03473(13)
Cd1_2 Cd -0.63522(2) 0.678394(12) -0.321634(11)
Cd1A_2 Cd 0.63522(2) 0.321606(12) 1.321634(11)
Cd1A_3 Cd 0.63522(2) 1.321606(12) 1.321634(11)
N6_2 N -0.2448(3) 1.24556(18) 0.21475(16)
N6A_2 N 0.2448(3) 0.75444(18) 0.78525(16)
O1A_2 O -0.5201(2) 1.42414(15) 0.20814(14)
O2A_2 O -0.3382(3) 1.45713(15) 0.25415(13)
O9 O 0.6554(7) 1.1148(4) 0.5798(4)
C51 C 0.6536(14) 1.1599(6) 0.6371(6)
O10 O 1.4101(9) 0.0323(5) -0.0715(6)
C52 C 1.4422(12) 0.0332(11) -0.1727(13)
loop_
_geom_bond_atom_site_label_1
_geom_bond_atom_site_label_2
_geom_bond_site_symmetry_1
_geom_bond_site_symmetry_2
Cd1 N3 1_555 1_555
C1 C2 1_555 1_555
C2 C3 1_555 1_555
C3 H1 1_555 1_555
C4 C3 1_555 1_555
H2 C4 1_555 1_555
C5 C4 1_555 1_555
H3 C5 1_555 1_555
C6 C5 1_555 1_555
H4 C6 1_555 1_555
C7 C2 1_555 1_555
C8 C9 1_555 1_555
C9 C10 1_555 1_555
C10 H5 1_555 1_555
C11 C10 1_555 1_555
H6 C11 1_555 1_555
C12 C11 1_555 1_555
H7 C12 1_555 1_555
C13 C12 1_555 1_555
H8 C13 1_555 1_555
C14 C9 1_555 1_555
C15 H9 1_555 1_555
C16 C15 1_555 1_555
H10 C16 1_555 1_555
C17 C16 1_555 1_555
C18 C17 1_555 1_555
H11 C18 1_555 1_555
C19 C18 1_555 1_555
H12 C19 1_555 1_555
C20 C17 1_555 1_555
H13 C20 1_555 1_555
H14 C20 1_555 1_555
C21 C22 1_555 1_555
C22 H15 1_555 1_555
C23 C22 1_555 1_555
H16 C23 1_555 1_555
C24 C23 1_555 1_555
H17 C24 1_555 1_555
C25 C24 1_555 1_555
C26 C21 1_555 1_555
H18 C26 1_555 1_555
C27 H19 1_555 1_555
H20 C27 1_555 1_555
C28 C27 1_555 1_555
C29 C28 1_555 1_555
H21 C29 1_555 1_555
C30 C29 1_555 1_555
H22 C30 1_555 1_555
C31 H23 1_555 1_555
C32 C28 1_555 1_555
H24 C32 1_555 1_555
C33 H25 1_555 1_555
C34 C33 1_555 1_555
H26 C34 1_555 1_555
C35 C34 1_555 1_555
C36 C35 1_555 1_555
H27 C36 1_555 1_555
C37 C36 1_555 1_555
H28 C37 1_555 1_555
C38 C35 1_555 1_555
H29 C38 1_555 1_555
H30 C38 1_555 1_555
C39 C40 1_555 1_555
C40 H31 1_555 1_555
C41 C40 1_555 1_555
H32 C41 1_555 1_555
C42 C41 1_555 1_555
H33 C42 1_555 1_555
C43 C42 1_555 1_555
C44 C39 1_555 1_555
H34 C44 1_555 1_555
C45 H35 1_555 1_555
H36 C45 1_555 1_555
C46 C45 1_555 1_555
C47 C46 1_555 1_555
H37 C47 1_555 1_555
C48 C47 1_555 1_555
H38 C48 1_555 1_555
C49 H39 1_555 1_555
C50 C46 1_555 1_555
H40 C50 1_555 1_555
N1 C7 1_555 1_555
N2 C14 1_555 1_555
N3 C15 1_555 1_555
N4 C30 1_555 1_555
N5 Cd1 1_555 1_555
N6 C48 1_555 1_555
O1 Cd1 1_555 1_555
O2 Cd1 1_555 1_555
O3 Cd1 1_555 1_555
O4 Cd1 1_555 1_555
O5 C20 1_555 1_555
O6 C25 1_555 1_555
O7 C38 1_555 1_555
O8 C43 1_555 1_555
O9 C51 1_555 1_555
O10 C52 1_555 1_555
C1A C2A 1_555 1_555
C2A C3A 1_555 1_555
C3A H1A 1_555 1_555
C4A C3A 1_555 1_555
H2A C4A 1_555 1_555
C5A C4A 1_555 1_555
H3A C5A 1_555 1_555
C6A C5A 1_555 1_555
H4A C6A 1_555 1_555
C7A C2A 1_555 1_555
N1A N1 1_555 1_555
O1A C1A 1_555 1_555
O2A C1A 1_555 1_555
C8A C9A 1_555 1_555
C9A C10A 1_555 1_555
C10A H5A 1_555 1_555
C11A C10A 1_555 1_555
H6A C11A 1_555 1_555
C12A C11A 1_555 1_555
H7A C12A 1_555 1_555
C13A C12A 1_555 1_555
H8A C13A 1_555 1_555
C14A C9A 1_555 1_555
N2A N2 1_555 1_555
O3A C8A 1_555 1_555
O4A C8A 1_555 1_555
Cd1A O3A 1_555 1_555
C15A H9A 1_555 1_555
C16A C15A 1_555 1_555
H10A C16A 1_555 1_555
C17A C16A 1_555 1_555
C18A C17A 1_555 1_555
H11A C18A 1_555 1_555
C19A C18A 1_555 1_555
H12A C19A 1_555 1_555
C20A C17A 1_555 1_555
H13A C20A 1_555 1_555
H14A C20A 1_555 1_555
C21A C22A 1_555 1_555
C22A H15A 1_555 1_555
C23A C22A 1_555 1_555
H16A C23A 1_555 1_555
C24A C23A 1_555 1_555
H17A C24A 1_555 1_555
C25A C24A 1_555 1_555
C26A C21A 1_555 1_555
H18A C26A 1_555 1_555
C27A H19A 1_555 1_555
H20A C27A 1_555 1_555
C28A C27A 1_555 1_555
C29A C28A 1_555 1_555
H21A C29A 1_555 1_555
C30A C29A 1_555 1_555
H22A C30A 1_555 1_555
C31A H23A 1_555 1_555
C32A C28A 1_555 1_555
H24A C32A 1_555 1_555
C33A H25A 1_555 1_555
C34A C33A 1_555 1_555
H26A C34A 1_555 1_555
C35A C34A 1_555 1_555
C36A C35A 1_555 1_555
H27A C36A 1_555 1_555
C37A C36A 1_555 1_555
H28A C37A 1_555 1_555
C38A C35A 1_555 1_555
H29A C38A 1_555 1_555
H30A C38A 1_555 1_555
C39A C40A 1_555 1_555
C40A H31A 1_555 1_555
C41A C40A 1_555 1_555
H32A C41A 1_555 1_555
C42A C41A 1_555 1_555
H33A C42A 1_555 1_555
C43A C42A 1_555 1_555
C44A C39A 1_555 1_555
H34A C44A 1_555 1_555
C45A H35A 1_555 1_555
H36A C45A 1_555 1_555
C46A C45A 1_555 1_555
C47A C46A 1_555 1_555
H37A C47A 1_555 1_555
C48A C47A 1_555 1_555
H38A C48A 1_555 1_555
C49A H39A 1_555 1_555
C50A C46A 1_555 1_555
H40A C50A 1_555 1_555
N3A Cd1A 1_555 1_555
N4A C30A 1_555 1_555
N5A Cd1A 1_555 1_555
N6A C48A 1_555 1_555
O5A C20A 1_555 1_555
O6A C25A 1_555 1_555
O7A C38A 1_555 1_555
O8A C43A 1_555 1_555
Cd1_2 N6A 1_555 1_555
Cd1A_2 O1A 1_555 1_555
Cd1A_3 N6 1_555 1_555
N6_2 Cd1A 1_555 1_555
N6A_2 Cd1 1_555 1_555
O1A_2 Cd1A 1_555 1_555
O2A_2 Cd1A 1_555 1_555
C1 O1 1_555 1_555
C1 O2 1_555 1_555
C6 C7 1_555 1_555
C8 O3 1_555 1_555
C8 O4 1_555 1_555
C13 C14 1_555 1_555
C19 N3 1_555 1_555
C21 O5 1_555 1_555
C25 C26 1_555 1_555
C27 O6 1_555 1_555
C31 C32 1_555 1_555
C31 N4 1_555 1_555
C33 N5 1_555 1_555
C37 N5 1_555 1_555
C39 O7 1_555 1_555
C43 C44 1_555 1_555
C45 O8 1_555 1_555
C49 C50 1_555 1_555
C49 N6 1_555 1_555
C6A C7A 1_555 1_555
C7A N1A 1_555 1_555
O2A Cd1A_2 1_555 1_555
C13A C14A 1_555 1_555
C14A N2A 1_555 1_555
O4A Cd1A 1_555 1_555
C15A N3A 1_555 1_555
C19A N3A 1_555 1_555
C21A O5A 1_555 1_555
C25A C26A 1_555 1_555
C27A O6A 1_555 1_555
C31A C32A 1_555 1_555
C31A N4A 1_555 1_555
C33A N5A 1_555 1_555
C37A N5A 1_555 1_555
C39A O7A 1_555 1_555
C43A C44A 1_555 1_555
C45A O8A 1_555 1_555
C49A C50A 1_555 1_555
C49A N6A 1_555 1_555

#END
