
#######################################################################
#
#                 Cambridge Crystallographic Data Centre
#                                CCDC 
#
#######################################################################
#
# If this CIF has been generated from an entry in the Cambridge 
# Structural Database, then it will include bibliographic, chemical, 
# crystal, experimental, refinement or atomic coordinate data resulting 
# from the CCDC's data processing and validation procedures.
#
#######################################################################

data_KOQDIF
_symmetry_cell_setting           monoclinic
_symmetry_space_group_name_H-M   'P 21/c'
_symmetry_Int_Tables_number      14
_space_group_name_Hall           '-P 2ybc'
loop_
_symmetry_equiv_pos_site_id
_symmetry_equiv_pos_as_xyz
1 x,y,z
2 -x,1/2+y,1/2-z
3 -x,-y,-z
4 x,1/2-y,1/2+z
_cell_length_a                   20.660(4)
_cell_length_b                   20.899(4)
_cell_length_c                   18.580(4)
_cell_angle_alpha                90
_cell_angle_beta                 102.46(3)
_cell_angle_gamma                90
_cell_volume                     7833.4
loop_
_atom_site_label
_atom_site_type_symbol
_atom_site_fract_x
_atom_site_fract_y
_atom_site_fract_z
Cd1 Cd 0.471589(12) 0.165065(11) 0.656259(14)
Cd2 Cd 1.040425(12) 0.650225(11) 0.685107(14)
C1 C 0.5568(3) -0.38345(19) 1.0157(2)
H1 H 0.5374 -0.4203 0.9927
C2 C 0.5827(3) -0.3850(2) 1.0895(3)
H2 H 0.5812 -0.4225 1.1161
C3 C 0.6110(3) -0.3309(2) 1.1243(2)
H3 H 0.6291 -0.3314 1.1747
C4 C 0.61256(18) -0.27536(17) 1.08395(19)
C5 C 0.58539(19) -0.27852(17) 1.0095(2)
H4 H 0.5861 -0.2417 0.9815
C6 C 0.6399(2) -0.21471(18) 1.1217(2)
H5 H 0.6189 -0.2057 1.1625
H6 H 0.6872 -0.2190 1.1410
C7 C 0.62801(17) -0.10260(17) 1.09633(19)
C8 C 0.65094(18) -0.08617(19) 1.16898(19)
H7 H 0.6694 -0.1167 1.2038
C9 C 0.64577(19) -0.02313(19) 1.1887(2)
H8 H 0.6602 -0.0117 1.2379
C10 C 0.62017(19) 0.02326(19) 1.13854(19)
H9 H 0.6169 0.0654 1.1534
C11 C 0.59914(17) 0.00593(18) 1.06482(19)
C12 C 0.60301(17) -0.05675(17) 1.04338(19)
H10 H 0.5891 -0.0683 0.9941
C13 C 0.56508(18) 0.04421(17) 0.94106(18)
H11 H 0.5305 0.0128 0.9244
H12 H 0.6060 0.0281 0.9304
C14 C 0.54694(17) 0.10634(17) 0.90212(19)
C15 C 0.55726(19) 0.16440(18) 0.9376(2)
H13 H 0.5743 0.1661 0.9882
C16 C 0.5422(2) 0.22012(19) 0.8978(2)
H14 H 0.5488 0.2597 0.9211
C17 C 0.51756(18) 0.21629(18) 0.8234(2)
H15 H 0.5084 0.2541 0.7968
C18 C 0.52010(16) 0.10727(16) 0.82675(19)
H16 H 0.5114 0.0683 0.8024
C19 C 0.42161(19) 0.28708(17) 0.66304(19)
C20 C 0.39024(17) 0.35198(15) 0.66412(18)
C21 C 0.32788(19) 0.36310(18) 0.6208(2)
H17 H 0.3056 0.3302 0.5920
C22 C 0.29821(19) 0.42272(19) 0.6199(2)
H18 H 0.2567 0.4301 0.5898
C23 C 0.3307(2) 0.47108(18) 0.6640(2)
H19 H 0.3108 0.5110 0.6640
C24 C 0.39186(18) 0.46045(16) 0.7077(2)
H20 H 0.4131 0.4929 0.7381
C25 C 0.42236(17) 0.40154(15) 0.70676(18)
C26 C 0.57872(17) 0.42467(16) 0.8260(2)
C27 C 0.6087(2) 0.36528(18) 0.8375(3)
H21 H 0.5921 0.3310 0.8072
C28 C 0.6630(3) 0.3574(2) 0.8937(4)
H22 H 0.6824 0.3172 0.9024
C29 C 0.6891(2) 0.4077(3) 0.9371(4)
H23 H 0.7258 0.4016 0.9755
C30 C 0.6611(2) 0.4672(2) 0.9241(3)
H24 H 0.6797 0.5016 0.9530
C31 C 0.60536(17) 0.47672(16) 0.8685(2)
C32 C 0.57542(19) 0.54216(16) 0.85643(18)
C33 C 0.89117(19) 0.69791(17) 0.5971(2)
H25 H 0.9137 0.7366 0.5987
C34 C 0.8244(2) 0.69665(19) 0.5667(3)
H26 H 0.8020 0.7341 0.5494
C35 C 0.79101(19) 0.63891(19) 0.5622(2)
H27 H 0.7458 0.6371 0.5419
C36 C 0.82531(17) 0.58412(17) 0.58799(19)
C37 C 0.89174(17) 0.59084(17) 0.6190(2)
H28 H 0.9153 0.5544 0.6375
C38 C 0.79412(18) 0.51934(17) 0.5794(2)
H29 H 0.8136 0.4922 0.6207
H30 H 0.7468 0.5225 0.5768
C39 C 0.78431(17) 0.43419(16) 0.4906(2)
C40 C 0.79536(18) 0.41603(17) 0.4228(2)
H31 H 0.8163 0.4438 0.3960
C41 C 0.7753(2) 0.35680(19) 0.3954(2)
H32 H 0.7825 0.3446 0.3496
C42 C 0.7450(2) 0.31542(19) 0.4346(2)
H33 H 0.7312 0.2754 0.4152
C43 C 0.73478(17) 0.33309(16) 0.5030(2)
C44 C 0.75380(17) 0.39318(16) 0.5317(2)
H34 H 0.7463 0.4056 0.5773
C45 C 0.7040(2) 0.29780(18) 0.6139(2)
H35 H 0.6744 0.3331 0.6178
H36 H 0.7478 0.3080 0.6426
C46 C 0.67882(17) 0.23697(17) 0.6413(2)
C47 C 0.72124(19) 0.1889(2) 0.6730(2)
H37 H 0.7669 0.1947 0.6809
C48 C 0.6958(2) 0.1325(2) 0.6928(2)
H38 H 0.7237 0.0992 0.7131
C49 C 0.6279(2) 0.12633(18) 0.6820(2)
H39 H 0.6106 0.0878 0.6944
C50 C 0.61208(17) 0.22699(16) 0.6346(2)
H40 H 0.5832 0.2598 0.6149
C51 C 1.0325(2) 0.60552(19) 0.5140(2)
H41 H 1.0148 0.5690 0.5308
C52 C 1.0361(2) 0.6085(2) 0.4415(2)
H42 H 1.0213 0.5746 0.4098
C53 C 1.0622(2) 0.6627(2) 0.4164(2)
H43 H 1.0650 0.6657 0.3672
C54 C 1.08404(18) 0.71247(17) 0.46396(19)
C55 C 1.07835(18) 0.70484(17) 0.53580(19)
H44 H 1.0928 0.7381 0.5685
C56 C 1.1136(2) 0.77160(17) 0.43952(19)
H45 H 1.1612 0.7667 0.4464
H46 H 1.0953 0.7794 0.3876
C57 C 1.12241(17) 0.88280(17) 0.47122(19)
C58 C 1.15333(19) 0.89794(18) 0.4144(2)
H47 H 1.1596 0.8671 0.3805
C59 C 1.1745(2) 0.9598(2) 0.4093(2)
H48 H 1.1958 0.9702 0.3716
C60 C 1.1653(2) 1.00674(19) 0.4579(2)
H49 H 1.1801 1.0483 0.4534
C61 C 1.13345(18) 0.99057(18) 0.5138(2)
C62 C 1.11242(18) 0.92928(18) 0.5209(2)
H50 H 1.0915 0.9189 0.5589
C63 C 1.06112(19) 1.0473(2) 0.5728(2)
H51 H 1.0479 1.0100 0.5973
H52 H 1.0308 1.0518 0.5253
C64 C 1.05764(17) 1.10572(17) 0.6185(2)
C65 C 1.0902(2) 1.1616(2) 0.6093(3)
H53 H 1.1175 1.1636 0.5756
C66 C 1.0817(2) 1.2147(2) 0.6507(3)
H54 H 1.1031 1.2530 0.6452
C67 C 1.04140(19) 1.20984(18) 0.6998(2)
H55 H 1.0356 1.2458 0.7272
C68 C 1.01872(17) 1.10525(17) 0.6700(2)
H56 H 0.9973 1.0674 0.6770
C69 C 1.08993(18) 0.77353(15) 0.70911(19)
C70 C 1.12050(15) 0.83908(14) 0.71736(17)
C71 C 1.18613(17) 0.84636(17) 0.7109(2)
H57 H 1.2105 0.8107 0.7028
C72 C 1.21514(18) 0.9065(2) 0.7165(2)
H58 H 1.2588 0.9111 0.7118
C73 C 1.1796(2) 0.95942(19) 0.7290(2)
H59 H 1.1994 0.9996 0.7332
C74 C 1.11530(19) 0.95312(16) 0.73542(19)
H60 H 1.0916 0.9890 0.7445
C75 C 1.08514(16) 0.89336(14) 0.72845(17)
C76 C 0.91586(17) 0.91762(15) 0.73063(19)
C77 C 0.8861(2) 0.85970(17) 0.7073(2)
H61 H 0.9096 0.8286 0.6878
C78 C 0.8218(2) 0.84802(19) 0.7130(3)
H62 H 0.8021 0.8089 0.6979
C79 C 0.7869(2) 0.8941(2) 0.7409(3)
H63 H 0.7438 0.8859 0.7457
C80 C 0.81568(18) 0.95260(18) 0.7620(2)
H64 H 0.7912 0.9840 0.7795
C81 C 0.88064(16) 0.96537(15) 0.75762(18)
C82 C 0.91086(19) 1.02918(16) 0.78327(19)
N1 N 0.55822(16) -0.33099(14) 0.97500(16)
N2 N 0.50604(14) 0.16080(13) 0.78727(15)
N3 N 0.48349(14) 0.38807(12) 0.75706(16)
N4 N 0.52071(14) 0.43591(13) 0.76959(17)
N5 N 0.92456(14) 0.64614(13) 0.62420(16)
N6 N 0.58611(14) 0.17299(13) 0.65457(16)
N7 N 1.05342(15) 0.65291(14) 0.56185(16)
N8 N 1.00996(14) 1.15624(13) 0.71044(16)
N9 N 1.01941(14) 0.88427(12) 0.73984(15)
N10 N 0.98184(14) 0.93028(13) 0.72013(16)
O1 O 0.62730(13) -0.16391(11) 1.06940(13)
O2 O 0.57301(14) 0.05455(12) 1.01795(13)
O3 O 0.47987(13) 0.28328(11) 0.65627(14)
O4 O 0.38718(13) 0.23920(12) 0.66828(17)
O5 O 0.61371(12) 0.58790(11) 0.85475(14)
O6 O 0.51422(12) 0.54895(11) 0.85029(14)
O7 O 0.80636(13) 0.49406(11) 0.51304(14)
O8 O 0.70637(13) 0.28714(12) 0.53932(15)
O9 O 1.09863(14) 0.82360(12) 0.48238(14)
O10 O 1.12586(13) 1.03888(12) 0.56264(16)
O11 O 1.03160(12) 0.76688(11) 0.67453(13)
O12 O 1.12526(12) 0.72711(11) 0.73598(16)
O13 O 0.87372(12) 1.07709(11) 0.77308(14)
O14 O 0.97065(13) 1.03222(12) 0.81289(16)
Cd1A Cd 0.528411(12) -0.334935(11) 0.843741(14)
Cd1A_2 Cd 0.528411(12) 0.665065(11) 0.843741(14)
Cd2A Cd 0.959575(12) 1.150225(11) 0.814893(14)
N1A N 0.44178(16) 0.16901(14) 0.52500(16)
N8A N 0.99004(14) 0.65624(13) 0.78956(16)
O5A O 0.38629(12) 0.08790(11) 0.64525(14)
O6A O 0.48578(12) 0.04895(11) 0.64971(14)
O13A O 1.12628(12) 0.57709(11) 0.72692(14)
O14A O 1.02935(13) 0.53222(12) 0.68711(16)
O15 O 0.2621(2) 0.2283(2) 0.7059(3)
H65 H 0.2619 0.2183 0.6615
H66 H 0.2617 0.1963 0.7341
O16 O 0.7487(2) 0.5988(2) 0.8482(3)
H67 H 0.7121 0.5924 0.8610
H68 H 0.7698 0.5778 0.8850
O17 O 1.0231(8) 1.1550(8) 0.4407(8)
H69 H 1.0392 1.1765 0.4793
H70 H 1.0628 1.1464 0.4385
O18 O 0.7379(9) 0.8184(11) 0.4573(17)
H71 H 0.7416 0.8400 0.4968
H72 H 0.7092 0.7912 0.4640
loop_
_geom_bond_atom_site_label_1
_geom_bond_atom_site_label_2
_geom_bond_site_symmetry_1
_geom_bond_site_symmetry_2
Cd1 N2 1_555 1_555
Cd2 N5 1_555 1_555
C1 H1 1_555 1_555
C2 C1 1_555 1_555
H2 C2 1_555 1_555
C3 C2 1_555 1_555
H3 C3 1_555 1_555
C4 C3 1_555 1_555
C5 C4 1_555 1_555
H4 C5 1_555 1_555
C6 C4 1_555 1_555
H5 C6 1_555 1_555
H6 C6 1_555 1_555
C7 C8 1_555 1_555
C8 H7 1_555 1_555
C9 C8 1_555 1_555
H8 C9 1_555 1_555
C10 C9 1_555 1_555
H9 C10 1_555 1_555
C11 C10 1_555 1_555
C12 C7 1_555 1_555
H10 C12 1_555 1_555
C13 H11 1_555 1_555
H12 C13 1_555 1_555
C14 C13 1_555 1_555
C15 C14 1_555 1_555
H13 C15 1_555 1_555
C16 C15 1_555 1_555
H14 C16 1_555 1_555
C17 C16 1_555 1_555
H15 C17 1_555 1_555
C18 C14 1_555 1_555
H16 C18 1_555 1_555
C19 C20 1_555 1_555
C20 C21 1_555 1_555
C21 H17 1_555 1_555
C22 C21 1_555 1_555
H18 C22 1_555 1_555
C23 C22 1_555 1_555
H19 C23 1_555 1_555
C24 C23 1_555 1_555
H20 C24 1_555 1_555
C25 C20 1_555 1_555
C26 C27 1_555 1_555
C27 H21 1_555 1_555
C28 C27 1_555 1_555
H22 C28 1_555 1_555
C29 C28 1_555 1_555
H23 C29 1_555 1_555
C30 C29 1_555 1_555
H24 C30 1_555 1_555
C31 C26 1_555 1_555
C32 C31 1_555 1_555
C33 H25 1_555 1_555
C34 C33 1_555 1_555
H26 C34 1_555 1_555
C35 C34 1_555 1_555
H27 C35 1_555 1_555
C36 C35 1_555 1_555
C37 C36 1_555 1_555
H28 C37 1_555 1_555
C38 C36 1_555 1_555
H29 C38 1_555 1_555
H30 C38 1_555 1_555
C39 C40 1_555 1_555
C40 H31 1_555 1_555
C41 C40 1_555 1_555
H32 C41 1_555 1_555
C42 C41 1_555 1_555
H33 C42 1_555 1_555
C43 C42 1_555 1_555
C44 C39 1_555 1_555
H34 C44 1_555 1_555
C45 H35 1_555 1_555
H36 C45 1_555 1_555
C46 C45 1_555 1_555
C47 C46 1_555 1_555
H37 C47 1_555 1_555
C48 C47 1_555 1_555
H38 C48 1_555 1_555
C49 C48 1_555 1_555
H39 C49 1_555 1_555
C50 C46 1_555 1_555
H40 C50 1_555 1_555
C51 H41 1_555 1_555
C52 C51 1_555 1_555
H42 C52 1_555 1_555
C53 C52 1_555 1_555
H43 C53 1_555 1_555
C54 C53 1_555 1_555
C55 C54 1_555 1_555
H44 C55 1_555 1_555
C56 C54 1_555 1_555
H45 C56 1_555 1_555
H46 C56 1_555 1_555
C57 C58 1_555 1_555
C58 H47 1_555 1_555
C59 C58 1_555 1_555
H48 C59 1_555 1_555
C60 C59 1_555 1_555
H49 C60 1_555 1_555
C61 C60 1_555 1_555
C62 C57 1_555 1_555
H50 C62 1_555 1_555
C63 H51 1_555 1_555
H52 C63 1_555 1_555
C64 C63 1_555 1_555
C65 C64 1_555 1_555
H53 C65 1_555 1_555
C66 C65 1_555 1_555
H54 C66 1_555 1_555
C67 C66 1_555 1_555
H55 C67 1_555 1_555
C68 C64 1_555 1_555
H56 C68 1_555 1_555
C69 C70 1_555 1_555
C70 C71 1_555 1_555
C71 H57 1_555 1_555
C72 C71 1_555 1_555
H58 C72 1_555 1_555
C73 C72 1_555 1_555
H59 C73 1_555 1_555
C74 C73 1_555 1_555
H60 C74 1_555 1_555
C75 C70 1_555 1_555
C76 C77 1_555 1_555
C77 H61 1_555 1_555
C78 C77 1_555 1_555
H62 C78 1_555 1_555
C79 C78 1_555 1_555
H63 C79 1_555 1_555
C80 C79 1_555 1_555
H64 C80 1_555 1_555
C81 C76 1_555 1_555
C82 C81 1_555 1_555
N1 C1 1_555 1_555
N2 C17 1_555 1_555
N3 C25 1_555 1_555
N4 C26 1_555 1_555
N5 C33 1_555 1_555
N6 Cd1 1_555 1_555
N7 Cd2 1_555 1_555
N8 C67 1_555 1_555
N9 C75 1_555 1_555
N10 C76 1_555 1_555
O1 C6 1_555 1_555
O2 C11 1_555 1_555
O3 Cd1 1_555 1_555
O4 Cd1 1_555 1_555
O5 C32 1_555 1_555
O6 C32 1_555 1_555
O7 C38 1_555 1_555
O8 C43 1_555 1_555
O9 C56 1_555 1_555
O10 C61 1_555 1_555
O11 Cd2 1_555 1_555
O12 Cd2 1_555 1_555
O13 C82 1_555 1_555
O14 C82 1_555 1_555
O15 H65 1_555 1_555
H66 O15 1_555 1_555
O16 H67 1_555 1_555
H68 O16 1_555 1_555
O17 H69 1_555 1_555
H70 O17 1_555 1_555
O18 H71 1_555 1_555
H72 O18 1_555 1_555
Cd1A N1 1_555 1_555
Cd1A_2 O5 1_555 1_555
Cd2A N8 1_555 1_555
N1A Cd1 1_555 1_555
N8A Cd2 1_555 1_555
O5A Cd1 1_555 1_555
O6A Cd1 1_555 1_555
O13A Cd2 1_555 1_555
O14A Cd2 1_555 1_555
C5 N1 1_555 1_555
C7 O1 1_555 1_555
C11 C12 1_555 1_555
C13 O2 1_555 1_555
C18 N2 1_555 1_555
C19 O3 1_555 1_555
C19 O4 1_555 1_555
C24 C25 1_555 1_555
C30 C31 1_555 1_555
C37 N5 1_555 1_555
C39 O7 1_555 1_555
C43 C44 1_555 1_555
C45 O8 1_555 1_555
C49 N6 1_555 1_555
C50 N6 1_555 1_555
C51 N7 1_555 1_555
C55 N7 1_555 1_555
C57 O9 1_555 1_555
C61 C62 1_555 1_555
C63 O10 1_555 1_555
C68 N8 1_555 1_555
C69 O11 1_555 1_555
C69 O12 1_555 1_555
C74 C75 1_555 1_555
C80 C81 1_555 1_555
N3 N4 1_555 1_555
N9 N10 1_555 1_555
O6 Cd1A_2 1_555 1_555
O13 Cd2A 1_555 1_555
O14 Cd2A 1_555 1_555

#END
