
#######################################################################
#
#                 Cambridge Crystallographic Data Centre
#                                CCDC 
#
#######################################################################
#
# If this CIF has been generated from an entry in the Cambridge 
# Structural Database, then it will include bibliographic, chemical, 
# crystal, experimental, refinement or atomic coordinate data resulting 
# from the CCDC's data processing and validation procedures.
#
#######################################################################

data_KOQHUV01
_symmetry_cell_setting           triclinic
_symmetry_space_group_name_H-M   'P -1'
_symmetry_Int_Tables_number      2
_space_group_name_Hall           '-P 1'
loop_
_symmetry_equiv_pos_site_id
_symmetry_equiv_pos_as_xyz
1 x,y,z
2 -x,-y,-z
_cell_length_a                   10.845(2)
_cell_length_b                   11.838(2)
_cell_length_c                   13.355(3)
_cell_angle_alpha                104.33(3)
_cell_angle_beta                 103.07(3)
_cell_angle_gamma                114.98(3)
_cell_volume                     1395.01
loop_
_atom_site_label
_atom_site_type_symbol
_atom_site_fract_x
_atom_site_fract_y
_atom_site_fract_z
W1 W 1.10990(7) 0.85834(7) 0.79692(6)
W2 W 1.37542(7) 1.10556(7) 1.06123(5)
W3 W 1.12816(7) 0.77713(7) 1.03310(6)
W4 W 0.73562(8) 0.75605(7) 0.73645(6)
W5 W 0.75208(8) 0.67113(7) 0.97350(6)
W6 W 1.01854(8) 0.91858(8) 1.23773(7)
Si1 Si 1.0000 1.0000 1.0000
O1 O 0.985(2) 0.880(2) 1.044(2)
O2 O 0.9686(19) 0.9410(18) 0.8630(15)
O3 O 1.1727(18) 1.1266(16) 1.0647(14)
O4 O 1.1120(19) 0.9536(17) 0.9846(15)
O5 O 0.708(2) 0.6448(19) 0.8173(16)
O6 O 1.0860(16) 0.9867(18) 0.746(2)
O7 O 0.629(3) 0.749(2) 0.9733(15)
O8 O 0.8075(17) 0.9114(17) 0.703(2)
O9 O 1.5558(13) 1.1584(16) 1.0932(14)
O10 O 1.186(2) 0.6736(15) 1.0503(13)
O11 O 0.6066(13) 0.6366(13) 0.6094(10)
O12 O 1.1630(17) 0.7928(15) 0.6986(11)
O13 O 1.1062(16) 0.7562(14) 0.8840(10)
O14 O 1.3070(17) 0.9404(14) 1.0812(11)
O15 O 0.6368(16) 0.5140(13) 0.9578(15)
O16 O 1.0322(17) 0.8839(17) 1.3515(13)
O17 O 0.9202(15) 0.661(2) 0.9772(12)
O18 O 1.2915(17) 1.0025(15) 0.9062(11)
O19 O 0.9016(15) 0.7454(17) 0.728(2)
O20 O 0.8366(17) 0.763(2) 1.1302(14)
O21 O 1.382(3) 1.188(2) 1.2045(13)
O22 O 1.1193(16) 0.843(2) 1.1754(12)
Cu1 Cu 0.4979(3) 0.4101(3) 0.6412(4)
N1 N 0.3239(17) 0.4101(18) 0.6472(18)
N2 N -0.3372(17) 0.3934(18) 0.6354(17)
C1 C 0.204(2) 0.335(2) 0.558(2)
H1 H 0.2056 0.2795 0.4966
C2 C 0.072(2) 0.333(2) 0.5500(15)
H2 H -0.0104 0.2809 0.4838
C3 C 0.0670(16) 0.4118(17) 0.6446(14)
C4 C -0.0711(17) 0.4089(17) 0.6452(15)
C5 C -0.171(2) 0.387(2) 0.5456(16)
H3 H -0.1505 0.3799 0.4812
C6 C -0.304(2) 0.378(2) 0.547(2)
H4 H -0.3730 0.3584 0.4799
C7 C -0.241(2) 0.4091(19) 0.7268(19)
H5 H -0.2666 0.4107 0.7888
C8 C -0.107(2) 0.423(2) 0.7368(16)
H6 H -0.0407 0.4419 0.8052
C9 C 0.194(2) 0.487(2) 0.737(2)
H7 H 0.1944 0.5414 0.8015
C10 C 0.321(2) 0.486(3) 0.739(2)
H8 H 0.4050 0.5377 0.8043
O1A O 1.015(2) 1.120(2) 0.956(2)
O2A O 1.0314(19) 1.0590(18) 1.1370(15)
O3A O 0.8273(18) 0.8734(16) 0.9353(14)
O4A O 0.8880(19) 1.0464(17) 1.0154(15)
W1A W 0.89010(7) 1.14166(7) 1.20308(6)
W2A W 0.62458(7) 0.89444(7) 0.93877(5)
W3A W 0.87184(7) 1.22287(7) 0.96690(6)
W4A W 1.26438(8) 1.24395(7) 1.26355(6)
W5A W 1.24792(8) 1.32887(7) 1.02650(6)
W6A W 0.98146(8) 1.08142(8) 0.76227(7)
O5A O 1.292(2) 1.3552(19) 1.1827(16)
O6A O 0.9140(16) 1.0133(18) 1.254(2)
O7A O 1.371(3) 1.251(2) 1.0267(15)
O8A O 1.1925(17) 1.0886(17) 1.297(2)
O9A O 0.4442(13) 0.8416(16) 0.9068(14)
O10A O 0.814(2) 1.3264(15) 0.9497(13)
O11A O 1.3934(13) 1.3634(13) 1.3906(10)
O12A O 0.8370(17) 1.2072(15) 1.3014(11)
O13A O 0.8938(16) 1.2438(14) 1.1160(10)
O14A O 0.6930(17) 1.0596(14) 0.9188(11)
O15A O 1.3632(16) 1.4860(13) 1.0422(15)
O16A O 0.9678(17) 1.1161(17) 0.6485(13)
O17A O 1.0798(15) 1.339(2) 1.0228(12)
O18A O 0.7085(17) 0.9975(15) 1.0938(11)
O19A O 1.0984(15) 1.2546(17) 1.272(2)
O20A O 1.1634(17) 1.237(2) 0.8698(14)
O21A O 0.618(3) 0.812(2) 0.7955(13)
O22A O 0.8807(16) 1.157(2) 0.8246(12)
Cu1A Cu 1.5021(3) 1.5899(3) 1.3588(4)
N1A N 1.6761(17) 1.5899(18) 1.3528(18)
N2A N 2.3372(17) 1.6066(18) 1.3646(17)
C1A C 1.796(2) 1.665(2) 1.442(2)
H1A H 1.7944 1.7205 1.5034
C2A C 1.928(2) 1.667(2) 1.4500(15)
H2A H 2.0104 1.7191 1.5162
C3A C 1.9330(16) 1.5882(17) 1.3554(14)
C4A C 2.0711(17) 1.5911(17) 1.3548(15)
C5A C 2.171(2) 1.613(2) 1.4544(16)
H3A H 2.1505 1.6201 1.5188
C6A C 2.304(2) 1.622(2) 1.453(2)
H4A H 2.3730 1.6416 1.5201
C7A C 2.241(2) 1.5909(19) 1.2732(19)
H5A H 2.2666 1.5893 1.2112
C8A C 2.107(2) 1.577(2) 1.2632(16)
H6A H 2.0407 1.5581 1.1948
C9A C 1.806(2) 1.513(2) 1.263(2)
H7A H 1.8056 1.4586 1.1985
C10A C 1.679(2) 1.514(3) 1.261(2)
H8A H 1.5950 1.4623 1.1957
Cu1_2 Cu -0.5021(3) 0.4101(3) 0.6412(4)
Cu1A_2 Cu 2.5021(3) 1.5899(3) 1.3588(4)
N2_2 N 0.6628(17) 0.3934(18) 0.6354(17)
N2A_2 N 1.3372(17) 1.6066(18) 1.3646(17)
N3 N 0.600(3) 0.797(3) 0.2034(19)
C11 C 0.696(3) 0.840(4) 0.311(2)
C12 C 0.671(3) 0.900(4) 0.4019(17)
C13 C 0.550(3) 0.919(3) 0.3843(19)
C14 C 0.455(3) 0.876(4) 0.276(2)
C15 C 0.480(3) 0.815(4) 0.1858(17)
C16 C 0.587(5) 0.984(5) 0.564(4)
C17 C 0.499(4) 0.969(4) 0.477(3)
N3A N 0.400(3) 1.203(3) 0.7966(19)
C11A C 0.304(3) 1.160(4) 0.689(2)
C12A C 0.329(3) 1.100(4) 0.5981(17)
C13A C 0.450(3) 1.081(3) 0.6157(19)
C14A C 0.545(3) 1.124(4) 0.724(2)
C15A C 0.520(3) 1.185(4) 0.8142(17)
C16A C 0.413(5) 1.016(5) 0.436(4)
C17A C 0.501(4) 1.031(4) 0.523(3)
N4? N 0.588(5) 0.942(4) 0.352(4)
C18? C 0.491(6) 0.979(5) 0.333(5)
C19? C 0.655(5) 0.954(4) 0.459(4)
loop_
_geom_bond_atom_site_label_1
_geom_bond_atom_site_label_2
_geom_bond_site_symmetry_1
_geom_bond_site_symmetry_2
W1 O2 1_555 1_555
W2 O3 1_555 1_555
W3 O1 1_555 1_555
W4 O2 1_555 1_555
W5 O1 1_555 1_555
W6 O1 1_555 1_555
Si1 O1 1_555 1_555
O1 O4 1_555 1_555
O2 Si1 1_555 1_555
O3 Si1 1_555 1_555
O4 W1 1_555 1_555
O5 W4 1_555 1_555
O6 W1 1_555 1_555
O7 W5 1_555 1_555
O8 W4 1_555 1_555
O9 W2 1_555 1_555
O10 W3 1_555 1_555
O11 W4 1_555 1_555
O12 W1 1_555 1_555
O13 W1 1_555 1_555
O14 W2 1_555 1_555
O15 W5 1_555 1_555
O16 W6 1_555 1_555
O17 W3 1_555 1_555
O18 W1 1_555 1_555
O19 W1 1_555 1_555
O20 W5 1_555 1_555
O21 W2 1_555 1_555
O22 W3 1_555 1_555
Cu1 O5 1_555 1_555
N1 Cu1 1_555 1_555
N2 C6 1_555 1_555
C1 N1 1_555 1_555
H1 C1 1_555 1_555
C2 C1 1_555 1_555
H2 C2 1_555 1_555
C3 C2 1_555 1_555
C4 C3 1_555 1_555
C5 C4 1_555 1_555
H3 C5 1_555 1_555
C6 C5 1_555 1_555
H4 C6 1_555 1_555
C7 N2 1_555 1_555
H5 C7 1_555 1_555
C8 C4 1_555 1_555
H6 C8 1_555 1_555
C9 C3 1_555 1_555
H7 C9 1_555 1_555
C10 N1 1_555 1_555
H8 C10 1_555 1_555
N3 C11 1_555 1_555
C11 C12 1_555 1_555
C12 C13 1_555 1_555
C13 C14 1_555 1_555
C14 C15 1_555 1_555
C15 N3 1_555 1_555
C16 C17 1_555 1_555
C17 C13 1_555 1_555
O1A Si1 1_555 1_555
O2A W6 1_555 1_555
O3A W4 1_555 1_555
O4A Si1 1_555 1_555
W1A O2A 1_555 1_555
W2A O7 1_555 1_555
W3A O1A 1_555 1_555
W4A O3 1_555 1_555
W5A O3 1_555 1_555
W6A O2 1_555 1_555
O5A W4A 1_555 1_555
O6A W6 1_555 1_555
O7A W2 1_555 1_555
O8A W6 1_555 1_555
O9A W2A 1_555 1_555
O10A W3A 1_555 1_555
O11A W4A 1_555 1_555
O12A W1A 1_555 1_555
O13A W1A 1_555 1_555
O14A W2A 1_555 1_555
O15A W5A 1_555 1_555
O16A W6A 1_555 1_555
O17A W3A 1_555 1_555
O18A W1A 1_555 1_555
O19A W1A 1_555 1_555
O20A W5A 1_555 1_555
O21A W4 1_555 1_555
O22A W3A 1_555 1_555
Cu1A O5A 1_555 1_555
N1A Cu1A 1_555 1_555
N2A C6A 1_555 1_555
C1A N1A 1_555 1_555
H1A C1A 1_555 1_555
C2A C1A 1_555 1_555
H2A C2A 1_555 1_555
C3A C2A 1_555 1_555
C4A C3A 1_555 1_555
C5A C4A 1_555 1_555
H3A C5A 1_555 1_555
C6A C5A 1_555 1_555
H4A C6A 1_555 1_555
C7A N2A 1_555 1_555
H5A C7A 1_555 1_555
C8A C4A 1_555 1_555
H6A C8A 1_555 1_555
C9A C3A 1_555 1_555
H7A C9A 1_555 1_555
C10A N1A 1_555 1_555
H8A C10A 1_555 1_555
Cu1_2 N2 1_555 1_555
Cu1A_2 N2A 1_555 1_555
N2_2 Cu1 1_555 1_555
N2A_2 Cu1A 1_555 1_555
N3A C11A 1_555 1_555
C11A C12A 1_555 1_555
C12A C13A 1_555 1_555
C13A C14A 1_555 1_555
C14A C15A 1_555 1_555
C15A N3A 1_555 1_555
C16A C17 1_555 1_555
C17A C16 1_555 1_555
W2 O4 1_555 1_555
W2 O18 1_555 1_555
W3 O4 1_555 1_555
W3 O13 1_555 1_555
W3 O14 1_555 1_555
W4 O19 1_555 1_555
W5 O5 1_555 1_555
W5 O17 1_555 1_555
W5 O3A 1_555 1_555
W6 O20 1_555 1_555
W6 O22 1_555 1_555
Si1 O4 1_555 1_555
Si1 O2A 1_555 1_555
Si1 O3A 1_555 1_555
O3 O4 1_555 1_555
O6 W6A 1_555 1_555
O8 W6A 1_555 1_555
O11 Cu1 1_555 1_555
O21 W4A 1_555 1_555
C7 C8 1_555 1_555
C9 C10 1_555 1_555
C17 C17A 1_555 1_555
O1A O4A 1_555 1_555
O1A W5A 1_555 1_555
O1A W6A 1_555 1_555
O2A W4A 1_555 1_555
O3A O4A 1_555 1_555
O3A W2A 1_555 1_555
O4A W1A 1_555 1_555
O4A W2A 1_555 1_555
O4A W3A 1_555 1_555
W1A O6A 1_555 1_555
W2A O18A 1_555 1_555
W2A O21A 1_555 1_555
W3A O13A 1_555 1_555
W3A O14A 1_555 1_555
W4A O8A 1_555 1_555
W4A O19A 1_555 1_555
W5A O5A 1_555 1_555
W5A O7A 1_555 1_555
W5A O17A 1_555 1_555
W6A O20A 1_555 1_555
W6A O22A 1_555 1_555
O11A Cu1A 1_555 1_555
C7A C8A 1_555 1_555
C9A C10A 1_555 1_555
C13A C17A 1_555 1_555
C16A C17A 1_555 1_555

#END
