
#######################################################################
#
#                 Cambridge Crystallographic Data Centre
#                                CCDC 
#
#######################################################################
#
# If this CIF has been generated from an entry in the Cambridge 
# Structural Database, then it will include bibliographic, chemical, 
# crystal, experimental, refinement or atomic coordinate data resulting 
# from the CCDC's data processing and validation procedures.
#
#######################################################################

data_KOQJEH
_symmetry_cell_setting           monoclinic
_symmetry_space_group_name_H-M   'P 21/c'
_symmetry_Int_Tables_number      14
_space_group_name_Hall           '-P 2ybc'
loop_
_symmetry_equiv_pos_site_id
_symmetry_equiv_pos_as_xyz
1 x,y,z
2 -x,1/2+y,1/2-z
3 -x,-y,-z
4 x,1/2-y,1/2+z
_cell_length_a                   9.8408(13)
_cell_length_b                   12.3535(16)
_cell_length_c                   8.9644(11)
_cell_angle_alpha                90
_cell_angle_beta                 95.655(2)
_cell_angle_gamma                90
_cell_volume                     1084.48
loop_
_atom_site_label
_atom_site_type_symbol
_atom_site_fract_x
_atom_site_fract_y
_atom_site_fract_z
Zn1 Zn 0.0000 0.0000 0.0000
O1 O 0.02919(13) 0.01852(9) 0.23011(13)
O2 O -0.07022(15) 0.17571(10) 0.27806(13)
O3 O 0.11076(12) -0.15346(9) 0.02324(13)
H1 H 0.1083 -0.1876 -0.0646
H2 H 0.0733 -0.1966 0.0875
N1 N -0.19014(14) -0.07489(11) 0.02461(15)
C1 C -0.01434(17) 0.08728(13) 0.31768(18)
C2 C -0.31023(19) -0.22322(14) 0.1205(2)
H3 H -0.3102 -0.2822 0.1885
C3 C -0.19653(18) -0.15841(14) 0.11942(19)
H4 H -0.1194 -0.1734 0.1886
N2 N -0.50567(15) -0.38782(13) 0.03680(18)
C4 C -0.30132(19) -0.05289(14) -0.0675(2)
H5 H -0.2991 0.0073 -0.1332
C5 C -0.62184(19) -0.45914(16) 0.0509(2)
H6 H -0.6835 -0.4582 -0.0433
H7 H -0.6739 -0.4334 0.1331
C6 C -0.41953(19) -0.11330(14) -0.0718(2)
H8 H -0.4968 -0.0941 -0.1386
C7 C -0.42496(18) -0.20208(14) 0.0217(2)
C8 C -0.5480(2) -0.27575(15) 0.0135(2)
H9 H -0.6079 -0.2544 0.0910
H10 H -0.6008 -0.2683 -0.0858
C9 C 0.00433(17) 0.06045(14) 0.48364(17)
H11 H -0.0666 0.0987 0.5344
H12 H 0.0944 0.0877 0.5265
C10 C -0.42856(19) -0.42700(15) -0.0836(2)
H13 H -0.3498 -0.3786 -0.0936
H14 H -0.4876 -0.4259 -0.1796
O1B O -0.02919(13) -0.01852(9) 0.76989(13)
O2B O 0.07022(15) -0.17571(10) 0.72194(13)
C1B C 0.01434(17) -0.08728(13) 0.68232(18)
C9B C -0.00433(17) -0.06045(14) 0.51636(17)
H11B H 0.0666 -0.0987 0.4656
H12B H -0.0944 -0.0877 0.4735
N1B N -0.80986(14) -0.92511(11) -0.02461(15)
C2B C -0.68977(19) -0.77678(14) -0.1205(2)
H3B H -0.6898 -0.7178 -0.1885
C3B C -0.80347(18) -0.84159(14) -0.11942(19)
H4B H -0.8806 -0.8266 -0.1886
N2B N -0.49433(15) -0.61218(13) -0.03680(18)
C4B C -0.69868(19) -0.94711(14) 0.0675(2)
H5B H -0.7009 -1.0073 0.1332
C5B C -0.37816(19) -0.54086(16) -0.0509(2)
H6B H -0.3165 -0.5418 0.0433
H7B H -0.3261 -0.5666 -0.1331
C6B C -0.58047(19) -0.88670(14) 0.0718(2)
H8B H -0.5032 -0.9059 0.1386
C7B C -0.57504(18) -0.79792(14) -0.0217(2)
C8B C -0.4520(2) -0.72425(15) -0.0135(2)
H9B H -0.3921 -0.7456 -0.0910
H10B H -0.3992 -0.7317 0.0858
C10B C -0.57144(19) -0.57300(15) 0.0836(2)
H13B H -0.6502 -0.6214 0.0936
H14B H -0.5124 -0.5741 0.1796
O3B O -0.11076(12) 0.15346(9) -0.02324(13)
H1B H -0.1083 0.1876 0.0646
H2B H -0.0733 0.1966 -0.0875
Zn1_2 Zn -1.0000 -1.0000 0.0000
Zn1_3 Zn 0.0000 0.0000 1.0000
O1B_2 O -0.02919(13) -0.01852(9) -0.23011(13)
N1B_2 N 0.19014(14) 0.07489(11) -0.02461(15)
loop_
_geom_bond_atom_site_label_1
_geom_bond_atom_site_label_2
_geom_bond_site_symmetry_1
_geom_bond_site_symmetry_2
Zn1 O1 1_555 1_555
O1 C1 1_555 1_555
O2 C1 1_555 1_555
O3 Zn1 1_555 1_555
H1 O3 1_555 1_555
H2 O3 1_555 1_555
N1 Zn1 1_555 1_555
C1 C9 1_555 1_555
C2 H3 1_555 1_555
C3 N1 1_555 1_555
H4 C3 1_555 1_555
N2 C5 1_555 1_555
C4 N1 1_555 1_555
H5 C4 1_555 1_555
C5 H6 1_555 1_555
H7 C5 1_555 1_555
C6 C4 1_555 1_555
H8 C6 1_555 1_555
C7 C2 1_555 1_555
C8 N2 1_555 1_555
H9 C8 1_555 1_555
H10 C8 1_555 1_555
C9 H11 1_555 1_555
H12 C9 1_555 1_555
C10 N2 1_555 1_555
H13 C10 1_555 1_555
H14 C10 1_555 1_555
O1B C1B 1_555 1_555
O2B C1B 1_555 1_555
C1B C9B 1_555 1_555
C9B C9 1_555 1_555
H11B C9B 1_555 1_555
H12B C9B 1_555 1_555
N1B C3B 1_555 1_555
C2B H3B 1_555 1_555
C3B C2B 1_555 1_555
H4B C3B 1_555 1_555
N2B C5B 1_555 1_555
C4B N1B 1_555 1_555
H5B C4B 1_555 1_555
C5B C10 1_555 1_555
H6B C5B 1_555 1_555
H7B C5B 1_555 1_555
C6B C4B 1_555 1_555
H8B C6B 1_555 1_555
C7B C2B 1_555 1_555
C8B N2B 1_555 1_555
H9B C8B 1_555 1_555
H10B C8B 1_555 1_555
C10B C5 1_555 1_555
H13B C10B 1_555 1_555
H14B C10B 1_555 1_555
O3B Zn1 1_555 1_555
H1B O3B 1_555 1_555
H2B O3B 1_555 1_555
Zn1_2 N1B 1_555 1_555
Zn1_3 O1B 1_555 1_555
O1B_2 Zn1 1_555 1_555
N1B_2 Zn1 1_555 1_555
C2 C3 1_555 1_555
C6 C7 1_555 1_555
C7 C8 1_555 1_555
N2B C10B 1_555 1_555
C6B C7B 1_555 1_555
C7B C8B 1_555 1_555

#END
