
#######################################################################
#
#                 Cambridge Crystallographic Data Centre
#                                CCDC 
#
#######################################################################
#
# If this CIF has been generated from an entry in the Cambridge 
# Structural Database, then it will include bibliographic, chemical, 
# crystal, experimental, refinement or atomic coordinate data resulting 
# from the CCDC's data processing and validation procedures.
#
#######################################################################

data_KOQKOS
_symmetry_cell_setting           monoclinic
_symmetry_space_group_name_H-M   'P 21/c'
_symmetry_Int_Tables_number      14
_space_group_name_Hall           '-P 2ybc'
loop_
_symmetry_equiv_pos_site_id
_symmetry_equiv_pos_as_xyz
1 x,y,z
2 -x,1/2+y,1/2-z
3 -x,-y,-z
4 x,1/2-y,1/2+z
_cell_length_a                   7.3532(15)
_cell_length_b                   15.123(3)
_cell_length_c                   15.554(3)
_cell_angle_alpha                90
_cell_angle_beta                 103.11(3)
_cell_angle_gamma                90
_cell_volume                     1684.56
loop_
_atom_site_label
_atom_site_type_symbol
_atom_site_fract_x
_atom_site_fract_y
_atom_site_fract_z
Cd1 Cd 0.20293(4) 0.552665(18) 0.457742(17)
N1 N 0.2592(4) 0.5499(2) 0.3221(2)
N2 N 0.2709(4) 0.5086(3) 0.1882(2)
C1 C -0.0139(5) 0.6328(3) 0.5527(2)
C2 C -0.0932(5) 0.6805(2) 0.6203(2)
C3 C -0.2839(5) 0.6794(2) 0.6211(2)
C4 C -0.4210(5) 0.6290(2) 0.5518(3)
C5 C -0.3428(6) 0.7223(3) 0.6887(3)
H1 H -0.4693 0.7235 0.6887
C6 C -0.2157(6) 0.7635(3) 0.7564(3)
H2 H -0.2565 0.7907 0.8022
C7 C -0.0300(6) 0.7639(3) 0.7554(3)
H3 H 0.0553 0.7917 0.8007
C8 C 0.0312(6) 0.7233(3) 0.6876(3)
H4 H 0.1574 0.7247 0.6871
C9 C 0.4385(6) 0.5596(4) 0.3118(3)
H5 H 0.5386 0.5802 0.3548
C10 C 0.4473(6) 0.5347(4) 0.2301(3)
H6 H 0.5526 0.5350 0.2064
C11 C 0.1605(5) 0.5191(3) 0.2454(2)
C12 C -0.0423(6) 0.4998(3) 0.2224(3)
H7 H -0.0938 0.5097 0.2731
H8 H -0.0617 0.4392 0.2041
H9 H -0.1030 0.5379 0.1752
C13 C 0.2139(6) 0.4727(4) 0.0981(3)
H10 H 0.0995 0.5013 0.0674
H11 H 0.1888 0.4099 0.1011
C14 C 0.3630(6) 0.4865(3) 0.0466(2)
C15 C 0.3741(6) 0.5686(3) 0.0061(3)
C16 C 0.2431(7) 0.6429(3) 0.0161(4)
H12 H 0.1641 0.6566 -0.0404
H13 H 0.3144 0.6943 0.0391
H14 H 0.1675 0.6251 0.0559
C17 C 0.5112(6) 0.5818(3) -0.0418(3)
C18 C 0.5200(8) 0.6691(4) -0.0891(4)
H15 H 0.4056 0.7010 -0.0928
H16 H 0.5372 0.6578 -0.1474
H17 H 0.6227 0.7035 -0.0568
O1 O -0.0016(4) 0.66906(19) 0.48257(17)
O2 O 0.0534(4) 0.55634(18) 0.57511(17)
O3 O -0.3585(4) 0.57564(18) 0.50393(17)
O4 O -0.5908(4) 0.6441(2) 0.5450(2)
N1B N 0.7408(4) 0.4501(2) -0.3221(2)
N2B N 0.7291(4) 0.4914(3) -0.1882(2)
C9B C 0.5615(6) 0.4404(4) -0.3118(3)
H5B H 0.4614 0.4198 -0.3548
C10B C 0.5527(6) 0.4653(4) -0.2301(3)
H6B H 0.4474 0.4650 -0.2064
C11B C 0.8395(5) 0.4809(3) -0.2454(2)
C12B C 1.0423(6) 0.5002(3) -0.2224(3)
H7B H 1.0938 0.4903 -0.2731
H8B H 1.0617 0.5608 -0.2041
H9B H 1.1030 0.4621 -0.1752
C13B C 0.7861(6) 0.5273(4) -0.0981(3)
H10B H 0.9005 0.4987 -0.0674
H11B H 0.8112 0.5901 -0.1011
C14B C 0.6370(6) 0.5135(3) -0.0466(2)
C15B C 0.6259(6) 0.4314(3) -0.0061(3)
C16B C 0.7569(7) 0.3571(3) -0.0161(4)
H12B H 0.8359 0.3434 0.0404
H13B H 0.6856 0.3057 -0.0391
H14B H 0.8325 0.3749 -0.0559
C17B C 0.4888(6) 0.4182(3) 0.0418(3)
C18B C 0.4800(8) 0.3309(4) 0.0891(4)
H15B H 0.5944 0.2990 0.0928
H16B H 0.4628 0.3422 0.1474
H17B H 0.3773 0.2965 0.0568
Cd1B Cd -0.20293(4) 0.447335(18) 0.542258(17)
C1B C 0.0139(5) 0.3672(3) 0.4473(2)
C2B C 0.0932(5) 0.3195(2) 0.3797(2)
C3B C 0.2839(5) 0.3206(2) 0.3789(2)
C4B C 0.4210(5) 0.3710(2) 0.4482(3)
C5B C 0.3428(6) 0.2777(3) 0.3113(3)
H1B H 0.4693 0.2765 0.3113
C6B C 0.2157(6) 0.2365(3) 0.2436(3)
H2B H 0.2565 0.2093 0.1978
C7B C 0.0300(6) 0.2361(3) 0.2446(3)
H3B H -0.0553 0.2083 0.1993
C8B C -0.0312(6) 0.2767(3) 0.3124(3)
H4B H -0.1574 0.2753 0.3129
O1B O 0.0016(4) 0.33094(19) 0.51743(17)
O2B O -0.0534(4) 0.44366(18) 0.42489(17)
O3B O 0.3585(4) 0.42436(18) 0.49607(17)
O4B O 0.5908(4) 0.3559(2) 0.4550(2)
Cd1_2 Cd -0.79707(4) 0.552665(18) 0.457742(17)
Cd1B_2 Cd 0.79707(4) 0.447335(18) -0.457742(17)
Cd1B_3 Cd 0.79707(4) 0.447335(18) 0.542258(17)
N1B_2 N -0.2592(4) 0.4501(2) 0.6779(2)
O4_2 O 0.4092(4) 0.6441(2) 0.5450(2)
O4B_2 O -0.4092(4) 0.3559(2) 0.4550(2)
loop_
_geom_bond_atom_site_label_1
_geom_bond_atom_site_label_2
_geom_bond_site_symmetry_1
_geom_bond_site_symmetry_2
Cd1 N1 1_555 1_555
N1 C9 1_555 1_555
N2 C10 1_555 1_555
C1 C2 1_555 1_555
C2 C3 1_555 1_555
C3 C4 1_555 1_555
C4 O3 1_555 1_555
C5 C3 1_555 1_555
H1 C5 1_555 1_555
C6 C5 1_555 1_555
H2 C6 1_555 1_555
C7 C6 1_555 1_555
H3 C7 1_555 1_555
C8 C2 1_555 1_555
H4 C8 1_555 1_555
C9 H5 1_555 1_555
C10 C9 1_555 1_555
H6 C10 1_555 1_555
C11 N1 1_555 1_555
C12 C11 1_555 1_555
H7 C12 1_555 1_555
H8 C12 1_555 1_555
H9 C12 1_555 1_555
C13 N2 1_555 1_555
H10 C13 1_555 1_555
H11 C13 1_555 1_555
C14 C13 1_555 1_555
C15 C14 1_555 1_555
C16 C15 1_555 1_555
H12 C16 1_555 1_555
H13 C16 1_555 1_555
H14 C16 1_555 1_555
C17 C15 1_555 1_555
C18 C17 1_555 1_555
H15 C18 1_555 1_555
H16 C18 1_555 1_555
H17 C18 1_555 1_555
O1 Cd1 1_555 1_555
O2 Cd1 1_555 1_555
O3 Cd1B 1_555 1_555
O4 C4 1_555 1_555
N1B C9B 1_555 1_555
N2B C10B 1_555 1_555
C9B H5B 1_555 1_555
C10B C9B 1_555 1_555
H6B C10B 1_555 1_555
C11B N1B 1_555 1_555
C12B C11B 1_555 1_555
H7B C12B 1_555 1_555
H8B C12B 1_555 1_555
H9B C12B 1_555 1_555
C13B N2B 1_555 1_555
H10B C13B 1_555 1_555
H11B C13B 1_555 1_555
C14B C17 1_555 1_555
C15B C14B 1_555 1_555
C16B C15B 1_555 1_555
H12B C16B 1_555 1_555
H13B C16B 1_555 1_555
H14B C16B 1_555 1_555
C17B C14 1_555 1_555
C18B C17B 1_555 1_555
H15B C18B 1_555 1_555
H16B C18B 1_555 1_555
H17B C18B 1_555 1_555
Cd1B O2 1_555 1_555
C1B C2B 1_555 1_555
C2B C3B 1_555 1_555
C3B C4B 1_555 1_555
C4B O3B 1_555 1_555
C5B C3B 1_555 1_555
H1B C5B 1_555 1_555
C6B C5B 1_555 1_555
H2B C6B 1_555 1_555
C7B C6B 1_555 1_555
H3B C7B 1_555 1_555
C8B C2B 1_555 1_555
H4B C8B 1_555 1_555
O1B Cd1B 1_555 1_555
O2B Cd1 1_555 1_555
O3B Cd1 1_555 1_555
O4B C4B 1_555 1_555
Cd1_2 O4 1_555 1_555
Cd1B_2 N1B 1_555 1_555
Cd1B_3 O4B 1_555 1_555
N1B_2 Cd1B 1_555 1_555
O4_2 Cd1 1_555 1_555
O4B_2 Cd1B 1_555 1_555
N2 C11 1_555 1_555
C1 O1 1_555 1_555
C1 O2 1_555 1_555
C7 C8 1_555 1_555
N2B C11B 1_555 1_555
C13B C14B 1_555 1_555
C15B C17B 1_555 1_555
Cd1B O2B 1_555 1_555
C1B O1B 1_555 1_555
C1B O2B 1_555 1_555
C7B C8B 1_555 1_555

#END
