
#######################################################################
#
#                 Cambridge Crystallographic Data Centre
#                                CCDC 
#
#######################################################################
#
# If this CIF has been generated from an entry in the Cambridge 
# Structural Database, then it will include bibliographic, chemical, 
# crystal, experimental, refinement or atomic coordinate data resulting 
# from the CCDC's data processing and validation procedures.
#
#######################################################################

data_KOQKUY
_symmetry_cell_setting           orthorhombic
_symmetry_space_group_name_H-M   'P b c a'
_symmetry_Int_Tables_number      61
_space_group_name_Hall           '-P 2ac 2ab'
loop_
_symmetry_equiv_pos_site_id
_symmetry_equiv_pos_as_xyz
1 x,y,z
2 1/2-x,-y,1/2+z
3 -x,1/2+y,1/2-z
4 1/2+x,1/2-y,-z
5 -x,-y,-z
6 1/2+x,y,1/2-z
7 x,1/2-y,1/2+z
8 1/2-x,1/2+y,z
_cell_length_a                   17.0610(4)
_cell_length_b                   14.6879(3)
_cell_length_c                   22.0163(5)
_cell_angle_alpha                90
_cell_angle_beta                 90
_cell_angle_gamma                90
_cell_volume                     5517.07
loop_
_atom_site_label
_atom_site_type_symbol
_atom_site_fract_x
_atom_site_fract_y
_atom_site_fract_z
Cd1 Cd 0.096006(9) 0.229885(12) 0.207219(8)
N1 N 0.09924(12) 0.32803(14) 0.12598(10)
N2 N 0.12371(12) 0.44312(13) 0.06502(9)
N3 N 0.50040(12) 0.35146(14) -0.16135(10)
N4 N 0.40755(11) 0.45315(14) -0.15086(10)
C1 C 0.00768(13) 0.23068(18) 0.31133(12)
C2 C -0.05017(13) 0.24294(16) 0.36244(12)
C3 C -0.24883(15) 0.2372(2) 0.28154(11)
C4 C 0.16810(13) 0.53791(16) -0.06924(12)
C5 C 0.36629(15) 0.54136(18) -0.14924(13)
H1 H 0.3421 0.5528 -0.1884
H2 H 0.4037 0.5897 -0.1414
C6 C -0.16081(14) 0.2462(2) 0.28643(13)
H3 H -0.1445 0.2997 0.2638
H4 H -0.1368 0.1936 0.2674
C7 C -0.13013(14) 0.25407(17) 0.35066(12)
C8 C 0.27157(14) 0.54187(16) 0.00652(11)
C9 C 0.32736(14) 0.54406(16) -0.03929(12)
C10 C 0.22443(14) 0.53659(16) -0.11551(11)
C11 C -0.17913(15) 0.27234(19) 0.39990(13)
H5 H -0.2325 0.2802 0.3931
C12 C 0.10823(16) 0.29670(18) 0.06773(12)
H6 H 0.1044 0.2360 0.0562
C13 C -0.07189(18) 0.2670(2) 0.46909(13)
H7 H -0.0524 0.2717 0.5084
C14 C 0.10928(13) 0.41750(17) 0.12287(11)
C15 C 0.19202(14) 0.54080(15) -0.00854(11)
C16 C 0.10527(18) 0.4806(2) 0.17519(13)
H8 H 0.0921 0.4471 0.2112
H9 H 0.0659 0.5259 0.1677
H10 H 0.1552 0.5096 0.1806
C17 C 0.13253(16) 0.53671(17) 0.04222(13)
H11 H 0.1491 0.5761 0.0751
H12 H 0.0823 0.5586 0.0275
C18 C 0.48349(14) 0.43848(17) -0.16629(11)
C19 C 0.37523(15) 0.37053(17) -0.13582(12)
H13 H 0.3240 0.3597 -0.1234
C20 C 0.30375(14) 0.54159(16) -0.10013(12)
C21 C 0.43239(16) 0.30862(19) -0.14253(13)
H14 H 0.4271 0.2465 -0.1356
C22 C -0.02204(16) 0.24800(18) 0.42145(13)
H15 H 0.0310 0.2385 0.4290
C23 C 0.12325(16) 0.36593(17) 0.02972(12)
H16 H 0.1316 0.3624 -0.0119
C24 C 0.41368(15) 0.5439(2) -0.02300(16)
H17 H 0.4228 0.5858 0.0097
H18 H 0.4439 0.5620 -0.0577
H19 H 0.4290 0.4838 -0.0107
C25 C -0.15074(17) 0.2791(2) 0.45816(13)
H20 H -0.1847 0.2917 0.4901
C26 C 0.54020(15) 0.50980(19) -0.18455(15)
H21 H 0.5890 0.4819 -0.1956
H22 H 0.5485 0.5508 -0.1512
H23 H 0.5198 0.5429 -0.2187
C27 C 0.19863(19) 0.5256(2) -0.18129(13)
H24 H 0.2352 0.4872 -0.2023
H25 H 0.1969 0.5842 -0.2005
H26 H 0.1475 0.4984 -0.1825
C28 C 0.29685(19) 0.5383(2) 0.07256(13)
H27 H 0.3530 0.5418 0.0749
H28 H 0.2794 0.4821 0.0904
H29 H 0.2742 0.5885 0.0942
C29 C 0.08174(15) 0.5335(2) -0.08599(15)
H30 H 0.0725 0.5700 -0.1215
H31 H 0.0508 0.5563 -0.0529
H32 H 0.0674 0.4716 -0.0942
O1 O 0.00929(11) 0.29168(12) 0.27134(9)
O2 O 0.05147(12) 0.16350(15) 0.30991(10)
O3 O -0.28202(11) 0.16899(13) 0.30409(9)
O4 O -0.28689(10) 0.29820(14) 0.25576(10)
Cd1C Cd 0.596006(9) 0.270115(12) -0.207219(8)
Cd1E Cd -0.403994(9) 0.229885(12) 0.292781(8)
N3C N 0.00040(12) 0.14854(14) 0.16135(10)
O3E O 0.21798(11) 0.16899(13) 0.19591(9)
O4E O 0.21311(10) 0.29820(14) 0.24424(10)
O5 O 0.19039(19) 0.2151(2) 0.38708(17)
H33 H 0.2160 0.2575 0.3698
H34 H 0.1472 0.2072 0.3686
loop_
_geom_bond_atom_site_label_1
_geom_bond_atom_site_label_2
_geom_bond_site_symmetry_1
_geom_bond_site_symmetry_2
Cd1 N1 1_555 1_555
N1 C12 1_555 1_555
N2 C14 1_555 1_555
N3 C18 1_555 1_555
N4 C5 1_555 1_555
C1 C2 1_555 1_555
C2 C7 1_555 1_555
C3 C6 1_555 1_555
C4 C10 1_555 1_555
C5 H1 1_555 1_555
H2 C5 1_555 1_555
C6 H3 1_555 1_555
H4 C6 1_555 1_555
C7 C6 1_555 1_555
C8 C9 1_555 1_555
C9 C20 1_555 1_555
C10 C20 1_555 1_555
C11 C7 1_555 1_555
H5 C11 1_555 1_555
C12 H6 1_555 1_555
C13 H7 1_555 1_555
C14 N1 1_555 1_555
C15 C4 1_555 1_555
C16 C14 1_555 1_555
H8 C16 1_555 1_555
H9 C16 1_555 1_555
H10 C16 1_555 1_555
C17 N2 1_555 1_555
H11 C17 1_555 1_555
H12 C17 1_555 1_555
C18 N4 1_555 1_555
C19 N4 1_555 1_555
H13 C19 1_555 1_555
C20 C5 1_555 1_555
C21 N3 1_555 1_555
H14 C21 1_555 1_555
C22 C2 1_555 1_555
H15 C22 1_555 1_555
C23 N2 1_555 1_555
H16 C23 1_555 1_555
C24 C9 1_555 1_555
H17 C24 1_555 1_555
H18 C24 1_555 1_555
H19 C24 1_555 1_555
C25 C11 1_555 1_555
H20 C25 1_555 1_555
C26 C18 1_555 1_555
H21 C26 1_555 1_555
H22 C26 1_555 1_555
H23 C26 1_555 1_555
C27 C10 1_555 1_555
H24 C27 1_555 1_555
H25 C27 1_555 1_555
H26 C27 1_555 1_555
C28 C8 1_555 1_555
H27 C28 1_555 1_555
H28 C28 1_555 1_555
H29 C28 1_555 1_555
C29 C4 1_555 1_555
H30 C29 1_555 1_555
H31 C29 1_555 1_555
H32 C29 1_555 1_555
O1 Cd1 1_555 1_555
O2 Cd1 1_555 1_555
O3 C3 1_555 1_555
O4 C3 1_555 1_555
O5 H33 1_555 1_555
H34 O5 1_555 1_555
Cd1C N3 1_555 1_555
Cd1E O3 1_555 1_555
N3C Cd1 1_555 1_555
O3E Cd1 1_555 1_555
O4E Cd1 1_555 1_555
C1 O1 1_555 1_555
C1 O2 1_555 1_555
C8 C15 1_555 1_555
C12 C23 1_555 1_555
C13 C22 1_555 1_555
C13 C25 1_555 1_555
C15 C17 1_555 1_555
C19 C21 1_555 1_555
O4 Cd1E 1_555 1_555

#END
