
#######################################################################
#
#                 Cambridge Crystallographic Data Centre
#                                CCDC 
#
#######################################################################
#
# If this CIF has been generated from an entry in the Cambridge 
# Structural Database, then it will include bibliographic, chemical, 
# crystal, experimental, refinement or atomic coordinate data resulting 
# from the CCDC's data processing and validation procedures.
#
#######################################################################

data_KOQLEJ
_symmetry_cell_setting           triclinic
_symmetry_space_group_name_H-M   'P -1'
_symmetry_Int_Tables_number      2
_space_group_name_Hall           '-P 1'
loop_
_symmetry_equiv_pos_site_id
_symmetry_equiv_pos_as_xyz
1 x,y,z
2 -x,-y,-z
_cell_length_a                   7.7525(11)
_cell_length_b                   12.7608(19)
_cell_length_c                   13.0438(18)
_cell_angle_alpha                71.420(2)
_cell_angle_beta                 82.875(2)
_cell_angle_gamma                74.766(2)
_cell_volume                     1179.02
loop_
_atom_site_label
_atom_site_type_symbol
_atom_site_fract_x
_atom_site_fract_y
_atom_site_fract_z
Cd1 Cd 0.04829(5) 0.44095(3) 0.64729(3)
N1 N -0.1601(6) 0.3509(4) 0.7376(3)
N2 N -0.3280(6) 0.2283(4) 0.7905(3)
C1 C 0.2273(8) 0.5114(5) 0.7646(4)
C2 C -0.4653(7) 0.0706(4) 0.8988(4)
C3 C -0.2060(7) 0.3359(5) 0.8436(4)
H1 H -0.1726 0.3726 0.8865
C4 C -0.6332(7) 0.0932(4) 0.9482(4)
C5 C -0.3299(6) -0.0214(4) 0.9502(4)
C6 C 0.8020(8) 0.6925(5) 0.4968(5)
C7 C 0.3795(8) 0.6673(5) 0.7701(4)
C8 C -0.4264(9) 0.1447(5) 0.7861(4)
H2 H -0.3556 0.0970 0.7437
H3 H -0.5380 0.1848 0.7507
C9 C -0.3071(8) 0.2599(5) 0.8773(5)
H4 H -0.3543 0.2337 0.9472
C10 C 0.5456(9) 0.6556(5) 0.6974(5)
H5 H 0.5259 0.6248 0.6419
H6 H 0.6438 0.6021 0.7396
C11 C 0.3337(9) 0.5530(6) 0.8277(5)
H7 H 0.4446 0.4959 0.8473
H8 H 0.2662 0.5581 0.8944
C12 C 0.5977(9) 0.7690(5) 0.6430(5)
C13 C -0.2384(10) 0.2860(7) 0.7076(4)
C14 C 0.7893(10) 0.7500(7) 0.5821(6)
H9 H 0.8182 0.8232 0.5488
H10 H 0.8780 0.7045 0.6351
C15 C 0.4483(16) 0.8401(10) 0.8004(7)
H11 H 0.4616 0.8754 0.8547
C16 C 0.6286(10) 0.8158(7) 0.7301(7)
H12 H 0.6682 0.8857 0.6972
H13 H 0.7214 0.7614 0.7763
C17 C 0.4136(13) 0.7185(9) 0.8542(6)
H14 H 0.5165 0.6691 0.8947
H15 H 0.3108 0.7231 0.9046
C18 C -0.1448(8) -0.0438(7) 0.8967(6)
H16 H -0.0571 -0.0518 0.9463
H17 H -0.1365 0.0187 0.8330
H18 H -0.1234 -0.1125 0.8768
C19 C 0.4550(11) 0.8461(7) 0.5730(8)
H19 H 0.4679 0.8766 0.4983
C20 C -0.7747(11) 0.1954(7) 0.8936(8)
H20 H -0.7926 0.2521 0.9303
H21 H -0.8847 0.1733 0.8963
H22 H -0.7371 0.2261 0.8195
C21 C 0.2301(9) 0.7535(7) 0.6963(8)
H23 H 0.1210 0.7694 0.7396
H24 H 0.2058 0.7211 0.6432
C22 C -0.2483(17) 0.2873(12) 0.5941(6)
H25 H -0.2097 0.3519 0.5453
H26 H -0.3695 0.2921 0.5804
H27 H -0.1722 0.2187 0.5832
C23 C 0.3000(14) 0.9157(10) 0.7221(10)
H28 H 0.1855 0.9236 0.7620
H29 H 0.3227 0.9909 0.6906
C24 C 0.2919(12) 0.8679(7) 0.6364(9)
H30 H 0.1984 0.9197 0.5878
O1 O 0.2969(7) 0.4858(5) 0.6817(4)
O2 O 0.0723(6) 0.5038(4) 0.7969(4)
O3 O 0.8896(7) 0.5879(4) 0.5226(4)
O4 O 0.7625(9) 0.7341(5) 0.4036(4)
N1A N -0.8399(6) -0.3509(4) 1.2624(3)
N2A N -0.6720(6) -0.2283(4) 1.2095(3)
C2A C -0.5347(7) -0.0706(4) 1.1012(4)
C3A C -0.7940(7) -0.3359(5) 1.1564(4)
H1A H -0.8274 -0.3726 1.1135
C4A C -0.3668(7) -0.0932(4) 1.0518(4)
C5A C -0.6701(6) 0.0214(4) 1.0498(4)
C8A C -0.5736(9) -0.1447(5) 1.2139(4)
H2A H -0.6444 -0.0970 1.2563
H3A H -0.4620 -0.1848 1.2493
C9A C -0.6929(8) -0.2599(5) 1.1227(5)
H4A H -0.6457 -0.2337 1.0528
C13A C -0.7616(10) -0.2860(7) 1.2924(4)
C18A C -0.8552(8) 0.0438(7) 1.1033(6)
H16A H -0.9429 0.0518 1.0537
H17A H -0.8635 -0.0187 1.1670
H18A H -0.8766 0.1125 1.1232
C20A C -0.2253(11) -0.1954(7) 1.1064(8)
H20A H -0.2074 -0.2521 1.0697
H21A H -0.1153 -0.1733 1.1037
H22A H -0.2629 -0.2261 1.1805
C22A C -0.7517(17) -0.2873(12) 1.4059(6)
H25A H -0.7903 -0.3519 1.4547
H26A H -0.6305 -0.2921 1.4196
H27A H -0.8278 -0.2187 1.4168
Cd1A Cd -1.04829(5) -0.44095(3) 1.35271(3)
C1A C -1.2273(8) -0.5114(5) 1.2354(4)
C6A C -1.8020(8) -0.6925(5) 1.5032(5)
C7A C -1.3795(8) -0.6673(5) 1.2299(4)
C10A C -1.5456(9) -0.6556(5) 1.3026(5)
H5A H -1.5259 -0.6248 1.3581
H6A H -1.6438 -0.6021 1.2604
C11A C -1.3337(9) -0.5530(6) 1.1723(5)
H7A H -1.4446 -0.4959 1.1527
H8A H -1.2662 -0.5581 1.1056
C12A C -1.5977(9) -0.7690(5) 1.3570(5)
C14A C -1.7893(10) -0.7500(7) 1.4179(6)
H9A H -1.8182 -0.8232 1.4512
H10A H -1.8780 -0.7045 1.3649
C15A C -1.4483(16) -0.8401(10) 1.1996(7)
H11A H -1.4616 -0.8754 1.1453
C16A C -1.6286(10) -0.8158(7) 1.2699(7)
H12A H -1.6682 -0.8857 1.3028
H13A H -1.7214 -0.7614 1.2237
C17A C -1.4136(13) -0.7185(9) 1.1458(6)
H14A H -1.5165 -0.6691 1.1053
H15A H -1.3108 -0.7231 1.0954
C19A C -1.4550(11) -0.8461(7) 1.4270(8)
H19A H -1.4679 -0.8766 1.5017
C21A C -1.2301(9) -0.7535(7) 1.3037(8)
H23A H -1.1210 -0.7694 1.2604
H24A H -1.2058 -0.7211 1.3568
C23A C -1.3000(14) -0.9157(10) 1.2779(10)
H28A H -1.1855 -0.9236 1.2380
H29A H -1.3227 -0.9909 1.3094
C24A C -1.2919(12) -0.8679(7) 1.3636(9)
H30A H -1.1984 -0.9197 1.4122
O1A O -1.2969(7) -0.4858(5) 1.3183(4)
O2A O -1.0723(6) -0.5038(4) 1.2031(4)
O3A O -1.8896(7) -0.5879(4) 1.4774(4)
O4A O -1.7625(9) -0.7341(5) 1.5964(4)
Cd1_2 Cd -1.95171(5) -0.55905(3) 1.64729(3)
Cd1_3 Cd 1.04829(5) 0.44095(3) 0.64729(3)
Cd1A_2 Cd -2.04829(5) -0.44095(3) 1.35271(3)
Cd1A_3 Cd 0.95171(5) 0.55905(3) 0.35271(3)
O3_2 O -1.1104(7) -0.4121(4) 1.5226(4)
O3_3 O -0.1104(7) 0.5879(4) 0.5226(4)
O3A_2 O -0.8896(7) -0.5879(4) 1.4774(4)
O3A_3 O 0.1104(7) 0.4121(4) 0.4774(4)
O4_2 O -1.2375(9) -0.2659(5) 1.4036(4)
O4A_2 O 0.2375(9) 0.2659(5) 0.5964(4)
O5 O 0.094(3) 0.3868(13) 0.0414(14)
H31 H 0.0419 0.4203 0.0897
H32 H 0.0844 0.4200 -0.0262
loop_
_geom_bond_atom_site_label_1
_geom_bond_atom_site_label_2
_geom_bond_site_symmetry_1
_geom_bond_site_symmetry_2
Cd1 N1 1_555 1_555
N1 C3 1_555 1_555
N2 C8 1_555 1_555
C1 C11 1_555 1_555
C2 C4 1_555 1_555
C3 H1 1_555 1_555
C4 C20 1_555 1_555
C5 C2 1_555 1_555
C6 C14 1_555 1_555
C7 C10 1_555 1_555
C8 C2 1_555 1_555
H2 C8 1_555 1_555
H3 C8 1_555 1_555
C9 N2 1_555 1_555
H4 C9 1_555 1_555
C10 H5 1_555 1_555
H6 C10 1_555 1_555
C11 C7 1_555 1_555
H7 C11 1_555 1_555
H8 C11 1_555 1_555
C12 C10 1_555 1_555
C13 N1 1_555 1_555
C14 C12 1_555 1_555
H9 C14 1_555 1_555
H10 C14 1_555 1_555
C15 H11 1_555 1_555
C16 C12 1_555 1_555
H12 C16 1_555 1_555
H13 C16 1_555 1_555
C17 C7 1_555 1_555
H14 C17 1_555 1_555
H15 C17 1_555 1_555
C18 C5 1_555 1_555
H16 C18 1_555 1_555
H17 C18 1_555 1_555
H18 C18 1_555 1_555
C19 C12 1_555 1_555
H19 C19 1_555 1_555
C20 H20 1_555 1_555
H21 C20 1_555 1_555
H22 C20 1_555 1_555
C21 C7 1_555 1_555
H23 C21 1_555 1_555
H24 C21 1_555 1_555
C22 C13 1_555 1_555
H25 C22 1_555 1_555
H26 C22 1_555 1_555
H27 C22 1_555 1_555
C23 C15 1_555 1_555
H28 C23 1_555 1_555
H29 C23 1_555 1_555
C24 C19 1_555 1_555
H30 C24 1_555 1_555
O1 Cd1 1_555 1_555
O2 Cd1 1_555 1_555
O3 C6 1_555 1_555
O4 C6 1_555 1_555
O5 H31 1_555 1_555
H32 O5 1_555 1_555
N1A C3A 1_555 1_555
N2A C8A 1_555 1_555
C2A C4A 1_555 1_555
C3A H1A 1_555 1_555
C4A C5 1_555 1_555
C5A C4 1_555 1_555
C8A C2A 1_555 1_555
H2A C8A 1_555 1_555
H3A C8A 1_555 1_555
C9A N2A 1_555 1_555
H4A C9A 1_555 1_555
C13A N1A 1_555 1_555
C18A C5A 1_555 1_555
H16A C18A 1_555 1_555
H17A C18A 1_555 1_555
H18A C18A 1_555 1_555
C20A C4A 1_555 1_555
H20A C20A 1_555 1_555
H21A C20A 1_555 1_555
H22A C20A 1_555 1_555
C22A C13A 1_555 1_555
H25A C22A 1_555 1_555
H26A C22A 1_555 1_555
H27A C22A 1_555 1_555
Cd1A N1A 1_555 1_555
C1A C11A 1_555 1_555
C6A C14A 1_555 1_555
C7A C10A 1_555 1_555
C10A H5A 1_555 1_555
H6A C10A 1_555 1_555
C11A C7A 1_555 1_555
H7A C11A 1_555 1_555
H8A C11A 1_555 1_555
C12A C10A 1_555 1_555
C14A C12A 1_555 1_555
H9A C14A 1_555 1_555
H10A C14A 1_555 1_555
C15A H11A 1_555 1_555
C16A C12A 1_555 1_555
H12A C16A 1_555 1_555
H13A C16A 1_555 1_555
C17A C7A 1_555 1_555
H14A C17A 1_555 1_555
H15A C17A 1_555 1_555
C19A C12A 1_555 1_555
H19A C19A 1_555 1_555
C21A C7A 1_555 1_555
H23A C21A 1_555 1_555
H24A C21A 1_555 1_555
C23A C15A 1_555 1_555
H28A C23A 1_555 1_555
H29A C23A 1_555 1_555
C24A C19A 1_555 1_555
H30A C24A 1_555 1_555
O1A Cd1A 1_555 1_555
O2A Cd1A 1_555 1_555
O3A C6A 1_555 1_555
O4A C6A 1_555 1_555
Cd1_2 O3A 1_555 1_555
Cd1_3 O3 1_555 1_555
Cd1A_2 O3A 1_555 1_555
Cd1A_3 O3 1_555 1_555
O3_2 Cd1A 1_555 1_555
O3_3 Cd1 1_555 1_555
O3A_2 Cd1A 1_555 1_555
O3A_3 Cd1 1_555 1_555
O4_2 Cd1A 1_555 1_555
O4A_2 Cd1 1_555 1_555
N2 C13 1_555 1_555
C1 O1 1_555 1_555
C1 O2 1_555 1_555
C3 C9 1_555 1_555
C15 C16 1_555 1_555
C15 C17 1_555 1_555
C21 C24 1_555 1_555
C23 C24 1_555 1_555
O4 Cd1A_3 1_555 1_555
N2A C13A 1_555 1_555
C2A C5A 1_555 1_555
C3A C9A 1_555 1_555
C1A O1A 1_555 1_555
C1A O2A 1_555 1_555
C15A C16A 1_555 1_555
C15A C17A 1_555 1_555
C21A C24A 1_555 1_555
C23A C24A 1_555 1_555
O4A Cd1_2 1_555 1_555

#END
