
#######################################################################
#
#                 Cambridge Crystallographic Data Centre
#                                CCDC 
#
#######################################################################
#
# If this CIF has been generated from an entry in the Cambridge 
# Structural Database, then it will include bibliographic, chemical, 
# crystal, experimental, refinement or atomic coordinate data resulting 
# from the CCDC's data processing and validation procedures.
#
#######################################################################

data_KOQLIN
_symmetry_cell_setting           triclinic
_symmetry_space_group_name_H-M   'P -1'
_symmetry_Int_Tables_number      2
_space_group_name_Hall           '-P 1'
loop_
_symmetry_equiv_pos_site_id
_symmetry_equiv_pos_as_xyz
1 x,y,z
2 -x,-y,-z
_cell_length_a                   11.4475(8)
_cell_length_b                   11.5930(8)
_cell_length_c                   13.3747(10)
_cell_angle_alpha                76.4970(10)
_cell_angle_beta                 78.5920(10)
_cell_angle_gamma                64.3900(10)
_cell_volume                     1546.82
loop_
_atom_site_label
_atom_site_type_symbol
_atom_site_fract_x
_atom_site_fract_y
_atom_site_fract_z
Cd1 Cd 0.656989(13) 0.606578(13) 0.184817(12)
N1 N 0.58608(17) 0.44874(15) 0.26384(14)
N2 N 0.52768(17) 0.28598(15) 0.31240(13)
N3 N 0.47128(15) 0.76549(15) 0.23938(13)
N4 N 0.26558(15) 0.86693(16) 0.29431(14)
C1 C 0.5308(3) 0.4487(2) 0.36304(19)
H1 H 0.5203 0.5078 0.4042
C2 C 0.4933(3) 0.3492(2) 0.39281(18)
H2 H 0.4516 0.3283 0.4570
C3 C 0.5819(2) 0.3509(2) 0.23268(16)
C4 C 0.6282(3) 0.3159(2) 0.12890(19)
H3 H 0.6514 0.3821 0.0837
H4 H 0.5604 0.3080 0.1025
H5 H 0.7032 0.2347 0.1327
C5 C 0.5053(2) 0.17196(19) 0.30551(17)
H6 H 0.5740 0.1221 0.2577
H7 H 0.4233 0.2016 0.2775
C6 C 0.50195(18) 0.08457(17) 0.40844(16)
C7 C 0.61825(18) -0.01189(18) 0.44002(16)
C8 C 0.7464(2) -0.0218(2) 0.3756(2)
H8 H 0.7584 -0.0628 0.3175
H9 H 0.8169 -0.0725 0.4173
H10 H 0.7448 0.0635 0.3514
C9 C 0.38317(18) 0.09903(18) 0.46819(16)
C10 C 0.2577(2) 0.2096(3) 0.4349(2)
H11 H 0.2114 0.1775 0.4039
H12 H 0.2777 0.2752 0.3856
H13 H 0.2046 0.2462 0.4942
C11 C 0.46108(19) 0.8351(2) 0.31268(18)
H14 H 0.5314 0.8376 0.3355
C12 C 0.33696(19) 0.8986(2) 0.3469(2)
H15 H 0.3049 0.9532 0.3960
C13 C 0.35138(18) 0.78940(18) 0.22855(16)
C14 C 0.3100(2) 0.7372(3) 0.1560(2)
H16 H 0.3837 0.6954 0.1089
H17 H 0.2439 0.8072 0.1177
H18 H 0.2758 0.6756 0.1948
C15 C 0.1222(2) 0.9146(3) 0.30486(19)
H19 H 0.0991 0.8452 0.2992
H20 H 0.0886 0.9852 0.2485
C16 C 0.05914(18) 0.9608(2) 0.40549(18)
C17 C 0.07104(19) 0.8666(2) 0.49572(19)
C18 C 0.1470(3) 0.7251(2) 0.4891(3)
H21 H 0.2033 0.7162 0.4253
H22 H 0.0878 0.6856 0.4918
H23 H 0.1984 0.6832 0.5461
C19 C -0.00905(19) 1.0926(2) 0.40877(19)
C20 C -0.0239(3) 1.1944(3) 0.3122(3)
H24 H 0.0593 1.1967 0.2850
H25 H -0.0836 1.2778 0.3291
H26 H -0.0569 1.1734 0.2615
C21 C 0.8390(2) 0.6366(2) 0.2658(2)
C22 C 0.9527(2) 0.6398(3) 0.3031(2)
H27 H 0.9371 0.6368 0.3774
H28 H 0.9612 0.7205 0.2714
C23 C 1.0775(2) 0.5272(2) 0.27695(18)
H29 H 1.0704 0.4464 0.3107
H30 H 1.1490 0.5313 0.3025
C24 C 1.1059(3) 0.5298(3) 0.1601(2)
H31 H 1.0373 0.5193 0.1358
H32 H 1.1055 0.6137 0.1263
C25 C 1.2310(3) 0.4284(3) 0.1311(2)
H33 H 1.2304 0.3451 0.1656
H34 H 1.2986 0.4390 0.1569
C26 C 1.2672(2) 0.4248(2) 0.0157(2)
O1 O 0.78919(17) 0.71812(18) 0.18530(19)
O2 O 0.79933(18) 0.55290(18) 0.30682(16)
O3 O 1.19075(18) 0.49997(19) -0.04830(14)
O4 O 1.37449(19) 0.34392(18) -0.01251(14)
N1A N 0.41392(17) -0.44874(15) 0.73616(14)
N2A N 0.47232(17) -0.28598(15) 0.68760(13)
C1A C 0.4692(3) -0.4487(2) 0.63696(19)
H1A H 0.4797 -0.5078 0.5958
C2A C 0.5067(3) -0.3492(2) 0.60719(18)
H2A H 0.5484 -0.3283 0.5430
C3A C 0.4181(2) -0.3509(2) 0.76732(16)
C4A C 0.3718(3) -0.3159(2) 0.87110(19)
H3A H 0.3486 -0.3821 0.9163
H4A H 0.4396 -0.3080 0.8975
H5A H 0.2968 -0.2347 0.8673
C5A C 0.4947(2) -0.17196(19) 0.69449(17)
H6A H 0.4260 -0.1221 0.7423
H7A H 0.5767 -0.2016 0.7225
C6A C 0.49805(18) -0.08457(17) 0.59156(16)
C7A C 0.38175(18) 0.01189(18) 0.55998(16)
C8A C 0.2536(2) 0.0218(2) 0.6244(2)
H8A H 0.2416 0.0628 0.6825
H9A H 0.1831 0.0725 0.5827
H10A H 0.2552 -0.0635 0.6486
C9A C 0.61683(18) -0.09903(18) 0.53181(16)
C10A C 0.7423(2) -0.2096(3) 0.5651(2)
H11A H 0.7886 -0.1775 0.5961
H12A H 0.7223 -0.2752 0.6144
H13A H 0.7954 -0.2462 0.5058
N3A N -0.47128(15) 1.23451(15) 0.76062(13)
N4A N -0.26558(15) 1.13307(16) 0.70569(14)
C11A C -0.46108(19) 1.1649(2) 0.68732(18)
H14A H -0.5314 1.1624 0.6645
C12A C -0.33696(19) 1.1014(2) 0.6531(2)
H15A H -0.3049 1.0468 0.6040
C13A C -0.35138(18) 1.21060(18) 0.77145(16)
C14A C -0.3100(2) 1.2628(3) 0.8440(2)
H16A H -0.3837 1.3046 0.8911
H17A H -0.2439 1.1928 0.8823
H18A H -0.2758 1.3244 0.8052
C15A C -0.1222(2) 1.0854(3) 0.69514(19)
H19A H -0.0991 1.1548 0.7008
H20A H -0.0886 1.0148 0.7515
C16A C -0.05914(18) 1.0392(2) 0.59451(18)
C17A C -0.07104(19) 1.1334(2) 0.50428(19)
C18A C -0.1470(3) 1.2749(2) 0.5109(3)
H21A H -0.2033 1.2838 0.5747
H22A H -0.0878 1.3144 0.5082
H23A H -0.1984 1.3168 0.4539
C19A C 0.00905(19) 0.9074(2) 0.59123(19)
C20A C 0.0239(3) 0.8056(3) 0.6878(3)
H24A H -0.0593 0.8033 0.7150
H25A H 0.0836 0.7222 0.6709
H26A H 0.0569 0.8266 0.7385
Cd1A Cd -0.656989(13) 1.393422(13) 0.815183(12)
C21A C -0.8390(2) 1.3634(2) 0.7342(2)
C22A C -0.9527(2) 1.3602(3) 0.6969(2)
H27A H -0.9371 1.3632 0.6226
H28A H -0.9612 1.2795 0.7286
C23A C -1.0775(2) 1.4728(2) 0.72305(18)
H29A H -1.0704 1.5536 0.6893
H30A H -1.1490 1.4687 0.6975
C24A C -1.1059(3) 1.4702(3) 0.8399(2)
H31A H -1.0373 1.4807 0.8642
H32A H -1.1055 1.3863 0.8737
C25A C -1.2310(3) 1.5716(3) 0.8689(2)
H33A H -1.2304 1.6549 0.8344
H34A H -1.2986 1.5610 0.8431
C26A C -1.2672(2) 1.5752(2) 0.9843(2)
O1A O -0.78919(17) 1.28188(18) 0.81470(19)
O2A O -0.79933(18) 1.44710(18) 0.69318(16)
O3A O -1.19075(18) 1.50003(19) 1.04830(14)
O4A O -1.37449(19) 1.65608(18) 1.01251(14)
Cd1_2 Cd -1.343011(13) 1.606578(13) 1.184817(12)
Cd1A_2 Cd 0.343011(13) -0.606578(13) 0.815183(12)
Cd1A_3 Cd 1.343011(13) 0.393422(13) -0.184817(12)
N1A_2 N -0.58608(17) 1.55126(15) 0.73616(14)
O3_2 O -0.80925(18) 1.49997(19) 0.95170(14)
O3A_2 O 0.80925(18) 0.50003(19) 0.04830(14)
O4_2 O -0.62551(19) 1.34392(18) 0.98749(14)
O4A_2 O 0.62551(19) 0.65608(18) 0.01251(14)
O5 O 0.9558(3) 0.7311(2) 0.95424(19)
H35 H 1.0149 0.7591 0.9473
H36 H 0.8878 0.7917 0.9304
O6 O 0.7248(4) 0.9791(3) 0.1150(2)
H37 H 0.7131 0.9170 0.1576
H38 H 0.7532 0.9571 0.0557
O7 O 0.4827(6) 0.0826(5) 0.0740(4)
H39 H 0.4613 0.1517 0.0979
H40 H 0.5386 0.0800 0.0213
loop_
_geom_bond_atom_site_label_1
_geom_bond_atom_site_label_2
_geom_bond_site_symmetry_1
_geom_bond_site_symmetry_2
Cd1 N1 1_555 1_555
N1 C1 1_555 1_555
N2 C2 1_555 1_555
N3 Cd1 1_555 1_555
N4 C12 1_555 1_555
C1 H1 1_555 1_555
C2 C1 1_555 1_555
H2 C2 1_555 1_555
C3 N1 1_555 1_555
C4 C3 1_555 1_555
H3 C4 1_555 1_555
H4 C4 1_555 1_555
H5 C4 1_555 1_555
C5 N2 1_555 1_555
H6 C5 1_555 1_555
H7 C5 1_555 1_555
C6 C5 1_555 1_555
C7 C6 1_555 1_555
C8 C7 1_555 1_555
H8 C8 1_555 1_555
H9 C8 1_555 1_555
H10 C8 1_555 1_555
C9 C6 1_555 1_555
C10 C9 1_555 1_555
H11 C10 1_555 1_555
H12 C10 1_555 1_555
H13 C10 1_555 1_555
C11 N3 1_555 1_555
H14 C11 1_555 1_555
C12 C11 1_555 1_555
H15 C12 1_555 1_555
C13 N3 1_555 1_555
C14 C13 1_555 1_555
H16 C14 1_555 1_555
H17 C14 1_555 1_555
H18 C14 1_555 1_555
C15 N4 1_555 1_555
H19 C15 1_555 1_555
H20 C15 1_555 1_555
C16 C15 1_555 1_555
C17 C16 1_555 1_555
C18 C17 1_555 1_555
H21 C18 1_555 1_555
H22 C18 1_555 1_555
H23 C18 1_555 1_555
C19 C16 1_555 1_555
C20 C19 1_555 1_555
H24 C20 1_555 1_555
H25 C20 1_555 1_555
H26 C20 1_555 1_555
C21 C22 1_555 1_555
C22 H27 1_555 1_555
H28 C22 1_555 1_555
C23 C22 1_555 1_555
H29 C23 1_555 1_555
H30 C23 1_555 1_555
C24 C23 1_555 1_555
H31 C24 1_555 1_555
H32 C24 1_555 1_555
C25 C24 1_555 1_555
H33 C25 1_555 1_555
H34 C25 1_555 1_555
C26 C25 1_555 1_555
O1 Cd1 1_555 1_555
O2 Cd1 1_555 1_555
O3 C26 1_555 1_555
O4 C26 1_555 1_555
O5 H35 1_555 1_555
H36 O5 1_555 1_555
O6 H37 1_555 1_555
H38 O6 1_555 1_555
O7 H39 1_555 1_555
H40 O7 1_555 1_555
N1A C1A 1_555 1_555
N2A C2A 1_555 1_555
C1A H1A 1_555 1_555
C2A C1A 1_555 1_555
H2A C2A 1_555 1_555
C3A N1A 1_555 1_555
C4A C3A 1_555 1_555
H3A C4A 1_555 1_555
H4A C4A 1_555 1_555
H5A C4A 1_555 1_555
C5A N2A 1_555 1_555
H6A C5A 1_555 1_555
H7A C5A 1_555 1_555
C6A C5A 1_555 1_555
C7A C9 1_555 1_555
C8A C7A 1_555 1_555
H8A C8A 1_555 1_555
H9A C8A 1_555 1_555
H10A C8A 1_555 1_555
C9A C7 1_555 1_555
C10A C9A 1_555 1_555
H11A C10A 1_555 1_555
H12A C10A 1_555 1_555
H13A C10A 1_555 1_555
N3A C11A 1_555 1_555
N4A C12A 1_555 1_555
C11A H14A 1_555 1_555
C12A C11A 1_555 1_555
H15A C12A 1_555 1_555
C13A N3A 1_555 1_555
C14A C13A 1_555 1_555
H16A C14A 1_555 1_555
H17A C14A 1_555 1_555
H18A C14A 1_555 1_555
C15A N4A 1_555 1_555
H19A C15A 1_555 1_555
H20A C15A 1_555 1_555
C16A C15A 1_555 1_555
C17A C19 1_555 1_555
C18A C17A 1_555 1_555
H21A C18A 1_555 1_555
H22A C18A 1_555 1_555
H23A C18A 1_555 1_555
C19A C17 1_555 1_555
C20A C19A 1_555 1_555
H24A C20A 1_555 1_555
H25A C20A 1_555 1_555
H26A C20A 1_555 1_555
Cd1A N3A 1_555 1_555
C21A C22A 1_555 1_555
C22A H27A 1_555 1_555
H28A C22A 1_555 1_555
C23A C22A 1_555 1_555
H29A C23A 1_555 1_555
H30A C23A 1_555 1_555
C24A C23A 1_555 1_555
H31A C24A 1_555 1_555
H32A C24A 1_555 1_555
C25A C24A 1_555 1_555
H33A C25A 1_555 1_555
H34A C25A 1_555 1_555
C26A C25A 1_555 1_555
O1A Cd1A 1_555 1_555
O2A Cd1A 1_555 1_555
O3A C26A 1_555 1_555
O4A C26A 1_555 1_555
Cd1_2 O3A 1_555 1_555
Cd1A_2 N1A 1_555 1_555
Cd1A_3 O3 1_555 1_555
N1A_2 Cd1A 1_555 1_555
O3_2 Cd1A 1_555 1_555
O3A_2 Cd1 1_555 1_555
O4_2 Cd1A 1_555 1_555
O4A_2 Cd1 1_555 1_555
N2 C3 1_555 1_555
N4 C13 1_555 1_555
C21 O1 1_555 1_555
C21 O2 1_555 1_555
O4 Cd1A_3 1_555 1_555
N2A C3A 1_555 1_555
C6A C7A 1_555 1_555
C6A C9A 1_555 1_555
N4A C13A 1_555 1_555
C16A C17A 1_555 1_555
C16A C19A 1_555 1_555
C21A O1A 1_555 1_555
C21A O2A 1_555 1_555
O4A Cd1_2 1_555 1_555

#END
