
#######################################################################
#
#                 Cambridge Crystallographic Data Centre
#                                CCDC 
#
#######################################################################
#
# If this CIF has been generated from an entry in the Cambridge 
# Structural Database, then it will include bibliographic, chemical, 
# crystal, experimental, refinement or atomic coordinate data resulting 
# from the CCDC's data processing and validation procedures.
#
#######################################################################

data_KOQQIS
_symmetry_cell_setting           monoclinic
_symmetry_space_group_name_H-M   'P 21/n'
_symmetry_Int_Tables_number      14
_space_group_name_Hall           '-P 2yn'
loop_
_symmetry_equiv_pos_site_id
_symmetry_equiv_pos_as_xyz
1 x,y,z
2 1/2-x,1/2+y,1/2-z
3 -x,-y,-z
4 1/2+x,1/2-y,1/2+z
_cell_length_a                   13.0982(5)
_cell_length_b                   13.2592(5)
_cell_length_c                   15.4421(6)
_cell_angle_alpha                90
_cell_angle_beta                 95.9967(10)
_cell_angle_gamma                90
_cell_volume                     2667.18
loop_
_atom_site_label
_atom_site_type_symbol
_atom_site_fract_x
_atom_site_fract_y
_atom_site_fract_z
Nb1 Nb 0.318196(16) 0.327641(18) 0.025860(14)
Mn1 Mn 0.37691(3) 0.68025(3) 0.20165(3)
Mn2 Mn 0.69640(3) 0.35177(3) 0.20890(3)
O1 O 0.27360(18) 0.76976(19) 0.11184(15)
H1 H 0.307(3) 0.797(4) 0.076(3)
H2 H 0.231(4) 0.738(4) 0.082(3)
O2 O 0.75352(17) 0.23610(18) 0.12614(14)
H3 H 0.708(3) 0.200(3) 0.095(3)
H4 H 0.785(3) 0.270(3) 0.095(3)
N1 N 0.30916(18) 0.53213(18) 0.15961(15)
N2 N 0.53513(18) 0.30647(19) 0.16689(16)
N3 N 0.51937(18) 0.32813(18) -0.09665(16)
N4 N 0.30735(18) 0.53677(19) -0.10192(15)
N5 N 0.22014(18) 0.2132(2) 0.19625(16)
N6 N 0.21950(17) 0.24474(18) -0.17411(15)
N7 N 0.0611(2) 0.3691(2) 0.00830(18)
N8 N 0.3726(2) 0.0779(2) 0.01415(18)
N9 N 0.62925(18) 0.47248(18) 0.29098(15)
N10 N 0.49800(17) 0.59485(18) 0.29247(15)
N11 N 0.6219(2) 0.5590(2) 0.51333(18)
H5 H 0.588(4) 0.612(4) 0.546(3)
H6 H 0.670(3) 0.520(3) 0.539(3)
N12 N 0.63256(17) 0.89836(19) 0.26383(16)
N13 N 0.46620(18) 0.82698(17) 0.23895(16)
N14 N 0.4414(3) 1.0936(3) 0.2863(4)
H7 H 0.474(5) 1.138(4) 0.318(4)
H8 H 0.376(3) 1.101(5) 0.279(4)
C1 C 0.31138(19) 0.4601(2) 0.11744(17)
C2 C 0.4600(2) 0.3128(2) 0.12113(18)
C3 C 0.4535(2) 0.3275(2) -0.05319(18)
C4 C 0.3107(2) 0.4678(2) -0.05664(17)
C5 C 0.2554(2) 0.2528(2) 0.14029(17)
C6 C 0.25173(19) 0.2736(2) -0.10656(17)
C7 C 0.1486(2) 0.3594(2) 0.01459(18)
C8 C 0.3556(2) 0.1627(2) 0.01870(18)
C9 C 0.5531(2) 0.5284(2) 0.25184(18)
H9 H 0.5369 0.5204 0.1908
C10 C 0.5201(2) 0.6058(2) 0.37873(18)
H10 H 0.4818 0.6525 0.4088
C11 C 0.5983(2) 0.5501(2) 0.42570(18)
C12 C 0.6517(2) 0.4834(2) 0.37707(18)
H11 H 0.7059 0.4445 0.4060
C13 C 0.5686(2) 0.8219(2) 0.24445(19)
H12 H 0.5982 0.7583 0.2336
C14 C 0.4247(2) 0.9160(2) 0.2530(2)
H13 H 0.3521 0.9215 0.2494
C15 C 0.4843(3) 1.0021(3) 0.2729(3)
C16 C 0.5903(2) 0.9882(2) 0.2782(2)
H14 H 0.6340 1.0442 0.2924
Mn1A Mn 0.12309(3) 0.18025(3) 0.29835(3)
Mn1B Mn 0.62309(3) 0.31975(3) -0.20165(3)
Mn2A Mn 0.80360(3) 0.85177(3) 0.29110(3)
Mn2B Mn 0.30360(3) 0.64823(3) -0.20890(3)
Mn2C Mn 0.19640(3) 0.14823(3) -0.29110(3)
N3B N 0.48063(18) 0.67187(18) 0.09665(16)
N4B N 0.69265(18) 0.46323(19) 0.10192(15)
N5A N 0.27986(18) 0.7132(2) 0.30375(16)
N6C N 0.71950(17) 0.25526(18) 0.32589(15)
N12A N 0.86744(17) 0.39836(19) 0.23617(16)
O3 O 0.14730(18) 0.6569(2) -0.00501(16)
H15 H 0.086(5) 0.648(4) -0.003(4)
H16 H 0.171(5) 0.603(5) -0.004(4)
O4 O 0.37986(18) 0.87087(19) -0.00938(16)
H17 H 0.379(4) 0.936(5) -0.009(3)
H18 H 0.435(4) 0.858(3) -0.015(3)
O5 O 0.0703(5) 0.8237(5) 0.1611(4)
H19 H 0.139(4) 0.834(8) 0.185(7)
H20 H 0.005(3) 0.823(5) 0.175(3)
O6? O 0.0182(7) 0.8011(5) 0.1179(6)
H21? H -0.026(9) 0.752(8) 0.091(8)
loop_
_geom_bond_atom_site_label_1
_geom_bond_atom_site_label_2
_geom_bond_site_symmetry_1
_geom_bond_site_symmetry_2
Nb1 C1 1_555 1_555
Mn1 O1 1_555 1_555
Mn2 O2 1_555 1_555
O1 H1 1_555 1_555
H2 O1 1_555 1_555
O2 H3 1_555 1_555
H4 O2 1_555 1_555
N1 Mn1 1_555 1_555
N2 Mn2 1_555 1_555
N3 C3 1_555 1_555
N4 C4 1_555 1_555
N5 C5 1_555 1_555
N6 C6 1_555 1_555
N7 C7 1_555 1_555
N8 C8 1_555 1_555
N9 Mn2 1_555 1_555
N10 Mn1 1_555 1_555
N11 H5 1_555 1_555
H6 N11 1_555 1_555
N12 C13 1_555 1_555
N13 Mn1 1_555 1_555
N14 H7 1_555 1_555
H8 N14 1_555 1_555
C1 N1 1_555 1_555
C2 Nb1 1_555 1_555
C3 Nb1 1_555 1_555
C4 Nb1 1_555 1_555
C5 Nb1 1_555 1_555
C6 Nb1 1_555 1_555
C7 Nb1 1_555 1_555
C8 Nb1 1_555 1_555
C9 N9 1_555 1_555
H9 C9 1_555 1_555
C10 N10 1_555 1_555
H10 C10 1_555 1_555
C11 N11 1_555 1_555
C12 N9 1_555 1_555
H11 C12 1_555 1_555
C13 N13 1_555 1_555
H12 C13 1_555 1_555
C14 N13 1_555 1_555
H13 C14 1_555 1_555
C15 N14 1_555 1_555
C16 N12 1_555 1_555
H14 C16 1_555 1_555
O3 H15 1_555 1_555
H16 O3 1_555 1_555
O4 H17 1_555 1_555
H18 O4 1_555 1_555
O5 H19 1_555 1_555
H20 O5 1_555 1_555
Mn1A N5 1_555 1_555
Mn1B N3 1_555 1_555
Mn2A N12 1_555 1_555
Mn2B N4 1_555 1_555
Mn2C N6 1_555 1_555
N3B Mn1 1_555 1_555
N4B Mn2 1_555 1_555
N5A Mn1 1_555 1_555
N6C Mn2 1_555 1_555
N12A Mn2 1_555 1_555
N2 C2 1_555 1_555
N10 C9 1_555 1_555
C10 C11 1_555 1_555
C11 C12 1_555 1_555
C14 C15 1_555 1_555
C15 C16 1_555 1_555

#END
