
#######################################################################
#
#                 Cambridge Crystallographic Data Centre
#                                CCDC 
#
#######################################################################
#
# If this CIF has been generated from an entry in the Cambridge 
# Structural Database, then it will include bibliographic, chemical, 
# crystal, experimental, refinement or atomic coordinate data resulting 
# from the CCDC's data processing and validation procedures.
#
#######################################################################

data_KOQQOY
_symmetry_cell_setting           monoclinic
_symmetry_space_group_name_H-M   'P 21/n'
_symmetry_Int_Tables_number      14
_space_group_name_Hall           '-P 2yn'
loop_
_symmetry_equiv_pos_site_id
_symmetry_equiv_pos_as_xyz
1 x,y,z
2 1/2-x,1/2+y,1/2-z
3 -x,-y,-z
4 1/2+x,1/2-y,1/2+z
_cell_length_a                   13.1851(3)
_cell_length_b                   13.2870(3)
_cell_length_c                   15.4634(3)
_cell_angle_alpha                90
_cell_angle_beta                 95.7077(8)
_cell_angle_gamma                90
_cell_volume                     2695.61
loop_
_atom_site_label
_atom_site_type_symbol
_atom_site_fract_x
_atom_site_fract_y
_atom_site_fract_z
Nb1 Nb 0.314479(9) 0.328981(9) 0.026325(8)
Mn1 Mn 0.379159(17) 0.682101(16) 0.200049(14)
Mn2 Mn 0.691394(16) 0.351274(17) 0.211320(14)
O1 O 0.28279(10) 0.76422(10) 0.10373(8)
H1 H 0.319(2) 0.795(2) 0.0699(18)
H2 H 0.244(2) 0.731(2) 0.0765(18)
O2 O 0.75194(9) 0.23520(9) 0.13007(8)
H3 H 0.712(2) 0.193(2) 0.1022(17)
H4 H 0.782(2) 0.265(2) 0.1000(18)
N1 N 0.31532(10) 0.53390(10) 0.15902(8)
N2 N 0.53388(10) 0.31293(10) 0.16214(9)
N3 N 0.51242(10) 0.32877(10) -0.09869(9)
N4 N 0.30479(10) 0.53535(10) -0.10508(8)
N5 N 0.21307(10) 0.21919(10) 0.19661(9)
N6 N 0.21458(10) 0.24267(10) -0.17171(9)
N7 N 0.05922(11) 0.37117(13) 0.01427(10)
N8 N 0.37472(11) 0.08043(11) 0.01452(10)
N9 N 0.62721(10) 0.47315(10) 0.29413(9)
N10 N 0.50084(10) 0.60081(10) 0.29119(8)
N11 N 0.63777(10) 0.89928(10) 0.25954(8)
N12 N 0.47116(10) 0.82970(10) 0.23621(9)
C1 C 0.31198(11) 0.46195(11) 0.11710(9)
C2 C 0.45742(12) 0.31682(11) 0.11944(10)
C3 C 0.44734(12) 0.32851(11) -0.05403(10)
C4 C 0.30631(11) 0.46753(11) -0.05840(9)
C5 C 0.25108(11) 0.25601(11) 0.14086(10)
C6 C 0.24644(11) 0.27278(11) -0.10443(10)
C7 C 0.14609(12) 0.36200(12) 0.01760(10)
C8 C 0.35430(12) 0.16434(11) 0.01987(10)
C9 C 0.55385(12) 0.52979(12) 0.25343(10)
H5 H 0.5378 0.5190 0.1929
C10 C 0.52287(12) 0.61422(12) 0.37674(10)
H6 H 0.4870 0.6645 0.4051
C11 C 0.59620(12) 0.55750(12) 0.42584(10)
C12 C 0.64784(12) 0.48706(12) 0.38017(10)
H7 H 0.6995 0.4474 0.4109
C13 C 0.57272(12) 0.82416(11) 0.23962(10)
H8 H 0.6011 0.7609 0.2267
C14 C 0.43164(11) 0.91962(12) 0.25339(10)
H9 H 0.3597 0.9258 0.2524
C15 C 0.49197(12) 1.00462(11) 0.27274(10)
C16 C 0.59650(12) 0.98936(12) 0.27554(10)
H10 H 0.6407 1.0448 0.2893
C17 C 0.61878(14) 0.57017(14) 0.52246(11)
H11 H 0.5662 0.6124 0.5445
H12 H 0.6855 0.6023 0.5352
H13 H 0.6194 0.5041 0.5506
C18 C 0.44707(13) 1.10510(12) 0.29072(12)
H14 H 0.5009 1.1499 0.3166
H15 H 0.3949 1.0968 0.3311
H16 H 0.4161 1.1344 0.2362
Mn1A Mn 0.120841(17) 0.182101(16) 0.299951(14)
Mn1B Mn 0.620841(17) 0.317899(16) -0.200049(14)
Mn2A Mn 0.808606(16) 0.851274(17) 0.288680(14)
Mn2B Mn 0.308606(16) 0.648726(17) -0.211320(14)
Mn2C Mn 0.191394(16) 0.148726(17) -0.288680(14)
N3B N 0.48758(10) 0.67123(10) 0.09869(9)
N4B N 0.69521(10) 0.46465(10) 0.10508(8)
N5A N 0.28693(10) 0.71919(10) 0.30339(9)
N6C N 0.71458(10) 0.25733(10) 0.32829(9)
N11A N 0.86223(10) 0.39928(10) 0.24046(8)
O3 O 0.14766(10) 0.65705(10) -0.01066(8)
H17 H 0.088(2) 0.6462(17) -0.0086(15)
H18 H 0.173(2) 0.604(2) -0.0175(17)
O4 O 0.38317(10) 0.87316(10) -0.01661(9)
H19 H 0.3828(19) 0.930(2) -0.0073(16)
H20 H 0.436(2) 0.860(2) -0.0224(17)
loop_
_geom_bond_atom_site_label_1
_geom_bond_atom_site_label_2
_geom_bond_site_symmetry_1
_geom_bond_site_symmetry_2
Nb1 C1 1_555 1_555
Mn1 O1 1_555 1_555
Mn2 O2 1_555 1_555
O1 H1 1_555 1_555
H2 O1 1_555 1_555
O2 H3 1_555 1_555
H4 O2 1_555 1_555
N1 Mn1 1_555 1_555
N2 Mn2 1_555 1_555
N3 C3 1_555 1_555
N4 C4 1_555 1_555
N5 C5 1_555 1_555
N6 C6 1_555 1_555
N7 C7 1_555 1_555
N8 C8 1_555 1_555
N9 Mn2 1_555 1_555
N10 Mn1 1_555 1_555
N11 C13 1_555 1_555
N12 Mn1 1_555 1_555
C1 N1 1_555 1_555
C2 Nb1 1_555 1_555
C3 Nb1 1_555 1_555
C4 Nb1 1_555 1_555
C5 Nb1 1_555 1_555
C6 Nb1 1_555 1_555
C7 Nb1 1_555 1_555
C8 Nb1 1_555 1_555
C9 N9 1_555 1_555
H5 C9 1_555 1_555
C10 N10 1_555 1_555
H6 C10 1_555 1_555
C11 C10 1_555 1_555
C12 N9 1_555 1_555
H7 C12 1_555 1_555
C13 N12 1_555 1_555
H8 C13 1_555 1_555
C14 N12 1_555 1_555
H9 C14 1_555 1_555
C15 C14 1_555 1_555
C16 N11 1_555 1_555
H10 C16 1_555 1_555
C17 C11 1_555 1_555
H11 C17 1_555 1_555
H12 C17 1_555 1_555
H13 C17 1_555 1_555
C18 C15 1_555 1_555
H14 C18 1_555 1_555
H15 C18 1_555 1_555
H16 C18 1_555 1_555
O3 H17 1_555 1_555
H18 O3 1_555 1_555
O4 H19 1_555 1_555
H20 O4 1_555 1_555
Mn1A N5 1_555 1_555
Mn1B N3 1_555 1_555
Mn2A N11 1_555 1_555
Mn2B N4 1_555 1_555
Mn2C N6 1_555 1_555
N3B Mn1 1_555 1_555
N4B Mn2 1_555 1_555
N5A Mn1 1_555 1_555
N6C Mn2 1_555 1_555
N11A Mn2 1_555 1_555
N2 C2 1_555 1_555
N10 C9 1_555 1_555
C11 C12 1_555 1_555
C15 C16 1_555 1_555

#END
