
#######################################################################
#
#                 Cambridge Crystallographic Data Centre
#                                CCDC 
#
#######################################################################
#
# If this CIF has been generated from an entry in the Cambridge 
# Structural Database, then it will include bibliographic, chemical, 
# crystal, experimental, refinement or atomic coordinate data resulting 
# from the CCDC's data processing and validation procedures.
#
#######################################################################

data_KOQREP
_symmetry_cell_setting           monoclinic
_symmetry_space_group_name_H-M   'C 2/c'
_symmetry_Int_Tables_number      15
_space_group_name_Hall           '-C 2yn'
loop_
_symmetry_equiv_pos_site_id
_symmetry_equiv_pos_as_xyz
1 x,y,z
2 -x,y,1/2-z
3 1/2+x,1/2+y,z
4 1/2-x,1/2+y,1/2-z
5 -x,-y,-z
6 x,-y,1/2+z
7 1/2-x,1/2-y,-z
8 1/2+x,1/2-y,1/2+z
_cell_length_a                   37.1540(4)
_cell_length_b                   10.16540(10)
_cell_length_c                   19.6631(2)
_cell_angle_alpha                90
_cell_angle_beta                 114.2386(5)
_cell_angle_gamma                90
_cell_volume                     6771.77
loop_
_atom_site_label
_atom_site_type_symbol
_atom_site_fract_x
_atom_site_fract_y
_atom_site_fract_z
W1 W 0.411763(4) -0.002300(13) 0.758137(7)
W2 W 0.370221(4) 0.193895(13) 0.755273(7)
W3 W 0.405668(4) 0.184884(13) 0.670608(7)
K1 K 0.30749(2) -0.13589(10) 0.82191(5)
O1 O 0.36154(6) 0.0616(2) 0.67019(12)
O2 O 0.41075(6) 0.1047(2) 0.83828(12)
O3 O 0.40351(7) 0.3229(2) 0.73686(12)
O4 O 0.45208(6) 0.0910(2) 0.73884(12)
O5 O 0.40935(7) -0.1655(2) 0.69053(13)
O6 O 0.37394(6) -0.1391(2) 0.77807(12)
O7 O 0.32967(7) -0.2945(3) 0.72000(14)
O8 O 0.36992(8) -0.3320(3) 0.62819(14)
O9 O 0.32284(7) 0.1068(3) 0.77011(13)
O10 O 0.32068(7) 0.3009(2) 0.68525(13)
O11 O 0.25723(8) 0.3429(3) 0.65628(17)
O12 O 0.26028(8) 0.1370(4) 0.75417(19)
O13 O 0.36271(6) 0.2773(2) 0.57746(12)
O14 O 0.40540(7) 0.0782(2) 0.57888(12)
O15 O 0.37241(8) 0.0436(3) 0.45645(14)
O16 O 0.32630(7) 0.2614(3) 0.45484(13)
C1 C 0.38025(10) -0.2463(3) 0.67548(18)
C2 C 0.35838(10) -0.2275(3) 0.72725(18)
C3 C 0.28879(11) 0.1656(4) 0.7416(2)
C4 C 0.28739(10) 0.2807(4) 0.6895(2)
C5 C 0.35250(10) 0.2231(4) 0.51268(18)
C6 C 0.37815(10) 0.1019(4) 0.51367(19)
C7 C 0.49878(10) -0.0959(3) 0.8588(2)
H1 H 0.5036 -0.0703 0.8179
C8 C 0.53028(10) -0.1337(4) 0.9230(2)
H2 H 0.5558 -0.1325 0.9255
C9 C 0.52323(12) -0.1733(4) 0.9838(2)
H3 H 0.5439 -0.1985 1.0281
C10 C 0.48477(12) -0.1746(4) 0.9772(2)
H4 H 0.4791 -0.2034 1.0166
C11 C 0.45482(10) -0.1330(4) 0.91177(19)
H5 H 0.4291 -0.1317 0.9085
C12 C 0.37307(11) 0.2754(4) 0.9084(2)
H6 H 0.3726 0.1845 0.9131
C13 C 0.37542(16) 0.3529(5) 0.9672(2)
H7 H 0.3763 0.3151 1.0109
C14 C 0.3765(2) 0.4872(6) 0.9605(3)
H8 H 0.3781 0.5416 0.9997
C15 C 0.3751(2) 0.5409(6) 0.8944(3)
H9 H 0.3762 0.6315 0.8890
C16 C 0.37227(16) 0.4576(4) 0.8375(2)
H10 H 0.3708 0.4934 0.7929
C17 C 0.43968(12) 0.4510(4) 0.6494(2)
H11 H 0.4159 0.4792 0.6497
C18 C 0.46527(14) 0.5429(5) 0.6435(3)
H12 H 0.4589 0.6319 0.6399
C19 C 0.50075(14) 0.5014(5) 0.6430(3)
H13 H 0.5185 0.5619 0.6387
C20 C 0.50930(11) 0.3682(5) 0.6489(2)
H14 H 0.5329 0.3376 0.6489
C21 C 0.48194(10) 0.2814(4) 0.65495(19)
H15 H 0.4876 0.1919 0.6592
N1 N 0.46142(8) -0.0944(3) 0.85264(15)
N2 N 0.37145(9) 0.3268(3) 0.84381(16)
N3 N 0.44765(8) 0.3220(3) 0.65488(15)
K1C K 0.19251(2) 0.36411(10) 0.67809(5)
K1E K 0.30749(2) 0.13589(10) 0.32191(5)
O11C O 0.24277(8) -0.1571(3) 0.84372(17)
O12C O 0.23972(8) -0.3630(4) 0.74583(19)
O15E O 0.37241(8) -0.0436(3) 0.95645(14)
O16E O 0.32630(7) -0.2614(3) 0.95484(13)
N4 N 0.21625(9) 0.0766(3) 0.91071(18)
H16 H 0.1965 0.1067 0.8727
C22 C 0.25216(13) 0.1202(5) 0.9236(3)
H17 H 0.2558 0.1789 0.8908
C23 C 0.28378(13) 0.0777(5) 0.9858(3)
H18 H 0.3091 0.1087 0.9962
C24 C 0.27754(13) -0.0114(5) 1.0326(3)
H19 H 0.2986 -0.0402 1.0754
C25 C 0.24006(13) -0.0576(5) 1.0156(2)
H20 H 0.2357 -0.1197 1.0461
C26 C 0.20943(12) -0.0114(4) 0.9538(2)
H21 H 0.1839 -0.0414 0.9420
loop_
_geom_bond_atom_site_label_1
_geom_bond_atom_site_label_2
_geom_bond_site_symmetry_1
_geom_bond_site_symmetry_2
W1 W2 1_555 1_555
W2 W3 1_555 1_555
W3 W1 1_555 1_555
K1 O6 1_555 1_555
O1 W1 1_555 1_555
O2 W1 1_555 1_555
O3 W2 1_555 1_555
O4 W1 1_555 1_555
O5 W1 1_555 1_555
O6 W1 1_555 1_555
O7 K1 1_555 1_555
O8 C1 1_555 1_555
O9 W2 1_555 1_555
O10 W2 1_555 1_555
O11 C4 1_555 1_555
O12 K1 1_555 1_555
O13 W3 1_555 1_555
O14 W3 1_555 1_555
O15 C6 1_555 1_555
O16 C5 1_555 1_555
C1 O5 1_555 1_555
C2 O6 1_555 1_555
C3 O9 1_555 1_555
C4 O10 1_555 1_555
C5 O13 1_555 1_555
C6 O14 1_555 1_555
C7 H1 1_555 1_555
C8 C7 1_555 1_555
H2 C8 1_555 1_555
C9 C8 1_555 1_555
H3 C9 1_555 1_555
C10 C9 1_555 1_555
H4 C10 1_555 1_555
C11 C10 1_555 1_555
H5 C11 1_555 1_555
C12 H6 1_555 1_555
C13 C12 1_555 1_555
H7 C13 1_555 1_555
C14 C13 1_555 1_555
H8 C14 1_555 1_555
C15 C14 1_555 1_555
H9 C15 1_555 1_555
C16 C15 1_555 1_555
H10 C16 1_555 1_555
C17 H11 1_555 1_555
C18 C17 1_555 1_555
H12 C18 1_555 1_555
C19 C18 1_555 1_555
H13 C19 1_555 1_555
C20 C19 1_555 1_555
H14 C20 1_555 1_555
C21 C20 1_555 1_555
H15 C21 1_555 1_555
N1 W1 1_555 1_555
N2 W2 1_555 1_555
N3 W3 1_555 1_555
N4 H16 1_555 1_555
C22 N4 1_555 1_555
H17 C22 1_555 1_555
C23 C22 1_555 1_555
H18 C23 1_555 1_555
C24 C23 1_555 1_555
H19 C24 1_555 1_555
C25 C24 1_555 1_555
H20 C25 1_555 1_555
C26 N4 1_555 1_555
H21 C26 1_555 1_555
K1C O11 1_555 1_555
K1E O15 1_555 1_555
O11C K1 1_555 1_555
O12C K1 1_555 1_555
O15E K1 1_555 1_555
O16E K1 1_555 1_555
W2 O1 1_555 1_555
W2 O2 1_555 1_555
W3 O1 1_555 1_555
W3 O3 1_555 1_555
W3 O4 1_555 1_555
K1 O9 1_555 1_555
O7 C2 1_555 1_555
O12 C3 1_555 1_555
O12 K1C 1_555 1_555
O16 K1E 1_555 1_555
C1 C2 1_555 1_555
C3 C4 1_555 1_555
C5 C6 1_555 1_555
C7 N1 1_555 1_555
C11 N1 1_555 1_555
C12 N2 1_555 1_555
C16 N2 1_555 1_555
C17 N3 1_555 1_555
C21 N3 1_555 1_555
C25 C26 1_555 1_555

#END
