
#######################################################################
#
#                 Cambridge Crystallographic Data Centre
#                                CCDC 
#
#######################################################################
#
# If this CIF has been generated from an entry in the Cambridge 
# Structural Database, then it will include bibliographic, chemical, 
# crystal, experimental, refinement or atomic coordinate data resulting 
# from the CCDC's data processing and validation procedures.
#
#######################################################################

data_KOQXOF
_symmetry_cell_setting           monoclinic
_symmetry_space_group_name_H-M   'P 2/c'
_symmetry_Int_Tables_number      13
_space_group_name_Hall           '-P 2yc'
loop_
_symmetry_equiv_pos_site_id
_symmetry_equiv_pos_as_xyz
1 x,y,z
2 -x,y,1/2-z
3 -x,-y,-z
4 x,-y,1/2+z
_cell_length_a                   10.0481(5)
_cell_length_b                   9.8733(5)
_cell_length_c                   23.4623(12)
_cell_angle_alpha                90
_cell_angle_beta                 96.2990(10)
_cell_angle_gamma                90
_cell_volume                     2313.59
loop_
_atom_site_label
_atom_site_type_symbol
_atom_site_fract_x
_atom_site_fract_y
_atom_site_fract_z
Cd1 Cd 0.85778(4) 0.42415(4) 0.688730(19)
O1 O 0.0023(4) 0.5826(5) 0.6504(2)
O2 O 0.1071(4) 0.4377(4) 0.71037(16)
O3 O 0.6117(4) 0.4054(4) 0.6850(2)
O4 O 0.7125(4) 0.5981(5) 0.6736(2)
O5 O 0.3355(4) 0.9288(4) 0.61308(18)
N1 N 0.8748(5) 0.3079(5) 0.6013(2)
N2 N 0.8466(4) 0.1927(5) 0.7041(2)
C1 C 0.8881(7) 0.3636(8) 0.5509(3)
H1 H 0.8990 0.4571 0.5495
C2 C 0.8868(8) 0.2914(9) 0.5000(3)
H2 H 0.8970 0.3350 0.4656
C3 C 0.8699(7) 0.1544(9) 0.5021(3)
H3 H 0.8671 0.1038 0.4686
C4 C 0.8568(6) 0.0892(7) 0.5542(3)
C5 C 0.8399(7) -0.0546(8) 0.5589(3)
H4 H 0.8377 -0.1086 0.5263
C6 C 0.8271(7) -0.1118(7) 0.6100(3)
H5 H 0.8168 -0.2052 0.6122
C7 C 0.8290(6) -0.0318(7) 0.6614(3)
C8 C 0.8135(7) -0.0869(8) 0.7151(3)
H6 H 0.8033 -0.1798 0.7194
C9 C 0.8136(8) -0.0020(8) 0.7613(3)
H7 H 0.8031 -0.0367 0.7974
C10 C 0.8295(6) 0.1365(7) 0.7537(3)
H8 H 0.8280 0.1927 0.7854
C11 C 0.8459(5) 0.1104(6) 0.6579(2)
C12 C 0.8596(6) 0.1711(6) 0.6030(3)
C13 C 0.4760(5) 0.6037(6) 0.6682(2)
C14 C 0.3585(5) 0.5378(6) 0.6785(2)
H9 H 0.3616 0.4499 0.6928
C15 C 0.2372(5) 0.6039(6) 0.6673(2)
C16 C 0.2335(5) 0.7350(6) 0.6453(2)
H10 H 0.1517 0.7786 0.6368
C17 C 0.3515(6) 0.8015(6) 0.6360(2)
C18 C 0.4730(5) 0.7353(6) 0.6483(2)
H11 H 0.5525 0.7796 0.6431
C19 C 0.6073(6) 0.5302(7) 0.6763(3)
C20 C 0.1075(6) 0.5392(6) 0.6768(3)
C21 C 0.4153(7) 1.1373(7) 0.5785(3)
C22 C 0.3072(8) 1.2150(8) 0.5886(3)
H12 H 0.2538 1.1895 0.6167
C23 C 0.2775(9) 1.3314(8) 0.5568(4)
H13 H 0.2042 1.3840 0.5638
C24 C 0.3554(10) 1.3697(9) 0.5151(4)
H14 H 0.3351 1.4480 0.4939
C25 C 0.4623(10) 1.2928(9) 0.5051(4)
H15 H 0.5157 1.3191 0.4770
C26 C 0.4926(8) 1.1761(8) 0.5360(4)
H16 H 0.5651 1.1232 0.5282
C27 C 0.4532(7) 1.0114(7) 0.6125(3)
H17 H 0.5218 0.9621 0.5950
H18 H 0.4883 1.0353 0.6513
Cd1_2 Cd -0.14222(4) 0.42415(4) 0.688730(19)
Cd1A Cd 0.14222(4) 0.42415(4) 0.811270(19)
O1_2 O 1.0023(4) 0.5826(5) 0.6504(2)
O2_2 O 1.1071(4) 0.4377(4) 0.71037(16)
O2A O 0.8929(4) 0.4377(4) 0.78963(16)
O6 O 0.5000 0.1974(11) 0.7500
H19 H 0.526(14) 0.237(11) 0.728(5)
H19A H 0.474(14) 0.237(11) 0.772(5)
loop_
_geom_bond_atom_site_label_1
_geom_bond_atom_site_label_2
_geom_bond_site_symmetry_1
_geom_bond_site_symmetry_2
Cd1 O3 1_555 1_555
O1 C20 1_555 1_555
O2 C20 1_555 1_555
O3 C19 1_555 1_555
O4 Cd1 1_555 1_555
O5 C17 1_555 1_555
N1 Cd1 1_555 1_555
N2 Cd1 1_555 1_555
C1 N1 1_555 1_555
H1 C1 1_555 1_555
C2 C1 1_555 1_555
H2 C2 1_555 1_555
C3 C2 1_555 1_555
H3 C3 1_555 1_555
C4 C3 1_555 1_555
C5 C4 1_555 1_555
H4 C5 1_555 1_555
C6 C5 1_555 1_555
H5 C6 1_555 1_555
C7 C6 1_555 1_555
C8 C7 1_555 1_555
H6 C8 1_555 1_555
C9 C8 1_555 1_555
H7 C9 1_555 1_555
C10 N2 1_555 1_555
H8 C10 1_555 1_555
C11 N2 1_555 1_555
C12 N1 1_555 1_555
C13 C14 1_555 1_555
C14 H9 1_555 1_555
C15 C14 1_555 1_555
C16 C15 1_555 1_555
H10 C16 1_555 1_555
C17 C16 1_555 1_555
C18 C13 1_555 1_555
H11 C18 1_555 1_555
C19 O4 1_555 1_555
C20 C15 1_555 1_555
C21 C22 1_555 1_555
C22 H12 1_555 1_555
C23 C22 1_555 1_555
H13 C23 1_555 1_555
C24 C23 1_555 1_555
H14 C24 1_555 1_555
C25 C24 1_555 1_555
H15 C25 1_555 1_555
C26 C21 1_555 1_555
H16 C26 1_555 1_555
C27 O5 1_555 1_555
H17 C27 1_555 1_555
H18 C27 1_555 1_555
O6 H19 1_555 1_555
Cd1_2 O1 1_555 1_555
Cd1A O2 1_555 1_555
O1_2 Cd1 1_555 1_555
O2_2 Cd1 1_555 1_555
O2A Cd1 1_555 1_555
H19A O6 1_555 1_555
O2 Cd1_2 1_555 1_555
C4 C12 1_555 1_555
C7 C11 1_555 1_555
C9 C10 1_555 1_555
C11 C12 1_555 1_555
C13 C19 1_555 1_555
C17 C18 1_555 1_555
C21 C27 1_555 1_555
C25 C26 1_555 1_555

#END
