
#######################################################################
#
#                 Cambridge Crystallographic Data Centre
#                                CCDC 
#
#######################################################################
#
# If this CIF has been generated from an entry in the Cambridge 
# Structural Database, then it will include bibliographic, chemical, 
# crystal, experimental, refinement or atomic coordinate data resulting 
# from the CCDC's data processing and validation procedures.
#
#######################################################################

data_KOQZAT
_symmetry_cell_setting           tetragonal
_symmetry_space_group_name_H-M   'P 43 21 2'
_symmetry_Int_Tables_number      96
_space_group_name_Hall           'P 4nw 2abw'
loop_
_symmetry_equiv_pos_site_id
_symmetry_equiv_pos_as_xyz
1 x,y,z
2 -x,-y,1/2+z
3 1/2-y,1/2+x,3/4+z
4 1/2+y,1/2-x,1/4+z
5 1/2-x,1/2+y,3/4-z
6 1/2+x,1/2-y,1/4-z
7 y,x,-z
8 -y,-x,1/2-z
_cell_length_a                   8.670(4)
_cell_length_b                   8.670(4)
_cell_length_c                   12.722(13)
_cell_angle_alpha                90
_cell_angle_beta                 90
_cell_angle_gamma                90
_cell_volume                     956.299
loop_
_atom_site_label
_atom_site_type_symbol
_atom_site_fract_x
_atom_site_fract_y
_atom_site_fract_z
Zn1 Zn 0.57205(3) 0.57205(3) 0.0000
O1 O 0.43997(17) 0.70155(17) 0.12949(11)
N1 N 0.5917(2) 0.3906(2) 0.09917(14)
H1 H 0.5948 0.3033 0.0610
H2 H 0.5070 0.3865 0.1400
O2 O 0.73136(15) 0.73136(15) 0.0000
O3 O 0.49342(18) 0.7464(2) 0.31280(11)
O4 O 0.68631(17) 0.79563(18) 0.18783(11)
B1 B 0.5382(3) 0.7512(3) 0.20931(19)
C1 C 0.7367(3) 0.2633(3) 0.2500
H3 H 0.8333 0.2672 0.2867
C2 C 0.7314(3) 0.3943(3) 0.16922(18)
H4 H 0.7328 0.4912 0.2058
H5 H 0.8221 0.3894 0.1261
B2 B 0.7722(3) 0.8296(3) 0.09273(18)
O1F O 0.70155(17) 0.43997(17) -0.12949(11)
O3F O 0.7464(2) 0.49342(18) -0.31280(11)
O4F O 0.79563(18) 0.68631(17) -0.18783(11)
B1F B 0.7512(3) 0.5382(3) -0.20931(19)
B2F B 0.8296(3) 0.7722(3) -0.09273(18)
N1G N 0.6094(2) 0.4083(2) 0.40083(14)
H1G H 0.6967 0.4052 0.4390
H2G H 0.6135 0.4930 0.3600
H3G H 0.7328 0.1667 0.2133
C2G C 0.6057(3) 0.2686(3) 0.33078(18)
H4G H 0.5088 0.2672 0.2942
H5G H 0.6106 0.1779 0.3739
Zn1A Zn 0.42795(3) 0.42795(3) 0.5000
O1B O 0.79845(17) 0.93997(17) -0.12051(11)
O1E O 0.93997(17) 0.79845(17) 0.12051(11)
N1F N 0.3906(2) 0.5917(2) -0.09917(14)
O3B O 0.7536(2) 0.99342(18) 0.06280(11)
O3E O 0.99342(18) 0.7536(2) -0.06280(11)
B2B B 0.6704(3) 0.2722(3) -0.15727(18)
B2C B 0.3296(3) 0.7278(3) 0.34273(18)
B2D B 0.7278(3) 0.3296(3) -0.34273(18)
B2E B 0.2722(3) 0.6704(3) 0.15727(18)
loop_
_geom_bond_atom_site_label_1
_geom_bond_atom_site_label_2
_geom_bond_site_symmetry_1
_geom_bond_site_symmetry_2
Zn1 O1 1_555 1_555
O1 B1 1_555 1_555
N1 Zn1 1_555 1_555
H1 N1 1_555 1_555
H2 N1 1_555 1_555
O2 Zn1 1_555 1_555
O3 B1 1_555 1_555
O4 B1 1_555 1_555
C1 H3 1_555 1_555
C2 N1 1_555 1_555
H4 C2 1_555 1_555
H5 C2 1_555 1_555
B2 O2 1_555 1_555
O1F Zn1 1_555 1_555
O3F B1F 1_555 1_555
O4F B1F 1_555 1_555
B1F O1F 1_555 1_555
B2F O2 1_555 1_555
N1G H1G 1_555 1_555
H2G N1G 1_555 1_555
H3G C1 1_555 1_555
C2G C1 1_555 1_555
H4G C2G 1_555 1_555
H5G C2G 1_555 1_555
Zn1A N1G 1_555 1_555
O1B B2F 1_555 1_555
O1E B2 1_555 1_555
N1F Zn1 1_555 1_555
O3B B2 1_555 1_555
O3E B2F 1_555 1_555
B2B O1F 1_555 1_555
B2C O3 1_555 1_555
B2D O3F 1_555 1_555
B2E O1 1_555 1_555
O4 B2 1_555 1_555
C1 C2 1_555 1_555
O4F B2F 1_555 1_555
N1G C2G 1_555 1_555

#END
