
#######################################################################
#
#                 Cambridge Crystallographic Data Centre
#                                CCDC 
#
#######################################################################
#
# If this CIF has been generated from an entry in the Cambridge 
# Structural Database, then it will include bibliographic, chemical, 
# crystal, experimental, refinement or atomic coordinate data resulting 
# from the CCDC's data processing and validation procedures.
#
#######################################################################

data_KORKOR
_symmetry_cell_setting           monoclinic
_symmetry_space_group_name_H-M   'P 21/n'
_symmetry_Int_Tables_number      14
_space_group_name_Hall           '-P 2yn'
loop_
_symmetry_equiv_pos_site_id
_symmetry_equiv_pos_as_xyz
1 x,y,z
2 1/2-x,1/2+y,1/2-z
3 -x,-y,-z
4 1/2+x,1/2-y,1/2+z
_cell_length_a                   7.815(1)
_cell_length_b                   14.467(3)
_cell_length_c                   27.772(5)
_cell_angle_alpha                90
_cell_angle_beta                 92.175(1)
_cell_angle_gamma                90
_cell_volume                     3137.63
loop_
_atom_site_label
_atom_site_type_symbol
_atom_site_fract_x
_atom_site_fract_y
_atom_site_fract_z
O1 O -0.5770(7) -0.6677(4) 0.0621(3)
O2 O -0.3256(7) -0.7794(4) 0.0960(2)
O3 O -0.1189(6) -0.7234(4) 0.0271(2)
O4 O -0.3725(8) -0.6152(4) -0.0087(2)
O5 O -0.9649(7) 0.2099(4) 0.2448(2)
O6 O -0.8006(8) 0.3161(4) 0.1816(2)
O7 O -0.6181(9) 0.3927(5) 0.2545(3)
O8 O -0.7779(8) 0.2813(6) 0.3174(2)
N1 N -0.2653(8) -0.0448(5) 0.1603(2)
N2 N -0.5415(8) 0.1631(5) 0.2411(2)
N3 N -0.1863(7) -0.2428(4) 0.1084(2)
N4 N -0.227(1) -0.5460(5) 0.0982(3)
N5 N -0.0258(7) -0.0550(4) 0.0683(2)
N6 N 0.5397(7) -0.0857(4) 0.0605(2)
C1 C -0.619(1) -0.7617(7) 0.0688(4)
C2 C -0.500(1) -0.7960(7) 0.1073(3)
C3 C -0.261(1) -0.8487(6) 0.0663(3)
C4 C -0.096(1) -0.8123(6) 0.0489(3)
C5 C -0.163(1) -0.7290(8) -0.0229(3)
C6 C -0.233(2) -0.6426(8) -0.0384(4)
C7 C -0.531(1) -0.6459(8) -0.0230(4)
C8 C -0.649(1) -0.6285(7) 0.0167(5)
C9 C -1.042(1) 0.2331(9) 0.2004(4)
C10 C -0.978(2) 0.308(1) 0.1785(4)
C11 C -0.742(2) 0.4082(8) 0.1789(4)
C12 C -0.682(2) 0.443(1) 0.2189(6)
C13 C -0.642(2) 0.420(1) 0.3001(5)
C14 C -0.753(2) 0.379(1) 0.3264(5)
C15 C -0.946(1) 0.251(1) 0.3241(4)
C16 C -1.050(1) 0.2421(9) 0.2841(4)
C17 C -0.3208(9) 0.0356(5) 0.2397(3)
C18 C -0.2890(9) -0.0085(5) 0.1963(3)
C19 C -0.4416(9) 0.1058(5) 0.2401(3)
C20 C -0.088(1) -0.4028(5) 0.1343(3)
C21 C -0.1428(9) -0.3152(5) 0.1200(3)
C22 C -0.166(1) -0.4806(5) 0.1144(3)
C23 C 0.2626(8) -0.0027(5) 0.0377(3)
C24 C 0.1067(8) -0.0307(5) 0.0549(2)
C25 C 0.4134(8) -0.0486(5) 0.0506(2)
Li1 Li -0.311(2) -0.653(1) 0.0618(5)
Li2 Li -0.715(2) 0.259(1) 0.2474(5)
Li3 Li -0.235(1) -0.1071(8) 0.0982(4)
H1 H -0.5999 -0.7993 0.0413
H2 H -0.7329 -0.7718 0.0788
H3 H -0.5254 -0.7650 0.1374
H4 H -0.5177 -0.8617 0.1131
H5 H -0.3390 -0.8626 0.0391
H6 H -0.2438 -0.9072 0.0833
H7 H -0.0132 -0.8076 0.0752
H8 H -0.0468 -0.8548 0.0256
H9 H -0.2421 -0.7779 -0.0296
H10 H -0.0597 -0.7436 -0.0407
H11 H -0.1434 -0.5952 -0.0356
H12 H -0.2689 -0.6450 -0.0716
H13 H -0.5323 -0.7113 -0.0309
H14 H -0.5772 -0.6143 -0.0519
H15 H -0.6588 -0.5643 0.0195
H16 H -0.7550 -0.6564 0.0087
H17 H -1.1695 0.2372 0.2017
H18 H -1.0314 0.1799 0.1763
H19 H -1.0217 0.3138 0.1451
H20 H -1.0305 0.3620 0.1949
H21 H -0.8267 0.4468 0.1634
H22 H -0.6474 0.4059 0.1542
H23 H -0.5753 0.4872 0.2065
H24 H -0.7575 0.4941 0.2264
H25 H -0.7052 0.4843 0.3030
H26 H -0.5482 0.4273 0.3218
H27 H -0.7070 0.3761 0.3603
H28 H -0.8603 0.4031 0.3260
H29 H -1.0029 0.2718 0.3504
H30 H -0.9314 0.1771 0.3340
H31 H -1.1531 0.2055 0.2890
H32 H -1.0905 0.3052 0.2783
H33 H -0.2602 0.0156 0.2691
H34 H 0.0010 -0.4080 0.1586
H35 H 0.2644 0.0507 0.0175
N6_2 N -0.4603(7) -0.0857(4) 0.0605(2)
Li3_2 Li 0.765(1) -0.1071(8) 0.0982(4)
loop_
_geom_bond_atom_site_label_1
_geom_bond_atom_site_label_2
_geom_bond_site_symmetry_1
_geom_bond_site_symmetry_2
O1 C1 1_555 1_555
O2 C2 1_555 1_555
O3 C4 1_555 1_555
O4 C6 1_555 1_555
O5 C9 1_555 1_555
O6 C10 1_555 1_555
O7 C12 1_555 1_555
O8 C14 1_555 1_555
N1 C18 1_555 1_555
N2 C19 1_555 1_555
N3 C21 1_555 1_555
N4 C22 1_555 1_555
N5 C24 1_555 1_555
N6 C25 1_555 1_555
C1 C2 1_555 1_555
C2 H3 1_555 1_555
C3 O2 1_555 1_555
C4 C3 1_555 1_555
C5 O3 1_555 1_555
C6 C5 1_555 1_555
C7 O4 1_555 1_555
C8 O1 1_555 1_555
C9 C10 1_555 1_555
C10 H19 1_555 1_555
C11 O6 1_555 1_555
C12 C11 1_555 1_555
C13 O7 1_555 1_555
C14 C13 1_555 1_555
C15 O8 1_555 1_555
C16 O5 1_555 1_555
C17 C18 1_555 1_555
C19 C17 1_555 1_555
C20 C21 1_555 1_555
C22 C20 1_555 1_555
C23 C24 1_555 1_555
C25 C23 1_555 1_555
Li1 O1 1_555 1_555
Li2 O5 1_555 1_555
Li3 N1 1_555 1_555
H1 C1 1_555 1_555
H2 C1 1_555 1_555
H4 C2 1_555 1_555
H5 C3 1_555 1_555
H6 C3 1_555 1_555
H7 C4 1_555 1_555
H8 C4 1_555 1_555
H9 C5 1_555 1_555
H10 C5 1_555 1_555
H11 C6 1_555 1_555
H12 C6 1_555 1_555
H13 C7 1_555 1_555
H14 C7 1_555 1_555
H15 C8 1_555 1_555
H16 C8 1_555 1_555
H17 C9 1_555 1_555
H18 C9 1_555 1_555
H20 C10 1_555 1_555
H21 C11 1_555 1_555
H22 C11 1_555 1_555
H23 C12 1_555 1_555
H24 C12 1_555 1_555
H25 C13 1_555 1_555
H26 C13 1_555 1_555
H27 C14 1_555 1_555
H28 C14 1_555 1_555
H29 C15 1_555 1_555
H30 C15 1_555 1_555
H31 C16 1_555 1_555
H32 C16 1_555 1_555
H33 C17 1_555 1_555
H34 C20 1_555 1_555
H35 C23 1_555 1_555
N6_2 Li3 1_555 1_555
Li3_2 N6 1_555 1_555
O2 Li1 1_555 1_555
O3 Li1 1_555 1_555
O4 Li1 1_555 1_555
O6 Li2 1_555 1_555
O7 Li2 1_555 1_555
O8 Li2 1_555 1_555
N2 Li2 1_555 1_555
N3 Li3 1_555 1_555
N4 Li1 1_555 1_555
N5 Li3 1_555 1_555
C7 C8 1_555 1_555
C15 C16 1_555 1_555

#END
