
#######################################################################
#
#                 Cambridge Crystallographic Data Centre
#                                CCDC 
#
#######################################################################
#
# If this CIF has been generated from an entry in the Cambridge 
# Structural Database, then it will include bibliographic, chemical, 
# crystal, experimental, refinement or atomic coordinate data resulting 
# from the CCDC's data processing and validation procedures.
#
#######################################################################

data_KORLUA
_symmetry_cell_setting           triclinic
_symmetry_space_group_name_H-M   'P -1'
_symmetry_Int_Tables_number      2
_space_group_name_Hall           '-P 1'
loop_
_symmetry_equiv_pos_site_id
_symmetry_equiv_pos_as_xyz
1 x,y,z
2 -x,-y,-z
_cell_length_a                   14.8502(3)
_cell_length_b                   18.4266(2)
_cell_length_c                   18.6736(2)
_cell_angle_alpha                60.775(4)
_cell_angle_beta                 88.108(7)
_cell_angle_gamma                73.066(6)
_cell_volume                     4229.39
loop_
_atom_site_label
_atom_site_type_symbol
_atom_site_fract_x
_atom_site_fract_y
_atom_site_fract_z
Sm1 Sm -0.000916(14) 0.441594(12) 0.638492(11)
Sm2 Sm 0.055070(14) 0.422546(12) 0.873309(11)
Sm3 Sm -0.004895(15) 0.385108(12) 1.094534(12)
C1 C -0.3927(5) 1.0569(4) 0.3650(4)
H1 H -0.3862 1.0551 0.3161
C2 C -0.4414(7) 1.1350(5) 0.3626(6)
H2 H -0.4675 1.1838 0.3109
C3 C -0.4164(7) 1.0743(5) 0.4976(6)
H3 H -0.4237 1.0788 0.5451
C4 C -0.3664(6) 0.9921(4) 0.5081(5)
H4 H -0.3419 0.9444 0.5607
C5 C -0.3540(4) 0.9824(3) 0.4397(3)
C6 C -0.1865(3) 0.8149(3) 0.3964(3)
H5 H -0.1505 0.8140 0.3550
C7 C -0.2434(4) 0.8938(3) 0.3863(3)
H6 H -0.2450 0.9454 0.3383
C8 C -0.2987(3) 0.8974(3) 0.4469(3)
C9 C -0.2971(4) 0.8186(3) 0.5157(3)
H7 H -0.3367 0.8190 0.5552
C10 C -0.2380(3) 0.7395(3) 0.5268(3)
H8 H -0.2362 0.6877 0.5748
C11 C -0.1819(3) 0.7365(3) 0.4677(2)
C12 C -0.1147(3) 0.6510(2) 0.4812(2)
C13 C 0.0610(4) 0.9450(3) 0.4088(3)
H9 H 0.1166 0.8982 0.4248
C14 C 0.0581(4) 1.0283(3) 0.3471(3)
H10 H 0.1128 1.0355 0.3227
C15 C -0.0946(4) 1.0853(3) 0.3569(3)
H11 H -0.1491 1.1334 0.3395
C16 C -0.0988(4) 1.0051(3) 0.4187(3)
H12 H -0.1548 1.0002 0.4414
C17 C -0.0192(3) 0.9320(3) 0.4466(2)
C18 C 0.0459(3) 0.6859(3) 0.5853(2)
H13 H 0.0866 0.6353 0.5881
C19 C 0.0437(3) 0.7674(3) 0.5207(2)
H14 H 0.0844 0.7713 0.4810
C20 C -0.0188(3) 0.8438(3) 0.5145(2)
C21 C -0.0805(3) 0.8362(3) 0.5738(3)
H15 H -0.1250 0.8863 0.5691
C22 C -0.0763(3) 0.7551(3) 0.6396(3)
H16 H -0.1164 0.7510 0.6798
C23 C -0.0129(3) 0.6799(2) 0.6460(2)
C24 C -0.0048(3) 0.5929(2) 0.7207(2)
C25 C -0.5920(4) 0.7327(5) 0.4591(4)
H17 H -0.5486 0.7486 0.4786
C26 C -0.6900(5) 0.7746(6) 0.4490(5)
H18 H -0.7095 0.8181 0.4633
C27 C -0.7265(5) 0.6936(5) 0.4031(6)
H19 H -0.7721 0.6788 0.3847
C28 C -0.6316(4) 0.6477(4) 0.4101(5)
H20 H -0.6150 0.6044 0.3955
C29 C -0.5616(4) 0.6669(4) 0.4390(4)
C30 C -0.3265(3) 0.5477(3) 0.4036(3)
H21 H -0.3020 0.5309 0.3655
C31 C -0.4225(3) 0.5893(4) 0.3949(3)
H22 H -0.4628 0.5978 0.3525
C32 C -0.4597(3) 0.6186(3) 0.4492(3)
C33 C -0.3984(4) 0.6024(4) 0.5133(3)
H23 H -0.4220 0.6222 0.5495
C34 C -0.3031(3) 0.5574(3) 0.5247(3)
H24 H -0.2637 0.5448 0.5697
C35 C -0.2663(3) 0.5310(3) 0.4691(2)
C36 C -0.1615(3) 0.4903(3) 0.4771(3)
C37 C 0.5285(5) 0.0590(4) 0.7242(4)
H25 H 0.4692 0.0578 0.7111
C38 C 0.6105(6) 0.0032(5) 0.7182(5)
H26 H 0.6043 -0.0349 0.7009
C39 C 0.7025(5) 0.0568(6) 0.7590(5)
H27 H 0.7627 0.0567 0.7714
C40 C 0.6245(4) 0.1155(5) 0.7665(5)
H28 H 0.6330 0.1537 0.7828
C41 C 0.5353(4) 0.1162(4) 0.7497(3)
C42 C 0.2809(4) 0.2539(3) 0.7207(3)
H29 H 0.2244 0.2719 0.6877
C43 C 0.3629(4) 0.2042(4) 0.7092(3)
H30 H 0.3613 0.1903 0.6677
C44 C 0.4478(4) 0.1747(3) 0.7583(3)
C45 C 0.4487(3) 0.1995(3) 0.8171(3)
H31 H 0.5053 0.1814 0.8500
C46 C 0.3673(3) 0.2505(3) 0.8279(3)
H32 H 0.3694 0.2675 0.8672
C47 C 0.2815(3) 0.2769(3) 0.7801(3)
C48 C 0.1931(3) 0.3297(3) 0.7949(2)
C49 C -0.6261(4) 0.6338(4) 0.6844(4)
H33 H -0.6039 0.6197 0.6442
C50 C -0.7216(4) 0.6658(5) 0.6842(4)
H34 H -0.7621 0.6719 0.6433
C51 C -0.6999(4) 0.6803(4) 0.7935(4)
H35 H -0.7244 0.6972 0.8315
C52 C -0.6027(4) 0.6484(3) 0.7989(3)
H36 H -0.5639 0.6444 0.8396
C53 C -0.5625(3) 0.6224(3) 0.7442(3)
C54 C -0.3247(3) 0.4838(3) 0.7335(3)
H37 H -0.3016 0.4439 0.7152
C55 C -0.4215(3) 0.5218(3) 0.7263(3)
H38 H -0.4627 0.5061 0.7042
C56 C -0.4586(3) 0.5824(3) 0.7511(3)
C57 C -0.3949(3) 0.6033(3) 0.7851(3)
H39 H -0.4182 0.6442 0.8021
C58 C -0.2984(3) 0.5649(3) 0.7941(3)
H40 H -0.2576 0.5795 0.8179
C59 C -0.2614(3) 0.5046(3) 0.7680(2)
C60 C -0.1571(3) 0.4637(3) 0.7747(2)
C61 C 0.6290(4) 0.2842(5) 0.9001(5)
H41 H 0.5840 0.2730 0.8768
C62 C 0.7248(5) 0.2440(5) 0.9045(6)
H42 H 0.7418 0.2066 0.8829
C63 C 0.7659(4) 0.3090(4) 0.9662(4)
H43 H 0.8125 0.3185 0.9896
C64 C 0.6729(4) 0.3525(4) 0.9644(4)
H44 H 0.6584 0.3899 0.9860
C65 C 0.6008(4) 0.3409(3) 0.9305(3)
C66 C 0.3357(3) 0.4475(3) 0.8615(3)
H45 H 0.2917 0.4596 0.8197
C67 C 0.4306(3) 0.4054(3) 0.8654(3)
H46 H 0.4493 0.3893 0.8258
C68 C 0.4990(3) 0.3864(3) 0.9262(3)
C69 C 0.4679(4) 0.4112(4) 0.9847(3)
H47 H 0.5118 0.3988 1.0266
C70 C 0.3739(4) 0.4534(3) 0.9817(3)
H48 H 0.3554 0.4699 1.0211
C71 C 0.3062(3) 0.4718(3) 0.9207(3)
C72 C 0.2057(3) 0.5197(3) 0.9169(2)
C73 C 0.6912(13) -0.0232(12) 1.0817(10)
H49 H 0.6988 -0.0703 1.0708
C74 C 0.5929(9) 0.0277(8) 1.0879(7)
H50 H 0.5405 0.0100 1.0814
C75 C 0.5783(7) 0.0945(6) 1.1014(6)
C76 C 0.6521(9) 0.1196(9) 1.1200(8)
H51 H 0.6456 0.1663 1.1312
C77 C 0.7523 0.0560 1.1237
H52 H 0.8082 0.0704 1.1284
C78 C 0.3146(4) 0.2165(4) 1.0376(3)
H53 H 0.2662 0.2279 0.9973
C79 C 0.4059(5) 0.1649(5) 1.0444(4)
H54 H 0.4188 0.1401 1.0107
C80 C 0.4775(5) 0.1491(4) 1.0982(5)
C81 C 0.4558(5) 0.1859(4) 1.1481(5)
H55 H 0.5041 0.1785 1.1839
C82 C 0.3637(4) 0.2338(4) 1.1460(4)
H56 H 0.3498 0.2545 1.1830
C83 C 0.2925(3) 0.2507(3) 1.0888(3)
C84 C 0.1938(3) 0.3055(3) 1.0829(3)
C85 C 0.0455(4) -0.1669(3) 1.1559(3)
H57 H 0.0507 -0.1433 1.0997
C86 C 0.0390(3) -0.2498(3) 1.2015(3)
H58 H 0.0382 -0.2800 1.1737
C87 C 0.0368(3) -0.2449(3) 1.3212(3)
H59 H 0.0356 -0.2715 1.3781
C88 C 0.0414(3) -0.1608(3) 1.2794(3)
H60 H 0.0426 -0.1318 1.3084
C89 C 0.0442(3) -0.1186(2) 1.1946(2)
C90 C 0.0838(3) 0.0928(3) 1.0338(3)
H61 H 0.1146 0.1131 0.9871
C91 C 0.0882(3) 0.0054(3) 1.0771(3)
H62 H 0.1216 -0.0326 1.0591
C92 C 0.0426(3) -0.0260(3) 1.1478(3)
C93 C -0.0061(4) 0.0320(3) 1.1733(3)
H63 H -0.0358 0.0120 1.2207
C94 C -0.0111(4) 0.1191(3) 1.1296(3)
H64 H -0.0449 0.1574 1.1471
C95 C 0.0338(3) 0.1496(3) 1.0598(3)
C96 C 0.0266(3) 0.2452(3) 1.0129(3)
N1 N -0.4536(5) 1.1454(4) 0.4269(5)
N2 N -0.0184(3) 1.0984(2) 0.3207(2)
N3 N -0.7561(4) 0.7572(5) 0.4211(4)
N4 N 0.6964(5) 0.0012(5) 0.7355(4)
N5 N -0.7607(3) 0.6886(3) 0.7378(3)
N6 N 0.7941(4) 0.2549(4) 0.9371(4)
N7 N 0.7527(10) -0.0004(9) 1.1052(8)
N8 N 0.0338(3) -0.2905(2) 1.2827(2)
O1 O -0.0598(2) 0.27753(18) 1.20976(18)
H65 H -0.0953 0.2921 1.2403
H66 H -0.0362 0.2234 1.2253
O2 O -0.0893(2) 0.64490(19) 0.41865(18)
O3 O -0.0893(2) 0.59024(18) 0.55486(18)
O4 O 0.0311(2) 0.52215(17) 0.72001(16)
O5 O -0.0308(2) 0.59169(18) 0.78646(16)
O6 O -0.1152(2) 0.4487(2) 0.54800(19)
O7 O -0.1261(2) 0.50271(19) 0.41166(18)
O8 O 0.2028(2) 0.3546(2) 0.84578(19)
O9 O 0.1138(2) 0.34691(18) 0.75884(18)
O10 O -0.1052(2) 0.4432(2) 0.83840(18)
O11 O -0.1271(2) 0.4526(2) 0.71647(19)
O12 O 0.1842(2) 0.5640(2) 0.95178(19)
O13 O 0.1402(2) 0.51665(18) 0.87578(18)
O14 O 0.1614(3) 0.3007(3) 1.1485(2)
O15 O 0.1430(2) 0.35486(19) 1.01431(17)
O16 O -0.0118(2) 0.29116(19) 1.0449(2)
O17 O 0.0572(2) 0.27439(18) 0.94456(18)
O18 O -0.03891(19) 0.48457(16) 0.94918(15)
H67 H -0.0974 0.4975 0.9338
Sm1A Sm 0.000916(14) -0.441594(12) 1.361508(11)
Sm1A_2 Sm 0.000916(14) 0.558406(12) 0.361508(11)
Sm3A Sm 0.004895(15) 0.614892(12) 0.905466(12)
N8A N -0.0338(3) 0.2905(2) 0.7173(2)
O2A O 0.0893(2) 0.35510(19) 0.58135(18)
O5A O 0.0308(2) 0.40831(18) 1.21354(16)
O7A O 0.1261(2) 0.49729(19) 0.58834(18)
O12A O -0.1842(2) 0.4360(2) 1.04822(19)
O13A O -0.1402(2) 0.48335(18) 1.12422(18)
O18A O 0.03891(19) 0.51543(16) 1.05082(15)
O19 O 0.7731(7) -0.1382(7) 0.7030(6)
H68 H 0.7297 -0.1403 0.6762
H69 H 0.7512 -0.0963 0.7128
loop_
_geom_bond_atom_site_label_1
_geom_bond_atom_site_label_2
_geom_bond_site_symmetry_1
_geom_bond_site_symmetry_2
Sm1 O3 1_555 1_555
Sm2 O4 1_555 1_555
Sm3 O1 1_555 1_555
C1 H1 1_555 1_555
C2 C1 1_555 1_555
H2 C2 1_555 1_555
C3 H3 1_555 1_555
C4 C3 1_555 1_555
H4 C4 1_555 1_555
C5 C1 1_555 1_555
C6 H5 1_555 1_555
C7 C6 1_555 1_555
H6 C7 1_555 1_555
C8 C5 1_555 1_555
C9 C8 1_555 1_555
H7 C9 1_555 1_555
C10 C9 1_555 1_555
H8 C10 1_555 1_555
C11 C6 1_555 1_555
C12 C11 1_555 1_555
C13 H9 1_555 1_555
C14 C13 1_555 1_555
H10 C14 1_555 1_555
C15 H11 1_555 1_555
C16 C15 1_555 1_555
H12 C16 1_555 1_555
C17 C13 1_555 1_555
C18 H13 1_555 1_555
C19 C18 1_555 1_555
H14 C19 1_555 1_555
C20 C17 1_555 1_555
C21 C20 1_555 1_555
H15 C21 1_555 1_555
C22 C21 1_555 1_555
H16 C22 1_555 1_555
C23 C18 1_555 1_555
C24 C23 1_555 1_555
C25 H17 1_555 1_555
C26 C25 1_555 1_555
H18 C26 1_555 1_555
C27 H19 1_555 1_555
C28 C27 1_555 1_555
H20 C28 1_555 1_555
C29 C25 1_555 1_555
C30 H21 1_555 1_555
C31 C30 1_555 1_555
H22 C31 1_555 1_555
C32 C29 1_555 1_555
C33 C32 1_555 1_555
H23 C33 1_555 1_555
C34 C33 1_555 1_555
H24 C34 1_555 1_555
C35 C30 1_555 1_555
C36 C35 1_555 1_555
C37 H25 1_555 1_555
C38 C37 1_555 1_555
H26 C38 1_555 1_555
C39 H27 1_555 1_555
C40 C39 1_555 1_555
H28 C40 1_555 1_555
C41 C37 1_555 1_555
C42 H29 1_555 1_555
C43 C42 1_555 1_555
H30 C43 1_555 1_555
C44 C41 1_555 1_555
C45 C44 1_555 1_555
H31 C45 1_555 1_555
C46 C45 1_555 1_555
H32 C46 1_555 1_555
C47 C42 1_555 1_555
C48 C47 1_555 1_555
C49 H33 1_555 1_555
C50 C49 1_555 1_555
H34 C50 1_555 1_555
C51 H35 1_555 1_555
C52 C51 1_555 1_555
H36 C52 1_555 1_555
C53 C49 1_555 1_555
C54 H37 1_555 1_555
C55 C54 1_555 1_555
H38 C55 1_555 1_555
C56 C53 1_555 1_555
C57 C56 1_555 1_555
H39 C57 1_555 1_555
C58 C57 1_555 1_555
H40 C58 1_555 1_555
C59 C54 1_555 1_555
C60 C59 1_555 1_555
C61 H41 1_555 1_555
C62 C61 1_555 1_555
H42 C62 1_555 1_555
C63 H43 1_555 1_555
C64 C63 1_555 1_555
H44 C64 1_555 1_555
C65 C61 1_555 1_555
C66 H45 1_555 1_555
C67 C66 1_555 1_555
H46 C67 1_555 1_555
C68 C65 1_555 1_555
C69 C68 1_555 1_555
H47 C69 1_555 1_555
C70 C69 1_555 1_555
H48 C70 1_555 1_555
C71 C66 1_555 1_555
C72 C71 1_555 1_555
C73 H49 1_555 1_555
C74 C73 1_555 1_555
H50 C74 1_555 1_555
C75 C74 1_555 1_555
C76 C75 1_555 1_555
H51 C76 1_555 1_555
C77 C76 1_555 1_555
H52 C77 1_555 1_555
C78 H53 1_555 1_555
C79 C78 1_555 1_555
H54 C79 1_555 1_555
C80 C75 1_555 1_555
C81 C80 1_555 1_555
H55 C81 1_555 1_555
C82 C81 1_555 1_555
H56 C82 1_555 1_555
C83 C78 1_555 1_555
C84 C83 1_555 1_555
C85 H57 1_555 1_555
C86 C85 1_555 1_555
H58 C86 1_555 1_555
C87 H59 1_555 1_555
C88 C87 1_555 1_555
H60 C88 1_555 1_555
C89 C85 1_555 1_555
C90 H61 1_555 1_555
C91 C90 1_555 1_555
H62 C91 1_555 1_555
C92 C89 1_555 1_555
C93 C92 1_555 1_555
H63 C93 1_555 1_555
C94 C93 1_555 1_555
H64 C94 1_555 1_555
C95 C90 1_555 1_555
C96 C95 1_555 1_555
N1 C2 1_555 1_555
N2 C14 1_555 1_555
N3 C26 1_555 1_555
N4 C38 1_555 1_555
N5 C50 1_555 1_555
N6 C62 1_555 1_555
N7 C73 1_555 1_555
N8 C86 1_555 1_555
O1 H65 1_555 1_555
H66 O1 1_555 1_555
O2 C12 1_555 1_555
O3 C12 1_555 1_555
O4 Sm1 1_555 1_555
O5 Sm2 1_555 1_555
O6 Sm1 1_555 1_555
O7 C36 1_555 1_555
O8 Sm2 1_555 1_555
O9 Sm1 1_555 1_555
O10 Sm2 1_555 1_555
O11 Sm1 1_555 1_555
O12 C72 1_555 1_555
O13 Sm2 1_555 1_555
O14 Sm3 1_555 1_555
O15 Sm2 1_555 1_555
O16 Sm3 1_555 1_555
O17 Sm2 1_555 1_555
O18 Sm2 1_555 1_555
H67 O18 1_555 1_555
O19 H68 1_555 1_555
H69 O19 1_555 1_555
Sm1A N8 1_555 1_555
Sm1A_2 O2 1_555 1_555
Sm3A O5 1_555 1_555
N8A Sm1 1_555 1_555
O2A Sm1 1_555 1_555
O5A Sm3 1_555 1_555
O7A Sm1 1_555 1_555
O12A Sm3 1_555 1_555
O13A Sm3 1_555 1_555
O18A Sm3 1_555 1_555
Sm3 O15 1_555 1_555
Sm3 O18 1_555 1_555
C3 N1 1_555 1_555
C4 C5 1_555 1_555
C7 C8 1_555 1_555
C10 C11 1_555 1_555
C15 N2 1_555 1_555
C16 C17 1_555 1_555
C19 C20 1_555 1_555
C22 C23 1_555 1_555
C24 O4 1_555 1_555
C24 O5 1_555 1_555
C27 N3 1_555 1_555
C28 C29 1_555 1_555
C31 C32 1_555 1_555
C34 C35 1_555 1_555
C36 O6 1_555 1_555
C39 N4 1_555 1_555
C40 C41 1_555 1_555
C43 C44 1_555 1_555
C46 C47 1_555 1_555
C48 O8 1_555 1_555
C48 O9 1_555 1_555
C51 N5 1_555 1_555
C52 C53 1_555 1_555
C55 C56 1_555 1_555
C58 C59 1_555 1_555
C60 O10 1_555 1_555
C60 O11 1_555 1_555
C63 N6 1_555 1_555
C64 C65 1_555 1_555
C67 C68 1_555 1_555
C70 C71 1_555 1_555
C72 O13 1_555 1_555
C77 N7 1_555 1_555
C79 C80 1_555 1_555
C82 C83 1_555 1_555
C84 O14 1_555 1_555
C84 O15 1_555 1_555
C87 N8 1_555 1_555
C88 C89 1_555 1_555
C91 C92 1_555 1_555
C94 C95 1_555 1_555
C96 O16 1_555 1_555
C96 O17 1_555 1_555
O7 Sm1A_2 1_555 1_555
O12 Sm3A 1_555 1_555
O13 Sm3A 1_555 1_555
O18 Sm3A 1_555 1_555
Sm3A O18A 1_555 1_555

#END
