
#######################################################################
#
#                 Cambridge Crystallographic Data Centre
#                                CCDC 
#
#######################################################################
#
# If this CIF has been generated from an entry in the Cambridge 
# Structural Database, then it will include bibliographic, chemical, 
# crystal, experimental, refinement or atomic coordinate data resulting 
# from the CCDC's data processing and validation procedures.
#
#######################################################################

data_KORLIO
_symmetry_cell_setting           monoclinic
_symmetry_space_group_name_H-M   'P 21/c'
_symmetry_Int_Tables_number      14
_space_group_name_Hall           '-P 2ybc'
loop_
_symmetry_equiv_pos_site_id
_symmetry_equiv_pos_as_xyz
1 x,y,z
2 -x,1/2+y,1/2-z
3 -x,-y,-z
4 x,1/2-y,1/2+z
_cell_length_a                   10.3340(6)
_cell_length_b                   34.337(2)
_cell_length_c                   9.4266(3)
_cell_angle_alpha                90
_cell_angle_beta                 106.526(3)
_cell_angle_gamma                90
_cell_volume                     3206.74
loop_
_atom_site_label
_atom_site_type_symbol
_atom_site_fract_x
_atom_site_fract_y
_atom_site_fract_z
C1 C 0.3894(3) 0.16119(9) -0.0642(4)
H1 H 0.4204 0.1850 -0.0049
H2 H 0.4375 0.1599 -0.1411
C2 C 0.0450(3) 0.12638(9) -0.2871(4)
H3 H -0.0023 0.1514 -0.3177
H4 H 0.0185 0.1083 -0.3723
C3 C 0.1902(3) 0.08605(9) 0.4203(3)
H5 H 0.2817 0.0934 0.4625
C4 C 0.4783(3) 0.09697(10) 0.2788(4)
H6 H 0.4809 0.0989 0.3801
C5 C 0.2110(3) 0.27276(9) -0.2154(4)
C6 C 0.5183(3) 0.06060(9) 0.0788(4)
H7 H 0.5463 0.0374 0.0415
C7 C 0.4320(3) 0.12783(9) 0.1840(4)
H8 H 0.4013 0.1507 0.2210
C8 C 0.4741(3) 0.09234(9) -0.0150(4)
H9 H 0.4747 0.0907 -0.1154
C9 C 0.5213(3) 0.06298(10) 0.2253(4)
C10 C 0.0439(4) 0.06862(9) -0.1374(4)
H10 H 0.0923 0.0608 -0.2097
H11 H -0.0376 0.0521 -0.1544
C11 C -0.1408(4) 0.13336(11) 0.2060(4)
H12 H -0.2316 0.1236 0.2034
H13 H -0.1244 0.1573 0.2669
C12 C -0.0379(3) 0.10325(10) 0.2808(4)
C13 C 0.1830(4) 0.02119(10) 0.0392(4)
C14 C 0.2512(4) 0.23812(9) -0.1238(4)
H14 H 0.2015 0.2369 -0.0483
H15 H 0.3491 0.2391 -0.0722
C15 C -0.1452(3) 0.11425(10) -0.1888(4)
H16 H -0.1926 0.0942 -0.2605
H17 H -0.1737 0.1402 -0.2327
C16 C -0.0761(4) 0.06479(11) 0.2927(4)
H18 H -0.1672 0.0573 0.2490
C17 C -0.1854(3) 0.11010(10) -0.0474(4)
H19 H -0.2848 0.1076 -0.0720
H20 H -0.1451 0.0860 0.0042
C18 C 0.1352(4) 0.06144(9) 0.0191(4)
H21 H 0.2138 0.0792 0.0389
H22 H 0.0848 0.0674 0.0914
C19 C -0.2390(4) 0.17611(11) 0.0050(4)
H23 H -0.3172 0.1716 0.0438
H24 H -0.2723 0.1763 -0.1044
C20 C 0.0165(4) 0.03738(10) 0.3671(4)
H25 H -0.0110 0.0112 0.3727
C21 C -0.1013(5) 0.23030(15) -0.0371(6)
C22 C 0.5880(4) -0.00267(11) 0.2758(4)
H26 H 0.6573 -0.0006 0.2222
H27 H 0.5035 -0.0124 0.2060
C23 C 0.3650(4) 0.03063(11) 0.5961(5)
H28 H 0.3658 0.0576 0.6332
H29 H 0.4258 0.0293 0.5318
C24 C -0.1770(4) 0.21576(11) 0.0586(5)
H30 H -0.2496 0.2344 0.0602
H31 H -0.1167 0.2133 0.1607
C25 C 0.2195(3) 0.20218(9) -0.2228(4)
H32 H 0.1241 0.2034 -0.2836
H33 H 0.2768 0.2025 -0.2910
C26 C 0.4292(3) 0.12625(9) 0.0356(4)
C27 C 0.1494(4) 0.04808(10) 0.4337(4)
C28 C 0.0966(3) 0.11299(9) 0.3448(4)
H34 H 0.1250 0.1390 0.3364
C29 C 0.1962(3) 0.13315(9) -0.2463(4)
H35 H 0.2432 0.1089 -0.2041
H36 H 0.2220 0.1393 -0.3373
N1 N 0.1780(3) 0.29859(8) -0.2926(3)
N2 N 0.2418(3) 0.16501(7) -0.1389(3)
N3 N 0.0024(3) 0.10993(8) -0.1626(3)
N4 N -0.1411(3) 0.14371(8) 0.0529(3)
N5 N 0.2205(4) -0.01019(9) 0.0517(4)
O1 O 0.5654(3) 0.03415(7) 0.3296(3)
O2 O 0.2312(3) 0.01977(7) 0.5144(3)
Ag1 Ag 0.09376(2) 0.15696(2) 0.03022(3)
N6 N -0.0443(6) 0.24101(17) -0.1185(7)
C1B C 0.6106(3) -0.16119(9) 1.0642(4)
H1B H 0.5796 -0.1850 1.0049
H2B H 0.5625 -0.1599 1.1411
C2B C 0.9550(3) -0.12638(9) 1.2871(4)
H3B H 1.0023 -0.1514 1.3177
H4B H 0.9815 -0.1083 1.3723
C3B C 0.8098(3) -0.08605(9) 0.5797(3)
H5B H 0.7183 -0.0934 0.5375
C4B C 0.5217(3) -0.09697(10) 0.7212(4)
H6B H 0.5191 -0.0989 0.6199
C6B C 0.4817(3) -0.06060(9) 0.9212(4)
H7B H 0.4537 -0.0374 0.9585
C7B C 0.5680(3) -0.12783(9) 0.8160(4)
H8B H 0.5987 -0.1507 0.7790
C8B C 0.5259(3) -0.09234(9) 1.0150(4)
H9B H 0.5253 -0.0907 1.1154
C9B C 0.4787(3) -0.06298(10) 0.7747(4)
C10B C 0.9561(4) -0.06862(9) 1.1374(4)
H10B H 0.9077 -0.0608 1.2097
H11B H 1.0376 -0.0521 1.1544
C11B C 1.1408(4) -0.13336(11) 0.7940(4)
H12B H 1.2316 -0.1236 0.7966
H13B H 1.1244 -0.1573 0.7331
C12B C 1.0379(3) -0.10325(10) 0.7192(4)
C13B C 0.8170(4) -0.02119(10) 0.9608(4)
C14B C 0.7488(4) -0.23812(9) 1.1238(4)
H14B H 0.7985 -0.2369 1.0483
H15B H 0.6509 -0.2391 1.0722
C15B C 1.1452(3) -0.11425(10) 1.1888(4)
H16B H 1.1926 -0.0942 1.2605
H17B H 1.1737 -0.1402 1.2327
C16B C 1.0761(4) -0.06479(11) 0.7073(4)
H18B H 1.1672 -0.0573 0.7510
C17B C 1.1854(3) -0.11010(10) 1.0474(4)
H19B H 1.2848 -0.1076 1.0720
H20B H 1.1451 -0.0860 0.9958
C18B C 0.8648(4) -0.06144(9) 0.9809(4)
H21B H 0.7862 -0.0792 0.9611
H22B H 0.9152 -0.0674 0.9086
C19B C 1.2390(4) -0.17611(11) 0.9950(4)
H23B H 1.3172 -0.1716 0.9562
H24B H 1.2723 -0.1763 1.1044
C20B C 0.9835(4) -0.03738(10) 0.6329(4)
H25B H 1.0110 -0.0112 0.6273
C21B C 1.1013(5) -0.23030(15) 1.0371(6)
C22B C 0.4120(4) 0.00267(11) 0.7242(4)
H26B H 0.3427 0.0006 0.7778
H27B H 0.4965 0.0124 0.7940
C23B C 0.6350(4) -0.03063(11) 0.4039(5)
H28B H 0.6342 -0.0576 0.3668
H29B H 0.5742 -0.0293 0.4682
C24B C 1.1770(4) -0.21576(11) 0.9414(5)
H30B H 1.2496 -0.2344 0.9398
H31B H 1.1167 -0.2133 0.8393
C25B C 0.7805(3) -0.20218(9) 1.2228(4)
H32B H 0.8759 -0.2034 1.2836
H33B H 0.7232 -0.2025 1.2910
C26B C 0.5708(3) -0.12625(9) 0.9644(4)
C27B C 0.8506(4) -0.04808(10) 0.5663(4)
C28B C 0.9034(3) -0.11299(9) 0.6552(4)
H34B H 0.8750 -0.1390 0.6636
C29B C 0.8038(3) -0.13315(9) 1.2463(4)
H35B H 0.7568 -0.1089 1.2041
H36B H 0.7780 -0.1393 1.3373
N2B N 0.7582(3) -0.16501(7) 1.1389(3)
N3B N 0.9976(3) -0.10993(8) 1.1626(3)
N4B N 1.1411(3) -0.14371(8) 0.9471(3)
N5B N 0.7795(4) 0.01019(9) 0.9483(4)
O1B O 0.4346(3) -0.03415(7) 0.6704(3)
O2B O 0.7688(3) -0.01977(7) 0.4856(3)
N6B N 1.0443(6) -0.24101(17) 1.1185(7)
C5B C 0.7890(3) -0.27276(9) 1.2154(4)
N1B N 0.8220(3) -0.29859(8) 1.2926(3)
Ag1B Ag 0.90624(2) -0.15696(2) 0.96978(3)
N1A N 0.8220(3) -0.20141(8) 0.7926(3)
N1C N 0.1780(3) 0.20141(8) 0.2074(3)
Ag1A Ag 0.90624(2) -0.34304(2) 1.46978(3)
Ag1C Ag 0.09376(2) 0.34304(2) -0.46978(3)
N7 N 0.4986(3) 0.15705(10) 0.5987(3)
O3 O 0.3947(3) 0.16892(9) 0.5075(3)
O4 O 0.5098(3) 0.12270(8) 0.6405(3)
O5 O 0.5945(3) 0.17998(10) 0.6476(4)
loop_
_geom_bond_atom_site_label_1
_geom_bond_atom_site_label_2
_geom_bond_site_symmetry_1
_geom_bond_site_symmetry_2
C1 H1 1_555 1_555
H2 C1 1_555 1_555
C2 H3 1_555 1_555
H4 C2 1_555 1_555
C3 H5 1_555 1_555
C4 H6 1_555 1_555
C5 C14 1_555 1_555
C6 H7 1_555 1_555
C7 C4 1_555 1_555
H8 C7 1_555 1_555
C8 C6 1_555 1_555
H9 C8 1_555 1_555
C9 C4 1_555 1_555
C10 H10 1_555 1_555
H11 C10 1_555 1_555
C11 H12 1_555 1_555
H13 C11 1_555 1_555
C12 C11 1_555 1_555
C13 C18 1_555 1_555
C14 H14 1_555 1_555
H15 C14 1_555 1_555
C15 H16 1_555 1_555
H17 C15 1_555 1_555
C16 C12 1_555 1_555
H18 C16 1_555 1_555
C17 C15 1_555 1_555
H19 C17 1_555 1_555
H20 C17 1_555 1_555
C18 C10 1_555 1_555
H21 C18 1_555 1_555
H22 C18 1_555 1_555
C19 H23 1_555 1_555
H24 C19 1_555 1_555
C20 C16 1_555 1_555
H25 C20 1_555 1_555
C21 C24 1_555 1_555
C22 H26 1_555 1_555
H27 C22 1_555 1_555
C23 H28 1_555 1_555
H29 C23 1_555 1_555
C24 C19 1_555 1_555
H30 C24 1_555 1_555
H31 C24 1_555 1_555
C25 C14 1_555 1_555
H32 C25 1_555 1_555
H33 C25 1_555 1_555
C26 C1 1_555 1_555
C27 C3 1_555 1_555
C28 C3 1_555 1_555
H34 C28 1_555 1_555
C29 C2 1_555 1_555
H35 C29 1_555 1_555
H36 C29 1_555 1_555
N1 C5 1_555 1_555
N2 C1 1_555 1_555
N3 C2 1_555 1_555
N4 C11 1_555 1_555
N5 C13 1_555 1_555
O1 C9 1_555 1_555
O2 C23 1_555 1_555
Ag1 N2 1_555 1_555
N6 C21 1_555 1_555
N7 O3 1_555 1_555
O4 N7 1_555 1_555
O5 N7 1_555 1_555
C1B H1B 1_555 1_555
H2B C1B 1_555 1_555
C2B H3B 1_555 1_555
H4B C2B 1_555 1_555
C3B H5B 1_555 1_555
C4B H6B 1_555 1_555
C6B H7B 1_555 1_555
C7B C4B 1_555 1_555
H8B C7B 1_555 1_555
C8B C6B 1_555 1_555
H9B C8B 1_555 1_555
C9B C4B 1_555 1_555
C10B H10B 1_555 1_555
H11B C10B 1_555 1_555
C11B H12B 1_555 1_555
H13B C11B 1_555 1_555
C12B C11B 1_555 1_555
C13B C18B 1_555 1_555
C14B H14B 1_555 1_555
H15B C14B 1_555 1_555
C15B H16B 1_555 1_555
H17B C15B 1_555 1_555
C16B C12B 1_555 1_555
H18B C16B 1_555 1_555
C17B C15B 1_555 1_555
H19B C17B 1_555 1_555
H20B C17B 1_555 1_555
C18B C10B 1_555 1_555
H21B C18B 1_555 1_555
H22B C18B 1_555 1_555
C19B H23B 1_555 1_555
H24B C19B 1_555 1_555
C20B C16B 1_555 1_555
H25B C20B 1_555 1_555
C21B C24B 1_555 1_555
C22B C23 1_555 1_555
H26B C22B 1_555 1_555
H27B C22B 1_555 1_555
C23B C22 1_555 1_555
H28B C23B 1_555 1_555
H29B C23B 1_555 1_555
C24B C19B 1_555 1_555
H30B C24B 1_555 1_555
H31B C24B 1_555 1_555
C25B C14B 1_555 1_555
H32B C25B 1_555 1_555
H33B C25B 1_555 1_555
C26B C1B 1_555 1_555
C27B C3B 1_555 1_555
C28B C3B 1_555 1_555
H34B C28B 1_555 1_555
C29B C2B 1_555 1_555
H35B C29B 1_555 1_555
H36B C29B 1_555 1_555
N2B C1B 1_555 1_555
N3B C2B 1_555 1_555
N4B C11B 1_555 1_555
N5B C13B 1_555 1_555
O1B C9B 1_555 1_555
O2B C23B 1_555 1_555
N6B C21B 1_555 1_555
C5B C14B 1_555 1_555
N1B C5B 1_555 1_555
Ag1B N2B 1_555 1_555
N1A Ag1B 1_555 1_555
N1C Ag1 1_555 1_555
Ag1A N1B 1_555 1_555
Ag1C N1 1_555 1_555
C6 C9 1_555 1_555
C7 C26 1_555 1_555
C8 C26 1_555 1_555
C10 N3 1_555 1_555
C12 C28 1_555 1_555
C15 N3 1_555 1_555
C17 N4 1_555 1_555
C19 N4 1_555 1_555
C20 C27 1_555 1_555
C22 O1 1_555 1_555
C25 N2 1_555 1_555
C27 O2 1_555 1_555
C29 N2 1_555 1_555
N3 Ag1 1_555 1_555
N4 Ag1 1_555 1_555
C6B C9B 1_555 1_555
C7B C26B 1_555 1_555
C8B C26B 1_555 1_555
C10B N3B 1_555 1_555
C12B C28B 1_555 1_555
C15B N3B 1_555 1_555
C17B N4B 1_555 1_555
C19B N4B 1_555 1_555
C20B C27B 1_555 1_555
C22B O1B 1_555 1_555
C25B N2B 1_555 1_555
C27B O2B 1_555 1_555
C29B N2B 1_555 1_555
N3B Ag1B 1_555 1_555
N4B Ag1B 1_555 1_555

#END
