
#######################################################################
#
#                 Cambridge Crystallographic Data Centre
#                                CCDC 
#
#######################################################################
#
# If this CIF has been generated from an entry in the Cambridge 
# Structural Database, then it will include bibliographic, chemical, 
# crystal, experimental, refinement or atomic coordinate data resulting 
# from the CCDC's data processing and validation procedures.
#
#######################################################################

data_KORMUB
_symmetry_cell_setting           monoclinic
_symmetry_space_group_name_H-M   'C 2/c'
_symmetry_Int_Tables_number      15
_space_group_name_Hall           '-C 2yn'
loop_
_symmetry_equiv_pos_site_id
_symmetry_equiv_pos_as_xyz
1 x,y,z
2 -x,y,1/2-z
3 1/2+x,1/2+y,z
4 1/2-x,1/2+y,1/2-z
5 -x,-y,-z
6 x,-y,1/2+z
7 1/2-x,1/2-y,-z
8 1/2+x,1/2-y,1/2+z
_cell_length_a                   18.3900(15)
_cell_length_b                   7.0920(5)
_cell_length_c                   24.263(2)
_cell_angle_alpha                90
_cell_angle_beta                 107.004(9)
_cell_angle_gamma                90
_cell_volume                     3026.09
loop_
_atom_site_label
_atom_site_type_symbol
_atom_site_fract_x
_atom_site_fract_y
_atom_site_fract_z
Co1 Co 0.297974(17) 0.45537(4) 0.968046(14)
C1 C 0.37663(14) 0.7166(4) 0.93965(11)
C2 C 0.43212(13) 0.8557(3) 0.92953(10)
C3 C 0.50943(13) 0.8239(3) 0.95233(10)
H1 H 0.5271 0.7179 0.9749
C4 C 0.55991(13) 0.9521(3) 0.94110(10)
C5 C 0.53385(13) 1.1095(3) 0.90702(10)
H2 H 0.5682 1.1941 0.8992
C6 C 0.45673(14) 1.1395(3) 0.88490(11)
C7 C 0.40545(14) 1.0144(4) 0.89703(10)
H3 H 0.3535 1.0374 0.8833
C8 C 0.64330(13) 0.9231(3) 0.96539(10)
C9 C 0.47201(16) 1.4165(4) 0.83371(12)
H4 H 0.5079 1.3515 0.8180
H5 H 0.5003 1.4898 0.8668
C10 C 0.42116(15) 1.5431(4) 0.78879(11)
C11 C 0.43278(16) 1.7336(4) 0.79059(11)
H6 H 0.4725 1.7858 0.8196
C12 C 0.38564(17) 1.8490(4) 0.74934(11)
H7 H 0.3931 1.9788 0.7513
C13 C 0.32790(15) 1.7732(4) 0.70546(11)
C14 C 0.31717(18) 1.5798(4) 0.70323(13)
H8 H 0.2789 1.5263 0.6734
C15 C 0.36310(19) 1.4671(4) 0.74519(13)
H9 H 0.3548 1.3376 0.7441
C16 C 0.27817(15) 1.8910(4) 0.65979(11)
O1 O 0.30598(10) 0.7463(3) 0.91861(8)
O2 O 0.39957(12) 0.5722(3) 0.96898(9)
O3 O 0.66757(10) 0.7951(2) 1.00087(8)
O4 O 0.68726(9) 1.0321(2) 0.94967(8)
O5 O 0.28237(13) 2.0716(2) 0.67111(8)
H10 H 0.2535 2.1289 0.6441
O6 O 0.23769(11) 1.8247(2) 0.61510(8)
O7 O 0.42424(10) 1.2856(3) 0.84993(9)
O8 O 0.31539(11) 0.5579(3) 1.05363(8)
H11 H 0.2801(15) 0.507(4) 1.0672(14)
H12 H 0.3042(19) 0.6789(18) 1.0542(14)
Co1B Co 0.797974(17) 0.95537(4) 0.968046(14)
Co1C Co 0.202026(17) 1.95537(4) 0.531954(14)
Co1D Co 0.702026(17) 0.54463(4) 1.031954(14)
O3D O 0.33243(10) 0.2049(2) 0.99913(8)
O4B O 0.18726(9) 0.5321(2) 0.94967(8)
O6C O 0.26231(11) 0.3247(2) 0.88490(8)
loop_
_geom_bond_atom_site_label_1
_geom_bond_atom_site_label_2
_geom_bond_site_symmetry_1
_geom_bond_site_symmetry_2
Co1 O1 1_555 1_555
C1 C2 1_555 1_555
C2 C3 1_555 1_555
C3 H1 1_555 1_555
C4 C3 1_555 1_555
C5 C4 1_555 1_555
H2 C5 1_555 1_555
C6 C5 1_555 1_555
C7 C2 1_555 1_555
H3 C7 1_555 1_555
C8 C4 1_555 1_555
C9 H4 1_555 1_555
H5 C9 1_555 1_555
C10 C9 1_555 1_555
C11 C10 1_555 1_555
H6 C11 1_555 1_555
C12 C11 1_555 1_555
H7 C12 1_555 1_555
C13 C12 1_555 1_555
C14 C13 1_555 1_555
H8 C14 1_555 1_555
C15 C10 1_555 1_555
H9 C15 1_555 1_555
C16 C13 1_555 1_555
O1 C1 1_555 1_555
O2 Co1 1_555 1_555
O3 C8 1_555 1_555
O4 C8 1_555 1_555
O5 C16 1_555 1_555
H10 O5 1_555 1_555
O6 C16 1_555 1_555
O7 C6 1_555 1_555
O8 Co1 1_555 1_555
H11 O8 1_555 1_555
H12 O8 1_555 1_555
Co1B O4 1_555 1_555
Co1C O6 1_555 1_555
Co1D O3 1_555 1_555
O3D Co1 1_555 1_555
O4B Co1 1_555 1_555
O6C Co1 1_555 1_555
C1 O2 1_555 1_555
C6 C7 1_555 1_555
C9 O7 1_555 1_555
C14 C15 1_555 1_555

#END
