
#######################################################################
#
#                 Cambridge Crystallographic Data Centre
#                                CCDC 
#
#######################################################################
#
# If this CIF has been generated from an entry in the Cambridge 
# Structural Database, then it will include bibliographic, chemical, 
# crystal, experimental, refinement or atomic coordinate data resulting 
# from the CCDC's data processing and validation procedures.
#
#######################################################################

data_KORNEM
_symmetry_cell_setting           monoclinic
_symmetry_space_group_name_H-M   'P 21/c'
_symmetry_Int_Tables_number      14
_space_group_name_Hall           '-P 2ybc'
loop_
_symmetry_equiv_pos_site_id
_symmetry_equiv_pos_as_xyz
1 x,y,z
2 -x,1/2+y,1/2-z
3 -x,-y,-z
4 x,1/2-y,1/2+z
_cell_length_a                   15.7300(10)
_cell_length_b                   13.7550(7)
_cell_length_c                   8.9610(4)
_cell_angle_alpha                90
_cell_angle_beta                 101.910(5)
_cell_angle_gamma                90
_cell_volume                     1897.12
loop_
_atom_site_label
_atom_site_type_symbol
_atom_site_fract_x
_atom_site_fract_y
_atom_site_fract_z
Co1 Co 0.0000 0.0000 0.0000
Co2 Co 0.14572(2) -0.10139(3) 0.31337(4)
C1 C -0.16751(19) -0.0952(2) -0.1514(3)
C2 C -0.19650(19) -0.1971(2) -0.1843(3)
C3 C -0.15255(19) -0.2701(2) -0.0968(3)
H1 H -0.1064 -0.2548 -0.0174
C4 C -0.1759(2) -0.3658(2) -0.1252(3)
C5 C -0.2448(2) -0.3891(2) -0.2422(3)
H2 H -0.2616 -0.4536 -0.2608
C6 C -0.2886(2) -0.3155(2) -0.3316(3)
C7 C -0.2649(2) -0.2199(2) -0.3034(3)
H3 H -0.2946 -0.1708 -0.3640
C8 C -0.1290(2) -0.4416(2) -0.0205(3)
C9 C -0.4025(2) -0.2677(2) -0.5333(3)
H4 H -0.3628 -0.2281 -0.5771
H5 H -0.4294 -0.2264 -0.4683
C10 C -0.4711(2) -0.3096(2) -0.6583(3)
C11 C -0.4729(3) -0.4052(3) -0.6989(4)
H6 H -0.4321 -0.4482 -0.6454
C12 C -0.5361(3) -0.4383(3) -0.8205(5)
H7 H -0.5374 -0.5035 -0.8483
C13 C -0.5960(2) -0.3754(2) -0.8993(4)
C14 C -0.5944(2) -0.2792(3) -0.8586(4)
H8 H -0.6353 -0.2362 -0.9120
C15 C -0.5318(2) -0.2469(3) -0.7383(4)
H9 H -0.5306 -0.1817 -0.7107
C16 C -0.6643(2) -0.4090(2) -1.0293(3)
C17 C 0.0648(2) -0.1950(2) -0.1278(3)
H10 H 0.0311 -0.1880 -0.2255
C18 C 0.1490(2) -0.2514(2) 0.0631(3)
H11 H 0.1865 -0.2925 0.1279
O1 O -0.10842(14) -0.08168(15) -0.0374(2)
O2 O -0.20059(14) -0.02839(15) -0.2417(2)
O3 O -0.05867(15) -0.41527(16) 0.0637(3)
O4 O -0.16219(15) -0.52421(15) -0.0181(2)
O5 O -0.72061(14) -0.35505(16) -1.0958(2)
O6 O -0.35631(17) -0.34341(17) -0.4461(3)
N1 N 0.12488(16) -0.16674(17) 0.1043(3)
N2 N 0.06895(16) -0.12945(17) -0.0204(3)
N3 N 0.11405(16) -0.27301(17) -0.0824(3)
O7 O -0.65798(17) -0.50046(18) -1.0640(3)
H12 H -0.706(3) -0.513(3) -1.129(6)
O8 O 0.01707(14) -0.03954(15) 0.2386(2)
H13 H -0.0261(17) -0.074(2) 0.264(4)
H14 H 0.029(2) 0.0068(19) 0.311(3)
Co2B Co -0.14572(2) 0.10139(3) -0.31337(4)
C1B C 0.16751(19) 0.0952(2) 0.1514(3)
C2B C 0.19650(19) 0.1971(2) 0.1843(3)
C3B C 0.15255(19) 0.2701(2) 0.0968(3)
H1B H 0.1064 0.2548 0.0174
C4B C 0.1759(2) 0.3658(2) 0.1252(3)
C5B C 0.2448(2) 0.3891(2) 0.2422(3)
H2B H 0.2616 0.4536 0.2608
C6B C 0.2886(2) 0.3155(2) 0.3316(3)
C7B C 0.2649(2) 0.2199(2) 0.3034(3)
H3B H 0.2946 0.1708 0.3640
C8B C 0.1290(2) 0.4416(2) 0.0205(3)
C9B C 0.4025(2) 0.2677(2) 0.5333(3)
H4B H 0.3628 0.2281 0.5771
H5B H 0.4294 0.2264 0.4683
C10B C 0.4711(2) 0.3096(2) 0.6583(3)
C11B C 0.4729(3) 0.4052(3) 0.6989(4)
H6B H 0.4321 0.4482 0.6454
C12B C 0.5361(3) 0.4383(3) 0.8205(5)
H7B H 0.5374 0.5035 0.8483
C13B C 0.5960(2) 0.3754(2) 0.8993(4)
C14B C 0.5944(2) 0.2792(3) 0.8586(4)
H8B H 0.6353 0.2362 0.9120
C15B C 0.5318(2) 0.2469(3) 0.7383(4)
H9B H 0.5306 0.1817 0.7107
C16B C 0.6643(2) 0.4090(2) 1.0293(3)
C17B C -0.0648(2) 0.1950(2) 0.1278(3)
H10B H -0.0311 0.1880 0.2255
C18B C -0.1490(2) 0.2514(2) -0.0631(3)
H11B H -0.1865 0.2925 -0.1279
O1B O 0.10842(14) 0.08168(15) 0.0374(2)
O2B O 0.20059(14) 0.02839(15) 0.2417(2)
O3B O 0.05867(15) 0.41527(16) -0.0637(3)
O4B O 0.16219(15) 0.52421(15) 0.0181(2)
O5B O 0.72061(14) 0.35505(16) 1.0958(2)
O6B O 0.35631(17) 0.34341(17) 0.4461(3)
N1B N -0.12488(16) 0.16674(17) -0.1043(3)
N2B N -0.06895(16) 0.12945(17) 0.0204(3)
N3B N -0.11405(16) 0.27301(17) 0.0824(3)
O7B O 0.65798(17) 0.50046(18) 1.0640(3)
H12B H 0.706(3) 0.513(3) 1.129(6)
O8B O -0.01707(14) 0.03954(15) -0.2386(2)
H13B H 0.0261(17) 0.074(2) -0.264(4)
H14B H -0.029(2) -0.0068(19) -0.311(3)
Co2A Co -0.14572(2) -0.60139(3) 0.18663(4)
Co2A_2 Co -0.14572(2) 0.39861(3) 0.18663(4)
Co2A_3 Co 0.85428(2) 0.39861(3) 1.18663(4)
Co2C Co -0.85428(2) -0.39861(3) -1.18663(4)
Co2C_2 Co 0.14572(2) -0.39861(3) -0.18663(4)
Co2C_3 Co 0.14572(2) 0.60139(3) -0.18663(4)
O4A O 0.16219(15) -0.02421(15) 0.5181(2)
O4C O -0.16219(15) 0.02421(15) -0.5181(2)
O5A O -0.27939(14) 0.14495(16) -0.4042(2)
O5C O 0.27939(14) -0.14495(16) 0.4042(2)
N3A N -0.11405(16) 0.22699(17) -0.4176(3)
N3C N 0.11405(16) -0.22699(17) 0.4176(3)
loop_
_geom_bond_atom_site_label_1
_geom_bond_atom_site_label_2
_geom_bond_site_symmetry_1
_geom_bond_site_symmetry_2
Co1 O1 1_555 1_555
Co2 N1 1_555 1_555
C1 C2 1_555 1_555
C2 C3 1_555 1_555
C3 H1 1_555 1_555
C4 C3 1_555 1_555
C5 C4 1_555 1_555
H2 C5 1_555 1_555
C6 C5 1_555 1_555
C7 C2 1_555 1_555
H3 C7 1_555 1_555
C8 C4 1_555 1_555
C9 H4 1_555 1_555
H5 C9 1_555 1_555
C10 C9 1_555 1_555
C11 C10 1_555 1_555
H6 C11 1_555 1_555
C12 C11 1_555 1_555
H7 C12 1_555 1_555
C13 C12 1_555 1_555
C14 C13 1_555 1_555
H8 C14 1_555 1_555
C15 C10 1_555 1_555
H9 C15 1_555 1_555
C16 C13 1_555 1_555
C17 H10 1_555 1_555
C18 H11 1_555 1_555
O1 C1 1_555 1_555
O2 C1 1_555 1_555
O3 C8 1_555 1_555
O4 C8 1_555 1_555
O5 C16 1_555 1_555
O6 C6 1_555 1_555
N1 C18 1_555 1_555
N2 Co1 1_555 1_555
N3 C17 1_555 1_555
O7 C16 1_555 1_555
H12 O7 1_555 1_555
O8 Co1 1_555 1_555
H13 O8 1_555 1_555
H14 O8 1_555 1_555
Co2B O2 1_555 1_555
C1B C2B 1_555 1_555
C2B C3B 1_555 1_555
C3B H1B 1_555 1_555
C4B C3B 1_555 1_555
C5B C4B 1_555 1_555
H2B C5B 1_555 1_555
C6B C5B 1_555 1_555
C7B C2B 1_555 1_555
H3B C7B 1_555 1_555
C8B C4B 1_555 1_555
C9B H4B 1_555 1_555
H5B C9B 1_555 1_555
C10B C9B 1_555 1_555
C11B C10B 1_555 1_555
H6B C11B 1_555 1_555
C12B C11B 1_555 1_555
H7B C12B 1_555 1_555
C13B C12B 1_555 1_555
C14B C13B 1_555 1_555
H8B C14B 1_555 1_555
C15B C10B 1_555 1_555
H9B C15B 1_555 1_555
C16B C13B 1_555 1_555
C17B H10B 1_555 1_555
C18B H11B 1_555 1_555
O1B Co1 1_555 1_555
O2B Co2 1_555 1_555
O3B C8B 1_555 1_555
O4B C8B 1_555 1_555
O5B C16B 1_555 1_555
O6B C6B 1_555 1_555
N1B Co2B 1_555 1_555
N2B Co1 1_555 1_555
N3B C17B 1_555 1_555
O7B C16B 1_555 1_555
H12B O7B 1_555 1_555
O8B Co1 1_555 1_555
H13B O8B 1_555 1_555
H14B O8B 1_555 1_555
Co2A O4 1_555 1_555
Co2A_2 N3B 1_555 1_555
Co2A_3 O5B 1_555 1_555
Co2C O5 1_555 1_555
Co2C_2 N3 1_555 1_555
Co2C_3 O4B 1_555 1_555
O4A Co2 1_555 1_555
O4C Co2B 1_555 1_555
O5A Co2B 1_555 1_555
O5C Co2 1_555 1_555
N3A Co2B 1_555 1_555
N3C Co2 1_555 1_555
Co2 O8 1_555 1_555
C6 C7 1_555 1_555
C9 O6 1_555 1_555
C14 C15 1_555 1_555
C17 N2 1_555 1_555
C18 N3 1_555 1_555
N1 N2 1_555 1_555
Co2B O8B 1_555 1_555
C1B O1B 1_555 1_555
C1B O2B 1_555 1_555
C6B C7B 1_555 1_555
C9B O6B 1_555 1_555
C14B C15B 1_555 1_555
C17B N2B 1_555 1_555
C18B N1B 1_555 1_555
C18B N3B 1_555 1_555
N1B N2B 1_555 1_555

#END
