
#######################################################################
#
#                 Cambridge Crystallographic Data Centre
#                                CCDC 
#
#######################################################################
#
# If this CIF has been generated from an entry in the Cambridge 
# Structural Database, then it will include bibliographic, chemical, 
# crystal, experimental, refinement or atomic coordinate data resulting 
# from the CCDC's data processing and validation procedures.
#
#######################################################################

data_KORYOH
_symmetry_cell_setting           monoclinic
_symmetry_space_group_name_H-M   'C 2/c'
_symmetry_Int_Tables_number      15
_space_group_name_Hall           '-C 2yn'
loop_
_symmetry_equiv_pos_site_id
_symmetry_equiv_pos_as_xyz
1 x,y,z
2 1/2+x,1/2+y,z
3 -x,y,1/2-z
4 1/2-x,1/2+y,1/2-z
5 -x,-y,-z
6 1/2-x,1/2-y,-z
7 x,-y,1/2+z
8 1/2+x,1/2-y,1/2+z
_cell_length_a                   15.123(2)
_cell_length_b                   20.189(2)
_cell_length_c                   12.1666(16)
_cell_angle_alpha                90
_cell_angle_beta                 98.459(6)
_cell_angle_gamma                90
_cell_volume                     3674.27
loop_
_atom_site_label
_atom_site_type_symbol
_atom_site_fract_x
_atom_site_fract_y
_atom_site_fract_z
N1 N 0.1385(2) 0.42198(18) 0.3906(3)
C1 C 0.1214(3) 0.4468(2) 0.4992(4)
C2 C 0.2065(3) 0.4421(2) 0.5875(4)
N2 N 0.2757(2) 0.40379(19) 0.5372(3)
C3 C 0.1604(3) 0.3506(2) 0.4014(4)
C4 C 0.2370(3) 0.3387(2) 0.4973(4)
C5 C 0.2161(3) 0.4577(2) 0.3598(4)
C6 C 0.3016(3) 0.4418(2) 0.4415(4)
Na1 Na 0.0000 0.43516(13) 0.2500
H1 H 0.1031 0.4919 0.4917
H2 H 0.0752 0.4213 0.5233
H3 H 0.2282 0.4853 0.6073
H4 H 0.1928 0.4199 0.6516
H5 H 0.1091 0.3268 0.4153
H6 H 0.1782 0.3353 0.3340
H7 H 0.2146 0.3165 0.5565
H8 H 0.2819 0.3122 0.4721
H9 H 0.2049 0.5040 0.3612
H10 H 0.2247 0.4448 0.2870
H11 H 0.3304 0.4819 0.4675
H12 H 0.3411 0.4161 0.4050
In1 In -0.059375(19) 0.671595(14) 0.10740(2)
In2 In -0.261542(19) 0.673617(15) -0.07470(2)
In3 In 0.0000 0.83459(2) 0.2500
Se1 Se 0.0000 0.58240(3) 0.2500
Se2 Se 0.05599(3) 0.76283(2) 0.10191(4)
Se3 Se -0.10552(3) 0.62899(2) -0.09223(4)
Se4 Se -0.22421(3) 0.70268(2) 0.14185(4)
Se5 Se -0.37845(3) 0.58919(2) -0.14709(4)
In1D In 0.059375(19) 0.328405(14) -0.10740(2)
In2D In 0.261542(19) 0.326383(15) 0.07470(2)
Se2D Se -0.05599(3) 0.23717(2) -0.10191(4)
Se3D Se 0.10552(3) 0.37101(2) 0.09223(4)
Se4D Se 0.22421(3) 0.29732(2) -0.14185(4)
Se5D Se 0.37845(3) 0.41081(2) 0.14709(4)
N1B N -0.1385(2) 0.42198(18) 0.1094(3)
C1B C -0.1214(3) 0.4468(2) 0.0008(4)
C2B C -0.2065(3) 0.4421(2) -0.0875(4)
N2B N -0.2757(2) 0.40379(19) -0.0372(3)
C3B C -0.1604(3) 0.3506(2) 0.0986(4)
C4B C -0.2370(3) 0.3387(2) 0.0027(4)
C5B C -0.2161(3) 0.4577(2) 0.1402(4)
C6B C -0.3016(3) 0.4418(2) 0.0585(4)
H1B H -0.1031 0.4919 0.0083
H2B H -0.0752 0.4213 -0.0233
H3B H -0.2282 0.4853 -0.1073
H4B H -0.1928 0.4199 -0.1516
H5B H -0.1091 0.3268 0.0847
H6B H -0.1782 0.3353 0.1660
H7B H -0.2146 0.3165 -0.0565
H8B H -0.2819 0.3122 0.0279
H9B H -0.2049 0.5040 0.1388
H10B H -0.2247 0.4448 0.2130
H11B H -0.3304 0.4819 0.0325
H12B H -0.3411 0.4161 0.0950
Na1D Na 0.0000 0.56484(13) -0.2500
In1B In 0.059375(19) 0.671595(14) 0.39260(2)
In2A In 0.238458(19) 0.173617(15) -0.07470(2)
In2E In -0.238458(19) 0.826383(15) 0.07470(2)
In3D In 0.0000 0.16541(2) -0.2500
In3A In 0.5000 0.33459(2) 0.2500
In3E In -0.5000 0.66541(2) -0.2500
Se1D Se 0.0000 0.41760(3) -0.2500
Se2B Se -0.05599(3) 0.76283(2) 0.39809(4)
Se3F Se -0.10552(3) 0.37101(2) 0.40777(4)
Se4A Se 0.27579(3) 0.20268(2) 0.14185(4)
Se4E Se -0.27579(3) 0.79732(2) -0.14185(4)
Se5E Se -0.12155(3) 0.91081(2) 0.14709(4)
Se5G Se 0.12155(3) 0.91081(2) 0.35291(4)
N3 N 0.4257(2) 0.38434(19) 0.6846(3)
C7 C 0.4152(3) 0.4195(2) 0.7883(4)
C8 C 0.4541(3) 0.3150(2) 0.7131(4)
C9 C 0.4961(3) 0.4167(2) 0.6302(4)
H13 H 0.3998 0.4643 0.7718
H14 H 0.3691 0.3989 0.8214
H15 H 0.4113 0.2944 0.7519
H16 H 0.4580 0.2910 0.6467
H17 H 0.4778 0.4604 0.6087
H18 H 0.5049 0.3921 0.5661
H19 H 0.3704 0.3843 0.6356
N3B N 0.5743(2) 0.38434(19) 0.8154(3)
C7B C 0.5848(3) 0.4195(2) 0.7117(4)
C8B C 0.5459(3) 0.3150(2) 0.7869(4)
C9B C 0.5039(3) 0.4167(2) 0.8698(4)
H13B H 0.6002 0.4643 0.7282
H14B H 0.6309 0.3989 0.6786
H15B H 0.5887 0.2944 0.7481
H16B H 0.5420 0.2910 0.8533
H17B H 0.5222 0.4604 0.8913
H18B H 0.4951 0.3921 0.9339
H19B H 0.6296 0.3843 0.8644
loop_
_geom_bond_atom_site_label_1
_geom_bond_atom_site_label_2
_geom_bond_site_symmetry_1
_geom_bond_site_symmetry_2
N1 C1 1_555 1_555
C1 C2 1_555 1_555
C2 N2 1_555 1_555
N2 C4 1_555 1_555
C3 N1 1_555 1_555
C4 C3 1_555 1_555
C5 N1 1_555 1_555
C6 N2 1_555 1_555
Na1 N1 1_555 1_555
H1 C1 1_555 1_555
H2 C1 1_555 1_555
H3 C2 1_555 1_555
H4 C2 1_555 1_555
H5 C3 1_555 1_555
H6 C3 1_555 1_555
H7 C4 1_555 1_555
H8 C4 1_555 1_555
H9 C5 1_555 1_555
H10 C5 1_555 1_555
H11 C6 1_555 1_555
H12 C6 1_555 1_555
In1 Se1 1_555 1_555
In2 Se3 1_555 1_555
In3 Se2 1_555 1_555
Se1 Na1 1_555 1_555
Se2 In1 1_555 1_555
Se3 In1 1_555 1_555
Se4 In1 1_555 1_555
Se5 In2 1_555 1_555
N3 C7 1_555 1_555
C7 H13 1_555 1_555
C8 N3 1_555 1_555
C9 N3 1_555 1_555
H14 C7 1_555 1_555
H15 C8 1_555 1_555
H16 C8 1_555 1_555
H17 C9 1_555 1_555
H18 C9 1_555 1_555
H19 N3 1_555 1_555
In1D Se2D 1_555 1_555
In2D Se3D 1_555 1_555
Se2D In3D 1_555 1_555
Se3D Na1 1_555 1_555
Se4D In1D 1_555 1_555
Se5D In2D 1_555 1_555
N1B Na1 1_555 1_555
C1B N1B 1_555 1_555
C2B C1B 1_555 1_555
N2B C2B 1_555 1_555
C3B N1B 1_555 1_555
C4B N2B 1_555 1_555
C5B N1B 1_555 1_555
C6B N2B 1_555 1_555
H1B C1B 1_555 1_555
H2B C1B 1_555 1_555
H3B C2B 1_555 1_555
H4B C2B 1_555 1_555
H5B C3B 1_555 1_555
H6B C3B 1_555 1_555
H7B C4B 1_555 1_555
H8B C4B 1_555 1_555
H9B C5B 1_555 1_555
H10B C5B 1_555 1_555
H11B C6B 1_555 1_555
H12B C6B 1_555 1_555
Na1D Se3 1_555 1_555
In1B Se1 1_555 1_555
In2A Se4D 1_555 1_555
In2E Se4 1_555 1_555
In3A Se5D 1_555 1_555
In3E Se5 1_555 1_555
Se1D In1D 1_555 1_555
Se2B In3 1_555 1_555
Se3F Na1 1_555 1_555
Se4A In2D 1_555 1_555
Se4E In2 1_555 1_555
Se5E In3 1_555 1_555
Se5G In3 1_555 1_555
N3B C7B 1_555 1_555
C7B C9 1_555 1_555
C8B C8 1_555 1_555
C9B C7 1_555 1_555
H13B C7B 1_555 1_555
H14B C7B 1_555 1_555
H15B C8B 1_555 1_555
H16B C8B 1_555 1_555
H17B C9B 1_555 1_555
H18B C9B 1_555 1_555
H19B N3B 1_555 1_555
C5 C6 1_555 1_555
In2 Se4 1_555 1_555
In1D Se3D 1_555 1_555
In2D Se4D 1_555 1_555
C3B C4B 1_555 1_555
C5B C6B 1_555 1_555
Na1D Se1D 1_555 1_555
In1B Se2B 1_555 1_555
In2A Se4A 1_555 1_555
In2E Se4E 1_555 1_555
In2E Se5E 1_555 1_555
N3B C8B 1_555 1_555
N3B C9B 1_555 1_555

#END
