
#######################################################################
#
#                 Cambridge Crystallographic Data Centre
#                                CCDC 
#
#######################################################################
#
# If this CIF has been generated from an entry in the Cambridge 
# Structural Database, then it will include bibliographic, chemical, 
# crystal, experimental, refinement or atomic coordinate data resulting 
# from the CCDC's data processing and validation procedures.
#
#######################################################################

data_KOSCIG
_symmetry_cell_setting           monoclinic
_symmetry_space_group_name_H-M   'P 21/c'
_symmetry_Int_Tables_number      14
_space_group_name_Hall           '-P 2ybc'
loop_
_symmetry_equiv_pos_site_id
_symmetry_equiv_pos_as_xyz
1 x,y,z
2 -x,1/2+y,1/2-z
3 -x,-y,-z
4 x,1/2-y,1/2+z
_cell_length_a                   16.7649(14)
_cell_length_b                   13.474(2)
_cell_length_c                   21.0984(12)
_cell_angle_alpha                90
_cell_angle_beta                 96.671(3)
_cell_angle_gamma                90
_cell_volume                     4733.66
loop_
_atom_site_label
_atom_site_type_symbol
_atom_site_fract_x
_atom_site_fract_y
_atom_site_fract_z
C1 C 0.7597(4) 0.6872(5) 0.3781(3)
C2 C 0.7616(4) 0.6188(5) 0.1895(3)
C3 C 0.7923(5) 0.7613(6) 0.2703(3)
C4 C 0.6578(5) 0.6779(5) 0.2650(3)
C5 C 0.6779(5) 0.5179(6) 0.3258(4)
C6 C 0.7985(5) 0.4675(6) 0.2541(3)
C7 C 0.8296(5) 0.5272(6) 0.3715(4)
C8 C 0.8962(5) 0.6255(6) 0.2848(4)
C9 C 0.7185(5) 1.0845(5) 0.5637(3)
H1 H 0.7586 1.0687 0.5964
C10 C 0.7031(6) 1.1845(6) 0.5518(4)
C11 C 0.7548(6) 1.2625(6) 0.5894(4)
H2 H 0.7214 1.3161 0.6006
H3 H 0.7941 1.2875 0.5638
H4 H 0.7816 1.2331 0.6276
C12 C 0.6429(6) 1.2089(6) 0.5041(4)
C13 C 0.6247(6) 1.3213(6) 0.4880(5)
H5 H 0.6729 1.3595 0.4977
H6 H 0.5843 1.3451 0.5131
H7 H 0.6057 1.3279 0.4435
C14 C 0.5958(3) 1.1301(3) 0.4709(2)
C15 C 0.6184(3) 1.0327(4) 0.4853(2)
C16 C 0.5784(3) 0.9548(3) 0.4522(2)
C17 C 0.5158(3) 0.9743(4) 0.4046(2)
C18 C 0.4932(3) 1.0717(4) 0.3902(2)
H8 H 0.4514 1.0848 0.3584
C19 C 0.5332(3) 1.1496(3) 0.4234(3)
H9 H 0.5181 1.2148 0.4137
C20 C 0.4777(5) 0.8926(6) 0.3709(3)
C21 C 0.4096(5) 0.9081(7) 0.3170(4)
H10 H 0.3676 0.8609 0.3213
H11 H 0.4297 0.8988 0.2766
H12 H 0.3887 0.9741 0.3194
C22 C 0.5061(5) 0.7972(7) 0.3863(4)
C23 C 0.4685(5) 0.7037(7) 0.3551(4)
H13 H 0.4630 0.7111 0.3096
H14 H 0.4166 0.6934 0.3689
H15 H 0.5023 0.6477 0.3672
C24 C 0.5680(4) 0.7902(7) 0.4324(4)
H16 H 0.5852 0.7260 0.4429
C25 C 0.9239(5) 0.9612(7) 0.5823(4)
H17 H 0.9298 0.9036 0.6068
C26 C 0.9741(5) 1.0422(7) 0.6013(4)
C27 C 1.0302(5) 1.0268(7) 0.6627(4)
H18 H 1.0208 1.0777 0.6928
H19 H 1.0849 1.0301 0.6536
H20 H 1.0202 0.9630 0.6804
C28 C 0.9700(5) 1.1246(7) 0.5622(4)
C29 C 1.0257(6) 1.2144(7) 0.5801(5)
H21 H 1.0675 1.1951 0.6128
H22 H 0.9950 1.2675 0.5955
H23 H 1.0491 1.2362 0.5431
C30 C 0.8663(3) 1.0416(3) 0.4909(2)
C31 C 0.9120(3) 1.1263(4) 0.5058(2)
C32 C 0.8999(3) 1.2106(3) 0.4680(3)
H24 H 0.9305 1.2672 0.4779
C33 C 0.8420(4) 1.2102(3) 0.4152(3)
H25 H 0.8338 1.2666 0.3898
C34 C 0.7962(3) 1.1256(4) 0.4002(2)
C35 C 0.8084(3) 1.0413(3) 0.4381(2)
C36 C 0.7351(6) 1.1207(7) 0.3469(4)
C37 C 0.7117(6) 1.2154(8) 0.3067(5)
H26 H 0.6560 1.2301 0.3085
H27 H 0.7208 1.2042 0.2632
H28 H 0.7439 1.2703 0.3237
C38 C 0.6956(5) 1.0353(7) 0.3310(4)
C39 C 0.6314(6) 1.0211(7) 0.2751(4)
H29 H 0.6466 1.0558 0.2386
H30 H 0.5813 1.0469 0.2859
H31 H 0.6257 0.9517 0.2655
C40 C 0.7172(5) 0.9544(6) 0.3704(3)
H32 H 0.6948 0.8935 0.3575
C41 C 0.8720(6) 0.6491(7) 0.5475(5)
H33 H 0.8484 0.6151 0.5118
C42 C 0.9583(6) 0.6448(7) 0.6483(4)
H34 H 0.9431 0.7134 0.6490
H35 H 1.0157 0.6398 0.6501
H36 H 0.9407 0.6112 0.6843
C43 C 0.9293(6) 0.4919(6) 0.5768(5)
H37 H 0.8850 0.4717 0.5465
H38 H 0.9288 0.4544 0.6154
H39 H 0.9788 0.4800 0.5592
Mo1 Mo 0.77105(4) 0.60957(4) 0.29208(3)
N1 N 0.7530(4) 0.7315(4) 0.4265(3)
N2 N 0.7589(4) 0.6243(5) 0.1350(3)
N3 N 0.8053(5) 0.8455(5) 0.2599(4)
N4 N 0.5963(5) 0.7187(6) 0.2467(4)
N5 N 0.6272(5) 0.4722(6) 0.3436(4)
N6 N 0.8143(5) 0.3910(5) 0.2339(3)
N7 N 0.8610(5) 0.4816(6) 0.4114(3)
N8 N 0.9633(4) 0.6366(6) 0.2774(4)
N9 N 0.6815(4) 1.0106(4) 0.5327(3)
N10 N 0.6078(4) 0.8610(5) 0.4649(3)
N11 N 0.8680(4) 0.9616(5) 0.5311(3)
N12 N 0.7665(4) 0.9552(4) 0.4245(3)
N13 N 0.9220(5) 0.6001(6) 0.5909(4)
O1 O 0.8558(4) 0.7406(4) 0.5537(2)
O2 O 0.6790(4) 0.7108(4) 0.5567(3)
H40 H 0.7077 0.7048 0.5925
H41 H 0.6712 0.6554 0.5378
Tb1 Tb 0.75075(2) 0.84437(2) 0.51854(2)
N2C N 0.7589(4) 0.8757(5) 0.6350(3)
Tb1C Tb 0.75075(2) 0.65563(2) 0.01854(2)
O3 O 0.1219(4) 0.6876(5) 0.2650(3)
H42 H 0.1336 0.7479 0.2663
H43 H 0.0727 0.6797 0.2694
O4 O 0.2075(4) 0.5282(5) 0.3129(3)
H44 H 0.1983 0.4709 0.2968
H45 H 0.1811 0.5770 0.2957
O5 O 0.5351(4) 0.6232(5) 0.6495(3)
H46 H 0.5478 0.6672 0.6777
H47 H 0.4888 0.6009 0.6544
O6 O 0.3524(5) 0.4536(5) 0.4079(3)
H48 H 0.3144 0.4714 0.3801
H49 H 0.3891 0.4272 0.3889
O7 O 0.5000 0.0000 1.0000
H50 H 0.4900 0.0462 0.9728
H50B H 0.5100 -0.0462 1.0272
H51? H 0.5501 -0.0119 1.0048
loop_
_geom_bond_atom_site_label_1
_geom_bond_atom_site_label_2
_geom_bond_site_symmetry_1
_geom_bond_site_symmetry_2
C1 Mo1 1_555 1_555
C2 Mo1 1_555 1_555
C3 Mo1 1_555 1_555
C4 Mo1 1_555 1_555
C5 Mo1 1_555 1_555
C6 Mo1 1_555 1_555
C7 Mo1 1_555 1_555
C8 Mo1 1_555 1_555
C9 H1 1_555 1_555
C10 C9 1_555 1_555
C11 C10 1_555 1_555
H2 C11 1_555 1_555
H3 C11 1_555 1_555
H4 C11 1_555 1_555
C12 C10 1_555 1_555
C13 C12 1_555 1_555
H5 C13 1_555 1_555
H6 C13 1_555 1_555
H7 C13 1_555 1_555
C14 C12 1_555 1_555
C15 C14 1_555 1_555
C16 C15 1_555 1_555
C17 C16 1_555 1_555
C18 C17 1_555 1_555
H8 C18 1_555 1_555
C19 C14 1_555 1_555
H9 C19 1_555 1_555
C20 C17 1_555 1_555
C21 C20 1_555 1_555
H10 C21 1_555 1_555
H11 C21 1_555 1_555
H12 C21 1_555 1_555
C22 C20 1_555 1_555
C23 C22 1_555 1_555
H13 C23 1_555 1_555
H14 C23 1_555 1_555
H15 C23 1_555 1_555
C24 C22 1_555 1_555
H16 C24 1_555 1_555
C25 H17 1_555 1_555
C26 C25 1_555 1_555
C27 C26 1_555 1_555
H18 C27 1_555 1_555
H19 C27 1_555 1_555
H20 C27 1_555 1_555
C28 C26 1_555 1_555
C29 C28 1_555 1_555
H21 C29 1_555 1_555
H22 C29 1_555 1_555
H23 C29 1_555 1_555
C30 C31 1_555 1_555
C31 C28 1_555 1_555
C32 C31 1_555 1_555
H24 C32 1_555 1_555
C33 C32 1_555 1_555
H25 C33 1_555 1_555
C34 C33 1_555 1_555
C35 C30 1_555 1_555
C36 C34 1_555 1_555
C37 C36 1_555 1_555
H26 C37 1_555 1_555
H27 C37 1_555 1_555
H28 C37 1_555 1_555
C38 C36 1_555 1_555
C39 C38 1_555 1_555
H29 C39 1_555 1_555
H30 C39 1_555 1_555
H31 C39 1_555 1_555
C40 C38 1_555 1_555
H32 C40 1_555 1_555
C41 H33 1_555 1_555
C42 H34 1_555 1_555
H35 C42 1_555 1_555
H36 C42 1_555 1_555
C43 H37 1_555 1_555
H38 C43 1_555 1_555
H39 C43 1_555 1_555
N1 C1 1_555 1_555
N2 C2 1_555 1_555
N3 C3 1_555 1_555
N4 C4 1_555 1_555
N5 C5 1_555 1_555
N6 C6 1_555 1_555
N7 C7 1_555 1_555
N8 C8 1_555 1_555
N9 C9 1_555 1_555
N10 C16 1_555 1_555
N11 C25 1_555 1_555
N12 C35 1_555 1_555
N13 C41 1_555 1_555
O1 C41 1_555 1_555
O2 H40 1_555 1_555
H41 O2 1_555 1_555
Tb1 N1 1_555 1_555
O3 H42 1_555 1_555
H43 O3 1_555 1_555
O4 H44 1_555 1_555
H45 O4 1_555 1_555
O5 H46 1_555 1_555
H47 O5 1_555 1_555
O6 H48 1_555 1_555
H49 O6 1_555 1_555
O7 H50 1_555 1_555
N2C Tb1 1_555 1_555
Tb1C N2 1_555 1_555
H50B O7 1_555 1_555
C15 N9 1_555 1_555
C18 C19 1_555 1_555
C24 N10 1_555 1_555
C30 N11 1_555 1_555
C34 C35 1_555 1_555
C40 N12 1_555 1_555
C42 N13 1_555 1_555
C43 N13 1_555 1_555
N9 Tb1 1_555 1_555
N10 Tb1 1_555 1_555
N11 Tb1 1_555 1_555
N12 Tb1 1_555 1_555
O1 Tb1 1_555 1_555
O2 Tb1 1_555 1_555

#END
