
#######################################################################
#
#                 Cambridge Crystallographic Data Centre
#                                CCDC 
#
#######################################################################
#
# If this CIF has been generated from an entry in the Cambridge 
# Structural Database, then it will include bibliographic, chemical, 
# crystal, experimental, refinement or atomic coordinate data resulting 
# from the CCDC's data processing and validation procedures.
#
#######################################################################

data_KOSFIH
_symmetry_cell_setting           monoclinic
_symmetry_space_group_name_H-M   'P 21/c'
_symmetry_Int_Tables_number      14
_space_group_name_Hall           '-P 2ybc'
loop_
_symmetry_equiv_pos_site_id
_symmetry_equiv_pos_as_xyz
1 x,y,z
2 -x,1/2+y,1/2-z
3 -x,-y,-z
4 x,1/2-y,1/2+z
_cell_length_a                   9.555(2)
_cell_length_b                   13.838(4)
_cell_length_c                   17.816(5)
_cell_angle_alpha                90
_cell_angle_beta                 94.06(4)
_cell_angle_gamma                90
_cell_volume                     2349.76
loop_
_atom_site_label
_atom_site_type_symbol
_atom_site_fract_x
_atom_site_fract_y
_atom_site_fract_z
Cu1 Cu 0.48131(4) -0.15667(3) 0.33820(2)
Cu2 Cu 0.32810(4) -0.29007(3) 0.27478(2)
Co1 Co 0.26192(4) -0.11593(3) 0.25495(2)
Co2 Co 0.49382(5) -0.32653(3) 0.38879(2)
O1 O 0.1144(3) 0.0327(2) 0.1636(1)
O2 O 0.2968(3) -0.0003(2) 0.3926(1)
O3 O 0.0232(2) -0.2423(2) 0.2803(2)
O4 O 0.4836(3) -0.1582(2) 0.1541(2)
O5 O 0.6505(3) -0.4863(2) 0.4612(2)
O6 O 0.2082(3) -0.3990(2) 0.4026(1)
O7 O 0.6574(3) -0.3167(2) 0.2561(2)
O8 O 0.5044(3) -0.1820(2) 0.5090(1)
N1 N 0.7298(3) 0.0974(2) 0.2984(1)
N2 N 0.6454(3) -0.0575(2) 0.3481(1)
N3 N 0.8952(3) -0.0349(2) 0.3280(2)
N4 N 0.7920(3) 0.0511(2) 0.4292(1)
C1 C 0.1714(3) -0.0256(2) 0.1988(2)
C2 C 0.2940(3) -0.0504(2) 0.3409(2)
C3 C 0.1230(3) -0.1991(2) 0.2707(2)
C4 C 0.3988(4) -0.1451(2) 0.1958(2)
C5 C 0.5891(4) -0.4240(3) 0.4333(2)
C6 C 0.3167(4) -0.3691(3) 0.3912(2)
C7 C 0.5886(4) -0.3162(2) 0.3067(2)
C8 C 0.5021(3) -0.2328(2) 0.4580(2)
C9 C 0.6134(3) 0.0259(2) 0.2971(2)
C10 C 0.8591(3) 0.0453(2) 0.2772(2)
C11 C 0.7783(3) -0.1036(2) 0.3244(2)
C12 C 0.7573(4) 0.1316(2) 0.3782(2)
C13 C 0.6769(4) -0.0183(2) 0.4261(2)
C14 C 0.9171(4) 0.0023(3) 0.4049(2)
H1 H 0.5960(30) -0.0020(20) 0.2442(16)
H2 H 0.5260(30) 0.0610(20) 0.3130(16)
H3 H 0.8410(30) 0.0234(19) 0.2273(15)
H4 H 0.9370(30) 0.0930(20) 0.2820(15)
H5 H 0.7550(30) -0.1260(20) 0.2730(16)
H6 H 0.8020(30) -0.1530(20) 0.3588(17)
H7 H 0.8370(30) 0.1790(20) 0.3773(16)
H8 H 0.6670(30) 0.1610(20) 0.3943(17)
H9 H 0.5930(30) 0.0153(19) 0.4409(14)
H10 H 0.7030(30) -0.0760(20) 0.4602(16)
H11 H 0.9990(30) 0.0500(20) 0.4079(18)
H12 H 0.9390(30) -0.0490(20) 0.4389(16)
N1A N 0.2702(3) -0.4026(2) 0.2016(1)
Cu2A Cu 0.67190(4) 0.20993(3) 0.22522(2)
O9 O 0.1222(3) 0.2010(2) 0.4748(2)
C15 C 0.1714(5) 0.2378(3) 0.4070(3)
C16 C 0.1366(7) 0.3426(3) 0.4030(3)
C17 C 0.0258(7) 0.3555(4) 0.4582(3)
C18 C 0.0531(7) 0.2737(4) 0.5129(3)
H13 H 0.2640(40) 0.2240(30) 0.4070(20)
H14 H 0.0980(80) 0.2100(50) 0.3660(40)
H15 H 0.2240(60) 0.3610(40) 0.4240(30)
H16 H 0.0940(60) 0.3630(40) 0.3570(30)
H17 H -0.0660(50) 0.3510(30) 0.4330(30)
H18 H 0.0270(50) 0.4110(30) 0.4840(20)
H19 H -0.0340(50) 0.2470(30) 0.5320(30)
H20 H 0.1050(60) 0.2930(40) 0.5550(30)
loop_
_geom_bond_atom_site_label_1
_geom_bond_atom_site_label_2
_geom_bond_site_symmetry_1
_geom_bond_site_symmetry_2
Cu1 Co1 1_555 1_555
Cu2 Co1 1_555 1_555
Co1 C1 1_555 1_555
Co2 Cu1 1_555 1_555
O1 C1 1_555 1_555
O2 C2 1_555 1_555
O3 C3 1_555 1_555
O4 C4 1_555 1_555
O5 C5 1_555 1_555
O6 C6 1_555 1_555
O7 C7 1_555 1_555
O8 C8 1_555 1_555
N1 C9 1_555 1_555
N2 Cu1 1_555 1_555
N3 C10 1_555 1_555
N4 C12 1_555 1_555
C2 Co1 1_555 1_555
C3 Co1 1_555 1_555
C4 Co1 1_555 1_555
C5 Co2 1_555 1_555
C6 Co2 1_555 1_555
C7 Co2 1_555 1_555
C8 Co2 1_555 1_555
C9 N2 1_555 1_555
C10 N1 1_555 1_555
C11 N2 1_555 1_555
C12 N1 1_555 1_555
C13 N2 1_555 1_555
C14 N3 1_555 1_555
O9 C15 1_555 1_555
C15 C16 1_555 1_555
C16 C17 1_555 1_555
C17 C18 1_555 1_555
C18 O9 1_555 1_555
H1 C9 1_555 1_555
H2 C9 1_555 1_555
H3 C10 1_555 1_555
H4 C10 1_555 1_555
H5 C11 1_555 1_555
H6 C11 1_555 1_555
H7 C12 1_555 1_555
H8 C12 1_555 1_555
H9 C13 1_555 1_555
H10 C13 1_555 1_555
H11 C14 1_555 1_555
H12 C14 1_555 1_555
H13 C15 1_555 1_555
H14 C15 1_555 1_555
H15 C16 1_555 1_555
H16 C16 1_555 1_555
H17 C17 1_555 1_555
H18 C17 1_555 1_555
H19 C18 1_555 1_555
H20 C18 1_555 1_555
N1A Cu2 1_555 1_555
Cu2A N1 1_555 1_555
Cu2 Co2 1_555 1_555
N3 C11 1_555 1_555
N4 C13 1_555 1_555
N4 C14 1_555 1_555

#END
