
#######################################################################
#
#                 Cambridge Crystallographic Data Centre
#                                CCDC 
#
#######################################################################
#
# If this CIF has been generated from an entry in the Cambridge 
# Structural Database, then it will include bibliographic, chemical, 
# crystal, experimental, refinement or atomic coordinate data resulting 
# from the CCDC's data processing and validation procedures.
#
#######################################################################

data_KOTBUS
_symmetry_cell_setting           hexagonal
_symmetry_space_group_name_H-M   'P 61'
_symmetry_Int_Tables_number      169
_space_group_name_Hall           'P 61'
loop_
_symmetry_equiv_pos_site_id
_symmetry_equiv_pos_as_xyz
1 x,y,z
2 -y,x-y,1/3+z
3 -x+y,-x,2/3+z
4 -x,-y,1/2+z
5 y,-x+y,5/6+z
6 x-y,x,1/6+z
_cell_length_a                   10.9566(2)
_cell_length_b                   10.9566(2)
_cell_length_c                   21.2225(5)
_cell_angle_alpha                90
_cell_angle_beta                 90
_cell_angle_gamma                120
_cell_volume                     2206.37
loop_
_atom_site_label
_atom_site_type_symbol
_atom_site_fract_x
_atom_site_fract_y
_atom_site_fract_z
Sm1 Sm 0.22460(2) 1.19158(2) 0.83385(3)
O1 O -0.0220(4) 1.1343(5) 0.7963(2)
O2 O 0.2431(5) 1.3371(4) 0.7362(2)
H1 H 0.2119 1.2850 0.7055
O3 O 0.2524(5) 0.9954(4) 0.8506(2)
C1 C 0.2905(6) 0.9250(6) 0.8167(3)
C2 C -0.0334(6) 1.0442(6) 0.7569(3)
C3 C 0.3568(5) 0.8502(5) 0.8505(3)
H2 H 0.4159 0.9134 0.8842
C4 C 0.2470(7) 0.7134(6) 0.8823(3)
C5 C 0.1227(7) 0.6306(7) 0.8391(5)
H3 H 0.0714 0.6799 0.8342
H4 H 0.0620 0.5393 0.8570
H5 H 0.1557 0.6200 0.7987
C6 C 0.4176(8) 0.6716(8) 0.8305(4)
H6 H 0.3642 0.6032 0.7980
H7 H 0.5042 0.6699 0.8376
C7 C -0.1671(6) 0.9604(8) 0.7204(3)
H8 H -0.1747 1.0194 0.6890
H9 H -0.2462 0.9257 0.7485
H10 H -0.1661 0.8824 0.7003
C8 C 0.4522(7) 0.8222(7) 0.8090(4)
H11 H 0.5506 0.8910 0.8162
H12 H 0.4304 0.8232 0.7647
C9 C 0.1914(12) 0.7410(10) 0.9435(4)
H13 H 0.1403 0.7889 0.9343
H14 H 0.2691 0.7985 0.9709
H15 H 0.1300 0.6529 0.9639
C10 C 0.3321(6) 0.6345(6) 0.8910(3)
C11 C 0.2342(6) 0.4809(6) 0.9049(3)
C12 C 0.4368(8) 0.7000(8) 0.9472(4)
H16 H 0.4887 0.6514 0.9521
H17 H 0.3852 0.6910 0.9851
H18 H 0.5010 0.7978 0.9388
O4 O 0.2097(5) 0.3894(5) 0.8620(3)
O5 O 0.1805(5) 0.4473(5) 0.9569(2)
O6 O 0.2744(5) 0.9137(5) 0.7583(2)
O7 O 0.0685(3) 1.0202(4) 0.7490(2)
Sm1_2 Sm 0.22460(2) 0.19158(2) 0.83385(3)
Sm1D Sm 0.19158(2) 0.96698(3) 0.66718(3)
Sm1E Sm 0.03302(3) 0.22460(2) 1.00052(3)
O4_2 O 0.2097(5) 1.3894(5) 0.8620(3)
O5D O 0.4473(5) 1.2668(7) 0.7902(2)
O6E O 0.3607(7) 1.2744(5) 0.9250(2)
O7E O 0.0483(5) 1.0685(3) 0.9157(2)
loop_
_geom_bond_atom_site_label_1
_geom_bond_atom_site_label_2
_geom_bond_site_symmetry_1
_geom_bond_site_symmetry_2
Sm1 O1 1_555 1_555
O1 C2 1_555 1_555
O2 Sm1 1_555 1_555
H1 O2 1_555 1_555
O3 Sm1 1_555 1_555
C1 O3 1_555 1_555
C2 C7 1_555 1_555
C3 C1 1_555 1_555
H2 C3 1_555 1_555
C4 C3 1_555 1_555
C5 C4 1_555 1_555
H3 C5 1_555 1_555
H4 C5 1_555 1_555
H5 C5 1_555 1_555
C6 H6 1_555 1_555
H7 C6 1_555 1_555
C7 H8 1_555 1_555
H9 C7 1_555 1_555
H10 C7 1_555 1_555
C8 C3 1_555 1_555
H11 C8 1_555 1_555
H12 C8 1_555 1_555
C9 C4 1_555 1_555
H13 C9 1_555 1_555
H14 C9 1_555 1_555
H15 C9 1_555 1_555
C10 C4 1_555 1_555
C11 C10 1_555 1_555
C12 C10 1_555 1_555
H16 C12 1_555 1_555
H17 C12 1_555 1_555
H18 C12 1_555 1_555
O4 C11 1_555 1_555
O5 C11 1_555 1_555
O6 C1 1_555 1_555
O7 Sm1 1_555 1_555
Sm1_2 O4 1_555 1_555
Sm1D O6 1_555 1_555
Sm1E O5 1_555 1_555
O4_2 Sm1 1_555 1_555
O5D Sm1 1_555 1_555
O6E Sm1 1_555 1_555
O7E Sm1 1_555 1_555
C2 O7 1_555 1_555
C6 C8 1_555 1_555
C6 C10 1_555 1_555
O7 Sm1D 1_555 1_555

#END
