
#######################################################################
#
#                 Cambridge Crystallographic Data Centre
#                                CCDC 
#
#######################################################################
#
# If this CIF has been generated from an entry in the Cambridge 
# Structural Database, then it will include bibliographic, chemical, 
# crystal, experimental, refinement or atomic coordinate data resulting 
# from the CCDC's data processing and validation procedures.
#
#######################################################################

data_KOTBOM
_symmetry_cell_setting           hexagonal
_symmetry_space_group_name_H-M   'P 65'
_symmetry_Int_Tables_number      170
_space_group_name_Hall           'P 65'
loop_
_symmetry_equiv_pos_site_id
_symmetry_equiv_pos_as_xyz
1 x,y,z
2 -y,x-y,2/3+z
3 -x+y,-x,1/3+z
4 -x,-y,1/2+z
5 y,-x+y,1/6+z
6 x-y,x,5/6+z
_cell_length_a                   10.955
_cell_length_b                   10.955
_cell_length_c                   21.2260(3)
_cell_angle_alpha                90
_cell_angle_beta                 90
_cell_angle_gamma                120
_cell_volume                     2206.09
loop_
_atom_site_label
_atom_site_type_symbol
_atom_site_fract_x
_atom_site_fract_y
_atom_site_fract_z
Sm1 Sm 0.96698(2) 1.19157(2) 0.017710(19)
O1 O 0.7424(4) 0.9945(4) 0.03415(18)
O2 O 1.0936(4) 1.3371(4) -0.08014(18)
H1 H 1.0726 1.2849 -0.1108
C1 C 0.6344(5) 0.9256(4) 0.0006(2)
C2 C 0.4936(5) 0.8506(5) 0.0342(2)
H2 H 0.4978 0.9142 0.0677
C3 C 0.5089(7) 0.6312(6) 0.0240(5)
H3 H 0.6097 0.6809 0.0196
H4 H 0.4663 0.6204 -0.0167
H5 H 0.4783 0.5400 0.0420
C4 C 0.4656(5) 0.7138(6) 0.0667(3)
O3 O 0.9516(3) 1.0201(4) -0.06671(18)
C5 C 1.0775(4) 1.0437(5) -0.0589(2)
C6 C 1.1265(7) 0.9596(7) -0.0956(3)
H6 H 1.1978 1.0199 -0.1250
H7 H 1.0483 0.8857 -0.1180
H8 H 1.1648 0.9191 -0.0672
C7 C 0.2549(6) 0.6715(7) 0.0141(4)
H9 H 0.1657 0.6685 0.0206
H10 H 0.2418 0.6036 -0.0183
C8 C 0.3692(6) 0.8216(7) -0.0067(4)
H11 H 0.3916 0.8236 -0.0510
H12 H 0.3388 0.8897 0.0010
C9 C 0.5500(8) 0.7408(9) 0.1281(4)
H13 H 0.6489 0.7895 0.1187
H14 H 0.5241 0.6525 0.1481
H15 H 0.5295 0.7974 0.1559
O4 O 1.1554(4) 1.1337(4) -0.01993(19)
O5 O 0.6389(4) 0.9135(4) -0.05765(18)
O6 O 0.2666(5) 0.4480(4) 0.1410(2)
C10 C 0.2457(5) 0.4806(5) 0.0886(3)
C11 C 0.3024(4) 0.6354(5) 0.0748(2)
C12 C 0.2627(9) 0.6989(7) 0.1309(4)
H16 H 0.1620 0.6502 0.1356
H17 H 0.2966 0.7970 0.1232
H18 H 0.3047 0.6887 0.1688
O7 O 0.1801(4) 0.3904(4) 0.0458(2)
Sm1_2 Sm -0.03302(2) 0.19157(2) 0.017710(19)
Sm1D Sm 0.19157(2) 0.22459(3) 0.184377(19)
Sm1E Sm 0.77541(3) 0.96698(2) -0.148957(19)
O3D O 1.0201(4) 1.0685(5) 0.09996(18)
O5D O 0.9135(4) 1.2746(6) 0.10902(18)
O6E O 0.8186(6) 1.2666(5) -0.0257(2)
O7_2 O 1.1801(4) 1.3904(4) 0.0458(2)
loop_
_geom_bond_atom_site_label_1
_geom_bond_atom_site_label_2
_geom_bond_site_symmetry_1
_geom_bond_site_symmetry_2
Sm1 O1 1_555 1_555
O1 C1 1_555 1_555
O2 Sm1 1_555 1_555
H1 O2 1_555 1_555
C1 C2 1_555 1_555
C2 H2 1_555 1_555
C3 H3 1_555 1_555
H4 C3 1_555 1_555
H5 C3 1_555 1_555
C4 C2 1_555 1_555
O3 Sm1 1_555 1_555
C5 O3 1_555 1_555
C6 C5 1_555 1_555
H6 C6 1_555 1_555
H7 C6 1_555 1_555
H8 C6 1_555 1_555
C7 H9 1_555 1_555
H10 C7 1_555 1_555
C8 C2 1_555 1_555
H11 C8 1_555 1_555
H12 C8 1_555 1_555
C9 C4 1_555 1_555
H13 C9 1_555 1_555
H14 C9 1_555 1_555
H15 C9 1_555 1_555
O4 Sm1 1_555 1_555
O5 C1 1_555 1_555
O6 C10 1_555 1_555
C10 C11 1_555 1_555
C11 C4 1_555 1_555
C12 C11 1_555 1_555
H16 C12 1_555 1_555
H17 C12 1_555 1_555
H18 C12 1_555 1_555
O7 C10 1_555 1_555
Sm1_2 O7 1_555 1_555
Sm1D O6 1_555 1_555
Sm1E O3 1_555 1_555
O3D Sm1 1_555 1_555
O5D Sm1 1_555 1_555
O6E Sm1 1_555 1_555
O7_2 Sm1 1_555 1_555
C3 C4 1_555 1_555
C5 O4 1_555 1_555
C7 C8 1_555 1_555
C7 C11 1_555 1_555
O5 Sm1E 1_555 1_555

#END
