
#######################################################################
#
#                 Cambridge Crystallographic Data Centre
#                                CCDC 
#
#######################################################################
#
# If this CIF has been generated from an entry in the Cambridge 
# Structural Database, then it will include bibliographic, chemical, 
# crystal, experimental, refinement or atomic coordinate data resulting 
# from the CCDC's data processing and validation procedures.
#
#######################################################################

data_KOTBIG
_symmetry_cell_setting           hexagonal
_symmetry_space_group_name_H-M   'P 65'
_symmetry_Int_Tables_number      170
_space_group_name_Hall           'P 65'
loop_
_symmetry_equiv_pos_site_id
_symmetry_equiv_pos_as_xyz
1 x,y,z
2 -y,x-y,2/3+z
3 -x+y,-x,1/3+z
4 -x,-y,1/2+z
5 y,-x+y,1/6+z
6 x-y,x,5/6+z
_cell_length_a                   10.9771(2)
_cell_length_b                   10.9771(2)
_cell_length_c                   21.4210(7)
_cell_angle_alpha                90
_cell_angle_beta                 90
_cell_angle_gamma                120
_cell_volume                     2235.35
loop_
_atom_site_label
_atom_site_type_symbol
_atom_site_fract_x
_atom_site_fract_y
_atom_site_fract_z
Pr1 Pr 0.03141(2) -0.19413(2) 0.143041(18)
O1 O -0.1572(4) -0.1312(4) 0.10562(17)
O2 O -0.1022(4) -0.3406(4) 0.04449(17)
H1 H -0.0803 -0.2884 0.0141
O3 O 0.2609(4) -0.0002(4) 0.15882(17)
C1 C 0.3685(5) 0.0709(5) 0.1257(2)
C2 C -0.0785(4) -0.0421(5) 0.0669(2)
C3 C 0.5307(5) 0.2805(5) 0.1926(3)
C4 C 0.5091(5) 0.1475(5) 0.1595(2)
H2 H 0.5066 0.0837 0.1921
C5 C 0.4852(7) 0.3628(6) 0.1508(5)
H3 H 0.3849 0.3108 0.1457
H4 H 0.5295 0.3771 0.1107
H5 H 0.5125 0.4522 0.1695
C6 C -0.1285(7) 0.0412(7) 0.0304(3)
H6 H -0.2047 -0.0207 0.0037
H7 H -0.0526 0.1104 0.0056
H8 H -0.1602 0.0874 0.0587
C7 C 0.4482(8) 0.2480(8) 0.2536(3)
H9 H 0.3492 0.1977 0.2447
H10 H 0.4722 0.3344 0.2746
H11 H 0.4713 0.1915 0.2797
C8 C 0.6356(6) 0.1819(7) 0.1185(3)
H12 H 0.6127 0.1792 0.0746
H13 H 0.6696 0.1169 0.1260
O4 O 0.7181(6) 0.5452(4) 0.2671(2)
C9 C 0.6946(5) 0.3646(5) 0.2009(2)
C10 C 0.7452(5) 0.5167(5) 0.2158(3)
C11 C 0.7379(9) 0.3023(7) 0.2548(3)
H14 H 0.8383 0.3543 0.2595
H15 H 0.7081 0.2056 0.2460
H16 H 0.6944 0.3080 0.2927
C12 C 0.7453(6) 0.3332(7) 0.1393(4)
H17 H 0.8364 0.3406 0.1452
H18 H 0.7546 0.4004 0.1076
O5 O 0.3646(4) 0.0831(4) 0.06813(17)
O6 O 0.8135(4) 0.6116(4) 0.1757(3)
O7 O 0.0466(3) -0.0178(4) 0.05887(16)
Pr1_2 Pr 1.03141(2) 0.80587(2) 0.143041(18)
Pr1D Pr 0.80587(2) 0.77446(3) 0.309708(18)
Pr1E Pr 0.22554(3) 0.03141(2) -0.023626(18)
O4E O 0.1729(7) -0.2819(6) 0.1004(2)
O5D O 0.0831(4) -0.2815(6) 0.23480(17)
O6_2 O -0.1865(4) -0.3884(4) 0.1757(3)
O7D O -0.0178(4) -0.0644(5) 0.22554(16)
loop_
_geom_bond_atom_site_label_1
_geom_bond_atom_site_label_2
_geom_bond_site_symmetry_1
_geom_bond_site_symmetry_2
Pr1 O1 1_555 1_555
O1 C2 1_555 1_555
O2 Pr1 1_555 1_555
H1 O2 1_555 1_555
O3 Pr1 1_555 1_555
C1 O3 1_555 1_555
C2 C6 1_555 1_555
C3 C4 1_555 1_555
C4 C1 1_555 1_555
H2 C4 1_555 1_555
C5 C3 1_555 1_555
H3 C5 1_555 1_555
H4 C5 1_555 1_555
H5 C5 1_555 1_555
C6 H6 1_555 1_555
H7 C6 1_555 1_555
H8 C6 1_555 1_555
C7 C3 1_555 1_555
H9 C7 1_555 1_555
H10 C7 1_555 1_555
H11 C7 1_555 1_555
C8 C4 1_555 1_555
H12 C8 1_555 1_555
H13 C8 1_555 1_555
O4 C10 1_555 1_555
C9 C3 1_555 1_555
C10 C9 1_555 1_555
C11 C9 1_555 1_555
H14 C11 1_555 1_555
H15 C11 1_555 1_555
H16 C11 1_555 1_555
C12 C8 1_555 1_555
H17 C12 1_555 1_555
H18 C12 1_555 1_555
O5 C1 1_555 1_555
O6 C10 1_555 1_555
O7 Pr1 1_555 1_555
Pr1_2 O6 1_555 1_555
Pr1D O4 1_555 1_555
Pr1E O5 1_555 1_555
O4E Pr1 1_555 1_555
O5D Pr1 1_555 1_555
O6_2 Pr1 1_555 1_555
O7D Pr1 1_555 1_555
C2 O7 1_555 1_555
C9 C12 1_555 1_555
O7 Pr1E 1_555 1_555

#END
