
#######################################################################
#
#                 Cambridge Crystallographic Data Centre
#                                CCDC 
#
#######################################################################
#
# If this CIF has been generated from an entry in the Cambridge 
# Structural Database, then it will include bibliographic, chemical, 
# crystal, experimental, refinement or atomic coordinate data resulting 
# from the CCDC's data processing and validation procedures.
#
#######################################################################

data_KOTCUT
_symmetry_cell_setting           orthorhombic
_symmetry_space_group_name_H-M   'P 21 21 21'
_symmetry_Int_Tables_number      19
_space_group_name_Hall           'P 2ac 2ab'
loop_
_symmetry_equiv_pos_site_id
_symmetry_equiv_pos_as_xyz
1 x,y,z
2 1/2-x,-y,1/2+z
3 -x,1/2+y,1/2-z
4 1/2+x,1/2-y,-z
_cell_length_a                   8.0349(3)
_cell_length_b                   10.9499(4)
_cell_length_c                   14.6841(5)
_cell_angle_alpha                90
_cell_angle_beta                 90
_cell_angle_gamma                90
_cell_volume                     1291.93
loop_
_atom_site_label
_atom_site_type_symbol
_atom_site_fract_x
_atom_site_fract_y
_atom_site_fract_z
Lu1 Lu 0.92746(3) 0.79357(3) 1.00180(3)
O1 O 1.1482(8) 0.6843(7) 1.0570(5)
O2 O 1.0516(9) 0.7929(8) 0.8684(5)
C1 C 1.1790(10) 0.7605(9) 0.8264(7)
O3 O 1.3043(8) 0.5206(8) 1.0522(6)
O4 O 1.3564(8) 0.8969(7) 1.0300(5)
O5 O 1.5916(7) 0.5622(8) 0.9453(6)
O6 O 1.3063(9) 0.7174(8) 0.8643(5)
C2 C 1.1765(11) 0.7762(10) 0.7238(7)
C3 C 1.6681(13) 0.9292(10) 0.9299(8)
C4 C 1.012(3) 0.770(3) 0.6837(11)
C5 C 1.282(2) 0.8827(16) 0.6931(10)
H1 H 1.2341 0.7039 0.7003
H2 H 1.5809 0.9756 0.9068
H3 H 0.9984 0.6995 0.6448
C6 C 1.020(2) 0.9006(18) 0.6238(12)
H4 H 0.9248 0.7718 0.7294
C7 C 1.453(4) 0.820(4) 0.6835(14)
C8 C 1.2118(11) 0.9086(9) 0.5946(6)
C9 C 1.261(2) 0.9888(14) 0.7529(8)
H5 H 0.9877 0.9701 0.6610
H6 H 0.9477 0.8968 0.5708
H7 H 1.4457 0.7549 0.6399
H8 H 1.4868 0.7874 0.7414
H9 H 1.5342 0.8786 0.6633
C10 C 1.288(4) 0.8134(16) 0.539(2)
C11 C 1.2553(11) 1.0358(11) 0.5587(7)
H10 H 1.1457 1.0127 0.7534
H11 H 1.3274 1.0553 0.7310
H12 H 1.2947 0.9680 0.8136
H13 H 1.4042 0.8308 0.5309
H14 H 1.2346 0.8112 0.4802
H15 H 1.2752 0.7357 0.5682
Lu1C Lu 1.42746(3) 0.70643(3) 0.99820(3)
O1C O 1.6482(8) 0.8157(7) 0.9430(5)
O2C O 1.5516(9) 0.7071(8) 1.1316(5)
Lu1_2 Lu 1.92746(3) 0.79357(3) 1.00180(3)
O3C O 1.8043(8) 0.9794(8) 0.9478(6)
O5B O 1.4084(7) 1.0622(8) 0.5547(6)
O4A O 1.1436(8) 1.1031(7) 0.5300(5)
Lu1A Lu 1.57254(3) 1.20643(3) 0.50180(3)
Lu1B Lu 1.07254(3) 1.29357(3) 0.49820(3)
loop_
_geom_bond_atom_site_label_1
_geom_bond_atom_site_label_2
_geom_bond_site_symmetry_1
_geom_bond_site_symmetry_2
Lu1 O1 1_555 1_555
O1 Lu1C 1_555 1_555
O2 Lu1 1_555 1_555
C1 O2 1_555 1_555
O3 Lu1C 1_555 1_555
O4 Lu1C 1_555 1_555
O5 Lu1C 1_555 1_555
O6 C1 1_555 1_555
C2 C1 1_555 1_555
C3 H2 1_555 1_555
C4 C2 1_555 1_555
C5 C2 1_555 1_555
H1 C2 1_555 1_555
H3 C4 1_555 1_555
C6 C4 1_555 1_555
H4 C4 1_555 1_555
C7 C5 1_555 1_555
C8 C5 1_555 1_555
C9 C5 1_555 1_555
H5 C6 1_555 1_555
H6 C6 1_555 1_555
H7 C7 1_555 1_555
H8 C7 1_555 1_555
H9 C7 1_555 1_555
C10 C8 1_555 1_555
C11 C8 1_555 1_555
H10 C9 1_555 1_555
H11 C9 1_555 1_555
H12 C9 1_555 1_555
H13 C10 1_555 1_555
H14 C10 1_555 1_555
H15 C10 1_555 1_555
Lu1C O6 1_555 1_555
O1C C3 1_555 1_555
O2C Lu1C 1_555 1_555
Lu1_2 O1C 1_555 1_555
O3C C3 1_555 1_555
O5B C11 1_555 1_555
O4A C11 1_555 1_555
Lu1A O5B 1_555 1_555
Lu1B O4A 1_555 1_555
C6 C8 1_555 1_555
Lu1C O1C 1_555 1_555
Lu1_2 O3C 1_555 1_555

#END
