
#######################################################################
#
#                 Cambridge Crystallographic Data Centre
#                                CCDC 
#
#######################################################################
#
# If this CIF has been generated from an entry in the Cambridge 
# Structural Database, then it will include bibliographic, chemical, 
# crystal, experimental, refinement or atomic coordinate data resulting 
# from the CCDC's data processing and validation procedures.
#
#######################################################################

data_KOTDEE
_symmetry_cell_setting           orthorhombic
_symmetry_space_group_name_H-M   'P 21 21 21'
_symmetry_Int_Tables_number      19
_space_group_name_Hall           'P 2ac 2ab'
loop_
_symmetry_equiv_pos_site_id
_symmetry_equiv_pos_as_xyz
1 x,y,z
2 1/2-x,-y,1/2+z
3 -x,1/2+y,1/2-z
4 1/2+x,1/2-y,-z
_cell_length_a                   8.10020(10)
_cell_length_b                   10.93270(10)
_cell_length_c                   14.72100(10)
_cell_angle_alpha                90
_cell_angle_beta                 90
_cell_angle_gamma                90
_cell_volume                     1303.65
loop_
_atom_site_label
_atom_site_type_symbol
_atom_site_fract_x
_atom_site_fract_y
_atom_site_fract_z
Tm1 Tm 0.07308(2) 0.79425(2) 0.49837(2)
O1 O 0.3525(5) 0.8171(4) 0.5569(3)
O2 O 0.4466(6) 0.7080(6) 0.3689(3)
O3 O 0.1936(6) 0.7826(5) 0.3639(3)
C1 C 0.2368(16) 0.5114(10) 0.2507(6)
H1 H 0.1695 0.4451 0.2294
H2 H 0.2054 0.5322 0.3116
H3 H 0.3508 0.4873 0.2498
C2 C 0.3208(7) 0.7398(6) 0.3259(5)
C3 C 0.3218(7) 0.7263(6) 0.2231(4)
H4 H 0.2649 0.7995 0.2008
C4 C 0.2135(11) 0.6186(10) 0.1910(6)
O4 O 0.1966(6) 0.9795(5) 0.5530(5)
C5 C 0.3316(9) 0.9302(7) 0.5712(5)
H5 H 0.4170 0.9768 0.5955
C6 C 0.4874(16) 0.733(2) 0.1828(7)
H6 H 0.5739 0.7293 0.2283
H7 H 0.5017 0.8057 0.1456
C7 C 0.048(2) 0.678(2) 0.1844(9)
H8 H -0.0316 0.6182 0.1650
H9 H 0.0528 0.7431 0.1411
H10 H 0.0173 0.7093 0.2427
C8 C 0.2887(7) 0.5926(6) 0.0942(4)
C9 C 0.2424(7) 0.4659(7) 0.0580(4)
C10 C 0.2265(19) 0.6851(9) 0.0301(10)
H11 H 0.1107 0.6725 0.0202
H12 H 0.2844 0.6779 -0.0265
H13 H 0.2440 0.7653 0.0549
O5 O 0.3555(5) 0.3984(4) 0.0300(3)
O6 O 0.0919(5) 0.4394(5) 0.0537(4)
C11 C 0.4768(12) 0.6020(11) 0.1187(7)
H14 H 0.5440 0.6088 0.0644
H15 H 0.5127 0.5314 0.1534
Tm1A Tm 0.42692(2) 0.20575(2) -0.00163(2)
Tm1B Tm -0.07308(2) 0.29425(2) 0.00163(2)
Tm1C Tm 0.57308(2) 0.70575(2) 0.50163(2)
O1C O -0.1475(5) 0.6829(4) 0.4431(3)
O2C O -0.0534(6) 0.7920(6) 0.6311(3)
O5A O 0.1445(5) 0.6016(4) 0.5300(3)
O6B O -0.0919(5) 0.9394(5) 0.4463(4)
loop_
_geom_bond_atom_site_label_1
_geom_bond_atom_site_label_2
_geom_bond_site_symmetry_1
_geom_bond_site_symmetry_2
Tm1 O1 1_555 1_555
O1 C5 1_555 1_555
O2 C2 1_555 1_555
O3 Tm1 1_555 1_555
C1 H1 1_555 1_555
H2 C1 1_555 1_555
H3 C1 1_555 1_555
C2 O3 1_555 1_555
C3 C2 1_555 1_555
H4 C3 1_555 1_555
C4 C1 1_555 1_555
O4 Tm1 1_555 1_555
C5 O4 1_555 1_555
H5 C5 1_555 1_555
C6 C3 1_555 1_555
H6 C6 1_555 1_555
H7 C6 1_555 1_555
C7 C4 1_555 1_555
H8 C7 1_555 1_555
H9 C7 1_555 1_555
H10 C7 1_555 1_555
C8 C4 1_555 1_555
C9 C8 1_555 1_555
C10 C8 1_555 1_555
H11 C10 1_555 1_555
H12 C10 1_555 1_555
H13 C10 1_555 1_555
O5 C9 1_555 1_555
O6 C9 1_555 1_555
C11 C6 1_555 1_555
H14 C11 1_555 1_555
H15 C11 1_555 1_555
Tm1A O5 1_555 1_555
Tm1B O6 1_555 1_555
Tm1C O1 1_555 1_555
O1C Tm1 1_555 1_555
O2C Tm1 1_555 1_555
O5A Tm1 1_555 1_555
O6B Tm1 1_555 1_555
O2 Tm1C 1_555 1_555
C3 C4 1_555 1_555
C8 C11 1_555 1_555

#END
