
#######################################################################
#
#                 Cambridge Crystallographic Data Centre
#                                CCDC 
#
#######################################################################
#
# If this CIF has been generated from an entry in the Cambridge 
# Structural Database, then it will include bibliographic, chemical, 
# crystal, experimental, refinement or atomic coordinate data resulting 
# from the CCDC's data processing and validation procedures.
#
#######################################################################

data_KOTDII
_symmetry_cell_setting           orthorhombic
_symmetry_space_group_name_H-M   'P 21 21 21'
_symmetry_Int_Tables_number      19
_space_group_name_Hall           'P 2ac 2ab'
loop_
_symmetry_equiv_pos_site_id
_symmetry_equiv_pos_as_xyz
1 x,y,z
2 1/2-x,-y,1/2+z
3 -x,1/2+y,1/2-z
4 1/2+x,1/2-y,-z
_cell_length_a                   8.1718(2)
_cell_length_b                   10.9469(4)
_cell_length_c                   14.7511(5)
_cell_angle_alpha                90
_cell_angle_beta                 90
_cell_angle_gamma                90
_cell_volume                     1319.57
loop_
_atom_site_label
_atom_site_type_symbol
_atom_site_fract_x
_atom_site_fract_y
_atom_site_fract_z
Y1 Y 0.92574(8) 0.70492(6) 0.49849(6)
O1 O 0.8045(7) 0.7167(6) 0.3637(4)
O2 O 0.6465(7) 0.6821(6) 0.5570(4)
C1 C 0.6785(11) 0.7590(8) 0.3259(5)
O3 O 0.8003(8) 0.5187(6) 0.5539(5)
C2 C 0.6799(11) 0.7728(8) 0.2226(5)
H1 H 0.7410 0.7031 0.1983
C3 C 0.5140(18) 0.767(2) 0.1832(7)
H2 H 0.4296 0.7676 0.2295
H3 H 0.5000 0.6967 0.1441
C4 C 0.7709(17) 0.9909(11) 0.2506(7)
H4 H 0.6636 1.0257 0.2562
H5 H 0.8443 1.0505 0.2256
H6 H 0.8093 0.9663 0.3094
C5 C 0.6656(12) 0.5693(10) 0.5717(7)
H7 H 0.5800 0.5235 0.5956
C6 C 0.764(3) 0.8844(13) 0.1909(7)
C7 C 0.953(2) 0.820(2) 0.1822(11)
H8 H 0.9956 0.8048 0.2418
H9 H 1.0245 0.8739 0.1501
H10 H 0.9443 0.7438 0.1499
O4 O 0.5548(7) 0.7927(7) 0.3684(4)
C8 C 0.5181(16) 0.9003(15) 0.1233(11)
H11 H 0.4464 0.8968 0.0710
H12 H 0.4878 0.9695 0.1609
C9 C 0.7116(11) 0.9070(8) 0.0930(5)
C10 C 0.772(2) 0.8156(11) 0.0293(12)
H13 H 0.8867 0.8288 0.0186
H14 H 0.7135 0.8224 -0.0268
H15 H 0.7562 0.7355 0.0543
C11 C 0.7573(11) 1.0327(8) 0.0570(6)
O5 O 0.6473(7) 1.1017(5) 0.0301(4)
O6 O 0.9079(7) 1.0590(6) 0.0535(4)
Y1A Y 0.57426(8) 1.29508(6) -0.00151(6)
Y1B Y 1.07426(8) 1.20492(6) 0.00151(6)
Y1C Y 0.42574(8) 0.79508(6) 0.50151(6)
O2C O 1.1465(7) 0.8179(6) 0.4430(4)
O4C O 1.0548(7) 0.7073(7) 0.6316(4)
O5A O 0.8527(7) 0.8983(5) 0.5301(4)
O6B O 1.0921(7) 0.5590(6) 0.4465(4)
loop_
_geom_bond_atom_site_label_1
_geom_bond_atom_site_label_2
_geom_bond_site_symmetry_1
_geom_bond_site_symmetry_2
Y1 O1 1_555 1_555
O1 C1 1_555 1_555
O2 Y1 1_555 1_555
C1 C2 1_555 1_555
O3 Y1 1_555 1_555
C2 H1 1_555 1_555
C3 C2 1_555 1_555
H2 C3 1_555 1_555
H3 C3 1_555 1_555
C4 H4 1_555 1_555
H5 C4 1_555 1_555
H6 C4 1_555 1_555
C5 O2 1_555 1_555
H7 C5 1_555 1_555
C6 C2 1_555 1_555
C7 C6 1_555 1_555
H8 C7 1_555 1_555
H9 C7 1_555 1_555
H10 C7 1_555 1_555
O4 C1 1_555 1_555
C8 C3 1_555 1_555
H11 C8 1_555 1_555
H12 C8 1_555 1_555
C9 C6 1_555 1_555
C10 C9 1_555 1_555
H13 C10 1_555 1_555
H14 C10 1_555 1_555
H15 C10 1_555 1_555
C11 C9 1_555 1_555
O5 C11 1_555 1_555
O6 C11 1_555 1_555
Y1A O5 1_555 1_555
Y1B O6 1_555 1_555
Y1C O2 1_555 1_555
O2C Y1 1_555 1_555
O4C Y1 1_555 1_555
O5A Y1 1_555 1_555
O6B Y1 1_555 1_555
O3 C5 1_555 1_555
C4 C6 1_555 1_555
O4 Y1C 1_555 1_555
C8 C9 1_555 1_555

#END
