
#######################################################################
#
#                 Cambridge Crystallographic Data Centre
#                                CCDC 
#
#######################################################################
#
# If this CIF has been generated from an entry in the Cambridge 
# Structural Database, then it will include bibliographic, chemical, 
# crystal, experimental, refinement or atomic coordinate data resulting 
# from the CCDC's data processing and validation procedures.
#
#######################################################################

data_KOTJEK
_symmetry_cell_setting           orthorhombic
_symmetry_space_group_name_H-M   'P n a 21'
_symmetry_Int_Tables_number      33
_space_group_name_Hall           'P 2c -2n'
loop_
_symmetry_equiv_pos_site_id
_symmetry_equiv_pos_as_xyz
1 x,y,z
2 -x,-y,1/2+z
3 1/2+x,1/2-y,z
4 1/2-x,1/2+y,1/2+z
_cell_length_a                   10.3701(11)
_cell_length_b                   10.4148(12)
_cell_length_c                   19.057(2)
_cell_angle_alpha                90
_cell_angle_beta                 90
_cell_angle_gamma                90
_cell_volume                     2058.2
loop_
_atom_site_label
_atom_site_type_symbol
_atom_site_fract_x
_atom_site_fract_y
_atom_site_fract_z
Cu1 Cu 0.92562(12) -0.00115(10) 0.62381(8)
K1 K 0.6931(2) 0.2685(2) 0.90146(14)
H1 H 0.5006 0.5280 0.8641
H2 H 0.5323 0.4620 0.8039
C1 C 1.2627(10) -0.2992(9) 0.7809(5)
H3 H 1.3550 -0.3028 0.7776
H4 H 1.2301 -0.3818 0.7944
H5 H 1.2384 -0.2365 0.8154
C2 C 1.2076(8) -0.2625(8) 0.7114(5)
C3 C 1.1164(8) -0.1656(8) 0.7076(4)
H6 H 1.0915 -0.1241 0.7487
C4 C 1.1018(8) -0.1900(8) 0.5891(4)
C5 C 1.1933(7) -0.2870(9) 0.5937(4)
H7 H 1.2193 -0.3283 0.5528
C6 C 1.0378(8) -0.1483(8) 0.5216(4)
C7 C 0.8165(8) 0.1432(8) 0.7268(4)
C8 C 0.7499(8) 0.1880(8) 0.6613(4)
C9 C 0.6576(7) 0.2813(8) 0.6573(5)
H8 H 0.6305 0.3192 0.6990
C10 C 0.6447(8) 0.2636(8) 0.5393(5)
C11 C 0.7372(7) 0.1662(7) 0.5415(4)
H9 H 0.7624 0.1269 0.5000
C12 C 0.5965(12) 0.3092(11) 0.4705(5)
H10 H 0.5097 0.3400 0.4757
H11 H 0.5980 0.2397 0.4375
H12 H 0.6505 0.3776 0.4539
I1 I 0.96207(10) 0.48510(7) 0.85174(6)
I2 I 0.93673(9) 0.49454(6) 0.70005(5)
I3 I 0.91062(9) 0.50694(6) 0.54466(4)
N1 N 1.2449(6) -0.3228(7) 0.6542(4)
N2 N 1.0631(6) -0.1298(7) 0.6470(4)
N3 N 0.7897(6) 0.1287(6) 0.6012(3)
N4 N 0.6041(7) 0.3215(7) 0.5981(4)
O1 O 0.9397(5) -0.0744(6) 0.5292(3)
O2 O 1.0809(6) -0.1861(7) 0.4658(3)
O3 O 0.9088(5) 0.0639(6) 0.7178(3)
O4 O 0.7776(7) 0.1850(7) 0.7836(3)
O5 O 0.5365(7) 0.4572(8) 0.8491(5)
Cu1B Cu 0.42562(12) 0.50115(10) 0.62381(8)
Cu1B_2 Cu 1.42562(12) -0.49885(10) 0.62381(8)
K1A K 1.3069(2) -0.2685(2) 0.40146(14)
K1B K 1.1931(2) 0.2315(2) 0.90146(14)
K1C K 0.8069(2) -0.2315(2) 0.40146(14)
I1B I 0.46207(10) 0.01490(7) 0.85174(6)
N1B N 0.7449(6) -0.1772(7) 0.6542(4)
N4B N 1.1041(7) 0.1785(7) 0.5981(4)
O1C O 0.5603(5) 0.4256(6) 1.0292(3)
O2A O 0.9191(6) 0.1861(7) 0.9658(3)
O2C O 0.4191(6) 0.3139(7) 0.9658(3)
loop_
_geom_bond_atom_site_label_1
_geom_bond_atom_site_label_2
_geom_bond_site_symmetry_1
_geom_bond_site_symmetry_2
Cu1 N2 1_555 1_555
K1 I1 1_555 1_555
H1 O5 1_555 1_555
H2 O5 1_555 1_555
C1 H3 1_555 1_555
H4 C1 1_555 1_555
H5 C1 1_555 1_555
C2 C1 1_555 1_555
C3 C2 1_555 1_555
H6 C3 1_555 1_555
C4 C5 1_555 1_555
C5 H7 1_555 1_555
C6 C4 1_555 1_555
C7 C8 1_555 1_555
C8 C9 1_555 1_555
C9 H8 1_555 1_555
C10 C11 1_555 1_555
C11 H9 1_555 1_555
C12 C10 1_555 1_555
H10 C12 1_555 1_555
H11 C12 1_555 1_555
H12 C12 1_555 1_555
I1 I2 1_555 1_555
I2 I3 1_555 1_555
N1 C2 1_555 1_555
N2 C3 1_555 1_555
N3 Cu1 1_555 1_555
N4 C9 1_555 1_555
O1 Cu1 1_555 1_555
O2 C6 1_555 1_555
O3 Cu1 1_555 1_555
O4 K1 1_555 1_555
O5 K1 1_555 1_555
Cu1B N4 1_555 1_555
Cu1B_2 N1 1_555 1_555
K1A O2 1_555 1_555
K1B I1 1_555 1_555
K1C O1 1_555 1_555
I1B K1 1_555 1_555
N1B Cu1 1_555 1_555
N4B Cu1 1_555 1_555
O1C K1 1_555 1_555
O2A K1 1_555 1_555
O2C K1 1_555 1_555
C4 N2 1_555 1_555
C5 N1 1_555 1_555
C6 O1 1_555 1_555
C7 O3 1_555 1_555
C7 O4 1_555 1_555
C8 N3 1_555 1_555
C10 N4 1_555 1_555
C11 N3 1_555 1_555
O2 K1C 1_555 1_555
K1B O2A 1_555 1_555

#END
