
#######################################################################
#
#                 Cambridge Crystallographic Data Centre
#                                CCDC 
#
#######################################################################
#
# If this CIF has been generated from an entry in the Cambridge 
# Structural Database, then it will include bibliographic, chemical, 
# crystal, experimental, refinement or atomic coordinate data resulting 
# from the CCDC's data processing and validation procedures.
#
#######################################################################

data_KOTJIO
_symmetry_cell_setting           monoclinic
_symmetry_space_group_name_H-M   'P 21/c'
_symmetry_Int_Tables_number      14
_space_group_name_Hall           '-P 2ybc'
loop_
_symmetry_equiv_pos_site_id
_symmetry_equiv_pos_as_xyz
1 x,y,z
2 -x,1/2+y,1/2-z
3 -x,-y,-z
4 x,1/2-y,1/2+z
_cell_length_a                   10.7114(9)
_cell_length_b                   10.1716(8)
_cell_length_c                   19.7357(16)
_cell_angle_alpha                90
_cell_angle_beta                 100.3470(10)
_cell_angle_gamma                90
_cell_volume                     2115.28
loop_
_atom_site_label
_atom_site_type_symbol
_atom_site_fract_x
_atom_site_fract_y
_atom_site_fract_z
Cu1 Cu 0.74789(6) 0.15786(6) 0.24834(3)
K1 K 0.31016(13) -0.06285(15) 0.00346(7)
C1 C 0.8713(5) 0.3187(5) 0.3508(2)
C2 C 0.9245(4) 0.3573(5) 0.2886(2)
C3 C 1.0168(5) 0.4516(5) 0.2870(3)
H1 H 1.0504 0.4953 0.3275
C4 C 1.0076(4) 0.4179(5) 0.1717(2)
C5 C 0.9177(5) 0.3203(5) 0.1729(3)
H2 H 0.8855 0.2751 0.1325
C6 C 1.0489(5) 0.4538(5) 0.1063(3)
H3 H 1.1384 0.4712 0.1150
H4 H 1.0040 0.5309 0.0873
H5 H 1.0309 0.3824 0.0742
C7 C 0.6014(4) 0.0155(5) 0.1451(2)
C8 C 0.5590(4) -0.0279(5) 0.2098(2)
C9 C 0.4665(4) -0.1215(5) 0.2125(3)
H6 H 0.4305 -0.1638 0.1720
C10 C 0.4812(5) -0.0895(5) 0.3274(2)
C11 C 0.5755(5) 0.0032(5) 0.3259(2)
H7 H 0.6120 0.0452 0.3665
C12 C 0.4402(5) -0.1228(6) 0.3948(3)
H8 H 0.3500 -0.1358 0.3871
H9 H 0.4626 -0.0519 0.4268
H10 H 0.4821 -0.2018 0.4134
H11 H 0.254(14) -0.395(10) -0.006(6)
I1 I 0.26067(4) 0.33056(4) -0.32032(2)
I2 I 0.24883(4) 0.31646(4) -0.17440(2)
I3 I 0.24023(5) 0.29437(5) -0.02635(3)
N1 N 1.0596(4) 0.4825(4) 0.2295(2)
N2 N 0.8765(4) 0.2899(4) 0.2312(2)
N3 N 0.6148(4) 0.0334(4) 0.26763(19)
N4 N 0.4263(4) -0.1539(4) 0.2705(2)
O1 O 0.7908(3) 0.2245(3) 0.34220(16)
O2 O 0.9045(4) 0.3775(4) 0.40537(19)
O3 O 0.6979(3) 0.0925(3) 0.15400(15)
O4 O 0.5418(3) -0.0188(4) 0.08860(17)
O5 O 0.0601(4) -0.1046(4) -0.05183(18)
H12 H 0.0376 -0.1380 -0.0164
H13 H 0.0029 -0.0471 -0.0642
O6 O 0.2701(6) -0.3313(6) 0.0217(3)
H14 H 0.2380 -0.3151 0.0571
Cu1A Cu 0.25211(6) -0.34214(6) 0.25166(3)
Cu1A_2 Cu 1.25211(6) 0.65786(6) 0.25166(3)
K1A K 0.68984(13) 0.43715(15) 0.49654(7)
K1B K 0.68984(13) 0.06285(15) -0.00346(7)
N1A N 0.9404(4) -0.0175(4) 0.2705(2)
N4A N 0.5737(4) 0.3461(4) 0.2295(2)
O2A O 0.0955(4) -0.1225(4) 0.09463(19)
O3B O 0.3021(3) -0.0925(3) -0.15400(15)
O4B O 0.4582(3) 0.0188(4) -0.08860(17)
loop_
_geom_bond_atom_site_label_1
_geom_bond_atom_site_label_2
_geom_bond_site_symmetry_1
_geom_bond_site_symmetry_2
Cu1 N2 1_555 1_555
K1 I3 1_555 1_555
C1 C2 1_555 1_555
C2 C3 1_555 1_555
C3 H1 1_555 1_555
C4 C5 1_555 1_555
C5 H2 1_555 1_555
C6 C4 1_555 1_555
H3 C6 1_555 1_555
H4 C6 1_555 1_555
H5 C6 1_555 1_555
C7 C8 1_555 1_555
C8 C9 1_555 1_555
C9 H6 1_555 1_555
C10 C11 1_555 1_555
C11 H7 1_555 1_555
C12 C10 1_555 1_555
H8 C12 1_555 1_555
H9 C12 1_555 1_555
H10 C12 1_555 1_555
H11 O6 1_555 1_555
I1 I2 1_555 1_555
I2 I3 1_555 1_555
N1 C3 1_555 1_555
N2 C2 1_555 1_555
N3 Cu1 1_555 1_555
N4 C9 1_555 1_555
O1 Cu1 1_555 1_555
O2 C1 1_555 1_555
O3 Cu1 1_555 1_555
O4 K1 1_555 1_555
O5 K1 1_555 1_555
H12 O5 1_555 1_555
H13 O5 1_555 1_555
O6 K1 1_555 1_555
H14 O6 1_555 1_555
Cu1A N4 1_555 1_555
Cu1A_2 N1 1_555 1_555
K1A O2 1_555 1_555
K1B O3 1_555 1_555
N1A Cu1 1_555 1_555
N4A Cu1 1_555 1_555
O2A K1 1_555 1_555
O3B K1 1_555 1_555
O4B K1 1_555 1_555
C1 O1 1_555 1_555
C4 N1 1_555 1_555
C5 N2 1_555 1_555
C7 O3 1_555 1_555
C7 O4 1_555 1_555
C8 N3 1_555 1_555
C10 N4 1_555 1_555
C11 N3 1_555 1_555
O4 K1B 1_555 1_555
K1B O4B 1_555 1_555

#END
