
#######################################################################
#
#                 Cambridge Crystallographic Data Centre
#                                CCDC 
#
#######################################################################
#
# If this CIF has been generated from an entry in the Cambridge 
# Structural Database, then it will include bibliographic, chemical, 
# crystal, experimental, refinement or atomic coordinate data resulting 
# from the CCDC's data processing and validation procedures.
#
#######################################################################

data_KOTRUI
_symmetry_cell_setting           monoclinic
_symmetry_space_group_name_H-M   'C 2/c'
_symmetry_Int_Tables_number      15
_space_group_name_Hall           '-C 2yn'
loop_
_symmetry_equiv_pos_site_id
_symmetry_equiv_pos_as_xyz
1 x,y,z
2 -x,y,1/2-z
3 1/2+x,1/2+y,z
4 1/2-x,1/2+y,1/2-z
5 -x,-y,-z
6 x,-y,1/2+z
7 1/2-x,1/2-y,-z
8 1/2+x,1/2-y,1/2+z
_cell_length_a                   20.332(2)
_cell_length_b                   10.0941(11)
_cell_length_c                   32.682(4)
_cell_angle_alpha                90
_cell_angle_beta                 96.688(2)
_cell_angle_gamma                90
_cell_volume                     6661.79
loop_
_atom_site_label
_atom_site_type_symbol
_atom_site_fract_x
_atom_site_fract_y
_atom_site_fract_z
N1 N 0.52248(19) 0.7188(4) 0.93247(12)
C1 C 0.4841(2) 0.6170(5) 0.94134(15)
C2 C 0.5036(2) 0.7855(5) 0.89732(15)
C3 C 0.4485(3) 0.7490(5) 0.87075(16)
C4 C 0.4294(2) 0.5760(6) 0.91583(16)
C5 C 0.4119(2) 0.6411(5) 0.87908(14)
C6 C 0.3539(2) 0.5951(5) 0.85038(14)
C7 C 0.3065(3) 0.6828(6) 0.83362(16)
C8 C 0.2508(3) 0.6395(6) 0.80898(16)
C9 C 0.3464(3) 0.4630(5) 0.84009(16)
C10 C 0.2915(3) 0.4182(6) 0.81468(17)
C11 C 0.2431(3) 0.5067(5) 0.79977(15)
O1 O 0.16967(16) -0.1006(3) 0.45243(11)
C12 C 0.1490(2) 0.0056(4) 0.46783(15)
C13 C 0.1766(2) 0.7389(4) 0.54820(15)
H1 H 0.2095 0.7846 0.5365
C14 C 0.1882(2) 0.7027(5) 0.58917(14)
H2 H 0.2280 0.7252 0.6046
C15 C 0.1409(2) 0.6331(4) 0.60729(13)
C16 C 0.0816(2) 0.6062(5) 0.58298(14)
H3 H 0.0475 0.5625 0.5941
C17 C 0.0736(2) 0.6450(5) 0.54197(14)
H4 H 0.0342 0.6241 0.5259
C18 C 0.1522(2) 0.5888(5) 0.65065(14)
C19 C 0.2157(2) 0.5605(5) 0.66979(15)
H5 H 0.2518 0.5689 0.6549
C20 C 0.2259(3) 0.5205(5) 0.71025(15)
H6 H 0.2687 0.5025 0.7222
C21 C 0.1744(3) 0.5068(5) 0.73315(15)
C22 C 0.1114(3) 0.5339(6) 0.71477(16)
H7 H 0.0757 0.5249 0.7300
C23 C 0.1003(2) 0.5740(5) 0.67421(14)
H8 H 0.0573 0.5915 0.6625
C24 C 0.1529(3) 0.3447(6) 0.78621(14)
C25 C 0.1506(3) 0.3144(6) 0.82740(15)
H9 H 0.1656 0.3759 0.8475
C26 C 0.1264(3) 0.1944(6) 0.83883(16)
H10 H 0.1264 0.1756 0.8667
C27 C 0.1018(3) 0.0998(6) 0.80966(16)
C28 C 0.1014(3) 0.1346(6) 0.76865(18)
H11 H 0.0838 0.0757 0.7484
C29 C 0.1261(3) 0.2531(6) 0.75708(18)
H12 H 0.1250 0.2729 0.7292
C30 C 0.0818(3) -0.0328(7) 0.82207(19)
C31 C 0.0649(4) -0.0630(8) 0.8603(2)
H13 H 0.0658 0.0041 0.8798
C32 C 0.0465(4) -0.1884(9) 0.8711(3)
H14 H 0.0318 -0.1993 0.8968
C33 C 0.0846(4) -0.1480(7) 0.7989(2)
H15 H 0.0979 -0.1413 0.7727
H16 H 0.4957 0.5693 0.9664
H17 H 0.4063 0.5011 0.9235
H18 H 0.4378 0.7948 0.8474
H19 H 0.5295 0.8550 0.8912
H20 H 0.3800 0.3999 0.8508
H21 H 0.2893 0.3258 0.8082
H22 H 0.2196 0.6966 0.7993
H23 H 0.3137 0.7695 0.8392
C34 C 0.1744(2) 0.3691(4) 0.44702(14)
C35 C 0.2380(2) 0.3672(5) 0.43550(16)
H24 H 0.2575 0.4459 0.4283
C36 C 0.2725(3) 0.2499(5) 0.43465(19)
H25 H 0.3154 0.2501 0.4274
C37 C 0.2436(3) 0.1324(5) 0.44447(16)
H26 H 0.2662 0.0529 0.4426
C38 C 0.1813(2) 0.1326(4) 0.45707(14)
C39 C 0.1474(3) 0.2505(4) 0.45859(15)
H27 H 0.1057 0.2506 0.4676
C40 C 0.1355(3) 0.4944(5) 0.44842(15)
C41 C 0.0687(5) -0.2728(8) 0.8129(3)
H28 H 0.0731 -0.3451 0.7959
N2 N 0.1844(2) 0.4614(5) 0.77509(13)
N3 N 0.11991(18) 0.7109(4) 0.52458(11)
N4 N 0.0484(4) -0.2937(8) 0.8476(3)
O2 O 0.16452(19) 0.6029(3) 0.44123(11)
O3 O 0.07839(19) 0.4918(3) 0.45785(13)
O4 O 0.10373(18) 0.0067(3) 0.49014(11)
Zn1 Zn 0.11396(3) 0.74747(5) 0.463496(15)
N1G N 0.02248(19) 0.7812(4) 0.43247(12)
O1_2 O 0.16967(16) 0.8994(3) 0.45243(11)
Zn1_2 Zn 0.11396(3) -0.25253(5) 0.463496(15)
Zn1G Zn 0.61396(3) 0.75253(5) 0.963496(15)
loop_
_geom_bond_atom_site_label_1
_geom_bond_atom_site_label_2
_geom_bond_site_symmetry_1
_geom_bond_site_symmetry_2
N1 C1 1_555 1_555
C1 C4 1_555 1_555
C2 N1 1_555 1_555
C3 C2 1_555 1_555
C4 C5 1_555 1_555
C5 C3 1_555 1_555
C6 C5 1_555 1_555
C7 C6 1_555 1_555
C8 C7 1_555 1_555
C9 C6 1_555 1_555
C10 C9 1_555 1_555
C11 C8 1_555 1_555
O1 C12 1_555 1_555
C12 C38 1_555 1_555
C13 H1 1_555 1_555
C14 C13 1_555 1_555
H2 C14 1_555 1_555
C15 C14 1_555 1_555
C16 C15 1_555 1_555
H3 C16 1_555 1_555
C17 C16 1_555 1_555
H4 C17 1_555 1_555
C18 C15 1_555 1_555
C19 C18 1_555 1_555
H5 C19 1_555 1_555
C20 C19 1_555 1_555
H6 C20 1_555 1_555
C21 C20 1_555 1_555
C22 C21 1_555 1_555
H7 C22 1_555 1_555
C23 C18 1_555 1_555
H8 C23 1_555 1_555
C24 C25 1_555 1_555
C25 H9 1_555 1_555
C26 C25 1_555 1_555
H10 C26 1_555 1_555
C27 C26 1_555 1_555
C28 C27 1_555 1_555
H11 C28 1_555 1_555
C29 C24 1_555 1_555
H12 C29 1_555 1_555
C30 C27 1_555 1_555
C31 C30 1_555 1_555
H13 C31 1_555 1_555
C32 C31 1_555 1_555
H14 C32 1_555 1_555
C33 C30 1_555 1_555
H15 C33 1_555 1_555
H16 C1 1_555 1_555
H17 C4 1_555 1_555
H18 C3 1_555 1_555
H19 C2 1_555 1_555
H20 C9 1_555 1_555
H21 C10 1_555 1_555
H22 C8 1_555 1_555
H23 C7 1_555 1_555
C34 C35 1_555 1_555
C35 H24 1_555 1_555
C36 C35 1_555 1_555
H25 C36 1_555 1_555
C37 C36 1_555 1_555
H26 C37 1_555 1_555
C38 C37 1_555 1_555
C39 C34 1_555 1_555
H27 C39 1_555 1_555
C40 C34 1_555 1_555
C41 C33 1_555 1_555
H28 C41 1_555 1_555
N2 C11 1_555 1_555
N3 C13 1_555 1_555
N4 C32 1_555 1_555
O2 C40 1_555 1_555
O3 C40 1_555 1_555
O4 C12 1_555 1_555
Zn1 N3 1_555 1_555
N1G Zn1 1_555 1_555
O1_2 Zn1 1_555 1_555
Zn1_2 O1 1_555 1_555
Zn1G N1 1_555 1_555
C10 C11 1_555 1_555
C17 N3 1_555 1_555
C21 N2 1_555 1_555
C22 C23 1_555 1_555
C24 N2 1_555 1_555
C28 C29 1_555 1_555
C38 C39 1_555 1_555
C41 N4 1_555 1_555
O2 Zn1 1_555 1_555

#END
