
#######################################################################
#
#                 Cambridge Crystallographic Data Centre
#                                CCDC 
#
#######################################################################
#
# If this CIF has been generated from an entry in the Cambridge 
# Structural Database, then it will include bibliographic, chemical, 
# crystal, experimental, refinement or atomic coordinate data resulting 
# from the CCDC's data processing and validation procedures.
#
#######################################################################

data_KOTROC
_symmetry_cell_setting           monoclinic
_symmetry_space_group_name_H-M   'P 21/c'
_symmetry_Int_Tables_number      14
_space_group_name_Hall           '-P 2ybc'
loop_
_symmetry_equiv_pos_site_id
_symmetry_equiv_pos_as_xyz
1 x,y,z
2 -x,1/2+y,1/2-z
3 -x,-y,-z
4 x,1/2-y,1/2+z
_cell_length_a                   13.328(3)
_cell_length_b                   14.147(3)
_cell_length_c                   9.6681(19)
_cell_angle_alpha                90
_cell_angle_beta                 101.46(3)
_cell_angle_gamma                90
_cell_volume                     1786.59
loop_
_atom_site_label
_atom_site_type_symbol
_atom_site_fract_x
_atom_site_fract_y
_atom_site_fract_z
Cu1 Cu 1.06166(5) 0.09313(5) 0.90187(7)
Cl1 Cl 1.09284(12) -0.06702(11) 0.94079(15)
Cl2 Cl 1.03046(15) 0.24889(12) 0.86728(18)
N1 N 0.8660(4) 0.0871(4) 0.5114(5)
N2 N 0.8664(4) -0.0075(4) 0.5351(6)
N3 N 0.9727(4) 0.0672(3) 0.7118(5)
N4 N 0.2970(4) 0.1136(4) 0.2531(5)
N5 N 0.2884(4) 0.2080(4) 0.2243(7)
N6 N 0.1766(4) 0.1255(4) 0.0652(5)
C1 C 0.9295(5) 0.1303(5) 0.6161(6)
H1 H 0.9418 0.1950 0.6216
C2 C 0.9318(5) -0.0162(4) 0.6559(6)
H2 H 0.9486 -0.0743 0.6995
C3 C 0.8025(5) 0.1295(5) 0.3844(6)
H3 H 0.8198 0.1007 0.3012
H4 H 0.8177 0.1965 0.3822
C4 C 0.6881(4) 0.1166(4) 0.3805(6)
C5 C 0.6349(5) 0.0433(4) 0.3003(6)
C6 C 0.5305(5) 0.0333(4) 0.2961(6)
C7 C 0.4804(4) 0.0947(4) 0.3742(6)
C8 C 0.5336(5) 0.1695(5) 0.4523(6)
C9 C 0.6389(5) 0.1798(4) 0.4555(6)
C10 C 0.6974(5) 0.2587(5) 0.5422(8)
H5 H 0.7661 0.2607 0.5259
H6 H 0.6991 0.2474 0.6406
H7 H 0.6642 0.3179 0.5152
C11 C 0.4779(6) 0.2399(5) 0.5292(8)
H8 H 0.4104 0.2508 0.4749
H9 H 0.5151 0.2984 0.5413
H10 H 0.4731 0.2149 0.6200
C12 C 0.4697(5) -0.0439(5) 0.2065(7)
H11 H 0.4523 -0.0234 0.1101
H12 H 0.4082 -0.0567 0.2407
H13 H 0.5104 -0.1004 0.2123
C13 C 0.6886(5) -0.0261(5) 0.2208(7)
H14 H 0.6546 -0.0862 0.2159
H15 H 0.7585 -0.0333 0.2690
H16 H 0.6869 -0.0029 0.1270
C14 C 0.3684(5) 0.0783(5) 0.3783(7)
H17 H 0.3572 0.0111 0.3874
H18 H 0.3532 0.1091 0.4614
C15 C 0.2308(5) 0.0663(5) 0.1582(6)
H19 H 0.2231 0.0009 0.1566
C16 C 0.2145(5) 0.2107(5) 0.1134(7)
H20 H 0.1895 0.2671 0.0706
Cu1_2 Cu 0.06166(5) 0.09313(5) -0.09813(7)
Cu1B Cu 0.93834(5) -0.09313(5) 1.09813(7)
Cl1B Cl 0.90716(12) 0.06702(11) 1.05921(15)
N6_2 N 1.1766(4) 0.1255(4) 1.0652(5)
loop_
_geom_bond_atom_site_label_1
_geom_bond_atom_site_label_2
_geom_bond_site_symmetry_1
_geom_bond_site_symmetry_2
Cu1 Cl1 1_555 1_555
Cl1 Cu1B 1_555 1_555
Cl2 Cu1 1_555 1_555
N1 N2 1_555 1_555
N2 C2 1_555 1_555
N3 Cu1 1_555 1_555
N4 N5 1_555 1_555
N5 C16 1_555 1_555
N6 C15 1_555 1_555
C1 N1 1_555 1_555
H1 C1 1_555 1_555
C2 N3 1_555 1_555
H2 C2 1_555 1_555
C3 N1 1_555 1_555
H3 C3 1_555 1_555
H4 C3 1_555 1_555
C4 C3 1_555 1_555
C5 C4 1_555 1_555
C6 C5 1_555 1_555
C7 C6 1_555 1_555
C8 C7 1_555 1_555
C9 C4 1_555 1_555
C10 C9 1_555 1_555
H5 C10 1_555 1_555
H6 C10 1_555 1_555
H7 C10 1_555 1_555
C11 C8 1_555 1_555
H8 C11 1_555 1_555
H9 C11 1_555 1_555
H10 C11 1_555 1_555
C12 C6 1_555 1_555
H11 C12 1_555 1_555
H12 C12 1_555 1_555
H13 C12 1_555 1_555
C13 C5 1_555 1_555
H14 C13 1_555 1_555
H15 C13 1_555 1_555
H16 C13 1_555 1_555
C14 N4 1_555 1_555
H17 C14 1_555 1_555
H18 C14 1_555 1_555
C15 N4 1_555 1_555
H19 C15 1_555 1_555
C16 N6 1_555 1_555
H20 C16 1_555 1_555
Cu1_2 N6 1_555 1_555
Cu1B Cl1B 1_555 1_555
Cl1B Cu1 1_555 1_555
N6_2 Cu1 1_555 1_555
N3 C1 1_555 1_555
C7 C14 1_555 1_555
C8 C9 1_555 1_555

#END
