
#######################################################################
#
#                 Cambridge Crystallographic Data Centre
#                                CCDC 
#
#######################################################################
#
# If this CIF has been generated from an entry in the Cambridge 
# Structural Database, then it will include bibliographic, chemical, 
# crystal, experimental, refinement or atomic coordinate data resulting 
# from the CCDC's data processing and validation procedures.
#
#######################################################################

data_KOTRIW
_symmetry_cell_setting           hexagonal
_symmetry_space_group_name_H-M   'P 65'
_symmetry_Int_Tables_number      170
_space_group_name_Hall           'P 65'
loop_
_symmetry_equiv_pos_site_id
_symmetry_equiv_pos_as_xyz
1 x,y,z
2 -y,x-y,2/3+z
3 -x+y,-x,1/3+z
4 -x,-y,1/2+z
5 y,-x+y,1/6+z
6 x-y,x,5/6+z
_cell_length_a                   10.982
_cell_length_b                   10.982
_cell_length_c                   21.3443(3)
_cell_angle_alpha                90
_cell_angle_beta                 90
_cell_angle_gamma                120
_cell_volume                     2229.34
loop_
_atom_site_label
_atom_site_type_symbol
_atom_site_fract_x
_atom_site_fract_y
_atom_site_fract_z
Nd1 Nd 0.96715(3) 0.77482(3) 0.49960(2)
O1 O 1.1570(5) 1.0241(5) 0.5370(2)
O2 O 0.7395(5) 0.7422(6) 0.4831(2)
O3 O 1.0992(6) 0.7607(6) 0.5974(2)
H1 H 1.0777 0.7911 0.6280
C1 C 0.6325(7) 0.7059(7) 0.5166(2)
C2 C 1.0785(6) 1.0362(7) 0.5760(3)
C3 C 0.4905(6) 0.6405(6) 0.4838(3)
H2 H 0.4931 0.5795 0.4510
C4 C 0.4674(7) 0.7501(8) 0.4503(3)
C5 C 0.5110(10) 0.8776(9) 0.4928(7)
H3 H 0.6114 0.9276 0.4978
H4 H 0.4672 0.8464 0.5331
H5 H 0.4818 0.9386 0.4744
C6 C 0.2538(8) 0.5872(10) 0.5027(5)
H6 H 0.1643 0.5023 0.4959
H7 H 0.2413 0.6429 0.5346
C7 C 0.3678(8) 0.5480(10) 0.5248(4)
H8 H 0.3906 0.5696 0.5688
H9 H 0.3360 0.4494 0.5176
C8 C 1.1289(9) 1.1692(7) 0.6126(4)
H10 H 1.2020 1.1807 0.6409
H11 H 1.0521 1.1646 0.6361
H12 H 1.1651 1.2477 0.5844
C9 C 0.5497(11) 0.8019(15) 0.3892(4)
H13 H 0.6486 0.8503 0.3981
H14 H 0.5257 0.8650 0.3687
H15 H 0.5265 0.7232 0.3623
C10 C 0.3039(6) 0.6699(7) 0.4426(3)
C11 C 0.2505(7) 0.7684(8) 0.4274(3)
C12 C 0.2628(12) 0.5644(10) 0.3878(4)
H16 H 0.1625 0.5144 0.3829
H17 H 0.2942 0.4988 0.3967
H18 H 0.3061 0.6144 0.3499
O4 O 0.2755(7) 0.8239(7) 0.3759(3)
O5 O 0.1823(6) 0.7950(7) 0.4686(3)
O6 O 0.9532(5) 0.9345(4) 0.5838(2)
O7 O 0.6373(5) 0.7233(6) 0.5744(2)
Nd1_2 Nd -0.03285(3) 0.77482(3) 0.49960(2)
Nd1D Nd 0.77482(3) 0.80767(4) 0.66627(2)
Nd1E Nd 0.19233(4) 0.96715(3) 0.33293(2)
O4D O 0.8239(7) 0.5484(10) 0.5426(3)
O5_2 O 1.1823(6) 0.7950(7) 0.4686(3)
O6E O 1.0187(6) 0.9532(5) 0.4171(2)
O7E O 0.9140(8) 0.6373(5) 0.4077(2)
loop_
_geom_bond_atom_site_label_1
_geom_bond_atom_site_label_2
_geom_bond_site_symmetry_1
_geom_bond_site_symmetry_2
Nd1 O1 1_555 1_555
O1 C2 1_555 1_555
O2 Nd1 1_555 1_555
O3 Nd1 1_555 1_555
H1 O3 1_555 1_555
C1 O2 1_555 1_555
C2 C8 1_555 1_555
C3 C1 1_555 1_555
H2 C3 1_555 1_555
C4 C3 1_555 1_555
C5 C4 1_555 1_555
H3 C5 1_555 1_555
H4 C5 1_555 1_555
H5 C5 1_555 1_555
C6 H6 1_555 1_555
H7 C6 1_555 1_555
C7 C3 1_555 1_555
H8 C7 1_555 1_555
H9 C7 1_555 1_555
C8 H10 1_555 1_555
H11 C8 1_555 1_555
H12 C8 1_555 1_555
C9 C4 1_555 1_555
H13 C9 1_555 1_555
H14 C9 1_555 1_555
H15 C9 1_555 1_555
C10 C4 1_555 1_555
C11 C10 1_555 1_555
C12 C10 1_555 1_555
H16 C12 1_555 1_555
H17 C12 1_555 1_555
H18 C12 1_555 1_555
O4 C11 1_555 1_555
O5 C11 1_555 1_555
O6 Nd1 1_555 1_555
O7 C1 1_555 1_555
Nd1_2 O5 1_555 1_555
Nd1D O6 1_555 1_555
Nd1E O4 1_555 1_555
O4D Nd1 1_555 1_555
O5_2 Nd1 1_555 1_555
O6E Nd1 1_555 1_555
O7E Nd1 1_555 1_555
C2 O6 1_555 1_555
C6 C7 1_555 1_555
C6 C10 1_555 1_555
O7 Nd1D 1_555 1_555

#END
