
#######################################################################
#
#                 Cambridge Crystallographic Data Centre
#                                CCDC 
#
#######################################################################
#
# If this CIF has been generated from an entry in the Cambridge 
# Structural Database, then it will include bibliographic, chemical, 
# crystal, experimental, refinement or atomic coordinate data resulting 
# from the CCDC's data processing and validation procedures.
#
#######################################################################

data_KOTRES
_symmetry_cell_setting           hexagonal
_symmetry_space_group_name_H-M   'P 65'
_symmetry_Int_Tables_number      170
_space_group_name_Hall           'P 65'
loop_
_symmetry_equiv_pos_site_id
_symmetry_equiv_pos_as_xyz
1 x,y,z
2 -y,x-y,2/3+z
3 -x+y,-x,1/3+z
4 -x,-y,1/2+z
5 y,-x+y,1/6+z
6 x-y,x,5/6+z
_cell_length_a                   11.005
_cell_length_b                   11.005
_cell_length_c                   21.5849(2)
_cell_angle_alpha                90
_cell_angle_beta                 90
_cell_angle_gamma                120
_cell_volume                     2263.92
loop_
_atom_site_label
_atom_site_type_symbol
_atom_site_fract_x
_atom_site_fract_y
_atom_site_fract_z
La1 La 0.77426(3) -0.02999(3) 0.16015(2)
O1 O 0.7687(6) 0.1110(6) 0.06137(19)
H1 H 0.7981 0.0884 0.0312
O2 O 0.8063(7) 0.1904(6) 0.2005(3)
C1 C 0.6746(7) 0.3090(6) 0.2187(3)
C2 C 0.7494(8) 0.4715(7) 0.2099(3)
C3 C 0.7775(8) 0.2617(8) 0.2348(4)
C4 C 0.8784(9) 0.5181(10) 0.1686(6)
H2 H 0.9254 0.6180 0.1631
H3 H 0.8495 0.4729 0.1290
H4 H 0.9412 0.4926 0.1878
O3 O 0.9401(4) -0.0432(5) 0.0759(2)
O4 O 1.0306(5) 0.1595(5) 0.1232(2)
C5 C 1.0410(7) 0.0807(7) 0.0839(3)
C6 C 1.1748(7) 0.1331(8) 0.0479(3)
H5 H 1.1954 0.2175 0.0264
H6 H 1.1645 0.0630 0.0186
H7 H 1.2502 0.1522 0.0759
C7 C 0.5945(10) 0.2541(8) 0.1585(5)
H8 H 0.5120 0.1628 0.1650
H9 H 0.6533 0.2444 0.1277
C8 C 0.7943(12) 0.5537(10) 0.2704(4)
H10 H 0.8402 0.6524 0.2616
H11 H 0.8578 0.5327 0.2920
H12 H 0.7132 0.5278 0.2957
O5 O 0.8357(8) 0.2973(8) 0.2860(3)
O6 O 0.7316(6) 0.7356(5) 0.1755(2)
C9 C 0.7006(7) 0.6288(8) 0.1429(3)
C10 C 0.6377(6) 0.4882(6) 0.1754(3)
H13 H 0.5746 0.4892 0.2072
C11 C 0.5494(10) 0.3629(9) 0.1353(4)
H14 H 0.5710 0.3850 0.0917
H15 H 0.4501 0.3276 0.1419
O7 O 0.7179(6) 0.6327(6) 0.0864(2)
C12 C 0.5672(10) 0.2663(11) 0.2722(4)
H16 H 0.5201 0.1664 0.2777
H17 H 0.4996 0.2942 0.2623
H18 H 0.6152 0.3118 0.3097
La1_2 La 0.77426(3) 0.97001(3) 0.16015(2)
La1D La 0.97001(3) 0.19575(4) 0.32682(2)
La1E La 0.80425(4) -0.22574(3) -0.00652(2)
La1E_2 La 0.80425(4) 0.77426(3) -0.00652(2)
O3D O 0.9568(5) 0.0167(6) 0.2426(2)
O5E O 0.5384(11) -0.1643(8) 0.1193(3)
O6_2 O 0.7316(6) -0.2644(5) 0.1755(2)
O7D O 0.6327(6) -0.0852(8) 0.2531(2)
loop_
_geom_bond_atom_site_label_1
_geom_bond_atom_site_label_2
_geom_bond_site_symmetry_1
_geom_bond_site_symmetry_2
La1 O1 1_555 1_555
O1 H1 1_555 1_555
O2 La1 1_555 1_555
C1 C2 1_555 1_555
C2 C4 1_555 1_555
C3 O2 1_555 1_555
C4 H2 1_555 1_555
H3 C4 1_555 1_555
H4 C4 1_555 1_555
O3 La1 1_555 1_555
O4 La1 1_555 1_555
C5 O3 1_555 1_555
C6 C5 1_555 1_555
H5 C6 1_555 1_555
H6 C6 1_555 1_555
H7 C6 1_555 1_555
C7 C1 1_555 1_555
H8 C7 1_555 1_555
H9 C7 1_555 1_555
C8 C2 1_555 1_555
H10 C8 1_555 1_555
H11 C8 1_555 1_555
H12 C8 1_555 1_555
O5 C3 1_555 1_555
O6 C9 1_555 1_555
C9 C10 1_555 1_555
C10 C2 1_555 1_555
H13 C10 1_555 1_555
C11 C7 1_555 1_555
H14 C11 1_555 1_555
H15 C11 1_555 1_555
O7 C9 1_555 1_555
C12 C1 1_555 1_555
H16 C12 1_555 1_555
H17 C12 1_555 1_555
H18 C12 1_555 1_555
La1_2 O6 1_555 1_555
La1D O5 1_555 1_555
La1E O3 1_555 1_555
La1E_2 O7 1_555 1_555
O3D La1 1_555 1_555
O5E La1 1_555 1_555
O6_2 La1 1_555 1_555
O7D La1 1_555 1_555
C1 C3 1_555 1_555
O4 C5 1_555 1_555
C10 C11 1_555 1_555
La1D O3D 1_555 1_555

#END
