
#######################################################################
#
#                 Cambridge Crystallographic Data Centre
#                                CCDC 
#
#######################################################################
#
# If this CIF has been generated from an entry in the Cambridge 
# Structural Database, then it will include bibliographic, chemical, 
# crystal, experimental, refinement or atomic coordinate data resulting 
# from the CCDC's data processing and validation procedures.
#
#######################################################################

data_KOTSUJ
_symmetry_cell_setting           triclinic
_symmetry_space_group_name_H-M   'P -1'
_symmetry_Int_Tables_number      2
_space_group_name_Hall           '-P 1'
loop_
_symmetry_equiv_pos_site_id
_symmetry_equiv_pos_as_xyz
1 x,y,z
2 -x,-y,-z
_cell_length_a                   7.9002(16)
_cell_length_b                   10.020(2)
_cell_length_c                   13.153(3)
_cell_angle_alpha                101.72(3)
_cell_angle_beta                 93.69(3)
_cell_angle_gamma                91.54(3)
_cell_volume                     1016.52
loop_
_atom_site_label
_atom_site_type_symbol
_atom_site_fract_x
_atom_site_fract_y
_atom_site_fract_z
Cu1 Cu 0.0000 0.5000 0.0000
Cl1 Cl 0.32329(12) 0.62693(10) -0.03329(7)
N1 N 0.1110(3) 0.4395(2) 0.12387(16)
N2 N 0.2882(3) 0.3783(2) 0.23629(16)
N3 N 0.1347(4) 0.3702(4) 0.2739(2)
N4 N 0.0569(3) 0.3239(2) -0.09438(16)
N5 N 0.0239(3) 0.1375(2) -0.20930(15)
N6 N 0.1927(3) 0.1648(2) -0.19647(18)
C1 C 0.0334(4) 0.4103(4) 0.2037(3)
H1 H -0.0829 0.4175 0.2095
C2 C 0.2715(4) 0.4189(3) 0.1471(2)
H2 H 0.3604 0.4312 0.1064
C3 C 0.4415(4) 0.3378(3) 0.2901(2)
H3 H 0.5391 0.3491 0.2511
H4 H 0.4293 0.2422 0.2935
C4 C 0.4707(3) 0.4234(3) 0.39979(18)
C5 C 0.5586(3) 0.5484(3) 0.41521(19)
C6 C 0.6200(4) 0.6034(3) 0.3244(2)
H5 H 0.6043 0.5340 0.2621
H6 H 0.7382 0.6301 0.3378
H7 H 0.5563 0.6811 0.3158
C7 C 0.4114(3) 0.3731(3) 0.4837(2)
C8 C 0.3167(4) 0.2368(3) 0.4664(3)
H8 H 0.3911 0.1701 0.4852
H9 H 0.2775 0.2091 0.3943
H10 H 0.2213 0.2442 0.5086
C9 C 0.2063(4) 0.2784(3) -0.12635(19)
H11 H 0.3098 0.3232 -0.1011
C10 C -0.0546(4) 0.2332(3) -0.1477(2)
H12 H -0.1715 0.2357 -0.1428
C11 C -0.0525(4) 0.0156(3) -0.28122(19)
H13 H -0.1741 0.0130 -0.2747
H14 H -0.0078 -0.0649 -0.2607
C12 C -0.0200(3) 0.0104(2) -0.39433(18)
C13 C 0.0965(3) -0.0798(2) -0.44304(19)
C14 C 0.2000(4) -0.1663(4) -0.3820(2)
H15 H 0.1575 -0.2594 -0.4009
H16 H 0.1911 -0.1330 -0.3088
H17 H 0.3167 -0.1613 -0.3976
C15 C -0.1150(3) 0.0906(2) -0.45056(19)
C16 C -0.2411(4) 0.1887(3) -0.3971(2)
H18 H -0.3018 0.1458 -0.3506
H19 H -0.3198 0.2126 -0.4485
H20 H -0.1812 0.2696 -0.3583
N1A N 0.8890(3) 0.5605(2) 0.87613(16)
N2A N 0.7118(3) 0.6217(2) 0.76371(16)
N3A N 0.8653(4) 0.6298(4) 0.7261(2)
C1A C 0.9666(4) 0.5897(4) 0.7963(3)
H1A H 1.0829 0.5825 0.7905
C2A C 0.7285(4) 0.5811(3) 0.8529(2)
H2A H 0.6396 0.5688 0.8936
C3A C 0.5585(4) 0.6622(3) 0.7099(2)
H3A H 0.4609 0.6509 0.7489
H4A H 0.5707 0.7578 0.7065
C4A C 0.5293(3) 0.5766(3) 0.60021(18)
C5A C 0.4414(3) 0.4516(3) 0.58479(19)
C6A C 0.3800(4) 0.3966(3) 0.6756(2)
H5A H 0.3957 0.4660 0.7379
H6A H 0.2618 0.3699 0.6622
H7A H 0.4437 0.3189 0.6842
C7A C 0.5886(3) 0.6269(3) 0.5163(2)
C8A C 0.6833(4) 0.7632(3) 0.5336(3)
H8A H 0.6089 0.8299 0.5148
H9A H 0.7225 0.7909 0.6057
H10A H 0.7787 0.7558 0.4914
N4A N -0.0569(3) -0.3239(2) -0.90562(16)
N5A N -0.0239(3) -0.1375(2) -0.79070(15)
N6A N -0.1927(3) -0.1648(2) -0.80353(18)
C9A C -0.2063(4) -0.2784(3) -0.87365(19)
H11A H -0.3098 -0.3232 -0.8989
C10A C 0.0546(4) -0.2332(3) -0.8523(2)
H12A H 0.1715 -0.2357 -0.8572
C11A C 0.0525(4) -0.0156(3) -0.71878(19)
H13A H 0.1741 -0.0130 -0.7253
H14A H 0.0078 0.0649 -0.7393
C12A C 0.0200(3) -0.0104(2) -0.60567(18)
C13A C -0.0965(3) 0.0798(2) -0.55696(19)
C14A C -0.2000(4) 0.1663(4) -0.6180(2)
H15A H -0.1575 0.2594 -0.5991
H16A H -0.1911 0.1330 -0.6912
H17A H -0.3167 0.1613 -0.6024
C15A C 0.1150(3) -0.0906(2) -0.54944(19)
C16A C 0.2411(4) -0.1887(3) -0.6029(2)
H18A H 0.3018 -0.1458 -0.6494
H19A H 0.3198 -0.2126 -0.5515
H20A H 0.1812 -0.2696 -0.6417
Cl1A Cl -0.32329(12) 0.37307(10) 0.03329(7)
Cu1_2 Cu 0.0000 -0.5000 -1.0000
Cu1_3 Cu 1.0000 0.5000 1.0000
N1A_2 N -0.1110(3) 0.5605(2) -0.12387(16)
N4A_2 N -0.0569(3) 0.6761(2) 0.09438(16)
O1 O 0.4561(4) 0.9581(4) 0.2033(3)
H21 H 0.4380 0.8747 0.1740
H22 H 0.4452 1.0101 0.1599
loop_
_geom_bond_atom_site_label_1
_geom_bond_atom_site_label_2
_geom_bond_site_symmetry_1
_geom_bond_site_symmetry_2
Cu1 Cl1 1_555 1_555
N1 Cu1 1_555 1_555
N2 N3 1_555 1_555
N3 C1 1_555 1_555
N4 Cu1 1_555 1_555
N5 N6 1_555 1_555
N6 C9 1_555 1_555
C1 N1 1_555 1_555
H1 C1 1_555 1_555
C2 N1 1_555 1_555
H2 C2 1_555 1_555
C3 N2 1_555 1_555
H3 C3 1_555 1_555
H4 C3 1_555 1_555
C4 C3 1_555 1_555
C5 C4 1_555 1_555
C6 C5 1_555 1_555
H5 C6 1_555 1_555
H6 C6 1_555 1_555
H7 C6 1_555 1_555
C7 C4 1_555 1_555
C8 C7 1_555 1_555
H8 C8 1_555 1_555
H9 C8 1_555 1_555
H10 C8 1_555 1_555
C9 N4 1_555 1_555
H11 C9 1_555 1_555
C10 N4 1_555 1_555
H12 C10 1_555 1_555
C11 N5 1_555 1_555
H13 C11 1_555 1_555
H14 C11 1_555 1_555
C12 C11 1_555 1_555
C13 C12 1_555 1_555
C14 C13 1_555 1_555
H15 C14 1_555 1_555
H16 C14 1_555 1_555
H17 C14 1_555 1_555
C15 C12 1_555 1_555
C16 C15 1_555 1_555
H18 C16 1_555 1_555
H19 C16 1_555 1_555
H20 C16 1_555 1_555
O1 H21 1_555 1_555
H22 O1 1_555 1_555
N1A C1A 1_555 1_555
N2A N3A 1_555 1_555
N3A C1A 1_555 1_555
C1A H1A 1_555 1_555
C2A N1A 1_555 1_555
H2A C2A 1_555 1_555
C3A N2A 1_555 1_555
H3A C3A 1_555 1_555
H4A C3A 1_555 1_555
C4A C3A 1_555 1_555
C5A C7 1_555 1_555
C6A C5A 1_555 1_555
H5A C6A 1_555 1_555
H6A C6A 1_555 1_555
H7A C6A 1_555 1_555
C7A C5 1_555 1_555
C8A C7A 1_555 1_555
H8A C8A 1_555 1_555
H9A C8A 1_555 1_555
H10A C8A 1_555 1_555
N4A C9A 1_555 1_555
N5A N6A 1_555 1_555
N6A C9A 1_555 1_555
C9A H11A 1_555 1_555
C10A N4A 1_555 1_555
H12A C10A 1_555 1_555
C11A N5A 1_555 1_555
H13A C11A 1_555 1_555
H14A C11A 1_555 1_555
C12A C11A 1_555 1_555
C13A C15 1_555 1_555
C14A C13A 1_555 1_555
H15A C14A 1_555 1_555
H16A C14A 1_555 1_555
H17A C14A 1_555 1_555
C15A C13 1_555 1_555
C16A C15A 1_555 1_555
H18A C16A 1_555 1_555
H19A C16A 1_555 1_555
H20A C16A 1_555 1_555
Cl1A Cu1 1_555 1_555
Cu1_2 N4A 1_555 1_555
Cu1_3 N1A 1_555 1_555
N1A_2 Cu1 1_555 1_555
N4A_2 Cu1 1_555 1_555
N2 C2 1_555 1_555
N5 C10 1_555 1_555
N2A C2A 1_555 1_555
C4A C5A 1_555 1_555
C4A C7A 1_555 1_555
N5A C10A 1_555 1_555
C12A C13A 1_555 1_555
C12A C15A 1_555 1_555

#END
