
#######################################################################
#
#                 Cambridge Crystallographic Data Centre
#                                CCDC 
#
#######################################################################
#
# If this CIF has been generated from an entry in the Cambridge 
# Structural Database, then it will include bibliographic, chemical, 
# crystal, experimental, refinement or atomic coordinate data resulting 
# from the CCDC's data processing and validation procedures.
#
#######################################################################

data_KOTSET
_symmetry_cell_setting           monoclinic
_symmetry_space_group_name_H-M   'P 21/n'
_symmetry_Int_Tables_number      14
_space_group_name_Hall           '-P 2yn'
loop_
_symmetry_equiv_pos_site_id
_symmetry_equiv_pos_as_xyz
1 x,y,z
2 1/2-x,1/2+y,1/2-z
3 -x,-y,-z
4 1/2+x,1/2-y,1/2+z
_cell_length_a                   17.676(4)
_cell_length_b                   8.814(3)
_cell_length_c                   24.121(4)
_cell_angle_alpha                90
_cell_angle_beta                 93.010(4)
_cell_angle_gamma                90
_cell_volume                     3752.78
loop_
_atom_site_label
_atom_site_type_symbol
_atom_site_fract_x
_atom_site_fract_y
_atom_site_fract_z
C1 C 0.24166(15) 0.6294(3) 0.64086(11)
C2 C 0.19610(15) 0.7577(3) 0.64275(11)
H1 H 0.1630 0.7687 0.6712
C3 C 0.19982(15) 0.8672(3) 0.60311(10)
H2 H 0.1688 0.9523 0.6045
C4 C 0.24927(15) 0.8531(3) 0.56077(11)
C5 C 0.29561(15) 0.7260(3) 0.55842(12)
H3 H 0.3292 0.7166 0.5302
C6 C 0.29151(15) 0.6130(3) 0.59846(11)
H4 H 0.3219 0.5271 0.5969
C7 C 0.25220(14) 1.2412(3) 0.49471(10)
H5 H 0.2495 1.3414 0.5065
C8 C 0.25034(14) 1.1244(3) 0.53361(10)
H6 H 0.2467 1.1471 0.5710
C9 C 0.25398(15) 0.9736(3) 0.51645(11)
C10 C 0.26008(14) 0.9412(3) 0.46013(11)
H7 H 0.2629 0.8413 0.4480
C11 C 0.26184(15) 1.0598(3) 0.42281(12)
H8 H 0.2655 1.0385 0.3853
C12 C 0.31424(15) 0.4684(3) 0.70992(11)
C13 C 0.34698(15) 0.3340(3) 0.69313(11)
H9 H 0.3226 0.2746 0.6658
C14 C 0.41634(14) 0.2887(3) 0.71747(11)
H10 H 0.4385 0.1989 0.7062
C15 C 0.45299(14) 0.3770(3) 0.75867(11)
C16 C 0.42030(14) 0.5106(3) 0.77519(11)
H11 H 0.4449 0.5706 0.8022
C17 C 0.35027(15) 0.5554(3) 0.75130(11)
H12 H 0.3276 0.6441 0.7632
C18 C 0.64788(15) 0.2001(3) 0.78079(11)
H13 H 0.6842 0.1529 0.7602
C19 C 0.58133(14) 0.2527(3) 0.75420(11)
H14 H 0.5736 0.2420 0.7160
C20 C 0.52641(14) 0.3211(3) 0.78485(10)
C21 C 0.53969(16) 0.3389(3) 0.84180(11)
H15 H 0.5036 0.3867 0.8624
C22 C 0.60621(16) 0.2860(3) 0.86835(12)
H16 H 0.6141 0.2967 0.9066
C23 C 0.17111(13) 0.4755(3) 0.71238(10)
C24 C 0.10232(13) 0.4666(3) 0.68156(12)
H17 H 0.0996 0.4918 0.6441
C25 C 0.03793(15) 0.4197(3) 0.70718(11)
H18 H -0.0078 0.4123 0.6864
C26 C 0.04044(14) 0.3837(3) 0.76316(11)
C27 C 0.10866(13) 0.3933(3) 0.79400(10)
H19 H 0.1108 0.3692 0.8316
C28 C 0.17420(14) 0.4390(3) 0.76879(10)
H20 H 0.2199 0.4452 0.7896
C29 C -0.15239(13) 0.2093(3) 0.78118(10)
H21 H -0.1925 0.1713 0.7588
C30 C -0.08793(13) 0.2634(3) 0.75674(11)
H22 H -0.0853 0.2608 0.7184
C31 C -0.02762(15) 0.3211(3) 0.78947(11)
C32 C -0.03232(15) 0.3245(3) 0.84654(11)
H23 H 0.0076 0.3636 0.8688
C33 C -0.09673(13) 0.2694(3) 0.87084(11)
H24 H -0.0990 0.2714 0.9093
Cu1 Cu 0.254327(16) 1.38929(4) 0.381260(12)
N1 N 0.24219(11) 0.5149(2) 0.68526(9)
N2 N 0.25827(11) 1.2104(2) 0.43988(8)
N3 N 0.66080(11) 0.2172(2) 0.83747(8)
N4 N -0.15758(11) 0.2114(2) 0.83861(8)
N5 N 0.13314(14) 1.5953(3) 0.41679(10)
N6 N 0.37844(14) 1.5886(3) 0.40447(10)
O1 O 0.17675(9) 1.48531(19) 0.42940(7)
O2 O 0.08077(12) 1.6311(2) 0.44709(9)
O3 O 0.13841(11) 1.6619(2) 0.37117(7)
O4 O 0.33823(9) 1.4972(2) 0.42975(7)
O5 O 0.35150(12) 1.6535(2) 0.36246(8)
O6 O 0.44627(12) 1.6119(2) 0.42142(9)
O7 O 0.24859(9) 1.56355(19) 0.32301(7)
H25 H 0.2627 1.6579 0.3405
H26 H 0.1978 1.5710 0.3071
Cu1C Cu -0.245673(16) 0.11071(4) 0.881260(12)
Cu1C_2 Cu 0.754327(16) 0.11071(4) 0.881260(12)
N3C N 0.16080(11) 1.2828(2) 0.33747(8)
N4C N 0.34242(11) 1.2886(2) 0.33861(8)
O8 O 0.9849(3) 0.9431(6) 0.5025(3)
H27 H 0.9397 0.9239 0.5109
H28 H 1.0057 0.8621 0.4918
O9 O 0.0000 0.0000 0.0000
H29 H -0.0361 0.0638 -0.0011
H29B H 0.0361 -0.0638 0.0011
O10 O 0.98185(12) 0.3819(2) 0.05737(9)
H30 H 1.0076 0.3662 0.0876
H31 H 0.9994 0.3283 0.0317
O11? O 0.6359(3) 0.2014(6) 0.0890(2)
H32? H 0.5888 0.1864 0.0825
H33? H 0.6605 0.1597 0.0638
H34? H 0.0376 0.0360 0.0192
loop_
_geom_bond_atom_site_label_1
_geom_bond_atom_site_label_2
_geom_bond_site_symmetry_1
_geom_bond_site_symmetry_2
C1 C2 1_555 1_555
C2 H1 1_555 1_555
C3 C2 1_555 1_555
H2 C3 1_555 1_555
C4 C3 1_555 1_555
C5 C4 1_555 1_555
H3 C5 1_555 1_555
C6 C1 1_555 1_555
H4 C6 1_555 1_555
C7 H5 1_555 1_555
C8 C7 1_555 1_555
H6 C8 1_555 1_555
C9 C4 1_555 1_555
C10 C9 1_555 1_555
H7 C10 1_555 1_555
C11 C10 1_555 1_555
H8 C11 1_555 1_555
C12 C13 1_555 1_555
C13 H9 1_555 1_555
C14 C13 1_555 1_555
H10 C14 1_555 1_555
C15 C14 1_555 1_555
C16 C15 1_555 1_555
H11 C16 1_555 1_555
C17 C12 1_555 1_555
H12 C17 1_555 1_555
C18 H13 1_555 1_555
C19 C18 1_555 1_555
H14 C19 1_555 1_555
C20 C15 1_555 1_555
C21 C20 1_555 1_555
H15 C21 1_555 1_555
C22 C21 1_555 1_555
H16 C22 1_555 1_555
C23 C24 1_555 1_555
C24 H17 1_555 1_555
C25 C24 1_555 1_555
H18 C25 1_555 1_555
C26 C25 1_555 1_555
C27 C26 1_555 1_555
H19 C27 1_555 1_555
C28 C23 1_555 1_555
H20 C28 1_555 1_555
C29 H21 1_555 1_555
C30 C29 1_555 1_555
H22 C30 1_555 1_555
C31 C26 1_555 1_555
C32 C31 1_555 1_555
H23 C32 1_555 1_555
C33 C32 1_555 1_555
H24 C33 1_555 1_555
Cu1 N2 1_555 1_555
N1 C1 1_555 1_555
N2 C7 1_555 1_555
N3 C18 1_555 1_555
N4 C29 1_555 1_555
N5 O1 1_555 1_555
N6 O4 1_555 1_555
O1 Cu1 1_555 1_555
O2 N5 1_555 1_555
O3 N5 1_555 1_555
O4 Cu1 1_555 1_555
O5 N6 1_555 1_555
O6 N6 1_555 1_555
O7 Cu1 1_555 1_555
H25 O7 1_555 1_555
H26 O7 1_555 1_555
O8 H27 1_555 1_555
H28 O8 1_555 1_555
O9 H29 1_555 1_555
O10 H30 1_555 1_555
H31 O10 1_555 1_555
Cu1C N4 1_555 1_555
Cu1C_2 N3 1_555 1_555
N3C Cu1 1_555 1_555
N4C Cu1 1_555 1_555
H29B O9 1_555 1_555
C5 C6 1_555 1_555
C8 C9 1_555 1_555
C11 N2 1_555 1_555
C12 N1 1_555 1_555
C16 C17 1_555 1_555
C19 C20 1_555 1_555
C22 N3 1_555 1_555
C23 N1 1_555 1_555
C27 C28 1_555 1_555
C30 C31 1_555 1_555
C33 N4 1_555 1_555

#END
