
#######################################################################
#
#                 Cambridge Crystallographic Data Centre
#                                CCDC 
#
#######################################################################
#
# If this CIF has been generated from an entry in the Cambridge 
# Structural Database, then it will include bibliographic, chemical, 
# crystal, experimental, refinement or atomic coordinate data resulting 
# from the CCDC's data processing and validation procedures.
#
#######################################################################

data_KOTTEU
_symmetry_cell_setting           monoclinic
_symmetry_space_group_name_H-M   'P 21/c'
_symmetry_Int_Tables_number      14
_space_group_name_Hall           '-P 2ybc'
loop_
_symmetry_equiv_pos_site_id
_symmetry_equiv_pos_as_xyz
1 x,y,z
2 -x,1/2+y,1/2-z
3 -x,-y,-z
4 x,1/2-y,1/2+z
_cell_length_a                   6.0706(12)
_cell_length_b                   17.914(4)
_cell_length_c                   21.750(4)
_cell_angle_alpha                90
_cell_angle_beta                 93.54(3)
_cell_angle_gamma                90
_cell_volume                     2360.77
loop_
_atom_site_label
_atom_site_type_symbol
_atom_site_fract_x
_atom_site_fract_y
_atom_site_fract_z
Zn1 Zn 0.05847(4) 0.92079(2) 0.31918(2)
C1 C -0.1698(3) 0.93378(11) 0.43514(10)
H1 H -0.2775 0.9577 0.4101
C2 C -0.2010(4) 0.92626(12) 0.49689(10)
H2 H -0.3260 0.9459 0.5135
C3 C -0.0443(4) 0.88922(12) 0.53366(10)
H3 H -0.0637 0.8830 0.5754
C4 C 0.1426(3) 0.86114(11) 0.50832(9)
C5 C 0.1642(3) 0.87254(11) 0.44631(9)
H4 H 0.2905 0.8551 0.4289
C6 C 0.3145(4) 0.82046(12) 0.54820(9)
H5 H 0.4008 0.8559 0.5734
H6 H 0.2437 0.7862 0.5753
C7 C 0.6189(4) 0.73840(11) 0.53915(9)
C8 C 0.6466(4) 0.72967(12) 0.60222(10)
H7 H 0.5529 0.7535 0.6282
C9 C 0.8166(4) 0.68480(13) 0.62595(11)
H8 H 0.8374 0.6788 0.6684
C10 C 0.9550(4) 0.64899(14) 0.58831(11)
H9 H 1.0678 0.6187 0.6050
C11 C 0.9252(4) 0.65839(13) 0.52491(10)
C12 C 0.7594(4) 0.70389(12) 0.50010(10)
H10 H 0.7420 0.7113 0.4578
C13 C 1.0801(4) 0.63360(14) 0.42775(11)
H11 H 1.1290 0.6845 0.4220
H12 H 0.9366 0.6274 0.4062
C14 C 1.2434(4) 0.57941(12) 0.40348(10)
C15 C 1.2035(4) 0.54481(13) 0.34751(10)
H13 H 1.0704 0.5548 0.3255
C16 C 1.5836(4) 0.51371(16) 0.41171(12)
H14 H 1.7157 0.5014 0.4333
C17 C 1.5304(4) 0.48343(14) 0.35481(11)
H15 H 1.6307 0.4512 0.3380
C18 C 1.4388(4) 0.56246(14) 0.43619(12)
H16 H 1.4720 0.5840 0.4746
C19 C 0.2979(4) 0.80707(11) 0.29104(9)
C20 C 0.3903(3) 0.73703(10) 0.26583(9)
C21 C 0.6058(3) 0.71618(11) 0.28222(10)
H17 H 0.6920 0.7454 0.3096
C22 C 0.6929(3) 0.65231(11) 0.25806(10)
H18 H 0.8365 0.6381 0.2701
C23 C 0.5687(3) 0.60890(10) 0.21598(9)
C24 C 0.3524(3) 0.62906(10) 0.20045(9)
H19 H 0.2662 0.5996 0.1732
C25 C 0.2634(3) 0.69257(10) 0.22507(9)
H20 H 0.1178 0.7056 0.2143
C26 C 0.6699(3) 0.54289(10) 0.18561(10)
N1 N 0.0108(3) 0.90773(8) 0.40990(7)
N2 N 1.3434(3) 0.49782(10) 0.32272(8)
O1 O 0.4546(3) 0.78031(9) 0.50984(6)
O2 O 1.0674(3) 0.61795(11) 0.49119(8)
O3 O 0.0969(3) 0.82184(8) 0.27830(8)
O4 O 0.4168(3) 0.84955(8) 0.32416(7)
O5 O 0.6113(3) 0.52729(8) 0.13198(7)
O6 O 0.8176(2) 0.50765(8) 0.21884(7)
O7 O -0.2544(2) 0.93862(8) 0.28920(7)
H21 H -0.3516 0.9066 0.2976
H22 H -0.2929 0.9557 0.2537
Zn1A Zn 0.94153(4) 0.42079(2) 0.18082(2)
O6A O 0.1824(2) 1.00765(8) 0.28116(7)
loop_
_geom_bond_atom_site_label_1
_geom_bond_atom_site_label_2
_geom_bond_site_symmetry_1
_geom_bond_site_symmetry_2
Zn1 N1 1_555 1_555
C1 H1 1_555 1_555
C2 C1 1_555 1_555
H2 C2 1_555 1_555
C3 C2 1_555 1_555
H3 C3 1_555 1_555
C4 C3 1_555 1_555
C5 C4 1_555 1_555
H4 C5 1_555 1_555
C6 C4 1_555 1_555
H5 C6 1_555 1_555
H6 C6 1_555 1_555
C7 C8 1_555 1_555
C8 H7 1_555 1_555
C9 C8 1_555 1_555
H8 C9 1_555 1_555
C10 C9 1_555 1_555
H9 C10 1_555 1_555
C11 C10 1_555 1_555
C12 C7 1_555 1_555
H10 C12 1_555 1_555
C13 H11 1_555 1_555
H12 C13 1_555 1_555
C14 C13 1_555 1_555
C15 C14 1_555 1_555
H13 C15 1_555 1_555
C16 H14 1_555 1_555
C17 C16 1_555 1_555
H15 C17 1_555 1_555
C18 C14 1_555 1_555
H16 C18 1_555 1_555
C19 C20 1_555 1_555
C20 C21 1_555 1_555
C21 H17 1_555 1_555
C22 C21 1_555 1_555
H18 C22 1_555 1_555
C23 C22 1_555 1_555
C24 C23 1_555 1_555
H19 C24 1_555 1_555
C25 C20 1_555 1_555
H20 C25 1_555 1_555
C26 C23 1_555 1_555
N1 C1 1_555 1_555
N2 C15 1_555 1_555
O1 C6 1_555 1_555
O2 C11 1_555 1_555
O3 Zn1 1_555 1_555
O4 Zn1 1_555 1_555
O5 C26 1_555 1_555
O6 C26 1_555 1_555
O7 Zn1 1_555 1_555
H21 O7 1_555 1_555
H22 O7 1_555 1_555
Zn1A O6 1_555 1_555
O6A Zn1 1_555 1_555
C5 N1 1_555 1_555
C7 O1 1_555 1_555
C11 C12 1_555 1_555
C13 O2 1_555 1_555
C16 C18 1_555 1_555
C17 N2 1_555 1_555
C19 O3 1_555 1_555
C19 O4 1_555 1_555
C24 C25 1_555 1_555

#END
