
#######################################################################
#
#                 Cambridge Crystallographic Data Centre
#                                CCDC 
#
#######################################################################
#
# If this CIF has been generated from an entry in the Cambridge 
# Structural Database, then it will include bibliographic, chemical, 
# crystal, experimental, refinement or atomic coordinate data resulting 
# from the CCDC's data processing and validation procedures.
#
#######################################################################

data_KOVBAA
_symmetry_cell_setting           monoclinic
_symmetry_space_group_name_H-M   'P 21'
_symmetry_Int_Tables_number      4
_space_group_name_Hall           'P 2yb'
loop_
_symmetry_equiv_pos_site_id
_symmetry_equiv_pos_as_xyz
1 x,y,z
2 -x,1/2+y,-z
_cell_length_a                   9.1560(3)
_cell_length_b                   5.4451(2)
_cell_length_c                   13.5638(4)
_cell_angle_alpha                90
_cell_angle_beta                 100.0485(15)
_cell_angle_gamma                90
_cell_volume                     665.855
loop_
_atom_site_label
_atom_site_type_symbol
_atom_site_fract_x
_atom_site_fract_y
_atom_site_fract_z
Ag1 Ag 0.45563(2) 0.06282(4) 0.95273(2)
S1 S 0.23384(6) -0.48029(9) 0.84253(4)
S2 S 0.59280(6) -0.35539(11) 0.79490(4)
O1 O 0.07489(15) -0.4439(5) 0.83625(11)
O2 O 0.71558(18) -0.4014(4) 0.74187(13)
C1 C 0.4286(2) -0.4214(6) 0.70386(15)
H1 H 0.4242 -0.6030 0.6929
O3 O 0.27273(19) -0.7403(3) 0.83781(13)
O4 O 0.59763(19) -0.5221(3) 0.87995(13)
O5 O 0.31893(18) -0.3522(3) 0.92874(12)
O6 O 0.58138(19) -0.0956(3) 0.82204(14)
C2 C 0.1529(2) -0.3975(5) 0.64338(16)
H2 H 0.1477 -0.5772 0.6323
H3 H 0.0575 -0.3437 0.6610
C3 C 0.2795(2) -0.3397(5) 0.73121(16)
H4 H 0.2830 -0.1578 0.7414
C4 C 0.4499(3) -0.2990(6) 0.60498(19)
H5 H 0.4598 -0.1194 0.6154
H6 H 0.5433 -0.3596 0.5863
C5 C 0.3226(3) -0.3490(7) 0.51914(19)
H7 H 0.3192 -0.5265 0.5030
H8 H 0.3391 -0.2577 0.4589
C6 C 0.1752(3) -0.2706(6) 0.54718(19)
H9 H 0.1744 -0.0903 0.5565
H10 H 0.0929 -0.3142 0.4924
Ag1_2 Ag 0.45563(2) -0.93718(4) 0.95273(2)
Ag1A Ag 0.54437(2) -0.43718(4) 1.04727(2)
Ag1A_2 Ag 0.54437(2) 0.56282(4) 1.04727(2)
O3_2 O 0.27273(19) 0.2597(3) 0.83781(13)
O4A O 0.40237(19) -0.0221(3) 1.12005(13)
O5A O 0.68107(18) 0.1478(3) 1.07126(12)
C7 C -0.0628(3) 0.0379(6) 0.91670(16)
H11 H -0.0974 0.0980 0.9767
H12 H 0.0444 0.0640 0.9238
H13 H -0.0846 -0.1378 0.9083
C8 C -0.0960(3) 0.0921(6) 0.73299(17)
H14 H 0.0123 0.0970 0.7397
H15 H -0.1404 0.2018 0.6787
H16 H -0.1310 -0.0760 0.7178
N1 N -0.1396(2) 0.1731(4) 0.82801(15)
H17 H -0.1177 0.3505 0.8374
H18 H -0.2480 0.1512 0.8230
loop_
_geom_bond_atom_site_label_1
_geom_bond_atom_site_label_2
_geom_bond_site_symmetry_1
_geom_bond_site_symmetry_2
Ag1 O5 1_555 1_555
S1 O1 1_555 1_555
S2 O2 1_555 1_555
C1 S2 1_555 1_555
H1 C1 1_555 1_555
O3 S1 1_555 1_555
O4 S2 1_555 1_555
O5 S1 1_555 1_555
O6 Ag1 1_555 1_555
C2 H2 1_555 1_555
H3 C2 1_555 1_555
C3 S1 1_555 1_555
H4 C3 1_555 1_555
C4 C1 1_555 1_555
H5 C4 1_555 1_555
H6 C4 1_555 1_555
C5 C4 1_555 1_555
H7 C5 1_555 1_555
H8 C5 1_555 1_555
C6 C2 1_555 1_555
H9 C6 1_555 1_555
H10 C6 1_555 1_555
C7 H11 1_555 1_555
H12 C7 1_555 1_555
H13 C7 1_555 1_555
C8 H14 1_555 1_555
H15 C8 1_555 1_555
H16 C8 1_555 1_555
N1 C7 1_555 1_555
H17 N1 1_555 1_555
H18 N1 1_555 1_555
Ag1_2 O3 1_555 1_555
Ag1A Ag1 1_555 1_555
Ag1A_2 Ag1 1_555 1_555
O3_2 Ag1 1_555 1_555
O4A Ag1 1_555 1_555
O5A Ag1 1_555 1_555
S2 O6 1_555 1_555
C1 C3 1_555 1_555
O4 Ag1A 1_555 1_555
O5 Ag1A 1_555 1_555
C2 C3 1_555 1_555
C5 C6 1_555 1_555
C8 N1 1_555 1_555
Ag1_2 Ag1A 1_555 1_555
Ag1A_2 O5A 1_555 1_555

#END
