
#######################################################################
#
#                 Cambridge Crystallographic Data Centre
#                                CCDC 
#
#######################################################################
#
# If this CIF has been generated from an entry in the Cambridge 
# Structural Database, then it will include bibliographic, chemical, 
# crystal, experimental, refinement or atomic coordinate data resulting 
# from the CCDC's data processing and validation procedures.
#
#######################################################################

data_KOVFAE
_symmetry_cell_setting           monoclinic
_symmetry_space_group_name_H-M   'C 2/c'
_symmetry_Int_Tables_number      15
_space_group_name_Hall           '-C 2yn'
loop_
_symmetry_equiv_pos_site_id
_symmetry_equiv_pos_as_xyz
1 x,y,z
2 -x,y,1/2-z
3 1/2+x,1/2+y,z
4 1/2-x,1/2+y,1/2-z
5 -x,-y,-z
6 x,-y,1/2+z
7 1/2-x,1/2-y,-z
8 1/2+x,1/2-y,1/2+z
_cell_length_a                   15.2600(7)
_cell_length_b                   11.4841(5)
_cell_length_c                   13.4499(6)
_cell_angle_alpha                90
_cell_angle_beta                 101.490(2)
_cell_angle_gamma                90
_cell_volume                     2309.82
loop_
_atom_site_label
_atom_site_type_symbol
_atom_site_fract_x
_atom_site_fract_y
_atom_site_fract_z
U1 U 0.0000 0.371494(6) 0.2500
O1 O 0.05249(10) 0.36555(11) 0.08394(13)
O2 O 0.02537(11) 0.17803(11) 0.33240(12)
O3 O -0.04686(11) -0.43204(12) 0.30168(13)
O4 O 0.14392(10) 0.30093(14) 0.21859(11)
C1 C 0.0000 0.1237(2) 0.2500
O5 O 0.11907(10) 0.41925(15) 0.38431(12)
C2 C 0.0000 -0.3783(2) 0.2500
C3 C 0.0000 -0.0065(2) 0.2500
C4 C 0.01926(17) -0.06656(17) 0.16752(18)
H1 H 0.0304 -0.0260 0.1115
C5 C 0.02185(17) -0.18738(17) 0.16868(18)
H2 H 0.0381 -0.2279 0.1153
N1 N 0.22412(12) 0.41677(17) 0.52662(15)
C6 C 0.2477(2) 0.4202(3) 0.6372(2)
H3 H 0.3116 0.4207 0.6585
H4 H 0.2236 0.3529 0.6646
H5 H 0.2233 0.4894 0.6613
C7 C 0.0000 -0.2476(2) 0.2500
C8 C 0.29612(18) 0.4211(3) 0.4710(3)
H6 H 0.3525 0.4212 0.5179
H7 H 0.2909 0.4908 0.4307
H8 H 0.2927 0.3544 0.4274
C9 C 0.14077(13) 0.41591(17) 0.47880(16)
H9 H 0.0959 0.4127 0.5165
C10 C 0.12544(12) 0.31867(15) 0.12431(15)
C11 C 0.19027(12) 0.28271(15) 0.06053(14)
C12 C 0.27040(14) 0.22910(19) 0.10388(16)
H10 H 0.2844 0.2157 0.1734
C13 C 0.17047(13) 0.30441(17) -0.04307(15)
H11 H 0.1173 0.3416 -0.0719
O1F O 0.44751(10) 0.13445(11) -0.08394(13)
O4F O 0.35608(10) 0.19907(14) -0.21859(11)
C10F C 0.37456(12) 0.18133(15) -0.12431(15)
C11F C 0.30973(12) 0.21729(15) -0.06053(14)
C12F C 0.22960(14) 0.27090(19) -0.10388(16)
H10F H 0.2156 0.2843 -0.1734
C13F C 0.32953(13) 0.19559(17) 0.04307(15)
H11F H 0.3827 0.1584 0.0719
O2A O -0.02537(11) 0.17803(11) 0.16760(12)
C4A C -0.01926(17) -0.06656(17) 0.33248(18)
H1A H -0.0304 -0.0260 0.3885
C5A C -0.02185(17) -0.18738(17) 0.33132(18)
H2A H -0.0381 -0.2279 0.3847
O3A O 0.04686(11) -0.43204(12) 0.19832(13)
O5A O -0.11907(10) 0.41925(15) 0.11569(12)
N1A N -0.22412(12) 0.41677(17) -0.02662(15)
C6A C -0.2477(2) 0.4202(3) -0.1372(2)
H3A H -0.3116 0.4207 -0.1585
H4A H -0.2236 0.3529 -0.1646
H5A H -0.2233 0.4894 -0.1613
C8A C -0.29612(18) 0.4211(3) 0.0290(3)
H6A H -0.3525 0.4212 -0.0179
H7A H -0.2909 0.4908 0.0693
H8A H -0.2927 0.3544 0.0726
C9A C -0.14077(13) 0.41591(17) 0.02120(16)
H9A H -0.0959 0.4127 -0.0165
U1_2 U 0.0000 -0.628506(6) 0.2500
U1F U 0.5000 0.128506(6) -0.2500
O1A O -0.05249(10) 0.36555(11) 0.41606(13)
O3_2 O -0.04686(11) 0.56796(12) 0.30168(13)
O3A_2 O 0.04686(11) 0.56796(12) 0.19832(13)
O4A O -0.14392(10) 0.30093(14) 0.28141(11)
loop_
_geom_bond_atom_site_label_1
_geom_bond_atom_site_label_2
_geom_bond_site_symmetry_1
_geom_bond_site_symmetry_2
U1 O1 1_555 1_555
O1 C10 1_555 1_555
O2 U1 1_555 1_555
O3 C2 1_555 1_555
O4 U1 1_555 1_555
C1 O2 1_555 1_555
O5 U1 1_555 1_555
C2 C7 1_555 1_555
C3 C1 1_555 1_555
C4 C3 1_555 1_555
H1 C4 1_555 1_555
C5 C4 1_555 1_555
H2 C5 1_555 1_555
N1 C6 1_555 1_555
C6 H3 1_555 1_555
H4 C6 1_555 1_555
H5 C6 1_555 1_555
C7 C5 1_555 1_555
C8 N1 1_555 1_555
H6 C8 1_555 1_555
H7 C8 1_555 1_555
H8 C8 1_555 1_555
C9 O5 1_555 1_555
H9 C9 1_555 1_555
C10 O4 1_555 1_555
C11 C10 1_555 1_555
C12 C11 1_555 1_555
H10 C12 1_555 1_555
C13 C11 1_555 1_555
H11 C13 1_555 1_555
O1F C10F 1_555 1_555
O4F C10F 1_555 1_555
C10F C11F 1_555 1_555
C11F C12F 1_555 1_555
C12F C13 1_555 1_555
H10F C12F 1_555 1_555
C13F C12 1_555 1_555
H11F C13F 1_555 1_555
O2A U1 1_555 1_555
C4A C3 1_555 1_555
H1A C4A 1_555 1_555
C5A C7 1_555 1_555
H2A C5A 1_555 1_555
O3A C2 1_555 1_555
O5A U1 1_555 1_555
N1A C6A 1_555 1_555
C6A H3A 1_555 1_555
H4A C6A 1_555 1_555
H5A C6A 1_555 1_555
C8A N1A 1_555 1_555
H6A C8A 1_555 1_555
H7A C8A 1_555 1_555
H8A C8A 1_555 1_555
C9A O5A 1_555 1_555
H9A C9A 1_555 1_555
U1_2 O3 1_555 1_555
U1F O1F 1_555 1_555
O1A U1 1_555 1_555
O3_2 U1 1_555 1_555
O3A_2 U1 1_555 1_555
O4A U1 1_555 1_555
C1 O2A 1_555 1_555
N1 C9 1_555 1_555
O4F U1F 1_555 1_555
C11F C13F 1_555 1_555
C4A C5A 1_555 1_555
O3A U1_2 1_555 1_555
N1A C9A 1_555 1_555

#END
