
#######################################################################
#
#                 Cambridge Crystallographic Data Centre
#                                CCDC 
#
#######################################################################
#
# If this CIF has been generated from an entry in the Cambridge 
# Structural Database, then it will include bibliographic, chemical, 
# crystal, experimental, refinement or atomic coordinate data resulting 
# from the CCDC's data processing and validation procedures.
#
#######################################################################

data_KOVKEL
_symmetry_cell_setting           monoclinic
_symmetry_space_group_name_H-M   'P 21/c'
_symmetry_Int_Tables_number      14
_space_group_name_Hall           '-P 2ybc'
loop_
_symmetry_equiv_pos_site_id
_symmetry_equiv_pos_as_xyz
1 x,y,z
2 -x,1/2+y,1/2-z
3 -x,-y,-z
4 x,1/2-y,1/2+z
_cell_length_a                   9.803(4)
_cell_length_b                   9.940(6)
_cell_length_c                   19.312(5)
_cell_angle_alpha                90
_cell_angle_beta                 95.97(2)
_cell_angle_gamma                90
_cell_volume                     1871.59
loop_
_atom_site_label
_atom_site_type_symbol
_atom_site_fract_x
_atom_site_fract_y
_atom_site_fract_z
Hg1 Hg 0.14996(2) -0.51698(2) -0.25353(1)
Cl1 Cl 0.0893(2) -0.5101(2) -0.37329(8)
P1 P 0.2907(1) -0.4990(1) -0.14633(6)
C1 C 0.2113(5) -0.5654(5) -0.0736(2)
C2 C 0.2363(6) -0.5062(6) -0.0084(3)
C3 C 0.1816(7) -0.5615(7) 0.0485(3)
C4 C 0.1022(7) -0.6736(7) 0.0405(3)
C5 C 0.0772(8) -0.7327(7) -0.0238(3)
C6 C 0.1302(7) -0.6787(7) -0.0814(3)
C7 C 0.4453(5) -0.5925(5) -0.1547(3)
C8 C 0.4948(6) -0.6846(6) -0.1050(3)
C9 C 0.6235(7) -0.7460(7) -0.1119(4)
C10 C 0.6908(7) -0.7164(7) -0.1676(4)
C11 C 0.6417(7) -0.6260(8) -0.2170(4)
C12 C 0.5183(7) -0.5648(7) -0.2111(3)
C13 C 0.3408(5) -0.3283(5) -0.1247(2)
C14 C 0.4783(7) -0.2914(6) -0.1121(3)
C15 C 0.5123(8) -0.1605(8) -0.0925(4)
C16 C 0.4106(9) -0.0681(7) -0.0855(4)
C17 C 0.2777(8) -0.1024(6) -0.0994(3)
C18 C 0.2405(6) -0.2324(6) -0.1192(3)
N1 N -0.1116(6) -0.3338(5) -0.2355(2)
O1 O -0.0825(5) -0.4527(5) -0.2184(3)
O2 O -0.0191(4) -0.2559(4) -0.2493(2)
O3 O 0.2315(5) 0.2067(5) -0.2623(3)
H1 H 0.2934 -0.4249 -0.0019
H2 H 0.1936 -0.5208 0.0933
H3 H 0.0696 -0.7143 0.0801
H4 H 0.0260 -0.8155 -0.0280
H5 H 0.1107 -0.7198 -0.1267
H6 H 0.4493 -0.7045 -0.0644
H7 H 0.6579 -0.8129 -0.0783
H8 H 0.7837 -0.7586 -0.1717
H9 H 0.6941 -0.6052 -0.2562
H10 H 0.4836 -0.5026 -0.2469
H11 H 0.5503 -0.3576 -0.1169
H12 H 0.6050 -0.1343 -0.0829
H13 H 0.4388 0.0217 -0.0710
H14 H 0.2035 -0.0365 -0.0948
H15 H 0.1445 -0.2564 -0.1308
O2A O 0.0191(4) -0.7559(4) -0.2507(2)
Hg1A Hg -0.14996(2) -0.01698(2) -0.24647(1)
Cl1A Cl -0.0893(2) -0.0101(2) -0.12671(8)
P1A P -0.2907(1) 0.0010(1) -0.35367(6)
C1A C -0.2113(5) -0.0654(5) -0.4264(2)
C2A C -0.2363(6) -0.0062(6) -0.4916(3)
C3A C -0.1816(7) -0.0615(7) -0.5485(3)
C4A C -0.1022(7) -0.1736(7) -0.5405(3)
C5A C -0.0772(8) -0.2327(7) -0.4762(3)
C6A C -0.1302(7) -0.1787(7) -0.4186(3)
H5A H -0.1107 -0.2198 -0.3733
H4A H -0.0260 -0.3155 -0.4720
H3A H -0.0696 -0.2143 -0.5801
H2A H -0.1936 -0.0208 -0.5933
H1A H -0.2934 0.0751 -0.4981
C7A C -0.4453(5) -0.0925(5) -0.3453(3)
C8A C -0.4948(6) -0.1846(6) -0.3950(3)
C9A C -0.6235(7) -0.2460(7) -0.3881(4)
C10A C -0.6908(7) -0.2164(7) -0.3324(4)
C11A C -0.6417(7) -0.1260(8) -0.2830(4)
C12A C -0.5183(7) -0.0648(7) -0.2889(3)
H10A H -0.4836 -0.0026 -0.2531
H9A H -0.6941 -0.1052 -0.2438
H8A H -0.7837 -0.2586 -0.3283
H7A H -0.6579 -0.3129 -0.4217
H6A H -0.4493 -0.2045 -0.4356
C13A C -0.3408(5) 0.1717(5) -0.3753(2)
C14A C -0.4783(7) 0.2086(6) -0.3879(3)
C15A C -0.5123(8) 0.3395(8) -0.4075(4)
C16A C -0.4106(9) 0.4319(7) -0.4145(4)
C17A C -0.2777(8) 0.3976(6) -0.4006(3)
C18A C -0.2405(6) 0.2676(6) -0.3808(3)
H15A H -0.1445 0.2436 -0.3692
H14A H -0.2035 0.4635 -0.4052
H13A H -0.4388 0.5217 -0.4290
H12A H -0.6050 0.3657 -0.4171
H11A H -0.5503 0.1424 -0.3831
O1A O 0.0825(5) 0.0473(5) -0.2816(3)
N1A N 0.1116(6) 0.1662(5) -0.2645(2)
O2A_2 O 0.0191(4) 0.2441(4) -0.2507(2)
Hg1_2 Hg 0.14996(2) 0.48302(2) -0.25353(1)
O3_2 O 0.2315(5) -0.7933(5) -0.2623(3)
O3A O -0.2315(5) -0.2933(5) -0.2377(3)
loop_
_geom_bond_atom_site_label_1
_geom_bond_atom_site_label_2
_geom_bond_site_symmetry_1
_geom_bond_site_symmetry_2
Hg1 Cl1 1_555 1_555
P1 Hg1 1_555 1_555
C1 P1 1_555 1_555
C2 C1 1_555 1_555
C3 C2 1_555 1_555
C4 C3 1_555 1_555
C5 C4 1_555 1_555
C6 C1 1_555 1_555
C7 P1 1_555 1_555
C8 C7 1_555 1_555
C9 C8 1_555 1_555
C10 C9 1_555 1_555
C11 C10 1_555 1_555
C12 C7 1_555 1_555
C13 P1 1_555 1_555
C14 C13 1_555 1_555
C15 C14 1_555 1_555
C16 C15 1_555 1_555
C17 C16 1_555 1_555
C18 C13 1_555 1_555
N1 O1 1_555 1_555
O1 Hg1 1_555 1_555
O2 N1 1_555 1_555
O3 N1A 1_555 1_555
H1 C2 1_555 1_555
H2 C3 1_555 1_555
H3 C4 1_555 1_555
H4 C5 1_555 1_555
H5 C6 1_555 1_555
H6 C8 1_555 1_555
H7 C9 1_555 1_555
H8 C10 1_555 1_555
H9 C11 1_555 1_555
H10 C12 1_555 1_555
H11 C14 1_555 1_555
H12 C15 1_555 1_555
H13 C16 1_555 1_555
H14 C17 1_555 1_555
H15 C18 1_555 1_555
O2A Hg1 1_555 1_555
Hg1A O2 1_555 1_555
Cl1A Hg1A 1_555 1_555
P1A Hg1A 1_555 1_555
C1A P1A 1_555 1_555
C2A C1A 1_555 1_555
C3A C2A 1_555 1_555
C4A C3A 1_555 1_555
C5A C4A 1_555 1_555
C6A C1A 1_555 1_555
H5A C6A 1_555 1_555
H4A C5A 1_555 1_555
H3A C4A 1_555 1_555
H2A C3A 1_555 1_555
H1A C2A 1_555 1_555
C7A P1A 1_555 1_555
C8A C7A 1_555 1_555
C9A C8A 1_555 1_555
C10A C9A 1_555 1_555
C11A C10A 1_555 1_555
C12A C7A 1_555 1_555
H10A C12A 1_555 1_555
H9A C11A 1_555 1_555
H8A C10A 1_555 1_555
H7A C9A 1_555 1_555
H6A C8A 1_555 1_555
C13A P1A 1_555 1_555
C14A C13A 1_555 1_555
C15A C14A 1_555 1_555
C16A C15A 1_555 1_555
C17A C16A 1_555 1_555
C18A C13A 1_555 1_555
H15A C18A 1_555 1_555
H14A C17A 1_555 1_555
H13A C16A 1_555 1_555
H12A C15A 1_555 1_555
H11A C14A 1_555 1_555
O1A Hg1A 1_555 1_555
N1A O1A 1_555 1_555
O2A_2 N1A 1_555 1_555
Hg1_2 O3 1_555 1_555
O3_2 Hg1 1_555 1_555
O3A N1 1_555 1_555
C5 C6 1_555 1_555
C11 C12 1_555 1_555
C17 C18 1_555 1_555
Hg1A O3A 1_555 1_555
C5A C6A 1_555 1_555
C11A C12A 1_555 1_555
C17A C18A 1_555 1_555
O2A_2 Hg1_2 1_555 1_555

#END
