
#######################################################################
#
#                 Cambridge Crystallographic Data Centre
#                                CCDC 
#
#######################################################################
#
# If this CIF has been generated from an entry in the Cambridge 
# Structural Database, then it will include bibliographic, chemical, 
# crystal, experimental, refinement or atomic coordinate data resulting 
# from the CCDC's data processing and validation procedures.
#
#######################################################################

data_KOVKIP
_symmetry_cell_setting           monoclinic
_symmetry_space_group_name_H-M   'P 21/c'
_symmetry_Int_Tables_number      14
_space_group_name_Hall           '-P 2ybc'
loop_
_symmetry_equiv_pos_site_id
_symmetry_equiv_pos_as_xyz
1 x,y,z
2 -x,1/2+y,1/2-z
3 -x,-y,-z
4 x,1/2-y,1/2+z
_cell_length_a                   9.514(3)
_cell_length_b                   18.655(3)
_cell_length_c                   11.085(2)
_cell_angle_alpha                90
_cell_angle_beta                 110.14(2)
_cell_angle_gamma                90
_cell_volume                     1847.11
loop_
_atom_site_label
_atom_site_type_symbol
_atom_site_fract_x
_atom_site_fract_y
_atom_site_fract_z
Hg1 Hg 0.20885(3) 0.73632(1) 0.51444(2)
Br1 Br 0.13358(9) 0.61101(3) 0.50779(7)
P1 P 0.3361(2) 0.84682(7) 0.5154(1)
C1 C 0.2070(6) 0.9185(3) 0.4511(5)
C2 C 0.2371(6) 0.9875(3) 0.5006(5)
C3 C 0.1424(8) 1.0437(3) 0.4438(7)
C4 C 0.0207(8) 1.0323(4) 0.3367(7)
C5 C -0.0120(8) 0.9643(4) 0.2860(7)
C6 C 0.0810(8) 0.9075(3) 0.3428(6)
C7 C 0.4540(6) 0.8381(3) 0.4190(5)
C8 C 0.4474(7) 0.8881(3) 0.3238(6)
C9 C 0.5436(8) 0.8825(4) 0.2542(6)
C10 C 0.6415(8) 0.8266(4) 0.2764(7)
C11 C 0.6494(8) 0.7771(3) 0.3706(7)
C12 C 0.5532(8) 0.7818(3) 0.4402(7)
C13 C 0.4539(6) 0.8755(3) 0.6736(5)
C14 C 0.6034(7) 0.8915(3) 0.7006(6)
C15 C 0.6876(8) 0.9180(4) 0.8202(7)
C16 C 0.6243(8) 0.9280(4) 0.9127(6)
C17 C 0.4744(8) 0.9105(3) 0.8868(6)
C18 C 0.3907(7) 0.8841(3) 0.7683(6)
N1 N 0.0228(7) 0.7692(3) 0.6876(6)
O1 O -0.0132(6) 0.7873(3) 0.5729(5)
O2 O 0.1562(6) 0.7546(2) 0.7464(4)
O3 O -0.0681(7) 0.7669(3) 0.7440(7)
H1 H 0.3241 0.9959 0.5767
H2 H 0.1625 1.0913 0.4805
H3 H -0.0428 1.0726 0.2959
H4 H -0.1019 0.9560 0.2117
H5 H 0.0586 0.8596 0.3069
H6 H 0.3765 0.9270 0.3072
H7 H 0.5411 0.9174 0.1901
H8 H 0.7063 0.8220 0.2258
H9 H 0.7219 0.7387 0.3887
H10 H 0.5556 0.7454 0.5029
H11 H 0.6489 0.8843 0.6353
H12 H 0.7928 0.9301 0.8403
H13 H 0.6837 0.9465 0.9965
H14 H 0.4297 0.9162 0.9534
H15 H 0.2870 0.8720 0.7501
O2C O 0.1562(6) 0.7454(2) 0.2464(4)
Hg1C Hg 0.20885(3) 0.76368(1) 1.01444(2)
Br1C Br 0.13358(9) 0.88899(3) 1.00779(7)
P1C P 0.3361(2) 0.65318(7) 1.0154(1)
O1C O -0.0132(6) 0.7127(3) 1.0729(5)
O2C_2 O 0.1562(6) 0.7454(2) 1.2464(4)
C1C C 0.2070(6) 0.5815(3) 0.9511(5)
C7C C 0.4540(6) 0.6619(3) 0.9190(5)
C13C C 0.4539(6) 0.6245(3) 1.1736(5)
N1C N 0.0228(7) 0.7308(3) 1.1876(6)
C2C C 0.2371(6) 0.5125(3) 1.0006(5)
C6C C 0.0810(8) 0.5925(3) 0.8428(6)
C8C C 0.4474(7) 0.6119(3) 0.8238(6)
C12C C 0.5532(8) 0.7182(3) 0.9402(7)
C14C C 0.6034(7) 0.6085(3) 1.2006(6)
C18C C 0.3907(7) 0.6159(3) 1.2683(6)
C3C C 0.1424(8) 0.4563(3) 0.9438(7)
H1C H 0.3241 0.5041 1.0767
C5C C -0.0120(8) 0.5357(4) 0.7860(7)
H5C H 0.0586 0.6404 0.8069
C9C C 0.5436(8) 0.6175(4) 0.7542(6)
H6C H 0.3765 0.5730 0.8072
C11C C 0.6494(8) 0.7229(3) 0.8706(7)
H10C H 0.5556 0.7546 1.0029
C15C C 0.6876(8) 0.5820(4) 1.3202(7)
H11C H 0.6489 0.6157 1.1353
C17C C 0.4744(8) 0.5895(3) 1.3868(6)
H15C H 0.2870 0.6280 1.2501
C4C C 0.0207(8) 0.4677(4) 0.8367(7)
H2C H 0.1625 0.4087 0.9805
H4C H -0.1019 0.5440 0.7117
C10C C 0.6415(8) 0.6734(4) 0.7764(7)
H7C H 0.5411 0.5826 0.6901
H9C H 0.7219 0.7613 0.8887
C16C C 0.6243(8) 0.5720(4) 1.4127(6)
H12C H 0.7928 0.5699 1.3403
H14C H 0.4297 0.5838 1.4534
H3C H -0.0428 0.4274 0.7959
H8C H 0.7063 0.6780 0.7258
H13C H 0.6837 0.5535 1.4965
Hg1_2 Hg 0.20885(3) 0.73632(1) 1.51444(2)
O3C O -0.0681(7) 0.7331(3) 1.2440(7)
loop_
_geom_bond_atom_site_label_1
_geom_bond_atom_site_label_2
_geom_bond_site_symmetry_1
_geom_bond_site_symmetry_2
Hg1 Br1 1_555 1_555
P1 Hg1 1_555 1_555
C1 P1 1_555 1_555
C2 C1 1_555 1_555
C3 C2 1_555 1_555
C4 C3 1_555 1_555
C5 C4 1_555 1_555
C6 C1 1_555 1_555
C7 P1 1_555 1_555
C8 C7 1_555 1_555
C9 C8 1_555 1_555
C10 C9 1_555 1_555
C11 C10 1_555 1_555
C12 C7 1_555 1_555
C13 P1 1_555 1_555
C14 C13 1_555 1_555
C15 C14 1_555 1_555
C16 C15 1_555 1_555
C17 C16 1_555 1_555
C18 C13 1_555 1_555
N1 O1 1_555 1_555
O1 Hg1 1_555 1_555
O2 Hg1 1_555 1_555
O3 N1 1_555 1_555
H1 C2 1_555 1_555
H2 C3 1_555 1_555
H3 C4 1_555 1_555
H4 C5 1_555 1_555
H5 C6 1_555 1_555
H6 C8 1_555 1_555
H7 C9 1_555 1_555
H8 C10 1_555 1_555
H9 C11 1_555 1_555
H10 C12 1_555 1_555
H11 C14 1_555 1_555
H12 C15 1_555 1_555
H13 C16 1_555 1_555
H14 C17 1_555 1_555
H15 C18 1_555 1_555
O2C Hg1 1_555 1_555
Hg1C O2 1_555 1_555
Br1C Hg1C 1_555 1_555
P1C Hg1C 1_555 1_555
O1C Hg1C 1_555 1_555
O2C_2 Hg1C 1_555 1_555
C1C P1C 1_555 1_555
C7C P1C 1_555 1_555
C13C P1C 1_555 1_555
N1C O1C 1_555 1_555
C2C C1C 1_555 1_555
C6C C1C 1_555 1_555
C8C C7C 1_555 1_555
C12C C7C 1_555 1_555
C14C C13C 1_555 1_555
C18C C13C 1_555 1_555
C3C C2C 1_555 1_555
H1C C2C 1_555 1_555
C5C C6C 1_555 1_555
H5C C6C 1_555 1_555
C9C C8C 1_555 1_555
H6C C8C 1_555 1_555
C11C C12C 1_555 1_555
H10C C12C 1_555 1_555
C15C C14C 1_555 1_555
H11C C14C 1_555 1_555
C17C C18C 1_555 1_555
H15C C18C 1_555 1_555
C4C C3C 1_555 1_555
H2C C3C 1_555 1_555
H4C C5C 1_555 1_555
C10C C9C 1_555 1_555
H7C C9C 1_555 1_555
H9C C11C 1_555 1_555
C16C C15C 1_555 1_555
H12C C15C 1_555 1_555
H14C C17C 1_555 1_555
H3C C4C 1_555 1_555
H8C C10C 1_555 1_555
H13C C16C 1_555 1_555
Hg1_2 O2C_2 1_555 1_555
O3C N1C 1_555 1_555
C5 C6 1_555 1_555
C11 C12 1_555 1_555
C17 C18 1_555 1_555
N1 O2 1_555 1_555
O2C_2 N1C 1_555 1_555
C5C C4C 1_555 1_555
C11C C10C 1_555 1_555
C17C C16C 1_555 1_555

#END
