
#######################################################################
#
#                 Cambridge Crystallographic Data Centre
#                                CCDC 
#
#######################################################################
#
# If this CIF has been generated from an entry in the Cambridge 
# Structural Database, then it will include bibliographic, chemical, 
# crystal, experimental, refinement or atomic coordinate data resulting 
# from the CCDC's data processing and validation procedures.
#
#######################################################################

data_KOVQIX
_symmetry_cell_setting           monoclinic
_symmetry_space_group_name_H-M   'P 21/c'
_symmetry_Int_Tables_number      14
_space_group_name_Hall           '-P 2ybc'
loop_
_symmetry_equiv_pos_site_id
_symmetry_equiv_pos_as_xyz
1 x,y,z
2 -x,1/2+y,1/2-z
3 -x,-y,-z
4 x,1/2-y,1/2+z
_cell_length_a                   11.3070(2)
_cell_length_b                   17.3040(2)
_cell_length_c                   11.8370(2)
_cell_angle_alpha                90
_cell_angle_beta                 103.407(2)
_cell_angle_gamma                90
_cell_volume                     2252.87
loop_
_atom_site_label
_atom_site_type_symbol
_atom_site_fract_x
_atom_site_fract_y
_atom_site_fract_z
C1 C 0.3010(7) 0.1140(4) 0.4208(7)
C2 C 0.2155(8) 0.0640(4) 0.3507(7)
C3 C 0.2099(10) -0.0135(5) 0.3877(9)
H1 H 0.1515 -0.0476 0.3429
C4 C 0.2870(10) -0.0403(5) 0.4868(8)
H2 H 0.2812 -0.0925 0.5100
C5 C 0.3748(9) 0.0089(5) 0.5547(8)
H3 H 0.4291 -0.0109 0.6221
C6 C 0.3829(8) 0.0859(5) 0.5243(8)
C7 C 0.5296(9) 0.1177(7) 0.6933(8)
H4 H 0.5832 0.1609 0.7248
H5 H 0.5786 0.0716 0.6887
H6 H 0.4744 0.1072 0.7443
C8 C 0.1293(7) 0.0871(4) 0.2454(7)
H7 H 0.0684 0.0507 0.2119
C9 C 0.0293(7) 0.1738(4) 0.0912(6)
H8 H -0.0418 0.1921 0.1209
C10 C -0.0152(8) 0.1087(4) 0.0051(7)
H9 H 0.0536 0.0882 -0.0245
H10 H -0.0482 0.0661 0.0444
C11 C -0.1135(9) 0.1389(5) -0.0955(8)
H11 H -0.1853 0.1544 -0.0664
H12 H -0.1389 0.0971 -0.1531
C12 C -0.0694(9) 0.2080(5) -0.1547(7)
H13 H -0.0034 0.1912 -0.1914
H14 H -0.1371 0.2277 -0.2167
C13 C -0.0228(7) 0.2727(4) -0.0688(6)
H15 H 0.0107 0.3150 -0.1084
H16 H -0.0906 0.2938 -0.0384
C14 C 0.0739(8) 0.2423(4) 0.0292(7)
H17 H 0.1390 0.2212 -0.0067
C15 C 0.1101(7) 0.3686(4) 0.1177(6)
H18 H 0.0518 0.3883 0.0530
C16 C 0.1653(6) 0.4227(4) 0.2086(6)
C17 C 0.1378(7) 0.5015(4) 0.1860(7)
H19 H 0.0847 0.5157 0.1144
C18 C 0.1854(7) 0.5583(4) 0.2644(7)
H20 H 0.1665 0.6110 0.2459
C19 C 0.2614(7) 0.5388(4) 0.3708(7)
H21 H 0.2948 0.5778 0.4253
C20 C 0.2877(6) 0.4612(4) 0.3961(6)
C21 C 0.2443(6) 0.4020(4) 0.3151(6)
C22 C 0.3899(8) 0.4885(5) 0.5928(7)
H22 H 0.4407 0.4628 0.6607
H23 H 0.3155 0.5076 0.6121
H24 H 0.4348 0.5319 0.5698
N1 N 0.1275(6) 0.1519(4) 0.1935(5)
N2 N 0.1341(6) 0.2967(3) 0.1184(5)
N3 N 0.3871(6) 0.2901(4) 0.6605(7)
N4 N 0.4781(8) 0.3131(5) 0.7226(6)
N5 N 0.5648(8) 0.3341(5) 0.7819(7)
N6 N 0.5574(7) 0.3051(5) 0.4762(7)
N7 N 0.6453(7) 0.2699(5) 0.5284(7)
N8 N 0.7306(8) 0.2388(6) 0.5768(8)
O1 O 0.3106(5) 0.1881(3) 0.3987(4)
O2 O 0.2768(4) 0.3304(3) 0.3457(4)
O3 O 0.4610(6) 0.1370(4) 0.5812(5)
O4 O 0.3590(5) 0.4344(3) 0.4984(5)
Zn1 Zn 0.25349(8) 0.23722(5) 0.24193(7)
Zn2 Zn 0.39337(9) 0.28272(6) 0.49111(8)
N3C N 0.3871(6) 0.2099(4) 0.1605(7)
Zn1C Zn 0.25349(8) 0.26278(5) 0.74193(7)
loop_
_geom_bond_atom_site_label_1
_geom_bond_atom_site_label_2
_geom_bond_site_symmetry_1
_geom_bond_site_symmetry_2
C1 C2 1_555 1_555
C2 C3 1_555 1_555
C3 H1 1_555 1_555
C4 C3 1_555 1_555
H2 C4 1_555 1_555
C5 C4 1_555 1_555
H3 C5 1_555 1_555
C6 C1 1_555 1_555
C7 H4 1_555 1_555
H5 C7 1_555 1_555
H6 C7 1_555 1_555
C8 C2 1_555 1_555
H7 C8 1_555 1_555
C9 H8 1_555 1_555
C10 C9 1_555 1_555
H9 C10 1_555 1_555
H10 C10 1_555 1_555
C11 C10 1_555 1_555
H11 C11 1_555 1_555
H12 C11 1_555 1_555
C12 C11 1_555 1_555
H13 C12 1_555 1_555
H14 C12 1_555 1_555
C13 C12 1_555 1_555
H15 C13 1_555 1_555
H16 C13 1_555 1_555
C14 C9 1_555 1_555
H17 C14 1_555 1_555
C15 H18 1_555 1_555
C16 C15 1_555 1_555
C17 C16 1_555 1_555
H19 C17 1_555 1_555
C18 C17 1_555 1_555
H20 C18 1_555 1_555
C19 C18 1_555 1_555
H21 C19 1_555 1_555
C20 C19 1_555 1_555
C21 C16 1_555 1_555
C22 H22 1_555 1_555
H23 C22 1_555 1_555
H24 C22 1_555 1_555
N1 C8 1_555 1_555
N2 C14 1_555 1_555
N3 N4 1_555 1_555
N4 N5 1_555 1_555
N6 N7 1_555 1_555
N7 N8 1_555 1_555
O1 C1 1_555 1_555
O2 C21 1_555 1_555
O3 C6 1_555 1_555
O4 C20 1_555 1_555
Zn1 N1 1_555 1_555
Zn2 N3 1_555 1_555
N3C Zn1 1_555 1_555
Zn1C N3 1_555 1_555
C5 C6 1_555 1_555
C7 O3 1_555 1_555
C9 N1 1_555 1_555
C13 C14 1_555 1_555
C15 N2 1_555 1_555
C20 C21 1_555 1_555
C22 O4 1_555 1_555
N2 Zn1 1_555 1_555
N6 Zn2 1_555 1_555
O1 Zn1 1_555 1_555
O1 Zn2 1_555 1_555
O2 Zn1 1_555 1_555
O2 Zn2 1_555 1_555

#END
