
#######################################################################
#
#                 Cambridge Crystallographic Data Centre
#                                CCDC 
#
#######################################################################
#
# If this CIF has been generated from an entry in the Cambridge 
# Structural Database, then it will include bibliographic, chemical, 
# crystal, experimental, refinement or atomic coordinate data resulting 
# from the CCDC's data processing and validation procedures.
#
#######################################################################

data_KOVRIY
_symmetry_cell_setting           monoclinic
_symmetry_space_group_name_H-M   'P 2/c'
_symmetry_Int_Tables_number      13
_space_group_name_Hall           '-P 2yc'
loop_
_symmetry_equiv_pos_site_id
_symmetry_equiv_pos_as_xyz
1 x,y,z
2 -x,y,1/2-z
3 -x,-y,-z
4 x,-y,1/2+z
_cell_length_a                   11.6671(8)
_cell_length_b                   10.8103(7)
_cell_length_c                   12.2636(9)
_cell_angle_alpha                90
_cell_angle_beta                 103.876(2)
_cell_angle_gamma                90
_cell_volume                     1501.61
loop_
_atom_site_label
_atom_site_type_symbol
_atom_site_fract_x
_atom_site_fract_y
_atom_site_fract_z
Zn1 Zn 0.09413(6) 0.60684(7) 0.50049(6)
Zn2 Zn 0.0000 0.44567(9) 0.2500
O1 O -0.0814(4) 0.5710(4) 0.4349(3)
O2 O 0.2808(4) 0.6996(5) 0.5315(4)
N1 N 0.0641(5) 0.7848(6) 0.4266(5)
N2 N 0.1343(4) 0.5300(5) 0.3540(4)
N3 N 0.2350(4) 0.5055(5) 0.3486(4)
N4 N 0.3309(5) 0.4855(6) 0.3467(5)
N5 N 0.0815(5) 0.6698(5) 0.6609(4)
N6 N 0.1209(6) 0.7668(6) 0.7009(5)
N7 N 0.1583(10) 0.8604(8) 0.7368(7)
C1 C -0.1679(6) 0.6537(6) 0.4084(5)
C2 C -0.2886(6) 0.6130(7) 0.4002(5)
H1 H -0.3036 0.5306 0.4137
C3 C -0.3798(7) 0.6950(7) 0.3728(6)
H2 H -0.4563 0.6695 0.3710
C4 C -0.3584(7) 0.8153(7) 0.3480(6)
H3 H -0.4224 0.8688 0.3274
C5 C -0.2502(6) 0.8600(7) 0.3520(6)
H4 H -0.2397 0.9422 0.3341
C6 C -0.1497(6) 0.7768(6) 0.3849(5)
C7 C -0.0407(6) 0.8310(7) 0.3891(6)
H5 H -0.0431 0.9112 0.3611
C8 C 0.1696(7) 0.8646(9) 0.4328(9)
H6 H 0.1597 0.9102 0.3630
H7 H 0.1751 0.9242 0.4929
C9 C 0.2727(8) 0.7978(10) 0.4513(11)
H8 H 0.2730 0.7578 0.3796
C10 C 0.3886(6) 0.8692(7) 0.4850(7)
H9 H 0.4394 0.8498 0.4354
H10 H 0.3742 0.9577 0.4830
C11 C 0.4407(10) 0.8286(10) 0.5978(9)
H11 H 0.4178 0.8829 0.6520
H12 H 0.5261 0.8282 0.6118
C12 C 0.3937(8) 0.6970(9) 0.6064(8)
H13 H 0.4441 0.6358 0.5835
H14 H 0.3880 0.6789 0.6824
Zn1A Zn -0.09413(6) 0.60684(7) -0.00049(6)
O1A O 0.0814(4) 0.5710(4) 0.0651(3)
O2A O -0.2808(4) 0.6996(5) -0.0315(4)
N1A N -0.0641(5) 0.7848(6) 0.0734(5)
N2A N -0.1343(4) 0.5300(5) 0.1460(4)
N3A N -0.2350(4) 0.5055(5) 0.1514(4)
N4A N -0.3309(5) 0.4855(6) 0.1533(5)
N5A N -0.0815(5) 0.6698(5) -0.1609(4)
N6A N -0.1209(6) 0.7668(6) -0.2009(5)
N7A N -0.1583(10) 0.8604(8) -0.2368(7)
C1A C 0.1679(6) 0.6537(6) 0.0916(5)
C2A C 0.2886(6) 0.6130(7) 0.0998(5)
H1A H 0.3036 0.5306 0.0863
C3A C 0.3798(7) 0.6950(7) 0.1272(6)
H2A H 0.4563 0.6695 0.1290
C4A C 0.3584(7) 0.8153(7) 0.1520(6)
H3A H 0.4224 0.8688 0.1726
C5A C 0.2502(6) 0.8600(7) 0.1480(6)
H4A H 0.2397 0.9422 0.1659
C6A C 0.1497(6) 0.7768(6) 0.1151(5)
C7A C 0.0407(6) 0.8310(7) 0.1109(6)
H5A H 0.0431 0.9112 0.1389
C8A C -0.1696(7) 0.8646(9) 0.0672(9)
H6A H -0.1597 0.9102 0.1370
H7A H -0.1751 0.9242 0.0071
C9A C -0.2727(8) 0.7978(10) 0.0487(11)
H8A H -0.2730 0.7578 0.1204
C10A C -0.3886(6) 0.8692(7) 0.0150(7)
H9A H -0.4394 0.8498 0.0646
H10A H -0.3742 0.9577 0.0170
C11A C -0.4407(10) 0.8286(10) -0.0978(9)
H11A H -0.4178 0.8829 -0.1520
H12A H -0.5261 0.8282 -0.1118
C12A C -0.3937(8) 0.6970(9) -0.1064(8)
H13A H -0.4441 0.6358 -0.0835
H14A H -0.3880 0.6789 -0.1824
Zn1B Zn -0.09413(6) 0.39316(7) 0.49951(6)
Zn1C Zn 0.09413(6) 0.39316(7) 0.00049(6)
Zn2B Zn 0.0000 0.55433(9) -0.2500
Zn2B_2 Zn 0.0000 0.55433(9) 0.7500
O1B O 0.0814(4) 0.4290(4) 0.5651(3)
O1C O -0.0814(4) 0.4290(4) -0.0651(3)
N5B N -0.0815(5) 0.3302(5) 0.3391(4)
N5C N 0.0815(5) 0.3302(5) 0.1609(4)
loop_
_geom_bond_atom_site_label_1
_geom_bond_atom_site_label_2
_geom_bond_site_symmetry_1
_geom_bond_site_symmetry_2
Zn1 O1 1_555 1_555
Zn2 N2 1_555 1_555
O1 C1 1_555 1_555
O2 Zn1 1_555 1_555
N1 Zn1 1_555 1_555
N2 Zn1 1_555 1_555
N3 N2 1_555 1_555
N4 N3 1_555 1_555
N5 Zn1 1_555 1_555
N6 N5 1_555 1_555
N7 N6 1_555 1_555
C1 C2 1_555 1_555
C2 H1 1_555 1_555
C3 C2 1_555 1_555
H2 C3 1_555 1_555
C4 C3 1_555 1_555
H3 C4 1_555 1_555
C5 C4 1_555 1_555
H4 C5 1_555 1_555
C6 C1 1_555 1_555
C7 N1 1_555 1_555
H5 C7 1_555 1_555
C8 N1 1_555 1_555
H6 C8 1_555 1_555
H7 C8 1_555 1_555
C9 O2 1_555 1_555
H8 C9 1_555 1_555
C10 C9 1_555 1_555
H9 C10 1_555 1_555
H10 C10 1_555 1_555
C11 C10 1_555 1_555
H11 C11 1_555 1_555
H12 C11 1_555 1_555
C12 O2 1_555 1_555
H13 C12 1_555 1_555
H14 C12 1_555 1_555
Zn1A O1A 1_555 1_555
O1A C1A 1_555 1_555
O2A Zn1A 1_555 1_555
N1A Zn1A 1_555 1_555
N2A Zn2 1_555 1_555
N3A N2A 1_555 1_555
N4A N3A 1_555 1_555
N5A Zn1A 1_555 1_555
N6A N5A 1_555 1_555
N7A N6A 1_555 1_555
C1A C2A 1_555 1_555
C2A H1A 1_555 1_555
C3A C2A 1_555 1_555
H2A C3A 1_555 1_555
C4A C3A 1_555 1_555
H3A C4A 1_555 1_555
C5A C4A 1_555 1_555
H4A C5A 1_555 1_555
C6A C1A 1_555 1_555
C7A N1A 1_555 1_555
H5A C7A 1_555 1_555
C8A N1A 1_555 1_555
H6A C8A 1_555 1_555
H7A C8A 1_555 1_555
C9A O2A 1_555 1_555
H8A C9A 1_555 1_555
C10A C9A 1_555 1_555
H9A C10A 1_555 1_555
H10A C10A 1_555 1_555
C11A C10A 1_555 1_555
H11A C11A 1_555 1_555
H12A C11A 1_555 1_555
C12A O2A 1_555 1_555
H13A C12A 1_555 1_555
H14A C12A 1_555 1_555
Zn1B O1 1_555 1_555
Zn1C O1A 1_555 1_555
Zn2B N5A 1_555 1_555
Zn2B_2 N5 1_555 1_555
O1B Zn1 1_555 1_555
O1C Zn1A 1_555 1_555
N5B Zn2 1_555 1_555
N5C Zn2 1_555 1_555
C5 C6 1_555 1_555
C6 C7 1_555 1_555
C8 C9 1_555 1_555
C11 C12 1_555 1_555
Zn1A N2A 1_555 1_555
C5A C6A 1_555 1_555
C6A C7A 1_555 1_555
C8A C9A 1_555 1_555
C11A C12A 1_555 1_555
Zn1B O1B 1_555 1_555
Zn1B N5B 1_555 1_555
Zn1C O1C 1_555 1_555
Zn1C N5C 1_555 1_555

#END
