
#######################################################################
#
#                 Cambridge Crystallographic Data Centre
#                                CCDC 
#
#######################################################################
#
# If this CIF has been generated from an entry in the Cambridge 
# Structural Database, then it will include bibliographic, chemical, 
# crystal, experimental, refinement or atomic coordinate data resulting 
# from the CCDC's data processing and validation procedures.
#
#######################################################################

data_KOVTOE
_symmetry_cell_setting           monoclinic
_symmetry_space_group_name_H-M   'C 2/c'
_symmetry_Int_Tables_number      15
_space_group_name_Hall           '-C 2yn'
loop_
_symmetry_equiv_pos_site_id
_symmetry_equiv_pos_as_xyz
1 x,y,z
2 1/2+x,1/2+y,z
3 -x,y,1/2-z
4 1/2-x,1/2+y,1/2-z
5 -x,-y,-z
6 1/2-x,1/2-y,-z
7 x,-y,1/2+z
8 1/2+x,1/2-y,1/2+z
_cell_length_a                   16.805(2)
_cell_length_b                   12.544(3)
_cell_length_c                   10.401(2)
_cell_angle_alpha                90
_cell_angle_beta                 91.27(2)
_cell_angle_gamma                90
_cell_volume                     2192.01
loop_
_atom_site_label
_atom_site_type_symbol
_atom_site_fract_x
_atom_site_fract_y
_atom_site_fract_z
O9 O 0.00000 0.1497(11) 0.25000
O10 O 0.4324(6) 0.5361(7) 0.6028(9)
N1 N 0.3681(5) 0.4412(8) 0.3538(10)
Bi1 Bi 0.39871(2) 0.12954(3) 0.48911(3)
O1 O 0.2535(3) 0.1361(6) 0.4615(6)
O2 O 0.3616(4) 0.2934(6) 0.6061(6)
O3 O 0.3819(3) 0.2168(5) 0.3159(6)
O4 O 0.5334(3) 0.0864(5) 0.4189(6)
O5 O 0.5177(4) 0.2522(6) 0.4801(6)
O6 O 0.3730(4) 0.0052(6) 0.3359(6)
O7 O 0.2995(4) 0.0111(6) 0.6574(7)
C1 C 0.2107(5) 0.1802(8) 0.3761(9)
C2 C 0.2435(5) 0.2034(10) 0.2455(9)
C3 C 0.3290(5) 0.1671(8) 0.2253(8)
C4 C 0.3535(6) 0.2006(9) 0.0909(9)
C5 C 0.5606(6) 0.1786(8) 0.4372(9)
C6 C 0.3337(5) 0.0451(8) 0.2387(9)
O8 O 0.50000 0.1237(9) 0.75000
H1 H 0.204(6) 0.170(8) 0.174(10)
H2 H 0.240(6) 0.280(9) 0.237(10)
H3 H 0.346(5) 0.279(7) 0.086(8)
H4 H 0.328(5) 0.164(6) 0.036(8)
H5 H 0.466(6) 0.080(8) 0.786(10)
O4D O 0.4666(3) -0.0864(5) 0.5811(6)
O2E O 0.1384(4) 0.2066(6) 0.3939(6)
O1E O 0.2465(3) 0.3639(6) 0.5385(6)
C1E C 0.2893(5) 0.3198(8) 0.6239(9)
Bi1D Bi 0.60129(2) -0.12954(3) 0.51089(3)
O7F O 0.2995(4) -0.0111(6) 0.1574(7)
O6F O 0.3730(4) -0.0052(6) 0.8359(6)
C6F C 0.3337(5) -0.0451(8) 0.7387(9)
C5B C 0.4394(6) 0.1786(8) 0.0628(9)
C4B C 0.6465(6) 0.2006(9) 0.4091(9)
Bi1B Bi 0.60129(2) 0.12954(3) 1.01089(3)
H5B H 0.534(6) 0.080(8) 0.714(10)
O5D O 0.4823(4) -0.2522(6) 0.5199(6)
C5D C 0.4394(6) -0.1786(8) 0.5628(9)
Bi1E Bi 0.10129(2) 0.37046(3) 0.51089(3)
C2E C 0.2565(5) 0.2966(10) 0.7545(9)
O1D O 0.7465(3) -0.1361(6) 0.5385(6)
O2D O 0.6384(4) -0.2934(6) 0.3939(6)
O3D O 0.6181(3) -0.2168(5) 0.6841(6)
O6D O 0.6270(4) -0.0052(6) 0.6641(6)
O7D O 0.7005(4) -0.0111(6) 0.3426(7)
O8D O 0.50000 -0.1237(9) 0.25000
Bi1F Bi 0.39871(2) -0.12954(3) -0.01089(3)
Bi1F_2 Bi 0.39871(2) -0.12954(3) 0.98911(3)
C3F C 0.3290(5) -0.1671(8) 0.7253(8)
O4B O 0.4666(3) 0.0864(5) 0.0811(6)
O5B O 0.4823(4) 0.2522(6) 0.0199(6)
C3B C 0.6710(5) 0.1671(8) 0.2747(8)
H3B H 0.654(5) 0.279(7) 0.414(8)
H4B H 0.672(5) 0.164(6) 0.464(8)
O1B O 0.7465(3) 0.1361(6) 1.0385(6)
O2B O 0.6384(4) 0.2934(6) 0.8939(6)
O3B O 0.6181(3) 0.2168(5) 1.1841(6)
O4B_2 O 0.4666(3) 0.0864(5) 1.0811(6)
O4F O 0.5334(3) -0.0864(5) 0.9189(6)
O5B_2 O 0.4823(4) 0.2522(6) 1.0199(6)
O6B O 0.6270(4) 0.0052(6) 1.1641(6)
O7B O 0.7005(4) 0.0111(6) 0.8426(7)
C4F C 0.3535(6) -0.2006(9) 0.5909(9)
O3E O 0.1181(3) 0.2832(5) 0.6841(6)
O4A O 0.0334(3) 0.5864(5) 0.4189(6)
O4E O -0.0334(3) 0.4136(5) 0.5811(6)
O5E O -0.0177(4) 0.2478(6) 0.5199(6)
O6E O 0.1270(4) 0.4948(6) 0.6641(6)
O7E O 0.2005(4) 0.4889(6) 0.3426(7)
O8E O 0.00000 0.3763(9) 0.25000
C3E C 0.1710(5) 0.3329(8) 0.7747(8)
H1E H 0.296(6) 0.330(8) 0.826(10)
H2E H 0.260(6) 0.220(9) 0.763(10)
O2A O 0.8616(4) -0.2066(6) 0.6061(6)
C1D C 0.7893(5) -0.1802(8) 0.6239(9)
O1A O 0.7535(3) -0.3639(6) 0.4615(6)
C1A C 0.7107(5) -0.3198(8) 0.3761(9)
C3D C 0.6710(5) -0.1671(8) 0.7747(8)
C6D C 0.6663(5) -0.0451(8) 0.7613(9)
O6B_2 O 0.6270(4) 0.0052(6) 0.1641(6)
C6B C 0.6663(5) 0.0451(8) 0.2613(9)
H5D H 0.534(6) -0.080(8) 0.214(10)
H5F H 0.466(6) -0.080(8) 0.286(10)
O1F O 0.2535(3) -0.1361(6) -0.0385(6)
O2F O 0.3616(4) -0.2934(6) 0.1061(6)
O3F O 0.3819(3) -0.2168(5) -0.1841(6)
O4F_2 O 0.5334(3) -0.0864(5) -0.0811(6)
O5F O 0.5177(4) -0.2522(6) -0.0199(6)
O6F_2 O 0.3730(4) -0.0052(6) -0.1641(6)
O3F_2 O 0.3819(3) -0.2168(5) 0.8159(6)
C2F C 0.2435(5) -0.2034(10) 0.7455(9)
Bi1B_2 Bi 0.60129(2) 0.12954(3) 0.01089(3)
O3B_2 O 0.6181(3) 0.2168(5) 0.1841(6)
C2B C 0.7565(5) 0.2034(10) 0.2545(9)
O2G O 0.8616(4) 0.2066(6) 1.1061(6)
C1B C 0.7893(5) 0.1802(8) 1.1239(9)
O1G O 0.7535(3) 0.3639(6) 0.9615(6)
C1G C 0.7107(5) 0.3198(8) 0.8761(9)
C3B_2 C 0.6710(5) 0.1671(8) 1.2747(8)
O5F_2 O 0.5177(4) -0.2522(6) 0.9801(6)
C5F C 0.5606(6) -0.1786(8) 0.9372(9)
O7D_2 O 0.7005(4) -0.0111(6) 1.3426(7)
C6B_2 C 0.6663(5) 0.0451(8) 1.2613(9)
H3F H 0.346(5) -0.279(7) 0.586(8)
H4F H 0.328(5) -0.164(6) 0.536(8)
Bi1A Bi -0.10129(2) 0.62954(3) 0.48911(3)
O5A O 0.0177(4) 0.7522(6) 0.4801(6)
C5A C 0.0606(6) 0.6786(8) 0.4372(9)
C5E C -0.0606(6) 0.3214(8) 0.5628(9)
O7C O 0.2005(4) 0.5111(6) 0.8426(7)
C6E C 0.1663(5) 0.4549(8) 0.7613(9)
O6C O 0.1270(4) 0.5052(6) 0.1641(6)
C6C C 0.1663(5) 0.5451(8) 0.2613(9)
Bi1G Bi -0.10129(2) 0.37046(3) -0.01089(3)
H5E H 0.034(6) 0.420(8) 0.214(10)
H5G H -0.034(6) 0.420(8) 0.286(10)
C4E C 0.1465(6) 0.2994(9) 0.9091(9)
Bi1A_2 Bi 0.89871(2) -0.37046(3) 0.48911(3)
C2D C 0.7565(5) -0.2034(10) 0.7545(9)
C2A C 0.7435(5) -0.2966(10) 0.2455(9)
C4D C 0.6465(6) -0.2006(9) 0.9091(9)
O2C O 0.1384(4) -0.2066(6) -0.1061(6)
C1F C 0.2107(5) -0.1802(8) -0.1239(9)
O1C O 0.2465(3) -0.3639(6) 0.0385(6)
C1C C 0.2893(5) -0.3198(8) 0.1239(9)
C3F_2 C 0.3290(5) -0.1671(8) -0.2747(8)
C5F_2 C 0.5606(6) -0.1786(8) -0.0628(9)
C1F_2 C 0.2107(5) -0.1802(8) 0.8761(9)
H1F H 0.204(6) -0.170(8) 0.674(10)
H2F H 0.240(6) -0.280(9) 0.737(10)
C1B_2 C 0.7893(5) 0.1802(8) 0.1239(9)
H1B H 0.796(6) 0.170(8) 0.326(10)
H2B H 0.760(6) 0.280(9) 0.263(10)
Bi1G_2 Bi 0.89871(2) 0.37046(3) 0.98911(3)
C2B_2 C 0.7565(5) 0.2034(10) 1.2545(9)
C2G C 0.7435(5) 0.2966(10) 0.7455(9)
O1A_2 O -0.2465(3) 0.6361(6) 0.4615(6)
O2A_2 O -0.1384(4) 0.7934(6) 0.6061(6)
O3A O -0.1181(3) 0.7168(5) 0.3159(6)
O6A O -0.1270(4) 0.5052(6) 0.3359(6)
O7A O -0.2005(4) 0.5111(6) 0.6574(7)
O8A O 0.00000 0.6237(9) 0.75000
C4C C 0.1465(6) 0.7006(9) 0.4091(9)
C4G C -0.1465(6) 0.2994(9) 0.5909(9)
Bi1C Bi 0.10129(2) 0.62954(3) 1.01089(3)
Bi1C_2 Bi 0.10129(2) 0.62954(3) 0.01089(3)
C3C C 0.1710(5) 0.6671(8) 0.2747(8)
O1G_2 O -0.2465(3) 0.3639(6) -0.0385(6)
O2G_2 O -0.1384(4) 0.2066(6) 0.1061(6)
O3G O -0.1181(3) 0.2832(5) -0.1841(6)
O4C O -0.0334(3) 0.5864(5) 0.0811(6)
O4G O 0.0334(3) 0.4136(5) -0.0811(6)
O5G O 0.0177(4) 0.2478(6) -0.0199(6)
O6G O -0.1270(4) 0.4948(6) -0.1641(6)
O7G O -0.2005(4) 0.4889(6) 0.1574(7)
C5G C 0.0606(6) 0.3214(8) 0.9372(9)
H3E H 0.154(5) 0.221(7) 0.914(8)
H4E H 0.172(5) 0.336(6) 0.964(8)
H1D H 0.796(6) -0.170(8) 0.826(10)
H2D H 0.760(6) -0.280(9) 0.763(10)
C3A C 0.8290(5) -0.3329(8) 0.2253(8)
H1A H 0.704(6) -0.330(8) 0.174(10)
H2A H 0.740(6) -0.220(9) 0.237(10)
H3D H 0.654(5) -0.279(7) 0.914(8)
H4D H 0.672(5) -0.164(6) 0.964(8)
Bi1C_3 Bi 0.10129(2) -0.37046(3) 0.01089(3)
C2F_2 C 0.2435(5) -0.2034(10) -0.2545(9)
C2C C 0.2565(5) -0.2966(10) 0.2545(9)
C3G C 0.8290(5) 0.3329(8) 0.7253(8)
H1G H 0.704(6) 0.330(8) 0.674(10)
H2G H 0.740(6) 0.220(9) 0.737(10)
C3A_2 C -0.1710(5) 0.6671(8) 0.2253(8)
C6A C -0.1663(5) 0.5451(8) 0.2387(9)
O6G_2 O -0.1270(4) 0.4948(6) 0.8359(6)
C6G C -0.1663(5) 0.4549(8) 0.7387(9)
H5A H -0.034(6) 0.580(8) 0.786(10)
H5C H 0.034(6) 0.580(8) 0.714(10)
H3C H 0.154(5) 0.779(7) 0.414(8)
H4C H 0.172(5) 0.664(6) 0.464(8)
C3G_2 C -0.1710(5) 0.3329(8) 0.7253(8)
H3G H -0.154(5) 0.221(7) 0.586(8)
H4G H -0.172(5) 0.336(6) 0.536(8)
O1C_2 O 0.2465(3) 0.6361(6) 1.0385(6)
O2C_2 O 0.1384(4) 0.7934(6) 0.8939(6)
O3C O 0.1181(3) 0.7168(5) 1.1841(6)
O4C_2 O -0.0334(3) 0.5864(5) 1.0811(6)
O4G_2 O 0.0334(3) 0.4136(5) 0.9189(6)
O5C O -0.0177(4) 0.7522(6) 1.0199(6)
O6C_2 O 0.1270(4) 0.5052(6) 1.1641(6)
O3C_2 O 0.1181(3) 0.7168(5) 0.1841(6)
C2C_2 C 0.2565(5) 0.7034(10) 0.2545(9)
C3G_3 C -0.1710(5) 0.3329(8) -0.2747(8)
O5C_2 O -0.0177(4) 0.7522(6) 0.0199(6)
C5C C -0.0606(6) 0.6786(8) 0.0628(9)
C5G_2 C 0.0606(6) 0.3214(8) -0.0628(9)
O7A_2 O -0.2005(4) 0.5111(6) -0.3426(7)
C6G_2 C -0.1663(5) 0.4549(8) -0.2613(9)
O5G_2 O 0.0177(4) 0.2478(6) 0.9801(6)
O3A_2 O 0.8819(3) -0.2832(5) 0.3159(6)
C4A C 0.8535(6) -0.2994(9) 0.0909(9)
C6A_2 C 0.8337(5) -0.4549(8) 0.2387(9)
C3C_2 C 0.1710(5) -0.3329(8) 0.2747(8)
H1C H 0.296(6) -0.330(8) 0.326(10)
H2C H 0.260(6) -0.220(9) 0.263(10)
O3G_2 O 0.8819(3) 0.2832(5) 0.8159(6)
C4G_2 C 0.8535(6) 0.2994(9) 0.5909(9)
C6G_3 C 0.8337(5) 0.4549(8) 0.7387(9)
C3C_3 C 0.1710(5) 0.6671(8) 1.2747(8)
C5C_2 C -0.0606(6) 0.6786(8) 1.0628(9)
C4A_2 C -0.1465(6) 0.7006(9) 0.0909(9)
C5C_3 C 0.9394(6) -0.3214(8) 0.0628(9)
H3A H 0.846(5) -0.221(7) 0.086(8)
H4A H 0.828(5) -0.336(6) 0.036(8)
loop_
_geom_bond_atom_site_label_1
_geom_bond_atom_site_label_2
_geom_bond_site_symmetry_1
_geom_bond_site_symmetry_2
Bi1 O1 1_555 1_555
O1 C1 1_555 1_555
O2 Bi1 1_555 1_555
O3 Bi1 1_555 1_555
O4 Bi1 1_555 1_555
O5 Bi1 1_555 1_555
O6 Bi1 1_555 1_555
O7 Bi1 1_555 1_555
C1 C2 1_555 1_555
C2 C3 1_555 1_555
C3 O3 1_555 1_555
C4 C3 1_555 1_555
C5 O4 1_555 1_555
C6 O6 1_555 1_555
O8 Bi1 1_555 1_555
H1 C2 1_555 1_555
H2 C2 1_555 1_555
H3 C4 1_555 1_555
H4 C4 1_555 1_555
H5 O8 1_555 1_555
O4D Bi1 1_555 1_555
O2E O1 1_555 1_555
O1E O2 1_555 1_555
C1E O2 1_555 1_555
Bi1D O4 1_555 1_555
O7F O6 1_555 1_555
O6F O7 1_555 1_555
C6F O7 1_555 1_555
C5B C4 1_555 1_555
C4B C5 1_555 1_555
Bi1B O8 1_555 1_555
H5B O8 1_555 1_555
O5D O4D 1_555 1_555
C5D O4D 1_555 1_555
Bi1E O2E 1_555 1_555
C2E C1E 1_555 1_555
O1D Bi1D 1_555 1_555
O2D Bi1D 1_555 1_555
O3D Bi1D 1_555 1_555
O6D Bi1D 1_555 1_555
O7D Bi1D 1_555 1_555
O8D Bi1D 1_555 1_555
Bi1F O7F 1_555 1_555
Bi1F_2 O6F 1_555 1_555
C3F C6F 1_555 1_555
O4B C5B 1_555 1_555
O5B C5B 1_555 1_555
C3B C4B 1_555 1_555
H3B C4B 1_555 1_555
H4B C4B 1_555 1_555
O1B Bi1B 1_555 1_555
O2B Bi1B 1_555 1_555
O3B Bi1B 1_555 1_555
O4B_2 Bi1B 1_555 1_555
O4F Bi1B 1_555 1_555
O5B_2 Bi1B 1_555 1_555
O6B Bi1B 1_555 1_555
O7B Bi1B 1_555 1_555
C4F C5D 1_555 1_555
O3E Bi1E 1_555 1_555
O4A Bi1E 1_555 1_555
O4E Bi1E 1_555 1_555
O5E Bi1E 1_555 1_555
O6E Bi1E 1_555 1_555
O7E Bi1E 1_555 1_555
O8E Bi1E 1_555 1_555
C3E C2E 1_555 1_555
H1E C2E 1_555 1_555
H2E C2E 1_555 1_555
O2A O1D 1_555 1_555
C1D O1D 1_555 1_555
O1A O2D 1_555 1_555
C1A O2D 1_555 1_555
C3D O3D 1_555 1_555
C6D O6D 1_555 1_555
O6B_2 O7D 1_555 1_555
C6B O7D 1_555 1_555
H5D O8D 1_555 1_555
H5F O8D 1_555 1_555
O1F Bi1F 1_555 1_555
O2F Bi1F 1_555 1_555
O3F Bi1F 1_555 1_555
O4F_2 Bi1F 1_555 1_555
O5F Bi1F 1_555 1_555
O6F_2 Bi1F 1_555 1_555
O3F_2 C3F 1_555 1_555
C2F C3F 1_555 1_555
Bi1B_2 O4B 1_555 1_555
O3B_2 C3B 1_555 1_555
C2B C3B 1_555 1_555
O2G O1B 1_555 1_555
C1B O1B 1_555 1_555
O1G O2B 1_555 1_555
C1G O2B 1_555 1_555
C3B_2 O3B 1_555 1_555
O5F_2 O4F 1_555 1_555
C5F O4F 1_555 1_555
O7D_2 O6B 1_555 1_555
C6B_2 O6B 1_555 1_555
H3F C4F 1_555 1_555
H4F C4F 1_555 1_555
Bi1A O4A 1_555 1_555
O5A O4A 1_555 1_555
C5A O4A 1_555 1_555
C5E O4E 1_555 1_555
O7C O6E 1_555 1_555
C6E O6E 1_555 1_555
O6C O7E 1_555 1_555
C6C O7E 1_555 1_555
Bi1G O8E 1_555 1_555
H5E O8E 1_555 1_555
H5G O8E 1_555 1_555
C4E C3E 1_555 1_555
Bi1A_2 O2A 1_555 1_555
C2D C1D 1_555 1_555
C2A C1A 1_555 1_555
C4D C3D 1_555 1_555
O2C O1F 1_555 1_555
C1F O1F 1_555 1_555
O1C O2F 1_555 1_555
C1C O2F 1_555 1_555
C3F_2 O3F 1_555 1_555
C5F_2 O5F 1_555 1_555
C1F_2 C2F 1_555 1_555
H1F C2F 1_555 1_555
H2F C2F 1_555 1_555
C1B_2 C2B 1_555 1_555
H1B C2B 1_555 1_555
H2B C2B 1_555 1_555
Bi1G_2 O2G 1_555 1_555
C2B_2 C1B 1_555 1_555
C2G C1G 1_555 1_555
O1A_2 Bi1A 1_555 1_555
O2A_2 Bi1A 1_555 1_555
O3A Bi1A 1_555 1_555
O6A Bi1A 1_555 1_555
O7A Bi1A 1_555 1_555
O8A Bi1A 1_555 1_555
C4C C5A 1_555 1_555
C4G C5E 1_555 1_555
Bi1C O7C 1_555 1_555
Bi1C_2 O6C 1_555 1_555
C3C C6C 1_555 1_555
O1G_2 Bi1G 1_555 1_555
O2G_2 Bi1G 1_555 1_555
O3G Bi1G 1_555 1_555
O4C Bi1G 1_555 1_555
O4G Bi1G 1_555 1_555
O5G Bi1G 1_555 1_555
O6G Bi1G 1_555 1_555
O7G Bi1G 1_555 1_555
C5G C4E 1_555 1_555
H3E C4E 1_555 1_555
H4E C4E 1_555 1_555
H1D C2D 1_555 1_555
H2D C2D 1_555 1_555
C3A C2A 1_555 1_555
H1A C2A 1_555 1_555
H2A C2A 1_555 1_555
H3D C4D 1_555 1_555
H4D C4D 1_555 1_555
Bi1C_3 O2C 1_555 1_555
C2F_2 C1F 1_555 1_555
C2C C1C 1_555 1_555
C3G C2G 1_555 1_555
H1G C2G 1_555 1_555
H2G C2G 1_555 1_555
C3A_2 O3A 1_555 1_555
C6A O6A 1_555 1_555
O6G_2 O7A 1_555 1_555
C6G O7A 1_555 1_555
H5A O8A 1_555 1_555
H5C O8A 1_555 1_555
H3C C4C 1_555 1_555
H4C C4C 1_555 1_555
C3G_2 C4G 1_555 1_555
H3G C4G 1_555 1_555
H4G C4G 1_555 1_555
O1C_2 Bi1C 1_555 1_555
O2C_2 Bi1C 1_555 1_555
O3C Bi1C 1_555 1_555
O4C_2 Bi1C 1_555 1_555
O4G_2 Bi1C 1_555 1_555
O5C Bi1C 1_555 1_555
O6C_2 Bi1C 1_555 1_555
O3C_2 C3C 1_555 1_555
C2C_2 C3C 1_555 1_555
C3G_3 O3G 1_555 1_555
O5C_2 O4C 1_555 1_555
C5C O4C 1_555 1_555
C5G_2 O4G 1_555 1_555
O7A_2 O6G 1_555 1_555
C6G_2 O6G 1_555 1_555
O5G_2 C5G 1_555 1_555
O3A_2 C3A 1_555 1_555
C4A C3A 1_555 1_555
C6A_2 C3A 1_555 1_555
C3C_2 C2C 1_555 1_555
H1C C2C 1_555 1_555
H2C C2C 1_555 1_555
O3G_2 C3G 1_555 1_555
C4G_2 C3G 1_555 1_555
C6G_3 C3G 1_555 1_555
C3C_3 O3C 1_555 1_555
C5C_2 O5C 1_555 1_555
C4A_2 C5C 1_555 1_555
C5C_3 C4A 1_555 1_555
H3A C4A 1_555 1_555
H4A C4A 1_555 1_555
O4 O5 1_555 1_555
O5 C5 1_555 1_555
C1 O2E 1_555 1_555
C3 C6 1_555 1_555
C6 O7F 1_555 1_555
O4D Bi1D 1_555 1_555
O1E Bi1E 1_555 1_555
O1E C1E 1_555 1_555
Bi1D O5D 1_555 1_555
O6F C6F 1_555 1_555
O5D C5D 1_555 1_555
O6D O7B 1_555 1_555
O8D Bi1F 1_555 1_555
Bi1F O4B 1_555 1_555
Bi1F_2 O4F 1_555 1_555
C3F C4F 1_555 1_555
O4B O5B 1_555 1_555
O5B Bi1B_2 1_555 1_555
C3B C6B 1_555 1_555
O7B C6D 1_555 1_555
O3E C3E 1_555 1_555
O4E Bi1A 1_555 1_555
O4E O5E 1_555 1_555
O5E C5E 1_555 1_555
C3E C6E 1_555 1_555
O2A C1D 1_555 1_555
O1A Bi1A_2 1_555 1_555
O1A C1A 1_555 1_555
C3D C2D 1_555 1_555
C3D C6D 1_555 1_555
O6B_2 C6B 1_555 1_555
O4F_2 O5F 1_555 1_555
O2G C1B 1_555 1_555
O1G Bi1G_2 1_555 1_555
O1G C1G 1_555 1_555
O5F_2 C5F 1_555 1_555
C5F C4D 1_555 1_555
Bi1A O5A 1_555 1_555
O5A C5A 1_555 1_555
O7C C6E 1_555 1_555
O6C C6C 1_555 1_555
O2C C1F 1_555 1_555
O1C Bi1C_3 1_555 1_555
O1C C1C 1_555 1_555
O6A O7G 1_555 1_555
O8A Bi1C 1_555 1_555
C4C C3C 1_555 1_555
Bi1C_2 O4C 1_555 1_555
Bi1C_2 O4G 1_555 1_555
O4G O5G 1_555 1_555
O5G C5G_2 1_555 1_555
O7G C6A 1_555 1_555
C5G O4G_2 1_555 1_555
C3A_2 C6A 1_555 1_555
O6G_2 C6G 1_555 1_555
C6G C3G_2 1_555 1_555
O4C_2 O5C 1_555 1_555
O5C_2 C5C 1_555 1_555

#END
