
#######################################################################
#
#                 Cambridge Crystallographic Data Centre
#                                CCDC 
#
#######################################################################
#
# If this CIF has been generated from an entry in the Cambridge 
# Structural Database, then it will include bibliographic, chemical, 
# crystal, experimental, refinement or atomic coordinate data resulting 
# from the CCDC's data processing and validation procedures.
#
#######################################################################

data_KOVWUP
_symmetry_cell_setting           triclinic
_symmetry_space_group_name_H-M   'P -1'
_symmetry_Int_Tables_number      2
_space_group_name_Hall           '-P 1'
loop_
_symmetry_equiv_pos_site_id
_symmetry_equiv_pos_as_xyz
1 x,y,z
2 -x,-y,-z
_cell_length_a                   10.696(2)
_cell_length_b                   13.970(3)
_cell_length_c                   18.754(4)
_cell_angle_alpha                86.83(3)
_cell_angle_beta                 77.37(3)
_cell_angle_gamma                70.17(3)
_cell_volume                     2571.78
loop_
_atom_site_label
_atom_site_type_symbol
_atom_site_fract_x
_atom_site_fract_y
_atom_site_fract_z
C27 C 0.7459(4) 0.4841(3) 0.6024(2)
C28 C 0.6262(4) 0.4969(3) 0.5796(2)
H25 H 0.6283 0.4588 0.5387
C29 C 0.5041(5) 0.5647(3) 0.6160(3)
H26 H 0.4226 0.5725 0.6004
C30 C 0.5005(5) 0.6212(3) 0.6751(3)
H27 H 0.4164 0.6676 0.7001
C31 C 0.6191(5) 0.6103(3) 0.6981(3)
H28 H 0.6166 0.6498 0.7384
C32 C 0.7423(5) 0.5413(3) 0.6619(2)
H29 H 0.8236 0.5333 0.6778
C33 C 0.9603(4) 0.3118(3) 0.6336(2)
C34 C 1.0496(4) 0.3258(3) 0.6725(2)
H30 H 1.0874 0.3785 0.6594
C35 C 1.0839(5) 0.2633(3) 0.7304(2)
H31 H 1.1451 0.2731 0.7568
C36 C 1.0285(5) 0.1864(3) 0.7496(2)
H32 H 1.0524 0.1435 0.7891
C37 C 0.9398(4) 0.1720(3) 0.7121(2)
H33 H 0.9022 0.1194 0.7257
C38 C 0.9046(4) 0.2345(3) 0.6539(2)
H34 H 0.8428 0.2245 0.6280
C39 C 1.2143(4) 0.1468(3) 0.5019(2)
C40 C 1.2494(4) 0.1031(3) 0.5662(2)
H35 H 1.2085 0.0563 0.5906
C41 C 1.3437(4) 0.1274(3) 0.5950(2)
H36 H 1.3676 0.0969 0.6389
C42 C 1.4033(4) 0.1959(3) 0.5601(2)
H37 H 1.4672 0.2130 0.5804
C43 C 1.3699(4) 0.2395(3) 0.4957(2)
H38 H 1.4115 0.2862 0.4716
C44 C 1.2758(4) 0.2153(3) 0.4664(2)
H39 H 1.2531 0.2451 0.4221
C45 C 1.1795(4) 0.0619(3) 0.3754(2)
C46 C 1.2939(4) -0.0245(3) 0.3724(2)
H40 H 1.3241 -0.0494 0.4160
C47 C 1.3640(4) -0.0746(3) 0.3065(2)
H41 H 1.4421 -0.1336 0.3047
C48 C 1.3184(4) -0.0371(3) 0.2423(2)
H42 H 1.3654 -0.0715 0.1969
C49 C 1.2057(4) 0.0496(3) 0.2447(2)
H43 H 1.1758 0.0749 0.2011
C50 C 1.1363(4) 0.0993(3) 0.3112(2)
H44 H 1.0592 0.1591 0.3129
C51 C 1.0214(4) 0.4618(3) 0.53007(19)
H45 H 1.0219 0.4991 0.5733
H46 H 1.1148 0.4145 0.5119
C52 C 1.0430(4) 0.0221(3) 0.5173(2)
H47 H 1.1243 -0.0357 0.5151
H48 H 1.0050 0.0450 0.5672
Fe2 Fe 0.88696(6) 0.28410(4) 0.46077(3)
Cl2 Cl 0.70493(10) 0.23680(8) 0.49954(6)
P3 P 0.90522(10) 0.38831(7) 0.55730(5)
Cl3 Cl 0.89912(12) 0.37598(8) 0.36007(5)
P4 P 1.08429(10) 0.12552(7) 0.46280(5)
C27A C 1.2541(4) 0.5159(3) 0.3976(2)
C28A C 1.3738(4) 0.5031(3) 0.4204(2)
H25A H 1.3717 0.5412 0.4613
C29A C 1.4959(5) 0.4353(3) 0.3840(3)
H26A H 1.5774 0.4275 0.3996
C30A C 1.4995(5) 0.3788(3) 0.3249(3)
H27A H 1.5836 0.3324 0.2999
C31A C 1.3809(5) 0.3897(3) 0.3019(3)
H28A H 1.3834 0.3502 0.2616
C32A C 1.2577(5) 0.4587(3) 0.3381(2)
H29A H 1.1764 0.4667 0.3222
C33A C 1.0397(4) 0.6882(3) 0.3664(2)
C34A C 0.9504(4) 0.6742(3) 0.3275(2)
H30A H 0.9126 0.6215 0.3406
C35A C 0.9161(5) 0.7367(3) 0.2696(2)
H31A H 0.8549 0.7269 0.2432
C36A C 0.9715(5) 0.8136(3) 0.2504(2)
H32A H 0.9476 0.8565 0.2109
C37A C 1.0602(4) 0.8280(3) 0.2879(2)
H33A H 1.0978 0.8806 0.2743
C38A C 1.0954(4) 0.7655(3) 0.3461(2)
H34A H 1.1572 0.7755 0.3720
C51A C 0.9786(4) 0.5382(3) 0.46993(19)
H45A H 0.9781 0.5009 0.4267
H46A H 0.8852 0.5855 0.4881
P3A P 1.09478(10) 0.61169(7) 0.44270(5)
C39A C 0.7857(4) -0.1468(3) 0.4981(2)
C40A C 0.7506(4) -0.1031(3) 0.4338(2)
H35A H 0.7915 -0.0563 0.4094
C41A C 0.6563(4) -0.1274(3) 0.4050(2)
H36A H 0.6324 -0.0969 0.3611
C42A C 0.5967(4) -0.1959(3) 0.4399(2)
H37A H 0.5328 -0.2130 0.4196
C43A C 0.6301(4) -0.2395(3) 0.5043(2)
H38A H 0.5885 -0.2862 0.5284
C44A C 0.7242(4) -0.2153(3) 0.5336(2)
H39A H 0.7469 -0.2451 0.5779
C45A C 0.8205(4) -0.0619(3) 0.6246(2)
C46A C 0.7061(4) 0.0245(3) 0.6276(2)
H40A H 0.6759 0.0494 0.5840
C47A C 0.6360(4) 0.0746(3) 0.6935(2)
H41A H 0.5579 0.1336 0.6953
C48A C 0.6816(4) 0.0371(3) 0.7577(2)
H42A H 0.6346 0.0715 0.8031
C49A C 0.7943(4) -0.0496(3) 0.7553(2)
H43A H 0.8242 -0.0749 0.7989
C50A C 0.8637(4) -0.0993(3) 0.6888(2)
H44A H 0.9408 -0.1591 0.6871
C52A C 0.9570(4) -0.0221(3) 0.4827(2)
H47A H 0.8757 0.0357 0.4849
H48A H 0.9950 -0.0450 0.4328
P4A P 0.91571(10) -0.12552(7) 0.53720(5)
Fe2A Fe 1.11304(6) -0.28410(4) 0.53923(3)
Cl2A Cl 1.29507(10) -0.23680(8) 0.50046(6)
Cl3A Cl 1.10088(12) -0.37598(8) 0.63993(5)
Fe2A_2 Fe 1.11304(6) 0.71590(4) 0.53923(3)
P3A_2 P 1.09478(10) -0.38831(7) 0.44270(5)
C53 C -0.4091(7) 0.6512(6) 0.2258(4)
C54 C -0.5592(11) 0.6553(8) 0.2482(7)
H49 H -0.6151 0.7094 0.2217
H50 H -0.5920 0.6691 0.3009
H51 H -0.5653 0.5898 0.2362
C55 C -0.3003(7) 0.5612(5) 0.2415(4)
H52 H -0.2171 0.5528 0.2043
H53 H -0.3273 0.5009 0.2411
H54 H -0.2835 0.5696 0.2898
O1 O -0.3808(5) 0.7219(3) 0.1972(3)
Fe1 Fe 0.0000 1.0000 0.0000
Cl1 Cl 0.11228(9) 0.96585(6) 0.09769(5)
P1 P -0.24932(10) 1.07615(7) 0.08082(5)
C1 C -0.3684(4) 1.1954(3) 0.0551(2)
C2 C -0.4009(4) 1.2850(3) 0.0957(2)
H1 H -0.3656 1.2830 0.1382
C3 C -0.4841(4) 1.3762(3) 0.0742(2)
H2 H -0.5055 1.4365 0.1021
C4 C -0.5368(4) 1.3805(3) 0.0123(3)
H3 H -0.5946 1.4433 -0.0020
C5 C -0.5044(4) 1.2927(3) -0.0282(2)
H4 H -0.5402 1.2953 -0.0707
C6 C -0.4201(4) 1.2005(3) -0.0078(2)
H5 H -0.3977 1.1407 -0.0366
C7 C -0.2921(4) 1.0889(3) 0.1805(2)
C8 C -0.4233(4) 1.0981(3) 0.2211(2)
H6 H -0.4909 1.0951 0.1966
C9 C -0.4545(4) 1.1113(3) 0.2962(2)
H7 H -0.5427 1.1159 0.3229
C10 C -0.3586(4) 1.1180(3) 0.3328(2)
H8 H -0.3815 1.1285 0.3843
C11 C -0.2291(4) 1.1094(3) 0.2940(2)
H9 H -0.1627 1.1132 0.3191
C12 C -0.1958(4) 1.0951(3) 0.2182(2)
H10 H -0.1068 1.0895 0.1920
C13 C -0.0980(4) 0.7859(3) -0.05969(19)
C14 C -0.2248(4) 0.7871(3) -0.0687(2)
H11 H -0.3036 0.8160 -0.0315
C15 C -0.2361(4) 0.7461(3) -0.1320(2)
H12 H -0.3226 0.7468 -0.1376
C16 C -0.1222(4) 0.7042(3) -0.1871(2)
H13 H -0.1306 0.6762 -0.2301
C17 C 0.0034(4) 0.7034(3) -0.1790(2)
H14 H 0.0816 0.6750 -0.2166
C18 C 0.0157(4) 0.7439(3) -0.1159(2)
H15 H 0.1025 0.7431 -0.1108
C19 C 0.0214(4) 0.7159(3) 0.0601(2)
C20 C 0.1376(4) 0.7064(3) 0.0850(2)
H16 H 0.1714 0.7616 0.0807
C21 C 0.2055(4) 0.6160(3) 0.1166(2)
H17 H 0.2858 0.6099 0.1330
C22 C 0.1564(4) 0.5359(3) 0.1239(2)
H18 H 0.2015 0.4751 0.1464
C23 C 0.0409(5) 0.5442(3) 0.0985(2)
H19 H 0.0080 0.4885 0.1026
C24 C -0.0264(4) 0.6330(3) 0.0673(2)
H20 H -0.1059 0.6382 0.0504
C25 C -0.3255(4) 0.9813(3) 0.0649(2)
H21 H -0.4181 0.9981 0.0959
H22 H -0.3328 0.9822 0.0131
C26 C -0.2360(4) 0.8748(3) 0.0834(2)
H23 H -0.2821 0.8250 0.0801
H24 H -0.2241 0.8756 0.1342
P2 P -0.06789(10) 0.83479(7) 0.02061(5)
Cl1A Cl -0.11228(9) 1.03415(6) -0.09769(5)
P1A P 0.24932(10) 0.92385(7) -0.08082(5)
C1A C 0.3684(4) 0.8046(3) -0.0551(2)
C2A C 0.4009(4) 0.7150(3) -0.0957(2)
H1A H 0.3656 0.7170 -0.1382
C3A C 0.4841(4) 0.6238(3) -0.0742(2)
H2A H 0.5055 0.5635 -0.1021
C4A C 0.5368(4) 0.6195(3) -0.0123(3)
H3A H 0.5946 0.5567 0.0020
C5A C 0.5044(4) 0.7073(3) 0.0282(2)
H4A H 0.5402 0.7047 0.0707
C6A C 0.4201(4) 0.7995(3) 0.0078(2)
H5A H 0.3977 0.8593 0.0366
C7A C 0.2921(4) 0.9111(3) -0.1805(2)
C8A C 0.4233(4) 0.9019(3) -0.2211(2)
H6A H 0.4909 0.9049 -0.1966
C9A C 0.4545(4) 0.8887(3) -0.2962(2)
H7A H 0.5427 0.8841 -0.3229
C10A C 0.3586(4) 0.8820(3) -0.3328(2)
H8A H 0.3815 0.8715 -0.3843
C11A C 0.2291(4) 0.8906(3) -0.2940(2)
H9A H 0.1627 0.8868 -0.3191
C12A C 0.1958(4) 0.9049(3) -0.2182(2)
H10A H 0.1068 0.9105 -0.1920
C13A C 0.0980(4) 1.2141(3) 0.05969(19)
C14A C 0.2248(4) 1.2129(3) 0.0687(2)
H11A H 0.3036 1.1840 0.0315
C15A C 0.2361(4) 1.2539(3) 0.1320(2)
H12A H 0.3226 1.2532 0.1376
C16A C 0.1222(4) 1.2958(3) 0.1871(2)
H13A H 0.1306 1.3238 0.2301
C17A C -0.0034(4) 1.2966(3) 0.1790(2)
H14A H -0.0816 1.3250 0.2166
C18A C -0.0157(4) 1.2561(3) 0.1159(2)
H15A H -0.1025 1.2569 0.1108
C19A C -0.0214(4) 1.2841(3) -0.0601(2)
C20A C -0.1376(4) 1.2936(3) -0.0850(2)
H16A H -0.1714 1.2384 -0.0807
C21A C -0.2055(4) 1.3840(3) -0.1166(2)
H17A H -0.2858 1.3901 -0.1330
C22A C -0.1564(4) 1.4641(3) -0.1239(2)
H18A H -0.2015 1.5249 -0.1464
C23A C -0.0409(5) 1.4558(3) -0.0985(2)
H19A H -0.0080 1.5115 -0.1026
C24A C 0.0264(4) 1.3670(3) -0.0673(2)
H20A H 0.1059 1.3618 -0.0504
C25A C 0.3255(4) 1.0187(3) -0.0649(2)
H21A H 0.4181 1.0019 -0.0959
H22A H 0.3328 1.0178 -0.0131
C26A C 0.2360(4) 1.1252(3) -0.0834(2)
H23A H 0.2821 1.1750 -0.0801
H24A H 0.2241 1.1244 -0.1342
P2A P 0.06789(10) 1.16521(7) -0.02061(5)
Cl4? Cl -0.5735(12) 0.6389(8) 0.2417(7)
Cl5? Cl -0.3251(7) 0.5080(5) 0.1629(4)
Cl6? Cl -0.3239(7) 0.6679(5) 0.2470(4)
C56? C -0.414(3) 0.583(2) 0.2411(18)
H55? H -0.4072 0.5374 0.2842
loop_
_geom_bond_atom_site_label_1
_geom_bond_atom_site_label_2
_geom_bond_site_symmetry_1
_geom_bond_site_symmetry_2
Fe1 Cl1 1_555 1_555
P1 Fe1 1_555 1_555
C1 P1 1_555 1_555
C2 C1 1_555 1_555
H1 C2 1_555 1_555
C3 C2 1_555 1_555
H2 C3 1_555 1_555
C4 C3 1_555 1_555
H3 C4 1_555 1_555
C5 C4 1_555 1_555
H4 C5 1_555 1_555
C6 C1 1_555 1_555
H5 C6 1_555 1_555
C7 P1 1_555 1_555
C8 C7 1_555 1_555
H6 C8 1_555 1_555
C9 C8 1_555 1_555
H7 C9 1_555 1_555
C10 C9 1_555 1_555
H8 C10 1_555 1_555
C11 C10 1_555 1_555
H9 C11 1_555 1_555
C12 C7 1_555 1_555
H10 C12 1_555 1_555
C13 C14 1_555 1_555
C14 H11 1_555 1_555
C15 C14 1_555 1_555
H12 C15 1_555 1_555
C16 C15 1_555 1_555
H13 C16 1_555 1_555
C17 C16 1_555 1_555
H14 C17 1_555 1_555
C18 C13 1_555 1_555
H15 C18 1_555 1_555
C19 C20 1_555 1_555
C20 H16 1_555 1_555
C21 C20 1_555 1_555
H17 C21 1_555 1_555
C22 C21 1_555 1_555
H18 C22 1_555 1_555
C23 C22 1_555 1_555
H19 C23 1_555 1_555
C24 C19 1_555 1_555
H20 C24 1_555 1_555
C25 P1 1_555 1_555
H21 C25 1_555 1_555
H22 C25 1_555 1_555
C26 C25 1_555 1_555
H23 C26 1_555 1_555
H24 C26 1_555 1_555
P2 Fe1 1_555 1_555
C27 C28 1_555 1_555
C28 H25 1_555 1_555
C29 C28 1_555 1_555
H26 C29 1_555 1_555
C30 C29 1_555 1_555
H27 C30 1_555 1_555
C31 C30 1_555 1_555
H28 C31 1_555 1_555
C32 C27 1_555 1_555
H29 C32 1_555 1_555
C33 C34 1_555 1_555
C34 H30 1_555 1_555
C35 C34 1_555 1_555
H31 C35 1_555 1_555
C36 C35 1_555 1_555
H32 C36 1_555 1_555
C37 C36 1_555 1_555
H33 C37 1_555 1_555
C38 C33 1_555 1_555
H34 C38 1_555 1_555
C39 C40 1_555 1_555
C40 H35 1_555 1_555
C41 C40 1_555 1_555
H36 C41 1_555 1_555
C42 C41 1_555 1_555
H37 C42 1_555 1_555
C43 C42 1_555 1_555
H38 C43 1_555 1_555
C44 C39 1_555 1_555
H39 C44 1_555 1_555
C45 C46 1_555 1_555
C46 H40 1_555 1_555
C47 C46 1_555 1_555
H41 C47 1_555 1_555
C48 C47 1_555 1_555
H42 C48 1_555 1_555
C49 C48 1_555 1_555
H43 C49 1_555 1_555
C50 C45 1_555 1_555
H44 C50 1_555 1_555
C51 H45 1_555 1_555
H46 C51 1_555 1_555
C52 H47 1_555 1_555
H48 C52 1_555 1_555
Fe2 Cl2 1_555 1_555
P3 C27 1_555 1_555
Cl3 Fe2 1_555 1_555
P4 C39 1_555 1_555
C53 C54 1_555 1_555
C54 H49 1_555 1_555
H50 C54 1_555 1_555
H51 C54 1_555 1_555
C55 C53 1_555 1_555
H52 C55 1_555 1_555
H53 C55 1_555 1_555
H54 C55 1_555 1_555
O1 C53 1_555 1_555
Cl1A Fe1 1_555 1_555
P1A Fe1 1_555 1_555
C1A P1A 1_555 1_555
C2A C1A 1_555 1_555
H1A C2A 1_555 1_555
C3A C2A 1_555 1_555
H2A C3A 1_555 1_555
C4A C3A 1_555 1_555
H3A C4A 1_555 1_555
C5A C4A 1_555 1_555
H4A C5A 1_555 1_555
C6A C1A 1_555 1_555
H5A C6A 1_555 1_555
C7A P1A 1_555 1_555
C8A C7A 1_555 1_555
H6A C8A 1_555 1_555
C9A C8A 1_555 1_555
H7A C9A 1_555 1_555
C10A C9A 1_555 1_555
H8A C10A 1_555 1_555
C11A C10A 1_555 1_555
H9A C11A 1_555 1_555
C12A C7A 1_555 1_555
H10A C12A 1_555 1_555
C13A C14A 1_555 1_555
C14A H11A 1_555 1_555
C15A C14A 1_555 1_555
H12A C15A 1_555 1_555
C16A C15A 1_555 1_555
H13A C16A 1_555 1_555
C17A C16A 1_555 1_555
H14A C17A 1_555 1_555
C18A C13A 1_555 1_555
H15A C18A 1_555 1_555
C19A C20A 1_555 1_555
C20A H16A 1_555 1_555
C21A C20A 1_555 1_555
H17A C21A 1_555 1_555
C22A C21A 1_555 1_555
H18A C22A 1_555 1_555
C23A C22A 1_555 1_555
H19A C23A 1_555 1_555
C24A C19A 1_555 1_555
H20A C24A 1_555 1_555
C25A P1A 1_555 1_555
H21A C25A 1_555 1_555
H22A C25A 1_555 1_555
C26A C25A 1_555 1_555
H23A C26A 1_555 1_555
H24A C26A 1_555 1_555
P2A Fe1 1_555 1_555
C27A C28A 1_555 1_555
C28A H25A 1_555 1_555
C29A C28A 1_555 1_555
H26A C29A 1_555 1_555
C30A C29A 1_555 1_555
H27A C30A 1_555 1_555
C31A C30A 1_555 1_555
H28A C31A 1_555 1_555
C32A C27A 1_555 1_555
H29A C32A 1_555 1_555
C33A C34A 1_555 1_555
C34A H30A 1_555 1_555
C35A C34A 1_555 1_555
H31A C35A 1_555 1_555
C36A C35A 1_555 1_555
H32A C36A 1_555 1_555
C37A C36A 1_555 1_555
H33A C37A 1_555 1_555
C38A C33A 1_555 1_555
H34A C38A 1_555 1_555
C51A C51 1_555 1_555
H45A C51A 1_555 1_555
H46A C51A 1_555 1_555
P3A C27A 1_555 1_555
C39A C40A 1_555 1_555
C40A H35A 1_555 1_555
C41A C40A 1_555 1_555
H36A C41A 1_555 1_555
C42A C41A 1_555 1_555
H37A C42A 1_555 1_555
C43A C42A 1_555 1_555
H38A C43A 1_555 1_555
C44A C39A 1_555 1_555
H39A C44A 1_555 1_555
C45A C46A 1_555 1_555
C46A H40A 1_555 1_555
C47A C46A 1_555 1_555
H41A C47A 1_555 1_555
C48A C47A 1_555 1_555
H42A C48A 1_555 1_555
C49A C48A 1_555 1_555
H43A C49A 1_555 1_555
C50A C45A 1_555 1_555
H44A C50A 1_555 1_555
C52A C52 1_555 1_555
H47A C52A 1_555 1_555
H48A C52A 1_555 1_555
P4A C39A 1_555 1_555
Fe2A P4A 1_555 1_555
Cl2A Fe2A 1_555 1_555
Cl3A Fe2A 1_555 1_555
Fe2A_2 P3A 1_555 1_555
P3A_2 Fe2A 1_555 1_555
C5 C6 1_555 1_555
C11 C12 1_555 1_555
C13 P2 1_555 1_555
C17 C18 1_555 1_555
C19 P2 1_555 1_555
C23 C24 1_555 1_555
C26 P2 1_555 1_555
C31 C32 1_555 1_555
C33 P3 1_555 1_555
C37 C38 1_555 1_555
C43 C44 1_555 1_555
C45 P4 1_555 1_555
C49 C50 1_555 1_555
C51 P3 1_555 1_555
C52 P4 1_555 1_555
Fe2 P3 1_555 1_555
Fe2 P4 1_555 1_555
C5A C6A 1_555 1_555
C11A C12A 1_555 1_555
C13A P2A 1_555 1_555
C17A C18A 1_555 1_555
C19A P2A 1_555 1_555
C23A C24A 1_555 1_555
C26A P2A 1_555 1_555
C31A C32A 1_555 1_555
C33A P3A 1_555 1_555
C37A C38A 1_555 1_555
C51A P3A 1_555 1_555
C43A C44A 1_555 1_555
C45A P4A 1_555 1_555
C49A C50A 1_555 1_555
C52A P4A 1_555 1_555

#END
