
#######################################################################
#
#                 Cambridge Crystallographic Data Centre
#                                CCDC 
#
#######################################################################
#
# If this CIF has been generated from an entry in the Cambridge 
# Structural Database, then it will include bibliographic, chemical, 
# crystal, experimental, refinement or atomic coordinate data resulting 
# from the CCDC's data processing and validation procedures.
#
#######################################################################

data_KOVXAW
_symmetry_cell_setting           monoclinic
_symmetry_space_group_name_H-M   'P 21/n'
_symmetry_Int_Tables_number      14
_space_group_name_Hall           '-P 2yn'
loop_
_symmetry_equiv_pos_site_id
_symmetry_equiv_pos_as_xyz
1 x,y,z
2 1/2-x,1/2+y,1/2-z
3 -x,-y,-z
4 1/2+x,1/2-y,1/2+z
_cell_length_a                   13.008(3)
_cell_length_b                   11.495(2)
_cell_length_c                   16.800(3)
_cell_angle_alpha                90
_cell_angle_beta                 100.08(3)
_cell_angle_gamma                90
_cell_volume                     2473.28
loop_
_atom_site_label
_atom_site_type_symbol
_atom_site_fract_x
_atom_site_fract_y
_atom_site_fract_z
Fe1 Fe 0.26444(3) 0.87334(3) 0.04451(2)
P1 P 0.32886(6) 1.03839(5) -0.02882(4)
P2 P 0.08048(5) 0.82939(5) -0.00727(4)
Cl1 Cl 0.25771(6) 0.92144(5) 0.17246(3)
Cl2 Cl 0.35253(6) 0.72456(5) 0.00246(4)
C1 C 0.3403(2) 1.18274(19) 0.01657(14)
C2 C 0.3267(2) 1.1978(2) 0.09697(15)
H1 H 0.3089 1.1332 0.1271
C3 C 0.3392(3) 1.3069(2) 0.13240(16)
H2 H 0.3299 1.3163 0.1869
C4 C 0.3647(2) 1.4018(2) 0.09000(18)
H3 H 0.3724 1.4763 0.1148
C5 C 0.3792(2) 1.3877(2) 0.01086(17)
H4 H 0.3973 1.4528 -0.0186
C6 C 0.3676(2) 1.2802(2) -0.02535(15)
H5 H 0.3782 1.2718 -0.0796
C7 C 0.26110(19) 1.06213(19) -0.13235(13)
C8 C 0.1832(2) 1.1462(2) -0.15024(14)
H6 H 0.1679 1.1955 -0.1084
C9 C 0.1275(2) 1.1591(2) -0.22846(16)
H7 H 0.0737 1.2158 -0.2395
C10 C 0.1505(2) 1.0894(2) -0.28976(16)
H8 H 0.1137 1.0991 -0.3434
C11 C 0.2265(3) 1.0061(2) -0.27327(15)
H9 H 0.2417 0.9581 -0.3157
C12 C 0.2813(2) 0.9910(2) -0.19567(14)
H10 H 0.3331 0.9320 -0.1852
C13 C 0.0352(2) 0.70176(18) 0.04138(14)
C14 C 0.0959(3) 0.6623(2) 0.11290(15)
H11 H 0.1619 0.6968 0.1323
C15 C 0.0594(3) 0.5722(2) 0.15576(17)
H12 H 0.1003 0.5459 0.2049
C16 C -0.0346(3) 0.5214(2) 0.12776(19)
H13 H -0.0584 0.4596 0.1574
C17 C -0.0951(2) 0.5587(2) 0.05711(18)
H14 H -0.1608 0.5231 0.0381
C18 C -0.0598(2) 0.64924(19) 0.01332(16)
H15 H -0.1013 0.6747 -0.0358
C19 C 0.0413(2) 0.81081(18) -0.11633(13)
C20 C -0.0576(2) 0.8388(2) -0.15775(14)
H16 H -0.1088 0.8679 -0.1289
C21 C -0.0822(2) 0.8247(2) -0.24101(15)
H17 H -0.1501 0.8435 -0.2690
C22 C -0.0075(2) 0.7831(2) -0.28284(15)
H18 H -0.0241 0.7732 -0.3398
C23 C 0.0900(2) 0.7562(2) -0.24300(14)
H19 H 0.1408 0.7278 -0.2724
C24 C 0.1159(2) 0.77008(19) -0.15940(14)
H20 H 0.1842 0.7517 -0.1320
C25 C 0.4634(2) 1.0050(2) -0.04091(14)
H21 H 0.4898(19) 1.0637(18) -0.0749(13)
H22 H 0.4627(19) 0.933(2) -0.0718(13)
C26 C -0.0077(2) 0.9403(2) 0.01859(15)
H23 H 0.0061(18) 0.9426(17) 0.0758(14)
H24 H -0.080(2) 0.9184(17) 0.0034(12)
P1B P 0.67114(6) 0.96161(5) 0.02882(4)
C1B C 0.6597(2) 0.81726(19) -0.01657(14)
C2B C 0.6733(2) 0.8022(2) -0.09697(15)
H1B H 0.6911 0.8668 -0.1271
C3B C 0.6608(3) 0.6931(2) -0.13240(16)
H2B H 0.6701 0.6837 -0.1869
C4B C 0.6353(2) 0.5982(2) -0.09000(18)
H3B H 0.6276 0.5237 -0.1148
C5B C 0.6208(2) 0.6123(2) -0.01086(17)
H4B H 0.6027 0.5472 0.0186
C6B C 0.6324(2) 0.7198(2) 0.02535(15)
H5B H 0.6218 0.7282 0.0796
C7B C 0.73890(19) 0.93787(19) 0.13235(13)
C8B C 0.8168(2) 0.8538(2) 0.15024(14)
H6B H 0.8321 0.8045 0.1084
C9B C 0.8725(2) 0.8409(2) 0.22846(16)
H7B H 0.9263 0.7842 0.2395
C10B C 0.8495(2) 0.9106(2) 0.28976(16)
H8B H 0.8863 0.9009 0.3434
C11B C 0.7735(3) 0.9939(2) 0.27327(15)
H9B H 0.7583 1.0419 0.3157
C12B C 0.7187(2) 1.0090(2) 0.19567(14)
H10B H 0.6669 1.0680 0.1852
C25B C 0.5366(2) 0.9950(2) 0.04091(14)
H21B H 0.5102(19) 0.9363(18) 0.0749(13)
H22B H 0.5373(19) 1.067(2) 0.0718(13)
P2B P -0.08048(5) 1.17061(5) 0.00727(4)
C13B C -0.0352(2) 1.29824(18) -0.04138(14)
C14B C -0.0959(3) 1.3377(2) -0.11290(15)
H11B H -0.1619 1.3032 -0.1323
C15B C -0.0594(3) 1.4278(2) -0.15576(17)
H12B H -0.1003 1.4541 -0.2049
C16B C 0.0346(3) 1.4786(2) -0.12776(19)
H13B H 0.0584 1.5404 -0.1574
C17B C 0.0951(2) 1.4413(2) -0.05711(18)
H14B H 0.1608 1.4769 -0.0381
C18B C 0.0598(2) 1.35076(19) -0.01332(16)
H15B H 0.1013 1.3253 0.0358
C19B C -0.0413(2) 1.18919(18) 0.11633(13)
C20B C 0.0576(2) 1.1612(2) 0.15775(14)
H16B H 0.1088 1.1321 0.1289
C21B C 0.0822(2) 1.1753(2) 0.24101(15)
H17B H 0.1501 1.1565 0.2690
C22B C 0.0075(2) 1.2169(2) 0.28284(15)
H18B H 0.0241 1.2268 0.3398
C23B C -0.0900(2) 1.2438(2) 0.24300(14)
H19B H -0.1408 1.2722 0.2724
C24B C -0.1159(2) 1.22992(19) 0.15940(14)
H20B H -0.1842 1.2483 0.1320
C26B C 0.0077(2) 1.0597(2) -0.01859(15)
H23B H -0.0061(18) 1.0574(17) -0.0758(14)
H24B H 0.080(2) 1.0816(17) -0.0034(12)
Fe1B Fe -0.26444(3) 1.12666(3) -0.04451(2)
Cl1B Cl -0.25771(6) 1.07856(5) -0.17246(3)
Cl2B Cl -0.35253(6) 1.27544(5) -0.00246(4)
Fe1B_2 Fe 0.73556(3) 1.12666(3) -0.04451(2)
P1B_2 P -0.32886(6) 0.96161(5) 0.02882(4)
loop_
_geom_bond_atom_site_label_1
_geom_bond_atom_site_label_2
_geom_bond_site_symmetry_1
_geom_bond_site_symmetry_2
Fe1 P1 1_555 1_555
P1 C1 1_555 1_555
P2 Fe1 1_555 1_555
Cl1 Fe1 1_555 1_555
Cl2 Fe1 1_555 1_555
C1 C2 1_555 1_555
C2 H1 1_555 1_555
C3 C2 1_555 1_555
H2 C3 1_555 1_555
C4 C3 1_555 1_555
H3 C4 1_555 1_555
C5 C4 1_555 1_555
H4 C5 1_555 1_555
C6 C1 1_555 1_555
H5 C6 1_555 1_555
C7 P1 1_555 1_555
C8 C7 1_555 1_555
H6 C8 1_555 1_555
C9 C8 1_555 1_555
H7 C9 1_555 1_555
C10 C9 1_555 1_555
H8 C10 1_555 1_555
C11 C10 1_555 1_555
H9 C11 1_555 1_555
C12 C7 1_555 1_555
H10 C12 1_555 1_555
C13 P2 1_555 1_555
C14 C13 1_555 1_555
H11 C14 1_555 1_555
C15 C14 1_555 1_555
H12 C15 1_555 1_555
C16 C15 1_555 1_555
H13 C16 1_555 1_555
C17 C16 1_555 1_555
H14 C17 1_555 1_555
C18 C13 1_555 1_555
H15 C18 1_555 1_555
C19 P2 1_555 1_555
C20 C19 1_555 1_555
H16 C20 1_555 1_555
C21 C20 1_555 1_555
H17 C21 1_555 1_555
C22 C21 1_555 1_555
H18 C22 1_555 1_555
C23 C22 1_555 1_555
H19 C23 1_555 1_555
C24 C19 1_555 1_555
H20 C24 1_555 1_555
C25 P1 1_555 1_555
H21 C25 1_555 1_555
H22 C25 1_555 1_555
C26 P2 1_555 1_555
H23 C26 1_555 1_555
H24 C26 1_555 1_555
P1B C1B 1_555 1_555
C1B C2B 1_555 1_555
C2B H1B 1_555 1_555
C3B C2B 1_555 1_555
H2B C3B 1_555 1_555
C4B C3B 1_555 1_555
H3B C4B 1_555 1_555
C5B C4B 1_555 1_555
H4B C5B 1_555 1_555
C6B C1B 1_555 1_555
H5B C6B 1_555 1_555
C7B P1B 1_555 1_555
C8B C7B 1_555 1_555
H6B C8B 1_555 1_555
C9B C8B 1_555 1_555
H7B C9B 1_555 1_555
C10B C9B 1_555 1_555
H8B C10B 1_555 1_555
C11B C10B 1_555 1_555
H9B C11B 1_555 1_555
C12B C7B 1_555 1_555
H10B C12B 1_555 1_555
C25B C25 1_555 1_555
H21B C25B 1_555 1_555
H22B C25B 1_555 1_555
P2B C13B 1_555 1_555
C13B C14B 1_555 1_555
C14B H11B 1_555 1_555
C15B C14B 1_555 1_555
H12B C15B 1_555 1_555
C16B C15B 1_555 1_555
H13B C16B 1_555 1_555
C17B C16B 1_555 1_555
H14B C17B 1_555 1_555
C18B C13B 1_555 1_555
H15B C18B 1_555 1_555
C19B P2B 1_555 1_555
C20B C19B 1_555 1_555
H16B C20B 1_555 1_555
C21B C20B 1_555 1_555
H17B C21B 1_555 1_555
C22B C21B 1_555 1_555
H18B C22B 1_555 1_555
C23B C22B 1_555 1_555
H19B C23B 1_555 1_555
C24B C19B 1_555 1_555
H20B C24B 1_555 1_555
C26B C26 1_555 1_555
H23B C26B 1_555 1_555
H24B C26B 1_555 1_555
Fe1B P2B 1_555 1_555
Cl1B Fe1B 1_555 1_555
Cl2B Fe1B 1_555 1_555
Fe1B_2 P1B 1_555 1_555
P1B_2 Fe1B 1_555 1_555
C5 C6 1_555 1_555
C11 C12 1_555 1_555
C17 C18 1_555 1_555
C23 C24 1_555 1_555
P1B C25B 1_555 1_555
C5B C6B 1_555 1_555
C11B C12B 1_555 1_555
P2B C26B 1_555 1_555
C17B C18B 1_555 1_555
C23B C24B 1_555 1_555

#END
