
#######################################################################
#
#                 Cambridge Crystallographic Data Centre
#                                CCDC 
#
#######################################################################
#
# If this CIF has been generated from an entry in the Cambridge 
# Structural Database, then it will include bibliographic, chemical, 
# crystal, experimental, refinement or atomic coordinate data resulting 
# from the CCDC's data processing and validation procedures.
#
#######################################################################

data_KOVZEC
_symmetry_cell_setting           triclinic
_symmetry_space_group_name_H-M   'P -1'
_symmetry_Int_Tables_number      2
_space_group_name_Hall           '-P 1'
loop_
_symmetry_equiv_pos_site_id
_symmetry_equiv_pos_as_xyz
1 x,y,z
2 -x,-y,-z
_cell_length_a                   12.3280(8)
_cell_length_b                   12.6960(8)
_cell_length_c                   13.8590(9)
_cell_angle_alpha                106.6980(10)
_cell_angle_beta                 108.0700(10)
_cell_angle_gamma                108.9910(10)
_cell_volume                     1758.66
loop_
_atom_site_label
_atom_site_type_symbol
_atom_site_fract_x
_atom_site_fract_y
_atom_site_fract_z
O28 O 0.0000 0.0000 1.0000
W1 W 0.26384(6) 0.26961(5) 0.56046(5)
P1 P 0.0000 0.0000 0.5000
O1 O 0.1917(10) -0.2642(9) 0.3184(8)
W2 W 0.18632(6) 0.23503(5) 0.77839(5)
O2 O 0.2763(16) -0.0542(13) 0.5095(12)
W3 W 0.05055(7) -0.21860(6) 0.59135(5)
O3 O 0.0799(16) -0.2608(13) 0.4607(12)
W4 W 0.31598(6) 0.05371(6) 0.65763(5)
O4 O -0.0992(18) 0.0632(16) 0.4692(14)
W5 W 0.13080(7) -0.17444(6) 0.37498(7)
O5 O -0.141(2) -0.1022(18) 0.4126(15)
W6 W -0.07513(7) -0.04028(7) 0.71713(6)
O6 O 0.0842(18) 0.1020(16) 0.8045(16)
O7 O 0.0571(18) 0.1028(16) 0.4616(15)
O8 O 0.2503(15) 0.3146(13) 0.6985(10)
O9 O 0.2221(15) 0.1749(15) 0.4111(10)
O10 O -0.1108(14) -0.0564(14) 0.8232(12)
O11 O 0.2757(14) 0.3440(10) 0.9086(9)
O12 O 0.1540(17) -0.0623(15) 0.3122(16)
O13 O 0.4646(13) 0.0810(14) 0.7328(11)
O14 O 0.0740(13) -0.3260(11) 0.6335(10)
O15 O 0.3887(16) 0.3985(11) 0.5902(16)
O16 O 0.3501(18) 0.1821(14) 0.6087(10)
O17 O 0.2185(18) -0.0874(15) 0.6706(14)
O18 O 0.0144(13) -0.1347(13) 0.7049(10)
O19 O 0.2881(15) 0.1523(13) 0.7693(11)
O20 O -0.1244(17) -0.3063(17) 0.4941(10)
O21 O 0.0450(17) 0.2667(16) 0.7298(16)
O22 O -0.0020(18) -0.0744(18) 0.3780(15)
Cu1 Cu 0.2404(2) -0.43910(18) 0.32724(15)
N1 N 0.3817(14) -0.3142(12) 0.4786(10)
C1 C 0.1279(19) -0.3710(15) 0.9554(14)
N2 N -0.0923(15) -0.4511(12) 0.8257(11)
C2 C 0.0188(17) -0.4518(15) 0.8520(13)
H1 H 0.0262 -0.5096 0.7988
C3 C 0.5031(16) -0.2586(17) 0.6744(14)
N3 N 0.3153(17) -0.3604(19) 0.9251(15)
C4 C 0.5737(19) -0.139(2) 0.6896(17)
H2 H 0.6378 -0.0800 0.7607
N4 N 0.453(2) -0.338(2) 0.8026(15)
C5 C 0.5372(19) -0.295(2) 0.7681(16)
C6 C -0.008(3) -0.285(2) 1.006(2)
H3 H -0.0198 -0.2265 1.0539
C7 C 0.113(3) -0.286(3) 1.0361(19)
H4 H 0.1803 -0.2332 1.1074
C8 C 0.4083(18) -0.3424(17) 0.5666(14)
H5 H 0.3603 -0.4226 0.5546
C9 C -0.105(2) -0.372(2) 0.9018(18)
H6 H -0.1863 -0.3764 0.8839
C10 C 0.5501(19) -0.1087(17) 0.6020(16)
H7 H 0.5973 -0.0292 0.6119
C11 C 0.4511(15) -0.2014(15) 0.4945(14)
H8 H 0.4349 -0.1817 0.4336
C12 C 0.315(3) -0.358(3) 0.759(2)
H9 H 0.2996 -0.3201 0.7081
H10 H 0.2569 -0.4462 0.7174
C13 C 0.293(3) -0.308(3) 0.847(2)
H11 H 0.2046 -0.3216 0.8192
H12 H 0.3480 -0.2200 0.8856
C14 C 0.473(2) -0.400(3) 0.8806(19)
H13 H 0.4173 -0.4879 0.8387
H14 H 0.5607 -0.3864 0.9107
C15 C 0.2514(18) -0.3755(17) 0.9892(14)
C16 C 0.445(2) -0.353(3) 0.968(2)
H15 H 0.5084 -0.2670 1.0158
H16 H 0.4507 -0.3984 1.0129
O23 O 0.2957(18) -0.3929(18) 1.0698(12)
O24 O 0.6403(14) -0.2996(15) 0.8028(11)
O25 O 0.1228(14) -0.4652(11) 0.4023(11)
O26 O 0.2694(17) -0.6001(13) 0.3402(12)
O27 O 0.3623(11) -0.4007(12) 0.2621(9)
O4A O 0.0992(18) -0.0632(16) 0.5308(14)
O5A O 0.141(2) 0.1022(18) 0.5874(15)
O7A O -0.0571(18) -0.1028(16) 0.5384(15)
O22A O 0.0020(18) 0.0744(18) 0.6220(15)
W1A W -0.26384(6) -1.26961(5) 0.43954(5)
O1A O -0.1917(10) -0.7358(9) 0.6816(8)
W2A W -0.18632(6) -1.23503(5) 0.22161(5)
O2A O -0.2763(16) -0.9458(13) 0.4905(12)
W3A W -0.05055(7) -0.78140(6) 0.40865(5)
O3A O -0.0799(16) -0.7392(13) 0.5393(12)
W4A W -0.31598(6) -1.05371(6) 0.34237(5)
W5A W -0.13080(7) -0.82556(6) 0.62502(7)
W6A W 0.07513(7) -0.95972(7) 0.28287(6)
O6A O -0.0842(18) -1.1020(16) 0.1955(16)
O8A O -0.2503(15) -1.3146(13) 0.3015(10)
O9A O -0.2221(15) -1.1749(15) 0.5889(10)
O10A O 0.1108(14) -0.9436(14) 0.1768(12)
O11A O -0.2757(14) -1.3440(10) 0.0914(9)
O12A O -0.1540(17) -0.9377(15) 0.6878(16)
O13A O -0.4646(13) -1.0810(14) 0.2672(11)
O14A O -0.0740(13) -0.6740(11) 0.3665(10)
O15A O -0.3887(16) -1.3985(11) 0.4098(16)
O16A O -0.3501(18) -1.1821(14) 0.3913(10)
O17A O -0.2185(18) -0.9126(15) 0.3294(14)
O18A O -0.0144(13) -0.8653(13) 0.2951(10)
O19A O -0.2881(15) -1.1523(13) 0.2307(11)
O20A O 0.1244(17) -0.6937(17) 0.5059(10)
O21A O -0.0450(17) -1.2667(16) 0.2702(16)
Cu1A Cu -0.2404(2) -0.56090(18) 0.67276(15)
N1A N -0.3817(14) -0.6858(12) 0.5214(10)
C1A C -0.1279(19) -0.6290(15) 0.0446(14)
N2A N 0.0923(15) -0.5489(12) 0.1743(11)
C2A C -0.0188(17) -0.5482(15) 0.1480(13)
H1A H -0.0262 -0.4904 0.2012
C3A C -0.5031(16) -0.7414(17) 0.3256(14)
N3A N -0.3153(17) -0.6396(19) 0.0749(15)
C4A C -0.5737(19) -0.861(2) 0.3104(17)
H2A H -0.6378 -0.9200 0.2393
N4A N -0.453(2) -0.662(2) 0.1974(15)
C5A C -0.5372(19) -0.705(2) 0.2319(16)
C6A C 0.008(3) -0.715(2) -0.006(2)
H3A H 0.0198 -0.7735 -0.0539
C7A C -0.113(3) -0.714(3) -0.0361(19)
H4A H -0.1803 -0.7668 -0.1074
C8A C -0.4083(18) -0.6576(17) 0.4334(14)
H5A H -0.3603 -0.5774 0.4454
C9A C 0.105(2) -0.628(2) 0.0982(18)
H6A H 0.1863 -0.6236 0.1161
C10A C -0.5501(19) -0.8913(17) 0.3980(16)
H7A H -0.5973 -0.9708 0.3881
C11A C -0.4511(15) -0.7986(15) 0.5055(14)
H8A H -0.4349 -0.8183 0.5664
C12A C -0.315(3) -0.642(3) 0.241(2)
H9A H -0.2996 -0.6799 0.2919
H10A H -0.2569 -0.5538 0.2826
C13A C -0.293(3) -0.692(3) 0.153(2)
H11A H -0.2046 -0.6784 0.1808
H12A H -0.3480 -0.7800 0.1144
C14A C -0.473(2) -0.600(3) 0.1194(19)
H13A H -0.4173 -0.5121 0.1613
H14A H -0.5607 -0.6136 0.0893
C15A C -0.2514(18) -0.6245(17) 0.0108(14)
C16A C -0.445(2) -0.647(3) 0.032(2)
H15A H -0.5084 -0.7330 -0.0158
H16A H -0.4507 -0.6016 -0.0129
O23A O -0.2957(18) -0.6071(18) -0.0698(12)
O24A O -0.6403(14) -0.7004(15) 0.1972(11)
O25A O -0.1228(14) -0.5348(11) 0.5977(11)
O26A O -0.2694(17) -0.3999(13) 0.6598(12)
O27A O -0.3623(11) -0.5993(12) 0.7379(9)
W1_2 W 0.26384(6) -0.73039(5) 0.56046(5)
W1A_2 W -0.26384(6) -0.26961(5) 0.43954(5)
W2A_2 W -0.18632(6) -0.23503(5) 0.22161(5)
W3A_2 W -0.05055(7) 0.21860(6) 0.40865(5)
W4A_2 W -0.31598(6) -0.05371(6) 0.34237(5)
O4_2 O -0.0992(18) -0.9368(16) 0.4692(14)
W5_2 W 0.13080(7) -1.17444(6) 0.37498(7)
W5A_2 W -0.13080(7) 0.17444(6) 0.62502(7)
O5_2 O -0.141(2) -1.1022(18) 0.4126(15)
W6_2 W -0.07513(7) -1.04028(7) 0.71713(6)
W6A_2 W 0.07513(7) 0.04028(7) 0.28287(6)
O7_2 O 0.0571(18) -0.8972(16) 0.4616(15)
O7A_2 O -0.0571(18) -1.1028(16) 0.5384(15)
O9_2 O 0.2221(15) -0.8251(15) 0.4111(10)
O9A_2 O -0.2221(15) -0.1749(15) 0.5889(10)
O12_2 O 0.1540(17) -1.0623(15) 0.3122(16)
O12A_2 O -0.1540(17) 0.0623(15) 0.6878(16)
O20_2 O -0.1244(17) -1.3063(17) 0.4941(10)
O20A_2 O 0.1244(17) 0.3063(17) 0.5059(10)
O21_2 O 0.0450(17) -0.7333(16) 0.7298(16)
O21A_2 O -0.0450(17) -0.2667(16) 0.2702(16)
O22_2 O -0.0020(18) -1.0744(18) 0.3780(15)
O22A_2 O 0.0020(18) -0.9256(18) 0.6220(15)
loop_
_geom_bond_atom_site_label_1
_geom_bond_atom_site_label_2
_geom_bond_site_symmetry_1
_geom_bond_site_symmetry_2
W1 O7 1_555 1_555
P1 O4 1_555 1_555
O1 W5 1_555 1_555
W2 O6 1_555 1_555
O2 W4 1_555 1_555
W3 O3 1_555 1_555
O3 W5 1_555 1_555
W4 O13 1_555 1_555
O4 W3A_2 1_555 1_555
W5 O2 1_555 1_555
O5 P1 1_555 1_555
W6 O6 1_555 1_555
O7 P1 1_555 1_555
O8 W1 1_555 1_555
O9 W1 1_555 1_555
O10 W6 1_555 1_555
O11 W2 1_555 1_555
O12 W5 1_555 1_555
O14 W3 1_555 1_555
O15 W1 1_555 1_555
O16 W1 1_555 1_555
O17 W3 1_555 1_555
O18 W3 1_555 1_555
O19 W2 1_555 1_555
O20 W3 1_555 1_555
O21 W2 1_555 1_555
O22 P1 1_555 1_555
Cu1 O1 1_555 1_555
N1 Cu1 1_555 1_555
C1 C2 1_555 1_555
N2 C2 1_555 1_555
C2 H1 1_555 1_555
C3 C4 1_555 1_555
N3 C13 1_555 1_555
C4 H2 1_555 1_555
N4 C5 1_555 1_555
C5 C3 1_555 1_555
C6 H3 1_555 1_555
C7 C1 1_555 1_555
H4 C7 1_555 1_555
C8 N1 1_555 1_555
H5 C8 1_555 1_555
C9 N2 1_555 1_555
H6 C9 1_555 1_555
C10 C4 1_555 1_555
H7 C10 1_555 1_555
C11 N1 1_555 1_555
H8 C11 1_555 1_555
C12 N4 1_555 1_555
H9 C12 1_555 1_555
H10 C12 1_555 1_555
C13 C12 1_555 1_555
H11 C13 1_555 1_555
H12 C13 1_555 1_555
C14 N4 1_555 1_555
H13 C14 1_555 1_555
H14 C14 1_555 1_555
C15 C1 1_555 1_555
C16 N3 1_555 1_555
H15 C16 1_555 1_555
H16 C16 1_555 1_555
O23 C15 1_555 1_555
O24 C5 1_555 1_555
O25 Cu1 1_555 1_555
O26 Cu1 1_555 1_555
O27 Cu1 1_555 1_555
O4A P1 1_555 1_555
O5A W1 1_555 1_555
O7A P1 1_555 1_555
O22A P1 1_555 1_555
W1A O8A 1_555 1_555
O1A W5A 1_555 1_555
W2A O6A 1_555 1_555
O2A W4A 1_555 1_555
W3A O3A 1_555 1_555
O3A W5A 1_555 1_555
W4A O13A 1_555 1_555
W5A O2A 1_555 1_555
W6A O6A 1_555 1_555
O8A W2A 1_555 1_555
O9A W1A 1_555 1_555
O10A W6A 1_555 1_555
O11A W2A 1_555 1_555
O12A W5A 1_555 1_555
O14A W3A 1_555 1_555
O15A W1A 1_555 1_555
O16A W1A 1_555 1_555
O17A W3A 1_555 1_555
O18A W3A 1_555 1_555
O19A W2A 1_555 1_555
O20A W3A 1_555 1_555
O21A W2A 1_555 1_555
Cu1A N2 1_555 1_555
N1A Cu1A 1_555 1_555
C1A C2A 1_555 1_555
N2A Cu1 1_555 1_555
C2A N2A 1_555 1_555
H1A C2A 1_555 1_555
C3A C4A 1_555 1_555
N3A C13A 1_555 1_555
C4A H2A 1_555 1_555
N4A C5A 1_555 1_555
C5A C3A 1_555 1_555
C6A H3A 1_555 1_555
C7A C1A 1_555 1_555
H4A C7A 1_555 1_555
C8A N1A 1_555 1_555
H5A C8A 1_555 1_555
C9A N2A 1_555 1_555
H6A C9A 1_555 1_555
C10A C4A 1_555 1_555
H7A C10A 1_555 1_555
C11A N1A 1_555 1_555
H8A C11A 1_555 1_555
C12A N4A 1_555 1_555
H9A C12A 1_555 1_555
H10A C12A 1_555 1_555
C13A C12A 1_555 1_555
H11A C13A 1_555 1_555
H12A C13A 1_555 1_555
C14A N4A 1_555 1_555
H13A C14A 1_555 1_555
H14A C14A 1_555 1_555
C15A C1A 1_555 1_555
C16A N3A 1_555 1_555
H15A C16A 1_555 1_555
H16A C16A 1_555 1_555
O23A C15A 1_555 1_555
O24A C5A 1_555 1_555
O25A Cu1A 1_555 1_555
O26A Cu1A 1_555 1_555
O27A Cu1A 1_555 1_555
W1_2 O20A 1_555 1_555
W1A_2 O5 1_555 1_555
W2A_2 O5 1_555 1_555
W3A_2 O7 1_555 1_555
W4A_2 O4 1_555 1_555
O4_2 W3A 1_555 1_555
W5_2 O21A 1_555 1_555
W5A_2 O4 1_555 1_555
O5_2 W1A 1_555 1_555
W6_2 O9A 1_555 1_555
W6A_2 O7 1_555 1_555
O7_2 W3A 1_555 1_555
O7A_2 W1A 1_555 1_555
O9_2 W6A 1_555 1_555
O9A_2 W6 1_555 1_555
O12_2 W6A 1_555 1_555
O12A_2 W6 1_555 1_555
O20_2 W1A 1_555 1_555
O20A_2 W1 1_555 1_555
O21_2 W5A 1_555 1_555
O21A_2 W5 1_555 1_555
O22_2 W2A 1_555 1_555
O22A_2 W5A 1_555 1_555
P1 O5A 1_555 1_555
W2 O8 1_555 1_555
W2 O5A 1_555 1_555
W2 O22A 1_555 1_555
W3 O4A 1_555 1_555
W3 O7A 1_555 1_555
W4 O16 1_555 1_555
W4 O17 1_555 1_555
W4 O19 1_555 1_555
W4 O4A 1_555 1_555
W4 O5A 1_555 1_555
W5 O22 1_555 1_555
W5 O4A 1_555 1_555
O5 O7A 1_555 1_555
O5 W4A_2 1_555 1_555
W6 O18 1_555 1_555
W6 O7A 1_555 1_555
W6 O22A 1_555 1_555
O7 O5A 1_555 1_555
O9 W6A_2 1_555 1_555
O12 W6A_2 1_555 1_555
O20 W1A_2 1_555 1_555
O21 W5A_2 1_555 1_555
O22 W2A_2 1_555 1_555
O22 W6A_2 1_555 1_555
C3 C8 1_555 1_555
N3 C15 1_555 1_555
C6 C7 1_555 1_555
C6 C9 1_555 1_555
C10 C11 1_555 1_555
C14 C16 1_555 1_555
O7A W1A_2 1_555 1_555
O22A W5A_2 1_555 1_555
O1A Cu1A 1_555 1_555
W2A O5_2 1_555 1_555
W4A O16A 1_555 1_555
W4A O17A 1_555 1_555
W4A O19A 1_555 1_555
W4A O4_2 1_555 1_555
W4A O5_2 1_555 1_555
W5A O4_2 1_555 1_555
W6A O18A 1_555 1_555
W6A O7_2 1_555 1_555
W6A O22_2 1_555 1_555
O12A W6_2 1_555 1_555
C3A C8A 1_555 1_555
N3A C15A 1_555 1_555
C6A C7A 1_555 1_555
C6A C9A 1_555 1_555
C10A C11A 1_555 1_555
C14A C16A 1_555 1_555
W1_2 O7_2 1_555 1_555
W1_2 O9_2 1_555 1_555
W1A_2 O9A_2 1_555 1_555
W2A_2 O21A_2 1_555 1_555
W3A_2 O20A_2 1_555 1_555
W5_2 O12_2 1_555 1_555
W5_2 O22_2 1_555 1_555
W5A_2 O12A_2 1_555 1_555
O5_2 O7A_2 1_555 1_555
W6_2 O7A_2 1_555 1_555
W6_2 O22A_2 1_555 1_555

#END
