
#######################################################################
#
#                 Cambridge Crystallographic Data Centre
#                                CCDC 
#
#######################################################################
#
# If this CIF has been generated from an entry in the Cambridge 
# Structural Database, then it will include bibliographic, chemical, 
# crystal, experimental, refinement or atomic coordinate data resulting 
# from the CCDC's data processing and validation procedures.
#
#######################################################################

data_KOVZAY
_symmetry_cell_setting           triclinic
_symmetry_space_group_name_H-M   'P -1'
_symmetry_Int_Tables_number      2
_space_group_name_Hall           '-P 1'
loop_
_symmetry_equiv_pos_site_id
_symmetry_equiv_pos_as_xyz
1 x,y,z
2 -x,-y,-z
_cell_length_a                   11.510(9)
_cell_length_b                   12.160(10)
_cell_length_c                   13.074(10)
_cell_angle_alpha                109.155(13)
_cell_angle_beta                 111.714(12)
_cell_angle_gamma                96.969(14)
_cell_volume                     1543.25
loop_
_atom_site_label
_atom_site_type_symbol
_atom_site_fract_x
_atom_site_fract_y
_atom_site_fract_z
O26 O 1.475(4) -0.021(4) 0.199(5)
N1 N 1.0657(10) -0.1352(11) 0.4341(10)
O1 O 1.1290(11) 0.1435(9) 0.7977(9)
N2 N 1.1801(11) -0.5733(11) 0.8547(10)
C1 C 1.1678(16) -0.0734(14) 0.4265(15)
C2 C 1.0632(14) -0.0997(13) 0.5433(13)
C3 C 1.1494(14) 0.0434(14) 0.7606(13)
H1 H 1.1711 -0.0958 0.3526
C4 C 1.2647(16) 0.0202(15) 0.5245(15)
C5 C 1.1575(15) -0.0039(13) 0.6441(13)
H2 H 0.9952 -0.1417 0.5501
N3 N 1.1697(13) -0.0270(11) 0.8238(11)
H3 H 1.3337 0.0584 0.5164
C6 C 1.2629(16) 0.0593(14) 0.6345(15)
C7 C 1.1640(18) 0.0134(15) 0.9409(14)
C8 C 1.2192(17) -0.1315(14) 0.7965(14)
H4 H 1.3280 0.1246 0.7005
H5 H 1.2514 0.0434 1.0057
H6 H 1.1230 0.0789 0.9497
C9 C 1.0852(17) -0.0940(13) 0.9480(13)
H7 H 1.2139 -0.1562 0.7161
H8 H 1.3098 -0.1108 0.8530
C10 C 1.1409(18) -0.2345(15) 0.8045(15)
N4 N 1.1334(12) -0.1981(11) 0.9195(10)
H9 H 0.9944 -0.1146 0.8921
H10 H 1.0909 -0.0705 1.0285
H11 H 1.1805 -0.3009 0.7945
H12 H 1.0536 -0.2632 0.7396
C11 C 1.1707(13) -0.2510(13) 0.9963(12)
C12 C 1.2187(14) -0.3635(13) 0.9685(12)
O2 O 1.1700(12) -0.2101(10) 1.0959(9)
C13 C 1.1416(14) -0.4715(12) 0.8705(11)
C14 C 1.3425(15) -0.3607(14) 1.0508(13)
H13 H 1.0617 -0.4735 0.8147
H14 H 1.3964 -0.2888 1.1162
C15 C 1.3817(15) -0.4635(15) 1.0336(14)
C16 C 1.2970(15) -0.5686(14) 0.9351(14)
H15 H 1.4626 -0.4635 1.0860
H16 H 1.3225 -0.6397 0.9240
Cu1 Cu 0.93657(17) -0.27593(16) 0.28525(16)
Mo1 Mo 0.79213(12) -0.58547(12) 0.52074(11)
O3 O 0.8076(12) -0.4537(10) 0.4763(9)
O4 O 0.9255(12) -0.6287(11) 0.5276(14)
O5 O 0.8424(11) -0.4827(10) 0.6795(10)
O6 O 0.6071(16) -0.5418(16) 0.5651(15)
O7 O 0.7052(10) -0.7167(10) 0.5452(9)
O8 O 0.5922(17) -0.5269(17) 0.4456(16)
O9 O 0.6703(12) -0.6814(10) 0.3512(10)
Mo2 Mo 0.70234(13) -0.36773(13) 0.39427(12)
Mo3 Mo 0.75994(12) -0.43038(12) 0.78806(12)
P1 P 0.5000 -0.5000 0.5000
Mo4 Mo 0.57233(14) -0.72930(14) 0.59772(13)
Mo5 Mo 0.51876(13) -0.68000(12) 0.23284(12)
O10 O 0.8095(8) -0.3000(8) 0.3549(8)
O11 O 0.6130(12) -0.5138(10) 0.2653(9)
O12 O 0.7667(12) -0.2457(13) 0.5597(10)
O13 O 0.5623(18) -0.3812(16) 0.4917(15)
O14 O 0.5655(11) -0.3051(14) 0.3509(11)
O15 O 0.8858(10) -0.3901(12) 0.9224(9)
O16 O 0.6898(10) -0.5905(9) 0.7463(9)
O17 O 0.6344(12) -0.3748(12) 0.8312(14)
O18 O 0.5777(15) -0.4075(15) 0.6336(15)
O19 O 0.7932(12) -0.2812(12) 0.7611(13)
O20 O 0.4435(11) -0.8284(15) 0.4425(10)
O21 O 0.6025(13) -0.8605(12) 0.6551(12)
O22 O 0.4132(12) -0.7962(12) 0.2457(14)
Mo6 Mo 0.70532(14) -0.19804(13) 0.67576(14)
O23 O 0.5289(11) -0.7590(10) 0.1063(9)
O24 O 0.7981(10) -0.0579(8) 0.7564(8)
O25 O 1.0719(10) -0.3075(10) 0.2199(10)
O6A O 0.3929(16) -0.4582(16) 0.4349(15)
O8A O 0.4078(17) -0.4731(17) 0.5544(16)
O13A O 0.4377(18) -0.6188(16) 0.5083(15)
O18A O 0.4223(15) -0.5925(15) 0.3664(15)
N1A N -0.0657(10) -0.8648(11) 0.5659(10)
O1A O -0.1290(11) -1.1435(9) 0.2023(9)
N2A N -0.1801(11) -0.4267(11) 0.1453(10)
C1A C -0.1678(16) -0.9266(14) 0.5735(15)
C2A C -0.0632(14) -0.9003(13) 0.4567(13)
C3A C -0.1494(14) -1.0434(14) 0.2394(13)
H1A H -0.1711 -0.9042 0.6474
C4A C -0.2647(16) -1.0202(15) 0.4755(15)
C5A C -0.1575(15) -0.9961(13) 0.3559(13)
H2A H 0.0048 -0.8583 0.4499
N3A N -0.1697(13) -0.9730(11) 0.1762(11)
H3A H -0.3337 -1.0584 0.4836
C6A C -0.2629(16) -1.0593(14) 0.3655(15)
C7A C -0.1640(18) -1.0134(15) 0.0591(14)
C8A C -0.2192(17) -0.8685(14) 0.2035(14)
H4A H -0.3280 -1.1246 0.2995
H5A H -0.2514 -1.0434 -0.0057
H6A H -0.1230 -1.0789 0.0503
C9A C -0.0852(17) -0.9060(13) 0.0520(13)
H7A H -0.2139 -0.8438 0.2839
H8A H -0.3098 -0.8892 0.1470
C10A C -0.1409(18) -0.7655(15) 0.1955(15)
N4A N -0.1334(12) -0.8019(11) 0.0805(10)
H9A H 0.0056 -0.8854 0.1079
H10A H -0.0909 -0.9295 -0.0285
H11A H -0.1805 -0.6991 0.2055
H12A H -0.0536 -0.7368 0.2604
C11A C -0.1707(13) -0.7490(13) 0.0037(12)
C12A C -0.2187(14) -0.6365(13) 0.0315(12)
O2A O -0.1700(12) -0.7899(10) -0.0959(9)
C13A C -0.1416(14) -0.5285(12) 0.1295(11)
C14A C -0.3425(15) -0.6393(14) -0.0508(13)
H13A H -0.0617 -0.5265 0.1853
H14A H -0.3964 -0.7112 -0.1162
C15A C -0.3817(15) -0.5365(15) -0.0336(14)
C16A C -0.2970(15) -0.4314(14) 0.0649(14)
H15A H -0.4626 -0.5365 -0.0860
H16A H -0.3225 -0.3603 0.0760
Cu1A Cu 0.06343(17) -0.72407(16) 0.71475(16)
Mo1A Mo 0.20787(12) -0.41453(12) 0.47926(11)
O3A O 0.1924(12) -0.5463(10) 0.5237(9)
O4A O 0.0745(12) -0.3713(11) 0.4724(14)
O5A O 0.1576(11) -0.5173(10) 0.3205(10)
O7A O 0.2948(10) -0.2833(10) 0.4548(9)
O9A O 0.3297(12) -0.3186(10) 0.6488(10)
Mo2A Mo 0.29766(13) -0.63227(13) 0.60573(12)
Mo3A Mo 0.24006(12) -0.56962(12) 0.21194(12)
Mo4A Mo 0.42767(14) -0.27070(14) 0.40228(13)
Mo5A Mo 0.48124(13) -0.32000(12) 0.76716(12)
O10A O 0.1905(8) -0.7000(8) 0.6451(8)
O11A O 0.3870(12) -0.4862(10) 0.7347(9)
O12A O 0.2333(12) -0.7543(13) 0.4403(10)
O14A O 0.4345(11) -0.6949(14) 0.6491(11)
O15A O 0.1142(10) -0.6099(12) 0.0776(9)
O16A O 0.3102(10) -0.4095(9) 0.2537(9)
O17A O 0.3656(12) -0.6252(12) 0.1688(14)
O19A O 0.2068(12) -0.7188(12) 0.2389(13)
O20A O 0.5565(11) -0.1716(15) 0.5575(10)
O21A O 0.3975(13) -0.1395(12) 0.3449(12)
O22A O 0.5868(12) -0.2038(12) 0.7543(14)
Mo6A Mo 0.29468(14) -0.80196(13) 0.32424(14)
O23A O 0.4711(11) -0.2410(10) 0.8937(9)
O24A O 0.2019(10) -0.9421(8) 0.2436(8)
O25A O -0.0719(10) -0.6925(10) 0.7801(10)
O1_2 O 0.1290(11) -0.8565(9) 0.7977(9)
O1A_2 O 0.8710(11) -0.1435(9) 0.2023(9)
N2_2 N 0.1801(11) -0.5733(11) 0.8547(10)
N2A_2 N 0.8199(11) -0.4267(11) 0.1453(10)
Cu1_2 Cu -0.06343(17) -1.27593(16) 0.28525(16)
Cu1_3 Cu -0.06343(17) -0.27593(16) 0.28525(16)
Cu1A_2 Cu 1.06343(17) -0.72407(16) 0.71475(16)
Cu1A_3 Cu 1.06343(17) 0.27593(16) 0.71475(16)
loop_
_geom_bond_atom_site_label_1
_geom_bond_atom_site_label_2
_geom_bond_site_symmetry_1
_geom_bond_site_symmetry_2
N1 C1 1_555 1_555
O1 C3 1_555 1_555
N2 C13 1_555 1_555
C1 H1 1_555 1_555
C2 N1 1_555 1_555
C3 C5 1_555 1_555
C4 C1 1_555 1_555
C5 C2 1_555 1_555
H2 C2 1_555 1_555
N3 C3 1_555 1_555
H3 C4 1_555 1_555
C6 C4 1_555 1_555
C7 N3 1_555 1_555
C8 N3 1_555 1_555
H4 C6 1_555 1_555
H5 C7 1_555 1_555
H6 C7 1_555 1_555
C9 C7 1_555 1_555
H7 C8 1_555 1_555
H8 C8 1_555 1_555
C10 C8 1_555 1_555
N4 C9 1_555 1_555
H9 C9 1_555 1_555
H10 C9 1_555 1_555
H11 C10 1_555 1_555
H12 C10 1_555 1_555
C11 N4 1_555 1_555
C12 C11 1_555 1_555
O2 C11 1_555 1_555
C13 C12 1_555 1_555
C14 C12 1_555 1_555
H13 C13 1_555 1_555
H14 C14 1_555 1_555
C15 C14 1_555 1_555
C16 N2 1_555 1_555
H15 C15 1_555 1_555
H16 C16 1_555 1_555
Cu1 N1 1_555 1_555
Mo1 O3 1_555 1_555
O3 Mo2 1_555 1_555
O4 Mo1 1_555 1_555
O5 Mo1 1_555 1_555
O6 Mo1 1_555 1_555
O7 Mo1 1_555 1_555
O8 Mo1 1_555 1_555
O9 Mo1 1_555 1_555
Mo2 O8 1_555 1_555
Mo3 O5 1_555 1_555
P1 O6 1_555 1_555
Mo4 O6 1_555 1_555
Mo5 O8 1_555 1_555
O10 Cu1 1_555 1_555
O11 Mo2 1_555 1_555
O12 Mo2 1_555 1_555
O13 Mo2 1_555 1_555
O14 Mo2 1_555 1_555
O15 Mo3 1_555 1_555
O16 Mo3 1_555 1_555
O17 Mo3 1_555 1_555
O18 Mo3 1_555 1_555
O19 Mo3 1_555 1_555
O20 Mo4 1_555 1_555
O21 Mo4 1_555 1_555
O22 Mo5 1_555 1_555
Mo6 O12 1_555 1_555
O23 Mo5 1_555 1_555
O24 Mo6 1_555 1_555
O25 Cu1 1_555 1_555
O6A P1 1_555 1_555
O8A P1 1_555 1_555
O13A P1 1_555 1_555
O18A P1 1_555 1_555
N1A C1A 1_555 1_555
O1A C3A 1_555 1_555
N2A C13A 1_555 1_555
C1A H1A 1_555 1_555
C2A N1A 1_555 1_555
C3A C5A 1_555 1_555
C4A C1A 1_555 1_555
C5A C2A 1_555 1_555
H2A C2A 1_555 1_555
N3A C3A 1_555 1_555
H3A C4A 1_555 1_555
C6A C4A 1_555 1_555
C7A N3A 1_555 1_555
C8A N3A 1_555 1_555
H4A C6A 1_555 1_555
H5A C7A 1_555 1_555
H6A C7A 1_555 1_555
C9A C7A 1_555 1_555
H7A C8A 1_555 1_555
H8A C8A 1_555 1_555
C10A C8A 1_555 1_555
N4A C9A 1_555 1_555
H9A C9A 1_555 1_555
H10A C9A 1_555 1_555
H11A C10A 1_555 1_555
H12A C10A 1_555 1_555
C11A N4A 1_555 1_555
C12A C11A 1_555 1_555
O2A C11A 1_555 1_555
C13A C12A 1_555 1_555
C14A C12A 1_555 1_555
H13A C13A 1_555 1_555
H14A C14A 1_555 1_555
C15A C14A 1_555 1_555
C16A N2A 1_555 1_555
H15A C15A 1_555 1_555
H16A C16A 1_555 1_555
Cu1A N1A 1_555 1_555
Mo1A O6A 1_555 1_555
O3A Mo1A 1_555 1_555
O4A Mo1A 1_555 1_555
O5A Mo1A 1_555 1_555
O7A Mo1A 1_555 1_555
O9A Mo1A 1_555 1_555
Mo2A O8A 1_555 1_555
Mo3A O6A 1_555 1_555
Mo4A O13 1_555 1_555
Mo5A O17 1_555 1_555
O10A Cu1A 1_555 1_555
O11A Mo2A 1_555 1_555
O12A Mo2A 1_555 1_555
O14A Mo4 1_555 1_555
O15A Mo3A 1_555 1_555
O16A Mo3A 1_555 1_555
O17A Mo5 1_555 1_555
O19A Mo3A 1_555 1_555
O20A Mo6 1_555 1_555
O21A Mo4A 1_555 1_555
O22A Mo6 1_555 1_555
Mo6A O20 1_555 1_555
O23A Mo5A 1_555 1_555
O24A Mo6A 1_555 1_555
O25A Cu1A 1_555 1_555
O1_2 Cu1A 1_555 1_555
O1A_2 Cu1 1_555 1_555
N2_2 Cu1A 1_555 1_555
N2A_2 Cu1 1_555 1_555
Cu1_2 O1A 1_555 1_555
Cu1_3 N2A 1_555 1_555
Cu1A_2 N2 1_555 1_555
Cu1A_3 O1 1_555 1_555
C5 C6 1_555 1_555
C10 N4 1_555 1_555
C15 C16 1_555 1_555
O6 Mo3 1_555 1_555
O7 Mo4 1_555 1_555
O8 P1 1_555 1_555
O9 Mo5 1_555 1_555
Mo2 O10 1_555 1_555
P1 O13 1_555 1_555
P1 O18 1_555 1_555
Mo4 O16 1_555 1_555
Mo4 O13A 1_555 1_555
Mo5 O11 1_555 1_555
Mo5 O18A 1_555 1_555
O13 Mo6 1_555 1_555
O14 Mo4A 1_555 1_555
O18 Mo6 1_555 1_555
O18 Mo5A 1_555 1_555
O19 Mo6 1_555 1_555
O22 Mo6A 1_555 1_555
O6A Mo4A 1_555 1_555
O8A Mo1A 1_555 1_555
O8A Mo5A 1_555 1_555
O13A Mo2A 1_555 1_555
O13A Mo6A 1_555 1_555
O18A Mo3A 1_555 1_555
O18A Mo6A 1_555 1_555
C5A C6A 1_555 1_555
C10A N4A 1_555 1_555
C15A C16A 1_555 1_555
O3A Mo2A 1_555 1_555
O5A Mo3A 1_555 1_555
O7A Mo4A 1_555 1_555
O9A Mo5A 1_555 1_555
Mo2A O10A 1_555 1_555
Mo2A O14A 1_555 1_555
Mo3A O17A 1_555 1_555
Mo4A O16A 1_555 1_555
Mo4A O20A 1_555 1_555
Mo5A O11A 1_555 1_555
Mo5A O22A 1_555 1_555
O12A Mo6A 1_555 1_555
O19A Mo6A 1_555 1_555

#END
