
#######################################################################
#
#                 Cambridge Crystallographic Data Centre
#                                CCDC 
#
#######################################################################
#
# If this CIF has been generated from an entry in the Cambridge 
# Structural Database, then it will include bibliographic, chemical, 
# crystal, experimental, refinement or atomic coordinate data resulting 
# from the CCDC's data processing and validation procedures.
#
#######################################################################

data_KOVZOM
_symmetry_cell_setting           monoclinic
_symmetry_space_group_name_H-M   'P 21/n'
_symmetry_Int_Tables_number      14
_space_group_name_Hall           '-P 2yn'
loop_
_symmetry_equiv_pos_site_id
_symmetry_equiv_pos_as_xyz
1 x,y,z
2 1/2-x,1/2+y,1/2-z
3 -x,-y,-z
4 1/2+x,1/2-y,1/2+z
_cell_length_a                   10.3640(5)
_cell_length_b                   19.9860(10)
_cell_length_c                   12.8510(7)
_cell_angle_alpha                90
_cell_angle_beta                 100.0550(10)
_cell_angle_gamma                90
_cell_volume                     2621.01
loop_
_atom_site_label
_atom_site_type_symbol
_atom_site_fract_x
_atom_site_fract_y
_atom_site_fract_z
Mo1 Mo -0.02996(10) 0.52832(5) 0.12600(8)
Cu1 Cu 0.51186(14) 0.28204(7) -0.06696(11)
O1 O 0.3848(9) 0.3513(4) -0.0392(7)
N1 N 0.5353(9) 0.2597(5) 0.0870(8)
O2 O 0.6307(11) 0.2078(5) -0.0922(8)
C1 C 0.4595(13) 0.2167(7) 0.1276(10)
H1 H 0.3957 0.1936 0.0814
Mo2 Mo 0.00511(11) 0.36663(5) 0.08516(9)
N2 N 0.7548(10) 0.3889(5) 0.3281(9)
O3 O 0.8266(10) 0.2887(5) 0.3974(8)
C2 C 0.4702(15) 0.2047(8) 0.2328(12)
H2 H 0.4170 0.1728 0.2568
Mo3 Mo 0.25854(10) 0.55387(6) 0.06020(11)
N3 N 0.7211(10) 0.5182(5) 0.4058(9)
O4 O 0.3340(8) 0.6258(4) 0.0350(7)
C3 C 0.6237(12) 0.2942(6) 0.1557(10)
H3 H 0.6771 0.3247 0.1289
Mo4 Mo 0.28692(14) 0.39713(8) 0.02766(12)
O5 O 0.3529(10) 0.3893(6) 0.1636(9)
N4 N 0.5049(10) 0.6888(5) 0.2183(8)
C4 C 0.5610(15) 0.2402(7) 0.3044(11)
H4 H 0.5695 0.2332 0.3769
O6 O -0.1231(8) 0.4435(4) 0.1014(6)
C5 C 0.6389(12) 0.2867(6) 0.2629(9)
O7 O 0.1123(8) 0.4664(4) 0.0538(6)
C6 C 0.7457(13) 0.3221(6) 0.3347(10)
O8 O -0.1599(8) 0.5778(5) 0.1404(8)
C7 C 0.6543(13) 0.4336(7) 0.2701(10)
H5 H 0.5804 0.4074 0.2354
H6 H 0.6903 0.4577 0.2161
O9 O 0.3112(10) 0.5407(6) 0.1934(7)
C8 C 0.6087(13) 0.4828(6) 0.3447(11)
H7 H 0.5493 0.5148 0.3048
H8 H 0.5616 0.4592 0.3924
O10 O 0.0530(9) 0.5160(5) 0.2502(8)
C9 C 0.8665(12) 0.4251(7) 0.3883(11)
H9 H 0.9124 0.4490 0.3401
H10 H 0.9270 0.3935 0.4281
O11 O 0.0789(8) 0.5965(4) 0.0784(6)
C10 C 0.8203(14) 0.4731(7) 0.4616(11)
H11 H 0.7838 0.4486 0.5149
H12 H 0.8940 0.4990 0.4973
O12 O 0.1405(8) 0.3339(5) 0.0262(7)
C11 C 0.7351(12) 0.5844(6) 0.4101(9)
O13 O 0.0779(11) 0.3681(6) 0.2203(8)
C12 C 0.6175(12) 0.6267(6) 0.3637(9)
C13 C 0.6101(12) 0.6537(6) 0.2654(9)
H13 H 0.6800 0.6477 0.2297
O14 O 0.3482(9) 0.4891(5) 0.0022(8)
C14 C 0.5176(14) 0.6372(7) 0.4183(11)
H14 H 0.5213 0.6194 0.4856
O15 O 0.8382(9) 0.6119(5) 0.4527(8)
C15 C 0.4132(14) 0.6739(8) 0.3729(11)
H15 H 0.3455 0.6828 0.4099
O16 O -0.0997(9) 0.3034(5) 0.0755(9)
C16 C 0.4074(12) 0.6978(6) 0.2738(10)
H16 H 0.3333 0.7214 0.2427
K1 K 0.2404(3) 0.44587(16) 0.2299(2)
O17 O 0.3027(12) 0.4403(8) 0.3643(8)
H17 H 0.2464 0.4251 0.3952
Mo1B Mo 0.02996(10) 0.47168(5) -0.12600(8)
Cu1B Cu 0.48814(14) 0.71796(7) 0.06696(11)
Cu1C Cu 1.01186(14) 0.21796(7) 0.43304(11)
Mo2B Mo -0.00511(11) 0.63337(5) -0.08516(9)
O3C O 0.3266(10) 0.2113(5) -0.1026(8)
Mo3B Mo -0.25854(10) 0.44613(6) -0.06020(11)
O4B O 0.6660(8) 0.3742(4) -0.0350(7)
Mo4B Mo -0.28692(14) 0.60287(8) -0.02766(12)
N4B N 0.4951(10) 0.3112(5) -0.2183(8)
O6B O 0.1231(8) 0.5565(4) -0.1014(6)
O7B O -0.1123(8) 0.5336(4) -0.0538(6)
O8B O 0.1599(8) 0.4222(5) -0.1404(8)
O11B O -0.0789(8) 0.4035(4) -0.0784(6)
loop_
_geom_bond_atom_site_label_1
_geom_bond_atom_site_label_2
_geom_bond_site_symmetry_1
_geom_bond_site_symmetry_2
Mo1 O6 1_555 1_555
Cu1 O1 1_555 1_555
O1 Mo4 1_555 1_555
N1 Cu1 1_555 1_555
O2 Cu1 1_555 1_555
C1 N1 1_555 1_555
H1 C1 1_555 1_555
Mo2 O6 1_555 1_555
N2 C6 1_555 1_555
O3 C6 1_555 1_555
C2 C1 1_555 1_555
H2 C2 1_555 1_555
Mo3 O4 1_555 1_555
N3 C8 1_555 1_555
O4 Cu1B 1_555 1_555
C3 N1 1_555 1_555
H3 C3 1_555 1_555
Mo4 O5 1_555 1_555
O5 K1 1_555 1_555
N4 C13 1_555 1_555
C4 C2 1_555 1_555
H4 C4 1_555 1_555
O6 Mo3B 1_555 1_555
C5 C3 1_555 1_555
O7 Mo1 1_555 1_555
C6 C5 1_555 1_555
O8 Mo1 1_555 1_555
C7 N2 1_555 1_555
H5 C7 1_555 1_555
H6 C7 1_555 1_555
O9 Mo3 1_555 1_555
C8 C7 1_555 1_555
H7 C8 1_555 1_555
H8 C8 1_555 1_555
O10 Mo1 1_555 1_555
C9 N2 1_555 1_555
H9 C9 1_555 1_555
H10 C9 1_555 1_555
O11 Mo1 1_555 1_555
C10 N3 1_555 1_555
H11 C10 1_555 1_555
H12 C10 1_555 1_555
O12 Mo2 1_555 1_555
C11 N3 1_555 1_555
O13 Mo2 1_555 1_555
C12 C11 1_555 1_555
C13 C12 1_555 1_555
H13 C13 1_555 1_555
O14 Mo3 1_555 1_555
C14 C12 1_555 1_555
H14 C14 1_555 1_555
O15 C11 1_555 1_555
C15 C14 1_555 1_555
H15 C15 1_555 1_555
O16 Mo2 1_555 1_555
C16 N4 1_555 1_555
H16 C16 1_555 1_555
K1 O7 1_555 1_555
O17 K1 1_555 1_555
H17 O17 1_555 1_555
Mo1B O7 1_555 1_555
Cu1B N4 1_555 1_555
Cu1C O3 1_555 1_555
Mo2B O11 1_555 1_555
O3C Cu1 1_555 1_555
Mo3B O7B 1_555 1_555
O4B Cu1 1_555 1_555
Mo4B O8 1_555 1_555
N4B Cu1 1_555 1_555
O6B Mo3 1_555 1_555
O7B Mo1 1_555 1_555
O8B Mo4 1_555 1_555
O11B Mo2 1_555 1_555
Mo2 O7 1_555 1_555
Mo3 O7 1_555 1_555
Mo3 O11 1_555 1_555
Mo4 O7 1_555 1_555
Mo4 O12 1_555 1_555
Mo4 O14 1_555 1_555
C4 C5 1_555 1_555
O9 K1 1_555 1_555
O10 K1 1_555 1_555
C9 C10 1_555 1_555
O13 K1 1_555 1_555
C15 C16 1_555 1_555
Mo1B O6B 1_555 1_555
Mo1B O7B 1_555 1_555
Mo1B O8B 1_555 1_555
Mo1B O11B 1_555 1_555
Mo2B O6B 1_555 1_555
Mo2B O7B 1_555 1_555
Mo3B O11B 1_555 1_555
Mo4B O7B 1_555 1_555

#END
