
#######################################################################
#
#                 Cambridge Crystallographic Data Centre
#                                CCDC 
#
#######################################################################
#
# If this CIF has been generated from an entry in the Cambridge 
# Structural Database, then it will include bibliographic, chemical, 
# crystal, experimental, refinement or atomic coordinate data resulting 
# from the CCDC's data processing and validation procedures.
#
#######################################################################

data_KOWKUC
_symmetry_cell_setting           orthorhombic
_symmetry_space_group_name_H-M   'P m n n'
_symmetry_Int_Tables_number      58
_space_group_name_Hall           '-P 2n 2'
loop_
_symmetry_equiv_pos_site_id
_symmetry_equiv_pos_as_xyz
1 x,y,z
2 1/2-x,1/2-y,1/2+z
3 x,-y,-z
4 1/2-x,1/2+y,1/2-z
5 -x,-y,-z
6 1/2+x,1/2+y,1/2-z
7 -x,y,z
8 1/2+x,1/2-y,1/2+z
_cell_length_a                   11.569(1)
_cell_length_b                   12.606(1)
_cell_length_c                   15.532(2)
_cell_angle_alpha                90
_cell_angle_beta                 90
_cell_angle_gamma                90
_cell_volume                     2265.17
loop_
_atom_site_label
_atom_site_type_symbol
_atom_site_fract_x
_atom_site_fract_y
_atom_site_fract_z
Al1 Al 0.2515(2) 0.6675(2) 0.3762(1)
N1 N 0.1092(5) 0.7406(4) 0.4531(3)
N2 N 0.0000 0.7012(6) 0.5834(5)
N3 N 0.3902(5) 0.5831(5) 0.3080(3)
N4 N 0.5000 0.4198 0.3112(6)
C3 C 0.1423(7) 0.8519(6) 0.4735(5)
C4 C 0.0000 0.6356(9) 0.6616(7)
C5 C 0.3621(7) 0.5808(7) 0.2143(4)
C6 C 0.5000 0.310(1) 0.3393(9)
C7 C 0.1026(6) 0.6758(6) 0.5318(4)
C8 C 0.0000 0.7304(8) 0.4031(6)
C9 C 0.3964(6) 0.4746(6) 0.3441(5)
C10 C 0.5000 0.6389(8) 0.3282(6)
H1 H 0.2534 0.7636 0.3076
H2 H 0.3344 0.6638 0.4513
H3 H 0.1725 0.5815 0.3499
H4 H 0.0816 0.8838 0.5145
H5 H 0.2182 0.8542 0.5034
H6 H 0.1449 0.8992 0.4218
H7 H 0.0000 0.5586 0.6479
H8 H 0.0000 0.6513 0.6973
H9 H 0.4247 0.5392 0.1824
H10 H 0.2867 0.5445 0.2041
H11 H 0.3594 0.6534 0.1880
H12 H 0.5006 0.3071 0.4063
H13 H 0.4292 0.2714 0.3203
H14 H 0.1750 0.6899 0.5672
H15 H 0.1045 0.5982 0.5147
H16 H 0.0000 0.7863 0.3591
H17 H 0.0000 0.6586 0.3766
H18 H 0.3239 0.4357 0.3281
H19 H 0.3976 0.4811 0.4098
H20 H 0.5000 0.7058 0.2970
H21 H 0.5000 0.6511 0.3923
C7F C -0.1026(6) 0.6758(6) 0.5318(4)
C9F C 0.6036(6) 0.4746(6) 0.3441(5)
H13F H 0.5708 0.2714 0.3203
N1F N -0.1092(5) 0.7406(4) 0.4531(3)
N3F N 0.6098(5) 0.5831(5) 0.3080(3)
H14F H -0.1750 0.6899 0.5672
H15F H -0.1045 0.5982 0.5147
H18F H 0.6761 0.4357 0.3281
H19F H 0.6024 0.4811 0.4098
Al1F Al -0.2515(2) 0.6675(2) 0.3762(1)
C3F C -0.1423(7) 0.8519(6) 0.4735(5)
Al1F_2 Al 0.7485(2) 0.6675(2) 0.3762(1)
C5F C 0.6379(7) 0.5808(7) 0.2143(4)
N3F_2 N -0.3902(5) 0.5831(5) 0.3080(3)
H1F H -0.2534 0.7636 0.3076
H2F H -0.3344 0.6638 0.4513
H3F H -0.1725 0.5815 0.3499
H4F H -0.0816 0.8838 0.5145
H5F H -0.2182 0.8542 0.5034
H6F H -0.1449 0.8992 0.4218
H1F_2 H 0.7466 0.7636 0.3076
H2F_2 H 0.6656 0.6638 0.4513
H3F_2 H 0.8275 0.5815 0.3499
H9F H 0.5753 0.5392 0.1824
H10F H 0.7133 0.5445 0.2041
H11F H 0.6406 0.6534 0.1880
C1 C 0.5000 1.009(3) 0.364(2)
C2 C 0.5000 0.966(4) 0.432(3)
O1 O 0.437(3) 1.0000 0.5000
O1F O 0.563(3) 1.0000 0.5000
C2D C 0.5000 1.034(4) 0.568(3)
C1D C 0.5000 0.991(3) 0.636(2)
loop_
_geom_bond_atom_site_label_1
_geom_bond_atom_site_label_2
_geom_bond_site_symmetry_1
_geom_bond_site_symmetry_2
C1 C2 1_555 1_555
C2 O1 1_555 1_555
O1 O1F 1_555 1_555
Al1 N1 1_555 1_555
N1 C3 1_555 1_555
N2 C4 1_555 1_555
N3 Al1 1_555 1_555
N4 C6 1_555 1_555
C3 H4 1_555 1_555
C4 H7 1_555 1_555
C5 N3 1_555 1_555
C6 H12 1_555 1_555
C7 N1 1_555 1_555
C8 N1 1_555 1_555
C9 N3 1_555 1_555
C10 N3 1_555 1_555
H1 Al1 1_555 1_555
H2 Al1 1_555 1_555
H3 Al1 1_555 1_555
H5 C3 1_555 1_555
H6 C3 1_555 1_555
H8 C4 1_555 1_555
H9 C5 1_555 1_555
H10 C5 1_555 1_555
H11 C5 1_555 1_555
H13 C6 1_555 1_555
H14 C7 1_555 1_555
H15 C7 1_555 1_555
H16 C8 1_555 1_555
H17 C8 1_555 1_555
H18 C9 1_555 1_555
H19 C9 1_555 1_555
H20 C10 1_555 1_555
H21 C10 1_555 1_555
O1F C2 1_555 1_555
C2D O1 1_555 1_555
C1D C2D 1_555 1_555
C7F N2 1_555 1_555
C9F N4 1_555 1_555
H13F C6 1_555 1_555
N1F C8 1_555 1_555
N3F C10 1_555 1_555
H14F C7F 1_555 1_555
H15F C7F 1_555 1_555
H18F C9F 1_555 1_555
H19F C9F 1_555 1_555
Al1F N1F 1_555 1_555
C3F N1F 1_555 1_555
Al1F_2 N3F 1_555 1_555
C5F N3F 1_555 1_555
N3F_2 Al1F 1_555 1_555
H1F Al1F 1_555 1_555
H2F Al1F 1_555 1_555
H3F Al1F 1_555 1_555
H4F C3F 1_555 1_555
H5F C3F 1_555 1_555
H6F C3F 1_555 1_555
H1F_2 Al1F_2 1_555 1_555
H2F_2 Al1F_2 1_555 1_555
H3F_2 Al1F_2 1_555 1_555
H9F C5F 1_555 1_555
H10F C5F 1_555 1_555
H11F C5F 1_555 1_555
N2 C7 1_555 1_555
N4 C9 1_555 1_555
O1F C2D 1_555 1_555
C7F N1F 1_555 1_555
C9F N3F 1_555 1_555

#END
