
#######################################################################
#
#                 Cambridge Crystallographic Data Centre
#                                CCDC 
#
#######################################################################
#
# If this CIF has been generated from an entry in the Cambridge 
# Structural Database, then it will include bibliographic, chemical, 
# crystal, experimental, refinement or atomic coordinate data resulting 
# from the CCDC's data processing and validation procedures.
#
#######################################################################

data_KOWRIZ
_symmetry_cell_setting           triclinic
_symmetry_space_group_name_H-M   'P -1'
_symmetry_Int_Tables_number      2
_space_group_name_Hall           '-P 1'
loop_
_symmetry_equiv_pos_site_id
_symmetry_equiv_pos_as_xyz
1 x,y,z
2 -x,-y,-z
_cell_length_a                   8.335(4)
_cell_length_b                   10.389(5)
_cell_length_c                   15.266(8)
_cell_angle_alpha                82.977(8)
_cell_angle_beta                 76.907(8)
_cell_angle_gamma                73.566(7)
_cell_volume                     1232.55
loop_
_atom_site_label
_atom_site_type_symbol
_atom_site_fract_x
_atom_site_fract_y
_atom_site_fract_z
Cu1 Cu -0.0363(4) 1.2323(2) 0.23383(19)
C1 C 0.6044(15) 0.8592(12) 0.1280(10)
H1 H 0.6555 0.9286 0.1058
C2 C 0.7029(11) 0.7266(14) 0.1273(10)
H2 H 0.8200 0.7073 0.1047
C3 C 0.6265(15) 0.6229(10) 0.1604(11)
H3 H 0.6924 0.5341 0.1599
C4 C 0.4515(16) 0.6517(10) 0.1941(10)
H4 H 0.4004 0.5823 0.2163
C5 C 0.3530(11) 0.7843(12) 0.1948(9)
C6 C 0.4294(14) 0.8881(9) 0.1617(10)
Cu2 Cu 0.0159(3) 0.7164(2) 0.26290(15)
C7 C 0.131(2) 0.9602(16) 0.2207(11)
C8 C -0.166(2) 0.9995(16) 0.2838(11)
C9 C -0.334(2) 1.1072(17) 0.3069(15)
H5 H -0.4273 1.0705 0.3063
H6 H -0.3349 1.1820 0.2632
H7 H -0.3457 1.1368 0.3657
C10 C -0.167(3) 0.703(2) 0.4850(14)
H8 H -0.1150 0.7703 0.4595
C11 C -0.248(3) 0.703(2) 0.5733(14)
H9 H -0.2489 0.7701 0.6087
C12 C -0.329(3) 0.602(2) 0.6105(13)
H10 H -0.3848 0.6033 0.6706
C13 C -0.328(3) 0.507(2) 0.5622(14)
H11 H -0.3901 0.4452 0.5874
C14 C -0.239(2) 0.496(2) 0.4751(13)
C15 C -0.164(2) 0.6005(19) 0.4337(13)
C16 C -0.083(2) 0.4693(16) 0.3156(11)
C17 C 0.083(2) 0.4700(17) 0.1716(12)
C18 C 0.160(3) 0.394(2) 0.0863(12)
H12 H 0.1590 0.4565 0.0346
H13 H 0.0949 0.3327 0.0827
H14 H 0.2760 0.3442 0.0878
N1 N -0.015(2) 0.4097(16) 0.2377(10)
N2 N 0.113(2) 0.5860(16) 0.1747(11)
H15 H 0.1871 0.6067 0.1302
N3 N -0.081(2) 0.5831(15) 0.3426(10)
N4 N 0.1712(18) 0.8310(14) 0.2257(10)
N5 N -0.0292(19) 1.0474(16) 0.2462(10)
N6 N -0.164(2) 0.8724(14) 0.2979(11)
H16 H -0.2583 0.8569 0.3273
S1 S 0.2895(7) 1.0406(5) 0.1762(4)
S2 S -0.2030(7) 0.3770(5) 0.3971(4)
Cu1_2 Cu -0.0363(4) 0.2323(2) 0.23383(19)
N1_2 N -0.015(2) 1.4097(16) 0.2377(10)
S2_2 S -0.2030(7) 1.3770(5) 0.3971(4)
I1 I 0.3580(3) 0.87107(19) 0.42956(12)
I2 I 0.0000 1.0000 0.5000
I1A I -0.3580(3) 1.12893(19) 0.57044(12)
I3 I 0.7363(3) 0.2467(2) 0.05239(14)
I4 I 1.0000 0.0000 0.0000
I3A I 1.2637(3) -0.2467(2) -0.05239(14)
loop_
_geom_bond_atom_site_label_1
_geom_bond_atom_site_label_2
_geom_bond_site_symmetry_1
_geom_bond_site_symmetry_2
Cu1 N5 1_555 1_555
C1 H1 1_555 1_555
C2 C1 1_555 1_555
H2 C2 1_555 1_555
C3 C2 1_555 1_555
H3 C3 1_555 1_555
C4 C3 1_555 1_555
H4 C4 1_555 1_555
C5 C4 1_555 1_555
C6 C1 1_555 1_555
Cu2 N2 1_555 1_555
C7 N4 1_555 1_555
C8 C9 1_555 1_555
C9 H5 1_555 1_555
H6 C9 1_555 1_555
H7 C9 1_555 1_555
C10 H8 1_555 1_555
C11 C10 1_555 1_555
H9 C11 1_555 1_555
C12 C11 1_555 1_555
H10 C12 1_555 1_555
C13 C12 1_555 1_555
H11 C13 1_555 1_555
C14 C13 1_555 1_555
C15 C10 1_555 1_555
C16 N1 1_555 1_555
C17 C18 1_555 1_555
C18 H12 1_555 1_555
H13 C18 1_555 1_555
H14 C18 1_555 1_555
N1 C17 1_555 1_555
N2 C17 1_555 1_555
H15 N2 1_555 1_555
N3 Cu2 1_555 1_555
N4 C5 1_555 1_555
N5 C7 1_555 1_555
N6 Cu2 1_555 1_555
H16 N6 1_555 1_555
S1 Cu1 1_555 1_555
S2 C14 1_555 1_555
I1 I2 1_555 1_555
I2 I1A 1_555 1_555
I3 I4 1_555 1_555
I4 I3A 1_555 1_555
Cu1_2 N1 1_555 1_555
N1_2 Cu1 1_555 1_555
S2_2 Cu1 1_555 1_555
C5 C6 1_555 1_555
C6 S1 1_555 1_555
Cu2 N4 1_555 1_555
C7 S1 1_555 1_555
C8 N5 1_555 1_555
C8 N6 1_555 1_555
C14 C15 1_555 1_555
C15 N3 1_555 1_555
C16 N3 1_555 1_555
C16 S2 1_555 1_555
S2 Cu1_2 1_555 1_555

#END
