
#######################################################################
#
#                 Cambridge Crystallographic Data Centre
#                                CCDC 
#
#######################################################################
#
# If this CIF has been generated from an entry in the Cambridge 
# Structural Database, then it will include bibliographic, chemical, 
# crystal, experimental, refinement or atomic coordinate data resulting 
# from the CCDC's data processing and validation procedures.
#
#######################################################################

data_KOWSEW
_symmetry_cell_setting           monoclinic
_symmetry_space_group_name_H-M   'P 21/c'
_symmetry_Int_Tables_number      14
_space_group_name_Hall           '-P 2ybc'
loop_
_symmetry_equiv_pos_site_id
_symmetry_equiv_pos_as_xyz
1 x,y,z
2 -x,1/2+y,1/2-z
3 -x,-y,-z
4 x,1/2-y,1/2+z
_cell_length_a                   10.032(4)
_cell_length_b                   23.848(10)
_cell_length_c                   8.784(4)
_cell_angle_alpha                90
_cell_angle_beta                 112.334(5)
_cell_angle_gamma                90
_cell_volume                     1943.87
loop_
_atom_site_label
_atom_site_type_symbol
_atom_site_fract_x
_atom_site_fract_y
_atom_site_fract_z
Ni1 Ni 0.16987(2) 1.066623(10) 0.09278(3)
O1 O 0.60782(15) 0.93294(6) -0.12060(18)
O2 O 0.77579(14) 0.89702(6) 0.09968(18)
O3 O 0.14702(14) 0.99208(6) -0.04074(16)
O4 O 0.04504(14) 0.91529(6) 0.01281(18)
N1 N -0.19027(18) 0.64448(7) 0.2936(2)
C1 C 0.5368(2) 0.90126(8) 0.0955(2)
C2 C 0.4034(2) 0.92750(8) 0.0303(2)
H1 H 0.3851 0.9534 -0.0545
N2 N -0.1227(2) 0.72214(7) 0.2078(2)
N3 N 0.19511(18) 1.02404(7) 0.30567(19)
C3 C 0.2970(2) 0.91539(8) 0.0906(2)
C4 C 0.1475(2) 0.86657(8) 0.5282(2)
C5 C 0.1516(2) 0.94369(8) 0.0162(2)
C6 C 0.6470(2) 0.91138(8) 0.0210(2)
C7 C 0.1126(2) 0.98764(8) 0.3422(2)
H2 H 0.0207 0.9771 0.2710
C8 C 0.5663(2) 0.86509(9) 0.2279(3)
H3 H 0.6573 0.8490 0.2762
N4 N 0.17886(19) 0.96774(7) 0.4962(2)
C9 C 0.1192(3) 0.92499(8) 0.5725(3)
H4 H 0.0160 0.9306 0.5372
H5 H 0.1615 0.9293 0.6912
C10 C 0.0507(2) 0.84136(8) 0.3867(2)
H6 H -0.0339 0.8600 0.3245
C11 C -0.0839(2) 0.67110(9) 0.2734(3)
H7 H 0.0080 0.6562 0.3014
C12 C 0.2030(3) 0.76124(9) 0.4316(3)
H8 H 0.2225 0.7261 0.3992
C13 C 0.0776(2) 0.78917(8) 0.3365(3)
C14 C 0.2729(2) 0.83790(9) 0.6223(3)
H9 H 0.3389 0.8542 0.7173
C15 C -0.0274(3) 0.76401(9) 0.1786(3)
H10 H -0.0857 0.7937 0.1097
H11 H 0.0260 0.7465 0.1197
C16 C 0.2991(2) 0.78533(10) 0.5745(3)
H12 H 0.3818 0.7659 0.6386
C17 C 0.3257(2) 0.87710(9) 0.2173(3)
H13 H 0.2537 0.8676 0.2551
C18 C 0.3207(3) 1.02635(11) 0.4420(3)
H14 H 0.3996 1.0486 0.4517
C19 C 0.4607(2) 0.85286(10) 0.2883(3)
H15 H 0.4804 0.8284 0.3766
C20 C -0.3029(3) 0.68047(10) 0.2391(4)
H16 H -0.3943 0.6732 0.2383
C21 C 0.3134(3) 0.99177(11) 0.5599(3)
H17 H 0.3848 0.9854 0.6631
C22 C -0.2631(3) 0.72854(11) 0.1859(4)
H18 H -0.3206 0.7598 0.1429
Ni1A Ni -0.16987(2) 0.566623(10) 0.40722(3)
Ni1B Ni -0.16987(2) 0.933377(10) -0.09278(3)
Ni1B_2 Ni 0.83013(2) 0.933377(10) -0.09278(3)
O1B O 0.39218(15) 1.06706(6) 0.12060(18)
O2B O 0.22421(14) 1.10298(6) -0.09968(18)
O4B O -0.04504(14) 1.08471(6) -0.01281(18)
N1A N 0.19027(18) 1.14448(7) 0.2064(2)
loop_
_geom_bond_atom_site_label_1
_geom_bond_atom_site_label_2
_geom_bond_site_symmetry_1
_geom_bond_site_symmetry_2
Ni1 O3 1_555 1_555
O1 C6 1_555 1_555
O2 C6 1_555 1_555
O3 C5 1_555 1_555
O4 C5 1_555 1_555
N1 C11 1_555 1_555
C1 C2 1_555 1_555
C2 H1 1_555 1_555
N2 C11 1_555 1_555
N3 Ni1 1_555 1_555
C3 C2 1_555 1_555
C4 C9 1_555 1_555
C5 C3 1_555 1_555
C6 C1 1_555 1_555
C7 N3 1_555 1_555
H2 C7 1_555 1_555
C8 C1 1_555 1_555
H3 C8 1_555 1_555
N4 C7 1_555 1_555
C9 N4 1_555 1_555
H4 C9 1_555 1_555
H5 C9 1_555 1_555
C10 C4 1_555 1_555
H6 C10 1_555 1_555
C11 H7 1_555 1_555
C12 H8 1_555 1_555
C13 C10 1_555 1_555
C14 C4 1_555 1_555
H9 C14 1_555 1_555
C15 N2 1_555 1_555
H10 C15 1_555 1_555
H11 C15 1_555 1_555
C16 C12 1_555 1_555
H12 C16 1_555 1_555
C17 C3 1_555 1_555
H13 C17 1_555 1_555
C18 N3 1_555 1_555
H14 C18 1_555 1_555
C19 C8 1_555 1_555
H15 C19 1_555 1_555
C20 N1 1_555 1_555
H16 C20 1_555 1_555
C21 N4 1_555 1_555
H17 C21 1_555 1_555
C22 N2 1_555 1_555
H18 C22 1_555 1_555
Ni1A N1 1_555 1_555
Ni1B O4 1_555 1_555
Ni1B_2 O1 1_555 1_555
O1B Ni1 1_555 1_555
O2B Ni1 1_555 1_555
O4B Ni1 1_555 1_555
N1A Ni1 1_555 1_555
O2 Ni1B_2 1_555 1_555
C12 C13 1_555 1_555
C13 C15 1_555 1_555
C14 C16 1_555 1_555
C17 C19 1_555 1_555
C18 C21 1_555 1_555
C20 C22 1_555 1_555

#END
