
#######################################################################
#
#                 Cambridge Crystallographic Data Centre
#                                CCDC 
#
#######################################################################
#
# If this CIF has been generated from an entry in the Cambridge 
# Structural Database, then it will include bibliographic, chemical, 
# crystal, experimental, refinement or atomic coordinate data resulting 
# from the CCDC's data processing and validation procedures.
#
#######################################################################

data_KOWSOG
_symmetry_cell_setting           triclinic
_symmetry_space_group_name_H-M   'P -1'
_symmetry_Int_Tables_number      2
_space_group_name_Hall           '-P 1'
loop_
_symmetry_equiv_pos_site_id
_symmetry_equiv_pos_as_xyz
1 x,y,z
2 -x,-y,-z
_cell_length_a                   9.7051(6)
_cell_length_b                   10.3023(7)
_cell_length_c                   11.1081(7)
_cell_angle_alpha                93.745(5)
_cell_angle_beta                 96.410(5)
_cell_angle_gamma                105.176(5)
_cell_volume                     1060.02
loop_
_atom_site_label
_atom_site_type_symbol
_atom_site_fract_x
_atom_site_fract_y
_atom_site_fract_z
Ni1 Ni 0.82495(3) 0.34397(3) 0.33669(3)
O1 O 0.74698(17) 0.44566(15) 0.19100(15)
O2 O 0.79555(17) 1.15283(15) 0.25736(14)
N1 N 0.6219(2) 0.27907(19) 0.38922(18)
O3 O 0.82416(17) 0.55408(15) 0.37363(14)
O4 O 0.93033(17) 1.07121(16) 0.39521(15)
C1 C 0.7512(2) 0.6792(2) 0.2133(2)
N2 N 0.4071(2) 0.1504(2) 0.41292(18)
C2 C 0.8092(2) 0.8057(2) 0.2794(2)
H1 H 0.8668 0.8137 0.3537
C3 C 0.5459(3) 0.7710(2) -0.0678(2)
H2 H 0.6072 0.8057 -0.1270
H3 H 0.4774 0.8226 -0.0611
H4 H 0.4957 0.6780 -0.0927
C4 C 0.6914(2) 0.9060(2) 0.1226(2)
H5 H 0.6686 0.9818 0.0942
C5 C 0.7800(2) 0.9203(2) 0.2330(2)
C6 C 0.6682(2) 0.6688(2) 0.1003(2)
H6 H 0.6336 0.5849 0.0552
C7 C 0.7753(2) 0.5528(2) 0.2622(2)
C8 C 0.5265(2) 0.1601(2) 0.3588(2)
H7 H 0.5403 0.0916 0.3066
C9 C 0.6357(2) 0.7812(2) 0.0534(2)
C10 C 0.8410(2) 1.0588(2) 0.3013(2)
C11 C 0.4291(3) 0.2705(2) 0.4841(2)
H8 H 0.3658 0.2937 0.5331
C12 C 0.1649(3) -0.0151(2) 0.1883(2)
H9 H 0.1312 0.0609 0.1994
C13 C 0.2823(3) 0.0296(2) 0.4075(2)
H10 H 0.1986 0.0583 0.4255
H11 H 0.3031 -0.0273 0.4694
C14 C 0.2476(2) -0.0520(2) 0.2845(2)
C15 C 0.2945(3) -0.1669(2) 0.2663(2)
H12 H 0.3485 -0.1927 0.3302
C16 C 0.5612(3) 0.3487(2) 0.4688(2)
H13 H 0.6039 0.4356 0.5062
C17 C 0.1331(3) -0.0915(3) 0.0763(2)
H14 H 0.0784 -0.0662 0.0125
C18 C 0.2622(3) -0.2447(2) 0.1539(2)
C19 C 0.1822(3) -0.2057(3) 0.0583(2)
H15 H 0.1616 -0.2557 -0.0174
C20 C 0.3050(3) -0.3748(3) 0.1394(3)
H16 H 0.2937 -0.4059 0.0536
H17 H 0.4056 -0.3590 0.1720
N3 N 0.2150(2) -0.4795(2) 0.20380(19)
C21 C 0.0778(3) -0.4906(2) 0.2208(2)
H18 H 0.0251 -0.4325 0.1928
C22 C 0.2548(3) -0.5829(2) 0.2570(2)
H19 H 0.3437 -0.6016 0.2595
C23 C 0.1390(3) -0.6520(2) 0.3051(2)
H20 H 0.1355 -0.7276 0.3474
N4 N 0.0268(2) -0.59433(19) 0.28244(18)
O5 O 0.90958(17) 0.29999(16) 0.50402(16)
H21 H 0.9919(16) 0.349(2) 0.536(2)
H22 H 0.922(3) 0.2244(14) 0.480(2)
Ni1_2 Ni -0.17505(3) -0.65603(3) 0.33669(3)
Ni1_3 Ni 0.82495(3) 1.34397(3) 0.33669(3)
O2_2 O 0.79555(17) 0.15283(15) 0.25736(14)
N4_2 N 1.0268(2) 0.40567(19) 0.28244(18)
loop_
_geom_bond_atom_site_label_1
_geom_bond_atom_site_label_2
_geom_bond_site_symmetry_1
_geom_bond_site_symmetry_2
Ni1 O1 1_555 1_555
O1 C7 1_555 1_555
O2 C10 1_555 1_555
N1 Ni1 1_555 1_555
O3 Ni1 1_555 1_555
O4 C10 1_555 1_555
C1 C2 1_555 1_555
N2 C8 1_555 1_555
C2 H1 1_555 1_555
C3 H2 1_555 1_555
H3 C3 1_555 1_555
H4 C3 1_555 1_555
C4 H5 1_555 1_555
C5 C2 1_555 1_555
C6 C1 1_555 1_555
H6 C6 1_555 1_555
C7 O3 1_555 1_555
C8 N1 1_555 1_555
H7 C8 1_555 1_555
C9 C3 1_555 1_555
C10 C5 1_555 1_555
C11 N2 1_555 1_555
H8 C11 1_555 1_555
C12 H9 1_555 1_555
C13 N2 1_555 1_555
H10 C13 1_555 1_555
H11 C13 1_555 1_555
C14 C12 1_555 1_555
C15 C14 1_555 1_555
H12 C15 1_555 1_555
C16 N1 1_555 1_555
H13 C16 1_555 1_555
C17 C12 1_555 1_555
H14 C17 1_555 1_555
C18 C15 1_555 1_555
C19 C17 1_555 1_555
H15 C19 1_555 1_555
C20 C18 1_555 1_555
H16 C20 1_555 1_555
H17 C20 1_555 1_555
N3 C20 1_555 1_555
C21 N3 1_555 1_555
H18 C21 1_555 1_555
C22 N3 1_555 1_555
H19 C22 1_555 1_555
C23 C22 1_555 1_555
H20 C23 1_555 1_555
N4 C21 1_555 1_555
O5 Ni1 1_555 1_555
H21 O5 1_555 1_555
H22 O5 1_555 1_555
Ni1_2 N4 1_555 1_555
Ni1_3 O2 1_555 1_555
O2_2 Ni1 1_555 1_555
N4_2 Ni1 1_555 1_555
C1 C7 1_555 1_555
C4 C5 1_555 1_555
C4 C9 1_555 1_555
C6 C9 1_555 1_555
C11 C16 1_555 1_555
C13 C14 1_555 1_555
C18 C19 1_555 1_555
C23 N4 1_555 1_555

#END
