
#######################################################################
#
#                 Cambridge Crystallographic Data Centre
#                                CCDC 
#
#######################################################################
#
# If this CIF has been generated from an entry in the Cambridge 
# Structural Database, then it will include bibliographic, chemical, 
# crystal, experimental, refinement or atomic coordinate data resulting 
# from the CCDC's data processing and validation procedures.
#
#######################################################################

data_KOWSIA
_symmetry_cell_setting           monoclinic
_symmetry_space_group_name_H-M   'P 21/n'
_symmetry_Int_Tables_number      14
_space_group_name_Hall           '-P 2yn'
loop_
_symmetry_equiv_pos_site_id
_symmetry_equiv_pos_as_xyz
1 x,y,z
2 1/2-x,1/2+y,1/2-z
3 -x,-y,-z
4 1/2+x,1/2-y,1/2+z
_cell_length_a                   7.7744(3)
_cell_length_b                   16.4941(6)
_cell_length_c                   16.5483(5)
_cell_angle_alpha                90
_cell_angle_beta                 95.516(3)
_cell_angle_gamma                90
_cell_volume                     2112.19
loop_
_atom_site_label
_atom_site_type_symbol
_atom_site_fract_x
_atom_site_fract_y
_atom_site_fract_z
Co1 Co 0.58653(3) 0.686892(15) 0.718508(15)
O1 O 0.42290(17) 0.68175(8) 0.61972(8)
O2 O 0.26516(19) 0.60105(9) 0.69155(8)
O3 O 0.22799(18) 0.76637(9) 0.34252(8)
O4 O -0.03830(18) 0.74015(8) 0.29239(8)
N1 N 1.2687(2) 0.74975(9) 1.16233(10)
N2 N 1.3790(2) 0.68295(10) 1.06410(10)
N3 N 0.6991(2) 0.57746(10) 0.74240(9)
N4 N 0.9102(2) 0.48874(10) 0.76489(10)
C1 C 1.2423(2) 0.72455(11) 1.08598(12)
H1 H 1.1400 0.7346 1.0513
C2 C 1.4326(3) 0.72351(12) 1.18970(13)
H2 H 1.4885 0.7329 1.2425
C3 C 1.5016(3) 0.68224(12) 1.12984(13)
H3 H 1.6126 0.6577 1.1327
C4 C 1.3936(3) 0.64651(13) 0.98398(13)
H4 H 1.5174 0.6376 0.9774
H5 H 1.3483 0.6855 0.9416
C5 C 0.8660(3) 0.56755(12) 0.76366(12)
H6 H 0.9449 0.6107 0.7765
C6 C 0.6328(3) 0.50038(12) 0.72917(12)
H7 H 0.5152 0.4879 0.7130
C7 C 0.7619(3) 0.44514(12) 0.74291(12)
H8 H 0.7519 0.3879 0.7383
C8 C 1.0855(2) 0.45564(12) 0.78519(12)
H9 H 1.1646 0.4790 0.7480
H10 H 1.0829 0.3962 0.7771
C9 C 1.1536(2) 0.47425(11) 0.87196(11)
C10 C 1.1279(2) 0.42074(12) 0.93463(12)
H11 H 1.0694 0.3709 0.9228
C11 C 1.1868(3) 0.43950(12) 1.01426(12)
H12 H 1.1692 0.4025 1.0567
C12 C 1.2716(3) 0.51251(12) 1.03200(12)
H13 H 1.3115 0.5254 1.0866
C13 C 1.2983(2) 0.56674(12) 0.97000(12)
C14 C 1.2401(2) 0.54693(12) 0.89020(12)
H14 H 1.2597 0.5834 0.8476
C15 C 0.2873(3) 0.63933(11) 0.62901(11)
C16 C 0.1524(2) 0.63888(11) 0.55729(11)
C17 C 0.1819(3) 0.68113(11) 0.48715(11)
H15 H 0.2874 0.7095 0.4844
C18 C 0.0567(2) 0.68180(11) 0.42102(11)
C19 C -0.0980(3) 0.63936(12) 0.42550(12)
H16 H -0.1826 0.6395 0.3801
C20 C -0.1301(2) 0.59702(12) 0.49492(12)
C21 C -0.0026(2) 0.59696(11) 0.56065(11)
H17 H -0.0220 0.5678 0.6085
C22 C -0.3007(3) 0.55430(13) 0.50099(13)
H18 H -0.3812 0.5913 0.5244
H19 H -0.2822 0.5064 0.5358
H20 H -0.3493 0.5375 0.4467
C23 C 0.0861(3) 0.73200(11) 0.34852(11)
Co1C Co 0.08653(3) 0.813108(15) 0.218508(15)
Co1C_2 Co 1.08653(3) 0.813108(15) 1.218508(15)
O3C O 0.72799(18) 0.73363(9) 0.84252(8)
O4C O 0.46170(18) 0.75985(8) 0.79239(8)
N1C N 0.7687(2) 0.75025(9) 0.66233(10)
O5 O 0.5611(6) 0.7634(3) 0.4032(3)
H21 H 0.463(3) 0.751(5) 0.385(4)
H22 H 0.637(6) 0.756(5) 0.373(3)
loop_
_geom_bond_atom_site_label_1
_geom_bond_atom_site_label_2
_geom_bond_site_symmetry_1
_geom_bond_site_symmetry_2
Co1 O1 1_555 1_555
O1 C15 1_555 1_555
O2 C15 1_555 1_555
O3 C23 1_555 1_555
O4 C23 1_555 1_555
N1 C1 1_555 1_555
N2 C1 1_555 1_555
N3 Co1 1_555 1_555
N4 C5 1_555 1_555
C1 H1 1_555 1_555
C2 N1 1_555 1_555
H2 C2 1_555 1_555
C3 N2 1_555 1_555
H3 C3 1_555 1_555
C4 N2 1_555 1_555
H4 C4 1_555 1_555
H5 C4 1_555 1_555
C5 N3 1_555 1_555
H6 C5 1_555 1_555
C6 N3 1_555 1_555
H7 C6 1_555 1_555
C7 N4 1_555 1_555
H8 C7 1_555 1_555
C8 N4 1_555 1_555
H9 C8 1_555 1_555
H10 C8 1_555 1_555
C9 C8 1_555 1_555
C10 C9 1_555 1_555
H11 C10 1_555 1_555
C11 C10 1_555 1_555
H12 C11 1_555 1_555
C12 C11 1_555 1_555
H13 C12 1_555 1_555
C13 C4 1_555 1_555
C14 C9 1_555 1_555
H14 C14 1_555 1_555
C15 C16 1_555 1_555
C16 C17 1_555 1_555
C17 H15 1_555 1_555
C18 C17 1_555 1_555
C19 C18 1_555 1_555
H16 C19 1_555 1_555
C20 C19 1_555 1_555
C21 C16 1_555 1_555
H17 C21 1_555 1_555
C22 C20 1_555 1_555
H18 C22 1_555 1_555
H19 C22 1_555 1_555
H20 C22 1_555 1_555
C23 C18 1_555 1_555
O5 H21 1_555 1_555
H22 O5 1_555 1_555
Co1C O3 1_555 1_555
Co1C_2 N1 1_555 1_555
O3C Co1 1_555 1_555
O4C Co1 1_555 1_555
N1C Co1 1_555 1_555
O4 Co1C 1_555 1_555
C2 C3 1_555 1_555
C6 C7 1_555 1_555
C12 C13 1_555 1_555
C13 C14 1_555 1_555
C20 C21 1_555 1_555

#END
