
#######################################################################
#
#                 Cambridge Crystallographic Data Centre
#                                CCDC 
#
#######################################################################
#
# If this CIF has been generated from an entry in the Cambridge 
# Structural Database, then it will include bibliographic, chemical, 
# crystal, experimental, refinement or atomic coordinate data resulting 
# from the CCDC's data processing and validation procedures.
#
#######################################################################

data_KOWSUM
_symmetry_cell_setting           orthorhombic
_symmetry_space_group_name_H-M   'P n n a'
_symmetry_Int_Tables_number      52
_space_group_name_Hall           '-P 2a 2bc'
loop_
_symmetry_equiv_pos_site_id
_symmetry_equiv_pos_as_xyz
1 x,y,z
2 1/2-x,-y,z
3 1/2-x,1/2+y,1/2-z
4 x,1/2-y,1/2-z
5 -x,-y,-z
6 1/2+x,y,-z
7 1/2+x,1/2-y,1/2+z
8 -x,1/2+y,1/2+z
_cell_length_a                   17.3325(12)
_cell_length_b                   12.3105(9)
_cell_length_c                   12.5304(9)
_cell_angle_alpha                90
_cell_angle_beta                 90
_cell_angle_gamma                90
_cell_volume                     2673.63
loop_
_atom_site_label
_atom_site_type_symbol
_atom_site_fract_x
_atom_site_fract_y
_atom_site_fract_z
Co1 Co 0.460040(19) 0.2500 0.2500
O1 O 0.42233(8) 0.16255(11) 0.11516(11)
N1 N 0.53215(8) 0.36136(12) 0.17685(12)
C1 C 0.36722(10) 0.11886(14) 0.16608(16)
C2 C 0.2500 0.0000 0.1601(2)
H1 H 0.2500 0.0000 0.2343
C3 C 0.30923(10) 0.05264(14) -0.00543(15)
H2 H 0.3489 0.0857 -0.0434
N2 N 0.56686(9) 0.51836(12) 0.10267(12)
O2 O 0.31159(9) -0.01569(13) -0.21991(12)
N3 N 0.2500 0.0000 -0.17474(18)
C4 C 0.2500 0.0000 -0.0577(2)
C5 C 0.30798(10) 0.05497(13) 0.10528(15)
C6 C 0.58162(10) 0.33997(14) 0.09185(14)
C7 C 0.52588(11) 0.46806(15) 0.17915(16)
H3 H 0.4960 0.5050 0.2289
C8 C 0.61381(11) 0.69680(14) 0.16888(15)
C9 C 0.60357(10) 0.43802(14) 0.04470(15)
C10 C 0.69372(11) 0.69843(15) 0.16886(16)
H4 H 0.7208 0.6647 0.1140
C11 C 0.65012(12) 0.44185(17) -0.04580(17)
H5 H 0.6646 0.5073 -0.0770
C12 C 0.60592(11) 0.24143(15) 0.04955(17)
H6 H 0.5920 0.1757 0.0807
C13 C 0.56965(13) 0.63667(15) 0.08331(18)
H7 H 0.5174 0.6647 0.0802
H8 H 0.5938 0.6501 0.0147
C14 C 0.65143(14) 0.24518(17) -0.04027(19)
H9 H 0.6680 0.1805 -0.0710
C15 C 0.57467(16) 0.7500 0.2500
H10 H 0.5210 0.7500 0.2500
C16 C 0.67344(14) 0.3435(2) -0.08646(19)
H11 H 0.7049 0.3425 -0.1466
C17 C 0.73328(16) 0.7500 0.2500
H12 H 0.7869 0.7500 0.2500
O3 O 0.36034(8) 0.12974(12) 0.26438(11)
O1A O 0.07767(8) -0.16255(11) 0.11516(11)
C1A C 0.13278(10) -0.11886(14) 0.16608(16)
C3A C 0.19077(10) -0.05264(14) -0.00543(15)
H2A H 0.1511 -0.0857 -0.0434
O2A O 0.18841(9) 0.01569(13) -0.21991(12)
C5A C 0.19202(10) -0.05497(13) 0.10528(15)
O3A O 0.13966(8) -0.12974(12) 0.26438(11)
N1C N 0.53215(8) 1.13864(12) 0.32315(12)
N2C N 0.56686(9) 0.98164(12) 0.39733(12)
C6C C 0.58162(10) 1.16003(14) 0.40815(14)
C7C C 0.52588(11) 1.03194(15) 0.32085(16)
H3C H 0.4960 0.9950 0.2711
C8C C 0.61381(11) 0.80320(14) 0.33112(15)
C9C C 0.60357(10) 1.06198(14) 0.45530(15)
C10C C 0.69372(11) 0.80157(15) 0.33114(16)
H4C H 0.7208 0.8353 0.3860
C11C C 0.65012(12) 1.05815(17) 0.54580(17)
H5C H 0.6646 0.9927 0.5770
C12C C 0.60592(11) 1.25857(15) 0.45045(17)
H6C H 0.5920 1.3243 0.4193
C13C C 0.56965(13) 0.86333(15) 0.41669(18)
H7C H 0.5174 0.8353 0.4198
H8C H 0.5938 0.8499 0.4853
C14C C 0.65143(14) 1.25482(17) 0.54027(19)
H9C H 0.6680 1.3195 0.5710
C16C C 0.67344(14) 1.1565(2) 0.58646(19)
H11C H 0.7049 1.1575 0.6466
Co1_2 Co 0.460040(19) 1.2500 0.2500
Co1A Co 0.039960(19) -0.2500 0.2500
O1C O 0.42233(8) 0.33745(11) 0.38484(11)
N1C_2 N 0.53215(8) 0.13864(12) 0.32315(12)
O3C O 0.36034(8) 0.37026(12) 0.23562(11)
O4 O 0.4998(5) 0.9578(6) 0.0676(6)
loop_
_geom_bond_atom_site_label_1
_geom_bond_atom_site_label_2
_geom_bond_site_symmetry_1
_geom_bond_site_symmetry_2
Co1 O1 1_555 1_555
O1 C1 1_555 1_555
N1 Co1 1_555 1_555
C1 C5 1_555 1_555
C2 H1 1_555 1_555
C3 H2 1_555 1_555
N2 C7 1_555 1_555
O2 N3 1_555 1_555
N3 C4 1_555 1_555
C4 C3 1_555 1_555
C5 C2 1_555 1_555
C6 N1 1_555 1_555
C7 N1 1_555 1_555
H3 C7 1_555 1_555
C8 C10 1_555 1_555
C9 N2 1_555 1_555
C10 H4 1_555 1_555
C11 C9 1_555 1_555
H5 C11 1_555 1_555
C12 C6 1_555 1_555
H6 C12 1_555 1_555
C13 N2 1_555 1_555
H7 C13 1_555 1_555
H8 C13 1_555 1_555
C14 C12 1_555 1_555
H9 C14 1_555 1_555
C15 C8 1_555 1_555
H10 C15 1_555 1_555
C16 C11 1_555 1_555
H11 C16 1_555 1_555
C17 C10 1_555 1_555
H12 C17 1_555 1_555
O3 Co1 1_555 1_555
O1A C1A 1_555 1_555
C1A C5A 1_555 1_555
C3A C4 1_555 1_555
H2A C3A 1_555 1_555
O2A N3 1_555 1_555
C5A C2 1_555 1_555
O3A C1A 1_555 1_555
N1C C6C 1_555 1_555
N2C C7C 1_555 1_555
C6C C9C 1_555 1_555
C7C N1C 1_555 1_555
H3C C7C 1_555 1_555
C8C C15 1_555 1_555
C9C N2C 1_555 1_555
C10C C17 1_555 1_555
H4C C10C 1_555 1_555
C11C C9C 1_555 1_555
H5C C11C 1_555 1_555
C12C C6C 1_555 1_555
H6C C12C 1_555 1_555
C13C N2C 1_555 1_555
H7C C13C 1_555 1_555
H8C C13C 1_555 1_555
C14C C12C 1_555 1_555
H9C C14C 1_555 1_555
C16C C11C 1_555 1_555
H11C C16C 1_555 1_555
Co1_2 N1C 1_555 1_555
Co1A O1A 1_555 1_555
O1C Co1 1_555 1_555
N1C_2 Co1 1_555 1_555
O3C Co1 1_555 1_555
C1 O3 1_555 1_555
C3 C5 1_555 1_555
C6 C9 1_555 1_555
C8 C13 1_555 1_555
C14 C16 1_555 1_555
C3A C5A 1_555 1_555
O3A Co1A 1_555 1_555
C8C C10C 1_555 1_555
C8C C13C 1_555 1_555
C14C C16C 1_555 1_555

#END
