
#######################################################################
#
#                 Cambridge Crystallographic Data Centre
#                                CCDC 
#
#######################################################################
#
# If this CIF has been generated from an entry in the Cambridge 
# Structural Database, then it will include bibliographic, chemical, 
# crystal, experimental, refinement or atomic coordinate data resulting 
# from the CCDC's data processing and validation procedures.
#
#######################################################################

data_KOWTIB
_symmetry_cell_setting           monoclinic
_symmetry_space_group_name_H-M   'P 21/c'
_symmetry_Int_Tables_number      14
_space_group_name_Hall           '-P 2ybc'
loop_
_symmetry_equiv_pos_site_id
_symmetry_equiv_pos_as_xyz
1 x,y,z
2 -x,1/2+y,1/2-z
3 -x,-y,-z
4 x,1/2-y,1/2+z
_cell_length_a                   5.4008(9)
_cell_length_b                   10.3536(18)
_cell_length_c                   17.616(3)
_cell_angle_alpha                90
_cell_angle_beta                 104.067(6)
_cell_angle_gamma                90
_cell_volume                     955.507
loop_
_atom_site_label
_atom_site_type_symbol
_atom_site_fract_x
_atom_site_fract_y
_atom_site_fract_z
Mn1 Mn 0.0000 0.0000 0.0000
C1 C 0.1286(4) 0.28685(19) -0.02679(12)
C2 C 0.3223(4) 0.39630(18) -0.01271(12)
C3 C 0.4331(4) 0.4428(2) 0.06144(12)
C4 C 0.6049(4) 0.5432(2) 0.07382(12)
C5 C -0.0747(5) 0.1571(3) 0.14191(15)
H1 H 0.0418 0.2112 0.1266
C6 C -0.0670(7) 0.3118(3) 0.24509(19)
H2 H 0.0233 0.2901 0.2975
H3 H -0.2092 0.3665 0.2466
H4 H 0.0458 0.3564 0.2194
C7 C -0.3414(6) 0.1171(3) 0.23043(19)
H5 H -0.3830 0.0409 0.1989
H6 H -0.4935 0.1668 0.2276
H7 H -0.2687 0.0927 0.2838
F1 F 0.3631(3) 0.39205(15) 0.12378(8)
F2 F 0.6984(3) 0.58640(15) 0.14774(8)
N1 N -0.1596(4) 0.19371(19) 0.20198(12)
O1 O 0.2102(3) 0.17838(14) -0.00042(10)
O2 O -0.0899(3) 0.31412(17) -0.06378(13)
O3 O -0.1350(4) 0.05739(18) 0.10369(11)
O4 O 0.3439(3) -0.09054(17) 0.07491(11)
H8 H 0.3297 -0.1675 0.0842
H9 H 0.4830 -0.0589 0.0747
C1B C 0.8714(4) 0.71315(19) 0.02679(12)
C2B C 0.6777(4) 0.60370(18) 0.01271(12)
C3B C 0.5669(4) 0.5572(2) -0.06144(12)
C4B C 0.3951(4) 0.4568(2) -0.07382(12)
F1B F 0.6369(3) 0.60795(15) -0.12378(8)
F2B F 0.3016(3) 0.41360(15) -0.14774(8)
O1B O 0.7898(3) 0.82162(14) 0.00042(10)
O2B O 1.0899(3) 0.68588(17) 0.06378(13)
C5B C 0.0747(5) -0.1571(3) -0.14191(15)
H1B H -0.0418 -0.2112 -0.1266
C6B C 0.0670(7) -0.3118(3) -0.24509(19)
H2B H -0.0233 -0.2901 -0.2975
H3B H 0.2092 -0.3665 -0.2466
H4B H -0.0458 -0.3564 -0.2194
C7B C 0.3414(6) -0.1171(3) -0.23043(19)
H5B H 0.3830 -0.0409 -0.1989
H6B H 0.4935 -0.1668 -0.2276
H7B H 0.2687 -0.0927 -0.2838
N1B N 0.1596(4) -0.19371(19) -0.20198(12)
O3B O 0.1350(4) -0.05739(18) -0.10369(11)
O4B O -0.3439(3) 0.09054(17) -0.07491(11)
H8B H -0.3297 0.1675 -0.0842
H9B H -0.4830 0.0589 -0.0747
Mn1_2 Mn 1.0000 1.0000 0.0000
O1B_2 O -0.2102(3) -0.17838(14) 0.00042(10)
loop_
_geom_bond_atom_site_label_1
_geom_bond_atom_site_label_2
_geom_bond_site_symmetry_1
_geom_bond_site_symmetry_2
Mn1 O1 1_555 1_555
C1 C2 1_555 1_555
C2 C3 1_555 1_555
C3 C4 1_555 1_555
C4 F2 1_555 1_555
C5 H1 1_555 1_555
C6 H2 1_555 1_555
H3 C6 1_555 1_555
H4 C6 1_555 1_555
C7 H5 1_555 1_555
H6 C7 1_555 1_555
H7 C7 1_555 1_555
F1 C3 1_555 1_555
N1 C5 1_555 1_555
O1 C1 1_555 1_555
O2 C1 1_555 1_555
O3 Mn1 1_555 1_555
O4 Mn1 1_555 1_555
H8 O4 1_555 1_555
H9 O4 1_555 1_555
C1B C2B 1_555 1_555
C2B C4 1_555 1_555
C3B C2B 1_555 1_555
C4B C2 1_555 1_555
F1B C3B 1_555 1_555
F2B C4B 1_555 1_555
O1B C1B 1_555 1_555
O2B C1B 1_555 1_555
C5B H1B 1_555 1_555
C6B H2B 1_555 1_555
H3B C6B 1_555 1_555
H4B C6B 1_555 1_555
C7B H5B 1_555 1_555
H6B C7B 1_555 1_555
H7B C7B 1_555 1_555
N1B C5B 1_555 1_555
O3B Mn1 1_555 1_555
O4B Mn1 1_555 1_555
H8B O4B 1_555 1_555
H9B O4B 1_555 1_555
Mn1_2 O1B 1_555 1_555
O1B_2 Mn1 1_555 1_555
C5 O3 1_555 1_555
C6 N1 1_555 1_555
C7 N1 1_555 1_555
C3B C4B 1_555 1_555
C5B O3B 1_555 1_555
C6B N1B 1_555 1_555
C7B N1B 1_555 1_555

#END
