
#######################################################################
#
#                 Cambridge Crystallographic Data Centre
#                                CCDC 
#
#######################################################################
#
# If this CIF has been generated from an entry in the Cambridge 
# Structural Database, then it will include bibliographic, chemical, 
# crystal, experimental, refinement or atomic coordinate data resulting 
# from the CCDC's data processing and validation procedures.
#
#######################################################################

data_KOWXUR
_symmetry_cell_setting           triclinic
_symmetry_space_group_name_H-M   'P -1'
_symmetry_Int_Tables_number      2
_space_group_name_Hall           '-P 1'
loop_
_symmetry_equiv_pos_site_id
_symmetry_equiv_pos_as_xyz
1 x,y,z
2 -x,-y,-z
_cell_length_a                   9.938(2)
_cell_length_b                   12.578(3)
_cell_length_c                   12.763(3)
_cell_angle_alpha                63.926(2)
_cell_angle_beta                 86.534(3)
_cell_angle_gamma                71.236(3)
_cell_volume                     1350.69
loop_
_atom_site_label
_atom_site_type_symbol
_atom_site_fract_x
_atom_site_fract_y
_atom_site_fract_z
C1 C 0.4683(4) 0.5595(3) 0.8337(3)
C2 C 0.3339(4) 0.6497(3) 0.7911(3)
H1 H 0.2532 0.6256 0.8117
C3 C 0.3170(4) 0.7754(3) 0.7185(3)
C4 C 0.4394(4) 0.8110(4) 0.6909(3)
H2 H 0.4309 0.8944 0.6433
C5 C 0.5736(4) 0.7212(3) 0.7349(3)
C6 C 0.5884(4) 0.5966(4) 0.8060(3)
H3 H 0.6788 0.5377 0.8353
C7 C 0.1742(4) 0.8691(4) 0.6617(3)
C8 C 0.7061(4) 0.7586(4) 0.7031(4)
C9 C 0.5843(5) 0.3305(4) 0.9218(4)
C10 C 0.5686(4) 0.2078(3) 1.0048(3)
C11 C 0.6917(4) 0.1061(3) 1.0559(3)
H4 H 0.7808 0.1153 1.0389
C12 C 0.6810(5) -0.0094(4) 1.1326(3)
H5 H 0.7644 -0.0773 1.1661
C13 C 0.4392(4) 0.0712(3) 1.1096(3)
H6 H 0.3511 0.0601 1.1276
C14 C 0.4419(4) 0.1886(4) 1.0319(3)
H7 H 0.3569 0.2545 0.9983
C15 C 0.0157(4) 0.6471(4) 0.4317(4)
H8 H 0.0056 0.6176 0.3784
C16 C -0.0786(5) 0.7450(4) 0.4438(4)
H9 H -0.1651 0.7955 0.3983
C17 C 0.0981(4) 0.6707(4) 0.5720(4)
H10 H 0.1581 0.6587 0.6323
C18 C 0.2550(4) 0.4940(3) 0.5410(4)
C19 C 0.3034(4) 0.4179(4) 0.6577(4)
H11 H 0.2525 0.4338 0.7158
C20 C 0.4293(5) 0.3170(4) 0.6872(4)
H12 H 0.4641 0.2655 0.7654
C21 C 0.5023(4) 0.2936(3) 0.6001(4)
C22 C 0.7487(5) 0.1662(4) 0.7010(4)
H13 H 0.7566 0.2111 0.7406
C23 C 0.8486(5) 0.0645(4) 0.7023(4)
H14 H 0.9396 0.0283 0.7415
C24 C 0.6653(4) 0.1013(3) 0.5951(4)
H15 H 0.6038 0.0954 0.5473
C25 C 0.4532(5) 0.3703(4) 0.4842(4)
H16 H 0.5052 0.3550 0.4263
C26 C 0.3266(4) 0.4705(4) 0.4527(4)
H17 H 0.2908 0.5204 0.3746
Co1 Co -0.11388(5) 0.88420(4) 0.59335(5)
N1 N 0.5566(4) -0.0269(3) 1.1600(3)
N2 N 0.4740(4) 0.4341(3) 0.9069(3)
H18 H 0.400(5) 0.423(4) 0.946(4)
N3 N -0.0285(3) 0.7592(3) 0.5328(3)
N4 N 0.1285(3) 0.6003(3) 0.5131(3)
N5 N 0.6332(4) 0.1918(3) 0.6310(3)
N6 N 0.7965(3) 0.0218(3) 0.6370(3)
O1 O 0.0697(3) 0.8273(2) 0.6869(3)
O2 O 0.1649(3) 0.9777(2) 0.5948(2)
O3 O 0.6969(3) 0.8522(2) 0.6066(2)
O4 O 0.8167(3) 0.6961(3) 0.7721(3)
O5 O 0.6934(3) 0.3342(2) 0.8695(2)
Co1_2 Co 0.88612(5) -0.11580(4) 0.59335(5)
Co1_3 Co 0.88612(5) 0.88420(4) 0.59335(5)
Co1A Co 0.11388(5) 1.11580(4) 0.40665(5)
N6_2 N -0.2035(3) 1.0218(3) 0.6370(3)
O2A O -0.1649(3) 1.0223(2) 0.4052(2)
O3_2 O -0.3031(3) 0.8522(2) 0.6066(2)
O6 O 0.0150(4) 0.4756(4) 0.7935(3)
H19 H -0.046(6) 0.547(5) 0.752(5)
H20 H -0.020(6) 0.420(4) 0.809(4)
O7 O 1.0014(5) 0.2341(4) 0.8888(4)
H21 H 1.029(7) 0.233(4) 0.950(5)
H22 H 0.911(6) 0.255(6) 0.882(5)
O8 O 0.9880(4) 0.2716(3) 0.0651(3)
H23 H 0.973(6) 0.348(5) 0.047(5)
H24 H 0.922(6) 0.248(5) 0.106(4)
O9 O 0.8106(3) 0.5441(3) 1.0123(3)
H25 H 0.867(6) 0.568(5) 1.036(4)
H26 H 0.829(6) 0.537(5) 0.952(5)
loop_
_geom_bond_atom_site_label_1
_geom_bond_atom_site_label_2
_geom_bond_site_symmetry_1
_geom_bond_site_symmetry_2
C1 C2 1_555 1_555
C2 H1 1_555 1_555
C3 C2 1_555 1_555
C4 C3 1_555 1_555
H2 C4 1_555 1_555
C5 C4 1_555 1_555
C6 C1 1_555 1_555
H3 C6 1_555 1_555
C7 C3 1_555 1_555
C8 C5 1_555 1_555
C9 C10 1_555 1_555
C10 C11 1_555 1_555
C11 H4 1_555 1_555
C12 C11 1_555 1_555
H5 C12 1_555 1_555
C13 H6 1_555 1_555
C14 C10 1_555 1_555
H7 C14 1_555 1_555
C15 H8 1_555 1_555
C16 C15 1_555 1_555
H9 C16 1_555 1_555
C17 H10 1_555 1_555
C18 C19 1_555 1_555
C19 H11 1_555 1_555
C20 C19 1_555 1_555
H12 C20 1_555 1_555
C21 C20 1_555 1_555
C22 H13 1_555 1_555
C23 C22 1_555 1_555
H14 C23 1_555 1_555
C24 H15 1_555 1_555
C25 C21 1_555 1_555
H16 C25 1_555 1_555
C26 C18 1_555 1_555
H17 C26 1_555 1_555
Co1 N3 1_555 1_555
N1 C12 1_555 1_555
N2 C1 1_555 1_555
H18 N2 1_555 1_555
N3 C16 1_555 1_555
N4 C15 1_555 1_555
N5 C21 1_555 1_555
N6 C23 1_555 1_555
O1 C7 1_555 1_555
O2 C7 1_555 1_555
O3 C8 1_555 1_555
O4 C8 1_555 1_555
O5 C9 1_555 1_555
O6 H19 1_555 1_555
H20 O6 1_555 1_555
O7 H21 1_555 1_555
H22 O7 1_555 1_555
O8 H23 1_555 1_555
H24 O8 1_555 1_555
O9 H25 1_555 1_555
H26 O9 1_555 1_555
Co1_2 N6 1_555 1_555
Co1_3 O3 1_555 1_555
Co1A O2 1_555 1_555
N6_2 Co1 1_555 1_555
O2A Co1 1_555 1_555
O3_2 Co1 1_555 1_555
C5 C6 1_555 1_555
C9 N2 1_555 1_555
C13 C14 1_555 1_555
C13 N1 1_555 1_555
C17 N3 1_555 1_555
C17 N4 1_555 1_555
C18 N4 1_555 1_555
C22 N5 1_555 1_555
C24 N5 1_555 1_555
C24 N6 1_555 1_555
C25 C26 1_555 1_555
Co1 O1 1_555 1_555

#END
