
#######################################################################
#
#                 Cambridge Crystallographic Data Centre
#                                CCDC 
#
#######################################################################
#
# If this CIF has been generated from an entry in the Cambridge 
# Structural Database, then it will include bibliographic, chemical, 
# crystal, experimental, refinement or atomic coordinate data resulting 
# from the CCDC's data processing and validation procedures.
#
#######################################################################

data_KOXGOV
_symmetry_cell_setting           monoclinic
_symmetry_space_group_name_H-M   'P 21/c'
_symmetry_Int_Tables_number      14
_space_group_name_Hall           '-P 2ybc'
loop_
_symmetry_equiv_pos_site_id
_symmetry_equiv_pos_as_xyz
1 x,y,z
2 -x,1/2+y,1/2-z
3 -x,-y,-z
4 x,1/2-y,1/2+z
_cell_length_a                   14.1077(9)
_cell_length_b                   22.4332(14)
_cell_length_c                   15.3646(10)
_cell_angle_alpha                90
_cell_angle_beta                 92.7100(10)
_cell_angle_gamma                90
_cell_volume                     4857.16
loop_
_atom_site_label
_atom_site_type_symbol
_atom_site_fract_x
_atom_site_fract_y
_atom_site_fract_z
Cd1 Cd 0.31484(2) 0.248798(16) 0.43403(2)
O1 O -0.2944(2) -0.01916(14) 0.5623(2)
O2 O -0.0625(2) 0.11755(14) 0.6761(2)
O3 O -0.1615(2) -0.04874(14) 0.7250(2)
O4 O -0.2914(2) 0.14256(14) 0.6731(2)
O5 O 0.2665(3) 0.22718(17) 0.2899(2)
O6 O 0.1816(3) 0.29944(17) 0.3381(3)
O7 O 0.1403(4) 0.2555(3) 0.2181(3)
O8 O 0.4039(2) 0.15576(15) 0.4397(3)
O9 O 0.4856(3) 0.12443(18) 0.5553(3)
O10 O 0.4054(3) 0.20733(15) 0.5605(2)
N1 N 0.1843(3) 0.19481(17) 0.4683(3)
N2 N -0.5500(3) 0.20940(18) 0.8829(3)
N3 N -0.2917(4) -0.0696(2) 0.2337(3)
N4 N -0.2937(3) -0.16773(17) 0.9823(3)
N5 N 0.1962(4) 0.2614(2) 0.2805(3)
N6 N 0.4339(3) 0.1627(2) 0.5207(3)
C1 C 0.1657(3) 0.1426(2) 0.4294(3)
H1 H 0.2073 0.1289 0.3887
C2 C 0.0881(3) 0.1078(2) 0.4464(3)
H2 H 0.0787 0.0715 0.4181
C3 C 0.0235(3) 0.1277(2) 0.5067(3)
C4 C 0.0429(4) 0.1821(2) 0.5471(3)
H3 H 0.0023 0.1973 0.5876
C5 C 0.1229(4) 0.2132(2) 0.5265(3)
H4 H 0.1351 0.2492 0.5547
C6 C -0.0611(3) 0.0906(2) 0.5235(3)
C7 C -0.1043(3) 0.0590(2) 0.4549(3)
H5 H -0.0790 0.0623 0.4003
C8 C -0.1833(3) 0.0227(2) 0.4632(3)
C9 C -0.2195(3) 0.01841(19) 0.5462(3)
C10 C -0.1794(3) 0.05048(19) 0.6164(3)
C11 C -0.0996(3) 0.0859(2) 0.6053(3)
C12 C -0.2248(3) -0.0099(2) 0.3857(3)
C13 C -0.2215(4) 0.0163(2) 0.3030(4)
H6 H -0.1976 0.0547 0.2973
C14 C -0.2534(4) -0.0146(3) 0.2309(4)
H7 H -0.2484 0.0034 0.1768
C15 C -0.2956(4) -0.0940(3) 0.3115(4)
H8 H -0.3207 -0.1322 0.3153
C16 C -0.2646(3) -0.0662(2) 0.3880(3)
H9 H -0.2705 -0.0854 0.4411
C17 C -0.3853(4) 0.0061(2) 0.5393(4)
H10 H -0.3985 0.0377 0.5791
H11 H -0.4332 -0.0242 0.5423
H12 H -0.3853 0.0216 0.4811
C18 C 0.0199(4) 0.0909(3) 0.7185(4)
H13 H 0.0012 0.0571 0.7519
H14 H 0.0509 0.1196 0.7565
H15 H 0.0628 0.0783 0.6754
C19 C -0.2563(4) 0.1989(2) 0.7057(4)
H16 H -0.2682 0.2021 0.7666
H17 H -0.2881 0.2307 0.6744
H18 H -0.1893 0.2014 0.6981
C20 C -0.0849(4) -0.0693(2) 0.7820(4)
H19 H -0.0255 -0.0594 0.7576
H20 H -0.0893 -0.1118 0.7886
H21 H -0.0886 -0.0506 0.8379
C21 C -0.2252(3) 0.04767(19) 0.7035(3)
C22 C -0.2170(3) -0.0030(2) 0.7548(3)
C23 C -0.2655(3) -0.0078(2) 0.8321(3)
C24 C -0.3198(3) 0.0407(2) 0.8556(3)
H22 H -0.3508 0.0388 0.9076
C25 C -0.3302(3) 0.0915(2) 0.8055(3)
C26 C -0.2815(3) 0.0947(2) 0.7292(3)
C27 C -0.4017(3) 0.1371(2) 0.8312(3)
C28 C -0.4124(4) 0.1502(2) 0.9181(3)
H23 H -0.3700 0.1349 0.9607
C29 C -0.4867(4) 0.1860(2) 0.9411(3)
H24 H -0.4931 0.1944 0.9999
C30 C -0.5379(4) 0.1982(2) 0.7985(3)
H25 H -0.5800 0.2153 0.7573
C31 C -0.4665(3) 0.1627(2) 0.7696(3)
H26 H -0.4611 0.1557 0.7104
C32 C -0.2708(3) -0.0636(2) 0.8843(3)
C33 C -0.2726(4) -0.0624(2) 0.9741(3)
H27 H -0.2667 -0.0263 1.0035
C34 C -0.2828(4) -0.1144(2) 1.0204(4)
H28 H -0.2822 -0.1123 1.0809
C35 C -0.2937(4) -0.1691(2) 0.8957(3)
H29 H -0.3018 -0.2058 0.8683
C36 C -0.2826(3) -0.1195(2) 0.8439(3)
H30 H -0.2830 -0.1230 0.7836
Cd1A Cd -0.31484(2) -0.251202(16) 1.06597(2)
Cd1C Cd -0.68516(2) 0.251202(16) 0.93403(2)
N2C N 0.4500(3) 0.29060(18) 0.3829(3)
N4A N 0.2937(3) 0.33227(17) 0.5177(3)
N7 N -0.2081(9) 0.2573(4) 0.4801(7)
C37 C -0.2587(8) 0.2187(5) 0.4666(6)
C38 C -0.3183(6) 0.1700(4) 0.4506(6)
H31 H -0.2824 0.1375 0.4284
H32 H -0.3677 0.1809 0.4085
H33 H -0.3459 0.1581 0.5038
N8 N -0.1424(8) 0.1625(3) 0.2829(6)
C39 C -0.0984(7) 0.2010(5) 0.3036(6)
C40 C -0.0402(7) 0.2511(5) 0.3251(8)
H34 H -0.0570 0.2669 0.3803
H35 H -0.0494 0.2811 0.2810
H36 H 0.0252 0.2390 0.3284
N9 N -0.4629(5) 0.0698(6) 0.1976(5)
O11 O -0.4067(6) 0.0486(3) 0.0619(5)
C41 C -0.4472(6) 0.0361(6) 0.1277(6)
H37 H -0.4707 -0.0026 0.1298
C42 C -0.4376(9) 0.1341(8) 0.2031(9)
H38 H -0.3786 0.1387 0.2362
H39 H -0.4866 0.1554 0.2312
H40 H -0.4313 0.1496 0.1454
C43 C -0.4958(5) 0.0425(5) 0.2757(5)
H41 H -0.5044 0.0005 0.2662
H42 H -0.5551 0.0601 0.2900
H43 H -0.4498 0.0487 0.3229
O12 O -0.2087(14) 0.4234(8) 0.5598(12)
N10 N -0.0582(10) 0.3945(9) 0.5179(10)
C44 C -0.1410(12) 0.3911(9) 0.5613(11)
H44 H -0.1452 0.3582 0.5978
C45 C -0.0252(19) 0.4414(9) 0.4616(15)
H45 H -0.0595 0.4395 0.4062
H46 H 0.0414 0.4362 0.4534
H47 H -0.0356 0.4795 0.4880
C46 C -0.0016(14) 0.3415(8) 0.5387(13)
H48 H -0.0325 0.3182 0.5814
H49 H 0.0601 0.3533 0.5615
H50 H 0.0047 0.3182 0.4869
O13? O -0.0155(10) 0.3146(6) 0.6161(10)
N11? N -0.0585(7) 0.3840(5) 0.5138(7)
C47? C -0.0748(13) 0.3456(6) 0.5810(9)
H51? H -0.1360 0.3437 0.6007
C48? C 0.0386(9) 0.3848(10) 0.4838(14)
H52? H 0.0820 0.3728 0.5306
H53? H 0.0541 0.4244 0.4655
H54? H 0.0434 0.3578 0.4358
C49? C -0.1313(13) 0.4218(9) 0.4723(15)
H55? H -0.1865 0.4218 0.5066
H56? H -0.1479 0.4069 0.4151
H57? H -0.1076 0.4618 0.4680
loop_
_geom_bond_atom_site_label_1
_geom_bond_atom_site_label_2
_geom_bond_site_symmetry_1
_geom_bond_site_symmetry_2
Cd1 O5 1_555 1_555
O1 C9 1_555 1_555
O2 C11 1_555 1_555
O3 C20 1_555 1_555
O4 C19 1_555 1_555
O5 N5 1_555 1_555
O6 Cd1 1_555 1_555
O7 N5 1_555 1_555
O8 Cd1 1_555 1_555
O9 N6 1_555 1_555
O10 Cd1 1_555 1_555
N1 Cd1 1_555 1_555
N2 C29 1_555 1_555
N3 C14 1_555 1_555
N4 C34 1_555 1_555
N5 O6 1_555 1_555
N6 O8 1_555 1_555
C1 N1 1_555 1_555
H1 C1 1_555 1_555
C2 C1 1_555 1_555
H2 C2 1_555 1_555
C3 C2 1_555 1_555
C4 C3 1_555 1_555
H3 C4 1_555 1_555
C5 N1 1_555 1_555
H4 C5 1_555 1_555
C6 C3 1_555 1_555
C7 C6 1_555 1_555
H5 C7 1_555 1_555
C8 C7 1_555 1_555
C9 C8 1_555 1_555
C10 C9 1_555 1_555
C11 C6 1_555 1_555
C12 C8 1_555 1_555
C13 C12 1_555 1_555
H6 C13 1_555 1_555
C14 C13 1_555 1_555
H7 C14 1_555 1_555
C15 N3 1_555 1_555
H8 C15 1_555 1_555
C16 C12 1_555 1_555
H9 C16 1_555 1_555
C17 O1 1_555 1_555
H10 C17 1_555 1_555
H11 C17 1_555 1_555
H12 C17 1_555 1_555
C18 O2 1_555 1_555
H13 C18 1_555 1_555
H14 C18 1_555 1_555
H15 C18 1_555 1_555
C19 H16 1_555 1_555
H17 C19 1_555 1_555
H18 C19 1_555 1_555
C20 H19 1_555 1_555
H20 C20 1_555 1_555
H21 C20 1_555 1_555
C21 C10 1_555 1_555
C22 O3 1_555 1_555
C23 C22 1_555 1_555
C24 C23 1_555 1_555
H22 C24 1_555 1_555
C25 C24 1_555 1_555
C26 O4 1_555 1_555
C27 C25 1_555 1_555
C28 C27 1_555 1_555
H23 C28 1_555 1_555
C29 C28 1_555 1_555
H24 C29 1_555 1_555
C30 N2 1_555 1_555
H25 C30 1_555 1_555
C31 C27 1_555 1_555
H26 C31 1_555 1_555
C32 C23 1_555 1_555
C33 C32 1_555 1_555
H27 C33 1_555 1_555
C34 C33 1_555 1_555
H28 C34 1_555 1_555
C35 N4 1_555 1_555
H29 C35 1_555 1_555
C36 C32 1_555 1_555
H30 C36 1_555 1_555
N7 C37 1_555 1_555
C37 C38 1_555 1_555
C38 H31 1_555 1_555
H32 C38 1_555 1_555
H33 C38 1_555 1_555
N8 C39 1_555 1_555
C39 C40 1_555 1_555
C40 H34 1_555 1_555
H35 C40 1_555 1_555
H36 C40 1_555 1_555
N9 C41 1_555 1_555
O11 C41 1_555 1_555
C41 H37 1_555 1_555
C42 N9 1_555 1_555
H38 C42 1_555 1_555
H39 C42 1_555 1_555
H40 C42 1_555 1_555
C43 N9 1_555 1_555
H41 C43 1_555 1_555
H42 C43 1_555 1_555
H43 C43 1_555 1_555
O12 C44 1_555 1_555
N10 C44 1_555 1_555
C44 H44 1_555 1_555
C45 N10 1_555 1_555
H45 C45 1_555 1_555
H46 C45 1_555 1_555
H47 C45 1_555 1_555
C46 N10 1_555 1_555
H48 C46 1_555 1_555
H49 C46 1_555 1_555
H50 C46 1_555 1_555
Cd1A N4 1_555 1_555
Cd1C N2 1_555 1_555
N2C Cd1 1_555 1_555
N4A Cd1 1_555 1_555
O10 N6 1_555 1_555
C4 C5 1_555 1_555
C10 C11 1_555 1_555
C15 C16 1_555 1_555
C21 C22 1_555 1_555
C21 C26 1_555 1_555
C25 C26 1_555 1_555
C30 C31 1_555 1_555
C35 C36 1_555 1_555

#END
