
#######################################################################
#
#                 Cambridge Crystallographic Data Centre
#                                CCDC 
#
#######################################################################
#
# If this CIF has been generated from an entry in the Cambridge 
# Structural Database, then it will include bibliographic, chemical, 
# crystal, experimental, refinement or atomic coordinate data resulting 
# from the CCDC's data processing and validation procedures.
#
#######################################################################

data_KOXGUB
_symmetry_cell_setting           triclinic
_symmetry_space_group_name_H-M   'P -1'
_symmetry_Int_Tables_number      2
_space_group_name_Hall           '-P 1'
loop_
_symmetry_equiv_pos_site_id
_symmetry_equiv_pos_as_xyz
1 x,y,z
2 -x,-y,-z
_cell_length_a                   11.348(5)
_cell_length_b                   13.166(5)
_cell_length_c                   15.357(5)
_cell_angle_alpha                113.294(5)
_cell_angle_beta                 101.180(5)
_cell_angle_gamma                102.902(5)
_cell_volume                     1949.52
loop_
_atom_site_label
_atom_site_type_symbol
_atom_site_fract_x
_atom_site_fract_y
_atom_site_fract_z
Br1 Br 0.53083(4) 0.20821(4) 0.67430(4)
Cu1 Cu 0.30044(5) 0.11743(4) 0.60943(4)
O1 O 0.0295(3) -0.4897(2) 0.8765(2)
O2 O 0.0791(3) -0.1086(2) 0.9021(2)
O3 O 0.1947(3) -0.1949(2) 1.0912(2)
O4 O -0.2127(3) -0.3608(2) 0.8464(2)
N1 N 0.2553(3) -0.0021(3) 0.6616(2)
N2 N 0.2353(3) -0.7421(3) 0.6562(3)
N3 N 0.2179(3) 0.0272(3) 1.4582(2)
N4 N -0.5911(4) -0.2939(4) 0.9734(3)
C1 C 0.1185(4) -0.7484(3) 0.6614(3)
H1 H 0.0597 -0.8222 0.6392
C2 C 0.0789(4) -0.6522(3) 0.6979(3)
H2 H -0.0036 -0.6618 0.7011
C3 C 0.1635(4) -0.5411(3) 0.7296(3)
C4 C 0.2846(4) -0.5340(4) 0.7214(3)
H3 H 0.3438 -0.4618 0.7397
C5 C 0.3165(4) -0.6344(3) 0.6861(3)
H4 H 0.3986 -0.6273 0.6827
C6 C 0.3010(4) 0.0297(3) 0.7594(3)
H5 H 0.3591 0.1048 0.8009
C7 C 0.2673(4) -0.0418(3) 0.8017(3)
H6 H 0.2997 -0.0141 0.8703
C8 C 0.1834(4) -0.1572(3) 0.7408(3)
C9 C 0.1409(4) -0.1917(3) 0.6390(3)
H7 H 0.0886 -0.2683 0.5947
C10 C 0.1766(4) -0.1117(3) 0.6037(3)
H8 H 0.1438 -0.1359 0.5357
C11 C 0.1239(4) 0.0522(3) 1.4123(3)
H9 H 0.1023 0.1159 1.4503
C12 C 0.0578(4) -0.0108(3) 1.3124(3)
H10 H -0.0072 0.0101 1.2846
C13 C 0.0878(4) -0.1061(3) 1.2523(3)
C14 C 0.1875(4) -0.1309(3) 1.2994(3)
H11 H 0.2123 -0.1930 1.2627
C15 C 0.2484(4) -0.0637(3) 1.3993(3)
H12 H 0.3152 -0.0815 1.4287
C16 C 0.1460(4) -0.2413(3) 0.7798(3)
C17 C 0.1662(4) -0.3484(3) 0.7394(3)
H13 H 0.2043 -0.3644 0.6893
C18 C 0.1313(4) -0.4317(3) 0.7714(3)
C19 C 0.0711(4) -0.4084(3) 0.8451(3)
C20 C 0.0513(4) -0.3009(3) 0.8886(3)
C21 C 0.0907(4) -0.2187(3) 0.8559(3)
C22 C 0.1283(4) -0.4906(4) 0.9511(3)
H14 H 0.0931 -0.5493 0.9699
H15 H 0.1622 -0.4151 1.0089
H16 H 0.1951 -0.5080 0.9243
C23 C -0.0428(5) -0.1021(4) 0.8645(4)
H17 H -0.0430 -0.0237 0.9005
H18 H -0.1069 -0.1556 0.8729
H19 H -0.0604 -0.1227 0.7949
C24 C 0.0122(4) -0.1765(3) 1.1458(3)
C25 C 0.0663(4) -0.2123(3) 1.0696(3)
C26 C -0.0088(4) -0.2732(3) 0.9690(3)
C27 C -0.1402(4) -0.3005(3) 0.9454(3)
C28 C -0.1980(4) -0.2650(3) 1.0199(3)
C29 C -0.1201(4) -0.2041(3) 1.1177(3)
H20 H -0.1575 -0.1801 1.1677
C30 C 0.2755(4) -0.0820(4) 1.1132(4)
H21 H 0.3625 -0.0797 1.1271
H22 H 0.2658 -0.0231 1.1704
H23 H 0.2525 -0.0673 1.0569
C31 C -0.3367(4) -0.2821(3) 0.9987(3)
C32 C -0.4059(4) -0.3224(4) 1.0490(4)
H24 H -0.3682 -0.3469 1.0930
C33 C -0.5321(5) -0.3272(5) 1.0350(4)
H25 H -0.5768 -0.3549 1.0703
C34 C -0.5241(5) -0.2561(4) 0.9237(4)
H26 H -0.5646 -0.2332 0.8795
C35 C -0.3970(4) -0.2483(4) 0.9332(3)
H27 H -0.3545 -0.2213 0.8965
C36 C -0.2853(5) -0.4810(4) 0.8149(4)
H28 H -0.3331 -0.5174 0.7453
H29 H -0.3427 -0.4834 0.8531
H30 H -0.2285 -0.5222 0.8255
Cu1_2 Cu 0.30044(5) -0.88257(4) 0.60943(4)
Cu1_3 Cu 0.30044(5) 0.11743(4) 1.60943(4)
N2_2 N 0.2353(3) 0.2579(3) 0.6562(3)
N3_2 N 0.2179(3) 0.0272(3) 0.4582(2)
N5 N -0.5355(14) -0.2622(13) 0.6906(11)
C37 C -0.5017(7) -0.1336(6) 0.6015(5)
H31 H -0.4613 -0.0526 0.6498
H32 H -0.5857 -0.1450 0.5637
H33 H -0.4524 -0.1556 0.5573
C38 C -0.5102(12) -0.2044(9) 0.6518(8)
O6 O -0.0642(13) -0.4828(13) 0.4981(11)
N7 N -0.2196(17) -0.4728(13) 0.5713(13)
C42 C -0.288(3) -0.396(2) 0.619(2)
H41 H -0.2546 -0.3637 0.6900
H42 H -0.3768 -0.4396 0.5966
H43 H -0.2767 -0.3328 0.6009
C43 C -0.2044(15) -0.5642(14) 0.6000(13)
H44 H -0.1373 -0.5901 0.5792
H45 H -0.2825 -0.6293 0.5685
H46 H -0.1833 -0.5330 0.6713
C44 C -0.1444(17) -0.4381(16) 0.5220(15)
H47 H -0.1542 -0.3787 0.5061
O6A O 0.0642(13) -0.5172(13) 0.5019(11)
N7A N 0.2196(17) -0.5272(13) 0.4287(13)
C42A C 0.288(3) -0.604(2) 0.381(2)
H41A H 0.2546 -0.6363 0.3100
H42A H 0.3768 -0.5604 0.4034
H43A H 0.2767 -0.6672 0.3991
C43A C 0.2044(15) -0.4358(14) 0.4000(13)
H44A H 0.1373 -0.4099 0.4208
H45A H 0.2825 -0.3707 0.4315
H46A H 0.1833 -0.4670 0.3287
C44A C 0.1444(17) -0.5619(16) 0.4780(15)
H47A H 0.1542 -0.6213 0.4939
O5? O -0.208(3) -0.606(3) 0.531(3)
N6? N -0.261(2) -0.439(2) 0.562(3)
C39? C -0.214(3) -0.312(2) 0.605(3)
H34? H -0.1240 -0.2836 0.6381
H35? H -0.2563 -0.2792 0.6520
H36? H -0.2309 -0.2898 0.5526
C40? C -0.397(2) -0.503(3) 0.535(3)
H37? H -0.4418 -0.5064 0.4733
H38? H -0.4298 -0.4632 0.5865
H39? H -0.4076 -0.5810 0.5262
C41? C -0.185(4) -0.500(3) 0.575(4)
H40? H -0.1046 -0.4572 0.6224
loop_
_geom_bond_atom_site_label_1
_geom_bond_atom_site_label_2
_geom_bond_site_symmetry_1
_geom_bond_site_symmetry_2
Br1 Cu1 1_555 1_555
Cu1 N1 1_555 1_555
O1 C19 1_555 1_555
O2 C21 1_555 1_555
O3 C25 1_555 1_555
O4 C27 1_555 1_555
N1 C6 1_555 1_555
N2 C1 1_555 1_555
N3 C11 1_555 1_555
N4 C33 1_555 1_555
C1 H1 1_555 1_555
C2 C1 1_555 1_555
H2 C2 1_555 1_555
C3 C2 1_555 1_555
C4 C3 1_555 1_555
H3 C4 1_555 1_555
C5 N2 1_555 1_555
H4 C5 1_555 1_555
C6 H5 1_555 1_555
C7 C6 1_555 1_555
H6 C7 1_555 1_555
C8 C7 1_555 1_555
C9 C8 1_555 1_555
H7 C9 1_555 1_555
C10 N1 1_555 1_555
H8 C10 1_555 1_555
C11 H9 1_555 1_555
C12 C11 1_555 1_555
H10 C12 1_555 1_555
C13 C12 1_555 1_555
C14 C13 1_555 1_555
H11 C14 1_555 1_555
C15 N3 1_555 1_555
H12 C15 1_555 1_555
C16 C8 1_555 1_555
C17 C16 1_555 1_555
H13 C17 1_555 1_555
C18 C3 1_555 1_555
C19 C18 1_555 1_555
C20 C19 1_555 1_555
C21 C16 1_555 1_555
C22 O1 1_555 1_555
H14 C22 1_555 1_555
H15 C22 1_555 1_555
H16 C22 1_555 1_555
C23 O2 1_555 1_555
H17 C23 1_555 1_555
H18 C23 1_555 1_555
H19 C23 1_555 1_555
C24 C13 1_555 1_555
C25 C24 1_555 1_555
C26 C20 1_555 1_555
C27 C26 1_555 1_555
C28 C27 1_555 1_555
C29 C24 1_555 1_555
H20 C29 1_555 1_555
C30 O3 1_555 1_555
H21 C30 1_555 1_555
H22 C30 1_555 1_555
H23 C30 1_555 1_555
C31 C28 1_555 1_555
C32 C31 1_555 1_555
H24 C32 1_555 1_555
C33 C32 1_555 1_555
H25 C33 1_555 1_555
C34 N4 1_555 1_555
H26 C34 1_555 1_555
C35 C31 1_555 1_555
H27 C35 1_555 1_555
C36 O4 1_555 1_555
H28 C36 1_555 1_555
H29 C36 1_555 1_555
H30 C36 1_555 1_555
N5 C38 1_555 1_555
C37 H31 1_555 1_555
H32 C37 1_555 1_555
H33 C37 1_555 1_555
C38 C37 1_555 1_555
O6 C44 1_555 1_555
N7 C42 1_555 1_555
C42 H41 1_555 1_555
H42 C42 1_555 1_555
H43 C42 1_555 1_555
C43 N7 1_555 1_555
H44 C43 1_555 1_555
H45 C43 1_555 1_555
H46 C43 1_555 1_555
C44 N7 1_555 1_555
H47 C44 1_555 1_555
Cu1_2 N2 1_555 1_555
Cu1_3 N3 1_555 1_555
N2_2 Cu1 1_555 1_555
N3_2 Cu1 1_555 1_555
O6A C44A 1_555 1_555
N7A C42A 1_555 1_555
C42A H41A 1_555 1_555
H42A C42A 1_555 1_555
H43A C42A 1_555 1_555
C43A N7A 1_555 1_555
H44A C43A 1_555 1_555
H45A C43A 1_555 1_555
H46A C43A 1_555 1_555
C44A N7A 1_555 1_555
H47A C44A 1_555 1_555
C4 C5 1_555 1_555
C9 C10 1_555 1_555
C14 C15 1_555 1_555
C17 C18 1_555 1_555
C20 C21 1_555 1_555
C25 C26 1_555 1_555
C28 C29 1_555 1_555
C34 C35 1_555 1_555

#END
