
#######################################################################
#
#                 Cambridge Crystallographic Data Centre
#                                CCDC 
#
#######################################################################
#
# If this CIF has been generated from an entry in the Cambridge 
# Structural Database, then it will include bibliographic, chemical, 
# crystal, experimental, refinement or atomic coordinate data resulting 
# from the CCDC's data processing and validation procedures.
#
#######################################################################

data_KOXLUG
_symmetry_cell_setting           triclinic
_symmetry_space_group_name_H-M   'P -1'
_symmetry_Int_Tables_number      2
_space_group_name_Hall           '-P 1'
loop_
_symmetry_equiv_pos_site_id
_symmetry_equiv_pos_as_xyz
1 x,y,z
2 -x,-y,-z
_cell_length_a                   8.7704(2)
_cell_length_b                   9.7546(2)
_cell_length_c                   11.7665(2)
_cell_angle_alpha                92.9360(10)
_cell_angle_beta                 109.7250(10)
_cell_angle_gamma                96.8930(10)
_cell_volume                     936.186
loop_
_atom_site_label
_atom_site_type_symbol
_atom_site_fract_x
_atom_site_fract_y
_atom_site_fract_z
Cu1 Cu -0.12311(4) 0.08829(4) 0.23794(3)
Cu2 Cu -0.43191(4) -0.06421(4) 0.10044(3)
I1 I -0.243740(19) 0.071340(19) -0.006166(16)
I2 I -0.367638(19) 0.093465(18) 0.312780(16)
S1 S 0.05412(7) 0.29761(7) 0.28652(6)
O1 O 0.2121(2) 0.5149(2) 0.1636(2)
N1 N 0.6160(3) 0.7368(2) 0.1186(2)
N2 N 0.4332(3) 0.4036(2) 0.1890(2)
H1 H 0.4707 0.3257 0.2108
N3 N 0.0240(3) -0.0543(3) 0.2833(2)
C1 C 0.5105(3) 0.6418(3) 0.1444(3)
H2 H 0.4122 0.6680 0.1499
C2 C 0.7540(3) 0.6975(3) 0.1098(3)
H3 H 0.8275 0.7634 0.0898
C3 C 0.7934(3) 0.5657(3) 0.1284(3)
H4 H 0.8928 0.5424 0.1226
C4 C 0.6863(3) 0.4681(3) 0.1555(3)
H5 H 0.7109 0.3767 0.1685
C5 C 0.5414(3) 0.5061(3) 0.1634(2)
C6 C 0.2774(3) 0.4118(3) 0.1837(3)
C7 C 0.1864(3) 0.2755(3) 0.2004(3)
H6 H 0.2673 0.2156 0.2421
H7 H 0.1199 0.2273 0.1196
C8 C 0.1929(3) 0.3248(3) 0.4473(3)
C9 C 0.0823(5) 0.2922(6) 0.5199(4)
H8 H 0.0426 0.1924 0.5079
H9 H -0.0110 0.3435 0.4928
H10 H 0.1437 0.3197 0.6062
C10 C 0.3275(5) 0.2337(5) 0.4741(4)
H11 H 0.3958 0.2506 0.5601
H12 H 0.3952 0.2559 0.4243
H13 H 0.2783 0.1359 0.4552
C11 C 0.2703(5) 0.4770(4) 0.4750(4)
H14 H 0.1838 0.5361 0.4551
H15 H 0.3400 0.4971 0.4263
H16 H 0.3366 0.4955 0.5613
C12 C 0.1293(3) -0.1168(3) 0.3041(3)
C13 C 0.2664(4) -0.1938(3) 0.3317(3)
H17 H 0.3533 -0.1444 0.3080
H18 H 0.2305 -0.2862 0.2868
H19 H 0.3081 -0.2032 0.4190
Cu2_2 Cu 0.56809(4) 0.93579(4) 0.10044(3)
Cu2A Cu -0.56809(4) 0.06421(4) -0.10044(3)
I1A I -0.756260(19) -0.071340(19) 0.006166(16)
N1_2 N -0.3840(3) -0.2632(2) 0.1186(2)
loop_
_geom_bond_atom_site_label_1
_geom_bond_atom_site_label_2
_geom_bond_site_symmetry_1
_geom_bond_site_symmetry_2
Cu1 I1 1_555 1_555
Cu2 I1 1_555 1_555
I1 Cu2A 1_555 1_555
I2 Cu1 1_555 1_555
S1 Cu1 1_555 1_555
O1 C6 1_555 1_555
N1 C1 1_555 1_555
N2 H1 1_555 1_555
N3 Cu1 1_555 1_555
C1 H2 1_555 1_555
C2 N1 1_555 1_555
H3 C2 1_555 1_555
C3 C2 1_555 1_555
H4 C3 1_555 1_555
C4 C3 1_555 1_555
H5 C4 1_555 1_555
C5 N2 1_555 1_555
C6 N2 1_555 1_555
C7 S1 1_555 1_555
H6 C7 1_555 1_555
H7 C7 1_555 1_555
C8 S1 1_555 1_555
C9 C8 1_555 1_555
H8 C9 1_555 1_555
H9 C9 1_555 1_555
H10 C9 1_555 1_555
C10 C8 1_555 1_555
H11 C10 1_555 1_555
H12 C10 1_555 1_555
H13 C10 1_555 1_555
C11 C8 1_555 1_555
H14 C11 1_555 1_555
H15 C11 1_555 1_555
H16 C11 1_555 1_555
C12 N3 1_555 1_555
C13 C12 1_555 1_555
H17 C13 1_555 1_555
H18 C13 1_555 1_555
H19 C13 1_555 1_555
Cu2_2 N1 1_555 1_555
Cu2A I1A 1_555 1_555
I1A Cu2 1_555 1_555
N1_2 Cu2 1_555 1_555
Cu2 I2 1_555 1_555
C1 C5 1_555 1_555
C4 C5 1_555 1_555
C6 C7 1_555 1_555

#END
