
#######################################################################
#
#                 Cambridge Crystallographic Data Centre
#                                CCDC 
#
#######################################################################
#
# If this CIF has been generated from an entry in the Cambridge 
# Structural Database, then it will include bibliographic, chemical, 
# crystal, experimental, refinement or atomic coordinate data resulting 
# from the CCDC's data processing and validation procedures.
#
#######################################################################

data_KOXMAN
_symmetry_cell_setting           trigonal
_symmetry_space_group_name_H-M   'P 32 2 1'
_symmetry_Int_Tables_number      154
_space_group_name_Hall           'P 32 2"'
loop_
_symmetry_equiv_pos_site_id
_symmetry_equiv_pos_as_xyz
1 x,y,z
2 -y,x-y,2/3+z
3 -x+y,-x,1/3+z
4 y,x,-z
5 x-y,-y,1/3-z
6 -x,-x+y,2/3-z
_cell_length_a                   9.7799(3)
_cell_length_b                   9.7799(3)
_cell_length_c                   34.2492(14)
_cell_angle_alpha                90
_cell_angle_beta                 90
_cell_angle_gamma                120
_cell_volume                     2836.94
loop_
_atom_site_label
_atom_site_type_symbol
_atom_site_fract_x
_atom_site_fract_y
_atom_site_fract_z
Cu1 Cu 0.54781(10) 0.47928(10) 0.03580(2)
Cu2 Cu 0.23437(10) 0.37461(12) 0.01538(2)
I1 I 0.43728(6) 0.68085(6) 0.026929(13)
I2 I 0.31804(5) 0.18936(5) 0.060271(13)
S1 S 0.6897(2) 0.5442(2) 0.09403(5)
O1 O 0.6332(9) 0.4827(8) 0.18255(14)
N1 N 0.7158(7) 0.6889(7) 0.29060(16)
N2 N 0.5811(7) 0.6843(7) 0.18999(16)
H1 H 0.5564 0.7463 0.1769
C1 C 0.6899(8) 0.6585(9) 0.2525(2)
H2 H 0.7315 0.6006 0.2399
C2 C 0.6535(8) 0.7645(8) 0.3082(2)
H3 H 0.6696 0.7827 0.3355
C3 C 0.5654(9) 0.8190(9) 0.28868(19)
H4 H 0.5255 0.8765 0.3022
C4 C 0.5374(8) 0.7878(9) 0.2496(2)
H5 H 0.4738 0.8195 0.2356
C5 C 0.6033(8) 0.7094(8) 0.2306(2)
C6 C 0.5943(9) 0.5725(10) 0.1691(2)
C7 C 0.5570(8) 0.5733(9) 0.12571(17)
H6 H 0.5643 0.6754 0.1192
H7 H 0.4471 0.4886 0.1207
C8 C 0.8735(8) 0.7408(9) 0.0928(2)
C9 C 0.9433(9) 0.7876(10) 0.1337(3)
H8 H 0.9466 0.6986 0.1459
H9 H 0.8777 0.8160 0.1494
H10 H 1.0506 0.8783 0.1319
C10 C 0.9804(9) 0.7068(10) 0.0675(2)
H11 H 0.9317 0.6698 0.0418
H12 H 0.9958 0.6253 0.0800
H13 H 1.0827 0.8035 0.0645
C11 C 0.8417(10) 0.8646(10) 0.0760(4)
H14 H 0.9405 0.9659 0.0748
H15 H 0.7660 0.8752 0.0926
H16 H 0.7978 0.8331 0.0497
Cu1C Cu 0.47928(10) 0.54781(10) -0.03580(2)
Cu2C Cu 0.37461(12) 0.23437(10) -0.01538(2)
Cu2D Cu 0.85976(16) 0.62539(12) 0.31795(2)
I1C I 0.68085(6) 0.43728(6) -0.026929(13)
I2C I 0.18936(5) 0.31804(5) -0.060271(13)
N1D N 0.0269(10) 0.3111(7) 0.04273(16)
O2 O 0.4090(12) 0.8108(14) 0.1571(2)
H17 H 0.3268 0.7651 0.1707
C12 C 0.3818(16) 0.8676(15) 0.1270(3)
H18 H 0.3668 0.9559 0.1345
H19 H 0.2861 0.7858 0.1142
H20 H 0.4713 0.9051 0.1090
loop_
_geom_bond_atom_site_label_1
_geom_bond_atom_site_label_2
_geom_bond_site_symmetry_1
_geom_bond_site_symmetry_2
Cu1 I1 1_555 1_555
Cu2 I1 1_555 1_555
I1 Cu1C 1_555 1_555
I2 Cu1 1_555 1_555
S1 Cu1 1_555 1_555
O1 C6 1_555 1_555
N1 C1 1_555 1_555
N2 H1 1_555 1_555
C1 H2 1_555 1_555
C2 N1 1_555 1_555
H3 C2 1_555 1_555
C3 C2 1_555 1_555
H4 C3 1_555 1_555
C4 C3 1_555 1_555
H5 C4 1_555 1_555
C5 N2 1_555 1_555
C6 N2 1_555 1_555
C7 S1 1_555 1_555
H6 C7 1_555 1_555
H7 C7 1_555 1_555
C8 S1 1_555 1_555
C9 C8 1_555 1_555
H8 C9 1_555 1_555
H9 C9 1_555 1_555
H10 C9 1_555 1_555
C10 C8 1_555 1_555
H11 C10 1_555 1_555
H12 C10 1_555 1_555
H13 C10 1_555 1_555
C11 C8 1_555 1_555
H14 C11 1_555 1_555
H15 C11 1_555 1_555
H16 C11 1_555 1_555
O2 H17 1_555 1_555
C12 O2 1_555 1_555
H18 C12 1_555 1_555
H19 C12 1_555 1_555
H20 C12 1_555 1_555
Cu1C I1C 1_555 1_555
Cu2C I2 1_555 1_555
Cu2D N1 1_555 1_555
I1C Cu1 1_555 1_555
I2C Cu2 1_555 1_555
N1D Cu2 1_555 1_555
Cu2 I2 1_555 1_555
C1 C5 1_555 1_555
C4 C5 1_555 1_555
C6 C7 1_555 1_555
Cu1C I2C 1_555 1_555
Cu2C I1C 1_555 1_555
Cu2C I2C 1_555 1_555

#END
