
#######################################################################
#
#                 Cambridge Crystallographic Data Centre
#                                CCDC 
#
#######################################################################
#
# If this CIF has been generated from an entry in the Cambridge 
# Structural Database, then it will include bibliographic, chemical, 
# crystal, experimental, refinement or atomic coordinate data resulting 
# from the CCDC's data processing and validation procedures.
#
#######################################################################

data_KOXYAX01
_symmetry_cell_setting           monoclinic
_symmetry_space_group_name_H-M   'P 21/n'
_symmetry_Int_Tables_number      14
_space_group_name_Hall           '-P 2yn'
loop_
_symmetry_equiv_pos_site_id
_symmetry_equiv_pos_as_xyz
1 x,y,z
2 1/2-x,1/2+y,1/2-z
3 -x,-y,-z
4 1/2+x,1/2-y,1/2+z
_cell_length_a                   11.342(2)
_cell_length_b                   11.677(3)
_cell_length_c                   13.535(4)
_cell_angle_alpha                90
_cell_angle_beta                 108.64(2)
_cell_angle_gamma                90
_cell_volume                     1698.55
loop_
_atom_site_label
_atom_site_type_symbol
_atom_site_fract_x
_atom_site_fract_y
_atom_site_fract_z
Sn1 Sn 0.1689(1) 0.1070(1) 0.1183(1)
O1 O 0.3324(5) 0.4976(4) 0.2548(4)
O2 O 0.4774(5) 0.4411(5) 0.3974(4)
O3 O 0.3117(5) 0.1950(4) 0.2350(4)
O4 O 0.2991(5) 0.2734(5) 0.0832(4)
C1 C 0.4240(7) 0.4293(6) 0.3027(6)
C2 C 0.4634(7) 0.3403(6) 0.2364(6)
C3 C 0.5652(7) 0.2621(6) 0.3081(6)
C4 C 0.6154(8) 0.1750(7) 0.2507(7)
C5 C 0.5080(7) 0.4066(6) 0.1559(6)
C6 C 0.6254(8) 0.4785(7) 0.2044(7)
C7 C 0.3499(7) 0.2671(6) 0.1783(6)
C8 C 0.0137(8) 0.2143(7) 0.1013(6)
C9 C 0.0407(7) 0.3428(6) 0.1010(6)
C10 C -0.0736(8) 0.4163(7) 0.0984(7)
C11 C -0.1846(9) 0.4048(8) -0.0007(9)
C12 C 0.2654(7) 0.0086(7) 0.0365(6)
C13 C 0.3505(8) -0.0851(6) 0.1042(6)
C14 C 0.4244(8) -0.1468(7) 0.0450(7)
C15 C 0.5122(11) -0.2386(9) 0.1102(8)
H1 H 0.5306 0.2223 0.3546
H2 H 0.6331 0.3092 0.3479
H3 H 0.6780 0.1292 0.2990
H4 H 0.6510 0.2136 0.2043
H5 H 0.5485 0.1267 0.2110
H6 H 0.4423 0.4567 0.1174
H7 H 0.5250 0.3518 0.1093
H8 H 0.6478 0.5168 0.1501
H9 H 0.6924 0.4295 0.2426
H10 H 0.6097 0.5343 0.2507
H11 H -0.0167 0.2001 0.1587
H12 H -0.0496 0.1949 0.0371
H13 H 0.1095 0.3614 0.1617
H14 H 0.0624 0.3592 0.0395
H15 H -0.0486 0.4953 0.1045
H16 H -0.0990 0.3953 0.1571
H17 H -0.2516 0.4529 0.0033
H18 H -0.2113 0.3263 -0.0075
H19 H -0.1608 0.4263 -0.0601
H20 H 0.3159 0.0591 0.0109
H21 H 0.2052 -0.0283 -0.0213
H22 H 0.2999 -0.1398 0.1252
H23 H 0.4068 -0.0494 0.1649
H24 H 0.3674 -0.1832 -0.0149
H25 H 0.4729 -0.0912 0.0227
H26 H 0.5570 -0.2749 0.0694
H27 H 0.4645 -0.2949 0.1325
H28 H 0.5700 -0.2029 0.1701
O1A O 0.1676(5) -0.0024(4) 0.2452(4)
Sn1A Sn 0.3311(1) 0.6070(1) 0.3817(1)
O2A O 0.0226(5) -0.0589(5) 0.1026(4)
loop_
_geom_bond_atom_site_label_1
_geom_bond_atom_site_label_2
_geom_bond_site_symmetry_1
_geom_bond_site_symmetry_2
Sn1 O3 1_555 1_555
O1 C1 1_555 1_555
O2 C1 1_555 1_555
O3 C7 1_555 1_555
O4 Sn1 1_555 1_555
C1 C2 1_555 1_555
C2 C3 1_555 1_555
C3 C4 1_555 1_555
C4 H3 1_555 1_555
C5 C2 1_555 1_555
C6 C5 1_555 1_555
C7 O4 1_555 1_555
C8 Sn1 1_555 1_555
C9 C8 1_555 1_555
C10 C9 1_555 1_555
C11 C10 1_555 1_555
C12 Sn1 1_555 1_555
C13 C12 1_555 1_555
C14 C13 1_555 1_555
C15 C14 1_555 1_555
H1 C3 1_555 1_555
H2 C3 1_555 1_555
H4 C4 1_555 1_555
H5 C4 1_555 1_555
H6 C5 1_555 1_555
H7 C5 1_555 1_555
H8 C6 1_555 1_555
H9 C6 1_555 1_555
H10 C6 1_555 1_555
H11 C8 1_555 1_555
H12 C8 1_555 1_555
H13 C9 1_555 1_555
H14 C9 1_555 1_555
H15 C10 1_555 1_555
H16 C10 1_555 1_555
H17 C11 1_555 1_555
H18 C11 1_555 1_555
H19 C11 1_555 1_555
H20 C12 1_555 1_555
H21 C12 1_555 1_555
H22 C13 1_555 1_555
H23 C13 1_555 1_555
H24 C14 1_555 1_555
H25 C14 1_555 1_555
H26 C15 1_555 1_555
H27 C15 1_555 1_555
H28 C15 1_555 1_555
O1A Sn1 1_555 1_555
Sn1A O1 1_555 1_555
O2A Sn1 1_555 1_555
O2 Sn1A 1_555 1_555
C2 C7 1_555 1_555

#END
