
#######################################################################
#
#                 Cambridge Crystallographic Data Centre
#                                CCDC 
#
#######################################################################
#
# If this CIF has been generated from an entry in the Cambridge 
# Structural Database, then it will include bibliographic, chemical, 
# crystal, experimental, refinement or atomic coordinate data resulting 
# from the CCDC's data processing and validation procedures.
#
#######################################################################

data_KOXYAX
_symmetry_cell_setting           monoclinic
_symmetry_space_group_name_H-M   'P 21/c'
_symmetry_Int_Tables_number      14
_space_group_name_Hall           '-P 2ybc'
loop_
_symmetry_equiv_pos_site_id
_symmetry_equiv_pos_as_xyz
1 x,y,z
2 -x,1/2+y,1/2-z
3 -x,-y,-z
4 x,1/2-y,1/2+z
_cell_length_a                   12.897(6)
_cell_length_b                   10.530(5)
_cell_length_c                   13.52(1)
_cell_angle_alpha                90
_cell_angle_beta                 108.38(5)
_cell_angle_gamma                90
_cell_volume                     1742.42
loop_
_atom_site_label
_atom_site_type_symbol
_atom_site_fract_x
_atom_site_fract_y
_atom_site_fract_z
Sn1 Sn 0.4491(1) 0.3735(1) -0.1400(1)
O1 O 0.5956(3) 0.5434(3) -0.0371(2)
O2 O 0.5795(3) 0.4507(3) -0.1874(2)
O3 O 0.7011(3) 0.7192(3) -0.2970(3)
O4 O 0.5767(3) 0.7600(3) -0.2213(2)
C1 C 0.6266(4) 0.5328(4) -0.1155(3)
C2 C 0.7181(4) 0.6130(4) -0.1326(4)
C3 C 0.6638(4) 0.6996(4) -0.2238(3)
C4 C 0.7721(4) 0.6968(5) -0.0363(3)
C5 C 0.8612(5) 0.7844(5) -0.0497(4)
C6 C 0.7998(4) 0.5242(5) -0.1601(4)
C7 C 0.8563(4) 0.4289(5) -0.0743(4)
C8 C 0.3392(4) 0.5215(5) -0.2094(4)
C9 C 0.2267(4) 0.5290(5) -0.1935(4)
C10 C 0.1527(4) 0.6253(6) -0.2648(4)
C11 C 0.0448(5) 0.6397(6) -0.2442(5)
C12 C 0.5357(5) 0.2403(5) -0.0251(4)
C13 C 0.5845(6) 0.1351(6) -0.0697(5)
C14 C 0.6626(5) 0.0530(6) 0.0170(5)
C15 C 0.7774(6) 0.0981(7) 0.0629(5)
H1 H 0.8045 0.6421 0.0221
H2 H 0.7166 0.7479 -0.0226
H3 H 0.8918 0.8337 0.0124
H4 H 0.8298 0.8402 -0.1075
H5 H 0.9177 0.7344 -0.0629
H6 H 0.7614 0.4783 -0.2222
H7 H 0.8555 0.5757 -0.1732
H8 H 0.9060 0.3771 -0.0966
H9 H 0.8016 0.3760 -0.0608
H10 H 0.8957 0.4735 -0.0118
H11 H 0.3259 0.5159 -0.2833
H12 H 0.3756 0.6000 -0.1838
H13 H 0.1933 0.4467 -0.2069
H14 H 0.2365 0.5527 -0.1226
H15 H 0.1890 0.7060 -0.2549
H16 H 0.1388 0.5979 -0.3355
H17 H 0.0004 0.7012 -0.2913
H18 H 0.0578 0.6676 -0.1738
H19 H 0.0076 0.5594 -0.2543
H20 H 0.4859 0.2045 0.0072
H21 H 0.5933 0.2839 0.0264
H22 H 0.5265 0.0831 -0.1127
H23 H 0.6247 0.1714 -0.1116
H24 H 0.6659 -0.0290 -0.0130
H25 H 0.6315 0.0448 0.0725
H26 H 0.8181 0.0359 0.1147
H27 H 0.7767 0.1795 0.0947
H28 H 0.8111 0.1058 0.0092
O3A O 0.2989(3) 0.2192(3) -0.2030(3)
O4A O 0.4233(3) 0.2600(3) -0.2787(2)
Sn1A Sn 0.5509(1) 0.8735(1) -0.3600(1)
loop_
_geom_bond_atom_site_label_1
_geom_bond_atom_site_label_2
_geom_bond_site_symmetry_1
_geom_bond_site_symmetry_2
Sn1 O1 1_555 1_555
O1 C1 1_555 1_555
O2 Sn1 1_555 1_555
O3 C3 1_555 1_555
O4 C3 1_555 1_555
C1 O2 1_555 1_555
C2 C1 1_555 1_555
C3 C2 1_555 1_555
C4 C2 1_555 1_555
C5 C4 1_555 1_555
C6 C2 1_555 1_555
C7 C6 1_555 1_555
C8 Sn1 1_555 1_555
C9 C8 1_555 1_555
C10 C9 1_555 1_555
C11 C10 1_555 1_555
C12 Sn1 1_555 1_555
C13 C12 1_555 1_555
C14 C13 1_555 1_555
C15 C14 1_555 1_555
H1 C4 1_555 1_555
H2 C4 1_555 1_555
H3 C5 1_555 1_555
H4 C5 1_555 1_555
H5 C5 1_555 1_555
H6 C6 1_555 1_555
H7 C6 1_555 1_555
H8 C7 1_555 1_555
H9 C7 1_555 1_555
H10 C7 1_555 1_555
H11 C8 1_555 1_555
H12 C8 1_555 1_555
H13 C9 1_555 1_555
H14 C9 1_555 1_555
H15 C10 1_555 1_555
H16 C10 1_555 1_555
H17 C11 1_555 1_555
H18 C11 1_555 1_555
H19 C11 1_555 1_555
H20 C12 1_555 1_555
H21 C12 1_555 1_555
H22 C13 1_555 1_555
H23 C13 1_555 1_555
H24 C14 1_555 1_555
H25 C14 1_555 1_555
H26 C15 1_555 1_555
H27 C15 1_555 1_555
H28 C15 1_555 1_555
O3A Sn1 1_555 1_555
O4A Sn1 1_555 1_555
Sn1A O3 1_555 1_555
O4 Sn1A 1_555 1_555

#END
