
#######################################################################
#
#                 Cambridge Crystallographic Data Centre
#                                CCDC 
#
#######################################################################
#
# If this CIF has been generated from an entry in the Cambridge 
# Structural Database, then it will include bibliographic, chemical, 
# crystal, experimental, refinement or atomic coordinate data resulting 
# from the CCDC's data processing and validation procedures.
#
#######################################################################

data_KOXZOO
_symmetry_cell_setting           monoclinic
_symmetry_space_group_name_H-M   'P 21/c'
_symmetry_Int_Tables_number      14
_space_group_name_Hall           '-P 2ybc'
loop_
_symmetry_equiv_pos_site_id
_symmetry_equiv_pos_as_xyz
1 x,y,z
2 -x,1/2+y,1/2-z
3 -x,-y,-z
4 x,1/2-y,1/2+z
_cell_length_a                   8.7794(4)
_cell_length_b                   20.4692(8)
_cell_length_c                   18.1663(7)
_cell_angle_alpha                90
_cell_angle_beta                 111.260(4)
_cell_angle_gamma                90
_cell_volume                     3042.44
loop_
_atom_site_label
_atom_site_type_symbol
_atom_site_fract_x
_atom_site_fract_y
_atom_site_fract_z
Gd1 Gd -0.75798(4) -0.01321(2) -0.95028(2)
O1 O -0.7818(7) 0.0742(2) -0.8794(3)
O2 O -0.8864(6) -0.1219(2) -0.9930(3)
H1 H -0.9799 -0.1180 -1.0330
H2 H -0.9058 -0.1415 -0.9542
O3 O -0.8351(7) 0.1806(3) -0.8843(3)
N1 N -0.1270(8) 0.1439(3) -0.4151(4)
N2 N -0.2874(8) 0.1593(3) -0.5364(4)
C1 C -0.6101(9) 0.1986(4) -0.7283(4)
H3 H -0.6649 0.2352 -0.7553
C2 C -0.5616(10) 0.0831(4) -0.7225(4)
H4 H -0.5823 0.0418 -0.7452
C3 C -0.0838(10) 0.2043(4) -0.4396(5)
H5 H -0.0025 0.2328 -0.4097
C4 C 0.1358(9) 0.1247(4) -0.2050(5)
H6 H 0.2298 0.1434 -0.1689
C5 C -0.4495(10) 0.0903(4) -0.6469(5)
H7 H -0.3982 0.0537 -0.6183
C6 C 0.0780(9) 0.1458(4) -0.2834(4)
H8 H 0.1326 0.1785 -0.2994
C7 C -0.0586(9) 0.1181(4) -0.3360(4)
C8 C -0.6452(9) 0.1375(3) -0.7659(4)
C9 C -0.1839(11) 0.2119(4) -0.5145(5)
H9 H -0.1834 0.2471 -0.5467
C10 C -0.1395(9) 0.0669(4) -0.3149(4)
H10 H -0.2298 0.0467 -0.3520
C11 C -0.7623(9) 0.1309(4) -0.8493(4)
C12 C -0.4981(9) 0.2061(4) -0.6531(4)
H11 H -0.4788 0.2469 -0.6289
C13 C -0.0809(9) 0.0474(4) -0.2371(4)
H12 H -0.1338 0.0136 -0.2219
C14 C -0.4135(9) 0.1506(4) -0.6139(4)
C15 C 0.0542(9) 0.0762(3) -0.1805(4)
C16 C -0.2508(10) 0.1184(4) -0.4749(5)
H13 H -0.3028 0.0790 -0.4740
O4 O 0.0193(6) 0.0179(2) -0.0736(3)
O5 O 0.2388(7) 0.0800(3) -0.0461(3)
O6 O -0.4869(7) 0.0197(3) -0.8858(3)
O7 O 0.6638(6) 0.0823(2) -0.1569(3)
O8 O 0.7910(7) 0.1785(2) -0.1501(3)
O9 O -0.3526(6) 0.0557(2) -0.9616(3)
N3 N 0.2677(8) 0.1826(3) -0.5042(3)
N4 N 0.0924(7) 0.1666(3) -0.6229(3)
C17 C 0.5763(9) 0.1494(4) -0.2704(4)
C18 C 0.6871(9) 0.1363(4) -0.1864(4)
C19 C -0.2422(8) 0.0793(4) -0.8236(4)
C20 C -0.1592(9) 0.1350(4) -0.8318(4)
H14 H -0.1796 0.1529 -0.8815
C21 C 0.1064(10) 0.0579(4) -0.0961(5)
C22 C 0.4531(9) 0.1056(4) -0.3090(4)
H15 H 0.4386 0.0686 -0.2825
C23 C 0.3775(9) 0.1702(4) -0.4244(4)
C24 C -0.3693(9) 0.0483(4) -0.8964(4)
C25 C -0.0186(9) 0.1359(3) -0.6938(4)
C26 C 0.1988(10) 0.1371(4) -0.5587(5)
H16 H 0.2206 0.0926 -0.5531
C27 C 0.3509(9) 0.1160(4) -0.3867(4)
H17 H 0.2667 0.0871 -0.4124
C28 C 0.5017(9) 0.2144(4) -0.3877(5)
H18 H 0.5169 0.2508 -0.4149
C29 C -0.0456(10) 0.1637(4) -0.7654(4)
H19 H 0.0107 0.2010 -0.7697
C30 C -0.2112(10) 0.0519(4) -0.7514(4)
H20 H -0.2677 0.0146 -0.7468
C31 C 0.2058(10) 0.2430(4) -0.5345(4)
H21 H 0.2333 0.2830 -0.5089
C32 C 0.6027(9) 0.2034(4) -0.3101(4)
H22 H 0.6877 0.2322 -0.2848
C33 C 0.0983(9) 0.2329(4) -0.6079(4)
H23 H 0.0383 0.2649 -0.6427
C34 C -0.0954(10) 0.0793(4) -0.6844(4)
H24 H -0.0706 0.0603 -0.6349
Gd1_2 Gd 0.24202(4) -0.01321(2) 0.04972(2)
Gd1B Gd -0.24202(4) 0.01321(2) -1.04972(2)
Gd1B_2 Gd -0.24202(4) 0.01321(2) -0.04972(2)
Gd1B_3 Gd 0.75798(4) 0.01321(2) -0.04972(2)
O4_2 O -0.9807(6) 0.0179(2) -1.0736(3)
O4B O -1.0193(6) -0.0179(2) -0.9264(3)
O5_2 O -0.7612(7) 0.0800(3) -1.0461(3)
O7B O -0.6638(6) -0.0823(2) -0.8431(3)
O9B O -0.6474(6) -0.0557(2) -1.0384(3)
Br1 Br 0.0000 0.0000 -0.5000
Cl1 Cl -0.5000 0.0000 -0.5000
O10 O -0.4969(8) 0.1729(3) -1.0344(4)
H25 H -0.5322 0.1600 -0.9991
H26 H -0.3979 0.1612 -1.0222
loop_
_geom_bond_atom_site_label_1
_geom_bond_atom_site_label_2
_geom_bond_site_symmetry_1
_geom_bond_site_symmetry_2
Gd1 O1 1_555 1_555
O1 C11 1_555 1_555
O2 Gd1 1_555 1_555
H1 O2 1_555 1_555
H2 O2 1_555 1_555
O3 C11 1_555 1_555
N1 C3 1_555 1_555
N2 C9 1_555 1_555
C1 H3 1_555 1_555
C2 H4 1_555 1_555
C3 H5 1_555 1_555
C4 H6 1_555 1_555
C5 C2 1_555 1_555
H7 C5 1_555 1_555
C6 C4 1_555 1_555
H8 C6 1_555 1_555
C7 N1 1_555 1_555
C8 C1 1_555 1_555
C9 C3 1_555 1_555
H9 C9 1_555 1_555
C10 C7 1_555 1_555
H10 C10 1_555 1_555
C11 C8 1_555 1_555
C12 C1 1_555 1_555
H11 C12 1_555 1_555
C13 C10 1_555 1_555
H12 C13 1_555 1_555
C14 N2 1_555 1_555
C15 C4 1_555 1_555
C16 N1 1_555 1_555
H13 C16 1_555 1_555
O4 C21 1_555 1_555
O5 C21 1_555 1_555
O6 Gd1 1_555 1_555
O7 C18 1_555 1_555
O8 C18 1_555 1_555
O9 C24 1_555 1_555
N3 C23 1_555 1_555
N4 C25 1_555 1_555
C17 C18 1_555 1_555
C19 C20 1_555 1_555
C20 H14 1_555 1_555
C21 C15 1_555 1_555
C22 C17 1_555 1_555
H15 C22 1_555 1_555
C23 C27 1_555 1_555
C24 O6 1_555 1_555
C25 C29 1_555 1_555
C26 N3 1_555 1_555
H16 C26 1_555 1_555
C27 C22 1_555 1_555
H17 C27 1_555 1_555
C28 C23 1_555 1_555
H18 C28 1_555 1_555
C29 C20 1_555 1_555
H19 C29 1_555 1_555
C30 C19 1_555 1_555
H20 C30 1_555 1_555
C31 N3 1_555 1_555
H21 C31 1_555 1_555
C32 C17 1_555 1_555
H22 C32 1_555 1_555
C33 N4 1_555 1_555
H23 C33 1_555 1_555
C34 C25 1_555 1_555
H24 C34 1_555 1_555
O10 H25 1_555 1_555
H26 O10 1_555 1_555
Gd1_2 O4 1_555 1_555
Gd1B O9 1_555 1_555
Gd1B_2 O4 1_555 1_555
Gd1B_3 O7 1_555 1_555
O4_2 Gd1 1_555 1_555
O4B Gd1 1_555 1_555
O5_2 Gd1 1_555 1_555
O7B Gd1 1_555 1_555
O9B Gd1 1_555 1_555
N2 C16 1_555 1_555
C2 C8 1_555 1_555
C5 C14 1_555 1_555
C6 C7 1_555 1_555
C12 C14 1_555 1_555
C13 C15 1_555 1_555
O5 Gd1_2 1_555 1_555
N4 C26 1_555 1_555
C19 C24 1_555 1_555
C28 C32 1_555 1_555
C30 C34 1_555 1_555
C31 C33 1_555 1_555

#END
