
#######################################################################
#
#                 Cambridge Crystallographic Data Centre
#                                CCDC 
#
#######################################################################
#
# If this CIF has been generated from an entry in the Cambridge 
# Structural Database, then it will include bibliographic, chemical, 
# crystal, experimental, refinement or atomic coordinate data resulting 
# from the CCDC's data processing and validation procedures.
#
#######################################################################

data_KOXZII
_symmetry_cell_setting           monoclinic
_symmetry_space_group_name_H-M   'P 21/c'
_symmetry_Int_Tables_number      14
_space_group_name_Hall           '-P 2ybc'
loop_
_symmetry_equiv_pos_site_id
_symmetry_equiv_pos_as_xyz
1 x,y,z
2 -x,1/2+y,1/2-z
3 -x,-y,-z
4 x,1/2-y,1/2+z
_cell_length_a                   8.8072(6)
_cell_length_b                   20.3895(18)
_cell_length_c                   18.0976(18)
_cell_angle_alpha                90
_cell_angle_beta                 110.985(7)
_cell_angle_gamma                90
_cell_volume                     3034.32
loop_
_atom_site_label
_atom_site_type_symbol
_atom_site_fract_x
_atom_site_fract_y
_atom_site_fract_z
O1 O 1.4872(7) 0.5193(3) 0.8861(4)
O2 O 0.2080(7) 0.6783(3) 0.1509(3)
O3 O 0.3328(7) 0.5817(3) 0.1563(3)
O4 O 1.3529(7) 0.5561(3) 0.9615(3)
N1 N 0.7349(8) 0.6802(4) 0.5044(4)
N2 N 0.9089(9) 0.6647(4) 0.6221(4)
C1 C 1.2156(11) 0.5499(5) 0.7507(6)
H1 H 1.2721 0.5125 0.7463
C2 C 0.5006(10) 0.7133(4) 0.3896(5)
H2 H 0.4860 0.7498 0.4172
C3 C 0.3992(10) 0.7025(5) 0.3118(5)
H3 H 0.3149 0.7316 0.2872
C4 C 1.3711(10) 0.5485(5) 0.8954(5)
C5 C 1.1589(10) 0.6333(5) 0.8316(5)
H4 H 1.1765 0.6511 0.8813
C6 C 0.3136(11) 0.6365(5) 0.1859(5)
C7 C 0.5472(11) 0.6045(5) 0.3076(5)
H5 H 0.5611 0.5679 0.2801
C8 C 1.2453(10) 0.5779(5) 0.8236(5)
C9 C 0.4224(10) 0.6493(5) 0.2710(5)
C10 C 1.0200(10) 0.6333(5) 0.6918(5)
C11 C 0.6499(11) 0.6150(5) 0.3849(6)
H6 H 0.7350 0.5863 0.4094
C12 C 0.7941(11) 0.7417(5) 0.5337(5)
H7 H 0.7657 0.7817 0.5077
C13 C 1.0468(11) 0.6612(5) 0.7643(5)
H8 H 0.9900 0.6987 0.7684
C14 C 1.1007(11) 0.5777(5) 0.6833(5)
H9 H 1.0791 0.5590 0.6337
C15 C 0.6236(11) 0.6689(5) 0.4249(5)
C16 C 0.8055(11) 0.6349(5) 0.5574(5)
H10 H 0.7870 0.5900 0.5511
C17 C 0.9020(11) 0.7315(5) 0.6082(6)
H11 H 0.9605 0.7635 0.6435
Gd1 Gd 1.75906(5) 0.48704(2) 0.95071(2)
O5 O 1.8863(7) 0.3780(3) 0.9929(4)
H12 H 1.9884 0.3820 1.0259
H13 H 1.8872 0.3547 0.9517
O6 O 0.9807(7) 0.5179(3) 0.0741(3)
O7 O 0.7602(8) 0.5793(4) 0.0463(4)
O8 O 1.7814(8) 0.5749(3) 0.8802(4)
O9 O 1.8381(8) 0.6811(3) 0.8847(4)
N3 N 1.2892(9) 0.6600(4) 0.5380(4)
C18 C 0.9483(9) 0.5769(5) 0.1817(5)
C19 C 1.5649(11) 0.5830(4) 0.7235(5)
H14 H 1.5883 0.5416 0.7463
C20 C 1.1392(10) 0.5670(5) 0.3167(5)
H15 H 1.2274 0.5464 0.3542
C21 C 1.0822(10) 0.5464(5) 0.2377(5)
H16 H 1.1339 0.5120 0.2223
C22 C 1.6130(11) 0.6990(5) 0.7290(5)
H17 H 1.6682 0.7358 0.7560
N4 N 1.1289(9) 0.6448(4) 0.4174(4)
C23 C 1.6462(10) 0.6379(5) 0.7654(5)
C24 C 0.8933(10) 0.5584(5) 0.0959(5)
C25 C 1.4989(11) 0.7062(5) 0.6530(5)
H18 H 1.4785 0.7471 0.6286
C26 C 0.8668(11) 0.6246(5) 0.2068(5)
H19 H 0.7716 0.6425 0.1712
C27 C 1.0614(11) 0.6190(5) 0.3379(5)
C28 C 1.4166(10) 0.6512(5) 0.6148(5)
C29 C 1.0884(12) 0.7039(5) 0.4412(6)
H20 H 1.0078 0.7324 0.4108
C30 C 1.1865(12) 0.7129(5) 0.5166(6)
H21 H 1.1852 0.7485 0.5485
C31 C 1.7634(10) 0.6327(5) 0.8491(6)
C32 C 1.2509(11) 0.6191(5) 0.4765(5)
H22 H 1.3014 0.5793 0.4754
C33 C 1.4485(11) 0.5898(5) 0.6473(5)
H23 H 1.3940 0.5534 0.6193
C34 C 0.9254(11) 0.6461(5) 0.2850(5)
H24 H 0.8711 0.6792 0.3009
O3B O 1.6672(7) 0.4183(3) 0.8437(3)
O4B O 1.6471(7) 0.4439(3) 1.0385(3)
Gd1_2 Gd 0.75906(5) 0.48704(2) -0.04929(2)
Gd1B Gd 0.24094(5) 0.51296(2) 0.04929(2)
Gd1B_2 Gd 1.24094(5) 0.51296(2) 0.04929(2)
Gd1B_3 Gd 1.24094(5) 0.51296(2) 1.04929(2)
O6_2 O 1.9807(7) 0.5179(3) 1.0741(3)
O6B O 2.0193(7) 0.4821(3) 0.9259(3)
O7_2 O 1.7602(8) 0.5793(4) 1.0463(4)
Cl1 Cl 1.0000 0.5000 0.5000
Cl2 Cl 1.5000 0.5000 0.5000
O10 O 1.5014(10) 0.8267(4) 0.5329(5)
H25 H 1.3993 0.8275 0.5077
H26 H 1.5237 0.8481 0.5758
loop_
_geom_bond_atom_site_label_1
_geom_bond_atom_site_label_2
_geom_bond_site_symmetry_1
_geom_bond_site_symmetry_2
O1 C4 1_555 1_555
O2 C6 1_555 1_555
O3 C6 1_555 1_555
O4 C4 1_555 1_555
N1 C12 1_555 1_555
N2 C10 1_555 1_555
C1 H1 1_555 1_555
C2 H2 1_555 1_555
C3 C2 1_555 1_555
H3 C3 1_555 1_555
C4 C8 1_555 1_555
C5 H4 1_555 1_555
C6 C9 1_555 1_555
C7 H5 1_555 1_555
C8 C1 1_555 1_555
C9 C3 1_555 1_555
C10 C13 1_555 1_555
C11 C7 1_555 1_555
H6 C11 1_555 1_555
C12 H7 1_555 1_555
C13 C5 1_555 1_555
H8 C13 1_555 1_555
C14 C1 1_555 1_555
H9 C14 1_555 1_555
C15 N1 1_555 1_555
C16 N1 1_555 1_555
H10 C16 1_555 1_555
C17 N2 1_555 1_555
H11 C17 1_555 1_555
Gd1 O1 1_555 1_555
O5 Gd1 1_555 1_555
H12 O5 1_555 1_555
H13 O5 1_555 1_555
O6 C24 1_555 1_555
O7 C24 1_555 1_555
O8 Gd1 1_555 1_555
O9 C31 1_555 1_555
N3 C28 1_555 1_555
C18 C21 1_555 1_555
C19 H14 1_555 1_555
C20 H15 1_555 1_555
C21 C20 1_555 1_555
H16 C21 1_555 1_555
C22 H17 1_555 1_555
N4 C27 1_555 1_555
C23 C19 1_555 1_555
C24 C18 1_555 1_555
C25 C22 1_555 1_555
H18 C25 1_555 1_555
C26 C18 1_555 1_555
H19 C26 1_555 1_555
C27 C20 1_555 1_555
C28 C25 1_555 1_555
C29 N4 1_555 1_555
H20 C29 1_555 1_555
C30 N3 1_555 1_555
H21 C30 1_555 1_555
C31 O8 1_555 1_555
C32 N3 1_555 1_555
H22 C32 1_555 1_555
C33 C19 1_555 1_555
H23 C33 1_555 1_555
C34 C26 1_555 1_555
H24 C34 1_555 1_555
O10 H25 1_555 1_555
H26 O10 1_555 1_555
O3B Gd1 1_555 1_555
O4B Gd1 1_555 1_555
Gd1_2 O6 1_555 1_555
Gd1B O3 1_555 1_555
Gd1B_2 O6 1_555 1_555
Gd1B_3 O4 1_555 1_555
O6_2 Gd1 1_555 1_555
O6B Gd1 1_555 1_555
O7_2 Gd1 1_555 1_555
N2 C16 1_555 1_555
C2 C15 1_555 1_555
C5 C8 1_555 1_555
C7 C9 1_555 1_555
C10 C14 1_555 1_555
C11 C15 1_555 1_555
C12 C17 1_555 1_555
O7 Gd1_2 1_555 1_555
C22 C23 1_555 1_555
N4 C32 1_555 1_555
C23 C31 1_555 1_555
C27 C34 1_555 1_555
C28 C33 1_555 1_555
C29 C30 1_555 1_555

#END
