
#######################################################################
#
#                 Cambridge Crystallographic Data Centre
#                                CCDC 
#
#######################################################################
#
# If this CIF has been generated from an entry in the Cambridge 
# Structural Database, then it will include bibliographic, chemical, 
# crystal, experimental, refinement or atomic coordinate data resulting 
# from the CCDC's data processing and validation procedures.
#
#######################################################################

data_KOYGOU
_symmetry_cell_setting           monoclinic
_symmetry_space_group_name_H-M   'P 21/n'
_symmetry_Int_Tables_number      14
_space_group_name_Hall           '-P 2yn'
loop_
_symmetry_equiv_pos_site_id
_symmetry_equiv_pos_as_xyz
1 x,y,z
2 1/2-x,1/2+y,1/2-z
3 -x,-y,-z
4 1/2+x,1/2-y,1/2+z
_cell_length_a                   9.9193(3)
_cell_length_b                   5.6912(6)
_cell_length_c                   13.3806(4)
_cell_angle_alpha                90
_cell_angle_beta                 92.544(4)
_cell_angle_gamma                90
_cell_volume                     754.627
loop_
_atom_site_label
_atom_site_type_symbol
_atom_site_fract_x
_atom_site_fract_y
_atom_site_fract_z
Hg1 Hg 0.1130 0.0981 0.0041
N1 N 0.2873(4) 0.3156(7) 0.0543(4)
N2 N 0.6996(5) 0.1048(7) 0.0892(4)
N3 N 0.5896(5) 1.0706(8) 0.3544(4)
N4 N 0.2301(5) 0.8361(8) 0.1758(4)
C1 C 0.3893(5) 0.3617(8) 0.0918(4)
C2 C 0.6201(5) 0.2408(8) 0.1073(4)
C3 C 0.5381(5) 0.9392(8) 0.3011(4)
C4 C 0.3399(5) 0.8057(8) 0.2019(4)
C5 C 0.4782(5) 0.7696(8) 0.2338(4)
C6 C 0.5546(5) 0.5885(8) 0.1993(4)
C7 C 0.5199(5) 0.4074(8) 0.1332(4)
H1 H 0.6430(13) 0.5990(13) 0.2224(12)
Hg1B Hg -0.1130 -0.0981 -0.0041
N2B N 0.3004(5) -0.1048(7) -0.0892(4)
N3C N 0.0896(5) 0.4294(8) -0.1456(4)
N4_2 N 0.2301(5) -0.1639(8) 0.1758(4)
Hg1B_2 Hg 0.8870 -0.0981 -0.0041
Hg1C Hg 0.6130 1.4019 0.5041
Hg1_2 Hg 0.1130 1.0981 0.0041
loop_
_geom_bond_atom_site_label_1
_geom_bond_atom_site_label_2
_geom_bond_site_symmetry_1
_geom_bond_site_symmetry_2
Hg1 N1 1_555 1_555
N1 C1 1_555 1_555
N2 C2 1_555 1_555
N3 C3 1_555 1_555
N4 C4 1_555 1_555
C1 C7 1_555 1_555
C2 C7 1_555 1_555
C3 C5 1_555 1_555
C4 C5 1_555 1_555
C5 C6 1_555 1_555
C6 C7 1_555 1_555
H1 C6 1_555 1_555
Hg1B Hg1 1_555 1_555
N2B Hg1 1_555 1_555
N3C Hg1 1_555 1_555
N4_2 Hg1 1_555 1_555
Hg1B_2 N2 1_555 1_555
Hg1C N3 1_555 1_555
Hg1_2 N4 1_555 1_555

#END
