
#######################################################################
#
#                 Cambridge Crystallographic Data Centre
#                                CCDC 
#
#######################################################################
#
# If this CIF has been generated from an entry in the Cambridge 
# Structural Database, then it will include bibliographic, chemical, 
# crystal, experimental, refinement or atomic coordinate data resulting 
# from the CCDC's data processing and validation procedures.
#
#######################################################################

data_KOYHIR
_symmetry_cell_setting           triclinic
_symmetry_space_group_name_H-M   'P -1'
_symmetry_Int_Tables_number      2
_space_group_name_Hall           '-P 1'
loop_
_symmetry_equiv_pos_site_id
_symmetry_equiv_pos_as_xyz
1 x,y,z
2 -x,-y,-z
_cell_length_a                   10.5940(8)
_cell_length_b                   10.7589(9)
_cell_length_c                   13.1841(11)
_cell_angle_alpha                107.263(2)
_cell_angle_beta                 106.136(2)
_cell_angle_gamma                90.3700(10)
_cell_volume                     1372
loop_
_atom_site_label
_atom_site_type_symbol
_atom_site_fract_x
_atom_site_fract_y
_atom_site_fract_z
Co1 Co 0.19941(17) 0.53348(17) 0.33045(15)
Co2 Co 0.21228(17) 0.41759(17) 0.03551(15)
Co3 Co 0.5000 0.5000 0.0000
Co4 Co 0.5000 0.5000 0.5000
N1 N 0.5061(11) 0.4859(11) 0.1690(9)
N2 N 0.3816(10) 0.4868(10) 0.1745(10)
N3 N 0.3805(10) 0.5130(11) 0.2765(9)
N4 N 0.5046(10) 0.5286(11) 0.3432(9)
N5 N 1.0029(11) 0.5250(11) 0.3548(10)
N6 N 0.1699(11) 0.2214(11) 0.3158(10)
N7 N 0.2379(11) 0.3412(11) 0.3505(10)
N8 N 0.3616(11) 0.3324(11) 0.4046(10)
N9 N 0.3777(11) 0.2134(11) 0.4122(10)
N10 N 0.1808(11) 0.7273(11) 0.0209(11)
N11 N 0.2448(11) 0.6178(11) 0.0215(10)
N12 N 0.3672(11) 0.6470(11) 0.0261(10)
N13 N 0.3901(11) 0.7712(11) 0.0311(10)
N14 N 0.1107(11) 0.4680(12) 0.1569(11)
N15 N 0.0310(12) 0.5603(12) 0.1290(11)
N16 N -0.0350(11) 0.6363(12) 0.0889(11)
N17 N 0.3301(11) 0.6010(10) 0.4917(9)
N18 N 0.3250(13) 0.6997(12) 0.5639(11)
N19 N 0.3187(19) 0.7908(15) 0.6335(14)
N20 N 0.3326(11) 0.3725(11) -0.0648(10)
N21 N 0.3105(14) 0.2717(15) -0.1463(13)
N22 N 0.286(2) 0.179(2) -0.2319(19)
C1 C 0.5811(12) 0.5124(14) 0.2767(12)
C2 C 0.9185(14) 0.4148(14) 0.2781(13)
H1 H 0.9555 0.3431 0.2419
C3 C 0.7886(13) 0.4105(13) 0.2562(12)
H2 H 0.7362 0.3365 0.2050
C4 C 0.7289(12) 0.5164(14) 0.3094(12)
C5 C 0.8088(13) 0.6172(14) 0.3912(12)
H3 H 0.7740 0.6837 0.4355
C6 C 0.9471(14) 0.6182(15) 0.4071(13)
H4 H 1.0008 0.6911 0.4588
C7 C 0.2595(13) 0.1471(13) 0.3582(12)
C8 C 0.2750(14) 0.8177(13) 0.0304(12)
C9 C 0.2369(14) 0.0085(13) 0.3487(13)
C10 C 0.3399(15) -0.0643(14) 0.3637(14)
H5 H 0.4251 -0.0279 0.3769
C11 C 0.1114(15) -0.0576(14) 0.3202(13)
H6 H 0.0363 -0.0145 0.3035
C12 C 0.0994(14) -0.1851(14) 0.3167(12)
H7 H 0.0148 -0.2254 0.2993
N23 N 0.2011(12) -0.2556(12) 0.3368(10)
C13 C 0.3188(15) -0.1916(14) 0.3595(13)
H8 H 0.3926 -0.2372 0.3737
C14 C 0.2512(15) 0.9508(15) 0.0329(15)
C15 C 0.3501(17) 1.0490(15) 0.0919(15)
H9 H 0.4310 1.0296 0.1311
C16 C 0.1378(17) 0.9873(16) -0.0376(17)
H10 H 0.0726 0.9238 -0.0894
C17 C 0.1267(18) 1.1205(17) -0.0275(17)
H11 H 0.0513 1.1435 -0.0715
C18 C 0.3316(16) 1.1777(16) 0.0942(15)
H12 H 0.4030 1.2403 0.1344
N24 N 0.2223(12) 1.2179(12) 0.0446(11)
Co1A Co -0.19941(17) 0.46652(17) -0.33045(15)
Co2A Co -0.21228(17) 0.58241(17) -0.03551(15)
N1A N -0.5061(11) 0.5141(11) -0.1690(9)
N2A N -0.3816(10) 0.5132(10) -0.1745(10)
N3A N -0.3805(10) 0.4870(11) -0.2765(9)
N4A N -0.5046(10) 0.4714(11) -0.3432(9)
N5A N -1.0029(11) 0.4750(11) -0.3548(10)
N6A N -0.1699(11) 0.7786(11) -0.3158(10)
N7A N -0.2379(11) 0.6588(11) -0.3505(10)
N8A N -0.3616(11) 0.6676(11) -0.4046(10)
N9A N -0.3777(11) 0.7866(11) -0.4122(10)
N10A N -0.1808(11) 0.2727(11) -0.0209(11)
N11A N -0.2448(11) 0.3822(11) -0.0215(10)
N12A N -0.3672(11) 0.3530(11) -0.0261(10)
N13A N -0.3901(11) 0.2288(11) -0.0311(10)
N14A N -0.1107(11) 0.5320(12) -0.1569(11)
N15A N -0.0310(12) 0.4397(12) -0.1290(11)
N16A N 0.0350(11) 0.3637(12) -0.0889(11)
N17A N -0.3301(11) 0.3990(10) -0.4917(9)
N18A N -0.3250(13) 0.3003(12) -0.5639(11)
N19A N -0.3187(19) 0.2092(15) -0.6335(14)
N20A N -0.3326(11) 0.6275(11) 0.0648(10)
N21A N -0.3105(14) 0.7283(15) 0.1463(13)
N22A N -0.286(2) 0.821(2) 0.2319(19)
C1A C -0.5811(12) 0.4876(14) -0.2767(12)
C2A C -0.9185(14) 0.5852(14) -0.2781(13)
H1A H -0.9555 0.6569 -0.2419
C3A C -0.7886(13) 0.5895(13) -0.2562(12)
H2A H -0.7362 0.6635 -0.2050
C4A C -0.7289(12) 0.4836(14) -0.3094(12)
C5A C -0.8088(13) 0.3828(14) -0.3912(12)
H3A H -0.7740 0.3163 -0.4355
C6A C -0.9471(14) 0.3818(15) -0.4071(13)
H4A H -1.0008 0.3089 -0.4588
C7A C -0.2595(13) 0.8529(13) -0.3582(12)
C8A C -0.2750(14) 0.1823(13) -0.0304(12)
C9A C -0.2369(14) 0.9915(13) -0.3487(13)
C10A C -0.3399(15) 1.0643(14) -0.3637(14)
H5A H -0.4251 1.0279 -0.3769
C11A C -0.1114(15) 1.0576(14) -0.3202(13)
H6A H -0.0363 1.0145 -0.3035
C12A C -0.0994(14) 1.1851(14) -0.3167(12)
H7A H -0.0148 1.2254 -0.2993
N23A N -0.2011(12) 1.2556(12) -0.3368(10)
C13A C -0.3188(15) 1.1916(14) -0.3595(13)
H8A H -0.3926 1.2372 -0.3737
C14A C -0.2512(15) 0.0492(15) -0.0329(15)
C15A C -0.3501(17) -0.0490(15) -0.0919(15)
H9A H -0.4310 -0.0296 -0.1311
C16A C -0.1378(17) 0.0127(16) 0.0376(17)
H10A H -0.0726 0.0762 0.0894
C17A C -0.1267(18) -0.1205(17) 0.0275(17)
H11A H -0.0513 -0.1435 0.0715
C18A C -0.3316(16) -0.1777(16) -0.0942(15)
H12A H -0.4030 -0.2403 -0.1344
N24A N -0.2223(12) -0.2179(12) -0.0446(11)
Co1_2 Co 0.19941(17) -0.46652(17) 0.33045(15)
Co1_3 Co 1.19941(17) 0.53348(17) 0.33045(15)
Co1A_2 Co -1.19941(17) 0.46652(17) -0.33045(15)
Co1A_3 Co -0.19941(17) 1.46652(17) -0.33045(15)
Co2_2 Co 0.21228(17) 1.41759(17) 0.03551(15)
Co2A_2 Co -0.21228(17) -0.41759(17) -0.03551(15)
Co3_2 Co -0.5000 0.5000 0.0000
Co4_2 Co -0.5000 0.5000 -0.5000
N1A_2 N 0.4939(11) 0.5141(11) -0.1690(9)
N4A_2 N 0.4954(10) 0.4714(11) 0.6568(9)
N5_2 N 0.0029(11) 0.5250(11) 0.3548(10)
N5A_2 N -0.0029(11) 0.4750(11) -0.3548(10)
N8A_2 N 0.6384(11) 0.6676(11) 0.5954(10)
N12A_2 N 0.6328(11) 0.3530(11) -0.0261(10)
N17A_2 N 0.6699(11) 0.3990(10) 0.5083(9)
N20A_2 N 0.6674(11) 0.6275(11) 0.0648(10)
N23_2 N 0.2011(12) 0.7444(12) 0.3368(10)
N23A_2 N -0.2011(12) 0.2556(12) -0.3368(10)
N24_2 N 0.2223(12) 0.2179(12) 0.0446(11)
N24A_2 N -0.2223(12) 0.7821(12) -0.0446(11)
loop_
_geom_bond_atom_site_label_1
_geom_bond_atom_site_label_2
_geom_bond_site_symmetry_1
_geom_bond_site_symmetry_2
Co1 N3 1_555 1_555
Co2 N2 1_555 1_555
Co3 N1 1_555 1_555
Co4 N4 1_555 1_555
N1 N2 1_555 1_555
N2 N3 1_555 1_555
N3 N4 1_555 1_555
N4 C1 1_555 1_555
N5 C2 1_555 1_555
N6 N7 1_555 1_555
N7 Co1 1_555 1_555
N8 Co4 1_555 1_555
N9 N8 1_555 1_555
N10 N11 1_555 1_555
N11 Co2 1_555 1_555
N12 Co3 1_555 1_555
N13 N12 1_555 1_555
N14 Co1 1_555 1_555
N15 N14 1_555 1_555
N16 N15 1_555 1_555
N17 Co1 1_555 1_555
N18 N17 1_555 1_555
N19 N18 1_555 1_555
N20 Co2 1_555 1_555
N21 N20 1_555 1_555
N22 N21 1_555 1_555
C1 N1 1_555 1_555
C2 H1 1_555 1_555
C3 C2 1_555 1_555
H2 C3 1_555 1_555
C4 C1 1_555 1_555
C5 C4 1_555 1_555
H3 C5 1_555 1_555
C6 N5 1_555 1_555
H4 C6 1_555 1_555
C7 N6 1_555 1_555
C8 N10 1_555 1_555
C9 C7 1_555 1_555
C10 C9 1_555 1_555
H5 C10 1_555 1_555
C11 C9 1_555 1_555
H6 C11 1_555 1_555
C12 C11 1_555 1_555
H7 C12 1_555 1_555
N23 C12 1_555 1_555
C13 C10 1_555 1_555
H8 C13 1_555 1_555
C14 C8 1_555 1_555
C15 C14 1_555 1_555
H9 C15 1_555 1_555
C16 C14 1_555 1_555
H10 C16 1_555 1_555
C17 C16 1_555 1_555
H11 C17 1_555 1_555
C18 C15 1_555 1_555
H12 C18 1_555 1_555
N24 C17 1_555 1_555
Co1A N3A 1_555 1_555
Co2A N16 1_555 1_555
N1A N2A 1_555 1_555
N2A Co2A 1_555 1_555
N3A N2A 1_555 1_555
N4A N3A 1_555 1_555
N5A C2A 1_555 1_555
N6A N7A 1_555 1_555
N7A Co1A 1_555 1_555
N8A N7A 1_555 1_555
N9A N8A 1_555 1_555
N10A N11A 1_555 1_555
N11A Co2A 1_555 1_555
N12A N11A 1_555 1_555
N13A N12A 1_555 1_555
N14A Co1A 1_555 1_555
N15A N14A 1_555 1_555
N16A Co2 1_555 1_555
N17A Co1A 1_555 1_555
N18A N17A 1_555 1_555
N19A N18A 1_555 1_555
N20A Co2A 1_555 1_555
N21A N20A 1_555 1_555
N22A N21A 1_555 1_555
C1A N1A 1_555 1_555
C2A H1A 1_555 1_555
C3A C2A 1_555 1_555
H2A C3A 1_555 1_555
C4A C1A 1_555 1_555
C5A C4A 1_555 1_555
H3A C5A 1_555 1_555
C6A N5A 1_555 1_555
H4A C6A 1_555 1_555
C7A N6A 1_555 1_555
C8A N10A 1_555 1_555
C9A C7A 1_555 1_555
C10A C9A 1_555 1_555
H5A C10A 1_555 1_555
C11A C9A 1_555 1_555
H6A C11A 1_555 1_555
C12A C11A 1_555 1_555
H7A C12A 1_555 1_555
N23A C12A 1_555 1_555
C13A C10A 1_555 1_555
H8A C13A 1_555 1_555
C14A C8A 1_555 1_555
C15A C14A 1_555 1_555
H9A C15A 1_555 1_555
C16A C14A 1_555 1_555
H10A C16A 1_555 1_555
C17A C16A 1_555 1_555
H11A C17A 1_555 1_555
C18A C15A 1_555 1_555
H12A C18A 1_555 1_555
N24A C17A 1_555 1_555
Co1_2 N23 1_555 1_555
Co1_3 N5 1_555 1_555
Co1A_2 N5A 1_555 1_555
Co1A_3 N23A 1_555 1_555
Co2_2 N24 1_555 1_555
Co2A_2 N24A 1_555 1_555
Co3_2 N1A 1_555 1_555
Co4_2 N4A 1_555 1_555
N1A_2 Co3 1_555 1_555
N4A_2 Co4 1_555 1_555
N5_2 Co1 1_555 1_555
N5A_2 Co1A 1_555 1_555
N8A_2 Co4 1_555 1_555
N12A_2 Co3 1_555 1_555
N17A_2 Co4 1_555 1_555
N20A_2 Co3 1_555 1_555
N23_2 Co1 1_555 1_555
N23A_2 Co1A 1_555 1_555
N24_2 Co2 1_555 1_555
N24A_2 Co2A 1_555 1_555
Co2 N14 1_555 1_555
Co3 N20 1_555 1_555
Co4 N17 1_555 1_555
N7 N8 1_555 1_555
N9 C7 1_555 1_555
N11 N12 1_555 1_555
N13 C8 1_555 1_555
C3 C4 1_555 1_555
C5 C6 1_555 1_555
N23 C13 1_555 1_555
C18 N24 1_555 1_555
Co2A N14A 1_555 1_555
N4A C1A 1_555 1_555
N8A Co4_2 1_555 1_555
N9A C7A 1_555 1_555
N12A Co3_2 1_555 1_555
N13A C8A 1_555 1_555
N15A N16A 1_555 1_555
N17A Co4_2 1_555 1_555
N20A Co3_2 1_555 1_555
C3A C4A 1_555 1_555
C5A C6A 1_555 1_555
N23A C13A 1_555 1_555
C18A N24A 1_555 1_555

#END
