
#######################################################################
#
#                 Cambridge Crystallographic Data Centre
#                                CCDC 
#
#######################################################################
#
# If this CIF has been generated from an entry in the Cambridge 
# Structural Database, then it will include bibliographic, chemical, 
# crystal, experimental, refinement or atomic coordinate data resulting 
# from the CCDC's data processing and validation procedures.
#
#######################################################################

data_KOYRAT
_symmetry_cell_setting           orthorhombic
_symmetry_space_group_name_H-M   'P n a 21'
_symmetry_Int_Tables_number      33
_space_group_name_Hall           'P 2c -2n'
loop_
_symmetry_equiv_pos_site_id
_symmetry_equiv_pos_as_xyz
1 x,y,z
2 -x,-y,1/2+z
3 1/2+x,1/2-y,z
4 1/2-x,1/2+y,1/2+z
_cell_length_a                   24.572(6)
_cell_length_b                   14.514(4)
_cell_length_c                   22.314(5)
_cell_angle_alpha                90
_cell_angle_beta                 90
_cell_angle_gamma                90
_cell_volume                     7958.02
loop_
_atom_site_label
_atom_site_type_symbol
_atom_site_fract_x
_atom_site_fract_y
_atom_site_fract_z
C1 C 0.0886(9) 0.5867(16) 0.1120(10)
C2 C 0.1569(8) -0.3167(16) -0.0682(11)
C3 C -0.2552(9) 0.9677(15) 0.0982(10)
C4 C -0.2728(7) 1.0744(13) -0.0890(7)
C5 C 0.0698(8) 1.4593(17) -0.0833(10)
C6 C 0.1841(3) 0.5412(4) 0.6687(2)
C7 C 0.2216(3) 0.5745(4) 0.6275(2)
H1 H 0.2510 0.6121 0.6405
C8 C 0.2162(3) 0.5528(4) 0.5671(2)
H2 H 0.2419 0.5756 0.5389
C9 C 0.1733(3) 0.4978(4) 0.5479(2)
C10 C 0.1357(3) 0.4645(4) 0.5892(2)
H3 H 0.1064 0.4270 0.5761
C11 C 0.1411(3) 0.4862(4) 0.6496(2)
H4 H 0.1155 0.4635 0.6778
C12 C 0.1654(2) 0.4743(3) 0.4810(2)
C13 C 0.2090(2) 0.4778(3) 0.4415(2)
H5 H 0.2446 0.4902 0.4560
C14 C 0.20062(19) 0.4630(3) 0.3806(2)
H6 H 0.2305 0.4654 0.3536
C15 C 0.14857(18) 0.4448(3) 0.3593(2)
C16 C 0.1049(2) 0.4413(3) 0.3988(2)
H7 H 0.0693 0.4288 0.3843
C17 C 0.1133(2) 0.4561(3) 0.4597(2)
H8 H 0.0835 0.4537 0.4867
C18 C 0.13452(18) 0.2300(3) 0.0684(2)
C19 C 0.12928(19) 0.1553(3) 0.1069(2)
H9 H 0.1257 0.1652 0.1488
C20 C 0.1293(2) 0.0662(3) 0.0842(3)
H10 H 0.1257 0.0151 0.1106
C21 C 0.1345(2) 0.0517(3) 0.0229(3)
C22 C 0.1398(2) 0.1264(3) -0.0157(3)
H11 H 0.1433 0.1165 -0.0576
C23 C 0.13976(19) 0.2155(3) 0.0071(2)
H12 H 0.1433 0.2666 -0.0193
C24 C 0.1396(2) -0.0453(3) -0.0006(3)
C25 C 0.1607(3) -0.1154(3) 0.0349(3)
H13 H 0.1714 -0.1029 0.0750
C26 C 0.1661(3) -0.2038(3) 0.0118(3)
H14 H 0.1805 -0.2518 0.0361
C27 C 0.1505(3) -0.2222(3) -0.0469(3)
C28 C 0.1294(3) -0.1521(3) -0.0824(3)
H15 H 0.1188 -0.1646 -0.1225
C29 C 0.1240(3) -0.0636(3) -0.0593(3)
H16 H 0.1096 -0.0157 -0.0836
C30 C 0.03636(14) 0.6394(2) 0.1118(2)
C31 C 0.02050(14) 0.6798(2) 0.0581(2)
H17 H 0.0416 0.6705 0.0229
C32 C -0.02621(14) 0.7337(2) 0.0558(2)
H18 H -0.0371 0.7613 0.0191
C33 C -0.05707(14) 0.7472(2) 0.1073(2)
C34 C -0.04121(14) 0.7068(2) 0.1610(2)
H19 H -0.0623 0.7160 0.1962
C35 C 0.00551(14) 0.6529(2) 0.1633(2)
H20 H 0.0163 0.6253 0.2000
C36 C -0.10810(14) 0.8043(2) 0.1030(2)
C37 C -0.14136(14) 0.8017(3) 0.0526(2)
H21 H -0.1316 0.7644 0.0193
C38 C -0.18887(15) 0.8536(3) 0.0510(2)
H22 H -0.2116 0.8518 0.0166
C39 C -0.20313(15) 0.9081(3) 0.0997(3)
C40 C -0.16986(16) 0.9107(3) 0.1501(2)
H23 H -0.1796 0.9480 0.1834
C41 C -0.12235(15) 0.8588(3) 0.1517(2)
H24 H -0.0996 0.8606 0.1861
C42 C -0.22114(19) 1.1327(3) -0.0853(3)
C43 C -0.1830(2) 1.1258(3) -0.1311(3)
H25 H -0.1890 1.0845 -0.1635
C44 C -0.1361(2) 1.1794(3) -0.1296(3)
H26 H -0.1101 1.1747 -0.1609
C45 C -0.1274(2) 1.2398(3) -0.0822(3)
C46 C -0.1656(2) 1.2467(3) -0.0364(3)
H27 H -0.1596 1.2880 -0.0041
C47 C -0.2124(2) 1.1931(3) -0.0380(3)
H28 H -0.2385 1.1978 -0.0067
C48 C -0.0771(2) 1.2980(3) -0.0806(3)
C49 C -0.0561(2) 1.3304(3) -0.1345(3)
H29 H -0.0739 1.3161 -0.1712
C50 C -0.0090(2) 1.3835(3) -0.1348(3)
H30 H 0.0053 1.4056 -0.1717
C51 C 0.0170(2) 1.4044(3) -0.0812(3)
C52 C -0.0039(2) 1.3720(3) -0.0274(3)
H31 H 0.0139 1.3863 0.0093
C53 C -0.0510(2) 1.3188(3) -0.0271(3)
H32 H -0.0653 1.2967 0.0098
C54 C 0.1892(7) 0.5635(14) 0.7305(9)
C55 C 0.1379(8) 0.3270(15) 0.0957(9)
C56 C 0.1373(6) 0.4398(15) 0.2943(9)
O1 O 0.0809(5) 1.4983(11) -0.0338(6)
O2 O -0.2751(6) 0.9808(11) 0.1497(7)
O3 O 0.1289(6) 0.3894(9) 0.0590(6)
O4 O 0.1219(6) 0.5928(10) 0.0732(6)
O5 O -0.2751(4) 1.0174(9) -0.1305(6)
O6 O 0.2314(6) 0.6043(12) 0.7511(7)
O7 O 0.1495(6) 0.5372(12) 0.7664(5)
O8 O 0.1755(6) 0.4583(11) 0.2591(5)
O9 O -0.2703(6) 0.9905(11) 0.0494(7)
O10 O 0.1788(6) -0.3762(9) -0.0366(6)
O11 O 0.1437(6) -0.3304(10) -0.1237(7)
O12 O 0.1483(6) 0.3343(11) 0.1472(7)
O13 O 0.0945(6) 0.5383(10) 0.1626(7)
O14 O 0.0910(6) 1.4712(11) -0.1310(7)
O15 O -0.3090(5) 1.0873(9) -0.0504(6)
O16 O 0.0926(6) 0.4069(12) 0.2782(7)
Ru1 Ru -0.34516(7) 0.99634(18) 0.00960(16)
Zn1 Zn -0.34432(8) 0.95773(16) -0.14791(14)
Zn2 Zn 0.15813(8) 0.46243(17) 0.17378(14)
O1B O -0.4191(5) 1.0017(11) -0.0338(6)
O2B O 0.2249(6) 0.5192(11) 0.1497(7)
O3B O -0.3711(6) 1.1106(9) 0.0590(6)
O4B O -0.3781(6) 0.9072(10) 0.0732(6)
O7B O -0.3505(6) 0.9628(12) -0.2336(5)
O10B O -0.3212(6) 0.8762(9) -0.0366(6)
O11B O -0.3563(6) 0.8304(10) -0.1237(7)
O14B O -0.4090(6) 1.0288(11) -0.1310(7)
Ru1B Ru 0.15484(7) -0.49634(18) 0.00960(16)
Ru1B_2 Ru 0.15484(7) 0.50366(18) 0.00960(16)
Ru1B_3 Ru 0.15484(7) 1.50366(18) 0.00960(16)
Zn1B Zn 0.15568(8) -0.45773(16) -0.14791(14)
Zn1B_2 Zn 0.15568(8) 0.54227(16) 0.85209(14)
Zn1B_3 Zn 0.15568(8) 1.54227(16) -0.14791(14)
Zn2B Zn -0.34187(8) 1.03757(17) 0.17378(14)
C57 C 0.9842(10) 0.981(3) 0.9713(18)
H33 H 1.0096 1.0028 1.0019
H34 H 0.9876 0.9138 0.9672
H35 H 0.9926 1.0103 0.9329
C58 C 0.9211(16) 1.067(3) 1.0382(14)
H36 H 0.9557 1.0761 1.0591
H37 H 0.9078 1.1259 1.0229
H38 H 0.8944 1.0409 1.0661
C59 C 0.8885(11) 0.981(2) 0.9546(14)
H39 H 0.8540 1.0055 0.9652
N1 N 0.9290(10) 1.0037(18) 0.9888(10)
O17 O 0.8899(9) 0.9316(18) 0.9102(9)
C60 C 0.8510(13) 0.7491(19) 0.3218(19)
H40 H 0.8276 0.6959 0.3303
H41 H 0.8712 0.7382 0.2847
H42 H 0.8767 0.7578 0.3550
C61 C 0.7594(10) 0.821(3) 0.315(2)
H43 H 0.7495 0.7574 0.3242
H44 H 0.7434 0.8626 0.3446
H45 H 0.7455 0.8371 0.2748
C62 C 0.8404(11) 0.909(2) 0.3039(17)
H46 H 0.8167 0.9595 0.2954
N2 N 0.8178(9) 0.8306(17) 0.3153(13)
O18 O 0.8893(11) 0.9256(18) 0.3029(13)
C63 C 0.8719(13) 0.168(3) 0.2414(11)
H47 H 0.8499 0.1467 0.2754
H48 H 0.8985 0.1206 0.2308
H49 H 0.8910 0.2248 0.2526
C64 C 0.7786(9) 0.186(3) 0.1998(16)
H50 H 0.7703 0.1617 0.2399
H51 H 0.7645 0.2485 0.1961
H52 H 0.7614 0.1461 0.1696
C65 C 0.8569(10) 0.215(3) 0.1404(11)
H53 H 0.8317 0.2268 0.1091
N3 N 0.8370(7) 0.1858(19) 0.1908(9)
O19 O 0.9052(11) 0.229(2) 0.1291(13)
C66 C 0.1578(10) 0.7545(17) 0.1860(15)
H54 H 0.1750 0.6981 0.1709
H55 H 0.1417 0.7425 0.2254
H56 H 0.1293 0.7742 0.1581
C67 C 0.2533(9) 0.806(2) 0.1714(17)
H57 H 0.2557 0.7420 0.1586
H58 H 0.2627 0.8469 0.1378
H59 H 0.2787 0.8171 0.2046
C68 C 0.1856(8) 0.9074(16) 0.2102(11)
H60 H 0.2146 0.9506 0.2118
N4 N 0.1982(7) 0.8261(14) 0.1912(10)
O20 O 0.1415(8) 0.9359(13) 0.2265(10)
C69 C 0.020(3) 0.124(2) 0.212(3)
H61 H 0.0240 0.1374 0.1697
H62 H -0.0101 0.1614 0.2288
H63 H 0.0536 0.1392 0.2335
C70 C 0.023(3) -0.036(4) 0.173(2)
H64 H 0.0265 -0.0026 0.1355
H65 H 0.0572 -0.0658 0.1835
H66 H -0.0057 -0.0834 0.1690
C71 C 0.0003(19) -0.004(4) 0.2747(17)
H67 H -0.0325 -0.0367 0.2824
N5 N 0.007(2) 0.027(2) 0.2205(16)
O21 O 0.0322(19) 0.004(4) 0.3163(17)
C72 C 0.9988(10) 0.375(2) 0.1396(9)
H68 H 1.0302 0.3578 0.1150
H69 H 0.9675 0.3366 0.1285
H70 H 0.9899 0.4399 0.1329
N6 N 1.0114(8) 0.3607(16) 0.2018(8)
H71 H 1.0208 0.3005 0.2069
H72 H 1.0413 0.3951 0.2109
C73 C 0.9694(11) 0.382(3) 0.2442(12)
H73 H 0.9825 0.3702 0.2849
H74 H 0.9597 0.4477 0.2405
H75 H 0.9373 0.3444 0.2360
C74 C 0.3497(10) 0.671(2) 0.7873(10)
H76 H 0.3637 0.6201 0.7632
H77 H 0.3291 0.7135 0.7616
H78 H 0.3802 0.7044 0.8057
N7 N 0.3145(8) 0.6358(14) 0.8335(8)
H79 H 0.3340 0.5953 0.8562
H80 H 0.2872 0.6037 0.8157
C75 C 0.2907(9) 0.7034(18) 0.8729(11)
H81 H 0.2677 0.6724 0.9025
H82 H 0.3197 0.7374 0.8935
H83 H 0.2686 0.7465 0.8494
loop_
_geom_bond_atom_site_label_1
_geom_bond_atom_site_label_2
_geom_bond_site_symmetry_1
_geom_bond_site_symmetry_2
C1 C30 1_555 1_555
C2 C27 1_555 1_555
C3 C39 1_555 1_555
C4 C42 1_555 1_555
C5 C51 1_555 1_555
C6 C7 1_555 1_555
C7 H1 1_555 1_555
C8 C7 1_555 1_555
H2 C8 1_555 1_555
C9 C8 1_555 1_555
C10 C9 1_555 1_555
H3 C10 1_555 1_555
C11 C6 1_555 1_555
H4 C11 1_555 1_555
C12 C9 1_555 1_555
C13 C12 1_555 1_555
H5 C13 1_555 1_555
C14 C13 1_555 1_555
H6 C14 1_555 1_555
C15 C14 1_555 1_555
C16 C15 1_555 1_555
H7 C16 1_555 1_555
C17 C12 1_555 1_555
H8 C17 1_555 1_555
C18 C19 1_555 1_555
C19 H9 1_555 1_555
C20 C19 1_555 1_555
H10 C20 1_555 1_555
C21 C20 1_555 1_555
C22 C21 1_555 1_555
H11 C22 1_555 1_555
C23 C18 1_555 1_555
H12 C23 1_555 1_555
C24 C21 1_555 1_555
C25 C24 1_555 1_555
H13 C25 1_555 1_555
C26 C25 1_555 1_555
H14 C26 1_555 1_555
C27 C26 1_555 1_555
C28 C27 1_555 1_555
H15 C28 1_555 1_555
C29 C24 1_555 1_555
H16 C29 1_555 1_555
C30 C31 1_555 1_555
C31 H17 1_555 1_555
C32 C31 1_555 1_555
H18 C32 1_555 1_555
C33 C32 1_555 1_555
C34 C33 1_555 1_555
H19 C34 1_555 1_555
C35 C30 1_555 1_555
H20 C35 1_555 1_555
C36 C33 1_555 1_555
C37 C36 1_555 1_555
H21 C37 1_555 1_555
C38 C37 1_555 1_555
H22 C38 1_555 1_555
C39 C38 1_555 1_555
C40 C39 1_555 1_555
H23 C40 1_555 1_555
C41 C36 1_555 1_555
H24 C41 1_555 1_555
C42 C43 1_555 1_555
C43 H25 1_555 1_555
C44 C43 1_555 1_555
H26 C44 1_555 1_555
C45 C44 1_555 1_555
C46 C45 1_555 1_555
H27 C46 1_555 1_555
C47 C42 1_555 1_555
H28 C47 1_555 1_555
C48 C45 1_555 1_555
C49 C48 1_555 1_555
H29 C49 1_555 1_555
C50 C49 1_555 1_555
H30 C50 1_555 1_555
C51 C50 1_555 1_555
C52 C51 1_555 1_555
H31 C52 1_555 1_555
C53 C48 1_555 1_555
H32 C53 1_555 1_555
C54 C6 1_555 1_555
C55 C18 1_555 1_555
C56 C15 1_555 1_555
O1 C5 1_555 1_555
O2 C3 1_555 1_555
O3 C55 1_555 1_555
O4 C1 1_555 1_555
O5 C4 1_555 1_555
O6 C54 1_555 1_555
O7 C54 1_555 1_555
O8 C56 1_555 1_555
O9 C3 1_555 1_555
O10 C2 1_555 1_555
O11 C2 1_555 1_555
O12 C55 1_555 1_555
O13 C1 1_555 1_555
O14 C5 1_555 1_555
O15 C4 1_555 1_555
O16 C56 1_555 1_555
Ru1 O9 1_555 1_555
Zn1 O5 1_555 1_555
Zn2 O8 1_555 1_555
C57 H33 1_555 1_555
H34 C57 1_555 1_555
H35 C57 1_555 1_555
C58 H36 1_555 1_555
H37 C58 1_555 1_555
H38 C58 1_555 1_555
C59 H39 1_555 1_555
N1 C57 1_555 1_555
O17 C59 1_555 1_555
C60 H40 1_555 1_555
H41 C60 1_555 1_555
H42 C60 1_555 1_555
C61 H43 1_555 1_555
H44 C61 1_555 1_555
H45 C61 1_555 1_555
C62 H46 1_555 1_555
N2 C60 1_555 1_555
O18 C62 1_555 1_555
C63 H47 1_555 1_555
H48 C63 1_555 1_555
H49 C63 1_555 1_555
C64 H50 1_555 1_555
H51 C64 1_555 1_555
H52 C64 1_555 1_555
C65 H53 1_555 1_555
N3 C63 1_555 1_555
O19 C65 1_555 1_555
C66 H54 1_555 1_555
H55 C66 1_555 1_555
H56 C66 1_555 1_555
C67 H57 1_555 1_555
H58 C67 1_555 1_555
H59 C67 1_555 1_555
C68 H60 1_555 1_555
N4 C66 1_555 1_555
O20 C68 1_555 1_555
C69 H61 1_555 1_555
H62 C69 1_555 1_555
H63 C69 1_555 1_555
C70 H64 1_555 1_555
H65 C70 1_555 1_555
H66 C70 1_555 1_555
C71 H67 1_555 1_555
N5 C69 1_555 1_555
O21 C71 1_555 1_555
C72 H68 1_555 1_555
H69 C72 1_555 1_555
H70 C72 1_555 1_555
N6 C72 1_555 1_555
H71 N6 1_555 1_555
H72 N6 1_555 1_555
C73 N6 1_555 1_555
H73 C73 1_555 1_555
H74 C73 1_555 1_555
H75 C73 1_555 1_555
C74 H76 1_555 1_555
H77 C74 1_555 1_555
H78 C74 1_555 1_555
N7 C74 1_555 1_555
H79 N7 1_555 1_555
H80 N7 1_555 1_555
C75 N7 1_555 1_555
H81 C75 1_555 1_555
H82 C75 1_555 1_555
H83 C75 1_555 1_555
O1B Ru1 1_555 1_555
O2B Zn2 1_555 1_555
O3B Ru1 1_555 1_555
O4B Ru1 1_555 1_555
O7B Zn1 1_555 1_555
O10B Ru1 1_555 1_555
O11B Zn1 1_555 1_555
O14B Zn1 1_555 1_555
Ru1B O10 1_555 1_555
Ru1B_2 O3 1_555 1_555
Ru1B_3 O1 1_555 1_555
Zn1B O11 1_555 1_555
Zn1B_2 O7 1_555 1_555
Zn1B_3 O14 1_555 1_555
Zn2B O2 1_555 1_555
C10 C11 1_555 1_555
C16 C17 1_555 1_555
C22 C23 1_555 1_555
C28 C29 1_555 1_555
C34 C35 1_555 1_555
C40 C41 1_555 1_555
C46 C47 1_555 1_555
C52 C53 1_555 1_555
O4 Ru1B_2 1_555 1_555
O12 Zn2 1_555 1_555
O13 Zn2 1_555 1_555
O15 Ru1 1_555 1_555
C58 N1 1_555 1_555
C59 N1 1_555 1_555
C61 N2 1_555 1_555
C62 N2 1_555 1_555
C64 N3 1_555 1_555
C65 N3 1_555 1_555
C67 N4 1_555 1_555
C68 N4 1_555 1_555
C70 N5 1_555 1_555
C71 N5 1_555 1_555

#END
