
#######################################################################
#
#                 Cambridge Crystallographic Data Centre
#                                CCDC 
#
#######################################################################
#
# If this CIF has been generated from an entry in the Cambridge 
# Structural Database, then it will include bibliographic, chemical, 
# crystal, experimental, refinement or atomic coordinate data resulting 
# from the CCDC's data processing and validation procedures.
#
#######################################################################

data_KOZCIN
_symmetry_cell_setting           monoclinic
_symmetry_space_group_name_H-M   'C 2/c'
_symmetry_Int_Tables_number      15
_space_group_name_Hall           '-C 2yn'
loop_
_symmetry_equiv_pos_site_id
_symmetry_equiv_pos_as_xyz
1 x,y,z
2 -x,y,1/2-z
3 1/2+x,1/2+y,z
4 1/2-x,1/2+y,1/2-z
5 -x,-y,-z
6 x,-y,1/2+z
7 1/2-x,1/2-y,-z
8 1/2+x,1/2-y,1/2+z
_cell_length_a                   21.042(14)
_cell_length_b                   8.881(5)
_cell_length_c                   16.352(10)
_cell_angle_alpha                90
_cell_angle_beta                 113.670(9)
_cell_angle_gamma                90
_cell_volume                     2798.69
loop_
_atom_site_label
_atom_site_type_symbol
_atom_site_fract_x
_atom_site_fract_y
_atom_site_fract_z
Zn1 Zn 0.18547(4) 0.07084(8) 0.04253(5)
Cl1 Cl 0.14146(8) -0.12176(16) 0.09963(10)
Cl2 Cl 0.27423(8) 0.19397(15) 0.15241(9)
O1 O 0.2153(2) -0.0155(6) -0.0459(3)
C1 C 0.1662(3) -0.0643(7) -0.1172(5)
O2 O 0.1057(3) -0.0729(8) -0.1284(4)
N1 N -0.1131(2) -0.7613(6) -0.4847(4)
N2 N 0.1376(2) -0.2133(6) -0.2533(3)
C2 C 0.0386(3) -0.4223(6) -0.3521(4)
C3 C 0.0733(4) -0.1673(8) -0.3044(5)
H1 H 0.0624 -0.0655 -0.3061
C4 C 0.1553(4) -0.3573(9) -0.2523(6)
H2 H 0.2008 -0.3871 -0.2187
C5 C -0.0835(3) -0.5020(8) -0.4519(5)
H3 H -0.0981 -0.4021 -0.4602
C6 C -0.0152(3) -0.5377(7) -0.3985(4)
C7 C 0.1884(3) -0.1067(8) -0.1915(5)
H4 H 0.1912 -0.0170 -0.2238
H5 H 0.2340 -0.1530 -0.1665
C8 C 0.0227(3) -0.2691(7) -0.3550(5)
H6 H -0.0217 -0.2353 -0.3907
C9 C -0.1293(3) -0.6161(8) -0.4924(5)
H7 H -0.1749 -0.5899 -0.5277
C10 C 0.1062(4) -0.4631(9) -0.3014(6)
H8 H 0.1192 -0.5635 -0.2999
C11 C -0.0469(4) -0.7946(8) -0.4352(7)
H9 H -0.0334 -0.8950 -0.4297
C12 C 0.0023(3) -0.6869(8) -0.3917(7)
H10 H 0.0478 -0.7160 -0.3575
Zn1A Zn -0.18547(4) -0.92916(8) -0.54253(5)
N1A N 0.1131(2) 0.2387(6) -0.0153(4)
loop_
_geom_bond_atom_site_label_1
_geom_bond_atom_site_label_2
_geom_bond_site_symmetry_1
_geom_bond_site_symmetry_2
Zn1 Cl1 1_555 1_555
Cl2 Zn1 1_555 1_555
O1 Zn1 1_555 1_555
C1 O1 1_555 1_555
O2 C1 1_555 1_555
N1 C9 1_555 1_555
N2 C3 1_555 1_555
C2 C6 1_555 1_555
C3 H1 1_555 1_555
C4 N2 1_555 1_555
H2 C4 1_555 1_555
C5 H3 1_555 1_555
C6 C5 1_555 1_555
C7 C1 1_555 1_555
H4 C7 1_555 1_555
H5 C7 1_555 1_555
C8 C2 1_555 1_555
H6 C8 1_555 1_555
C9 C5 1_555 1_555
H7 C9 1_555 1_555
C10 C2 1_555 1_555
H8 C10 1_555 1_555
C11 N1 1_555 1_555
H9 C11 1_555 1_555
C12 C6 1_555 1_555
H10 C12 1_555 1_555
Zn1A N1 1_555 1_555
N1A Zn1 1_555 1_555
N2 C7 1_555 1_555
C3 C8 1_555 1_555
C4 C10 1_555 1_555
C11 C12 1_555 1_555

#END
