
#######################################################################
#
#                 Cambridge Crystallographic Data Centre
#                                CCDC 
#
#######################################################################
#
# If this CIF has been generated from an entry in the Cambridge 
# Structural Database, then it will include bibliographic, chemical, 
# crystal, experimental, refinement or atomic coordinate data resulting 
# from the CCDC's data processing and validation procedures.
#
#######################################################################

data_KOZCIN01
_symmetry_cell_setting           monoclinic
_symmetry_space_group_name_H-M   'C 2/c'
_symmetry_Int_Tables_number      15
_space_group_name_Hall           '-C 2yn'
loop_
_symmetry_equiv_pos_site_id
_symmetry_equiv_pos_as_xyz
1 x,y,z
2 -x,y,1/2-z
3 1/2+x,1/2+y,z
4 1/2-x,1/2+y,1/2-z
5 -x,-y,-z
6 x,-y,1/2+z
7 1/2-x,1/2-y,-z
8 1/2+x,1/2-y,1/2+z
_cell_length_a                   21.004(9)
_cell_length_b                   8.861(3)
_cell_length_c                   16.329(7)
_cell_angle_alpha                90
_cell_angle_beta                 113.747(6)
_cell_angle_gamma                90
_cell_volume                     2781.78
loop_
_atom_site_label
_atom_site_type_symbol
_atom_site_fract_x
_atom_site_fract_y
_atom_site_fract_z
Zn1 Zn 0.18543(4) 0.07087(8) 0.04252(5)
Cl1 Cl 0.14133(8) -0.12171(16) 0.09949(10)
Cl2 Cl 0.27425(8) 0.19385(16) 0.15252(9)
N1 N 0.1130(3) 0.2386(6) -0.0149(4)
O1 O 0.2154(2) -0.0155(6) -0.0461(3)
C1 C 0.1663(3) -0.0638(7) -0.1166(4)
C2 C 0.1887(3) -0.1061(8) -0.1912(5)
O2 O 0.1056(3) -0.0720(8) -0.1285(4)
N2 N 0.1377(3) -0.2126(6) -0.2533(3)
H1 H 0.1915 -0.0161 -0.2233
H2 H 0.2343 -0.1526 -0.1660
C3 C 0.0731(4) -0.1680(8) -0.3045(5)
C4 C 0.1550(4) -0.3575(9) -0.2528(6)
C5 C 0.0225(3) -0.2686(8) -0.3550(5)
H3 H 0.0619 -0.0661 -0.3061
C6 C 0.1061(4) -0.4626(9) -0.3012(6)
H4 H 0.2006 -0.3878 -0.2194
H5 H -0.0219 -0.2345 -0.3910
C7 C 0.0385(3) -0.4226(7) -0.3517(4)
H6 H 0.1192 -0.5631 -0.2996
C8 C -0.0151(3) -0.5379(7) -0.3985(4)
C9 C -0.0836(3) -0.5021(8) -0.4518(5)
C10 C 0.0023(3) -0.6870(9) -0.3918(7)
C11 C -0.1295(3) -0.6161(8) -0.4928(5)
H7 H -0.0982 -0.4020 -0.4597
C12 C -0.0470(4) -0.7945(8) -0.4356(7)
H8 H 0.0478 -0.7164 -0.3572
H9 H -0.1753 -0.5898 -0.5283
H10 H -0.0333 -0.8951 -0.4303
N1A N -0.1130(3) -0.7614(6) -0.4851(4)
Zn1A Zn -0.18543(4) -0.92913(8) -0.54252(5)
loop_
_geom_bond_atom_site_label_1
_geom_bond_atom_site_label_2
_geom_bond_site_symmetry_1
_geom_bond_site_symmetry_2
Zn1 Cl1 1_555 1_555
Cl2 Zn1 1_555 1_555
N1 Zn1 1_555 1_555
O1 Zn1 1_555 1_555
C1 O1 1_555 1_555
C2 C1 1_555 1_555
O2 C1 1_555 1_555
N2 C2 1_555 1_555
H1 C2 1_555 1_555
H2 C2 1_555 1_555
C3 N2 1_555 1_555
C4 N2 1_555 1_555
C5 C3 1_555 1_555
H3 C3 1_555 1_555
C6 C4 1_555 1_555
H4 C4 1_555 1_555
H5 C5 1_555 1_555
C7 C5 1_555 1_555
H6 C6 1_555 1_555
C8 C7 1_555 1_555
C9 C8 1_555 1_555
C10 C8 1_555 1_555
C11 C9 1_555 1_555
H7 C9 1_555 1_555
C12 C10 1_555 1_555
H8 C10 1_555 1_555
H9 C11 1_555 1_555
H10 C12 1_555 1_555
N1A C11 1_555 1_555
Zn1A N1A 1_555 1_555
C6 C7 1_555 1_555
C12 N1A 1_555 1_555

#END
