
#######################################################################
#
#                 Cambridge Crystallographic Data Centre
#                                CCDC 
#
#######################################################################
#
# If this CIF has been generated from an entry in the Cambridge 
# Structural Database, then it will include bibliographic, chemical, 
# crystal, experimental, refinement or atomic coordinate data resulting 
# from the CCDC's data processing and validation procedures.
#
#######################################################################

data_KOZDEK
_symmetry_cell_setting           monoclinic
_symmetry_space_group_name_H-M   'P 21/c'
_symmetry_Int_Tables_number      14
_space_group_name_Hall           '-P 2ybc'
loop_
_symmetry_equiv_pos_site_id
_symmetry_equiv_pos_as_xyz
1 x,y,z
2 -x,1/2+y,1/2-z
3 -x,-y,-z
4 x,1/2-y,1/2+z
_cell_length_a                   14.5688(7)
_cell_length_b                   14.2833(9)
_cell_length_c                   9.8497(6)
_cell_angle_alpha                90
_cell_angle_beta                 100.280(3)
_cell_angle_gamma                90
_cell_volume                     2016.73
loop_
_atom_site_label
_atom_site_type_symbol
_atom_site_fract_x
_atom_site_fract_y
_atom_site_fract_z
N1 N 0.3494(4) 0.4500(4) -0.0056(9)
H8 H 0.3873 0.4930 -0.0335
H9 H 0.3838 0.3977 0.0132
C16 C 0.3299(4) 0.4839(8) 0.1290(7)
C17 C 0.2357(5) 0.5273(5) 0.1314(7)
H10 H 0.2451 0.5934 0.1515
H11 H 0.2112 0.4997 0.2075
C18 C 0.1620(3) 0.5182(6) 0.0030(5)
H12 H 0.1445 0.4558 0.0309
C19 C 0.1876(3) 0.4794(6) -0.1297(6)
H13 H 0.1377 0.4375 -0.1698
H14 H 0.1866 0.5315 -0.1929
C20 C 0.2778(4) 0.4280(5) -0.1282(6)
H15 H 0.2657 0.3612 -0.1304
H16 H 0.3020 0.4440 -0.2109
C21 C 0.0632(5) 0.5540(8) -0.0034(12)
C22 C 0.0144(9) 0.4596(9) 0.0568(13)
N1B N -0.3494(4) 0.5500(4) 0.0056(9)
H8B H -0.3873 0.5070 0.0335
H9B H -0.3838 0.6023 -0.0132
C16B C -0.3299(4) 0.5161(8) -0.1290(7)
C17B C -0.2357(5) 0.4727(5) -0.1314(7)
H10B H -0.2451 0.4066 -0.1515
H11B H -0.2112 0.5003 -0.2075
C18B C -0.1620(3) 0.4818(6) -0.0030(5)
H12B H -0.1445 0.5442 -0.0309
C19B C -0.1876(3) 0.5206(6) 0.1297(6)
H13B H -0.1377 0.5625 0.1698
H14B H -0.1866 0.4685 0.1929
C20B C -0.2778(4) 0.5720(5) 0.1282(6)
H15B H -0.2657 0.6388 0.1304
H16B H -0.3020 0.5560 0.2109
C21B C -0.0632(5) 0.4460(8) 0.0034(12)
C22B C -0.0144(9) 0.5404(9) -0.0568(13)
Mn1 Mn 0.43216(4) 0.16315(4) -0.00749(6)
O1 O 0.30835(19) 0.2324(2) 0.0849(3)
O2 O 0.2799(2) 0.1392(2) -0.0960(3)
O3 O -0.50819(18) 0.0705(2) -0.1307(3)
O4 O -0.4157(2) -0.0526(2) -0.1371(3)
O5 O -0.4645(2) 0.1148(2) -0.4236(3)
O6 O -0.4621(2) 0.2675(2) -0.3722(3)
O7 O -0.12054(19) 0.1363(3) 0.0752(3)
C1 C 0.1532(3) 0.1740(3) 0.0179(4)
C2 C 0.1208(3) 0.2157(3) 0.1280(4)
H1 H 0.1612 0.2517 0.1909
C3 C 0.0292(3) 0.2041(3) 0.1451(5)
H2 H 0.0081 0.2317 0.2193
C4 C -0.0308(3) 0.1510(3) 0.0502(4)
C5 C -0.0003(3) 0.1090(3) -0.0601(5)
H3 H -0.0412 0.0739 -0.1235
C6 C 0.0917(3) 0.1198(3) -0.0754(4)
H4 H 0.1128 0.0907 -0.1485
C7 C -0.1941(3) 0.1460(3) -0.0360(4)
C8 C -0.1954(3) 0.2160(3) -0.1331(5)
H5 H -0.1438 0.2546 -0.1314
C9 C -0.2744(3) 0.2281(3) -0.2328(5)
H6 H -0.2759 0.2756 -0.2977
C10 C -0.3519(3) 0.1701(3) -0.2375(4)
C11 C -0.3488(3) 0.0982(3) -0.1408(4)
C12 C -0.2690(3) 0.0862(3) -0.0397(4)
H7 H -0.2664 0.0382 0.0247
C13 C 0.2531(3) 0.1827(3) 0.0007(4)
C14 C -0.4310(3) 0.0336(3) -0.1363(4)
C15 C -0.4333(3) 0.1842(3) -0.3542(4)
O8 O 0.4224(2) 0.2772(2) -0.1580(3)
Mn1_2 Mn -0.56784(4) 0.16315(4) -0.00749(6)
Mn1B Mn -0.43216(4) -0.16315(4) 0.00749(6)
Mn1C Mn -0.56784(4) 0.33685(4) -0.50749(6)
O3_2 O 0.49181(18) 0.0705(2) -0.1307(3)
O4B O 0.4157(2) 0.0526(2) 0.1371(3)
O6C O 0.5379(2) 0.2325(2) 0.1278(3)
loop_
_geom_bond_atom_site_label_1
_geom_bond_atom_site_label_2
_geom_bond_site_symmetry_1
_geom_bond_site_symmetry_2
Mn1 O1 1_555 1_555
O1 C13 1_555 1_555
O2 Mn1 1_555 1_555
O3 C14 1_555 1_555
O4 C14 1_555 1_555
O5 C15 1_555 1_555
O6 C15 1_555 1_555
O7 C4 1_555 1_555
C1 C2 1_555 1_555
C2 H1 1_555 1_555
C3 C2 1_555 1_555
H2 C3 1_555 1_555
C4 C3 1_555 1_555
C5 C4 1_555 1_555
H3 C5 1_555 1_555
C6 C1 1_555 1_555
H4 C6 1_555 1_555
C7 O7 1_555 1_555
C8 C7 1_555 1_555
H5 C8 1_555 1_555
C9 C8 1_555 1_555
H6 C9 1_555 1_555
C10 C9 1_555 1_555
C11 C10 1_555 1_555
C12 C7 1_555 1_555
H7 C12 1_555 1_555
C13 O2 1_555 1_555
C14 C11 1_555 1_555
C15 C10 1_555 1_555
O8 Mn1 1_555 1_555
N1 H8 1_555 1_555
H9 N1 1_555 1_555
C16 N1 1_555 1_555
C17 C16 1_555 1_555
H10 C17 1_555 1_555
H11 C17 1_555 1_555
C18 C17 1_555 1_555
H12 C18 1_555 1_555
C19 C18 1_555 1_555
H13 C19 1_555 1_555
H14 C19 1_555 1_555
C20 N1 1_555 1_555
H15 C20 1_555 1_555
H16 C20 1_555 1_555
C21 C18 1_555 1_555
C22 C21 1_555 1_555
Mn1_2 O3 1_555 1_555
Mn1B O4 1_555 1_555
Mn1C O6 1_555 1_555
O3_2 Mn1 1_555 1_555
O4B Mn1 1_555 1_555
O6C Mn1 1_555 1_555
N1B H8B 1_555 1_555
H9B N1B 1_555 1_555
C16B N1B 1_555 1_555
C17B C16B 1_555 1_555
H10B C17B 1_555 1_555
H11B C17B 1_555 1_555
C18B C17B 1_555 1_555
H12B C18B 1_555 1_555
C19B C18B 1_555 1_555
H13B C19B 1_555 1_555
H14B C19B 1_555 1_555
C20B N1B 1_555 1_555
H15B C20B 1_555 1_555
H16B C20B 1_555 1_555
C21B C22 1_555 1_555
C22B C21 1_555 1_555
C1 C13 1_555 1_555
C5 C6 1_555 1_555
C11 C12 1_555 1_555
C19 C20 1_555 1_555
C18B C21B 1_555 1_555
C19B C20B 1_555 1_555
C21B C22B 1_555 1_555

#END
