
#######################################################################
#
#                 Cambridge Crystallographic Data Centre
#                                CCDC 
#
#######################################################################
#
# If this CIF has been generated from an entry in the Cambridge 
# Structural Database, then it will include bibliographic, chemical, 
# crystal, experimental, refinement or atomic coordinate data resulting 
# from the CCDC's data processing and validation procedures.
#
#######################################################################

data_KOZDAG
_symmetry_cell_setting           triclinic
_symmetry_space_group_name_H-M   'P -1'
_symmetry_Int_Tables_number      2
_space_group_name_Hall           '-P 1'
loop_
_symmetry_equiv_pos_site_id
_symmetry_equiv_pos_as_xyz
1 x,y,z
2 -x,-y,-z
_cell_length_a                   10.220(2)
_cell_length_b                   12.408(3)
_cell_length_c                   21.148(4)
_cell_angle_alpha                99.29(3)
_cell_angle_beta                 96.54(3)
_cell_angle_gamma                97.36(3)
_cell_volume                     2599.86
loop_
_atom_site_label
_atom_site_type_symbol
_atom_site_fract_x
_atom_site_fract_y
_atom_site_fract_z
Cd1 Cd 0.607001(19) 0.073106(17) 0.443134(10)
Cd2 Cd 1.606084(19) 0.109392(17) 0.955970(10)
Cd3 Cd 1.80770(2) 0.519680(19) 0.983762(11)
O1 O 1.6224(3) 0.4681(2) 1.03468(14)
O2 O 0.4450(2) 0.75766(19) 0.96633(11)
O3 O 0.5319(3) 0.91742(18) 0.94639(12)
O4 O 0.6824(3) 0.5343(2) 0.89228(15)
O5 O 0.7190(3) 0.6964(2) 0.95413(13)
O6 O 0.3836(2) 0.10086(18) 0.60841(11)
O7 O 0.4853(2) 0.1264(2) 0.52497(12)
O8 O 1.7256(2) 0.17049(18) 0.88145(11)
O9 O 1.7808(2) 0.33214(18) 0.94774(11)
O10 O 2.0063(2) 0.5300(2) 0.93362(12)
O11 O 2.0922(2) 0.3762(2) 0.92130(12)
O12 O 2.3069(2) 0.7390(2) 0.55274(12)
O13 O 2.2552(3) 0.8579(2) 0.63118(13)
O14 O 0.5264(4) 0.6205(2) 0.67242(12)
O15 O 1.8973(3) 0.4189(2) 0.66572(12)
N1 N 1.4336(3) 0.1245(2) 0.88054(12)
N2 N 0.7823(3) 0.0673(2) 0.52192(14)
N3 N 0.4170(3) 0.0751(2) 0.37126(13)
N4 N -0.2075(3) 0.0896(2) 0.01944(13)
C1 C 0.5932(4) 0.6263(3) 0.78635(16)
H1 H 0.6437 0.5700 0.7771
C2 C 0.5908(3) 0.6756(2) 0.85060(15)
C3 C 0.5152(3) 0.7607(2) 0.86357(14)
C4 C 0.4449(4) 0.7952(3) 0.81229(16)
H2 H 0.3952 0.8523 0.8208
C5 C 0.4471(4) 0.7466(3) 0.74913(17)
H3 H 0.3997 0.7708 0.7153
C6 C 0.5201(4) 0.6621(3) 0.73691(16)
C7 C 0.5011(4) 0.5082(3) 0.65067(16)
C8 C 0.5499(5) 0.4703(3) 0.59472(17)
H4 H 0.5971 0.5200 0.5740
C9 C 0.5296(4) 0.3592(3) 0.56909(15)
H5 H 0.5639 0.3341 0.5315
C10 C 0.4582(3) 0.2851(2) 0.59922(14)
C11 C 0.4074(4) 0.3247(3) 0.65550(16)
H6 H 0.3597 0.2753 0.6762
C12 C 0.4267(4) 0.4363(3) 0.68098(17)
H7 H 0.3903 0.4624 0.7178
C13 C 0.5006(3) 0.8155(2) 0.93043(14)
C14 C 0.6701(3) 0.6345(3) 0.90383(16)
C15 C 0.4418(3) 0.1635(2) 0.57564(15)
C16 C 1.7528(3) 0.3295(3) 0.72305(16)
H8 H 1.6940 0.3094 0.6847
C17 C 1.8716(3) 0.3989(3) 0.72604(15)
C18 C 1.9574(3) 0.4336(3) 0.78287(15)
H9 H 2.0358 0.4816 0.7842
C19 C 1.9244(3) 0.3952(2) 0.83894(14)
C20 C 1.8085(3) 0.3207(2) 0.83599(14)
C21 C 1.7239(3) 0.2910(3) 0.77794(15)
H10 H 1.6449 0.2435 0.7761
C22 C 2.1412(4) 0.5644(3) 0.58658(19)
H11 H 2.1876 0.5483 0.5517
C23 C 2.1565(3) 0.6709(3) 0.61999(15)
C24 C 2.0881(4) 0.6937(3) 0.67249(18)
H12 H 2.0993 0.7653 0.6958
C25 C 2.0030(4) 0.6107(3) 0.69073(19)
H13 H 1.9565 0.6261 0.7257
C26 C 1.9893(4) 0.5055(3) 0.65580(16)
C27 C 2.0575(5) 0.4810(3) 0.6042(2)
H14 H 2.0474 0.4092 0.5814
C28 C 1.7700(3) 0.2728(2) 0.89320(14)
C29 C 2.0142(3) 0.4366(3) 0.90242(15)
C30 C 2.2450(3) 0.7623(3) 0.59985(15)
C31 C 1.3376(4) 0.1856(3) 0.89215(16)
H15 H 1.3382 0.2229 0.9341
C32 C 1.2383(4) 0.1960(3) 0.84523(17)
H16 H 1.1742 0.2402 0.8557
C33 C 1.2329(3) 0.1412(3) 0.78222(16)
C34 C 1.3337(3) 0.0781(3) 0.77006(16)
H17 H 1.3354 0.0395 0.7287
C35 C 1.4301(3) 0.0738(3) 0.81969(16)
H18 H 1.4977 0.0327 0.8103
C36 C 0.9330(4) 0.1621(3) 0.61412(19)
H19 H 0.9638 0.2277 0.6430
C37 C 0.9878(3) 0.0674(3) 0.62114(16)
C38 C 0.9364(3) -0.0268(3) 0.57624(17)
H20 H 0.9703 -0.0923 0.5786
C39 C 0.8355(3) -0.0237(3) 0.52826(18)
H21 H 0.8026 -0.0882 0.4987
C40 C 0.8328(4) 0.1586(3) 0.56435(19)
H22 H 0.7985 0.2233 0.5601
C41 C 1.1227(3) 0.1519(3) 0.73092(17)
H23 H 1.0402 0.1507 0.7496
H24 H 1.1420 0.2232 0.7180
C42 C 1.1023(3) 0.0643(3) 0.67208(17)
H25 H 1.0894 -0.0069 0.6857
H26 H 1.1834 0.0688 0.6523
C43 C 0.3740(4) -0.0065(3) 0.32108(17)
H27 H 0.4127 -0.0706 0.3188
C44 C 0.2742(4) -0.0004(3) 0.27212(19)
H28 H 0.2480 -0.0594 0.2380
C45 C 0.2140(4) 0.0927(3) 0.27383(17)
C46 C 0.2570(4) 0.1761(3) 0.32652(18)
H29 H 0.2181 0.2402 0.3303
C47 C 0.3570(4) 0.1653(3) 0.37351(17)
H30 H 0.3840 0.2230 0.4083
C48 C -0.0152(4) 0.1811(3) 0.09310(19)
H31 H 0.0371 0.2472 0.1135
C49 C -0.1278(4) 0.1826(3) 0.05046(19)
H32 H -0.1494 0.2503 0.0429
C50 C -0.1721(3) -0.0067(3) 0.03047(17)
H33 H -0.2247 -0.0717 0.0087
C51 C -0.0611(4) -0.0141(3) 0.07257(18)
H34 H -0.0407 -0.0828 0.0789
C52 C 0.0197(3) 0.0817(4) 0.10543(17)
C53 C 0.1051(4) 0.1010(4) 0.22156(19)
H35 H 0.0273 0.0494 0.2247
H36 H 0.0814 0.1747 0.2297
C54 C 0.1377(4) 0.0784(4) 0.15423(18)
H37 H 0.1658 0.0063 0.1461
H38 H 0.2110 0.1331 0.1494
Cd1A Cd 0.392999(19) -0.073106(17) 0.556866(10)
Cd1A_2 Cd 2.392999(19) 0.926894(17) 0.556866(10)
Cd2_2 Cd -0.393916(19) 0.109392(17) -0.044030(10)
Cd2_3 Cd 0.606084(19) 1.109392(17) 0.955970(10)
Cd2A Cd 0.393916(19) 0.890608(17) 1.044030(10)
Cd3_2 Cd 0.80770(2) 0.519680(19) 0.983762(11)
Cd3A Cd 2.19230(2) 0.480320(19) 1.016238(11)
O2A O 1.5550(2) 0.24234(19) 1.03367(11)
O3_2 O 1.5319(3) -0.08258(18) 0.94639(12)
O3A O 1.4681(3) 0.08258(18) 1.05361(12)
O4_2 O 1.6824(3) 0.5343(2) 0.89228(15)
O5_2 O 1.7190(3) 0.6964(2) 0.95413(13)
O6A O 0.6164(2) -0.10086(18) 0.39159(11)
O7A O 0.5147(2) -0.1264(2) 0.47503(12)
O10A O 1.9937(2) 0.4700(2) 1.06638(12)
O11A O 1.9078(2) 0.6238(2) 1.07870(12)
O12A O 0.6931(2) 0.2610(2) 0.44726(12)
O13A O 0.7448(3) 0.1421(2) 0.36882(13)
N4_2 N 1.7925(3) 0.0896(2) 1.01944(13)
O16 O 0.5714(9) 0.5819(6) 0.1534(4)
loop_
_geom_bond_atom_site_label_1
_geom_bond_atom_site_label_2
_geom_bond_site_symmetry_1
_geom_bond_site_symmetry_2
Cd1 O7 1_555 1_555
Cd2 O8 1_555 1_555
Cd3 O1 1_555 1_555
O2 C13 1_555 1_555
O3 C13 1_555 1_555
O4 C14 1_555 1_555
O5 C14 1_555 1_555
O6 C15 1_555 1_555
O7 C15 1_555 1_555
O8 C28 1_555 1_555
O9 Cd3 1_555 1_555
O10 Cd3 1_555 1_555
O11 C29 1_555 1_555
O12 C30 1_555 1_555
O13 C30 1_555 1_555
O14 C6 1_555 1_555
O15 C17 1_555 1_555
N1 Cd2 1_555 1_555
N2 Cd1 1_555 1_555
N3 Cd1 1_555 1_555
N4 C49 1_555 1_555
C1 H1 1_555 1_555
C2 C1 1_555 1_555
C3 C2 1_555 1_555
C4 C3 1_555 1_555
H2 C4 1_555 1_555
C5 C4 1_555 1_555
H3 C5 1_555 1_555
C6 C1 1_555 1_555
C7 O14 1_555 1_555
C8 C7 1_555 1_555
H4 C8 1_555 1_555
C9 C8 1_555 1_555
H5 C9 1_555 1_555
C10 C9 1_555 1_555
C11 C10 1_555 1_555
H6 C11 1_555 1_555
C12 C7 1_555 1_555
H7 C12 1_555 1_555
C13 C3 1_555 1_555
C14 C2 1_555 1_555
C15 C10 1_555 1_555
C16 H8 1_555 1_555
C17 C16 1_555 1_555
C18 C17 1_555 1_555
H9 C18 1_555 1_555
C19 C18 1_555 1_555
C20 C19 1_555 1_555
C21 C16 1_555 1_555
H10 C21 1_555 1_555
C22 H11 1_555 1_555
C23 C22 1_555 1_555
C24 C23 1_555 1_555
H12 C24 1_555 1_555
C25 C24 1_555 1_555
H13 C25 1_555 1_555
C26 O15 1_555 1_555
C27 C22 1_555 1_555
H14 C27 1_555 1_555
C28 O9 1_555 1_555
C29 O10 1_555 1_555
C30 C23 1_555 1_555
C31 N1 1_555 1_555
H15 C31 1_555 1_555
C32 C31 1_555 1_555
H16 C32 1_555 1_555
C33 C32 1_555 1_555
C34 C33 1_555 1_555
H17 C34 1_555 1_555
C35 N1 1_555 1_555
H18 C35 1_555 1_555
C36 H19 1_555 1_555
C37 C36 1_555 1_555
C38 C37 1_555 1_555
H20 C38 1_555 1_555
C39 N2 1_555 1_555
H21 C39 1_555 1_555
C40 N2 1_555 1_555
H22 C40 1_555 1_555
C41 C33 1_555 1_555
H23 C41 1_555 1_555
H24 C41 1_555 1_555
C42 C37 1_555 1_555
H25 C42 1_555 1_555
H26 C42 1_555 1_555
C43 N3 1_555 1_555
H27 C43 1_555 1_555
C44 C43 1_555 1_555
H28 C44 1_555 1_555
C45 C44 1_555 1_555
C46 C45 1_555 1_555
H29 C46 1_555 1_555
C47 N3 1_555 1_555
H30 C47 1_555 1_555
C48 H31 1_555 1_555
C49 C48 1_555 1_555
H32 C49 1_555 1_555
C50 N4 1_555 1_555
H33 C50 1_555 1_555
C51 C50 1_555 1_555
H34 C51 1_555 1_555
C52 C48 1_555 1_555
C53 C45 1_555 1_555
H35 C53 1_555 1_555
H36 C53 1_555 1_555
C54 C52 1_555 1_555
H37 C54 1_555 1_555
H38 C54 1_555 1_555
Cd1A O6 1_555 1_555
Cd1A_2 O12 1_555 1_555
Cd2_2 N4 1_555 1_555
Cd2_3 O3 1_555 1_555
Cd2A O2 1_555 1_555
Cd3_2 O4 1_555 1_555
Cd3A O10 1_555 1_555
O2A Cd2 1_555 1_555
O3_2 Cd2 1_555 1_555
O3A Cd2 1_555 1_555
O4_2 Cd3 1_555 1_555
O5_2 Cd3 1_555 1_555
O6A Cd1 1_555 1_555
O7A Cd1 1_555 1_555
O10A Cd3 1_555 1_555
O11A Cd3 1_555 1_555
O12A Cd1 1_555 1_555
O13A Cd1 1_555 1_555
N4_2 Cd2 1_555 1_555
O3 Cd2A 1_555 1_555
O5 Cd3_2 1_555 1_555
O7 Cd1A 1_555 1_555
O11 Cd3A 1_555 1_555
O13 Cd1A_2 1_555 1_555
C5 C6 1_555 1_555
C11 C12 1_555 1_555
C19 C29 1_555 1_555
C20 C21 1_555 1_555
C20 C28 1_555 1_555
C25 C26 1_555 1_555
C26 C27 1_555 1_555
C34 C35 1_555 1_555
C36 C40 1_555 1_555
C38 C39 1_555 1_555
C41 C42 1_555 1_555
C46 C47 1_555 1_555
C51 C52 1_555 1_555
C53 C54 1_555 1_555
Cd1A O7A 1_555 1_555
Cd3A O10A 1_555 1_555

#END
