
#######################################################################
#
#                 Cambridge Crystallographic Data Centre
#                                CCDC 
#
#######################################################################
#
# If this CIF has been generated from an entry in the Cambridge 
# Structural Database, then it will include bibliographic, chemical, 
# crystal, experimental, refinement or atomic coordinate data resulting 
# from the CCDC's data processing and validation procedures.
#
#######################################################################

data_KOZFEM
_symmetry_cell_setting           monoclinic
_symmetry_space_group_name_H-M   'C 2/c'
_symmetry_Int_Tables_number      15
_space_group_name_Hall           '-C 2yn'
loop_
_symmetry_equiv_pos_site_id
_symmetry_equiv_pos_as_xyz
1 x,y,z
2 -x,y,1/2-z
3 1/2+x,1/2+y,z
4 1/2-x,1/2+y,1/2-z
5 -x,-y,-z
6 x,-y,1/2+z
7 1/2-x,1/2-y,-z
8 1/2+x,1/2-y,1/2+z
_cell_length_a                   27.657(13)
_cell_length_b                   11.556(5)
_cell_length_c                   13.202(6)
_cell_angle_alpha                90
_cell_angle_beta                 102.620(5)
_cell_angle_gamma                90
_cell_volume                     4117.48
loop_
_atom_site_label
_atom_site_type_symbol
_atom_site_fract_x
_atom_site_fract_y
_atom_site_fract_z
Fe1 Fe 0.126549(10) 0.16391(3) -0.19834(2)
Fe2 Fe 0.0000 0.0000 -0.5000
N1 N 0.19981(7) 0.31118(19) -0.26112(17)
N2 N 0.18101(6) 0.20143(18) -0.26851(15)
N3 N 0.12181(8) 0.40909(18) -0.24887(18)
N4 N 0.09459(7) 0.30952(17) -0.25654(16)
N5 N 0.18290(8) 0.3547(2) -0.08894(19)
N6 N 0.16119(7) 0.25134(18) -0.07534(16)
N7 N 0.06519(7) 0.0378(2) -0.38619(17)
N8 N 0.04408(7) 0.09199(19) -0.08926(16)
N9 N 0.17374(9) -0.0639(2) -0.1076(2)
C1 C 0.23463(9) 0.3177(3) -0.3182(2)
H1 H 0.2530 0.3833 -0.3258
C2 C 0.23867(10) 0.2133(3) -0.3626(2)
H2 H 0.2600 0.1933 -0.4053
C3 C 0.20419(9) 0.1426(3) -0.3306(2)
H3 H 0.1982 0.0656 -0.3497
C4 C 0.09275(12) 0.4949(3) -0.2964(3)
H4 H 0.1024 0.5713 -0.3016
C5 C 0.04663(11) 0.4513(3) -0.3356(3)
H5 H 0.0191 0.4913 -0.3722
C6 C 0.04929(9) 0.3357(2) -0.3098(2)
H6 H 0.0232 0.2835 -0.3271
C7 C 0.20582(11) 0.3961(3) 0.0045(3)
H7 H 0.2237 0.4648 0.0164
C8 C 0.19853(13) 0.3207(3) 0.0783(3)
H8 H 0.2101 0.3278 0.1497
C9 C 0.17046(10) 0.2310(3) 0.0263(2)
H9 H 0.1597 0.1666 0.0575
C10 C 0.09041(8) 0.0811(2) -0.31609(19)
C11 C 0.07398(8) 0.1220(2) -0.13116(18)
C12 C 0.15686(8) 0.0215(2) -0.1427(2)
C13 C 0.02602(16) -0.2333(4) -0.3776(5)
H10 H 0.0110 -0.2972 -0.3496
H11 H 0.0490 -0.1950 -0.3227
H12 H 0.0433 -0.2612 -0.4284
B1 B 0.17764(11) 0.4016(3) -0.1993(3)
H13 H 0.1957(10) 0.481(2) -0.203(2)
O1 O -0.01044(7) -0.15581(16) -0.42399(17)
H14 H -0.0429 -0.1744 -0.4213
Fe1A Fe -0.126549(10) 0.16391(3) -0.30166(2)
N1A N -0.19981(7) 0.31118(19) -0.23888(17)
N2A N -0.18101(6) 0.20143(18) -0.23149(15)
N3A N -0.12181(8) 0.40909(18) -0.25113(18)
N4A N -0.09459(7) 0.30952(17) -0.24346(16)
N5A N -0.18290(8) 0.3547(2) -0.41106(19)
N6A N -0.16119(7) 0.25134(18) -0.42466(16)
N7A N -0.06519(7) 0.0378(2) -0.11381(17)
N8A N -0.04408(7) 0.09199(19) -0.41074(16)
N9A N -0.17374(9) -0.0639(2) -0.3924(2)
C1A C -0.23463(9) 0.3177(3) -0.1818(2)
H1A H -0.2530 0.3833 -0.1742
C2A C -0.23867(10) 0.2133(3) -0.1374(2)
H2A H -0.2600 0.1933 -0.0947
C3A C -0.20419(9) 0.1426(3) -0.1694(2)
H3A H -0.1982 0.0656 -0.1503
C4A C -0.09275(12) 0.4949(3) -0.2036(3)
H4A H -0.1024 0.5713 -0.1984
C5A C -0.04663(11) 0.4513(3) -0.1644(3)
H5A H -0.0191 0.4913 -0.1278
C6A C -0.04929(9) 0.3357(2) -0.1902(2)
H6A H -0.0232 0.2835 -0.1729
C7A C -0.20582(11) 0.3961(3) -0.5045(3)
H7A H -0.2237 0.4648 -0.5164
C8A C -0.19853(13) 0.3207(3) -0.5783(3)
H8A H -0.2101 0.3278 -0.6497
C9A C -0.17046(10) 0.2310(3) -0.5263(2)
H9A H -0.1597 0.1666 -0.5575
C10A C -0.09041(8) 0.0811(2) -0.18391(19)
C11A C -0.07398(8) 0.1220(2) -0.36884(18)
C12A C -0.15686(8) 0.0215(2) -0.3573(2)
B1A B -0.17764(11) 0.4016(3) -0.3007(3)
H13A H -0.1957(10) 0.481(2) -0.297(2)
C13D C -0.02602(16) 0.2333(4) -0.6224(5)
H10D H -0.0110 0.2972 -0.6504
H11D H -0.0490 0.1950 -0.6773
H12D H -0.0433 0.2612 -0.5716
O1D O 0.01044(7) 0.15581(16) -0.57601(17)
H14D H 0.0429 0.1744 -0.5787
Fe2A Fe 0.0000 0.0000 0.0000
N7D N -0.06519(7) -0.0378(2) -0.61381(17)
N8E N 0.04408(7) -0.09199(19) -0.58926(16)
C14 C -0.11837(16) -0.3286(4) -0.4609(4)
H15 H -0.1514 -0.3439 -0.4522
H16 H -0.1195 -0.3080 -0.5318
H17 H -0.0984 -0.3966 -0.4432
O2 O -0.09742(8) -0.2379(2) -0.3971(2)
H18 H -0.1195 -0.2175 -0.3650
loop_
_geom_bond_atom_site_label_1
_geom_bond_atom_site_label_2
_geom_bond_site_symmetry_1
_geom_bond_site_symmetry_2
Fe1 N2 1_555 1_555
Fe2 N7 1_555 1_555
N1 N2 1_555 1_555
N2 C3 1_555 1_555
N3 N4 1_555 1_555
N4 Fe1 1_555 1_555
N5 N6 1_555 1_555
N6 Fe1 1_555 1_555
N7 C10 1_555 1_555
N8 C11 1_555 1_555
N9 C12 1_555 1_555
C1 N1 1_555 1_555
H1 C1 1_555 1_555
C2 C1 1_555 1_555
H2 C2 1_555 1_555
C3 C2 1_555 1_555
H3 C3 1_555 1_555
C4 N3 1_555 1_555
H4 C4 1_555 1_555
C5 C4 1_555 1_555
H5 C5 1_555 1_555
C6 N4 1_555 1_555
H6 C6 1_555 1_555
C7 N5 1_555 1_555
H7 C7 1_555 1_555
C8 C7 1_555 1_555
H8 C8 1_555 1_555
C9 N6 1_555 1_555
H9 C9 1_555 1_555
C10 Fe1 1_555 1_555
C11 Fe1 1_555 1_555
C12 Fe1 1_555 1_555
C13 H10 1_555 1_555
H11 C13 1_555 1_555
H12 C13 1_555 1_555
B1 N1 1_555 1_555
H13 B1 1_555 1_555
O1 Fe2 1_555 1_555
H14 O1 1_555 1_555
C14 H15 1_555 1_555
H16 C14 1_555 1_555
H17 C14 1_555 1_555
O2 C14 1_555 1_555
H18 O2 1_555 1_555
Fe1A N2A 1_555 1_555
N1A N2A 1_555 1_555
N2A C3A 1_555 1_555
N3A N4A 1_555 1_555
N4A Fe1A 1_555 1_555
N5A N6A 1_555 1_555
N6A Fe1A 1_555 1_555
N7A C10A 1_555 1_555
N8A Fe2 1_555 1_555
N9A C12A 1_555 1_555
C1A N1A 1_555 1_555
H1A C1A 1_555 1_555
C2A C1A 1_555 1_555
H2A C2A 1_555 1_555
C3A C2A 1_555 1_555
H3A C3A 1_555 1_555
C4A N3A 1_555 1_555
H4A C4A 1_555 1_555
C5A C4A 1_555 1_555
H5A C5A 1_555 1_555
C6A N4A 1_555 1_555
H6A C6A 1_555 1_555
C7A N5A 1_555 1_555
H7A C7A 1_555 1_555
C8A C7A 1_555 1_555
H8A C8A 1_555 1_555
C9A N6A 1_555 1_555
H9A C9A 1_555 1_555
C10A Fe1A 1_555 1_555
C11A Fe1A 1_555 1_555
C12A Fe1A 1_555 1_555
B1A N1A 1_555 1_555
H13A B1A 1_555 1_555
C13D H10D 1_555 1_555
H11D C13D 1_555 1_555
H12D C13D 1_555 1_555
O1D Fe2 1_555 1_555
H14D O1D 1_555 1_555
Fe2A N8 1_555 1_555
N7D Fe2 1_555 1_555
N8E Fe2 1_555 1_555
N3 B1 1_555 1_555
N5 B1 1_555 1_555
C5 C6 1_555 1_555
C8 C9 1_555 1_555
C13 O1 1_555 1_555
N3A B1A 1_555 1_555
N5A B1A 1_555 1_555
N7A Fe2A 1_555 1_555
N8A C11A 1_555 1_555
C5A C6A 1_555 1_555
C8A C9A 1_555 1_555
C13D O1D 1_555 1_555

#END
