
#######################################################################
#
#                 Cambridge Crystallographic Data Centre
#                                CCDC 
#
#######################################################################
#
# If this CIF has been generated from an entry in the Cambridge 
# Structural Database, then it will include bibliographic, chemical, 
# crystal, experimental, refinement or atomic coordinate data resulting 
# from the CCDC's data processing and validation procedures.
#
#######################################################################

data_KOZFIQ
_symmetry_cell_setting           monoclinic
_symmetry_space_group_name_H-M   'C 2/c'
_symmetry_Int_Tables_number      15
_space_group_name_Hall           '-C 2yn'
loop_
_symmetry_equiv_pos_site_id
_symmetry_equiv_pos_as_xyz
1 x,y,z
2 -x,y,1/2-z
3 1/2+x,1/2+y,z
4 1/2-x,1/2+y,1/2-z
5 -x,-y,-z
6 x,-y,1/2+z
7 1/2-x,1/2-y,-z
8 1/2+x,1/2-y,1/2+z
_cell_length_a                   14.7780(2)
_cell_length_b                   14.7831(2)
_cell_length_c                   25.8039(4)
_cell_angle_alpha                90
_cell_angle_beta                 91.9720(5)
_cell_angle_gamma                90
_cell_volume                     5633.9
loop_
_atom_site_label
_atom_site_type_symbol
_atom_site_fract_x
_atom_site_fract_y
_atom_site_fract_z
Cu1 Cu 0.0000 0.0000 0.0000
Cu2 Cu 0.2500 0.2500 0.0000
I1 I 0.16472(5) -0.12666(5) 0.18996(2)
I2 I 0.14797(4) 0.40005(5) 0.19628(2)
N1 N -0.0243(3) 0.0576(3) 0.06827(18)
C1 C -0.0511(4) 0.0093(4) 0.1073(2)
H1 H -0.0595 -0.0524 0.1022
C2 C -0.0680(4) 0.0449(5) 0.1561(3)
C3 C -0.0536(6) 0.1359(6) 0.1616(3)
H2 H -0.0626 0.1630 0.1936
C4 C -0.0265(6) 0.1874(6) 0.1216(3)
H3 H -0.0188 0.2495 0.1255
C5 C -0.0106(4) 0.1463(4) 0.0755(3)
H4 H 0.0104 0.1809 0.0483
C6 C -0.0997(7) -0.0139(9) 0.1970(4)
H5 H -0.0698 0.0020 0.2294
H6 H -0.0863 -0.0757 0.1888
H7 H -0.1639 -0.0068 0.1999
O1 O 0.0571(3) -0.1053(3) 0.03397(17)
O2 O 0.1776(3) -0.0384(3) 0.0714(2)
C7 C 0.1301(3) -0.1055(4) 0.0606(2)
C8 C 0.1591(3) -0.1976(3) 0.0799(2)
C9 C 0.1809(4) -0.2195(4) 0.1297(2)
C10 C 0.2077(5) -0.3064(5) 0.1447(3)
H8 H 0.2213 -0.3196 0.1793
C11 C 0.2137(6) -0.3717(5) 0.1077(4)
H9 H 0.2323 -0.4297 0.1172
C12 C 0.1934(7) -0.3533(5) 0.0583(4)
H10 H 0.1983 -0.3985 0.0335
C13 C 0.1650(5) -0.2678(5) 0.0432(3)
H11 H 0.1496 -0.2566 0.0085
N2 N 0.1912(3) 0.2819(3) -0.06905(17)
C14 C 0.2405(4) 0.3120(4) -0.1077(2)
H12 H 0.3020 0.3222 -0.1012
C15 C 0.2049(5) 0.3285(4) -0.1566(3)
C16 C 0.1158(6) 0.3125(6) -0.1650(3)
H13 H 0.0897 0.3219 -0.1979
C17 C 0.0635(5) 0.2825(7) -0.1259(4)
H14 H 0.0018 0.2724 -0.1318
C18 C 0.1027(4) 0.2676(4) -0.0784(3)
H15 H 0.0673 0.2470 -0.0518
C19 C 0.2657(8) 0.3644(7) -0.1977(4)
H16 H 0.3165 0.3949 -0.1815
H17 H 0.2324 0.4060 -0.2196
H18 H 0.2869 0.3150 -0.2182
O3 O 0.1492(2) 0.3084(3) 0.03453(15)
O4 O 0.2250(3) 0.4151(3) 0.0775(2)
C20 C 0.1551(3) 0.3745(3) 0.0645(2)
C21 C 0.0657(3) 0.4053(3) 0.0859(2)
C22 C 0.0505(4) 0.4236(4) 0.1367(3)
C23 C -0.0359(5) 0.4484(5) 0.1531(3)
H19 H -0.0463 0.4567 0.1881
C24 C -0.1045(5) 0.4602(6) 0.1164(4)
H20 H -0.1614 0.4790 0.1265
C25 C -0.0900(5) 0.4450(7) 0.0666(4)
H21 H -0.1373 0.4534 0.0424
C26 C -0.0062(5) 0.4168(5) 0.0497(3)
H22 H 0.0020 0.4057 0.0147
O5 O 0.1519(3) 0.0968(3) -0.00043(17)
H23 H 0.168(5) 0.054(4) 0.020(3)
H24 H 0.186(4) 0.083(5) -0.025(2)
I1D I -0.16472(5) 0.12666(5) -0.18996(2)
N1D N 0.0243(3) -0.0576(3) -0.06827(18)
C1D C 0.0511(4) -0.0093(4) -0.1073(2)
H1D H 0.0595 0.0524 -0.1022
C2D C 0.0680(4) -0.0449(5) -0.1561(3)
C3D C 0.0536(6) -0.1359(6) -0.1616(3)
H2D H 0.0626 -0.1630 -0.1936
C4D C 0.0265(6) -0.1874(6) -0.1216(3)
H3D H 0.0188 -0.2495 -0.1255
C5D C 0.0106(4) -0.1463(4) -0.0755(3)
H4D H -0.0104 -0.1809 -0.0483
C6D C 0.0997(7) 0.0139(9) -0.1970(4)
H5D H 0.0698 -0.0020 -0.2294
H6D H 0.0863 0.0757 -0.1888
H7D H 0.1639 0.0068 -0.1999
O1D O -0.0571(3) 0.1053(3) -0.03397(17)
O2D O -0.1776(3) 0.0384(3) -0.0714(2)
C7D C -0.1301(3) 0.1055(4) -0.0606(2)
C8D C -0.1591(3) 0.1976(3) -0.0799(2)
C9D C -0.1809(4) 0.2195(4) -0.1297(2)
C10D C -0.2077(5) 0.3064(5) -0.1447(3)
H8D H -0.2213 0.3196 -0.1793
C11D C -0.2137(6) 0.3717(5) -0.1077(4)
H9D H -0.2323 0.4297 -0.1172
C12D C -0.1934(7) 0.3533(5) -0.0583(4)
H10D H -0.1983 0.3985 -0.0335
C13D C -0.1650(5) 0.2678(5) -0.0432(3)
H11D H -0.1496 0.2566 -0.0085
O5D O -0.1519(3) -0.0968(3) 0.00043(17)
H23D H -0.168(5) -0.054(4) -0.020(3)
H24D H -0.186(4) -0.083(5) 0.025(2)
I2F I 0.35203(4) 0.09995(5) -0.19628(2)
O3F O 0.3508(2) 0.1916(3) -0.03453(15)
O4F O 0.2750(3) 0.0849(3) -0.0775(2)
C20F C 0.3449(3) 0.1255(3) -0.0645(2)
C21F C 0.4343(3) 0.0947(3) -0.0859(2)
C22F C 0.4495(4) 0.0764(4) -0.1367(3)
C23F C 0.5359(5) 0.0516(5) -0.1531(3)
H19F H 0.5463 0.0433 -0.1881
C24F C 0.6045(5) 0.0398(6) -0.1164(4)
H20F H 0.6614 0.0210 -0.1265
C25F C 0.5900(5) 0.0550(7) -0.0666(4)
H21F H 0.6373 0.0466 -0.0424
C26F C 0.5062(5) 0.0832(5) -0.0497(3)
H22F H 0.4980 0.0943 -0.0147
N2F N 0.3088(3) 0.2181(3) 0.06905(17)
C14F C 0.2595(4) 0.1880(4) 0.1077(2)
H12F H 0.1980 0.1778 0.1012
C15F C 0.2951(5) 0.1715(4) 0.1566(3)
C16F C 0.3842(6) 0.1875(6) 0.1650(3)
H13F H 0.4103 0.1781 0.1979
C17F C 0.4365(5) 0.2175(7) 0.1259(4)
H14F H 0.4982 0.2276 0.1318
C18F C 0.3973(4) 0.2324(4) 0.0784(3)
H15F H 0.4327 0.2530 0.0518
C19F C 0.2343(8) 0.1356(7) 0.1977(4)
H16F H 0.1835 0.1051 0.1815
H17F H 0.2676 0.0940 0.2196
H18F H 0.2131 0.1850 0.2182
Cu2B Cu -0.2500 -0.2500 0.0000
O5F O 0.3481(3) 0.4032(3) 0.00043(17)
loop_
_geom_bond_atom_site_label_1
_geom_bond_atom_site_label_2
_geom_bond_site_symmetry_1
_geom_bond_site_symmetry_2
Cu1 N1 1_555 1_555
Cu2 N2 1_555 1_555
I1 C9 1_555 1_555
I2 C22 1_555 1_555
N1 C1 1_555 1_555
C1 H1 1_555 1_555
C2 C1 1_555 1_555
C3 C2 1_555 1_555
H2 C3 1_555 1_555
C4 C3 1_555 1_555
H3 C4 1_555 1_555
C5 N1 1_555 1_555
H4 C5 1_555 1_555
C6 C2 1_555 1_555
H5 C6 1_555 1_555
H6 C6 1_555 1_555
H7 C6 1_555 1_555
O1 Cu1 1_555 1_555
O2 C7 1_555 1_555
C7 O1 1_555 1_555
C8 C7 1_555 1_555
C9 C8 1_555 1_555
C10 C9 1_555 1_555
H8 C10 1_555 1_555
C11 C10 1_555 1_555
H9 C11 1_555 1_555
C12 C11 1_555 1_555
H10 C12 1_555 1_555
C13 C8 1_555 1_555
H11 C13 1_555 1_555
N2 C14 1_555 1_555
C14 H12 1_555 1_555
C15 C14 1_555 1_555
C16 C15 1_555 1_555
H13 C16 1_555 1_555
C17 C16 1_555 1_555
H14 C17 1_555 1_555
C18 N2 1_555 1_555
H15 C18 1_555 1_555
C19 C15 1_555 1_555
H16 C19 1_555 1_555
H17 C19 1_555 1_555
H18 C19 1_555 1_555
O3 Cu2 1_555 1_555
O4 C20 1_555 1_555
C20 O3 1_555 1_555
C21 C20 1_555 1_555
C22 C21 1_555 1_555
C23 C22 1_555 1_555
H19 C23 1_555 1_555
C24 C23 1_555 1_555
H20 C24 1_555 1_555
C25 C24 1_555 1_555
H21 C25 1_555 1_555
C26 C21 1_555 1_555
H22 C26 1_555 1_555
O5 Cu1 1_555 1_555
H23 O5 1_555 1_555
H24 O5 1_555 1_555
I1D C9D 1_555 1_555
N1D Cu1 1_555 1_555
C1D N1D 1_555 1_555
H1D C1D 1_555 1_555
C2D C1D 1_555 1_555
C3D C2D 1_555 1_555
H2D C3D 1_555 1_555
C4D C3D 1_555 1_555
H3D C4D 1_555 1_555
C5D N1D 1_555 1_555
H4D C5D 1_555 1_555
C6D C2D 1_555 1_555
H5D C6D 1_555 1_555
H6D C6D 1_555 1_555
H7D C6D 1_555 1_555
O1D Cu1 1_555 1_555
O2D C7D 1_555 1_555
C7D O1D 1_555 1_555
C8D C7D 1_555 1_555
C9D C8D 1_555 1_555
C10D C9D 1_555 1_555
H8D C10D 1_555 1_555
C11D C10D 1_555 1_555
H9D C11D 1_555 1_555
C12D C11D 1_555 1_555
H10D C12D 1_555 1_555
C13D C8D 1_555 1_555
H11D C13D 1_555 1_555
O5D Cu1 1_555 1_555
H23D O5D 1_555 1_555
H24D O5D 1_555 1_555
I2F C22F 1_555 1_555
O3F Cu2 1_555 1_555
O4F C20F 1_555 1_555
C20F O3F 1_555 1_555
C21F C20F 1_555 1_555
C22F C21F 1_555 1_555
C23F C22F 1_555 1_555
H19F C23F 1_555 1_555
C24F C23F 1_555 1_555
H20F C24F 1_555 1_555
C25F C24F 1_555 1_555
H21F C25F 1_555 1_555
C26F C21F 1_555 1_555
H22F C26F 1_555 1_555
N2F Cu2 1_555 1_555
C14F N2F 1_555 1_555
H12F C14F 1_555 1_555
C15F C14F 1_555 1_555
C16F C15F 1_555 1_555
H13F C16F 1_555 1_555
C17F C16F 1_555 1_555
H14F C17F 1_555 1_555
C18F N2F 1_555 1_555
H15F C18F 1_555 1_555
C19F C15F 1_555 1_555
H16F C19F 1_555 1_555
H17F C19F 1_555 1_555
H18F C19F 1_555 1_555
Cu2B O5D 1_555 1_555
O5F Cu2 1_555 1_555
Cu2 O5 1_555 1_555
C4 C5 1_555 1_555
C12 C13 1_555 1_555
C17 C18 1_555 1_555
C25 C26 1_555 1_555
C4D C5D 1_555 1_555
C12D C13D 1_555 1_555
C25F C26F 1_555 1_555
C17F C18F 1_555 1_555

#END
