
#######################################################################
#
#                 Cambridge Crystallographic Data Centre
#                                CCDC 
#
#######################################################################
#
# If this CIF has been generated from an entry in the Cambridge 
# Structural Database, then it will include bibliographic, chemical, 
# crystal, experimental, refinement or atomic coordinate data resulting 
# from the CCDC's data processing and validation procedures.
#
#######################################################################

data_KOZGEN
_symmetry_cell_setting           monoclinic
_symmetry_space_group_name_H-M   'P 21/c'
_symmetry_Int_Tables_number      14
_space_group_name_Hall           '-P 2ybc'
loop_
_symmetry_equiv_pos_site_id
_symmetry_equiv_pos_as_xyz
1 x,y,z
2 -x,1/2+y,1/2-z
3 -x,-y,-z
4 x,1/2-y,1/2+z
_cell_length_a                   23.527(3)
_cell_length_b                   7.9089(7)
_cell_length_c                   13.6772(13)
_cell_angle_alpha                90
_cell_angle_beta                 94.627(10)
_cell_angle_gamma                90
_cell_volume                     2536.66
loop_
_atom_site_label
_atom_site_type_symbol
_atom_site_fract_x
_atom_site_fract_y
_atom_site_fract_z
Si1 Si 0.11436(8) 0.3683(3) 0.25546(15)
Si2 Si 0.11835(9) 0.6386(3) 0.08655(16)
O1 O 0.1181(2) 0.5358(7) 0.1885(4)
N1 N 0.33001(18) 0.4109(6) 0.4030(3)
H1 H 0.3650 0.4074 0.3829
H2 H 0.3294 0.3558 0.4596
H3 H 0.3199 0.5180 0.4112
N2 N 0.32730(18) 0.8486(5) 0.2088(3)
H4 H 0.3404 0.7520 0.1860
H5 H 0.3218 0.8370 0.2720
H6 H 0.3525 0.9306 0.2016
C1 C 0.2895(2) 0.3299(7) 0.3282(4)
H7 H 0.2959 0.2088 0.3288
H8 H 0.2967 0.3719 0.2637
C2 C 0.2285(2) 0.3642(7) 0.3463(4)
H9 H 0.2215 0.4849 0.3422
H10 H 0.2218 0.3277 0.4121
C3 C 0.1866(2) 0.2726(8) 0.2721(4)
H11 H 0.1828 0.1564 0.2933
H12 H 0.2027 0.2705 0.2091
C4 C 0.0626(3) 0.2121(10) 0.1975(6)
H13 H 0.0761 0.1717 0.1374
H14 H 0.0261 0.2654 0.1839
H15 H 0.0588 0.1187 0.2414
C5 C 0.0909(3) 0.4432(10) 0.3738(6)
H16 H 0.0959 0.3546 0.4217
H17 H 0.0513 0.4742 0.3655
H18 H 0.1131 0.5397 0.3957
C6 C 0.1375(5) 0.5033(16) -0.0142(8)
H19 H 0.1403 0.5707 -0.0720
H20 H 0.1087 0.4183 -0.0270
H21 H 0.1735 0.4500 0.0034
C7 C 0.0461(3) 0.7255(12) 0.0613(7)
H22 H 0.0392 0.8093 0.1097
H23 H 0.0186 0.6361 0.0637
H24 H 0.0428 0.7763 -0.0026
C8 C 0.1719(3) 0.8070(9) 0.1054(5)
H25 H 0.1784 0.8545 0.0419
H26 H 0.1560 0.8960 0.1437
C9 C 0.2288(2) 0.7564(8) 0.1558(4)
H27 H 0.2237 0.7277 0.2235
H28 H 0.2424 0.6560 0.1242
C10 C 0.2731(2) 0.8919(7) 0.1538(4)
H29 H 0.2802 0.9145 0.0862
H30 H 0.2583 0.9947 0.1810
Cu1 Cu 0.5000 0.0000 0.0000
O2 O 0.43067(14) -0.0001(4) 0.0671(2)
O3 O 0.38843(14) 0.1428(4) 0.1806(2)
O4 O 0.43513(14) 0.4248(5) 0.3259(2)
O5 O 0.38155(15) 0.5319(4) 0.1982(3)
N3 N 0.51143(16) 0.2245(5) 0.0584(3)
C11 C 0.42594(19) 0.1263(6) 0.1237(3)
C12 C 0.47046(19) 0.2621(5) 0.1181(3)
C13 C 0.47064(19) 0.4128(6) 0.1693(3)
C14 C 0.5140(2) 0.5268(6) 0.1551(3)
H31 H 0.5143 0.6321 0.1853
C15 C 0.5569(2) 0.4837(6) 0.0957(3)
H32 H 0.5868 0.5579 0.0877
C16 C 0.5545(2) 0.3310(6) 0.0492(3)
H33 H 0.5836 0.3007 0.0103
C17 C 0.4247(2) 0.4594(6) 0.2361(3)
O2B O 0.56933(14) 0.0001(4) -0.0671(2)
O3B O 0.61157(14) -0.1428(4) -0.1806(2)
O4B O 0.56487(14) -0.4248(5) -0.3259(2)
O5B O 0.61845(15) -0.5319(4) -0.1982(3)
N3B N 0.48857(16) -0.2245(5) -0.0584(3)
C11B C 0.57406(19) -0.1263(6) -0.1237(3)
C12B C 0.52954(19) -0.2621(5) -0.1181(3)
C13B C 0.52936(19) -0.4128(6) -0.1693(3)
C14B C 0.4860(2) -0.5268(6) -0.1551(3)
H31B H 0.4857 -0.6321 -0.1853
C15B C 0.4431(2) -0.4837(6) -0.0957(3)
H32B H 0.4132 -0.5579 -0.0877
C16B C 0.4455(2) -0.3310(6) -0.0492(3)
H33B H 0.4164 -0.3007 -0.0103
C17B C 0.5753(2) -0.4594(6) -0.2361(3)
Cu1A Cu 0.5000 -0.5000 -0.5000
Cu1A_2 Cu 0.5000 0.5000 0.5000
O4A O 0.56487(14) -0.0752(5) 0.1741(2)
O4C O 0.43513(14) 0.0752(5) -0.1741(2)
O6 O 0.3189(2) 0.3576(5) 0.0348(3)
H34 H 0.3392 0.3935 0.0847
H35 H 0.3018 0.4403 0.0056
Cl1 Cl 0.29168(7) 0.80270(19) 0.42177(11)
loop_
_geom_bond_atom_site_label_1
_geom_bond_atom_site_label_2
_geom_bond_site_symmetry_1
_geom_bond_site_symmetry_2
Si1 O1 1_555 1_555
Si2 O1 1_555 1_555
N1 H1 1_555 1_555
H2 N1 1_555 1_555
H3 N1 1_555 1_555
N2 H4 1_555 1_555
H5 N2 1_555 1_555
H6 N2 1_555 1_555
C1 N1 1_555 1_555
H7 C1 1_555 1_555
H8 C1 1_555 1_555
C2 C1 1_555 1_555
H9 C2 1_555 1_555
H10 C2 1_555 1_555
C3 Si1 1_555 1_555
H11 C3 1_555 1_555
H12 C3 1_555 1_555
C4 Si1 1_555 1_555
H13 C4 1_555 1_555
H14 C4 1_555 1_555
H15 C4 1_555 1_555
C5 Si1 1_555 1_555
H16 C5 1_555 1_555
H17 C5 1_555 1_555
H18 C5 1_555 1_555
C6 Si2 1_555 1_555
H19 C6 1_555 1_555
H20 C6 1_555 1_555
H21 C6 1_555 1_555
C7 Si2 1_555 1_555
H22 C7 1_555 1_555
H23 C7 1_555 1_555
H24 C7 1_555 1_555
C8 Si2 1_555 1_555
H25 C8 1_555 1_555
H26 C8 1_555 1_555
C9 C8 1_555 1_555
H27 C9 1_555 1_555
H28 C9 1_555 1_555
C10 N2 1_555 1_555
H29 C10 1_555 1_555
H30 C10 1_555 1_555
Cu1 O2 1_555 1_555
O2 C11 1_555 1_555
O3 C11 1_555 1_555
O4 C17 1_555 1_555
O5 C17 1_555 1_555
N3 Cu1 1_555 1_555
C11 C12 1_555 1_555
C12 N3 1_555 1_555
C13 C12 1_555 1_555
C14 C13 1_555 1_555
H31 C14 1_555 1_555
C15 C14 1_555 1_555
H32 C15 1_555 1_555
C16 N3 1_555 1_555
H33 C16 1_555 1_555
C17 C13 1_555 1_555
O6 H34 1_555 1_555
H35 O6 1_555 1_555
O2B Cu1 1_555 1_555
O3B C11B 1_555 1_555
O4B C17B 1_555 1_555
O5B C17B 1_555 1_555
N3B Cu1 1_555 1_555
C11B O2B 1_555 1_555
C12B N3B 1_555 1_555
C13B C12B 1_555 1_555
C14B C13B 1_555 1_555
H31B C14B 1_555 1_555
C15B C14B 1_555 1_555
H32B C15B 1_555 1_555
C16B N3B 1_555 1_555
H33B C16B 1_555 1_555
C17B C13B 1_555 1_555
Cu1A O4B 1_555 1_555
Cu1A_2 O4 1_555 1_555
O4A Cu1 1_555 1_555
O4C Cu1 1_555 1_555
C2 C3 1_555 1_555
C9 C10 1_555 1_555
C15 C16 1_555 1_555
C11B C12B 1_555 1_555
C15B C16B 1_555 1_555

#END
