
#######################################################################
#
#                 Cambridge Crystallographic Data Centre
#                                CCDC 
#
#######################################################################
#
# If this CIF has been generated from an entry in the Cambridge 
# Structural Database, then it will include bibliographic, chemical, 
# crystal, experimental, refinement or atomic coordinate data resulting 
# from the CCDC's data processing and validation procedures.
#
#######################################################################

data_KOZKUH
_symmetry_cell_setting           monoclinic
_symmetry_space_group_name_H-M   'P 21'
_symmetry_Int_Tables_number      4
_space_group_name_Hall           'P 2yb'
loop_
_symmetry_equiv_pos_site_id
_symmetry_equiv_pos_as_xyz
1 x,y,z
2 -x,1/2+y,-z
_cell_length_a                   9.0560(10)
_cell_length_b                   7.5330(10)
_cell_length_c                   12.1700(10)
_cell_angle_alpha                90
_cell_angle_beta                 90.010(4)
_cell_angle_gamma                90
_cell_volume                     830.223
loop_
_atom_site_label
_atom_site_type_symbol
_atom_site_fract_x
_atom_site_fract_y
_atom_site_fract_z
Cu1 Cu 0.52208(4) 0.95604(5) 0.82566(2)
Cl1 Cl 0.31185(9) 0.87659(13) 0.74404(6)
O1 O 0.4815(2) 0.8183(3) 0.95780(16)
N1 N 1.2163(3) 0.9399(5) 1.0579(2)
C1 C 0.7359(3) 0.8891(4) 0.9974(2)
H1 H 0.7995 0.7931 0.9708
C2 C 0.8105(3) 0.9694(6) 1.0979(2)
H2 H 0.7739 1.0895 1.1070
H3 H 0.7799 0.9021 1.1619
N2 N 0.7115(3) 1.0119(3) 0.90461(19)
C3 C 0.9757(3) 0.9760(5) 1.0966(2)
C4 C 1.0742(3) 0.9202(4) 1.0197(2)
H4 H 1.0491 0.8751 0.9510
C5 C 1.0620(3) 1.0358(4) 1.1877(2)
N3 N 0.6261(3) 1.0660(4) 0.69956(19)
C6 C 0.8324(3) 1.0296(5) 0.8231(2)
H5 H 0.8800 0.9157 0.8124
H6 H 0.9057 1.1130 0.8498
C7 C 0.8577(4) 1.1731(5) 0.6372(3)
H7 H 0.9579 1.1914 0.6498
C8 C 0.7702(3) 1.0940(4) 0.7168(2)
C9 C 1.2130(3) 1.0107(4) 1.1612(2)
C10 C 0.5865(3) 0.8060(4) 1.0283(2)
C11 C 1.2860(4) 1.1270(5) 1.3327(3)
H8 H 1.3595 1.1587 1.3823
C12 C 0.5660(4) 1.1141(5) 0.6044(2)
H9 H 0.4659 1.0936 0.5930
C13 C 1.3263(3) 1.0561(5) 1.2328(2)
H10 H 1.4249 1.0393 1.2142
C14 C 0.6459(4) 1.1923(5) 0.5233(3)
H11 H 0.6013 1.2242 0.4573
C15 C 1.0253(4) 1.1080(5) 1.2912(3)
H12 H 0.9273 1.1251 1.3112
C16 C 1.1391(4) 1.1529(5) 1.3620(3)
H13 H 1.1169 1.2011 1.4304
C17 C 0.7952(4) 1.2237(5) 0.5402(2)
H14 H 0.8517 1.2785 0.4862
O2 O 0.5744(2) 0.7285(3) 1.11526(17)
H15 H 1.296(4) 0.924(6) 1.022(3)
H16 H 0.700(4) 1.125(5) 0.933(3)
Cu1A Cu 0.47792(4) 0.45604(5) 1.17434(2)
O2A O 0.4256(2) 1.2285(3) 0.88474(17)
loop_
_geom_bond_atom_site_label_1
_geom_bond_atom_site_label_2
_geom_bond_site_symmetry_1
_geom_bond_site_symmetry_2
Cu1 Cl1 1_555 1_555
O1 Cu1 1_555 1_555
N1 C4 1_555 1_555
C1 H1 1_555 1_555
C2 C1 1_555 1_555
H2 C2 1_555 1_555
H3 C2 1_555 1_555
N2 Cu1 1_555 1_555
C3 C2 1_555 1_555
C4 C3 1_555 1_555
H4 C4 1_555 1_555
C5 C3 1_555 1_555
N3 Cu1 1_555 1_555
C6 N2 1_555 1_555
H5 C6 1_555 1_555
H6 C6 1_555 1_555
C7 H7 1_555 1_555
C8 N3 1_555 1_555
C9 N1 1_555 1_555
C10 O1 1_555 1_555
C11 H8 1_555 1_555
C12 N3 1_555 1_555
H9 C12 1_555 1_555
C13 C9 1_555 1_555
H10 C13 1_555 1_555
C14 C12 1_555 1_555
H11 C14 1_555 1_555
C15 C5 1_555 1_555
H12 C15 1_555 1_555
C16 C11 1_555 1_555
H13 C16 1_555 1_555
C17 C7 1_555 1_555
H14 C17 1_555 1_555
O2 C10 1_555 1_555
H15 N1 1_555 1_555
H16 N2 1_555 1_555
Cu1A O2 1_555 1_555
O2A Cu1 1_555 1_555
C1 N2 1_555 1_555
C1 C10 1_555 1_555
C5 C9 1_555 1_555
C6 C8 1_555 1_555
C7 C8 1_555 1_555
C11 C13 1_555 1_555
C14 C17 1_555 1_555
C15 C16 1_555 1_555

#END
