
#######################################################################
#
#                 Cambridge Crystallographic Data Centre
#                                CCDC 
#
#######################################################################
#
# If this CIF has been generated from an entry in the Cambridge 
# Structural Database, then it will include bibliographic, chemical, 
# crystal, experimental, refinement or atomic coordinate data resulting 
# from the CCDC's data processing and validation procedures.
#
#######################################################################

data_KOZPUM
_symmetry_cell_setting           triclinic
_symmetry_space_group_name_H-M   'P -1'
_symmetry_Int_Tables_number      2
_space_group_name_Hall           '-P 1'
loop_
_symmetry_equiv_pos_site_id
_symmetry_equiv_pos_as_xyz
1 x,y,z
2 -x,-y,-z
_cell_length_a                   9.3756(7)
_cell_length_b                   10.3583(7)
_cell_length_c                   13.1606(10)
_cell_angle_alpha                99.839(2)
_cell_angle_beta                 97.666(2)
_cell_angle_gamma                113.702(2)
_cell_volume                     1123.77
loop_
_atom_site_label
_atom_site_type_symbol
_atom_site_fract_x
_atom_site_fract_y
_atom_site_fract_z
Tb1 Tb 0.28250(2) 0.548165(19) 0.515023(15)
O1 O 0.0918(4) 0.4152(3) 0.3436(3)
O2 O 0.3367(4) 0.5562(4) 0.3333(3)
O3 O 0.3745(8) 0.6626(6) -0.0206(4)
H1 H 0.4329 0.7019 -0.0582
O4 O 0.2771(7) 0.4731(6) -0.1588(4)
O5 O -0.1521(6) 0.0896(6) -0.0209(4)
O6 O -0.4540(6) -0.1573(6) -0.1186(4)
H2 H -0.4891 -0.1257 -0.1640
O7 O 0.1940(4) 0.7099(3) 0.4588(3)
O8 O -0.0685(4) 0.6142(3) 0.4399(3)
O9 O 0.4856(4) 1.2249(3) 0.4411(3)
O10 O 0.3513(4) 1.3556(3) 0.4610(3)
O11 O -0.2140(5) 0.9836(4) 0.2916(5)
O12 O -0.4746(6) 1.0386(5) 0.2813(5)
H3 H -0.4844 1.0591 0.3422
O13 O 0.2327(4) 0.6798(4) 0.6695(3)
H4 H 0.1389 0.6482 0.6808
H5 H 0.2772 0.7719 0.6823
O14 O 0.4199(4) 0.5273(4) 0.6743(3)
H6 H 0.4950 0.5007 0.6777
H7 H 0.3884 0.5324 0.7318
C1 C 0.1933(6) 0.4655(5) 0.2894(4)
C2 C 0.1440(6) 0.4128(6) 0.1717(4)
C3 C 0.2348(7) 0.4935(6) 0.1091(4)
H8 H 0.3234 0.5818 0.1404
C4 C 0.1915(7) 0.4410(6) 0.0002(4)
C5 C 0.0623(7) 0.3048(7) -0.0473(5)
H9 H 0.0370 0.2680 -0.1203
C6 C -0.0278(7) 0.2254(7) 0.0159(5)
C7 C 0.0118(7) 0.2813(6) 0.1254(4)
H10 H -0.0507 0.2302 0.1673
C8 C 0.2852(7) 0.5260(7) -0.0687(5)
C9 C -0.1784(9) 0.0099(8) -0.1209(6)
H11 H -0.0796 0.0095 -0.1350
H12 H -0.2183 0.0516 -0.1721
C10 C -0.3023(9) -0.1461(8) -0.1298(6)
H13 H -0.3139 -0.2066 -0.1981
H14 H -0.2622 -0.1839 -0.0758
C11 C 0.0620(5) 0.7125(4) 0.4349(4)
C12 C 0.0611(5) 0.8439(4) 0.4021(4)
C13 C -0.0827(5) 0.8437(5) 0.3581(4)
H15 H -0.1783 0.7600 0.3442
C14 C -0.0810(6) 0.9697(5) 0.3355(4)
C15 C 0.0608(5) 1.0977(5) 0.3617(4)
H16 H 0.0594 1.1834 0.3502
C16 C 0.2040(5) 1.0969(4) 0.4048(4)
C17 C 0.2051(5) 0.9679(4) 0.4224(4)
H17 H 0.3011 0.9650 0.4474
C18 C 0.3559(5) 1.2351(5) 0.4372(4)
C19 C -0.3685(7) 0.8660(7) 0.2781(6)
H18 H -0.3813 0.7866 0.2211
H19 H -0.3730 0.8317 0.3422
C20 C -0.4932(9) 0.9000(8) 0.2562(8)
H20 H -0.5373 0.8628 0.1805
H21 H -0.5744 0.8448 0.2904
Tb1_2 Tb 0.28250(2) 1.548165(19) 0.515023(15)
Tb1A Tb -0.28250(2) 0.451835(19) 0.484977(15)
Tb1A_2 Tb 0.71750(2) 1.451835(19) 0.484977(15)
O8A O 0.0685(4) 0.3858(3) 0.5601(3)
O9A O 0.5144(4) 0.7751(3) 0.5589(3)
O10_2 O 0.3513(4) 0.3556(3) 0.4610(3)
loop_
_geom_bond_atom_site_label_1
_geom_bond_atom_site_label_2
_geom_bond_site_symmetry_1
_geom_bond_site_symmetry_2
Tb1 O1 1_555 1_555
O1 C1 1_555 1_555
O2 Tb1 1_555 1_555
O3 H1 1_555 1_555
O4 C8 1_555 1_555
O5 C6 1_555 1_555
O6 H2 1_555 1_555
O7 Tb1 1_555 1_555
O8 C11 1_555 1_555
O9 C18 1_555 1_555
O10 C18 1_555 1_555
O11 C14 1_555 1_555
O12 H3 1_555 1_555
O13 Tb1 1_555 1_555
H4 O13 1_555 1_555
H5 O13 1_555 1_555
O14 Tb1 1_555 1_555
H6 O14 1_555 1_555
H7 O14 1_555 1_555
C1 O2 1_555 1_555
C2 C1 1_555 1_555
C3 C2 1_555 1_555
H8 C3 1_555 1_555
C4 C3 1_555 1_555
C5 C4 1_555 1_555
H9 C5 1_555 1_555
C6 C5 1_555 1_555
C7 C2 1_555 1_555
H10 C7 1_555 1_555
C8 O3 1_555 1_555
C9 O5 1_555 1_555
H11 C9 1_555 1_555
H12 C9 1_555 1_555
C10 O6 1_555 1_555
H13 C10 1_555 1_555
H14 C10 1_555 1_555
C11 O7 1_555 1_555
C12 C11 1_555 1_555
C13 C12 1_555 1_555
H15 C13 1_555 1_555
C14 C13 1_555 1_555
C15 C14 1_555 1_555
H16 C15 1_555 1_555
C16 C15 1_555 1_555
C17 C12 1_555 1_555
H17 C17 1_555 1_555
C18 C16 1_555 1_555
C19 O11 1_555 1_555
H18 C19 1_555 1_555
H19 C19 1_555 1_555
C20 O12 1_555 1_555
H20 C20 1_555 1_555
H21 C20 1_555 1_555
Tb1_2 O10 1_555 1_555
Tb1A O8 1_555 1_555
Tb1A_2 O9 1_555 1_555
O8A Tb1 1_555 1_555
O9A Tb1 1_555 1_555
O10_2 Tb1 1_555 1_555
C4 C8 1_555 1_555
C6 C7 1_555 1_555
C9 C10 1_555 1_555
C16 C17 1_555 1_555
C19 C20 1_555 1_555

#END
