
#######################################################################
#
#                 Cambridge Crystallographic Data Centre
#                                CCDC 
#
#######################################################################
#
# If this CIF has been generated from an entry in the Cambridge 
# Structural Database, then it will include bibliographic, chemical, 
# crystal, experimental, refinement or atomic coordinate data resulting 
# from the CCDC's data processing and validation procedures.
#
#######################################################################

data_KOZPIA
_symmetry_cell_setting           triclinic
_symmetry_space_group_name_H-M   'P -1'
_symmetry_Int_Tables_number      2
_space_group_name_Hall           '-P 1'
loop_
_symmetry_equiv_pos_site_id
_symmetry_equiv_pos_as_xyz
1 x,y,z
2 -x,-y,-z
_cell_length_a                   9.375(5)
_cell_length_b                   10.396(6)
_cell_length_c                   13.205(7)
_cell_angle_alpha                99.965(8)
_cell_angle_beta                 98.188(8)
_cell_angle_gamma                113.447(6)
_cell_volume                     1130.67
loop_
_atom_site_label
_atom_site_type_symbol
_atom_site_fract_x
_atom_site_fract_y
_atom_site_fract_z
Sm1 Sm 0.71270(4) -0.04849(3) -0.01534(3)
O1 O 0.9075(6) 0.0864(5) 0.1595(4)
O2 O 0.6645(6) -0.0555(5) 0.1690(4)
O3 O 0.6295(11) -0.1581(8) 0.5225(6)
H1 H 0.5801 -0.1983 0.5632
O4 O 0.7289(11) 0.0301(8) 0.6606(6)
O5 O 1.1554(10) 0.4137(9) 0.5242(7)
O6 O 1.4570(8) 0.6611(8) 0.6152(7)
H2 H 1.4920 0.6382 0.6662
O7 O 0.6391(6) 0.1471(5) 0.0399(4)
O8 O 0.5141(6) 0.2852(5) 0.0634(5)
O9 O 0.8106(6) 0.7919(5) 0.0420(5)
O10 O 1.0726(6) 0.8832(5) 0.0604(4)
O11 O 1.2121(7) 0.5140(6) 0.2104(7)
O12 O 1.4753(9) 0.4622(7) 0.2260(8)
H3 H 1.4546 0.4356 0.1613
O13 O 0.7685(6) -0.1807(5) -0.1705(5)
H4 H 0.8646 -0.1445 -0.1768
H5 H 0.7243 -0.2689 -0.2053
O14 O 0.5776(6) -0.0259(6) -0.1787(4)
H6 H 0.4999 -0.0036 -0.1828
H7 H 0.6045 -0.0423 -0.2366
C1 C 0.8081(10) 0.0355(8) 0.2129(7)
C2 C 0.8583(11) 0.0874(9) 0.3296(7)
C3 C 0.7694(11) 0.0076(10) 0.3938(7)
H8 H 0.6806 -0.0804 0.3628
C4 C 0.8137(11) 0.0596(9) 0.5022(7)
C5 C 0.9425(11) 0.1977(10) 0.5509(8)
H9 H 0.9676 0.2360 0.6236
C6 C 1.0313(12) 0.2751(10) 0.4860(8)
C7 C 0.9895(11) 0.2184(10) 0.3774(7)
H10 H 1.0510 0.2695 0.3358
C8 C 0.7191(12) -0.0233(10) 0.5695(8)
C9 C 1.1791(14) 0.4900(11) 0.6171(9)
H11 H 1.2229 0.4528 0.6699
H12 H 1.0800 0.4897 0.6307
C10 C 1.3054(14) 0.6518(12) 0.6194(10)
H13 H 1.2656 0.6810 0.5598
H14 H 1.3138 0.7185 0.6836
C11 C 0.6413(9) 0.2714(7) 0.0649(6)
C12 C 0.7965(8) 0.4050(7) 0.0961(6)
C13 C 0.9385(9) 0.4044(7) 0.1395(6)
H15 H 0.9390 0.3191 0.1517
C14 C 1.0800(9) 0.5283(8) 0.1649(7)
C15 C 1.0837(9) 0.6536(8) 0.1398(6)
H16 H 1.1804 0.7348 0.1511
C16 C 0.9412(8) 0.6557(7) 0.0976(6)
C17 C 0.7966(8) 0.5344(7) 0.0781(6)
H17 H 0.7009 0.5385 0.0534
C18 C 0.9409(9) 0.7871(7) 0.0651(6)
C19 C 1.3685(10) 0.6298(9) 0.2226(8)
H18 H 1.3762 0.6542 0.1552
H19 H 1.3791 0.7148 0.2730
C20 C 1.4908(12) 0.5989(10) 0.2552(10)
H20 H 1.5186 0.6280 0.3319
H21 H 1.5816 0.6605 0.2319
Sm1_2 Sm 0.71270(4) 0.95151(3) -0.01534(3)
Sm1A Sm 0.28730(4) 0.04849(3) 0.01534(3)
Sm1A_2 Sm 1.28730(4) 1.04849(3) 0.01534(3)
O8A O 0.4859(6) -0.2852(5) -0.0634(5)
O9_2 O 0.8106(6) -0.2081(5) 0.0420(5)
O10A O 0.9274(6) 0.1168(5) -0.0604(4)
loop_
_geom_bond_atom_site_label_1
_geom_bond_atom_site_label_2
_geom_bond_site_symmetry_1
_geom_bond_site_symmetry_2
Sm1 O1 1_555 1_555
O1 C1 1_555 1_555
O2 Sm1 1_555 1_555
O3 H1 1_555 1_555
O4 C8 1_555 1_555
O5 C6 1_555 1_555
O6 H2 1_555 1_555
O7 Sm1 1_555 1_555
O8 C11 1_555 1_555
O9 C18 1_555 1_555
O10 C18 1_555 1_555
O11 C14 1_555 1_555
O12 H3 1_555 1_555
O13 Sm1 1_555 1_555
H4 O13 1_555 1_555
H5 O13 1_555 1_555
O14 Sm1 1_555 1_555
H6 O14 1_555 1_555
H7 O14 1_555 1_555
C1 O2 1_555 1_555
C2 C1 1_555 1_555
C3 C2 1_555 1_555
H8 C3 1_555 1_555
C4 C3 1_555 1_555
C5 C4 1_555 1_555
H9 C5 1_555 1_555
C6 C5 1_555 1_555
C7 C2 1_555 1_555
H10 C7 1_555 1_555
C8 O3 1_555 1_555
C9 O5 1_555 1_555
H11 C9 1_555 1_555
H12 C9 1_555 1_555
C10 O6 1_555 1_555
H13 C10 1_555 1_555
H14 C10 1_555 1_555
C11 O7 1_555 1_555
C12 C11 1_555 1_555
C13 C12 1_555 1_555
H15 C13 1_555 1_555
C14 C13 1_555 1_555
C15 C14 1_555 1_555
H16 C15 1_555 1_555
C16 C15 1_555 1_555
C17 C12 1_555 1_555
H17 C17 1_555 1_555
C18 C16 1_555 1_555
C19 O11 1_555 1_555
H18 C19 1_555 1_555
H19 C19 1_555 1_555
C20 O12 1_555 1_555
H20 C20 1_555 1_555
H21 C20 1_555 1_555
Sm1_2 O9 1_555 1_555
Sm1A O8 1_555 1_555
Sm1A_2 O10 1_555 1_555
O8A Sm1 1_555 1_555
O9_2 Sm1 1_555 1_555
O10A Sm1 1_555 1_555
C4 C8 1_555 1_555
C6 C7 1_555 1_555
C9 C10 1_555 1_555
C16 C17 1_555 1_555
C19 C20 1_555 1_555

#END
