
#######################################################################
#
#                 Cambridge Crystallographic Data Centre
#                                CCDC 
#
#######################################################################
#
# If this CIF has been generated from an entry in the Cambridge 
# Structural Database, then it will include bibliographic, chemical, 
# crystal, experimental, refinement or atomic coordinate data resulting 
# from the CCDC's data processing and validation procedures.
#
#######################################################################

data_KOZPOG
_symmetry_cell_setting           triclinic
_symmetry_space_group_name_H-M   'P -1'
_symmetry_Int_Tables_number      2
_space_group_name_Hall           '-P 1'
loop_
_symmetry_equiv_pos_site_id
_symmetry_equiv_pos_as_xyz
1 x,y,z
2 -x,-y,-z
_cell_length_a                   9.3679(5)
_cell_length_b                   10.3651(5)
_cell_length_c                   13.1782(6)
_cell_angle_alpha                100.0650(10)
_cell_angle_beta                 97.808(2)
_cell_angle_gamma                113.4920(10)
_cell_volume                     1125.15
loop_
_atom_site_label
_atom_site_type_symbol
_atom_site_fract_x
_atom_site_fract_y
_atom_site_fract_z
Eu1 Eu 0.28615(2) 0.54849(2) 0.515580(16)
O1 O 0.0703(4) 0.3842(4) 0.5601(3)
O2 O -0.1912(4) 0.2915(4) 0.5414(3)
O3 O -0.4858(4) -0.2171(4) 0.5622(3)
O4 O -0.3585(4) -0.3533(3) 0.5393(3)
O5 O 0.2130(5) 0.0156(5) 0.7092(5)
O6 O 0.4748(6) -0.0384(5) 0.7235(5)
H1 H 0.4802 -0.0578 0.6615
O7 O 0.3361(4) 0.5556(4) 0.3317(3)
O8 O 0.0936(4) 0.4142(4) 0.3427(3)
O9 O 0.3696(8) 0.6611(6) -0.0213(4)
H2 H 0.4352 0.6981 -0.0553
O10 O 0.2739(8) 0.4709(6) -0.1594(4)
O11 O -0.1527(7) 0.0895(6) -0.0225(5)
O12 O -0.4562(6) -0.1587(6) -0.1160(4)
H3 H -0.4953 -0.1351 -0.1649
O13 O 0.4215(4) 0.5279(4) 0.6780(3)
H4 H 0.3811 0.5230 0.7315
H5 H 0.4979 0.5037 0.6805
O14 O 0.2311(4) 0.6800(4) 0.6709(3)
H6 H 0.2698 0.7717 0.6862
H7 H 0.1372 0.6560 0.6804
C1 C -0.0601(5) 0.2875(5) 0.5644(4)
C2 C -0.0609(5) 0.1559(5) 0.5977(4)
C3 C -0.2047(5) 0.0334(5) 0.5775(4)
H8 H -0.3005 0.0366 0.5520
C4 C -0.2039(5) -0.0948(5) 0.5959(4)
C5 C -0.0622(6) -0.0974(5) 0.6386(4)
H9 H -0.0620 -0.1833 0.6501
C6 C 0.0800(6) 0.0288(5) 0.6644(4)
C7 C 0.0819(6) 0.1546(5) 0.6415(4)
H10 H 0.1778 0.2376 0.6553
C8 C -0.3587(5) -0.2306(5) 0.5639(4)
C9 C 0.3684(8) 0.1317(7) 0.7220(6)
H11 H 0.3770 0.1572 0.6549
H12 H 0.3783 0.2162 0.7730
C10 C 0.4928(9) 0.0995(8) 0.7549(8)
C11 C 0.1936(6) 0.4648(5) 0.2881(4)
C12 C 0.1431(7) 0.4127(6) 0.1706(4)
C13 C 0.2319(7) 0.4927(7) 0.1084(4)
H13 H 0.3205 0.5809 0.1398
C14 C 0.1880(7) 0.4406(7) -0.0009(5)
C15 C 0.0584(8) 0.3043(7) -0.0481(5)
H14 H 0.0315 0.2675 -0.1212
C16 C -0.0292(8) 0.2249(7) 0.0149(5)
C17 C 0.0121(7) 0.2813(7) 0.1242(5)
H15 H -0.0490 0.2301 0.1663
C18 C 0.2820(8) 0.5245(7) -0.0694(5)
C19 C -0.1805(10) 0.0076(8) -0.1204(6)
H16 H -0.0821 0.0059 -0.1344
H17 H -0.2209 0.0476 -0.1725
C20 C -0.3046(10) -0.1475(9) -0.1273(7)
H18 H -0.3170 -0.2098 -0.1953
H19 H -0.2634 -0.1838 -0.0728
H20 H 0.5800 0.1594 0.7256
Eu1_2 Eu -0.71385(2) -0.45151(2) 0.515580(16)
Eu1A Eu -0.28615(2) -0.54849(2) 0.484420(16)
Eu1A_2 Eu -0.28615(2) 0.45151(2) 0.484420(16)
O2A O 0.1912(4) 0.7085(4) 0.4586(3)
O3_2 O 0.5142(4) 0.7829(4) 0.5622(3)
O4A O 0.3585(4) 0.3533(3) 0.4607(3)
loop_
_geom_bond_atom_site_label_1
_geom_bond_atom_site_label_2
_geom_bond_site_symmetry_1
_geom_bond_site_symmetry_2
Eu1 O1 1_555 1_555
O1 C1 1_555 1_555
O2 C1 1_555 1_555
O3 C8 1_555 1_555
O4 C8 1_555 1_555
O5 C6 1_555 1_555
O6 H1 1_555 1_555
O7 Eu1 1_555 1_555
O8 Eu1 1_555 1_555
O9 H2 1_555 1_555
O10 C18 1_555 1_555
O11 C16 1_555 1_555
O12 H3 1_555 1_555
O13 Eu1 1_555 1_555
H4 O13 1_555 1_555
H5 O13 1_555 1_555
O14 Eu1 1_555 1_555
H6 O14 1_555 1_555
H7 O14 1_555 1_555
C1 C2 1_555 1_555
C2 C3 1_555 1_555
C3 H8 1_555 1_555
C4 C3 1_555 1_555
C5 C4 1_555 1_555
H9 C5 1_555 1_555
C6 C5 1_555 1_555
C7 C2 1_555 1_555
H10 C7 1_555 1_555
C8 C4 1_555 1_555
C9 O5 1_555 1_555
H11 C9 1_555 1_555
H12 C9 1_555 1_555
C10 O6 1_555 1_555
C11 O7 1_555 1_555
C12 C11 1_555 1_555
C13 C12 1_555 1_555
H13 C13 1_555 1_555
C14 C13 1_555 1_555
C15 C14 1_555 1_555
H14 C15 1_555 1_555
C16 C15 1_555 1_555
C17 C12 1_555 1_555
H15 C17 1_555 1_555
C18 O9 1_555 1_555
C19 O11 1_555 1_555
H16 C19 1_555 1_555
H17 C19 1_555 1_555
C20 O12 1_555 1_555
H18 C20 1_555 1_555
H19 C20 1_555 1_555
H20 C10 1_555 1_555
Eu1_2 O3 1_555 1_555
Eu1A O4 1_555 1_555
Eu1A_2 O2 1_555 1_555
O2A Eu1 1_555 1_555
O3_2 Eu1 1_555 1_555
O4A Eu1 1_555 1_555
O8 C11 1_555 1_555
C6 C7 1_555 1_555
C9 C10 1_555 1_555
C14 C18 1_555 1_555
C16 C17 1_555 1_555
C19 C20 1_555 1_555

#END
