
#######################################################################
#
#                 Cambridge Crystallographic Data Centre
#                                CCDC 
#
#######################################################################
#
# If this CIF has been generated from an entry in the Cambridge 
# Structural Database, then it will include bibliographic, chemical, 
# crystal, experimental, refinement or atomic coordinate data resulting 
# from the CCDC's data processing and validation procedures.
#
#######################################################################

data_KOZVIG
_symmetry_cell_setting           monoclinic
_symmetry_space_group_name_H-M   'C 2/c'
_symmetry_Int_Tables_number      15
_space_group_name_Hall           '-C 2yn'
loop_
_symmetry_equiv_pos_site_id
_symmetry_equiv_pos_as_xyz
1 x,y,z
2 -x,y,1/2-z
3 1/2+x,1/2+y,z
4 1/2-x,1/2+y,1/2-z
5 -x,-y,-z
6 x,-y,1/2+z
7 1/2-x,1/2-y,-z
8 1/2+x,1/2-y,1/2+z
_cell_length_a                   23.446(10)
_cell_length_b                   9.956(4)
_cell_length_c                   19.018(8)
_cell_angle_alpha                90
_cell_angle_beta                 98.983(5)
_cell_angle_gamma                90
_cell_volume                     4384.89
loop_
_atom_site_label
_atom_site_type_symbol
_atom_site_fract_x
_atom_site_fract_y
_atom_site_fract_z
Co1 Co 0.44233(2) 0.22813(5) 0.28847(3)
Co2 Co 0.43901(2) 0.45684(5) 0.02041(3)
Co3 Co 0.49402(2) -0.04320(5) 0.41628(3)
P1 P 0.42237(4) 0.18888(10) 0.12218(5)
P2 P 0.44205(4) 0.74732(9) -0.03766(5)
O1 O 0.41372(12) 0.2779(3) 0.05703(15)
O2 O 0.46796(11) 0.2388(3) 0.18406(14)
O3 O 0.43200(12) 0.0436(3) 0.10401(16)
O4 O 0.42242(14) -0.1758(3) 0.26094(17)
O5 O 0.44735(12) 0.0213(3) 0.31245(15)
O6 O 0.46974(12) 0.8838(2) -0.01814(14)
O7 O 0.48054(11) 0.6297(2) -0.00807(15)
O8 O 0.41983(12) 0.7341(3) -0.11597(15)
O9 O 0.33834(17) 0.4675(4) -0.1761(2)
O10 O 0.40339(13) 0.4124(3) -0.08286(16)
O11 O 0.46583(15) 0.5156(3) 0.12888(16)
H1 H 0.4970 0.4751 0.1452
H2 H 0.4715 0.5999 0.1308
O12 O 0.43181(15) 0.4407(3) 0.26928(18)
H3 H 0.4268 0.4552 0.2247
H4 H 0.4025 0.4681 0.2864
O13 O 0.41703(13) -0.1384(3) 0.42809(16)
H5 H 0.3973 -0.1516 0.3873
H6 H 0.4245 -0.2132 0.4490
O14 O 0.51531(14) -0.2164(3) 0.35423(16)
H7 H 0.4843 -0.2554 0.3357
H8 H 0.5335 -0.1897 0.3215
N1 N 0.35892(14) 0.1551(3) 0.23107(18)
N2 N 0.35976(14) 0.5885(3) 0.00783(19)
C1 C 0.35780(19) 0.0043(4) 0.2318(2)
H9 H 0.3504 -0.0300 0.1830
C2 C 0.3073(2) -0.0338(6) 0.2714(3)
H10 H 0.2726 -0.0536 0.2380
H11 H 0.3170 -0.1112 0.3019
C3 C 0.2992(2) 0.0897(6) 0.3147(3)
H12 H 0.3274 0.0932 0.3578
H13 H 0.2607 0.0931 0.3272
C4 C 0.30855(19) 0.2017(5) 0.2642(3)
H14 H 0.2747 0.2143 0.2285
H15 H 0.3173 0.2854 0.2897
C5 C 0.35552(11) 0.2073(3) 0.15798(14)
H16 H 0.3452 0.3017 0.1577
H17 H 0.3250 0.1603 0.1273
C6 C 0.41385(11) -0.0538(3) 0.27079(14)
C7 C 0.32464(11) 0.5546(3) -0.06283(14)
H18 H 0.3121 0.6384 -0.0875
C8 C 0.2715(3) 0.4793(9) -0.0471(4)
H19 H 0.2370 0.5332 -0.0600
H20 H 0.2668 0.3955 -0.0734
C9 C 0.2822(3) 0.4534(7) 0.0309(4)
H21 H 0.3009 0.3672 0.0412
H22 H 0.2462 0.4540 0.0501
C10 C 0.3211(2) 0.5667(5) 0.0620(3)
H23 H 0.2989 0.6469 0.0682
H24 H 0.3431 0.5413 0.1076
C11 C 0.38072(17) 0.7299(4) 0.0096(2)
H25 H 0.3919 0.7578 0.0587
H26 H 0.3497 0.7881 -0.0120
C12 C 0.3580(2) 0.4713(5) -0.1107(3)
Co1A Co 0.55767(2) 0.22813(5) 0.21153(3)
Co1E Co 0.44233(2) 0.77187(5) -0.21153(3)
Co2D Co 0.56099(2) 0.54316(5) -0.02041(3)
Co3A Co 0.50598(2) -0.04320(5) 0.08372(3)
Co3A_2 Co 0.50598(2) 0.95680(5) 0.08372(3)
Co3E Co 0.49402(2) 1.04320(5) -0.08372(3)
O2A O 0.53204(11) 0.2388(3) 0.31594(14)
O3A O 0.56800(12) 0.0436(3) 0.39599(16)
O6A O 0.53026(12) -0.1162(2) 0.51814(14)
O6E O 0.46974(12) 0.1162(2) 0.48186(14)
O7D O 0.51946(11) 0.3703(2) 0.00807(15)
O8E O 0.41983(12) 0.2659(3) 0.38403(15)
loop_
_geom_bond_atom_site_label_1
_geom_bond_atom_site_label_2
_geom_bond_site_symmetry_1
_geom_bond_site_symmetry_2
Co1 O2 1_555 1_555
Co2 O1 1_555 1_555
Co3 O5 1_555 1_555
P1 O1 1_555 1_555
P2 O6 1_555 1_555
O2 P1 1_555 1_555
O3 P1 1_555 1_555
O4 C6 1_555 1_555
O5 Co1 1_555 1_555
O6 Co3A_2 1_555 1_555
O7 Co2 1_555 1_555
O8 P2 1_555 1_555
O9 C12 1_555 1_555
O10 Co2 1_555 1_555
O11 Co2 1_555 1_555
H1 O11 1_555 1_555
H2 O11 1_555 1_555
O12 Co1 1_555 1_555
H3 O12 1_555 1_555
H4 O12 1_555 1_555
O13 Co3 1_555 1_555
H5 O13 1_555 1_555
H6 O13 1_555 1_555
O14 Co3 1_555 1_555
H7 O14 1_555 1_555
H8 O14 1_555 1_555
N1 Co1 1_555 1_555
N2 Co2 1_555 1_555
C1 N1 1_555 1_555
H9 C1 1_555 1_555
C2 C1 1_555 1_555
H10 C2 1_555 1_555
H11 C2 1_555 1_555
C3 C2 1_555 1_555
H12 C3 1_555 1_555
H13 C3 1_555 1_555
C4 N1 1_555 1_555
H14 C4 1_555 1_555
H15 C4 1_555 1_555
C5 P1 1_555 1_555
H16 C5 1_555 1_555
H17 C5 1_555 1_555
C6 O5 1_555 1_555
C7 N2 1_555 1_555
H18 C7 1_555 1_555
C8 C7 1_555 1_555
H19 C8 1_555 1_555
H20 C8 1_555 1_555
C9 C8 1_555 1_555
H21 C9 1_555 1_555
H22 C9 1_555 1_555
C10 N2 1_555 1_555
H23 C10 1_555 1_555
H24 C10 1_555 1_555
C11 P2 1_555 1_555
H25 C11 1_555 1_555
H26 C11 1_555 1_555
C12 O10 1_555 1_555
Co1A O2 1_555 1_555
Co1E O8 1_555 1_555
Co2D O7 1_555 1_555
Co3A O3 1_555 1_555
Co3E O6 1_555 1_555
O2A Co1 1_555 1_555
O3A Co3 1_555 1_555
O6A Co3 1_555 1_555
O6E Co3 1_555 1_555
O7D Co2 1_555 1_555
O8E Co1 1_555 1_555
P2 O7 1_555 1_555
N1 C5 1_555 1_555
N2 C11 1_555 1_555
C1 C6 1_555 1_555
C3 C4 1_555 1_555
C7 C12 1_555 1_555
C9 C10 1_555 1_555
Co1A O2A 1_555 1_555
Co2D O7D 1_555 1_555

#END
