
#######################################################################
#
#                 Cambridge Crystallographic Data Centre
#                                CCDC 
#
#######################################################################
#
# If this CIF has been generated from an entry in the Cambridge 
# Structural Database, then it will include bibliographic, chemical, 
# crystal, experimental, refinement or atomic coordinate data resulting 
# from the CCDC's data processing and validation procedures.
#
#######################################################################

data_KOZVOM
_symmetry_cell_setting           monoclinic
_symmetry_space_group_name_H-M   'C 2/c'
_symmetry_Int_Tables_number      15
_space_group_name_Hall           '-C 2yn'
loop_
_symmetry_equiv_pos_site_id
_symmetry_equiv_pos_as_xyz
1 x,y,z
2 -x,y,1/2-z
3 1/2+x,1/2+y,z
4 1/2-x,1/2+y,1/2-z
5 -x,-y,-z
6 x,-y,1/2+z
7 1/2-x,1/2-y,-z
8 1/2+x,1/2-y,1/2+z
_cell_length_a                   40.0617(6)
_cell_length_b                   12.84360(10)
_cell_length_c                   25.2757(3)
_cell_angle_alpha                90
_cell_angle_beta                 108.5860(10)
_cell_angle_gamma                90
_cell_volume                     12327
loop_
_atom_site_label
_atom_site_type_symbol
_atom_site_fract_x
_atom_site_fract_y
_atom_site_fract_z
Ru1 Ru 0.180159(5) 0.445662(12) 0.204259(7)
Ru2 Ru 0.186467(5) 0.620851(12) 0.220339(8)
Au1 Au 0.176753(3) 0.032608(7) 0.219743(5)
O1 O 0.14294(4) 0.47467(12) 0.12975(7)
O2 O 0.14818(4) 0.64587(12) 0.14716(7)
O3 O 0.21662(4) 0.45083(12) 0.16497(7)
O4 O 0.22130(4) 0.62376(12) 0.17667(7)
O5 O 0.21845(4) 0.42106(11) 0.27700(7)
O6 O 0.22602(4) 0.59265(12) 0.29185(7)
O7 O 0.14323(4) 0.44287(12) 0.24244(7)
O8 O 0.15030(4) 0.61342(12) 0.26080(7)
N1 N 0.17441(6) 0.27143(15) 0.19585(9)
N2 N 0.18748(6) 0.79302(16) 0.23555(10)
C1 C 0.17419(7) 0.18453(18) 0.20479(11)
C2 C 0.18240(8) 0.88052(18) 0.23212(11)
C3 C 0.13540(6) 0.56919(18) 0.11533(10)
C4 C 0.11075(7) 0.5917(2) 0.05907(11)
C5 C 0.10074(8) 0.5133(2) 0.01931(12)
H1 H 0.1096 0.4446 0.0282
C6 C 0.07781(9) 0.5355(3) -0.03336(13)
H2 H 0.0712 0.4823 -0.0609
C7 C 0.06446(9) 0.6352(3) -0.04599(13)
H3 H 0.0485 0.6498 -0.0820
C8 C 0.07417(8) 0.7136(2) -0.00645(13)
H4 H 0.0648 0.7818 -0.0154
C9 C 0.09758(7) 0.6926(2) 0.04631(12)
H5 H 0.1046 0.7464 0.0734
C10 C 0.22865(6) 0.53893(17) 0.15684(10)
C11 C 0.25158(6) 0.54052(18) 0.12096(10)
C12 C 0.27220(8) 0.4546(2) 0.11974(14)
H6 H 0.2726 0.3965 0.1432
C13 C 0.29224(10) 0.4540(3) 0.08407(17)
H7 H 0.3072 0.3966 0.0843
C14 C 0.29066(9) 0.5363(3) 0.04823(14)
H8 H 0.3039 0.5343 0.0231
C15 C 0.26995(8) 0.6208(3) 0.04898(13)
H9 H 0.2689 0.6775 0.0243
C16 C 0.25058(7) 0.6239(2) 0.08568(12)
H10 H 0.2366 0.6832 0.0866
C17 C 0.23495(6) 0.49820(17) 0.30491(9)
C18 C 0.26644(6) 0.47670(17) 0.35344(10)
C19 C 0.27780(6) 0.37399(19) 0.36475(10)
H11 H 0.2639 0.3186 0.3442
C20 C 0.30929(7) 0.3530(2) 0.40601(11)
H12 H 0.3170 0.2831 0.4139
C21 C 0.32945(7) 0.4337(2) 0.43561(11)
H13 H 0.3513 0.4193 0.4634
C22 C 0.31802(8) 0.5355(2) 0.42504(12)
H14 H 0.3319 0.5906 0.4460
C23 C 0.28652(7) 0.5575(2) 0.38409(11)
H15 H 0.2787 0.6275 0.3770
C24 C 0.13496(6) 0.52721(17) 0.26196(10)
C25 C 0.10549(6) 0.52296(19) 0.28466(10)
C26 C 0.09290(7) 0.4268(2) 0.29498(12)
H16 H 0.1051 0.3649 0.2916
C27 C 0.06286(9) 0.4211(3) 0.31006(15)
H17 H 0.0541 0.3552 0.3165
C28 C 0.04533(8) 0.5110(3) 0.31589(14)
H18 H 0.0245 0.5067 0.3261
C29 C 0.05804(8) 0.6072(2) 0.30688(13)
H19 H 0.0461 0.6689 0.3113
C30 C 0.08825(7) 0.6135(2) 0.29138(12)
H20 H 0.0971 0.6796 0.2854
Au1_2 Au 0.176753(3) 1.032608(7) 0.219743(5)
C2_2 C 0.18240(8) -0.11948(18) 0.23212(11)
Ru3 Ru 0.434745(5) 0.434518(14) 0.152118(7)
Ru4 Ru 0.426274(5) 0.466705(14) 0.059833(7)
Au2 Au 0.426485(3) 0.433954(9) 0.355171(4)
O9 O 0.40001(4) 0.54832(13) 0.15263(6)
O10 O 0.39244(4) 0.58220(13) 0.06250(6)
O11 O 0.47445(4) 0.53845(13) 0.17273(7)
O12 O 0.46660(4) 0.56772(13) 0.08216(7)
O13 O 0.46990(4) 0.32371(13) 0.15044(6)
O14 O 0.46048(4) 0.35122(13) 0.05942(7)
O15 O 0.39517(4) 0.32938(13) 0.12905(7)
O16 O 0.38664(4) 0.36186(13) 0.03863(7)
N3 N 0.43833(6) 0.39761(17) 0.24053(8)
N4 N 0.41980(6) 0.50518(18) -0.02911(8)
C31 C 0.43346(8) 0.4051(2) 0.28251(10)
C32 C 0.42134(8) 0.5292(2) -0.07200(10)
C33 C 0.38631(6) 0.60075(18) 0.10824(9)
C34 C 0.36209(6) 0.68681(18) 0.10991(10)
C35 C 0.34749(6) 0.69174(19) 0.15332(10)
H21 H 0.3533 0.6406 0.1820
C36 C 0.32448(7) 0.7716(2) 0.15415(12)
H22 H 0.3141 0.7745 0.1830
C37 C 0.31659(8) 0.8475(2) 0.11294(13)
H23 H 0.3011 0.9029 0.1141
C38 C 0.33122(8) 0.8427(2) 0.07012(14)
H24 H 0.3258 0.8951 0.0421
C39 C 0.35376(7) 0.7618(2) 0.06802(11)
H25 H 0.3634 0.7577 0.0383
C40 C 0.48363(6) 0.58051(18) 0.13378(10)
C41 C 0.51599(7) 0.64385(19) 0.14828(12)
C42 C 0.53687(8) 0.6514(2) 0.20385(13)
H26 H 0.5294 0.6216 0.2326
C43 C 0.56874(9) 0.7031(3) 0.21652(17)
H27 H 0.5834 0.7080 0.2543
C44 C 0.57928(9) 0.7474(3) 0.17513(19)
H28 H 0.6011 0.7834 0.1845
C45 C 0.55847(9) 0.7404(3) 0.11971(18)
H29 H 0.5660 0.7714 0.0913
C46 C 0.52674(8) 0.6879(2) 0.10608(14)
H30 H 0.5124 0.6818 0.0682
C47 C 0.47527(6) 0.30242(18) 0.10448(9)
C48 C 0.49870(6) 0.21395(19) 0.10374(10)
C49 C 0.51823(7) 0.1669(2) 0.15322(12)
H31 H 0.5181 0.1945 0.1880
C50 C 0.53814(8) 0.0788(2) 0.15148(15)
H32 H 0.5513 0.0456 0.1853
C51 C 0.53880(8) 0.0397(2) 0.10140(16)
H33 H 0.5519 -0.0215 0.1004
C52 C 0.52053(9) 0.0889(3) 0.05278(15)
H34 H 0.5218 0.0632 0.0182
C53 C 0.50023(8) 0.1757(2) 0.05350(13)
H35 H 0.4874 0.2090 0.0195
C54 C 0.37902(6) 0.31398(18) 0.07757(10)
C55 C 0.34951(7) 0.23831(19) 0.06182(12)
C56 C 0.33505(8) 0.2043(2) 0.10185(15)
H36 H 0.3451 0.2251 0.1397
C57 C 0.30580(10) 0.1397(3) 0.08610(19)
H37 H 0.2955 0.1171 0.1131
C58 C 0.29174(11) 0.1083(3) 0.0314(2)
H38 H 0.2716 0.0642 0.0209
C59 C 0.30659(11) 0.1402(3) -0.00826(19)
H39 H 0.2970 0.1170 -0.0458
C60 C 0.33556(9) 0.2060(2) 0.00662(14)
H40 H 0.3457 0.2288 -0.0206
Au2E Au 0.426485(3) 0.566046(9) -0.144829(4)
C32E C 0.42134(8) 0.4708(2) 0.42800(10)
loop_
_geom_bond_atom_site_label_1
_geom_bond_atom_site_label_2
_geom_bond_site_symmetry_1
_geom_bond_site_symmetry_2
Ru1 Ru2 1_555 1_555
Ru2 O2 1_555 1_555
Au1 C1 1_555 1_555
O1 Ru1 1_555 1_555
O2 C3 1_555 1_555
O3 Ru1 1_555 1_555
O4 Ru2 1_555 1_555
O5 Ru1 1_555 1_555
O6 Ru2 1_555 1_555
O7 Ru1 1_555 1_555
O8 Ru2 1_555 1_555
N1 Ru1 1_555 1_555
N2 Ru2 1_555 1_555
C1 N1 1_555 1_555
C2 N2 1_555 1_555
C3 O1 1_555 1_555
C4 C3 1_555 1_555
C5 C4 1_555 1_555
H1 C5 1_555 1_555
C6 C5 1_555 1_555
H2 C6 1_555 1_555
C7 C6 1_555 1_555
H3 C7 1_555 1_555
C8 C7 1_555 1_555
H4 C8 1_555 1_555
C9 C4 1_555 1_555
H5 C9 1_555 1_555
C10 O3 1_555 1_555
C11 C10 1_555 1_555
C12 C11 1_555 1_555
H6 C12 1_555 1_555
C13 C12 1_555 1_555
H7 C13 1_555 1_555
C14 C13 1_555 1_555
H8 C14 1_555 1_555
C15 C14 1_555 1_555
H9 C15 1_555 1_555
C16 C11 1_555 1_555
H10 C16 1_555 1_555
C17 O5 1_555 1_555
C18 C17 1_555 1_555
C19 C18 1_555 1_555
H11 C19 1_555 1_555
C20 C19 1_555 1_555
H12 C20 1_555 1_555
C21 C20 1_555 1_555
H13 C21 1_555 1_555
C22 C21 1_555 1_555
H14 C22 1_555 1_555
C23 C18 1_555 1_555
H15 C23 1_555 1_555
C24 O7 1_555 1_555
C25 C24 1_555 1_555
C26 C25 1_555 1_555
H16 C26 1_555 1_555
C27 C26 1_555 1_555
H17 C27 1_555 1_555
C28 C27 1_555 1_555
H18 C28 1_555 1_555
C29 C28 1_555 1_555
H19 C29 1_555 1_555
C30 C25 1_555 1_555
H20 C30 1_555 1_555
Ru3 Ru4 1_555 1_555
Ru4 O10 1_555 1_555
Au2 C31 1_555 1_555
O9 Ru3 1_555 1_555
O10 C33 1_555 1_555
O11 Ru3 1_555 1_555
O12 Ru4 1_555 1_555
O13 Ru3 1_555 1_555
O14 Ru4 1_555 1_555
O15 Ru3 1_555 1_555
O16 Ru4 1_555 1_555
N3 Ru3 1_555 1_555
N4 Ru4 1_555 1_555
C31 N3 1_555 1_555
C32 N4 1_555 1_555
C33 O9 1_555 1_555
C34 C33 1_555 1_555
C35 C34 1_555 1_555
H21 C35 1_555 1_555
C36 C35 1_555 1_555
H22 C36 1_555 1_555
C37 C36 1_555 1_555
H23 C37 1_555 1_555
C38 C37 1_555 1_555
H24 C38 1_555 1_555
C39 C34 1_555 1_555
H25 C39 1_555 1_555
C40 O11 1_555 1_555
C41 C40 1_555 1_555
C42 C41 1_555 1_555
H26 C42 1_555 1_555
C43 C42 1_555 1_555
H27 C43 1_555 1_555
C44 C43 1_555 1_555
H28 C44 1_555 1_555
C45 C44 1_555 1_555
H29 C45 1_555 1_555
C46 C41 1_555 1_555
H30 C46 1_555 1_555
C47 O13 1_555 1_555
C48 C47 1_555 1_555
C49 C48 1_555 1_555
H31 C49 1_555 1_555
C50 C49 1_555 1_555
H32 C50 1_555 1_555
C51 C50 1_555 1_555
H33 C51 1_555 1_555
C52 C51 1_555 1_555
H34 C52 1_555 1_555
C53 C48 1_555 1_555
H35 C53 1_555 1_555
C54 O15 1_555 1_555
C55 C54 1_555 1_555
C56 C55 1_555 1_555
H36 C56 1_555 1_555
C57 C56 1_555 1_555
H37 C57 1_555 1_555
C58 C57 1_555 1_555
H38 C58 1_555 1_555
C59 C58 1_555 1_555
H39 C59 1_555 1_555
C60 C55 1_555 1_555
H40 C60 1_555 1_555
Au1_2 C2 1_555 1_555
C2_2 Au1 1_555 1_555
Au2E C32 1_555 1_555
C32E Au2 1_555 1_555
O4 C10 1_555 1_555
O6 C17 1_555 1_555
O8 C24 1_555 1_555
C8 C9 1_555 1_555
C15 C16 1_555 1_555
C22 C23 1_555 1_555
C29 C30 1_555 1_555
O12 C40 1_555 1_555
O14 C47 1_555 1_555
O16 C54 1_555 1_555
C38 C39 1_555 1_555
C45 C46 1_555 1_555
C52 C53 1_555 1_555
C59 C60 1_555 1_555

#END
