
#######################################################################
#
#                 Cambridge Crystallographic Data Centre
#                                CCDC 
#
#######################################################################
#
# If this CIF has been generated from an entry in the Cambridge 
# Structural Database, then it will include bibliographic, chemical, 
# crystal, experimental, refinement or atomic coordinate data resulting 
# from the CCDC's data processing and validation procedures.
#
#######################################################################

data_KOZZUW
_symmetry_cell_setting           monoclinic
_symmetry_space_group_name_H-M   'P 21/c'
_symmetry_Int_Tables_number      14
_space_group_name_Hall           '-P 2ybc'
loop_
_symmetry_equiv_pos_site_id
_symmetry_equiv_pos_as_xyz
1 x,y,z
2 -x,1/2+y,1/2-z
3 -x,-y,-z
4 x,1/2-y,1/2+z
_cell_length_a                   14.296(7)
_cell_length_b                   13.946(6)
_cell_length_c                   22.881(11)
_cell_angle_alpha                90
_cell_angle_beta                 93.456(8)
_cell_angle_gamma                90
_cell_volume                     4553.53
loop_
_atom_site_label
_atom_site_type_symbol
_atom_site_fract_x
_atom_site_fract_y
_atom_site_fract_z
Mn1 Mn 0.99936(11) 0.22777(13) 0.12450(7)
P1 P 1.19848(18) 0.2634(2) 0.06327(11)
P2 P 0.80097(19) 0.24949(19) 0.18763(12)
O1 O 1.1455(4) 0.2134(4) 0.1105(3)
O2 O 1.2621(4) 0.3395(4) 0.0944(3)
O3 O 1.2673(6) 0.1846(5) 0.0375(3)
O4 O 1.1440(4) 0.3006(5) 0.0110(3)
O5 O 0.8535(5) 0.2385(8) 0.1390(3)
O6 O 0.8545(8) 0.2621(16) 0.2406(4)
O7 O 0.7460(8) 0.3437(8) 0.1590(5)
O8 O 0.7229(9) 0.1907(10) 0.2062(6)
O9 O 0.9746(5) 0.2374(8) 0.0295(3)
O10 O 1.0295(4) 0.2240(6) 0.2184(3)
N1 N 1.0078(7) 0.3923(8) 0.1254(4)
N2 N 0.9901(8) 1.0675(9) 0.1224(5)
C1 C 1.3091(7) 0.1041(7) 0.0621(5)
C2 C 1.3504(12) 0.1254(12) 0.1241(7)
H1 H 1.3944 0.1792 0.1228
H2 H 1.3835 0.0686 0.1398
H3 H 1.2998 0.1421 0.1493
C3 C 1.3871(12) 0.0717(12) 0.0254(7)
H4 H 1.4359 0.1210 0.0259
H5 H 1.3623 0.0610 -0.0149
H6 H 1.4138 0.0118 0.0414
C4 C 1.2406(12) 0.0237(11) 0.0617(8)
H7 H 1.2146 0.0129 0.0217
H8 H 1.1899 0.0398 0.0870
H9 H 1.2723 -0.0347 0.0763
C5 C 1.3121(7) 0.4143(9) 0.0691(4)
C6 C 1.2395(11) 0.4926(10) 0.0499(7)
H10 H 1.2044 0.5115 0.0835
H11 H 1.1961 0.4671 0.0189
H12 H 1.2722 0.5485 0.0351
C7 C 1.3720(11) 0.4600(12) 0.1178(7)
H13 H 1.3328 0.4776 0.1498
H14 H 1.4020 0.5176 0.1031
H15 H 1.4203 0.4145 0.1323
C8 C 1.3636(13) 0.3886(13) 0.0192(8)
H16 H 1.4102 0.3395 0.0306
H17 H 1.3953 0.4454 0.0048
H18 H 1.3203 0.3633 -0.0119
C9 C 0.7045(9) 0.4239(9) 0.1858(6)
C10 C 0.660(2) 0.454(3) 0.1305(10)
H19 H 0.7074 0.4644 0.1021
H20 H 0.6256 0.5142 0.1360
H21 H 0.6157 0.4046 0.1159
C11 C 0.6330(14) 0.404(2) 0.2267(8)
H22 H 0.6629 0.3816 0.2639
H23 H 0.5907 0.3541 0.2104
H24 H 0.5973 0.4624 0.2333
C12 C 0.7802(14) 0.4861(17) 0.2124(10)
H25 H 0.8288 0.4950 0.1844
H26 H 0.8077 0.4556 0.2480
H27 H 0.7540 0.5485 0.2222
C13 C 0.6827(11) 0.0888(12) 0.1832(6)
C14 C 0.632(2) 0.101(3) 0.1250(8)
H28 H 0.5903 0.1559 0.1259
H29 H 0.5958 0.0426 0.1154
H30 H 0.6780 0.1108 0.0952
C15 C 0.7491(14) 0.017(2) 0.1891(15)
H31 H 0.7920 0.0219 0.1574
H32 H 0.7178 -0.0457 0.1871
H33 H 0.7845 0.0234 0.2269
C16 C 0.6099(15) 0.0994(17) 0.2270(9)
H34 H 0.5700 0.1546 0.2165
H35 H 0.6406 0.1094 0.2660
H36 H 0.5716 0.0412 0.2272
C17 C 1.0548(8) 0.4421(7) 0.1685(5)
H37 H 1.0890 0.4056 0.1976
C18 C 1.0581(8) 0.5356(8) 0.1743(5)
H38 H 1.0918 0.5628 0.2073
C19 C 1.0120(10) 0.5972(12) 0.1321(6)
C20 C 0.9647(10) 0.5562(11) 0.0892(6)
H39 H 0.9314 0.5942 0.0605
C21 C 0.9619(10) 0.4481(17) 0.0846(6)
H40 H 0.9275 0.4189 0.0525
C22 C 1.0211(8) 0.7071(11) 0.1411(5)
H41 H 1.0604 0.7328 0.1722
C23 C 0.9747(9) 0.7618(10) 0.1057(6)
H42 H 0.9353 0.7352 0.0750
C24 C 0.9826(10) 0.8751(11) 0.1129(7)
C25 C 1.0298(12) 0.9095(13) 0.1631(8)
H43 H 1.0580 0.8707 0.1934
C26 C 1.0299(10) 1.0174(13) 0.1628(8)
H44 H 1.0616 1.0498 0.1947
C27 C 0.9475(11) 1.0185(9) 0.0775(6)
H45 H 0.9196 1.0561 0.0465
C28 C 0.9399(11) 0.9269(10) 0.0714(7)
H46 H 0.9057 0.8986 0.0389
H47 H 0.9802 0.2428 0.2368
H48 H 0.9259 0.2456 0.0080
H49 H 1.0822 0.2324 0.2382
H50 H 1.0218 0.2878 0.0089
Mn1_2 Mn 0.99936(11) 1.22777(13) 0.12450(7)
N2_2 N 0.9901(8) 0.0675(9) 0.1224(5)
N3 N 0.7983(7) 0.2592(9) 0.4736(5)
N4 N 0.2034(6) 0.2575(7) 0.2769(4)
C29 C 0.7763(8) 0.2637(9) 0.4149(5)
H51 H 0.8260 0.2617 0.3892
C30 C 0.6855(8) 0.2711(11) 0.3910(5)
H52 H 0.6739 0.2864 0.3507
C31 C 0.6136(7) 0.2562(8) 0.4253(5)
C32 C 0.6347(9) 0.2538(15) 0.4856(5)
H53 H 0.5859 0.2532 0.5120
C33 C 0.7280(10) 0.2524(14) 0.5069(6)
H54 H 0.7411 0.2462 0.5479
C34 C 0.5133(8) 0.2579(11) 0.4032(5)
H55 H 0.4673 0.2550 0.4314
C35 C 0.4836(7) 0.2629(7) 0.3483(4)
H56 H 0.5309 0.2657 0.3209
C36 C 0.3887(7) 0.2649(8) 0.3236(4)
C37 C 0.3651(7) 0.2725(9) 0.2654(4)
H57 H 0.4134 0.2805 0.2391
C38 C 0.2734(7) 0.2691(9) 0.2434(5)
H58 H 0.2606 0.2755 0.2024
C39 C 0.2257(8) 0.2455(14) 0.3320(6)
H59 H 0.1758 0.2308 0.3561
C40 C 0.3125(7) 0.2515(7) 0.3591(5)
H60 H 0.3217 0.2469 0.4004
loop_
_geom_bond_atom_site_label_1
_geom_bond_atom_site_label_2
_geom_bond_site_symmetry_1
_geom_bond_site_symmetry_2
Mn1 O1 1_555 1_555
P1 O1 1_555 1_555
P2 O5 1_555 1_555
O2 P1 1_555 1_555
O3 P1 1_555 1_555
O4 P1 1_555 1_555
O5 Mn1 1_555 1_555
O6 P2 1_555 1_555
O7 P2 1_555 1_555
O8 P2 1_555 1_555
O9 Mn1 1_555 1_555
O10 Mn1 1_555 1_555
N1 Mn1 1_555 1_555
N2 C26 1_555 1_555
C1 O3 1_555 1_555
C2 C1 1_555 1_555
H1 C2 1_555 1_555
H2 C2 1_555 1_555
H3 C2 1_555 1_555
C3 C1 1_555 1_555
H4 C3 1_555 1_555
H5 C3 1_555 1_555
H6 C3 1_555 1_555
C4 C1 1_555 1_555
H7 C4 1_555 1_555
H8 C4 1_555 1_555
H9 C4 1_555 1_555
C5 O2 1_555 1_555
C6 C5 1_555 1_555
H10 C6 1_555 1_555
H11 C6 1_555 1_555
H12 C6 1_555 1_555
C7 C5 1_555 1_555
H13 C7 1_555 1_555
H14 C7 1_555 1_555
H15 C7 1_555 1_555
C8 C5 1_555 1_555
H16 C8 1_555 1_555
H17 C8 1_555 1_555
H18 C8 1_555 1_555
C9 O7 1_555 1_555
C10 C9 1_555 1_555
H19 C10 1_555 1_555
H20 C10 1_555 1_555
H21 C10 1_555 1_555
C11 C9 1_555 1_555
H22 C11 1_555 1_555
H23 C11 1_555 1_555
H24 C11 1_555 1_555
C12 C9 1_555 1_555
H25 C12 1_555 1_555
H26 C12 1_555 1_555
H27 C12 1_555 1_555
C13 O8 1_555 1_555
C14 C13 1_555 1_555
H28 C14 1_555 1_555
H29 C14 1_555 1_555
H30 C14 1_555 1_555
C15 C13 1_555 1_555
H31 C15 1_555 1_555
H32 C15 1_555 1_555
H33 C15 1_555 1_555
C16 C13 1_555 1_555
H34 C16 1_555 1_555
H35 C16 1_555 1_555
H36 C16 1_555 1_555
C17 N1 1_555 1_555
H37 C17 1_555 1_555
C18 C17 1_555 1_555
H38 C18 1_555 1_555
C19 C18 1_555 1_555
C20 C19 1_555 1_555
H39 C20 1_555 1_555
C21 N1 1_555 1_555
H40 C21 1_555 1_555
C22 C19 1_555 1_555
H41 C22 1_555 1_555
C23 C22 1_555 1_555
H42 C23 1_555 1_555
C24 C23 1_555 1_555
C25 C24 1_555 1_555
H43 C25 1_555 1_555
C26 C25 1_555 1_555
H44 C26 1_555 1_555
C27 N2 1_555 1_555
H45 C27 1_555 1_555
C28 C24 1_555 1_555
H46 C28 1_555 1_555
H47 O10 1_555 1_555
H48 O9 1_555 1_555
H49 O10 1_555 1_555
H50 O9 1_555 1_555
N3 C29 1_555 1_555
N4 C38 1_555 1_555
C29 H51 1_555 1_555
C30 C29 1_555 1_555
H52 C30 1_555 1_555
C31 C30 1_555 1_555
C32 C31 1_555 1_555
H53 C32 1_555 1_555
C33 N3 1_555 1_555
H54 C33 1_555 1_555
C34 C31 1_555 1_555
H55 C34 1_555 1_555
C35 C34 1_555 1_555
H56 C35 1_555 1_555
C36 C35 1_555 1_555
C37 C36 1_555 1_555
H57 C37 1_555 1_555
C38 C37 1_555 1_555
H58 C38 1_555 1_555
C39 N4 1_555 1_555
H59 C39 1_555 1_555
C40 C36 1_555 1_555
H60 C40 1_555 1_555
Mn1_2 N2 1_555 1_555
N2_2 Mn1 1_555 1_555
C20 C21 1_555 1_555
C27 C28 1_555 1_555
C32 C33 1_555 1_555
C39 C40 1_555 1_555

#END
