
#######################################################################
#
#                 Cambridge Crystallographic Data Centre
#                                CCDC 
#
#######################################################################
#
# If this CIF has been generated from an entry in the Cambridge 
# Structural Database, then it will include bibliographic, chemical, 
# crystal, experimental, refinement or atomic coordinate data resulting 
# from the CCDC's data processing and validation procedures.
#
#######################################################################

data_KOZZAC
_symmetry_cell_setting           monoclinic
_symmetry_space_group_name_H-M   'C 2/c'
_symmetry_Int_Tables_number      15
_space_group_name_Hall           '-C 2yn'
loop_
_symmetry_equiv_pos_site_id
_symmetry_equiv_pos_as_xyz
1 x,y,z
2 -x,y,1/2-z
3 1/2+x,1/2+y,z
4 1/2-x,1/2+y,1/2-z
5 -x,-y,-z
6 x,-y,1/2+z
7 1/2-x,1/2-y,-z
8 1/2+x,1/2-y,1/2+z
_cell_length_a                   29.7719(17)
_cell_length_b                   13.6473(6)
_cell_length_c                   11.1274(7)
_cell_angle_alpha                90
_cell_angle_beta                 109.043(7)
_cell_angle_gamma                90
_cell_volume                     4273.71
loop_
_atom_site_label
_atom_site_type_symbol
_atom_site_fract_x
_atom_site_fract_y
_atom_site_fract_z
Mn1 Mn 0.7500 0.7500 0.5000
P1 P 0.85783(2) 0.76348(5) 0.70529(7)
O1 O 0.82391(6) 0.72663(13) 0.58220(18)
O2 O 0.83818(7) 0.78066(14) 0.80992(19)
O3 O 0.88048(6) 0.85879(13) 0.66655(18)
O4 O 0.90337(6) 0.69498(13) 0.75003(19)
O5 O 0.75775(6) 0.75036(12) 0.31109(19)
N1 N 0.74204(7) 0.58132(15) 0.4895(2)
N2 N 0.74142(8) 0.27435(16) 0.5338(2)
C1 C 0.90910(9) 0.9344(2) 0.7488(3)
C2 C 0.93077(12) 0.9899(2) 0.6635(3)
H1 H 0.9059 1.0171 0.5930
H2 H 0.9497 0.9460 0.6326
H3 H 0.9504 1.0418 0.7109
C3 C 0.87642(12) 1.0010(2) 0.7913(4)
H4 H 0.8628 0.9651 0.8452
H5 H 0.8515 1.0245 0.7182
H6 H 0.8942 1.0556 0.8374
C4 C 0.94722(11) 0.8904(2) 0.8621(3)
H7 H 0.9325 0.8554 0.9141
H8 H 0.9668 0.9417 0.9111
H9 H 0.9664 0.8461 0.8327
C5 C 0.90400(10) 0.58809(19) 0.7603(3)
C6 C 0.86278(11) 0.5514(2) 0.8006(4)
H10 H 0.8650 0.5789 0.8818
H11 H 0.8640 0.4812 0.8069
H12 H 0.8333 0.5709 0.7387
C7 C 0.95091(11) 0.5661(2) 0.8625(3)
H13 H 0.9508 0.5936 0.9418
H14 H 0.9764 0.5942 0.8391
H15 H 0.9552 0.4964 0.8714
C8 C 0.90211(12) 0.5465(2) 0.6341(3)
H16 H 0.8720 0.5619 0.5719
H17 H 0.9059 0.4766 0.6411
H18 H 0.9272 0.5743 0.6085
C9 C 0.71815(10) 0.53541(18) 0.5561(3)
H19 H 0.7006 0.5733 0.5943
C10 C 0.71811(10) 0.43529(19) 0.5713(3)
H20 H 0.7018 0.4066 0.6206
C11 C 0.74289(8) 0.37854(18) 0.5115(2)
C12 C 0.76670(10) 0.42370(19) 0.4384(3)
H21 H 0.7828 0.3870 0.3951
C13 C 0.76579(10) 0.52471(18) 0.4318(3)
H22 H 0.7825 0.5552 0.3848
H23 H 0.7313 0.7470 0.2620
H24 H 0.7828 0.7456 0.2795
N1F N 0.75796(7) -0.08132(15) 0.5105(2)
N2F N 0.75858(8) 0.22565(16) 0.4662(2)
C9F C 0.78185(10) -0.03541(18) 0.4439(3)
H19F H 0.7994 -0.0733 0.4057
C10F C 0.78189(10) 0.06471(19) 0.4287(3)
H20F H 0.7982 0.0934 0.3794
C11F C 0.75711(8) 0.12146(18) 0.4885(2)
C12F C 0.73330(10) 0.07630(19) 0.5616(3)
H21F H 0.7172 0.1130 0.6049
C13F C 0.73421(10) -0.02471(18) 0.5682(3)
H22F H 0.7175 -0.0552 0.6152
P1F P 0.64217(2) 0.73652(5) 0.29471(7)
O1F O 0.67609(6) 0.77337(13) 0.41780(18)
O2F O 0.66182(7) 0.71934(14) 0.19008(19)
O3F O 0.61952(6) 0.64121(13) 0.33345(18)
O4F O 0.59663(6) 0.80502(13) 0.24997(19)
C1F C 0.59090(9) 0.5656(2) 0.2512(3)
C2F C 0.56923(12) 0.5101(2) 0.3365(3)
H1F H 0.5941 0.4829 0.4070
H2F H 0.5503 0.5540 0.3674
H3F H 0.5496 0.4582 0.2891
C3F C 0.62358(12) 0.4990(2) 0.2087(4)
H4F H 0.6372 0.5349 0.1548
H5F H 0.6485 0.4755 0.2818
H6F H 0.6058 0.4444 0.1626
C4F C 0.55278(11) 0.6096(2) 0.1379(3)
H7F H 0.5675 0.6446 0.0859
H8F H 0.5332 0.5583 0.0889
H9F H 0.5336 0.6539 0.1673
C5F C 0.59600(10) 0.91191(19) 0.2397(3)
C6F C 0.63722(11) 0.9486(2) 0.1994(4)
H10F H 0.6350 0.9211 0.1182
H11F H 0.6360 1.0188 0.1931
H12F H 0.6667 0.9291 0.2613
C7F C 0.54909(11) 0.9339(2) 0.1375(3)
H13F H 0.5492 0.9064 0.0582
H14F H 0.5236 0.9058 0.1609
H15F H 0.5448 1.0036 0.1286
C8F C 0.59789(12) 0.9535(2) 0.3659(3)
H16F H 0.6280 0.9381 0.4281
H17F H 0.5941 1.0234 0.3589
H18F H 0.5728 0.9257 0.3915
O5F O 0.74225(6) 0.74964(12) 0.68891(19)
H23F H 0.7687 0.7530 0.7380
H24F H 0.7172 0.7544 0.7205
Mn1_2 Mn 0.7500 -0.2500 0.5000
N1F_2 N 0.75796(7) 0.91868(15) 0.5105(2)
N3 N 0.84717(8) 0.73707(16) 0.2468(3)
N4 N 0.99458(8) 0.73573(17) 0.2988(2)
C14 C 0.86301(10) 0.73751(19) 0.1470(3)
H25 H 0.8404 0.7380 0.0662
C15 C 0.91029(10) 0.73731(18) 0.1546(3)
H26 H 0.9193 0.7381 0.0820
C16 C 0.94396(10) 0.73584(18) 0.2760(3)
C17 C 0.92922(11) 0.7352(2) 0.3811(3)
H27 H 0.9513 0.7343 0.4626
C18 C 0.88047(10) 0.7359(2) 0.3630(3)
H28 H 0.8706 0.7355 0.4342
N3A N 1.15283(8) 0.73707(16) 0.2532(3)
N4A N 1.00542(8) 0.73573(17) 0.2012(2)
C14A C 1.13699(10) 0.73751(19) 0.3530(3)
H25A H 1.1596 0.7380 0.4338
C15A C 1.08971(10) 0.73731(18) 0.3454(3)
H26A H 1.0807 0.7381 0.4180
C16A C 1.05604(10) 0.73584(18) 0.2240(3)
C17A C 1.07078(11) 0.7352(2) 0.1189(3)
H27A H 1.0487 0.7343 0.0374
C18A C 1.11953(10) 0.7359(2) 0.1370(3)
H28A H 1.1294 0.7355 0.0658
loop_
_geom_bond_atom_site_label_1
_geom_bond_atom_site_label_2
_geom_bond_site_symmetry_1
_geom_bond_site_symmetry_2
Mn1 O1 1_555 1_555
P1 O1 1_555 1_555
O2 P1 1_555 1_555
O3 P1 1_555 1_555
O4 P1 1_555 1_555
O5 Mn1 1_555 1_555
N1 Mn1 1_555 1_555
N2 C11 1_555 1_555
C1 O3 1_555 1_555
C2 C1 1_555 1_555
H1 C2 1_555 1_555
H2 C2 1_555 1_555
H3 C2 1_555 1_555
C3 C1 1_555 1_555
H4 C3 1_555 1_555
H5 C3 1_555 1_555
H6 C3 1_555 1_555
C4 C1 1_555 1_555
H7 C4 1_555 1_555
H8 C4 1_555 1_555
H9 C4 1_555 1_555
C5 O4 1_555 1_555
C6 C5 1_555 1_555
H10 C6 1_555 1_555
H11 C6 1_555 1_555
H12 C6 1_555 1_555
C7 C5 1_555 1_555
H13 C7 1_555 1_555
H14 C7 1_555 1_555
H15 C7 1_555 1_555
C8 C5 1_555 1_555
H16 C8 1_555 1_555
H17 C8 1_555 1_555
H18 C8 1_555 1_555
C9 N1 1_555 1_555
H19 C9 1_555 1_555
C10 C9 1_555 1_555
H20 C10 1_555 1_555
C11 C10 1_555 1_555
C12 C11 1_555 1_555
H21 C12 1_555 1_555
C13 N1 1_555 1_555
H22 C13 1_555 1_555
H23 O5 1_555 1_555
H24 O5 1_555 1_555
N3 C14 1_555 1_555
N4 C16 1_555 1_555
C14 H25 1_555 1_555
C15 C14 1_555 1_555
H26 C15 1_555 1_555
C16 C15 1_555 1_555
C17 C16 1_555 1_555
H27 C17 1_555 1_555
C18 N3 1_555 1_555
H28 C18 1_555 1_555
N1F C9F 1_555 1_555
N2F N2 1_555 1_555
C9F H19F 1_555 1_555
C10F C9F 1_555 1_555
H20F C10F 1_555 1_555
C11F N2F 1_555 1_555
C12F C11F 1_555 1_555
H21F C12F 1_555 1_555
C13F N1F 1_555 1_555
H22F C13F 1_555 1_555
P1F O1F 1_555 1_555
O1F Mn1 1_555 1_555
O2F P1F 1_555 1_555
O3F P1F 1_555 1_555
O4F P1F 1_555 1_555
C1F O3F 1_555 1_555
C2F C1F 1_555 1_555
H1F C2F 1_555 1_555
H2F C2F 1_555 1_555
H3F C2F 1_555 1_555
C3F C1F 1_555 1_555
H4F C3F 1_555 1_555
H5F C3F 1_555 1_555
H6F C3F 1_555 1_555
C4F C1F 1_555 1_555
H7F C4F 1_555 1_555
H8F C4F 1_555 1_555
H9F C4F 1_555 1_555
C5F O4F 1_555 1_555
C6F C5F 1_555 1_555
H10F C6F 1_555 1_555
H11F C6F 1_555 1_555
H12F C6F 1_555 1_555
C7F C5F 1_555 1_555
H13F C7F 1_555 1_555
H14F C7F 1_555 1_555
H15F C7F 1_555 1_555
C8F C5F 1_555 1_555
H16F C8F 1_555 1_555
H17F C8F 1_555 1_555
H18F C8F 1_555 1_555
O5F Mn1 1_555 1_555
H23F O5F 1_555 1_555
H24F O5F 1_555 1_555
Mn1_2 N1F 1_555 1_555
N1F_2 Mn1 1_555 1_555
N3A C14A 1_555 1_555
N4A N4 1_555 1_555
C14A H25A 1_555 1_555
C15A C14A 1_555 1_555
H26A C15A 1_555 1_555
C16A N4A 1_555 1_555
C17A C16A 1_555 1_555
H27A C17A 1_555 1_555
C18A N3A 1_555 1_555
H28A C18A 1_555 1_555
C12 C13 1_555 1_555
C17 C18 1_555 1_555
C10F C11F 1_555 1_555
C12F C13F 1_555 1_555
C15A C16A 1_555 1_555
C17A C18A 1_555 1_555

#END
