
#######################################################################
#
#                 Cambridge Crystallographic Data Centre
#                                CCDC 
#
#######################################################################
#
# If this CIF has been generated from an entry in the Cambridge 
# Structural Database, then it will include bibliographic, chemical, 
# crystal, experimental, refinement or atomic coordinate data resulting 
# from the CCDC's data processing and validation procedures.
#
#######################################################################

data_KOZZOQ
_symmetry_cell_setting           triclinic
_symmetry_space_group_name_H-M   'P -1'
_symmetry_Int_Tables_number      2
_space_group_name_Hall           '-P 1'
loop_
_symmetry_equiv_pos_site_id
_symmetry_equiv_pos_as_xyz
1 x,y,z
2 -x,-y,-z
_cell_length_a                   8.7071(3)
_cell_length_b                   8.8842(3)
_cell_length_c                   14.3210(3)
_cell_angle_alpha                91.155(2)
_cell_angle_beta                 92.669(2)
_cell_angle_gamma                102.119(2)
_cell_volume                     1081.44
loop_
_atom_site_label
_atom_site_type_symbol
_atom_site_fract_x
_atom_site_fract_y
_atom_site_fract_z
Cd1 Cd 0.0000 0.5000 0.0000
P1 P -0.13927(6) 0.38275(6) 0.20557(4)
O1 O 0.00356(19) 0.43997(19) 0.15189(11)
O2 O -0.28744(19) 0.3067(2) 0.15336(11)
O3 O -0.15782(19) 0.53238(18) 0.26424(11)
O4 O -0.10647(19) 0.26180(19) 0.28042(11)
O5 O 0.22648(19) 0.68174(18) 0.03236(11)
N1 N 0.1555(2) 0.3145(2) -0.01902(13)
N2 N 0.4299(2) -0.0220(2) -0.01436(12)
C1 C 0.0433(3) 0.2512(3) 0.32728(16)
C2 C 0.1406(4) 0.1867(5) 0.2595(2)
H1 H 0.0806 0.0880 0.2331
H2 H 0.2373 0.1710 0.2920
H3 H 0.1675 0.2589 0.2090
C3 C -0.0039(4) 0.1406(3) 0.4049(2)
H4 H -0.0702 0.1834 0.4472
H5 H 0.0907 0.1249 0.4399
H6 H -0.0626 0.0418 0.3780
C4 C 0.1274(4) 0.4068(3) 0.3676(2)
H7 H 0.1538 0.4783 0.3168
H8 H 0.2240 0.3963 0.4024
H9 H 0.0588 0.4465 0.4099
C5 C -0.2986(3) 0.5587(3) 0.30806(17)
C6 C -0.3628(4) 0.4286(4) 0.3707(2)
H10 H -0.4044 0.3348 0.3325
H11 H -0.4473 0.4555 0.4062
H12 H -0.2785 0.4108 0.4141
C7 C -0.4200(3) 0.5809(4) 0.2336(2)
H13 H -0.3740 0.6653 0.1937
H14 H -0.5110 0.6059 0.2633
H15 H -0.4536 0.4858 0.1954
C8 C -0.2374(4) 0.7076(4) 0.3641(2)
H16 H -0.1542 0.6935 0.4095
H17 H -0.3236 0.7360 0.3973
H18 H -0.1950 0.7896 0.3218
C9 C 0.1116(3) 0.1806(3) -0.06645(16)
H19 H 0.0147 0.1613 -0.1025
C10 C 0.2001(3) 0.0684(3) -0.06586(16)
H20 H 0.1647 -0.0263 -0.1000
C11 C 0.3424(2) 0.0981(2) -0.01388(14)
C12 C 0.3899(2) 0.2358(3) 0.03657(15)
H21 H 0.4858 0.2577 0.0735
C13 C 0.2929(3) 0.3407(3) 0.03130(15)
H22 H 0.3252 0.4361 0.0650
H23 H 0.2640 0.7515 0.0780
H24 H 0.2607 0.7134 -0.0196
N1A N 0.8445(2) -0.3145(2) 0.01902(13)
N2A N 0.5701(2) 0.0220(2) 0.01436(12)
C9A C 0.8884(3) -0.1806(3) 0.06645(16)
H19A H 0.9853 -0.1613 0.1025
C10A C 0.7999(3) -0.0684(3) 0.06586(16)
H20A H 0.8353 0.0263 0.1000
C11A C 0.6576(2) -0.0981(2) 0.01388(14)
C12A C 0.6101(2) -0.2358(3) -0.03657(15)
H21A H 0.5142 -0.2577 -0.0735
C13A C 0.7071(3) -0.3407(3) -0.03130(15)
H22A H 0.6748 -0.4361 -0.0650
P1A P 0.13927(6) 0.61725(6) -0.20557(4)
O1A O -0.00356(19) 0.56003(19) -0.15189(11)
O2A O 0.28744(19) 0.6933(2) -0.15336(11)
O3A O 0.15782(19) 0.46762(18) -0.26424(11)
O4A O 0.10647(19) 0.73820(19) -0.28042(11)
O5A O -0.22648(19) 0.31826(18) -0.03236(11)
C1A C -0.0433(3) 0.7488(3) -0.32728(16)
C2A C -0.1406(4) 0.8133(5) -0.2595(2)
H1A H -0.0806 0.9120 -0.2331
H2A H -0.2373 0.8290 -0.2920
H3A H -0.1675 0.7411 -0.2090
C3A C 0.0039(4) 0.8594(3) -0.4049(2)
H4A H 0.0702 0.8166 -0.4472
H5A H -0.0907 0.8751 -0.4399
H6A H 0.0626 0.9582 -0.3780
C4A C -0.1274(4) 0.5932(3) -0.3676(2)
H7A H -0.1538 0.5217 -0.3168
H8A H -0.2240 0.6037 -0.4024
H9A H -0.0588 0.5535 -0.4099
C5A C 0.2986(3) 0.4413(3) -0.30806(17)
C6A C 0.3628(4) 0.5714(4) -0.3707(2)
H10A H 0.4044 0.6652 -0.3325
H11A H 0.4473 0.5445 -0.4062
H12A H 0.2785 0.5892 -0.4141
C7A C 0.4200(3) 0.4191(4) -0.2336(2)
H13A H 0.3740 0.3347 -0.1937
H14A H 0.5110 0.3941 -0.2633
H15A H 0.4536 0.5142 -0.1954
C8A C 0.2374(4) 0.2924(4) -0.3641(2)
H16A H 0.1542 0.3065 -0.4095
H17A H 0.3236 0.2640 -0.3973
H18A H 0.1950 0.2104 -0.3218
H23A H -0.2640 0.2485 -0.0780
H24A H -0.2607 0.2866 0.0196
Cd1_2 Cd 1.0000 -0.5000 0.0000
N1A_2 N -0.1555(2) 0.6855(2) 0.01902(13)
N3 N -0.3313(2) 0.1319(2) 0.80023(13)
N4 N -0.4405(2) 0.0487(2) 0.51150(13)
C14 C -0.4614(3) 0.0306(3) 0.77002(16)
H25 H -0.5262 -0.0224 0.8157
C15 C -0.5078(3) -0.0021(3) 0.67739(15)
H26 H -0.6031 -0.0727 0.6597
C16 C -0.4100(3) 0.0722(3) 0.61035(15)
C17 C -0.2745(3) 0.1759(3) 0.63997(17)
H27 H -0.2059 0.2280 0.5958
C18 C -0.2396(3) 0.2033(3) 0.73523(17)
H28 H -0.1467 0.2758 0.7550
N3A N -0.6687(2) -0.1319(2) 0.19977(13)
N4A N -0.5595(2) -0.0487(2) 0.48850(13)
C14A C -0.5386(3) -0.0306(3) 0.22998(16)
H25A H -0.4738 0.0224 0.1843
C15A C -0.4922(3) 0.0021(3) 0.32261(15)
H26A H -0.3969 0.0727 0.3403
C16A C -0.5900(3) -0.0722(3) 0.38965(15)
C17A C -0.7255(3) -0.1759(3) 0.36003(17)
H27A H -0.7941 -0.2280 0.4042
C18A C -0.7604(3) -0.2033(3) 0.26477(17)
H28A H -0.8533 -0.2758 0.2450
loop_
_geom_bond_atom_site_label_1
_geom_bond_atom_site_label_2
_geom_bond_site_symmetry_1
_geom_bond_site_symmetry_2
Cd1 O1 1_555 1_555
P1 O1 1_555 1_555
O2 P1 1_555 1_555
O3 P1 1_555 1_555
O4 P1 1_555 1_555
O5 Cd1 1_555 1_555
N1 Cd1 1_555 1_555
N2 C11 1_555 1_555
C1 O4 1_555 1_555
C2 C1 1_555 1_555
H1 C2 1_555 1_555
H2 C2 1_555 1_555
H3 C2 1_555 1_555
C3 C1 1_555 1_555
H4 C3 1_555 1_555
H5 C3 1_555 1_555
H6 C3 1_555 1_555
C4 C1 1_555 1_555
H7 C4 1_555 1_555
H8 C4 1_555 1_555
H9 C4 1_555 1_555
C5 O3 1_555 1_555
C6 C5 1_555 1_555
H10 C6 1_555 1_555
H11 C6 1_555 1_555
H12 C6 1_555 1_555
C7 C5 1_555 1_555
H13 C7 1_555 1_555
H14 C7 1_555 1_555
H15 C7 1_555 1_555
C8 C5 1_555 1_555
H16 C8 1_555 1_555
H17 C8 1_555 1_555
H18 C8 1_555 1_555
C9 N1 1_555 1_555
H19 C9 1_555 1_555
C10 C9 1_555 1_555
H20 C10 1_555 1_555
C11 C10 1_555 1_555
C12 C11 1_555 1_555
H21 C12 1_555 1_555
C13 N1 1_555 1_555
H22 C13 1_555 1_555
H23 O5 1_555 1_555
H24 O5 1_555 1_555
N3 C14 1_555 1_555
N4 C16 1_555 1_555
C14 H25 1_555 1_555
C15 C14 1_555 1_555
H26 C15 1_555 1_555
C16 C15 1_555 1_555
C17 C16 1_555 1_555
H27 C17 1_555 1_555
C18 N3 1_555 1_555
H28 C18 1_555 1_555
N1A C9A 1_555 1_555
N2A N2 1_555 1_555
C9A H19A 1_555 1_555
C10A C9A 1_555 1_555
H20A C10A 1_555 1_555
C11A N2A 1_555 1_555
C12A C11A 1_555 1_555
H21A C12A 1_555 1_555
C13A N1A 1_555 1_555
H22A C13A 1_555 1_555
P1A O1A 1_555 1_555
O1A Cd1 1_555 1_555
O2A P1A 1_555 1_555
O3A P1A 1_555 1_555
O4A P1A 1_555 1_555
O5A Cd1 1_555 1_555
C1A O4A 1_555 1_555
C2A C1A 1_555 1_555
H1A C2A 1_555 1_555
H2A C2A 1_555 1_555
H3A C2A 1_555 1_555
C3A C1A 1_555 1_555
H4A C3A 1_555 1_555
H5A C3A 1_555 1_555
H6A C3A 1_555 1_555
C4A C1A 1_555 1_555
H7A C4A 1_555 1_555
H8A C4A 1_555 1_555
H9A C4A 1_555 1_555
C5A O3A 1_555 1_555
C6A C5A 1_555 1_555
H10A C6A 1_555 1_555
H11A C6A 1_555 1_555
H12A C6A 1_555 1_555
C7A C5A 1_555 1_555
H13A C7A 1_555 1_555
H14A C7A 1_555 1_555
H15A C7A 1_555 1_555
C8A C5A 1_555 1_555
H16A C8A 1_555 1_555
H17A C8A 1_555 1_555
H18A C8A 1_555 1_555
H23A O5A 1_555 1_555
H24A O5A 1_555 1_555
Cd1_2 N1A 1_555 1_555
N1A_2 Cd1 1_555 1_555
N3A C14A 1_555 1_555
N4A N4 1_555 1_555
C14A H25A 1_555 1_555
C15A C14A 1_555 1_555
H26A C15A 1_555 1_555
C16A N4A 1_555 1_555
C17A C16A 1_555 1_555
H27A C17A 1_555 1_555
C18A N3A 1_555 1_555
H28A C18A 1_555 1_555
C12 C13 1_555 1_555
C17 C18 1_555 1_555
C10A C11A 1_555 1_555
C12A C13A 1_555 1_555
C15A C16A 1_555 1_555
C17A C18A 1_555 1_555

#END
