
#######################################################################
#
#                 Cambridge Crystallographic Data Centre
#                                CCDC 
#
#######################################################################
#
# If this CIF has been generated from an entry in the Cambridge 
# Structural Database, then it will include bibliographic, chemical, 
# crystal, experimental, refinement or atomic coordinate data resulting 
# from the CCDC's data processing and validation procedures.
#
#######################################################################

data_KPHTCU
_symmetry_cell_setting           monoclinic
_symmetry_space_group_name_H-M   'C 2/c'
_symmetry_Int_Tables_number      15
_space_group_name_Hall           '-C 2yn'
loop_
_symmetry_equiv_pos_site_id
_symmetry_equiv_pos_as_xyz
1 x,y,z
2 1/2+x,1/2+y,z
3 -x,y,1/2-z
4 1/2-x,1/2+y,1/2-z
5 -x,-y,-z
6 1/2-x,1/2-y,-z
7 x,-y,1/2+z
8 1/2+x,1/2-y,1/2+z
_cell_length_a                   12.065(15)
_cell_length_b                   21.327(16)
_cell_length_c                   7.825(9)
_cell_angle_alpha                90
_cell_angle_beta                 113.9(1)
_cell_angle_gamma                90
_cell_volume                     1840.81
loop_
_atom_site_label
_atom_site_type_symbol
_atom_site_fract_x
_atom_site_fract_y
_atom_site_fract_z
Cu1 Cu 0.00000 0.23490 0.25000
O1 O 0.09300 0.18770 0.57460
O2 O 0.12370 0.16640 0.32220
O3 O 0.37400 0.20280 0.69270
O4 O 0.44330 0.16500 0.98350
C1 C 0.20950 0.09690 0.58040
C2 C 0.31760 0.09930 0.73600
C3 C 0.37560 0.04400 0.82130
C4 C 0.32020 -0.01350 0.74800
C5 C 0.21320 -0.01630 0.59860
C6 C 0.15440 0.03920 0.51230
C7 C 0.13940 0.15460 0.48860
C8 C 0.38420 0.15990 0.81540
H1 H 0.46800 0.04200 0.92900
H2 H 0.37300 -0.05300 0.82000
H3 H 0.15200 -0.05300 0.53500
H4 H 0.06200 0.03600 0.39800
O1B O -0.09300 0.18770 -0.07460
O2B O -0.12370 0.16640 0.17780
O3B O -0.37400 0.20280 -0.19270
O4B O -0.44330 0.16500 -0.48350
C1B C -0.20950 0.09690 -0.08040
C2B C -0.31760 0.09930 -0.23600
C3B C -0.37560 0.04400 -0.32130
C4B C -0.32020 -0.01350 -0.24800
C5B C -0.21320 -0.01630 -0.09860
C6B C -0.15440 0.03920 -0.01230
C7B C -0.13940 0.15460 0.01140
C8B C -0.38420 0.15990 -0.31540
H1B H -0.46800 0.04200 -0.42900
H2B H -0.37300 -0.05300 -0.32000
H3B H -0.15200 -0.05300 -0.03500
H4B H -0.06200 0.03600 0.10200
O3E O 0.12600 0.29720 0.30730
O3G O -0.12600 0.29720 0.19270
O4E O 0.05670 0.33500 0.01650
O4G O -0.05670 0.33500 0.48350
Cu1E Cu 0.50000 0.26510 0.75000
Cu1E_2 Cu -0.50000 0.26510 -0.25000
K1 K 0.33380 0.19670 0.26900
O5 O 0.35080 0.32020 0.05100
H5 H 0.35700 0.32800 0.14900
H6 H 0.42900 0.31500 0.03900
loop_
_geom_bond_atom_site_label_1
_geom_bond_atom_site_label_2
_geom_bond_site_symmetry_1
_geom_bond_site_symmetry_2
Cu1 O1 1_555 1_555
O1 C7 1_555 1_555
O2 Cu1 1_555 1_555
O3 C8 1_555 1_555
O4 C8 1_555 1_555
C1 C2 1_555 1_555
C2 C3 1_555 1_555
C3 C4 1_555 1_555
C4 C5 1_555 1_555
C5 C6 1_555 1_555
C6 C1 1_555 1_555
C7 O2 1_555 1_555
C8 C2 1_555 1_555
H1 C3 1_555 1_555
H2 C4 1_555 1_555
H3 C5 1_555 1_555
H4 C6 1_555 1_555
O5 H5 1_555 1_555
H6 O5 1_555 1_555
O1B Cu1 1_555 1_555
O2B Cu1 1_555 1_555
O3B C8B 1_555 1_555
O4B C8B 1_555 1_555
C1B C2B 1_555 1_555
C2B C3B 1_555 1_555
C3B C4B 1_555 1_555
C4B C5B 1_555 1_555
C5B C6B 1_555 1_555
C6B C1B 1_555 1_555
C7B O1B 1_555 1_555
C8B C2B 1_555 1_555
H1B C3B 1_555 1_555
H2B C4B 1_555 1_555
H3B C5B 1_555 1_555
H4B C6B 1_555 1_555
O3E Cu1 1_555 1_555
O3G Cu1 1_555 1_555
O4E Cu1 1_555 1_555
O4G Cu1 1_555 1_555
Cu1E O3 1_555 1_555
Cu1E_2 O3B 1_555 1_555
O4 Cu1E 1_555 1_555
C1 C7 1_555 1_555
O2B C7B 1_555 1_555
O4B Cu1E_2 1_555 1_555
C1B C7B 1_555 1_555

#END
