
#######################################################################
#
#                 Cambridge Crystallographic Data Centre
#                                CCDC 
#
#######################################################################
#
# If this CIF has been generated from an entry in the Cambridge 
# Structural Database, then it will include bibliographic, chemical, 
# crystal, experimental, refinement or atomic coordinate data resulting 
# from the CCDC's data processing and validation procedures.
#
#######################################################################

data_KTHTOT10
_symmetry_cell_setting           triclinic
_symmetry_space_group_name_H-M   'P -1'
_symmetry_Int_Tables_number      2
_space_group_name_Hall           '-P 1'
loop_
_symmetry_equiv_pos_site_id
_symmetry_equiv_pos_as_xyz
1 x,y,z
2 -x,-y,-z
_cell_length_a                   9.562(18)
_cell_length_b                   13.087(25)
_cell_length_c                   10.387(20)
_cell_angle_alpha                115.75(3)
_cell_angle_beta                 80.90(3)
_cell_angle_gamma                112.66(33)
_cell_volume                     1080.3
loop_
_atom_site_label
_atom_site_type_symbol
_atom_site_fract_x
_atom_site_fract_y
_atom_site_fract_z
C1 C 0.06290 -0.01040 0.02070
C2 C 0.44970 0.49040 -0.06280
C3 C 0.07730 0.27610 0.36300
C4 C 0.24910 0.31760 0.38860
C5 C 0.00810 0.43560 0.10360
C6 C 0.14750 0.53240 0.19870
C7 C 0.28050 0.11840 -0.28670
C8 C 0.40840 0.13170 -0.21270
O1 O 0.18850 0.08460 0.05510
O2 O 0.24100 0.49150 0.20590
O3 O -0.11070 0.45440 0.12450
O4 O 0.16670 0.64320 0.24700
O5 O 0.17630 0.15640 -0.20850
O6 O 0.42410 0.20040 -0.08550
O7 O 0.26310 0.05970 -0.41960
O8 O 0.50050 0.08320 -0.28980
O12 O 0.04200 -0.10770 0.02290
O14 O 0.32710 0.40090 -0.09300
O15 O 0.50300 0.56640 -0.11100
O16 O 0.03830 0.26130 0.24310
O17 O 0.32950 0.31710 0.27910
O18 O -0.01820 0.25530 0.45650
O19 O 0.29270 0.35540 0.51040
O20 O 0.02830 0.33810 0.01880
Th1 Th 0.22478 0.27945 0.05313
C1A C -0.06290 0.01040 -0.02070
O1A O -0.18850 -0.08460 -0.05510
O12A O -0.04200 0.10770 -0.02290
C2A C 0.55030 0.50960 0.06280
O14A O 0.67290 0.59910 0.09300
O15A O 0.49700 0.43360 0.11100
Th1A Th -0.22478 -0.27945 -0.05313
C5A C -0.00810 -0.43560 -0.10360
C6A C -0.14750 -0.53240 -0.19870
O2A O -0.24100 -0.49150 -0.20590
O3A O 0.11070 -0.45440 -0.12450
O4A O -0.16670 -0.64320 -0.24700
O20A O -0.02830 -0.33810 -0.01880
C7A C -0.28050 -0.11840 0.28670
C8A C -0.40840 -0.13170 0.21270
O5A O -0.17630 -0.15640 0.20850
O6A O -0.42410 -0.20040 0.08550
O7A O -0.26310 -0.05970 0.41960
O8A O -0.50050 -0.08320 0.28980
C3A C -0.07730 -0.27610 -0.36300
C4A C -0.24910 -0.31760 -0.38860
O16A O -0.03830 -0.26130 -0.24310
O17A O -0.32950 -0.31710 -0.27910
O18A O 0.01820 -0.25530 -0.45650
O19A O -0.29270 -0.35540 -0.51040
Th1A_2 Th 0.77522 0.72055 -0.05313
O14A_2 O -0.32710 -0.40090 0.09300
O15_2 O -0.49700 -0.43360 -0.11100
K1 K 0.26680 0.79800 0.08510
K2 K 0.90680 0.69410 0.28720
K3 K 0.63660 0.39730 0.30400
K4 K 0.66990 0.16170 0.50320
O9 O 0.12910 0.92570 0.32220
O10 O 0.72510 0.20410 0.21770
O11 O 0.42750 0.65290 0.45350
O13 O 0.40570 0.07130 0.19350
loop_
_geom_bond_atom_site_label_1
_geom_bond_atom_site_label_2
_geom_bond_site_symmetry_1
_geom_bond_site_symmetry_2
C1 O1 1_555 1_555
C2 O14 1_555 1_555
C3 C4 1_555 1_555
C4 O17 1_555 1_555
C5 C6 1_555 1_555
C6 O2 1_555 1_555
C7 C8 1_555 1_555
C8 O6 1_555 1_555
O1 Th1 1_555 1_555
O2 Th1 1_555 1_555
O3 C5 1_555 1_555
O4 C6 1_555 1_555
O5 C7 1_555 1_555
O6 Th1 1_555 1_555
O7 C7 1_555 1_555
O8 C8 1_555 1_555
O12 C1 1_555 1_555
O14 Th1 1_555 1_555
O15 C2 1_555 1_555
O16 C3 1_555 1_555
O17 Th1 1_555 1_555
O18 C3 1_555 1_555
O19 C4 1_555 1_555
O20 C5 1_555 1_555
Th1 O5 1_555 1_555
C1A C1 1_555 1_555
O1A C1A 1_555 1_555
O12A Th1 1_555 1_555
C2A C2 1_555 1_555
O14A C2A 1_555 1_555
O15A Th1 1_555 1_555
Th1A O12 1_555 1_555
C5A C6A 1_555 1_555
C6A O2A 1_555 1_555
O2A Th1A 1_555 1_555
O3A C5A 1_555 1_555
O4A C6A 1_555 1_555
O20A Th1A 1_555 1_555
C7A C8A 1_555 1_555
C8A O6A 1_555 1_555
O5A Th1A 1_555 1_555
O6A Th1A 1_555 1_555
O7A C7A 1_555 1_555
O8A C8A 1_555 1_555
C3A C4A 1_555 1_555
C4A O17A 1_555 1_555
O16A Th1A 1_555 1_555
O17A Th1A 1_555 1_555
O18A C3A 1_555 1_555
O19A C4A 1_555 1_555
Th1A_2 O15 1_555 1_555
O14A_2 Th1A 1_555 1_555
O15_2 Th1A 1_555 1_555
O16 Th1 1_555 1_555
O20 Th1 1_555 1_555
C1A O12A 1_555 1_555
O1A Th1A 1_555 1_555
C2A O15A 1_555 1_555
O14A Th1A_2 1_555 1_555
C5A O20A 1_555 1_555
C7A O5A 1_555 1_555
C3A O16A 1_555 1_555

#END
