
#######################################################################
#
#                 Cambridge Crystallographic Data Centre
#                                CCDC 
#
#######################################################################
#
# If this CIF has been generated from an entry in the Cambridge 
# Structural Database, then it will include bibliographic, chemical, 
# crystal, experimental, refinement or atomic coordinate data resulting 
# from the CCDC's data processing and validation procedures.
#
#######################################################################

data_KUBCUH
_symmetry_cell_setting           triclinic
_symmetry_space_group_name_H-M   'P -1'
_symmetry_Int_Tables_number      2
_space_group_name_Hall           '-P 1'
loop_
_symmetry_equiv_pos_site_id
_symmetry_equiv_pos_as_xyz
1 x,y,z
2 -x,-y,-z
_cell_length_a                   7.23(2)
_cell_length_b                   11.02(4)
_cell_length_c                   14.09(4)
_cell_angle_alpha                104.67(4)
_cell_angle_beta                 96.20(2)
_cell_angle_gamma                104.44(7)
_cell_volume                     1034.01
loop_
_atom_site_label
_atom_site_type_symbol
_atom_site_fract_x
_atom_site_fract_y
_atom_site_fract_z
Co1 Co 1.0000 0.0000 0.0000
O1 O 0.9571(5) -0.0002(3) -0.1528(2)
O2 O 1.3083(5) 0.0737(3) 0.0081(2)
N1 N 0.9841(6) 0.2027(4) 0.0505(3)
N2 N 0.5935(6) 0.5001(4) 0.0244(3)
C1 C 0.8252(7) 0.2357(5) 0.0151(4)
H1 H 0.7248 0.1695 -0.0335
C2 C 0.8022(7) 0.3622(4) 0.0467(4)
C3 C 0.9549(8) 0.4600(5) 0.1172(4)
H2 H 0.9476 0.5473 0.1399
C4 C 1.1193(8) 0.4255(5) 0.1535(4)
H3 H 1.2224 0.4894 0.2021
C5 C 1.1290(7) 0.2987(5) 0.1181(4)
H4 H 1.2416 0.2778 0.1420
C6 C 0.6149(7) 0.3837(5) 0.0037(4)
H5 H 1.0479 0.0318 -0.1818
H6 H 0.8692 -0.0641 -0.2197
H7 H 1.4024 0.1375 0.0770
H8 H 1.3550 0.0351 -0.0331
N1A N 0.0159(6) 0.7973(4) -0.0505(3)
N2A N 0.4065(6) 0.4999(4) -0.0244(3)
C1A C 0.1748(7) 0.7643(5) -0.0151(4)
H1A H 0.2752 0.8305 0.0335
C2A C 0.1978(7) 0.6378(4) -0.0467(4)
C3A C 0.0451(8) 0.5400(5) -0.1172(4)
H2A H 0.0524 0.4527 -0.1399
C4A C -0.1193(8) 0.5745(5) -0.1535(4)
H3A H -0.2224 0.5106 -0.2021
C5A C -0.1290(7) 0.7013(5) -0.1181(4)
H4A H -0.2416 0.7222 -0.1420
C6A C 0.3851(7) 0.6163(5) -0.0037(4)
O1A O 1.0429(5) 0.0002(3) 0.1528(2)
H5A H 0.9521 -0.0318 0.1818
H6A H 1.1308 0.0641 0.2197
O2A O 0.6917(5) -0.0737(3) -0.0081(2)
H7A H 0.5976 -0.1375 -0.0770
H8A H 0.6450 -0.0351 0.0331
Co1_2 Co 0.0000 1.0000 0.0000
N1A_2 N 1.0159(6) -0.2027(4) -0.0505(3)
P1 P 0.54123(18) 0.01835(12) 0.24462(9)
O3 O 0.7048(5) -0.0570(3) 0.2600(3)
O4 O 0.5812(6) 0.1386(4) 0.3437(3)
O5 O 0.5850(5) 0.0654(3) 0.1541(2)
O6 O 0.3386(5) -0.0675(4) 0.2383(3)
C7 C 0.7093(7) -0.1462(5) 0.3262(4)
C8 C 0.6795(10) -0.0782(6) 0.4320(4)
H9 H 0.7817 0.0051 0.4605
H10 H 0.6858 -0.1351 0.4749
H11 H 0.5522 -0.0617 0.4273
C9 C 0.5488(9) -0.2768(5) 0.2805(5)
H12 H 0.5679 -0.3191 0.2137
H13 H 0.4216 -0.2602 0.2759
H14 H 0.5547 -0.3343 0.3230
C10 C 0.9135(9) -0.1684(7) 0.3284(6)
H15 H 1.0136 -0.0842 0.3572
H16 H 0.9292 -0.2080 0.2602
H17 H 0.9266 -0.2271 0.3690
C11 C 0.7242(9) 0.2701(5) 0.3698(4)
C12 C 0.7316(11) 0.3288(7) 0.4828(5)
H18 H 0.7770 0.2739 0.5195
H19 H 0.6014 0.3318 0.4945
H20 H 0.8211 0.4177 0.5058
C13 C 0.6542(12) 0.3522(6) 0.3083(5)
H21 H 0.6509 0.3119 0.2374
H22 H 0.7434 0.4411 0.3296
H23 H 0.5236 0.3558 0.3186
C14 C 0.9309(9) 0.2557(7) 0.3526(6)
H24 H 0.9699 0.2018 0.3921
H25 H 1.0259 0.3426 0.3732
H26 H 0.9252 0.2138 0.2817
loop_
_geom_bond_atom_site_label_1
_geom_bond_atom_site_label_2
_geom_bond_site_symmetry_1
_geom_bond_site_symmetry_2
Co1 O1 1_555 1_555
O1 H5 1_555 1_555
O2 Co1 1_555 1_555
N1 Co1 1_555 1_555
N2 C6 1_555 1_555
C1 N1 1_555 1_555
H1 C1 1_555 1_555
C2 C1 1_555 1_555
C3 C2 1_555 1_555
H2 C3 1_555 1_555
C4 C3 1_555 1_555
H3 C4 1_555 1_555
C5 N1 1_555 1_555
H4 C5 1_555 1_555
C6 C2 1_555 1_555
H6 O1 1_555 1_555
H7 O2 1_555 1_555
H8 O2 1_555 1_555
P1 O3 1_555 1_555
O3 C7 1_555 1_555
O4 P1 1_555 1_555
O5 P1 1_555 1_555
O6 P1 1_555 1_555
C7 C8 1_555 1_555
C8 H9 1_555 1_555
H10 C8 1_555 1_555
H11 C8 1_555 1_555
C9 C7 1_555 1_555
H12 C9 1_555 1_555
H13 C9 1_555 1_555
H14 C9 1_555 1_555
C10 C7 1_555 1_555
H15 C10 1_555 1_555
H16 C10 1_555 1_555
H17 C10 1_555 1_555
C11 O4 1_555 1_555
C12 C11 1_555 1_555
H18 C12 1_555 1_555
H19 C12 1_555 1_555
H20 C12 1_555 1_555
C13 C11 1_555 1_555
H21 C13 1_555 1_555
H22 C13 1_555 1_555
H23 C13 1_555 1_555
C14 C11 1_555 1_555
H24 C14 1_555 1_555
H25 C14 1_555 1_555
H26 C14 1_555 1_555
N1A C1A 1_555 1_555
N2A N2 1_555 1_555
C1A H1A 1_555 1_555
C2A C1A 1_555 1_555
C3A C2A 1_555 1_555
H2A C3A 1_555 1_555
C4A C3A 1_555 1_555
H3A C4A 1_555 1_555
C5A N1A 1_555 1_555
H4A C5A 1_555 1_555
C6A N2A 1_555 1_555
O1A Co1 1_555 1_555
H5A O1A 1_555 1_555
H6A O1A 1_555 1_555
O2A Co1 1_555 1_555
H7A O2A 1_555 1_555
H8A O2A 1_555 1_555
Co1_2 N1A 1_555 1_555
N1A_2 Co1 1_555 1_555
C4 C5 1_555 1_555
C2A C6A 1_555 1_555
C4A C5A 1_555 1_555

#END
