
#######################################################################
#
#                 Cambridge Crystallographic Data Centre
#                                CCDC 
#
#######################################################################
#
# If this CIF has been generated from an entry in the Cambridge 
# Structural Database, then it will include bibliographic, chemical, 
# crystal, experimental, refinement or atomic coordinate data resulting 
# from the CCDC's data processing and validation procedures.
#
#######################################################################

data_KUBCIV
_symmetry_cell_setting           triclinic
_symmetry_space_group_name_H-M   'P -1'
_symmetry_Int_Tables_number      2
_space_group_name_Hall           '-P 1'
loop_
_symmetry_equiv_pos_site_id
_symmetry_equiv_pos_as_xyz
1 x,y,z
2 -x,-y,-z
_cell_length_a                   7.026(3)
_cell_length_b                   10.737(5)
_cell_length_c                   13.782(6)
_cell_angle_alpha                104.485(5)
_cell_angle_beta                 96.215(8)
_cell_angle_gamma                103.909(3)
_cell_volume                     961.313
loop_
_atom_site_label
_atom_site_type_symbol
_atom_site_fract_x
_atom_site_fract_y
_atom_site_fract_z
Ni1 Ni 0.0000 0.0000 1.0000
O1 O 0.0424(3) 0.00229(18) 1.15151(13)
O2 O 0.3019(2) 0.07379(17) 1.00672(13)
H1 H 0.3642 0.0676 1.0601
N1 N 0.0151(3) -0.19796(19) 0.95194(15)
N2 N 0.4057(3) -0.5010(2) 0.97530(17)
C1 C -0.1298(4) -0.2932(3) 0.8831(2)
H2 H -0.2436 -0.2702 0.8573
C2 C -0.1208(4) -0.4240(3) 0.8478(2)
H3 H -0.2275 -0.4892 0.7994
C3 C 0.0440(4) -0.4586(2) 0.8833(2)
H4 H 0.0529 -0.5478 0.8599
C4 C 0.1969(4) -0.3606(2) 0.95408(18)
C5 C 0.1743(4) -0.2330(2) 0.98637(18)
H5 H 0.2777 -0.1664 1.0358
C6 C 0.3816(4) -0.3835(3) 0.99607(19)
H6 H 0.4851 -0.3100 1.0394
H7 H 0.124(6) -0.025(4) 1.177(3)
H8 H -0.057(6) -0.015(3) 1.176(3)
H9 H 0.334(4) 0.035(3) 0.9581(17)
N1A N 0.9849(3) -0.80204(19) 1.04806(15)
N2A N 0.5943(3) -0.4990(2) 1.02470(17)
C1A C 1.1298(4) -0.7068(3) 1.1169(2)
H2A H 1.2436 -0.7298 1.1427
C2A C 1.1208(4) -0.5760(3) 1.1522(2)
H3A H 1.2275 -0.5108 1.2006
C3A C 0.9560(4) -0.5414(2) 1.1167(2)
H4A H 0.9471 -0.4522 1.1401
C4A C 0.8031(4) -0.6394(2) 1.04592(18)
C5A C 0.8257(4) -0.7670(2) 1.01363(18)
H5A H 0.7223 -0.8336 0.9642
C6A C 0.6184(4) -0.6165(3) 1.00393(19)
H6A H 0.5149 -0.6900 0.9606
O1A O -0.0424(3) -0.00229(18) 0.84849(13)
O2A O -0.3019(2) -0.07379(17) 0.99328(13)
H1A H -0.3642 -0.0676 0.9399
H7A H -0.124(6) 0.025(4) 0.823(3)
H8A H 0.057(6) 0.015(3) 0.824(3)
H9A H -0.334(4) -0.035(3) 1.0419(17)
Ni1_2 Ni 1.0000 -1.0000 1.0000
N1A_2 N -0.0151(3) 0.19796(19) 1.04806(15)
P1 P 0.46001(9) -0.01773(6) 0.75570(4)
O3 O 0.2952(2) 0.05929(17) 0.74047(12)
O4 O 0.6636(3) 0.06879(19) 0.76181(14)
O5 O 0.4205(3) -0.13907(18) 0.65621(13)
O6 O 0.4171(2) -0.06589(17) 0.84661(12)
C7 C 0.0699(5) -0.2542(3) 0.6478(3)
H10 H 0.0729 -0.2200 0.7211
H11 H -0.0297 -0.3415 0.6208
H12 H 0.0352 -0.1913 0.6131
C8 C 0.2754(5) -0.2697(3) 0.6299(2)
C9 C 0.2709(6) -0.3277(3) 0.5170(2)
H13 H 0.1834 -0.4195 0.4936
H14 H 0.4060 -0.3283 0.5054
H15 H 0.2206 -0.2728 0.4790
C10 C 0.3451(6) -0.3537(3) 0.6917(3)
H16 H 0.2464 -0.4412 0.6747
H17 H 0.3608 -0.3083 0.7644
H18 H 0.4732 -0.3660 0.6759
C11 C 0.2905(4) 0.1478(3) 0.67401(19)
C12 C 0.3176(5) 0.0793(3) 0.5681(2)
H19 H 0.2098 -0.0038 0.5389
H20 H 0.4461 0.0585 0.5722
H21 H 0.3144 0.1388 0.5248
C13 C 0.0857(5) 0.1704(4) 0.6728(3)
H22 H 0.0755 0.2198 0.7413
H23 H -0.0161 0.0838 0.6510
H24 H 0.0652 0.2222 0.6252
C14 C 0.4503(5) 0.2789(3) 0.7208(2)
H25 H 0.4238 0.3239 0.7870
H26 H 0.4499 0.3363 0.6756
H27 H 0.5807 0.2615 0.7300
loop_
_geom_bond_atom_site_label_1
_geom_bond_atom_site_label_2
_geom_bond_site_symmetry_1
_geom_bond_site_symmetry_2
Ni1 O1 1_555 1_555
O1 H7 1_555 1_555
O2 Ni1 1_555 1_555
H1 O2 1_555 1_555
N1 Ni1 1_555 1_555
N2 C6 1_555 1_555
C1 N1 1_555 1_555
H2 C1 1_555 1_555
C2 C1 1_555 1_555
H3 C2 1_555 1_555
C3 C2 1_555 1_555
H4 C3 1_555 1_555
C4 C3 1_555 1_555
C5 N1 1_555 1_555
H5 C5 1_555 1_555
C6 C4 1_555 1_555
H6 C6 1_555 1_555
H8 O1 1_555 1_555
H9 O2 1_555 1_555
P1 O3 1_555 1_555
O3 C11 1_555 1_555
O4 P1 1_555 1_555
O5 P1 1_555 1_555
O6 P1 1_555 1_555
C7 H10 1_555 1_555
H11 C7 1_555 1_555
H12 C7 1_555 1_555
C8 O5 1_555 1_555
C9 C8 1_555 1_555
H13 C9 1_555 1_555
H14 C9 1_555 1_555
H15 C9 1_555 1_555
C10 C8 1_555 1_555
H16 C10 1_555 1_555
H17 C10 1_555 1_555
H18 C10 1_555 1_555
C11 C12 1_555 1_555
C12 H19 1_555 1_555
H20 C12 1_555 1_555
H21 C12 1_555 1_555
C13 C11 1_555 1_555
H22 C13 1_555 1_555
H23 C13 1_555 1_555
H24 C13 1_555 1_555
C14 C11 1_555 1_555
H25 C14 1_555 1_555
H26 C14 1_555 1_555
H27 C14 1_555 1_555
N1A C1A 1_555 1_555
N2A N2 1_555 1_555
C1A H2A 1_555 1_555
C2A C1A 1_555 1_555
H3A C2A 1_555 1_555
C3A C2A 1_555 1_555
H4A C3A 1_555 1_555
C4A C3A 1_555 1_555
C5A N1A 1_555 1_555
H5A C5A 1_555 1_555
C6A N2A 1_555 1_555
H6A C6A 1_555 1_555
O1A Ni1 1_555 1_555
O2A Ni1 1_555 1_555
H1A O2A 1_555 1_555
H7A O1A 1_555 1_555
H8A O1A 1_555 1_555
H9A O2A 1_555 1_555
Ni1_2 N1A 1_555 1_555
N1A_2 Ni1 1_555 1_555
C4 C5 1_555 1_555
C7 C8 1_555 1_555
C4A C5A 1_555 1_555
C4A C6A 1_555 1_555

#END
