
#######################################################################
#
#                 Cambridge Crystallographic Data Centre
#                                CCDC 
#
#######################################################################
#
# If this CIF has been generated from an entry in the Cambridge 
# Structural Database, then it will include bibliographic, chemical, 
# crystal, experimental, refinement or atomic coordinate data resulting 
# from the CCDC's data processing and validation procedures.
#
#######################################################################

data_KUBCIU
_symmetry_cell_setting           monoclinic
_symmetry_space_group_name_H-M   'C c'
_symmetry_Int_Tables_number      9
_space_group_name_Hall           'C -2yc'
loop_
_symmetry_equiv_pos_site_id
_symmetry_equiv_pos_as_xyz
1 x,y,z
2 x,-y,1/2+z
3 1/2+x,1/2+y,z
4 1/2+x,1/2-y,1/2+z
_cell_length_a                   7.8972(11)
_cell_length_b                   14.975(2)
_cell_length_c                   10.4944(14)
_cell_angle_alpha                90
_cell_angle_beta                 95.140(3)
_cell_angle_gamma                90
_cell_volume                     1236.08
loop_
_atom_site_label
_atom_site_type_symbol
_atom_site_fract_x
_atom_site_fract_y
_atom_site_fract_z
Cu1 Cu 0.4992(2) 0.10253(6) 0.61722(15)
S1 S 0.7887(4) 0.0790(3) 0.4292(3)
S2 S 0.2282(5) 0.1011(2) 0.8234(3)
N1 N 0.3391(17) 0.2005(6) 0.5576(8)
N2 N 0.6491(12) 0.2077(5) 0.6685(8)
N3 N 0.2746(16) 0.3447(6) 0.5443(9)
H1 H 0.2800 0.4034 0.5490
N4 N 0.6315(15) -0.0195(6) 0.2251(10)
N5 N 0.3679(14) -0.0124(7) 1.0102(9)
C1 C 0.8062(19) 0.2043(7) 0.7219(12)
H2 H 0.8594 0.1484 0.7410
C2 C 0.8960(15) 0.2859(8) 0.7509(10)
H3 H 1.0107 0.2856 0.7870
C3 C 0.8121(17) 0.3632(7) 0.7250(11)
H4 H 0.8713 0.4173 0.7451
C4 C 0.6538(18) 0.3690(7) 0.6739(10)
H5 H 0.5972 0.4243 0.6576
C5 C 0.5776(19) 0.2876(7) 0.6462(11)
C6 C 0.410(2) 0.2835(8) 0.5864(11)
C7 C 0.1796(16) 0.2117(8) 0.5056(11)
H6 H 0.1062 0.1637 0.4788
C8 C 0.1356(16) 0.2957(10) 0.4955(10)
H7 H 0.0288 0.3186 0.4613
C9 C 0.6984(17) 0.0202(7) 0.3100(11)
C10 C 0.3120(16) 0.0332(6) 0.9362(11)
Cu1A Cu 0.4992(2) -0.10253(6) 0.11722(15)
Cu1A_2 Cu 0.4992(2) -0.10253(6) 1.11722(15)
N4A N 0.6315(15) 0.0195(6) 0.7251(10)
N5A N 0.3679(14) 0.0124(7) 0.5102(9)
loop_
_geom_bond_atom_site_label_1
_geom_bond_atom_site_label_2
_geom_bond_site_symmetry_1
_geom_bond_site_symmetry_2
Cu1 S1 1_555 1_555
S1 C9 1_555 1_555
S2 Cu1 1_555 1_555
N1 Cu1 1_555 1_555
N2 Cu1 1_555 1_555
N3 H1 1_555 1_555
N4 C9 1_555 1_555
N5 C10 1_555 1_555
C1 N2 1_555 1_555
H2 C1 1_555 1_555
C2 C1 1_555 1_555
H3 C2 1_555 1_555
C3 C2 1_555 1_555
H4 C3 1_555 1_555
C4 C3 1_555 1_555
H5 C4 1_555 1_555
C5 N2 1_555 1_555
C6 N1 1_555 1_555
C7 N1 1_555 1_555
H6 C7 1_555 1_555
C8 N3 1_555 1_555
H7 C8 1_555 1_555
C10 S2 1_555 1_555
Cu1A N4 1_555 1_555
Cu1A_2 N5 1_555 1_555
N4A Cu1 1_555 1_555
N5A Cu1 1_555 1_555
N3 C6 1_555 1_555
C4 C5 1_555 1_555
C5 C6 1_555 1_555
C7 C8 1_555 1_555

#END
