
#######################################################################
#
#                 Cambridge Crystallographic Data Centre
#                                CCDC 
#
#######################################################################
#
# If this CIF has been generated from an entry in the Cambridge 
# Structural Database, then it will include bibliographic, chemical, 
# crystal, experimental, refinement or atomic coordinate data resulting 
# from the CCDC's data processing and validation procedures.
#
#######################################################################

data_KUBDES
_symmetry_cell_setting           monoclinic
_symmetry_space_group_name_H-M   'P 21/c'
_symmetry_Int_Tables_number      14
_space_group_name_Hall           '-P 2ybc'
loop_
_symmetry_equiv_pos_site_id
_symmetry_equiv_pos_as_xyz
1 x,y,z
2 -x,1/2+y,1/2-z
3 -x,-y,-z
4 x,1/2-y,1/2+z
_cell_length_a                   9.877(4)
_cell_length_b                   23.870(9)
_cell_length_c                   24.139(9)
_cell_angle_alpha                90
_cell_angle_beta                 97.363(9)
_cell_angle_gamma                90
_cell_volume                     5644.18
loop_
_atom_site_label
_atom_site_type_symbol
_atom_site_fract_x
_atom_site_fract_y
_atom_site_fract_z
Cd1 Cd 0.22904(4) 0.231018(18) 0.736132(18)
P1 P 0.29626(18) 0.15310(9) 0.61971(9)
P2 P 0.18661(15) 0.32807(6) 0.85176(7)
O1 O 0.2590(5) 0.1604(2) 0.6770(2)
O2 O 0.2401(6) 0.1940(4) 0.5775(3)
O3 O 0.4581(4) 0.15216(19) 0.6274(2)
O4 O 0.2655(8) 0.0916(4) 0.5976(4)
O5 O 0.1735(5) 0.28909(19) 0.80267(19)
O6 O 0.2617(5) 0.3069(2) 0.90478(19)
O7 O 0.2524(5) 0.38329(18) 0.82946(18)
O8 O 0.0389(4) 0.35186(18) 0.85951(19)
N1 N 0.1161(5) 0.1616(2) 0.7880(2)
N2 N 0.0146(6) 0.0790(2) 0.9596(2)
N3 N 0.0404(5) 0.0856(2) 1.0178(2)
N4 N -0.1702(6) 0.0483(3) 1.1835(2)
N5 N 0.3534(5) 0.3046(2) 0.6950(2)
N6 N 0.4730(6) 0.4128(2) 0.5405(2)
N7 N 0.4490(6) 0.4156(2) 0.4823(2)
N8 N 0.6478(6) 0.4767(2) 0.3210(2)
N9 N 0.0182(5) 0.2574(2) 0.6862(2)
N10 N -0.2643(5) 0.3114(2) 0.5193(2)
N11 N -0.2704(5) 0.3157(2) 0.4612(2)
N12 N -0.5585(5) 0.2889(2) 0.2883(2)
C1 C 0.0367(6) 0.1240(3) 0.7578(3)
H1 H 0.0277 0.1264 0.7182
C2 C -0.0329(6) 0.0816(3) 0.7821(3)
H2 H -0.0890 0.0560 0.7594
C3 C -0.0193(6) 0.0773(3) 0.8394(3)
H3 H -0.0646 0.0483 0.8566
C4 C 0.0618(6) 0.1163(2) 0.8721(3)
C5 C 0.1270(6) 0.1569(3) 0.8436(3)
H4 H 0.1832 0.1833 0.8652
C6 C 0.0787(6) 0.1152(3) 0.9332(3)
H5 H 0.1376 0.1415 0.9537
C7 C -0.0493(7) 0.0612(3) 1.0436(3)
H6 H -0.1200 0.0408 1.0221
C8 C -0.0484(6) 0.0633(2) 1.1037(3)
C9 C -0.1615(7) 0.0467(3) 1.1283(3)
H7 H -0.2385 0.0332 1.1044
C10 C -0.0624(7) 0.0688(3) 1.2161(3)
H8 H -0.0670 0.0714 1.2551
C11 C 0.0563(8) 0.0866(3) 1.1961(3)
H9 H 0.1310 0.1004 1.2211
C12 C 0.0641(7) 0.0839(3) 1.1396(3)
H10 H 0.1444 0.0958 1.1250
C13 C 0.4265(6) 0.3390(3) 0.7321(3)
H11 H 0.4287 0.3318 0.7709
C14 C 0.4977(6) 0.3842(3) 0.7154(3)
H12 H 0.5494 0.4071 0.7426
C15 C 0.4945(6) 0.3964(3) 0.6595(3)
H13 H 0.5430 0.4277 0.6479
C16 C 0.4186(6) 0.3618(3) 0.6199(3)
C17 C 0.3510(6) 0.3156(3) 0.6409(3)
H14 H 0.3011 0.2911 0.6148
C18 C 0.4077(6) 0.3719(3) 0.5596(3)
H15 H 0.3522 0.3482 0.5345
C19 C 0.5403(6) 0.4435(3) 0.4606(3)
H16 H 0.6131 0.4603 0.4844
C20 C 0.5346(6) 0.4499(2) 0.4006(3)
C21 C 0.6434(7) 0.4715(3) 0.3763(3)
H17 H 0.7212 0.4835 0.4006
C22 C 0.5369(7) 0.4602(3) 0.2883(3)
H18 H 0.5376 0.4624 0.2491
C23 C 0.4202(7) 0.4399(3) 0.3074(3)
H19 H 0.3422 0.4300 0.2821
C24 C 0.4201(7) 0.4346(3) 0.3637(3)
H20 H 0.3416 0.4203 0.3778
C25 C -0.0775(7) 0.2754(3) 0.7170(3)
H21 H -0.0609 0.2709 0.7564
C26 C -0.1980(6) 0.2998(3) 0.6945(3)
H22 H -0.2634 0.3114 0.7177
C27 C -0.2222(6) 0.3072(3) 0.6372(3)
H23 H -0.3041 0.3246 0.6208
C28 C -0.1254(6) 0.2890(3) 0.6037(3)
C29 C -0.0067(6) 0.2637(3) 0.6304(3)
H24 H 0.0592 0.2504 0.6082
C30 C -0.1472(6) 0.2959(3) 0.5426(3)
H25 H -0.0752 0.2890 0.5209
C31 C -0.3877(6) 0.3036(2) 0.4355(3)
H26 H -0.4601 0.2930 0.4557
C32 C -0.4094(6) 0.3063(2) 0.3739(3)
C33 C -0.5311(6) 0.2859(2) 0.3446(3)
H27 H -0.5968 0.2694 0.3650
C34 C -0.4617(6) 0.3104(3) 0.2599(3)
H28 H -0.4786 0.3116 0.2202
C35 C -0.3379(6) 0.3309(3) 0.2862(3)
H29 H -0.2721 0.3459 0.2648
C36 C -0.3125(6) 0.3293(3) 0.3433(3)
H30 H -0.2292 0.3437 0.3620
C37 C 0.5542(6) 0.1490(3) 0.5862(3)
C38 C 0.5379(8) 0.1987(4) 0.5468(5)
H31 H 0.4472 0.1975 0.5249
H32 H 0.6079 0.1971 0.5215
H33 H 0.5479 0.2335 0.5684
C39 C 0.5346(8) 0.0944(4) 0.5529(4)
H34 H 0.4452 0.0947 0.5299
H35 H 0.5396 0.0626 0.5787
H36 H 0.6066 0.0909 0.5286
C40 C 0.6918(7) 0.1479(4) 0.6207(4)
H37 H 0.6980 0.1153 0.6455
H38 H 0.7044 0.1822 0.6430
H39 H 0.7630 0.1456 0.5960
C41 C 0.1616(7) 0.0532(3) 0.6046(3)
C42 C 0.1685(9) 0.0121(3) 0.5564(3)
H40 H 0.2573 -0.0069 0.5612
H41 H 0.1572 0.0326 0.5209
H42 H 0.0956 -0.0158 0.5562
C43 C 0.0251(8) 0.0822(4) 0.5980(4)
H43 H 0.0116 0.1021 0.5622
H44 H 0.0223 0.1091 0.6285
H45 H -0.0475 0.0544 0.5991
C44 C 0.1862(15) 0.0235(5) 0.6604(4)
H46 H 0.2750 0.0046 0.6640
H47 H 0.1140 -0.0042 0.6628
H48 H 0.1854 0.0509 0.6906
C45 C 0.3159(8) 0.4296(3) 0.8640(3)
C46 C 0.2450(8) 0.4415(3) 0.9154(3)
H49 H 0.1493 0.4513 0.9036
H50 H 0.2908 0.4727 0.9365
H51 H 0.2494 0.4080 0.9391
C47 C 0.4631(8) 0.4146(5) 0.8811(4)
H52 H 0.5075 0.4074 0.8478
H53 H 0.4684 0.3808 0.9045
H54 H 0.5094 0.4456 0.9024
C48 C 0.2957(12) 0.4787(3) 0.8228(4)
H55 H 0.1980 0.4863 0.8134
H56 H 0.3350 0.4692 0.7887
H57 H 0.3413 0.5121 0.8399
C49 C -0.0608(7) 0.3261(3) 0.8921(3)
C50 C -0.0543(8) 0.2623(3) 0.8898(3)
H58 H -0.0727 0.2499 0.8509
H59 H -0.1227 0.2464 0.9113
H60 H 0.0368 0.2498 0.9058
C51 C -0.1976(7) 0.3470(4) 0.8635(4)
H61 H -0.2124 0.3328 0.8251
H62 H -0.1977 0.3880 0.8630
H63 H -0.2708 0.3335 0.8839
C52 C -0.0333(8) 0.3469(3) 0.9517(3)
H64 H 0.0550 0.3326 0.9691
H65 H -0.1055 0.3337 0.9728
H66 H -0.0316 0.3880 0.9519
Cd1C Cd -0.77096(4) 0.268982(18) 0.236132(18)
N12C N 0.4415(5) 0.2111(2) 0.7883(2)
O9 O 0.2339(8) 0.2667(3) 0.4894(3)
H67 H 0.2989 0.2720 0.4706
H68 H 0.2537 0.2481 0.5150
loop_
_geom_bond_atom_site_label_1
_geom_bond_atom_site_label_2
_geom_bond_site_symmetry_1
_geom_bond_site_symmetry_2
Cd1 O1 1_555 1_555
P1 O1 1_555 1_555
P2 O5 1_555 1_555
O2 P1 1_555 1_555
O3 P1 1_555 1_555
O4 P1 1_555 1_555
O5 Cd1 1_555 1_555
O6 P2 1_555 1_555
O7 P2 1_555 1_555
O8 P2 1_555 1_555
N1 Cd1 1_555 1_555
N2 N3 1_555 1_555
N3 C7 1_555 1_555
N4 C9 1_555 1_555
N5 Cd1 1_555 1_555
N6 N7 1_555 1_555
N7 C19 1_555 1_555
N8 C21 1_555 1_555
N9 Cd1 1_555 1_555
N10 N11 1_555 1_555
N11 C31 1_555 1_555
N12 C33 1_555 1_555
C1 N1 1_555 1_555
H1 C1 1_555 1_555
C2 C1 1_555 1_555
H2 C2 1_555 1_555
C3 C2 1_555 1_555
H3 C3 1_555 1_555
C4 C3 1_555 1_555
C5 N1 1_555 1_555
H4 C5 1_555 1_555
C6 N2 1_555 1_555
H5 C6 1_555 1_555
C7 H6 1_555 1_555
C8 C7 1_555 1_555
C9 C8 1_555 1_555
H7 C9 1_555 1_555
C10 N4 1_555 1_555
H8 C10 1_555 1_555
C11 C10 1_555 1_555
H9 C11 1_555 1_555
C12 C8 1_555 1_555
H10 C12 1_555 1_555
C13 N5 1_555 1_555
H11 C13 1_555 1_555
C14 C13 1_555 1_555
H12 C14 1_555 1_555
C15 C14 1_555 1_555
H13 C15 1_555 1_555
C16 C15 1_555 1_555
C17 N5 1_555 1_555
H14 C17 1_555 1_555
C18 N6 1_555 1_555
H15 C18 1_555 1_555
C19 H16 1_555 1_555
C20 C19 1_555 1_555
C21 C20 1_555 1_555
H17 C21 1_555 1_555
C22 N8 1_555 1_555
H18 C22 1_555 1_555
C23 C22 1_555 1_555
H19 C23 1_555 1_555
C24 C20 1_555 1_555
H20 C24 1_555 1_555
C25 N9 1_555 1_555
H21 C25 1_555 1_555
C26 C25 1_555 1_555
H22 C26 1_555 1_555
C27 C26 1_555 1_555
H23 C27 1_555 1_555
C28 C27 1_555 1_555
C29 N9 1_555 1_555
H24 C29 1_555 1_555
C30 N10 1_555 1_555
H25 C30 1_555 1_555
C31 H26 1_555 1_555
C32 C31 1_555 1_555
C33 C32 1_555 1_555
H27 C33 1_555 1_555
C34 N12 1_555 1_555
H28 C34 1_555 1_555
C35 C34 1_555 1_555
H29 C35 1_555 1_555
C36 C32 1_555 1_555
H30 C36 1_555 1_555
C37 O3 1_555 1_555
C38 C37 1_555 1_555
H31 C38 1_555 1_555
H32 C38 1_555 1_555
H33 C38 1_555 1_555
C39 C37 1_555 1_555
H34 C39 1_555 1_555
H35 C39 1_555 1_555
H36 C39 1_555 1_555
C40 C37 1_555 1_555
H37 C40 1_555 1_555
H38 C40 1_555 1_555
H39 C40 1_555 1_555
C41 O4 1_555 1_555
C42 C41 1_555 1_555
H40 C42 1_555 1_555
H41 C42 1_555 1_555
H42 C42 1_555 1_555
C43 C41 1_555 1_555
H43 C43 1_555 1_555
H44 C43 1_555 1_555
H45 C43 1_555 1_555
C44 C41 1_555 1_555
H46 C44 1_555 1_555
H47 C44 1_555 1_555
H48 C44 1_555 1_555
C45 O7 1_555 1_555
C46 C45 1_555 1_555
H49 C46 1_555 1_555
H50 C46 1_555 1_555
H51 C46 1_555 1_555
C47 C45 1_555 1_555
H52 C47 1_555 1_555
H53 C47 1_555 1_555
H54 C47 1_555 1_555
C48 C45 1_555 1_555
H55 C48 1_555 1_555
H56 C48 1_555 1_555
H57 C48 1_555 1_555
C49 O8 1_555 1_555
C50 C49 1_555 1_555
H58 C50 1_555 1_555
H59 C50 1_555 1_555
H60 C50 1_555 1_555
C51 C49 1_555 1_555
H61 C51 1_555 1_555
H62 C51 1_555 1_555
H63 C51 1_555 1_555
C52 C49 1_555 1_555
H64 C52 1_555 1_555
H65 C52 1_555 1_555
H66 C52 1_555 1_555
O9 H67 1_555 1_555
H68 O9 1_555 1_555
Cd1C N12 1_555 1_555
N12C Cd1 1_555 1_555
C4 C5 1_555 1_555
C4 C6 1_555 1_555
C11 C12 1_555 1_555
C16 C17 1_555 1_555
C16 C18 1_555 1_555
C23 C24 1_555 1_555
C28 C29 1_555 1_555
C28 C30 1_555 1_555
C35 C36 1_555 1_555

#END
