
#######################################################################
#
#                 Cambridge Crystallographic Data Centre
#                                CCDC 
#
#######################################################################
#
# If this CIF has been generated from an entry in the Cambridge 
# Structural Database, then it will include bibliographic, chemical, 
# crystal, experimental, refinement or atomic coordinate data resulting 
# from the CCDC's data processing and validation procedures.
#
#######################################################################

data_KUBGOF
_symmetry_cell_setting           orthorhombic
_symmetry_space_group_name_H-M   'P c a 21'
_symmetry_Int_Tables_number      29
_space_group_name_Hall           'P 2c -2ac'
loop_
_symmetry_equiv_pos_site_id
_symmetry_equiv_pos_as_xyz
1 x,y,z
2 -x,-y,1/2+z
3 1/2-x,y,1/2+z
4 1/2+x,-y,z
_cell_length_a                   8.7713(3)
_cell_length_b                   13.046(4)
_cell_length_c                   14.772(5)
_cell_angle_alpha                90
_cell_angle_beta                 90
_cell_angle_gamma                90
_cell_volume                     1690.37
loop_
_atom_site_label
_atom_site_type_symbol
_atom_site_fract_x
_atom_site_fract_y
_atom_site_fract_z
Cu1 Cu 1.22674(5) 0.16371(3) 0.47969(4)
O1 O 1.0387(3) 0.2443(2) 0.4951(3)
O2 O 0.7985(4) 0.2765(3) 0.5367(3)
H1 H 0.817(9) 0.326(4) 0.575(4)
O3 O 0.6933(4) 0.32427(19) 0.3609(2)
O4 O 1.0128(4) 0.3674(3) 0.0813(2)
H2 H 1.0779 0.3600 0.0420
O5 O 1.1081(5) 0.5257(3) 0.0871(3)
O6 O 0.7930(5) 0.7639(3) 0.3064(3)
O7 O 0.8183(4) 0.7018(2) 0.44513(18)
O8 O 1.2767(5) 0.1825(4) 0.6324(3)
H3 H 1.273(7) 0.217(5) 0.680(3)
H4 H 1.332(7) 0.130(3) 0.637(4)
N1 N 1.1000(4) 0.0361(2) 0.4881(2)
N2 N 1.1404(4) -0.0434(3) 0.5420(3)
N3 N 1.0363(4) -0.1149(3) 0.5365(3)
N4 N 0.9246(3) -0.0840(2) 0.4798(3)
C1 C 0.8993(4) 0.2334(2) 0.4808(3)
C2 C 0.8378(5) 0.1738(3) 0.4021(3)
C3 C 0.8765(5) 0.0708(3) 0.3844(3)
C4 C 0.8155(5) 0.0200(3) 0.3083(3)
H5 H 0.8420 -0.0478 0.2969
C5 C 0.7165(5) 0.0704(3) 0.2504(3)
H6 H 0.6769 0.0368 0.2001
C6 C 0.6765(6) 0.1716(3) 0.2681(3)
H7 H 0.6082 0.2050 0.2300
C7 C 0.7375(5) 0.2234(3) 0.3419(3)
C8 C 0.7774(5) 0.4027(3) 0.3209(3)
C9 C 0.8651(5) 0.3878(3) 0.2440(3)
H8 H 0.8779 0.3225 0.2200
C10 C 0.9340(5) 0.4727(3) 0.2031(3)
C11 C 0.9158(5) 0.5709(3) 0.2399(3)
H9 H 0.9590 0.6274 0.2113
C12 C 0.8323(5) 0.5837(3) 0.3198(3)
C13 C 0.7643(5) 0.5004(3) 0.3615(3)
H10 H 0.7109 0.5086 0.4155
C14 C 1.0269(5) 0.4601(3) 0.1184(3)
C15 C 0.8146(5) 0.6915(3) 0.3590(3)
C16 C 0.9664(4) 0.0099(3) 0.4502(3)
Cu1C Cu 0.72674(5) -0.16371(3) 0.47969(4)
Cu1C_2 Cu 0.72674(5) 0.83629(3) 0.47969(4)
O6C O 1.2930(5) 0.2361(3) 0.3064(3)
O7C O 1.3183(4) 0.2982(2) 0.44513(18)
N4C N 1.4246(3) 0.0840(2) 0.4798(3)
loop_
_geom_bond_atom_site_label_1
_geom_bond_atom_site_label_2
_geom_bond_site_symmetry_1
_geom_bond_site_symmetry_2
Cu1 O1 1_555 1_555
O1 C1 1_555 1_555
O2 H1 1_555 1_555
O3 C7 1_555 1_555
O4 H2 1_555 1_555
O5 C14 1_555 1_555
O6 C15 1_555 1_555
O7 C15 1_555 1_555
O8 Cu1 1_555 1_555
H3 O8 1_555 1_555
H4 O8 1_555 1_555
N1 Cu1 1_555 1_555
N2 N1 1_555 1_555
N3 N2 1_555 1_555
N4 N3 1_555 1_555
C1 O2 1_555 1_555
C2 C1 1_555 1_555
C3 C2 1_555 1_555
C4 C3 1_555 1_555
H5 C4 1_555 1_555
C5 C4 1_555 1_555
H6 C5 1_555 1_555
C6 C5 1_555 1_555
H7 C6 1_555 1_555
C7 C2 1_555 1_555
C8 O3 1_555 1_555
C9 C8 1_555 1_555
H8 C9 1_555 1_555
C10 C9 1_555 1_555
C11 C10 1_555 1_555
H9 C11 1_555 1_555
C12 C11 1_555 1_555
C13 C8 1_555 1_555
H10 C13 1_555 1_555
C14 O4 1_555 1_555
C15 C12 1_555 1_555
C16 N1 1_555 1_555
Cu1C N4 1_555 1_555
Cu1C_2 O6 1_555 1_555
O6C Cu1 1_555 1_555
O7C Cu1 1_555 1_555
N4C Cu1 1_555 1_555
O7 Cu1C_2 1_555 1_555
N4 C16 1_555 1_555
C3 C16 1_555 1_555
C6 C7 1_555 1_555
C10 C14 1_555 1_555
C12 C13 1_555 1_555

#END
