
#######################################################################
#
#                 Cambridge Crystallographic Data Centre
#                                CCDC 
#
#######################################################################
#
# If this CIF has been generated from an entry in the Cambridge 
# Structural Database, then it will include bibliographic, chemical, 
# crystal, experimental, refinement or atomic coordinate data resulting 
# from the CCDC's data processing and validation procedures.
#
#######################################################################

data_KUBHUL
_symmetry_cell_setting           triclinic
_symmetry_space_group_name_H-M   'P -1'
_symmetry_Int_Tables_number      2
_space_group_name_Hall           '-P 1'
loop_
_symmetry_equiv_pos_site_id
_symmetry_equiv_pos_as_xyz
1 x,y,z
2 -x,-y,-z
_cell_length_a                   7.253(3)
_cell_length_b                   11.567(7)
_cell_length_c                   13.910(8)
_cell_angle_alpha                74.62(2)
_cell_angle_beta                 76.860(10)
_cell_angle_gamma                82.510(10)
_cell_volume                     1092.68
loop_
_atom_site_label
_atom_site_type_symbol
_atom_site_fract_x
_atom_site_fract_y
_atom_site_fract_z
Cu1 Cu 0.6490(2) 0.70193(14) 0.88138(14)
Cu2 Cu 1.0473(2) 0.32086(15) 0.79170(15)
O1 O 0.9606(13) 0.5381(8) 0.7079(7)
O2 O 0.8313(12) 0.7653(8) 0.6891(7)
O3 O 1.2377(11) 0.2690(8) 0.6838(7)
O4 O 0.7931(13) 0.8167(7) 0.9000(7)
O5 O 0.8202(12) 0.3506(8) 0.8918(8)
O6 O 0.1751(12) 0.6151(8) 0.8507(7)
O7 O 1.2628(15) 0.1406(9) 0.5867(9)
N1 N 0.4784(13) 0.8369(9) 0.8238(9)
O8 O 0.5140(13) 0.3009(8) 0.9466(8)
O9 O 0.4778(12) 0.6062(7) 0.8579(8)
C1 C 0.9549(17) 0.1947(11) 0.6705(11)
H1 H 0.9276 0.1202 0.7215
H2 H 0.9057 0.1935 0.6116
O10 O 0.7559(14) 1.0090(9) 0.9142(9)
C2 C 0.6906(17) 0.2774(11) 0.7855(11)
H3 H 0.6775 0.1915 0.8024
H4 H 0.5859 0.3166 0.7531
N2 N 0.8602(14) 0.3008(9) 0.7128(8)
C3 C 1.2645(13) 0.5979(6) 0.6058(9)
H5 H 1.311 0.5178 0.6143
C4 C 1.3812(10) 0.6885(9) 0.5484(8)
H6 H 1.5058 0.669 0.5186
C5 C 1.3117(12) 0.8082(7) 0.5356(8)
H7 H 1.3898 0.8689 0.4973
C6 C 1.1256(13) 0.8374(6) 0.5802(9)
H8 H 1.0791 0.9175 0.5716
C7 C 1.0089(10) 0.7467(8) 0.6375(8)
C8 C 1.0784(12) 0.6270(7) 0.6503(8)
C9 C 0.2945(17) 0.7934(11) 0.8552(11)
H9 H 0.212 0.8409 0.8109
H10 H 0.24 0.7998 0.9242
C10 C 0.800(2) 0.5221(13) 0.6680(13)
H11 H 0.7815 0.5893 0.6112
H12 H 0.6851 0.5179 0.7203
C11 C 0.7376(17) 0.8838(11) 0.6642(11)
H13 H 0.758 0.9146 0.5909
H14 H 0.7886 0.938 0.6924
C12 C 0.8423(19) 0.4064(11) 0.6335(11)
H15 H 0.7416 0.398 0.6008
H16 H 0.9594 0.4119 0.5828
C13 C 1.165(2) 0.2052(14) 0.6409(13)
C14 C 0.5302(18) 0.8755(12) 0.7080(11)
H17 H 0.4835 0.8187 0.6805
H18 H 0.4649 0.9534 0.6855
C15 C 0.6673(19) 0.3136(12) 0.8809(12)
C16 C 0.7072(18) 0.9156(12) 0.8971(11)
C17 C 0.312(2) 0.6619(13) 0.8500(12)
C18 C 0.5167(17) 0.9388(11) 0.8687(11)
H19 H 0.5112 1.0151 0.8189
H20 H 0.4193 0.9436 0.9285
O11 O 0.8221(11) 0.5708(7) 0.9348(7)
O12 O 1.2237(14) 0.3823(8) 0.8480(8)
O13 O 1.0792(14) 0.1203(8) 0.8982(9)
Cu1A Cu 0.3510(2) 0.29807(14) 1.11862(14)
O8A O 0.4860(13) 0.6991(8) 1.0534(8)
loop_
_geom_bond_atom_site_label_1
_geom_bond_atom_site_label_2
_geom_bond_site_symmetry_1
_geom_bond_site_symmetry_2
Cu1 O2 1_555 1_555
Cu2 O1 1_555 1_555
O1 C8 1_555 1_555
O2 C7 1_555 1_555
O3 Cu2 1_555 1_555
O4 Cu1 1_555 1_555
O5 Cu2 1_555 1_555
O6 C17 1_555 1_555
O7 C13 1_555 1_555
N1 Cu1 1_555 1_555
O8 C15 1_555 1_555
O9 Cu1 1_555 1_555
C1 H1 1_555 1_555
H2 C1 1_555 1_555
O10 C16 1_555 1_555
C2 H3 1_555 1_555
H4 C2 1_555 1_555
N2 Cu2 1_555 1_555
C3 H5 1_555 1_555
C4 C3 1_555 1_555
H6 C4 1_555 1_555
C5 C4 1_555 1_555
H7 C5 1_555 1_555
C6 C5 1_555 1_555
H8 C6 1_555 1_555
C7 C6 1_555 1_555
C8 C3 1_555 1_555
C9 N1 1_555 1_555
H9 C9 1_555 1_555
H10 C9 1_555 1_555
C10 O1 1_555 1_555
H11 C10 1_555 1_555
H12 C10 1_555 1_555
C11 O2 1_555 1_555
H13 C11 1_555 1_555
H14 C11 1_555 1_555
C12 N2 1_555 1_555
H15 C12 1_555 1_555
H16 C12 1_555 1_555
C13 O3 1_555 1_555
C14 N1 1_555 1_555
H17 C14 1_555 1_555
H18 C14 1_555 1_555
C15 O5 1_555 1_555
C16 O4 1_555 1_555
C17 O9 1_555 1_555
C18 N1 1_555 1_555
H19 C18 1_555 1_555
H20 C18 1_555 1_555
O11 Cu1 1_555 1_555
O12 Cu2 1_555 1_555
O13 Cu2 1_555 1_555
Cu1A O8 1_555 1_555
O8A Cu1 1_555 1_555
C1 N2 1_555 1_555
C1 C13 1_555 1_555
C2 N2 1_555 1_555
C2 C15 1_555 1_555
C7 C8 1_555 1_555
C9 C17 1_555 1_555
C10 C12 1_555 1_555
C11 C14 1_555 1_555
C16 C18 1_555 1_555

#END
