
#######################################################################
#
#                 Cambridge Crystallographic Data Centre
#                                CCDC 
#
#######################################################################
#
# If this CIF has been generated from an entry in the Cambridge 
# Structural Database, then it will include bibliographic, chemical, 
# crystal, experimental, refinement or atomic coordinate data resulting 
# from the CCDC's data processing and validation procedures.
#
#######################################################################

data_KUBHUM
_symmetry_cell_setting           monoclinic
_symmetry_space_group_name_H-M   'C 2/c'
_symmetry_Int_Tables_number      15
_space_group_name_Hall           '-C 2yn'
loop_
_symmetry_equiv_pos_site_id
_symmetry_equiv_pos_as_xyz
1 x,y,z
2 -x,y,1/2-z
3 1/2+x,1/2+y,z
4 1/2-x,1/2+y,1/2-z
5 -x,-y,-z
6 x,-y,1/2+z
7 1/2-x,1/2-y,-z
8 1/2+x,1/2-y,1/2+z
_cell_length_a                   18.667(2)
_cell_length_b                   11.9614(14)
_cell_length_c                   12.8465(14)
_cell_angle_alpha                90
_cell_angle_beta                 99.510(2)
_cell_angle_gamma                90
_cell_volume                     2828.99
loop_
_atom_site_label
_atom_site_type_symbol
_atom_site_fract_x
_atom_site_fract_y
_atom_site_fract_z
Zn1 Zn 0.5000 0.5000 0.5000
C1 C 0.75011(15) 0.3266(3) 0.3550(2)
C2 C 0.81140(16) 0.3791(3) 0.3289(2)
H1 H 0.8229 0.4517 0.3517
C3 C 0.85522(17) 0.3230(3) 0.2690(3)
H2 H 0.8954 0.3589 0.2502
C4 C 0.8397(2) 0.2147(3) 0.2371(3)
H3 H 0.8698 0.1772 0.1980
C5 C 0.7796(2) 0.1619(3) 0.2632(3)
H4 H 0.7693 0.0885 0.2417
C6 C 0.73418(18) 0.2175(3) 0.3214(3)
H5 H 0.6932 0.1819 0.3379
C7 C 0.70150(14) 0.3860(2) 0.4155(2)
C8 C 0.62868(16) 0.3655(2) 0.4206(2)
H6 H 0.6002 0.3096 0.3844
C9 C 0.66353(15) 0.5969(3) 0.5897(2)
H7 H 0.7125 0.6242 0.6127
H8 H 0.6443 0.5725 0.6516
C10 C 0.61697(15) 0.6904(2) 0.5364(2)
C11 C 0.64453(17) 0.7960(3) 0.5277(2)
H9 H 0.6929 0.8110 0.5547
C12 C 0.60065(19) 0.8790(3) 0.4790(3)
H10 H 0.6186 0.9508 0.4734
C13 C 0.52968(19) 0.8542(3) 0.4388(3)
H11 H 0.4986 0.9089 0.4056
C14 C 0.50532(17) 0.7463(3) 0.4486(2)
H12 H 0.4575 0.7295 0.4201
N1 N 0.60685(12) 0.4393(2) 0.48584(19)
N2 N 0.66540(13) 0.50225(19) 0.51815(19)
N3 N 0.72333(12) 0.4743(2) 0.47728(19)
N4 N 0.54728(12) 0.6646(2) 0.49736(17)
N5 N 0.47260(15) 0.5067(2) 0.3250(2)
N6 N 0.5000 0.5066(3) 0.2500
N5A N 0.52740(15) 0.5067(2) 0.1750(2)
C1D C 0.24989(15) 0.6734(3) 0.6450(2)
C2D C 0.18860(16) 0.6209(3) 0.6711(2)
H1D H 0.1771 0.5483 0.6483
C3D C 0.14478(17) 0.6770(3) 0.7310(3)
H2D H 0.1046 0.6411 0.7498
C4D C 0.1603(2) 0.7853(3) 0.7629(3)
H3D H 0.1302 0.8228 0.8020
C5D C 0.2204(2) 0.8381(3) 0.7368(3)
H4D H 0.2307 0.9115 0.7583
C6D C 0.26582(18) 0.7825(3) 0.6786(3)
H5D H 0.3068 0.8181 0.6621
C7D C 0.29850(14) 0.6140(2) 0.5845(2)
C8D C 0.37132(16) 0.6345(2) 0.5794(2)
H6D H 0.3998 0.6904 0.6156
C9D C 0.33647(15) 0.4031(3) 0.4103(2)
H7D H 0.2875 0.3758 0.3873
H8D H 0.3557 0.4275 0.3484
C10D C 0.38303(15) 0.3096(2) 0.4636(2)
C11D C 0.35547(17) 0.2040(3) 0.4723(2)
H9D H 0.3071 0.1890 0.4453
C12D C 0.39935(19) 0.1210(3) 0.5210(3)
H10D H 0.3814 0.0492 0.5266
C13D C 0.47032(19) 0.1458(3) 0.5612(3)
H11D H 0.5014 0.0911 0.5944
C14D C 0.49468(17) 0.2537(3) 0.5514(2)
H12D H 0.5425 0.2705 0.5799
N1D N 0.39315(12) 0.5607(2) 0.51416(19)
N2D N 0.33460(13) 0.49775(19) 0.48185(19)
N3D N 0.27667(12) 0.5257(2) 0.52272(19)
N4D N 0.45272(12) 0.3354(2) 0.50264(17)
Zn1A Zn 0.5000 0.5000 0.0000
N5D N 0.52740(15) 0.4933(2) 0.6750(2)
Cl1 Cl 0.5000 0.87378(11) 0.7500
O1 O 0.4432(3) 0.9353(4) 0.7792(6)
O2 O 0.5461(4) 0.8864(5) 0.8537(5)
O1A O 0.5568(3) 0.9353(4) 0.7208(6)
O2A O 0.4539(4) 0.8864(5) 0.6463(5)
O3? O 0.4789(3) 0.7656(4) 0.7785(5)
loop_
_geom_bond_atom_site_label_1
_geom_bond_atom_site_label_2
_geom_bond_site_symmetry_1
_geom_bond_site_symmetry_2
Zn1 N1 1_555 1_555
C1 C2 1_555 1_555
C2 H1 1_555 1_555
C3 C2 1_555 1_555
H2 C3 1_555 1_555
C4 C3 1_555 1_555
H3 C4 1_555 1_555
C5 C4 1_555 1_555
H4 C5 1_555 1_555
C6 C1 1_555 1_555
H5 C6 1_555 1_555
C7 C1 1_555 1_555
C8 C7 1_555 1_555
H6 C8 1_555 1_555
C9 H7 1_555 1_555
H8 C9 1_555 1_555
C10 C9 1_555 1_555
C11 C10 1_555 1_555
H9 C11 1_555 1_555
C12 C11 1_555 1_555
H10 C12 1_555 1_555
C13 C12 1_555 1_555
H11 C13 1_555 1_555
C14 C13 1_555 1_555
H12 C14 1_555 1_555
N1 C8 1_555 1_555
N2 C9 1_555 1_555
N3 C7 1_555 1_555
N4 Zn1 1_555 1_555
N5 Zn1 1_555 1_555
N6 N5 1_555 1_555
Cl1 O1 1_555 1_555
O2 Cl1 1_555 1_555
N5A N6 1_555 1_555
C1D C2D 1_555 1_555
C2D H1D 1_555 1_555
C3D C2D 1_555 1_555
H2D C3D 1_555 1_555
C4D C3D 1_555 1_555
H3D C4D 1_555 1_555
C5D C4D 1_555 1_555
H4D C5D 1_555 1_555
C6D C1D 1_555 1_555
H5D C6D 1_555 1_555
C7D C1D 1_555 1_555
C8D C7D 1_555 1_555
H6D C8D 1_555 1_555
C9D H7D 1_555 1_555
H8D C9D 1_555 1_555
C10D C9D 1_555 1_555
C11D C10D 1_555 1_555
H9D C11D 1_555 1_555
C12D C11D 1_555 1_555
H10D C12D 1_555 1_555
C13D C12D 1_555 1_555
H11D C13D 1_555 1_555
C14D C13D 1_555 1_555
H12D C14D 1_555 1_555
N1D Zn1 1_555 1_555
N2D C9D 1_555 1_555
N3D C7D 1_555 1_555
N4D Zn1 1_555 1_555
Zn1A N5A 1_555 1_555
N5D Zn1 1_555 1_555
O1A Cl1 1_555 1_555
O2A Cl1 1_555 1_555
C5 C6 1_555 1_555
C10 N4 1_555 1_555
C14 N4 1_555 1_555
N1 N2 1_555 1_555
N2 N3 1_555 1_555
C5D C6D 1_555 1_555
C8D N1D 1_555 1_555
C10D N4D 1_555 1_555
C14D N4D 1_555 1_555
N1D N2D 1_555 1_555
N2D N3D 1_555 1_555

#END
