
#######################################################################
#
#                 Cambridge Crystallographic Data Centre
#                                CCDC 
#
#######################################################################
#
# If this CIF has been generated from an entry in the Cambridge 
# Structural Database, then it will include bibliographic, chemical, 
# crystal, experimental, refinement or atomic coordinate data resulting 
# from the CCDC's data processing and validation procedures.
#
#######################################################################

data_KUBJEY
_symmetry_cell_setting           orthorhombic
_symmetry_space_group_name_H-M   'P 21 21 21'
_symmetry_Int_Tables_number      19
_space_group_name_Hall           'P 2ac 2ab'
loop_
_symmetry_equiv_pos_site_id
_symmetry_equiv_pos_as_xyz
1 x,y,z
2 1/2-x,-y,1/2+z
3 -x,1/2+y,1/2-z
4 1/2+x,1/2-y,-z
_cell_length_a                   6.954(2)
_cell_length_b                   13.236(4)
_cell_length_c                   17.079(6)
_cell_angle_alpha                90
_cell_angle_beta                 90
_cell_angle_gamma                90
_cell_volume                     1572
loop_
_atom_site_label
_atom_site_type_symbol
_atom_site_fract_x
_atom_site_fract_y
_atom_site_fract_z
Cu1 Cu 0.12732(6) -0.15971(3) 0.92541(3)
C1 C 0.2321(6) 0.2288(3) 1.0427(2)
C2 C 0.2409(7) 0.3245(3) 1.0099(3)
H1 H 0.2489 0.3315 0.9558
C3 C 0.2381(8) 0.4095(4) 1.0566(3)
H2 H 0.2440 0.4734 1.0340
C4 C 0.2264(7) 0.3998(4) 1.1369(3)
H3 H 0.2241 0.4571 1.1683
C5 C 0.2182(8) 0.3055(4) 1.1707(3)
H4 H 0.2108 0.2988 1.2249
C6 C 0.2212(8) 0.2210(4) 1.1234(3)
H5 H 0.2158 0.1574 1.1463
C7 C 0.2309(6) 0.1381(3) 0.9933(2)
C8 C 0.1992(6) 0.0382(3) 1.0142(2)
H6 H 0.1756 0.0144 1.0646
C9 C 0.2796(6) 0.0124(3) 0.8127(2)
H7 H 0.3830 -0.0368 0.8125
H8 H 0.3182 0.0689 0.7801
C10 C 0.1012(6) -0.0346(3) 0.7799(2)
C11 C 0.0167(8) 0.0009(3) 0.7121(2)
H9 H 0.0693 0.0561 0.6862
C12 C -0.1457(9) -0.0455(4) 0.6828(3)
H10 H -0.2045 -0.0213 0.6376
C13 C -0.2181(7) -0.1270(4) 0.7211(3)
H11 H -0.3248 -0.1608 0.7012
C14 C -0.1323(7) -0.1594(3) 0.7897(2)
H12 H -0.1857 -0.2139 0.8163
S1 S -0.00534(13) -0.18199(7) 1.09322(5)
N1 N 0.2086(5) -0.0178(2) 0.94909(19)
N2 N 0.2467(5) 0.0474(2) 0.89214(18)
N3 N 0.2633(5) 0.1423(2) 0.91543(19)
N4 N 0.0260(5) -0.1147(2) 0.81932(19)
O1 O 0.1639(4) -0.1917(2) 1.03697(15)
O2 O -0.1479(4) -0.1180(2) 1.05355(18)
O3 O 0.0674(5) -0.1354(3) 1.16385(18)
O4 O -0.0833(4) -0.2835(2) 1.10785(17)
O5 O 0.0211(4) -0.2963(2) 0.90883(16)
H13 H 0.102(5) -0.335(3) 0.930(2)
H14 H -0.085(4) -0.313(4) 0.930(2)
Cu1C Cu -0.37268(6) -0.34029(3) 1.07459(3)
O4C O 0.4167(4) -0.2165(2) 0.89215(17)
loop_
_geom_bond_atom_site_label_1
_geom_bond_atom_site_label_2
_geom_bond_site_symmetry_1
_geom_bond_site_symmetry_2
Cu1 N1 1_555 1_555
C1 C2 1_555 1_555
C2 H1 1_555 1_555
C3 C2 1_555 1_555
H2 C3 1_555 1_555
C4 C3 1_555 1_555
H3 C4 1_555 1_555
C5 C4 1_555 1_555
H4 C5 1_555 1_555
C6 C1 1_555 1_555
H5 C6 1_555 1_555
C7 C1 1_555 1_555
C8 C7 1_555 1_555
H6 C8 1_555 1_555
C9 H7 1_555 1_555
H8 C9 1_555 1_555
C10 C9 1_555 1_555
C11 C10 1_555 1_555
H9 C11 1_555 1_555
C12 C11 1_555 1_555
H10 C12 1_555 1_555
C13 C12 1_555 1_555
H11 C13 1_555 1_555
C14 C13 1_555 1_555
H12 C14 1_555 1_555
S1 O1 1_555 1_555
N1 C8 1_555 1_555
N2 C9 1_555 1_555
N3 C7 1_555 1_555
N4 Cu1 1_555 1_555
O1 Cu1 1_555 1_555
O2 S1 1_555 1_555
O3 S1 1_555 1_555
O4 S1 1_555 1_555
O5 Cu1 1_555 1_555
H13 O5 1_555 1_555
H14 O5 1_555 1_555
Cu1C O4 1_555 1_555
O4C Cu1 1_555 1_555
C5 C6 1_555 1_555
C10 N4 1_555 1_555
C14 N4 1_555 1_555
N1 N2 1_555 1_555
N2 N3 1_555 1_555

#END
