
#######################################################################
#
#                 Cambridge Crystallographic Data Centre
#                                CCDC 
#
#######################################################################
#
# If this CIF has been generated from an entry in the Cambridge 
# Structural Database, then it will include bibliographic, chemical, 
# crystal, experimental, refinement or atomic coordinate data resulting 
# from the CCDC's data processing and validation procedures.
#
#######################################################################

data_KUBJAU
_symmetry_cell_setting           monoclinic
_symmetry_space_group_name_H-M   'P 21/c'
_symmetry_Int_Tables_number      14
_space_group_name_Hall           '-P 2ybc'
loop_
_symmetry_equiv_pos_site_id
_symmetry_equiv_pos_as_xyz
1 x,y,z
2 -x,1/2+y,1/2-z
3 -x,-y,-z
4 x,1/2-y,1/2+z
_cell_length_a                   14.7592(13)
_cell_length_b                   16.2786(15)
_cell_length_c                   6.9207(6)
_cell_angle_alpha                90
_cell_angle_beta                 102.7530(10)
_cell_angle_gamma                90
_cell_volume                     1621.74
loop_
_atom_site_label
_atom_site_type_symbol
_atom_site_fract_x
_atom_site_fract_y
_atom_site_fract_z
Cu1 Cu 0.319221(18) 0.708906(14) 0.87495(4)
C1 C 0.11358(15) 0.45044(14) 1.0970(4)
C2 C 0.1019(2) 0.4696(2) 1.2859(4)
H1 H 0.1327 0.5159 1.3542
C3 C 0.0446(2) 0.4206(3) 1.3749(5)
H2 H 0.0383 0.4329 1.5055
C4 C -0.0026(2) 0.3548(2) 1.2750(7)
H3 H -0.0428 0.3226 1.3343
C5 C 0.0094(2) 0.33610(19) 1.0870(8)
H4 H -0.0225 0.2904 1.0181
C6 C 0.0670(2) 0.38287(17) 0.9980(6)
H5 H 0.0748 0.3690 0.8694
C7 C 0.17182(14) 0.50189(12) 1.0008(3)
C8 C 0.19883(14) 0.58434(13) 1.0383(3)
H6 H 0.1834 0.6187 1.1373
C9 C 0.31116(15) 0.53474(13) 0.6547(3)
H7 H 0.2855 0.5724 0.5438
H8 H 0.3097 0.4783 0.6007
C10 C 0.41028(15) 0.55854(12) 0.7446(3)
C11 C 0.48240(16) 0.50652(13) 0.7285(3)
H9 H 0.4699 0.4547 0.6651
C12 C 0.57336(16) 0.53101(14) 0.8064(3)
H10 H 0.6240 0.4968 0.7951
C13 C 0.58857(16) 0.60635(14) 0.9007(4)
H11 H 0.6500 0.6245 0.9562
C14 C 0.51265(15) 0.65504(13) 0.9132(3)
H12 H 0.5234 0.7064 0.9797
Cl1 Cl 0.20862(3) 0.78536(3) 0.98037(7)
Cl2 Cl 0.39842(3) 0.82060(3) 0.81363(7)
N1 N 0.24987(12) 0.60551(11) 0.9098(3)
N2 N 0.25368(12) 0.53829(10) 0.8009(3)
N3 N 0.20823(12) 0.47459(11) 0.8506(3)
N4 N 0.42437(13) 0.63230(11) 0.8346(3)
Cu1C Cu 0.319221(18) 0.791094(14) 1.37495(4)
Cl1C Cl 0.20862(3) 0.71464(3) 0.48037(7)
C15 C 0.7191(9) 0.7887(7) 0.083(2)
C16 C 0.7466(11) 0.7468(7) 0.257(3)
H13 H 0.7886 0.7813 0.3531
H14 H 0.7789 0.6964 0.2335
N5 N 0.6867(14) 0.8119(10) -0.077(3)
H15? H 0.6920 0.7327 0.3089
loop_
_geom_bond_atom_site_label_1
_geom_bond_atom_site_label_2
_geom_bond_site_symmetry_1
_geom_bond_site_symmetry_2
Cu1 Cl1 1_555 1_555
C1 C2 1_555 1_555
C2 H1 1_555 1_555
C3 C2 1_555 1_555
H2 C3 1_555 1_555
C4 C3 1_555 1_555
H3 C4 1_555 1_555
C5 C4 1_555 1_555
H4 C5 1_555 1_555
C6 C1 1_555 1_555
H5 C6 1_555 1_555
C7 C1 1_555 1_555
C8 C7 1_555 1_555
H6 C8 1_555 1_555
C9 H7 1_555 1_555
H8 C9 1_555 1_555
C10 C9 1_555 1_555
C11 C10 1_555 1_555
H9 C11 1_555 1_555
C12 C11 1_555 1_555
H10 C12 1_555 1_555
C13 C12 1_555 1_555
H11 C13 1_555 1_555
C14 C13 1_555 1_555
H12 C14 1_555 1_555
Cl1 Cu1C 1_555 1_555
Cl2 Cu1 1_555 1_555
N1 Cu1 1_555 1_555
N2 C9 1_555 1_555
N3 C7 1_555 1_555
N4 Cu1 1_555 1_555
C15 C16 1_555 1_555
C16 H13 1_555 1_555
H14 C16 1_555 1_555
N5 C15 1_555 1_555
Cl1C Cu1 1_555 1_555
C5 C6 1_555 1_555
C8 N1 1_555 1_555
C10 N4 1_555 1_555
C14 N4 1_555 1_555
N1 N2 1_555 1_555
N2 N3 1_555 1_555

#END
