
#######################################################################
#
#                 Cambridge Crystallographic Data Centre
#                                CCDC 
#
#######################################################################
#
# If this CIF has been generated from an entry in the Cambridge 
# Structural Database, then it will include bibliographic, chemical, 
# crystal, experimental, refinement or atomic coordinate data resulting 
# from the CCDC's data processing and validation procedures.
#
#######################################################################

data_KUBNOM
_symmetry_cell_setting           monoclinic
_symmetry_space_group_name_H-M   'P 21/n'
_symmetry_Int_Tables_number      14
_space_group_name_Hall           '-P 2yn'
loop_
_symmetry_equiv_pos_site_id
_symmetry_equiv_pos_as_xyz
1 x,y,z
2 1/2-x,1/2+y,1/2-z
3 -x,-y,-z
4 1/2+x,1/2-y,1/2+z
_cell_length_a                   14.3744(17)
_cell_length_b                   14.6435(18)
_cell_length_c                   15.5621(18)
_cell_angle_alpha                90
_cell_angle_beta                 95.256(2)
_cell_angle_gamma                90
_cell_volume                     3261.92
loop_
_atom_site_label
_atom_site_type_symbol
_atom_site_fract_x
_atom_site_fract_y
_atom_site_fract_z
C1 C 0.4397(14) 0.0875(10) 0.5391(10)
H1 H 0.4038 0.0921 0.4834
H2 H 0.4993 0.0593 0.5308
O1 O 0.4546(7) 0.1773(8) 0.5763(7)
H3 H 0.4511 0.2156 0.5377
C2 C 0.3921(13) 0.0354(9) 0.5945(12)
H4 H 0.4030 -0.0282 0.5842
H5 H 0.3264 0.0479 0.5849
H6 H 0.4136 0.0501 0.6531
Co1 Co 0.74982(7) 0.27128(8) 0.58967(6)
C3 C 0.7539(7) 0.4790(8) 0.5054(6)
C4 C 0.7023(8) 0.5583(9) 0.5126(7)
H7 H 0.7096 0.6129 0.4834
C5 C 0.6402(8) 0.5416(8) 0.5695(7)
C6 C 0.8342(7) 0.4625(7) 0.4525(6)
H8 H 0.8610 0.4038 0.4665
H9 H 0.8806 0.5090 0.4648
H10 H 0.8125 0.4643 0.3923
C7 C 0.5634(9) 0.6013(9) 0.5974(8)
H11 H 0.5785 0.6200 0.6561
H12 H 0.5058 0.5677 0.5930
H13 H 0.5568 0.6542 0.5609
C8 C 0.7323(6) 0.0689(6) 0.6722(6)
C9 C 0.6821(7) 0.0324(7) 0.7365(7)
H14 H 0.6851 -0.0276 0.7561
C10 C 0.6285(7) 0.0993(7) 0.7654(6)
C11 C 0.7991(7) 0.0226(7) 0.6174(6)
H15 H 0.8029 0.0568 0.5652
H16 H 0.7773 -0.0381 0.6034
H17 H 0.8599 0.0194 0.6485
C12 C 0.5619(7) 0.0983(7) 0.8339(7)
H18 H 0.5796 0.1445 0.8760
H19 H 0.5636 0.0395 0.8613
H20 H 0.4998 0.1103 0.8082
C13 C 0.6144(5) 0.4015(6) 0.6568(4)
C14 C 0.6138(5) 0.2634(6) 0.7189(4)
C15 C 0.5207(5) 0.3750(6) 0.7602(5)
C16 C 0.4288(5) 0.3472(6) 0.8803(5)
H21 H 0.4277 0.2842 0.8608
H22 H 0.3659 0.3640 0.8917
C17 C 0.4936(7) 0.3557(8) 0.9626(5)
H23 H 0.5522 0.3270 0.9547
H24 H 0.4657 0.3264 1.0091
H25 H 0.5037 0.4191 0.9761
C18 C 0.4226(6) 0.4986(6) 0.8038(5)
H26 H 0.4694 0.5389 0.7834
H27 H 0.4083 0.5204 0.8600
C19 C 0.3366(7) 0.5022(7) 0.7428(7)
H28 H 0.3505 0.4803 0.6873
H29 H 0.3146 0.5640 0.7377
H30 H 0.2892 0.4644 0.7642
C20 C 0.9086(6) 0.2901(6) 0.6928(5)
C21 C 1.0117(5) 0.2852(5) 0.7241(4)
C22 C 1.0793(5) 0.2744(5) 0.6675(4)
H31 H 1.0623 0.2740 0.6084
C23 C 1.1720(5) 0.2642(6) 0.6981(4)
C24 C 1.1963(5) 0.2648(5) 0.7866(4)
H32 H 1.2585 0.2572 0.8074
C25 C 1.1307(5) 0.2761(5) 0.8434(4)
C26 C 1.0368(5) 0.2876(5) 0.8132(4)
H33 H 0.9918 0.2968 0.8516
C27 C 1.1555(6) 0.2707(6) 0.9396(5)
C28 C 1.2428(7) 0.2485(7) 0.6382(5)
N1 N 0.6493(4) 0.3171(4) 0.6623(3)
N2 N 0.7274(5) 0.4155(5) 0.5552(4)
N3 N 0.7142(4) 0.1553(5) 0.6619(4)
N4 N 0.6547(5) 0.4535(5) 0.5955(4)
N5 N 0.6495(4) 0.1745(5) 0.7199(4)
N6 N 0.5517(4) 0.2869(4) 0.7701(4)
N7 N 0.5496(4) 0.4338(4) 0.7011(4)
N8 N 0.4604(4) 0.4066(5) 0.8125(4)
O2 O 0.8879(4) 0.2784(4) 0.6120(3)
O3 O 0.8507(4) 0.3041(5) 0.7441(4)
O4 O 1.0935(4) 0.2689(5) 0.9889(3)
O5 O 1.2420(4) 0.2642(4) 0.9641(3)
O6 O 1.3272(4) 0.2465(6) 0.6692(4)
H34 H 1.3609 0.2379 0.6302
O7 O 1.2195(5) 0.2388(5) 0.5601(5)
Co1C Co 1.24982(7) 0.22872(8) 1.08967(6)
O5C O 0.7420(4) 0.2358(4) 0.4641(3)
O8 O 0.305(2) 0.2074(17) 0.4269(18)
H35 H 0.2254 0.2314 0.4225
O9? O 0.2420(17) 0.1993(15) 0.3811(13)
H36? H 0.2564 0.2147 0.3421
loop_
_geom_bond_atom_site_label_1
_geom_bond_atom_site_label_2
_geom_bond_site_symmetry_1
_geom_bond_site_symmetry_2
C1 H1 1_555 1_555
H2 C1 1_555 1_555
O1 C1 1_555 1_555
H3 O1 1_555 1_555
C2 C1 1_555 1_555
H4 C2 1_555 1_555
H5 C2 1_555 1_555
H6 C2 1_555 1_555
Co1 N1 1_555 1_555
C3 C4 1_555 1_555
C4 H7 1_555 1_555
C5 C4 1_555 1_555
C6 C3 1_555 1_555
H8 C6 1_555 1_555
H9 C6 1_555 1_555
H10 C6 1_555 1_555
C7 C5 1_555 1_555
H11 C7 1_555 1_555
H12 C7 1_555 1_555
H13 C7 1_555 1_555
C8 C9 1_555 1_555
C9 H14 1_555 1_555
C10 C9 1_555 1_555
C11 C8 1_555 1_555
H15 C11 1_555 1_555
H16 C11 1_555 1_555
H17 C11 1_555 1_555
C12 C10 1_555 1_555
H18 C12 1_555 1_555
H19 C12 1_555 1_555
H20 C12 1_555 1_555
C13 N1 1_555 1_555
C14 N1 1_555 1_555
C15 N6 1_555 1_555
C16 H21 1_555 1_555
H22 C16 1_555 1_555
C17 C16 1_555 1_555
H23 C17 1_555 1_555
H24 C17 1_555 1_555
H25 C17 1_555 1_555
C18 H26 1_555 1_555
H27 C18 1_555 1_555
C19 C18 1_555 1_555
H28 C19 1_555 1_555
H29 C19 1_555 1_555
H30 C19 1_555 1_555
C20 C21 1_555 1_555
C21 C22 1_555 1_555
C22 H31 1_555 1_555
C23 C22 1_555 1_555
C24 C23 1_555 1_555
H32 C24 1_555 1_555
C25 C24 1_555 1_555
C26 C21 1_555 1_555
H33 C26 1_555 1_555
C27 C25 1_555 1_555
C28 C23 1_555 1_555
N2 Co1 1_555 1_555
N3 Co1 1_555 1_555
N4 C5 1_555 1_555
N5 C10 1_555 1_555
N6 C14 1_555 1_555
N7 C13 1_555 1_555
N8 C15 1_555 1_555
O2 Co1 1_555 1_555
O3 C20 1_555 1_555
O4 C27 1_555 1_555
O5 C27 1_555 1_555
O6 C28 1_555 1_555
H34 O6 1_555 1_555
O7 C28 1_555 1_555
O8 H35 1_555 1_555
Co1C O5 1_555 1_555
O5C Co1 1_555 1_555
C3 N2 1_555 1_555
C8 N3 1_555 1_555
C13 N4 1_555 1_555
C14 N5 1_555 1_555
C15 N7 1_555 1_555
C16 N8 1_555 1_555
C18 N8 1_555 1_555
C20 O2 1_555 1_555
C25 C26 1_555 1_555
N2 N4 1_555 1_555
N3 N5 1_555 1_555

#END
