
#######################################################################
#
#                 Cambridge Crystallographic Data Centre
#                                CCDC 
#
#######################################################################
#
# If this CIF has been generated from an entry in the Cambridge 
# Structural Database, then it will include bibliographic, chemical, 
# crystal, experimental, refinement or atomic coordinate data resulting 
# from the CCDC's data processing and validation procedures.
#
#######################################################################

data_KUBNIG
_symmetry_cell_setting           monoclinic
_symmetry_space_group_name_H-M   'P 21/c'
_symmetry_Int_Tables_number      14
_space_group_name_Hall           '-P 2ybc'
loop_
_symmetry_equiv_pos_site_id
_symmetry_equiv_pos_as_xyz
1 x,y,z
2 -x,1/2+y,1/2-z
3 -x,-y,-z
4 x,1/2-y,1/2+z
_cell_length_a                   13.3096(7)
_cell_length_b                   14.3661(7)
_cell_length_c                   20.6457(8)
_cell_angle_alpha                90
_cell_angle_beta                 126.685(2)
_cell_angle_gamma                90
_cell_volume                     3165.71
loop_
_atom_site_label
_atom_site_type_symbol
_atom_site_fract_x
_atom_site_fract_y
_atom_site_fract_z
Zn1 Zn -0.09574(3) -0.25201(2) -0.66195(2)
O1 O -0.1156(2) -0.38552(16) -0.67909(17)
O2 O -0.0424(3) -0.73147(18) -0.83074(18)
O3 O -0.2771(3) -0.42203(19) -0.67877(18)
O4 O 0.0350(3) -0.5897(2) -0.7898(2)
O5 O -0.5491(3) -0.68302(19) -0.86505(18)
H1 H -0.6080 -0.7196 -0.8875
O6 O -0.4691(3) -0.7869(2) -0.9010(2)
N1 N -0.1800(2) -0.14836(17) -0.64174(15)
N2 N -0.2691(3) -0.2110(2) -0.78176(16)
N3 N 0.0023(3) -0.24555(18) -0.52975(18)
N4 N -0.3266(3) -0.02561(18) -0.69354(16)
N5 N -0.1751(2) -0.04701(18) -0.54947(15)
N6 N -0.3250(3) 0.06823(19) -0.60163(17)
N7 N -0.3260(2) -0.13316(18) -0.77812(15)
N8 N -0.0350(2) -0.17126(18) -0.50620(16)
C1 C -0.4588(4) -0.7163(3) -0.8668(2)
C2 C -0.3436(3) -0.6575(2) -0.82281(19)
C3 C -0.2489(3) -0.6835(2) -0.8295(2)
H2 H -0.2577 -0.7371 -0.8576
C4 C -0.1421(3) -0.6294(2) -0.7942(2)
C5 C -0.1290(3) -0.5502(2) -0.7514(2)
H3 H -0.0582 -0.5131 -0.7288
C6 C -0.3287(3) -0.5797(2) -0.77794(19)
H4 H -0.3904 -0.5638 -0.7719
C7 C -0.2208(3) -0.5256(2) -0.74191(19)
C8 C -0.2051(3) -0.4381(2) -0.69563(19)
C9 C -0.3334(4) -0.2311(3) -0.8593(2)
C10 C -0.4309(4) -0.1671(3) -0.9055(2)
H5 H -0.4885 -0.1667 -0.9614
C11 C -0.4263(3) -0.1056(3) -0.8537(2)
C12 C -0.2973(5) -0.3115(3) -0.8868(3)
H6 H -0.3370 -0.3669 -0.8862
H7 H -0.2080 -0.3193 -0.8513
H8 H -0.3236 -0.3002 -0.9407
C13 C -0.5077(4) -0.0243(3) -0.8701(3)
H9 H -0.4573 0.0308 -0.8477
H10 H -0.5499 -0.0346 -0.8459
H11 H -0.5686 -0.0168 -0.9274
C14 C 0.0806(3) -0.2931(3) -0.4634(2)
C15 C 0.0962(4) -0.2509(3) -0.3968(2)
H12 H 0.1475 -0.2718 -0.3436
C16 C 0.0223(3) -0.1735(2) -0.4243(2)
C17 C 0.1388(5) -0.3812(3) -0.4659(3)
H13 H 0.2095 -0.3662 -0.4656
H14 H 0.0783 -0.4152 -0.5142
H15 H 0.1661 -0.4187 -0.4196
C18 C 0.0035(4) -0.1044(3) -0.3800(2)
H16 H 0.0557 -0.1197 -0.3235
H17 H -0.0827 -0.1047 -0.4000
H18 H 0.0253 -0.0437 -0.3874
C19 C -0.1348(3) -0.1180(2) -0.56764(18)
C20 C -0.2765(3) -0.0986(2) -0.70126(18)
C21 C -0.2750(3) -0.0023(2) -0.61569(19)
C22 C -0.4412(4) 0.1136(3) -0.6681(2)
H19 H -0.4991 0.1177 -0.6543
H20 H -0.4800 0.0759 -0.7165
C23 C -0.4173(6) 0.2090(4) -0.6850(4)
H21 H -0.3674 0.2046 -0.7043
H22 H -0.3736 0.2452 -0.6362
H23 H -0.4957 0.2384 -0.7252
C24 C -0.2837(4) 0.0884(3) -0.5194(2)
H24 H -0.3002 0.1532 -0.5159
H25 H -0.1940 0.0782 -0.4817
C25 C -0.3499(5) 0.0277(4) -0.4968(3)
H26 H -0.3446 -0.0361 -0.5084
H27 H -0.4363 0.0459 -0.5274
H28 H -0.3113 0.0345 -0.4402
C26 C -0.0400(4) -0.6507(2) -0.8043(2)
Zn1A Zn 0.09574(3) -0.75201(2) -0.83805(2)
O2A O 0.0424(3) -0.23147(18) -0.66926(18)
O7 O -0.2669(3) -0.3031(2) -0.5745(2)
H29 H -0.2661 -0.3331 -0.6079
C27 C -0.2270(5) -0.3599(3) -0.5078(3)
H30 H -0.1652 -0.3273 -0.4589
H31 H -0.1911 -0.4160 -0.5110
H32 H -0.2972 -0.3750 -0.5078
O8 O 0.2401(8) -0.1225(6) -0.0753(5)
H33 H 0.1941 -0.1668 -0.1008
C28 C 0.2269(8) -0.0548(5) -0.1298(5)
H34 H 0.3071 -0.0432 -0.1185
H35 H 0.1953 0.0020 -0.1237
H36 H 0.1696 -0.0771 -0.1842
loop_
_geom_bond_atom_site_label_1
_geom_bond_atom_site_label_2
_geom_bond_site_symmetry_1
_geom_bond_site_symmetry_2
Zn1 O1 1_555 1_555
O1 C8 1_555 1_555
O2 C26 1_555 1_555
O3 C8 1_555 1_555
O4 C26 1_555 1_555
O5 H1 1_555 1_555
O6 C1 1_555 1_555
N1 Zn1 1_555 1_555
N2 Zn1 1_555 1_555
N3 Zn1 1_555 1_555
N4 C20 1_555 1_555
N5 C19 1_555 1_555
N6 C21 1_555 1_555
N7 N2 1_555 1_555
N8 N3 1_555 1_555
C1 O5 1_555 1_555
C2 C1 1_555 1_555
C3 C2 1_555 1_555
H2 C3 1_555 1_555
C4 C3 1_555 1_555
C5 C4 1_555 1_555
H3 C5 1_555 1_555
C6 C2 1_555 1_555
H4 C6 1_555 1_555
C7 C5 1_555 1_555
C8 C7 1_555 1_555
C9 N2 1_555 1_555
C10 C9 1_555 1_555
H5 C10 1_555 1_555
C11 N7 1_555 1_555
C12 C9 1_555 1_555
H6 C12 1_555 1_555
H7 C12 1_555 1_555
H8 C12 1_555 1_555
C13 C11 1_555 1_555
H9 C13 1_555 1_555
H10 C13 1_555 1_555
H11 C13 1_555 1_555
C14 N3 1_555 1_555
C15 C14 1_555 1_555
H12 C15 1_555 1_555
C16 N8 1_555 1_555
C17 C14 1_555 1_555
H13 C17 1_555 1_555
H14 C17 1_555 1_555
H15 C17 1_555 1_555
C18 C16 1_555 1_555
H16 C18 1_555 1_555
H17 C18 1_555 1_555
H18 C18 1_555 1_555
C19 N1 1_555 1_555
C20 N1 1_555 1_555
C21 N4 1_555 1_555
C22 N6 1_555 1_555
H19 C22 1_555 1_555
H20 C22 1_555 1_555
C23 C22 1_555 1_555
H21 C23 1_555 1_555
H22 C23 1_555 1_555
H23 C23 1_555 1_555
C24 N6 1_555 1_555
H24 C24 1_555 1_555
H25 C24 1_555 1_555
C25 C24 1_555 1_555
H26 C25 1_555 1_555
H27 C25 1_555 1_555
H28 C25 1_555 1_555
C26 C4 1_555 1_555
O7 H29 1_555 1_555
C27 O7 1_555 1_555
H30 C27 1_555 1_555
H31 C27 1_555 1_555
H32 C27 1_555 1_555
O8 H33 1_555 1_555
C28 O8 1_555 1_555
H34 C28 1_555 1_555
H35 C28 1_555 1_555
H36 C28 1_555 1_555
Zn1A O2 1_555 1_555
O2A Zn1 1_555 1_555
N5 C21 1_555 1_555
N7 C20 1_555 1_555
N8 C19 1_555 1_555
C6 C7 1_555 1_555
C10 C11 1_555 1_555
C15 C16 1_555 1_555

#END
