
#######################################################################
#
#                 Cambridge Crystallographic Data Centre
#                                CCDC 
#
#######################################################################
#
# If this CIF has been generated from an entry in the Cambridge 
# Structural Database, then it will include bibliographic, chemical, 
# crystal, experimental, refinement or atomic coordinate data resulting 
# from the CCDC's data processing and validation procedures.
#
#######################################################################

data_KUBPON
_symmetry_cell_setting           triclinic
_symmetry_space_group_name_H-M   'P -1'
_symmetry_Int_Tables_number      2
_space_group_name_Hall           '-P 1'
loop_
_symmetry_equiv_pos_site_id
_symmetry_equiv_pos_as_xyz
1 x,y,z
2 -x,-y,-z
_cell_length_a                   11.7890(2)
_cell_length_b                   11.9999(2)
_cell_length_c                   13.4741(3)
_cell_angle_alpha                79.2950(10)
_cell_angle_beta                 67.7690(10)
_cell_angle_gamma                74.5180(10)
_cell_volume                     1692.73
loop_
_atom_site_label
_atom_site_type_symbol
_atom_site_fract_x
_atom_site_fract_y
_atom_site_fract_z
Cu1 Cu 0.49424(6) 0.26467(6) 0.30494(5)
P1 P 0.60295(13) 0.15095(11) 0.39877(11)
N1 N 0.3087(4) 0.3367(4) 0.3814(4)
N2 N 0.4914(5) 0.1734(5) 0.1896(4)
N3 N 0.5455(5) 0.4080(5) 0.2111(4)
C1 C 0.2441(6) 0.4040(7) 0.3223(5)
H1 H 0.2821 0.4063 0.2454
C2 C 0.1246(6) 0.4684(7) 0.3647(5)
H2 H 0.0821 0.5167 0.3185
C3 C 0.0643(5) 0.4653(5) 0.4757(4)
C4 C 0.1308(6) 0.3924(6) 0.5378(5)
H3 H 0.0928 0.3856 0.6149
C5 C 0.2505(6) 0.3303(6) 0.4882(5)
H4 H 0.2918 0.2804 0.5345
C6 C 0.5734(7) 0.1731(6) 0.0908(5)
H5 H 0.6343 0.2207 0.0670
C7 C 0.5791(6) 0.1083(6) 0.0152(5)
H6 H 0.6415 0.1121 -0.0555
C8 C 0.4972(7) 0.0369(6) 0.0393(5)
C9 C 0.4115(14) 0.0383(14) 0.1417(8)
H7 H 0.3378 0.0103 0.1541
C10 C 0.4086(13) 0.1108(12) 0.2125(7)
H8 H 0.3462 0.1067 0.2832
C11 C 0.7564(5) 0.0728(5) 0.3190(5)
C12 C 0.8139(6) 0.1244(6) 0.2159(5)
H9 H 0.7710 0.1969 0.1900
C13 C 0.9304(7) 0.0721(7) 0.1505(6)
H10 H 0.9677 0.1101 0.0806
C14 C 0.9944(7) -0.0327(8) 0.1857(7)
H11 H 1.0752 -0.0680 0.1380
C15 C 0.9392(7) -0.0842(7) 0.2884(8)
H12 H 0.9811 -0.1562 0.3162
C16 C 0.8215(7) -0.0314(6) 0.3540(6)
H13 H 0.7820 -0.0667 0.4246
C17 C 0.6341(6) 0.2113(5) 0.4984(5)
C18 C 0.6103(10) 0.3289(7) 0.4976(7)
H14 H 0.5838 0.3789 0.4424
C19 C 0.6377(12) 0.3784(8) 0.5691(8)
H15 H 0.6046 0.4600 0.5755
C20 C 0.6857(9) 0.3137(8) 0.6410(7)
H16 H 0.7020 0.3478 0.6919
C21 C 0.7201(12) 0.1955(11) 0.6370(9)
H17 H 0.7678 0.1484 0.6797
C22 C 0.6925(11) 0.1439(8) 0.5685(8)
H18 H 0.7135 0.0609 0.5689
C23 C 0.5293(5) 0.0370(5) 0.4763(4)
C24 C 0.5561(7) 0.4905(6) 0.1571(6)
C25 C 0.5642(11) 0.5990(7) 0.0890(8)
H19 H 0.5737 0.5934 0.0160
H20 H 0.6360 0.6214 0.0901
H21 H 0.4898 0.6561 0.1202
Cu1A Cu 0.50576(6) -0.26467(6) 0.69506(5)
Cu1A_2 Cu -0.49424(6) 0.73533(6) 0.69506(5)
Cu1A_3 Cu 0.50576(6) -0.26467(6) -0.30494(5)
P1A P 0.39705(13) -0.15095(11) 0.60123(11)
N1A N -0.3087(4) 0.6633(4) 0.6186(4)
N1A_2 N 0.6913(4) -0.3367(4) 0.6186(4)
N2A N 0.5086(5) -0.1734(5) -0.1896(4)
N2A_2 N 0.5086(5) -0.1734(5) 0.8104(4)
N3A N 0.4545(5) -0.4080(5) 0.7889(4)
C1A C -0.2441(6) 0.5960(7) 0.6777(5)
H1A H -0.2821 0.5937 0.7546
C2A C -0.1246(6) 0.5316(7) 0.6353(5)
H2A H -0.0821 0.4833 0.6815
C3A C -0.0643(5) 0.5347(5) 0.5243(4)
C4A C -0.1308(6) 0.6076(6) 0.4622(5)
H3A H -0.0928 0.6144 0.3851
C5A C -0.2505(6) 0.6697(6) 0.5118(5)
H4A H -0.2918 0.7196 0.4655
C6A C 0.4266(7) -0.1731(6) -0.0908(5)
H5A H 0.3657 -0.2207 -0.0670
C7A C 0.4209(6) -0.1083(6) -0.0152(5)
H6A H 0.3585 -0.1121 0.0555
C8A C 0.5028(7) -0.0369(6) -0.0393(5)
C9A C 0.5885(14) -0.0383(14) -0.1417(8)
H7A H 0.6622 -0.0103 -0.1541
C10A C 0.5914(13) -0.1108(12) -0.2125(7)
H8A H 0.6538 -0.1067 -0.2832
C11A C 0.2436(5) -0.0728(5) 0.6810(5)
C12A C 0.1861(6) -0.1244(6) 0.7841(5)
H9A H 0.2290 -0.1969 0.8100
C13A C 0.0696(7) -0.0721(7) 0.8495(6)
H10A H 0.0323 -0.1101 0.9194
C14A C 0.0056(7) 0.0327(8) 0.8143(7)
H11A H -0.0752 0.0680 0.8620
C15A C 0.0608(7) 0.0842(7) 0.7116(8)
H12A H 0.0189 0.1562 0.6838
C16A C 0.1785(7) 0.0314(6) 0.6460(6)
H13A H 0.2180 0.0667 0.5754
C17A C 0.3659(6) -0.2113(5) 0.5016(5)
C18A C 0.3897(10) -0.3289(7) 0.5024(7)
H14A H 0.4162 -0.3789 0.5576
C19A C 0.3623(12) -0.3784(8) 0.4309(8)
H15A H 0.3954 -0.4600 0.4245
C20A C 0.3143(9) -0.3137(8) 0.3590(7)
H16A H 0.2980 -0.3478 0.3081
C21A C 0.2799(12) -0.1955(11) 0.3630(9)
H17A H 0.2322 -0.1484 0.3203
C22A C 0.3075(11) -0.1439(8) 0.4315(8)
H18A H 0.2865 -0.0609 0.4311
C23A C 0.4707(5) -0.0370(5) 0.5237(4)
C24A C 0.4439(7) -0.4905(6) 0.8429(6)
C25A C 0.4358(11) -0.5990(7) 0.9110(8)
H19A H 0.4263 -0.5934 0.9840
H20A H 0.3640 -0.6214 0.9099
H21A H 0.5102 -0.6561 0.8798
Cl1 Cl 0.0691(19) 0.2582(19) 0.2406(10)
Cl2 Cl 0.0535(8) 0.1450(8) 0.4349(9)
C26 C -0.0190(19) 0.234(3) 0.3488(16)
H22 H -0.0801 0.1973 0.3432
H23 H -0.0640 0.3070 0.3797
Cl3 Cl 0.3559(4) 0.2039(6) 0.7384(3)
Cl4 Cl 0.2141(3) 0.1965(3) 0.9660(3)
C27 C 0.2199(12) 0.1824(14) 0.8392(11)
H24 H 0.2096 0.1052 0.8380
H25 H 0.1499 0.2378 0.8248
F1 F 0.2459(11) 0.5534(8) 0.0990(6)
F2 F 0.1691(6) 0.7071(7) 0.0091(4)
F3 F 0.0576(5) 0.6603(5) 0.1807(4)
F4 F 0.2275(7) 0.7241(9) 0.1431(6)
B1 B 0.1768(9) 0.6578(9) 0.1040(8)
O1 O 0.1694(13) 0.5266(12) 0.7628(11)
O3 O 0.957(3) 0.479(3) 0.087(3)
O2? O 0.257(4) 0.394(3) 0.751(3)
loop_
_geom_bond_atom_site_label_1
_geom_bond_atom_site_label_2
_geom_bond_site_symmetry_1
_geom_bond_site_symmetry_2
Cu1 P1 1_555 1_555
Cl1 C26 1_555 1_555
Cl2 C26 1_555 1_555
Cl3 C27 1_555 1_555
Cl4 C27 1_555 1_555
P1 C11 1_555 1_555
F1 B1 1_555 1_555
F2 B1 1_555 1_555
F3 B1 1_555 1_555
F4 B1 1_555 1_555
N1 Cu1 1_555 1_555
N2 Cu1 1_555 1_555
N3 Cu1 1_555 1_555
C1 N1 1_555 1_555
H1 C1 1_555 1_555
C2 C1 1_555 1_555
H2 C2 1_555 1_555
C3 C2 1_555 1_555
C4 C3 1_555 1_555
H3 C4 1_555 1_555
C5 N1 1_555 1_555
H4 C5 1_555 1_555
C6 N2 1_555 1_555
H5 C6 1_555 1_555
C7 C6 1_555 1_555
H6 C7 1_555 1_555
C8 C7 1_555 1_555
C9 C8 1_555 1_555
H7 C9 1_555 1_555
C10 N2 1_555 1_555
H8 C10 1_555 1_555
C11 C12 1_555 1_555
C12 H9 1_555 1_555
C13 C12 1_555 1_555
H10 C13 1_555 1_555
C14 C13 1_555 1_555
H11 C14 1_555 1_555
C15 C14 1_555 1_555
H12 C15 1_555 1_555
C16 C11 1_555 1_555
H13 C16 1_555 1_555
C17 P1 1_555 1_555
C18 C17 1_555 1_555
H14 C18 1_555 1_555
C19 C18 1_555 1_555
H15 C19 1_555 1_555
C20 C19 1_555 1_555
H16 C20 1_555 1_555
C21 C20 1_555 1_555
H17 C21 1_555 1_555
C22 C17 1_555 1_555
H18 C22 1_555 1_555
C23 P1 1_555 1_555
C24 N3 1_555 1_555
C25 C24 1_555 1_555
H19 C25 1_555 1_555
H20 C25 1_555 1_555
H21 C25 1_555 1_555
C26 H22 1_555 1_555
H23 C26 1_555 1_555
C27 H24 1_555 1_555
H25 C27 1_555 1_555
Cu1A P1A 1_555 1_555
Cu1A_2 N1A 1_555 1_555
Cu1A_3 N2A 1_555 1_555
P1A C11A 1_555 1_555
N1A C1A 1_555 1_555
N1A_2 Cu1A 1_555 1_555
N2A C6A 1_555 1_555
N2A_2 Cu1A 1_555 1_555
N3A Cu1A 1_555 1_555
C1A H1A 1_555 1_555
C2A C1A 1_555 1_555
H2A C2A 1_555 1_555
C3A C3 1_555 1_555
C4A C3A 1_555 1_555
H3A C4A 1_555 1_555
C5A N1A 1_555 1_555
H4A C5A 1_555 1_555
C6A H5A 1_555 1_555
C7A C6A 1_555 1_555
H6A C7A 1_555 1_555
C8A C8 1_555 1_555
C9A C8A 1_555 1_555
H7A C9A 1_555 1_555
C10A N2A 1_555 1_555
H8A C10A 1_555 1_555
C11A C12A 1_555 1_555
C12A H9A 1_555 1_555
C13A C12A 1_555 1_555
H10A C13A 1_555 1_555
C14A C13A 1_555 1_555
H11A C14A 1_555 1_555
C15A C14A 1_555 1_555
H12A C15A 1_555 1_555
C16A C11A 1_555 1_555
H13A C16A 1_555 1_555
C17A P1A 1_555 1_555
C18A C17A 1_555 1_555
H14A C18A 1_555 1_555
C19A C18A 1_555 1_555
H15A C19A 1_555 1_555
C20A C19A 1_555 1_555
H16A C20A 1_555 1_555
C21A C20A 1_555 1_555
H17A C21A 1_555 1_555
C22A C17A 1_555 1_555
H18A C22A 1_555 1_555
C23A C23 1_555 1_555
C24A N3A 1_555 1_555
C25A C24A 1_555 1_555
H19A C25A 1_555 1_555
H20A C25A 1_555 1_555
H21A C25A 1_555 1_555
C4 C5 1_555 1_555
C9 C10 1_555 1_555
C15 C16 1_555 1_555
C21 C22 1_555 1_555
P1A C23A 1_555 1_555
C2A C3A 1_555 1_555
C4A C5A 1_555 1_555
C7A C8A 1_555 1_555
C9A C10A 1_555 1_555
C15A C16A 1_555 1_555
C21A C22A 1_555 1_555

#END
