
#######################################################################
#
#                 Cambridge Crystallographic Data Centre
#                                CCDC 
#
#######################################################################
#
# If this CIF has been generated from an entry in the Cambridge 
# Structural Database, then it will include bibliographic, chemical, 
# crystal, experimental, refinement or atomic coordinate data resulting 
# from the CCDC's data processing and validation procedures.
#
#######################################################################

data_KUBQAA
_symmetry_cell_setting           monoclinic
_symmetry_space_group_name_H-M   'C c'
_symmetry_Int_Tables_number      9
_space_group_name_Hall           'C -2yc'
loop_
_symmetry_equiv_pos_site_id
_symmetry_equiv_pos_as_xyz
1 x,y,z
2 x,-y,1/2+z
3 1/2+x,1/2+y,z
4 1/2+x,1/2-y,1/2+z
_cell_length_a                   20.6349(2)
_cell_length_b                   47.1890(8)
_cell_length_c                   17.9398(2)
_cell_angle_alpha                90
_cell_angle_beta                 118.8911(8)
_cell_angle_gamma                90
_cell_volume                     15294.5
loop_
_atom_site_label
_atom_site_type_symbol
_atom_site_fract_x
_atom_site_fract_y
_atom_site_fract_z
Cu1 Cu -0.59571(6) 0.56996(2) 0.01596(6)
Cu2 Cu -1.15225(6) 0.67556(2) -0.23694(6)
Cu3 Cu -0.59394(6) 0.68518(2) -0.20337(7)
Cu4 Cu -1.13781(6) 0.57173(2) -0.45807(7)
P1 P -0.50478(13) 0.60056(5) 0.07008(14)
P2 P -0.50453(13) 0.65375(5) -0.15322(15)
P3 P -1.24513(13) 0.64605(5) -0.28547(15)
P4 P -1.23738(13) 0.59841(5) -0.51269(14)
N1 N -0.6085(4) 0.54034(17) 0.0911(5)
N2 N -0.6067(5) 0.45308(17) 0.4119(5)
N3 N -0.6977(5) 0.58997(18) -0.0362(5)
N4 N -1.0520(5) 0.65415(19) -0.1917(6)
N5 N -1.1325(4) 0.70311(16) -0.1401(5)
N6 N -1.1074(4) 0.78980(15) 0.1966(5)
N7 N -0.6976(5) 0.66555(19) -0.2443(6)
N8 N -1.0399(4) 0.59419(17) -0.4007(5)
N9 N -1.1449(5) 0.70173(17) -0.3251(5)
N10 N -1.0942(6) 0.7847(2) -0.6196(5)
N11 N -1.1246(5) 0.54495(18) -0.5414(5)
N12 N -1.1345(5) 0.45475(19) -0.8656(5)
C1 C -0.5663(6) 0.5172(2) 0.1196(6)
H1 H -0.5321 0.5135 0.0997
C2 C -0.5697(6) 0.4983(2) 0.1767(6)
H2 H -0.5388 0.4820 0.1938
C3 C -0.6165(5) 0.50282(19) 0.2082(6)
C4 C -0.6649(6) 0.5261(2) 0.1755(7)
H3 H -0.7020 0.5289 0.1916
C5 C -0.6589(6) 0.5446(2) 0.1205(7)
H4 H -0.6900 0.5609 0.1020
C6 C -0.5912(8) 0.4426(2) 0.3562(7)
H5 H -0.5746 0.4235 0.3641
C7 C -0.5964(9) 0.4562(2) 0.2879(8)
H6 H -0.5868 0.4463 0.2481
C8 C -0.6160(5) 0.48499(19) 0.2749(6)
C9 C -0.6338(8) 0.4958(2) 0.3357(8)
H7 H -0.6501 0.5149 0.3313
C10 C -0.6279(9) 0.4795(2) 0.4002(8)
H8 H -0.6399 0.4879 0.4401
C11 C -0.7085(6) 0.6161(3) -0.0131(8)
H9 H -0.6660 0.6263 0.0260
C12 C -0.7749(7) 0.6286(3) -0.0411(9)
H10 H -0.7777 0.6470 -0.0211
C13 C -0.8387(6) 0.6151(2) -0.0986(6)
C14 C -0.8303(6) 0.5874(2) -0.1193(8)
H11 H -0.8724 0.5764 -0.1554
C15 C -0.7596(6) 0.5761(2) -0.0867(7)
H12 H -0.7553 0.5571 -0.1016
C16 C -0.9905(7) 0.6690(2) -0.1764(8)
H13 H -0.9952 0.6889 -0.1864
C17 C -0.9210(6) 0.6568(2) -0.1469(8)
H14 H -0.8794 0.6682 -0.1368
C18 C -0.9136(6) 0.6282(2) -0.1328(7)
C19 C -0.9769(6) 0.6128(3) -0.1480(8)
H15 H -0.9738 0.5930 -0.1378
C20 C -1.0422(7) 0.6265(3) -0.1772(8)
H16 H -1.0844 0.6154 -0.1881
C21 C -1.0826(6) 0.6984(2) -0.0593(7)
H17 H -1.0507 0.6825 -0.0467
C22 C -1.0749(6) 0.7153(2) 0.0067(6)
H18 H -1.0385 0.7108 0.0633
C23 C -1.1193(5) 0.73874(19) -0.0082(6)
C24 C -1.1708(5) 0.7441(2) -0.0911(6)
H19 H -1.2032 0.7599 -0.1050
C25 C -1.1747(6) 0.7262(2) -0.1541(6)
H20 H -1.2098 0.7306 -0.2114
C26 C -1.0622(7) 0.7690(2) 0.2105(6)
H21 H -1.0251 0.7652 0.2673
C27 C -1.0659(6) 0.7517(2) 0.1443(7)
H22 H -1.0332 0.7360 0.1577
C28 C -1.1146(5) 0.75713(18) 0.0633(5)
C29 C -1.1608(6) 0.7794(2) 0.0483(7)
H23 H -1.1959 0.7841 -0.0086
C30 C -1.1576(6) 0.7953(2) 0.1142(6)
H24 H -1.1914 0.8105 0.1018
C31 C -0.7014(6) 0.6386(2) -0.2241(7)
H25 H -0.6565 0.6291 -0.1875
C32 C -0.7659(6) 0.6241(3) -0.2531(7)
H26 H -0.7652 0.6045 -0.2404
C33 C -0.8330(5) 0.6379(2) -0.3014(6)
C34 C -0.8272(7) 0.6668(3) -0.3132(10)
H27 H -0.8709 0.6779 -0.3398
C35 C -0.7607(7) 0.6793(3) -0.2875(10)
H28 H -0.7594 0.6987 -0.3011
C36 C -0.9739(6) 0.5808(2) -0.3794(7)
H29 H -0.9742 0.5609 -0.3879
C37 C -0.9086(6) 0.5948(2) -0.3468(7)
H30 H -0.8645 0.5845 -0.3323
C38 C -0.9049(5) 0.6229(2) -0.3347(6)
C39 C -0.9693(5) 0.6374(2) -0.3547(7)
H31 H -0.9695 0.6573 -0.3476
C40 C -1.0340(6) 0.6215(2) -0.3859(6)
H32 H -1.0780 0.6314 -0.3976
C41 C -1.1085(7) 0.7255(3) -0.3042(8)
H33 H -1.0900 0.7319 -0.2473
C42 C -1.0946(7) 0.7419(3) -0.3580(7)
H34 H -1.0674 0.7591 -0.3383
C43 C -1.1210(7) 0.7332(2) -0.4419(7)
C44 C -1.1587(8) 0.7077(3) -0.4637(7)
H35 H -1.1770 0.7004 -0.5197
C45 C -1.1697(9) 0.6930(3) -0.4057(7)
H36 H -1.1963 0.6757 -0.4229
C46 C -1.0408(7) 0.7831(3) -0.5396(9)
H37 H -0.9966 0.7936 -0.5230
C47 C -1.0469(9) 0.7665(3) -0.4775(9)
H38 H -1.0086 0.7661 -0.4199
C48 C -1.1111(6) 0.7507(2) -0.5042(6)
C49 C -1.1559(11) 0.7493(4) -0.5860(9)
H39 H -1.1958 0.7362 -0.6077
C50 C -1.1456(9) 0.7668(3) -0.6409(7)
H40 H -1.1801 0.7652 -0.6999
C51 C -1.0853(8) 0.5505(3) -0.5768(8)
H41 H -1.0545 0.5668 -0.5577
C52 C -1.0841(7) 0.5343(3) -0.6421(8)
H42 H -1.0561 0.5403 -0.6685
C53 C -1.1262(7) 0.5084(2) -0.6680(8)
C54 C -1.1675(12) 0.5031(3) -0.6278(13)
H43 H -1.1966 0.4864 -0.6406
C55 C -1.1661(10) 0.5221(3) -0.5694(11)
H44 H -1.1985 0.5184 -0.5468
C56 C -1.1929(7) 0.4592(3) -0.8531(8)
H45 H -1.2386 0.4504 -0.8911
C57 C -1.1906(7) 0.4756(3) -0.7885(9)
H46 H -1.2332 0.4772 -0.7815
C58 C -1.1278(7) 0.4896(2) -0.7350(7)
C59 C -1.0688(7) 0.4873(4) -0.7486(8)
H47 H -1.0250 0.4980 -0.7154
C60 C -1.0733(7) 0.4695(3) -0.8105(9)
H48 H -1.0300 0.4672 -0.8157
C61 C -0.5063(5) 0.6225(2) -0.0106(6)
C62 C -0.5051(5) 0.63381(19) -0.0705(6)
C63 C -1.2469(5) 0.6256(2) -0.3705(6)
C64 C -1.2460(5) 0.61560(19) -0.4288(6)
C65 C -0.4086(5) 0.5896(2) 0.1203(6)
C66 C -0.3935(7) 0.5607(3) 0.1193(8)
H49 H -0.4328 0.5474 0.0929
C67 C -0.3191(11) 0.5515(5) 0.1578(12)
H50 H -0.3066 0.5320 0.1600
C68 C -0.2626(9) 0.5733(7) 0.1938(12)
H51 H -0.2120 0.5680 0.2185
C69 C -0.2792(7) 0.5998(4) 0.1932(10)
H52 H -0.2406 0.6135 0.2182
C70 C -0.3515(7) 0.6085(3) 0.1572(7)
H53 H -0.3621 0.6281 0.1578
C71 C -0.5080(6) 0.6263(2) 0.1441(6)
C72 C -0.5151(8) 0.6162(3) 0.2117(8)
H54 H -0.5188 0.5962 0.2155
C73 C -0.5174(12) 0.6320(4) 0.2730(11)
H55 H -0.5238 0.6241 0.3177
C74 C -0.5096(13) 0.6614(5) 0.2648(16)
H56 H -0.5048 0.6735 0.3096
C75 C -0.5085(14) 0.6729(3) 0.1994(13)
H57 H -0.5146 0.6928 0.1899
C76 C -0.4977(10) 0.6542(2) 0.1409(9)
H58 H -0.4837 0.6617 0.1017
C77 C -0.4078(6) 0.6653(2) -0.1031(7)
C78 C -0.3538(6) 0.6518(4) -0.0306(10)
H59 H -0.3651 0.6361 -0.0059
C79 C -0.2829(12) 0.6626(5) 0.0036(13)
H60 H -0.2446 0.6549 0.0550
C80 C -0.2672(9) 0.6847(5) -0.0366(14)
H61 H -0.2172 0.6903 -0.0158
C81 C -0.3192(11) 0.6978(4) -0.1021(13)
H62 H -0.3094 0.7146 -0.1242
C82 C -0.3892(8) 0.6862(4) -0.1376(11)
H63 H -0.4262 0.6937 -0.1901
C83 C -0.5104(6) 0.6268(2) -0.2277(7)
C84 C -0.4565(8) 0.6056(3) -0.2104(9)
H64 H -0.4133 0.6045 -0.1563
C85 C -0.4681(9) 0.5866(3) -0.2739(11)
H65 H -0.4295 0.5737 -0.2645
C86 C -0.5313(11) 0.5854(3) -0.3486(10)
H66 H -0.5365 0.5715 -0.3896
C87 C -0.5886(8) 0.6041(3) -0.3667(8)
H67 H -0.6335 0.6028 -0.4190
C88 C -0.5795(9) 0.6248(3) -0.3068(7)
H68 H -0.6187 0.6376 -0.3180
C89 C -1.3417(6) 0.6588(2) -0.3351(7)
C90 C -1.3533(8) 0.6875(3) -0.3277(12)
H69 H -1.3131 0.6999 -0.2951
C91 C -1.4271(12) 0.6977(4) -0.3702(13)
H70 H -1.4357 0.7174 -0.3688
C92 C -1.4860(9) 0.6803(4) -0.4129(13)
H71 H -1.5352 0.6874 -0.4424
C93 C -1.4709(8) 0.6522(4) -0.4113(11)
H72 H -1.5112 0.6394 -0.4374
C94 C -1.4025(7) 0.6419(3) -0.3749(10)
H73 H -1.3957 0.6221 -0.3768
C95 C -1.2393(6) 0.6185(2) -0.2109(6)
C96 C -1.2687(8) 0.5915(2) -0.2320(10)
H74 H -1.2949 0.5862 -0.2903
C97 C -1.2615(9) 0.5727(3) -0.1740(11)
H75 H -1.2790 0.5539 -0.1905
C98 C -1.2298(10) 0.5801(4) -0.0919(13)
H76 H -1.2259 0.5668 -0.0502
C99 C -1.2047(11) 0.6052(4) -0.0700(13)
H77 H -1.1848 0.6103 -0.0117
C100 C -1.2048(9) 0.6258(3) -0.1265(8)
H78 H -1.1822 0.6438 -0.1073
C101 C -1.2423(6) 0.6280(2) -0.5802(6)
C102 C -1.1855(8) 0.6325(3) -0.5978(8)
H79 H -1.1451 0.6196 -0.5740
C103 C -1.1823(12) 0.6530(4) -0.6445(11)
H80 H -1.1419 0.6543 -0.6559
C104 C -1.2366(18) 0.6720(6) -0.6760(11)
H81 H -1.2323 0.6879 -0.7060
C105 C -1.2976(13) 0.6695(3) -0.6668(10)
H82 H -1.3369 0.6828 -0.6935
C106 C -1.3031(8) 0.6462(3) -0.6153(9)
H83 H -1.3447 0.6438 -0.6067
C107 C -1.3264(6) 0.5804(2) -0.5715(6)
C108 C -1.3427(8) 0.5651(3) -0.6434(7)
H84 H -1.3080 0.5666 -0.6637
C109 C -1.3994(9) 0.5487(4) -0.6876(8)
H85 H -1.4055 0.5378 -0.7350
C110 C -1.4525(11) 0.5492(4) -0.6556(11)
H86 H -1.4978 0.5393 -0.6874
C111 C -1.4422(8) 0.5622(4) -0.5869(9)
H87 H -1.4764 0.5605 -0.5660
C112 C -1.3764(7) 0.5793(4) -0.5437(9)
H88 H -1.3683 0.5900 -0.4951
Cu1A Cu -0.59571(6) 0.43004(2) 0.51596(6)
Cu3C Cu -1.09394(6) 0.81482(2) 0.29663(7)
Cu3C_2 Cu -1.09394(6) 0.81482(2) -0.70337(7)
Cu4A Cu -1.13781(6) 0.42827(2) -0.95807(7)
N2A N -0.6067(5) 0.54692(17) -0.0881(5)
N6C N -0.6074(4) 0.71020(15) -0.3034(5)
N10C N -0.5942(6) 0.7153(2) -0.1196(5)
N12A N -1.1345(5) 0.54525(19) -0.3656(5)
B1 B -0.8905(10) 0.7349(3) -0.2504(12)
F1 F -0.9225(7) 0.7607(2) -0.2637(7)
F2 F -0.9264(13) 0.7182(5) -0.3169(13)
F3 F -0.8931(16) 0.7223(6) -0.1845(15)
F4 F -0.8215(10) 0.7347(5) -0.2395(15)
B2 B -1.3666(13) 0.7760(4) -0.2203(14)
F5 F -1.4154(10) 0.7930(4) -0.2858(11)
F6 F -1.4002(11) 0.7606(4) -0.1905(12)
F7 F -1.3143(9) 0.7913(4) -0.1540(10)
F8 F -1.3367(13) 0.7556(5) -0.2442(14)
B3 B -0.9157(8) 0.9741(3) 0.1114(9)
F9 F -0.9072(7) 0.9814(3) 0.1904(8)
F10 F -0.9851(9) 0.9695(4) 0.0629(11)
F11 F -0.8765(8) 0.9495(3) 0.1226(10)
F12 F -0.8915(14) 0.9946(6) 0.0792(18)
B4 B -1.3537(13) 1.0173(5) -0.2824(17)
F13 F -1.3168(9) 0.9921(3) -0.2735(10)
F14 F -1.4147(11) 1.0169(5) -0.3548(13)
F15 F -1.3067(11) 1.0394(4) -0.2703(13)
F16 F -1.3812(17) 1.0229(6) -0.2305(18)
C113 C -0.9176(9) 0.7660(6) -0.056(5)
H89 H -0.9035 0.7536 -0.0908
H90 H -0.9036 0.7563 -0.0018
Cl1 Cl -1.0106(7) 0.7715(3) -0.1092(8)
Cl2 Cl -0.8713(13) 0.7973(5) -0.0372(15)
C114 C -0.8258(10) 0.7723(8) -0.414(2)
H91 H -0.8363 0.7739 -0.4735
H92 H -0.8522 0.7557 -0.4076
Cl3 Cl -0.7329(6) 0.7710(2) -0.3443(7)
Cl4 Cl -0.8475(13) 0.8028(5) -0.3790(14)
N13 N -1.207(2) 0.8552(10) -0.068(3)
C115 C -1.249(3) 0.8596(12) -0.042(3)
C116 C -1.2888(19) 0.8613(8) 0.010(2)
H93 H -1.2568 0.8703 0.0645
H94 H -1.3016 0.8421 0.0192
H95 H -1.3341 0.8725 -0.0216
N14 N -1.345(2) 0.9268(6) -0.415(2)
C117 C -1.3576(10) 0.9473(7) -0.4555(17)
C118 C -1.3897(10) 0.9662(5) -0.5325(12)
H96 H -1.3863 0.9860 -0.5146
H97 H -1.4417 0.9612 -0.5696
H98 H -1.3620 0.9637 -0.5636
N15 N -1.0841(10) 0.6817(5) 0.2237(12)
C119 C -1.0897(10) 0.6629(5) 0.1793(12)
C120 C -1.0743(10) 0.6426(5) 0.1248(12)
H99 H -1.1125 0.6447 0.0652
H100 H -1.0747 0.6231 0.1436
H101 H -1.0257 0.6468 0.1303
O1 O -0.7489(5) 0.98099(16) 0.5322(5)
H102 H -0.7670 0.9678 0.5445
H103 H -0.7715 0.9817 0.4800
O2 O -1.5208(9) 0.9449(2) -0.5258(10)
H104 H -1.5415 0.9455 -0.4923
H105 H -1.5218 0.9632 -0.5404
O3 O -1.0012(17) 0.6940(3) 0.4629(19)
H106 H -0.9789 0.6799 0.4485
H107 H -1.0212 0.6865 0.4939
loop_
_geom_bond_atom_site_label_1
_geom_bond_atom_site_label_2
_geom_bond_site_symmetry_1
_geom_bond_site_symmetry_2
Cu1 P1 1_555 1_555
Cu2 P3 1_555 1_555
Cu3 P2 1_555 1_555
Cu4 P4 1_555 1_555
P1 C61 1_555 1_555
P2 C62 1_555 1_555
P3 C63 1_555 1_555
P4 C64 1_555 1_555
N1 Cu1 1_555 1_555
N2 C6 1_555 1_555
N3 Cu1 1_555 1_555
N4 Cu2 1_555 1_555
N5 Cu2 1_555 1_555
N6 C26 1_555 1_555
N7 Cu3 1_555 1_555
N8 Cu4 1_555 1_555
N9 Cu2 1_555 1_555
N10 C46 1_555 1_555
N11 Cu4 1_555 1_555
N12 C56 1_555 1_555
C1 N1 1_555 1_555
H1 C1 1_555 1_555
C2 C1 1_555 1_555
H2 C2 1_555 1_555
C3 C2 1_555 1_555
C4 C3 1_555 1_555
H3 C4 1_555 1_555
C5 N1 1_555 1_555
H4 C5 1_555 1_555
C6 H5 1_555 1_555
C7 C6 1_555 1_555
H6 C7 1_555 1_555
C8 C3 1_555 1_555
C9 C8 1_555 1_555
H7 C9 1_555 1_555
C10 N2 1_555 1_555
H8 C10 1_555 1_555
C11 N3 1_555 1_555
H9 C11 1_555 1_555
C12 C11 1_555 1_555
H10 C12 1_555 1_555
C13 C12 1_555 1_555
C14 C13 1_555 1_555
H11 C14 1_555 1_555
C15 N3 1_555 1_555
H12 C15 1_555 1_555
C16 N4 1_555 1_555
H13 C16 1_555 1_555
C17 C16 1_555 1_555
H14 C17 1_555 1_555
C18 C13 1_555 1_555
C19 C18 1_555 1_555
H15 C19 1_555 1_555
C20 N4 1_555 1_555
H16 C20 1_555 1_555
C21 N5 1_555 1_555
H17 C21 1_555 1_555
C22 C21 1_555 1_555
H18 C22 1_555 1_555
C23 C22 1_555 1_555
C24 C23 1_555 1_555
H19 C24 1_555 1_555
C25 N5 1_555 1_555
H20 C25 1_555 1_555
C26 H21 1_555 1_555
C27 C26 1_555 1_555
H22 C27 1_555 1_555
C28 C23 1_555 1_555
C29 C28 1_555 1_555
H23 C29 1_555 1_555
C30 N6 1_555 1_555
H24 C30 1_555 1_555
C31 N7 1_555 1_555
H25 C31 1_555 1_555
C32 C31 1_555 1_555
H26 C32 1_555 1_555
C33 C32 1_555 1_555
C34 C33 1_555 1_555
H27 C34 1_555 1_555
C35 N7 1_555 1_555
H28 C35 1_555 1_555
C36 N8 1_555 1_555
H29 C36 1_555 1_555
C37 C36 1_555 1_555
H30 C37 1_555 1_555
C38 C33 1_555 1_555
C39 C38 1_555 1_555
H31 C39 1_555 1_555
C40 N8 1_555 1_555
H32 C40 1_555 1_555
C41 N9 1_555 1_555
H33 C41 1_555 1_555
C42 C41 1_555 1_555
H34 C42 1_555 1_555
C43 C42 1_555 1_555
C44 C43 1_555 1_555
H35 C44 1_555 1_555
C45 N9 1_555 1_555
H36 C45 1_555 1_555
C46 H37 1_555 1_555
C47 C46 1_555 1_555
H38 C47 1_555 1_555
C48 C43 1_555 1_555
C49 C48 1_555 1_555
H39 C49 1_555 1_555
C50 N10 1_555 1_555
H40 C50 1_555 1_555
C51 N11 1_555 1_555
H41 C51 1_555 1_555
C52 C51 1_555 1_555
H42 C52 1_555 1_555
C53 C52 1_555 1_555
C54 C53 1_555 1_555
H43 C54 1_555 1_555
C55 N11 1_555 1_555
H44 C55 1_555 1_555
C56 H45 1_555 1_555
C57 C56 1_555 1_555
H46 C57 1_555 1_555
C58 C53 1_555 1_555
C59 C58 1_555 1_555
H47 C59 1_555 1_555
C60 N12 1_555 1_555
H48 C60 1_555 1_555
C61 C62 1_555 1_555
C63 C64 1_555 1_555
C65 P1 1_555 1_555
C66 C65 1_555 1_555
H49 C66 1_555 1_555
C67 C66 1_555 1_555
H50 C67 1_555 1_555
C68 C67 1_555 1_555
H51 C68 1_555 1_555
C69 C68 1_555 1_555
H52 C69 1_555 1_555
C70 C65 1_555 1_555
H53 C70 1_555 1_555
C71 P1 1_555 1_555
C72 C71 1_555 1_555
H54 C72 1_555 1_555
C73 C72 1_555 1_555
H55 C73 1_555 1_555
C74 C73 1_555 1_555
H56 C74 1_555 1_555
C75 C74 1_555 1_555
H57 C75 1_555 1_555
C76 C71 1_555 1_555
H58 C76 1_555 1_555
C77 P2 1_555 1_555
C78 C77 1_555 1_555
H59 C78 1_555 1_555
C79 C78 1_555 1_555
H60 C79 1_555 1_555
C80 C79 1_555 1_555
H61 C80 1_555 1_555
C81 C80 1_555 1_555
H62 C81 1_555 1_555
C82 C77 1_555 1_555
H63 C82 1_555 1_555
C83 P2 1_555 1_555
C84 C83 1_555 1_555
H64 C84 1_555 1_555
C85 C84 1_555 1_555
H65 C85 1_555 1_555
C86 C85 1_555 1_555
H66 C86 1_555 1_555
C87 C86 1_555 1_555
H67 C87 1_555 1_555
C88 C83 1_555 1_555
H68 C88 1_555 1_555
C89 P3 1_555 1_555
C90 C89 1_555 1_555
H69 C90 1_555 1_555
C91 C90 1_555 1_555
H70 C91 1_555 1_555
C92 C91 1_555 1_555
H71 C92 1_555 1_555
C93 C92 1_555 1_555
H72 C93 1_555 1_555
C94 C89 1_555 1_555
H73 C94 1_555 1_555
C95 P3 1_555 1_555
C96 C95 1_555 1_555
H74 C96 1_555 1_555
C97 C96 1_555 1_555
H75 C97 1_555 1_555
C98 C97 1_555 1_555
H76 C98 1_555 1_555
C99 C98 1_555 1_555
H77 C99 1_555 1_555
C100 C95 1_555 1_555
H78 C100 1_555 1_555
C101 P4 1_555 1_555
C102 C101 1_555 1_555
H79 C102 1_555 1_555
C103 C102 1_555 1_555
H80 C103 1_555 1_555
C104 C103 1_555 1_555
H81 C104 1_555 1_555
C105 C104 1_555 1_555
H82 C105 1_555 1_555
C106 C101 1_555 1_555
H83 C106 1_555 1_555
C107 P4 1_555 1_555
C108 C107 1_555 1_555
H84 C108 1_555 1_555
C109 C108 1_555 1_555
H85 C109 1_555 1_555
C110 C109 1_555 1_555
H86 C110 1_555 1_555
C111 C110 1_555 1_555
H87 C111 1_555 1_555
C112 C107 1_555 1_555
H88 C112 1_555 1_555
B1 F1 1_555 1_555
F2 B1 1_555 1_555
F3 B1 1_555 1_555
F4 B1 1_555 1_555
B2 F5 1_555 1_555
F6 B2 1_555 1_555
F7 B2 1_555 1_555
F8 B2 1_555 1_555
B3 F9 1_555 1_555
F10 B3 1_555 1_555
F11 B3 1_555 1_555
F12 B3 1_555 1_555
B4 F13 1_555 1_555
F14 B4 1_555 1_555
F15 B4 1_555 1_555
F16 B4 1_555 1_555
C113 H89 1_555 1_555
H90 C113 1_555 1_555
Cl1 C113 1_555 1_555
Cl2 C113 1_555 1_555
C114 H91 1_555 1_555
H92 C114 1_555 1_555
Cl3 C114 1_555 1_555
Cl4 C114 1_555 1_555
N13 C115 1_555 1_555
C115 C116 1_555 1_555
C116 H93 1_555 1_555
H94 C116 1_555 1_555
H95 C116 1_555 1_555
N14 C117 1_555 1_555
C117 C118 1_555 1_555
C118 H96 1_555 1_555
H97 C118 1_555 1_555
H98 C118 1_555 1_555
N15 C119 1_555 1_555
C119 C120 1_555 1_555
C120 H99 1_555 1_555
H100 C120 1_555 1_555
H101 C120 1_555 1_555
O1 H102 1_555 1_555
H103 O1 1_555 1_555
O2 H104 1_555 1_555
H105 O2 1_555 1_555
O3 H106 1_555 1_555
H107 O3 1_555 1_555
Cu1A N2 1_555 1_555
Cu3C N6 1_555 1_555
Cu3C_2 N10 1_555 1_555
Cu4A N12 1_555 1_555
N2A Cu1 1_555 1_555
N6C Cu3 1_555 1_555
N10C Cu3 1_555 1_555
N12A Cu4 1_555 1_555
C4 C5 1_555 1_555
C7 C8 1_555 1_555
C9 C10 1_555 1_555
C14 C15 1_555 1_555
C17 C18 1_555 1_555
C19 C20 1_555 1_555
C24 C25 1_555 1_555
C27 C28 1_555 1_555
C29 C30 1_555 1_555
C34 C35 1_555 1_555
C37 C38 1_555 1_555
C39 C40 1_555 1_555
C44 C45 1_555 1_555
C47 C48 1_555 1_555
C49 C50 1_555 1_555
C54 C55 1_555 1_555
C57 C58 1_555 1_555
C59 C60 1_555 1_555
C69 C70 1_555 1_555
C75 C76 1_555 1_555
C81 C82 1_555 1_555
C87 C88 1_555 1_555
C93 C94 1_555 1_555
C99 C100 1_555 1_555
C105 C106 1_555 1_555
C111 C112 1_555 1_555

#END
