
#######################################################################
#
#                 Cambridge Crystallographic Data Centre
#                                CCDC 
#
#######################################################################
#
# If this CIF has been generated from an entry in the Cambridge 
# Structural Database, then it will include bibliographic, chemical, 
# crystal, experimental, refinement or atomic coordinate data resulting 
# from the CCDC's data processing and validation procedures.
#
#######################################################################

data_KUBSAC
_symmetry_cell_setting           monoclinic
_symmetry_space_group_name_H-M   'P 21/n'
_symmetry_Int_Tables_number      14
_space_group_name_Hall           '-P 2yn'
loop_
_symmetry_equiv_pos_site_id
_symmetry_equiv_pos_as_xyz
1 x,y,z
2 1/2-x,1/2+y,1/2-z
3 -x,-y,-z
4 1/2+x,1/2-y,1/2+z
_cell_length_a                   11.9292(6)
_cell_length_b                   14.5276(8)
_cell_length_c                   14.5607(8)
_cell_angle_alpha                90
_cell_angle_beta                 96.183(3)
_cell_angle_gamma                90
_cell_volume                     2508.73
loop_
_atom_site_label
_atom_site_type_symbol
_atom_site_fract_x
_atom_site_fract_y
_atom_site_fract_z
Zn1 Zn 0.5000 0.5000 0.0000
Zn2 Zn 0.58885(2) 0.44776(2) 0.222274(19)
S1 S 0.24290(6) 0.71043(5) 0.18570(5)
O1 O 0.48237(15) 0.52842(12) 0.14011(11)
O2 O 0.40256(15) 0.55668(12) 0.26739(12)
O3 O 0.76897(14) 0.94273(12) 0.34324(12)
O4 O 0.82897(14) 1.02201(12) 0.47116(12)
O5 O 0.51490(15) 0.36164(12) 0.03296(12)
O6 O 0.50042(16) 0.33061(12) 0.18059(12)
S2 S 0.53414(6) 1.04709(5) 0.35114(6)
S3 S 0.38599(9) 0.19499(6) -0.04207(6)
N1 N 0.66338(18) 0.56075(15) 0.30157(16)
N2 N 0.59627(19) 0.39993(15) 0.35846(14)
C1 C 0.3308(2) 0.80084(17) 0.23147(18)
C2 C 0.2817(2) 0.8858(2) 0.2416(2)
H1 H 0.2052 0.8937 0.2231
C3 C 0.3447(2) 0.9592(2) 0.2790(2)
H2 H 0.3105 1.0161 0.2847
C4 C 0.4584(2) 0.94868(18) 0.30788(19)
C5 C 0.5079(2) 0.86469(18) 0.2964(2)
H3 H 0.5847 0.8571 0.3136
C6 C 0.4446(2) 0.79154(18) 0.2597(2)
H4 H 0.4792 0.7348 0.2537
C7 C 0.3383(2) 0.64050(18) 0.12821(17)
H5 H 0.2943 0.6071 0.0791
H6 H 0.3884 0.6814 0.0993
C8 C 0.4105(2) 0.57123(16) 0.18595(17)
C9 C 0.6355(2) 1.0007(2) 0.4403(2)
H7 H 0.6388 1.0414 0.4934
H8 H 0.6077 0.9417 0.4593
C10 C 0.7545(2) 0.98713(17) 0.41531(18)
C11 C 0.3787(3) 0.2521(2) 0.0670(2)
H9 H 0.3080 0.2855 0.0640
H10 H 0.3774 0.2056 0.1146
C12 C 0.4741(2) 0.31876(17) 0.09577(18)
C13 C 0.4502(3) 0.0877(2) -0.0139(2)
C14 C 0.5016(3) 0.0616(3) 0.0715(2)
H11 H 0.5034 0.1026 0.1206
C15 C 0.4497(3) 0.0235(3) -0.0854(2)
H12 H 0.4156 0.0388 -0.1438
C16 C 0.6992(2) 0.63933(19) 0.2664(2)
H13 H 0.6925 0.6462 0.2026
C17 C 0.7451(3) 0.7100(2) 0.3201(3)
H14 H 0.7704 0.7632 0.2934
C18 C 0.7529(3) 0.7001(2) 0.4141(3)
H15 H 0.7821 0.7475 0.4524
C19 C 0.7172(3) 0.6197(2) 0.4519(2)
H16 H 0.7226 0.6122 0.5157
C20 C 0.6731(2) 0.54990(19) 0.39343(19)
C21 C 0.6338(2) 0.45957(19) 0.42553(18)
C22 C 0.6354(3) 0.4365(2) 0.5179(2)
H17 H 0.6612 0.4785 0.5635
C23 C 0.5988(3) 0.3514(3) 0.5414(2)
H18 H 0.6002 0.3349 0.6033
C24 C 0.5601(3) 0.2907(2) 0.4736(2)
H19 H 0.5345 0.2327 0.4884
C25 C 0.5600(3) 0.3175(2) 0.3827(2)
H20 H 0.5335 0.2764 0.3364
Zn1A Zn 1.0000 1.0000 0.5000
Zn1_2 Zn 0.5000 -0.5000 0.0000
Zn1A_2 Zn 1.0000 0.0000 0.5000
Zn2A Zn 0.91115(2) -0.05224(2) 0.277726(19)
Zn2A_2 Zn 0.91115(2) 0.94776(2) 0.277726(19)
Zn2B Zn 0.41115(2) -0.44776(2) -0.222274(19)
S1A S 1.25710(6) 0.21043(5) 0.31430(5)
O1A O 1.01763(15) 0.02842(12) 0.35989(11)
O1B O 0.51763(15) 0.47158(12) -0.14011(11)
O2A O 1.09744(15) 0.05668(12) 0.23261(12)
O3A O 0.73103(14) 0.44273(12) 0.15676(12)
O3_2 O 0.76897(14) -0.05727(12) 0.34324(12)
O4A O 0.67103(14) 0.52201(12) 0.02884(12)
O4C O 0.32897(14) 0.47799(12) -0.02884(12)
O5B O 0.48510(15) -0.36164(12) -0.03296(12)
O5B_2 O 0.48510(15) 0.63836(12) -0.03296(12)
O6B O 0.49958(16) -0.33061(12) -0.18059(12)
O6A O 0.99958(16) -0.16939(12) 0.31941(12)
S2A S 0.96586(6) 0.54709(5) 0.14886(6)
S3B S 0.61401(9) -0.19499(6) 0.04207(6)
N1A N 0.83662(18) 0.06075(15) 0.19843(16)
N2A N 0.90373(19) -0.10007(15) 0.14154(14)
C1A C 1.1692(2) 0.30084(17) 0.26853(18)
C2A C 1.2183(2) 0.3858(2) 0.2584(2)
H1A H 1.2948 0.3937 0.2769
C3A C 1.1553(2) 0.4592(2) 0.2210(2)
H2A H 1.1895 0.5161 0.2153
C4A C 1.0416(2) 0.44868(18) 0.19212(19)
C5A C 0.9921(2) 0.36469(18) 0.2036(2)
H3A H 0.9153 0.3571 0.1864
C6A C 1.0554(2) 0.29154(18) 0.2403(2)
H4A H 1.0208 0.2348 0.2463
C7A C 1.1617(2) 0.14050(18) 0.37179(17)
H5A H 1.2057 0.1071 0.4209
H6A H 1.1116 0.1814 0.4007
C8A C 1.0895(2) 0.07123(16) 0.31405(17)
C9A C 0.8645(2) 0.5007(2) 0.0597(2)
H7A H 0.8612 0.5414 0.0066
H8A H 0.8923 0.4417 0.0407
C10A C 0.7455(2) 0.48713(17) 0.08469(18)
C11B C 0.6213(3) -0.2521(2) -0.0670(2)
H9B H 0.6920 -0.2855 -0.0640
H10B H 0.6226 -0.2056 -0.1146
C12B C 0.5259(2) -0.31876(17) -0.09577(18)
C13B C 0.5498(3) -0.0877(2) 0.0139(2)
C14B C 0.4984(3) -0.0616(3) -0.0715(2)
H11B H 0.4966 -0.1026 -0.1206
C15B C 0.5503(3) -0.0235(3) 0.0854(2)
H12B H 0.5844 -0.0388 0.1438
C16A C 0.8008(2) 0.13933(19) 0.2336(2)
H13A H 0.8075 0.1462 0.2974
C17A C 0.7549(3) 0.2100(2) 0.1799(3)
H14A H 0.7296 0.2632 0.2066
C18A C 0.7471(3) 0.2001(2) 0.0859(3)
H15A H 0.7179 0.2475 0.0476
C19A C 0.7828(3) 0.1197(2) 0.0481(2)
H16A H 0.7774 0.1122 -0.0157
C20A C 0.8269(2) 0.04990(19) 0.10657(19)
C21A C 0.8662(2) -0.04043(19) 0.07447(18)
C22A C 0.8646(3) -0.0635(2) -0.0179(2)
H17A H 0.8388 -0.0215 -0.0635
C23A C 0.9012(3) -0.1486(3) -0.0414(2)
H18A H 0.8998 -0.1651 -0.1033
C24A C 0.9399(3) -0.2093(2) 0.0264(2)
H19A H 0.9655 -0.2673 0.0116
C25A C 0.9400(3) -0.1825(2) 0.1173(2)
H20A H 0.9665 -0.2236 0.1636
loop_
_geom_bond_atom_site_label_1
_geom_bond_atom_site_label_2
_geom_bond_site_symmetry_1
_geom_bond_site_symmetry_2
Zn1 O1 1_555 1_555
Zn2 O1 1_555 1_555
S1 C1 1_555 1_555
O1 C8 1_555 1_555
O2 Zn2 1_555 1_555
O3 C10 1_555 1_555
O4 C10 1_555 1_555
O5 Zn1 1_555 1_555
O6 Zn2 1_555 1_555
S2 C4 1_555 1_555
S3 C11 1_555 1_555
N1 Zn2 1_555 1_555
N2 Zn2 1_555 1_555
C1 C2 1_555 1_555
C2 H1 1_555 1_555
C3 C2 1_555 1_555
H2 C3 1_555 1_555
C4 C3 1_555 1_555
C5 C4 1_555 1_555
H3 C5 1_555 1_555
C6 C1 1_555 1_555
H4 C6 1_555 1_555
C7 S1 1_555 1_555
H5 C7 1_555 1_555
H6 C7 1_555 1_555
C8 O2 1_555 1_555
C9 S2 1_555 1_555
H7 C9 1_555 1_555
H8 C9 1_555 1_555
C10 C9 1_555 1_555
C11 H9 1_555 1_555
H10 C11 1_555 1_555
C12 O5 1_555 1_555
C13 S3 1_555 1_555
C14 C13 1_555 1_555
H11 C14 1_555 1_555
C15 C13 1_555 1_555
H12 C15 1_555 1_555
C16 N1 1_555 1_555
H13 C16 1_555 1_555
C17 C16 1_555 1_555
H14 C17 1_555 1_555
C18 C17 1_555 1_555
H15 C18 1_555 1_555
C19 C18 1_555 1_555
H16 C19 1_555 1_555
C20 N1 1_555 1_555
C21 N2 1_555 1_555
C22 C21 1_555 1_555
H17 C22 1_555 1_555
C23 C22 1_555 1_555
H18 C23 1_555 1_555
C24 C23 1_555 1_555
H19 C24 1_555 1_555
C25 N2 1_555 1_555
H20 C25 1_555 1_555
Zn1A O4 1_555 1_555
Zn1_2 O5B 1_555 1_555
Zn1A_2 O1A 1_555 1_555
Zn2A O1A 1_555 1_555
Zn2A_2 O3 1_555 1_555
Zn2B O6B 1_555 1_555
S1A C1A 1_555 1_555
O1A C8A 1_555 1_555
O1B Zn1 1_555 1_555
O2A Zn2A 1_555 1_555
O3A Zn2 1_555 1_555
O3_2 Zn2A 1_555 1_555
O4A Zn1 1_555 1_555
O4C Zn1 1_555 1_555
O5B C12B 1_555 1_555
O5B_2 Zn1 1_555 1_555
O6B C12B 1_555 1_555
O6A Zn2A 1_555 1_555
S2A C4A 1_555 1_555
S3B C11B 1_555 1_555
N1A Zn2A 1_555 1_555
N2A Zn2A 1_555 1_555
C1A C2A 1_555 1_555
C2A H1A 1_555 1_555
C3A C2A 1_555 1_555
H2A C3A 1_555 1_555
C4A C3A 1_555 1_555
C5A C4A 1_555 1_555
H3A C5A 1_555 1_555
C6A C1A 1_555 1_555
H4A C6A 1_555 1_555
C7A S1A 1_555 1_555
H5A C7A 1_555 1_555
H6A C7A 1_555 1_555
C8A O2A 1_555 1_555
C9A S2A 1_555 1_555
H7A C9A 1_555 1_555
H8A C9A 1_555 1_555
C10A O3A 1_555 1_555
C11B H9B 1_555 1_555
H10B C11B 1_555 1_555
C12B C11B 1_555 1_555
C13B S3B 1_555 1_555
C14B C15 1_555 1_555
H11B C14B 1_555 1_555
C15B C14 1_555 1_555
H12B C15B 1_555 1_555
C16A N1A 1_555 1_555
H13A C16A 1_555 1_555
C17A C16A 1_555 1_555
H14A C17A 1_555 1_555
C18A C17A 1_555 1_555
H15A C18A 1_555 1_555
C19A C18A 1_555 1_555
H16A C19A 1_555 1_555
C20A N1A 1_555 1_555
C21A N2A 1_555 1_555
C22A C21A 1_555 1_555
H17A C22A 1_555 1_555
C23A C22A 1_555 1_555
H18A C23A 1_555 1_555
C24A C23A 1_555 1_555
H19A C24A 1_555 1_555
C25A N2A 1_555 1_555
H20A C25A 1_555 1_555
O6 C12 1_555 1_555
C5 C6 1_555 1_555
C7 C8 1_555 1_555
C11 C12 1_555 1_555
C19 C20 1_555 1_555
C20 C21 1_555 1_555
C24 C25 1_555 1_555
O4A C10A 1_555 1_555
C5A C6A 1_555 1_555
C7A C8A 1_555 1_555
C9A C10A 1_555 1_555
C13B C14B 1_555 1_555
C13B C15B 1_555 1_555
C19A C20A 1_555 1_555
C20A C21A 1_555 1_555
C24A C25A 1_555 1_555

#END
