
#######################################################################
#
#                 Cambridge Crystallographic Data Centre
#                                CCDC 
#
#######################################################################
#
# If this CIF has been generated from an entry in the Cambridge 
# Structural Database, then it will include bibliographic, chemical, 
# crystal, experimental, refinement or atomic coordinate data resulting 
# from the CCDC's data processing and validation procedures.
#
#######################################################################

data_KUBSEG
_symmetry_cell_setting           monoclinic
_symmetry_space_group_name_H-M   'P 21/c'
_symmetry_Int_Tables_number      14
_space_group_name_Hall           '-P 2ybc'
loop_
_symmetry_equiv_pos_site_id
_symmetry_equiv_pos_as_xyz
1 x,y,z
2 -x,1/2+y,1/2-z
3 -x,-y,-z
4 x,1/2-y,1/2+z
_cell_length_a                   7.6422(3)
_cell_length_b                   17.7361(6)
_cell_length_c                   16.9492(6)
_cell_angle_alpha                90
_cell_angle_beta                 95.5390(10)
_cell_angle_gamma                90
_cell_volume                     2286.62
loop_
_atom_site_label
_atom_site_type_symbol
_atom_site_fract_x
_atom_site_fract_y
_atom_site_fract_z
Zn1 Zn 0.16583(6) 0.62170(2) 0.25067(2)
S1 S 0.44838(14) 0.71503(6) 0.20893(6)
S2 S 0.74428(14) 0.91493(5) 0.50121(5)
O1 O 0.3848(4) 0.56280(15) 0.29171(16)
O2 O 0.6651(4) 0.53338(19) 0.3058(2)
O3 O 0.9610(4) 0.98628(13) 0.38044(14)
O4 O 0.8014(4) 1.09115(14) 0.36475(14)
O5 O -0.0096(4) 0.53872(14) 0.26311(17)
H1 H -0.1065 0.5412 0.2838
H2 H -0.0315 0.5197 0.2203
N1 N 0.1686(4) 0.67890(16) 0.36068(17)
N2 N 0.0235(4) 0.72077(16) 0.21962(18)
C1 C 0.5288(5) 0.7703(2) 0.2918(2)
C2 C 0.6185(6) 0.7403(2) 0.3595(2)
H3 H 0.6369 0.6886 0.3632
C3 C 0.6807(6) 0.7862(2) 0.4215(2)
H4 H 0.7426 0.7653 0.4661
C4 C 0.6522(5) 0.86316(19) 0.4180(2)
C5 C 0.5602(6) 0.8929(2) 0.3509(2)
H5 H 0.5393 0.9446 0.3477
C6 C 0.4987(6) 0.8467(2) 0.2885(2)
H6 H 0.4365 0.8676 0.2440
C7 C 0.5847(6) 0.6315(2) 0.2170(2)
H7 H 0.5792 0.6081 0.1652
H8 H 0.7053 0.6473 0.2306
C8 C 0.5414(5) 0.5721(2) 0.2761(2)
C9 C 0.7401(5) 1.01170(19) 0.4679(2)
H9 H 0.6186 1.0259 0.4537
H10 H 0.7845 1.0432 0.5122
C10 C 0.8435(5) 1.02955(17) 0.39842(18)
C11 C 0.2470(7) 0.6545(2) 0.4301(2)
H11 H 0.2853 0.6048 0.4339
C12 C 0.2729(7) 0.6993(3) 0.4954(2)
H12 H 0.3251 0.6802 0.5431
C13 C 0.2204(7) 0.7736(3) 0.4895(2)
H13 H 0.2417 0.8060 0.5326
C14 C 0.1359(6) 0.7996(2) 0.4190(2)
H14 H 0.0948 0.8489 0.4145
C15 C 0.1137(5) 0.7510(2) 0.3559(2)
C16 C 0.0289(5) 0.7732(2) 0.2771(2)
C17 C -0.0423(7) 0.8446(2) 0.2613(3)
H15 H -0.0383 0.8809 0.3011
C18 C -0.1184(8) 0.8610(3) 0.1865(3)
H16 H -0.1663 0.9085 0.1753
C19 C -0.1233(7) 0.8072(2) 0.1284(3)
H17 H -0.1737 0.8175 0.0774
C20 C -0.0530(6) 0.7385(2) 0.1470(2)
H18 H -0.0578 0.7017 0.1077
Zn1A Zn 0.83417(6) 1.12170(2) 0.24933(2)
O4A O 0.1986(4) 0.59115(14) 0.13525(14)
O6 O 0.4465(15) 0.4516(5) 0.4308(5)
H19 H 0.5376 0.4733 0.4449
H20 H 0.3571 0.4672 0.4427
O7 O 0.8421(18) 0.5414(8) 0.4788(6)
H21 H 0.7385 0.5278 0.4798
H22 H 0.8454 0.5855 0.4705
loop_
_geom_bond_atom_site_label_1
_geom_bond_atom_site_label_2
_geom_bond_site_symmetry_1
_geom_bond_site_symmetry_2
Zn1 S1 1_555 1_555
S1 C1 1_555 1_555
S2 C4 1_555 1_555
O1 Zn1 1_555 1_555
O2 C8 1_555 1_555
O3 C10 1_555 1_555
O4 C10 1_555 1_555
O5 Zn1 1_555 1_555
H1 O5 1_555 1_555
H2 O5 1_555 1_555
N1 Zn1 1_555 1_555
N2 Zn1 1_555 1_555
C1 C2 1_555 1_555
C2 H3 1_555 1_555
C3 C2 1_555 1_555
H4 C3 1_555 1_555
C4 C3 1_555 1_555
C5 C4 1_555 1_555
H5 C5 1_555 1_555
C6 C1 1_555 1_555
H6 C6 1_555 1_555
C7 S1 1_555 1_555
H7 C7 1_555 1_555
H8 C7 1_555 1_555
C8 O1 1_555 1_555
C9 S2 1_555 1_555
H9 C9 1_555 1_555
H10 C9 1_555 1_555
C10 C9 1_555 1_555
C11 N1 1_555 1_555
H11 C11 1_555 1_555
C12 C11 1_555 1_555
H12 C12 1_555 1_555
C13 C12 1_555 1_555
H13 C13 1_555 1_555
C14 C13 1_555 1_555
H14 C14 1_555 1_555
C15 N1 1_555 1_555
C16 N2 1_555 1_555
C17 C16 1_555 1_555
H15 C17 1_555 1_555
C18 C17 1_555 1_555
H16 C18 1_555 1_555
C19 C18 1_555 1_555
H17 C19 1_555 1_555
C20 N2 1_555 1_555
H18 C20 1_555 1_555
O6 H19 1_555 1_555
H20 O6 1_555 1_555
O7 H21 1_555 1_555
H22 O7 1_555 1_555
Zn1A O4 1_555 1_555
O4A Zn1 1_555 1_555
C5 C6 1_555 1_555
C7 C8 1_555 1_555
C14 C15 1_555 1_555
C15 C16 1_555 1_555
C19 C20 1_555 1_555

#END
