
#######################################################################
#
#                 Cambridge Crystallographic Data Centre
#                                CCDC 
#
#######################################################################
#
# If this CIF has been generated from an entry in the Cambridge 
# Structural Database, then it will include bibliographic, chemical, 
# crystal, experimental, refinement or atomic coordinate data resulting 
# from the CCDC's data processing and validation procedures.
#
#######################################################################

data_KUBSIK
_symmetry_cell_setting           triclinic
_symmetry_space_group_name_H-M   'P -1'
_symmetry_Int_Tables_number      2
_space_group_name_Hall           '-P 1'
loop_
_symmetry_equiv_pos_site_id
_symmetry_equiv_pos_as_xyz
1 x,y,z
2 -x,-y,-z
_cell_length_a                   10.028(2)
_cell_length_b                   10.860(2)
_cell_length_c                   11.124(2)
_cell_angle_alpha                102.185(11)
_cell_angle_beta                 106.148(12)
_cell_angle_gamma                101.529(12)
_cell_volume                     1093.46
loop_
_atom_site_label
_atom_site_type_symbol
_atom_site_fract_x
_atom_site_fract_y
_atom_site_fract_z
Zn1 Zn 0.21455(3) 0.20075(2) 0.05466(2)
S1 S 0.13789(9) 0.26944(8) 0.55012(6)
S2 S 0.66499(6) -0.00979(7) 0.29464(6)
O1 O 0.41437(18) 0.18015(17) 0.12347(18)
O2 O 0.37223(18) -0.03478(17) 0.09649(17)
O3 O 0.11406(18) 0.16314(17) 0.17908(15)
O4 O 0.2761(3) 0.3180(2) 0.3467(2)
O5 O 0.15326(19) 0.00879(17) -0.06344(17)
H1 H 0.075(2) -0.041(2) -0.105(2)
H2 H 0.207(2) -0.023(3) -0.019(2)
N1 N 0.3086(2) 0.39774(19) 0.07240(19)
N2 N 0.0509(2) 0.24226(19) -0.08872(17)
C1 C 0.5704(2) -0.0006(2) 0.4075(2)
C2 C 0.5582(3) -0.1010(2) 0.4669(2)
H5 H 0.5974 -0.1696 0.4445
C3 C 0.5106(3) 0.1009(2) 0.4417(2)
H6 H 0.5170 0.1688 0.4029
C4 C 0.6124(2) 0.1055(2) 0.2099(2)
H7 H 0.6800 0.1779 0.2098
C5 C 0.4515(2) 0.0790(2) 0.1381(2)
C6 C 0.0612(3) 0.3983(3) 0.5195(2)
C7 C -0.0885(3) 0.3756(3) 0.4741(3)
H8 H -0.1480 0.2920 0.4569
C8 C 0.1486(3) 0.5235(3) 0.5455(2)
H9 H 0.2485 0.5397 0.5763
C9 C 0.0937(3) 0.1672(3) 0.3858(2)
H10 H 0.1160 0.0851 0.3907
H11 H -0.0096 0.1472 0.3423
C10 C 0.1708(3) 0.2252(2) 0.3019(2)
C11 C 0.4376(3) 0.4728(3) 0.1529(3)
H12 H 0.4959 0.4369 0.2082
C12 C 0.4888(3) 0.6036(3) 0.1573(3)
H13 H 0.5802 0.6528 0.2141
C13 C 0.4051(3) 0.6592(3) 0.0784(3)
H14 H 0.4383 0.7465 0.0811
C14 C 0.2673(3) 0.5824(2) -0.0074(2)
C15 C 0.1677(3) 0.6314(3) -0.0910(3)
H15 H 0.1948 0.7184 -0.0913
C16 C 0.0367(3) 0.5552(3) -0.1688(3)
H16 H -0.0255 0.5903 -0.2217
C17 C -0.0096(3) 0.4204(2) -0.1721(2)
C18 C -0.1465(3) 0.3350(3) -0.2507(2)
H17 H -0.2138 0.3652 -0.3043
C19 C -0.1793(3) 0.2086(3) -0.2473(2)
H18 H -0.2687 0.1511 -0.2997
C20 C -0.0785(3) 0.1654(2) -0.1652(2)
H19 H -0.1029 0.0785 -0.1638
C21 C 0.0849(2) 0.3688(2) -0.0922(2)
C22 C 0.2250(3) 0.4516(2) -0.0072(2)
Zn1A Zn 0.78545(3) -0.20075(2) 0.94534(2)
Zn1A_2 Zn -0.21455(3) 0.79925(2) 0.94534(2)
S1A S -0.13789(9) 0.73056(8) 0.44988(6)
S2A S 0.33501(6) 0.00979(7) 0.70536(6)
O1A O 0.58563(18) -0.18015(17) 0.87653(18)
O2A O 0.62777(18) 0.03478(17) 0.90351(17)
O3A O -0.11406(18) 0.83686(17) 0.82092(15)
O3A_2 O 0.88594(18) -0.16314(17) 0.82092(15)
O4A O -0.2761(3) 0.6820(2) 0.6533(2)
O5A O 0.84674(19) -0.00879(17) 1.06344(17)
H1A H 0.925(2) 0.041(2) 1.105(2)
H2A H 0.793(2) 0.023(3) 1.019(2)
N1A N 0.6914(2) -0.39774(19) 0.92760(19)
N2A N 0.9491(2) -0.24226(19) 1.08872(17)
C1A C 0.4296(2) 0.0006(2) 0.5925(2)
C2A C 0.4418(3) 0.1010(2) 0.5331(2)
H5A H 0.4026 0.1696 0.5555
C3A C 0.4894(3) -0.1009(2) 0.5583(2)
H6A H 0.4830 -0.1688 0.5971
C4A C 0.3876(2) -0.1055(2) 0.7901(2)
H7A H 0.3200 -0.1779 0.7902
C5A C 0.5485(2) -0.0790(2) 0.8619(2)
C6A C -0.0612(3) 0.6017(3) 0.4805(2)
C7A C 0.0885(3) 0.6244(3) 0.5259(3)
H8A H 0.1480 0.7080 0.5431
C8A C -0.1486(3) 0.4765(3) 0.4545(2)
H9A H -0.2485 0.4603 0.4237
C9A C -0.0937(3) 0.8328(3) 0.6142(2)
H10A H -0.1160 0.9149 0.6093
H11A H 0.0096 0.8528 0.6577
C10A C -0.1708(3) 0.7748(2) 0.6981(2)
C11A C 0.5624(3) -0.4728(3) 0.8471(3)
H12A H 0.5041 -0.4369 0.7918
C12A C 0.5112(3) -0.6036(3) 0.8427(3)
H13A H 0.4198 -0.6528 0.7859
C13A C 0.5949(3) -0.6592(3) 0.9216(3)
H14A H 0.5617 -0.7465 0.9189
C14A C 0.7327(3) -0.5824(2) 1.0074(2)
C15A C 0.8323(3) -0.6314(3) 1.0910(3)
H15A H 0.8052 -0.7184 1.0913
C16A C 0.9633(3) -0.5552(3) 1.1688(3)
H16A H 1.0255 -0.5903 1.2217
C17A C 1.0096(3) -0.4204(2) 1.1721(2)
C18A C 1.1465(3) -0.3350(3) 1.2507(2)
H17A H 1.2138 -0.3652 1.3043
C19A C 1.1793(3) -0.2086(3) 1.2473(2)
H18A H 1.2687 -0.1511 1.2997
C20A C 1.0785(3) -0.1654(2) 1.1652(2)
H19A H 1.1029 -0.0785 1.1638
C21A C 0.9151(2) -0.3688(2) 1.0922(2)
C22A C 0.7750(3) -0.4516(2) 1.0072(2)
O6 O 0.5529(7) 0.4232(6) 0.5311(8)
H3 H 0.507(11) 0.463(10) 0.568(9)
H4 H 0.550(12) 0.445(11) 0.464(7)
loop_
_geom_bond_atom_site_label_1
_geom_bond_atom_site_label_2
_geom_bond_site_symmetry_1
_geom_bond_site_symmetry_2
Zn1 O1 1_555 1_555
S1 C6 1_555 1_555
S2 C1 1_555 1_555
O1 C5 1_555 1_555
O2 C5 1_555 1_555
O3 Zn1 1_555 1_555
O4 C10 1_555 1_555
O5 Zn1 1_555 1_555
H1 O5 1_555 1_555
H2 O5 1_555 1_555
O6 H3 1_555 1_555
H4 O6 1_555 1_555
N1 Zn1 1_555 1_555
N2 Zn1 1_555 1_555
C1 C2 1_555 1_555
C2 H5 1_555 1_555
C3 C1 1_555 1_555
H6 C3 1_555 1_555
C4 S2 1_555 1_555
H7 C4 1_555 1_555
C5 C4 1_555 1_555
C6 C7 1_555 1_555
C7 H8 1_555 1_555
C8 C6 1_555 1_555
H9 C8 1_555 1_555
C9 S1 1_555 1_555
H10 C9 1_555 1_555
H11 C9 1_555 1_555
C10 O3 1_555 1_555
C11 N1 1_555 1_555
H12 C11 1_555 1_555
C12 C11 1_555 1_555
H13 C12 1_555 1_555
C13 C12 1_555 1_555
H14 C13 1_555 1_555
C14 C13 1_555 1_555
C15 C14 1_555 1_555
H15 C15 1_555 1_555
C16 C15 1_555 1_555
H16 C16 1_555 1_555
C17 C16 1_555 1_555
C18 C17 1_555 1_555
H17 C18 1_555 1_555
C19 C18 1_555 1_555
H18 C19 1_555 1_555
C20 N2 1_555 1_555
H19 C20 1_555 1_555
C21 N2 1_555 1_555
C22 N1 1_555 1_555
Zn1A O1A 1_555 1_555
Zn1A_2 O3A 1_555 1_555
S1A C6A 1_555 1_555
S2A C1A 1_555 1_555
O1A C5A 1_555 1_555
O2A C5A 1_555 1_555
O3A C10A 1_555 1_555
O3A_2 Zn1A 1_555 1_555
O4A C10A 1_555 1_555
O5A Zn1A 1_555 1_555
H1A O5A 1_555 1_555
H2A O5A 1_555 1_555
N1A Zn1A 1_555 1_555
N2A Zn1A 1_555 1_555
C1A C2A 1_555 1_555
C2A C3 1_555 1_555
H5A C2A 1_555 1_555
C3A C2 1_555 1_555
H6A C3A 1_555 1_555
C4A S2A 1_555 1_555
H7A C4A 1_555 1_555
C5A C4A 1_555 1_555
C6A C7A 1_555 1_555
C7A C8 1_555 1_555
H8A C7A 1_555 1_555
C8A C7 1_555 1_555
H9A C8A 1_555 1_555
C9A S1A 1_555 1_555
H10A C9A 1_555 1_555
H11A C9A 1_555 1_555
C10A C9A 1_555 1_555
C11A N1A 1_555 1_555
H12A C11A 1_555 1_555
C12A C11A 1_555 1_555
H13A C12A 1_555 1_555
C13A C12A 1_555 1_555
H14A C13A 1_555 1_555
C14A C13A 1_555 1_555
C15A C14A 1_555 1_555
H15A C15A 1_555 1_555
C16A C15A 1_555 1_555
H16A C16A 1_555 1_555
C17A C16A 1_555 1_555
C18A C17A 1_555 1_555
H17A C18A 1_555 1_555
C19A C18A 1_555 1_555
H18A C19A 1_555 1_555
C20A N2A 1_555 1_555
H19A C20A 1_555 1_555
C21A N2A 1_555 1_555
C22A N1A 1_555 1_555
C9 C10 1_555 1_555
C14 C22 1_555 1_555
C17 C21 1_555 1_555
C19 C20 1_555 1_555
C21 C22 1_555 1_555
C1A C3A 1_555 1_555
C6A C8A 1_555 1_555
C14A C22A 1_555 1_555
C17A C21A 1_555 1_555
C19A C20A 1_555 1_555
C21A C22A 1_555 1_555

#END
