
#######################################################################
#
#                 Cambridge Crystallographic Data Centre
#                                CCDC 
#
#######################################################################
#
# If this CIF has been generated from an entry in the Cambridge 
# Structural Database, then it will include bibliographic, chemical, 
# crystal, experimental, refinement or atomic coordinate data resulting 
# from the CCDC's data processing and validation procedures.
#
#######################################################################

data_KUBXUC
_symmetry_cell_setting           monoclinic
_symmetry_space_group_name_H-M   'C 2/c'
_symmetry_Int_Tables_number      15
_space_group_name_Hall           '-C 2yn'
loop_
_symmetry_equiv_pos_site_id
_symmetry_equiv_pos_as_xyz
1 x,y,z
2 -x,y,1/2-z
3 1/2+x,1/2+y,z
4 1/2-x,1/2+y,1/2-z
5 -x,-y,-z
6 x,-y,1/2+z
7 1/2-x,1/2-y,-z
8 1/2+x,1/2-y,1/2+z
_cell_length_a                   21.0852(7)
_cell_length_b                   12.1221(5)
_cell_length_c                   7.2547(3)
_cell_angle_alpha                90
_cell_angle_beta                 92.322(3)
_cell_angle_gamma                90
_cell_volume                     1852.76
loop_
_atom_site_label
_atom_site_type_symbol
_atom_site_fract_x
_atom_site_fract_y
_atom_site_fract_z
Mg1 Mg 0.5000 0.37744(7) 0.7500
O1 O 0.43846(5) 0.35587(10) 0.51904(17)
O2 O 0.44172(6) 0.51279(12) 0.3588(2)
N1 N 0.05886(7) 0.26323(13) 0.1249(2)
C1 C 0.41659(8) 0.42450(15) 0.4023(2)
C2 C 0.35169(8) 0.40064(15) 0.3138(2)
C3 C 0.31907(9) 0.48487(16) 0.2230(3)
H1 H 0.3389 0.5526 0.2083
C4 C 0.25763(8) 0.47062(16) 0.1536(3)
H2 H 0.2367 0.5291 0.0944
C5 C 0.22662(8) 0.37027(14) 0.1709(2)
C6 C 0.26029(8) 0.28455(15) 0.2564(3)
H3 H 0.2412 0.2157 0.2660
C7 C 0.32179(8) 0.29963(15) 0.3277(3)
H4 H 0.3431 0.2411 0.3854
C8 C 0.11968(8) 0.27990(15) 0.1783(3)
H5 H 0.1365 0.2360 0.2734
C9 C 0.15955(8) 0.35729(14) 0.1034(2)
C10 C 0.13275(9) 0.42407(17) -0.0344(3)
H6 H 0.1569 0.4784 -0.0887
C11 C 0.07009(9) 0.40928(18) -0.0900(3)
H7 H 0.0516 0.4538 -0.1817
C12 C 0.03505(9) 0.32834(17) -0.0091(3)
H8 H -0.0070 0.3185 -0.0494
O1A O 0.56154(5) 0.35587(10) 0.98096(17)
O2A O 0.55828(6) 0.51279(12) 1.1412(2)
N1A N 0.94114(7) 0.26323(13) 1.3751(2)
C1A C 0.58341(8) 0.42450(15) 1.0977(2)
C2A C 0.64831(8) 0.40064(15) 1.1862(2)
C3A C 0.68093(9) 0.48487(16) 1.2770(3)
H1A H 0.6611 0.5526 1.2917
C4A C 0.74237(8) 0.47062(16) 1.3464(3)
H2A H 0.7633 0.5291 1.4056
C5A C 0.77338(8) 0.37027(14) 1.3291(2)
C6A C 0.73971(8) 0.28455(15) 1.2436(3)
H3A H 0.7588 0.2157 1.2340
C7A C 0.67821(8) 0.29963(15) 1.1723(3)
H4A H 0.6569 0.2411 1.1146
C8A C 0.88032(8) 0.27990(15) 1.3217(3)
H5A H 0.8635 0.2360 1.2266
C9A C 0.84045(8) 0.35729(14) 1.3966(2)
C10A C 0.86725(9) 0.42407(17) 1.5344(3)
H6A H 0.8431 0.4784 1.5887
C11A C 0.92991(9) 0.40928(18) 1.5900(3)
H7A H 0.9484 0.4538 1.6817
C12A C 0.96495(9) 0.32834(17) 1.5091(3)
H8A H 1.0070 0.3185 1.5494
Mg1D Mg 0.5000 0.62256(7) 0.2500
Mg1D_2 Mg 0.5000 0.62256(7) 1.2500
Mg1F Mg 0.0000 0.12256(7) 0.2500
Mg1F_2 Mg 1.0000 0.12256(7) 1.2500
O2D O 0.55828(6) 0.48721(12) 0.6412(2)
O2E O 0.44172(6) 0.48721(12) 0.8588(2)
N1F N 0.44114(7) 0.23677(13) 0.8751(2)
N1G N 0.55886(7) 0.23677(13) 0.6249(2)
loop_
_geom_bond_atom_site_label_1
_geom_bond_atom_site_label_2
_geom_bond_site_symmetry_1
_geom_bond_site_symmetry_2
Mg1 O1 1_555 1_555
O1 C1 1_555 1_555
O2 C1 1_555 1_555
N1 C8 1_555 1_555
C1 C2 1_555 1_555
C2 C3 1_555 1_555
C3 H1 1_555 1_555
C4 C3 1_555 1_555
H2 C4 1_555 1_555
C5 C4 1_555 1_555
C6 C5 1_555 1_555
H3 C6 1_555 1_555
C7 C2 1_555 1_555
H4 C7 1_555 1_555
C8 H5 1_555 1_555
C9 C5 1_555 1_555
C10 C9 1_555 1_555
H6 C10 1_555 1_555
C11 C10 1_555 1_555
H7 C11 1_555 1_555
C12 N1 1_555 1_555
H8 C12 1_555 1_555
O1A Mg1 1_555 1_555
O2A C1A 1_555 1_555
N1A C8A 1_555 1_555
C1A O1A 1_555 1_555
C2A C1A 1_555 1_555
C3A C2A 1_555 1_555
H1A C3A 1_555 1_555
C4A C3A 1_555 1_555
H2A C4A 1_555 1_555
C5A C4A 1_555 1_555
C6A C5A 1_555 1_555
H3A C6A 1_555 1_555
C7A C2A 1_555 1_555
H4A C7A 1_555 1_555
C8A H5A 1_555 1_555
C9A C5A 1_555 1_555
C10A C9A 1_555 1_555
H6A C10A 1_555 1_555
C11A C10A 1_555 1_555
H7A C11A 1_555 1_555
C12A N1A 1_555 1_555
H8A C12A 1_555 1_555
Mg1D O2 1_555 1_555
Mg1D_2 O2A 1_555 1_555
Mg1F N1 1_555 1_555
Mg1F_2 N1A 1_555 1_555
O2D Mg1 1_555 1_555
O2E Mg1 1_555 1_555
N1F Mg1 1_555 1_555
N1G Mg1 1_555 1_555
C6 C7 1_555 1_555
C8 C9 1_555 1_555
C11 C12 1_555 1_555
C6A C7A 1_555 1_555
C8A C9A 1_555 1_555
C11A C12A 1_555 1_555

#END
