
#######################################################################
#
#                 Cambridge Crystallographic Data Centre
#                                CCDC 
#
#######################################################################
#
# If this CIF has been generated from an entry in the Cambridge 
# Structural Database, then it will include bibliographic, chemical, 
# crystal, experimental, refinement or atomic coordinate data resulting 
# from the CCDC's data processing and validation procedures.
#
#######################################################################

data_KUBYIQ
_symmetry_cell_setting           monoclinic
_symmetry_space_group_name_H-M   'P 21/c'
_symmetry_Int_Tables_number      14
_space_group_name_Hall           '-P 2ybc'
loop_
_symmetry_equiv_pos_site_id
_symmetry_equiv_pos_as_xyz
1 x,y,z
2 -x,1/2+y,1/2-z
3 -x,-y,-z
4 x,1/2-y,1/2+z
_cell_length_a                   9.1494(2)
_cell_length_b                   7.58330(10)
_cell_length_c                   14.3728(3)
_cell_angle_alpha                90
_cell_angle_beta                 92.813(9)
_cell_angle_gamma                90
_cell_volume                     996.021
loop_
_atom_site_label
_atom_site_type_symbol
_atom_site_fract_x
_atom_site_fract_y
_atom_site_fract_z
Cu1 Cu 1.0000 0.0000 0.5000
O1 O 0.90994(13) -0.15208(16) 0.35696(8)
O2 O 0.73378(13) -0.22140(16) 0.25021(8)
C1 C 0.84535(17) -0.1411(2) 0.27387(11)
C2 C 0.92260(19) -0.0186(2) 0.20995(11)
H1 H 1.0225 -0.0591 0.2051
H2 H 0.9265 0.0980 0.2377
C3 C 0.85145(19) -0.00430(19) 0.11269(11)
H3 H 0.7466 0.0067 0.1183
H4 H 0.8852 0.1038 0.0847
C4 C 0.87867(16) -0.1541(2) 0.04688(11)
O3 O 0.96593(12) -0.27622(14) 0.07081(8)
O4 O 0.81109(14) -0.14211(17) -0.03203(8)
N1 N 1.20347(14) -0.07969(17) 0.47738(10)
C5 C 1.25255(17) -0.0525(2) 0.39224(11)
H5 H 1.1941 0.0111 0.3494
C6 C 1.38730(18) -0.1151(2) 0.36485(12)
C7 C 1.47333(18) -0.2095(2) 0.43031(13)
H6 H 1.5635 -0.2545 0.4149
C8 C 1.42302(19) -0.2354(2) 0.51845(13)
H7 H 1.4801 -0.2965 0.5630
C9 C 1.28691(18) -0.1699(2) 0.54034(12)
H8 H 1.2532 -0.1888 0.5995
N2 N 1.42717(18) -0.0882(2) 0.27489(12)
H9 H 1.5083 -0.1304 0.2569
H10 H 1.3709 -0.0292 0.2366
H11 H 0.861(3) -0.235(4) 0.399(2)
Cu1A Cu 1.0000 -0.5000 0.0000
Cu1A_2 Cu 1.0000 0.5000 1.0000
O1B O 1.09006(13) 0.15208(16) 0.64304(8)
O2B O 1.26622(13) 0.22140(16) 0.74979(8)
C1B C 1.15465(17) 0.1411(2) 0.72613(11)
C2B C 1.07740(19) 0.0186(2) 0.79005(11)
H1B H 0.9775 0.0591 0.7949
H2B H 1.0735 -0.0980 0.7623
C3B C 1.14855(19) 0.00430(19) 0.88731(11)
H3B H 1.2534 -0.0067 0.8817
H4B H 1.1148 -0.1038 0.9153
C4B C 1.12133(16) 0.1541(2) 0.95312(11)
O3A O 1.03407(12) 0.22378(14) 0.42919(8)
O3C O 0.96593(12) -0.22378(14) 0.57081(8)
O3B O 1.03407(12) 0.27622(14) 0.92919(8)
O4B O 1.18891(14) 0.14211(17) 1.03203(8)
N1B N 0.79653(14) 0.07969(17) 0.52262(10)
C5B C 0.74745(17) 0.0525(2) 0.60776(11)
H5B H 0.8059 -0.0111 0.6506
C6B C 0.61270(18) 0.1151(2) 0.63515(12)
C7B C 0.52667(18) 0.2095(2) 0.56969(13)
H6B H 0.4365 0.2545 0.5851
C8B C 0.57698(19) 0.2354(2) 0.48155(13)
H7B H 0.5199 0.2965 0.4370
C9B C 0.71309(18) 0.1699(2) 0.45966(12)
H8B H 0.7468 0.1888 0.4005
N2B N 0.57283(18) 0.0882(2) 0.72511(12)
H9B H 0.4917 0.1304 0.7431
H10B H 0.6291 0.0292 0.7634
H11B H 1.139(3) 0.235(4) 0.601(2)
loop_
_geom_bond_atom_site_label_1
_geom_bond_atom_site_label_2
_geom_bond_site_symmetry_1
_geom_bond_site_symmetry_2
Cu1 O1 1_555 1_555
O1 C1 1_555 1_555
O2 C1 1_555 1_555
C1 C2 1_555 1_555
C2 H1 1_555 1_555
H2 C2 1_555 1_555
C3 C2 1_555 1_555
H3 C3 1_555 1_555
H4 C3 1_555 1_555
C4 C3 1_555 1_555
O3 C4 1_555 1_555
O4 C4 1_555 1_555
N1 Cu1 1_555 1_555
C5 N1 1_555 1_555
H5 C5 1_555 1_555
C6 C5 1_555 1_555
C7 C6 1_555 1_555
H6 C7 1_555 1_555
C8 C7 1_555 1_555
H7 C8 1_555 1_555
C9 N1 1_555 1_555
H8 C9 1_555 1_555
N2 C6 1_555 1_555
H9 N2 1_555 1_555
H10 N2 1_555 1_555
H11 O1 1_555 1_555
Cu1A O3 1_555 1_555
Cu1A_2 O3B 1_555 1_555
O1B Cu1 1_555 1_555
O2B C1B 1_555 1_555
C1B O1B 1_555 1_555
C2B C1B 1_555 1_555
H1B C2B 1_555 1_555
H2B C2B 1_555 1_555
C3B C2B 1_555 1_555
H3B C3B 1_555 1_555
H4B C3B 1_555 1_555
C4B C3B 1_555 1_555
O3A Cu1 1_555 1_555
O3C Cu1 1_555 1_555
O3B C4B 1_555 1_555
O4B C4B 1_555 1_555
N1B Cu1 1_555 1_555
C5B N1B 1_555 1_555
H5B C5B 1_555 1_555
C6B C5B 1_555 1_555
C7B C6B 1_555 1_555
H6B C7B 1_555 1_555
C8B C7B 1_555 1_555
H7B C8B 1_555 1_555
C9B N1B 1_555 1_555
H8B C9B 1_555 1_555
N2B C6B 1_555 1_555
H9B N2B 1_555 1_555
H10B N2B 1_555 1_555
H11B O1B 1_555 1_555
C8 C9 1_555 1_555
C8B C9B 1_555 1_555

#END
