
#######################################################################
#
#                 Cambridge Crystallographic Data Centre
#                                CCDC 
#
#######################################################################
#
# If this CIF has been generated from an entry in the Cambridge 
# Structural Database, then it will include bibliographic, chemical, 
# crystal, experimental, refinement or atomic coordinate data resulting 
# from the CCDC's data processing and validation procedures.
#
#######################################################################

data_KUBZIR
_symmetry_cell_setting           triclinic
_symmetry_space_group_name_H-M   'P -1'
_symmetry_Int_Tables_number      2
_space_group_name_Hall           '-P 1'
loop_
_symmetry_equiv_pos_site_id
_symmetry_equiv_pos_as_xyz
1 x,y,z
2 -x,-y,-z
_cell_length_a                   9.224(4)
_cell_length_b                   9.281(4)
_cell_length_c                   10.138(4)
_cell_angle_alpha                74.495(13)
_cell_angle_beta                 62.672(14)
_cell_angle_gamma                83.385(15)
_cell_volume                     742.942
loop_
_atom_site_label
_atom_site_type_symbol
_atom_site_fract_x
_atom_site_fract_y
_atom_site_fract_z
Zn1 Zn 0.07687(6) -0.14973(4) -0.36907(5)
O1 O 0.0552(4) 0.2614(3) 0.1496(3)
O2 O -0.1476(4) 0.1462(3) 0.1630(3)
O3 O -0.0421(4) 0.0459(3) -0.3402(3)
O4 O 0.0230(4) 0.2463(3) -0.5366(3)
N1 N 0.2619(5) 0.6111(4) -0.3851(4)
H2 H 0.301(6) 0.622(5) -0.337(5)
N2 N 0.3022(4) 0.9179(3) -0.5327(4)
N3 N 0.5363(4) 1.0289(4) -0.6912(4)
H3 H 0.6098 1.1008 -0.7462
C1 C 0.1794(5) 0.4739(4) -0.3165(4)
C2 C 0.1290(5) 0.4137(4) -0.1593(4)
H4 H 0.1600 0.4629 -0.1049
C3 C 0.0354(5) 0.2846(4) -0.0819(4)
C4 C -0.0053(5) 0.2077(4) -0.1620(4)
H5 H -0.0674 0.1177 -0.1100
C5 C 0.0458(5) 0.2639(4) -0.3179(4)
C6 C 0.1369(5) 0.3972(4) -0.3944(4)
H6 H 0.1699 0.4357 -0.5009
C7 C 0.3640(5) 0.6528(4) -0.5497(4)
H7 H 0.3019 0.6416 -0.6043
H8 H 0.4607 0.5874 -0.5784
C8 C 0.4164(5) 0.8131(4) -0.5924(4)
C9 C 0.5625(6) 0.8815(4) -0.6904(5)
H9 H 0.6619 0.8362 -0.7466
C10 C 0.3823(6) 1.0465(4) -0.5958(5)
H10 H 0.3356 1.1396 -0.5754
C11 C -0.0249(5) 0.2256(4) 0.0872(4)
C12 C 0.0061(5) 0.1794(4) -0.4047(4)
Zn1A Zn -0.07687(6) 0.14973(4) 0.36907(5)
Zn1A_2 Zn -0.07687(6) 0.14973(4) -0.63093(5)
Zn1_2 Zn 0.07687(6) 0.85027(4) -0.36907(5)
O1A O -0.0552(4) -0.2614(3) -0.1496(3)
O2A O 0.1476(4) -0.1462(3) -0.1630(3)
O4A O -0.0230(4) -0.2463(3) -0.4634(3)
N2_2 N 0.3022(4) -0.0821(3) -0.5327(4)
O5 O 0.4580(6) -0.3879(5) 0.8007(5)
O6 O 0.7412(8) -0.4723(8) 0.8553(11)
O7 O 0.6324(16) -0.9707(19) -0.0690(13)
C13 C 0.580(4) -1.123(3) -0.029(3)
H11 H 0.4937 -1.1209 0.0748
H12 H 0.5204 -1.1044 -0.0914
C14 C 0.580(2) -1.2884(16) -0.002(2)
H13 H 0.4690 -1.3237 0.0333
H14 H 0.6531 -1.3168 -0.0979
H15 H 0.6176 -1.3339 0.0756
H1? H 0.5605 -0.9243 -0.0083
loop_
_geom_bond_atom_site_label_1
_geom_bond_atom_site_label_2
_geom_bond_site_symmetry_1
_geom_bond_site_symmetry_2
Zn1 O3 1_555 1_555
O1 C11 1_555 1_555
O2 C11 1_555 1_555
O3 C12 1_555 1_555
O4 C12 1_555 1_555
O7 C13 1_555 1_555
N1 H2 1_555 1_555
N2 C8 1_555 1_555
N3 H3 1_555 1_555
C1 N1 1_555 1_555
C2 C1 1_555 1_555
H4 C2 1_555 1_555
C3 C2 1_555 1_555
C4 C3 1_555 1_555
H5 C4 1_555 1_555
C5 C4 1_555 1_555
C6 C1 1_555 1_555
H6 C6 1_555 1_555
C7 N1 1_555 1_555
H7 C7 1_555 1_555
H8 C7 1_555 1_555
C8 C7 1_555 1_555
C9 N3 1_555 1_555
H9 C9 1_555 1_555
C10 N2 1_555 1_555
H10 C10 1_555 1_555
C11 C3 1_555 1_555
C12 C5 1_555 1_555
C13 H11 1_555 1_555
H12 C13 1_555 1_555
C14 C13 1_555 1_555
H13 C14 1_555 1_555
H14 C14 1_555 1_555
H15 C14 1_555 1_555
Zn1A O1 1_555 1_555
Zn1A_2 O4 1_555 1_555
Zn1_2 N2 1_555 1_555
O1A Zn1 1_555 1_555
O2A Zn1 1_555 1_555
O4A Zn1 1_555 1_555
N2_2 Zn1 1_555 1_555
O2 Zn1A 1_555 1_555
N3 C10 1_555 1_555
C5 C6 1_555 1_555
C8 C9 1_555 1_555

#END
