
#######################################################################
#
#                 Cambridge Crystallographic Data Centre
#                                CCDC 
#
#######################################################################
#
# If this CIF has been generated from an entry in the Cambridge 
# Structural Database, then it will include bibliographic, chemical, 
# crystal, experimental, refinement or atomic coordinate data resulting 
# from the CCDC's data processing and validation procedures.
#
#######################################################################

data_KUBZEN
_symmetry_cell_setting           triclinic
_symmetry_space_group_name_H-M   'P -1'
_symmetry_Int_Tables_number      2
_space_group_name_Hall           '-P 1'
loop_
_symmetry_equiv_pos_site_id
_symmetry_equiv_pos_as_xyz
1 x,y,z
2 -x,-y,-z
_cell_length_a                   9.165(4)
_cell_length_b                   9.203(4)
_cell_length_c                   10.097(4)
_cell_angle_alpha                63.229(14)
_cell_angle_beta                 74.541(12)
_cell_angle_gamma                83.034(16)
_cell_volume                     732.844
loop_
_atom_site_label
_atom_site_type_symbol
_atom_site_fract_x
_atom_site_fract_y
_atom_site_fract_z
Co1 Co 0.34346(17) 0.0863(2) 0.13432(17)
O1 O 0.5418(9) -0.0423(11) 0.1633(10)
O2 O 0.7444(9) 0.0144(11) -0.0315(10)
O3 O 0.6579(11) -0.1366(12) 0.6671(10)
O4 O 0.7694(10) 0.0744(13) 0.6423(9)
N1 N 1.1242(11) 0.2533(15) 0.1122(12)
H1 H 1.114(16) 0.304(18) 0.171(17)
N2 N 1.4259(12) 0.3071(14) -0.0383(12)
N3 N 1.5342(13) 0.5433(15) -0.2007(14)
H2 H 1.6047 0.6182 -0.2566
C1 C 0.9835(13) 0.1744(17) 0.1822(14)
C2 C 0.8976(13) 0.1334(15) 0.1082(14)
H3 H 0.9320 0.1712 0.0007
C3 C 0.7688(14) 0.0439(16) 0.1786(16)
C4 C 0.7107(13) -0.0030(16) 0.3397(13)
H4 H 0.6193 -0.0633 0.3930
C5 C 0.7891(13) 0.0406(15) 0.4161(14)
C6 C 0.9210(13) 0.1320(16) 0.3364(14)
H5 H 0.9702 0.1666 0.3891
C7 C 1.1561(15) 0.3650(17) -0.0536(15)
H6 H 1.0870 0.4599 -0.0734
H7 H 1.1425 0.3079 -0.1125
C8 C 1.3172(14) 0.4187(17) -0.0986(15)
C9 C 1.3850(15) 0.5630(18) -0.1965(16)
H8 H 1.3366 0.6607 -0.2524
C10 C 1.5557(15) 0.3868(18) -0.1027(17)
H9 H 1.6507 0.3410 -0.0831
C11 C 0.6775(13) 0.0039(15) 0.0992(14)
C12 C 0.7349(13) -0.0085(16) 0.5824(13)
Co1A Co 0.65654(17) -0.0863(2) -0.13432(17)
Co1A_2 Co 0.65654(17) -0.0863(2) 0.86568(17)
Co1_2 Co 1.34346(17) 0.0863(2) 0.13432(17)
O2A O 0.2556(9) -0.0144(11) 0.0315(10)
O3A O 0.3421(11) 0.1366(12) 0.3329(10)
O4A O 0.2306(10) -0.0744(13) 0.3577(9)
N1_2 N 0.1242(11) 0.2533(15) 0.1122(12)
H1_2 H 0.114(16) 0.304(18) 0.171(17)
N2_2 N 0.4259(12) 0.3071(14) -0.0383(12)
O5 O 0.1088(16) 0.4560(18) 0.2987(17)
O6 O 0.512(5) 0.640(3) 0.433(3)
O7 O 0.772(4) 0.463(6) 0.491(3)
O8 O 0.976(4) 0.273(4) 0.645(5)
loop_
_geom_bond_atom_site_label_1
_geom_bond_atom_site_label_2
_geom_bond_site_symmetry_1
_geom_bond_site_symmetry_2
Co1 O1 1_555 1_555
O1 C11 1_555 1_555
O2 C11 1_555 1_555
O3 C12 1_555 1_555
O4 C12 1_555 1_555
N1 H1 1_555 1_555
N2 C8 1_555 1_555
N3 H2 1_555 1_555
C1 N1 1_555 1_555
C2 C1 1_555 1_555
H3 C2 1_555 1_555
C3 C2 1_555 1_555
C4 C3 1_555 1_555
H4 C4 1_555 1_555
C5 C4 1_555 1_555
C6 C1 1_555 1_555
H5 C6 1_555 1_555
C7 N1 1_555 1_555
H6 C7 1_555 1_555
H7 C7 1_555 1_555
C8 C7 1_555 1_555
C9 N3 1_555 1_555
H8 C9 1_555 1_555
C10 N2 1_555 1_555
H9 C10 1_555 1_555
C11 C3 1_555 1_555
C12 C5 1_555 1_555
Co1A O2 1_555 1_555
Co1A_2 O3 1_555 1_555
Co1_2 N1 1_555 1_555
O2A Co1 1_555 1_555
O3A Co1 1_555 1_555
O4A Co1 1_555 1_555
N1_2 Co1 1_555 1_555
H1_2 N1_2 1_555 1_555
N2_2 Co1 1_555 1_555
O4 Co1A_2 1_555 1_555
N2 Co1_2 1_555 1_555
N3 C10 1_555 1_555
C5 C6 1_555 1_555
C8 C9 1_555 1_555

#END
