
#######################################################################
#
#                 Cambridge Crystallographic Data Centre
#                                CCDC 
#
#######################################################################
#
# If this CIF has been generated from an entry in the Cambridge 
# Structural Database, then it will include bibliographic, chemical, 
# crystal, experimental, refinement or atomic coordinate data resulting 
# from the CCDC's data processing and validation procedures.
#
#######################################################################

data_KUCBIT
_symmetry_cell_setting           monoclinic
_symmetry_space_group_name_H-M   'C 2/c'
_symmetry_Int_Tables_number      15
_space_group_name_Hall           '-C 2yn'
loop_
_symmetry_equiv_pos_site_id
_symmetry_equiv_pos_as_xyz
1 x,y,z
2 1/2+x,1/2+y,z
3 -x,y,1/2-z
4 1/2-x,1/2+y,1/2-z
5 -x,-y,-z
6 1/2-x,1/2-y,-z
7 x,-y,1/2+z
8 1/2+x,1/2-y,1/2+z
_cell_length_a                   18.415(6)
_cell_length_b                   7.4667(7)
_cell_length_c                   16.354(7)
_cell_angle_alpha                90
_cell_angle_beta                 112.61(2)
_cell_angle_gamma                90
_cell_volume                     2075.84
loop_
_atom_site_label
_atom_site_type_symbol
_atom_site_fract_x
_atom_site_fract_y
_atom_site_fract_z
Na1 Na 0.1995(1) -0.2652(1) 0.0779(1)
C1 C 0.0012(1) -0.2561(3) -0.0020(1)
C2 C 0.0226(1) -0.1783(3) 0.0824(1)
C3 C -0.0347(1) -0.1280(3) 0.1119(2)
C4 C -0.1136(1) -0.1542(4) 0.0589(2)
C5 C -0.1344(1) -0.2315(4) -0.0227(2)
C6 C -0.0769(1) -0.2838(3) -0.0535(2)
O1 O 0.0633(1) -0.2997(2) -0.0253(1)
C7 C 0.4538(1) -0.1337(4) 0.1123(1)
C8 C 0.3772(1) -0.1186(3) 0.1244(1)
O2 O 0.1849(1) -0.3464(3) -0.0652(1)
O3 O 0.3860(1) -0.0673(3) 0.2034(1)
O4 O 0.1022(1) -0.1591(2) 0.1285(1)
C9 C 0.1287(1) -0.0837(4) 0.2158(1)
C10 C 0.2162(1) -0.0490(3) 0.2512(1)
O5 O 0.2505(1) -0.0719(3) 0.1991(1)
O6 O 0.2456(1) 0.0038(3) 0.3281(1)
H1 H -0.020 -0.076 0.170
H2 H -0.152 -0.115 0.078
H3 H -0.187 -0.247 -0.059
H4 H -0.089 -0.337 -0.109
H5 H 0.490 -0.223 0.158
H6 H 0.478 -0.027 0.120
H7 H 0.102 0.031 0.213
H8 H 0.115 -0.165 0.257
H9 H 0.328 -0.055 0.208
O6C O 0.2544(1) -0.4962(3) 0.1719(1)
Na1E Na 0.3005(1) -0.2348(1) -0.0779(1)
O1E O 0.4367(1) -0.2003(2) 0.0253(1)
C1E C 0.4988(1) -0.2439(3) 0.0020(1)
C2E C 0.4774(1) -0.3217(3) -0.0824(1)
C3E C 0.5347(1) -0.3720(3) -0.1119(2)
C4E C 0.6136(1) -0.3458(4) -0.0589(2)
C5E C 0.6344(1) -0.2685(4) 0.0227(2)
C6E C 0.5769(1) -0.2162(3) 0.0535(2)
H4E H 0.589 -0.163 0.109
H3E H 0.687 -0.253 0.059
H2E H 0.652 -0.385 -0.078
H1E H 0.520 -0.424 -0.170
O4E O 0.3978(1) -0.3409(2) -0.1285(1)
O2E O 0.3151(1) -0.1536(3) 0.0652(1)
Na1C Na 0.3005(1) 0.2348(1) 0.4221(1)
O5E O 0.2495(1) -0.4281(3) -0.1991(1)
C10E C 0.2838(1) -0.4510(3) -0.2512(1)
C9E C 0.3713(1) -0.4163(4) -0.2158(1)
H7E H 0.398 -0.531 -0.213
H8E H 0.385 -0.335 -0.257
O6E O 0.2544(1) -0.5038(3) -0.3281(1)
Na1F Na 0.1995(1) -0.7348(1) -0.4221(1)
O6F O 0.2456(1) -0.0038(3) -0.1719(1)
C8E C 0.1228(1) -0.3814(3) -0.1244(1)
C7E C 0.0462(1) -0.3663(4) -0.1123(1)
H5E H 0.010 -0.277 -0.158
H6E H 0.022 -0.473 -0.120
O3E O 0.1140(1) -0.4327(3) -0.2034(1)
H9E H 0.172 -0.445 -0.208
loop_
_geom_bond_atom_site_label_1
_geom_bond_atom_site_label_2
_geom_bond_site_symmetry_1
_geom_bond_site_symmetry_2
Na1 O1 1_555 1_555
C1 C2 1_555 1_555
C2 C3 1_555 1_555
C3 C4 1_555 1_555
C4 C5 1_555 1_555
C5 C6 1_555 1_555
C6 C1 1_555 1_555
O1 C1 1_555 1_555
C7 C8 1_555 1_555
C8 O3 1_555 1_555
O2 Na1 1_555 1_555
O3 H9 1_555 1_555
O4 Na1 1_555 1_555
C9 O4 1_555 1_555
C10 C9 1_555 1_555
O5 Na1 1_555 1_555
O6 C10 1_555 1_555
H1 C3 1_555 1_555
H2 C4 1_555 1_555
H3 C5 1_555 1_555
H4 C6 1_555 1_555
H5 C7 1_555 1_555
H6 C7 1_555 1_555
H7 C9 1_555 1_555
H8 C9 1_555 1_555
O6C Na1 1_555 1_555
Na1E O2 1_555 1_555
O1E C7 1_555 1_555
C1E O1E 1_555 1_555
C2E C1E 1_555 1_555
C3E C2E 1_555 1_555
C4E C3E 1_555 1_555
C5E C4E 1_555 1_555
C6E C1E 1_555 1_555
H4E C6E 1_555 1_555
H3E C5E 1_555 1_555
H2E C4E 1_555 1_555
H1E C3E 1_555 1_555
O4E Na1E 1_555 1_555
O2E Na1 1_555 1_555
Na1C O6 1_555 1_555
O5E Na1E 1_555 1_555
C10E O5E 1_555 1_555
C9E O4E 1_555 1_555
H7E C9E 1_555 1_555
H8E C9E 1_555 1_555
O6E C10E 1_555 1_555
Na1F O6E 1_555 1_555
O6F Na1E 1_555 1_555
C8E O2 1_555 1_555
C7E O1 1_555 1_555
H5E C7E 1_555 1_555
H6E C7E 1_555 1_555
O3E C8E 1_555 1_555
H9E O3E 1_555 1_555
C2 O4 1_555 1_555
C8 O2E 1_555 1_555
C10 O5 1_555 1_555
Na1E O1E 1_555 1_555
Na1E O2E 1_555 1_555
C2E O4E 1_555 1_555
C5E C6E 1_555 1_555
C10E C9E 1_555 1_555
C8E C7E 1_555 1_555

#END
