
#######################################################################
#
#                 Cambridge Crystallographic Data Centre
#                                CCDC 
#
#######################################################################
#
# If this CIF has been generated from an entry in the Cambridge 
# Structural Database, then it will include bibliographic, chemical, 
# crystal, experimental, refinement or atomic coordinate data resulting 
# from the CCDC's data processing and validation procedures.
#
#######################################################################

data_KUCBAN
_symmetry_cell_setting           monoclinic
_symmetry_space_group_name_H-M   'C 2/c'
_symmetry_Int_Tables_number      15
_space_group_name_Hall           '-C 2yn'
loop_
_symmetry_equiv_pos_site_id
_symmetry_equiv_pos_as_xyz
1 x,y,z
2 -x,y,1/2-z
3 1/2+x,1/2+y,z
4 1/2-x,1/2+y,1/2-z
5 -x,-y,-z
6 x,-y,1/2+z
7 1/2-x,1/2-y,-z
8 1/2+x,1/2-y,1/2+z
_cell_length_a                   19.1787(7)
_cell_length_b                   20.5943(7)
_cell_length_c                   15.7861(5)
_cell_angle_alpha                90
_cell_angle_beta                 91.354(3)
_cell_angle_gamma                90
_cell_volume                     6233.32
loop_
_atom_site_label
_atom_site_type_symbol
_atom_site_fract_x
_atom_site_fract_y
_atom_site_fract_z
Co1 Co 0.5000 0.07233(3) 0.7500
Co2 Co 0.5000 0.44294(3) 0.7500
O1 O 0.56762(11) 0.37718(10) 0.78377(12)
O2 O 0.56928(11) 0.13934(10) 0.77387(12)
N1 N 0.53896(12) 0.01479(12) 0.66087(14)
O3 O 0.66622(12) 0.43163(10) 0.76540(14)
N2 N 0.91823(12) -0.05071(11) 0.44861(14)
C1 C 0.91538(15) -0.00990(14) 0.38139(16)
H1 H 0.8755 0.0130 0.3649
C2 C 0.59850(15) 0.02874(14) 0.62334(16)
H2 H 0.6284 0.0619 0.6411
C3 C 0.44954(16) -0.07320(14) 0.62648(17)
H3 H 0.4196 -0.0636 0.6702
O4 O 0.66613(13) 0.08542(11) 0.81049(15)
C4 C 0.79332(15) -0.03494(14) 0.47420(17)
H4 H 0.7808 -0.0522 0.4187
H5 H 0.8007 0.0114 0.4681
C5 C 0.55579(15) -0.05338(14) 0.55044(16)
C6 C 0.63410(16) 0.13602(14) 0.79468(16)
N3 N 0.61092(13) -0.01008(12) 0.55709(14)
C7 C 0.74263(16) 0.20092(14) 0.81767(17)
H6 H 0.7656 0.1617 0.8265
C8 C 0.98589(15) -0.07490(14) 0.45335(16)
C9 C 1.08976(15) -0.06412(14) 0.36955(17)
H7 H 1.1122 -0.0475 0.3227
C10 C 1.09028(15) -0.12929(14) 0.49864(17)
C11 C 0.51088(15) -0.03786(13) 0.61606(16)
C12 C 0.63408(16) 0.38042(14) 0.77978(17)
C13 C 0.54113(16) -0.10259(14) 0.49279(17)
H8 H 0.5711 -0.1117 0.4489
C14 C 0.67124(15) 0.20031(14) 0.80078(16)
C15 C 0.78114(15) 0.25858(14) 0.82191(17)
C16 C 1.02041(15) -0.11567(14) 0.51137(17)
H9 H 0.9973 -0.1332 0.5572
C17 C 0.86079(16) -0.06625(14) 0.50487(17)
H10 H 0.8723 -0.0511 0.5617
H11 H 0.8547 -0.1130 0.5072
C18 C 1.02095(15) -0.04768(14) 0.38519(16)
C19 C 0.67082(15) -0.00666(15) 0.50151(17)
H12 H 0.6849 0.0383 0.4959
H13 H 0.6568 -0.0222 0.4457
C20 C 0.74437(15) 0.31648(14) 0.80789(16)
H14 H 0.7686 0.3556 0.8084
C21 C 0.63551(15) 0.25862(13) 0.78957(17)
H15 H 0.5875 0.2587 0.7798
C22 C 0.67245(15) 0.31701(14) 0.79318(16)
C23 C 0.89749(17) 0.31743(16) 0.81632(19)
H16 H 0.9453 0.3156 0.8356
H17 H 0.8759 0.3557 0.8385
H18 H 0.8955 0.3188 0.7555
C24 C 0.48030(16) -0.13775(14) 0.50279(17)
C25 C 0.85899(16) 0.25728(14) 0.84705(19)
C26 C 1.13190(17) -0.16679(15) 0.56460(19)
H19 H 1.1016 -0.1810 0.6084
H20 H 1.1676 -0.1394 0.5887
H21 H 1.1530 -0.2039 0.5386
C27 C 0.43447(16) -0.12291(15) 0.57007(17)
C28 C 0.89533(18) 0.19689(17) 0.8123(2)
H22 H 0.8900 0.1960 0.7517
H23 H 0.8747 0.1586 0.8358
H24 H 0.9440 0.1983 0.8277
C29 C 0.73298(15) -0.04617(14) 0.53369(17)
H25 H 0.7210 -0.0919 0.5349
H26 H 0.7462 -0.0327 0.5907
C30 C 1.12418(15) -0.10569(14) 0.42520(18)
C31 C 0.36875(17) -0.16202(16) 0.57889(19)
H27 H 0.3805 -0.2056 0.5956
H28 H 0.3436 -0.1629 0.5256
H29 H 0.3402 -0.1426 0.6211
C32 C 0.46376(18) -0.19252(15) 0.44190(18)
H30 H 0.4986 -0.1942 0.3993
H31 H 0.4189 -0.1852 0.4154
H32 H 0.4632 -0.2329 0.4723
C33 C 1.19848(17) -0.12584(16) 0.4079(2)
H33 H 1.2148 -0.1028 0.3594
H34 H 1.2000 -0.1717 0.3971
H35 H 1.2278 -0.1158 0.4563
C34 C 0.86276(18) 0.25544(17) 0.9454(2)
H36 H 0.8348 0.2202 0.9653
H37 H 0.8456 0.2957 0.9674
H38 H 0.9103 0.2493 0.9641
N4 N 0.97498(12) -0.00593(11) 0.34164(13)
O1A O 0.43238(11) 0.37718(10) 0.71623(12)
O2A O 0.43072(11) 0.13934(10) 0.72613(12)
N1A N 0.46104(12) 0.01479(12) 0.83913(14)
O3A O 0.33378(12) 0.43163(10) 0.73460(14)
N2A N 0.08177(12) -0.05071(11) 1.05139(14)
C1A C 0.08462(15) -0.00990(14) 1.11861(16)
H1A H 0.1245 0.0130 1.1351
C2A C 0.40150(15) 0.02874(14) 0.87666(16)
H2A H 0.3716 0.0619 0.8589
C3A C 0.55046(16) -0.07320(14) 0.87352(17)
H3A H 0.5804 -0.0636 0.8298
O4A O 0.33387(13) 0.08542(11) 0.68951(15)
C4A C 0.20668(15) -0.03494(14) 1.02580(17)
H4A H 0.2192 -0.0522 1.0813
H5A H 0.1993 0.0114 1.0319
C5A C 0.44421(15) -0.05338(14) 0.94956(16)
C6A C 0.36590(16) 0.13602(14) 0.70532(16)
N3A N 0.38908(13) -0.01008(12) 0.94291(14)
C7A C 0.25737(16) 0.20092(14) 0.68233(17)
H6A H 0.2344 0.1617 0.6735
C8A C 0.01411(15) -0.07490(14) 1.04665(16)
C9A C -0.08976(15) -0.06412(14) 1.13045(17)
H7A H -0.1122 -0.0475 1.1773
C10A C -0.09028(15) -0.12929(14) 1.00136(17)
C11A C 0.48912(15) -0.03786(13) 0.88394(16)
C12A C 0.36592(16) 0.38042(14) 0.72022(17)
C13A C 0.45887(16) -0.10259(14) 1.00721(17)
H8A H 0.4289 -0.1117 1.0511
C14A C 0.32876(15) 0.20031(14) 0.69922(16)
C15A C 0.21886(15) 0.25858(14) 0.67809(17)
C16A C -0.02041(15) -0.11567(14) 0.98863(17)
H9A H 0.0027 -0.1332 0.9428
C17A C 0.13921(16) -0.06625(14) 0.99513(17)
H10A H 0.1277 -0.0511 0.9383
H11A H 0.1453 -0.1130 0.9928
C18A C -0.02095(15) -0.04768(14) 1.11481(16)
C19A C 0.32918(15) -0.00666(15) 0.99849(17)
H12A H 0.3151 0.0383 1.0041
H13A H 0.3432 -0.0222 1.0543
C20A C 0.25563(15) 0.31648(14) 0.69211(16)
H14A H 0.2314 0.3556 0.6916
C21A C 0.36449(15) 0.25862(13) 0.71043(17)
H15A H 0.4125 0.2587 0.7202
C22A C 0.32755(15) 0.31701(14) 0.70682(16)
C23A C 0.10251(17) 0.31743(16) 0.68368(19)
H16A H 0.0547 0.3156 0.6644
H17A H 0.1241 0.3557 0.6615
H18A H 0.1045 0.3188 0.7445
C24A C 0.51970(16) -0.13775(14) 0.99721(17)
C25A C 0.14101(16) 0.25728(14) 0.65295(19)
C26A C -0.13190(17) -0.16679(15) 0.93540(19)
H19A H -0.1016 -0.1810 0.8916
H20A H -0.1676 -0.1394 0.9113
H21A H -0.1530 -0.2039 0.9614
C27A C 0.56553(16) -0.12291(15) 0.92993(17)
C28A C 0.10467(18) 0.19689(17) 0.6877(2)
H22A H 0.1100 0.1960 0.7483
H23A H 0.1253 0.1586 0.6642
H24A H 0.0560 0.1983 0.6723
C29A C 0.26702(15) -0.04617(14) 0.96631(17)
H25A H 0.2790 -0.0919 0.9651
H26A H 0.2538 -0.0327 0.9093
C30A C -0.12418(15) -0.10569(14) 1.07480(18)
C31A C 0.63125(17) -0.16202(16) 0.92111(19)
H27A H 0.6195 -0.2056 0.9044
H28A H 0.6564 -0.1629 0.9744
H29A H 0.6598 -0.1426 0.8789
C32A C 0.53624(18) -0.19252(15) 1.05810(18)
H30A H 0.5014 -0.1942 1.1007
H31A H 0.5811 -0.1852 1.0846
H32A H 0.5368 -0.2329 1.0277
C33A C -0.19848(17) -0.12584(16) 1.0921(2)
H33A H -0.2148 -0.1028 1.1406
H34A H -0.2000 -0.1717 1.1029
H35A H -0.2278 -0.1158 1.0437
C34A C 0.13724(18) 0.25544(17) 0.5546(2)
H36A H 0.1652 0.2202 0.5347
H37A H 0.1544 0.2957 0.5326
H38A H 0.0897 0.2493 0.5359
N4A N 0.02502(12) -0.00593(11) 1.15836(13)
Co2F Co 0.0000 0.05706(3) 1.2500
Co2F_2 Co 1.0000 0.05706(3) 0.2500
N4F N 0.52502(12) 0.50593(11) 0.65836(13)
N4G N 0.47498(12) 0.50593(11) 0.84164(13)
O5 O 0.3012(2) 0.04363(16) 0.2198(3)
H39 H 0.311(3) 0.002(3) 0.220(4)
H40 H 0.256(4) 0.047(3) 0.227(4)
loop_
_geom_bond_atom_site_label_1
_geom_bond_atom_site_label_2
_geom_bond_site_symmetry_1
_geom_bond_site_symmetry_2
Co1 O2 1_555 1_555
Co2 O1 1_555 1_555
O1 C12 1_555 1_555
O2 C6 1_555 1_555
N1 Co1 1_555 1_555
O3 C12 1_555 1_555
N2 C1 1_555 1_555
C1 H1 1_555 1_555
C2 N1 1_555 1_555
H2 C2 1_555 1_555
C3 H3 1_555 1_555
O4 C6 1_555 1_555
C4 H4 1_555 1_555
H5 C4 1_555 1_555
C5 N3 1_555 1_555
C6 C14 1_555 1_555
N3 C2 1_555 1_555
C7 H6 1_555 1_555
C8 N2 1_555 1_555
C9 H7 1_555 1_555
C10 C16 1_555 1_555
C11 N1 1_555 1_555
C12 C22 1_555 1_555
C13 C5 1_555 1_555
H8 C13 1_555 1_555
C14 C7 1_555 1_555
C15 C7 1_555 1_555
C16 C8 1_555 1_555
H9 C16 1_555 1_555
C17 N2 1_555 1_555
H10 C17 1_555 1_555
H11 C17 1_555 1_555
C18 C8 1_555 1_555
C19 N3 1_555 1_555
H12 C19 1_555 1_555
H13 C19 1_555 1_555
C20 C15 1_555 1_555
H14 C20 1_555 1_555
C21 C14 1_555 1_555
H15 C21 1_555 1_555
C22 C20 1_555 1_555
C23 H16 1_555 1_555
H17 C23 1_555 1_555
H18 C23 1_555 1_555
C24 C13 1_555 1_555
C25 C15 1_555 1_555
C26 C10 1_555 1_555
H19 C26 1_555 1_555
H20 C26 1_555 1_555
H21 C26 1_555 1_555
C27 C3 1_555 1_555
C28 C25 1_555 1_555
H22 C28 1_555 1_555
H23 C28 1_555 1_555
H24 C28 1_555 1_555
C29 C4 1_555 1_555
H25 C29 1_555 1_555
H26 C29 1_555 1_555
C30 C9 1_555 1_555
C31 C27 1_555 1_555
H27 C31 1_555 1_555
H28 C31 1_555 1_555
H29 C31 1_555 1_555
C32 C24 1_555 1_555
H30 C32 1_555 1_555
H31 C32 1_555 1_555
H32 C32 1_555 1_555
C33 C30 1_555 1_555
H33 C33 1_555 1_555
H34 C33 1_555 1_555
H35 C33 1_555 1_555
C34 C25 1_555 1_555
H36 C34 1_555 1_555
H37 C34 1_555 1_555
H38 C34 1_555 1_555
N4 C1 1_555 1_555
O5 H39 1_555 1_555
H40 O5 1_555 1_555
O1A Co2 1_555 1_555
O2A Co1 1_555 1_555
N1A Co1 1_555 1_555
O3A C12A 1_555 1_555
N2A C1A 1_555 1_555
C1A H1A 1_555 1_555
C2A N1A 1_555 1_555
H2A C2A 1_555 1_555
C3A H3A 1_555 1_555
O4A C6A 1_555 1_555
C4A H4A 1_555 1_555
H5A C4A 1_555 1_555
C5A N3A 1_555 1_555
C6A O2A 1_555 1_555
N3A C2A 1_555 1_555
C7A H6A 1_555 1_555
C8A N2A 1_555 1_555
C9A H7A 1_555 1_555
C10A C16A 1_555 1_555
C11A N1A 1_555 1_555
C12A O1A 1_555 1_555
C13A C5A 1_555 1_555
H8A C13A 1_555 1_555
C14A C6A 1_555 1_555
C15A C7A 1_555 1_555
C16A C8A 1_555 1_555
H9A C16A 1_555 1_555
C17A N2A 1_555 1_555
H10A C17A 1_555 1_555
H11A C17A 1_555 1_555
C18A C8A 1_555 1_555
C19A N3A 1_555 1_555
H12A C19A 1_555 1_555
H13A C19A 1_555 1_555
C20A C15A 1_555 1_555
H14A C20A 1_555 1_555
C21A C14A 1_555 1_555
H15A C21A 1_555 1_555
C22A C12A 1_555 1_555
C23A H16A 1_555 1_555
H17A C23A 1_555 1_555
H18A C23A 1_555 1_555
C24A C13A 1_555 1_555
C25A C15A 1_555 1_555
C26A C10A 1_555 1_555
H19A C26A 1_555 1_555
H20A C26A 1_555 1_555
H21A C26A 1_555 1_555
C27A C3A 1_555 1_555
C28A C25A 1_555 1_555
H22A C28A 1_555 1_555
H23A C28A 1_555 1_555
H24A C28A 1_555 1_555
C29A C4A 1_555 1_555
H25A C29A 1_555 1_555
H26A C29A 1_555 1_555
C30A C9A 1_555 1_555
C31A C27A 1_555 1_555
H27A C31A 1_555 1_555
H28A C31A 1_555 1_555
H29A C31A 1_555 1_555
C32A C24A 1_555 1_555
H30A C32A 1_555 1_555
H31A C32A 1_555 1_555
H32A C32A 1_555 1_555
C33A C30A 1_555 1_555
H33A C33A 1_555 1_555
H34A C33A 1_555 1_555
H35A C33A 1_555 1_555
C34A C25A 1_555 1_555
H36A C34A 1_555 1_555
H37A C34A 1_555 1_555
H38A C34A 1_555 1_555
N4A C1A 1_555 1_555
Co2F N4A 1_555 1_555
Co2F_2 N4 1_555 1_555
N4F Co2 1_555 1_555
N4G Co2 1_555 1_555
C3 C11 1_555 1_555
C4 C17 1_555 1_555
C5 C11 1_555 1_555
C9 C18 1_555 1_555
C10 C30 1_555 1_555
C18 N4 1_555 1_555
C19 C29 1_555 1_555
C21 C22 1_555 1_555
C23 C25 1_555 1_555
C24 C27 1_555 1_555
C3A C11A 1_555 1_555
C4A C17A 1_555 1_555
C5A C11A 1_555 1_555
C7A C14A 1_555 1_555
C9A C18A 1_555 1_555
C10A C30A 1_555 1_555
C18A N4A 1_555 1_555
C19A C29A 1_555 1_555
C20A C22A 1_555 1_555
C21A C22A 1_555 1_555
C23A C25A 1_555 1_555
C24A C27A 1_555 1_555

#END
