
#######################################################################
#
#                 Cambridge Crystallographic Data Centre
#                                CCDC 
#
#######################################################################
#
# If this CIF has been generated from an entry in the Cambridge 
# Structural Database, then it will include bibliographic, chemical, 
# crystal, experimental, refinement or atomic coordinate data resulting 
# from the CCDC's data processing and validation procedures.
#
#######################################################################

data_KUCDAP
_symmetry_cell_setting           monoclinic
_symmetry_space_group_name_H-M   'P 21/c'
_symmetry_Int_Tables_number      14
_space_group_name_Hall           '-P 2ybc'
loop_
_symmetry_equiv_pos_site_id
_symmetry_equiv_pos_as_xyz
1 x,y,z
2 -x,1/2+y,1/2-z
3 -x,-y,-z
4 x,1/2-y,1/2+z
_cell_length_a                   21.1595(6)
_cell_length_b                   10.0443(2)
_cell_length_c                   16.9449(4)
_cell_angle_alpha                90
_cell_angle_beta                 100.237(2)
_cell_angle_gamma                90
_cell_volume                     3544.01
loop_
_atom_site_label
_atom_site_type_symbol
_atom_site_fract_x
_atom_site_fract_y
_atom_site_fract_z
Cd1 Cd 0.402856(12) 0.17778(2) 0.400568(16)
Cd2 Cd -0.042051(14) 0.06717(3) 0.646649(17)
O1 O 0.33589(14) 0.3260(2) 0.44838(18)
O2 O 0.41003(14) 0.4329(3) 0.3988(2)
O3 O 0.41792(12) 0.9325(2) 0.41881(17)
O4 O 0.33156(13) 1.0328(3) 0.4427(2)
O5 O 0.19457(14) 0.6908(2) 0.53583(19)
O6 O 0.10251(15) 0.4841(3) 0.76413(17)
O7 O 0.00336(15) 0.4973(3) 0.70119(19)
O8 O 0.03677(14) 0.2176(3) 0.64983(17)
O9 O -0.00517(15) 0.2051(3) 0.52113(19)
O10 O -0.08229(17) 0.2672(3) 0.6901(3)
H1 H -0.0531 0.3067 0.7252
H2 H -0.1154 0.2510 0.7127
O11 O 0.0126(2) -0.1314(4) 0.6351(3)
H3 H 0.006(3) -0.174(7) 0.597(5)
H4 H 0.016(3) -0.165(6) 0.673(4)
O12 O 0.46756(14) 0.1950(3) 0.52821(17)
H5 H 0.4667 0.2756 0.5464
H6 H 0.5070 0.1749 0.5256
N1 N 0.49448(15) 0.1833(3) 0.3436(2)
N2 N 0.79203(17) 0.2148(4) 0.2090(2)
N3 N -0.12181(15) -0.0123(3) 0.54821(19)
N4 N -0.33592(16) -0.3159(3) 0.2310(2)
C1 C 0.36221(18) 0.4320(4) 0.4340(2)
C2 C 0.33555(17) 0.5605(3) 0.4585(2)
C3 C 0.36365(17) 0.6807(3) 0.4438(2)
H7 H 0.4015 0.6813 0.4230
C4 C 0.33546(18) 0.7998(3) 0.4600(2)
C5 C 0.27850(18) 0.7982(3) 0.4902(2)
H8 H 0.2589 0.8779 0.4999
C6 C 0.25100(17) 0.6783(3) 0.5056(2)
C7 C 0.27950(18) 0.5602(3) 0.4918(2)
H9 H 0.2617 0.4800 0.5045
C8 C 0.15388(18) 0.5845(4) 0.5412(2)
C9 C 0.12874(18) 0.5787(4) 0.6112(2)
H10 H 0.1399 0.6435 0.6504
C10 C 0.08692(17) 0.4771(4) 0.6234(2)
C11 C 0.06914(17) 0.3809(4) 0.5642(2)
C12 C 0.09167(18) 0.3947(4) 0.4921(2)
H11 H 0.0778 0.3348 0.4508
C13 C 0.13402(19) 0.4944(4) 0.4801(2)
H12 H 0.1489 0.5008 0.4318
C14 C 0.36346(18) 0.9298(3) 0.4400(2)
C15 C 0.0619(2) 0.4836(4) 0.7010(2)
C16 C 0.02997(18) 0.2612(4) 0.5777(3)
C17 C 0.50802(19) 0.2839(4) 0.2969(2)
H13 H 0.4774 0.3500 0.2826
C18 C 0.5652(2) 0.2931(4) 0.2695(3)
H14 H 0.5723 0.3634 0.2364
C19 C 0.61210(18) 0.1978(4) 0.2911(2)
C20 C 0.53975(19) 0.0912(4) 0.3637(3)
H15 H 0.5314 0.0209 0.3961
C21 C 0.59770(19) 0.0945(4) 0.3391(3)
H16 H 0.6276 0.0274 0.3545
C22 C 0.67503(18) 0.2038(4) 0.2637(2)
C23 C 0.7031(2) 0.3248(4) 0.2515(3)
H17 H 0.6834 0.4044 0.2612
C24 C 0.7615(2) 0.3248(5) 0.2245(3)
H18 H 0.7803 0.4065 0.2169
C25 C 0.7641(2) 0.0990(5) 0.2205(3)
H19 H 0.7844 0.0207 0.2098
C26 C 0.7065(2) 0.0905(4) 0.2474(3)
H20 H 0.6889 0.0074 0.2546
C27 C -0.16603(19) -0.0973(4) 0.5656(2)
H21 H -0.1680 -0.1130 0.6192
C28 C -0.20912(18) -0.1632(4) 0.5071(2)
H22 H -0.2400 -0.2195 0.5218
C29 C -0.20600(17) -0.1447(4) 0.4270(2)
C30 C -0.1604(2) -0.0561(4) 0.4091(2)
H23 H -0.1568 -0.0399 0.3561
C31 C -0.12050(19) 0.0076(4) 0.4704(2)
H24 H -0.0908 0.0681 0.4571
C32 C -0.24962(18) -0.2142(4) 0.3620(2)
C33 C -0.31318(18) -0.2416(4) 0.3676(2)
H25 H -0.3281 -0.2260 0.4152
C34 C -0.3538(2) -0.2924(4) 0.3012(2)
H26 H -0.3960 -0.3112 0.3059
C35 C -0.27347(19) -0.2964(4) 0.2275(3)
H27 H -0.2593 -0.3168 0.1800
C36 C -0.22958(19) -0.2479(4) 0.2906(2)
H28 H -0.1868 -0.2376 0.2857
Cd1_2 Cd 0.402856(12) 1.17778(2) 0.400568(16)
Cd1A Cd -0.402856(12) -0.32222(2) 0.099432(16)
Cd2A Cd 0.042051(14) 0.56717(3) 0.853351(17)
O3_2 O 0.41792(12) -0.0675(2) 0.41881(17)
O4_2 O 0.33156(13) 0.0328(3) 0.4427(2)
O6A O -0.10251(15) -0.0159(3) 0.73587(17)
O7A O -0.00336(15) -0.0027(3) 0.79881(19)
N4A N 0.33592(16) 0.1841(3) 0.2690(2)
O13 O 0.1100(2) 0.3515(6) 0.3010(3)
H29 H 0.0791 0.3070 0.3136
H30 H 0.0955 0.4061 0.2639
O14 O 0.47479(18) 0.4419(3) 0.6003(3)
H31 H 0.5137 0.4676 0.6083
H32 H 0.4505 0.5060 0.5815
loop_
_geom_bond_atom_site_label_1
_geom_bond_atom_site_label_2
_geom_bond_site_symmetry_1
_geom_bond_site_symmetry_2
Cd1 O1 1_555 1_555
Cd2 O8 1_555 1_555
O1 C1 1_555 1_555
O2 Cd1 1_555 1_555
O3 C14 1_555 1_555
O4 C14 1_555 1_555
O5 C6 1_555 1_555
O6 C15 1_555 1_555
O7 C15 1_555 1_555
O8 C16 1_555 1_555
O9 Cd2 1_555 1_555
O10 Cd2 1_555 1_555
H1 O10 1_555 1_555
H2 O10 1_555 1_555
O11 Cd2 1_555 1_555
H3 O11 1_555 1_555
H4 O11 1_555 1_555
O12 Cd1 1_555 1_555
H5 O12 1_555 1_555
H6 O12 1_555 1_555
N1 Cd1 1_555 1_555
N2 C24 1_555 1_555
N3 Cd2 1_555 1_555
N4 C34 1_555 1_555
C1 O2 1_555 1_555
C2 C1 1_555 1_555
C3 C2 1_555 1_555
H7 C3 1_555 1_555
C4 C3 1_555 1_555
C5 C4 1_555 1_555
H8 C5 1_555 1_555
C6 C5 1_555 1_555
C7 C2 1_555 1_555
H9 C7 1_555 1_555
C8 O5 1_555 1_555
C9 C8 1_555 1_555
H10 C9 1_555 1_555
C10 C9 1_555 1_555
C11 C10 1_555 1_555
C12 C11 1_555 1_555
H11 C12 1_555 1_555
C13 C8 1_555 1_555
H12 C13 1_555 1_555
C14 C4 1_555 1_555
C15 C10 1_555 1_555
C16 O9 1_555 1_555
C17 N1 1_555 1_555
H13 C17 1_555 1_555
C18 C17 1_555 1_555
H14 C18 1_555 1_555
C19 C18 1_555 1_555
C20 N1 1_555 1_555
H15 C20 1_555 1_555
C21 C19 1_555 1_555
H16 C21 1_555 1_555
C22 C19 1_555 1_555
C23 C22 1_555 1_555
H17 C23 1_555 1_555
C24 C23 1_555 1_555
H18 C24 1_555 1_555
C25 N2 1_555 1_555
H19 C25 1_555 1_555
C26 C22 1_555 1_555
H20 C26 1_555 1_555
C27 N3 1_555 1_555
H21 C27 1_555 1_555
C28 C27 1_555 1_555
H22 C28 1_555 1_555
C29 C28 1_555 1_555
C30 C29 1_555 1_555
H23 C30 1_555 1_555
C31 N3 1_555 1_555
H24 C31 1_555 1_555
C32 C29 1_555 1_555
C33 C32 1_555 1_555
H25 C33 1_555 1_555
C34 C33 1_555 1_555
H26 C34 1_555 1_555
C35 N4 1_555 1_555
H27 C35 1_555 1_555
C36 C32 1_555 1_555
H28 C36 1_555 1_555
O13 H29 1_555 1_555
H30 O13 1_555 1_555
O14 H31 1_555 1_555
H32 O14 1_555 1_555
Cd1_2 O3 1_555 1_555
Cd1A N4 1_555 1_555
Cd2A O6 1_555 1_555
O3_2 Cd1 1_555 1_555
O4_2 Cd1 1_555 1_555
O6A Cd2 1_555 1_555
O7A Cd2 1_555 1_555
N4A Cd1 1_555 1_555
O4 Cd1_2 1_555 1_555
O7 Cd2A 1_555 1_555
C6 C7 1_555 1_555
C11 C16 1_555 1_555
C12 C13 1_555 1_555
C20 C21 1_555 1_555
C25 C26 1_555 1_555
C30 C31 1_555 1_555
C35 C36 1_555 1_555

#END
