
#######################################################################
#
#                 Cambridge Crystallographic Data Centre
#                                CCDC 
#
#######################################################################
#
# If this CIF has been generated from an entry in the Cambridge 
# Structural Database, then it will include bibliographic, chemical, 
# crystal, experimental, refinement or atomic coordinate data resulting 
# from the CCDC's data processing and validation procedures.
#
#######################################################################

data_KUCDUJ
_symmetry_cell_setting           monoclinic
_symmetry_space_group_name_H-M   'C 2/c'
_symmetry_Int_Tables_number      15
_space_group_name_Hall           '-C 2yn'
loop_
_symmetry_equiv_pos_site_id
_symmetry_equiv_pos_as_xyz
1 x,y,z
2 -x,y,1/2-z
3 1/2+x,1/2+y,z
4 1/2-x,1/2+y,1/2-z
5 -x,-y,-z
6 x,-y,1/2+z
7 1/2-x,1/2-y,-z
8 1/2+x,1/2-y,1/2+z
_cell_length_a                   37.359(2)
_cell_length_b                   7.7625(2)
_cell_length_c                   22.3426(7)
_cell_angle_alpha                90
_cell_angle_beta                 91.094(4)
_cell_angle_gamma                90
_cell_volume                     6478.16
loop_
_atom_site_label
_atom_site_type_symbol
_atom_site_fract_x
_atom_site_fract_y
_atom_site_fract_z
Ni1 Ni 0.624577(8) 0.02053(4) 0.115559(13)
Ni2 Ni 0.5000 0.5000 0.5000
O1 O 0.65144(5) 0.0781(2) 0.19510(8)
O2 O 0.61877(5) 0.3027(3) 0.22521(8)
O3 O 0.78095(6) 0.1386(4) 0.26426(10)
H1 H 0.8028 0.1294 0.2650
O4 O 0.78938(5) 0.1829(4) 0.36191(9)
O5 O 0.67738(6) 0.4657(3) 0.42467(8)
O6 O 0.60841(8) 0.2998(3) 0.46345(9)
O7 O 0.62060(5) 0.4623(2) 0.54342(7)
O8 O 0.55095(5) 0.5854(3) 0.48998(8)
O9 O 0.54542(6) 0.8669(3) 0.47811(13)
O10 O 0.64169(5) -0.2318(2) 0.12187(7)
H2 H 0.6650 -0.2381 0.1203
H3 H 0.6327 -0.2928 0.0924
O11 O 0.59880(5) -0.0528(3) 0.03778(8)
H4 H 0.5851 0.0286 0.0257
H5 H 0.5863 -0.1426 0.0442
O12 O 0.60223(5) 0.2616(2) 0.10805(8)
H6 H 0.6144 0.3265 0.0838
H7 H 0.6019 0.3126 0.1429
O13 O 0.47875(6) 0.7450(3) 0.48466(9)
H8 H 0.4652 0.7450 0.4530
H9 H 0.4959 0.8173 0.4797
N1 N 0.67115(6) 0.1008(3) 0.07018(10)
N2 N 0.57821(6) -0.0403(3) 0.16398(9)
N3 N 0.50068(6) 0.5462(3) 0.59200(9)
C1 C 0.64489(7) 0.2022(4) 0.22995(11)
C2 C 0.67151(7) 0.2345(3) 0.28045(11)
C3 C 0.70661(7) 0.1800(4) 0.27608(11)
H10 H 0.7137 0.1163 0.2431
C4 C 0.73121(7) 0.2212(4) 0.32125(12)
C5 C 0.72079(7) 0.3160(4) 0.37108(12)
H11 H 0.7372 0.3416 0.4016
C6 C 0.68582(7) 0.3711(4) 0.37450(11)
C7 C 0.66110(7) 0.3309(4) 0.32983(11)
H12 H 0.6375 0.3681 0.3327
C8 C 0.76996(8) 0.1783(4) 0.31747(13)
C9 C 0.65286(7) 0.5991(4) 0.41614(11)
C10 C 0.62138(7) 0.5935(3) 0.44799(10)
C11 C 0.59744(7) 0.7303(3) 0.44194(11)
C12 C 0.60594(9) 0.8691(4) 0.40534(12)
H13 H 0.5903 0.9617 0.4018
C13 C 0.63748(10) 0.8700(4) 0.37425(13)
H14 H 0.6428 0.9628 0.3496
C14 C 0.66108(9) 0.7349(4) 0.37942(13)
H15 H 0.6823 0.7354 0.3584
C15 C 0.61563(8) 0.4395(4) 0.48806(11)
C16 C 0.56181(7) 0.7285(4) 0.47205(12)
C17 C 0.68529(9) 0.0164(4) 0.02472(14)
H16 H 0.6740 -0.0834 0.0111
C18 C 0.71609(9) 0.0704(4) -0.00334(14)
H17 H 0.7251 0.0058 -0.0347
C19 C 0.73350(7) 0.2185(4) 0.01463(12)
C20 C 0.71790(9) 0.3079(5) 0.06061(16)
H18 H 0.7280 0.4106 0.0742
C21 C 0.68739(9) 0.2454(5) 0.08651(15)
H19 H 0.6776 0.3087 0.1175
C22 C 0.54587(7) -0.0071(4) 0.14016(12)
H20 H 0.5443 0.0266 0.1002
C23 C 0.51478(7) -0.0203(4) 0.17183(12)
H21 H 0.4928 0.0031 0.1533
C24 C 0.51640(7) -0.0688(4) 0.23155(11)
C25 C 0.54975(7) -0.1073(4) 0.25598(11)
H22 H 0.5520 -0.1430 0.2956
C26 C 0.57966(7) -0.0924(4) 0.22130(11)
H23 H 0.6019 -0.1197 0.2383
C27 C 0.47101(8) 0.5950(4) 0.62089(11)
H24 H 0.4506 0.6227 0.5985
C28 C 0.46988(8) 0.6053(4) 0.68254(11)
H25 H 0.4489 0.6383 0.7011
C29 C 0.50031(7) 0.5659(4) 0.71668(10)
C30 C 0.53097(8) 0.5214(4) 0.68652(11)
H26 H 0.5521 0.4984 0.7077
C31 C 0.53009(8) 0.5114(4) 0.62490(12)
H27 H 0.5508 0.4791 0.6054
N1F N 0.82885(6) 0.3992(3) -0.07018(10)
C17F C 0.81471(9) 0.4836(4) -0.02472(14)
H16F H 0.8260 0.5834 -0.0111
C18F C 0.78391(9) 0.4296(4) 0.00334(14)
H17F H 0.7749 0.4942 0.0347
C19F C 0.76650(7) 0.2815(4) -0.01463(12)
C20F C 0.78210(9) 0.1921(5) -0.06061(16)
H18F H 0.7720 0.0894 -0.0742
C21F C 0.81261(9) 0.2546(5) -0.08651(15)
H19F H 0.8224 0.1913 -0.1175
N2A N 0.42179(6) -0.0403(3) 0.33602(9)
C22A C 0.45413(7) -0.0071(4) 0.35984(12)
H20A H 0.4557 0.0266 0.3998
C23A C 0.48522(7) -0.0203(4) 0.32817(12)
H21A H 0.5072 0.0031 0.3467
C24A C 0.48360(7) -0.0688(4) 0.26845(11)
C25A C 0.45025(7) -0.1073(4) 0.24402(11)
H22A H 0.4480 -0.1430 0.2044
C26A C 0.42034(7) -0.0924(4) 0.27870(11)
H23A H 0.3981 -0.1197 0.2617
N3A N 0.49932(6) 0.5462(3) 0.90800(9)
C27A C 0.52899(8) 0.5950(4) 0.87911(11)
H24A H 0.5494 0.6227 0.9015
C28A C 0.53012(8) 0.6053(4) 0.81746(11)
H25A H 0.5511 0.6383 0.7989
C29A C 0.49969(7) 0.5659(4) 0.78332(10)
C30A C 0.46903(8) 0.5214(4) 0.81348(11)
H26A H 0.4479 0.4984 0.7923
C31A C 0.46991(8) 0.5114(4) 0.87510(12)
H27A H 0.4492 0.4791 0.8946
Ni1A Ni 0.375423(8) 0.02053(4) 0.384441(13)
O1A O 0.34856(5) 0.0781(2) 0.30490(8)
O2A O 0.38123(5) 0.3027(3) 0.27479(8)
O3A O 0.21905(6) 0.1386(4) 0.23574(10)
H1A H 0.1972 0.1294 0.2350
O4A O 0.21062(5) 0.1829(4) 0.13809(9)
O5A O 0.32262(6) 0.4657(3) 0.07533(8)
O6A O 0.39159(8) 0.2998(3) 0.03655(9)
O7A O 0.37940(5) 0.4623(2) -0.04342(7)
O8A O 0.44905(5) 0.5854(3) 0.01002(8)
O9A O 0.45458(6) 0.8669(3) 0.02189(13)
O10A O 0.35831(5) -0.2318(2) 0.37813(7)
H2A H 0.3350 -0.2381 0.3797
H3A H 0.3673 -0.2928 0.4076
O11A O 0.40120(5) -0.0528(3) 0.46222(8)
H4A H 0.4149 0.0286 0.4743
H5A H 0.4137 -0.1426 0.4558
O12A O 0.39777(5) 0.2616(2) 0.39195(8)
H6A H 0.3856 0.3265 0.4162
H7A H 0.3981 0.3126 0.3571
C1A C 0.35511(7) 0.2022(4) 0.27005(11)
C2A C 0.32849(7) 0.2345(3) 0.21955(11)
C3A C 0.29339(7) 0.1800(4) 0.22392(11)
H10A H 0.2863 0.1163 0.2569
C4A C 0.26879(7) 0.2212(4) 0.17875(12)
C5A C 0.27921(7) 0.3160(4) 0.12892(12)
H11A H 0.2628 0.3416 0.0984
C6A C 0.31418(7) 0.3711(4) 0.12550(11)
C7A C 0.33890(7) 0.3309(4) 0.17017(11)
H12A H 0.3625 0.3681 0.1673
C8A C 0.23004(8) 0.1783(4) 0.18253(13)
C9A C 0.34714(7) 0.5991(4) 0.08386(11)
C10A C 0.37862(7) 0.5935(3) 0.05201(10)
C11A C 0.40256(7) 0.7303(3) 0.05806(11)
C12A C 0.39406(9) 0.8691(4) 0.09466(12)
H13A H 0.4097 0.9617 0.0982
C13A C 0.36252(10) 0.8700(4) 0.12575(13)
H14A H 0.3572 0.9628 0.1504
C14A C 0.33892(9) 0.7349(4) 0.12058(13)
H15A H 0.3177 0.7354 0.1416
C15A C 0.38437(8) 0.4395(4) 0.01194(11)
C16A C 0.43819(7) 0.7285(4) 0.02795(12)
O13D O 0.52125(6) 0.2550(3) 0.51534(9)
H8D H 0.5348 0.2550 0.5470
H9D H 0.5041 0.1827 0.5203
Ni1F Ni 0.875423(8) 0.47947(4) -0.115559(13)
Ni2A Ni 0.5000 0.5000 0.0000
Ni2A_2 Ni 0.5000 0.5000 1.0000
O8D O 0.44905(5) 0.4146(3) 0.51002(8)
N1A N 0.32885(6) 0.1008(3) 0.42982(10)
N3D N 0.49932(6) 0.4538(3) 0.40800(9)
O14 O 0.64903(6) 0.6286(3) 0.23601(9)
H28 H 0.6379 0.5338 0.2397
H29 H 0.6449 0.6702 0.2014
loop_
_geom_bond_atom_site_label_1
_geom_bond_atom_site_label_2
_geom_bond_site_symmetry_1
_geom_bond_site_symmetry_2
Ni1 O1 1_555 1_555
Ni2 O8 1_555 1_555
O1 C1 1_555 1_555
O2 C1 1_555 1_555
O3 H1 1_555 1_555
O4 C8 1_555 1_555
O5 C6 1_555 1_555
O6 C15 1_555 1_555
O7 C15 1_555 1_555
O8 C16 1_555 1_555
O9 C16 1_555 1_555
O10 Ni1 1_555 1_555
H2 O10 1_555 1_555
H3 O10 1_555 1_555
O11 Ni1 1_555 1_555
H4 O11 1_555 1_555
H5 O11 1_555 1_555
O12 Ni1 1_555 1_555
H6 O12 1_555 1_555
H7 O12 1_555 1_555
O13 Ni2 1_555 1_555
H8 O13 1_555 1_555
H9 O13 1_555 1_555
N1 Ni1 1_555 1_555
N2 Ni1 1_555 1_555
N3 Ni2 1_555 1_555
C1 C2 1_555 1_555
C2 C3 1_555 1_555
C3 H10 1_555 1_555
C4 C3 1_555 1_555
C5 C4 1_555 1_555
H11 C5 1_555 1_555
C6 C5 1_555 1_555
C7 C2 1_555 1_555
H12 C7 1_555 1_555
C8 O3 1_555 1_555
C9 O5 1_555 1_555
C10 C9 1_555 1_555
C11 C10 1_555 1_555
C12 C11 1_555 1_555
H13 C12 1_555 1_555
C13 C12 1_555 1_555
H14 C13 1_555 1_555
C14 C9 1_555 1_555
H15 C14 1_555 1_555
C15 C10 1_555 1_555
C16 C11 1_555 1_555
C17 N1 1_555 1_555
H16 C17 1_555 1_555
C18 C17 1_555 1_555
H17 C18 1_555 1_555
C19 C18 1_555 1_555
C20 C19 1_555 1_555
H18 C20 1_555 1_555
C21 N1 1_555 1_555
H19 C21 1_555 1_555
C22 N2 1_555 1_555
H20 C22 1_555 1_555
C23 C22 1_555 1_555
H21 C23 1_555 1_555
C24 C23 1_555 1_555
C25 C24 1_555 1_555
H22 C25 1_555 1_555
C26 N2 1_555 1_555
H23 C26 1_555 1_555
C27 N3 1_555 1_555
H24 C27 1_555 1_555
C28 C27 1_555 1_555
H25 C28 1_555 1_555
C29 C28 1_555 1_555
C30 C29 1_555 1_555
H26 C30 1_555 1_555
C31 N3 1_555 1_555
H27 C31 1_555 1_555
O14 H28 1_555 1_555
H29 O14 1_555 1_555
N1F C17F 1_555 1_555
C17F H16F 1_555 1_555
C18F C17F 1_555 1_555
H17F C18F 1_555 1_555
C19F C19 1_555 1_555
C20F C19F 1_555 1_555
H18F C20F 1_555 1_555
C21F N1F 1_555 1_555
H19F C21F 1_555 1_555
N2A C22A 1_555 1_555
C22A H20A 1_555 1_555
C23A C22A 1_555 1_555
H21A C23A 1_555 1_555
C24A C24 1_555 1_555
C25A C24A 1_555 1_555
H22A C25A 1_555 1_555
C26A N2A 1_555 1_555
H23A C26A 1_555 1_555
N3A C27A 1_555 1_555
C27A H24A 1_555 1_555
C28A C27A 1_555 1_555
H25A C28A 1_555 1_555
C29A C29 1_555 1_555
C30A C29A 1_555 1_555
H26A C30A 1_555 1_555
C31A N3A 1_555 1_555
H27A C31A 1_555 1_555
Ni1A N2A 1_555 1_555
O1A Ni1A 1_555 1_555
O2A C1A 1_555 1_555
O3A H1A 1_555 1_555
O4A C8A 1_555 1_555
O5A C6A 1_555 1_555
O6A C15A 1_555 1_555
O7A C15A 1_555 1_555
O8A C16A 1_555 1_555
O9A C16A 1_555 1_555
O10A Ni1A 1_555 1_555
H2A O10A 1_555 1_555
H3A O10A 1_555 1_555
O11A Ni1A 1_555 1_555
H4A O11A 1_555 1_555
H5A O11A 1_555 1_555
O12A Ni1A 1_555 1_555
H6A O12A 1_555 1_555
H7A O12A 1_555 1_555
C1A O1A 1_555 1_555
C2A C1A 1_555 1_555
C3A C2A 1_555 1_555
H10A C3A 1_555 1_555
C4A C3A 1_555 1_555
C5A C4A 1_555 1_555
H11A C5A 1_555 1_555
C6A C5A 1_555 1_555
C7A C2A 1_555 1_555
H12A C7A 1_555 1_555
C8A O3A 1_555 1_555
C9A O5A 1_555 1_555
C10A C9A 1_555 1_555
C11A C10A 1_555 1_555
C12A C11A 1_555 1_555
H13A C12A 1_555 1_555
C13A C12A 1_555 1_555
H14A C13A 1_555 1_555
C14A C9A 1_555 1_555
H15A C14A 1_555 1_555
C15A C10A 1_555 1_555
C16A C11A 1_555 1_555
O13D Ni2 1_555 1_555
H8D O13D 1_555 1_555
H9D O13D 1_555 1_555
Ni1F N1F 1_555 1_555
Ni2A O8A 1_555 1_555
Ni2A_2 N3A 1_555 1_555
O8D Ni2 1_555 1_555
N1A Ni1A 1_555 1_555
N3D Ni2 1_555 1_555
C4 C8 1_555 1_555
C6 C7 1_555 1_555
C13 C14 1_555 1_555
C20 C21 1_555 1_555
C25 C26 1_555 1_555
C30 C31 1_555 1_555
C18F C19F 1_555 1_555
C20F C21F 1_555 1_555
C23A C24A 1_555 1_555
C25A C26A 1_555 1_555
C28A C29A 1_555 1_555
C30A C31A 1_555 1_555
C4A C8A 1_555 1_555
C6A C7A 1_555 1_555
C13A C14A 1_555 1_555

#END
