
#######################################################################
#
#                 Cambridge Crystallographic Data Centre
#                                CCDC 
#
#######################################################################
#
# If this CIF has been generated from an entry in the Cambridge 
# Structural Database, then it will include bibliographic, chemical, 
# crystal, experimental, refinement or atomic coordinate data resulting 
# from the CCDC's data processing and validation procedures.
#
#######################################################################

data_KUCDIW
_symmetry_cell_setting           cubic
_symmetry_space_group_name_H-M   'P 4 3 2'
_symmetry_Int_Tables_number      207
_space_group_name_Hall           'P 4 2 3'
loop_
_symmetry_equiv_pos_site_id
_symmetry_equiv_pos_as_xyz
1 x,y,z
2 -x,-y,z
3 -x,y,-z
4 x,-y,-z
5 z,x,y
6 z,-x,-y
7 -z,-x,y
8 -z,x,-y
9 y,z,x
10 -y,z,-x
11 y,-z,-x
12 -y,-z,x
13 y,x,-z
14 -y,-x,-z
15 y,-x,z
16 -y,x,z
17 x,z,-y
18 -x,z,y
19 -x,-z,-y
20 x,-z,y
21 z,y,-x
22 z,-y,x
23 -z,y,x
24 -z,-y,-x
_cell_length_a                   26.81520(10)
_cell_length_b                   26.81520(10)
_cell_length_c                   26.81520(10)
_cell_angle_alpha                90
_cell_angle_beta                 90
_cell_angle_gamma                90
_cell_volume                     19281.6
loop_
_atom_site_label
_atom_site_type_symbol
_atom_site_fract_x
_atom_site_fract_y
_atom_site_fract_z
Cu1 Cu 0.246725(18) 0.38951(2) 0.10842(2)
B1 B 0.0989(2) 0.40114(19) 0.24908(17)
N1 N 0.13353(14) 0.37414(13) 0.21157(13)
N2 N 0.19411(15) 0.36425(14) 0.15523(14)
C1 C 0.17377(16) 0.39438(16) 0.18869(16)
H1 H 0.1861 0.4268 0.1959
C2 C 0.16586(19) 0.32145(16) 0.15681(18)
C3 C 0.12837(19) 0.32771(18) 0.19056(18)
H2 H 0.1031 0.3041 0.1982
C4 C 0.1787(3) 0.2771(2) 0.1249(3)
H3 H 0.1622 0.2473 0.1383
H4 H 0.2149 0.2720 0.1251
H5 H 0.1673 0.2830 0.0907
N3 N 0.11889(13) 0.45375(13) 0.25879(13)
N4 N 0.12889(15) 0.53578(14) 0.25553(14)
C5 C 0.10088(16) 0.49775(17) 0.24294(15)
H6 H 0.0708 0.5010 0.2244
C6 C 0.16803(18) 0.51529(17) 0.28199(17)
C7 C 0.16221(17) 0.46558(18) 0.28440(18)
H7 H 0.1838 0.4427 0.3007
C8 C 0.2082(3) 0.5472(2) 0.3034(2)
H8 H 0.2331 0.5260 0.3198
H9 H 0.1937 0.5702 0.3279
H10 H 0.2241 0.5663 0.2767
N5 N 0.09758(13) 0.37363(13) 0.29994(13)
N6 N 0.10087(14) 0.31487(14) 0.35821(14)
C9 C 0.10918(16) 0.32598(16) 0.31136(15)
H11 H 0.1221 0.3029 0.2878
C10 C 0.08232(17) 0.35836(17) 0.37921(16)
C11 C 0.08015(17) 0.39385(17) 0.34400(16)
H12 H 0.0687 0.4271 0.3486
C12 C 0.0681(2) 0.3630(2) 0.43332(19)
H13 H 0.0532 0.3958 0.4393
H14 H 0.0980 0.3592 0.4541
H15 H 0.0440 0.3369 0.4418
N7 N 0.04594(13) 0.40230(13) 0.22687(13)
N8 N -0.03609(14) 0.39660(14) 0.22018(14)
C13 C 0.00287(17) 0.39088(15) 0.24921(15)
H16 H 0.0007 0.3797 0.2828
C14 C -0.01741(18) 0.41247(17) 0.17540(17)
C15 C 0.03249(18) 0.41584(18) 0.17886(17)
H17 H 0.0546 0.4257 0.1530
C16 C -0.0509(2) 0.4232(2) 0.1313(2)
H18 H -0.0712 0.3938 0.1239
H19 H -0.0305 0.4315 0.1022
H20 H -0.0728 0.4514 0.1392
Cu1U Cu 0.10842(2) 0.61049(2) 0.246725(18)
Cu1C Cu 0.246725(18) 0.61049(2) -0.10842(2)
Cu1D Cu 0.10842(2) 0.246725(18) 0.38951(2)
Cu1V Cu -0.10842(2) 0.38951(2) 0.246725(18)
Cu1N Cu 0.38951(2) 0.753275(18) 0.10842(2)
B1U B 0.24908(17) 0.59886(19) 0.0989(2)
N1U N 0.21157(13) 0.62586(13) 0.13353(14)
N2U N 0.15523(14) 0.63575(14) 0.19411(15)
C1U C 0.18869(16) 0.60562(16) 0.17377(16)
H1U H 0.1959 0.5732 0.1861
C2U C 0.15681(18) 0.67855(16) 0.16586(19)
C3U C 0.19056(18) 0.67229(18) 0.12837(19)
H2U H 0.1982 0.6959 0.1031
C4U C 0.1249(3) 0.7229(2) 0.1787(3)
H3U H 0.1383 0.7527 0.1622
H4U H 0.1251 0.7280 0.2149
H5U H 0.0907 0.7170 0.1673
N3U N 0.25879(13) 0.54625(13) 0.11889(13)
N4U N 0.25553(14) 0.46422(14) 0.12889(15)
C5U C 0.24294(15) 0.50225(17) 0.10088(16)
H6U H 0.2244 0.4990 0.0708
C6U C 0.28199(17) 0.48471(17) 0.16803(18)
C7U C 0.28440(18) 0.53442(18) 0.16221(17)
H7U H 0.3007 0.5573 0.1838
C8U C 0.3034(2) 0.4528(2) 0.2082(3)
H8U H 0.3198 0.4740 0.2331
H9U H 0.3279 0.4298 0.1937
H10U H 0.2767 0.4337 0.2241
N5U N 0.29994(13) 0.62637(13) 0.09758(13)
N6U N 0.35821(14) 0.68513(14) 0.10087(14)
N6H N 0.31487(14) 0.35821(14) 0.10087(14)
N6S N 0.10087(14) 0.64179(14) 0.31487(14)
C9U C 0.31136(15) 0.67402(16) 0.10918(16)
H11U H 0.2878 0.6971 0.1221
C10U C 0.37921(16) 0.64164(17) 0.08232(17)
C11U C 0.34400(16) 0.60615(17) 0.08015(17)
H12U H 0.3486 0.5729 0.0687
C12U C 0.43332(19) 0.6370(2) 0.0681(2)
H13U H 0.4393 0.6042 0.0532
H14U H 0.4541 0.6408 0.0980
H15U H 0.4418 0.6631 0.0440
N7U N 0.22687(13) 0.59770(13) 0.04594(13)
N8U N 0.22018(14) 0.60340(14) -0.03609(14)
N8T N 0.22018(14) 0.39660(14) 0.03609(14)
N8A N 0.03609(14) 0.60340(14) 0.22018(14)
C13U C 0.24921(15) 0.60912(15) 0.00287(17)
H16U H 0.2828 0.6203 0.0007
C14U C 0.17540(17) 0.58753(17) -0.01741(18)
C15U C 0.17886(17) 0.58416(18) 0.03249(18)
H17U H 0.1530 0.5743 0.0546
C16U C 0.1313(2) 0.5768(2) -0.0509(2)
H18U H 0.1239 0.6062 -0.0712
H19U H 0.1022 0.5685 -0.0305
H20U H 0.1392 0.5486 -0.0728
C17 C 0.2801(3) 0.3097(3) 0.2379(3)
H21 H 0.2834 0.3331 0.2115
C18 C 0.2422(3) 0.3144(3) 0.2708(3)
H22 H 0.2188 0.3408 0.2675
C17D C 0.2379(3) 0.2801(3) 0.3097(3)
C17H C 0.3097(3) 0.2379(3) 0.2801(3)
H21D H 0.2115 0.2834 0.3331
H21H H 0.3331 0.2115 0.2834
C18D C 0.2708(3) 0.2422(3) 0.3144(3)
C18H C 0.3144(3) 0.2708(3) 0.2422(3)
H22H H 0.3408 0.2675 0.2188
H22D H 0.2675 0.2188 0.3408
C19 C 1.0000 0.2568(12) 0.2568(12)
H23 H 1.0000 0.2819 0.2819
C20 C 0.9919(12) 0.2060(10) 0.2616(13)
H24 H 0.9863 0.1949 0.2947
C21 C 0.9907(12) 0.1666(12) 0.2235(9)
H25 H 0.9826 0.1342 0.2356
C22 C 1.0000 0.1697(12) 0.1697(12)
H26 H 1.0000 0.1446 0.1446
C20Q C 1.0081(12) 0.2616(13) 0.2060(10)
H24Q H 1.0137 0.2947 0.1949
C21Q C 1.0093(12) 0.2235(9) 0.1666(12)
H25Q H 1.0174 0.2356 0.1342
loop_
_geom_bond_atom_site_label_1
_geom_bond_atom_site_label_2
_geom_bond_site_symmetry_1
_geom_bond_site_symmetry_2
Cu1 N2 1_555 1_555
B1 N1 1_555 1_555
N1 C1 1_555 1_555
N2 C1 1_555 1_555
C1 H1 1_555 1_555
C2 N2 1_555 1_555
C3 N1 1_555 1_555
H2 C3 1_555 1_555
C4 C2 1_555 1_555
H3 C4 1_555 1_555
H4 C4 1_555 1_555
H5 C4 1_555 1_555
N3 B1 1_555 1_555
N4 C5 1_555 1_555
C5 N3 1_555 1_555
H6 C5 1_555 1_555
C6 N4 1_555 1_555
C7 N3 1_555 1_555
H7 C7 1_555 1_555
C8 C6 1_555 1_555
H8 C8 1_555 1_555
H9 C8 1_555 1_555
H10 C8 1_555 1_555
N5 B1 1_555 1_555
N6 C9 1_555 1_555
C9 N5 1_555 1_555
H11 C9 1_555 1_555
C10 N6 1_555 1_555
C11 N5 1_555 1_555
H12 C11 1_555 1_555
C12 C10 1_555 1_555
H13 C12 1_555 1_555
H14 C12 1_555 1_555
H15 C12 1_555 1_555
N7 B1 1_555 1_555
N8 C13 1_555 1_555
C13 N7 1_555 1_555
H16 C13 1_555 1_555
C14 N8 1_555 1_555
C15 N7 1_555 1_555
H17 C15 1_555 1_555
C16 C14 1_555 1_555
H18 C16 1_555 1_555
H19 C16 1_555 1_555
H20 C16 1_555 1_555
C17 H21 1_555 1_555
C18 C17 1_555 1_555
H22 C18 1_555 1_555
C19 H23 1_555 1_555
C20 C19 1_555 1_555
H24 C20 1_555 1_555
C21 C20 1_555 1_555
H25 C21 1_555 1_555
C22 C21 1_555 1_555
H26 C22 1_555 1_555
Cu1U N4 1_555 1_555
Cu1C N8U 1_555 1_555
Cu1D N6 1_555 1_555
Cu1V N8 1_555 1_555
Cu1N N6U 1_555 1_555
B1U N1U 1_555 1_555
N1U C1U 1_555 1_555
N2U Cu1U 1_555 1_555
C1U N2U 1_555 1_555
H1U C1U 1_555 1_555
C2U N2U 1_555 1_555
C3U N1U 1_555 1_555
H2U C3U 1_555 1_555
C4U C2U 1_555 1_555
H3U C4U 1_555 1_555
H4U C4U 1_555 1_555
H5U C4U 1_555 1_555
N3U B1U 1_555 1_555
N4U Cu1 1_555 1_555
C5U N3U 1_555 1_555
H6U C5U 1_555 1_555
C6U N4U 1_555 1_555
C7U N3U 1_555 1_555
H7U C7U 1_555 1_555
C8U C6U 1_555 1_555
H8U C8U 1_555 1_555
H9U C8U 1_555 1_555
H10U C8U 1_555 1_555
N5U B1U 1_555 1_555
N6U C9U 1_555 1_555
N6H Cu1 1_555 1_555
N6S Cu1U 1_555 1_555
C9U N5U 1_555 1_555
H11U C9U 1_555 1_555
C10U N6U 1_555 1_555
C11U N5U 1_555 1_555
H12U C11U 1_555 1_555
C12U C10U 1_555 1_555
H13U C12U 1_555 1_555
H14U C12U 1_555 1_555
H15U C12U 1_555 1_555
N7U B1U 1_555 1_555
N8U C13U 1_555 1_555
N8T Cu1 1_555 1_555
N8A Cu1U 1_555 1_555
C13U N7U 1_555 1_555
H16U C13U 1_555 1_555
C14U N8U 1_555 1_555
C15U N7U 1_555 1_555
H17U C15U 1_555 1_555
C16U C14U 1_555 1_555
H18U C16U 1_555 1_555
H19U C16U 1_555 1_555
H20U C16U 1_555 1_555
C17D C18 1_555 1_555
C17H H21H 1_555 1_555
H21D C17D 1_555 1_555
C18D C17D 1_555 1_555
C18H C17 1_555 1_555
H22H C18H 1_555 1_555
H22D C18D 1_555 1_555
C20Q C19 1_555 1_555
H24Q C20Q 1_555 1_555
C21Q C22 1_555 1_555
H25Q C21Q 1_555 1_555
C2 C3 1_555 1_555
C6 C7 1_555 1_555
C10 C11 1_555 1_555
C14 C15 1_555 1_555
C2U C3U 1_555 1_555
N4U C5U 1_555 1_555
C6U C7U 1_555 1_555
C10U C11U 1_555 1_555
C14U C15U 1_555 1_555
C17H C18D 1_555 1_555
C17H C18H 1_555 1_555
C20Q C21Q 1_555 1_555

#END
