
#######################################################################
#
#                 Cambridge Crystallographic Data Centre
#                                CCDC 
#
#######################################################################
#
# If this CIF has been generated from an entry in the Cambridge 
# Structural Database, then it will include bibliographic, chemical, 
# crystal, experimental, refinement or atomic coordinate data resulting 
# from the CCDC's data processing and validation procedures.
#
#######################################################################

data_KUCDET
_symmetry_cell_setting           monoclinic
_symmetry_space_group_name_H-M   'P 21/n'
_symmetry_Int_Tables_number      14
_space_group_name_Hall           '-P 2yn'
loop_
_symmetry_equiv_pos_site_id
_symmetry_equiv_pos_as_xyz
1 x,y,z
2 1/2-x,1/2+y,1/2-z
3 -x,-y,-z
4 1/2+x,1/2-y,1/2+z
_cell_length_a                   7.6683(5)
_cell_length_b                   41.941(3)
_cell_length_c                   7.8187(6)
_cell_angle_alpha                90
_cell_angle_beta                 104.516(8)
_cell_angle_gamma                90
_cell_volume                     2434.35
loop_
_atom_site_label
_atom_site_type_symbol
_atom_site_fract_x
_atom_site_fract_y
_atom_site_fract_z
Zn1 Zn -0.00651(5) 0.527447(9) -0.34044(5)
Zn2 Zn 0.49952(5) 0.781510(9) 0.16634(5)
O1 O 0.2095(3) 0.55371(6) -0.3995(3)
O2 O 0.4756(4) 0.53425(8) -0.4023(3)
O3 O 0.8308(3) 0.50570(6) 0.2307(3)
O4 O 0.8472(3) 0.54421(6) 0.4321(3)
O5 O 0.3857(3) 0.62599(6) 0.1299(3)
O6 O 0.4965(3) 0.73908(6) 0.3022(4)
O7 O 0.7648(3) 0.73692(6) 0.4920(3)
O8 O 0.5691(4) 0.69751(8) 0.8724(4)
O9 O 0.8328(3) 0.69850(7) 0.8101(3)
O10 O -0.2277(4) 0.49874(7) -0.3213(3)
O11 O 0.7170(3) 0.79830(6) 0.3648(3)
O12 O 0.6812(5) 0.75414(8) 0.0387(4)
N1 N 0.5114(4) 0.81949(7) -0.0117(4)
N2 N 0.4654(4) 0.94177(7) -0.6460(3)
C1 C 0.3734(5) 0.54800(8) -0.3256(4)
C2 C 0.4475(4) 0.55846(9) -0.1368(4)
C3 C 0.5783(4) 0.54036(8) -0.0199(4)
H1 H 0.6207 0.5215 -0.0574
C4 C 0.6444(4) 0.55094(8) 0.1534(4)
C5 C 0.5863(4) 0.57974(8) 0.2079(4)
H2 H 0.6351 0.5872 0.3219
C6 C 0.4564(4) 0.59716(8) 0.0922(4)
C7 C 0.3861(4) 0.58657(8) -0.0804(4)
H3 H 0.2978 0.5984 -0.1576
C8 C 0.7842(4) 0.53214(8) 0.2817(4)
C9 C 0.4566(5) 0.64115(8) 0.2906(4)
C10 C 0.4537(5) 0.62776(8) 0.4513(5)
H4 H 0.4086 0.6073 0.4573
C11 C 0.5198(5) 0.64560(9) 0.6041(5)
H5 H 0.5183 0.6369 0.7130
C12 C 0.5876(4) 0.67597(8) 0.5976(4)
C13 C 0.5789(4) 0.68988(8) 0.4326(4)
C14 C 0.5129(5) 0.67211(8) 0.2799(4)
H6 H 0.5067 0.6812 0.1700
C15 C 0.6679(5) 0.69261(9) 0.7699(4)
C16 C 0.6199(5) 0.72442(8) 0.4091(4)
C17 C 0.5010(5) 0.81370(9) -0.1828(4)
H7 H 0.5006 0.7926 -0.2192
C18 C 0.4909(5) 0.83702(9) -0.3060(5)
H8 H 0.4841 0.8316 -0.4229
C19 C 0.4908(4) 0.86873(8) -0.2572(4)
C20 C 0.5039(5) 0.87507(9) -0.0785(5)
H9 H 0.5067 0.8960 -0.0383
C21 C 0.5126(5) 0.84993(9) 0.0367(5)
H10 H 0.5196 0.8545 0.1547
C22 C 0.5558(4) 0.94654(9) -0.4758(4)
H11 H 0.6150 0.9658 -0.4450
C23 C 0.5638(4) 0.92403(8) -0.3468(4)
H12 H 0.6253 0.9285 -0.2308
C24 C 0.4800(5) 0.89456(8) -0.3887(4)
C25 C 0.3845(5) 0.89023(9) -0.5648(4)
H13 H 0.3240 0.8712 -0.5998
C26 C 0.3802(5) 0.91401(9) -0.6853(4)
H14 H 0.3143 0.9106 -0.8010
H15 H 0.809(3) 0.8058(8) 0.332(5)
H16 H -0.238(6) 0.4840(8) -0.400(5)
H17 H 0.732(5) 0.7802(6) 0.419(6)
H18 H 0.771(5) 0.7609(12) 0.001(7)
H19 H -0.316(4) 0.5119(9) -0.333(6)
H20 H 0.626(8) 0.7373(11) -0.010(8)
Zn1_2 Zn 0.99349(5) 0.527447(9) 0.65956(5)
Zn1B Zn 1.00651(5) 0.472553(9) 0.34044(5)
Zn1C Zn 0.49349(5) 0.972553(9) -0.84044(5)
Zn2C Zn 0.99952(5) 0.718490(9) 0.66634(5)
O3B O 0.1692(3) 0.49430(6) -0.2307(3)
O4_2 O -0.1528(3) 0.54421(6) -0.5679(3)
O7C O 0.2648(3) 0.76308(6) -0.0080(3)
O9C O 0.3328(3) 0.80150(7) 0.3101(3)
N2C N -0.0346(4) 0.55823(7) -0.1460(3)
loop_
_geom_bond_atom_site_label_1
_geom_bond_atom_site_label_2
_geom_bond_site_symmetry_1
_geom_bond_site_symmetry_2
Zn1 O1 1_555 1_555
Zn2 O6 1_555 1_555
O1 C1 1_555 1_555
O2 C1 1_555 1_555
O3 C8 1_555 1_555
O4 C8 1_555 1_555
O5 C6 1_555 1_555
O6 C16 1_555 1_555
O7 C16 1_555 1_555
O8 C15 1_555 1_555
O9 C15 1_555 1_555
O10 Zn1 1_555 1_555
O11 Zn2 1_555 1_555
O12 Zn2 1_555 1_555
N1 Zn2 1_555 1_555
N2 C22 1_555 1_555
C1 C2 1_555 1_555
C2 C3 1_555 1_555
C3 H1 1_555 1_555
C4 C3 1_555 1_555
C5 C4 1_555 1_555
H2 C5 1_555 1_555
C6 C5 1_555 1_555
C7 C2 1_555 1_555
H3 C7 1_555 1_555
C8 C4 1_555 1_555
C9 O5 1_555 1_555
C10 C9 1_555 1_555
H4 C10 1_555 1_555
C11 C10 1_555 1_555
H5 C11 1_555 1_555
C12 C11 1_555 1_555
C13 C12 1_555 1_555
C14 C9 1_555 1_555
H6 C14 1_555 1_555
C15 C12 1_555 1_555
C16 C13 1_555 1_555
C17 N1 1_555 1_555
H7 C17 1_555 1_555
C18 C17 1_555 1_555
H8 C18 1_555 1_555
C19 C18 1_555 1_555
C20 C19 1_555 1_555
H9 C20 1_555 1_555
C21 N1 1_555 1_555
H10 C21 1_555 1_555
C22 H11 1_555 1_555
C23 C22 1_555 1_555
H12 C23 1_555 1_555
C24 C19 1_555 1_555
C25 C24 1_555 1_555
H13 C25 1_555 1_555
C26 N2 1_555 1_555
H14 C26 1_555 1_555
H15 O11 1_555 1_555
H16 O10 1_555 1_555
H17 O11 1_555 1_555
H18 O12 1_555 1_555
H19 O10 1_555 1_555
H20 O12 1_555 1_555
Zn1_2 O4 1_555 1_555
Zn1B O3 1_555 1_555
Zn1C N2 1_555 1_555
Zn2C O7 1_555 1_555
O3B Zn1 1_555 1_555
O4_2 Zn1 1_555 1_555
O7C Zn2 1_555 1_555
O9C Zn2 1_555 1_555
N2C Zn1 1_555 1_555
O9 Zn2C 1_555 1_555
C6 C7 1_555 1_555
C13 C14 1_555 1_555
C20 C21 1_555 1_555
C23 C24 1_555 1_555
C25 C26 1_555 1_555

#END
