
#######################################################################
#
#                 Cambridge Crystallographic Data Centre
#                                CCDC 
#
#######################################################################
#
# If this CIF has been generated from an entry in the Cambridge 
# Structural Database, then it will include bibliographic, chemical, 
# crystal, experimental, refinement or atomic coordinate data resulting 
# from the CCDC's data processing and validation procedures.
#
#######################################################################

data_KUCDIX
_symmetry_cell_setting           triclinic
_symmetry_space_group_name_H-M   'P -1'
_symmetry_Int_Tables_number      2
_space_group_name_Hall           '-P 1'
loop_
_symmetry_equiv_pos_site_id
_symmetry_equiv_pos_as_xyz
1 x,y,z
2 -x,-y,-z
_cell_length_a                   10.0879(7)
_cell_length_b                   11.3386(8)
_cell_length_c                   28.2595(16)
_cell_angle_alpha                89.390(5)
_cell_angle_beta                 81.837(5)
_cell_angle_gamma                87.109(6)
_cell_volume                     3195.55
loop_
_atom_site_label
_atom_site_type_symbol
_atom_site_fract_x
_atom_site_fract_y
_atom_site_fract_z
C1 C 1.1956(5) 0.0932(4) 0.15144(17)
C2 C 1.0624(4) 0.1070(4) 0.18308(16)
C3 C 0.9450(4) 0.0935(4) 0.16348(17)
H1 H 0.9478 0.0825 0.1308
C4 C 0.8231(4) 0.0965(4) 0.19384(16)
C5 C 0.8178(5) 0.1143(4) 0.24244(17)
H2 H 0.7360 0.1150 0.2624
C6 C 0.9344(5) 0.1309(5) 0.26114(16)
C7 C 1.0575(4) 0.1267(4) 0.23151(17)
H3 H 1.1361 0.1371 0.2443
C8 C 0.6957(4) 0.0791(4) 0.17387(17)
C9 C 0.8324(5) 0.1722(5) 0.34219(17)
C10 C 0.8290(5) 0.1161(5) 0.38608(17)
H4 H 0.8968 0.0609 0.3912
C11 C 0.7241(5) 0.1426(5) 0.42247(17)
C12 C 0.6199(5) 0.2235(5) 0.41427(17)
C13 C 0.6269(6) 0.2798(5) 0.36986(19)
H5 H 0.5593 0.3347 0.3642
C14 C 0.7338(5) 0.2546(5) 0.33387(17)
H6 H 0.7383 0.2933 0.3045
C15 C 0.7325(5) 0.0858(5) 0.47052(18)
C16 C 0.4980(6) 0.2435(5) 0.45035(18)
C17 C 0.6504(5) -0.1333(6) 0.3450(2)
H7 H 0.5603 -0.1104 0.3530
C18 C 0.7026(6) -0.1400(5) 0.29732(19)
H8 H 0.6475 -0.1221 0.2742
C19 C 0.8354(5) -0.1730(5) 0.28359(18)
C20 C 0.9124(5) -0.1943(5) 0.32053(19)
H9 H 1.0038 -0.2136 0.3135
C21 C 0.8515(5) -0.1864(5) 0.36761(19)
H10 H 0.9042 -0.2019 0.3916
C22 C 0.8950(5) -0.1857(4) 0.23274(18)
C23 C 0.8148(6) -0.2027(5) 0.19693(19)
H11 H 0.7237 -0.2132 0.2053
C24 C 0.8699(6) -0.2040(5) 0.1497(2)
H12 H 0.8134 -0.2136 0.1268
C25 C 1.0786(6) -0.1824(5) 0.16877(19)
H13 H 1.1705 -0.1781 0.1596
C26 C 1.0305(5) -0.1784(5) 0.21709(19)
H14 H 1.0897 -0.1707 0.2392
C27 C 1.5592(5) 0.3228(5) 0.10862(19)
H15 H 1.6200 0.2806 0.0865
C28 C 1.5565(6) 0.4437(5) 0.10607(19)
H16 H 1.6123 0.4812 0.0822
C29 C 1.4704(5) 0.5093(4) 0.13917(17)
C30 C 1.3888(5) 0.4478(5) 0.17369(19)
H17 H 1.3299 0.4882 0.1970
C31 C 1.3962(5) 0.3263(5) 0.17296(18)
H18 H 1.3398 0.2866 0.1960
C32 C 1.4720(5) 0.6408(4) 0.13838(17)
C33 C 1.4823(6) 0.7048(5) 0.0963(2)
H19 H 1.4849 0.6658 0.0674
C34 C 1.4889(6) 0.8252(5) 0.09680(19)
H20 H 1.4958 0.8656 0.0678
C35 C 1.4750(5) 0.8259(5) 0.17762(19)
H21 H 1.4719 0.8668 0.2061
C36 C 1.4681(5) 0.7044(5) 0.17988(18)
H22 H 1.4608 0.6659 0.2093
N1 N 1.4800(4) 0.2616(4) 0.14095(14)
N2 N 1.4858(4) 0.8877(4) 0.13716(13)
N3 N 0.7219(4) -0.1578(4) 0.38037(15)
N4 N 1.0013(5) -0.1921(4) 0.13457(16)
Ni1 Ni 1.48654(5) 0.07543(5) 0.13887(2)
Ni2 Ni 0.63086(7) -0.15981(6) 0.45153(2)
O1 O 1.1982(3) 0.0960(4) 0.10742(12)
O2 O 1.2976(3) 0.0794(3) 0.17285(11)
O3 O 0.6978(3) 0.0748(3) 0.12849(11)
O4 O 0.5867(3) 0.0703(3) 0.20136(11)
O5 O 0.9445(3) 0.1431(4) 0.30917(12)
O6 O 0.7481(4) 0.1511(4) 0.50464(14)
O7 O 0.7327(4) -0.0250(4) 0.47403(13)
O8 O 0.4721(4) 0.1616(3) 0.48012(12)
O9 O 0.4292(5) 0.3378(4) 0.45019(16)
O10 O 1.4578(3) 0.0805(3) 0.06804(12)
H23 H 1.5105 0.1296 0.0522
H24 H 1.3757 0.1035 0.0658
O11 O 0.4737(4) -0.0489(4) 0.43524(12)
H25 H 0.4879 0.0194 0.4462
H26 H 0.4048 -0.0847 0.4487
O12 O 0.5139(5) -0.2967(5) 0.43739(16)
H27 H 0.4441 -0.2685 0.4268
H28 H 0.5585 -0.3422 0.4166
O13 O 0.7764(5) -0.2785(4) 0.47381(18)
H29 H 0.7547 -0.3578 0.4674
H30 H 0.7767 -0.2693 0.5075
N2_2 N 1.4858(4) -0.1123(4) 0.13716(13)
Ni1_2 Ni 0.48654(5) 0.07543(5) 0.13887(2)
Ni1_3 Ni 1.48654(5) 1.07543(5) 0.13887(2)
Ni2A Ni 0.36914(7) 0.15981(6) 0.54847(2)
O3_2 O 1.6978(3) 0.0748(3) 0.12849(11)
O4_2 O 1.5867(3) 0.0703(3) 0.20136(11)
O8A O 0.5279(4) -0.1616(3) 0.51988(12)
C37 C 1.0690(7) 0.2435(6) 0.0225(2)
C38 C 1.0471(6) 0.3481(5) 0.0566(2)
C39 C 1.1209(7) 0.4519(6) 0.0529(2)
C40 C 1.0916(7) 0.5341(6) 0.0888(2)
H31 H 1.1377 0.6034 0.0864
C41 C 0.9966(6) 0.5179(5) 0.1284(2)
H32 H 0.9805 0.5745 0.1524
C42 C 0.9262(5) 0.4165(5) 0.13164(17)
C43 C 0.9498(5) 0.3344(5) 0.09553(18)
H33 H 0.8988 0.2680 0.0974
C44 C 0.8268(5) 0.4447(4) 0.21347(17)
C45 C 0.9429(5) 0.4562(4) 0.23361(18)
H34 H 1.0259 0.4331 0.2167
C46 C 0.9345(4) 0.5021(4) 0.27912(17)
C47 C 0.8101(4) 0.5362(4) 0.30451(17)
H35 H 0.8045 0.5676 0.3350
C48 C 0.6941(4) 0.5231(4) 0.28391(17)
C49 C 0.7030(5) 0.4776(4) 0.23818(17)
H36 H 0.6258 0.4694 0.2243
C50 C 1.0593(4) 0.5172(4) 0.30136(18)
C51 C 0.5613(5) 0.5542(4) 0.31413(17)
C52 C 1.2291(9) 0.4904(7) 0.0142(3)
C53 C 0.3515(5) 0.2744(5) 0.30359(18)
H37 H 0.4064 0.3123 0.2795
C54 C 0.3518(5) 0.1535(5) 0.30277(18)
H38 H 0.4060 0.1113 0.2787
C55 C 0.2687(5) 0.0934(4) 0.33900(17)
C56 C 0.1955(5) 0.1625(5) 0.37402(19)
H39 H 0.1424 0.1271 0.3993
C57 C 0.2000(5) 0.2835(5) 0.3721(2)
H40 H 0.1479 0.3274 0.3962
C58 C 0.2630(5) -0.0377(4) 0.33883(17)
C59 C 0.2979(5) -0.1023(5) 0.29736(19)
H41 H 0.3243 -0.0641 0.2685
C60 C 0.2934(5) -0.2236(5) 0.29887(19)
H42 H 0.3162 -0.2646 0.2703
C61 C 0.2207(5) -0.2227(5) 0.37831(18)
H43 H 0.1923 -0.2630 0.4065
C62 C 0.2215(5) -0.1014(5) 0.37997(18)
H44 H 0.1940 -0.0621 0.4087
N5 N 0.2587(4) -0.2861(3) 0.33848(13)
N6 N 0.2758(4) 0.3414(4) 0.33733(14)
Ni3 Ni 1.0000 0.0000 0.0000
Ni4 Ni 0.26981(6) 0.52738(5) 0.33575(2)
O14 O 1.1203(12) 0.2569(8) -0.0218(3)
O15 O 0.9938(4) 0.1621(3) 0.03066(13)
O16 O 1.2754(6) 0.5849(5) 0.0145(2)
O17 O 0.8266(3) 0.3932(3) 0.16884(12)
O18 O 1.1706(3) 0.5233(3) 0.27440(12)
O19 O 1.0541(3) 0.5248(3) 0.34595(12)
O20 O 0.4558(3) 0.5250(3) 0.29748(12)
O21 O 0.5612(4) 0.6020(4) 0.35292(15)
O22 O 1.1120(4) -0.0684(3) 0.05120(12)
H45 H 1.0941 -0.0276 0.0766
H46 H 1.0923 -0.1395 0.0573
O23 O 0.8205(4) -0.0266(4) 0.04271(13)
H47 H 0.8170 0.0086 0.0701
H48 H 0.8114 -0.1016 0.0481
O24 O 0.3068(4) 0.5198(3) 0.40578(13)
H49 H 0.3384 0.5668 0.4211
H50 H 0.3479 0.4610 0.4156
O25 O 1.2338(12) 0.4350(9) -0.0293(4)
C37A C 0.9310(7) -0.2435(6) -0.0225(2)
C38A C 0.9529(6) -0.3481(5) -0.0566(2)
C39A C 0.8791(7) -0.4519(6) -0.0529(2)
C40A C 0.9084(7) -0.5341(6) -0.0888(2)
H31A H 0.8623 -0.6034 -0.0864
C41A C 1.0034(6) -0.5179(5) -0.1284(2)
H32A H 1.0195 -0.5745 -0.1524
C42A C 1.0738(5) -0.4165(5) -0.13164(17)
C43A C 1.0502(5) -0.3344(5) -0.09553(18)
H33A H 1.1012 -0.2680 -0.0974
C44A C 1.1732(5) -0.4447(4) -0.21347(17)
C45A C 1.0571(5) -0.4562(4) -0.23361(18)
H34A H 0.9741 -0.4331 -0.2167
C46A C 1.0655(4) -0.5021(4) -0.27912(17)
C47A C 1.1899(4) -0.5362(4) -0.30451(17)
H35A H 1.1955 -0.5676 -0.3350
C48A C 1.3059(4) -0.5231(4) -0.28391(17)
C49A C 1.2970(5) -0.4776(4) -0.23818(17)
H36A H 1.3742 -0.4694 -0.2243
C50A C 0.9407(4) -0.5172(4) -0.30136(18)
C51A C 1.4387(5) -0.5542(4) -0.31413(17)
C52A C 0.7709(9) -0.4904(7) -0.0142(3)
C53A C 1.6485(5) -0.2744(5) -0.30359(18)
H37A H 1.5936 -0.3123 -0.2795
C54A C 1.6482(5) -0.1535(5) -0.30277(18)
H38A H 1.5940 -0.1113 -0.2787
C55A C 1.7313(5) -0.0934(4) -0.33900(17)
C56A C 1.8045(5) -0.1625(5) -0.37402(19)
H39A H 1.8576 -0.1271 -0.3993
C57A C 1.8000(5) -0.2835(5) -0.3721(2)
H40A H 1.8521 -0.3274 -0.3962
C58A C 1.7370(5) 0.0377(4) -0.33883(17)
C59A C 1.7021(5) 0.1023(5) -0.29736(19)
H41A H 1.6757 0.0641 -0.2685
C60A C 1.7066(5) 0.2236(5) -0.29887(19)
H42A H 1.6838 0.2646 -0.2703
C61A C 1.7793(5) 0.2227(5) -0.37831(18)
H43A H 1.8077 0.2630 -0.4065
C62A C 1.7785(5) 0.1014(5) -0.37997(18)
H44A H 1.8060 0.0621 -0.4087
N5A N 1.7413(4) 0.2861(3) -0.33848(13)
N6A N 1.7242(4) -0.3414(4) -0.33733(14)
Ni4A Ni 1.73019(6) -0.52738(5) -0.33575(2)
O14A O 0.8797(12) -0.2569(8) 0.0218(3)
O15A O 1.0062(4) -0.1621(3) -0.03066(13)
O16A O 0.7246(6) -0.5849(5) -0.0145(2)
O17A O 1.1734(3) -0.3932(3) -0.16884(12)
O18A O 0.8294(3) -0.5233(3) -0.27440(12)
O19A O 0.9459(3) -0.5248(3) -0.34595(12)
O20A O 1.5442(3) -0.5250(3) -0.29748(12)
O21A O 1.4388(4) -0.6020(4) -0.35292(15)
O22A O 0.8880(4) 0.0684(3) -0.05120(12)
H45A H 0.9059 0.0276 -0.0766
H46A H 0.9077 0.1395 -0.0573
O23A O 1.1795(4) 0.0266(4) -0.04271(13)
H47A H 1.1830 -0.0086 -0.0701
H48A H 1.1886 0.1016 -0.0481
O24A O 1.6932(4) -0.5198(3) -0.40578(13)
H49A H 1.6616 -0.5668 -0.4211
H50A H 1.6521 -0.4610 -0.4156
O25A O 0.7662(12) -0.4350(9) 0.0293(4)
N5_2 N 0.2587(4) 0.7139(3) 0.33848(13)
N5A_2 N 1.7413(4) -0.7139(3) -0.33848(13)
Ni4_2 Ni 0.26981(6) -0.47262(5) 0.33575(2)
Ni4_3 Ni 1.26981(6) 0.52738(5) 0.33575(2)
Ni4A_2 Ni 0.73019(6) -0.52738(5) -0.33575(2)
Ni4A_3 Ni 1.73019(6) 0.47262(5) -0.33575(2)
O18_2 O 0.1706(3) 0.5233(3) 0.27440(12)
O18A_2 O 1.8294(3) -0.5233(3) -0.27440(12)
O19_2 O 0.0541(3) 0.5248(3) 0.34595(12)
O19A_2 O 1.9459(3) -0.5248(3) -0.34595(12)
O26 O 0.6410(4) 0.1870(4) 0.00315(14)
H51 H 0.7090 0.1395 0.0051
H52 H 0.6552 0.2596 -0.0042
O27? O 1.3180(12) 0.4015(10) -0.0080(4)
O28? O 1.2013(11) 0.2221(9) 0.0018(4)
loop_
_geom_bond_atom_site_label_1
_geom_bond_atom_site_label_2
_geom_bond_site_symmetry_1
_geom_bond_site_symmetry_2
C1 C2 1_555 1_555
C2 C3 1_555 1_555
C3 H1 1_555 1_555
C4 C3 1_555 1_555
C5 C4 1_555 1_555
H2 C5 1_555 1_555
C6 C5 1_555 1_555
C7 C2 1_555 1_555
H3 C7 1_555 1_555
C8 C4 1_555 1_555
C9 C10 1_555 1_555
C10 H4 1_555 1_555
C11 C10 1_555 1_555
C12 C11 1_555 1_555
C13 C12 1_555 1_555
H5 C13 1_555 1_555
C14 C9 1_555 1_555
H6 C14 1_555 1_555
C15 C11 1_555 1_555
C16 C12 1_555 1_555
C17 H7 1_555 1_555
C18 C17 1_555 1_555
H8 C18 1_555 1_555
C19 C18 1_555 1_555
C20 C19 1_555 1_555
H9 C20 1_555 1_555
C21 C20 1_555 1_555
H10 C21 1_555 1_555
C22 C19 1_555 1_555
C23 C22 1_555 1_555
H11 C23 1_555 1_555
C24 C23 1_555 1_555
H12 C24 1_555 1_555
C25 H13 1_555 1_555
C26 C22 1_555 1_555
H14 C26 1_555 1_555
C27 H15 1_555 1_555
C28 C27 1_555 1_555
H16 C28 1_555 1_555
C29 C28 1_555 1_555
C30 C29 1_555 1_555
H17 C30 1_555 1_555
C31 C30 1_555 1_555
H18 C31 1_555 1_555
C32 C29 1_555 1_555
C33 C32 1_555 1_555
H19 C33 1_555 1_555
C34 C33 1_555 1_555
H20 C34 1_555 1_555
C35 H21 1_555 1_555
C36 C32 1_555 1_555
H22 C36 1_555 1_555
N1 C27 1_555 1_555
N2 C34 1_555 1_555
N3 C17 1_555 1_555
N4 C24 1_555 1_555
Ni1 N1 1_555 1_555
Ni2 N3 1_555 1_555
O1 C1 1_555 1_555
O2 C1 1_555 1_555
O3 C8 1_555 1_555
O4 C8 1_555 1_555
O5 C6 1_555 1_555
O6 C15 1_555 1_555
O7 C15 1_555 1_555
O8 C16 1_555 1_555
O9 C16 1_555 1_555
O10 Ni1 1_555 1_555
H23 O10 1_555 1_555
H24 O10 1_555 1_555
O11 Ni2 1_555 1_555
H25 O11 1_555 1_555
H26 O11 1_555 1_555
O12 Ni2 1_555 1_555
H27 O12 1_555 1_555
H28 O12 1_555 1_555
O13 Ni2 1_555 1_555
H29 O13 1_555 1_555
H30 O13 1_555 1_555
C37 C38 1_555 1_555
C38 C39 1_555 1_555
C39 C40 1_555 1_555
C40 H31 1_555 1_555
C41 C40 1_555 1_555
H32 C41 1_555 1_555
C42 C41 1_555 1_555
C43 C38 1_555 1_555
H33 C43 1_555 1_555
C44 C45 1_555 1_555
C45 H34 1_555 1_555
C46 C45 1_555 1_555
C47 C46 1_555 1_555
H35 C47 1_555 1_555
C48 C47 1_555 1_555
C49 C44 1_555 1_555
H36 C49 1_555 1_555
C50 C46 1_555 1_555
C51 C48 1_555 1_555
C52 C39 1_555 1_555
C53 H37 1_555 1_555
C54 C53 1_555 1_555
H38 C54 1_555 1_555
C55 C54 1_555 1_555
C56 C55 1_555 1_555
H39 C56 1_555 1_555
C57 C56 1_555 1_555
H40 C57 1_555 1_555
C58 C55 1_555 1_555
C59 C58 1_555 1_555
H41 C59 1_555 1_555
C60 C59 1_555 1_555
H42 C60 1_555 1_555
C61 H43 1_555 1_555
C62 C58 1_555 1_555
H44 C62 1_555 1_555
N5 C60 1_555 1_555
N6 C53 1_555 1_555
Ni3 O15 1_555 1_555
Ni4 N6 1_555 1_555
O14 C37 1_555 1_555
O15 C37 1_555 1_555
O16 C52 1_555 1_555
O17 C42 1_555 1_555
O18 C50 1_555 1_555
O19 C50 1_555 1_555
O20 C51 1_555 1_555
O21 C51 1_555 1_555
O22 Ni3 1_555 1_555
H45 O22 1_555 1_555
H46 O22 1_555 1_555
O23 Ni3 1_555 1_555
H47 O23 1_555 1_555
H48 O23 1_555 1_555
O24 Ni4 1_555 1_555
H49 O24 1_555 1_555
H50 O24 1_555 1_555
O25 C52 1_555 1_555
O26 H51 1_555 1_555
H52 O26 1_555 1_555
N2_2 Ni1 1_555 1_555
Ni1_2 O3 1_555 1_555
Ni1_3 N2 1_555 1_555
Ni2A O8 1_555 1_555
O3_2 Ni1 1_555 1_555
O4_2 Ni1 1_555 1_555
O8A Ni2 1_555 1_555
C37A C38A 1_555 1_555
C38A C39A 1_555 1_555
C39A C40A 1_555 1_555
C40A H31A 1_555 1_555
C41A C40A 1_555 1_555
H32A C41A 1_555 1_555
C42A C41A 1_555 1_555
C43A C38A 1_555 1_555
H33A C43A 1_555 1_555
C44A C45A 1_555 1_555
C45A H34A 1_555 1_555
C46A C45A 1_555 1_555
C47A C46A 1_555 1_555
H35A C47A 1_555 1_555
C48A C47A 1_555 1_555
C49A C44A 1_555 1_555
H36A C49A 1_555 1_555
C50A C46A 1_555 1_555
C51A C48A 1_555 1_555
C52A C39A 1_555 1_555
C53A H37A 1_555 1_555
C54A C53A 1_555 1_555
H38A C54A 1_555 1_555
C55A C54A 1_555 1_555
C56A C55A 1_555 1_555
H39A C56A 1_555 1_555
C57A C56A 1_555 1_555
H40A C57A 1_555 1_555
C58A C55A 1_555 1_555
C59A C58A 1_555 1_555
H41A C59A 1_555 1_555
C60A C59A 1_555 1_555
H42A C60A 1_555 1_555
C61A H43A 1_555 1_555
C62A C58A 1_555 1_555
H44A C62A 1_555 1_555
N5A C60A 1_555 1_555
N6A C53A 1_555 1_555
Ni4A N6A 1_555 1_555
O14A C37A 1_555 1_555
O15A Ni3 1_555 1_555
O16A C52A 1_555 1_555
O17A C42A 1_555 1_555
O18A C50A 1_555 1_555
O19A C50A 1_555 1_555
O20A C51A 1_555 1_555
O21A C51A 1_555 1_555
O22A Ni3 1_555 1_555
H45A O22A 1_555 1_555
H46A O22A 1_555 1_555
O23A Ni3 1_555 1_555
H47A O23A 1_555 1_555
H48A O23A 1_555 1_555
O24A Ni4A 1_555 1_555
H49A O24A 1_555 1_555
H50A O24A 1_555 1_555
O25A C52A 1_555 1_555
N5_2 Ni4 1_555 1_555
N5A_2 Ni4A 1_555 1_555
Ni4_2 N5 1_555 1_555
Ni4_3 O18 1_555 1_555
Ni4A_2 O18A 1_555 1_555
Ni4A_3 N5A 1_555 1_555
O18_2 Ni4 1_555 1_555
O18A_2 Ni4A 1_555 1_555
O19_2 Ni4 1_555 1_555
O19A_2 Ni4A 1_555 1_555
C6 C7 1_555 1_555
C9 O5 1_555 1_555
C13 C14 1_555 1_555
C21 N3 1_555 1_555
C25 C26 1_555 1_555
C25 N4 1_555 1_555
C31 N1 1_555 1_555
C35 C36 1_555 1_555
C35 N2 1_555 1_555
Ni1 O2 1_555 1_555
Ni2 O7 1_555 1_555
O4 Ni1_2 1_555 1_555
C42 C43 1_555 1_555
C44 O17 1_555 1_555
C48 C49 1_555 1_555
C57 N6 1_555 1_555
C61 C62 1_555 1_555
C61 N5 1_555 1_555
Ni4 O20 1_555 1_555
O19 Ni4_3 1_555 1_555
C37A O15A 1_555 1_555
C42A C43A 1_555 1_555
C44A O17A 1_555 1_555
C48A C49A 1_555 1_555
C57A N6A 1_555 1_555
C61A C62A 1_555 1_555
C61A N5A 1_555 1_555
Ni4A O20A 1_555 1_555
O19A Ni4A_2 1_555 1_555

#END
