
#######################################################################
#
#                 Cambridge Crystallographic Data Centre
#                                CCDC 
#
#######################################################################
#
# If this CIF has been generated from an entry in the Cambridge 
# Structural Database, then it will include bibliographic, chemical, 
# crystal, experimental, refinement or atomic coordinate data resulting 
# from the CCDC's data processing and validation procedures.
#
#######################################################################

data_KUCFAQ
_symmetry_cell_setting           triclinic
_symmetry_space_group_name_H-M   'P -1'
_symmetry_Int_Tables_number      2
_space_group_name_Hall           '-P 1'
loop_
_symmetry_equiv_pos_site_id
_symmetry_equiv_pos_as_xyz
1 x,y,z
2 -x,-y,-z
_cell_length_a                   10.5980(4)
_cell_length_b                   10.6009(5)
_cell_length_c                   21.6596(9)
_cell_angle_alpha                93.650(3)
_cell_angle_beta                 100.360(3)
_cell_angle_gamma                90.017(3)
_cell_volume                     2388.72
loop_
_atom_site_label
_atom_site_type_symbol
_atom_site_fract_x
_atom_site_fract_y
_atom_site_fract_z
B1 B 1.0325(18) -0.0873(19) 0.2515(11)
B2 B 0.5344(17) 0.4080(19) 0.2506(10)
Li1 Li 1.037(3) 0.410(2) 0.2499(14)
Li2 Li 0.530(2) -0.095(2) 0.2508(13)
N1 N 0.8939(13) -0.0971(12) 0.2085(7)
N2 N 0.6781(13) -0.0900(13) 0.1995(8)
C1 C 0.7900(17) -0.0565(17) 0.2319(10)
H1 H 0.7980 -0.0068 0.2694
C2 C 0.7118(16) -0.1667(16) 0.1507(9)
C3 C 0.6317(19) -0.2308(19) 0.1017(11)
H2 H 0.5430 -0.2241 0.0972
C4 C 0.689(2) -0.3075(17) 0.0583(10)
H3 H 0.6371 -0.3555 0.0260
C5 C 0.819(2) -0.3107(18) 0.0640(11)
H4 H 0.8545 -0.3598 0.0346
C6 C 0.8980(19) -0.2434(17) 0.1118(10)
H5 H 0.9867 -0.2475 0.1153
C7 C 0.8415(19) -0.1672(17) 0.1558(10)
N3 N 1.0474(12) -0.2062(12) 0.2926(7)
N4 N 1.0416(13) -0.4216(13) 0.2990(8)
C8 C 0.9984(16) -0.3249(18) 0.2681(10)
H6 H 0.9377 -0.3343 0.2313
C9 C 1.1316(17) -0.3627(18) 0.3508(10)
C10 C 1.2059(19) -0.420(2) 0.3978(12)
H7 H 1.2003 -0.5069 0.4012
C11 C 1.2946(18) -0.342(2) 0.4428(10)
H8 H 1.3497 -0.3772 0.4753
C12 C 1.295(2) -0.2118(19) 0.4360(11)
H9 H 1.3526 -0.1609 0.4645
C13 C 1.2168(19) -0.158(2) 0.3899(11)
H10 H 1.2165 -0.0702 0.3877
C14 C 1.1355(15) -0.2349(18) 0.3454(9)
N5 N 1.1379(13) -0.0962(13) 0.2090(8)
N6 N 1.3533(14) -0.1065(14) 0.1995(8)
C15 C 1.2621(16) -0.1395(15) 0.2314(10)
H11 H 1.2800 -0.1880 0.2662
C16 C 1.1530(16) -0.0338(15) 0.1553(9)
C17 C 1.067(2) 0.0270(18) 0.1106(10)
H12 H 0.9799 0.0302 0.1126
C18 C 1.1134(19) 0.0815(19) 0.0638(11)
H13 H 1.0588 0.1264 0.0348
C19 C 1.243(2) 0.0702(17) 0.0593(10)
H14 H 1.2722 0.1072 0.0266
C20 C 1.330(2) 0.0055(18) 0.1018(11)
H15 H 1.4161 -0.0016 0.0979
C21 C 1.2834(17) -0.0478(16) 0.1505(10)
N7 N 1.0480(12) 0.0351(13) 0.2916(7)
N8 N 1.0605(13) 0.2550(13) 0.2998(7)
C22 C 1.0808(16) 0.1502(19) 0.2691(10)
H16 H 1.1163 0.1509 0.2329
C23 C 1.0089(16) 0.2088(17) 0.3490(9)
C24 C 0.9656(17) 0.276(2) 0.3975(11)
H17 H 0.9705 0.3637 0.4001
C25 C 0.9147(19) 0.216(2) 0.4426(10)
H18 H 0.8887 0.2615 0.4761
C26 C 0.9036(19) 0.082(2) 0.4364(12)
H19 H 0.8664 0.0397 0.4650
C27 C 0.9484(18) 0.013(2) 0.3871(11)
H20 H 0.9430 -0.0747 0.3837
C28 C 1.0009(16) 0.0781(16) 0.3436(10)
N9 N 0.8529(14) 0.4119(14) 0.1996(8)
N10 N 0.6391(13) 0.4022(12) 0.2090(7)
C29 C 0.7638(17) 0.4488(15) 0.2311(9)
H21 H 0.7825 0.5039 0.2668
C30 C 0.7870(17) 0.3356(16) 0.1518(10)
C31 C 0.8293(19) 0.2702(18) 0.1022(10)
H22 H 0.9151 0.2756 0.0984
C32 C 0.744(2) 0.1959(19) 0.0579(10)
H23 H 0.7720 0.1534 0.0242
C33 C 0.622(2) 0.186(2) 0.0642(11)
H24 H 0.5673 0.1329 0.0355
C34 C 0.5713(18) 0.2514(17) 0.1108(11)
H25 H 0.4849 0.2433 0.1132
C35 C 0.6545(16) 0.3315(16) 0.1554(10)
N11 N 0.1772(12) 0.3938(13) 0.1997(8)
N12 N 0.3924(13) 0.4040(12) 0.2082(7)
C36 C 0.2898(19) 0.3665(16) 0.2318(10)
H26 H 0.2985 0.3239 0.2686
C37 C 0.3423(17) 0.4654(15) 0.1531(10)
C38 C 0.396(2) 0.5216(17) 0.1098(11)
H27 H 0.4847 0.5214 0.1121
C39 C 0.320(2) 0.578(2) 0.0631(11)
H28 H 0.3553 0.6207 0.0341
C40 C 0.187(2) 0.5723(16) 0.0586(10)
H29 H 0.1348 0.6094 0.0256
C41 C 0.131(2) 0.512(2) 0.1024(12)
H30 H 0.0425 0.5103 0.1000
C42 C 0.2124(16) 0.4558(16) 0.1496(9)
N13 N 0.5474(12) 0.2902(13) 0.2924(8)
N14 N 0.5584(14) 0.0775(13) 0.2998(8)
C43 C 0.5834(16) 0.1756(19) 0.2690(10)
H31 H 0.6227 0.1673 0.2339
C44 C 0.5097(16) 0.1366(18) 0.3506(9)
C45 C 0.4694(18) 0.077(2) 0.3991(11)
H32 H 0.4765 -0.0096 0.4024
C46 C 0.4169(18) 0.156(2) 0.4432(10)
H33 H 0.3880 0.1203 0.4762
C47 C 0.4075(18) 0.289(2) 0.4377(11)
H34 H 0.3720 0.3388 0.4668
C48 C 0.4507(17) 0.3419(19) 0.3897(11)
H35 H 0.4465 0.4290 0.3867
C49 C 0.5009(16) 0.2667(16) 0.3454(9)
N15 N 0.5492(12) 0.5350(13) 0.2917(7)
N16 N 0.5401(14) 0.7505(13) 0.2991(8)
C50 C 0.4992(17) 0.6480(17) 0.2679(10)
H36 H 0.4388 0.6482 0.2310
C51 C 0.6342(16) 0.5779(17) 0.3448(9)
C52 C 0.7197(17) 0.5138(18) 0.3894(11)
H37 H 0.7227 0.4260 0.3860
C53 C 0.797(2) 0.579(2) 0.4366(11)
H38 H 0.8531 0.5360 0.4660
C54 C 0.7921(18) 0.711(2) 0.4415(10)
H39 H 0.8452 0.7547 0.4748
C55 C 0.7095(17) 0.780(2) 0.3975(10)
H40 H 0.7079 0.8681 0.3998
C56 C 0.6301(17) 0.706(2) 0.3502(10)
Li1_2 Li 0.037(3) 0.410(2) 0.2499(14)
Li1_3 Li 1.037(3) -0.590(2) 0.2499(14)
Li2_2 Li 0.530(2) 0.905(2) 0.2508(13)
Li2_3 Li 1.530(2) -0.095(2) 0.2508(13)
N4_2 N 1.0416(13) 0.5784(13) 0.2990(8)
N6_2 N 0.3533(14) -0.1065(14) 0.1995(8)
N11_2 N 1.1772(12) 0.3938(13) 0.1997(8)
N16_2 N 0.5401(14) -0.2495(13) 0.2991(8)
loop_
_geom_bond_atom_site_label_1
_geom_bond_atom_site_label_2
_geom_bond_site_symmetry_1
_geom_bond_site_symmetry_2
B1 N1 1_555 1_555
B2 N10 1_555 1_555
Li1 N8 1_555 1_555
Li2 N2 1_555 1_555
N1 C1 1_555 1_555
N2 C1 1_555 1_555
C1 H1 1_555 1_555
C2 N2 1_555 1_555
C3 C2 1_555 1_555
H2 C3 1_555 1_555
C4 C3 1_555 1_555
H3 C4 1_555 1_555
C5 C4 1_555 1_555
H4 C5 1_555 1_555
C6 C5 1_555 1_555
H5 C6 1_555 1_555
C7 N1 1_555 1_555
N3 B1 1_555 1_555
N4 C8 1_555 1_555
C8 N3 1_555 1_555
H6 C8 1_555 1_555
C9 N4 1_555 1_555
C10 C9 1_555 1_555
H7 C10 1_555 1_555
C11 C10 1_555 1_555
H8 C11 1_555 1_555
C12 C11 1_555 1_555
H9 C12 1_555 1_555
C13 C12 1_555 1_555
H10 C13 1_555 1_555
C14 N3 1_555 1_555
N5 B1 1_555 1_555
N6 C15 1_555 1_555
C15 N5 1_555 1_555
H11 C15 1_555 1_555
C16 N5 1_555 1_555
C17 C16 1_555 1_555
H12 C17 1_555 1_555
C18 C17 1_555 1_555
H13 C18 1_555 1_555
C19 C18 1_555 1_555
H14 C19 1_555 1_555
C20 C19 1_555 1_555
H15 C20 1_555 1_555
C21 N6 1_555 1_555
N7 B1 1_555 1_555
N8 C22 1_555 1_555
C22 N7 1_555 1_555
H16 C22 1_555 1_555
C23 N8 1_555 1_555
C24 C23 1_555 1_555
H17 C24 1_555 1_555
C25 C24 1_555 1_555
H18 C25 1_555 1_555
C26 C25 1_555 1_555
H19 C26 1_555 1_555
C27 C26 1_555 1_555
H20 C27 1_555 1_555
C28 N7 1_555 1_555
N9 Li1 1_555 1_555
N10 C29 1_555 1_555
C29 N9 1_555 1_555
H21 C29 1_555 1_555
C30 N9 1_555 1_555
C31 C30 1_555 1_555
H22 C31 1_555 1_555
C32 C31 1_555 1_555
H23 C32 1_555 1_555
C33 C32 1_555 1_555
H24 C33 1_555 1_555
C34 C33 1_555 1_555
H25 C34 1_555 1_555
C35 N10 1_555 1_555
N11 C36 1_555 1_555
N12 B2 1_555 1_555
C36 N12 1_555 1_555
H26 C36 1_555 1_555
C37 N12 1_555 1_555
C38 C37 1_555 1_555
H27 C38 1_555 1_555
C39 C38 1_555 1_555
H28 C39 1_555 1_555
C40 C39 1_555 1_555
H29 C40 1_555 1_555
C41 C40 1_555 1_555
H30 C41 1_555 1_555
C42 N11 1_555 1_555
N13 B2 1_555 1_555
N14 Li2 1_555 1_555
C43 N13 1_555 1_555
H31 C43 1_555 1_555
C44 N14 1_555 1_555
C45 C44 1_555 1_555
H32 C45 1_555 1_555
C46 C45 1_555 1_555
H33 C46 1_555 1_555
C47 C46 1_555 1_555
H34 C47 1_555 1_555
C48 C47 1_555 1_555
H35 C48 1_555 1_555
C49 N13 1_555 1_555
N15 B2 1_555 1_555
N16 C50 1_555 1_555
C50 N15 1_555 1_555
H36 C50 1_555 1_555
C51 N15 1_555 1_555
C52 C51 1_555 1_555
H37 C52 1_555 1_555
C53 C52 1_555 1_555
H38 C53 1_555 1_555
C54 C53 1_555 1_555
H39 C54 1_555 1_555
C55 C54 1_555 1_555
H40 C55 1_555 1_555
C56 N16 1_555 1_555
Li1_2 N11 1_555 1_555
Li1_3 N4 1_555 1_555
Li2_2 N16 1_555 1_555
Li2_3 N6 1_555 1_555
N4_2 Li1 1_555 1_555
N6_2 Li2 1_555 1_555
N11_2 Li1 1_555 1_555
N16_2 Li2 1_555 1_555
C2 C7 1_555 1_555
C6 C7 1_555 1_555
C9 C14 1_555 1_555
C13 C14 1_555 1_555
C16 C21 1_555 1_555
C20 C21 1_555 1_555
C23 C28 1_555 1_555
C27 C28 1_555 1_555
C30 C35 1_555 1_555
C34 C35 1_555 1_555
C37 C42 1_555 1_555
C41 C42 1_555 1_555
N14 C43 1_555 1_555
C44 C49 1_555 1_555
C48 C49 1_555 1_555
C51 C56 1_555 1_555
C55 C56 1_555 1_555

#END
