
#######################################################################
#
#                 Cambridge Crystallographic Data Centre
#                                CCDC 
#
#######################################################################
#
# If this CIF has been generated from an entry in the Cambridge 
# Structural Database, then it will include bibliographic, chemical, 
# crystal, experimental, refinement or atomic coordinate data resulting 
# from the CCDC's data processing and validation procedures.
#
#######################################################################

data_KUCFOF
_symmetry_cell_setting           triclinic
_symmetry_space_group_name_H-M   'P -1'
_symmetry_Int_Tables_number      2
_space_group_name_Hall           '-P 1'
loop_
_symmetry_equiv_pos_site_id
_symmetry_equiv_pos_as_xyz
1 x,y,z
2 -x,-y,-z
_cell_length_a                   9.8369(3)
_cell_length_b                   10.0968(3)
_cell_length_c                   14.2023(4)
_cell_angle_alpha                73.651(2)
_cell_angle_beta                 72.866(2)
_cell_angle_gamma                70.638(2)
_cell_volume                     1245.03
loop_
_atom_site_label
_atom_site_type_symbol
_atom_site_fract_x
_atom_site_fract_y
_atom_site_fract_z
Mg1 Mg 0.20659(8) 0.43345(7) 1.00657(5)
Mg2 Mg 0.5000 0.5000 1.0000
Mg3 Mg 0.53438(8) 0.15464(7) 0.98751(5)
O1 O 0.5196(2) 0.62190(19) 0.85952(12)
O2 O 0.5399(2) 0.83388(19) 0.86284(12)
O3 O 1.0762(2) 0.4144(2) 0.14515(12)
O4 O 0.8570(2) 0.4450(2) 0.11654(12)
O5 O 0.73548(18) 0.18008(17) 0.98039(14)
O6 O 0.73102(17) 0.40490(17) 0.96720(12)
O7 O 0.36458(17) 0.06855(16) 0.99186(12)
O8 O 0.16717(19) 0.25801(18) 0.99087(16)
O9 O 0.57220(16) 0.63417(16) 1.04787(12)
H1 H 0.562(3) 0.604(3) 1.106(2)
N1 N 0.9094(4) 0.8806(5) 0.1800(2)
N2 N 0.6078(2) 0.1701(2) 0.81290(14)
C1 C 0.5509(2) 0.7384(2) 0.81894(17)
C2 C 0.6075(3) 0.7633(3) 0.70663(17)
C3 C 0.6245(4) 0.8959(3) 0.6523(2)
H2 H 0.5994 0.9711 0.6853
C4 C 0.6781(4) 0.9175(3) 0.5498(2)
H3 H 0.6878 1.0080 0.5147
C5 C 0.7179(3) 0.8094(3) 0.49761(19)
C6 C 0.7016(3) 0.6757(3) 0.5530(2)
H4 H 0.7283 0.6001 0.5201
C7 C 0.6464(3) 0.6534(3) 0.65582(19)
H5 H 0.6354 0.5634 0.6912
C8 C 0.7805(3) 0.8337(4) 0.3875(2)
C9 C 0.7610(4) 0.9685(5) 0.3275(2)
H6 H 0.7038 1.0481 0.3552
C10 C 0.8264(5) 0.9858(6) 0.2259(3)
H7 H 0.8105 1.0786 0.1874
C11 C 0.8662(5) 0.7220(5) 0.3396(3)
H8 H 0.8834 0.6279 0.3758
C12 C 0.9263(5) 0.7508(6) 0.2374(3)
H9 H 0.9824 0.6735 0.2070
C13 C 0.9446(3) 0.4106(2) 0.17287(17)
C14 C 0.8851(3) 0.3631(3) 0.28407(17)
C15 C 0.7392(3) 0.3609(3) 0.3210(2)
H10 H 0.6771 0.3862 0.2768
C16 C 0.6844(3) 0.3213(3) 0.4233(2)
H11 H 0.5856 0.3210 0.4465
C17 C 0.7724(3) 0.2821(3) 0.49170(18)
C18 C 0.9186(3) 0.2843(5) 0.4536(2)
H12 H 0.9812 0.2580 0.4976
C19 C 0.9734(3) 0.3246(4) 0.3516(2)
H13 H 1.0719 0.3257 0.3282
C20 C 0.7508(3) 0.1280(3) 0.7692(2)
H14 H 0.8167 0.0746 0.8103
C21 C 0.8067(3) 0.1590(3) 0.6672(2)
H15 H 0.9075 0.1251 0.6414
C22 C 0.7144(3) 0.2401(3) 0.60239(18)
C23 C 0.5647(3) 0.2795(3) 0.64756(19)
H16 H 0.4961 0.3312 0.6082
C24 C 0.5180(3) 0.2423(3) 0.75005(19)
H17 H 0.4170 0.2692 0.7775
C25 C 0.7935(2) 0.2731(2) 0.97713(17)
H18 H 0.8915 0.2429 0.9825
C26 C 0.2289(3) 0.1300(2) 0.99252(18)
H19 H 0.1708 0.0726 0.9944
Mg1A Mg 0.79341(8) -0.43345(7) 0.99343(5)
Mg3A Mg 0.46562(8) -0.15464(7) 1.01249(5)
O3A O -0.0762(2) -0.4144(2) 1.85485(12)
O4A O 0.1430(2) -0.4450(2) 1.88346(12)
O5A O 0.26452(18) -0.18008(17) 1.01961(14)
O6A O 0.26898(17) -0.40490(17) 1.03280(12)
O7A O 0.63542(17) -0.06855(16) 1.00814(12)
O8A O 0.83283(19) -0.25801(18) 1.00913(16)
N2A N 0.3922(2) -0.1701(2) 1.18710(14)
C13A C 0.0554(3) -0.4106(2) 1.82713(17)
C14A C 0.1149(3) -0.3631(3) 1.71593(17)
C15A C 0.2608(3) -0.3609(3) 1.6790(2)
H10A H 0.3229 -0.3862 1.7232
C16A C 0.3156(3) -0.3213(3) 1.5767(2)
H11A H 0.4144 -0.3210 1.5535
C17A C 0.2276(3) -0.2821(3) 1.50830(18)
C18A C 0.0814(3) -0.2843(5) 1.5464(2)
H12A H 0.0188 -0.2580 1.5024
C19A C 0.0266(3) -0.3246(4) 1.6484(2)
H13A H -0.0719 -0.3257 1.6718
C20A C 0.2492(3) -0.1280(3) 1.2308(2)
H14A H 0.1833 -0.0746 1.1897
C21A C 0.1933(3) -0.1590(3) 1.3328(2)
H15A H 0.0925 -0.1251 1.3586
C22A C 0.2856(3) -0.2401(3) 1.39761(18)
C23A C 0.4353(3) -0.2795(3) 1.35244(19)
H16A H 0.5039 -0.3312 1.3918
C24A C 0.4820(3) -0.2423(3) 1.24995(19)
H17A H 0.5830 -0.2692 1.2225
C25A C 0.2065(2) -0.2731(2) 1.02287(17)
H18A H 0.1085 -0.2429 1.0175
C26A C 0.7711(3) -0.1300(2) 1.00748(18)
H19A H 0.8292 -0.0726 1.0056
O1A O 0.4804(2) 0.37810(19) 1.14048(12)
O2A O 0.4601(2) 0.16612(19) 1.13716(12)
N1A N 0.0906(4) 0.1194(5) 1.8200(2)
C1A C 0.4491(2) 0.2616(2) 1.18106(17)
C2A C 0.3925(3) 0.2367(3) 1.29337(17)
C3A C 0.3755(4) 0.1041(3) 1.3477(2)
H2A H 0.4006 0.0289 1.3147
C4A C 0.3219(4) 0.0825(3) 1.4502(2)
H3A H 0.3122 -0.0080 1.4853
C5A C 0.2821(3) 0.1906(3) 1.50239(19)
C6A C 0.2984(3) 0.3243(3) 1.4470(2)
H4A H 0.2717 0.3999 1.4799
C7A C 0.3536(3) 0.3466(3) 1.34418(19)
H5A H 0.3646 0.4366 1.3088
C8A C 0.2195(3) 0.1663(4) 1.6125(2)
C9A C 0.2390(4) 0.0315(5) 1.6725(2)
H6A H 0.2962 -0.0481 1.6448
C10A C 0.1736(5) 0.0142(6) 1.7741(3)
H7A H 0.1895 -0.0786 1.8126
C11A C 0.1338(5) 0.2780(5) 1.6604(3)
H8A H 0.1166 0.3721 1.6242
C12A C 0.0737(5) 0.2492(6) 1.7626(3)
H9A H 0.0176 0.3265 1.7930
O9A O 0.42780(16) 0.36583(16) 0.95213(12)
H1A H 0.438(3) 0.396(3) 0.894(2)
Mg1_2 Mg 0.20659(8) -0.56655(7) 1.00657(5)
Mg1_3 Mg 0.20659(8) -0.56655(7) 2.00657(5)
Mg1_4 Mg 1.20659(8) 0.43345(7) 0.00657(5)
Mg1A_2 Mg -0.20659(8) -0.43345(7) 1.99343(5)
Mg1A_3 Mg 0.79341(8) 0.56655(7) -0.00657(5)
Mg1A_4 Mg 0.79341(8) 0.56655(7) 0.99343(5)
Mg2_2 Mg 0.5000 -0.5000 1.0000
Mg3A_2 Mg 0.46562(8) 0.84536(7) 1.01249(5)
O2_2 O 0.5399(2) -0.16612(19) 0.86284(12)
O3_2 O 0.0762(2) 0.4144(2) 1.14515(12)
O3A_2 O 0.9238(2) -0.4144(2) 0.85485(12)
O4_2 O 0.8570(2) -0.5550(2) 1.11654(12)
O4A_2 O 0.1430(2) 0.5550(2) 0.88346(12)
O6_2 O 0.73102(17) -0.59510(17) 0.96720(12)
O6A_2 O 0.26898(17) 0.59510(17) 1.03280(12)
O9_2 O 0.57220(16) -0.36583(16) 1.04787(12)
loop_
_geom_bond_atom_site_label_1
_geom_bond_atom_site_label_2
_geom_bond_site_symmetry_1
_geom_bond_site_symmetry_2
Mg1 O8 1_555 1_555
Mg2 O1 1_555 1_555
Mg3 O5 1_555 1_555
O1 C1 1_555 1_555
O2 C1 1_555 1_555
O3 C13 1_555 1_555
O4 C13 1_555 1_555
O5 C25 1_555 1_555
O6 Mg2 1_555 1_555
O7 Mg3 1_555 1_555
O8 C26 1_555 1_555
O9 Mg2 1_555 1_555
H1 O9 1_555 1_555
N1 C10 1_555 1_555
N2 Mg3 1_555 1_555
C1 C2 1_555 1_555
C2 C3 1_555 1_555
C3 H2 1_555 1_555
C4 C3 1_555 1_555
H3 C4 1_555 1_555
C5 C4 1_555 1_555
C6 C5 1_555 1_555
H4 C6 1_555 1_555
C7 C2 1_555 1_555
H5 C7 1_555 1_555
C8 C5 1_555 1_555
C9 C8 1_555 1_555
H6 C9 1_555 1_555
C10 C9 1_555 1_555
H7 C10 1_555 1_555
C11 C8 1_555 1_555
H8 C11 1_555 1_555
C12 N1 1_555 1_555
H9 C12 1_555 1_555
C13 C14 1_555 1_555
C14 C15 1_555 1_555
C15 H10 1_555 1_555
C16 C15 1_555 1_555
H11 C16 1_555 1_555
C17 C16 1_555 1_555
C18 C17 1_555 1_555
H12 C18 1_555 1_555
C19 C14 1_555 1_555
H13 C19 1_555 1_555
C20 N2 1_555 1_555
H14 C20 1_555 1_555
C21 C20 1_555 1_555
H15 C21 1_555 1_555
C22 C17 1_555 1_555
C23 C22 1_555 1_555
H16 C23 1_555 1_555
C24 N2 1_555 1_555
H17 C24 1_555 1_555
C25 O6 1_555 1_555
H18 C25 1_555 1_555
C26 O7 1_555 1_555
H19 C26 1_555 1_555
Mg1A O8A 1_555 1_555
Mg3A O7 1_555 1_555
O3A C13A 1_555 1_555
O4A C13A 1_555 1_555
O5A Mg3A 1_555 1_555
O6A C25A 1_555 1_555
O7A Mg3 1_555 1_555
O8A C26A 1_555 1_555
N2A Mg3A 1_555 1_555
C13A C14A 1_555 1_555
C14A C15A 1_555 1_555
C15A H10A 1_555 1_555
C16A C15A 1_555 1_555
H11A C16A 1_555 1_555
C17A C16A 1_555 1_555
C18A C17A 1_555 1_555
H12A C18A 1_555 1_555
C19A C14A 1_555 1_555
H13A C19A 1_555 1_555
C20A N2A 1_555 1_555
H14A C20A 1_555 1_555
C21A C20A 1_555 1_555
H15A C21A 1_555 1_555
C22A C17A 1_555 1_555
C23A C22A 1_555 1_555
H16A C23A 1_555 1_555
C24A N2A 1_555 1_555
H17A C24A 1_555 1_555
C25A O5A 1_555 1_555
H18A C25A 1_555 1_555
C26A O7A 1_555 1_555
H19A C26A 1_555 1_555
O1A Mg2 1_555 1_555
O2A Mg3 1_555 1_555
N1A C10A 1_555 1_555
C1A O1A 1_555 1_555
C2A C1A 1_555 1_555
C3A C2A 1_555 1_555
H2A C3A 1_555 1_555
C4A C3A 1_555 1_555
H3A C4A 1_555 1_555
C5A C4A 1_555 1_555
C6A C5A 1_555 1_555
H4A C6A 1_555 1_555
C7A C2A 1_555 1_555
H5A C7A 1_555 1_555
C8A C5A 1_555 1_555
C9A C8A 1_555 1_555
H6A C9A 1_555 1_555
C10A C9A 1_555 1_555
H7A C10A 1_555 1_555
C11A C8A 1_555 1_555
H8A C11A 1_555 1_555
C12A N1A 1_555 1_555
H9A C12A 1_555 1_555
O9A Mg1 1_555 1_555
H1A O9A 1_555 1_555
Mg1_2 O6A 1_555 1_555
Mg1_3 O4A 1_555 1_555
Mg1_4 O3 1_555 1_555
Mg1A_2 O3A 1_555 1_555
Mg1A_3 O4 1_555 1_555
Mg1A_4 O6 1_555 1_555
Mg2_2 O6A 1_555 1_555
Mg3A_2 O2 1_555 1_555
O2_2 Mg3A 1_555 1_555
O3_2 Mg1 1_555 1_555
O3A_2 Mg1A 1_555 1_555
O4_2 Mg1A 1_555 1_555
O4A_2 Mg1 1_555 1_555
O6_2 Mg1A 1_555 1_555
O6A_2 Mg1 1_555 1_555
O9_2 Mg1A 1_555 1_555
Mg2 O9A 1_555 1_555
Mg2 O6A_2 1_555 1_555
Mg3 O9A 1_555 1_555
O9 Mg1A_4 1_555 1_555
O9 Mg3A_2 1_555 1_555
C6 C7 1_555 1_555
C11 C12 1_555 1_555
C18 C19 1_555 1_555
C21 C22 1_555 1_555
C23 C24 1_555 1_555
Mg3A O7A 1_555 1_555
Mg3A O9_2 1_555 1_555
C18A C19A 1_555 1_555
C21A C22A 1_555 1_555
C23A C24A 1_555 1_555
O2A C1A 1_555 1_555
C6A C7A 1_555 1_555
C11A C12A 1_555 1_555
Mg2_2 O6_2 1_555 1_555
Mg2_2 O9_2 1_555 1_555

#END
