
#######################################################################
#
#                 Cambridge Crystallographic Data Centre
#                                CCDC 
#
#######################################################################
#
# If this CIF has been generated from an entry in the Cambridge 
# Structural Database, then it will include bibliographic, chemical, 
# crystal, experimental, refinement or atomic coordinate data resulting 
# from the CCDC's data processing and validation procedures.
#
#######################################################################

data_KUCFEU
_symmetry_cell_setting           triclinic
_symmetry_space_group_name_H-M   'P -1'
_symmetry_Int_Tables_number      2
_space_group_name_Hall           '-P 1'
loop_
_symmetry_equiv_pos_site_id
_symmetry_equiv_pos_as_xyz
1 x,y,z
2 -x,-y,-z
_cell_length_a                   10.6599(2)
_cell_length_b                   10.6608(2)
_cell_length_c                   21.2449(5)
_cell_angle_alpha                86.2990(10)
_cell_angle_beta                 79.4830(10)
_cell_angle_gamma                89.9890(10)
_cell_volume                     2368.66
loop_
_atom_site_label
_atom_site_type_symbol
_atom_site_fract_x
_atom_site_fract_y
_atom_site_fract_z
Cu1 Cu 0.46669(16) 0.58933(15) 0.24980(9)
Cu2 Cu 0.96711(15) 1.09070(15) 0.25013(9)
B1 B 0.4676(12) 1.0881(12) 0.2494(6)
B2 B 0.9656(12) 0.5927(12) 0.2507(6)
C1 C 0.4227(12) 0.8556(11) 0.2658(6)
H1 H 0.3933 0.8562 0.2262
C2 C 0.4918(11) 0.7899(12) 0.3506(6)
C3 C 0.5358(14) 0.7150(14) 0.3979(7)
H2 H 0.5317 0.6258 0.3996
C4 C 0.5871(13) 0.7813(14) 0.4435(7)
H3 H 0.6165 0.7356 0.4777
C5 C 0.5952(13) 0.9128(13) 0.4389(7)
H4 H 0.6330 0.9534 0.4695
C6 C 0.5499(13) 0.9872(14) 0.3913(7)
H5 H 0.5533 1.0764 0.3893
C7 C 0.4990(12) 0.9207(13) 0.3464(6)
C8 C 0.2414(12) 1.1355(12) 0.2339(7)
H6 H 0.2239 1.1819 0.2711
C9 C 0.3468(12) 1.0359(12) 0.1543(6)
C10 C 0.4338(13) 0.9739(12) 0.1091(7)
H7 H 0.5220 0.9700 0.1112
C11 C 0.3842(13) 0.9181(13) 0.0607(7)
H8 H 0.4398 0.8738 0.0298
C12 C 0.2549(14) 0.9261(13) 0.0569(7)
H9 H 0.2242 0.8892 0.0230
C13 C 0.1718(13) 0.9873(12) 0.1019(6)
H10 H 0.0838 0.9919 0.0994
C14 C 0.2168(12) 1.0418(11) 0.1505(6)
C15 C 0.4996(11) 1.3249(12) 0.2662(6)
H11 H 0.5583 1.3374 0.2269
C16 C 0.3659(12) 1.2319(12) 0.3473(6)
C17 C 0.2813(12) 1.1566(13) 0.3918(6)
H12 H 0.2785 1.0680 0.3892
C18 C 0.2016(13) 1.2146(13) 0.4397(7)
H13 H 0.1426 1.1651 0.4703
C19 C 0.2063(14) 1.3460(14) 0.4443(7)
H14 H 0.1522 1.3829 0.4786
C20 C 0.2877(14) 1.4219(13) 0.3999(7)
H15 H 0.2887 1.5106 0.4023
C21 C 0.3695(13) 1.3631(13) 0.3508(6)
C22 C 0.7132(11) 1.0610(13) 0.2369(6)
H16 H 0.7069 1.0224 0.2790
C23 C 0.6559(13) 1.1680(12) 0.1542(6)
C24 C 0.6048(13) 1.2429(11) 0.1091(6)
H17 H 0.5150 1.2469 0.1116
C25 C 0.6837(14) 1.3100(13) 0.0617(7)
H18 H 0.6479 1.3598 0.0309
C26 C 0.8178(14) 1.3082(13) 0.0566(7)
H19 H 0.8710 1.3577 0.0235
C27 C 0.8708(13) 1.2331(13) 0.1005(6)
H20 H 0.9607 1.2289 0.0976
C28 C 0.7889(12) 1.1644(12) 0.1490(7)
C29 C 0.7433(12) 0.5495(12) 0.2335(7)
H21 H 0.7271 0.4938 0.2708
C30 C 0.8476(12) 0.6706(11) 0.1539(6)
C31 C 0.9343(12) 0.7453(12) 0.1089(7)
H22 H 1.0226 0.7484 0.1107
C32 C 0.8839(13) 0.8153(13) 0.0609(7)
H23 H 0.9388 0.8683 0.0300
C33 C 0.7543(14) 0.8078(13) 0.0581(7)
H24 H 0.7234 0.8546 0.0246
C34 C 0.6696(13) 0.7347(13) 0.1024(7)
H25 H 0.5815 0.7316 0.0999
C35 C 0.7163(12) 0.6662(12) 0.1503(6)
C36 C 0.9982(13) 0.3558(11) 0.2652(6)
H26 H 1.0557 0.3561 0.2254
C37 C 0.8669(12) 0.2917(14) 0.3498(6)
C38 C 0.7889(13) 0.2190(13) 0.3981(6)
H27 H 0.7924 0.1298 0.4009
C39 C 0.7039(13) 0.2856(15) 0.4429(7)
H28 H 0.6484 0.2396 0.4766
C40 C 0.6989(13) 0.4149(13) 0.4395(7)
H29 H 0.6395 0.4557 0.4703
C41 C 0.7801(13) 0.4874(13) 0.3914(7)
H30 H 0.7785 0.5767 0.3892
C42 C 0.8640(12) 0.4215(12) 0.3465(6)
C43 C 1.2140(11) 0.6224(14) 0.2372(7)
H31 H 1.2085 0.6490 0.2795
C44 C 1.1552(12) 0.5363(12) 0.1525(6)
C45 C 1.1030(12) 0.4756(12) 0.1077(6)
H32 H 1.0132 0.4733 0.1098
C46 C 1.1831(14) 0.4185(12) 0.0598(6)
H33 H 1.1485 0.3752 0.0291
C47 C 1.3176(13) 0.4241(13) 0.0563(7)
H34 H 1.3717 0.3857 0.0225
C48 C 1.3723(13) 0.4845(13) 0.1013(6)
H35 H 1.4620 0.4865 0.0994
C49 C 1.2887(12) 0.5420(12) 0.1493(6)
C50 C 0.9211(14) 0.8239(13) 0.2670(7)
H36 H 0.8878 0.8348 0.2285
C51 C 0.9968(12) 0.7332(12) 0.3463(6)
C52 C 1.0486(13) 0.6589(13) 0.3913(7)
H37 H 1.0524 0.5703 0.3888
C53 C 1.0939(13) 0.7143(13) 0.4391(7)
H38 H 1.1295 0.6637 0.4697
C54 C 1.0883(14) 0.8465(15) 0.4435(7)
H39 H 1.1212 0.8833 0.4768
C55 C 1.0355(13) 0.9231(13) 0.3999(7)
H40 H 1.0298 1.0115 0.4029
C56 C 0.9909(13) 0.8626(12) 0.3509(6)
N1 N 0.4399(10) 0.7496(10) 0.2989(5)
N2 N 0.4498(10) 0.9646(10) 0.2918(5)
N3 N 0.3613(9) 1.0964(9) 0.2084(5)
N4 N 0.1512(10) 1.1024(10) 0.2016(5)
N5 N 0.4554(9) 1.2041(9) 0.2915(5)
N6 N 0.4563(10) 1.4168(11) 0.2993(6)
N7 N 0.6011(10) 1.0953(9) 0.2085(5)
N8 N 0.8167(11) 1.0869(10) 0.2013(6)
N9 N 0.8606(9) 0.5963(9) 0.2082(5)
N10 N 0.6512(10) 0.5883(10) 0.2013(5)
N11 N 0.9522(9) 0.4651(10) 0.2919(5)
N12 N 0.9567(10) 0.2500(10) 0.2992(5)
N13 N 1.1008(10) 0.5988(9) 0.2085(5)
N14 N 1.3173(11) 0.6041(10) 0.2010(5)
N15 N 0.9509(9) 0.7064(10) 0.2914(5)
N16 N 0.9410(11) 0.9172(10) 0.2991(5)
Cu1_2 Cu 0.46669(16) 1.58933(15) 0.24980(9)
Cu1_3 Cu 1.46669(16) 0.58933(15) 0.24980(9)
Cu2_2 Cu -0.03289(15) 1.09070(15) 0.25013(9)
Cu2_3 Cu 0.96711(15) 0.09070(15) 0.25013(9)
N4_2 N 1.1512(10) 1.1024(10) 0.2016(5)
N6_2 N 0.4563(10) 0.4168(11) 0.2993(6)
N12_2 N 0.9567(10) 1.2500(10) 0.2992(5)
N14_2 N 0.3173(11) 0.6041(10) 0.2010(5)
loop_
_geom_bond_atom_site_label_1
_geom_bond_atom_site_label_2
_geom_bond_site_symmetry_1
_geom_bond_site_symmetry_2
Cu1 N1 1_555 1_555
Cu2 N8 1_555 1_555
B1 N2 1_555 1_555
B2 N9 1_555 1_555
C1 H1 1_555 1_555
C2 C3 1_555 1_555
C3 H2 1_555 1_555
C4 C3 1_555 1_555
H3 C4 1_555 1_555
C5 C4 1_555 1_555
H4 C5 1_555 1_555
C6 C5 1_555 1_555
H5 C6 1_555 1_555
C7 C2 1_555 1_555
C8 H6 1_555 1_555
C9 C10 1_555 1_555
C10 H7 1_555 1_555
C11 C10 1_555 1_555
H8 C11 1_555 1_555
C12 C11 1_555 1_555
H9 C12 1_555 1_555
C13 C12 1_555 1_555
H10 C13 1_555 1_555
C14 C9 1_555 1_555
C15 H11 1_555 1_555
C16 C17 1_555 1_555
C17 H12 1_555 1_555
C18 C17 1_555 1_555
H13 C18 1_555 1_555
C19 C18 1_555 1_555
H14 C19 1_555 1_555
C20 C19 1_555 1_555
H15 C20 1_555 1_555
C21 C16 1_555 1_555
C22 H16 1_555 1_555
C23 C24 1_555 1_555
C24 H17 1_555 1_555
C25 C24 1_555 1_555
H18 C25 1_555 1_555
C26 C25 1_555 1_555
H19 C26 1_555 1_555
C27 C26 1_555 1_555
H20 C27 1_555 1_555
C28 C23 1_555 1_555
C29 H21 1_555 1_555
C30 C31 1_555 1_555
C31 H22 1_555 1_555
C32 C31 1_555 1_555
H23 C32 1_555 1_555
C33 C32 1_555 1_555
H24 C33 1_555 1_555
C34 C33 1_555 1_555
H25 C34 1_555 1_555
C35 C30 1_555 1_555
C36 H26 1_555 1_555
C37 C38 1_555 1_555
C38 H27 1_555 1_555
C39 C38 1_555 1_555
H28 C39 1_555 1_555
C40 C39 1_555 1_555
H29 C40 1_555 1_555
C41 C40 1_555 1_555
H30 C41 1_555 1_555
C42 C37 1_555 1_555
C43 H31 1_555 1_555
C44 C45 1_555 1_555
C45 H32 1_555 1_555
C46 C45 1_555 1_555
H33 C46 1_555 1_555
C47 C46 1_555 1_555
H34 C47 1_555 1_555
C48 C47 1_555 1_555
H35 C48 1_555 1_555
C49 C44 1_555 1_555
C50 H36 1_555 1_555
C51 C52 1_555 1_555
C52 H37 1_555 1_555
C53 C52 1_555 1_555
H38 C53 1_555 1_555
C54 C53 1_555 1_555
H39 C54 1_555 1_555
C55 C54 1_555 1_555
H40 C55 1_555 1_555
C56 C51 1_555 1_555
N1 C1 1_555 1_555
N2 C1 1_555 1_555
N3 B1 1_555 1_555
N4 C8 1_555 1_555
N5 B1 1_555 1_555
N6 C15 1_555 1_555
N7 B1 1_555 1_555
N8 C22 1_555 1_555
N9 C29 1_555 1_555
N10 Cu1 1_555 1_555
N11 B2 1_555 1_555
N12 C36 1_555 1_555
N13 B2 1_555 1_555
N14 C43 1_555 1_555
N15 B2 1_555 1_555
N16 Cu2 1_555 1_555
Cu1_2 N6 1_555 1_555
Cu1_3 N14 1_555 1_555
Cu2_2 N4 1_555 1_555
Cu2_3 N12 1_555 1_555
N4_2 Cu2 1_555 1_555
N6_2 Cu1 1_555 1_555
N12_2 Cu2 1_555 1_555
N14_2 Cu1 1_555 1_555
C2 N1 1_555 1_555
C6 C7 1_555 1_555
C7 N2 1_555 1_555
C8 N3 1_555 1_555
C9 N3 1_555 1_555
C13 C14 1_555 1_555
C14 N4 1_555 1_555
C15 N5 1_555 1_555
C16 N5 1_555 1_555
C20 C21 1_555 1_555
C21 N6 1_555 1_555
C22 N7 1_555 1_555
C23 N7 1_555 1_555
C27 C28 1_555 1_555
C28 N8 1_555 1_555
C29 N10 1_555 1_555
C30 N9 1_555 1_555
C34 C35 1_555 1_555
C35 N10 1_555 1_555
C36 N11 1_555 1_555
C37 N12 1_555 1_555
C41 C42 1_555 1_555
C42 N11 1_555 1_555
C43 N13 1_555 1_555
C44 N13 1_555 1_555
C48 C49 1_555 1_555
C49 N14 1_555 1_555
C50 N15 1_555 1_555
C50 N16 1_555 1_555
C51 N15 1_555 1_555
C55 C56 1_555 1_555
C56 N16 1_555 1_555

#END
