
#######################################################################
#
#                 Cambridge Crystallographic Data Centre
#                                CCDC 
#
#######################################################################
#
# If this CIF has been generated from an entry in the Cambridge 
# Structural Database, then it will include bibliographic, chemical, 
# crystal, experimental, refinement or atomic coordinate data resulting 
# from the CCDC's data processing and validation procedures.
#
#######################################################################

data_KUCFEV
_symmetry_cell_setting           monoclinic
_symmetry_space_group_name_H-M   'P 21/c'
_symmetry_Int_Tables_number      14
_space_group_name_Hall           '-P 2ybc'
loop_
_symmetry_equiv_pos_site_id
_symmetry_equiv_pos_as_xyz
1 x,y,z
2 -x,1/2+y,1/2-z
3 -x,-y,-z
4 x,1/2-y,1/2+z
_cell_length_a                   9.2417(11)
_cell_length_b                   12.5185(15)
_cell_length_c                   17.050(2)
_cell_angle_alpha                90
_cell_angle_beta                 103.144(2)
_cell_angle_gamma                90
_cell_volume                     1920.87
loop_
_atom_site_label
_atom_site_type_symbol
_atom_site_fract_x
_atom_site_fract_y
_atom_site_fract_z
Cu1 Cu 0.26268(3) 0.31458(2) 0.042200(18)
S1 S 0.59763(10) 0.28909(7) -0.12359(5)
S2 S 0.07625(11) 0.23215(7) -0.22085(5)
N1 N 0.0837(2) 0.38576(16) 0.07549(12)
N2 N 0.3664(2) 0.40135(17) 0.13657(12)
N3 N 0.5122(2) 0.41952(18) 0.17502(13)
N4 N 0.3619(2) 0.49506(16) 0.24348(11)
N5 N 0.7490(2) 0.66069(16) 0.38568(12)
N6 N 0.2323(3) 0.6745(3) 0.3858(2)
N7 N 0.4343(3) 0.3043(2) -0.00565(16)
N8 N 0.1341(3) 0.25533(19) -0.05515(14)
C1 C -0.0588(3) 0.3794(2) 0.03594(17)
H1 H -0.0832 0.3381 -0.0105
C2 C -0.1709(3) 0.4321(2) 0.06170(18)
H2 H -0.2689 0.4264 0.0328
C3 C -0.1361(3) 0.4929(2) 0.13030(17)
H3 H -0.2102 0.5291 0.1484
C4 C 0.0104(3) 0.4999(2) 0.17226(15)
H4 H 0.0363 0.5405 0.2191
C5 C 0.1170(3) 0.44583(19) 0.14357(14)
C6 C 0.2780(3) 0.44744(19) 0.17684(14)
C7 C 0.5070(3) 0.4764(2) 0.23905(15)
C8 C 0.6376(3) 0.5194(2) 0.29696(14)
C9 C 0.6355(3) 0.6208(2) 0.33087(14)
H5 H 0.5507 0.6625 0.3144
C10 C 0.8720(3) 0.6012(2) 0.40547(16)
H6 H 0.9522 0.6280 0.4436
C11 C 0.8864(3) 0.5024(2) 0.37245(17)
H7 H 0.9754 0.4649 0.3867
C12 C 0.7669(3) 0.4600(2) 0.31795(16)
H8 H 0.7731 0.3928 0.2957
C13 C 0.3186(3) 0.5347(2) 0.31420(14)
C14 C 0.3422(3) 0.4711(2) 0.38173(16)
H9 H 0.3786 0.4020 0.3802
C15 C 0.3121(3) 0.5097(3) 0.45044(16)
H10 H 0.3269 0.4677 0.4965
C16 C 0.2610(3) 0.6088(3) 0.45077(19)
H11 H 0.2436 0.6350 0.4989
C17 C 0.2638(3) 0.6364(2) 0.31675(18)
H12 H 0.2482 0.6794 0.2711
C18 C 0.5003(3) 0.2989(2) -0.05543(16)
C19 C 0.1110(3) 0.2460(2) -0.12427(16)
Cu1A Cu 0.73732(3) 0.81458(2) 0.457800(18)
N5A N 0.2510(2) 0.16069(16) 0.11432(12)
loop_
_geom_bond_atom_site_label_1
_geom_bond_atom_site_label_2
_geom_bond_site_symmetry_1
_geom_bond_site_symmetry_2
Cu1 N1 1_555 1_555
S1 C18 1_555 1_555
S2 C19 1_555 1_555
N1 C1 1_555 1_555
N2 Cu1 1_555 1_555
N3 N2 1_555 1_555
N4 C6 1_555 1_555
N5 C9 1_555 1_555
N6 C16 1_555 1_555
N7 Cu1 1_555 1_555
N8 Cu1 1_555 1_555
C1 H1 1_555 1_555
C2 C1 1_555 1_555
H2 C2 1_555 1_555
C3 C2 1_555 1_555
H3 C3 1_555 1_555
C4 C3 1_555 1_555
H4 C4 1_555 1_555
C5 N1 1_555 1_555
C6 N2 1_555 1_555
C7 N3 1_555 1_555
C8 C7 1_555 1_555
C9 C8 1_555 1_555
H5 C9 1_555 1_555
C10 N5 1_555 1_555
H6 C10 1_555 1_555
C11 C10 1_555 1_555
H7 C11 1_555 1_555
C12 C8 1_555 1_555
H8 C12 1_555 1_555
C13 N4 1_555 1_555
C14 C13 1_555 1_555
H9 C14 1_555 1_555
C15 C14 1_555 1_555
H10 C15 1_555 1_555
C16 C15 1_555 1_555
H11 C16 1_555 1_555
C17 N6 1_555 1_555
H12 C17 1_555 1_555
C18 N7 1_555 1_555
C19 N8 1_555 1_555
Cu1A N5 1_555 1_555
N5A Cu1 1_555 1_555
N4 C7 1_555 1_555
C4 C5 1_555 1_555
C5 C6 1_555 1_555
C11 C12 1_555 1_555
C13 C17 1_555 1_555

#END
