
#######################################################################
#
#                 Cambridge Crystallographic Data Centre
#                                CCDC 
#
#######################################################################
#
# If this CIF has been generated from an entry in the Cambridge 
# Structural Database, then it will include bibliographic, chemical, 
# crystal, experimental, refinement or atomic coordinate data resulting 
# from the CCDC's data processing and validation procedures.
#
#######################################################################

data_KUCHAS
_symmetry_cell_setting           monoclinic
_symmetry_space_group_name_H-M   'C 2/m'
_symmetry_Int_Tables_number      12
_space_group_name_Hall           '-C 2y'
loop_
_symmetry_equiv_pos_site_id
_symmetry_equiv_pos_as_xyz
1 x,y,z
2 -x,y,-z
3 1/2+x,1/2+y,z
4 1/2-x,1/2+y,-z
5 -x,-y,-z
6 x,-y,z
7 1/2-x,1/2-y,-z
8 1/2+x,1/2-y,z
_cell_length_a                   6.905(6)
_cell_length_b                   7.721(6)
_cell_length_c                   8.112(7)
_cell_angle_alpha                90
_cell_angle_beta                 114.234(4)
_cell_angle_gamma                90
_cell_volume                     394.368
loop_
_atom_site_label
_atom_site_type_symbol
_atom_site_fract_x
_atom_site_fract_y
_atom_site_fract_z
Mn1 Mn 1.0000 0.0000 0.5000
O1 O 0.6549(5) 0.0000 0.3772(6)
O2 O 1.0015(3) 0.1720(2) 0.2893(3)
C1 C 1.0010(4) 0.1000(3) 0.1494(4)
C2 C 1.0000 0.1897(6) 0.0000
H1 H 0.579(7) -0.109(8) 0.363(7)
H2 H 1.0000 0.306(7) 0.0000
Mn1_2 Mn 1.0000 0.0000 -0.5000
O1A O 1.3451(5) 0.0000 0.6228(6)
O2A O 0.9985(3) 0.1720(2) -0.2893(3)
O2D O 0.9985(3) -0.1720(2) -0.2893(3)
O2E O 1.0015(3) -0.1720(2) 0.2893(3)
O2A_2 O 0.9985(3) 0.1720(2) 0.7107(3)
O2D_2 O 0.9985(3) -0.1720(2) 0.7107(3)
C1A C 0.9990(4) 0.1000(3) -0.1494(4)
C1D C 0.9990(4) -0.1000(3) -0.1494(4)
C1E C 1.0010(4) -0.1000(3) 0.1494(4)
C2D C 1.0000 -0.1897(6) 0.0000
H1E H 0.579(7) 0.109(8) 0.363(7)
H1A H 1.421(7) -0.109(8) 0.637(7)
H1D H 1.421(7) 0.109(8) 0.637(7)
H2D H 1.0000 -0.306(7) 0.0000
loop_
_geom_bond_atom_site_label_1
_geom_bond_atom_site_label_2
_geom_bond_site_symmetry_1
_geom_bond_site_symmetry_2
Mn1 O1 1_555 1_555
O1 H1 1_555 1_555
O2 Mn1 1_555 1_555
C1 O2 1_555 1_555
C2 C1 1_555 1_555
H2 C2 1_555 1_555
Mn1_2 O2A 1_555 1_555
O1A Mn1 1_555 1_555
O2A C1A 1_555 1_555
O2D Mn1_2 1_555 1_555
O2E Mn1 1_555 1_555
O2A_2 Mn1 1_555 1_555
O2D_2 Mn1 1_555 1_555
C1A C2 1_555 1_555
C1D O2D 1_555 1_555
C1E C1 1_555 1_555
C2D C1D 1_555 1_555
H1E O1 1_555 1_555
H1A O1A 1_555 1_555
H1D O1A 1_555 1_555
H2D C2D 1_555 1_555
O2E C1E 1_555 1_555
C1A C1D 1_555 1_555
C1E C2D 1_555 1_555

#END
