
#######################################################################
#
#                 Cambridge Crystallographic Data Centre
#                                CCDC 
#
#######################################################################
#
# If this CIF has been generated from an entry in the Cambridge 
# Structural Database, then it will include bibliographic, chemical, 
# crystal, experimental, refinement or atomic coordinate data resulting 
# from the CCDC's data processing and validation procedures.
#
#######################################################################

data_KUCHAS01
_symmetry_cell_setting           monoclinic
_symmetry_space_group_name_H-M   'C 2/m'
_symmetry_Int_Tables_number      12
_space_group_name_Hall           '-C 2y'
loop_
_symmetry_equiv_pos_site_id
_symmetry_equiv_pos_as_xyz
1 x,y,z
2 -x,y,-z
3 1/2+x,1/2+y,z
4 1/2-x,1/2+y,-z
5 -x,-y,-z
6 x,-y,z
7 1/2-x,1/2-y,-z
8 1/2+x,1/2-y,z
_cell_length_a                   6.9262(5)
_cell_length_b                   7.7418(5)
_cell_length_c                   8.0982(5)
_cell_angle_alpha                90
_cell_angle_beta                 113.890(7)
_cell_angle_gamma                90
_cell_volume                     397.032
loop_
_atom_site_label
_atom_site_type_symbol
_atom_site_fract_x
_atom_site_fract_y
_atom_site_fract_z
O1 O 0.99663 0.17276 0.28951
C1 C 0.99798 0.10133 0.15384
H1 H 0.56785 -0.11000 0.34057
Mn1 Mn 1.00000 0.00000 0.50000
O2 O 0.64472 0.00000 0.36848
C2 C 1.00000 0.19048 0.00000
H2 H 1.00000 0.30578 0.00000
O1A O 1.00337 0.17276 -0.28951
O1D O 1.00337 -0.17276 -0.28951
O1E O 0.99663 -0.17276 0.28951
O1A_2 O 1.00337 0.17276 0.71049
O1D_2 O 1.00337 -0.17276 0.71049
C1A C 1.00202 0.10133 -0.15384
C1D C 1.00202 -0.10133 -0.15384
C1E C 0.99798 -0.10133 0.15384
H1E H 0.56785 0.11000 0.34057
H1A H 1.43215 -0.11000 0.65943
H1D H 1.43215 0.11000 0.65943
Mn1_2 Mn 1.00000 0.00000 -0.50000
O2A O 1.35528 0.00000 0.63152
C2D C 1.00000 -0.19048 0.00000
H2D H 1.00000 -0.30578 0.00000
loop_
_geom_bond_atom_site_label_1
_geom_bond_atom_site_label_2
_geom_bond_site_symmetry_1
_geom_bond_site_symmetry_2
O1 C1 1_555 1_555
C1 C2 1_555 1_555
H1 O2 1_555 1_555
Mn1 O1 1_555 1_555
O2 Mn1 1_555 1_555
C2 H2 1_555 1_555
O1A C1A 1_555 1_555
O1D C1D 1_555 1_555
O1E Mn1 1_555 1_555
O1A_2 Mn1 1_555 1_555
O1D_2 Mn1 1_555 1_555
C1A C2 1_555 1_555
C1D C1A 1_555 1_555
C1E C1 1_555 1_555
H1E O2 1_555 1_555
H1A O2A 1_555 1_555
H1D O2A 1_555 1_555
Mn1_2 O1A 1_555 1_555
O2A Mn1 1_555 1_555
C2D C1D 1_555 1_555
H2D C2D 1_555 1_555
O1D Mn1_2 1_555 1_555
O1E C1E 1_555 1_555
C1E C2D 1_555 1_555

#END
