
#######################################################################
#
#                 Cambridge Crystallographic Data Centre
#                                CCDC 
#
#######################################################################
#
# If this CIF has been generated from an entry in the Cambridge 
# Structural Database, then it will include bibliographic, chemical, 
# crystal, experimental, refinement or atomic coordinate data resulting 
# from the CCDC's data processing and validation procedures.
#
#######################################################################

data_KUCJEY
_symmetry_cell_setting           orthorhombic
_symmetry_space_group_name_H-M   'P b c a'
_symmetry_Int_Tables_number      61
_space_group_name_Hall           '-P 2ac 2ab'
loop_
_symmetry_equiv_pos_site_id
_symmetry_equiv_pos_as_xyz
1 x,y,z
2 1/2-x,-y,1/2+z
3 -x,1/2+y,1/2-z
4 1/2+x,1/2-y,-z
5 -x,-y,-z
6 1/2+x,y,1/2-z
7 x,1/2-y,1/2+z
8 1/2-x,1/2+y,z
_cell_length_a                   18.544(4)
_cell_length_b                   9.800(2)
_cell_length_c                   27.781(6)
_cell_angle_alpha                90
_cell_angle_beta                 90
_cell_angle_gamma                90
_cell_volume                     5048.67
loop_
_atom_site_label
_atom_site_type_symbol
_atom_site_fract_x
_atom_site_fract_y
_atom_site_fract_z
Mn1 Mn 0.22842(3) 0.20162(5) 0.390311(17)
N1 N 0.23271(17) 0.2357(3) 0.47156(9)
N2 N 0.22264(17) 0.3281(3) 0.80818(10)
N3 N 0.02305(18) -0.3578(3) 0.43975(12)
N4 N 0.03132(18) -0.2391(3) 0.32964(12)
O1 O 0.14376(13) 0.0543(2) 0.40217(8)
O2 O 0.19065(13) -0.1414(2) 0.37439(8)
O3 O 0.19081(13) -0.4550(2) 0.40486(8)
O4 O 0.14259(13) -0.6501(2) 0.37865(8)
C1 C 0.14655(19) -0.0731(3) 0.39898(12)
C2 C 0.0632(2) -0.2755(3) 0.41208(12)
C3 C 0.0933(2) -0.1536(3) 0.42849(12)
C4 C 0.0762(2) -0.1118(4) 0.47475(13)
H1 H 0.0928 -0.0286 0.4863
C5 C 0.0339(3) -0.1952(4) 0.50369(15)
H2 H 0.0214 -0.1687 0.5347
C6 C 0.0113(2) -0.3171(4) 0.48535(16)
H3 H -0.0137 -0.3757 0.5056
C7 C 0.0674(2) -0.3201(3) 0.36010(12)
C8 C 0.10006(19) -0.4415(3) 0.34591(12)
C9 C 0.0921(2) -0.4815(4) 0.29826(13)
H4 H 0.1116 -0.5636 0.2877
C10 C 0.0551(3) -0.3992(5) 0.26674(14)
H5 H 0.0493 -0.4245 0.2347
C11 C 0.0270(3) -0.2794(5) 0.28357(16)
H6 H 0.0035 -0.2226 0.2618
C12 C 0.14757(19) -0.5218(3) 0.37925(11)
C13 C 0.2842(2) 0.1790(5) 0.49810(14)
H7 H 0.3193 0.1277 0.4824
C14 C 0.2890(3) 0.1915(5) 0.54719(14)
H8 H 0.3265 0.1491 0.5636
C15 C 0.2391(2) 0.2658(4) 0.57212(13)
C16 C 0.1856(3) 0.3258(5) 0.54462(14)
H9 H 0.1499 0.3778 0.5593
C17 C 0.1853(2) 0.3086(5) 0.49570(13)
H10 H 0.1491 0.3516 0.4783
C18 C 0.2449(3) 0.2740(4) 0.62453(13)
H11 H 0.2831 0.2264 0.6383
C19 C 0.2027(2) 0.3408(4) 0.65475(13)
H12 H 0.1658 0.3938 0.6419
C20 C 0.2104(2) 0.3366(4) 0.70709(13)
C21 C 0.1629(2) 0.4050(4) 0.73681(13)
H13 H 0.1256 0.4561 0.7235
C22 C 0.1704(2) 0.3980(4) 0.78633(13)
H14 H 0.1373 0.4445 0.8053
C23 C 0.2677(3) 0.2620(5) 0.77962(13)
H15 H 0.3044 0.2113 0.7938
C24 C 0.2637(3) 0.2635(5) 0.73041(14)
H16 H 0.2973 0.2147 0.7125
Mn1_2 Mn 0.22842(3) -0.79838(5) 0.390311(17)
Mn1F Mn 0.22842(3) 0.29838(5) 0.890311(17)
Mn1G Mn 0.27158(3) -0.29838(5) 0.390311(17)
N2F N 0.22264(17) 0.1719(3) 0.30818(10)
O2G O 0.30935(13) 0.3586(2) 0.37439(8)
O3G O 0.30919(13) 0.0450(2) 0.40486(8)
O4_2 O 0.14259(13) 0.3499(2) 0.37865(8)
C25 C 0.9014(4) 0.9695(8) 0.3838(3)
H17 H 0.9178 0.9247 0.4125
H18 H 0.8677 0.9116 0.3673
H19 H 0.8782 1.0538 0.3923
O6 O 0.9567(2) 0.9948(3) 0.35564(17)
H20 H 0.9769 0.9229 0.3488
O5 O 0.92526(19) 0.4469(4) 0.38761(17)
H23 H 0.946(2) 0.394(4) 0.3671(14)
H24 H 0.958(2) 0.498(4) 0.3995(17)
O7 O 0.0098(2) 0.2484(4) 0.34073(15)
H21 H 0.000(3) 0.176(3) 0.3578(15)
H22 H 0.0444(19) 0.273(5) 0.3585(15)
loop_
_geom_bond_atom_site_label_1
_geom_bond_atom_site_label_2
_geom_bond_site_symmetry_1
_geom_bond_site_symmetry_2
Mn1 N1 1_555 1_555
N1 C13 1_555 1_555
N2 C22 1_555 1_555
N3 C2 1_555 1_555
N4 C7 1_555 1_555
O1 Mn1 1_555 1_555
O2 C1 1_555 1_555
O3 C12 1_555 1_555
O4 C12 1_555 1_555
C1 O1 1_555 1_555
C2 C3 1_555 1_555
C3 C1 1_555 1_555
C4 C3 1_555 1_555
H1 C4 1_555 1_555
C5 C4 1_555 1_555
H2 C5 1_555 1_555
C6 N3 1_555 1_555
H3 C6 1_555 1_555
C7 C2 1_555 1_555
C8 C7 1_555 1_555
C9 C8 1_555 1_555
H4 C9 1_555 1_555
C10 C9 1_555 1_555
H5 C10 1_555 1_555
C11 N4 1_555 1_555
H6 C11 1_555 1_555
C12 C8 1_555 1_555
C13 H7 1_555 1_555
C14 C13 1_555 1_555
H8 C14 1_555 1_555
C15 C14 1_555 1_555
C16 C15 1_555 1_555
H9 C16 1_555 1_555
C17 N1 1_555 1_555
H10 C17 1_555 1_555
C18 C15 1_555 1_555
H11 C18 1_555 1_555
C19 C18 1_555 1_555
H12 C19 1_555 1_555
C20 C19 1_555 1_555
C21 C20 1_555 1_555
H13 C21 1_555 1_555
C22 C21 1_555 1_555
H14 C22 1_555 1_555
C23 N2 1_555 1_555
H15 C23 1_555 1_555
C24 C20 1_555 1_555
H16 C24 1_555 1_555
C25 H17 1_555 1_555
H18 C25 1_555 1_555
H19 C25 1_555 1_555
O5 H23 1_555 1_555
O6 C25 1_555 1_555
H20 O6 1_555 1_555
O7 H21 1_555 1_555
H22 O7 1_555 1_555
H24 O5 1_555 1_555
Mn1_2 O4 1_555 1_555
Mn1F N2 1_555 1_555
Mn1G O2 1_555 1_555
N2F Mn1 1_555 1_555
O2G Mn1 1_555 1_555
O3G Mn1 1_555 1_555
O4_2 Mn1 1_555 1_555
O3 Mn1G 1_555 1_555
C5 C6 1_555 1_555
C10 C11 1_555 1_555
C16 C17 1_555 1_555
C23 C24 1_555 1_555

#END
