
#######################################################################
#
#                 Cambridge Crystallographic Data Centre
#                                CCDC 
#
#######################################################################
#
# If this CIF has been generated from an entry in the Cambridge 
# Structural Database, then it will include bibliographic, chemical, 
# crystal, experimental, refinement or atomic coordinate data resulting 
# from the CCDC's data processing and validation procedures.
#
#######################################################################

data_KUCLIF
_symmetry_cell_setting           hexagonal
_symmetry_space_group_name_H-M   'P 65'
_symmetry_Int_Tables_number      170
_space_group_name_Hall           'P 65'
loop_
_symmetry_equiv_pos_site_id
_symmetry_equiv_pos_as_xyz
1 x,y,z
2 x-y,x,5/6+z
3 y,-x+y,1/6+z
4 -y,x-y,2/3+z
5 -x+y,-x,1/3+z
6 -x,-y,1/2+z
_cell_length_a                   11.1662(11)
_cell_length_b                   11.1662(11)
_cell_length_c                   43.103(4)
_cell_angle_alpha                90
_cell_angle_beta                 90
_cell_angle_gamma                120
_cell_volume                     4654.24
loop_
_atom_site_label
_atom_site_type_symbol
_atom_site_fract_x
_atom_site_fract_y
_atom_site_fract_z
C1 C 1.3247(5) -0.0096(5) 0.09604(12)
H1 H 1.3823 0.0715 0.1068
C2 C 1.3511(5) -0.1195(6) 0.09747(12)
H2 H 1.4242 -0.1114 0.1094
C3 C 1.2706(5) -0.2372(5) 0.08162(14)
H3 H 1.2852 -0.3120 0.0830
C4 C 1.1653(5) -0.2438(5) 0.06314(13)
H4 H 1.1121 -0.3212 0.0509
C5 C 1.1405(5) -0.1343(5) 0.06318(11)
C6 C 1.0275(4) -0.1382(4) 0.04515(12)
H5 H 0.9719 -0.2142 0.0327
C7 C 0.8885(4) -0.0437(4) 0.03116(11)
C8 C 0.7625(5) -0.1639(5) 0.02946(14)
H6 H 0.7510 -0.2448 0.0384
C9 C 0.6528(5) -0.1639(5) 0.01425(14)
H7 H 0.5690 -0.2463 0.0128
C10 C 0.6642(5) -0.0459(6) 0.00130(13)
C11 C 0.7933(5) 0.0749(5) 0.00332(13)
H8 H 0.8049 0.1561 -0.0055
C12 C 0.9028(5) 0.0762(5) 0.01797(11)
H9 H 0.9873 0.1580 0.0191
C13 C 0.5439(5) -0.0445(6) -0.01358(14)
H10 H 0.5781 0.0363 -0.0268
H11 H 0.4953 -0.1257 -0.0266
C14 C 0.4443(5) -0.0425(6) 0.00932(13)
H12 H 0.4925 0.0389 0.0223
H13 H 0.4099 -0.1232 0.0226
C15 C 0.3229(5) -0.0414(5) -0.00618(12)
C16 C 0.2215(6) -0.1586(5) -0.02215(14)
H14 H 0.2290 -0.2378 -0.0228
C17 C 0.1112(5) -0.1588(5) -0.03685(14)
H15 H 0.0449 -0.2377 -0.0471
C18 C 0.1004(6) -0.0394(4) -0.03619(11)
C19 C 0.1994(5) 0.0769(5) -0.02076(12)
H16 H 0.1917 0.1560 -0.0200
C20 C 0.3105(4) 0.0758(5) -0.00630(12)
H17 H 0.3777 0.1556 0.0035
C21 C -0.1310(7) -0.1338(5) -0.05196(12)
H18 H -0.1518 -0.2145 -0.0414
C22 C -0.2384(7) -0.1232(5) -0.06859(11)
C23 C -0.3719(7) -0.2345(5) -0.07065(13)
H19 H -0.3945 -0.3179 -0.0612
C24 C -0.4710(8) -0.2209(5) -0.08692(16)
H20 H -0.5601 -0.2955 -0.0893
C25 C -0.4339(8) -0.0922(6) -0.09970(13)
H21 H -0.4986 -0.0788 -0.1104
C26 C -0.2995(7) 0.0152(5) -0.09626(12)
H22 H -0.2758 0.1016 -0.1043
H23 H 1.362(7) 0.337(6) 0.0619(14)
H24 H 1.244(10) 0.329(9) 0.051(2)
N1 N 1.2194(4) -0.0176(4) 0.07971(10)
N2 N 1.0060(4) -0.0362(4) 0.04663(9)
N3 N -0.0068(6) -0.0304(4) -0.05196(9)
N4 N -0.2026(4) -0.0011(3) -0.08179(9)
O1 O 1.2668(4) 0.2415(4) 0.11621(10)
O2 O 1.2812(3) 0.2704(4) 0.05317(8)
Zn1 Zn 1.13382(5) 0.11622(5) 0.082095(14)
H25 H 1.277(5) 0.331(6) 0.1155(13)
H26 H 1.278(7) 0.232(7) 0.1304(16)
N3B N 0.9696(4) -0.0236(7) 0.11471(9)
N4B N 0.9989(3) 0.2015(5) 0.08488(9)
Zn1A Zn 0.01760(7) 0.13382(5) -0.084572(14)
Cl1 Cl 0.70022(14) 0.47013(13) 0.00870(3)
O3 O 0.5667(5) 0.4578(6) 0.00796(12)
O4 O 0.6889(5) 0.3394(4) 0.00278(12)
O5 O 0.7886(7) 0.5666(5) -0.01402(12)
O6 O 0.7591(4) 0.5191(4) 0.03929(9)
Cl2 Cl 0.23488(15) 0.51164(12) 0.00040(3)
O7 O 0.3145(5) 0.5817(4) 0.02682(10)
O8 O 0.1019(5) 0.5035(5) 0.00176(12)
O9 O 0.2120(4) 0.3720(3) 0.00019(9)
O10 O 0.3037(4) 0.5790(4) -0.02788(10)
O11 O 0.3487(4) 0.5113(4) 0.11143(9)
O12 O 0.5404(4) 0.4392(5) 0.08350(10)
loop_
_geom_bond_atom_site_label_1
_geom_bond_atom_site_label_2
_geom_bond_site_symmetry_1
_geom_bond_site_symmetry_2
C1 H1 1_555 1_555
C2 C1 1_555 1_555
H2 C2 1_555 1_555
C3 C2 1_555 1_555
H3 C3 1_555 1_555
C4 C3 1_555 1_555
H4 C4 1_555 1_555
C5 C4 1_555 1_555
C6 C5 1_555 1_555
H5 C6 1_555 1_555
C7 C8 1_555 1_555
C8 H6 1_555 1_555
C9 C8 1_555 1_555
H7 C9 1_555 1_555
C10 C9 1_555 1_555
C11 C10 1_555 1_555
H8 C11 1_555 1_555
C12 C7 1_555 1_555
H9 C12 1_555 1_555
C13 C10 1_555 1_555
H10 C13 1_555 1_555
H11 C13 1_555 1_555
C14 C13 1_555 1_555
H12 C14 1_555 1_555
H13 C14 1_555 1_555
C15 C14 1_555 1_555
C16 C15 1_555 1_555
H14 C16 1_555 1_555
C17 C16 1_555 1_555
H15 C17 1_555 1_555
C18 C17 1_555 1_555
C19 C18 1_555 1_555
H16 C19 1_555 1_555
C20 C15 1_555 1_555
H17 C20 1_555 1_555
C21 H18 1_555 1_555
C22 C21 1_555 1_555
C23 C22 1_555 1_555
H19 C23 1_555 1_555
C24 C23 1_555 1_555
H20 C24 1_555 1_555
C25 C24 1_555 1_555
H21 C25 1_555 1_555
C26 C25 1_555 1_555
H22 C26 1_555 1_555
H23 O2 1_555 1_555
H24 O2 1_555 1_555
N1 C1 1_555 1_555
N2 C6 1_555 1_555
N3 C18 1_555 1_555
N4 C22 1_555 1_555
O1 Zn1 1_555 1_555
O2 Zn1 1_555 1_555
Zn1 N1 1_555 1_555
H25 O1 1_555 1_555
H26 O1 1_555 1_555
Cl1 O3 1_555 1_555
O4 Cl1 1_555 1_555
O5 Cl1 1_555 1_555
O6 Cl1 1_555 1_555
Cl2 O7 1_555 1_555
O8 Cl2 1_555 1_555
O9 Cl2 1_555 1_555
O10 Cl2 1_555 1_555
N3B Zn1 1_555 1_555
N4B Zn1 1_555 1_555
Zn1A N3 1_555 1_555
C5 N1 1_555 1_555
C7 N2 1_555 1_555
C11 C12 1_555 1_555
C19 C20 1_555 1_555
C21 N3 1_555 1_555
C26 N4 1_555 1_555
N2 Zn1 1_555 1_555
N4 Zn1A 1_555 1_555

#END
