
#######################################################################
#
#                 Cambridge Crystallographic Data Centre
#                                CCDC 
#
#######################################################################
#
# If this CIF has been generated from an entry in the Cambridge 
# Structural Database, then it will include bibliographic, chemical, 
# crystal, experimental, refinement or atomic coordinate data resulting 
# from the CCDC's data processing and validation procedures.
#
#######################################################################

data_KUCLEB
_symmetry_cell_setting           monoclinic
_symmetry_space_group_name_H-M   'P 21/n'
_symmetry_Int_Tables_number      14
_space_group_name_Hall           '-P 2yn'
loop_
_symmetry_equiv_pos_site_id
_symmetry_equiv_pos_as_xyz
1 x,y,z
2 1/2-x,1/2+y,1/2-z
3 -x,-y,-z
4 1/2+x,1/2-y,1/2+z
_cell_length_a                   7.2586(7)
_cell_length_b                   9.9067(9)
_cell_length_c                   19.3404(17)
_cell_angle_alpha                90
_cell_angle_beta                 91.742(6)
_cell_angle_gamma                90
_cell_volume                     1390.1
loop_
_atom_site_label
_atom_site_type_symbol
_atom_site_fract_x
_atom_site_fract_y
_atom_site_fract_z
C1 C 0.9663(7) 0.7294(4) 0.1631(3)
H1 H 1.0167 0.7371 0.2077
C2 C 0.9529(7) 0.8437(5) 0.1228(3)
H2 H 0.9906 0.9270 0.1402
C3 C 0.8825(8) 0.8321(5) 0.0562(3)
H3 H 0.8729 0.9073 0.0275
C4 C 0.8267(7) 0.7069(6) 0.0330(3)
H4 H 0.7783 0.6972 -0.0118
C5 C 0.8421(6) 0.5955(4) 0.0757(2)
C6 C 0.7828(6) 0.4581(5) 0.0524(2)
C7 C 0.7185(7) 0.4326(5) -0.0145(3)
H5 H 0.7138 0.5015 -0.0472
C8 C 0.6613(7) 0.3034(6) -0.0321(3)
H6 H 0.6167 0.2849 -0.0767
C9 C 0.6709(8) 0.2034(6) 0.0166(3)
H7 H 0.6326 0.1161 0.0059
C10 C 0.7387(8) 0.2354(5) 0.0819(3)
H8 H 0.7462 0.1671 0.1148
N1 N 0.9100(6) 0.6074(4) 0.1410(2)
N2 N 0.7938(5) 0.3583(4) 0.1003(2)
N3 N 0.5273(6) 0.5947(4) 0.2247(2)
N4 N 1.1225(6) 0.5430(5) 0.3569(2)
O1 O 1.1294(8) 0.5747(5) 0.2947(3)
O2 O 1.0072(8) 0.4602(5) 0.3744(2)
O3 O 1.2292(8) 0.6015(5) 0.3972(3)
O4 O 1.1883(5) 0.3622(4) 0.1636(2)
H9 H 1.1901 0.2765 0.1484
H10 H 1.2886 0.3735 0.1915
O5 O 0.6512(6) 0.6277(4) 0.2680(2)
O6 O 0.5267(5) 0.4750(4) 0.2029(2)
O7 O 0.4153(6) 0.6772(5) 0.2039(2)
Pb1 Pb 0.90031(2) 0.413297(16) 0.223711(8)
O5A O 0.8488(6) 0.1277(4) 0.2320(2)
Pb1A Pb 0.59969(2) 0.913297(16) 0.276289(8)
loop_
_geom_bond_atom_site_label_1
_geom_bond_atom_site_label_2
_geom_bond_site_symmetry_1
_geom_bond_site_symmetry_2
C1 H1 1_555 1_555
C2 C1 1_555 1_555
H2 C2 1_555 1_555
C3 C2 1_555 1_555
H3 C3 1_555 1_555
C4 C3 1_555 1_555
H4 C4 1_555 1_555
C5 C4 1_555 1_555
C6 C5 1_555 1_555
C7 C6 1_555 1_555
H5 C7 1_555 1_555
C8 C7 1_555 1_555
H6 C8 1_555 1_555
C9 C8 1_555 1_555
H7 C9 1_555 1_555
C10 C9 1_555 1_555
H8 C10 1_555 1_555
N1 C1 1_555 1_555
N2 C6 1_555 1_555
N3 O5 1_555 1_555
N4 O1 1_555 1_555
O1 Pb1 1_555 1_555
O2 N4 1_555 1_555
O3 N4 1_555 1_555
O4 H9 1_555 1_555
H10 O4 1_555 1_555
O5 Pb1A 1_555 1_555
O6 N3 1_555 1_555
O7 N3 1_555 1_555
Pb1 N1 1_555 1_555
O5A Pb1 1_555 1_555
C5 N1 1_555 1_555
C10 N2 1_555 1_555
N2 Pb1 1_555 1_555
O4 Pb1 1_555 1_555
O6 Pb1 1_555 1_555

#END
