
#######################################################################
#
#                 Cambridge Crystallographic Data Centre
#                                CCDC 
#
#######################################################################
#
# If this CIF has been generated from an entry in the Cambridge 
# Structural Database, then it will include bibliographic, chemical, 
# crystal, experimental, refinement or atomic coordinate data resulting 
# from the CCDC's data processing and validation procedures.
#
#######################################################################

data_KUCPOO
_symmetry_cell_setting           triclinic
_symmetry_space_group_name_H-M   'P -1'
_symmetry_Int_Tables_number      2
_space_group_name_Hall           '-P 1'
loop_
_symmetry_equiv_pos_site_id
_symmetry_equiv_pos_as_xyz
1 x,y,z
2 -x,-y,-z
_cell_length_a                   8.5082(5)
_cell_length_b                   9.9602(5)
_cell_length_c                   10.6334(5)
_cell_angle_alpha                77.330(4)
_cell_angle_beta                 66.511(5)
_cell_angle_gamma                74.053(5)
_cell_volume                     788.45
loop_
_atom_site_label
_atom_site_type_symbol
_atom_site_fract_x
_atom_site_fract_y
_atom_site_fract_z
Cd1 Cd 0.49198(4) 0.35342(3) 0.66936(3)
Br1 Br 0.26733(5) 0.48570(4) 0.53896(4)
Br2 Br 0.26660(5) 0.21458(4) 0.87550(4)
S1 S 0.76504(13) 0.20236(10) 0.76305(10)
N1 N 0.5615(5) 0.4768(3) 1.1903(3)
C1 C 0.6722(5) 0.0483(4) 0.3557(4)
H1 H 0.6511 0.0550 0.2750
C2 C 0.6349(6) 0.2658(4) 1.0279(4)
C3 C 0.7456(5) 0.0448(4) 0.5865(4)
C4 C 0.4639(6) 0.3239(4) 1.1055(4)
H2 H 0.3708 0.2936 1.1038
C5 C 0.7575(5) -0.0748(4) 0.4056(4)
H3 H 0.7890 -0.1548 0.3622
C6 C 0.7692(6) 0.3184(4) 1.0314(4)
H4 H 0.8857 0.2836 0.9796
C7 C 0.6161(5) 0.1657(4) 0.4281(4)
H5 H 0.5518 0.2480 0.3964
C8 C 0.9346(5) -0.2054(4) 0.6876(4)
H6 H 0.9936 -0.2878 0.7240
C9 C 0.8902(5) -0.0804(4) 0.7461(4)
H7 H 0.9233 -0.0812 0.8198
C10 C 0.7983(5) -0.0812(4) 0.5239(4)
C11 C 0.4333(5) 0.4269(4) 1.1850(4)
H8 H 0.3180 0.4637 1.2377
C12 C 0.8004(5) 0.0419(4) 0.6982(4)
C13 C 0.7261(5) 0.4232(4) 1.1133(4)
H9 H 0.8161 0.4580 1.1147
C14 C 0.8907(5) -0.2055(4) 0.5774(4)
H10 H 0.9219 -0.2878 0.5375
C15 C 0.6720(6) 0.1470(4) 0.9487(4)
H11 H 0.5644 0.1164 0.9701
H12 H 0.7537 0.0683 0.9756
N2 N 0.6510(4) 0.1640(3) 0.5394(3)
Cd1A Cd 0.50802(4) 0.64658(3) 0.33064(3)
Cd1A_2 Cd 0.50802(4) 0.64658(3) 1.33064(3)
Br1A Br 0.73267(5) 0.51430(4) 0.46104(4)
N1A N 0.4385(5) 0.5232(3) 0.8097(3)
loop_
_geom_bond_atom_site_label_1
_geom_bond_atom_site_label_2
_geom_bond_site_symmetry_1
_geom_bond_site_symmetry_2
Cd1 Br1 1_555 1_555
Br1 Cd1A 1_555 1_555
Br2 Cd1 1_555 1_555
S1 Cd1 1_555 1_555
N1 C11 1_555 1_555
C1 H1 1_555 1_555
C2 C4 1_555 1_555
C3 C10 1_555 1_555
C4 H2 1_555 1_555
C5 C1 1_555 1_555
H3 C5 1_555 1_555
C6 C2 1_555 1_555
H4 C6 1_555 1_555
C7 C1 1_555 1_555
H5 C7 1_555 1_555
C8 H6 1_555 1_555
C9 C8 1_555 1_555
H7 C9 1_555 1_555
C10 C5 1_555 1_555
C11 C4 1_555 1_555
H8 C11 1_555 1_555
C12 S1 1_555 1_555
C13 N1 1_555 1_555
H9 C13 1_555 1_555
C14 C8 1_555 1_555
H10 C14 1_555 1_555
C15 S1 1_555 1_555
H11 C15 1_555 1_555
H12 C15 1_555 1_555
N2 Cd1 1_555 1_555
Cd1A Br1A 1_555 1_555
Cd1A_2 N1 1_555 1_555
Br1A Cd1 1_555 1_555
N1A Cd1 1_555 1_555
C2 C15 1_555 1_555
C3 C12 1_555 1_555
C3 N2 1_555 1_555
C6 C13 1_555 1_555
C7 N2 1_555 1_555
C9 C12 1_555 1_555
C10 C14 1_555 1_555

#END
