
#######################################################################
#
#                 Cambridge Crystallographic Data Centre
#                                CCDC 
#
#######################################################################
#
# If this CIF has been generated from an entry in the Cambridge 
# Structural Database, then it will include bibliographic, chemical, 
# crystal, experimental, refinement or atomic coordinate data resulting 
# from the CCDC's data processing and validation procedures.
#
#######################################################################

data_KUCPUU
_symmetry_cell_setting           triclinic
_symmetry_space_group_name_H-M   'P -1'
_symmetry_Int_Tables_number      2
_space_group_name_Hall           '-P 1'
loop_
_symmetry_equiv_pos_site_id
_symmetry_equiv_pos_as_xyz
1 x,y,z
2 -x,-y,-z
_cell_length_a                   7.4866(13)
_cell_length_b                   8.157(3)
_cell_length_c                   14.285(3)
_cell_angle_alpha                92.25(2)
_cell_angle_beta                 99.233(16)
_cell_angle_gamma                91.25(2)
_cell_volume                     860.043
loop_
_atom_site_label
_atom_site_type_symbol
_atom_site_fract_x
_atom_site_fract_y
_atom_site_fract_z
Cd1 Cd -0.32265(5) 0.71610(4) -0.19388(2)
S1 S -0.42508(16) 0.40097(14) -0.18694(8)
O1 O -0.0541(5) 0.6432(4) -0.2730(2)
O2 O -0.5935(5) 0.7675(4) -0.1147(3)
O3 O -0.4611(4) 0.9637(4) -0.1787(2)
N1 N -0.5026(5) 0.6579(5) -0.3408(3)
O4 O -0.1320(5) 0.8981(4) -0.2643(2)
N2 N 0.1470(5) 0.2804(4) 0.0486(3)
N3 N -0.0250(5) 0.7919(5) -0.2906(3)
O5 O 0.1005(5) 0.8313(5) -0.3307(3)
N4 N -0.5845(5) 0.9168(5) -0.1311(3)
O6 O -0.6863(6) 1.0175(4) -0.1036(3)
C1 C -0.2255(6) 0.2928(6) -0.2145(3)
H1 H -0.1720 0.3501 -0.2619
H2 H -0.2599 0.1822 -0.2392
C2 C -0.0146(6) 0.2015(6) 0.0350(3)
H3 H -0.0468 0.1437 0.0849
C3 C -0.0918(6) 0.2882(5) -0.1235(3)
C4 C 0.1905(6) 0.3633(6) -0.0256(3)
H4 H 0.3025 0.4180 -0.0185
C5 C -0.5275(7) 0.7752(6) -0.4027(3)
H5 H -0.4652 0.8750 -0.3875
C6 C -0.5758(6) 0.3821(6) -0.2980(3)
C7 C -0.6771(6) 0.2389(6) -0.3194(3)
H6 H -0.6655 0.1563 -0.2760
C8 C -0.5959(6) 0.5121(6) -0.3629(3)
C9 C -0.1357(6) 0.2009(6) -0.0484(3)
H7 H -0.2455 0.1428 -0.0543
C10 C -0.7365(7) 0.6128(6) -0.5142(3)
H8 H -0.8117 0.5979 -0.5725
C11 C 0.0766(6) 0.3698(6) -0.1104(3)
H9 H 0.1115 0.4287 -0.1592
C12 C -0.7183(6) 0.4850(6) -0.4494(3)
C13 C -0.7968(7) 0.2145(7) -0.4044(4)
H10 H -0.8642 0.1168 -0.4171
C14 C -0.8152(7) 0.3350(6) -0.4697(3)
H11 H -0.8920 0.3172 -0.5273
C15 C -0.6444(7) 0.7559(7) -0.4909(4)
H12 H -0.6574 0.8415 -0.5324
Cd1A Cd 0.32265(5) 0.28390(4) 0.19388(2)
N2A N -0.1470(5) 0.7196(4) -0.0486(3)
loop_
_geom_bond_atom_site_label_1
_geom_bond_atom_site_label_2
_geom_bond_site_symmetry_1
_geom_bond_site_symmetry_2
Cd1 S1 1_555 1_555
S1 C1 1_555 1_555
O1 N3 1_555 1_555
O2 N4 1_555 1_555
O3 Cd1 1_555 1_555
N1 Cd1 1_555 1_555
O4 Cd1 1_555 1_555
N2 C2 1_555 1_555
N3 O4 1_555 1_555
O5 N3 1_555 1_555
N4 O3 1_555 1_555
O6 N4 1_555 1_555
C1 H1 1_555 1_555
H2 C1 1_555 1_555
C2 H3 1_555 1_555
C3 C1 1_555 1_555
C4 N2 1_555 1_555
H4 C4 1_555 1_555
C5 N1 1_555 1_555
H5 C5 1_555 1_555
C6 S1 1_555 1_555
C7 C6 1_555 1_555
H6 C7 1_555 1_555
C8 N1 1_555 1_555
C9 C2 1_555 1_555
H7 C9 1_555 1_555
C10 H8 1_555 1_555
C11 C3 1_555 1_555
H9 C11 1_555 1_555
C12 C8 1_555 1_555
C13 C7 1_555 1_555
H10 C13 1_555 1_555
C14 C12 1_555 1_555
H11 C14 1_555 1_555
C15 C5 1_555 1_555
H12 C15 1_555 1_555
Cd1A N2 1_555 1_555
N2A Cd1 1_555 1_555
C3 C9 1_555 1_555
C4 C11 1_555 1_555
C6 C8 1_555 1_555
C10 C12 1_555 1_555
C10 C15 1_555 1_555
C13 C14 1_555 1_555

#END
