
#######################################################################
#
#                 Cambridge Crystallographic Data Centre
#                                CCDC 
#
#######################################################################
#
# If this CIF has been generated from an entry in the Cambridge 
# Structural Database, then it will include bibliographic, chemical, 
# crystal, experimental, refinement or atomic coordinate data resulting 
# from the CCDC's data processing and validation procedures.
#
#######################################################################

data_KUCREG
_symmetry_cell_setting           monoclinic
_symmetry_space_group_name_H-M   'P 21/a'
_symmetry_Int_Tables_number      14
_space_group_name_Hall           '-P 2yab'
loop_
_symmetry_equiv_pos_site_id
_symmetry_equiv_pos_as_xyz
1 x,y,z
2 1/2-x,1/2+y,-z
3 -x,-y,-z
4 1/2+x,1/2-y,z
_cell_length_a                   10.493(3)
_cell_length_b                   12.575(3)
_cell_length_c                   13.327(7)
_cell_angle_alpha                90
_cell_angle_beta                 106.15(3)
_cell_angle_gamma                90
_cell_volume                     1689.09
loop_
_atom_site_label
_atom_site_type_symbol
_atom_site_fract_x
_atom_site_fract_y
_atom_site_fract_z
C1 C 0.1652(13) -0.0080(12) 0.3792(13)
C2 C 0.019(2) 0.0005(16) 0.1731(15)
H1 H -0.0718 0.0007 0.1295
H2 H 0.0476 0.074 0.1848
C3 C 0.4047(14) 0.1839(11) 0.4152(12)
C4 C 0.3839(15) 0.2394(12) 0.3146(12)
H3 H 0.3068 0.2111 0.2651
H4 H 0.4601 0.2293 0.2891
H5 H 0.3715 0.314 0.3242
C5 C 0.5111(14) 0.2128(11) 0.5105(13)
C6 C 0.6109(16) 0.2885(11) 0.5097(13)
H6 H 0.6091 0.3238 0.448
C7 C 0.7096(14) 0.2549(12) 0.6794(14)
H7 H 0.7783 0.2668 0.7397
C8 C 0.6119(14) 0.1774(12) 0.6827(12)
H8 H 0.6165 0.1404 0.7441
C9 C 0.1047(16) -0.0545(14) 0.1147(13)
C10 C 0.067(2) -0.1609(16) 0.0737(16)
H9 H -0.0067 -0.1932 0.0865
C11 C 0.136(3) -0.2142(17) 0.0173(18)
H10 H 0.1079 -0.2808 -0.0103
C12 C 0.247(3) -0.170(2) 0.0014(19)
H11 H 0.2967 -0.2079 -0.0342
C13 C 0.286(2) -0.069(2) 0.0380(16)
H12 H 0.3584 -0.0372 0.0227
C14 C 0.2188(17) -0.0150(14) 0.0962(12)
H13 H 0.2511 0.0506 0.1244
N1 N 0.2297(12) 0.0675(10) 0.3470(9)
N2 N 0.3330(11) 0.1031(9) 0.4317(9)
N3 N 0.5139(11) 0.1585(9) 0.5967(11)
N4 N 0.7076(11) 0.3099(9) 0.5964(10)
N5 N 0.4053(17) -0.0319(15) 0.7779(13)
O1 O 0.4359(15) -0.0273(13) 0.6982(14)
O2 O 0.332(4) 0.038(2) 0.789(2)
O3 O 0.4452(17) -0.0968(13) 0.8448(12)
S1 S 0.1972(4) -0.0619(3) 0.5033(3)
S2 S 0.0235(4) -0.0573(4) 0.2939(4)
Cu1 Cu 0.35920(17) 0.05595(14) 0.57585(15)
N4C N 0.2076(11) 0.1901(9) 0.5964(10)
Cu1C Cu 0.85920(17) 0.44405(14) 0.57585(15)
loop_
_geom_bond_atom_site_label_1
_geom_bond_atom_site_label_2
_geom_bond_site_symmetry_1
_geom_bond_site_symmetry_2
C1 N1 1_555 1_555
C2 H1 1_555 1_555
H2 C2 1_555 1_555
C3 C4 1_555 1_555
C4 H3 1_555 1_555
H4 C4 1_555 1_555
H5 C4 1_555 1_555
C5 C3 1_555 1_555
C6 C5 1_555 1_555
H6 C6 1_555 1_555
C7 H7 1_555 1_555
C8 C7 1_555 1_555
H8 C8 1_555 1_555
C9 C2 1_555 1_555
C10 C9 1_555 1_555
H9 C10 1_555 1_555
C11 C10 1_555 1_555
H10 C11 1_555 1_555
C12 C11 1_555 1_555
H11 C12 1_555 1_555
C13 C12 1_555 1_555
H12 C13 1_555 1_555
C14 C9 1_555 1_555
H13 C14 1_555 1_555
N1 N2 1_555 1_555
N2 C3 1_555 1_555
N3 C5 1_555 1_555
N4 C6 1_555 1_555
N5 O1 1_555 1_555
O1 Cu1 1_555 1_555
O2 N5 1_555 1_555
O3 N5 1_555 1_555
S1 C1 1_555 1_555
S2 C1 1_555 1_555
Cu1 N2 1_555 1_555
N4C Cu1 1_555 1_555
Cu1C N4 1_555 1_555
C2 S2 1_555 1_555
C7 N4 1_555 1_555
C8 N3 1_555 1_555
C13 C14 1_555 1_555
N3 Cu1 1_555 1_555
S1 Cu1 1_555 1_555

#END
