
#######################################################################
#
#                 Cambridge Crystallographic Data Centre
#                                CCDC 
#
#######################################################################
#
# If this CIF has been generated from an entry in the Cambridge 
# Structural Database, then it will include bibliographic, chemical, 
# crystal, experimental, refinement or atomic coordinate data resulting 
# from the CCDC's data processing and validation procedures.
#
#######################################################################

data_KUCTIM
_symmetry_cell_setting           triclinic
_symmetry_space_group_name_H-M   'P -1'
_symmetry_Int_Tables_number      2
_space_group_name_Hall           '-P 1'
loop_
_symmetry_equiv_pos_site_id
_symmetry_equiv_pos_as_xyz
1 x,y,z
2 -x,-y,-z
_cell_length_a                   7.574(3)
_cell_length_b                   8.433(3)
_cell_length_c                   10.189(4)
_cell_angle_alpha                104.07(2)
_cell_angle_beta                 99.78(2)
_cell_angle_gamma                112.03(2)
_cell_volume                     559.969
loop_
_atom_site_label
_atom_site_type_symbol
_atom_site_fract_x
_atom_site_fract_y
_atom_site_fract_z
Zn1 Zn 0.5000 0.0000 1.0000
Zn2 Zn 0.21607(9) 0.06002(9) 0.43611(7)
O1 O 0.5894(8) -0.1606(8) 0.8650(5)
H1 H 0.552(12) -0.196(11) 0.775(2)
H2 H 0.661(10) -0.211(10) 0.889(9)
O2 O 0.7320(7) 0.2301(7) 0.9822(5)
H3 H 0.775(12) 0.344(3) 1.019(8)
H4 H 0.809(10) 0.218(11) 0.934(7)
O3 O 0.4654(5) 0.2170(5) 0.4191(4)
O4 O 0.5730(6) 0.3939(6) 0.6443(4)
O5 O 0.8083(5) 0.1759(5) 0.6852(4)
O6 O 1.0669(7) 0.4206(6) 0.8388(4)
C1 C 0.6037(8) 0.3402(8) 0.5314(7)
C2 C 0.8082(8) 0.4172(7) 0.5135(6)
C3 C 0.9726(8) 0.4231(7) 0.6067(6)
C4 C 0.9476(8) 0.3354(8) 0.7200(6)
C5 C 0.8391(8) 0.4960(7) 0.4073(6)
H5 H 0.7314 0.4935 0.3459
N1 N 0.3018(7) -0.0078(6) 0.8246(5)
N2 N 0.2054(7) 0.0332(6) 0.6242(5)
N3 N 0.0365(6) -0.0582(6) 0.6583(5)
C6 C 0.3589(8) 0.0597(8) 0.7262(6)
H6 H 0.4911 0.1188 0.7283
C7 C 0.1023(8) -0.0785(8) 0.7799(6)
H7 H 0.0194 -0.1353 0.8285
Zn2A Zn 0.78393(9) -0.06002(9) 1.56389(7)
Zn2A_2 Zn 0.78393(9) -0.06002(9) 0.56389(7)
Zn2A_3 Zn -0.21607(9) -0.06002(9) 0.56389(7)
Zn2A_4 Zn 1.78393(9) 0.93998(9) 0.56389(7)
Zn2_2 Zn 1.21607(9) 1.06002(9) 0.43611(7)
Zn2_3 Zn 1.21607(9) 0.06002(9) 1.43611(7)
O1A O 0.4106(8) 0.1606(8) 1.1350(5)
H1A H 0.448(12) 0.196(11) 1.225(2)
H2A H 0.339(10) 0.211(10) 1.111(9)
O2A O 0.2680(7) -0.2301(7) 1.0178(5)
H3A H 0.225(12) -0.344(3) 0.981(8)
H4A H 0.191(10) -0.218(11) 1.066(7)
O3A O 1.5346(5) 0.7830(5) 0.5809(4)
O3A_2 O 0.5346(5) -0.2170(5) 1.5809(4)
O4A O 1.4270(6) 0.6061(6) 0.3557(4)
O5A O 1.1917(5) 0.8241(5) 0.3148(4)
O5A_2 O 0.1917(5) -0.1759(5) 0.3148(4)
O5_2 O 0.8083(5) 0.1759(5) 1.6852(4)
O6A O 0.9331(7) 0.5794(6) 0.1612(4)
C1A C 1.3963(8) 0.6598(8) 0.4686(7)
C2A C 1.1918(8) 0.5828(7) 0.4865(6)
C3A C 1.0274(8) 0.5769(7) 0.3933(6)
C4A C 1.0524(8) 0.6646(8) 0.2800(6)
C5A C 1.1609(8) 0.5040(7) 0.5927(6)
H5A H 1.2686 0.5065 0.6541
N1A N 0.6982(7) 0.0078(6) 1.1754(5)
N2A N 0.7946(7) -0.0332(6) 1.3758(5)
N3A N 0.9635(6) 0.0582(6) 1.3417(5)
N3A_2 N -0.0365(6) 0.0582(6) 0.3417(5)
N3_2 N 1.0365(6) -0.0582(6) 1.6583(5)
C6A C 0.6411(8) -0.0597(8) 1.2738(6)
H6A H 0.5089 -0.1188 1.2717
C7A C 0.8977(8) 0.0785(8) 1.2201(6)
H7A H 0.9806 0.1353 1.1715
O7 O 0.7873(10) -0.3486(8) 0.9178(6)
H8 H 0.733(14) -0.443(8) 0.843(6)
H9 H 0.791(8) -0.385(13) 0.992(6)
loop_
_geom_bond_atom_site_label_1
_geom_bond_atom_site_label_2
_geom_bond_site_symmetry_1
_geom_bond_site_symmetry_2
Zn1 O1 1_555 1_555
Zn2 O3 1_555 1_555
O1 H1 1_555 1_555
H2 O1 1_555 1_555
O2 Zn1 1_555 1_555
H3 O2 1_555 1_555
H4 O2 1_555 1_555
O3 C1 1_555 1_555
O4 C1 1_555 1_555
O5 C4 1_555 1_555
O6 C4 1_555 1_555
C1 C2 1_555 1_555
C2 C3 1_555 1_555
C3 C4 1_555 1_555
C5 C2 1_555 1_555
H5 C5 1_555 1_555
N1 Zn1 1_555 1_555
N2 Zn2 1_555 1_555
N3 N2 1_555 1_555
C6 N1 1_555 1_555
H6 C6 1_555 1_555
C7 N1 1_555 1_555
H7 C7 1_555 1_555
O7 H8 1_555 1_555
H9 O7 1_555 1_555
Zn2A O3A_2 1_555 1_555
Zn2A_2 O5 1_555 1_555
Zn2A_3 N3 1_555 1_555
Zn2A_4 O3A 1_555 1_555
Zn2_2 O5A 1_555 1_555
Zn2_3 N3A 1_555 1_555
O1A Zn1 1_555 1_555
H1A O1A 1_555 1_555
H2A O1A 1_555 1_555
O2A Zn1 1_555 1_555
H3A O2A 1_555 1_555
H4A O2A 1_555 1_555
O3A C1A 1_555 1_555
O4A C1A 1_555 1_555
O5A C4A 1_555 1_555
O5A_2 Zn2 1_555 1_555
O5_2 Zn2A 1_555 1_555
O6A C4A 1_555 1_555
C1A C2A 1_555 1_555
C2A C3A 1_555 1_555
C3A C5 1_555 1_555
C4A C3A 1_555 1_555
C5A C3 1_555 1_555
H5A C5A 1_555 1_555
N1A Zn1 1_555 1_555
N2A Zn2A 1_555 1_555
N3A N2A 1_555 1_555
N3A_2 Zn2 1_555 1_555
N3_2 Zn2A 1_555 1_555
C6A N1A 1_555 1_555
H6A C6A 1_555 1_555
C7A N1A 1_555 1_555
H7A C7A 1_555 1_555
N2 C6 1_555 1_555
N3 C7 1_555 1_555
C2A C5A 1_555 1_555
N2A C6A 1_555 1_555
N3A C7A 1_555 1_555

#END
