
#######################################################################
#
#                 Cambridge Crystallographic Data Centre
#                                CCDC 
#
#######################################################################
#
# If this CIF has been generated from an entry in the Cambridge 
# Structural Database, then it will include bibliographic, chemical, 
# crystal, experimental, refinement or atomic coordinate data resulting 
# from the CCDC's data processing and validation procedures.
#
#######################################################################

data_KUCVEL
_symmetry_cell_setting           monoclinic
_symmetry_space_group_name_H-M   'C 2/c'
_symmetry_Int_Tables_number      15
_space_group_name_Hall           '-C 2yn'
loop_
_symmetry_equiv_pos_site_id
_symmetry_equiv_pos_as_xyz
1 x,y,z
2 -x,y,1/2-z
3 1/2+x,1/2+y,z
4 1/2-x,1/2+y,1/2-z
5 -x,-y,-z
6 x,-y,1/2+z
7 1/2-x,1/2-y,-z
8 1/2+x,1/2-y,1/2+z
_cell_length_a                   28.9324(8)
_cell_length_b                   7.7007(2)
_cell_length_c                   16.0837(4)
_cell_angle_alpha                90
_cell_angle_beta                 107.629(2)
_cell_angle_gamma                90
_cell_volume                     3415.16
loop_
_atom_site_label
_atom_site_type_symbol
_atom_site_fract_x
_atom_site_fract_y
_atom_site_fract_z
C1 C 0.67877(15) 0.5223(5) 0.0979(2)
C2 C 0.68988(14) 0.6984(5) 0.0685(2)
C3 C 0.68507(15) 0.7267(5) -0.0189(2)
H1 H 0.6739 0.6381 -0.0592
C4 C 0.69683(14) 0.8867(5) -0.0460(2)
C5 C 0.71350(14) 1.0195(5) 0.0138(2)
H2 H 0.7215 1.1267 -0.0047
C6 C 0.71820(14) 0.9919(5) 0.1014(2)
C7 C 0.70648(14) 0.8320(4) 0.1285(2)
H3 H 0.7097 0.8135 0.1872
C8 C 0.69259(14) 0.9146(5) -0.1412(2)
C9 C 0.5966(2) 0.0962(7) 0.0350(3)
H4 H 0.6046 0.1869 0.0037
C10 C 0.5658(3) -0.0326(9) -0.0100(4)
H5 H 0.5531 -0.0270 -0.0704
C11 C 0.5538(2) -0.1684(8) 0.0346(4)
C12 C 0.5730(2) -0.1713(9) 0.1237(4)
H6 H 0.5659 -0.2621 0.1560
C13 C 0.6030(2) -0.0365(8) 0.1648(3)
H7 H 0.6151 -0.0374 0.2254
C14 C 0.5229(3) -0.3092(10) -0.0128(5)
H8 H 0.5089 -0.3023 -0.0729
N1 N 0.73247(14) 1.1293(4) 0.1642(2)
N2 N 0.61526(13) 0.0948(5) 0.1214(2)
N3 N 0.5154(3) -0.4384(9) 0.0280(4)
O1 O 0.66488(15) 0.4040(4) 0.0438(2)
O2 O 0.68498(12) 0.4990(4) 0.17902(18)
O3 O 0.70427(13) 1.0557(4) -0.16547(18)
O4 O 0.67639(13) 0.7850(4) -0.19053(19)
Zn1 Zn 0.67245(2) 0.24759(5) 0.18778(3)
H9 H 0.745(2) 1.206(9) 0.154(4)
H10 H 0.7529(18) 1.082(7) 0.214(3)
C9D C 0.4034(2) -1.0962(7) -0.0350(3)
H4D H 0.3954 -1.1869 -0.0037
C10D C 0.4342(3) -0.9674(9) 0.0100(4)
H5D H 0.4469 -0.9730 0.0704
C11D C 0.4462(2) -0.8316(8) -0.0346(4)
C12D C 0.4270(2) -0.8287(9) -0.1237(4)
H6D H 0.4341 -0.7379 -0.1560
C13D C 0.3970(2) -0.9635(8) -0.1648(3)
H7D H 0.3849 -0.9626 -0.2254
C14D C 0.4771(3) -0.6908(10) 0.0128(5)
H8D H 0.4911 -0.6977 0.0729
N2D N 0.38474(13) -1.0948(5) -0.1214(2)
N3D N 0.4846(3) -0.5616(9) -0.0280(4)
C1D C 0.32123(15) -1.5223(5) -0.0979(2)
C2D C 0.31012(14) -1.6984(5) -0.0685(2)
C3D C 0.31493(15) -1.7267(5) 0.0189(2)
H1D H 0.3261 -1.6381 0.0592
C4D C 0.30317(14) -1.8867(5) 0.0460(2)
C5D C 0.28650(14) -2.0195(5) -0.0138(2)
H2D H 0.2785 -2.1267 0.0047
C6D C 0.28180(14) -1.9919(5) -0.1014(2)
C7D C 0.29352(14) -1.8320(4) -0.1285(2)
H3D H 0.2903 -1.8135 -0.1872
C8D C 0.30741(14) -1.9146(5) 0.1412(2)
N1D N 0.26753(14) -2.1293(4) -0.1642(2)
O1D O 0.33512(15) -1.4040(4) -0.0438(2)
O2D O 0.31502(12) -1.4990(4) -0.17902(18)
O3D O 0.29573(13) -2.0557(4) 0.16547(18)
O4D O 0.32361(13) -1.7850(4) 0.19053(19)
Zn1D Zn 0.32755(2) -1.24759(5) -0.18778(3)
H9D H 0.255(2) -2.206(9) -0.154(4)
H10D H 0.2471(18) -2.082(7) -0.214(3)
N1_2 N 0.73247(14) 0.1293(4) 0.1642(2)
N1D_2 N 0.26753(14) -1.1293(4) -0.1642(2)
O4A O 0.32361(13) -1.2150(4) -0.30947(19)
O4E O 0.67639(13) 0.2150(4) 0.30947(19)
Zn1_2 Zn 0.67245(2) 1.24759(5) 0.18778(3)
Zn1A Zn 0.32755(2) -1.75241(5) 0.31222(3)
Zn1D_2 Zn 0.32755(2) -2.24759(5) -0.18778(3)
Zn1E Zn 0.67245(2) 0.75241(5) -0.31222(3)
O5 O 0.5976(6) 0.412(2) 0.2172(11)
O6 O 0.5178(10) -0.228(3) -0.235(2)
O7 O 0.6356(3) 0.3249(13) -0.1414(6)
loop_
_geom_bond_atom_site_label_1
_geom_bond_atom_site_label_2
_geom_bond_site_symmetry_1
_geom_bond_site_symmetry_2
C1 C2 1_555 1_555
C2 C3 1_555 1_555
C3 H1 1_555 1_555
C4 C3 1_555 1_555
C5 C4 1_555 1_555
H2 C5 1_555 1_555
C6 C5 1_555 1_555
C7 C2 1_555 1_555
H3 C7 1_555 1_555
C8 C4 1_555 1_555
C9 H4 1_555 1_555
C10 C9 1_555 1_555
H5 C10 1_555 1_555
C11 C10 1_555 1_555
C12 C11 1_555 1_555
H6 C12 1_555 1_555
C13 C12 1_555 1_555
H7 C13 1_555 1_555
C14 C11 1_555 1_555
H8 C14 1_555 1_555
N1 C6 1_555 1_555
N2 C9 1_555 1_555
N3 C14 1_555 1_555
O1 C1 1_555 1_555
O2 C1 1_555 1_555
O3 C8 1_555 1_555
O4 C8 1_555 1_555
Zn1 N2 1_555 1_555
H9 N1 1_555 1_555
H10 N1 1_555 1_555
C9D H4D 1_555 1_555
C10D C9D 1_555 1_555
H5D C10D 1_555 1_555
C11D C10D 1_555 1_555
C12D C11D 1_555 1_555
H6D C12D 1_555 1_555
C13D C12D 1_555 1_555
H7D C13D 1_555 1_555
C14D C11D 1_555 1_555
H8D C14D 1_555 1_555
N2D C9D 1_555 1_555
N3D N3 1_555 1_555
C1D C2D 1_555 1_555
C2D C3D 1_555 1_555
C3D H1D 1_555 1_555
C4D C3D 1_555 1_555
C5D C4D 1_555 1_555
H2D C5D 1_555 1_555
C6D C5D 1_555 1_555
C7D C2D 1_555 1_555
H3D C7D 1_555 1_555
C8D C4D 1_555 1_555
N1D C6D 1_555 1_555
O1D C1D 1_555 1_555
O2D C1D 1_555 1_555
O3D C8D 1_555 1_555
O4D C8D 1_555 1_555
Zn1D N2D 1_555 1_555
H9D N1D 1_555 1_555
H10D N1D 1_555 1_555
N1_2 Zn1 1_555 1_555
N1D_2 Zn1D 1_555 1_555
O4A Zn1D 1_555 1_555
O4E Zn1 1_555 1_555
Zn1_2 N1 1_555 1_555
Zn1A O4D 1_555 1_555
Zn1D_2 N1D 1_555 1_555
Zn1E O4 1_555 1_555
C6 C7 1_555 1_555
C13 N2 1_555 1_555
O1 Zn1 1_555 1_555
O2 Zn1 1_555 1_555
C13D N2D 1_555 1_555
C14D N3D 1_555 1_555
C6D C7D 1_555 1_555
O1D Zn1D 1_555 1_555
O2D Zn1D 1_555 1_555

#END
