
#######################################################################
#
#                 Cambridge Crystallographic Data Centre
#                                CCDC 
#
#######################################################################
#
# If this CIF has been generated from an entry in the Cambridge 
# Structural Database, then it will include bibliographic, chemical, 
# crystal, experimental, refinement or atomic coordinate data resulting 
# from the CCDC's data processing and validation procedures.
#
#######################################################################

data_KUCWEM
_symmetry_cell_setting           monoclinic
_symmetry_space_group_name_H-M   'P 21/c'
_symmetry_Int_Tables_number      14
_space_group_name_Hall           '-P 2ybc'
loop_
_symmetry_equiv_pos_site_id
_symmetry_equiv_pos_as_xyz
1 x,y,z
2 -x,1/2+y,1/2-z
3 -x,-y,-z
4 x,1/2-y,1/2+z
_cell_length_a                   8.7552(8)
_cell_length_b                   14.1329(14)
_cell_length_c                   23.646(2)
_cell_angle_alpha                90
_cell_angle_beta                 96.847(5)
_cell_angle_gamma                90
_cell_volume                     2905
loop_
_atom_site_label
_atom_site_type_symbol
_atom_site_fract_x
_atom_site_fract_y
_atom_site_fract_z
C1 C 0.2615(10) -0.1857(6) 0.1532(4)
H1 H 0.2709 -0.2072 0.1916
C2 C 0.3892(10) -0.1469(6) 0.1318(4)
H2 H 0.485 -0.1437 0.1553
C3 C 0.3777(10) -0.1142(7) 0.0786(4)
H3 H 0.4644 -0.0874 0.064
C4 C 0.2372(10) -0.1200(7) 0.0452(4)
H4 H 0.2252 -0.0965 0.0073
C5 C 0.1150(10) -0.1604(6) 0.0678(4)
C6 C -0.0367(10) -0.1626(6) 0.0346(4)
H5 H -0.0491 -0.1376 -0.003
C7 C -0.3512(9) -0.2670(6) -0.0002(3)
C8 C -0.5013(10) -0.2618(6) -0.0363(4)
C9 C -0.5460(10) -0.1751(7) -0.0622(4)
H6 H -0.4811 -0.1211 -0.0579
C10 C -0.6879(10) -0.1719(7) -0.0939(4)
H7 H -0.7206 -0.114 -0.1118
C11 C -0.7832(9) -0.2474(7) -0.1010(4)
H8 H -0.8808 -0.2425 -0.1231
C12 C -0.7355(9) -0.3321(7) -0.0752(4)
H9 H -0.8007 -0.3859 -0.08
C13 C -0.5963(9) -0.3392(6) -0.0431(4)
H10 H -0.565 -0.3975 -0.0254
C14 C -0.2736(9) -0.3608(6) 0.0083(4)
C15 C -0.2205(9) -0.4058(6) -0.0425(3)
C16 C -0.1971(9) -0.3521(6) -0.0885(4)
H11 H -0.2207 -0.2865 -0.0883
C17 C -0.1402(9) -0.3902(7) -0.1356(4)
H12 H -0.1235 -0.3514 -0.167
C18 C -0.1080(9) -0.4857(7) -0.1359(4)
H13 H -0.069 -0.5129 -0.168
C19 C -0.1316(10) -0.5414(7) -0.0906(4)
H14 H -0.1101 -0.6072 -0.0916
C20 C -0.1872(9) -0.5022(6) -0.0429(4)
H15 H -0.2021 -0.5407 -0.0111
C21 C -0.3976(9) -0.4026(6) 0.1300(4)
H16 H -0.4498 -0.4578 0.1153
C22 C -0.4316(9) -0.3615(6) 0.1839(4)
C23 C -0.5396(9) -0.4042(7) 0.2141(4)
H17 H -0.5938 -0.4592 0.2
C24 C -0.5656(10) -0.3648(7) 0.2649(4)
H18 H -0.6382 -0.3925 0.2867
C25 C -0.4861(9) -0.2847(6) 0.2843(4)
H19 H -0.5031 -0.2565 0.3195
C26 C -0.3817(10) -0.2466(6) 0.2517(4)
H20 H -0.328 -0.1909 0.2648
Br1 Br 0.03096(9) -0.32353(6) 0.24105(4)
Br2 Br -0.18595(9) -0.05865(6) 0.18278(4)
Br3 Br 0.22865(10) -0.07592(6) 0.28776(4)
Br4 Br 0.15246(10) 0.09448(7) 0.11696(4)
N1 N 0.1260(7) -0.1934(5) 0.1210(3)
N2 N -0.1532(7) -0.1975(5) 0.0551(3)
N3 N -0.2934(7) -0.1902(5) 0.0221(3)
N4 N -0.2574(8) -0.4089(5) 0.0553(3)
N5 N -0.2964(8) -0.3630(5) 0.1028(3)
N6 N -0.3528(7) -0.2841(5) 0.2029(3)
Hg1 Hg -0.12953(3) -0.23674(2) 0.155773(14)
Hg2 Hg 0.11251(4) 0.02385(2) 0.209270(15)
Br1A Br -0.03096(9) 0.17647(6) 0.25895(4)
Hg2A Hg -0.11251(4) -0.47615(2) 0.290730(15)
loop_
_geom_bond_atom_site_label_1
_geom_bond_atom_site_label_2
_geom_bond_site_symmetry_1
_geom_bond_site_symmetry_2
C1 H1 1_555 1_555
C2 C1 1_555 1_555
H2 C2 1_555 1_555
C3 C2 1_555 1_555
H3 C3 1_555 1_555
C4 C3 1_555 1_555
H4 C4 1_555 1_555
C5 C4 1_555 1_555
C6 C5 1_555 1_555
H5 C6 1_555 1_555
C7 C8 1_555 1_555
C8 C9 1_555 1_555
C9 H6 1_555 1_555
C10 C9 1_555 1_555
H7 C10 1_555 1_555
C11 C10 1_555 1_555
H8 C11 1_555 1_555
C12 C11 1_555 1_555
H9 C12 1_555 1_555
C13 C8 1_555 1_555
H10 C13 1_555 1_555
C14 C7 1_555 1_555
C15 C14 1_555 1_555
C16 C15 1_555 1_555
H11 C16 1_555 1_555
C17 C16 1_555 1_555
H12 C17 1_555 1_555
C18 C17 1_555 1_555
H13 C18 1_555 1_555
C19 C18 1_555 1_555
H14 C19 1_555 1_555
C20 C15 1_555 1_555
H15 C20 1_555 1_555
C21 H16 1_555 1_555
C22 C21 1_555 1_555
C23 C22 1_555 1_555
H17 C23 1_555 1_555
C24 C23 1_555 1_555
H18 C24 1_555 1_555
C25 C24 1_555 1_555
H19 C25 1_555 1_555
C26 C25 1_555 1_555
H20 C26 1_555 1_555
Br1 Hg1 1_555 1_555
Br2 Hg1 1_555 1_555
Br3 Hg2 1_555 1_555
Br4 Hg2 1_555 1_555
N1 C1 1_555 1_555
N2 C6 1_555 1_555
N3 C7 1_555 1_555
N4 C14 1_555 1_555
N5 C21 1_555 1_555
N6 C22 1_555 1_555
Hg1 N1 1_555 1_555
Hg2 Br2 1_555 1_555
Br1A Hg2 1_555 1_555
Hg2A Br1 1_555 1_555
C5 N1 1_555 1_555
C12 C13 1_555 1_555
C19 C20 1_555 1_555
C26 N6 1_555 1_555
N2 N3 1_555 1_555
N2 Hg1 1_555 1_555
N4 N5 1_555 1_555
N5 Hg1 1_555 1_555
N6 Hg1 1_555 1_555

#END
