
#######################################################################
#
#                 Cambridge Crystallographic Data Centre
#                                CCDC 
#
#######################################################################
#
# If this CIF has been generated from an entry in the Cambridge 
# Structural Database, then it will include bibliographic, chemical, 
# crystal, experimental, refinement or atomic coordinate data resulting 
# from the CCDC's data processing and validation procedures.
#
#######################################################################

data_KUCWAI
_symmetry_cell_setting           triclinic
_symmetry_space_group_name_H-M   'P -1'
_symmetry_Int_Tables_number      2
_space_group_name_Hall           '-P 1'
loop_
_symmetry_equiv_pos_site_id
_symmetry_equiv_pos_as_xyz
1 x,y,z
2 -x,-y,-z
_cell_length_a                   7.6970(3)
_cell_length_b                   15.9190(5)
_cell_length_c                   16.0270(7)
_cell_angle_alpha                104.8910(10)
_cell_angle_beta                 101.344(2)
_cell_angle_gamma                99.190(4)
_cell_volume                     1814.35
loop_
_atom_site_label
_atom_site_type_symbol
_atom_site_fract_x
_atom_site_fract_y
_atom_site_fract_z
C1 C 0.406(2) 0.8566(13) 0.8490(13)
H1 H 0.3003 0.8193 0.8096
C2 C 0.499(3) 0.8295(15) 0.9205(14)
H2 H 0.4576 0.773 0.9248
C3 C 0.644(3) 0.8842(17) 0.9809(15)
H3 H 0.6979 0.8694 1.0307
C4 C 0.711(2) 0.9652(12) 0.9665(14)
H4 H 0.8167 1.0029 1.0056
C5 C 0.626(2) 0.9903(11) 0.8968(11)
C6 C 0.696(2) 1.0700(11) 0.8804(13)
H5 H 0.8026 1.1074 0.9189
C7 C 0.279(3) 0.9173(13) 0.5228(13)
H6 H 0.3031 0.8654 0.5344
C8 C 0.248(3) 0.9206(12) 0.4337(12)
H7 H 0.2474 0.8711 0.3876
C9 C 0.218(2) 0.9977(12) 0.4163(12)
H8 H 0.1984 1.0017 0.3584
C10 C 0.218(3) 1.0695(14) 0.4867(13)
H9 H 0.1954 1.122 0.476
C11 C 0.251(2) 1.0636(11) 0.5759(11)
C12 C 0.264(2) 1.1406(12) 0.6508(11)
H10 H 0.2433 1.1942 0.6425
C13 C 0.477(2) 1.2443(11) 0.8431(12)
C14 C 0.648(2) 1.2355(11) 0.8094(11)
C15 C 0.508(2) 1.3092(11) 0.9278(11)
C16 C 0.363(4) 1.3346(15) 0.9625(15)
H11 H 0.2455 1.309 0.928
C17 C 0.388(4) 1.3973(17) 1.0478(18)
H12 H 0.2896 1.4153 1.0668
C18 C 0.554(3) 1.4287(15) 1.0986(15)
H13 H 0.5712 1.4674 1.1554
C19 C 0.700(4) 1.4077(16) 1.0726(16)
H14 H 0.8156 1.4328 1.1102
C20 C 0.678(3) 1.3468(13) 0.9869(12)
H15 H 0.7808 1.3317 0.9699
C21 C 0.741(3) 1.3106(14) 0.7868(15)
C22 C 0.651(3) 1.3816(13) 0.7789(12)
H16 H 0.5343 1.3789 0.7869
C23 C 0.740(4) 1.4547(14) 0.7591(13)
H17 H 0.6803 1.4993 0.750
C24 C 0.911(4) 1.4595(17) 0.7534(13)
H18 H 0.9715 1.5105 0.7442
C25 C 1.009(3) 1.3903(17) 0.7605(13)
H19 H 1.1282 1.3964 0.7546
C26 C 0.923(3) 1.3151(18) 0.7764(12)
H20 H 0.9809 1.2688 0.7803
N1 N 0.4693(16) 0.9345(9) 0.8384(9)
N2 N 0.6182(17) 1.0926(9) 0.8149(10)
N3 N 0.2760(18) 0.9856(9) 0.5905(9)
N4 N 0.3057(18) 1.1317(10) 0.7270(9)
N5 N 0.315(2) 1.1998(10) 0.8021(10)
N6 N 0.7086(18) 1.1663(10) 0.7975(11)
Hg1 Hg 0.31403(10) 0.97794(5) 0.73156(4)
Hg2 Hg -0.13033(11) 0.82359(6) 0.76347(6)
Hg3 Hg -0.02474(9) 0.63150(5) 0.52500(6)
Hg4 Hg 0.48215(10) 0.64272(6) 0.53740(6)
Cl1 Cl 0.0411(6) 0.9964(3) 0.8074(3)
Cl2 Cl 0.0789(6) 0.8041(3) 0.6476(3)
Cl3 Cl -0.4048(6) 0.8246(4) 0.6630(4)
Cl4 Cl -0.0213(9) 0.7743(5) 0.8847(5)
Cl5 Cl -0.2466(7) 0.6640(3) 0.4248(4)
Cl6 Cl 0.2784(6) 0.6923(3) 0.4480(3)
Cl7 Cl 0.6787(7) 0.5793(5) 0.6152(5)
Cl8 Cl 0.1715(7) 0.5701(4) 0.6099(4)
Hg3_2 Hg 0.97526(9) 0.63150(5) 0.52500(6)
Hg4_2 Hg -0.51785(10) 0.64272(6) 0.53740(6)
Cl3_2 Cl 0.5952(6) 0.8246(4) 0.6630(4)
Cl5_2 Cl 0.7534(7) 0.6640(3) 0.4248(4)
Cl7_2 Cl -0.3213(7) 0.5793(5) 0.6152(5)
loop_
_geom_bond_atom_site_label_1
_geom_bond_atom_site_label_2
_geom_bond_site_symmetry_1
_geom_bond_site_symmetry_2
C1 H1 1_555 1_555
C2 C1 1_555 1_555
H2 C2 1_555 1_555
C3 C2 1_555 1_555
H3 C3 1_555 1_555
C4 C3 1_555 1_555
H4 C4 1_555 1_555
C5 C4 1_555 1_555
C6 C5 1_555 1_555
H5 C6 1_555 1_555
C7 H6 1_555 1_555
C8 C7 1_555 1_555
H7 C8 1_555 1_555
C9 C8 1_555 1_555
H8 C9 1_555 1_555
C10 C9 1_555 1_555
H9 C10 1_555 1_555
C11 C10 1_555 1_555
C12 C11 1_555 1_555
H10 C12 1_555 1_555
C13 C14 1_555 1_555
C14 C21 1_555 1_555
C15 C13 1_555 1_555
C16 C15 1_555 1_555
H11 C16 1_555 1_555
C17 C16 1_555 1_555
H12 C17 1_555 1_555
C18 C17 1_555 1_555
H13 C18 1_555 1_555
C19 C18 1_555 1_555
H14 C19 1_555 1_555
C20 C15 1_555 1_555
H15 C20 1_555 1_555
C21 C22 1_555 1_555
C22 H16 1_555 1_555
C23 C22 1_555 1_555
H17 C23 1_555 1_555
C24 C23 1_555 1_555
H18 C24 1_555 1_555
C25 C24 1_555 1_555
H19 C25 1_555 1_555
C26 C21 1_555 1_555
H20 C26 1_555 1_555
N1 C1 1_555 1_555
N2 C6 1_555 1_555
N3 C7 1_555 1_555
N4 C12 1_555 1_555
N5 C13 1_555 1_555
N6 C14 1_555 1_555
Hg1 N1 1_555 1_555
Hg2 Cl1 1_555 1_555
Hg3 Cl2 1_555 1_555
Hg4 Cl6 1_555 1_555
Cl1 Hg1 1_555 1_555
Cl2 Hg1 1_555 1_555
Cl3 Hg2 1_555 1_555
Cl4 Hg2 1_555 1_555
Cl5 Hg3 1_555 1_555
Cl6 Hg3 1_555 1_555
Cl7 Hg4 1_555 1_555
Cl8 Hg3 1_555 1_555
Hg3_2 Cl7 1_555 1_555
Hg4_2 Cl3 1_555 1_555
Cl3_2 Hg4 1_555 1_555
Cl5_2 Hg4 1_555 1_555
Cl7_2 Hg3 1_555 1_555
C5 N1 1_555 1_555
C11 N3 1_555 1_555
C19 C20 1_555 1_555
C25 C26 1_555 1_555
N2 N6 1_555 1_555
N2 Hg1 1_555 1_555
N3 Hg1 1_555 1_555
N4 N5 1_555 1_555
N4 Hg1 1_555 1_555
Hg2 Cl2 1_555 1_555
Hg4 Cl8 1_555 1_555
Cl5 Hg4_2 1_555 1_555
Hg3_2 Cl5_2 1_555 1_555
Hg4_2 Cl7_2 1_555 1_555

#END
