
#######################################################################
#
#                 Cambridge Crystallographic Data Centre
#                                CCDC 
#
#######################################################################
#
# If this CIF has been generated from an entry in the Cambridge 
# Structural Database, then it will include bibliographic, chemical, 
# crystal, experimental, refinement or atomic coordinate data resulting 
# from the CCDC's data processing and validation procedures.
#
#######################################################################

data_KUCXUC
_symmetry_cell_setting           monoclinic
_symmetry_space_group_name_H-M   'P 21/c'
_symmetry_Int_Tables_number      14
_space_group_name_Hall           '-P 2ybc'
loop_
_symmetry_equiv_pos_site_id
_symmetry_equiv_pos_as_xyz
1 x,y,z
2 -x,1/2+y,1/2-z
3 -x,-y,-z
4 x,1/2-y,1/2+z
_cell_length_a                   12.0343(9)
_cell_length_b                   9.0576(6)
_cell_length_c                   7.5298(4)
_cell_angle_alpha                90
_cell_angle_beta                 90.469(3)
_cell_angle_gamma                90
_cell_volume                     820.735
loop_
_atom_site_label
_atom_site_type_symbol
_atom_site_fract_x
_atom_site_fract_y
_atom_site_fract_z
Cu1 Cu 0.4592(4) 0.0981(4) 0.1424(6)
N1 N 0.3083(4) 0.1758(4) 0.0370(6)
O1 O 0.0891(4) 0.5755(4) -0.1668(6)
N2 N 0.5198(4) 0.2817(4) 0.2335(6)
C1 C 0.2859(4) 0.3191(4) 0.0188(6)
C2 C 0.5289(4) 0.3988(4) 0.2898(6)
C3 C 0.1640(4) 0.5336(4) -0.0695(6)
C4 C 0.1085(4) 0.2702(4) -0.1092(6)
C5 C 0.2313(4) 0.6410(4) 0.0334(6)
C6 C 0.1866(4) 0.3721(4) -0.0519(6)
C7 C 0.1304(4) 0.1229(4) -0.0913(6)
C8 C 0.2307(4) 0.0804(4) -0.0189(6)
H1 H 0.340510 0.390240 0.055860
H2 H 0.040080 0.303980 -0.161430
H3 H 0.286340 0.589520 0.102620
H4 H 0.183590 0.695600 0.111080
H5 H 0.267360 0.707770 -0.046590
H6 H 0.075540 0.051860 -0.127860
H7 H 0.244700 -0.023520 -0.008290
Cu1A Cu 0.5408(4) 0.5981(4) 0.3576(6)
C2A C 0.4711(4) -0.1012(4) 0.2102(6)
loop_
_geom_bond_atom_site_label_1
_geom_bond_atom_site_label_2
_geom_bond_site_symmetry_1
_geom_bond_site_symmetry_2
Cu1 N1 1_555 1_555
N1 C1 1_555 1_555
O1 C3 1_555 1_555
N2 Cu1 1_555 1_555
C1 C6 1_555 1_555
C2 N2 1_555 1_555
C3 C5 1_555 1_555
C4 C6 1_555 1_555
C5 H3 1_555 1_555
C6 C3 1_555 1_555
C7 C4 1_555 1_555
C8 N1 1_555 1_555
H1 C1 1_555 1_555
H2 C4 1_555 1_555
H4 C5 1_555 1_555
H5 C5 1_555 1_555
H6 C7 1_555 1_555
H7 C8 1_555 1_555
Cu1A C2 1_555 1_555
C2A Cu1 1_555 1_555
C7 C8 1_555 1_555

#END
