
#######################################################################
#
#                 Cambridge Crystallographic Data Centre
#                                CCDC 
#
#######################################################################
#
# If this CIF has been generated from an entry in the Cambridge 
# Structural Database, then it will include bibliographic, chemical, 
# crystal, experimental, refinement or atomic coordinate data resulting 
# from the CCDC's data processing and validation procedures.
#
#######################################################################

data_KUDJOI
_symmetry_cell_setting           triclinic
_symmetry_space_group_name_H-M   'P -1'
_symmetry_Int_Tables_number      2
_space_group_name_Hall           '-P 1'
loop_
_symmetry_equiv_pos_site_id
_symmetry_equiv_pos_as_xyz
1 x,y,z
2 -x,-y,-z
_cell_length_a                   8.709(2)
_cell_length_b                   15.158(5)
_cell_length_c                   15.676(3)
_cell_angle_alpha                68.37(2)
_cell_angle_beta                 74.12(2)
_cell_angle_gamma                77.06(2)
_cell_volume                     1832.66
loop_
_atom_site_label
_atom_site_type_symbol
_atom_site_fract_x
_atom_site_fract_y
_atom_site_fract_z
P1 P 0.2696(1) 0.3222(1) 0.2794(1)
Se1 Se 0.0787(1) 0.3100(1) 0.4027(1)
Se2 Se 0.3567(1) 0.1974(1) 0.2363(1)
C1 C 0.4364(5) 0.3633(3) 0.2982(3)
C2 C 0.4128(7) 0.4068(4) 0.3642(4)
C3 C 0.5368(8) 0.4390(5) 0.3777(4)
C4 C 0.6882(7) 0.4275(5) 0.3237(5)
C5 C 0.7158(7) 0.3851(4) 0.2568(5)
C6 C 0.5909(6) 0.3519(4) 0.2434(4)
C7 C 0.2052(5) 0.4217(3) 0.1809(3)
C8 C 0.0991(7) 0.4998(4) 0.1956(4)
C9 C 0.0545(8) 0.5748(4) 0.1208(4)
C10 C 0.1140(8) 0.5731(4) 0.0316(4)
C11 C 0.2167(9) 0.4960(5) 0.0156(4)
C12 C 0.2613(8) 0.4203(5) 0.0909(4)
H1 H 0.3068 0.4152 0.4018
H2 H 0.5178 0.4692 0.4245
H3 H 0.7756 0.4494 0.3331
H4 H 0.8218 0.3784 0.2185
H5 H 0.6105 0.3212 0.1969
H6 H 0.0559 0.5016 0.2583
H7 H -0.0192 0.6290 0.1315
H8 H 0.0843 0.6265 -0.0203
H9 H 0.2564 0.4941 -0.0473
H10 H 0.3338 0.3660 0.0795
P2 P 0.4511(1) 0.1821(1) 0.7348(1)
Se3 Se 0.4365(1) 0.0316(1) 0.7932(1)
Se4 Se 0.6246(1) 0.2276(1) 0.6045(1)
C13 C 0.2514(5) 0.2476(3) 0.7140(3)
C14 C 0.2369(6) 0.3304(4) 0.6396(3)
C15 C 0.0879(6) 0.3752(4) 0.6216(4)
C16 C -0.0471(6) 0.3377(4) 0.6775(4)
C17 C -0.0358(6) 0.2551(5) 0.7530(5)
C18 C 0.1136(6) 0.2101(4) 0.7710(4)
C19 C 0.4942(5) 0.2242(3) 0.8201(3)
C20 C 0.5259(6) 0.1623(4) 0.9043(3)
C21 C 0.5627(7) 0.1976(5) 0.9662(4)
C22 C 0.5689(7) 0.2913(5) 0.9438(4)
C23 C 0.5372(7) 0.3542(4) 0.8589(4)
C24 C 0.5002(6) 0.3210(4) 0.7975(4)
O1 O 0.0253(4) -0.0574(3) 0.7985(3)
C25 C 0.0833(8) -0.1403(6) 0.8674(4)
C26 C -0.0224(11) -0.1476(7) 0.9525(6)
C27 C -0.1465(11) -0.0703(8) 0.9375(6)
C28 C -0.1258(7) -0.0209(5) 0.8417(5)
Na1 Na 0.2034(2) 0.0457(1) 0.6787(1)
Na2 Na 0.0000 0.0000 0.5000
Na3 Na 0.5000 0.0000 0.5000
O2 O 0.0044(4) 0.1063(2) 0.5886(2)
O3 O 0.2848(4) 0.0005(2) 0.4265(2)
O4 O 0.3596(4) 0.1449(2) 0.5340(2)
O5 O -0.0575(4) 0.1373(3) 0.3653(2)
O6 O 0.3466(4) -0.0904(2) 0.6410(2)
H11 H 0.3319 0.3573 0.5996
H12 H 0.0795 0.4331 0.5693
H13 H -0.1509 0.3693 0.6647
H14 H -0.1312 0.2284 0.7925
H15 H 0.1220 0.1527 0.8238
H16 H 0.5238 0.0949 0.9210
H17 H 0.5830 0.1544 1.0258
H18 H 0.5959 0.3144 0.9865
H19 H 0.5402 0.4214 0.8431
H20 H 0.4786 0.3651 0.7385
H21 H 0.1889 -0.1354 0.8714
H22 H 0.0878 -0.1960 0.8510
H23 H -0.0671 -0.2067 0.9766
H24 H 0.0330 -0.1451 0.9966
H25 H -0.1417 -0.0283 0.9697
H26 H -0.2494 -0.0931 0.9604
H27 H -0.2092 -0.0301 0.8177
H28 H -0.1291 0.0462 0.8299
H29 H -0.1063(10) 0.1201(14) 0.6177(13)
H30 H 0.0265(15) 0.1599(10) 0.5325(10)
H31 H 0.3051(15) -0.0556(8) 0.4084(13)
H32 H 0.2960(15) 0.0592(9) 0.3750(11)
H33 H 0.3120(15) 0.1979(12) 0.4883(10)
H34 H 0.4309(14) 0.1869(9) 0.5297(13)
H35 H -0.0489(15) 0.1896(9) 0.3834(12)
H36 H -0.0013(15) 0.1211(13) 0.3101(8)
H37 H 0.4065(15) -0.1169(14) 0.6719(14)
H38 H 0.2827(15) -0.1250(14) 0.6442(14)
O2A O -0.0044(4) -0.1063(2) 0.4114(2)
H29A H 0.1063(10) -0.1201(14) 0.3823(13)
H30A H -0.0265(15) -0.1599(10) 0.4675(10)
O3A O -0.2848(4) -0.0005(2) 0.5735(2)
H31A H -0.3051(15) 0.0556(8) 0.5916(13)
H32A H -0.2960(15) -0.0592(9) 0.6250(11)
O5A O 0.0575(4) -0.1373(3) 0.6347(2)
H35A H 0.0489(15) -0.1896(9) 0.6166(12)
H36A H 0.0013(15) -0.1211(13) 0.6899(8)
Na1A Na -0.2034(2) -0.0457(1) 0.3213(1)
O4A O 0.6404(4) -0.1449(2) 0.4660(2)
H33A H 0.6880(15) -0.1979(12) 0.5117(10)
H34A H 0.5691(14) -0.1869(9) 0.4703(13)
O6A O 0.6534(4) 0.0904(2) 0.3590(2)
H37A H 0.5935(15) 0.1169(14) 0.3281(14)
H38A H 0.7173(15) 0.1250(14) 0.3558(14)
P2A P -0.4511(1) -0.1821(1) 0.2652(1)
Se3A Se -0.4365(1) -0.0316(1) 0.2068(1)
Se4A Se -0.6246(1) -0.2276(1) 0.3955(1)
C13A C -0.2514(5) -0.2476(3) 0.2860(3)
C14A C -0.2369(6) -0.3304(4) 0.3604(3)
C15A C -0.0879(6) -0.3752(4) 0.3784(4)
C16A C 0.0471(6) -0.3377(4) 0.3225(4)
C17A C 0.0358(6) -0.2551(5) 0.2470(5)
C18A C -0.1136(6) -0.2101(4) 0.2290(4)
C19A C -0.4942(5) -0.2242(3) 0.1799(3)
C20A C -0.5259(6) -0.1623(4) 0.0957(3)
C21A C -0.5627(7) -0.1976(5) 0.0338(4)
C22A C -0.5689(7) -0.2913(5) 0.0562(4)
C23A C -0.5372(7) -0.3542(4) 0.1411(4)
C24A C -0.5002(6) -0.3210(4) 0.2025(4)
H11A H -0.3319 -0.3573 0.4004
H12A H -0.0795 -0.4331 0.4307
H13A H 0.1509 -0.3693 0.3353
H14A H 0.1312 -0.2284 0.2075
H15A H -0.1220 -0.1527 0.1762
H16A H -0.5238 -0.0949 0.0790
H17A H -0.5830 -0.1544 -0.0258
H18A H -0.5959 -0.3144 0.0135
H19A H -0.5402 -0.4214 0.1569
H20A H -0.4786 -0.3651 0.2615
O1A O -0.0253(4) 0.0574(3) 0.2015(3)
C25A C -0.0833(8) 0.1403(6) 0.1326(4)
C26A C 0.0224(11) 0.1476(7) 0.0475(6)
C27A C 0.1465(11) 0.0703(8) 0.0625(6)
C28A C 0.1258(7) 0.0209(5) 0.1583(5)
H21A H -0.1889 0.1354 0.1286
H22A H -0.0878 0.1960 0.1490
H23A H 0.0671 0.2067 0.0234
H24A H -0.0330 0.1451 0.0034
H25A H 0.1417 0.0283 0.0303
H26A H 0.2494 0.0931 0.0396
H27A H 0.2092 0.0301 0.1823
H28A H 0.1291 -0.0462 0.1701
O3A_2 O 0.7152(4) -0.0005(2) 0.5735(2)
Na3_2 Na -0.5000 0.0000 0.5000
O4A_2 O -0.3596(4) -0.1449(2) 0.4660(2)
O6A_2 O -0.3466(4) 0.0904(2) 0.3590(2)
H31A_2 H 0.6949(15) 0.0556(8) 0.5916(13)
H32A_2 H 0.7040(15) -0.0592(9) 0.6250(11)
H33A_2 H -0.3120(15) -0.1979(12) 0.5117(10)
H34A_2 H -0.4309(14) -0.1869(9) 0.4703(13)
H37A_2 H -0.4065(15) 0.1169(14) 0.3281(14)
H38A_2 H -0.2827(15) 0.1250(14) 0.3558(14)
loop_
_geom_bond_atom_site_label_1
_geom_bond_atom_site_label_2
_geom_bond_site_symmetry_1
_geom_bond_site_symmetry_2
P1 Se1 1_555 1_555
Se2 P1 1_555 1_555
C1 P1 1_555 1_555
C2 C1 1_555 1_555
C3 C2 1_555 1_555
C4 C3 1_555 1_555
C5 C4 1_555 1_555
C6 C1 1_555 1_555
C7 P1 1_555 1_555
C8 C7 1_555 1_555
C9 C8 1_555 1_555
C10 C9 1_555 1_555
C11 C10 1_555 1_555
C12 C7 1_555 1_555
P2 Se3 1_555 1_555
Se3 Na1 1_555 1_555
Se4 P2 1_555 1_555
C13 P2 1_555 1_555
C14 C13 1_555 1_555
C15 C14 1_555 1_555
C16 C15 1_555 1_555
C17 C16 1_555 1_555
C18 C13 1_555 1_555
C19 P2 1_555 1_555
C20 C19 1_555 1_555
C21 C20 1_555 1_555
C22 C21 1_555 1_555
C23 C22 1_555 1_555
C24 C19 1_555 1_555
O1 C25 1_555 1_555
C25 C26 1_555 1_555
C26 C27 1_555 1_555
C27 C28 1_555 1_555
C28 O1 1_555 1_555
Na1 O1 1_555 1_555
Na2 O2 1_555 1_555
Na3 O3 1_555 1_555
O2 Na1 1_555 1_555
O3 Na2 1_555 1_555
O4 Na1 1_555 1_555
O5 Na2 1_555 1_555
O6 Na1 1_555 1_555
H1 C2 1_555 1_555
H2 C3 1_555 1_555
H3 C4 1_555 1_555
H4 C5 1_555 1_555
H5 C6 1_555 1_555
H6 C8 1_555 1_555
H7 C9 1_555 1_555
H8 C10 1_555 1_555
H9 C11 1_555 1_555
H10 C12 1_555 1_555
H11 C14 1_555 1_555
H12 C15 1_555 1_555
H13 C16 1_555 1_555
H14 C17 1_555 1_555
H15 C18 1_555 1_555
H16 C20 1_555 1_555
H17 C21 1_555 1_555
H18 C22 1_555 1_555
H19 C23 1_555 1_555
H20 C24 1_555 1_555
H21 C25 1_555 1_555
H22 C25 1_555 1_555
H23 C26 1_555 1_555
H24 C26 1_555 1_555
H25 C27 1_555 1_555
H26 C27 1_555 1_555
H27 C28 1_555 1_555
H28 C28 1_555 1_555
H29 O2 1_555 1_555
H30 O2 1_555 1_555
H31 O3 1_555 1_555
H32 O3 1_555 1_555
H33 O4 1_555 1_555
H34 O4 1_555 1_555
H35 O5 1_555 1_555
H36 O5 1_555 1_555
H37 O6 1_555 1_555
H38 O6 1_555 1_555
O2A Na2 1_555 1_555
H29A O2A 1_555 1_555
H30A O2A 1_555 1_555
O3A Na2 1_555 1_555
H31A O3A 1_555 1_555
H32A O3A 1_555 1_555
O5A Na2 1_555 1_555
H35A O5A 1_555 1_555
H36A O5A 1_555 1_555
Na1A O2A 1_555 1_555
O4A Na3 1_555 1_555
H33A O4A 1_555 1_555
H34A O4A 1_555 1_555
O6A Na3 1_555 1_555
H37A O6A 1_555 1_555
H38A O6A 1_555 1_555
P2A Se3A 1_555 1_555
Se3A Na1A 1_555 1_555
Se4A P2A 1_555 1_555
C13A P2A 1_555 1_555
C14A C13A 1_555 1_555
C15A C14A 1_555 1_555
C16A C15A 1_555 1_555
C17A C16A 1_555 1_555
C18A C13A 1_555 1_555
C19A P2A 1_555 1_555
C20A C19A 1_555 1_555
C21A C20A 1_555 1_555
C22A C21A 1_555 1_555
C23A C22A 1_555 1_555
C24A C19A 1_555 1_555
H11A C14A 1_555 1_555
H12A C15A 1_555 1_555
H13A C16A 1_555 1_555
H14A C17A 1_555 1_555
H15A C18A 1_555 1_555
H16A C20A 1_555 1_555
H17A C21A 1_555 1_555
H18A C22A 1_555 1_555
H19A C23A 1_555 1_555
H20A C24A 1_555 1_555
O1A Na1A 1_555 1_555
C25A O1A 1_555 1_555
C26A C25A 1_555 1_555
C27A C26A 1_555 1_555
C28A O1A 1_555 1_555
H21A C25A 1_555 1_555
H22A C25A 1_555 1_555
H23A C26A 1_555 1_555
H24A C26A 1_555 1_555
H25A C27A 1_555 1_555
H26A C27A 1_555 1_555
H27A C28A 1_555 1_555
H28A C28A 1_555 1_555
O3A_2 Na3 1_555 1_555
Na3_2 O3A 1_555 1_555
O4A_2 Na1A 1_555 1_555
O6A_2 Na1A 1_555 1_555
H31A_2 O3A_2 1_555 1_555
H32A_2 O3A_2 1_555 1_555
H33A_2 O4A_2 1_555 1_555
H34A_2 O4A_2 1_555 1_555
H37A_2 O6A_2 1_555 1_555
H38A_2 O6A_2 1_555 1_555
C5 C6 1_555 1_555
C11 C12 1_555 1_555
C17 C18 1_555 1_555
C23 C24 1_555 1_555
Na3 O4 1_555 1_555
Na3 O6 1_555 1_555
C17A C18A 1_555 1_555
C23A C24A 1_555 1_555
C27A C28A 1_555 1_555
Na3_2 O4A_2 1_555 1_555
Na3_2 O6A_2 1_555 1_555

#END
