
#######################################################################
#
#                 Cambridge Crystallographic Data Centre
#                                CCDC 
#
#######################################################################
#
# If this CIF has been generated from an entry in the Cambridge 
# Structural Database, then it will include bibliographic, chemical, 
# crystal, experimental, refinement or atomic coordinate data resulting 
# from the CCDC's data processing and validation procedures.
#
#######################################################################

data_KUDLAY
_symmetry_cell_setting           triclinic
_symmetry_space_group_name_H-M   'P -1'
_symmetry_Int_Tables_number      2
_space_group_name_Hall           '-P 1'
loop_
_symmetry_equiv_pos_site_id
_symmetry_equiv_pos_as_xyz
1 x,y,z
2 -x,-y,-z
_cell_length_a                   6.0373(2)
_cell_length_b                   7.9044(2)
_cell_length_c                   9.4483(3)
_cell_angle_alpha                85.901(3)
_cell_angle_beta                 80.834(2)
_cell_angle_gamma                86.024(3)
_cell_volume                     443.219
loop_
_atom_site_label
_atom_site_type_symbol
_atom_site_fract_x
_atom_site_fract_y
_atom_site_fract_z
Zn1 Zn 0.49477(3) 0.816361(19) 0.749903(17)
Ni1 Ni 0.0000 0.5000 0.5000
O1 O 0.67497(18) 0.60889(13) 0.80568(12)
O2 O 0.84384(17) 0.79065(13) 0.91578(12)
N1 N 0.1695(2) 0.18534(18) 0.66073(16)
N2 N 0.3005(2) 0.71234(17) 0.63028(15)
N3 N 0.2989(2) 0.89418(17) 0.92623(15)
H1 H 0.290(4) 0.992(3) 0.930(2)
H2 H 0.162(4) 0.867(3) 0.927(2)
H3 H 0.355(4) 0.848(3) 1.003(2)
N4 N 0.7050(2) 0.98127(18) 0.64206(16)
H4 H 0.723(4) 0.974(3) 0.551(3)
H5 H 0.663(4) 1.074(4) 0.667(3)
H6 H 0.836(5) 0.960(4) 0.673(3)
C1 C 0.1046(3) 0.3056(2) 0.60066(17)
C2 C 0.1883(3) 0.63124(19) 0.57882(17)
C3 C 0.8161(2) 0.64406(18) 0.88657(15)
C4 C 0.9470(2) 0.49532(18) 0.94434(16)
H7 H 0.952(3) 0.397(3) 0.901(2)
O1A O 1.32503(18) 0.39111(13) 1.19432(12)
O2A O 1.15616(17) 0.20935(13) 1.08422(12)
C3A C 1.1839(2) 0.35594(18) 1.11343(15)
C4A C 1.0530(2) 0.50468(18) 1.05566(16)
H7A H 1.048(3) 0.603(3) 1.099(2)
Zn1A Zn -0.49477(3) 0.183639(19) 0.250097(17)
N1A N -0.1695(2) 0.81466(18) 0.33927(16)
N2A N -0.3005(2) 0.28766(17) 0.36972(15)
N3A N -0.2989(2) 0.10582(17) 0.07377(15)
H1A H -0.290(4) 0.008(3) 0.070(2)
H2A H -0.162(4) 0.133(3) 0.073(2)
H3A H -0.355(4) 0.152(3) -0.003(2)
N4A N -0.7050(2) 0.01873(18) 0.35794(16)
H4A H -0.723(4) 0.026(3) 0.449(3)
H5A H -0.663(4) -0.074(4) 0.333(3)
H6A H -0.836(5) 0.040(4) 0.327(3)
C1A C -0.1046(3) 0.6944(2) 0.39934(17)
C2A C -0.1883(3) 0.36876(19) 0.42118(17)
Zn1A_2 Zn 1.50523(3) 0.183639(19) 1.250097(17)
O1A_2 O -0.67497(18) 0.39111(13) 0.19432(12)
O3 O 0.5434(2) 0.28043(15) 0.80738(14)
H8 H 0.575(4) 0.381(2) 0.803(3)
H9 H 0.422(3) 0.275(3) 0.784(3)
loop_
_geom_bond_atom_site_label_1
_geom_bond_atom_site_label_2
_geom_bond_site_symmetry_1
_geom_bond_site_symmetry_2
Zn1 O1 1_555 1_555
Ni1 C1 1_555 1_555
O1 C3 1_555 1_555
O2 C3 1_555 1_555
N1 C1 1_555 1_555
N2 Zn1 1_555 1_555
N3 Zn1 1_555 1_555
H1 N3 1_555 1_555
H2 N3 1_555 1_555
H3 N3 1_555 1_555
N4 Zn1 1_555 1_555
H4 N4 1_555 1_555
H5 N4 1_555 1_555
H6 N4 1_555 1_555
C2 Ni1 1_555 1_555
C3 C4 1_555 1_555
C4 H7 1_555 1_555
O3 H8 1_555 1_555
H9 O3 1_555 1_555
O1A C3A 1_555 1_555
O2A C3A 1_555 1_555
C3A C4A 1_555 1_555
C4A C4 1_555 1_555
H7A C4A 1_555 1_555
Zn1A N2A 1_555 1_555
N1A C1A 1_555 1_555
N2A C2A 1_555 1_555
N3A Zn1A 1_555 1_555
H1A N3A 1_555 1_555
H2A N3A 1_555 1_555
H3A N3A 1_555 1_555
N4A Zn1A 1_555 1_555
H4A N4A 1_555 1_555
H5A N4A 1_555 1_555
H6A N4A 1_555 1_555
C1A Ni1 1_555 1_555
C2A Ni1 1_555 1_555
Zn1A_2 O1A 1_555 1_555
O1A_2 Zn1A 1_555 1_555
N2 C2 1_555 1_555

#END
