
#######################################################################
#
#                 Cambridge Crystallographic Data Centre
#                                CCDC 
#
#######################################################################
#
# If this CIF has been generated from an entry in the Cambridge 
# Structural Database, then it will include bibliographic, chemical, 
# crystal, experimental, refinement or atomic coordinate data resulting 
# from the CCDC's data processing and validation procedures.
#
#######################################################################

data_KUDNIH
_symmetry_cell_setting           monoclinic
_symmetry_space_group_name_H-M   'P 21/c'
_symmetry_Int_Tables_number      14
_space_group_name_Hall           '-P 2ybc'
loop_
_symmetry_equiv_pos_site_id
_symmetry_equiv_pos_as_xyz
1 x,y,z
2 -x,1/2+y,1/2-z
3 -x,-y,-z
4 x,1/2-y,1/2+z
_cell_length_a                   4.3489(1)
_cell_length_b                   17.3223(5)
_cell_length_c                   11.7995(3)
_cell_angle_alpha                90
_cell_angle_beta                 91.0179(14)
_cell_angle_gamma                90
_cell_volume                     888.751
loop_
_atom_site_label
_atom_site_type_symbol
_atom_site_fract_x
_atom_site_fract_y
_atom_site_fract_z
Ag1 Ag 0.71145(8) 0.086593(19) 0.49356(2)
Br1 Br 0.19984(7) 0.05730(2) 0.63080(3)
O1 O 0.5833(6) 0.08879(16) 0.0814(2)
N1 N 0.7714(6) 0.24498(18) 0.3634(2)
N2 N 0.4543(6) 0.17244(17) 0.2743(2)
N3 N 0.2398(7) -0.00379(19) 0.1226(2)
H1 H 0.2925 -0.0327 0.0648
H2 H 0.0944 -0.0193 0.1682
C1 C 0.6355(7) 0.1756(2) 0.3686(3)
C2 C 0.6755(8) 0.2861(2) 0.2681(3)
H3 H 0.7382 0.3365 0.2470
C3 C 0.4762(9) 0.2401(2) 0.2119(3)
H4 H 0.3706 0.2517 0.1428
C4 C 0.9869(9) 0.2753(2) 0.4481(3)
H5 H 1.0218 0.2366 0.5075
H6 H 0.9016 0.3223 0.4817
H7 H 1.1823 0.2876 0.4121
C5 C 0.2622(8) 0.1076(2) 0.2423(3)
H8 H 0.0522 0.1267 0.2245
H9 H 0.2482 0.0721 0.3077
C6 C 0.3789(8) 0.0630(2) 0.1409(3)
Ag1_2 Ag -0.28855(8) 0.086593(19) 0.49356(2)
Ag1B Ag 0.28855(8) -0.086593(19) 0.50644(2)
Br1_2 Br 1.19984(7) 0.05730(2) 0.63080(3)
Br1B Br 0.80016(7) -0.05730(2) 0.36920(3)
loop_
_geom_bond_atom_site_label_1
_geom_bond_atom_site_label_2
_geom_bond_site_symmetry_1
_geom_bond_site_symmetry_2
Ag1 Br1 1_555 1_555
Br1 Ag1_2 1_555 1_555
O1 C6 1_555 1_555
N1 C1 1_555 1_555
N2 C1 1_555 1_555
N3 H1 1_555 1_555
H2 N3 1_555 1_555
C1 Ag1 1_555 1_555
C2 N1 1_555 1_555
H3 C2 1_555 1_555
C3 N2 1_555 1_555
H4 C3 1_555 1_555
C4 N1 1_555 1_555
H5 C4 1_555 1_555
H6 C4 1_555 1_555
H7 C4 1_555 1_555
C5 N2 1_555 1_555
H8 C5 1_555 1_555
H9 C5 1_555 1_555
C6 N3 1_555 1_555
Ag1B Br1 1_555 1_555
Br1_2 Ag1 1_555 1_555
Br1B Ag1 1_555 1_555
C2 C3 1_555 1_555
C5 C6 1_555 1_555
Ag1B Br1B 1_555 1_555

#END
