
#######################################################################
#
#                 Cambridge Crystallographic Data Centre
#                                CCDC 
#
#######################################################################
#
# If this CIF has been generated from an entry in the Cambridge 
# Structural Database, then it will include bibliographic, chemical, 
# crystal, experimental, refinement or atomic coordinate data resulting 
# from the CCDC's data processing and validation procedures.
#
#######################################################################

data_KUDPOP
_symmetry_cell_setting           triclinic
_symmetry_space_group_name_H-M   'P -1'
_symmetry_Int_Tables_number      2
_space_group_name_Hall           '-P 1'
loop_
_symmetry_equiv_pos_site_id
_symmetry_equiv_pos_as_xyz
1 x,y,z
2 -x,-y,-z
_cell_length_a                   9.801(3)
_cell_length_b                   11.118(3)
_cell_length_c                   11.490(3)
_cell_angle_alpha                74.889(3)
_cell_angle_beta                 75.750(4)
_cell_angle_gamma                89.580(3)
_cell_volume                     1169.39
loop_
_atom_site_label
_atom_site_type_symbol
_atom_site_fract_x
_atom_site_fract_y
_atom_site_fract_z
Cd1 Cd 0.97324(5) 0.38054(4) 0.69052(4)
N1 N 0.7351(5) 0.3134(4) 0.7664(5)
N2 N 0.9470(5) 0.1627(4) 0.7408(4)
N3 N 1.1912(5) 0.2922(4) 0.6216(4)
N4 N 0.9630(5) -0.3635(4) 1.1166(5)
O1 O 1.0910(7) 0.5709(5) 0.5520(6)
O2 O 0.9006(6) 0.5781(4) 0.6911(5)
C1 C 0.6339(7) 0.3947(6) 0.7654(7)
H1 H 0.6594 0.4795 0.7437
C2 C 0.4935(7) 0.3569(7) 0.7956(7)
H2 H 0.4244 0.4148 0.7958
C3 C 0.4577(7) 0.2306(7) 0.8256(7)
H3 H 0.3638 0.2024 0.8433
C4 C 0.5605(6) 0.1477(6) 0.8290(6)
H4 H 0.5374 0.0624 0.8508
C5 C 0.6984(6) 0.1913(5) 0.7999(5)
C6 C 0.8186(6) 0.1071(5) 0.8009(5)
C7 C 0.8016(7) -0.0189(5) 0.8620(5)
H5 H 0.7118 -0.0571 0.9002
C8 C 0.9202(6) -0.0873(5) 0.8656(5)
C9 C 1.0526(6) -0.0292(5) 0.8025(5)
H6 H 1.1337 -0.0732 0.8032
C10 C 1.0608(6) 0.0968(5) 0.7379(5)
C11 C 1.1955(6) 0.1668(5) 0.6614(5)
C12 C 1.3186(6) 0.1083(6) 0.6245(6)
H7 H 1.3222 0.0225 0.6548
C13 C 1.4347(7) 0.1783(6) 0.5428(6)
H8 H 1.5165 0.1397 0.5155
C14 C 1.4296(8) 0.3056(7) 0.5014(7)
H9 H 1.5068 0.3546 0.4457
C15 C 1.3062(7) 0.3581(6) 0.5453(6)
H10 H 1.3033 0.4444 0.5202
C16 C 0.9788(6) -0.2517(5) 1.0334(5)
H11 H 1.0430 -0.1925 1.0371
C17 C 0.9059(6) -0.2191(5) 0.9426(6)
C18 C 0.8163(7) -0.3099(6) 0.9318(6)
H12 H 0.7659 -0.2922 0.8711
C19 C 0.8044(7) -0.4264(6) 1.0135(6)
H13 H 0.7471 -0.4893 1.0069
C20 C 0.8761(7) -0.4507(5) 1.1044(6)
H14 H 0.8648 -0.5299 1.1596
C21 C 1.0057(7) 0.6312(5) 0.6086(6)
C22 C 1.1634(8) 0.8259(6) 0.5061(6)
H15 H 1.2393 0.7753 0.4981
C23 C 1.0254(7) 0.7708(5) 0.5666(6)
C24 C 0.9117(7) 0.8395(5) 0.5814(6)
H16 H 0.8228 0.8011 0.6232
C25 C 0.9296(7) 0.9739(6) 0.5315(5)
C26 C 1.1860(7) 0.9523(6) 0.4596(6)
H17 H 1.2768 0.9884 0.4226
Cd1A Cd 1.02676(5) -0.38054(4) 1.30948(4)
Cd1A_2 Cd 1.02676(5) 1.61946(4) 0.30948(4)
N1A N 1.2649(5) -0.3134(4) 1.2336(5)
N2A N 1.0530(5) -0.1627(4) 1.2592(4)
N3A N 0.8088(5) -0.2922(4) 1.3784(4)
N4A N 1.0370(5) 0.3635(4) 0.8834(5)
O1A O 0.9090(7) 1.4291(5) 0.4480(6)
O1A_2 O 0.9090(7) -0.5709(5) 1.4480(6)
O2A O 1.0994(6) 1.4219(4) 0.3089(5)
O2A_2 O 1.0994(6) -0.5781(4) 1.3089(5)
C1A C 1.3661(7) -0.3947(6) 1.2346(7)
H1A H 1.3406 -0.4795 1.2563
C2A C 1.5065(7) -0.3569(7) 1.2044(7)
H2A H 1.5756 -0.4148 1.2042
C3A C 1.5423(7) -0.2306(7) 1.1744(7)
H3A H 1.6362 -0.2024 1.1567
C4A C 1.4395(6) -0.1477(6) 1.1710(6)
H4A H 1.4626 -0.0624 1.1492
C5A C 1.3016(6) -0.1913(5) 1.2001(5)
C6A C 1.1814(6) -0.1071(5) 1.1991(5)
C7A C 1.1984(7) 0.0189(5) 1.1380(5)
H5A H 1.2882 0.0571 1.0998
C8A C 1.0798(6) 0.0873(5) 1.1344(5)
C9A C 0.9474(6) 0.0292(5) 1.1975(5)
H6A H 0.8663 0.0732 1.1968
C10A C 0.9392(6) -0.0968(5) 1.2621(5)
C11A C 0.8045(6) -0.1668(5) 1.3386(5)
C12A C 0.6814(6) -0.1083(6) 1.3755(6)
H7A H 0.6778 -0.0225 1.3452
C13A C 0.5653(7) -0.1783(6) 1.4572(6)
H8A H 0.4835 -0.1397 1.4845
C14A C 0.5704(8) -0.3056(7) 1.4986(7)
H9A H 0.4932 -0.3546 1.5543
C15A C 0.6938(7) -0.3581(6) 1.4547(6)
H10A H 0.6967 -0.4444 1.4798
C16A C 1.0212(6) 0.2517(5) 0.9666(5)
H11A H 0.9570 0.1925 0.9629
C17A C 1.0941(6) 0.2191(5) 1.0574(6)
C18A C 1.1837(7) 0.3099(6) 1.0682(6)
H12A H 1.2341 0.2922 1.1289
C19A C 1.1956(7) 0.4264(6) 0.9865(6)
H13A H 1.2529 0.4893 0.9931
C20A C 1.1239(7) 0.4507(5) 0.8956(6)
H14A H 1.1352 0.5299 0.8404
C21A C 0.9943(7) 1.3688(5) 0.3914(6)
C22A C 0.8366(8) 1.1741(6) 0.4939(6)
H15A H 0.7607 1.2247 0.5019
C23A C 0.9746(7) 1.2292(5) 0.4334(6)
C24A C 1.0883(7) 1.1605(5) 0.4186(6)
H16A H 1.1772 1.1989 0.3768
C25A C 1.0704(7) 1.0261(6) 0.4685(5)
C26A C 0.8140(7) 1.0477(6) 0.5404(6)
H17A H 0.7232 1.0116 0.5774
Cl1 Cl 0.5801(2) 0.22225(19) 0.17367(19)
O3 O 0.6675(8) 0.2332(8) 0.2494(7)
O4 O 0.6564(10) 0.1618(14) 0.0882(8)
O5 O 0.4640(9) 0.1451(7) 0.2430(9)
O6 O 0.5371(12) 0.3333(8) 0.1221(14)
loop_
_geom_bond_atom_site_label_1
_geom_bond_atom_site_label_2
_geom_bond_site_symmetry_1
_geom_bond_site_symmetry_2
Cd1 N1 1_555 1_555
N1 C1 1_555 1_555
N2 Cd1 1_555 1_555
N3 Cd1 1_555 1_555
N4 C16 1_555 1_555
O1 Cd1 1_555 1_555
O2 Cd1 1_555 1_555
C1 H1 1_555 1_555
C2 C1 1_555 1_555
H2 C2 1_555 1_555
C3 C2 1_555 1_555
H3 C3 1_555 1_555
C4 C3 1_555 1_555
H4 C4 1_555 1_555
C5 N1 1_555 1_555
C6 N2 1_555 1_555
C7 C6 1_555 1_555
H5 C7 1_555 1_555
C8 C7 1_555 1_555
C9 C8 1_555 1_555
H6 C9 1_555 1_555
C10 N2 1_555 1_555
C11 N3 1_555 1_555
C12 C11 1_555 1_555
H7 C12 1_555 1_555
C13 C12 1_555 1_555
H8 C13 1_555 1_555
C14 C13 1_555 1_555
H9 C14 1_555 1_555
C15 N3 1_555 1_555
H10 C15 1_555 1_555
C16 H11 1_555 1_555
C17 C8 1_555 1_555
C18 C17 1_555 1_555
H12 C18 1_555 1_555
C19 C18 1_555 1_555
H13 C19 1_555 1_555
C20 N4 1_555 1_555
H14 C20 1_555 1_555
C21 O1 1_555 1_555
C22 H15 1_555 1_555
C23 C21 1_555 1_555
C24 C23 1_555 1_555
H16 C24 1_555 1_555
C25 C24 1_555 1_555
C26 C22 1_555 1_555
H17 C26 1_555 1_555
Cl1 O3 1_555 1_555
O4 Cl1 1_555 1_555
O5 Cl1 1_555 1_555
O6 Cl1 1_555 1_555
Cd1A N4 1_555 1_555
Cd1A_2 O1A 1_555 1_555
N1A Cd1A 1_555 1_555
N2A Cd1A 1_555 1_555
N3A Cd1A 1_555 1_555
N4A Cd1 1_555 1_555
O1A C21A 1_555 1_555
O1A_2 Cd1A 1_555 1_555
O2A Cd1A_2 1_555 1_555
O2A_2 Cd1A 1_555 1_555
C1A N1A 1_555 1_555
H1A C1A 1_555 1_555
C2A C1A 1_555 1_555
H2A C2A 1_555 1_555
C3A C2A 1_555 1_555
H3A C3A 1_555 1_555
C4A C3A 1_555 1_555
H4A C4A 1_555 1_555
C5A N1A 1_555 1_555
C6A N2A 1_555 1_555
C7A C6A 1_555 1_555
H5A C7A 1_555 1_555
C8A C7A 1_555 1_555
C9A C8A 1_555 1_555
H6A C9A 1_555 1_555
C10A N2A 1_555 1_555
C11A N3A 1_555 1_555
C12A C11A 1_555 1_555
H7A C12A 1_555 1_555
C13A C12A 1_555 1_555
H8A C13A 1_555 1_555
C14A C13A 1_555 1_555
H9A C14A 1_555 1_555
C15A N3A 1_555 1_555
H10A C15A 1_555 1_555
C16A N4A 1_555 1_555
H11A C16A 1_555 1_555
C17A C8A 1_555 1_555
C18A C17A 1_555 1_555
H12A C18A 1_555 1_555
C19A C18A 1_555 1_555
H13A C19A 1_555 1_555
C20A N4A 1_555 1_555
H14A C20A 1_555 1_555
C21A O2A 1_555 1_555
C22A H15A 1_555 1_555
C23A C21A 1_555 1_555
C24A C23A 1_555 1_555
H16A C24A 1_555 1_555
C25A C25 1_555 1_555
C26A C25 1_555 1_555
H17A C26A 1_555 1_555
O2 C21 1_555 1_555
C4 C5 1_555 1_555
C5 C6 1_555 1_555
C9 C10 1_555 1_555
C10 C11 1_555 1_555
C14 C15 1_555 1_555
C16 C17 1_555 1_555
C19 C20 1_555 1_555
C22 C23 1_555 1_555
C26 C25A 1_555 1_555
C4A C5A 1_555 1_555
C5A C6A 1_555 1_555
C9A C10A 1_555 1_555
C10A C11A 1_555 1_555
C14A C15A 1_555 1_555
C16A C17A 1_555 1_555
C19A C20A 1_555 1_555
C22A C23A 1_555 1_555
C22A C26A 1_555 1_555
C24A C25A 1_555 1_555

#END
