
#######################################################################
#
#                 Cambridge Crystallographic Data Centre
#                                CCDC 
#
#######################################################################
#
# If this CIF has been generated from an entry in the Cambridge 
# Structural Database, then it will include bibliographic, chemical, 
# crystal, experimental, refinement or atomic coordinate data resulting 
# from the CCDC's data processing and validation procedures.
#
#######################################################################

data_KUDPUU
_symmetry_cell_setting           monoclinic
_symmetry_space_group_name_H-M   'P 21/c'
_symmetry_Int_Tables_number      14
_space_group_name_Hall           '-P 2ybc'
loop_
_symmetry_equiv_pos_site_id
_symmetry_equiv_pos_as_xyz
1 x,y,z
2 -x,1/2+y,1/2-z
3 -x,-y,-z
4 x,1/2-y,1/2+z
_cell_length_a                   8.185(3)
_cell_length_b                   9.282(5)
_cell_length_c                   17.146(6)
_cell_angle_alpha                90
_cell_angle_beta                 94.59(4)
_cell_angle_gamma                90
_cell_volume                     1298.46
loop_
_atom_site_label
_atom_site_type_symbol
_atom_site_fract_x
_atom_site_fract_y
_atom_site_fract_z
Bi1 Bi 0.0066(1) 0.1961(1) 0.2400(1)
Br1 Br 0.1699(1) 0.1909(41) 0.1104(1)
Br2 Br 0.1866(1) -0.0357(1) 0.3106(1)
C1 C 0.1833(11) 0.3551(10) 0.3035(6)
C2 C 0.3104(12) 0.4131(12) 0.2662(6)
C3 C 0.4118(13) 0.5161(13) 0.3043(7)
C4 C 0.3813(13) 0.5585(13) 0.3812(7)
C5 C 0.2530(14) 0.4952(15) 0.4183(7)
C6 C 0.1565(14) 0.3923(13) 0.3771(6)
O1 O -0.1622(9) 0.1898(10) 0.3669(4)
C7 C -0.1387(16) 0.1047(15) 0.4370(7)
C8 C -0.3058(26) 0.0886(25) 0.4661(12)
C9 C -0.4146(17) 0.1757(18) 0.4188(9)
C10 C -0.3144(12) 0.2621(13) 0.3650(7)
H1 H 0.3302 0.3830 0.2142
H2 H 0.5003 0.5587 0.2789
H3 H 0.4492 0.6303 0.4080
H4 H 0.2327 0.5222 0.4707
H5 H 0.0689 0.3478 0.4024
H6 H -0.0932 0.0123 0.4258
H7 H -0.0671 0.1535 0.4755
H8 H -0.3039 0.1175 0.5199
H9 H -0.3398 -0.0102 0.4612
H10 H -0.4932 0.1173 0.3886
H11 H -0.4707 0.2399 0.4515
H12 H -0.2994 0.3591 0.3836
H13 H -0.3665 0.2632 0.3128
Br2A Br -0.1866(1) 0.4643(1) 0.1894(1)
Bi1A Bi -0.0066(1) -0.3039(1) 0.2600(1)
Bi1A_2 Bi -0.0066(1) 0.6961(1) 0.2600(1)
Br1A Br -0.1699(1) -0.3091(41) 0.3896(1)
Br2A_2 Br -0.1866(1) -0.5357(1) 0.1894(1)
C1A C -0.1833(11) -0.1449(10) 0.1965(6)
O1A O 0.1622(9) -0.3102(10) 0.1331(4)
C2A C -0.3104(12) -0.0869(12) 0.2338(6)
C6A C -0.1565(14) -0.1077(13) 0.1229(6)
C7A C 0.1387(16) -0.3953(15) 0.0630(7)
C10A C 0.3144(12) -0.2379(13) 0.1350(7)
C3A C -0.4118(13) 0.0161(13) 0.1957(7)
H1A H -0.3302 -0.1170 0.2858
C5A C -0.2530(14) -0.0048(15) 0.0817(7)
H5A H -0.0689 -0.1522 0.0976
C8A C 0.3058(26) -0.4114(25) 0.0339(12)
H6A H 0.0932 -0.4877 0.0742
H7A H 0.0671 -0.3465 0.0245
C9A C 0.4146(17) -0.3243(18) 0.0812(9)
H12A H 0.2994 -0.1409 0.1164
H13A H 0.3665 -0.2368 0.1872
C4A C -0.3813(13) 0.0585(13) 0.1188(7)
H2A H -0.5003 0.0587 0.2211
H4A H -0.2327 0.0222 0.0293
H8A H 0.3039 -0.3825 -0.0199
H9A H 0.3398 -0.5102 0.0388
H10A H 0.4932 -0.3827 0.1114
H11A H 0.4707 -0.2601 0.0485
H3A H -0.4492 0.1303 0.0920
loop_
_geom_bond_atom_site_label_1
_geom_bond_atom_site_label_2
_geom_bond_site_symmetry_1
_geom_bond_site_symmetry_2
Bi1 Br1 1_555 1_555
Br2 Bi1 1_555 1_555
C1 Bi1 1_555 1_555
C2 C1 1_555 1_555
C3 C2 1_555 1_555
C4 C3 1_555 1_555
C5 C4 1_555 1_555
C6 C1 1_555 1_555
O1 Bi1 1_555 1_555
C7 O1 1_555 1_555
C8 C7 1_555 1_555
C9 C8 1_555 1_555
C10 O1 1_555 1_555
H1 C2 1_555 1_555
H2 C3 1_555 1_555
H3 C4 1_555 1_555
H4 C5 1_555 1_555
H5 C6 1_555 1_555
H6 C7 1_555 1_555
H7 C7 1_555 1_555
H8 C8 1_555 1_555
H9 C8 1_555 1_555
H10 C9 1_555 1_555
H11 C9 1_555 1_555
H12 C10 1_555 1_555
H13 C10 1_555 1_555
Br2A Bi1 1_555 1_555
Bi1A Br2 1_555 1_555
Bi1A_2 Br2A 1_555 1_555
Br1A Bi1A 1_555 1_555
Br2A_2 Bi1A 1_555 1_555
C1A Bi1A 1_555 1_555
O1A Bi1A 1_555 1_555
C2A C1A 1_555 1_555
C6A C1A 1_555 1_555
C7A O1A 1_555 1_555
C10A O1A 1_555 1_555
C3A C2A 1_555 1_555
H1A C2A 1_555 1_555
C5A C6A 1_555 1_555
H5A C6A 1_555 1_555
C8A C7A 1_555 1_555
H6A C7A 1_555 1_555
H7A C7A 1_555 1_555
C9A C10A 1_555 1_555
H12A C10A 1_555 1_555
H13A C10A 1_555 1_555
C4A C3A 1_555 1_555
H2A C3A 1_555 1_555
H4A C5A 1_555 1_555
H8A C8A 1_555 1_555
H9A C8A 1_555 1_555
H10A C9A 1_555 1_555
H11A C9A 1_555 1_555
H3A C4A 1_555 1_555
C5 C6 1_555 1_555
C9 C10 1_555 1_555
C5A C4A 1_555 1_555
C8A C9A 1_555 1_555

#END
