
#######################################################################
#
#                 Cambridge Crystallographic Data Centre
#                                CCDC 
#
#######################################################################
#
# If this CIF has been generated from an entry in the Cambridge 
# Structural Database, then it will include bibliographic, chemical, 
# crystal, experimental, refinement or atomic coordinate data resulting 
# from the CCDC's data processing and validation procedures.
#
#######################################################################

data_KUDPEF
_symmetry_cell_setting           triclinic
_symmetry_space_group_name_H-M   'P -1'
_symmetry_Int_Tables_number      2
_space_group_name_Hall           '-P 1'
loop_
_symmetry_equiv_pos_site_id
_symmetry_equiv_pos_as_xyz
1 x,y,z
2 -x,-y,-z
_cell_length_a                   8.981(2)
_cell_length_b                   11.618(3)
_cell_length_c                   13.385(4)
_cell_angle_alpha                74.974(5)
_cell_angle_beta                 72.754(5)
_cell_angle_gamma                70.018(5)
_cell_volume                     1233.96
loop_
_atom_site_label
_atom_site_type_symbol
_atom_site_fract_x
_atom_site_fract_y
_atom_site_fract_z
Cd1 Cd 0.96370(5) 0.33307(4) 0.25801(3)
N1 N 0.7462(5) 0.5103(4) 0.2071(3)
N2 N 0.7235(5) 0.3533(4) 0.3898(3)
N3 N 1.0138(5) 0.2076(4) 0.4185(3)
N4 N -0.0215(5) 0.3806(5) 0.6389(4)
O1 O 1.1169(5) 0.1679(4) 0.1492(3)
O2 O 0.8543(4) 0.2147(3) 0.1892(3)
O3 O 1.1129(4) 0.4471(3) 0.1496(2)
O4 O 1.2937(4) 0.3244(4) 0.2398(3)
C1 C 0.7668(6) 0.5951(5) 0.1200(4)
H1 H 0.8707 0.5864 0.0764
C2 C 0.6414(7) 0.6954(5) 0.0911(4)
H2 H 0.6607 0.7543 0.0306
C3 C 0.4885(6) 0.7060(5) 0.1535(4)
H3 H 0.4013 0.7717 0.1351
C4 C 0.4634(6) 0.6193(5) 0.2439(4)
H4 H 0.3599 0.6264 0.2878
C5 C 0.5951(6) 0.5210(4) 0.2686(4)
C6 C 0.5813(6) 0.4261(5) 0.3663(4)
C7 C 0.4343(6) 0.4137(4) 0.4310(4)
H5 H 0.3378 0.4655 0.4128
C8 C 0.4284(6) 0.3243(4) 0.5234(4)
C9 C 0.5777(6) 0.2506(5) 0.5457(4)
H6 H 0.5804 0.1894 0.6063
C10 C 0.7224(6) 0.2675(4) 0.4787(4)
C11 C 0.8855(6) 0.1947(5) 0.4991(4)
C12 C 0.9052(6) 0.1187(5) 0.5959(4)
H7 H 0.8154 0.1100 0.6507
C13 C 1.0612(7) 0.0563(5) 0.6088(4)
H8 H 1.0770 0.0046 0.6730
C14 C 1.1923(6) 0.0698(5) 0.5285(4)
H9 H 1.2980 0.0281 0.5364
C15 C 1.1620(6) 0.1480(5) 0.4345(4)
H10 H 1.2506 0.1593 0.3796
C16 C 0.2654(6) 0.2376(5) 0.6975(4)
H11 H 0.3607 0.1878 0.7183
C17 C 0.2735(6) 0.3132(5) 0.5987(4)
C18 C 0.1243(7) 0.3806(5) 0.5753(4)
H12 H 0.1258 0.4307 0.5086
C19 C 0.1182(6) 0.2358(5) 0.7648(4)
H13 H 0.1130 0.1847 0.8311
C20 C -0.0205(7) 0.3090(5) 0.7342(4)
H14 H -0.1197 0.3091 0.7821
C21 C 0.9902(8) 0.1580(5) 0.1390(4)
C22 C 0.9955(7) 0.0760(5) 0.0679(4)
C23 C 1.1404(7) -0.0019(5) 0.0235(4)
H15 H 1.2366 -0.0043 0.0380
C24 C 0.8560(7) 0.0777(5) 0.0433(4)
H16 H 0.7569 0.1308 0.0720
C25 C 1.2560(6) 0.4060(5) 0.1634(4)
C26 C 1.3825(6) 0.4575(5) 0.0805(4)
C27 C 1.5465(6) 0.3997(5) 0.0763(4)
H17 H 1.5782 0.3318 0.1282
C28 C 1.3368(6) 0.5585(5) 0.0036(4)
H18 H 1.2271 0.5983 0.0057
Cd1A Cd 1.03630(5) -0.33307(4) -0.25801(3)
Cd1A_2 Cd 2.03630(5) 0.66693(4) -0.25801(3)
N1A N 1.2538(5) -0.5103(4) -0.2071(3)
N2A N 1.2765(5) -0.3533(4) -0.3898(3)
N3A N 0.9862(5) -0.2076(4) -0.4185(3)
N4A N 2.0215(5) -0.3806(5) -0.6389(4)
O1A O 0.8831(5) -0.1679(4) -0.1492(3)
O2A O 1.1457(4) -0.2147(3) -0.1892(3)
O3A O 1.8871(4) 0.5529(3) -0.1496(2)
O3A_2 O 0.8871(4) -0.4471(3) -0.1496(2)
O4A O 1.7063(4) 0.6756(4) -0.2398(3)
C1A C 1.2332(6) -0.5951(5) -0.1200(4)
H1A H 1.1293 -0.5864 -0.0764
C2A C 1.3586(7) -0.6954(5) -0.0911(4)
H2A H 1.3393 -0.7543 -0.0306
C3A C 1.5115(6) -0.7060(5) -0.1535(4)
H3A H 1.5987 -0.7717 -0.1351
C4A C 1.5366(6) -0.6193(5) -0.2439(4)
H4A H 1.6401 -0.6264 -0.2878
C5A C 1.4049(6) -0.5210(4) -0.2686(4)
C6A C 1.4187(6) -0.4261(5) -0.3663(4)
C7A C 1.5657(6) -0.4137(4) -0.4310(4)
H5A H 1.6622 -0.4655 -0.4128
C8A C 1.5716(6) -0.3243(4) -0.5234(4)
C9A C 1.4223(6) -0.2506(5) -0.5457(4)
H6A H 1.4196 -0.1894 -0.6063
C10A C 1.2776(6) -0.2675(4) -0.4787(4)
C11A C 1.1145(6) -0.1947(5) -0.4991(4)
C12A C 1.0948(6) -0.1187(5) -0.5959(4)
H7A H 1.1846 -0.1100 -0.6507
C13A C 0.9388(7) -0.0563(5) -0.6088(4)
H8A H 0.9230 -0.0046 -0.6730
C14A C 0.8077(6) -0.0698(5) -0.5285(4)
H9A H 0.7020 -0.0281 -0.5364
C15A C 0.8380(6) -0.1480(5) -0.4345(4)
H10A H 0.7494 -0.1593 -0.3796
C16A C 1.7346(6) -0.2376(5) -0.6975(4)
H11A H 1.6393 -0.1878 -0.7183
C17A C 1.7265(6) -0.3132(5) -0.5987(4)
C18A C 1.8757(7) -0.3806(5) -0.5753(4)
H12A H 1.8742 -0.4307 -0.5086
C19A C 1.8818(6) -0.2358(5) -0.7648(4)
H13A H 1.8870 -0.1847 -0.8311
C20A C 2.0205(7) -0.3090(5) -0.7342(4)
H14A H 2.1197 -0.3091 -0.7821
C21A C 1.0098(8) -0.1580(5) -0.1390(4)
C22A C 1.0045(7) -0.0760(5) -0.0679(4)
C23A C 0.8596(7) 0.0019(5) -0.0235(4)
H15A H 0.7634 0.0043 -0.0380
C24A C 1.1440(7) -0.0777(5) -0.0433(4)
H16A H 1.2431 -0.1308 -0.0720
C25A C 1.7440(6) 0.5940(5) -0.1634(4)
C26A C 1.6175(6) 0.5425(5) -0.0805(4)
C27A C 1.4535(6) 0.6003(5) -0.0763(4)
H17A H 1.4218 0.6682 -0.1282
C28A C 1.6632(6) 0.4415(5) -0.0036(4)
H18A H 1.7729 0.4017 -0.0057
O5 O 0.5638(5) 0.1360(4) 0.3003(4)
H21 H 0.492(3) 0.193(4) 0.274(4)
H22 H 0.652(3) 0.154(5) 0.272(4)
O6 O 0.4119(7) 0.0001(6) 0.2086(4)
H19 H 0.439(7) 0.022(6) 0.255(3)
H20 H 0.466(6) 0.032(5) 0.1496(18)
loop_
_geom_bond_atom_site_label_1
_geom_bond_atom_site_label_2
_geom_bond_site_symmetry_1
_geom_bond_site_symmetry_2
Cd1 N1 1_555 1_555
N1 C1 1_555 1_555
N2 Cd1 1_555 1_555
N3 Cd1 1_555 1_555
N4 C18 1_555 1_555
O1 Cd1 1_555 1_555
O2 Cd1 1_555 1_555
O3 Cd1 1_555 1_555
O4 C25 1_555 1_555
C1 H1 1_555 1_555
C2 C1 1_555 1_555
H2 C2 1_555 1_555
C3 C2 1_555 1_555
H3 C3 1_555 1_555
C4 C3 1_555 1_555
H4 C4 1_555 1_555
C5 N1 1_555 1_555
C6 N2 1_555 1_555
C7 C6 1_555 1_555
H5 C7 1_555 1_555
C8 C7 1_555 1_555
C9 C8 1_555 1_555
H6 C9 1_555 1_555
C10 N2 1_555 1_555
C11 N3 1_555 1_555
C12 C11 1_555 1_555
H7 C12 1_555 1_555
C13 C12 1_555 1_555
H8 C13 1_555 1_555
C14 C13 1_555 1_555
H9 C14 1_555 1_555
C15 N3 1_555 1_555
H10 C15 1_555 1_555
C16 H11 1_555 1_555
C17 C8 1_555 1_555
C18 C17 1_555 1_555
H12 C18 1_555 1_555
C19 C16 1_555 1_555
H13 C19 1_555 1_555
C20 N4 1_555 1_555
H14 C20 1_555 1_555
C21 O1 1_555 1_555
C22 C21 1_555 1_555
C23 C22 1_555 1_555
H15 C23 1_555 1_555
C24 C22 1_555 1_555
H16 C24 1_555 1_555
C25 O3 1_555 1_555
C26 C25 1_555 1_555
C27 C26 1_555 1_555
H17 C27 1_555 1_555
C28 C26 1_555 1_555
H18 C28 1_555 1_555
O5 H21 1_555 1_555
O6 H19 1_555 1_555
H20 O6 1_555 1_555
H22 O5 1_555 1_555
Cd1A N1A 1_555 1_555
Cd1A_2 O3A 1_555 1_555
N1A C1A 1_555 1_555
N2A Cd1A 1_555 1_555
N3A Cd1A 1_555 1_555
N4A C18A 1_555 1_555
O1A Cd1A 1_555 1_555
O2A Cd1A 1_555 1_555
O3A C25A 1_555 1_555
O3A_2 Cd1A 1_555 1_555
O4A C25A 1_555 1_555
C1A H1A 1_555 1_555
C2A C1A 1_555 1_555
H2A C2A 1_555 1_555
C3A C2A 1_555 1_555
H3A C3A 1_555 1_555
C4A C3A 1_555 1_555
H4A C4A 1_555 1_555
C5A N1A 1_555 1_555
C6A N2A 1_555 1_555
C7A C6A 1_555 1_555
H5A C7A 1_555 1_555
C8A C7A 1_555 1_555
C9A C8A 1_555 1_555
H6A C9A 1_555 1_555
C10A N2A 1_555 1_555
C11A N3A 1_555 1_555
C12A C11A 1_555 1_555
H7A C12A 1_555 1_555
C13A C12A 1_555 1_555
H8A C13A 1_555 1_555
C14A C13A 1_555 1_555
H9A C14A 1_555 1_555
C15A N3A 1_555 1_555
H10A C15A 1_555 1_555
C16A H11A 1_555 1_555
C17A C8A 1_555 1_555
C18A C17A 1_555 1_555
H12A C18A 1_555 1_555
C19A C16A 1_555 1_555
H13A C19A 1_555 1_555
C20A N4A 1_555 1_555
H14A C20A 1_555 1_555
C21A O1A 1_555 1_555
C22A C21A 1_555 1_555
C23A C24 1_555 1_555
H15A C23A 1_555 1_555
C24A C23 1_555 1_555
H16A C24A 1_555 1_555
C25A C26A 1_555 1_555
C26A C27A 1_555 1_555
C27A C28 1_555 1_555
H17A C27A 1_555 1_555
C28A C27 1_555 1_555
H18A C28A 1_555 1_555
O2 C21 1_555 1_555
C4 C5 1_555 1_555
C5 C6 1_555 1_555
C9 C10 1_555 1_555
C10 C11 1_555 1_555
C14 C15 1_555 1_555
C16 C17 1_555 1_555
C19 C20 1_555 1_555
O2A C21A 1_555 1_555
C4A C5A 1_555 1_555
C5A C6A 1_555 1_555
C9A C10A 1_555 1_555
C10A C11A 1_555 1_555
C14A C15A 1_555 1_555
C16A C17A 1_555 1_555
C19A C20A 1_555 1_555
C22A C23A 1_555 1_555
C22A C24A 1_555 1_555
C26A C28A 1_555 1_555

#END
