
#######################################################################
#
#                 Cambridge Crystallographic Data Centre
#                                CCDC 
#
#######################################################################
#
# If this CIF has been generated from an entry in the Cambridge 
# Structural Database, then it will include bibliographic, chemical, 
# crystal, experimental, refinement or atomic coordinate data resulting 
# from the CCDC's data processing and validation procedures.
#
#######################################################################

data_KUDPUV
_symmetry_cell_setting           triclinic
_symmetry_space_group_name_H-M   'P -1'
_symmetry_Int_Tables_number      2
_space_group_name_Hall           '-P 1'
loop_
_symmetry_equiv_pos_site_id
_symmetry_equiv_pos_as_xyz
1 x,y,z
2 -x,-y,-z
_cell_length_a                   8.308(4)
_cell_length_b                   11.026(6)
_cell_length_c                   14.217(7)
_cell_angle_alpha                97.085(7)
_cell_angle_beta                 92.350(7)
_cell_angle_gamma                98.829(8)
_cell_volume                     1274.69
loop_
_atom_site_label
_atom_site_type_symbol
_atom_site_fract_x
_atom_site_fract_y
_atom_site_fract_z
Zn1 Zn 0.77554(9) 0.28638(7) 0.65563(5)
N1 N 0.5265(6) 0.1875(5) 0.6396(3)
N2 N 0.7213(6) 0.2464(4) 0.5102(3)
N3 N 1.0063(6) 0.3426(4) 0.5941(3)
N4 N 0.6617(9) 0.2665(6) 0.0583(5)
O1 O 0.7078(5) 0.4441(4) 0.7057(3)
O2 O 0.9280(7) 0.5671(5) 0.7785(3)
O3 O 0.8586(5) 0.2273(4) 0.7694(3)
O4 O 0.8327(5) 0.0487(4) 0.6760(3)
C1 C 0.4335(9) 0.1548(6) 0.7113(4)
H1 H 0.4786 0.1743 0.7733
C2 C 0.2757(8) 0.0941(7) 0.6965(5)
H2 H 0.2146 0.0744 0.7474
C3 C 0.2103(8) 0.0631(7) 0.6057(5)
H3 H 0.1036 0.0219 0.5946
C4 C 0.3005(8) 0.0921(6) 0.5300(4)
H4 H 0.2575 0.0699 0.4678
C5 C 0.4592(7) 0.1560(5) 0.5504(4)
C6 C 0.5704(7) 0.1940(5) 0.4756(4)
C7 C 0.5274(7) 0.1809(6) 0.3798(4)
H5 H 0.4216 0.1461 0.3573
C8 C 0.6428(7) 0.2198(5) 0.3165(4)
C9 C 0.8020(7) 0.2708(5) 0.3535(4)
H6 H 0.8825 0.2963 0.3134
C10 C 0.8368(7) 0.2823(5) 0.4513(4)
C11 C 0.9997(7) 0.3367(5) 0.4991(4)
C12 C 1.1356(8) 0.3752(6) 0.4496(4)
H7 H 1.1274 0.3705 0.3838
C13 C 1.2823(8) 0.4206(6) 0.4998(5)
H8 H 1.3743 0.4474 0.4683
C14 C 1.2913(8) 0.4257(6) 0.5976(5)
H9 H 1.3898 0.4535 0.6328
C15 C 1.1523(8) 0.3890(6) 0.6412(4)
H10 H 1.1579 0.3961 0.7071
C16 C 0.6920(9) 0.2800(6) 0.1542(5)
H11 H 0.7768 0.3407 0.1818
C17 C 0.6016(8) 0.2070(6) 0.2127(4)
C18 C 0.4721(8) 0.1214(7) 0.1696(5)
H12 H 0.4090 0.0710 0.2066
C19 C 0.4355(10) 0.1093(8) 0.0760(5)
H13 H 0.3463 0.0528 0.0484
C20 C 0.5293(12) 0.1796(9) 0.0230(5)
H14 H 0.5034 0.1692 -0.0420
C21 C 0.7868(9) 0.5097(7) 0.7799(4)
C22 C 0.7016(9) 0.5143(6) 0.8712(4)
C23 C 0.7897(8) 0.5663(6) 0.9574(4)
H15 H 0.9005 0.5968 0.9577
C24 C 0.7121(8) 0.5718(6) 1.0408(5)
H16 H 0.7718 0.6063 1.0970
C25 C 0.5383(8) 0.4687(6) 0.8722(4)
H17 H 0.4809 0.4337 0.8154
C26 C 0.5447(8) 0.5268(6) 1.0435(4)
C27 C 0.8676(7) 0.1122(7) 0.7549(4)
C28 C 0.9212(7) 0.0531(6) 0.8386(4)
C29 C 0.9405(7) -0.0731(6) 0.8247(4)
H18 H 0.9233 -0.1177 0.7643
C30 C 0.9842(7) -0.1289(6) 0.8995(4)
H19 H 0.9972 -0.2117 0.8897
C31 C 1.0105(7) -0.0627(5) 0.9932(4)
C32 C 0.9458(7) 0.1182(6) 0.9268(4)
H20 H 0.9338 0.2013 0.9349
Zn1A Zn 0.22446(9) 0.71362(7) 1.34437(5)
Zn1A_2 Zn 1.22446(9) -0.28638(7) 1.34437(5)
N1A N 0.4735(6) 0.8125(5) 1.3604(3)
N2A N 0.2787(6) 0.7536(4) 1.4898(3)
N3A N -0.0063(6) 0.6574(4) 1.4059(3)
N4A N 0.3383(9) 0.7335(6) 1.9417(5)
O1A O 0.2922(5) 0.5559(4) 1.2943(3)
O2A O 0.0720(7) 0.4329(5) 1.2215(3)
O3A O 1.1414(5) -0.2273(4) 1.2306(3)
O3A_2 O 0.1414(5) 0.7727(4) 1.2306(3)
O4A O 1.1673(5) -0.0487(4) 1.3240(3)
C1A C 0.5665(9) 0.8452(6) 1.2887(4)
H1A H 0.5214 0.8257 1.2267
C2A C 0.7243(8) 0.9059(7) 1.3035(5)
H2A H 0.7854 0.9256 1.2526
C3A C 0.7897(8) 0.9369(7) 1.3943(5)
H3A H 0.8964 0.9781 1.4054
C4A C 0.6995(8) 0.9079(6) 1.4700(4)
H4A H 0.7425 0.9301 1.5322
C5A C 0.5408(7) 0.8440(5) 1.4496(4)
C6A C 0.4296(7) 0.8060(5) 1.5244(4)
C7A C 0.4726(7) 0.8191(6) 1.6202(4)
H5A H 0.5784 0.8539 1.6427
C8A C 0.3572(7) 0.7802(5) 1.6835(4)
C9A C 0.1980(7) 0.7292(5) 1.6465(4)
H6A H 0.1175 0.7037 1.6866
C10A C 0.1632(7) 0.7177(5) 1.5487(4)
C11A C 0.0003(7) 0.6633(5) 1.5009(4)
C12A C -0.1356(8) 0.6248(6) 1.5504(4)
H7A H -0.1274 0.6295 1.6162
C13A C -0.2823(8) 0.5794(6) 1.5002(5)
H8A H -0.3743 0.5526 1.5317
C14A C -0.2913(8) 0.5743(6) 1.4024(5)
H9A H -0.3898 0.5465 1.3672
C15A C -0.1523(8) 0.6110(6) 1.3588(4)
H10A H -0.1579 0.6039 1.2929
C16A C 0.3080(9) 0.7200(6) 1.8458(5)
H11A H 0.2232 0.6593 1.8182
C17A C 0.3984(8) 0.7930(6) 1.7873(4)
C18A C 0.5279(8) 0.8786(7) 1.8304(5)
H12A H 0.5910 0.9290 1.7934
C19A C 0.5645(10) 0.8907(8) 1.9240(5)
H13A H 0.6537 0.9472 1.9516
C20A C 0.4707(12) 0.8204(9) 1.9770(5)
H14A H 0.4966 0.8308 2.0420
C21A C 0.2132(9) 0.4903(7) 1.2201(4)
C22A C 0.2984(9) 0.4857(6) 1.1288(4)
C23A C 0.2103(8) 0.4337(6) 1.0426(4)
H15A H 0.0995 0.4032 1.0423
C24A C 0.2879(8) 0.4282(6) 0.9592(5)
H16A H 0.2282 0.3937 0.9030
C25A C 0.4617(8) 0.5313(6) 1.1278(4)
H17A H 0.5191 0.5663 1.1846
C26A C 0.4553(8) 0.4732(6) 0.9565(4)
C27A C 1.1324(7) -0.1122(7) 1.2451(4)
C28A C 1.0788(7) -0.0531(6) 1.1614(4)
C29A C 1.0595(7) 0.0731(6) 1.1753(4)
H18A H 1.0767 0.1177 1.2357
C30A C 1.0158(7) 0.1289(6) 1.1005(4)
H19A H 1.0028 0.2117 1.1103
C31A C 0.9895(7) 0.0627(5) 1.0068(4)
C32A C 1.0542(7) -0.1182(6) 1.0732(4)
H20A H 1.0662 -0.2013 1.0651
loop_
_geom_bond_atom_site_label_1
_geom_bond_atom_site_label_2
_geom_bond_site_symmetry_1
_geom_bond_site_symmetry_2
Zn1 N1 1_555 1_555
N1 C1 1_555 1_555
N2 Zn1 1_555 1_555
N3 Zn1 1_555 1_555
N4 C16 1_555 1_555
O1 Zn1 1_555 1_555
O2 C21 1_555 1_555
O3 Zn1 1_555 1_555
O4 C27 1_555 1_555
C1 H1 1_555 1_555
C2 C1 1_555 1_555
H2 C2 1_555 1_555
C3 C2 1_555 1_555
H3 C3 1_555 1_555
C4 C3 1_555 1_555
H4 C4 1_555 1_555
C5 N1 1_555 1_555
C6 N2 1_555 1_555
C7 C6 1_555 1_555
H5 C7 1_555 1_555
C8 C7 1_555 1_555
C9 C8 1_555 1_555
H6 C9 1_555 1_555
C10 N2 1_555 1_555
C11 N3 1_555 1_555
C12 C11 1_555 1_555
H7 C12 1_555 1_555
C13 C12 1_555 1_555
H8 C13 1_555 1_555
C14 C13 1_555 1_555
H9 C14 1_555 1_555
C15 N3 1_555 1_555
H10 C15 1_555 1_555
C16 H11 1_555 1_555
C17 C8 1_555 1_555
C18 C17 1_555 1_555
H12 C18 1_555 1_555
C19 C18 1_555 1_555
H13 C19 1_555 1_555
C20 N4 1_555 1_555
H14 C20 1_555 1_555
C21 O1 1_555 1_555
C22 C21 1_555 1_555
C23 C22 1_555 1_555
H15 C23 1_555 1_555
C24 C23 1_555 1_555
H16 C24 1_555 1_555
C25 C22 1_555 1_555
H17 C25 1_555 1_555
C26 C24 1_555 1_555
C27 O3 1_555 1_555
C28 C27 1_555 1_555
C29 C28 1_555 1_555
H18 C29 1_555 1_555
C30 C29 1_555 1_555
H19 C30 1_555 1_555
C31 C30 1_555 1_555
C32 C28 1_555 1_555
H20 C32 1_555 1_555
Zn1A N1A 1_555 1_555
Zn1A_2 O3A 1_555 1_555
N1A C1A 1_555 1_555
N2A Zn1A 1_555 1_555
N3A Zn1A 1_555 1_555
N4A C16A 1_555 1_555
O1A Zn1A 1_555 1_555
O2A C21A 1_555 1_555
O3A C27A 1_555 1_555
O3A_2 Zn1A 1_555 1_555
O4A C27A 1_555 1_555
C1A H1A 1_555 1_555
C2A C1A 1_555 1_555
H2A C2A 1_555 1_555
C3A C2A 1_555 1_555
H3A C3A 1_555 1_555
C4A C3A 1_555 1_555
H4A C4A 1_555 1_555
C5A N1A 1_555 1_555
C6A N2A 1_555 1_555
C7A C6A 1_555 1_555
H5A C7A 1_555 1_555
C8A C7A 1_555 1_555
C9A C8A 1_555 1_555
H6A C9A 1_555 1_555
C10A N2A 1_555 1_555
C11A N3A 1_555 1_555
C12A C11A 1_555 1_555
H7A C12A 1_555 1_555
C13A C12A 1_555 1_555
H8A C13A 1_555 1_555
C14A C13A 1_555 1_555
H9A C14A 1_555 1_555
C15A N3A 1_555 1_555
H10A C15A 1_555 1_555
C16A H11A 1_555 1_555
C17A C8A 1_555 1_555
C18A C17A 1_555 1_555
H12A C18A 1_555 1_555
C19A C18A 1_555 1_555
H13A C19A 1_555 1_555
C20A N4A 1_555 1_555
H14A C20A 1_555 1_555
C21A O1A 1_555 1_555
C22A C21A 1_555 1_555
C23A C22A 1_555 1_555
H15A C23A 1_555 1_555
C24A C23A 1_555 1_555
H16A C24A 1_555 1_555
C25A C26 1_555 1_555
H17A C25A 1_555 1_555
C26A C25 1_555 1_555
C27A C28A 1_555 1_555
C28A C29A 1_555 1_555
C29A H18A 1_555 1_555
C30A C29A 1_555 1_555
H19A C30A 1_555 1_555
C31A C31 1_555 1_555
C32A C31 1_555 1_555
H20A C32A 1_555 1_555
C4 C5 1_555 1_555
C5 C6 1_555 1_555
C9 C10 1_555 1_555
C10 C11 1_555 1_555
C14 C15 1_555 1_555
C16 C17 1_555 1_555
C19 C20 1_555 1_555
C26 C26A 1_555 1_555
C32 C31A 1_555 1_555
C4A C5A 1_555 1_555
C5A C6A 1_555 1_555
C9A C10A 1_555 1_555
C10A C11A 1_555 1_555
C14A C15A 1_555 1_555
C16A C17A 1_555 1_555
C19A C20A 1_555 1_555
C22A C25A 1_555 1_555
C24A C26A 1_555 1_555
C28A C32A 1_555 1_555
C30A C31A 1_555 1_555

#END
