
#######################################################################
#
#                 Cambridge Crystallographic Data Centre
#                                CCDC 
#
#######################################################################
#
# If this CIF has been generated from an entry in the Cambridge 
# Structural Database, then it will include bibliographic, chemical, 
# crystal, experimental, refinement or atomic coordinate data resulting 
# from the CCDC's data processing and validation procedures.
#
#######################################################################

data_KUDPIJ
_symmetry_cell_setting           triclinic
_symmetry_space_group_name_H-M   'P -1'
_symmetry_Int_Tables_number      2
_space_group_name_Hall           '-P 1'
loop_
_symmetry_equiv_pos_site_id
_symmetry_equiv_pos_as_xyz
1 x,y,z
2 -x,-y,-z
_cell_length_a                   9.923(5)
_cell_length_b                   10.087(5)
_cell_length_c                   11.673(5)
_cell_angle_alpha                76.360(8)
_cell_angle_beta                 75.767(7)
_cell_angle_gamma                87.518(7)
_cell_volume                     1100.45
loop_
_atom_site_label
_atom_site_type_symbol
_atom_site_fract_x
_atom_site_fract_y
_atom_site_fract_z
Cd1 Cd 0.91759(3) 0.97119(3) 0.17890(3)
N1 N 0.8087(3) 1.1833(3) 0.1240(2)
N2 N 0.6772(3) 0.9467(3) 0.2419(2)
N3 N 0.8572(3) 0.7405(3) 0.2624(2)
N4 N 0.1040(3) 0.9604(3) 0.6304(2)
O1 O 1.1421(2) 0.9104(3) 0.1737(2)
O2 O 1.1276(2) 1.0795(3) 0.0206(2)
C1 C 0.8759(4) 1.2956(4) 0.0502(3)
H1 H 0.9718 1.2931 0.0214
C2 C 0.8085(4) 1.4142(4) 0.0153(3)
H2 H 0.8582 1.4902 -0.0367
C3 C 0.6669(4) 1.4200(4) 0.0580(3)
H3 H 0.6196 1.4997 0.0357
C4 C 0.5966(4) 1.3058(4) 0.1341(3)
H4 H 0.5009 1.3079 0.1647
C5 C 0.6683(3) 1.1881(4) 0.1651(3)
C6 C 0.5987(3) 1.0578(3) 0.2428(3)
C7 C 0.4617(3) 1.0490(4) 0.3105(3)
H5 H 0.4085 1.1271 0.3122
C8 C 0.4056(3) 0.9226(4) 0.3752(3)
C9 C 0.4856(3) 0.8068(4) 0.3695(3)
H6 H 0.4481 0.7205 0.4094
C10 C 0.6224(3) 0.8228(4) 0.3031(3)
C11 C 0.7208(3) 0.7068(4) 0.2954(3)
C12 C 0.6758(4) 0.5722(4) 0.3223(3)
H7 H 0.5813 0.5506 0.3451
C13 C 0.7732(4) 0.4711(4) 0.3148(3)
H8 H 0.7452 0.3803 0.3308
C14 C 0.9114(4) 0.5053(4) 0.2837(3)
H9 H 0.9784 0.4381 0.2799
C15 C 0.9501(4) 0.6400(4) 0.2580(3)
H10 H 1.0443 0.6626 0.2368
C16 C 0.2236(3) 0.9803(3) 0.5440(3)
H11 H 0.2845 1.0481 0.5436
C17 C 0.2621(3) 0.9063(3) 0.4554(3)
C18 C 0.1677(4) 0.8109(3) 0.4513(3)
H12 H 0.1896 0.7589 0.3934
C19 C 0.0413(3) 0.7949(4) 0.5344(3)
H13 H -0.0254 0.7346 0.5315
C20 C 0.0149(4) 0.8694(4) 0.6218(3)
H14 H -0.0703 0.8557 0.6786
C21 C 1.1989(4) 0.9970(4) 0.0801(4)
C22 C 1.3558(3) 1.0004(4) 0.0391(3)
C23 C 1.4289(3) 0.8820(4) 0.0702(3)
H15 H 1.3815 0.8027 0.1177
C24 C 1.4282(3) 1.1177(4) -0.0305(3)
H16 H 1.3800 1.1975 -0.0508
Cd1A Cd 0.08241(3) 1.02881(3) 0.82110(3)
Cd1A_2 Cd 1.08241(3) 1.02881(3) -0.17890(3)
Cd1A_3 Cd 2.08241(3) 1.02881(3) -0.17890(3)
Cd1_2 Cd 1.91759(3) 0.97119(3) 0.17890(3)
N1A N 0.1913(3) 0.8167(3) 0.8760(2)
N2A N 0.3228(3) 1.0533(3) 0.7581(2)
N3A N 0.1428(3) 1.2595(3) 0.7376(2)
N4A N 0.8960(3) 1.0396(3) 0.3696(2)
O1A O 1.8579(2) 1.0896(3) -0.1737(2)
O1A_2 O -0.1421(2) 1.0896(3) 0.8263(2)
O2A O 1.8724(2) 0.9205(3) -0.0206(2)
O2A_2 O 0.8724(2) 0.9205(3) -0.0206(2)
O2A_3 O -0.1276(2) 0.9205(3) 0.9794(2)
O2_2 O 0.1276(2) 1.0795(3) 1.0206(2)
C1A C 0.1241(4) 0.7044(4) 0.9498(3)
H1A H 0.0282 0.7069 0.9786
C2A C 0.1915(4) 0.5858(4) 0.9847(3)
H2A H 0.1418 0.5098 1.0367
C3A C 0.3331(4) 0.5800(4) 0.9420(3)
H3A H 0.3804 0.5003 0.9643
C4A C 0.4034(4) 0.6942(4) 0.8659(3)
H4A H 0.4991 0.6921 0.8353
C5A C 0.3317(3) 0.8119(4) 0.8349(3)
C6A C 0.4013(3) 0.9422(3) 0.7572(3)
C7A C 0.5383(3) 0.9510(4) 0.6895(3)
H5A H 0.5915 0.8729 0.6878
C8A C 0.5944(3) 1.0774(4) 0.6248(3)
C9A C 0.5144(3) 1.1932(4) 0.6305(3)
H6A H 0.5519 1.2795 0.5906
C10A C 0.3776(3) 1.1772(4) 0.6969(3)
C11A C 0.2792(3) 1.2932(4) 0.7046(3)
C12A C 0.3242(4) 1.4278(4) 0.6777(3)
H7A H 0.4187 1.4494 0.6549
C13A C 0.2268(4) 1.5289(4) 0.6852(3)
H8A H 0.2548 1.6197 0.6692
C14A C 0.0886(4) 1.4947(4) 0.7163(3)
H9A H 0.0216 1.5619 0.7201
C15A C 0.0499(4) 1.3600(4) 0.7420(3)
H10A H -0.0443 1.3374 0.7632
C16A C 0.7764(3) 1.0197(3) 0.4560(3)
H11A H 0.7155 0.9519 0.4564
C17A C 0.7379(3) 1.0937(3) 0.5446(3)
C18A C 0.8323(4) 1.1891(3) 0.5487(3)
H12A H 0.8104 1.2411 0.6066
C19A C 0.9587(3) 1.2051(4) 0.4656(3)
H13A H 1.0254 1.2654 0.4685
C20A C 0.9851(4) 1.1306(4) 0.3782(3)
H14A H 1.0703 1.1443 0.3214
C21A C 1.8011(4) 1.0030(4) -0.0801(4)
C22A C 1.6442(3) 0.9996(4) -0.0391(3)
C23A C 1.5711(3) 1.1180(4) -0.0702(3)
H15A H 1.6185 1.1973 -0.1177
C24A C 1.5718(3) 0.8823(4) 0.0305(3)
H16A H 1.6200 0.8025 0.0508
Cl1 Cl 0.29629(10) 0.43804(10) 0.33026(10)
O3 O 0.1797(3) 0.4795(3) 0.4124(3)
O4 O 0.3692(3) 0.5535(3) 0.2495(3)
O5 O 0.2485(3) 0.3571(3) 0.2615(3)
O6 O 0.3891(3) 0.3602(3) 0.3949(3)
loop_
_geom_bond_atom_site_label_1
_geom_bond_atom_site_label_2
_geom_bond_site_symmetry_1
_geom_bond_site_symmetry_2
Cd1 N1 1_555 1_555
N1 C1 1_555 1_555
N2 Cd1 1_555 1_555
N3 Cd1 1_555 1_555
N4 C16 1_555 1_555
O1 Cd1 1_555 1_555
O2 Cd1 1_555 1_555
C1 H1 1_555 1_555
C2 C1 1_555 1_555
H2 C2 1_555 1_555
C3 C2 1_555 1_555
H3 C3 1_555 1_555
C4 C3 1_555 1_555
H4 C4 1_555 1_555
C5 N1 1_555 1_555
C6 N2 1_555 1_555
C7 C6 1_555 1_555
H5 C7 1_555 1_555
C8 C7 1_555 1_555
C9 C8 1_555 1_555
H6 C9 1_555 1_555
C10 N2 1_555 1_555
C11 N3 1_555 1_555
C12 C11 1_555 1_555
H7 C12 1_555 1_555
C13 C12 1_555 1_555
H8 C13 1_555 1_555
C14 C13 1_555 1_555
H9 C14 1_555 1_555
C15 N3 1_555 1_555
H10 C15 1_555 1_555
C16 H11 1_555 1_555
C17 C8 1_555 1_555
C18 C17 1_555 1_555
H12 C18 1_555 1_555
C19 C18 1_555 1_555
H13 C19 1_555 1_555
C20 N4 1_555 1_555
H14 C20 1_555 1_555
C21 O1 1_555 1_555
C22 C21 1_555 1_555
C23 C22 1_555 1_555
H15 C23 1_555 1_555
C24 C22 1_555 1_555
H16 C24 1_555 1_555
Cl1 O3 1_555 1_555
O4 Cl1 1_555 1_555
O5 Cl1 1_555 1_555
O6 Cl1 1_555 1_555
Cd1A N4 1_555 1_555
Cd1A_2 O2 1_555 1_555
Cd1A_3 O1A 1_555 1_555
Cd1_2 O2A 1_555 1_555
N1A Cd1A 1_555 1_555
N2A Cd1A 1_555 1_555
N3A Cd1A 1_555 1_555
N4A Cd1 1_555 1_555
O1A C21A 1_555 1_555
O1A_2 Cd1A 1_555 1_555
O2A Cd1A_3 1_555 1_555
O2A_2 Cd1 1_555 1_555
O2A_3 Cd1A 1_555 1_555
O2_2 Cd1A 1_555 1_555
C1A N1A 1_555 1_555
H1A C1A 1_555 1_555
C2A C1A 1_555 1_555
H2A C2A 1_555 1_555
C3A C2A 1_555 1_555
H3A C3A 1_555 1_555
C4A C3A 1_555 1_555
H4A C4A 1_555 1_555
C5A N1A 1_555 1_555
C6A N2A 1_555 1_555
C7A C6A 1_555 1_555
H5A C7A 1_555 1_555
C8A C7A 1_555 1_555
C9A C8A 1_555 1_555
H6A C9A 1_555 1_555
C10A N2A 1_555 1_555
C11A N3A 1_555 1_555
C12A C11A 1_555 1_555
H7A C12A 1_555 1_555
C13A C12A 1_555 1_555
H8A C13A 1_555 1_555
C14A C13A 1_555 1_555
H9A C14A 1_555 1_555
C15A N3A 1_555 1_555
H10A C15A 1_555 1_555
C16A N4A 1_555 1_555
H11A C16A 1_555 1_555
C17A C8A 1_555 1_555
C18A C17A 1_555 1_555
H12A C18A 1_555 1_555
C19A C18A 1_555 1_555
H13A C19A 1_555 1_555
C20A N4A 1_555 1_555
H14A C20A 1_555 1_555
C21A O2A 1_555 1_555
C22A C21A 1_555 1_555
C23A C24 1_555 1_555
H15A C23A 1_555 1_555
C24A C23 1_555 1_555
H16A C24A 1_555 1_555
O2 C21 1_555 1_555
C4 C5 1_555 1_555
C5 C6 1_555 1_555
C9 C10 1_555 1_555
C10 C11 1_555 1_555
C14 C15 1_555 1_555
C16 C17 1_555 1_555
C19 C20 1_555 1_555
Cd1A_2 O2A_2 1_555 1_555
C4A C5A 1_555 1_555
C5A C6A 1_555 1_555
C9A C10A 1_555 1_555
C10A C11A 1_555 1_555
C14A C15A 1_555 1_555
C16A C17A 1_555 1_555
C19A C20A 1_555 1_555
C22A C23A 1_555 1_555
C22A C24A 1_555 1_555

#END
