
#######################################################################
#
#                 Cambridge Crystallographic Data Centre
#                                CCDC 
#
#######################################################################
#
# If this CIF has been generated from an entry in the Cambridge 
# Structural Database, then it will include bibliographic, chemical, 
# crystal, experimental, refinement or atomic coordinate data resulting 
# from the CCDC's data processing and validation procedures.
#
#######################################################################

data_KUDRAC
_symmetry_cell_setting           triclinic
_symmetry_space_group_name_H-M   'P -1'
_symmetry_Int_Tables_number      2
_space_group_name_Hall           '-P 1'
loop_
_symmetry_equiv_pos_site_id
_symmetry_equiv_pos_as_xyz
1 x,y,z
2 -x,-y,-z
_cell_length_a                   8.308(4)
_cell_length_b                   9.657(5)
_cell_length_c                   17.567(8)
_cell_angle_alpha                87.44(4)
_cell_angle_beta                 83.95(4)
_cell_angle_gamma                88.05(3)
_cell_volume                     1399.55
loop_
_atom_site_label
_atom_site_type_symbol
_atom_site_fract_x
_atom_site_fract_y
_atom_site_fract_z
Bi1 Bi 0.0445(1) 0.8041(1) 0.2419(1)
Bi2 Bi 0.0580(1) 1.2992(1) 0.2607(1)
I1 I -0.1109(3) 0.8265(2) 0.1025(1)
I2 I 0.2269(3) 1.2907(2) 0.3967(1)
I3 I -0.1585(2) 1.0385(2) 0.3190(1)
I4 I 0.2578(2) 0.5378(1) 0.1817(1)
O1 O 0.2176(21) 0.7959(22) 0.3710(9)
C1 C 0.1884(27) 0.8718(31) 0.4398(13)
C2 C 0.3465(30) 0.8768(31) 0.4624(17)
C3 C 0.4514(25) 0.7788(27) 0.4218(13)
C4 C 0.3707(28) 0.7219(33) 0.3638(17)
O2 O -0.1321(23) 1.3051(19) 0.1372(9)
C5 C -0.1127(27) 1.4160(23) 0.0813(13)
C6 C -0.2829(28) 1.4393(19) 0.0600(15)
C7 C -0.3486(34) 1.2963(24) 0.0685(14)
C8 C -0.2816(28) 1.2374(25) 0.1395(14)
C9 C -0.2543(21) 0.5964(17) 0.2663(7)
C10 C -0.3477 0.4924 0.3046
C11 C -0.3170 0.4452 0.3780
C12 C -0.1931 0.5020 0.4132
C13 C -0.0997 0.6061 0.3749
C14 C -0.1304 0.6533 0.3014
C15 C 0.1942(20) 1.1188(18) 0.1208(8)
C16 C 0.2909 1.0199 0.0805
C17 C 0.4179 0.9518 0.1142
C18 C 0.4483 0.9825 0.1881
C19 C 0.3515 1.0813 0.2284
C20 C 0.2245 1.1495 0.1947
H1 H 0.1175 0.8225 0.4776
H2 H 0.1428 0.9626 0.4300
H3 H 0.3857 0.9688 0.4516
H4 H 0.3435 0.8548 0.5163
H5 H 0.4840 0.7065 0.4568
H6 H 0.5452 0.8258 0.3985
H7 H 0.4281 0.7378 0.3140
H8 H 0.3573 0.6242 0.3736
H9 H -0.0756 1.4975 0.1026
H10 H -0.0389 1.3904 0.0381
H11 H -0.2812 1.4743 0.0079
H12 H -0.3445 1.5023 0.0933
H13 H -0.4649 1.3000 0.0755
H14 H -0.3127 1.2422 0.0250
H15 H -0.2656 1.1386 0.1377
H16 H -0.3516 1.2595 0.1846
H17 H -0.2754 0.6289 0.2157
H18 H -0.4330 0.4533 0.2804
H19 H -0.3813 0.3736 0.4043
H20 H -0.1720 0.4695 0.4637
H21 H -0.0144 0.6452 0.3991
H22 H 0.1067 1.1657 0.0977
H23 H 0.2700 0.9988 0.0297
H24 H 0.4845 0.8838 0.0864
H25 H 0.5357 0.9356 0.2112
H26 H 0.3724 1.1024 0.2792
I4_2 I 0.2578(2) 1.5378(1) 0.1817(1)
Bi2_2 Bi 0.0580(1) 0.2992(1) 0.2607(1)
loop_
_geom_bond_atom_site_label_1
_geom_bond_atom_site_label_2
_geom_bond_site_symmetry_1
_geom_bond_site_symmetry_2
Bi1 I1 1_555 1_555
Bi2 I2 1_555 1_555
I3 Bi1 1_555 1_555
I4 Bi1 1_555 1_555
O1 Bi1 1_555 1_555
C1 O1 1_555 1_555
C2 C1 1_555 1_555
C3 C2 1_555 1_555
C4 O1 1_555 1_555
O2 Bi2 1_555 1_555
C5 O2 1_555 1_555
C6 C5 1_555 1_555
C7 C6 1_555 1_555
C8 O2 1_555 1_555
C9 C10 1_555 1_555
C10 C11 1_555 1_555
C11 C12 1_555 1_555
C12 C13 1_555 1_555
C13 C14 1_555 1_555
C14 Bi1 1_555 1_555
C15 C16 1_555 1_555
C16 C17 1_555 1_555
C17 C18 1_555 1_555
C18 C19 1_555 1_555
C19 C20 1_555 1_555
C20 Bi2 1_555 1_555
H1 C1 1_555 1_555
H2 C1 1_555 1_555
H3 C2 1_555 1_555
H4 C2 1_555 1_555
H5 C3 1_555 1_555
H6 C3 1_555 1_555
H7 C4 1_555 1_555
H8 C4 1_555 1_555
H9 C5 1_555 1_555
H10 C5 1_555 1_555
H11 C6 1_555 1_555
H12 C6 1_555 1_555
H13 C7 1_555 1_555
H14 C7 1_555 1_555
H15 C8 1_555 1_555
H16 C8 1_555 1_555
H17 C9 1_555 1_555
H18 C10 1_555 1_555
H19 C11 1_555 1_555
H20 C12 1_555 1_555
H21 C13 1_555 1_555
H22 C15 1_555 1_555
H23 C16 1_555 1_555
H24 C17 1_555 1_555
H25 C18 1_555 1_555
H26 C19 1_555 1_555
I4_2 Bi2 1_555 1_555
Bi2_2 I4 1_555 1_555
Bi2 I3 1_555 1_555
C3 C4 1_555 1_555
C7 C8 1_555 1_555
C9 C14 1_555 1_555
C15 C20 1_555 1_555

#END
