
#######################################################################
#
#                 Cambridge Crystallographic Data Centre
#                                CCDC 
#
#######################################################################
#
# If this CIF has been generated from an entry in the Cambridge 
# Structural Database, then it will include bibliographic, chemical, 
# crystal, experimental, refinement or atomic coordinate data resulting 
# from the CCDC's data processing and validation procedures.
#
#######################################################################

data_KUDTIO
_symmetry_cell_setting           monoclinic
_symmetry_space_group_name_H-M   'P 21/c'
_symmetry_Int_Tables_number      14
_space_group_name_Hall           '-P 2ybc'
loop_
_symmetry_equiv_pos_site_id
_symmetry_equiv_pos_as_xyz
1 x,y,z
2 -x,1/2+y,1/2-z
3 -x,-y,-z
4 x,1/2-y,1/2+z
_cell_length_a                   12.8827(9)
_cell_length_b                   8.2194(6)
_cell_length_c                   23.9494(16)
_cell_angle_alpha                90
_cell_angle_beta                 103.9710(10)
_cell_angle_gamma                90
_cell_volume                     2460.94
loop_
_atom_site_label
_atom_site_type_symbol
_atom_site_fract_x
_atom_site_fract_y
_atom_site_fract_z
Pr1 Pr 0.155466(17) 1.03822(3) 0.047803(9)
S1 S 1.17273(8) 0.33165(13) 0.17991(4)
S2 S 0.94425(8) 0.89050(13) 0.11608(4)
N1 N 0.3188(3) 0.9079(4) 0.01235(14)
N2 N 0.3236(3) 0.9402(4) 0.12612(15)
N3 N 0.6861(3) 0.6858(4) 0.07190(15)
N4 N 0.6937(3) 0.7260(4) 0.16511(15)
H1 H 0.7183 0.7262 0.2018
O1 O 1.1746(2) 0.2166(4) 0.22562(12)
O2 O 1.2590(2) 0.4501(4) 0.19350(14)
O3 O 1.1676(2) 0.2517(4) 0.12455(12)
O4 O 1.0545(2) 0.9354(3) 0.11777(13)
O5 O 0.8777(2) 0.8915(4) 0.05718(12)
O6 O 0.8969(2) 0.9816(4) 0.15505(14)
O7 O 0.1558(2) 0.7236(4) 0.04584(14)
O8 O 0.0213(2) 0.8322(4) -0.01479(13)
C1 C 0.3128(4) 0.8771(6) -0.04267(19)
H2 H 0.2516 0.9102 -0.0696
C2 C 0.3925(4) 0.7982(7) -0.0626(2)
H3 H 0.3831 0.7764 -0.1017
C3 C 0.4842(4) 0.7535(6) -0.0243(2)
H4 H 0.5384 0.7010 -0.0368
C4 C 0.4959(3) 0.7877(5) 0.03415(18)
C5 C 0.5897(3) 0.7510(5) 0.07846(18)
C6 C 0.5935(3) 0.7769(5) 0.13529(17)
C7 C 0.5058(3) 0.8408(5) 0.15508(18)
C8 C 0.5025(3) 0.8543(6) 0.21290(19)
H5 H 0.5624 0.8290 0.2420
C9 C 0.4098(4) 0.9054(7) 0.2260(2)
H6 H 0.4055 0.9126 0.2642
C10 C 0.3223(4) 0.9465(6) 0.18158(19)
H7 H 0.2598 0.9801 0.1911
C11 C 0.4133(3) 0.8847(5) 0.11233(17)
C12 C 0.4097(3) 0.8611(5) 0.05141(17)
C13 C 0.7463(3) 0.6753(5) 0.12523(18)
C14 C 0.8549(3) 0.6011(5) 0.14237(17)
C15 C 0.8625(4) 0.4425(5) 0.1622(2)
H8 H 0.8012 0.3887 0.1663
C16 C 0.9605(3) 0.3622(5) 0.1761(2)
H9 H 0.9647 0.2553 0.1892
C17 C 1.0518(3) 0.4430(5) 0.17032(17)
C18 C 1.0472(3) 0.6045(5) 0.15337(16)
H10 H 1.1094 0.6597 0.1517
C19 C 0.9485(3) 0.6840(5) 0.13881(17)
C20 C 0.0733(3) 0.7070(5) 0.00714(19)
C21 C 0.0351(5) 0.5409(6) -0.0153(3)
H11 H 0.0549 0.4938 -0.0465
O9 O 0.2589(2) 1.2693(4) 0.03058(13)
O7B O -0.1558(2) 0.2764(4) -0.04584(14)
O8B O -0.0213(2) 0.1678(4) 0.01479(13)
C20B C -0.0733(3) 0.2930(5) -0.00714(19)
C21B C -0.0351(5) 0.4591(6) 0.0153(3)
H11B H -0.0549 0.5062 0.0465
Pr1B Pr -0.155466(17) -0.03822(3) -0.047803(9)
S1B S -1.17273(8) 0.66835(13) -0.17991(4)
S2B S -0.94425(8) 0.10950(13) -0.11608(4)
N1B N -0.3188(3) 0.0921(4) -0.01235(14)
N2B N -0.3236(3) 0.0598(4) -0.12612(15)
N3B N -0.6861(3) 0.3142(4) -0.07190(15)
N4B N -0.6937(3) 0.2740(4) -0.16511(15)
H1B H -0.7183 0.2738 -0.2018
O1B O -1.1746(2) 0.7834(4) -0.22562(12)
O2B O -1.2590(2) 0.5499(4) -0.19350(14)
O3B O -1.1676(2) 0.7483(4) -0.12455(12)
O4B O -1.0545(2) 0.0646(3) -0.11777(13)
O5B O -0.8777(2) 0.1085(4) -0.05718(12)
O6B O -0.8969(2) 0.0184(4) -0.15505(14)
C1B C -0.3128(4) 0.1229(6) 0.04267(19)
H2B H -0.2516 0.0898 0.0696
C2B C -0.3925(4) 0.2018(7) 0.0626(2)
H3B H -0.3831 0.2236 0.1017
C3B C -0.4842(4) 0.2465(6) 0.0243(2)
H4B H -0.5384 0.2990 0.0368
C4B C -0.4959(3) 0.2123(5) -0.03415(18)
C5B C -0.5897(3) 0.2490(5) -0.07846(18)
C6B C -0.5935(3) 0.2231(5) -0.13529(17)
C7B C -0.5058(3) 0.1592(5) -0.15508(18)
C8B C -0.5025(3) 0.1457(6) -0.21290(19)
H5B H -0.5624 0.1710 -0.2420
C9B C -0.4098(4) 0.0946(7) -0.2260(2)
H6B H -0.4055 0.0874 -0.2642
C10B C -0.3223(4) 0.0535(6) -0.18158(19)
H7B H -0.2598 0.0199 -0.1911
C11B C -0.4133(3) 0.1153(5) -0.11233(17)
C12B C -0.4097(3) 0.1389(5) -0.05141(17)
C13B C -0.7463(3) 0.3247(5) -0.12523(18)
C14B C -0.8549(3) 0.3989(5) -0.14237(17)
C15B C -0.8625(4) 0.5575(5) -0.1622(2)
H8B H -0.8012 0.6113 -0.1663
C16B C -0.9605(3) 0.6378(5) -0.1761(2)
H9B H -0.9647 0.7447 -0.1892
C17B C -1.0518(3) 0.5570(5) -0.17032(17)
C18B C -1.0472(3) 0.3955(5) -0.15337(16)
H10B H -1.1094 0.3403 -0.1517
C19B C -0.9485(3) 0.3160(5) -0.13881(17)
O9B O -0.2589(2) -0.2693(4) -0.03058(13)
Pr1_2 Pr -0.844534(17) 0.03822(3) 0.047803(9)
Pr1_3 Pr 0.155466(17) 0.03822(3) 0.047803(9)
Pr1_4 Pr 1.155466(17) 0.03822(3) 0.047803(9)
Pr1_5 Pr 1.155466(17) 1.03822(3) 0.047803(9)
Pr1B_2 Pr -1.155466(17) -0.03822(3) -0.047803(9)
Pr1B_3 Pr -1.155466(17) 0.96178(3) -0.047803(9)
Pr1B_4 Pr -0.155466(17) 0.96178(3) -0.047803(9)
Pr1B_5 Pr 0.844534(17) 0.96178(3) -0.047803(9)
O3_2 O 0.1676(2) 1.2517(4) 0.12455(12)
O3B_2 O -0.1676(2) -0.2517(4) -0.12455(12)
O4_2 O 0.0545(2) 0.9354(3) 0.11777(13)
O4B_2 O -0.0545(2) 0.0646(3) -0.11777(13)
O5_2 O -0.1223(2) -0.1085(4) 0.05718(12)
O5B_2 O 0.1223(2) 1.1085(4) -0.05718(12)
O8_2 O 0.0213(2) -0.1678(4) -0.01479(13)
O8B_2 O -0.0213(2) 1.1678(4) 0.01479(13)
O10 O 0.3354(3) 0.5231(4) 0.09657(16)
O11 O 0.7299(3) 0.1339(5) 0.20129(17)
loop_
_geom_bond_atom_site_label_1
_geom_bond_atom_site_label_2
_geom_bond_site_symmetry_1
_geom_bond_site_symmetry_2
Pr1 N1 1_555 1_555
S1 O1 1_555 1_555
S2 O4 1_555 1_555
N1 C1 1_555 1_555
N2 Pr1 1_555 1_555
N3 C5 1_555 1_555
N4 H1 1_555 1_555
O2 S1 1_555 1_555
O3 S1 1_555 1_555
O4 Pr1_5 1_555 1_555
O5 S2 1_555 1_555
O6 S2 1_555 1_555
O7 Pr1 1_555 1_555
O8 Pr1 1_555 1_555
C1 H2 1_555 1_555
C2 C1 1_555 1_555
H3 C2 1_555 1_555
C3 C2 1_555 1_555
H4 C3 1_555 1_555
C4 C3 1_555 1_555
C5 C4 1_555 1_555
C6 N4 1_555 1_555
C7 C6 1_555 1_555
C8 C7 1_555 1_555
H5 C8 1_555 1_555
C9 C8 1_555 1_555
H6 C9 1_555 1_555
C10 N2 1_555 1_555
H7 C10 1_555 1_555
C11 N2 1_555 1_555
C12 N1 1_555 1_555
C13 N3 1_555 1_555
C14 C13 1_555 1_555
C15 C14 1_555 1_555
H8 C15 1_555 1_555
C16 C15 1_555 1_555
H9 C16 1_555 1_555
C17 S1 1_555 1_555
C18 C17 1_555 1_555
H10 C18 1_555 1_555
C19 S2 1_555 1_555
C20 O7 1_555 1_555
C21 C20 1_555 1_555
H11 C21 1_555 1_555
O9 Pr1 1_555 1_555
O7B C20B 1_555 1_555
O8B C20B 1_555 1_555
C20B C21B 1_555 1_555
C21B C21 1_555 1_555
H11B C21B 1_555 1_555
Pr1B O7B 1_555 1_555
S1B O1B 1_555 1_555
S2B O4B 1_555 1_555
N1B Pr1B 1_555 1_555
N2B Pr1B 1_555 1_555
N3B C5B 1_555 1_555
N4B H1B 1_555 1_555
O2B S1B 1_555 1_555
O3B S1B 1_555 1_555
O4B Pr1B_2 1_555 1_555
O5B S2B 1_555 1_555
O6B S2B 1_555 1_555
C1B N1B 1_555 1_555
H2B C1B 1_555 1_555
C2B C1B 1_555 1_555
H3B C2B 1_555 1_555
C3B C2B 1_555 1_555
H4B C3B 1_555 1_555
C4B C3B 1_555 1_555
C5B C4B 1_555 1_555
C6B N4B 1_555 1_555
C7B C6B 1_555 1_555
C8B C7B 1_555 1_555
H5B C8B 1_555 1_555
C9B C8B 1_555 1_555
H6B C9B 1_555 1_555
C10B N2B 1_555 1_555
H7B C10B 1_555 1_555
C11B N2B 1_555 1_555
C12B N1B 1_555 1_555
C13B N3B 1_555 1_555
C14B C13B 1_555 1_555
C15B C14B 1_555 1_555
H8B C15B 1_555 1_555
C16B C15B 1_555 1_555
H9B C16B 1_555 1_555
C17B S1B 1_555 1_555
C18B C17B 1_555 1_555
H10B C18B 1_555 1_555
C19B S2B 1_555 1_555
O9B Pr1B 1_555 1_555
Pr1_2 O5B 1_555 1_555
Pr1_3 O8B 1_555 1_555
Pr1_4 O3 1_555 1_555
Pr1B_3 O3B 1_555 1_555
Pr1B_4 O8 1_555 1_555
Pr1B_5 O5 1_555 1_555
O3_2 Pr1 1_555 1_555
O3B_2 Pr1B 1_555 1_555
O4_2 Pr1 1_555 1_555
O4B_2 Pr1B 1_555 1_555
O5_2 Pr1B 1_555 1_555
O5B_2 Pr1 1_555 1_555
O8_2 Pr1B 1_555 1_555
O8B_2 Pr1 1_555 1_555
N4 C13 1_555 1_555
O8 C20 1_555 1_555
C4 C12 1_555 1_555
C5 C6 1_555 1_555
C7 C11 1_555 1_555
C9 C10 1_555 1_555
C11 C12 1_555 1_555
C14 C19 1_555 1_555
C16 C17 1_555 1_555
C18 C19 1_555 1_555
O8B Pr1B 1_555 1_555
N4B C13B 1_555 1_555
C4B C12B 1_555 1_555
C5B C6B 1_555 1_555
C7B C11B 1_555 1_555
C9B C10B 1_555 1_555
C11B C12B 1_555 1_555
C14B C19B 1_555 1_555
C16B C17B 1_555 1_555
C18B C19B 1_555 1_555
Pr1_3 O8_2 1_555 1_555
Pr1B_4 O8B_2 1_555 1_555

#END
