
#######################################################################
#
#                 Cambridge Crystallographic Data Centre
#                                CCDC 
#
#######################################################################
#
# If this CIF has been generated from an entry in the Cambridge 
# Structural Database, then it will include bibliographic, chemical, 
# crystal, experimental, refinement or atomic coordinate data resulting 
# from the CCDC's data processing and validation procedures.
#
#######################################################################

data_KUDWOX
_symmetry_cell_setting           monoclinic
_symmetry_space_group_name_H-M   'C 2/c'
_symmetry_Int_Tables_number      15
_space_group_name_Hall           '-C 2yn'
loop_
_symmetry_equiv_pos_site_id
_symmetry_equiv_pos_as_xyz
1 x,y,z
2 -x,y,1/2-z
3 1/2+x,1/2+y,z
4 1/2-x,1/2+y,1/2-z
5 -x,-y,-z
6 x,-y,1/2+z
7 1/2-x,1/2-y,-z
8 1/2+x,1/2-y,1/2+z
_cell_length_a                   27.752(5)
_cell_length_b                   5.5793(9)
_cell_length_c                   17.302(3)
_cell_angle_alpha                90
_cell_angle_beta                 115.855(2)
_cell_angle_gamma                90
_cell_volume                     2410.82
loop_
_atom_site_label
_atom_site_type_symbol
_atom_site_fract_x
_atom_site_fract_y
_atom_site_fract_z
C1 C 0.44842(17) 0.1862(8) 0.5751(3)
C2 C 0.42650(18) 0.2325(8) 0.4802(2)
H1 H 0.3936 0.1421 0.4512
H2 H 0.4519 0.1722 0.4603
C3 C 0.41500(19) 0.4960(9) 0.4541(3)
H3 H 0.4483 0.5854 0.4803
H4 H 0.4018 0.5081 0.3923
C4 C 0.32380(18) 0.5588(8) 0.4379(3)
C5 C 0.28700(17) 0.6644(8) 0.4710(3)
C6 C 0.29707(18) 0.8736(8) 0.5187(3)
H5 H 0.3285 0.9585 0.5317
C7 C 0.26074(18) 0.9564(8) 0.5468(3)
H6 H 0.2682 1.0972 0.5787
C8 C 0.38648(18) 0.5107(8) 0.6976(3)
H7 H 0.3900 0.6493 0.6707
C9 C 0.34147(18) 0.4422(9) 0.7033(3)
H8 H 0.3090 0.5235 0.6825
C10 C 0.40408(18) 0.1793(8) 0.7653(3)
H9 H 0.4216 0.0426 0.7951
Cu1 Cu 0.5000 0.36573(12) 0.7500
N1 N 0.37603(14) 0.6062(6) 0.4788(2)
H10 H 0.3872 0.7051 0.5211
N2 N 0.42632(12) 0.3451(6) 0.73776(19)
N3 N 0.35351(14) 0.2310(7) 0.7454(2)
H11 H 0.3320 0.1446 0.7573
O1 O 0.47315(11) 0.3567(5) 0.62383(16)
O2 O 0.43997(16) -0.0138(6) 0.59984(19)
O3 O 0.30600(12) 0.4261(6) 0.3745(2)
O4 O 0.5000 0.7658(7) 0.7500
H12 H 0.5172 0.8147 0.7992
C1F C 0.05158(17) 1.3138(8) 0.4249(3)
C2F C 0.07350(18) 1.2675(8) 0.5198(2)
H1F H 0.1064 1.3579 0.5488
H2F H 0.0481 1.3278 0.5397
C3F C 0.08500(19) 1.0040(9) 0.5459(3)
H3F H 0.0517 0.9146 0.5197
H4F H 0.0982 0.9919 0.6077
C4F C 0.17620(18) 0.9412(8) 0.5621(3)
C5F C 0.21300(17) 0.8356(8) 0.5290(3)
C6F C 0.20293(18) 0.6264(8) 0.4813(3)
H5F H 0.1715 0.5415 0.4683
C7F C 0.23926(18) 0.5436(8) 0.4532(3)
H6F H 0.2318 0.4028 0.4213
N1F N 0.12397(14) 0.8938(6) 0.5212(2)
H10F H 0.1128 0.7949 0.4789
O1F O 0.02685(11) 1.1433(5) 0.37617(16)
O2F O 0.06003(16) 1.5138(6) 0.40016(19)
O3F O 0.19400(12) 1.0739(6) 0.6255(2)
H12A H 0.4828 0.8147 0.7008
C8A C 0.61352(18) 0.5107(8) 0.8024(3)
H7A H 0.6100 0.6493 0.8293
C9A C 0.65853(18) 0.4422(9) 0.7967(3)
H8A H 0.6910 0.5235 0.8175
C10A C 0.59592(18) 0.1793(8) 0.7347(3)
H9A H 0.5784 0.0426 0.7049
N2A N 0.57368(12) 0.3451(6) 0.76224(19)
N3A N 0.64649(14) 0.2310(7) 0.7546(2)
H11A H 0.6680 0.1446 0.7427
Cu1F Cu 0.0000 1.13427(12) 0.2500
O1A O 0.52685(11) 0.3567(5) 0.87617(16)
O5 O 0.28059(12) -0.0023(6) 0.7868(2)
H13 H 0.2944 -0.1316 0.8131
H14 H 0.2528 -0.0347 0.7410
loop_
_geom_bond_atom_site_label_1
_geom_bond_atom_site_label_2
_geom_bond_site_symmetry_1
_geom_bond_site_symmetry_2
C1 C2 1_555 1_555
C2 H1 1_555 1_555
H2 C2 1_555 1_555
C3 C2 1_555 1_555
H3 C3 1_555 1_555
H4 C3 1_555 1_555
C4 C5 1_555 1_555
C5 C6 1_555 1_555
C6 H5 1_555 1_555
C7 C6 1_555 1_555
H6 C7 1_555 1_555
C8 H7 1_555 1_555
C9 C8 1_555 1_555
H8 C9 1_555 1_555
C10 H9 1_555 1_555
Cu1 N2 1_555 1_555
N1 C3 1_555 1_555
H10 N1 1_555 1_555
N2 C8 1_555 1_555
N3 C9 1_555 1_555
H11 N3 1_555 1_555
O1 C1 1_555 1_555
O2 C1 1_555 1_555
O3 C4 1_555 1_555
O4 Cu1 1_555 1_555
H12 O4 1_555 1_555
O5 H13 1_555 1_555
H14 O5 1_555 1_555
C1F C2F 1_555 1_555
C2F H1F 1_555 1_555
H2F C2F 1_555 1_555
C3F C2F 1_555 1_555
H3F C3F 1_555 1_555
H4F C3F 1_555 1_555
C4F C5F 1_555 1_555
C5F C7 1_555 1_555
C6F C5F 1_555 1_555
H5F C6F 1_555 1_555
C7F C5 1_555 1_555
H6F C7F 1_555 1_555
N1F C3F 1_555 1_555
H10F N1F 1_555 1_555
O1F C1F 1_555 1_555
O2F C1F 1_555 1_555
O3F C4F 1_555 1_555
H12A O4 1_555 1_555
C8A H7A 1_555 1_555
C9A C8A 1_555 1_555
H8A C9A 1_555 1_555
C10A H9A 1_555 1_555
N2A Cu1 1_555 1_555
N3A C9A 1_555 1_555
H11A N3A 1_555 1_555
Cu1F O1F 1_555 1_555
O1A Cu1 1_555 1_555
C4 N1 1_555 1_555
C10 N2 1_555 1_555
C10 N3 1_555 1_555
Cu1 O1 1_555 1_555
C4F N1F 1_555 1_555
C6F C7F 1_555 1_555
C8A N2A 1_555 1_555
C10A N2A 1_555 1_555
C10A N3A 1_555 1_555

#END
