
#######################################################################
#
#                 Cambridge Crystallographic Data Centre
#                                CCDC 
#
#######################################################################
#
# If this CIF has been generated from an entry in the Cambridge 
# Structural Database, then it will include bibliographic, chemical, 
# crystal, experimental, refinement or atomic coordinate data resulting 
# from the CCDC's data processing and validation procedures.
#
#######################################################################

data_KUDYUF
_symmetry_cell_setting           monoclinic
_symmetry_space_group_name_H-M   'P 21/c'
_symmetry_Int_Tables_number      14
_space_group_name_Hall           '-P 2ybc'
loop_
_symmetry_equiv_pos_site_id
_symmetry_equiv_pos_as_xyz
1 x,y,z
2 -x,1/2+y,1/2-z
3 -x,-y,-z
4 x,1/2-y,1/2+z
_cell_length_a                   18.2009(7)
_cell_length_b                   13.5600(4)
_cell_length_c                   13.3152(5)
_cell_angle_alpha                90
_cell_angle_beta                 99.471(2)
_cell_angle_gamma                90
_cell_volume                     3241.45
loop_
_atom_site_label
_atom_site_type_symbol
_atom_site_fract_x
_atom_site_fract_y
_atom_site_fract_z
Cu1 Cu 0.727195(15) 0.730436(18) 0.54996(2)
Cu2 Cu 0.744371(15) 0.952860(18) 0.50666(2)
Cu3 Cu 0.753597(15) 1.19162(2) 0.46176(2)
O1 O 0.78936(8) 0.82560(10) 0.49464(12)
O2 O 0.64332(9) 0.74688(10) 0.43897(12)
O3 O 0.66640(8) 0.86538(10) 0.11073(12)
O4 O 0.70157(9) 1.08205(10) 0.51029(13)
O5 O 0.65437(9) 0.90951(11) 0.41349(13)
O6 O 0.76282(10) 1.34228(12) 0.49642(14)
O7 O 0.69550(10) 0.88613(12) 0.65361(13)
O8 O 0.80207(10) 0.59106(12) 0.52142(14)
O9 O 0.78791(10) 1.19713(14) 0.31599(14)
O10 O 0.83898(9) 1.00580(11) 0.57898(13)
O11 O 0.59367(10) 0.75086(11) 0.16591(14)
O12 O 0.85015(10) 1.16427(12) 0.53564(15)
O13 O 0.85536(10) 1.05674(12) 0.91381(14)
N1 N 0.80849(10) 0.72969(12) 0.67535(14)
O14 O 0.86753(10) 1.15097(12) 0.78156(14)
N2 N 0.65455(11) 1.23424(13) 0.38347(15)
C1 C 0.52479(12) 0.91151(14) 0.26509(17)
C2 C 0.88434(13) 1.07729(15) 0.83654(18)
C3 C 0.61130(13) 0.83827(15) 0.15147(17)
C4 C 0.87310(13) 1.08603(16) 0.58115(18)
C5 C 0.62047(13) 0.82885(15) 0.40248(17)
C6 C 0.56159(12) 0.91887(15) 0.18079(17)
C7 C 0.94227(12) 1.00649(15) 0.80982(18)
C8 C 0.54130(12) 0.82997(15) 0.34275(17)
H1 H 0.5319 0.7672 0.3080
H2 H 0.5068 0.8355 0.3907
C9 C 0.97237(12) 1.01078(15) 0.71967(18)
C10 C 0.47170(12) 0.98253(15) 0.27702(17)
H3 H 0.4468 0.9787 0.3325
C11 C 0.87316(13) 0.78721(16) 0.64945(18)
H4 H 0.9190 0.7517 0.6729
H5 H 0.8760 0.8504 0.6840
C12 C 0.78046(14) 0.77377(16) 0.76386(18)
H6 H 0.8211 0.7766 0.8210
H7 H 0.7423 0.7310 0.7830
C13 C 0.62416(13) 1.10052(16) 0.49260(18)
H8 H 0.6112 1.1424 0.5461
H9 H 0.5972 1.0389 0.4933
C14 C 0.86483(12) 0.80368(16) 0.53467(18)
H10 H 0.8965 0.8579 0.5208
H11 H 0.8803 0.7449 0.5022
C15 C 0.96713(13) 0.93271(15) 0.88149(19)
H12 H 0.9475 0.9297 0.9416
C16 C 0.54797(13) 0.99923(15) 0.11552(17)
H13 H 0.5752 1.0066 0.0627
C17 C 0.95203(12) 1.08957(16) 0.63934(18)
H14 H 0.9861 1.0846 0.5907
H15 H 0.9598 1.1535 0.6720
C18 C 1.02512(13) 0.94047(16) 0.70397(19)
H16 H 1.0450 0.9423 0.6440
C19 C 0.82877(14) 0.62532(16) 0.69993(18)
H17 H 0.7861 0.5913 0.7185
H18 H 0.8685 0.6233 0.7582
C20 C 0.45527(13) 1.05908(16) 0.20750(19)
H19 H 0.4178 1.1039 0.2148
C21 C 0.49417(14) 1.06861(15) 0.12839(18)
H20 H 0.4846 1.1213 0.0834
C22 C 0.60235(13) 1.15055(16) 0.39076(19)
H21 H 0.6048 1.1038 0.3363
H22 H 0.5517 1.1749 0.3841
C23 C 1.04881(13) 0.86777(16) 0.7753(2)
H23 H 1.0839 0.8215 0.7628
C24 C 0.74809(13) 0.87702(16) 0.74421(18)
H24 H 0.7244 0.8961 0.8014
H25 H 0.7886 0.9228 0.7411
C25 C 0.63270(14) 1.32340(16) 0.4377(2)
H26 H 0.6189 1.3040 0.5022
H27 H 0.5899 1.3546 0.3970
C26 C 0.69689(13) 1.39555(16) 0.4562(2)
H28 H 0.7030 1.4275 0.3929
H29 H 0.6872 1.4459 0.5041
C27 C 1.02032(13) 0.86430(16) 0.86441(19)
H30 H 1.0365 0.8164 0.9130
C28 C 0.66211(15) 1.25594(19) 0.27674(19)
H31 H 0.6750 1.3249 0.2706
H32 H 0.6149 1.2441 0.2328
C29 C 0.85363(15) 0.57249(17) 0.6122(2)
H33 H 0.9028 0.5953 0.6039
H34 H 0.8565 0.5022 0.6257
C30 C 0.72147(15) 1.1922(2) 0.2433(2)
H35 H 0.7043 1.1244 0.2361
H36 H 0.7314 1.2145 0.1776
H37 H 0.8147(15) 0.5603(18) 0.479(2)
H38 H 0.7935(16) 1.369(2) 0.474(2)
H39 H 0.8123(18) 1.249(2) 0.310(3)
H40 H 0.6632(17) 0.844(2) 0.656(2)
Cu1C Cu 0.727195(15) 0.769564(18) 0.04996(2)
O3C O 0.66640(8) 0.63462(10) 0.61073(12)
loop_
_geom_bond_atom_site_label_1
_geom_bond_atom_site_label_2
_geom_bond_site_symmetry_1
_geom_bond_site_symmetry_2
Cu1 O1 1_555 1_555
Cu2 O1 1_555 1_555
Cu3 O4 1_555 1_555
O1 C14 1_555 1_555
O2 Cu1 1_555 1_555
O3 C3 1_555 1_555
O4 Cu2 1_555 1_555
O5 Cu2 1_555 1_555
O6 Cu3 1_555 1_555
O7 Cu1 1_555 1_555
O8 Cu1 1_555 1_555
O9 Cu3 1_555 1_555
O10 Cu2 1_555 1_555
O11 C3 1_555 1_555
O12 Cu3 1_555 1_555
O13 C2 1_555 1_555
N1 Cu1 1_555 1_555
O14 C2 1_555 1_555
N2 Cu3 1_555 1_555
C1 C6 1_555 1_555
C2 C7 1_555 1_555
C3 C6 1_555 1_555
C4 O10 1_555 1_555
C5 O2 1_555 1_555
C6 C16 1_555 1_555
C7 C9 1_555 1_555
C8 C1 1_555 1_555
H1 C8 1_555 1_555
H2 C8 1_555 1_555
C9 C17 1_555 1_555
C10 C1 1_555 1_555
H3 C10 1_555 1_555
C11 N1 1_555 1_555
H4 C11 1_555 1_555
H5 C11 1_555 1_555
C12 N1 1_555 1_555
H6 C12 1_555 1_555
H7 C12 1_555 1_555
C13 O4 1_555 1_555
H8 C13 1_555 1_555
H9 C13 1_555 1_555
C14 C11 1_555 1_555
H10 C14 1_555 1_555
H11 C14 1_555 1_555
C15 C7 1_555 1_555
H12 C15 1_555 1_555
C16 H13 1_555 1_555
C17 C4 1_555 1_555
H14 C17 1_555 1_555
H15 C17 1_555 1_555
C18 C9 1_555 1_555
H16 C18 1_555 1_555
C19 N1 1_555 1_555
H17 C19 1_555 1_555
H18 C19 1_555 1_555
C20 C10 1_555 1_555
H19 C20 1_555 1_555
C21 C16 1_555 1_555
H20 C21 1_555 1_555
C22 N2 1_555 1_555
H21 C22 1_555 1_555
H22 C22 1_555 1_555
C23 C18 1_555 1_555
H23 C23 1_555 1_555
C24 O7 1_555 1_555
H24 C24 1_555 1_555
H25 C24 1_555 1_555
C25 N2 1_555 1_555
H26 C25 1_555 1_555
H27 C25 1_555 1_555
C26 O6 1_555 1_555
H28 C26 1_555 1_555
H29 C26 1_555 1_555
C27 C15 1_555 1_555
H30 C27 1_555 1_555
C28 N2 1_555 1_555
H31 C28 1_555 1_555
H32 C28 1_555 1_555
C29 O8 1_555 1_555
H33 C29 1_555 1_555
H34 C29 1_555 1_555
C30 O9 1_555 1_555
H35 C30 1_555 1_555
H36 C30 1_555 1_555
H37 O8 1_555 1_555
H38 O6 1_555 1_555
H39 O9 1_555 1_555
H40 O7 1_555 1_555
Cu1C O3 1_555 1_555
O3C Cu1 1_555 1_555
Cu2 O7 1_555 1_555
O5 C5 1_555 1_555
O12 C4 1_555 1_555
C5 C8 1_555 1_555
C12 C24 1_555 1_555
C13 C22 1_555 1_555
C19 C29 1_555 1_555
C20 C21 1_555 1_555
C23 C27 1_555 1_555
C25 C26 1_555 1_555
C28 C30 1_555 1_555

#END
