
#######################################################################
#
#                 Cambridge Crystallographic Data Centre
#                                CCDC 
#
#######################################################################
#
# If this CIF has been generated from an entry in the Cambridge 
# Structural Database, then it will include bibliographic, chemical, 
# crystal, experimental, refinement or atomic coordinate data resulting 
# from the CCDC's data processing and validation procedures.
#
#######################################################################

data_KUDZOZ
_symmetry_cell_setting           triclinic
_symmetry_space_group_name_H-M   'P -1'
_symmetry_Int_Tables_number      2
_space_group_name_Hall           '-P 1'
loop_
_symmetry_equiv_pos_site_id
_symmetry_equiv_pos_as_xyz
1 x,y,z
2 -x,-y,-z
_cell_length_a                   7.407(3)
_cell_length_b                   11.702(4)
_cell_length_c                   11.809(5)
_cell_angle_alpha                69.919(4)
_cell_angle_beta                 76.011(5)
_cell_angle_gamma                75.059(5)
_cell_volume                     915.505
loop_
_atom_site_label
_atom_site_type_symbol
_atom_site_fract_x
_atom_site_fract_y
_atom_site_fract_z
Cu1 Cu 0.10468(4) 0.88563(2) 0.79063(2)
N1 N 0.3179(3) 0.79039(19) 0.7003(2)
N2 N 0.2830(3) 0.59722(19) 0.8453(2)
H1 H 0.2855 0.5216 0.8510
N3 N 0.1343(3) 0.74905(18) 0.94468(19)
N4 N -0.1449(3) 0.9722(2) 0.8670(2)
N5 N -0.7185(3) 1.0027(2) 0.8225(2)
N6 N -0.5756(4) 1.3216(2) 0.8780(3)
N7 N 0.0446(4) 1.0152(2) 0.6358(2)
N8 N 0.1500(6) 1.2439(3) 0.2488(3)
N9 N -0.1826(8) 1.4067(4) 0.5443(4)
C1 C 0.4064(4) 0.8523(3) 0.5901(3)
H2 H 0.3822 0.9384 0.5682
C2 C 0.5273(4) 0.7975(3) 0.5096(3)
H3 H 0.5837 0.8445 0.4347
C3 C 0.5649(5) 0.6688(3) 0.5423(3)
H4 H 0.6441 0.6278 0.4883
C4 C 0.4845(5) 0.6036(3) 0.6541(3)
H5 H 0.5118 0.5174 0.6780
C5 C 0.3605(4) 0.6658(2) 0.7333(2)
C6 C 0.2013(4) 0.6296(2) 0.9511(2)
C7 C 0.1920(5) 0.5358(3) 1.0619(3)
H6 H 0.2348 0.4532 1.0639
C8 C 0.1189(5) 0.5664(3) 1.1685(3)
H7 H 0.1106 0.5049 1.2436
C9 C 0.0578(5) 0.6903(3) 1.1624(3)
H8 H 0.0119 0.7136 1.2335
C10 C 0.0658(4) 0.7767(2) 1.0520(2)
H9 H 0.0222 0.8596 1.0488
C11 C -0.2922(3) 1.0346(2) 0.8601(2)
C12 C -0.4755(3) 1.1045(2) 0.8528(2)
C13 C -0.6105(4) 1.0496(2) 0.8363(2)
C14 C -0.5275(4) 1.2247(2) 0.8661(3)
C15 C 0.0262(4) 1.1089(2) 0.5600(2)
C16 C 0.0030(4) 1.2221(2) 0.4716(3)
C17 C 0.0883(5) 1.2336(2) 0.3493(3)
C18 C -0.0998(6) 1.3261(3) 0.5087(3)
Cu1_2 Cu -0.89532(4) 0.88563(2) 0.79063(2)
N5_2 N 0.2815(3) 1.0027(2) 0.8225(2)
loop_
_geom_bond_atom_site_label_1
_geom_bond_atom_site_label_2
_geom_bond_site_symmetry_1
_geom_bond_site_symmetry_2
Cu1 N1 1_555 1_555
N1 C1 1_555 1_555
N2 H1 1_555 1_555
N3 Cu1 1_555 1_555
N4 Cu1 1_555 1_555
N5 C13 1_555 1_555
N6 C14 1_555 1_555
N7 Cu1 1_555 1_555
N8 C17 1_555 1_555
N9 C18 1_555 1_555
C1 H2 1_555 1_555
C2 C1 1_555 1_555
H3 C2 1_555 1_555
C3 C2 1_555 1_555
H4 C3 1_555 1_555
C4 C3 1_555 1_555
H5 C4 1_555 1_555
C5 N1 1_555 1_555
C6 N2 1_555 1_555
C7 C6 1_555 1_555
H6 C7 1_555 1_555
C8 C7 1_555 1_555
H7 C8 1_555 1_555
C9 C8 1_555 1_555
H8 C9 1_555 1_555
C10 N3 1_555 1_555
H9 C10 1_555 1_555
C11 N4 1_555 1_555
C12 C11 1_555 1_555
C13 C12 1_555 1_555
C14 C12 1_555 1_555
C15 N7 1_555 1_555
C16 C15 1_555 1_555
C17 C16 1_555 1_555
C18 C16 1_555 1_555
Cu1_2 N5 1_555 1_555
N5_2 Cu1 1_555 1_555
N2 C5 1_555 1_555
N3 C6 1_555 1_555
C4 C5 1_555 1_555
C9 C10 1_555 1_555

#END
