
#######################################################################
#
#                 Cambridge Crystallographic Data Centre
#                                CCDC 
#
#######################################################################
#
# If this CIF has been generated from an entry in the Cambridge 
# Structural Database, then it will include bibliographic, chemical, 
# crystal, experimental, refinement or atomic coordinate data resulting 
# from the CCDC's data processing and validation procedures.
#
#######################################################################

data_KUDZUF
_symmetry_cell_setting           triclinic
_symmetry_space_group_name_H-M   'P -1'
_symmetry_Int_Tables_number      2
_space_group_name_Hall           '-P 1'
loop_
_symmetry_equiv_pos_site_id
_symmetry_equiv_pos_as_xyz
1 x,y,z
2 -x,-y,-z
_cell_length_a                   7.506(8)
_cell_length_b                   10.863(11)
_cell_length_c                   11.827(12)
_cell_angle_alpha                63.842(12)
_cell_angle_beta                 75.736(13)
_cell_angle_gamma                89.299(14)
_cell_volume                     833.729
loop_
_atom_site_label
_atom_site_type_symbol
_atom_site_fract_x
_atom_site_fract_y
_atom_site_fract_z
Cu1 Cu 1.04368(5) 0.89440(3) 0.80094(3)
N1 N 1.2147(3) 0.8792(3) 0.6502(2)
N2 N 1.1769(4) 1.1002(3) 0.4994(2)
H1 H 1.1542 1.1433 0.4245
N3 N 1.1024(3) 1.0966(2) 0.7060(2)
N4 N 0.8115(3) 0.9160(3) 0.9196(2)
N5 N 0.2341(4) 0.8669(3) 0.9253(3)
N6 N 0.4152(5) 0.6224(4) 1.2816(3)
O1 O 0.9649(3) 0.6997(2) 0.8883(2)
O2 O 0.7745(4) 0.7418(3) 0.7639(2)
C1 C 1.2853(5) 0.7589(4) 0.6715(4)
H2 H 1.2742 0.6942 0.7575
C2 C 1.3711(5) 0.7267(4) 0.5753(5)
H3 H 1.4185 0.6424 0.5943
C3 C 1.3867(6) 0.8229(5) 0.4475(5)
H4 H 1.4414 0.8024 0.3791
C4 C 1.3223(5) 0.9469(4) 0.4216(3)
H5 H 1.3342 1.0131 0.3360
C5 C 1.2378(4) 0.9727(3) 0.5270(3)
C6 C 1.1478(4) 1.1675(3) 0.5756(3)
C7 C 1.1674(5) 1.3109(3) 0.5135(3)
H6 H 1.1937 1.3590 0.4228
C8 C 1.1477(5) 1.3798(3) 0.5864(4)
H7 H 1.1616 1.4757 0.5462
C9 C 1.1067(5) 1.3063(4) 0.7220(4)
H8 H 1.0950 1.3519 0.7736
C10 C 1.0844(4) 1.1677(3) 0.7765(3)
H9 H 1.0551 1.1184 0.8671
C11 C 0.6628(4) 0.8660(3) 0.9770(3)
C12 C 0.4835(4) 0.8059(3) 1.0460(3)
C13 C 0.3464(4) 0.8388(3) 0.9803(3)
C14 C 0.4447(4) 0.7050(3) 1.1765(3)
C15 C 0.8402(5) 0.6621(3) 0.8514(3)
C16 C 0.7701(7) 0.5134(4) 0.9230(5)
H10 H 0.6848 0.4947 1.0054
H11 H 0.8718 0.4595 0.9380
H12 H 0.7083 0.4897 0.8721
Cu1_2 Cu 0.04368(5) 0.89440(3) 0.80094(3)
N5_2 N 1.2341(4) 0.8669(3) 0.9253(3)
loop_
_geom_bond_atom_site_label_1
_geom_bond_atom_site_label_2
_geom_bond_site_symmetry_1
_geom_bond_site_symmetry_2
Cu1 N1 1_555 1_555
N1 C1 1_555 1_555
N2 H1 1_555 1_555
N3 Cu1 1_555 1_555
N4 Cu1 1_555 1_555
N5 C13 1_555 1_555
N6 C14 1_555 1_555
O1 Cu1 1_555 1_555
O2 C15 1_555 1_555
C1 H2 1_555 1_555
C2 C1 1_555 1_555
H3 C2 1_555 1_555
C3 C2 1_555 1_555
H4 C3 1_555 1_555
C4 C3 1_555 1_555
H5 C4 1_555 1_555
C5 N1 1_555 1_555
C6 N2 1_555 1_555
C7 C6 1_555 1_555
H6 C7 1_555 1_555
C8 C7 1_555 1_555
H7 C8 1_555 1_555
C9 C8 1_555 1_555
H8 C9 1_555 1_555
C10 N3 1_555 1_555
H9 C10 1_555 1_555
C11 N4 1_555 1_555
C12 C11 1_555 1_555
C13 C12 1_555 1_555
C14 C12 1_555 1_555
C15 O1 1_555 1_555
C16 C15 1_555 1_555
H10 C16 1_555 1_555
H11 C16 1_555 1_555
H12 C16 1_555 1_555
Cu1_2 N5 1_555 1_555
N5_2 Cu1 1_555 1_555
N2 C5 1_555 1_555
N3 C6 1_555 1_555
C4 C5 1_555 1_555
C9 C10 1_555 1_555

#END
