
#######################################################################
#
#                 Cambridge Crystallographic Data Centre
#                                CCDC 
#
#######################################################################
#
# If this CIF has been generated from an entry in the Cambridge 
# Structural Database, then it will include bibliographic, chemical, 
# crystal, experimental, refinement or atomic coordinate data resulting 
# from the CCDC's data processing and validation procedures.
#
#######################################################################

data_KUFDUM
_symmetry_cell_setting           cubic
_symmetry_space_group_name_H-M   'P a -3'
_symmetry_Int_Tables_number      205
_space_group_name_Hall           '-P 2ac 2ab 3'
loop_
_symmetry_equiv_pos_site_id
_symmetry_equiv_pos_as_xyz
1 x,y,z
2 1/2-x,-y,1/2+z
3 -x,1/2+y,1/2-z
4 1/2+x,1/2-y,-z
5 z,x,y
6 1/2+z,1/2-x,-y
7 1/2-z,-x,1/2+y
8 -z,1/2+x,1/2-y
9 y,z,x
10 -y,1/2+z,1/2-x
11 1/2+y,1/2-z,-x
12 1/2-y,-z,1/2+x
13 -x,-y,-z
14 1/2+x,y,1/2-z
15 x,1/2-y,1/2+z
16 1/2-x,1/2+y,z
17 -z,-x,-y
18 1/2-z,1/2+x,y
19 1/2+z,x,1/2-y
20 z,1/2-x,1/2+y
21 -y,-z,-x
22 y,1/2-z,1/2+x
23 1/2-y,1/2+z,x
24 1/2+y,z,1/2-x
_cell_length_a                   20.8634(2)
_cell_length_b                   20.8634(2)
_cell_length_c                   20.8634(2)
_cell_angle_alpha                90
_cell_angle_beta                 90
_cell_angle_gamma                90
_cell_volume                     9081.45
loop_
_atom_site_label
_atom_site_type_symbol
_atom_site_fract_x
_atom_site_fract_y
_atom_site_fract_z
P1 P 1.01295(9) 0.16275(9) 0.02244(9)
C1 C 0.9697(3) 0.2052(3) 0.0841(3)
H1 H 0.9832 0.1893 0.1257
H2 H 0.9808 0.2503 0.0819
C2 C 0.8675(3) 0.2502(3) 0.0429(4)
H3 H 0.8925 0.2607 0.0052
H4 H 0.8646 0.2883 0.0694
C3 C 0.8015(4) 0.2293(4) 0.0233(4)
C4 C 0.8705(4) 0.1921(3) 0.1429(3)
H5 H 0.8265 0.2069 0.1416
H6 H 0.8938 0.2187 0.1732
C5 C 0.8722(3) 0.1222(4) 0.1653(3)
C6 C 0.6524(4) 0.0322(4) 0.0104(4)
C7 C 0.6007(4) -0.0112(4) 0.0315(4)
C8 C 0.5645(4) 0.0046(4) 0.0850(4)
H7 H 0.5760 0.0394 0.1103
Fe1 Fe 0.87595(5) 0.10835(5) 0.02564(5)
Fe2 Fe 1.0000 0.0000 0.0000
Mg1 Mg 0.73256(9) 0.10882(9) -0.02738(9)
Mg2 Mg 1.12568(10) 0.12568(10) 0.12568(10)
N1 N 0.8993(3) 0.1988(3) 0.0790(3)
O1 O 0.7922(2) 0.1686(2) 0.0221(3)
O2 O 0.7613(3) 0.2696(3) 0.0068(3)
O3 O 0.8730(2) 0.0792(2) 0.1225(2)
O4 O 0.8725(3) 0.1123(2) 0.2245(2)
O5 O 0.9763(2) 0.0981(2) 0.0164(2)
O6 O 1.0812(2) 0.1573(2) 0.0426(2)
O7 O 1.0031(2) 0.1956(2) -0.0422(2)
O8 O 0.6753(3) 0.0727(3) 0.0496(2)
O9 O 0.6708(3) 0.0306(3) -0.0476(2)
O10 O 0.6618(3) 0.1778(3) -0.0404(3)
O11 O 1.1022(3) 0.2102(3) 0.1782(3)
H8 H 1.1303 0.2371 0.1729
C6E C 0.5104(4) -0.1524(4) -0.0322(4)
C7E C 0.5315(4) -0.1007(4) 0.0112(4)
C8E C 0.5850(4) -0.0645(4) -0.0046(4)
H7E H 0.6103 -0.0760 -0.0394
O8E O 0.5496(2) -0.1753(3) -0.0727(3)
O9E O 0.4524(2) -0.1708(3) -0.0306(3)
C6K C 0.4678(4) -0.0104(4) 0.1524(4)
C7K C 0.5112(4) -0.0315(4) 0.1007(4)
C8K C 0.4954(4) -0.0850(4) 0.0645(4)
H7K H 0.4606 -0.1103 0.0760
O8K O 0.4273(3) -0.0496(2) 0.1753(3)
O9K O 0.4694(3) 0.0476(2) 0.1708(3)
P1D P 1.02244(9) 0.01295(9) 0.16275(9)
C1D C 1.0841(3) -0.0303(3) 0.2052(3)
H1D H 1.1257 -0.0168 0.1893
H2D H 1.0819 -0.0192 0.2503
C2D C 1.0429(4) -0.1325(3) 0.2502(3)
H3D H 1.0052 -0.1075 0.2607
H4D H 1.0694 -0.1354 0.2883
C3D C 1.0233(4) -0.1985(4) 0.2293(4)
C4D C 1.1429(3) -0.1295(4) 0.1921(3)
H5D H 1.1416 -0.1735 0.2069
H6D H 1.1732 -0.1062 0.2187
C5D C 1.1653(3) -0.1278(3) 0.1222(4)
Fe1D Fe 1.02564(5) -0.12405(5) 0.10835(5)
Mg1D Mg 0.97262(9) -0.26744(9) 0.10882(9)
N1D N 1.0790(3) -0.1007(3) 0.1988(3)
O1D O 1.0221(3) -0.2078(2) 0.1686(2)
O2D O 1.0068(3) -0.2387(3) 0.2696(3)
O3D O 1.1225(2) -0.1270(2) 0.0792(2)
O4D O 1.2245(2) -0.1275(3) 0.1123(2)
O5D O 1.0164(2) -0.0237(2) 0.0981(2)
O6D O 1.0426(2) 0.0812(2) 0.1573(2)
O7D O 0.9578(2) 0.0031(2) 0.1956(2)
O10D O 0.9596(3) -0.3382(3) 0.1778(3)
O11D O 1.1782(3) 0.1022(3) 0.2102(3)
H8D H 1.1729 0.1303 0.2371
P1H P 1.16275(9) 0.02244(9) 0.01295(9)
C1H C 1.2052(3) 0.0841(3) -0.0303(3)
H1H H 1.1893 0.1257 -0.0168
H2H H 1.2503 0.0819 -0.0192
C2H C 1.2502(3) 0.0429(4) -0.1325(3)
H3H H 1.2607 0.0052 -0.1075
H4H H 1.2883 0.0694 -0.1354
C3H C 1.2293(4) 0.0233(4) -0.1985(4)
C4H C 1.1921(3) 0.1429(3) -0.1295(4)
H5H H 1.2069 0.1416 -0.1735
H6H H 1.2187 0.1732 -0.1062
C5H C 1.1222(4) 0.1653(3) -0.1278(3)
Fe1H Fe 1.10835(5) 0.02564(5) -0.12405(5)
Mg1H Mg 1.10882(9) -0.02738(9) -0.26744(9)
N1H N 1.1988(3) 0.0790(3) -0.1007(3)
O1H O 1.1686(2) 0.0221(3) -0.2078(2)
O2H O 1.2696(3) 0.0068(3) -0.2387(3)
O3H O 1.0792(2) 0.1225(2) -0.1270(2)
O4H O 1.1123(2) 0.2245(2) -0.1275(3)
O5H O 1.0981(2) 0.0164(2) -0.0237(2)
O6H O 1.1573(2) 0.0426(2) 0.0812(2)
O7H O 1.1956(2) -0.0422(2) 0.0031(2)
O10H O 1.1778(3) -0.0404(3) -0.3382(3)
O11H O 1.2102(3) 0.1782(3) 0.1022(3)
H8H H 1.2371 0.1729 0.1303
P1L P 0.98705(9) -0.16275(9) -0.02244(9)
C1L C 1.0303(3) -0.2052(3) -0.0841(3)
H1L H 1.0168 -0.1893 -0.1257
H2L H 1.0192 -0.2503 -0.0819
C2L C 1.1325(3) -0.2502(3) -0.0429(4)
H3L H 1.1075 -0.2607 -0.0052
H4L H 1.1354 -0.2883 -0.0694
C3L C 1.1985(4) -0.2293(4) -0.0233(4)
C4L C 1.1295(4) -0.1921(3) -0.1429(3)
H5L H 1.1735 -0.2069 -0.1416
H6L H 1.1062 -0.2187 -0.1732
C5L C 1.1278(3) -0.1222(4) -0.1653(3)
C6L C 1.3476(4) -0.0322(4) -0.0104(4)
C7L C 1.3993(4) 0.0112(4) -0.0315(4)
C8L C 1.4355(4) -0.0046(4) -0.0850(4)
H7L H 1.4240 -0.0394 -0.1103
Fe1L Fe 1.12405(5) -0.10835(5) -0.02564(5)
Mg1L Mg 1.26744(9) -0.10882(9) 0.02738(9)
Mg2L Mg 0.87432(10) -0.12568(10) -0.12568(10)
N1L N 1.1007(3) -0.1988(3) -0.0790(3)
O1L O 1.2078(2) -0.1686(2) -0.0221(3)
O2L O 1.2387(3) -0.2696(3) -0.0068(3)
O3L O 1.1270(2) -0.0792(2) -0.1225(2)
O4L O 1.1275(3) -0.1123(2) -0.2245(2)
O5L O 1.0237(2) -0.0981(2) -0.0164(2)
O6L O 0.9188(2) -0.1573(2) -0.0426(2)
O7L O 0.9969(2) -0.1956(2) 0.0422(2)
O8L O 1.3247(3) -0.0727(3) -0.0496(2)
O9L O 1.3292(3) -0.0306(3) 0.0476(2)
O10L O 1.3382(3) -0.1778(3) 0.0404(3)
O11L O 0.8978(3) -0.2102(3) -0.1782(3)
H8L H 0.8697 -0.2371 -0.1729
C6Q C 1.4896(4) 0.1524(4) 0.0322(4)
C7Q C 1.4685(4) 0.1007(4) -0.0112(4)
C8Q C 1.4150(4) 0.0645(4) 0.0046(4)
H7Q H 1.3897 0.0760 0.0394
O8Q O 1.4504(2) 0.1753(3) 0.0727(3)
O9Q O 1.5476(2) 0.1708(3) 0.0306(3)
C6W C 1.5322(4) 0.0104(4) -0.1524(4)
C7W C 1.4888(4) 0.0315(4) -0.1007(4)
C8W C 1.5046(4) 0.0850(4) -0.0645(4)
H7W H 1.5394 0.1103 -0.0760
O8W O 1.5727(3) 0.0496(2) -0.1753(3)
O9W O 1.5306(3) -0.0476(2) -0.1708(3)
P1P P 0.97756(9) -0.01295(9) -0.16275(9)
C1P C 0.9159(3) 0.0303(3) -0.2052(3)
H1P H 0.8743 0.0168 -0.1893
H2P H 0.9181 0.0192 -0.2503
C2P C 0.9571(4) 0.1325(3) -0.2502(3)
H3P H 0.9948 0.1075 -0.2607
H4P H 0.9306 0.1354 -0.2883
C3P C 0.9767(4) 0.1985(4) -0.2293(4)
C4P C 0.8571(3) 0.1295(4) -0.1921(3)
H5P H 0.8584 0.1735 -0.2069
H6P H 0.8268 0.1062 -0.2187
C5P C 0.8347(3) 0.1278(3) -0.1222(4)
Fe1P Fe 0.97436(5) 0.12405(5) -0.10835(5)
Mg1P Mg 1.02738(9) 0.26744(9) -0.10882(9)
N1P N 0.9210(3) 0.1007(3) -0.1988(3)
O1P O 0.9779(3) 0.2078(2) -0.1686(2)
O2P O 0.9932(3) 0.2387(3) -0.2696(3)
O3P O 0.8775(2) 0.1270(2) -0.0792(2)
O4P O 0.7755(2) 0.1275(3) -0.1123(2)
O5P O 0.9836(2) 0.0237(2) -0.0981(2)
O6P O 0.9574(2) -0.0812(2) -0.1573(2)
O7P O 1.0422(2) -0.0031(2) -0.1956(2)
O10P O 1.0404(3) 0.3382(3) -0.1778(3)
O11P O 0.8218(3) -0.1022(3) -0.2102(3)
H8P H 0.8271 -0.1303 -0.2371
P1T P 0.83725(9) -0.02244(9) -0.01295(9)
C1T C 0.7948(3) -0.0841(3) 0.0303(3)
H1T H 0.8107 -0.1257 0.0168
H2T H 0.7497 -0.0819 0.0192
C2T C 0.7498(3) -0.0429(4) 0.1325(3)
H3T H 0.7393 -0.0052 0.1075
H4T H 0.7117 -0.0694 0.1354
C3T C 0.7707(4) -0.0233(4) 0.1985(4)
C4T C 0.8079(3) -0.1429(3) 0.1295(4)
H5T H 0.7931 -0.1416 0.1735
H6T H 0.7813 -0.1732 0.1062
C5T C 0.8778(4) -0.1653(3) 0.1278(3)
Fe1T Fe 0.89165(5) -0.02564(5) 0.12405(5)
Mg1T Mg 0.89118(9) 0.02738(9) 0.26744(9)
N1T N 0.8012(3) -0.0790(3) 0.1007(3)
O1T O 0.8314(2) -0.0221(3) 0.2078(2)
O2T O 0.7304(3) -0.0068(3) 0.2387(3)
O3T O 0.9208(2) -0.1225(2) 0.1270(2)
O4T O 0.8877(2) -0.2245(2) 0.1275(3)
O5T O 0.9019(2) -0.0164(2) 0.0237(2)
O6T O 0.8427(2) -0.0426(2) -0.0812(2)
O7T O 0.8044(2) 0.0422(2) -0.0031(2)
O10T O 0.8222(3) 0.0404(3) 0.3382(3)
O11T O 0.7898(3) -0.1782(3) -0.1022(3)
H8T H 0.7629 -0.1729 -0.1303
Mg1E Mg 0.47262(9) -0.23256(9) -0.10882(9)
Mg1K Mg 0.39118(9) 0.02738(9) 0.23256(9)
Mg1Q Mg 1.52738(9) 0.23256(9) 0.10882(9)
Mg1W Mg 1.60882(9) -0.02738(9) -0.23256(9)
O8D O 1.0496(2) -0.3247(3) 0.0727(3)
O8H O 1.0727(3) 0.0496(2) -0.3247(3)
O8P O 0.9504(2) 0.3247(3) -0.0727(3)
O8T O 0.9273(3) -0.0496(2) 0.3247(3)
O9D O 0.9524(2) -0.3292(3) 0.0306(3)
O9H O 1.0306(3) -0.0476(2) -0.3292(3)
O9P O 1.0476(2) 0.3292(3) -0.0306(3)
O9T O 0.9694(3) 0.0476(2) 0.3292(3)
O12 O 0.1637(5) 0.3357(4) 0.1969(4)
loop_
_geom_bond_atom_site_label_1
_geom_bond_atom_site_label_2
_geom_bond_site_symmetry_1
_geom_bond_site_symmetry_2
P1 C1 1_555 1_555
C1 H1 1_555 1_555
H2 C1 1_555 1_555
C2 H3 1_555 1_555
H4 C2 1_555 1_555
C3 C2 1_555 1_555
C4 H5 1_555 1_555
H6 C4 1_555 1_555
C5 C4 1_555 1_555
C6 C7 1_555 1_555
C7 C8 1_555 1_555
C8 H7 1_555 1_555
Fe1 N1 1_555 1_555
Fe2 O5 1_555 1_555
Mg1 O1 1_555 1_555
Mg2 O6 1_555 1_555
N1 C1 1_555 1_555
O1 C3 1_555 1_555
O2 C3 1_555 1_555
O3 C5 1_555 1_555
O4 C5 1_555 1_555
O5 P1 1_555 1_555
O6 P1 1_555 1_555
O7 P1 1_555 1_555
O8 C6 1_555 1_555
O9 C6 1_555 1_555
O10 Mg1 1_555 1_555
O11 Mg2 1_555 1_555
H8 O11 1_555 1_555
C6E C7E 1_555 1_555
C7E C8E 1_555 1_555
C8E C7 1_555 1_555
H7E C8E 1_555 1_555
O8E C6E 1_555 1_555
O9E C6E 1_555 1_555
C6K C7K 1_555 1_555
C7K C8 1_555 1_555
C8K C7E 1_555 1_555
H7K C8K 1_555 1_555
O8K C6K 1_555 1_555
O9K C6K 1_555 1_555
P1D C1D 1_555 1_555
C1D H1D 1_555 1_555
H2D C1D 1_555 1_555
C2D H3D 1_555 1_555
H4D C2D 1_555 1_555
C3D C2D 1_555 1_555
C4D H5D 1_555 1_555
H6D C4D 1_555 1_555
C5D C4D 1_555 1_555
Fe1D N1D 1_555 1_555
Mg1D O1D 1_555 1_555
N1D C1D 1_555 1_555
O1D C3D 1_555 1_555
O2D C3D 1_555 1_555
O3D C5D 1_555 1_555
O4D C5D 1_555 1_555
O5D Fe2 1_555 1_555
O6D Mg2 1_555 1_555
O7D P1D 1_555 1_555
O10D Mg1D 1_555 1_555
O11D Mg2 1_555 1_555
H8D O11D 1_555 1_555
P1H C1H 1_555 1_555
C1H H1H 1_555 1_555
H2H C1H 1_555 1_555
C2H H3H 1_555 1_555
H4H C2H 1_555 1_555
C3H C2H 1_555 1_555
C4H H5H 1_555 1_555
H6H C4H 1_555 1_555
C5H C4H 1_555 1_555
Fe1H N1H 1_555 1_555
Mg1H O1H 1_555 1_555
N1H C1H 1_555 1_555
O1H C3H 1_555 1_555
O2H C3H 1_555 1_555
O3H C5H 1_555 1_555
O4H C5H 1_555 1_555
O5H Fe2 1_555 1_555
O6H Mg2 1_555 1_555
O7H P1H 1_555 1_555
O10H Mg1H 1_555 1_555
O11H Mg2 1_555 1_555
H8H O11H 1_555 1_555
P1L C1L 1_555 1_555
C1L H1L 1_555 1_555
H2L C1L 1_555 1_555
C2L H3L 1_555 1_555
H4L C2L 1_555 1_555
C3L C2L 1_555 1_555
C4L H5L 1_555 1_555
H6L C4L 1_555 1_555
C5L C4L 1_555 1_555
C6L C7L 1_555 1_555
C7L C8L 1_555 1_555
C8L H7L 1_555 1_555
Fe1L O3D 1_555 1_555
Mg1L O4D 1_555 1_555
Mg2L O6L 1_555 1_555
N1L C1L 1_555 1_555
O1L C3L 1_555 1_555
O2L C3L 1_555 1_555
O3L Fe1H 1_555 1_555
O4L Mg1H 1_555 1_555
O5L Fe2 1_555 1_555
O6L P1L 1_555 1_555
O7L Fe1D 1_555 1_555
O8L C6L 1_555 1_555
O9L C6L 1_555 1_555
O10L Mg1L 1_555 1_555
O11L Mg2L 1_555 1_555
H8L O11L 1_555 1_555
C6Q C7Q 1_555 1_555
C7Q C8Q 1_555 1_555
C8Q C7L 1_555 1_555
H7Q C8Q 1_555 1_555
O8Q C6Q 1_555 1_555
O9Q C6Q 1_555 1_555
C6W C7W 1_555 1_555
C7W C8L 1_555 1_555
C8W C7Q 1_555 1_555
H7W C8W 1_555 1_555
O8W C6W 1_555 1_555
O9W C6W 1_555 1_555
P1P C1P 1_555 1_555
C1P H1P 1_555 1_555
H2P C1P 1_555 1_555
C2P H3P 1_555 1_555
H4P C2P 1_555 1_555
C3P C2P 1_555 1_555
C4P H5P 1_555 1_555
H6P C4P 1_555 1_555
C5P C4P 1_555 1_555
Fe1P O7 1_555 1_555
Mg1P O7 1_555 1_555
N1P C1P 1_555 1_555
O1P C3P 1_555 1_555
O2P C3P 1_555 1_555
O3P Fe1 1_555 1_555
O4P Mg1 1_555 1_555
O5P Fe2 1_555 1_555
O6P Mg2L 1_555 1_555
O7P Fe1H 1_555 1_555
O10P Mg1P 1_555 1_555
O11P Mg2L 1_555 1_555
H8P O11P 1_555 1_555
P1T C1T 1_555 1_555
C1T H1T 1_555 1_555
H2T C1T 1_555 1_555
C2T H3T 1_555 1_555
H4T C2T 1_555 1_555
C3T C2T 1_555 1_555
C4T H5T 1_555 1_555
H6T C4T 1_555 1_555
C5T C4T 1_555 1_555
Fe1T O3 1_555 1_555
Mg1T O4 1_555 1_555
N1T C1T 1_555 1_555
O1T C3T 1_555 1_555
O2T C3T 1_555 1_555
O3T Fe1D 1_555 1_555
O4T Mg1D 1_555 1_555
O5T Fe2 1_555 1_555
O6T Mg2L 1_555 1_555
O7T Fe1 1_555 1_555
O10T Mg1T 1_555 1_555
O11T Mg2L 1_555 1_555
H8T O11T 1_555 1_555
Mg1E O8E 1_555 1_555
Mg1K O8K 1_555 1_555
Mg1Q O8Q 1_555 1_555
Mg1W O8W 1_555 1_555
O8D Mg1D 1_555 1_555
O8H Mg1H 1_555 1_555
O8P Mg1P 1_555 1_555
O8T Mg1T 1_555 1_555
O9D Mg1D 1_555 1_555
O9H Mg1H 1_555 1_555
O9P Mg1P 1_555 1_555
O9T Mg1T 1_555 1_555
C2 N1 1_555 1_555
C4 N1 1_555 1_555
Fe1 O1 1_555 1_555
Fe1 O3 1_555 1_555
Fe1 O5 1_555 1_555
Mg1 O8 1_555 1_555
Mg1 O9 1_555 1_555
Mg1 O7T 1_555 1_555
O9E Mg1E 1_555 1_555
C7K C8K 1_555 1_555
O9K Mg1K 1_555 1_555
P1D O5D 1_555 1_555
P1D O6D 1_555 1_555
C2D N1D 1_555 1_555
C4D N1D 1_555 1_555
Fe1D O1D 1_555 1_555
Fe1D O3D 1_555 1_555
Fe1D O5D 1_555 1_555
Mg1D O7L 1_555 1_555
O7D Fe1T 1_555 1_555
O7D Mg1T 1_555 1_555
P1H O5H 1_555 1_555
P1H O6H 1_555 1_555
C2H N1H 1_555 1_555
C4H N1H 1_555 1_555
Fe1H O1H 1_555 1_555
Fe1H O3H 1_555 1_555
Fe1H O5H 1_555 1_555
Mg1H O7P 1_555 1_555
O3H Fe1P 1_555 1_555
O4H Mg1P 1_555 1_555
O7H Fe1L 1_555 1_555
O7H Mg1L 1_555 1_555
P1L O5L 1_555 1_555
P1L O7L 1_555 1_555
C2L N1L 1_555 1_555
C4L N1L 1_555 1_555
C5L O3L 1_555 1_555
C5L O4L 1_555 1_555
Fe1L N1L 1_555 1_555
Fe1L O1L 1_555 1_555
Fe1L O3L 1_555 1_555
Fe1L O5L 1_555 1_555
Mg1L O1L 1_555 1_555
Mg1L O8L 1_555 1_555
Mg1L O9L 1_555 1_555
O9Q Mg1Q 1_555 1_555
C7W C8W 1_555 1_555
O9W Mg1W 1_555 1_555
P1P O5P 1_555 1_555
P1P O6P 1_555 1_555
P1P O7P 1_555 1_555
C2P N1P 1_555 1_555
C4P N1P 1_555 1_555
C5P O3P 1_555 1_555
C5P O4P 1_555 1_555
Fe1P N1P 1_555 1_555
Fe1P O1P 1_555 1_555
Fe1P O3P 1_555 1_555
Fe1P O5P 1_555 1_555
Mg1P O1P 1_555 1_555
P1T O5T 1_555 1_555
P1T O6T 1_555 1_555
P1T O7T 1_555 1_555
C2T N1T 1_555 1_555
C4T N1T 1_555 1_555
C5T O3T 1_555 1_555
C5T O4T 1_555 1_555
Fe1T N1T 1_555 1_555
Fe1T O1T 1_555 1_555
Fe1T O3T 1_555 1_555
Fe1T O5T 1_555 1_555
Mg1T O1T 1_555 1_555

#END
