
#######################################################################
#
#                 Cambridge Crystallographic Data Centre
#                                CCDC 
#
#######################################################################
#
# If this CIF has been generated from an entry in the Cambridge 
# Structural Database, then it will include bibliographic, chemical, 
# crystal, experimental, refinement or atomic coordinate data resulting 
# from the CCDC's data processing and validation procedures.
#
#######################################################################

data_KUFLON
_symmetry_cell_setting           orthorhombic
_symmetry_space_group_name_H-M   'P b c a'
_symmetry_Int_Tables_number      61
_space_group_name_Hall           '-P 2ac 2ab'
loop_
_symmetry_equiv_pos_site_id
_symmetry_equiv_pos_as_xyz
1 x,y,z
2 1/2-x,-y,1/2+z
3 -x,1/2+y,1/2-z
4 1/2+x,1/2-y,-z
5 -x,-y,-z
6 1/2+x,y,1/2-z
7 x,1/2-y,1/2+z
8 1/2-x,1/2+y,z
_cell_length_a                   13.717(3)
_cell_length_b                   15.572(3)
_cell_length_c                   22.720(5)
_cell_angle_alpha                90
_cell_angle_beta                 90
_cell_angle_gamma                90
_cell_volume                     4853.02
loop_
_atom_site_label
_atom_site_type_symbol
_atom_site_fract_x
_atom_site_fract_y
_atom_site_fract_z
Pr1 Pr 0.737844(19) 0.113479(16) 0.546860(11)
Zn1 Zn 0.70558(5) -0.00312(3) 0.79897(2)
Cl1 Cl 0.87141(13) -0.00415(9) 0.80404(7)
N1 N 0.6617(3) 0.1186(2) 0.77228(17)
N2 N 0.8438(3) 0.1227(2) 0.32643(17)
O1 O 0.6606(3) 0.2212(2) 0.60281(14)
O2 O 0.6073(3) 0.3460(2) 0.63590(14)
O3 O 0.6770(3) 0.0535(2) 0.87992(14)
O4 O 0.6419(3) 0.1788(2) 0.92129(15)
O5 O 0.8318(3) 0.0606(2) 0.21839(14)
O6 O 0.8786(3) 0.1836(2) 0.17810(14)
O7 O 0.8296(2) 0.2212(2) 0.49586(14)
O8 O 0.9053(3) 0.3399(2) 0.46802(14)
O9 O 0.5703(3) 0.0617(3) 0.56852(19)
H1 H 0.523(3) 0.096(3) 0.562(3)
H2 H 0.555(4) 0.0099(12) 0.575(2)
O10 O 0.8936(3) 0.0509(3) 0.5200(2)
H3 H 0.904(4) -0.0019(11) 0.515(2)
H4 H 0.933(4) 0.086(4) 0.505(3)
O11 O 0.7490(3) -0.0154(2) 0.61263(15)
H5 H 0.7431 -0.0656 0.5982
H6 H 0.7588 -0.0090 0.6493
O12 O 0.8542(3) 0.1522(2) 0.62793(17)
H7 H 0.8988 0.1172 0.6380
H8 H 0.8490 0.2003 0.6453
O13 O 0.6410(3) 0.1616(2) 0.46229(15)
H9 H 0.6421 0.2140 0.4518
H10 H 0.6063 0.1258 0.4434
O14 O 0.7150(3) -0.0141(2) 0.48029(16)
H11 H 0.7528 -0.0572 0.4832
H12 H 0.6695 -0.0142 0.4549
C1 C 0.6572(4) 0.1507(3) 0.7172(2)
H19 H 0.670(4) 0.117(3) 0.687(2)
C2 C 0.6366(3) 0.2357(3) 0.7050(2)
C3 C 0.6171(4) 0.2888(3) 0.7524(2)
H20 H 0.599(4) 0.345(3) 0.746(2)
C4 C 0.6195(4) 0.2561(3) 0.8094(2)
H21 H 0.606(4) 0.288(3) 0.843(2)
C5 C 0.6445(3) 0.1712(3) 0.8175(2)
C6 C 0.6547(4) 0.1324(3) 0.8781(2)
C7 C 0.6345(3) 0.2709(3) 0.6430(2)
C8 C 0.8469(4) 0.1524(3) 0.3814(2)
H22 H 0.834(3) 0.116(3) 0.411(2)
C9 C 0.8700(3) 0.2368(3) 0.39519(19)
C10 C 0.8901(4) 0.2915(3) 0.3490(2)
H23 H 0.913(3) 0.339(3) 0.359(2)
C11 C 0.8876(4) 0.2615(3) 0.2916(2)
H24 H 0.899(3) 0.300(3) 0.2623(17)
C12 C 0.8639(3) 0.1767(3) 0.28137(19)
C13 C 0.8585(4) 0.1385(3) 0.2207(2)
C14 C 0.8685(3) 0.2681(3) 0.4584(2)
Zn1A Zn 0.79442(5) 0.00312(3) 0.29897(2)
N2A N 0.6562(3) -0.1227(2) 0.82643(17)
O5A O 0.6682(3) -0.0606(2) 0.71839(14)
O15 O 0.5390(3) -0.1104(2) 0.57778(15)
H13 H 0.5418 -0.1378 0.6101
H14 H 0.4986 -0.1255 0.5514
O16 O 0.9369(3) -0.1169(2) 0.52131(16)
H15 H 0.9867 -0.1233 0.5432
H16 H 0.9245 -0.1535 0.4946
O17 O 0.9654(3) 0.0199(3) 0.6790(2)
H17 H 0.9927 0.0555 0.7021
H18 H 0.9804 -0.0330 0.6805
loop_
_geom_bond_atom_site_label_1
_geom_bond_atom_site_label_2
_geom_bond_site_symmetry_1
_geom_bond_site_symmetry_2
Pr1 O1 1_555 1_555
Zn1 Cl1 1_555 1_555
N1 Zn1 1_555 1_555
N2 C8 1_555 1_555
O1 C7 1_555 1_555
O2 C7 1_555 1_555
O3 Zn1 1_555 1_555
O4 C6 1_555 1_555
O5 C13 1_555 1_555
O6 C13 1_555 1_555
O7 Pr1 1_555 1_555
O8 C14 1_555 1_555
O9 Pr1 1_555 1_555
H1 O9 1_555 1_555
H2 O9 1_555 1_555
O10 Pr1 1_555 1_555
H3 O10 1_555 1_555
H4 O10 1_555 1_555
O11 Pr1 1_555 1_555
H5 O11 1_555 1_555
H6 O11 1_555 1_555
O12 Pr1 1_555 1_555
H7 O12 1_555 1_555
H8 O12 1_555 1_555
O13 Pr1 1_555 1_555
H9 O13 1_555 1_555
H10 O13 1_555 1_555
O14 Pr1 1_555 1_555
H11 O14 1_555 1_555
H12 O14 1_555 1_555
O15 H13 1_555 1_555
H14 O15 1_555 1_555
O16 H15 1_555 1_555
H16 O16 1_555 1_555
O17 H17 1_555 1_555
H18 O17 1_555 1_555
C1 N1 1_555 1_555
H19 C1 1_555 1_555
C2 C1 1_555 1_555
C3 C2 1_555 1_555
H20 C3 1_555 1_555
C4 C3 1_555 1_555
H21 C4 1_555 1_555
C5 N1 1_555 1_555
C6 O3 1_555 1_555
C7 C2 1_555 1_555
C8 H22 1_555 1_555
C9 C8 1_555 1_555
C10 C9 1_555 1_555
H23 C10 1_555 1_555
C11 C10 1_555 1_555
H24 C11 1_555 1_555
C12 N2 1_555 1_555
C13 C12 1_555 1_555
C14 O7 1_555 1_555
Zn1A N2 1_555 1_555
N2A Zn1 1_555 1_555
O5A Zn1 1_555 1_555
O5 Zn1A 1_555 1_555
C4 C5 1_555 1_555
C5 C6 1_555 1_555
C9 C14 1_555 1_555
C11 C12 1_555 1_555

#END
