
#######################################################################
#
#                 Cambridge Crystallographic Data Centre
#                                CCDC 
#
#######################################################################
#
# If this CIF has been generated from an entry in the Cambridge 
# Structural Database, then it will include bibliographic, chemical, 
# crystal, experimental, refinement or atomic coordinate data resulting 
# from the CCDC's data processing and validation procedures.
#
#######################################################################

data_KUFLIH
_symmetry_cell_setting           orthorhombic
_symmetry_space_group_name_H-M   'P b c a'
_symmetry_Int_Tables_number      61
_space_group_name_Hall           '-P 2ac 2ab'
loop_
_symmetry_equiv_pos_site_id
_symmetry_equiv_pos_as_xyz
1 x,y,z
2 1/2-x,-y,1/2+z
3 -x,1/2+y,1/2-z
4 1/2+x,1/2-y,-z
5 -x,-y,-z
6 1/2+x,y,1/2-z
7 x,1/2-y,1/2+z
8 1/2-x,1/2+y,z
_cell_length_a                   13.7020(14)
_cell_length_b                   15.5623(16)
_cell_length_c                   22.702(2)
_cell_angle_alpha                90
_cell_angle_beta                 90
_cell_angle_gamma                90
_cell_volume                     4840.85
loop_
_atom_site_label
_atom_site_type_symbol
_atom_site_fract_x
_atom_site_fract_y
_atom_site_fract_z
Nd1 Nd 0.262026(15) 0.613307(13) 0.453667(8)
Zn1 Zn 0.29333(4) 0.49690(3) 0.20154(2)
Cl1 Cl 0.12735(11) 0.49567(8) 0.19624(6)
N1 N 0.3378(3) 0.6187(2) 0.22850(14)
N2 N 0.1565(3) 0.62286(19) 0.67405(14)
O1 O 0.3224(2) 0.55395(18) 0.12034(12)
O2 O 0.3574(3) 0.67884(19) 0.07943(12)
O3 O 0.3386(2) 0.72146(19) 0.39832(12)
O4 O 0.3918(3) 0.84600(19) 0.36489(12)
O5 O 0.1688(3) 0.56036(18) 0.78220(12)
O6 O 0.1211(3) 0.68386(18) 0.82244(12)
O7 O 0.1706(2) 0.72120(17) 0.50389(11)
O8 O 0.0944(2) 0.83988(18) 0.53211(12)
O9 O 0.2506(2) 0.4850(2) 0.38817(14)
H1 H 0.2141 0.4864 0.3579
H2 H 0.2833 0.4401 0.3961
O10 O 0.4288(2) 0.56185(19) 0.43179(15)
H3 H 0.4474 0.5571 0.3962
H4 H 0.4675 0.5489 0.4597
O11 O 0.1073(2) 0.5510(2) 0.48042(17)
H5 H 0.095(4) 0.4979(9) 0.481(2)
H6 H 0.056(2) 0.576(3) 0.493(2)
O12 O 0.2855(2) 0.4865(2) 0.51956(14)
H7 H 0.2478 0.4433 0.5166
H8 H 0.3311 0.4865 0.5450
O13 O 0.3576(3) 0.6610(2) 0.53762(14)
H9 H 0.353(4) 0.7108(14) 0.552(2)
H10 H 0.409(2) 0.640(3) 0.553(2)
O14 O 0.1461(3) 0.6519(2) 0.37306(16)
H11 H 0.137(4) 0.6995(18) 0.356(2)
H12 H 0.104(4) 0.615(3) 0.362(3)
C1 C 0.3420(3) 0.6503(3) 0.28321(18)
H19 H 0.331(5) 0.624(3) 0.313(3)
C2 C 0.3630(3) 0.7355(2) 0.29573(15)
C3 C 0.3824(3) 0.7891(2) 0.24840(17)
H20 H 0.403(4) 0.846(3) 0.258(2)
C4 C 0.3799(3) 0.7570(3) 0.19129(18)
H21 H 0.390(3) 0.792(3) 0.160(2)
C5 C 0.3553(3) 0.6713(2) 0.18331(16)
C6 C 0.3452(3) 0.6326(2) 0.12245(17)
C7 C 0.3648(3) 0.7707(2) 0.35743(16)
C8 C 0.1534(3) 0.6521(2) 0.61888(17)
H22 H 0.166(3) 0.614(3) 0.589(2)
C9 C 0.1304(3) 0.7363(2) 0.60500(15)
C10 C 0.1093(3) 0.7918(2) 0.65130(16)
H23 H 0.084(4) 0.841(3) 0.639(2)
C11 C 0.1119(3) 0.7623(2) 0.70872(17)
H24 H 0.103(3) 0.800(3) 0.7398(17)
C12 C 0.1360(3) 0.6770(2) 0.71875(15)
C13 C 0.1416(3) 0.6385(2) 0.77995(17)
C14 C 0.1319(3) 0.7680(2) 0.54176(15)
Zn1A Zn 0.20667(4) 0.50310(3) 0.70154(2)
N2A N 0.3435(3) 0.37714(19) 0.17405(14)
O5A O 0.3312(3) 0.43964(18) 0.28220(12)
O15 O 0.0628(2) 0.38356(19) 0.47942(13)
H13 H 0.0131 0.3772 0.4575
H14 H 0.0752 0.3469 0.5062
O16 O 0.0386(2) 0.88841(19) 0.42239(13)
H15 H 0.0025 0.8922 0.3921
H16 H 0.0390 0.9286 0.4477
O17 O 0.0341(3) 0.5201(3) 0.32238(19)
H17 H 0.0071 0.5555 0.2990
H18 H 0.0185 0.4673 0.3213
loop_
_geom_bond_atom_site_label_1
_geom_bond_atom_site_label_2
_geom_bond_site_symmetry_1
_geom_bond_site_symmetry_2
Nd1 O3 1_555 1_555
Zn1 Cl1 1_555 1_555
N1 Zn1 1_555 1_555
N2 C8 1_555 1_555
O1 Zn1 1_555 1_555
O2 C6 1_555 1_555
O3 C7 1_555 1_555
O4 C7 1_555 1_555
O5 C13 1_555 1_555
O6 C13 1_555 1_555
O7 Nd1 1_555 1_555
O8 C14 1_555 1_555
O9 Nd1 1_555 1_555
H1 O9 1_555 1_555
H2 O9 1_555 1_555
O10 Nd1 1_555 1_555
H3 O10 1_555 1_555
H4 O10 1_555 1_555
O11 Nd1 1_555 1_555
H5 O11 1_555 1_555
H6 O11 1_555 1_555
O12 Nd1 1_555 1_555
H7 O12 1_555 1_555
H8 O12 1_555 1_555
O13 Nd1 1_555 1_555
H9 O13 1_555 1_555
H10 O13 1_555 1_555
O14 Nd1 1_555 1_555
H11 O14 1_555 1_555
H12 O14 1_555 1_555
O15 H13 1_555 1_555
H14 O15 1_555 1_555
O16 H15 1_555 1_555
H16 O16 1_555 1_555
O17 H17 1_555 1_555
H18 O17 1_555 1_555
C1 N1 1_555 1_555
H19 C1 1_555 1_555
C2 C1 1_555 1_555
C3 C2 1_555 1_555
H20 C3 1_555 1_555
C4 C3 1_555 1_555
H21 C4 1_555 1_555
C5 N1 1_555 1_555
C6 O1 1_555 1_555
C7 C2 1_555 1_555
C8 H22 1_555 1_555
C9 C8 1_555 1_555
C10 C9 1_555 1_555
H23 C10 1_555 1_555
C11 C10 1_555 1_555
H24 C11 1_555 1_555
C12 N2 1_555 1_555
C13 C12 1_555 1_555
C14 O7 1_555 1_555
Zn1A N2 1_555 1_555
N2A Zn1 1_555 1_555
O5A Zn1 1_555 1_555
O5 Zn1A 1_555 1_555
C4 C5 1_555 1_555
C5 C6 1_555 1_555
C9 C14 1_555 1_555
C11 C12 1_555 1_555

#END
