
#######################################################################
#
#                 Cambridge Crystallographic Data Centre
#                                CCDC 
#
#######################################################################
#
# If this CIF has been generated from an entry in the Cambridge 
# Structural Database, then it will include bibliographic, chemical, 
# crystal, experimental, refinement or atomic coordinate data resulting 
# from the CCDC's data processing and validation procedures.
#
#######################################################################

data_KUFLUT
_symmetry_cell_setting           orthorhombic
_symmetry_space_group_name_H-M   'P b c a'
_symmetry_Int_Tables_number      61
_space_group_name_Hall           '-P 2ac 2ab'
loop_
_symmetry_equiv_pos_site_id
_symmetry_equiv_pos_as_xyz
1 x,y,z
2 1/2-x,-y,1/2+z
3 -x,1/2+y,1/2-z
4 1/2+x,1/2-y,-z
5 -x,-y,-z
6 1/2+x,y,1/2-z
7 x,1/2-y,1/2+z
8 1/2-x,1/2+y,z
_cell_length_a                   13.6812(12)
_cell_length_b                   15.5220(14)
_cell_length_c                   22.678(2)
_cell_angle_alpha                90
_cell_angle_beta                 90
_cell_angle_gamma                90
_cell_volume                     4815.89
loop_
_atom_site_label
_atom_site_type_symbol
_atom_site_fract_x
_atom_site_fract_y
_atom_site_fract_z
Sm1 Sm 0.73803(2) 0.112794(18) 0.544988(12)
Zn1 Zn 0.79079(6) 0.00323(4) 0.29732(3)
Cl1 Cl 0.62471(14) 0.00414(11) 0.30247(9)
N1 N 0.8420(3) 0.1225(3) 0.3250(2)
N2 N 0.6628(3) 0.1183(3) 0.7702(2)
O1 O 0.8287(3) 0.2200(2) 0.49572(17)
O2 O 0.9061(3) 0.3389(3) 0.46775(17)
O3 O 0.8293(3) 0.0614(2) 0.21648(17)
O4 O 0.8787(3) 0.1842(3) 0.17689(17)
O5 O 0.6629(3) 0.2205(3) 0.59979(17)
O6 O 0.6083(3) 0.3448(3) 0.63257(17)
O7 O 0.6809(3) 0.0542(2) 0.87862(17)
O8 O 0.6418(4) 0.1795(3) 0.91961(18)
O9 O 0.7501(3) -0.0139(3) 0.60988(18)
H1 H 0.7435 -0.0643 0.5957
H2 H 0.7606 -0.0073 0.6465
O10 O 0.5733(3) 0.0623(3) 0.5671(2)
H3 H 0.526(3) 0.096(3) 0.559(3)
H4 H 0.552(4) 0.0126(16) 0.574(2)
O11 O 0.7139(3) -0.0126(3) 0.47959(18)
H5 H 0.7151 -0.0633 0.4937
H6 H 0.7041 -0.0050 0.4429
O12 O 0.8528(3) 0.1513(3) 0.6243(2)
H7 H 0.8974 0.1161 0.6345
H8 H 0.8478 0.1997 0.6415
O13 O 0.8908(3) 0.0505(3) 0.5174(2)
H9 H 0.8921 0.0067 0.4948
H10 H 0.9439 0.0720 0.5301
O14 O 0.6435(3) 0.1603(3) 0.4623(2)
H11 H 0.591(2) 0.145(3) 0.446(2)
H12 H 0.649(5) 0.208(2) 0.445(3)
C1 C 0.8446(4) 0.1520(3) 0.3797(3)
H19 H 0.834(3) 0.117(3) 0.409(2)
C2 C 0.8686(4) 0.2362(3) 0.3947(2)
C3 C 0.8900(4) 0.2914(4) 0.3484(3)
H20 H 0.908(5) 0.337(5) 0.360(3)
C4 C 0.8874(4) 0.2620(4) 0.2910(3)
H21 H 0.892(4) 0.302(4) 0.260(2)
C5 C 0.8627(4) 0.1775(3) 0.2806(2)
C6 C 0.8567(4) 0.1387(3) 0.2194(3)
C7 C 0.8679(4) 0.2670(3) 0.4580(2)
C8 C 0.6588(5) 0.1498(4) 0.7149(3)
H22 H 0.672(5) 0.114(4) 0.687(3)
C9 C 0.6371(4) 0.2349(3) 0.7028(2)
C10 C 0.6179(4) 0.2885(4) 0.7494(3)
H23 H 0.594(4) 0.340(4) 0.746(3)
C11 C 0.6194(5) 0.2567(4) 0.8065(3)
H24 H 0.615(4) 0.295(4) 0.836(3)
C12 C 0.6454(4) 0.1714(4) 0.8155(2)
C13 C 0.6552(4) 0.1326(4) 0.8765(3)
C14 C 0.6363(4) 0.2699(4) 0.6400(2)
Zn1A Zn 0.70921(6) -0.00323(4) 0.79732(3)
N2A N 0.8372(3) -0.1183(3) 0.2702(2)
O7A O 0.8191(3) -0.0542(2) 0.37862(17)
O15 O 0.9611(3) 0.3877(3) 0.57716(18)
H13 H 1.0077 0.3983 0.5534
H14 H 0.9504 0.4211 0.6061
O16 O 0.9372(3) -0.1160(3) 0.51929(19)
H15 H 0.9212 -0.1558 0.4954
H16 H 0.9906 -0.1193 0.5383
O17 O 0.9655(4) 0.0198(3) 0.6752(2)
H17 H 0.9883 -0.0309 0.6725
H18 H 0.9855 0.0532 0.7024
loop_
_geom_bond_atom_site_label_1
_geom_bond_atom_site_label_2
_geom_bond_site_symmetry_1
_geom_bond_site_symmetry_2
Sm1 O1 1_555 1_555
Zn1 Cl1 1_555 1_555
N1 Zn1 1_555 1_555
N2 C8 1_555 1_555
O1 C7 1_555 1_555
O2 C7 1_555 1_555
O3 Zn1 1_555 1_555
O4 C6 1_555 1_555
O5 Sm1 1_555 1_555
O6 C14 1_555 1_555
O7 C13 1_555 1_555
O8 C13 1_555 1_555
O9 Sm1 1_555 1_555
H1 O9 1_555 1_555
H2 O9 1_555 1_555
O10 Sm1 1_555 1_555
H3 O10 1_555 1_555
H4 O10 1_555 1_555
O11 Sm1 1_555 1_555
H5 O11 1_555 1_555
H6 O11 1_555 1_555
O12 Sm1 1_555 1_555
H7 O12 1_555 1_555
H8 O12 1_555 1_555
O13 Sm1 1_555 1_555
H9 O13 1_555 1_555
H10 O13 1_555 1_555
O14 Sm1 1_555 1_555
H11 O14 1_555 1_555
H12 O14 1_555 1_555
O15 H13 1_555 1_555
H14 O15 1_555 1_555
O16 H15 1_555 1_555
H16 O16 1_555 1_555
O17 H17 1_555 1_555
H18 O17 1_555 1_555
C1 N1 1_555 1_555
H19 C1 1_555 1_555
C2 C1 1_555 1_555
C3 C2 1_555 1_555
H20 C3 1_555 1_555
C4 C3 1_555 1_555
H21 C4 1_555 1_555
C5 N1 1_555 1_555
C6 O3 1_555 1_555
C7 C2 1_555 1_555
C8 H22 1_555 1_555
C9 C8 1_555 1_555
C10 C9 1_555 1_555
H23 C10 1_555 1_555
C11 C10 1_555 1_555
H24 C11 1_555 1_555
C12 N2 1_555 1_555
C13 C12 1_555 1_555
C14 O5 1_555 1_555
Zn1A N2 1_555 1_555
N2A Zn1 1_555 1_555
O7A Zn1 1_555 1_555
O7 Zn1A 1_555 1_555
C4 C5 1_555 1_555
C5 C6 1_555 1_555
C9 C14 1_555 1_555
C11 C12 1_555 1_555

#END
