
#######################################################################
#
#                 Cambridge Crystallographic Data Centre
#                                CCDC 
#
#######################################################################
#
# If this CIF has been generated from an entry in the Cambridge 
# Structural Database, then it will include bibliographic, chemical, 
# crystal, experimental, refinement or atomic coordinate data resulting 
# from the CCDC's data processing and validation procedures.
#
#######################################################################

data_KUFMAA
_symmetry_cell_setting           orthorhombic
_symmetry_space_group_name_H-M   'P b c a'
_symmetry_Int_Tables_number      61
_space_group_name_Hall           '-P 2ac 2ab'
loop_
_symmetry_equiv_pos_site_id
_symmetry_equiv_pos_as_xyz
1 x,y,z
2 1/2-x,-y,1/2+z
3 -x,1/2+y,1/2-z
4 1/2+x,1/2-y,-z
5 -x,-y,-z
6 1/2+x,y,1/2-z
7 x,1/2-y,1/2+z
8 1/2-x,1/2+y,z
_cell_length_a                   13.6691(9)
_cell_length_b                   15.5049(10)
_cell_length_c                   22.6549(15)
_cell_angle_alpha                90
_cell_angle_beta                 90
_cell_angle_gamma                90
_cell_volume                     4801.43
loop_
_atom_site_label
_atom_site_type_symbol
_atom_site_fract_x
_atom_site_fract_y
_atom_site_fract_z
Eu1 Eu 0.238086(14) 0.612605(13) 0.455608(8)
Zn1 Zn 0.21044(4) 0.49671(3) 0.20316(2)
Cl1 Cl 0.37654(11) 0.49559(8) 0.19815(6)
N1 N 0.1641(3) 0.6181(2) 0.23036(14)
N2 N 0.3412(3) 0.6225(2) 0.67538(14)
O1 O 0.1814(2) 0.55418(18) 0.12150(12)
O2 O 0.1419(3) 0.67954(19) 0.08114(13)
O3 O 0.1633(2) 0.71998(19) 0.40100(12)
O4 O 0.1084(2) 0.84454(19) 0.36776(13)
O5 O 0.3279(3) 0.56117(18) 0.78422(12)
O6 O 0.3781(2) 0.68465(19) 0.82374(12)
O7 O 0.3281(2) 0.72049(18) 0.50461(12)
O8 O 0.4059(2) 0.83857(19) 0.53236(12)
O9 O 0.2130(2) 0.4870(2) 0.52059(14)
H1 H 0.2504 0.4434 0.5179
H2 H 0.1670 0.4875 0.5458
O10 O 0.0741(2) 0.5626(2) 0.43283(16)
H3 H 0.060(3) 0.5106(10) 0.4261(18)
H4 H 0.021(2) 0.590(3) 0.433(3)
O11 O 0.3901(2) 0.5515(2) 0.48277(17)
H5 H 0.400(3) 0.4984(9) 0.4877(18)
H6 H 0.434(3) 0.581(3) 0.4999(19)
O12 O 0.2497(2) 0.4865(2) 0.39100(13)
H7 H 0.2431 0.4362 0.4054
H8 H 0.2604 0.4930 0.3543
O13 O 0.1431(3) 0.6604(2) 0.53752(15)
H9 H 0.148(3) 0.7106(13) 0.5522(19)
H10 H 0.0897(19) 0.645(3) 0.5531(19)
O14 O 0.3528(3) 0.6513(2) 0.37674(15)
H11 H 0.3973 0.6161 0.3665
H12 H 0.3479 0.6998 0.3596
C1 C 0.1600(3) 0.6491(3) 0.28565(18)
H19 H 0.166(3) 0.609(3) 0.318(2)
C2 C 0.1380(3) 0.7346(2) 0.29783(16)
C3 C 0.1175(3) 0.7880(3) 0.25102(18)
H20 H 0.100(3) 0.839(3) 0.2592(19)
C4 C 0.1201(3) 0.7570(3) 0.19373(18)
H21 H 0.105(4) 0.793(3) 0.165(2)
C5 C 0.1454(3) 0.6717(3) 0.18512(16)
C6 C 0.1560(3) 0.6323(3) 0.12394(18)
C7 C 0.1365(3) 0.7690(3) 0.36015(16)
C8 C 0.3446(3) 0.6512(3) 0.62012(17)
H22 H 0.331(3) 0.614(2) 0.5922(17)
C9 C 0.3686(3) 0.7360(2) 0.60591(16)
C10 C 0.3907(3) 0.7911(3) 0.65171(18)
H23 H 0.406(3) 0.838(3) 0.6440(19)
C11 C 0.38795(14) 0.76245(13) 0.70970(9)
H24 H 0.3855 0.8034 0.7414
C12 C 0.36226(14) 0.67729(13) 0.71992(9)
C13 C 0.35589(14) 0.63853(13) 0.78124(9)
C14 C 0.36740(14) 0.76736(13) 0.54237(9)
Zn1A Zn 0.28956(4) 0.50329(3) 0.70316(2)
N2A N 0.1588(3) 0.3775(2) 0.17538(14)
O5A O 0.1721(3) 0.43883(18) 0.28422(12)
O15 O 0.5609(2) 0.61708(19) 0.51838(14)
H13 H 0.5808 0.5800 0.5432
H14 H 0.6001 0.6549 0.5050
O16 O 0.4614(2) 0.88921(19) 0.42314(13)
H15 H 0.5078 0.9000 0.4470
H16 H 0.4507 0.9227 0.3941
O17 O 0.4660(3) 0.5197(3) 0.32580(19)
H17 H 0.4888 0.4689 0.3286
H18 H 0.4861 0.5531 0.2986
loop_
_geom_bond_atom_site_label_1
_geom_bond_atom_site_label_2
_geom_bond_site_symmetry_1
_geom_bond_site_symmetry_2
Eu1 O3 1_555 1_555
Zn1 Cl1 1_555 1_555
N1 Zn1 1_555 1_555
N2 C8 1_555 1_555
O1 Zn1 1_555 1_555
O2 C6 1_555 1_555
O3 C7 1_555 1_555
O4 C7 1_555 1_555
O5 C13 1_555 1_555
O6 C13 1_555 1_555
O7 Eu1 1_555 1_555
O8 C14 1_555 1_555
O9 Eu1 1_555 1_555
H1 O9 1_555 1_555
H2 O9 1_555 1_555
O10 Eu1 1_555 1_555
H3 O10 1_555 1_555
H4 O10 1_555 1_555
O11 Eu1 1_555 1_555
H5 O11 1_555 1_555
H6 O11 1_555 1_555
O12 Eu1 1_555 1_555
H7 O12 1_555 1_555
H8 O12 1_555 1_555
O13 Eu1 1_555 1_555
H9 O13 1_555 1_555
H10 O13 1_555 1_555
O14 Eu1 1_555 1_555
H11 O14 1_555 1_555
H12 O14 1_555 1_555
O15 H13 1_555 1_555
H14 O15 1_555 1_555
O16 H15 1_555 1_555
H16 O16 1_555 1_555
O17 H17 1_555 1_555
H18 O17 1_555 1_555
C1 N1 1_555 1_555
H19 C1 1_555 1_555
C2 C1 1_555 1_555
C3 C2 1_555 1_555
H20 C3 1_555 1_555
C4 C3 1_555 1_555
H21 C4 1_555 1_555
C5 N1 1_555 1_555
C6 O1 1_555 1_555
C7 C2 1_555 1_555
C8 H22 1_555 1_555
C9 C8 1_555 1_555
C10 C9 1_555 1_555
H23 C10 1_555 1_555
C11 C10 1_555 1_555
H24 C11 1_555 1_555
C12 N2 1_555 1_555
C13 C12 1_555 1_555
C14 O7 1_555 1_555
Zn1A N2 1_555 1_555
N2A Zn1 1_555 1_555
O5A Zn1 1_555 1_555
O5 Zn1A 1_555 1_555
C4 C5 1_555 1_555
C5 C6 1_555 1_555
C9 C14 1_555 1_555
C11 C12 1_555 1_555

#END
