
#######################################################################
#
#                 Cambridge Crystallographic Data Centre
#                                CCDC 
#
#######################################################################
#
# If this CIF has been generated from an entry in the Cambridge 
# Structural Database, then it will include bibliographic, chemical, 
# crystal, experimental, refinement or atomic coordinate data resulting 
# from the CCDC's data processing and validation procedures.
#
#######################################################################

data_KUFMEE
_symmetry_cell_setting           orthorhombic
_symmetry_space_group_name_H-M   'P b c a'
_symmetry_Int_Tables_number      61
_space_group_name_Hall           '-P 2ac 2ab'
loop_
_symmetry_equiv_pos_site_id
_symmetry_equiv_pos_as_xyz
1 x,y,z
2 1/2-x,-y,1/2+z
3 -x,1/2+y,1/2-z
4 1/2+x,1/2-y,-z
5 -x,-y,-z
6 1/2+x,y,1/2-z
7 x,1/2-y,1/2+z
8 1/2-x,1/2+y,z
_cell_length_a                   13.630(2)
_cell_length_b                   15.470(3)
_cell_length_c                   22.612(4)
_cell_angle_alpha                90
_cell_angle_beta                 90
_cell_angle_gamma                90
_cell_volume                     4767.88
loop_
_atom_site_label
_atom_site_type_symbol
_atom_site_fract_x
_atom_site_fract_y
_atom_site_fract_z
Tb1 Tb 0.23825(2) 0.112200(19) 0.456716(12)
Zn1 Zn 0.21218(7) -0.00342(4) 0.20427(3)
Cl1 Cl 0.37832(15) -0.00441(12) 0.19932(9)
N1 N 0.1641(4) 0.1177(3) 0.2311(2)
N2 N 0.3397(4) 0.1221(3) 0.6764(2)
O1 O 0.1831(4) 0.0543(3) 0.12240(18)
O2 O 0.1417(4) 0.1796(3) 0.08214(18)
O3 O 0.1648(3) 0.2187(3) 0.40296(16)
O4 O 0.1083(4) 0.3442(3) 0.36950(18)
O5 O 0.3268(3) 0.2193(3) 0.50492(17)
O6 O 0.4066(3) 0.3379(3) 0.53263(17)
O7 O 0.3261(4) 0.0611(3) 0.78489(17)
O8 O 0.3781(3) 0.1852(3) 0.82466(18)
O9 O 0.0754(3) 0.0628(3) 0.4335(2)
H1 H 0.0518 0.0192 0.4515
H2 H 0.0416 0.0888 0.4075
O10 O 0.2123(3) -0.0122(3) 0.52103(19)
H3 H 0.2134 -0.0630 0.5067
H4 H 0.2018 -0.0048 0.5577
O11 O 0.3875(3) 0.0504(3) 0.4847(2)
H5 H 0.3882 0.0063 0.5072
H6 H 0.4412 0.0719 0.4724
O12 O 0.2503(3) -0.0128(3) 0.39228(18)
H7 H 0.2429 -0.0633 0.4064
H8 H 0.2616 -0.0061 0.3556
O13 O 0.3527(3) 0.1505(3) 0.3790(2)
H9 H 0.3973 0.1152 0.3687
H10 H 0.3482 0.1994 0.3620
O14 O 0.1436(4) 0.1602(3) 0.5375(2)
H11 H 0.149(4) 0.2099(17) 0.553(2)
H12 H 0.091(3) 0.138(4) 0.550(3)
C1 C 0.1610(5) 0.1486(4) 0.2867(3)
H19 H 0.170(5) 0.115(4) 0.321(3)
C2 C 0.1385(4) 0.2345(4) 0.2996(2)
C3 C 0.1174(4) 0.2885(4) 0.2529(3)
H20 H 0.100(5) 0.352(4) 0.255(3)
C4 C 0.1195(4) 0.2566(4) 0.1952(3)
H21 H 0.1037 0.2920 0.1633
C5 C 0.1459(4) 0.1717(4) 0.1865(2)
C6 C 0.1569(5) 0.1321(4) 0.1251(3)
C7 C 0.1374(4) 0.2677(4) 0.3625(2)
C8 C 0.3440(5) 0.1513(4) 0.6210(3)
H22 H 0.329(4) 0.113(3) 0.594(2)
C9 C 0.3681(4) 0.2355(4) 0.6069(2)
C10 C 0.3911(5) 0.2907(4) 0.6518(3)
H23 H 0.402(4) 0.338(4) 0.647(2)
C11 C 0.3871(4) 0.2610(4) 0.7104(3)
H24 H 0.4017 0.2979 0.7416
C12 C 0.3614(4) 0.1772(4) 0.7209(2)
C13 C 0.3551(5) 0.1393(4) 0.7827(3)
C14 C 0.3671(4) 0.2665(4) 0.5428(2)
Zn1A Zn 0.28782(7) 0.00342(4) 0.70427(3)
N2A N 0.1603(4) -0.1221(3) 0.1764(2)
O7A O 0.1739(4) -0.0611(3) 0.28489(17)
O15 O 0.0386(3) -0.1086(3) 0.42379(19)
H13 H 0.0342 -0.1492 0.4490
H14 H 0.0048 -0.1104 0.3923
O16 O 0.4377(3) -0.1160(3) 0.4826(2)
H15 H 0.4214 -0.1563 0.5062
H16 H 0.4918 -0.1189 0.4640
O17 O 0.4648(4) 0.0198(4) 0.3279(2)
H17 H 0.4871 -0.0313 0.3304
H18 H 0.4854 0.0535 0.3009
loop_
_geom_bond_atom_site_label_1
_geom_bond_atom_site_label_2
_geom_bond_site_symmetry_1
_geom_bond_site_symmetry_2
Tb1 O3 1_555 1_555
Zn1 Cl1 1_555 1_555
N1 Zn1 1_555 1_555
N2 C8 1_555 1_555
O1 Zn1 1_555 1_555
O2 C6 1_555 1_555
O3 C7 1_555 1_555
O4 C7 1_555 1_555
O5 Tb1 1_555 1_555
O6 C14 1_555 1_555
O7 C13 1_555 1_555
O8 C13 1_555 1_555
O9 Tb1 1_555 1_555
H1 O9 1_555 1_555
H2 O9 1_555 1_555
O10 Tb1 1_555 1_555
H3 O10 1_555 1_555
H4 O10 1_555 1_555
O11 Tb1 1_555 1_555
H5 O11 1_555 1_555
H6 O11 1_555 1_555
O12 Tb1 1_555 1_555
H7 O12 1_555 1_555
H8 O12 1_555 1_555
O13 Tb1 1_555 1_555
H9 O13 1_555 1_555
H10 O13 1_555 1_555
O14 Tb1 1_555 1_555
H11 O14 1_555 1_555
H12 O14 1_555 1_555
O15 H13 1_555 1_555
H14 O15 1_555 1_555
O16 H15 1_555 1_555
H16 O16 1_555 1_555
O17 H17 1_555 1_555
H18 O17 1_555 1_555
C1 N1 1_555 1_555
H19 C1 1_555 1_555
C2 C1 1_555 1_555
C3 C2 1_555 1_555
H20 C3 1_555 1_555
C4 C3 1_555 1_555
H21 C4 1_555 1_555
C5 N1 1_555 1_555
C6 O1 1_555 1_555
C7 C2 1_555 1_555
C8 H22 1_555 1_555
C9 C8 1_555 1_555
C10 C9 1_555 1_555
H23 C10 1_555 1_555
C11 C10 1_555 1_555
H24 C11 1_555 1_555
C12 N2 1_555 1_555
C13 C12 1_555 1_555
C14 O5 1_555 1_555
Zn1A N2 1_555 1_555
N2A Zn1 1_555 1_555
O7A Zn1 1_555 1_555
O7 Zn1A 1_555 1_555
C4 C5 1_555 1_555
C5 C6 1_555 1_555
C9 C14 1_555 1_555
C11 C12 1_555 1_555

#END
