
#######################################################################
#
#                 Cambridge Crystallographic Data Centre
#                                CCDC 
#
#######################################################################
#
# If this CIF has been generated from an entry in the Cambridge 
# Structural Database, then it will include bibliographic, chemical, 
# crystal, experimental, refinement or atomic coordinate data resulting 
# from the CCDC's data processing and validation procedures.
#
#######################################################################

data_KUFQAE
_symmetry_cell_setting           triclinic
_symmetry_space_group_name_H-M   'P -1'
_symmetry_Int_Tables_number      2
_space_group_name_Hall           '-P 1'
loop_
_symmetry_equiv_pos_site_id
_symmetry_equiv_pos_as_xyz
1 x,y,z
2 -x,-y,-z
_cell_length_a                   13.5685(18)
_cell_length_b                   15.924(2)
_cell_length_c                   17.548(2)
_cell_angle_alpha                95.269(3)
_cell_angle_beta                 100.888(3)
_cell_angle_gamma                103.510(3)
_cell_volume                     3583.34
loop_
_atom_site_label
_atom_site_type_symbol
_atom_site_fract_x
_atom_site_fract_y
_atom_site_fract_z
Cu1 Cu 0.3616(2) 1.44261(17) 0.63585(19)
Cu2 Cu 0.1847(2) 0.59853(17) 0.39704(18)
Cu3 Cu 0.2403(2) 0.97041(17) -0.02233(18)
Eu1 Eu 0.32234(9) 1.16595(7) 0.51683(8)
Eu2 Eu 0.24782(8) 0.79935(7) 0.61275(7)
Eu3 Eu 0.34050(9) 1.20831(7) 0.16157(8)
Eu4 Eu -0.04305(9) 1.37031(7) 0.14266(8)
C1 C 0.3339(16) 1.2634(15) 0.3543(15)
C2 C 0.3435(15) 1.3397(13) 0.4101(13)
C3 C 0.3623(15) 1.4287(13) 0.4057(13)
C4 C 0.3701(15) 1.4643(13) 0.4825(13)
C5 C 0.3885(16) 1.5540(15) 0.5284(15)
C6 C 0.3198(19) 1.4299(17) 0.7835(16)
C7 C 0.2948(17) 1.3348(14) 0.7384(15)
C8 C 0.2434(17) 1.2536(14) 0.7533(15)
C9 C 0.2385(18) 1.2032(16) 0.6836(16)
C10 C 0.1955(18) 1.1055(16) 0.6518(16)
C11 C 0.3028(18) 0.9447(16) 0.4937(17)
C12 C 0.2838(16) 0.8648(13) 0.4370(14)
C13 C 0.2844(16) 0.8456(13) 0.3621(13)
C14 C 0.2521(17) 0.7550(15) 0.3466(15)
C15 C 0.224(2) 0.6890(17) 0.2766(17)
C16 C 0.1169(17) 0.4353(15) 0.4375(15)
C17 C 0.1294(14) 0.4978(13) 0.5099(13)
C18 C 0.1150(16) 0.4977(14) 0.5867(14)
C19 C 0.1478(15) 0.5834(13) 0.6224(14)
C20 C 0.1478(17) 0.6315(15) 0.6977(15)
C21 C 0.5384(17) 1.1262(15) 0.2303(15)
C22 C 0.4854(15) 1.0620(13) 0.1596(13)
C23 C 0.5077(17) 0.9911(14) 0.1256(15)
C24 C 0.4269(15) 0.9567(13) 0.0645(14)
C25 C 0.3923(17) 0.8801(14) 0.0002(15)
C26 C 0.0527(17) 0.9784(14) -0.1187(14)
C27 C 0.0803(16) 1.0528(14) -0.0593(15)
C28 C 0.0362(17) 1.1184(14) -0.0342(14)
C29 C 0.1120(16) 1.1670(14) 0.0310(14)
C30 C 0.1145(18) 1.2472(15) 0.0838(15)
I1 I 0.38104(13) 1.49652(11) 0.31528(11)
I2 I 0.17983(17) 1.21742(14) 0.84457(14)
I3 I 0.32131(16) 0.93444(12) 0.28604(12)
I4 I 0.06206(12) 0.38978(10) 0.63890(11)
I5 I 0.63631(13) 0.94026(11) 0.16152(12)
I6 I -0.09869(13) 1.14278(12) -0.09110(12)
N1 N 0.3403(12) 1.3229(11) 0.4823(11)
N2 N 0.3546(14) 1.4038(12) 0.5318(12)
N3 N 0.3211(14) 1.3301(12) 0.6703(12)
N4 N 0.2876(13) 1.2486(11) 0.6345(11)
N5 N 0.2573(13) 0.7879(11) 0.4717(11)
N6 N 0.2378(13) 0.7243(11) 0.4092(12)
N7 N 0.1702(13) 0.5824(11) 0.4979(12)
N8 N 0.1780(15) 0.6336(12) 0.5679(13)
N9 N 0.3962(13) 1.0730(11) 0.1203(11)
N10 N 0.3620(13) 1.0102(11) 0.0615(11)
N11 N 0.1704(12) 1.0599(10) -0.0025(10)
N12 N 0.1911(13) 1.1303(11) 0.0492(11)
O1 O 0.3397(12) 1.2753(10) 0.2860(10)
O2 O 0.3136(11) 1.1878(10) 0.3761(10)
O3 O 0.4019(11) 1.6172(10) 0.4930(10)
O4 O 0.3884(11) 1.5560(9) 0.5982(10)
O5 O 0.3532(12) 1.4853(10) 0.7433(10)
O6 O 0.3012(14) 1.4414(11) 0.8496(12)
O7 O 0.1566(12) 1.0575(10) 0.6974(10)
O8 O 0.1988(12) 1.0817(10) 0.5829(11)
O9 O 0.4929(12) 1.2664(10) 0.5868(11)
H1 H 0.4729 1.2947 0.6219
H2 H 0.5454 1.3001 0.5764
O10 O 0.1433(12) 1.1454(11) 0.4460(11)
H3 H 0.1444 1.1992 0.4471
H4 H 0.1098 1.1256 0.4797
O11 O 0.4783(14) 1.1339(11) 0.4708(12)
H5 H 0.5375 1.1457 0.4593
H6 H 0.4367 1.0979 0.4332
O12 O 0.4162(12) 1.1058(10) 0.6235(10)
H7 H 0.3813 1.0553 0.6274
H8 H 0.4799 1.1066 0.6364
O13 O 0.3072(12) 1.0160(10) 0.4681(11)
O14 O 0.3101(12) 0.9340(10) 0.5662(10)
O15 O 0.2380(14) 0.7114(11) 0.2093(12)
O16 O 0.1892(12) 0.6123(9) 0.2881(10)
O17 O 0.1360(11) 0.4710(9) 0.3794(10)
O18 O 0.0822(12) 0.3567(10) 0.4362(10)
O19 O 0.1908(11) 0.7130(10) 0.7061(10)
O20 O 0.1031(11) 0.5935(9) 0.7453(9)
O21 O 0.4043(12) 0.7519(10) 0.6092(11)
H9 H 0.3952 0.7030 0.5812
H10 H 0.4383 0.7494 0.6547
O22 O 0.0693(10) 0.7752(10) 0.5404(10)
H11 H 0.0329 0.7595 0.5735
H12 H 0.0640 0.7302 0.5080
O23 O 0.1635(11) 0.8885(10) 0.6835(10)
H13 H 0.1738 0.9398 0.7074
H14 H 0.1405 0.8528 0.7132
O24 O 0.6238(11) 1.1230(9) 0.2729(9)
O25 O 0.4966(11) 1.1869(10) 0.2453(10)
O26 O 0.4404(11) 0.8239(10) -0.0015(10)
O27 O 0.3024(10) 0.8738(9) -0.0450(9)
O28 O 0.1207(11) 0.9294(9) -0.1112(9)
O29 O -0.0257(11) 0.9590(9) -0.1709(10)
O30 O 0.1988(12) 1.2762(9) 0.1369(10)
O31 O 0.0406(11) 1.2826(10) 0.0791(10)
O32 O 0.3983(13) 1.2320(11) 0.0469(12)
H15 H 0.4196 1.2058 0.0112
H16 H 0.3508 1.2537 0.0245
O33 O 0.2382(11) 1.1037(10) 0.2209(10)
H17 H 0.2513 1.1073 0.2708
H18 H 0.1839 1.0628 0.2029
O34 O 0.4556(13) 1.3519(11) 0.1779(11)
H19 H 0.5183 1.3507 0.1935
H20 H 0.4471 1.3975 0.2026
O35 O -0.2136(15) 1.3029(13) 0.0665(13)
H21 H -0.2643 1.2579 0.0563
H22 H -0.2277 1.3405 0.0975
O36 O -0.0364(14) 1.4108(12) 0.0139(13)
H23 H -0.0563 1.3559 0.0132
H24 H -0.0671 1.4230 -0.0291
O37 O -0.1265(16) 1.4920(13) 0.1253(14)
H25 H -0.1442 1.5192 0.1625
H26 H -0.0668 1.4849 0.1431
O38 O 0.1002(14) 1.4952(12) 0.1529(13)
H27 H 0.1236 1.4506 0.1597
H28 H 0.1300 1.5341 0.1923
O39 O 0.0935(12) 1.3557(10) 0.2475(10)
H29 H 0.1339 1.3287 0.2719
H30 H 0.0543 1.3672 0.2774
O40 O -0.1021(11) 1.2326(9) 0.1820(9)
H31 H -0.1585 1.2400 0.1922
H32 H -0.1171 1.1886 0.1465
Eu2A Eu 0.75218(8) 1.20065(7) 0.38725(7)
Eu4A Eu 0.04305(9) 0.62969(7) 0.85734(8)
O20A O -0.1031(11) 1.4065(9) 0.2547(9)
O24A O 0.3762(11) 0.8770(9) 0.7271(9)
O41 O 0.4702(18) 0.7459(15) 0.2415(16)
H33 H 0.4877 0.7619 0.2907
H34 H 0.4050 0.7389 0.2276
O42 O 0.9507(12) 0.8204(11) 0.6969(11)
H35 H 0.9157 0.8197 0.6511
H36 H 1.0101 0.8553 0.7015
O43 O 0.3908(17) 0.6206(15) 0.9121(15)
H37 H 0.4460 0.6317 0.8945
H38 H 0.3738 0.5662 0.9142
O44 O 0.9433(17) 0.0634(16) 0.6599(16)
H39 H 0.9611 0.1179 0.6758
H40 H 0.9967 0.0441 0.6722
O45 O 0.9521(12) 0.0749(11) 0.5050(11)
H41 H 0.9554 0.1273 0.4973
H42 H 0.8994 0.0424 0.4725
O46 O 0.742(2) 0.3675(18) 0.9264(18)
H43 H 0.7466 0.3300 0.8905
H44 H 0.7122 0.3401 0.9586
O47 O 0.283(3) 0.461(3) 0.093(3)
H45 H 0.2232 0.4381 0.0640
H46 H 0.3083 0.5083 0.0768
O48 O 0.168(5) 0.417(4) 0.985(4)
H47 H 0.1790 0.4616 0.9619
H48 H 0.1150 0.3797 0.9568
loop_
_geom_bond_atom_site_label_1
_geom_bond_atom_site_label_2
_geom_bond_site_symmetry_1
_geom_bond_site_symmetry_2
Cu1 N2 1_555 1_555
Cu2 N6 1_555 1_555
Cu3 N10 1_555 1_555
Eu1 N1 1_555 1_555
Eu2 N5 1_555 1_555
Eu3 N9 1_555 1_555
Eu4 O31 1_555 1_555
C1 C2 1_555 1_555
C2 C3 1_555 1_555
C3 C4 1_555 1_555
C4 C5 1_555 1_555
C5 O3 1_555 1_555
C6 C7 1_555 1_555
C7 C8 1_555 1_555
C8 C9 1_555 1_555
C9 C10 1_555 1_555
C10 O7 1_555 1_555
C11 C12 1_555 1_555
C12 C13 1_555 1_555
C13 C14 1_555 1_555
C14 C15 1_555 1_555
C15 O15 1_555 1_555
C16 C17 1_555 1_555
C17 C18 1_555 1_555
C18 C19 1_555 1_555
C19 C20 1_555 1_555
C20 O19 1_555 1_555
C21 C22 1_555 1_555
C22 C23 1_555 1_555
C23 C24 1_555 1_555
C24 C25 1_555 1_555
C25 O26 1_555 1_555
C26 C27 1_555 1_555
C27 C28 1_555 1_555
C28 C29 1_555 1_555
C29 C30 1_555 1_555
C30 O30 1_555 1_555
I1 C3 1_555 1_555
I2 C8 1_555 1_555
I3 C13 1_555 1_555
I4 C18 1_555 1_555
I5 C23 1_555 1_555
I6 C28 1_555 1_555
N1 C2 1_555 1_555
N2 C4 1_555 1_555
N3 Cu1 1_555 1_555
N4 Eu1 1_555 1_555
N5 C12 1_555 1_555
N6 C14 1_555 1_555
N7 Cu2 1_555 1_555
N8 Eu2 1_555 1_555
N9 C22 1_555 1_555
N10 C24 1_555 1_555
N11 Cu3 1_555 1_555
N12 Eu3 1_555 1_555
O1 Eu3 1_555 1_555
O2 Eu1 1_555 1_555
O4 Cu1 1_555 1_555
O5 Cu1 1_555 1_555
O6 C6 1_555 1_555
O8 Eu1 1_555 1_555
O9 Eu1 1_555 1_555
H1 O9 1_555 1_555
H2 O9 1_555 1_555
O10 Eu1 1_555 1_555
H3 O10 1_555 1_555
H4 O10 1_555 1_555
O11 Eu1 1_555 1_555
H5 O11 1_555 1_555
H6 O11 1_555 1_555
O12 Eu1 1_555 1_555
H7 O12 1_555 1_555
H8 O12 1_555 1_555
O13 Eu1 1_555 1_555
O14 Eu2 1_555 1_555
O16 Cu2 1_555 1_555
O17 Cu2 1_555 1_555
O18 C16 1_555 1_555
O19 Eu2 1_555 1_555
O20 C20 1_555 1_555
O21 Eu2 1_555 1_555
H9 O21 1_555 1_555
H10 O21 1_555 1_555
O22 Eu2 1_555 1_555
H11 O22 1_555 1_555
H12 O22 1_555 1_555
O23 Eu2 1_555 1_555
H13 O23 1_555 1_555
H14 O23 1_555 1_555
O24 C21 1_555 1_555
O25 Eu3 1_555 1_555
O27 Cu3 1_555 1_555
O28 Cu3 1_555 1_555
O29 C26 1_555 1_555
O30 Eu3 1_555 1_555
O31 C30 1_555 1_555
O32 Eu3 1_555 1_555
H15 O32 1_555 1_555
H16 O32 1_555 1_555
O33 Eu3 1_555 1_555
H17 O33 1_555 1_555
H18 O33 1_555 1_555
O34 Eu3 1_555 1_555
H19 O34 1_555 1_555
H20 O34 1_555 1_555
O35 Eu4 1_555 1_555
H21 O35 1_555 1_555
H22 O35 1_555 1_555
O36 Eu4 1_555 1_555
H23 O36 1_555 1_555
H24 O36 1_555 1_555
O37 Eu4 1_555 1_555
H25 O37 1_555 1_555
H26 O37 1_555 1_555
O38 Eu4 1_555 1_555
H27 O38 1_555 1_555
H28 O38 1_555 1_555
O39 Eu4 1_555 1_555
H29 O39 1_555 1_555
H30 O39 1_555 1_555
O40 Eu4 1_555 1_555
H31 O40 1_555 1_555
H32 O40 1_555 1_555
O41 H33 1_555 1_555
H34 O41 1_555 1_555
O42 H35 1_555 1_555
H36 O42 1_555 1_555
O43 H37 1_555 1_555
H38 O43 1_555 1_555
O44 H39 1_555 1_555
H40 O44 1_555 1_555
O45 H41 1_555 1_555
H42 O45 1_555 1_555
O46 H43 1_555 1_555
H44 O46 1_555 1_555
O47 H45 1_555 1_555
H46 O47 1_555 1_555
O48 H47 1_555 1_555
H48 O48 1_555 1_555
Eu2A O24 1_555 1_555
Eu4A O20 1_555 1_555
O20A Eu4 1_555 1_555
O24A Eu2 1_555 1_555
C1 O1 1_555 1_555
C1 O2 1_555 1_555
C5 O4 1_555 1_555
C6 O5 1_555 1_555
C7 N3 1_555 1_555
C9 N4 1_555 1_555
C10 O8 1_555 1_555
C11 O13 1_555 1_555
C11 O14 1_555 1_555
C15 O16 1_555 1_555
C16 O17 1_555 1_555
C17 N7 1_555 1_555
C19 N8 1_555 1_555
C21 O25 1_555 1_555
C25 O27 1_555 1_555
C26 O28 1_555 1_555
C27 N11 1_555 1_555
C29 N12 1_555 1_555
N1 N2 1_555 1_555
N3 N4 1_555 1_555
N5 N6 1_555 1_555
N7 N8 1_555 1_555
N9 N10 1_555 1_555
N11 N12 1_555 1_555

#END
