
#######################################################################
#
#                 Cambridge Crystallographic Data Centre
#                                CCDC 
#
#######################################################################
#
# If this CIF has been generated from an entry in the Cambridge 
# Structural Database, then it will include bibliographic, chemical, 
# crystal, experimental, refinement or atomic coordinate data resulting 
# from the CCDC's data processing and validation procedures.
#
#######################################################################

data_KUFSUA
_symmetry_cell_setting           triclinic
_symmetry_space_group_name_H-M   'P -1'
_symmetry_Int_Tables_number      2
_space_group_name_Hall           '-P 1'
loop_
_symmetry_equiv_pos_site_id
_symmetry_equiv_pos_as_xyz
1 x,y,z
2 -x,-y,-z
_cell_length_a                   10.870(6)
_cell_length_b                   11.536(6)
_cell_length_c                   12.904(7)
_cell_angle_alpha                101.541(10)
_cell_angle_beta                 110.573(9)
_cell_angle_gamma                99.441(9)
_cell_volume                     1435.04
loop_
_atom_site_label
_atom_site_type_symbol
_atom_site_fract_x
_atom_site_fract_y
_atom_site_fract_z
Cu1 Cu 1.0000 1.0000 0.0000
K1 K 0.47132(13) 0.71045(12) 0.24767(11)
N1 N 0.6522(6) 0.7083(5) 0.1372(5)
N2 N 0.5785(6) 0.5657(5) -0.1942(6)
O1 O 0.3473(5) 0.8195(4) 0.0689(4)
O2 O 0.1948(4) 0.6368(4) 0.1171(4)
O3 O 0.2911(5) 0.7233(4) 0.3593(4)
O4 O 0.5416(4) 0.6723(4) 0.4606(3)
O5 O 0.7177(4) 0.8560(3) 0.4382(3)
O6 O 0.5602(5) 0.9662(4) 0.2802(4)
S1 S 0.91966(18) 0.94056(14) 0.12745(13)
S2 S 0.85224(18) 0.83312(15) -0.14348(13)
C1 C 0.2085(7) 0.7676(6) -0.0105(6)
H1 H 0.1516 0.8172 0.0111
C2 C 0.1894(8) 0.7608(7) -0.1345(6)
H2 H 0.0933 0.7315 -0.1837
H3 H 0.2210 0.8424 -0.1395
C3 C 0.2644(8) 0.6781(7) -0.1779(6)
H4 H 0.3614 0.7099 -0.1330
H5 H 0.2467 0.6742 -0.2578
C4 C 0.2173(8) 0.5511(6) -0.1675(6)
H6 H 0.1218 0.5174 -0.2174
H7 H 0.2679 0.4981 -0.1929
C5 C 0.2372(7) 0.5542(6) -0.0464(6)
H8 H 0.3337 0.5799 0.0019
H9 H 0.2024 0.4724 -0.0437
C6 C 0.1668(7) 0.6397(6) 0.0006(5)
H10 H 0.0686 0.6076 -0.0442
C7 C 0.1267(7) 0.7009(7) 0.1719(7)
H11 H 0.0300 0.6766 0.1243
H12 H 0.1594 0.7881 0.1844
C8 C 0.1521(7) 0.6729(8) 0.2853(7)
H13 H 0.0958 0.7076 0.3203
H14 H 0.1289 0.5850 0.2733
C9 C 0.3270(7) 0.6799(7) 0.4582(6)
H15 H 0.3020 0.5911 0.4355
H16 H 0.2791 0.7082 0.5051
C10 C 0.4755(7) 0.7266(7) 0.5249(6)
H17 H 0.5018 0.8148 0.5405
H18 H 0.5010 0.7068 0.5980
C11 C 0.6838(6) 0.6898(6) 0.5161(5)
H19 H 0.7029 0.6682 0.5889
C12 C 0.7262(7) 0.6025(6) 0.4399(5)
H20 H 0.7023 0.6194 0.3656
H21 H 0.6767 0.5194 0.4273
C13 C 0.8772(7) 0.6122(7) 0.4914(6)
H22 H 0.9009 0.5903 0.5634
H23 H 0.9001 0.5555 0.4391
C14 C 0.9573(7) 0.7406(7) 0.5130(6)
H24 H 0.9397 0.7601 0.4403
H25 H 1.0537 0.7465 0.5494
C15 C 0.9174(7) 0.8311(6) 0.5905(6)
H26 H 0.9660 0.9135 0.5999
H27 H 0.9449 0.8168 0.6659
C16 C 0.7650(6) 0.8216(6) 0.5429(5)
H28 H 0.7446 0.8746 0.6008
C17 C 0.7422(7) 0.9842(6) 0.4557(6)
H29 H 0.8379 1.0229 0.5015
H30 H 0.6904 1.0167 0.4969
C18 C 0.7010(8) 1.0105(6) 0.3412(6)
H31 H 0.7272 1.0981 0.3523
H32 H 0.7471 0.9718 0.2975
C19 C 0.5205(9) 0.9986(7) 0.1758(8)
H33 H 0.5720 0.9689 0.1330
H34 H 0.5423 1.0871 0.1928
C20 C 0.3783(9) 0.9498(6) 0.1057(7)
H35 H 0.3260 0.9749 0.1495
H36 H 0.3539 0.9815 0.0391
C21 C 0.7146(7) 0.7526(6) 0.0953(6)
C22 C 0.7913(6) 0.8078(5) 0.0366(5)
C23 C 0.7640(6) 0.7636(5) -0.0759(6)
C24 C 0.6607(7) 0.6539(6) -0.1410(5)
K1A K 1.52868(13) 1.28955(12) -0.24767(11)
K1A_2 K 0.52868(13) 0.28955(12) -0.24767(11)
K1_2 K 1.47132(13) 1.71045(12) 0.24767(11)
N1A N 1.3478(6) 1.2917(5) -0.1372(5)
N2A N 1.4215(6) 1.4343(5) 0.1942(6)
N2A_2 N 0.4215(6) 0.4343(5) 0.1942(6)
N2_2 N 1.5785(6) 1.5657(5) -0.1942(6)
O1A O 1.6527(5) 1.1805(4) -0.0689(4)
O2A O 1.8052(4) 1.3632(4) -0.1171(4)
O3A O 1.7089(5) 1.2767(4) -0.3593(4)
O4A O 1.4584(4) 1.3277(4) -0.4606(3)
O5A O 1.2823(4) 1.1440(3) -0.4382(3)
O6A O 1.4398(5) 1.0338(4) -0.2802(4)
S1A S 1.08034(18) 1.05944(14) -0.12745(13)
S2A S 1.14776(18) 1.16688(15) 0.14348(13)
C1A C 1.7915(7) 1.2324(6) 0.0105(6)
H1A H 1.8484 1.1828 -0.0111
C2A C 1.8106(8) 1.2392(7) 0.1345(6)
H2A H 1.9067 1.2685 0.1837
H3A H 1.7790 1.1576 0.1395
C3A C 1.7356(8) 1.3219(7) 0.1779(6)
H4A H 1.6386 1.2901 0.1330
H5A H 1.7533 1.3258 0.2578
C4A C 1.7827(8) 1.4489(6) 0.1675(6)
H6A H 1.8782 1.4826 0.2174
H7A H 1.7321 1.5019 0.1929
C5A C 1.7628(7) 1.4458(6) 0.0464(6)
H8A H 1.6663 1.4201 -0.0019
H9A H 1.7976 1.5276 0.0437
C6A C 1.8332(7) 1.3603(6) -0.0006(5)
H10A H 1.9314 1.3924 0.0442
C7A C 1.8733(7) 1.2991(7) -0.1719(7)
H11A H 1.9700 1.3234 -0.1243
H12A H 1.8406 1.2119 -0.1844
C8A C 1.8479(7) 1.3271(8) -0.2853(7)
H13A H 1.9042 1.2924 -0.3203
H14A H 1.8711 1.4150 -0.2733
C9A C 1.6730(7) 1.3201(7) -0.4582(6)
H15A H 1.6980 1.4089 -0.4355
H16A H 1.7209 1.2918 -0.5051
C10A C 1.5245(7) 1.2734(7) -0.5249(6)
H17A H 1.4982 1.1852 -0.5405
H18A H 1.4990 1.2932 -0.5980
C11A C 1.3162(6) 1.3102(6) -0.5161(5)
H19A H 1.2971 1.3318 -0.5889
C12A C 1.2738(7) 1.3975(6) -0.4399(5)
H20A H 1.2977 1.3806 -0.3656
H21A H 1.3233 1.4806 -0.4273
C13A C 1.1228(7) 1.3878(7) -0.4914(6)
H22A H 1.0991 1.4097 -0.5634
H23A H 1.0999 1.4445 -0.4391
C14A C 1.0427(7) 1.2594(7) -0.5130(6)
H24A H 1.0603 1.2399 -0.4403
H25A H 0.9463 1.2535 -0.5494
C15A C 1.0826(7) 1.1689(6) -0.5905(6)
H26A H 1.0340 1.0865 -0.5999
H27A H 1.0551 1.1832 -0.6659
C16A C 1.2350(6) 1.1784(6) -0.5429(5)
H28A H 1.2554 1.1254 -0.6008
C17A C 1.2578(7) 1.0158(6) -0.4557(6)
H29A H 1.1621 0.9771 -0.5015
H30A H 1.3096 0.9833 -0.4969
C18A C 1.2990(8) 0.9895(6) -0.3412(6)
H31A H 1.2728 0.9019 -0.3523
H32A H 1.2529 1.0282 -0.2975
C19A C 1.4795(9) 1.0014(7) -0.1758(8)
H33A H 1.4280 1.0311 -0.1330
H34A H 1.4577 0.9129 -0.1928
C20A C 1.6217(9) 1.0502(6) -0.1057(7)
H35A H 1.6740 1.0251 -0.1495
H36A H 1.6461 1.0185 -0.0391
C21A C 1.2854(7) 1.2474(6) -0.0953(6)
C22A C 1.2087(6) 1.1922(5) -0.0366(5)
C23A C 1.2360(6) 1.2364(5) 0.0759(6)
C24A C 1.3393(7) 1.3461(6) 0.1410(5)
loop_
_geom_bond_atom_site_label_1
_geom_bond_atom_site_label_2
_geom_bond_site_symmetry_1
_geom_bond_site_symmetry_2
Cu1 S1 1_555 1_555
K1 N1 1_555 1_555
N1 C21 1_555 1_555
N2 C24 1_555 1_555
O1 K1 1_555 1_555
O2 K1 1_555 1_555
O3 K1 1_555 1_555
O4 K1 1_555 1_555
O5 K1 1_555 1_555
O6 K1 1_555 1_555
S1 C22 1_555 1_555
S2 Cu1 1_555 1_555
C1 O1 1_555 1_555
H1 C1 1_555 1_555
C2 C1 1_555 1_555
H2 C2 1_555 1_555
H3 C2 1_555 1_555
C3 C2 1_555 1_555
H4 C3 1_555 1_555
H5 C3 1_555 1_555
C4 C3 1_555 1_555
H6 C4 1_555 1_555
H7 C4 1_555 1_555
C5 C4 1_555 1_555
H8 C5 1_555 1_555
H9 C5 1_555 1_555
C6 O2 1_555 1_555
H10 C6 1_555 1_555
C7 O2 1_555 1_555
H11 C7 1_555 1_555
H12 C7 1_555 1_555
C8 O3 1_555 1_555
H13 C8 1_555 1_555
H14 C8 1_555 1_555
C9 O3 1_555 1_555
H15 C9 1_555 1_555
H16 C9 1_555 1_555
C10 O4 1_555 1_555
H17 C10 1_555 1_555
H18 C10 1_555 1_555
C11 O4 1_555 1_555
H19 C11 1_555 1_555
C12 C11 1_555 1_555
H20 C12 1_555 1_555
H21 C12 1_555 1_555
C13 C12 1_555 1_555
H22 C13 1_555 1_555
H23 C13 1_555 1_555
C14 C13 1_555 1_555
H24 C14 1_555 1_555
H25 C14 1_555 1_555
C15 C14 1_555 1_555
H26 C15 1_555 1_555
H27 C15 1_555 1_555
C16 O5 1_555 1_555
H28 C16 1_555 1_555
C17 O5 1_555 1_555
H29 C17 1_555 1_555
H30 C17 1_555 1_555
C18 O6 1_555 1_555
H31 C18 1_555 1_555
H32 C18 1_555 1_555
C19 O6 1_555 1_555
H33 C19 1_555 1_555
H34 C19 1_555 1_555
C20 O1 1_555 1_555
H35 C20 1_555 1_555
H36 C20 1_555 1_555
C21 C22 1_555 1_555
C22 C23 1_555 1_555
C23 S2 1_555 1_555
C24 C23 1_555 1_555
K1A N1A 1_555 1_555
K1A_2 N2 1_555 1_555
K1_2 N2A 1_555 1_555
N1A C21A 1_555 1_555
N2A C24A 1_555 1_555
N2A_2 K1 1_555 1_555
N2_2 K1A 1_555 1_555
O1A K1A 1_555 1_555
O2A K1A 1_555 1_555
O3A K1A 1_555 1_555
O4A K1A 1_555 1_555
O5A K1A 1_555 1_555
O6A K1A 1_555 1_555
S1A Cu1 1_555 1_555
S2A Cu1 1_555 1_555
C1A O1A 1_555 1_555
H1A C1A 1_555 1_555
C2A C1A 1_555 1_555
H2A C2A 1_555 1_555
H3A C2A 1_555 1_555
C3A C2A 1_555 1_555
H4A C3A 1_555 1_555
H5A C3A 1_555 1_555
C4A C3A 1_555 1_555
H6A C4A 1_555 1_555
H7A C4A 1_555 1_555
C5A C4A 1_555 1_555
H8A C5A 1_555 1_555
H9A C5A 1_555 1_555
C6A O2A 1_555 1_555
H10A C6A 1_555 1_555
C7A O2A 1_555 1_555
H11A C7A 1_555 1_555
H12A C7A 1_555 1_555
C8A O3A 1_555 1_555
H13A C8A 1_555 1_555
H14A C8A 1_555 1_555
C9A O3A 1_555 1_555
H15A C9A 1_555 1_555
H16A C9A 1_555 1_555
C10A O4A 1_555 1_555
H17A C10A 1_555 1_555
H18A C10A 1_555 1_555
C11A O4A 1_555 1_555
H19A C11A 1_555 1_555
C12A C11A 1_555 1_555
H20A C12A 1_555 1_555
H21A C12A 1_555 1_555
C13A C12A 1_555 1_555
H22A C13A 1_555 1_555
H23A C13A 1_555 1_555
C14A C13A 1_555 1_555
H24A C14A 1_555 1_555
H25A C14A 1_555 1_555
C15A C14A 1_555 1_555
H26A C15A 1_555 1_555
H27A C15A 1_555 1_555
C16A O5A 1_555 1_555
H28A C16A 1_555 1_555
C17A O5A 1_555 1_555
H29A C17A 1_555 1_555
H30A C17A 1_555 1_555
C18A O6A 1_555 1_555
H31A C18A 1_555 1_555
H32A C18A 1_555 1_555
C19A O6A 1_555 1_555
H33A C19A 1_555 1_555
H34A C19A 1_555 1_555
C20A O1A 1_555 1_555
H35A C20A 1_555 1_555
H36A C20A 1_555 1_555
C21A C22A 1_555 1_555
C22A S1A 1_555 1_555
C23A S2A 1_555 1_555
C24A C23A 1_555 1_555
C1 C6 1_555 1_555
C5 C6 1_555 1_555
C7 C8 1_555 1_555
C9 C10 1_555 1_555
C11 C16 1_555 1_555
C15 C16 1_555 1_555
C17 C18 1_555 1_555
C19 C20 1_555 1_555
C1A C6A 1_555 1_555
C5A C6A 1_555 1_555
C7A C8A 1_555 1_555
C9A C10A 1_555 1_555
C11A C16A 1_555 1_555
C15A C16A 1_555 1_555
C17A C18A 1_555 1_555
C19A C20A 1_555 1_555
C22A C23A 1_555 1_555

#END
