
#######################################################################
#
#                 Cambridge Crystallographic Data Centre
#                                CCDC 
#
#######################################################################
#
# If this CIF has been generated from an entry in the Cambridge 
# Structural Database, then it will include bibliographic, chemical, 
# crystal, experimental, refinement or atomic coordinate data resulting 
# from the CCDC's data processing and validation procedures.
#
#######################################################################

data_KUFSUB
_symmetry_cell_setting           triclinic
_symmetry_space_group_name_H-M   'P -1'
_symmetry_Int_Tables_number      2
_space_group_name_Hall           '-P 1'
loop_
_symmetry_equiv_pos_site_id
_symmetry_equiv_pos_as_xyz
1 x,y,z
2 -x,-y,-z
_cell_length_a                   9.207(2)
_cell_length_b                   11.559(3)
_cell_length_c                   11.623(3)
_cell_angle_alpha                98.492(5)
_cell_angle_beta                 99.538(5)
_cell_angle_gamma                103.086(5)
_cell_volume                     1165.89
loop_
_atom_site_label
_atom_site_type_symbol
_atom_site_fract_x
_atom_site_fract_y
_atom_site_fract_z
Ni1 Ni -0.10856(13) 0.89930(9) 0.10760(11)
O1 O -0.2699(7) 0.8670(5) 0.2264(6)
O2 O -0.2347(7) 0.7184(5) 0.1017(6)
O3 O 0.0179(7) 0.8378(5) -0.0006(6)
O4 O 0.0450(7) 0.9191(5) -0.1642(7)
N1 N 0.0583(8) 0.8896(6) 0.2532(6)
N2 N 0.7226(8) 0.9048(6) 0.9609(6)
N3 N 0.0035(9) 0.5529(6) -0.4770(7)
N4 N -0.4666(9) 0.5517(7) 0.4916(8)
C1 C 0.0914(13) 0.9670(10) 0.3547(11)
H1 H 0.0445 1.0304 0.3599
C2 C 0.1907(10) 0.9595(9) 0.4529(8)
H2 H 0.2099 1.0163 0.5228
C3 C 0.2626(11) 0.8662(8) 0.4472(9)
C4 C 0.2291(12) 0.7867(10) 0.3401(11)
H3 H 0.2757 0.7234 0.3316
C5 C 0.1267(12) 0.8006(9) 0.2451(10)
H4 H 0.1052 0.7458 0.1736
C6 C 0.3727(12) 0.8509(10) 0.5503(11)
H5 H 0.4138 0.7845 0.5402
C7 C 0.4151(13) 0.9241(10) 0.6531(11)
H6 H 0.3720 0.9894 0.6626
C8 C 0.5237(11) 0.9131(9) 0.7544(9)
C9 C 0.5618(11) 1.0042(9) 0.8525(10)
H7 H 0.5207 1.0706 0.8506
C10 C 0.6628(10) 0.9989(8) 0.9568(9)
H8 H 0.6873 1.0615 1.0225
C11 C 0.6845(11) 0.8156(9) 0.8702(10)
H9 H 0.7246 0.7491 0.8756
C12 C 0.5847(11) 0.8156(9) 0.7637(9)
H10 H 0.5605 0.7503 0.7005
C13 C 0.0376(10) 0.8327(8) -0.1041(10)
C14 C 0.0567(10) 0.7161(7) -0.1708(9)
C15 C 0.0986(11) 0.6339(8) -0.1038(10)
H11 H 0.1142 0.6513 -0.0213
C16 C 0.1167(13) 0.5252(10) -0.1619(11)
H12 H 0.1498 0.4718 -0.1177
C17 C 0.0864(12) 0.4968(9) -0.2822(11)
H13 H 0.0966 0.4229 -0.3193
C18 C 0.0399(11) 0.5768(8) -0.3526(9)
C19 C 0.0291(10) 0.6883(8) -0.2955(9)
H14 H 0.0037 0.7442 -0.3398
C20 C -0.3010(10) 0.7564(8) 0.1782(9)
C21 C -0.4171(10) 0.6663(8) 0.2198(9)
C22 C -0.5435(11) 0.5945(8) 0.1391(9)
H15 H -0.5557 0.6027 0.0599
C23 C -0.6524(12) 0.5108(8) 0.1729(10)
H16 H -0.7390 0.4657 0.1176
C24 C -0.6328(11) 0.4943(8) 0.2884(9)
H17 H -0.7056 0.4377 0.3117
C25 C -0.5027(10) 0.5630(8) 0.3703(9)
C26 C -0.3987(11) 0.6528(8) 0.3373(9)
H18 H -0.3170 0.7036 0.3939
O1A O -0.7301(7) 0.1330(5) 0.7736(6)
O2A O -0.7653(7) 0.2816(5) 0.8983(6)
N4A N -0.5334(9) 0.4483(7) 0.5084(8)
C20A C -0.6990(10) 0.2436(8) 0.8218(9)
C21A C -0.5829(10) 0.3337(8) 0.7802(9)
C22A C -0.4565(11) 0.4055(8) 0.8609(9)
H15A H -0.4443 0.3973 0.9401
C23A C -0.3476(12) 0.4892(8) 0.8271(10)
H16A H -0.2610 0.5343 0.8824
C24A C -0.3672(11) 0.5057(8) 0.7116(9)
H17A H -0.2944 0.5623 0.6883
C25A C -0.4973(10) 0.4370(8) 0.6297(9)
C26A C -0.6013(11) 0.3472(8) 0.6627(9)
H18A H -0.6830 0.2964 0.6061
O3A O -0.0179(7) 0.1622(5) -0.9994(6)
O4A O -0.0450(7) 0.0809(5) -0.8358(7)
N3A N -0.0035(9) 0.4471(6) -0.5230(7)
C13A C -0.0376(10) 0.1673(8) -0.8959(10)
C14A C -0.0567(10) 0.2839(7) -0.8292(9)
C15A C -0.0986(11) 0.3661(8) -0.8962(10)
H11A H -0.1142 0.3487 -0.9787
C16A C -0.1167(13) 0.4748(10) -0.8381(11)
H12A H -0.1498 0.5282 -0.8823
C17A C -0.0864(12) 0.5032(9) -0.7178(11)
H13A H -0.0966 0.5771 -0.6807
C18A C -0.0399(11) 0.4232(8) -0.6474(9)
C19A C -0.0291(10) 0.3117(8) -0.7045(9)
H14A H -0.0037 0.2558 -0.6602
Ni1A Ni -0.89144(13) 0.10070(9) 0.89240(11)
N1A N -1.0583(8) 0.1104(6) 0.7468(6)
N2A N -1.7226(8) 0.0952(6) 0.0391(6)
C1A C -1.0914(13) 0.0330(10) 0.6453(11)
H1A H -1.0445 -0.0304 0.6401
C2A C -1.1907(10) 0.0405(9) 0.5471(8)
H2A H -1.2099 -0.0163 0.4772
C3A C -1.2626(11) 0.1338(8) 0.5528(9)
C4A C -1.2291(12) 0.2133(10) 0.6599(11)
H3A H -1.2757 0.2766 0.6684
C5A C -1.1267(12) 0.1994(9) 0.7549(10)
H4A H -1.1052 0.2542 0.8264
C6A C -1.3727(12) 0.1491(10) 0.4497(11)
H5A H -1.4138 0.2155 0.4598
C7A C -1.4151(13) 0.0759(10) 0.3469(11)
H6A H -1.3720 0.0106 0.3374
C8A C -1.5237(11) 0.0869(9) 0.2456(9)
C9A C -1.5618(11) -0.0042(9) 0.1475(10)
H7A H -1.5207 -0.0706 0.1494
C10A C -1.6628(10) 0.0011(8) 0.0432(9)
H8A H -1.6873 -0.0615 -0.0225
C11A C -1.6845(11) 0.1844(9) 0.1298(10)
H9A H -1.7246 0.2509 0.1244
C12A C -1.5847(11) 0.1844(9) 0.2363(9)
H10A H -1.5605 0.2497 0.2995
Ni1_2 Ni -0.10856(13) -0.10070(9) -0.89240(11)
Ni1_3 Ni 0.89144(13) 0.89930(9) 1.10760(11)
Ni1A_2 Ni -1.89144(13) 0.10070(9) -0.10760(11)
Ni1A_3 Ni 0.10856(13) 0.10070(9) -1.10760(11)
Ni1A_4 Ni 0.10856(13) 1.10070(9) -0.10760(11)
O3A_2 O -1.0179(7) 0.1622(5) 1.0006(6)
O4_2 O -0.9550(7) -0.0809(5) 0.8358(7)
O4A_2 O -0.0450(7) 1.0809(5) 0.1642(7)
N2_2 N -0.2774(8) 0.9048(6) -0.0391(6)
N2A_2 N -0.7226(8) 0.0952(6) 1.0391(6)
loop_
_geom_bond_atom_site_label_1
_geom_bond_atom_site_label_2
_geom_bond_site_symmetry_1
_geom_bond_site_symmetry_2
Ni1 O1 1_555 1_555
O1 C20 1_555 1_555
O2 Ni1 1_555 1_555
O3 Ni1 1_555 1_555
O4 C13 1_555 1_555
N1 Ni1 1_555 1_555
N2 C10 1_555 1_555
N3 C18 1_555 1_555
N4 C25 1_555 1_555
C1 N1 1_555 1_555
H1 C1 1_555 1_555
C2 C1 1_555 1_555
H2 C2 1_555 1_555
C3 C2 1_555 1_555
C4 C3 1_555 1_555
H3 C4 1_555 1_555
C5 N1 1_555 1_555
H4 C5 1_555 1_555
C6 C3 1_555 1_555
H5 C6 1_555 1_555
C7 C6 1_555 1_555
H6 C7 1_555 1_555
C8 C7 1_555 1_555
C9 C8 1_555 1_555
H7 C9 1_555 1_555
C10 C9 1_555 1_555
H8 C10 1_555 1_555
C11 N2 1_555 1_555
H9 C11 1_555 1_555
C12 C8 1_555 1_555
H10 C12 1_555 1_555
C13 O3 1_555 1_555
C14 C13 1_555 1_555
C15 C14 1_555 1_555
H11 C15 1_555 1_555
C16 C15 1_555 1_555
H12 C16 1_555 1_555
C17 C16 1_555 1_555
H13 C17 1_555 1_555
C18 C17 1_555 1_555
C19 C14 1_555 1_555
H14 C19 1_555 1_555
C20 O2 1_555 1_555
C21 C20 1_555 1_555
C22 C21 1_555 1_555
H15 C22 1_555 1_555
C23 C22 1_555 1_555
H16 C23 1_555 1_555
C24 C23 1_555 1_555
H17 C24 1_555 1_555
C25 C24 1_555 1_555
C26 C21 1_555 1_555
H18 C26 1_555 1_555
O1A C20A 1_555 1_555
O2A C20A 1_555 1_555
N4A N4 1_555 1_555
C20A C21A 1_555 1_555
C21A C22A 1_555 1_555
C22A H15A 1_555 1_555
C23A C22A 1_555 1_555
H16A C23A 1_555 1_555
C24A C23A 1_555 1_555
H17A C24A 1_555 1_555
C25A N4A 1_555 1_555
C26A C21A 1_555 1_555
H18A C26A 1_555 1_555
O3A C13A 1_555 1_555
O4A C13A 1_555 1_555
N3A N3 1_555 1_555
C13A C14A 1_555 1_555
C14A C15A 1_555 1_555
C15A H11A 1_555 1_555
C16A C15A 1_555 1_555
H12A C16A 1_555 1_555
C17A C16A 1_555 1_555
H13A C17A 1_555 1_555
C18A N3A 1_555 1_555
C19A C14A 1_555 1_555
H14A C19A 1_555 1_555
Ni1A O1A 1_555 1_555
N1A Ni1A 1_555 1_555
N2A C10A 1_555 1_555
C1A N1A 1_555 1_555
H1A C1A 1_555 1_555
C2A C1A 1_555 1_555
H2A C2A 1_555 1_555
C3A C2A 1_555 1_555
C4A C3A 1_555 1_555
H3A C4A 1_555 1_555
C5A N1A 1_555 1_555
H4A C5A 1_555 1_555
C6A C3A 1_555 1_555
H5A C6A 1_555 1_555
C7A C6A 1_555 1_555
H6A C7A 1_555 1_555
C8A C7A 1_555 1_555
C9A C8A 1_555 1_555
H7A C9A 1_555 1_555
C10A C9A 1_555 1_555
H8A C10A 1_555 1_555
C11A N2A 1_555 1_555
H9A C11A 1_555 1_555
C12A C8A 1_555 1_555
H10A C12A 1_555 1_555
Ni1_2 O4A 1_555 1_555
Ni1_3 N2 1_555 1_555
Ni1A_2 N2A 1_555 1_555
Ni1A_3 O3A 1_555 1_555
Ni1A_4 O4 1_555 1_555
O3A_2 Ni1A 1_555 1_555
O4_2 Ni1A 1_555 1_555
O4A_2 Ni1 1_555 1_555
N2_2 Ni1 1_555 1_555
N2A_2 Ni1A 1_555 1_555
C4 C5 1_555 1_555
C11 C12 1_555 1_555
C18 C19 1_555 1_555
C25 C26 1_555 1_555
O2A Ni1A 1_555 1_555
C24A C25A 1_555 1_555
C25A C26A 1_555 1_555
C17A C18A 1_555 1_555
C18A C19A 1_555 1_555
C4A C5A 1_555 1_555
C11A C12A 1_555 1_555

#END
