
#######################################################################
#
#                 Cambridge Crystallographic Data Centre
#                                CCDC 
#
#######################################################################
#
# If this CIF has been generated from an entry in the Cambridge 
# Structural Database, then it will include bibliographic, chemical, 
# crystal, experimental, refinement or atomic coordinate data resulting 
# from the CCDC's data processing and validation procedures.
#
#######################################################################

data_KUFSOV
_symmetry_cell_setting           triclinic
_symmetry_space_group_name_H-M   'P -1'
_symmetry_Int_Tables_number      2
_space_group_name_Hall           '-P 1'
loop_
_symmetry_equiv_pos_site_id
_symmetry_equiv_pos_as_xyz
1 x,y,z
2 -x,-y,-z
_cell_length_a                   9.101(4)
_cell_length_b                   11.642(6)
_cell_length_c                   11.677(6)
_cell_angle_alpha                98.529(5)
_cell_angle_beta                 98.378(6)
_cell_angle_gamma                102.209(6)
_cell_volume                     1175.63
loop_
_atom_site_label
_atom_site_type_symbol
_atom_site_fract_x
_atom_site_fract_y
_atom_site_fract_z
Co1 Co 0.60853(10) 0.59770(7) 0.89565(7)
O1 O 0.5643(6) 0.4174(4) 0.8356(4)
O2 O 0.5191(6) 0.3381(4) 0.9931(4)
O3 O 0.7678(6) 0.6387(5) 0.7726(5)
O4 O 0.7408(6) 0.7809(5) 0.9069(4)
N1 N 0.5054(9) 0.0525(6) 0.5236(6)
N2 N 0.9701(8) 0.9506(6) 0.5104(6)
N3 N 0.4368(7) 0.6076(5) 0.7523(5)
N4 N -0.2193(7) 0.5922(5) 0.0448(5)
C1 C 0.5583(8) 0.2138(6) 0.8284(5)
C2 C 0.5361(9) 0.1857(6) 0.7067(6)
H1 H 0.5160 0.2425 0.6623
C3 C 0.5434(9) 0.0743(6) 0.6501(6)
C4 C 0.5813(11) -0.0082(7) 0.7153(7)
H2 H 0.5878 -0.0826 0.6773
C5 C 0.6099(12) 0.0197(8) 0.8375(8)
H3 H 0.6388 -0.0347 0.8818
C6 C 0.5951(11) 0.1284(7) 0.8921(7)
H4 H 0.6101 0.1455 0.9739
C7 C 0.5439(7) 0.3316(6) 0.8906(5)
C8 C 0.9175(9) 0.8347(7) 0.7834(7)
C9 C 0.9021(9) 0.8486(6) 0.6656(6)
H5 H 0.8236 0.7972 0.6095
C10 C 1.0030(9) 0.9384(7) 0.6323(7)
C11 C 1.1302(10) 1.0096(7) 0.7118(8)
H6 H 1.2008 1.0670 0.6878
C12 C 1.1487(11) 0.9926(8) 0.8273(8)
H7 H 1.2341 1.0377 0.8814
C13 C 1.0413(10) 0.9094(7) 0.8628(7)
H8 H 1.0521 0.9031 0.9420
C14 C 0.8015(8) 0.7457(6) 0.8224(6)
C15 C 0.4064(11) 0.5304(8) 0.6501(6)
H9 H 0.4533 0.4667 0.6448
C16 C 0.3089(11) 0.5407(8) 0.5520(7)
H10 H 0.2926 0.4848 0.4829
C17 C 0.2349(9) 0.6331(7) 0.5550(6)
C18 C 0.2663(11) 0.7126(8) 0.6608(7)
H11 H 0.2208 0.7771 0.6687
C19 C 0.3647(10) 0.6959(8) 0.7539(6)
H12 H 0.3826 0.7507 0.8239
C20 C 0.1311(11) 0.6492(8) 0.4538(7)
H13 H 0.0919 0.7169 0.4623
C21 C 0.0891(10) 0.5758(8) 0.3523(7)
H14 H 0.1305 0.5091 0.3449
C22 C -0.1561(8) 0.4994(7) 0.0550(6)
H15 H -0.1806 0.4356 -0.0083
C23 C -0.0568(9) 0.4928(7) 0.1536(7)
H16 H -0.0175 0.4255 0.1565
C24 C -0.0164(9) 0.5870(7) 0.2483(7)
C25 C -0.0810(11) 0.6832(8) 0.2388(7)
H17 H -0.0579 0.7482 0.3007
C26 C -0.1808(10) 0.6826(7) 0.1362(7)
H18 H -0.2225 0.7484 0.1313
O1A O 0.4357(6) -0.4174(4) 0.1644(4)
O2A O 0.4809(6) -0.3381(4) 0.0069(4)
N1A N 0.4946(9) -0.0525(6) 0.4764(6)
C1A C 0.4417(8) -0.2138(6) 0.1716(5)
C2A C 0.4639(9) -0.1857(6) 0.2933(6)
H1A H 0.4840 -0.2425 0.3377
C3A C 0.4566(9) -0.0743(6) 0.3499(6)
C4A C 0.4187(11) 0.0082(7) 0.2847(7)
H2A H 0.4122 0.0826 0.3227
C5A C 0.3901(12) -0.0197(8) 0.1625(8)
H3A H 0.3612 0.0347 0.1182
C6A C 0.4049(11) -0.1284(7) 0.1079(7)
H4A H 0.3899 -0.1455 0.0261
C7A C 0.4561(7) -0.3316(6) 0.1094(5)
O3A O 1.2322(6) 1.3613(5) 0.2274(5)
O4A O 1.2592(6) 1.2191(5) 0.0931(4)
N2A N 1.0299(8) 1.0494(6) 0.4896(6)
C8A C 1.0825(9) 1.1653(7) 0.2166(7)
C9A C 1.0979(9) 1.1514(6) 0.3344(6)
H5A H 1.1764 1.2028 0.3905
C10A C 0.9970(9) 1.0616(7) 0.3677(7)
C11A C 0.8698(10) 0.9904(7) 0.2882(8)
H6A H 0.7992 0.9330 0.3122
C12A C 0.8513(11) 1.0074(8) 0.1727(8)
H7A H 0.7659 0.9623 0.1186
C13A C 0.9587(10) 1.0906(7) 0.1372(7)
H8A H 0.9479 1.0969 0.0580
C14A C 1.1985(8) 1.2543(6) 0.1776(6)
Co1A Co 0.39147(10) -0.59770(7) 0.10435(7)
N3A N 0.5632(7) -0.6076(5) 0.2477(5)
N4A N 1.2193(7) -0.5922(5) 0.9552(5)
C15A C 0.5936(11) -0.5304(8) 0.3499(6)
H9A H 0.5467 -0.4667 0.3552
C16A C 0.6911(11) -0.5407(8) 0.4480(7)
H10A H 0.7074 -0.4848 0.5171
C17A C 0.7651(9) -0.6331(7) 0.4450(6)
C18A C 0.7337(11) -0.7126(8) 0.3392(7)
H11A H 0.7792 -0.7771 0.3313
C19A C 0.6353(10) -0.6959(8) 0.2461(6)
H12A H 0.6174 -0.7507 0.1761
C20A C 0.8689(11) -0.6492(8) 0.5462(7)
H13A H 0.9081 -0.7169 0.5377
C21A C 0.9109(10) -0.5758(8) 0.6477(7)
H14A H 0.8695 -0.5091 0.6551
C22A C 1.1561(8) -0.4994(7) 0.9450(6)
H15A H 1.1806 -0.4356 1.0083
C23A C 1.0568(9) -0.4928(7) 0.8464(7)
H16A H 1.0175 -0.4255 0.8435
C24A C 1.0164(9) -0.5870(7) 0.7517(7)
C25A C 1.0810(11) -0.6832(8) 0.7612(7)
H17A H 1.0579 -0.7482 0.6993
C26A C 1.1808(10) -0.6826(7) 0.8638(7)
H18A H 1.2225 -0.7484 0.8687
Co1_2 Co -0.39147(10) 0.59770(7) -0.10435(7)
Co1_3 Co 0.60853(10) -0.40230(7) -0.10435(7)
Co1A_2 Co 0.39147(10) 0.40230(7) 1.10435(7)
Co1A_3 Co 1.39147(10) -0.59770(7) 1.10435(7)
Co1A_4 Co 1.39147(10) 1.40230(7) 0.10435(7)
O2_2 O 0.5191(6) -0.6619(4) -0.0069(4)
O2A_2 O 0.4809(6) 0.6619(4) 1.0069(4)
O3A_2 O 0.2322(6) -0.6387(5) 0.2274(5)
O4A_2 O 0.2592(6) -0.7809(5) 0.0931(4)
N4_2 N 0.7807(7) 0.5922(5) 1.0448(5)
N4A_2 N 0.2193(7) -0.5922(5) -0.0448(5)
loop_
_geom_bond_atom_site_label_1
_geom_bond_atom_site_label_2
_geom_bond_site_symmetry_1
_geom_bond_site_symmetry_2
Co1 O1 1_555 1_555
O1 C7 1_555 1_555
O2 C7 1_555 1_555
O3 Co1 1_555 1_555
O4 Co1 1_555 1_555
N1 C3 1_555 1_555
N2 C10 1_555 1_555
N3 Co1 1_555 1_555
N4 C22 1_555 1_555
C1 C2 1_555 1_555
C2 H1 1_555 1_555
C3 C2 1_555 1_555
C4 C3 1_555 1_555
H2 C4 1_555 1_555
C5 C4 1_555 1_555
H3 C5 1_555 1_555
C6 C1 1_555 1_555
H4 C6 1_555 1_555
C7 C1 1_555 1_555
C8 C9 1_555 1_555
C9 H5 1_555 1_555
C10 C9 1_555 1_555
C11 C10 1_555 1_555
H6 C11 1_555 1_555
C12 C11 1_555 1_555
H7 C12 1_555 1_555
C13 C8 1_555 1_555
H8 C13 1_555 1_555
C14 O3 1_555 1_555
C15 N3 1_555 1_555
H9 C15 1_555 1_555
C16 C15 1_555 1_555
H10 C16 1_555 1_555
C17 C16 1_555 1_555
C18 C17 1_555 1_555
H11 C18 1_555 1_555
C19 N3 1_555 1_555
H12 C19 1_555 1_555
C20 C17 1_555 1_555
H13 C20 1_555 1_555
C21 C20 1_555 1_555
H14 C21 1_555 1_555
C22 H15 1_555 1_555
C23 C22 1_555 1_555
H16 C23 1_555 1_555
C24 C21 1_555 1_555
C25 C24 1_555 1_555
H17 C25 1_555 1_555
C26 N4 1_555 1_555
H18 C26 1_555 1_555
O1A C7A 1_555 1_555
O2A C7A 1_555 1_555
N1A N1 1_555 1_555
C1A C2A 1_555 1_555
C2A H1A 1_555 1_555
C3A N1A 1_555 1_555
C4A C3A 1_555 1_555
H2A C4A 1_555 1_555
C5A C4A 1_555 1_555
H3A C5A 1_555 1_555
C6A C1A 1_555 1_555
H4A C6A 1_555 1_555
C7A C1A 1_555 1_555
O3A C14A 1_555 1_555
O4A C14A 1_555 1_555
N2A N2 1_555 1_555
C8A C9A 1_555 1_555
C9A H5A 1_555 1_555
C10A N2A 1_555 1_555
C11A C10A 1_555 1_555
H6A C11A 1_555 1_555
C12A C11A 1_555 1_555
H7A C12A 1_555 1_555
C13A C8A 1_555 1_555
H8A C13A 1_555 1_555
C14A C8A 1_555 1_555
Co1A O1A 1_555 1_555
N3A Co1A 1_555 1_555
N4A C22A 1_555 1_555
C15A N3A 1_555 1_555
H9A C15A 1_555 1_555
C16A C15A 1_555 1_555
H10A C16A 1_555 1_555
C17A C16A 1_555 1_555
C18A C17A 1_555 1_555
H11A C18A 1_555 1_555
C19A N3A 1_555 1_555
H12A C19A 1_555 1_555
C20A C17A 1_555 1_555
H13A C20A 1_555 1_555
C21A C20A 1_555 1_555
H14A C21A 1_555 1_555
C22A H15A 1_555 1_555
C23A C22A 1_555 1_555
H16A C23A 1_555 1_555
C24A C21A 1_555 1_555
C25A C24A 1_555 1_555
H17A C25A 1_555 1_555
C26A N4A 1_555 1_555
H18A C26A 1_555 1_555
Co1_2 N4 1_555 1_555
Co1_3 O2A 1_555 1_555
Co1A_2 O2 1_555 1_555
Co1A_3 N4A 1_555 1_555
Co1A_4 O3A 1_555 1_555
O2_2 Co1A 1_555 1_555
O2A_2 Co1 1_555 1_555
O3A_2 Co1A 1_555 1_555
O4A_2 Co1A 1_555 1_555
N4_2 Co1 1_555 1_555
N4A_2 Co1A 1_555 1_555
O4 C14 1_555 1_555
C5 C6 1_555 1_555
C8 C14 1_555 1_555
C12 C13 1_555 1_555
C18 C19 1_555 1_555
C23 C24 1_555 1_555
C25 C26 1_555 1_555
C2A C3A 1_555 1_555
C5A C6A 1_555 1_555
O4A Co1A_4 1_555 1_555
C9A C10A 1_555 1_555
C12A C13A 1_555 1_555
C18A C19A 1_555 1_555
C23A C24A 1_555 1_555
C25A C26A 1_555 1_555

#END
