
#######################################################################
#
#                 Cambridge Crystallographic Data Centre
#                                CCDC 
#
#######################################################################
#
# If this CIF has been generated from an entry in the Cambridge 
# Structural Database, then it will include bibliographic, chemical, 
# crystal, experimental, refinement or atomic coordinate data resulting 
# from the CCDC's data processing and validation procedures.
#
#######################################################################

data_KUFTIP
_symmetry_cell_setting           triclinic
_symmetry_space_group_name_H-M   'P -1'
_symmetry_Int_Tables_number      2
_space_group_name_Hall           '-P 1'
loop_
_symmetry_equiv_pos_site_id
_symmetry_equiv_pos_as_xyz
1 x,y,z
2 -x,-y,-z
_cell_length_a                   14.0680(6)
_cell_length_b                   15.6808(5)
_cell_length_c                   15.8088(6)
_cell_angle_alpha                110.690(4)
_cell_angle_beta                 107.529(3)
_cell_angle_gamma                91.616(5)
_cell_volume                     3075.35
loop_
_atom_site_label
_atom_site_type_symbol
_atom_site_fract_x
_atom_site_fract_y
_atom_site_fract_z
Mo1 Mo 1.14168(3) 0.54965(3) -0.15216(3)
Mo2 Mo 0.80069(3) 0.32191(3) -0.22088(3)
Mo3 Mo 1.16885(3) 0.69634(3) 0.00073(3)
Mo4 Mo 0.80472(3) 0.48149(3) -0.23385(3)
Mo5 Mo 1.16945(3) 0.31888(3) 0.02999(3)
Mo6 Mo 1.14881(3) 0.33350(3) -0.13276(3)
Ni1 Ni 1.0000 0.5000 0.0000
Ni2 Ni 1.5000 0.5000 0.0000
Ni3 Ni 0.79824(5) 0.73027(4) -0.35892(5)
Ni4 Ni 0.45245(5) 0.04366(5) -0.22061(5)
P1 P 1.28595(8) 0.52639(8) 0.05492(9)
P2 P 0.63028(9) 0.19749(9) -0.19275(9)
P3 P 1.30408(9) 0.41851(9) -0.21091(10)
P4 P 0.67119(9) 0.65134(10) -0.24562(10)
N1 N 0.8413(4) 0.8674(3) -0.2645(4)
N2 N 0.6975(4) 0.7948(3) -0.4333(3)
N3 N 0.9040(4) 0.7315(3) -0.4293(3)
N4 N 0.7598(4) 0.6001(3) -0.4666(4)
N5 N 0.3369(4) 0.0618(3) -0.3295(4)
N6 N 0.4359(3) -0.0805(3) -0.3344(3)
N7 N 0.3483(4) -0.0240(4) -0.1858(4)
N8 N 0.5473(4) -0.0065(3) -0.1266(4)
O1 O 0.8997(2) 0.4366(2) -0.1443(2)
O2 O 0.6962(2) 0.3809(2) -0.2800(3)
O3 O 0.8819(2) 0.2708(2) -0.1187(2)
O4 O 1.2539(2) 0.6478(2) -0.0754(3)
O5 O 1.2604(2) 0.3039(2) -0.0441(3)
O6 O 1.0741(2) 0.3797(2) -0.0420(2)
O7 O 1.0708(2) 0.5806(2) -0.0565(2)
O8 O 1.1041(3) 0.7667(3) -0.0465(3)
O9 O 1.0697(2) 0.4147(2) -0.2036(2)
O10 O 1.2499(2) 0.6204(2) 0.0919(2)
O11 O 0.7153(3) 0.6960(3) -0.1369(3)
O12 O 0.6850(3) 0.2181(2) -0.2549(3)
O13 O 1.2282(2) 0.4794(2) -0.0537(2)
O14 O 1.1042(3) 0.2140(3) -0.0083(3)
O15 O 1.3986(2) 0.5441(2) 0.0766(3)
O16 O 0.6978(3) 0.5535(3) -0.2822(3)
O17 O 1.2335(3) 0.4882(3) -0.2257(3)
O18 O 1.2557(2) 0.4660(2) 0.1044(2)
O19 O 0.8859(2) 0.6134(2) -0.1427(3)
O20 O 0.7060(3) 0.2087(2) -0.0954(3)
O21 O 0.8484(3) 0.2646(3) -0.3064(3)
O22 O 1.2476(3) 0.3370(3) -0.2039(3)
O23 O 1.0702(3) 0.5831(3) -0.2383(3)
O24 O 0.8559(3) 0.4612(3) -0.3213(3)
O25 O 0.5519(3) 0.2676(3) -0.1757(3)
O26 O 0.6962(3) 0.7090(3) -0.2953(3)
O27 O 1.0800(3) 0.2313(3) -0.2105(3)
O28 O 1.3281(3) 0.3750(3) -0.3071(3)
O29 O 1.4009(3) 0.4660(3) -0.1312(3)
O30 O 0.5682(3) 0.1040(2) -0.2429(3)
O31 O 0.5528(3) 0.6358(4) -0.2724(4)
O32 O 1.4631(3) 0.3662(3) -0.0070(3)
O33 O 0.9113(3) 0.6905(3) -0.2653(3)
O34 O 0.4425(4) 0.1688(3) -0.1151(4)
C1 C 0.9202(5) 0.8998(5) -0.1816(5)
H1 H 0.9567 0.8583 -0.1607
C2 C 0.9476(5) 0.9925(5) -0.1277(5)
H2 H 1.0023 1.0133 -0.0711
C3 C 0.8933(6) 1.0553(5) -0.1580(6)
H3 H 0.9114 1.1183 -0.1223
C4 C 0.8134(5) 1.0229(5) -0.2407(6)
H4 H 0.7756 1.0636 -0.2619
C5 C 0.7884(5) 0.9282(4) -0.2936(5)
C6 C 0.7046(4) 0.8869(4) -0.3872(4)
C7 C 0.6377(5) 0.9372(5) -0.4265(6)
H5 H 0.6404 0.9998 -0.3928
C8 C 0.5679(6) 0.8928(6) -0.5157(6)
H6 H 0.5249 0.9263 -0.5440
C9 C 0.5603(6) 0.7995(6) -0.5641(5)
H7 H 0.5129 0.7690 -0.6247
C10 C 0.6265(5) 0.7527(5) -0.5183(4)
H8 H 0.6208 0.6891 -0.5485
C11 C 0.9706(5) 0.8029(5) -0.4119(5)
H9 H 0.9721 0.8590 -0.3642
C12 C 1.0370(6) 0.7975(7) -0.4609(7)
H10 H 1.0826 0.8489 -0.4465
C13 C 1.0351(7) 0.7152(8) -0.5316(7)
H11 H 1.0801 0.7100 -0.5652
C14 C 0.9661(6) 0.6402(6) -0.5527(6)
H12 H 0.9633 0.5841 -0.6012
C15 C 0.9010(5) 0.6499(4) -0.5001(5)
C16 C 0.8246(5) 0.5759(4) -0.5156(4)
C17 C 0.8163(7) 0.4862(5) -0.5817(5)
H13 H 0.8639 0.4692 -0.6121
C18 C 0.7332(9) 0.4235(5) -0.5997(6)
H14 H 0.7246 0.3632 -0.6431
C19 C 0.6638(7) 0.4508(6) -0.5531(6)
H15 H 0.6067 0.4103 -0.5669
C20 C 0.6807(6) 0.5373(5) -0.4875(5)
H16 H 0.6350 0.5545 -0.4549
C21 C 0.2951(5) 0.1393(5) -0.3211(6)
H17 H 0.3242 0.1927 -0.2669
C22 C 0.2092(6) 0.1405(6) -0.3920(7)
H18 H 0.1808 0.1942 -0.3862
C23 C 0.1659(6) 0.0590(6) -0.4726(6)
H19 H 0.1072 0.0574 -0.5205
C24 C 0.2116(5) -0.0185(5) -0.4799(5)
H20 H 0.1845 -0.0730 -0.5332
C25 C 0.2984(4) -0.0141(4) -0.4068(4)
C26 C 0.3522(4) -0.0949(4) -0.4124(4)
C27 C 0.3241(5) -0.1780(5) -0.4882(5)
H21 H 0.2668 -0.1869 -0.5405
C28 C 0.3800(6) -0.2486(5) -0.4878(5)
H22 H 0.3617 -0.3047 -0.5397
C29 C 0.4635(5) -0.2340(4) -0.4088(5)
H23 H 0.5016 -0.2810 -0.4056
C30 C 0.4897(4) -0.1500(4) -0.3353(4)
H24 H 0.5475 -0.1404 -0.2832
C31 C 0.2477(5) -0.0251(6) -0.2103(6)
H25 H 0.2200 0.0150 -0.2393
C32 C 0.1833(7) -0.0817(8) -0.1954(7)
H26 H 0.1146 -0.0785 -0.2120
C33 C 0.2224(6) -0.1418(8) -0.1561(7)
H27 H 0.1803 -0.1828 -0.1479
C34 C 0.3272(7) -0.1420(6) -0.1275(6)
H28 H 0.3553 -0.1825 -0.0994
C35 C 0.3883(5) -0.0810(4) -0.1419(5)
C36 C 0.4982(5) -0.0731(4) -0.1131(4)
C37 C 0.5515(6) -0.1304(5) -0.0715(6)
H29 H 0.5179 -0.1759 -0.0615
C38 C 0.6571(7) -0.1173(6) -0.0453(6)
H30 H 0.6943 -0.1553 -0.0189
C39 C 0.7045(6) -0.0495(6) -0.0586(6)
H31 H 0.7745 -0.0390 -0.0395
C40 C 0.6473(5) 0.0045(5) -0.1010(5)
H32 H 0.6801 0.0498 -0.1119
Mo1A Mo 0.85832(3) 0.45035(3) 0.15216(3)
Mo2A Mo 1.19931(3) 0.67809(3) 0.22088(3)
Mo3A Mo 0.83115(3) 0.30366(3) -0.00073(3)
Mo4A Mo 1.19528(3) 0.51851(3) 0.23385(3)
Mo5A Mo 0.83055(3) 0.68112(3) -0.02999(3)
Mo6A Mo 0.85119(3) 0.66650(3) 0.13276(3)
Ni2_2 Ni 0.5000 0.5000 0.0000
Ni3A Ni 1.20176(5) 0.26973(4) 0.35892(5)
Ni4A Ni 1.54755(5) 0.95634(5) 0.22061(5)
P1A P 0.71405(8) 0.47361(8) -0.05492(9)
P2A P 1.36972(9) 0.80251(9) 0.19275(9)
P3A P 0.69592(9) 0.58149(9) 0.21091(10)
P4A P 1.32881(9) 0.34866(10) 0.24562(10)
N1A N 1.1587(4) 0.1326(3) 0.2645(4)
N2A N 1.3025(4) 0.2052(3) 0.4333(3)
N3A N 1.0960(4) 0.2685(3) 0.4293(3)
N4A N 1.2402(4) 0.3999(3) 0.4666(4)
N5A N 1.6631(4) 0.9382(3) 0.3295(4)
N6A N 1.5641(3) 1.0805(3) 0.3344(3)
N7A N 1.6517(4) 1.0240(4) 0.1858(4)
N8A N 1.4527(4) 1.0065(3) 0.1266(4)
O1A O 1.1003(2) 0.5634(2) 0.1443(2)
O2A O 1.3038(2) 0.6191(2) 0.2800(3)
O3A O 1.1181(2) 0.7292(2) 0.1187(2)
O4A O 0.7461(2) 0.3522(2) 0.0754(3)
O5A O 0.7396(2) 0.6961(2) 0.0441(3)
O6A O 0.9259(2) 0.6203(2) 0.0420(2)
O7A O 0.9292(2) 0.4194(2) 0.0565(2)
O8A O 0.8959(3) 0.2333(3) 0.0465(3)
O9A O 0.9303(2) 0.5853(2) 0.2036(2)
O10A O 0.7501(2) 0.3796(2) -0.0919(2)
O11A O 1.2847(3) 0.3040(3) 0.1369(3)
O12A O 1.3150(3) 0.7819(2) 0.2549(3)
O13A O 0.7718(2) 0.5206(2) 0.0537(2)
O14A O 0.8958(3) 0.7860(3) 0.0083(3)
O15A O 0.6014(2) 0.4559(2) -0.0766(3)
O15A_2 O 1.6014(2) 0.4559(2) -0.0766(3)
O16A O 1.3022(3) 0.4465(3) 0.2822(3)
O17A O 0.7665(3) 0.5118(3) 0.2257(3)
O18A O 0.7443(2) 0.5340(2) -0.1044(2)
O19A O 1.1141(2) 0.3866(2) 0.1427(3)
O20A O 1.2940(3) 0.7913(2) 0.0954(3)
O21A O 1.1516(3) 0.7354(3) 0.3064(3)
O22A O 0.7524(3) 0.6630(3) 0.2039(3)
O23A O 0.9298(3) 0.4169(3) 0.2383(3)
O24A O 1.1441(3) 0.5388(3) 0.3213(3)
O25A O 1.4481(3) 0.7324(3) 0.1757(3)
O26A O 1.3038(3) 0.2910(3) 0.2953(3)
O27A O 0.9200(3) 0.7687(3) 0.2105(3)
O28A O 0.6719(3) 0.6250(3) 0.3071(3)
O29A O 0.5991(3) 0.5340(3) 0.1312(3)
O29A_2 O 1.5991(3) 0.5340(3) 0.1312(3)
O30A O 1.4318(3) 0.8960(2) 0.2429(3)
O31A O 1.4472(3) 0.3642(4) 0.2724(4)
O32A O 1.5369(3) 0.6338(3) 0.0070(3)
O33A O 1.0887(3) 0.3095(3) 0.2653(3)
O34A O 1.5575(4) 0.8312(3) 0.1151(4)
C1A C 1.0798(5) 0.1002(5) 0.1816(5)
H1A H 1.0433 0.1417 0.1607
C2A C 1.0524(5) 0.0075(5) 0.1277(5)
H2A H 0.9977 -0.0133 0.0711
C3A C 1.1067(6) -0.0553(5) 0.1580(6)
H3A H 1.0886 -0.1183 0.1223
C4A C 1.1866(5) -0.0229(5) 0.2407(6)
H4A H 1.2244 -0.0636 0.2619
C5A C 1.2116(5) 0.0718(4) 0.2936(5)
C6A C 1.2954(4) 0.1131(4) 0.3872(4)
C7A C 1.3623(5) 0.0628(5) 0.4265(6)
H5A H 1.3596 0.0002 0.3928
C8A C 1.4321(6) 0.1072(6) 0.5157(6)
H6A H 1.4751 0.0737 0.5440
C9A C 1.4397(6) 0.2005(6) 0.5641(5)
H7A H 1.4871 0.2310 0.6247
C10A C 1.3735(5) 0.2473(5) 0.5183(4)
H8A H 1.3792 0.3109 0.5485
C11A C 1.0294(5) 0.1971(5) 0.4119(5)
H9A H 1.0279 0.1410 0.3642
C12A C 0.9630(6) 0.2025(7) 0.4609(7)
H10A H 0.9174 0.1511 0.4465
C13A C 0.9649(7) 0.2848(8) 0.5316(7)
H11A H 0.9199 0.2900 0.5652
C14A C 1.0339(6) 0.3598(6) 0.5527(6)
H12A H 1.0367 0.4159 0.6012
C15A C 1.0990(5) 0.3501(4) 0.5001(5)
C16A C 1.1754(5) 0.4241(4) 0.5156(4)
C17A C 1.1837(7) 0.5138(5) 0.5817(5)
H13A H 1.1361 0.5308 0.6121
C18A C 1.2668(9) 0.5765(5) 0.5997(6)
H14A H 1.2754 0.6368 0.6431
C19A C 1.3362(7) 0.5492(6) 0.5531(6)
H15A H 1.3933 0.5897 0.5669
C20A C 1.3193(6) 0.4627(5) 0.4875(5)
H16A H 1.3650 0.4455 0.4549
C21A C 1.7049(5) 0.8607(5) 0.3211(6)
H17A H 1.6758 0.8073 0.2669
C22A C 1.7908(6) 0.8595(6) 0.3920(7)
H18A H 1.8192 0.8058 0.3862
C23A C 1.8341(6) 0.9410(6) 0.4726(6)
H19A H 1.8928 0.9426 0.5205
C24A C 1.7884(5) 1.0185(5) 0.4799(5)
H20A H 1.8155 1.0730 0.5332
C25A C 1.7016(4) 1.0141(4) 0.4068(4)
C26A C 1.6478(4) 1.0949(4) 0.4124(4)
C27A C 1.6759(5) 1.1780(5) 0.4882(5)
H21A H 1.7332 1.1869 0.5405
C28A C 1.6200(6) 1.2486(5) 0.4878(5)
H22A H 1.6383 1.3047 0.5397
C29A C 1.5365(5) 1.2340(4) 0.4088(5)
H23A H 1.4984 1.2810 0.4056
C30A C 1.5103(4) 1.1500(4) 0.3353(4)
H24A H 1.4525 1.1404 0.2832
C31A C 1.7523(5) 1.0251(6) 0.2103(6)
H25A H 1.7800 0.9850 0.2393
C32A C 1.8167(7) 1.0817(8) 0.1954(7)
H26A H 1.8854 1.0785 0.2120
C33A C 1.7776(6) 1.1418(8) 0.1561(7)
H27A H 1.8197 1.1828 0.1479
C34A C 1.6728(7) 1.1420(6) 0.1275(6)
H28A H 1.6447 1.1825 0.0994
C35A C 1.6117(5) 1.0810(4) 0.1419(5)
C36A C 1.5018(5) 1.0731(4) 0.1131(4)
C37A C 1.4485(6) 1.1304(5) 0.0715(6)
H29A H 1.4821 1.1759 0.0615
C38A C 1.3429(7) 1.1173(6) 0.0453(6)
H30A H 1.3057 1.1553 0.0189
C39A C 1.2955(6) 1.0495(6) 0.0586(6)
H31A H 1.2255 1.0390 0.0395
C40A C 1.3527(5) 0.9955(5) 0.1010(5)
H32A H 1.3199 0.9502 0.1119
O35 O 0.5896(4) 0.3428(4) 0.1493(4)
O36 O 0.4847(4) 0.5411(4) 0.2637(4)
O37 O 0.9787(7) 0.9603(7) 0.3194(8)
loop_
_geom_bond_atom_site_label_1
_geom_bond_atom_site_label_2
_geom_bond_site_symmetry_1
_geom_bond_site_symmetry_2
Mo1 O4 1_555 1_555
Mo2 O1 1_555 1_555
Mo3 O4 1_555 1_555
Mo4 O1 1_555 1_555
Mo5 O5 1_555 1_555
Mo6 O5 1_555 1_555
Ni1 O1 1_555 1_555
Ni2 O15 1_555 1_555
Ni3 N1 1_555 1_555
Ni4 N5 1_555 1_555
P1 O10 1_555 1_555
P2 O12 1_555 1_555
P3 O17 1_555 1_555
P4 O11 1_555 1_555
N1 C1 1_555 1_555
N2 Ni3 1_555 1_555
N3 Ni3 1_555 1_555
N4 Ni3 1_555 1_555
N5 C21 1_555 1_555
N6 Ni4 1_555 1_555
N7 Ni4 1_555 1_555
N8 Ni4 1_555 1_555
O2 Mo2 1_555 1_555
O3 Mo2 1_555 1_555
O6 Mo5 1_555 1_555
O7 Mo1 1_555 1_555
O8 Mo3 1_555 1_555
O9 Mo1 1_555 1_555
O10 Mo3 1_555 1_555
O11 Mo5A 1_555 1_555
O12 Mo2 1_555 1_555
O13 Mo1 1_555 1_555
O14 Mo5 1_555 1_555
O15 P1 1_555 1_555
O16 Mo4 1_555 1_555
O17 Mo1 1_555 1_555
O18 Mo5 1_555 1_555
O19 Mo4 1_555 1_555
O20 P2 1_555 1_555
O21 Mo2 1_555 1_555
O22 Mo6 1_555 1_555
O23 Mo1 1_555 1_555
O24 Mo4 1_555 1_555
O25 P2 1_555 1_555
O26 Ni3 1_555 1_555
O27 Mo6 1_555 1_555
O28 P3 1_555 1_555
O29 Ni2 1_555 1_555
O30 Ni4 1_555 1_555
O31 P4 1_555 1_555
O32 Ni2 1_555 1_555
O33 Ni3 1_555 1_555
O34 Ni4 1_555 1_555
C1 H1 1_555 1_555
C2 C1 1_555 1_555
H2 C2 1_555 1_555
C3 C2 1_555 1_555
H3 C3 1_555 1_555
C4 C3 1_555 1_555
H4 C4 1_555 1_555
C5 N1 1_555 1_555
C6 N2 1_555 1_555
C7 C6 1_555 1_555
H5 C7 1_555 1_555
C8 C7 1_555 1_555
H6 C8 1_555 1_555
C9 C8 1_555 1_555
H7 C9 1_555 1_555
C10 N2 1_555 1_555
H8 C10 1_555 1_555
C11 N3 1_555 1_555
H9 C11 1_555 1_555
C12 C11 1_555 1_555
H10 C12 1_555 1_555
C13 C12 1_555 1_555
H11 C13 1_555 1_555
C14 C13 1_555 1_555
H12 C14 1_555 1_555
C15 N3 1_555 1_555
C16 N4 1_555 1_555
C17 C16 1_555 1_555
H13 C17 1_555 1_555
C18 C17 1_555 1_555
H14 C18 1_555 1_555
C19 C18 1_555 1_555
H15 C19 1_555 1_555
C20 N4 1_555 1_555
H16 C20 1_555 1_555
C21 H17 1_555 1_555
C22 C21 1_555 1_555
H18 C22 1_555 1_555
C23 C22 1_555 1_555
H19 C23 1_555 1_555
C24 C23 1_555 1_555
H20 C24 1_555 1_555
C25 N5 1_555 1_555
C26 N6 1_555 1_555
C27 C26 1_555 1_555
H21 C27 1_555 1_555
C28 C27 1_555 1_555
H22 C28 1_555 1_555
C29 C28 1_555 1_555
H23 C29 1_555 1_555
C30 N6 1_555 1_555
H24 C30 1_555 1_555
C31 N7 1_555 1_555
H25 C31 1_555 1_555
C32 C31 1_555 1_555
H26 C32 1_555 1_555
C33 C32 1_555 1_555
H27 C33 1_555 1_555
C34 C33 1_555 1_555
H28 C34 1_555 1_555
C35 N7 1_555 1_555
C36 N8 1_555 1_555
C37 C36 1_555 1_555
H29 C37 1_555 1_555
C38 C37 1_555 1_555
H30 C38 1_555 1_555
C39 C38 1_555 1_555
H31 C39 1_555 1_555
C40 N8 1_555 1_555
H32 C40 1_555 1_555
Mo1A O4A 1_555 1_555
Mo2A O10 1_555 1_555
Mo3A O3 1_555 1_555
Mo4A O18 1_555 1_555
Mo5A O19 1_555 1_555
Mo6A O5A 1_555 1_555
Ni2_2 O15A 1_555 1_555
Ni3A N1A 1_555 1_555
Ni4A N5A 1_555 1_555
P1A O10A 1_555 1_555
P2A O12A 1_555 1_555
P3A O17A 1_555 1_555
P4A O11A 1_555 1_555
N1A C1A 1_555 1_555
N2A Ni3A 1_555 1_555
N3A Ni3A 1_555 1_555
N4A Ni3A 1_555 1_555
N5A C21A 1_555 1_555
N6A Ni4A 1_555 1_555
N7A Ni4A 1_555 1_555
N8A Ni4A 1_555 1_555
O1A Ni1 1_555 1_555
O2A Mo2A 1_555 1_555
O3A Mo3 1_555 1_555
O4A Mo3A 1_555 1_555
O5A Mo5A 1_555 1_555
O6A Ni1 1_555 1_555
O7A Ni1 1_555 1_555
O8A Mo3A 1_555 1_555
O9A Mo1A 1_555 1_555
O10A Mo2 1_555 1_555
O11A Mo5 1_555 1_555
O12A Mo2A 1_555 1_555
O13A Mo1A 1_555 1_555
O14A Mo5A 1_555 1_555
O15A P1A 1_555 1_555
O15A_2 Ni2 1_555 1_555
O16A Mo4A 1_555 1_555
O17A Mo1A 1_555 1_555
O18A Mo4 1_555 1_555
O19A Mo5 1_555 1_555
O20A Mo3 1_555 1_555
O21A Mo2A 1_555 1_555
O22A Mo6A 1_555 1_555
O23A Mo1A 1_555 1_555
O24A Mo4A 1_555 1_555
O25A P2A 1_555 1_555
O26A Ni3A 1_555 1_555
O27A Mo6A 1_555 1_555
O28A P3A 1_555 1_555
O29A Ni2_2 1_555 1_555
O29A_2 Ni2 1_555 1_555
O30A Ni4A 1_555 1_555
O31A P4A 1_555 1_555
O32A Ni2 1_555 1_555
O33A Ni3A 1_555 1_555
O34A Ni4A 1_555 1_555
C1A H1A 1_555 1_555
C2A C1A 1_555 1_555
H2A C2A 1_555 1_555
C3A C2A 1_555 1_555
H3A C3A 1_555 1_555
C4A C3A 1_555 1_555
H4A C4A 1_555 1_555
C5A N1A 1_555 1_555
C6A N2A 1_555 1_555
C7A C6A 1_555 1_555
H5A C7A 1_555 1_555
C8A C7A 1_555 1_555
H6A C8A 1_555 1_555
C9A C8A 1_555 1_555
H7A C9A 1_555 1_555
C10A N2A 1_555 1_555
H8A C10A 1_555 1_555
C11A N3A 1_555 1_555
H9A C11A 1_555 1_555
C12A C11A 1_555 1_555
H10A C12A 1_555 1_555
C13A C12A 1_555 1_555
H11A C13A 1_555 1_555
C14A C13A 1_555 1_555
H12A C14A 1_555 1_555
C15A N3A 1_555 1_555
C16A N4A 1_555 1_555
C17A C16A 1_555 1_555
H13A C17A 1_555 1_555
C18A C17A 1_555 1_555
H14A C18A 1_555 1_555
C19A C18A 1_555 1_555
H15A C19A 1_555 1_555
C20A N4A 1_555 1_555
H16A C20A 1_555 1_555
C21A H17A 1_555 1_555
C22A C21A 1_555 1_555
H18A C22A 1_555 1_555
C23A C22A 1_555 1_555
H19A C23A 1_555 1_555
C24A C23A 1_555 1_555
H20A C24A 1_555 1_555
C25A N5A 1_555 1_555
C26A N6A 1_555 1_555
C27A C26A 1_555 1_555
H21A C27A 1_555 1_555
C28A C27A 1_555 1_555
H22A C28A 1_555 1_555
C29A C28A 1_555 1_555
H23A C29A 1_555 1_555
C30A N6A 1_555 1_555
H24A C30A 1_555 1_555
C31A N7A 1_555 1_555
H25A C31A 1_555 1_555
C32A C31A 1_555 1_555
H26A C32A 1_555 1_555
C33A C32A 1_555 1_555
H27A C33A 1_555 1_555
C34A C33A 1_555 1_555
H28A C34A 1_555 1_555
C35A N7A 1_555 1_555
C36A N8A 1_555 1_555
C37A C36A 1_555 1_555
H29A C37A 1_555 1_555
C38A C37A 1_555 1_555
H30A C38A 1_555 1_555
C39A C38A 1_555 1_555
H31A C39A 1_555 1_555
C40A N8A 1_555 1_555
H32A C40A 1_555 1_555
Mo3 O7 1_555 1_555
Mo4 O2 1_555 1_555
Mo6 O6 1_555 1_555
Mo6 O9 1_555 1_555
Mo6 O13 1_555 1_555
Ni1 O6 1_555 1_555
Ni1 O7 1_555 1_555
P1 O13 1_555 1_555
P1 O18 1_555 1_555
P2 O30 1_555 1_555
P3 O22 1_555 1_555
P3 O29 1_555 1_555
P4 O16 1_555 1_555
P4 O26 1_555 1_555
O20 Mo3A 1_555 1_555
C4 C5 1_555 1_555
C5 C6 1_555 1_555
C9 C10 1_555 1_555
C14 C15 1_555 1_555
C15 C16 1_555 1_555
C19 C20 1_555 1_555
C24 C25 1_555 1_555
C25 C26 1_555 1_555
C29 C30 1_555 1_555
C34 C35 1_555 1_555
C35 C36 1_555 1_555
C39 C40 1_555 1_555
Mo1A O7A 1_555 1_555
Mo2A O1A 1_555 1_555
Mo2A O3A 1_555 1_555
Mo3A O7A 1_555 1_555
Mo3A O10A 1_555 1_555
Mo4A O1A 1_555 1_555
Mo4A O2A 1_555 1_555
Mo4A O19A 1_555 1_555
Mo5A O6A 1_555 1_555
Mo5A O18A 1_555 1_555
Mo6A O6A 1_555 1_555
Mo6A O9A 1_555 1_555
Mo6A O13A 1_555 1_555
P1A O13A 1_555 1_555
P1A O18A 1_555 1_555
P2A O20A 1_555 1_555
P2A O30A 1_555 1_555
P3A O22A 1_555 1_555
P3A O29A 1_555 1_555
P4A O16A 1_555 1_555
P4A O26A 1_555 1_555
C4A C5A 1_555 1_555
C5A C6A 1_555 1_555
C9A C10A 1_555 1_555
C14A C15A 1_555 1_555
C15A C16A 1_555 1_555
C19A C20A 1_555 1_555
C24A C25A 1_555 1_555
C25A C26A 1_555 1_555
C29A C30A 1_555 1_555
C34A C35A 1_555 1_555
C35A C36A 1_555 1_555
C39A C40A 1_555 1_555

#END
