
#######################################################################
#
#                 Cambridge Crystallographic Data Centre
#                                CCDC 
#
#######################################################################
#
# If this CIF has been generated from an entry in the Cambridge 
# Structural Database, then it will include bibliographic, chemical, 
# crystal, experimental, refinement or atomic coordinate data resulting 
# from the CCDC's data processing and validation procedures.
#
#######################################################################

data_KUFVAK
_symmetry_cell_setting           monoclinic
_symmetry_space_group_name_H-M   'P 21/c'
_symmetry_Int_Tables_number      14
_space_group_name_Hall           '-P 2ybc'
loop_
_symmetry_equiv_pos_site_id
_symmetry_equiv_pos_as_xyz
1 x,y,z
2 -x,1/2+y,1/2-z
3 -x,-y,-z
4 x,1/2-y,1/2+z
_cell_length_a                   14.460(3)
_cell_length_b                   13.063(3)
_cell_length_c                   22.054(4)
_cell_angle_alpha                90
_cell_angle_beta                 125.160(10)
_cell_angle_gamma                90
_cell_volume                     3405.74
loop_
_atom_site_label
_atom_site_type_symbol
_atom_site_fract_x
_atom_site_fract_y
_atom_site_fract_z
Mn1 Mn 0.22733(5) -0.44228(5) -0.27293(3)
Mn2 Mn 0.29507(5) -0.27085(5) -0.13121(3)
O1 O 0.2368(3) -0.4109(3) -0.11455(18)
O2 O 0.4446(3) -0.2956(3) -0.0165(2)
H1 H 0.4247 -0.3054 0.0143
H2 H 0.4906 -0.2421 -0.0001
O3 O 0.1552(3) -0.4979(3) -0.22070(18)
O4 O -0.1467(3) -0.7406(3) -0.25856(18)
O5 O -0.0971(3) -0.8400(3) -0.16240(17)
O6 O 0.2030(3) -0.9431(3) 0.14976(19)
O7 O 0.3569(3) -0.9182(3) 0.26108(19)
O8 O 0.6441(3) -0.6565(3) 0.28180(17)
O9 O 0.6287(2) -0.6379(2) 0.17728(16)
O10 O 0.2105(4) -0.1813(4) -0.0937(2)
O11 O 0.3735(4) -0.1366(3) -0.1390(3)
N1 N 0.1356(5) -0.1410(5) -0.0319(3)
N2 N 0.4851(7) -0.0101(5) -0.1314(6)
C1 C 0.1834(4) -0.4859(4) -0.1557(2)
C2 C 0.1513(4) -0.5710(3) -0.1252(2)
C3 C 0.2241(4) -0.5976(4) -0.0510(2)
H3 H 0.2883 -0.5582 -0.0197
C4 C 0.2027(4) -0.6825(4) -0.0221(2)
C5 C 0.1017(4) -0.7355(3) -0.0701(2)
H4 H 0.0848 -0.7918 -0.0523
C6 C 0.0256(3) -0.7063(3) -0.1440(2)
C7 C -0.0818(4) -0.7666(3) -0.1926(2)
C8 C 0.0519(4) -0.6261(3) -0.1721(2)
H5 H 0.0036 -0.6089 -0.2220
C9 C 0.2843(4) -0.7162(3) 0.0554(2)
C10 C 0.3962(4) -0.6816(3) 0.0972(2)
H6 H 0.4203 -0.6388 0.0752
C11 C 0.4722(3) -0.7099(3) 0.1708(2)
C12 C 0.5884(3) -0.6675(3) 0.2132(2)
C13 C 0.4385(4) -0.7752(3) 0.2042(2)
H7 H 0.4884 -0.7921 0.2541
C14 C 0.3292(4) -0.8157(3) 0.1623(2)
C15 C 0.2951(4) -0.8962(4) 0.1939(3)
C16 C 0.2538(4) -0.7844(4) 0.0896(3)
H8 H 0.1803 -0.8098 0.0626
C17 C 0.4425(12) -0.0832(7) -0.1166(10)
H9 H 0.4908 -0.0954 -0.0659
C18 C 0.5836(15) 0.0450(13) -0.0818(12)
H10 H 0.6411 0.0266 -0.0888
H11 H 0.6092 0.0292 -0.0319
H12 H 0.5683 0.1169 -0.0906
C19 C 0.4286(12) 0.0233(12) -0.2052(8)
H13 H 0.4678 -0.0013 -0.2256
H14 H 0.4267 0.0967 -0.2066
H15 H 0.3527 -0.0028 -0.2338
C20 C 0.1944(6) -0.1989(6) -0.0485(4)
H16 H 0.2255 -0.2590 -0.0215
C21 C 0.1328(15) -0.1653(12) 0.0314(8)
H17 H 0.0641 -0.2011 0.0147
H18 H 0.1361 -0.1031 0.0558
H19 H 0.1965 -0.2076 0.0655
C22 C 0.0731(11) -0.0541(9) -0.0769(7)
H20 H 0.0950 0.0056 -0.0461
H21 H -0.0064 -0.0661 -0.1015
H22 H 0.0889 -0.0436 -0.1132
Mn1A Mn -0.22733(5) -0.94228(5) -0.22707(3)
Mn1B Mn 0.77267(5) -0.55772(5) 0.27293(3)
Mn1C Mn 0.22733(5) -1.05772(5) 0.22707(3)
Mn2A Mn -0.29507(5) -0.77085(5) -0.36879(3)
Mn2B Mn 0.70493(5) -0.72915(5) 0.13121(3)
O4A O 0.1467(3) -0.2406(3) -0.24144(18)
O5A O 0.0971(3) -0.3400(3) -0.33760(17)
O6C O 0.2030(3) -0.5569(3) -0.35024(19)
O7C O 0.3569(3) -0.5818(3) -0.23892(19)
O8B O 0.3559(3) -0.3435(3) -0.28180(17)
O9B O 0.3713(2) -0.3621(2) -0.17728(16)
O12 O 0.5298(13) -0.5767(11) -0.0862(5)
H23 H 0.4998 -0.5283 -0.0774
H24 H 0.4784 -0.6103 -0.1238
O13 O -0.3666(5) -0.3191(5) -0.4233(3)
N3 N -0.2051(5) -0.3284(5) -0.3070(3)
C23 C -0.1295(9) -0.2757(8) -0.2346(5)
H25 H -0.1458 -0.2037 -0.2407
H26 H -0.0521 -0.2863 -0.2170
H27 H -0.1416 -0.3030 -0.1993
C24 C -0.1692(9) -0.4261(8) -0.3171(7)
H28 H -0.2201 -0.4474 -0.3678
H29 H -0.1695 -0.4760 -0.2852
H30 H -0.0942 -0.4201 -0.3049
C25 C -0.2985(7) -0.2825(6) -0.3606(5)
H31 H -0.3144 -0.2182 -0.3506
loop_
_geom_bond_atom_site_label_1
_geom_bond_atom_site_label_2
_geom_bond_site_symmetry_1
_geom_bond_site_symmetry_2
Mn1 O3 1_555 1_555
Mn2 O1 1_555 1_555
O1 C1 1_555 1_555
O2 Mn2 1_555 1_555
H1 O2 1_555 1_555
H2 O2 1_555 1_555
O3 C1 1_555 1_555
O4 C7 1_555 1_555
O5 C7 1_555 1_555
O6 C15 1_555 1_555
O7 C15 1_555 1_555
O8 C12 1_555 1_555
O9 C12 1_555 1_555
O10 Mn2 1_555 1_555
O11 Mn2 1_555 1_555
N1 C20 1_555 1_555
N2 C17 1_555 1_555
C1 C2 1_555 1_555
C2 C3 1_555 1_555
C3 H3 1_555 1_555
C4 C3 1_555 1_555
C5 C4 1_555 1_555
H4 C5 1_555 1_555
C6 C5 1_555 1_555
C7 C6 1_555 1_555
C8 C2 1_555 1_555
H5 C8 1_555 1_555
C9 C4 1_555 1_555
C10 C9 1_555 1_555
H6 C10 1_555 1_555
C11 C10 1_555 1_555
C12 C11 1_555 1_555
C13 C11 1_555 1_555
H7 C13 1_555 1_555
C14 C13 1_555 1_555
C15 C14 1_555 1_555
C16 C9 1_555 1_555
H8 C16 1_555 1_555
C17 O11 1_555 1_555
H9 C17 1_555 1_555
C18 N2 1_555 1_555
H10 C18 1_555 1_555
H11 C18 1_555 1_555
H12 C18 1_555 1_555
C19 N2 1_555 1_555
H13 C19 1_555 1_555
H14 C19 1_555 1_555
H15 C19 1_555 1_555
C20 O10 1_555 1_555
H16 C20 1_555 1_555
C21 N1 1_555 1_555
H17 C21 1_555 1_555
H18 C21 1_555 1_555
H19 C21 1_555 1_555
C22 N1 1_555 1_555
H20 C22 1_555 1_555
H21 C22 1_555 1_555
H22 C22 1_555 1_555
O12 H23 1_555 1_555
H24 O12 1_555 1_555
O13 C25 1_555 1_555
N3 C23 1_555 1_555
C23 H25 1_555 1_555
H26 C23 1_555 1_555
H27 C23 1_555 1_555
C24 N3 1_555 1_555
H28 C24 1_555 1_555
H29 C24 1_555 1_555
H30 C24 1_555 1_555
C25 N3 1_555 1_555
H31 C25 1_555 1_555
Mn1A O5 1_555 1_555
Mn1B O8 1_555 1_555
Mn1C O6 1_555 1_555
Mn2A O4 1_555 1_555
Mn2B O9 1_555 1_555
O4A Mn2 1_555 1_555
O5A Mn1 1_555 1_555
O6C Mn1 1_555 1_555
O7C Mn1 1_555 1_555
O8B Mn1 1_555 1_555
O9B Mn1 1_555 1_555
Mn2 O9B 1_555 1_555
O7 Mn1C 1_555 1_555
O9 Mn1B 1_555 1_555
C6 C8 1_555 1_555
C14 C16 1_555 1_555

#END
