
#######################################################################
#
#                 Cambridge Crystallographic Data Centre
#                                CCDC 
#
#######################################################################
#
# If this CIF has been generated from an entry in the Cambridge 
# Structural Database, then it will include bibliographic, chemical, 
# crystal, experimental, refinement or atomic coordinate data resulting 
# from the CCDC's data processing and validation procedures.
#
#######################################################################

data_KUFVIS
_symmetry_cell_setting           monoclinic
_symmetry_space_group_name_H-M   'P 21/c'
_symmetry_Int_Tables_number      14
_space_group_name_Hall           '-P 2ybc'
loop_
_symmetry_equiv_pos_site_id
_symmetry_equiv_pos_as_xyz
1 x,y,z
2 -x,1/2+y,1/2-z
3 -x,-y,-z
4 x,1/2-y,1/2+z
_cell_length_a                   13.153(3)
_cell_length_b                   13.986(4)
_cell_length_c                   21.683(4)
_cell_angle_alpha                90
_cell_angle_beta                 121.056(11)
_cell_angle_gamma                90
_cell_volume                     3417.02
loop_
_atom_site_label
_atom_site_type_symbol
_atom_site_fract_x
_atom_site_fract_y
_atom_site_fract_z
Mn1 Mn 0.72526(7) -0.45429(6) -0.27474(4)
Mn2 Mn 0.77625(9) -0.29606(7) -0.13960(5)
O1 O 0.5907(4) -0.3567(3) -0.3386(2)
O2 O 0.6365(4) -0.2629(4) -0.2450(2)
O3 O 0.3596(4) 0.0023(4) -0.2800(2)
O4 O 0.2681(4) 0.0713(3) -0.3880(2)
O5 O 0.3068(5) -0.4412(4) -0.6437(2)
O6 O 0.1564(4) -0.4130(4) -0.7517(2)
O7 O -0.1224(4) -0.1328(4) -0.7788(2)
O8 O -0.1284(4) -0.1182(3) -0.6799(2)
O9 O 0.6846(8) -0.2217(7) -0.0949(5)
N1 N 0.9385(6) -0.2798(5) -0.0287(3)
N2 N 0.8703(6) -0.1602(4) -0.1419(4)
N3 N 0.6337(10) -0.1328(10) -0.0305(8)
C1 C 0.5732(6) -0.2863(5) -0.3105(3)
C2 C 0.4705(5) -0.2221(4) -0.3579(3)
C3 C 0.4463(5) -0.1423(4) -0.3302(3)
H1 H 0.4918 -0.1293 -0.2812
C4 C 0.3538(5) -0.0812(4) -0.3756(3)
C5 C 0.3249(5) 0.0039(5) -0.3456(3)
C6 C 0.2868(5) -0.1018(5) -0.4493(3)
H2 H 0.2286 -0.0588 -0.4801
C7 C 0.3047(5) -0.1838(4) -0.4774(3)
C8 C 0.4000(5) -0.2439(5) -0.4302(3)
H3 H 0.4154 -0.2990 -0.4481
C9 C 0.2270(5) -0.2106(4) -0.5552(3)
C10 C 0.2578(5) -0.2825(4) -0.5864(3)
H4 H 0.3297 -0.3141 -0.5585
C11 C 0.1849(5) -0.3089(4) -0.6580(3)
C12 C 0.2170(6) -0.3906(4) -0.6875(3)
C13 C 0.0772(5) -0.2602(5) -0.7006(3)
H5 H 0.0297 -0.2744 -0.7493
C14 C 0.0427(5) -0.1919(4) -0.6702(3)
C15 C -0.0765(5) -0.1451(4) -0.7134(3)
C16 C 0.1159(5) -0.1662(4) -0.5978(3)
H6 H 0.0909 -0.1197 -0.5778
C17 C 0.8383(10) -0.1076(6) -0.2001(6)
H7 H 0.7704 -0.1227 -0.2436
C18 C 0.9111(17) -0.0259(10) -0.1948(11)
H8 H 0.8903 0.0102 -0.2357
C19 C 1.0039(14) -0.0027(10) -0.1342(11)
H9 H 1.0490 0.0499 -0.1318
C20 C 1.0363(11) -0.0552(8) -0.0733(9)
C21 C 1.1361(14) -0.0336(12) -0.0060(11)
H10 H 1.1819 0.0195 -0.0015
C22 C 1.1683(11) -0.0902(14) 0.0546(9)
H11 H 1.2328 -0.0723 0.0989
C23 C 1.1031(9) -0.1762(9) 0.0497(6)
C24 C 1.1339(11) -0.2273(14) 0.1043(7)
H12 H 1.1974 -0.2092 0.1490
C25 C 1.0681(12) -0.3164(13) 0.0967(6)
H13 H 1.0902 -0.3566 0.1358
C26 C 0.9670(9) -0.3391(9) 0.0256(5)
H14 H 0.9232 -0.3945 0.0184
C27 C 1.0016(7) -0.1982(7) -0.0191(5)
C28 C 0.9677(8) -0.1358(6) -0.0817(5)
C29 C 0.6400(13) -0.1609(12) -0.0816(9)
H15 H 0.5959 -0.1219 -0.1215
C30 C 0.6832(13) -0.1823(12) 0.0383(9)
C31 C 0.5828(13) -0.0480(10) -0.0229(9)
H16 H 0.6156 0.0062 -0.0338
H17 H 0.5997 -0.0430 0.0257
H18 H 0.4984 -0.0495 -0.0554
Mn1A Mn 0.27474(7) 0.04571(6) -0.22526(4)
Mn1B Mn 0.27474(7) -0.54571(6) -0.72526(4)
Mn1C Mn -0.27474(7) -0.04571(6) -0.77474(4)
Mn2A Mn 0.22375(9) 0.20394(7) -0.36040(5)
Mn2C Mn -0.22375(9) -0.20394(7) -0.63960(5)
O3A O 0.6404(4) -0.4977(4) -0.2200(2)
O4A O 0.7319(4) -0.4287(3) -0.1120(2)
O5B O 0.6932(5) -0.5588(4) -0.3563(2)
O6B O 0.8436(4) -0.5870(4) -0.2483(2)
O7C O 0.8776(4) -0.3672(4) -0.2788(2)
O8C O 0.8716(4) -0.3818(3) -0.1799(2)
loop_
_geom_bond_atom_site_label_1
_geom_bond_atom_site_label_2
_geom_bond_site_symmetry_1
_geom_bond_site_symmetry_2
Mn1 O1 1_555 1_555
Mn2 O2 1_555 1_555
O1 C1 1_555 1_555
O2 C1 1_555 1_555
O3 C5 1_555 1_555
O4 C5 1_555 1_555
O5 C12 1_555 1_555
O6 C12 1_555 1_555
O7 C15 1_555 1_555
O8 C15 1_555 1_555
O9 Mn2 1_555 1_555
N1 Mn2 1_555 1_555
N2 Mn2 1_555 1_555
N3 C29 1_555 1_555
C1 C2 1_555 1_555
C2 C3 1_555 1_555
C3 H1 1_555 1_555
C4 C3 1_555 1_555
C5 C4 1_555 1_555
C6 C4 1_555 1_555
H2 C6 1_555 1_555
C7 C6 1_555 1_555
C8 C2 1_555 1_555
H3 C8 1_555 1_555
C9 C7 1_555 1_555
C10 C9 1_555 1_555
H4 C10 1_555 1_555
C11 C10 1_555 1_555
C12 C11 1_555 1_555
C13 C11 1_555 1_555
H5 C13 1_555 1_555
C14 C13 1_555 1_555
C15 C14 1_555 1_555
C16 C9 1_555 1_555
H6 C16 1_555 1_555
C17 N2 1_555 1_555
H7 C17 1_555 1_555
C18 C17 1_555 1_555
H8 C18 1_555 1_555
C19 C18 1_555 1_555
H9 C19 1_555 1_555
C20 C19 1_555 1_555
C21 C20 1_555 1_555
H10 C21 1_555 1_555
C22 C21 1_555 1_555
H11 C22 1_555 1_555
C23 C22 1_555 1_555
C24 C23 1_555 1_555
H12 C24 1_555 1_555
C25 C24 1_555 1_555
H13 C25 1_555 1_555
C26 N1 1_555 1_555
H14 C26 1_555 1_555
C27 N1 1_555 1_555
C28 N2 1_555 1_555
C29 O9 1_555 1_555
H15 C29 1_555 1_555
C30 N3 1_555 1_555
C31 N3 1_555 1_555
H16 C31 1_555 1_555
H17 C31 1_555 1_555
H18 C31 1_555 1_555
Mn1A O3 1_555 1_555
Mn1B O5 1_555 1_555
Mn1C O7 1_555 1_555
Mn2A O4 1_555 1_555
Mn2C O8 1_555 1_555
O3A Mn1 1_555 1_555
O4A Mn2 1_555 1_555
O5B Mn1 1_555 1_555
O6B Mn1 1_555 1_555
O7C Mn1 1_555 1_555
O8C Mn1 1_555 1_555
Mn2 O8C 1_555 1_555
O6 Mn1B 1_555 1_555
O8 Mn1C 1_555 1_555
C7 C8 1_555 1_555
C14 C16 1_555 1_555
C20 C28 1_555 1_555
C23 C27 1_555 1_555
C25 C26 1_555 1_555
C27 C28 1_555 1_555

#END
