
#######################################################################
#
#                 Cambridge Crystallographic Data Centre
#                                CCDC 
#
#######################################################################
#
# If this CIF has been generated from an entry in the Cambridge 
# Structural Database, then it will include bibliographic, chemical, 
# crystal, experimental, refinement or atomic coordinate data resulting 
# from the CCDC's data processing and validation procedures.
#
#######################################################################

data_KUFVEO
_symmetry_cell_setting           monoclinic
_symmetry_space_group_name_H-M   'P 21/n'
_symmetry_Int_Tables_number      14
_space_group_name_Hall           '-P 2yn'
loop_
_symmetry_equiv_pos_site_id
_symmetry_equiv_pos_as_xyz
1 x,y,z
2 1/2-x,1/2+y,1/2-z
3 -x,-y,-z
4 1/2+x,1/2-y,1/2+z
_cell_length_a                   13.288(2)
_cell_length_b                   13.919(2)
_cell_length_c                   18.477(3)
_cell_angle_alpha                90
_cell_angle_beta                 96.318(3)
_cell_angle_gamma                90
_cell_volume                     3396.67
loop_
_atom_site_label
_atom_site_type_symbol
_atom_site_fract_x
_atom_site_fract_y
_atom_site_fract_z
Mn1 Mn 0.98705(5) 0.05414(4) 0.22259(3)
Mn2 Mn 1.06664(5) 0.20730(4) 0.36906(3)
C1 C 1.1655(3) 0.0103(3) 0.3382(2)
C2 C 1.2328(3) -0.0711(3) 0.3671(2)
C3 C 1.2854(3) -0.1257(3) 0.3211(2)
H1 H 1.2814 -0.1107 0.2718
C4 C 1.3435(3) -0.2021(3) 0.3483(2)
C5 C 1.3459(3) -0.2262(3) 0.4216(2)
H2 H 1.3843 -0.2786 0.4394
C6 C 1.2922(3) -0.1734(3) 0.4691(2)
C7 C 1.2385(3) -0.0940(3) 0.4403(2)
H3 H 1.2055 -0.0551 0.4712
C8 C 1.4032(4) -0.2625(3) 0.3002(2)
C9 C 1.2836(3) -0.2618(3) 0.6917(2)
H4 H 1.2835 -0.2792 0.7403
C10 C 1.2231(3) -0.1888(3) 0.6633(2)
C11 C 1.2250(3) -0.1603(3) 0.5915(2)
H5 H 1.1820 -0.1117 0.5725
C12 C 1.2910(3) -0.2039(3) 0.5473(2)
C13 C 1.3478(3) -0.2800(3) 0.5759(2)
H6 H 1.3892 -0.3122 0.5465
C14 C 1.3460(3) -0.3106(3) 0.6475(2)
C15 C 1.4015(3) -0.3981(3) 0.6750(2)
C16 C 1.1492(4) -0.1439(3) 0.7086(2)
C17 C 0.9370(5) 0.4035(4) 0.3370(4)
H7 H 0.9536 0.3954 0.2898
C18 C 0.8796(5) 0.4825(5) 0.3505(5)
H8 H 0.8569 0.5249 0.3134
C19 C 0.8576(7) 0.4963(6) 0.4184(6)
H9 H 0.8213 0.5504 0.4298
C20 C 0.8882(6) 0.4315(5) 0.4706(5)
H10 H 0.8718 0.4402 0.5178
C21 C 0.9435(5) 0.3528(4) 0.4540(3)
C22 C 0.9761(5) 0.2776(4) 0.5072(3)
C23 C 0.9625(6) 0.2846(5) 0.5822(3)
H11 H 0.9331 0.3384 0.6011
C24 C 0.9955(7) 0.2068(6) 0.6262(4)
H12 H 0.9890 0.2091 0.6758
C25 C 1.0376(7) 0.1265(6) 0.5979(4)
H13 H 1.0581 0.0744 0.6274
C26 C 1.0482(5) 0.1255(5) 0.5255(3)
H14 H 1.0770 0.0715 0.5064
C27 C 1.3646(7) 0.3598(8) 0.5098(6)
H15 H 1.3520 0.2919 0.5068
H16 H 1.3454 0.3839 0.5550
H17 H 1.4354 0.3718 0.5075
C28 C 1.3329(7) 0.5065(6) 0.4319(6)
H18 H 1.3256 0.5477 0.4726
H19 H 1.2888 0.5279 0.3904
H20 H 1.4018 0.5084 0.4208
C29 C 1.2265(5) 0.3656(5) 0.4114(3)
H21 H 1.1912 0.4009 0.3741
N1 N 0.9702(3) 0.3382(3) 0.3857(2)
N2 N 1.0205(3) 0.1957(3) 0.4816(2)
N3 N 1.3063(4) 0.4075(4) 0.4501(3)
O1 O 1.1501(3) 0.0765(2) 0.38142(17)
O2 O 1.1280(3) 0.0053(2) 0.27203(16)
O3 O 1.3997(3) -0.2403(2) 0.23466(17)
O4 O 1.4519(3) -0.3314(2) 0.33007(16)
O5 O 1.4450(3) -0.4502(2) 0.63239(17)
O6 O 1.4033(3) -0.4196(2) 0.74129(17)
O7 O 1.0621(2) -0.11760(19) 0.67677(15)
O8 O 1.1706(3) -0.1332(3) 0.77530(16)
O9 O 1.1979(3) 0.2856(3) 0.4221(2)
Mn1A Mn 1.51295(5) -0.44586(4) 0.27741(3)
Mn1B Mn 1.01295(5) -0.05414(4) 0.77741(3)
Mn1C Mn 1.48705(5) -0.55414(4) 0.72259(3)
Mn2A Mn 1.43336(5) -0.29270(4) 0.13094(3)
Mn2B Mn 0.93336(5) -0.20730(4) 0.63094(3)
O3A O 1.1003(3) 0.2597(2) 0.26534(17)
O4A O 1.0481(3) 0.1686(2) 0.16993(16)
O5C O 0.9450(3) -0.0498(2) 0.13239(17)
O6C O 0.9033(3) -0.0804(2) 0.24129(17)
O7B O 0.9379(2) 0.11760(19) 0.32323(15)
O8B O 0.8294(3) 0.1332(3) 0.22470(16)
C30 C 1.4805(19) 0.0605(13) 0.3130(17)
H22 H 1.5439 0.0938 0.3148
H23 H 1.4761 0.0138 0.2745
H24 H 1.4759 0.0286 0.3586
C31 C 1.3723(11) 0.2101(13) 0.3206(13)
H25 H 1.3772 0.2137 0.3728
H26 H 1.3031 0.2192 0.3008
H27 H 1.4136 0.2593 0.3026
C32 C 1.3526(12) 0.1042(10) 0.2250(10)
H28 H 1.2948 0.1388 0.2084
N4 N 1.4045(7) 0.1234(7) 0.3006(8)
O10 O 1.3808(8) 0.0521(6) 0.1907(5)
loop_
_geom_bond_atom_site_label_1
_geom_bond_atom_site_label_2
_geom_bond_site_symmetry_1
_geom_bond_site_symmetry_2
Mn1 O2 1_555 1_555
Mn2 N1 1_555 1_555
C1 C2 1_555 1_555
C2 C3 1_555 1_555
C3 H1 1_555 1_555
C4 C3 1_555 1_555
C5 C4 1_555 1_555
H2 C5 1_555 1_555
C6 C5 1_555 1_555
C7 C2 1_555 1_555
H3 C7 1_555 1_555
C8 C4 1_555 1_555
C9 H4 1_555 1_555
C10 C9 1_555 1_555
C11 C10 1_555 1_555
H5 C11 1_555 1_555
C12 C6 1_555 1_555
C13 C12 1_555 1_555
H6 C13 1_555 1_555
C14 C9 1_555 1_555
C15 C14 1_555 1_555
C16 C10 1_555 1_555
C17 H7 1_555 1_555
C18 C17 1_555 1_555
H8 C18 1_555 1_555
C19 C18 1_555 1_555
H9 C19 1_555 1_555
C20 C19 1_555 1_555
H10 C20 1_555 1_555
C21 C20 1_555 1_555
C22 C21 1_555 1_555
C23 C22 1_555 1_555
H11 C23 1_555 1_555
C24 C23 1_555 1_555
H12 C24 1_555 1_555
C25 C24 1_555 1_555
H13 C25 1_555 1_555
C26 C25 1_555 1_555
H14 C26 1_555 1_555
C27 H15 1_555 1_555
H16 C27 1_555 1_555
H17 C27 1_555 1_555
C28 H18 1_555 1_555
H19 C28 1_555 1_555
H20 C28 1_555 1_555
C29 H21 1_555 1_555
N1 C17 1_555 1_555
N2 Mn2 1_555 1_555
N3 C27 1_555 1_555
O1 Mn2 1_555 1_555
O2 C1 1_555 1_555
O3 C8 1_555 1_555
O4 C8 1_555 1_555
O5 C15 1_555 1_555
O6 C15 1_555 1_555
O7 C16 1_555 1_555
O8 C16 1_555 1_555
O9 Mn2 1_555 1_555
C30 H22 1_555 1_555
H23 C30 1_555 1_555
H24 C30 1_555 1_555
C31 H25 1_555 1_555
H26 C31 1_555 1_555
H27 C31 1_555 1_555
C32 H28 1_555 1_555
N4 C30 1_555 1_555
O10 C32 1_555 1_555
Mn1A O4 1_555 1_555
Mn1B O7 1_555 1_555
Mn1C O5 1_555 1_555
Mn2A O3 1_555 1_555
Mn2B O7 1_555 1_555
O3A Mn2 1_555 1_555
O4A Mn1 1_555 1_555
O5C Mn1 1_555 1_555
O6C Mn1 1_555 1_555
O7B Mn1 1_555 1_555
O8B Mn1 1_555 1_555
Mn2 O7B 1_555 1_555
C1 O1 1_555 1_555
C6 C7 1_555 1_555
C11 C12 1_555 1_555
C13 C14 1_555 1_555
C21 N1 1_555 1_555
C22 N2 1_555 1_555
C26 N2 1_555 1_555
C28 N3 1_555 1_555
C29 N3 1_555 1_555
C29 O9 1_555 1_555
O6 Mn1C 1_555 1_555
O8 Mn1B 1_555 1_555
C31 N4 1_555 1_555
C32 N4 1_555 1_555

#END
