
#######################################################################
#
#                 Cambridge Crystallographic Data Centre
#                                CCDC 
#
#######################################################################
#
# If this CIF has been generated from an entry in the Cambridge 
# Structural Database, then it will include bibliographic, chemical, 
# crystal, experimental, refinement or atomic coordinate data resulting 
# from the CCDC's data processing and validation procedures.
#
#######################################################################

data_KUFZES
_symmetry_cell_setting           tetragonal
_symmetry_space_group_name_H-M   'P 4/n'
_symmetry_Int_Tables_number      85
_space_group_name_Hall           '-P 4a'
loop_
_symmetry_equiv_pos_site_id
_symmetry_equiv_pos_as_xyz
1 x,y,z
2 1/2-x,1/2-y,z
3 1/2-y,x,z
4 y,1/2-x,z
5 -x,-y,-z
6 1/2+x,1/2+y,-z
7 1/2+y,-x,-z
8 -y,1/2+x,-z
_cell_length_a                   13.8445(9)
_cell_length_b                   13.8445(9)
_cell_length_c                   6.7902(9)
_cell_angle_alpha                90
_cell_angle_beta                 90
_cell_angle_gamma                90
_cell_volume                     1301.48
loop_
_atom_site_label
_atom_site_type_symbol
_atom_site_fract_x
_atom_site_fract_y
_atom_site_fract_z
P1 P 0.7500 0.2500 0.5000
C1 C 0.8015(4) 0.1584(3) 0.6537(7)
C2 C 0.7440(5) 0.1187(4) 0.8022(8)
H11 H 0.6808 0.1431 0.8242
C3 C 0.7792(6) 0.0436(4) 0.9177(9)
H12 H 0.7395 0.0156 1.0167
C4 C 0.8712(6) 0.0099(4) 0.8884(10)
H13 H 0.8949 -0.0415 0.9675
C5 C 0.9294(5) 0.0493(4) 0.7469(10)
H14 H 0.9933 0.0257 0.7297
C6 C 0.8949(4) 0.1247(4) 0.6265(9)
H15 H 0.9352 0.1522 0.5280
C1A C 0.6985(4) 0.3416(3) 0.6537(7)
C2A C 0.7560(5) 0.3813(4) 0.8022(8)
H11A H 0.8192 0.3569 0.8242
C3A C 0.7208(6) 0.4564(4) 0.9177(9)
H12A H 0.7605 0.4844 1.0167
C4A C 0.6288(6) 0.4901(4) 0.8884(10)
H13A H 0.6051 0.5415 0.9675
C5A C 0.5706(5) 0.4507(4) 0.7469(10)
H14A H 0.5067 0.4743 0.7297
C6A C 0.6051(4) 0.3753(4) 0.6265(9)
H15A H 0.5648 0.3478 0.5280
C1F C 0.6584(3) 0.1985(4) 0.3463(7)
C2F C 0.6187(4) 0.2560(5) 0.1978(8)
H11F H 0.6431 0.3192 0.1758
C3F C 0.5436(4) 0.2208(6) 0.0823(9)
H12F H 0.5156 0.2605 -0.0167
C4F C 0.5099(4) 0.1288(6) 0.1116(10)
H13F H 0.4585 0.1051 0.0325
C5F C 0.5493(4) 0.0706(5) 0.2531(10)
H14F H 0.5257 0.0067 0.2703
C6F C 0.6247(4) 0.1051(4) 0.3735(9)
H15F H 0.6522 0.0648 0.4720
C1G C 0.8416(3) 0.3015(4) 0.3463(7)
C2G C 0.8813(4) 0.2440(5) 0.1978(8)
H11G H 0.8569 0.1808 0.1758
C3G C 0.9564(4) 0.2792(6) 0.0823(9)
H12G H 0.9844 0.2395 -0.0167
C4G C 0.9901(4) 0.3712(6) 0.1116(10)
H13G H 1.0415 0.3949 0.0325
C5G C 0.9507(4) 0.4294(5) 0.2531(10)
H14G H 0.9743 0.4933 0.2703
C6G C 0.8753(4) 0.3949(4) 0.3735(9)
H15G H 0.8478 0.4352 0.4720
B1 B 0.283(2) 0.3685(9) -0.372(3)
H1 H 0.3104 0.4444 -0.3587
B2 B 0.255(2) 0.2899(11) -0.5740(19)
H2 H 0.275(18) 0.338(9) -0.697(15)
B3 B 0.3395(13) 0.2516(13) -0.388(3)
H3 H 0.4204 0.2532 -0.3841
B4 B 0.2509(19) 0.2758(11) -0.1991(18)
H4 H 0.300(8) 0.310(7) -0.090(3)
B5 B 0.1661(17) 0.3131(11) -0.386(3)
H5 H 0.1044 0.3654 -0.3801
B6 B 0.2790(14) 0.1633(11) -0.538(3)
H6 H 0.3207 0.1224 -0.6520
B7 B 0.2762(14) 0.1533(10) -0.273(3)
H7 H 0.3157 0.1041 -0.1697
B8 B 0.1538(14) 0.1967(13) -0.271(3)
H8 H 0.0928 0.1831 -0.1664
B9 B 0.1566(14) 0.2067(13) -0.536(3)
H9 H 0.0977 0.2013 -0.6485
H10 H 0.1587 0.0177 -0.4324
Cu1 Cu 0.2500 0.2500 0.11864(19)
B10 B 0.1857(14) 0.0937(9) -0.419(3)
B1A B 0.217(2) 0.1315(9) -0.372(3)
H1A H 0.1896 0.0556 -0.3587
B2A B 0.245(2) 0.2101(11) -0.5740(19)
H2A H 0.225(18) 0.162(9) -0.697(15)
B3A B 0.1605(13) 0.2484(13) -0.388(3)
H3A H 0.0796 0.2468 -0.3841
B4A B 0.2491(19) 0.2242(11) -0.1991(18)
H4A H 0.200(8) 0.190(7) -0.090(3)
B5A B 0.3339(17) 0.1869(11) -0.386(3)
H5A H 0.3956 0.1346 -0.3801
B6A B 0.2210(14) 0.3367(11) -0.538(3)
H6A H 0.1793 0.3776 -0.6520
B7A B 0.2238(14) 0.3467(10) -0.273(3)
H7A H 0.1843 0.3959 -0.1697
B8A B 0.3462(14) 0.3033(13) -0.271(3)
H8A H 0.4072 0.3169 -0.1664
B9A B 0.3434(14) 0.2933(13) -0.536(3)
H9A H 0.4023 0.2987 -0.6485
H10A H 0.3413 0.4823 -0.4324
B10A B 0.3143(14) 0.4063(9) -0.419(3)
B1B B 0.1315(9) 0.283(2) -0.372(3)
H1B H 0.0556 0.3104 -0.3587
B2B B 0.2101(11) 0.255(2) -0.5740(19)
H2B H 0.162(9) 0.275(18) -0.697(15)
B3B B 0.2484(13) 0.3395(13) -0.388(3)
H3B H 0.2468 0.4204 -0.3841
B4B B 0.2242(11) 0.2509(19) -0.1991(18)
H4B H 0.190(7) 0.300(8) -0.090(3)
B5B B 0.1869(11) 0.1661(17) -0.386(3)
H5B H 0.1346 0.1044 -0.3801
B6B B 0.3367(11) 0.2790(14) -0.538(3)
H6B H 0.3776 0.3207 -0.6520
B7B B 0.3467(10) 0.2762(14) -0.273(3)
H7B H 0.3959 0.3157 -0.1697
B8B B 0.3033(13) 0.1538(14) -0.271(3)
H8B H 0.3169 0.0928 -0.1664
B9B B 0.2933(13) 0.1566(14) -0.536(3)
H9B H 0.2987 0.0977 -0.6485
H10B H 0.4823 0.1587 -0.4324
B10B B 0.4063(9) 0.1857(14) -0.419(3)
B1C B 0.3685(9) 0.217(2) -0.372(3)
H1C H 0.4444 0.1896 -0.3587
B2C B 0.2899(11) 0.245(2) -0.5740(19)
H2C H 0.338(9) 0.225(18) -0.697(15)
B3C B 0.2516(13) 0.1605(13) -0.388(3)
H3C H 0.2532 0.0796 -0.3841
B4C B 0.2758(11) 0.2491(19) -0.1991(18)
H4C H 0.310(7) 0.200(8) -0.090(3)
B5C B 0.3131(11) 0.3339(17) -0.386(3)
H5C H 0.3654 0.3956 -0.3801
B6C B 0.1633(11) 0.2210(14) -0.538(3)
H6C H 0.1224 0.1793 -0.6520
B7C B 0.1533(10) 0.2238(14) -0.273(3)
H7C H 0.1041 0.1843 -0.1697
B8C B 0.1967(13) 0.3462(14) -0.271(3)
H8C H 0.1831 0.4072 -0.1664
B9C B 0.2067(13) 0.3434(14) -0.536(3)
H9C H 0.2013 0.4023 -0.6485
H10C H 0.0177 0.3413 -0.4324
B10C B 0.0937(9) 0.3143(14) -0.419(3)
B2_2 B 0.255(2) 0.2899(11) 0.4260(19)
B2A_2 B 0.245(2) 0.2101(11) 0.4260(19)
B2B_2 B 0.2101(11) 0.255(2) 0.4260(19)
B2C_2 B 0.2899(11) 0.245(2) 0.4260(19)
H2_2 H 0.275(18) 0.338(9) 0.303(15)
H2A_2 H 0.225(18) 0.162(9) 0.303(15)
H2B_2 H 0.162(9) 0.275(18) 0.303(15)
H2C_2 H 0.338(9) 0.225(18) 0.303(15)
B6_2 B 0.2790(14) 0.1633(11) 0.462(3)
B6A_2 B 0.2210(14) 0.3367(11) 0.462(3)
B6B_2 B 0.3367(11) 0.2790(14) 0.462(3)
B6C_2 B 0.1633(11) 0.2210(14) 0.462(3)
B9_2 B 0.1566(14) 0.2067(13) 0.464(3)
B9A_2 B 0.3434(14) 0.2933(13) 0.464(3)
B9B_2 B 0.2933(13) 0.1566(14) 0.464(3)
B9C_2 B 0.2067(13) 0.3434(14) 0.464(3)
Cu1_2 Cu 0.2500 0.2500 -0.88136(19)
loop_
_geom_bond_atom_site_label_1
_geom_bond_atom_site_label_2
_geom_bond_site_symmetry_1
_geom_bond_site_symmetry_2
B1 H1 1_555 1_555
H1 B10A 1_555 1_555
B2 H2 1_555 1_555
H2 B6A 1_555 1_555
B3 H3 1_555 1_555
H3 B5A 1_555 1_555
B4 B3 1_555 1_555
H4 B4 1_555 1_555
B5 H5 1_555 1_555
H5 B1B 1_555 1_555
B6 H6 1_555 1_555
H6 B9B 1_555 1_555
B7 H7 1_555 1_555
H7 B8B 1_555 1_555
B8 H8 1_555 1_555
H8 B7C 1_555 1_555
B9 H9 1_555 1_555
H9 B6C 1_555 1_555
H10 B10 1_555 1_555
Cu1 B4 1_555 1_555
B10 B6 1_555 1_555
P1 C1 1_555 1_555
C1 C2 1_555 1_555
C2 H11 1_555 1_555
C3 C2 1_555 1_555
H12 C3 1_555 1_555
C4 C3 1_555 1_555
H13 C4 1_555 1_555
C5 C4 1_555 1_555
H14 C5 1_555 1_555
C6 C1 1_555 1_555
H15 C6 1_555 1_555
B1A B7 1_555 1_555
H1A B10 1_555 1_555
B2A H2A 1_555 1_555
H2A B6 1_555 1_555
B3A B4 1_555 1_555
H3A B5 1_555 1_555
B4A B3 1_555 1_555
H4A B8 1_555 1_555
B5A B3 1_555 1_555
H5A B5A 1_555 1_555
B6A H6A 1_555 1_555
H6A B9C 1_555 1_555
B7A B1 1_555 1_555
H7A B7A 1_555 1_555
B8A B1 1_555 1_555
H8A B8A 1_555 1_555
B9A B1 1_555 1_555
H9A B9A 1_555 1_555
H10A B10A 1_555 1_555
B10A B1 1_555 1_555
B1B B8 1_555 1_555
H1B B1B 1_555 1_555
B2B H2B 1_555 1_555
H2B B9 1_555 1_555
B3B B3 1_555 1_555
H3B B1 1_555 1_555
B4B B3 1_555 1_555
H4B B4 1_555 1_555
B5B B7 1_555 1_555
H5B B8 1_555 1_555
B6B H9A 1_555 1_555
H6B B9A 1_555 1_555
B7B B1 1_555 1_555
H7B B8A 1_555 1_555
B8B B10 1_555 1_555
H8B B7 1_555 1_555
B9B B10 1_555 1_555
H9B B6 1_555 1_555
H10B B10B 1_555 1_555
B10B B3 1_555 1_555
B1C H3 1_555 1_555
H1C B10B 1_555 1_555
B2C H2C 1_555 1_555
H2C B9A 1_555 1_555
B3C B3 1_555 1_555
H3C B7 1_555 1_555
B4C B3 1_555 1_555
H4C B7 1_555 1_555
B5C B3 1_555 1_555
H5C B1 1_555 1_555
B6C B10 1_555 1_555
H6C B9 1_555 1_555
B7C B5 1_555 1_555
H7C B8 1_555 1_555
B8C B1 1_555 1_555
H8C B7A 1_555 1_555
B9C B1 1_555 1_555
H9C B6A 1_555 1_555
H10C B10C 1_555 1_555
B10C B5 1_555 1_555
B2_2 Cu1 1_555 1_555
B2A_2 Cu1 1_555 1_555
B2B_2 Cu1 1_555 1_555
B2C_2 Cu1 1_555 1_555
H2_2 Cu1 1_555 1_555
H2A_2 Cu1 1_555 1_555
H2B_2 Cu1 1_555 1_555
H2C_2 Cu1 1_555 1_555
B6_2 Cu1 1_555 1_555
B6A_2 Cu1 1_555 1_555
B6B_2 Cu1 1_555 1_555
B6C_2 Cu1 1_555 1_555
B9_2 Cu1 1_555 1_555
B9A_2 Cu1 1_555 1_555
B9B_2 Cu1 1_555 1_555
B9C_2 Cu1 1_555 1_555
Cu1_2 B2 1_555 1_555
C1A P1 1_555 1_555
C2A C1A 1_555 1_555
H11A C2A 1_555 1_555
C3A C2A 1_555 1_555
H12A C3A 1_555 1_555
C4A C3A 1_555 1_555
H13A C4A 1_555 1_555
C5A C4A 1_555 1_555
H14A C5A 1_555 1_555
C6A C1A 1_555 1_555
H15A C6A 1_555 1_555
C1F P1 1_555 1_555
C2F C1F 1_555 1_555
H11F C2F 1_555 1_555
C3F C2F 1_555 1_555
H12F C3F 1_555 1_555
C4F C3F 1_555 1_555
H13F C4F 1_555 1_555
C5F C4F 1_555 1_555
H14F C5F 1_555 1_555
C6F C1F 1_555 1_555
H15F C6F 1_555 1_555
C1G P1 1_555 1_555
C2G C1G 1_555 1_555
H11G C2G 1_555 1_555
C3G C2G 1_555 1_555
H12G C3G 1_555 1_555
C4G C3G 1_555 1_555
H13G C4G 1_555 1_555
C5G C4G 1_555 1_555
H14G C5G 1_555 1_555
C6G C1G 1_555 1_555
H15G C6G 1_555 1_555
H2 B9C 1_555 1_555
H2 Cu1_2 1_555 1_555
H3 B8A 1_555 1_555
H3 B7B 1_555 1_555
H3 B10B 1_555 1_555
B4 B4A 1_555 1_555
B4 B3B 1_555 1_555
B4 B3C 1_555 1_555
H4 Cu1 1_555 1_555
H4 B8A 1_555 1_555
H4 B7B 1_555 1_555
H4 B4C 1_555 1_555
B5 B3A 1_555 1_555
B5 B7A 1_555 1_555
B5 B3B 1_555 1_555
H5 B8C 1_555 1_555
H5 B10C 1_555 1_555
B6 B10B 1_555 1_555
B6 Cu1_2 1_555 1_555
B7 B10 1_555 1_555
B7 B5A 1_555 1_555
B7 B10B 1_555 1_555
B7 B1C 1_555 1_555
B8 B10 1_555 1_555
B8 B1A 1_555 1_555
B8 H3A 1_555 1_555
B8 B10C 1_555 1_555
B9 B10 1_555 1_555
B9 B1A 1_555 1_555
B9 B1B 1_555 1_555
B9 B10C 1_555 1_555
B9 Cu1_2 1_555 1_555
Cu1 B4A 1_555 1_555
Cu1 H4A 1_555 1_555
Cu1 B4B 1_555 1_555
Cu1 H4B 1_555 1_555
Cu1 B4C 1_555 1_555
Cu1 H4C 1_555 1_555
B10 B1A 1_555 1_555
B10 B5B 1_555 1_555
B10 H5B 1_555 1_555
B10 B3C 1_555 1_555
B10 H3C 1_555 1_555
B10 B7C 1_555 1_555
C5 C6 1_555 1_555
B1A H1A 1_555 1_555
B1A H5B 1_555 1_555
B1A B8B 1_555 1_555
B1A B9B 1_555 1_555
B1A H3C 1_555 1_555
B1A B7C 1_555 1_555
B2A Cu1_2 1_555 1_555
H2A B9B 1_555 1_555
H2A Cu1_2 1_555 1_555
B3A H3A 1_555 1_555
B3A B4A 1_555 1_555
B3A B3B 1_555 1_555
B3A B4B 1_555 1_555
B3A B5B 1_555 1_555
B3A B3C 1_555 1_555
B3A B4C 1_555 1_555
B3A B10C 1_555 1_555
H3A B1B 1_555 1_555
H3A B7C 1_555 1_555
H3A B10C 1_555 1_555
B4A H4A 1_555 1_555
B4A B3B 1_555 1_555
B4A B3C 1_555 1_555
B4A H4C 1_555 1_555
H4A B4B 1_555 1_555
H4A B7C 1_555 1_555
B5A B7B 1_555 1_555
B5A B10B 1_555 1_555
B5A B3C 1_555 1_555
H5A B8B 1_555 1_555
H5A B10B 1_555 1_555
H5A B1C 1_555 1_555
B6A B10A 1_555 1_555
B6A B10C 1_555 1_555
B6A Cu1_2 1_555 1_555
B7A B10A 1_555 1_555
B7A B1B 1_555 1_555
B7A H3B 1_555 1_555
B7A H4B 1_555 1_555
B7A B5C 1_555 1_555
B7A B10C 1_555 1_555
H7A B8C 1_555 1_555
B8A B10A 1_555 1_555
B8A B10B 1_555 1_555
B8A B1C 1_555 1_555
B8A H5C 1_555 1_555
H8A B7B 1_555 1_555
B9A B10A 1_555 1_555
B9A B10B 1_555 1_555
B9A B1C 1_555 1_555
B9A Cu1_2 1_555 1_555
B10A B3B 1_555 1_555
B10A H3B 1_555 1_555
B10A B6B 1_555 1_555
B10A B7B 1_555 1_555
B10A B5C 1_555 1_555
B10A H5C 1_555 1_555
B10A B8C 1_555 1_555
B10A B9C 1_555 1_555
B1B B7C 1_555 1_555
B1B B8C 1_555 1_555
B1B B9C 1_555 1_555
B1B B10C 1_555 1_555
H1B B10C 1_555 1_555
B2B Cu1_2 1_555 1_555
H2B B6C 1_555 1_555
H2B Cu1_2 1_555 1_555
B3B H3B 1_555 1_555
B3B B4B 1_555 1_555
B3B B4C 1_555 1_555
B3B B5C 1_555 1_555
H3B B5C 1_555 1_555
H3B B8C 1_555 1_555
B4B H4B 1_555 1_555
B4B B3C 1_555 1_555
B4B B4C 1_555 1_555
H4B B8C 1_555 1_555
B5B H5B 1_555 1_555
B5B B3C 1_555 1_555
B5B H3C 1_555 1_555
B5B B7C 1_555 1_555
B6B H6B 1_555 1_555
B6B B10B 1_555 1_555
B6B H2C 1_555 1_555
B6B Cu1_2 1_555 1_555
B7B H7B 1_555 1_555
B7B B10B 1_555 1_555
B7B B1C 1_555 1_555
B7B B5C 1_555 1_555
B8B H8B 1_555 1_555
B8B B10B 1_555 1_555
B8B B1C 1_555 1_555
B8B H3C 1_555 1_555
B8B H4C 1_555 1_555
B9B H9B 1_555 1_555
B9B B10B 1_555 1_555
B9B B1C 1_555 1_555
B9B Cu1_2 1_555 1_555
B10B B1C 1_555 1_555
B1C H1C 1_555 1_555
B2C Cu1_2 1_555 1_555
H2C Cu1_2 1_555 1_555
B3C H3C 1_555 1_555
B3C B4C 1_555 1_555
B4C H4C 1_555 1_555
B5C H5C 1_555 1_555
B6C H6C 1_555 1_555
B6C B10C 1_555 1_555
B6C Cu1_2 1_555 1_555
B7C H7C 1_555 1_555
B7C B10C 1_555 1_555
B8C H8C 1_555 1_555
B8C B10C 1_555 1_555
B9C H9C 1_555 1_555
B9C B10C 1_555 1_555
B9C Cu1_2 1_555 1_555
B2_2 H2_2 1_555 1_555
B2A_2 H2A_2 1_555 1_555
B2B_2 H2B_2 1_555 1_555
B2C_2 H2C_2 1_555 1_555
H2_2 B6A_2 1_555 1_555
H2_2 B9C_2 1_555 1_555
H2A_2 B6_2 1_555 1_555
H2A_2 B9B_2 1_555 1_555
H2B_2 B6C_2 1_555 1_555
H2B_2 B9_2 1_555 1_555
H2C_2 B6B_2 1_555 1_555
H2C_2 B9A_2 1_555 1_555
C5A C6A 1_555 1_555
C5F C6F 1_555 1_555
C5G C6G 1_555 1_555

#END
