
#######################################################################
#
#                 Cambridge Crystallographic Data Centre
#                                CCDC 
#
#######################################################################
#
# If this CIF has been generated from an entry in the Cambridge 
# Structural Database, then it will include bibliographic, chemical, 
# crystal, experimental, refinement or atomic coordinate data resulting 
# from the CCDC's data processing and validation procedures.
#
#######################################################################

data_KUGQEJ01
_symmetry_cell_setting           monoclinic
_symmetry_space_group_name_H-M   'C 2/c'
_symmetry_Int_Tables_number      15
_space_group_name_Hall           '-C 2yn'
loop_
_symmetry_equiv_pos_site_id
_symmetry_equiv_pos_as_xyz
1 x,y,z
2 -x,y,1/2-z
3 1/2+x,1/2+y,z
4 1/2-x,1/2+y,1/2-z
5 -x,-y,-z
6 x,-y,1/2+z
7 1/2-x,1/2-y,-z
8 1/2+x,1/2-y,1/2+z
_cell_length_a                   19.697(4)
_cell_length_b                   6.0193(12)
_cell_length_c                   20.472(4)
_cell_angle_alpha                90
_cell_angle_beta                 110.89(3)
_cell_angle_gamma                90
_cell_volume                     2267.66
loop_
_atom_site_label
_atom_site_type_symbol
_atom_site_fract_x
_atom_site_fract_y
_atom_site_fract_z
C1 C 0.2028(2) 0.5312(7) 0.3272(2)
C2 C 0.1586(2) 0.7186(7) 0.3097(2)
C3 C 0.1159(3) 0.7563(9) 0.2389(2)
H1 H 0.0865 0.8817 0.2263
C4 C 0.1177(3) 0.6066(9) 0.1882(2)
H2 H 0.0898 0.6333 0.1416
C5 C 0.1603(3) 0.4188(9) 0.2060(2)
H3 H 0.1601 0.3173 0.1717
C6 C 0.2037(3) 0.3814(8) 0.2755(2)
H4 H 0.2333 0.2563 0.2875
C7 C 0.2539(2) 0.4761(7) 0.3998(2)
C8 C 0.1530(2) 0.8773(7) 0.3637(2)
C9 C -0.0008(2) 0.1125(7) 0.5178(2)
H5 H 0.198(3) 0.568(10) 0.545(3)
H6 H 0.134(5) 0.588(16) 0.530(5)
H7 H 0.044(4) 0.543(15) 0.407(4)
H8 H 0.037(4) 0.423(11) 0.354(4)
O1 O 0.31895(16) 0.5390(5) 0.42001(16)
O2 O 0.23182(16) 0.3553(5) 0.43863(15)
O3 O 0.19408(16) 0.8532(5) 0.42717(15)
O4 O 0.10715(17) 1.0337(6) 0.34616(16)
O5 O 0.04436(17) 0.2539(5) 0.51702(17)
O6 O -0.04850(17) 0.1319(5) 0.54564(17)
O7 O 0.1637(2) 0.5055(6) 0.5366(2)
O8 O 0.0581(2) 0.4460(7) 0.3900(2)
Sm1 Sm 0.137333(10) 0.17003(3) 0.467527(10)
C1_2 C 0.2028(2) -0.4688(7) 0.3272(2)
C2_2 C 0.1586(2) -0.2814(7) 0.3097(2)
C3_2 C 0.1159(3) -0.2437(9) 0.2389(2)
H1_2 H 0.0865 -0.1183 0.2263
C4_2 C 0.1177(3) -0.3934(9) 0.1882(2)
H2_2 H 0.0898 -0.3667 0.1416
C5_2 C 0.1603(3) -0.5812(9) 0.2060(2)
H3_2 H 0.1601 -0.6827 0.1717
C6_2 C 0.2037(3) -0.6186(8) 0.2755(2)
H4_2 H 0.2333 -0.7437 0.2875
C7_2 C 0.2539(2) -0.5239(7) 0.3998(2)
C8_2 C 0.1530(2) -0.1227(7) 0.3637(2)
C9D C 0.0008(2) -0.1125(7) 0.4822(2)
H5_2 H 0.198(3) -0.432(10) 0.545(3)
H6_2 H 0.134(5) -0.412(16) 0.530(5)
H7_2 H 0.044(4) -0.457(15) 0.407(4)
H8_2 H 0.037(4) -0.577(11) 0.354(4)
O1F O 0.18105(16) -0.0390(5) 0.57999(16)
O1_2 O 0.31895(16) -0.4610(5) 0.42001(16)
O1F_2 O 0.18105(16) -1.0390(5) 0.57999(16)
O2F O 0.26818(16) 0.1447(5) 0.56137(15)
O2F_2 O 0.26818(16) -0.8553(5) 0.56137(15)
O2_2 O 0.23182(16) -0.6447(5) 0.43863(15)
O3_2 O 0.19408(16) -0.1468(5) 0.42717(15)
O3_3 O 0.19408(16) -1.1468(5) 0.42717(15)
O4_2 O 0.10715(17) 0.0337(6) 0.34616(16)
O4_3 O 0.10715(17) -0.9663(6) 0.34616(16)
O5D O -0.04436(17) -0.2539(5) 0.48298(17)
O5_2 O 0.04436(17) -0.7461(5) 0.51702(17)
O6D O 0.04850(17) -0.1319(5) 0.45436(17)
O6D_2 O 0.04850(17) -1.1319(5) 0.45436(17)
O7_2 O 0.1637(2) -0.4945(6) 0.5366(2)
O8_2 O 0.0581(2) -0.5540(7) 0.3900(2)
Sm1F Sm 0.362667(10) 0.32997(3) 0.532473(10)
Sm1F_2 Sm 0.362667(10) -0.67003(3) 0.532473(10)
Sm1D Sm -0.137333(10) -0.17003(3) 0.532473(10)
Sm1_2 Sm 0.137333(10) 1.17003(3) 0.467527(10)
Sm1_3 Sm 0.137333(10) -0.82997(3) 0.467527(10)
H9 H 0.035(4) 0.218(12) 0.270(4)
O9 O 0.0000 0.2970(10) 0.2500
H9A H -0.035(4) 0.218(12) 0.230(4)
loop_
_geom_bond_atom_site_label_1
_geom_bond_atom_site_label_2
_geom_bond_site_symmetry_1
_geom_bond_site_symmetry_2
C1 C2 1_555 1_555
C2 C3 1_555 1_555
C3 H1 1_555 1_555
C4 C3 1_555 1_555
H2 C4 1_555 1_555
C5 C4 1_555 1_555
H3 C5 1_555 1_555
C6 C1 1_555 1_555
H4 C6 1_555 1_555
C7 C1 1_555 1_555
C8 C2 1_555 1_555
C9 O5 1_555 1_555
H5 O7 1_555 1_555
H6 O7 1_555 1_555
H7 O8 1_555 1_555
H8 O8 1_555 1_555
H9 O9 1_555 1_555
O1 C7 1_555 1_555
O2 C7 1_555 1_555
O3 C8 1_555 1_555
O4 C8 1_555 1_555
O5 Sm1 1_555 1_555
O6 C9 1_555 1_555
O7 Sm1 1_555 1_555
O8 Sm1 1_555 1_555
O9 H9A 1_555 1_555
Sm1 O2 1_555 1_555
C1_2 C2_2 1_555 1_555
C2_2 C3_2 1_555 1_555
C3_2 H1_2 1_555 1_555
C4_2 C3_2 1_555 1_555
H2_2 C4_2 1_555 1_555
C5_2 C4_2 1_555 1_555
H3_2 C5_2 1_555 1_555
C6_2 C1_2 1_555 1_555
H4_2 C6_2 1_555 1_555
C7_2 C1_2 1_555 1_555
C8_2 C2_2 1_555 1_555
C9D C9 1_555 1_555
H5_2 O7_2 1_555 1_555
H6_2 O7_2 1_555 1_555
H7_2 O8_2 1_555 1_555
H8_2 O8_2 1_555 1_555
O1F Sm1 1_555 1_555
O1_2 C7_2 1_555 1_555
O1F_2 Sm1_3 1_555 1_555
O2F Sm1 1_555 1_555
O2F_2 Sm1F_2 1_555 1_555
O2_2 C7_2 1_555 1_555
O3_2 Sm1 1_555 1_555
O3_3 Sm1_3 1_555 1_555
O4_2 Sm1 1_555 1_555
O4_3 Sm1_3 1_555 1_555
O5D C9D 1_555 1_555
O5_2 Sm1_3 1_555 1_555
O6D Sm1 1_555 1_555
O6D_2 Sm1_3 1_555 1_555
O7_2 Sm1_3 1_555 1_555
O8_2 Sm1_3 1_555 1_555
Sm1F O1 1_555 1_555
Sm1F_2 O1_2 1_555 1_555
Sm1D O6 1_555 1_555
Sm1_2 O3 1_555 1_555
Sm1_3 O2F_2 1_555 1_555
C5 C6 1_555 1_555
O2 Sm1F 1_555 1_555
O4 Sm1_2 1_555 1_555
C5_2 C6_2 1_555 1_555
C8_2 O3_2 1_555 1_555
C8_2 O4_2 1_555 1_555
C9D O6D 1_555 1_555
O2F Sm1F 1_555 1_555
O2_2 Sm1F_2 1_555 1_555
O2_2 Sm1_3 1_555 1_555
O5D Sm1D 1_555 1_555

#END
