
#######################################################################
#
#                 Cambridge Crystallographic Data Centre
#                                CCDC 
#
#######################################################################
#
# If this CIF has been generated from an entry in the Cambridge 
# Structural Database, then it will include bibliographic, chemical, 
# crystal, experimental, refinement or atomic coordinate data resulting 
# from the CCDC's data processing and validation procedures.
#
#######################################################################

data_KUGQEJ02
_symmetry_cell_setting           monoclinic
_symmetry_space_group_name_H-M   'C 2/c'
_symmetry_Int_Tables_number      15
_space_group_name_Hall           '-C 2yn'
loop_
_symmetry_equiv_pos_site_id
_symmetry_equiv_pos_as_xyz
1 x,y,z
2 -x,y,1/2-z
3 1/2+x,1/2+y,z
4 1/2-x,1/2+y,1/2-z
5 -x,-y,-z
6 x,-y,1/2+z
7 1/2-x,1/2-y,-z
8 1/2+x,1/2-y,1/2+z
_cell_length_a                   19.694(3)
_cell_length_b                   6.0192(9)
_cell_length_c                   20.467(3)
_cell_angle_alpha                90
_cell_angle_beta                 110.995(2)
_cell_angle_gamma                90
_cell_volume                     2265.13
loop_
_atom_site_label
_atom_site_type_symbol
_atom_site_fract_x
_atom_site_fract_y
_atom_site_fract_z
Sm1 Sm 0.362664(8) -0.17015(3) 0.032561(8)
C1 C 0.34668(17) 0.1224(6) 0.13644(17)
C2 C 0.34174(17) 0.2814(6) 0.19091(17)
C3 C 0.38373(19) 0.2444(6) 0.26073(18)
H1 H 0.4132 0.1190 0.2732
C4 C 0.38217(19) 0.3929(7) 0.31212(18)
H2 H 0.4100 0.3653 0.3588
C5 C 0.3396(2) 0.5804(7) 0.29430(18)
H3 H 0.3395 0.6816 0.3286
C6 C 0.29664(19) 0.6180(6) 0.22447(18)
H4 H 0.2676 0.7442 0.2125
C7 C 0.29663(16) 0.4695(5) 0.17253(16)
C8 C 0.24615(15) 0.5229(5) 0.10030(15)
C9 C 0.49912(17) 0.1120(6) 0.01802(16)
O1 O 0.33619(12) -0.5055(4) -0.03647(12)
H5 H 0.3622 -0.5934 -0.0366
H6 H 0.2958 -0.5644 -0.0450
O2 O 0.30591(12) 0.1474(4) 0.07290(11)
O3 O 0.44213(13) -0.4453(4) 0.11016(12)
H7 H 0.4685 -0.4090 0.1503
H8 H 0.4517 -0.5604 0.0972
O4 O 0.39280(12) -0.0337(4) 0.15387(12)
O6 O 0.26799(12) 0.6456(3) 0.06118(12)
O7 O 0.18103(12) 0.4619(4) 0.08048(11)
O8 O 0.45141(12) 0.1330(4) 0.04551(13)
O9 O 0.54400(12) 0.2538(4) 0.01680(13)
Sm1_2 Sm 0.362664(8) -1.17015(3) 0.032561(8)
Sm1_3 Sm 0.362664(8) 0.82985(3) 0.032561(8)
Sm1F Sm 0.137336(8) 0.67015(3) -0.032561(8)
Sm1D Sm 0.637336(8) 0.17015(3) -0.032561(8)
Sm1F_2 Sm 0.137336(8) -0.32985(3) -0.032561(8)
C1_2 C 0.34668(17) -0.8776(6) 0.13644(17)
C2_2 C 0.34174(17) -0.7186(6) 0.19091(17)
C3_2 C 0.38373(19) -0.7556(6) 0.26073(18)
H1_2 H 0.4132 -0.8810 0.2732
C4_2 C 0.38217(19) -0.6071(7) 0.31212(18)
H2_2 H 0.4100 -0.6347 0.3588
C5_2 C 0.3396(2) -0.4196(7) 0.29430(18)
H3_2 H 0.3395 -0.3184 0.3286
C6_2 C 0.29664(19) -0.3820(6) 0.22447(18)
H4_2 H 0.2676 -0.2558 0.2125
C7_2 C 0.29663(16) -0.5305(5) 0.17253(16)
C8_2 C 0.24615(15) -0.4771(5) 0.10030(15)
C9D C 0.50088(17) -0.1120(6) -0.01802(16)
O1_2 O 0.33619(12) 0.4945(4) -0.03647(12)
H5_2 H 0.3622 0.4066 -0.0366
H6_2 H 0.2958 0.4356 -0.0450
O2_2 O 0.30591(12) -0.8526(4) 0.07290(11)
O2_3 O 0.30591(12) 1.1474(4) 0.07290(11)
O3_2 O 0.44213(13) 0.5547(4) 0.11016(12)
H7_2 H 0.4685 0.5910 0.1503
H8_2 H 0.4517 0.4396 0.0972
O4_2 O 0.39280(12) -1.0337(4) 0.15387(12)
O4_3 O 0.39280(12) 0.9663(4) 0.15387(12)
O6_2 O 0.26799(12) -0.3544(3) 0.06118(12)
O6F O 0.23201(12) -0.1456(3) -0.06118(12)
O6F_2 O 0.23201(12) 0.8544(3) -0.06118(12)
O7_2 O 0.18103(12) -0.5381(4) 0.08048(11)
O7F O 0.31897(12) 0.0381(4) -0.08048(11)
O7F_2 O 0.31897(12) 1.0381(4) -0.08048(11)
O8D O 0.54859(12) -0.1330(4) -0.04551(13)
O8_2 O 0.45141(12) 1.1330(4) 0.04551(13)
O9D O 0.45600(12) -0.2538(4) -0.01680(13)
O9D_2 O 0.45600(12) 0.7462(4) -0.01680(13)
O5 O 0.5000 0.7024(6) 0.2500
H9 H 0.4657 0.7920 0.2301
H9A H 0.5343 0.7920 0.2699
loop_
_geom_bond_atom_site_label_1
_geom_bond_atom_site_label_2
_geom_bond_site_symmetry_1
_geom_bond_site_symmetry_2
Sm1 O1 1_555 1_555
C1 C2 1_555 1_555
C2 C3 1_555 1_555
C3 H1 1_555 1_555
C4 C3 1_555 1_555
H2 C4 1_555 1_555
C5 C4 1_555 1_555
H3 C5 1_555 1_555
C6 C5 1_555 1_555
H4 C6 1_555 1_555
C7 C2 1_555 1_555
C8 C7 1_555 1_555
C9 O8 1_555 1_555
O1 H5 1_555 1_555
H6 O1 1_555 1_555
O2 Sm1 1_555 1_555
O3 Sm1 1_555 1_555
H7 O3 1_555 1_555
H8 O3 1_555 1_555
O4 Sm1 1_555 1_555
O5 H9 1_555 1_555
O6 C8 1_555 1_555
O7 C8 1_555 1_555
O8 Sm1 1_555 1_555
O9 C9 1_555 1_555
Sm1_2 O2_2 1_555 1_555
Sm1_3 O6 1_555 1_555
Sm1F O6 1_555 1_555
Sm1D O9 1_555 1_555
Sm1F_2 O6_2 1_555 1_555
C1_2 C2_2 1_555 1_555
C2_2 C3_2 1_555 1_555
C3_2 H1_2 1_555 1_555
C4_2 C3_2 1_555 1_555
H2_2 C4_2 1_555 1_555
C5_2 C4_2 1_555 1_555
H3_2 C5_2 1_555 1_555
C6_2 C5_2 1_555 1_555
H4_2 C6_2 1_555 1_555
C7_2 C2_2 1_555 1_555
C8_2 C7_2 1_555 1_555
C9D C9 1_555 1_555
O1_2 Sm1_3 1_555 1_555
H5_2 O1_2 1_555 1_555
H6_2 O1_2 1_555 1_555
O2_2 C1_2 1_555 1_555
O2_3 Sm1_3 1_555 1_555
O3_2 Sm1_3 1_555 1_555
H7_2 O3_2 1_555 1_555
H8_2 O3_2 1_555 1_555
O4_2 Sm1_2 1_555 1_555
O4_3 Sm1_3 1_555 1_555
H9A O5 1_555 1_555
O6_2 Sm1 1_555 1_555
O6F Sm1 1_555 1_555
O6F_2 Sm1_3 1_555 1_555
O7_2 Sm1F_2 1_555 1_555
O7F Sm1 1_555 1_555
O7F_2 Sm1_3 1_555 1_555
O8D Sm1D 1_555 1_555
O8_2 Sm1_3 1_555 1_555
O9D Sm1 1_555 1_555
O9D_2 Sm1_3 1_555 1_555
C1 O2 1_555 1_555
C1 O4 1_555 1_555
C6 C7 1_555 1_555
O7 Sm1F 1_555 1_555
Sm1F O6F_2 1_555 1_555
Sm1F_2 O6F 1_555 1_555
C1_2 O4_2 1_555 1_555
C6_2 C7_2 1_555 1_555
C8_2 O6_2 1_555 1_555
C8_2 O7_2 1_555 1_555
C9D O8D 1_555 1_555
C9D O9D 1_555 1_555

#END
