
#######################################################################
#
#                 Cambridge Crystallographic Data Centre
#                                CCDC 
#
#######################################################################
#
# If this CIF has been generated from an entry in the Cambridge 
# Structural Database, then it will include bibliographic, chemical, 
# crystal, experimental, refinement or atomic coordinate data resulting 
# from the CCDC's data processing and validation procedures.
#
#######################################################################

data_KUGQOT
_symmetry_cell_setting           monoclinic
_symmetry_space_group_name_H-M   'C c'
_symmetry_Int_Tables_number      9
_space_group_name_Hall           'C -2yc'
loop_
_symmetry_equiv_pos_site_id
_symmetry_equiv_pos_as_xyz
1 x,y,z
2 x,-y,1/2+z
3 1/2+x,1/2+y,z
4 1/2+x,1/2-y,1/2+z
_cell_length_a                   16.9078(3)
_cell_length_b                   6.3227(2)
_cell_length_c                   24.9461(2)
_cell_angle_alpha                90
_cell_angle_beta                 101.6420(10)
_cell_angle_gamma                90
_cell_volume                     2611.95
loop_
_atom_site_label
_atom_site_type_symbol
_atom_site_fract_x
_atom_site_fract_y
_atom_site_fract_z
La1 La 0.102350(19) 0.32732(6) 0.148182(16)
La2 La -0.13310(2) 0.24807(6) 0.047328(19)
C1 C 0.0718(5) 0.0940(13) 0.0409(4)
C2 C 0.0657(5) -0.0379(11) -0.0100(3)
C3 C 0.0931(6) 0.0535(14) -0.0541(4)
H1 H 0.1157 0.1916 -0.0503
C4 C 0.0879(6) -0.0529(14) -0.1028(4)
H2 H 0.1062 0.0111 -0.1326
C5 C 0.0561(8) -0.2523(16) -0.1076(5)
H3 H 0.0527 -0.3267 -0.1411
C6 C 0.0290(6) -0.3482(14) -0.0654(4)
H4 H 0.0059 -0.4855 -0.0704
C7 C 0.0350(6) -0.2456(12) -0.0152(4)
C8 C 0.0169(5) -0.3747(12) 0.0321(4)
C9 C -0.1045(6) 0.4895(12) 0.1578(4)
C10 C -0.0961(5) 0.6276(14) 0.2070(4)
C11 C -0.0486(7) 0.5683(15) 0.2563(4)
H5 H -0.0193 0.4394 0.2586
C12 C -0.0427(7) 0.6928(18) 0.3030(4)
H6 H -0.0090 0.6500 0.3364
C13 C -0.0867(7) 0.8819(19) 0.3002(4)
H7 H -0.0838 0.9671 0.3319
C14 C -0.1346(6) 0.9433(15) 0.2508(4)
H8 H -0.1635 1.0728 0.2488
C15 C -0.1409(5) 0.8200(12) 0.2046(4)
C16 C -0.1830(5) 0.9135(12) 0.1511(4)
C17 C 0.3213(6) 0.4862(13) 0.4447(4)
C18 C 0.2877(5) 0.6135(13) 0.3945(4)
C19 C 0.3109(6) 0.8263(13) 0.3926(4)
H9 H 0.3461 0.8888 0.4230
C20 C 0.2818(6) 0.9448(14) 0.3456(4)
H10 H 0.2991 1.0871 0.3435
C21 C 0.2286(6) 0.8584(13) 0.3024(4)
H11 H 0.2068 0.9437 0.2716
C22 C 0.2347(6) 0.5229(14) 0.3491(4)
H12 H 0.2188 0.3791 0.3501
C23 C 0.2062(5) 0.6450(13) 0.3032(4)
C24 C 0.1558(5) 0.5441(13) 0.2537(3)
O1 O 0.1361(4) 0.1908(10) 0.0576(3)
O2 O 0.0126(4) 0.1043(9) 0.0650(3)
O3 O 0.0675(4) -0.3732(11) 0.0763(3)
O4 O -0.0455(4) -0.4854(11) 0.0217(3)
O5 O 0.3210(6) 0.2873(11) 0.4423(3)
O6 O 0.3511(4) 0.5797(9) 0.4884(3)
O7 O 0.1449(5) 0.3472(10) 0.2532(3)
O8 O 0.1292(4) 0.6550(9) 0.2108(3)
O9 O -0.1726(4) 0.4506(11) 0.1298(3)
O10 O -0.0422(4) 0.4059(10) 0.1461(3)
O11 O -0.1381(4) 0.9692(9) 0.1181(3)
O12 O -0.2577(4) 0.9448(10) 0.1431(3)
O13 O 0.0298(4) 0.0181(10) 0.1853(3)
O14 O 0.1909(4) 0.0050(9) 0.1671(3)
O15 O -0.2191(4) 0.5703(9) 0.0186(3)
O16 O -0.2790(4) 0.1444(12) 0.0360(4)
La1_2 La 0.102350(19) -0.67268(6) 0.148182(16)
La1B La -0.397650(19) 0.82732(6) 0.148182(16)
La2_2 La -0.13310(2) -0.75193(6) 0.047328(19)
La2C La 0.36690(2) 0.25193(6) 0.547328(19)
La2_3 La -0.13310(2) 1.24807(6) 0.047328(19)
O3_2 O 0.0675(4) 0.6268(11) 0.0763(3)
O4_2 O -0.0455(4) 0.5146(11) 0.0217(3)
O5C O -0.1790(6) 0.2127(11) -0.0577(3)
O6C O -0.1489(4) -0.0797(9) -0.0116(3)
O11_2 O -0.1381(4) -0.0308(9) 0.1181(3)
O12B O 0.2423(4) 0.4448(10) 0.1431(3)
loop_
_geom_bond_atom_site_label_1
_geom_bond_atom_site_label_2
_geom_bond_site_symmetry_1
_geom_bond_site_symmetry_2
La1 O1 1_555 1_555
La2 O2 1_555 1_555
C1 C2 1_555 1_555
C2 C3 1_555 1_555
C3 H1 1_555 1_555
C4 C3 1_555 1_555
H2 C4 1_555 1_555
C5 C4 1_555 1_555
H3 C5 1_555 1_555
C6 C5 1_555 1_555
H4 C6 1_555 1_555
C7 C2 1_555 1_555
C8 C7 1_555 1_555
C9 C10 1_555 1_555
C10 C11 1_555 1_555
C11 H5 1_555 1_555
C12 C11 1_555 1_555
H6 C12 1_555 1_555
C13 C12 1_555 1_555
H7 C13 1_555 1_555
C14 C13 1_555 1_555
H8 C14 1_555 1_555
C15 C10 1_555 1_555
C16 C15 1_555 1_555
C17 C18 1_555 1_555
C18 C19 1_555 1_555
C19 H9 1_555 1_555
C20 C19 1_555 1_555
H10 C20 1_555 1_555
C21 C20 1_555 1_555
H11 C21 1_555 1_555
C22 C18 1_555 1_555
H12 C22 1_555 1_555
C23 C21 1_555 1_555
C24 C23 1_555 1_555
O1 C1 1_555 1_555
O2 La1 1_555 1_555
O3 C8 1_555 1_555
O4 C8 1_555 1_555
O5 C17 1_555 1_555
O6 C17 1_555 1_555
O7 La1 1_555 1_555
O8 La1 1_555 1_555
O9 La2 1_555 1_555
O10 La1 1_555 1_555
O11 C16 1_555 1_555
O12 C16 1_555 1_555
O13 La1 1_555 1_555
O14 La1 1_555 1_555
O15 La2 1_555 1_555
O16 La2 1_555 1_555
La1_2 O3 1_555 1_555
La1B O12 1_555 1_555
La2_2 O4 1_555 1_555
La2C O5 1_555 1_555
La2_3 O11 1_555 1_555
O3_2 La1 1_555 1_555
O4_2 La2 1_555 1_555
O5C La2 1_555 1_555
O6C La2 1_555 1_555
O11_2 La2 1_555 1_555
O12B La1 1_555 1_555
La2 O10 1_555 1_555
C1 O2 1_555 1_555
C6 C7 1_555 1_555
C9 O9 1_555 1_555
C9 O10 1_555 1_555
C14 C15 1_555 1_555
C22 C23 1_555 1_555
C24 O7 1_555 1_555
C24 O8 1_555 1_555
O6 La2C 1_555 1_555

#END
