
#######################################################################
#
#                 Cambridge Crystallographic Data Centre
#                                CCDC 
#
#######################################################################
#
# If this CIF has been generated from an entry in the Cambridge 
# Structural Database, then it will include bibliographic, chemical, 
# crystal, experimental, refinement or atomic coordinate data resulting 
# from the CCDC's data processing and validation procedures.
#
#######################################################################

data_KUGQIN
_symmetry_cell_setting           monoclinic
_symmetry_space_group_name_H-M   'C 2/c'
_symmetry_Int_Tables_number      15
_space_group_name_Hall           '-C 2yn'
loop_
_symmetry_equiv_pos_site_id
_symmetry_equiv_pos_as_xyz
1 x,y,z
2 -x,y,1/2-z
3 1/2+x,1/2+y,z
4 1/2-x,1/2+y,1/2-z
5 -x,-y,-z
6 x,-y,1/2+z
7 1/2-x,1/2-y,-z
8 1/2+x,1/2-y,1/2+z
_cell_length_a                   16.48200(10)
_cell_length_b                   10.9840(3)
_cell_length_c                   14.7740(4)
_cell_angle_alpha                90
_cell_angle_beta                 114.875(2)
_cell_angle_gamma                90
_cell_volume                     2426.53
loop_
_atom_site_label
_atom_site_type_symbol
_atom_site_fract_x
_atom_site_fract_y
_atom_site_fract_z
La1 La 0.374443(12) 0.088334(17) 0.014062(14)
O1 O 0.52856(16) 0.1400(2) 0.14939(18)
O2 O 0.2561(2) 0.1720(3) -0.1565(2)
O3 O 0.41197(19) -0.1140(3) 0.1108(2)
O4 O 0.3258(2) -0.0872(3) -0.1137(3)
C1 C 0.4887(2) -0.2997(3) 0.1150(3)
C2 C 0.3464(2) -0.5825(3) 0.0294(3)
O5 O 0.35893(19) -0.6950(2) 0.0310(2)
C3 C 0.4757(2) -0.1650(3) 0.1005(3)
C4 C 0.5738(3) -0.3495(4) 0.1607(3)
C5 C 0.4144(2) -0.3761(3) 0.0764(3)
C6 C 0.5424(2) 0.1348(3) 0.2394(3)
C7 C 0.5116(3) -0.5499(4) 0.1256(3)
C8 C 0.5844(3) -0.4741(4) 0.1684(4)
C9 C 0.4257(2) -0.5010(3) 0.0788(3)
O6 O 0.52824(19) -0.1069(2) 0.0738(2)
O7 O 0.27053(16) -0.5326(2) -0.0113(2)
O8 O 0.61675(16) 0.1326(3) 0.31222(19)
H1 H 0.516(2) -0.629(4) 0.131(3)
H2 H 0.641(3) -0.501(4) 0.200(3)
H3 H 0.629(3) -0.296(5) 0.200(4)
H4 H 0.360(3) -0.348(3) 0.053(3)
H7 H 0.358(4) -0.105(4) -0.133(4)
H8 H 0.255(3) 0.168(4) -0.211(4)
H9 H 0.222(4) 0.227(6) -0.160(4)
H10 H 0.284(4) -0.152(6) -0.131(5)
La1A La 0.625557(12) 0.088334(17) 0.485938(14)
La1_2 La 0.374443(12) -0.911666(17) 0.014062(14)
La1A_2 La 0.625557(12) -0.911666(17) 0.485938(14)
La1D La 0.625557(12) -0.088334(17) -0.014062(14)
La1E La 0.374443(12) -0.088334(17) 0.514062(14)
La1F La 0.125557(12) -0.588334(17) -0.014062(14)
La1G La 0.874443(12) -0.588334(17) 0.514062(14)
O1A O 0.47144(16) 0.1400(2) 0.35061(18)
O2A O 0.7439(2) 0.1720(3) 0.6565(2)
O3A O 0.58803(19) -0.1140(3) 0.3892(2)
O4A O 0.6742(2) -0.0872(3) 0.6137(3)
C1A C 0.5113(2) -0.2997(3) 0.3850(3)
C2A C 0.6536(2) -0.5825(3) 0.4706(3)
O5A O 0.64107(19) -0.6950(2) 0.4690(2)
O5_2 O 0.35893(19) 0.3050(2) 0.0310(2)
O5A_2 O 0.64107(19) 0.3050(2) 0.4690(2)
C3A C 0.5243(2) -0.1650(3) 0.3995(3)
C4A C 0.4262(3) -0.3495(4) 0.3393(3)
C5A C 0.5856(2) -0.3761(3) 0.4236(3)
C6A C 0.4576(2) 0.1348(3) 0.2606(3)
C7A C 0.4884(3) -0.5499(4) 0.3744(3)
C8A C 0.4156(3) -0.4741(4) 0.3316(4)
C9A C 0.5743(2) -0.5010(3) 0.4212(3)
O6A O 0.47176(19) -0.1069(2) 0.4262(2)
O6D O 0.47176(19) 0.1069(2) -0.0738(2)
O6E O 0.52824(19) 0.1069(2) 0.5738(2)
O7A O 0.72947(16) -0.5326(2) 0.5113(2)
O7F O 0.22947(16) 0.0326(2) 0.0113(2)
O7G O 0.77053(16) 0.0326(2) 0.4887(2)
O8A O 0.38325(16) 0.1326(3) 0.18778(19)
H1A H 0.484(2) -0.629(4) 0.369(3)
H2A H 0.359(3) -0.501(4) 0.300(3)
H3A H 0.371(3) -0.296(5) 0.300(4)
H4A H 0.640(3) -0.348(3) 0.447(3)
H7A H 0.642(4) -0.105(4) 0.633(4)
H8A H 0.745(3) 0.168(4) 0.711(4)
H9A H 0.778(4) 0.227(6) 0.660(4)
H10A H 0.716(4) -0.152(6) 0.631(5)
O9 O 0.2665(2) 0.1707(3) -0.3447(3)
H5 H 0.242(4) 0.112(5) -0.386(5)
H6 H 0.319(5) 0.171(6) -0.341(5)
loop_
_geom_bond_atom_site_label_1
_geom_bond_atom_site_label_2
_geom_bond_site_symmetry_1
_geom_bond_site_symmetry_2
La1 O1 1_555 1_555
O1 C6 1_555 1_555
O2 La1 1_555 1_555
O3 La1 1_555 1_555
O4 La1 1_555 1_555
C1 C3 1_555 1_555
C2 O5 1_555 1_555
O5 La1_2 1_555 1_555
C3 O3 1_555 1_555
C4 C1 1_555 1_555
C5 C1 1_555 1_555
C6 O8 1_555 1_555
C7 C8 1_555 1_555
C8 C4 1_555 1_555
C9 C2 1_555 1_555
O6 C3 1_555 1_555
O7 C2 1_555 1_555
O8 La1A 1_555 1_555
O9 H5 1_555 1_555
H1 C7 1_555 1_555
H2 C8 1_555 1_555
H3 C4 1_555 1_555
H4 C5 1_555 1_555
H6 O9 1_555 1_555
H7 O4 1_555 1_555
H8 O2 1_555 1_555
H9 O2 1_555 1_555
H10 O4 1_555 1_555
La1A O1A 1_555 1_555
La1A_2 O5A 1_555 1_555
La1D O6 1_555 1_555
La1E O6A 1_555 1_555
La1F O7 1_555 1_555
La1G O7A 1_555 1_555
O1A C6A 1_555 1_555
O2A La1A 1_555 1_555
O3A La1A 1_555 1_555
O4A La1A 1_555 1_555
C1A C3A 1_555 1_555
C2A O5A 1_555 1_555
O5_2 La1 1_555 1_555
O5A_2 La1A 1_555 1_555
C3A O3A 1_555 1_555
C4A C1A 1_555 1_555
C5A C1A 1_555 1_555
C6A C6 1_555 1_555
C7A C8A 1_555 1_555
C8A C4A 1_555 1_555
C9A C2A 1_555 1_555
O6A C3A 1_555 1_555
O6D La1 1_555 1_555
O6E La1A 1_555 1_555
O7A C2A 1_555 1_555
O7F La1 1_555 1_555
O7G La1A 1_555 1_555
O8A La1 1_555 1_555
H1A C7A 1_555 1_555
H2A C8A 1_555 1_555
H3A C4A 1_555 1_555
H4A C5A 1_555 1_555
H7A O4A 1_555 1_555
H8A O2A 1_555 1_555
H9A O2A 1_555 1_555
H10A O4A 1_555 1_555
C5 C9 1_555 1_555
C7 C9 1_555 1_555
C5A C9A 1_555 1_555
C6A O8A 1_555 1_555
C7A C9A 1_555 1_555

#END
