
#######################################################################
#
#                 Cambridge Crystallographic Data Centre
#                                CCDC 
#
#######################################################################
#
# If this CIF has been generated from an entry in the Cambridge 
# Structural Database, then it will include bibliographic, chemical, 
# crystal, experimental, refinement or atomic coordinate data resulting 
# from the CCDC's data processing and validation procedures.
#
#######################################################################

data_KUGQEJ
_symmetry_cell_setting           monoclinic
_symmetry_space_group_name_H-M   'C 2/c'
_symmetry_Int_Tables_number      15
_space_group_name_Hall           '-C 2yn'
loop_
_symmetry_equiv_pos_site_id
_symmetry_equiv_pos_as_xyz
1 x,y,z
2 -x,y,1/2-z
3 1/2+x,1/2+y,z
4 1/2-x,1/2+y,1/2-z
5 -x,-y,-z
6 x,-y,1/2+z
7 1/2-x,1/2-y,-z
8 1/2+x,1/2-y,1/2+z
_cell_length_a                   19.691(2)
_cell_length_b                   6.0132(7)
_cell_length_c                   20.462(2)
_cell_angle_alpha                90
_cell_angle_beta                 110.995(2)
_cell_angle_gamma                90
_cell_volume                     2261.97
loop_
_atom_site_label
_atom_site_type_symbol
_atom_site_fract_x
_atom_site_fract_y
_atom_site_fract_z
Sm1 Sm 0.13743(4) 0.33038(15) 0.46754(4)
O1 O 0.2320(5) 0.1448(19) 0.4387(5)
O2 O 0.1069(6) -0.532(2) 0.3470(6)
O3 O 0.3191(6) -0.035(2) 0.4197(6)
O4 O 0.1934(5) -0.352(2) 0.4268(5)
C1 C 0.1588(8) -0.215(3) 0.3093(8)
O5 O 0.0487(6) 0.634(2) 0.4539(6)
O6 O -0.0447(6) 0.754(2) 0.4827(6)
C2 C 0.1530(8) -0.377(3) 0.3626(8)
C3 C 0.2032(8) -0.030(3) 0.3263(8)
C4 C 0.1163(9) -0.258(3) 0.2399(9)
H1 H 0.0866 -0.3869 0.2277
C5 C 0.2033(9) 0.118(3) 0.2753(8)
H2 H 0.2337 0.2456 0.2878
C6 C 0.0000(10) 0.610(3) 0.4817(9)
C7 C 0.1181(10) -0.109(3) 0.1883(9)
H3 H 0.0906 -0.1403 0.1406
O7 O 0.1634(6) -0.011(2) 0.5357(6)
O9 O 0.0571(8) 0.052(2) 0.3887(7)
C8 C 0.2532(8) 0.024(3) 0.3989(7)
C9 C 0.1592(10) 0.084(3) 0.2050(10)
H4 H 0.1576 0.1901 0.1700
Sm1F Sm 0.36257(4) 0.16962(15) 0.53246(4)
Sm1_2 Sm 0.13743(4) -0.66962(15) 0.46754(4)
Sm1D Sm -0.13743(4) 0.66962(15) 0.53246(4)
Sm1F_2 Sm 0.36257(4) 1.16962(15) 0.53246(4)
O1F O 0.2680(5) 0.3552(19) 0.5613(5)
O2F O 0.3931(6) 1.032(2) 0.6530(6)
O2_2 O 0.1069(6) 0.468(2) 0.3470(6)
O2F_2 O 0.3931(6) 0.032(2) 0.6530(6)
O3F O 0.1809(6) 0.535(2) 0.5803(6)
O4F O 0.3066(5) 0.852(2) 0.5732(5)
O4_2 O 0.1934(5) 0.648(2) 0.4268(5)
O4F_2 O 0.3066(5) -0.148(2) 0.5732(5)
C1F C 0.3412(8) 0.715(3) 0.6907(8)
O5D O -0.0487(6) 0.366(2) 0.5461(6)
O5F O 0.4513(6) -0.134(2) 0.5461(6)
O6D O 0.0447(6) 0.246(2) 0.5173(6)
O6B O 0.4553(6) 0.254(2) 0.4827(6)
C2F C 0.3470(8) 0.877(3) 0.6374(8)
C3F C 0.2968(8) 0.530(3) 0.6737(8)
C4F C 0.3837(9) 0.758(3) 0.7601(9)
H1F H 0.4134 0.8869 0.7723
C5F C 0.2967(9) 0.382(3) 0.7247(8)
H2F H 0.2663 0.2544 0.7122
C6D C 0.0000(10) 0.390(3) 0.5183(9)
C7F C 0.3819(10) 0.609(3) 0.8117(9)
H3F H 0.4094 0.6403 0.8594
O7F O 0.3366(6) 0.511(2) 0.4643(6)
O9F O 0.4429(8) 0.448(2) 0.6113(7)
C8F C 0.2468(8) 0.476(3) 0.6011(7)
C9F C 0.3408(10) 0.416(3) 0.7950(10)
H4F H 0.3424 0.3099 0.8300
O8 O 0.0000 0.202(4) 0.2500
loop_
_geom_bond_atom_site_label_1
_geom_bond_atom_site_label_2
_geom_bond_site_symmetry_1
_geom_bond_site_symmetry_2
Sm1 O1 1_555 1_555
O1 C8 1_555 1_555
O2 C2 1_555 1_555
O3 C8 1_555 1_555
O4 C2 1_555 1_555
C1 C2 1_555 1_555
O5 Sm1 1_555 1_555
O6 C6 1_555 1_555
C3 C1 1_555 1_555
C4 C1 1_555 1_555
H1 C4 1_555 1_555
C5 C3 1_555 1_555
H2 C5 1_555 1_555
C6 O5 1_555 1_555
C7 C4 1_555 1_555
H3 C7 1_555 1_555
O7 Sm1 1_555 1_555
O9 Sm1 1_555 1_555
C8 C3 1_555 1_555
C9 C5 1_555 1_555
H4 C9 1_555 1_555
Sm1F O1 1_555 1_555
Sm1_2 O2 1_555 1_555
Sm1D O6 1_555 1_555
Sm1F_2 O2F 1_555 1_555
O1F Sm1 1_555 1_555
O2F C2F 1_555 1_555
O2_2 Sm1 1_555 1_555
O2F_2 Sm1F 1_555 1_555
O3F Sm1 1_555 1_555
O4F Sm1F_2 1_555 1_555
O4_2 Sm1 1_555 1_555
O4F_2 Sm1F 1_555 1_555
C1F C2F 1_555 1_555
O5D Sm1D 1_555 1_555
O5F Sm1F 1_555 1_555
O6D Sm1 1_555 1_555
O6B Sm1F 1_555 1_555
C2F O4F 1_555 1_555
C3F C1F 1_555 1_555
C4F C1F 1_555 1_555
H1F C4F 1_555 1_555
C5F C3F 1_555 1_555
H2F C5F 1_555 1_555
C6D C6 1_555 1_555
C7F C4F 1_555 1_555
H3F C7F 1_555 1_555
O7F Sm1F 1_555 1_555
O9F Sm1F 1_555 1_555
C8F O1F 1_555 1_555
C9F C5F 1_555 1_555
H4F C9F 1_555 1_555
O3 Sm1F 1_555 1_555
O4 Sm1_2 1_555 1_555
C7 C9 1_555 1_555
Sm1F O1F 1_555 1_555
O3F C8F 1_555 1_555
O5D C6D 1_555 1_555
O6D C6D 1_555 1_555
C3F C8F 1_555 1_555
C7F C9F 1_555 1_555

#END
