
#######################################################################
#
#                 Cambridge Crystallographic Data Centre
#                                CCDC 
#
#######################################################################
#
# If this CIF has been generated from an entry in the Cambridge 
# Structural Database, then it will include bibliographic, chemical, 
# crystal, experimental, refinement or atomic coordinate data resulting 
# from the CCDC's data processing and validation procedures.
#
#######################################################################

data_KUHCUM
_symmetry_cell_setting           monoclinic
_symmetry_space_group_name_H-M   'C 2/m'
_symmetry_Int_Tables_number      12
_space_group_name_Hall           '-C 2y'
loop_
_symmetry_equiv_pos_site_id
_symmetry_equiv_pos_as_xyz
1 x,y,z
2 -x,y,-z
3 1/2+x,1/2+y,z
4 1/2-x,1/2+y,-z
5 -x,-y,-z
6 x,-y,z
7 1/2-x,1/2-y,-z
8 1/2+x,1/2-y,z
_cell_length_a                   14.8269(19)
_cell_length_b                   6.8940(11)
_cell_length_c                   3.4436(4)
_cell_angle_alpha                90
_cell_angle_beta                 90.039(15)
_cell_angle_gamma                90
_cell_volume                     351.993
loop_
_atom_site_label
_atom_site_type_symbol
_atom_site_fract_x
_atom_site_fract_y
_atom_site_fract_z
Cu1 Cu 0.5000 0.5000 0.5000
C1 C 0.42358(17) 0.1008(4) 0.4487(14)
H1 H 0.3685 0.1686 0.4117
N1 N 0.5000 0.2010(4) 0.5000
N2 N 0.4003(2) 0.5000 -0.1276(12)
C2 C 0.3243(3) 0.5000 -0.033(3)
O1 O 0.2475(2) 0.5000 0.0765(15)
Cu1_2 Cu 0.5000 0.5000 -0.5000
Cu1_3 Cu 0.5000 -0.5000 0.5000
Cu1_4 Cu 0.5000 0.5000 1.5000
C1E C 0.42358(17) -0.1008(4) 0.4487(14)
C1D C 0.57642(17) -0.1008(4) 0.5513(14)
C1A C 0.57642(17) 0.1008(4) 0.5513(14)
H1E H 0.3685 -0.1686 0.4117
H1A H 0.6315 0.1686 0.5883
H1D H 0.6315 -0.1686 0.5883
N1D N 0.5000 -0.2010(4) 0.5000
N1D_2 N 0.5000 0.7990(4) 0.5000
N2_2 N 0.4003(2) 0.5000 0.8724(12)
N2A N 0.5997(2) 0.5000 0.1276(12)
N2A_2 N 0.5997(2) 0.5000 1.1276(12)
C2_2 C 0.3243(3) 0.5000 0.967(3)
O1_2 O 0.2475(2) 0.5000 1.0765(15)
loop_
_geom_bond_atom_site_label_1
_geom_bond_atom_site_label_2
_geom_bond_site_symmetry_1
_geom_bond_site_symmetry_2
Cu1 N1 1_555 1_555
C1 H1 1_555 1_555
N1 C1 1_555 1_555
N2 Cu1 1_555 1_555
C2 N2 1_555 1_555
O1 C2 1_555 1_555
Cu1_2 N2 1_555 1_555
Cu1_3 N1D 1_555 1_555
Cu1_4 N2_2 1_555 1_555
C1E C1 1_555 1_555
C1D C1A 1_555 1_555
C1A N1 1_555 1_555
H1E C1E 1_555 1_555
H1A C1A 1_555 1_555
H1D C1D 1_555 1_555
N1D C1E 1_555 1_555
N1D_2 Cu1 1_555 1_555
N2_2 Cu1 1_555 1_555
N2A Cu1 1_555 1_555
N2A_2 Cu1 1_555 1_555
C2_2 N2_2 1_555 1_555
O1_2 C2_2 1_555 1_555
Cu1_2 N2A 1_555 1_555
Cu1_4 N2A_2 1_555 1_555
C1D N1D 1_555 1_555

#END
