
#######################################################################
#
#                 Cambridge Crystallographic Data Centre
#                                CCDC 
#
#######################################################################
#
# If this CIF has been generated from an entry in the Cambridge 
# Structural Database, then it will include bibliographic, chemical, 
# crystal, experimental, refinement or atomic coordinate data resulting 
# from the CCDC's data processing and validation procedures.
#
#######################################################################

data_KUHDEX
_symmetry_cell_setting           rhombohedral
_symmetry_space_group_name_H-M   'R -3'
_symmetry_Int_Tables_number      148
_space_group_name_Hall           '-R 3'
loop_
_symmetry_equiv_pos_site_id
_symmetry_equiv_pos_as_xyz
1 x,y,z
2 -y,x-y,z
3 -x+y,-x,z
4 2/3+x,1/3+y,1/3+z
5 2/3-y,1/3+x-y,1/3+z
6 2/3-x+y,1/3-x,1/3+z
7 1/3+x,2/3+y,2/3+z
8 1/3-y,2/3+x-y,2/3+z
9 1/3-x+y,2/3-x,2/3+z
10 -x,-y,-z
11 y,-x+y,-z
12 x-y,x,-z
13 1/3-x,2/3-y,2/3-z
14 1/3+y,2/3-x+y,2/3-z
15 1/3+x-y,2/3+x,2/3-z
16 2/3-x,1/3-y,1/3-z
17 2/3+y,1/3-x+y,1/3-z
18 2/3+x-y,1/3+x,1/3-z
_cell_length_a                   8.5554(10)
_cell_length_b                   8.5554(10)
_cell_length_c                   23.922(5)
_cell_angle_alpha                90
_cell_angle_beta                 90
_cell_angle_gamma                120
_cell_volume                     1516.38
loop_
_atom_site_label
_atom_site_type_symbol
_atom_site_fract_x
_atom_site_fract_y
_atom_site_fract_z
Tb1 Tb 0.6667 0.3333 0.141378(11)
N1 N 0.3729(3) 0.2730(3) 0.11857(8)
N2 N 0.1973(3) 0.2223(3) 0.12041(9)
N3 N 0.4547(3) 0.3846(3) 0.07569(9)
C1 C 0.3289(4) 0.4077(4) 0.04932(12)
C2 C 0.1676(4) 0.3057(4) 0.07697(11)
H1 H 0.350(3) 0.471(3) 0.0188(11)
H2 H 0.062(4) 0.300(4) 0.0696(12)
Tb1O Tb -0.0000 0.0000 0.191955(11)
Tb1Q Tb 1.0001 1.0000 0.191955(11)
N1O N 0.2938(3) 0.0603(3) 0.21476(8)
N1Q N 0.7666(4) 0.7062(3) 0.21476(8)
N1A N 0.7270(3) 0.0999(4) 0.11857(8)
N1B N 0.9001(4) 0.6271(3) 0.11857(8)
N2O N 0.4694(3) 0.1110(3) 0.21292(9)
N2Q N 0.6417(4) 0.5306(3) 0.21292(9)
N2P N 0.8890(3) 0.3583(4) 0.21292(9)
N3O N 0.2120(3) -0.0513(3) 0.25764(9)
N3Q N 0.7368(4) 0.7880(3) 0.25764(9)
N3A N 0.6154(3) 0.0701(4) 0.07569(9)
N3B N 0.9299(4) 0.5453(3) 0.07569(9)
C1O C 0.3378(4) -0.0744(4) 0.28401(12)
C1Q C 0.5879(6) 0.6622(4) 0.28401(12)
C2O C 0.4991(4) 0.0276(4) 0.25636(11)
C2Q C 0.5286(6) 0.5009(4) 0.25636(11)
H1O H 0.317(3) -0.138(3) 0.3145(11)
H1Q H 0.546(4) 0.683(3) 0.3145(11)
H2O H 0.605(4) 0.033(4) 0.2637(12)
H2Q H 0.429(6) 0.395(4) 0.2637(12)
loop_
_geom_bond_atom_site_label_1
_geom_bond_atom_site_label_2
_geom_bond_site_symmetry_1
_geom_bond_site_symmetry_2
Tb1 N1 1_555 1_555
N1 N2 1_555 1_555
N2 C2 1_555 1_555
N3 Tb1 1_555 1_555
C1 N3 1_555 1_555
C2 C1 1_555 1_555
H1 C1 1_555 1_555
H2 C2 1_555 1_555
Tb1O N2 1_555 1_555
Tb1Q N1Q 1_555 1_555
N1O Tb1O 1_555 1_555
N1Q N2Q 1_555 1_555
N1A Tb1 1_555 1_555
N1B Tb1 1_555 1_555
N2O Tb1 1_555 1_555
N2Q Tb1 1_555 1_555
N2P Tb1 1_555 1_555
N3O Tb1O 1_555 1_555
N3Q Tb1Q 1_555 1_555
N3A Tb1 1_555 1_555
N3B Tb1 1_555 1_555
C1O N3O 1_555 1_555
C1Q N3Q 1_555 1_555
C2O N2O 1_555 1_555
C2Q N2Q 1_555 1_555
H1O C1O 1_555 1_555
H1Q C1Q 1_555 1_555
H2O C2O 1_555 1_555
H2Q C2Q 1_555 1_555
N1 N3 1_555 1_555
N1O N2O 1_555 1_555
N1O N3O 1_555 1_555
N1Q N3Q 1_555 1_555
N1A N3A 1_555 1_555
N1B N3B 1_555 1_555
C1O C2O 1_555 1_555
C1Q C2Q 1_555 1_555

#END
