
#######################################################################
#
#                 Cambridge Crystallographic Data Centre
#                                CCDC 
#
#######################################################################
#
# If this CIF has been generated from an entry in the Cambridge 
# Structural Database, then it will include bibliographic, chemical, 
# crystal, experimental, refinement or atomic coordinate data resulting 
# from the CCDC's data processing and validation procedures.
#
#######################################################################

data_KUHGAX
_symmetry_cell_setting           monoclinic
_symmetry_space_group_name_H-M   'C 2/c'
_symmetry_Int_Tables_number      15
_space_group_name_Hall           '-C 2yn'
loop_
_symmetry_equiv_pos_site_id
_symmetry_equiv_pos_as_xyz
1 x,y,z
2 -x,y,1/2-z
3 1/2+x,1/2+y,z
4 1/2-x,1/2+y,1/2-z
5 -x,-y,-z
6 x,-y,1/2+z
7 1/2-x,1/2-y,-z
8 1/2+x,1/2-y,1/2+z
_cell_length_a                   21.2487(5)
_cell_length_b                   12.6146(2)
_cell_length_c                   14.6206(4)
_cell_angle_alpha                90
_cell_angle_beta                 110.200(3)
_cell_angle_gamma                90
_cell_volume                     3677.92
loop_
_atom_site_label
_atom_site_type_symbol
_atom_site_fract_x
_atom_site_fract_y
_atom_site_fract_z
Cu1 Cu 0.48381(2) 0.87489(2) 0.05021(2)
Cl1 Cl 0.53924(3) 1.02236(5) 0.12367(5)
S1 S 0.52776(3) 0.73528(5) 0.20542(5)
C1 C 0.42060(14) 0.6656(2) 0.0441(2)
H1 H 0.3990 0.6030 0.0048
H2 H 0.3908 0.6907 0.0787
C2 C 0.48647(15) 0.6313(2) 0.1188(2)
H3 H 0.5169 0.6080 0.0845
H4 H 0.4783 0.5697 0.1552
C3 C 0.53200(14) 0.7256(2) -0.0553(2)
C4 C 0.57020(17) 0.6698(2) -0.0992(3)
H5 H 0.5495 0.6254 -0.1539
C5 C 0.63920(18) 0.6803(3) -0.0613(3)
H6 H 0.6669 0.6453 -0.0909
C6 C 0.66650(15) 0.7415(3) 0.0186(3)
H7 H 0.7139 0.7471 0.0466
C7 C 0.62616(14) 0.7973(2) 0.0611(2)
C8 C 0.45716(14) 0.7137(2) -0.0946(2)
H8 H 0.4387 0.7546 -0.1559
H9 H 0.4456 0.6382 -0.1098
C9 C 0.65903(16) 0.8564(3) 0.1505(3)
H10 H 0.6691 0.9283 0.1342
H11 H 0.7008 0.8207 0.1885
H12 H 0.6293 0.8601 0.1888
C10 C 0.34143(14) 0.8709(2) -0.0054(2)
C11 C 0.27667(15) 0.8924(2) -0.0081(2)
H13 H 0.2391 0.8586 -0.0542
C12 C 0.26828(17) 0.9654(3) 0.0590(3)
H14 H 0.2245 0.9819 0.0582
C13 C 0.32297(17) 1.0135(3) 0.1261(3)
H15 H 0.3176 1.0618 0.1727
C14 C 0.38559(17) 0.9896(2) 0.1239(2)
H16 H 0.4237 1.0229 0.1693
C15 C 0.35805(13) 0.7972(2) -0.0742(2)
H17 H 0.3573 0.8363 -0.1333
H18 H 0.3244 0.7396 -0.0942
N1 N 0.42641(11) 0.75157(17) -0.02381(17)
N2 N 0.55861(11) 0.79131(17) 0.02057(17)
N3 N 0.39450(11) 0.92011(18) 0.05901(17)
S1A S 0.47224(3) 0.73528(5) 0.29458(5)
C1A C 0.57940(14) 0.6656(2) 0.4559(2)
H1A H 0.6010 0.6030 0.4952
H2A H 0.6092 0.6907 0.4213
C2A C 0.51353(15) 0.6313(2) 0.3812(2)
H3A H 0.4831 0.6080 0.4155
H4A H 0.5217 0.5697 0.3448
C3A C 0.46800(14) 0.7256(2) 0.5553(2)
C4A C 0.42980(17) 0.6698(2) 0.5992(3)
H5A H 0.4505 0.6254 0.6539
C5A C 0.36080(18) 0.6803(3) 0.5613(3)
H6A H 0.3331 0.6453 0.5909
C6A C 0.33350(15) 0.7415(3) 0.4814(3)
H7A H 0.2861 0.7471 0.4534
C7A C 0.37384(14) 0.7973(2) 0.4389(2)
C8A C 0.54284(14) 0.7137(2) 0.5946(2)
H8A H 0.5613 0.7546 0.6559
H9A H 0.5544 0.6382 0.6098
C9A C 0.34097(16) 0.8564(3) 0.3495(3)
H10A H 0.3309 0.9283 0.3658
H11A H 0.2992 0.8207 0.3115
H12A H 0.3707 0.8601 0.3112
C10A C 0.65857(14) 0.8709(2) 0.5054(2)
C11A C 0.72333(15) 0.8924(2) 0.5081(2)
H13A H 0.7609 0.8586 0.5542
C12A C 0.73172(17) 0.9654(3) 0.4410(3)
H14A H 0.7755 0.9819 0.4418
C13A C 0.67703(17) 1.0135(3) 0.3739(3)
H15A H 0.6824 1.0618 0.3273
C14A C 0.61441(17) 0.9896(2) 0.3761(2)
H16A H 0.5763 1.0229 0.3307
C15A C 0.64195(13) 0.7972(2) 0.5742(2)
H17A H 0.6427 0.8363 0.6333
H18A H 0.6756 0.7396 0.5942
N1A N 0.57359(11) 0.75157(17) 0.52381(17)
N2A N 0.44139(11) 0.79131(17) 0.47943(17)
N3A N 0.60550(11) 0.92011(18) 0.44099(17)
Cu1A Cu 0.51619(2) 0.87489(2) 0.44979(2)
Cl1A Cl 0.46076(3) 1.02236(5) 0.37633(5)
Cu1D Cu 0.51619(2) 1.12511(2) -0.05021(2)
Cu1E Cu 0.48381(2) 1.12511(2) 0.55021(2)
Cl1D Cl 0.46076(3) 0.97764(5) -0.12367(5)
Cl1E Cl 0.53924(3) 0.97764(5) 0.62367(5)
Cl3 Cl 0.3344(3) 0.4901(5) -0.2264(7)
O5 O 0.2771(7) 0.4237(12) -0.2616(13)
O6 O 0.3756(7) 0.4776(13) -0.2856(11)
O7 O 0.3176(4) 0.6003(6) -0.2283(10)
O8 O 0.3735(6) 0.4607(11) -0.1274(8)
Cl2? Cl 0.3287(8) 0.4934(11) -0.2393(14)
O1? O 0.2703(10) 0.4275(18) -0.257(2)
O2? O 0.3628(10) 0.4673(19) -0.3049(17)
O3? O 0.3042(15) 0.6006(13) -0.254(2)
O4? O 0.3701(13) 0.482(2) -0.1395(16)
loop_
_geom_bond_atom_site_label_1
_geom_bond_atom_site_label_2
_geom_bond_site_symmetry_1
_geom_bond_site_symmetry_2
Cu1 Cl1 1_555 1_555
Cl1 Cu1D 1_555 1_555
S1 Cu1 1_555 1_555
C1 H1 1_555 1_555
H2 C1 1_555 1_555
C2 S1 1_555 1_555
H3 C2 1_555 1_555
H4 C2 1_555 1_555
C3 C4 1_555 1_555
C4 H5 1_555 1_555
C5 C4 1_555 1_555
H6 C5 1_555 1_555
C6 C5 1_555 1_555
H7 C6 1_555 1_555
C7 C6 1_555 1_555
C8 C3 1_555 1_555
H8 C8 1_555 1_555
H9 C8 1_555 1_555
C9 C7 1_555 1_555
H10 C9 1_555 1_555
H11 C9 1_555 1_555
H12 C9 1_555 1_555
C10 C11 1_555 1_555
C11 H13 1_555 1_555
C12 C11 1_555 1_555
H14 C12 1_555 1_555
C13 C12 1_555 1_555
H15 C13 1_555 1_555
C14 C13 1_555 1_555
H16 C14 1_555 1_555
C15 C10 1_555 1_555
H17 C15 1_555 1_555
H18 C15 1_555 1_555
N1 Cu1 1_555 1_555
N2 Cu1 1_555 1_555
N3 Cu1 1_555 1_555
Cl3 O5 1_555 1_555
O6 Cl3 1_555 1_555
O7 Cl3 1_555 1_555
O8 Cl3 1_555 1_555
S1A S1 1_555 1_555
C1A H1A 1_555 1_555
H2A C1A 1_555 1_555
C2A S1A 1_555 1_555
H3A C2A 1_555 1_555
H4A C2A 1_555 1_555
C3A C4A 1_555 1_555
C4A H5A 1_555 1_555
C5A C4A 1_555 1_555
H6A C5A 1_555 1_555
C6A C5A 1_555 1_555
H7A C6A 1_555 1_555
C7A C6A 1_555 1_555
C8A C3A 1_555 1_555
H8A C8A 1_555 1_555
H9A C8A 1_555 1_555
C9A C7A 1_555 1_555
H10A C9A 1_555 1_555
H11A C9A 1_555 1_555
H12A C9A 1_555 1_555
C10A C11A 1_555 1_555
C11A H13A 1_555 1_555
C12A C11A 1_555 1_555
H14A C12A 1_555 1_555
C13A C12A 1_555 1_555
H15A C13A 1_555 1_555
C14A C13A 1_555 1_555
H16A C14A 1_555 1_555
C15A C10A 1_555 1_555
H17A C15A 1_555 1_555
H18A C15A 1_555 1_555
N1A C1A 1_555 1_555
N2A C3A 1_555 1_555
N3A C10A 1_555 1_555
Cu1A S1A 1_555 1_555
Cl1A Cu1A 1_555 1_555
Cu1D Cl1D 1_555 1_555
Cu1E Cl1A 1_555 1_555
Cl1D Cu1 1_555 1_555
Cl1E Cu1A 1_555 1_555
C1 C2 1_555 1_555
C1 N1 1_555 1_555
C3 N2 1_555 1_555
C7 N2 1_555 1_555
C8 N1 1_555 1_555
C10 N3 1_555 1_555
C14 N3 1_555 1_555
C15 N1 1_555 1_555
C1A C2A 1_555 1_555
C7A N2A 1_555 1_555
C8A N1A 1_555 1_555
C14A N3A 1_555 1_555
C15A N1A 1_555 1_555
N1A Cu1A 1_555 1_555
N2A Cu1A 1_555 1_555
N3A Cu1A 1_555 1_555
Cu1E Cl1E 1_555 1_555

#END
