
#######################################################################
#
#                 Cambridge Crystallographic Data Centre
#                                CCDC 
#
#######################################################################
#
# If this CIF has been generated from an entry in the Cambridge 
# Structural Database, then it will include bibliographic, chemical, 
# crystal, experimental, refinement or atomic coordinate data resulting 
# from the CCDC's data processing and validation procedures.
#
#######################################################################

data_KUHNIM
_symmetry_cell_setting           monoclinic
_symmetry_space_group_name_H-M   'C 2/c'
_symmetry_Int_Tables_number      15
_space_group_name_Hall           '-C 2yn'
loop_
_symmetry_equiv_pos_site_id
_symmetry_equiv_pos_as_xyz
1 x,y,z
2 -x,y,1/2-z
3 1/2+x,1/2+y,z
4 1/2-x,1/2+y,1/2-z
5 -x,-y,-z
6 x,-y,1/2+z
7 1/2-x,1/2-y,-z
8 1/2+x,1/2-y,1/2+z
_cell_length_a                   19.576(6)
_cell_length_b                   18.535(6)
_cell_length_c                   7.8377(16)
_cell_angle_alpha                90
_cell_angle_beta                 94.15(3)
_cell_angle_gamma                90
_cell_volume                     2836.38
loop_
_atom_site_label
_atom_site_type_symbol
_atom_site_fract_x
_atom_site_fract_y
_atom_site_fract_z
Zn1 Zn 0.35840(10) 0.14483(9) 0.3567(2)
Zn2 Zn 0.0859(2) -0.02328(18) 0.3657(5)
C1 C -0.0152(8) 0.3217(9) -0.029(2)
C2 C 0.0471(9) 0.2788(9) 0.029(2)
C3 C 0.0455(12) 0.2120(12) 0.076(2)
H1 H 0.0034 0.1888 0.0608
C4 C 0.1020(9) 0.1692(10) 0.149(2)
C5 C 0.0906(10) 0.0950(9) 0.217(2)
C6 C 0.1606(7) 0.2056(11) 0.157(3)
C7 C 0.2277(11) 0.1631(10) 0.219(2)
C8 C 0.1681(9) 0.2802(9) 0.116(2)
H2 H 0.2105 0.3028 0.1336
C9 C 0.1125(9) 0.3174(9) 0.053(2)
C10 C 0.1226(8) 0.3966(9) 0.003(2)
O1 O -0.0656(6) 0.2821(7) -0.0755(19)
O2 O -0.0180(6) 0.3905(5) -0.0202(17)
O3 O 0.1176(6) 0.4117(7) -0.1535(17)
O4 O 0.1319(6) 0.4390(6) 0.1107(16)
O5 O 0.0776(8) 0.0441(7) 0.1063(17)
O6 O 0.0895(7) 0.0887(6) 0.3630(16)
O7 O 0.2271(8) 0.1043(7) 0.2035(16)
O8 O 0.2811(7) 0.2049(8) 0.2816(18)
O9 O 0.3301(9) 0.0762(9) 0.530(2)
O10 O 0.1874(10) -0.0325(13) 0.370(3)
O11 O 0.0147(14) -0.101(3) 0.225(4)
Zn1F Zn 0.14160(10) 0.35517(9) -0.3567(2)
Zn1G Zn -0.14160(10) 0.35517(9) -0.1433(2)
Zn2A Zn -0.0859(2) -0.02328(18) 0.1343(5)
Zn2E Zn 0.0859(2) 0.02328(18) -0.1343(5)
O1G O 0.4344(6) 0.2179(7) 0.4245(19)
O3F O 0.3824(6) 0.0883(7) 0.1535(17)
O5E O 0.0776(8) -0.0441(7) 0.6063(17)
O11A O -0.0147(14) -0.101(3) 0.275(4)
O12 O 0.0000 0.4899(12) 0.2500
O13 O 0.1812(9) 0.1490(13) 0.623(3)
loop_
_geom_bond_atom_site_label_1
_geom_bond_atom_site_label_2
_geom_bond_site_symmetry_1
_geom_bond_site_symmetry_2
Zn1 O8 1_555 1_555
Zn2 O5 1_555 1_555
C1 C2 1_555 1_555
C2 C3 1_555 1_555
C3 H1 1_555 1_555
C4 C3 1_555 1_555
C5 C4 1_555 1_555
C6 C4 1_555 1_555
C7 C6 1_555 1_555
C8 C6 1_555 1_555
H2 C8 1_555 1_555
C9 C2 1_555 1_555
C10 C9 1_555 1_555
O1 C1 1_555 1_555
O2 C1 1_555 1_555
O3 C10 1_555 1_555
O4 C10 1_555 1_555
O5 C5 1_555 1_555
O6 Zn2 1_555 1_555
O7 C7 1_555 1_555
O8 C7 1_555 1_555
O9 Zn1 1_555 1_555
O10 Zn2 1_555 1_555
O11 Zn2 1_555 1_555
Zn1F O3 1_555 1_555
Zn1G O1 1_555 1_555
Zn2A O11 1_555 1_555
Zn2E O5 1_555 1_555
O1G Zn1 1_555 1_555
O3F Zn1 1_555 1_555
O5E Zn2 1_555 1_555
O11A Zn2 1_555 1_555
C5 O6 1_555 1_555
C8 C9 1_555 1_555
Zn2A O11A 1_555 1_555

#END
