
#######################################################################
#
#                 Cambridge Crystallographic Data Centre
#                                CCDC 
#
#######################################################################
#
# If this CIF has been generated from an entry in the Cambridge 
# Structural Database, then it will include bibliographic, chemical, 
# crystal, experimental, refinement or atomic coordinate data resulting 
# from the CCDC's data processing and validation procedures.
#
#######################################################################

data_KUHROW
_symmetry_cell_setting           triclinic
_symmetry_space_group_name_H-M   'P -1'
_symmetry_Int_Tables_number      2
_space_group_name_Hall           '-P 1'
loop_
_symmetry_equiv_pos_site_id
_symmetry_equiv_pos_as_xyz
1 x,y,z
2 -x,-y,-z
_cell_length_a                   9.1339(13)
_cell_length_b                   9.8527(14)
_cell_length_c                   10.0198(14)
_cell_angle_alpha                103.674(2)
_cell_angle_beta                 99.491(2)
_cell_angle_gamma                101.683(2)
_cell_volume                     836.284
loop_
_atom_site_label
_atom_site_type_symbol
_atom_site_fract_x
_atom_site_fract_y
_atom_site_fract_z
Ba1 Ba 0.19319(3) 0.50195(4) 0.63919(3)
S1 S 0.16602(15) 0.69509(15) -0.05678(14)
O1 O 0.1247(4) 0.5612(4) 0.3783(4)
O2 O 0.5350(4) 0.4706(4) 0.1700(4)
N1 N 0.3562(4) 0.5710(5) 0.0745(4)
H1 H 0.4033 0.5734 0.0072
N2 N 0.1580(5) 0.6150(5) 0.1763(4)
H2 H 0.0765 0.6461 0.1751
C1 C 0.2300(5) 0.6228(5) 0.0709(5)
C2 C 0.2053(5) 0.5606(5) 0.2873(5)
C3 C 0.3381(6) 0.5105(6) 0.2872(5)
H3 H 0.3748 0.4746 0.3603
C4 C 0.4153(6) 0.5137(6) 0.1805(5)
S2 S 0.16288(17) 0.09214(16) 1.18843(15)
O3 O 0.4757(4) 0.0301(4) 0.8331(4)
N3 N 0.1518(5) 0.2056(5) 0.9718(4)
H4 H 0.0845 0.2451 1.0046
N4 N 0.3288(5) 0.0735(5) 0.9935(5)
H5 H 0.3759 0.0263 1.0404
O4 O 0.1078(4) 0.3000(4) 0.7871(4)
C5 C 0.2179(6) 0.1269(5) 1.0454(5)
C6 C 0.3725(6) 0.0890(6) 0.8699(6)
C7 C 0.2964(6) 0.1683(6) 0.7970(6)
H6 H 0.3214 0.1816 0.7139
C8 C 0.1848(5) 0.2272(5) 0.8470(5)
O5 O -0.0258(5) 0.2817(4) 0.3893(5)
H7 H -0.055(8) 0.215(4) 0.420(6)
H8 H 0.003(8) 0.249(6) 0.320(4)
O6 O 0.3346(5) 0.2962(5) 0.5110(4)
H9 H 0.420(3) 0.285(7) 0.520(6)
H10 H 0.292(6) 0.257(7) 0.430(3)
O7 O 0.3937(6) 0.7500(5) 0.6225(6)
H11 H 0.435(8) 0.795(6) 0.703(2)
H12 H 0.382(9) 0.808(5) 0.581(5)
Ba1_2 Ba 0.19319(3) 0.50195(4) -0.36081(3)
Ba1A Ba -0.19319(3) 0.49805(4) 0.36081(3)
Ba1A_2 Ba 0.80681(3) 0.49805(4) 0.36081(3)
S1_2 S 0.16602(15) 0.69509(15) 0.94322(14)
O1A O -0.1247(4) 0.4388(4) 0.6217(4)
O2A O 0.4650(4) 0.5294(4) 0.8300(4)
O5A O 0.0258(5) 0.7183(4) 0.6107(5)
O8 O 0.9077(6) 0.0895(6) 0.5469(5)
H13 H 0.959(5) 0.143(7) 0.621(4)
H14 H 0.821(3) 0.070(8) 0.556(6)
O9 O 0.6119(7) 0.0937(6) 0.6044(5)
H15 H 0.584(8) 0.063(6) 0.666(4)
H16 H 0.657(8) 0.176(3) 0.639(6)
loop_
_geom_bond_atom_site_label_1
_geom_bond_atom_site_label_2
_geom_bond_site_symmetry_1
_geom_bond_site_symmetry_2
Ba1 O1 1_555 1_555
S1 C1 1_555 1_555
O1 C2 1_555 1_555
O2 C4 1_555 1_555
N1 H1 1_555 1_555
N2 H2 1_555 1_555
C1 N1 1_555 1_555
C2 N2 1_555 1_555
C3 C2 1_555 1_555
H3 C3 1_555 1_555
C4 N1 1_555 1_555
S2 C5 1_555 1_555
O3 C6 1_555 1_555
N3 H4 1_555 1_555
N4 H5 1_555 1_555
O4 Ba1 1_555 1_555
C5 N3 1_555 1_555
C6 N4 1_555 1_555
C7 C6 1_555 1_555
H6 C7 1_555 1_555
C8 N3 1_555 1_555
O5 Ba1 1_555 1_555
H7 O5 1_555 1_555
H8 O5 1_555 1_555
O6 Ba1 1_555 1_555
H9 O6 1_555 1_555
H10 O6 1_555 1_555
O7 Ba1 1_555 1_555
H11 O7 1_555 1_555
H12 O7 1_555 1_555
O8 H13 1_555 1_555
H14 O8 1_555 1_555
O9 H15 1_555 1_555
H16 O9 1_555 1_555
Ba1_2 S1 1_555 1_555
Ba1A O1 1_555 1_555
Ba1A_2 O2 1_555 1_555
S1_2 Ba1 1_555 1_555
O1A Ba1 1_555 1_555
O2A Ba1 1_555 1_555
O5A Ba1 1_555 1_555
N2 C1 1_555 1_555
C3 C4 1_555 1_555
N4 C5 1_555 1_555
O4 C8 1_555 1_555
C7 C8 1_555 1_555
O5 Ba1A 1_555 1_555
Ba1A O1A 1_555 1_555
Ba1A O5A 1_555 1_555

#END
