
#######################################################################
#
#                 Cambridge Crystallographic Data Centre
#                                CCDC 
#
#######################################################################
#
# If this CIF has been generated from an entry in the Cambridge 
# Structural Database, then it will include bibliographic, chemical, 
# crystal, experimental, refinement or atomic coordinate data resulting 
# from the CCDC's data processing and validation procedures.
#
#######################################################################

data_KUHVOZ01
_symmetry_cell_setting           cubic
_symmetry_space_group_name_H-M   'P a -3'
_symmetry_Int_Tables_number      205
_space_group_name_Hall           '-P 2ac 2ab 3'
loop_
_symmetry_equiv_pos_site_id
_symmetry_equiv_pos_as_xyz
1 x,y,z
2 -z,1/2+x,1/2-y
3 1/2+y,1/2-z,-x
4 1/2+x,1/2-y,-z
5 1/2-x,-y,1/2+z
6 1/2+z,1/2-x,-y
7 -y,1/2+z,1/2-x
8 1/2-z,-x,1/2+y
9 1/2-y,-z,1/2+x
10 -x,1/2+y,1/2-z
11 y,z,x
12 z,x,y
13 -x,-y,-z
14 z,1/2-x,1/2+y
15 1/2-y,1/2+z,x
16 1/2-x,1/2+y,z
17 1/2+x,y,1/2-z
18 1/2-z,1/2+x,y
19 y,1/2-z,1/2+x
20 1/2+z,x,1/2-y
21 1/2+y,z,1/2-x
22 x,1/2-y,1/2+z
23 -y,-z,-x
24 -z,-x,-y
_cell_length_a                   20.2663(3)
_cell_length_b                   20.2663(3)
_cell_length_c                   20.2663(3)
_cell_angle_alpha                90
_cell_angle_beta                 90
_cell_angle_gamma                90
_cell_volume                     8323.83
loop_
_atom_site_label
_atom_site_type_symbol
_atom_site_fract_x
_atom_site_fract_y
_atom_site_fract_z
Eu1 Eu 0.257769(14) 0.145507(14) 0.520107(14)
O1 O 0.2891(2) 0.0874(2) 0.6237(2)
O2 O 0.20295(19) 0.0337(2) 0.6676(2)
O3 O 0.2825(2) -0.0823(2) 0.9238(2)
O4 O 0.19653(19) -0.0642(2) 0.85654(19)
O5 O 0.3299(2) 0.1723(2) 0.4258(2)
H1 H 0.3281 0.1431 0.3958
H2 H 0.3120 0.2000 0.3999
O6 O 0.1650(2) 0.0775(2) 0.5501(2)
H3 H 0.1588 0.0519 0.5827
H4 H 0.1453 0.0504 0.5249
O7 O 0.3297(2) 0.0498(2) 0.5022(2)
H5 H 0.3501 0.0408 0.4666
H6 H 0.3666 0.0561 0.5217
O8 O 0.2062(2) 0.2018(2) 0.6139(2)
H7 H 0.1846 0.2355 0.6266
H8 H 0.2060 0.1872 0.6532
N1 N 0.2700(2) -0.0051(2) 0.7692(2)
C1 C 0.2629(3) 0.0515(3) 0.6657(3)
C2 C 0.3060(3) 0.0257(3) 0.7219(3)
C3 C 0.3731(3) 0.0315(3) 0.7247(3)
H9 H 0.3968 0.0524 0.6900
C4 C 0.4058(3) 0.0062(3) 0.7791(3)
H10 H 0.4524 0.0100 0.7825
C5 C 0.3700(3) -0.0247(3) 0.8287(3)
H11 H 0.3914 -0.0430 0.8662
C6 C 0.3020(3) -0.0281(3) 0.8217(3)
C7 C 0.2580(3) -0.0604(3) 0.8718(3)
Eu1R Eu 0.145507(14) -0.020107(14) 0.757769(14)
Eu1D Eu 0.242231(14) -0.145507(14) 1.020107(14)
O2S O 0.1676(2) 0.20295(19) 0.4663(2)
O3D O 0.2175(2) 0.0823(2) 0.4238(2)
O4S O 0.35654(19) 0.19653(19) 0.5642(2)
N1S N 0.2692(2) 0.2700(2) 0.5051(2)
Cl1 Cl 0.12613(8) 0.37387(8) 0.62613(8)
O9 O 0.1658(3) 0.3342(3) 0.6658(3)
O10 O 0.1623(3) 0.4309(3) 0.6058(3)
O10E O 0.1058(3) 0.3377(3) 0.5691(3)
O10H O 0.0691(3) 0.3942(3) 0.6623(3)
Cl2 Cl 0.28394(9) 0.28394(9) 0.28394(9)
O11 O 0.3248(4) 0.3248(4) 0.3248(4)
O12 O 0.2525(3) 0.2363(3) 0.3240(3)
O12J O 0.2363(3) 0.3240(3) 0.2525(3)
O12K O 0.3240(3) 0.2525(3) 0.2363(3)
loop_
_geom_bond_atom_site_label_1
_geom_bond_atom_site_label_2
_geom_bond_site_symmetry_1
_geom_bond_site_symmetry_2
Eu1 O1 1_555 1_555
O1 C1 1_555 1_555
O2 C1 1_555 1_555
O3 C7 1_555 1_555
O4 C7 1_555 1_555
O5 Eu1 1_555 1_555
H1 O5 1_555 1_555
H2 O5 1_555 1_555
O6 Eu1 1_555 1_555
H3 O6 1_555 1_555
H4 O6 1_555 1_555
O7 Eu1 1_555 1_555
H5 O7 1_555 1_555
H6 O7 1_555 1_555
O8 Eu1 1_555 1_555
H7 O8 1_555 1_555
H8 O8 1_555 1_555
N1 C2 1_555 1_555
C1 C2 1_555 1_555
C2 C3 1_555 1_555
C3 H9 1_555 1_555
C4 C3 1_555 1_555
H10 C4 1_555 1_555
C5 C4 1_555 1_555
H11 C5 1_555 1_555
C6 N1 1_555 1_555
C7 C6 1_555 1_555
Cl1 O9 1_555 1_555
O10 Cl1 1_555 1_555
Cl2 O11 1_555 1_555
O12 Cl2 1_555 1_555
Eu1R O2 1_555 1_555
Eu1D O3 1_555 1_555
O2S Eu1 1_555 1_555
O3D Eu1 1_555 1_555
O4S Eu1 1_555 1_555
N1S Eu1 1_555 1_555
O10E Cl1 1_555 1_555
O10H Cl1 1_555 1_555
O12J Cl2 1_555 1_555
O12K Cl2 1_555 1_555
O4 Eu1R 1_555 1_555
N1 Eu1R 1_555 1_555
C5 C6 1_555 1_555

#END
