
#######################################################################
#
#                 Cambridge Crystallographic Data Centre
#                                CCDC 
#
#######################################################################
#
# If this CIF has been generated from an entry in the Cambridge 
# Structural Database, then it will include bibliographic, chemical, 
# crystal, experimental, refinement or atomic coordinate data resulting 
# from the CCDC's data processing and validation procedures.
#
#######################################################################

data_KUHVUF
_symmetry_cell_setting           orthorhombic
_symmetry_space_group_name_H-M   'P b c a'
_symmetry_Int_Tables_number      61
_space_group_name_Hall           '-P 2ac 2ab'
loop_
_symmetry_equiv_pos_site_id
_symmetry_equiv_pos_as_xyz
1 x,y,z
2 1/2-x,-y,1/2+z
3 1/2+x,1/2-y,-z
4 -x,1/2+y,1/2-z
5 -x,-y,-z
6 1/2+x,y,1/2-z
7 1/2-x,1/2+y,z
8 x,1/2-y,1/2+z
_cell_length_a                   44.7055(12)
_cell_length_b                   25.9243(6)
_cell_length_c                   8.0798(2)
_cell_angle_alpha                90
_cell_angle_beta                 90
_cell_angle_gamma                90
_cell_volume                     9364.16
loop_
_atom_site_label
_atom_site_type_symbol
_atom_site_fract_x
_atom_site_fract_y
_atom_site_fract_z
Pr1 Pr 0.695122(5) 0.481620(9) 0.62650(3)
N1 N 0.69365(8) 0.57111(14) 0.7700(5)
C1 C 0.64416(11) 0.57948(18) 0.6590(6)
C2 C 0.66966(11) 0.60137(17) 0.7589(6)
C3 C 0.66813(11) 0.64950(17) 0.8377(6)
H1 H 0.6513 0.6702 0.8270
C4 C 0.69218(12) 0.66540(18) 0.9313(6)
H2 H 0.6919 0.6975 0.9829
C5 C 0.71682(11) 0.63332(18) 0.9481(6)
H3 H 0.7329 0.6427 1.0149
C6 C 0.71692(11) 0.58691(17) 0.8627(6)
C7 C 0.74289(11) 0.54921(17) 0.8730(6)
O1 O 0.64868(7) 0.53448(12) 0.6000(4)
O2 O 0.62081(7) 0.60506(13) 0.6411(4)
O3 O 0.74030(8) 0.50871(12) 0.7858(4)
O4 O 0.76406(8) 0.56056(12) 0.9658(4)
V1 V 0.721313(19) 0.35697(3) 0.89951(10)
N3 N 0.70676(9) 0.28089(14) 0.9144(5)
C15 C 0.74969(11) 0.26735(17) 0.7519(6)
C16 C 0.72379(11) 0.24444(18) 0.8458(6)
C17 C 0.71559(11) 0.19258(17) 0.8604(6)
H7 H 0.7268 0.1668 0.8102
C18 C 0.69038(12) 0.18080(18) 0.9513(6)
H8 H 0.6849 0.1465 0.9651
C19 C 0.67293(12) 0.21977(19) 1.0233(6)
H9 H 0.6558 0.2120 1.0834
C20 C 0.68230(11) 0.27038(18) 1.0012(6)
C21 C 0.66747(11) 0.31933(18) 1.0610(6)
O9 O 0.75035(8) 0.31787(12) 0.7692(4)
O10 O 0.76679(8) 0.24215(13) 0.6701(5)
O11 O 0.68235(8) 0.36046(12) 1.0206(4)
O12 O 0.64401(8) 0.31912(13) 1.1396(4)
O13 O 0.71263(8) 0.40132(12) 0.7633(4)
O14 O 0.74257(8) 0.37958(13) 1.0438(4)
O36 O 0.67305(9) 0.47510(13) 0.9155(4)
H17 H 0.6704 0.4473 0.969
H18 H 0.6671 0.5005 0.973
O37 O 0.65209(8) 0.41589(13) 0.6113(5)
H19 H 0.6378 0.427 0.552
H20 H 0.6457 0.3932 0.678
O38 O 0.67635(8) 0.47381(13) 0.3355(4)
H21 H 0.6607 0.4572 0.309
H22 H 0.6756 0.5039 0.294
O39 O 0.71779(8) 0.54708(12) 0.4376(4)
H23 H 0.727 0.5706 0.490
H24 H 0.7296 0.5331 0.368
Pr1A Pr 0.804878(5) 0.518380(9) 1.12650(3)
O4A O 0.73594(8) 0.43944(12) 0.4658(4)
Pr2 Pr 0.575501(6) 0.653501(9) 0.15041(3)
N2 N 0.62587(9) 0.66422(14) 0.2988(5)
C8 C 0.60289(11) 0.73557(18) 0.4406(6)
C9 C 0.63019(11) 0.70337(16) 0.4048(6)
C10 C 0.65774(11) 0.71267(17) 0.4790(6)
H4 H 0.6599 0.7395 0.5545
C11 C 0.68209(11) 0.68133(17) 0.4390(6)
H5 H 0.7009 0.6874 0.4844
C12 C 0.67752(11) 0.64080(18) 0.3295(6)
H6 H 0.6932 0.6191 0.3004
C13 C 0.64919(11) 0.63312(16) 0.2644(6)
C14 C 0.64160(10) 0.58947(17) 0.1465(6)
O5 O 0.57858(8) 0.72072(13) 0.3722(4)
O6 O 0.60599(8) 0.77382(13) 0.5321(5)
O7 O 0.61627(8) 0.59167(12) 0.0761(4)
O8 O 0.66064(8) 0.55478(12) 0.1266(4)
O40 O 0.53936(8) 0.71704(13) 0.0287(4)
H25 H 0.5270 0.7339 0.087
H26 H 0.5487 0.7371 -0.035
O41 O 0.57653(9) 0.64263(17) -0.1541(5)
H27 H 0.5925 0.636 -0.207
H28 H 0.5617 0.642 -0.219
O42 O 0.52716(8) 0.65416(14) 0.3138(5)
H29 H 0.5112 0.668 0.279
H30 H 0.5254 0.647 0.416
O43 O 0.54244(14) 0.5781(2) 0.0780(6)
H31 H 0.5421 0.559 -0.007
H32 H 0.5248 0.585 0.109
O44 O 0.57908(8) 0.59239(14) 0.3931(4)
H33 H 0.5642 0.5740 0.421
H34 H 0.5916 0.594 0.472
Pr2G Pr 0.575501(6) 0.846499(9) 0.65041(3)
O6G O 0.60599(8) 0.72618(13) 0.0321(5)
V2 V 0.55044(2) 0.36391(3) 0.03748(12)
N4 N 0.56600(9) 0.28818(16) 0.0136(5)
C22 C 0.60353(12) 0.3298(2) -0.1393(6)
C23 C 0.59041(11) 0.27969(19) -0.0784(6)
C24 C 0.59979(12) 0.2296(2) -0.1100(6)
H10 H 0.6166 0.2234 -0.1745
C25 C 0.58366(13) 0.1891(2) -0.0441(7)
H11 H 0.5897 0.1553 -0.0639
C26 C 0.55842(12) 0.1987(2) 0.0522(7)
H12 H 0.5474 0.1718 0.0979
C27 C 0.55021(11) 0.2497(2) 0.0776(6)
C28 C 0.52490(11) 0.2702(2) 0.1816(6)
O15 O 0.58791(8) 0.36964(14) -0.0939(5)
O16 O 0.62636(8) 0.33072(14) -0.2215(4)
O17 O 0.52256(8) 0.32005(14) 0.1732(5)
O18 O 0.50908(8) 0.24196(15) 0.2649(5)
O19 O 0.52722(10) 0.38815(18) -0.0931(7)
O20 O 0.55860(12) 0.40487(18) 0.1831(7)
O21 O 0.5960(4) 0.4812(6) 0.645(2)
O24 O 0.4606(4) 0.4979(6) 0.696(2)
O25 O 0.5967(3) 0.4908(4) 1.020(2)
O27 O 0.4543(2) 0.5036(4) 0.1372(12)
O29 O 0.5018(4) 0.5334(8) 0.282(3)
O33 O 0.4547(4) 0.5700(6) 0.512(2)
O34 O 0.52646(11) 0.6408(2) 0.6483(6)
H13 H 0.5104 0.649 0.698
H14 H 0.5292 0.6085 0.657
O35 O 0.62766(12) 0.42440(19) 0.2080(9)
H15 H 0.6339 0.3945 0.183
H16 H 0.618 0.424 0.300
O22? O 0.60400(16) 0.4670(3) 0.4865(9)
O23? O 0.4441(2) 0.5093(4) 0.6027(13)
O26? O 0.6037(2) 0.4941(3) 0.9413(18)
O28? O 0.4631(4) 0.4564(7) 0.246(2)
O30? O 0.4856(4) 0.4748(6) 0.4003(19)
O31? O 0.4571(9) 0.4834(15) 0.493(5)
O32? O 0.4668(4) 0.4477(7) 0.434(2)
O45? O 0.5615(7) 0.4665(11) 0.730(4)
O46? O 0.5079(4) 0.5529(7) 0.351(2)
loop_
_geom_bond_atom_site_label_1
_geom_bond_atom_site_label_2
_geom_bond_site_symmetry_1
_geom_bond_site_symmetry_2
Pr1 N1 1_555 1_555
N1 C2 1_555 1_555
C1 C2 1_555 1_555
C2 C3 1_555 1_555
C3 H1 1_555 1_555
C4 C3 1_555 1_555
H2 C4 1_555 1_555
C5 C4 1_555 1_555
H3 C5 1_555 1_555
C6 N1 1_555 1_555
C7 C6 1_555 1_555
O1 Pr1 1_555 1_555
O2 C1 1_555 1_555
O3 Pr1 1_555 1_555
O4 C7 1_555 1_555
Pr2 N2 1_555 1_555
N2 C9 1_555 1_555
C8 C9 1_555 1_555
C9 C10 1_555 1_555
C10 H4 1_555 1_555
C11 C10 1_555 1_555
H5 C11 1_555 1_555
C12 C11 1_555 1_555
H6 C12 1_555 1_555
C13 N2 1_555 1_555
C14 C13 1_555 1_555
O5 Pr2 1_555 1_555
O6 C8 1_555 1_555
O7 Pr2 1_555 1_555
O8 C14 1_555 1_555
V1 N3 1_555 1_555
N3 C16 1_555 1_555
C15 C16 1_555 1_555
C16 C17 1_555 1_555
C17 H7 1_555 1_555
C18 C17 1_555 1_555
H8 C18 1_555 1_555
C19 C18 1_555 1_555
H9 C19 1_555 1_555
C20 N3 1_555 1_555
C21 C20 1_555 1_555
O9 V1 1_555 1_555
O10 C15 1_555 1_555
O11 V1 1_555 1_555
O12 C21 1_555 1_555
O13 Pr1 1_555 1_555
O14 V1 1_555 1_555
V2 N4 1_555 1_555
N4 C23 1_555 1_555
C22 C23 1_555 1_555
C23 C24 1_555 1_555
C24 H10 1_555 1_555
C25 C24 1_555 1_555
H11 C25 1_555 1_555
C26 C25 1_555 1_555
H12 C26 1_555 1_555
C27 N4 1_555 1_555
C28 C27 1_555 1_555
O15 V2 1_555 1_555
O16 C22 1_555 1_555
O17 V2 1_555 1_555
O18 C28 1_555 1_555
O19 V2 1_555 1_555
O20 V2 1_555 1_555
O34 H13 1_555 1_555
H14 O34 1_555 1_555
O35 H15 1_555 1_555
H16 O35 1_555 1_555
O36 Pr1 1_555 1_555
H17 O36 1_555 1_555
H18 O36 1_555 1_555
O37 Pr1 1_555 1_555
H19 O37 1_555 1_555
H20 O37 1_555 1_555
O38 Pr1 1_555 1_555
H21 O38 1_555 1_555
H22 O38 1_555 1_555
O39 Pr1 1_555 1_555
H23 O39 1_555 1_555
H24 O39 1_555 1_555
O40 Pr2 1_555 1_555
H25 O40 1_555 1_555
H26 O40 1_555 1_555
O41 Pr2 1_555 1_555
H27 O41 1_555 1_555
H28 O41 1_555 1_555
O42 Pr2 1_555 1_555
H29 O42 1_555 1_555
H30 O42 1_555 1_555
O43 Pr2 1_555 1_555
H31 O43 1_555 1_555
H32 O43 1_555 1_555
O44 Pr2 1_555 1_555
H33 O44 1_555 1_555
H34 O44 1_555 1_555
Pr1A O4 1_555 1_555
O4A Pr1 1_555 1_555
Pr2G O6 1_555 1_555
O6G Pr2 1_555 1_555
C1 O1 1_555 1_555
C5 C6 1_555 1_555
C7 O3 1_555 1_555
C8 O5 1_555 1_555
C12 C13 1_555 1_555
C14 O7 1_555 1_555
V1 O13 1_555 1_555
C15 O9 1_555 1_555
C19 C20 1_555 1_555
C21 O11 1_555 1_555
C22 O15 1_555 1_555
C26 C27 1_555 1_555
C28 O17 1_555 1_555

#END
