
#######################################################################
#
#                 Cambridge Crystallographic Data Centre
#                                CCDC 
#
#######################################################################
#
# If this CIF has been generated from an entry in the Cambridge 
# Structural Database, then it will include bibliographic, chemical, 
# crystal, experimental, refinement or atomic coordinate data resulting 
# from the CCDC's data processing and validation procedures.
#
#######################################################################

data_KUHXIU
_symmetry_cell_setting           orthorhombic
_symmetry_space_group_name_H-M   'P 21 21 21'
_symmetry_Int_Tables_number      19
_space_group_name_Hall           'P 2ac 2ab'
loop_
_symmetry_equiv_pos_site_id
_symmetry_equiv_pos_as_xyz
1 x,y,z
2 1/2+x,1/2-y,-z
3 -x,1/2+y,1/2-z
4 1/2-x,-y,1/2+z
_cell_length_a                   11.663(1)
_cell_length_b                   12.884(2)
_cell_length_c                   14.939(2)
_cell_angle_alpha                90
_cell_angle_beta                 90
_cell_angle_gamma                90
_cell_volume                     2244.83
loop_
_atom_site_label
_atom_site_type_symbol
_atom_site_fract_x
_atom_site_fract_y
_atom_site_fract_z
Eu1 Eu 0.17642(4) 0.02679(4) 0.33246(4)
Eu2 Eu -0.05149(4) 0.26998(4) 0.33403(4)
K1 K 0.2660(2) 0.0180(2) 0.0870(2)
K2 K 0.2016(2) 0.2659(2) 0.4969(1)
O1 O -0.0137(6) 0.0986(5) 0.2566(5)
O2 O 0.0568(5) -0.0236(5) 0.1757(5)
C1 C -0.0243(8) 0.0364(8) 0.1953(6)
C2 C -0.1344(8) 0.0309(9) 0.1444(7)
O3 O 0.1614(9) -0.1290(6) 0.4493(5)
O4 O 0.0686(6) -0.1629(5) 0.3279(5)
C3 C 0.0820(11) -0.1771(8) 0.4086(7)
C4 C 0.0005(12) -0.2468(10) 0.4587(8)
O5 O 0.2632(6) 0.1588(5) 0.2205(5)
O6 O 0.1683(5) 0.2593(5) 0.3154(4)
C5 C 0.2273(8) 0.2462(9) 0.2452(6)
C6 C 0.2558(11) 0.3401(9) 0.1884(8)
O7 O 0.0646(6) 0.0965(6) 0.4663(5)
O8 O -0.1213(6) 0.1270(6) 0.4479(5)
C7 C -0.0418(10) 0.0919(8) 0.4903(8)
C8 C -0.0654(11) 0.0347(12) 0.5772(8)
O9 O 0.3218(6) -0.0791(5) 0.2486(4)
O10 O 0.2682(5) -0.2118(5) 0.1676(5)
C9 C 0.3238(9) -0.1738(9) 0.2318(6)
C10 C 0.3898(12) -0.2430(10) 0.2938(9)
O11 O 0.3294(6) 0.0889(5) 0.4440(4)
O12 O 0.4855(6) 0.1586(6) 0.5047(5)
C11 C 0.4374(9) 0.1022(7) 0.4489(6)
C12 C 0.5122(10) 0.0433(11) 0.3839(8)
Eu2B Eu 0.05149(4) -0.23002(4) 0.16597(4)
K1C K 0.2340(2) -0.0180(2) 0.5870(2)
Eu1B Eu -0.17642(4) 0.52679(4) 0.16754(4)
K1B K -0.2660(2) 0.5180(2) 0.4130(2)
K2A K -0.2984(2) 0.2341(2) 0.5031(1)
O2B O -0.0568(5) 0.4764(5) 0.3243(5)
O4B O -0.0686(6) 0.3371(5) 0.1721(5)
O10B O -0.2682(5) 0.2882(5) 0.3324(5)
O12A O -0.0145(6) 0.3414(6) 0.4953(5)
Eu1C Eu 0.32358(4) -0.02679(4) -0.16754(4)
K2C K 0.2984(2) -0.2659(2) -0.0031(1)
O3C O 0.3386(9) 0.1290(6) -0.0507(5)
O7C O 0.4354(6) -0.0965(6) -0.0337(5)
O11C O 0.1706(6) -0.0889(5) -0.0560(4)
Eu2A Eu 0.44851(4) 0.23002(4) 0.66597(4)
O8A O 0.3787(6) 0.3730(6) 0.5521(5)
O10C O 0.2318(5) 0.2118(5) 0.6676(5)
K2A_2 K 0.7016(2) 0.2341(2) 0.5031(1)
loop_
_geom_bond_atom_site_label_1
_geom_bond_atom_site_label_2
_geom_bond_site_symmetry_1
_geom_bond_site_symmetry_2
Eu1 O1 1_555 1_555
Eu2 O1 1_555 1_555
K1 O2 1_555 1_555
K2 O6 1_555 1_555
O1 C1 1_555 1_555
O2 Eu1 1_555 1_555
C1 O2 1_555 1_555
C2 C1 1_555 1_555
O3 Eu1 1_555 1_555
O4 Eu1 1_555 1_555
C3 O3 1_555 1_555
C4 C3 1_555 1_555
O5 Eu1 1_555 1_555
O6 Eu1 1_555 1_555
C5 O5 1_555 1_555
C6 C5 1_555 1_555
O7 Eu1 1_555 1_555
O8 Eu2 1_555 1_555
C7 O7 1_555 1_555
C8 C7 1_555 1_555
O9 Eu1 1_555 1_555
O10 K1 1_555 1_555
C9 O9 1_555 1_555
C10 C9 1_555 1_555
O11 Eu1 1_555 1_555
O12 C11 1_555 1_555
C11 O11 1_555 1_555
C12 C11 1_555 1_555
Eu2B O2 1_555 1_555
K1C O3 1_555 1_555
Eu1B O2B 1_555 1_555
K1B O2B 1_555 1_555
K2A O8 1_555 1_555
O2B Eu2 1_555 1_555
O4B Eu2 1_555 1_555
O10B Eu2 1_555 1_555
O12A Eu2 1_555 1_555
Eu1C O3C 1_555 1_555
K2C O10 1_555 1_555
O3C K1 1_555 1_555
O7C K1 1_555 1_555
O11C K1 1_555 1_555
Eu2A O12 1_555 1_555
O8A K2 1_555 1_555
O10C K2 1_555 1_555
K2A_2 O12 1_555 1_555
Eu2 O6 1_555 1_555
Eu2 O7 1_555 1_555
K1 O5 1_555 1_555
K1 O9 1_555 1_555
K2 O7 1_555 1_555
K2 O11 1_555 1_555
K2 O12A 1_555 1_555
O4 C3 1_555 1_555
O4 Eu2B 1_555 1_555
O6 C5 1_555 1_555
O7 K1C 1_555 1_555
O8 C7 1_555 1_555
O10 C9 1_555 1_555
O10 Eu2B 1_555 1_555
O11 K1C 1_555 1_555
K1C O10C 1_555 1_555
Eu1B O4B 1_555 1_555
K1B O10B 1_555 1_555
K2A O10B 1_555 1_555
Eu1C O7C 1_555 1_555
Eu1C O11C 1_555 1_555
K2C O7C 1_555 1_555
K2C O11C 1_555 1_555
Eu2A O8A 1_555 1_555
Eu2A O10C 1_555 1_555

#END
