
#######################################################################
#
#                 Cambridge Crystallographic Data Centre
#                                CCDC 
#
#######################################################################
#
# If this CIF has been generated from an entry in the Cambridge 
# Structural Database, then it will include bibliographic, chemical, 
# crystal, experimental, refinement or atomic coordinate data resulting 
# from the CCDC's data processing and validation procedures.
#
#######################################################################

data_KUHXIV
_symmetry_cell_setting           monoclinic
_symmetry_space_group_name_H-M   'P 21/c'
_symmetry_Int_Tables_number      14
_space_group_name_Hall           '-P 2ybc'
loop_
_symmetry_equiv_pos_site_id
_symmetry_equiv_pos_as_xyz
1 x,y,z
2 -x,1/2+y,1/2-z
3 -x,-y,-z
4 x,1/2-y,1/2+z
_cell_length_a                   6.5800(10)
_cell_length_b                   14.1540(10)
_cell_length_c                   7.395(2)
_cell_angle_alpha                90
_cell_angle_beta                 94.920(10)
_cell_angle_gamma                90
_cell_volume                     686.183
loop_
_atom_site_label
_atom_site_type_symbol
_atom_site_fract_x
_atom_site_fract_y
_atom_site_fract_z
Co1 Co 0.5000 0.00000 0.5000
N1 N 0.6285(4) -0.13599(14) 0.5078(3)
N2 N 0.8411(4) -0.25339(18) 0.4902(3)
H1 H 0.9521 -0.2838 0.4776
N3 N 0.7193(4) 0.04502(18) -0.2829(3)
N4 N 0.7054(4) 0.04210(18) 0.3013(3)
N5 N 0.8454(4) 0.09918(18) 0.0232(3)
C1 C 0.8181(4) -0.1585(2) 0.4846(4)
H2 H 0.9214 -0.1155 0.467
C2 C 0.6588(6) -0.2921(2) 0.5192(5)
H3 H 0.6298 -0.3561 0.5296
C3 C 0.5277(5) -0.2199(2) 0.5300(5)
H4 H 0.3905 -0.2257 0.5495
C4 C 0.7727(4) 0.06780(18) -0.1370(3)
C5 C 0.7673(4) 0.06660(18) 0.1679(3)
Co1_2 Co 0.5000 0.00000 -0.5000
Co1_3 Co 0.5000 0.00000 1.5000
N1B N 0.3715(4) 0.13599(14) 0.4922(3)
N2B N 0.1589(4) 0.25339(18) 0.5098(3)
H1B H 0.0479 0.2838 0.5224
N3_2 N 0.7193(4) 0.04502(18) 0.7171(3)
N3B N 0.2807(4) -0.04502(18) 0.2829(3)
N4_2 N 0.7054(4) 0.04210(18) 1.3013(3)
N4B N 0.2946(4) -0.04210(18) 0.6987(3)
N5_2 N 0.8454(4) 0.09918(18) 1.0232(3)
C1B C 0.1819(4) 0.1585(2) 0.5154(4)
H2B H 0.0786 0.1155 0.533
C2B C 0.3412(6) 0.2921(2) 0.4808(5)
H3B H 0.3702 0.3561 0.4704
C3B C 0.4723(5) 0.2199(2) 0.4700(5)
H4B H 0.6095 0.2257 0.4505
C4_2 C 0.7727(4) 0.06780(18) 0.8630(3)
C5_2 C 0.7673(4) 0.06660(18) 1.1679(3)
loop_
_geom_bond_atom_site_label_1
_geom_bond_atom_site_label_2
_geom_bond_site_symmetry_1
_geom_bond_site_symmetry_2
Co1 N1 1_555 1_555
N1 C1 1_555 1_555
N2 H1 1_555 1_555
N3 C4 1_555 1_555
N4 Co1 1_555 1_555
N5 C4 1_555 1_555
C1 N2 1_555 1_555
H2 C1 1_555 1_555
C2 N2 1_555 1_555
H3 C2 1_555 1_555
C3 N1 1_555 1_555
H4 C3 1_555 1_555
C5 N4 1_555 1_555
Co1_2 N3 1_555 1_555
Co1_3 N4_2 1_555 1_555
N1B Co1 1_555 1_555
N2B H1B 1_555 1_555
N3_2 Co1 1_555 1_555
N3B Co1 1_555 1_555
N4_2 C5_2 1_555 1_555
N4B Co1 1_555 1_555
N5_2 C4_2 1_555 1_555
C1B N1B 1_555 1_555
H2B C1B 1_555 1_555
C2B N2B 1_555 1_555
H3B C2B 1_555 1_555
C3B N1B 1_555 1_555
H4B C3B 1_555 1_555
C4_2 N3_2 1_555 1_555
C5_2 N5_2 1_555 1_555
N5 C5 1_555 1_555
C2 C3 1_555 1_555
N2B C1B 1_555 1_555
C2B C3B 1_555 1_555

#END
