
#######################################################################
#
#                 Cambridge Crystallographic Data Centre
#                                CCDC 
#
#######################################################################
#
# If this CIF has been generated from an entry in the Cambridge 
# Structural Database, then it will include bibliographic, chemical, 
# crystal, experimental, refinement or atomic coordinate data resulting 
# from the CCDC's data processing and validation procedures.
#
#######################################################################

data_KUHXIV01
_symmetry_cell_setting           monoclinic
_symmetry_space_group_name_H-M   'P 21/c'
_symmetry_Int_Tables_number      14
_space_group_name_Hall           '-P 2ybc'
loop_
_symmetry_equiv_pos_site_id
_symmetry_equiv_pos_as_xyz
1 x,y,z
2 -x,1/2+y,1/2-z
3 -x,-y,-z
4 x,1/2-y,1/2+z
_cell_length_a                   6.5665(4)
_cell_length_b                   14.1214(8)
_cell_length_c                   7.3585(5)
_cell_angle_alpha                90
_cell_angle_beta                 94.8456(11)
_cell_angle_gamma                90
_cell_volume                     679.902
loop_
_atom_site_label
_atom_site_type_symbol
_atom_site_fract_x
_atom_site_fract_y
_atom_site_fract_z
Co1 Co 0.0000 0.0000 0.5000
N1 N 0.1285(4) 0.13588(17) 0.5087(3)
N2 N 0.3414(5) 0.2535(2) 0.4894(3)
N3 N -0.2193(4) 0.0452(2) 0.2825(3)
N4 N -0.3463(4) 0.0993(2) -0.0236(3)
N5 N -0.2055(4) 0.0419(2) -0.3017(3)
C1 C 0.3177(5) 0.1589(2) 0.4842(4)
C2 C 0.1586(6) 0.2929(2) 0.5186(5)
C3 C 0.0281(6) 0.2201(2) 0.5301(5)
C4 C -0.2735(3) 0.06762(19) 0.1364(3)
C5 C -0.2669(4) 0.06644(19) -0.1679(3)
H1 H 0.4647 0.2869 0.4751
H2 H 0.4233 0.1149 0.4653
H3 H 0.1288 0.3584 0.5287
H4 H -0.1123 0.2261 0.5502
Co1_2 Co 0.0000 0.0000 -0.5000
N1B N -0.1285(4) -0.13588(17) 0.4913(3)
N2B N -0.3414(5) -0.2535(2) 0.5106(3)
N3B N 0.2193(4) -0.0452(2) -0.2825(3)
N3B_2 N 0.2193(4) -0.0452(2) 0.7175(3)
N4B N 0.3463(4) -0.0993(2) 0.0236(3)
N5B N 0.2055(4) -0.0419(2) 0.3017(3)
N5_2 N -0.2055(4) 0.0419(2) 0.6983(3)
C1B C -0.3177(5) -0.1589(2) 0.5158(4)
C2B C -0.1586(6) -0.2929(2) 0.4814(5)
C3B C -0.0281(6) -0.2201(2) 0.4699(5)
C4B C 0.2735(3) -0.06762(19) -0.1364(3)
C5B C 0.2669(4) -0.06644(19) 0.1679(3)
H1B H -0.4647 -0.2869 0.5249
H2B H -0.4233 -0.1149 0.5347
H3B H -0.1288 -0.3584 0.4713
H4B H 0.1123 -0.2261 0.4498
loop_
_geom_bond_atom_site_label_1
_geom_bond_atom_site_label_2
_geom_bond_site_symmetry_1
_geom_bond_site_symmetry_2
Co1 N1 1_555 1_555
N1 C1 1_555 1_555
N2 C1 1_555 1_555
N3 Co1 1_555 1_555
N4 C4 1_555 1_555
N5 C5 1_555 1_555
C1 H2 1_555 1_555
C2 N2 1_555 1_555
C3 N1 1_555 1_555
C4 N3 1_555 1_555
C5 N4 1_555 1_555
H1 N2 1_555 1_555
H3 C2 1_555 1_555
H4 C3 1_555 1_555
Co1_2 N5 1_555 1_555
N1B Co1 1_555 1_555
N2B C1B 1_555 1_555
N3B Co1_2 1_555 1_555
N3B_2 Co1 1_555 1_555
N4B C4B 1_555 1_555
N5B Co1 1_555 1_555
N5_2 Co1 1_555 1_555
C1B N1B 1_555 1_555
C2B N2B 1_555 1_555
C3B N1B 1_555 1_555
C4B N3B 1_555 1_555
C5B N4B 1_555 1_555
H1B N2B 1_555 1_555
H2B C1B 1_555 1_555
H3B C2B 1_555 1_555
H4B C3B 1_555 1_555
C2 C3 1_555 1_555
N5B C5B 1_555 1_555
C2B C3B 1_555 1_555

#END
