
#######################################################################
#
#                 Cambridge Crystallographic Data Centre
#                                CCDC 
#
#######################################################################
#
# If this CIF has been generated from an entry in the Cambridge 
# Structural Database, then it will include bibliographic, chemical, 
# crystal, experimental, refinement or atomic coordinate data resulting 
# from the CCDC's data processing and validation procedures.
#
#######################################################################

data_KUHYUI
_symmetry_cell_setting           monoclinic
_symmetry_space_group_name_H-M   'P 2/n'
_symmetry_Int_Tables_number      13
_space_group_name_Hall           '-P 2yac'
loop_
_symmetry_equiv_pos_site_id
_symmetry_equiv_pos_as_xyz
1 x,y,z
2 1/2-x,y,1/2-z
3 -x,-y,-z
4 1/2+x,-y,1/2+z
_cell_length_a                   16.948(3)
_cell_length_b                   11.144(2)
_cell_length_c                   17.273(3)
_cell_angle_alpha                90
_cell_angle_beta                 99.373(3)
_cell_angle_gamma                90
_cell_volume                     3218.77
loop_
_atom_site_label
_atom_site_type_symbol
_atom_site_fract_x
_atom_site_fract_y
_atom_site_fract_z
Cu1 Cu 0.2500 0.15947(8) 0.2500
Cu2 Cu 0.24765(4) 0.06452(6) 0.55466(4)
Cu3 Cu 0.2500 0.05877(8) 0.7500
S1 S 0.06252(8) 0.22454(13) 0.20895(8)
O1 O 0.1649(2) 0.0672(3) 0.4604(2)
O2 O 0.2477(2) 0.1431(3) 0.3855(2)
O3 O 0.0841(2) 0.2576(3) 0.1346(2)
O4 O -0.0137(2) 0.1633(3) 0.2069(2)
O5 O 0.0022(3) 0.6850(4) 0.4458(3)
O6 O -0.0063(3) 0.7876(4) 0.3345(3)
O7 O 0.3044(2) 0.0573(3) 0.6600(2)
H1 H 0.3599 0.0529 0.6681
N1 N 0.2500 0.3418(5) 0.2500
N2 N 0.2500 0.9729(5) 0.2500
N3 N 0.2533(3) -0.1178(4) 0.5433(3)
N4 N 0.2553(3) -0.7528(4) 0.5506(3)
N5 N 0.2500 -0.1242(6) 0.7500
N6 N 0.2500 -0.7573(6) 0.7500
N7 N 0.1325(3) 0.1497(4) 0.2558(3)
C1 C 0.1819(3) 0.1019(5) 0.3951(3)
C2 C 0.1167(3) 0.0826(5) 0.3253(3)
H14 H 0.1127 -0.0023 0.3129
H15 H 0.0659 0.1083 0.3386
C3 C 0.0488(3) 0.3628(5) 0.2570(3)
C4 C 0.0371(4) 0.3637(5) 0.3347(4)
H16 H 0.0378 0.2915 0.3618
C5 C 0.0244(3) 0.4687(5) 0.3725(4)
H17 H 0.0162 0.4666 0.4245
C6 C 0.0237(3) 0.5786(5) 0.3337(4)
C7 C 0.0353(4) 0.5784(5) 0.2559(4)
H18 H 0.0344 0.6506 0.2287
C8 C 0.0485(3) 0.4715(5) 0.2182(4)
H19 H 0.0571 0.4731 0.1664
C9 C 0.0054(3) 0.6933(6) 0.3744(4)
C10 C 0.2530(3) 0.4031(5) 0.3169(3)
H20 H 0.2550 0.3610 0.3636
C11 C 0.2534(4) 0.5252(5) 0.3189(3)
H21 H 0.2559 0.5646 0.3667
C12 C 0.2500 0.5919(6) 0.2500
C13 C 0.2500 0.7234(6) 0.2500
C14 C 0.2987(3) 0.7873(5) 0.3077(3)
H22 H 0.3316 0.7478 0.3480
C15 C 0.2973(3) 0.9108(5) 0.3039(4)
H23 H 0.3317 0.9531 0.3417
C16 C 0.3186(3) -0.1785(5) 0.5759(3)
H24 H 0.3627 -0.1354 0.6004
C17 C 0.3233(3) -0.3006(5) 0.5748(3)
H25 H 0.3703 -0.3383 0.5977
C18 C 0.2590(3) -0.3694(5) 0.5399(3)
C19 C 0.1922(3) -0.3054(5) 0.5043(4)
H26 H 0.1477 -0.3460 0.4783
C20 C 0.1922(3) -0.1828(5) 0.5076(3)
H27 H 0.1468 -0.1425 0.4834
C21 C 0.2580(3) -0.5011(5) 0.5413(3)
C22 C 0.3265(3) -0.5699(5) 0.5425(3)
H28 H 0.3750 -0.5325 0.5397
C23 C 0.3232(4) -0.6924(5) 0.5480(3)
H29 H 0.3704 -0.7357 0.5500
C24 C 0.1888(4) -0.6881(5) 0.5482(3)
H30 H 0.1410 -0.7285 0.5495
C25 C 0.1869(3) -0.5646(5) 0.5439(3)
H31 H 0.1389 -0.5237 0.5427
C26 C 0.3171(4) -0.1854(5) 0.7750(4)
H32 H 0.3640 -0.1432 0.7920
C27 C 0.3189(3) -0.3082(5) 0.7765(3)
H33 H 0.3664 -0.3478 0.7954
C28 C 0.2500 -0.3741(6) 0.7500
C29 C 0.2500 -0.5066(7) 0.7500
C30 C 0.3183(3) -0.5714(5) 0.7421(3)
H34 H 0.3655 -0.5318 0.7371
C31 C 0.3152(4) -0.6952(5) 0.7418(3)
H35 H 0.3611 -0.7374 0.7356
Cu1_2 Cu 0.2500 1.15947(8) 0.2500
Cu2A Cu 0.25235(4) 0.06452(6) -0.05466(4)
Cu2_2 Cu 0.24765(4) -0.93548(6) 0.55466(4)
Cu2_3 Cu 0.24765(4) 1.06452(6) 0.55466(4)
Cu3_2 Cu 0.2500 -0.94123(8) 0.7500
Cu3_3 Cu 0.2500 0.05877(8) -0.2500
S1A S 0.43748(8) 0.22454(13) 0.29105(8)
O1A O 0.3351(2) 0.0672(3) 0.0396(2)
O2A O 0.2523(2) 0.1431(3) 0.1145(2)
O3A O 0.4159(2) 0.2576(3) 0.3654(2)
O4A O 0.5137(2) 0.1633(3) 0.2931(2)
O5A O 0.4978(3) 0.6850(4) 0.0542(3)
O6A O 0.5063(3) 0.7876(4) 0.1655(3)
O7A O 0.1956(2) 0.0573(3) -0.1600(2)
O7A_2 O 0.1956(2) 0.0573(3) 0.8400(2)
H1A H 0.1401 0.0529 -0.1681
H1A_2 H 0.1401 0.0529 0.8319
N2_2 N 0.2500 -0.0271(5) 0.2500
N3_2 N 0.2533(3) 0.8822(4) 0.5433(3)
N3A N 0.2467(3) -0.1178(4) -0.0433(3)
N4_2 N 0.2553(3) 0.2472(4) 0.5506(3)
N4A N 0.2447(3) 0.2472(4) -0.0506(3)
N6_2 N 0.2500 0.2427(6) 0.7500
N7A N 0.3675(3) 0.1497(4) 0.2442(3)
C1A C 0.3181(3) 0.1019(5) 0.1049(3)
C2A C 0.3833(3) 0.0826(5) 0.1747(3)
H14A H 0.3873 -0.0023 0.1871
H15A H 0.4341 0.1083 0.1614
C3A C 0.4512(3) 0.3628(5) 0.2430(3)
C4A C 0.4629(4) 0.3637(5) 0.1653(4)
H16A H 0.4622 0.2915 0.1382
C5A C 0.4756(3) 0.4687(5) 0.1275(4)
H17A H 0.4838 0.4666 0.0755
C6A C 0.4763(3) 0.5786(5) 0.1663(4)
C7A C 0.4647(4) 0.5784(5) 0.2441(4)
H18A H 0.4656 0.6506 0.2713
C8A C 0.4515(3) 0.4715(5) 0.2818(4)
H19A H 0.4429 0.4731 0.3336
C9A C 0.4946(3) 0.6933(6) 0.1256(4)
C10A C 0.2470(3) 0.4031(5) 0.1831(3)
H20A H 0.2450 0.3610 0.1364
C11A C 0.2466(4) 0.5252(5) 0.1811(3)
H21A H 0.2441 0.5646 0.1333
C14A C 0.2013(3) 0.7873(5) 0.1923(3)
H22A H 0.1684 0.7478 0.1520
C15A C 0.2027(3) 0.9108(5) 0.1961(4)
H23A H 0.1683 0.9531 0.1583
C16_2 C 0.3186(3) 0.8215(5) 0.5759(3)
H24_2 H 0.3627 0.8646 0.6004
C17_2 C 0.3233(3) 0.6994(5) 0.5748(3)
H25_2 H 0.3703 0.6617 0.5977
C18_2 C 0.2590(3) 0.6306(5) 0.5399(3)
C19_2 C 0.1922(3) 0.6946(5) 0.5043(4)
H26_2 H 0.1477 0.6540 0.4783
C20_2 C 0.1922(3) 0.8172(5) 0.5076(3)
H27_2 H 0.1468 0.8575 0.4834
C21_2 C 0.2580(3) 0.4989(5) 0.5413(3)
C22_2 C 0.3265(3) 0.4301(5) 0.5425(3)
H28_2 H 0.3750 0.4675 0.5397
C23_2 C 0.3232(4) 0.3076(5) 0.5480(3)
H29_2 H 0.3704 0.2643 0.5500
C24_2 C 0.1888(4) 0.3119(5) 0.5482(3)
H30_2 H 0.1410 0.2715 0.5495
C25_2 C 0.1869(3) 0.4354(5) 0.5439(3)
H31_2 H 0.1389 0.4763 0.5427
C26A C 0.1829(4) -0.1854(5) 0.7250(4)
H32A H 0.1360 -0.1432 0.7080
C27A C 0.1811(3) -0.3082(5) 0.7235(3)
H33A H 0.1336 -0.3478 0.7046
C30A C 0.1817(3) -0.5714(5) 0.7579(3)
H34A H 0.1345 -0.5318 0.7629
C31A C 0.1848(4) -0.6952(5) 0.7582(3)
H35A H 0.1389 -0.7374 0.7644
O8 O 0.0158(5) 0.6213(6) 0.0038(6)
H2 H 0.0075 0.5461 0.0030
H3 H -0.0027 0.6544 -0.0349
O9 O 0.0336(2) 0.8530(3) 0.05794(19)
H4 H 0.0141 0.8763 0.0965
H5 H 0.0398 0.7788 0.0591
O10 O 0.3812(2) 0.0526(3) 0.48567(19)
H6 H 0.4219 0.0881 0.5075
H7 H 0.3595 0.0891 0.4461
O11 O 0.1225(2) 0.0552(4) 0.6288(2)
H8 H 0.1005 -0.0016 0.6030
H9 H 0.0895 0.0992 0.6453
O12 O 0.9771(3) 0.9074(4) 0.1948(3)
H10 H 0.9800 0.8670 0.2353
H11 H 0.9671 0.9784 0.2016
O13 O 0.5129(3) 0.1201(4) 0.0464(3)
H12 H 0.5060 0.1820 0.0191
H13 H 0.4714 0.0788 0.0401
loop_
_geom_bond_atom_site_label_1
_geom_bond_atom_site_label_2
_geom_bond_site_symmetry_1
_geom_bond_site_symmetry_2
Cu1 O2 1_555 1_555
Cu2 O1 1_555 1_555
Cu3 O7 1_555 1_555
S1 O3 1_555 1_555
O1 C1 1_555 1_555
O2 C1 1_555 1_555
O4 S1 1_555 1_555
O5 C9 1_555 1_555
O6 C9 1_555 1_555
O7 Cu2 1_555 1_555
H1 O7 1_555 1_555
O8 H2 1_555 1_555
H3 O8 1_555 1_555
O9 H4 1_555 1_555
H5 O9 1_555 1_555
O10 H6 1_555 1_555
H7 O10 1_555 1_555
O11 H8 1_555 1_555
H9 O11 1_555 1_555
O12 H10 1_555 1_555
H11 O12 1_555 1_555
O13 H12 1_555 1_555
H13 O13 1_555 1_555
N1 Cu1 1_555 1_555
N2 C15 1_555 1_555
N3 Cu2 1_555 1_555
N4 C23 1_555 1_555
N5 Cu3 1_555 1_555
N6 C31 1_555 1_555
N7 Cu1 1_555 1_555
C1 C2 1_555 1_555
C2 N7 1_555 1_555
H14 C2 1_555 1_555
H15 C2 1_555 1_555
C3 S1 1_555 1_555
C4 C3 1_555 1_555
H16 C4 1_555 1_555
C5 C4 1_555 1_555
H17 C5 1_555 1_555
C6 C5 1_555 1_555
C7 C6 1_555 1_555
H18 C7 1_555 1_555
C8 C3 1_555 1_555
H19 C8 1_555 1_555
C9 C6 1_555 1_555
C10 N1 1_555 1_555
H20 C10 1_555 1_555
C11 C10 1_555 1_555
H21 C11 1_555 1_555
C12 C11 1_555 1_555
C13 C12 1_555 1_555
C14 C13 1_555 1_555
H22 C14 1_555 1_555
C15 C14 1_555 1_555
H23 C15 1_555 1_555
C16 N3 1_555 1_555
H24 C16 1_555 1_555
C17 C16 1_555 1_555
H25 C17 1_555 1_555
C18 C17 1_555 1_555
C19 C18 1_555 1_555
H26 C19 1_555 1_555
C20 N3 1_555 1_555
H27 C20 1_555 1_555
C21 C18 1_555 1_555
C22 C21 1_555 1_555
H28 C22 1_555 1_555
C23 C22 1_555 1_555
H29 C23 1_555 1_555
C24 N4 1_555 1_555
H30 C24 1_555 1_555
C25 C21 1_555 1_555
H31 C25 1_555 1_555
C26 N5 1_555 1_555
H32 C26 1_555 1_555
C27 C26 1_555 1_555
H33 C27 1_555 1_555
C28 C27 1_555 1_555
C29 C28 1_555 1_555
C30 C29 1_555 1_555
H34 C30 1_555 1_555
C31 C30 1_555 1_555
H35 C31 1_555 1_555
Cu1_2 N2 1_555 1_555
Cu2A O1A 1_555 1_555
Cu2_2 N4 1_555 1_555
Cu2_3 N3_2 1_555 1_555
Cu3_2 N6 1_555 1_555
Cu3_3 O7A 1_555 1_555
S1A O3A 1_555 1_555
O1A C1A 1_555 1_555
O2A Cu1 1_555 1_555
O4A S1A 1_555 1_555
O5A C9A 1_555 1_555
O6A C9A 1_555 1_555
O7A Cu2A 1_555 1_555
O7A_2 Cu3 1_555 1_555
H1A O7A 1_555 1_555
H1A_2 O7A_2 1_555 1_555
N2_2 Cu1 1_555 1_555
N3_2 C16_2 1_555 1_555
N3A Cu2A 1_555 1_555
N4_2 Cu2 1_555 1_555
N4A Cu2A 1_555 1_555
N6_2 Cu3 1_555 1_555
N7A Cu1 1_555 1_555
C1A O2A 1_555 1_555
C2A N7A 1_555 1_555
H14A C2A 1_555 1_555
H15A C2A 1_555 1_555
C3A S1A 1_555 1_555
C4A C3A 1_555 1_555
H16A C4A 1_555 1_555
C5A C4A 1_555 1_555
H17A C5A 1_555 1_555
C6A C5A 1_555 1_555
C7A C6A 1_555 1_555
H18A C7A 1_555 1_555
C8A C3A 1_555 1_555
H19A C8A 1_555 1_555
C9A C6A 1_555 1_555
C10A N1 1_555 1_555
H20A C10A 1_555 1_555
C11A C12 1_555 1_555
H21A C11A 1_555 1_555
C14A C13 1_555 1_555
H22A C14A 1_555 1_555
C15A N2 1_555 1_555
H23A C15A 1_555 1_555
C16_2 H24_2 1_555 1_555
C17_2 C16_2 1_555 1_555
H25_2 C17_2 1_555 1_555
C18_2 C17_2 1_555 1_555
C19_2 C18_2 1_555 1_555
H26_2 C19_2 1_555 1_555
C20_2 N3_2 1_555 1_555
H27_2 C20_2 1_555 1_555
C21_2 C18_2 1_555 1_555
C22_2 C21_2 1_555 1_555
H28_2 C22_2 1_555 1_555
C23_2 N4_2 1_555 1_555
H29_2 C23_2 1_555 1_555
C24_2 N4_2 1_555 1_555
H30_2 C24_2 1_555 1_555
C25_2 C21_2 1_555 1_555
H31_2 C25_2 1_555 1_555
C26A N5 1_555 1_555
H32A C26A 1_555 1_555
C27A C28 1_555 1_555
H33A C27A 1_555 1_555
C30A C29 1_555 1_555
H34A C30A 1_555 1_555
C31A N6 1_555 1_555
H35A C31A 1_555 1_555
S1 N7 1_555 1_555
C7 C8 1_555 1_555
C19 C20 1_555 1_555
C24 C25 1_555 1_555
S1A N7A 1_555 1_555
C1A C2A 1_555 1_555
C7A C8A 1_555 1_555
C10A C11A 1_555 1_555
C14A C15A 1_555 1_555
C19_2 C20_2 1_555 1_555
C22_2 C23_2 1_555 1_555
C24_2 C25_2 1_555 1_555
C26A C27A 1_555 1_555
C30A C31A 1_555 1_555

#END
