
#######################################################################
#
#                 Cambridge Crystallographic Data Centre
#                                CCDC 
#
#######################################################################
#
# If this CIF has been generated from an entry in the Cambridge 
# Structural Database, then it will include bibliographic, chemical, 
# crystal, experimental, refinement or atomic coordinate data resulting 
# from the CCDC's data processing and validation procedures.
#
#######################################################################

data_KUHYOC
_symmetry_cell_setting           monoclinic
_symmetry_space_group_name_H-M   'C 2/c'
_symmetry_Int_Tables_number      15
_space_group_name_Hall           '-C 2yn'
loop_
_symmetry_equiv_pos_site_id
_symmetry_equiv_pos_as_xyz
1 x,y,z
2 -x,y,1/2-z
3 1/2+x,1/2+y,z
4 1/2-x,1/2+y,1/2-z
5 -x,-y,-z
6 x,-y,1/2+z
7 1/2-x,1/2-y,-z
8 1/2+x,1/2-y,1/2+z
_cell_length_a                   24.906(2)
_cell_length_b                   14.9985(12)
_cell_length_c                   17.3262(14)
_cell_angle_alpha                90
_cell_angle_beta                 117.1990(10)
_cell_angle_gamma                90
_cell_volume                     5756.57
loop_
_atom_site_label
_atom_site_type_symbol
_atom_site_fract_x
_atom_site_fract_y
_atom_site_fract_z
Co1 Co 0.5000 0.23654(3) 0.2500
Co2 Co 0.576329(13) 0.24260(2) 0.00505(2)
S1 S 0.61244(3) 0.45014(5) -0.00025(4)
O1 O 0.59918(8) 0.23390(15) -0.10156(12)
H1 H 0.6015 0.2886 -0.1045
H2 H 0.5699 0.2128 -0.1433
O2 O 0.56454(8) 0.10495(12) -0.00074(11)
H3 H 0.5717 0.0785 0.0457
H4 H 0.5765 0.0735 -0.0298
O3 O 0.50856(7) 0.12845(11) 0.17343(10)
H5 H 0.5195 0.1589 0.1433
H6 H 0.5312 0.0859 0.1962
O9 O 0.52075(7) 0.33392(11) 0.18037(10)
O10 O 0.54847(7) 0.24605(11) 0.10156(11)
O11 O 0.61602(8) 0.41631(15) -0.07641(11)
O12 O 0.58569(8) 0.53681(14) -0.00790(15)
O13 O 0.91441(7) 0.48672(12) 0.25194(11)
O14 O 0.88071(9) 0.52200(15) 0.34713(12)
N1 N 0.59456(8) 0.24080(13) 0.34446(12)
N2 N 0.67129(8) 0.22532(14) 0.10159(13)
N3 N 0.98198(9) 0.24330(14) 0.40874(13)
N4 N 0.58203(8) 0.37680(14) 0.03083(12)
C1 C 0.63761(11) 0.20103(19) 0.33222(17)
H15 H 0.6262 0.1704 0.2804
C2 C 0.69783(11) 0.2018(2) 0.39069(17)
H16 H 0.7254 0.1711 0.3783
C3 C 0.71763(10) 0.24806(16) 0.46784(15)
C4 C 0.67294(12) 0.2898(2) 0.4808(2)
H17 H 0.6832 0.3216 0.5317
C5 C 0.61344(12) 0.2849(2) 0.41925(19)
H18 H 0.5847 0.3139 0.4304
C6 C 0.96166(11) 0.17730(18) 0.35020(17)
H19 H 0.9893 0.1355 0.3504
C7 C 0.90176(10) 0.16796(17) 0.28941(16)
H20 H 0.8901 0.1219 0.2491
C8 C 0.85908(10) 0.22801(16) 0.28915(15)
C9 C 0.88013(11) 0.29493(18) 0.35175(16)
H21 H 0.8532 0.3358 0.3551
C10 C 0.94058(11) 0.30070(18) 0.40861(17)
H22 H 0.9535 0.3467 0.4491
C11 C 0.69115(11) 0.26720(18) 0.17824(16)
H23 H 0.6631 0.2974 0.1901
C12 C 0.75082(11) 0.26791(17) 0.24045(16)
H24 H 0.7619 0.2976 0.2927
C13 C 0.79435(10) 0.22431(16) 0.22514(15)
C14 C 0.77378(11) 0.17923(18) 0.14616(16)
H25 H 0.8007 0.1478 0.1330
C15 C 0.71285(11) 0.18168(18) 0.08747(16)
H26 H 0.7002 0.1512 0.0353
C16 C 0.87263(11) 0.49705(17) 0.27412(16)
C17 C 0.80838(10) 0.48191(16) 0.20604(15)
C18 C 0.76177(11) 0.52265(17) 0.21551(16)
H27 H 0.7705 0.5559 0.2651
C19 C 0.70265(11) 0.51464(17) 0.15252(17)
H28 H 0.6720 0.5437 0.1591
C20 C 0.68912(10) 0.46336(17) 0.07966(15)
C21 C 0.73534(11) 0.41999(18) 0.07043(16)
H29 H 0.7263 0.3842 0.0222
C22 C 0.79445(11) 0.43000(17) 0.13275(16)
H30 H 0.8252 0.4019 0.1257
C23 C 0.56030(11) 0.40346(16) 0.09376(16)
H31 H 0.5261 0.4434 0.0659
H32 H 0.5921 0.4351 0.1417
C24 C 0.54175(9) 0.32234(16) 0.12772(14)
Co1F Co 1.0000 0.26346(3) 0.7500
Co2A Co 0.423671(13) 0.24260(2) 0.49495(2)
Co2G Co 1.076329(13) 0.25740(2) 0.50505(2)
Co2G_2 Co 0.076329(13) 0.25740(2) -0.49495(2)
S1A S 0.38756(3) 0.45014(5) 0.50025(4)
O1A O 0.40082(8) 0.23390(15) 0.60156(12)
H1A H 0.3985 0.2886 0.6045
H2A H 0.4301 0.2128 0.6433
O2A O 0.43546(8) 0.10495(12) 0.50074(11)
H3A H 0.4283 0.0785 0.4543
H4A H 0.4235 0.0735 0.5298
O3A O 0.49144(7) 0.12845(11) 0.32657(10)
H5A H 0.4805 0.1589 0.3567
H6A H 0.4688 0.0859 0.3038
O9A O 0.47925(7) 0.33392(11) 0.31963(10)
O10A O 0.45153(7) 0.24605(11) 0.39844(11)
O11A O 0.38398(8) 0.41631(15) 0.57641(11)
O12A O 0.41431(8) 0.53681(14) 0.50790(15)
O13A O 0.08559(7) 0.48672(12) 0.24806(11)
O14A O 0.11929(9) 0.52200(15) 0.15287(12)
N1F N 0.90544(8) 0.25920(13) 0.65554(12)
N1A N 0.40544(8) 0.24080(13) 0.15554(12)
N2G N 0.17129(8) 0.27468(14) -0.39841(13)
N2A N 0.32871(8) 0.22532(14) 0.39841(13)
N3G N 0.48198(9) 0.25670(14) -0.09126(13)
N3F N 0.51802(9) 0.25670(14) 0.59126(13)
N4A N 0.41797(8) 0.37680(14) 0.46917(12)
C1F C 0.86239(11) 0.29897(19) 0.66778(17)
H15F H 0.8738 0.3296 0.7196
C2F C 0.80217(11) 0.2982(2) 0.60931(17)
H16F H 0.7746 0.3289 0.6217
C3F C 0.78237(10) 0.25194(16) 0.53216(15)
C4F C 0.82706(12) 0.2102(2) 0.5192(2)
H17F H 0.8168 0.1784 0.4683
C5F C 0.88656(12) 0.2151(2) 0.58075(19)
H18F H 0.9153 0.1861 0.5696
C6G C 0.46166(11) 0.32270(18) -0.14980(17)
H19G H 0.4893 0.3645 -0.1496
C7G C 0.40176(10) 0.33204(17) -0.21059(16)
H20G H 0.3901 0.3781 -0.2509
C8G C 0.35908(10) 0.27199(16) -0.21085(15)
C9G C 0.38013(11) 0.20507(18) -0.14825(16)
H21G H 0.3532 0.1642 -0.1449
C10G C 0.44058(11) 0.19930(18) -0.09139(17)
H22G H 0.4535 0.1533 -0.0509
C11G C 0.19115(11) 0.23280(18) -0.32176(16)
H23G H 0.1631 0.2026 -0.3099
C12G C 0.25082(11) 0.23209(17) -0.25955(16)
H24G H 0.2619 0.2024 -0.2073
C13G C 0.29435(10) 0.27569(16) -0.27486(15)
C14G C 0.27378(11) 0.32077(18) -0.35384(16)
H25G H 0.3007 0.3522 -0.3670
C15G C 0.21285(11) 0.31832(18) -0.41253(16)
H26G H 0.2002 0.3488 -0.4647
C16A C 0.12737(11) 0.49705(17) 0.22588(16)
C17A C 0.19162(10) 0.48191(16) 0.29396(15)
C18A C 0.23823(11) 0.52265(17) 0.28449(16)
H27A H 0.2295 0.5559 0.2349
C19A C 0.29735(11) 0.51464(17) 0.34748(17)
H28A H 0.3280 0.5437 0.3409
C20A C 0.31088(10) 0.46336(17) 0.42034(15)
C21A C 0.26466(11) 0.41999(18) 0.42957(16)
H29A H 0.2737 0.3842 0.4778
C22A C 0.20555(11) 0.43000(17) 0.36725(16)
H30A H 0.1748 0.4019 0.3743
C23A C 0.43970(11) 0.40346(16) 0.40624(16)
H31A H 0.4739 0.4434 0.4341
H32A H 0.4079 0.4351 0.3583
C24A C 0.45825(9) 0.32234(16) 0.37228(14)
O4 O 0.69849(11) 0.94601(18) 0.07965(17)
H7 H 0.7232 0.9784 0.1172
H8 H 0.6648 0.9683 0.0516
O5 O 0.5000 0.85424(19) 0.2500
H9 H 0.5217 0.8919 0.2428
H9A H 0.4783 0.8919 0.2572
O6 O 0.5000 0.5100(4) 0.2500
H10 H 0.5351 0.4856 0.2639
H10A H 0.4649 0.4856 0.2361
O7 O 0.59560(9) 0.98049(13) 0.91146(12)
H11 H 0.5700 0.9399 0.8995
H12 H 0.6010 0.9911 0.8685
O8 O 0.66901(17) 0.5493(3) 0.8139(2)
H13 H 0.6557 0.5162 0.8411
H14 H 0.6949 0.5700 0.8635
loop_
_geom_bond_atom_site_label_1
_geom_bond_atom_site_label_2
_geom_bond_site_symmetry_1
_geom_bond_site_symmetry_2
Co1 O3 1_555 1_555
Co2 O1 1_555 1_555
S1 O11 1_555 1_555
O1 H1 1_555 1_555
H2 O1 1_555 1_555
O2 Co2 1_555 1_555
H3 O2 1_555 1_555
H4 O2 1_555 1_555
O3 H5 1_555 1_555
H6 O3 1_555 1_555
O4 H7 1_555 1_555
H8 O4 1_555 1_555
O5 H9 1_555 1_555
O6 H10 1_555 1_555
O7 H11 1_555 1_555
H12 O7 1_555 1_555
O8 H13 1_555 1_555
H14 O8 1_555 1_555
O9 Co1 1_555 1_555
O10 Co2 1_555 1_555
O12 S1 1_555 1_555
O13 C16 1_555 1_555
O14 C16 1_555 1_555
N1 Co1 1_555 1_555
N2 Co2 1_555 1_555
N3 C6 1_555 1_555
N4 Co2 1_555 1_555
C1 N1 1_555 1_555
H15 C1 1_555 1_555
C2 C1 1_555 1_555
H16 C2 1_555 1_555
C3 C2 1_555 1_555
C4 C3 1_555 1_555
H17 C4 1_555 1_555
C5 N1 1_555 1_555
H18 C5 1_555 1_555
C6 H19 1_555 1_555
C7 C6 1_555 1_555
H20 C7 1_555 1_555
C8 C7 1_555 1_555
C9 C8 1_555 1_555
H21 C9 1_555 1_555
C10 N3 1_555 1_555
H22 C10 1_555 1_555
C11 N2 1_555 1_555
H23 C11 1_555 1_555
C12 C11 1_555 1_555
H24 C12 1_555 1_555
C13 C8 1_555 1_555
C14 C13 1_555 1_555
H25 C14 1_555 1_555
C15 N2 1_555 1_555
H26 C15 1_555 1_555
C16 C17 1_555 1_555
C17 C18 1_555 1_555
C18 H27 1_555 1_555
C19 C18 1_555 1_555
H28 C19 1_555 1_555
C20 S1 1_555 1_555
C21 C20 1_555 1_555
H29 C21 1_555 1_555
C22 C17 1_555 1_555
H30 C22 1_555 1_555
C23 N4 1_555 1_555
H31 C23 1_555 1_555
H32 C23 1_555 1_555
C24 O9 1_555 1_555
Co1F N1F 1_555 1_555
Co2A O1A 1_555 1_555
Co2G N3 1_555 1_555
Co2G_2 N2G 1_555 1_555
S1A O11A 1_555 1_555
O1A H1A 1_555 1_555
H2A O1A 1_555 1_555
O2A Co2A 1_555 1_555
H3A O2A 1_555 1_555
H4A O2A 1_555 1_555
O3A Co1 1_555 1_555
H5A O3A 1_555 1_555
H6A O3A 1_555 1_555
H9A O5 1_555 1_555
H10A O6 1_555 1_555
O9A Co1 1_555 1_555
O10A Co2A 1_555 1_555
O12A S1A 1_555 1_555
O13A C16A 1_555 1_555
O14A C16A 1_555 1_555
N1F C1F 1_555 1_555
N1A Co1 1_555 1_555
N2G C11G 1_555 1_555
N2A Co2A 1_555 1_555
N3G Co2 1_555 1_555
N3F Co2A 1_555 1_555
N4A Co2A 1_555 1_555
C1F H15F 1_555 1_555
C2F C1F 1_555 1_555
H16F C2F 1_555 1_555
C3F C3 1_555 1_555
C4F C3F 1_555 1_555
H17F C4F 1_555 1_555
C5F N1F 1_555 1_555
H18F C5F 1_555 1_555
C6G N3G 1_555 1_555
H19G C6G 1_555 1_555
C7G C6G 1_555 1_555
H20G C7G 1_555 1_555
C8G C7G 1_555 1_555
C9G C8G 1_555 1_555
H21G C9G 1_555 1_555
C10G N3G 1_555 1_555
H22G C10G 1_555 1_555
C11G H23G 1_555 1_555
C12G C11G 1_555 1_555
H24G C12G 1_555 1_555
C13G C8G 1_555 1_555
C14G C13G 1_555 1_555
H25G C14G 1_555 1_555
C15G N2G 1_555 1_555
H26G C15G 1_555 1_555
C16A C17A 1_555 1_555
C17A C18A 1_555 1_555
C18A H27A 1_555 1_555
C19A C18A 1_555 1_555
H28A C19A 1_555 1_555
C20A S1A 1_555 1_555
C21A C20A 1_555 1_555
H29A C21A 1_555 1_555
C22A C17A 1_555 1_555
H30A C22A 1_555 1_555
C23A N4A 1_555 1_555
H31A C23A 1_555 1_555
H32A C23A 1_555 1_555
C24A O9A 1_555 1_555
S1 N4 1_555 1_555
O10 C24 1_555 1_555
C4 C5 1_555 1_555
C9 C10 1_555 1_555
C12 C13 1_555 1_555
C14 C15 1_555 1_555
C19 C20 1_555 1_555
C21 C22 1_555 1_555
C23 C24 1_555 1_555
S1A N4A 1_555 1_555
O10A C24A 1_555 1_555
C2F C3F 1_555 1_555
C4F C5F 1_555 1_555
C9G C10G 1_555 1_555
C12G C13G 1_555 1_555
C14G C15G 1_555 1_555
C19A C20A 1_555 1_555
C21A C22A 1_555 1_555
C23A C24A 1_555 1_555

#END
