
#######################################################################
#
#                 Cambridge Crystallographic Data Centre
#                                CCDC 
#
#######################################################################
#
# If this CIF has been generated from an entry in the Cambridge 
# Structural Database, then it will include bibliographic, chemical, 
# crystal, experimental, refinement or atomic coordinate data resulting 
# from the CCDC's data processing and validation procedures.
#
#######################################################################

data_KUJFOL
_symmetry_cell_setting           triclinic
_symmetry_space_group_name_H-M   'P -1'
_symmetry_Int_Tables_number      2
_space_group_name_Hall           '-P 1'
loop_
_symmetry_equiv_pos_site_id
_symmetry_equiv_pos_as_xyz
1 x,y,z
2 -x,-y,-z
_cell_length_a                   6.4642(5)
_cell_length_b                   12.5495(9)
_cell_length_c                   13.4911(10)
_cell_angle_alpha                77.518(1)
_cell_angle_beta                 85.326(1)
_cell_angle_gamma                84.413(2)
_cell_volume                     1061.43
loop_
_atom_site_label
_atom_site_type_symbol
_atom_site_fract_x
_atom_site_fract_y
_atom_site_fract_z
Cu1 Cu 0.05559(4) 0.37384(2) 0.51404(2)
Cu2 Cu 0.5000 0.5000 0.5000
O1 O 0.6269(3) 0.14509(17) 0.02684(15)
O2 O 0.3976(3) 0.32542(14) -0.05187(12)
O3 O 0.0112(3) 0.36980(15) 0.02879(14)
O4 O 0.1698(3) 0.40269(14) 0.37345(12)
O5 O 0.4555(3) 0.49570(14) 0.35940(12)
O6 O -0.0533(3) 0.33728(13) 0.65542(12)
O7 O 0.1850(3) 0.19528(14) 0.68249(13)
O8 O 0.7902(3) 0.51182(13) 0.45793(12)
H1 H 0.801(4) 0.513(2) 0.3962(9)
N1 N -0.0778(3) 0.24779(16) 0.48041(15)
N2 N -0.3968(3) 0.27296(16) 0.56844(15)
H2 H -0.5244 0.2547 0.5872
H3 H -0.3505 0.3282 0.5882
N3 N -0.3500(3) 0.13310(16) 0.48162(15)
N4 N -0.3171(3) -0.00573(17) 0.39495(16)
H4 H -0.4435 -0.0216 0.4191
H5 H -0.2462 -0.0445 0.3546
C1 C -0.2717(4) 0.21600(19) 0.50925(17)
C2 C -0.2325(4) 0.07750(19) 0.41957(17)
C3 C -0.0296(4) 0.10551(19) 0.38416(17)
C4 C 0.0379(4) 0.18903(19) 0.41907(18)
H6 H 0.1764 0.2077 0.3991
C5 C 0.1095(4) 0.0474(2) 0.31316(19)
H7 H 0.0337 -0.0110 0.2971
H8 H 0.2340 0.0119 0.3489
C6 C 0.1802(4) 0.1216(2) 0.21415(17)
C7 C 0.3722(4) 0.0966(2) 0.16852(18)
H9 H 0.4577 0.0343 0.1993
C8 C 0.4409(4) 0.1626(2) 0.07736(19)
C9 C 0.3187(4) 0.2553(2) 0.03339(17)
C10 C 0.1223(4) 0.2787(2) 0.07834(19)
C11 C 0.0537(4) 0.2121(2) 0.16871(19)
H10 H -0.0798 0.2283 0.1995
C12 C 0.7487(5) 0.0467(3) 0.0665(3)
H11 H 0.7714 0.0437 0.1380
H12 H 0.8833 0.0451 0.0275
H13 H 0.6754 -0.0164 0.0612
C13 C 0.3234(5) 0.3097(3) -0.14454(19)
H14 H 0.3508 0.2325 -0.1488
H15 H 0.3954 0.3555 -0.2027
H16 H 0.1732 0.3301 -0.1455
C14 C -0.1899(4) 0.3976(2) 0.0732(2)
H17 H -0.2533 0.4643 0.0308
H18 H -0.1758 0.4100 0.1415
H19 H -0.2785 0.3374 0.0778
C15 C 0.3125(4) 0.45636(19) 0.32324(18)
C16 C 0.3142(4) 0.4710(2) 0.20995(19)
H20 H 0.4287 0.5148 0.1781
H21 H 0.1816 0.5086 0.1862
H22 H 0.3334 0.3992 0.1915
C17 C 0.0213(4) 0.2455(2) 0.70791(17)
C18 C -0.1080(4) 0.1991(2) 0.8029(2)
H23 H -0.2307 0.1696 0.7842
H24 H -0.1526 0.2571 0.8402
H25 H -0.0246 0.1404 0.8461
Cu1A Cu 0.94441(4) 0.62616(2) 0.48596(2)
Cu1_2 Cu 1.05559(4) 0.37384(2) 0.51404(2)
Cu1A_2 Cu -0.05559(4) 0.62616(2) 0.48596(2)
O1A O 0.3731(3) 0.85491(17) 0.97316(15)
O2A O 0.6024(3) 0.67458(14) 1.05187(12)
O3A O 0.9888(3) 0.63020(15) 0.97121(14)
O4A O 0.8302(3) 0.59731(14) 0.62655(12)
O5A O 0.5445(3) 0.50430(14) 0.64060(12)
O6A O 1.0533(3) 0.66272(13) 0.34458(12)
O7A O 0.8150(3) 0.80472(14) 0.31751(13)
O8A O 0.2098(3) 0.48818(13) 0.54207(12)
O8_2 O -0.2098(3) 0.51182(13) 0.45793(12)
O8A_2 O 1.2098(3) 0.48818(13) 0.54207(12)
H1A H 0.199(4) 0.487(2) 0.6038(9)
H1_2 H -0.199(4) 0.513(2) 0.3962(9)
H1A_2 H 1.199(4) 0.487(2) 0.6038(9)
N1A N 1.0778(3) 0.75221(16) 0.51959(15)
N2A N 1.3968(3) 0.72704(16) 0.43156(15)
H2A H 1.5244 0.7453 0.4128
H3A H 1.3505 0.6718 0.4118
N3A N 1.3500(3) 0.86690(16) 0.51838(15)
N4A N 1.3171(3) 1.00573(17) 0.60505(16)
H4A H 1.4435 1.0216 0.5809
H5A H 1.2462 1.0445 0.6454
C1A C 1.2717(4) 0.78400(19) 0.49075(17)
C2A C 1.2325(4) 0.92250(19) 0.58043(17)
C3A C 1.0296(4) 0.89449(19) 0.61584(17)
C4A C 0.9621(4) 0.81097(19) 0.58093(18)
H6A H 0.8236 0.7923 0.6009
C5A C 0.8905(4) 0.9526(2) 0.68684(19)
H7A H 0.9663 1.0110 0.7029
H8A H 0.7660 0.9881 0.6511
C6A C 0.8198(4) 0.8784(2) 0.78585(17)
C7A C 0.6278(4) 0.9034(2) 0.83148(18)
H9A H 0.5423 0.9657 0.8007
C8A C 0.5591(4) 0.8374(2) 0.92264(19)
C9A C 0.6813(4) 0.7447(2) 0.96661(17)
C10A C 0.8777(4) 0.7213(2) 0.92166(19)
C11A C 0.9463(4) 0.7879(2) 0.83129(19)
H10A H 1.0798 0.7717 0.8005
C12A C 0.2513(5) 0.9533(3) 0.9335(3)
H11A H 0.2286 0.9563 0.8620
H12A H 0.1167 0.9549 0.9725
H13A H 0.3246 1.0164 0.9388
C13A C 0.6766(5) 0.6903(3) 1.14454(19)
H14A H 0.6492 0.7675 1.1488
H15A H 0.6046 0.6445 1.2027
H16A H 0.8268 0.6699 1.1455
C14A C 1.1899(4) 0.6024(2) 0.9268(2)
H17A H 1.2533 0.5357 0.9692
H18A H 1.1758 0.5900 0.8585
H19A H 1.2785 0.6626 0.9222
C15A C 0.6875(4) 0.54364(19) 0.67676(18)
C16A C 0.6858(4) 0.5290(2) 0.79005(19)
H20A H 0.5713 0.4852 0.8219
H21A H 0.8184 0.4914 0.8138
H22A H 0.6666 0.6008 0.8085
C17A C 0.9787(4) 0.7545(2) 0.29209(17)
C18A C 1.1080(4) 0.8009(2) 0.1971(2)
H23A H 1.2307 0.8304 0.2158
H24A H 1.1526 0.7429 0.1598
H25A H 1.0246 0.8596 0.1539
loop_
_geom_bond_atom_site_label_1
_geom_bond_atom_site_label_2
_geom_bond_site_symmetry_1
_geom_bond_site_symmetry_2
Cu1 O4 1_555 1_555
Cu2 O5 1_555 1_555
O1 C8 1_555 1_555
O2 C9 1_555 1_555
O3 C10 1_555 1_555
O4 C15 1_555 1_555
O5 C15 1_555 1_555
O6 Cu1 1_555 1_555
O7 C17 1_555 1_555
O8 Cu2 1_555 1_555
H1 O8 1_555 1_555
N1 Cu1 1_555 1_555
N2 H2 1_555 1_555
H3 N2 1_555 1_555
N3 C1 1_555 1_555
N4 H4 1_555 1_555
H5 N4 1_555 1_555
C1 N1 1_555 1_555
C2 N3 1_555 1_555
C3 C2 1_555 1_555
C4 N1 1_555 1_555
H6 C4 1_555 1_555
C5 C3 1_555 1_555
H7 C5 1_555 1_555
H8 C5 1_555 1_555
C6 C5 1_555 1_555
C7 C6 1_555 1_555
H9 C7 1_555 1_555
C8 C7 1_555 1_555
C9 C8 1_555 1_555
C10 C9 1_555 1_555
C11 C6 1_555 1_555
H10 C11 1_555 1_555
C12 O1 1_555 1_555
H11 C12 1_555 1_555
H12 C12 1_555 1_555
H13 C12 1_555 1_555
C13 O2 1_555 1_555
H14 C13 1_555 1_555
H15 C13 1_555 1_555
H16 C13 1_555 1_555
C14 O3 1_555 1_555
H17 C14 1_555 1_555
H18 C14 1_555 1_555
H19 C14 1_555 1_555
C15 C16 1_555 1_555
C16 H20 1_555 1_555
H21 C16 1_555 1_555
H22 C16 1_555 1_555
C17 O6 1_555 1_555
C18 C17 1_555 1_555
H23 C18 1_555 1_555
H24 C18 1_555 1_555
H25 C18 1_555 1_555
Cu1A O8 1_555 1_555
Cu1_2 O8 1_555 1_555
Cu1A_2 O8A 1_555 1_555
O1A C8A 1_555 1_555
O2A C9A 1_555 1_555
O3A C10A 1_555 1_555
O4A Cu1A 1_555 1_555
O5A Cu2 1_555 1_555
O6A Cu1A 1_555 1_555
O7A C17A 1_555 1_555
O8A Cu1 1_555 1_555
O8_2 Cu1 1_555 1_555
O8A_2 Cu1A 1_555 1_555
H1A O8A 1_555 1_555
H1_2 O8_2 1_555 1_555
H1A_2 O8A_2 1_555 1_555
N1A Cu1A 1_555 1_555
N2A H2A 1_555 1_555
H3A N2A 1_555 1_555
N3A C1A 1_555 1_555
N4A H4A 1_555 1_555
H5A N4A 1_555 1_555
C1A N1A 1_555 1_555
C2A N3A 1_555 1_555
C3A C2A 1_555 1_555
C4A N1A 1_555 1_555
H6A C4A 1_555 1_555
C5A C3A 1_555 1_555
H7A C5A 1_555 1_555
H8A C5A 1_555 1_555
C6A C5A 1_555 1_555
C7A C6A 1_555 1_555
H9A C7A 1_555 1_555
C8A C7A 1_555 1_555
C9A C8A 1_555 1_555
C10A C9A 1_555 1_555
C11A C6A 1_555 1_555
H10A C11A 1_555 1_555
C12A O1A 1_555 1_555
H11A C12A 1_555 1_555
H12A C12A 1_555 1_555
H13A C12A 1_555 1_555
C13A O2A 1_555 1_555
H14A C13A 1_555 1_555
H15A C13A 1_555 1_555
H16A C13A 1_555 1_555
C14A O3A 1_555 1_555
H17A C14A 1_555 1_555
H18A C14A 1_555 1_555
H19A C14A 1_555 1_555
C15A O4A 1_555 1_555
C16A C15A 1_555 1_555
H20A C16A 1_555 1_555
H21A C16A 1_555 1_555
H22A C16A 1_555 1_555
C17A O6A 1_555 1_555
C18A C17A 1_555 1_555
H23A C18A 1_555 1_555
H24A C18A 1_555 1_555
H25A C18A 1_555 1_555
Cu2 O8A 1_555 1_555
N2 C1 1_555 1_555
N4 C2 1_555 1_555
C3 C4 1_555 1_555
C10 C11 1_555 1_555
Cu1_2 O8A_2 1_555 1_555
Cu1A_2 O8_2 1_555 1_555
O5A C15A 1_555 1_555
N2A C1A 1_555 1_555
N4A C2A 1_555 1_555
C3A C4A 1_555 1_555
C10A C11A 1_555 1_555

#END
