
#######################################################################
#
#                 Cambridge Crystallographic Data Centre
#                                CCDC 
#
#######################################################################
#
# If this CIF has been generated from an entry in the Cambridge 
# Structural Database, then it will include bibliographic, chemical, 
# crystal, experimental, refinement or atomic coordinate data resulting 
# from the CCDC's data processing and validation procedures.
#
#######################################################################

data_KUJGON
_symmetry_cell_setting           triclinic
_symmetry_space_group_name_H-M   'P -1'
_symmetry_Int_Tables_number      2
_space_group_name_Hall           '-P 1'
loop_
_symmetry_equiv_pos_site_id
_symmetry_equiv_pos_as_xyz
1 x,y,z
2 -x,-y,-z
_cell_length_a                   6.4422(13)
_cell_length_b                   9.0380(18)
_cell_length_c                   12.725(3)
_cell_angle_alpha                76.50(3)
_cell_angle_beta                 83.71(3)
_cell_angle_gamma                79.75(3)
_cell_volume                     707.145
loop_
_atom_site_label
_atom_site_type_symbol
_atom_site_fract_x
_atom_site_fract_y
_atom_site_fract_z
Co1 Co 0.5000 0.5000 0.0000
Co2 Co 0.96565(9) 0.51883(7) 0.28555(5)
O1 O 0.5251(5) 0.6244(3) 0.1145(3)
O2 O 0.6421(5) 0.5514(3) 0.3067(2)
O3 O 0.2695(5) 0.5428(4) 0.2729(3)
P1 P 0.49615(17) 0.52463(12) 0.22933(9)
P2 P 0.83270(17) 0.28460(12) 0.14344(9)
O4 O 0.7953(5) 0.3852(4) 0.0299(3)
O5 O 0.9900(5) 0.3379(4) 0.2021(3)
O6 O 0.8835(5) 0.1156(4) 0.1415(3)
H1 H 0.8467 0.1023 0.0852
O7 O 0.4210(5) 0.3048(4) 0.1431(3)
H2 H 0.305(10) 0.313(7) 0.170(5)
C1 C 0.5693(7) 0.3235(5) 0.2162(4)
C2 C 0.5476(8) 0.2250(5) 0.3326(4)
H3 H 0.6808 0.2107 0.3653
H4 H 0.4410 0.2812 0.3749
N1 N 0.4899(6) 0.0734(4) 0.3388(3)
C3 C 0.2871(9) 0.0416(6) 0.3542(6)
H5 H 0.1641 0.1118 0.3598
C4 C 0.2995(10) -0.1107(7) 0.3596(6)
H6 H 0.1869 -0.1652 0.3689
N2 N 0.5084(7) -0.1690(5) 0.3490(4)
H7 H 0.5592 -0.2641 0.3505
C5 C 0.6212(8) -0.0565(5) 0.3360(4)
H8 H 0.7679 -0.0668 0.3266
O8 O 0.9374(5) 0.6639(3) 0.3972(3)
C6 C 0.9792(7) 0.5887(5) 0.4906(4)
O9 O 0.9938(5) 0.6471(4) 0.5696(3)
O10 O 0.9282(6) 0.6877(4) 0.1333(3)
H9 H 1.012(10) 0.659(7) 0.086(5)
H10 H 0.818(11) 0.686(7) 0.119(5)
O8A O 1.0626(5) 0.3361(3) 0.6028(3)
C6A C 1.0208(7) 0.4113(5) 0.5094(4)
O9A O 1.0062(5) 0.3529(4) 0.4304(3)
Co2A Co 0.03435(9) 0.48117(7) -0.28555(5)
O1A O 0.4749(5) 0.3756(3) -0.1145(3)
O2A O 0.3579(5) 0.4486(3) -0.3067(2)
O3A O 0.7305(5) 0.4572(4) -0.2729(3)
P1A P 0.50385(17) 0.47537(12) -0.22933(9)
P2A P 0.16730(17) 0.71540(12) -0.14344(9)
O4A O 0.2047(5) 0.6148(4) -0.0299(3)
O5A O 0.0100(5) 0.6621(4) -0.2021(3)
O6A O 0.1165(5) 0.8844(4) -0.1415(3)
H1A H 0.1533 0.8977 -0.0852
O7A O 0.5790(5) 0.6952(4) -0.1431(3)
H2A H 0.695(10) 0.687(7) -0.170(5)
C1A C 0.4307(7) 0.6765(5) -0.2162(4)
C2A C 0.4524(8) 0.7750(5) -0.3326(4)
H3A H 0.3192 0.7893 -0.3653
H4A H 0.5590 0.7188 -0.3749
N1A N 0.5101(6) 0.9266(4) -0.3388(3)
C3A C 0.7129(9) 0.9584(6) -0.3542(6)
H5A H 0.8359 0.8882 -0.3598
C4A C 0.7005(10) 1.1107(7) -0.3596(6)
H6A H 0.8131 1.1652 -0.3689
N2A N 0.4916(7) 1.1690(5) -0.3490(4)
H7A H 0.4408 1.2641 -0.3505
C5A C 0.3788(8) 1.0565(5) -0.3360(4)
H8A H 0.2321 1.0668 -0.3266
O10A O 0.0718(6) 0.3123(4) -0.1333(3)
H9A H -0.012(10) 0.341(7) -0.086(5)
H10A H 0.182(11) 0.314(7) -0.119(5)
Co2_2 Co -0.03435(9) 0.51883(7) 0.28555(5)
Co2A_2 Co 1.03435(9) 0.48117(7) -0.28555(5)
Co2A_3 Co 1.03435(9) 0.48117(7) 0.71445(5)
O3_2 O 1.2695(5) 0.5428(4) 0.2729(3)
O3A_2 O -0.2695(5) 0.4572(4) -0.2729(3)
O8A_2 O 0.0626(5) 0.3361(3) -0.3972(3)
O9_2 O -0.0062(5) 0.6471(4) -0.4304(3)
N3 N 0.7493(8) 0.0851(5) -0.0538(4)
H11 H 0.690(10) 0.168(8) -0.073(5)
H12 H 0.851(11) 0.048(7) -0.090(5)
C7 C 0.5868(8) -0.0176(6) -0.0422(4)
H13 H 0.6530 -0.1243 -0.0215
H14 H 0.5268 -0.0032 -0.1112
N3A N 0.2507(8) -0.0851(5) 0.0538(4)
H11A H 0.310(10) -0.168(8) 0.073(5)
H12A H 0.149(11) -0.048(7) 0.090(5)
C7A C 0.4132(8) 0.0176(6) 0.0422(4)
H13A H 0.3470 0.1243 0.0215
H14A H 0.4732 0.0032 0.1112
loop_
_geom_bond_atom_site_label_1
_geom_bond_atom_site_label_2
_geom_bond_site_symmetry_1
_geom_bond_site_symmetry_2
Co1 O1 1_555 1_555
Co2 O2 1_555 1_555
O1 P1 1_555 1_555
O2 P1 1_555 1_555
O3 P1 1_555 1_555
P1 C1 1_555 1_555
P2 O4 1_555 1_555
O4 Co1 1_555 1_555
O5 Co2 1_555 1_555
O6 P2 1_555 1_555
H1 O6 1_555 1_555
O7 Co1 1_555 1_555
H2 O7 1_555 1_555
C1 P2 1_555 1_555
C2 C1 1_555 1_555
H3 C2 1_555 1_555
H4 C2 1_555 1_555
N1 C2 1_555 1_555
C3 N1 1_555 1_555
H5 C3 1_555 1_555
C4 C3 1_555 1_555
H6 C4 1_555 1_555
N2 C4 1_555 1_555
H7 N2 1_555 1_555
C5 N1 1_555 1_555
H8 C5 1_555 1_555
O8 Co2 1_555 1_555
C6 O8 1_555 1_555
O9 C6 1_555 1_555
O10 Co2 1_555 1_555
H9 O10 1_555 1_555
H10 O10 1_555 1_555
N3 H11 1_555 1_555
H12 N3 1_555 1_555
C7 N3 1_555 1_555
H13 C7 1_555 1_555
H14 C7 1_555 1_555
O8A C6A 1_555 1_555
C6A C6 1_555 1_555
O9A Co2 1_555 1_555
Co2A O2A 1_555 1_555
O1A Co1 1_555 1_555
O2A P1A 1_555 1_555
O3A P1A 1_555 1_555
P1A O1A 1_555 1_555
P2A O4A 1_555 1_555
O4A Co1 1_555 1_555
O5A Co2A 1_555 1_555
O6A P2A 1_555 1_555
H1A O6A 1_555 1_555
O7A Co1 1_555 1_555
H2A O7A 1_555 1_555
C1A P1A 1_555 1_555
C2A C1A 1_555 1_555
H3A C2A 1_555 1_555
H4A C2A 1_555 1_555
N1A C2A 1_555 1_555
C3A N1A 1_555 1_555
H5A C3A 1_555 1_555
C4A C3A 1_555 1_555
H6A C4A 1_555 1_555
N2A C4A 1_555 1_555
H7A N2A 1_555 1_555
C5A N1A 1_555 1_555
H8A C5A 1_555 1_555
O10A Co2A 1_555 1_555
H9A O10A 1_555 1_555
H10A O10A 1_555 1_555
Co2_2 O3 1_555 1_555
Co2A_2 O3A 1_555 1_555
Co2A_3 O9 1_555 1_555
O3_2 Co2 1_555 1_555
O3A_2 Co2A 1_555 1_555
O8A_2 Co2A 1_555 1_555
O9_2 Co2A 1_555 1_555
N3A H11A 1_555 1_555
H12A N3A 1_555 1_555
C7A C7 1_555 1_555
H13A C7A 1_555 1_555
H14A C7A 1_555 1_555
P2 O5 1_555 1_555
O7 C1 1_555 1_555
N2 C5 1_555 1_555
O8A Co2A_3 1_555 1_555
C6A O9A 1_555 1_555
P2A O5A 1_555 1_555
P2A C1A 1_555 1_555
O7A C1A 1_555 1_555
N2A C5A 1_555 1_555
N3A C7A 1_555 1_555

#END
