
#######################################################################
#
#                 Cambridge Crystallographic Data Centre
#                                CCDC 
#
#######################################################################
#
# If this CIF has been generated from an entry in the Cambridge 
# Structural Database, then it will include bibliographic, chemical, 
# crystal, experimental, refinement or atomic coordinate data resulting 
# from the CCDC's data processing and validation procedures.
#
#######################################################################

data_KUJGUT
_symmetry_cell_setting           monoclinic
_symmetry_space_group_name_H-M   'C 2/c'
_symmetry_Int_Tables_number      15
_space_group_name_Hall           '-C 2yn'
loop_
_symmetry_equiv_pos_site_id
_symmetry_equiv_pos_as_xyz
1 x,y,z
2 -x,y,1/2-z
3 1/2+x,1/2+y,z
4 1/2-x,1/2+y,1/2-z
5 -x,-y,-z
6 x,-y,1/2+z
7 1/2-x,1/2-y,-z
8 1/2+x,1/2-y,1/2+z
_cell_length_a                   18.122(4)
_cell_length_b                   8.9119(18)
_cell_length_c                   15.697(3)
_cell_angle_alpha                90
_cell_angle_beta                 92.45(3)
_cell_angle_gamma                90
_cell_volume                     2532.77
loop_
_atom_site_label
_atom_site_type_symbol
_atom_site_fract_x
_atom_site_fract_y
_atom_site_fract_z
Cd1 Cd 0.35475(2) 0.15812(4) 0.53858(2)
Cd2 Cd 0.19037(2) -0.35077(4) 0.61339(2)
O1 O 0.3573(2) 0.0350(4) 0.6616(2)
P1 P 0.28691(8) -0.03933(14) 0.69146(8)
O2 O 0.2792(2) -0.2014(4) 0.6645(2)
O3 O 0.2812(2) -0.0268(4) 0.7877(2)
O4 O 0.2639(2) -0.0026(4) 0.4894(2)
P2 P 0.18869(8) -0.00396(14) 0.52939(8)
O5 O 0.1532(2) -0.1558(4) 0.5333(2)
O6 O 0.1344(2) 0.1047(4) 0.4842(2)
C1 C 0.2094(3) 0.0697(5) 0.6384(3)
O7 O 0.2315(2) 0.2205(4) 0.6180(3)
H1 H 0.234(4) 0.283(9) 0.651(5)
C2 C 0.1454(3) 0.0614(6) 0.6984(3)
H2 H 0.1418 -0.0410 0.7189
H3 H 0.1572 0.1246 0.7474
N1 N 0.0723(3) 0.1065(6) 0.6618(3)
C3 C 0.0239(4) 0.0100(9) 0.6244(4)
H4 H 0.0316 -0.0921 0.6162
N2 N -0.0358(3) 0.0841(9) 0.6017(4)
H5 H -0.0745 0.0455 0.5769
C4 C -0.0278(4) 0.2319(10) 0.6231(4)
H6 H -0.0621 0.3083 0.6131
C5 C 0.0405(4) 0.2445(8) 0.6621(4)
H7 H 0.0616 0.3317 0.6849
O8 O 0.4116(2) -0.0132(4) 0.4520(2)
C6 C 0.4781(3) -0.0468(6) 0.4647(3)
O9 O 0.5127(2) -0.1444(4) 0.4261(3)
O10 O 0.0929(3) -0.2904(6) 0.7092(3)
H8 H 0.055(5) -0.312(9) 0.683(5)
H9 H 0.104(5) -0.332(9) 0.750(6)
O8D O 0.5884(2) 0.0132(4) 0.5480(2)
C6D C 0.5219(3) 0.0468(6) 0.5353(3)
O9D O 0.4873(2) 0.1444(4) 0.5739(3)
Cd1D Cd 0.64525(2) -0.15812(4) 0.46142(2)
Cd2D Cd 0.80963(2) 0.35077(4) 0.38661(2)
O1D O 0.6427(2) -0.0350(4) 0.3384(2)
P1D P 0.71309(8) 0.03933(14) 0.30854(8)
O2D O 0.7208(2) 0.2014(4) 0.3355(2)
O3D O 0.7188(2) 0.0268(4) 0.2123(2)
O4D O 0.7361(2) 0.0026(4) 0.5106(2)
P2D P 0.81131(8) 0.00396(14) 0.47061(8)
O5D O 0.8468(2) 0.1558(4) 0.4667(2)
O6D O 0.8656(2) -0.1047(4) 0.5158(2)
C1D C 0.7906(3) -0.0697(5) 0.3616(3)
O7D O 0.7685(2) -0.2205(4) 0.3820(3)
H1D H 0.766(4) -0.283(9) 0.349(5)
C2D C 0.8546(3) -0.0614(6) 0.3016(3)
H2D H 0.8582 0.0410 0.2811
H3D H 0.8428 -0.1246 0.2526
N1D N 0.9277(3) -0.1065(6) 0.3382(3)
C3D C 0.9761(4) -0.0100(9) 0.3756(4)
H4D H 0.9684 0.0921 0.3838
N2D N 1.0358(3) -0.0841(9) 0.3983(4)
H5D H 1.0745 -0.0455 0.4231
C4D C 1.0278(4) -0.2319(10) 0.3769(4)
H6D H 1.0621 -0.3083 0.3869
C5D C 0.9595(4) -0.2445(8) 0.3379(4)
H7D H 0.9384 -0.3317 0.3151
O10D O 0.9071(3) 0.2904(6) 0.2908(3)
H8D H 0.945(5) 0.312(9) 0.317(5)
H9D H 0.896(5) 0.332(9) 0.250(6)
Cd1B Cd 0.85475(2) -0.34188(4) 0.53858(2)
Cd1F Cd 0.14525(2) 0.34188(4) 0.46142(2)
Cd2B Cd 0.69037(2) 0.14923(4) 0.61339(2)
Cd2C Cd 0.30963(2) 0.14923(4) 0.88661(2)
Cd2F Cd 0.30963(2) -0.14923(4) 0.38661(2)
Cd2G Cd 0.69037(2) -0.14923(4) 0.11339(2)
O3C O 0.2188(2) -0.5268(4) 0.7123(2)
O3G O 0.7812(2) 0.5268(4) 0.2877(2)
O4B O 0.7639(2) 0.4974(4) 0.4894(2)
O4F O 0.2361(2) -0.4974(4) 0.5106(2)
O6B O 0.6344(2) -0.3953(4) 0.4842(2)
O6F O 0.3656(2) 0.3953(4) 0.5158(2)
O8B O 0.9116(2) 0.4868(4) 0.4520(2)
O8F O 0.0884(2) -0.4868(4) 0.5480(2)
loop_
_geom_bond_atom_site_label_1
_geom_bond_atom_site_label_2
_geom_bond_site_symmetry_1
_geom_bond_site_symmetry_2
Cd1 O1 1_555 1_555
Cd2 O2 1_555 1_555
O1 P1 1_555 1_555
P1 O2 1_555 1_555
O3 P1 1_555 1_555
O4 Cd1 1_555 1_555
P2 O4 1_555 1_555
O5 Cd2 1_555 1_555
O6 P2 1_555 1_555
C1 P1 1_555 1_555
O7 Cd1 1_555 1_555
H1 O7 1_555 1_555
C2 C1 1_555 1_555
H2 C2 1_555 1_555
H3 C2 1_555 1_555
N1 C2 1_555 1_555
C3 N1 1_555 1_555
H4 C3 1_555 1_555
N2 C3 1_555 1_555
H5 N2 1_555 1_555
C4 N2 1_555 1_555
H6 C4 1_555 1_555
C5 N1 1_555 1_555
H7 C5 1_555 1_555
O8 Cd1 1_555 1_555
C6 O8 1_555 1_555
O9 C6 1_555 1_555
O10 Cd2 1_555 1_555
H8 O10 1_555 1_555
H9 O10 1_555 1_555
O8D C6D 1_555 1_555
C6D C6 1_555 1_555
O9D Cd1 1_555 1_555
Cd1D O9 1_555 1_555
Cd2D O2D 1_555 1_555
O1D Cd1D 1_555 1_555
P1D O1D 1_555 1_555
O2D P1D 1_555 1_555
O3D P1D 1_555 1_555
O4D Cd1D 1_555 1_555
P2D O4D 1_555 1_555
O5D Cd2D 1_555 1_555
O6D P2D 1_555 1_555
C1D P1D 1_555 1_555
O7D Cd1D 1_555 1_555
H1D O7D 1_555 1_555
C2D C1D 1_555 1_555
H2D C2D 1_555 1_555
H3D C2D 1_555 1_555
N1D C2D 1_555 1_555
C3D N1D 1_555 1_555
H4D C3D 1_555 1_555
N2D C3D 1_555 1_555
H5D N2D 1_555 1_555
C4D N2D 1_555 1_555
H6D C4D 1_555 1_555
C5D N1D 1_555 1_555
H7D C5D 1_555 1_555
O10D Cd2D 1_555 1_555
H8D O10D 1_555 1_555
H9D O10D 1_555 1_555
Cd1B O6D 1_555 1_555
Cd1F O6 1_555 1_555
Cd2B O8D 1_555 1_555
Cd2C O3 1_555 1_555
Cd2F O4 1_555 1_555
Cd2G O3D 1_555 1_555
O3C Cd2 1_555 1_555
O3G Cd2D 1_555 1_555
O4B Cd2D 1_555 1_555
O4F Cd2 1_555 1_555
O6B Cd1D 1_555 1_555
O6F Cd1 1_555 1_555
O8B Cd2D 1_555 1_555
O8F Cd2 1_555 1_555
P2 O5 1_555 1_555
P2 C1 1_555 1_555
C1 O7 1_555 1_555
C4 C5 1_555 1_555
O8 Cd2F 1_555 1_555
O8D Cd1D 1_555 1_555
C6D O9D 1_555 1_555
O4D Cd2B 1_555 1_555
P2D O5D 1_555 1_555
P2D C1D 1_555 1_555
C1D O7D 1_555 1_555
C4D C5D 1_555 1_555

#END
