
#######################################################################
#
#                 Cambridge Crystallographic Data Centre
#                                CCDC 
#
#######################################################################
#
# If this CIF has been generated from an entry in the Cambridge 
# Structural Database, then it will include bibliographic, chemical, 
# crystal, experimental, refinement or atomic coordinate data resulting 
# from the CCDC's data processing and validation procedures.
#
#######################################################################

data_KUJNOT
_symmetry_cell_setting           tetragonal
_symmetry_space_group_name_H-M   'I 41/a'
_symmetry_Int_Tables_number      88
_space_group_name_Hall           '-I 4ad'
loop_
_symmetry_equiv_pos_site_id
_symmetry_equiv_pos_as_xyz
1 x,y,z
2 -x,1/2-y,z
3 3/4-y,1/4+x,1/4+z
4 1/4+y,1/4-x,1/4+z
5 1/2+x,1/2+y,1/2+z
6 1/2-x,-y,1/2+z
7 1/4-y,3/4+x,3/4+z
8 3/4+y,3/4-x,3/4+z
9 -x,-y,-z
10 x,1/2+y,-z
11 1/4+y,3/4-x,3/4-z
12 3/4-y,3/4+x,3/4-z
13 1/2-x,1/2-y,1/2-z
14 1/2+x,y,1/2-z
15 3/4+y,1/4-x,1/4-z
16 1/4-y,1/4+x,1/4-z
_cell_length_a                   30.048(5)
_cell_length_b                   30.048(5)
_cell_length_c                   37.908(5)
_cell_angle_alpha                90
_cell_angle_beta                 90
_cell_angle_gamma                90
_cell_volume                     34226.5
loop_
_atom_site_label
_atom_site_type_symbol
_atom_site_fract_x
_atom_site_fract_y
_atom_site_fract_z
Zn1 Zn 0.663636(17) 0.055031(17) 0.125198(16)
Zn2 Zn 0.67406(2) -0.040238(18) 0.069018(16)
Zn3 Zn 0.569706(19) 0.03982(2) 0.182095(17)
Zn4 Zn 0.64483(2) 0.152142(19) 0.071470(17)
Zn5 Zn 0.762555(19) 0.06888(2) 0.178921(17)
C1 C 0.65183(15) -0.22609(14) -0.02758(13)
C2 C 0.66450(16) -0.22873(13) 0.00682(13)
H1 H 0.6694 -0.2564 0.0171
C3 C 0.66997(16) -0.19107(17) 0.02609(11)
H2 H 0.6787 -0.1929 0.0496
C4 C 0.66273(15) -0.15080(14) 0.01101(14)
C5 C 0.65005(16) -0.14817(13) -0.02339(14)
H3 H 0.6451 -0.1205 -0.0337
C6 C 0.64460(16) -0.18582(18) -0.04267(10)
H4 H 0.6359 -0.1840 -0.0662
C7 C 0.6459(3) -0.2684(2) -0.0486(2)
C8 C 0.6697(3) -0.1080(3) 0.0328(2)
C9 C 0.46115(13) 0.04909(15) 0.24244(13)
C10 C 0.45998(13) 0.06846(16) 0.27488(13)
H5 H 0.4860 0.0793 0.2850
C11 C 0.42084(17) 0.07198(16) 0.29257(10)
H6 H 0.4201 0.0852 0.3147
C12 C 0.38285(13) 0.05611(15) 0.27780(12)
C13 C 0.38400(14) 0.03674(14) 0.24536(12)
H7 H 0.3579 0.0259 0.2353
C14 C 0.42315(17) 0.03321(14) 0.22768(10)
H8 H 0.4239 0.0200 0.2055
C15 C 0.5040(3) 0.0458(3) 0.2216(2)
C16 C 0.3388(2) 0.0611(2) 0.29724(19)
C17 C 0.73257(13) 0.17870(15) 0.11360(11)
C18 C 0.75984(16) 0.15761(12) 0.13752(12)
C19 C 0.79790(15) 0.17824(17) 0.14922(12)
H9 H 0.8163 0.1640 0.1654
C20 C 0.80872(15) 0.21993(18) 0.13701(15)
H10 H 0.8345 0.2339 0.1449
C21 C 0.78146(19) 0.24100(13) 0.11309(15)
H11 H 0.7888 0.2692 0.1048
C22 C 0.74338(17) 0.22039(15) 0.10139(12)
H12 H 0.7250 0.2346 0.0852
C23 C 0.56651(16) -0.04844(13) 0.13931(12)
C24 C 0.59234(14) -0.06800(16) 0.11306(12)
C25 C 0.58269(17) -0.11077(17) 0.10144(12)
H13 H 0.6000 -0.1238 0.0839
C26 C 0.5472(2) -0.13399(15) 0.11604(16)
H14 H 0.5407 -0.1626 0.1083
C27 C 0.52137(16) -0.11445(18) 0.14229(15)
H15 H 0.4976 -0.1300 0.1521
C28 C 0.53104(15) -0.07168(18) 0.15391(12)
H16 H 0.5138 -0.0586 0.1714
C29 C 0.55602(14) 0.14815(18) 0.11374(15)
C30 C 0.53791(18) 0.12138(15) 0.13961(14)
C31 C 0.49477(19) 0.12821(19) 0.15064(15)
H17 H 0.4825 0.1102 0.1681
C32 C 0.46973(15) 0.1618(2) 0.1358(2)
H18 H 0.4406 0.1664 0.1432
C33 C 0.4879(2) 0.18852(17) 0.10993(19)
H19 H 0.4709 0.2112 0.0999
C34 C 0.5310(2) 0.18171(17) 0.09890(15)
H20 H 0.5432 0.1997 0.0815
C35 C 0.78625(16) -0.01833(13) 0.13331(11)
C36 C 0.76429(13) -0.04476(15) 0.10934(11)
C37 C 0.78436(17) -0.08248(14) 0.09645(11)
H21 H 0.7695 -0.1004 0.0802
C38 C 0.82638(18) -0.09378(14) 0.10753(14)
H22 H 0.8400 -0.1193 0.0988
C39 C 0.84833(13) -0.06735(19) 0.13150(14)
H23 H 0.8768 -0.0750 0.1390
C40 C 0.82828(16) -0.02963(17) 0.14439(11)
H24 H 0.8431 -0.0118 0.1606
C41 C 0.64669(12) 0.03931(11) 0.23691(9)
C42 C 0.69211(12) 0.04518(11) 0.23521(9)
C43 C 0.71722(11) 0.04353(11) 0.26567(11)
H25 H 0.7479 0.0475 0.2645
C44 C 0.69697(15) 0.03603(12) 0.29785(9)
H26 H 0.7140 0.0350 0.3183
C45 C 0.65157(15) 0.03015(12) 0.29953(9)
H27 H 0.6379 0.0251 0.3212
C46 C 0.62643(11) 0.03180(11) 0.26905(11)
H28 H 0.5958 0.0278 0.2702
C47 C 0.67336(11) 0.03597(12) 0.01333(9)
C48 C 0.66736(11) 0.08149(12) 0.01444(9)
C49 C 0.66877(11) 0.10606(11) -0.01630(11)
H29 H 0.6647 0.1367 -0.0155
C50 C 0.67618(12) 0.08510(15) -0.04818(9)
H30 H 0.6771 0.1017 -0.0689
C51 C 0.68219(12) 0.03959(15) -0.04929(9)
H31 H 0.6872 0.0255 -0.0708
C52 C 0.68078(11) 0.01502(11) -0.01855(11)
H32 H 0.6848 -0.0157 -0.0193
N1 N 0.74304(14) 0.11649(13) 0.14445(10)
N2 N 0.70617(14) 0.11310(13) 0.12575(10)
N3 N 0.58439(14) -0.00890(14) 0.14624(11)
N4 N 0.69881(14) 0.14995(14) 0.10667(10)
N5 N 0.61903(13) -0.00376(13) 0.12475(11)
N6 N 0.62357(14) -0.03888(14) 0.10390(11)
N7 N 0.56911(15) 0.09068(14) 0.14828(12)
N8 N 0.60353(14) 0.09836(13) 0.12777(11)
N9 N 0.59743(15) 0.13327(14) 0.10692(12)
N10 N 0.72447(14) -0.02628(14) 0.10328(10)
N11 N 0.72263(13) 0.01058(13) 0.12306(10)
N12 N 0.75947(14) 0.01630(14) 0.14162(10)
N13 N 0.63049(13) 0.04284(13) 0.20381(10)
N14 N 0.66562(13) 0.05042(12) 0.18270(10)
N15 N 0.70280(13) 0.05193(13) 0.20125(10)
N16 N 0.67037(13) 0.02107(12) 0.04692(10)
N17 N 0.66326(12) 0.05602(13) 0.06752(10)
N18 N 0.66065(13) 0.09292(13) 0.04841(10)
O1 O 0.6295(2) -0.26760(16) -0.07832(14)
O2 O 0.65922(18) -0.30385(14) -0.03479(12)
O3 O 0.6559(3) -0.07348(15) 0.02215(14)
O4 O 0.6852(2) -0.11016(19) 0.06192(18)
O5 O 0.50649(17) 0.02320(17) 0.19530(16)
O6 O 0.53674(16) 0.0681(2) 0.23087(14)
O7 O 0.30501(14) 0.04391(17) 0.28413(11)
O8 O 0.33645(15) 0.08106(18) 0.32446(14)
O9 O 0.75933(17) 0.12894(16) 0.21995(14)
O10 O 0.5818(2) 0.1469(2) 0.03412(18)
Zn4I Zn 0.64483(2) -0.347858(19) -0.071470(17)
Zn5M Zn 0.262555(19) 0.06888(2) 0.321079(17)
O1I O 0.6295(2) 0.23240(16) 0.07832(14)
O2I O 0.65922(18) 0.19615(14) 0.03479(12)
O7M O 0.80501(14) 0.04391(17) 0.21587(11)
O8M O 0.83645(15) 0.08106(18) 0.17554(14)
loop_
_geom_bond_atom_site_label_1
_geom_bond_atom_site_label_2
_geom_bond_site_symmetry_1
_geom_bond_site_symmetry_2
Zn1 N2 1_555 1_555
Zn2 N6 1_555 1_555
Zn3 N3 1_555 1_555
Zn4 N4 1_555 1_555
Zn5 N1 1_555 1_555
C1 C2 1_555 1_555
C2 H1 1_555 1_555
C3 C2 1_555 1_555
H2 C3 1_555 1_555
C4 C3 1_555 1_555
C5 C4 1_555 1_555
H3 C5 1_555 1_555
C6 C1 1_555 1_555
H4 C6 1_555 1_555
C7 C1 1_555 1_555
C8 C4 1_555 1_555
C9 C10 1_555 1_555
C10 H5 1_555 1_555
C11 C10 1_555 1_555
H6 C11 1_555 1_555
C12 C11 1_555 1_555
C13 C12 1_555 1_555
H7 C13 1_555 1_555
C14 C9 1_555 1_555
H8 C14 1_555 1_555
C15 C9 1_555 1_555
C16 C12 1_555 1_555
C17 C18 1_555 1_555
C18 C19 1_555 1_555
C19 H9 1_555 1_555
C20 C19 1_555 1_555
H10 C20 1_555 1_555
C21 C20 1_555 1_555
H11 C21 1_555 1_555
C22 C17 1_555 1_555
H12 C22 1_555 1_555
C23 C24 1_555 1_555
C24 C25 1_555 1_555
C25 H13 1_555 1_555
C26 C25 1_555 1_555
H14 C26 1_555 1_555
C27 C26 1_555 1_555
H15 C27 1_555 1_555
C28 C23 1_555 1_555
H16 C28 1_555 1_555
C29 C30 1_555 1_555
C30 C31 1_555 1_555
C31 H17 1_555 1_555
C32 C31 1_555 1_555
H18 C32 1_555 1_555
C33 C32 1_555 1_555
H19 C33 1_555 1_555
C34 C29 1_555 1_555
H20 C34 1_555 1_555
C35 C36 1_555 1_555
C36 C37 1_555 1_555
C37 H21 1_555 1_555
C38 C37 1_555 1_555
H22 C38 1_555 1_555
C39 C38 1_555 1_555
H23 C39 1_555 1_555
C40 C35 1_555 1_555
H24 C40 1_555 1_555
C41 C42 1_555 1_555
C42 C43 1_555 1_555
C43 H25 1_555 1_555
C44 C43 1_555 1_555
H26 C44 1_555 1_555
C45 C44 1_555 1_555
H27 C45 1_555 1_555
C46 C41 1_555 1_555
H28 C46 1_555 1_555
C47 C48 1_555 1_555
C48 C49 1_555 1_555
C49 H29 1_555 1_555
C50 C49 1_555 1_555
H30 C50 1_555 1_555
C51 C50 1_555 1_555
H31 C51 1_555 1_555
C52 C47 1_555 1_555
H32 C52 1_555 1_555
N1 C18 1_555 1_555
N2 N1 1_555 1_555
N3 C23 1_555 1_555
N4 C17 1_555 1_555
N5 Zn1 1_555 1_555
N6 C24 1_555 1_555
N7 Zn3 1_555 1_555
N8 Zn1 1_555 1_555
N9 Zn4 1_555 1_555
N10 Zn2 1_555 1_555
N11 Zn1 1_555 1_555
N12 Zn5 1_555 1_555
N13 Zn3 1_555 1_555
N14 Zn1 1_555 1_555
N15 Zn5 1_555 1_555
N16 Zn2 1_555 1_555
N17 Zn1 1_555 1_555
N18 Zn4 1_555 1_555
O1 C7 1_555 1_555
O2 C7 1_555 1_555
O3 Zn2 1_555 1_555
O4 Zn2 1_555 1_555
O5 Zn3 1_555 1_555
O6 Zn3 1_555 1_555
O7 C16 1_555 1_555
O8 C16 1_555 1_555
O9 Zn5 1_555 1_555
O10 Zn4 1_555 1_555
Zn4I O1 1_555 1_555
Zn5M O7 1_555 1_555
O1I Zn4 1_555 1_555
O2I Zn4 1_555 1_555
O7M Zn5 1_555 1_555
O8M Zn5 1_555 1_555
C5 C6 1_555 1_555
C8 O3 1_555 1_555
C8 O4 1_555 1_555
C13 C14 1_555 1_555
C15 O5 1_555 1_555
C15 O6 1_555 1_555
C21 C22 1_555 1_555
C27 C28 1_555 1_555
C29 N9 1_555 1_555
C30 N7 1_555 1_555
C33 C34 1_555 1_555
C35 N12 1_555 1_555
C36 N10 1_555 1_555
C39 C40 1_555 1_555
C41 N13 1_555 1_555
C42 N15 1_555 1_555
C45 C46 1_555 1_555
C47 N16 1_555 1_555
C48 N18 1_555 1_555
C51 C52 1_555 1_555
N2 N4 1_555 1_555
N3 N5 1_555 1_555
N5 N6 1_555 1_555
N7 N8 1_555 1_555
N8 N9 1_555 1_555
N10 N11 1_555 1_555
N11 N12 1_555 1_555
N13 N14 1_555 1_555
N14 N15 1_555 1_555
N16 N17 1_555 1_555
N17 N18 1_555 1_555
O2 Zn4I 1_555 1_555
O8 Zn5M 1_555 1_555

#END
