
#######################################################################
#
#                 Cambridge Crystallographic Data Centre
#                                CCDC 
#
#######################################################################
#
# If this CIF has been generated from an entry in the Cambridge 
# Structural Database, then it will include bibliographic, chemical, 
# crystal, experimental, refinement or atomic coordinate data resulting 
# from the CCDC's data processing and validation procedures.
#
#######################################################################

data_KUJNUZ
_symmetry_cell_setting           tetragonal
_symmetry_space_group_name_H-M   'I 41/a'
_symmetry_Int_Tables_number      88
_space_group_name_Hall           '-I 4ad'
loop_
_symmetry_equiv_pos_site_id
_symmetry_equiv_pos_as_xyz
1 x,y,z
2 -x,1/2-y,z
3 3/4-y,1/4+x,1/4+z
4 1/4+y,1/4-x,1/4+z
5 1/2+x,1/2+y,1/2+z
6 1/2-x,-y,1/2+z
7 1/4-y,3/4+x,3/4+z
8 3/4+y,3/4-x,3/4+z
9 -x,-y,-z
10 x,1/2+y,-z
11 1/4+y,3/4-x,3/4-z
12 3/4-y,3/4+x,3/4-z
13 1/2-x,1/2-y,1/2-z
14 1/2+x,y,1/2-z
15 3/4+y,1/4-x,1/4-z
16 1/4-y,1/4+x,1/4-z
_cell_length_a                   30.048(5)
_cell_length_b                   30.048(5)
_cell_length_c                   37.908(5)
_cell_angle_alpha                90
_cell_angle_beta                 90
_cell_angle_gamma                90
_cell_volume                     34226.5
loop_
_atom_site_label
_atom_site_type_symbol
_atom_site_fract_x
_atom_site_fract_y
_atom_site_fract_z
Zn1 Zn 0.30861(3) 0.08589(3) 0.62523(4)
Zn2 Zn 0.29210(4) 0.18012(4) 0.56836(4)
Zn3 Zn 0.40330(4) 0.10827(4) 0.68159(4)
Zn4 Zn 0.21167(3) 0.07288(4) 0.67940(4)
Zn5 Zn 0.32794(4) -0.01246(4) 0.57090(4)
C1 C 0.3154(3) 0.3652(2) 0.4730(2)
C2 C 0.3382(3) 0.3289(3) 0.4606(2)
C3 C 0.3347(3) 0.2887(3) 0.4776(3)
H1 H 0.3501 0.2641 0.4691
C4 C 0.3085(3) 0.2849(2) 0.5070(2)
C5 C 0.2857(2) 0.3212(3) 0.5195(2)
H2 H 0.2680 0.3186 0.5394
C6 C 0.2892(2) 0.3614(3) 0.5025(2)
H3 H 0.2738 0.3860 0.5109
C7 C 0.3033(5) 0.2432(5) 0.5259(4)
C8 C 0.3195(4) 0.4114(4) 0.4534(4)
C9 C 0.5276(3) 0.1029(3) 0.7239(2)
C10 C 0.5682(4) 0.1168(3) 0.7114(2)
C11 C 0.6058(3) 0.1108(3) 0.7314(3)
H4 H 0.6333 0.1202 0.7229
C12 C 0.6029(3) 0.0908(3) 0.7639(3)
C13 C 0.5624(3) 0.0769(2) 0.7764(2)
H5 H 0.5604 0.0634 0.7984
C14 C 0.5247(2) 0.0829(2) 0.7564(3)
H6 H 0.4973 0.0735 0.7649
C15 C 0.4836(5) 0.1100(5) 0.7036(4)
C16 C 0.6458(5) 0.0850(6) 0.7801(4)
C17 C 0.2390(2) -0.0383(3) 0.6159(2)
C18 C 0.2112(3) -0.0168(2) 0.6390(2)
C19 C 0.1737(3) -0.0378(3) 0.6513(2)
H7 H 0.1549 -0.0232 0.6669
C20 C 0.1641(3) -0.0803(3) 0.6405(3)
H8 H 0.1387 -0.0945 0.6488
C21 C 0.1919(4) -0.1018(2) 0.6174(3)
H9 H 0.1853 -0.1306 0.6100
C22 C 0.2293(3) -0.0808(3) 0.6051(2)
H10 H 0.2482 -0.0954 0.5894
C23 C 0.3724(2) 0.2124(3) 0.6133(2)
C24 C 0.3989(3) 0.1954(2) 0.6397(3)
C25 C 0.4337(3) 0.2202(3) 0.6529(2)
H11 H 0.4515 0.2087 0.6707
C26 C 0.4420(2) 0.2621(3) 0.6397(3)
H12 H 0.4654 0.2789 0.6486
C27 C 0.4155(3) 0.2792(2) 0.6133(3)
H13 H 0.4211 0.3075 0.6043
C28 C 0.3807(3) 0.2544(3) 0.6001(2)
H14 H 0.3628 0.2659 0.5822
C29 C 0.2876(3) 0.0740(2) 0.7371(2)
C30 C 0.3331(3) 0.0829(2) 0.73719(19)
C31 C 0.3568(2) 0.0816(2) 0.7687(3)
H15 H 0.3872 0.0875 0.7687
C32 C 0.3352(3) 0.0713(2) 0.8001(2)
H16 H 0.3511 0.0704 0.8212
C33 C 0.2897(3) 0.0625(2) 0.8000(2)
H17 H 0.2752 0.0556 0.8210
C34 C 0.2659(2) 0.0638(2) 0.7686(3)
H18 H 0.2355 0.0579 0.7685
C35 C 0.3002(2) 0.0584(3) 0.51513(17)
C36 C 0.2923(2) 0.1040(3) 0.51440(19)
C37 C 0.2832(2) 0.1251(2) 0.4825(2)
H19 H 0.2779 0.1556 0.4820
C38 C 0.28219(19) 0.1006(3) 0.45139(19)
H20 H 0.2762 0.1148 0.4301
C39 C 0.2901(2) 0.0550(3) 0.45212(18)
H21 H 0.2894 0.0387 0.4313
C40 C 0.29915(19) 0.0339(2) 0.4840(2)
H22 H 0.3045 0.0034 0.4845
C41 C 0.4149(2) -0.0101(3) 0.6186(2)
C42 C 0.4336(3) 0.0175(2) 0.6425(2)
C43 C 0.4733(3) 0.0071(3) 0.6571(2)
H23 H 0.4862 0.0261 0.6735
C44 C 0.4943(2) -0.0309(3) 0.6478(2)
H24 H 0.5216 -0.0380 0.6578
C45 C 0.4755(3) -0.0585(2) 0.6239(3)
H25 H 0.4900 -0.0846 0.6175
C46 C 0.4359(3) -0.0481(3) 0.6093(2)
H26 H 0.4230 -0.0671 0.5929
C47 C 0.1807(3) 0.1563(2) 0.6360(2)
C48 C 0.2004(2) 0.1819(3) 0.6113(2)
C49 C 0.1786(3) 0.2172(3) 0.5977(2)
H27 H 0.1922 0.2348 0.5807
C50 C 0.1371(3) 0.2269(3) 0.6089(3)
H28 H 0.1221 0.2513 0.5995
C51 C 0.1174(2) 0.2014(3) 0.6336(3)
H29 H 0.0888 0.2081 0.6413
C52 C 0.1392(3) 0.1660(3) 0.6472(2)
H30 H 0.1256 0.1484 0.6642
N1 N 0.2731(2) -0.0099(3) 0.6077(2)
N2 N 0.2662(2) 0.0261(3) 0.6260(2)
N3 N 0.2288(3) 0.0228(2) 0.6457(2)
N4 N 0.3423(3) 0.1818(3) 0.6027(2)
N5 N 0.3488(2) 0.1473(3) 0.6238(2)
N6 N 0.3824(3) 0.1543(2) 0.6454(2)
N7 N 0.2713(3) 0.0776(3) 0.7030(3)
N8 N 0.3072(3) 0.0868(2) 0.6834(2)
N9 N 0.3437(2) 0.0896(2) 0.7035(2)
N10 N 0.3092(2) 0.0481(3) 0.5497(2)
N11 N 0.3052(2) 0.0862(3) 0.5675(2)
N12 N 0.2954(3) 0.1203(3) 0.5467(2)
N13 N 0.3747(3) 0.0066(2) 0.6082(2)
N14 N 0.3682(2) 0.0449(3) 0.6256(2)
N15 N 0.4035(2) 0.0534(2) 0.6459(2)
N16 N 0.2106(3) 0.1249(2) 0.6448(2)
N17 N 0.2473(2) 0.1314(2) 0.6250(2)
N18 N 0.2426(3) 0.1663(3) 0.6039(2)
N19 N 0.3583(5) 0.3256(5) 0.4308(3)
H31 H 0.3583 0.3477 0.4164
H32 H 0.3718 0.3013 0.4253
N20 N 0.5704(4) 0.1367(5) 0.6833(4)
H33 H 0.5466 0.1420 0.6715
H34 H 0.5958 0.1455 0.6755
O1 O 0.2754(3) 0.2415(3) 0.5518(3)
O2 O 0.3278(3) 0.2126(3) 0.5216(3)
O3 O 0.3001(3) 0.4441(2) 0.4666(2)
O4 O 0.3417(3) 0.4155(3) 0.4257(3)
O5 O 0.4486(2) 0.0920(3) 0.7181(2)
O6 O 0.4816(3) 0.1285(3) 0.6747(3)
O7 O 0.6460(3) 0.0603(3) 0.8077(3)
O8 O 0.6803(3) 0.1049(4) 0.7740(3)
O9 O 0.3869(2) -0.0106(2) 0.53363(19)
O10 O 0.3952(3) 0.1704(3) 0.7190(3)
Zn4M Zn 0.71167(3) 0.07288(4) 0.82060(4)
Zn5I Zn 0.32794(4) 0.48754(4) 0.42910(4)
O3I O 0.3001(3) -0.0559(2) 0.5334(2)
O4I O 0.3417(3) -0.0845(3) 0.5743(3)
O7M O 0.1460(3) 0.0603(3) 0.6923(3)
O8M O 0.1803(3) 0.1049(4) 0.7260(3)
loop_
_geom_bond_atom_site_label_1
_geom_bond_atom_site_label_2
_geom_bond_site_symmetry_1
_geom_bond_site_symmetry_2
Zn1 N2 1_555 1_555
Zn2 N4 1_555 1_555
Zn3 N6 1_555 1_555
Zn4 N3 1_555 1_555
Zn5 N1 1_555 1_555
C1 C2 1_555 1_555
C2 C3 1_555 1_555
C3 H1 1_555 1_555
C4 C3 1_555 1_555
C5 C4 1_555 1_555
H2 C5 1_555 1_555
C6 C1 1_555 1_555
H3 C6 1_555 1_555
C7 C4 1_555 1_555
C8 C1 1_555 1_555
C9 C10 1_555 1_555
C10 C11 1_555 1_555
C11 H4 1_555 1_555
C12 C11 1_555 1_555
C13 C12 1_555 1_555
H5 C13 1_555 1_555
C14 C9 1_555 1_555
H6 C14 1_555 1_555
C15 C9 1_555 1_555
C16 C12 1_555 1_555
C17 C18 1_555 1_555
C18 C19 1_555 1_555
C19 H7 1_555 1_555
C20 C19 1_555 1_555
H8 C20 1_555 1_555
C21 C20 1_555 1_555
H9 C21 1_555 1_555
C22 C17 1_555 1_555
H10 C22 1_555 1_555
C23 C24 1_555 1_555
C24 C25 1_555 1_555
C25 H11 1_555 1_555
C26 C25 1_555 1_555
H12 C26 1_555 1_555
C27 C26 1_555 1_555
H13 C27 1_555 1_555
C28 C23 1_555 1_555
H14 C28 1_555 1_555
C29 C30 1_555 1_555
C30 C31 1_555 1_555
C31 H15 1_555 1_555
C32 C31 1_555 1_555
H16 C32 1_555 1_555
C33 C32 1_555 1_555
H17 C33 1_555 1_555
C34 C29 1_555 1_555
H18 C34 1_555 1_555
C35 C36 1_555 1_555
C36 C37 1_555 1_555
C37 H19 1_555 1_555
C38 C37 1_555 1_555
H20 C38 1_555 1_555
C39 C38 1_555 1_555
H21 C39 1_555 1_555
C40 C35 1_555 1_555
H22 C40 1_555 1_555
C41 C42 1_555 1_555
C42 C43 1_555 1_555
C43 H23 1_555 1_555
C44 C43 1_555 1_555
H24 C44 1_555 1_555
C45 C44 1_555 1_555
H25 C45 1_555 1_555
C46 C41 1_555 1_555
H26 C46 1_555 1_555
C47 C48 1_555 1_555
C48 C49 1_555 1_555
C49 H27 1_555 1_555
C50 C49 1_555 1_555
H28 C50 1_555 1_555
C51 C50 1_555 1_555
H29 C51 1_555 1_555
C52 C47 1_555 1_555
H30 C52 1_555 1_555
N1 C17 1_555 1_555
N2 N1 1_555 1_555
N3 C18 1_555 1_555
N4 C23 1_555 1_555
N5 Zn1 1_555 1_555
N6 C24 1_555 1_555
N7 Zn4 1_555 1_555
N8 Zn1 1_555 1_555
N9 Zn3 1_555 1_555
N10 Zn5 1_555 1_555
N11 Zn1 1_555 1_555
N12 Zn2 1_555 1_555
N13 Zn5 1_555 1_555
N14 Zn1 1_555 1_555
N15 Zn3 1_555 1_555
N16 Zn4 1_555 1_555
N17 Zn1 1_555 1_555
N18 Zn2 1_555 1_555
N19 C2 1_555 1_555
H31 N19 1_555 1_555
H32 N19 1_555 1_555
N20 C10 1_555 1_555
H33 N20 1_555 1_555
H34 N20 1_555 1_555
O1 Zn2 1_555 1_555
O2 Zn2 1_555 1_555
O3 C8 1_555 1_555
O4 C8 1_555 1_555
O5 Zn3 1_555 1_555
O6 Zn3 1_555 1_555
O7 C16 1_555 1_555
O8 C16 1_555 1_555
O9 Zn5 1_555 1_555
O10 Zn3 1_555 1_555
Zn4M O7 1_555 1_555
Zn5I O3 1_555 1_555
O3I Zn5 1_555 1_555
O4I Zn5 1_555 1_555
O7M Zn4 1_555 1_555
O8M Zn4 1_555 1_555
C5 C6 1_555 1_555
C7 O1 1_555 1_555
C7 O2 1_555 1_555
C13 C14 1_555 1_555
C15 O5 1_555 1_555
C15 O6 1_555 1_555
C21 C22 1_555 1_555
C27 C28 1_555 1_555
C29 N7 1_555 1_555
C30 N9 1_555 1_555
C33 C34 1_555 1_555
C35 N10 1_555 1_555
C36 N12 1_555 1_555
C39 C40 1_555 1_555
C41 N13 1_555 1_555
C42 N15 1_555 1_555
C45 C46 1_555 1_555
C47 N16 1_555 1_555
C48 N18 1_555 1_555
C51 C52 1_555 1_555
N2 N3 1_555 1_555
N4 N5 1_555 1_555
N5 N6 1_555 1_555
N7 N8 1_555 1_555
N8 N9 1_555 1_555
N10 N11 1_555 1_555
N11 N12 1_555 1_555
N13 N14 1_555 1_555
N14 N15 1_555 1_555
N16 N17 1_555 1_555
N17 N18 1_555 1_555
O4 Zn5I 1_555 1_555
O8 Zn4M 1_555 1_555

#END
