
#######################################################################
#
#                 Cambridge Crystallographic Data Centre
#                                CCDC 
#
#######################################################################
#
# If this CIF has been generated from an entry in the Cambridge 
# Structural Database, then it will include bibliographic, chemical, 
# crystal, experimental, refinement or atomic coordinate data resulting 
# from the CCDC's data processing and validation procedures.
#
#######################################################################

data_KUJVUH
_symmetry_cell_setting           monoclinic
_symmetry_space_group_name_H-M   'P 21/c'
_symmetry_Int_Tables_number      14
_space_group_name_Hall           '-P 2ybc'
loop_
_symmetry_equiv_pos_site_id
_symmetry_equiv_pos_as_xyz
1 x,y,z
2 -x,1/2+y,1/2-z
3 -x,-y,-z
4 x,1/2-y,1/2+z
_cell_length_a                   12.3715(7)
_cell_length_b                   11.0291(6)
_cell_length_c                   9.9767(5)
_cell_angle_alpha                90
_cell_angle_beta                 100.4590(10)
_cell_angle_gamma                90
_cell_volume                     1338.67
loop_
_atom_site_label
_atom_site_type_symbol
_atom_site_fract_x
_atom_site_fract_y
_atom_site_fract_z
Cd1 Cd 0.269211(10) 0.767365(11) 0.151660(12)
Cl1 Cl 0.28442(4) 0.65519(4) -0.07788(4)
Cl2 Cl 0.24405(4) 0.98049(4) 0.07601(4)
S1 S 0.49217(4) 0.72260(4) 0.24982(5)
N1 N 0.08205(13) 0.70818(14) 0.12166(15)
N2 N 0.26399(12) 0.58188(13) 0.26103(14)
H1 H 0.2532 0.5986 0.3490
C1 C -0.00556(16) 0.77957(17) 0.0822(2)
H2 H 0.0056 0.8592 0.0509
C2 C -0.11250(16) 0.74145(18) 0.0854(2)
H3 H -0.1734 0.7933 0.0552
C3 C -0.12770(16) 0.62620(19) 0.1337(2)
H4 H -0.1992 0.5989 0.1410
C4 C -0.03737(16) 0.55079(18) 0.1714(2)
H5 H -0.0466 0.4707 0.2024
C5 C 0.06665(15) 0.59427(16) 0.16313(17)
C6 C 0.16712(15) 0.51400(16) 0.19333(19)
H6 H 0.1527 0.4461 0.2526
H7 H 0.1821 0.4792 0.1071
C7 C 0.36692(15) 0.51269(17) 0.27409(19)
H8 H 0.3796 0.4887 0.1826
H9 H 0.3614 0.4380 0.3275
C8 C 0.46300(15) 0.58958(17) 0.34501(19)
H10 H 0.5297 0.5382 0.3630
H11 H 0.4472 0.6164 0.4342
C9 C 0.55445(17) 0.6499(2) 0.1199(2)
H12 H 0.6083 0.5899 0.1625
H13 H 0.5913 0.7110 0.0729
H14 H 0.4974 0.6094 0.0541
Cd1C Cd 0.269211(10) 0.732635(11) -0.348340(12)
Cl1C Cl 0.28442(4) 0.84481(4) 0.42212(4)
loop_
_geom_bond_atom_site_label_1
_geom_bond_atom_site_label_2
_geom_bond_site_symmetry_1
_geom_bond_site_symmetry_2
Cd1 Cl1 1_555 1_555
Cl1 Cd1C 1_555 1_555
Cl2 Cd1 1_555 1_555
S1 Cd1 1_555 1_555
N1 Cd1 1_555 1_555
N2 Cd1 1_555 1_555
H1 N2 1_555 1_555
C1 N1 1_555 1_555
H2 C1 1_555 1_555
C2 C1 1_555 1_555
H3 C2 1_555 1_555
C3 C2 1_555 1_555
H4 C3 1_555 1_555
C4 C3 1_555 1_555
H5 C4 1_555 1_555
C5 N1 1_555 1_555
C6 N2 1_555 1_555
H6 C6 1_555 1_555
H7 C6 1_555 1_555
C7 N2 1_555 1_555
H8 C7 1_555 1_555
H9 C7 1_555 1_555
C8 S1 1_555 1_555
H10 C8 1_555 1_555
H11 C8 1_555 1_555
C9 S1 1_555 1_555
H12 C9 1_555 1_555
H13 C9 1_555 1_555
H14 C9 1_555 1_555
Cl1C Cd1 1_555 1_555
C4 C5 1_555 1_555
C5 C6 1_555 1_555
C7 C8 1_555 1_555

#END
