
#######################################################################
#
#                 Cambridge Crystallographic Data Centre
#                                CCDC 
#
#######################################################################
#
# If this CIF has been generated from an entry in the Cambridge 
# Structural Database, then it will include bibliographic, chemical, 
# crystal, experimental, refinement or atomic coordinate data resulting 
# from the CCDC's data processing and validation procedures.
#
#######################################################################

data_KUJWOD
_symmetry_cell_setting           monoclinic
_symmetry_space_group_name_H-M   'P 21/n'
_symmetry_Int_Tables_number      14
_space_group_name_Hall           '-P 2yn'
loop_
_symmetry_equiv_pos_site_id
_symmetry_equiv_pos_as_xyz
1 x,y,z
2 1/2-x,1/2+y,1/2-z
3 -x,-y,-z
4 1/2+x,1/2-y,1/2+z
_cell_length_a                   16.533(2)
_cell_length_b                   10.0741(14)
_cell_length_c                   21.535(3)
_cell_angle_alpha                90
_cell_angle_beta                 96.023(2)
_cell_angle_gamma                90
_cell_volume                     3566.96
loop_
_atom_site_label
_atom_site_type_symbol
_atom_site_fract_x
_atom_site_fract_y
_atom_site_fract_z
C1 C 0.6641(4) 0.2147(6) 0.5567(3)
H1 H 0.6211 0.1867 0.5269
C2 C 0.7375(4) 0.1482(6) 0.5606(3)
H2 H 0.7445 0.0749 0.5339
C3 C 0.8011(4) 0.1893(6) 0.6038(3)
H3 H 0.8525 0.1466 0.6062
C4 C 0.7875(4) 0.2941(6) 0.6431(3)
H4 H 0.8298 0.3229 0.6734
C5 C 0.7130(3) 0.3566(6) 0.6386(3)
C6 C 0.6955(3) 0.4695(6) 0.6798(2)
C7 C 0.7644(4) 0.5134(6) 0.7249(3)
C8 C 0.8188(4) 0.6076(7) 0.7063(3)
H5 H 0.8096 0.6467 0.6660
C9 C 0.8866(4) 0.6445(7) 0.7467(3)
H6 H 0.9231 0.7096 0.7341
C10 C 0.9005(4) 0.5871(7) 0.8043(3)
H7 H 0.9472 0.6115 0.8315
C11 C 0.8470(4) 0.4937(7) 0.8232(3)
H8 H 0.8568 0.4541 0.8633
C12 C 0.7786(4) 0.4576(7) 0.7835(3)
H9 H 0.7416 0.3942 0.7969
C13 C 0.6081(4) 0.6461(7) 0.7062(3)
H10 H 0.6258 0.7225 0.6820
H11 H 0.6404 0.6470 0.7476
C14 C 0.5197(4) 0.6624(7) 0.7149(3)
H12 H 0.5104 0.7532 0.7303
H13 H 0.4868 0.6516 0.6741
C15 C 0.4931(4) 0.5664(7) 0.7589(3)
H14 H 0.5293 0.5722 0.7984
H15 H 0.4985 0.4760 0.7418
C16 C 0.4025(4) 0.5877(7) 0.7734(3)
H16 H 0.3965 0.6780 0.7905
H17 H 0.3657 0.5803 0.7342
C17 C 0.3076(4) 0.4413(6) 0.8158(2)
C18 C 0.2374(3) 0.4783(6) 0.7691(3)
C19 C 0.2244(4) 0.4192(7) 0.7118(3)
H18 H 0.2618 0.3552 0.6996
C20 C 0.1561(5) 0.4530(8) 0.6713(3)
H19 H 0.1475 0.4121 0.6314
C21 C 0.1020(4) 0.5435(8) 0.6883(3)
H20 H 0.0551 0.5640 0.6607
C22 C 0.1145(4) 0.6069(8) 0.7460(3)
H21 H 0.0774 0.6726 0.7571
C23 C 0.1819(4) 0.5727(7) 0.7870(3)
H22 H 0.1903 0.6131 0.8270
C24 C 0.2913(3) 0.3375(6) 0.8626(2)
C25 C 0.2173(4) 0.2702(6) 0.8593(3)
H23 H 0.1743 0.2934 0.8284
C26 C 0.2069(4) 0.1701(6) 0.9010(3)
H24 H 0.1567 0.1236 0.8994
C27 C 0.2702(4) 0.1380(6) 0.9453(3)
H25 H 0.2647 0.0682 0.9742
C28 C 0.3423(4) 0.2095(6) 0.9468(3)
H26 H 0.3859 0.1876 0.9773
Cl1 Cl 0.48973(9) 0.65917(14) 0.53672(6)
Cl2 Cl 0.41035(9) 0.35442(15) 0.62237(7)
Cl3 Cl 0.43220(11) 0.00839(16) 0.56332(8)
Cl4 Cl 0.29812(10) 0.34151(19) 0.44882(8)
Cl5 Cl 0.50415(9) 0.65736(14) 0.95792(7)
Cl6 Cl 0.60085(9) 0.36933(15) 0.88626(7)
Cl7 Cl 0.57518(11) 0.02723(16) 0.94307(8)
Cl8 Cl 0.70904(10) 0.35906(18) 1.06012(8)
Hg1 Hg 0.537748(13) 0.44474(2) 0.587399(10)
Hg2 Hg 0.463374(13) 0.43714(2) 0.910713(10)
Hg3 Hg 0.633635(14) 0.21333(2) 0.991565(10)
Hg4 Hg 0.373436(14) 0.19547(2) 0.516256(11)
N1 N 0.6521(3) 0.3183(5) 0.5942(2)
N2 N 0.6251(3) 0.5213(5) 0.6733(2)
N3 N 0.3794(3) 0.4885(5) 0.8187(2)
N4 N 0.3522(3) 0.3074(5) 0.9069(2)
Cl1B Cl 0.51027(9) 0.34083(14) 0.46328(6)
Cl4C Cl 0.79812(10) 0.15849(19) 0.94882(8)
Cl5B Cl 0.49585(9) 0.34264(14) 1.04208(7)
Cl8C Cl 0.20904(10) 0.14094(18) 0.56012(8)
Hg1B Hg 0.462252(13) 0.55526(2) 0.412601(10)
Hg2B Hg 0.536626(13) 0.56286(2) 1.089287(10)
Hg3B Hg 0.366365(14) 0.78667(2) 1.008435(10)
Hg3C Hg 0.133635(14) 0.28667(2) 0.491565(10)
Hg4B Hg 0.626564(14) 0.80453(2) 0.483744(11)
Hg4C Hg 0.873436(14) 0.30453(2) 1.016256(11)
loop_
_geom_bond_atom_site_label_1
_geom_bond_atom_site_label_2
_geom_bond_site_symmetry_1
_geom_bond_site_symmetry_2
C1 H1 1_555 1_555
C2 C1 1_555 1_555
H2 C2 1_555 1_555
C3 C2 1_555 1_555
H3 C3 1_555 1_555
C4 C3 1_555 1_555
H4 C4 1_555 1_555
C5 C4 1_555 1_555
C6 C5 1_555 1_555
C7 C6 1_555 1_555
C8 C7 1_555 1_555
H5 C8 1_555 1_555
C9 C8 1_555 1_555
H6 C9 1_555 1_555
C10 C9 1_555 1_555
H7 C10 1_555 1_555
C11 C10 1_555 1_555
H8 C11 1_555 1_555
C12 C7 1_555 1_555
H9 C12 1_555 1_555
C13 H10 1_555 1_555
H11 C13 1_555 1_555
C14 C13 1_555 1_555
H12 C14 1_555 1_555
H13 C14 1_555 1_555
C15 C14 1_555 1_555
H14 C15 1_555 1_555
H15 C15 1_555 1_555
C16 C15 1_555 1_555
H16 C16 1_555 1_555
H17 C16 1_555 1_555
C17 C18 1_555 1_555
C18 C19 1_555 1_555
C19 H18 1_555 1_555
C20 C19 1_555 1_555
H19 C20 1_555 1_555
C21 C20 1_555 1_555
H20 C21 1_555 1_555
C22 C21 1_555 1_555
H21 C22 1_555 1_555
C23 C18 1_555 1_555
H22 C23 1_555 1_555
C24 C17 1_555 1_555
C25 C24 1_555 1_555
H23 C25 1_555 1_555
C26 C25 1_555 1_555
H24 C26 1_555 1_555
C27 C26 1_555 1_555
H25 C27 1_555 1_555
C28 C27 1_555 1_555
H26 C28 1_555 1_555
Cl1 Hg1 1_555 1_555
Cl2 Hg1 1_555 1_555
Cl3 Hg4 1_555 1_555
Cl4 Hg4 1_555 1_555
Cl5 Hg2 1_555 1_555
Cl6 Hg2 1_555 1_555
Cl7 Hg3 1_555 1_555
Cl8 Hg3 1_555 1_555
Hg1 N1 1_555 1_555
Hg2 N3 1_555 1_555
Hg3 Cl6 1_555 1_555
Hg4 Cl2 1_555 1_555
N1 C1 1_555 1_555
N2 C6 1_555 1_555
N3 C16 1_555 1_555
N4 C24 1_555 1_555
Cl1B Hg1 1_555 1_555
Cl4C Hg3 1_555 1_555
Cl5B Hg2 1_555 1_555
Cl8C Hg4 1_555 1_555
Hg1B Cl1 1_555 1_555
Hg2B Cl5 1_555 1_555
Hg3B Cl5 1_555 1_555
Hg3C Cl4 1_555 1_555
Hg4B Cl1 1_555 1_555
Hg4C Cl8 1_555 1_555
C5 N1 1_555 1_555
C11 C12 1_555 1_555
C13 N2 1_555 1_555
C17 N3 1_555 1_555
C22 C23 1_555 1_555
C28 N4 1_555 1_555
Hg1 N2 1_555 1_555
Hg2 N4 1_555 1_555
Hg3 Cl5B 1_555 1_555
Hg4 Cl1B 1_555 1_555
Cl1B Hg1B 1_555 1_555
Cl4C Hg4C 1_555 1_555
Cl5B Hg2B 1_555 1_555
Cl8C Hg3C 1_555 1_555

#END
