
#######################################################################
#
#                 Cambridge Crystallographic Data Centre
#                                CCDC 
#
#######################################################################
#
# If this CIF has been generated from an entry in the Cambridge 
# Structural Database, then it will include bibliographic, chemical, 
# crystal, experimental, refinement or atomic coordinate data resulting 
# from the CCDC's data processing and validation procedures.
#
#######################################################################

data_KUKHIJ
_symmetry_cell_setting           triclinic
_symmetry_space_group_name_H-M   'P -1'
_symmetry_Int_Tables_number      2
_space_group_name_Hall           '-P 1'
loop_
_symmetry_equiv_pos_site_id
_symmetry_equiv_pos_as_xyz
1 x,y,z
2 -x,-y,-z
_cell_length_a                   9.3189(3)
_cell_length_b                   13.4985(4)
_cell_length_c                   14.3207(4)
_cell_angle_alpha                116.1170(10)
_cell_angle_beta                 92.3930(10)
_cell_angle_gamma                109.7540(10)
_cell_volume                     1483.1
loop_
_atom_site_label
_atom_site_type_symbol
_atom_site_fract_x
_atom_site_fract_y
_atom_site_fract_z
Zn1 Zn 0.60253(4) 0.72509(3) 0.96545(3)
O1 O 0.4234(3) 0.5737(2) 0.8676(2)
O2 O 0.2526(3) 0.6558(2) 0.8725(3)
O3 O -0.2492(4) -0.1114(3) 0.1207(2)
O4 O -0.4635(3) -0.2454(3) 0.1145(2)
O5 O -0.4323(3) -0.0958(3) 0.9484(2)
O6 O -0.3076(3) -0.2110(2) 0.8681(2)
N1 N -0.2071(3) 0.0987(2) 0.6221(2)
N2 N 0.7501(3) 0.6388(2) 0.9723(2)
C1 C -0.2410(4) 0.0354(3) 0.5101(3)
C2 C -0.1459(4) 0.0808(3) 0.4537(3)
H1 H -0.0583 0.1528 0.4904
C3 C -0.1813(4) 0.0192(3) 0.3432(3)
H2 H -0.1162 0.0500 0.3065
C4 C -0.3119(4) -0.0876(3) 0.2862(3)
C5 C -0.4063(4) -0.1322(3) 0.3426(3)
H3 H -0.4941 -0.2039 0.3056
C6 C -0.3723(4) -0.0720(3) 0.4528(3)
H4 H -0.4376 -0.1034 0.4891
C7 C -0.2456(4) 0.0377(3) 0.6835(3)
C8 C -0.3069(4) 0.0854(3) 0.7718(3)
H5 H -0.3251 0.1543 0.7882
C9 C -0.3410(4) 0.0316(3) 0.8352(3)
H6 H -0.3831 0.0639 0.8936
C10 C -0.3128(4) -0.0707(3) 0.8125(3)
C11 C -0.2521(4) -0.1187(3) 0.7241(3)
H7 H -0.2325 -0.1869 0.7082
C12 C -0.2202(4) -0.0654(3) 0.6593(3)
H8 H -0.1817 -0.0992 0.5993
C13 C -0.0832(4) 0.2171(3) 0.6763(2)
C14 C -0.1083(4) 0.3152(3) 0.6860(3)
H9 H -0.2065 0.3058 0.6576
C15 C 0.0127(4) 0.4285(3) 0.7381(3)
H10 H -0.0057 0.4947 0.7448
C16 C 0.1604(4) 0.4444(3) 0.7802(3)
C17 C 0.1849(4) 0.3446(3) 0.7682(3)
H11 H 0.2839 0.3533 0.7944
C18 C 0.0639(4) 0.2314(3) 0.7176(3)
H12 H 0.0816 0.1651 0.7113
C19 C -0.3534(4) -0.1292(3) 0.8819(3)
C20 C -0.3458(5) -0.1534(3) 0.1654(3)
C21 C 0.2884(4) 0.5682(3) 0.8431(3)
C22 C 0.6951(4) 0.5207(3) 0.9401(3)
H13 H 0.5886 0.4752 0.9105
C23 C 0.7882(4) 0.4636(3) 0.9486(3)
H14 H 0.7443 0.3813 0.9247
C24 C 0.9481(4) 0.5285(3) 0.9930(3)
C25 C 1.0045(4) 0.6499(3) 1.0244(3)
H15 H 1.1110 0.6971 1.0521
C26 C 0.9034(4) 0.7011(3) 1.0146(3)
H16 H 0.9441 0.7835 1.0387
N2A N 1.2499(3) 0.3612(2) 1.0277(2)
C22A C 1.3049(4) 0.4793(3) 1.0599(3)
H13A H 1.4114 0.5248 1.0895
C23A C 1.2118(4) 0.5364(3) 1.0514(3)
H14A H 1.2557 0.6187 1.0753
C24A C 1.0519(4) 0.4715(3) 1.0070(3)
C25A C 0.9955(4) 0.3501(3) 0.9756(3)
H15A H 0.8890 0.3029 0.9479
C26A C 1.0966(4) 0.2989(3) 0.9854(3)
H16A H 1.0559 0.2165 0.9613
Zn1A Zn 1.39747(4) 0.27491(3) 1.03455(3)
O1A O 1.5766(3) 0.4263(2) 1.1324(2)
O2A O 1.7474(3) 0.3442(2) 1.1275(3)
O3A O 2.2492(4) 1.1114(3) 1.8793(2)
O4A O 2.4635(3) 1.2454(3) 1.8855(2)
O5A O 2.4323(3) 1.0958(3) 1.0516(2)
O6A O 2.3076(3) 1.2110(2) 1.1319(2)
N1A N 2.2071(3) 0.9013(2) 1.3779(2)
C1A C 2.2410(4) 0.9646(3) 1.4899(3)
C2A C 2.1459(4) 0.9192(3) 1.5463(3)
H1A H 2.0583 0.8472 1.5096
C3A C 2.1813(4) 0.9808(3) 1.6568(3)
H2A H 2.1162 0.9500 1.6935
C4A C 2.3119(4) 1.0876(3) 1.7138(3)
C5A C 2.4063(4) 1.1322(3) 1.6574(3)
H3A H 2.4941 1.2039 1.6944
C6A C 2.3723(4) 1.0720(3) 1.5472(3)
H4A H 2.4376 1.1034 1.5109
C7A C 2.2456(4) 0.9623(3) 1.3165(3)
C8A C 2.3069(4) 0.9146(3) 1.2282(3)
H5A H 2.3251 0.8457 1.2118
C9A C 2.3410(4) 0.9684(3) 1.1648(3)
H6A H 2.3831 0.9361 1.1064
C10A C 2.3128(4) 1.0707(3) 1.1875(3)
C11A C 2.2521(4) 1.1187(3) 1.2759(3)
H7A H 2.2325 1.1869 1.2918
C12A C 2.2202(4) 1.0654(3) 1.3407(3)
H8A H 2.1817 1.0992 1.4007
C13A C 2.0832(4) 0.7829(3) 1.3237(2)
C14A C 2.1083(4) 0.6848(3) 1.3140(3)
H9A H 2.2065 0.6942 1.3424
C15A C 1.9873(4) 0.5715(3) 1.2619(3)
H10A H 2.0057 0.5053 1.2552
C16A C 1.8396(4) 0.5556(3) 1.2198(3)
C17A C 1.8151(4) 0.6554(3) 1.2318(3)
H11A H 1.7161 0.6467 1.2056
C18A C 1.9361(4) 0.7686(3) 1.2824(3)
H12A H 1.9184 0.8349 1.2887
C19A C 2.3534(4) 1.1292(3) 1.1181(3)
C20A C 2.3458(5) 1.1534(3) 1.8346(3)
C21A C 1.7116(4) 0.4318(3) 1.1569(3)
Zn1_2 Zn -0.39747(4) -0.27491(3) -0.03455(3)
Zn1_3 Zn -0.39747(4) -0.27491(3) 0.96545(3)
Zn1A_2 Zn 2.39747(4) 1.27491(3) 1.03455(3)
Zn1A_3 Zn 2.39747(4) 1.27491(3) 2.03455(3)
O3_2 O 0.7508(4) 0.8886(3) 1.1207(2)
O3A_2 O 1.2492(4) 0.1114(3) 0.8793(2)
O4_2 O 0.5365(3) 0.7546(3) 1.1145(2)
O4A_2 O 1.4635(3) 0.2454(3) 0.8855(2)
O6_2 O 0.6924(3) 0.7890(2) 0.8681(2)
O6A_2 O 1.3076(3) 0.2110(2) 1.1319(2)
O7 O -0.1318(13) 0.6087(9) 0.6286(8)
N3 N -0.3674(11) 0.4587(8) 0.5865(7)
C27 C -0.5209(15) 0.4132(13) 0.6101(13)
H17 H -0.5223 0.4699 0.6800
H18 H -0.5392 0.3375 0.6075
H19 H -0.6013 0.4024 0.5581
C28 C -0.3538(15) 0.3790(11) 0.4811(9)
H20 H -0.2523 0.4148 0.4702
H21 H -0.4330 0.3668 0.4274
H22 H -0.3671 0.3031 0.4763
C29 C -0.2518(13) 0.5648(9) 0.6660(9)
H23 H -0.2575 0.6010 0.7372
N4 N 0.2507(5) 0.8604(4) 0.8662(3)
H24 H 0.3300 0.8907 0.9175
C30 C 0.1008(5) 0.8595(5) 0.8866(4)
H25 H 0.1077 0.8964 0.9622
H26 H 0.0249 0.7780 0.8531
H27 H 0.0697 0.9035 0.8582
C31 C 0.2629(6) 0.8076(5) 0.7542(4)
H28 H 0.3679 0.8133 0.7509
H29 H 0.2372 0.8504 0.7220
H30 H 0.1916 0.7247 0.7165
loop_
_geom_bond_atom_site_label_1
_geom_bond_atom_site_label_2
_geom_bond_site_symmetry_1
_geom_bond_site_symmetry_2
Zn1 O1 1_555 1_555
O1 C21 1_555 1_555
O2 C21 1_555 1_555
O3 C20 1_555 1_555
O4 C20 1_555 1_555
O5 C19 1_555 1_555
O6 C19 1_555 1_555
N1 C1 1_555 1_555
N2 Zn1 1_555 1_555
C1 C2 1_555 1_555
C2 H1 1_555 1_555
C3 C2 1_555 1_555
H2 C3 1_555 1_555
C4 C3 1_555 1_555
C5 C4 1_555 1_555
H3 C5 1_555 1_555
C6 C1 1_555 1_555
H4 C6 1_555 1_555
C7 N1 1_555 1_555
C8 C7 1_555 1_555
H5 C8 1_555 1_555
C9 C8 1_555 1_555
H6 C9 1_555 1_555
C10 C9 1_555 1_555
C11 C10 1_555 1_555
H7 C11 1_555 1_555
C12 C7 1_555 1_555
H8 C12 1_555 1_555
C13 N1 1_555 1_555
C14 C13 1_555 1_555
H9 C14 1_555 1_555
C15 C14 1_555 1_555
H10 C15 1_555 1_555
C16 C15 1_555 1_555
C17 C16 1_555 1_555
H11 C17 1_555 1_555
C18 C13 1_555 1_555
H12 C18 1_555 1_555
C19 C10 1_555 1_555
C20 C4 1_555 1_555
C21 C16 1_555 1_555
C22 N2 1_555 1_555
H13 C22 1_555 1_555
C23 C22 1_555 1_555
H14 C23 1_555 1_555
C24 C23 1_555 1_555
C25 C24 1_555 1_555
H15 C25 1_555 1_555
C26 N2 1_555 1_555
H16 C26 1_555 1_555
O7 C29 1_555 1_555
N3 C27 1_555 1_555
C27 H17 1_555 1_555
H18 C27 1_555 1_555
H19 C27 1_555 1_555
C28 N3 1_555 1_555
H20 C28 1_555 1_555
H21 C28 1_555 1_555
H22 C28 1_555 1_555
C29 N3 1_555 1_555
H23 C29 1_555 1_555
N4 H24 1_555 1_555
C30 N4 1_555 1_555
H25 C30 1_555 1_555
H26 C30 1_555 1_555
H27 C30 1_555 1_555
C31 N4 1_555 1_555
H28 C31 1_555 1_555
H29 C31 1_555 1_555
H30 C31 1_555 1_555
N2A C22A 1_555 1_555
C22A H13A 1_555 1_555
C23A C22A 1_555 1_555
H14A C23A 1_555 1_555
C24A C24 1_555 1_555
C25A C24A 1_555 1_555
H15A C25A 1_555 1_555
C26A N2A 1_555 1_555
H16A C26A 1_555 1_555
Zn1A N2A 1_555 1_555
O1A Zn1A 1_555 1_555
O2A C21A 1_555 1_555
O3A C20A 1_555 1_555
O4A C20A 1_555 1_555
O5A C19A 1_555 1_555
O6A C19A 1_555 1_555
N1A C1A 1_555 1_555
C1A C2A 1_555 1_555
C2A H1A 1_555 1_555
C3A C2A 1_555 1_555
H2A C3A 1_555 1_555
C4A C3A 1_555 1_555
C5A C4A 1_555 1_555
H3A C5A 1_555 1_555
C6A C1A 1_555 1_555
H4A C6A 1_555 1_555
C7A N1A 1_555 1_555
C8A C7A 1_555 1_555
H5A C8A 1_555 1_555
C9A C8A 1_555 1_555
H6A C9A 1_555 1_555
C10A C9A 1_555 1_555
C11A C10A 1_555 1_555
H7A C11A 1_555 1_555
C12A C7A 1_555 1_555
H8A C12A 1_555 1_555
C13A N1A 1_555 1_555
C14A C13A 1_555 1_555
H9A C14A 1_555 1_555
C15A C14A 1_555 1_555
H10A C15A 1_555 1_555
C16A C15A 1_555 1_555
C17A C16A 1_555 1_555
H11A C17A 1_555 1_555
C18A C13A 1_555 1_555
H12A C18A 1_555 1_555
C19A C10A 1_555 1_555
C20A C4A 1_555 1_555
C21A O1A 1_555 1_555
Zn1_2 O3 1_555 1_555
Zn1_3 O6 1_555 1_555
Zn1A_2 O6A 1_555 1_555
Zn1A_3 O3A 1_555 1_555
O3_2 Zn1 1_555 1_555
O3A_2 Zn1A 1_555 1_555
O4_2 Zn1 1_555 1_555
O4A_2 Zn1A 1_555 1_555
O6_2 Zn1 1_555 1_555
O6A_2 Zn1A 1_555 1_555
O4 Zn1_2 1_555 1_555
C5 C6 1_555 1_555
C11 C12 1_555 1_555
C17 C18 1_555 1_555
C25 C26 1_555 1_555
C23A C24A 1_555 1_555
C25A C26A 1_555 1_555
O4A Zn1A_3 1_555 1_555
C5A C6A 1_555 1_555
C11A C12A 1_555 1_555
C16A C21A 1_555 1_555
C17A C18A 1_555 1_555

#END
