
#######################################################################
#
#                 Cambridge Crystallographic Data Centre
#                                CCDC 
#
#######################################################################
#
# If this CIF has been generated from an entry in the Cambridge 
# Structural Database, then it will include bibliographic, chemical, 
# crystal, experimental, refinement or atomic coordinate data resulting 
# from the CCDC's data processing and validation procedures.
#
#######################################################################

data_KUKHON
_symmetry_cell_setting           orthorhombic
_symmetry_space_group_name_H-M   'P 21 21 21'
_symmetry_Int_Tables_number      19
_space_group_name_Hall           'P 2ac 2ab'
loop_
_symmetry_equiv_pos_site_id
_symmetry_equiv_pos_as_xyz
1 x,y,z
2 1/2+x,1/2-y,-z
3 -x,1/2+y,1/2-z
4 1/2-x,-y,1/2+z
_cell_length_a                   10.070(1)
_cell_length_b                   18.832(2)
_cell_length_c                   9.425(1)
_cell_angle_alpha                90
_cell_angle_beta                 90
_cell_angle_gamma                90
_cell_volume                     1787.34
loop_
_atom_site_label
_atom_site_type_symbol
_atom_site_fract_x
_atom_site_fract_y
_atom_site_fract_z
Cu1 Cu 0.49178(5) 0.23571(3) -0.42398(6)
O1 O 0.9096(3) 0.2138(2) -0.4202(4)
O2 O 0.7060(3) 0.2223(2) -0.5147(4)
O3 O 0.5711(4) 0.3254(2) -0.3494(4)
O4 O 0.5181(4) 0.4340(2) -0.2751(5)
O5 O 0.4045(4) 0.1474(2) -0.4923(4)
O6 O 0.1762(5) 0.1284(3) -0.0667(5)
N1 N 0.5861(4) 0.1654(2) -0.2854(4)
N2 N 0.3667(4) 0.2630(2) -0.2034(5)
N3 N 0.3644(5) 0.0374(2) -0.4059(5)
N4 N 0.1767(4) 0.1429(3) -0.3047(5)
C1 C 0.5183(5) 0.1630(3) -0.1451(5)
C2 C 0.4662(5) 0.2358(3) -0.1021(5)
C3 C 0.7282(4) 0.1864(3) -0.2722(6)
C4 C 0.7831(5) 0.2089(3) -0.4166(6)
C5 C 0.3729(6) 0.3415(3) -0.2108(6)
C6 C 0.4972(6) 0.3688(3) -0.2823(5)
C7 C 0.5767(5) 0.0952(3) -0.3569(6)
C8 C 0.4402(5) 0.0933(3) -0.4248(6)
C9 C 0.2287(5) 0.2444(3) -0.1593(6)
C10 C 0.1925(5) 0.1656(3) -0.1749(6)
C11 C 0.2257(6) 0.0379(3) -0.4549(7)
C12 C 0.1379(6) 0.0699(3) -0.3404(8)
H1 H 0.580 0.147 -0.076
H2 H 0.446 0.131 -0.150
H3 H 0.426 0.232 -0.011
H4 H 0.538 0.268 -0.098
H5 H 0.778 0.147 -0.237
H6 H 0.735 0.225 -0.208
H7 H 0.370 0.360 -0.117
H8 H 0.298 0.358 -0.262
H9 H 0.586 0.058 -0.290
H10 H 0.644 0.091 -0.427
H11 H 0.169 0.271 -0.216
H12 H 0.218 0.257 -0.062
H13 H 0.197 -0.009 -0.474
H14 H 0.219 0.066 -0.539
H15 H 0.049 0.070 -0.373
H16 H 0.144 0.042 -0.257
H17 H 0.400 -0.004 -0.362
H18 H 0.191 0.175 -0.380
O1A O 0.4096(3) 0.2862(2) -0.5798(4)
Cu1A Cu 0.99178(5) 0.26429(3) -0.57602(6)
O7 O 0.6732(7) 0.6359(3) -0.6879(6)
H19 H 0.584 0.632 -0.697
H20 H 0.701 0.647 -0.595
O8 O 0.3457(7) 0.5026(3) -0.4861(8)
H21 H 0.282 0.501 -0.420
H22 H 0.326 0.470 -0.560
O9 O 0.5991(7) 0.9556(4) -0.5947(8)
O10 O 0.5758(6) 0.0684(3) -0.7682(8)
H23 H 0.642 0.050 -0.832
H24 H 0.545 0.031 -0.710
loop_
_geom_bond_atom_site_label_1
_geom_bond_atom_site_label_2
_geom_bond_site_symmetry_1
_geom_bond_site_symmetry_2
Cu1 O2 1_555 1_555
O1 C4 1_555 1_555
O2 C4 1_555 1_555
O3 Cu1 1_555 1_555
O4 C6 1_555 1_555
O5 Cu1 1_555 1_555
O6 C10 1_555 1_555
N1 Cu1 1_555 1_555
N2 Cu1 1_555 1_555
N3 C8 1_555 1_555
N4 C10 1_555 1_555
C1 N1 1_555 1_555
C2 N2 1_555 1_555
C3 N1 1_555 1_555
C4 C3 1_555 1_555
C5 N2 1_555 1_555
C6 O3 1_555 1_555
C7 N1 1_555 1_555
C8 O5 1_555 1_555
C9 N2 1_555 1_555
C10 C9 1_555 1_555
C11 N3 1_555 1_555
C12 N4 1_555 1_555
O7 H19 1_555 1_555
O8 H21 1_555 1_555
O10 H23 1_555 1_555
H1 C1 1_555 1_555
H2 C1 1_555 1_555
H3 C2 1_555 1_555
H4 C2 1_555 1_555
H5 C3 1_555 1_555
H6 C3 1_555 1_555
H7 C5 1_555 1_555
H8 C5 1_555 1_555
H9 C7 1_555 1_555
H10 C7 1_555 1_555
H11 C9 1_555 1_555
H12 C9 1_555 1_555
H13 C11 1_555 1_555
H14 C11 1_555 1_555
H15 C12 1_555 1_555
H16 C12 1_555 1_555
H17 N3 1_555 1_555
H18 N4 1_555 1_555
H20 O7 1_555 1_555
H22 O8 1_555 1_555
H24 O10 1_555 1_555
O1A Cu1 1_555 1_555
Cu1A O1 1_555 1_555
C1 C2 1_555 1_555
C5 C6 1_555 1_555
C7 C8 1_555 1_555
C11 C12 1_555 1_555

#END
