
#######################################################################
#
#                 Cambridge Crystallographic Data Centre
#                                CCDC 
#
#######################################################################
#
# If this CIF has been generated from an entry in the Cambridge 
# Structural Database, then it will include bibliographic, chemical, 
# crystal, experimental, refinement or atomic coordinate data resulting 
# from the CCDC's data processing and validation procedures.
#
#######################################################################

data_KUKMUA
_symmetry_cell_setting           orthorhombic
_symmetry_space_group_name_H-M   'F d d 2'
_symmetry_Int_Tables_number      43
_space_group_name_Hall           'F 2 -2d'
loop_
_symmetry_equiv_pos_site_id
_symmetry_equiv_pos_as_xyz
1 x,y,z
2 -x,-y,z
3 1/4-x,1/4+y,1/4+z
4 1/4+x,1/4-y,1/4+z
5 x,1/2+y,1/2+z
6 -x,1/2-y,1/2+z
7 1/4-x,3/4+y,3/4+z
8 1/4+x,3/4-y,3/4+z
9 1/2+x,y,1/2+z
10 1/2-x,-y,1/2+z
11 3/4-x,1/4+y,3/4+z
12 3/4+x,1/4-y,3/4+z
13 1/2+x,1/2+y,z
14 1/2-x,1/2-y,z
15 3/4-x,3/4+y,1/4+z
16 3/4+x,3/4-y,1/4+z
_cell_length_a                   24.748(5)
_cell_length_b                   32.354(5)
_cell_length_c                   21.712(5)
_cell_angle_alpha                90
_cell_angle_beta                 90
_cell_angle_gamma                90
_cell_volume                     17384.7
loop_
_atom_site_label
_atom_site_type_symbol
_atom_site_fract_x
_atom_site_fract_y
_atom_site_fract_z
C1 C 0.5914(5) 0.3229(4) 0.2089(7)
C2 C 0.5685(3) 0.3093(3) 0.2628(8)
H1 H 0.5428 0.2884 0.2615
C3 C 0.5832(4) 0.3263(3) 0.3201(6)
C4 C 0.6248(5) 0.3565(4) 0.3210(7)
H2 H 0.6397 0.3654 0.3580
C5 C 0.6425(3) 0.3723(2) 0.2655(8)
C6 C 0.6255(5) 0.3578(3) 0.2104(6)
H3 H 0.6361 0.3707 0.1741
C7 C 0.5707(5) 0.3067(4) 0.1498(6)
C8 C 0.5655(5) 0.3097(4) 0.3820(6)
C9 C 0.8254(4) 0.4443(4) 0.6317(5)
C10 C 0.5978(6) 0.4066(3) -0.0176(5)
H4 H 0.5620 0.4053 -0.0304
C11 C 0.6805(8) 0.4395(6) -0.0124(14)
C12 C 0.6047(8) 0.4680(6) -0.0700(9)
C13 C 0.8479(6) 0.3441(5) 0.2962(7)
H5 H 0.8135 0.3464 0.3132
C14 C 0.8559(6) 0.2762(4) 0.3453(8)
H6 H 0.8830 0.2551 0.3495
H7 H 0.8248 0.2650 0.3250
H8 H 0.8458 0.2861 0.3854
C15 C 0.9349(6) 0.3062(4) 0.2931(8)
H9 H 0.9481 0.2799 0.3068
H10 H 0.9550 0.3279 0.3128
H11 H 0.9391 0.3083 0.2493
C16 C 0.8164(5) 0.4388(4) 0.4006(6)
C17 C 0.8739(4) 0.3918(3) 0.4596(6)
H12 H 0.8811 0.3786 0.4225
C18 C 0.8409(5) 0.4247(3) 0.4593(6)
C19 C 0.8232(3) 0.4413(2) 0.5134(7)
H13 H 0.7992 0.4634 0.5130
C20 C 0.8412(5) 0.4248(4) 0.5702(6)
C21 C 0.8830(4) 0.3940(4) 0.5697(6)
H14 H 0.8997 0.3861 0.6062
C22 C 0.8982(4) 0.3763(3) 0.5139(8)
N1 N 0.8774(4) 0.3101(3) 0.3092(5)
N2 N 0.6256(5) 0.4376(4) -0.0332(6)
O1 O 0.5433(3) 0.2745(3) 0.1509(4)
O2 O 0.5938(3) 0.3223(2) 0.1019(3)
O3 O 0.6910(3) 0.4329(3) 0.2088(4)
O4 O 0.7443(3) 0.38681(19) 0.2731(6)
O5 O 0.6858(5) 0.4373(3) 0.3204(5)
O6 O 0.5516(2) 0.26726(15) 0.0137(5)
O7 O 0.4592(2) 0.22908(15) 0.0124(5)
O8 O 0.7858(3) 0.4701(2) 0.4012(4)
O9 O 0.6158(3) 0.3778(2) 0.0137(7)
O10 O 0.8316(3) 0.4221(2) 0.6762(4)
O11 O 0.7971(3) 0.4757(2) 0.6303(4)
O12 O 0.5332(3) 0.2799(3) 0.3809(4)
O13 O 0.5751(3) 0.3319(2) 0.4253(3)
O14 O 0.8656(3) 0.3737(2) 0.2608(6)
O15 O 0.8394(3) 0.4233(2) 0.3513(4)
O16 O 0.9390(5) 0.3116(3) 0.5682(6)
O17 O 0.9970(3) 0.3573(2) 0.5175(8)
S1 S 0.69501(10) 0.41073(7) 0.2668(2)
S2 S 0.94647(9) 0.33648(7) 0.5132(2)
Cu1 Cu 0.50808(6) 0.24579(4) -0.05495(8)
Cu2 Cu 0.82347(4) 0.42376(3) 0.26319(10)
Cu3 Cu 0.57767(5) 0.32398(3) 0.01391(10)
Cu4 Cu 0.50600(6) 0.24623(4) 0.08346(7)
O18 O 0.9392(5) 0.3154(3) 0.4588(6)
O3F O 0.5590(3) 0.1829(3) -0.0412(4)
O5F O 0.5642(5) 0.1873(3) 0.0704(5)
O7B O 0.7908(2) 0.47908(15) 0.2624(5)
O8F O 0.4642(3) 0.2201(2) 0.1512(4)
O10O O 0.5816(3) 0.3279(2) -0.0738(4)
O11O O 0.5471(3) 0.2743(2) -0.1197(4)
O12E O 0.4668(3) 0.2201(3) -0.1191(4)
O13G O 0.8251(3) 0.4181(2) 0.1753(3)
O16H O 0.4390(5) 0.3116(3) 0.0682(6)
O17H O 0.4970(3) 0.3573(2) 0.0175(8)
Cu1B Cu 0.74192(6) 0.49579(4) 0.19505(8)
Cu1E Cu 0.49192(6) 0.25421(4) 0.44505(8)
Cu1G Cu 0.75808(6) 0.50421(4) 0.69505(8)
Cu2F Cu 0.42653(4) 0.17376(3) 0.01319(10)
Cu2O Cu 0.57347(4) 0.32624(3) 0.51319(10)
Cu3G Cu 0.82767(5) 0.42602(3) 0.76391(10)
Cu3H Cu 1.07767(5) 0.32398(3) 0.51391(10)
Cu4B Cu 0.74400(6) 0.49623(4) 0.33346(7)
Cu4H Cu 1.00600(6) 0.24623(4) 0.58346(7)
loop_
_geom_bond_atom_site_label_1
_geom_bond_atom_site_label_2
_geom_bond_site_symmetry_1
_geom_bond_site_symmetry_2
C1 C2 1_555 1_555
C2 H1 1_555 1_555
C3 C2 1_555 1_555
C4 C3 1_555 1_555
H2 C4 1_555 1_555
C5 C4 1_555 1_555
C6 C1 1_555 1_555
H3 C6 1_555 1_555
C7 C1 1_555 1_555
C8 C3 1_555 1_555
C9 C20 1_555 1_555
C10 H4 1_555 1_555
C11 N2 1_555 1_555
C12 N2 1_555 1_555
C13 H5 1_555 1_555
C14 H6 1_555 1_555
H7 C14 1_555 1_555
H8 C14 1_555 1_555
C15 H9 1_555 1_555
H10 C15 1_555 1_555
H11 C15 1_555 1_555
C16 C18 1_555 1_555
C17 H12 1_555 1_555
C18 C17 1_555 1_555
C19 C18 1_555 1_555
H13 C19 1_555 1_555
C20 C19 1_555 1_555
C21 C20 1_555 1_555
H14 C21 1_555 1_555
C22 C17 1_555 1_555
N1 C13 1_555 1_555
N2 C10 1_555 1_555
O1 C7 1_555 1_555
O2 C7 1_555 1_555
O3 S1 1_555 1_555
O4 S1 1_555 1_555
O5 S1 1_555 1_555
O6 Cu1 1_555 1_555
O7 Cu1 1_555 1_555
O8 C16 1_555 1_555
O9 C10 1_555 1_555
O10 C9 1_555 1_555
O11 C9 1_555 1_555
O12 C8 1_555 1_555
O13 C8 1_555 1_555
O14 C13 1_555 1_555
O15 C16 1_555 1_555
O16 S2 1_555 1_555
O17 S2 1_555 1_555
S1 C5 1_555 1_555
S2 C22 1_555 1_555
Cu1 O3F 1_555 1_555
Cu2 O4 1_555 1_555
Cu3 O2 1_555 1_555
Cu4 O1 1_555 1_555
O18 S2 1_555 1_555
O5F Cu4 1_555 1_555
O7B Cu2 1_555 1_555
O8F Cu4 1_555 1_555
O10O Cu3 1_555 1_555
O11O Cu1 1_555 1_555
O12E Cu1 1_555 1_555
O13G Cu2 1_555 1_555
O16H Cu4 1_555 1_555
O17H Cu3 1_555 1_555
Cu1B O3 1_555 1_555
Cu1E O12 1_555 1_555
Cu1G O11 1_555 1_555
Cu2F O7 1_555 1_555
Cu2O O13 1_555 1_555
Cu3G O10 1_555 1_555
Cu3H O17 1_555 1_555
Cu4B O5 1_555 1_555
Cu4H O16 1_555 1_555
C5 C6 1_555 1_555
C14 N1 1_555 1_555
C15 N1 1_555 1_555
C21 C22 1_555 1_555
O6 Cu3 1_555 1_555
O6 Cu4 1_555 1_555
O7 Cu4 1_555 1_555
O8 Cu4B 1_555 1_555
O9 Cu3 1_555 1_555
O14 Cu2 1_555 1_555
O15 Cu2 1_555 1_555
O7B Cu1B 1_555 1_555
O7B Cu4B 1_555 1_555

#END
