
#######################################################################
#
#                 Cambridge Crystallographic Data Centre
#                                CCDC 
#
#######################################################################
#
# If this CIF has been generated from an entry in the Cambridge 
# Structural Database, then it will include bibliographic, chemical, 
# crystal, experimental, refinement or atomic coordinate data resulting 
# from the CCDC's data processing and validation procedures.
#
#######################################################################

data_KULCOL
_symmetry_cell_setting           triclinic
_symmetry_space_group_name_H-M   'P -1'
_symmetry_Int_Tables_number      2
_space_group_name_Hall           '-P 1'
loop_
_symmetry_equiv_pos_site_id
_symmetry_equiv_pos_as_xyz
1 x,y,z
2 -x,-y,-z
_cell_length_a                   6.7005(1)
_cell_length_b                   9.8026(2)
_cell_length_c                   11.6912(2)
_cell_angle_alpha                75.930(1)
_cell_angle_beta                 88.876(1)
_cell_angle_gamma                89.463(1)
_cell_volume                     744.716
loop_
_atom_site_label
_atom_site_type_symbol
_atom_site_fract_x
_atom_site_fract_y
_atom_site_fract_z
Cd1 Cd -0.24654(2) 0.22637(2) -0.22592(2)
Cd2 Cd 0.24912(2) 0.07699(2) -0.08301(2)
Cl1 Cl -0.40844(9) -0.03508(6) -0.13354(5)
Cl2 Cl -0.57556(9) 0.31407(6) -0.14402(6)
Cl3 Cl -0.08654(9) 0.17801(6) -0.00853(5)
Cl4 Cl -0.36712(9) 0.27336(7) -0.43189(5)
Cl5 Cl 0.07119(9) 0.08292(7) -0.27524(5)
O1 O -0.0732(3) 0.43664(17) -0.26765(16)
N1 N -0.1887(3) 0.7978(2) -0.31219(18)
C1 C -0.0197(3) 0.5257(2) -0.1913(2)
C2 C -0.2111(4) 0.5825(3) -0.1494(2)
H1 H -0.2971 0.5047 -0.1119
H2 H -0.1806 0.6346 -0.0913
C3 C -0.3193(3) 0.6776(3) -0.2509(2)
H3 H -0.3577 0.6241 -0.3066
H4 H -0.4399 0.7140 -0.2215
C4 C 0.0019(4) 0.7454(2) -0.3560(2)
H5 H 0.0870 0.8248 -0.3910
H6 H -0.0275 0.6966 -0.4166
C5 C 0.1105(3) 0.6472(3) -0.2571(2)
H7 H 0.1555 0.6996 -0.2021
H8 H 0.2276 0.6097 -0.2892
C6 C -0.2943(6) 0.8962(3) -0.4097(3)
H9 H -0.2111 0.9761 -0.4418
H10 H -0.4167 0.9270 -0.3799
H11 H -0.3232 0.8489 -0.4704
H12 H 0.023(5) 0.432(3) -0.319(3)
H13 H -0.151(5) 0.845(3) -0.264(3)
H14 H 0.048(4) 0.468(3) -0.120(3)
Cd2_2 Cd -0.75088(2) 0.07699(2) -0.08301(2)
Cd2A Cd -0.24912(2) -0.07699(2) 0.08301(2)
Cl1_2 Cl 0.59156(9) -0.03508(6) -0.13354(5)
Cl1A Cl 0.40844(9) 0.03508(6) 0.13354(5)
Cl2_2 Cl 0.42444(9) 0.31407(6) -0.14402(6)
Cl3A Cl 0.08654(9) -0.17801(6) 0.00853(5)
O2 O -0.1935(3) 0.5790(2) -0.56324(19)
H15 H -0.310(4) 0.615(4) -0.592(3)
H16 H -0.233(7) 0.500(3) -0.518(3)
loop_
_geom_bond_atom_site_label_1
_geom_bond_atom_site_label_2
_geom_bond_site_symmetry_1
_geom_bond_site_symmetry_2
Cd1 Cl1 1_555 1_555
Cd2 Cl3 1_555 1_555
Cl1 Cd2_2 1_555 1_555
Cl2 Cd1 1_555 1_555
Cl3 Cd1 1_555 1_555
Cl4 Cd1 1_555 1_555
Cl5 Cd1 1_555 1_555
O1 Cd1 1_555 1_555
N1 C3 1_555 1_555
C1 O1 1_555 1_555
C2 C1 1_555 1_555
H1 C2 1_555 1_555
H2 C2 1_555 1_555
C3 C2 1_555 1_555
H3 C3 1_555 1_555
H4 C3 1_555 1_555
C4 N1 1_555 1_555
H5 C4 1_555 1_555
H6 C4 1_555 1_555
C5 C1 1_555 1_555
H7 C5 1_555 1_555
H8 C5 1_555 1_555
C6 N1 1_555 1_555
H9 C6 1_555 1_555
H10 C6 1_555 1_555
H11 C6 1_555 1_555
H12 O1 1_555 1_555
H13 N1 1_555 1_555
H14 C1 1_555 1_555
O2 H15 1_555 1_555
H16 O2 1_555 1_555
Cd2_2 Cl2 1_555 1_555
Cd2A Cl1 1_555 1_555
Cl1_2 Cd2 1_555 1_555
Cl1A Cd2 1_555 1_555
Cl2_2 Cd2 1_555 1_555
Cl3A Cd2 1_555 1_555
Cd2 Cl5 1_555 1_555
Cl3 Cd2A 1_555 1_555
C4 C5 1_555 1_555
Cd2A Cl3A 1_555 1_555

#END
