
#######################################################################
#
#                 Cambridge Crystallographic Data Centre
#                                CCDC 
#
#######################################################################
#
# If this CIF has been generated from an entry in the Cambridge 
# Structural Database, then it will include bibliographic, chemical, 
# crystal, experimental, refinement or atomic coordinate data resulting 
# from the CCDC's data processing and validation procedures.
#
#######################################################################

data_KULCUR
_symmetry_cell_setting           monoclinic
_symmetry_space_group_name_H-M   'P 21/c'
_symmetry_Int_Tables_number      14
_space_group_name_Hall           '-P 2ybc'
loop_
_symmetry_equiv_pos_site_id
_symmetry_equiv_pos_as_xyz
1 x,y,z
2 -x,1/2+y,1/2-z
3 -x,-y,-z
4 x,1/2-y,1/2+z
_cell_length_a                   15.2295(17)
_cell_length_b                   17.7561(19)
_cell_length_c                   10.2552(11)
_cell_angle_alpha                90
_cell_angle_beta                 108.815(2)
_cell_angle_gamma                90
_cell_volume                     2624.99
loop_
_atom_site_label
_atom_site_type_symbol
_atom_site_fract_x
_atom_site_fract_y
_atom_site_fract_z
Cu1 Cu 0.50762(3) 0.14956(3) 0.40827(4)
Cl1 Cl 0.14012(17) 0.21426(12) 0.5685(3)
O1 O 0.2545(2) 0.09262(19) 0.5425(4)
O2 O 0.39221(17) 0.10439(14) 0.4113(2)
O3 O 0.62778(19) 0.18202(19) 0.4162(3)
N1 N 0.4829(2) 0.06802(16) 0.6302(3)
N2 N 0.5520(2) 0.10428(15) 0.5899(3)
N3 N 0.4655(2) 0.15654(15) 0.1956(3)
N4 N 0.3422(3) 0.13790(18) -0.0240(3)
N5 N 0.4978(3) 0.09235(16) 0.0045(3)
N6 N 0.4669(2) 0.22717(15) -0.0113(3)
C1 C 0.1861(3) 0.1054(3) 0.4225(5)
C2 C 0.1242(4) 0.1596(3) 0.4164(8)
C3 C 0.0505(6) 0.1750(5) 0.3079(12)
H1 H 0.0097 0.2136 0.3100
C4 C 0.0371(7) 0.1303(6) 0.1896(11)
H2 H -0.0164 0.1352 0.1139
C5 C 0.1014(5) 0.0818(5) 0.1887(6)
H3 H 0.0970 0.0578 0.1062
C6 C 0.1731(5) 0.0650(4) 0.3002(6)
H4 H 0.2140 0.0268 0.2968
C7 C 0.3219(3) 0.0341(2) 0.5517(4)
C8 C 0.4050(2) 0.07155(18) 0.5274(3)
C9 C 0.6337(3) 0.1067(2) 0.6767(4)
H5 H 0.6438 0.0846 0.7626
C10 C 0.7108(3) 0.1416(2) 0.6490(4)
C11 C 0.7041(3) 0.1762(2) 0.5207(4)
C12 C 0.7865(3) 0.2045(3) 0.5066(6)
H6 H 0.7840 0.2282 0.4246
C13 C 0.8693(4) 0.1989(4) 0.6072(7)
H7 H 0.9224 0.2177 0.5926
C14 C 0.8759(4) 0.1651(3) 0.7329(7)
H8 H 0.9330 0.1613 0.8020
C15 C 0.7981(3) 0.1378(3) 0.7534(5)
H9 H 0.8023 0.1161 0.8377
C16 C 0.3637(3) 0.1412(2) 0.1254(4)
H10 H 0.3472 0.0938 0.1583
H11 H 0.3273 0.1807 0.1486
C17 C 0.3989(4) 0.0788(2) -0.0571(4)
H12 H 0.3836 0.0307 -0.0248
H13 H 0.3839 0.0756 -0.1563
C18 C 0.5186(3) 0.0957(2) 0.1525(4)
H14 H 0.5845 0.1045 0.1955
H15 H 0.5038 0.0476 0.1850
C19 C 0.4880(3) 0.22869(18) 0.1397(3)
H16 H 0.4530 0.2691 0.1635
H17 H 0.5534 0.2395 0.1828
C20 C 0.5212(3) 0.1646(2) -0.0435(4)
H18 H 0.5090 0.1623 -0.1423
H19 H 0.5869 0.1743 -0.0002
C21 C 0.3672(3) 0.2104(2) -0.0724(4)
H20 H 0.3510 0.2092 -0.1719
H21 H 0.3316 0.2504 -0.0487
Cu1C Cu 0.50762(3) 0.35044(3) -0.09173(4)
N6C N 0.4669(2) 0.27283(15) 0.4887(3)
N7 N -0.1544(5) 0.0255(5) 0.2223(8)
C22 C -0.1074(9) 0.0304(9) 0.3583(12)
H22 H -0.0696 0.0749 0.3759
H23 H -0.0687 -0.0132 0.3870
H24 H -0.1506 0.0330 0.4088
C23 C -0.2076(10) 0.0804(10) 0.169(2)
H25 H -0.2233 0.1243 0.2052
C24 C -0.1399(12) -0.0361(10) 0.160(2)
H26 H -0.1739 -0.0772 0.1811
H27 H -0.0749 -0.0478 0.1911
H28 H -0.1604 -0.0280 0.0621
O4 O -0.2382(7) 0.0457(8) 0.0124(11)
loop_
_geom_bond_atom_site_label_1
_geom_bond_atom_site_label_2
_geom_bond_site_symmetry_1
_geom_bond_site_symmetry_2
Cu1 O2 1_555 1_555
Cl1 C2 1_555 1_555
O1 C1 1_555 1_555
O2 C8 1_555 1_555
O3 Cu1 1_555 1_555
N1 N2 1_555 1_555
N2 Cu1 1_555 1_555
N3 Cu1 1_555 1_555
N4 C16 1_555 1_555
N5 C17 1_555 1_555
N6 C19 1_555 1_555
C1 C2 1_555 1_555
C2 C3 1_555 1_555
C3 H1 1_555 1_555
C4 C3 1_555 1_555
H2 C4 1_555 1_555
C5 C4 1_555 1_555
H3 C5 1_555 1_555
C6 C1 1_555 1_555
H4 C6 1_555 1_555
C7 O1 1_555 1_555
C8 N1 1_555 1_555
C9 N2 1_555 1_555
H5 C9 1_555 1_555
C10 C9 1_555 1_555
C11 O3 1_555 1_555
C12 C11 1_555 1_555
H6 C12 1_555 1_555
C13 C12 1_555 1_555
H7 C13 1_555 1_555
C14 C13 1_555 1_555
H8 C14 1_555 1_555
C15 C10 1_555 1_555
H9 C15 1_555 1_555
C16 N3 1_555 1_555
H10 C16 1_555 1_555
H11 C16 1_555 1_555
C17 N4 1_555 1_555
H12 C17 1_555 1_555
H13 C17 1_555 1_555
C18 N3 1_555 1_555
H14 C18 1_555 1_555
H15 C18 1_555 1_555
C19 N3 1_555 1_555
H16 C19 1_555 1_555
H17 C19 1_555 1_555
C20 N5 1_555 1_555
H18 C20 1_555 1_555
H19 C20 1_555 1_555
C21 N4 1_555 1_555
H20 C21 1_555 1_555
H21 C21 1_555 1_555
N7 C22 1_555 1_555
C22 H22 1_555 1_555
H23 C22 1_555 1_555
H24 C22 1_555 1_555
C23 N7 1_555 1_555
H25 C23 1_555 1_555
C24 N7 1_555 1_555
H26 C24 1_555 1_555
H27 C24 1_555 1_555
H28 C24 1_555 1_555
O4 C23 1_555 1_555
Cu1C N6 1_555 1_555
N6C Cu1 1_555 1_555
N5 C18 1_555 1_555
N6 C20 1_555 1_555
N6 C21 1_555 1_555
C5 C6 1_555 1_555
C7 C8 1_555 1_555
C10 C11 1_555 1_555
C14 C15 1_555 1_555

#END
