
#######################################################################
#
#                 Cambridge Crystallographic Data Centre
#                                CCDC 
#
#######################################################################
#
# If this CIF has been generated from an entry in the Cambridge 
# Structural Database, then it will include bibliographic, chemical, 
# crystal, experimental, refinement or atomic coordinate data resulting 
# from the CCDC's data processing and validation procedures.
#
#######################################################################

data_KULCEB
_symmetry_cell_setting           monoclinic
_symmetry_space_group_name_H-M   'P 21/c'
_symmetry_Int_Tables_number      14
_space_group_name_Hall           '-P 2ybc'
loop_
_symmetry_equiv_pos_site_id
_symmetry_equiv_pos_as_xyz
1 x,y,z
2 -x,1/2+y,1/2-z
3 -x,-y,-z
4 x,1/2-y,1/2+z
_cell_length_a                   5.93330(10)
_cell_length_b                   17.6201(2)
_cell_length_c                   9.22530(10)
_cell_angle_alpha                90
_cell_angle_beta                 107.3780(10)
_cell_angle_gamma                90
_cell_volume                     920.439
loop_
_atom_site_label
_atom_site_type_symbol
_atom_site_fract_x
_atom_site_fract_y
_atom_site_fract_z
Cu1 Cu 0.07268(5) 0.712687(17) 0.75510(3)
N1 N 0.0216(3) 0.60340(12) 0.7929(2)
H1 H -0.0977 0.5998 0.8358
N2 N -0.2579(4) 0.72165(13) 0.6177(3)
H2 H -0.3597 0.7141 0.6716
H3 H -0.2813 0.7688 0.5787
O1 O 0.6550(3) 0.59640(13) 0.9460(3)
O2 O 0.4090(3) 0.67659(11) 0.7902(2)
O3 O 0.1513(3) 0.72309(10) 1.0061(2)
O4 O 0.1466(3) 0.68083(10) 1.23131(18)
C1 C 0.1718(4) 0.67109(14) 1.0999(3)
C2 C 0.2330(4) 0.59070(14) 1.0661(3)
H4 H 0.3851 0.5775 1.1366
H5 H 0.1166 0.5565 1.0847
C3 C 0.2436(4) 0.57761(14) 0.9049(3)
H6 H 0.2624 0.5231 0.8905
C4 C 0.4546(4) 0.61962(15) 0.8786(3)
C5 C -0.0450(5) 0.56023(17) 0.6490(3)
H7 H -0.0472 0.5064 0.6708
H8 H 0.0714 0.5687 0.5960
C6 C -0.2871(5) 0.58463(18) 0.5486(3)
H9 H -0.3334 0.5510 0.4614
H10 H -0.3998 0.5778 0.6050
C7 C -0.3053(5) 0.66548(19) 0.4918(3)
H11 H -0.1932 0.6731 0.4352
H12 H -0.4625 0.6740 0.4231
Cu1C Cu 0.07268(5) 0.787313(17) 1.25510(3)
O3C O 0.1513(3) 0.77691(10) 0.5061(2)
O4C O 0.1466(3) 0.81917(10) 0.73131(18)
loop_
_geom_bond_atom_site_label_1
_geom_bond_atom_site_label_2
_geom_bond_site_symmetry_1
_geom_bond_site_symmetry_2
Cu1 N1 1_555 1_555
N1 H1 1_555 1_555
N2 Cu1 1_555 1_555
H2 N2 1_555 1_555
H3 N2 1_555 1_555
O1 C4 1_555 1_555
O2 Cu1 1_555 1_555
O3 Cu1 1_555 1_555
O4 C1 1_555 1_555
C1 O3 1_555 1_555
C2 C1 1_555 1_555
H4 C2 1_555 1_555
H5 C2 1_555 1_555
C3 N1 1_555 1_555
H6 C3 1_555 1_555
C4 O2 1_555 1_555
C5 N1 1_555 1_555
H7 C5 1_555 1_555
H8 C5 1_555 1_555
C6 C5 1_555 1_555
H9 C6 1_555 1_555
H10 C6 1_555 1_555
C7 N2 1_555 1_555
H11 C7 1_555 1_555
H12 C7 1_555 1_555
Cu1C O3 1_555 1_555
O3C Cu1 1_555 1_555
O4C Cu1 1_555 1_555
O4 Cu1C 1_555 1_555
C2 C3 1_555 1_555
C3 C4 1_555 1_555
C6 C7 1_555 1_555

#END
