
#######################################################################
#
#                 Cambridge Crystallographic Data Centre
#                                CCDC 
#
#######################################################################
#
# If this CIF has been generated from an entry in the Cambridge 
# Structural Database, then it will include bibliographic, chemical, 
# crystal, experimental, refinement or atomic coordinate data resulting 
# from the CCDC's data processing and validation procedures.
#
#######################################################################

data_KULJEI
_symmetry_cell_setting           orthorhombic
_symmetry_space_group_name_H-M   'F d d 2'
_symmetry_Int_Tables_number      43
_space_group_name_Hall           'F 2 -2d'
loop_
_symmetry_equiv_pos_site_id
_symmetry_equiv_pos_as_xyz
1 x,y,z
2 -x,-y,z
3 1/4+x,1/4-y,1/4+z
4 1/4-x,1/4+y,1/4+z
5 x,1/2+y,1/2+z
6 -x,1/2-y,1/2+z
7 1/4+x,3/4-y,3/4+z
8 1/4-x,3/4+y,3/4+z
9 1/2+x,y,1/2+z
10 1/2-x,-y,1/2+z
11 3/4+x,1/4-y,3/4+z
12 3/4-x,1/4+y,3/4+z
13 1/2+x,1/2+y,z
14 1/2-x,1/2-y,z
15 3/4+x,3/4-y,1/4+z
16 3/4-x,3/4+y,1/4+z
_cell_length_a                   23.2541(14)
_cell_length_b                   41.340(3)
_cell_length_c                   3.9334(2)
_cell_angle_alpha                90
_cell_angle_beta                 90
_cell_angle_gamma                90
_cell_volume                     3781.27
loop_
_atom_site_label
_atom_site_type_symbol
_atom_site_fract_x
_atom_site_fract_y
_atom_site_fract_z
Bi1 Bi 0.636275(10) 0.544923(6) -0.00184(10)
O1 O 0.5892(2) 0.49410(16) 0.218(3)
N1 N 0.4581(3) 0.42993(18) 0.378(2)
C1 C 0.5014(3) 0.4509(2) 0.349(3)
H1 H 0.4927 0.4719 0.2650
Bi2 Bi 0.764948(10) 0.536731(6) 0.47947(10)
O2 O 0.6538(2) 0.46340(13) 0.480(2)
C2 C 0.5587(3) 0.44432(17) 0.432(2)
O3 O 0.5932(2) 0.34964(12) 0.7252(19)
C3 C 0.5711(3) 0.4131(2) 0.5438(19)
H2 H 0.6095 0.4075 0.6021
O4 O 0.4986(2) 0.33687(13) 0.7037(19)
C4 C 0.5274(3) 0.3903(2) 0.5701(19)
O5 O 0.6769(2) 0.55028(13) 0.4765(17)
C5 C 0.4716(3) 0.40009(18) 0.490(3)
H3 H 0.4414 0.3848 0.5163
O6 O 0.72385(19) 0.51777(11) -0.0235(16)
C6 C 0.6040(4) 0.4695(2) 0.379(2)
C7 C 0.5402(3) 0.35623(18) 0.678(2)
Bi1_2 Bi 0.636275(10) 0.544923(6) 0.99816(10)
Bi1A Bi 0.363725(10) 0.455077(6) -0.00184(10)
Bi1G Bi 0.613725(10) 0.294923(6) 0.74816(10)
N1A N 0.5419(3) 0.57007(18) 0.378(2)
Bi2_2 Bi 0.764948(10) 0.536731(6) -0.52053(10)
Bi2G Bi 0.485052(10) 0.286731(6) 0.22947(10)
Bi2I Bi 0.735052(10) 0.463269(6) -0.02053(10)
Bi2I_2 Bi 0.735052(10) 0.463269(6) 0.97947(10)
O2I O 0.8462(2) 0.53660(13) -0.020(2)
O2I_2 O 0.8462(2) 0.53660(13) 0.980(2)
O3C O 0.6568(2) 0.59964(12) -0.0248(19)
O4C O 0.7514(2) 0.58687(13) 0.9537(19)
O5_2 O 0.6769(2) 0.55028(13) -0.5235(17)
O6_2 O 0.72385(19) 0.51777(11) 0.9765(16)
O6I O 0.77615(19) 0.48223(11) 0.4765(16)
loop_
_geom_bond_atom_site_label_1
_geom_bond_atom_site_label_2
_geom_bond_site_symmetry_1
_geom_bond_site_symmetry_2
Bi1 O1 1_555 1_555
O1 C6 1_555 1_555
N1 C1 1_555 1_555
C1 H1 1_555 1_555
Bi2 O5 1_555 1_555
O2 C6 1_555 1_555
C2 C1 1_555 1_555
O3 C7 1_555 1_555
C3 C2 1_555 1_555
H2 C3 1_555 1_555
O4 C7 1_555 1_555
C4 C3 1_555 1_555
O5 Bi1 1_555 1_555
C5 N1 1_555 1_555
H3 C5 1_555 1_555
O6 Bi1 1_555 1_555
C6 C2 1_555 1_555
C7 C4 1_555 1_555
Bi1_2 O5 1_555 1_555
Bi1A N1 1_555 1_555
Bi1G O3 1_555 1_555
N1A Bi1 1_555 1_555
Bi2_2 O6 1_555 1_555
Bi2G O4 1_555 1_555
Bi2I O2 1_555 1_555
Bi2I_2 O2 1_555 1_555
O2I Bi2 1_555 1_555
O2I_2 Bi2 1_555 1_555
O3C Bi1 1_555 1_555
O4C Bi2 1_555 1_555
O5_2 Bi1 1_555 1_555
O6_2 Bi2 1_555 1_555
O6I Bi2 1_555 1_555
Bi2 O6 1_555 1_555
C4 C5 1_555 1_555
O6 Bi2I 1_555 1_555
Bi1_2 O6_2 1_555 1_555
Bi2_2 O2I 1_555 1_555
Bi2_2 O5_2 1_555 1_555
Bi2I O6I 1_555 1_555
Bi2I_2 O6_2 1_555 1_555
Bi2I_2 O6I 1_555 1_555

#END
