
#######################################################################
#
#                 Cambridge Crystallographic Data Centre
#                                CCDC 
#
#######################################################################
#
# If this CIF has been generated from an entry in the Cambridge 
# Structural Database, then it will include bibliographic, chemical, 
# crystal, experimental, refinement or atomic coordinate data resulting 
# from the CCDC's data processing and validation procedures.
#
#######################################################################

data_KULKOT
_symmetry_cell_setting           monoclinic
_symmetry_space_group_name_H-M   'C 2/c'
_symmetry_Int_Tables_number      15
_space_group_name_Hall           '-C 2yn'
loop_
_symmetry_equiv_pos_site_id
_symmetry_equiv_pos_as_xyz
1 x,y,z
2 -x,y,1/2-z
3 1/2+x,1/2+y,z
4 1/2-x,1/2+y,1/2-z
5 -x,-y,-z
6 x,-y,1/2+z
7 1/2-x,1/2-y,-z
8 1/2+x,1/2-y,1/2+z
_cell_length_a                   9.8587(10)
_cell_length_b                   22.2786(12)
_cell_length_c                   7.2324(15)
_cell_angle_alpha                90
_cell_angle_beta                 109.43
_cell_angle_gamma                90
_cell_volume                     1498.04
loop_
_atom_site_label
_atom_site_type_symbol
_atom_site_fract_x
_atom_site_fract_y
_atom_site_fract_z
Ag1 Ag -0.18979(8) -0.22812(3) 0.19968(10)
O1 O -0.2902(8) -0.1440(3) 0.0715(9)
O2 O -0.3486(11) -0.1751(4) -0.2363(10)
N1 N -0.0699(12) -0.2181(4) 0.5501(14)
C1 C -0.3504(10) -0.1382(5) -0.1093(13)
C2 C -0.4320(10) -0.0802(4) -0.1805(12)
C3 C -0.3639(11) -0.0256(4) -0.1117(13)
H1 H -0.2701 -0.0254 -0.0172
C4 C -0.4322(11) 0.0277(4) -0.1802(15)
H2 H -0.3859 0.0647 -0.1314
C5 C -0.0351(15) -0.2690(5) 0.6482(16)
H3 H -0.0579 -0.3060 0.5799
C6 C -0.0357(14) -0.1668(5) 0.6470(15)
C7 C -0.1080(14) -0.1105(5) 0.5431(16)
H4 H -0.1897 -0.1208 0.4289
H5 H -0.1418 -0.0861 0.6302
C8 C -0.017(3) -0.0828(11) 0.494(3)
H6 H 0.0502 -0.0642 0.6066
H7 H -0.0641 -0.0525 0.3996
H8 H 0.0324 -0.1101 0.4360
O1A O -0.7098(8) -0.1440(3) -0.5715(9)
O2A O -0.6514(11) -0.1751(4) -0.2637(10)
C1A C -0.6496(10) -0.1382(5) -0.3907(13)
C2A C -0.5680(10) -0.0802(4) -0.3195(12)
C3A C -0.6361(11) -0.0256(4) -0.3883(13)
H1A H -0.7299 -0.0254 -0.4828
C4A C -0.5678(11) 0.0277(4) -0.3198(15)
H2A H -0.6141 0.0647 -0.3686
N1A N 0.0699(12) -0.2181(4) 0.9499(14)
C5A C 0.0351(15) -0.2690(5) 0.8518(16)
H3A H 0.0579 -0.3060 0.9201
C6A C 0.0357(14) -0.1668(5) 0.8530(15)
C7A C 0.1080(14) -0.1105(5) 0.9569(16)
H4A H 0.1897 -0.1208 1.0711
H5A H 0.1418 -0.0861 0.8698
C8A C 0.017(3) -0.0828(11) 1.006(3)
H6A H -0.0502 -0.0642 0.8934
H7A H 0.0641 -0.0525 1.1004
H8A H -0.0324 -0.1101 1.0640
Ag1A Ag -0.81021(8) -0.22812(3) -0.69968(10)
Ag1A_2 Ag 0.18979(8) -0.22812(3) 1.30032(10)
Ag1F Ag -0.31021(8) -0.27188(3) -0.19968(10)
Ag1G Ag -0.68979(8) -0.27188(3) -0.30032(10)
O2F O -0.1514(11) -0.3249(4) 0.2363(10)
O2G O -0.8486(11) -0.3249(4) -0.7363(10)
N1A_2 N -0.9301(12) -0.2181(4) -1.0501(14)
loop_
_geom_bond_atom_site_label_1
_geom_bond_atom_site_label_2
_geom_bond_site_symmetry_1
_geom_bond_site_symmetry_2
Ag1 O1 1_555 1_555
O1 C1 1_555 1_555
O2 C1 1_555 1_555
N1 Ag1 1_555 1_555
C1 C2 1_555 1_555
C2 C3 1_555 1_555
C3 H1 1_555 1_555
C4 C3 1_555 1_555
H2 C4 1_555 1_555
C5 N1 1_555 1_555
H3 C5 1_555 1_555
C6 N1 1_555 1_555
C7 C6 1_555 1_555
H4 C7 1_555 1_555
H5 C7 1_555 1_555
C8 C7 1_555 1_555
H6 C8 1_555 1_555
H7 C8 1_555 1_555
H8 C8 1_555 1_555
O1A C1A 1_555 1_555
O2A C1A 1_555 1_555
C1A C2A 1_555 1_555
C2A C2 1_555 1_555
C3A C2A 1_555 1_555
H1A C3A 1_555 1_555
C4A C4 1_555 1_555
H2A C4A 1_555 1_555
N1A C5A 1_555 1_555
C5A C5 1_555 1_555
H3A C5A 1_555 1_555
C6A C6 1_555 1_555
C7A C6A 1_555 1_555
H4A C7A 1_555 1_555
H5A C7A 1_555 1_555
C8A C7A 1_555 1_555
H6A C8A 1_555 1_555
H7A C8A 1_555 1_555
H8A C8A 1_555 1_555
Ag1A O1A 1_555 1_555
Ag1A_2 N1A 1_555 1_555
Ag1F Ag1 1_555 1_555
Ag1G O2A 1_555 1_555
O2F Ag1 1_555 1_555
O2G Ag1A 1_555 1_555
N1A_2 Ag1A 1_555 1_555
O2 Ag1F 1_555 1_555
C3A C4A 1_555 1_555
N1A C6A 1_555 1_555
Ag1A Ag1G 1_555 1_555

#END
