
#######################################################################
#
#                 Cambridge Crystallographic Data Centre
#                                CCDC 
#
#######################################################################
#
# If this CIF has been generated from an entry in the Cambridge 
# Structural Database, then it will include bibliographic, chemical, 
# crystal, experimental, refinement or atomic coordinate data resulting 
# from the CCDC's data processing and validation procedures.
#
#######################################################################

data_KULKIN
_symmetry_cell_setting           monoclinic
_symmetry_space_group_name_H-M   'P 21/c'
_symmetry_Int_Tables_number      14
_space_group_name_Hall           '-P 2ybc'
loop_
_symmetry_equiv_pos_site_id
_symmetry_equiv_pos_as_xyz
1 x,y,z
2 -x,1/2+y,1/2-z
3 -x,-y,-z
4 x,1/2-y,1/2+z
_cell_length_a                   14.2283(7)
_cell_length_b                   14.7082(9)
_cell_length_c                   14.7288(10)
_cell_angle_alpha                90
_cell_angle_beta                 98.594(3)
_cell_angle_gamma                90
_cell_volume                     3047.73
loop_
_atom_site_label
_atom_site_type_symbol
_atom_site_fract_x
_atom_site_fract_y
_atom_site_fract_z
Ag1 Ag 0.69589(5) 0.39524(5) 0.68127(6)
Ag2 Ag 0.67052(5) 0.52226(5) 0.84370(6)
Ag3 Ag 0.77754(5) 0.57864(5) 0.67813(6)
Ag4 Ag 0.86152(6) 0.44689(5) 0.85469(7)
O1 O 0.5694(5) 0.4910(5) 0.6570(6)
N1 N 0.8740(6) 0.7087(6) 0.6517(8)
C1 C 0.4997(7) 0.2863(6) 0.6572(8)
H1 H 0.4804 0.3480 0.6587
C2 C 1.0288(8) 0.7557(7) 0.6297(9)
H2 H 1.0910 0.7383 0.6204
C3 C 1.0193(7) 0.2747(6) 0.6323(7)
H3 H 0.9768 0.2316 0.6519
C4 C 0.4333(7) 0.2192(7) 0.6544(8)
H4 H 0.3688 0.2353 0.6553
C5 C 0.4402(7) 0.6996(6) 0.6158(7)
H5 H 0.4863 0.7415 0.6442
C6 C 0.3479(6) 0.7291(6) 0.5863(7)
C7 C 1.1423(10) 0.3979(8) 0.5716(12)
H6 H 1.1835 0.4402 0.5487
C8 C 0.4657(7) 0.6103(6) 0.6042(7)
O2 O 0.2283(5) 0.8367(5) 0.5958(7)
N2 N 1.0064(6) 0.8436(6) 0.6301(8)
N3 N 0.4564(6) 0.1314(5) 0.6503(7)
O3 O 0.6296(5) 0.6278(5) 0.6482(6)
C9 C 0.8489(7) 0.7968(7) 0.6485(9)
C10 C 0.7178(8) 0.1596(8) 0.6518(10)
H7 H 0.7221 0.1062 0.6117
H8 H 0.7462 0.2118 0.6233
C11 C 0.2825(7) 0.6703(6) 0.5394(7)
H9 H 0.2200 0.6913 0.5180
C12 C 0.5701(9) 0.0112(7) 0.6519(13)
H10 H 0.5201 -0.0232 0.6758
H11 H 0.6312 0.0002 0.6908
H12 H 0.5740 -0.0084 0.5890
N4 N 0.5913(6) 0.2667(5) 0.6577(7)
C13 C 0.5626(6) 0.5745(6) 0.6402(7)
C14 C 0.6148(9) 0.1799(8) 0.6527(10)
C15 C 0.3063(8) 0.5816(7) 0.5230(8)
H13 H 0.2612 0.5424 0.4888
C16 C 0.9637(7) 0.6893(7) 0.6424(9)
H14 H 0.9833 0.6276 0.6446
C17 C 0.3967(7) 0.5501(7) 0.5569(8)
H15 H 0.4126 0.4883 0.5484
C18 C 0.9165(7) 0.8650(7) 0.6384(9)
C19 C 1.0553(8) 0.4271(7) 0.5950(9)
H16 H 1.0389 0.4897 0.5902
C20 C 1.1059(7) 0.2464(6) 0.6119(7)
C21 C 0.3171(7) 0.8229(6) 0.6079(7)
C22 C 0.7464(8) 0.8171(8) 0.6569(12)
H17 H 0.7240 0.7711 0.6978
H18 H 0.7436 0.8772 0.6867
C23 C 0.5471(7) 0.1116(7) 0.6522(9)
C24 C 1.1678(8) 0.3090(7) 0.5819(9)
H19 H 1.2280 0.2896 0.5687
O4 O 0.3784(5) 0.8800(5) 0.6391(7)
C25 C 0.9934(7) 0.3661(6) 0.6247(7)
C26 C 1.1416(7) 0.1498(6) 0.6288(7)
C27 C 0.8918(8) 0.9656(7) 0.6376(9)
H20 H 0.9465 1.0001 0.6680
H21 H 0.8374 0.9751 0.6702
H22 H 0.8755 0.9865 0.5740
O5 O 0.8889(5) 0.4866(5) 0.6403(7)
O6 O 0.8456(5) 0.3463(5) 0.6787(6)
O7 O 1.2269(5) 0.1370(5) 0.6237(8)
C28 C 0.9025(7) 0.4025(6) 0.6494(7)
O8 O 1.0863(6) 0.0913(5) 0.6479(8)
C29 C 0.7730(8) 0.1421(8) 0.7368(10)
H23 H 0.8369 0.1234 0.7273
H24 H 0.7435 0.0935 0.7682
H25 H 0.7773 0.1973 0.7745
C30 C 0.6801(17) 0.8180(17) 0.569(2)
H26 H 0.7062 0.8564 0.5245
H27 H 0.6185 0.8423 0.5796
H28 H 0.6718 0.7559 0.5451
Ag2A Ag 0.32948(5) 0.02226(5) 0.65630(6)
Ag2A_2 Ag 0.32948(5) 1.02226(5) 0.65630(6)
Ag2A_3 Ag 1.32948(5) 0.02226(5) 0.65630(6)
Ag4A Ag 0.13848(6) 0.94689(5) 0.64531(7)
Ag4A_2 Ag 1.13848(6) -0.05311(5) 0.64531(7)
Ag4A_3 Ag 1.13848(6) 0.94689(5) 0.64531(7)
O2A O 0.7717(5) 0.3367(5) 0.9042(7)
N2A N 0.9936(6) 0.3436(6) 0.8699(8)
N3A N 0.5436(6) 0.6314(5) 0.8497(7)
O4A O 0.6216(5) 0.3800(5) 0.8609(7)
O7A O 0.7731(5) 0.6370(5) 0.8763(8)
O8A O 0.9137(6) 0.5913(5) 0.8521(8)
loop_
_geom_bond_atom_site_label_1
_geom_bond_atom_site_label_2
_geom_bond_site_symmetry_1
_geom_bond_site_symmetry_2
Ag1 Ag2 1_555 1_555
Ag2 Ag3 1_555 1_555
Ag3 Ag1 1_555 1_555
Ag4 Ag2 1_555 1_555
O1 Ag1 1_555 1_555
N1 Ag3 1_555 1_555
C1 H1 1_555 1_555
C2 H2 1_555 1_555
C3 H3 1_555 1_555
C4 C1 1_555 1_555
H4 C4 1_555 1_555
C5 H5 1_555 1_555
C6 C5 1_555 1_555
C7 H6 1_555 1_555
C8 C5 1_555 1_555
O2 C21 1_555 1_555
N2 C2 1_555 1_555
N3 C4 1_555 1_555
O3 Ag3 1_555 1_555
C9 N1 1_555 1_555
C10 H7 1_555 1_555
H8 C10 1_555 1_555
C11 C6 1_555 1_555
H9 C11 1_555 1_555
C12 H10 1_555 1_555
H11 C12 1_555 1_555
H12 C12 1_555 1_555
N4 Ag1 1_555 1_555
C13 O1 1_555 1_555
C14 C10 1_555 1_555
C15 C11 1_555 1_555
H13 C15 1_555 1_555
C16 N1 1_555 1_555
H14 C16 1_555 1_555
C17 C8 1_555 1_555
H15 C17 1_555 1_555
C18 N2 1_555 1_555
C19 C7 1_555 1_555
H16 C19 1_555 1_555
C20 C3 1_555 1_555
C21 C6 1_555 1_555
C22 C9 1_555 1_555
H17 C22 1_555 1_555
H18 C22 1_555 1_555
C23 N3 1_555 1_555
C24 C7 1_555 1_555
H19 C24 1_555 1_555
O4 C21 1_555 1_555
C25 C3 1_555 1_555
C26 C20 1_555 1_555
C27 C18 1_555 1_555
H20 C27 1_555 1_555
H21 C27 1_555 1_555
H22 C27 1_555 1_555
O5 Ag3 1_555 1_555
O6 Ag1 1_555 1_555
O7 C26 1_555 1_555
C28 C25 1_555 1_555
O8 C26 1_555 1_555
C29 C10 1_555 1_555
H23 C29 1_555 1_555
H24 C29 1_555 1_555
H25 C29 1_555 1_555
C30 C22 1_555 1_555
H26 C30 1_555 1_555
H27 C30 1_555 1_555
H28 C30 1_555 1_555
Ag2A N3 1_555 1_555
Ag2A_2 O4 1_555 1_555
Ag2A_3 O7 1_555 1_555
Ag4A O2 1_555 1_555
Ag4A_2 O8 1_555 1_555
Ag4A_3 N2 1_555 1_555
O2A Ag4 1_555 1_555
N2A Ag4 1_555 1_555
N3A Ag2 1_555 1_555
O4A Ag2 1_555 1_555
O7A Ag2 1_555 1_555
O8A Ag4 1_555 1_555
C1 N4 1_555 1_555
C2 C16 1_555 1_555
C8 C13 1_555 1_555
O3 C13 1_555 1_555
C9 C18 1_555 1_555
C12 C23 1_555 1_555
N4 C14 1_555 1_555
C14 C23 1_555 1_555
C15 C17 1_555 1_555
C19 C25 1_555 1_555
C20 C24 1_555 1_555
O5 C28 1_555 1_555
O6 C28 1_555 1_555
Ag2A_2 Ag4A 1_555 1_555
Ag2A_3 Ag4A_2 1_555 1_555

#END
