
#######################################################################
#
#                 Cambridge Crystallographic Data Centre
#                                CCDC 
#
#######################################################################
#
# If this CIF has been generated from an entry in the Cambridge 
# Structural Database, then it will include bibliographic, chemical, 
# crystal, experimental, refinement or atomic coordinate data resulting 
# from the CCDC's data processing and validation procedures.
#
#######################################################################

data_KULLOU
_symmetry_cell_setting           monoclinic
_symmetry_space_group_name_H-M   'C 2/c'
_symmetry_Int_Tables_number      15
_space_group_name_Hall           '-C 2yn'
loop_
_symmetry_equiv_pos_site_id
_symmetry_equiv_pos_as_xyz
1 x,y,z
2 -x,y,1/2-z
3 1/2+x,1/2+y,z
4 1/2-x,1/2+y,1/2-z
5 -x,-y,-z
6 x,-y,1/2+z
7 1/2-x,1/2-y,-z
8 1/2+x,1/2-y,1/2+z
_cell_length_a                   30.430(7)
_cell_length_b                   4.9820(12)
_cell_length_c                   16.566(4)
_cell_angle_alpha                90
_cell_angle_beta                 101.951(4)
_cell_angle_gamma                90
_cell_volume                     2457.01
loop_
_atom_site_label
_atom_site_type_symbol
_atom_site_fract_x
_atom_site_fract_y
_atom_site_fract_z
Cs1 Cs 0.5000 0.5000 0.5000
Cs2 Cs 0.5000 0.30774(4) 0.2500
O1 O 0.68039(5) 0.1007(3) 0.45477(9)
O2 O 0.57105(5) -0.0919(3) 0.59528(9)
O3 O 0.53965(5) -0.2062(3) 0.35743(9)
O4 O 0.55970(5) 0.1903(3) 0.41688(10)
N1 N 0.62760(6) -0.0069(3) 0.52842(11)
C1 C 0.66419(7) 0.1433(4) 0.51505(12)
C2 C 0.68202(7) 0.3523(4) 0.57654(12)
C3 C 0.66058(7) 0.4017(4) 0.64314(12)
C4 C 0.62262(7) 0.2509(4) 0.65240(12)
C5 C 0.60470(7) 0.0393(4) 0.59191(13)
C6 C 0.71907(7) 0.5005(4) 0.56803(14)
H1 H 0.7333 0.4656 0.5232
C7 C 0.73589(7) 0.7031(4) 0.62529(14)
H2 H 0.7615 0.8035 0.6192
C8 C 0.71532(7) 0.7560(4) 0.69002(14)
H3 H 0.7267 0.8950 0.7279
C9 C 0.67739(7) 0.6062(4) 0.70113(13)
C10 C 0.65546(7) 0.6539(4) 0.76742(13)
H4 H 0.6665 0.7891 0.8069
C11 C 0.61839(8) 0.5062(4) 0.77495(14)
H5 H 0.6039 0.5407 0.8195
C12 C 0.60167(7) 0.3041(4) 0.71728(13)
H6 H 0.5759 0.2039 0.7229
C13 C 0.60612(7) -0.1882(4) 0.46251(12)
H7 H 0.5972 -0.3496 0.4863
H8 H 0.6273 -0.2358 0.4293
C14 C 0.56465(7) -0.0563(4) 0.40751(12)
O1A O 0.31961(5) 0.1007(3) 0.04523(9)
O2A O 0.42895(5) -0.0919(3) -0.09528(9)
O3A O 0.46035(5) -0.2062(3) 0.14257(9)
O4A O 0.44030(5) 0.1903(3) 0.08312(10)
N1A N 0.37240(6) -0.0069(3) -0.02842(11)
C1A C 0.33581(7) 0.1433(4) -0.01505(12)
C2A C 0.31798(7) 0.3523(4) -0.07654(12)
C3A C 0.33942(7) 0.4017(4) -0.14314(12)
C4A C 0.37738(7) 0.2509(4) -0.15240(12)
C5A C 0.39530(7) 0.0393(4) -0.09191(13)
C6A C 0.28093(7) 0.5005(4) -0.06803(14)
H1A H 0.2667 0.4656 -0.0232
C7A C 0.26411(7) 0.7031(4) -0.12529(14)
H2A H 0.2385 0.8035 -0.1192
C8A C 0.28468(7) 0.7560(4) -0.19002(14)
H3A H 0.2733 0.8950 -0.2279
C9A C 0.32261(7) 0.6062(4) -0.20113(13)
C10A C 0.34454(7) 0.6539(4) -0.26742(13)
H4A H 0.3335 0.7891 -0.3069
C11A C 0.38161(8) 0.5062(4) -0.27495(14)
H5A H 0.3961 0.5407 -0.3195
C12A C 0.39833(7) 0.3041(4) -0.21728(13)
H6A H 0.4241 0.2039 -0.2229
C13A C 0.39388(7) -0.1882(4) 0.03749(12)
H7A H 0.4028 -0.3496 0.0137
H8A H 0.3727 -0.2358 0.0707
C14A C 0.43535(7) -0.0563(4) 0.09249(12)
Cs1_2 Cs 0.5000 -0.5000 0.5000
Cs1A Cs 0.5000 -0.5000 0.0000
Cs1A_2 Cs 0.5000 0.5000 0.0000
Cs2_2 Cs 0.5000 -0.69226(4) 0.2500
O2_2 O 0.57105(5) 0.9081(3) 0.59528(9)
O2D O 0.42895(5) 0.0919(3) 0.40472(9)
O3_2 O 0.53965(5) 0.7938(3) 0.35743(9)
O3A_2 O 0.46035(5) 0.7938(3) 0.14257(9)
O3D O 0.46035(5) 0.2062(3) 0.64257(9)
O4D O 0.44030(5) 0.8097(3) 0.58312(10)
loop_
_geom_bond_atom_site_label_1
_geom_bond_atom_site_label_2
_geom_bond_site_symmetry_1
_geom_bond_site_symmetry_2
Cs1 O4 1_555 1_555
Cs2 O3 1_555 1_555
O1 C1 1_555 1_555
O2 C5 1_555 1_555
O3 C14 1_555 1_555
O4 Cs2 1_555 1_555
N1 C1 1_555 1_555
C1 C2 1_555 1_555
C2 C3 1_555 1_555
C3 C4 1_555 1_555
C4 C5 1_555 1_555
C5 N1 1_555 1_555
C6 C2 1_555 1_555
H1 C6 1_555 1_555
C7 C6 1_555 1_555
H2 C7 1_555 1_555
C8 C7 1_555 1_555
H3 C8 1_555 1_555
C9 C3 1_555 1_555
C10 C9 1_555 1_555
H4 C10 1_555 1_555
C11 C10 1_555 1_555
H5 C11 1_555 1_555
C12 C4 1_555 1_555
H6 C12 1_555 1_555
C13 N1 1_555 1_555
H7 C13 1_555 1_555
H8 C13 1_555 1_555
C14 O4 1_555 1_555
O1A C1A 1_555 1_555
O2A C5A 1_555 1_555
O3A Cs2 1_555 1_555
O4A Cs2 1_555 1_555
N1A C1A 1_555 1_555
C1A C2A 1_555 1_555
C2A C3A 1_555 1_555
C3A C4A 1_555 1_555
C4A C5A 1_555 1_555
C5A N1A 1_555 1_555
C6A C2A 1_555 1_555
H1A C6A 1_555 1_555
C7A C6A 1_555 1_555
H2A C7A 1_555 1_555
C8A C7A 1_555 1_555
H3A C8A 1_555 1_555
C9A C3A 1_555 1_555
C10A C9A 1_555 1_555
H4A C10A 1_555 1_555
C11A C10A 1_555 1_555
H5A C11A 1_555 1_555
C12A C4A 1_555 1_555
H6A C12A 1_555 1_555
C13A N1A 1_555 1_555
H7A C13A 1_555 1_555
H8A C13A 1_555 1_555
C14A O3A 1_555 1_555
Cs1_2 O2 1_555 1_555
Cs1A O2A 1_555 1_555
Cs1A_2 O4A 1_555 1_555
Cs2_2 O3 1_555 1_555
O2_2 Cs1 1_555 1_555
O2D Cs1 1_555 1_555
O3_2 Cs1 1_555 1_555
O3A_2 Cs2 1_555 1_555
O3D Cs1 1_555 1_555
O4D Cs1 1_555 1_555
Cs2 O3_2 1_555 1_555
O3 Cs1_2 1_555 1_555
C8 C9 1_555 1_555
C11 C12 1_555 1_555
C13 C14 1_555 1_555
O3A Cs1A 1_555 1_555
O3A Cs2_2 1_555 1_555
O4A C14A 1_555 1_555
C8A C9A 1_555 1_555
C11A C12A 1_555 1_555
C13A C14A 1_555 1_555
Cs1A_2 O3A_2 1_555 1_555

#END
