
#######################################################################
#
#                 Cambridge Crystallographic Data Centre
#                                CCDC 
#
#######################################################################
#
# If this CIF has been generated from an entry in the Cambridge 
# Structural Database, then it will include bibliographic, chemical, 
# crystal, experimental, refinement or atomic coordinate data resulting 
# from the CCDC's data processing and validation procedures.
#
#######################################################################

data_KULMEK
_symmetry_cell_setting           rhombohedral
_symmetry_space_group_name_H-M   'R -3 m'
_symmetry_Int_Tables_number      166
_space_group_name_Hall           '-R 3 2"'
loop_
_symmetry_equiv_pos_site_id
_symmetry_equiv_pos_as_xyz
1 x,y,z
2 -y,x-y,z
3 -x+y,-x,z
4 x-y,-y,-z
5 -x,-x+y,-z
6 y,x,-z
7 2/3+x,1/3+y,1/3+z
8 2/3-y,1/3+x-y,1/3+z
9 2/3-x+y,1/3-x,1/3+z
10 2/3+x-y,1/3-y,1/3-z
11 2/3-x,1/3-x+y,1/3-z
12 2/3+y,1/3+x,1/3-z
13 1/3+x,2/3+y,2/3+z
14 1/3-y,2/3+x-y,2/3+z
15 1/3-x+y,2/3-x,2/3+z
16 1/3+x-y,2/3-y,2/3-z
17 1/3-x,2/3-x+y,2/3-z
18 1/3+y,2/3+x,2/3-z
19 -x,-y,-z
20 y,-x+y,-z
21 x-y,x,-z
22 -x+y,y,z
23 x,x-y,z
24 -y,-x,z
25 1/3-x,2/3-y,2/3-z
26 1/3+y,2/3-x+y,2/3-z
27 1/3+x-y,2/3+x,2/3-z
28 1/3-x+y,2/3+y,2/3+z
29 1/3+x,2/3+x-y,2/3+z
30 1/3-y,2/3-x,2/3+z
31 2/3-x,1/3-y,1/3-z
32 2/3+y,1/3-x+y,1/3-z
33 2/3+x-y,1/3+x,1/3-z
34 2/3-x+y,1/3+y,1/3+z
35 2/3+x,1/3+x-y,1/3+z
36 2/3-y,1/3-x,1/3+z
_cell_length_a                   23.8212(3)
_cell_length_b                   23.8212(3)
_cell_length_c                   30.2938(11)
_cell_angle_alpha                90
_cell_angle_beta                 90
_cell_angle_gamma                120
_cell_volume                     14887.2
loop_
_atom_site_label
_atom_site_type_symbol
_atom_site_fract_x
_atom_site_fract_y
_atom_site_fract_z
Zn1 Zn 0.0000 0.0000 0.07759(4)
Zn2 Zn 0.044436(16) 0.08887(3) 0.16150(2)
O1 O 0.0000 0.0000 0.14164(17)
O2 O 0.07439(14) 0.1488(3) 0.1132(2)
O3 O 0.04312(15) 0.0862(3) 0.05425(19)
O4 O 0.3220(2) 0.55041(19) -0.13306(15)
C1 C 0.0694(3) 0.1388(5) 0.0717(3)
C2 C 0.0980(2) 0.1959(4) 0.0454(3)
C3 C 0.1288(3) 0.2575(6) 0.0640(3)
H1 H 0.1311 0.2622 0.0945
C4 C 0.1564(2) 0.3127(4) 0.0369(4)
C5 C 0.1525(2) 0.3050(5) -0.0101(3)
C6 C 0.1214(2) 0.2429(4) -0.0290(2)
C7 C 0.09452(19) 0.1890(4) -0.0005(3)
H2 H 0.0738 0.1476 -0.0125
C8 C 0.1815(3) 0.3629(5) -0.0388(4)
C9 C 0.2466(4) 0.3921(4) -0.0517(3)
C10 C 0.2729(4) 0.4471(4) -0.0782(3)
H3 H 0.3162 0.4668 -0.0865
C11 C 0.2361(2) 0.4723(4) -0.0921(3)
C12 C 0.2664(3) 0.5328(5) -0.1215(3)
Zn2A Zn -0.08887(3) -0.044434(34) 0.16150(2)
Zn2B Zn 0.044434(34) -0.044436(16) 0.16150(2)
Zn2N Zn 0.377767(34) 0.622231(16) -0.17183(2)
Zn2CA Zn 0.24446(3) 0.622231(16) -0.17183(2)
Zn2L Zn -0.622231(16) -0.24446(3) -0.17183(2)
Zn2BA Zn -0.622231(16) -0.377767(34) -0.17183(2)
Zn2M Zn 0.24446(3) -0.377767(34) -0.17183(2)
Zn2AA Zn 0.377767(34) -0.24446(3) -0.17183(2)
O2A O -0.1488(3) -0.07441(33) 0.1132(2)
O2B O 0.07441(33) -0.07439(14) 0.1132(2)
O3A O -0.0862(3) -0.04308(34) 0.05425(19)
O3B O 0.04308(34) -0.04312(15) 0.05425(19)
O4U O 0.22841(28) 0.55041(19) -0.13306(15)
O4A O -0.55041(19) -0.22841(28) -0.13306(15)
O4W O -0.55041(19) -0.3220(2) -0.13306(15)
O4B O 0.22841(28) -0.3220(2) -0.13306(15)
O4V O 0.3220(2) -0.22841(28) -0.13306(15)
O4G O 0.11626(19) 0.10492(28) 0.20027(15)
O4HA O -0.0113(2) 0.10492(28) 0.20027(15)
O4H O -0.10492(28) 0.0113(2) 0.20027(15)
O4GA O -0.10492(28) -0.11626(19) 0.20027(15)
O4F O -0.0113(2) -0.11626(19) 0.20027(15)
O4IA O 0.11626(19) 0.0113(2) 0.20027(15)
C1A C -0.1388(5) -0.0694(6) 0.0717(3)
C1B C 0.0694(6) -0.0694(3) 0.0717(3)
C2A C -0.1959(4) -0.0979(4) 0.0454(3)
C2B C 0.0979(4) -0.0980(2) 0.0454(3)
C3A C -0.2575(6) -0.1287(7) 0.0640(3)
C3B C 0.1287(7) -0.1288(3) 0.0640(3)
H1A H -0.2622 -0.1311 0.0945
H1B H 0.1311 -0.1311 0.0945
C4A C -0.3127(4) -0.1563(4) 0.0369(4)
C4B C 0.1563(4) -0.1564(2) 0.0369(4)
C5A C -0.3050(5) -0.1525(5) -0.0101(3)
C5B C 0.1525(5) -0.1525(2) -0.0101(3)
C6A C -0.2429(4) -0.1215(4) -0.0290(2)
C6B C 0.1215(4) -0.1214(2) -0.0290(2)
C7A C -0.1890(4) -0.09448(44) -0.0005(3)
C7B C 0.09448(44) -0.09452(19) -0.0005(3)
H2A H -0.1476 -0.0738 -0.0125
H2B H 0.0738 -0.0738 -0.0125
C8A C -0.3629(5) -0.1814(6) -0.0388(4)
C8B C 0.1814(6) -0.1815(3) -0.0388(4)
C9U C 0.1455(6) 0.3921(4) -0.0517(3)
C9A C -0.3921(4) -0.1455(6) -0.0517(3)
C9W C -0.3921(4) -0.2466(4) -0.0517(3)
C9B C 0.1455(6) -0.2466(4) -0.0517(3)
C9V C 0.2466(4) -0.1455(6) -0.0517(3)
C10U C 0.1742(6) 0.4471(4) -0.0782(3)
C10A C -0.4471(4) -0.1742(6) -0.0782(3)
C10W C -0.4471(4) -0.2729(4) -0.0782(3)
C10B C 0.1742(6) -0.2729(4) -0.0782(3)
C10V C 0.2729(4) -0.1742(6) -0.0782(3)
H3U H 0.1506 0.4668 -0.0865
H3A H -0.4668 -0.1506 -0.0865
H3W H -0.4668 -0.3162 -0.0865
H3B H 0.1506 -0.3162 -0.0865
H3V H 0.3162 -0.1506 -0.0865
C11A C -0.4723(4) -0.2362(4) -0.0921(3)
C11B C 0.2362(4) -0.2361(2) -0.0921(3)
C12A C -0.5328(5) -0.2664(6) -0.1215(3)
C12B C 0.2664(6) -0.2664(3) -0.1215(3)
loop_
_geom_bond_atom_site_label_1
_geom_bond_atom_site_label_2
_geom_bond_site_symmetry_1
_geom_bond_site_symmetry_2
Zn1 O1 1_555 1_555
Zn2 O1 1_555 1_555
O1 Zn2A 1_555 1_555
O2 Zn2 1_555 1_555
O3 Zn1 1_555 1_555
O4 C12 1_555 1_555
C1 O2 1_555 1_555
C2 C1 1_555 1_555
C3 C2 1_555 1_555
H1 C3 1_555 1_555
C4 C3 1_555 1_555
C5 C4 1_555 1_555
C6 C5 1_555 1_555
C7 C2 1_555 1_555
H2 C7 1_555 1_555
C8 C5 1_555 1_555
C9 C8 1_555 1_555
C10 C9 1_555 1_555
H3 C10 1_555 1_555
C11 C10 1_555 1_555
C12 C11 1_555 1_555
Zn2A O2A 1_555 1_555
Zn2B O1 1_555 1_555
Zn2N O4 1_555 1_555
Zn2CA O4U 1_555 1_555
Zn2L O4A 1_555 1_555
Zn2BA O4W 1_555 1_555
Zn2M O4B 1_555 1_555
Zn2AA O4V 1_555 1_555
O2A C1A 1_555 1_555
O2B Zn2B 1_555 1_555
O3A Zn1 1_555 1_555
O3B Zn1 1_555 1_555
O4U C12 1_555 1_555
O4A C12A 1_555 1_555
O4W C12A 1_555 1_555
O4B C12B 1_555 1_555
O4V C12B 1_555 1_555
O4G Zn2 1_555 1_555
O4HA Zn2 1_555 1_555
O4H Zn2A 1_555 1_555
O4GA Zn2A 1_555 1_555
O4F Zn2B 1_555 1_555
O4IA Zn2B 1_555 1_555
C1A O3A 1_555 1_555
C1B O2B 1_555 1_555
C2A C1A 1_555 1_555
C2B C1B 1_555 1_555
C3A C2A 1_555 1_555
C3B C2B 1_555 1_555
H1A C3A 1_555 1_555
H1B C3B 1_555 1_555
C4A C3A 1_555 1_555
C4B C3B 1_555 1_555
C5A C4A 1_555 1_555
C5B C4B 1_555 1_555
C6A C5A 1_555 1_555
C6B C5B 1_555 1_555
C7A C2A 1_555 1_555
C7B C2B 1_555 1_555
H2A C7A 1_555 1_555
H2B C7B 1_555 1_555
C8A C5A 1_555 1_555
C8B C5B 1_555 1_555
C9U C8 1_555 1_555
C9A C8A 1_555 1_555
C9W C8A 1_555 1_555
C9B C8B 1_555 1_555
C9V C8B 1_555 1_555
C10U C11 1_555 1_555
C10A C9A 1_555 1_555
C10W C9W 1_555 1_555
C10B C9B 1_555 1_555
C10V C9V 1_555 1_555
H3U C10U 1_555 1_555
H3A C10A 1_555 1_555
H3W C10W 1_555 1_555
H3B C10B 1_555 1_555
H3V C10V 1_555 1_555
C11A C10A 1_555 1_555
C11B C10B 1_555 1_555
C12A C11A 1_555 1_555
C12B C11B 1_555 1_555
O3 C1 1_555 1_555
C6 C7 1_555 1_555
O3B C1B 1_555 1_555
C6A C7A 1_555 1_555
C6B C7B 1_555 1_555
C9U C10U 1_555 1_555
C10W C11A 1_555 1_555
C10V C11B 1_555 1_555

#END
