
#######################################################################
#
#                 Cambridge Crystallographic Data Centre
#                                CCDC 
#
#######################################################################
#
# If this CIF has been generated from an entry in the Cambridge 
# Structural Database, then it will include bibliographic, chemical, 
# crystal, experimental, refinement or atomic coordinate data resulting 
# from the CCDC's data processing and validation procedures.
#
#######################################################################

data_KULMOV
_symmetry_cell_setting           tetragonal
_symmetry_space_group_name_H-M   'P 43'
_symmetry_Int_Tables_number      78
_space_group_name_Hall           'P 4cw'
loop_
_symmetry_equiv_pos_site_id
_symmetry_equiv_pos_as_xyz
1 x,y,z
2 -x,-y,1/2+z
3 -y,x,3/4+z
4 y,-x,1/4+z
_cell_length_a                   6.7205(14)
_cell_length_b                   6.7205(14)
_cell_length_c                   27.578(11)
_cell_angle_alpha                90
_cell_angle_beta                 90
_cell_angle_gamma                90
_cell_volume                     1245.56
loop_
_atom_site_label
_atom_site_type_symbol
_atom_site_fract_x
_atom_site_fract_y
_atom_site_fract_z
Cu1 Cu 0.74047(7) 0.89345(7) 0.30963(3)
O1 O 0.6399(4) 0.8191(4) 0.37450(10)
O2 O 0.7005(5) 0.4864(5) 0.37561(11)
O3 O 1.2954(5) 1.2319(6) 0.49287(12)
O4 O 0.9697(4) 1.1549(4) 0.49480(10)
N1 N 0.5860(6) 1.0054(6) 0.55337(14)
H1 H 0.5678 1.0026 0.5816
H2 H 0.5148 1.0676 0.5415
N2 N 0.9747(5) 1.0408(5) 0.34491(11)
N3 N 1.4907(5) 1.1867(5) 0.31566(14)
H3 H 1.5647 1.2534 0.3285
H4 H 1.4764 1.2056 0.2868
N4 N 0.7386(5) 0.4900(5) 0.52556(12)
C1 C 0.6646(6) 0.6505(6) 0.39599(14)
C2 C 0.6549(6) 0.6569(6) 0.45060(14)
C3 C 0.6031(7) 0.8278(6) 0.47604(15)
H5 H 0.5583 0.9397 0.4595
C4 C 0.6187(6) 0.8310(6) 0.52701(14)
C5 C 1.1414(6) 1.0870(6) 0.32001(13)
H6 H 1.1411 1.0701 0.2865
C6 C 1.3155(6) 1.1593(6) 0.34211(16)
C7 C 1.3117(6) 1.1891(6) 0.39241(15)
H7 H 1.4241 1.2361 0.4084
C8 C 1.1386(6) 1.1479(6) 0.41842(14)
C9 C 0.9717(6) 1.0758(6) 0.39374(14)
H8 H 0.8555 1.0510 0.4110
C10 C 1.1371(6) 1.1835(6) 0.47298(15)
C11 C 0.7210(6) 0.4894(6) 0.47679(13)
H9 H 0.7537 0.3743 0.4599
C12 C 0.6868(6) 0.6558(6) 0.55005(14)
H10 H 0.6964 0.6549 0.5837
Cu1_2 Cu 1.74047(7) 0.89345(7) 0.30963(3)
Cu1C Cu 0.89345(7) 0.25953(7) 0.55963(3)
Cu1C_2 Cu 0.89345(7) 1.25953(7) 0.55963(3)
O4B O 0.8451(4) 0.9697(4) 0.24480(10)
N1B N 0.9946(6) 0.5860(6) 0.30337(14)
N3_2 N 0.4907(5) 1.1867(5) 0.31566(14)
N4B N 0.5100(5) 0.7386(5) 0.27556(12)
loop_
_geom_bond_atom_site_label_1
_geom_bond_atom_site_label_2
_geom_bond_site_symmetry_1
_geom_bond_site_symmetry_2
Cu1 O1 1_555 1_555
O1 C1 1_555 1_555
O2 C1 1_555 1_555
O3 C10 1_555 1_555
O4 C10 1_555 1_555
N1 H1 1_555 1_555
H2 N1 1_555 1_555
N2 Cu1 1_555 1_555
N3 H3 1_555 1_555
H4 N3 1_555 1_555
N4 C11 1_555 1_555
C1 C2 1_555 1_555
C2 C3 1_555 1_555
C3 H5 1_555 1_555
C4 N1 1_555 1_555
C5 N2 1_555 1_555
H6 C5 1_555 1_555
C6 N3 1_555 1_555
C7 C6 1_555 1_555
H7 C7 1_555 1_555
C8 C7 1_555 1_555
C9 N2 1_555 1_555
H8 C9 1_555 1_555
C10 C8 1_555 1_555
C11 C2 1_555 1_555
H9 C11 1_555 1_555
C12 N4 1_555 1_555
H10 C12 1_555 1_555
Cu1_2 N3 1_555 1_555
Cu1C N4 1_555 1_555
Cu1C_2 O4 1_555 1_555
O4B Cu1 1_555 1_555
N1B Cu1 1_555 1_555
N3_2 Cu1 1_555 1_555
N4B Cu1 1_555 1_555
N1 Cu1C_2 1_555 1_555
C3 C4 1_555 1_555
C4 C12 1_555 1_555
C5 C6 1_555 1_555
C8 C9 1_555 1_555

#END
