
#######################################################################
#
#                 Cambridge Crystallographic Data Centre
#                                CCDC 
#
#######################################################################
#
# If this CIF has been generated from an entry in the Cambridge 
# Structural Database, then it will include bibliographic, chemical, 
# crystal, experimental, refinement or atomic coordinate data resulting 
# from the CCDC's data processing and validation procedures.
#
#######################################################################

data_KULMAH
_symmetry_cell_setting           monoclinic
_symmetry_space_group_name_H-M   'P 21/n'
_symmetry_Int_Tables_number      14
_space_group_name_Hall           '-P 2yn'
loop_
_symmetry_equiv_pos_site_id
_symmetry_equiv_pos_as_xyz
1 x,y,z
2 1/2-x,1/2+y,1/2-z
3 -x,-y,-z
4 1/2+x,1/2-y,1/2+z
_cell_length_a                   9.6762(1)
_cell_length_b                   8.3440(1)
_cell_length_c                   21.5782(3)
_cell_angle_alpha                90
_cell_angle_beta                 99.701(1)
_cell_angle_gamma                90
_cell_volume                     1717.27
loop_
_atom_site_label
_atom_site_type_symbol
_atom_site_fract_x
_atom_site_fract_y
_atom_site_fract_z
Bi1 Bi 0.801795(10) 0.836131(12) 0.908775(5)
O1 O 0.6972(2) 0.9754(3) 0.82530(9)
O2 O 0.7690(2) 1.0839(3) 0.97089(11)
O3 O 0.9748(2) 1.1058(3) 0.94546(12)
O4 O 0.9189(3) 1.2524(3) 1.02022(12)
O5 O 0.6850(2) 0.6164(3) 0.85750(10)
O6 O 0.8783(3) 0.5174(3) 0.90933(11)
O7 O 0.7226(3) 0.3599(3) 0.85662(14)
N1 N 0.5446(3) 1.2749(3) 0.68018(12)
N2 N 0.7104(3) 0.6978(3) 0.99821(12)
N3 N 0.5602(3) 0.8829(3) 0.91027(11)
N4 N 0.4885(2) 0.9793(3) 0.86430(11)
H1 H 0.4006 1.0091 0.8622
N5 N 0.8894(3) 1.1502(3) 0.97925(13)
N6 N 0.7650(3) 0.4911(3) 0.87477(12)
C1 C 0.5909(3) 1.1811(4) 0.72938(14)
H2 H 0.6863 1.1485 0.7358
C2 C 0.5077(3) 1.1284(3) 0.77181(14)
C3 C 0.3685(3) 1.1802(4) 0.76314(15)
H3 H 0.3079 1.1481 0.7912
C4 C 0.3211(3) 1.2791(4) 0.71267(16)
H4 H 0.2271 1.3167 0.7059
C5 C 0.4103(3) 1.3231(4) 0.67237(15)
H5 H 0.3757 1.3902 0.6376
C6 C 0.5686(3) 1.0204(3) 0.82410(13)
C7 C 0.5761(3) 0.7309(4) 1.00355(14)
C8 C 0.5157(3) 0.6732(4) 1.05284(15)
H6 H 0.4213 0.6985 1.0558
C9 C 0.5958(4) 0.5778(4) 1.09796(16)
H7 H 0.5570 0.5368 1.1324
C10 C 0.7327(4) 0.5432(4) 1.09202(16)
H8 H 0.7892 0.4776 1.1222
C11 C 0.7867(4) 0.6058(4) 1.04137(16)
H9 H 0.8808 0.5822 1.0375
C12 C 0.4976(3) 0.8305(3) 0.95414(14)
H10 H 0.4020 0.8561 0.9545
Bi1A Bi 0.698205(10) 1.336131(12) 0.591225(5)
N1A N 0.9554(3) 0.7749(3) 0.81982(12)
O8 O 0.4632(5) 0.6553(6) 0.7537(2)
C13 C 0.5091(10) 0.7156(12) 0.7000(3)
O9? O 0.4197(9) 0.7185(12) 0.6701(4)
C14? C 0.5205(18) 0.701(2) 0.7221(7)
loop_
_geom_bond_atom_site_label_1
_geom_bond_atom_site_label_2
_geom_bond_site_symmetry_1
_geom_bond_site_symmetry_2
Bi1 O1 1_555 1_555
O1 C6 1_555 1_555
O2 Bi1 1_555 1_555
O3 Bi1 1_555 1_555
O4 N5 1_555 1_555
O5 Bi1 1_555 1_555
O6 Bi1 1_555 1_555
O7 N6 1_555 1_555
N1 C1 1_555 1_555
N2 Bi1 1_555 1_555
N3 Bi1 1_555 1_555
N4 N3 1_555 1_555
H1 N4 1_555 1_555
N5 O2 1_555 1_555
N6 O5 1_555 1_555
C1 H2 1_555 1_555
C2 C1 1_555 1_555
C3 C2 1_555 1_555
H3 C3 1_555 1_555
C4 C3 1_555 1_555
H4 C4 1_555 1_555
C5 N1 1_555 1_555
H5 C5 1_555 1_555
C6 N4 1_555 1_555
C7 N2 1_555 1_555
C8 C7 1_555 1_555
H6 C8 1_555 1_555
C9 C8 1_555 1_555
H7 C9 1_555 1_555
C10 C9 1_555 1_555
H8 C10 1_555 1_555
C11 N2 1_555 1_555
H9 C11 1_555 1_555
C12 N3 1_555 1_555
H10 C12 1_555 1_555
O8 C13 1_555 1_555
Bi1A N1 1_555 1_555
N1A Bi1 1_555 1_555
O3 N5 1_555 1_555
O6 N6 1_555 1_555
C2 C6 1_555 1_555
C4 C5 1_555 1_555
C7 C12 1_555 1_555
C10 C11 1_555 1_555

#END
