
#######################################################################
#
#                 Cambridge Crystallographic Data Centre
#                                CCDC 
#
#######################################################################
#
# If this CIF has been generated from an entry in the Cambridge 
# Structural Database, then it will include bibliographic, chemical, 
# crystal, experimental, refinement or atomic coordinate data resulting 
# from the CCDC's data processing and validation procedures.
#
#######################################################################

data_KULMEL
_symmetry_cell_setting           monoclinic
_symmetry_space_group_name_H-M   'C 2/c'
_symmetry_Int_Tables_number      15
_space_group_name_Hall           '-C 2yn'
loop_
_symmetry_equiv_pos_site_id
_symmetry_equiv_pos_as_xyz
1 x,y,z
2 -x,y,1/2-z
3 1/2+x,1/2+y,z
4 1/2-x,1/2+y,1/2-z
5 -x,-y,-z
6 x,-y,1/2+z
7 1/2-x,1/2-y,-z
8 1/2+x,1/2-y,1/2+z
_cell_length_a                   13.273(3)
_cell_length_b                   8.5883(17)
_cell_length_c                   14.648(3)
_cell_angle_alpha                90
_cell_angle_beta                 102.103(3)
_cell_angle_gamma                90
_cell_volume                     1632.65
loop_
_atom_site_label
_atom_site_type_symbol
_atom_site_fract_x
_atom_site_fract_y
_atom_site_fract_z
Cd1 Cd 0.0000 0.42366(2) 0.2500
O1 O 0.17021(17) 0.4537(2) 0.36520(16)
O2 O 0.13361(14) 0.2457(2) 0.27664(12)
N1 N 0.4365(2) 0.0918(2) 0.34906(16)
N2 N 0.5205(2) 0.2929(4) 0.57258(19)
H1 H 0.4976 0.3567 0.6086
H2 H 0.5810 0.2532 0.5899
C1 C 0.19513(15) 0.3234(3) 0.33651(15)
C2 C 0.30015(17) 0.2598(3) 0.37409(15)
C3 C 0.33986(17) 0.1456(3) 0.32332(15)
H3 H 0.2976 0.1055 0.2697
C4 C 0.49489(18) 0.1434(3) 0.43058(17)
H4 H 0.5611 0.1035 0.4499
C5 C 0.46016(17) 0.2540(3) 0.48700(16)
C6 C 0.36171(17) 0.3158(3) 0.45655(15)
O1A O -0.17021(17) 0.4537(2) 0.13480(16)
O2A O -0.13361(14) 0.2457(2) 0.22336(12)
N1A N -0.4365(2) 0.0918(2) 0.15094(16)
N2A N -0.5205(2) 0.2929(4) -0.07258(19)
H1A H -0.4976 0.3567 -0.1086
H2A H -0.5810 0.2532 -0.0899
C1A C -0.19513(15) 0.3234(3) 0.16349(15)
C2A C -0.30015(17) 0.2598(3) 0.12591(15)
C3A C -0.33986(17) 0.1456(3) 0.17668(15)
H3A H -0.2976 0.1055 0.2303
C4A C -0.49489(18) 0.1434(3) 0.06942(17)
H4A H -0.5611 0.1035 0.0501
C5A C -0.46016(17) 0.2540(3) 0.01300(16)
C6A C -0.36171(17) 0.3158(3) 0.04345(15)
Cd1B Cd -0.5000 -0.07634(2) 0.2500
Cd1B_2 Cd 0.5000 -0.07634(2) 0.2500
N1B N -0.0635(2) 0.5918(2) 0.34906(16)
N1C N 0.0635(2) 0.5918(2) 0.15094(16)
O3 O 0.25060(18) 0.2503(2) 0.09256(15)
O4 O 0.4121(3) 0.4432(3) 0.1783(3)
loop_
_geom_bond_atom_site_label_1
_geom_bond_atom_site_label_2
_geom_bond_site_symmetry_1
_geom_bond_site_symmetry_2
Cd1 O1 1_555 1_555
O1 C1 1_555 1_555
O2 Cd1 1_555 1_555
N1 C3 1_555 1_555
N2 H1 1_555 1_555
H2 N2 1_555 1_555
C1 O2 1_555 1_555
C2 C1 1_555 1_555
C3 C2 1_555 1_555
H3 C3 1_555 1_555
C4 N1 1_555 1_555
H4 C4 1_555 1_555
C5 N2 1_555 1_555
C6 C2 1_555 1_555
O1A Cd1 1_555 1_555
O2A Cd1 1_555 1_555
N1A C3A 1_555 1_555
N2A H1A 1_555 1_555
H2A N2A 1_555 1_555
C1A O1A 1_555 1_555
C2A C1A 1_555 1_555
C3A C2A 1_555 1_555
H3A C3A 1_555 1_555
C4A N1A 1_555 1_555
H4A C4A 1_555 1_555
C5A N2A 1_555 1_555
C6A C2A 1_555 1_555
Cd1B N1A 1_555 1_555
Cd1B_2 N1 1_555 1_555
N1B Cd1 1_555 1_555
N1C Cd1 1_555 1_555
C4 C5 1_555 1_555
C5 C6 1_555 1_555
O2A C1A 1_555 1_555
C4A C5A 1_555 1_555
C5A C6A 1_555 1_555

#END
