
#######################################################################
#
#                 Cambridge Crystallographic Data Centre
#                                CCDC 
#
#######################################################################
#
# If this CIF has been generated from an entry in the Cambridge 
# Structural Database, then it will include bibliographic, chemical, 
# crystal, experimental, refinement or atomic coordinate data resulting 
# from the CCDC's data processing and validation procedures.
#
#######################################################################

data_KULMIP
_symmetry_cell_setting           monoclinic
_symmetry_space_group_name_H-M   'C c'
_symmetry_Int_Tables_number      9
_space_group_name_Hall           'C -2yc'
loop_
_symmetry_equiv_pos_site_id
_symmetry_equiv_pos_as_xyz
1 x,y,z
2 x,-y,1/2+z
3 1/2+x,1/2+y,z
4 1/2+x,1/2-y,1/2+z
_cell_length_a                   12.5078(17)
_cell_length_b                   9.4304(13)
_cell_length_c                   7.0637(10)
_cell_angle_alpha                90
_cell_angle_beta                 106.724(2)
_cell_angle_gamma                90
_cell_volume                     797.946
loop_
_atom_site_label
_atom_site_type_symbol
_atom_site_fract_x
_atom_site_fract_y
_atom_site_fract_z
Cd1 Cd 0.78617(7) 0.16221(2) 0.62113(8)
O1 O 0.6124(4) 0.2416(4) 0.6958(7)
C1 C 0.5789(5) 0.1185(8) 0.6621(8)
N1 N 0.2171(3) 0.2376(4) 0.7744(6)
H1 H 0.2351 0.3258 0.7872
H2 H 0.1540 0.2101 0.7873
O2 O 0.6355(3) 0.0235(3) 0.6042(5)
C2 C 0.4678(4) 0.0783(5) 0.6847(6)
C3 C 0.4378(3) -0.0645(4) 0.6796(6)
H3 H 0.4876 -0.1327 0.6613
C4 C 0.3943(4) 0.1790(4) 0.7105(7)
H4 H 0.4129 0.2746 0.7136
C5 C 0.2678(4) -0.0078(4) 0.7274(6)
H5 H 0.2000 -0.0372 0.7438
C6 C 0.2915(4) 0.1374(5) 0.7321(7)
N2 N 0.3399(3) -0.1062(4) 0.7001(5)
O3 O 0.9744(4) 0.1138(5) 0.6175(6)
C7 C 0.9503(4) 0.0149(5) 0.4992(7)
H6 H 1.0076 -0.0312 0.4644
O4 O 0.8506(3) -0.0271(4) 0.4225(5)
Cd1A Cd 0.78617(7) -0.16221(2) 0.12113(8)
Cd1B Cd 0.28617(7) -0.33779(2) 0.62113(8)
Cd1C Cd 0.28617(7) 0.33779(2) 1.12113(8)
N1C N 0.7171(3) 0.2624(4) 0.2744(6)
N2B N 0.8399(3) 0.3938(4) 0.7001(5)
O4A O 0.8506(3) 0.0271(4) 0.9225(5)
loop_
_geom_bond_atom_site_label_1
_geom_bond_atom_site_label_2
_geom_bond_site_symmetry_1
_geom_bond_site_symmetry_2
Cd1 O1 1_555 1_555
O1 C1 1_555 1_555
C1 O2 1_555 1_555
N1 H1 1_555 1_555
H2 N1 1_555 1_555
O2 Cd1 1_555 1_555
C2 C1 1_555 1_555
C3 C2 1_555 1_555
H3 C3 1_555 1_555
C4 C2 1_555 1_555
H4 C4 1_555 1_555
C5 H5 1_555 1_555
C6 N1 1_555 1_555
N2 C3 1_555 1_555
O3 Cd1 1_555 1_555
C7 O3 1_555 1_555
H6 C7 1_555 1_555
O4 Cd1 1_555 1_555
Cd1A O4 1_555 1_555
Cd1B N2 1_555 1_555
Cd1C N1 1_555 1_555
N1C Cd1 1_555 1_555
N2B Cd1 1_555 1_555
O4A Cd1 1_555 1_555
C4 C6 1_555 1_555
C5 C6 1_555 1_555
C5 N2 1_555 1_555
C7 O4 1_555 1_555

#END
