
#######################################################################
#
#                 Cambridge Crystallographic Data Centre
#                                CCDC 
#
#######################################################################
#
# If this CIF has been generated from an entry in the Cambridge 
# Structural Database, then it will include bibliographic, chemical, 
# crystal, experimental, refinement or atomic coordinate data resulting 
# from the CCDC's data processing and validation procedures.
#
#######################################################################

data_KULQAK
_symmetry_cell_setting           monoclinic
_symmetry_space_group_name_H-M   'P 21/c'
_symmetry_Int_Tables_number      14
_space_group_name_Hall           '-P 2ybc'
loop_
_symmetry_equiv_pos_site_id
_symmetry_equiv_pos_as_xyz
1 x,y,z
2 -x,1/2+y,1/2-z
3 -x,-y,-z
4 x,1/2-y,1/2+z
_cell_length_a                   10.958(3)
_cell_length_b                   9.620(2)
_cell_length_c                   9.969(3)
_cell_angle_alpha                90
_cell_angle_beta                 114.134(7)
_cell_angle_gamma                90
_cell_volume                     959.035
loop_
_atom_site_label
_atom_site_type_symbol
_atom_site_fract_x
_atom_site_fract_y
_atom_site_fract_z
Ho1 Ho 0.69078(4) 0.04241(4) 0.33113(4)
O1 O 0.8906(6) 0.1081(7) 0.5359(7)
O2 O 1.1087(7) 0.0733(7) 0.6638(8)
O3 O 0.6642(7) 0.0627(7) 0.5694(8)
O4 O 0.5263(7) 0.0263(7) 0.6828(7)
O5 O 0.5124(7) 0.1431(7) 0.1122(7)
O6 O 0.3738(7) 0.1033(7) -0.1213(7)
O7 O 0.7948(8) 0.1813(8) 0.2023(8)
H1 H 0.7548 0.2262 0.1229
H2 H 0.8783 0.1855 0.2238
O8 O 0.6647(8) 0.2786(8) 0.3808(8)
H3 H 0.7259 0.3397 0.4154
H4 H 0.5921 0.3152 0.3753
O9 O 0.7126(8) -0.1878(8) 0.4282(9)
H5 H 0.7457 -0.1799 0.5212
H6 H 0.6347 -0.2211 0.4007
C1 C 0.9987(10) 0.0529(10) 0.5570(11)
C2 C 0.5571(11) 0.0260(10) 0.5728(11)
C3 C 0.4666(10) 0.0711(10) -0.0028(11)
Ho1B Ho 1.30922(4) -0.04241(4) 0.66887(4)
Ho1B_2 Ho 0.30922(4) -0.04241(4) 0.66887(4)
Ho1B_3 Ho 0.30922(4) -0.04241(4) -0.33113(4)
O1B O 1.1094(6) -0.1081(7) 0.4641(7)
O2B O 0.8913(7) -0.0733(7) 0.3362(8)
O3B O 0.3358(7) -0.0627(7) 0.4306(8)
O3B_2 O 1.3358(7) -0.0627(7) 0.4306(8)
O4B O 0.4737(7) -0.0263(7) 0.3172(7)
O4_2 O 1.5263(7) 0.0263(7) 0.6828(7)
O5B O 0.4876(7) -0.1431(7) -0.1122(7)
O5B_2 O 1.4876(7) -0.1431(7) 0.8878(7)
O6B O 0.6262(7) -0.1033(7) 0.1213(7)
O6_2 O 1.3738(7) 0.1033(7) 0.8787(7)
O7B O 1.2052(8) -0.1813(8) 0.7977(8)
H1B H 1.2452 -0.2262 0.8771
H2B H 1.1217 -0.1855 0.7762
O8B O 1.3353(8) -0.2786(8) 0.6192(8)
H3B H 1.2741 -0.3397 0.5846
H4B H 1.4079 -0.3152 0.6247
O9B O 1.2874(8) 0.1878(8) 0.5718(9)
H5B H 1.2543 0.1799 0.4788
H6B H 1.3653 0.2211 0.5993
C1B C 1.0013(10) -0.0529(10) 0.4430(11)
C2B C 0.4429(11) -0.0260(10) 0.4272(11)
C3B C 0.5334(10) -0.0711(10) 0.0028(11)
C4 C 0.866(3) 0.597(4) 0.321(4)
H7 H 0.8310 0.6766 0.3537
H8 H 0.7868 0.5569 0.2439
C5 C 0.9194(18) 0.6752(17) 0.2213(18)
H9 H 1.0132 0.6594 0.2830
H10 H 0.8983 0.6025 0.1477
N1 N 0.873(5) 0.500(5) 0.441(5)
H11 H 0.9469 0.5240 0.5182
H12 H 0.8855 0.4177 0.4074
N2 N 0.942(3) 0.785(3) 0.131(3)
H13 H 0.9583 0.8642 0.1807
H14 H 0.8645 0.7908 0.0526
loop_
_geom_bond_atom_site_label_1
_geom_bond_atom_site_label_2
_geom_bond_site_symmetry_1
_geom_bond_site_symmetry_2
Ho1 O1 1_555 1_555
O1 C1 1_555 1_555
O2 C1 1_555 1_555
O3 Ho1 1_555 1_555
O4 C2 1_555 1_555
O5 Ho1 1_555 1_555
O6 C3 1_555 1_555
O7 Ho1 1_555 1_555
H1 O7 1_555 1_555
H2 O7 1_555 1_555
O8 Ho1 1_555 1_555
H3 O8 1_555 1_555
H4 O8 1_555 1_555
O9 Ho1 1_555 1_555
H5 O9 1_555 1_555
H6 O9 1_555 1_555
C1 C1B 1_555 1_555
C2 O3 1_555 1_555
C3 O5 1_555 1_555
C4 H7 1_555 1_555
H8 C4 1_555 1_555
C5 C4 1_555 1_555
H9 C5 1_555 1_555
H10 C5 1_555 1_555
N1 C4 1_555 1_555
H11 N1 1_555 1_555
H12 N1 1_555 1_555
N2 C5 1_555 1_555
H13 N2 1_555 1_555
H14 N2 1_555 1_555
Ho1B O2 1_555 1_555
Ho1B_2 O4 1_555 1_555
Ho1B_3 O6 1_555 1_555
O1B Ho1B 1_555 1_555
O2B Ho1 1_555 1_555
O3B Ho1B_2 1_555 1_555
O3B_2 Ho1B 1_555 1_555
O4B Ho1 1_555 1_555
O4_2 Ho1B 1_555 1_555
O5B Ho1B_3 1_555 1_555
O5B_2 Ho1B 1_555 1_555
O6B Ho1 1_555 1_555
O6_2 Ho1B 1_555 1_555
O7B Ho1B 1_555 1_555
H1B O7B 1_555 1_555
H2B O7B 1_555 1_555
O8B Ho1B 1_555 1_555
H3B O8B 1_555 1_555
H4B O8B 1_555 1_555
O9B Ho1B 1_555 1_555
H5B O9B 1_555 1_555
H6B O9B 1_555 1_555
C1B O1B 1_555 1_555
C2B C2 1_555 1_555
C3B C3 1_555 1_555
O2B C1B 1_555 1_555
O3B C2B 1_555 1_555
O4B C2B 1_555 1_555
O5B C3B 1_555 1_555
O6B C3B 1_555 1_555

#END
