
#######################################################################
#
#                 Cambridge Crystallographic Data Centre
#                                CCDC 
#
#######################################################################
#
# If this CIF has been generated from an entry in the Cambridge 
# Structural Database, then it will include bibliographic, chemical, 
# crystal, experimental, refinement or atomic coordinate data resulting 
# from the CCDC's data processing and validation procedures.
#
#######################################################################

data_KULRIT
_symmetry_cell_setting           monoclinic
_symmetry_space_group_name_H-M   'P 21/n'
_symmetry_Int_Tables_number      14
_space_group_name_Hall           '-P 2yn'
loop_
_symmetry_equiv_pos_site_id
_symmetry_equiv_pos_as_xyz
1 x,y,z
2 1/2-x,1/2+y,1/2-z
3 -x,-y,-z
4 1/2+x,1/2-y,1/2+z
_cell_length_a                   8.5773(8)
_cell_length_b                   16.7281(15)
_cell_length_c                   12.1397(11)
_cell_angle_alpha                90
_cell_angle_beta                 93.036(2)
_cell_angle_gamma                90
_cell_volume                     1739.38
loop_
_atom_site_label
_atom_site_type_symbol
_atom_site_fract_x
_atom_site_fract_y
_atom_site_fract_z
Yb1 Yb 0.51840(3) 0.098034(17) -0.06883(3)
C1 C 0.1702(8) 0.1663(4) 0.2450(7)
H1 H 0.1507 0.2068 0.1889
H2 H 0.2642 0.1813 0.2881
C2 C 0.1968(8) 0.0866(4) 0.1894(6)
H3 H 0.229(9) 0.047(4) 0.245(6)
C3 C 0.0451(8) 0.0583(4) 0.1260(6)
H4 H 0.0619 0.0057 0.0952
H5 H 0.0203 0.0947 0.0654
C4 C -0.0950(8) 0.0549(4) 0.2028(6)
H6 H -0.076(8) 0.014(4) 0.260(6)
C5 C -0.1149(8) 0.1362(5) 0.2568(7)
H7 H -0.1991 0.1331 0.3070
H8 H -0.1440 0.1752 0.2003
C6 C 0.0332(9) 0.1642(4) 0.3204(7)
H9 H 0.058(9) 0.127(5) 0.381(6)
C7 C 0.3205(8) 0.0923(4) 0.1051(7)
C8 C -0.2403(8) 0.0333(4) 0.1314(6)
C9 C 0.0176(9) 0.2479(5) 0.3677(7)
C10 C 0.8317(12) 0.1434(6) -0.1904(10)
H10 H 0.8662 0.1613 -0.1208
C11 C 1.0658(13) 0.1993(8) -0.2609(14)
H11 H 1.0898 0.2126 -0.1850
H12 H 1.0598 0.2474 -0.3041
H13 H 1.1463 0.1654 -0.2871
C12 C 0.8679(17) 0.1369(9) -0.3836(11)
H14 H 0.9334 0.0953 -0.4097
H15 H 0.8739 0.1828 -0.4306
H16 H 0.7619 0.1184 -0.3843
O2 O 0.3382(7) 0.1537(3) 0.0510(5)
O4 O 0.4054(6) 0.0310(3) 0.0870(4)
O5 O -0.2863(6) 0.0840(3) 0.0603(5)
O6 O -0.3030(6) -0.0343(3) 0.1461(4)
O7 O 0.1032(6) 0.2679(3) 0.4498(4)
O8 O -0.0732(6) 0.2979(3) 0.3195(5)
O9 O 0.7059(7) 0.1075(3) -0.1968(5)
N1 N 0.9205(9) 0.1588(5) -0.2707(8)
Yb1B Yb 0.48160(3) -0.098034(17) 0.06883(3)
Yb1_2 Yb -0.48160(3) 0.098034(17) -0.06883(3)
Yb1B_2 Yb -0.51840(3) -0.098034(17) 0.06883(3)
Yb1C Yb 0.01840(3) 0.401966(17) 0.43117(3)
O4B O 0.5946(6) -0.0310(3) -0.0870(4)
O5_2 O 0.7137(6) 0.0840(3) 0.0603(5)
O6B O 0.3030(6) 0.0343(3) -0.1461(4)
O7C O 0.6032(6) 0.2321(3) -0.0502(4)
O8C O 0.4268(6) 0.2021(3) -0.1805(5)
O1 O 0.892(3) 0.3296(18) 0.0489(15)
O3 O 0.462(2) 0.998(3) 0.565(2)
loop_
_geom_bond_atom_site_label_1
_geom_bond_atom_site_label_2
_geom_bond_site_symmetry_1
_geom_bond_site_symmetry_2
Yb1 O2 1_555 1_555
C1 H1 1_555 1_555
H2 C1 1_555 1_555
C2 C1 1_555 1_555
H3 C2 1_555 1_555
C3 C2 1_555 1_555
H4 C3 1_555 1_555
H5 C3 1_555 1_555
C4 C3 1_555 1_555
H6 C4 1_555 1_555
C5 C4 1_555 1_555
H7 C5 1_555 1_555
H8 C5 1_555 1_555
C6 C1 1_555 1_555
H9 C6 1_555 1_555
C7 C2 1_555 1_555
C8 C4 1_555 1_555
C9 C6 1_555 1_555
C10 H10 1_555 1_555
C11 H11 1_555 1_555
H12 C11 1_555 1_555
H13 C11 1_555 1_555
C12 H14 1_555 1_555
H15 C12 1_555 1_555
H16 C12 1_555 1_555
O2 C7 1_555 1_555
O4 Yb1 1_555 1_555
O5 C8 1_555 1_555
O6 C8 1_555 1_555
O7 C9 1_555 1_555
O8 C9 1_555 1_555
O9 Yb1 1_555 1_555
N1 C10 1_555 1_555
Yb1B O4 1_555 1_555
Yb1_2 O5 1_555 1_555
Yb1B_2 O6 1_555 1_555
Yb1C O7 1_555 1_555
O4B Yb1 1_555 1_555
O5_2 Yb1 1_555 1_555
O6B Yb1 1_555 1_555
O7C Yb1 1_555 1_555
O8C Yb1 1_555 1_555
C5 C6 1_555 1_555
C7 O4 1_555 1_555
C10 O9 1_555 1_555
C11 N1 1_555 1_555
C12 N1 1_555 1_555
O8 Yb1C 1_555 1_555
Yb1B O4B 1_555 1_555

#END
