
#######################################################################
#
#                 Cambridge Crystallographic Data Centre
#                                CCDC 
#
#######################################################################
#
# If this CIF has been generated from an entry in the Cambridge 
# Structural Database, then it will include bibliographic, chemical, 
# crystal, experimental, refinement or atomic coordinate data resulting 
# from the CCDC's data processing and validation procedures.
#
#######################################################################

data_KULSEQ
_symmetry_cell_setting           triclinic
_symmetry_space_group_name_H-M   'P -1'
_symmetry_Int_Tables_number      2
_space_group_name_Hall           '-P 1'
loop_
_symmetry_equiv_pos_site_id
_symmetry_equiv_pos_as_xyz
1 x,y,z
2 -x,-y,-z
_cell_length_a                   8.036(3)
_cell_length_b                   9.962(3)
_cell_length_c                   15.302(4)
_cell_angle_alpha                106.091(16)
_cell_angle_beta                 90.928(18)
_cell_angle_gamma                90.379(13)
_cell_volume                     1176.77
loop_
_atom_site_label
_atom_site_type_symbol
_atom_site_fract_x
_atom_site_fract_y
_atom_site_fract_z
Co1 Co 0.50000 0.50000 0.50000
Co2 Co 0.00000 0.50000 0.50000
O1 O 0.57703(14) 0.31343(14) 0.41099(9)
O2 O 0.33340(15) 0.20304(14) 0.37215(9)
O3 O 0.58656(15) 0.43615(15) 0.60746(9)
H1 H 0.6898 0.4455 0.6171
H2 H 0.5409 0.4289 0.655
O4 O 0.24899(14) 0.41552(13) 0.50704(8)
H3 H 0.2675 0.3449 0.4635
H4 H 0.2375 0.3915 0.5551
O5 O -0.08068(14) 0.44275(14) 0.61318(8)
O6 O 0.15533(15) 0.36277(15) 0.65811(9)
O7 O -0.08912(15) 0.31413(14) 0.41871(9)
H5 H -0.0494 0.272 0.3682
H6 H -0.1923 0.3104 0.4084
C1 C 0.4862(2) 0.2151(2) 0.36167(12)
C2 C 0.5720(2) 0.1095(2) 0.28641(13)
C3 C 0.6664(2) 0.0040(2) 0.30648(13)
C4 C 0.7503(2) -0.0896(2) 0.23595(13)
H7 H 0.8133 -0.1625 0.2488
C5 C 0.7429(2) -0.0777(2) 0.14734(13)
C6 C 0.6448(2) 0.0266(2) 0.12931(13)
H8 H 0.637 0.0338 0.0688
C7 C 0.5580(2) 0.1204(2) 0.19710(13)
C8 C 0.6800(3) -0.0108(2) 0.40240(14)
H9 H 0.6896 -0.1099 0.3999
H10 H 0.5803 0.0274 0.4361
H11 H 0.7787 0.0403 0.4332
C9 C 0.8389(3) -0.1761(3) 0.07274(15)
H12 H 0.9317 -0.1254 0.0552
H13 H 0.7651 -0.2141 0.0199
H14 H 0.8824 -0.2528 0.0947
C10 C 0.4517(3) 0.2315(2) 0.17459(14)
H15 H 0.4535 0.2204 0.1089
H16 H 0.4957 0.3241 0.2072
H17 H 0.337 0.222 0.1931
C11 C 0.0036(2) 0.3919(2) 0.66712(12)
C12 C -0.0875(2) 0.3649(2) 0.74594(12)
C13 C -0.1822(2) 0.2415(2) 0.73166(12)
C14 C -0.2687(2) 0.2188(2) 0.80480(13)
H18 H -0.3319 0.135 0.7961
C15 C -0.2647(2) 0.3153(2) 0.88983(13)
C16 C -0.1693(2) 0.4367(2) 0.90182(13)
H19 H -0.1657 0.5034 0.9598
C17 C -0.0791(2) 0.4632(2) 0.83114(13)
C18 C -0.1921(3) 0.1368(2) 0.63911(13)
H20 H -0.2604 0.0564 0.6423
H21 H -0.0799 0.1053 0.6197
H22 H -0.2425 0.1805 0.5952
C19 C -0.3604(3) 0.2902(3) 0.96807(14)
H23 H -0.4576 0.2306 0.9444
H24 H -0.3971 0.3798 1.0077
H25 H -0.2884 0.244 1.0029
C20 C 0.0231(2) 0.5957(2) 0.84602(14)
H26 H 0.1406 0.572 0.8354
H27 H 0.0101 0.6536 0.9087
H28 H -0.0152 0.6473 0.8036
Co2_2 Co 1.00000 0.50000 0.50000
O1A O 0.42297(14) 0.68657(14) 0.58901(9)
O2A O 0.66660(15) 0.79696(14) 0.62785(9)
O3A O 0.41344(15) 0.56385(15) 0.39254(9)
H1A H 0.3102 0.5545 0.3829
H2A H 0.4591 0.5711 0.345
O4A O 0.75101(14) 0.58448(13) 0.49296(8)
O4A_2 O -0.24899(14) 0.58448(13) 0.49296(8)
H3A H 0.7325 0.6551 0.5365
H3A_2 H -0.2675 0.6551 0.5365
H4A H 0.7625 0.6085 0.4449
H4A_2 H -0.2375 0.6085 0.4449
O5A O 0.08068(14) 0.55725(14) 0.38682(8)
O6A O -0.15533(15) 0.63723(15) 0.34189(9)
O7A O 0.08912(15) 0.68587(14) 0.58129(9)
H5A H 0.0494 0.728 0.6318
H6A H 0.1923 0.6896 0.5916
C1A C 0.5138(2) 0.7849(2) 0.63833(12)
C2A C 0.4280(2) 0.8905(2) 0.71359(13)
C3A C 0.3336(2) 0.9960(2) 0.69352(13)
C4A C 0.2497(2) 1.0896(2) 0.76405(13)
H7A H 0.1867 1.1625 0.7512
C5A C 0.2571(2) 1.0777(2) 0.85266(13)
C6A C 0.3552(2) 0.9734(2) 0.87069(13)
H8A H 0.363 0.9662 0.9312
C7A C 0.4420(2) 0.8796(2) 0.80290(13)
C8A C 0.3200(3) 1.0108(2) 0.59760(14)
H9A H 0.3104 1.1099 0.6001
H10A H 0.4197 0.9726 0.5639
H11A H 0.2213 0.9597 0.5668
C9A C 0.1611(3) 1.1761(3) 0.92726(15)
H12A H 0.0683 1.1254 0.9448
H13A H 0.2349 1.2141 0.9801
H14A H 0.1176 1.2528 0.9053
C10A C 0.5483(3) 0.7685(2) 0.82541(14)
H15A H 0.5465 0.7796 0.8911
H16A H 0.5043 0.6759 0.7928
H17A H 0.663 0.778 0.8069
C11A C -0.0036(2) 0.6081(2) 0.33288(12)
C12A C 0.0875(2) 0.6351(2) 0.25406(12)
C13A C 0.1822(2) 0.7585(2) 0.26834(12)
C14A C 0.2687(2) 0.7812(2) 0.19520(13)
H18A H 0.3319 0.865 0.2039
C15A C 0.2647(2) 0.6847(2) 0.11017(13)
C16A C 0.1693(2) 0.5633(2) 0.09818(13)
H19A H 0.1657 0.4966 0.0402
C17A C 0.0791(2) 0.5368(2) 0.16886(13)
C18A C 0.1921(3) 0.8632(2) 0.36089(13)
H20A H 0.2604 0.9436 0.3577
H21A H 0.0799 0.8947 0.3803
H22A H 0.2425 0.8195 0.4048
C19A C 0.3604(3) 0.7098(3) 0.03193(14)
H23A H 0.4576 0.7694 0.0556
H24A H 0.3971 0.6202 -0.0077
H25A H 0.2884 0.756 -0.0029
C20A C -0.0231(2) 0.4043(2) 0.15398(14)
H26A H -0.1406 0.428 0.1646
H27A H -0.0101 0.3464 0.0913
H28A H 0.0152 0.3527 0.1964
O8 O 0.43574(17) 0.42160(17) 0.76368(10)
H29 H 0.3395 0.3929 0.7451
H30 H 0.4791 0.3612 0.7856
O9 O 0.05289(17) 0.14983(16) 0.26519(10)
H31 H 0.1477 0.135 0.2842
H32 H 0.0037 0.0719 0.2511
loop_
_geom_bond_atom_site_label_1
_geom_bond_atom_site_label_2
_geom_bond_site_symmetry_1
_geom_bond_site_symmetry_2
Co1 O1 1_555 1_555
Co2 O4 1_555 1_555
O1 C1 1_555 1_555
O2 C1 1_555 1_555
O3 Co1 1_555 1_555
H1 O3 1_555 1_555
H2 O3 1_555 1_555
O4 Co1 1_555 1_555
H3 O4 1_555 1_555
H4 O4 1_555 1_555
O5 Co2 1_555 1_555
O6 C11 1_555 1_555
O7 Co2 1_555 1_555
H5 O7 1_555 1_555
H6 O7 1_555 1_555
C1 C2 1_555 1_555
C2 C3 1_555 1_555
C3 C4 1_555 1_555
C4 H7 1_555 1_555
C5 C4 1_555 1_555
C6 C5 1_555 1_555
H8 C6 1_555 1_555
C7 C2 1_555 1_555
C8 C3 1_555 1_555
H9 C8 1_555 1_555
H10 C8 1_555 1_555
H11 C8 1_555 1_555
C9 C5 1_555 1_555
H12 C9 1_555 1_555
H13 C9 1_555 1_555
H14 C9 1_555 1_555
C10 C7 1_555 1_555
H15 C10 1_555 1_555
H16 C10 1_555 1_555
H17 C10 1_555 1_555
C11 O5 1_555 1_555
C12 C11 1_555 1_555
C13 C12 1_555 1_555
C14 C13 1_555 1_555
H18 C14 1_555 1_555
C15 C14 1_555 1_555
C16 C15 1_555 1_555
H19 C16 1_555 1_555
C17 C12 1_555 1_555
C18 C13 1_555 1_555
H20 C18 1_555 1_555
H21 C18 1_555 1_555
H22 C18 1_555 1_555
C19 C15 1_555 1_555
H23 C19 1_555 1_555
H24 C19 1_555 1_555
H25 C19 1_555 1_555
C20 C17 1_555 1_555
H26 C20 1_555 1_555
H27 C20 1_555 1_555
H28 C20 1_555 1_555
O8 H29 1_555 1_555
H30 O8 1_555 1_555
O9 H31 1_555 1_555
H32 O9 1_555 1_555
Co2_2 O4A 1_555 1_555
O1A Co1 1_555 1_555
O2A C1A 1_555 1_555
O3A Co1 1_555 1_555
H1A O3A 1_555 1_555
H2A O3A 1_555 1_555
O4A Co1 1_555 1_555
O4A_2 Co2 1_555 1_555
H3A O4A 1_555 1_555
H3A_2 O4A_2 1_555 1_555
H4A O4A 1_555 1_555
H4A_2 O4A_2 1_555 1_555
O5A Co2 1_555 1_555
O6A C11A 1_555 1_555
O7A Co2 1_555 1_555
H5A O7A 1_555 1_555
H6A O7A 1_555 1_555
C1A O1A 1_555 1_555
C2A C1A 1_555 1_555
C3A C2A 1_555 1_555
C4A C3A 1_555 1_555
H7A C4A 1_555 1_555
C5A C4A 1_555 1_555
C6A C5A 1_555 1_555
H8A C6A 1_555 1_555
C7A C2A 1_555 1_555
C8A C3A 1_555 1_555
H9A C8A 1_555 1_555
H10A C8A 1_555 1_555
H11A C8A 1_555 1_555
C9A C5A 1_555 1_555
H12A C9A 1_555 1_555
H13A C9A 1_555 1_555
H14A C9A 1_555 1_555
C10A C7A 1_555 1_555
H15A C10A 1_555 1_555
H16A C10A 1_555 1_555
H17A C10A 1_555 1_555
C11A O5A 1_555 1_555
C12A C11A 1_555 1_555
C13A C12A 1_555 1_555
C14A C13A 1_555 1_555
H18A C14A 1_555 1_555
C15A C14A 1_555 1_555
C16A C15A 1_555 1_555
H19A C16A 1_555 1_555
C17A C12A 1_555 1_555
C18A C13A 1_555 1_555
H20A C18A 1_555 1_555
H21A C18A 1_555 1_555
H22A C18A 1_555 1_555
C19A C15A 1_555 1_555
H23A C19A 1_555 1_555
H24A C19A 1_555 1_555
H25A C19A 1_555 1_555
C20A C17A 1_555 1_555
H26A C20A 1_555 1_555
H27A C20A 1_555 1_555
H28A C20A 1_555 1_555
C6 C7 1_555 1_555
C16 C17 1_555 1_555
C6A C7A 1_555 1_555
C16A C17A 1_555 1_555

#END
