
#######################################################################
#
#                 Cambridge Crystallographic Data Centre
#                                CCDC 
#
#######################################################################
#
# If this CIF has been generated from an entry in the Cambridge 
# Structural Database, then it will include bibliographic, chemical, 
# crystal, experimental, refinement or atomic coordinate data resulting 
# from the CCDC's data processing and validation procedures.
#
#######################################################################

data_KULSAM
_symmetry_cell_setting           triclinic
_symmetry_space_group_name_H-M   'P -1'
_symmetry_Int_Tables_number      2
_space_group_name_Hall           '-P 1'
loop_
_symmetry_equiv_pos_site_id
_symmetry_equiv_pos_as_xyz
1 x,y,z
2 -x,-y,-z
_cell_length_a                   7.8642(10)
_cell_length_b                   9.9520(15)
_cell_length_c                   15.398(3)
_cell_angle_alpha                106.030(7)
_cell_angle_beta                 90.312(8)
_cell_angle_gamma                90.556(8)
_cell_volume                     1158.16
loop_
_atom_site_label
_atom_site_type_symbol
_atom_site_fract_x
_atom_site_fract_y
_atom_site_fract_z
Ni1 Ni 0.50000 0.50000 0.50000
Ni2 Ni 0.00000 0.50000 0.50000
O1 O 0.57491(16) 0.32014(13) 0.40768(9)
O2 O 0.32599(17) 0.20903(15) 0.37240(10)
O3 O 0.58066(19) 0.42002(15) 0.60097(11)
H1 H 0.688(3) 0.431(3) 0.6070(17)
H2 H 0.531(3) 0.434(3) 0.6484(18)
O4 O 0.24897(16) 0.42061(14) 0.50616(10)
H3 H 0.264(3) 0.350(3) 0.4615(17)
H4 H 0.236(3) 0.397(2) 0.5583(17)
O5 O -0.07894(16) 0.44479(14) 0.61196(9)
O6 O 0.16155(17) 0.36321(15) 0.65437(10)
O7 O -0.08421(19) 0.31078(15) 0.42232(11)
H5 H -0.046(3) 0.275(3) 0.3724(19)
H6 H -0.180(4) 0.312(3) 0.4158(18)
C1 C 0.4820(2) 0.22122(19) 0.36078(13)
C2 C 0.5688(2) 0.1134(2) 0.28614(14)
C3 C 0.6624(2) 0.0070(2) 0.30707(14)
C4 C 0.7472(3) -0.0882(2) 0.23699(15)
H11 H 0.8101 -0.1613 0.2501
C5 C 0.7416(3) -0.0781(2) 0.14894(15)
C6 C 0.6442(3) 0.0265(2) 0.12998(15)
H12 H 0.6377 0.0326 0.0696
C7 C 0.5556(3) 0.1228(2) 0.19744(14)
C8 C 0.6752(3) -0.0055(2) 0.40243(15)
H13 H 0.6788 -0.1045 0.401
H14 H 0.5759 0.0379 0.4368
H15 H 0.779 0.042 0.4313
C9 C 0.8396(3) -0.1785(3) 0.07469(17)
H16 H 0.9429 -0.132 0.0617
H17 H 0.7686 -0.2076 0.0201
H18 H 0.8706 -0.2608 0.0943
C10 C 0.4497(3) 0.2337(2) 0.17431(16)
H19 H 0.4555 0.2231 0.1092
H20 H 0.4934 0.3264 0.2074
H21 H 0.3313 0.2237 0.1913
C11 C 0.0074(2) 0.39295(19) 0.66453(13)
C12 C -0.0854(2) 0.3663(2) 0.74374(13)
C13 C -0.1795(2) 0.2415(2) 0.73091(14)
C14 C -0.2666(3) 0.2196(2) 0.80462(14)
H22 H -0.3298 0.1352 0.797
C15 C -0.2637(3) 0.3176(2) 0.88893(15)
C16 C -0.1686(3) 0.4401(2) 0.89895(14)
H23 H -0.1656 0.5079 0.9562
C17 C -0.0780(2) 0.4663(2) 0.82781(14)
C18 C -0.1871(3) 0.1352(2) 0.63952(15)
H24 H -0.2509 0.0524 0.6441
H25 H -0.0714 0.1083 0.619
H26 H -0.2438 0.1759 0.5961
C19 C -0.3600(3) 0.2925(3) 0.96773(16)
H27 H -0.4649 0.2399 0.9457
H28 H -0.3882 0.3824 1.0102
H29 H -0.2893 0.2387 0.9984
C20 C 0.0250(3) 0.5987(2) 0.84109(15)
H30 H 0.1455 0.5756 0.8313
H31 H 0.0096 0.6582 0.9028
H32 H -0.0131 0.6484 0.7979
Ni2_2 Ni 1.00000 0.50000 0.50000
O1A O 0.42509(16) 0.67986(13) 0.59232(9)
O2A O 0.67401(17) 0.79097(15) 0.62760(10)
O3A O 0.41934(19) 0.57998(15) 0.39903(11)
H1A H 0.312(3) 0.569(3) 0.3930(17)
H2A H 0.469(3) 0.566(3) 0.3516(18)
O4A O 0.75103(16) 0.57939(14) 0.49384(10)
O4A_2 O -0.24897(16) 0.57939(14) 0.49384(10)
H3A H 0.736(3) 0.650(3) 0.5385(17)
H3A_2 H -0.264(3) 0.650(3) 0.5385(17)
H4A H 0.764(3) 0.603(2) 0.4417(17)
H4A_2 H -0.236(3) 0.603(2) 0.4417(17)
O5A O 0.07894(16) 0.55521(14) 0.38804(9)
O6A O -0.16155(17) 0.63679(15) 0.34563(10)
O7A O 0.08421(19) 0.68922(15) 0.57768(11)
H5A H 0.046(3) 0.725(3) 0.6276(19)
H6A H 0.180(4) 0.688(3) 0.5842(18)
C1A C 0.5180(2) 0.77878(19) 0.63922(13)
C2A C 0.4312(2) 0.8866(2) 0.71386(14)
C3A C 0.3376(2) 0.9930(2) 0.69293(14)
C4A C 0.2528(3) 1.0882(2) 0.76301(15)
H11A H 0.1899 1.1613 0.7499
C5A C 0.2584(3) 1.0781(2) 0.85106(15)
C6A C 0.3558(3) 0.9735(2) 0.87002(15)
H12A H 0.3623 0.9674 0.9304
C7A C 0.4444(3) 0.8772(2) 0.80256(14)
C8A C 0.3248(3) 1.0055(2) 0.59757(15)
H13A H 0.3212 1.1045 0.599
H14A H 0.4241 0.9621 0.5632
H15A H 0.221 0.958 0.5687
C9A C 0.1604(3) 1.1785(3) 0.92531(17)
H16A H 0.0571 1.132 0.9383
H17A H 0.2314 1.2076 0.9799
H18A H 0.1294 1.2608 0.9057
C10A C 0.5503(3) 0.7663(2) 0.82569(16)
H19A H 0.5445 0.7769 0.8908
H20A H 0.5066 0.6736 0.7926
H21A H 0.6687 0.7763 0.8087
C11A C -0.0074(2) 0.60705(19) 0.33547(13)
C12A C 0.0854(2) 0.6337(2) 0.25626(13)
C13A C 0.1795(2) 0.7585(2) 0.26909(14)
C14A C 0.2666(3) 0.7804(2) 0.19538(14)
H22A H 0.3298 0.8648 0.203
C15A C 0.2637(3) 0.6824(2) 0.11107(15)
C16A C 0.1686(3) 0.5599(2) 0.10105(14)
H23A H 0.1656 0.4921 0.0438
C17A C 0.0780(2) 0.5337(2) 0.17219(14)
C18A C 0.1871(3) 0.8648(2) 0.36048(15)
H24A H 0.2509 0.9476 0.3559
H25A H 0.0714 0.8917 0.381
H26A H 0.2438 0.8241 0.4039
C19A C 0.3600(3) 0.7075(3) 0.03227(16)
H27A H 0.4649 0.7601 0.0543
H28A H 0.3882 0.6176 -0.0102
H29A H 0.2893 0.7613 0.0016
C20A C -0.0250(3) 0.4013(2) 0.15891(15)
H30A H -0.1455 0.4244 0.1687
H31A H -0.0096 0.3418 0.0972
H32A H 0.0131 0.3516 0.2021
O8 O 0.4360(2) 0.42558(18) 0.76495(11)
H7 H 0.3274 0.3902 0.7416
H8 H 0.4889 0.3544 0.7854
O9 O 0.0503(2) 0.14925(17) 0.26343(12)
H9 H 0.1572 0.1326 0.2874
H10 H -0.0127 0.0639 0.2469
loop_
_geom_bond_atom_site_label_1
_geom_bond_atom_site_label_2
_geom_bond_site_symmetry_1
_geom_bond_site_symmetry_2
Ni1 O1 1_555 1_555
Ni2 O4 1_555 1_555
O1 C1 1_555 1_555
O2 C1 1_555 1_555
O3 Ni1 1_555 1_555
H1 O3 1_555 1_555
H2 O3 1_555 1_555
O4 Ni1 1_555 1_555
H3 O4 1_555 1_555
H4 O4 1_555 1_555
O5 Ni2 1_555 1_555
O6 C11 1_555 1_555
O7 Ni2 1_555 1_555
H5 O7 1_555 1_555
H6 O7 1_555 1_555
O8 H7 1_555 1_555
H8 O8 1_555 1_555
O9 H9 1_555 1_555
H10 O9 1_555 1_555
C1 C2 1_555 1_555
C2 C3 1_555 1_555
C3 C4 1_555 1_555
C4 H11 1_555 1_555
C5 C4 1_555 1_555
C6 C5 1_555 1_555
H12 C6 1_555 1_555
C7 C2 1_555 1_555
C8 C3 1_555 1_555
H13 C8 1_555 1_555
H14 C8 1_555 1_555
H15 C8 1_555 1_555
C9 C5 1_555 1_555
H16 C9 1_555 1_555
H17 C9 1_555 1_555
H18 C9 1_555 1_555
C10 C7 1_555 1_555
H19 C10 1_555 1_555
H20 C10 1_555 1_555
H21 C10 1_555 1_555
C11 O5 1_555 1_555
C12 C11 1_555 1_555
C13 C12 1_555 1_555
C14 C13 1_555 1_555
H22 C14 1_555 1_555
C15 C14 1_555 1_555
C16 C15 1_555 1_555
H23 C16 1_555 1_555
C17 C12 1_555 1_555
C18 C13 1_555 1_555
H24 C18 1_555 1_555
H25 C18 1_555 1_555
H26 C18 1_555 1_555
C19 C15 1_555 1_555
H27 C19 1_555 1_555
H28 C19 1_555 1_555
H29 C19 1_555 1_555
C20 C17 1_555 1_555
H30 C20 1_555 1_555
H31 C20 1_555 1_555
H32 C20 1_555 1_555
Ni2_2 O4A 1_555 1_555
O1A Ni1 1_555 1_555
O2A C1A 1_555 1_555
O3A Ni1 1_555 1_555
H1A O3A 1_555 1_555
H2A O3A 1_555 1_555
O4A Ni1 1_555 1_555
O4A_2 Ni2 1_555 1_555
H3A O4A 1_555 1_555
H3A_2 O4A_2 1_555 1_555
H4A O4A 1_555 1_555
H4A_2 O4A_2 1_555 1_555
O5A Ni2 1_555 1_555
O6A C11A 1_555 1_555
O7A Ni2 1_555 1_555
H5A O7A 1_555 1_555
H6A O7A 1_555 1_555
C1A O1A 1_555 1_555
C2A C1A 1_555 1_555
C3A C2A 1_555 1_555
C4A C3A 1_555 1_555
H11A C4A 1_555 1_555
C5A C4A 1_555 1_555
C6A C5A 1_555 1_555
H12A C6A 1_555 1_555
C7A C2A 1_555 1_555
C8A C3A 1_555 1_555
H13A C8A 1_555 1_555
H14A C8A 1_555 1_555
H15A C8A 1_555 1_555
C9A C5A 1_555 1_555
H16A C9A 1_555 1_555
H17A C9A 1_555 1_555
H18A C9A 1_555 1_555
C10A C7A 1_555 1_555
H19A C10A 1_555 1_555
H20A C10A 1_555 1_555
H21A C10A 1_555 1_555
C11A O5A 1_555 1_555
C12A C11A 1_555 1_555
C13A C12A 1_555 1_555
C14A C13A 1_555 1_555
H22A C14A 1_555 1_555
C15A C14A 1_555 1_555
C16A C15A 1_555 1_555
H23A C16A 1_555 1_555
C17A C12A 1_555 1_555
C18A C13A 1_555 1_555
H24A C18A 1_555 1_555
H25A C18A 1_555 1_555
H26A C18A 1_555 1_555
C19A C15A 1_555 1_555
H27A C19A 1_555 1_555
H28A C19A 1_555 1_555
H29A C19A 1_555 1_555
C20A C17A 1_555 1_555
H30A C20A 1_555 1_555
H31A C20A 1_555 1_555
H32A C20A 1_555 1_555
C6 C7 1_555 1_555
C16 C17 1_555 1_555
C6A C7A 1_555 1_555
C16A C17A 1_555 1_555

#END
