
#######################################################################
#
#                 Cambridge Crystallographic Data Centre
#                                CCDC 
#
#######################################################################
#
# If this CIF has been generated from an entry in the Cambridge 
# Structural Database, then it will include bibliographic, chemical, 
# crystal, experimental, refinement or atomic coordinate data resulting 
# from the CCDC's data processing and validation procedures.
#
#######################################################################

data_KULTUH
_symmetry_cell_setting           monoclinic
_symmetry_space_group_name_H-M   'P 21/c'
_symmetry_Int_Tables_number      14
_space_group_name_Hall           '-P 2ybc'
loop_
_symmetry_equiv_pos_site_id
_symmetry_equiv_pos_as_xyz
1 x,y,z
2 -x,1/2+y,1/2-z
3 -x,-y,-z
4 x,1/2-y,1/2+z
_cell_length_a                   10.701(2)
_cell_length_b                   16.364(3)
_cell_length_c                   14.065(3)
_cell_angle_alpha                90
_cell_angle_beta                 106.45(3)
_cell_angle_gamma                90
_cell_volume                     2362.12
loop_
_atom_site_label
_atom_site_type_symbol
_atom_site_fract_x
_atom_site_fract_y
_atom_site_fract_z
Ag1 Ag 0.744318(12) 0.151611(9) 0.987290(11)
N1 N 0.75744(14) -0.29260(10) 1.02618(11)
N2 N 0.92689(14) 0.19578(9) 1.09360(11)
N3 N 1.56534(14) 0.31278(9) 1.37298(11)
C1 C 0.74523(15) -0.02825(12) 0.99651(13)
C2 C 0.74929(15) -0.11998(12) 1.00769(12)
C3 C 0.86430(18) -0.15954(10) 1.06151(13)
C4 C 0.98279(17) -0.11683(11) 1.10854(13)
H1 H 0.9849 -0.0601 1.1048
C5 C 1.09234(19) -0.15803(11) 1.15865(14)
H2 H 1.1680 -0.1293 1.1893
C6 C 1.09118(19) -0.24477(12) 1.16413(14)
H3 H 1.1665 -0.2723 1.1984
C7 C 0.98132(18) -0.28809(12) 1.11995(14)
H4 H 0.9827 -0.3448 1.1236
C8 C 0.86385(17) -0.24693(11) 1.06792(13)
C9 C 0.64713(17) -0.25427(11) 0.97555(13)
C10 C 0.53499(19) -0.30317(12) 0.93084(14)
H5 H 0.5399 -0.3597 0.9373
C11 C 0.42097(18) -0.26748(13) 0.87892(14)
H6 H 0.3490 -0.3000 0.8497
C12 C 0.41104(18) -0.18120(13) 0.86904(14)
H7 H 0.3323 -0.1576 0.8343
C13 C 0.51596(18) -0.13263(12) 0.91010(13)
H8 H 0.5081 -0.0762 0.9029
C14 C 0.63780(18) -0.16745(11) 0.96406(13)
C15 C 1.01523(17) 0.14049(11) 1.14160(13)
H9 H 0.9909 0.0858 1.1380
C16 C 1.14080(18) 0.16084(11) 1.19619(14)
H10 H 1.1983 0.1204 1.2286
C17 C 1.18040(16) 0.24228(10) 1.20213(12)
C18 C 1.31378(16) 0.26704(10) 1.25948(12)
C19 C 1.41092(16) 0.20900(11) 1.29785(13)
H11 H 1.3934 0.1537 1.2861
C20 C 1.53306(17) 0.23424(11) 1.35336(13)
H12 H 1.5961 0.1946 1.3784
C21 C 1.47269(17) 0.36905(11) 1.33459(14)
H13 H 1.4935 0.4240 1.3462
C22 C 1.34783(18) 0.34848(10) 1.27861(14)
H14 H 1.2868 0.3893 1.2539
C23 C 1.08833(17) 0.29973(11) 1.15236(14)
H15 H 1.1099 0.3549 1.1544
C24 C 0.96448(17) 0.27385(11) 1.09989(14)
H16 H 0.9045 0.3130 1.0674
O1 O 0.75494(14) 0.01385(8) 1.07300(11)
O3 O 0.73432(14) 0.00089(8) 0.91235(11)
Ag1C Ag 1.744318(12) 0.348389(9) 1.487290(11)
N3C N 0.56534(14) 0.18722(9) 0.87298(11)
O2 O 0.2577(2) 0.03847(11) 0.44459(14)
H18 H 0.1751(10) 0.0314(11) 0.4228(14)
H24 H 0.284(8) 0.053(6) 0.395(4)
O4 O 0.3550(2) -0.00908(12) 0.29528(14)
H20 H 0.320(3) -0.010(2) 0.2329(9)
H22 H 0.4336(12) 0.0077(13) 0.3103(18)
O5 O 0.7989(2) 0.04247(12) 1.27235(15)
H17 H 0.8744(12) 0.0142(10) 1.2897(14)
H23 H 0.797(4) 0.022(2) 1.2155(15)
O6 O 0.6114(2) 0.03381(12) 0.37250(15)
H19 H 0.6755(13) 0.0417(11) 0.3522(13)
H21 H 0.652(3) 0.0148(18) 0.4278(12)
O7 O 0.9956(3) -0.01038(19) 1.4365(3)
H26 H 1.060(7) 0.023(6) 1.446(9)
O8? O 1.0469(4) -0.0265(3) 1.3612(4)
H25? H 1.0000 0.0000 1.5000
loop_
_geom_bond_atom_site_label_1
_geom_bond_atom_site_label_2
_geom_bond_site_symmetry_1
_geom_bond_site_symmetry_2
Ag1 N2 1_555 1_555
N1 C8 1_555 1_555
N2 C15 1_555 1_555
N3 C20 1_555 1_555
C1 C2 1_555 1_555
C2 C3 1_555 1_555
C3 C4 1_555 1_555
C4 H1 1_555 1_555
C5 C4 1_555 1_555
H2 C5 1_555 1_555
C6 C5 1_555 1_555
H3 C6 1_555 1_555
C7 C6 1_555 1_555
H4 C7 1_555 1_555
C8 C3 1_555 1_555
C9 N1 1_555 1_555
C10 C9 1_555 1_555
H5 C10 1_555 1_555
C11 C10 1_555 1_555
H6 C11 1_555 1_555
C12 C11 1_555 1_555
H7 C12 1_555 1_555
C13 C12 1_555 1_555
H8 C13 1_555 1_555
C14 C2 1_555 1_555
C15 H9 1_555 1_555
C16 C15 1_555 1_555
H10 C16 1_555 1_555
C17 C16 1_555 1_555
C18 C17 1_555 1_555
C19 C18 1_555 1_555
H11 C19 1_555 1_555
C20 C19 1_555 1_555
H12 C20 1_555 1_555
C21 N3 1_555 1_555
H13 C21 1_555 1_555
C22 C18 1_555 1_555
H14 C22 1_555 1_555
C23 C17 1_555 1_555
H15 C23 1_555 1_555
C24 N2 1_555 1_555
H16 C24 1_555 1_555
O1 Ag1 1_555 1_555
O2 H18 1_555 1_555
O3 Ag1 1_555 1_555
O4 H20 1_555 1_555
O5 H17 1_555 1_555
O6 H19 1_555 1_555
O7 H26 1_555 1_555
H21 O6 1_555 1_555
H22 O4 1_555 1_555
H23 O5 1_555 1_555
H24 O2 1_555 1_555
Ag1C N3 1_555 1_555
N3C Ag1 1_555 1_555
C1 O1 1_555 1_555
C1 O3 1_555 1_555
C7 C8 1_555 1_555
C9 C14 1_555 1_555
C13 C14 1_555 1_555
C21 C22 1_555 1_555
C23 C24 1_555 1_555

#END
