
#######################################################################
#
#                 Cambridge Crystallographic Data Centre
#                                CCDC 
#
#######################################################################
#
# If this CIF has been generated from an entry in the Cambridge 
# Structural Database, then it will include bibliographic, chemical, 
# crystal, experimental, refinement or atomic coordinate data resulting 
# from the CCDC's data processing and validation procedures.
#
#######################################################################

data_KULVAP
_symmetry_cell_setting           monoclinic
_symmetry_space_group_name_H-M   'P 21/c'
_symmetry_Int_Tables_number      14
_space_group_name_Hall           '-P 2ybc'
loop_
_symmetry_equiv_pos_site_id
_symmetry_equiv_pos_as_xyz
1 x,y,z
2 -x,1/2+y,1/2-z
3 -x,-y,-z
4 x,1/2-y,1/2+z
_cell_length_a                   8.6148(17)
_cell_length_b                   16.501(3)
_cell_length_c                   12.305(3)
_cell_angle_alpha                90
_cell_angle_beta                 104.64(3)
_cell_angle_gamma                90
_cell_volume                     1692.4
loop_
_atom_site_label
_atom_site_type_symbol
_atom_site_fract_x
_atom_site_fract_y
_atom_site_fract_z
Eu1 Eu 0.089194(19) 0.462554(10) 0.653561(13)
C1 C 0.3346(6) 0.5781(3) 0.8634(4)
H1 H 0.3573 0.6001 0.7995
C2 C 0.4052(7) 0.6131(4) 0.9680(6)
H2 H 0.4738 0.6573 0.9737
C3 C 0.3708(9) 0.5807(6) 1.0615(6)
H3 H 0.4147 0.6031 1.1319
C4 C 0.2714(8) 0.5152(5) 1.0504(4)
H4 H 0.2485 0.4929 1.1141
C5 C 0.2033(6) 0.4809(3) 0.9456(3)
C6 C 0.0979(6) 0.4102(3) 0.9288(4)
C7 C 0.0730(7) 0.3631(5) 1.0189(4)
H5 H 0.1226 0.3776 1.0925
C8 C -0.0234(9) 0.2970(5) 0.9981(7)
H6 H -0.0392 0.2652 1.0568
C9 C -0.0956(8) 0.2781(4) 0.8909(7)
H7 H -0.1633 0.2335 0.8743
C10 C -0.0675(8) 0.3261(3) 0.8055(5)
H8 H -0.1172 0.3121 0.7317
C11 C -0.7391(4) 0.6032(2) 0.5211(3)
C12 C -0.5860(4) 0.6515(3) 0.5319(4)
H9 H -0.5852 0.6737 0.4591
H10 H -0.5847 0.6964 0.5829
C13 C -0.1457(4) 0.5917(2) 0.6176(3)
C14 C -0.2812(4) 0.6504(2) 0.6000(3)
H11 H -0.2793 0.6863 0.5380
H12 H -0.2718 0.6829 0.6670
C15 C -0.4399(4) 0.6018(2) 0.5739(4)
H13 H -0.4357 0.5608 0.5182
H14 H -0.4483 0.5741 0.6417
O1 O -0.0999(3) 0.56598(15) 0.53284(19)
O2 O -0.8421(3) 0.60291(16) 0.4283(2)
O3 O -0.7534(3) 0.56682(16) 0.6077(2)
O4 O -0.0820(3) 0.56370(18) 0.7128(2)
O5 O 0.1853(4) 0.31580(18) 0.6706(3)
O6 O 0.3697(3) 0.40614(18) 0.6945(2)
O7 O 0.4355(4) 0.2790(2) 0.7067(3)
N1 N 0.2362(4) 0.5145(2) 0.8518(3)
N2 N 0.0261(5) 0.3909(2) 0.8233(3)
N3 N 0.3323(4) 0.3319(2) 0.6917(3)
Eu1B Eu -0.089194(19) 0.537446(10) 0.346439(13)
Eu1B_2 Eu -1.089194(19) 0.537446(10) 0.346439(13)
Eu1_2 Eu -0.910806(19) 0.462554(10) 0.653561(13)
O1B O 0.0999(3) 0.43402(15) 0.46716(19)
O2B O -0.1579(3) 0.39709(16) 0.5717(2)
O3_2 O 0.2466(3) 0.56682(16) 0.6077(2)
loop_
_geom_bond_atom_site_label_1
_geom_bond_atom_site_label_2
_geom_bond_site_symmetry_1
_geom_bond_site_symmetry_2
Eu1 O1 1_555 1_555
C1 H1 1_555 1_555
C2 C1 1_555 1_555
H2 C2 1_555 1_555
C3 C2 1_555 1_555
H3 C3 1_555 1_555
C4 C3 1_555 1_555
H4 C4 1_555 1_555
C5 C4 1_555 1_555
C6 C5 1_555 1_555
C7 C6 1_555 1_555
H5 C7 1_555 1_555
C8 C7 1_555 1_555
H6 C8 1_555 1_555
C9 C8 1_555 1_555
H7 C9 1_555 1_555
C10 C9 1_555 1_555
H8 C10 1_555 1_555
C11 C12 1_555 1_555
C12 H9 1_555 1_555
H10 C12 1_555 1_555
C13 C14 1_555 1_555
C14 H11 1_555 1_555
H12 C14 1_555 1_555
C15 C12 1_555 1_555
H13 C15 1_555 1_555
H14 C15 1_555 1_555
O1 C13 1_555 1_555
O2 C11 1_555 1_555
O3 C11 1_555 1_555
O4 Eu1 1_555 1_555
O5 Eu1 1_555 1_555
O6 Eu1 1_555 1_555
O7 N3 1_555 1_555
N1 Eu1 1_555 1_555
N2 Eu1 1_555 1_555
N3 O5 1_555 1_555
Eu1B O1 1_555 1_555
Eu1B_2 O2 1_555 1_555
Eu1_2 O3 1_555 1_555
O1B Eu1 1_555 1_555
O2B Eu1 1_555 1_555
O3_2 Eu1 1_555 1_555
C1 N1 1_555 1_555
C5 N1 1_555 1_555
C6 N2 1_555 1_555
C10 N2 1_555 1_555
C13 O4 1_555 1_555
C14 C15 1_555 1_555
O6 N3 1_555 1_555
Eu1B O1B 1_555 1_555

#END
