
#######################################################################
#
#                 Cambridge Crystallographic Data Centre
#                                CCDC 
#
#######################################################################
#
# If this CIF has been generated from an entry in the Cambridge 
# Structural Database, then it will include bibliographic, chemical, 
# crystal, experimental, refinement or atomic coordinate data resulting 
# from the CCDC's data processing and validation procedures.
#
#######################################################################

data_KULVET
_symmetry_cell_setting           monoclinic
_symmetry_space_group_name_H-M   'P 21/c'
_symmetry_Int_Tables_number      14
_space_group_name_Hall           '-P 2ybc'
loop_
_symmetry_equiv_pos_site_id
_symmetry_equiv_pos_as_xyz
1 x,y,z
2 -x,1/2+y,1/2-z
3 -x,-y,-z
4 x,1/2-y,1/2+z
_cell_length_a                   8.5778(9)
_cell_length_b                   16.4921(17)
_cell_length_c                   12.2572(13)
_cell_angle_alpha                90
_cell_angle_beta                 104.5790(10)
_cell_angle_gamma                90
_cell_volume                     1678.14
loop_
_atom_site_label
_atom_site_type_symbol
_atom_site_fract_x
_atom_site_fract_y
_atom_site_fract_z
Tb1 Tb 0.41115(2) 0.036885(12) 0.346722(16)
C1 C 0.1664(6) -0.0789(4) 0.1388(5)
H1 H 0.1453 -0.1010 0.2034
C2 C 0.0933(7) -0.1145(5) 0.0347(7)
H2 H 0.0242 -0.1586 0.0297
C3 C 0.1274(9) -0.0818(6) -0.0601(7)
H3 H 0.0829 -0.1042 -0.1307
C4 C 0.2276(9) -0.0161(5) -0.0494(5)
H4 H 0.2506 0.0066 -0.1130
C5 C 0.2944(7) 0.0167(4) 0.0558(4)
C6 C 0.4009(7) 0.0883(4) 0.0716(5)
C7 C 0.4230(9) 0.1342(5) -0.0187(5)
H5 H 0.3715 0.1196 -0.0923
C8 C 0.5204(10) 0.2004(6) 0.0017(8)
H6 H 0.5367 0.2311 -0.0581
C9 C 0.5934(10) 0.2216(4) 0.1088(8)
H7 H 0.6592 0.2671 0.1242
C10 C 0.5671(9) 0.1736(4) 0.1945(6)
H8 H 0.6180 0.1877 0.2683
C11 C 1.2403(5) -0.1024(3) 0.4796(4)
C12 C 1.0872(5) -0.1507(3) 0.4687(4)
H9 H 1.0863 -0.1957 0.4176
H10 H 1.0862 -0.1729 0.5418
C13 C 0.6459(4) -0.0909(3) 0.3834(3)
C14 C 0.7816(4) -0.1498(3) 0.3999(4)
H11 H 0.7718 -0.1819 0.3322
H12 H 0.7796 -0.1862 0.4617
C15 C 0.9409(5) -0.1017(3) 0.4265(5)
H13 H 0.9496 -0.0739 0.3585
H14 H 0.9364 -0.0607 0.4823
O1 O 0.5999(3) -0.06524(18) 0.4683(2)
O2 O 1.3431(3) -0.10180(19) 0.5731(2)
O3 O 1.2547(3) -0.06602(19) 0.3919(3)
O4 O 0.5818(4) -0.0623(2) 0.2881(2)
O5 O 0.1323(4) 0.0920(2) 0.3047(3)
O6 O 0.3172(4) 0.1828(2) 0.3309(3)
O7 O 0.0673(5) 0.2198(2) 0.2935(3)
N1 N 0.2637(5) -0.0156(3) 0.1502(3)
N2 N 0.4725(6) 0.1078(3) 0.1775(3)
N3 N 0.1697(5) 0.1666(3) 0.3089(3)
Tb1B Tb 0.58885(2) -0.036885(12) 0.653278(16)
Tb1_2 Tb 1.41115(2) 0.036885(12) 0.346722(16)
Tb1B_2 Tb 1.58885(2) -0.036885(12) 0.653278(16)
O1B O 0.4001(3) 0.06524(18) 0.5317(2)
O2B O 0.6569(3) 0.10180(19) 0.4269(2)
O3_2 O 0.2547(3) -0.06602(19) 0.3919(3)
loop_
_geom_bond_atom_site_label_1
_geom_bond_atom_site_label_2
_geom_bond_site_symmetry_1
_geom_bond_site_symmetry_2
Tb1 O1 1_555 1_555
C1 H1 1_555 1_555
C2 C1 1_555 1_555
H2 C2 1_555 1_555
C3 C2 1_555 1_555
H3 C3 1_555 1_555
C4 C3 1_555 1_555
H4 C4 1_555 1_555
C5 C4 1_555 1_555
C6 C5 1_555 1_555
C7 C6 1_555 1_555
H5 C7 1_555 1_555
C8 C7 1_555 1_555
H6 C8 1_555 1_555
C9 C8 1_555 1_555
H7 C9 1_555 1_555
C10 C9 1_555 1_555
H8 C10 1_555 1_555
C11 C12 1_555 1_555
C12 H9 1_555 1_555
H10 C12 1_555 1_555
C13 C14 1_555 1_555
C14 H11 1_555 1_555
H12 C14 1_555 1_555
C15 C12 1_555 1_555
H13 C15 1_555 1_555
H14 C15 1_555 1_555
O1 C13 1_555 1_555
O2 C11 1_555 1_555
O3 C11 1_555 1_555
O4 Tb1 1_555 1_555
O5 Tb1 1_555 1_555
O6 Tb1 1_555 1_555
O7 N3 1_555 1_555
N1 Tb1 1_555 1_555
N2 Tb1 1_555 1_555
N3 O5 1_555 1_555
Tb1B O1 1_555 1_555
Tb1_2 O3 1_555 1_555
Tb1B_2 O2 1_555 1_555
O1B Tb1 1_555 1_555
O2B Tb1 1_555 1_555
O3_2 Tb1 1_555 1_555
C1 N1 1_555 1_555
C5 N1 1_555 1_555
C6 N2 1_555 1_555
C10 N2 1_555 1_555
C13 O4 1_555 1_555
C14 C15 1_555 1_555
O6 N3 1_555 1_555
Tb1B O1B 1_555 1_555

#END
