
#######################################################################
#
#                 Cambridge Crystallographic Data Centre
#                                CCDC 
#
#######################################################################
#
# If this CIF has been generated from an entry in the Cambridge 
# Structural Database, then it will include bibliographic, chemical, 
# crystal, experimental, refinement or atomic coordinate data resulting 
# from the CCDC's data processing and validation procedures.
#
#######################################################################

data_KULWAR
_symmetry_cell_setting           monoclinic
_symmetry_space_group_name_H-M   'P 21/c'
_symmetry_Int_Tables_number      14
_space_group_name_Hall           '-P 2ybc'
loop_
_symmetry_equiv_pos_site_id
_symmetry_equiv_pos_as_xyz
1 x,y,z
2 -x,1/2+y,1/2-z
3 -x,-y,-z
4 x,1/2-y,1/2+z
_cell_length_a                   11.801(3)
_cell_length_b                   33.733(10)
_cell_length_c                   25.650(8)
_cell_angle_alpha                90
_cell_angle_beta                 99.893(6)
_cell_angle_gamma                90
_cell_volume                     10059
loop_
_atom_site_label
_atom_site_type_symbol
_atom_site_fract_x
_atom_site_fract_y
_atom_site_fract_z
C1 C -0.1153(10) 0.4184(3) 0.3527(4)
C2 C -0.1943(8) 0.3994(3) 0.3855(4)
C3 C -0.3085(9) 0.3885(3) 0.3630(4)
H1 H -0.3325 0.3927 0.3270
C4 C -0.3847(10) 0.3723(3) 0.3909(4)
H2 H -0.4592 0.3655 0.3753
C5 C -0.3444(10) 0.3667(3) 0.4432(5)
C6 C -0.2326(13) 0.3768(3) 0.4670(4)
H3 H -0.2094 0.3725 0.5031
C7 C -0.1560(9) 0.3928(3) 0.4380(4)
H4 H -0.0810 0.3989 0.4536
C8 C -0.5326(13) 0.3536(4) 0.4655(5)
C9 C -0.5819(12) 0.3904(5) 0.4556(5)
C10 C -0.7090(10) 0.3930(4) 0.4460(4)
H5 H -0.7477 0.4169 0.4381
C11 C -0.7646(14) 0.3587(4) 0.4493(5)
H6 H -0.8443 0.3607 0.4450
C12 C -0.7215(11) 0.3204(4) 0.4584(5)
C13 C -0.6073(11) 0.3214(4) 0.4665(5)
H7 H -0.5713 0.2970 0.4741
C14 C -0.7993(11) 0.2887(4) 0.4603(5)
C15 C -0.8761(13) 0.2847(6) 0.4073(5)
H8 H -0.9290 0.2632 0.4084
H9 H -0.9183 0.3089 0.3990
H10 H -0.8301 0.2794 0.3806
C16 C -0.8756(14) 0.2933(5) 0.5009(6)
H11 H -0.9254 0.2707 0.4996
H12 H -0.8293 0.2952 0.5354
H13 H -0.9210 0.3169 0.4936
C17 C -0.7340(17) 0.2502(5) 0.4707(9)
H14 H -0.7873 0.2289 0.4720
H15 H -0.6908 0.2454 0.4429
H16 H -0.6824 0.2519 0.5039
C18 C 0.1857(10) 0.3856(3) 0.2719(5)
C19 C 0.2613(7) 0.3502(2) 0.2768(3)
C20 C 0.2790(8) 0.3305(3) 0.2312(3)
H17 H 0.2445 0.3398 0.1982
C21 C 0.3483(8) 0.2970(2) 0.2351(3)
H18 H 0.3601 0.2838 0.2047
C22 C 0.3999(7) 0.2831(2) 0.2846(4)
C23 C 0.3822(6) 0.3028(2) 0.3301(3)
H19 H 0.4167 0.2935 0.3632
C24 C 0.3129(6) 0.3363(2) 0.3262(3)
H20 H 0.3010 0.3495 0.3567
C25 C 0.2209(9) 0.5024(4) 0.1817(4)
C26 C 0.3021(10) 0.5123(3) 0.1450(4)
C27 C 0.4004(11) 0.5341(4) 0.1624(5)
H21 H 0.4118 0.5448 0.1964
C28 C 0.4866(13) 0.5408(5) 0.1290(5)
H22 H 0.5569 0.5530 0.1408
C29 C 0.4538(12) 0.5272(5) 0.0786(5)
C30 C 0.3589(11) 0.5060(4) 0.0620(5)
H23 H 0.3427 0.4971 0.0272
C31 C 0.2868(10) 0.4975(3) 0.0958(4)
H24 H 0.2244 0.4809 0.0847
C32 C 0.7343(9) 0.5467(2) 0.0634(3)
H25 H 0.7568 0.5212 0.0746
C33 C 0.6182(7) 0.5563(3) 0.0514(3)
C34 C 0.5847(6) 0.5944(4) 0.0348(3)
C35 C 0.6673(9) 0.6229(3) 0.0302(3)
H26 H 0.6449 0.6484 0.0191
C36 C 0.7834(8) 0.6134(3) 0.0423(3)
H27 H 0.8387 0.6325 0.0392
C37 C 0.8170(5) 0.5753(3) 0.0589(3)
C38 C 0.1524(8) 0.1062(2) 0.2816(3)
C39 C 0.0955(6) 0.1416(3) 0.2873(4)
H28 H 0.0157 0.1428 0.2787
C40 C 0.1577(9) 0.1751(2) 0.3061(5)
H29 H 0.1197 0.1988 0.3099
C41 C 0.2769(9) 0.1733(3) 0.3190(5)
C42 C 0.3339(6) 0.1379(3) 0.3132(5)
H30 H 0.4136 0.1367 0.3218
C43 C 0.2716(8) 0.1044(2) 0.2945(4)
H31 H 0.3097 0.0807 0.2906
C44 C 0.5092(15) 0.2334(3) 0.3355(4)
C45 C 0.6197(12) 0.2393(3) 0.3633(6)
H32 H 0.6708 0.2556 0.3494
C46 C 0.6540(7) 0.2210(3) 0.4120(6)
C47 C 0.5777(12) 0.1967(3) 0.4328(4)
H33 H 0.6007 0.1844 0.4654
C48 C 0.4672(9) 0.1907(3) 0.4050(6)
H34 H 0.4162 0.1745 0.4189
C49 C 0.4329(9) 0.2091(4) 0.3563(6)
C50 C 0.9469(14) 0.5666(5) 0.0663(6)
C51 C 1.0095(15) 0.5989(5) 0.0969(7)
H35 H 1.0003 0.6228 0.0764
H36 H 0.9795 0.6027 0.1290
H37 H 1.0897 0.5923 0.1053
C52 C 0.9744(11) 0.5628(6) 0.0116(5)
H38 H 0.9312 0.5413 -0.0065
H39 H 0.9546 0.5870 -0.0075
H40 H 1.0552 0.5578 0.0138
C53 C 0.957(2) 0.5279(5) 0.0956(8)
H41 H 0.9144 0.5079 0.0739
H42 H 1.0362 0.5203 0.1040
H43 H 0.9261 0.5308 0.1277
C54 C 0.1758(8) 0.5601(3) -0.1583(5)
C55 C 0.2610(10) 0.5732(3) -0.1114(5)
C56 C 0.2210(11) 0.5885(4) -0.0658(6)
H44 H 0.1422 0.5902 -0.0660
C57 C 0.2960(13) 0.6006(5) -0.0215(7)
H45 H 0.2704 0.6112 0.0079
C58 C 0.4138(13) 0.5961(4) -0.0235(8)
C59 C 0.4581(10) 0.5788(4) -0.0673(6)
H46 H 0.5366 0.5770 -0.0676
C60 C 0.3799(9) 0.5656(3) -0.1074(5)
H47 H 0.4047 0.5507 -0.1338
C61 C -0.2301(8) 0.4866(4) 0.6250(4)
C62 C -0.3133(8) 0.4688(3) 0.5801(4)
C63 C -0.3834(8) 0.4376(3) 0.5869(4)
H48 H -0.3802 0.4263 0.6202
C64 C -0.4594(9) 0.4230(3) 0.5438(5)
H49 H -0.5114 0.4030 0.5480
C65 C -0.4555(10) 0.4385(4) 0.4963(5)
C66 C -0.3899(9) 0.4682(3) 0.4876(4)
H50 H -0.3931 0.4780 0.4535
C67 C -0.3185(9) 0.4845(3) 0.5278(4)
H51 H -0.2725 0.5058 0.5219
C68 C 0.0891(9) 0.0688(3) 0.2648(4)
C69 C -0.1458(12) 0.5310(4) 0.3634(5)
H52 H -0.2178 0.5363 0.3435
C70 C -0.0312(17) 0.5282(6) 0.4434(6)
H53 H -0.0426 0.5005 0.4495
H54 H -0.0228 0.5423 0.4764
H55 H 0.0370 0.5316 0.4281
C71 C -0.2081(14) 0.5692(4) 0.4326(7)
H56 H -0.2147 0.5951 0.4168
H57 H -0.1752 0.5715 0.4694
H58 H -0.2830 0.5574 0.4292
C72 C -0.3833(10) 0.4682(3) 0.2671(4)
H59 H -0.3669 0.4453 0.2496
C73 C -0.5675(9) 0.4387(4) 0.2718(6)
H60 H -0.5421 0.4164 0.2941
H61 H -0.5738 0.4310 0.2353
H62 H -0.6413 0.4474 0.2784
C74 C -0.5105(10) 0.5030(4) 0.3151(6)
H63 H -0.4949 0.4954 0.3516
H64 H -0.5903 0.5099 0.3054
H65 H -0.4638 0.5254 0.3097
N1 N -0.4848(8) 0.4709(3) 0.2832(4)
N2 N -0.1338(13) 0.5443(4) 0.4058(5)
O1 O -0.0141(5) 0.42345(18) 0.3736(2)
O2 O -0.1575(6) 0.42856(19) 0.3065(3)
O3 O -0.4112(7) 0.3502(2) 0.4780(3)
O4 O 0.2090(5) 0.54325(19) -0.1957(3)
O5 O 0.0720(6) 0.5685(2) -0.1554(3)
O6 O 0.1456(6) 0.0385(2) 0.2690(3)
O7 O 0.2211(5) 0.5249(2) 0.2225(2)
O8 O 0.1574(6) 0.4732(2) 0.1699(3)
O9 O 0.5314(9) 0.5306(3) 0.0424(4)
O10 O -0.2143(5) 0.46565(19) 0.6652(3)
O11 O -0.1882(5) 0.5196(2) 0.6169(2)
O12 O -0.5289(6) 0.4244(2) 0.4511(3)
O13 O 0.1411(7) 0.3967(2) 0.2278(3)
O14 O 0.1815(5) 0.40402(17) 0.3131(2)
O15 O 0.4748(12) 0.2510(3) 0.2904(4)
O16 O 0.3255(12) 0.2080(3) 0.3365(9)
O17 O -0.3098(5) 0.4950(2) 0.2746(3)
O18 O -0.0865(6) 0.5122(2) 0.3401(3)
O19 O 0.0280(4) 0.47518(16) 0.2688(2)
O20 O 0.4751(8) 0.6058(4) 0.0245(5)
O21 O -0.0167(6) 0.07218(17) 0.2493(3)
Zn1 Zn -0.14239(8) 0.48391(3) 0.26477(4)
Zn2 Zn 0.08432(8) 0.44816(3) 0.33185(4)
Zn3 Zn 0.05593(9) 0.44540(3) 0.20858(4)
Zn4 Zn 0.10568(9) 0.52553(3) 0.26876(4)
C75 C 0.7640(19) 0.2281(5) 0.4488(9)
C76 C 0.844(2) 0.2028(6) 0.4234(10)
H66 H 0.9201 0.2045 0.4434
H67 H 0.8182 0.1757 0.4224
H68 H 0.8440 0.2119 0.3879
C77 C 0.8135(16) 0.2688(4) 0.4506(10)
H69 H 0.8840 0.2696 0.4757
H70 H 0.8287 0.2759 0.4162
H71 H 0.7598 0.2873 0.4611
C78 C 0.780(4) 0.2142(8) 0.5056(10)
H72 H 0.8554 0.2212 0.5235
H73 H 0.7233 0.2266 0.5231
H74 H 0.7707 0.1859 0.5064
O4B O -0.2090(5) 0.45675(19) 0.1957(3)
O5B O -0.0720(6) 0.4315(2) 0.1554(3)
O6A O -0.1456(6) 0.5385(2) 0.2310(3)
O10B O 0.2143(5) 0.53435(19) 0.3348(3)
O11B O 0.1882(5) 0.4804(2) 0.3831(2)
O21A O 0.0167(6) 0.57218(17) 0.2507(3)
Zn1A Zn 0.14239(8) -0.01609(3) 0.23523(4)
Zn1B Zn 0.14239(8) 0.51609(3) -0.26477(4)
Zn2B Zn -0.08432(8) 0.55184(3) 0.66815(4)
Zn3B Zn -0.05593(9) 0.55460(3) -0.20858(4)
Zn4A Zn -0.10568(9) 0.02553(3) 0.23124(4)
Zn4B Zn -0.10568(9) 0.47447(3) 0.73124(4)
O22 O 0.7683(16) 0.6328(6) 0.8948(5)
O23 O 0.3173(15) 0.6382(6) 0.2420(8)
loop_
_geom_bond_atom_site_label_1
_geom_bond_atom_site_label_2
_geom_bond_site_symmetry_1
_geom_bond_site_symmetry_2
C1 C2 1_555 1_555
C2 C3 1_555 1_555
C3 H1 1_555 1_555
C4 C3 1_555 1_555
H2 C4 1_555 1_555
C5 C4 1_555 1_555
C6 C5 1_555 1_555
H3 C6 1_555 1_555
C7 C2 1_555 1_555
H4 C7 1_555 1_555
C8 C9 1_555 1_555
C9 C10 1_555 1_555
C10 H5 1_555 1_555
C11 C10 1_555 1_555
H6 C11 1_555 1_555
C12 C11 1_555 1_555
C13 C8 1_555 1_555
H7 C13 1_555 1_555
C14 C12 1_555 1_555
C15 C14 1_555 1_555
H8 C15 1_555 1_555
H9 C15 1_555 1_555
H10 C15 1_555 1_555
C16 C14 1_555 1_555
H11 C16 1_555 1_555
H12 C16 1_555 1_555
H13 C16 1_555 1_555
C17 C14 1_555 1_555
H14 C17 1_555 1_555
H15 C17 1_555 1_555
H16 C17 1_555 1_555
C18 C19 1_555 1_555
C19 C20 1_555 1_555
C20 H17 1_555 1_555
C21 C20 1_555 1_555
H18 C21 1_555 1_555
C22 C21 1_555 1_555
C23 C22 1_555 1_555
H19 C23 1_555 1_555
C24 C19 1_555 1_555
H20 C24 1_555 1_555
C25 C26 1_555 1_555
C26 C27 1_555 1_555
C27 H21 1_555 1_555
C28 C27 1_555 1_555
H22 C28 1_555 1_555
C29 C28 1_555 1_555
C30 C29 1_555 1_555
H23 C30 1_555 1_555
C31 C26 1_555 1_555
H24 C31 1_555 1_555
C32 H25 1_555 1_555
C33 C32 1_555 1_555
C34 C33 1_555 1_555
C35 C34 1_555 1_555
H26 C35 1_555 1_555
C36 C35 1_555 1_555
H27 C36 1_555 1_555
C37 C32 1_555 1_555
C38 C39 1_555 1_555
C39 H28 1_555 1_555
C40 C39 1_555 1_555
H29 C40 1_555 1_555
C41 C40 1_555 1_555
C42 C41 1_555 1_555
H30 C42 1_555 1_555
C43 C38 1_555 1_555
H31 C43 1_555 1_555
C44 C45 1_555 1_555
C45 H32 1_555 1_555
C46 C45 1_555 1_555
C47 C46 1_555 1_555
H33 C47 1_555 1_555
C48 C47 1_555 1_555
H34 C48 1_555 1_555
C49 C44 1_555 1_555
C50 C37 1_555 1_555
C51 C50 1_555 1_555
H35 C51 1_555 1_555
H36 C51 1_555 1_555
H37 C51 1_555 1_555
C52 C50 1_555 1_555
H38 C52 1_555 1_555
H39 C52 1_555 1_555
H40 C52 1_555 1_555
C53 C50 1_555 1_555
H41 C53 1_555 1_555
H42 C53 1_555 1_555
H43 C53 1_555 1_555
C54 C55 1_555 1_555
C55 C56 1_555 1_555
C56 H44 1_555 1_555
C57 C56 1_555 1_555
H45 C57 1_555 1_555
C58 C57 1_555 1_555
C59 C58 1_555 1_555
H46 C59 1_555 1_555
C60 C55 1_555 1_555
H47 C60 1_555 1_555
C61 C62 1_555 1_555
C62 C63 1_555 1_555
C63 H48 1_555 1_555
C64 C63 1_555 1_555
H49 C64 1_555 1_555
C65 C64 1_555 1_555
C66 C65 1_555 1_555
H50 C66 1_555 1_555
C67 C62 1_555 1_555
H51 C67 1_555 1_555
C68 C38 1_555 1_555
C69 H52 1_555 1_555
C70 H53 1_555 1_555
H54 C70 1_555 1_555
H55 C70 1_555 1_555
C71 H56 1_555 1_555
H57 C71 1_555 1_555
H58 C71 1_555 1_555
C72 H59 1_555 1_555
C73 H60 1_555 1_555
H61 C73 1_555 1_555
H62 C73 1_555 1_555
C74 H63 1_555 1_555
H64 C74 1_555 1_555
H65 C74 1_555 1_555
N1 C72 1_555 1_555
N2 C69 1_555 1_555
O1 C1 1_555 1_555
O2 C1 1_555 1_555
O3 C5 1_555 1_555
O4 C54 1_555 1_555
O5 C54 1_555 1_555
O6 C68 1_555 1_555
O7 C25 1_555 1_555
O8 C25 1_555 1_555
O9 C29 1_555 1_555
O10 C61 1_555 1_555
O11 C61 1_555 1_555
O12 C9 1_555 1_555
O13 C18 1_555 1_555
O14 C18 1_555 1_555
O15 C22 1_555 1_555
O16 C41 1_555 1_555
O17 C72 1_555 1_555
O18 C69 1_555 1_555
O19 Zn1 1_555 1_555
O20 C34 1_555 1_555
O21 C68 1_555 1_555
Zn1 O2 1_555 1_555
Zn2 O1 1_555 1_555
Zn3 O8 1_555 1_555
Zn4 O7 1_555 1_555
C75 C46 1_555 1_555
C76 C75 1_555 1_555
H66 C76 1_555 1_555
H67 C76 1_555 1_555
H68 C76 1_555 1_555
C77 C75 1_555 1_555
H69 C77 1_555 1_555
H70 C77 1_555 1_555
H71 C77 1_555 1_555
C78 C75 1_555 1_555
H72 C78 1_555 1_555
H73 C78 1_555 1_555
H74 C78 1_555 1_555
O4B Zn1 1_555 1_555
O5B Zn3 1_555 1_555
O6A Zn1 1_555 1_555
O10B Zn4 1_555 1_555
O11B Zn2 1_555 1_555
O21A Zn4 1_555 1_555
Zn1A O6 1_555 1_555
Zn1B O4 1_555 1_555
Zn2B O11 1_555 1_555
Zn3B O5 1_555 1_555
Zn4A O21 1_555 1_555
Zn4B O10 1_555 1_555
C6 C7 1_555 1_555
C8 O3 1_555 1_555
C12 C13 1_555 1_555
C23 C24 1_555 1_555
C30 C31 1_555 1_555
C33 O9 1_555 1_555
C36 C37 1_555 1_555
C42 C43 1_555 1_555
C44 O15 1_555 1_555
C48 C49 1_555 1_555
C49 O16 1_555 1_555
C58 O20 1_555 1_555
C59 C60 1_555 1_555
C65 O12 1_555 1_555
C66 C67 1_555 1_555
C70 N2 1_555 1_555
C71 N2 1_555 1_555
C73 N1 1_555 1_555
C74 N1 1_555 1_555
O13 Zn3 1_555 1_555
O14 Zn2 1_555 1_555
O17 Zn1 1_555 1_555
O18 Zn1 1_555 1_555
O19 Zn2 1_555 1_555
O19 Zn3 1_555 1_555
O19 Zn4 1_555 1_555

#END
