
#######################################################################
#
#                 Cambridge Crystallographic Data Centre
#                                CCDC 
#
#######################################################################
#
# If this CIF has been generated from an entry in the Cambridge 
# Structural Database, then it will include bibliographic, chemical, 
# crystal, experimental, refinement or atomic coordinate data resulting 
# from the CCDC's data processing and validation procedures.
#
#######################################################################

data_KULWIZ
_symmetry_cell_setting           monoclinic
_symmetry_space_group_name_H-M   'P 21/c'
_symmetry_Int_Tables_number      14
_space_group_name_Hall           '-P 2ybc'
loop_
_symmetry_equiv_pos_site_id
_symmetry_equiv_pos_as_xyz
1 x,y,z
2 -x,1/2+y,1/2-z
3 -x,-y,-z
4 x,1/2-y,1/2+z
_cell_length_a                   12.306(9)
_cell_length_b                   26.370(18)
_cell_length_c                   22.124(16)
_cell_angle_alpha                90
_cell_angle_beta                 96.549(13)
_cell_angle_gamma                90
_cell_volume                     7132.59
loop_
_atom_site_label
_atom_site_type_symbol
_atom_site_fract_x
_atom_site_fract_y
_atom_site_fract_z
C1 C 0.8036(13) 0.6106(6) 0.7784(8)
C2 C 0.7308(13) 0.6497(7) 0.8024(7)
C3 C 0.7761(11) 0.6907(6) 0.8334(7)
H1 H 0.8516 0.6947 0.8395
C4 C 0.7100(10) 0.7256(6) 0.8554(7)
H2 H 0.7391 0.7538 0.8765
C5 C 0.6021(14) 0.7184(5) 0.8459(7)
C6 C 0.5509(13) 0.6777(6) 0.8154(7)
H3 H 0.4752 0.6746 0.8117
C7 C 0.6146(13) 0.6414(6) 0.7904(7)
H4 H 0.5846 0.6141 0.7678
C8 C 0.4281(13) 0.7609(5) 0.8496(8)
C9 C 0.3960(11) 0.7732(6) 0.7948(8)
C10 C 0.2858(12) 0.7806(5) 0.7746(8)
H5 H 0.2646 0.7907 0.7347
C11 C 0.2075(10) 0.7729(5) 0.8144(8)
C12 C 0.2444(14) 0.7600(6) 0.8715(9)
H6 H 0.1936 0.7562 0.8992
C13 C 0.3500(14) 0.7523(6) 0.8913(7)
H7 H 0.3716 0.7416 0.9309
C14 C 0.0878(11) 0.7805(6) 0.7929(7)
C15 C 0.0418(13) 0.7384(7) 0.7527(10)
H8 H 0.0454 0.7073 0.7753
H9 H 0.0835 0.7351 0.7188
H10 H -0.0330 0.7458 0.7382
C16 C 0.0185(13) 0.7861(10) 0.8406(10)
H11 H -0.0567 0.7836 0.8237
H12 H 0.0312 0.8187 0.8596
H13 H 0.0348 0.7599 0.8704
C17 C 0.0692(13) 0.8293(9) 0.7574(15)
H14 H 0.0888 0.8245 0.7170
H15 H 0.1134 0.8556 0.7774
H16 H -0.0066 0.8386 0.7553
C18 C 0.5550(12) 0.8110(6) 0.7552(7)
C19 C 0.6348(11) 0.8017(5) 0.7148(7)
H17 H 0.6294 0.7734 0.6896
C20 C 0.7197(10) 0.8350(5) 0.7136(7)
H18 H 0.7696 0.8309 0.6854
C21 C 0.7310(10) 0.8751(5) 0.7546(7)
C22 C 0.6568(11) 0.8812(6) 0.7971(7)
H19 H 0.6683 0.9061 0.8269
C23 C 0.5659(12) 0.8501(6) 0.7948(6)
H20 H 0.5126 0.8562 0.8205
C24 C 0.5388(14) 0.3509(7) 0.3570(8)
C25 C 0.6270(16) 0.3172(7) 0.3422(9)
H21 H 0.6195 0.2822 0.3389
C26 C 0.7224(15) 0.3427(8) 0.3335(8)
H22 H 0.7790 0.3238 0.3203
C27 C 0.7401(14) 0.3954(7) 0.3434(7)
C28 C 0.6591(12) 0.4249(7) 0.3640(8)
H23 H 0.6718 0.4586 0.3749
C29 C 0.5577(14) 0.4022(7) 0.3680(7)
H24 H 0.5005 0.4223 0.3784
C30 C 0.8466(11) 0.4213(8) 0.3357(7)
C31 C 0.8234(15) 0.4660(6) 0.6176(6)
C32 C 0.7492(13) 0.4323(6) 0.5787(7)
C33 C 0.6335(14) 0.4505(7) 0.5649(7)
H25 H 0.6141 0.4823 0.5781
C34 C 0.5578(17) 0.4211(9) 0.5337(9)
H26 H 0.4864 0.4329 0.5262
C35 C 0.5836(15) 0.3725(9) 0.5119(7)
C36 C 0.6953(19) 0.3559(6) 0.5211(7)
H27 H 0.7155 0.3250 0.5055
C37 C 0.7748(15) 0.3875(7) 0.5546(7)
H28 H 0.8473 0.3767 0.5600
C38 C 0.410(2) 0.3502(9) 0.4636(10)
C39 C 0.3312(17) 0.3656(10) 0.5022(10)
H29 H 0.3476 0.3691 0.5441
C40 C 0.2221(18) 0.3755(10) 0.4704(12)
C41 C 0.1872(19) 0.3723(9) 0.4094(12)
H30 H 0.1193 0.3821 0.3901
C42 C 0.2715(17) 0.3521(9) 0.3825(11)
H31 H 0.2531 0.3418 0.3424
C43 C 0.3806(13) 0.3441(7) 0.4048(11)
C44 C 0.1898(17) 0.4557(7) 0.5384(10)
H32 H 0.2600 0.4486 0.5603
H33 H 0.1426 0.4700 0.5656
H34 H 0.1983 0.4793 0.5062
C45 C 0.0323(17) 0.4120(11) 0.4682(12)
H35 H 0.0153 0.3808 0.4469
H36 H 0.0410 0.4385 0.4394
H37 H -0.0261 0.4206 0.4916
C46 C 0.1195(17) 0.3670(7) 0.5610(9)
H38 H 0.0864 0.3837 0.5928
H39 H 0.1881 0.3525 0.5774
H40 H 0.0718 0.3406 0.5438
C47 C 0.8284(11) 0.9109(6) 0.7583(11)
C48 C 1.1874(15) 0.5679(6) 1.1729(8)
C49 C 1.2603(13) 0.5973(7) 1.1400(9)
C50 C 1.2136(14) 0.6237(7) 1.0885(11)
H41 H 1.1384 0.6218 1.0779
C51 C 1.2742(17) 0.6523(7) 1.0531(10)
H42 H 1.2443 0.6688 1.0180
C52 C 1.384(2) 0.6542(7) 1.0744(11)
C53 C 1.4344(16) 0.6289(8) 1.1246(9)
H43 H 1.5097 0.6300 1.1355
C54 C 1.3663(14) 0.6026(6) 1.1564(7)
H44 H 1.3959 0.5870 1.1923
C55 C 1.5473(16) 0.6803(8) 1.0376(8)
C56 C 1.620(2) 0.7222(10) 1.0386(9)
H45 H 1.5853 0.7533 1.0411
C57 C 1.7133(17) 0.7259(11) 1.0370(11)
H46 H 1.7476 0.7573 1.0416
C58 C 1.7743(15) 0.6811(9) 1.0277(9)
C59 C 1.7110(13) 0.6331(8) 1.0222(8)
H47 H 1.7425 0.6021 1.0141
C60 C 1.6034(13) 0.6379(10) 1.0299(9)
C61 C 1.8962(16) 0.6824(7) 1.0283(8)
C62 C 1.9361(17) 0.7324(8) 1.0018(12)
H48 H 1.8966 0.7384 0.9625
H49 H 2.0129 0.7299 0.9980
H50 H 1.9237 0.7600 1.0285
C63 C 1.9487(15) 0.6837(10) 1.0953(8)
H51 H 1.9261 0.7140 1.1146
H52 H 2.0270 0.6836 1.0965
H53 H 1.9258 0.6545 1.1164
C64 C 1.9349(17) 0.6367(10) 0.9920(11)
H54 H 1.8758 0.6254 0.9630
H55 H 1.9573 0.6095 1.0196
H56 H 1.9954 0.6469 0.9710
C65 C 1.4495(15) 0.5791(7) 0.9848(10)
C66 C 1.3862(15) 0.5388(6) 0.9970(8)
H57 H 1.4057 0.5179 1.0303
C67 C 1.2943(14) 0.5303(6) 0.9592(9)
H58 H 1.2484 0.5037 0.9670
C68 C 1.2674(16) 0.5612(7) 0.9080(9)
C69 C 1.3369(15) 0.5992(7) 0.8956(8)
H59 H 1.3213 0.6186 0.8605
C70 C 1.4285(15) 0.6089(7) 0.9340(10)
H60 H 1.4757 0.6350 0.9261
C71 C 1.1691(16) 0.5514(9) 0.8641(11)
O1 O 0.9020(8) 0.6197(4) 0.7823(5)
O2 O 0.7558(8) 0.5713(4) 0.7541(5)
O3 O 0.5368(9) 0.7545(4) 0.8718(4)
O4 O 0.4657(8) 0.7780(3) 0.7493(4)
O5 O 0.8718(7) 0.9136(3) 0.7078(5)
O6 O 0.8479(8) 0.9342(4) 0.8051(5)
O7 O 0.9261(9) 0.4537(4) 0.6182(5)
O8 O 0.7849(8) 0.4983(4) 0.6470(5)
O9 O 0.5177(11) 0.3377(5) 0.4819(6)
O10 O 0.4475(9) 0.3246(4) 0.3648(5)
O11 O 0.8597(8) 0.4650(4) 0.3531(5)
O12 O 0.9105(8) 0.3940(4) 0.3063(5)
O13 O 1.1192(8) 0.5077(4) 0.8729(5)
O14 O 1.1378(11) 0.5820(5) 0.8234(8)
O15 O 1.5479(10) 0.5873(4) 1.0254(5)
O16 O 1.4397(11) 0.6836(4) 1.0349(6)
O17 O 1.2363(8) 0.5457(4) 1.2220(5)
O18 O 1.0882(8) 0.5629(4) 1.1536(5)
O19 O 0.9772(7) 0.5104(3) 0.7449(5)
Zn1 Zn 1.02202(13) 0.57974(7) 0.76186(9)
Zn2 Zn 0.82283(13) 0.50913(6) 0.73175(8)
Zn3 Zn 1.04000(13) 0.48568(6) 0.67317(9)
Zn4 Zn 1.03264(13) 0.46723(6) 0.81327(9)
C72 C 0.1388(17) 0.4058(7) 0.5109(8)
O5A O 1.1282(7) 0.4136(3) 0.7922(5)
O6A O 1.1521(8) 0.4342(4) 0.6949(5)
O11B O 1.1403(8) 0.5350(4) 0.6469(5)
O12B O 1.0895(8) 0.6060(4) 0.6937(5)
O17B O 0.7637(8) 0.4543(4) 0.7780(5)
O18B O 0.9118(8) 0.4371(4) 0.8464(5)
Zn1B Zn 0.97798(13) 0.42026(7) 0.23814(9)
Zn2B Zn 1.17717(13) 0.49087(6) 1.26825(8)
Zn3A Zn 0.96000(13) 0.98568(6) 0.82683(9)
Zn3B Zn 0.96000(13) 0.51432(6) 0.32683(9)
Zn4A Zn 0.96736(13) 0.96723(6) 0.68673(9)
Zn4B Zn 0.96736(13) 0.53277(6) 1.18673(9)
loop_
_geom_bond_atom_site_label_1
_geom_bond_atom_site_label_2
_geom_bond_site_symmetry_1
_geom_bond_site_symmetry_2
C1 C2 1_555 1_555
C2 C3 1_555 1_555
C3 H1 1_555 1_555
C4 C3 1_555 1_555
H2 C4 1_555 1_555
C5 C4 1_555 1_555
C6 C5 1_555 1_555
H3 C6 1_555 1_555
C7 C2 1_555 1_555
H4 C7 1_555 1_555
C8 C9 1_555 1_555
C9 C10 1_555 1_555
C10 H5 1_555 1_555
C11 C10 1_555 1_555
C12 C11 1_555 1_555
H6 C12 1_555 1_555
C13 C8 1_555 1_555
H7 C13 1_555 1_555
C14 C11 1_555 1_555
C15 C14 1_555 1_555
H8 C15 1_555 1_555
H9 C15 1_555 1_555
H10 C15 1_555 1_555
C16 C14 1_555 1_555
H11 C16 1_555 1_555
H12 C16 1_555 1_555
H13 C16 1_555 1_555
C17 C14 1_555 1_555
H14 C17 1_555 1_555
H15 C17 1_555 1_555
H16 C17 1_555 1_555
C18 C19 1_555 1_555
C19 H17 1_555 1_555
C20 C19 1_555 1_555
H18 C20 1_555 1_555
C21 C20 1_555 1_555
C22 C21 1_555 1_555
H19 C22 1_555 1_555
C23 C18 1_555 1_555
H20 C23 1_555 1_555
C24 C25 1_555 1_555
C25 H21 1_555 1_555
C26 C25 1_555 1_555
H22 C26 1_555 1_555
C27 C26 1_555 1_555
C28 C27 1_555 1_555
H23 C28 1_555 1_555
C29 C24 1_555 1_555
H24 C29 1_555 1_555
C30 C27 1_555 1_555
C31 C32 1_555 1_555
C32 C33 1_555 1_555
C33 H25 1_555 1_555
C34 C33 1_555 1_555
H26 C34 1_555 1_555
C35 C34 1_555 1_555
C36 C35 1_555 1_555
H27 C36 1_555 1_555
C37 C32 1_555 1_555
H28 C37 1_555 1_555
C38 C39 1_555 1_555
C39 H29 1_555 1_555
C40 C39 1_555 1_555
C41 C40 1_555 1_555
H30 C41 1_555 1_555
C42 C41 1_555 1_555
H31 C42 1_555 1_555
C43 C38 1_555 1_555
C44 H32 1_555 1_555
H33 C44 1_555 1_555
H34 C44 1_555 1_555
C45 H35 1_555 1_555
H36 C45 1_555 1_555
H37 C45 1_555 1_555
C46 H38 1_555 1_555
H39 C46 1_555 1_555
H40 C46 1_555 1_555
C47 C21 1_555 1_555
C48 C49 1_555 1_555
C49 C50 1_555 1_555
C50 H41 1_555 1_555
C51 C50 1_555 1_555
H42 C51 1_555 1_555
C52 C51 1_555 1_555
C53 C52 1_555 1_555
H43 C53 1_555 1_555
C54 C49 1_555 1_555
H44 C54 1_555 1_555
C55 C56 1_555 1_555
C56 H45 1_555 1_555
C57 C56 1_555 1_555
H46 C57 1_555 1_555
C58 C57 1_555 1_555
C59 C58 1_555 1_555
H47 C59 1_555 1_555
C60 C55 1_555 1_555
C61 C58 1_555 1_555
C62 C61 1_555 1_555
H48 C62 1_555 1_555
H49 C62 1_555 1_555
H50 C62 1_555 1_555
C63 C61 1_555 1_555
H51 C63 1_555 1_555
H52 C63 1_555 1_555
H53 C63 1_555 1_555
C64 C61 1_555 1_555
H54 C64 1_555 1_555
H55 C64 1_555 1_555
H56 C64 1_555 1_555
C65 C66 1_555 1_555
C66 H57 1_555 1_555
C67 C66 1_555 1_555
H58 C67 1_555 1_555
C68 C67 1_555 1_555
C69 C68 1_555 1_555
H59 C69 1_555 1_555
C70 C65 1_555 1_555
H60 C70 1_555 1_555
C71 C68 1_555 1_555
O1 C1 1_555 1_555
O2 C1 1_555 1_555
O3 C5 1_555 1_555
O4 C9 1_555 1_555
O5 C47 1_555 1_555
O6 C47 1_555 1_555
O7 C31 1_555 1_555
O8 C31 1_555 1_555
O9 C35 1_555 1_555
O10 C24 1_555 1_555
O11 C30 1_555 1_555
O12 C30 1_555 1_555
O13 C71 1_555 1_555
O14 C71 1_555 1_555
O15 C60 1_555 1_555
O16 C52 1_555 1_555
O17 C48 1_555 1_555
O18 C48 1_555 1_555
O19 Zn1 1_555 1_555
Zn1 O1 1_555 1_555
Zn2 O2 1_555 1_555
Zn3 O7 1_555 1_555
Zn4 O13 1_555 1_555
C72 C40 1_555 1_555
O5A Zn4 1_555 1_555
O6A Zn3 1_555 1_555
O11B Zn3 1_555 1_555
O12B Zn1 1_555 1_555
O17B Zn2 1_555 1_555
O18B Zn4 1_555 1_555
Zn1B O12 1_555 1_555
Zn2B O17 1_555 1_555
Zn3A O6 1_555 1_555
Zn3B O11 1_555 1_555
Zn4A O5 1_555 1_555
Zn4B O18 1_555 1_555
C6 C7 1_555 1_555
C8 O3 1_555 1_555
C12 C13 1_555 1_555
C18 O4 1_555 1_555
C22 C23 1_555 1_555
C28 C29 1_555 1_555
C36 C37 1_555 1_555
C38 O9 1_555 1_555
C42 C43 1_555 1_555
C43 O10 1_555 1_555
C44 C72 1_555 1_555
C45 C72 1_555 1_555
C46 C72 1_555 1_555
C53 C54 1_555 1_555
C55 O16 1_555 1_555
C59 C60 1_555 1_555
C65 O15 1_555 1_555
C69 C70 1_555 1_555
O8 Zn2 1_555 1_555
O14 Zn1 1_555 1_555
O19 Zn2 1_555 1_555
O19 Zn3 1_555 1_555
O19 Zn4 1_555 1_555

#END
