
#######################################################################
#
#                 Cambridge Crystallographic Data Centre
#                                CCDC 
#
#######################################################################
#
# If this CIF has been generated from an entry in the Cambridge 
# Structural Database, then it will include bibliographic, chemical, 
# crystal, experimental, refinement or atomic coordinate data resulting 
# from the CCDC's data processing and validation procedures.
#
#######################################################################

data_KULZIC
_symmetry_cell_setting           monoclinic
_symmetry_space_group_name_H-M   'P 2/c'
_symmetry_Int_Tables_number      13
_space_group_name_Hall           '-P 2yc'
loop_
_symmetry_equiv_pos_site_id
_symmetry_equiv_pos_as_xyz
1 x,y,z
2 -x,y,1/2-z
3 -x,-y,-z
4 x,-y,1/2+z
_cell_length_a                   17.033(4)
_cell_length_b                   9.182(2)
_cell_length_c                   23.177(4)
_cell_angle_alpha                90
_cell_angle_beta                 131.684(12)
_cell_angle_gamma                90
_cell_volume                     2707.1
loop_
_atom_site_label
_atom_site_type_symbol
_atom_site_fract_x
_atom_site_fract_y
_atom_site_fract_z
C1 C 0.6086(3) 0.6267(3) 0.47235(16)
C2 C 0.6582(2) 0.7209(3) 0.45158(15)
C3 C 0.7633(2) 0.7081(3) 0.48810(15)
H1 H 0.8046 0.6379 0.5263
C4 C 0.8075(2) 0.7974(3) 0.46885(15)
H2 H 0.8788 0.7888 0.4955
C5 C 0.7478(2) 0.9005(3) 0.41028(16)
C6 C 0.6430(2) 0.9152(3) 0.37468(18)
H3 H 0.6016 0.9849 0.3362
C7 C 0.5992(2) 0.8274(3) 0.39567(17)
H4 H 0.5291 0.8403 0.3718
C8 C 0.7450(2) 1.0729(3) 0.32554(16)
C9 C 0.7896(2) 1.2050(3) 0.33055(17)
H5 H 0.8516 1.2369 0.3780
C10 C 0.7425(2) 1.2876(3) 0.26598(17)
H6 H 0.7737 1.3751 0.2706
C11 C 0.6500(2) 1.2464(3) 0.19388(15)
C12 C 0.5987(2) 1.3416(3) 0.12474(16)
C13 C 0.6079(3) 1.1140(3) 0.18911(17)
H7 H 0.5466 1.0819 0.1414
C14 C 0.6545(3) 1.0277(3) 0.25348(17)
H8 H 0.6247 0.9383 0.2483
C15 C 0.7520(3) 0.2236(3) 0.67951(17)
H9 H 0.7537 0.3011 0.7062
C16 C 0.8217(3) 0.1116(3) 0.72172(18)
H10 H 0.8696 0.1137 0.7754
C17 C 0.8189(2) -0.0045(2) 0.68259(16)
C18 C 0.7445(3) -0.0054(3) 0.60313(17)
H11 H 0.7392 -0.0833 0.5751
C19 C 0.6781(3) 0.1127(3) 0.56641(17)
H12 H 0.6273 0.1112 0.5127
C20 C 0.9047(2) -0.2166(3) 0.68838(15)
H13 H 0.9156 -0.1684 0.6569
H14 H 0.8424 -0.2770 0.6551
C21 C 1.0000 -0.3096(3) 0.7500
C22 C 1.0286(2) -0.4039(3) 0.71180(16)
H15 H 1.0419 -0.3430 0.6849
H16 H 1.0913 -0.4604 0.7505
C23 C 0.9530(2) -0.5991(3) 0.62180(17)
C24 C 1.0356(3) -0.6115(3) 0.6257(2)
H17 H 1.0914 -0.5462 0.6546
C25 C 1.0346(3) -0.7248(4) 0.5853(2)
H18 H 1.0923 -0.7332 0.5891
C26 C 0.8795(4) -0.8041(5) 0.5399(3)
H19 H 0.8240 -0.8698 0.5103
C27 C 0.8732(3) -0.6975(4) 0.5776(2)
H20 H 0.8149 -0.6919 0.5733
Co1 Co 0.58526(3) 0.40569(3) 0.542876(19)
N1 N 0.68186(17) 0.2283(2) 0.60246(12)
N2 N 0.9588(3) -0.8207(4) 0.5423(2)
N3 N 0.79714(19) 0.9889(2) 0.39296(13)
O1 O 0.66020(16) 0.5198(2) 0.51662(12)
O2 O 0.51780(17) 0.6610(2) 0.44457(12)
O3 O 0.64797(16) 1.4542(2) 0.13311(11)
O4 O 0.50913(16) 1.30488(19) 0.06280(11)
O5 O 0.94218(15) -0.49774(18) 0.65885(12)
O6 O 0.89181(16) -0.11070(18) 0.72692(11)
C15A C 1.2480(3) 0.2236(3) 0.82049(17)
H9A H 1.2463 0.3011 0.7938
C16A C 1.1783(3) 0.1116(3) 0.77828(18)
H10A H 1.1304 0.1137 0.7246
C17A C 1.1811(2) -0.0045(2) 0.81741(16)
C18A C 1.2555(3) -0.0054(3) 0.89687(17)
H11A H 1.2608 -0.0833 0.9249
C19A C 1.3219(3) 0.1127(3) 0.93359(17)
H12A H 1.3727 0.1112 0.9873
C20A C 1.0953(2) -0.2166(3) 0.81162(15)
H13A H 1.0844 -0.1684 0.8431
H14A H 1.1576 -0.2770 0.8449
C22A C 0.9714(2) -0.4039(3) 0.78820(16)
H15A H 0.9581 -0.3430 0.8151
H16A H 0.9087 -0.4604 0.7495
C23A C 1.0470(2) -0.5991(3) 0.87820(17)
C24A C 0.9644(3) -0.6115(3) 0.8743(2)
H17A H 0.9086 -0.5462 0.8454
C25A C 0.9654(3) -0.7248(4) 0.9147(2)
H18A H 0.9077 -0.7332 0.9109
C26A C 1.1205(4) -0.8041(5) 0.9601(3)
H19A H 1.1760 -0.8698 0.9897
C27A C 1.1268(3) -0.6975(4) 0.9224(2)
H20A H 1.1851 -0.6919 0.9267
N1A N 1.31814(17) 0.2283(2) 0.89754(12)
N2A N 1.0412(3) -0.8207(4) 0.9577(2)
O5A O 1.05782(15) -0.49774(18) 0.84115(12)
O6A O 1.10819(16) -0.11070(18) 0.77308(11)
C1A C 1.3914(3) 0.6267(3) 1.02765(16)
C2A C 1.3418(2) 0.7209(3) 1.04842(15)
C3A C 1.2367(2) 0.7081(3) 1.01190(15)
H1A H 1.1954 0.6379 0.9737
C4A C 1.1925(2) 0.7974(3) 1.03115(15)
H2A H 1.1212 0.7888 1.0045
C5A C 1.2522(2) 0.9005(3) 1.08972(16)
C6A C 1.3570(2) 0.9152(3) 1.12532(18)
H3A H 1.3984 0.9849 1.1638
C7A C 1.4008(2) 0.8274(3) 1.10433(17)
H4A H 1.4709 0.8403 1.1282
C8A C 1.2550(2) 1.0729(3) 1.17446(16)
C9A C 1.2104(2) 1.2050(3) 1.16945(17)
H5A H 1.1484 1.2369 1.1220
C10A C 1.2575(2) 1.2876(3) 1.23402(17)
H6A H 1.2263 1.3751 1.2294
C11A C 1.3500(2) 1.2464(3) 1.30612(15)
C12A C 1.4013(2) 1.3416(3) 1.37526(16)
C13A C 1.3921(3) 1.1140(3) 1.31089(17)
H7A H 1.4534 1.0819 1.3586
C14A C 1.3455(3) 1.0277(3) 1.24652(17)
H8A H 1.3753 0.9383 1.2517
Co1A Co 1.41474(3) 0.40569(3) 0.957124(19)
N3A N 1.20286(19) 0.9889(2) 1.10704(13)
O1A O 1.33980(16) 0.5198(2) 0.98338(12)
O2A O 1.48220(17) 0.6610(2) 1.05543(12)
O3A O 1.35203(16) 1.4542(2) 1.36689(11)
O4A O 1.49087(16) 1.30488(19) 1.43720(11)
Co1_2 Co 1.58526(3) 1.40569(3) 1.542876(19)
Co1A_2 Co 0.41474(3) 1.40569(3) -0.042876(19)
Co1B Co 0.41474(3) 0.59431(3) 0.457124(19)
Co1B_2 Co 1.41474(3) 1.59431(3) 1.457124(19)
Co1C Co 0.58526(3) 1.59431(3) 0.042876(19)
Co1C_2 Co 1.58526(3) 0.59431(3) 1.042876(19)
O2B O 0.48220(17) 0.3390(2) 0.55543(12)
O2C O 1.51780(17) 0.3390(2) 0.94457(12)
O3B O 1.35203(16) 0.5458(2) 0.86689(11)
O3C O 0.64797(16) 0.5458(2) 0.63311(11)
O4_2 O 1.50913(16) 0.30488(19) 1.06280(11)
O4A_2 O 0.49087(16) 0.30488(19) 0.43720(11)
loop_
_geom_bond_atom_site_label_1
_geom_bond_atom_site_label_2
_geom_bond_site_symmetry_1
_geom_bond_site_symmetry_2
C1 C2 1_555 1_555
C2 C3 1_555 1_555
C3 H1 1_555 1_555
C4 C3 1_555 1_555
H2 C4 1_555 1_555
C5 C4 1_555 1_555
C6 C5 1_555 1_555
H3 C6 1_555 1_555
C7 C2 1_555 1_555
H4 C7 1_555 1_555
C8 C9 1_555 1_555
C9 H5 1_555 1_555
C10 C9 1_555 1_555
H6 C10 1_555 1_555
C11 C10 1_555 1_555
C12 C11 1_555 1_555
C13 C11 1_555 1_555
H7 C13 1_555 1_555
C14 C8 1_555 1_555
H8 C14 1_555 1_555
C15 H9 1_555 1_555
C16 C15 1_555 1_555
H10 C16 1_555 1_555
C17 C16 1_555 1_555
C18 C17 1_555 1_555
H11 C18 1_555 1_555
C19 C18 1_555 1_555
H12 C19 1_555 1_555
C20 H13 1_555 1_555
H14 C20 1_555 1_555
C21 C20 1_555 1_555
C22 C21 1_555 1_555
H15 C22 1_555 1_555
H16 C22 1_555 1_555
C23 C24 1_555 1_555
C24 H17 1_555 1_555
C25 C24 1_555 1_555
H18 C25 1_555 1_555
C26 H19 1_555 1_555
C27 C23 1_555 1_555
H20 C27 1_555 1_555
Co1 N1 1_555 1_555
N1 C15 1_555 1_555
N2 C25 1_555 1_555
N3 C5 1_555 1_555
O1 C1 1_555 1_555
O2 C1 1_555 1_555
O3 C12 1_555 1_555
O4 C12 1_555 1_555
O5 C22 1_555 1_555
O6 C17 1_555 1_555
C15A H9A 1_555 1_555
C16A C15A 1_555 1_555
H10A C16A 1_555 1_555
C17A C16A 1_555 1_555
C18A C17A 1_555 1_555
H11A C18A 1_555 1_555
C19A C18A 1_555 1_555
H12A C19A 1_555 1_555
C20A C21 1_555 1_555
H13A C20A 1_555 1_555
H14A C20A 1_555 1_555
C22A C21 1_555 1_555
H15A C22A 1_555 1_555
H16A C22A 1_555 1_555
C23A C24A 1_555 1_555
C24A H17A 1_555 1_555
C25A C24A 1_555 1_555
H18A C25A 1_555 1_555
C26A H19A 1_555 1_555
C27A C23A 1_555 1_555
H20A C27A 1_555 1_555
N1A C15A 1_555 1_555
N2A C25A 1_555 1_555
O5A C22A 1_555 1_555
O6A C17A 1_555 1_555
C1A C2A 1_555 1_555
C2A C3A 1_555 1_555
C3A H1A 1_555 1_555
C4A C3A 1_555 1_555
H2A C4A 1_555 1_555
C5A C4A 1_555 1_555
C6A C5A 1_555 1_555
H3A C6A 1_555 1_555
C7A C2A 1_555 1_555
H4A C7A 1_555 1_555
C8A C9A 1_555 1_555
C9A H5A 1_555 1_555
C10A C9A 1_555 1_555
H6A C10A 1_555 1_555
C11A C10A 1_555 1_555
C12A C11A 1_555 1_555
C13A C11A 1_555 1_555
H7A C13A 1_555 1_555
C14A C8A 1_555 1_555
H8A C14A 1_555 1_555
Co1A N1A 1_555 1_555
N3A C5A 1_555 1_555
O1A C1A 1_555 1_555
O2A C1A 1_555 1_555
O3A C12A 1_555 1_555
O4A C12A 1_555 1_555
Co1_2 O4A 1_555 1_555
Co1A_2 O4 1_555 1_555
Co1B Co1 1_555 1_555
Co1B_2 O3A 1_555 1_555
Co1C O3 1_555 1_555
Co1C_2 Co1A 1_555 1_555
O2B Co1 1_555 1_555
O2C Co1A 1_555 1_555
O3B Co1A 1_555 1_555
O3C Co1 1_555 1_555
O4_2 Co1A 1_555 1_555
O4A_2 Co1 1_555 1_555
C6 C7 1_555 1_555
C8 N3 1_555 1_555
C13 C14 1_555 1_555
C19 N1 1_555 1_555
C20 O6 1_555 1_555
C23 O5 1_555 1_555
C26 C27 1_555 1_555
C26 N2 1_555 1_555
Co1 O1 1_555 1_555
O2 Co1B 1_555 1_555
C19A N1A 1_555 1_555
C20A O6A 1_555 1_555
C23A O5A 1_555 1_555
C26A C27A 1_555 1_555
C26A N2A 1_555 1_555
C6A C7A 1_555 1_555
C8A N3A 1_555 1_555
C13A C14A 1_555 1_555
Co1A O1A 1_555 1_555
O2A Co1C_2 1_555 1_555
Co1_2 Co1B_2 1_555 1_555
Co1A_2 Co1C 1_555 1_555

#END
