
#######################################################################
#
#                 Cambridge Crystallographic Data Centre
#                                CCDC 
#
#######################################################################
#
# If this CIF has been generated from an entry in the Cambridge 
# Structural Database, then it will include bibliographic, chemical, 
# crystal, experimental, refinement or atomic coordinate data resulting 
# from the CCDC's data processing and validation procedures.
#
#######################################################################

data_KULZUO
_symmetry_cell_setting           monoclinic
_symmetry_space_group_name_H-M   'P 21/n'
_symmetry_Int_Tables_number      14
_space_group_name_Hall           '-P 2yn'
loop_
_symmetry_equiv_pos_site_id
_symmetry_equiv_pos_as_xyz
1 x,y,z
2 1/2-x,1/2+y,1/2-z
3 -x,-y,-z
4 1/2+x,1/2-y,1/2+z
_cell_length_a                   12.8637(3)
_cell_length_b                   8.4515(2)
_cell_length_c                   19.6313(4)
_cell_angle_alpha                90
_cell_angle_beta                 98.406(1)
_cell_angle_gamma                90
_cell_volume                     2111.34
loop_
_atom_site_label
_atom_site_type_symbol
_atom_site_fract_x
_atom_site_fract_y
_atom_site_fract_z
K1 K 0.60080(3) 0.64234(4) 0.529085(19)
Si1 Si 0.65213(3) 0.23118(5) 0.57224(2)
Si2 Si 0.68169(3) 0.30736(5) 0.42858(2)
O1 O 0.72461(11) 0.54204(16) 0.64726(6)
O2 O 0.78567(10) 0.62076(16) 0.47441(7)
N1 N 0.62047(10) 0.32819(15) 0.49800(6)
C1 C 0.65601(17) 0.0086(2) 0.56249(12)
H1 H 0.5855(19) -0.026(3) 0.5415(12)
H2 H 0.6751(17) -0.043(3) 0.6071(11)
H3 H 0.7003(18) -0.019(3) 0.5309(11)
C2 C 0.55341(15) 0.2634(3) 0.63216(10)
H4 H 0.575(2) 0.210(3) 0.6750(14)
H5 H 0.4885(19) 0.221(3) 0.6145(11)
H6 H 0.5442(19) 0.368(3) 0.6399(12)
C3 C 0.78624(13) 0.2875(2) 0.62100(8)
C4 C 0.80830(14) 0.4350(2) 0.65103(8)
C5 C 0.90882(18) 0.4778(3) 0.68232(10)
H7 H 0.9146(18) 0.580(3) 0.7015(12)
C6 C 0.98993(17) 0.3696(4) 0.68393(11)
H8 H 1.058(2) 0.397(3) 0.7052(13)
C7 C 0.97155(16) 0.2224(4) 0.65667(10)
H9 H 1.028(2) 0.146(3) 0.6579(12)
C8 C 0.87165(14) 0.1828(3) 0.62577(9)
H10 H 0.8609(16) 0.077(3) 0.6077(11)
C9 C 0.7218(4) 0.6401(5) 0.70492(15)
H11 H 0.771(4) 0.733(7) 0.709(3)
H12 H 0.741(3) 0.584(4) 0.7443(18)
H13 H 0.658(2) 0.687(3) 0.7001(14)
C10 C 0.61197(18) 0.1621(2) 0.36550(10)
H14 H 0.5418(19) 0.190(3) 0.3503(11)
H15 H 0.6111(18) 0.060(3) 0.3891(12)
H16 H 0.6435(18) 0.144(3) 0.3261(12)
C11 C 0.82275(15) 0.2382(3) 0.44406(11)
H17 H 0.8286(17) 0.131(3) 0.4656(11)
H18 H 0.8501(19) 0.237(3) 0.4017(13)
H19 H 0.8636(19) 0.304(3) 0.4762(12)
C12 C 0.68782(12) 0.4982(2) 0.37785(8)
C13 C 0.74390(13) 0.6310(2) 0.40524(9)
C14 C 0.75336(16) 0.7674(2) 0.36670(12)
H20 H 0.7903(16) 0.854(2) 0.3887(10)
C15 C 0.70729(17) 0.7722(3) 0.29866(12)
H21 H 0.7141(19) 0.867(3) 0.2730(12)
C16 C 0.65196(18) 0.6449(3) 0.26944(11)
H22 H 0.6198(17) 0.650(3) 0.2227(12)
C17 C 0.64206(15) 0.5102(2) 0.30850(9)
H23 H 0.6027(14) 0.422(2) 0.2879(9)
C18 C 0.88260(19) 0.6986(4) 0.49657(16)
H24 H 0.933(2) 0.676(3) 0.4684(15)
H25 H 0.870(3) 0.816(4) 0.4962(17)
H26 H 0.910(2) 0.661(3) 0.5406(14)
K1B K 0.39920(3) 0.35766(4) 0.470915(19)
N1B N 0.37953(10) 0.67181(15) 0.50200(6)
loop_
_geom_bond_atom_site_label_1
_geom_bond_atom_site_label_2
_geom_bond_site_symmetry_1
_geom_bond_site_symmetry_2
K1 O1 1_555 1_555
Si1 N1 1_555 1_555
Si2 N1 1_555 1_555
O1 C4 1_555 1_555
O2 K1 1_555 1_555
N1 K1 1_555 1_555
C1 Si1 1_555 1_555
H1 C1 1_555 1_555
H2 C1 1_555 1_555
H3 C1 1_555 1_555
C2 Si1 1_555 1_555
H4 C2 1_555 1_555
H5 C2 1_555 1_555
H6 C2 1_555 1_555
C3 Si1 1_555 1_555
C4 C3 1_555 1_555
C5 C4 1_555 1_555
H7 C5 1_555 1_555
C6 C5 1_555 1_555
H8 C6 1_555 1_555
C7 C6 1_555 1_555
H9 C7 1_555 1_555
C8 C3 1_555 1_555
H10 C8 1_555 1_555
C9 O1 1_555 1_555
H11 C9 1_555 1_555
H12 C9 1_555 1_555
H13 C9 1_555 1_555
C10 Si2 1_555 1_555
H14 C10 1_555 1_555
H15 C10 1_555 1_555
H16 C10 1_555 1_555
C11 Si2 1_555 1_555
H17 C11 1_555 1_555
H18 C11 1_555 1_555
H19 C11 1_555 1_555
C12 Si2 1_555 1_555
C13 K1 1_555 1_555
C14 C13 1_555 1_555
H20 C14 1_555 1_555
C15 C14 1_555 1_555
H21 C15 1_555 1_555
C16 C15 1_555 1_555
H22 C16 1_555 1_555
C17 C12 1_555 1_555
H23 C17 1_555 1_555
C18 O2 1_555 1_555
H24 C18 1_555 1_555
H25 C18 1_555 1_555
H26 C18 1_555 1_555
K1B N1 1_555 1_555
N1B K1 1_555 1_555
O2 C13 1_555 1_555
C7 C8 1_555 1_555
C12 C13 1_555 1_555
C16 C17 1_555 1_555
K1B N1B 1_555 1_555

#END
