
#######################################################################
#
#                 Cambridge Crystallographic Data Centre
#                                CCDC 
#
#######################################################################
#
# If this CIF has been generated from an entry in the Cambridge 
# Structural Database, then it will include bibliographic, chemical, 
# crystal, experimental, refinement or atomic coordinate data resulting 
# from the CCDC's data processing and validation procedures.
#
#######################################################################

data_KUMCUS
_symmetry_cell_setting           monoclinic
_symmetry_space_group_name_H-M   'P 21/c'
_symmetry_Int_Tables_number      14
_space_group_name_Hall           '-P 2ybc'
loop_
_symmetry_equiv_pos_site_id
_symmetry_equiv_pos_as_xyz
1 x,y,z
2 -x,1/2+y,1/2-z
3 -x,-y,-z
4 x,1/2-y,1/2+z
_cell_length_a                   13.2104(17)
_cell_length_b                   11.3865(15)
_cell_length_c                   11.5633(16)
_cell_angle_alpha                90
_cell_angle_beta                 98.842(3)
_cell_angle_gamma                90
_cell_volume                     1718.68
loop_
_atom_site_label
_atom_site_type_symbol
_atom_site_fract_x
_atom_site_fract_y
_atom_site_fract_z
Mn1 Mn 0.5000 0.0000 0.5000
O1 O 0.5769(2) 0.0603(2) 0.3638(2)
O2 O 0.6767(2) 0.2110(2) 0.3401(3)
O3 O 0.6069(2) -0.1444(2) 0.5169(3)
O4 O 0.6792(2) -0.2452(3) 0.3851(3)
O5 O 0.6015(2) 0.1053(3) 0.6267(3)
H1 H 0.6462 0.0659 0.6712
H2 H 0.5831 0.1553 0.6739
C1 C 0.6642(3) 0.1096(4) 0.3718(4)
C2 C 0.7566(3) 0.0400(3) 0.4228(4)
C3 C 0.9497(3) -0.0029(4) 0.4859(4)
C4 C 0.7605(3) -0.0726(3) 0.4548(3)
C5 C 0.6735(3) -0.1601(4) 0.4506(4)
S1 S 0.87262(8) 0.11575(9) 0.43013(11)
S2 S 0.88128(8) -0.13388(9) 0.49829(11)
O1B O 1.4231(2) -0.0603(2) 0.6362(2)
O2B O 1.3233(2) -0.2110(2) 0.6599(3)
O3B O 1.3931(2) 0.1444(2) 0.4831(3)
O4B O 1.3208(2) 0.2452(3) 0.6149(3)
C1B C 1.3358(3) -0.1096(4) 0.6282(4)
C2B C 1.2434(3) -0.0400(3) 0.5772(4)
C3B C 1.0503(3) 0.0029(4) 0.5141(4)
C4B C 1.2395(3) 0.0726(3) 0.5452(3)
C5B C 1.3265(3) 0.1601(4) 0.5494(4)
S1B S 1.12738(8) -0.11575(9) 0.56987(11)
S2B S 1.11872(8) 0.13388(9) 0.50171(11)
O5B O 0.3985(2) -0.1053(3) 0.3733(3)
H1B H 0.3538 -0.0659 0.3288
H2B H 0.4169 -0.1553 0.3261
Mn1_2 Mn 1.5000 0.0000 0.5000
O1B_2 O 0.4231(2) -0.0603(2) 0.6362(2)
O3B_2 O 0.3931(2) 0.1444(2) 0.4831(3)
Mn2 Mn 0.5000 0.0000 0.0000
O6 O 0.5099(2) 0.1720(2) -0.0837(3)
H3 H 0.4946 0.2233 -0.0359
H4 H 0.5390 0.1888 -0.1423
O7 O 0.4627(2) 0.0863(3) 0.1500(3)
H5 H 0.4210 0.1433 0.1490
H6 H 0.4973 0.0952 0.2177
N1 N 0.6724(3) -0.0029(3) 0.0699(3)
N2 N 1.2090(3) -0.0415(4) 0.2573(3)
C6 C 0.7363(4) 0.0718(4) 0.0334(4)
H7 H 0.7089 0.1314 -0.0169
C7 C 0.8418(3) 0.0680(4) 0.0647(4)
H8 H 0.8827 0.1238 0.0357
C8 C 0.8856(3) -0.0186(4) 0.1385(4)
C9 C 0.8196(3) -0.0962(4) 0.1786(4)
H9 H 0.8447 -0.1562 0.2297
C10 C 0.7153(3) -0.0846(4) 0.1426(4)
H10 H 0.6723 -0.1381 0.1716
C11 C 0.9980(3) -0.0251(3) 0.1771(4)
C12 C 1.0622(4) 0.0686(4) 0.1722(4)
H11 H 1.0359 0.1398 0.1416
C13 C 1.1660(4) 0.0576(4) 0.2125(4)
H12 H 1.2077 0.1227 0.2081
C14 C 1.1477(4) -0.1318(4) 0.2593(4)
H13 H 1.1763 -0.2024 0.2886
C15 C 1.0438(3) -0.1288(4) 0.2209(4)
H14 H 1.0044 -0.1961 0.2243
O6B O 0.4901(2) -0.1720(2) 0.0837(3)
H3B H 0.5054 -0.2233 0.0359
H4B H 0.4610 -0.1888 0.1423
O7B O 0.5373(2) -0.0863(3) -0.1500(3)
H5B H 0.5790 -0.1433 -0.1490
H6B H 0.5027 -0.0952 -0.2177
N1B N 0.3276(3) 0.0029(3) -0.0699(3)
N2B N -0.2090(3) 0.0415(4) -0.2573(3)
C6B C 0.2637(4) -0.0718(4) -0.0334(4)
H7B H 0.2911 -0.1314 0.0169
C7B C 0.1582(3) -0.0680(4) -0.0647(4)
H8B H 0.1173 -0.1238 -0.0357
C8B C 0.1144(3) 0.0186(4) -0.1385(4)
C9B C 0.1804(3) 0.0962(4) -0.1786(4)
H9B H 0.1553 0.1562 -0.2297
C10B C 0.2847(3) 0.0846(4) -0.1426(4)
H10B H 0.3277 0.1381 -0.1716
C11B C 0.0020(3) 0.0251(3) -0.1771(4)
C12B C -0.0622(4) -0.0686(4) -0.1722(4)
H11B H -0.0359 -0.1398 -0.1416
C13B C -0.1660(4) -0.0576(4) -0.2125(4)
H12B H -0.2077 -0.1227 -0.2081
C14B C -0.1477(4) 0.1318(4) -0.2593(4)
H13B H -0.1763 0.2024 -0.2886
C15B C -0.0438(3) 0.1288(4) -0.2209(4)
H14B H -0.0044 0.1961 -0.2243
loop_
_geom_bond_atom_site_label_1
_geom_bond_atom_site_label_2
_geom_bond_site_symmetry_1
_geom_bond_site_symmetry_2
Mn1 O1 1_555 1_555
O1 C1 1_555 1_555
O2 C1 1_555 1_555
O3 Mn1 1_555 1_555
O4 C5 1_555 1_555
O5 Mn1 1_555 1_555
H1 O5 1_555 1_555
H2 O5 1_555 1_555
C1 C2 1_555 1_555
C2 C4 1_555 1_555
C3 S1 1_555 1_555
C4 C5 1_555 1_555
C5 O3 1_555 1_555
S1 C2 1_555 1_555
S2 C3 1_555 1_555
Mn2 O6 1_555 1_555
O6 H3 1_555 1_555
H4 O6 1_555 1_555
O7 Mn2 1_555 1_555
H5 O7 1_555 1_555
H6 O7 1_555 1_555
N1 Mn2 1_555 1_555
N2 C13 1_555 1_555
C6 N1 1_555 1_555
H7 C6 1_555 1_555
C7 C6 1_555 1_555
H8 C7 1_555 1_555
C8 C7 1_555 1_555
C9 C8 1_555 1_555
H9 C9 1_555 1_555
C10 N1 1_555 1_555
H10 C10 1_555 1_555
C11 C8 1_555 1_555
C12 C11 1_555 1_555
H11 C12 1_555 1_555
C13 C12 1_555 1_555
H12 C13 1_555 1_555
C14 N2 1_555 1_555
H13 C14 1_555 1_555
C15 C11 1_555 1_555
H14 C15 1_555 1_555
O1B C1B 1_555 1_555
O2B C1B 1_555 1_555
O3B C5B 1_555 1_555
O4B C5B 1_555 1_555
C1B C2B 1_555 1_555
C2B C4B 1_555 1_555
C3B C3 1_555 1_555
C4B C5B 1_555 1_555
S1B C2B 1_555 1_555
S2B C3B 1_555 1_555
O5B Mn1 1_555 1_555
H1B O5B 1_555 1_555
H2B O5B 1_555 1_555
Mn1_2 O1B 1_555 1_555
O1B_2 Mn1 1_555 1_555
O3B_2 Mn1 1_555 1_555
O6B Mn2 1_555 1_555
H3B O6B 1_555 1_555
H4B O6B 1_555 1_555
O7B Mn2 1_555 1_555
H5B O7B 1_555 1_555
H6B O7B 1_555 1_555
N1B Mn2 1_555 1_555
N2B C13B 1_555 1_555
C6B N1B 1_555 1_555
H7B C6B 1_555 1_555
C7B C6B 1_555 1_555
H8B C7B 1_555 1_555
C8B C7B 1_555 1_555
C9B C8B 1_555 1_555
H9B C9B 1_555 1_555
C10B N1B 1_555 1_555
H10B C10B 1_555 1_555
C11B C8B 1_555 1_555
C12B C11B 1_555 1_555
H11B C12B 1_555 1_555
C13B C12B 1_555 1_555
H12B C13B 1_555 1_555
C14B N2B 1_555 1_555
H13B C14B 1_555 1_555
C15B C11B 1_555 1_555
H14B C15B 1_555 1_555
C4 S2 1_555 1_555
C9 C10 1_555 1_555
C14 C15 1_555 1_555
O3B Mn1_2 1_555 1_555
C3B S1B 1_555 1_555
C4B S2B 1_555 1_555
C9B C10B 1_555 1_555
C14B C15B 1_555 1_555

#END
