
#######################################################################
#
#                 Cambridge Crystallographic Data Centre
#                                CCDC 
#
#######################################################################
#
# If this CIF has been generated from an entry in the Cambridge 
# Structural Database, then it will include bibliographic, chemical, 
# crystal, experimental, refinement or atomic coordinate data resulting 
# from the CCDC's data processing and validation procedures.
#
#######################################################################

data_KUMDAZ
_symmetry_cell_setting           monoclinic
_symmetry_space_group_name_H-M   'P 21/c'
_symmetry_Int_Tables_number      14
_space_group_name_Hall           '-P 2ybc'
loop_
_symmetry_equiv_pos_site_id
_symmetry_equiv_pos_as_xyz
1 x,y,z
2 -x,1/2+y,1/2-z
3 -x,-y,-z
4 x,1/2-y,1/2+z
_cell_length_a                   13.036(3)
_cell_length_b                   11.322(3)
_cell_length_c                   11.565(3)
_cell_angle_alpha                90
_cell_angle_beta                 98.705(5)
_cell_angle_gamma                90
_cell_volume                     1687.26
loop_
_atom_site_label
_atom_site_type_symbol
_atom_site_fract_x
_atom_site_fract_y
_atom_site_fract_z
Co1 Co 1.0000 0.0000 1.0000
O1 O 1.0102(2) 0.1683(3) 0.9256(3)
H1 H 1.0549 0.1948 0.8859
H2 H 0.9911 0.2297 0.9588
O2 O 1.0399(2) -0.0751(3) 0.8535(2)
H3 H 1.0804 -0.1342 0.8631
H4 H 1.0092 -0.0834 0.7837
N1 N 0.8345(3) 0.0059(4) 0.9318(3)
N2 N 0.2924(3) 0.0414(4) 0.7400(3)
C1 C 0.7914(3) 0.0845(5) 0.8555(4)
H5 H 0.8351 0.1360 0.8236
C2 C 0.6863(3) 0.0960(4) 0.8197(4)
H6 H 0.6611 0.1552 0.7672
C3 C 0.6184(3) 0.0194(4) 0.8619(4)
C4 C 0.6625(3) -0.0636(5) 0.9398(4)
H7 H 0.6204 -0.1174 0.9712
C5 C 0.7687(4) -0.0684(5) 0.9723(4)
H8 H 0.7958 -0.1264 1.0252
C6 C 0.5048(3) 0.0274(4) 0.8223(4)
C7 C 0.4588(3) 0.1311(5) 0.7787(4)
H9 H 0.4985 0.1991 0.7762
C8 C 0.3540(3) 0.1336(5) 0.7389(4)
H10 H 0.3248 0.2045 0.7094
C9 C 0.3364(4) -0.0572(5) 0.7847(4)
H11 H 0.2944 -0.1232 0.7872
C10 C 0.4402(3) -0.0681(5) 0.8276(4)
H12 H 0.4666 -0.1391 0.8599
O1B O 0.9898(2) -0.1683(3) 1.0744(3)
H1B H 0.9451 -0.1948 1.1141
H2B H 1.0089 -0.2297 1.0412
O2B O 0.9601(2) 0.0751(3) 1.1465(2)
H3B H 0.9196 0.1342 1.1369
H4B H 0.9908 0.0834 1.2163
N1B N 1.1655(3) -0.0059(4) 1.0682(3)
N2B N 1.7076(3) -0.0414(4) 1.2600(3)
C1B C 1.2086(3) -0.0845(5) 1.1445(4)
H5B H 1.1649 -0.1360 1.1764
C2B C 1.3137(3) -0.0960(4) 1.1803(4)
H6B H 1.3389 -0.1552 1.2328
C3B C 1.3816(3) -0.0194(4) 1.1381(4)
C4B C 1.3375(3) 0.0636(5) 1.0602(4)
H7B H 1.3796 0.1174 1.0288
C5B C 1.2313(4) 0.0684(5) 1.0277(4)
H8B H 1.2042 0.1264 0.9748
C6B C 1.4952(3) -0.0274(4) 1.1777(4)
C7B C 1.5412(3) -0.1311(5) 1.2213(4)
H9B H 1.5015 -0.1991 1.2238
C8B C 1.6460(3) -0.1336(5) 1.2611(4)
H10B H 1.6752 -0.2045 1.2906
C9B C 1.6636(4) 0.0572(5) 1.2153(4)
H11B H 1.7056 0.1232 1.2128
C10B C 1.5598(3) 0.0681(5) 1.1724(4)
H12B H 1.5334 0.1391 1.1401
Co2 Co 1.0000 1.0000 0.5000
O3 O 0.8995(2) 1.1444(3) 0.4886(3)
O4 O 0.8202(2) 1.2497(3) 0.6114(3)
O5 O 0.9277(2) 0.9390(3) 0.6346(2)
O6 O 0.8255(2) 0.7880(3) 0.6605(3)
O7 O 0.8996(2) 0.9017(3) 0.3769(3)
H13 H 0.9132 0.8610 0.3296
H14 H 0.8466 0.9399 0.3560
C11 C 0.8302(3) 1.1632(4) 0.5505(4)
C12 C 0.7420(3) 1.0727(4) 0.5460(4)
C13 C 0.5509(3) 1.0035(4) 0.5139(4)
C14 C 0.7466(3) 0.9601(4) 0.5761(4)
C15 C 0.8404(3) 0.8884(4) 0.6268(4)
S1 S 0.61992(9) 1.13509(11) 0.50263(11)
S2 S 0.62899(9) 0.88347(11) 0.56930(11)
O3B O 0.1005(2) 0.8556(3) 0.5114(3)
O4B O 0.1798(2) 0.7503(3) 0.3886(3)
O5B O 0.0723(2) 1.0610(3) 0.3654(2)
O6B O 0.1745(2) 1.2120(3) 0.3395(3)
C11B C 0.1698(3) 0.8368(4) 0.4495(4)
C12B C 0.2580(3) 0.9273(4) 0.4540(4)
C13B C 0.4491(3) 0.9965(4) 0.4861(4)
C14B C 0.2534(3) 1.0399(4) 0.4239(4)
C15B C 0.1596(3) 1.1116(4) 0.3732(4)
S1B S 0.38008(9) 0.86491(11) 0.49737(11)
S2B S 0.37101(9) 1.11653(11) 0.43070(11)
O7B O 1.1004(2) 1.0983(3) 0.6231(3)
H13B H 1.0868 1.1390 0.6704
H14B H 1.1534 1.0601 0.6440
Co2_2 Co 0.0000 1.0000 0.5000
O3B_2 O 1.1005(2) 0.8556(3) 0.5114(3)
O5B_2 O 1.0723(2) 1.0610(3) 0.3654(2)
loop_
_geom_bond_atom_site_label_1
_geom_bond_atom_site_label_2
_geom_bond_site_symmetry_1
_geom_bond_site_symmetry_2
Co1 O1 1_555 1_555
O1 H1 1_555 1_555
H2 O1 1_555 1_555
O2 Co1 1_555 1_555
H3 O2 1_555 1_555
H4 O2 1_555 1_555
N1 Co1 1_555 1_555
N2 C8 1_555 1_555
C1 N1 1_555 1_555
H5 C1 1_555 1_555
C2 C1 1_555 1_555
H6 C2 1_555 1_555
C3 C2 1_555 1_555
C4 C3 1_555 1_555
H7 C4 1_555 1_555
C5 N1 1_555 1_555
H8 C5 1_555 1_555
C6 C3 1_555 1_555
C7 C6 1_555 1_555
H9 C7 1_555 1_555
C8 C7 1_555 1_555
H10 C8 1_555 1_555
C9 N2 1_555 1_555
H11 C9 1_555 1_555
C10 C6 1_555 1_555
H12 C10 1_555 1_555
Co2 O3 1_555 1_555
O3 C11 1_555 1_555
O4 C11 1_555 1_555
O5 Co2 1_555 1_555
O6 C15 1_555 1_555
O7 Co2 1_555 1_555
H13 O7 1_555 1_555
H14 O7 1_555 1_555
C11 C12 1_555 1_555
C12 C14 1_555 1_555
C13 S1 1_555 1_555
C14 C15 1_555 1_555
C15 O5 1_555 1_555
S1 C12 1_555 1_555
S2 C13 1_555 1_555
O1B Co1 1_555 1_555
H1B O1B 1_555 1_555
H2B O1B 1_555 1_555
O2B Co1 1_555 1_555
H3B O2B 1_555 1_555
H4B O2B 1_555 1_555
N1B Co1 1_555 1_555
N2B C8B 1_555 1_555
C1B N1B 1_555 1_555
H5B C1B 1_555 1_555
C2B C1B 1_555 1_555
H6B C2B 1_555 1_555
C3B C2B 1_555 1_555
C4B C3B 1_555 1_555
H7B C4B 1_555 1_555
C5B N1B 1_555 1_555
H8B C5B 1_555 1_555
C6B C3B 1_555 1_555
C7B C6B 1_555 1_555
H9B C7B 1_555 1_555
C8B C7B 1_555 1_555
H10B C8B 1_555 1_555
C9B N2B 1_555 1_555
H11B C9B 1_555 1_555
C10B C6B 1_555 1_555
H12B C10B 1_555 1_555
O3B C11B 1_555 1_555
O4B C11B 1_555 1_555
O5B C15B 1_555 1_555
O6B C15B 1_555 1_555
C11B C12B 1_555 1_555
C12B C14B 1_555 1_555
C13B C13 1_555 1_555
C14B C15B 1_555 1_555
S1B C12B 1_555 1_555
S2B C13B 1_555 1_555
O7B Co2 1_555 1_555
H13B O7B 1_555 1_555
H14B O7B 1_555 1_555
Co2_2 O3B 1_555 1_555
O3B_2 Co2 1_555 1_555
O5B_2 Co2 1_555 1_555
C4 C5 1_555 1_555
C9 C10 1_555 1_555
C14 S2 1_555 1_555
C4B C5B 1_555 1_555
C9B C10B 1_555 1_555
O5B Co2_2 1_555 1_555
C13B S1B 1_555 1_555
C14B S2B 1_555 1_555

#END
