
#######################################################################
#
#                 Cambridge Crystallographic Data Centre
#                                CCDC 
#
#######################################################################
#
# If this CIF has been generated from an entry in the Cambridge 
# Structural Database, then it will include bibliographic, chemical, 
# crystal, experimental, refinement or atomic coordinate data resulting 
# from the CCDC's data processing and validation procedures.
#
#######################################################################

data_KUMDIH
_symmetry_cell_setting           monoclinic
_symmetry_space_group_name_H-M   'P 21/c'
_symmetry_Int_Tables_number      14
_space_group_name_Hall           '-P 2ybc'
loop_
_symmetry_equiv_pos_site_id
_symmetry_equiv_pos_as_xyz
1 x,y,z
2 -x,1/2+y,1/2-z
3 -x,-y,-z
4 x,1/2-y,1/2+z
_cell_length_a                   13.207(2)
_cell_length_b                   11.392(2)
_cell_length_c                   11.572(2)
_cell_angle_alpha                90
_cell_angle_beta                 98.798(4)
_cell_angle_gamma                90
_cell_volume                     1720.57
loop_
_atom_site_label
_atom_site_type_symbol
_atom_site_fract_x
_atom_site_fract_y
_atom_site_fract_z
O1 O 0.6074(3) 0.6447(5) 0.5162(5)
C1 C 0.9487(5) 0.5028(6) 0.4855(6)
C2 C 0.6635(5) 0.3887(7) 0.3716(6)
C3 C 0.6740(5) 0.6619(7) 0.4508(7)
O2 O 0.5778(3) 0.4409(5) 0.3635(4)
C4 C 0.7564(5) 0.4599(6) 0.4229(6)
C5 C 0.7601(4) 0.5737(6) 0.4560(6)
O3 O 0.6771(4) 0.2885(5) 0.3404(5)
O4 O 0.6783(4) 0.7453(5) 0.3840(5)
O5 O 0.3987(4) 0.6059(6) 0.3722(5)
H1 H 0.4256 0.6498 0.3258
H2 H 0.3607 0.5493 0.3444
Cu1 Cu 0.5000 0.5000 0.5000
S1 S 0.87237(12) 0.38449(16) 0.43019(17)
S2 S 0.88134(12) 0.63386(16) 0.49838(17)
O1B O 1.3926(3) 0.3553(5) 0.4838(5)
C1B C 1.0513(5) 0.4972(6) 0.5145(6)
C2B C 1.3365(5) 0.6113(7) 0.6284(6)
C3B C 1.3260(5) 0.3381(7) 0.5492(7)
O2B O 1.4222(3) 0.5591(5) 0.6365(4)
C4B C 1.2436(5) 0.5401(6) 0.5771(6)
C5B C 1.2399(4) 0.4263(6) 0.5440(6)
O3B O 1.3229(4) 0.7115(5) 0.6596(5)
O4B O 1.3217(4) 0.2547(5) 0.6160(5)
S1B S 1.12763(12) 0.61551(16) 0.56981(17)
S2B S 1.11866(12) 0.36614(16) 0.50162(17)
O5B O 0.6013(4) 0.3941(6) 0.6278(5)
H1B H 0.5744 0.3502 0.6742
H2B H 0.6393 0.4507 0.6556
O1B_2 O 0.3926(3) 0.3553(5) 0.4838(5)
O2B_2 O 0.4222(3) 0.5591(5) 0.6365(4)
Cu1_2 Cu 1.5000 0.5000 0.5000
C6 C 1.1469(6) -0.1331(8) 0.7577(7)
H3 H 1.1756 -0.2044 0.7846
C7 C 1.0434(5) -0.1289(8) 0.7211(7)
H4 H 1.0036 -0.1956 0.7259
C8 C 0.9980(5) -0.0254(6) 0.6770(6)
C9 C 1.0636(6) 0.0678(7) 0.6731(7)
H5 H 1.0377 0.1391 0.6425
C10 C 1.1654(6) 0.0580(8) 0.7128(8)
H6 H 1.2069 0.1234 0.7092
C11 C 0.8858(5) -0.0184(6) 0.6386(6)
C12 C 0.8196(5) -0.0959(7) 0.6801(7)
H7 H 0.8450 -0.1545 0.7326
C13 C 0.8411(6) 0.0682(7) 0.5636(7)
H8 H 0.8820 0.1238 0.5342
C14 C 0.7381(6) 0.0721(8) 0.5330(7)
H9 H 0.7108 0.1311 0.4820
N1 N 0.6725(5) -0.0033(5) 0.5713(5)
O6 O 0.5094(4) 0.1733(5) 0.4167(5)
H10 H 0.4909 0.2246 0.4586
H11 H 0.5686 0.1865 0.3992
N2 N 1.2084(5) -0.0417(7) 0.7569(6)
O7 O 0.4614(4) 0.0878(6) 0.6503(5)
H12 H 0.4748 0.0429 0.7094
H13 H 0.3976 0.1023 0.6397
Cu2 Cu 0.5000 0.0000 0.5000
C15 C 0.7147(5) -0.0860(7) 0.6431(7)
H14 H 0.6718 -0.1406 0.6705
C6B C -0.1469(6) 0.1331(8) 0.2423(7)
H3B H -0.1756 0.2044 0.2154
C7B C -0.0434(5) 0.1289(8) 0.2789(7)
H4B H -0.0036 0.1956 0.2741
C8B C 0.0020(5) 0.0254(6) 0.3230(6)
C9B C -0.0636(6) -0.0678(7) 0.3269(7)
H5B H -0.0377 -0.1391 0.3575
C10B C -0.1654(6) -0.0580(8) 0.2872(8)
H6B H -0.2069 -0.1234 0.2908
C11B C 0.1142(5) 0.0184(6) 0.3614(6)
C12B C 0.1804(5) 0.0959(7) 0.3199(7)
H7B H 0.1550 0.1545 0.2674
C13B C 0.1589(6) -0.0682(7) 0.4364(7)
H8B H 0.1180 -0.1238 0.4658
C14B C 0.2619(6) -0.0721(8) 0.4670(7)
H9B H 0.2892 -0.1311 0.5180
N1B N 0.3275(5) 0.0033(5) 0.4287(5)
O6B O 0.4906(4) -0.1733(5) 0.5833(5)
H10B H 0.5091 -0.2246 0.5414
H11B H 0.4314 -0.1865 0.6008
N2B N -0.2084(5) 0.0417(7) 0.2431(6)
O7B O 0.5386(4) -0.0878(6) 0.3497(5)
H12B H 0.5252 -0.0429 0.2906
H13B H 0.6024 -0.1023 0.3603
C15B C 0.2853(5) 0.0860(7) 0.3569(7)
H14B H 0.3282 0.1406 0.3295
loop_
_geom_bond_atom_site_label_1
_geom_bond_atom_site_label_2
_geom_bond_site_symmetry_1
_geom_bond_site_symmetry_2
O1 C3 1_555 1_555
C1 S1 1_555 1_555
C2 O2 1_555 1_555
C3 C5 1_555 1_555
O2 Cu1 1_555 1_555
C4 C2 1_555 1_555
C5 C4 1_555 1_555
O3 C2 1_555 1_555
O4 C3 1_555 1_555
O5 H1 1_555 1_555
H2 O5 1_555 1_555
Cu1 O1 1_555 1_555
S1 C4 1_555 1_555
S2 C1 1_555 1_555
C6 H3 1_555 1_555
C7 C6 1_555 1_555
H4 C7 1_555 1_555
C8 C7 1_555 1_555
C9 C8 1_555 1_555
H5 C9 1_555 1_555
C10 C9 1_555 1_555
H6 C10 1_555 1_555
C11 C8 1_555 1_555
C12 C11 1_555 1_555
H7 C12 1_555 1_555
C13 C11 1_555 1_555
H8 C13 1_555 1_555
C14 C13 1_555 1_555
H9 C14 1_555 1_555
N1 C14 1_555 1_555
O6 H10 1_555 1_555
H11 O6 1_555 1_555
N2 C6 1_555 1_555
O7 H12 1_555 1_555
H13 O7 1_555 1_555
Cu2 N1 1_555 1_555
C15 C12 1_555 1_555
H14 C15 1_555 1_555
O1B C3B 1_555 1_555
C1B C1 1_555 1_555
C2B O2B 1_555 1_555
C3B C5B 1_555 1_555
O2B Cu1_2 1_555 1_555
C4B C2B 1_555 1_555
C5B C4B 1_555 1_555
O3B C2B 1_555 1_555
O4B C3B 1_555 1_555
S1B C1B 1_555 1_555
S2B C1B 1_555 1_555
O5B Cu1 1_555 1_555
H1B O5B 1_555 1_555
H2B O5B 1_555 1_555
O1B_2 Cu1 1_555 1_555
O2B_2 Cu1 1_555 1_555
Cu1_2 O1B 1_555 1_555
C6B H3B 1_555 1_555
C7B C6B 1_555 1_555
H4B C7B 1_555 1_555
C8B C7B 1_555 1_555
C9B C8B 1_555 1_555
H5B C9B 1_555 1_555
C10B C9B 1_555 1_555
H6B C10B 1_555 1_555
C11B C8B 1_555 1_555
C12B C11B 1_555 1_555
H7B C12B 1_555 1_555
C13B C11B 1_555 1_555
H8B C13B 1_555 1_555
C14B C13B 1_555 1_555
H9B C14B 1_555 1_555
N1B Cu2 1_555 1_555
O6B Cu2 1_555 1_555
H10B O6B 1_555 1_555
H11B O6B 1_555 1_555
N2B C6B 1_555 1_555
O7B Cu2 1_555 1_555
H12B O7B 1_555 1_555
H13B O7B 1_555 1_555
C15B C12B 1_555 1_555
H14B C15B 1_555 1_555
C5 S2 1_555 1_555
O5 Cu1 1_555 1_555
C10 N2 1_555 1_555
N1 C15 1_555 1_555
O6 Cu2 1_555 1_555
O7 Cu2 1_555 1_555
C4B S1B 1_555 1_555
C5B S2B 1_555 1_555
C10B N2B 1_555 1_555
C14B N1B 1_555 1_555
N1B C15B 1_555 1_555

#END
