
#######################################################################
#
#                 Cambridge Crystallographic Data Centre
#                                CCDC 
#
#######################################################################
#
# If this CIF has been generated from an entry in the Cambridge 
# Structural Database, then it will include bibliographic, chemical, 
# crystal, experimental, refinement or atomic coordinate data resulting 
# from the CCDC's data processing and validation procedures.
#
#######################################################################

data_KUMDED
_symmetry_cell_setting           monoclinic
_symmetry_space_group_name_H-M   'P 21/c'
_symmetry_Int_Tables_number      14
_space_group_name_Hall           '-P 2ybc'
loop_
_symmetry_equiv_pos_site_id
_symmetry_equiv_pos_as_xyz
1 x,y,z
2 -x,1/2+y,1/2-z
3 -x,-y,-z
4 x,1/2-y,1/2+z
_cell_length_a                   13.1175(12)
_cell_length_b                   11.3809(10)
_cell_length_c                   11.5899(11)
_cell_angle_alpha                90
_cell_angle_beta                 98.5580(10)
_cell_angle_gamma                90
_cell_volume                     1710.98
loop_
_atom_site_label
_atom_site_type_symbol
_atom_site_fract_x
_atom_site_fract_y
_atom_site_fract_z
Fe1 Fe 0.5000 0.0000 0.0000
O1 O 0.48977(17) 0.1705(2) 0.0779(2)
H1 H 0.4758 0.1621 0.1467
H2 H 0.4412 0.2093 0.0385
O2 O 0.53952(19) 0.0831(2) -0.1488(2)
H3 H 0.4825 0.0853 -0.1945
H4 H 0.5638 0.0140 -0.1515
N1 N 0.6683(2) 0.0025(3) 0.0705(3)
N2 N 1.2086(2) 0.0434(3) 0.2591(3)
C1 C 0.7354(3) -0.0723(4) 0.0320(4)
H5 H 0.7087 -0.1318 -0.0187
C2 C 0.8394(3) -0.0665(3) 0.0622(3)
H6 H 0.8813 -0.1205 0.0315
C3 C 0.8834(3) 0.0195(3) 0.1383(3)
C4 C 0.8155(2) 0.0960(3) 0.1791(3)
H7 H 0.8403 0.1557 0.2305
C5 C 0.7106(3) 0.0842(3) 0.1438(3)
H8 H 0.6670 0.1370 0.1735
C6 C 0.9964(3) 0.0276(3) 0.1772(3)
C7 C 1.0624(3) -0.0667(3) 0.1727(3)
H9 H 1.0366 -0.1378 0.1411
C8 C 1.1651(3) -0.0562(4) 0.2146(4)
H10 H 1.2070 -0.1218 0.2119
C9 C 1.1467(3) 0.1351(4) 0.2596(4)
H11 H 1.1753 0.2062 0.2875
C10 C 1.0418(3) 0.1312(3) 0.2212(3)
H12 H 1.0018 0.1982 0.2249
O1B O 0.51023(17) -0.1705(2) -0.0779(2)
H1B H 0.5242 -0.1621 -0.1467
H2B H 0.5588 -0.2093 -0.0385
O2B O 0.46048(19) -0.0831(2) 0.1488(2)
H3B H 0.5175 -0.0853 0.1945
H4B H 0.4362 -0.0140 0.1515
N1B N 0.3317(2) -0.0025(3) -0.0705(3)
N2B N -0.2086(2) -0.0434(3) -0.2591(3)
C1B C 0.2646(3) 0.0723(4) -0.0320(4)
H5B H 0.2913 0.1318 0.0187
C2B C 0.1606(3) 0.0665(3) -0.0622(3)
H6B H 0.1187 0.1205 -0.0315
C3B C 0.1166(3) -0.0195(3) -0.1383(3)
C4B C 0.1845(2) -0.0960(3) -0.1791(3)
H7B H 0.1597 -0.1557 -0.2305
C5B C 0.2894(3) -0.0842(3) -0.1438(3)
H8B H 0.3330 -0.1370 -0.1735
C6B C 0.0036(3) -0.0276(3) -0.1772(3)
C7B C -0.0624(3) 0.0667(3) -0.1727(3)
H9B H -0.0366 0.1378 -0.1411
C8B C -0.1651(3) 0.0562(4) -0.2146(4)
H10B H -0.2070 0.1218 -0.2119
C9B C -0.1467(3) -0.1351(4) -0.2596(4)
H11B H -0.1753 -0.2062 -0.2875
C10B C -0.0418(3) -0.1312(3) -0.2212(3)
H12B H -0.0018 -0.1982 -0.2249
Fe2 Fe 0.5000 0.0000 0.5000
O3 O 0.57313(16) -0.0590(2) 0.3647(2)
O4 O 0.67572(17) -0.2101(2) 0.3395(3)
O5 O 0.60232(17) 0.1469(2) 0.5124(2)
O6 O 0.67950(19) 0.2494(2) 0.3867(3)
O7 O 0.39988(17) 0.1023(2) 0.3761(2)
H13 H 0.3421 0.0772 0.3420
H14 H 0.4120 0.1585 0.3317
C11 C 0.6610(3) -0.1096(3) 0.3730(3)
C12 C 0.7546(2) -0.0397(3) 0.4233(3)
C13 C 0.9492(2) 0.0037(3) 0.4854(3)
C14 C 0.7588(2) 0.0742(3) 0.4547(3)
C15 C 0.6717(2) 0.1633(3) 0.4509(3)
S1 S 0.88069(6) 0.13515(8) 0.49728(9)
S2 S 0.87130(6) -0.11562(8) 0.43016(9)
O3B O 1.42687(16) 0.0590(2) 0.6353(2)
O4B O 1.32428(17) 0.2101(2) 0.6605(3)
O5B O 1.39768(17) -0.1469(2) 0.4876(2)
O6B O 1.32050(19) -0.2494(2) 0.6133(3)
C11B C 1.3390(3) 0.1096(3) 0.6270(3)
C12B C 1.2454(2) 0.0397(3) 0.5767(3)
C13B C 1.0508(2) -0.0037(3) 0.5146(3)
C14B C 1.2412(2) -0.0742(3) 0.5453(3)
C15B C 1.3283(2) -0.1633(3) 0.5491(3)
S1B S 1.11931(6) -0.13515(8) 0.50272(9)
S2B S 1.12870(6) 0.11562(8) 0.56984(9)
O7B O 0.60012(17) -0.1023(2) 0.6239(2)
H13B H 0.6579 -0.0772 0.6580
H14B H 0.5880 -0.1585 0.6683
Fe2_2 Fe 1.5000 0.0000 0.5000
O3B_2 O 0.42687(16) 0.0590(2) 0.6353(2)
O5B_2 O 0.39768(17) -0.1469(2) 0.4876(2)
loop_
_geom_bond_atom_site_label_1
_geom_bond_atom_site_label_2
_geom_bond_site_symmetry_1
_geom_bond_site_symmetry_2
Fe1 O1 1_555 1_555
O1 H1 1_555 1_555
H2 O1 1_555 1_555
O2 Fe1 1_555 1_555
H3 O2 1_555 1_555
H4 O2 1_555 1_555
N1 Fe1 1_555 1_555
N2 C8 1_555 1_555
C1 N1 1_555 1_555
H5 C1 1_555 1_555
C2 C1 1_555 1_555
H6 C2 1_555 1_555
C3 C2 1_555 1_555
C4 C3 1_555 1_555
H7 C4 1_555 1_555
C5 N1 1_555 1_555
H8 C5 1_555 1_555
C6 C3 1_555 1_555
C7 C6 1_555 1_555
H9 C7 1_555 1_555
C8 C7 1_555 1_555
H10 C8 1_555 1_555
C9 N2 1_555 1_555
H11 C9 1_555 1_555
C10 C6 1_555 1_555
H12 C10 1_555 1_555
Fe2 O3 1_555 1_555
O3 C11 1_555 1_555
O4 C11 1_555 1_555
O5 Fe2 1_555 1_555
O6 C15 1_555 1_555
O7 Fe2 1_555 1_555
H13 O7 1_555 1_555
H14 O7 1_555 1_555
C11 C12 1_555 1_555
C12 C14 1_555 1_555
C13 S1 1_555 1_555
C14 C15 1_555 1_555
C15 O5 1_555 1_555
S1 C14 1_555 1_555
S2 C12 1_555 1_555
O1B Fe1 1_555 1_555
H1B O1B 1_555 1_555
H2B O1B 1_555 1_555
O2B Fe1 1_555 1_555
H3B O2B 1_555 1_555
H4B O2B 1_555 1_555
N1B Fe1 1_555 1_555
N2B C8B 1_555 1_555
C1B N1B 1_555 1_555
H5B C1B 1_555 1_555
C2B C1B 1_555 1_555
H6B C2B 1_555 1_555
C3B C2B 1_555 1_555
C4B C3B 1_555 1_555
H7B C4B 1_555 1_555
C5B N1B 1_555 1_555
H8B C5B 1_555 1_555
C6B C3B 1_555 1_555
C7B C6B 1_555 1_555
H9B C7B 1_555 1_555
C8B C7B 1_555 1_555
H10B C8B 1_555 1_555
C9B N2B 1_555 1_555
H11B C9B 1_555 1_555
C10B C6B 1_555 1_555
H12B C10B 1_555 1_555
O3B C11B 1_555 1_555
O4B C11B 1_555 1_555
O5B C15B 1_555 1_555
O6B C15B 1_555 1_555
C11B C12B 1_555 1_555
C12B C14B 1_555 1_555
C13B C13 1_555 1_555
C14B C15B 1_555 1_555
S1B C13B 1_555 1_555
S2B C12B 1_555 1_555
O7B Fe2 1_555 1_555
H13B O7B 1_555 1_555
H14B O7B 1_555 1_555
Fe2_2 O3B 1_555 1_555
O3B_2 Fe2 1_555 1_555
O5B_2 Fe2 1_555 1_555
C4 C5 1_555 1_555
C9 C10 1_555 1_555
C13 S2 1_555 1_555
C4B C5B 1_555 1_555
C9B C10B 1_555 1_555
O5B Fe2_2 1_555 1_555
C13B S2B 1_555 1_555
C14B S1B 1_555 1_555

#END
