
#######################################################################
#
#                 Cambridge Crystallographic Data Centre
#                                CCDC 
#
#######################################################################
#
# If this CIF has been generated from an entry in the Cambridge 
# Structural Database, then it will include bibliographic, chemical, 
# crystal, experimental, refinement or atomic coordinate data resulting 
# from the CCDC's data processing and validation procedures.
#
#######################################################################

data_KUMDON
_symmetry_cell_setting           monoclinic
_symmetry_space_group_name_H-M   'P 21/c'
_symmetry_Int_Tables_number      14
_space_group_name_Hall           '-P 2ybc'
loop_
_symmetry_equiv_pos_site_id
_symmetry_equiv_pos_as_xyz
1 x,y,z
2 -x,1/2+y,1/2-z
3 -x,-y,-z
4 x,1/2-y,1/2+z
_cell_length_a                   13.0626(19)
_cell_length_b                   11.3733(17)
_cell_length_c                   11.5376(17)
_cell_angle_alpha                90
_cell_angle_beta                 98.467(3)
_cell_angle_gamma                90
_cell_volume                     1695.4
loop_
_atom_site_label
_atom_site_type_symbol
_atom_site_fract_x
_atom_site_fract_y
_atom_site_fract_z
Zn1 Zn 1.0000 0.0000 0.5000
C1 C 0.8397(4) 0.1115(5) 0.6283(4)
C2 C 0.7458(3) 0.0403(4) 0.5765(4)
C3 C 0.5510(3) -0.0034(5) 0.5144(4)
C4 C 0.7424(3) -0.0728(4) 0.5448(4)
C5 C 0.8298(4) -0.1621(5) 0.5511(4)
O1 O 0.9272(2) 0.0602(3) 0.6363(3)
O2 O 0.8246(2) 0.2110(3) 0.6631(3)
O3 O 0.8991(2) -0.1438(3) 0.4872(3)
O4 O 0.8213(3) -0.2481(3) 0.6125(3)
O5 O 0.8992(2) 0.1007(3) 0.3768(3)
H1 H 0.9122 0.1400 0.3307
H2 H 0.8444 0.0653 0.3592
S1 S 0.62838(9) 0.11620(12) 0.57012(12)
S2 S 0.62011(9) -0.13444(12) 0.50269(12)
C1B C 0.1603(4) -0.1115(5) 0.3717(4)
C2B C 0.2542(3) -0.0403(4) 0.4235(4)
C3B C 0.4490(3) 0.0034(5) 0.4856(4)
C4B C 0.2576(3) 0.0728(4) 0.4552(4)
C5B C 0.1702(4) 0.1621(5) 0.4489(4)
O1B O 0.0728(2) -0.0602(3) 0.3637(3)
O2B O 0.1754(2) -0.2110(3) 0.3369(3)
O3B O 0.1009(2) 0.1438(3) 0.5128(3)
O4B O 0.1787(3) 0.2481(3) 0.3875(3)
S1B S 0.37162(9) -0.11620(12) 0.42988(12)
S2B S 0.37989(9) 0.13444(12) 0.49731(12)
O5B O 1.1008(2) -0.1007(3) 0.6232(3)
H1B H 1.0878 -0.1400 0.6693
H2B H 1.1556 -0.0653 0.6408
Zn1_2 Zn 0.0000 0.0000 0.5000
O1B_2 O 1.0728(2) -0.0602(3) 0.3637(3)
O3B_2 O 1.1009(2) 0.1438(3) 0.5128(3)
Zn2 Zn 1.0000 0.0000 1.0000
C6 C 0.7683(4) 0.0715(5) 0.9703(5)
H3 H 0.7955 0.1298 1.0226
C7 C 0.6620(4) 0.0671(5) 0.9380(5)
H4 H 0.6198 0.1222 0.9673
C8 C 0.6190(4) -0.0190(4) 0.8625(4)
C9 C 0.6864(4) -0.0959(5) 0.8215(4)
H5 H 0.6610 -0.1555 0.7700
C10 C 0.7920(4) -0.0850(5) 0.8564(4)
H6 H 0.8357 -0.1378 0.8264
C11 C 0.5058(4) -0.0265(4) 0.8232(4)
C12 C 0.4400(4) 0.0686(5) 0.8290(5)
H7 H 0.4658 0.1396 0.8612
C13 C 0.3363(4) 0.0570(5) 0.7869(5)
H8 H 0.2941 0.1224 0.7903
C14 C 0.3545(4) -0.1327(5) 0.7404(4)
H9 H 0.3256 -0.2034 0.7113
C15 C 0.4595(4) -0.1298(5) 0.7796(4)
H10 H 0.4991 -0.1974 0.7766
N1 N 0.8341(3) -0.0031(4) 0.9307(3)
N2 N 0.2925(3) -0.0411(4) 0.7417(4)
O6 O 0.9883(2) 0.1689(3) 1.0770(3)
H11 H 1.0128 0.2272 1.0441
H12 H 0.9469 0.2023 1.1169
O7 O 1.0416(3) 0.0746(3) 0.8531(3)
H13 H 1.0086 0.0774 0.7840
H14 H 1.0723 0.1407 0.8587
C6B C 1.2317(4) -0.0715(5) 1.0297(5)
H3B H 1.2045 -0.1298 0.9774
C7B C 1.3380(4) -0.0671(5) 1.0620(5)
H4B H 1.3802 -0.1222 1.0327
C8B C 1.3810(4) 0.0190(4) 1.1375(4)
C9B C 1.3136(4) 0.0959(5) 1.1785(4)
H5B H 1.3390 0.1555 1.2300
C10B C 1.2080(4) 0.0850(5) 1.1436(4)
H6B H 1.1643 0.1378 1.1736
C11B C 1.4942(4) 0.0265(4) 1.1768(4)
C12B C 1.5600(4) -0.0686(5) 1.1710(5)
H7B H 1.5342 -0.1396 1.1388
C13B C 1.6637(4) -0.0570(5) 1.2131(5)
H8B H 1.7059 -0.1224 1.2097
C14B C 1.6455(4) 0.1327(5) 1.2596(4)
H9B H 1.6744 0.2034 1.2887
C15B C 1.5405(4) 0.1298(5) 1.2204(4)
H10B H 1.5009 0.1974 1.2234
N1B N 1.1659(3) 0.0031(4) 1.0693(3)
N2B N 1.7075(3) 0.0411(4) 1.2583(4)
O6B O 1.0117(2) -0.1689(3) 0.9230(3)
H11B H 0.9872 -0.2272 0.9559
H12B H 1.0531 -0.2023 0.8831
O7B O 0.9584(3) -0.0746(3) 1.1469(3)
H13B H 0.9914 -0.0774 1.2160
H14B H 0.9277 -0.1407 1.1413
loop_
_geom_bond_atom_site_label_1
_geom_bond_atom_site_label_2
_geom_bond_site_symmetry_1
_geom_bond_site_symmetry_2
Zn1 O1 1_555 1_555
C1 C2 1_555 1_555
C2 C4 1_555 1_555
C3 S1 1_555 1_555
C4 C5 1_555 1_555
C5 O3 1_555 1_555
O1 C1 1_555 1_555
O2 C1 1_555 1_555
O3 Zn1 1_555 1_555
O4 C5 1_555 1_555
O5 Zn1 1_555 1_555
H1 O5 1_555 1_555
H2 O5 1_555 1_555
S1 C2 1_555 1_555
S2 C3 1_555 1_555
Zn2 N1 1_555 1_555
C6 H3 1_555 1_555
C7 C6 1_555 1_555
H4 C7 1_555 1_555
C8 C7 1_555 1_555
C9 C8 1_555 1_555
H5 C9 1_555 1_555
C10 C9 1_555 1_555
H6 C10 1_555 1_555
C11 C8 1_555 1_555
C12 C11 1_555 1_555
H7 C12 1_555 1_555
C13 C12 1_555 1_555
H8 C13 1_555 1_555
C14 H9 1_555 1_555
C15 C11 1_555 1_555
H10 C15 1_555 1_555
N1 C6 1_555 1_555
N2 C13 1_555 1_555
O6 Zn2 1_555 1_555
H11 O6 1_555 1_555
H12 O6 1_555 1_555
O7 Zn2 1_555 1_555
H13 O7 1_555 1_555
H14 O7 1_555 1_555
C1B C2B 1_555 1_555
C2B C4B 1_555 1_555
C3B C3 1_555 1_555
C4B C5B 1_555 1_555
C5B O3B 1_555 1_555
O1B C1B 1_555 1_555
O2B C1B 1_555 1_555
O3B Zn1_2 1_555 1_555
O4B C5B 1_555 1_555
S1B C2B 1_555 1_555
S2B C3B 1_555 1_555
O5B Zn1 1_555 1_555
H1B O5B 1_555 1_555
H2B O5B 1_555 1_555
Zn1_2 O1B 1_555 1_555
O1B_2 Zn1 1_555 1_555
O3B_2 Zn1 1_555 1_555
C6B H3B 1_555 1_555
C7B C6B 1_555 1_555
H4B C7B 1_555 1_555
C8B C7B 1_555 1_555
C9B C8B 1_555 1_555
H5B C9B 1_555 1_555
C10B C9B 1_555 1_555
H6B C10B 1_555 1_555
C11B C8B 1_555 1_555
C12B C11B 1_555 1_555
H7B C12B 1_555 1_555
C13B C12B 1_555 1_555
H8B C13B 1_555 1_555
C14B H9B 1_555 1_555
C15B C11B 1_555 1_555
H10B C15B 1_555 1_555
N1B Zn2 1_555 1_555
N2B C13B 1_555 1_555
O6B Zn2 1_555 1_555
H11B O6B 1_555 1_555
H12B O6B 1_555 1_555
O7B Zn2 1_555 1_555
H13B O7B 1_555 1_555
H14B O7B 1_555 1_555
C4 S2 1_555 1_555
C10 N1 1_555 1_555
C14 C15 1_555 1_555
C14 N2 1_555 1_555
C3B S1B 1_555 1_555
C4B S2B 1_555 1_555
C6B N1B 1_555 1_555
C10B N1B 1_555 1_555
C14B C15B 1_555 1_555
C14B N2B 1_555 1_555

#END
