
#######################################################################
#
#                 Cambridge Crystallographic Data Centre
#                                CCDC 
#
#######################################################################
#
# If this CIF has been generated from an entry in the Cambridge 
# Structural Database, then it will include bibliographic, chemical, 
# crystal, experimental, refinement or atomic coordinate data resulting 
# from the CCDC's data processing and validation procedures.
#
#######################################################################

data_KUMFOP
_symmetry_cell_setting           monoclinic
_symmetry_space_group_name_H-M   'P 21/c'
_symmetry_Int_Tables_number      14
_space_group_name_Hall           '-P 2ybc'
loop_
_symmetry_equiv_pos_site_id
_symmetry_equiv_pos_as_xyz
1 x,y,z
2 -x,1/2+y,1/2-z
3 -x,-y,-z
4 x,1/2-y,1/2+z
_cell_length_a                   9.915(2)
_cell_length_b                   11.932(2)
_cell_length_c                   26.450(7)
_cell_angle_alpha                90
_cell_angle_beta                 103.43(3)
_cell_angle_gamma                90
_cell_volume                     3043.62
loop_
_atom_site_label
_atom_site_type_symbol
_atom_site_fract_x
_atom_site_fract_y
_atom_site_fract_z
Ag1 Ag 0.84126(5) 0.11999(4) 0.92290(2)
O1 O 0.6385(5) 0.0834(4) 0.8488(2)
N1 N 0.9988(6) 0.0090(5) 1.0675(2)
N2 N 0.7788(5) 0.2676(4) 0.9638(2)
N3 N 0.7893(6) 0.0798(4) 1.0550(2)
N4 N 0.8323(5) 0.4464(4) 1.0044(2)
N5 N 0.6352(6) 0.3416(5) 1.0161(2)
N6 N 0.9670(6) 0.3717(5) 0.9539(2)
H1 H 0.9871 0.3180 0.9340
H2 H 1.0195 0.4319 0.9601
N7 N 0.6813(6) 0.5178(5) 1.0500(2)
H3 H 0.7331 0.5784 1.0564
H4 H 0.6061 0.5121 1.0621
C1 C 1.0096(8) 0.1124(6) 1.0926(3)
H5 H 1.0930 0.1460 1.1115
C2 C 0.8796(8) 0.1573(6) 1.0854(3)
H6 H 0.8554 0.2269 1.0983
C3 C 0.8678(7) -0.0079(6) 1.0461(3)
C4 C 0.8085(8) -0.1068(5) 1.0145(3)
H7 H 0.8838 -0.1523 1.0070
H8 H 0.7477 -0.0815 0.9818
H9 H 0.7550 -0.1518 1.0339
C5 C 0.6405(7) 0.0939(6) 1.0377(3)
H10 H 0.6067 0.1380 1.0639
H11 H 0.5957 0.0193 1.0352
C6 C 0.5972(6) 0.1525(5) 0.9852(3)
H12 H 0.6194 0.1045 0.9577
H13 H 0.4959 0.1661 0.9766
C7 C 0.6735(6) 0.2623(5) 0.9876(2)
C8 C 0.8576(6) 0.3618(5) 0.9743(2)
C9 C 0.7170(6) 0.4347(5) 1.0221(3)
O2 O 0.6372(6) -0.0743(5) 0.8946(2)
C10 C 0.6022(7) -0.0130(6) 0.8558(3)
C11 C 0.5019(8) -0.0703(7) 0.8096(3)
F1 F 0.4405(6) 0.0012(5) 0.7728(2)
F2 F 0.4011(6) -0.1274(5) 0.8246(2)
F3 F 0.5685(6) -0.1425(5) 0.7860(2)
Ag1B Ag 1.15874(5) -0.11999(4) 1.07710(2)
O1B O 1.3615(5) -0.0834(4) 1.1512(2)
N1B N 1.0012(6) -0.0090(5) 0.9325(2)
N2B N 1.2212(5) -0.2676(4) 1.0362(2)
N3B N 1.2107(6) -0.0798(4) 0.9450(2)
N4B N 1.1677(5) -0.4464(4) 0.9956(2)
N5B N 1.3648(6) -0.3416(5) 0.9839(2)
N6B N 1.0330(6) -0.3717(5) 1.0461(2)
H1B H 1.0129 -0.3180 1.0660
H2B H 0.9805 -0.4319 1.0399
N7B N 1.3187(6) -0.5178(5) 0.9500(2)
H3B H 1.2669 -0.5784 0.9436
H4B H 1.3939 -0.5121 0.9379
C1B C 0.9904(8) -0.1124(6) 0.9074(3)
H5B H 0.9070 -0.1460 0.8885
C2B C 1.1204(8) -0.1573(6) 0.9146(3)
H6B H 1.1446 -0.2269 0.9017
C3B C 1.1322(7) 0.0079(6) 0.9539(3)
C4B C 1.1915(8) 0.1068(5) 0.9855(3)
H7B H 1.1162 0.1523 0.9930
H8B H 1.2523 0.0815 1.0182
H9B H 1.2450 0.1518 0.9661
C5B C 1.3595(7) -0.0939(6) 0.9623(3)
H10B H 1.3933 -0.1380 0.9361
H11B H 1.4043 -0.0193 0.9648
C6B C 1.4028(6) -0.1525(5) 1.0148(3)
H12B H 1.3806 -0.1045 1.0423
H13B H 1.5041 -0.1661 1.0234
C7B C 1.3265(6) -0.2623(5) 1.0124(2)
C8B C 1.1424(6) -0.3618(5) 1.0257(2)
C9B C 1.2830(6) -0.4347(5) 0.9779(3)
O2B O 1.3628(6) 0.0743(5) 1.1054(2)
C10B C 1.3978(7) 0.0130(6) 1.1442(3)
C11B C 1.4981(8) 0.0703(7) 1.1904(3)
F1B F 1.5595(6) -0.0012(5) 1.2272(2)
F2B F 1.5989(6) 0.1274(5) 1.1754(2)
F3B F 1.4315(6) 0.1425(5) 1.2140(2)
Ag2 Ag -0.25651(5) 0.26364(4) 0.80074(2)
N8 N -0.2053(6) 0.1649(5) 0.7409(2)
N9 N 0.3078(6) -0.0989(4) 0.65362(19)
N10 N -0.0923(6) 0.1058(4) 0.6841(2)
N11 N 0.4535(6) -0.0118(5) 0.6051(2)
N12 N 0.2671(6) 0.0910(5) 0.6276(2)
N13 N 0.4934(6) -0.1938(5) 0.6344(2)
H14 H 0.5657 -0.1966 0.6205
H15 H 0.4712 -0.2526 0.6509
N14 N 0.4110(7) 0.1725(5) 0.5815(3)
H16 H 0.4805 0.1705 0.5661
H17 H 0.3629 0.2346 0.5813
C12 C -0.2586(7) 0.0636(7) 0.7223(3)
H18 H -0.3318 0.0257 0.7328
C13 C -0.1906(8) 0.0247(7) 0.6863(3)
H19 H -0.2072 -0.0431 0.6670
C14 C -0.1031(7) 0.1898(6) 0.7169(3)
C15 C -0.0207(8) 0.2945(7) 0.7246(3)
H20 H -0.0627 0.3492 0.6979
H21 H 0.0743 0.2784 0.7219
H22 H -0.0192 0.3253 0.7591
C16 C 0.0133(7) 0.0942(6) 0.6542(3)
H23 H 0.0629 0.1663 0.6546
H24 H -0.0319 0.0764 0.6177
C17 C 0.1173(7) 0.0025(6) 0.6761(3)
H25 H 0.1531 0.0151 0.7138
H26 H 0.0693 -0.0708 0.6716
C18 C 0.2370(7) -0.0016(5) 0.6504(2)
C19 C 0.4169(7) -0.1001(5) 0.6306(3)
C20 C 0.3783(7) 0.0814(6) 0.6054(3)
Ag2A Ag 0.25651(5) -0.23636(4) 0.69926(2)
N9A N -0.3078(6) 0.4011(4) 0.84638(19)
O3 O 0.0144(6) 0.2323(4) 0.8673(2)
O4 O 0.2338(5) 0.2899(4) 0.8916(2)
C21 C 0.1389(7) 0.2280(5) 0.8678(3)
C22 C 0.1906(7) 0.1323(6) 0.8374(3)
F4 F 0.2377(5) 0.1749(4) 0.79784(17)
F5 F 0.2966(5) 0.0779(4) 0.86745(18)
F6 F 0.0924(6) 0.0582(4) 0.8174(2)
loop_
_geom_bond_atom_site_label_1
_geom_bond_atom_site_label_2
_geom_bond_site_symmetry_1
_geom_bond_site_symmetry_2
Ag1 O1 1_555 1_555
O1 C10 1_555 1_555
N1 C1 1_555 1_555
N2 Ag1 1_555 1_555
N3 C2 1_555 1_555
N4 C8 1_555 1_555
N5 C7 1_555 1_555
N6 H1 1_555 1_555
H2 N6 1_555 1_555
N7 H3 1_555 1_555
H4 N7 1_555 1_555
C1 H5 1_555 1_555
C2 C1 1_555 1_555
H6 C2 1_555 1_555
C3 N1 1_555 1_555
C4 C3 1_555 1_555
H7 C4 1_555 1_555
H8 C4 1_555 1_555
H9 C4 1_555 1_555
C5 N3 1_555 1_555
H10 C5 1_555 1_555
H11 C5 1_555 1_555
C6 C5 1_555 1_555
H12 C6 1_555 1_555
H13 C6 1_555 1_555
C7 N2 1_555 1_555
C8 N2 1_555 1_555
C9 N4 1_555 1_555
O2 C10 1_555 1_555
C10 C11 1_555 1_555
C11 F1 1_555 1_555
F2 C11 1_555 1_555
F3 C11 1_555 1_555
Ag2 N8 1_555 1_555
N8 C12 1_555 1_555
N9 C18 1_555 1_555
N10 C13 1_555 1_555
N11 C19 1_555 1_555
N12 C18 1_555 1_555
N13 H14 1_555 1_555
H15 N13 1_555 1_555
N14 H16 1_555 1_555
H17 N14 1_555 1_555
C12 H18 1_555 1_555
C13 C12 1_555 1_555
H19 C13 1_555 1_555
C14 N8 1_555 1_555
C15 C14 1_555 1_555
H20 C15 1_555 1_555
H21 C15 1_555 1_555
H22 C15 1_555 1_555
C16 N10 1_555 1_555
H23 C16 1_555 1_555
H24 C16 1_555 1_555
C17 C16 1_555 1_555
H25 C17 1_555 1_555
H26 C17 1_555 1_555
C18 C17 1_555 1_555
C19 N9 1_555 1_555
C20 N11 1_555 1_555
O3 C21 1_555 1_555
O4 C21 1_555 1_555
C21 C22 1_555 1_555
C22 F4 1_555 1_555
F5 C22 1_555 1_555
F6 C22 1_555 1_555
Ag1B N1 1_555 1_555
O1B Ag1B 1_555 1_555
N1B Ag1 1_555 1_555
N2B Ag1B 1_555 1_555
N3B C2B 1_555 1_555
N4B C8B 1_555 1_555
N5B C7B 1_555 1_555
N6B H1B 1_555 1_555
H2B N6B 1_555 1_555
N7B H3B 1_555 1_555
H4B N7B 1_555 1_555
C1B N1B 1_555 1_555
H5B C1B 1_555 1_555
C2B C1B 1_555 1_555
H6B C2B 1_555 1_555
C3B N1B 1_555 1_555
C4B C3B 1_555 1_555
H7B C4B 1_555 1_555
H8B C4B 1_555 1_555
H9B C4B 1_555 1_555
C5B N3B 1_555 1_555
H10B C5B 1_555 1_555
H11B C5B 1_555 1_555
C6B C5B 1_555 1_555
H12B C6B 1_555 1_555
H13B C6B 1_555 1_555
C7B N2B 1_555 1_555
C8B N2B 1_555 1_555
C9B N4B 1_555 1_555
O2B C10B 1_555 1_555
C10B O1B 1_555 1_555
C11B C10B 1_555 1_555
F1B C11B 1_555 1_555
F2B C11B 1_555 1_555
F3B C11B 1_555 1_555
Ag2A N9 1_555 1_555
N9A Ag2 1_555 1_555
N3 C3 1_555 1_555
N5 C9 1_555 1_555
N6 C8 1_555 1_555
N7 C9 1_555 1_555
C6 C7 1_555 1_555
N10 C14 1_555 1_555
N12 C20 1_555 1_555
N13 C19 1_555 1_555
N14 C20 1_555 1_555
N3B C3B 1_555 1_555
N5B C9B 1_555 1_555
N6B C8B 1_555 1_555
N7B C9B 1_555 1_555
C6B C7B 1_555 1_555

#END
