
#######################################################################
#
#                 Cambridge Crystallographic Data Centre
#                                CCDC 
#
#######################################################################
#
# If this CIF has been generated from an entry in the Cambridge 
# Structural Database, then it will include bibliographic, chemical, 
# crystal, experimental, refinement or atomic coordinate data resulting 
# from the CCDC's data processing and validation procedures.
#
#######################################################################

data_KUMGOQ
_symmetry_cell_setting           monoclinic
_symmetry_space_group_name_H-M   'P 21/c'
_symmetry_Int_Tables_number      14
_space_group_name_Hall           '-P 2ybc'
loop_
_symmetry_equiv_pos_site_id
_symmetry_equiv_pos_as_xyz
1 x,y,z
2 -x,1/2+y,1/2-z
3 -x,-y,-z
4 x,1/2-y,1/2+z
_cell_length_a                   9.2823(19)
_cell_length_b                   14.575(3)
_cell_length_c                   19.371(4)
_cell_angle_alpha                90
_cell_angle_beta                 98.05(3)
_cell_angle_gamma                90
_cell_volume                     2594.87
loop_
_atom_site_label
_atom_site_type_symbol
_atom_site_fract_x
_atom_site_fract_y
_atom_site_fract_z
W1 W 0.22714(3) 0.310955(15) 0.349902(10)
Cu1 Cu 0.11694(8) 0.14224(5) 0.31144(3)
Cu2 Cu 0.20178(8) 0.36407(5) 0.21391(3)
Cu3 Cu 0.24557(8) 0.26692(5) 0.48306(3)
S1 S 0.03373(16) 0.28398(10) 0.27103(7)
S2 S 0.30570(18) 0.17558(10) 0.39802(7)
S3 S 0.39869(19) 0.37476(12) 0.30001(8)
S4 S 0.16465(19) 0.39880(10) 0.43416(7)
N1 N 0.2412(6) 0.0881(3) 0.2326(2)
N2 N 0.2500(5) 0.3039(3) 0.1298(3)
N3 N -0.0966(6) -0.0168(4) 0.3129(3)
N4 N 0.3978(5) -0.0578(3) 0.0195(2)
N5 N 0.5413(5) 0.0776(3) 0.0372(2)
C1 C -0.0214(7) 0.0453(4) 0.3181(3)
C2 C 0.2561(6) 0.2732(4) 0.0758(3)
C3 C 0.1760(7) 0.0334(4) 0.1826(3)
H1 H 0.0845 0.0106 0.1876
C4 C 0.2352(7) 0.0083(4) 0.1241(3)
H2 H 0.1848 -0.0293 0.0902
C5 C 0.3723(6) 0.0410(4) 0.1177(3)
C6 C 0.4426(6) 0.0962(4) 0.1692(3)
H3 H 0.5358 0.1180 0.1665
C7 C 0.3726(7) 0.1183(4) 0.2246(3)
H4 H 0.4200 0.1568 0.2588
C8 C 0.4422(6) 0.0195(4) 0.0545(3)
N1B N 0.7588(6) -0.0881(3) -0.2326(2)
N4B N 0.6022(5) 0.0578(3) -0.0195(2)
N5B N 0.4587(5) -0.0776(3) -0.0372(2)
C3B C 0.8240(7) -0.0334(4) -0.1826(3)
H1B H 0.9155 -0.0106 -0.1876
C4B C 0.7648(7) -0.0083(4) -0.1241(3)
H2B H 0.8152 0.0293 -0.0902
C5B C 0.6277(6) -0.0410(4) -0.1177(3)
C6B C 0.5574(6) -0.0962(4) -0.1692(3)
H3B H 0.4642 -0.1180 -0.1665
C7B C 0.6274(7) -0.1183(4) -0.2246(3)
H4B H 0.5800 -0.1568 -0.2588
C8B C 0.5578(6) -0.0195(4) -0.0545(3)
W1B W 0.77286(3) -0.310955(15) -0.349902(10)
Cu1B Cu 0.88306(8) -0.14224(5) -0.31144(3)
Cu2B Cu 0.79822(8) -0.36407(5) -0.21391(3)
Cu3B Cu 0.75443(8) -0.26692(5) -0.48306(3)
S1B S 0.96627(16) -0.28398(10) -0.27103(7)
S2B S 0.69430(18) -0.17558(10) -0.39802(7)
S3B S 0.60131(19) -0.37476(12) -0.30001(8)
S4B S 0.83535(19) -0.39880(10) -0.43416(7)
N2B N 0.7500(5) -0.3039(3) -0.1298(3)
N3B N 1.0966(6) 0.0168(4) -0.3129(3)
C1B C 1.0214(7) -0.0453(4) -0.3181(3)
C2B C 0.7439(6) -0.2732(4) -0.0758(3)
Cu2A Cu -0.20178(8) -0.13593(5) 0.28609(3)
Cu2C Cu 1.20178(8) 0.13593(5) -0.28609(3)
Cu3A Cu 0.75443(8) -0.23308(5) 0.01694(3)
Cu3C Cu 0.24557(8) 0.23308(5) -0.01694(3)
N3A N 0.0966(6) 0.4832(4) 0.1871(3)
N3C N 0.9034(6) -0.4832(4) -0.1871(3)
C2A C 0.7439(6) -0.2268(4) -0.5758(3)
C2C C 0.2561(6) 0.2268(4) 0.5758(3)
N6 N 0.7608(6) 0.3307(3) 0.0258(3)
C9 C 0.6728(11) 0.3886(7) 0.1388(4)
H5 H 0.7378 0.3527 0.1709
H6 H 0.5848 0.4001 0.1581
H7 H 0.7183 0.4459 0.1303
C10 C 0.6373(7) 0.3368(5) 0.0708(4)
H8 H 0.6083 0.2749 0.0812
H9 H 0.5542 0.3660 0.0434
C11 C 0.8749(10) 0.1900(5) 0.0905(5)
H10 H 0.7992 0.1898 0.1195
H11 H 0.9643 0.1698 0.1171
H12 H 0.8491 0.1494 0.0517
C12 C 0.8941(8) 0.2866(5) 0.0638(4)
H13 H 0.9309 0.3251 0.1031
H14 H 0.9678 0.2850 0.0329
C13 C 0.8067(8) 0.4266(5) 0.0037(4)
H15 H 0.8401 0.4619 0.0454
H16 H 0.8883 0.4199 -0.0222
C14 C 0.6883(11) 0.4798(5) -0.0402(5)
H17 H 0.6424 0.4413 -0.0771
H18 H 0.7298 0.5324 -0.0598
H19 H 0.6174 0.4995 -0.0118
C15 C 0.6987(7) 0.2751(4) -0.0383(4)
H20 H 0.6690 0.2156 -0.0228
H21 H 0.6119 0.3059 -0.0607
C16 C 0.7989(10) 0.2599(5) -0.0922(5)
H22 H 0.8213 0.3178 -0.1118
H23 H 0.7521 0.2208 -0.1284
H24 H 0.8871 0.2315 -0.0706
loop_
_geom_bond_atom_site_label_1
_geom_bond_atom_site_label_2
_geom_bond_site_symmetry_1
_geom_bond_site_symmetry_2
W1 S1 1_555 1_555
Cu1 S1 1_555 1_555
Cu2 S1 1_555 1_555
Cu3 S2 1_555 1_555
S2 W1 1_555 1_555
S3 W1 1_555 1_555
S4 W1 1_555 1_555
N1 Cu1 1_555 1_555
N2 Cu2 1_555 1_555
N3 C1 1_555 1_555
N4 C8 1_555 1_555
N5 C8 1_555 1_555
C1 Cu1 1_555 1_555
C2 N2 1_555 1_555
C3 N1 1_555 1_555
H1 C3 1_555 1_555
C4 C3 1_555 1_555
H2 C4 1_555 1_555
C5 C4 1_555 1_555
C6 C5 1_555 1_555
H3 C6 1_555 1_555
C7 N1 1_555 1_555
H4 C7 1_555 1_555
C8 C5 1_555 1_555
N6 C10 1_555 1_555
C9 H5 1_555 1_555
H6 C9 1_555 1_555
H7 C9 1_555 1_555
C10 C9 1_555 1_555
H8 C10 1_555 1_555
H9 C10 1_555 1_555
C11 H10 1_555 1_555
H11 C11 1_555 1_555
H12 C11 1_555 1_555
C12 N6 1_555 1_555
H13 C12 1_555 1_555
H14 C12 1_555 1_555
C13 N6 1_555 1_555
H15 C13 1_555 1_555
H16 C13 1_555 1_555
C14 C13 1_555 1_555
H17 C14 1_555 1_555
H18 C14 1_555 1_555
H19 C14 1_555 1_555
C15 N6 1_555 1_555
H20 C15 1_555 1_555
H21 C15 1_555 1_555
C16 C15 1_555 1_555
H22 C16 1_555 1_555
H23 C16 1_555 1_555
H24 C16 1_555 1_555
N1B C3B 1_555 1_555
N4B N5 1_555 1_555
N5B N4 1_555 1_555
C3B H1B 1_555 1_555
C4B C3B 1_555 1_555
H2B C4B 1_555 1_555
C5B C4B 1_555 1_555
C6B C5B 1_555 1_555
H3B C6B 1_555 1_555
C7B N1B 1_555 1_555
H4B C7B 1_555 1_555
C8B N4B 1_555 1_555
W1B S1B 1_555 1_555
Cu1B N1B 1_555 1_555
Cu2B S1B 1_555 1_555
Cu3B S2B 1_555 1_555
S1B Cu1B 1_555 1_555
S2B W1B 1_555 1_555
S3B W1B 1_555 1_555
S4B W1B 1_555 1_555
N2B Cu2B 1_555 1_555
N3B C1B 1_555 1_555
C1B Cu1B 1_555 1_555
C2B N2B 1_555 1_555
Cu2A N3 1_555 1_555
Cu2C N3B 1_555 1_555
Cu3A C2B 1_555 1_555
Cu3C C2 1_555 1_555
N3A Cu2 1_555 1_555
N3C Cu2B 1_555 1_555
C2A Cu3B 1_555 1_555
C2C Cu3 1_555 1_555
Cu1 S2 1_555 1_555
Cu2 S3 1_555 1_555
Cu3 S4 1_555 1_555
C6 C7 1_555 1_555
C11 C12 1_555 1_555
N5B C8B 1_555 1_555
C5B C8B 1_555 1_555
C6B C7B 1_555 1_555
Cu1B S2B 1_555 1_555
Cu2B S3B 1_555 1_555
Cu3B S4B 1_555 1_555

#END
