
#######################################################################
#
#                 Cambridge Crystallographic Data Centre
#                                CCDC 
#
#######################################################################
#
# If this CIF has been generated from an entry in the Cambridge 
# Structural Database, then it will include bibliographic, chemical, 
# crystal, experimental, refinement or atomic coordinate data resulting 
# from the CCDC's data processing and validation procedures.
#
#######################################################################

data_KUMHEH
_symmetry_cell_setting           monoclinic
_symmetry_space_group_name_H-M   'P 21/c'
_symmetry_Int_Tables_number      14
_space_group_name_Hall           '-P 2ybc'
loop_
_symmetry_equiv_pos_site_id
_symmetry_equiv_pos_as_xyz
1 x,y,z
2 -x,1/2+y,1/2-z
3 -x,-y,-z
4 x,1/2-y,1/2+z
_cell_length_a                   3.8368(8)
_cell_length_b                   15.477(3)
_cell_length_c                   14.037(3)
_cell_angle_alpha                90
_cell_angle_beta                 93.47(3)
_cell_angle_gamma                90
_cell_volume                     832.019
loop_
_atom_site_label
_atom_site_type_symbol
_atom_site_fract_x
_atom_site_fract_y
_atom_site_fract_z
Cu1 Cu 0.3318(2) 0.40062(5) 0.57498(5)
Cl1 Cl -0.0756(4) 0.37090(12) 0.68620(12)
N1 N 0.5373(13) 0.4119(3) 0.4484(4)
N2 N 0.6590(14) 0.4759(4) 0.3933(4)
N3 N 0.3296(13) 0.2727(4) 0.5354(4)
C1 C 0.4387(17) 0.2590(5) 0.4470(5)
C2 C 0.4383(18) 0.1786(5) 0.4071(5)
H1 H 0.5076 0.1711 0.3453
C3 C 0.336(2) 0.1092(5) 0.4583(6)
H2 H 0.3325 0.0541 0.4320
C4 C 0.2371(19) 0.1227(5) 0.5499(6)
H3 H 0.1748 0.0763 0.5874
C5 C 0.2318(18) 0.2042(5) 0.5848(5)
H4 H 0.1568 0.2128 0.6459
C6 C 0.5513(16) 0.3364(5) 0.4002(4)
C7 C 0.6864(18) 0.3523(5) 0.3125(5)
H5 H 0.7260 0.3124 0.2648
C8 C 0.7491(18) 0.4396(5) 0.3108(5)
H6 H 0.8402 0.4693 0.2604
Cu1_2 Cu -0.6682(2) 0.40062(5) 0.57498(5)
Cu1B Cu 0.6682(2) 0.59938(5) 0.42502(5)
Cl1_2 Cl 0.9244(4) 0.37090(12) 0.68620(12)
N2B N 0.3410(14) 0.5241(4) 0.6067(4)
loop_
_geom_bond_atom_site_label_1
_geom_bond_atom_site_label_2
_geom_bond_site_symmetry_1
_geom_bond_site_symmetry_2
Cu1 Cl1 1_555 1_555
Cl1 Cu1_2 1_555 1_555
N1 Cu1 1_555 1_555
N2 N1 1_555 1_555
N3 Cu1 1_555 1_555
C1 N3 1_555 1_555
C2 C1 1_555 1_555
H1 C2 1_555 1_555
C3 C2 1_555 1_555
H2 C3 1_555 1_555
C4 C3 1_555 1_555
H3 C4 1_555 1_555
C5 N3 1_555 1_555
H4 C5 1_555 1_555
C6 N1 1_555 1_555
C7 C6 1_555 1_555
H5 C7 1_555 1_555
C8 N2 1_555 1_555
H6 C8 1_555 1_555
Cu1B N2 1_555 1_555
Cl1_2 Cu1 1_555 1_555
N2B Cu1 1_555 1_555
C1 C6 1_555 1_555
C4 C5 1_555 1_555
C7 C8 1_555 1_555

#END
