
#######################################################################
#
#                 Cambridge Crystallographic Data Centre
#                                CCDC 
#
#######################################################################
#
# If this CIF has been generated from an entry in the Cambridge 
# Structural Database, then it will include bibliographic, chemical, 
# crystal, experimental, refinement or atomic coordinate data resulting 
# from the CCDC's data processing and validation procedures.
#
#######################################################################

data_KUMXEW
_symmetry_cell_setting           triclinic
_symmetry_space_group_name_H-M   'P -1'
_symmetry_Int_Tables_number      2
_space_group_name_Hall           '-P 1'
loop_
_symmetry_equiv_pos_site_id
_symmetry_equiv_pos_as_xyz
1 x,y,z
2 -x,-y,-z
_cell_length_a                   9.816(4)
_cell_length_b                   13.132(5)
_cell_length_c                   14.900(7)
_cell_angle_alpha                98.97(1)
_cell_angle_beta                 90.62(2)
_cell_angle_gamma                108.30(1)
_cell_volume                     1797.56
loop_
_atom_site_label
_atom_site_type_symbol
_atom_site_fract_x
_atom_site_fract_y
_atom_site_fract_z
N1 N 0.3083(11) 0.6393(8) 0.4867(7)
N2 N -0.3614(11) 0.3902(8) 0.0992(7)
C1 C -0.2685(13) 0.3436(11) 0.0587(8)
H1 H -0.1785 0.3830 0.0423
N3 N -0.1736(10) 0.5808(8) 0.2558(7)
N4 N 0.1570(11) 0.4022(8) 0.3687(7)
N5 N 0.0225(10) 0.5917(8) 0.3415(7)
C2 C 0.4332(15) 0.7199(11) 0.4944(9)
H2 H 0.4777 0.7498 0.4455
C3 C -0.0613(14) 0.7059(10) 0.0779(8)
H3 H -0.0202 0.7283 0.1372
C4 C -0.0535(14) 0.5529(11) 0.2630(8)
H4 H -0.0261 0.5094 0.2160
C5 C -0.2071(13) 0.6197(11) -0.0346(9)
H5 H -0.2850 0.5711 -0.0711
N6 N 0.4878(12) 0.7531(8) 0.5822(7)
C6 C -0.1695(13) 0.6459(10) 0.3387(9)
H6 H -0.2368 0.6803 0.3564
C7 C -0.0520(16) 0.6515(11) 0.3900(10)
H7 H -0.0261 0.6899 0.4489
C8 C 0.2506(14) 0.3521(10) 0.3918(9)
H8 H 0.3420 0.3893 0.4192
C9 C 0.3469(14) 0.6643(11) 0.2089(9)
H9 H 0.2862 0.7050 0.2027
C10 C 0.4457(12) 0.5538(10) 0.2536(8)
H10 H 0.4652 0.5042 0.2859
C11 C 0.4605(14) 0.6618(11) 0.1577(10)
H11 H 0.4913 0.7023 0.1115
C12 C 0.5629(14) 0.9920(11) 0.7539(9)
H12 H 0.4824 0.9777 0.7146
C13 C 0.7644(15) 0.9955(11) 0.8130(9)
H13 H 0.8508 0.9821 0.8215
C14 C -0.0953(14) 0.6939(10) -0.0628(8)
H14 H -0.0856 0.7055 -0.1227
C15 C 0.5904(15) 1.0571(12) 0.8346(9)
H15 H 0.5303 1.0941 0.8610
N7 N -0.1971(11) 0.0469(9) 0.0828(7)
C16 C 0.2834(14) 0.6198(11) 0.5751(9)
H16 H 0.2055 0.5662 0.5920
C17 C 0.3889(14) 0.6901(11) 0.6318(9)
H17 H 0.3944 0.6954 0.6948
C18 C 0.0414(15) 0.3204(11) 0.3321(10)
H18 H -0.0431 0.3282 0.3102
C19 C -0.4778(13) 0.3055(10) 0.1101(9)
H19 H -0.5615 0.3112 0.1359
C20 C 0.7354(18) 1.0569(13) 0.5380(11)
H20 H 0.7207 1.0984 0.5913
C21 C 0.769(2) 0.9298(12) 0.4467(12)
H21 H 0.7803 0.8636 0.4223
C22 C -0.2134(15) 0.0715(12) 0.1738(10)
H22 H -0.2266 0.1361 0.2011
C23 C -0.1872(17) -0.0550(12) 0.0768(12)
H23 H -0.1771 -0.0977 0.0229
N8 N -0.3182(11) 0.2362(8) 0.0446(7)
N9 N 0.1986(11) 0.2449(8) 0.3714(7)
N10 N -0.2085(12) -0.0069(10) 0.2188(8)
N11 N 0.7737(14) 1.0058(9) 0.3975(8)
C24 C 0.0646(14) 0.2267(13) 0.3316(11)
H24 H 0.0000 0.1587 0.3078
C25 C -0.4528(13) 0.2096(11) 0.0769(10)
H25 H -0.5156 0.1397 0.0766
C26 C -0.1939(17) -0.0856(13) 0.1580(12)
H26 H -0.1890 -0.1519 0.1697
C27 C 0.7489(18) 1.0882(13) 0.4589(10)
H27 H 0.7430 1.1538 0.4458
Zn1 Zn 0.20227(15) 0.56037(12) 0.37048(10)
Zn2 Zn -0.19690(15) 0.14228(11) -0.00493(10)
Zn3 Zn -0.30746(15) 0.54791(11) 0.14552(10)
Zn4 Zn 0.68592(17) 0.85562(12) 0.62369(11)
N12 N 0.3379(11) 0.5962(8) 0.2710(7)
N13 N 0.5217(11) 0.5913(9) 0.1843(7)
N14 N 0.0019(11) 0.7501(8) 0.0075(7)
N15 N -0.1861(11) 0.6284(8) 0.0571(7)
N16 N 0.7216(11) 1.0615(8) 0.8734(7)
N17 N 0.7459(13) 0.9543(10) 0.5321(8)
N18 N 0.6762(11) 0.9489(8) 0.7383(7)
N9A N 0.8014(11) 0.7551(8) 0.6286(7)
Zn2A Zn 0.19690(15) 0.85772(11) 0.00493(10)
Zn2_2 Zn 0.80310(15) 1.14228(11) 0.99507(10)
Zn3_2 Zn 0.69254(15) 0.54791(11) 0.14552(10)
Zn4A Zn 0.31408(17) 0.14438(12) 0.37631(11)
N13_2 N -0.4783(11) 0.5913(9) 0.1843(7)
N14A N -0.0019(11) 0.2499(8) -0.0075(7)
N16_2 N -0.2784(11) 0.0615(8) -0.1266(7)
loop_
_geom_bond_atom_site_label_1
_geom_bond_atom_site_label_2
_geom_bond_site_symmetry_1
_geom_bond_site_symmetry_2
N1 C2 1_555 1_555
N2 C1 1_555 1_555
C1 H1 1_555 1_555
N3 C4 1_555 1_555
N4 C8 1_555 1_555
N5 C4 1_555 1_555
C2 H2 1_555 1_555
C3 H3 1_555 1_555
C4 H4 1_555 1_555
C5 H5 1_555 1_555
N6 C2 1_555 1_555
C6 N3 1_555 1_555
H6 C6 1_555 1_555
C7 N5 1_555 1_555
H7 C7 1_555 1_555
C8 H8 1_555 1_555
C9 H9 1_555 1_555
C10 H10 1_555 1_555
C11 C9 1_555 1_555
H11 C11 1_555 1_555
C12 H12 1_555 1_555
C13 H13 1_555 1_555
C14 C5 1_555 1_555
H14 C14 1_555 1_555
C15 C12 1_555 1_555
H15 C15 1_555 1_555
N7 C22 1_555 1_555
C16 N1 1_555 1_555
H16 C16 1_555 1_555
C17 N6 1_555 1_555
H17 C17 1_555 1_555
C18 N4 1_555 1_555
H18 C18 1_555 1_555
C19 N2 1_555 1_555
H19 C19 1_555 1_555
C20 H20 1_555 1_555
C21 H21 1_555 1_555
C22 H22 1_555 1_555
C23 N7 1_555 1_555
H23 C23 1_555 1_555
N8 C1 1_555 1_555
N9 C8 1_555 1_555
N10 C22 1_555 1_555
N11 C21 1_555 1_555
C24 C18 1_555 1_555
H24 C24 1_555 1_555
C25 C19 1_555 1_555
H25 C25 1_555 1_555
C26 C23 1_555 1_555
H26 C26 1_555 1_555
C27 C20 1_555 1_555
H27 C27 1_555 1_555
Zn1 N1 1_555 1_555
Zn2 N7 1_555 1_555
Zn3 N2 1_555 1_555
Zn4 N6 1_555 1_555
N12 C9 1_555 1_555
N13 C10 1_555 1_555
N14 C3 1_555 1_555
N15 C3 1_555 1_555
N16 C13 1_555 1_555
N17 C20 1_555 1_555
N18 C12 1_555 1_555
N9A Zn4 1_555 1_555
Zn2A N14 1_555 1_555
Zn2_2 N16 1_555 1_555
Zn3_2 N13 1_555 1_555
Zn4A N9 1_555 1_555
N13_2 Zn3 1_555 1_555
N14A Zn2 1_555 1_555
N16_2 Zn2 1_555 1_555
N3 Zn3 1_555 1_555
N4 Zn1 1_555 1_555
N5 Zn1 1_555 1_555
C5 N15 1_555 1_555
C6 C7 1_555 1_555
C10 N12 1_555 1_555
C11 N13 1_555 1_555
C13 N18 1_555 1_555
C14 N14 1_555 1_555
C15 N16 1_555 1_555
C16 C17 1_555 1_555
C21 N17 1_555 1_555
N8 C25 1_555 1_555
N8 Zn2 1_555 1_555
N9 C24 1_555 1_555
N10 C26 1_555 1_555
N11 C27 1_555 1_555
Zn1 N12 1_555 1_555
Zn3 N15 1_555 1_555
Zn4 N17 1_555 1_555
Zn4 N18 1_555 1_555

#END
