
#######################################################################
#
#                 Cambridge Crystallographic Data Centre
#                                CCDC 
#
#######################################################################
#
# If this CIF has been generated from an entry in the Cambridge 
# Structural Database, then it will include bibliographic, chemical, 
# crystal, experimental, refinement or atomic coordinate data resulting 
# from the CCDC's data processing and validation procedures.
#
#######################################################################

data_KUMXUM
_symmetry_cell_setting           monoclinic
_symmetry_space_group_name_H-M   'P 21'
_symmetry_Int_Tables_number      4
_space_group_name_Hall           'P 2yb'
loop_
_symmetry_equiv_pos_site_id
_symmetry_equiv_pos_as_xyz
1 x,y,z
2 -x,1/2+y,-z
_cell_length_a                   13.292(3)
_cell_length_b                   15.146(3)
_cell_length_c                   19.946(4)
_cell_angle_alpha                90
_cell_angle_beta                 102.23(3)
_cell_angle_gamma                90
_cell_volume                     3924.41
loop_
_atom_site_label
_atom_site_type_symbol
_atom_site_fract_x
_atom_site_fract_y
_atom_site_fract_z
W1 W -0.63940(10) 0.38720(7) 0.16770(5)
W2 W -0.62159(9) 0.39117(7) 0.35350(5)
W3 W -0.45141(9) 0.24734(6) 0.28108(5)
W4 W -0.53281(9) 0.07473(7) 0.35873(5)
W5 W -0.86982(9) 0.34206(7) 0.32352(5)
W6 W -0.54916(9) 0.07466(7) 0.19021(5)
W7 W -0.80893(9) 0.02514(7) 0.32690(5)
W8 W -0.88914(10) 0.33953(7) 0.13802(5)
W9 W -0.82399(10) 0.02432(7) 0.15856(5)
W10 W -0.98148(9) 0.15154(7) 0.22356(5)
W11 W -0.70646(9) 0.21733(7) 0.42979(5)
W12 W -0.73119(9) 0.21239(7) 0.07330(5)
B1 B -0.7186(19) 0.2055(13) 0.2508(10)
Ni1 Ni -1.5736(3) 0.3656(2) -0.13800(14)
Ni2 Ni -1.0487(3) 0.5257(2) 0.35276(13)
O1 O -0.6299(17) 0.3280(12) 0.4346(8)
O2 O -0.5926(15) 0.1518(11) 0.4131(8)
O3 O -0.5603(16) 0.4827(11) 0.3895(9)
O4 O -0.7293(13) 0.2643(9) 0.3120(8)
O5 O -0.8341(17) -0.0579(11) 0.3767(9)
O6 O -0.6033(18) 0.1682(15) 0.2660(9)
O7 O -0.4370(15) 0.1553(11) 0.2163(10)
O8 O -0.6429(14) 0.4199(10) 0.2575(9)
O9 O -0.4628(17) 0.0064(11) 0.4210(9)
O10 O -0.8297(15) 0.2851(11) 0.4120(8)
O11 O -0.7268(16) 0.1914(10) -0.0124(8)
O12 O -1.1159(17) 0.1522(16) 0.2088(10)
O13 O -0.5106(15) 0.3191(10) 0.3389(7)
O14 O -0.7357(13) 0.2624(9) 0.1859(7)
O15 O -0.8269(16) -0.0380(12) 0.2425(9)
O16 O -0.6733(14) 0.0184(12) 0.1808(8)
O17 O -0.7982(13) 0.1334(9) 0.2425(7)
O18 O -0.6616(14) 0.0182(13) 0.3401(7)
O19 O -0.7773(16) 0.4268(11) 0.1371(8)
O20 O -0.6542(15) 0.3200(8) 0.0840(8)
O21 O -0.4279(14) 0.1579(12) 0.3529(8)
O22 O -0.5015(13) 0.0223(10) 0.2798(7)
O23 O -0.9490(14) 0.2433(10) 0.2920(8)
O24 O -0.5759(15) 0.4810(10) 0.1438(9)
O25 O -0.8481(17) 0.2792(14) 0.0628(9)
O26 O -0.8074(14) 0.1174(10) 0.0975(8)
O27 O -0.8530(17) -0.0613(10) 0.1031(9)
O28 O -0.5226(15) 0.3194(11) 0.2074(8)
O29 O -0.7590(14) 0.4270(10) 0.3507(7)
O30 O -0.9595(14) 0.2389(8) 0.1621(7)
O31 O -0.4939(13) -0.0049(9) 0.1483(7)
O32 O -0.3322(16) 0.2890(10) 0.2946(8)
O33 O -0.6083(14) 0.1491(12) 0.1190(8)
O34 O -0.9648(13) 0.4106(9) 0.3451(7)
O35 O -0.9917(16) 0.4010(11) 0.0982(8)
O36 O -0.8778(12) 0.3739(9) 0.2320(8)
O37 O -0.7860(14) 0.1198(12) 0.3911(8)
O38 O -0.9439(14) 0.0638(10) 0.2962(8)
O39 O -0.6953(14) 0.2012(13) 0.5174(9)
O40 O -0.9580(15) 0.0633(10) 0.1588(8)
N1 N -1.4586(16) 0.3495(12) -0.0513(9)
N2 N -1.6703(18) 0.4039(11) -0.2290(9)
N3 N -1.6637(17) 0.4302(15) -0.0776(10)
N4 N -1.971(3) 0.719(3) 0.0680(15)
N5 N -1.950(2) 0.5487(15) -0.5488(10)
N6 N -1.135(2) 0.4776(15) 0.2603(9)
N7 N -0.942(2) 0.5990(13) 0.3066(10)
N8 N -0.526(2) 0.7970(17) 0.1881(11)
N9 N -1.1433(19) 0.4481(13) 0.4038(10)
N10 N -1.455(2) 0.2023(15) 0.5780(10)
O41 O -1.6500(14) 0.2474(11) -0.1294(8)
O42 O -1.1417(13) 0.6482(11) 0.3554(7)
C1 C -1.471(2) 0.3168(17) 0.0080(13)
H1 H -1.5286 0.2816 0.0074
C2 C -1.404(2) 0.331(2) 0.0722(11)
H2 H -1.4171 0.3084 0.1128
C3 C -1.318(3) 0.381(2) 0.0705(11)
C4 C -1.295(3) 0.4119(18) 0.0059(12)
H3 H -1.2372 0.4444 0.0031
C5 C -1.371(2) 0.3876(17) -0.0513(12)
H4 H -1.3573 0.4002 -0.0940
C6 C -1.677(2) 0.3587(18) -0.2885(12)
H5 H -1.6504 0.3019 -0.2878
C7 C -1.724(3) 0.396(2) -0.3493(11)
H6 H -1.7223 0.3649 -0.3893
C8 C -1.773(2) 0.4782(16) -0.3560(10)
C9 C -1.770(2) 0.5146(15) -0.2944(13)
H7 H -1.8078 0.5658 -0.2928
C10 C -1.715(2) 0.4823(15) -0.2336(12)
H8 H -1.7087 0.5166 -0.1943
C11 C -1.110(2) 0.3745(16) 0.4343(12)
H9 H -1.0438 0.3562 0.4336
C12 C -1.171(2) 0.3213(14) 0.4684(13)
H10 H -1.1459 0.2683 0.4889
C13 C -1.267(2) 0.3510(16) 0.4698(11)
C14 C -1.339(2) 0.3004(18) 0.5037(12)
C15 C -1.339(2) 0.2072(18) 0.5023(15)
H11 H -1.2996 0.1752 0.4773
C16 C -1.403(3) 0.1650(19) 0.5423(14)
H12 H -1.4064 0.1037 0.5409
C17 C -1.461(2) 0.298(2) 0.5741(13)
H13 H -1.5043 0.3281 0.5972
C18 C -1.405(2) 0.3422(19) 0.5372(14)
H14 H -1.4104 0.4034 0.5344
C19 C -1.308(3) 0.4297(16) 0.4364(15)
H15 H -1.3732 0.4505 0.4373
C20 C -1.242(2) 0.473(2) 0.4022(15)
H16 H -1.2667 0.5229 0.3765
C21 C -1.760(2) 0.415(2) -0.0869(14)
H17 H -1.7850 0.3646 -0.1109
C22 C -1.832(3) 0.4706(17) -0.0635(14)
H18 H -1.9017 0.4580 -0.0756
C23 C -1.799(3) 0.5420(17) -0.0234(13)
C24 C -1.860(3) 0.5995(17) 0.0057(15)
C25 C -1.944(3) 0.580(2) 0.0274(16)
H19 H -1.9622 0.5205 0.0226
C26 C -2.013(3) 0.633(3) 0.0572(17)
H20 H -2.0748 0.6143 0.0674
C27 C -1.898(5) 0.746(4) 0.038(3)
H21 H -1.8920 0.8064 0.0317
C28 C -1.826(4) 0.690(3) 0.013(2)
H22 H -1.7645 0.7097 0.0036
C29 C -1.692(3) 0.557(2) -0.0136(17)
H23 H -1.6649 0.6075 0.0106
C30 C -1.624(2) 0.5025(18) -0.0377(14)
H24 H -1.5540 0.5137 -0.0275
C31 C -1.1584(19) 0.3975(18) 0.2514(12)
H25 H -1.1360 0.3595 0.2881
C32 C -1.215(3) 0.3609(17) 0.1913(12)
H26 H -1.2292 0.3007 0.1884
C33 C -1.2518(19) 0.4188(19) 0.1331(12)
C34 C -1.223(2) 0.5062(16) 0.1420(12)
H27 H -1.2371 0.5450 0.1051
C35 C -1.172(3) 0.5360(17) 0.2055(13)
H28 H -1.1625 0.5964 0.2124
C36 C -1.986(2) 0.5627(14) -0.4931(11)
H29 H -2.0518 0.5870 -0.4975
C37 C -1.931(2) 0.5426(13) -0.4290(12)
H30 H -1.9571 0.5538 -0.3902
C38 C -1.834(3) 0.5049(16) -0.4234(11)
C39 C -1.789(2) 0.4966(13) -0.4804(12)
H31 H -1.7228 0.4760 -0.4781
C40 C -1.855(2) 0.5223(17) -0.5411(13)
H32 H -1.8281 0.5205 -0.5806
C41 C -0.917(3) 0.5690(18) 0.2493(13)
H33 H -0.9572 0.5251 0.2243
C42 C -0.834(2) 0.6003(18) 0.2260(12)
H34 H -0.8114 0.5712 0.1907
C43 C -0.780(2) 0.6794(15) 0.2568(12)
C44 C -0.698(2) 0.7190(14) 0.2340(11)
C45 C -0.642(3) 0.6728(14) 0.1905(13)
H35 H -0.6609 0.6155 0.1763
C46 C -0.563(3) 0.7128(19) 0.1706(13)
H36 H -0.5302 0.6806 0.1420
C47 C -0.574(3) 0.837(2) 0.2385(12)
H37 H -0.5442 0.8868 0.2621
C48 C -0.663(2) 0.8026(17) 0.2521(13)
H38 H -0.7021 0.8381 0.2750
C49 C -0.819(2) 0.7150(16) 0.3101(11)
H39 H -0.7883 0.7656 0.3316
C50 C -0.904(2) 0.6784(16) 0.3336(13)
H40 H -0.9320 0.7073 0.3663
Ni1A Ni -0.4264(3) 0.8656(2) 0.13800(14)
Ni1A_2 Ni -0.4264(3) -0.1344(2) 0.13800(14)
Ni2_2 Ni -2.0487(3) 0.5257(2) -0.64724(13)
O31A O -1.5061(13) 0.4951(9) -0.1483(7)
N5_2 N -0.950(2) 0.5487(15) 0.4512(10)
N8A N -1.474(2) 0.2970(17) -0.1881(11)
O43 O -1.016(3) -0.1487(17) 0.3722(15)
O44 O -1.595(2) 0.1554(15) 0.6553(9)
O45 O -1.1434(14) 0.7589(9) 0.2360(8)
O46 O -0.411(2) 0.514(2) 0.2559(14)
O47 O -0.077(2) 0.7550(18) 0.4642(11)
loop_
_geom_bond_atom_site_label_1
_geom_bond_atom_site_label_2
_geom_bond_site_symmetry_1
_geom_bond_site_symmetry_2
W1 O8 1_555 1_555
W2 O1 1_555 1_555
W3 O6 1_555 1_555
W4 O2 1_555 1_555
W5 O4 1_555 1_555
W6 O6 1_555 1_555
W7 O5 1_555 1_555
W8 O14 1_555 1_555
W9 O15 1_555 1_555
W10 O12 1_555 1_555
W11 O1 1_555 1_555
W12 O11 1_555 1_555
B1 O4 1_555 1_555
Ni1 N1 1_555 1_555
Ni2 O34 1_555 1_555
O2 W11 1_555 1_555
O3 W2 1_555 1_555
O4 W2 1_555 1_555
O6 W4 1_555 1_555
O7 W3 1_555 1_555
O8 W2 1_555 1_555
O9 W4 1_555 1_555
O10 W5 1_555 1_555
O13 W2 1_555 1_555
O14 W1 1_555 1_555
O15 W7 1_555 1_555
O16 W6 1_555 1_555
O17 W7 1_555 1_555
O18 W4 1_555 1_555
O19 W1 1_555 1_555
O20 W1 1_555 1_555
O21 W3 1_555 1_555
O22 W4 1_555 1_555
O23 W5 1_555 1_555
O24 W1 1_555 1_555
O25 W8 1_555 1_555
O26 W9 1_555 1_555
O27 W9 1_555 1_555
O28 W1 1_555 1_555
O29 W2 1_555 1_555
O30 W8 1_555 1_555
O31 W6 1_555 1_555
O32 W3 1_555 1_555
O33 W6 1_555 1_555
O34 W5 1_555 1_555
O35 W8 1_555 1_555
O36 W5 1_555 1_555
O37 W7 1_555 1_555
O38 W7 1_555 1_555
O39 W11 1_555 1_555
O40 W9 1_555 1_555
N1 C1 1_555 1_555
N2 Ni1 1_555 1_555
N3 Ni1 1_555 1_555
N4 C26 1_555 1_555
N5 C36 1_555 1_555
N6 Ni2 1_555 1_555
N7 Ni2 1_555 1_555
N8 C46 1_555 1_555
N9 Ni2 1_555 1_555
N10 C16 1_555 1_555
O41 Ni1 1_555 1_555
O42 Ni2 1_555 1_555
C1 H1 1_555 1_555
C2 C1 1_555 1_555
H2 C2 1_555 1_555
C3 C2 1_555 1_555
C4 C3 1_555 1_555
H3 C4 1_555 1_555
C5 N1 1_555 1_555
H4 C5 1_555 1_555
C6 N2 1_555 1_555
H5 C6 1_555 1_555
C7 C6 1_555 1_555
H6 C7 1_555 1_555
C8 C7 1_555 1_555
C9 C8 1_555 1_555
H7 C9 1_555 1_555
C10 N2 1_555 1_555
H8 C10 1_555 1_555
C11 N9 1_555 1_555
H9 C11 1_555 1_555
C12 C11 1_555 1_555
H10 C12 1_555 1_555
C13 C12 1_555 1_555
C14 C13 1_555 1_555
C15 C14 1_555 1_555
H11 C15 1_555 1_555
C16 C15 1_555 1_555
H12 C16 1_555 1_555
C17 N10 1_555 1_555
H13 C17 1_555 1_555
C18 C14 1_555 1_555
H14 C18 1_555 1_555
C19 C13 1_555 1_555
H15 C19 1_555 1_555
C20 N9 1_555 1_555
H16 C20 1_555 1_555
C21 N3 1_555 1_555
H17 C21 1_555 1_555
C22 C21 1_555 1_555
H18 C22 1_555 1_555
C23 C22 1_555 1_555
C24 C23 1_555 1_555
C25 C24 1_555 1_555
H19 C25 1_555 1_555
C26 C25 1_555 1_555
H20 C26 1_555 1_555
C27 N4 1_555 1_555
H21 C27 1_555 1_555
C28 C24 1_555 1_555
H22 C28 1_555 1_555
C29 C23 1_555 1_555
H23 C29 1_555 1_555
C30 N3 1_555 1_555
H24 C30 1_555 1_555
C31 N6 1_555 1_555
H25 C31 1_555 1_555
C32 C31 1_555 1_555
H26 C32 1_555 1_555
C33 C3 1_555 1_555
C34 C33 1_555 1_555
H27 C34 1_555 1_555
C35 N6 1_555 1_555
H28 C35 1_555 1_555
C36 H29 1_555 1_555
C37 C36 1_555 1_555
H30 C37 1_555 1_555
C38 C8 1_555 1_555
C39 C38 1_555 1_555
H31 C39 1_555 1_555
C40 N5 1_555 1_555
H32 C40 1_555 1_555
C41 N7 1_555 1_555
H33 C41 1_555 1_555
C42 C41 1_555 1_555
H34 C42 1_555 1_555
C43 C42 1_555 1_555
C44 C43 1_555 1_555
C45 C44 1_555 1_555
H35 C45 1_555 1_555
C46 C45 1_555 1_555
H36 C46 1_555 1_555
C47 N8 1_555 1_555
H37 C47 1_555 1_555
C48 C44 1_555 1_555
H38 C48 1_555 1_555
C49 C43 1_555 1_555
H39 C49 1_555 1_555
C50 N7 1_555 1_555
H40 C50 1_555 1_555
Ni1A N8 1_555 1_555
Ni1A_2 O31 1_555 1_555
Ni2_2 N5 1_555 1_555
O31A Ni1 1_555 1_555
N5_2 Ni2 1_555 1_555
N8A Ni1 1_555 1_555
W3 O13 1_555 1_555
W3 O28 1_555 1_555
W4 O21 1_555 1_555
W5 O29 1_555 1_555
W6 O7 1_555 1_555
W6 O22 1_555 1_555
W7 O18 1_555 1_555
W8 O19 1_555 1_555
W8 O36 1_555 1_555
W9 O16 1_555 1_555
W9 O17 1_555 1_555
W10 O17 1_555 1_555
W10 O23 1_555 1_555
W10 O30 1_555 1_555
W10 O38 1_555 1_555
W10 O40 1_555 1_555
W11 O4 1_555 1_555
W11 O10 1_555 1_555
W11 O37 1_555 1_555
W12 O14 1_555 1_555
W12 O20 1_555 1_555
W12 O25 1_555 1_555
W12 O26 1_555 1_555
W12 O33 1_555 1_555
B1 O6 1_555 1_555
B1 O14 1_555 1_555
B1 O17 1_555 1_555
C4 C5 1_555 1_555
C9 C10 1_555 1_555
C17 C18 1_555 1_555
C19 C20 1_555 1_555
C27 C28 1_555 1_555
C29 C30 1_555 1_555
C32 C33 1_555 1_555
C34 C35 1_555 1_555
C37 C38 1_555 1_555
C39 C40 1_555 1_555
C47 C48 1_555 1_555
C49 C50 1_555 1_555

#END
