
#######################################################################
#
#                 Cambridge Crystallographic Data Centre
#                                CCDC 
#
#######################################################################
#
# If this CIF has been generated from an entry in the Cambridge 
# Structural Database, then it will include bibliographic, chemical, 
# crystal, experimental, refinement or atomic coordinate data resulting 
# from the CCDC's data processing and validation procedures.
#
#######################################################################

data_KUMYAT
_symmetry_cell_setting           monoclinic
_symmetry_space_group_name_H-M   'C 2/c'
_symmetry_Int_Tables_number      15
_space_group_name_Hall           '-C 2yn'
loop_
_symmetry_equiv_pos_site_id
_symmetry_equiv_pos_as_xyz
1 x,y,z
2 -x,y,1/2-z
3 1/2+x,1/2+y,z
4 1/2-x,1/2+y,1/2-z
5 -x,-y,-z
6 x,-y,1/2+z
7 1/2-x,1/2-y,-z
8 1/2+x,1/2-y,1/2+z
_cell_length_a                   24.241(5)
_cell_length_b                   11.250(2)
_cell_length_c                   28.261(6)
_cell_angle_alpha                90
_cell_angle_beta                 115.06(3)
_cell_angle_gamma                90
_cell_volume                     6981.58
loop_
_atom_site_label
_atom_site_type_symbol
_atom_site_fract_x
_atom_site_fract_y
_atom_site_fract_z
O2 O 0.301(3) 0.561(5) -0.209(3)
O3 O 0.294(4) 0.324(8) 0.196(3)
O4 O 0.258(4) 0.338(5) -0.230(3)
W1 W 0.10767(3) 0.60535(6) -0.03630(2)
W2 W 0.36243(3) 0.62220(7) -0.03481(3)
W3 W 0.21984(3) 0.47810(7) -0.07089(3)
W4 W 0.21432(3) 0.61245(7) 0.09686(3)
W5 W 0.17305(3) 1.01402(7) -0.06284(3)
W6 W 0.14480(3) 0.74311(7) -0.13170(3)
P1 P 0.2500 0.7500 0.0000
N1 N 0.0000 0.928(2) -0.2500
N2 N 0.0000 0.562(3) -0.2500
N3 N -0.0329(6) 0.7502(17) -0.1919(5)
N4 N -0.1217(9) 0.7323(15) 0.0122(7)
Ni1 Ni 0.0000 0.7440(4) -0.2500
O5 O 0.2003(9) 0.6811(16) -0.0388(7)
O6 O 0.2001(9) 0.7131(17) 0.0143(8)
O7 O 0.2248(8) 0.8125(17) -0.0531(7)
O8 O 0.2788(10) 0.6301(18) -0.0102(8)
O9 O 0.1310(7) 0.8983(13) -0.1117(9)
O10 O 0.2336(6) 1.0724(19) 0.0001(5)
O11 O 0.1499(7) 0.5597(13) 0.0337(5)
O12 O 0.1969(8) 0.5461(14) 0.1418(5)
O13 O 0.0402(8) 0.5384(15) -0.0537(6)
O14 O 0.2644(6) 0.4957(13) 0.0863(8)
O15 O 0.0933(7) 0.7530(13) -0.0112(5)
O16 O 0.0985(8) 0.6821(14) -0.0987(6)
O17 O 0.1538(7) 0.4880(12) -0.0531(5)
O18 O 0.0905(5) 0.7407(13) -0.1953(4)
O19 O 0.2051(7) 0.3492(12) -0.1060(6)
O20 O 0.1794(7) 0.5893(11) -0.1241(5)
O21 O 0.4172(6) 0.5646(13) -0.0500(5)
O22 O 0.1363(5) 1.1382(10) -0.0922(4)
O23 O 0.2927(7) 0.531(2) -0.0724(6)
O24 O 0.2125(8) 0.8054(16) -0.1394(7)
O25 O 0.1736(7) 0.7617(12) 0.0869(5)
O26 O 0.1269(7) 0.9684(18) -0.0257(6)
C1 C -0.0492(9) 0.7693(18) -0.0197(7)
H1 H -0.0096 0.7898 -0.0138
C2 C -0.0651(10) 0.7635(19) 0.0215(8)
H2 H -0.0368 0.7811 0.0553
C3 C -0.0125(8) 0.829(2) -0.1533(6)
H3 H 0.0158 0.8848 -0.1529
C4 C -0.1628(10) 0.7060(18) -0.0348(8)
H4 H -0.2013 0.6814 -0.0394
C5 C -0.1495(8) 0.7143(15) -0.0773(7)
H5 H -0.1793 0.6997 -0.1108
C6 C -0.0913(7) 0.7449(15) -0.0693(6)
C7 C -0.0728(7) 0.7500(15) -0.1132(6)
C8 C 0.0320(10) 0.374(2) -0.2060(8)
H6 H 0.0543 0.3345 -0.1748
C9 C 0.0000 0.308(3) -0.2500
C10 C 0.0322(10) 0.490(2) -0.2063(7)
H7 H 0.0557 0.5283 -0.1750
C11 C 0.0515(10) 1.113(2) -0.2298(11)
H8 H 0.0891 1.1511 -0.2146
C12 C 0.0491(10) 0.992(2) -0.2314(12)
H9 H 0.0860 0.9515 -0.2179
C13 C 0.0000 0.179(3) -0.2500
C14 C -0.0312(8) 0.8304(17) -0.1138(7)
H10 H -0.0154 0.8868 -0.0874
C15 C -0.0954(7) 0.6693(18) -0.1539(6)
H11 H -0.1240 0.6130 -0.1551
C16 C -0.0750(8) 0.673(2) -0.1930(7)
H12 H -0.0912 0.6198 -0.2208
W1F W 0.39233(3) 0.89465(6) 0.03630(2)
W2F W 0.13757(3) 0.87780(7) 0.03481(3)
W3F W 0.28016(3) 1.02190(7) 0.07089(3)
W4F W 0.28568(3) 0.88755(7) -0.09686(3)
W5F W 0.32695(3) 0.48598(7) 0.06284(3)
W6F W 0.35520(3) 0.75689(7) 0.13170(3)
N1_2 N 0.0000 -0.072(2) -0.2500
N2_2 N 0.0000 1.562(3) -0.2500
N3A N 0.0329(6) 0.7502(17) -0.3081(5)
N4A N 0.1217(9) 0.7323(15) -0.5122(7)
Ni1F Ni 0.5000 0.7560(4) 0.2500
Ni1_2 Ni 0.0000 -0.2560(4) -0.2500
Ni1_3 Ni 0.0000 1.7440(4) -0.2500
O5F O 0.2997(9) 0.8189(16) 0.0388(7)
O6F O 0.2999(9) 0.7869(17) -0.0143(8)
O7F O 0.2752(8) 0.6875(17) 0.0531(7)
O8F O 0.2212(10) 0.8699(18) 0.0102(8)
O9F O 0.3690(7) 0.6017(13) 0.1117(9)
O10F O 0.2664(6) 0.4276(19) -0.0001(5)
O11F O 0.3501(7) 0.9403(13) -0.0337(5)
O12F O 0.3031(8) 0.9539(14) -0.1418(5)
O13F O 0.4598(8) 0.9616(15) 0.0537(6)
O14F O 0.2356(6) 1.0043(13) -0.0863(8)
O15F O 0.4067(7) 0.7470(13) 0.0112(5)
O16F O 0.4015(8) 0.8179(14) 0.0987(6)
O17F O 0.3462(7) 1.0120(12) 0.0531(5)
O18A O -0.0905(5) 0.7407(13) -0.3047(4)
O18F O 0.4095(5) 0.7593(13) 0.1953(4)
O20F O 0.3206(7) 0.9107(11) 0.1241(5)
O21F O 0.0828(6) 0.9354(13) 0.0500(5)
O22F O 0.3637(5) 0.3618(10) 0.0922(4)
O23F O 0.2073(7) 0.969(2) 0.0724(6)
O24F O 0.2875(8) 0.6946(16) 0.1394(7)
O25F O 0.3264(7) 0.7383(12) -0.0869(5)
O26F O 0.3731(7) 0.5316(18) 0.0257(6)
C1A C 0.0492(9) 0.7693(18) -0.4803(7)
H1A H 0.0096 0.7898 -0.4862
C2A C 0.0651(10) 0.7635(19) -0.5215(8)
H2A H 0.0368 0.7811 -0.5553
C3A C 0.0125(8) 0.829(2) -0.3467(6)
H3A H -0.0158 0.8848 -0.3471
C4A C 0.1628(10) 0.7060(18) -0.4652(8)
H4A H 0.2013 0.6814 -0.4606
C5A C 0.1495(8) 0.7143(15) -0.4227(7)
H5A H 0.1793 0.6997 -0.3892
C6A C 0.0913(7) 0.7449(15) -0.4307(6)
C7A C 0.0728(7) 0.7500(15) -0.3868(6)
C8A C -0.0320(10) 0.374(2) -0.2940(8)
C8_2 C 0.0320(10) 1.374(2) -0.2060(8)
C8A_2 C -0.0320(10) 1.374(2) -0.2940(8)
H6A H -0.0543 0.3345 -0.3252
H6_2 H 0.0543 1.3345 -0.1748
H6A_2 H -0.0543 1.3345 -0.3252
C9_2 C 0.0000 1.308(3) -0.2500
C10A C -0.0322(10) 0.490(2) -0.2937(7)
C10_2 C 0.0322(10) 1.490(2) -0.2063(7)
C10A_2 C -0.0322(10) 1.490(2) -0.2937(7)
H7A H -0.0557 0.5283 -0.3250
H7_2 H 0.0557 1.5283 -0.1750
H7A_2 H -0.0557 1.5283 -0.3250
C11_2 C 0.0515(10) 0.113(2) -0.2298(11)
C11A C -0.0515(10) 0.113(2) -0.2702(11)
C11A_2 C -0.0515(10) 1.113(2) -0.2702(11)
H8_2 H 0.0891 0.1511 -0.2146
H8A H -0.0891 0.1511 -0.2854
H8A_2 H -0.0891 1.1511 -0.2854
C12A C -0.0491(10) 0.992(2) -0.2686(12)
C12_2 C 0.0491(10) -0.008(2) -0.2314(12)
C12A_2 C -0.0491(10) -0.008(2) -0.2686(12)
H9A H -0.0860 0.9515 -0.2821
H9_2 H 0.0860 -0.0485 -0.2179
H9A_2 H -0.0860 -0.0485 -0.2821
C13_2 C 0.0000 1.179(3) -0.2500
C14A C 0.0312(8) 0.8304(17) -0.3862(7)
H10A H 0.0154 0.8868 -0.4126
C15A C 0.0954(7) 0.6693(18) -0.3461(6)
H11A H 0.1240 0.6130 -0.3449
C16A C 0.0750(8) 0.673(2) -0.3070(7)
H12A H 0.0912 0.6198 -0.2792
O1 O 0.938(3) 0.378(5) 0.901(2)
loop_
_geom_bond_atom_site_label_1
_geom_bond_atom_site_label_2
_geom_bond_site_symmetry_1
_geom_bond_site_symmetry_2
W1 O5 1_555 1_555
W2 O8 1_555 1_555
W3 O8 1_555 1_555
W4 O6 1_555 1_555
W5 O7 1_555 1_555
W6 O5 1_555 1_555
P1 O5 1_555 1_555
N1 Ni1 1_555 1_555
N2 Ni1 1_555 1_555
N3 Ni1 1_555 1_555
N4 C2 1_555 1_555
Ni1 O18 1_555 1_555
O5 O6 1_555 1_555
O6 W1 1_555 1_555
O7 W6 1_555 1_555
O8 P1 1_555 1_555
O9 W5 1_555 1_555
O10 W5 1_555 1_555
O11 W1 1_555 1_555
O12 W4 1_555 1_555
O13 W1 1_555 1_555
O14 W4 1_555 1_555
O15 W1 1_555 1_555
O16 W1 1_555 1_555
O17 W1 1_555 1_555
O18 W6 1_555 1_555
O19 W3 1_555 1_555
O20 W3 1_555 1_555
O21 W2 1_555 1_555
O22 W5 1_555 1_555
O23 W2 1_555 1_555
O24 W6 1_555 1_555
O25 W4 1_555 1_555
O26 W5 1_555 1_555
C1 H1 1_555 1_555
C2 C1 1_555 1_555
H2 C2 1_555 1_555
C3 N3 1_555 1_555
H3 C3 1_555 1_555
C4 N4 1_555 1_555
H4 C4 1_555 1_555
C5 C4 1_555 1_555
H5 C5 1_555 1_555
C6 C1 1_555 1_555
C7 C6 1_555 1_555
C8 H6 1_555 1_555
C9 C8 1_555 1_555
C10 N2 1_555 1_555
H7 C10 1_555 1_555
C11 H8 1_555 1_555
C12 N1 1_555 1_555
H9 C12 1_555 1_555
C13 C9 1_555 1_555
C14 C3 1_555 1_555
H10 C14 1_555 1_555
C15 C7 1_555 1_555
H11 C15 1_555 1_555
C16 N3 1_555 1_555
H12 C16 1_555 1_555
W1F O5F 1_555 1_555
W2F O15 1_555 1_555
W3F O10 1_555 1_555
W4F O7 1_555 1_555
W5F O8 1_555 1_555
W6F O5F 1_555 1_555
N1_2 Ni1_2 1_555 1_555
N2_2 Ni1_3 1_555 1_555
N3A Ni1 1_555 1_555
N4A C2A 1_555 1_555
Ni1F O18F 1_555 1_555
O5F P1 1_555 1_555
O6F P1 1_555 1_555
O7F W4 1_555 1_555
O8F W5 1_555 1_555
O9F W5F 1_555 1_555
O10F W3 1_555 1_555
O11F W1F 1_555 1_555
O12F W4F 1_555 1_555
O13F W1F 1_555 1_555
O14F W5 1_555 1_555
O15F W2 1_555 1_555
O16F W1F 1_555 1_555
O17F W1F 1_555 1_555
O18A Ni1 1_555 1_555
O18F W6F 1_555 1_555
O20F W3F 1_555 1_555
O21F W2F 1_555 1_555
O22F W5F 1_555 1_555
O23F W2F 1_555 1_555
O24F W4 1_555 1_555
O25F W2 1_555 1_555
O26F W2 1_555 1_555
C1A H1A 1_555 1_555
C2A C1A 1_555 1_555
H2A C2A 1_555 1_555
C3A N3A 1_555 1_555
H3A C3A 1_555 1_555
C4A N4A 1_555 1_555
H4A C4A 1_555 1_555
C5A C4A 1_555 1_555
H5A C5A 1_555 1_555
C6A C1A 1_555 1_555
C7A C6A 1_555 1_555
C8A C9 1_555 1_555
C8_2 H6_2 1_555 1_555
C8A_2 H6A_2 1_555 1_555
H6A C8A 1_555 1_555
C9_2 C8_2 1_555 1_555
C10A N2 1_555 1_555
C10_2 N2_2 1_555 1_555
C10A_2 N2_2 1_555 1_555
H7A C10A 1_555 1_555
H7_2 C10_2 1_555 1_555
H7A_2 C10A_2 1_555 1_555
C11_2 C13 1_555 1_555
C11A C13 1_555 1_555
C11A_2 H8A_2 1_555 1_555
H8_2 C11_2 1_555 1_555
H8A C11A 1_555 1_555
C12A N1 1_555 1_555
C12_2 N1_2 1_555 1_555
C12A_2 N1_2 1_555 1_555
H9A C12A 1_555 1_555
H9_2 C12_2 1_555 1_555
H9A_2 C12A_2 1_555 1_555
C13_2 C11 1_555 1_555
C14A C3A 1_555 1_555
H10A C14A 1_555 1_555
C15A C7A 1_555 1_555
H11A C15A 1_555 1_555
C16A N3A 1_555 1_555
H12A C16A 1_555 1_555
W3 O17 1_555 1_555
W3 O23 1_555 1_555
W4 O11 1_555 1_555
W6 O9 1_555 1_555
W6 O16 1_555 1_555
W6 O20 1_555 1_555
P1 O6 1_555 1_555
P1 O7 1_555 1_555
P1 O7F 1_555 1_555
P1 O8F 1_555 1_555
O5 O7 1_555 1_555
O6 O7F 1_555 1_555
O7 O6F 1_555 1_555
O14 W5F 1_555 1_555
O24 W4F 1_555 1_555
O25 W2F 1_555 1_555
O26 W2F 1_555 1_555
C5 C6 1_555 1_555
C7 C14 1_555 1_555
C8 C10 1_555 1_555
C11 C12 1_555 1_555
C15 C16 1_555 1_555
W1F O6F 1_555 1_555
W1F O15F 1_555 1_555
W2F O8F 1_555 1_555
W3F O8F 1_555 1_555
W4F O6F 1_555 1_555
W4F O11F 1_555 1_555
W4F O14F 1_555 1_555
W4F O25F 1_555 1_555
W5F O7F 1_555 1_555
W5F O10F 1_555 1_555
W5F O26F 1_555 1_555
W6F O7F 1_555 1_555
W6F O9F 1_555 1_555
W6F O16F 1_555 1_555
W6F O20F 1_555 1_555
W6F O24F 1_555 1_555
O5F O6F 1_555 1_555
O5F O7F 1_555 1_555
C5A C6A 1_555 1_555
C7A C14A 1_555 1_555
C8A C10A 1_555 1_555
C8_2 C10_2 1_555 1_555
C8A_2 C9_2 1_555 1_555
C8A_2 C10A_2 1_555 1_555
C9_2 C13_2 1_555 1_555
C11_2 C12_2 1_555 1_555
C11A C12A_2 1_555 1_555
C11A_2 C12A 1_555 1_555
C11A_2 C13_2 1_555 1_555
C15A C16A 1_555 1_555

#END
