
#######################################################################
#
#                 Cambridge Crystallographic Data Centre
#                                CCDC 
#
#######################################################################
#
# If this CIF has been generated from an entry in the Cambridge 
# Structural Database, then it will include bibliographic, chemical, 
# crystal, experimental, refinement or atomic coordinate data resulting 
# from the CCDC's data processing and validation procedures.
#
#######################################################################

data_KUNCUT
_symmetry_cell_setting           orthorhombic
_symmetry_space_group_name_H-M   'A b a 2'
_symmetry_Int_Tables_number      41
_space_group_name_Hall           'A 2 -2ab'
loop_
_symmetry_equiv_pos_site_id
_symmetry_equiv_pos_as_xyz
1 x,y,z
2 -x,-y,z
3 1/2+x,1/2-y,z
4 1/2-x,1/2+y,z
5 x,1/2+y,1/2+z
6 -x,1/2-y,1/2+z
7 1/2+x,-y,1/2+z
8 1/2-x,y,1/2+z
_cell_length_a                   36.0360(10)
_cell_length_b                   21.7320(10)
_cell_length_c                   41.308(3)
_cell_angle_alpha                90
_cell_angle_beta                 90
_cell_angle_gamma                90
_cell_volume                     32349.7
loop_
_atom_site_label
_atom_site_type_symbol
_atom_site_fract_x
_atom_site_fract_y
_atom_site_fract_z
Au1 Au 0.445213(12) 0.56543(2) 0.96180(2)
Au2 Au 0.451373(12) 0.689293(19) 0.94591(2)
Au3 Au 0.465733(12) 0.812580(19) 0.91570(2)
Au4 Au 0.483496(12) 0.936705(19) 0.90630(2)
Au5 Au 0.270937(13) 0.96006(2) 0.88904(2)
Au6 Au 0.280993(13) 0.83405(2) 0.89284(2)
Au7 Au 0.286190(11) 0.704588(18) 0.87573(2)
Au8 Au 0.247757(12) 0.594890(19) 0.87943(2)
N1 N 0.3833(2) 0.6098(4) 0.8677(2)
N2 N 0.5622(2) 0.8143(4) 0.84554(19)
N3 N 0.3778(3) 0.8992(4) 0.8438(2)
N4 N 0.2204(2) 0.6804(4) 0.7795(2)
N5 N 0.4907(3) 0.6683(5) 1.0484(2)
N6 N 0.3758(3) 0.9071(4) 0.9586(2)
N7 N 0.1801(2) 0.8689(4) 0.9579(2)
N8 N 0.3137(2) 0.6303(4) 0.9764(2)
O1 O 0.42265(19) 0.5817(3) 0.72001(18)
O2 O 0.4711(2) 0.7131(4) 0.72281(17)
O3 O 0.42308(19) 0.8543(4) 0.69713(17)
O4 O 0.3758(2) 0.7175(3) 0.70651(17)
O5 O 0.3545(2) 0.8082(3) 1.11797(18)
O6 O 0.32547(18) 0.9431(3) 1.09851(17)
O7 O 0.2524(2) 0.8222(4) 1.09761(18)
O8 O 0.2848(2) 0.6914(3) 1.12385(19)
S1 S 0.40371(7) 0.54669(11) 0.92013(6)
S2 S 0.44500(7) 0.65977(12) 0.89108(7)
S3 S 0.49557(7) 0.78427(12) 0.86883(7)
S4 S 0.53804(7) 0.90664(11) 0.88158(6)
S5 S 0.32809(7) 0.97884(11) 0.86541(6)
S6 S 0.31402(8) 0.84368(12) 0.84650(7)
S7 S 0.26225(7) 0.72897(12) 0.82608(7)
S8 S 0.22787(8) 0.59596(11) 0.82631(7)
S9 S 0.48303(8) 0.57762(13) 1.00721(7)
S10 S 0.45575(8) 0.71369(12) 0.99982(7)
S11 S 0.43502(8) 0.84345(12) 0.96170(7)
S12 S 0.42866(8) 0.96949(13) 0.92941(7)
S13 S 0.21371(8) 0.94967(13) 0.91844(7)
S14 S 0.24775(8) 0.82648(13) 0.93886(7)
S15 S 0.31992(8) 0.69072(12) 0.92249(7)
S16 S 0.26159(8) 0.59182(13) 0.93415(7)
C1 C 0.3818(3) 0.6624(5) 0.8458(2)
H1 H 0.3982 0.6944 0.8537
H2 H 0.3567 0.6788 0.8455
C2 C 0.3930(3) 0.6442(5) 0.8120(3)
C3 C 0.3657(3) 0.6309(5) 0.7888(2)
H3 H 0.3407 0.6342 0.7940
C4 C 0.3763(3) 0.6131(5) 0.7586(3)
C5 C 0.4144(3) 0.6030(5) 0.7510(3)
C6 C 0.4410(3) 0.6154(5) 0.7739(3)
C7 C 0.4305(3) 0.6370(4) 0.8044(3)
H4 H 0.4485 0.6466 0.8197
C8 C 0.4808(3) 0.6124(5) 0.7637(3)
H5 H 0.4821 0.6011 0.7410
H6 H 0.4935 0.5809 0.7761
C9 C 0.5005(3) 0.6740(5) 0.7687(2)
C10 C 0.4903(3) 0.7240(5) 0.7490(2)
C11 C 0.5027(3) 0.7817(5) 0.7559(3)
C12 C 0.5270(3) 0.7907(6) 0.7828(3)
H7 H 0.5371 0.8293 0.7868
C13 C 0.5356(3) 0.7415(5) 0.8031(3)
C14 C 0.5218(3) 0.6828(5) 0.7964(3)
H8 H 0.5268 0.6501 0.8103
C15 C 0.5596(3) 0.7504(5) 0.8349(3)
H9 H 0.5488 0.7260 0.8522
H10 H 0.5844 0.7348 0.8310
C16 C 0.4864(3) 0.8413(5) 0.7415(3)
H11 H 0.4992 0.8768 0.7504
H12 H 0.4895 0.8416 0.7182
C17 C 0.44553(14) 0.8439(4) 0.75006(14)
C18 C 0.41508(18) 0.8467(4) 0.72946(10)
C19 C 0.37935(15) 0.8455(4) 0.74213(13)
C20 C 0.37408(13) 0.8415(3) 0.77540(14)
H13 H 0.3502 0.8407 0.7839
C21 C 0.40453(17) 0.8388(3) 0.79600(10)
C22 C 0.44026(14) 0.8400(3) 0.78333(13)
H14 H 0.4606 0.8381 0.7971
C23 C 0.3952(4) 0.8370(5) 0.8328(3)
H15 H 0.4177 0.8293 0.8450
H16 H 0.3780 0.8037 0.8370
C24 C 0.3474(3) 0.8382(5) 0.7180(3)
H17 H 0.3574 0.8368 0.6962
H18 H 0.3313 0.8738 0.7195
C25 C 0.3240(3) 0.7791(5) 0.7240(3)
C26 C 0.3405(3) 0.7211(5) 0.7192(3)
C27 C 0.3230(3) 0.6698(4) 0.7294(2)
C28 C 0.2888(3) 0.6722(6) 0.7441(3)
H19 H 0.2770 0.6362 0.7506
C29 C 0.2717(3) 0.7296(5) 0.7492(3)
C30 C 0.2890(3) 0.7817(5) 0.7385(2)
H20 H 0.2773 0.8196 0.7409
C31 C 0.2286(3) 0.7342(5) 0.7594(3)
H21 H 0.2241 0.7718 0.7715
H22 H 0.2129 0.7344 0.7403
C32 C 0.3450(3) 0.6123(5) 0.7322(3)
H23 H 0.3563 0.6037 0.7114
H24 H 0.3282 0.5787 0.7370
C33 C 0.3544(3) 0.5646(5) 0.8653(2)
H25 H 0.3326 0.5848 0.8564
H26 H 0.3482 0.5515 0.8870
C34 C 0.3614(3) 0.5099(6) 0.8461(3)
C35 C 0.3348(3) 0.4611(5) 0.8441(3)
H27 H 0.3127 0.4626 0.8557
C36 C 0.3431(3) 0.4112(6) 0.8242(3)
H28 H 0.3257 0.3799 0.8218
C37 C 0.3771(3) 0.4069(5) 0.8076(3)
H29 H 0.3818 0.3730 0.7945
C38 C 0.4031(3) 0.4519(5) 0.8106(3)
H30 H 0.4261 0.4475 0.8006
C39 C 0.3952(3) 0.5056(6) 0.8290(3)
H31 H 0.4122 0.5377 0.8298
C40 C 0.5959(3) 0.8497(5) 0.8382(3)
H32 H 0.5905 0.8935 0.8392
H33 H 0.6045 0.8401 0.8165
C41 C 0.6267(3) 0.8325(5) 0.8638(3)
C42 C 0.6317(3) 0.8748(5) 0.8897(3)
H34 H 0.6160 0.9083 0.8926
C43 C 0.6606(3) 0.8640(5) 0.9100(3)
H35 H 0.6658 0.8924 0.9262
C44 C 0.6832(3) 0.8106(5) 0.9074(3)
H36 H 0.7022 0.8030 0.9221
C45 C 0.6760(3) 0.7702(5) 0.8821(3)
H37 H 0.6898 0.7342 0.8803
C46 C 0.6501(3) 0.7814(5) 0.8606(3)
H38 H 0.6472 0.7552 0.8430
C47 C 0.4043(3) 0.9445(5) 0.8472(2)
H39 H 0.4272 0.9256 0.8545
H40 H 0.3962 0.9728 0.8640
C48 C 0.4118(3) 0.9792(5) 0.8181(3)
C49 C 0.4486(3) 1.0005(6) 0.8108(3)
H41 H 0.4680 0.9907 0.8247
C50 C 0.4555(3) 1.0350(5) 0.7838(3)
H42 H 0.4793 1.0493 0.7795
C51 C 0.4266(3) 1.0483(6) 0.7629(3)
H43 H 0.4314 1.0699 0.7439
C52 C 0.3911(3) 1.0304(5) 0.7696(3)
H44 H 0.3717 1.0425 0.7562
C53 C 0.3842(3) 0.9946(4) 0.7961(3)
H45 H 0.3602 0.9801 0.7996
C54 C 0.1928(3) 0.6386(6) 0.7695(3)
H46 H 0.1820 0.6196 0.7885
H47 H 0.2044 0.6063 0.7568
C55 C 0.16095(16) 0.6688(3) 0.74886(15)
C56 C 0.14247(19) 0.7167(3) 0.76430(13)
H48 H 0.1510 0.7313 0.7841
C57 C 0.11117(18) 0.7426(3) 0.75016(16)
H49 H 0.0988 0.7747 0.7605
C58 C 0.09836(16) 0.7208(3) 0.72058(16)
H50 H 0.0774 0.7382 0.7111
C59 C 0.11684(19) 0.6729(3) 0.70514(13)
H51 H 0.1083 0.6583 0.6853
C60 C 0.14814(19) 0.6469(3) 0.71928(14)
H52 H 0.1605 0.6149 0.7089
C61 C 0.4281(3) 0.5145(5) 0.7207(3)
H53 H 0.4349 0.5016 0.6991
H54 H 0.4493 0.5062 0.7346
C62 C 0.3982(3) 0.4755(5) 0.7314(3)
H55 H 0.3755 0.4856 0.7199
H56 H 0.3938 0.4811 0.7544
C63 C 0.4091(3) 0.4107(5) 0.7246(3)
H57 H 0.4137 0.4058 0.7019
H58 H 0.3894 0.3835 0.7311
H59 H 0.4312 0.4008 0.7365
C64 C 0.4953(3) 0.6844(5) 0.6981(3)
H60 H 0.5135 0.6583 0.7086
H61 H 0.4805 0.6591 0.6837
C65 C 0.5141(3) 0.7330(5) 0.6795(2)
H62 H 0.5384 0.7192 0.6724
H63 H 0.5171 0.7698 0.6925
C66 C 0.4895(3) 0.7451(5) 0.6512(3)
H64 H 0.4883 0.7091 0.6378
H65 H 0.4993 0.7788 0.6388
H66 H 0.4650 0.7553 0.6587
C67 C 0.4230(4) 0.9216(5) 0.6882(3)
H67 H 0.4340 0.9450 0.7058
H68 H 0.4385 0.9274 0.6692
C68 C 0.3858(4) 0.9460(5) 0.6815(3)
H69 H 0.3722 0.9525 0.7014
H70 H 0.3719 0.9181 0.6678
C69 C 0.3926(4) 1.0057(7) 0.6646(4)
H71 H 0.4188 1.0108 0.6610
H72 H 0.3836 1.0389 0.6777
H73 H 0.3800 1.0057 0.6441
C70 C 0.3736(4) 0.7168(5) 0.6719(3)
H74 H 0.3894 0.7495 0.6638
H75 H 0.3484 0.7268 0.6658
C71 C 0.3840(4) 0.6598(5) 0.6552(3)
H76 H 0.3702 0.6256 0.6643
H77 H 0.4102 0.6519 0.6583
C72 C 0.3754(4) 0.6658(6) 0.6191(3)
H78 H 0.3547 0.6930 0.6161
H79 H 0.3694 0.6260 0.6104
H80 H 0.3967 0.6820 0.6081
C73 C 0.4088(3) 0.6041(4) 0.8927(3)
C74 C 0.5348(4) 0.8317(6) 0.8680(3)
C75 C 0.3457(3) 0.9021(4) 0.8507(2)
C76 C 0.2356(3) 0.6704(4) 0.8122(2)
C77 C 0.4917(3) 0.7370(5) 1.0614(3)
H81 H 0.5109 0.7415 1.0776
H82 H 0.4970 0.7651 1.0437
C78 C 0.4537(3) 0.7518(5) 1.0761(2)
C79 C 0.4294(3) 0.7100(5) 1.0898(2)
H83 H 0.4354 0.6684 1.0893
C80 C 0.3965(3) 0.7279(5) 1.1042(3)
C81 C 0.3885(3) 0.7919(5) 1.1046(3)
C82 C 0.4131(3) 0.8323(5) 1.0903(3)
C83 C 0.4443(3) 0.8144(5) 1.0763(3)
H84 H 0.4599 0.8432 1.0667
C84 C 0.3992(3) 0.8998(4) 1.0849(3)
H85 H 0.3917 0.9177 1.1054
H86 H 0.4192 0.9246 1.0760
C85 C 0.3668(3) 0.8994(4) 1.0618(2)
C86 C 0.3305(3) 0.9164(4) 1.0703(3)
C87 C 0.3016(3) 0.9133(5) 1.0481(3)
C88 C 0.3097(3) 0.8900(5) 1.0163(3)
H87 H 0.2907 0.8860 1.0012
C89 C 0.3442(3) 0.8743(5) 1.0084(3)
C90 C 0.3738(3) 0.8801(5) 1.0300(3)
H88 H 0.3979 0.8713 1.0234
C91 C 0.3572(3) 0.8535(5) 0.9748(3)
H89 H 0.3745 0.8195 0.9768
H90 H 0.3361 0.8399 0.9621
C92 C 0.2623(3) 0.9351(5) 1.0542(3)
H91 H 0.2560 0.9681 1.0393
H92 H 0.2599 0.9505 1.0761
C93 C 0.2350(3) 0.8778(5) 1.0489(2)
C94 C 0.2375(3) 0.8228(5) 1.0665(3)
C95 C 0.2224(3) 0.7703(5) 1.0563(3)
C96 C 0.2035(3) 0.7702(5) 1.0257(2)
H93 H 0.1932 0.7341 1.0177
C97 C 0.2010(3) 0.8237(5) 1.0087(3)
C98 C 0.2177(3) 0.8770(5) 1.0198(3)
H94 H 0.2171 0.9125 1.0072
C99 C 0.1816(3) 0.8100(5) 0.9781(3)
H95 H 0.1567 0.7954 0.9825
H96 H 0.1948 0.7781 0.9664
C100 C 0.2319(3) 0.7091(5) 1.0732(3)
H97 H 0.2162 0.6765 1.0649
H98 H 0.2275 0.7128 1.0963
C101 C 0.2743(3) 0.6928(5) 1.0669(3)
C102 C 0.2991(3) 0.6896(5) 1.0923(3)
C103 C 0.3368(3) 0.6813(5) 1.0856(3)
C104 C 0.3490(3) 0.6778(5) 1.0539(3)
H99 H 0.3740 0.6716 1.0494
C105 C 0.3231(3) 0.6838(5) 1.0286(3)
C106 C 0.2840(3) 0.6895(5) 1.0359(3)
H100 H 0.2664 0.6908 1.0195
C107 C 0.3363(3) 0.6780(5) 0.9943(3)
H101 H 0.3623 0.6662 0.9942
H102 H 0.3340 0.7174 0.9835
C108 C 0.3653(3) 0.6806(5) 1.1115(3)
H103 H 0.3760 0.6397 1.1131
H104 H 0.3538 0.6904 1.1321
C109 C 0.5089(3) 0.6237(5) 1.0721(3)
H105 H 0.5037 0.5818 1.0655
H106 H 0.4984 0.6298 1.0935
C110 C 0.5513(3) 0.6334(5) 1.0736(3)
C111 C 0.5676(3) 0.6375(5) 1.1029(3)
H107 H 0.5536 0.6319 1.1216
C112 C 0.6063(3) 0.6505(6) 1.1052(3)
H108 H 0.6175 0.6572 1.1252
C113 C 0.6263(3) 0.6527(5) 1.0769(3)
H109 H 0.6518 0.6582 1.0779
C114 C 0.6096(3) 0.6471(5) 1.0470(3)
H110 H 0.6235 0.6509 1.0281
C115 C 0.5723(3) 0.6358(5) 1.0454(3)
H111 H 0.5610 0.6297 1.0254
C116 C 0.3502(3) 0.9522(5) 0.9479(3)
H112 H 0.3256 0.9345 0.9460
H113 H 0.3575 0.9681 0.9270
C117 C 0.3503(3) 1.0033(6) 0.9730(3)
C118 C 0.3173(3) 1.0364(6) 0.9786(3)
H114 H 0.2961 1.0282 0.9665
C119 C 0.3167(4) 1.0789(6) 1.0012(3)
H115 H 0.2947 1.1000 1.0051
C120 C 0.3483(3) 1.0937(5) 1.0196(3)
H116 H 0.3471 1.1246 1.0352
C121 C 0.3814(3) 1.0624(5) 1.0146(3)
H117 H 0.4026 1.0718 1.0265
C122 C 0.3820(3) 1.0156(5) 0.9907(3)
H118 H 0.4035 0.9932 0.9870
C123 C 0.1489(3) 0.9093(5) 0.9593(3)
H119 H 0.1581 0.9501 0.9541
H120 H 0.1410 0.9104 0.9817
C124 C 0.11539(14) 0.9001(3) 0.93973(14)
C125 C 0.11804(14) 0.8851(3) 0.90710(15)
H121 H 0.1409 0.8870 0.8967
C126 C 0.08658(18) 0.8671(3) 0.89009(12)
H122 H 0.0883 0.8570 0.8683
C127 C 0.05246(15) 0.8641(4) 0.90571(15)
H123 H 0.0314 0.8521 0.8943
C128 C 0.04981(14) 0.8791(3) 0.93834(15)
H124 H 0.0270 0.8771 0.9488
C129 C 0.08128(17) 0.8971(3) 0.95535(12)
H125 H 0.0795 0.9071 0.9772
C130 C 0.3016(3) 0.5722(5) 0.9960(2)
H126 H 0.2781 0.5815 1.0063
H127 H 0.2970 0.5393 0.9806
C131 C 0.3271(3) 0.5484(5) 1.0211(3)
C132 C 0.3146(3) 0.5387(5) 1.0516(2)
H128 H 0.2898 0.5450 1.0567
C133 C 0.3395(3) 0.5194(5) 1.0752(3)
H129 H 0.3310 0.5127 1.0962
C134 C 0.3764(3) 0.5099(5) 1.0684(3)
H130 H 0.3924 0.4966 1.0847
C135 C 0.3898(4) 0.5200(5) 1.0375(3)
H131 H 0.4148 0.5141 1.0329
C136 C 0.3648(3) 0.5396(5) 1.0127(3)
H132 H 0.3730 0.5463 0.9917
C137 C 0.3551(4) 0.8235(6) 1.1521(3)
H133 H 0.3679 0.8623 1.1554
H134 H 0.3682 0.7918 1.1641
C138 C 0.3166(3) 0.8281(5) 1.1638(3)
H135 H 0.3043 0.7887 1.1612
H136 H 0.3033 0.8584 1.1511
C139 C 0.3161(3) 0.8460(5) 1.1983(2)
H137 H 0.3105 0.8106 1.2114
H138 H 0.2974 0.8769 1.2017
H139 H 0.3399 0.8621 1.2043
C140 C 0.3296(4) 1.0109(5) 1.0918(3)
H140 H 0.3555 1.0221 1.0897
H141 H 0.3166 1.0223 1.0721
C141 C 0.3129(3) 1.0404(4) 1.1200(3)
H142 H 0.2879 1.0253 1.1237
H143 H 0.3120 1.0847 1.1173
C142 C 0.3379(4) 1.0231(6) 1.1473(3)
H144 H 0.3300 1.0434 1.1667
H145 H 0.3629 1.0353 1.1422
H146 H 0.3371 0.9793 1.1504
C143 C 0.2280(3) 0.8211(5) 1.1242(3)
H147 H 0.2404 0.8043 1.1431
H148 H 0.2066 0.7958 1.1194
C144 C 0.2158(3) 0.8886(6) 1.1308(3)
H149 H 0.2251 0.9145 1.1134
H150 H 0.1889 0.8906 1.1302
C145 C 0.2294(4) 0.9148(6) 1.1633(3)
H151 H 0.2085 0.9228 1.1771
H152 H 0.2427 0.9523 1.1596
H153 H 0.2454 0.8854 1.1736
C146 C 0.2804(3) 0.6296(5) 1.1372(3)
H154 H 0.2653 0.6042 1.1231
H155 H 0.3044 0.6099 1.1401
C147 C 0.2620(3) 0.6388(6) 1.1684(3)
H156 H 0.2746 0.6709 1.1806
H157 H 0.2365 0.6512 1.1651
C148 C 0.2634(3) 0.5813(5) 1.1861(3)
H158 H 0.2665 0.5478 1.1712
H159 H 0.2408 0.5759 1.1980
H160 H 0.2840 0.5820 1.2009
C149 C 0.4785(3) 0.6576(5) 1.0177(3)
C150 C 0.4135(3) 0.9109(5) 0.9519(3)
C151 C 0.2140(3) 0.8770(4) 0.9344(3)
C152 C 0.3001(3) 0.6363(5) 0.9449(3)
Au4A Au 0.516504(12) 1.063295(19) 0.90630(2)
Au5C Au 0.229063(13) 0.46006(2) 0.88904(2)
Au8C Au 0.252243(12) 1.094890(19) 0.87943(2)
loop_
_geom_bond_atom_site_label_1
_geom_bond_atom_site_label_2
_geom_bond_site_symmetry_1
_geom_bond_site_symmetry_2
Au1 Au2 1_555 1_555
Au2 Au3 1_555 1_555
Au3 Au4 1_555 1_555
Au4 S4 1_555 1_555
Au5 Au6 1_555 1_555
Au6 Au7 1_555 1_555
Au7 Au8 1_555 1_555
Au8 S8 1_555 1_555
N1 C1 1_555 1_555
N2 C15 1_555 1_555
N3 C23 1_555 1_555
N4 C31 1_555 1_555
N5 C77 1_555 1_555
N6 C91 1_555 1_555
N7 C99 1_555 1_555
N8 C107 1_555 1_555
O1 C5 1_555 1_555
O2 C10 1_555 1_555
O3 C18 1_555 1_555
O4 C26 1_555 1_555
O5 C81 1_555 1_555
O6 C86 1_555 1_555
O7 C94 1_555 1_555
O8 C102 1_555 1_555
S1 Au1 1_555 1_555
S2 Au2 1_555 1_555
S3 Au3 1_555 1_555
S4 C74 1_555 1_555
S5 Au5 1_555 1_555
S6 Au6 1_555 1_555
S7 Au7 1_555 1_555
S8 C76 1_555 1_555
S9 Au1 1_555 1_555
S10 Au2 1_555 1_555
S11 Au3 1_555 1_555
S12 Au4 1_555 1_555
S13 Au5 1_555 1_555
S14 Au6 1_555 1_555
S15 Au7 1_555 1_555
S16 Au8 1_555 1_555
C1 H1 1_555 1_555
H2 C1 1_555 1_555
C2 C1 1_555 1_555
C3 C2 1_555 1_555
H3 C3 1_555 1_555
C4 C3 1_555 1_555
C5 C4 1_555 1_555
C6 C5 1_555 1_555
C7 C2 1_555 1_555
H4 C7 1_555 1_555
C8 C6 1_555 1_555
H5 C8 1_555 1_555
H6 C8 1_555 1_555
C9 C8 1_555 1_555
C10 C9 1_555 1_555
C11 C10 1_555 1_555
C12 C11 1_555 1_555
H7 C12 1_555 1_555
C13 C12 1_555 1_555
C14 C9 1_555 1_555
H8 C14 1_555 1_555
C15 C13 1_555 1_555
H9 C15 1_555 1_555
H10 C15 1_555 1_555
C16 C11 1_555 1_555
H11 C16 1_555 1_555
H12 C16 1_555 1_555
C17 C16 1_555 1_555
C18 C17 1_555 1_555
C19 C18 1_555 1_555
C20 C19 1_555 1_555
H13 C20 1_555 1_555
C21 C20 1_555 1_555
C22 C17 1_555 1_555
H14 C22 1_555 1_555
C23 C21 1_555 1_555
H15 C23 1_555 1_555
H16 C23 1_555 1_555
C24 C19 1_555 1_555
H17 C24 1_555 1_555
H18 C24 1_555 1_555
C25 C24 1_555 1_555
C26 C25 1_555 1_555
C27 C26 1_555 1_555
C28 C27 1_555 1_555
H19 C28 1_555 1_555
C29 C28 1_555 1_555
C30 C25 1_555 1_555
H20 C30 1_555 1_555
C31 C29 1_555 1_555
H21 C31 1_555 1_555
H22 C31 1_555 1_555
C32 C4 1_555 1_555
H23 C32 1_555 1_555
H24 C32 1_555 1_555
C33 N1 1_555 1_555
H25 C33 1_555 1_555
H26 C33 1_555 1_555
C34 C33 1_555 1_555
C35 C34 1_555 1_555
H27 C35 1_555 1_555
C36 C35 1_555 1_555
H28 C36 1_555 1_555
C37 C36 1_555 1_555
H29 C37 1_555 1_555
C38 C37 1_555 1_555
H30 C38 1_555 1_555
C39 C34 1_555 1_555
H31 C39 1_555 1_555
C40 N2 1_555 1_555
H32 C40 1_555 1_555
H33 C40 1_555 1_555
C41 C40 1_555 1_555
C42 C41 1_555 1_555
H34 C42 1_555 1_555
C43 C42 1_555 1_555
H35 C43 1_555 1_555
C44 C43 1_555 1_555
H36 C44 1_555 1_555
C45 C44 1_555 1_555
H37 C45 1_555 1_555
C46 C41 1_555 1_555
H38 C46 1_555 1_555
C47 N3 1_555 1_555
H39 C47 1_555 1_555
H40 C47 1_555 1_555
C48 C47 1_555 1_555
C49 C48 1_555 1_555
H41 C49 1_555 1_555
C50 C49 1_555 1_555
H42 C50 1_555 1_555
C51 C50 1_555 1_555
H43 C51 1_555 1_555
C52 C51 1_555 1_555
H44 C52 1_555 1_555
C53 C48 1_555 1_555
H45 C53 1_555 1_555
C54 N4 1_555 1_555
H46 C54 1_555 1_555
H47 C54 1_555 1_555
C55 C54 1_555 1_555
C56 C55 1_555 1_555
H48 C56 1_555 1_555
C57 C56 1_555 1_555
H49 C57 1_555 1_555
C58 C57 1_555 1_555
H50 C58 1_555 1_555
C59 C58 1_555 1_555
H51 C59 1_555 1_555
C60 C55 1_555 1_555
H52 C60 1_555 1_555
C61 O1 1_555 1_555
H53 C61 1_555 1_555
H54 C61 1_555 1_555
C62 C61 1_555 1_555
H55 C62 1_555 1_555
H56 C62 1_555 1_555
C63 C62 1_555 1_555
H57 C63 1_555 1_555
H58 C63 1_555 1_555
H59 C63 1_555 1_555
C64 O2 1_555 1_555
H60 C64 1_555 1_555
H61 C64 1_555 1_555
C65 C64 1_555 1_555
H62 C65 1_555 1_555
H63 C65 1_555 1_555
C66 C65 1_555 1_555
H64 C66 1_555 1_555
H65 C66 1_555 1_555
H66 C66 1_555 1_555
C67 O3 1_555 1_555
H67 C67 1_555 1_555
H68 C67 1_555 1_555
C68 C67 1_555 1_555
H69 C68 1_555 1_555
H70 C68 1_555 1_555
C69 C68 1_555 1_555
H71 C69 1_555 1_555
H72 C69 1_555 1_555
H73 C69 1_555 1_555
C70 O4 1_555 1_555
H74 C70 1_555 1_555
H75 C70 1_555 1_555
C71 C70 1_555 1_555
H76 C71 1_555 1_555
H77 C71 1_555 1_555
C72 C71 1_555 1_555
H78 C72 1_555 1_555
H79 C72 1_555 1_555
H80 C72 1_555 1_555
C73 N1 1_555 1_555
C74 N2 1_555 1_555
C75 N3 1_555 1_555
C76 N4 1_555 1_555
C77 H81 1_555 1_555
H82 C77 1_555 1_555
C78 C77 1_555 1_555
C79 C78 1_555 1_555
H83 C79 1_555 1_555
C80 C79 1_555 1_555
C81 C80 1_555 1_555
C82 C81 1_555 1_555
C83 C78 1_555 1_555
H84 C83 1_555 1_555
C84 C82 1_555 1_555
H85 C84 1_555 1_555
H86 C84 1_555 1_555
C85 C84 1_555 1_555
C86 C85 1_555 1_555
C87 C86 1_555 1_555
C88 C87 1_555 1_555
H87 C88 1_555 1_555
C89 C88 1_555 1_555
C90 C85 1_555 1_555
H88 C90 1_555 1_555
C91 C89 1_555 1_555
H89 C91 1_555 1_555
H90 C91 1_555 1_555
C92 C87 1_555 1_555
H91 C92 1_555 1_555
H92 C92 1_555 1_555
C93 C92 1_555 1_555
C94 C93 1_555 1_555
C95 C94 1_555 1_555
C96 C95 1_555 1_555
H93 C96 1_555 1_555
C97 C96 1_555 1_555
C98 C93 1_555 1_555
H94 C98 1_555 1_555
C99 C97 1_555 1_555
H95 C99 1_555 1_555
H96 C99 1_555 1_555
C100 C95 1_555 1_555
H97 C100 1_555 1_555
H98 C100 1_555 1_555
C101 C100 1_555 1_555
C102 C101 1_555 1_555
C103 C102 1_555 1_555
C104 C103 1_555 1_555
H99 C104 1_555 1_555
C105 C104 1_555 1_555
C106 C101 1_555 1_555
H100 C106 1_555 1_555
C107 C105 1_555 1_555
H101 C107 1_555 1_555
H102 C107 1_555 1_555
C108 C80 1_555 1_555
H103 C108 1_555 1_555
H104 C108 1_555 1_555
C109 N5 1_555 1_555
H105 C109 1_555 1_555
H106 C109 1_555 1_555
C110 C109 1_555 1_555
C111 C110 1_555 1_555
H107 C111 1_555 1_555
C112 C111 1_555 1_555
H108 C112 1_555 1_555
C113 C112 1_555 1_555
H109 C113 1_555 1_555
C114 C113 1_555 1_555
H110 C114 1_555 1_555
C115 C110 1_555 1_555
H111 C115 1_555 1_555
C116 N6 1_555 1_555
H112 C116 1_555 1_555
H113 C116 1_555 1_555
C117 C116 1_555 1_555
C118 C117 1_555 1_555
H114 C118 1_555 1_555
C119 C118 1_555 1_555
H115 C119 1_555 1_555
C120 C119 1_555 1_555
H116 C120 1_555 1_555
C121 C120 1_555 1_555
H117 C121 1_555 1_555
C122 C117 1_555 1_555
H118 C122 1_555 1_555
C123 N7 1_555 1_555
H119 C123 1_555 1_555
H120 C123 1_555 1_555
C124 C123 1_555 1_555
C125 C124 1_555 1_555
H121 C125 1_555 1_555
C126 C125 1_555 1_555
H122 C126 1_555 1_555
C127 C126 1_555 1_555
H123 C127 1_555 1_555
C128 C127 1_555 1_555
H124 C128 1_555 1_555
C129 C124 1_555 1_555
H125 C129 1_555 1_555
C130 N8 1_555 1_555
H126 C130 1_555 1_555
H127 C130 1_555 1_555
C131 C130 1_555 1_555
C132 C131 1_555 1_555
H128 C132 1_555 1_555
C133 C132 1_555 1_555
H129 C133 1_555 1_555
C134 C133 1_555 1_555
H130 C134 1_555 1_555
C135 C134 1_555 1_555
H131 C135 1_555 1_555
C136 C131 1_555 1_555
H132 C136 1_555 1_555
C137 O5 1_555 1_555
H133 C137 1_555 1_555
H134 C137 1_555 1_555
C138 C137 1_555 1_555
H135 C138 1_555 1_555
H136 C138 1_555 1_555
C139 C138 1_555 1_555
H137 C139 1_555 1_555
H138 C139 1_555 1_555
H139 C139 1_555 1_555
C140 O6 1_555 1_555
H140 C140 1_555 1_555
H141 C140 1_555 1_555
C141 C140 1_555 1_555
H142 C141 1_555 1_555
H143 C141 1_555 1_555
C142 C141 1_555 1_555
H144 C142 1_555 1_555
H145 C142 1_555 1_555
H146 C142 1_555 1_555
C143 O7 1_555 1_555
H147 C143 1_555 1_555
H148 C143 1_555 1_555
C144 C143 1_555 1_555
H149 C144 1_555 1_555
H150 C144 1_555 1_555
C145 C144 1_555 1_555
H151 C145 1_555 1_555
H152 C145 1_555 1_555
H153 C145 1_555 1_555
C146 O8 1_555 1_555
H154 C146 1_555 1_555
H155 C146 1_555 1_555
C147 C146 1_555 1_555
H156 C147 1_555 1_555
H157 C147 1_555 1_555
C148 C147 1_555 1_555
H158 C148 1_555 1_555
H159 C148 1_555 1_555
H160 C148 1_555 1_555
C149 N5 1_555 1_555
C150 N6 1_555 1_555
C151 N7 1_555 1_555
C152 N8 1_555 1_555
Au4A Au4 1_555 1_555
Au5C Au8 1_555 1_555
Au8C Au5 1_555 1_555
S1 C73 1_555 1_555
S2 C73 1_555 1_555
S3 C74 1_555 1_555
S5 C75 1_555 1_555
S6 C75 1_555 1_555
S7 C76 1_555 1_555
S9 C149 1_555 1_555
S10 C149 1_555 1_555
S11 C150 1_555 1_555
S12 C150 1_555 1_555
S13 C151 1_555 1_555
S14 C151 1_555 1_555
S15 C152 1_555 1_555
S16 C152 1_555 1_555
C6 C7 1_555 1_555
C13 C14 1_555 1_555
C21 C22 1_555 1_555
C27 C32 1_555 1_555
C29 C30 1_555 1_555
C38 C39 1_555 1_555
C45 C46 1_555 1_555
C52 C53 1_555 1_555
C59 C60 1_555 1_555
C82 C83 1_555 1_555
C89 C90 1_555 1_555
C97 C98 1_555 1_555
C103 C108 1_555 1_555
C105 C106 1_555 1_555
C114 C115 1_555 1_555
C121 C122 1_555 1_555
C128 C129 1_555 1_555
C135 C136 1_555 1_555

#END
