
#######################################################################
#
#                 Cambridge Crystallographic Data Centre
#                                CCDC 
#
#######################################################################
#
# If this CIF has been generated from an entry in the Cambridge 
# Structural Database, then it will include bibliographic, chemical, 
# crystal, experimental, refinement or atomic coordinate data resulting 
# from the CCDC's data processing and validation procedures.
#
#######################################################################

data_KUNDEE
_symmetry_cell_setting           triclinic
_symmetry_space_group_name_H-M   'P -1'
_symmetry_Int_Tables_number      2
_space_group_name_Hall           '-P 1'
loop_
_symmetry_equiv_pos_site_id
_symmetry_equiv_pos_as_xyz
1 x,y,z
2 -x,-y,-z
_cell_length_a                   21.957(4)
_cell_length_b                   27.821(6)
_cell_length_c                   28.369(6)
_cell_angle_alpha                75.91(3)
_cell_angle_beta                 72.76(3)
_cell_angle_gamma                76.36(3)
_cell_volume                     15800.6
loop_
_atom_site_label
_atom_site_type_symbol
_atom_site_fract_x
_atom_site_fract_y
_atom_site_fract_z
Au1 Au 0.39833(9) 0.75437(5) 0.46782(4)
Au2 Au 0.40675(9) 0.71875(5) 0.38142(4)
Au3 Au 0.43203(7) 0.64104(5) 0.31979(4)
Au4 Au 0.42071(7) 0.56061(4) 0.28159(4)
Au5 Au 0.55991(8) 0.93560(5) 0.22865(5)
Au6 Au 0.53888(7) 0.87633(5) 0.17117(5)
Au7 Au 0.48620(7) 0.82927(4) 0.11231(4)
Au8 Au 0.46073(6) 0.77466(4) 0.05209(4)
Au9 Au 0.46140(7) 0.73674(4) -0.03737(4)
Au10 Au 0.48714(6) 0.67588(4) -0.10839(4)
Au11 Au 0.53744(7) 0.61511(5) -0.18843(4)
Au12 Au 0.55511(7) 0.54693(5) -0.25060(5)
Au13 Au 0.41830(7) 0.96031(4) -0.24981(4)
Au14 Au 0.43108(7) 0.87703(5) -0.29364(4)
Au15 Au 0.40749(8) 0.80646(5) -0.34726(4)
Au16 Au 0.40066(7) 0.76947(5) -0.42891(4)
S1 S 0.4917(6) 0.7882(4) 0.4297(3)
S2 S 0.5160(6) 0.7182(4) 0.3557(3)
S3 S 0.5216(5) 0.5970(3) 0.3461(3)
S4 S 0.4664(4) 0.5065(3) 0.3414(3)
S5 S 0.6524(5) 0.9530(3) 0.1692(3)
S6 S 0.6480(4) 0.8565(3) 0.1357(3)
S7 S 0.5795(5) 0.7707(3) 0.1127(3)
S8 S 0.5028(5) 0.6993(3) 0.0963(3)
S9 S 0.6424(10) 0.7591(6) 0.4443(6)
S10 S 0.4584(6) 0.4255(4) 0.4562(3)
S11 S 0.6351(7) 0.5939(4) 0.1123(5)
S12 S 0.8238(8) 0.9808(5) -0.0064(5)
O1 O 0.8769(14) 0.6773(10) 0.2930(11)
O2 O 0.8335(12) 0.5841(8) 0.2714(9)
O3 O 0.8482(12) 0.5790(8) 0.1415(8)
O4 O 0.8820(11) 0.6836(8) 0.1681(10)
N1 N 0.5805(18) 0.7886(11) 0.3447(11)
N2 N 0.5651(14) 0.5010(9) 0.3794(9)
N3 N 0.5598(14) 0.6827(10) 0.1713(10)
N4 N 0.7398(14) 0.9087(10) 0.1003(10)
C1 C 0.531(2) 0.7663(12) 0.3741(12)
C2 C 0.601(2) 0.8301(14) 0.3560(16)
H1 H 0.5639 0.8507 0.3756
H2 H 0.6203 0.8520 0.3243
C3 C 0.654(2) 0.8069(14) 0.3872(14)
C4 C 0.719(2) 0.8158(15) 0.3712(15)
H3 H 0.7343 0.8394 0.3421
C5 C 0.760(2) 0.7840(18) 0.4052(18)
H4 H 0.8048 0.7855 0.3998
C6 C 0.726(2) 0.7514(17) 0.4463(17)
H5 H 0.7449 0.7287 0.4714
C7 C 0.6137(19) 0.7787(13) 0.2956(12)
H6 H 0.6167 0.8111 0.2718
H7 H 0.5878 0.7604 0.2850
C8 C 0.6859(19) 0.7459(13) 0.2919(12)
C9 C 0.7368(18) 0.7672(13) 0.2592(12)
H8 H 0.7281 0.7981 0.2369
C10 C 0.801(2) 0.7447(14) 0.2580(13)
C11 C 0.813(2) 0.7032(14) 0.2878(14)
C12 C 0.759(2) 0.6793(13) 0.3276(13)
C13 C 0.697(2) 0.7046(12) 0.3269(12)
H9 H 0.6611 0.6926 0.3517
C14 C 0.898(2) 0.6991(19) 0.329(2)
H10 H 0.8914 0.7363 0.3203
H11 H 0.8730 0.6890 0.3643
C15 C 0.967(3) 0.676(2) 0.322(2)
H12 H 0.9936 0.6995 0.2956
H13 H 0.9754 0.6444 0.3095
C16 C 0.989(3) 0.666(2) 0.370(2)
H14 H 0.9618 0.6447 0.3965
H15 H 0.9854 0.6980 0.3804
H16 H 1.0345 0.6488 0.3643
C17 C 0.7692(16) 0.6329(11) 0.3631(11)
H17 H 0.7444 0.6385 0.3972
H18 H 0.8157 0.6238 0.3629
C18 C 0.748(2) 0.5865(13) 0.3515(13)
C19 C 0.773(2) 0.5712(13) 0.3049(13)
C20 C 0.7430(19) 0.5421(12) 0.2869(12)
C21 C 0.6875(19) 0.5260(12) 0.3211(12)
H19 H 0.6668 0.5054 0.3108
C22 C 0.6616(19) 0.5370(13) 0.3663(12)
C23 C 0.689(2) 0.5716(12) 0.3800(12)
H20 H 0.6674 0.5848 0.4097
C24 C 0.6004(18) 0.5205(13) 0.4045(12)
H21 H 0.6128 0.4941 0.4322
H22 H 0.5724 0.5495 0.4191
C25 C 0.5190(18) 0.5313(11) 0.3580(11)
C26 C 0.5757(19) 0.4449(11) 0.3852(11)
H23 H 0.6229 0.4317 0.3787
H24 H 0.5597 0.4366 0.3596
C27 C 0.5410(14) 0.4173(10) 0.4391(10)
C28 C 0.5691(15) 0.3878(10) 0.4740(11)
H25 H 0.6147 0.3810 0.4697
C29 C 0.5319(17) 0.3704(10) 0.5116(10)
H26 H 0.5450 0.3466 0.5386
C30 C 0.4710(17) 0.3881(9) 0.5108(9)
H27 H 0.4362 0.3805 0.5391
C31 C 0.8787(17) 0.5601(13) 0.2911(15)
H28 H 0.8606 0.5524 0.3279
H29 H 0.9105 0.5824 0.2846
C32 C 0.9150(17) 0.5105(12) 0.2733(19)
H30 H 0.9147 0.5159 0.2375
H31 H 0.8869 0.4852 0.2916
C33 C 0.9851(14) 0.4835(14) 0.276(2)
H32 H 0.9949 0.4904 0.3047
H33 H 1.0160 0.4961 0.2449
H34 H 0.9884 0.4472 0.2791
C34 C 0.7624(19) 0.5372(12) 0.2329(12)
H35 H 0.7395 0.5128 0.2282
H36 H 0.8096 0.5246 0.2227
C35 C 0.7458(17) 0.5879(12) 0.2008(12)
C36 C 0.7885(18) 0.6093(12) 0.1594(12)
C37 C 0.7743(18) 0.6576(12) 0.1327(11)
C38 C 0.7162(13) 0.6820(12) 0.1473(11)
H37 H 0.7051 0.7152 0.1298
C39 C 0.6667(17) 0.6609(12) 0.1897(11)
C40 C 0.6874(15) 0.6156(11) 0.2172(11)
H38 H 0.6600 0.6034 0.2487
C41 C 0.849(2) 0.5438(13) 0.1103(13)
H39 H 0.8182 0.5210 0.1294
H40 H 0.8931 0.5229 0.1032
C42 C 0.831(2) 0.5719(14) 0.0567(13)
H41 H 0.7844 0.5863 0.0635
H42 H 0.8554 0.6001 0.0412
C43 C 0.847(2) 0.5356(13) 0.0184(13)
H43 H 0.8573 0.5548 -0.0160
H44 H 0.8100 0.5196 0.0238
H45 H 0.8849 0.5096 0.0235
C44 C 0.5936(17) 0.6915(12) 0.2029(11)
H46 H 0.5718 0.6801 0.2386
H47 H 0.5940 0.7280 0.1975
C45 C 0.5765(14) 0.7098(6) 0.1172(12)
C46 C 0.538(2) 0.6353(13) 0.1858(15)
H48 H 0.4996 0.6398 0.1727
H49 H 0.5228 0.6287 0.2229
C47 C 0.5863(16) 0.5837(11) 0.1697(11)
C48 C 0.5944(14) 0.5345(11) 0.1982(9)
H50 H 0.5699 0.5237 0.2314
C49 C 0.6451(15) 0.5043(8) 0.1688(12)
H51 H 0.6606 0.4696 0.1792
C50 C 0.6690(17) 0.5335(11) 0.1218(12)
H52 H 0.7029 0.5194 0.0967
C51 C 0.8237(19) 0.6811(12) 0.0874(12)
H53 H 0.8074 0.6904 0.0568
H54 H 0.8656 0.6577 0.0810
C52 C 0.8311(18) 0.7307(13) 0.1042(13)
C53 C 0.8032(18) 0.7789(12) 0.0828(12)
H55 H 0.7853 0.7817 0.0554
C54 C 0.8006(7) 0.8199(11) 0.0983(12)
C55 C 0.8176(18) 0.8159(13) 0.1414(12)
H56 H 0.8104 0.8449 0.1556
C56 C 0.8453(19) 0.7699(13) 0.1648(13)
C57 C 0.8520(19) 0.7286(13) 0.1467(14)
C58 C 0.7694(18) 0.8710(12) 0.0686(12)
H57 H 0.8034 0.8843 0.0398
H58 H 0.7362 0.8644 0.0550
C59 C 0.6845(17) 0.9064(12) 0.1322(12)
C60 C 0.769(2) 0.9527(13) 0.0993(14)
H59 H 0.7813 0.9484 0.1313
H60 H 0.7373 0.9841 0.0959
C61 C 0.834(2) 0.9570(13) 0.0521(16)
C62 C 0.898(2) 0.9489(18) 0.0522(18)
H61 H 0.9161 0.9367 0.0802
C63 C 0.931(3) 0.963(2) 0.000(2)
H62 H 0.9768 0.9603 -0.0093
C64 C 0.899(3) 0.980(2) -0.033(2)
H63 H 0.9174 0.9892 -0.0684
C65 C 0.9477(14) 0.6795(13) 0.1392(16)
H64 H 0.9663 0.7085 0.1398
H65 H 0.9507 0.6787 0.1039
C66 C 0.9842(17) 0.6297(18) 0.1641(16)
H66 H 0.9540 0.6054 0.1757
H67 H 0.9913 0.6363 0.1946
C67 C 1.050(2) 0.602(2) 0.136(2)
H68 H 1.0602 0.6177 0.1003
H69 H 1.0473 0.5664 0.1388
H70 H 1.0845 0.6034 0.1507
C68 C 0.858(2) 0.7652(14) 0.2183(13)
H71 H 0.8988 0.7421 0.2209
H72 H 0.8603 0.7986 0.2232
S13 S 0.4739(5) 0.9145(4) 0.2936(3)
S14 S 0.4290(5) 0.8956(4) 0.2082(3)
S15 S 0.3914(4) 0.8847(3) 0.1088(3)
S16 S 0.4145(4) 0.8493(3) 0.0093(3)
S17 S 0.3730(4) 0.6132(3) 0.2205(3)
S18 S 0.3478(5) 0.6893(3) 0.2897(3)
S19 S 0.2978(6) 0.7228(4) 0.4008(3)
S20 S 0.3023(6) 0.7241(4) 0.5077(3)
S21 S 0.2994(7) 0.9568(5) 0.3582(4)
S22 S 0.4335(7) 1.0234(4) -0.0472(4)
S23 S 0.2246(7) 0.6520(5) 0.1992(5)
S24 S 0.2424(8) 0.5980(5) 0.5543(5)
O5 O 0.0862(13) 0.9723(8) 0.3218(9)
O6 O 0.1029(15) 0.9432(12) 0.2126(11)
O7 O 0.0481(12) 0.8326(9) 0.2169(9)
O8 O 0.0504(11) 0.8530(10) 0.3256(9)
N5 N 0.3798(15) 0.8652(11) 0.3047(10)
N6 N 0.3558(13) 0.9380(9) 0.0284(9)
N7 N 0.3358(15) 0.7114(9) 0.1972(9)
N8 N 0.2070(18) 0.7010(12) 0.4819(10)
C69 C 0.4286(18) 0.8867(14) 0.2712(12)
C70 C 0.375(2) 0.8574(14) 0.3585(12)
H73 H 0.4157 0.8616 0.3634
H74 H 0.3680 0.8225 0.3741
C71 C 0.3137(16) 0.8973(14) 0.3874(9)
C72 C 0.2701(15) 0.8847(11) 0.4343(9)
H75 H 0.2698 0.8532 0.4568
C73 C 0.227(2) 0.9304(11) 0.4391(13)
H76 H 0.1913 0.9326 0.4675
C74 C 0.238(3) 0.9728(14) 0.4015(13)
H77 H 0.2136 1.0057 0.4019
C75 C 0.3339(18) 0.8415(13) 0.2915(12)
H78 H 0.3287 0.8089 0.3146
H79 H 0.3522 0.8347 0.2569
C76 C 0.2682(17) 0.8755(12) 0.2950(9)
C77 C 0.2552(19) 0.9235(13) 0.2615(12)
H80 H 0.2887 0.9341 0.2334
C78 C 0.1946(18) 0.9539(13) 0.2699(11)
C79 C 0.1461(19) 0.9396(14) 0.3127(12)
C80 C 0.160(2) 0.8950(14) 0.3478(12)
C81 C 0.2174(15) 0.8617(13) 0.3376(9)
H81 H 0.2231 0.8297 0.3589
C82 C 0.182(2) 0.9973(13) 0.2310(12)
H82 H 0.2101 1.0217 0.2267
H83 H 0.1360 1.0144 0.2408
C83 C 0.0860(17) 1.0104(11) 0.3478(14)
H84 H 0.1278 1.0226 0.3356
H85 H 0.0781 0.9973 0.3844
C84 C 0.0297(18) 1.0531(11) 0.3357(17)
H86 H -0.0100 1.0380 0.3493
H87 H 0.0374 1.0601 0.2987
C85 C 0.012(2) 1.1053(10) 0.3516(14)
H88 H 0.0393 1.1281 0.3274
H89 H 0.0184 1.1015 0.3851
H90 H -0.0338 1.1194 0.3524
C86 C 0.1944(19) 0.9786(13) 0.1814(12)
C87 C 0.2491(18) 0.9894(12) 0.1428(11)
H91 H 0.2754 1.0108 0.1455
C88 C 0.2639(17) 0.9679(11) 0.1003(11)
C89 C 0.2279(12) 0.9348(11) 0.0968(11)
H92 H 0.2394 0.9180 0.0691
C90 C 0.1738(18) 0.9278(12) 0.1368(12)
C91 C 0.156(2) 0.9505(14) 0.1767(13)
C92 C 0.3250(17) 0.9785(11) 0.0597(11)
H93 H 0.3142 1.0107 0.0371
H94 H 0.3571 0.9828 0.0758
C93 C 0.3831(12) 0.8959(11) 0.0480(10)
C94 C 0.3542(18) 0.9544(12) -0.0250(11)
H95 H 0.3484 0.9258 -0.0373
H96 H 0.3165 0.9816 -0.0277
C95 C 0.411(2) 0.9717(13) -0.0559(12)
C96 C 0.4625(19) 0.9496(13) -0.0964(12)
H97 H 0.4622 0.9203 -0.1079
C97 C 0.513(2) 0.9794(13) -0.1152(14)
H98 H 0.5495 0.9725 -0.1420
C98 C 0.503(2) 1.0174(14) -0.0921(14)
H99 H 0.5334 1.0395 -0.1003
C99 C 0.0454(19) 0.9757(18) 0.2085(15)
H100 H 0.0274 0.9666 0.1844
H101 H 0.0535 1.0107 0.1959
C100 C -0.0007(18) 0.9721(14) 0.2579(15)
H102 H 0.0111 0.9944 0.2751
H103 H 0.0118 0.9374 0.2756
C101 C -0.0765(19) 0.9821(18) 0.2728(17)
H104 H -0.0919 0.9556 0.2645
H105 H -0.0926 1.0149 0.2542
H106 H -0.0925 0.9819 0.3089
C102 C 0.1362(18) 0.8836(12) 0.1394(12)
H107 H 0.0888 0.8946 0.1508
H108 H 0.1463 0.8747 0.1059
C103 C 0.1584(17) 0.8402(12) 0.1752(11)
C104 C 0.2244(17) 0.8226(12) 0.1721(11)
H109 H 0.2553 0.8372 0.1444
C105 C 0.2457(17) 0.7850(10) 0.2077(11)
C106 C 0.1999(17) 0.7635(11) 0.2481(11)
H110 H 0.2141 0.7369 0.2727
C107 C 0.1365(18) 0.7797(13) 0.2525(11)
C108 C 0.1149(17) 0.8186(13) 0.2145(12)
C109 C 0.024(2) 0.7991(16) 0.1984(14)
H111 H -0.0235 0.8024 0.2143
H112 H 0.0436 0.7643 0.2109
C110 C 0.033(2) 0.8045(17) 0.1412(15)
H113 H 0.0787 0.8054 0.1233
H114 H 0.0201 0.7755 0.1343
C111 C -0.007(2) 0.8501(19) 0.1248(19)
H115 H -0.0330 0.8708 0.1482
H116 H -0.0079 0.8599 0.0905
C112 C 0.3186(17) 0.7656(11) 0.2004(12)
H117 H 0.3423 0.7852 0.1692
H118 H 0.3322 0.7707 0.2288
C113 C 0.3525(17) 0.6731(12) 0.2336(11)
C114 C 0.327(2) 0.6998(14) 0.1496(12)
H119 H 0.3585 0.6693 0.1413
H120 H 0.3379 0.7281 0.1215
C115 C 0.255(2) 0.6910(11) 0.1526(11)
C116 C 0.2270(18) 0.7140(16) 0.1110(14)
H121 H 0.2438 0.7323 0.0785
C117 C 0.165(2) 0.6999(15) 0.1352(13)
H122 H 0.1285 0.7138 0.1216
C118 C 0.1605(18) 0.6639(14) 0.1810(13)
H123 H 0.1235 0.6489 0.1984
C119 C 0.0894(15) 0.7531(11) 0.2966(10)
H124 H 0.0444 0.7656 0.2934
H125 H 0.0996 0.7163 0.2972
C120 C 0.096(2) 0.7637(15) 0.3428(12)
C121 C 0.084(2) 0.8142(16) 0.3556(13)
C122 C 0.102(2) 0.8225(15) 0.3927(12)
C123 C 0.1313(19) 0.7835(13) 0.4236(11)
H126 H 0.1451 0.7906 0.4495
C124 C 0.141(2) 0.7342(15) 0.4177(12)
C125 C 0.1222(19) 0.7238(15) 0.3775(12)
H127 H 0.1272 0.6899 0.3739
C126 C -0.0161(12) 0.8521(12) 0.3301(11)
H128 H -0.0229 0.8172 0.3348
H129 H -0.0294 0.8721 0.2996
C127 C -0.0552(15) 0.876(2) 0.3769(17)
H130 H -0.0556 0.9124 0.3672
H131 H -0.0303 0.8627 0.4027
C128 C -0.1269(19) 0.868(3) 0.403(2)
H132 H -0.1502 0.8722 0.3773
H133 H -0.1482 0.8933 0.4244
H134 H -0.1270 0.8343 0.4235
C129 C 0.175(2) 0.6912(14) 0.4494(13)
H135 H 0.1420 0.6703 0.4705
H136 H 0.2069 0.6703 0.4266
C130 C 0.268(2) 0.7160(14) 0.4635(11)
C131 C 0.174(2) 0.6940(16) 0.5343(12)
H137 H 0.1960 0.7087 0.5518
H138 H 0.1293 0.7132 0.5379
C132 C 0.171(3) 0.6458(18) 0.5576(15)
C133 C 0.126(3) 0.6124(18) 0.5830(16)
H139 H 0.0816 0.6242 0.5847
C134 C 0.145(3) 0.567(2) 0.6036(19)
H140 H 0.1175 0.5477 0.6305
C135 C 0.208(3) 0.548(2) 0.5826(19)
H141 H 0.2283 0.5139 0.5841
C136 C 0.106(2) 0.8757(14) 0.3946(13)
H142 H 0.1170 0.8760 0.4259
H143 H 0.0638 0.8980 0.3940
S25 S 0.4144(4) 0.6749(3) 0.0231(2)
S26 S 0.3914(4) 0.6474(3) -0.0682(3)
S27 S 0.4278(4) 0.6254(3) -0.1808(3)
S28 S 0.4678(5) 0.5890(4) -0.2811(3)
S29 S 0.3046(5) 0.8253(4) -0.4333(3)
S30 S 0.2974(5) 0.8320(3) -0.3247(3)
S31 S 0.3452(5) 0.8530(4) -0.2314(3)
S32 S 0.3688(4) 0.9214(3) -0.1709(3)
S33 S 0.4225(6) 0.4926(3) 0.0757(3)
S34 S 0.3000(6) 0.5965(4) -0.2799(4)
S35 S 0.2341(8) 0.9700(5) -0.4571(5)
S36 S 0.2185(8) 0.9207(5) -0.0859(6)
O9 O 0.0940(12) 0.6614(9) -0.0516(8)
O10 O 0.0880(12) 0.6364(8) -0.1638(8)
O11 O 0.0539(12) 0.7630(9) -0.1535(8)
O12 O 0.0457(11) 0.7875(9) -0.0468(8)
N9 N 0.3544(13) 0.6003(9) 0.0255(8)
N10 N 0.3762(14) 0.6677(10) -0.2578(9)
N11 N 0.2075(16) 0.8708(10) -0.3729(10)
N12 N 0.3320(14) 0.8349(9) -0.1339(9)
C137 C 0.3854(15) 0.6397(11) -0.0030(10)
C138 C 0.3527(17) 0.5867(10) 0.0797(10)
H144 H 0.3499 0.6174 0.0925
H145 H 0.3136 0.5718 0.0985
C139 C 0.408(2) 0.5521(11) 0.0881(11)
C140 C 0.4600(19) 0.5598(12) 0.1058(11)
H146 H 0.4608 0.5908 0.1140
C141 C 0.508(2) 0.5181(12) 0.1098(12)
H147 H 0.5436 0.5154 0.1238
C142 C 0.498(2) 0.4828(13) 0.0914(13)
H148 H 0.5291 0.4532 0.0865
C143 C 0.3290(16) 0.5701(11) 0.0049(11)
H149 H 0.3205 0.5392 0.0301
H150 H 0.3622 0.5597 -0.0248
C144 C 0.2663(16) 0.5964(11) -0.0108(10)
C145 C 0.2500(16) 0.5793(11) -0.0477(10)
H151 H 0.2781 0.5525 -0.0629
C146 C 0.1955(16) 0.6007(11) -0.0609(10)
C147 C 0.1521(17) 0.6395(13) -0.0399(11)
C148 C 0.1689(17) 0.6619(12) -0.0082(10)
C149 C 0.2290(16) 0.6392(9) 0.0068(10)
H152 H 0.2425 0.6535 0.0283
C150 C 0.0336(19) 0.6495(13) -0.0080(15)
H153 H -0.0056 0.6711 -0.0171
H154 H 0.0373 0.6587 0.0225
C151 C 0.023(2) 0.5903(16) 0.0060(16)
H155 H -0.0098 0.5830 0.0381
H156 H 0.0641 0.5663 0.0070
C152 C -0.0036(14) 0.5904(17) -0.0443(16)
H157 H -0.0397 0.6185 -0.0472
H158 H -0.0182 0.5586 -0.0400
H159 H 0.0318 0.5943 -0.0749
C153 C 0.1794(14) 0.5870(12) -0.1082(10)
H160 H 0.2062 0.5546 -0.1161
H161 H 0.1331 0.5842 -0.1001
C154 C 0.1948(16) 0.6291(11) -0.1519(10)
C155 C 0.1477(17) 0.6532(12) -0.1798(11)
C156 C 0.1599(17) 0.6949(12) -0.2160(11)
C157 C 0.2124(13) 0.7095(10) -0.2258(10)
H162 H 0.2168 0.7393 -0.2504
C158 C 0.2648(16) 0.6884(11) -0.2061(8)
C159 C 0.2512(16) 0.6461(11) -0.1662(11)
H163 H 0.2838 0.6293 -0.1491
C160 C 0.3299(16) 0.7019(12) -0.2252(11)
H164 H 0.3471 0.7009 -0.1964
H165 H 0.3265 0.7368 -0.2445
C161 C 0.4233(17) 0.6314(13) -0.2429(11)
C162 C 0.3671(18) 0.6746(13) -0.3081(11)
H166 H 0.4084 0.6594 -0.3291
H167 H 0.3609 0.7112 -0.3215
C163 C 0.3135(13) 0.6548(11) -0.3169(8)
C164 C 0.2704(14) 0.6764(11) -0.3477(9)
H168 H 0.2696 0.7081 -0.3699
C165 C 0.2290(17) 0.6419(11) -0.3392(12)
H169 H 0.1961 0.6482 -0.3565
C166 C 0.239(2) 0.5980(12) -0.3039(13)
H170 H 0.2136 0.5721 -0.2947
C167 C 0.086(2) 0.6007(15) -0.1889(14)
H171 H 0.1248 0.5739 -0.1871
H172 H 0.0909 0.6165 -0.2248
C168 C 0.026(2) 0.5754(16) -0.1708(17)
H173 H 0.0172 0.5611 -0.1344
H174 H 0.0306 0.5484 -0.1895
C169 C -0.032(3) 0.621(2) -0.183(2)
H175 H -0.0150 0.6442 -0.2137
H176 H -0.0486 0.6396 -0.1548
H177 H -0.0670 0.6077 -0.1869
C170 C 0.1047(16) 0.7282(12) -0.2417(11)
H178 H 0.1145 0.7226 -0.2765
H179 H 0.0628 0.7176 -0.2230
C171 C 0.0998(19) 0.7792(13) -0.2424(12)
C172 C 0.0821(14) 0.7957(11) -0.1989(12)
C173 C 0.0945(18) 0.8415(13) -0.1934(12)
C174 C 0.1252(19) 0.8721(14) -0.2355(12)
H180 H 0.1354 0.9024 -0.2325
C175 C 0.142(2) 0.8580(13) -0.2838(12)
C176 C 0.1329(19) 0.8116(13) -0.2853(13)
H181 H 0.1495 0.8000 -0.3163
C177 C 0.173(2) 0.8952(13) -0.3266(12)
H182 H 0.2053 0.9075 -0.3163
H183 H 0.1401 0.9244 -0.3352
C178 C 0.2682(19) 0.8434(13) -0.3759(11)
C179 C 0.176(2) 0.8862(14) -0.4129(13)
H184 H 0.1329 0.8760 -0.4001
H185 H 0.2012 0.8668 -0.4396
C180 C 0.167(2) 0.9394(16) -0.4362(15)
C181 C 0.113(3) 0.9767(15) -0.4471(16)
H186 H 0.0701 0.9704 -0.4379
C182 C 0.130(3) 1.0226(17) -0.4722(17)
H187 H 0.0996 1.0478 -0.4869
C183 C 0.187(3) 1.0312(18) -0.4755(18)
H188 H 0.2007 1.0628 -0.4856
C184 C -0.0096(17) 0.7675(14) -0.1467(12)
H189 H -0.0189 0.7610 -0.1764
H190 H -0.0316 0.8019 -0.1417
C185 C -0.034(2) 0.7274(17) -0.0984(16)
H191 H -0.0070 0.6940 -0.1021
H192 H -0.0289 0.7367 -0.0686
C186 C -0.105(2) 0.723(2) -0.0889(19)
H193 H -0.1330 0.7484 -0.0700
H194 H -0.1117 0.6892 -0.0695
H195 H -0.1157 0.7276 -0.1211
C187 C 0.0825(18) 0.8541(13) -0.1393(11)
H196 H 0.0872 0.8894 -0.1424
H197 H 0.0382 0.8499 -0.1191
C188 C 0.1338(18) 0.8171(13) -0.1132(11)
C189 C 0.1138(17) 0.7854(12) -0.0680(11)
C190 C 0.1571(16) 0.7518(12) -0.0448(11)
C191 C 0.2248(16) 0.7511(9) -0.0669(10)
H198 H 0.2565 0.7295 -0.0511
C192 C 0.2421(17) 0.7830(12) -0.1120(11)
C193 C 0.1973(17) 0.8161(13) -0.1331(12)
H199 H 0.2114 0.8393 -0.1629
C194 C 0.3157(16) 0.7833(12) -0.1330(12)
H200 H 0.3297 0.7762 -0.1676
H201 H 0.3398 0.7564 -0.1119
C195 C 0.3515(17) 0.8672(12) -0.1773(11)
C196 C 0.3253(19) 0.8449(14) -0.0816(11)
H202 H 0.3563 0.8669 -0.0845
H203 H 0.3372 0.8126 -0.0596
C197 C 0.257(2) 0.8701(15) -0.0567(11)
C198 C 0.2233(18) 0.8535(14) -0.0067(12)
H204 H 0.2383 0.8269 0.0175
C199 C 0.163(2) 0.8854(16) -0.0012(16)
H205 H 0.1294 0.8805 0.0287
C200 C 0.154(3) 0.9247(12) -0.0414(17)
H206 H 0.1155 0.9494 -0.0420
C201 C 0.0189(19) 0.8221(16) -0.0124(13)
H207 H 0.0260 0.8565 -0.0297
H208 H 0.0395 0.8118 0.0160
C202 C -0.053(2) 0.8204(17) 0.0064(13)
H209 H -0.0590 0.7854 0.0228
H210 H -0.0731 0.8418 0.0321
C203 C -0.089(2) 0.8371(18) -0.0329(16)
H211 H -0.0594 0.8488 -0.0650
H212 H -0.1246 0.8647 -0.0240
H213 H -0.1064 0.8090 -0.0359
C204 C 0.1374(16) 0.7138(11) 0.0014(11)
H214 H 0.0897 0.7164 0.0111
H215 H 0.1505 0.7203 0.0295
S37 S 0.5048(5) 0.8004(3) -0.0981(3)
S38 S 0.5802(4) 0.7089(3) -0.1452(3)
S39 S 0.6463(4) 0.6047(3) -0.1972(3)
S40 S 0.6484(5) 0.5054(3) -0.2277(3)
S41 S 0.4929(5) 0.7094(3) -0.4242(3)
S42 S 0.5184(5) 0.7785(3) -0.3662(4)
S43 S 0.5220(4) 0.8972(3) -0.3532(3)
S44 S 0.4658(4) 1.0028(3) -0.3272(3)
S45 S 0.5896(6) 0.9451(4) -0.2418(4)
S46 S 0.7910(8) 0.4660(5) -0.3024(5)
S47 S 0.6831(10) 0.6415(7) -0.4699(7)
S48 S 0.4615(6) 1.0825(4) -0.4401(4)
O13 O 0.8510(12) 0.8247(8) -0.2768(7)
O14 O 0.8790(9) 0.7137(8) -0.3185(8)
O15 O 0.8770(10) 0.7181(8) -0.4431(6)
O16 O 0.8345(10) 0.8234(9) -0.4034(7)
N13 N 0.5617(13) 0.8020(9) -0.1947(8)
N14 N 0.7352(14) 0.5263(10) -0.1953(10)
N15 N 0.5830(15) 0.6875(10) -0.3734(10)
N16 N 0.5635(14) 0.9787(9) -0.4026(9)
C205 C 0.5690(18) 0.7670(11) -0.1466(10)
C206 C 0.5371(16) 0.8586(11) -0.2014(11)
H216 H 0.4966 0.8653 -0.1751
H217 H 0.5265 0.8705 -0.2344
C207 C 0.5858(15) 0.8890(10) -0.1988(10)
C208 C 0.6359(15) 0.8714(10) -0.1680(9)
H218 H 0.6444 0.8415 -0.1446
C209 C 0.6667(18) 0.9169(11) -0.1869(11)
H219 H 0.6999 0.9193 -0.1729
C210 C 0.6504(19) 0.9540(12) -0.2224(12)
H220 H 0.6709 0.9827 -0.2355
C211 C 0.5965(16) 0.7856(12) -0.2413(10)
H221 H 0.5752 0.8047 -0.2682
H222 H 0.5959 0.7494 -0.2378
C212 C 0.6673(15) 0.7941(9) -0.2553(10)
C213 C 0.7121(16) 0.7567(12) -0.2318(11)
H223 H 0.7004 0.7261 -0.2113
C214 C 0.7744(17) 0.7679(12) -0.2407(11)
C215 C 0.7904(17) 0.8119(12) -0.2728(11)
C216 C 0.7525(17) 0.8431(11) -0.2985(10)
C217 C 0.6888(14) 0.8343(11) -0.2893(9)
H224 H 0.6603 0.8570 -0.3074
C218 C 0.8470(15) 0.8621(9) -0.2489(7)
H225 H 0.8107 0.8900 -0.2540
H226 H 0.8876 0.8761 -0.2607
C219 C 0.836(2) 0.8380(12) -0.1924(7)
H227 H 0.8690 0.8069 -0.1903
H228 H 0.7936 0.8271 -0.1821
C220 C 0.837(3) 0.8653(16) -0.1505(11)
H229 H 0.8801 0.8735 -0.1569
H230 H 0.8268 0.8431 -0.1177
H231 H 0.8047 0.8964 -0.1507
C221 C 0.8249(18) 0.7255(12) -0.2174(12)
H232 H 0.8680 0.7356 -0.2286
H233 H 0.8110 0.7203 -0.1802
C222 C 0.8285(17) 0.6781(12) -0.2344(12)
C223 C 0.8027(16) 0.6403(11) -0.2006(12)
H234 H 0.7873 0.6427 -0.1661
C224 C 0.7987(7) 0.5983(12) -0.2157(11)
C225 C 0.8177(16) 0.5933(12) -0.2661(11)
H235 H 0.8131 0.5644 -0.2761
C226 C 0.8443(17) 0.6337(12) -0.3016(11)
C227 C 0.8520(17) 0.6737(12) -0.2852(11)
C228 C 0.7693(18) 0.5514(12) -0.1762(12)
H236 H 0.8053 0.5267 -0.1652
H237 H 0.7396 0.5639 -0.1462
C229 C 0.6819(17) 0.5459(12) -0.2044(12)
C230 C 0.768(2) 0.4727(13) -0.2007(14)
H238 H 0.7887 0.4579 -0.1727
H239 H 0.7336 0.4532 -0.1966
C231 C 0.817(2) 0.4660(11) -0.2488(17)
C232 C 0.8890(18) 0.4620(12) -0.2562(16)
H240 H 0.9117 0.4611 -0.2322
C233 C 0.916(3) 0.4596(14) -0.3112(14)
H241 H 0.9609 0.4577 -0.3264
C234 C 0.870(3) 0.4603(14) -0.3416(19)
H242 H 0.8813 0.4580 -0.3761
C235 C 0.9473(10) 0.6976(10) -0.3318(16)
H243 H 0.9619 0.6903 -0.3662
H244 H 0.9600 0.6668 -0.3082
C236 C 0.9781(13) 0.7408(12) -0.3289(12)
H245 H 0.9761 0.7383 -0.2931
H246 H 0.9494 0.7726 -0.3388
C237 C 1.0486(14) 0.7472(18) -0.3591(15)
H247 H 1.0574 0.7381 -0.3921
H248 H 1.0792 0.7251 -0.3407
H249 H 1.0533 0.7823 -0.3636
C238 C 0.8547(16) 0.6353(12) -0.3573(11)
H250 H 0.8964 0.6462 -0.3764
H251 H 0.8559 0.6014 -0.3633
C239 C 0.7994(17) 0.6720(12) -0.3742(11)
C240 C 0.7359(17) 0.6687(11) -0.3514(11)
H252 H 0.7259 0.6418 -0.3241
C241 C 0.6871(17) 0.7026(11) -0.3665(11)
C242 C 0.6960(17) 0.7422(12) -0.4026(10)
H253 H 0.6600 0.7652 -0.4116
C243 C 0.7622(17) 0.7502(12) -0.4287(10)
C244 C 0.8117(17) 0.7150(12) -0.4158(10)
C245 C 0.6166(17) 0.6920(12) -0.3385(11)
H254 H 0.6191 0.6605 -0.3132
H255 H 0.5920 0.7199 -0.3206
C246 C 0.5314(18) 0.7215(12) -0.3846(12)
C247 C 0.595(2) 0.6393(15) -0.3867(17)
H256 H 0.5780 0.6162 -0.3553
H257 H 0.5664 0.6422 -0.4089
C248 C 0.654(3) 0.6139(17) -0.409(2)
C249 C 0.704(3) 0.578(2) -0.400(2)
H258 H 0.7030 0.5551 -0.3686
C250 C 0.760(3) 0.579(2) -0.442(2)
H259 H 0.7986 0.5571 -0.4379
C251 C 0.760(3) 0.611(2) -0.489(3)
H260 H 0.7918 0.6137 -0.5207
C252 C 0.8988(15) 0.6845(11) -0.4782(10)
H261 H 0.8663 0.6877 -0.4971
H262 H 0.9078 0.6491 -0.4609
C253 C 0.9618(13) 0.7019(13) -0.5134(10)
H263 H 0.9906 0.7003 -0.4918
H264 H 0.9832 0.6764 -0.5348
C254 C 0.961(2) 0.7541(13) -0.5488(16)
H265 H 0.9420 0.7542 -0.5762
H266 H 1.0049 0.7610 -0.5627
H267 H 0.9342 0.7802 -0.5298
C255 C 0.7740(16) 0.7974(11) -0.4697(11)
H268 H 0.7516 0.7992 -0.4959
H269 H 0.8209 0.7952 -0.4858
C256 C 0.7480(18) 0.8459(12) -0.4461(11)
C257 C 0.6911(17) 0.8783(12) -0.4553(10)
H270 H 0.6725 0.8731 -0.4796
C258 C 0.6620(17) 0.9175(12) -0.4295(10)
C259 C 0.6914(17) 0.9190(12) -0.3946(10)
H271 H 0.6712 0.9443 -0.3747
C260 C 0.7476(18) 0.8887(12) -0.3837(11)
C261 C 0.7757(19) 0.8537(13) -0.4123(11)
C262 C 0.6010(16) 0.9491(11) -0.4410(10)
H272 H 0.6122 0.9722 -0.4736
H273 H 0.5739 0.9270 -0.4444
C263 C 0.5187(17) 0.9596(11) -0.3646(10)
C264 C 0.5747(17) 1.0342(11) -0.4129(11)
H274 H 0.5606 1.0465 -0.3808
H275 H 0.6216 1.0347 -0.4266
C265 C 0.5378(12) 1.0700(10) -0.4503(9)
C266 C 0.5804(11) 1.0888(10) -0.4965(10)
H276 H 0.6264 1.0827 -0.5051
C267 C 0.5391(14) 1.1186(11) -0.5267(8)
H277 H 0.5503 1.1377 -0.5597
C268 C 0.4778(14) 1.1127(11) -0.4955(9)
H278 H 0.4420 1.1287 -0.5093
C269 C 0.8740(12) 0.8530(11) -0.4438(11)
H279 H 0.8677 0.8875 -0.4374
H280 H 0.8629 0.8552 -0.4758
C270 C 0.9446(12) 0.8260(14) -0.4464(14)
H281 H 0.9506 0.7958 -0.4611
H282 H 0.9476 0.8135 -0.4112
C271 C 1.0045(14) 0.8516(18) -0.4744(17)
H283 H 1.0253 0.8398 -0.5062
H284 H 1.0353 0.8430 -0.4534
H285 H 0.9905 0.8882 -0.4812
C272 C 0.7673(16) 0.8915(12) -0.3369(10)
H286 H 0.7420 0.9217 -0.3231
H287 H 0.8139 0.8931 -0.3454
Au1_2 Au 0.39833(9) 0.75437(5) -0.53218(4)
Au4A Au 0.57929(7) 0.43939(4) -0.28159(4)
Au12A Au 0.44489(7) 0.45307(5) 0.25060(5)
Au16_2 Au 0.40066(7) 0.76947(5) 0.57109(4)
Cl1 Cl 0.6997(9) 0.7650(6) -0.0803(7)
Cl2 Cl 0.7009(9) 0.6816(6) 0.0029(6)
C273 C 0.6523(13) 0.7234(18) -0.0351(18)
H288 H 0.6355 0.7041 -0.0521
H289 H 0.6149 0.7427 -0.0140
C274 C 0.581(2) 0.8756(16) -0.0260(15)
H290 H 0.5572 0.9026 -0.0467
H291 H 0.5579 0.8745 0.0095
H292 H 0.5830 0.8433 -0.0351
C275 C 0.646(2) 0.8848(14) -0.0344(14)
N17 N 0.7020(19) 0.8913(13) -0.0444(13)
C276 C 0.585(2) 0.6055(14) -0.0079(14)
H293 H 0.5778 0.6316 -0.0370
H294 H 0.5852 0.6214 0.0192
H295 H 0.5497 0.5859 0.0037
C277 C 0.647(2) 0.5718(15) -0.0224(15)
N18 N 0.7008(17) 0.5516(12) -0.0322(11)
loop_
_geom_bond_atom_site_label_1
_geom_bond_atom_site_label_2
_geom_bond_site_symmetry_1
_geom_bond_site_symmetry_2
Au1 Au2 1_555 1_555
Au2 Au3 1_555 1_555
Au3 Au4 1_555 1_555
Au4 S4 1_555 1_555
Au5 Au6 1_555 1_555
Au6 Au7 1_555 1_555
Au7 Au8 1_555 1_555
Au8 Au9 1_555 1_555
Au9 Au10 1_555 1_555
Au10 Au11 1_555 1_555
Au11 Au12 1_555 1_555
Au12 S28 1_555 1_555
Au13 Au14 1_555 1_555
Au14 Au15 1_555 1_555
Au15 Au16 1_555 1_555
Au16 S29 1_555 1_555
S1 Au1 1_555 1_555
S2 Au2 1_555 1_555
S3 Au3 1_555 1_555
S4 C25 1_555 1_555
S5 Au5 1_555 1_555
S6 Au6 1_555 1_555
S7 Au7 1_555 1_555
S8 Au8 1_555 1_555
S9 C3 1_555 1_555
S10 C27 1_555 1_555
S11 C47 1_555 1_555
S12 C61 1_555 1_555
O1 C11 1_555 1_555
O2 C19 1_555 1_555
O3 C36 1_555 1_555
O4 C57 1_555 1_555
N1 C1 1_555 1_555
N2 C24 1_555 1_555
N3 C44 1_555 1_555
N4 C58 1_555 1_555
C1 S1 1_555 1_555
C2 N1 1_555 1_555
H1 C2 1_555 1_555
H2 C2 1_555 1_555
C3 C2 1_555 1_555
C4 C3 1_555 1_555
H3 C4 1_555 1_555
C5 C4 1_555 1_555
H4 C5 1_555 1_555
C6 S9 1_555 1_555
H5 C6 1_555 1_555
C7 N1 1_555 1_555
H6 C7 1_555 1_555
H7 C7 1_555 1_555
C8 C7 1_555 1_555
C9 C8 1_555 1_555
H8 C9 1_555 1_555
C10 C9 1_555 1_555
C11 C10 1_555 1_555
C12 C11 1_555 1_555
C13 C8 1_555 1_555
H9 C13 1_555 1_555
C14 O1 1_555 1_555
H10 C14 1_555 1_555
H11 C14 1_555 1_555
C15 C14 1_555 1_555
H12 C15 1_555 1_555
H13 C15 1_555 1_555
C16 C15 1_555 1_555
H14 C16 1_555 1_555
H15 C16 1_555 1_555
H16 C16 1_555 1_555
C17 C12 1_555 1_555
H17 C17 1_555 1_555
H18 C17 1_555 1_555
C18 C17 1_555 1_555
C19 C18 1_555 1_555
C20 C19 1_555 1_555
C21 C20 1_555 1_555
H19 C21 1_555 1_555
C22 C21 1_555 1_555
C23 C18 1_555 1_555
H20 C23 1_555 1_555
C24 C22 1_555 1_555
H21 C24 1_555 1_555
H22 C24 1_555 1_555
C25 S3 1_555 1_555
C26 N2 1_555 1_555
H23 C26 1_555 1_555
H24 C26 1_555 1_555
C27 C26 1_555 1_555
C28 C27 1_555 1_555
H25 C28 1_555 1_555
C29 C28 1_555 1_555
H26 C29 1_555 1_555
C30 S10 1_555 1_555
H27 C30 1_555 1_555
C31 O2 1_555 1_555
H28 C31 1_555 1_555
H29 C31 1_555 1_555
C32 C31 1_555 1_555
H30 C32 1_555 1_555
H31 C32 1_555 1_555
C33 C32 1_555 1_555
H32 C33 1_555 1_555
H33 C33 1_555 1_555
H34 C33 1_555 1_555
C34 C20 1_555 1_555
H35 C34 1_555 1_555
H36 C34 1_555 1_555
C35 C34 1_555 1_555
C36 C35 1_555 1_555
C37 C36 1_555 1_555
C38 C37 1_555 1_555
H37 C38 1_555 1_555
C39 C38 1_555 1_555
C40 C35 1_555 1_555
H38 C40 1_555 1_555
C41 O3 1_555 1_555
H39 C41 1_555 1_555
H40 C41 1_555 1_555
C42 C41 1_555 1_555
H41 C42 1_555 1_555
H42 C42 1_555 1_555
C43 C42 1_555 1_555
H43 C43 1_555 1_555
H44 C43 1_555 1_555
H45 C43 1_555 1_555
C44 C39 1_555 1_555
H46 C44 1_555 1_555
H47 C44 1_555 1_555
C45 S7 1_555 1_555
C46 N3 1_555 1_555
H48 C46 1_555 1_555
H49 C46 1_555 1_555
C47 C46 1_555 1_555
C48 C47 1_555 1_555
H50 C48 1_555 1_555
C49 C48 1_555 1_555
H51 C49 1_555 1_555
C50 S11 1_555 1_555
H52 C50 1_555 1_555
C51 C37 1_555 1_555
H53 C51 1_555 1_555
H54 C51 1_555 1_555
C52 C51 1_555 1_555
C53 C52 1_555 1_555
H55 C53 1_555 1_555
C54 C53 1_555 1_555
C55 C54 1_555 1_555
H56 C55 1_555 1_555
C56 C55 1_555 1_555
C57 C52 1_555 1_555
C58 C54 1_555 1_555
H57 C58 1_555 1_555
H58 C58 1_555 1_555
C59 S5 1_555 1_555
C60 N4 1_555 1_555
H59 C60 1_555 1_555
H60 C60 1_555 1_555
C61 C60 1_555 1_555
C62 C61 1_555 1_555
H61 C62 1_555 1_555
C63 C62 1_555 1_555
H62 C63 1_555 1_555
C64 S12 1_555 1_555
H63 C64 1_555 1_555
C65 O4 1_555 1_555
H64 C65 1_555 1_555
H65 C65 1_555 1_555
C66 C65 1_555 1_555
H66 C66 1_555 1_555
H67 C66 1_555 1_555
C67 C66 1_555 1_555
H68 C67 1_555 1_555
H69 C67 1_555 1_555
H70 C67 1_555 1_555
C68 C10 1_555 1_555
H71 C68 1_555 1_555
H72 C68 1_555 1_555
S13 Au5 1_555 1_555
S14 Au6 1_555 1_555
S15 Au7 1_555 1_555
S16 Au8 1_555 1_555
S17 Au4 1_555 1_555
S18 Au3 1_555 1_555
S19 Au2 1_555 1_555
S20 Au1 1_555 1_555
S21 C71 1_555 1_555
S22 C95 1_555 1_555
S23 C115 1_555 1_555
S24 C132 1_555 1_555
O5 C79 1_555 1_555
O6 C91 1_555 1_555
O7 C108 1_555 1_555
O8 C121 1_555 1_555
N5 C69 1_555 1_555
N6 C92 1_555 1_555
N7 C112 1_555 1_555
N8 C129 1_555 1_555
C69 S13 1_555 1_555
C70 N5 1_555 1_555
H73 C70 1_555 1_555
H74 C70 1_555 1_555
C71 C70 1_555 1_555
C72 C71 1_555 1_555
H75 C72 1_555 1_555
C73 C72 1_555 1_555
H76 C73 1_555 1_555
C74 S21 1_555 1_555
H77 C74 1_555 1_555
C75 N5 1_555 1_555
H78 C75 1_555 1_555
H79 C75 1_555 1_555
C76 C75 1_555 1_555
C77 C76 1_555 1_555
H80 C77 1_555 1_555
C78 C77 1_555 1_555
C79 C78 1_555 1_555
C80 C79 1_555 1_555
C81 C76 1_555 1_555
H81 C81 1_555 1_555
C82 C78 1_555 1_555
H82 C82 1_555 1_555
H83 C82 1_555 1_555
C83 O5 1_555 1_555
H84 C83 1_555 1_555
H85 C83 1_555 1_555
C84 C83 1_555 1_555
H86 C84 1_555 1_555
H87 C84 1_555 1_555
C85 C84 1_555 1_555
H88 C85 1_555 1_555
H89 C85 1_555 1_555
H90 C85 1_555 1_555
C86 C82 1_555 1_555
C87 C86 1_555 1_555
H91 C87 1_555 1_555
C88 C87 1_555 1_555
C89 C88 1_555 1_555
H92 C89 1_555 1_555
C90 C89 1_555 1_555
C91 C86 1_555 1_555
C92 C88 1_555 1_555
H93 C92 1_555 1_555
H94 C92 1_555 1_555
C93 S15 1_555 1_555
C94 N6 1_555 1_555
H95 C94 1_555 1_555
H96 C94 1_555 1_555
C95 C94 1_555 1_555
C96 C95 1_555 1_555
H97 C96 1_555 1_555
C97 C96 1_555 1_555
H98 C97 1_555 1_555
C98 S22 1_555 1_555
H99 C98 1_555 1_555
C99 O6 1_555 1_555
H100 C99 1_555 1_555
H101 C99 1_555 1_555
C100 C99 1_555 1_555
H102 C100 1_555 1_555
H103 C100 1_555 1_555
C101 C100 1_555 1_555
H104 C101 1_555 1_555
H105 C101 1_555 1_555
H106 C101 1_555 1_555
C102 C90 1_555 1_555
H107 C102 1_555 1_555
H108 C102 1_555 1_555
C103 C102 1_555 1_555
C104 C103 1_555 1_555
H109 C104 1_555 1_555
C105 C104 1_555 1_555
C106 C105 1_555 1_555
H110 C106 1_555 1_555
C107 C106 1_555 1_555
C108 C103 1_555 1_555
C109 O7 1_555 1_555
H111 C109 1_555 1_555
H112 C109 1_555 1_555
C110 C109 1_555 1_555
H113 C110 1_555 1_555
H114 C110 1_555 1_555
C111 C110 1_555 1_555
H115 C111 1_555 1_555
H116 C111 1_555 1_555
C112 C105 1_555 1_555
H117 C112 1_555 1_555
H118 C112 1_555 1_555
C113 S17 1_555 1_555
C114 N7 1_555 1_555
H119 C114 1_555 1_555
H120 C114 1_555 1_555
C115 C114 1_555 1_555
C116 C115 1_555 1_555
H121 C116 1_555 1_555
C117 C116 1_555 1_555
H122 C117 1_555 1_555
C118 S23 1_555 1_555
H123 C118 1_555 1_555
C119 C107 1_555 1_555
H124 C119 1_555 1_555
H125 C119 1_555 1_555
C120 C119 1_555 1_555
C121 C120 1_555 1_555
C122 C121 1_555 1_555
C123 C122 1_555 1_555
H126 C123 1_555 1_555
C124 C123 1_555 1_555
C125 C120 1_555 1_555
H127 C125 1_555 1_555
C126 O8 1_555 1_555
H128 C126 1_555 1_555
H129 C126 1_555 1_555
C127 C126 1_555 1_555
H130 C127 1_555 1_555
H131 C127 1_555 1_555
C128 C127 1_555 1_555
H132 C128 1_555 1_555
H133 C128 1_555 1_555
H134 C128 1_555 1_555
C129 C124 1_555 1_555
H135 C129 1_555 1_555
H136 C129 1_555 1_555
C130 S19 1_555 1_555
C131 N8 1_555 1_555
H137 C131 1_555 1_555
H138 C131 1_555 1_555
C132 C131 1_555 1_555
C133 C132 1_555 1_555
H139 C133 1_555 1_555
C134 C133 1_555 1_555
H140 C134 1_555 1_555
C135 S24 1_555 1_555
H141 C135 1_555 1_555
C136 C80 1_555 1_555
H142 C136 1_555 1_555
H143 C136 1_555 1_555
S25 Au9 1_555 1_555
S26 Au10 1_555 1_555
S27 Au11 1_555 1_555
S28 C161 1_555 1_555
S29 C178 1_555 1_555
S30 Au15 1_555 1_555
S31 Au14 1_555 1_555
S32 Au13 1_555 1_555
S33 C139 1_555 1_555
S34 C163 1_555 1_555
S35 C180 1_555 1_555
S36 C197 1_555 1_555
O9 C147 1_555 1_555
O10 C155 1_555 1_555
O11 C172 1_555 1_555
O12 C189 1_555 1_555
N9 C137 1_555 1_555
N10 C160 1_555 1_555
N11 C177 1_555 1_555
N12 C194 1_555 1_555
C137 S25 1_555 1_555
C138 N9 1_555 1_555
H144 C138 1_555 1_555
H145 C138 1_555 1_555
C139 C138 1_555 1_555
C140 C139 1_555 1_555
H146 C140 1_555 1_555
C141 C140 1_555 1_555
H147 C141 1_555 1_555
C142 S33 1_555 1_555
H148 C142 1_555 1_555
C143 N9 1_555 1_555
H149 C143 1_555 1_555
H150 C143 1_555 1_555
C144 C143 1_555 1_555
C145 C144 1_555 1_555
H151 C145 1_555 1_555
C146 C145 1_555 1_555
C147 C146 1_555 1_555
C148 C147 1_555 1_555
C149 C144 1_555 1_555
H152 C149 1_555 1_555
C150 O9 1_555 1_555
H153 C150 1_555 1_555
H154 C150 1_555 1_555
C151 C150 1_555 1_555
H155 C151 1_555 1_555
H156 C151 1_555 1_555
C152 C151 1_555 1_555
H157 C152 1_555 1_555
H158 C152 1_555 1_555
H159 C152 1_555 1_555
C153 C146 1_555 1_555
H160 C153 1_555 1_555
H161 C153 1_555 1_555
C154 C153 1_555 1_555
C155 C154 1_555 1_555
C156 C155 1_555 1_555
C157 C156 1_555 1_555
H162 C157 1_555 1_555
C158 C157 1_555 1_555
C159 C154 1_555 1_555
H163 C159 1_555 1_555
C160 C158 1_555 1_555
H164 C160 1_555 1_555
H165 C160 1_555 1_555
C161 S27 1_555 1_555
C162 N10 1_555 1_555
H166 C162 1_555 1_555
H167 C162 1_555 1_555
C163 C162 1_555 1_555
C164 C163 1_555 1_555
H168 C164 1_555 1_555
C165 C164 1_555 1_555
H169 C165 1_555 1_555
C166 S34 1_555 1_555
H170 C166 1_555 1_555
C167 O10 1_555 1_555
H171 C167 1_555 1_555
H172 C167 1_555 1_555
C168 C167 1_555 1_555
H173 C168 1_555 1_555
H174 C168 1_555 1_555
C169 C168 1_555 1_555
H175 C169 1_555 1_555
H176 C169 1_555 1_555
H177 C169 1_555 1_555
C170 C156 1_555 1_555
H178 C170 1_555 1_555
H179 C170 1_555 1_555
C171 C170 1_555 1_555
C172 C171 1_555 1_555
C173 C172 1_555 1_555
C174 C173 1_555 1_555
H180 C174 1_555 1_555
C175 C174 1_555 1_555
C176 C171 1_555 1_555
H181 C176 1_555 1_555
C177 C175 1_555 1_555
H182 C177 1_555 1_555
H183 C177 1_555 1_555
C178 S30 1_555 1_555
C179 N11 1_555 1_555
H184 C179 1_555 1_555
H185 C179 1_555 1_555
C180 C179 1_555 1_555
C181 C180 1_555 1_555
H186 C181 1_555 1_555
C182 C181 1_555 1_555
H187 C182 1_555 1_555
C183 S35 1_555 1_555
H188 C183 1_555 1_555
C184 O11 1_555 1_555
H189 C184 1_555 1_555
H190 C184 1_555 1_555
C185 C184 1_555 1_555
H191 C185 1_555 1_555
H192 C185 1_555 1_555
C186 C185 1_555 1_555
H193 C186 1_555 1_555
H194 C186 1_555 1_555
H195 C186 1_555 1_555
C187 C173 1_555 1_555
H196 C187 1_555 1_555
H197 C187 1_555 1_555
C188 C187 1_555 1_555
C189 C188 1_555 1_555
C190 C189 1_555 1_555
C191 C190 1_555 1_555
H198 C191 1_555 1_555
C192 C191 1_555 1_555
C193 C188 1_555 1_555
H199 C193 1_555 1_555
C194 C192 1_555 1_555
H200 C194 1_555 1_555
H201 C194 1_555 1_555
C195 S31 1_555 1_555
C196 N12 1_555 1_555
H202 C196 1_555 1_555
H203 C196 1_555 1_555
C197 C196 1_555 1_555
C198 C197 1_555 1_555
H204 C198 1_555 1_555
C199 C198 1_555 1_555
H205 C199 1_555 1_555
C200 S36 1_555 1_555
H206 C200 1_555 1_555
C201 O12 1_555 1_555
H207 C201 1_555 1_555
H208 C201 1_555 1_555
C202 C201 1_555 1_555
H209 C202 1_555 1_555
H210 C202 1_555 1_555
C203 C202 1_555 1_555
H211 C203 1_555 1_555
H212 C203 1_555 1_555
H213 C203 1_555 1_555
C204 C148 1_555 1_555
H214 C204 1_555 1_555
H215 C204 1_555 1_555
S37 Au9 1_555 1_555
S38 Au10 1_555 1_555
S39 Au11 1_555 1_555
S40 Au12 1_555 1_555
S41 Au16 1_555 1_555
S42 Au15 1_555 1_555
S43 Au14 1_555 1_555
S44 Au13 1_555 1_555
S45 C207 1_555 1_555
S46 C231 1_555 1_555
S47 C248 1_555 1_555
S48 C265 1_555 1_555
O13 C215 1_555 1_555
O14 C227 1_555 1_555
O15 C244 1_555 1_555
O16 C261 1_555 1_555
N13 C205 1_555 1_555
N14 C228 1_555 1_555
N15 C245 1_555 1_555
N16 C262 1_555 1_555
C205 S37 1_555 1_555
C206 N13 1_555 1_555
H216 C206 1_555 1_555
H217 C206 1_555 1_555
C207 C206 1_555 1_555
C208 C207 1_555 1_555
H218 C208 1_555 1_555
C209 C208 1_555 1_555
H219 C209 1_555 1_555
C210 S45 1_555 1_555
H220 C210 1_555 1_555
C211 N13 1_555 1_555
H221 C211 1_555 1_555
H222 C211 1_555 1_555
C212 C211 1_555 1_555
C213 C212 1_555 1_555
H223 C213 1_555 1_555
C214 C213 1_555 1_555
C215 C214 1_555 1_555
C216 C215 1_555 1_555
C217 C212 1_555 1_555
H224 C217 1_555 1_555
C218 O13 1_555 1_555
H225 C218 1_555 1_555
H226 C218 1_555 1_555
C219 C218 1_555 1_555
H227 C219 1_555 1_555
H228 C219 1_555 1_555
C220 C219 1_555 1_555
H229 C220 1_555 1_555
H230 C220 1_555 1_555
H231 C220 1_555 1_555
C221 C214 1_555 1_555
H232 C221 1_555 1_555
H233 C221 1_555 1_555
C222 C221 1_555 1_555
C223 C222 1_555 1_555
H234 C223 1_555 1_555
C224 C223 1_555 1_555
C225 C224 1_555 1_555
H235 C225 1_555 1_555
C226 C225 1_555 1_555
C227 C222 1_555 1_555
C228 C224 1_555 1_555
H236 C228 1_555 1_555
H237 C228 1_555 1_555
C229 S39 1_555 1_555
C230 N14 1_555 1_555
H238 C230 1_555 1_555
H239 C230 1_555 1_555
C231 C230 1_555 1_555
C232 C231 1_555 1_555
H240 C232 1_555 1_555
C233 C232 1_555 1_555
H241 C233 1_555 1_555
C234 S46 1_555 1_555
H242 C234 1_555 1_555
C235 O14 1_555 1_555
H243 C235 1_555 1_555
H244 C235 1_555 1_555
C236 C235 1_555 1_555
H245 C236 1_555 1_555
H246 C236 1_555 1_555
C237 C236 1_555 1_555
H247 C237 1_555 1_555
H248 C237 1_555 1_555
H249 C237 1_555 1_555
C238 C226 1_555 1_555
H250 C238 1_555 1_555
H251 C238 1_555 1_555
C239 C238 1_555 1_555
C240 C239 1_555 1_555
H252 C240 1_555 1_555
C241 C240 1_555 1_555
C242 C241 1_555 1_555
H253 C242 1_555 1_555
C243 C242 1_555 1_555
C244 C239 1_555 1_555
C245 C241 1_555 1_555
H254 C245 1_555 1_555
H255 C245 1_555 1_555
C246 S41 1_555 1_555
C247 N15 1_555 1_555
H256 C247 1_555 1_555
H257 C247 1_555 1_555
C248 C247 1_555 1_555
C249 C248 1_555 1_555
H258 C249 1_555 1_555
C250 C249 1_555 1_555
H259 C250 1_555 1_555
C251 S47 1_555 1_555
H260 C251 1_555 1_555
C252 O15 1_555 1_555
H261 C252 1_555 1_555
H262 C252 1_555 1_555
C253 C252 1_555 1_555
H263 C253 1_555 1_555
H264 C253 1_555 1_555
C254 C253 1_555 1_555
H265 C254 1_555 1_555
H266 C254 1_555 1_555
H267 C254 1_555 1_555
C255 C243 1_555 1_555
H268 C255 1_555 1_555
H269 C255 1_555 1_555
C256 C255 1_555 1_555
C257 C256 1_555 1_555
H270 C257 1_555 1_555
C258 C257 1_555 1_555
C259 C258 1_555 1_555
H271 C259 1_555 1_555
C260 C259 1_555 1_555
C261 C256 1_555 1_555
C262 C258 1_555 1_555
H272 C262 1_555 1_555
H273 C262 1_555 1_555
C263 S43 1_555 1_555
C264 N16 1_555 1_555
H274 C264 1_555 1_555
H275 C264 1_555 1_555
C265 C264 1_555 1_555
C266 C265 1_555 1_555
H276 C266 1_555 1_555
C267 C266 1_555 1_555
H277 C267 1_555 1_555
C268 S48 1_555 1_555
H278 C268 1_555 1_555
C269 O16 1_555 1_555
H279 C269 1_555 1_555
H280 C269 1_555 1_555
C270 C269 1_555 1_555
H281 C270 1_555 1_555
H282 C270 1_555 1_555
C271 C270 1_555 1_555
H283 C271 1_555 1_555
H284 C271 1_555 1_555
H285 C271 1_555 1_555
C272 C216 1_555 1_555
H286 C272 1_555 1_555
H287 C272 1_555 1_555
Cl1 C273 1_555 1_555
Cl2 C273 1_555 1_555
C273 H288 1_555 1_555
H289 C273 1_555 1_555
C274 H290 1_555 1_555
H291 C274 1_555 1_555
H292 C274 1_555 1_555
C275 C274 1_555 1_555
N17 C275 1_555 1_555
C276 H293 1_555 1_555
H294 C276 1_555 1_555
H295 C276 1_555 1_555
C277 C276 1_555 1_555
N18 C277 1_555 1_555
Au1_2 Au16 1_555 1_555
Au4A Au12 1_555 1_555
Au12A Au4 1_555 1_555
Au16_2 Au1 1_555 1_555
S2 C1 1_555 1_555
S6 C59 1_555 1_555
S8 C45 1_555 1_555
N2 C25 1_555 1_555
N3 C45 1_555 1_555
N4 C59 1_555 1_555
C5 C6 1_555 1_555
C12 C13 1_555 1_555
C22 C23 1_555 1_555
C29 C30 1_555 1_555
C39 C40 1_555 1_555
C49 C50 1_555 1_555
C56 C57 1_555 1_555
C56 C68 1_555 1_555
C63 C64 1_555 1_555
S14 C69 1_555 1_555
S16 C93 1_555 1_555
S18 C113 1_555 1_555
S20 C130 1_555 1_555
N6 C93 1_555 1_555
N7 C113 1_555 1_555
N8 C130 1_555 1_555
C73 C74 1_555 1_555
C80 C81 1_555 1_555
C90 C91 1_555 1_555
C97 C98 1_555 1_555
C107 C108 1_555 1_555
C117 C118 1_555 1_555
C122 C136 1_555 1_555
C124 C125 1_555 1_555
C134 C135 1_555 1_555
S26 C137 1_555 1_555
S32 C195 1_555 1_555
N10 C161 1_555 1_555
N11 C178 1_555 1_555
N12 C195 1_555 1_555
C141 C142 1_555 1_555
C148 C149 1_555 1_555
C158 C159 1_555 1_555
C165 C166 1_555 1_555
C175 C176 1_555 1_555
C182 C183 1_555 1_555
C190 C204 1_555 1_555
C192 C193 1_555 1_555
C199 C200 1_555 1_555
S38 C205 1_555 1_555
S40 C229 1_555 1_555
S42 C246 1_555 1_555
S44 C263 1_555 1_555
N14 C229 1_555 1_555
N15 C246 1_555 1_555
N16 C263 1_555 1_555
C209 C210 1_555 1_555
C216 C217 1_555 1_555
C226 C227 1_555 1_555
C233 C234 1_555 1_555
C243 C244 1_555 1_555
C250 C251 1_555 1_555
C260 C261 1_555 1_555
C260 C272 1_555 1_555
C267 C268 1_555 1_555

#END
