
#######################################################################
#
#                 Cambridge Crystallographic Data Centre
#                                CCDC 
#
#######################################################################
#
# If this CIF has been generated from an entry in the Cambridge 
# Structural Database, then it will include bibliographic, chemical, 
# crystal, experimental, refinement or atomic coordinate data resulting 
# from the CCDC's data processing and validation procedures.
#
#######################################################################

data_KUNHEH
_symmetry_cell_setting           orthorhombic
_symmetry_space_group_name_H-M   'P 21 21 21'
_symmetry_Int_Tables_number      19
_space_group_name_Hall           'P 2ac 2ab'
loop_
_symmetry_equiv_pos_site_id
_symmetry_equiv_pos_as_xyz
1 x,y,z
2 1/2-x,-y,1/2+z
3 -x,1/2+y,1/2-z
4 1/2+x,1/2-y,-z
_cell_length_a                   14.5722(3)
_cell_length_b                   22.9088(5)
_cell_length_c                   35.3453(8)
_cell_angle_alpha                90
_cell_angle_beta                 90
_cell_angle_gamma                90
_cell_volume                     11799.4
loop_
_atom_site_label
_atom_site_type_symbol
_atom_site_fract_x
_atom_site_fract_y
_atom_site_fract_z
Au1 Au 0.09324(5) -0.52907(4) -0.429820(19)
Au2 Au 0.34934(6) -0.59439(4) -0.18611(2)
Cl1 Cl 0.2445(4) -0.4715(3) -0.43367(15)
Cl2 Cl 0.2632(4) -0.4957(3) -0.18158(14)
Fe1 Fe 0.22420(19) -0.52976(14) -0.30728(7)
Fe2 Fe 0.1572(2) -0.46915(14) -0.55961(6)
N1 N 0.0294(16) -0.4193(9) -0.3612(6)
N2 N 0.2063(15) -0.6257(9) -0.4971(6)
N3 N 0.4835(12) -0.4967(8) -0.2530(6)
N4 N 0.3312(15) -0.3571(9) -0.6262(5)
P1 P 0.0406(4) -0.5510(3) -0.36876(14)
P2 P 0.0357(4) -0.5497(3) -0.49063(14)
P3 P 0.1217(4) -0.3624(3) -0.62774(14)
C1 C 0.0971(15) -0.5596(10) -0.2907(5)
H1 H 0.0795 -0.5993 -0.2876
C2 C -0.0819(15) -0.5335(12) -0.3631(5)
C3 C -0.1359(16) -0.5180(12) -0.3943(7)
H2 H -0.1077 -0.5150 -0.4185
C4 C -0.2235(18) -0.5074(12) -0.3913(8)
H3 H -0.2581 -0.4979 -0.4132
C5 C -0.269(2) -0.5102(13) -0.3543(8)
H4 H -0.3316 -0.4995 -0.3509
C6 C -0.2143(17) -0.5296(14) -0.3247(8)
H5 H -0.2423 -0.5361 -0.3008
C7 C -0.1238(16) -0.5397(13) -0.3280(7)
H6 H -0.0888 -0.5510 -0.3066
C8 C 0.0485(16) -0.6307(10) -0.3624(5)
C9 C -0.022(2) -0.6623(13) -0.3498(7)
H7 H -0.0793 -0.6440 -0.3445
C10 C -0.012(3) -0.7211(14) -0.3446(9)
H8 H -0.0597 -0.7430 -0.3329
C11 C 0.061(3) -0.7460(15) -0.3554(9)
H9 H 0.0625 -0.7875 -0.3559
C12 C 0.139(2) -0.7156(12) -0.3665(7)
H10 H 0.1954 -0.7351 -0.3702
C13 C 0.1312(17) -0.6572(11) -0.3721(6)
H11 H 0.1807 -0.6352 -0.3822
C14 C 0.0898(13) -0.5261(10) -0.3252(5)
C15 C 0.1340(13) -0.5243(11) -0.2629(5)
H12 H 0.1447 -0.5362 -0.2375
C16 C 0.1538(16) -0.4671(11) -0.2775(6)
H13 H 0.1802 -0.4351 -0.2644
C17 C 0.1235(14) -0.4690(10) -0.3183(6)
C18 C 0.1200(19) -0.4199(12) -0.3449(8)
H14 H 0.1612 -0.4318 -0.3661
C19 C -0.043(2) -0.4029(13) -0.3359(8)
H15 H -0.0404 -0.4274 -0.3132
H16 H -0.1023 -0.4084 -0.3485
H17 H -0.0358 -0.3619 -0.3287
C20 C 0.025(2) -0.3879(13) -0.3976(8)
H18 H 0.0399 -0.3467 -0.3936
H19 H -0.0372 -0.3911 -0.4080
H20 H 0.0689 -0.4051 -0.4153
C21 C 0.156(2) -0.3633(13) -0.3325(10)
C22 C 0.226(3) -0.335(2) -0.3577(15)
H21 H 0.2559 -0.3562 -0.3773
C23 C 0.249(3) -0.2686(19) -0.3503(15)
H22 H 0.2870 -0.2435 -0.3647
C24 C 0.209(4) -0.258(3) -0.3239(18)
H23 H 0.2393 -0.2246 -0.3138
C25 C 0.154(4) -0.2659(19) -0.3044(14)
H24 H 0.1265 -0.2361 -0.2894
C26 C 0.120(2) -0.3347(14) -0.3028(11)
H25 H 0.0819 -0.3513 -0.2839
C27 C -0.0682(15) -0.5053(11) -0.4949(6)
C28 C -0.0589(17) -0.4430(11) -0.4887(6)
H26 H 0.0003 -0.4265 -0.4851
C29 C -0.1363(17) -0.4070(13) -0.4879(7)
H27 H -0.1296 -0.3666 -0.4823
C30 C -0.219(2) -0.4287(14) -0.4950(8)
H28 H -0.2714 -0.4038 -0.4959
C31 C -0.2284(19) -0.4889(14) -0.5010(9)
H29 H -0.2885 -0.5039 -0.5048
C32 C -0.1523(17) -0.5300(13) -0.5018(6)
H30 H -0.1602 -0.5705 -0.5066
C33 C -0.0045(17) -0.6215(11) -0.4925(6)
C34 C -0.0350(19) -0.6508(12) -0.5260(6)
H31 H -0.0369 -0.6294 -0.5490
C35 C -0.060(2) -0.7043(12) -0.5265(7)
H32 H -0.0810 -0.7198 -0.5499
C36 C -0.059(2) -0.7410(13) -0.4959(8)
H33 H -0.0743 -0.7811 -0.4975
C37 C -0.032(2) -0.7142(12) -0.4617(8)
H34 H -0.0312 -0.7371 -0.4393
C38 C -0.0070(18) -0.6567(11) -0.4594(6)
H35 H 0.0087 -0.6403 -0.4356
C39 C 0.0916(15) -0.5400(9) -0.5352(5)
C40 C 0.0447(15) -0.5217(9) -0.5701(5)
H36 H -0.0173 -0.5092 -0.5719
C41 C 0.1071(16) -0.5258(10) -0.6004(5)
H37 H 0.0944 -0.5169 -0.6262
C42 C 0.1933(16) -0.5460(9) -0.5855(6)
H38 H 0.2483 -0.5523 -0.5993
C43 C 0.1796(15) -0.5547(10) -0.5451(6)
C44 C 0.2495(17) -0.5781(11) -0.5172(6)
H39 H 0.2572 -0.5464 -0.4979
C45 C 0.252(2) -0.6413(14) -0.4624(7)
H40 H 0.2061 -0.6515 -0.4433
H41 H 0.2886 -0.6082 -0.4535
H42 H 0.2922 -0.6749 -0.4669
C46 C 0.198(2) -0.6772(12) -0.5194(8)
H43 H 0.2592 -0.6916 -0.5261
H44 H 0.1637 -0.6683 -0.5426
H45 H 0.1652 -0.7072 -0.5050
C47 C 0.3455(18) -0.5907(11) -0.5316(7)
C48 C 0.358(2) -0.6266(12) -0.5653(8)
H46 H 0.3070 -0.6379 -0.5803
C49 C 0.444(2) -0.6433(14) -0.5745(10)
H47 H 0.4484 -0.6699 -0.5951
C50 C 0.515(3) -0.6302(18) -0.5610(13)
H48 H 0.5718 -0.6443 -0.5710
C51 C 0.513(2) -0.5921(18) -0.5290(12)
H49 H 0.5693 -0.5807 -0.5174
C52 C 0.416(2) -0.5673(15) -0.5116(10)
H50 H 0.4100 -0.5409 -0.4911
C53 C 0.5164(16) -0.4697(12) -0.2167(6)
H51 H 0.5686 -0.4921 -0.2069
H52 H 0.4666 -0.4702 -0.1980
H53 H 0.5354 -0.4293 -0.2214
C54 C 0.5588(15) -0.4993(12) -0.2790(7)
H54 H 0.5828 -0.4599 -0.2833
H55 H 0.5377 -0.5158 -0.3031
H56 H 0.6074 -0.5241 -0.2685
C55 C 0.4121(17) -0.4083(11) -0.2809(6)
C56 C 0.382(2) -0.3622(12) -0.2561(8)
H57 H 0.3527 -0.3710 -0.2327
C57 C 0.396(3) -0.3083(14) -0.2663(9)
H58 H 0.3715 -0.2787 -0.2504
C58 C 0.442(3) -0.2902(16) -0.2983(10)
H59 H 0.4504 -0.2503 -0.3047
C59 C 0.4756(18) -0.3345(12) -0.3197(8)
H60 H 0.5140 -0.3238 -0.3403
C60 C 0.460(2) -0.3921(12) -0.3150(8)
H61 H 0.4795 -0.4203 -0.3331
C61 C 0.3158(16) -0.6826(11) -0.2590(5)
C62 C 0.2175(18) -0.6848(12) -0.2540(6)
H62 H 0.1855 -0.6494 -0.2493
C63 C 0.170(2) -0.7339(13) -0.2556(7)
H63 H 0.1058 -0.7333 -0.2513
C64 C 0.213(3) -0.7858(15) -0.2635(9)
H64 H 0.1780 -0.8204 -0.2668
C65 C 0.305(3) -0.7874(14) -0.2665(9)
H65 H 0.3353 -0.8235 -0.2702
C66 C 0.353(2) -0.7375(12) -0.2641(8)
H66 H 0.4180 -0.7403 -0.2662
C67 C 0.4933(16) -0.6329(11) -0.2605(6)
C68 C 0.5551(17) -0.6327(12) -0.2297(7)
H67 H 0.5356 -0.6248 -0.2046
C69 C 0.6486(19) -0.6449(12) -0.2387(8)
H68 H 0.6913 -0.6469 -0.2184
C70 C 0.681(2) -0.6541(13) -0.2747(9)
H69 H 0.7444 -0.6586 -0.2800
C71 C 0.615(2) -0.6563(15) -0.3027(8)
H70 H 0.6347 -0.6663 -0.3276
C72 C 0.523(2) -0.6447(12) -0.2970(7)
H71 H 0.4809 -0.6449 -0.3176
C73 C 0.1659(15) -0.3893(9) -0.5836(5)
C74 C 0.1141(16) -0.3894(9) -0.5473(5)
H72 H 0.0521 -0.3782 -0.5433
C75 C 0.1786(16) -0.4100(10) -0.5194(5)
H73 H 0.1654 -0.4139 -0.4932
C76 C 0.2606(17) -0.4232(10) -0.5355(6)
H74 H 0.3121 -0.4393 -0.5228
C77 C 0.2563(14) -0.4081(10) -0.5762(5)
C78 C 0.3281(16) -0.4150(11) -0.6060(6)
H75 H 0.3024 -0.4434 -0.6247
C79 C 0.3795(18) -0.3562(12) -0.6609(8)
H76 H 0.3391 -0.3416 -0.6809
H77 H 0.3998 -0.3958 -0.6671
H78 H 0.4330 -0.3306 -0.6586
C80 C 0.3670(19) -0.3089(11) -0.6048(7)
H79 H 0.3343 -0.3061 -0.5806
H80 H 0.3585 -0.2726 -0.6191
H81 H 0.4325 -0.3150 -0.6000
C81 C 0.4191(17) -0.4396(12) -0.5942(7)
C82 C 0.4739(19) -0.4128(13) -0.5637(8)
H82 H 0.4451 -0.3837 -0.5487
C83 C 0.5596(19) -0.4261(13) -0.5557(9)
H83 H 0.5928 -0.4081 -0.5357
C84 C 0.603(2) -0.4750(15) -0.5822(9)
H84 H 0.6648 -0.4866 -0.5786
C85 C 0.551(2) -0.5009(15) -0.6105(9)
H85 H 0.5755 -0.5317 -0.6255
C86 C 0.4649(19) -0.4807(12) -0.6160(7)
H86 H 0.4323 -0.4963 -0.6369
C87 C 0.1515(17) -0.2875(10) -0.6281(6)
C88 C 0.1774(18) -0.2559(11) -0.6589(7)
H87 H 0.1751 -0.2751 -0.6827
C89 C 0.206(2) -0.1995(12) -0.6589(8)
H88 H 0.2278 -0.1820 -0.6816
C90 C 0.204(2) -0.1675(13) -0.6250(8)
H89 H 0.2165 -0.1269 -0.6245
C91 C 0.181(2) -0.1985(12) -0.5917(8)
H90 H 0.1883 -0.1798 -0.5679
C92 C 0.149(2) -0.2553(11) -0.5927(7)
H91 H 0.1252 -0.2731 -0.5705
C93 C -0.0032(16) -0.3665(11) -0.6201(6)
C94 C -0.051(2) -0.3216(14) -0.6026(9)
H92 H -0.0227 -0.2861 -0.5948
C95 C -0.149(2) -0.3339(17) -0.5971(10)
H93 H -0.1846 -0.3058 -0.5837
C96 C -0.191(2) -0.3801(16) -0.6092(11)
H94 H -0.2552 -0.3846 -0.6052
C97 C -0.143(2) -0.4215(13) -0.6272(8)
H95 H -0.1735 -0.4551 -0.6370
C98 C -0.0496(19) -0.4149(14) -0.6316(7)
H96 H -0.0159 -0.4457 -0.6431
P4 P 0.3757(4) -0.6151(3) -0.25037(14)
C99 C 0.3454(16) -0.5715(9) -0.2903(5)
C100 C 0.3072(12) -0.5971(10) -0.3261(5)
H97 H 0.2893 -0.6364 -0.3304
C101 C 0.3604(15) -0.5100(9) -0.2966(5)
C102 C 0.3368(16) -0.4986(10) -0.3352(6)
H98 H 0.3429 -0.4620 -0.3476
C103 C 0.3992(14) -0.4706(10) -0.2679(6)
H99 H 0.3544 -0.4695 -0.2465
C104 C 0.3034(15) -0.5498(10) -0.3521(6)
H100 H 0.2814 -0.5526 -0.3774
Au2A Au 0.15066(6) -0.40561(4) -0.68611(2)
P3A P 0.3783(4) -0.6376(3) -0.12774(14)
C105 C 0.586(4) -0.4526(19) -0.706(2)
H101 H 0.5321 -0.4749 -0.7143
H102 H 0.5794 -0.4453 -0.6782
Cl3 Cl 0.6821(15) -0.4932(10) -0.7130(6)
Cl4 Cl 0.5899(12) -0.3878(8) -0.7287(4)
C106 C 0.384(3) -0.607(3) -0.685(2)
H103 H 0.3536 -0.5731 -0.6959
H104 H 0.3794 -0.6043 -0.6567
Cl5 Cl 0.3307(16) -0.6692(11) -0.6993(8)
Cl6 Cl 0.4966(15) -0.6077(8) -0.6973(6)
C107 C 0.249(8) -0.859(3) -0.578(2)
H105 H 0.2209 -0.8898 -0.5944
H106 H 0.3105 -0.8722 -0.5706
Cl7 Cl 0.183(3) -0.8490(18) -0.5391(12)
Cl8 Cl 0.257(3) -0.7959(18) -0.6032(10)
C108 C -0.040(7) -0.109(3) -0.5786(17)
H107 H -0.0964 -0.0894 -0.5880
H108 H -0.0111 -0.1292 -0.6002
Cl9 Cl 0.033(3) -0.0577(15) -0.5615(12)
Cl10 Cl -0.070(3) -0.1587(15) -0.5451(12)
C109 C 0.142(3) -0.286(4) -0.460(2)
H109 H 0.1492 -0.2752 -0.4331
H110 H 0.1502 -0.3286 -0.4624
Cl11 Cl 0.224(2) -0.2514(15) -0.4861(10)
Cl12 Cl 0.036(2) -0.2669(16) -0.4753(10)
loop_
_geom_bond_atom_site_label_1
_geom_bond_atom_site_label_2
_geom_bond_site_symmetry_1
_geom_bond_site_symmetry_2
Au1 Cl1 1_555 1_555
Au2 Cl2 1_555 1_555
Fe1 C1 1_555 1_555
Fe2 C39 1_555 1_555
N1 C18 1_555 1_555
N2 C44 1_555 1_555
N3 C53 1_555 1_555
N4 C78 1_555 1_555
P1 Au1 1_555 1_555
P2 Au1 1_555 1_555
P3 C73 1_555 1_555
C1 H1 1_555 1_555
C2 P1 1_555 1_555
C3 C2 1_555 1_555
H2 C3 1_555 1_555
C4 C3 1_555 1_555
H3 C4 1_555 1_555
C5 C4 1_555 1_555
H4 C5 1_555 1_555
C6 C5 1_555 1_555
H5 C6 1_555 1_555
C7 C2 1_555 1_555
H6 C7 1_555 1_555
C8 P1 1_555 1_555
C9 C8 1_555 1_555
H7 C9 1_555 1_555
C10 C9 1_555 1_555
H8 C10 1_555 1_555
C11 C10 1_555 1_555
H9 C11 1_555 1_555
C12 C11 1_555 1_555
H10 C12 1_555 1_555
C13 C8 1_555 1_555
H11 C13 1_555 1_555
C14 Fe1 1_555 1_555
C15 Fe1 1_555 1_555
H12 C15 1_555 1_555
C16 Fe1 1_555 1_555
H13 C16 1_555 1_555
C17 Fe1 1_555 1_555
C18 C17 1_555 1_555
H14 C18 1_555 1_555
C19 N1 1_555 1_555
H15 C19 1_555 1_555
H16 C19 1_555 1_555
H17 C19 1_555 1_555
C20 N1 1_555 1_555
H18 C20 1_555 1_555
H19 C20 1_555 1_555
H20 C20 1_555 1_555
C21 C18 1_555 1_555
C22 C21 1_555 1_555
H21 C22 1_555 1_555
C23 C22 1_555 1_555
H22 C23 1_555 1_555
C24 C23 1_555 1_555
H23 C24 1_555 1_555
C25 C24 1_555 1_555
H24 C25 1_555 1_555
C26 C21 1_555 1_555
H25 C26 1_555 1_555
C27 P2 1_555 1_555
C28 C27 1_555 1_555
H26 C28 1_555 1_555
C29 C28 1_555 1_555
H27 C29 1_555 1_555
C30 C29 1_555 1_555
H28 C30 1_555 1_555
C31 C30 1_555 1_555
H29 C31 1_555 1_555
C32 C27 1_555 1_555
H30 C32 1_555 1_555
C33 P2 1_555 1_555
C34 C33 1_555 1_555
H31 C34 1_555 1_555
C35 C34 1_555 1_555
H32 C35 1_555 1_555
C36 C35 1_555 1_555
H33 C36 1_555 1_555
C37 C36 1_555 1_555
H34 C37 1_555 1_555
C38 C33 1_555 1_555
H35 C38 1_555 1_555
C39 P2 1_555 1_555
C40 Fe2 1_555 1_555
H36 C40 1_555 1_555
C41 Fe2 1_555 1_555
H37 C41 1_555 1_555
C42 Fe2 1_555 1_555
H38 C42 1_555 1_555
C43 Fe2 1_555 1_555
C44 C43 1_555 1_555
H39 C44 1_555 1_555
C45 N2 1_555 1_555
H40 C45 1_555 1_555
H41 C45 1_555 1_555
H42 C45 1_555 1_555
C46 N2 1_555 1_555
H43 C46 1_555 1_555
H44 C46 1_555 1_555
H45 C46 1_555 1_555
C47 C44 1_555 1_555
C48 C47 1_555 1_555
H46 C48 1_555 1_555
C49 C48 1_555 1_555
H47 C49 1_555 1_555
C50 C49 1_555 1_555
H48 C50 1_555 1_555
C51 C50 1_555 1_555
H49 C51 1_555 1_555
C52 C47 1_555 1_555
H50 C52 1_555 1_555
C53 H51 1_555 1_555
H52 C53 1_555 1_555
H53 C53 1_555 1_555
C54 N3 1_555 1_555
H54 C54 1_555 1_555
H55 C54 1_555 1_555
H56 C54 1_555 1_555
C55 C56 1_555 1_555
C56 H57 1_555 1_555
C57 C56 1_555 1_555
H58 C57 1_555 1_555
C58 C57 1_555 1_555
H59 C58 1_555 1_555
C59 C58 1_555 1_555
H60 C59 1_555 1_555
C60 C55 1_555 1_555
H61 C60 1_555 1_555
C61 C62 1_555 1_555
C62 H62 1_555 1_555
C63 C62 1_555 1_555
H63 C63 1_555 1_555
C64 C63 1_555 1_555
H64 C64 1_555 1_555
C65 C64 1_555 1_555
H65 C65 1_555 1_555
C66 C61 1_555 1_555
H66 C66 1_555 1_555
C67 C68 1_555 1_555
C68 H67 1_555 1_555
C69 C68 1_555 1_555
H68 C69 1_555 1_555
C70 C69 1_555 1_555
H69 C70 1_555 1_555
C71 C70 1_555 1_555
H70 C71 1_555 1_555
C72 C67 1_555 1_555
H71 C72 1_555 1_555
C73 Fe2 1_555 1_555
C74 Fe2 1_555 1_555
H72 C74 1_555 1_555
C75 Fe2 1_555 1_555
H73 C75 1_555 1_555
C76 Fe2 1_555 1_555
H74 C76 1_555 1_555
C77 Fe2 1_555 1_555
C78 C77 1_555 1_555
H75 C78 1_555 1_555
C79 N4 1_555 1_555
H76 C79 1_555 1_555
H77 C79 1_555 1_555
H78 C79 1_555 1_555
C80 N4 1_555 1_555
H79 C80 1_555 1_555
H80 C80 1_555 1_555
H81 C80 1_555 1_555
C81 C78 1_555 1_555
C82 C81 1_555 1_555
H82 C82 1_555 1_555
C83 C82 1_555 1_555
H83 C83 1_555 1_555
C84 C83 1_555 1_555
H84 C84 1_555 1_555
C85 C84 1_555 1_555
H85 C85 1_555 1_555
C86 C81 1_555 1_555
H86 C86 1_555 1_555
C87 P3 1_555 1_555
C88 C87 1_555 1_555
H87 C88 1_555 1_555
C89 C88 1_555 1_555
H88 C89 1_555 1_555
C90 C89 1_555 1_555
H89 C90 1_555 1_555
C91 C90 1_555 1_555
H90 C91 1_555 1_555
C92 C87 1_555 1_555
H91 C92 1_555 1_555
C93 P3 1_555 1_555
C94 C93 1_555 1_555
H92 C94 1_555 1_555
C95 C94 1_555 1_555
H93 C95 1_555 1_555
C96 C95 1_555 1_555
H94 C96 1_555 1_555
C97 C96 1_555 1_555
H95 C97 1_555 1_555
C98 C93 1_555 1_555
H96 C98 1_555 1_555
P4 Au2 1_555 1_555
C99 Fe1 1_555 1_555
C100 Fe1 1_555 1_555
H97 C100 1_555 1_555
C101 Fe1 1_555 1_555
C102 Fe1 1_555 1_555
H98 C102 1_555 1_555
C103 N3 1_555 1_555
H99 C103 1_555 1_555
C104 Fe1 1_555 1_555
H100 C104 1_555 1_555
C105 H101 1_555 1_555
H102 C105 1_555 1_555
Cl3 C105 1_555 1_555
Cl4 C105 1_555 1_555
C106 H103 1_555 1_555
H104 C106 1_555 1_555
Cl5 C106 1_555 1_555
Cl6 C106 1_555 1_555
C107 H105 1_555 1_555
H106 C107 1_555 1_555
Cl7 C107 1_555 1_555
Cl8 C107 1_555 1_555
C108 H107 1_555 1_555
H108 C108 1_555 1_555
Cl9 C108 1_555 1_555
Cl10 C108 1_555 1_555
C109 H109 1_555 1_555
H110 C109 1_555 1_555
Cl11 C109 1_555 1_555
Cl12 C109 1_555 1_555
Au2A P3 1_555 1_555
P3A Au2 1_555 1_555
P1 C14 1_555 1_555
C1 C14 1_555 1_555
C1 C15 1_555 1_555
C6 C7 1_555 1_555
C12 C13 1_555 1_555
C14 C17 1_555 1_555
C15 C16 1_555 1_555
C16 C17 1_555 1_555
C25 C26 1_555 1_555
C31 C32 1_555 1_555
C37 C38 1_555 1_555
C39 C40 1_555 1_555
C39 C43 1_555 1_555
C40 C41 1_555 1_555
C41 C42 1_555 1_555
C42 C43 1_555 1_555
C51 C52 1_555 1_555
C55 C103 1_555 1_555
C59 C60 1_555 1_555
C61 P4 1_555 1_555
C65 C66 1_555 1_555
C67 P4 1_555 1_555
C71 C72 1_555 1_555
C73 C74 1_555 1_555
C73 C77 1_555 1_555
C74 C75 1_555 1_555
C75 C76 1_555 1_555
C76 C77 1_555 1_555
C85 C86 1_555 1_555
C91 C92 1_555 1_555
C97 C98 1_555 1_555
P4 C99 1_555 1_555
C99 C100 1_555 1_555
C99 C101 1_555 1_555
C100 C104 1_555 1_555
C101 C102 1_555 1_555
C101 C103 1_555 1_555
C102 C104 1_555 1_555

#END
