
#######################################################################
#
#                 Cambridge Crystallographic Data Centre
#                                CCDC 
#
#######################################################################
#
# If this CIF has been generated from an entry in the Cambridge 
# Structural Database, then it will include bibliographic, chemical, 
# crystal, experimental, refinement or atomic coordinate data resulting 
# from the CCDC's data processing and validation procedures.
#
#######################################################################

data_KUNJOT
_symmetry_cell_setting           triclinic
_symmetry_space_group_name_H-M   'P -1'
_symmetry_Int_Tables_number      2
_space_group_name_Hall           '-P 1'
loop_
_symmetry_equiv_pos_site_id
_symmetry_equiv_pos_as_xyz
1 x,y,z
2 -x,-y,-z
_cell_length_a                   10.6675(3)
_cell_length_b                   11.5380(3)
_cell_length_c                   17.2140(4)
_cell_angle_alpha                78.4650(4)
_cell_angle_beta                 87.5517(4)
_cell_angle_gamma                76.3111(4)
_cell_volume                     2016.94
loop_
_atom_site_label
_atom_site_type_symbol
_atom_site_fract_x
_atom_site_fract_y
_atom_site_fract_z
U1 U 0.112331(17) 0.330266(16) 0.409363(11)
U2 U 0.381094(18) 0.142309(17) 0.115431(11)
U3 U 0.441588(17) 0.192268(16) 0.596837(11)
U4 U 0.842190(18) -0.368500(17) 0.109720(11)
P1 P 0.19420(12) 0.46966(11) 0.55975(8)
P2 P 0.58091(13) -0.16406(12) 0.18922(8)
P3 P 0.16275(14) 0.43928(13) 0.08509(9)
P4 P 0.32044(12) 0.08815(12) 0.33039(8)
O1 O 0.1737(3) 0.4066(3) 0.3213(2)
O2 O 0.0534(4) 0.2544(3) 0.4985(2)
O3 O 0.3376(3) 0.2496(3) 0.4584(2)
O4 O 0.1602(3) 0.4755(3) 0.4734(2)
O5 O 0.0779(3) 0.5189(3) 0.6086(2)
O6 O -0.0417(4) 0.2828(4) 0.3265(3)
O7 O 0.1958(3) 0.1433(3) 0.3697(2)
O8 O 0.4747(4) 0.2350(4) 0.1459(2)
O9 O 0.9491(4) -0.3793(3) 0.2412(2)
O10 O 0.5390(4) -0.0266(3) 0.1639(2)
O11 O 0.2994(4) 0.0952(4) 0.2424(2)
O12 O 0.2079(4) 0.3038(4) 0.1161(2)
O13 O 0.3510(3) 0.0784(3) 0.6204(2)
O14 O 0.5315(3) 0.3059(3) 0.5714(2)
O15 O 0.2582(3) 0.3412(3) 0.6013(2)
O16 O 0.5332(3) 0.1346(3) 0.4703(2)
O17 O 0.3740(3) -0.0425(3) 0.3721(2)
O18 O 0.5456(4) -0.2066(4) 0.2745(2)
O19 O 0.9229(4) -0.2602(4) 0.0560(2)
O20 O 0.7225(4) -0.2113(4) 0.1709(2)
O21 O 0.6451(4) -0.2653(3) 0.0262(2)
O22 O 0.1505(4) 0.4674(4) -0.0050(2)
O23 O 0.0413(4) 0.4932(4) 0.1264(2)
O24 O 0.2864(4) 0.0525(4) 0.0853(2)
O25 O 0.4642(4) -0.1289(4) -0.0053(2)
O26 O 0.7562(4) -0.4714(4) 0.1639(2)
O27 O 0.4882(4) 0.5351(4) 0.6369(3)
H1 H 0.5115 0.5405 0.6805
O28 O 0.2951(4) 0.6092(4) 0.6842(3)
O29 O 0.4159(4) 0.4668(4) 0.2207(3)
O30 O 0.2274(4) 0.6077(4) 0.2101(3)
H2 H 0.2453 0.6103 0.2555
C1 C 0.3070(5) 0.5650(5) 0.5535(3)
H3 H 0.3781 0.5358 0.5200
H4 H 0.2645 0.6469 0.5277
C2 C 0.3612(5) 0.5709(5) 0.6314(3)
C3 C 0.5332(5) -0.2075(5) 0.0461(3)
C4 C 0.4910(5) -0.2320(5) 0.1302(3)
H5 H 0.3992 -0.1974 0.1339
H6 H 0.5069 -0.3190 0.1501
C5 C 0.4374(5) 0.1883(4) 0.4275(3)
C6 C 0.4325(5) 0.1794(5) 0.3419(3)
H7 H 0.5176 0.1424 0.3246
H8 H 0.4048 0.2601 0.3095
C7 C 0.2892(6) 0.5161(6) 0.1009(4)
H9 H 0.3688 0.4747 0.0792
H10 H 0.2665 0.5982 0.0698
C8 C 0.3169(6) 0.5249(5) 0.1838(4)
U1A U -0.112331(17) 0.669734(16) 0.590637(11)
U2A U 0.618906(18) -0.142309(17) -0.115431(11)
U3A U 0.558412(17) -0.192268(16) 0.403163(11)
U4A U 0.157810(18) 0.368500(17) -0.109720(11)
U4_2 U -0.157810(18) 0.631500(17) 0.109720(11)
O5A O -0.0779(3) 0.4811(3) 0.3914(2)
O17A O 0.6260(3) 0.0425(3) 0.6279(2)
O18A O 0.4544(4) 0.2066(4) 0.7255(2)
O21A O 0.3549(4) 0.2653(3) -0.0262(2)
O22A O 0.8495(4) -0.4674(4) 0.0050(2)
O23_2 O 1.0413(4) -0.5068(4) 0.1264(2)
O25A O 0.5358(4) 0.1289(4) 0.0053(2)
Zn1 Zn 0.01600(7) 1.02949(7) -0.26682(5)
O31 O 0.0539(5) 1.1931(4) -0.3264(3)
O32 O -0.0282(4) 0.8613(4) -0.2119(3)
O33 O -0.0213(5) 1.0002(4) -0.3811(3)
O34 O -0.1775(5) 1.1183(4) -0.2582(4)
O35 O 0.2026(5) 0.9388(5) -0.2775(4)
O36 O 0.0602(10) 1.0684(6) -0.1600(4)
O37 O 0.1831(5) 0.8887(6) 0.5298(3)
O38 O 0.2542(4) 0.6461(4) 0.3541(3)
O39 O 0.3046(5) 0.7192(4) -0.1893(3)
O40 O 0.1103(6) 0.7379(5) -0.0807(3)
O41 O -0.1451(10) 1.1331(10) -0.0507(7)
loop_
_geom_bond_atom_site_label_1
_geom_bond_atom_site_label_2
_geom_bond_site_symmetry_1
_geom_bond_site_symmetry_2
U1 O1 1_555 1_555
U2 O8 1_555 1_555
U3 O3 1_555 1_555
U4 O9 1_555 1_555
P1 O4 1_555 1_555
P2 O10 1_555 1_555
P3 O12 1_555 1_555
P4 O7 1_555 1_555
O2 U1 1_555 1_555
O3 U1 1_555 1_555
O4 U1 1_555 1_555
O5 P1 1_555 1_555
O6 U1 1_555 1_555
O7 U1 1_555 1_555
O10 U2 1_555 1_555
O11 U2 1_555 1_555
O12 U2 1_555 1_555
O13 U3 1_555 1_555
O14 U3 1_555 1_555
O15 U3 1_555 1_555
O16 U3 1_555 1_555
O17 P4 1_555 1_555
O18 P2 1_555 1_555
O19 U4 1_555 1_555
O20 U4 1_555 1_555
O21 U4 1_555 1_555
O22 P3 1_555 1_555
O23 P3 1_555 1_555
O24 U2 1_555 1_555
O25 C3 1_555 1_555
O26 U4 1_555 1_555
O27 H1 1_555 1_555
O28 C2 1_555 1_555
O29 C8 1_555 1_555
O30 H2 1_555 1_555
C1 P1 1_555 1_555
H3 C1 1_555 1_555
H4 C1 1_555 1_555
C2 O27 1_555 1_555
C3 O21 1_555 1_555
C4 P2 1_555 1_555
H5 C4 1_555 1_555
H6 C4 1_555 1_555
C5 O3 1_555 1_555
C6 P4 1_555 1_555
H7 C6 1_555 1_555
H8 C6 1_555 1_555
C7 P3 1_555 1_555
H9 C7 1_555 1_555
H10 C7 1_555 1_555
C8 O30 1_555 1_555
Zn1 O31 1_555 1_555
O32 Zn1 1_555 1_555
O33 Zn1 1_555 1_555
O34 Zn1 1_555 1_555
O35 Zn1 1_555 1_555
O36 Zn1 1_555 1_555
U1A O5 1_555 1_555
U2A O21 1_555 1_555
U3A O17 1_555 1_555
U4A O22 1_555 1_555
U4_2 O23 1_555 1_555
O5A U1 1_555 1_555
O17A U3 1_555 1_555
O18A U3 1_555 1_555
O21A U2 1_555 1_555
O22A U4 1_555 1_555
O23_2 U4 1_555 1_555
O25A U2 1_555 1_555
P1 O15 1_555 1_555
P2 O20 1_555 1_555
P4 O11 1_555 1_555
O16 C5 1_555 1_555
O18 U3A 1_555 1_555
O25 U2A 1_555 1_555
C1 C2 1_555 1_555
C3 C4 1_555 1_555
C5 C6 1_555 1_555
C7 C8 1_555 1_555
U4A O21A 1_555 1_555

#END
