
#######################################################################
#
#                 Cambridge Crystallographic Data Centre
#                                CCDC 
#
#######################################################################
#
# If this CIF has been generated from an entry in the Cambridge 
# Structural Database, then it will include bibliographic, chemical, 
# crystal, experimental, refinement or atomic coordinate data resulting 
# from the CCDC's data processing and validation procedures.
#
#######################################################################

data_KUNKIO
_symmetry_cell_setting           triclinic
_symmetry_space_group_name_H-M   'P -1'
_symmetry_Int_Tables_number      2
_space_group_name_Hall           '-P 1'
loop_
_symmetry_equiv_pos_site_id
_symmetry_equiv_pos_as_xyz
1 x,y,z
2 -x,-y,-z
_cell_length_a                   6.0717(18)
_cell_length_b                   8.089(2)
_cell_length_c                   9.112(3)
_cell_angle_alpha                88.314(5)
_cell_angle_beta                 73.692(5)
_cell_angle_gamma                77.059(5)
_cell_volume                     418.344
loop_
_atom_site_label
_atom_site_type_symbol
_atom_site_fract_x
_atom_site_fract_y
_atom_site_fract_z
Co1 Co 0.5000 0.5000 0.5000
Co2 Co 0.59154(10) 0.95226(7) 0.64450(6)
P1 P 0.13413(19) 0.83687(13) 0.66043(12)
C1 C 0.2228(7) 0.7907(5) 0.8354(5)
C2 C 0.1036(8) 0.7024(6) 0.9554(5)
H1 H -0.0309 0.6689 0.9501
C3 C 0.1862(8) 0.6661(5) 1.0794(5)
H2 H 0.1130 0.6034 1.1576
C4 C 0.3811(8) 0.7238(5) 1.0880(5)
C5 C 0.4898(8) 0.8099(5) 0.9664(5)
H3 H 0.6212 0.8479 0.9716
C6 C 0.4793(7) 0.6897(5) 1.2229(5)
N1 N 0.4152(6) 0.8416(4) 0.8413(4)
O1 O 0.2982(5) 0.9488(4) 0.5742(3)
O2 O -0.1202(5) 0.9294(4) 0.7092(3)
O3 O 0.1761(5) 0.6669(4) 0.5793(3)
O4 O 0.4600(6) 0.5534(4) 1.2876(3)
O5 O 0.5789(5) 0.7967(4) 1.2586(3)
O6 O 0.2743(6) 0.3018(4) 0.4887(3)
H4 H 0.2940 0.2640 0.5788
H5 H 0.1357 0.3393 0.4737
Co1_2 Co 0.5000 0.5000 1.5000
Co1_3 Co 0.5000 0.5000 -0.5000
Co2A Co 0.40846(10) 0.04774(7) 0.35550(6)
Co2A_2 Co 0.40846(10) 1.04774(7) 0.35550(6)
Co2_2 Co -0.40846(10) 0.95226(7) 0.64450(6)
Co2A_3 Co 0.40846(10) 1.04774(7) 1.35550(6)
Co2_3 Co 0.59154(10) -0.04774(7) 0.64450(6)
Co2A_4 Co 1.40846(10) 0.04774(7) 0.35550(6)
Co2_4 Co 0.59154(10) -0.04774(7) -0.35550(6)
P1A P 0.86587(19) 0.16313(13) 0.33957(12)
C1A C 0.7772(7) 0.2093(5) 0.1646(5)
C2A C 0.8964(8) 0.2976(6) 0.0446(5)
H1A H 1.0309 0.3311 0.0499
C3A C 0.8138(8) 0.3339(5) -0.0794(5)
H2A H 0.8870 0.3966 -0.1576
C4A C 0.6189(8) 0.2762(5) -0.0880(5)
C5A C 0.5102(8) 0.1901(5) 0.0336(5)
H3A H 0.3788 0.1521 0.0284
C6A C 0.5207(7) 0.3103(5) -0.2229(5)
N1A N 0.5848(6) 0.1584(4) 0.1587(4)
O1A O 0.7018(5) 0.0512(4) 0.4258(3)
O1A_2 O 0.7018(5) 1.0512(4) 0.4258(3)
O1_2 O 0.2982(5) -0.0512(4) 0.5742(3)
O2A O 1.1202(5) 0.0706(4) 0.2908(3)
O2_2 O 0.8798(5) 0.9294(4) 0.7092(3)
O2A_2 O 0.1202(5) 0.0706(4) 0.2908(3)
O3A O 0.8239(5) 0.3331(4) 0.4207(3)
O4A O 0.5400(6) 0.4466(4) -0.2876(3)
O4_2 O 0.4600(6) 0.5534(4) 0.2876(3)
O4A_2 O 0.5400(6) 0.4466(4) 0.7124(3)
O5A O 0.4211(5) 0.2033(4) -0.2586(3)
O5A_2 O 0.4211(5) 1.2033(4) 0.7414(3)
O5_2 O 0.5789(5) -0.2033(4) 0.2586(3)
O6A O 0.7257(6) 0.6982(4) 0.5113(3)
H4A H 0.7060 0.7360 0.4212
H5A H 0.8643 0.6607 0.5263
loop_
_geom_bond_atom_site_label_1
_geom_bond_atom_site_label_2
_geom_bond_site_symmetry_1
_geom_bond_site_symmetry_2
Co1 O3 1_555 1_555
Co2 N1 1_555 1_555
P1 C1 1_555 1_555
C1 C2 1_555 1_555
C2 H1 1_555 1_555
C3 C2 1_555 1_555
H2 C3 1_555 1_555
C4 C3 1_555 1_555
C5 C4 1_555 1_555
H3 C5 1_555 1_555
C6 C4 1_555 1_555
N1 C1 1_555 1_555
O1 Co2 1_555 1_555
O2 P1 1_555 1_555
O3 P1 1_555 1_555
O4 C6 1_555 1_555
O5 C6 1_555 1_555
O6 Co1 1_555 1_555
H4 O6 1_555 1_555
H5 O6 1_555 1_555
Co1_2 O4 1_555 1_555
Co1_3 O4A 1_555 1_555
Co2A O6 1_555 1_555
Co2A_2 O1 1_555 1_555
Co2_2 O2 1_555 1_555
Co2A_3 O5 1_555 1_555
Co2_3 O1A 1_555 1_555
Co2A_4 O2A 1_555 1_555
Co2_4 O5A 1_555 1_555
P1A C1A 1_555 1_555
C1A C2A 1_555 1_555
C2A H1A 1_555 1_555
C3A C2A 1_555 1_555
H2A C3A 1_555 1_555
C4A C3A 1_555 1_555
C5A C4A 1_555 1_555
H3A C5A 1_555 1_555
C6A C4A 1_555 1_555
N1A Co2A 1_555 1_555
O1A Co2A 1_555 1_555
O1A_2 Co2 1_555 1_555
O1_2 Co2A 1_555 1_555
O2A P1A 1_555 1_555
O2_2 Co2 1_555 1_555
O2A_2 Co2A 1_555 1_555
O3A Co1 1_555 1_555
O4A C6A 1_555 1_555
O4_2 Co1 1_555 1_555
O4A_2 Co1 1_555 1_555
O5A C6A 1_555 1_555
O5A_2 Co2 1_555 1_555
O5_2 Co2A 1_555 1_555
O6A Co1 1_555 1_555
H4A O6A 1_555 1_555
H5A O6A 1_555 1_555
Co2 O6A 1_555 1_555
P1 O1 1_555 1_555
C5 N1 1_555 1_555
Co2A_2 O1A_2 1_555 1_555
Co2_3 O1_2 1_555 1_555
P1A O1A 1_555 1_555
P1A O3A 1_555 1_555
C1A N1A 1_555 1_555
C5A N1A 1_555 1_555

#END
