
#######################################################################
#
#                 Cambridge Crystallographic Data Centre
#                                CCDC 
#
#######################################################################
#
# If this CIF has been generated from an entry in the Cambridge 
# Structural Database, then it will include bibliographic, chemical, 
# crystal, experimental, refinement or atomic coordinate data resulting 
# from the CCDC's data processing and validation procedures.
#
#######################################################################

data_KUNKAG
_symmetry_cell_setting           triclinic
_symmetry_space_group_name_H-M   'P -1'
_symmetry_Int_Tables_number      2
_space_group_name_Hall           '-P 1'
loop_
_symmetry_equiv_pos_site_id
_symmetry_equiv_pos_as_xyz
1 x,y,z
2 -x,-y,-z
_cell_length_a                   9.1030(10)
_cell_length_b                   9.7275(11)
_cell_length_c                   15.0950(17)
_cell_angle_alpha                91.404(2)
_cell_angle_beta                 94.497(2)
_cell_angle_gamma                115.628(2)
_cell_volume                     1198.91
loop_
_atom_site_label
_atom_site_type_symbol
_atom_site_fract_x
_atom_site_fract_y
_atom_site_fract_z
U1 U 1.56597(3) 1.32772(3) 0.344770(19)
U2 U 0.99095(3) 0.82045(3) 0.345960(19)
Zn1 Zn 1.0000 0.5000 0.0000
Zn2 Zn 1.02830(12) 0.26376(10) 0.12862(6)
Zn3 Zn 1.0000 1.0000 0.0000
P1 P 1.2437(2) 1.0620(2) 0.17616(13)
P2 P 0.8588(2) 0.4924(2) 0.18700(13)
P3 P 1.1636(2) 1.2042(2) 0.43689(14)
O1 O 1.5431(7) 1.4940(6) 0.3178(4)
O2 O 1.5922(8) 1.1613(6) 0.3700(4)
O3 O 1.3400(7) 1.2555(7) 0.4175(4)
O4 O 1.3315(8) 1.5915(7) 0.4980(4)
O5 O 1.3771(7) 1.2074(6) 0.2239(4)
O6 O 0.7484(7) 0.3623(6) 0.2402(4)
O7 O 1.1554(7) 1.4481(6) 0.5867(4)
O8 O 1.1629(7) 0.8363(7) 0.4153(4)
O9 O 0.8143(7) 0.8060(6) 0.2811(4)
O10 O 0.9806(7) 0.6254(6) 0.2475(4)
O11 O 1.1673(8) 0.9371(6) 0.2389(4)
O12 O 1.0469(7) 1.0821(6) 0.3675(4)
O13 O 1.1452(7) 1.1579(6) 0.5322(4)
O14 O 0.9431(7) 0.4319(6) 0.1236(4)
O15 O 0.8509(7) 0.6102(6) -0.0175(4)
O16 O 0.8338(8) 0.7986(6) 0.0617(4)
O17 O 1.1380(7) 0.8860(6) -0.0276(4)
O18 O 1.1169(7) 1.0985(6) 0.1217(4)
O19 O 0.8736(8) 0.1506(7) 0.2255(5)
O20 O 1.1998(8) 0.7241(7) 0.0562(4)
O21 O 1.2178(8) 0.3975(7) 0.2168(5)
C1 C 1.3404(10) 0.9952(9) 0.0958(5)
H1 H 1.3969 1.0771 0.0579
H2 H 1.4214 0.9696 0.1273
C2 C 1.2184(10) 0.8561(9) 0.0381(5)
C3 C 0.7257(9) 0.5502(9) 0.1181(5)
H3 H 0.6387 0.4598 0.0869
H4 H 0.6754 0.5953 0.1566
C4 C 0.8104(10) 0.6633(9) 0.0502(5)
C5 C 1.1107(10) 1.3636(8) 0.4319(6)
H5 H 0.9938 1.3277 0.4340
H6 H 1.1402 1.4130 0.3766
C6 C 1.2015(10) 1.4737(8) 0.5090(6)
U1A U 0.43403(3) -0.32772(3) -0.344770(19)
U1A_2 U 1.43403(3) 1.67228(3) 0.655230(19)
U1_2 U 0.56597(3) 0.32772(3) 0.344770(19)
U1A_3 U 1.43403(3) 0.67228(3) -0.344770(19)
U2A U 1.00905(3) 0.17955(3) -0.345960(19)
U2A_2 U 1.00905(3) 1.17955(3) 0.654040(19)
U2_2 U 1.99095(3) 1.82045(3) 0.345960(19)
U2A_3 U 2.00905(3) 2.17955(3) 0.654040(19)
Zn2A Zn 0.97170(12) 0.73624(10) -0.12862(6)
Zn2_2 Zn 1.02830(12) 1.26376(10) 0.12862(6)
Zn2A_2 Zn 0.97170(12) -0.26376(10) -0.12862(6)
Zn3_2 Zn 1.0000 0.0000 0.0000
P1A P 0.7563(2) -0.0620(2) -0.17616(13)
P2A P 1.1412(2) 0.5076(2) -0.18700(13)
P3A P 1.8364(2) 1.7958(2) 0.56311(14)
O1A O 0.4569(7) -0.4940(6) -0.3178(4)
O2A O 0.4078(8) -0.1613(6) -0.3700(4)
O3A O 1.6600(7) 1.7445(7) 0.5825(4)
O3A_2 O 0.6600(7) -0.2555(7) -0.4175(4)
O4A O 1.6685(8) 1.4085(7) 0.5020(4)
O4_2 O 0.3315(8) -0.4085(7) -0.5020(4)
O5A O 0.6229(7) -0.2074(6) -0.2239(4)
O6A O 1.2516(7) 0.6377(6) -0.2402(4)
O6_2 O 1.7484(7) 1.3623(6) 0.2402(4)
O6A_2 O 0.2516(7) -0.3623(6) -0.2402(4)
O7A O 1.8446(7) 1.5519(6) 0.4133(4)
O7A_2 O 0.8446(7) 0.5519(6) 0.4133(4)
O7_2 O 0.1554(7) -0.5519(6) -0.4133(4)
O7_3 O 1.1554(7) 0.4481(6) -0.4133(4)
O8A O 0.8371(7) 0.1637(7) -0.4153(4)
O9A O 1.1857(7) 0.1940(6) -0.2811(4)
O10A O 1.0194(7) 0.3746(6) -0.2475(4)
O11A O 0.8327(8) 0.0629(6) -0.2389(4)
O12A O 1.9531(7) 1.9179(6) 0.6325(4)
O12A_2 O 0.9531(7) -0.0821(6) -0.3675(4)
O13A O 1.8548(7) 1.8421(6) 0.4678(4)
O13A_2 O 0.8548(7) 0.8421(6) 0.4678(4)
O13_2 O 1.1452(7) 0.1579(6) -0.4678(4)
O14A O 1.0569(7) 0.5681(6) -0.1236(4)
O15A O 1.1491(7) 0.3898(6) 0.0175(4)
O16A O 1.1662(8) 0.2014(6) -0.0617(4)
O16A_2 O 1.1662(8) 1.2014(6) -0.0617(4)
O17A O 0.8620(7) 0.1140(6) 0.0276(4)
O17A_2 O 0.8620(7) 1.1140(6) 0.0276(4)
O18A O 0.8831(7) -0.0985(6) -0.1217(4)
O18_2 O 1.1169(7) 0.0985(6) 0.1217(4)
O18A_2 O 0.8831(7) 0.9015(6) -0.1217(4)
O19A O 1.1264(8) 0.8494(7) -0.2255(5)
O20A O 0.8002(8) 0.2759(7) -0.0562(4)
O21A O 0.7822(8) 0.6025(7) -0.2168(5)
C1A C 0.6596(10) 0.0048(9) -0.0958(5)
H1A H 0.6031 -0.0771 -0.0579
H2A H 0.5786 0.0304 -0.1273
C2A C 0.7816(10) 0.1439(9) -0.0381(5)
C3A C 1.2743(9) 0.4498(9) -0.1181(5)
H3A H 1.3613 0.5402 -0.0869
H4A H 1.3246 0.4047 -0.1566
C4A C 1.1896(10) 0.3367(9) -0.0502(5)
C5A C 1.8893(10) 1.6364(8) 0.5681(6)
H5A H 2.0062 1.6723 0.5660
H6A H 1.8598 1.5870 0.6234
C6A C 1.7985(10) 1.5263(8) 0.4910(6)
O22 O 0.3379(11) -0.2981(9) 0.2327(6)
O23 O 0.4605(12) 0.1671(11) 0.6066(7)
O24 O -0.3946(13) -0.1311(12) 0.1440(8)
loop_
_geom_bond_atom_site_label_1
_geom_bond_atom_site_label_2
_geom_bond_site_symmetry_1
_geom_bond_site_symmetry_2
U1 O1 1_555 1_555
U2 O8 1_555 1_555
Zn1 O14 1_555 1_555
Zn2 O14 1_555 1_555
Zn3 O16 1_555 1_555
P1 O5 1_555 1_555
P2 O6 1_555 1_555
P3 O3 1_555 1_555
O2 U1 1_555 1_555
O3 U1 1_555 1_555
O4 C6 1_555 1_555
O5 U1 1_555 1_555
O6 U1_2 1_555 1_555
O7 C6 1_555 1_555
O9 U2 1_555 1_555
O10 U2 1_555 1_555
O11 U2 1_555 1_555
O12 U2 1_555 1_555
O13 P3 1_555 1_555
O14 P2 1_555 1_555
O15 Zn1 1_555 1_555
O16 C4 1_555 1_555
O17 Zn3 1_555 1_555
O18 Zn3 1_555 1_555
O19 Zn2 1_555 1_555
O20 Zn1 1_555 1_555
O21 Zn2 1_555 1_555
C1 P1 1_555 1_555
H1 C1 1_555 1_555
H2 C1 1_555 1_555
C2 O17 1_555 1_555
C3 P2 1_555 1_555
H3 C3 1_555 1_555
H4 C3 1_555 1_555
C4 O15 1_555 1_555
C5 P3 1_555 1_555
H5 C5 1_555 1_555
H6 C5 1_555 1_555
C6 C5 1_555 1_555
U1A O1A 1_555 1_555
U1A_2 O4 1_555 1_555
U1_2 O7A_2 1_555 1_555
U1A_3 O6A 1_555 1_555
U2A O7_3 1_555 1_555
U2A_2 O7 1_555 1_555
U2_2 O7A 1_555 1_555
U2A_3 O12A 1_555 1_555
Zn2A O15 1_555 1_555
Zn2_2 O18 1_555 1_555
Zn2A_2 O18A 1_555 1_555
Zn3_2 O16A 1_555 1_555
P1A O5A 1_555 1_555
P2A O6A 1_555 1_555
P3A O3A 1_555 1_555
O2A U1A 1_555 1_555
O3A U1A_2 1_555 1_555
O3A_2 U1A 1_555 1_555
O4A U1 1_555 1_555
O4_2 U1A 1_555 1_555
O5A U1A 1_555 1_555
O6_2 U1 1_555 1_555
O6A_2 U1A 1_555 1_555
O7A U1 1_555 1_555
O7A_2 U2 1_555 1_555
O7_2 U1A 1_555 1_555
O7_3 U1A_3 1_555 1_555
O8A U2A 1_555 1_555
O9A U2A 1_555 1_555
O10A U2A 1_555 1_555
O11A U2A 1_555 1_555
O12A P3A 1_555 1_555
O12A_2 U2A 1_555 1_555
O13A U2_2 1_555 1_555
O13A_2 U2 1_555 1_555
O13_2 U2A 1_555 1_555
O14A Zn1 1_555 1_555
O15A Zn1 1_555 1_555
O16A C4A 1_555 1_555
O16A_2 Zn3 1_555 1_555
O17A Zn2 1_555 1_555
O17A_2 Zn3 1_555 1_555
O18A Zn3_2 1_555 1_555
O18_2 Zn2 1_555 1_555
O18A_2 Zn3 1_555 1_555
O19A Zn2A 1_555 1_555
O20A Zn1 1_555 1_555
O21A Zn2A 1_555 1_555
C1A P1A 1_555 1_555
H1A C1A 1_555 1_555
H2A C1A 1_555 1_555
C2A O17A 1_555 1_555
C3A P2A 1_555 1_555
H3A C3A 1_555 1_555
H4A C3A 1_555 1_555
C4A O15A 1_555 1_555
C5A P3A 1_555 1_555
H5A C5A 1_555 1_555
H6A C5A 1_555 1_555
C6A O4A 1_555 1_555
Zn2 O15A 1_555 1_555
P1 O11 1_555 1_555
P1 O18 1_555 1_555
P2 O10 1_555 1_555
P3 O12 1_555 1_555
O7 U1A_2 1_555 1_555
O13 U2A_2 1_555 1_555
O17 Zn2A 1_555 1_555
O20 C2 1_555 1_555
C1 C2 1_555 1_555
C3 C4 1_555 1_555
Zn2A O14A 1_555 1_555
Zn2A O18A_2 1_555 1_555
Zn2_2 O17A_2 1_555 1_555
Zn3_2 O17A 1_555 1_555
Zn3_2 O18_2 1_555 1_555
P1A O11A 1_555 1_555
P1A O18A 1_555 1_555
P2A O10A 1_555 1_555
P2A O14A 1_555 1_555
P3A O13A 1_555 1_555
O7A C6A 1_555 1_555
O20A C2A 1_555 1_555
C1A C2A 1_555 1_555
C3A C4A 1_555 1_555
C5A C6A 1_555 1_555

#END
