
#######################################################################
#
#                 Cambridge Crystallographic Data Centre
#                                CCDC 
#
#######################################################################
#
# If this CIF has been generated from an entry in the Cambridge 
# Structural Database, then it will include bibliographic, chemical, 
# crystal, experimental, refinement or atomic coordinate data resulting 
# from the CCDC's data processing and validation procedures.
#
#######################################################################

data_KUNLUB
_symmetry_cell_setting           monoclinic
_symmetry_space_group_name_H-M   'C 2/c'
_symmetry_Int_Tables_number      15
_space_group_name_Hall           '-C 2yn'
loop_
_symmetry_equiv_pos_site_id
_symmetry_equiv_pos_as_xyz
1 x,y,z
2 -x,y,1/2-z
3 1/2+x,1/2+y,z
4 1/2-x,1/2+y,1/2-z
5 -x,-y,-z
6 x,-y,1/2+z
7 1/2-x,1/2-y,-z
8 1/2+x,1/2-y,1/2+z
_cell_length_a                   24.4293(9)
_cell_length_b                   6.5340(3)
_cell_length_c                   15.6944(6)
_cell_angle_alpha                90
_cell_angle_beta                 111.6550(10)
_cell_angle_gamma                90
_cell_volume                     2328.35
loop_
_atom_site_label
_atom_site_type_symbol
_atom_site_fract_x
_atom_site_fract_y
_atom_site_fract_z
Mn1 Mn 0.251898(10) 0.78171(4) 0.248954(17)
C1 C 0.29119(7) 1.0408(2) 0.11689(12)
C2 C 0.33174(9) 1.0776(3) 0.06446(15)
H1 H 0.3077 1.1097 0.0013
H2 H 0.3559 1.1965 0.0904
C3 C 0.42881(9) 0.9183(3) 0.11396(14)
H3 H 0.4436 1.0295 0.1527
C4 C 0.34833(8) 0.7414(3) 0.01249(13)
H4 H 0.3078 0.7301 -0.0182
C5 C 0.38473(8) 0.5900(3) 0.00371(13)
H5 H 0.3688 0.4768 -0.0330
C6 C 0.46629(8) 0.7698(3) 0.10736(15)
H6 H 0.5063 0.7795 0.1421
C7 C 0.44512(8) 0.6050(3) 0.04934(13)
C8 C 0.48632(11) 0.4539(3) 0.03216(18)
H7 H 0.4649 0.3305 0.0051
H8 H 0.5172 0.4172 0.0898
N1 N 0.19013(6) 0.5335(2) 0.17144(11)
N2 N 0.13905(8) 0.5319(3) 0.15607(14)
N3 N 0.08958(10) 0.5323(5) 0.1393(3)
N4 N 0.18300(6) 1.0276(2) 0.21631(11)
N5 N 0.14300(7) 1.0217(2) 0.24234(12)
N6 N 0.10422(10) 1.0168(4) 0.2669(2)
N7 N 0.37068(6) 0.9055(2) 0.06499(10)
O1 O 0.28302(5) 0.86306(18) 0.13803(8)
O2 O 0.26879(6) 1.20181(19) 0.13192(9)
Mn1C Mn 0.248102(10) 1.28171(4) 0.251046(17)
Mn1C_2 Mn 0.248102(10) 0.28171(4) 0.251046(17)
Mn1G Mn 0.751898(10) -0.28171(4) -0.251046(17)
Mn1D Mn 0.748102(10) 0.21829(4) -0.248954(17)
C1D C 0.70881(7) -0.0408(2) -0.11689(12)
C2D C 0.66826(9) -0.0776(3) -0.06446(15)
H1D H 0.6923 -0.1097 -0.0013
H2D H 0.6441 -0.1965 -0.0904
C3D C 0.57119(9) 0.0817(3) -0.11396(14)
H3D H 0.5564 -0.0295 -0.1527
C4D C 0.65167(8) 0.2586(3) -0.01249(13)
H4D H 0.6922 0.2699 0.0182
C5D C 0.61527(8) 0.4100(3) -0.00371(13)
H5D H 0.6312 0.5232 0.0330
C6D C 0.53371(8) 0.2302(3) -0.10736(15)
H6D H 0.4937 0.2205 -0.1421
C7D C 0.55488(8) 0.3950(3) -0.04934(13)
C8D C 0.51368(11) 0.5461(3) -0.03216(18)
H7D H 0.5351 0.6695 -0.0051
H8D H 0.4828 0.5828 -0.0898
N1C N 0.30987(6) 1.0335(2) 0.32856(11)
N1_2 N 0.19013(6) 1.5335(2) 0.17144(11)
N2C N 0.36095(8) 1.0319(3) 0.34393(14)
N3C N 0.41042(10) 1.0323(5) 0.3607(3)
N4C N 0.31700(6) 0.5276(2) 0.28369(11)
N4C_2 N 0.31700(6) 1.5276(2) 0.28369(11)
N5C N 0.35700(7) 0.5217(2) 0.25766(12)
N6C N 0.39578(10) 0.5168(4) 0.2331(2)
N7D N 0.62932(6) 0.0945(2) -0.06499(10)
O1D O 0.71698(5) 0.13694(18) -0.13803(8)
O1C O 0.21698(5) 1.36306(18) 0.36197(8)
O2D O 0.73121(6) -0.20181(19) -0.13192(9)
O2C O 0.23121(6) 0.70181(19) 0.36808(9)
O3 O 0.0000 0.7782(4) 0.2500
H9 H 0.0292(13) 0.857(5) 0.252(2)
H9A H -0.0292(13) 0.857(5) 0.248(2)
loop_
_geom_bond_atom_site_label_1
_geom_bond_atom_site_label_2
_geom_bond_site_symmetry_1
_geom_bond_site_symmetry_2
Mn1 N1 1_555 1_555
C1 C2 1_555 1_555
C2 H1 1_555 1_555
H2 C2 1_555 1_555
C3 H3 1_555 1_555
C4 H4 1_555 1_555
C5 C4 1_555 1_555
H5 C5 1_555 1_555
C6 C3 1_555 1_555
H6 C6 1_555 1_555
C7 C5 1_555 1_555
C8 C7 1_555 1_555
H7 C8 1_555 1_555
H8 C8 1_555 1_555
N1 N2 1_555 1_555
N2 N3 1_555 1_555
N4 Mn1 1_555 1_555
N5 N4 1_555 1_555
N6 N5 1_555 1_555
N7 C2 1_555 1_555
O1 Mn1 1_555 1_555
O2 C1 1_555 1_555
O3 H9 1_555 1_555
Mn1C N4 1_555 1_555
Mn1C_2 N1 1_555 1_555
Mn1G O2D 1_555 1_555
Mn1D O1D 1_555 1_555
C1D C2D 1_555 1_555
C2D H1D 1_555 1_555
H2D C2D 1_555 1_555
C3D H3D 1_555 1_555
C4D H4D 1_555 1_555
C5D C4D 1_555 1_555
H5D C5D 1_555 1_555
C6D C3D 1_555 1_555
H6D C6D 1_555 1_555
C7D C5D 1_555 1_555
C8D C8 1_555 1_555
H7D C8D 1_555 1_555
H8D C8D 1_555 1_555
N1C Mn1 1_555 1_555
N1_2 Mn1C 1_555 1_555
N2C N1C 1_555 1_555
N3C N2C 1_555 1_555
N4C Mn1 1_555 1_555
N4C_2 Mn1C 1_555 1_555
N5C N4C 1_555 1_555
N6C N5C 1_555 1_555
N7D C2D 1_555 1_555
O1D C1D 1_555 1_555
O1C Mn1C 1_555 1_555
O2D C1D 1_555 1_555
O2C Mn1 1_555 1_555
H9A O3 1_555 1_555
C1 O1 1_555 1_555
C3 N7 1_555 1_555
C4 N7 1_555 1_555
C6 C7 1_555 1_555
O2 Mn1C 1_555 1_555
Mn1C N1C 1_555 1_555
Mn1C_2 N4C 1_555 1_555
C3D N7D 1_555 1_555
C4D N7D 1_555 1_555
C6D C7D 1_555 1_555
C7D C8D 1_555 1_555

#END
