
#######################################################################
#
#                 Cambridge Crystallographic Data Centre
#                                CCDC 
#
#######################################################################
#
# If this CIF has been generated from an entry in the Cambridge 
# Structural Database, then it will include bibliographic, chemical, 
# crystal, experimental, refinement or atomic coordinate data resulting 
# from the CCDC's data processing and validation procedures.
#
#######################################################################

data_KUNLEL
_symmetry_cell_setting           monoclinic
_symmetry_space_group_name_H-M   'P 21'
_symmetry_Int_Tables_number      4
_space_group_name_Hall           'P 2yb'
loop_
_symmetry_equiv_pos_site_id
_symmetry_equiv_pos_as_xyz
1 x,y,z
2 -x,1/2+y,-z
_cell_length_a                   7.83340(10)
_cell_length_b                   17.2763(4)
_cell_length_c                   9.4450(5)
_cell_angle_alpha                90
_cell_angle_beta                 100.475(2)
_cell_angle_gamma                90
_cell_volume                     1256.91
loop_
_atom_site_label
_atom_site_type_symbol
_atom_site_fract_x
_atom_site_fract_y
_atom_site_fract_z
Zn1 Zn 0.38862(4) 0.326156(16) 0.26230(3)
Zn2 Zn -0.23195(4) 0.250550(15) -0.51019(3)
O1 O -0.0556(2) 0.32906(12) -0.4232(2)
O2 O 0.6736(2) 0.32046(12) 0.2866(2)
O3 O 0.1238(2) 0.32494(14) 0.2820(2)
O4 O 0.5871(3) 0.16761(11) 0.4243(2)
O5 O -0.1799(3) 0.18384(12) -0.3220(2)
O6 O 0.5693(3) -0.10380(11) 0.5662(2)
O7 O 0.1979(3) 0.70454(12) -0.1461(2)
O8 O 0.4170(3) -0.18882(10) 0.4152(2)
C1 C 0.4271(3) -0.05899(14) 0.3368(3)
C2 C 0.3217(3) -0.07532(15) 0.2052(3)
H1 H 0.2911 -0.1273 0.1797
C3 C 0.1302(3) 0.66422(15) -0.2536(3)
O9 O 0.3837(3) 0.21211(12) 0.2445(2)
C4 C 0.4148(3) 0.07704(15) 0.2786(3)
C5 C 0.3044(3) 0.06156(15) 0.1487(3)
H2 H 0.2588 0.1027 0.0863
C6 C 0.0511(4) 0.45076(15) -0.3357(3)
C7 C 0.2261(4) 0.46294(17) -0.0983(3)
C8 C 0.0462(3) 0.53127(15) -0.3489(3)
H3 H -0.0158 0.5545 -0.4341
C9 C 0.1421(4) 0.41697(16) -0.2099(3)
H4 H 0.1465 0.3622 -0.2008
C10 C 0.2198(4) 0.54327(17) -0.1129(3)
H5 H 0.2767 0.5748 -0.0363
C11 C 0.3105(4) 0.4271(2) 0.0419(3)
C12 C 0.2613(3) -0.01547(15) 0.1110(3)
C13 C 0.4768(3) 0.01729(15) 0.3717(3)
H6 H 0.5533 0.0282 0.4595
C14 C 0.1318(3) 0.57778(15) -0.2377(3)
C15 C 0.4661(3) 0.15894(14) 0.3190(3)
O10 O -0.1210(3) 0.43129(11) -0.5681(2)
O11 O 0.0759(4) 0.03015(13) -0.0929(3)
H7 H 0.0100 0.0179 -0.1701
O12 O 0.1087(3) -0.09792(13) -0.0713(2)
O13 O 0.3179(3) 0.35455(14) 0.0522(2)
O14 O 0.3648(4) 0.47037(18) 0.1456(3)
C16 C -0.0497(3) 0.40054(15) -0.4513(3)
C17 C 0.1428(4) -0.03243(16) -0.0272(3)
C18 C 0.4756(3) -0.12215(15) 0.4469(3)
O15 O 0.0629(2) 0.69352(11) -0.3751(2)
H8 H 0.073(4) 0.2869(14) 0.324(3)
H9 H 0.039(3) 0.3515(18) 0.226(3)
H10 H -0.165(5) 0.1328(5) -0.332(4)
H11 H -0.123(4) 0.199(2) -0.2350(17)
H12 H 0.7465 0.3660 0.3262
H13 H 0.7310 0.2982 0.2251
Zn1A Zn 0.61138(4) -0.173844(16) 0.73770(3)
Zn2_2 Zn 0.76805(4) 0.250550(15) 0.48981(3)
Zn2A Zn 0.23195(4) -0.249450(15) 0.51019(3)
Zn2A_2 Zn 0.23195(4) 0.750550(15) -0.48981(3)
O2_2 O -0.3264(2) 0.32046(12) -0.7134(2)
O4_2 O -0.4129(3) 0.16761(11) -0.5757(2)
O6A O 0.4307(3) 0.39620(11) 0.4338(2)
O8A O -0.4170(3) 0.31118(10) -0.4152(2)
O15A O -0.0629(2) 0.19352(11) -0.6249(2)
H12_2 H -0.2535 0.3660 -0.6738
H13_2 H -0.2690 0.2982 -0.7749
O16 O -0.1484(3) 0.01926(13) -0.3300(2)
H14 H -0.2371 0.0019 -0.3017
H15 H -0.1059 -0.0032 -0.3943
O17 O 1.0099(4) 0.23403(14) 0.9331(2)
H16 H 0.9338 0.2280 0.9891
H17 H 1.0340 0.2875 0.9378
O18 O 1.6348(4) 0.53585(16) 1.2942(4)
H18 H 1.7243 0.5081 1.3642
H19 H 1.5528 0.5010 1.2377
N1 N 1.4286(4) 0.18901(18) 0.7145(3)
C19 C 1.2591(5) 0.2154(3) 0.6336(5)
H20 H 1.1657 0.1942 0.6784
H21 H 1.2449 0.1974 0.5338
H22 H 1.2543 0.2721 0.6352
C20 C 1.4641(4) 0.2138(2) 0.8703(3)
H23 H 1.4779 0.2702 0.8758
H24 H 1.5708 0.1890 0.9201
H25 H 1.3667 0.1984 0.9161
H26 H 1.4388 0.1384 0.7416
H27 H 1.5189 0.2032 0.6747
loop_
_geom_bond_atom_site_label_1
_geom_bond_atom_site_label_2
_geom_bond_site_symmetry_1
_geom_bond_site_symmetry_2
Zn1 O2 1_555 1_555
Zn2 O1 1_555 1_555
O1 C16 1_555 1_555
O2 H12 1_555 1_555
O3 Zn1 1_555 1_555
O4 C15 1_555 1_555
O5 Zn2 1_555 1_555
O6 C18 1_555 1_555
O7 C3 1_555 1_555
O8 C18 1_555 1_555
C1 C2 1_555 1_555
C2 H1 1_555 1_555
C3 C14 1_555 1_555
O9 Zn1 1_555 1_555
C4 C5 1_555 1_555
C5 H2 1_555 1_555
C6 C8 1_555 1_555
C7 C9 1_555 1_555
C8 H3 1_555 1_555
C9 C6 1_555 1_555
H4 C9 1_555 1_555
C10 C7 1_555 1_555
H5 C10 1_555 1_555
C11 C7 1_555 1_555
C12 C2 1_555 1_555
C13 C1 1_555 1_555
H6 C13 1_555 1_555
C14 C8 1_555 1_555
C15 O9 1_555 1_555
O10 C16 1_555 1_555
O11 H7 1_555 1_555
O12 C17 1_555 1_555
O13 Zn1 1_555 1_555
O14 C11 1_555 1_555
C16 C6 1_555 1_555
C17 C12 1_555 1_555
C18 C1 1_555 1_555
O15 C3 1_555 1_555
H8 O3 1_555 1_555
H9 O3 1_555 1_555
H10 O5 1_555 1_555
H11 O5 1_555 1_555
H13 O2 1_555 1_555
O16 H14 1_555 1_555
H15 O16 1_555 1_555
O17 H16 1_555 1_555
H17 O17 1_555 1_555
O18 H18 1_555 1_555
H19 O18 1_555 1_555
N1 C19 1_555 1_555
C19 H20 1_555 1_555
H21 C19 1_555 1_555
H22 C19 1_555 1_555
C20 N1 1_555 1_555
H23 C20 1_555 1_555
H24 C20 1_555 1_555
H25 C20 1_555 1_555
H26 N1 1_555 1_555
H27 N1 1_555 1_555
Zn1A O6 1_555 1_555
Zn2_2 O2 1_555 1_555
Zn2A O8 1_555 1_555
Zn2A_2 O15 1_555 1_555
O2_2 Zn2 1_555 1_555
O4_2 Zn2 1_555 1_555
O6A Zn1 1_555 1_555
O8A Zn2 1_555 1_555
O15A Zn2 1_555 1_555
H12_2 O2_2 1_555 1_555
H13_2 O2_2 1_555 1_555
O4 Zn2_2 1_555 1_555
C4 C13 1_555 1_555
C4 C15 1_555 1_555
C5 C12 1_555 1_555
C10 C14 1_555 1_555
C11 O13 1_555 1_555
O11 C17 1_555 1_555

#END
