
#######################################################################
#
#                 Cambridge Crystallographic Data Centre
#                                CCDC 
#
#######################################################################
#
# If this CIF has been generated from an entry in the Cambridge 
# Structural Database, then it will include bibliographic, chemical, 
# crystal, experimental, refinement or atomic coordinate data resulting 
# from the CCDC's data processing and validation procedures.
#
#######################################################################

data_KUNMEM
_symmetry_cell_setting           monoclinic
_symmetry_space_group_name_H-M   'P 21/n'
_symmetry_Int_Tables_number      14
_space_group_name_Hall           '-P 2yn'
loop_
_symmetry_equiv_pos_site_id
_symmetry_equiv_pos_as_xyz
1 x,y,z
2 1/2-x,1/2+y,1/2-z
3 -x,-y,-z
4 1/2+x,1/2-y,1/2+z
_cell_length_a                   5.50210(10)
_cell_length_b                   20.1449(6)
_cell_length_c                   13.0034(3)
_cell_angle_alpha                90
_cell_angle_beta                 92.278(2)
_cell_angle_gamma                90
_cell_volume                     1440.15
loop_
_atom_site_label
_atom_site_type_symbol
_atom_site_fract_x
_atom_site_fract_y
_atom_site_fract_z
Cu1 Cu 0.54345(6) 0.061684(17) 0.59060(3)
Cu2 Cu 1.0000 0.0000 0.5000
C1 C 1.2873(5) 0.16802(15) 0.5185(2)
C2 C 1.0677(6) 0.20217(14) 0.4681(3)
H1 H 1.0611 0.1923 0.3950
H2 H 0.9210 0.1847 0.4971
C3 C 0.9279(6) 0.30323(16) 0.5492(3)
H3 H 0.8191 0.2774 0.5847
C4 C 1.2329(6) 0.31132(16) 0.4307(3)
H4 H 1.3331 0.2911 0.3840
C5 C 1.2478(6) 0.37829(16) 0.4461(3)
H5 H 1.3591 0.4032 0.4104
C6 C 0.9365(6) 0.36974(16) 0.5655(3)
H6 H 0.8323 0.3890 0.6115
C7 C 1.0981(6) 0.40924(15) 0.5145(2)
C8 C 1.1042(6) 0.48299(15) 0.5304(3)
H7 H 1.2582 0.5004 0.5085
H8 H 1.0918 0.4927 0.6030
N1 N 0.4431(5) 0.07225(16) 0.7304(2)
N2 N 0.3106(5) 0.11561(16) 0.7531(2)
N3 N 0.1838(9) 0.1565(2) 0.7797(4)
N4 N 0.8419(4) 0.01257(14) 0.63195(18)
N5 N 0.8948(4) -0.00619(13) 0.7180(2)
N6 N 0.9413(6) -0.02247(19) 0.7996(2)
N7 N 0.6970(4) 0.04661(12) 0.45225(17)
N8 N 0.6563(5) 0.08248(13) 0.3787(2)
N9 N 0.6098(7) 0.11532(19) 0.3110(3)
N10 N 1.0747(4) 0.27427(12) 0.4824(2)
O1 O 1.2610(3) 0.10552(9) 0.52623(16)
O2 O 1.4683(4) 0.19918(11) 0.5468(2)
Cu1B Cu 1.45655(6) -0.061684(17) 0.40940(3)
Cu1B_2 Cu 0.45655(6) -0.061684(17) 0.40940(3)
Cu1_2 Cu 1.54345(6) 0.061684(17) 0.59060(3)
Cu1B_3 Cu 0.45655(6) 0.938316(17) 0.40940(3)
Cu2_2 Cu 1.0000 1.0000 0.5000
C1B C 0.7127(5) 0.83198(15) 0.4815(2)
C2B C 0.9323(6) 0.79783(14) 0.5319(3)
H1B H 0.9389 0.8077 0.6050
H2B H 1.0790 0.8153 0.5029
C3B C 1.0721(6) 0.69677(16) 0.4508(3)
H3B H 1.1809 0.7226 0.4153
C4B C 0.7671(6) 0.68868(16) 0.5693(3)
H4B H 0.6669 0.7089 0.6160
C5B C 0.7522(6) 0.62171(16) 0.5539(3)
H5B H 0.6409 0.5968 0.5896
C6B C 1.0635(6) 0.63026(16) 0.4345(3)
H6B H 1.1677 0.6110 0.3885
C7B C 0.9019(6) 0.59076(15) 0.4855(2)
C8B C 0.8958(6) 0.51701(15) 0.4696(3)
H7B H 0.7418 0.4996 0.4915
H8B H 0.9082 0.5073 0.3970
N1B N 1.5569(5) -0.07225(16) 0.2696(2)
N2B N 1.6894(5) -0.11561(16) 0.2469(2)
N3B N 1.8162(9) -0.1565(2) 0.2203(4)
N4B N 1.1581(4) -0.01257(14) 0.36805(18)
N5B N 1.1052(4) 0.00619(13) 0.2820(2)
N6B N 1.0587(6) 0.02247(19) 0.2004(2)
N7B N 1.3030(4) -0.04661(12) 0.54775(17)
N7B_2 N 0.3030(4) -0.04661(12) 0.54775(17)
N7_2 N 1.6970(4) 0.04661(12) 0.45225(17)
N8B N 1.3437(5) -0.08248(13) 0.6213(2)
N9B N 1.3902(7) -0.11532(19) 0.6890(3)
N10B N 0.9253(4) 0.72573(12) 0.5176(2)
O1B O 0.7390(3) 0.89448(9) 0.47377(16)
O1_2 O 0.2610(3) 0.10552(9) 0.52623(16)
O1B_2 O 0.7390(3) -0.10552(9) 0.47377(16)
O1B_3 O 1.7390(3) -0.10552(9) 0.47377(16)
O2B O 0.5317(4) 0.80082(11) 0.4532(2)
O3 O 0.5000(12) 0.2951(3) 0.7158(4)
loop_
_geom_bond_atom_site_label_1
_geom_bond_atom_site_label_2
_geom_bond_site_symmetry_1
_geom_bond_site_symmetry_2
Cu1 N1 1_555 1_555
Cu2 N4 1_555 1_555
C1 C2 1_555 1_555
C2 H1 1_555 1_555
H2 C2 1_555 1_555
C3 H3 1_555 1_555
C4 H4 1_555 1_555
C5 C4 1_555 1_555
H5 C5 1_555 1_555
C6 C3 1_555 1_555
H6 C6 1_555 1_555
C7 C5 1_555 1_555
C8 C7 1_555 1_555
H7 C8 1_555 1_555
H8 C8 1_555 1_555
N1 N2 1_555 1_555
N2 N3 1_555 1_555
N4 Cu1 1_555 1_555
N5 N4 1_555 1_555
N6 N5 1_555 1_555
N7 Cu1 1_555 1_555
N8 N7 1_555 1_555
N9 N8 1_555 1_555
N10 C2 1_555 1_555
O1 Cu2 1_555 1_555
O2 C1 1_555 1_555
Cu1B N1B 1_555 1_555
Cu1B_2 N7 1_555 1_555
Cu1_2 O1 1_555 1_555
Cu1B_3 O1B 1_555 1_555
Cu2_2 O1B 1_555 1_555
C1B C2B 1_555 1_555
C2B H1B 1_555 1_555
H2B C2B 1_555 1_555
C3B H3B 1_555 1_555
C4B H4B 1_555 1_555
C5B C4B 1_555 1_555
H5B C5B 1_555 1_555
C6B C3B 1_555 1_555
H6B C6B 1_555 1_555
C7B C5B 1_555 1_555
C8B C8 1_555 1_555
H7B C8B 1_555 1_555
H8B C8B 1_555 1_555
N1B N2B 1_555 1_555
N2B N3B 1_555 1_555
N4B Cu2 1_555 1_555
N5B N4B 1_555 1_555
N6B N5B 1_555 1_555
N7B Cu2 1_555 1_555
N7B_2 Cu1 1_555 1_555
N7_2 Cu1B 1_555 1_555
N8B N7B 1_555 1_555
N9B N8B 1_555 1_555
N10B C2B 1_555 1_555
O1B C1B 1_555 1_555
O1_2 Cu1 1_555 1_555
O1B_2 Cu2 1_555 1_555
O1B_3 Cu1B 1_555 1_555
O2B C1B 1_555 1_555
Cu2 N7 1_555 1_555
C1 O1 1_555 1_555
C3 N10 1_555 1_555
C4 N10 1_555 1_555
C6 C7 1_555 1_555
Cu1B N4B 1_555 1_555
Cu1B N7B 1_555 1_555
Cu1B_2 N7B_2 1_555 1_555
Cu1B_2 O1B_2 1_555 1_555
Cu1_2 N7B 1_555 1_555
Cu1_2 N7_2 1_555 1_555
C3B N10B 1_555 1_555
C4B N10B 1_555 1_555
C6B C7B 1_555 1_555
C7B C8B 1_555 1_555

#END
