
#######################################################################
#
#                 Cambridge Crystallographic Data Centre
#                                CCDC 
#
#######################################################################
#
# If this CIF has been generated from an entry in the Cambridge 
# Structural Database, then it will include bibliographic, chemical, 
# crystal, experimental, refinement or atomic coordinate data resulting 
# from the CCDC's data processing and validation procedures.
#
#######################################################################

data_KUNMAI
_symmetry_cell_setting           monoclinic
_symmetry_space_group_name_H-M   'C 2/c'
_symmetry_Int_Tables_number      15
_space_group_name_Hall           '-C 2yn'
loop_
_symmetry_equiv_pos_site_id
_symmetry_equiv_pos_as_xyz
1 x,y,z
2 -x,y,1/2-z
3 1/2+x,1/2+y,z
4 1/2-x,1/2+y,1/2-z
5 -x,-y,-z
6 x,-y,1/2+z
7 1/2-x,1/2-y,-z
8 1/2+x,1/2-y,1/2+z
_cell_length_a                   24.576(3)
_cell_length_b                   6.2640(8)
_cell_length_c                   15.5208(19)
_cell_angle_alpha                90
_cell_angle_beta                 110.691(3)
_cell_angle_gamma                90
_cell_volume                     2235.22
loop_
_atom_site_label
_atom_site_type_symbol
_atom_site_fract_x
_atom_site_fract_y
_atom_site_fract_z
Co1 Co -0.25136(4) -0.77390(11) -0.24884(8)
C1 C -0.2104(3) -0.5336(10) -0.3823(4)
C2 C -0.1740(4) -0.5688(12) -0.4423(6)
H1 H -0.2000 -0.5864 -0.5055
H2 H -0.1525 -0.7010 -0.4236
C3 C -0.0767(4) -0.4251(14) -0.3876(6)
H3 H -0.0646 -0.5438 -0.3496
C4 C -0.1512(3) -0.2262(12) -0.4916(5)
H4 H -0.1906 -0.2083 -0.5249
C5 C -0.1123(3) -0.0728(11) -0.4973(5)
H5 H -0.1254 0.0474 -0.5339
C6 C -0.0368(3) -0.2749(15) -0.3913(6)
H6 H 0.0022 -0.2916 -0.3548
C7 C -0.0538(3) -0.0994(13) -0.4483(5)
C8 C -0.0102(4) 0.0472(16) -0.4622(6)
H7 H 0.0273 -0.1869 -0.5192
H8 H -0.0227 -0.0627 -0.5948
N1 N -0.1943(2) -0.5263(8) -0.1751(4)
N2 N -0.3569(3) -0.0191(9) -0.3411(4)
N3 N -0.4060(3) -0.0135(14) -0.3593(7)
N4 N -0.1866(2) -0.0205(8) -0.2154(4)
N5 N -0.3531(3) -0.5135(9) -0.2574(4)
N6 N -0.3921(3) -0.5053(13) -0.2328(6)
N7 N -0.1333(3) -0.3999(9) -0.4392(4)
O1 O 0.2184(2) 0.3491(7) -0.6404(3)
O2 O -0.2294(2) -0.7045(7) -0.3636(3)
Co1C Co -0.24864(4) -0.27390(11) -0.25116(8)
Co1_2 Co -0.25136(4) 0.22610(11) -0.24884(8)
Co1G Co 0.24864(4) 0.27390(11) -0.74884(8)
Co1D Co 0.25136(4) 0.77390(11) -0.75116(8)
C1D C 0.2104(3) 0.5336(10) -0.6177(4)
C2D C 0.1740(4) 0.5688(12) -0.5577(6)
H1D H 0.2000 0.5864 -0.4945
H2D H 0.1525 0.7010 -0.5764
C3D C 0.0767(4) 0.4251(14) -0.6124(6)
H3D H 0.0646 0.5438 -0.6504
C4D C 0.1512(3) 0.2262(12) -0.5084(5)
H4D H 0.1906 0.2083 -0.4751
C5D C 0.1123(3) 0.0728(11) -0.5027(5)
H5D H 0.1254 -0.0474 -0.4661
C6D C 0.0368(3) 0.2749(15) -0.6087(6)
H6D H -0.0022 0.2916 -0.6452
C7D C 0.0538(3) 0.0994(13) -0.5517(5)
C8D C 0.0102(4) -0.0472(16) -0.5378(6)
H7D H -0.0273 0.1869 -0.4808
H8D H 0.0227 0.0627 -0.4052
N1C N -0.3057(2) -0.0263(8) -0.3249(4)
N1C_2 N -0.3057(2) -1.0263(8) -0.3249(4)
N2C N -0.1431(3) -0.5191(9) -0.1589(4)
N3C N -0.0940(3) -0.5135(14) -0.1407(7)
N4C N -0.3134(2) -0.5205(8) -0.2846(4)
N4_2 N -0.1866(2) -1.0205(8) -0.2154(4)
N5C N -0.1469(3) -0.0135(9) -0.2426(4)
N6C N -0.1079(3) -0.0053(13) -0.2672(6)
N7D N 0.1333(3) 0.3999(9) -0.5608(4)
O1G O -0.2816(2) -0.8491(7) -0.1404(3)
O1D O -0.2184(2) -0.3491(7) -0.3596(3)
O2D O 0.2294(2) 0.7045(7) -0.6364(3)
O2C O -0.2706(2) -0.2045(7) -0.1364(3)
O3 O -1.0000 -0.2209(15) 0.2500
H9 H -0.973(3) -0.139(6) 0.245(9)
H9A H -1.027(3) -0.139(6) 0.255(9)
loop_
_geom_bond_atom_site_label_1
_geom_bond_atom_site_label_2
_geom_bond_site_symmetry_1
_geom_bond_site_symmetry_2
Co1 N1 1_555 1_555
C1 C2 1_555 1_555
C2 H1 1_555 1_555
H2 C2 1_555 1_555
C3 H3 1_555 1_555
C4 H4 1_555 1_555
C5 C4 1_555 1_555
H5 C5 1_555 1_555
C6 C3 1_555 1_555
H6 C6 1_555 1_555
C7 C5 1_555 1_555
C8 C7 1_555 1_555
H7 C8D 1_555 1_555
H8 C8D 1_555 1_555
N1 Co1C 1_555 1_555
N2 N3 1_555 1_555
N4 Co1C 1_555 1_555
N5 N6 1_555 1_555
N7 C2 1_555 1_555
O1 Co1G 1_555 1_555
O2 Co1 1_555 1_555
O3 H9 1_555 1_555
Co1C N1C 1_555 1_555
Co1_2 N4 1_555 1_555
Co1D O2D 1_555 1_555
C1D O1 1_555 1_555
C2D C1D 1_555 1_555
H1D C2D 1_555 1_555
H2D C2D 1_555 1_555
C3D H3D 1_555 1_555
C4D H4D 1_555 1_555
C5D C4D 1_555 1_555
H5D C5D 1_555 1_555
C6D C3D 1_555 1_555
H6D C6D 1_555 1_555
C7D C5D 1_555 1_555
C8D C8 1_555 1_555
H7D C8 1_555 1_555
H8D C8 1_555 1_555
N1C N2 1_555 1_555
N1C_2 Co1 1_555 1_555
N2C N1 1_555 1_555
N3C N2C 1_555 1_555
N4C Co1 1_555 1_555
N4_2 Co1 1_555 1_555
N5C N4 1_555 1_555
N6C N5C 1_555 1_555
N7D C2D 1_555 1_555
O1G Co1 1_555 1_555
O1D C1 1_555 1_555
O2D C1D 1_555 1_555
O2C Co1C 1_555 1_555
H9A O3 1_555 1_555
C1 O2 1_555 1_555
C3 N7 1_555 1_555
C4 N7 1_555 1_555
C6 C7 1_555 1_555
N5 N4C 1_555 1_555
Co1C N4C 1_555 1_555
Co1C O1D 1_555 1_555
Co1_2 N1C 1_555 1_555
C3D N7D 1_555 1_555
C4D N7D 1_555 1_555
C6D C7D 1_555 1_555
C7D C8D 1_555 1_555

#END
