
#######################################################################
#
#                 Cambridge Crystallographic Data Centre
#                                CCDC 
#
#######################################################################
#
# If this CIF has been generated from an entry in the Cambridge 
# Structural Database, then it will include bibliographic, chemical, 
# crystal, experimental, refinement or atomic coordinate data resulting 
# from the CCDC's data processing and validation procedures.
#
#######################################################################

data_KUNNIS01
_symmetry_cell_setting           tetragonal
_symmetry_space_group_name_H-M   'P 43 21 2'
_symmetry_Int_Tables_number      96
_space_group_name_Hall           'P 4nw 2abw'
loop_
_symmetry_equiv_pos_site_id
_symmetry_equiv_pos_as_xyz
1 x,y,z
2 -x,-y,1/2+z
3 1/2-y,1/2+x,3/4+z
4 1/2+y,1/2-x,1/4+z
5 1/2-x,1/2+y,3/4-z
6 1/2+x,1/2-y,1/4-z
7 y,x,-z
8 -y,-x,1/2-z
_cell_length_a                   8.57840(10)
_cell_length_b                   8.57840(10)
_cell_length_c                   27.9769(5)
_cell_angle_alpha                90
_cell_angle_beta                 90
_cell_angle_gamma                90
_cell_volume                     2058.79
loop_
_atom_site_label
_atom_site_type_symbol
_atom_site_fract_x
_atom_site_fract_y
_atom_site_fract_z
Hg1 Hg 0.84655(3) 0.84655(3) 0.0000
I1 I 0.91975(5) 0.90903(5) 0.089641(11)
O1 O 0.9050(5) 0.3821(5) 0.13916(12)
N1 N 0.8266(5) 0.5620(5) 0.00483(14)
N2 N 0.6962(5) 0.2919(5) 0.09835(12)
H1 H 0.6110 0.2396 0.1007
C1 C 0.7943(7) 0.4979(7) 0.04779(16)
H2 H 0.8142 0.5562 0.0751
C2 C 0.7338(6) 0.3516(7) 0.05300(16)
C3 C 0.7065(7) 0.2640(7) 0.01252(16)
H3 H 0.6638 0.1646 0.0148
C4 C 0.7437(7) 0.3268(7) -0.03161(18)
H4 H 0.7293 0.2689 -0.0594
C5 C 0.8018(7) 0.4750(8) -0.03390(17)
H5 H 0.8250 0.5169 -0.0637
C6 C 0.7818(7) 0.3092(7) 0.13853(17)
C7 C 0.7167(8) 0.2292(8) 0.18203(18)
H6 H 0.6039 0.2372 0.1813
H7 H 0.7434 0.1195 0.1806
C8 C 0.7741(7) 0.2943(8) 0.22823(17)
H8 H 0.8862 0.2804 0.2296
H9 H 0.7537 0.4055 0.2285
O1G O 0.6179(5) 0.0950(5) 0.36084(12)
N1G N 0.4380(5) 0.1734(5) 0.49517(14)
N2G N 0.7081(5) 0.3038(5) 0.40165(12)
H1G H 0.7604 0.3890 0.3993
C1G C 0.5021(7) 0.2057(7) 0.45221(16)
H2G H 0.4438 0.1858 0.4249
C2G C 0.6484(7) 0.2662(6) 0.44700(16)
C3G C 0.7360(7) 0.2935(7) 0.48748(16)
H3G H 0.8354 0.3362 0.4852
C4G C 0.6732(7) 0.2563(7) 0.53161(18)
H4G H 0.7311 0.2707 0.5594
C5G C 0.5250(8) 0.1982(7) 0.53390(17)
H5G H 0.4831 0.1750 0.5637
C6G C 0.6908(7) 0.2182(7) 0.36147(17)
C7G C 0.7708(8) 0.2833(8) 0.31797(18)
H6G H 0.7628 0.3961 0.3187
H7G H 0.8805 0.2566 0.3194
C8G C 0.7057(8) 0.2259(7) 0.27177(17)
H8G H 0.7196 0.1138 0.2704
H9G H 0.5945 0.2463 0.2715
I1F I 0.90903(5) 0.91975(5) -0.089641(11)
Hg1A Hg 0.15345(3) 0.15345(3) 0.5000
N1F N 0.5620(5) 0.8266(5) -0.00483(14)
loop_
_geom_bond_atom_site_label_1
_geom_bond_atom_site_label_2
_geom_bond_site_symmetry_1
_geom_bond_site_symmetry_2
Hg1 I1 1_555 1_555
O1 C6 1_555 1_555
N1 Hg1 1_555 1_555
N2 H1 1_555 1_555
C1 N1 1_555 1_555
H2 C1 1_555 1_555
C2 N2 1_555 1_555
C3 C2 1_555 1_555
H3 C3 1_555 1_555
C4 C3 1_555 1_555
H4 C4 1_555 1_555
C5 N1 1_555 1_555
H5 C5 1_555 1_555
C6 N2 1_555 1_555
C7 C6 1_555 1_555
H6 C7 1_555 1_555
H7 C7 1_555 1_555
C8 C7 1_555 1_555
H8 C8 1_555 1_555
H9 C8 1_555 1_555
O1G C6G 1_555 1_555
N1G C1G 1_555 1_555
N2G H1G 1_555 1_555
C1G H2G 1_555 1_555
C2G N2G 1_555 1_555
C3G C2G 1_555 1_555
H3G C3G 1_555 1_555
C4G C3G 1_555 1_555
H4G C4G 1_555 1_555
C5G N1G 1_555 1_555
H5G C5G 1_555 1_555
C6G N2G 1_555 1_555
C7G C6G 1_555 1_555
H6G C7G 1_555 1_555
H7G C7G 1_555 1_555
C8G C8 1_555 1_555
H8G C8G 1_555 1_555
H9G C8G 1_555 1_555
I1F Hg1 1_555 1_555
Hg1A N1G 1_555 1_555
N1F Hg1 1_555 1_555
C1 C2 1_555 1_555
C4 C5 1_555 1_555
C1G C2G 1_555 1_555
C4G C5G 1_555 1_555
C7G C8G 1_555 1_555

#END
