
#######################################################################
#
#                 Cambridge Crystallographic Data Centre
#                                CCDC 
#
#######################################################################
#
# If this CIF has been generated from an entry in the Cambridge 
# Structural Database, then it will include bibliographic, chemical, 
# crystal, experimental, refinement or atomic coordinate data resulting 
# from the CCDC's data processing and validation procedures.
#
#######################################################################

data_KUNPIT
_symmetry_cell_setting           monoclinic
_symmetry_space_group_name_H-M   'P 21/c'
_symmetry_Int_Tables_number      14
_space_group_name_Hall           '-P 2ybc'
loop_
_symmetry_equiv_pos_site_id
_symmetry_equiv_pos_as_xyz
1 x,y,z
2 -x,1/2+y,1/2-z
3 -x,-y,-z
4 x,1/2-y,1/2+z
_cell_length_a                   12.341(3)
_cell_length_b                   11.886(2)
_cell_length_c                   21.485(4)
_cell_angle_alpha                90
_cell_angle_beta                 103.96(3)
_cell_angle_gamma                90
_cell_volume                     3058.45
loop_
_atom_site_label
_atom_site_type_symbol
_atom_site_fract_x
_atom_site_fract_y
_atom_site_fract_z
Bi1 Bi 0.522961(19) 0.43431(2) 0.249030(12)
Bi2 Bi 0.289315(19) 0.27823(2) 0.087916(12)
O1 O 0.6239(4) 0.5023(5) 0.3514(2)
O2 O 0.3322(4) 0.3545(4) 0.2129(2)
O3 O 0.1657(4) 0.3294(5) 0.2338(2)
O4 O 0.6188(4) 0.5927(4) 0.4415(2)
O5 O 0.5401(4) 0.2573(4) 0.2845(2)
O6 O 0.6889(4) 0.5891(4) 0.2402(3)
O7 O 0.8728(4) 0.6122(5) 0.2596(3)
H1 H 0.8555 0.6789 0.2553
O8 O 0.6275(5) 0.0937(5) 0.2870(3)
O9 O 0.4923(4) 0.3346(5) 0.1425(2)
O10 O 0.1918(4) 0.2639(4) -0.0157(2)
O11 O 0.1810(4) 0.2934(5) -0.1194(2)
O12 O 0.6583(5) 0.3815(7) 0.1275(3)
O13 O 0.1343(4) 0.1222(4) 0.0898(3)
O14 O 0.2734(4) 0.4644(4) 0.0724(2)
O15 O -0.0403(5) 0.0910(5) 0.0942(3)
H2 H -0.0253 0.0262 0.0862
O16 O 0.1833(5) 0.6262(5) 0.0731(3)
N1 N 0.4121(4) 0.4497(5) 0.3280(3)
N2 N 0.7184(4) 0.3676(5) 0.2677(3)
N3 N 0.4057(4) 0.3198(4) 0.0162(2)
N4 N 0.1016(4) 0.3460(5) 0.0871(3)
C1 C 0.5753(5) 0.5349(6) 0.3935(3)
C2 C 0.4553(5) 0.5048(6) 0.3825(3)
C3 C 0.3917(6) 0.5333(7) 0.4246(3)
H3 H 0.4232 0.5716 0.4624
C4 C 0.2807(6) 0.5039(8) 0.4098(4)
H4 H 0.2359 0.5207 0.4377
C5 C 0.2365(6) 0.4483(7) 0.3517(4)
H5 H 0.1613 0.4288 0.3404
C6 C 0.3043(5) 0.4227(6) 0.3118(3)
C7 C 0.2628(6) 0.3638(6) 0.2475(3)
C8 C 0.6258(6) 0.1956(6) 0.2826(3)
C9 C 0.7281(6) 0.2567(6) 0.2760(3)
C10 C 0.8292(7) 0.2010(7) 0.2809(4)
H6 H 0.8352 0.1236 0.2872
C11 C 0.9201(7) 0.2650(8) 0.2762(4)
H7 H 0.9889 0.2309 0.2788
C12 C 0.9086(6) 0.3801(7) 0.2676(4)
H8 H 0.9696 0.4244 0.2652
C13 C 0.8061(6) 0.4278(6) 0.2628(3)
C14 C 0.7827(6) 0.5510(7) 0.2526(4)
C15 C 0.5610(6) 0.3533(7) 0.1078(3)
C16 C 0.5139(5) 0.3430(6) 0.0358(3)
C17 C 0.5784(6) 0.3595(7) -0.0074(3)
H9 H 0.6543 0.3748 0.0066
C18 C 0.5277(6) 0.3529(7) -0.0718(3)
H10 H 0.5701 0.3649 -0.1016
C19 C 0.4166(6) 0.3289(6) -0.0930(3)
H11 H 0.3824 0.3234 -0.1365
C20 C 0.3570(6) 0.3132(6) -0.0465(3)
C21 C 0.2332(6) 0.2890(6) -0.0642(3)
C22 C 0.0425(6) 0.1558(7) 0.0922(4)
C23 C 0.0166(6) 0.2800(7) 0.0928(3)
C24 C -0.0822(6) 0.3245(8) 0.0994(4)
H12 H -0.1401 0.2779 0.1043
C25 C -0.0946(7) 0.4412(8) 0.0986(4)
H13 H -0.1612 0.4730 0.1029
C26 C -0.0078(7) 0.5094(8) 0.0915(4)
H14 H -0.0149 0.5873 0.0902
C27 C 0.0898(6) 0.4578(6) 0.0862(3)
C28 C 0.1881(7) 0.5234(7) 0.0768(3)
Bi1A Bi 0.477039(19) -0.06569(2) 0.250970(12)
Bi2A Bi 0.710685(19) 0.77823(2) 0.412084(12)
O4A O 0.3812(4) 0.0927(4) 0.0585(2)
O8A O 0.3725(5) 0.5937(5) 0.2130(3)
O17 O -0.0083(6) 0.8867(6) 0.0729(4)
H15 H 0.035(11) 0.836(11) 0.070(7)
H16 H 0.010(11) 0.909(10) 0.035(6)
O18 O 0.1994(7) 0.8573(6) 0.0538(4)
H17 H 0.251(9) 0.802(8) 0.077(4)
H18 H 0.169(10) 0.917(7) 0.074(4)
loop_
_geom_bond_atom_site_label_1
_geom_bond_atom_site_label_2
_geom_bond_site_symmetry_1
_geom_bond_site_symmetry_2
Bi1 O1 1_555 1_555
Bi2 O2 1_555 1_555
O1 C1 1_555 1_555
O2 Bi1 1_555 1_555
O3 C7 1_555 1_555
O4 C1 1_555 1_555
O5 Bi1 1_555 1_555
O6 Bi1 1_555 1_555
O7 H1 1_555 1_555
O8 C8 1_555 1_555
O9 Bi1 1_555 1_555
O10 Bi2 1_555 1_555
O11 C21 1_555 1_555
O12 C15 1_555 1_555
O13 Bi2 1_555 1_555
O14 Bi2 1_555 1_555
O15 H2 1_555 1_555
O16 C28 1_555 1_555
N1 Bi1 1_555 1_555
N2 Bi1 1_555 1_555
N3 Bi2 1_555 1_555
N4 Bi2 1_555 1_555
C1 C2 1_555 1_555
C2 N1 1_555 1_555
C3 C2 1_555 1_555
H3 C3 1_555 1_555
C4 C3 1_555 1_555
H4 C4 1_555 1_555
C5 C4 1_555 1_555
H5 C5 1_555 1_555
C6 N1 1_555 1_555
C7 O2 1_555 1_555
C8 O5 1_555 1_555
C9 N2 1_555 1_555
C10 C9 1_555 1_555
H6 C10 1_555 1_555
C11 C10 1_555 1_555
H7 C11 1_555 1_555
C12 C11 1_555 1_555
H8 C12 1_555 1_555
C13 N2 1_555 1_555
C14 O6 1_555 1_555
C15 O9 1_555 1_555
C16 N3 1_555 1_555
C17 C16 1_555 1_555
H9 C17 1_555 1_555
C18 C17 1_555 1_555
H10 C18 1_555 1_555
C19 C18 1_555 1_555
H11 C19 1_555 1_555
C20 N3 1_555 1_555
C21 O10 1_555 1_555
C22 O13 1_555 1_555
C23 N4 1_555 1_555
C24 C23 1_555 1_555
H12 C24 1_555 1_555
C25 C24 1_555 1_555
H13 C25 1_555 1_555
C26 C25 1_555 1_555
H14 C26 1_555 1_555
C27 N4 1_555 1_555
C28 O14 1_555 1_555
O17 H15 1_555 1_555
H16 O17 1_555 1_555
O18 H17 1_555 1_555
H18 O18 1_555 1_555
Bi1A O8 1_555 1_555
Bi2A O4 1_555 1_555
O4A Bi2 1_555 1_555
O8A Bi1 1_555 1_555
Bi2 O9 1_555 1_555
O7 C14 1_555 1_555
O15 C22 1_555 1_555
C5 C6 1_555 1_555
C6 C7 1_555 1_555
C8 C9 1_555 1_555
C12 C13 1_555 1_555
C13 C14 1_555 1_555
C15 C16 1_555 1_555
C19 C20 1_555 1_555
C20 C21 1_555 1_555
C22 C23 1_555 1_555
C26 C27 1_555 1_555
C27 C28 1_555 1_555

#END
