
#######################################################################
#
#                 Cambridge Crystallographic Data Centre
#                                CCDC 
#
#######################################################################
#
# If this CIF has been generated from an entry in the Cambridge 
# Structural Database, then it will include bibliographic, chemical, 
# crystal, experimental, refinement or atomic coordinate data resulting 
# from the CCDC's data processing and validation procedures.
#
#######################################################################

data_KUNRAO
_symmetry_cell_setting           orthorhombic
_symmetry_space_group_name_H-M   'P n a 21'
_symmetry_Int_Tables_number      33
_space_group_name_Hall           'P 2c -2n'
loop_
_symmetry_equiv_pos_site_id
_symmetry_equiv_pos_as_xyz
1 x,y,z
2 -x,-y,1/2+z
3 1/2+x,1/2-y,z
4 1/2-x,1/2+y,1/2+z
_cell_length_a                   30.978(6)
_cell_length_b                   12.620(3)
_cell_length_c                   13.339(3)
_cell_angle_alpha                90
_cell_angle_beta                 90
_cell_angle_gamma                90
_cell_volume                     5214.78
loop_
_atom_site_label
_atom_site_type_symbol
_atom_site_fract_x
_atom_site_fract_y
_atom_site_fract_z
Zn1 Zn 0.20299(5) 0.40042(15) 0.10042(13)
O1 O 0.1465(3) 0.4666(9) 0.0663(7)
N1 N 0.2185(4) 0.3836(11) 0.2446(11)
N2 N 0.2162(4) 0.2660(9) 0.0323(10)
N3 N 0.2498(4) 0.5059(10) 0.0614(10)
C1 C 0.1188(4) 0.4046(11) 0.1101(12)
C2 C 0.1959(5) 0.3549(13) 0.3210(13)
C3 C 0.2562(6) 0.4095(14) 0.2866(14)
N4 N 0.2526(4) 0.2384(10) -0.0249(10)
C4 C 0.1944(5) 0.1726(12) 0.0385(16)
O2 O 0.1268(3) 0.3250(9) 0.1523(9)
C5 C 0.0731(5) 0.4448(12) 0.1021(14)
N5 N 0.2162(4) 0.3507(11) 0.4078(11)
H1 H 0.1661 0.3377 0.3151
N6 N 0.2552(4) 0.3904(9) 0.3836(10)
H2 H 0.2802 0.4378 0.2515
C6 C 0.2493(5) 0.1429(12) -0.0503(13)
Zn2 Zn 0.29566(5) 0.34578(17) -0.07311(13)
N7 N 0.2140(4) 0.0961(11) -0.0145(12)
H3 H 0.1685 0.1628 0.0757
C7 C 0.0418(6) 0.4024(15) 0.1631(15)
C8 C 0.0610(5) 0.5230(12) 0.0414(14)
Zn3 Zn 0.19533(5) 0.30376(14) 0.54339(13)
Zn4 Zn 0.30157(6) 0.43654(17) 0.48712(15)
H4 H 0.2699 0.1075 -0.0911
C9 C -0.0004(5) 0.4345(13) 0.1605(13)
H5 H 0.0498 0.3484 0.2091
H6 H 0.0831 0.5538 0.0015
C10 C 0.0188(5) 0.5661(13) 0.0294(14)
N8 N 0.2118(4) 0.1502(9) 0.5441(11)
O3 O 0.1390(4) 0.3635(12) 0.5791(8)
N9 N 0.2388(4) 0.3542(10) 0.6430(11)
O4 O 0.1408(4) -0.0820(15) -0.0912(17)
O5 O 0.1361(4) -0.0200(15) 0.0644(11)
N10 N 0.2210(4) -0.1072(9) 0.1223(10)
H7 H -0.0213 0.4027 0.2031
C11 C -0.0125(5) 0.5167(12) 0.0924(13)
C12 C 0.0070(7) 0.6461(15) -0.0335(16)
C13 C 0.1945(5) 0.0692(12) 0.4939(14)
C14 C 0.2465(5) 0.1044(13) 0.5861(13)
C15 C 0.1186(6) -0.0414(15) -0.0140(17)
C16 C 0.2007(5) -0.1093(13) 0.2069(15)
C17 C -0.0561(5) 0.5562(12) 0.0912(13)
C18 C -0.0344(6) 0.6819(15) -0.0376(16)
H8 H 0.0281 0.6776 -0.0755
N11 N 0.2167(4) -0.0135(10) 0.4968(11)
H9 H 0.1677 0.0739 0.4593
H10 H 0.2661 0.1404 0.6291
C19 C 0.0716(6) -0.0215(14) -0.0306(14)
C20 C 0.2613(5) -0.1596(12) 0.2413(12)
N12 N 0.2244(4) -0.1342(11) 0.2833(11)
H11 H 0.1708 -0.0938 0.2126
C21 C -0.0659(6) 0.6328(14) 0.0246(15)
H12 H -0.0773 0.5291 0.1359
H13 H -0.0421 0.7385 -0.0810
C22 C 0.0513(5) 0.0397(13) 0.0378(15)
C23 C 0.0486(7) -0.0684(18) -0.1119(18)
H14 H 0.2856 -0.1851 0.2776
C24 C -0.1115(6) 0.6794(14) 0.0166(14)
O6 O 0.1419(4) -0.128(2) 0.3965(14)
H15 H 0.0662 0.0624 0.0963
C25 C 0.0068(6) 0.0707(13) 0.0222(14)
H16 H 0.0630 -0.1173 -0.1546
C26 C 0.0063(6) -0.0443(14) -0.1295(15)
O7 O -0.1211(3) 0.7487(11) -0.0426(9)
C27 C -0.0145(5) 0.0208(13) -0.0545(13)
C28 C -0.0145(6) 0.1364(15) 0.0866(17)
H17 H -0.0085 -0.0687 -0.1874
C29 C -0.0588(6) 0.0546(14) -0.0713(15)
H18 H 0.0005 0.1623 0.1436
C30 C -0.0571(8) 0.1674(19) 0.0731(19)
C31 C -0.0786(7) 0.1233(15) -0.0101(17)
H19 H -0.0742 0.0271 -0.1272
H20 H -0.0709 0.2157 0.1173
C32 C -0.1271(9) 0.153(2) -0.026(2)
O8 O -0.1475(4) 0.1966(15) 0.053(2)
Zn4C Zn 0.19843(6) -0.06346(17) -0.01288(15)
N6C N 0.2448(4) -0.1096(9) -0.1164(10)
N9C N 0.2612(4) -0.1458(10) 0.1430(11)
N3C N 0.2502(4) 0.0059(10) 0.5614(10)
Zn3C Zn 0.30467(5) -0.19624(14) 0.04339(13)
Zn2C Zn 0.20434(5) -0.15422(17) 0.42689(13)
Zn1C Zn 0.29701(5) -0.09958(15) 0.60042(13)
N4C N 0.2474(4) -0.2616(10) 0.4751(10)
O3A O -0.1390(4) 0.6365(12) 0.0791(8)
Zn3A Zn -0.19533(5) 0.69624(14) 0.04339(13)
O6A O -0.1419(4) 0.128(2) -0.1035(14)
Zn2B Zn -0.20434(5) 0.15422(17) -0.07311(13)
O9 O 0.1919(10) -0.259(3) -0.018(3)
O10 O 0.1831(5) 0.6232(14) 0.2689(15)
N13 N 0.1094(6) 0.6459(13) 0.2818(14)
C33 C 0.1479(8) 0.6580(19) 0.243(2)
H21 H 0.1486 0.7012 0.1846
C34 C 0.0753(13) 0.696(3) 0.240(3)
H22 H 0.0852 0.7375 0.1822
H23 H 0.0619 0.7425 0.2892
H24 H 0.0542 0.6428 0.2172
C35 C 0.1084(11) 0.587(3) 0.373(3)
H25 H 0.0946 0.6292 0.4255
H26 H 0.1379 0.5690 0.3931
H27 H 0.0919 0.5214 0.3626
N14 N 0.3563(10) 0.767(3) 0.321(3)
O11 O 0.4107(12) 0.702(3) 0.269(3)
C36 C 0.346(4) 0.865(5) 0.340(12)
H28 H 0.3165 0.8679 0.3662
H29 H 0.3475 0.9068 0.2777
H30 H 0.3660 0.8946 0.3891
C37 C 0.3985(13) 0.777(4) 0.323(5)
H31 H 0.4154 0.8283 0.3579
C38 C 0.336(2) 0.702(6) 0.262(8)
H32 H 0.3330 0.7337 0.1953
H33 H 0.3066 0.6897 0.2897
H34 H 0.3513 0.6352 0.2579
O12 O 0.0887(6) 0.1608(13) 0.2711(14)
O13 O 0.1509(9) 0.957(2) 0.702(2)
O14 O 0.1628(14) 0.618(3) 0.770(4)
loop_
_geom_bond_atom_site_label_1
_geom_bond_atom_site_label_2
_geom_bond_site_symmetry_1
_geom_bond_site_symmetry_2
Zn1 O1 1_555 1_555
O1 C1 1_555 1_555
N1 Zn1 1_555 1_555
N2 Zn1 1_555 1_555
N3 Zn1 1_555 1_555
C1 O2 1_555 1_555
C2 N1 1_555 1_555
C3 N1 1_555 1_555
N4 N2 1_555 1_555
C4 N2 1_555 1_555
C5 C1 1_555 1_555
N5 C2 1_555 1_555
H1 C2 1_555 1_555
N6 C3 1_555 1_555
H2 C3 1_555 1_555
C6 N4 1_555 1_555
Zn2 N4 1_555 1_555
N7 C4 1_555 1_555
H3 C4 1_555 1_555
C7 C5 1_555 1_555
C8 C5 1_555 1_555
Zn3 N5 1_555 1_555
Zn4 N6 1_555 1_555
H4 C6 1_555 1_555
C9 C7 1_555 1_555
H5 C7 1_555 1_555
H6 C8 1_555 1_555
C10 C8 1_555 1_555
N8 Zn3 1_555 1_555
O3 Zn3 1_555 1_555
N9 Zn3 1_555 1_555
O4 C15 1_555 1_555
O5 C15 1_555 1_555
N10 C16 1_555 1_555
H7 C9 1_555 1_555
C11 C9 1_555 1_555
C12 C10 1_555 1_555
C13 N8 1_555 1_555
C14 N8 1_555 1_555
C15 C19 1_555 1_555
C16 N12 1_555 1_555
C17 C11 1_555 1_555
C18 C12 1_555 1_555
H8 C12 1_555 1_555
N11 C13 1_555 1_555
H9 C13 1_555 1_555
H10 C14 1_555 1_555
C19 C22 1_555 1_555
C20 N12 1_555 1_555
N12 Zn2C 1_555 1_555
H11 C16 1_555 1_555
C21 C17 1_555 1_555
H12 C17 1_555 1_555
H13 C18 1_555 1_555
C22 H15 1_555 1_555
C23 C19 1_555 1_555
H14 C20 1_555 1_555
C24 C21 1_555 1_555
O6 Zn2C 1_555 1_555
C25 C22 1_555 1_555
H16 C23 1_555 1_555
C26 C23 1_555 1_555
O7 C24 1_555 1_555
C27 C25 1_555 1_555
C28 C25 1_555 1_555
H17 C26 1_555 1_555
C29 C27 1_555 1_555
H18 C28 1_555 1_555
C30 C28 1_555 1_555
C31 C29 1_555 1_555
H19 C29 1_555 1_555
H20 C30 1_555 1_555
C32 C31 1_555 1_555
O8 C32 1_555 1_555
O10 C33 1_555 1_555
N13 C33 1_555 1_555
C33 H21 1_555 1_555
C34 N13 1_555 1_555
H22 C34 1_555 1_555
H23 C34 1_555 1_555
H24 C34 1_555 1_555
C35 N13 1_555 1_555
H25 C35 1_555 1_555
H26 C35 1_555 1_555
H27 C35 1_555 1_555
N14 C36 1_555 1_555
O11 C37 1_555 1_555
C36 H28 1_555 1_555
H29 C36 1_555 1_555
H30 C36 1_555 1_555
C37 N14 1_555 1_555
H31 C37 1_555 1_555
C38 N14 1_555 1_555
H32 C38 1_555 1_555
H33 C38 1_555 1_555
H34 C38 1_555 1_555
Zn4C N7 1_555 1_555
N6C Zn4C 1_555 1_555
N9C N10 1_555 1_555
N3C C14 1_555 1_555
Zn3C N9C 1_555 1_555
Zn2C N11 1_555 1_555
Zn1C N3C 1_555 1_555
N4C Zn2C 1_555 1_555
O3A C24 1_555 1_555
Zn3A O3A 1_555 1_555
O6A C32 1_555 1_555
Zn2B O6A 1_555 1_555
N5 N6 1_555 1_555
C6 N7 1_555 1_555
C10 C11 1_555 1_555
O4 Zn4C 1_555 1_555
O5 Zn4C 1_555 1_555
N10 Zn4C 1_555 1_555
C18 C21 1_555 1_555
N11 N3C 1_555 1_555
C20 N9C 1_555 1_555
C26 C27 1_555 1_555
C30 C31 1_555 1_555

#END
