
#######################################################################
#
#                 Cambridge Crystallographic Data Centre
#                                CCDC 
#
#######################################################################
#
# If this CIF has been generated from an entry in the Cambridge 
# Structural Database, then it will include bibliographic, chemical, 
# crystal, experimental, refinement or atomic coordinate data resulting 
# from the CCDC's data processing and validation procedures.
#
#######################################################################

data_KUNTIW
_symmetry_cell_setting           monoclinic
_symmetry_space_group_name_H-M   'C 2/c'
_symmetry_Int_Tables_number      15
_space_group_name_Hall           '-C 2yn'
loop_
_symmetry_equiv_pos_site_id
_symmetry_equiv_pos_as_xyz
1 x,y,z
2 1/2+x,1/2+y,z
3 -x,y,1/2-z
4 1/2-x,1/2+y,1/2-z
5 -x,-y,-z
6 1/2-x,1/2-y,-z
7 x,-y,1/2+z
8 1/2+x,1/2-y,1/2+z
_cell_length_a                   23.281(1)
_cell_length_b                   5.508(2)
_cell_length_c                   20.5489(6)
_cell_angle_alpha                90
_cell_angle_beta                 90.424(4)
_cell_angle_gamma                90
_cell_volume                     2634.95
loop_
_atom_site_label
_atom_site_type_symbol
_atom_site_fract_x
_atom_site_fract_y
_atom_site_fract_z
Mn1 Mn 0.2500 0.7500 0.5000
P1 P 0.22827(3) 0.2619(1) 0.40480(3)
P2 P 0.11822(3) 0.5352(1) 0.52320(3)
O1 O 0.21788(9) 0.5230(3) 0.42181(9)
O2 O 0.20834(8) 0.0775(3) 0.45508(8)
O3 O 0.16899(8) 0.6720(4) 0.5477(1)
O4 O 0.1246(1) 0.2558(4) 0.5189(1)
C1 C 0.1945(1) 0.1915(5) 0.3282(1)
C2 C 0.2000(1) 0.3532(6) 0.2764(1)
C3 C 0.1752(1) 0.3033(6) 0.2166(1)
C4 C 0.1445(1) 0.0918(6) 0.2080(2)
C5 C 0.1386(1) -0.0702(6) 0.2587(2)
C6 C 0.1639(1) -0.0226(5) 0.3190(1)
C7 C 0.0568(1) 0.5709(6) 0.5739(1)
C8 C 0.0230(2) 0.7745(7) 0.5682(2)
C9 C -0.0242(2) 0.8028(2) 0.6089(2)
C10 C -0.0373(2) 0.6353(9) 0.6540(2)
C11 C -0.0044(2) 0.433(1) 0.6592(2)
C12 C 0.0424(2) 0.3999(8) 0.6195(2)
H1 H 0.285(1) 0.229(5) 0.395(1)
H2 H 0.099(1) 0.622(5) 0.465(1)
H3 H 0.157(2) 0.19(1) 0.497(2)
H4 H 0.2217 0.5040 0.2825
H5 H 0.1794 0.4179 0.1805
H6 H 0.1267 0.0563 0.1657
H7 H 0.1165 -0.2198 0.2522
H8 H 0.1602 -0.1393 0.3547
H9 H 0.0321 0.8989 0.5358
H10 H -0.0483 0.9479 0.6045
H11 H -0.0702 0.6591 0.6827
H12 H -0.0139 0.3088 0.6916
H13 H 0.0657 0.2525 0.6238
P1E P 0.27173(3) 1.2381(1) 0.59520(3)
O1E O 0.28212(9) 0.9770(3) 0.57819(9)
O2E O 0.29166(8) 1.4225(3) 0.54492(8)
C1E C 0.3055(1) 1.3085(5) 0.6718(1)
C2E C 0.3000(1) 1.1468(6) 0.7236(1)
C3E C 0.3248(1) 1.1967(6) 0.7834(1)
C4E C 0.3555(1) 1.4082(6) 0.7920(2)
C5E C 0.3614(1) 1.5702(6) 0.7413(2)
C6E C 0.3361(1) 1.5226(5) 0.6810(1)
H1E H 0.215(1) 1.271(5) 0.605(1)
H4E H 0.2783 0.9960 0.7175
H5E H 0.3206 1.0821 0.8195
H6E H 0.3733 1.4437 0.8343
H7E H 0.3835 1.7198 0.7478
H8E H 0.3398 1.6393 0.6453
P2E P 0.38178(3) 0.9648(1) 0.47680(3)
O3E O 0.33101(8) 0.8280(4) 0.4523(1)
O4E O 0.3754(1) 1.2442(4) 0.4811(1)
C7E C 0.4432(1) 0.9291(6) 0.4261(1)
C8E C 0.4770(2) 0.7255(7) 0.4318(2)
C9E C 0.5242(2) 0.6972(2) 0.3911(2)
C10E C 0.5373(2) 0.8647(9) 0.3460(2)
C11E C 0.5044(2) 1.067(1) 0.3408(2)
C12E C 0.4576(2) 1.1001(8) 0.3805(2)
H2E H 0.401(1) 0.878(5) 0.535(1)
H3E H 0.343(2) 1.31(1) 0.503(2)
H9E H 0.4679 0.6011 0.4642
H10E H 0.5483 0.5521 0.3955
H11E H 0.5702 0.8409 0.3173
H12E H 0.5139 1.1912 0.3084
H13E H 0.4343 1.2475 0.3762
O2_2 O 0.20834(8) 1.0775(3) 0.45508(8)
O2E_2 O 0.29166(8) 0.4225(3) 0.54492(8)
Mn1_2 Mn 0.2500 -0.2500 0.5000
Mn1_3 Mn 0.2500 1.7500 0.5000
loop_
_geom_bond_atom_site_label_1
_geom_bond_atom_site_label_2
_geom_bond_site_symmetry_1
_geom_bond_site_symmetry_2
Mn1 O1 1_555 1_555
P1 O1 1_555 1_555
P2 O3 1_555 1_555
O2 P1 1_555 1_555
O3 Mn1 1_555 1_555
O4 P2 1_555 1_555
C1 P1 1_555 1_555
C2 C1 1_555 1_555
C3 C2 1_555 1_555
C4 C3 1_555 1_555
C5 C4 1_555 1_555
C6 C1 1_555 1_555
C7 P2 1_555 1_555
C8 C7 1_555 1_555
C9 C8 1_555 1_555
C10 C9 1_555 1_555
C11 C10 1_555 1_555
C12 C7 1_555 1_555
H1 P1 1_555 1_555
H2 P2 1_555 1_555
H3 O4 1_555 1_555
H4 C2 1_555 1_555
H5 C3 1_555 1_555
H6 C4 1_555 1_555
H7 C5 1_555 1_555
H8 C6 1_555 1_555
H9 C8 1_555 1_555
H10 C9 1_555 1_555
H11 C10 1_555 1_555
H12 C11 1_555 1_555
H13 C12 1_555 1_555
P1E O1E 1_555 1_555
O1E Mn1 1_555 1_555
O2E P1E 1_555 1_555
C1E P1E 1_555 1_555
C2E C1E 1_555 1_555
C3E C2E 1_555 1_555
C4E C3E 1_555 1_555
C5E C4E 1_555 1_555
C6E C1E 1_555 1_555
H1E P1E 1_555 1_555
H4E C2E 1_555 1_555
H5E C3E 1_555 1_555
H6E C4E 1_555 1_555
H7E C5E 1_555 1_555
H8E C6E 1_555 1_555
P2E O3E 1_555 1_555
O3E Mn1 1_555 1_555
O4E P2E 1_555 1_555
C7E P2E 1_555 1_555
C8E C7E 1_555 1_555
C9E C8E 1_555 1_555
C10E C9E 1_555 1_555
C11E C10E 1_555 1_555
C12E C7E 1_555 1_555
H2E P2E 1_555 1_555
H3E O4E 1_555 1_555
H9E C8E 1_555 1_555
H10E C9E 1_555 1_555
H11E C10E 1_555 1_555
H12E C11E 1_555 1_555
H13E C12E 1_555 1_555
O2_2 Mn1 1_555 1_555
O2E_2 Mn1 1_555 1_555
Mn1_2 O2 1_555 1_555
Mn1_3 O2E 1_555 1_555
C5 C6 1_555 1_555
C11 C12 1_555 1_555
C5E C6E 1_555 1_555
C11E C12E 1_555 1_555

#END
