
#######################################################################
#
#                 Cambridge Crystallographic Data Centre
#                                CCDC 
#
#######################################################################
#
# If this CIF has been generated from an entry in the Cambridge 
# Structural Database, then it will include bibliographic, chemical, 
# crystal, experimental, refinement or atomic coordinate data resulting 
# from the CCDC's data processing and validation procedures.
#
#######################################################################

data_KUNVIZ
_symmetry_cell_setting           monoclinic
_symmetry_space_group_name_H-M   'P 21/c'
_symmetry_Int_Tables_number      14
_space_group_name_Hall           '-P 2ybc'
loop_
_symmetry_equiv_pos_site_id
_symmetry_equiv_pos_as_xyz
1 x,y,z
2 -x,1/2+y,1/2-z
3 -x,-y,-z
4 x,1/2-y,1/2+z
_cell_length_a                   12.4029(10)
_cell_length_b                   8.4508(7)
_cell_length_c                   23.2981(16)
_cell_angle_alpha                90
_cell_angle_beta                 113.841(3)
_cell_angle_gamma                90
_cell_volume                     2233.6
loop_
_atom_site_label
_atom_site_type_symbol
_atom_site_fract_x
_atom_site_fract_y
_atom_site_fract_z
C1 C -0.3289(3) 0.2865(4) -0.65576(16)
C2 C -0.2364(4) 0.3424(4) -0.60035(17)
H1 H -0.2385 0.3248 -0.5614
C3 C -0.1452(3) 0.4213(6) -0.60452(19)
H2 H -0.0854 0.4592 -0.5681
C4 C -0.1381(4) 0.4476(5) -0.66203(19)
H3 H -0.0732 0.4995 -0.6635
C5 C -0.2277(3) 0.3964(5) -0.71645(17)
H4 H -0.2244 0.4166 -0.7550
C6 C -0.3242(3) 0.3135(4) -0.71419(16)
C7 C -0.4181(3) 0.2547(4) -0.77137(15)
C8 C -0.5069(4) 0.1654(4) -0.76390(17)
H5 H -0.5654 0.1183 -0.7986
C9 C -0.5080(3) 0.1473(4) -0.70617(18)
H6 H -0.5702 0.0916 -0.7032
C10 C -0.4358(4) 0.1891(4) -0.59339(18)
H7 H -0.3618 0.1505 -0.5620
H8 H -0.4958 0.1104 -0.5981
C11 C -0.4682(3) 0.3419(4) -0.56985(15)
C12 C 0.0242(3) -0.0179(4) -0.34938(17)
C13 C 0.0121(4) 0.0505(5) -0.40603(19)
H9 H -0.0596 0.0440 -0.4407
C14 C 0.1052(5) 0.1272(7) -0.4108(2)
H10 H 0.0965 0.1716 -0.4489
C15 C 0.2135(5) 0.1400(6) -0.3589(3)
H11 H 0.2768 0.1903 -0.3630
C16 C 0.2258(4) 0.0787(5) -0.3030(2)
H12 H 0.2974 0.0894 -0.2686
C17 C 0.1320(3) -0.0010(4) -0.29582(17)
C18 C 0.1457(3) -0.0662(4) -0.23571(17)
C19 C 0.0481(4) -0.1472(5) -0.2344(2)
H13 H 0.0521 -0.1909 -0.1969
C20 C -0.0528(4) -0.1628(4) -0.2875(2)
H14 H -0.1158 -0.2174 -0.2849
C21 C -0.1813(3) -0.1167(5) -0.3955(2)
H15 H -0.2199 -0.2118 -0.3900
H16 H -0.1709 -0.1271 -0.4344
C22 C -0.2598(3) 0.0246(4) -0.40032(17)
Eu1 Eu -0.375610(14) 0.325690(19) -0.404700(7)
N1 N -0.4243(3) 0.2055(3) -0.65316(13)
N2 N -0.0659(3) -0.1031(4) -0.34347(15)
N3 N -0.2092(3) 0.4957(4) -0.44995(15)
O1 O -0.4502(3) 0.3419(3) -0.51386(12)
O2 O -0.5131(2) 0.4522(3) -0.60722(11)
O3 O -0.4174(2) 0.2851(3) -0.82472(11)
O4 O -0.2226(2) 0.1267(3) -0.35793(12)
O5 O -0.3578(2) 0.0337(3) -0.44528(13)
O6 O 0.2410(2) -0.0478(3) -0.18780(13)
O7 O -0.2919(3) 0.5621(3) -0.43983(15)
O8 O -0.1962(3) 0.3504(4) -0.43766(16)
O9 O -0.1532(3) 0.5701(4) -0.47212(18)
O10 O -0.5818(2) 0.2104(3) -0.45559(13)
H17 H -0.6258 0.2831 -0.4749
H18 H -0.5891 0.1374 -0.4802
Eu1C Eu -0.375610(14) 0.174310(19) -0.904700(7)
Eu1B Eu -0.624390(14) 0.674310(19) -0.595300(7)
Eu1A Eu 0.375610(14) -0.174310(19) -0.095300(7)
O2B O -0.4869(2) 0.5478(3) -0.39278(11)
O3C O -0.4174(2) 0.2149(3) -0.32472(11)
O6A O -0.2410(2) 0.4522(3) -0.31220(13)
loop_
_geom_bond_atom_site_label_1
_geom_bond_atom_site_label_2
_geom_bond_site_symmetry_1
_geom_bond_site_symmetry_2
C1 C2 1_555 1_555
C2 H1 1_555 1_555
C3 C2 1_555 1_555
H2 C3 1_555 1_555
C4 C3 1_555 1_555
H3 C4 1_555 1_555
C5 C4 1_555 1_555
H4 C5 1_555 1_555
C6 C1 1_555 1_555
C7 C6 1_555 1_555
C8 C7 1_555 1_555
H5 C8 1_555 1_555
C9 C8 1_555 1_555
H6 C9 1_555 1_555
C10 H7 1_555 1_555
H8 C10 1_555 1_555
C11 C10 1_555 1_555
C12 C13 1_555 1_555
C13 H9 1_555 1_555
C14 C13 1_555 1_555
H10 C14 1_555 1_555
C15 C14 1_555 1_555
H11 C15 1_555 1_555
C16 C15 1_555 1_555
H12 C16 1_555 1_555
C17 C12 1_555 1_555
C18 C17 1_555 1_555
C19 C18 1_555 1_555
H13 C19 1_555 1_555
C20 C19 1_555 1_555
H14 C20 1_555 1_555
C21 H15 1_555 1_555
H16 C21 1_555 1_555
C22 C21 1_555 1_555
Eu1 O1 1_555 1_555
N1 C1 1_555 1_555
N2 C12 1_555 1_555
N3 O7 1_555 1_555
O1 C11 1_555 1_555
O2 C11 1_555 1_555
O3 C7 1_555 1_555
O4 C22 1_555 1_555
O5 C22 1_555 1_555
O6 C18 1_555 1_555
O7 Eu1 1_555 1_555
O8 Eu1 1_555 1_555
O9 N3 1_555 1_555
O10 Eu1 1_555 1_555
H17 O10 1_555 1_555
H18 O10 1_555 1_555
Eu1C O3 1_555 1_555
Eu1B O2 1_555 1_555
Eu1A O6 1_555 1_555
O2B Eu1 1_555 1_555
O3C Eu1 1_555 1_555
O6A Eu1 1_555 1_555
C5 C6 1_555 1_555
C9 N1 1_555 1_555
C10 N1 1_555 1_555
C16 C17 1_555 1_555
C20 N2 1_555 1_555
C21 N2 1_555 1_555
Eu1 O4 1_555 1_555
Eu1 O5 1_555 1_555
N3 O8 1_555 1_555

#END
