
#######################################################################
#
#                 Cambridge Crystallographic Data Centre
#                                CCDC 
#
#######################################################################
#
# If this CIF has been generated from an entry in the Cambridge 
# Structural Database, then it will include bibliographic, chemical, 
# crystal, experimental, refinement or atomic coordinate data resulting 
# from the CCDC's data processing and validation procedures.
#
#######################################################################

data_KUNVEV
_symmetry_cell_setting           monoclinic
_symmetry_space_group_name_H-M   'P 21/c'
_symmetry_Int_Tables_number      14
_space_group_name_Hall           '-P 2ybc'
loop_
_symmetry_equiv_pos_site_id
_symmetry_equiv_pos_as_xyz
1 x,y,z
2 -x,1/2+y,1/2-z
3 -x,-y,-z
4 x,1/2-y,1/2+z
_cell_length_a                   12.4600(8)
_cell_length_b                   8.4616(5)
_cell_length_c                   23.4644(12)
_cell_angle_alpha                90
_cell_angle_beta                 113.762(3)
_cell_angle_gamma                90
_cell_volume                     2264.17
loop_
_atom_site_label
_atom_site_type_symbol
_atom_site_fract_x
_atom_site_fract_y
_atom_site_fract_z
C1 C 0.3289(3) 0.2173(4) 0.15643(14)
C2 C 0.2371(3) 0.1600(4) 0.10168(15)
H1 H 0.2404 0.1754 0.0632
C3 C 0.1456(3) 0.0837(5) 0.10510(17)
H2 H 0.0848 0.0498 0.0687
C4 C 0.1403(3) 0.0541(5) 0.16268(18)
H3 H 0.0769 -0.0007 0.1644
C5 C 0.2286(3) 0.1061(4) 0.21637(16)
H4 H 0.2249 0.0860 0.2545
C6 C 0.3245(3) 0.1895(4) 0.21451(14)
C7 C 0.4172(3) 0.2484(4) 0.27115(14)
C8 C 0.5052(3) 0.3383(4) 0.26349(16)
H5 H 0.5633 0.3848 0.2981
C9 C 0.5068(3) 0.3583(4) 0.20654(16)
H6 H 0.5685 0.4147 0.2036
C10 C 0.4372(3) 0.3139(4) 0.09519(15)
H7 H 0.4966 0.3929 0.1000
H8 H 0.3640 0.3512 0.0633
C11 C 0.4712(3) 0.1624(4) 0.07329(14)
C12 C -0.0263(3) 0.5211(4) -0.15284(16)
C13 C -0.0164(4) 0.4518(5) -0.09659(18)
H9 H 0.0536 0.4597 -0.0615
C14 C -0.1094(5) 0.3728(6) -0.0932(2)
H10 H -0.1015 0.3274 -0.0556
C15 C -0.2164(4) 0.3589(5) -0.1451(2)
H11 H -0.2800 0.3089 -0.1417
C16 C -0.2259(4) 0.4196(4) -0.20065(19)
H12 H -0.2956 0.4068 -0.2356
C17 C -0.1322(3) 0.5011(4) -0.20609(15)
C18 C -0.1432(3) 0.5658(4) -0.26556(16)
C19 C -0.0458(3) 0.6497(4) -0.26575(18)
H13 H -0.0487 0.6939 -0.3026
C20 C 0.0522(3) 0.6664(4) -0.21256(19)
H14 H 0.1147 0.7229 -0.2145
C21 C 0.1790(3) 0.6195(4) -0.10514(18)
H15 H 0.1676 0.6297 -0.0668
H16 H 0.2183 0.7142 -0.1101
C22 C 0.2560(3) 0.4774(4) -0.10051(15)
N1 N 0.4231(3) 0.3001(3) 0.15389(12)
N2 N 0.0644(2) 0.6068(3) -0.15755(14)
N3 N 0.2078(3) 0.0073(4) -0.04747(13)
O1 O 0.4564(2) 0.1598(3) 0.01792(10)
O2 O 0.5143(2) 0.0526(3) 0.11083(11)
O3 O 0.4176(2) 0.2170(3) 0.32403(10)
O4 O 0.2215(2) 0.3777(3) -0.14272(10)
O5 O 0.3530(2) 0.4685(3) -0.05443(11)
O6 O -0.2358(2) 0.5449(3) -0.31402(11)
O7 O 0.2911(2) -0.0627(3) -0.05565(12)
O8 O 0.1958(3) 0.1518(3) -0.05954(13)
O9 O 0.1471(3) -0.0653(4) -0.02701(15)
O10 O 0.5866(2) 0.2931(3) -0.04292(11)
H17 H 0.6282 0.2196 -0.0229
H18 H 0.5913 0.3626 -0.0177
Pr1 Pr 0.376580(15) 0.174560(19) -0.093330(7)
O2B O 0.4857(2) -0.0526(3) -0.11083(11)
O3C O 0.4176(2) 0.2830(3) -0.17597(10)
O6A O 0.2358(2) 0.0449(3) -0.18598(11)
Pr1B Pr 0.623420(15) -0.174560(19) 0.093330(7)
Pr1C Pr 0.376580(15) 0.325440(19) 0.406670(7)
Pr1A Pr -0.376580(15) 0.674560(19) -0.406670(7)
loop_
_geom_bond_atom_site_label_1
_geom_bond_atom_site_label_2
_geom_bond_site_symmetry_1
_geom_bond_site_symmetry_2
C1 C2 1_555 1_555
C2 H1 1_555 1_555
C3 C2 1_555 1_555
H2 C3 1_555 1_555
C4 C3 1_555 1_555
H3 C4 1_555 1_555
C5 C4 1_555 1_555
H4 C5 1_555 1_555
C6 C1 1_555 1_555
C7 C6 1_555 1_555
C8 C7 1_555 1_555
H5 C8 1_555 1_555
C9 C8 1_555 1_555
H6 C9 1_555 1_555
C10 H7 1_555 1_555
H8 C10 1_555 1_555
C11 C10 1_555 1_555
C12 C13 1_555 1_555
C13 H9 1_555 1_555
C14 C13 1_555 1_555
H10 C14 1_555 1_555
C15 C14 1_555 1_555
H11 C15 1_555 1_555
C16 C15 1_555 1_555
H12 C16 1_555 1_555
C17 C12 1_555 1_555
C18 C17 1_555 1_555
C19 C18 1_555 1_555
H13 C19 1_555 1_555
C20 C19 1_555 1_555
H14 C20 1_555 1_555
C21 H15 1_555 1_555
H16 C21 1_555 1_555
C22 C21 1_555 1_555
N1 C1 1_555 1_555
N2 C12 1_555 1_555
N3 O7 1_555 1_555
O1 C11 1_555 1_555
O2 C11 1_555 1_555
O3 C7 1_555 1_555
O4 C22 1_555 1_555
O5 C22 1_555 1_555
O6 C18 1_555 1_555
O7 Pr1 1_555 1_555
O8 N3 1_555 1_555
O9 N3 1_555 1_555
O10 H17 1_555 1_555
H18 O10 1_555 1_555
Pr1 O1 1_555 1_555
O2B Pr1 1_555 1_555
O3C Pr1 1_555 1_555
O6A Pr1 1_555 1_555
Pr1B O2 1_555 1_555
Pr1C O3 1_555 1_555
Pr1A O6 1_555 1_555
C5 C6 1_555 1_555
C9 N1 1_555 1_555
C10 N1 1_555 1_555
C16 C17 1_555 1_555
C20 N2 1_555 1_555
C21 N2 1_555 1_555
O4 Pr1 1_555 1_555
O5 Pr1 1_555 1_555
O8 Pr1 1_555 1_555
O10 Pr1 1_555 1_555

#END
