
#######################################################################
#
#                 Cambridge Crystallographic Data Centre
#                                CCDC 
#
#######################################################################
#
# If this CIF has been generated from an entry in the Cambridge 
# Structural Database, then it will include bibliographic, chemical, 
# crystal, experimental, refinement or atomic coordinate data resulting 
# from the CCDC's data processing and validation procedures.
#
#######################################################################

data_KUNVAR
_symmetry_cell_setting           triclinic
_symmetry_space_group_name_H-M   'P -1'
_symmetry_Int_Tables_number      2
_space_group_name_Hall           '-P 1'
loop_
_symmetry_equiv_pos_site_id
_symmetry_equiv_pos_as_xyz
1 x,y,z
2 -x,-y,-z
_cell_length_a                   10.247(2)
_cell_length_b                   11.672(2)
_cell_length_c                   14.180(3)
_cell_angle_alpha                67.53(2)
_cell_angle_beta                 82.10(2)
_cell_angle_gamma                77.83(3)
_cell_volume                     1528.95
loop_
_atom_site_label
_atom_site_type_symbol
_atom_site_fract_x
_atom_site_fract_y
_atom_site_fract_z
C1 C 0.9550(4) 0.1417(4) 0.0773(3)
C2 C 1.0575(5) 0.0381(4) 0.0997(3)
H1 H 1.1456 0.0484 0.0783
C3 C 1.0272(6) -0.0800(5) 0.1539(4)
H2 H 1.0958 -0.1494 0.1689
C4 C 0.8965(6) -0.0979(5) 0.1868(4)
H3 H 0.8778 -0.1784 0.2231
C5 C 0.7953(5) 0.0041(5) 0.1653(4)
H4 H 0.7080 -0.0081 0.1882
C6 C 0.8201(4) 0.1263(4) 0.1098(3)
C7 C 0.7139(4) 0.2339(5) 0.0875(3)
C8 C 0.7510(4) 0.3516(5) 0.0288(4)
H5 H 0.6857 0.4236 0.0125
C9 C 0.8784(5) 0.3617(5) -0.0039(4)
H6 H 0.8976 0.4411 -0.0442
C10 C 1.1168(4) 0.2834(5) -0.0209(3)
H7 H 1.1118 0.3647 -0.0764
H8 H 1.1581 0.2198 -0.0493
C11 C 1.2066(4) 0.2797(4) 0.0576(3)
C12 C -0.1008(4) 0.1831(4) 0.4600(3)
C13 C -0.1928(5) 0.2272(5) 0.5264(3)
H9 H -0.2795 0.2103 0.5377
C14 C -0.1541(5) 0.2960(5) 0.5751(4)
H10 H -0.2141 0.3215 0.6217
C15 C -0.0266(6) 0.3279(5) 0.5554(4)
H11 H -0.0020 0.3749 0.5881
C16 C 0.0613(5) 0.2893(5) 0.4878(4)
H12 H 0.1452 0.3129 0.4730
C17 C 0.0280(4) 0.2151(4) 0.4403(3)
C18 C 0.1245(4) 0.1709(4) 0.3720(3)
C19 C 0.0847(4) 0.0897(4) 0.3335(3)
H13 H 0.1457 0.0541 0.2931
C20 C -0.0421(4) 0.0622(4) 0.3543(3)
H14 H -0.0661 0.0107 0.3255
C21 C -0.2707(4) 0.0837(4) 0.4215(4)
H15 H -0.3098 0.0686 0.4905
H16 H -0.2677 0.0086 0.4066
C22 C -0.3590(4) 0.1946(5) 0.3465(3)
C23 C 0.5375(4) -0.3012(4) 0.2792(4)
C24 C 0.5957(6) -0.4091(5) 0.3561(4)
H17 H 0.6154 -0.4861 0.3474
C25 C 0.6238(6) -0.3999(6) 0.4451(5)
H18 H 0.6644 -0.4717 0.4957
C26 C 0.5936(6) -0.2878(7) 0.4620(4)
H19 H 0.6114 -0.2851 0.5236
C27 C 0.5375(5) -0.1814(5) 0.3873(4)
H20 H 0.5205 -0.1051 0.3971
C28 C 0.5049(4) -0.1853(4) 0.2951(3)
C29 C 0.4401(4) -0.0734(4) 0.2184(4)
C30 C 0.4229(5) -0.0828(4) 0.1246(4)
H21 H 0.3892 -0.0113 0.0706
C31 C 0.4554(4) -0.1959(4) 0.1129(4)
H22 H 0.4409 -0.1998 0.0509
C32 C 0.5166(5) -0.4223(4) 0.1706(4)
H23 H 0.5894 -0.4836 0.2077
H24 H 0.5358 -0.4080 0.0985
C33 C 0.3870(6) -0.4737(5) 0.2068(4)
Gd1 Gd 0.389733(15) 0.233676(14) 0.209094(12)
N1 N 0.9813(3) 0.2629(4) 0.0182(3)
N2 N -0.1328(4) 0.1074(4) 0.4152(3)
N3 N 0.5075(4) -0.3027(3) 0.1869(3)
O1 O 0.5930(3) 0.2185(4) 0.1162(3)
O2 O 1.3299(3) 0.2619(4) 0.0365(3)
O3 O 1.1571(3) 0.2936(3) 0.1386(2)
O4 O 0.2401(3) 0.2024(3) 0.3508(2)
O5 O -0.4720(3) 0.1686(4) 0.3418(3)
O6 O -0.3188(4) 0.2930(3) 0.2989(3)
O7 O 0.4009(4) 0.0269(3) 0.2355(4)
O8 O 0.3011(5) -0.4288(6) 0.2570(5)
O9 O 0.3808(5) -0.5641(4) 0.1804(3)
Gd1_2 Gd 1.389733(15) 0.233676(14) 0.209094(12)
Gd1_3 Gd -0.610267(15) 0.233676(14) 0.209094(12)
Gd1_4 Gd 0.389733(15) -0.766324(14) 0.209094(12)
O2_2 O 0.3299(3) 0.2619(4) 0.0365(3)
O3_2 O 0.1571(3) 0.2936(3) 0.1386(2)
O5_2 O 0.5280(3) 0.1686(4) 0.3418(3)
O9_2 O 0.3808(5) 0.4359(4) 0.1804(3)
O10 O 0.9064(4) 0.4138(3) 0.2049(3)
H25 H 0.9789 0.3654 0.1994
H26 H 0.8429 0.3725 0.2273
O11 O 0.0217(5) 0.5912(4) 0.2442(3)
H27 H 0.1036 0.5744 0.2575
H28 H 0.0007 0.5242 0.2448
loop_
_geom_bond_atom_site_label_1
_geom_bond_atom_site_label_2
_geom_bond_site_symmetry_1
_geom_bond_site_symmetry_2
C1 C2 1_555 1_555
C2 H1 1_555 1_555
C3 C2 1_555 1_555
H2 C3 1_555 1_555
C4 C3 1_555 1_555
H3 C4 1_555 1_555
C5 C4 1_555 1_555
H4 C5 1_555 1_555
C6 C1 1_555 1_555
C7 C6 1_555 1_555
C8 C7 1_555 1_555
H5 C8 1_555 1_555
C9 C8 1_555 1_555
H6 C9 1_555 1_555
C10 H7 1_555 1_555
H8 C10 1_555 1_555
C11 C10 1_555 1_555
C12 C13 1_555 1_555
C13 H9 1_555 1_555
C14 C13 1_555 1_555
H10 C14 1_555 1_555
C15 C14 1_555 1_555
H11 C15 1_555 1_555
C16 C15 1_555 1_555
H12 C16 1_555 1_555
C17 C12 1_555 1_555
C18 C17 1_555 1_555
C19 C18 1_555 1_555
H13 C19 1_555 1_555
C20 C19 1_555 1_555
H14 C20 1_555 1_555
C21 H15 1_555 1_555
H16 C21 1_555 1_555
C22 C21 1_555 1_555
C23 C24 1_555 1_555
C24 H17 1_555 1_555
C25 C24 1_555 1_555
H18 C25 1_555 1_555
C26 C25 1_555 1_555
H19 C26 1_555 1_555
C27 C26 1_555 1_555
H20 C27 1_555 1_555
C28 C23 1_555 1_555
C29 C28 1_555 1_555
C30 C29 1_555 1_555
H21 C30 1_555 1_555
C31 C30 1_555 1_555
H22 C31 1_555 1_555
C32 H23 1_555 1_555
H24 C32 1_555 1_555
C33 C32 1_555 1_555
Gd1 O1 1_555 1_555
N1 C1 1_555 1_555
N2 C12 1_555 1_555
N3 C23 1_555 1_555
O1 C7 1_555 1_555
O2 C11 1_555 1_555
O3 C11 1_555 1_555
O4 C18 1_555 1_555
O5 C22 1_555 1_555
O6 C22 1_555 1_555
O7 C29 1_555 1_555
O8 C33 1_555 1_555
O9 C33 1_555 1_555
O10 H25 1_555 1_555
H26 O10 1_555 1_555
O11 H27 1_555 1_555
H28 O11 1_555 1_555
Gd1_2 O2 1_555 1_555
Gd1_3 O5 1_555 1_555
Gd1_4 O9 1_555 1_555
O2_2 Gd1 1_555 1_555
O3_2 Gd1 1_555 1_555
O5_2 Gd1 1_555 1_555
O9_2 Gd1 1_555 1_555
C5 C6 1_555 1_555
C9 N1 1_555 1_555
C10 N1 1_555 1_555
C16 C17 1_555 1_555
C20 N2 1_555 1_555
C21 N2 1_555 1_555
C27 C28 1_555 1_555
C31 N3 1_555 1_555
C32 N3 1_555 1_555
Gd1 O4 1_555 1_555
Gd1 O7 1_555 1_555
O3 Gd1_2 1_555 1_555

#END
