
#######################################################################
#
#                 Cambridge Crystallographic Data Centre
#                                CCDC 
#
#######################################################################
#
# If this CIF has been generated from an entry in the Cambridge 
# Structural Database, then it will include bibliographic, chemical, 
# crystal, experimental, refinement or atomic coordinate data resulting 
# from the CCDC's data processing and validation procedures.
#
#######################################################################

data_KUNZUP
_symmetry_cell_setting           monoclinic
_symmetry_space_group_name_H-M   'P 21/c'
_symmetry_Int_Tables_number      14
_space_group_name_Hall           '-P 2ybc'
loop_
_symmetry_equiv_pos_site_id
_symmetry_equiv_pos_as_xyz
1 x,y,z
2 -x,1/2+y,1/2-z
3 -x,-y,-z
4 x,1/2-y,1/2+z
_cell_length_a                   13.9746(13)
_cell_length_b                   14.9708(14)
_cell_length_c                   14.3454(13)
_cell_angle_alpha                90
_cell_angle_beta                 97.5570(10)
_cell_angle_gamma                90
_cell_volume                     2975.15
loop_
_atom_site_label
_atom_site_type_symbol
_atom_site_fract_x
_atom_site_fract_y
_atom_site_fract_z
Cu1 Cu -0.32363(3) 0.09471(2) -0.03800(3)
Cu2 Cu -0.48404(3) -0.07608(2) -0.06515(3)
C1 C -0.3042(2) -0.0761(2) -0.1375(2)
C2 C -0.2156(2) -0.1252(2) -0.1560(2)
C3 C -0.1327(2) -0.0786(2) -0.1699(2)
H1 H -0.1343 -0.0165 -0.1723
C4 C -0.0481(2) -0.1226(2) -0.1804(2)
H2 H 0.0068 -0.0901 -0.1888
C5 C -0.0445(2) -0.2157(2) -0.1787(2)
C6 C -0.1288(2) -0.2633(2) -0.1666(2)
H3 H -0.1279 -0.3254 -0.1660
C7 C -0.2130(2) -0.2183(2) -0.1556(2)
H4 H -0.2683 -0.2504 -0.1478
C8 C 0.0470(2) -0.2645(2) -0.1865(2)
C9 C 0.1275(2) -0.2206(2) -0.2092(2)
H5 H 0.1243 -0.1592 -0.2194
C10 C 0.2185(2) -0.3519(2) -0.2026(3)
H6 H 0.2761 -0.3810 -0.2090
C11 C 0.1422(3) -0.3985(2) -0.1785(3)
H7 H 0.1479 -0.4596 -0.1677
C12 C 0.0563(2) -0.3559(2) -0.1699(3)
H8 H 0.0045 -0.3883 -0.1529
C13 C 0.2951(2) -0.2127(2) -0.2387(2)
H9 H 0.3380 -0.2521 -0.2673
H10 H 0.2738 -0.1662 -0.2838
C14 C 0.3499(2) -0.1705(2) -0.1512(2)
C15 C -1.1434(2) 0.1356(2) -0.0369(2)
C16 C -1.0517(2) 0.1806(2) -0.0551(2)
C17 C -0.9681(2) 0.1312(2) -0.0567(2)
H11 H -0.9695 0.0696 -0.0489
C18 C -0.8827(2) 0.1729(2) -0.0696(2)
H12 H -0.8278 0.1387 -0.0732
C19 C -0.8780(2) 0.2655(2) -0.0772(2)
C20 C -0.9624(2) 0.3151(2) -0.0763(2)
H13 H -0.9608 0.3769 -0.0827
C21 C -1.0486(2) 0.2728(2) -0.0660(2)
H14 H -1.1047 0.3063 -0.0663
C22 C -0.7858(2) 0.3109(2) -0.0864(2)
C23 C -0.7149(2) 0.2698(2) -0.1294(2)
H15 H -0.7244 0.2114 -0.1508
C24 C -0.6159(3) 0.3961(3) -0.1115(3)
H16 H -0.5592 0.4247 -0.1219
C25 C -0.6819(3) 0.4399(3) -0.0663(4)
H17 H -0.6701 0.4981 -0.0452
C26 C -0.7664(3) 0.3973(2) -0.0519(3)
H18 H -0.8106 0.4262 -0.0193
C27 C -0.5571(2) 0.2624(3) -0.1823(3)
H19 H -0.5118 0.3043 -0.2039
H20 H -0.5865 0.2286 -0.2363
C28 C -0.5027(2) 0.1984(2) -0.1098(2)
O1 O -0.30380(16) 0.00728(15) -0.14159(16)
O2 O -0.37355(15) -0.12337(15) -0.11809(17)
O3 O 0.42981(14) -0.13637(15) -0.16447(15)
O4 O 0.31174(16) -0.17084(16) -0.07841(16)
O5 O -1.22294(15) 0.17091(14) -0.07600(15)
O6 O -1.14013(17) 0.06767(16) 0.01264(18)
O7 O -0.43300(17) 0.16012(17) -0.13771(17)
O8 O -0.53324(17) 0.19054(17) -0.03298(17)
O9 O -0.40803(16) 0.01126(15) 0.01805(16)
H21 H -0.380(3) -0.013(3) 0.051(3)
N1 N 0.21062(18) -0.26375(18) -0.21704(18)
N2 N -0.63258(19) 0.31209(19) -0.1411(2)
Cu1_2 Cu -1.32363(3) 0.09471(2) -0.03800(3)
Cu1B Cu 0.32363(3) -0.09471(2) 0.03800(3)
Cu2B Cu -0.51596(3) 0.07608(2) 0.06515(3)
Cu2_2 Cu 0.51596(3) -0.07608(2) -0.06515(3)
O3_2 O -0.57019(14) -0.13637(15) -0.16447(15)
O4B O -0.31174(16) 0.17084(16) 0.07841(16)
O5_2 O -0.22294(15) 0.17091(14) -0.07600(15)
O6_2 O -0.14013(17) 0.06767(16) 0.01264(18)
O8B O -0.46676(17) -0.19054(17) 0.03298(17)
O9B O -0.59197(16) -0.01126(15) -0.01805(16)
H21B H -0.620(3) 0.013(3) -0.051(3)
O10 O 0.3004(4) 0.6463(3) 0.0321(3)
H22 H 0.3622(18) 0.646(5) 0.030(5)
H23 H 0.289(4) 0.606(4) 0.073(4)
O11 O 0.4896(4) 0.0465(3) -0.2933(3)
O12 O 0.3208(3) 0.0589(2) -0.1958(3)
O13 O 0.5435(4) 0.3483(3) 0.0749(4)
Cl1 Cl 0.15971(9) 0.51777(7) 0.15117(9)
O14? O 0.2520(7) 0.0242(7) -0.1400(7)
loop_
_geom_bond_atom_site_label_1
_geom_bond_atom_site_label_2
_geom_bond_site_symmetry_1
_geom_bond_site_symmetry_2
Cu1 O1 1_555 1_555
Cu2 O2 1_555 1_555
C1 C2 1_555 1_555
C2 C3 1_555 1_555
C3 H1 1_555 1_555
C4 C3 1_555 1_555
H2 C4 1_555 1_555
C5 C4 1_555 1_555
C6 C5 1_555 1_555
H3 C6 1_555 1_555
C7 C2 1_555 1_555
H4 C7 1_555 1_555
C8 C5 1_555 1_555
C9 C8 1_555 1_555
H5 C9 1_555 1_555
C10 H6 1_555 1_555
C11 C10 1_555 1_555
H7 C11 1_555 1_555
C12 C8 1_555 1_555
H8 C12 1_555 1_555
C13 H9 1_555 1_555
H10 C13 1_555 1_555
C14 C13 1_555 1_555
C15 C16 1_555 1_555
C16 C17 1_555 1_555
C17 H11 1_555 1_555
C18 C17 1_555 1_555
H12 C18 1_555 1_555
C19 C18 1_555 1_555
C20 C19 1_555 1_555
H13 C20 1_555 1_555
C21 C16 1_555 1_555
H14 C21 1_555 1_555
C22 C19 1_555 1_555
C23 C22 1_555 1_555
H15 C23 1_555 1_555
C24 H16 1_555 1_555
C25 C24 1_555 1_555
H17 C25 1_555 1_555
C26 C22 1_555 1_555
H18 C26 1_555 1_555
C27 H19 1_555 1_555
H20 C27 1_555 1_555
C28 C27 1_555 1_555
O1 C1 1_555 1_555
O2 C1 1_555 1_555
O3 C14 1_555 1_555
O4 C14 1_555 1_555
O5 C15 1_555 1_555
O6 C15 1_555 1_555
O7 Cu1 1_555 1_555
O8 C28 1_555 1_555
O9 Cu1 1_555 1_555
H21 O9 1_555 1_555
N1 C9 1_555 1_555
N2 C23 1_555 1_555
O10 H22 1_555 1_555
H23 O10 1_555 1_555
Cu1_2 O5 1_555 1_555
Cu1B O4 1_555 1_555
Cu2B O8 1_555 1_555
Cu2_2 O3 1_555 1_555
O3_2 Cu2 1_555 1_555
O4B Cu1 1_555 1_555
O5_2 Cu1 1_555 1_555
O6_2 Cu1 1_555 1_555
O8B Cu2 1_555 1_555
O9B Cu2 1_555 1_555
H21B O9B 1_555 1_555
Cu2 O9 1_555 1_555
C6 C7 1_555 1_555
C10 N1 1_555 1_555
C11 C12 1_555 1_555
C13 N1 1_555 1_555
C20 C21 1_555 1_555
C24 N2 1_555 1_555
C25 C26 1_555 1_555
C27 N2 1_555 1_555
C28 O7 1_555 1_555
O6 Cu1_2 1_555 1_555
O9 Cu2B 1_555 1_555
Cu2B O9B 1_555 1_555

#END
