
#######################################################################
#
#                 Cambridge Crystallographic Data Centre
#                                CCDC 
#
#######################################################################
#
# If this CIF has been generated from an entry in the Cambridge 
# Structural Database, then it will include bibliographic, chemical, 
# crystal, experimental, refinement or atomic coordinate data resulting 
# from the CCDC's data processing and validation procedures.
#
#######################################################################

data_KUNZOJ
_symmetry_cell_setting           triclinic
_symmetry_space_group_name_H-M   'P -1'
_symmetry_Int_Tables_number      2
_space_group_name_Hall           '-P 1'
loop_
_symmetry_equiv_pos_site_id
_symmetry_equiv_pos_as_xyz
1 x,y,z
2 -x,-y,-z
_cell_length_a                   10.7400(2)
_cell_length_b                   10.9397(2)
_cell_length_c                   13.9761(3)
_cell_angle_alpha                83.2860(10)
_cell_angle_beta                 74.8080(10)
_cell_angle_gamma                81.6720(10)
_cell_volume                     1562.62
loop_
_atom_site_label
_atom_site_type_symbol
_atom_site_fract_x
_atom_site_fract_y
_atom_site_fract_z
Cu1 Cu -0.36161(4) 0.53739(4) 0.14816(3)
Cu2 Cu -0.51783(4) 0.36669(3) 0.04124(3)
C1 C -0.4496(3) 0.2923(3) 0.2245(2)
C2 C -0.4877(3) 0.2361(3) 0.3298(2)
C3 C -0.4226(3) 0.2569(3) 0.3996(2)
H1 H -0.3512 0.3011 0.3797
C4 C -0.4632(3) 0.2125(3) 0.4978(2)
H2 H -0.4185 0.2265 0.5434
C5 C -0.5710(3) 0.1467(3) 0.5294(2)
C6 C -0.6340(3) 0.1242(3) 0.4588(2)
H3 H -0.7042 0.0783 0.4780
C7 C -0.5932(3) 0.1694(3) 0.3605(2)
H4 H -0.6372 0.1548 0.3146
C8 C -0.6191(3) 0.1010(3) 0.6358(2)
C9 C -0.5447(3) 0.1003(3) 0.7034(2)
H5 H -0.4647 0.1310 0.6822
C10 C -0.6994(4) 0.0105(4) 0.8331(3)
H6 H -0.7246 -0.0216 0.8990
C11 C -0.7791(4) 0.0111(4) 0.7704(3)
H7 H -0.8589 -0.0196 0.7938
C12 C -0.7397(4) 0.0580(4) 0.6722(3)
H8 H -0.7945 0.0607 0.6302
C13 C -0.5084(4) 0.0676(3) 0.8700(2)
H9 H -0.4166 0.0523 0.8376
H10 H -0.5280 0.0057 0.9256
C14 C -0.5382(3) 0.1966(3) 0.9082(2)
C15 C -0.3181(3) 0.5690(3) -0.6842(2)
C16 C -0.2497(3) 0.5827(3) -0.6055(2)
C17 C -0.1364(3) 0.6392(3) -0.6309(3)
H11 H -0.1001 0.6641 -0.6971
C18 C -0.0771(3) 0.6584(3) -0.5574(2)
H12 H -0.0013 0.6964 -0.5748
C19 C -0.1299(3) 0.6214(3) -0.4583(2)
C20 C -0.2416(3) 0.5619(3) -0.4337(3)
H13 H -0.2761 0.5338 -0.3679
C21 C -0.3018(3) 0.5443(3) -0.5068(3)
H14 H -0.3776 0.5064 -0.4894
C22 C -0.0685(3) 0.6484(3) -0.3810(2)
C23 C 0.0098(4) 0.7431(3) -0.3955(3)
H15 H 0.0216 0.7945 -0.4543
C24 C 0.0702(4) 0.7613(4) -0.3231(3)
H16 H 0.1233 0.8241 -0.3336
C25 C 0.0516(4) 0.6871(4) -0.2363(3)
H17 H 0.0936 0.6978 -0.1882
C26 C -0.0860(3) 0.5780(3) -0.2900(2)
H18 H -0.1394 0.5152 -0.2767
C27 C -0.0494(3) 0.5206(4) -0.1262(3)
H19 H -0.0350 0.4343 -0.1405
H20 H 0.0133 0.5330 -0.0904
C28 C -0.1862(3) 0.5477(3) -0.0596(2)
O1 O -0.3553(2) 0.3550(2) 0.20000(18)
O2 O -0.5170(3) 0.2733(2) 0.16780(17)
O3 O -0.4875(2) 0.2101(2) 0.97689(17)
O4 O -0.6075(3) 0.2749(2) 0.86710(19)
O5 O -0.2453(2) 0.5585(2) -0.77223(17)
O6 O -0.4369(2) 0.5688(3) -0.66234(19)
O7 O -0.2044(3) 0.4857(3) 0.02240(18)
O8 O -0.2657(2) 0.6253(3) -0.09126(19)
O9 O -0.5036(2) 0.5281(2) 0.08648(17)
H21 H -0.552(5) 0.551(5) 0.114(4)
N1 N -0.5854(3) 0.0563(3) 0.7991(2)
N2 N -0.0267(3) 0.5994(3) -0.2208(2)
Cu1A Cu -0.63839(4) 0.46261(4) 0.85184(3)
Cu1_2 Cu -0.36161(4) 0.53739(4) -0.85184(3)
Cu2A Cu -0.48217(4) 0.63331(3) -0.04124(3)
Cu2_2 Cu -0.51783(4) 0.36669(3) 1.04124(3)
O3_2 O -0.4875(2) 0.2101(2) -0.02311(17)
O4A O -0.3925(3) 0.7251(2) 0.13290(19)
O5_2 O -0.2453(2) 0.5585(2) 0.22777(17)
O6_2 O -0.4369(2) 0.5688(3) 0.33766(19)
O8A O -0.7343(2) 0.3747(3) 0.09126(19)
O9A O -0.4964(2) 0.4719(2) -0.08648(17)
H21A H -0.448(5) 0.449(5) -0.114(4)
O10 O -0.7775(5) 0.1167(5) 0.0704(4)
O11 O -0.9036(6) 0.2457(7) -0.0671(6)
O12 O -0.7418(4) 0.6508(4) 0.1838(3)
O13 O -0.8248(6) 0.7798(5) 0.0067(5)
O14 O -0.7887(5) 0.0265(5) 0.2852(4)
O15 O -0.7752(5) -0.1827(5) 0.3429(4)
O16 O -0.9727(5) -0.0528(5) 0.3913(5)
O17 O -0.9100(9) -0.1014(9) 0.2462(8)
Cl1 Cl -0.85578(12) -0.07571(11) 0.32267(10)
O18? O -0.6591(13) 0.6237(12) 0.2475(9)
loop_
_geom_bond_atom_site_label_1
_geom_bond_atom_site_label_2
_geom_bond_site_symmetry_1
_geom_bond_site_symmetry_2
Cu1 O1 1_555 1_555
Cu2 O2 1_555 1_555
C1 C2 1_555 1_555
C2 C3 1_555 1_555
C3 H1 1_555 1_555
C4 C3 1_555 1_555
H2 C4 1_555 1_555
C5 C4 1_555 1_555
C6 C5 1_555 1_555
H3 C6 1_555 1_555
C7 C2 1_555 1_555
H4 C7 1_555 1_555
C8 C5 1_555 1_555
C9 C8 1_555 1_555
H5 C9 1_555 1_555
C10 H6 1_555 1_555
C11 C10 1_555 1_555
H7 C11 1_555 1_555
C12 C8 1_555 1_555
H8 C12 1_555 1_555
C13 H9 1_555 1_555
H10 C13 1_555 1_555
C14 C13 1_555 1_555
C15 C16 1_555 1_555
C16 C17 1_555 1_555
C17 H11 1_555 1_555
C18 C17 1_555 1_555
H12 C18 1_555 1_555
C19 C18 1_555 1_555
C20 C19 1_555 1_555
H13 C20 1_555 1_555
C21 C16 1_555 1_555
H14 C21 1_555 1_555
C22 C19 1_555 1_555
C23 C22 1_555 1_555
H15 C23 1_555 1_555
C24 C23 1_555 1_555
H16 C24 1_555 1_555
C25 C24 1_555 1_555
H17 C25 1_555 1_555
C26 C22 1_555 1_555
H18 C26 1_555 1_555
C27 H19 1_555 1_555
H20 C27 1_555 1_555
C28 C27 1_555 1_555
O1 C1 1_555 1_555
O2 C1 1_555 1_555
O3 C14 1_555 1_555
O4 C14 1_555 1_555
O5 C15 1_555 1_555
O6 C15 1_555 1_555
O7 Cu1 1_555 1_555
O8 C28 1_555 1_555
O9 Cu1 1_555 1_555
H21 O9 1_555 1_555
N1 C9 1_555 1_555
N2 C25 1_555 1_555
O14 Cl1 1_555 1_555
O15 Cl1 1_555 1_555
O16 Cl1 1_555 1_555
O17 Cl1 1_555 1_555
Cu1A O4 1_555 1_555
Cu1_2 O5 1_555 1_555
Cu2A O8 1_555 1_555
Cu2_2 O3 1_555 1_555
O3_2 Cu2 1_555 1_555
O4A Cu1 1_555 1_555
O5_2 Cu1 1_555 1_555
O6_2 Cu1 1_555 1_555
O8A Cu2 1_555 1_555
O9A Cu2 1_555 1_555
H21A O9A 1_555 1_555
Cu2 O9 1_555 1_555
C6 C7 1_555 1_555
C10 N1 1_555 1_555
C11 C12 1_555 1_555
C13 N1 1_555 1_555
C20 C21 1_555 1_555
C26 N2 1_555 1_555
C27 N2 1_555 1_555
C28 O7 1_555 1_555
O6 Cu1_2 1_555 1_555
O9 Cu2A 1_555 1_555
Cu2A O9A 1_555 1_555

#END
