
#######################################################################
#
#                 Cambridge Crystallographic Data Centre
#                                CCDC 
#
#######################################################################
#
# If this CIF has been generated from an entry in the Cambridge 
# Structural Database, then it will include bibliographic, chemical, 
# crystal, experimental, refinement or atomic coordinate data resulting 
# from the CCDC's data processing and validation procedures.
#
#######################################################################

data_KUPFEH
_symmetry_cell_setting           monoclinic
_symmetry_space_group_name_H-M   'P 21/c'
_symmetry_Int_Tables_number      14
_space_group_name_Hall           '-P 2ybc'
loop_
_symmetry_equiv_pos_site_id
_symmetry_equiv_pos_as_xyz
1 x,y,z
2 -x,1/2+y,1/2-z
3 -x,-y,-z
4 x,1/2-y,1/2+z
_cell_length_a                   14.9456(10)
_cell_length_b                   13.9437(9)
_cell_length_c                   23.8419(15)
_cell_angle_alpha                90
_cell_angle_beta                 107.1810(10)
_cell_angle_gamma                90
_cell_volume                     4746.86
loop_
_atom_site_label
_atom_site_type_symbol
_atom_site_fract_x
_atom_site_fract_y
_atom_site_fract_z
Cd1 Cd 0.69470(4) 0.68680(4) 0.29105(2)
Cd2 Cd 0.84484(4) 0.80275(5) 0.20293(2)
O1 O 0.8353(4) 0.6643(5) 0.2647(3)
O2 O 0.8043(4) 0.5494(5) 0.3176(3)
C1 C 0.8535(6) 0.5839(8) 0.2902(4)
O3 O 0.7062(4) 0.8229(5) 0.2345(3)
N1 N 0.2480(5) 0.2843(5) -0.1273(3)
N2 N 0.7782(6) 0.7695(6) 0.3775(3)
O4 O 0.5791(6) 0.8184(5) 0.2596(3)
N3 N 1.0750(6) 1.1238(7) 0.7123(3)
N4 N 0.6129(5) 0.6246(6) 0.3519(3)
N5 N 0.6053(5) 0.5951(6) 0.2116(3)
C2 C 0.2303(7) 0.3739(8) -0.1181(4)
H1 H 0.1786 0.4020 -0.1447
C3 C 0.6462(7) 0.5494(9) 0.3860(4)
H2 H 0.6960 0.5153 0.3799
C4 C 1.1006(7) 1.0392(10) 0.6988(4)
H3 H 1.1504 1.0080 0.7253
C5 C 0.5097(9) 0.4928(9) 0.1116(4)
C6 C 0.7578(7) 0.8585(8) 0.3894(4)
H4 H 0.7060 0.8878 0.3636
C7 C 0.6311(8) 0.8594(8) 0.2342(4)
C8 C 0.5323(6) 0.5662(8) 0.4380(4)
C9 C 0.4986(7) 0.6446(8) 0.4018(4)
H5 H 0.4479 0.6796 0.4058
C10 C 1.0555(9) 0.9946(10) 0.6459(5)
H6 H 1.0743 0.9342 0.6373
C11 C 0.6032(10) 0.9539(10) 0.2042(7)
H7 H 0.5434 0.9729 0.2079
H8 H 0.5991 0.9480 0.1634
H9 H 0.6493 1.0015 0.2221
C12 C 0.8814(8) 0.8680(10) 0.4772(4)
C13 C 0.8080(7) 0.9094(8) 0.4368(4)
H10 H 0.7920 0.9727 0.4416
C14 C 1.0025(11) 1.1618(10) 0.6736(5)
H11 H 0.9802 1.2195 0.6837
C15 C 0.3544(9) 0.3889(11) -0.0327(5)
C16 C 0.6097(7) 0.5201(9) 0.4297(4)
H12 H 0.6369 0.4691 0.4539
C17 C 0.9397(9) 0.5320(12) 0.2850(7)
H13 H 0.9696 0.5699 0.2621
H14 H 0.9217 0.4711 0.2661
H15 H 0.9824 0.5219 0.3234
C18 C 0.5402(7) 0.6691(8) 0.3609(4)
H16 H 0.5159 0.7215 0.3371
C19 C 0.3195(8) 0.2444(9) -0.0883(4)
H17 H 0.3327 0.1802 -0.0927
C20 C 0.4882(9) 0.5824(11) 0.1199(5)
H18 H 0.4411 0.6136 0.0915
C21 C 0.9820(8) 1.0418(12) 0.6062(5)
C22 C 0.9005(10) 0.7765(10) 0.4676(5)
H19 H 0.9492 0.7452 0.4949
C23 C 0.9565(10) 1.1246(12) 0.6195(6)
H20 H 0.9083 1.1583 0.5933
C24 C 0.6239(10) 0.5066(9) 0.2025(5)
H21 H 0.6707 0.4759 0.2316
C25 C 0.8491(10) 0.7276(9) 0.4178(4)
H22 H 0.8644 0.6644 0.4123
C26 C 0.2804(8) 0.4291(9) -0.0735(5)
H23 H 0.2647 0.4930 -0.0706
C27 C 0.5355(9) 0.6294(10) 0.1707(5)
H24 H 0.5156 0.6911 0.1759
C28 C 0.3767(11) 0.2954(11) -0.0400(6)
H25 H 0.4282 0.2663 -0.0138
C29 C 0.5797(11) 0.4554(9) 0.1533(6)
H26 H 0.5992 0.3931 0.1491
S1 S 0.7045(3) 1.2706(3) 0.0227(3)
O5 O 0.8043(8) 0.9563(7) 0.1535(4)
O6 O 0.7452(6) 1.3465(6) 0.0005(4)
O7 O 0.9816(5) 0.7175(8) 0.1979(4)
C30 C 0.7854(6) 1.1004(6) 0.0691(4)
H27 H 0.7540 1.1096 0.0971
C31 C 0.8464(8) 0.9446(8) 0.1198(6)
O8 O 0.8988(6) 0.8743(6) 0.1210(5)
C32 C 0.7773(6) 1.1675(7) 0.0265(5)
C33 C 0.8396(7) 1.0181(7) 0.0721(5)
C34 C 0.4895(7) 0.5365(8) 0.4836(4)
H28 H 0.4421 0.5755 0.4888
C35 C 0.8244(9) 1.1534(11) -0.0162(5)
H29 H 0.8223 1.1986 -0.0453
C36 C 0.8817(9) 1.0033(10) 0.0306(6)
H30 H 0.9165 0.9477 0.0315
C37 C 0.8745(9) 1.0673(12) -0.0123(7)
H31 H 0.9041 1.0541 -0.0407
C38 C 0.4647(12) 0.4190(13) 0.0589(8)
H32 H 0.4847 0.3564 0.0564
O9 O 0.6138(7) 1.2412(11) -0.0200(12)
C39 C 0.4035(12) 0.4567(12) 0.0247(9)
H33 H 0.3840 0.5188 0.0291
C40 C 0.9355(13) 0.9144(14) 0.5340(7)
H34 H 0.9779 0.8749 0.5604
C41 C 0.9313(11) 0.9962(16) 0.5501(7)
H35 H 0.8901 1.0359 0.5232
O10 O 0.6819(18) 1.2770(11) 0.0680(15)
H36 H 0.994(3) 0.700(6) 0.1664(8)
H37 H 1.033(2) 0.711(6) 0.2259(12)
Cd1B Cd 0.30530(4) 0.31320(4) 0.70895(2)
Cd1B_2 Cd 0.30530(4) 0.31320(4) -0.29105(2)
Cd1B_3 Cd 1.30530(4) 1.31320(4) 0.70895(2)
Cd2B Cd 0.15516(4) 0.19725(5) -0.20293(2)
Cd2B_2 Cd 1.15516(4) 1.19725(5) 0.79707(2)
Cd2B_3 Cd 0.15516(4) 0.19725(5) 0.79707(2)
O1B O 0.1647(4) 0.3357(5) 0.7353(3)
O1B_2 O 0.1647(4) 0.3357(5) -0.2647(3)
O2B O 0.1957(4) 0.4506(5) 0.6824(3)
C1B C 0.1465(6) 0.4161(8) 0.7098(4)
O3B O 0.2938(4) 0.1771(5) 0.7655(3)
O3B_2 O 0.2938(4) 0.1771(5) -0.2345(3)
N1B N 0.7520(5) 0.7157(5) 0.1273(3)
N2B N 1.2218(6) 1.2305(6) 0.6225(3)
N2B_2 N 0.2218(6) 0.2305(6) 0.6225(3)
O4B O 0.4209(6) 0.1816(5) 0.7404(3)
N3B N 0.9250(6) 0.8762(7) 0.2877(3)
N3_2 N 0.0750(6) 0.1238(7) -0.2877(3)
N4B N 0.3871(5) 0.3754(6) 0.6481(3)
N5B N 0.3947(5) 0.4049(6) -0.2116(3)
N5B_2 N 0.3947(5) 0.4049(6) 0.7884(3)
C2B C 0.7697(7) 0.6261(8) 0.1181(4)
H1B H 0.8214 0.5980 0.1447
C3B C 0.3538(7) 0.4506(9) 0.6140(4)
H2B H 0.3040 0.4847 0.6201
C4B C 0.8994(7) 0.9608(10) 0.3012(4)
H3B H 0.8496 0.9920 0.2747
C5B C 0.4903(9) 0.5072(9) -0.1116(4)
C6B C 1.2422(7) 1.1415(8) 0.6106(4)
H4B H 1.2940 1.1122 0.6364
C7B C 0.3689(8) 0.1406(8) 0.7658(4)
C8B C 0.4677(6) 0.4338(8) 0.5620(4)
C9B C 0.5014(7) 0.3554(8) 0.5982(4)
H5B H 0.5521 0.3204 0.5942
C10B C 0.9445(9) 1.0054(10) 0.3541(5)
H6B H 0.9257 1.0658 0.3627
C11B C 0.3968(10) 0.0461(10) 0.7958(7)
H7B H 0.4566 0.0271 0.7921
H8B H 0.4009 0.0520 0.8366
H9B H 0.3507 -0.0015 0.7779
C12B C 1.1186(8) 1.1320(10) 0.5228(4)
C13B C 1.1920(7) 1.0906(8) 0.5632(4)
H10B H 1.2080 1.0273 0.5584
C14B C 0.9975(11) 0.8382(10) 0.3264(5)
H11B H 1.0198 0.7805 0.3163
C15B C 0.6456(9) 0.6111(11) 0.0327(5)
C16B C 0.3903(7) 0.4799(9) 0.5703(4)
H12B H 0.3631 0.5309 0.5461
C17B C 0.0603(9) 0.4680(12) 0.7150(7)
H13B H 0.0304 0.4301 0.7379
H14B H 0.0783 0.5289 0.7339
H15B H 0.0176 0.4781 0.6766
C18B C 0.4598(7) 0.3309(8) 0.6391(4)
H16B H 0.4841 0.2785 0.6629
C19B C 0.6805(8) 0.7556(9) 0.0883(4)
H17B H 0.6673 0.8198 0.0927
C20B C 0.5118(9) 0.4176(11) -0.1199(5)
H18B H 0.5589 0.3864 -0.0915
C21B C 1.0180(8) 0.9582(12) 0.3938(5)
C22B C 1.0995(10) 1.2235(10) 0.5324(5)
H19B H 1.0508 1.2548 0.5051
C23B C 1.0435(10) 0.8754(12) 0.3805(6)
H20B H 1.0917 0.8417 0.4067
C24B C 0.3761(10) 0.4934(9) -0.2025(5)
H21B H 0.3293 0.5241 -0.2316
C25B C 1.1509(10) 1.2724(9) 0.5822(4)
H22B H 1.1356 1.3356 0.5877
C26B C 0.7196(8) 0.5709(9) 0.0735(5)
H23B H 0.7353 0.5070 0.0706
C27B C 0.4645(9) 0.3706(10) -0.1707(5)
H24B H 0.4844 0.3089 -0.1759
C28B C 0.6233(11) 0.7046(11) 0.0400(6)
H25B H 0.5718 0.7337 0.0138
C29B C 0.4203(11) 0.5446(9) -0.1533(6)
H26B H 0.4008 0.6069 -0.1491
S1B S 0.2955(3) -0.2706(3) -0.0227(3)
O5B O 0.1957(8) 0.0437(7) -0.1535(4)
O6B O 0.2548(6) -0.3465(6) -0.0005(4)
O7B O 0.0184(5) 0.2825(8) -0.1979(4)
C30B C 0.2146(6) -0.1004(6) -0.0691(4)
H27B H 0.2460 -0.1096 -0.0971
C31B C 0.1536(8) 0.0554(8) -0.1198(6)
O8B O 0.1012(6) 0.1257(6) -0.1210(5)
C32B C 0.2227(6) -0.1675(7) -0.0265(5)
C33B C 0.1604(7) -0.0181(7) -0.0721(5)
C34B C 0.5105(7) 0.4635(8) 0.5164(4)
H28B H 0.5579 0.4245 0.5112
C35B C 0.1756(9) -0.1534(11) 0.0162(5)
H29B H 0.1777 -0.1986 0.0453
C36B C 0.1183(9) -0.0033(10) -0.0306(6)
H30B H 0.0835 0.0523 -0.0315
C37B C 0.1255(9) -0.0673(12) 0.0123(7)
H31B H 0.0959 -0.0541 0.0407
C38B C 0.5353(12) 0.5810(13) -0.0589(8)
H32B H 0.5153 0.6436 -0.0564
O9B O 0.3862(7) -0.2412(11) 0.0200(12)
C39B C 0.5965(12) 0.5433(12) -0.0247(9)
H33B H 0.6160 0.4812 -0.0291
C40B C 1.0645(13) 1.0856(14) 0.4660(7)
H34B H 1.0221 1.1251 0.4396
C41B C 1.0687(11) 1.0038(16) 0.4499(7)
H35B H 1.1099 0.9641 0.4768
O10B O 0.3181(18) -0.2770(11) -0.0680(15)
H36B H 0.006(3) 0.300(6) -0.1664(8)
H37B H -0.033(2) 0.289(6) -0.2259(12)
O11 O 0.7880(8) 0.3577(9) 0.3228(6)
O12 O 1.0498(10) 0.7786(10) 0.1135(6)
O13 O 1.1446(16) 0.6396(17) 0.2819(9)
O14 O 0.6210(18) 0.3088(17) 0.3274(11)
loop_
_geom_bond_atom_site_label_1
_geom_bond_atom_site_label_2
_geom_bond_site_symmetry_1
_geom_bond_site_symmetry_2
Cd1 O1 1_555 1_555
Cd2 O1 1_555 1_555
O1 C1 1_555 1_555
O2 Cd1 1_555 1_555
C1 O2 1_555 1_555
O3 Cd1 1_555 1_555
N1 C2 1_555 1_555
N2 Cd1 1_555 1_555
O4 Cd1 1_555 1_555
N3 C4 1_555 1_555
N4 Cd1 1_555 1_555
N5 Cd1 1_555 1_555
C2 H1 1_555 1_555
C3 N4 1_555 1_555
H2 C3 1_555 1_555
C4 H3 1_555 1_555
C5 C20 1_555 1_555
C6 N2 1_555 1_555
H4 C6 1_555 1_555
C7 O3 1_555 1_555
C8 C9 1_555 1_555
C9 H5 1_555 1_555
C10 C4 1_555 1_555
H6 C10 1_555 1_555
C11 C7 1_555 1_555
H7 C11 1_555 1_555
H8 C11 1_555 1_555
H9 C11 1_555 1_555
C12 C13 1_555 1_555
C13 C6 1_555 1_555
H10 C13 1_555 1_555
C14 N3 1_555 1_555
H11 C14 1_555 1_555
C15 C26 1_555 1_555
C16 C3 1_555 1_555
H12 C16 1_555 1_555
C17 C1 1_555 1_555
H13 C17 1_555 1_555
H14 C17 1_555 1_555
H15 C17 1_555 1_555
C18 N4 1_555 1_555
H16 C18 1_555 1_555
C19 N1 1_555 1_555
H17 C19 1_555 1_555
C20 H18 1_555 1_555
C21 C10 1_555 1_555
C22 C12 1_555 1_555
H19 C22 1_555 1_555
C23 C14 1_555 1_555
H20 C23 1_555 1_555
C24 N5 1_555 1_555
H21 C24 1_555 1_555
C25 N2 1_555 1_555
H22 C25 1_555 1_555
C26 C2 1_555 1_555
H23 C26 1_555 1_555
C27 N5 1_555 1_555
H24 C27 1_555 1_555
C28 C15 1_555 1_555
H25 C28 1_555 1_555
C29 C5 1_555 1_555
H26 C29 1_555 1_555
S1 O6 1_555 1_555
O5 Cd2 1_555 1_555
O7 Cd2 1_555 1_555
C30 H27 1_555 1_555
C31 O5 1_555 1_555
O8 Cd2 1_555 1_555
C32 S1 1_555 1_555
C33 C30 1_555 1_555
C34 C8 1_555 1_555
H28 C34 1_555 1_555
C35 C32 1_555 1_555
H29 C35 1_555 1_555
C36 C33 1_555 1_555
H30 C36 1_555 1_555
C37 C35 1_555 1_555
H31 C37 1_555 1_555
C38 C5 1_555 1_555
H32 C38 1_555 1_555
O9 S1 1_555 1_555
C39 C15 1_555 1_555
H33 C39 1_555 1_555
C40 C12 1_555 1_555
H34 C40 1_555 1_555
C41 C21 1_555 1_555
H35 C41 1_555 1_555
O10 S1 1_555 1_555
H36 O7 1_555 1_555
H37 O7 1_555 1_555
Cd1B O1B 1_555 1_555
Cd1B_2 O1B_2 1_555 1_555
Cd1B_3 N2B 1_555 1_555
Cd2B N1 1_555 1_555
Cd2B_2 N3 1_555 1_555
Cd2B_3 O1B 1_555 1_555
O1B C1B 1_555 1_555
O1B_2 Cd2B 1_555 1_555
O2B Cd1B 1_555 1_555
C1B O2B 1_555 1_555
O3B Cd1B 1_555 1_555
O3B_2 Cd1B_2 1_555 1_555
N1B Cd2 1_555 1_555
N2B C6B 1_555 1_555
N2B_2 Cd1B 1_555 1_555
O4B Cd1B 1_555 1_555
N3B Cd2 1_555 1_555
N3_2 Cd2B 1_555 1_555
N4B Cd1B 1_555 1_555
N5B Cd1B_2 1_555 1_555
N5B_2 Cd1B 1_555 1_555
C2B N1B 1_555 1_555
H1B C2B 1_555 1_555
C3B N4B 1_555 1_555
H2B C3B 1_555 1_555
C4B N3B 1_555 1_555
H3B C4B 1_555 1_555
C5B C20B 1_555 1_555
C6B H4B 1_555 1_555
C7B O3B 1_555 1_555
C8B C9B 1_555 1_555
C9B H5B 1_555 1_555
C10B C4B 1_555 1_555
H6B C10B 1_555 1_555
C11B C7B 1_555 1_555
H7B C11B 1_555 1_555
H8B C11B 1_555 1_555
H9B C11B 1_555 1_555
C12B C13B 1_555 1_555
C13B C6B 1_555 1_555
H10B C13B 1_555 1_555
C14B N3B 1_555 1_555
H11B C14B 1_555 1_555
C15B C26B 1_555 1_555
C16B C3B 1_555 1_555
H12B C16B 1_555 1_555
C17B C1B 1_555 1_555
H13B C17B 1_555 1_555
H14B C17B 1_555 1_555
H15B C17B 1_555 1_555
C18B N4B 1_555 1_555
H16B C18B 1_555 1_555
C19B N1B 1_555 1_555
H17B C19B 1_555 1_555
C20B H18B 1_555 1_555
C21B C10B 1_555 1_555
C22B C12B 1_555 1_555
H19B C22B 1_555 1_555
C23B C14B 1_555 1_555
H20B C23B 1_555 1_555
C24B N5B 1_555 1_555
H21B C24B 1_555 1_555
C25B N2B 1_555 1_555
H22B C25B 1_555 1_555
C26B C2B 1_555 1_555
H23B C26B 1_555 1_555
C27B N5B 1_555 1_555
H24B C27B 1_555 1_555
C28B C15B 1_555 1_555
H25B C28B 1_555 1_555
C29B C5B 1_555 1_555
H26B C29B 1_555 1_555
S1B O6B 1_555 1_555
O5B Cd2B 1_555 1_555
O7B Cd2B 1_555 1_555
C30B H27B 1_555 1_555
C31B O5B 1_555 1_555
O8B Cd2B 1_555 1_555
C32B S1B 1_555 1_555
C33B C30B 1_555 1_555
C34B C34 1_555 1_555
H28B C34B 1_555 1_555
C35B C32B 1_555 1_555
H29B C35B 1_555 1_555
C36B C33B 1_555 1_555
H30B C36B 1_555 1_555
C37B C35B 1_555 1_555
H31B C37B 1_555 1_555
C38B C5B 1_555 1_555
H32B C38B 1_555 1_555
O9B S1B 1_555 1_555
C39B C15B 1_555 1_555
H33B C39B 1_555 1_555
C40B C12B 1_555 1_555
H34B C40B 1_555 1_555
C41B C21B 1_555 1_555
H35B C41B 1_555 1_555
O10B S1B 1_555 1_555
H36B O7B 1_555 1_555
H37B O7B 1_555 1_555
Cd2 O3 1_555 1_555
O4 C7 1_555 1_555
C8 C16 1_555 1_555
C9 C18 1_555 1_555
C19 C28 1_555 1_555
C20 C27 1_555 1_555
C21 C23 1_555 1_555
C22 C25 1_555 1_555
C24 C29 1_555 1_555
C30 C32 1_555 1_555
C31 O8 1_555 1_555
C31 C33 1_555 1_555
C36 C37 1_555 1_555
C38 C39 1_555 1_555
C40 C41 1_555 1_555
Cd2B O3B_2 1_555 1_555
Cd2B_3 O3B 1_555 1_555
O4B C7B 1_555 1_555
C8B C16B 1_555 1_555
C8B C34B 1_555 1_555
C9B C18B 1_555 1_555
C19B C28B 1_555 1_555
C20B C27B 1_555 1_555
C21B C23B 1_555 1_555
C22B C25B 1_555 1_555
C24B C29B 1_555 1_555
C30B C32B 1_555 1_555
C31B O8B 1_555 1_555
C31B C33B 1_555 1_555
C36B C37B 1_555 1_555
C38B C39B 1_555 1_555
C40B C41B 1_555 1_555

#END
