
#######################################################################
#
#                 Cambridge Crystallographic Data Centre
#                                CCDC 
#
#######################################################################
#
# If this CIF has been generated from an entry in the Cambridge 
# Structural Database, then it will include bibliographic, chemical, 
# crystal, experimental, refinement or atomic coordinate data resulting 
# from the CCDC's data processing and validation procedures.
#
#######################################################################

data_KUPFIL
_symmetry_cell_setting           monoclinic
_symmetry_space_group_name_H-M   'P 21/c'
_symmetry_Int_Tables_number      14
_space_group_name_Hall           '-P 2ybc'
loop_
_symmetry_equiv_pos_site_id
_symmetry_equiv_pos_as_xyz
1 x,y,z
2 -x,1/2+y,1/2-z
3 -x,-y,-z
4 x,1/2-y,1/2+z
_cell_length_a                   14.9668(9)
_cell_length_b                   13.8195(8)
_cell_length_c                   23.7408(15)
_cell_angle_alpha                90
_cell_angle_beta                 107.9650(10)
_cell_angle_gamma                90
_cell_volume                     4670.99
loop_
_atom_site_label
_atom_site_type_symbol
_atom_site_fract_x
_atom_site_fract_y
_atom_site_fract_z
Cd1 Cd 0.69063(4) 0.31702(5) 0.78999(2)
Cd2 Cd 0.85311(4) 0.19969(5) 0.70477(3)
S1 S 0.7040(2) -0.2660(2) 0.5171(2)
O1 O 0.7128(5) 0.1793(5) 0.7359(3)
N1 N 0.7630(5) 0.2897(6) 0.6277(3)
O2 O 0.8027(5) 0.4531(5) 0.8187(3)
N2 N 0.9342(6) 0.1242(6) 0.7910(3)
O3 O 0.8350(5) 0.3377(5) 0.7671(3)
O4 O 0.9904(6) 0.2859(7) 0.7056(4)
C1 C 0.8380(6) -0.0126(7) 0.5689(4)
O5 O 0.9040(6) 0.1300(6) 0.6201(4)
C2 C 0.7768(7) -0.1621(7) 0.5220(5)
N3 N 0.6018(7) 0.4176(8) 0.7134(4)
N4 N 0.7700(7) 0.2362(7) 0.8806(4)
O6 O 0.8070(6) 0.0493(6) 0.6547(3)
C3 C 0.8541(6) 0.4176(8) 0.7913(4)
N5 N 0.6044(6) 0.3740(6) 0.8490(3)
C4 C 0.4987(7) 0.3510(8) 0.9044(5)
H1 H 0.4505 0.3144 0.9106
C5 C 0.7858(6) -0.0954(7) 0.5665(4)
H2 H 0.7564 -0.1064 0.5951
C6 C 0.6363(7) 0.4511(9) 0.8818(5)
H3 H 0.6844 0.4865 0.8744
C7 C 0.8504(8) 0.0601(8) 0.6186(5)
C8 C 1.0040(9) 0.1660(10) 0.8316(5)
H4 H 1.0291 0.2220 0.8208
C9 C 0.9450(9) 0.0031(9) 0.8640(5)
H5 H 0.9248 -0.0565 0.8736
C10 C 0.7872(8) 0.3791(8) 0.6169(5)
H6 H 0.8459 0.4019 0.6394
C11 C 0.7502(9) 0.1459(10) 0.8906(5)
H7 H 0.6945 0.1183 0.8670
C12 C 0.6024(8) 0.4821(9) 0.9261(5)
H8 H 0.6267 0.5375 0.9476
C13 C 0.6815(9) 0.2587(9) 0.5937(6)
H9 H 0.6629 0.1959 0.5986
C14 C 0.5367(8) 0.3244(8) 0.8604(5)
H10 H 0.5135 0.2695 0.8381
C15 C 0.6469(8) 0.4102(9) 0.5415(5)
C16 C 0.5315(7) 0.4304(8) 0.9387(4)
C17 C 0.5268(9) 0.5092(9) 0.6043(5)
C18 C 0.8186(8) -0.1480(8) 0.4790(5)
H11 H 0.8127 -0.1936 0.4493
C19 C 0.8793(8) 0.0029(8) 0.5251(5)
H12 H 0.9139 0.0590 0.5256
C20 C 0.7320(8) 0.4392(9) 0.5752(5)
H13 H 0.7534 0.5008 0.5700
C21 C 1.0124(8) 0.0535(9) 0.9056(5)
C22 C 0.8944(10) 0.1312(10) 0.9711(4)
C23 C 0.5991(12) 0.5454(10) 0.6461(6)
H14 H 0.6261 0.6030 0.6393
C24 C 0.5759(8) 0.4891(9) 0.5069(5)
H15 H 0.6091 0.5370 0.4903
C25 C 0.9060(9) 0.0412(9) 0.8067(5)
H16 H 0.8590 0.0067 0.7791
C26 C 0.6211(9) 0.3177(11) 0.5498(6)
H17 H 0.5636 0.2937 0.5264
C27 C 0.8114(10) 0.0904(10) 0.9360(5)
H18 H 0.7963 0.0269 0.9423
C28 C 0.4907(7) 0.4598(8) 0.9852(4)
H19 H 0.4483 0.4176 0.9939
C29 C 0.9373(10) 0.4728(11) 0.7867(8)
H20 H 0.9423 0.5327 0.8080
H21 H 0.9300 0.4861 0.7459
H22 H 0.9932 0.4352 0.8034
C30 C 0.8473(12) 0.2761(10) 0.9167(5)
H23 H 0.8606 0.3403 0.9106
C31 C 0.5271(9) 0.3880(13) 0.6753(7)
H24 H 0.4969 0.3345 0.6849
C32 C 1.0425(10) 0.1336(11) 0.8883(6)
H25 H 1.0905 0.1687 0.9147
C33 C 0.6348(11) 0.4991(10) 0.6992(6)
H26 H 0.6859 0.5272 0.7273
C34 C 0.4868(9) 0.4314(13) 0.6190(6)
H27 H 0.4326 0.4056 0.5925
C35 C 0.8697(9) -0.0640(10) 0.4807(5)
H28 H 0.8980 -0.0527 0.4515
O7 O 0.7478(6) -0.3433(5) 0.4958(4)
O8 O 0.6147(6) -0.2396(7) 0.4763(8)
O9 O 0.6962(12) -0.2821(9) 0.5734(8)
C36 C 0.9085(13) 0.2262(11) 0.9628(6)
H29 H 0.9599 0.2580 0.9884
O10 O 0.5791(6) 0.1836(6) 0.7539(4)
C37 C 0.6349(8) 0.1410(8) 0.7327(4)
C38 C 0.6125(12) 0.0420(11) 0.7061(8)
H30 H 0.6626 0.0204 0.6919
H31 H 0.5551 0.0445 0.6737
H32 H 0.6053 -0.0021 0.7356
C39 C 0.9758(10) 0.0715(9) 1.0084(5)
H33 H 1.0135 0.1094 1.0423
C40 C 1.0416(9) 0.0285(9) 0.9718(5)
H34 H 1.1071 0.0473 0.9909
C41 C 0.5118(8) 0.5442(10) 0.5409(5)
H35 H 0.5193 0.6145 0.5396
H36 H 1.032(5) 0.271(5) 0.688(4)
H37 H 1.012(5) 0.340(5) 0.724(5)
Cd1B Cd 0.30937(4) 0.68298(5) 0.21001(2)
Cd1B_2 Cd 1.30937(4) -0.31702(5) 1.21001(2)
Cd1B_3 Cd 0.30937(4) 0.68298(5) 1.21001(2)
Cd2B Cd 0.14689(4) 0.80031(5) 0.29523(3)
Cd2B_2 Cd 1.14689(4) -0.19969(5) 1.29523(3)
S1B S 0.2960(2) 1.2660(2) 0.4829(2)
O1B O 0.2872(5) 0.8207(5) 0.2641(3)
N1B N 0.2370(5) 0.7103(6) 0.3723(3)
O2B O 0.1973(5) 0.5469(5) 0.1813(3)
N2B N 1.0658(6) -0.1242(6) 1.2090(3)
N2B_2 N 0.0658(6) 0.8758(6) 0.2090(3)
O3B O 0.1650(5) 0.6623(5) 0.2329(3)
O4B O 0.0096(6) 0.7141(7) 0.2944(4)
C1B C 0.1620(6) 1.0126(7) 0.4311(4)
O5B O 0.0960(6) 0.8700(6) 0.3799(4)
C2B C 0.2232(7) 1.1621(7) 0.4780(5)
N3B N 0.3982(7) 0.5824(8) 0.2866(4)
N4B N 1.2300(7) -0.2362(7) 1.1194(4)
N4B_2 N 0.2300(7) 0.7638(7) 0.1194(4)
O6B O 0.1930(6) 0.9507(6) 0.3453(3)
C3B C 0.1459(6) 0.5824(8) 0.2087(4)
N5B N 0.3956(6) 0.6260(6) 1.1510(3)
N5B_2 N 0.3956(6) 0.6260(6) 0.1510(3)
C4B C 0.5013(7) 0.6490(8) 1.0956(5)
H1B H 0.5495 0.6856 1.0894
C5B C 0.2142(6) 1.0954(7) 0.4335(4)
H2B H 0.2436 1.1064 0.4049
C6B C 0.3637(7) 0.5489(9) 1.1182(5)
H3B H 0.3156 0.5135 1.1256
C7B C 0.1496(8) 0.9399(8) 0.3814(5)
C8B C 0.9960(9) -0.1660(10) 1.1684(5)
H4B H 0.9709 -0.2220 1.1792
C9B C 1.0550(9) -0.0031(9) 1.1360(5)
H5B H 1.0752 0.0565 1.1264
C10B C 0.2128(8) 0.6209(8) 0.3831(5)
H6B H 0.1541 0.5981 0.3606
C11B C 1.2498(9) -0.1459(10) 1.1094(5)
H7B H 1.3055 -0.1183 1.1330
C12B C 0.3976(8) 0.5179(9) 1.0739(5)
H8B H 0.3733 0.4625 1.0524
C13B C 0.3185(9) 0.7413(9) 0.4063(6)
H9B H 0.3371 0.8041 0.4014
C14B C 0.4633(8) 0.6756(8) 1.1396(5)
H10B H 0.4865 0.7305 1.1619
C15B C 0.3531(8) 0.5898(9) 0.4585(5)
C16B C 0.4685(7) 0.5696(8) 1.0613(4)
C17B C 0.4732(9) 0.4908(9) 0.3957(5)
C18B C 0.1814(8) 1.1480(8) 0.5210(5)
H11B H 0.1873 1.1936 0.5507
C19B C 0.1207(8) 0.9971(8) 0.4749(5)
H12B H 0.0861 0.9410 0.4744
C20B C 0.2680(8) 0.5608(9) 0.4248(5)
H13B H 0.2466 0.4992 0.4300
C21B C 0.9876(8) -0.0535(9) 1.0944(5)
C22B C 1.1056(10) -0.1312(10) 1.0289(4)
C23B C 0.4009(12) 0.4546(10) 0.3539(6)
H14B H 0.3739 0.3970 0.3607
C24B C 0.4241(8) 0.5109(9) 0.4931(5)
H15B H 0.3909 0.4630 0.5097
C25B C 1.0940(9) -0.0412(9) 1.1933(5)
H16B H 1.1410 -0.0067 1.2209
C26B C 0.3789(9) 0.6823(11) 0.4502(6)
H17B H 0.4364 0.7063 0.4736
C27B C 1.1886(10) -0.0904(10) 1.0640(5)
H18B H 1.2037 -0.0269 1.0577
C28B C 0.5093(7) 0.5402(8) 1.0148(4)
H19B H 0.5517 0.5824 1.0061
C29B C 0.0627(10) 0.5272(11) 0.2133(8)
H20B H 0.0577 0.4673 0.1920
H21B H 0.0700 0.5139 0.2541
H22B H 0.0068 0.5648 0.1966
C30B C 1.1527(12) -0.2761(10) 1.0833(5)
H23B H 1.1394 -0.3403 1.0894
C31B C 0.4729(9) 0.6120(13) 0.3247(7)
H24B H 0.5031 0.6655 0.3151
C32B C 0.9575(10) -0.1336(11) 1.1117(6)
H25B H 0.9095 -0.1687 1.0853
C33B C 0.3652(11) 0.5009(10) 0.3008(6)
H26B H 0.3141 0.4728 0.2727
C34B C 0.5132(9) 0.5686(13) 0.3810(6)
H27B H 0.5674 0.5944 0.4075
C35B C 0.1303(9) 1.0640(10) 0.5193(5)
H28B H 0.1020 1.0527 0.5485
O7B O 0.2522(6) 1.3433(5) 0.5042(4)
O8B O 0.3853(6) 1.2396(7) 0.5237(8)
O9B O 0.3038(12) 1.2821(9) 0.4266(8)
C36B C 1.0915(13) -0.2262(11) 1.0372(6)
H29B H 1.0401 -0.2580 1.0116
O10B O 0.4209(6) 0.8164(6) 0.2461(4)
C37B C 0.3651(8) 0.8590(8) 0.2673(4)
C38B C 0.3875(12) 0.9580(11) 0.2939(8)
H30B H 0.3374 0.9796 0.3081
H31B H 0.4449 0.9555 0.3263
H32B H 0.3947 1.0021 0.2644
C39B C 1.0242(10) -0.0715(9) 0.9916(5)
H33B H 0.9865 -0.1094 0.9577
C40B C 0.9584(9) -0.0285(9) 1.0282(5)
H34B H 0.8929 -0.0473 1.0091
C41B C 0.4882(8) 0.4558(10) 0.4591(5)
H35B H 0.4807 0.3855 0.4604
H36B H -0.032(5) 0.729(5) 0.312(4)
H37B H -0.012(5) 0.660(5) 0.276(5)
O11 O 1.0523(8) 0.2361(9) 0.6125(5)
O12 O 0.7855(9) 0.6517(9) 0.8183(6)
O13 O 0.3853(11) 0.1929(12) 0.6656(12)
O14 O 1.180(2) 0.246(4) 0.7883(10)
O15? O 1.1473(18) 0.3608(19) 0.7854(10)
loop_
_geom_bond_atom_site_label_1
_geom_bond_atom_site_label_2
_geom_bond_site_symmetry_1
_geom_bond_site_symmetry_2
Cd1 O1 1_555 1_555
Cd2 O1 1_555 1_555
S1 C2 1_555 1_555
O1 C37 1_555 1_555
N1 Cd2 1_555 1_555
O2 Cd1 1_555 1_555
N2 Cd2 1_555 1_555
O3 Cd1 1_555 1_555
O4 Cd2 1_555 1_555
C1 C5 1_555 1_555
O5 Cd2 1_555 1_555
C2 C5 1_555 1_555
N3 Cd1 1_555 1_555
N4 Cd1 1_555 1_555
O6 Cd2 1_555 1_555
C3 O2 1_555 1_555
N5 Cd1 1_555 1_555
C4 H1 1_555 1_555
C5 H2 1_555 1_555
C6 N5 1_555 1_555
H3 C6 1_555 1_555
C7 C1 1_555 1_555
C8 N2 1_555 1_555
H4 C8 1_555 1_555
C9 H5 1_555 1_555
C10 N1 1_555 1_555
H6 C10 1_555 1_555
C11 N4 1_555 1_555
H7 C11 1_555 1_555
C12 C6 1_555 1_555
H8 C12 1_555 1_555
C13 N1 1_555 1_555
H9 C13 1_555 1_555
C14 N5 1_555 1_555
H10 C14 1_555 1_555
C15 C20 1_555 1_555
C16 C4 1_555 1_555
C17 C23 1_555 1_555
C18 C2 1_555 1_555
H11 C18 1_555 1_555
C19 C1 1_555 1_555
H12 C19 1_555 1_555
C20 C10 1_555 1_555
H13 C20 1_555 1_555
C21 C9 1_555 1_555
C22 C27 1_555 1_555
C23 H14 1_555 1_555
C24 C15 1_555 1_555
H15 C24 1_555 1_555
C25 N2 1_555 1_555
H16 C25 1_555 1_555
C26 C13 1_555 1_555
H17 C26 1_555 1_555
C27 C11 1_555 1_555
H18 C27 1_555 1_555
C28 C16 1_555 1_555
H19 C28 1_555 1_555
C29 C3 1_555 1_555
H20 C29 1_555 1_555
H21 C29 1_555 1_555
H22 C29 1_555 1_555
C30 N4 1_555 1_555
H23 C30 1_555 1_555
C31 N3 1_555 1_555
H24 C31 1_555 1_555
C32 C8 1_555 1_555
H25 C32 1_555 1_555
C33 N3 1_555 1_555
H26 C33 1_555 1_555
C34 C17 1_555 1_555
H27 C34 1_555 1_555
C35 C18 1_555 1_555
H28 C35 1_555 1_555
O7 S1 1_555 1_555
O8 S1 1_555 1_555
O9 S1 1_555 1_555
C36 C22 1_555 1_555
H29 C36 1_555 1_555
O10 Cd1 1_555 1_555
C37 O10 1_555 1_555
C38 C37 1_555 1_555
H30 C38 1_555 1_555
H31 C38 1_555 1_555
H32 C38 1_555 1_555
C39 C22 1_555 1_555
H33 C39 1_555 1_555
C40 C21 1_555 1_555
H34 C40 1_555 1_555
C41 C17 1_555 1_555
H35 C41 1_555 1_555
H36 O4 1_555 1_555
H37 O4 1_555 1_555
Cd1B O1B 1_555 1_555
Cd1B_2 N4B 1_555 1_555
Cd1B_3 N5B 1_555 1_555
Cd2B O1B 1_555 1_555
Cd2B_2 N2B 1_555 1_555
S1B C2B 1_555 1_555
O1B C37B 1_555 1_555
N1B Cd2B 1_555 1_555
O2B Cd1B 1_555 1_555
N2B C8B 1_555 1_555
N2B_2 Cd2B 1_555 1_555
O3B Cd1B 1_555 1_555
O4B Cd2B 1_555 1_555
C1B C5B 1_555 1_555
O5B Cd2B 1_555 1_555
C2B C5B 1_555 1_555
N3B Cd1B 1_555 1_555
N4B C11B 1_555 1_555
N4B_2 Cd1B 1_555 1_555
O6B Cd2B 1_555 1_555
C3B O2B 1_555 1_555
N5B C6B 1_555 1_555
N5B_2 Cd1B 1_555 1_555
C4B H1B 1_555 1_555
C5B H2B 1_555 1_555
C6B H3B 1_555 1_555
C7B C1B 1_555 1_555
C8B H4B 1_555 1_555
C9B H5B 1_555 1_555
C10B N1B 1_555 1_555
H6B C10B 1_555 1_555
C11B H7B 1_555 1_555
C12B C6B 1_555 1_555
H8B C12B 1_555 1_555
C13B N1B 1_555 1_555
H9B C13B 1_555 1_555
C14B N5B 1_555 1_555
H10B C14B 1_555 1_555
C15B C20B 1_555 1_555
C16B C4B 1_555 1_555
C17B C23B 1_555 1_555
C18B C2B 1_555 1_555
H11B C18B 1_555 1_555
C19B C1B 1_555 1_555
H12B C19B 1_555 1_555
C20B C10B 1_555 1_555
H13B C20B 1_555 1_555
C21B C9B 1_555 1_555
C22B C27B 1_555 1_555
C23B H14B 1_555 1_555
C24B C41 1_555 1_555
H15B C24B 1_555 1_555
C25B N2B 1_555 1_555
H16B C25B 1_555 1_555
C26B C13B 1_555 1_555
H17B C26B 1_555 1_555
C27B C11B 1_555 1_555
H18B C27B 1_555 1_555
C28B C28 1_555 1_555
H19B C28B 1_555 1_555
C29B C3B 1_555 1_555
H20B C29B 1_555 1_555
H21B C29B 1_555 1_555
H22B C29B 1_555 1_555
C30B N4B 1_555 1_555
H23B C30B 1_555 1_555
C31B N3B 1_555 1_555
H24B C31B 1_555 1_555
C32B C8B 1_555 1_555
H25B C32B 1_555 1_555
C33B N3B 1_555 1_555
H26B C33B 1_555 1_555
C34B C17B 1_555 1_555
H27B C34B 1_555 1_555
C35B C18B 1_555 1_555
H28B C35B 1_555 1_555
O7B S1B 1_555 1_555
O8B S1B 1_555 1_555
O9B S1B 1_555 1_555
C36B C22B 1_555 1_555
H29B C36B 1_555 1_555
O10B Cd1B 1_555 1_555
C37B O10B 1_555 1_555
C38B C37B 1_555 1_555
H30B C38B 1_555 1_555
H31B C38B 1_555 1_555
H32B C38B 1_555 1_555
C39B C40 1_555 1_555
H33B C39B 1_555 1_555
C40B C39 1_555 1_555
H34B C40B 1_555 1_555
C41B C24 1_555 1_555
H35B C41B 1_555 1_555
H36B O4B 1_555 1_555
H37B O4B 1_555 1_555
Cd2 O3 1_555 1_555
O3 C3 1_555 1_555
O5 C7 1_555 1_555
O6 C7 1_555 1_555
C4 C14 1_555 1_555
C9 C25 1_555 1_555
C12 C16 1_555 1_555
C15 C26 1_555 1_555
C19 C35 1_555 1_555
C21 C32 1_555 1_555
C23 C33 1_555 1_555
C24 C41 1_555 1_555
C30 C36 1_555 1_555
C31 C34 1_555 1_555
C39 C40 1_555 1_555
Cd2B O3B 1_555 1_555
O3B C3B 1_555 1_555
O5B C7B 1_555 1_555
O6B C7B 1_555 1_555
C4B C14B 1_555 1_555
C9B C25B 1_555 1_555
C12B C16B 1_555 1_555
C15B C24B 1_555 1_555
C15B C26B 1_555 1_555
C16B C28B 1_555 1_555
C17B C41B 1_555 1_555
C19B C35B 1_555 1_555
C21B C32B 1_555 1_555
C21B C40B 1_555 1_555
C22B C39B 1_555 1_555
C23B C33B 1_555 1_555
C24B C41B 1_555 1_555
C30B C36B 1_555 1_555
C31B C34B 1_555 1_555
C39B C40B 1_555 1_555

#END
