
#######################################################################
#
#                 Cambridge Crystallographic Data Centre
#                                CCDC 
#
#######################################################################
#
# If this CIF has been generated from an entry in the Cambridge 
# Structural Database, then it will include bibliographic, chemical, 
# crystal, experimental, refinement or atomic coordinate data resulting 
# from the CCDC's data processing and validation procedures.
#
#######################################################################

data_KUPLAJ01
_symmetry_cell_setting           monoclinic
_symmetry_space_group_name_H-M   'P 21/c'
_symmetry_Int_Tables_number      14
_space_group_name_Hall           '-P 2ybc'
loop_
_symmetry_equiv_pos_site_id
_symmetry_equiv_pos_as_xyz
1 x,y,z
2 -x,1/2+y,1/2-z
3 -x,-y,-z
4 x,1/2-y,1/2+z
_cell_length_a                   13.1126(15)
_cell_length_b                   16.1764(19)
_cell_length_c                   17.1279(15)
_cell_angle_alpha                90
_cell_angle_beta                 123.896(6)
_cell_angle_gamma                90
_cell_volume                     3015.64
loop_
_atom_site_label
_atom_site_type_symbol
_atom_site_fract_x
_atom_site_fract_y
_atom_site_fract_z
Cu1 Cu 0.01080(13) 0.25445(8) 0.68951(9)
N1 N -0.1247(9) 0.1915(6) 0.6848(7)
N2 N -0.3120(10) 0.1462(6) 0.6290(7)
N3 N 0.1376(9) 0.3236(5) 0.6893(6)
N4 N 0.3199(10) 0.3743(6) 0.7344(7)
N5 N 0.0758(9) 0.2994(6) 0.8195(6)
N6 N 0.1793(9) 0.3108(6) 0.9722(7)
N7 N -0.0439(9) 0.2025(6) 0.5655(6)
N8 N -0.1474(9) 0.1775(6) 0.4132(7)
C1 C -0.1181(14) 0.1263(8) 0.7395(11)
H1 H -0.0462 0.1046 0.7912
C2 C -0.2317(14) 0.0995(10) 0.7059(11)
H2 H -0.2525 0.0565 0.7305
C3 C -0.2433(12) 0.2016(8) 0.6194(10)
H3 H -0.2749 0.2419 0.5728
C4 C -0.4474(12) 0.1392(10) 0.5692(10)
H4 H -0.4811 0.1852 0.5266
H5 H -0.4788 0.1393 0.6081
H6 H -0.4702 0.0886 0.5340
C5 C 0.0803(14) 0.3795(8) 0.8423(10)
H7 H 0.0445 0.4226 0.7992
C6 C 0.1430(15) 0.3882(9) 0.9345(10)
H8 H 0.1592 0.4374 0.9675
C7 C 0.2516(13) 0.2890(8) 1.0728(8)
H9 H 0.2080 0.3060 1.1003
H10 H 0.3297 0.3165 1.1042
H11 H 0.2641 0.2303 1.0796
C8 C 0.1361(11) 0.2593(8) 0.9003(8)
H12 H 0.1470 0.2023 0.9060
C9 C 0.1222(14) 0.3868(8) 0.6307(10)
H13 H 0.0470 0.4062 0.5805
C10 C 0.2368(14) 0.4178(9) 0.6577(10)
H14 H 0.2524 0.4598 0.6287
C11 C 0.2580(12) 0.3192(7) 0.7510(9)
H15 H 0.2957 0.2818 0.8007
C12 C -0.0518(13) 0.1189(8) 0.5501(9)
H16 H -0.0184 0.0787 0.5970
C13 C -0.1142(14) 0.1037(8) 0.4583(10)
H17 H -0.1319 0.0519 0.4302
C14 C -0.1065(10) 0.2362(7) 0.4809(8)
H18 H -0.1206 0.2926 0.4693
C15 C -0.2229(14) 0.1937(10) 0.3117(9)
H19 H -0.2079 0.2490 0.2999
H20 H -0.3082 0.1878 0.2884
H21 H -0.2020 0.1550 0.2802
C16 C 0.4481(11) 0.3842(7) 0.7837(8)
H22 H 0.4881 0.3442 0.8334
H23 H 0.4703 0.4388 0.8098
H24 H 0.4735 0.3763 0.7414
Mo1 Mo -0.55755(10) 0.62124(7) 0.63474(7)
Mo2 Mo -0.50432(10) 0.40755(6) 0.55931(7)
Mo3 Mo -0.21138(10) 0.45786(6) 0.57315(7)
Mo4 Mo -0.26826(10) 0.57113(6) 0.70778(7)
O1 O -0.2391(7) 0.5480(5) 0.8146(5)
O2 O -0.3990(7) 0.3870(4) 0.5254(5)
O3 O -0.2123(7) 0.4723(4) 0.6828(5)
O4 O -0.4018(7) 0.6480(4) 0.6589(5)
O5 O -0.1372(7) 0.3665(4) 0.6019(5)
O6 O -0.1564(7) 0.6385(4) 0.7284(5)
O7 O -0.6893(7) 0.5478(4) 0.5619(5)
O8 O -0.1075(8) 0.5290(5) 0.5864(6)
O9 O -0.5269(8) 0.6011(5) 0.7416(6)
O10 O -0.6534(7) 0.4321(5) 0.4565(5)
O11 O -0.4508(7) 0.4923(5) 0.6386(5)
O12 O -0.6249(7) 0.7162(5) 0.6049(6)
O13 O -0.5135(9) 0.3229(5) 0.6129(6)
Cu1A Cu -0.01080(13) 0.75445(8) 0.81049(9)
Mo1B Mo -0.44245(10) 0.37876(7) 0.36526(7)
Mo3B Mo -0.78862(10) 0.54214(6) 0.42685(7)
Mo4B Mo -0.73174(10) 0.42887(6) 0.29222(7)
O2B O -0.6010(7) 0.6130(4) 0.4746(5)
O6A O 0.1564(7) 0.1385(4) 0.7716(5)
O7B O -0.3107(7) 0.4522(4) 0.4381(5)
O10B O -0.3466(7) 0.5679(5) 0.5435(5)
loop_
_geom_bond_atom_site_label_1
_geom_bond_atom_site_label_2
_geom_bond_site_symmetry_1
_geom_bond_site_symmetry_2
Cu1 N1 1_555 1_555
N1 C1 1_555 1_555
N2 C2 1_555 1_555
N3 Cu1 1_555 1_555
N4 C10 1_555 1_555
N5 Cu1 1_555 1_555
N6 C6 1_555 1_555
N7 Cu1 1_555 1_555
N8 C13 1_555 1_555
C1 H1 1_555 1_555
C2 C1 1_555 1_555
H2 C2 1_555 1_555
C3 N1 1_555 1_555
H3 C3 1_555 1_555
C4 N2 1_555 1_555
H4 C4 1_555 1_555
H5 C4 1_555 1_555
H6 C4 1_555 1_555
C5 N5 1_555 1_555
H7 C5 1_555 1_555
C6 C5 1_555 1_555
H8 C6 1_555 1_555
C7 N6 1_555 1_555
H9 C7 1_555 1_555
H10 C7 1_555 1_555
H11 C7 1_555 1_555
C8 N5 1_555 1_555
H12 C8 1_555 1_555
C9 N3 1_555 1_555
H13 C9 1_555 1_555
C10 C9 1_555 1_555
H14 C10 1_555 1_555
C11 N3 1_555 1_555
H15 C11 1_555 1_555
C12 N7 1_555 1_555
H16 C12 1_555 1_555
C13 C12 1_555 1_555
H17 C13 1_555 1_555
C14 N7 1_555 1_555
H18 C14 1_555 1_555
C15 N8 1_555 1_555
H19 C15 1_555 1_555
H20 C15 1_555 1_555
H21 C15 1_555 1_555
C16 N4 1_555 1_555
H22 C16 1_555 1_555
H23 C16 1_555 1_555
H24 C16 1_555 1_555
Mo1 O4 1_555 1_555
Mo2 O2 1_555 1_555
Mo3 O2 1_555 1_555
Mo4 O1 1_555 1_555
O2 Mo1B 1_555 1_555
O3 Mo3 1_555 1_555
O4 Mo4 1_555 1_555
O5 Cu1 1_555 1_555
O6 Mo4 1_555 1_555
O7 Mo1 1_555 1_555
O8 Mo3 1_555 1_555
O9 Mo1 1_555 1_555
O10 Mo2 1_555 1_555
O11 Mo1 1_555 1_555
O12 Mo1 1_555 1_555
O13 Mo2 1_555 1_555
Cu1A O6 1_555 1_555
Mo1B O7B 1_555 1_555
Mo3B O7 1_555 1_555
Mo4B O10 1_555 1_555
O2B Mo1 1_555 1_555
O6A Cu1 1_555 1_555
O7B Mo3 1_555 1_555
O10B Mo3 1_555 1_555
N2 C3 1_555 1_555
N4 C11 1_555 1_555
N6 C8 1_555 1_555
N8 C14 1_555 1_555
Mo2 O11 1_555 1_555
Mo3 O5 1_555 1_555
Mo4 O3 1_555 1_555
Mo4 O11 1_555 1_555
Mo4 O10B 1_555 1_555
O10 Mo3B 1_555 1_555
Mo3B O2B 1_555 1_555

#END
