
#######################################################################
#
#                 Cambridge Crystallographic Data Centre
#                                CCDC 
#
#######################################################################
#
# If this CIF has been generated from an entry in the Cambridge 
# Structural Database, then it will include bibliographic, chemical, 
# crystal, experimental, refinement or atomic coordinate data resulting 
# from the CCDC's data processing and validation procedures.
#
#######################################################################

data_KUPNOZ
_symmetry_cell_setting           monoclinic
_symmetry_space_group_name_H-M   'P 21/c'
_symmetry_Int_Tables_number      14
_space_group_name_Hall           '-P 2ybc'
loop_
_symmetry_equiv_pos_site_id
_symmetry_equiv_pos_as_xyz
1 x,y,z
2 -x,1/2+y,1/2-z
3 -x,-y,-z
4 x,1/2-y,1/2+z
_cell_length_a                   8.7660(3)
_cell_length_b                   11.6946(4)
_cell_length_c                   12.5166(5)
_cell_angle_alpha                90
_cell_angle_beta                 108.0880(10)
_cell_angle_gamma                90
_cell_volume                     1219.73
loop_
_atom_site_label
_atom_site_type_symbol
_atom_site_fract_x
_atom_site_fract_y
_atom_site_fract_z
Co1 Co 0.5000 0.0000 0.0000
Co2 Co 1.0000 0.0000 0.5000
O1 O 0.5533(1) -0.1478(1) 0.0928(1)
O2 O 0.3132(1) 0.0103(1) 0.0707(1)
O3 O 0.1513(1) 0.1262(1) 0.1162(1)
O4 O 0.1130(1) 0.0867(1) -0.0591(1)
O5 O 0.9563(1) -0.1428(1) 0.4048(1)
O6 O 1.2047(1) 0.0061(1) 0.4438(1)
O7 O 1.2909(1) 0.1791(1) 0.4935(1)
O8 O 1.4069(1) 0.0732(1) 0.4000(1)
N1 N 0.6484(1) 0.1007(1) 0.1576(1)
N2 N 0.8520(1) 0.1021(1) 0.3450(1)
N3 N 0.6446(1) 0.2515(1) 0.2930(1)
N4 N 0.8570(1) 0.2491(1) 0.2065(1)
N5 N 0.1895(1) 0.0762(1) 0.0412(1)
N6 N 1.3032(1) 0.0867(1) 0.4460(1)
C1 C 0.7490(1) 0.0299(1) 0.2522(1)
C2 C 0.5466(1) 0.1769(1) 0.2031(1)
C3 C 0.7459(1) 0.1799(1) 0.3835(1)
C4 C 0.7567(1) 0.1754(1) 0.1178(1)
C5 C 0.9547(1) 0.1757(1) 0.2978(1)
C6 C 0.7508(1) 0.3224(1) 0.2490(1)
H1 H 0.6033(17) -0.2038(12) 0.0781(13)
H2 H 0.4931(17) -0.1705(13) 0.1284(13)
H3 H 1.0123(17) -0.1683(13) 0.3678(12)
H4 H 0.8996(17) -0.1986(12) 0.4126(13)
H5 H 0.8180 -0.0213 0.2241
H6 H 0.6785 -0.0184 0.2817
H7 H 0.4780 0.2247 0.1415
H8 H 0.4755 0.1295 0.2329
H9 H 0.6763 0.1337 0.4158
H10 H 0.8129 0.2298 0.4438
H11 H 0.8268 0.1269 0.0880
H12 H 0.6912 0.2237 0.0554
H13 H 1.0241 0.2242 0.3583
H14 H 1.0249 0.1266 0.2687
H15 H 0.8168 0.3727 0.3093
H16 H 0.6851 0.3715 0.1873
Co2_2 Co 0.0000 0.0000 -0.5000
O1B O 0.4467(1) 0.1478(1) -0.0928(1)
O2B O 0.6868(1) -0.0103(1) -0.0707(1)
O3B O 0.8487(1) -0.1262(1) -0.1162(1)
O4B O 0.8870(1) -0.0867(1) 0.0591(1)
O5B O 1.0437(1) 0.1428(1) 0.5952(1)
O6B O 0.7953(1) -0.0061(1) 0.5562(1)
O7B O 0.7091(1) -0.1791(1) 0.5065(1)
O8B O 0.5931(1) -0.0732(1) 0.6000(1)
N1B N 0.3516(1) -0.1007(1) -0.1576(1)
N2B N 0.1480(1) -0.1021(1) -0.3450(1)
N2B_2 N 1.1480(1) -0.1021(1) 0.6550(1)
N3B N 0.3554(1) -0.2515(1) -0.2930(1)
N4B N 0.1430(1) -0.2491(1) -0.2065(1)
N5B N 0.8105(1) -0.0762(1) -0.0412(1)
N6B N 0.6968(1) -0.0867(1) 0.5540(1)
C1B C 0.2510(1) -0.0299(1) -0.2522(1)
C2B C 0.4534(1) -0.1769(1) -0.2031(1)
C3B C 0.2541(1) -0.1799(1) -0.3835(1)
C4B C 0.2433(1) -0.1754(1) -0.1178(1)
C5B C 0.0453(1) -0.1757(1) -0.2978(1)
C6B C 0.2492(1) -0.3224(1) -0.2490(1)
H1B H 0.3967(17) 0.2038(12) -0.0781(13)
H2B H 0.5069(17) 0.1705(13) -0.1284(13)
H3B H 0.9877(17) 0.1683(13) 0.6322(12)
H4B H 1.1004(17) 0.1986(12) 0.5874(13)
H5B H 0.1820 0.0213 -0.2241
H6B H 0.3215 0.0184 -0.2817
H7B H 0.5220 -0.2247 -0.1415
H8B H 0.5245 -0.1295 -0.2329
H9B H 0.3237 -0.1337 -0.4158
H10B H 0.1871 -0.2298 -0.4438
H11B H 0.1732 -0.1269 -0.0880
H12B H 0.3088 -0.2237 -0.0554
H13B H -0.0241 -0.2242 -0.3583
H14B H -0.0249 -0.1266 -0.2687
H15B H 0.1832 -0.3727 -0.3093
H16B H 0.3149 -0.3715 -0.1873
loop_
_geom_bond_atom_site_label_1
_geom_bond_atom_site_label_2
_geom_bond_site_symmetry_1
_geom_bond_site_symmetry_2
Co1 O1 1_555 1_555
Co2 O5 1_555 1_555
O1 H1 1_555 1_555
O2 Co1 1_555 1_555
O3 N5 1_555 1_555
O4 N5 1_555 1_555
O5 H3 1_555 1_555
O6 Co2 1_555 1_555
O7 N6 1_555 1_555
O8 N6 1_555 1_555
N1 Co1 1_555 1_555
N2 Co2 1_555 1_555
N3 C2 1_555 1_555
N4 C4 1_555 1_555
N5 O2 1_555 1_555
N6 O6 1_555 1_555
C1 N1 1_555 1_555
C2 N1 1_555 1_555
C3 N2 1_555 1_555
C4 N1 1_555 1_555
C5 N2 1_555 1_555
C6 N3 1_555 1_555
H2 O1 1_555 1_555
H4 O5 1_555 1_555
H5 C1 1_555 1_555
H6 C1 1_555 1_555
H7 C2 1_555 1_555
H8 C2 1_555 1_555
H9 C3 1_555 1_555
H10 C3 1_555 1_555
H11 C4 1_555 1_555
H12 C4 1_555 1_555
H13 C5 1_555 1_555
H14 C5 1_555 1_555
H15 C6 1_555 1_555
H16 C6 1_555 1_555
Co2_2 N2B 1_555 1_555
O1B Co1 1_555 1_555
O2B Co1 1_555 1_555
O3B N5B 1_555 1_555
O4B N5B 1_555 1_555
O5B Co2 1_555 1_555
O6B Co2 1_555 1_555
O7B N6B 1_555 1_555
O8B N6B 1_555 1_555
N1B Co1 1_555 1_555
N2B C1B 1_555 1_555
N2B_2 Co2 1_555 1_555
N3B C2B 1_555 1_555
N4B C4B 1_555 1_555
N5B O2B 1_555 1_555
N6B O6B 1_555 1_555
C1B N1B 1_555 1_555
C2B N1B 1_555 1_555
C3B N2B 1_555 1_555
C4B N1B 1_555 1_555
C5B N2B 1_555 1_555
C6B N3B 1_555 1_555
H1B O1B 1_555 1_555
H2B O1B 1_555 1_555
H3B O5B 1_555 1_555
H4B O5B 1_555 1_555
H5B C1B 1_555 1_555
H6B C1B 1_555 1_555
H7B C2B 1_555 1_555
H8B C2B 1_555 1_555
H9B C3B 1_555 1_555
H10B C3B 1_555 1_555
H11B C4B 1_555 1_555
H12B C4B 1_555 1_555
H13B C5B 1_555 1_555
H14B C5B 1_555 1_555
H15B C6B 1_555 1_555
H16B C6B 1_555 1_555
N2 C1 1_555 1_555
N3 C3 1_555 1_555
N4 C5 1_555 1_555
N4 C6 1_555 1_555
N3B C3B 1_555 1_555
N4B C5B 1_555 1_555
N4B C6B 1_555 1_555

#END
