
#######################################################################
#
#                 Cambridge Crystallographic Data Centre
#                                CCDC 
#
#######################################################################
#
# If this CIF has been generated from an entry in the Cambridge 
# Structural Database, then it will include bibliographic, chemical, 
# crystal, experimental, refinement or atomic coordinate data resulting 
# from the CCDC's data processing and validation procedures.
#
#######################################################################

data_KUPQET
_symmetry_cell_setting           monoclinic
_symmetry_space_group_name_H-M   'P 21/c'
_symmetry_Int_Tables_number      14
_space_group_name_Hall           '-P 2ybc'
loop_
_symmetry_equiv_pos_site_id
_symmetry_equiv_pos_as_xyz
1 x,y,z
2 -x,1/2+y,1/2-z
3 -x,-y,-z
4 x,1/2-y,1/2+z
_cell_length_a                   9.37920(10)
_cell_length_b                   10.4526(2)
_cell_length_c                   17.0528(3)
_cell_angle_alpha                90
_cell_angle_beta                 96.1740(10)
_cell_angle_gamma                90
_cell_volume                     1662.11
loop_
_atom_site_label
_atom_site_type_symbol
_atom_site_fract_x
_atom_site_fract_y
_atom_site_fract_z
Zn1 Zn 0.58148(2) 0.469099(18) 0.228406(11)
N1 N 0.76547(15) 0.54845(13) 0.19545(8)
N2 N 0.91450(15) 0.68905(13) 0.15374(8)
N3 N 0.68950(16) 0.70436(14) -0.04937(8)
N4 N 0.55954(16) 0.58379(14) -0.13523(8)
O1 O 0.58591(15) 0.48314(13) 0.34497(8)
O2 O 0.35317(17) 0.43770(15) 0.33794(10)
O3 O 0.51270(13) 0.16520(12) 0.27787(8)
O4 O 0.68667(13) 0.28989(12) 0.24132(8)
C1 C 0.78794(18) 0.67128(16) 0.18249(10)
H1 H 0.7247 0.7366 0.192
C2 C 0.88439(19) 0.48547(17) 0.17423(11)
H2 H 0.899 0.3975 0.1773
C3 C 0.97683(19) 0.57132(19) 0.14819(11)
H3 H 1.0649 0.5538 0.1302
C4 C 0.97457(19) 0.81362(17) 0.13294(10)
H4 H 1.0583 0.8322 0.1697
H5 H 0.9041 0.88 0.1386
C5 C 1.01674(18) 0.81713(16) 0.04970(10)
C6 C 1.1626(2) 0.8209(2) 0.04043(14)
H6 H 1.2299 0.8174 0.0846
C7 C 1.2081(3) 0.8299(2) -0.03388(17)
H7 H 1.3057 0.8305 -0.0394
C8 C 1.1100(3) 0.8378(2) -0.09947(15)
H8 H 1.141 0.846 -0.1492
C9 C 0.9652(3) 0.8338(2) -0.09143(12)
H9 H 0.899 0.8387 -0.136
C10 C 0.91716(19) 0.82230(16) -0.01703(10)
C11 C 0.75707(19) 0.82002(17) -0.01292(11)
H10 H 0.7383 0.8241 0.0419
H11 H 0.7143 0.8949 -0.0395
C12 C 0.6030(2) 0.70130(17) -0.11742(10)
H12 H 0.5771 0.7729 -0.1481
C13 C 0.7031(2) 0.58073(19) -0.02249(11)
H13 H 0.7572 0.5528 0.0232
C14 C 0.6222(2) 0.50760(19) -0.07541(11)
H14 H 0.6108 0.4195 -0.0719
C15 C 0.4706(2) 0.45909(19) 0.37305(12)
H15 H 0.4756 0.4574 0.4278
C16 C 0.63810(18) 0.18748(16) 0.26510(10)
H16 H 0.703 0.1205 0.2743
Zn1A Zn 0.41852(2) -0.030901(18) 0.271594(11)
Zn1B Zn 0.41852(2) 0.530901(18) -0.228406(11)
N4B N 0.44046(16) 0.41621(14) 0.13523(8)
O3A O 0.48730(13) 0.66520(12) 0.22213(8)
loop_
_geom_bond_atom_site_label_1
_geom_bond_atom_site_label_2
_geom_bond_site_symmetry_1
_geom_bond_site_symmetry_2
Zn1 N1 1_555 1_555
N1 C1 1_555 1_555
N2 C1 1_555 1_555
N3 C11 1_555 1_555
N4 C12 1_555 1_555
O1 Zn1 1_555 1_555
O2 C15 1_555 1_555
O3 C16 1_555 1_555
O4 Zn1 1_555 1_555
C1 H1 1_555 1_555
C2 N1 1_555 1_555
H2 C2 1_555 1_555
C3 N2 1_555 1_555
H3 C3 1_555 1_555
C4 N2 1_555 1_555
H4 C4 1_555 1_555
H5 C4 1_555 1_555
C5 C4 1_555 1_555
C6 C5 1_555 1_555
H6 C6 1_555 1_555
C7 C6 1_555 1_555
H7 C7 1_555 1_555
C8 C7 1_555 1_555
H8 C8 1_555 1_555
C9 C8 1_555 1_555
H9 C9 1_555 1_555
C10 C5 1_555 1_555
C11 C10 1_555 1_555
H10 C11 1_555 1_555
H11 C11 1_555 1_555
C12 N3 1_555 1_555
H12 C12 1_555 1_555
C13 N3 1_555 1_555
H13 C13 1_555 1_555
C14 N4 1_555 1_555
H14 C14 1_555 1_555
C15 O1 1_555 1_555
H15 C15 1_555 1_555
C16 O4 1_555 1_555
H16 C16 1_555 1_555
Zn1A O3 1_555 1_555
Zn1B N4 1_555 1_555
N4B Zn1 1_555 1_555
O3A Zn1 1_555 1_555
C2 C3 1_555 1_555
C9 C10 1_555 1_555
C13 C14 1_555 1_555

#END
