
#######################################################################
#
#                 Cambridge Crystallographic Data Centre
#                                CCDC 
#
#######################################################################
#
# If this CIF has been generated from an entry in the Cambridge 
# Structural Database, then it will include bibliographic, chemical, 
# crystal, experimental, refinement or atomic coordinate data resulting 
# from the CCDC's data processing and validation procedures.
#
#######################################################################

data_KUPTIA
_symmetry_cell_setting           rhombohedral
_symmetry_space_group_name_H-M   'R -3'
_symmetry_Int_Tables_number      148
_space_group_name_Hall           '-R 3'
loop_
_symmetry_equiv_pos_site_id
_symmetry_equiv_pos_as_xyz
1 x,y,z
2 -y,x-y,z
3 -x+y,-x,z
4 2/3+x,1/3+y,1/3+z
5 2/3-y,1/3+x-y,1/3+z
6 2/3-x+y,1/3-x,1/3+z
7 1/3+x,2/3+y,2/3+z
8 1/3-y,2/3+x-y,2/3+z
9 1/3-x+y,2/3-x,2/3+z
10 -x,-y,-z
11 y,-x+y,-z
12 x-y,x,-z
13 1/3-x,2/3-y,2/3-z
14 1/3+y,2/3-x+y,2/3-z
15 1/3+x-y,2/3+x,2/3-z
16 2/3-x,1/3-y,1/3-z
17 2/3+y,1/3-x+y,1/3-z
18 2/3+x-y,1/3+x,1/3-z
_cell_length_a                   40.979(4)
_cell_length_b                   40.979(4)
_cell_length_c                   16.064(3)
_cell_angle_alpha                90
_cell_angle_beta                 90
_cell_angle_gamma                120
_cell_volume                     23361.8
loop_
_atom_site_label
_atom_site_type_symbol
_atom_site_fract_x
_atom_site_fract_y
_atom_site_fract_z
I1 I 0.126210(12) 0.779869(11) 0.26133(2)
Cu1 Cu 0.19102(2) 0.842494(19) 0.27333(4)
Cu2 Cu 0.483979(16) 0.988719(17) 0.57337(4)
O1 O 0.44233(10) 0.94954(12) 0.5091(2)
O2 O 0.46926(10) 0.96822(11) 0.3831(2)
O3 O 0.31127(12) 1.10889(9) 0.2106(2)
O4 O 0.29133(11) 1.11628(9) 0.0862(2)
N1 N 0.23389(15) 0.83031(17) 0.2603(4)
N2 N 0.25719(15) 0.79373(17) 0.1978(4)
N3 N 0.19484(13) 0.87496(11) 0.1709(3)
N4 N 0.18623(11) 0.87873(11) 0.0264(2)
C1 C 0.23098(19) 0.8017(2) 0.2172(5)
H1 H 0.2069 0.7848 0.1978
C2 C 0.26867(18) 0.85342(18) 0.2911(4)
H2 H 0.2726 0.8743 0.3218
C3 C 0.29840(18) 0.8476(2) 0.2795(4)
C4 C 0.29107(19) 0.8172(2) 0.2288(5)
H3 H 0.3108 0.8131 0.2160
C5 C 0.33565(18) 0.87285(19) 0.3164(4)
C6 C 0.33761(18) 0.8858(2) 0.3959(4)
H4 H 0.3154 0.8789 0.4247
C7 C 0.37199(17) 0.9091(2) 0.4347(4)
H5 H 0.3727 0.9168 0.4895
C8 C 0.40495(19) 0.9207(2) 0.3910(5)
C9 C 0.40324(17) 0.9087(2) 0.3102(4)
H6 H 0.4254 0.9172 0.2798
C10 C 0.3691(2) 0.8841(3) 0.2736(4)
H7 H 0.3685 0.8750 0.2203
C11 C 0.4421(2) 0.9483(2) 0.4304(5)
C12 C 0.18196(14) 0.85952(13) 0.0952(3)
H8 H 0.1691 0.8334 0.0914
C13 C 0.21276(17) 0.91280(14) 0.1743(3)
H9 H 0.2222 0.9245 0.2253
C14 C 0.21780(15) 0.93526(13) 0.1056(3)
C15 C 0.20406(15) 0.91627(14) 0.0315(3)
H10 H 0.2073 0.9301 -0.0168
C16 C 0.23688(16) 0.97665(13) 0.1139(3)
C17 C 0.26805(18) 0.99524(15) 0.1663(4)
H11 H 0.2769 0.9816 0.1953
C18 C 0.28567(17) 1.03379(14) 0.1752(4)
H12 H 0.3062 1.0459 0.2108
C19 C 0.27353(16) 1.05481(14) 0.1327(3)
C20 C 0.24324(19) 1.03636(16) 0.0781(4)
H13 H 0.2351 1.0501 0.0471
C21 C 0.22514(19) 0.99750(16) 0.0701(4)
H14 H 0.2047 0.9854 0.0343
C22 C 0.29330(16) 1.09665(14) 0.1444(3)
I1L I 0.207123(12) 0.886798(11) 0.40534(2)
Cu1L Cu 0.14231(2) 0.824173(19) 0.39334(4)
Cu2E Cu 0.171407(23) 0.849354(16) -0.09330(4)
Cu2G Cu 0.344614(17) 1.161927(23) 0.24004(4)
Cu2I Cu 0.516021(16) 1.011281(17) 0.42663(4)
Cu2M Cu 0.322052(17) 1.171407(23) 0.09330(4)
O2I O 0.53074(10) 1.03178(11) 0.6169(2)
O3E O 0.46429(15) 1.02206(12) 0.5439(2)
O4N O 0.50838(14) 0.95800(11) 0.5805(2)
N4G N 0.45460(11) 0.97417(16) 0.6931(2)
O5 O 0.0204(3) 0.2922(3) 0.9144(6)
N5 N -0.0278(3) 0.2978(3) 0.9659(7)
C23 C -0.0130(6) 0.2807(8) 0.9239(18)
H15 H -0.0297 0.2577 0.8995
C24 C -0.0662(5) 0.2738(7) 0.9570(16)
H16 H -0.0706 0.2535 0.9205
H17 H -0.0774 0.2875 0.9339
H18 H -0.0771 0.2639 1.0105
C25 C -0.0133(8) 0.3278(7) 1.0101(17)
H19 H 0.0137 0.3396 1.0084
H20 H -0.0217 0.3214 1.0666
H21 H -0.0208 0.3448 0.9886
O6 O 0.0703(4) 0.3728(4) 0.1657(10)
N6 N 0.1076(4) 0.4200(3) 0.0647(8)
C26 C 0.0791(5) 0.4011(6) 0.1160(12)
H22 H 0.0619 0.4096 0.1168
C27 C 0.1277(5) 0.4030(5) 0.0534(12)
H23 H 0.1472 0.4169 0.0134
H24 H 0.1115 0.3779 0.0333
H25 H 0.1388 0.4020 0.1053
C28 C 0.1107(6) 0.4516(5) 0.0308(13)
H26 H 0.1324 0.4632 -0.0048
H27 H 0.1133 0.4688 0.0743
H28 H 0.0885 0.4452 -0.0012
O7 O 0.0708(11) 0.2011(12) 0.040(3)
N7 N 0.1186(8) 0.2274(9) 0.133(2)
C29 C 0.1040(11) 0.2067(15) 0.065(2)
H29 H 0.1166 0.1967 0.0355
C30 C 0.1045(11) 0.2087(14) 0.204(2)
H30 H 0.0775 0.1969 0.2024
H31 H 0.1142 0.2259 0.2498
H32 H 0.1116 0.1898 0.2097
C31 C 0.1563(8) 0.2427(9) 0.131(2)
H33 H 0.1658 0.2566 0.0802
H34 H 0.1625 0.2231 0.1335
H35 H 0.1673 0.2593 0.1776
loop_
_geom_bond_atom_site_label_1
_geom_bond_atom_site_label_2
_geom_bond_site_symmetry_1
_geom_bond_site_symmetry_2
I1 Cu1 1_555 1_555
Cu1 N1 1_555 1_555
Cu2 O1 1_555 1_555
O1 C11 1_555 1_555
O2 C11 1_555 1_555
O3 C22 1_555 1_555
O4 C22 1_555 1_555
N1 C1 1_555 1_555
N2 C1 1_555 1_555
N3 Cu1 1_555 1_555
N4 C12 1_555 1_555
C1 H1 1_555 1_555
C2 N1 1_555 1_555
H2 C2 1_555 1_555
C3 C2 1_555 1_555
C4 N2 1_555 1_555
H3 C4 1_555 1_555
C5 C3 1_555 1_555
C6 C5 1_555 1_555
H4 C6 1_555 1_555
C7 C6 1_555 1_555
H5 C7 1_555 1_555
C8 C7 1_555 1_555
C9 C8 1_555 1_555
H6 C9 1_555 1_555
C10 C5 1_555 1_555
H7 C10 1_555 1_555
C11 C8 1_555 1_555
C12 N3 1_555 1_555
H8 C12 1_555 1_555
C13 N3 1_555 1_555
H9 C13 1_555 1_555
C14 C13 1_555 1_555
C15 N4 1_555 1_555
H10 C15 1_555 1_555
C16 C14 1_555 1_555
C17 C16 1_555 1_555
H11 C17 1_555 1_555
C18 C17 1_555 1_555
H12 C18 1_555 1_555
C19 C18 1_555 1_555
C20 C19 1_555 1_555
H13 C20 1_555 1_555
C21 C16 1_555 1_555
H14 C21 1_555 1_555
C22 C19 1_555 1_555
O5 C23 1_555 1_555
N5 C23 1_555 1_555
C23 H15 1_555 1_555
C24 N5 1_555 1_555
H16 C24 1_555 1_555
H17 C24 1_555 1_555
H18 C24 1_555 1_555
C25 N5 1_555 1_555
H19 C25 1_555 1_555
H20 C25 1_555 1_555
H21 C25 1_555 1_555
O6 C26 1_555 1_555
N6 C26 1_555 1_555
C26 H22 1_555 1_555
C27 N6 1_555 1_555
H23 C27 1_555 1_555
H24 C27 1_555 1_555
H25 C27 1_555 1_555
C28 N6 1_555 1_555
H26 C28 1_555 1_555
H27 C28 1_555 1_555
H28 C28 1_555 1_555
O7 C29 1_555 1_555
N7 C29 1_555 1_555
C29 H29 1_555 1_555
C30 N7 1_555 1_555
H30 C30 1_555 1_555
H31 C30 1_555 1_555
H32 C30 1_555 1_555
C31 N7 1_555 1_555
H33 C31 1_555 1_555
H34 C31 1_555 1_555
H35 C31 1_555 1_555
I1L Cu1 1_555 1_555
Cu1L I1 1_555 1_555
Cu2E N4 1_555 1_555
Cu2G O3 1_555 1_555
Cu2I Cu2 1_555 1_555
Cu2M O4 1_555 1_555
O2I Cu2 1_555 1_555
O3E Cu2 1_555 1_555
O4N Cu2 1_555 1_555
N4G Cu2 1_555 1_555
Cu1 Cu1L 1_555 1_555
O2 Cu2I 1_555 1_555
C3 C4 1_555 1_555
C9 C10 1_555 1_555
C14 C15 1_555 1_555
C20 C21 1_555 1_555
I1L Cu1L 1_555 1_555
Cu2G Cu2M 1_555 1_555

#END
