
#######################################################################
#
#                 Cambridge Crystallographic Data Centre
#                                CCDC 
#
#######################################################################
#
# If this CIF has been generated from an entry in the Cambridge 
# Structural Database, then it will include bibliographic, chemical, 
# crystal, experimental, refinement or atomic coordinate data resulting 
# from the CCDC's data processing and validation procedures.
#
#######################################################################

data_KUPTIY
_symmetry_cell_setting           monoclinic
_symmetry_space_group_name_H-M   'P 21/c'
_symmetry_Int_Tables_number      14
_space_group_name_Hall           '-P 2ybc'
loop_
_symmetry_equiv_pos_site_id
_symmetry_equiv_pos_as_xyz
1 x,y,z
2 -x,1/2+y,1/2-z
3 -x,-y,-z
4 x,1/2-y,1/2+z
_cell_length_a                   7.944(3)
_cell_length_b                   11.267(3)
_cell_length_c                   13.562(5)
_cell_angle_alpha                90
_cell_angle_beta                 103.84(3)
_cell_angle_gamma                90
_cell_volume                     1178.63
loop_
_atom_site_label
_atom_site_type_symbol
_atom_site_fract_x
_atom_site_fract_y
_atom_site_fract_z
O6 O 0.3876(2) 0.1894(1) 0.6248(1)
H3 H 0.4881(41) 0.1807(26) 0.6091(22)
H4 H 0.3453(33) 0.2445(25) 0.5906(19)
O7 O 0.1907(2) 0.1093(2) 0.0541(2)
H5 H 0.1069(37) 0.1175(25) 0.0539(21)
H6 H 0.1802(40) 0.0360(29) 0.0145(24)
Cu1 Cu 0.0000 0.0000 0.5000
O1 O -0.0112(2) 0.1279(1) 0.5968(1)
O2 O -0.2962(2) 0.1478(1) 0.5819(1)
O3 O -0.0858(2) -0.1347(2) 0.6055(1)
O4 O -0.1756(2) 0.4045(1) 0.5697(1)
O5 O -0.2449(2) 0.0245(1) 0.4232(1)
N1 N 0.0828(2) 0.2680(2) 0.7494(1)
N2 N -0.2121(2) 0.3390(1) 0.7200(1)
C1 C -0.1416(3) 0.1662(2) 0.6244(1)
C2 C -0.1006(2) 0.2352(2) 0.7267(1)
C3 C -0.1404(3) 0.1522(2) 0.8068(2)
C4 C -0.1636(3) -0.1697(2) 0.6677(2)
C5 C -0.3523(3) -0.1451(2) 0.6573(2)
C6 C -0.2411(3) 0.4164(2) 0.6431(2)
C7 C -0.3637(4) 0.5156(2) 0.6493(2)
H1 H -0.2916(38) -0.0518(30) 0.4088(23)
H2 H -0.2780(38) 0.0577(28) 0.4643(23)
H7 H 0.1381(36) 0.2429(26) 0.7096(22)
H8 H -0.2333(38) 0.3616(25) 0.7621(22)
H9 H -0.1206 0.1929 0.8707
H10 H -0.0663 0.0839 0.8135
H11 H -0.2593 0.1275 0.7866
H12 H -0.3730 -0.0613 0.6496
H13 H -0.3858 -0.1725 0.7168
H14 H -0.4192 -0.1857 0.5986
H15 H -0.3949 0.5560 0.5852
H16 H -0.3087 0.5704 0.7013
H17 H -0.4661 0.4840 0.6655
O1B O 0.0112(2) -0.1279(1) 0.4032(1)
O3B O 0.0858(2) 0.1347(2) 0.3945(1)
O5B O 0.2449(2) -0.0245(1) 0.5768(1)
C4A C 0.1636(3) 0.3303(2) 0.8323(2)
N1A N -0.0828(2) -0.2320(2) 0.7506(1)
C1B C 0.1416(3) -0.1662(2) 0.3756(1)
C4B C 0.1636(3) 0.1697(2) 0.3323(2)
H1B H 0.2916(38) 0.0518(30) 0.5912(23)
H2B H 0.2780(38) -0.0577(28) 0.5357(23)
O3A O 0.0858(2) 0.3653(2) 0.8945(1)
C5A C 0.3523(3) 0.3549(2) 0.8427(2)
C2A C 0.1006(2) -0.2648(2) 0.7733(1)
H7A H -0.1381(36) -0.2571(26) 0.7904(22)
O2B O 0.2962(2) -0.1478(1) 0.4181(1)
C2B C 0.1006(2) -0.2352(2) 0.2733(1)
N1C N 0.0828(2) 0.2320(2) 0.2494(1)
C5B C 0.3523(3) 0.1451(2) 0.3427(2)
Cu1A Cu 0.0000 0.5000 1.0000
H12A H 0.3730 0.4387 0.8504
H13A H 0.3858 0.3275 0.7832
H14A H 0.4192 0.3143 0.9014
N2A N 0.2121(2) -0.1610(1) 0.7800(1)
C1A C 0.1416(3) -0.3338(2) 0.8756(1)
C3A C 0.1404(3) -0.3478(2) 0.6932(2)
N1B N -0.0828(2) -0.2680(2) 0.2506(1)
N2B N 0.2121(2) -0.3390(1) 0.2800(1)
C3B C 0.1404(3) -0.1522(2) 0.1932(2)
C2C C -0.1006(2) 0.2648(2) 0.2267(1)
H7C H 0.1381(36) 0.2571(26) 0.2096(22)
H12B H 0.3730 0.0613 0.3504
H13B H 0.3858 0.1725 0.2832
H14B H 0.4192 0.1857 0.4014
O1A O 0.0112(2) 0.6279(1) 0.9032(1)
O1C O -0.0112(2) 0.3721(1) 1.0968(1)
O3C O -0.0858(2) 0.6347(2) 1.1055(1)
O5A O 0.2449(2) 0.5245(1) 1.0768(1)
O5C O -0.2449(2) 0.4755(1) 0.9232(1)
C6A C 0.2411(3) -0.0836(2) 0.8569(2)
H8A H 0.2333(38) -0.1384(25) 0.7379(22)
O1A_2 O 0.0112(2) -0.3721(1) 0.9032(1)
O2A O 0.2962(2) -0.3522(1) 0.9181(1)
H9A H 0.1206 -0.3071 0.6293
H10A H 0.0663 -0.4161 0.6865
H11A H 0.2593 -0.3725 0.7134
C4C C -0.1636(3) -0.3303(2) 0.1677(2)
H7B H -0.1381(36) -0.2429(26) 0.2904(22)
C6B C 0.2411(3) -0.4164(2) 0.3569(2)
H8B H 0.2333(38) -0.3616(25) 0.2379(22)
H9B H 0.1206 -0.1929 0.1293
H10B H 0.0663 -0.0839 0.1865
H11B H 0.2593 -0.1275 0.2134
N2C N -0.2121(2) 0.1610(1) 0.2200(1)
C1C C -0.1416(3) 0.3338(2) 0.1244(1)
C3C C -0.1404(3) 0.3478(2) 0.3068(2)
C1A_2 C 0.1416(3) 0.6662(2) 0.8756(1)
C1C_2 C -0.1416(3) 0.3338(2) 1.1244(1)
C4C_2 C -0.1636(3) 0.6697(2) 1.1677(2)
H1A H 0.2916(38) 0.4482(30) 1.0912(23)
H2A H 0.2780(38) 0.5577(28) 1.0357(23)
H1C H -0.2916(38) 0.5518(30) 0.9088(23)
H2C H -0.2780(38) 0.4423(28) 0.9643(23)
O4A O 0.1756(2) -0.0955(1) 0.9303(1)
C7A C 0.3637(4) 0.0156(2) 0.8507(2)
O3C_2 O -0.0858(2) -0.3653(2) 0.1055(1)
C5C C -0.3523(3) -0.3549(2) 0.1573(2)
O4B O 0.1756(2) -0.4045(1) 0.4303(1)
C7B C 0.3637(4) -0.5156(2) 0.3507(2)
C6C C -0.2411(3) 0.0836(2) 0.1431(2)
H8C H -0.2333(38) 0.1384(25) 0.2621(22)
O1C_2 O -0.0112(2) 0.3721(1) 0.0968(1)
O2C O -0.2962(2) 0.3522(1) 0.0819(1)
H9C H -0.1206 0.3071 0.3707
H10C H -0.0663 0.4161 0.3135
H11C H -0.2593 0.3725 0.2866
H15A H 0.3949 0.0560 0.9148
H16A H 0.3087 0.0704 0.7987
H17A H 0.4661 -0.0160 0.8345
H12C H -0.3730 -0.4387 0.1496
H13C H -0.3858 -0.3275 0.2168
H14C H -0.4192 -0.3143 0.0986
H15B H 0.3949 -0.5560 0.4148
H16B H 0.3087 -0.5704 0.2987
H17B H 0.4661 -0.4840 0.3345
O4C O -0.1756(2) 0.0955(1) 0.0697(1)
C7C C -0.3637(4) -0.0156(2) 0.1493(2)
H15C H -0.3949 -0.0560 0.0852
H16C H -0.3087 -0.0704 0.2013
H17C H -0.4661 0.0160 0.1655
loop_
_geom_bond_atom_site_label_1
_geom_bond_atom_site_label_2
_geom_bond_site_symmetry_1
_geom_bond_site_symmetry_2
Cu1 O1 1_555 1_555
O1 C1 1_555 1_555
O2 C1 1_555 1_555
O3 Cu1 1_555 1_555
O4 C6 1_555 1_555
O5 Cu1 1_555 1_555
O6 H3 1_555 1_555
O7 H5 1_555 1_555
N1 C2 1_555 1_555
N2 C2 1_555 1_555
C1 C2 1_555 1_555
C2 C3 1_555 1_555
C3 H9 1_555 1_555
C4 O3 1_555 1_555
C5 C4 1_555 1_555
C6 N2 1_555 1_555
C7 C6 1_555 1_555
H1 O5 1_555 1_555
H2 O5 1_555 1_555
H4 O6 1_555 1_555
H6 O7 1_555 1_555
H7 N1 1_555 1_555
H8 N2 1_555 1_555
H10 C3 1_555 1_555
H11 C3 1_555 1_555
H12 C5 1_555 1_555
H13 C5 1_555 1_555
H14 C5 1_555 1_555
H15 C7 1_555 1_555
H16 C7 1_555 1_555
H17 C7 1_555 1_555
O1B Cu1 1_555 1_555
O3B Cu1 1_555 1_555
O5B Cu1 1_555 1_555
C4A N1 1_555 1_555
N1A C4 1_555 1_555
C1B O1B 1_555 1_555
C4B O3B 1_555 1_555
H1B O5B 1_555 1_555
H2B O5B 1_555 1_555
O3A C4A 1_555 1_555
C5A C4A 1_555 1_555
C2A N1A 1_555 1_555
H7A N1A 1_555 1_555
O2B C1B 1_555 1_555
C2B C1B 1_555 1_555
N1C C4B 1_555 1_555
C5B C4B 1_555 1_555
Cu1A O3A 1_555 1_555
H12A C5A 1_555 1_555
H13A C5A 1_555 1_555
H14A C5A 1_555 1_555
N2A C2A 1_555 1_555
C1A C2A 1_555 1_555
C3A C2A 1_555 1_555
N1B C2B 1_555 1_555
N2B C2B 1_555 1_555
C3B C2B 1_555 1_555
C2C N1C 1_555 1_555
H7C N1C 1_555 1_555
H12B C5B 1_555 1_555
H13B C5B 1_555 1_555
H14B C5B 1_555 1_555
O1A Cu1A 1_555 1_555
O1C Cu1A 1_555 1_555
O3C Cu1A 1_555 1_555
O5A Cu1A 1_555 1_555
O5C Cu1A 1_555 1_555
C6A N2A 1_555 1_555
H8A N2A 1_555 1_555
O1A_2 C1A 1_555 1_555
O2A C1A 1_555 1_555
H9A C3A 1_555 1_555
H10A C3A 1_555 1_555
H11A C3A 1_555 1_555
C4C N1B 1_555 1_555
H7B N1B 1_555 1_555
C6B N2B 1_555 1_555
H8B N2B 1_555 1_555
H9B C3B 1_555 1_555
H10B C3B 1_555 1_555
H11B C3B 1_555 1_555
N2C C2C 1_555 1_555
C1C C2C 1_555 1_555
C3C C2C 1_555 1_555
C1A_2 O1A 1_555 1_555
C1C_2 O1C 1_555 1_555
C4C_2 O3C 1_555 1_555
H1A O5A 1_555 1_555
H2A O5A 1_555 1_555
H1C O5C 1_555 1_555
H2C O5C 1_555 1_555
O4A C6A 1_555 1_555
C7A C6A 1_555 1_555
O3C_2 C4C 1_555 1_555
C5C C4C 1_555 1_555
O4B C6B 1_555 1_555
C7B C6B 1_555 1_555
C6C N2C 1_555 1_555
H8C N2C 1_555 1_555
O1C_2 C1C 1_555 1_555
O2C C1C 1_555 1_555
H9C C3C 1_555 1_555
H10C C3C 1_555 1_555
H11C C3C 1_555 1_555
H15A C7A 1_555 1_555
H16A C7A 1_555 1_555
H17A C7A 1_555 1_555
H12C C5C 1_555 1_555
H13C C5C 1_555 1_555
H14C C5C 1_555 1_555
H15B C7B 1_555 1_555
H16B C7B 1_555 1_555
H17B C7B 1_555 1_555
O4C C6C 1_555 1_555
C7C C6C 1_555 1_555
H15C C7C 1_555 1_555
H16C C7C 1_555 1_555
H17C C7C 1_555 1_555

#END
