
#######################################################################
#
#                 Cambridge Crystallographic Data Centre
#                                CCDC 
#
#######################################################################
#
# If this CIF has been generated from an entry in the Cambridge 
# Structural Database, then it will include bibliographic, chemical, 
# crystal, experimental, refinement or atomic coordinate data resulting 
# from the CCDC's data processing and validation procedures.
#
#######################################################################

data_KUPTOE
_symmetry_cell_setting           monoclinic
_symmetry_space_group_name_H-M   'P 21/c'
_symmetry_Int_Tables_number      14
_space_group_name_Hall           '-P 2ybc'
loop_
_symmetry_equiv_pos_site_id
_symmetry_equiv_pos_as_xyz
1 x,y,z
2 -x,1/2+y,1/2-z
3 -x,-y,-z
4 x,1/2-y,1/2+z
_cell_length_a                   8.018(3)
_cell_length_b                   11.309(3)
_cell_length_c                   13.364(8)
_cell_angle_alpha                90
_cell_angle_beta                 103.41(6)
_cell_angle_gamma                90
_cell_volume                     1178.75
loop_
_atom_site_label
_atom_site_type_symbol
_atom_site_fract_x
_atom_site_fract_y
_atom_site_fract_z
O6 O 0.3886(3) 0.1925(2) 0.6286(2)
H3 H 0.4925(47) 0.1949(34) 0.6179(28)
H4 H 0.3431(48) 0.2426(34) 0.6029(31)
O7 O 0.1864(3) 0.1122(2) 0.0549(2)
H5 H 0.1984(44) 0.0576(34) 0.0270(28)
H6 H 0.0952(45) 0.1223(31) 0.0581(27)
Zn1 Zn 0.0000 0.0000 0.5000
O1 O -0.0156(2) 0.1348(2) 0.6007(1)
O2 O -0.2984(2) 0.1538(2) 0.5837(1)
O3 O -0.0683(3) -0.1246(2) 0.6018(2)
O4 O -0.1755(3) 0.4099(2) 0.5712(2)
O5 O -0.2567(2) 0.0245(2) 0.4208(1)
N1 N 0.0722(3) 0.2748(2) 0.7550(2)
N2 N -0.2196(3) 0.3459(2) 0.7227(2)
C1 C -0.1457(3) 0.1730(2) 0.6278(2)
C2 C -0.1099(3) 0.2417(2) 0.7308(2)
C3 C -0.1530(4) 0.1602(3) 0.8116(2)
C4 C -0.1491(3) -0.1612(2) 0.6630(2)
C5 C -0.3369(4) -0.1375(3) 0.6509(2)
C6 C -0.2448(3) 0.4218(2) 0.6433(2)
C7 C -0.3676(4) 0.5213(3) 0.6490(3)
H1 H -0.3040(43) -0.0436(34) 0.4078(28)
H2 H -0.2980(47) 0.0588(35) 0.4600(30)
H7 H 0.1360(40) 0.2442(32) 0.7116(27)
H8 H -0.2504(43) 0.3660(32) 0.7691(28)
H9 H -0.2737 0.1434 0.7945
H10 H -0.1227 0.1979 0.8777
H11 H -0.0899 0.0878 0.8137
H12 H -0.3574 -0.0538 0.6454
H13 H -0.3729 -0.1675 0.7098
H14 H -0.4007 -0.1759 0.5900
H15 H -0.4832 0.4945 0.6233
H16 H -0.3449 0.5866 0.6082
H17 H -0.3527 0.5461 0.7192
O1B O 0.0156(2) -0.1348(2) 0.3993(1)
O3B O 0.0683(3) 0.1246(2) 0.3982(2)
O5B O 0.2567(2) -0.0245(2) 0.5792(1)
C4A C 0.1491(3) 0.3388(2) 0.8370(2)
N1A N -0.0722(3) -0.2252(2) 0.7450(2)
C1B C 0.1457(3) -0.1730(2) 0.3722(2)
C4B C 0.1491(3) 0.1612(2) 0.3370(2)
H1B H 0.3040(43) 0.0436(34) 0.5922(28)
H2B H 0.2980(47) -0.0588(35) 0.5400(30)
O3A O 0.0683(3) 0.3754(2) 0.8982(2)
C5A C 0.3369(4) 0.3625(3) 0.8491(2)
C2A C 0.1099(3) -0.2583(2) 0.7692(2)
H7A H -0.1360(40) -0.2558(32) 0.7884(27)
O2B O 0.2984(2) -0.1538(2) 0.4163(1)
C2B C 0.1099(3) -0.2417(2) 0.2692(2)
N1C N 0.0722(3) 0.2252(2) 0.2550(2)
C5B C 0.3369(4) 0.1375(3) 0.3491(2)
Zn1A Zn 0.0000 0.5000 1.0000
H12A H 0.3574 0.4462 0.8546
H13A H 0.3729 0.3325 0.7902
H14A H 0.4007 0.3241 0.9100
N2A N 0.2196(3) -0.1541(2) 0.7773(2)
C1A C 0.1457(3) -0.3270(2) 0.8722(2)
C3A C 0.1530(4) -0.3398(3) 0.6884(2)
N1B N -0.0722(3) -0.2748(2) 0.2450(2)
N2B N 0.2196(3) -0.3459(2) 0.2773(2)
C3B C 0.1530(4) -0.1602(3) 0.1884(2)
C2C C -0.1099(3) 0.2583(2) 0.2308(2)
H7C H 0.1360(40) 0.2558(32) 0.2116(27)
H12B H 0.3574 0.0538 0.3546
H13B H 0.3729 0.1675 0.2902
H14B H 0.4007 0.1759 0.4100
O1A O 0.0156(2) 0.6348(2) 0.8993(1)
O1C O -0.0156(2) 0.3652(2) 1.1007(1)
O3C O -0.0683(3) 0.6246(2) 1.1018(2)
O5A O 0.2567(2) 0.5245(2) 1.0792(1)
O5C O -0.2567(2) 0.4755(2) 0.9208(1)
C6A C 0.2448(3) -0.0782(2) 0.8567(2)
H8A H 0.2504(43) -0.1340(32) 0.7309(28)
O1A_2 O 0.0156(2) -0.3652(2) 0.8993(1)
O2A O 0.2984(2) -0.3462(2) 0.9163(1)
H9A H 0.2737 -0.3566 0.7055
H10A H 0.1227 -0.3021 0.6223
H11A H 0.0899 -0.4122 0.6863
C4C C -0.1491(3) -0.3388(2) 0.1630(2)
H7B H -0.1360(40) -0.2442(32) 0.2884(27)
C6B C 0.2448(3) -0.4218(2) 0.3567(2)
H8B H 0.2504(43) -0.3660(32) 0.2309(28)
H9B H 0.2737 -0.1434 0.2055
H10B H 0.1227 -0.1979 0.1223
H11B H 0.0899 -0.0878 0.1863
N2C N -0.2196(3) 0.1541(2) 0.2227(2)
C1C C -0.1457(3) 0.3270(2) 0.1278(2)
C3C C -0.1530(4) 0.3398(3) 0.3116(2)
C1A_2 C 0.1457(3) 0.6730(2) 0.8722(2)
C1C_2 C -0.1457(3) 0.3270(2) 1.1278(2)
C4C_2 C -0.1491(3) 0.6612(2) 1.1630(2)
H1A H 0.3040(43) 0.4564(34) 1.0922(28)
H2A H 0.2980(47) 0.5588(35) 1.0400(30)
H1C H -0.3040(43) 0.5436(34) 0.9078(28)
H2C H -0.2980(47) 0.4412(35) 0.9600(30)
O4A O 0.1755(3) -0.0901(2) 0.9288(2)
C7A C 0.3676(4) 0.0213(3) 0.8510(3)
O3C_2 O -0.0683(3) -0.3754(2) 0.1018(2)
C5C C -0.3369(4) -0.3625(3) 0.1509(2)
O4B O 0.1755(3) -0.4099(2) 0.4288(2)
C7B C 0.3676(4) -0.5213(3) 0.3510(3)
C6C C -0.2448(3) 0.0782(2) 0.1433(2)
H8C H -0.2504(43) 0.1340(32) 0.2691(28)
O1C_2 O -0.0156(2) 0.3652(2) 0.1007(1)
O2C O -0.2984(2) 0.3462(2) 0.0837(1)
H9C H -0.2737 0.3566 0.2945
H10C H -0.1227 0.3021 0.3777
H11C H -0.0899 0.4122 0.3137
H15A H 0.4832 -0.0055 0.8767
H16A H 0.3449 0.0866 0.8918
H17A H 0.3527 0.0461 0.7808
H12C H -0.3574 -0.4462 0.1454
H13C H -0.3729 -0.3325 0.2098
H14C H -0.4007 -0.3241 0.0900
H15B H 0.4832 -0.4945 0.3767
H16B H 0.3449 -0.5866 0.3918
H17B H 0.3527 -0.5461 0.2808
O4C O -0.1755(3) 0.0901(2) 0.0712(2)
C7C C -0.3676(4) -0.0213(3) 0.1490(3)
H15C H -0.4832 0.0055 0.1233
H16C H -0.3449 -0.0866 0.1082
H17C H -0.3527 -0.0461 0.2192
loop_
_geom_bond_atom_site_label_1
_geom_bond_atom_site_label_2
_geom_bond_site_symmetry_1
_geom_bond_site_symmetry_2
Zn1 O1 1_555 1_555
O1 C1 1_555 1_555
O2 C1 1_555 1_555
O3 Zn1 1_555 1_555
O4 C6 1_555 1_555
O5 Zn1 1_555 1_555
O6 H3 1_555 1_555
O7 H5 1_555 1_555
N1 C2 1_555 1_555
N2 C2 1_555 1_555
C1 C2 1_555 1_555
C2 C3 1_555 1_555
C3 H9 1_555 1_555
C4 O3 1_555 1_555
C5 C4 1_555 1_555
C6 N2 1_555 1_555
C7 C6 1_555 1_555
H1 O5 1_555 1_555
H2 O5 1_555 1_555
H4 O6 1_555 1_555
H6 O7 1_555 1_555
H7 N1 1_555 1_555
H8 N2 1_555 1_555
H10 C3 1_555 1_555
H11 C3 1_555 1_555
H12 C5 1_555 1_555
H13 C5 1_555 1_555
H14 C5 1_555 1_555
H15 C7 1_555 1_555
H16 C7 1_555 1_555
H17 C7 1_555 1_555
O1B Zn1 1_555 1_555
O3B Zn1 1_555 1_555
O5B Zn1 1_555 1_555
C4A N1 1_555 1_555
N1A C4 1_555 1_555
C1B O1B 1_555 1_555
C4B O3B 1_555 1_555
H1B O5B 1_555 1_555
H2B O5B 1_555 1_555
O3A C4A 1_555 1_555
C5A C4A 1_555 1_555
C2A N1A 1_555 1_555
H7A N1A 1_555 1_555
O2B C1B 1_555 1_555
C2B C1B 1_555 1_555
N1C C4B 1_555 1_555
C5B C4B 1_555 1_555
Zn1A O3A 1_555 1_555
H12A C5A 1_555 1_555
H13A C5A 1_555 1_555
H14A C5A 1_555 1_555
N2A C2A 1_555 1_555
C1A C2A 1_555 1_555
C3A C2A 1_555 1_555
N1B C2B 1_555 1_555
N2B C2B 1_555 1_555
C3B C2B 1_555 1_555
C2C N1C 1_555 1_555
H7C N1C 1_555 1_555
H12B C5B 1_555 1_555
H13B C5B 1_555 1_555
H14B C5B 1_555 1_555
O1A Zn1A 1_555 1_555
O1C Zn1A 1_555 1_555
O3C Zn1A 1_555 1_555
O5A Zn1A 1_555 1_555
O5C Zn1A 1_555 1_555
C6A N2A 1_555 1_555
H8A N2A 1_555 1_555
O1A_2 C1A 1_555 1_555
O2A C1A 1_555 1_555
H9A C3A 1_555 1_555
H10A C3A 1_555 1_555
H11A C3A 1_555 1_555
C4C N1B 1_555 1_555
H7B N1B 1_555 1_555
C6B N2B 1_555 1_555
H8B N2B 1_555 1_555
H9B C3B 1_555 1_555
H10B C3B 1_555 1_555
H11B C3B 1_555 1_555
N2C C2C 1_555 1_555
C1C C2C 1_555 1_555
C3C C2C 1_555 1_555
C1A_2 O1A 1_555 1_555
C1C_2 O1C 1_555 1_555
C4C_2 O3C 1_555 1_555
H1A O5A 1_555 1_555
H2A O5A 1_555 1_555
H1C O5C 1_555 1_555
H2C O5C 1_555 1_555
O4A C6A 1_555 1_555
C7A C6A 1_555 1_555
O3C_2 C4C 1_555 1_555
C5C C4C 1_555 1_555
O4B C6B 1_555 1_555
C7B C6B 1_555 1_555
C6C N2C 1_555 1_555
H8C N2C 1_555 1_555
O1C_2 C1C 1_555 1_555
O2C C1C 1_555 1_555
H9C C3C 1_555 1_555
H10C C3C 1_555 1_555
H11C C3C 1_555 1_555
H15A C7A 1_555 1_555
H16A C7A 1_555 1_555
H17A C7A 1_555 1_555
H12C C5C 1_555 1_555
H13C C5C 1_555 1_555
H14C C5C 1_555 1_555
H15B C7B 1_555 1_555
H16B C7B 1_555 1_555
H17B C7B 1_555 1_555
O4C C6C 1_555 1_555
C7C C6C 1_555 1_555
H15C C7C 1_555 1_555
H16C C7C 1_555 1_555
H17C C7C 1_555 1_555

#END
