
#######################################################################
#
#                 Cambridge Crystallographic Data Centre
#                                CCDC 
#
#######################################################################
#
# If this CIF has been generated from an entry in the Cambridge 
# Structural Database, then it will include bibliographic, chemical, 
# crystal, experimental, refinement or atomic coordinate data resulting 
# from the CCDC's data processing and validation procedures.
#
#######################################################################

data_KUPTEU
_symmetry_cell_setting           monoclinic
_symmetry_space_group_name_H-M   'P 21/c'
_symmetry_Int_Tables_number      14
_space_group_name_Hall           '-P 2ybc'
loop_
_symmetry_equiv_pos_site_id
_symmetry_equiv_pos_as_xyz
1 x,y,z
2 -x,1/2+y,1/2-z
3 -x,-y,-z
4 x,1/2-y,1/2+z
_cell_length_a                   8.011(5)
_cell_length_b                   11.339(6)
_cell_length_c                   13.337(7)
_cell_angle_alpha                90
_cell_angle_beta                 103.22(4)
_cell_angle_gamma                90
_cell_volume                     1179.38
loop_
_atom_site_label
_atom_site_type_symbol
_atom_site_fract_x
_atom_site_fract_y
_atom_site_fract_z
O6 O 0.3882(2) 0.1930(2) 0.6293(1)
H3 H 0.4876(42) 0.1964(27) 0.6200(24)
H4 H 0.3459(39) 0.2428(26) 0.5990(22)
O7 O 0.1852(3) 0.1129(2) 0.0553(2)
H5 H 0.1912(37) 0.0524(28) 0.0190(23)
H6 H 0.0885(43) 0.1183(29) 0.0518(26)
Co1 Co 0.0000 0.0000 0.5000
O1 O -0.0160(2) 0.1358(1) 0.6020(1)
O2 O -0.2997(2) 0.1555(1) 0.5837(1)
O3 O -0.0654(2) -0.1224(1) 0.6006(1)
O4 O -0.1757(2) 0.4111(1) 0.5712(1)
O5 O -0.2582(2) 0.0243(1) 0.4210(1)
N1 N 0.0699(2) 0.2760(2) 0.7565(1)
N2 N -0.2217(2) 0.3475(2) 0.7228(1)
C1 C -0.1468(3) 0.1739(2) 0.6284(2)
C2 C -0.1123(3) 0.2441(2) 0.7315(2)
C3 C -0.1559(3) 0.1620(2) 0.8129(2)
C4 C -0.1467(3) -0.1591(2) 0.6621(2)
C5 C -0.3345(3) -0.1364(2) 0.6498(2)
C6 C -0.2460(3) 0.4239(2) 0.6439(2)
C7 C -0.3678(4) 0.5236(2) 0.6485(2)
H1 H -0.3063(37) -0.0426(30) 0.4107(22)
H2 H -0.2890(41) 0.0570(30) 0.4646(25)
H7 H 0.1318(37) 0.2468(27) 0.7145(23)
H8 H -0.2471(40) 0.3694(29) 0.7717(26)
H9 H -0.1302 0.2008 0.8786
H10 H -0.0892 0.0911 0.8168
H11 H -0.2757 0.1426 0.7944
H12 H -0.3962 -0.1670 0.5847
H13 H -0.3540 -0.0530 0.6523
H14 H -0.3737 -0.1745 0.7044
H15 H -0.3469 0.5536 0.7176
H16 H -0.4837 0.4955 0.6282
H17 H -0.3505 0.5854 0.6027
O1B O 0.0160(2) -0.1358(1) 0.3980(1)
O3B O 0.0654(2) 0.1224(1) 0.3994(1)
O5B O 0.2582(2) -0.0243(1) 0.5790(1)
C4A C 0.1467(3) 0.3409(2) 0.8379(2)
N1A N -0.0699(2) -0.2240(2) 0.7435(1)
C1B C 0.1468(3) -0.1739(2) 0.3716(2)
C4B C 0.1467(3) 0.1591(2) 0.3379(2)
H1B H 0.3063(37) 0.0426(30) 0.5893(22)
H2B H 0.2890(41) -0.0570(30) 0.5354(25)
O3A O 0.0654(2) 0.3776(1) 0.8994(1)
C5A C 0.3345(3) 0.3636(2) 0.8502(2)
C2A C 0.1123(3) -0.2559(2) 0.7685(2)
H7A H -0.1318(37) -0.2532(27) 0.7855(23)
O2B O 0.2997(2) -0.1555(1) 0.4163(1)
C2B C 0.1123(3) -0.2441(2) 0.2685(2)
N1C N 0.0699(2) 0.2240(2) 0.2565(1)
C5B C 0.3345(3) 0.1364(2) 0.3502(2)
Co1A Co 0.0000 0.5000 1.0000
H12A H 0.3962 0.3330 0.9153
H13A H 0.3540 0.4470 0.8477
H14A H 0.3737 0.3255 0.7956
N2A N 0.2217(2) -0.1525(2) 0.7772(1)
C1A C 0.1468(3) -0.3261(2) 0.8716(2)
C3A C 0.1559(3) -0.3380(2) 0.6871(2)
N1B N -0.0699(2) -0.2760(2) 0.2435(1)
N2B N 0.2217(2) -0.3475(2) 0.2772(1)
C3B C 0.1559(3) -0.1620(2) 0.1871(2)
C2C C -0.1123(3) 0.2559(2) 0.2315(2)
H7C H 0.1318(37) 0.2532(27) 0.2145(23)
H12B H 0.3962 0.1670 0.4153
H13B H 0.3540 0.0530 0.3477
H14B H 0.3737 0.1745 0.2956
O1A O 0.0160(2) 0.6358(1) 0.8980(1)
O1C O -0.0160(2) 0.3642(1) 1.1020(1)
O3C O -0.0654(2) 0.6224(1) 1.1006(1)
O5A O 0.2582(2) 0.5243(1) 1.0790(1)
O5C O -0.2582(2) 0.4757(1) 0.9210(1)
C6A C 0.2460(3) -0.0761(2) 0.8561(2)
H8A H 0.2471(40) -0.1306(29) 0.7283(26)
O1A_2 O 0.0160(2) -0.3642(1) 0.8980(1)
O2A O 0.2997(2) -0.3445(1) 0.9163(1)
H9A H 0.1302 -0.2992 0.6214
H10A H 0.0892 -0.4089 0.6832
H11A H 0.2757 -0.3574 0.7056
C4C C -0.1467(3) -0.3409(2) 0.1621(2)
H7B H -0.1318(37) -0.2468(27) 0.2855(23)
C6B C 0.2460(3) -0.4239(2) 0.3561(2)
H8B H 0.2471(40) -0.3694(29) 0.2283(26)
H9B H 0.1302 -0.2008 0.1214
H10B H 0.0892 -0.0911 0.1832
H11B H 0.2757 -0.1426 0.2056
N2C N -0.2217(2) 0.1525(2) 0.2228(1)
C1C C -0.1468(3) 0.3261(2) 0.1284(2)
C3C C -0.1559(3) 0.3380(2) 0.3129(2)
C1A_2 C 0.1468(3) 0.6739(2) 0.8716(2)
C1C_2 C -0.1468(3) 0.3261(2) 1.1284(2)
C4C_2 C -0.1467(3) 0.6591(2) 1.1621(2)
H1A H 0.3063(37) 0.4574(30) 1.0893(22)
H2A H 0.2890(41) 0.5570(30) 1.0354(25)
H1C H -0.3063(37) 0.5426(30) 0.9107(22)
H2C H -0.2890(41) 0.4430(30) 0.9646(25)
O4A O 0.1757(2) -0.0889(1) 0.9288(1)
C7A C 0.3678(4) 0.0236(2) 0.8515(2)
O3C_2 O -0.0654(2) -0.3776(1) 0.1006(1)
C5C C -0.3345(3) -0.3636(2) 0.1498(2)
O4B O 0.1757(2) -0.4111(1) 0.4288(1)
C7B C 0.3678(4) -0.5236(2) 0.3515(2)
C6C C -0.2460(3) 0.0761(2) 0.1439(2)
H8C H -0.2471(40) 0.1306(29) 0.2717(26)
O1C_2 O -0.0160(2) 0.3642(1) 0.1020(1)
O2C O -0.2997(2) 0.3445(1) 0.0837(1)
H9C H -0.1302 0.2992 0.3786
H10C H -0.0892 0.4089 0.3168
H11C H -0.2757 0.3574 0.2944
H15A H 0.3469 0.0536 0.7824
H16A H 0.4837 -0.0045 0.8718
H17A H 0.3505 0.0854 0.8973
H12C H -0.3962 -0.3330 0.0847
H13C H -0.3540 -0.4470 0.1523
H14C H -0.3737 -0.3255 0.2044
H15B H 0.3469 -0.5536 0.2824
H16B H 0.4837 -0.4955 0.3718
H17B H 0.3505 -0.5854 0.3973
O4C O -0.1757(2) 0.0889(1) 0.0712(1)
C7C C -0.3678(4) -0.0236(2) 0.1485(2)
H15C H -0.3469 -0.0536 0.2176
H16C H -0.4837 0.0045 0.1282
H17C H -0.3505 -0.0854 0.1027
loop_
_geom_bond_atom_site_label_1
_geom_bond_atom_site_label_2
_geom_bond_site_symmetry_1
_geom_bond_site_symmetry_2
Co1 O1 1_555 1_555
O1 C1 1_555 1_555
O2 C1 1_555 1_555
O3 Co1 1_555 1_555
O4 C6 1_555 1_555
O5 Co1 1_555 1_555
O6 H3 1_555 1_555
O7 H5 1_555 1_555
N1 C2 1_555 1_555
N2 C2 1_555 1_555
C1 C2 1_555 1_555
C2 C3 1_555 1_555
C3 H9 1_555 1_555
C4 O3 1_555 1_555
C5 C4 1_555 1_555
C6 N2 1_555 1_555
C7 C6 1_555 1_555
H1 O5 1_555 1_555
H2 O5 1_555 1_555
H4 O6 1_555 1_555
H6 O7 1_555 1_555
H7 N1 1_555 1_555
H8 N2 1_555 1_555
H10 C3 1_555 1_555
H11 C3 1_555 1_555
H12 C5 1_555 1_555
H13 C5 1_555 1_555
H14 C5 1_555 1_555
H15 C7 1_555 1_555
H16 C7 1_555 1_555
H17 C7 1_555 1_555
O1B Co1 1_555 1_555
O3B Co1 1_555 1_555
O5B Co1 1_555 1_555
C4A N1 1_555 1_555
N1A C4 1_555 1_555
C1B O1B 1_555 1_555
C4B O3B 1_555 1_555
H1B O5B 1_555 1_555
H2B O5B 1_555 1_555
O3A C4A 1_555 1_555
C5A C4A 1_555 1_555
C2A N1A 1_555 1_555
H7A N1A 1_555 1_555
O2B C1B 1_555 1_555
C2B C1B 1_555 1_555
N1C C4B 1_555 1_555
C5B C4B 1_555 1_555
Co1A O3A 1_555 1_555
H12A C5A 1_555 1_555
H13A C5A 1_555 1_555
H14A C5A 1_555 1_555
N2A C2A 1_555 1_555
C1A C2A 1_555 1_555
C3A C2A 1_555 1_555
N1B C2B 1_555 1_555
N2B C2B 1_555 1_555
C3B C2B 1_555 1_555
C2C N1C 1_555 1_555
H7C N1C 1_555 1_555
H12B C5B 1_555 1_555
H13B C5B 1_555 1_555
H14B C5B 1_555 1_555
O1A Co1A 1_555 1_555
O1C Co1A 1_555 1_555
O3C Co1A 1_555 1_555
O5A Co1A 1_555 1_555
O5C Co1A 1_555 1_555
C6A N2A 1_555 1_555
H8A N2A 1_555 1_555
O1A_2 C1A 1_555 1_555
O2A C1A 1_555 1_555
H9A C3A 1_555 1_555
H10A C3A 1_555 1_555
H11A C3A 1_555 1_555
C4C N1B 1_555 1_555
H7B N1B 1_555 1_555
C6B N2B 1_555 1_555
H8B N2B 1_555 1_555
H9B C3B 1_555 1_555
H10B C3B 1_555 1_555
H11B C3B 1_555 1_555
N2C C2C 1_555 1_555
C1C C2C 1_555 1_555
C3C C2C 1_555 1_555
C1A_2 O1A 1_555 1_555
C1C_2 O1C 1_555 1_555
C4C_2 O3C 1_555 1_555
H1A O5A 1_555 1_555
H2A O5A 1_555 1_555
H1C O5C 1_555 1_555
H2C O5C 1_555 1_555
O4A C6A 1_555 1_555
C7A C6A 1_555 1_555
O3C_2 C4C 1_555 1_555
C5C C4C 1_555 1_555
O4B C6B 1_555 1_555
C7B C6B 1_555 1_555
C6C N2C 1_555 1_555
H8C N2C 1_555 1_555
O1C_2 C1C 1_555 1_555
O2C C1C 1_555 1_555
H9C C3C 1_555 1_555
H10C C3C 1_555 1_555
H11C C3C 1_555 1_555
H15A C7A 1_555 1_555
H16A C7A 1_555 1_555
H17A C7A 1_555 1_555
H12C C5C 1_555 1_555
H13C C5C 1_555 1_555
H14C C5C 1_555 1_555
H15B C7B 1_555 1_555
H16B C7B 1_555 1_555
H17B C7B 1_555 1_555
O4C C6C 1_555 1_555
C7C C6C 1_555 1_555
H15C C7C 1_555 1_555
H16C C7C 1_555 1_555
H17C C7C 1_555 1_555

#END
