
#######################################################################
#
#                 Cambridge Crystallographic Data Centre
#                                CCDC 
#
#######################################################################
#
# If this CIF has been generated from an entry in the Cambridge 
# Structural Database, then it will include bibliographic, chemical, 
# crystal, experimental, refinement or atomic coordinate data resulting 
# from the CCDC's data processing and validation procedures.
#
#######################################################################

data_KUPVUN
_symmetry_cell_setting           monoclinic
_symmetry_space_group_name_H-M   'P 2/c'
_symmetry_Int_Tables_number      13
_space_group_name_Hall           '-P 2yc'
loop_
_symmetry_equiv_pos_site_id
_symmetry_equiv_pos_as_xyz
1 x,y,z
2 -x,y,1/2-z
3 -x,-y,-z
4 x,-y,1/2+z
_cell_length_a                   11.9078(2)
_cell_length_b                   9.94740(10)
_cell_length_c                   17.7290(3)
_cell_angle_alpha                90
_cell_angle_beta                 102.361(2)
_cell_angle_gamma                90
_cell_volume                     2051.35
loop_
_atom_site_label
_atom_site_type_symbol
_atom_site_fract_x
_atom_site_fract_y
_atom_site_fract_z
Fe1 Fe 0.5000 0.52760(7) 0.7500
N1 N 0.3912(3) 0.6750(3) 0.77995(18)
N2 N 0.3880(3) 1.3800(3) 0.77583(18)
N3 N -0.3066(4) 1.0412(6) 0.9631(2)
N4 N 0.0629(3) 0.9211(4) 0.87063(19)
H1 H 0.0449 0.8402 0.8805
N5 N 0.0556(3) 1.1422(3) 0.86022(18)
C1 C 0.3473(4) 0.6600(4) 0.8447(2)
H2 H 0.3707 0.5860 0.8763
C2 C 0.2711(4) 0.7476(4) 0.8655(2)
H3 H 0.2414 0.7310 0.9091
C3 C 0.2384(4) 0.8611(4) 0.8214(2)
C4 C 0.2843(4) 0.8800(4) 0.7562(2)
H4 H 0.2654 0.9560 0.7256
C5 C 0.3583(4) 0.7846(4) 0.7376(2)
H5 H 0.3867 0.7976 0.6932
C6 C 0.4243(4) 1.2719(4) 0.8189(2)
H6 H 0.5031 1.2604 0.8362
C7 C 0.3525(3) 1.1763(4) 0.8395(2)
H7 H 0.3828 1.1025 0.8692
C8 C 0.2338(3) 1.1920(4) 0.8150(2)
C9 C 0.1954(3) 1.3049(4) 0.7707(2)
H8 H 0.1170 1.3200 0.7536
C10 C 0.2729(3) 1.3935(4) 0.7523(2)
H9 H 0.2449 1.4672 0.7218
C11 C -0.2617(4) 1.1531(7) 0.9397(3)
H10 H -0.3006 1.2338 0.9411
C12 C -0.1597(4) 1.1550(5) 0.9134(2)
H11 H -0.1315 1.2352 0.8980
C13 C -0.1002(4) 1.0345(5) 0.9105(2)
C14 C -0.1465(5) 0.9188(6) 0.9360(3)
H12 H -0.1097 0.8365 0.9353
C15 C -0.2466(5) 0.9270(7) 0.9620(3)
H13 H -0.2749 0.8488 0.9800
C16 C 0.1564(4) 0.9580(4) 0.8421(2)
C17 C 0.0042(4) 1.0323(4) 0.8806(2)
C18 C 0.1527(3) 1.0966(4) 0.8366(2)
N6 N 0.5900(3) 0.5278(3) 0.8583(2)
C19 C 0.6393(6) 0.5424(5) 0.9188(4)
S1 S 0.7077(4) 0.5629(3) 1.00887(12)
Fe1_2 Fe 0.5000 1.52760(7) 0.7500
Fe1_3 Fe 0.5000 -0.47240(7) 0.7500
N1_2 N 0.3912(3) -0.3250(3) 0.77995(18)
N1A N 0.6088(3) 0.6750(3) 0.72005(18)
N2_2 N 0.3880(3) 0.3800(3) 0.77583(18)
N2A N 0.6120(3) 0.3800(3) 0.72417(18)
N3_2 N -0.3066(4) 0.0412(6) 0.9631(2)
N4_2 N 0.0629(3) -0.0789(4) 0.87063(19)
H1_2 H 0.0449 -0.1598 0.8805
N5_2 N 0.0556(3) 0.1422(3) 0.86022(18)
C1_2 C 0.3473(4) -0.3400(4) 0.8447(2)
H2_2 H 0.3707 -0.4140 0.8763
C2_2 C 0.2711(4) -0.2524(4) 0.8655(2)
H3_2 H 0.2414 -0.2690 0.9091
C3_2 C 0.2384(4) -0.1389(4) 0.8214(2)
C4_2 C 0.2843(4) -0.1200(4) 0.7562(2)
H4_2 H 0.2654 -0.0440 0.7256
C5_2 C 0.3583(4) -0.2154(4) 0.7376(2)
H5_2 H 0.3867 -0.2024 0.6932
C6_2 C 0.4243(4) 0.2719(4) 0.8189(2)
H6_2 H 0.5031 0.2604 0.8362
C7_2 C 0.3525(3) 0.1763(4) 0.8395(2)
H7_2 H 0.3828 0.1025 0.8692
C8_2 C 0.2338(3) 0.1920(4) 0.8150(2)
C9_2 C 0.1954(3) 0.3049(4) 0.7707(2)
H8_2 H 0.1170 0.3200 0.7536
C10_2 C 0.2729(3) 0.3935(4) 0.7523(2)
H9_2 H 0.2449 0.4672 0.7218
C11_2 C -0.2617(4) 0.1531(7) 0.9397(3)
H10_2 H -0.3006 0.2338 0.9411
C12_2 C -0.1597(4) 0.1550(5) 0.9134(2)
H11_2 H -0.1315 0.2352 0.8980
C13_2 C -0.1002(4) 0.0345(5) 0.9105(2)
C14_2 C -0.1465(5) -0.0812(6) 0.9360(3)
H12_2 H -0.1097 -0.1635 0.9353
C15_2 C -0.2466(5) -0.0730(7) 0.9620(3)
H13_2 H -0.2749 -0.1512 0.9800
C16_2 C 0.1564(4) -0.0420(4) 0.8421(2)
C17_2 C 0.0042(4) 0.0323(4) 0.8806(2)
C18_2 C 0.1527(3) 0.0966(4) 0.8366(2)
N6A N 0.4100(3) 0.5278(3) 0.6417(2)
C19A C 0.3607(6) 0.5424(5) 0.5812(4)
S1A S 0.2923(4) 0.5629(3) 0.49113(12)
loop_
_geom_bond_atom_site_label_1
_geom_bond_atom_site_label_2
_geom_bond_site_symmetry_1
_geom_bond_site_symmetry_2
Fe1 N1 1_555 1_555
N1 C1 1_555 1_555
N2 C6 1_555 1_555
N3 C11 1_555 1_555
N4 H1 1_555 1_555
N5 C17 1_555 1_555
C1 H2 1_555 1_555
C2 C1 1_555 1_555
H3 C2 1_555 1_555
C3 C2 1_555 1_555
C4 C3 1_555 1_555
H4 C4 1_555 1_555
C5 N1 1_555 1_555
H5 C5 1_555 1_555
C6 H6 1_555 1_555
C7 C6 1_555 1_555
H7 C7 1_555 1_555
C8 C7 1_555 1_555
C9 C8 1_555 1_555
H8 C9 1_555 1_555
C10 N2 1_555 1_555
H9 C10 1_555 1_555
C11 H10 1_555 1_555
C12 C11 1_555 1_555
H11 C12 1_555 1_555
C13 C12 1_555 1_555
C14 C13 1_555 1_555
H12 C14 1_555 1_555
C15 N3 1_555 1_555
H13 C15 1_555 1_555
C16 N4 1_555 1_555
C17 N4 1_555 1_555
C18 N5 1_555 1_555
N6 Fe1 1_555 1_555
C19 N6 1_555 1_555
S1 C19 1_555 1_555
Fe1_2 N2 1_555 1_555
Fe1_3 N1_2 1_555 1_555
N1_2 C1_2 1_555 1_555
N1A Fe1 1_555 1_555
N2_2 Fe1 1_555 1_555
N2A Fe1 1_555 1_555
N3_2 C11_2 1_555 1_555
N4_2 H1_2 1_555 1_555
N5_2 C17_2 1_555 1_555
C1_2 H2_2 1_555 1_555
C2_2 C1_2 1_555 1_555
H3_2 C2_2 1_555 1_555
C3_2 C2_2 1_555 1_555
C4_2 C3_2 1_555 1_555
H4_2 C4_2 1_555 1_555
C5_2 N1_2 1_555 1_555
H5_2 C5_2 1_555 1_555
C6_2 N2_2 1_555 1_555
H6_2 C6_2 1_555 1_555
C7_2 C6_2 1_555 1_555
H7_2 C7_2 1_555 1_555
C8_2 C7_2 1_555 1_555
C9_2 C8_2 1_555 1_555
H8_2 C9_2 1_555 1_555
C10_2 N2_2 1_555 1_555
H9_2 C10_2 1_555 1_555
C11_2 H10_2 1_555 1_555
C12_2 C11_2 1_555 1_555
H11_2 C12_2 1_555 1_555
C13_2 C12_2 1_555 1_555
C14_2 C13_2 1_555 1_555
H12_2 C14_2 1_555 1_555
C15_2 N3_2 1_555 1_555
H13_2 C15_2 1_555 1_555
C16_2 N4_2 1_555 1_555
C17_2 N4_2 1_555 1_555
C18_2 N5_2 1_555 1_555
N6A Fe1 1_555 1_555
C19A N6A 1_555 1_555
S1A C19A 1_555 1_555
C3 C16 1_555 1_555
C4 C5 1_555 1_555
C8 C18 1_555 1_555
C9 C10 1_555 1_555
C13 C17 1_555 1_555
C14 C15 1_555 1_555
C16 C18 1_555 1_555
C3_2 C16_2 1_555 1_555
C4_2 C5_2 1_555 1_555
C8_2 C18_2 1_555 1_555
C9_2 C10_2 1_555 1_555
C13_2 C17_2 1_555 1_555
C14_2 C15_2 1_555 1_555
C16_2 C18_2 1_555 1_555

#END
