
#######################################################################
#
#                 Cambridge Crystallographic Data Centre
#                                CCDC 
#
#######################################################################
#
# If this CIF has been generated from an entry in the Cambridge 
# Structural Database, then it will include bibliographic, chemical, 
# crystal, experimental, refinement or atomic coordinate data resulting 
# from the CCDC's data processing and validation procedures.
#
#######################################################################

data_KUPXAV
_symmetry_cell_setting           triclinic
_symmetry_space_group_name_H-M   'P -1'
_symmetry_Int_Tables_number      2
_space_group_name_Hall           '-P 1'
loop_
_symmetry_equiv_pos_site_id
_symmetry_equiv_pos_as_xyz
1 x,y,z
2 -x,-y,-z
_cell_length_a                   8.57380(10)
_cell_length_b                   8.95080(10)
_cell_length_c                   14.7961(2)
_cell_angle_alpha                83.7660(10)
_cell_angle_beta                 84.2860(10)
_cell_angle_gamma                78.9970(10)
_cell_volume                     1104.4
loop_
_atom_site_label
_atom_site_type_symbol
_atom_site_fract_x
_atom_site_fract_y
_atom_site_fract_z
Cd1 Cd 0.28700(3) 0.18190(3) 0.249547(15)
S1 S 0.43991(13) 0.40876(13) 0.20600(7)
S2 S 0.23242(13) 0.15066(13) 0.08318(7)
B1 B 0.8459(4) -0.2710(4) 0.3554(3)
N1 N 0.7250(3) -0.1756(3) 0.2909(2)
N2 N 0.5234(4) 0.0029(4) 0.2444(2)
N3 N 0.7615(3) -0.2767(3) 0.45231(19)
N4 N 0.6741(4) -0.2113(4) 0.5927(2)
N5 N 0.8963(3) -0.4316(3) 0.3220(2)
N6 N 1.0468(4) -0.6484(4) 0.2804(2)
N7 N 0.9927(3) -0.1940(3) 0.35397(19)
N8 N 1.1611(4) -0.0316(4) 0.3158(2)
C1 C 0.6094(4) -0.0573(4) 0.3132(2)
H1 H 0.5921 -0.0219 0.3708
C2 C 0.7092(5) -0.1908(5) 0.2007(3)
H2 H 0.7714 -0.2628 0.1650
C3 C 0.5859(5) -0.0812(5) 0.1737(3)
H3 H 0.5497 -0.0659 0.1156
C4 C 0.7797(4) -0.1959(4) 0.5220(2)
H4 H 0.8578 -0.1362 0.5203
C5 C 0.6315(5) -0.3416(5) 0.4811(3)
H5 H 0.5866 -0.4028 0.4480
C6 C 0.5791(5) -0.3019(6) 0.5661(3)
H6 H 0.4918 -0.3316 0.6008
C7 C 1.0460(4) -0.5131(4) 0.3066(3)
H7 H 1.1381 -0.4766 0.3139
C8 C 0.8894(5) -0.6564(5) 0.2772(3)
H8 H 0.8523 -0.7400 0.2608
C9 C 0.7964(5) -0.5254(5) 0.3013(3)
H9 H 0.6857 -0.5023 0.3037
C10 C 1.0262(4) -0.0712(4) 0.3001(2)
H10 H 0.9607 -0.0192 0.2560
C11 C 1.2191(5) -0.1377(5) 0.3843(3)
H11 H 1.3141 -0.1406 0.4104
C12 C 1.1187(4) -0.2371(5) 0.4084(3)
H12 H 1.1318 -0.3190 0.4531
Cd1A Cd 0.71300(3) -0.18190(3) 0.750453(15)
Cd1_2 Cd 1.28700(3) -0.81810(3) 0.249547(15)
Cd1_3 Cd 1.28700(3) 0.18190(3) 0.249547(15)
Cd1A_2 Cd -0.28700(3) -0.18190(3) 0.750453(15)
Cd1A_3 Cd -0.28700(3) 0.81810(3) 0.750453(15)
S1A S 0.56009(13) -0.40876(13) 0.79400(7)
S2A S 0.76758(13) -0.15066(13) 0.91682(7)
B1A B 0.1541(4) 0.2710(4) 0.6446(3)
N1A N 0.2750(3) 0.1756(3) 0.7091(2)
N2A N 0.4766(4) -0.0029(4) 0.7556(2)
N3A N 0.2385(3) 0.2767(3) 0.54769(19)
N4A N 0.3259(4) 0.2113(4) 0.4073(2)
N5A N 0.1037(3) 0.4316(3) 0.6780(2)
N6A N -0.0468(4) 0.6484(4) 0.7196(2)
N6_2 N 0.0468(4) 0.3516(4) 0.2804(2)
N6A_2 N 0.9532(4) -0.3516(4) 0.7196(2)
N7A N 0.0073(3) 0.1940(3) 0.64603(19)
N8A N -0.1611(4) 0.0316(4) 0.6842(2)
N8_2 N 0.1611(4) -0.0316(4) 0.3158(2)
N8A_2 N 0.8389(4) 0.0316(4) 0.6842(2)
C1A C 0.3906(4) 0.0573(4) 0.6868(2)
H1A H 0.4079 0.0219 0.6292
C2A C 0.2908(5) 0.1908(5) 0.7993(3)
H2A H 0.2286 0.2628 0.8350
C3A C 0.4141(5) 0.0812(5) 0.8263(3)
H3A H 0.4503 0.0659 0.8844
C4A C 0.2203(4) 0.1959(4) 0.4780(2)
H4A H 0.1422 0.1362 0.4797
C5A C 0.3685(5) 0.3416(5) 0.5189(3)
H5A H 0.4134 0.4028 0.5520
C6A C 0.4209(5) 0.3019(6) 0.4339(3)
H6A H 0.5082 0.3316 0.3992
C7A C -0.0460(4) 0.5131(4) 0.6934(3)
H7A H -0.1381 0.4766 0.6861
C8A C 0.1106(5) 0.6564(5) 0.7228(3)
H8A H 0.1477 0.7400 0.7392
C9A C 0.2036(5) 0.5254(5) 0.6987(3)
H9A H 0.3143 0.5023 0.6963
C10A C -0.0262(4) 0.0712(4) 0.6999(2)
H10A H 0.0393 0.0192 0.7440
C11A C -0.2191(5) 0.1377(5) 0.6157(3)
H11A H -0.3141 0.1406 0.5896
C12A C -0.1187(4) 0.2371(5) 0.5916(3)
H12A H -0.1318 0.3190 0.5469
N9 N 0.2307(4) 0.7159(4) 0.0048(2)
C13 C 0.2218(7) 0.5651(6) -0.0250(5)
H13 H 0.2501 0.4867 0.0233
H14 H 0.2942 0.5459 -0.0779
H15 H 0.1151 0.5651 -0.0395
C14 C 0.1165(9) 0.7472(8) 0.0857(4)
H16 H 0.1228 0.8446 0.1051
H17 H 0.1425 0.6688 0.1342
H18 H 0.0102 0.7484 0.0699
C15 C 0.1871(6) 0.8374(6) -0.0694(3)
H19 H 0.1924 0.9349 -0.0498
H20 H 0.0807 0.8372 -0.0843
H21 H 0.2600 0.8187 -0.1223
C16 C 0.3968(6) 0.7183(6) 0.0238(4)
H22 H 0.4022 0.8156 0.0437
H23 H 0.4661 0.7020 -0.0307
H24 H 0.4297 0.6388 0.0707
loop_
_geom_bond_atom_site_label_1
_geom_bond_atom_site_label_2
_geom_bond_site_symmetry_1
_geom_bond_site_symmetry_2
Cd1 S1 1_555 1_555
S2 Cd1 1_555 1_555
B1 N1 1_555 1_555
N1 C1 1_555 1_555
N2 Cd1 1_555 1_555
N3 B1 1_555 1_555
N4 C4 1_555 1_555
N5 B1 1_555 1_555
N6 C7 1_555 1_555
N7 B1 1_555 1_555
N8 C10 1_555 1_555
C1 N2 1_555 1_555
H1 C1 1_555 1_555
C2 N1 1_555 1_555
H2 C2 1_555 1_555
C3 N2 1_555 1_555
H3 C3 1_555 1_555
C4 N3 1_555 1_555
H4 C4 1_555 1_555
C5 N3 1_555 1_555
H5 C5 1_555 1_555
C6 N4 1_555 1_555
H6 C6 1_555 1_555
C7 N5 1_555 1_555
H7 C7 1_555 1_555
C8 N6 1_555 1_555
H8 C8 1_555 1_555
C9 N5 1_555 1_555
H9 C9 1_555 1_555
C10 N7 1_555 1_555
H10 C10 1_555 1_555
C11 N8 1_555 1_555
H11 C11 1_555 1_555
C12 N7 1_555 1_555
H12 C12 1_555 1_555
N9 C13 1_555 1_555
C13 H13 1_555 1_555
H14 C13 1_555 1_555
H15 C13 1_555 1_555
C14 N9 1_555 1_555
H16 C14 1_555 1_555
H17 C14 1_555 1_555
H18 C14 1_555 1_555
C15 N9 1_555 1_555
H19 C15 1_555 1_555
H20 C15 1_555 1_555
H21 C15 1_555 1_555
C16 N9 1_555 1_555
H22 C16 1_555 1_555
H23 C16 1_555 1_555
H24 C16 1_555 1_555
Cd1A N4 1_555 1_555
Cd1_2 N6 1_555 1_555
Cd1_3 N8 1_555 1_555
Cd1A_2 N8A 1_555 1_555
Cd1A_3 N6A 1_555 1_555
S1A Cd1A 1_555 1_555
S2A Cd1A 1_555 1_555
B1A N1A 1_555 1_555
N1A C1A 1_555 1_555
N2A Cd1A 1_555 1_555
N3A B1A 1_555 1_555
N4A Cd1 1_555 1_555
N5A B1A 1_555 1_555
N6A C7A 1_555 1_555
N6_2 Cd1 1_555 1_555
N6A_2 Cd1A 1_555 1_555
N7A B1A 1_555 1_555
N8A C10A 1_555 1_555
N8_2 Cd1 1_555 1_555
N8A_2 Cd1A 1_555 1_555
C1A N2A 1_555 1_555
H1A C1A 1_555 1_555
C2A N1A 1_555 1_555
H2A C2A 1_555 1_555
C3A N2A 1_555 1_555
H3A C3A 1_555 1_555
C4A N3A 1_555 1_555
H4A C4A 1_555 1_555
C5A N3A 1_555 1_555
H5A C5A 1_555 1_555
C6A N4A 1_555 1_555
H6A C6A 1_555 1_555
C7A N5A 1_555 1_555
H7A C7A 1_555 1_555
C8A N6A 1_555 1_555
H8A C8A 1_555 1_555
C9A N5A 1_555 1_555
H9A C9A 1_555 1_555
C10A N7A 1_555 1_555
H10A C10A 1_555 1_555
C11A N8A 1_555 1_555
H11A C11A 1_555 1_555
C12A N7A 1_555 1_555
H12A C12A 1_555 1_555
C2 C3 1_555 1_555
C5 C6 1_555 1_555
C8 C9 1_555 1_555
C11 C12 1_555 1_555
N4A C4A 1_555 1_555
C2A C3A 1_555 1_555
C5A C6A 1_555 1_555
C8A C9A 1_555 1_555
C11A C12A 1_555 1_555

#END
