
#######################################################################
#
#                 Cambridge Crystallographic Data Centre
#                                CCDC 
#
#######################################################################
#
# If this CIF has been generated from an entry in the Cambridge 
# Structural Database, then it will include bibliographic, chemical, 
# crystal, experimental, refinement or atomic coordinate data resulting 
# from the CCDC's data processing and validation procedures.
#
#######################################################################

data_KUPZAX
_symmetry_cell_setting           triclinic
_symmetry_space_group_name_H-M   'P -1'
_symmetry_Int_Tables_number      2
_space_group_name_Hall           '-P 1'
loop_
_symmetry_equiv_pos_site_id
_symmetry_equiv_pos_as_xyz
1 x,y,z
2 -x,-y,-z
_cell_length_a                   14.4297(19)
_cell_length_b                   16.937(2)
_cell_length_c                   17.684(2)
_cell_angle_alpha                76.127(2)
_cell_angle_beta                 66.663(2)
_cell_angle_gamma                65.040(2)
_cell_volume                     3583.98
loop_
_atom_site_label
_atom_site_type_symbol
_atom_site_fract_x
_atom_site_fract_y
_atom_site_fract_z
Cu1 Cu 0.85533(9) 0.77665(8) 0.69067(8)
Cu2 Cu 0.60276(10) 0.75565(8) 0.72762(8)
Cu3 Cu 0.37225(10) 0.74424(8) 0.70157(8)
Cu4 Cu 1.12158(10) 0.75417(9) 0.68274(8)
Cu5 Cu 1.60535(10) 0.29693(8) 0.85970(8)
Cu6 Cu 1.57327(10) 0.17644(8) 0.81947(8)
Cu7 Cu 1.53863(10) 0.33597(8) 0.73380(8)
Cu8 Cu 1.26476(10) 0.78111(9) 0.29137(8)
I1 I 0.92358(5) 0.85373(5) 0.75841(4)
I2 I 0.76141(5) 0.66577(4) 0.78558(5)
I3 I 0.58162(5) 0.67467(5) 0.62934(5)
I4 I 1.25602(5) 0.84007(4) 0.60860(4)
I5 I 1.40133(5) 0.31109(4) 0.88871(4)
I6 I 1.24234(5) 0.86687(4) 0.14723(4)
I7 I 1.69918(5) 0.38423(4) 0.72419(4)
I8 I 1.59350(5) 0.19466(4) 0.65979(4)
N1 N 1.4516(7) 0.4343(6) 0.6696(5)
N2 N 1.1674(6) 0.6493(5) 0.5427(5)
N3 N 1.0939(7) 0.6976(6) 0.6046(5)
N4 N 0.9968(6) 0.7041(6) 0.6088(5)
N5 N 1.1213(7) 0.8344(6) 0.3801(6)
N6 N 0.7375(7) 0.9387(5) 0.5926(5)
N7 N 0.7358(7) 0.8660(5) 0.6418(5)
N8 N 0.6404(6) 0.8606(5) 0.6582(5)
N9 N 0.5405(7) 1.0665(6) 0.8622(6)
N10 N 0.4110(7) 0.8241(5) 0.8863(5)
N11 N 0.4476(6) 0.7939(5) 0.8117(5)
N12 N 0.3605(6) 0.7995(5) 0.7977(5)
N13 N 1.4073(7) 0.6505(6) 1.0444(5)
N14 N 1.3167(7) 0.5885(5) 0.8167(5)
N15 N 1.2904(6) 0.6575(5) 0.7616(5)
N16 N 1.1970(7) 0.6627(6) 0.7589(5)
C1 C 1.4796(8) 0.5032(6) 0.6300(6)
H1 H 1.5403 0.5074 0.6354
C2 C 1.4248(8) 0.5692(6) 0.5811(6)
H2 H 1.4469 0.6174 0.5551
C3 C 1.3376(7) 0.5628(7) 0.5715(6)
C4 C 1.3084(8) 0.4912(8) 0.6111(7)
H3 H 1.2487 0.4853 0.6058
C5 C 1.3663(9) 0.4290(8) 0.6579(8)
H4 H 1.3462 0.3798 0.6834
C6 C 1.2818(7) 0.6338(7) 0.5174(6)
H5 H 1.2899 0.6886 0.5187
H6 H 1.3176 0.6177 0.4597
C7 C 1.1177(8) 0.6258(7) 0.5052(7)
H7 H 1.1514 0.5924 0.4588
C8 C 1.0086(9) 0.6606(7) 0.5484(7)
C9 C 0.9142(9) 0.6609(9) 0.5331(8)
H8 H 0.8582 0.7207 0.5375
H9 H 0.8823 0.6214 0.5763
C10 C 0.9455(10) 0.6316(10) 0.4471(8)
H10 H 0.9862 0.6661 0.4046
H11 H 0.9945 0.5694 0.4455
C11 C 0.8491(11) 0.6421(11) 0.4251(9)
H12 H 0.8052 0.6111 0.4693
H13 H 0.8756 0.6149 0.3731
C12 C 0.7776(15) 0.7380(11) 0.4145(11)
H14 H 0.8234 0.7706 0.3754
H15 H 0.7439 0.7632 0.4684
C13 C 0.6879(16) 0.7498(13) 0.3819(13)
H16 H 0.6565 0.7049 0.4101
H17 H 0.7188 0.7441 0.3223
H18 H 0.6311 0.8079 0.3927
C14 C 1.1190(7) 0.8478(6) 0.4522(6)
H19 H 1.1862 0.8274 0.4615
C15 C 1.0264(8) 0.8890(7) 0.5141(6)
H20 H 1.0302 0.8970 0.5640
C16 C 0.9267(8) 0.9187(6) 0.5019(6)
C17 C 0.9266(9) 0.9031(8) 0.4289(7)
H21 H 0.8599 0.9203 0.4195
C18 C 1.0249(8) 0.8619(9) 0.3685(7)
H22 H 1.0238 0.8530 0.3179
C19 C 0.8261(8) 0.9698(7) 0.5670(6)
H23 H 0.8448 0.9668 0.6160
H24 H 0.8012 1.0319 0.5452
C20 C 0.6424(8) 0.9814(7) 0.5771(6)
H25 H 0.6227 1.0347 0.5438
C21 C 0.5805(8) 0.9308(7) 0.6199(6)
C22 C 0.4644(8) 0.9510(7) 0.6334(7)
H26 H 0.4525 0.8957 0.6412
H27 H 0.4466 0.9856 0.5840
C23 C 0.3888(8) 1.0029(8) 0.7101(7)
H28 H 0.4013 0.9654 0.7602
H29 H 0.4074 1.0543 0.7052
C24 C 0.2696(9) 1.0338(8) 0.7204(7)
H30 H 0.2513 0.9828 0.7233
H31 H 0.2562 1.0733 0.6714
C25 C 0.1965(9) 1.0817(9) 0.7978(8)
H32 H 0.2184 1.1304 0.7962
H33 H 0.2076 1.0410 0.8467
C26 C 0.0756(9) 1.1187(9) 0.8082(8)
H34 H 0.0614 1.1672 0.7660
H35 H 0.0327 1.1398 0.8632
H36 H 0.0554 1.0727 0.8021
C27 C 0.4423(8) 1.0634(7) 0.9102(7)
H37 H 0.3850 1.1162 0.9300
C28 C 0.4208(8) 0.9870(7) 0.9319(7)
H38 H 0.3505 0.9879 0.9666
C29 C 0.5018(8) 0.9099(7) 0.9030(6)
C30 C 0.6027(8) 0.9112(7) 0.8563(7)
H39 H 0.6612 0.8586 0.8375
C31 C 0.6197(9) 0.9907(7) 0.8359(8)
H40 H 0.6899 0.9907 0.8022
C32 C 0.4846(8) 0.8255(7) 0.9230(6)
H41 H 0.5554 0.7776 0.9030
H42 H 0.4549 0.8146 0.9838
C33 C 0.3012(8) 0.8517(7) 0.9183(6)
H43 H 0.2556 0.8773 0.9690
C34 C 0.2697(8) 0.8348(7) 0.8621(6)
C35 C 0.1586(8) 0.8454(8) 0.8674(7)
H44 H 0.1586 0.7880 0.8638
H45 H 0.1402 0.8853 0.8201
C36 C 0.0720(9) 0.8826(9) 0.9489(8)
H46 H 0.0970 0.8486 0.9957
H47 H 0.0634 0.9440 0.9481
C37 C -0.0375(9) 0.8796(10) 0.9624(8)
H48 H -0.0928 0.9132 1.0099
H49 H -0.0587 0.9083 0.9128
C38 C -0.0369(12) 0.7872(11) 0.9788(9)
H50 H -0.0045 0.7553 1.0225
H51 H 0.0091 0.7565 0.9280
C39 C -0.1512(13) 0.7856(15) 1.0060(12)
H52 H -0.1935 0.8073 1.0608
H53 H -0.1460 0.7256 1.0082
H54 H -0.1870 0.8230 0.9662
C40 C 1.5002(8) 0.6181(7) 0.9807(6)
H55 H 1.5658 0.6154 0.9837
C41 C 1.5059(8) 0.5888(6) 0.9119(6)
H56 H 1.5735 0.5665 0.8695
C42 C 1.4113(8) 0.5925(6) 0.9059(6)
C43 C 1.3168(9) 0.6243(8) 0.9700(7)
H57 H 1.2505 0.6271 0.9682
C44 C 1.3173(8) 0.6520(7) 1.0368(7)
H58 H 1.2503 0.6735 1.0800
C45 C 1.4208(9) 0.5601(7) 0.8310(7)
H59 H 1.4717 0.5808 0.7821
H60 H 1.4522 0.4954 0.8363
C46 C 1.2436(9) 0.5523(7) 0.8475(7)
H61 H 1.2443 0.5034 0.8874
C47 C 1.1657(9) 0.5987(7) 0.8109(7)
C48 C 1.0663(13) 0.5851(10) 0.8204(9)
H62 H 1.0664 0.5803 0.7656
H63 H 1.0010 0.6354 0.8452
C49 C 1.0641(16) 0.4992(13) 0.8775(11)
H64 H 1.1366 0.4528 0.8583
H65 H 1.0514 0.5093 0.9343
C50 C 0.9808(15) 0.4661(13) 0.8813(12)
H66 H 0.9093 0.5147 0.8923
H67 H 0.9749 0.4204 0.9280
C51 C 1.0074(18) 0.4281(15) 0.8019(13)
H68 H 1.0064 0.4747 0.7557
H69 H 1.0810 0.3822 0.7880
C52 C 0.9260(18) 0.3897(14) 0.8129(15)
H70 H 0.9346 0.3381 0.8528
H71 H 0.9375 0.3728 0.7597
H72 H 0.8526 0.4332 0.8333
Cu3_2 Cu 1.37225(10) 0.74424(8) 0.70157(8)
Cu5A Cu 1.39465(10) 0.70307(8) 0.14030(8)
Cu5A_2 Cu 1.39465(10) 0.70307(8) 1.14030(8)
Cu6A Cu 1.42673(10) 0.82356(8) 0.18053(8)
Cu6_2 Cu 0.57327(10) 1.17644(8) 0.81947(8)
Cu8A Cu 1.73524(10) 0.21889(9) 0.70863(8)
I4_2 I 0.25602(5) 0.84007(4) 0.60860(4)
I6A I 1.75766(5) 0.13313(4) 0.85277(4)
I7A I 1.30082(5) 0.61577(4) 0.27581(4)
I8A I 1.40650(5) 0.80534(4) 0.34021(4)
N9_2 N 1.5405(7) 0.0665(6) 0.8622(6)
N13A N 1.5927(7) 0.3495(6) 0.9556(5)
N15_2 N 0.2904(6) 0.6575(5) 0.7616(5)
loop_
_geom_bond_atom_site_label_1
_geom_bond_atom_site_label_2
_geom_bond_site_symmetry_1
_geom_bond_site_symmetry_2
Cu1 I1 1_555 1_555
Cu2 I2 1_555 1_555
Cu3 I3 1_555 1_555
Cu4 I1 1_555 1_555
Cu5 I5 1_555 1_555
Cu6 I5 1_555 1_555
Cu7 I5 1_555 1_555
Cu8 I6 1_555 1_555
I2 Cu1 1_555 1_555
I3 Cu2 1_555 1_555
I4 Cu4 1_555 1_555
I6 Cu5A 1_555 1_555
I7 Cu5 1_555 1_555
I8 Cu6 1_555 1_555
N1 Cu7 1_555 1_555
N2 N3 1_555 1_555
N3 Cu4 1_555 1_555
N4 Cu1 1_555 1_555
N5 Cu8 1_555 1_555
N6 N7 1_555 1_555
N7 Cu1 1_555 1_555
N8 Cu2 1_555 1_555
N9 C27 1_555 1_555
N10 N11 1_555 1_555
N11 Cu2 1_555 1_555
N12 Cu3 1_555 1_555
N13 C40 1_555 1_555
N14 N15 1_555 1_555
N15 N16 1_555 1_555
N16 Cu4 1_555 1_555
C1 N1 1_555 1_555
H1 C1 1_555 1_555
C2 C1 1_555 1_555
H2 C2 1_555 1_555
C3 C2 1_555 1_555
C4 C3 1_555 1_555
H3 C4 1_555 1_555
C5 N1 1_555 1_555
H4 C5 1_555 1_555
C6 N2 1_555 1_555
H5 C6 1_555 1_555
H6 C6 1_555 1_555
C7 N2 1_555 1_555
H7 C7 1_555 1_555
C8 N4 1_555 1_555
C9 C8 1_555 1_555
H8 C9 1_555 1_555
H9 C9 1_555 1_555
C10 C9 1_555 1_555
H10 C10 1_555 1_555
H11 C10 1_555 1_555
C11 C10 1_555 1_555
H12 C11 1_555 1_555
H13 C11 1_555 1_555
C12 C11 1_555 1_555
H14 C12 1_555 1_555
H15 C12 1_555 1_555
C13 C12 1_555 1_555
H16 C13 1_555 1_555
H17 C13 1_555 1_555
H18 C13 1_555 1_555
C14 N5 1_555 1_555
H19 C14 1_555 1_555
C15 C14 1_555 1_555
H20 C15 1_555 1_555
C16 C15 1_555 1_555
C17 C16 1_555 1_555
H21 C17 1_555 1_555
C18 N5 1_555 1_555
H22 C18 1_555 1_555
C19 N6 1_555 1_555
H23 C19 1_555 1_555
H24 C19 1_555 1_555
C20 N6 1_555 1_555
H25 C20 1_555 1_555
C21 N8 1_555 1_555
C22 C21 1_555 1_555
H26 C22 1_555 1_555
H27 C22 1_555 1_555
C23 C22 1_555 1_555
H28 C23 1_555 1_555
H29 C23 1_555 1_555
C24 C23 1_555 1_555
H30 C24 1_555 1_555
H31 C24 1_555 1_555
C25 C24 1_555 1_555
H32 C25 1_555 1_555
H33 C25 1_555 1_555
C26 C25 1_555 1_555
H34 C26 1_555 1_555
H35 C26 1_555 1_555
H36 C26 1_555 1_555
C27 H37 1_555 1_555
C28 C27 1_555 1_555
H38 C28 1_555 1_555
C29 C28 1_555 1_555
C30 C29 1_555 1_555
H39 C30 1_555 1_555
C31 N9 1_555 1_555
H40 C31 1_555 1_555
C32 N10 1_555 1_555
H41 C32 1_555 1_555
H42 C32 1_555 1_555
C33 N10 1_555 1_555
H43 C33 1_555 1_555
C34 N12 1_555 1_555
C35 C34 1_555 1_555
H44 C35 1_555 1_555
H45 C35 1_555 1_555
C36 C35 1_555 1_555
H46 C36 1_555 1_555
H47 C36 1_555 1_555
C37 C36 1_555 1_555
H48 C37 1_555 1_555
H49 C37 1_555 1_555
C38 C37 1_555 1_555
H50 C38 1_555 1_555
H51 C38 1_555 1_555
C39 C38 1_555 1_555
H52 C39 1_555 1_555
H53 C39 1_555 1_555
H54 C39 1_555 1_555
C40 H55 1_555 1_555
C41 C40 1_555 1_555
H56 C41 1_555 1_555
C42 C41 1_555 1_555
C43 C42 1_555 1_555
H57 C43 1_555 1_555
C44 N13 1_555 1_555
H58 C44 1_555 1_555
C45 N14 1_555 1_555
H59 C45 1_555 1_555
H60 C45 1_555 1_555
C46 N14 1_555 1_555
H61 C46 1_555 1_555
C47 N16 1_555 1_555
C48 C47 1_555 1_555
H62 C48 1_555 1_555
H63 C48 1_555 1_555
C49 C48 1_555 1_555
H64 C49 1_555 1_555
H65 C49 1_555 1_555
C50 C49 1_555 1_555
H66 C50 1_555 1_555
H67 C50 1_555 1_555
C51 C50 1_555 1_555
H68 C51 1_555 1_555
H69 C51 1_555 1_555
C52 C51 1_555 1_555
H70 C52 1_555 1_555
H71 C52 1_555 1_555
H72 C52 1_555 1_555
Cu3_2 I4 1_555 1_555
Cu5A I7A 1_555 1_555
Cu5A_2 N13 1_555 1_555
Cu6A I6 1_555 1_555
Cu6_2 N9 1_555 1_555
Cu8A I7 1_555 1_555
I4_2 Cu3 1_555 1_555
I6A Cu5 1_555 1_555
I7A Cu8 1_555 1_555
I8A Cu8 1_555 1_555
N9_2 Cu6 1_555 1_555
N13A Cu5 1_555 1_555
N15_2 Cu3 1_555 1_555
Cu6 I6A 1_555 1_555
Cu7 I7 1_555 1_555
Cu7 I8 1_555 1_555
I8 Cu8A 1_555 1_555
N3 N4 1_555 1_555
N7 N8 1_555 1_555
N11 N12 1_555 1_555
N15 Cu3_2 1_555 1_555
C3 C6 1_555 1_555
C4 C5 1_555 1_555
C7 C8 1_555 1_555
C16 C19 1_555 1_555
C17 C18 1_555 1_555
C20 C21 1_555 1_555
C29 C32 1_555 1_555
C30 C31 1_555 1_555
C33 C34 1_555 1_555
C42 C45 1_555 1_555
C43 C44 1_555 1_555
C46 C47 1_555 1_555
Cu6A I8A 1_555 1_555
Cu8A I6A 1_555 1_555

#END
