
#######################################################################
#
#                 Cambridge Crystallographic Data Centre
#                                CCDC 
#
#######################################################################
#
# If this CIF has been generated from an entry in the Cambridge 
# Structural Database, then it will include bibliographic, chemical, 
# crystal, experimental, refinement or atomic coordinate data resulting 
# from the CCDC's data processing and validation procedures.
#
#######################################################################

data_KUPZEB
_symmetry_cell_setting           monoclinic
_symmetry_space_group_name_H-M   'P 21/c'
_symmetry_Int_Tables_number      14
_space_group_name_Hall           '-P 2ybc'
loop_
_symmetry_equiv_pos_site_id
_symmetry_equiv_pos_as_xyz
1 x,y,z
2 -x,1/2+y,1/2-z
3 -x,-y,-z
4 x,1/2-y,1/2+z
_cell_length_a                   8.9089(4)
_cell_length_b                   16.0244(8)
_cell_length_c                   13.7163(7)
_cell_angle_alpha                90
_cell_angle_beta                 103.8060(10)
_cell_angle_gamma                90
_cell_volume                     1901.56
loop_
_atom_site_label
_atom_site_type_symbol
_atom_site_fract_x
_atom_site_fract_y
_atom_site_fract_z
Cu1 Cu 0.23384(5) 0.50210(3) 0.19538(3)
Cu2 Cu 0.03609(5) 0.45734(3) -0.07823(3)
I1 I 0.22755(2) 0.572100(13) 0.018920(15)
I2 I 0.00725(2) 0.524449(14) 0.278158(16)
N1 N 0.3324(3) 0.38614(17) 0.1981(2)
N2 N 0.4889(3) 0.37885(17) 0.2115(2)
N3 N 0.4306(3) 0.54737(17) 0.2995(2)
N4 N 0.4381(3) 0.58603(16) 0.3853(2)
N5 N 0.5801(3) 0.57132(16) 0.4423(2)
N6 N 0.8493(3) 0.84606(17) 0.5533(2)
C1 C 0.2802(4) 0.3086(2) 0.2031(2)
C2 C 0.4040(4) 0.2523(2) 0.2200(2)
H1 H 0.3978 0.1934 0.2265
C3 C 0.5359(4) 0.2982(2) 0.2257(2)
C4 C 0.1130(4) 0.2916(2) 0.1911(3)
H2 H 0.0754 0.3227 0.2421
H3 H 0.0973 0.2317 0.1993
H4 H 0.0559 0.3092 0.1241
C5 C 0.7018(4) 0.2736(2) 0.2424(3)
H5 H 0.7389 0.2868 0.1825
H6 H 0.7120 0.2135 0.2557
H7 H 0.7633 0.3042 0.3001
C6 C 0.5826(4) 0.4550(2) 0.2162(3)
H8 H 0.5486 0.4866 0.1527
H9 H 0.6925 0.4396 0.2241
C7 C 0.5667(4) 0.5084(2) 0.3021(2)
C8 C 0.6638(4) 0.5239(2) 0.3943(3)
H10 H 0.7672 0.5053 0.4186
C9 C 0.6254(4) 0.6079(2) 0.5437(2)
H11 H 0.6974 0.5694 0.5884
H12 H 0.5324 0.6141 0.5707
C10 C 0.9287(4) 0.7744(2) 0.5597(2)
H13 H 1.0376 0.7770 0.5682
C11 C 0.8594(4) 0.6968(2) 0.5545(3)
H14 H 0.9196 0.6475 0.5581
C12 C 0.7020(4) 0.6918(2) 0.5441(2)
C13 C 0.6180(4) 0.7651(2) 0.5359(2)
H15 H 0.5090 0.7638 0.5269
C14 C 0.6955(4) 0.8404(2) 0.5411(2)
H16 H 0.6371 0.8905 0.5358
Cu2B Cu -0.03609(5) 0.54266(3) 0.07823(3)
Cu2A Cu 0.96391(5) 0.95734(3) 0.57823(3)
I1B I -0.22755(2) 0.427900(13) -0.018920(15)
I2B I -0.00725(2) 0.475551(14) -0.278158(16)
N6A N 0.1507(3) 0.34606(17) -0.0533(2)
O1 O 0.2143(8) 0.6612(5) 0.4925(6)
H17 H 0.124(6) 0.658(8) 0.455(8)
H18 H 0.269(11) 0.646(8) 0.453(7)
loop_
_geom_bond_atom_site_label_1
_geom_bond_atom_site_label_2
_geom_bond_site_symmetry_1
_geom_bond_site_symmetry_2
Cu1 I1 1_555 1_555
Cu2 I1 1_555 1_555
I1 Cu2B 1_555 1_555
I2 Cu1 1_555 1_555
N1 Cu1 1_555 1_555
N2 N1 1_555 1_555
N3 Cu1 1_555 1_555
N4 N3 1_555 1_555
N5 N4 1_555 1_555
N6 C10 1_555 1_555
C1 N1 1_555 1_555
C2 C1 1_555 1_555
H1 C2 1_555 1_555
C3 N2 1_555 1_555
C4 C1 1_555 1_555
H2 C4 1_555 1_555
H3 C4 1_555 1_555
H4 C4 1_555 1_555
C5 C3 1_555 1_555
H5 C5 1_555 1_555
H6 C5 1_555 1_555
H7 C5 1_555 1_555
C6 N2 1_555 1_555
H8 C6 1_555 1_555
H9 C6 1_555 1_555
C7 N3 1_555 1_555
C8 N5 1_555 1_555
H10 C8 1_555 1_555
C9 N5 1_555 1_555
H11 C9 1_555 1_555
H12 C9 1_555 1_555
C10 H13 1_555 1_555
C11 C10 1_555 1_555
H14 C11 1_555 1_555
C12 C9 1_555 1_555
C13 C12 1_555 1_555
H15 C13 1_555 1_555
C14 N6 1_555 1_555
H16 C14 1_555 1_555
O1 H17 1_555 1_555
H18 O1 1_555 1_555
Cu2B I2 1_555 1_555
Cu2A N6 1_555 1_555
I1B Cu2 1_555 1_555
I2B Cu2 1_555 1_555
N6A Cu2 1_555 1_555
C2 C3 1_555 1_555
C6 C7 1_555 1_555
C7 C8 1_555 1_555
C11 C12 1_555 1_555
C13 C14 1_555 1_555
Cu2B I1B 1_555 1_555

#END
