
#######################################################################
#
#                 Cambridge Crystallographic Data Centre
#                                CCDC 
#
#######################################################################
#
# If this CIF has been generated from an entry in the Cambridge 
# Structural Database, then it will include bibliographic, chemical, 
# crystal, experimental, refinement or atomic coordinate data resulting 
# from the CCDC's data processing and validation procedures.
#
#######################################################################

data_KUQCEF
_symmetry_cell_setting           monoclinic
_symmetry_space_group_name_H-M   'P 21/c'
_symmetry_Int_Tables_number      14
_space_group_name_Hall           '-P 2ybc'
loop_
_symmetry_equiv_pos_site_id
_symmetry_equiv_pos_as_xyz
1 x,y,z
2 -x,1/2+y,1/2-z
3 -x,-y,-z
4 x,1/2-y,1/2+z
_cell_length_a                   7.0452(18)
_cell_length_b                   8.907(2)
_cell_length_c                   9.059(2)
_cell_angle_alpha                90
_cell_angle_beta                 107.80(2)
_cell_angle_gamma                90
_cell_volume                     541.254
loop_
_atom_site_label
_atom_site_type_symbol
_atom_site_fract_x
_atom_site_fract_y
_atom_site_fract_z
Cu1 Cu 0.0000 0.0000 0.0000
N1 N -0.11094(18) 0.10998(14) -0.20149(13)
N2 N -0.2743(2) 0.11299(16) -0.32578(15)
N3 N -0.2449(2) 0.20914(17) -0.42555(16)
N4 N -0.0614(2) 0.27161(16) -0.36870(15)
C1 C 0.0154(2) 0.20769(17) -0.23077(16)
C2 C 0.2151(2) 0.22943(19) -0.11343(18)
H1 H 0.3160 0.2467 -0.1643
H2 H 0.2128 0.3149 -0.0476
N5 N 0.25832(19) 0.08992(15) -0.02071(14)
H3 H 0.3425 0.1101 0.0741
H4 H 0.3176 0.0231 -0.0669
Cu1A Cu 0.0000 0.5000 -0.5000
Cu1A_2 Cu 0.0000 -0.5000 0.5000
N1B N 0.11094(18) -0.10998(14) 0.20149(13)
N2B N 0.2743(2) -0.11299(16) 0.32578(15)
N3B N 0.2449(2) -0.20914(17) 0.42555(16)
N4B N 0.0614(2) -0.27161(16) 0.36870(15)
N4A N 0.0614(2) -0.22839(16) -0.13130(15)
N4C N -0.0614(2) 0.22839(16) 0.13130(15)
C1B C -0.0154(2) -0.20769(17) 0.23077(16)
C2B C -0.2151(2) -0.22943(19) 0.11343(18)
H1B H -0.3160 -0.2467 0.1643
H2B H -0.2128 -0.3149 0.0476
N5B N -0.25832(19) -0.08992(15) 0.02071(14)
H3B H -0.3425 -0.1101 -0.0741
H4B H -0.3176 -0.0231 0.0669
O1 O 0.5998(2) 0.0454(2) 0.27623(17)
H5 H 0.516(4) -0.010(3) 0.302(4)
H6 H 0.649(4) 0.108(3) 0.350(3)
loop_
_geom_bond_atom_site_label_1
_geom_bond_atom_site_label_2
_geom_bond_site_symmetry_1
_geom_bond_site_symmetry_2
Cu1 N1 1_555 1_555
N1 N2 1_555 1_555
N2 N3 1_555 1_555
N3 N4 1_555 1_555
N4 C1 1_555 1_555
C1 N1 1_555 1_555
C2 C1 1_555 1_555
H1 C2 1_555 1_555
H2 C2 1_555 1_555
N5 Cu1 1_555 1_555
H3 N5 1_555 1_555
H4 N5 1_555 1_555
O1 H5 1_555 1_555
H6 O1 1_555 1_555
Cu1A N4 1_555 1_555
Cu1A_2 N4B 1_555 1_555
N1B Cu1 1_555 1_555
N2B N1B 1_555 1_555
N3B N2B 1_555 1_555
N4B N3B 1_555 1_555
N4A Cu1 1_555 1_555
N4C Cu1 1_555 1_555
C1B N1B 1_555 1_555
C2B C1B 1_555 1_555
H1B C2B 1_555 1_555
H2B C2B 1_555 1_555
N5B Cu1 1_555 1_555
H3B N5B 1_555 1_555
H4B N5B 1_555 1_555
C2 N5 1_555 1_555
N4B C1B 1_555 1_555
C2B N5B 1_555 1_555

#END
