
#######################################################################
#
#                 Cambridge Crystallographic Data Centre
#                                CCDC 
#
#######################################################################
#
# If this CIF has been generated from an entry in the Cambridge 
# Structural Database, then it will include bibliographic, chemical, 
# crystal, experimental, refinement or atomic coordinate data resulting 
# from the CCDC's data processing and validation procedures.
#
#######################################################################

data_KUQCUV
_symmetry_cell_setting           triclinic
_symmetry_space_group_name_H-M   'P -1'
_symmetry_Int_Tables_number      2
_space_group_name_Hall           '-P 1'
loop_
_symmetry_equiv_pos_site_id
_symmetry_equiv_pos_as_xyz
1 x,y,z
2 -x,-y,-z
_cell_length_a                   5.8737(9)
_cell_length_b                   9.2927(11)
_cell_length_c                   9.6759(11)
_cell_angle_alpha                113.040(11)
_cell_angle_beta                 90.834(13)
_cell_angle_gamma                100.401(12)
_cell_volume                     475.898
loop_
_atom_site_label
_atom_site_type_symbol
_atom_site_fract_x
_atom_site_fract_y
_atom_site_fract_z
Cs1 Cs 0.11717(10) 0.28032(6) 0.00688(5)
O1 O 0.1838(10) 0.0426(7) -0.3211(6)
O2 O 0.2633(10) -0.3438(7) -0.7742(6)
N1 N 0.1745(11) -0.1465(7) -0.5634(6)
H1 H 0.0595 -0.1255 -0.6030
N2 N 0.9114(13) -0.3589(10) -0.3592(8)
N3 N 0.6723(14) -0.5463(11) -0.8377(8)
N4 N 0.6895(15) -0.0356(10) -0.1352(8)
C1 C 0.2614(13) -0.0681(8) -0.4116(8)
C2 C 0.4462(13) -0.1418(8) -0.3897(7)
C3 C 0.4774(13) -0.2582(8) -0.5257(7)
C4 C 0.2965(13) -0.2611(8) -0.6408(8)
C5 C 0.6344(13) -0.3606(9) -0.5670(8)
C6 C 0.6508(13) -0.4627(10) -0.7172(8)
C7 C 0.7912(13) -0.3603(9) -0.4527(8)
C8 C 0.5796(15) -0.0843(10) -0.2495(8)
Cs1_2 Cs 0.11717(10) -0.71968(6) -0.99312(5)
Cs1A Cs -0.11717(10) -0.28032(6) -1.00688(5)
Cs1A_2 Cs 0.88283(10) -0.28032(6) -0.00688(5)
Cs1_3 Cs 1.11717(10) -0.71968(6) -0.99312(5)
Cs1A_3 Cs 0.88283(10) -0.28032(6) -1.00688(5)
Cs1_4 Cs 1.11717(10) 0.28032(6) 0.00688(5)
O2_2 O 0.2633(10) 0.6562(7) 0.2258(6)
O2A O -0.2633(10) 0.3438(7) -0.2258(6)
N2A N 0.0886(13) 0.3589(10) 0.3592(8)
N3_2 N -0.3277(14) 0.4537(11) 0.1623(8)
N3_3 N 0.6723(14) 0.4537(11) 0.1623(8)
N3A N 0.3277(14) 0.5463(11) -0.1623(8)
N4_2 N -0.3105(15) -0.0356(10) -0.1352(8)
N4A N 0.3105(15) 0.0356(10) 0.1352(8)
loop_
_geom_bond_atom_site_label_1
_geom_bond_atom_site_label_2
_geom_bond_site_symmetry_1
_geom_bond_site_symmetry_2
Cs1 O1 1_555 1_555
O1 C1 1_555 1_555
O2 C4 1_555 1_555
N1 H1 1_555 1_555
N2 C7 1_555 1_555
N3 C6 1_555 1_555
N4 C8 1_555 1_555
C1 N1 1_555 1_555
C2 C1 1_555 1_555
C3 C2 1_555 1_555
C4 N1 1_555 1_555
C5 C3 1_555 1_555
C6 C5 1_555 1_555
C7 C5 1_555 1_555
C8 C2 1_555 1_555
Cs1_2 O2 1_555 1_555
Cs1A O2 1_555 1_555
Cs1A_2 N2 1_555 1_555
Cs1_3 N3 1_555 1_555
Cs1A_3 N3 1_555 1_555
Cs1_4 N4 1_555 1_555
O2_2 Cs1 1_555 1_555
O2A Cs1 1_555 1_555
N2A Cs1 1_555 1_555
N3_2 Cs1 1_555 1_555
N3_3 Cs1 1_555 1_555
N3A Cs1 1_555 1_555
N4_2 Cs1 1_555 1_555
N4A Cs1 1_555 1_555
N3 Cs1_2 1_555 1_555
N4 Cs1A_2 1_555 1_555
C3 C4 1_555 1_555
Cs1_4 N3_3 1_555 1_555

#END
