
#######################################################################
#
#                 Cambridge Crystallographic Data Centre
#                                CCDC 
#
#######################################################################
#
# If this CIF has been generated from an entry in the Cambridge 
# Structural Database, then it will include bibliographic, chemical, 
# crystal, experimental, refinement or atomic coordinate data resulting 
# from the CCDC's data processing and validation procedures.
#
#######################################################################

data_KUQCOP
_symmetry_cell_setting           orthorhombic
_symmetry_space_group_name_H-M   'P 21 21 2'
_symmetry_Int_Tables_number      18
_space_group_name_Hall           'P 2 2ab'
loop_
_symmetry_equiv_pos_site_id
_symmetry_equiv_pos_as_xyz
1 x,y,z
2 -x,-y,z
3 1/2+x,1/2-y,-z
4 1/2-x,1/2+y,-z
_cell_length_a                   10.1264(10)
_cell_length_b                   28.487(3)
_cell_length_c                   11.3835(11)
_cell_angle_alpha                90
_cell_angle_beta                 90
_cell_angle_gamma                90
_cell_volume                     3283.81
loop_
_atom_site_label
_atom_site_type_symbol
_atom_site_fract_x
_atom_site_fract_y
_atom_site_fract_z
Co1 Co 0.5000 0.0000 0.62712(4)
Co2 Co 1.0000 0.0000 0.72147(4)
C1 C 0.7549(3) 0.05627(10) 0.6450(3)
C2 C 0.8355(3) 0.09575(11) 0.5926(3)
C3 C 0.8471(3) 0.09872(12) 0.4709(3)
H1 H 0.7973 0.0790 0.4232
C4 C 0.9320(4) 0.13080(14) 0.4210(3)
H2 H 0.9414 0.1320 0.3398
C5 C 1.0027(5) 0.16078(12) 0.4905(3)
H3 H 1.0597 0.1825 0.4565
C6 C 0.9895(4) 0.15887(11) 0.6103(3)
H4 H 1.0370 0.1797 0.6569
C7 C 0.9062(3) 0.12634(11) 0.6635(3)
C8 C 0.8906(3) 0.12515(11) 0.7937(3)
C9 C 0.7710(4) 0.13858(13) 0.8454(4)
H5 H 0.7003 0.1469 0.7976
C10 C 0.7560(4) 0.13972(15) 0.9653(4)
H6 H 0.6758 0.1485 0.9985
C11 C 0.8610(5) 0.12769(14) 1.0354(4)
H7 H 0.8514 0.1285 1.1166
C12 C 0.9799(4) 0.11453(12) 0.9877(3)
H8 H 1.0501 0.1067 1.0365
C13 C 0.9953(4) 0.11290(10) 0.8664(3)
C14 C 1.1220(3) 0.09543(12) 0.8135(3)
C15 C 0.8872(3) 0.00113(14) 0.9702(2)
H9 H 0.8078 0.0020 0.9292
C16 C 0.8829(3) 0.00113(14) 1.0913(2)
H10 H 0.8021 0.0019 1.1300
C17 C 1.0000 0.0000 1.1553(3)
C18 C 1.0000 0.0000 1.2848(3)
C19 C 1.0953(3) 0.02377(12) 1.3493(3)
H11 H 1.1617 0.0403 1.3108
C20 C 1.0918(3) 0.02296(12) 1.4694(3)
H12 H 1.1569 0.0393 1.5102
C21 C 0.4776(4) 0.03882(11) 0.8747(3)
H13 H 0.4638 0.0665 0.8333
C22 C 0.4735(4) 0.04065(12) 0.9956(3)
H14 H 0.4534 0.0686 1.0340
C23 C 0.5000 0.0000 1.0595(3)
C24 C 0.5000 0.0000 1.1889(3)
C25 C 0.5204(4) 0.04059(11) 1.2533(3)
H15 H 0.5349 0.0689 1.2149
C26 C 0.5192(4) 0.03899(12) 1.3745(3)
H16 H 0.5326 0.0668 1.4154
H17 H 0.378(5) 0.0798(12) 0.602(4)
H18 H 0.303(4) 0.0552(17) 0.664(4)
N1 N 0.5000 0.0000 1.4359(3)
N2 N 0.5000 0.0000 0.8138(3)
N3 N 1.0000 0.0000 0.9085(3)
N4 N 1.0000 0.0000 1.5316(3)
O1 O 0.6378(2) 0.05326(7) 0.6134(2)
O2 O 0.81146(19) 0.02930(7) 0.71615(17)
O3 O 1.1170(2) 0.06391(7) 0.73674(18)
O4 O 1.2301(2) 0.11247(9) 0.8483(2)
O5 O 0.3586(2) 0.05426(9) 0.6242(2)
Co1_2 Co 0.5000 0.0000 1.62712(4)
Co2_2 Co 0.0000 0.0000 0.72147(4)
Co2_3 Co 1.0000 0.0000 1.72147(4)
C1A C 0.2451(3) -0.05627(10) 0.6450(3)
C2A C 0.1645(3) -0.09575(11) 0.5926(3)
C3A C 0.1529(3) -0.09872(12) 0.4709(3)
H1A H 0.2027 -0.0790 0.4232
C4A C 0.0680(4) -0.13080(14) 0.4210(3)
H2A H 0.0586 -0.1320 0.3398
C5A C -0.0027(5) -0.16078(12) 0.4905(3)
H3A H -0.0597 -0.1825 0.4565
C6A C 0.0105(4) -0.15887(11) 0.6103(3)
H4A H -0.0370 -0.1797 0.6569
C7A C 0.0938(3) -0.12634(11) 0.6635(3)
C8A C 0.1094(3) -0.12515(11) 0.7937(3)
C9A C 0.2290(4) -0.13858(13) 0.8454(4)
H5A H 0.2997 -0.1469 0.7976
C10A C 0.2440(4) -0.13972(15) 0.9653(4)
H6A H 0.3242 -0.1485 0.9985
C11A C 0.1390(5) -0.12769(14) 1.0354(4)
H7A H 0.1486 -0.1285 1.1166
C12A C 0.0201(4) -0.11453(12) 0.9877(3)
H8A H -0.0501 -0.1067 1.0365
C13A C 0.0047(4) -0.11290(10) 0.8664(3)
C14A C -0.1220(3) -0.09543(12) 0.8135(3)
C15A C 1.1128(3) -0.00113(14) 0.9702(2)
H9A H 1.1922 -0.0020 0.9292
C16A C 1.1171(3) -0.00113(14) 1.0913(2)
H10A H 1.1979 -0.0019 1.1300
C19A C 0.9047(3) -0.02377(12) 1.3493(3)
H11A H 0.8383 -0.0403 1.3108
C20A C 0.9082(3) -0.02296(12) 1.4694(3)
H12A H 0.8431 -0.0393 1.5102
C21A C 0.5224(4) -0.03882(11) 0.8747(3)
H13A H 0.5362 -0.0665 0.8333
C22A C 0.5265(4) -0.04065(12) 0.9956(3)
H14A H 0.5466 -0.0686 1.0340
C25A C 0.4796(4) -0.04059(11) 1.2533(3)
H15A H 0.4651 -0.0689 1.2149
C26A C 0.4808(4) -0.03899(12) 1.3745(3)
H16A H 0.4674 -0.0668 1.4154
H17A H 0.622(5) -0.0798(12) 0.602(4)
H18A H 0.697(4) -0.0552(17) 0.664(4)
N1_2 N 0.5000 0.0000 0.4359(3)
N4_2 N 1.0000 0.0000 0.5316(3)
O1A O 0.3622(2) -0.05326(7) 0.6134(2)
O2A O 0.18854(19) -0.02930(7) 0.71615(17)
O2A_2 O 1.18854(19) -0.02930(7) 0.71615(17)
O3A O -0.1170(2) -0.06391(7) 0.73674(18)
O3A_2 O 0.8830(2) -0.06391(7) 0.73674(18)
O4A O -0.2301(2) -0.11247(9) 0.8483(2)
O5A O 0.6414(2) -0.05426(9) 0.6242(2)
C27 C 0.3764(4) 0.15065(13) 0.4153(4)
C28 C 0.4632(3) 0.18346(12) 0.3475(3)
C29 C 0.5976(4) 0.17791(14) 0.3584(4)
H19 H 0.6310 0.1570 0.4136
C30 C 0.6831(4) 0.20302(15) 0.2886(4)
H20 H 0.7738 0.1992 0.2970
C31 C 0.6343(4) 0.23356(15) 0.2068(4)
H21 H 0.6917 0.2496 0.1572
C32 C 0.5004(5) 0.24065(12) 0.1979(3)
H22 H 0.4686 0.2623 0.1437
C33 C 0.4111(3) 0.21627(11) 0.2680(3)
C34 C 0.2692(3) 0.22840(11) 0.2601(3)
C35 C 0.2130(4) 0.25924(12) 0.3396(3)
H23 H 0.2623 0.2690 0.4041
C36 C 0.0873(4) 0.27574(14) 0.3262(4)
H24 H 0.0510 0.2957 0.3823
C37 C 0.0146(5) 0.26283(14) 0.2299(4)
H25 H -0.0695 0.2751 0.2187
C38 C 0.0660(4) 0.23178(14) 0.1501(4)
H26 H 0.0160 0.2228 0.0853
C39 C 0.1929(4) 0.21344(12) 0.1650(3)
C40 C 0.2414(4) 0.17543(13) 0.0868(4)
H27 H 0.284(5) 0.1323(15) 0.281(3)
H28 H 0.235(5) 0.1561(13) -0.065(4)
O6 O 0.3950(3) 0.14281(10) 0.5180(3)
O7 O 0.2842(3) 0.12818(10) 0.3567(3)
O8 O 0.2910(3) 0.13965(9) 0.1284(2)
O9 O 0.2217(3) 0.18213(9) -0.0238(3)
loop_
_geom_bond_atom_site_label_1
_geom_bond_atom_site_label_2
_geom_bond_site_symmetry_1
_geom_bond_site_symmetry_2
Co1 N2 1_555 1_555
Co2 N3 1_555 1_555
C1 C2 1_555 1_555
C2 C3 1_555 1_555
C3 H1 1_555 1_555
C4 C3 1_555 1_555
H2 C4 1_555 1_555
C5 C4 1_555 1_555
H3 C5 1_555 1_555
C6 C5 1_555 1_555
H4 C6 1_555 1_555
C7 C2 1_555 1_555
C8 C7 1_555 1_555
C9 C8 1_555 1_555
H5 C9 1_555 1_555
C10 C9 1_555 1_555
H6 C10 1_555 1_555
C11 C10 1_555 1_555
H7 C11 1_555 1_555
C12 C11 1_555 1_555
H8 C12 1_555 1_555
C13 C8 1_555 1_555
C14 C13 1_555 1_555
C15 H9 1_555 1_555
C16 C15 1_555 1_555
H10 C16 1_555 1_555
C17 C16 1_555 1_555
C18 C17 1_555 1_555
C19 C18 1_555 1_555
H11 C19 1_555 1_555
C20 C19 1_555 1_555
H12 C20 1_555 1_555
C21 H13 1_555 1_555
C22 C21 1_555 1_555
H14 C22 1_555 1_555
C23 C22 1_555 1_555
C24 C23 1_555 1_555
C25 C24 1_555 1_555
H15 C25 1_555 1_555
C26 C25 1_555 1_555
H16 C26 1_555 1_555
H17 O5 1_555 1_555
H18 O5 1_555 1_555
N1 C26 1_555 1_555
N2 C21 1_555 1_555
N3 C15 1_555 1_555
N4 C20 1_555 1_555
O1 Co1 1_555 1_555
O2 Co2 1_555 1_555
O3 Co2 1_555 1_555
O4 C14 1_555 1_555
O5 Co1 1_555 1_555
C27 C28 1_555 1_555
C28 C29 1_555 1_555
C29 H19 1_555 1_555
C30 C29 1_555 1_555
H20 C30 1_555 1_555
C31 C30 1_555 1_555
H21 C31 1_555 1_555
C32 C31 1_555 1_555
H22 C32 1_555 1_555
C33 C28 1_555 1_555
C34 C33 1_555 1_555
C35 C34 1_555 1_555
H23 C35 1_555 1_555
C36 C35 1_555 1_555
H24 C36 1_555 1_555
C37 C36 1_555 1_555
H25 C37 1_555 1_555
C38 C37 1_555 1_555
H26 C38 1_555 1_555
C39 C34 1_555 1_555
C40 C39 1_555 1_555
H27 O7 1_555 1_555
H28 O9 1_555 1_555
O6 C27 1_555 1_555
O7 C27 1_555 1_555
O8 C40 1_555 1_555
O9 C40 1_555 1_555
Co1_2 N1 1_555 1_555
Co2_2 O2A 1_555 1_555
Co2_3 N4 1_555 1_555
C1A C2A 1_555 1_555
C2A C3A 1_555 1_555
C3A H1A 1_555 1_555
C4A C3A 1_555 1_555
H2A C4A 1_555 1_555
C5A C4A 1_555 1_555
H3A C5A 1_555 1_555
C6A C5A 1_555 1_555
H4A C6A 1_555 1_555
C7A C2A 1_555 1_555
C8A C7A 1_555 1_555
C9A C8A 1_555 1_555
H5A C9A 1_555 1_555
C10A C9A 1_555 1_555
H6A C10A 1_555 1_555
C11A C10A 1_555 1_555
H7A C11A 1_555 1_555
C12A C11A 1_555 1_555
H8A C12A 1_555 1_555
C13A C8A 1_555 1_555
C14A C13A 1_555 1_555
C15A N3 1_555 1_555
H9A C15A 1_555 1_555
C16A C17 1_555 1_555
H10A C16A 1_555 1_555
C19A C18 1_555 1_555
H11A C19A 1_555 1_555
C20A N4 1_555 1_555
H12A C20A 1_555 1_555
C21A N2 1_555 1_555
H13A C21A 1_555 1_555
C22A C23 1_555 1_555
H14A C22A 1_555 1_555
C25A C24 1_555 1_555
H15A C25A 1_555 1_555
C26A N1 1_555 1_555
H16A C26A 1_555 1_555
H17A O5A 1_555 1_555
H18A O5A 1_555 1_555
N1_2 Co1 1_555 1_555
N4_2 Co2 1_555 1_555
O1A Co1 1_555 1_555
O2A C1A 1_555 1_555
O2A_2 Co2 1_555 1_555
O3A Co2_2 1_555 1_555
O3A_2 Co2 1_555 1_555
O4A C14A 1_555 1_555
O5A Co1 1_555 1_555
C1 O1 1_555 1_555
C1 O2 1_555 1_555
C6 C7 1_555 1_555
C12 C13 1_555 1_555
C14 O3 1_555 1_555
C32 C33 1_555 1_555
C38 C39 1_555 1_555
C1A O1A 1_555 1_555
C6A C7A 1_555 1_555
C12A C13A 1_555 1_555
C14A O3A 1_555 1_555
C15A C16A 1_555 1_555
C19A C20A 1_555 1_555
C21A C22A 1_555 1_555
C25A C26A 1_555 1_555

#END
