
#######################################################################
#
#                 Cambridge Crystallographic Data Centre
#                                CCDC 
#
#######################################################################
#
# If this CIF has been generated from an entry in the Cambridge 
# Structural Database, then it will include bibliographic, chemical, 
# crystal, experimental, refinement or atomic coordinate data resulting 
# from the CCDC's data processing and validation procedures.
#
#######################################################################

data_KUQNOA
_symmetry_cell_setting           triclinic
_symmetry_space_group_name_H-M   'P 1'
_symmetry_Int_Tables_number      1
_space_group_name_Hall           'P 1'
loop_
_symmetry_equiv_pos_site_id
_symmetry_equiv_pos_as_xyz
1 x,y,z
_cell_length_a                   7.6620(15)
_cell_length_b                   10.488(2)
_cell_length_c                   11.606(2)
_cell_angle_alpha                98.24(3)
_cell_angle_beta                 91.07(3)
_cell_angle_gamma                98.49(3)
_cell_volume                     912.148
loop_
_atom_site_label
_atom_site_type_symbol
_atom_site_fract_x
_atom_site_fract_y
_atom_site_fract_z
Na1 Na 0.9839(3) 1.3128(2) 0.4851(2)
Na2 Na 0.6910(3) 1.23034(19) 0.7169(2)
O1 O 0.4963(5) 1.2928(4) 0.8598(4)
H1 H 0.474(9) 1.365(4) 0.887(6)
H2 H 0.405(6) 1.250(6) 0.863(7)
O2 O 0.7781(5) 1.4180(4) 0.6201(4)
H3 H 0.710(8) 1.432(5) 0.568(4)
H4 H 0.781(8) 1.481(5) 0.673(4)
O3 O 0.9204(5) 1.3167(4) 0.8678(4)
H5 H 0.982(7) 1.386(4) 0.883(6)
H6 H 0.854(8) 1.299(6) 0.922(4)
O4 O 0.4326(5) 1.1534(4) 0.5740(4)
H7 H 0.457(8) 1.160(5) 0.504(3)
H8 H 0.369(7) 1.083(4) 0.571(5)
O5 O 1.2008(5) 1.3340(4) 0.6402(4)
H9 H 1.286(7) 1.303(6) 0.607(5)
H10 H 1.159(9) 1.304(6) 0.695(4)
O6 O 1.1404(5) 1.2039(4) 0.3334(4)
H11 H 1.137(7) 1.256(5) 0.285(5)
H12 H 1.239(5) 1.185(5) 0.335(5)
O7 O 0.7699(5) 1.3102(4) 0.3328(4)
H13 H 0.686(6) 1.348(6) 0.359(5)
H14 H 0.786(8) 1.329(6) 0.266(3)
N1 N 0.8358(6) 0.6307(4) 0.0682(4)
C1 C 0.7459(7) 0.6338(6) 0.1812(5)
H15 H 0.7942 0.5716 0.2265
C2 C 0.5563(8) 0.5816(5) 0.1489(5)
H16 H 0.4754 0.6226 0.2045
O8 O 0.5336(5) 0.4434(3) 0.1453(4)
H17 H 0.4261 0.4127 0.1337
C3 C 0.5332(7) 0.6162(5) 0.0276(5)
H18 H 0.5123 0.7088 0.0334
O9 O 0.3980(5) 0.5334(3) -0.0465(3)
H19 H 0.3006 0.5596 -0.0344
C4 C 0.7074(7) 0.6011(5) -0.0323(5)
H20 H 0.7034 0.5078 -0.0673
C5 C 0.7362(7) 0.6847(5) -0.1277(5)
H21 H 0.6217 0.6812 -0.1700
H22 H 0.7745 0.7761 -0.0913
O10 O 0.8628(5) 0.6490(4) -0.2104(4)
H23 H 0.9509 0.6310 -0.1753
C6 C 1.0041(8) 0.6007(5) 0.0601(6)
O11 O 1.0922(5) 0.5926(3) 0.1502(3)
O12 O 1.0623(5) 0.5786(3) -0.0429(4)
N2 N 0.7170(5) 0.9150(4) 0.5883(4)
H24 H 0.7040 0.9468 0.6615
C7 C 0.6629(7) 0.7864(5) 0.5547(6)
H25 H 0.6148 0.7366 0.6119
N3 N 0.6719(6) 0.7249(4) 0.4478(4)
C8 C 0.7457(7) 0.8033(5) 0.3708(5)
C9 C 0.8032(7) 0.9355(5) 0.4015(6)
C10 C 0.7918(7) 1.0008(5) 0.5156(5)
O13 O 0.8372(5) 1.1186(4) 0.5543(3)
N4 N 0.8716(6) 0.9840(4) 0.3065(4)
H26 H 0.9166 1.0657 0.3038
C11 C 0.8579(7) 0.8830(5) 0.2156(6)
H27 H 0.8953 0.8901 0.1388
C12 C 0.7809(7) 0.7694(5) 0.2535(5)
C13 C 1.3086(7) 1.9684(5) 0.7875(5)
H28 H 1.3760 2.0289 0.7392
N5 N 1.4092(5) 1.9768(4) 0.8984(4)
C14 C 1.1380(8) 2.0204(6) 0.8215(6)
H29 H 1.0357 1.9738 0.7697
O14 O 1.1631(5) 2.1565(3) 0.8168(3)
H30 H 1.0782 2.1890 0.8474
C15 C 1.1162(7) 1.9941(5) 0.9456(5)
H31 H 1.0555 1.9026 0.9441
O15 O 1.0200(5) 2.0800(3) 1.0168(3)
H32 H 0.9114 2.0517 1.0080
C16 C 1.3006(7) 2.0062(5) 1.0009(5)
H33 H 1.3397 2.0976 1.0401
C17 C 1.3003(7) 1.9131(5) 1.0885(5)
H34 H 1.2039 1.9268 1.1424
H35 H 1.2731 1.8230 1.0466
C18 C 1.5883(7) 2.0141(5) 0.9013(5)
O16 O 1.6680(5) 2.0309(3) 1.0035(3)
O17 O 1.6689(5) 2.0272(3) 0.8106(3)
O18 O 1.4637(5) 1.9248(4) 1.1570(4)
H36 H 1.5472 1.9617 1.1221
N6 N 1.1676(6) 1.6995(4) 0.3774(4)
H37 H 1.1414 1.6694 0.3035
C19 C 1.1920(7) 1.8325(5) 0.4112(6)
H38 H 1.1825 1.8864 0.3529
N7 N 1.2276(6) 1.8893(4) 0.5194(4)
C20 C 1.2396(7) 1.8053(5) 0.5985(5)
C21 C 1.2189(7) 1.6706(5) 0.5691(5)
C22 C 1.1821(7) 1.6103(5) 0.4531(5)
O19 O 1.1628(5) 1.4905(3) 0.4148(3)
N8 N 1.2487(6) 1.6181(4) 0.6665(4)
H39 H 1.2451 1.5346 0.6702
C23 C 1.2852(7) 1.7169(5) 0.7577(6)
H40 H 1.3101 1.7061 0.8359
C24 C 1.2804(7) 1.8343(5) 0.7194(5)
Na2_2 Na 1.6910(3) 2.23034(19) 0.7169(2)
O17_2 O 0.6689(5) 1.0272(3) 0.8106(3)
O20 O 0.4746(6) 1.1225(4) 0.3375(4)
H41 H 0.473(9) 1.055(5) 0.290(5)
H42 H 0.557(7) 1.176(5) 0.322(6)
O21 O 0.7809(5) 0.2924(4) 0.0848(4)
H43 H 0.734(8) 0.221(4) 0.055(6)
H44 H 0.699(6) 0.332(6) 0.108(6)
O22 O 0.5397(5) 0.4641(3) 0.4447(3)
O23 O 0.1833(5) 0.3381(4) 0.1420(4)
H45 H 0.131(8) 0.279(5) 0.094(5)
H46 H 0.124(8) 0.399(5) 0.156(6)
loop_
_geom_bond_atom_site_label_1
_geom_bond_atom_site_label_2
_geom_bond_site_symmetry_1
_geom_bond_site_symmetry_2
Na1 O2 1_555 1_555
Na2 O1 1_555 1_555
O1 H1 1_555 1_555
H2 O1 1_555 1_555
O2 Na2 1_555 1_555
H3 O2 1_555 1_555
H4 O2 1_555 1_555
O3 Na2 1_555 1_555
H5 O3 1_555 1_555
H6 O3 1_555 1_555
O4 Na2 1_555 1_555
H7 O4 1_555 1_555
H8 O4 1_555 1_555
O5 Na1 1_555 1_555
H9 O5 1_555 1_555
H10 O5 1_555 1_555
O6 Na1 1_555 1_555
H11 O6 1_555 1_555
H12 O6 1_555 1_555
O7 Na1 1_555 1_555
H13 O7 1_555 1_555
H14 O7 1_555 1_555
N1 C1 1_555 1_555
C1 H15 1_555 1_555
C2 C1 1_555 1_555
H16 C2 1_555 1_555
O8 C2 1_555 1_555
H17 O8 1_555 1_555
C3 C2 1_555 1_555
H18 C3 1_555 1_555
O9 C3 1_555 1_555
H19 O9 1_555 1_555
C4 N1 1_555 1_555
H20 C4 1_555 1_555
C5 C4 1_555 1_555
H21 C5 1_555 1_555
H22 C5 1_555 1_555
O10 C5 1_555 1_555
H23 O10 1_555 1_555
C6 N1 1_555 1_555
O11 C6 1_555 1_555
O12 C6 1_555 1_555
N2 H24 1_555 1_555
C7 N2 1_555 1_555
H25 C7 1_555 1_555
N3 C7 1_555 1_555
C8 N3 1_555 1_555
C9 C8 1_555 1_555
C10 N2 1_555 1_555
O13 Na1 1_555 1_555
N4 C9 1_555 1_555
H26 N4 1_555 1_555
C11 N4 1_555 1_555
H27 C11 1_555 1_555
C12 C1 1_555 1_555
C13 H28 1_555 1_555
N5 C13 1_555 1_555
C14 C13 1_555 1_555
H29 C14 1_555 1_555
O14 C14 1_555 1_555
H30 O14 1_555 1_555
C15 C14 1_555 1_555
H31 C15 1_555 1_555
O15 C15 1_555 1_555
H32 O15 1_555 1_555
C16 N5 1_555 1_555
H33 C16 1_555 1_555
C17 C16 1_555 1_555
H34 C17 1_555 1_555
H35 C17 1_555 1_555
C18 N5 1_555 1_555
O16 C18 1_555 1_555
O17 C18 1_555 1_555
O18 C17 1_555 1_555
H36 O18 1_555 1_555
N6 H37 1_555 1_555
C19 N6 1_555 1_555
H38 C19 1_555 1_555
N7 C19 1_555 1_555
C20 N7 1_555 1_555
C21 C20 1_555 1_555
C22 N6 1_555 1_555
O19 Na1 1_555 1_555
N8 C21 1_555 1_555
H39 N8 1_555 1_555
C23 N8 1_555 1_555
H40 C23 1_555 1_555
C24 C13 1_555 1_555
O20 H41 1_555 1_555
H42 O20 1_555 1_555
O21 H43 1_555 1_555
H44 O21 1_555 1_555
O23 H45 1_555 1_555
H46 O23 1_555 1_555
Na2_2 O17 1_555 1_555
O17_2 Na2 1_555 1_555
Na2 O13 1_555 1_555
C3 C4 1_555 1_555
C8 C12 1_555 1_555
C9 C10 1_555 1_555
C10 O13 1_555 1_555
C11 C12 1_555 1_555
C15 C16 1_555 1_555
C20 C24 1_555 1_555
C21 C22 1_555 1_555
C22 O19 1_555 1_555
C23 C24 1_555 1_555

#END
