
#######################################################################
#
#                 Cambridge Crystallographic Data Centre
#                                CCDC 
#
#######################################################################
#
# If this CIF has been generated from an entry in the Cambridge 
# Structural Database, then it will include bibliographic, chemical, 
# crystal, experimental, refinement or atomic coordinate data resulting 
# from the CCDC's data processing and validation procedures.
#
#######################################################################

data_KUQWID
_symmetry_cell_setting           monoclinic
_symmetry_space_group_name_H-M   'P 21/c'
_symmetry_Int_Tables_number      14
_space_group_name_Hall           '-P 2ybc'
loop_
_symmetry_equiv_pos_site_id
_symmetry_equiv_pos_as_xyz
1 x,y,z
2 -x,1/2+y,1/2-z
3 -x,-y,-z
4 x,1/2-y,1/2+z
_cell_length_a                   11.3363(2)
_cell_length_b                   9.36220(10)
_cell_length_c                   14.4053(2)
_cell_angle_alpha                90
_cell_angle_beta                 104.8460(6)
_cell_angle_gamma                90
_cell_volume                     1477.84
loop_
_atom_site_label
_atom_site_type_symbol
_atom_site_fract_x
_atom_site_fract_y
_atom_site_fract_z
Mn1 Mn 0.684601(11) 0.136951(13) 0.798151(9)
O1 O 0.64305(6) 0.36233(7) 0.84470(5)
O2 O 0.69659(6) 0.12198(7) 0.96469(5)
O3 O 0.68641(7) 0.21535(8) 1.16655(5)
O4 O 0.64686(6) 0.51037(7) 1.16163(5)
O5 O 0.60917(6) 0.61730(7) 0.96076(5)
O6 O 0.50163(7) 0.06724(10) 0.78987(6)
H1 H 0.4708(15) 0.0771(18) 0.8352(12)
H2 H 0.4651(16) 0.012(2) 0.7534(14)
N1 N 0.88715(7) 0.20062(8) 0.83436(6)
N2 N 0.80304(7) -0.06249(8) 0.84553(5)
C1 C 0.92428(9) 0.33343(10) 0.82123(7)
H3 H 0.8590(13) 0.4009(15) 0.7978(10)
C2 C 1.04630(9) 0.36918(10) 0.83453(7)
H4 H 1.0695(13) 0.4666(16) 0.8253(10)
C3 C 1.13363(9) 0.26271(11) 0.86028(7)
H5 H 1.2189(14) 0.2795(17) 0.8680(11)
C4 C 1.09650(8) 0.12501(10) 0.87448(7)
H6 H 1.1554(14) 0.0518(17) 0.8943(11)
C5 C 0.97229(8) 0.09781(9) 0.86212(6)
C6 C 0.92508(8) -0.04680(9) 0.87424(6)
C7 C 1.00256(9) -0.16065(10) 0.91059(7)
H7 H 1.0909(13) -0.1435(14) 0.9336(11)
C8 C 0.95203(10) -0.29509(10) 0.91378(8)
H8 H 1.0020(15) -0.3742(16) 0.9369(12)
C9 C 0.82694(10) -0.31224(10) 0.88098(8)
H9 H 0.7906(14) -0.4040(17) 0.8810(11)
C10 C 0.75550(9) -0.19272(10) 0.84857(7)
H10 H 0.6684(14) -0.2011(17) 0.8260(11)
C11 C 0.64960(7) 0.36809(9) 0.93330(6)
C12 C 0.67600(7) 0.24299(9) 0.99502(6)
C13 C 0.67313(7) 0.28685(9) 1.09142(6)
C14 C 0.65074(7) 0.44100(9) 1.08891(6)
C15 C 0.63350(7) 0.49386(9) 0.98982(6)
Mn1C Mn 0.684601(11) 0.363049(13) 1.298151(9)
O3C O 0.68641(7) 0.28465(8) 0.66655(5)
O4C O 0.64686(6) -0.01037(7) 0.66163(5)
O7 O 0.40443(8) 0.11709(9) 0.94229(7)
H11 H 0.3853(17) 0.055(2) 0.9735(14)
H12 H 0.4032(17) 0.191(2) 0.9712(14)
loop_
_geom_bond_atom_site_label_1
_geom_bond_atom_site_label_2
_geom_bond_site_symmetry_1
_geom_bond_site_symmetry_2
Mn1 O1 1_555 1_555
O1 C11 1_555 1_555
O2 Mn1 1_555 1_555
O3 C13 1_555 1_555
O4 C14 1_555 1_555
O5 C15 1_555 1_555
O6 Mn1 1_555 1_555
H1 O6 1_555 1_555
H2 O6 1_555 1_555
N1 Mn1 1_555 1_555
N2 Mn1 1_555 1_555
C1 N1 1_555 1_555
H3 C1 1_555 1_555
C2 C1 1_555 1_555
H4 C2 1_555 1_555
C3 C2 1_555 1_555
H5 C3 1_555 1_555
C4 C3 1_555 1_555
H6 C4 1_555 1_555
C5 N1 1_555 1_555
C6 N2 1_555 1_555
C7 C6 1_555 1_555
H7 C7 1_555 1_555
C8 C7 1_555 1_555
H8 C8 1_555 1_555
C9 C8 1_555 1_555
H9 C9 1_555 1_555
C10 N2 1_555 1_555
H10 C10 1_555 1_555
C11 C12 1_555 1_555
C12 O2 1_555 1_555
C13 C12 1_555 1_555
C14 C13 1_555 1_555
C15 C11 1_555 1_555
O7 H11 1_555 1_555
H12 O7 1_555 1_555
Mn1C O3 1_555 1_555
O3C Mn1 1_555 1_555
O4C Mn1 1_555 1_555
O4 Mn1C 1_555 1_555
C4 C5 1_555 1_555
C5 C6 1_555 1_555
C9 C10 1_555 1_555
C14 C15 1_555 1_555

#END
