
#######################################################################
#
#                 Cambridge Crystallographic Data Centre
#                                CCDC 
#
#######################################################################
#
# If this CIF has been generated from an entry in the Cambridge 
# Structural Database, then it will include bibliographic, chemical, 
# crystal, experimental, refinement or atomic coordinate data resulting 
# from the CCDC's data processing and validation procedures.
#
#######################################################################

data_KUQWEA
_symmetry_cell_setting           monoclinic
_symmetry_space_group_name_H-M   'C 2/c'
_symmetry_Int_Tables_number      15
_space_group_name_Hall           '-C 2yn'
loop_
_symmetry_equiv_pos_site_id
_symmetry_equiv_pos_as_xyz
1 x,y,z
2 -x,y,1/2-z
3 1/2+x,1/2+y,z
4 1/2-x,1/2+y,1/2-z
5 -x,-y,-z
6 x,-y,1/2+z
7 1/2-x,1/2-y,-z
8 1/2+x,1/2-y,1/2+z
_cell_length_a                   26.362(5)
_cell_length_b                   16.670(3)
_cell_length_c                   19.521(4)
_cell_angle_alpha                90
_cell_angle_beta                 108.29(3)
_cell_angle_gamma                90
_cell_volume                     8145.2
loop_
_atom_site_label
_atom_site_type_symbol
_atom_site_fract_x
_atom_site_fract_y
_atom_site_fract_z
Fe1 Fe 0.14543(3) 0.51882(5) 0.14795(4)
Co1 Co 0.0000 0.58289(6) 0.2500
Co2 Co 0.24888(3) 0.78223(5) 0.21873(5)
C1 C 0.1066(3) 0.5514(3) 0.2143(3)
C2 C 0.1937(2) 0.6103(4) 0.1758(3)
C3 C 0.1954(3) 0.4440(4) 0.2127(3)
C4 C 0.1765(3) 0.4884(4) 0.0747(3)
C5 C 0.0977(3) 0.4280(4) 0.1247(3)
C6 C 0.0962(2) 0.5896(4) 0.0818(3)
C7 C 0.0000 0.8736(6) 0.2500
H1 H 0.0000 0.9294 0.2500
C8 C 0.0199(3) 0.8319(4) 0.3149(4)
H2 H 0.0332 0.8590 0.3585
C9 C 0.0191(2) 0.7487(4) 0.3124(4)
C10 C 0.0379(3) 0.6966(4) 0.3760(4)
C11 C 0.0603(3) 0.7322(4) 0.4496(4)
H3 H 0.0709 0.6901 0.4847
H4 H 0.0336 0.7648 0.4599
H5 H 0.0908 0.7647 0.4514
C12 C 0.0478(3) 0.5618(4) 0.4192(3)
H6 H 0.0184 0.5522 0.4381
H7 H 0.0786 0.5794 0.4584
C13 C 0.0612(3) 0.4846(4) 0.3848(3)
H8 H 0.0947 0.4906 0.3746
H9 H 0.0641 0.4393 0.4170
C14 C 0.0235(3) 0.4013(4) 0.2836(3)
H10 H 0.0228 0.3547 0.3130
H11 H 0.0567 0.4011 0.2719
C15 C 0.1820(4) 0.8924(5) 0.0010(4)
H12 H 0.1463 0.9039 0.0011
H13 H 0.1805 0.8609 -0.0408
H14 H 0.2005 0.9417 -0.0002
C16 C 0.2109(4) 0.8467(4) 0.0675(4)
C17 C 0.2684(4) 0.8230(4) 0.0787(4)
C18 C 0.2967(5) 0.8335(5) 0.0298(5)
H15 H 0.2806 0.8573 -0.0148
C19 C 0.3473(5) 0.8087(6) 0.0488(6)
H16 H 0.3666 0.8159 0.0166
C20 C 0.3722(3) 0.7726(5) 0.1147(5)
H17 H 0.4071 0.7538 0.1265
C21 C 0.3426(3) 0.7655(4) 0.1633(4)
C22 C 0.3623(3) 0.7337(4) 0.2374(4)
C23 C 0.4186(3) 0.7029(4) 0.2647(4)
H18 H 0.4259 0.6841 0.3134
H19 H 0.4429 0.7453 0.2636
H20 H 0.4229 0.6595 0.2347
C24 C 0.3425(3) 0.7092(4) 0.3463(4)
H21 H 0.3798 0.7199 0.3717
H22 H 0.3364 0.6520 0.3479
C25 C 0.3081(3) 0.7535(4) 0.3808(4)
H23 H 0.3105 0.7297 0.4270
H24 H 0.3193 0.8091 0.3886
C26 C 0.2167(4) 0.7860(5) 0.3606(4)
H25 H 0.2254 0.8422 0.3708
H26 H 0.2159 0.7598 0.4046
C27 C 0.1640(4) 0.7770(5) 0.3021(5)
H27 H 0.1551 0.7207 0.2926
H28 H 0.1357 0.8027 0.3161
C28 C 0.1268(3) 0.8049(5) 0.1757(5)
H29 H 0.0943 0.8250 0.1829
H30 H 0.1219 0.7484 0.1634
C29 C 0.1385(3) 0.8499(5) 0.1172(5)
H31 H 0.1356 0.9070 0.1244
H32 H 0.1131 0.8354 0.0710
N1 N 0.0775(2) 0.5718(3) 0.2431(3)
N2 N 0.2189(2) 0.6666(3) 0.1911(3)
N3 N 0.2240(2) 0.3971(3) 0.2440(3)
N4 N 0.1950(2) 0.4698(3) 0.0315(3)
N5 N 0.0722(2) 0.3707(3) 0.1151(3)
N6 N 0.0689(2) 0.6375(3) 0.0452(3)
N7 N 0.0000 0.7090(4) 0.2500
N8 N 0.03297(19) 0.6227(3) 0.3623(3)
N9 N 0.2914(2) 0.7897(3) 0.1438(3)
N10 N 0.1934(2) 0.8296(3) 0.1184(3)
N11 N 0.3291(2) 0.7358(3) 0.2717(3)
O1 O 0.01826(16) 0.4732(2) 0.3200(2)
O2 O 0.17041(19) 0.8154(3) 0.2389(3)
O3 O 0.25422(19) 0.7489(2) 0.3331(2)
C8A C -0.0199(3) 0.8319(4) 0.1851(4)
H2A H -0.0332 0.8590 0.1415
C9A C -0.0191(2) 0.7487(4) 0.1876(4)
C10A C -0.0379(3) 0.6966(4) 0.1240(4)
C11A C -0.0603(3) 0.7322(4) 0.0504(4)
H3A H -0.0709 0.6901 0.0153
H4A H -0.0336 0.7648 0.0401
H5A H -0.0908 0.7647 0.0486
C12A C -0.0478(3) 0.5618(4) 0.0808(3)
H6A H -0.0184 0.5522 0.0619
H7A H -0.0786 0.5794 0.0416
C13A C -0.0612(3) 0.4846(4) 0.1152(3)
H8A H -0.0947 0.4906 0.1254
H9A H -0.0641 0.4393 0.0830
C14A C -0.0235(3) 0.4013(4) 0.2164(3)
H10A H -0.0228 0.3547 0.1870
H11A H -0.0567 0.4011 0.2281
N8A N -0.03297(19) 0.6227(3) 0.1377(3)
O1A O -0.01826(16) 0.4732(2) 0.1800(2)
Fe1A Fe -0.14543(3) 0.51882(5) 0.35205(4)
Co2A Co -0.24888(3) 0.78223(5) 0.28127(5)
C1A C -0.1066(3) 0.5514(3) 0.2857(3)
C2A C -0.1937(2) 0.6103(4) 0.3242(3)
C3A C -0.1954(3) 0.4440(4) 0.2873(3)
C4A C -0.1765(3) 0.4884(4) 0.4253(3)
C5A C -0.0977(3) 0.4280(4) 0.3753(3)
C6A C -0.0962(2) 0.5896(4) 0.4182(3)
C15A C -0.1820(4) 0.8924(5) 0.4990(4)
H12A H -0.1463 0.9039 0.4989
H13A H -0.1805 0.8609 0.5408
H14A H -0.2005 0.9417 0.5002
C16A C -0.2109(4) 0.8467(4) 0.4325(4)
C17A C -0.2684(4) 0.8230(4) 0.4213(4)
C18A C -0.2967(5) 0.8335(5) 0.4702(5)
H15A H -0.2806 0.8573 0.5148
C19A C -0.3473(5) 0.8087(6) 0.4512(6)
H16A H -0.3666 0.8159 0.4834
C20A C -0.3722(3) 0.7726(5) 0.3853(5)
H17A H -0.4071 0.7538 0.3735
C21A C -0.3426(3) 0.7655(4) 0.3367(4)
C22A C -0.3623(3) 0.7337(4) 0.2626(4)
C23A C -0.4186(3) 0.7029(4) 0.2353(4)
H18A H -0.4259 0.6841 0.1866
H19A H -0.4429 0.7453 0.2364
H20A H -0.4229 0.6595 0.2653
C24A C -0.3425(3) 0.7092(4) 0.1537(4)
H21A H -0.3798 0.7199 0.1283
H22A H -0.3364 0.6520 0.1521
C25A C -0.3081(3) 0.7535(4) 0.1192(4)
H23A H -0.3105 0.7297 0.0730
H24A H -0.3193 0.8091 0.1114
C26A C -0.2167(4) 0.7860(5) 0.1394(4)
H25A H -0.2254 0.8422 0.1292
H26A H -0.2159 0.7598 0.0954
C27A C -0.1640(4) 0.7770(5) 0.1979(5)
H27A H -0.1551 0.7207 0.2074
H28A H -0.1357 0.8027 0.1839
C28A C -0.1268(3) 0.8049(5) 0.3243(5)
H29A H -0.0943 0.8250 0.3171
H30A H -0.1219 0.7484 0.3366
C29A C -0.1385(3) 0.8499(5) 0.3828(5)
H31A H -0.1356 0.9070 0.3756
H32A H -0.1131 0.8354 0.4290
N1A N -0.0775(2) 0.5718(3) 0.2569(3)
N2A N -0.2189(2) 0.6666(3) 0.3089(3)
N3A N -0.2240(2) 0.3971(3) 0.2560(3)
N4A N -0.1950(2) 0.4698(3) 0.4685(3)
N5A N -0.0722(2) 0.3707(3) 0.3849(3)
N6A N -0.0689(2) 0.6375(3) 0.4548(3)
N9A N -0.2914(2) 0.7897(3) 0.3562(3)
N10A N -0.1934(2) 0.8296(3) 0.3816(3)
N11A N -0.3291(2) 0.7358(3) 0.2283(3)
O2A O -0.17041(19) 0.8154(3) 0.2611(3)
O3A O -0.25422(19) 0.7489(2) 0.1669(2)
Co2B Co -0.25112(3) 0.28223(5) 0.21873(5)
Co2C Co 0.25112(3) 0.28223(5) 0.28127(5)
N3B N -0.2760(2) 0.8971(3) 0.2440(3)
N3C N 0.2760(2) 0.8971(3) 0.2560(3)
C30 C 0.2321(3) 0.4452(5) 0.8767(4)
O4 O 0.25148(19) 0.4063(3) 0.9473(3)
O5 O 0.4703(2) 0.5617(3) 0.1763(3)
O6 O 0.0717(2) 0.0290(3) 0.0273(3)
O7 O 0.0728(6) 0.9905(9) 0.1698(7)
O8 O 0.1443(2) 0.8999(3) 0.4648(3)
O10 O 0.1249(3) 0.0147(4) 0.8362(4)
O11 O 0.0150(2) 0.8938(3) 0.9499(3)
O12 O 0.01546(17) 0.7344(2) 0.9316(2)
O9? O 0.1838(5) 0.9794(7) 0.7723(7)
loop_
_geom_bond_atom_site_label_1
_geom_bond_atom_site_label_2
_geom_bond_site_symmetry_1
_geom_bond_site_symmetry_2
Fe1 C1 1_555 1_555
Co1 N1 1_555 1_555
Co2 N2 1_555 1_555
C1 N1 1_555 1_555
C2 Fe1 1_555 1_555
C3 Fe1 1_555 1_555
C4 Fe1 1_555 1_555
C5 Fe1 1_555 1_555
C6 Fe1 1_555 1_555
C7 H1 1_555 1_555
C8 C7 1_555 1_555
H2 C8 1_555 1_555
C9 C8 1_555 1_555
C10 C9 1_555 1_555
C11 C10 1_555 1_555
H3 C11 1_555 1_555
H4 C11 1_555 1_555
H5 C11 1_555 1_555
C12 H6 1_555 1_555
H7 C12 1_555 1_555
C13 C12 1_555 1_555
H8 C13 1_555 1_555
H9 C13 1_555 1_555
C14 H10 1_555 1_555
H11 C14 1_555 1_555
C15 H12 1_555 1_555
H13 C15 1_555 1_555
H14 C15 1_555 1_555
C16 C15 1_555 1_555
C17 C16 1_555 1_555
C18 C17 1_555 1_555
H15 C18 1_555 1_555
C19 C18 1_555 1_555
H16 C19 1_555 1_555
C20 C19 1_555 1_555
H17 C20 1_555 1_555
C21 C20 1_555 1_555
C22 C21 1_555 1_555
C23 C22 1_555 1_555
H18 C23 1_555 1_555
H19 C23 1_555 1_555
H20 C23 1_555 1_555
C24 H21 1_555 1_555
H22 C24 1_555 1_555
C25 C24 1_555 1_555
H23 C25 1_555 1_555
H24 C25 1_555 1_555
C26 H25 1_555 1_555
H26 C26 1_555 1_555
C27 C26 1_555 1_555
H27 C27 1_555 1_555
H28 C27 1_555 1_555
C28 H29 1_555 1_555
H30 C28 1_555 1_555
C29 C28 1_555 1_555
H31 C29 1_555 1_555
H32 C29 1_555 1_555
N2 C2 1_555 1_555
N3 C3 1_555 1_555
N4 C4 1_555 1_555
N5 C5 1_555 1_555
N6 C6 1_555 1_555
N7 Co1 1_555 1_555
N8 Co1 1_555 1_555
N9 Co2 1_555 1_555
N10 Co2 1_555 1_555
N11 Co2 1_555 1_555
O1 Co1 1_555 1_555
O2 Co2 1_555 1_555
O3 Co2 1_555 1_555
C30 O4 1_555 1_555
C8A C7 1_555 1_555
H2A C8A 1_555 1_555
C9A N7 1_555 1_555
C10A C9A 1_555 1_555
C11A C10A 1_555 1_555
H3A C11A 1_555 1_555
H4A C11A 1_555 1_555
H5A C11A 1_555 1_555
C12A H6A 1_555 1_555
H7A C12A 1_555 1_555
C13A C12A 1_555 1_555
H8A C13A 1_555 1_555
H9A C13A 1_555 1_555
C14A C14 1_555 1_555
H10A C14A 1_555 1_555
H11A C14A 1_555 1_555
N8A Co1 1_555 1_555
O1A Co1 1_555 1_555
Fe1A C1A 1_555 1_555
Co2A N2A 1_555 1_555
C1A N1A 1_555 1_555
C2A Fe1A 1_555 1_555
C3A Fe1A 1_555 1_555
C4A Fe1A 1_555 1_555
C5A Fe1A 1_555 1_555
C6A Fe1A 1_555 1_555
C15A H12A 1_555 1_555
H13A C15A 1_555 1_555
H14A C15A 1_555 1_555
C16A C15A 1_555 1_555
C17A C16A 1_555 1_555
C18A C17A 1_555 1_555
H15A C18A 1_555 1_555
C19A C18A 1_555 1_555
H16A C19A 1_555 1_555
C20A C19A 1_555 1_555
H17A C20A 1_555 1_555
C21A C20A 1_555 1_555
C22A C21A 1_555 1_555
C23A C22A 1_555 1_555
H18A C23A 1_555 1_555
H19A C23A 1_555 1_555
H20A C23A 1_555 1_555
C24A H21A 1_555 1_555
H22A C24A 1_555 1_555
C25A C24A 1_555 1_555
H23A C25A 1_555 1_555
H24A C25A 1_555 1_555
C26A H25A 1_555 1_555
H26A C26A 1_555 1_555
C27A C26A 1_555 1_555
H27A C27A 1_555 1_555
H28A C27A 1_555 1_555
C28A H29A 1_555 1_555
H30A C28A 1_555 1_555
C29A C28A 1_555 1_555
H31A C29A 1_555 1_555
H32A C29A 1_555 1_555
N1A Co1 1_555 1_555
N2A C2A 1_555 1_555
N3A C3A 1_555 1_555
N4A C4A 1_555 1_555
N5A C5A 1_555 1_555
N6A C6A 1_555 1_555
N9A Co2A 1_555 1_555
N10A Co2A 1_555 1_555
N11A Co2A 1_555 1_555
O2A Co2A 1_555 1_555
O3A Co2A 1_555 1_555
Co2B N3A 1_555 1_555
Co2C N3 1_555 1_555
N3B Co2A 1_555 1_555
N3C Co2 1_555 1_555
C9 N7 1_555 1_555
C10 N8 1_555 1_555
C12 N8 1_555 1_555
C13 O1 1_555 1_555
C14 O1 1_555 1_555
C16 N10 1_555 1_555
C17 N9 1_555 1_555
C21 N9 1_555 1_555
C22 N11 1_555 1_555
C24 N11 1_555 1_555
C25 O3 1_555 1_555
C26 O3 1_555 1_555
C27 O2 1_555 1_555
C28 O2 1_555 1_555
C29 N10 1_555 1_555
C8A C9A 1_555 1_555
C10A N8A 1_555 1_555
C12A N8A 1_555 1_555
C13A O1A 1_555 1_555
C14A O1A 1_555 1_555
C16A N10A 1_555 1_555
C17A N9A 1_555 1_555
C21A N9A 1_555 1_555
C22A N11A 1_555 1_555
C24A N11A 1_555 1_555
C25A O3A 1_555 1_555
C26A O3A 1_555 1_555
C27A O2A 1_555 1_555
C28A O2A 1_555 1_555
C29A N10A 1_555 1_555

#END
