
#######################################################################
#
#                 Cambridge Crystallographic Data Centre
#                                CCDC 
#
#######################################################################
#
# If this CIF has been generated from an entry in the Cambridge 
# Structural Database, then it will include bibliographic, chemical, 
# crystal, experimental, refinement or atomic coordinate data resulting 
# from the CCDC's data processing and validation procedures.
#
#######################################################################

data_KUQWOK
_symmetry_cell_setting           monoclinic
_symmetry_space_group_name_H-M   'P 21/c'
_symmetry_Int_Tables_number      14
_space_group_name_Hall           '-P 2ybc'
loop_
_symmetry_equiv_pos_site_id
_symmetry_equiv_pos_as_xyz
1 x,y,z
2 -x,1/2+y,1/2-z
3 -x,-y,-z
4 x,1/2-y,1/2+z
_cell_length_a                   11.6729(6)
_cell_length_b                   8.9390(4)
_cell_length_c                   12.9834(7)
_cell_angle_alpha                90
_cell_angle_beta                 110.2660(10)
_cell_angle_gamma                90
_cell_volume                     1270.87
loop_
_atom_site_label
_atom_site_type_symbol
_atom_site_fract_x
_atom_site_fract_y
_atom_site_fract_z
Cd1 Cd 0.19578(2) 0.68454(2) 0.32530(2)
Cd2 Cd 1.0000 0.5000 0.5000
C1 C 0.38592(16) 0.7484(2) 0.25932(16)
H1 H 0.693(3) 0.554(3) 0.196(2)
C2 C 0.48824(16) 0.7751(2) 0.21370(15)
H2 H 0.4859 0.8798 0.1905
C3 C 0.61088(17) 0.7447(2) 0.30516(16)
H3 H 0.6222 0.8166 0.3638
H4 H 0.6090 0.6457 0.3351
C4 C 0.71792(18) 0.7547(2) 0.26481(17)
H5 H 0.7254 0.8564 0.2419
H6 H 0.7927 0.7295 0.3242
C5 C 0.58487(19) 0.6867(2) 0.07810(16)
H7 H 0.5746 0.6186 0.0174
H8 H 0.5896 0.7876 0.0524
C6 C 0.47549(18) 0.6741(2) 0.11594(16)
H9 H 0.4672 0.5711 0.1360
H10 H 0.4019 0.7008 0.0557
C7 C 0.8100(2) 0.6541(3) 0.13335(19)
H11 H 0.8451 0.7537 0.1462
H12 H 0.7827 0.6356 0.0549
N1 N 0.70087(14) 0.65002(18) 0.17007(13)
O1 O 0.89573(14) 0.37548(16) 0.13503(12)
O2 O 0.92746(14) 0.49872(17) 0.31716(12)
O3 O 1.04438(12) 0.58569(16) 0.19270(11)
O4 O 0.33344(17) 0.62399(19) 0.24401(18)
O5 O 0.35924(15) 0.84842(17) 0.31505(14)
O6 O 0.98931(14) 0.75577(18) 0.49700(13)
H13 H 1.023(3) 0.803(3) 0.458(2)
H14 H 1.017(3) 0.801(4) 0.551(3)
P1 P 0.92940(4) 0.51789(5) 0.20281(4)
Cl1 Cl 1.23185(5) 0.52755(6) 0.49213(4)
Cd1B Cd 1.80422(2) 0.31546(2) 0.67470(2)
C1B C 1.61408(16) 0.2516(2) 0.74068(16)
H1B H 1.307(3) 0.446(3) 0.804(2)
C2B C 1.51176(16) 0.2249(2) 0.78630(15)
H2B H 1.5141 0.1202 0.8095
C3B C 1.38912(17) 0.2553(2) 0.69484(16)
H3B H 1.3778 0.1834 0.6362
H4B H 1.3910 0.3543 0.6649
C4B C 1.28208(18) 0.2453(2) 0.73519(17)
H5B H 1.2746 0.1436 0.7581
H6B H 1.2073 0.2705 0.6758
C5B C 1.41513(19) 0.3133(2) 0.92190(16)
H7B H 1.4254 0.3814 0.9826
H8B H 1.4104 0.2124 0.9476
C6B C 1.52451(18) 0.3259(2) 0.88406(16)
H9B H 1.5328 0.4289 0.8640
H10B H 1.5981 0.2992 0.9443
C7B C 1.1900(2) 0.3459(3) 0.86665(19)
H11B H 1.1549 0.2463 0.8538
H12B H 1.2173 0.3644 0.9451
N1B N 1.29913(14) 0.34998(18) 0.82993(13)
O1B O 1.10427(14) 0.62452(16) 0.86497(12)
O2B O 1.07254(14) 0.50128(17) 0.68284(12)
O3B O 0.95562(12) 0.41431(16) 0.80730(11)
O4B O 1.66656(17) 0.37601(19) 0.75599(18)
O5B O 1.64076(15) 0.15158(17) 0.68495(14)
O6B O 1.01069(14) 0.24423(18) 0.50300(13)
H13B H 0.977(3) 0.197(3) 0.542(2)
H14B H 0.983(3) 0.199(4) 0.449(3)
P1B P 1.07060(4) 0.48211(5) 0.79719(4)
Cl1B Cl 0.76815(5) 0.47245(6) 0.50787(4)
Cd1_2 Cd 1.19578(2) 0.68454(2) 0.32530(2)
Cd1A Cd 0.80422(2) 0.18454(2) 0.17470(2)
Cd1B_2 Cd 0.80422(2) 0.31546(2) 0.67470(2)
Cd1C Cd 1.19578(2) 0.81546(2) 0.82530(2)
O1A O 0.10427(14) 0.87548(16) 0.36497(12)
O1C O 1.89573(14) 0.12452(16) 0.63503(12)
O3_2 O 0.04438(12) 0.58569(16) 0.19270(11)
O3B_2 O 1.95562(12) 0.41431(16) 0.80730(11)
Cl1_2 Cl 0.23185(5) 0.52755(6) 0.49213(4)
Cl1B_2 Cl 1.76815(5) 0.47245(6) 0.50787(4)
loop_
_geom_bond_atom_site_label_1
_geom_bond_atom_site_label_2
_geom_bond_site_symmetry_1
_geom_bond_site_symmetry_2
Cd1 O4 1_555 1_555
Cd2 O2 1_555 1_555
C1 C2 1_555 1_555
H1 N1 1_555 1_555
C2 H2 1_555 1_555
C3 C2 1_555 1_555
H3 C3 1_555 1_555
H4 C3 1_555 1_555
C4 C3 1_555 1_555
H5 C4 1_555 1_555
H6 C4 1_555 1_555
C5 H7 1_555 1_555
H8 C5 1_555 1_555
C6 C2 1_555 1_555
H9 C6 1_555 1_555
H10 C6 1_555 1_555
C7 H11 1_555 1_555
H12 C7 1_555 1_555
N1 C4 1_555 1_555
O1 P1 1_555 1_555
O2 P1 1_555 1_555
O3 P1 1_555 1_555
O4 C1 1_555 1_555
O5 Cd1 1_555 1_555
O6 Cd2 1_555 1_555
H13 O6 1_555 1_555
H14 O6 1_555 1_555
P1 C7 1_555 1_555
Cl1 Cd2 1_555 1_555
Cd1B O4B 1_555 1_555
C1B C2B 1_555 1_555
H1B N1B 1_555 1_555
C2B H2B 1_555 1_555
C3B C2B 1_555 1_555
H3B C3B 1_555 1_555
H4B C3B 1_555 1_555
C4B C3B 1_555 1_555
H5B C4B 1_555 1_555
H6B C4B 1_555 1_555
C5B H7B 1_555 1_555
H8B C5B 1_555 1_555
C6B C2B 1_555 1_555
H9B C6B 1_555 1_555
H10B C6B 1_555 1_555
C7B H11B 1_555 1_555
H12B C7B 1_555 1_555
N1B C4B 1_555 1_555
O1B P1B 1_555 1_555
O2B Cd2 1_555 1_555
O3B P1B 1_555 1_555
O4B C1B 1_555 1_555
O5B Cd1B 1_555 1_555
O6B Cd2 1_555 1_555
H13B O6B 1_555 1_555
H14B O6B 1_555 1_555
P1B C7B 1_555 1_555
Cl1B Cd2 1_555 1_555
Cd1_2 O3 1_555 1_555
Cd1A O1 1_555 1_555
Cd1B_2 O3B 1_555 1_555
Cd1C O1B 1_555 1_555
O1A Cd1 1_555 1_555
O1C Cd1B 1_555 1_555
O3_2 Cd1 1_555 1_555
O3B_2 Cd1B 1_555 1_555
Cl1_2 Cd1 1_555 1_555
Cl1B_2 Cd1B 1_555 1_555
C1 O5 1_555 1_555
C5 C6 1_555 1_555
C5 N1 1_555 1_555
C7 N1 1_555 1_555
Cl1 Cd1_2 1_555 1_555
C1B O5B 1_555 1_555
C5B C6B 1_555 1_555
C5B N1B 1_555 1_555
C7B N1B 1_555 1_555
O2B P1B 1_555 1_555
Cl1B Cd1B_2 1_555 1_555

#END
