
#######################################################################
#
#                 Cambridge Crystallographic Data Centre
#                                CCDC 
#
#######################################################################
#
# If this CIF has been generated from an entry in the Cambridge 
# Structural Database, then it will include bibliographic, chemical, 
# crystal, experimental, refinement or atomic coordinate data resulting 
# from the CCDC's data processing and validation procedures.
#
#######################################################################

data_KUQXUQ
_symmetry_cell_setting           triclinic
_symmetry_space_group_name_H-M   'P -1'
_symmetry_Int_Tables_number      2
_space_group_name_Hall           '-P 1'
loop_
_symmetry_equiv_pos_site_id
_symmetry_equiv_pos_as_xyz
1 x,y,z
2 -x,-y,-z
_cell_length_a                   5.16248(13)
_cell_length_b                   6.32103(16)
_cell_length_c                   8.9925(2)
_cell_angle_alpha                100.1652(13)
_cell_angle_beta                 101.4538(12)
_cell_angle_gamma                90.4234(12)
_cell_volume                     282.813
loop_
_atom_site_label
_atom_site_type_symbol
_atom_site_fract_x
_atom_site_fract_y
_atom_site_fract_z
Cu1 Cu 1.00000 0.00000 1.00000
Cl1 Cl 1.0253(4) -0.3188(4) 0.8346(2)
N1 N 0.4609(11) 0.2789(10) 0.6788(7)
N2 N 0.6653(11) 0.2114(12) 0.6192(7)
N3 N 0.8589(11) 0.1207(10) 0.6938(6)
N4 N 0.7562(11) 0.1194(10) 0.8198(7)
C1 C 0.5317(14) 0.2183(15) 0.8152(7)
N5 N 0.3871(11) 0.2243(12) 0.9289(7)
C2 C 0.7091(13) 0.2576(12) 0.4719(8)
H1 H 0.32285 0.35726 0.93370
H2 H 0.51557 0.23496 1.01409
H3 H 0.55753 0.32454 0.42251
H4 H 0.73579 0.12546 0.40610
H5 H 0.86268 0.35217 0.48962
Cu1_2 Cu 0.00000 0.00000 1.00000
Cu1_3 Cu 2.00000 0.00000 1.00000
Cl1A Cl 0.9747(4) 0.3188(4) 1.1654(2)
N1_2 N 1.4609(11) 0.2789(10) 0.6788(7)
N2_2 N 1.6653(11) 0.2114(12) 0.6192(7)
N3_2 N 1.8589(11) 0.1207(10) 0.6938(6)
N4_2 N 1.7562(11) 0.1194(10) 0.8198(7)
N4A N 1.2438(11) -0.1194(10) 1.1802(7)
C1_2 C 1.5317(14) 0.2183(15) 0.8152(7)
N5_2 N 1.3871(11) 0.2243(12) 0.9289(7)
N5A N 0.6129(11) -0.2243(12) 1.0711(7)
C2_2 C 1.7091(13) 0.2576(12) 0.4719(8)
H1_2 H 1.32285 0.35726 0.93370
H1A H 0.67715 -0.35726 1.06630
H2_2 H 1.51557 0.23496 1.01409
H2A H 0.48443 -0.23496 0.98591
H3_2 H 1.55753 0.32454 0.42251
H4_2 H 1.73579 0.12546 0.40610
H5_2 H 1.86268 0.35217 0.48962
loop_
_geom_bond_atom_site_label_1
_geom_bond_atom_site_label_2
_geom_bond_site_symmetry_1
_geom_bond_site_symmetry_2
Cu1 Cl1 1_555 1_555
N1 N2 1_555 1_555
N2 N3 1_555 1_555
N3 N4 1_555 1_555
N4 Cu1 1_555 1_555
C1 N1 1_555 1_555
N5 C1 1_555 1_555
C2 N2 1_555 1_555
H1 N5 1_555 1_555
H2 N5 1_555 1_555
H3 C2 1_555 1_555
H4 C2 1_555 1_555
H5 C2 1_555 1_555
Cu1_2 N5 1_555 1_555
Cu1_3 N4_2 1_555 1_555
Cl1A Cu1 1_555 1_555
N1_2 N2_2 1_555 1_555
N2_2 N3_2 1_555 1_555
N3_2 N4_2 1_555 1_555
N4_2 C1_2 1_555 1_555
N4A Cu1 1_555 1_555
C1_2 N1_2 1_555 1_555
N5_2 Cu1 1_555 1_555
N5A Cu1 1_555 1_555
C2_2 N2_2 1_555 1_555
H1_2 N5_2 1_555 1_555
H1A N5A 1_555 1_555
H2_2 N5_2 1_555 1_555
H2A N5A 1_555 1_555
H3_2 C2_2 1_555 1_555
H4_2 C2_2 1_555 1_555
H5_2 C2_2 1_555 1_555
N4 C1 1_555 1_555
C1_2 N5_2 1_555 1_555

#END
