
#######################################################################
#
#                 Cambridge Crystallographic Data Centre
#                                CCDC 
#
#######################################################################
#
# If this CIF has been generated from an entry in the Cambridge 
# Structural Database, then it will include bibliographic, chemical, 
# crystal, experimental, refinement or atomic coordinate data resulting 
# from the CCDC's data processing and validation procedures.
#
#######################################################################

data_KUQXAX
_symmetry_cell_setting           monoclinic
_symmetry_space_group_name_H-M   'P 21/n'
_symmetry_Int_Tables_number      14
_space_group_name_Hall           '-P 2yn'
loop_
_symmetry_equiv_pos_site_id
_symmetry_equiv_pos_as_xyz
1 x,y,z
2 1/2-x,1/2+y,1/2-z
3 -x,-y,-z
4 1/2+x,1/2-y,1/2+z
_cell_length_a                   10.187(2)
_cell_length_b                   42.792(9)
_cell_length_c                   17.083(3)
_cell_angle_alpha                90
_cell_angle_beta                 101.50(3)
_cell_angle_gamma                90
_cell_volume                     7297.36
loop_
_atom_site_label
_atom_site_type_symbol
_atom_site_fract_x
_atom_site_fract_y
_atom_site_fract_z
Co1 Co 0.26113(15) 0.33710(3) 0.66016(9)
Co2 Co -0.13811(11) 0.41716(3) 0.89960(8)
Co3 Co 0.43852(15) 0.32877(4) 1.11935(10)
Fe1 Fe 0.36170(11) 0.41079(3) 0.89966(7)
Fe2 Fe 0.34819(14) 0.30509(3) 1.39106(9)
C1 C 0.3002(8) 0.3822(2) 0.8116(6)
C2 C 0.1817(9) 0.4122(2) 0.9220(5)
C3 C 0.4087(9) 0.3761(3) 0.9738(6)
C4 C 0.5413(9) 0.41182(19) 0.8773(5)
C5 C 0.4260(8) 0.4381(2) 0.9901(6)
C6 C 0.3139(10) 0.4440(2) 0.8269(6)
C7 C 0.3855(11) 0.3039(2) 1.2846(7)
C8 C 0.3113(12) 0.3087(3) 1.4979(8)
C9 C 0.154(2) 0.2988(5) 1.3588(12)
C10 C 0.543(2) 0.3060(6) 1.4272(13)
C11 C 0.341(3) 0.3469(7) 1.3936(17)
C12 C 0.3616(17) 0.2578(4) 1.4053(10)
N1 N 0.051(2) 0.2957(5) 1.3382(11)
N2 N 0.652(2) 0.3060(5) 1.4496(12)
N3 N 0.305(3) 0.3715(7) 1.3807(16)
N4 N 0.3742(15) 0.2327(4) 1.4118(9)
C13 C -0.0390(19) 0.3326(5) 0.5923(12)
C14 C -0.1506(17) 0.3138(4) 0.5860(11)
H1 H -0.2204 0.3174 0.5428
C15 C -0.1683(18) 0.2908(4) 0.6359(11)
H2 H -0.2553 0.2837 0.6333
C16 C -0.0677(16) 0.2768(4) 0.6911(11)
H3 H -0.0767 0.2596 0.7230
C17 C 0.0490(16) 0.2932(4) 0.6896(10)
C18 C 0.1658(19) 0.2815(3) 0.7391(9)
C19 C 0.1652(16) 0.2517(3) 0.7892(8)
H4 H 0.2556 0.2460 0.8126
H5 H 0.1235 0.2350 0.7555
H6 H 0.1160 0.2554 0.8307
C20 C 0.4025(16) 0.2872(4) 0.7861(10)
H7 H 0.4059 0.2646 0.7909
H8 H 0.4108 0.2960 0.8392
C21 C 0.5195(18) 0.2987(4) 0.7485(10)
H9 H 0.6015 0.3000 0.7885
H10 H 0.5338 0.2847 0.7065
C22 C 0.5674(13) 0.3477(3) 0.6809(9)
H11 H 0.5849 0.3372 0.6337
H12 H 0.6520 0.3501 0.7182
C23 C 0.5113(13) 0.3785(3) 0.6583(8)
H13 H 0.5104 0.3910 0.7057
H14 H 0.5652 0.3893 0.6260
C24 C 0.3106(15) 0.4029(3) 0.5956(9)
H15 H 0.3587 0.4170 0.5670
H16 H 0.2946 0.4134 0.6431
C25 C 0.1824(15) 0.3936(3) 0.5443(8)
H17 H 0.1218 0.4114 0.5359
H18 H 0.1972 0.3867 0.4928
C26 C 0.028(2) 0.3550(4) 0.5586(12)
C27 C -0.066(2) 0.3679(5) 0.4911(13)
H19 H -0.0432 0.3894 0.4835
H20 H -0.1548 0.3668 0.5014
H21 H -0.0612 0.3562 0.4439
C28 C -0.1191(11) 0.4738(3) 0.7957(8)
C29 C -0.1230(13) 0.5047(3) 0.7768(9)
H22 H -0.1121 0.5114 0.7267
C30 C -0.1436(15) 0.5260(4) 0.8342(12)
H23 H -0.1411 0.5471 0.8215
C31 C -0.1675(13) 0.5186(3) 0.9082(11)
H24 H -0.1858 0.5335 0.9440
C32 C -0.1616(11) 0.4855(3) 0.9258(9)
C33 C -0.1775(10) 0.4719(3) 1.0027(8)
C34 C -0.2098(12) 0.4915(3) 1.0676(9)
H25 H -0.2185 0.4799 1.1143
H26 H -0.1384 0.5064 1.0812
H27 H -0.2921 0.5023 1.0471
C35 C -0.1724(12) 0.4249(3) 1.0725(9)
H28 H -0.2323 0.4358 1.1009
H29 H -0.0848 0.4240 1.1074
C36 C -0.2219(12) 0.3929(3) 1.0550(7)
H30 H -0.2044 0.3803 1.1031
H31 H -0.3176 0.3931 1.0339
C37 C -0.2036(14) 0.3511(3) 0.9617(9)
H32 H -0.2972 0.3533 0.9364
H33 H -0.1954 0.3350 1.0023
C38 C -0.1201(13) 0.3433(3) 0.9010(8)
H34 H -0.0261 0.3421 0.9261
H35 H -0.1474 0.3234 0.8756
C39 C -0.0542(13) 0.3668(3) 0.7896(9)
H36 H -0.0666 0.3473 0.7601
H37 H 0.0377 0.3678 0.8187
C40 C -0.0829(13) 0.3932(3) 0.7347(8)
H38 H -0.0082 0.3965 0.7082
H39 H -0.1619 0.3888 0.6943
C41 C -0.0988(12) 0.4473(4) 0.7495(8)
C42 C -0.0729(18) 0.4551(4) 0.6669(10)
H40 H -0.0733 0.4773 0.6600
H41 H -0.1417 0.4459 0.6270
H42 H 0.0127 0.4469 0.6618
C43 C 0.7353(18) 0.3215(5) 1.1810(12)
C44 C 0.8589(18) 0.3057(5) 1.1908(13)
H43 H 0.9334 0.3120 1.2283
C45 C 0.8627(19) 0.2805(4) 1.1422(12)
H44 H 0.9447 0.2704 1.1464
C46 C 0.7542(19) 0.2683(5) 1.0862(13)
H45 H 0.7630 0.2511 1.0544
C47 C 0.6309(19) 0.2841(5) 1.0817(13)
C48 C 0.505(2) 0.2735(4) 1.0334(10)
C49 C 0.509(2) 0.2448(4) 0.9897(10)
H46 H 0.4170 0.2422 0.9635
H47 H 0.5631 0.2480 0.9505
H48 H 0.5389 0.2264 1.0204
C50 C 0.2550(13) 0.2824(3) 1.0024(8)
H49 H 0.2371 0.2603 0.9936
H50 H 0.2381 0.2930 0.9511
C51 C 0.1720(12) 0.2955(3) 1.0546(7)
H51 H 0.0783 0.2946 1.0285
H52 H 0.1834 0.2835 1.1037
C52 C 0.1398(10) 0.3433(3) 1.1207(6)
H53 H 0.1439 0.3323 1.1708
H54 H 0.0467 0.3454 1.0944
C53 C 0.2034(14) 0.3746(3) 1.1354(7)
H55 H 0.1990 0.3858 1.0855
H56 H 0.1586 0.3870 1.1699
C54 C 0.4200(14) 0.3959(4) 1.2035(10)
H57 H 0.3808 0.4071 1.2426
H58 H 0.4285 0.4101 1.1605
C55 C 0.5500(14) 0.3829(4) 1.2403(11)
H59 H 0.6177 0.3990 1.2428
H60 H 0.5478 0.3767 1.2946
C56 C 0.7073(15) 0.3469(4) 1.2314(11)
C57 C 0.8139(14) 0.3616(5) 1.2945(13)
H61 H 0.8989 0.3516 1.2964
H62 H 0.8225 0.3836 1.2859
H63 H 0.7855 0.3583 1.3442
N5 N 0.2646(8) 0.36573(19) 0.7584(5)
N6 N 0.0730(8) 0.41382(16) 0.9320(5)
N7 N 0.4396(9) 0.3574(2) 1.0200(6)
N8 N 0.6497(7) 0.41306(18) 0.8680(5)
N9 N 0.4667(9) 0.4534(2) 1.0442(6)
N10 N 0.2832(11) 0.4638(2) 0.7788(6)
N11 N 0.4043(10) 0.3052(2) 1.2207(5)
N12 N 0.2925(13) 0.3128(2) 1.5608(8)
N13 N 0.0578(13) 0.3187(3) 0.6434(8)
N14 N 0.2752(13) 0.2966(2) 0.7369(6)
N15 N 0.1267(10) 0.3695(3) 0.5818(6)
N16 N -0.1384(8) 0.4657(2) 0.8718(7)
N17 N -0.1629(8) 0.4417(2) 1.0050(6)
N18 N -0.1051(9) 0.4214(3) 0.7780(6)
N19 N 0.6277(15) 0.3058(4) 1.1244(10)
N20 N 0.5860(12) 0.3572(4) 1.1990(7)
N21 N 0.3913(12) 0.2874(2) 1.0437(6)
O1 O 0.4801(9) 0.3292(2) 0.7164(6)
O2 O 0.3879(7) 0.37477(17) 0.6174(5)
O3 O -0.1424(7) 0.36837(17) 0.8427(5)
O4 O -0.1506(7) 0.38024(17) 0.9959(5)
O5 O 0.2117(7) 0.32713(16) 1.0719(4)
O6 O 0.3385(10) 0.36897(19) 1.1729(5)
Co1_2 Co 0.26113(15) 0.33710(3) 1.66016(9)
Co2_2 Co 0.86189(11) 0.41716(3) 0.89960(8)
N8_2 N -0.3503(7) 0.41306(18) 0.8680(5)
N12_2 N 0.2925(13) 0.3128(2) 0.5608(8)
O7 O 0.553(2) 0.4786(4) 0.1963(9)
O8 O 0.168(3) 0.4307(6) 0.3188(16)
O9 O 0.275(3) 0.4829(7) 0.6352(16)
O10 O 0.451(4) 0.4748(10) 0.330(2)
O11 O 0.565(3) 0.4667(8) 0.704(2)
C58? C 0.219(3) 0.2788(7) 1.3424(16)
C59? C 0.484(4) 0.3400(8) 1.4236(19)
C60? C 0.234(3) 0.3424(6) 1.3463(14)
C61? C 0.458(4) 0.2736(9) 1.424(2)
N22? N 0.573(3) 0.3622(7) 1.4483(17)
N23? N 0.158(2) 0.3625(5) 1.3243(12)
N24? N 0.527(3) 0.2618(7) 1.4683(18)
N25? N 0.153(3) 0.2600(6) 1.3188(15)
loop_
_geom_bond_atom_site_label_1
_geom_bond_atom_site_label_2
_geom_bond_site_symmetry_1
_geom_bond_site_symmetry_2
Co1 N5 1_555 1_555
Co2 N6 1_555 1_555
Co3 N7 1_555 1_555
Fe1 C1 1_555 1_555
Fe2 C7 1_555 1_555
C1 N5 1_555 1_555
C2 Fe1 1_555 1_555
C3 Fe1 1_555 1_555
C4 Fe1 1_555 1_555
C5 Fe1 1_555 1_555
C6 Fe1 1_555 1_555
C7 N11 1_555 1_555
C8 Fe2 1_555 1_555
C9 Fe2 1_555 1_555
C10 Fe2 1_555 1_555
C11 Fe2 1_555 1_555
C12 Fe2 1_555 1_555
N1 C9 1_555 1_555
N2 C10 1_555 1_555
N3 C11 1_555 1_555
N4 C12 1_555 1_555
C13 C14 1_555 1_555
C14 H1 1_555 1_555
C15 C14 1_555 1_555
H2 C15 1_555 1_555
C16 C15 1_555 1_555
H3 C16 1_555 1_555
C17 C16 1_555 1_555
C18 C17 1_555 1_555
C19 C18 1_555 1_555
H4 C19 1_555 1_555
H5 C19 1_555 1_555
H6 C19 1_555 1_555
C20 H7 1_555 1_555
H8 C20 1_555 1_555
C21 C20 1_555 1_555
H9 C21 1_555 1_555
H10 C21 1_555 1_555
C22 H11 1_555 1_555
H12 C22 1_555 1_555
C23 C22 1_555 1_555
H13 C23 1_555 1_555
H14 C23 1_555 1_555
C24 H15 1_555 1_555
H16 C24 1_555 1_555
C25 C24 1_555 1_555
H17 C25 1_555 1_555
H18 C25 1_555 1_555
C26 C13 1_555 1_555
C27 C26 1_555 1_555
H19 C27 1_555 1_555
H20 C27 1_555 1_555
H21 C27 1_555 1_555
C28 C29 1_555 1_555
C29 H22 1_555 1_555
C30 C29 1_555 1_555
H23 C30 1_555 1_555
C31 C30 1_555 1_555
H24 C31 1_555 1_555
C32 C31 1_555 1_555
C33 C32 1_555 1_555
C34 C33 1_555 1_555
H25 C34 1_555 1_555
H26 C34 1_555 1_555
H27 C34 1_555 1_555
C35 H28 1_555 1_555
H29 C35 1_555 1_555
C36 C35 1_555 1_555
H30 C36 1_555 1_555
H31 C36 1_555 1_555
C37 H32 1_555 1_555
H33 C37 1_555 1_555
C38 C37 1_555 1_555
H34 C38 1_555 1_555
H35 C38 1_555 1_555
C39 H36 1_555 1_555
H37 C39 1_555 1_555
C40 C39 1_555 1_555
H38 C40 1_555 1_555
H39 C40 1_555 1_555
C41 C28 1_555 1_555
C42 C41 1_555 1_555
H40 C42 1_555 1_555
H41 C42 1_555 1_555
H42 C42 1_555 1_555
C43 C44 1_555 1_555
C44 H43 1_555 1_555
C45 C44 1_555 1_555
H44 C45 1_555 1_555
C46 C45 1_555 1_555
H45 C46 1_555 1_555
C47 C46 1_555 1_555
C48 C47 1_555 1_555
C49 C48 1_555 1_555
H46 C49 1_555 1_555
H47 C49 1_555 1_555
H48 C49 1_555 1_555
C50 H49 1_555 1_555
H50 C50 1_555 1_555
C51 C50 1_555 1_555
H51 C51 1_555 1_555
H52 C51 1_555 1_555
C52 H53 1_555 1_555
H54 C52 1_555 1_555
C53 C52 1_555 1_555
H55 C53 1_555 1_555
H56 C53 1_555 1_555
C54 H57 1_555 1_555
H58 C54 1_555 1_555
C55 C54 1_555 1_555
H59 C55 1_555 1_555
H60 C55 1_555 1_555
C56 C43 1_555 1_555
C57 C56 1_555 1_555
H61 C57 1_555 1_555
H62 C57 1_555 1_555
H63 C57 1_555 1_555
N6 C2 1_555 1_555
N7 C3 1_555 1_555
N8 C4 1_555 1_555
N9 C5 1_555 1_555
N10 C6 1_555 1_555
N11 Co3 1_555 1_555
N12 C8 1_555 1_555
N13 Co1 1_555 1_555
N14 Co1 1_555 1_555
N15 Co1 1_555 1_555
N16 Co2 1_555 1_555
N17 Co2 1_555 1_555
N18 Co2 1_555 1_555
N19 Co3 1_555 1_555
N20 Co3 1_555 1_555
N21 Co3 1_555 1_555
O1 Co1 1_555 1_555
O2 Co1 1_555 1_555
O3 Co2 1_555 1_555
O4 Co2 1_555 1_555
O5 Co3 1_555 1_555
O6 Co3 1_555 1_555
Co1_2 N12 1_555 1_555
Co2_2 N8 1_555 1_555
N8_2 Co2 1_555 1_555
N12_2 Co1 1_555 1_555
C13 N13 1_555 1_555
C17 N13 1_555 1_555
C18 N14 1_555 1_555
C20 N14 1_555 1_555
C21 O1 1_555 1_555
C22 O1 1_555 1_555
C23 O2 1_555 1_555
C24 O2 1_555 1_555
C25 N15 1_555 1_555
C26 N15 1_555 1_555
C28 N16 1_555 1_555
C32 N16 1_555 1_555
C33 N17 1_555 1_555
C35 N17 1_555 1_555
C36 O4 1_555 1_555
C37 O4 1_555 1_555
C38 O3 1_555 1_555
C39 O3 1_555 1_555
C40 N18 1_555 1_555
C41 N18 1_555 1_555
C43 N19 1_555 1_555
C47 N19 1_555 1_555
C48 N21 1_555 1_555
C50 N21 1_555 1_555
C51 O5 1_555 1_555
C52 O5 1_555 1_555
C53 O6 1_555 1_555
C54 O6 1_555 1_555
C55 N20 1_555 1_555
C56 N20 1_555 1_555

#END
