
#######################################################################
#
#                 Cambridge Crystallographic Data Centre
#                                CCDC 
#
#######################################################################
#
# If this CIF has been generated from an entry in the Cambridge 
# Structural Database, then it will include bibliographic, chemical, 
# crystal, experimental, refinement or atomic coordinate data resulting 
# from the CCDC's data processing and validation procedures.
#
#######################################################################

data_KUQXIE
_symmetry_cell_setting           triclinic
_symmetry_space_group_name_H-M   'P -1'
_symmetry_Int_Tables_number      2
_space_group_name_Hall           '-P 1'
loop_
_symmetry_equiv_pos_site_id
_symmetry_equiv_pos_as_xyz
1 x,y,z
2 -x,-y,-z
_cell_length_a                   8.3989(5)
_cell_length_b                   8.5350(3)
_cell_length_c                   11.4883(5)
_cell_angle_alpha                89.325(4)
_cell_angle_beta                 69.014(5)
_cell_angle_gamma                67.269(4)
_cell_volume                     701.48
loop_
_atom_site_label
_atom_site_type_symbol
_atom_site_fract_x
_atom_site_fract_y
_atom_site_fract_z
Cd1 Cd 0.76367(5) 0.19923(5) 1.11014(4)
Cd2 Cd 0.85198(6) 0.56158(5) 0.40771(4)
O1 O 0.7284(6) 0.1749(5) 0.9117(4)
O2 O 0.7084(6) 0.2984(5) 0.7422(4)
O3 O 0.8385(5) 0.5752(5) 0.6188(3)
O4 O 0.5287(5) 0.6759(5) 0.7175(3)
O5 O 0.9194(5) 0.8872(5) 1.0181(4)
O6 O 0.6222(5) 0.9917(5) 1.1425(4)
O7 O 0.8382(6) 0.6540(5) 1.2270(4)
O8 O 0.8012(6) 0.4118(5) 1.2286(4)
O9 O 0.9057(6) 0.0580(5) 1.2566(4)
H1 H 1.0146 -0.0062 1.2154
H2 H 0.9134 0.1251 1.3024
O10 O 0.8699(6) 0.8237(5) 0.4409(4)
H3 H 0.8666 0.8837 0.3847
H4 H 0.7835 0.9015 0.4959
O11 O 0.5275(6) 0.6943(6) 0.4842(4)
H5 H 0.4973 0.7833 0.4536
H6 H 0.4950 0.7216 0.5601
O12 O 0.8328(6) 0.3056(5) 0.4657(4)
H7 H 0.8878 0.2622 0.5120
H8 H 0.7226 0.3241 0.5041
N1 N 0.7397(6) 0.4479(6) 1.0143(4)
C1 C 0.7171(7) 0.2970(7) 0.8482(5)
C2 C 0.7202(7) 0.4563(7) 0.9038(5)
C3 C 0.7114(7) 0.5992(7) 0.8421(5)
C4 C 0.6887(8) 0.6156(7) 0.7173(5)
C5 C 0.7237(7) 0.7347(7) 0.8980(5)
H9 H 0.7144 0.8329 0.8600
C6 C 0.7500(7) 0.7236(7) 1.0111(5)
C7 C 0.7663(8) 0.8755(7) 1.0643(5)
C8 C 0.7591(7) 0.5767(7) 1.0663(5)
C9 C 0.8002(7) 0.5451(7) 1.1830(5)
Cd1A Cd 0.23633(5) 0.80077(5) 0.88986(4)
Cd1_2 Cd 0.76367(5) 1.19923(5) 1.11014(4)
Cd1A_2 Cd 1.23633(5) 0.80077(5) 0.88986(4)
Cd2A Cd 1.14802(6) 0.43842(5) 0.59229(4)
Cd2_2 Cd 0.85198(6) 0.56158(5) 1.40771(4)
O3A O 1.1615(5) 0.4248(5) 0.3812(3)
O4A O 0.4713(5) 0.3241(5) 1.2825(3)
O5_2 O 0.9194(5) -0.1128(5) 1.0181(4)
O5A O 1.0806(5) 0.1128(5) 0.9819(4)
O6_2 O 0.6222(5) -0.0083(5) 1.1425(4)
O7_2 O 0.8382(6) 0.6540(5) 0.2270(4)
O13 O 0.6272(6) 1.0593(5) 0.6480(4)
H10 H 0.5477 1.0440 0.7080
H11 H 0.6639 1.1186 0.6776
loop_
_geom_bond_atom_site_label_1
_geom_bond_atom_site_label_2
_geom_bond_site_symmetry_1
_geom_bond_site_symmetry_2
Cd1 O1 1_555 1_555
Cd2 O3 1_555 1_555
O1 C1 1_555 1_555
O2 C1 1_555 1_555
O3 C4 1_555 1_555
O4 C4 1_555 1_555
O5 C7 1_555 1_555
O6 C7 1_555 1_555
O7 C9 1_555 1_555
O8 Cd1 1_555 1_555
O9 Cd1 1_555 1_555
H1 O9 1_555 1_555
H2 O9 1_555 1_555
O10 Cd2 1_555 1_555
H3 O10 1_555 1_555
H4 O10 1_555 1_555
O11 Cd2 1_555 1_555
H5 O11 1_555 1_555
H6 O11 1_555 1_555
O12 Cd2 1_555 1_555
H7 O12 1_555 1_555
H8 O12 1_555 1_555
N1 Cd1 1_555 1_555
C1 C2 1_555 1_555
C2 N1 1_555 1_555
C3 C2 1_555 1_555
C4 C3 1_555 1_555
C5 C3 1_555 1_555
H9 C5 1_555 1_555
C6 C5 1_555 1_555
C7 C6 1_555 1_555
C8 N1 1_555 1_555
C9 O8 1_555 1_555
O13 H10 1_555 1_555
H11 O13 1_555 1_555
Cd1A O4 1_555 1_555
Cd1_2 O5 1_555 1_555
Cd1A_2 O5 1_555 1_555
Cd2A O3 1_555 1_555
Cd2_2 O7 1_555 1_555
O3A Cd2 1_555 1_555
O4A Cd1 1_555 1_555
O5_2 Cd1 1_555 1_555
O5A Cd1 1_555 1_555
O6_2 Cd1 1_555 1_555
O7_2 Cd2 1_555 1_555
O6 Cd1_2 1_555 1_555
C6 C8 1_555 1_555
C8 C9 1_555 1_555
Cd2A O3A 1_555 1_555

#END
