
#######################################################################
#
#                 Cambridge Crystallographic Data Centre
#                                CCDC 
#
#######################################################################
#
# If this CIF has been generated from an entry in the Cambridge 
# Structural Database, then it will include bibliographic, chemical, 
# crystal, experimental, refinement or atomic coordinate data resulting 
# from the CCDC's data processing and validation procedures.
#
#######################################################################

data_KUQYEC
_symmetry_cell_setting           triclinic
_symmetry_space_group_name_H-M   'P -1'
_symmetry_Int_Tables_number      2
_space_group_name_Hall           '-P 1'
loop_
_symmetry_equiv_pos_site_id
_symmetry_equiv_pos_as_xyz
1 x,y,z
2 -x,-y,-z
_cell_length_a                   11.913(2)
_cell_length_b                   12.215(2)
_cell_length_c                   13.877(3)
_cell_angle_alpha                108.44(3)
_cell_angle_beta                 93.66(3)
_cell_angle_gamma                111.61(3)
_cell_volume                     1743.39
loop_
_atom_site_label
_atom_site_type_symbol
_atom_site_fract_x
_atom_site_fract_y
_atom_site_fract_z
Zn1 Zn 0.83826(3) 0.64628(3) 0.19885(3)
Cl1 Cl 0.87565(8) 0.82968(8) 0.32287(6)
Cl2 Cl 0.87249(7) 0.63068(8) 0.03964(6)
O1 O 0.33001(18) 0.2010(2) -0.07492(17)
O2 O 0.2686(2) 0.2918(2) 0.25398(18)
O3 O 1.36451(19) 0.6631(2) 0.32283(19)
O4 O 1.11401(17) 0.3669(2) 0.43556(16)
N1 N 0.6586(2) 0.5247(2) 0.1817(2)
N2 N 0.29444(19) 0.2499(2) 0.08866(19)
N3 N 0.9461(2) 0.5710(3) 0.2535(2)
N4 N 1.2402(2) 0.5169(2) 0.38218(18)
C1 C 0.5683(2) 0.5477(2) 0.1418(2)
H1 H 0.5879 0.6245 0.1331
C2 C 0.4466(2) 0.4604(3) 0.1131(2)
H2 H 0.3849 0.4785 0.0862
C3 C 0.4187(2) 0.3468(3) 0.1251(2)
C4 C 0.5091(3) 0.3279(3) 0.1757(3)
H3 H 0.4906 0.2548 0.1905
C5 C 0.6276(3) 0.4200(3) 0.2036(3)
H4 H 0.6887 0.4087 0.2394
C6 C 0.2263(3) 0.2275(3) 0.1634(2)
C7 C 0.1005(2) 0.1232(3) 0.1242(2)
C8 C 0.0596(2) 0.0494(2) 0.0177(2)
C9 C 0.1344(2) 0.0729(3) -0.0540(2)
C10 C 0.2596(2) 0.1769(3) -0.0178(2)
C11 C 0.0926(3) 0.0006(3) -0.1576(3)
H5 H 0.1429 0.0171 -0.2044
C12 C 0.0262(3) 0.0986(3) 0.1936(3)
H6 H 0.0544 0.1473 0.2640
C13 C 1.0039(3) 0.5100(3) 0.1924(2)
H7 H 0.9786 0.4820 0.1208
C14 C 1.0988(3) 0.4873(3) 0.2310(2)
H8 H 1.1379 0.4456 0.1868
C15 C 1.1343(2) 0.5278(3) 0.3370(2)
C16 C 1.0708(3) 0.5827(4) 0.4006(2)
H9 H 1.0901 0.6050 0.4721
C17 C 0.9784(3) 0.6038(4) 0.3562(3)
H10 H 0.9363 0.6425 0.3993
C18 C 1.2188(2) 0.4316(3) 0.4335(2)
C19 C 1.3292(2) 0.4257(3) 0.4833(2)
C20 C 1.4478(2) 0.5030(3) 0.4764(2)
C21 C 1.4649(2) 0.5867(3) 0.4217(2)
C22 C 1.3560(3) 0.5934(3) 0.3707(2)
C23 C 1.5811(3) 0.6610(3) 0.4161(2)
H11 H 1.5912 0.7152 0.3799
C24 C 1.3148(2) 0.3441(3) 0.5352(2)
H12 H 1.2362 0.2923 0.5382
O1A O -0.33001(18) -0.2010(2) 0.07492(17)
O2A O -0.2686(2) -0.2918(2) -0.25398(18)
N1A N -0.6586(2) -0.5247(2) -0.1817(2)
N2A N -0.29444(19) -0.2499(2) -0.08866(19)
C1A C -0.5683(2) -0.5477(2) -0.1418(2)
H1A H -0.5879 -0.6245 -0.1331
C2A C -0.4466(2) -0.4604(3) -0.1131(2)
H2A H -0.3849 -0.4785 -0.0862
C3A C -0.4187(2) -0.3468(3) -0.1251(2)
C4A C -0.5091(3) -0.3279(3) -0.1757(3)
H3A H -0.4906 -0.2548 -0.1905
C5A C -0.6276(3) -0.4200(3) -0.2036(3)
H4A H -0.6887 -0.4087 -0.2394
C6A C -0.2263(3) -0.2275(3) -0.1634(2)
C7A C -0.1005(2) -0.1232(3) -0.1242(2)
C8A C -0.0596(2) -0.0494(2) -0.0177(2)
C9A C -0.1344(2) -0.0729(3) 0.0540(2)
C10A C -0.2596(2) -0.1769(3) 0.0178(2)
C11A C -0.0926(3) -0.0006(3) 0.1576(3)
H5A H -0.1429 -0.0171 0.2044
C12A C -0.0262(3) -0.0986(3) -0.1936(3)
H6A H -0.0544 -0.1473 -0.2640
O3A O 1.63549(19) 0.3369(2) 0.67717(19)
O4A O 1.88599(17) 0.6331(2) 0.56444(16)
N3A N 2.0539(2) 0.4290(3) 0.7465(2)
N4A N 1.7598(2) 0.4831(2) 0.61782(18)
C13A C 1.9961(3) 0.4900(3) 0.8076(2)
H7A H 2.0214 0.5180 0.8792
C14A C 1.9012(3) 0.5127(3) 0.7690(2)
H8A H 1.8621 0.5544 0.8132
C15A C 1.8657(2) 0.4722(3) 0.6630(2)
C16A C 1.9292(3) 0.4173(4) 0.5994(2)
H9A H 1.9099 0.3950 0.5279
C17A C 2.0216(3) 0.3962(4) 0.6438(3)
H10A H 2.0637 0.3575 0.6007
C18A C 1.7812(2) 0.5684(3) 0.5665(2)
C19A C 1.6708(2) 0.5743(3) 0.5167(2)
C20A C 1.5522(2) 0.4970(3) 0.5236(2)
C21A C 1.5351(2) 0.4133(3) 0.5783(2)
C22A C 1.6440(3) 0.4066(3) 0.6293(2)
C23A C 1.4189(3) 0.3390(3) 0.5839(2)
H11A H 1.4088 0.2848 0.6201
C24A C 1.6852(2) 0.6559(3) 0.4648(2)
H12A H 1.7638 0.7077 0.4618
Zn1A Zn -0.83826(3) -0.64628(3) -0.19885(3)
Cl1A Cl -0.87565(8) -0.82968(8) -0.32287(6)
Cl2A Cl -0.87249(7) -0.63068(8) -0.03964(6)
Zn1A_2 Zn 2.16174(3) 0.35372(3) 0.80115(3)
N3A_2 N -0.9461(2) -0.5710(3) -0.2535(2)
loop_
_geom_bond_atom_site_label_1
_geom_bond_atom_site_label_2
_geom_bond_site_symmetry_1
_geom_bond_site_symmetry_2
Zn1 Cl1 1_555 1_555
Cl2 Zn1 1_555 1_555
O1 C10 1_555 1_555
O2 C6 1_555 1_555
O3 C22 1_555 1_555
O4 C18 1_555 1_555
N1 Zn1 1_555 1_555
N2 C3 1_555 1_555
N3 Zn1 1_555 1_555
N4 C15 1_555 1_555
C1 N1 1_555 1_555
H1 C1 1_555 1_555
C2 C1 1_555 1_555
H2 C2 1_555 1_555
C3 C2 1_555 1_555
C4 C3 1_555 1_555
H3 C4 1_555 1_555
C5 N1 1_555 1_555
H4 C5 1_555 1_555
C6 N2 1_555 1_555
C7 C6 1_555 1_555
C8 C7 1_555 1_555
C9 C8 1_555 1_555
C10 N2 1_555 1_555
C11 C9 1_555 1_555
H5 C11 1_555 1_555
C12 C7 1_555 1_555
H6 C12 1_555 1_555
C13 N3 1_555 1_555
H7 C13 1_555 1_555
C14 C13 1_555 1_555
H8 C14 1_555 1_555
C15 C14 1_555 1_555
C16 C15 1_555 1_555
H9 C16 1_555 1_555
C17 N3 1_555 1_555
H10 C17 1_555 1_555
C18 N4 1_555 1_555
C19 C18 1_555 1_555
C20 C19 1_555 1_555
C21 C20 1_555 1_555
C22 N4 1_555 1_555
C23 C21 1_555 1_555
H11 C23 1_555 1_555
C24 C19 1_555 1_555
H12 C24 1_555 1_555
O1A C10A 1_555 1_555
O2A C6A 1_555 1_555
N1A C1A 1_555 1_555
N2A C3A 1_555 1_555
C1A H1A 1_555 1_555
C2A C1A 1_555 1_555
H2A C2A 1_555 1_555
C3A C2A 1_555 1_555
C4A C3A 1_555 1_555
H3A C4A 1_555 1_555
C5A N1A 1_555 1_555
H4A C5A 1_555 1_555
C6A N2A 1_555 1_555
C7A C6A 1_555 1_555
C8A C8 1_555 1_555
C9A C8A 1_555 1_555
C10A N2A 1_555 1_555
C11A C12 1_555 1_555
H5A C11A 1_555 1_555
C12A C11 1_555 1_555
H6A C12A 1_555 1_555
O3A C22A 1_555 1_555
O4A C18A 1_555 1_555
N3A C13A 1_555 1_555
N4A C15A 1_555 1_555
C13A H7A 1_555 1_555
C14A C13A 1_555 1_555
H8A C14A 1_555 1_555
C15A C14A 1_555 1_555
C16A C15A 1_555 1_555
H9A C16A 1_555 1_555
C17A N3A 1_555 1_555
H10A C17A 1_555 1_555
C18A N4A 1_555 1_555
C19A C18A 1_555 1_555
C20A C20 1_555 1_555
C21A C20A 1_555 1_555
C22A N4A 1_555 1_555
C23A C24 1_555 1_555
H11A C23A 1_555 1_555
C24A C23 1_555 1_555
H12A C24A 1_555 1_555
Zn1A N1A 1_555 1_555
Cl1A Zn1A 1_555 1_555
Cl2A Zn1A 1_555 1_555
Zn1A_2 N3A 1_555 1_555
N3A_2 Zn1A 1_555 1_555
C4 C5 1_555 1_555
C9 C10 1_555 1_555
C16 C17 1_555 1_555
C21 C22 1_555 1_555
C4A C5A 1_555 1_555
C7A C8A 1_555 1_555
C7A C12A 1_555 1_555
C9A C10A 1_555 1_555
C9A C11A 1_555 1_555
C16A C17A 1_555 1_555
C19A C20A 1_555 1_555
C19A C24A 1_555 1_555
C21A C22A 1_555 1_555
C21A C23A 1_555 1_555

#END
