
#######################################################################
#
#                 Cambridge Crystallographic Data Centre
#                                CCDC 
#
#######################################################################
#
# If this CIF has been generated from an entry in the Cambridge 
# Structural Database, then it will include bibliographic, chemical, 
# crystal, experimental, refinement or atomic coordinate data resulting 
# from the CCDC's data processing and validation procedures.
#
#######################################################################

data_KUQYOM
_symmetry_cell_setting           triclinic
_symmetry_space_group_name_H-M   'P -1'
_symmetry_Int_Tables_number      2
_space_group_name_Hall           '-P 1'
loop_
_symmetry_equiv_pos_site_id
_symmetry_equiv_pos_as_xyz
1 x,y,z
2 -x,-y,-z
_cell_length_a                   11.893(2)
_cell_length_b                   12.193(2)
_cell_length_c                   14.724(3)
_cell_angle_alpha                110.32(3)
_cell_angle_beta                 93.68(3)
_cell_angle_gamma                112.89(3)
_cell_volume                     1794.87
loop_
_atom_site_label
_atom_site_type_symbol
_atom_site_fract_x
_atom_site_fract_y
_atom_site_fract_z
Zn1 Zn 0.13958(5) 0.32402(6) 0.28352(5)
I1 I 0.10089(4) 0.34842(5) 0.45819(3)
I2 I 0.11418(5) 0.10916(4) 0.15418(3)
N1 N 0.3209(4) 0.4577(5) 0.3097(3)
N2 N 0.6927(4) 0.7519(4) 0.4073(3)
N3 N 0.0276(4) 0.3902(5) 0.2261(3)
N4 N -0.2522(4) 0.4612(5) 0.1044(3)
O1 O 0.6543(4) 0.8116(4) 0.5610(3)
O2 O 0.7295(4) 0.6811(4) 0.2542(3)
O3 O -0.3850(4) 0.3249(5) 0.1613(4)
O4 O -0.1107(4) 0.6198(4) 0.0653(3)
C1 C 0.3537(6) 0.5653(7) 0.2923(6)
H1 H 0.2912 0.5753 0.2595
C2 C 0.4759(6) 0.6632(7) 0.3204(6)
H2 H 0.4953 0.7363 0.3063
C3 C 0.5656(5) 0.6477(5) 0.3692(4)
C4 C 0.5363(5) 0.5348(6) 0.3816(5)
H3 H 0.5983 0.5206 0.4106
C5 C 0.4153(5) 0.4439(6) 0.3509(5)
H4 H 0.3967 0.3668 0.3589
C6 C 0.7270(5) 0.8319(5) 0.5085(4)
C7 C 0.8572(5) 0.9381(5) 0.5460(4)
C8 C 0.8991(5) 1.0259(6) 0.6465(4)
H5 H 0.8451 1.0179 0.6893
C9 C 0.9379(5) 0.9511(5) 0.4817(4)
C10 C 0.8985(5) 0.8643(5) 0.3800(4)
C11 C 0.9824(5) 0.8782(6) 0.3188(4)
H6 H 0.9564 0.8201 0.2523
C12 C 0.7697(5) 0.7619(5) 0.3412(4)
C13 C -0.0269(6) 0.4571(6) 0.2849(4)
H7 H -0.0042 0.4840 0.3535
C14 C -0.1133(6) 0.4861(6) 0.2473(4)
H8 H -0.1474 0.5344 0.2897
C15 C -0.1498(5) 0.4442(6) 0.1473(4)
C16 C -0.0902(6) 0.3859(8) 0.0886(4)
H9 H -0.1076 0.3645 0.0206
C17 C -0.0033(6) 0.3578(8) 0.1297(5)
H10 H 0.0351 0.3144 0.0879
C18 C -0.3712(5) 0.3915(6) 0.1152(4)
C19 C -0.4755(5) 0.4058(5) 0.0680(4)
C20 C -0.5953(5) 0.3380(6) 0.0735(5)
H11 H -0.6107 0.2834 0.1070
C21 C -0.4503(5) 0.4936(5) 0.0216(3)
C22 C -0.3275(4) 0.5652(5) 0.0161(4)
C23 C -0.3059(5) 0.6500(6) -0.0295(4)
H12 H -0.2243 0.6999 -0.0310
C24 C -0.2211(5) 0.5517(6) 0.0616(4)
N1A N 1.6791(4) 1.5423(5) 0.6903(3)
N2A N 1.3073(4) 1.2481(4) 0.5927(3)
O1A O 1.3457(4) 1.1884(4) 0.4390(3)
O2A O 1.2705(4) 1.3189(4) 0.7458(3)
C1A C 1.6463(6) 1.4347(7) 0.7077(6)
H1A H 1.7088 1.4247 0.7405
C2A C 1.5241(6) 1.3368(7) 0.6796(6)
H2A H 1.5047 1.2637 0.6937
C3A C 1.4344(5) 1.3523(5) 0.6308(4)
C4A C 1.4637(5) 1.4652(6) 0.6184(5)
H3A H 1.4017 1.4794 0.5894
C5A C 1.5847(5) 1.5561(6) 0.6491(5)
H4A H 1.6033 1.6332 0.6411
C6A C 1.2730(5) 1.1681(5) 0.4915(4)
C7A C 1.1428(5) 1.0619(5) 0.4540(4)
C8A C 1.1009(5) 0.9741(6) 0.3535(4)
H5A H 1.1549 0.9821 0.3107
C9A C 1.0621(5) 1.0489(5) 0.5183(4)
C10A C 1.1015(5) 1.1357(5) 0.6200(4)
C11A C 1.0176(5) 1.1218(6) 0.6812(4)
H6A H 1.0436 1.1799 0.7477
C12A C 1.2303(5) 1.2381(5) 0.6588(4)
N3A N -1.0276(4) 0.6098(5) -0.2261(3)
N4A N -0.7478(4) 0.5388(5) -0.1044(3)
O3A O -0.6150(4) 0.6751(5) -0.1613(4)
O4A O -0.8893(4) 0.3802(4) -0.0653(3)
C13A C -0.9731(6) 0.5429(6) -0.2849(4)
H7A H -0.9958 0.5160 -0.3535
C14A C -0.8867(6) 0.5139(6) -0.2473(4)
H8A H -0.8526 0.4656 -0.2897
C15A C -0.8502(5) 0.5558(6) -0.1473(4)
C16A C -0.9098(6) 0.6141(8) -0.0886(4)
H9A H -0.8924 0.6355 -0.0206
C17A C -0.9967(6) 0.6422(8) -0.1297(5)
H10A H -1.0351 0.6856 -0.0879
C18A C -0.6288(5) 0.6085(6) -0.1152(4)
C19A C -0.5245(5) 0.5942(5) -0.0680(4)
C20A C -0.4047(5) 0.6620(6) -0.0735(5)
H11A H -0.3893 0.7166 -0.1070
C21A C -0.5497(5) 0.5064(5) -0.0216(3)
C22A C -0.6725(4) 0.4348(5) -0.0161(4)
C23A C -0.6941(5) 0.3500(6) 0.0295(4)
H12A H -0.7757 0.3001 0.0310
C24A C -0.7789(5) 0.4483(6) -0.0616(4)
Zn1A Zn -1.13958(5) 0.67598(6) -0.28352(5)
I1A I -1.10089(4) 0.65158(5) -0.45819(3)
I2A I -1.11418(5) 0.89084(4) -0.15418(3)
Zn1A_2 Zn 1.86042(5) 1.67598(6) 0.71648(5)
N1A_2 N -1.3209(4) 0.5423(5) -0.3097(3)
loop_
_geom_bond_atom_site_label_1
_geom_bond_atom_site_label_2
_geom_bond_site_symmetry_1
_geom_bond_site_symmetry_2
Zn1 I1 1_555 1_555
I2 Zn1 1_555 1_555
N1 Zn1 1_555 1_555
N2 C3 1_555 1_555
N3 Zn1 1_555 1_555
N4 C15 1_555 1_555
O1 C6 1_555 1_555
O2 C12 1_555 1_555
O3 C18 1_555 1_555
O4 C24 1_555 1_555
C1 N1 1_555 1_555
H1 C1 1_555 1_555
C2 C1 1_555 1_555
H2 C2 1_555 1_555
C3 C2 1_555 1_555
C4 C3 1_555 1_555
H3 C4 1_555 1_555
C5 N1 1_555 1_555
H4 C5 1_555 1_555
C6 N2 1_555 1_555
C7 C6 1_555 1_555
C8 C7 1_555 1_555
H5 C8 1_555 1_555
C9 C7 1_555 1_555
C10 C9 1_555 1_555
C11 C10 1_555 1_555
H6 C11 1_555 1_555
C12 N2 1_555 1_555
C13 N3 1_555 1_555
H7 C13 1_555 1_555
C14 C13 1_555 1_555
H8 C14 1_555 1_555
C15 C14 1_555 1_555
C16 C15 1_555 1_555
H9 C16 1_555 1_555
C17 N3 1_555 1_555
H10 C17 1_555 1_555
C18 N4 1_555 1_555
C19 C18 1_555 1_555
C20 C19 1_555 1_555
H11 C20 1_555 1_555
C21 C19 1_555 1_555
C22 C21 1_555 1_555
C23 C22 1_555 1_555
H12 C23 1_555 1_555
C24 N4 1_555 1_555
N1A C1A 1_555 1_555
N2A C3A 1_555 1_555
O1A C6A 1_555 1_555
O2A C12A 1_555 1_555
C1A H1A 1_555 1_555
C2A C1A 1_555 1_555
H2A C2A 1_555 1_555
C3A C2A 1_555 1_555
C4A C3A 1_555 1_555
H3A C4A 1_555 1_555
C5A N1A 1_555 1_555
H4A C5A 1_555 1_555
C6A N2A 1_555 1_555
C7A C6A 1_555 1_555
C8A C11 1_555 1_555
H5A C8A 1_555 1_555
C9A C9 1_555 1_555
C10A C9A 1_555 1_555
C11A C8 1_555 1_555
H6A C11A 1_555 1_555
C12A N2A 1_555 1_555
N3A C13A 1_555 1_555
N4A C15A 1_555 1_555
O3A C18A 1_555 1_555
O4A C24A 1_555 1_555
C13A H7A 1_555 1_555
C14A C13A 1_555 1_555
H8A C14A 1_555 1_555
C15A C14A 1_555 1_555
C16A C15A 1_555 1_555
H9A C16A 1_555 1_555
C17A N3A 1_555 1_555
H10A C17A 1_555 1_555
C18A N4A 1_555 1_555
C19A C18A 1_555 1_555
C20A C23 1_555 1_555
H11A C20A 1_555 1_555
C21A C21 1_555 1_555
C22A C21A 1_555 1_555
C23A C20 1_555 1_555
H12A C23A 1_555 1_555
C24A N4A 1_555 1_555
Zn1A N3A 1_555 1_555
I1A Zn1A 1_555 1_555
I2A Zn1A 1_555 1_555
Zn1A_2 N1A 1_555 1_555
N1A_2 Zn1A 1_555 1_555
C4 C5 1_555 1_555
C10 C12 1_555 1_555
C16 C17 1_555 1_555
C22 C24 1_555 1_555
C4A C5A 1_555 1_555
C7A C8A 1_555 1_555
C7A C9A 1_555 1_555
C10A C11A 1_555 1_555
C10A C12A 1_555 1_555
C16A C17A 1_555 1_555
C19A C20A 1_555 1_555
C19A C21A 1_555 1_555
C22A C23A 1_555 1_555
C22A C24A 1_555 1_555

#END
