
#######################################################################
#
#                 Cambridge Crystallographic Data Centre
#                                CCDC 
#
#######################################################################
#
# If this CIF has been generated from an entry in the Cambridge 
# Structural Database, then it will include bibliographic, chemical, 
# crystal, experimental, refinement or atomic coordinate data resulting 
# from the CCDC's data processing and validation procedures.
#
#######################################################################

data_KUQYIF
_symmetry_cell_setting           triclinic
_symmetry_space_group_name_H-M   'P -1'
_symmetry_Int_Tables_number      2
_space_group_name_Hall           '-P 1'
loop_
_symmetry_equiv_pos_site_id
_symmetry_equiv_pos_as_xyz
1 x,y,z
2 -x,-y,-z
_cell_length_a                   9.0690(18)
_cell_length_b                   11.309(2)
_cell_length_c                   12.594(3)
_cell_angle_alpha                115.58(3)
_cell_angle_beta                 98.86(3)
_cell_angle_gamma                99.76(3)
_cell_volume                     1110.05
loop_
_atom_site_label
_atom_site_type_symbol
_atom_site_fract_x
_atom_site_fract_y
_atom_site_fract_z
Na1 Na 0.5000 0.5000 0.5000
Na2 Na 0.5990(2) 1.13804(18) 1.02307(16)
P1 P 0.81134(12) 0.87339(10) 0.85118(9)
P2 P 0.78005(12) 0.57570(11) 0.78593(9)
P3 P 0.23490(12) 0.65463(10) 0.66490(9)
P4 P 0.35479(12) 0.95424(10) 0.72521(9)
O1 O 0.9822(3) 0.8855(3) 0.8558(3)
O2 O 0.7902(4) 1.0070(3) 0.9547(3)
H1 H 0.8671 1.0435 1.0167
O3 O 0.7104(3) 0.8453(3) 0.7325(3)
O4 O 0.7076(4) 0.5386(3) 0.6581(3)
O5 O 0.9535(4) 0.5955(3) 0.8246(3)
O6 O 0.7029(4) 0.4659(3) 0.8224(3)
H2 H 0.6242 0.4065 0.7676
O7 O 0.3976(3) 0.6450(3) 0.6657(3)
O8 O 0.2082(3) 0.6991(3) 0.7958(3)
H3 H 0.1209 0.6682 0.8040
O9 O 0.1133(3) 0.5210(3) 0.5769(3)
H4 H 0.0000 0.5000 0.5000
O10 O 0.3977(4) 0.9744(3) 0.8527(3)
O11 O 0.4974(4) 0.9409(3) 0.6668(3)
H5 H 0.5596 0.9051 0.6925
O12 O 0.2953(4) 1.0631(3) 0.7076(3)
O13 O 0.5772(3) 0.7160(3) 0.8798(3)
H6 H 0.5342 0.6873 0.8051
O14 O 0.0522(3) 0.8098(3) 0.6390(3)
H7 H 0.0473 0.8333 0.7120
C1 C 0.7409(5) 0.7364(4) 0.8901(3)
C2 C 0.8212(5) 0.7916(4) 1.0251(4)
H8 H 0.9301 0.8318 1.0385
H9 H 0.7778 0.8634 1.0735
C3 C 0.9220(6) 0.6375(5) 1.0909(4)
H10 H 1.0209 0.6584 1.0808
N1 N 0.8079(4) 0.6906(4) 1.0688(3)
N2 N 0.8717(5) 0.5503(4) 1.1296(4)
H11 H 0.9263 0.5026 1.1502
C4 C 0.7206(7) 0.5463(5) 1.1321(5)
H12 H 0.6575 0.4929 1.1553
C5 C 0.6797(6) 0.6351(5) 1.0943(4)
H13 H 0.5841 0.6543 1.0871
C6 C 0.2026(4) 0.7905(4) 0.6274(3)
C7 C 0.1953(5) 0.7354(4) 0.4903(4)
H14 H 0.2981 0.7315 0.4789
H15 H 0.1286 0.6434 0.4459
N3 N 0.1373(4) 0.8183(3) 0.4388(3)
N4 N -0.0210(5) 0.8996(4) 0.3609(3)
H16 H -0.1073 0.9147 0.3334
C8 C 0.2236(5) 0.9067(5) 0.4089(4)
H17 H 0.3303 0.9271 0.4198
C9 C 0.1251(6) 0.9578(5) 0.3613(4)
H18 H 0.1508 1.0208 0.3338
C10 C -0.0099(5) 0.8170(4) 0.4089(4)
H19 H -0.0923 0.7661 0.4199
O15 O 0.6987(4) 0.6772(3) 0.4948(3)
H20 H 0.7663 0.6329 0.4915
H21 H 0.7080 0.7277 0.5700
O16 O 0.6931(6) 1.2403(5) 0.8969(4)
H22 H 0.6993 1.3068 0.8814
H23 H 0.6618 1.1742 0.8251
Na1_2 Na -0.5000 0.5000 0.5000
Na2A Na 0.4010(2) -0.13804(18) -0.02307(16)
Na2A_2 Na 0.4010(2) 0.86196(18) 0.97693(16)
Na2_2 Na -0.4010(2) 0.13804(18) 0.02307(16)
Na2A_3 Na -0.5990(2) -0.13804(18) -0.02307(16)
Na2_3 Na 0.5990(2) 0.13804(18) 0.02307(16)
P1A P 0.18866(12) 0.12661(10) 0.14882(9)
P2A P 0.21995(12) 0.42430(11) 0.21407(9)
P3A P -0.23490(12) 0.34537(10) 0.33510(9)
P4A P -0.35479(12) 0.04576(10) 0.27479(9)
O1A O 0.0178(3) 0.1145(3) 0.1442(3)
O2A O 0.2098(4) -0.0070(3) 0.0453(3)
H1A H 0.1329 -0.0435 -0.0167
O3A O 0.2896(3) 0.1547(3) 0.2675(3)
O4A O 0.2924(4) 0.4614(3) 0.3419(3)
O5A O 0.0465(4) 0.4045(3) 0.1754(3)
O6A O 0.2971(4) 0.5341(3) 0.1776(3)
H2A H 0.3758 0.5935 0.2324
O7A O -0.3976(3) 0.3550(3) 0.3343(3)
O7A_2 O 0.6024(3) 0.3550(3) 0.3343(3)
O8A O -0.2082(3) 0.3009(3) 0.2042(3)
O8A_2 O 0.7918(3) 1.3009(3) 1.2042(3)
O8_2 O 0.2082(3) -0.3009(3) -0.2042(3)
H3A H -0.1209 0.3318 0.1960
H3A_2 H 0.8791 1.3318 1.1960
H3_2 H 0.1209 -0.3318 -0.1960
O9A O -0.1133(3) 0.4790(3) 0.4231(3)
O10A O -0.3977(4) 0.0256(3) 0.1473(3)
O10A_2 O 0.6023(4) 1.0256(3) 1.1473(3)
O10_2 O 0.3977(4) -0.0256(3) -0.1473(3)
O10A_3 O 0.6023(4) 0.0256(3) 0.1473(3)
O11A O -0.4974(4) 0.0591(3) 0.3332(3)
H5A H -0.5596 0.0949 0.3075
O12A O -0.2953(4) -0.0631(3) 0.2924(3)
O13A O 0.4228(3) 0.2840(3) 0.1202(3)
O13A_2 O 0.4228(3) 1.2840(3) 1.1202(3)
O13_2 O 0.5772(3) -0.2840(3) -0.1202(3)
H6A H 0.4658 0.3127 0.1949
H6A_2 H 0.4658 1.3127 1.1949
H6_2 H 0.5342 -0.3127 -0.1949
O14A O -0.0522(3) 0.1902(3) 0.3610(3)
H7A H -0.0473 0.1667 0.2880
C1A C 0.2591(5) 0.2636(4) 0.1099(3)
C2A C 0.1788(5) 0.2084(4) -0.0251(4)
H8A H 0.0699 0.1682 -0.0385
H9A H 0.2222 0.1366 -0.0735
C3A C 0.0780(6) 0.3625(5) -0.0909(4)
H10A H -0.0209 0.3416 -0.0808
N1A N 0.1921(4) 0.3094(4) -0.0688(3)
N2A N 0.1283(5) 0.4497(4) -0.1296(4)
H11A H 0.0737 0.4974 -0.1502
C4A C 0.2794(7) 0.4537(5) -0.1321(5)
H12A H 0.3425 0.5071 -0.1553
C5A C 0.3203(6) 0.3649(5) -0.0943(4)
H13A H 0.4159 0.3457 -0.0871
C6A C -0.2026(4) 0.2095(4) 0.3726(3)
C7A C -0.1953(5) 0.2646(4) 0.5097(4)
H14A H -0.2981 0.2685 0.5211
H15A H -0.1286 0.3566 0.5541
N3A N -0.1373(4) 0.1817(3) 0.5612(3)
N4A N 0.0210(5) 0.1004(4) 0.6391(3)
H16A H 0.1073 0.0853 0.6666
C8A C -0.2236(5) 0.0933(5) 0.5911(4)
H17A H -0.3303 0.0729 0.5802
C9A C -0.1251(6) 0.0422(5) 0.6387(4)
H18A H -0.1508 -0.0208 0.6662
C10A C 0.0099(5) 0.1830(4) 0.5911(4)
H19A H 0.0923 0.2339 0.5801
O15A O 0.3013(4) 0.3228(3) 0.5052(3)
H20A H 0.2337 0.3671 0.5085
H21A H 0.2920 0.2723 0.4300
O16A O 0.3069(6) -0.2403(5) 0.1031(4)
H22A H 0.3007 -0.3068 0.1186
H23A H 0.3382 -0.1742 0.1749
O17 O 0.4790(4) 0.2543(4) 0.6585(4)
H24 H 0.4121 0.2709 0.6155
H25 H 0.4357 0.1989 0.6804
loop_
_geom_bond_atom_site_label_1
_geom_bond_atom_site_label_2
_geom_bond_site_symmetry_1
_geom_bond_site_symmetry_2
Na1 O4 1_555 1_555
Na2 O2 1_555 1_555
P1 O1 1_555 1_555
P2 O4 1_555 1_555
P3 O7 1_555 1_555
P4 O10 1_555 1_555
O2 P1 1_555 1_555
H1 O2 1_555 1_555
O3 P1 1_555 1_555
O5 P2 1_555 1_555
O6 P2 1_555 1_555
H2 O6 1_555 1_555
O7 Na1 1_555 1_555
O8 P3 1_555 1_555
H3 O8 1_555 1_555
O9 P3 1_555 1_555
H4 O9 1_555 1_555
O10 Na2 1_555 1_555
O11 P4 1_555 1_555
H5 O11 1_555 1_555
O12 P4 1_555 1_555
O13 H6 1_555 1_555
O14 H7 1_555 1_555
C1 P1 1_555 1_555
C2 C1 1_555 1_555
H8 C2 1_555 1_555
H9 C2 1_555 1_555
C3 H10 1_555 1_555
N1 C2 1_555 1_555
N2 C3 1_555 1_555
H11 N2 1_555 1_555
C4 N2 1_555 1_555
H12 C4 1_555 1_555
C5 N1 1_555 1_555
H13 C5 1_555 1_555
C6 P3 1_555 1_555
C7 C6 1_555 1_555
H14 C7 1_555 1_555
H15 C7 1_555 1_555
N3 C7 1_555 1_555
N4 H16 1_555 1_555
C8 N3 1_555 1_555
H17 C8 1_555 1_555
C9 N4 1_555 1_555
H18 C9 1_555 1_555
C10 N3 1_555 1_555
H19 C10 1_555 1_555
O15 Na1 1_555 1_555
H20 O15 1_555 1_555
H21 O15 1_555 1_555
O16 Na2 1_555 1_555
H22 O16 1_555 1_555
H23 O16 1_555 1_555
O17 H24 1_555 1_555
H25 O17 1_555 1_555
Na1_2 O7A 1_555 1_555
Na2A O2A 1_555 1_555
Na2A_2 O8 1_555 1_555
Na2_2 O8A 1_555 1_555
Na2A_3 O10A 1_555 1_555
Na2_3 O10_2 1_555 1_555
P1A O1A 1_555 1_555
P2A O4A 1_555 1_555
P3A O7A 1_555 1_555
P4A O10A 1_555 1_555
O2A P1A 1_555 1_555
H1A O2A 1_555 1_555
O3A P1A 1_555 1_555
O4A Na1 1_555 1_555
O5A P2A 1_555 1_555
O6A P2A 1_555 1_555
H2A O6A 1_555 1_555
O7A_2 Na1 1_555 1_555
O8A P3A 1_555 1_555
O8A_2 Na2 1_555 1_555
O8_2 Na2A 1_555 1_555
H3A O8A 1_555 1_555
H3A_2 O8A_2 1_555 1_555
H3_2 O8_2 1_555 1_555
O9A H4 1_555 1_555
O10A Na2_2 1_555 1_555
O10A_2 Na2 1_555 1_555
O10_2 Na2A 1_555 1_555
O10A_3 Na2A 1_555 1_555
O11A P4A 1_555 1_555
H5A O11A 1_555 1_555
O12A P4A 1_555 1_555
O13A Na2_3 1_555 1_555
O13A_2 Na2 1_555 1_555
O13_2 Na2A 1_555 1_555
H6A O13A 1_555 1_555
H6A_2 O13A_2 1_555 1_555
H6_2 O13_2 1_555 1_555
O14A H7A 1_555 1_555
C1A P1A 1_555 1_555
C2A C1A 1_555 1_555
H8A C2A 1_555 1_555
H9A C2A 1_555 1_555
C3A H10A 1_555 1_555
N1A C2A 1_555 1_555
N2A C3A 1_555 1_555
H11A N2A 1_555 1_555
C4A N2A 1_555 1_555
H12A C4A 1_555 1_555
C5A N1A 1_555 1_555
H13A C5A 1_555 1_555
C6A P3A 1_555 1_555
C7A C6A 1_555 1_555
H14A C7A 1_555 1_555
H15A C7A 1_555 1_555
N3A C7A 1_555 1_555
N4A H16A 1_555 1_555
C8A N3A 1_555 1_555
H17A C8A 1_555 1_555
C9A N4A 1_555 1_555
H18A C9A 1_555 1_555
C10A N3A 1_555 1_555
H19A C10A 1_555 1_555
O15A Na1 1_555 1_555
H20A O15A 1_555 1_555
H21A O15A 1_555 1_555
O16A Na2A 1_555 1_555
H22A O16A 1_555 1_555
H23A O16A 1_555 1_555
P2 C1 1_555 1_555
P4 C6 1_555 1_555
O10 Na2A_2 1_555 1_555
O13 C1 1_555 1_555
O13 Na2A_2 1_555 1_555
O14 C6 1_555 1_555
C3 N1 1_555 1_555
C4 C5 1_555 1_555
N4 C10 1_555 1_555
C8 C9 1_555 1_555
Na2A_2 O10A_2 1_555 1_555
Na2_3 O10A_3 1_555 1_555
P2A C1A 1_555 1_555
P3A O9A 1_555 1_555
P4A C6A 1_555 1_555
O13A C1A 1_555 1_555
O14A C6A 1_555 1_555
C3A N1A 1_555 1_555
C4A C5A 1_555 1_555
N4A C10A 1_555 1_555
C8A C9A 1_555 1_555

#END
