
#######################################################################
#
#                 Cambridge Crystallographic Data Centre
#                                CCDC 
#
#######################################################################
#
# If this CIF has been generated from an entry in the Cambridge 
# Structural Database, then it will include bibliographic, chemical, 
# crystal, experimental, refinement or atomic coordinate data resulting 
# from the CCDC's data processing and validation procedures.
#
#######################################################################

data_KUQYIG
_symmetry_cell_setting           triclinic
_symmetry_space_group_name_H-M   'P -1'
_symmetry_Int_Tables_number      2
_space_group_name_Hall           '-P 1'
loop_
_symmetry_equiv_pos_site_id
_symmetry_equiv_pos_as_xyz
1 x,y,z
2 -x,-y,-z
_cell_length_a                   12.002(2)
_cell_length_b                   12.170(2)
_cell_length_c                   14.130(3)
_cell_angle_alpha                108.73(3)
_cell_angle_beta                 93.80(3)
_cell_angle_gamma                112.58(3)
_cell_volume                     1761.84
loop_
_atom_site_label
_atom_site_type_symbol
_atom_site_fract_x
_atom_site_fract_y
_atom_site_fract_z
Zn1 Zn 0.15343(4) 0.34713(5) 0.29390(4)
Br1 Br 0.11936(5) 0.36450(6) 0.46058(4)
Br2 Br 0.11385(8) 0.14766(7) 0.16876(6)
N1 N 0.0495(4) 0.4250(4) 0.2398(3)
N2 N -0.2441(3) 0.4772(4) 0.1114(3)
N3 N 0.3345(4) 0.4694(4) 0.3118(3)
N4 N 0.7028(3) 0.7483(4) 0.4095(3)
C1 C 0.0161(5) 0.3904(6) 0.1382(4)
H1 H 0.0564 0.3500 0.0960
C2 C -0.0742(5) 0.4116(6) 0.0937(4)
H2 H -0.0924 0.3898 0.0233
C3 C -0.1377(4) 0.4662(5) 0.1559(4)
C4 C -0.1038(5) 0.5069(6) 0.2610(4)
H3 H -0.1434 0.5471 0.3043
C5 C -0.0077(5) 0.4850(5) 0.2992(4)
H4 H 0.0179 0.5137 0.3698
C6 C -0.3592(4) 0.4037(5) 0.1245(4)
C7 C -0.4665(4) 0.4130(5) 0.0762(3)
C8 C -0.4484(4) 0.4948(4) 0.0222(3)
C9 C -0.3293(4) 0.5724(5) 0.0149(3)
C10 C -0.2196(4) 0.5649(5) 0.0627(4)
C11 C -0.3131(4) 0.6556(5) -0.0353(4)
H5 H -0.2341 0.7073 -0.0386
C12 C -0.5835(4) 0.3380(5) 0.0814(4)
H6 H -0.5945 0.2823 0.1158
C13 C 0.4227(4) 0.4467(4) 0.3550(4)
H7 H 0.4004 0.3700 0.3652
C14 C 0.5458(4) 0.5351(5) 0.3846(4)
H8 H 0.6061 0.5178 0.4133
C15 C 0.5761(4) 0.6476(4) 0.3707(4)
C16 C 0.4898(5) 0.6671(5) 0.3189(5)
H9 H 0.5120 0.7402 0.3032
C17 C 0.3680(5) 0.5746(5) 0.2903(5)
H10 H 0.3083 0.5868 0.2551
C18 C 0.7351(4) 0.8248(4) 0.5122(4)
C19 C 0.8615(4) 0.9311(4) 0.5507(4)
C20 C 0.9411(4) 0.9507(4) 0.4817(3)
C21 C 0.9008(4) 0.8694(5) 0.3773(4)
C22 C 0.7754(4) 0.7651(5) 0.3370(4)
C23 C 0.9793(5) 0.8905(5) 0.3119(4)
H11 H 0.9523 0.8386 0.2426
C24 C 0.9012(5) 1.0113(5) 0.6521(4)
H12 H 0.8482 0.9999 0.6968
O1 O -0.1152(3) 0.6313(4) 0.0627(3)
O2 O -0.3682(3) 0.3355(4) 0.1736(3)
O3 O 0.7327(3) 0.6958(4) 0.2480(3)
O4 O 0.6619(3) 0.8023(3) 0.5674(3)
N1A N -1.0495(4) 0.5750(4) -0.2398(3)
N2A N -0.7559(3) 0.5228(4) -0.1114(3)
C1A C -1.0161(5) 0.6096(6) -0.1382(4)
H1A H -1.0564 0.6500 -0.0960
C2A C -0.9258(5) 0.5884(6) -0.0937(4)
H2A H -0.9076 0.6102 -0.0233
C3A C -0.8623(4) 0.5338(5) -0.1559(4)
C4A C -0.8962(5) 0.4931(6) -0.2610(4)
H3A H -0.8566 0.4529 -0.3043
C5A C -0.9923(5) 0.5150(5) -0.2992(4)
H4A H -1.0179 0.4863 -0.3698
C6A C -0.6408(4) 0.5963(5) -0.1245(4)
C7A C -0.5335(4) 0.5870(5) -0.0762(3)
C8A C -0.5516(4) 0.5052(4) -0.0222(3)
C9A C -0.6707(4) 0.4276(5) -0.0149(3)
C10A C -0.7804(4) 0.4351(5) -0.0627(4)
C11A C -0.6869(4) 0.3444(5) 0.0353(4)
H5A H -0.7659 0.2927 0.0386
C12A C -0.4165(4) 0.6620(5) -0.0814(4)
H6A H -0.4055 0.7177 -0.1158
O1A O -0.8848(3) 0.3687(4) -0.0627(3)
O2A O -0.6318(3) 0.6645(4) -0.1736(3)
N3A N 1.6655(4) 1.5306(4) 0.6882(3)
N4A N 1.2972(3) 1.2517(4) 0.5905(3)
C13A C 1.5773(4) 1.5533(4) 0.6450(4)
H7A H 1.5996 1.6300 0.6348
C14A C 1.4542(4) 1.4649(5) 0.6154(4)
H8A H 1.3939 1.4822 0.5867
C15A C 1.4239(4) 1.3524(4) 0.6293(4)
C16A C 1.5102(5) 1.3329(5) 0.6811(5)
H9A H 1.4880 1.2598 0.6968
C17A C 1.6320(5) 1.4254(5) 0.7097(5)
H10A H 1.6917 1.4132 0.7449
C18A C 1.2649(4) 1.1752(4) 0.4878(4)
C19A C 1.1385(4) 1.0689(4) 0.4493(4)
C20A C 1.0589(4) 1.0493(4) 0.5183(3)
C21A C 1.0992(4) 1.1306(5) 0.6227(4)
C22A C 1.2246(4) 1.2349(5) 0.6630(4)
C23A C 1.0207(5) 1.1095(5) 0.6881(4)
H11A H 1.0477 1.1614 0.7574
C24A C 1.0988(5) 0.9887(5) 0.3479(4)
H12A H 1.1518 1.0001 0.3032
O3A O 1.2673(3) 1.3042(4) 0.7520(3)
O4A O 1.3381(3) 1.1977(3) 0.4326(3)
Zn1A Zn -1.15343(4) 0.65287(5) -0.29390(4)
Br1A Br -1.11936(5) 0.63550(6) -0.46058(4)
Br2A Br -1.11385(8) 0.85234(7) -0.16876(6)
Zn1A_2 Zn 1.84657(4) 1.65287(5) 0.70610(4)
N3A_2 N -1.3345(4) 0.5306(4) -0.3118(3)
loop_
_geom_bond_atom_site_label_1
_geom_bond_atom_site_label_2
_geom_bond_site_symmetry_1
_geom_bond_site_symmetry_2
Zn1 Br1 1_555 1_555
Br2 Zn1 1_555 1_555
N1 Zn1 1_555 1_555
N2 C3 1_555 1_555
N3 Zn1 1_555 1_555
N4 C15 1_555 1_555
C1 N1 1_555 1_555
H1 C1 1_555 1_555
C2 C1 1_555 1_555
H2 C2 1_555 1_555
C3 C2 1_555 1_555
C4 C3 1_555 1_555
H3 C4 1_555 1_555
C5 N1 1_555 1_555
H4 C5 1_555 1_555
C6 N2 1_555 1_555
C7 C6 1_555 1_555
C8 C7 1_555 1_555
C9 C8 1_555 1_555
C10 N2 1_555 1_555
C11 C9 1_555 1_555
H5 C11 1_555 1_555
C12 C7 1_555 1_555
H6 C12 1_555 1_555
C13 N3 1_555 1_555
H7 C13 1_555 1_555
C14 C13 1_555 1_555
H8 C14 1_555 1_555
C15 C14 1_555 1_555
C16 C15 1_555 1_555
H9 C16 1_555 1_555
C17 N3 1_555 1_555
H10 C17 1_555 1_555
C18 N4 1_555 1_555
C19 C18 1_555 1_555
C20 C19 1_555 1_555
C21 C20 1_555 1_555
C22 N4 1_555 1_555
C23 C21 1_555 1_555
H11 C23 1_555 1_555
C24 C19 1_555 1_555
H12 C24 1_555 1_555
O1 C10 1_555 1_555
O2 C6 1_555 1_555
O3 C22 1_555 1_555
O4 C18 1_555 1_555
N1A C1A 1_555 1_555
N2A C3A 1_555 1_555
C1A H1A 1_555 1_555
C2A C1A 1_555 1_555
H2A C2A 1_555 1_555
C3A C2A 1_555 1_555
C4A C3A 1_555 1_555
H3A C4A 1_555 1_555
C5A N1A 1_555 1_555
H4A C5A 1_555 1_555
C6A N2A 1_555 1_555
C7A C6A 1_555 1_555
C8A C8 1_555 1_555
C9A C8A 1_555 1_555
C10A N2A 1_555 1_555
C11A C12 1_555 1_555
H5A C11A 1_555 1_555
C12A C11 1_555 1_555
H6A C12A 1_555 1_555
O1A C10A 1_555 1_555
O2A C6A 1_555 1_555
N3A C13A 1_555 1_555
N4A C15A 1_555 1_555
C13A H7A 1_555 1_555
C14A C13A 1_555 1_555
H8A C14A 1_555 1_555
C15A C14A 1_555 1_555
C16A C15A 1_555 1_555
H9A C16A 1_555 1_555
C17A N3A 1_555 1_555
H10A C17A 1_555 1_555
C18A N4A 1_555 1_555
C19A C18A 1_555 1_555
C20A C20 1_555 1_555
C21A C20A 1_555 1_555
C22A N4A 1_555 1_555
C23A C24 1_555 1_555
H11A C23A 1_555 1_555
C24A C23 1_555 1_555
H12A C24A 1_555 1_555
O3A C22A 1_555 1_555
O4A C18A 1_555 1_555
Zn1A N1A 1_555 1_555
Br1A Zn1A 1_555 1_555
Br2A Zn1A 1_555 1_555
Zn1A_2 N3A 1_555 1_555
N3A_2 Zn1A 1_555 1_555
C4 C5 1_555 1_555
C9 C10 1_555 1_555
C16 C17 1_555 1_555
C21 C22 1_555 1_555
C4A C5A 1_555 1_555
C7A C8A 1_555 1_555
C7A C12A 1_555 1_555
C9A C10A 1_555 1_555
C9A C11A 1_555 1_555
C16A C17A 1_555 1_555
C19A C20A 1_555 1_555
C19A C24A 1_555 1_555
C21A C22A 1_555 1_555
C21A C23A 1_555 1_555

#END
