
#######################################################################
#
#                 Cambridge Crystallographic Data Centre
#                                CCDC 
#
#######################################################################
#
# If this CIF has been generated from an entry in the Cambridge 
# Structural Database, then it will include bibliographic, chemical, 
# crystal, experimental, refinement or atomic coordinate data resulting 
# from the CCDC's data processing and validation procedures.
#
#######################################################################

data_KUQZON
_symmetry_cell_setting           monoclinic
_symmetry_space_group_name_H-M   'C 2'
_symmetry_Int_Tables_number      5
_space_group_name_Hall           'C 2y'
loop_
_symmetry_equiv_pos_site_id
_symmetry_equiv_pos_as_xyz
1 x,y,z
2 -x,y,-z
3 1/2+x,1/2+y,z
4 1/2-x,1/2+y,-z
_cell_length_a                   24.851(16)
_cell_length_b                   7.517(5)
_cell_length_c                   16.975(11)
_cell_angle_alpha                90
_cell_angle_beta                 130.638(6)
_cell_angle_gamma                90
_cell_volume                     2406.29
loop_
_atom_site_label
_atom_site_type_symbol
_atom_site_fract_x
_atom_site_fract_y
_atom_site_fract_z
N1 N 0.4954(2) 0.5816(12) 0.0882(4)
C1 C 0.4690(4) 0.5216(12) 0.1367(6)
H1 H 0.4601 0.4039 0.1421
N2 N 0.4585(4) 0.6727(13) 0.1756(6)
C2 C 0.4785(4) 0.8261(12) 0.1511(6)
H2 H 0.4769 0.9429 0.1676
N3 N 0.5013(4) 0.7698(12) 0.0971(6)
N4 N 0.9143(4) 0.5860(12) 0.9379(6)
C3 C 0.8556(4) 0.5318(13) 0.9187(5)
H3 H 0.8447 0.4162 0.9236
N5 N 0.8135(3) 0.6848(14) 0.8897(6)
C4 C 0.8491(3) 0.8203(13) 0.9020(5)
H4 H 0.8331 0.9374 0.8873
N6 N 0.9182(3) 0.7614(12) 0.9427(3)
C5 C 0.5324(6) 0.5564(17) 0.4171(7)
H5 H 0.5226 0.4401 0.3925
C6 C 0.4962(5) 0.697(2) 0.3479(6)
C7 C 0.5109(7) 0.8710(19) 0.3846(9)
H6 H 0.4867 0.9652 0.3383
C8 C 0.5617(7) 0.9040(14) 0.4905(10)
H7 H 0.5715 1.0203 0.5151
C9 C 0.5979(5) 0.7633(13) 0.5597(7)
C10 C 0.5832(4) 0.5895(13) 0.5230(6)
C11 C 0.6194(7) 0.4487(14) 0.5922(8)
H8 H 0.6096 0.3324 0.5677
C12 C 0.6702(6) 0.4818(18) 0.6981(8)
H9 H 0.6945 0.3876 0.7445
C13 C 0.6849(5) 0.656(2) 0.7349(6)
C14 C 0.6487(6) 0.7963(17) 0.6657(7)
H10 H 0.6585 0.9126 0.6902
Cu1 Cu 0.5000 0.4257(3) 0.0000
C15 C 0.7416(8) 0.692(3) 0.8526(11)
H11 H 0.7334 0.8088 0.8674
H12 H 0.7369 0.6049 0.8899
C16 C 0.4378(7) 0.663(3) 0.2369(9)
H13 H 0.4185 0.5459 0.2289
H14 H 0.4004 0.7493 0.2106
Cu2 Cu 0.5000 0.9295(3) 0.0000
N1A N 0.5046(2) 0.5816(12) -0.0882(4)
C1A C 0.5310(4) 0.5216(12) -0.1367(6)
H1A H 0.5399 0.4039 -0.1421
N2A N 0.5415(4) 0.6727(13) -0.1756(6)
C2A C 0.5215(4) 0.8261(12) -0.1511(6)
H2A H 0.5231 0.9429 -0.1676
N3A N 0.4987(4) 0.7698(12) -0.0971(6)
N4A N 0.0857(4) 0.5860(12) -0.9379(6)
C3A C 0.1444(4) 0.5318(13) -0.9187(5)
H3A H 0.1553 0.4162 -0.9236
N5A N 0.1865(3) 0.6848(14) -0.8897(6)
C4A C 0.1509(3) 0.8203(13) -0.9020(5)
H4A H 0.1669 0.9374 -0.8873
N6A N 0.0818(3) 0.7614(12) -0.9427(3)
C5A C 0.4676(6) 0.5564(17) -0.4171(7)
H5A H 0.4774 0.4401 -0.3925
C6A C 0.5038(5) 0.697(2) -0.3479(6)
C7A C 0.4891(7) 0.8710(19) -0.3846(9)
H6A H 0.5133 0.9652 -0.3383
C8A C 0.4383(7) 0.9040(14) -0.4905(10)
H7A H 0.4285 1.0203 -0.5151
C9A C 0.4021(5) 0.7633(13) -0.5597(7)
C10A C 0.4168(4) 0.5895(13) -0.5230(6)
C11A C 0.3806(7) 0.4487(14) -0.5922(8)
H8A H 0.3904 0.3324 -0.5677
C12A C 0.3298(6) 0.4818(18) -0.6981(8)
H9A H 0.3055 0.3876 -0.7445
C13A C 0.3151(5) 0.656(2) -0.7349(6)
C14A C 0.3513(6) 0.7963(17) -0.6657(7)
H10A H 0.3415 0.9126 -0.6902
C15A C 0.2584(8) 0.692(3) -0.8526(11)
H11A H 0.2666 0.8088 -0.8674
H12A H 0.2631 0.6049 -0.8899
C16A C 0.5622(7) 0.663(3) -0.2369(9)
H13A H 0.5815 0.5459 -0.2289
H14A H 0.5996 0.7493 -0.2106
N4B N 0.4143(4) 1.0860(12) -0.0621(6)
N4C N 0.5857(4) 1.0860(12) 0.0621(6)
N6B N 0.4182(3) 0.2614(12) -0.0573(3)
N6C N 0.5818(3) 0.2614(12) 0.0573(3)
Cu1B Cu 0.0000 0.9257(3) -1.0000
Cu1B_2 Cu 1.0000 0.9257(3) 1.0000
Cu2B Cu 0.0000 0.4295(3) -1.0000
Cu2B_2 Cu 1.0000 0.4295(3) 1.0000
Cl1 Cl 0.3612(4) 0.1815(16) 0.1489(5)
O1 O 0.3308(12) 0.016(3) 0.1027(16)
O2 O 0.3356(9) 0.324(2) 0.0873(13)
O3 O 0.4380(7) 0.160(3) 0.1914(13)
O4 O 0.3734(15) 0.209(3) 0.2396(16)
loop_
_geom_bond_atom_site_label_1
_geom_bond_atom_site_label_2
_geom_bond_site_symmetry_1
_geom_bond_site_symmetry_2
N1 C1 1_555 1_555
C1 H1 1_555 1_555
N2 C1 1_555 1_555
C2 N2 1_555 1_555
H2 C2 1_555 1_555
N3 N1 1_555 1_555
N4 C3 1_555 1_555
C3 H3 1_555 1_555
N5 C3 1_555 1_555
C4 N5 1_555 1_555
H4 C4 1_555 1_555
N6 N4 1_555 1_555
C5 H5 1_555 1_555
C6 C5 1_555 1_555
C7 C6 1_555 1_555
H6 C7 1_555 1_555
C8 C7 1_555 1_555
H7 C8 1_555 1_555
C9 C8 1_555 1_555
C10 C5 1_555 1_555
C11 C10 1_555 1_555
H8 C11 1_555 1_555
C12 C11 1_555 1_555
H9 C12 1_555 1_555
C13 C12 1_555 1_555
C14 C9 1_555 1_555
H10 C14 1_555 1_555
Cu1 N1 1_555 1_555
C15 N5 1_555 1_555
H11 C15 1_555 1_555
H12 C15 1_555 1_555
C16 N2 1_555 1_555
H13 C16 1_555 1_555
H14 C16 1_555 1_555
Cu2 N3 1_555 1_555
Cl1 O1 1_555 1_555
O2 Cl1 1_555 1_555
O3 Cl1 1_555 1_555
O4 Cl1 1_555 1_555
N1A Cu1 1_555 1_555
C1A N1A 1_555 1_555
H1A C1A 1_555 1_555
N2A C1A 1_555 1_555
C2A N2A 1_555 1_555
H2A C2A 1_555 1_555
N3A Cu2 1_555 1_555
N4A C3A 1_555 1_555
C3A H3A 1_555 1_555
N5A C3A 1_555 1_555
C4A N5A 1_555 1_555
H4A C4A 1_555 1_555
N6A N4A 1_555 1_555
C5A H5A 1_555 1_555
C6A C5A 1_555 1_555
C7A C6A 1_555 1_555
H6A C7A 1_555 1_555
C8A C7A 1_555 1_555
H7A C8A 1_555 1_555
C9A C8A 1_555 1_555
C10A C5A 1_555 1_555
C11A C10A 1_555 1_555
H8A C11A 1_555 1_555
C12A C11A 1_555 1_555
H9A C12A 1_555 1_555
C13A C12A 1_555 1_555
C14A C9A 1_555 1_555
H10A C14A 1_555 1_555
C15A N5A 1_555 1_555
H11A C15A 1_555 1_555
H12A C15A 1_555 1_555
C16A N2A 1_555 1_555
H13A C16A 1_555 1_555
H14A C16A 1_555 1_555
N4B Cu2 1_555 1_555
N4C Cu2 1_555 1_555
N6B Cu1 1_555 1_555
N6C Cu1 1_555 1_555
Cu1B N6A 1_555 1_555
Cu1B_2 N6 1_555 1_555
Cu2B N4A 1_555 1_555
Cu2B_2 N4 1_555 1_555
C2 N3 1_555 1_555
C4 N6 1_555 1_555
C6 C16 1_555 1_555
C9 C10 1_555 1_555
C13 C14 1_555 1_555
C13 C15 1_555 1_555
N1A N3A 1_555 1_555
C2A N3A 1_555 1_555
C4A N6A 1_555 1_555
C6A C16A 1_555 1_555
C9A C10A 1_555 1_555
C13A C14A 1_555 1_555
C13A C15A 1_555 1_555

#END
