
#######################################################################
#
#                 Cambridge Crystallographic Data Centre
#                                CCDC 
#
#######################################################################
#
# If this CIF has been generated from an entry in the Cambridge 
# Structural Database, then it will include bibliographic, chemical, 
# crystal, experimental, refinement or atomic coordinate data resulting 
# from the CCDC's data processing and validation procedures.
#
#######################################################################

data_KUQZAZ
_symmetry_cell_setting           monoclinic
_symmetry_space_group_name_H-M   'C 2/c'
_symmetry_Int_Tables_number      15
_space_group_name_Hall           '-C 2yn'
loop_
_symmetry_equiv_pos_site_id
_symmetry_equiv_pos_as_xyz
1 x,y,z
2 -x,y,1/2-z
3 1/2+x,1/2+y,z
4 1/2-x,1/2+y,1/2-z
5 -x,-y,-z
6 x,-y,1/2+z
7 1/2-x,1/2-y,-z
8 1/2+x,1/2-y,1/2+z
_cell_length_a                   28.682(17)
_cell_length_b                   7.981(5)
_cell_length_c                   29.940(18)
_cell_angle_alpha                90
_cell_angle_beta                 103.600(7)
_cell_angle_gamma                90
_cell_volume                     6661.43
loop_
_atom_site_label
_atom_site_type_symbol
_atom_site_fract_x
_atom_site_fract_y
_atom_site_fract_z
Ag1 Ag 0.0000 1.0512(2) 0.2500
Ag2 Ag 0.0000 0.5485(2) 0.2500
N1 N 0.1181(4) 0.702(2) -0.1541(5)
N2 N 0.0526(5) 0.6168(18) -0.1996(5)
N3 N 0.1266(5) 0.802(2) 0.2241(5)
N4 N 0.0606(5) 0.718(2) 0.2375(5)
N5 N 0.0578(5) 0.8838(19) 0.2334(5)
C1 C 0.0986(6) 0.933(2) 0.2257(6)
H1 H 0.1068 1.0442 0.2220
C2 C 0.1021(6) 0.668(2) 0.2315(6)
H2 H 0.1126 0.5573 0.2322
C3 C 0.1626(5) 0.794(3) 0.0668(6)
C4 C 0.1739(5) 0.804(3) 0.2119(5)
H3 H 0.1922 0.7056 0.2248
H4 H 0.1918 0.9024 0.2248
C5 C 0.1614(6) 0.774(2) 0.0180(6)
C6 C 0.1309(6) 0.728(3) 0.1311(7)
H5 H 0.1065 0.6792 0.1424
C7 C 0.1672(5) 0.804(3) 0.1609(6)
C8 C 0.1983(6) 0.884(3) 0.0970(7)
H6 H 0.2211 0.9416 0.0853
C9 C 0.1282(6) 0.719(3) 0.0857(7)
H7 H 0.1029 0.6622 0.0667
C10 C 0.2010(6) 0.892(3) 0.1423(7)
H8 H 0.2250 0.9543 0.1613
C11 C 0.1650(5) 0.700(3) -0.1224(6)
H9 H 0.1794 0.5901 -0.1233
H10 H 0.1855 0.7818 -0.1320
C12 C 0.0924(6) 0.571(3) -0.1719(6)
H11 H 0.1016 0.4599 -0.1654
C13 C 0.1619(6) 0.737(2) -0.0741(6)
C14 C 0.1938(8) 0.834(4) -0.0465(8)
H12 H 0.2169 0.8888 -0.0585
C15 C 0.1301(10) 0.652(5) -0.0552(9)
H13 H 0.1091 0.5753 -0.0728
N6 N 0.0521(5) 0.786(2) -0.1990(5)
C16 C 0.0921(6) 0.836(2) -0.1723(6)
H14 H 0.1014 0.9469 -0.1667
C17 C 0.1295(9) 0.679(5) -0.0105(7)
H15 H 0.1054 0.6285 0.0008
C18 C 0.1941(8) 0.856(4) -0.0015(8)
H16 H 0.2166 0.9277 0.0164
N1A N -0.1181(4) 0.702(2) 0.6541(5)
N2A N -0.0526(5) 0.6168(18) 0.6996(5)
N3A N -0.1266(5) 0.802(2) 0.2759(5)
N4A N -0.0606(5) 0.718(2) 0.2625(5)
N5A N -0.0578(5) 0.8838(19) 0.2666(5)
C1A C -0.0986(6) 0.933(2) 0.2743(6)
H1A H -0.1068 1.0442 0.2780
C2A C -0.1021(6) 0.668(2) 0.2685(6)
H2A H -0.1126 0.5573 0.2678
C3A C -0.1626(5) 0.794(3) 0.4332(6)
C4A C -0.1739(5) 0.804(3) 0.2881(5)
H3A H -0.1922 0.7056 0.2752
H4A H -0.1918 0.9024 0.2752
C5A C -0.1614(6) 0.774(2) 0.4820(6)
C6A C -0.1309(6) 0.728(3) 0.3689(7)
H5A H -0.1065 0.6792 0.3576
C7A C -0.1672(5) 0.804(3) 0.3391(6)
C8A C -0.1983(6) 0.884(3) 0.4030(7)
H6A H -0.2211 0.9416 0.4147
C9A C -0.1282(6) 0.719(3) 0.4143(7)
H7A H -0.1029 0.6622 0.4333
C10A C -0.2010(6) 0.892(3) 0.3577(7)
H8A H -0.2250 0.9543 0.3387
C11A C -0.1650(5) 0.700(3) 0.6224(6)
H9A H -0.1794 0.5901 0.6233
H10A H -0.1855 0.7818 0.6320
C12A C -0.0924(6) 0.571(3) 0.6719(6)
H11A H -0.1016 0.4599 0.6654
C13A C -0.1619(6) 0.737(2) 0.5741(6)
C14A C -0.1938(8) 0.834(4) 0.5465(8)
H12A H -0.2169 0.8888 0.5585
C15A C -0.1301(10) 0.652(5) 0.5552(9)
H13A H -0.1091 0.5753 0.5728
N6A N -0.0521(5) 0.786(2) 0.6990(5)
C16A C -0.0921(6) 0.836(2) 0.6723(6)
H14A H -0.1014 0.9469 0.6667
C17A C -0.1295(9) 0.679(5) 0.5105(7)
H15A H -0.1054 0.6285 0.4992
C18A C -0.1941(8) 0.856(4) 0.5015(8)
H16A H -0.2166 0.9277 0.4836
Ag1D Ag 0.0000 0.9488(2) -0.2500
Ag1D_2 Ag 0.0000 0.9488(2) 0.7500
Ag2D Ag 0.0000 0.4515(2) -0.2500
Ag2D_2 Ag 0.0000 0.4515(2) 0.7500
N2D N -0.0526(5) 0.3832(18) 0.1996(5)
N2E N 0.0526(5) 0.3832(18) 0.3004(5)
N6D N -0.0521(5) 1.214(2) 0.1990(5)
N6E N 0.0521(5) 1.214(2) 0.3010(5)
Cl1 Cl 0.18502(13) 0.2822(6) 0.25188(16)
O1 O 0.1396(5) 0.297(2) 0.2217(6)
O2 O 0.1837(7) 0.153(2) 0.2834(5)
O3 O 0.1971(7) 0.436(2) 0.2738(8)
O4 O 0.2180(8) 0.243(2) 0.2273(9)
C19 C 0.1964(7) 0.774(3) 0.3399(7)
C20 C 0.2444(10) 0.756(3) 0.4162(11)
C21 C 0.2716(8) 0.960(3) 0.3656(9)
C22 C 0.2874(7) 0.829(3) 0.4531(9)
O5 O 0.2178(5) 0.6485(19) 0.4230(7)
N7 N 0.2397(10) 0.832(3) 0.3806(12)
N8 N 0.4611(6) 0.391(2) 0.0879(6)
C23 C 0.4982(8) 0.406(4) 0.1295(9)
C24 C 0.3818(8) 0.297(5) 0.0477(8)
C25 C 0.4707(10) 0.457(4) 0.0461(9)
C26 C 0.4187(7) 0.316(3) 0.0906(7)
O6 O 0.4120(5) 0.282(2) 0.1280(5)
C27 C 0.0394(8) 0.388(3) 0.0962(9)
C28 C 0.1041(8) 0.200(4) 0.1066(9)
C29 C 0.0651(9) 0.346(3) 0.0347(6)
C30 C 0.0008(11) 0.499(4) 0.0664(12)
O7 O 0.0381(10) 0.366(3) 0.1449(10)
N9 N 0.0670(10) 0.321(3) 0.0741(12)
loop_
_geom_bond_atom_site_label_1
_geom_bond_atom_site_label_2
_geom_bond_site_symmetry_1
_geom_bond_site_symmetry_2
Ag1 N5 1_555 1_555
Ag2 N4 1_555 1_555
N1 C11 1_555 1_555
N2 C12 1_555 1_555
N3 C1 1_555 1_555
N4 N5 1_555 1_555
N5 C1 1_555 1_555
C1 H1 1_555 1_555
C2 N3 1_555 1_555
H2 C2 1_555 1_555
C3 C5 1_555 1_555
C4 N3 1_555 1_555
H3 C4 1_555 1_555
H4 C4 1_555 1_555
C5 C17 1_555 1_555
C6 H5 1_555 1_555
C7 C4 1_555 1_555
C8 C3 1_555 1_555
H6 C8 1_555 1_555
C9 C3 1_555 1_555
H7 C9 1_555 1_555
C10 C7 1_555 1_555
H8 C10 1_555 1_555
C11 H9 1_555 1_555
H10 C11 1_555 1_555
C12 N1 1_555 1_555
H11 C12 1_555 1_555
C13 C11 1_555 1_555
C14 C13 1_555 1_555
H12 C14 1_555 1_555
C15 C13 1_555 1_555
H13 C15 1_555 1_555
N6 N2 1_555 1_555
C16 N1 1_555 1_555
H14 C16 1_555 1_555
C17 C15 1_555 1_555
H15 C17 1_555 1_555
C18 C5 1_555 1_555
H16 C18 1_555 1_555
Cl1 O1 1_555 1_555
O2 Cl1 1_555 1_555
O3 Cl1 1_555 1_555
O4 Cl1 1_555 1_555
C19 N7 1_555 1_555
C20 C22 1_555 1_555
C21 N7 1_555 1_555
O5 C20 1_555 1_555
N7 C20 1_555 1_555
N8 C23 1_555 1_555
C24 C26 1_555 1_555
C25 N8 1_555 1_555
C26 N8 1_555 1_555
O6 C26 1_555 1_555
C27 C30 1_555 1_555
C28 N9 1_555 1_555
C29 N9 1_555 1_555
O7 C27 1_555 1_555
N9 C27 1_555 1_555
N1A C11A 1_555 1_555
N2A C12A 1_555 1_555
N3A C1A 1_555 1_555
N4A Ag2 1_555 1_555
N5A Ag1 1_555 1_555
C1A N5A 1_555 1_555
H1A C1A 1_555 1_555
C2A N3A 1_555 1_555
H2A C2A 1_555 1_555
C3A C5A 1_555 1_555
C4A N3A 1_555 1_555
H3A C4A 1_555 1_555
H4A C4A 1_555 1_555
C5A C17A 1_555 1_555
C6A H5A 1_555 1_555
C7A C4A 1_555 1_555
C8A C3A 1_555 1_555
H6A C8A 1_555 1_555
C9A C3A 1_555 1_555
H7A C9A 1_555 1_555
C10A C7A 1_555 1_555
H8A C10A 1_555 1_555
C11A H9A 1_555 1_555
H10A C11A 1_555 1_555
C12A N1A 1_555 1_555
H11A C12A 1_555 1_555
C13A C11A 1_555 1_555
C14A C13A 1_555 1_555
H12A C14A 1_555 1_555
C15A C13A 1_555 1_555
H13A C15A 1_555 1_555
N6A N2A 1_555 1_555
C16A N1A 1_555 1_555
H14A C16A 1_555 1_555
C17A C15A 1_555 1_555
H15A C17A 1_555 1_555
C18A C5A 1_555 1_555
H16A C18A 1_555 1_555
Ag1D N6 1_555 1_555
Ag1D_2 N6A 1_555 1_555
Ag2D N2 1_555 1_555
Ag2D_2 N2A 1_555 1_555
N2D Ag2 1_555 1_555
N2E Ag2 1_555 1_555
N6D Ag1 1_555 1_555
N6E Ag1 1_555 1_555
N4 C2 1_555 1_555
C6 C7 1_555 1_555
C6 C9 1_555 1_555
C8 C10 1_555 1_555
C14 C18 1_555 1_555
N6 C16 1_555 1_555
N4A N5A 1_555 1_555
N4A C2A 1_555 1_555
C6A C7A 1_555 1_555
C6A C9A 1_555 1_555
C8A C10A 1_555 1_555
C14A C18A 1_555 1_555
N6A C16A 1_555 1_555

#END
