
#######################################################################
#
#                 Cambridge Crystallographic Data Centre
#                                CCDC 
#
#######################################################################
#
# If this CIF has been generated from an entry in the Cambridge 
# Structural Database, then it will include bibliographic, chemical, 
# crystal, experimental, refinement or atomic coordinate data resulting 
# from the CCDC's data processing and validation procedures.
#
#######################################################################

data_KURHIQ
_symmetry_cell_setting           triclinic
_symmetry_space_group_name_H-M   'P -1'
_symmetry_Int_Tables_number      2
_space_group_name_Hall           '-P 1'
loop_
_symmetry_equiv_pos_site_id
_symmetry_equiv_pos_as_xyz
1 x,y,z
2 -x,-y,-z
_cell_length_a                   10.368(2)
_cell_length_b                   10.377(2)
_cell_length_c                   11.898(2)
_cell_angle_alpha                65.64(3)
_cell_angle_beta                 82.28(3)
_cell_angle_gamma                62.83(3)
_cell_volume                     1035.14
loop_
_atom_site_label
_atom_site_type_symbol
_atom_site_fract_x
_atom_site_fract_y
_atom_site_fract_z
Mn1 Mn 0.15430(3) 0.77945(4) 0.73446(3)
Mn2 Mn 0.45551(3) 1.14431(4) 0.73319(3)
N1 N 0.3662(2) 1.0750(3) 0.61795(19)
N2 N 0.7193(2) 1.5879(2) 0.37102(19)
N3 N 0.5090(2) 1.2376(3) 0.84650(19)
N4 N 0.6323(2) 0.9083(2) 0.8239(2)
N5 N 0.1864(2) 1.0001(2) 0.58237(17)
N6 N 0.0182(2) 1.1541(3) 0.39690(19)
N7 N 0.6630(2) 1.2544(2) 1.17046(19)
N8 N 0.8366(2) 0.4475(2) 1.14708(18)
N9 N 0.0045(2) 1.0823(3) 1.1730(2)
N10 N 0.6950(2) 1.3521(2) 0.39593(17)
N11 N 0.5053(3) 1.3484(3) 0.9922(2)
N12 N 0.2942(3) 1.1001(3) 0.8620(2)
N13 N 0.5898(2) 1.2214(3) 0.5791(2)
N14 N 0.1520(2) 0.9928(3) 1.0187(2)
N15 N 0.8310(2) 0.6742(2) 0.9648(2)
C1 C 0.2814(2) 1.0441(2) 0.59740(19)
C2 C 0.1000(2) 1.0866(2) 0.4808(2)
C3 C 0.5945(2) 1.2896(2) 1.0857(2)
C4 C 0.5144(2) 1.2812(3) 0.9192(2)
C5 C 0.8246(2) 0.5586(3) 1.0610(2)
C6 C 0.6385(2) 1.2853(3) 0.4957(2)
C7 C 0.7197(3) 0.7957(3) 0.8947(2)
C8 C 0.0765(2) 1.0476(3) 1.0984(2)
C9 C 0.7059(2) 1.4775(3) 0.38595(19)
C10 C 0.2257(2) 1.0559(3) 0.9383(2)
Mn1A Mn -0.15430(3) 1.22055(4) 0.26554(3)
Mn1A_2 Mn -0.15430(3) 1.22055(4) 1.26554(3)
Mn1A_3 Mn 0.84570(3) 0.22055(4) 1.26554(3)
Mn1A_4 Mn 0.84570(3) 1.22055(4) 0.26554(3)
Mn1A_5 Mn 0.84570(3) 1.22055(4) 1.26554(3)
Mn2A Mn 0.54449(3) 1.85569(4) 0.26681(3)
N2A N 0.2807(2) 1.4121(2) 0.62898(19)
N6A N -0.0182(2) 0.8459(3) 0.60310(19)
N7A N 0.3370(2) 0.7456(2) 0.82954(19)
N8A N 0.1634(2) 0.5525(2) 0.85292(18)
N9A N -0.0045(2) 0.9177(3) 0.8270(2)
N10A N 0.3050(2) 0.6479(2) 0.60407(17)
N16 N 0.1781(2) 0.5460(2) 0.26852(19)
C11 C 0.1565(4) 0.6144(4) 0.1308(3)
H1 H 0.2212 0.5365 0.1000
H2 H 0.1765 0.7045 0.0962
H3 H 0.0579 0.6464 0.1077
C12 C 0.1499(12) 0.4125(9) 0.3200(5)
H4 H 0.1640 0.3689 0.4085
H5 H 0.2150 0.3346 0.2893
H6 H 0.0514 0.4435 0.2972
C13 C 0.0815(10) 0.6616(7) 0.3168(5)
H7 H 0.0965 0.6161 0.4053
H8 H -0.0174 0.6937 0.2944
H9 H 0.1011 0.7519 0.2829
C14 C 0.3210(6) 0.5052(12) 0.3027(4)
H10 H 0.3346 0.4611 0.3912
H11 H 0.3369 0.5978 0.2685
H12 H 0.3888 0.4288 0.2717
loop_
_geom_bond_atom_site_label_1
_geom_bond_atom_site_label_2
_geom_bond_site_symmetry_1
_geom_bond_site_symmetry_2
Mn1 N5 1_555 1_555
Mn2 N1 1_555 1_555
N1 C1 1_555 1_555
N2 C9 1_555 1_555
N3 Mn2 1_555 1_555
N4 Mn2 1_555 1_555
N5 C1 1_555 1_555
N6 C2 1_555 1_555
N7 C3 1_555 1_555
N8 C5 1_555 1_555
N9 C8 1_555 1_555
N10 C6 1_555 1_555
N11 C3 1_555 1_555
N12 Mn2 1_555 1_555
N13 Mn2 1_555 1_555
N14 C8 1_555 1_555
N15 C5 1_555 1_555
C2 N5 1_555 1_555
C4 N3 1_555 1_555
C6 N13 1_555 1_555
C7 N4 1_555 1_555
C9 N10 1_555 1_555
C10 N12 1_555 1_555
N16 C11 1_555 1_555
C11 H1 1_555 1_555
H2 C11 1_555 1_555
H3 C11 1_555 1_555
C12 N16 1_555 1_555
H4 C12 1_555 1_555
H5 C12 1_555 1_555
H6 C12 1_555 1_555
C13 N16 1_555 1_555
H7 C13 1_555 1_555
H8 C13 1_555 1_555
H9 C13 1_555 1_555
C14 N16 1_555 1_555
H10 C14 1_555 1_555
H11 C14 1_555 1_555
H12 C14 1_555 1_555
Mn1A N6 1_555 1_555
Mn1A_2 N9 1_555 1_555
Mn1A_3 N8 1_555 1_555
Mn1A_4 N10 1_555 1_555
Mn1A_5 N7 1_555 1_555
Mn2A N2 1_555 1_555
N2A Mn2 1_555 1_555
N6A Mn1 1_555 1_555
N7A Mn1 1_555 1_555
N8A Mn1 1_555 1_555
N9A Mn1 1_555 1_555
N10A Mn1 1_555 1_555
N11 C4 1_555 1_555
N14 C10 1_555 1_555
N15 C7 1_555 1_555

#END
