
#######################################################################
#
#                 Cambridge Crystallographic Data Centre
#                                CCDC 
#
#######################################################################
#
# If this CIF has been generated from an entry in the Cambridge 
# Structural Database, then it will include bibliographic, chemical, 
# crystal, experimental, refinement or atomic coordinate data resulting 
# from the CCDC's data processing and validation procedures.
#
#######################################################################

data_KURHOW
_symmetry_cell_setting           monoclinic
_symmetry_space_group_name_H-M   'P 21/n'
_symmetry_Int_Tables_number      14
_space_group_name_Hall           '-P 2yn'
loop_
_symmetry_equiv_pos_site_id
_symmetry_equiv_pos_as_xyz
1 x,y,z
2 1/2-x,1/2+y,1/2-z
3 -x,-y,-z
4 1/2+x,1/2-y,1/2+z
_cell_length_a                   15.711(3)
_cell_length_b                   7.6050(15)
_cell_length_c                   21.499(4)
_cell_angle_alpha                90
_cell_angle_beta                 102.86(3)
_cell_angle_gamma                90
_cell_volume                     2504.31
loop_
_atom_site_label
_atom_site_type_symbol
_atom_site_fract_x
_atom_site_fract_y
_atom_site_fract_z
Mn1 Mn 0.5000 1.0000 0.0000
C1 C 0.6199(3) 0.6691(5) 0.0626(2)
N1 N 0.5958(2) 0.8112(4) 0.06046(17)
N2 N 0.4247(2) 1.0155(5) 0.07382(18)
C2 C 0.3791(3) 1.0114(5) 0.1080(2)
N3 N 0.5785(2) 0.2368(4) 0.04030(17)
N4 N 0.3353(3) 0.9923(6) 0.15235(19)
C3 C 0.6096(3) 0.3704(5) 0.0520(2)
N5 N 0.6550(3) 0.5137(5) 0.0674(3)
C4 C 0.2628(3) 1.0763(6) 0.1507(2)
N6 N 0.1989(3) 1.1341(6) 0.1550(3)
C1B C 0.3801(3) 0.3309(5) -0.0626(2)
N1B N 0.4042(2) 0.1888(4) -0.06046(17)
N3B N 0.4215(2) 0.7632(4) -0.04030(17)
C3B C 0.3904(3) 0.6296(5) -0.0520(2)
N5B N 0.3450(3) 0.4863(5) -0.0674(3)
N2B N 0.5753(2) 0.9845(5) -0.07382(18)
C2B C 0.6209(3) 0.9886(5) -0.1080(2)
N4B N 0.6647(3) 1.0077(6) -0.15235(19)
C4B C 0.7372(3) 0.9237(6) -0.1507(2)
N6B N 0.8011(3) 0.8659(6) -0.1550(3)
Mn1_2 Mn 0.5000 0.0000 0.0000
N1B_2 N 0.4042(2) 1.1888(4) -0.06046(17)
N3_2 N 0.5785(2) 1.2368(4) 0.04030(17)
P1 P 0.98034(6) 0.31631(12) 0.18127(5)
C5 C 0.9210(2) 0.1715(5) 0.12067(17)
C6 C 0.9085(2) 0.4607(4) 0.21230(17)
C7 C 0.8580(3) 0.5834(5) 0.17119(19)
H1 H 0.8592 0.5838 0.1281
C8 C 1.0446(3) 0.1836(5) 0.24372(19)
H2 H 1.0927 0.1330 0.2283
H3 H 1.0694 0.2594 0.2794
C9 C 0.9073(3) 0.4616(5) 0.27653(19)
H4 H 0.9407 0.3811 0.3042
C10 C 0.8559(3) 0.5830(6) 0.2995(2)
H5 H 0.8550 0.5842 0.3426
C11 C 0.8313(2) 0.1797(5) 0.09785(18)
H6 H 0.7990 0.2657 0.1130
C12 C 0.9684(3) 0.0395(5) 0.0976(2)
H7 H 1.0285 0.0312 0.1129
C13 C 0.9950(3) 0.0351(6) 0.2677(2)
H8 H 0.9683 -0.0394 0.2321
H9 H 0.9487 0.0847 0.2855
C14 C 0.8068(3) 0.7029(6) 0.1939(2)
H10 H 0.7732 0.7832 0.1663
C15 C 1.0580(3) 0.4417(6) 0.0837(2)
H11 H 1.0233 0.3617 0.0566
C16 C 0.7895(3) 0.0601(6) 0.0525(2)
H12 H 0.7294 0.0656 0.0373
C17 C 0.8055(3) 0.7032(6) 0.2580(2)
H13 H 0.7709 0.7840 0.2735
C18 C 0.9263(3) -0.0765(6) 0.0528(2)
H14 H 0.9581 -0.1632 0.0375
C19 C 0.8376(3) -0.0671(6) 0.0299(2)
H15 H 0.8098 -0.1466 -0.0009
C20 C 1.1020(4) 0.5746(7) 0.1848(2)
H16 H 1.0975 0.5879 0.2269
C21 C 1.0552(4) -0.0768(6) 0.3188(3)
H17 H 1.0223 -0.1780 0.3278
H18 H 1.1027 -0.1204 0.3010
C22 C 1.1166(4) 0.5498(8) 0.0605(3)
H19 H 1.1215 0.5401 0.0183
C23 C 1.1609(4) 0.6794(8) 0.1609(3)
H20 H 1.1971 0.7580 0.1876
C24 C 1.1649(4) 0.6655(7) 0.0990(3)
H21 H 1.2023 0.7388 0.0831
C25 C 1.0917(4) 0.0086(8) 0.3774(3)
H22 H 1.1321 0.0971 0.3705
H23 H 1.1216 -0.0761 0.4076
H24 H 1.0459 0.0625 0.3938
C26 C 1.0516(3) 0.4543(5) 0.1471(2)
loop_
_geom_bond_atom_site_label_1
_geom_bond_atom_site_label_2
_geom_bond_site_symmetry_1
_geom_bond_site_symmetry_2
Mn1 N1 1_555 1_555
C1 N1 1_555 1_555
N2 Mn1 1_555 1_555
C2 N2 1_555 1_555
N3 C3 1_555 1_555
N4 C2 1_555 1_555
C3 N5 1_555 1_555
N5 C1 1_555 1_555
C4 N4 1_555 1_555
N6 C4 1_555 1_555
P1 C5 1_555 1_555
C5 C11 1_555 1_555
C6 P1 1_555 1_555
C7 C6 1_555 1_555
H1 C7 1_555 1_555
C8 P1 1_555 1_555
H2 C8 1_555 1_555
H3 C8 1_555 1_555
C9 C6 1_555 1_555
H4 C9 1_555 1_555
C10 C9 1_555 1_555
H5 C10 1_555 1_555
C11 H6 1_555 1_555
C12 C5 1_555 1_555
H7 C12 1_555 1_555
C13 C8 1_555 1_555
H8 C13 1_555 1_555
H9 C13 1_555 1_555
C14 C7 1_555 1_555
H10 C14 1_555 1_555
C15 H11 1_555 1_555
C16 C11 1_555 1_555
H12 C16 1_555 1_555
C17 C10 1_555 1_555
H13 C17 1_555 1_555
C18 C12 1_555 1_555
H14 C18 1_555 1_555
C19 C16 1_555 1_555
H15 C19 1_555 1_555
C20 H16 1_555 1_555
C21 C13 1_555 1_555
H17 C21 1_555 1_555
H18 C21 1_555 1_555
C22 C15 1_555 1_555
H19 C22 1_555 1_555
C23 C20 1_555 1_555
H20 C23 1_555 1_555
C24 C22 1_555 1_555
H21 C24 1_555 1_555
C25 C21 1_555 1_555
H22 C25 1_555 1_555
H23 C25 1_555 1_555
H24 C25 1_555 1_555
C26 P1 1_555 1_555
C1B N1B 1_555 1_555
N1B Mn1_2 1_555 1_555
N3B Mn1 1_555 1_555
C3B N3B 1_555 1_555
N5B C1B 1_555 1_555
N2B Mn1 1_555 1_555
C2B N2B 1_555 1_555
N4B C2B 1_555 1_555
C4B N4B 1_555 1_555
N6B C4B 1_555 1_555
Mn1_2 N3 1_555 1_555
N1B_2 Mn1 1_555 1_555
N3_2 Mn1 1_555 1_555
C14 C17 1_555 1_555
C15 C26 1_555 1_555
C18 C19 1_555 1_555
C20 C26 1_555 1_555
C23 C24 1_555 1_555
C3B N5B 1_555 1_555

#END
