
#######################################################################
#
#                 Cambridge Crystallographic Data Centre
#                                CCDC 
#
#######################################################################
#
# If this CIF has been generated from an entry in the Cambridge 
# Structural Database, then it will include bibliographic, chemical, 
# crystal, experimental, refinement or atomic coordinate data resulting 
# from the CCDC's data processing and validation procedures.
#
#######################################################################

data_KURKUE
_symmetry_cell_setting           monoclinic
_symmetry_space_group_name_H-M   'P 21/c'
_symmetry_Int_Tables_number      14
_space_group_name_Hall           '-P 2ybc'
loop_
_symmetry_equiv_pos_site_id
_symmetry_equiv_pos_as_xyz
1 x,y,z
2 -x,1/2+y,1/2-z
3 -x,-y,-z
4 x,1/2-y,1/2+z
_cell_length_a                   6.3704(7)
_cell_length_b                   8.4382(10)
_cell_length_c                   10.0412(12)
_cell_angle_alpha                90
_cell_angle_beta                 104.492(2)
_cell_angle_gamma                90
_cell_volume                     522.588
loop_
_atom_site_label
_atom_site_type_symbol
_atom_site_fract_x
_atom_site_fract_y
_atom_site_fract_z
Cu1 Cu 0.5000 0.0000 0.0000
N1 N 0.1980(3) 0.1558(3) 0.0646(2)
O1 O -0.31000(19) 0.11889(14) 0.15024(11)
H1 H -0.329(4) 0.117(3) 0.2292(14)
O2 O -0.4556(2) 0.17730(15) -0.10898(11)
O3 O -0.3092(2) 0.41604(15) -0.09635(12)
C1 C -0.2860(3) 0.28079(19) 0.11473(16)
H2 H -0.3808 0.3473 0.1545
C2 C -0.3559(3) 0.2934(2) -0.04252(16)
C3 C -0.0509(3) 0.3336(2) 0.17056(18)
H3 H -0.0359 0.4433 0.1454
H4 H -0.0120 0.3266 0.2701
C4 C 0.0950(3) 0.2340(3) 0.1150(2)
Cu1_2 Cu -0.5000 0.0000 0.0000
Cu1_3 Cu 1.5000 0.0000 0.0000
N1B N 0.8020(3) -0.1558(3) -0.0646(2)
O1B O 1.31000(19) -0.11889(14) -0.15024(11)
O1_2 O 0.69000(19) 0.11889(14) 0.15024(11)
O1B_2 O 0.31000(19) -0.11889(14) -0.15024(11)
H1B H 1.329(4) -0.117(3) -0.2292(14)
H1_2 H 0.671(4) 0.117(3) 0.2292(14)
H1B_2 H 0.329(4) -0.117(3) -0.2292(14)
O2B O 1.4556(2) -0.17730(15) 0.10898(11)
O2_2 O 0.5444(2) 0.17730(15) -0.10898(11)
O2B_2 O 0.4556(2) -0.17730(15) 0.10898(11)
O3B O 1.3092(2) -0.41604(15) 0.09635(12)
C1B C 1.2860(3) -0.28079(19) -0.11473(16)
H2B H 1.3808 -0.3473 -0.1545
C2B C 1.3559(3) -0.2934(2) 0.04252(16)
C3B C 1.0509(3) -0.3336(2) -0.17056(18)
H3B H 1.0359 -0.4433 -0.1454
H4B H 1.0120 -0.3266 -0.2701
C4B C 0.9050(3) -0.2340(3) -0.1150(2)
loop_
_geom_bond_atom_site_label_1
_geom_bond_atom_site_label_2
_geom_bond_site_symmetry_1
_geom_bond_site_symmetry_2
Cu1 N1 1_555 1_555
N1 C4 1_555 1_555
O1 H1 1_555 1_555
O2 C2 1_555 1_555
O3 C2 1_555 1_555
C1 O1 1_555 1_555
H2 C1 1_555 1_555
C2 C1 1_555 1_555
C3 C1 1_555 1_555
H3 C3 1_555 1_555
H4 C3 1_555 1_555
C4 C3 1_555 1_555
Cu1_2 O1 1_555 1_555
Cu1_3 O1B 1_555 1_555
N1B Cu1 1_555 1_555
O1B H1B 1_555 1_555
O1_2 Cu1 1_555 1_555
O1B_2 Cu1 1_555 1_555
H1_2 O1_2 1_555 1_555
H1B_2 O1B_2 1_555 1_555
O2B Cu1_3 1_555 1_555
O2_2 Cu1 1_555 1_555
O2B_2 Cu1 1_555 1_555
O3B C2B 1_555 1_555
C1B O1B 1_555 1_555
H2B C1B 1_555 1_555
C2B O2B 1_555 1_555
C3B C1B 1_555 1_555
H3B C3B 1_555 1_555
H4B C3B 1_555 1_555
C4B N1B 1_555 1_555
O2 Cu1_2 1_555 1_555
C1B C2B 1_555 1_555
C3B C4B 1_555 1_555

#END
