
#######################################################################
#
#                 Cambridge Crystallographic Data Centre
#                                CCDC 
#
#######################################################################
#
# If this CIF has been generated from an entry in the Cambridge 
# Structural Database, then it will include bibliographic, chemical, 
# crystal, experimental, refinement or atomic coordinate data resulting 
# from the CCDC's data processing and validation procedures.
#
#######################################################################

data_KURLUF
_symmetry_cell_setting           monoclinic
_symmetry_space_group_name_H-M   'C 2/c'
_symmetry_Int_Tables_number      15
_space_group_name_Hall           '-C 2yn'
loop_
_symmetry_equiv_pos_site_id
_symmetry_equiv_pos_as_xyz
1 x,y,z
2 -x,y,1/2-z
3 1/2+x,1/2+y,z
4 1/2-x,1/2+y,1/2-z
5 -x,-y,-z
6 x,-y,1/2+z
7 1/2-x,1/2-y,-z
8 1/2+x,1/2-y,1/2+z
_cell_length_a                   11.3320(10)
_cell_length_b                   13.229(2)
_cell_length_c                   18.7860(10)
_cell_angle_alpha                90
_cell_angle_beta                 92.45(3)
_cell_angle_gamma                90
_cell_volume                     2813.65
loop_
_atom_site_label
_atom_site_type_symbol
_atom_site_fract_x
_atom_site_fract_y
_atom_site_fract_z
C1 C 0.0470(2) 0.1461(2) 0.58377(14)
H1 H -0.0111 0.1105 0.5529
H2 H 0.0068 0.1790 0.6227
H3 H 0.0873 0.1974 0.5560
C2 C 0.1350(2) 0.07273(19) 0.61369(13)
C3 C 0.2414(2) 0.04235(18) 0.58358(13)
C4 C 0.2939(2) -0.02624(19) 0.63128(14)
C5 C 0.4086(2) -0.0822(2) 0.63074(16)
H4 H 0.4637 -0.0538 0.6670
H5 H 0.3950 -0.1538 0.6411
H6 H 0.4421 -0.0758 0.5837
C6 C 0.0587(2) 0.14112(19) 0.38756(14)
H7 H 0.0236 0.1593 0.3407
H8 H 0.1033 0.1988 0.4074
H9 H -0.0040 0.1230 0.4196
C7 C 0.1401(2) 0.05297(19) 0.37995(13)
C8 C 0.2365(2) 0.02232(19) 0.42508(13)
C9 C 0.2796(2) -0.0650(2) 0.39493(13)
C10 C 0.3787(2) -0.1344(2) 0.41780(15)
H10 H 0.3463 -0.1955 0.4392
H11 H 0.4311 -0.1001 0.4529
H12 H 0.4234 -0.1532 0.3763
N1 N 0.12324(17) 0.02426(15) 0.67573(11)
N2 N 0.22165(18) -0.03492(15) 0.68498(11)
H13 H 0.2356 -0.0742 0.7222
N3 N 0.12555(17) -0.01244(16) 0.32624(11)
N4 N 0.21226(19) -0.08360(16) 0.33652(12)
H14 H 0.2223 -0.1354 0.3080
O1 O 0.0000 -0.19654(18) 0.2500
H15 H -0.0625 -0.2317 0.2606
Cu1 Cu 0.0000 -0.02962(3) 0.2500
Se1 Se 0.30884(2) 0.097275(18) 0.501388(12)
C1D C -0.0470(2) -0.1461(2) 0.41623(14)
H1D H 0.0111 -0.1105 0.4471
H2D H -0.0068 -0.1790 0.3773
H3D H -0.0873 -0.1974 0.4440
C2D C -0.1350(2) -0.07273(19) 0.38631(13)
C3D C -0.2414(2) -0.04235(18) 0.41642(13)
C4D C -0.2939(2) 0.02624(19) 0.36872(14)
C5D C -0.4086(2) 0.0822(2) 0.36926(16)
H4D H -0.4637 0.0538 0.3330
H5D H -0.3950 0.1538 0.3589
H6D H -0.4421 0.0758 0.4163
C6D C -0.0587(2) -0.14112(19) 0.61244(14)
H7D H -0.0236 -0.1593 0.6593
H8D H -0.1033 -0.1988 0.5926
H9D H 0.0040 -0.1230 0.5804
C7D C -0.1401(2) -0.05297(19) 0.62005(13)
C8D C -0.2365(2) -0.02232(19) 0.57492(13)
C9D C -0.2796(2) 0.0650(2) 0.60507(13)
C10D C -0.3787(2) 0.1344(2) 0.58220(15)
H10D H -0.3463 0.1955 0.5608
H11D H -0.4311 0.1001 0.5471
H12D H -0.4234 0.1532 0.6237
N1D N -0.12324(17) -0.02426(15) 0.32427(11)
N1E N 0.12324(17) -0.02426(15) 0.17573(11)
N2D N -0.22165(18) 0.03492(15) 0.31502(11)
H13D H -0.2356 0.0742 0.2778
N3D N -0.12555(17) 0.01244(16) 0.67376(11)
N3A N -0.12555(17) -0.01244(16) 0.17376(11)
N4D N -0.21226(19) 0.08360(16) 0.66348(12)
H14D H -0.2223 0.1354 0.6920
H15A H 0.0625 -0.2317 0.2394
Cu1D Cu 0.0000 0.02962(3) 0.7500
Se1D Se -0.30884(2) -0.097275(18) 0.498612(12)
O2 O -0.5000 -0.1193(3) 0.2500
H16 H -0.4338 -0.1589 0.2619
H16A H -0.5662 -0.1589 0.2381
Cl1 Cl -0.25642(5) -0.26253(5) 0.26925(3)
loop_
_geom_bond_atom_site_label_1
_geom_bond_atom_site_label_2
_geom_bond_site_symmetry_1
_geom_bond_site_symmetry_2
C1 H1 1_555 1_555
H2 C1 1_555 1_555
H3 C1 1_555 1_555
C2 C1 1_555 1_555
C3 C2 1_555 1_555
C4 C3 1_555 1_555
C5 C4 1_555 1_555
H4 C5 1_555 1_555
H5 C5 1_555 1_555
H6 C5 1_555 1_555
C6 H7 1_555 1_555
H8 C6 1_555 1_555
H9 C6 1_555 1_555
C7 C6 1_555 1_555
C8 C7 1_555 1_555
C9 C8 1_555 1_555
C10 C9 1_555 1_555
H10 C10 1_555 1_555
H11 C10 1_555 1_555
H12 C10 1_555 1_555
N1 C2 1_555 1_555
N2 C4 1_555 1_555
H13 N2 1_555 1_555
N3 C7 1_555 1_555
N4 C9 1_555 1_555
H14 N4 1_555 1_555
O1 H15 1_555 1_555
Cu1 N3 1_555 1_555
Se1 C3 1_555 1_555
O2 H16 1_555 1_555
C1D H1D 1_555 1_555
H2D C1D 1_555 1_555
H3D C1D 1_555 1_555
C2D C1D 1_555 1_555
C3D C2D 1_555 1_555
C4D C3D 1_555 1_555
C5D C4D 1_555 1_555
H4D C5D 1_555 1_555
H5D C5D 1_555 1_555
H6D C5D 1_555 1_555
C6D H7D 1_555 1_555
H8D C6D 1_555 1_555
H9D C6D 1_555 1_555
C7D C6D 1_555 1_555
C8D C7D 1_555 1_555
C9D C8D 1_555 1_555
C10D C9D 1_555 1_555
H10D C10D 1_555 1_555
H11D C10D 1_555 1_555
H12D C10D 1_555 1_555
N1D Cu1 1_555 1_555
N1E Cu1 1_555 1_555
N2D C4D 1_555 1_555
H13D N2D 1_555 1_555
N3D C7D 1_555 1_555
N3A Cu1 1_555 1_555
N4D C9D 1_555 1_555
H14D N4D 1_555 1_555
H15A O1 1_555 1_555
Cu1D N1 1_555 1_555
Se1D C3D 1_555 1_555
H16A O2 1_555 1_555
C8 Se1 1_555 1_555
N1 N2 1_555 1_555
N3 N4 1_555 1_555
O1 Cu1 1_555 1_555
C2D N1D 1_555 1_555
C8D Se1D 1_555 1_555
N1D N2D 1_555 1_555
N3D N4D 1_555 1_555
N3D Cu1D 1_555 1_555

#END
