
#######################################################################
#
#                 Cambridge Crystallographic Data Centre
#                                CCDC 
#
#######################################################################
#
# If this CIF has been generated from an entry in the Cambridge 
# Structural Database, then it will include bibliographic, chemical, 
# crystal, experimental, refinement or atomic coordinate data resulting 
# from the CCDC's data processing and validation procedures.
#
#######################################################################

data_KURLAL
_symmetry_cell_setting           monoclinic
_symmetry_space_group_name_H-M   'C 2/c'
_symmetry_Int_Tables_number      15
_space_group_name_Hall           '-C 2yn'
loop_
_symmetry_equiv_pos_site_id
_symmetry_equiv_pos_as_xyz
1 x,y,z
2 -x,y,1/2-z
3 1/2+x,1/2+y,z
4 1/2-x,1/2+y,1/2-z
5 -x,-y,-z
6 x,-y,1/2+z
7 1/2-x,1/2-y,-z
8 1/2+x,1/2-y,1/2+z
_cell_length_a                   18.1031(17)
_cell_length_b                   11.6448(11)
_cell_length_c                   31.771(3)
_cell_angle_alpha                90
_cell_angle_beta                 104.9570(10)
_cell_angle_gamma                90
_cell_volume                     6470.63
loop_
_atom_site_label
_atom_site_type_symbol
_atom_site_fract_x
_atom_site_fract_y
_atom_site_fract_z
Mn1 Mn 0.08008(2) 0.15824(3) 0.713098(13)
O1 O 0.19470(11) 0.15352(16) 0.69639(6)
O2 O 0.09014(11) 0.15001(16) 0.64305(6)
O3 O 0.33963(13) 0.1358(2) 0.53460(7)
H1 H 0.3834 0.1140 0.5459
O4 O 0.03921(11) 0.15809(17) 0.80555(7)
O5 O 0.14062(11) 0.16769(16) 0.77935(6)
O6 O 0.27872(16) 0.3557(2) 0.97038(8)
H2 H 0.3241 0.3623 0.9709
N1 N 0.08390(12) -0.03575(18) 0.71607(8)
N2 N 0.08120(13) -0.64423(17) 0.71374(8)
C1 C 0.16240(16) 0.1471(2) 0.65617(9)
C2 C 0.20923(16) 0.1390(2) 0.62421(9)
C3 C 0.28472(17) 0.1051(3) 0.63700(10)
H3 H 0.3061 0.0842 0.6658
C4 C 0.32916(18) 0.1016(3) 0.60746(10)
H4 H 0.3797 0.0771 0.6163
C5 C 0.29825(18) 0.1346(3) 0.56487(11)
C6 C 0.22282(18) 0.1687(3) 0.55139(10)
H5 H 0.2020 0.1912 0.5227
C7 C 0.17852(17) 0.1690(3) 0.58084(10)
H6 H 0.1273 0.1897 0.5715
C8 C 0.10840(16) 0.1807(2) 0.80963(9)
C9 C 0.15477(15) 0.2283(2) 0.85155(9)
C10 C 0.22868(17) 0.2643(2) 0.85611(10)
H7 H 0.2502 0.2589 0.8326
C11 C 0.27225(18) 0.3093(3) 0.89598(11)
H8 H 0.3220 0.3347 0.8990
C12 C 0.2391(2) 0.3146(3) 0.93039(11)
C13 C 0.1661(2) 0.2796(3) 0.92614(11)
H9 H 0.1446 0.2846 0.9497
C14 C 0.12380(18) 0.2368(3) 0.88709(10)
H10 H 0.0737 0.2131 0.8844
C15 C 0.03712(17) -0.0965(2) 0.68436(10)
H11 H 0.0024 -0.0571 0.6624
C16 C 0.03788(18) -0.2137(2) 0.68267(11)
H12 H 0.0044 -0.2518 0.6598
C17 C 0.08816(15) -0.2762(2) 0.71470(9)
C18 C 0.13833(16) -0.2140(2) 0.74664(10)
H13 H 0.1746 -0.2514 0.7684
C19 C 0.13412(16) -0.0958(2) 0.74605(10)
H14 H 0.1684 -0.0556 0.7679
C20 C 0.01869(16) -0.5805(2) 0.69826(10)
H15 H -0.0275 -0.6181 0.6868
C21 C 0.01906(16) -0.4630(2) 0.69834(10)
H16 H -0.0263 -0.4230 0.6875
C22 C 0.08681(15) -0.4033(2) 0.71451(9)
C23 C 0.15139(16) -0.4697(2) 0.73069(10)
H17 H 0.1984 -0.4346 0.7422
C24 C 0.14585(16) -0.5868(2) 0.72969(11)
H18 H 0.1902 -0.6290 0.7409
Mn1A Mn -0.08008(2) 0.15824(3) 0.786902(13)
Mn1_2 Mn 0.08008(2) -0.84176(3) 0.713098(13)
O4A O -0.03921(11) 0.15809(17) 0.69445(7)
N2_2 N 0.08120(13) 0.35577(17) 0.71374(8)
O7 O 0.06897(16) -0.1109(3) 0.51429(10)
H19 H 0.0579 -0.0415 0.5263
H20 H 0.0341 -0.1120 0.4856
O8 O 0.01136(14) 0.0156(3) 0.57296(8)
H21 H -0.0031 -0.0486 0.5838
H22 H 0.0431 0.0574 0.5981
N3 N -0.51598(16) 0.0563(3) 0.56051(11)
N4 N -0.12265(15) -0.0748(3) 0.59787(10)
C25 C -0.4703(2) 0.1155(3) 0.54225(14)
H23 H -0.4910 0.1766 0.5241
C26 C -0.3937(2) 0.0916(3) 0.54861(12)
H24 H -0.3643 0.1349 0.5344
C27 C -0.36040(18) 0.0029(3) 0.57622(10)
C28 C -0.40861(19) -0.0576(3) 0.59569(11)
H25 H -0.3896 -0.1175 0.6148
C29 C -0.4846(2) -0.0285(3) 0.58664(12)
H26 H -0.5160 -0.0713 0.5997
C30 C -0.1652(2) -0.0374(3) 0.56010(12)
H27 H -0.1418 -0.0279 0.5375
C31 C -0.24157(19) -0.0116(3) 0.55193(11)
H28 H -0.2682 0.0145 0.5246
C32 C -0.27841(17) -0.0247(3) 0.58427(10)
C33 C -0.23480(19) -0.0645(3) 0.62397(11)
H29 H -0.2567 -0.0756 0.6471
C34 C -0.1590(2) -0.0875(3) 0.62865(12)
H30 H -0.1308 -0.1141 0.6556
loop_
_geom_bond_atom_site_label_1
_geom_bond_atom_site_label_2
_geom_bond_site_symmetry_1
_geom_bond_site_symmetry_2
Mn1 O1 1_555 1_555
O1 C1 1_555 1_555
O2 Mn1 1_555 1_555
O3 H1 1_555 1_555
O4 C8 1_555 1_555
O5 Mn1 1_555 1_555
O6 H2 1_555 1_555
N1 Mn1 1_555 1_555
N2 C20 1_555 1_555
C1 O2 1_555 1_555
C2 C1 1_555 1_555
C3 C2 1_555 1_555
H3 C3 1_555 1_555
C4 C3 1_555 1_555
H4 C4 1_555 1_555
C5 O3 1_555 1_555
C6 C5 1_555 1_555
H5 C6 1_555 1_555
C7 C2 1_555 1_555
H6 C7 1_555 1_555
C8 O5 1_555 1_555
C9 C8 1_555 1_555
C10 C9 1_555 1_555
H7 C10 1_555 1_555
C11 C10 1_555 1_555
H8 C11 1_555 1_555
C12 O6 1_555 1_555
C13 C12 1_555 1_555
H9 C13 1_555 1_555
C14 C9 1_555 1_555
H10 C14 1_555 1_555
C15 N1 1_555 1_555
H11 C15 1_555 1_555
C16 C15 1_555 1_555
H12 C16 1_555 1_555
C17 C16 1_555 1_555
C18 C17 1_555 1_555
H13 C18 1_555 1_555
C19 N1 1_555 1_555
H14 C19 1_555 1_555
C20 H15 1_555 1_555
C21 C20 1_555 1_555
H16 C21 1_555 1_555
C22 C17 1_555 1_555
C23 C22 1_555 1_555
H17 C23 1_555 1_555
C24 N2 1_555 1_555
H18 C24 1_555 1_555
O7 H19 1_555 1_555
H20 O7 1_555 1_555
O8 H21 1_555 1_555
H22 O8 1_555 1_555
N3 C25 1_555 1_555
N4 C30 1_555 1_555
C25 H23 1_555 1_555
C26 C25 1_555 1_555
H24 C26 1_555 1_555
C27 C26 1_555 1_555
C28 C27 1_555 1_555
H25 C28 1_555 1_555
C29 N3 1_555 1_555
H26 C29 1_555 1_555
C30 H27 1_555 1_555
C31 C30 1_555 1_555
H28 C31 1_555 1_555
C32 C27 1_555 1_555
C33 C32 1_555 1_555
H29 C33 1_555 1_555
C34 N4 1_555 1_555
H30 C34 1_555 1_555
Mn1A O4 1_555 1_555
Mn1_2 N2 1_555 1_555
O4A Mn1 1_555 1_555
N2_2 Mn1 1_555 1_555
C4 C5 1_555 1_555
C6 C7 1_555 1_555
C11 C12 1_555 1_555
C13 C14 1_555 1_555
C18 C19 1_555 1_555
C21 C22 1_555 1_555
C23 C24 1_555 1_555
C28 C29 1_555 1_555
C31 C32 1_555 1_555
C33 C34 1_555 1_555

#END
