
#######################################################################
#
#                 Cambridge Crystallographic Data Centre
#                                CCDC 
#
#######################################################################
#
# If this CIF has been generated from an entry in the Cambridge 
# Structural Database, then it will include bibliographic, chemical, 
# crystal, experimental, refinement or atomic coordinate data resulting 
# from the CCDC's data processing and validation procedures.
#
#######################################################################

data_KURMUG
_symmetry_cell_setting           triclinic
_symmetry_space_group_name_H-M   'P -1'
_symmetry_Int_Tables_number      2
_space_group_name_Hall           '-P 1'
loop_
_symmetry_equiv_pos_site_id
_symmetry_equiv_pos_as_xyz
1 x,y,z
2 -x,-y,-z
_cell_length_a                   8.5196(2)
_cell_length_b                   10.5240(2)
_cell_length_c                   11.0138(3)
_cell_angle_alpha                67.2410(10)
_cell_angle_beta                 79.0410(11)
_cell_angle_gamma                71.7960(10)
_cell_volume                     862.33
loop_
_atom_site_label
_atom_site_type_symbol
_atom_site_fract_x
_atom_site_fract_y
_atom_site_fract_z
Ni1 Ni 0.37381(4) 0.57945(3) 0.55076(3)
S1 S -0.02998(9) 0.75102(9) 0.29878(7)
O1 O 0.2572(2) 0.5904(2) 0.40641(19)
O2 O 0.4743(3) 0.4593(2) 0.3200(2)
O3 O -0.3145(3) 0.5998(2) 0.33626(19)
O4 O -0.5286(2) 0.7322(2) 0.4242(2)
O5 O 0.1675(3) 0.7125(2) 0.6255(2)
N1 N -0.1056(3) 0.8241(3) 0.6247(3)
C1 C 0.3275(4) 0.5360(3) 0.3199(3)
C2 C 0.2315(3) 0.5674(3) 0.2057(3)
C3 C 0.3089(4) 0.5029(3) 0.1132(3)
H1 H 0.4126 0.4380 0.1281
C4 C 0.2369(4) 0.5317(4) 0.0004(3)
H2 H 0.2922 0.4894 -0.0614
C5 C 0.0810(4) 0.6248(3) -0.0189(3)
H3 H 0.0308 0.6456 -0.0948
C6 C -0.0010(4) 0.6872(3) 0.0722(3)
H4 H -0.1072 0.7477 0.0582
C7 C 0.0723(3) 0.6616(3) 0.1858(3)
C8 C -0.2076(4) 0.8749(3) 0.2161(3)
C9 C -0.1898(4) 1.0066(3) 0.1271(3)
H5 H -0.0855 1.0235 0.1077
C10 C -0.3225(5) 1.1122(4) 0.0670(3)
H6 H -0.3077 1.1993 0.0069
C11 C -0.4766(4) 1.0887(3) 0.0962(3)
H7 H -0.5668 1.1595 0.0550
C12 C -0.4984(4) 0.9601(3) 0.1866(3)
H8 H -0.6039 0.9455 0.2069
C13 C -0.3648(3) 0.8520(3) 0.2478(3)
C14 C -0.4029(4) 0.7160(3) 0.3450(3)
C15 C 0.0244(4) 0.7207(3) 0.6097(3)
H9 H 0.0070 0.6507 0.5859
C16 C -0.2706(4) 0.8325(4) 0.5980(4)
H10 H -0.2647 0.7545 0.5709
H11 H -0.3115 0.9213 0.5289
H12 H -0.3440 0.8271 0.6765
C17 C -0.0867(4) 0.9353(4) 0.6631(4)
H13 H 0.0279 0.9356 0.6498
H14 H -0.1239 0.9177 0.7546
H15 H -0.1515 1.0264 0.6103
Ni1A Ni 0.62619(4) 0.42055(3) 0.44924(3)
Ni1A_2 Ni -0.37381(4) 0.42055(3) 0.44924(3)
Ni1_2 Ni -0.62619(4) 0.57945(3) 0.55076(3)
O2A O 0.5257(3) 0.5407(2) 0.6800(2)
O3A O 0.3145(3) 0.4002(2) 0.66374(19)
O4_2 O 0.4714(2) 0.7322(2) 0.4242(2)
loop_
_geom_bond_atom_site_label_1
_geom_bond_atom_site_label_2
_geom_bond_site_symmetry_1
_geom_bond_site_symmetry_2
Ni1 O1 1_555 1_555
S1 C7 1_555 1_555
O1 C1 1_555 1_555
O2 C1 1_555 1_555
O3 C14 1_555 1_555
O4 C14 1_555 1_555
O5 Ni1 1_555 1_555
N1 C15 1_555 1_555
C1 C2 1_555 1_555
C2 C3 1_555 1_555
C3 H1 1_555 1_555
C4 C3 1_555 1_555
H2 C4 1_555 1_555
C5 C4 1_555 1_555
H3 C5 1_555 1_555
C6 C5 1_555 1_555
H4 C6 1_555 1_555
C7 C2 1_555 1_555
C8 S1 1_555 1_555
C9 C8 1_555 1_555
H5 C9 1_555 1_555
C10 C9 1_555 1_555
H6 C10 1_555 1_555
C11 C10 1_555 1_555
H7 C11 1_555 1_555
C12 C11 1_555 1_555
H8 C12 1_555 1_555
C13 C8 1_555 1_555
C14 C13 1_555 1_555
C15 O5 1_555 1_555
H9 C15 1_555 1_555
C16 N1 1_555 1_555
H10 C16 1_555 1_555
H11 C16 1_555 1_555
H12 C16 1_555 1_555
C17 N1 1_555 1_555
H13 C17 1_555 1_555
H14 C17 1_555 1_555
H15 C17 1_555 1_555
Ni1A O2 1_555 1_555
Ni1A_2 O3 1_555 1_555
Ni1_2 O4 1_555 1_555
O2A Ni1 1_555 1_555
O3A Ni1 1_555 1_555
O4_2 Ni1 1_555 1_555
C6 C7 1_555 1_555
C12 C13 1_555 1_555

#END
