
#######################################################################
#
#                 Cambridge Crystallographic Data Centre
#                                CCDC 
#
#######################################################################
#
# If this CIF has been generated from an entry in the Cambridge 
# Structural Database, then it will include bibliographic, chemical, 
# crystal, experimental, refinement or atomic coordinate data resulting 
# from the CCDC's data processing and validation procedures.
#
#######################################################################

data_KURNES
_symmetry_cell_setting           triclinic
_symmetry_space_group_name_H-M   'P -1'
_symmetry_Int_Tables_number      2
_space_group_name_Hall           '-P 1'
loop_
_symmetry_equiv_pos_site_id
_symmetry_equiv_pos_as_xyz
1 x,y,z
2 -x,-y,-z
_cell_length_a                   8.1452(16)
_cell_length_b                   9.6282(19)
_cell_length_c                   11.736(2)
_cell_angle_alpha                105.69(3)
_cell_angle_beta                 98.02(3)
_cell_angle_gamma                111.68(3)
_cell_volume                     793.371
loop_
_atom_site_label
_atom_site_type_symbol
_atom_site_fract_x
_atom_site_fract_y
_atom_site_fract_z
Sr1 Sr 1.0000 1.0000 0.0000
Fe1 Fe 1.53110(4) 1.22869(4) 0.76823(3)
O1 O 1.3100(2) 1.04567(19) 0.65193(14)
O2 O 0.7297(2) 0.44673(19) -0.14731(15)
O3 O 0.5482(2) 0.8478(2) 0.10123(15)
O4 O 1.2881(2) 0.8582(2) 0.22875(15)
O5 O 1.1399(2) 1.0079(2) 0.21988(16)
O6 O 0.6225(3) 0.8977(2) -0.06144(16)
O7 O 0.8093(2) 0.70237(19) -0.04546(17)
N1 N 0.3830(3) 0.3732(2) -0.20190(17)
O8 O 1.1454(2) 0.9051(2) 0.45821(16)
N2 N 1.5520(3) 1.2580(2) 0.59304(17)
C1 C 1.2676(3) 0.9857(3) 0.2677(2)
C2 C 1.4190(3) 1.1348(3) 0.4975(2)
C3 C 1.2782(3) 1.0171(3) 0.5355(2)
C4 C 1.4154(3) 1.1213(3) 0.3770(2)
O9 O 0.8715(3) 1.1438(2) 0.16180(18)
C5 C 0.6935(3) 0.5666(3) -0.1051(2)
C6 C 0.4184(3) 0.6334(3) -0.0895(2)
C7 C 0.4910(3) 0.5274(3) -0.1329(2)
C8 C 0.2291(4) 0.5775(3) -0.1174(2)
H1 H 0.1759 0.6453 -0.0872
C9 C 0.5396(3) 0.8057(3) -0.0129(2)
C10 C 0.1209(4) 0.4211(3) -0.1901(3)
H2 H -0.0061 0.3831 -0.2119
C11 C 1.6822(4) 1.3723(3) 0.5706(2)
H3 H 1.7726 1.4577 0.6364
C12 C 0.2012(3) 0.3215(3) -0.2305(2)
H4 H 0.1273 0.2154 -0.2788
C13 C 1.6864(4) 1.3673(3) 0.4528(3)
H5 H 1.7783 1.4484 0.4392
C14 C 1.5528(4) 1.2407(3) 0.3554(2)
H6 H 1.5547 1.2352 0.2753
H7 H 0.7666 1.0764 0.1578
H8 H 0.9189 1.1872 0.2397
Fe1A Fe 0.46890(4) 0.77131(4) -0.76823(3)
O1A O 0.6900(2) 0.95433(19) -0.65193(14)
O2A O 1.2703(2) 1.55327(19) 0.14731(15)
O3A O 1.4518(2) 1.1522(2) -0.10123(15)
O4A O 0.7119(2) 1.1418(2) -0.22875(15)
O5A O 0.8601(2) 0.9921(2) -0.21988(16)
O6A O 1.3775(3) 1.1023(2) 0.06144(16)
O7A O 1.1907(2) 1.29763(19) 0.04546(17)
N1A N 1.6170(3) 1.6268(2) 0.20190(17)
O8A O 0.8546(2) 1.0949(2) -0.45821(16)
N2A N 0.4480(3) 0.7420(2) -0.59304(17)
C1A C 0.7324(3) 1.0143(3) -0.2677(2)
C2A C 0.5810(3) 0.8652(3) -0.4975(2)
C3A C 0.7218(3) 0.9829(3) -0.5355(2)
C4A C 0.5846(3) 0.8787(3) -0.3770(2)
O9A O 1.1285(3) 0.8562(2) -0.16180(18)
C5A C 1.3065(3) 1.4334(3) 0.1051(2)
C6A C 1.5816(3) 1.3666(3) 0.0895(2)
C7A C 1.5090(3) 1.4726(3) 0.1329(2)
C8A C 1.7709(4) 1.4225(3) 0.1174(2)
H1A H 1.8241 1.3547 0.0872
C9A C 1.4604(3) 1.1943(3) 0.0129(2)
C10A C 1.8791(4) 1.5789(3) 0.1901(3)
H2A H 2.0061 1.6169 0.2119
C11A C 0.3178(4) 0.6277(3) -0.5706(2)
H3A H 0.2274 0.5423 -0.6364
C12A C 1.7988(3) 1.6785(3) 0.2305(2)
H4A H 1.8727 1.7846 0.2788
C13A C 0.3136(4) 0.6327(3) -0.4528(3)
H5A H 0.2217 0.5516 -0.4392
C14A C 0.4472(4) 0.7593(3) -0.3554(2)
H6A H 0.4453 0.7648 -0.2753
H7A H 1.2334 0.9236 -0.1578
H8A H 1.0811 0.8128 -0.2397
Fe1_2 Fe 0.53110(4) 0.22869(4) -0.23177(3)
Fe1_3 Fe 0.53110(4) 1.22869(4) -0.23177(3)
Fe1_4 Fe 1.53110(4) 1.22869(4) -0.23177(3)
Fe1A_2 Fe 0.46890(4) 0.77131(4) 0.23177(3)
Fe1A_3 Fe 1.46890(4) 0.77131(4) 0.23177(3)
Fe1A_4 Fe 1.46890(4) 1.77131(4) 0.23177(3)
O2_2 O 1.7297(2) 1.44673(19) 0.85269(15)
O2A_2 O 0.2703(2) 0.55327(19) -0.85269(15)
O3_2 O 0.5482(2) 0.8478(2) -0.89877(15)
O3A_2 O 1.4518(2) 1.1522(2) 0.89877(15)
O4_2 O 0.2881(2) 0.8582(2) -0.77125(15)
O4A_2 O 1.7119(2) 1.1418(2) 0.77125(15)
N1_2 N 1.3830(3) 1.3732(2) 0.79810(17)
N1A_2 N 0.6170(3) 0.6268(2) -0.79810(17)
O10 O 0.0825(3) 0.2537(3) 0.4079(2)
H9 H 0.0096 0.2178 0.4490
H10 H 0.1150 0.1792 0.3818
loop_
_geom_bond_atom_site_label_1
_geom_bond_atom_site_label_2
_geom_bond_site_symmetry_1
_geom_bond_site_symmetry_2
Sr1 O5 1_555 1_555
Fe1 O1 1_555 1_555
O1 C3 1_555 1_555
O2 C5 1_555 1_555
O3 C9 1_555 1_555
O4 C1 1_555 1_555
O5 C1 1_555 1_555
O6 Sr1 1_555 1_555
O7 Sr1 1_555 1_555
N1 C7 1_555 1_555
O8 C3 1_555 1_555
N2 Fe1 1_555 1_555
C1 C4 1_555 1_555
C2 N2 1_555 1_555
C3 C2 1_555 1_555
C4 C2 1_555 1_555
O9 Sr1 1_555 1_555
C5 O7 1_555 1_555
C6 C7 1_555 1_555
C7 C5 1_555 1_555
C8 C6 1_555 1_555
H1 C8 1_555 1_555
C9 O6 1_555 1_555
C10 C8 1_555 1_555
H2 C10 1_555 1_555
C11 N2 1_555 1_555
H3 C11 1_555 1_555
C12 N1 1_555 1_555
H4 C12 1_555 1_555
C13 C11 1_555 1_555
H5 C13 1_555 1_555
C14 C4 1_555 1_555
H6 C14 1_555 1_555
H7 O9 1_555 1_555
H8 O9 1_555 1_555
O10 H9 1_555 1_555
H10 O10 1_555 1_555
Fe1A O1A 1_555 1_555
O1A C3A 1_555 1_555
O2A C5A 1_555 1_555
O3A C9A 1_555 1_555
O4A C1A 1_555 1_555
O5A Sr1 1_555 1_555
O6A Sr1 1_555 1_555
O7A Sr1 1_555 1_555
N1A C7A 1_555 1_555
O8A C3A 1_555 1_555
N2A Fe1A 1_555 1_555
C1A O5A 1_555 1_555
C2A N2A 1_555 1_555
C3A C2A 1_555 1_555
C4A C1A 1_555 1_555
O9A Sr1 1_555 1_555
C5A O7A 1_555 1_555
C6A C7A 1_555 1_555
C7A C5A 1_555 1_555
C8A C6A 1_555 1_555
H1A C8A 1_555 1_555
C9A O6A 1_555 1_555
C10A C8A 1_555 1_555
H2A C10A 1_555 1_555
C11A N2A 1_555 1_555
H3A C11A 1_555 1_555
C12A N1A 1_555 1_555
H4A C12A 1_555 1_555
C13A C11A 1_555 1_555
H5A C13A 1_555 1_555
C14A C4A 1_555 1_555
H6A C14A 1_555 1_555
H7A O9A 1_555 1_555
H8A O9A 1_555 1_555
Fe1_2 O2 1_555 1_555
Fe1_3 O4A 1_555 1_555
Fe1_4 O3A 1_555 1_555
Fe1A_2 O3 1_555 1_555
Fe1A_3 O4 1_555 1_555
Fe1A_4 O2A 1_555 1_555
O2_2 Fe1 1_555 1_555
O2A_2 Fe1A 1_555 1_555
O3_2 Fe1A 1_555 1_555
O3A_2 Fe1 1_555 1_555
O4_2 Fe1A 1_555 1_555
O4A_2 Fe1 1_555 1_555
N1_2 Fe1 1_555 1_555
N1A_2 Fe1A 1_555 1_555
N1 Fe1_2 1_555 1_555
C6 C9 1_555 1_555
C10 C12 1_555 1_555
C13 C14 1_555 1_555
N1A Fe1A_4 1_555 1_555
C2A C4A 1_555 1_555
C6A C9A 1_555 1_555
C10A C12A 1_555 1_555
C13A C14A 1_555 1_555

#END
