
#######################################################################
#
#                 Cambridge Crystallographic Data Centre
#                                CCDC 
#
#######################################################################
#
# If this CIF has been generated from an entry in the Cambridge 
# Structural Database, then it will include bibliographic, chemical, 
# crystal, experimental, refinement or atomic coordinate data resulting 
# from the CCDC's data processing and validation procedures.
#
#######################################################################

data_KURNOB
_symmetry_cell_setting           monoclinic
_symmetry_space_group_name_H-M   'C 2'
_symmetry_Int_Tables_number      5
_space_group_name_Hall           'C 2y'
loop_
_symmetry_equiv_pos_site_id
_symmetry_equiv_pos_as_xyz
1 x,y,z
2 -x,y,-z
3 1/2+x,1/2+y,z
4 1/2-x,1/2+y,-z
_cell_length_a                   12.8652(16)
_cell_length_b                   8.7884(14)
_cell_length_c                   8.3816(12)
_cell_angle_alpha                90
_cell_angle_beta                 114.1300(10)
_cell_angle_gamma                90
_cell_volume                     864.855
loop_
_atom_site_label
_atom_site_type_symbol
_atom_site_fract_x
_atom_site_fract_y
_atom_site_fract_z
Zn1 Zn 0.23251(3) 0.52758(7) 0.15818(5)
O1 O 0.2031(2) 0.3568(4) 0.2954(4)
O2 O 0.1296(3) 0.1272(4) 0.2844(4)
O3 O 0.2105(2) 0.7016(4) -0.0093(4)
O4 O 0.1403(2) 0.9327(3) -0.1022(4)
O5 O 0.0911(2) 0.4067(3) -0.0441(4)
H1 H 0.0531 0.4421 -0.1579
O6 O 0.0846(2) 0.6635(4) 0.1705(4)
H2 H 0.0438 0.6340 0.2349
O7 O 0.3436(3) 0.6376(5) 0.3781(4)
H3 H 0.3339 0.6097 0.4681
H4 H 0.3352 0.7335 0.3666
C1 C 0.1372(3) 0.2489(5) 0.2135(6)
C2 C 0.0635(4) 0.2672(5) 0.0178(6)
H5 H 0.0786 0.1821 -0.0453
C3 C 0.0619(4) 0.8000(5) 0.0673(6)
H6 H 0.0737 0.8879 0.1447
C4 C 0.1442(3) 0.8113(5) -0.0218(6)
Zn1A Zn -0.23251(3) 0.52758(7) -0.15818(5)
Zn1C Zn 0.26749(3) 1.02758(7) -0.15818(5)
Zn1B Zn -0.26749(3) 1.02758(7) 0.15818(5)
O1A O -0.2031(2) 0.3568(4) -0.2954(4)
O2A O -0.1296(3) 0.1272(4) -0.2844(4)
O3A O -0.2105(2) 0.7016(4) 0.0093(4)
O4A O -0.1403(2) 0.9327(3) 0.1022(4)
O4C O 0.3597(2) 0.4327(3) 0.1022(4)
O4B O -0.3597(2) 0.4327(3) -0.1022(4)
O5A O -0.0911(2) 0.4067(3) 0.0441(4)
H1A H -0.0531 0.4421 0.1579
O6A O -0.0846(2) 0.6635(4) -0.1705(4)
H2A H -0.0438 0.6340 -0.2349
O7A O -0.3436(3) 0.6376(5) -0.3781(4)
H3A H -0.3339 0.6097 -0.4681
H4A H -0.3352 0.7335 -0.3666
C1A C -0.1372(3) 0.2489(5) -0.2135(6)
C2A C -0.0635(4) 0.2672(5) -0.0178(6)
H5A H -0.0786 0.1821 0.0453
C3A C -0.0619(4) 0.8000(5) -0.0673(6)
H6A H -0.0737 0.8879 -0.1447
C4A C -0.1442(3) 0.8113(5) 0.0218(6)
O8 O 0.0611(7) 0.4189(9) 0.6283(8)
H7 H -0.0075 0.3939 0.5660
H8 H 0.0751 0.5059 0.5974
O9 O 0.1034(6) 0.6981(9) 0.4957(8)
H9 H 0.0453 0.7453 0.4937
H10 H 0.1636 0.7473 0.5563
H11? H 0.0955 0.4991 0.5745
H12? H 0.2121 0.5007 0.6784
H13? H 0.0955 0.8838 0.5312
H14? H 0.0299 0.7572 0.4531
O10? O 0.1503(7) 0.4516(9) 0.6526(9)
O11? O 0.0715(6) 0.8274(9) 0.4409(8)
loop_
_geom_bond_atom_site_label_1
_geom_bond_atom_site_label_2
_geom_bond_site_symmetry_1
_geom_bond_site_symmetry_2
Zn1 O1 1_555 1_555
O1 C1 1_555 1_555
O2 C1 1_555 1_555
O3 Zn1 1_555 1_555
O4 C4 1_555 1_555
O5 Zn1 1_555 1_555
H1 O5 1_555 1_555
O6 Zn1 1_555 1_555
H2 O6 1_555 1_555
O7 Zn1 1_555 1_555
H3 O7 1_555 1_555
H4 O7 1_555 1_555
C1 C2 1_555 1_555
C2 O5 1_555 1_555
H5 C2 1_555 1_555
C3 O6 1_555 1_555
H6 C3 1_555 1_555
C4 O3 1_555 1_555
O8 H7 1_555 1_555
H8 O8 1_555 1_555
O9 H9 1_555 1_555
H10 O9 1_555 1_555
Zn1A O1A 1_555 1_555
Zn1C O4 1_555 1_555
Zn1B O4A 1_555 1_555
O1A C1A 1_555 1_555
O2A C1A 1_555 1_555
O3A Zn1A 1_555 1_555
O4A C4A 1_555 1_555
O4C Zn1 1_555 1_555
O4B Zn1A 1_555 1_555
O5A Zn1A 1_555 1_555
H1A O5A 1_555 1_555
O6A Zn1A 1_555 1_555
H2A O6A 1_555 1_555
O7A Zn1A 1_555 1_555
H3A O7A 1_555 1_555
H4A O7A 1_555 1_555
C1A C2A 1_555 1_555
C2A C2 1_555 1_555
H5A C2A 1_555 1_555
C3A C3 1_555 1_555
H6A C3A 1_555 1_555
C4A O3A 1_555 1_555
C3 C4 1_555 1_555
O5A C2A 1_555 1_555
O6A C3A 1_555 1_555
C3A C4A 1_555 1_555

#END
