
#######################################################################
#
#                 Cambridge Crystallographic Data Centre
#                                CCDC 
#
#######################################################################
#
# If this CIF has been generated from an entry in the Cambridge 
# Structural Database, then it will include bibliographic, chemical, 
# crystal, experimental, refinement or atomic coordinate data resulting 
# from the CCDC's data processing and validation procedures.
#
#######################################################################

data_KURPIY
_symmetry_cell_setting           orthorhombic
_symmetry_space_group_name_H-M   'C m c a'
_symmetry_Int_Tables_number      64
_space_group_name_Hall           '-C 2ac 2'
loop_
_symmetry_equiv_pos_site_id
_symmetry_equiv_pos_as_xyz
1 x,y,z
2 -x,1/2-y,1/2+z
3 x,-y,-z
4 -x,1/2+y,1/2-z
5 1/2+x,1/2+y,z
6 1/2-x,-y,1/2+z
7 1/2+x,1/2-y,-z
8 1/2-x,y,1/2-z
9 -x,-y,-z
10 x,1/2+y,1/2-z
11 -x,y,z
12 x,1/2-y,1/2+z
13 1/2-x,1/2-y,-z
14 1/2+x,y,1/2-z
15 1/2-x,1/2+y,z
16 1/2+x,-y,1/2+z
_cell_length_a                   14.191
_cell_length_b                   21.044
_cell_length_c                   15.410
_cell_angle_alpha                90
_cell_angle_beta                 90
_cell_angle_gamma                90
_cell_volume                     4601.97
loop_
_atom_site_label
_atom_site_type_symbol
_atom_site_fract_x
_atom_site_fract_y
_atom_site_fract_z
I1 I 0.0000 0.182359(16) 0.05405(2)
I2 I 0.0000 0.024663(16) 0.25279(2)
Cu1 Cu 0.0000 0.05770(3) 0.08055(4)
Cu2 Cu 0.0000 0.14597(3) 0.21759(5)
N1 N 0.12193(18) 0.02346(11) 0.03448(16)
C1 C 0.2764(3) 0.0000 0.0000
C2 C 0.3396(2) 0.04627(16) -0.0529(2)
H1 H 0.3898 0.0615 -0.0156
H2 H 0.3685 0.0229 -0.1002
C3 C 0.2072(2) 0.03620(14) 0.05501(19)
C4 C 0.1935(3) 0.20898(17) -0.1544(2)
C5 C 0.2731(3) 0.21655(17) -0.1041(3)
H3 H 0.2954 0.2571 -0.0917
C6 C 0.1615(3) 0.14850(18) -0.1743(2)
H4 H 0.1077 0.1432 -0.2079
C7 C 0.2096(3) 0.09640(17) -0.1439(2)
H5 H 0.1895 0.0559 -0.1594
C8 C 0.2881(2) 0.10313(16) -0.0903(2)
C9 C 0.3195(3) 0.16404(17) -0.0720(2)
H6 H 0.3727 0.1696 -0.0375
C10 C 0.2344(2) 0.08213(16) 0.1237(2)
H7 H 0.2538 0.1213 0.0975
H8 H 0.2855 0.0649 0.1572
H9 H 0.1814 0.0898 0.1611
C11 C 0.1450(3) 0.26314(19) -0.1897(3)
N2 N 0.1064(3) 0.30487(17) -0.2199(3)
N1B N 0.12193(18) -0.02346(11) -0.03448(16)
C2B C 0.3396(2) -0.04627(16) 0.0529(2)
H1B H 0.3898 -0.0615 0.0156
H2B H 0.3685 -0.0229 0.1002
C3B C 0.2072(2) -0.03620(14) -0.05501(19)
C4B C 0.1935(3) -0.20898(17) 0.1544(2)
C5B C 0.2731(3) -0.21655(17) 0.1041(3)
H3B H 0.2954 -0.2571 0.0917
C6B C 0.1615(3) -0.14850(18) 0.1743(2)
H4B H 0.1077 -0.1432 0.2079
C7B C 0.2096(3) -0.09640(17) 0.1439(2)
H5B H 0.1895 -0.0559 0.1594
C8B C 0.2881(2) -0.10313(16) 0.0903(2)
C9B C 0.3195(3) -0.16404(17) 0.0720(2)
H6B H 0.3727 -0.1696 0.0375
C10B C 0.2344(2) -0.08213(16) -0.1237(2)
H7B H 0.2538 -0.1213 -0.0975
H8B H 0.2855 -0.0649 -0.1572
H9B H 0.1814 -0.0898 -0.1611
C11B C 0.1450(3) -0.26314(19) 0.1897(3)
N2B N 0.1064(3) -0.30487(17) 0.2199(3)
Cu1B Cu 0.0000 -0.05770(3) -0.08055(4)
Cu2A Cu 0.0000 0.35403(3) -0.28241(5)
Cu2C Cu 0.0000 -0.35403(3) 0.28241(5)
N1J N -0.12193(18) 0.02346(11) 0.03448(16)
N2A N -0.1064(3) 0.19513(17) 0.2801(3)
N2K N 0.1064(3) 0.19513(17) 0.2801(3)
loop_
_geom_bond_atom_site_label_1
_geom_bond_atom_site_label_2
_geom_bond_site_symmetry_1
_geom_bond_site_symmetry_2
I1 Cu1 1_555 1_555
I2 Cu1 1_555 1_555
Cu1 N1 1_555 1_555
Cu2 I1 1_555 1_555
N1 C3 1_555 1_555
C1 C2 1_555 1_555
C2 H1 1_555 1_555
H2 C2 1_555 1_555
C3 C1 1_555 1_555
C4 C5 1_555 1_555
C5 H3 1_555 1_555
C6 C4 1_555 1_555
H4 C6 1_555 1_555
C7 C6 1_555 1_555
H5 C7 1_555 1_555
C8 C2 1_555 1_555
C9 C5 1_555 1_555
H6 C9 1_555 1_555
C10 C3 1_555 1_555
H7 C10 1_555 1_555
H8 C10 1_555 1_555
H9 C10 1_555 1_555
C11 C4 1_555 1_555
N2 C11 1_555 1_555
N1B N1 1_555 1_555
C2B C1 1_555 1_555
H1B C2B 1_555 1_555
H2B C2B 1_555 1_555
C3B C1 1_555 1_555
C4B C5B 1_555 1_555
C5B H3B 1_555 1_555
C6B C4B 1_555 1_555
H4B C6B 1_555 1_555
C7B C6B 1_555 1_555
H5B C7B 1_555 1_555
C8B C2B 1_555 1_555
C9B C5B 1_555 1_555
H6B C9B 1_555 1_555
C10B C3B 1_555 1_555
H7B C10B 1_555 1_555
H8B C10B 1_555 1_555
H9B C10B 1_555 1_555
C11B C4B 1_555 1_555
N2B C11B 1_555 1_555
Cu1B N1B 1_555 1_555
Cu2A N2 1_555 1_555
Cu2C N2B 1_555 1_555
N1J Cu1 1_555 1_555
N2A Cu2 1_555 1_555
N2K Cu2 1_555 1_555
I2 Cu2 1_555 1_555
C7 C8 1_555 1_555
C8 C9 1_555 1_555
N1B C3B 1_555 1_555
C7B C8B 1_555 1_555
C8B C9B 1_555 1_555

#END
