
#######################################################################
#
#                 Cambridge Crystallographic Data Centre
#                                CCDC 
#
#######################################################################
#
# If this CIF has been generated from an entry in the Cambridge 
# Structural Database, then it will include bibliographic, chemical, 
# crystal, experimental, refinement or atomic coordinate data resulting 
# from the CCDC's data processing and validation procedures.
#
#######################################################################

data_KURPOD01
_symmetry_cell_setting           triclinic
_symmetry_space_group_name_H-M   'P -1'
_symmetry_Int_Tables_number      2
_space_group_name_Hall           '-P 1'
loop_
_symmetry_equiv_pos_site_id
_symmetry_equiv_pos_as_xyz
1 x,y,z
2 -x,-y,-z
_cell_length_a                   12.031(2)
_cell_length_b                   13.550(2)
_cell_length_c                   15.653(3)
_cell_angle_alpha                102.611(2)
_cell_angle_beta                 93.213(3)
_cell_angle_gamma                93.556(3)
_cell_volume                     2479.05
loop_
_atom_site_label
_atom_site_type_symbol
_atom_site_fract_x
_atom_site_fract_y
_atom_site_fract_z
Mn1 Mn 0.00690(4) 0.18035(4) 0.04401(3)
Mn2 Mn 0.44246(4) 0.13550(4) 0.60029(3)
S1 S 0.01371(9) 0.00875(11) 0.36608(7)
O1 O -0.0940(2) 0.05448(18) 0.06452(15)
O2 O -0.0797(2) -0.10543(19) 0.07048(15)
O3 O 0.3690(2) 0.00205(18) 0.51459(16)
O4 O 0.3951(2) -0.0885(2) 0.38361(16)
N1 N -0.1242(2) 0.2224(2) -0.04546(17)
N2 N 0.0733(2) 0.3260(2) 0.00596(19)
N3 N -0.0269(3) 0.2710(2) 0.17763(18)
N4 N 0.1537(2) 0.1728(2) 0.13590(18)
N5 N 0.2904(3) 0.2255(2) 0.5820(2)
N6 N 0.4855(3) 0.2418(2) 0.51178(17)
N7 N 0.4777(2) 0.2643(2) 0.72346(17)
N8 N 0.3891(3) 0.0760(2) 0.71656(18)
C1 C -0.2205(3) 0.1664(3) -0.0712(2)
H1 H -0.2455 0.1229 -0.0367
C2 C -0.2843(3) 0.1696(3) -0.1457(3)
H2 H -0.3503 0.1286 -0.1619
C3 C -0.2484(4) 0.2348(3) -0.1957(3)
H3 H -0.2896 0.2383 -0.2469
C4 C -0.1507(3) 0.2953(3) -0.1696(2)
H4 H -0.1263 0.3410 -0.2023
C5 C -0.0893(3) 0.2875(2) -0.0942(2)
C6 C 0.0169(3) 0.3484(2) -0.0628(2)
C7 C 0.0577(4) 0.4253(3) -0.1007(3)
H5 H 0.0188 0.4401 -0.1488
C8 C 0.1569(4) 0.4800(3) -0.0661(3)
H6 H 0.1859 0.5312 -0.0914
C9 C 0.2120(4) 0.4584(3) 0.0050(3)
H7 H 0.2776 0.4959 0.0302
C10 C 0.1685(3) 0.3801(3) 0.0389(3)
H8 H 0.2070 0.3642 0.0867
C11 C -0.1235(3) 0.3114(3) 0.1954(3)
H9 H -0.1758 0.3106 0.1491
C12 C -0.1489(4) 0.3541(3) 0.2791(3)
H10 H -0.2162 0.3833 0.2891
C13 C -0.0738(4) 0.3529(4) 0.3474(3)
H11 H -0.0897 0.3802 0.4048
C14 C 0.0256(4) 0.3107(3) 0.3301(3)
H12 H 0.0775 0.3088 0.3759
C15 C 0.0481(3) 0.2712(3) 0.2443(2)
C16 C 0.1522(3) 0.2233(3) 0.2198(2)
C17 C 0.2446(4) 0.2288(4) 0.2774(3)
H13 H 0.2440 0.2657 0.3349
C18 C 0.3366(4) 0.1802(4) 0.2504(3)
H14 H 0.3985 0.1833 0.2895
C19 C 0.3374(3) 0.1272(3) 0.1661(3)
H15 H 0.3989 0.0927 0.1466
C20 C 0.2449(3) 0.1260(3) 0.1107(3)
H16 H 0.2455 0.0908 0.0526
C21 C -0.0822(3) -0.0139(3) 0.1055(2)
C22 C -0.0775(3) 0.0127(3) 0.2052(2)
H17 H -0.0739 0.0859 0.2250
H18 H -0.1461 -0.0146 0.2239
C23 C 0.0177(4) -0.0256(4) 0.2483(3)
H19 H 0.0871 0.0026 0.2314
H20 H 0.0152 -0.0989 0.2290
C24 C 0.1391(4) -0.0404(4) 0.4040(3)
H21 H 0.1352 -0.0395 0.4659
H22 H 0.1403 -0.1106 0.3732
C25 C 0.2438(4) 0.0137(3) 0.3926(3)
H23 H 0.2417 0.0852 0.4193
H24 H 0.2527 0.0073 0.3305
C26 C 0.3432(3) -0.0279(3) 0.4341(3)
C27 C 0.1953(4) 0.2152(4) 0.6198(3)
H25 H 0.1840 0.1614 0.6472
C28 C 0.1122(4) 0.2821(4) 0.6199(4)
H26 H 0.0466 0.2737 0.6471
C29 C 0.1297(5) 0.3605(4) 0.5790(4)
H27 H 0.0754 0.4063 0.5779
C30 C 0.2263(4) 0.3717(3) 0.5399(3)
H28 H 0.2388 0.4253 0.5124
C31 C 0.3059(3) 0.3027(3) 0.5413(2)
C32 C 0.4114(3) 0.3079(2) 0.4980(2)
C33 C 0.4348(4) 0.3754(3) 0.4449(3)
H29 H 0.3835 0.4212 0.4355
C34 C 0.5353(5) 0.3734(4) 0.4065(3)
H30 H 0.5518 0.4173 0.3701
C35 C 0.6095(4) 0.3075(4) 0.4220(3)
H31 H 0.6779 0.3059 0.3970
C36 C 0.5825(4) 0.2432(3) 0.4752(2)
H32 H 0.6342 0.1985 0.4863
C37 C 0.5167(3) 0.3587(3) 0.7228(2)
H33 H 0.5457 0.3707 0.6719
C38 C 0.5160(4) 0.4381(3) 0.7931(3)
H34 H 0.5437 0.5028 0.7903
C39 C 0.4740(5) 0.4204(3) 0.8675(3)
H35 H 0.4717 0.4734 0.9162
C40 C 0.4348(4) 0.3239(3) 0.8705(3)
H36 H 0.4062 0.3112 0.9214
C41 C 0.4382(3) 0.2461(3) 0.7975(2)
C42 C 0.4041(3) 0.1389(3) 0.7960(2)
C43 C 0.3942(3) 0.1035(3) 0.8722(2)
H37 H 0.4026 0.1482 0.9268
C44 C 0.3718(3) 0.0015(4) 0.8657(3)
H38 H 0.3664 -0.0235 0.9162
C45 C 0.3575(4) -0.0630(3) 0.7853(3)
H39 H 0.3427 -0.1323 0.7800
C46 C 0.3654(4) -0.0225(3) 0.7123(3)
H40 H 0.3537 -0.0661 0.6572
Mn1A Mn -0.00690(4) -0.18035(4) -0.04401(3)
Mn2A Mn 0.55754(4) -0.13550(4) 0.39971(3)
O2A O 0.0797(2) 0.10543(19) -0.07048(15)
O4A O 0.6049(2) 0.0885(2) 0.61639(16)
Cl1 Cl 0.55666(8) 0.29281(7) 0.09892(6)
O5 O 0.4477(2) 0.3230(2) 0.08370(19)
O6 O 0.5608(3) 0.1882(2) 0.0577(2)
O7 O 0.6354(3) 0.3517(3) 0.0626(3)
O8 O 0.5816(3) 0.3050(3) 0.19059(19)
Cl2 Cl 0.81940(9) 0.43089(8) 0.63232(7)
O9 O 0.7917(4) 0.3272(3) 0.6218(3)
O10 O 0.8649(3) 0.4539(3) 0.5568(2)
O11 O 0.9013(3) 0.4605(3) 0.7029(2)
O12 O 0.7260(4) 0.4847(4) 0.6467(3)
loop_
_geom_bond_atom_site_label_1
_geom_bond_atom_site_label_2
_geom_bond_site_symmetry_1
_geom_bond_site_symmetry_2
Mn1 O1 1_555 1_555
Mn2 O3 1_555 1_555
S1 C23 1_555 1_555
O1 C21 1_555 1_555
O2 C21 1_555 1_555
O3 C26 1_555 1_555
O4 C26 1_555 1_555
N1 Mn1 1_555 1_555
N2 Mn1 1_555 1_555
N3 Mn1 1_555 1_555
N4 Mn1 1_555 1_555
N5 Mn2 1_555 1_555
N6 Mn2 1_555 1_555
N7 Mn2 1_555 1_555
N8 Mn2 1_555 1_555
C1 N1 1_555 1_555
H1 C1 1_555 1_555
C2 C1 1_555 1_555
H2 C2 1_555 1_555
C3 C2 1_555 1_555
H3 C3 1_555 1_555
C4 C3 1_555 1_555
H4 C4 1_555 1_555
C5 N1 1_555 1_555
C6 N2 1_555 1_555
C7 C6 1_555 1_555
H5 C7 1_555 1_555
C8 C7 1_555 1_555
H6 C8 1_555 1_555
C9 C8 1_555 1_555
H7 C9 1_555 1_555
C10 N2 1_555 1_555
H8 C10 1_555 1_555
C11 N3 1_555 1_555
H9 C11 1_555 1_555
C12 C11 1_555 1_555
H10 C12 1_555 1_555
C13 C12 1_555 1_555
H11 C13 1_555 1_555
C14 C13 1_555 1_555
H12 C14 1_555 1_555
C15 N3 1_555 1_555
C16 N4 1_555 1_555
C17 C16 1_555 1_555
H13 C17 1_555 1_555
C18 C17 1_555 1_555
H14 C18 1_555 1_555
C19 C18 1_555 1_555
H15 C19 1_555 1_555
C20 N4 1_555 1_555
H16 C20 1_555 1_555
C21 C22 1_555 1_555
C22 H17 1_555 1_555
H18 C22 1_555 1_555
C23 C22 1_555 1_555
H19 C23 1_555 1_555
H20 C23 1_555 1_555
C24 S1 1_555 1_555
H21 C24 1_555 1_555
H22 C24 1_555 1_555
C25 C24 1_555 1_555
H23 C25 1_555 1_555
H24 C25 1_555 1_555
C26 C25 1_555 1_555
C27 N5 1_555 1_555
H25 C27 1_555 1_555
C28 C27 1_555 1_555
H26 C28 1_555 1_555
C29 C28 1_555 1_555
H27 C29 1_555 1_555
C30 C29 1_555 1_555
H28 C30 1_555 1_555
C31 N5 1_555 1_555
C32 N6 1_555 1_555
C33 C32 1_555 1_555
H29 C33 1_555 1_555
C34 C33 1_555 1_555
H30 C34 1_555 1_555
C35 C34 1_555 1_555
H31 C35 1_555 1_555
C36 N6 1_555 1_555
H32 C36 1_555 1_555
C37 N7 1_555 1_555
H33 C37 1_555 1_555
C38 C37 1_555 1_555
H34 C38 1_555 1_555
C39 C38 1_555 1_555
H35 C39 1_555 1_555
C40 C39 1_555 1_555
H36 C40 1_555 1_555
C41 N7 1_555 1_555
C42 N8 1_555 1_555
C43 C42 1_555 1_555
H37 C43 1_555 1_555
C44 C43 1_555 1_555
H38 C44 1_555 1_555
C45 C44 1_555 1_555
H39 C45 1_555 1_555
C46 N8 1_555 1_555
H40 C46 1_555 1_555
Cl1 O5 1_555 1_555
Cl2 O9 1_555 1_555
O6 Cl1 1_555 1_555
O7 Cl1 1_555 1_555
O8 Cl1 1_555 1_555
O10 Cl2 1_555 1_555
O11 Cl2 1_555 1_555
O12 Cl2 1_555 1_555
Mn1A O2 1_555 1_555
Mn2A O4 1_555 1_555
O2A Mn1 1_555 1_555
O4A Mn2 1_555 1_555
C4 C5 1_555 1_555
C5 C6 1_555 1_555
C9 C10 1_555 1_555
C14 C15 1_555 1_555
C15 C16 1_555 1_555
C19 C20 1_555 1_555
C30 C31 1_555 1_555
C31 C32 1_555 1_555
C35 C36 1_555 1_555
C40 C41 1_555 1_555
C41 C42 1_555 1_555
C45 C46 1_555 1_555

#END
