
#######################################################################
#
#                 Cambridge Crystallographic Data Centre
#                                CCDC 
#
#######################################################################
#
# If this CIF has been generated from an entry in the Cambridge 
# Structural Database, then it will include bibliographic, chemical, 
# crystal, experimental, refinement or atomic coordinate data resulting 
# from the CCDC's data processing and validation procedures.
#
#######################################################################

data_KURQEU
_symmetry_cell_setting           monoclinic
_symmetry_space_group_name_H-M   'C 2/c'
_symmetry_Int_Tables_number      15
_space_group_name_Hall           '-C 2yn'
loop_
_symmetry_equiv_pos_site_id
_symmetry_equiv_pos_as_xyz
1 x,y,z
2 -x,y,1/2-z
3 1/2+x,1/2+y,z
4 1/2-x,1/2+y,1/2-z
5 -x,-y,-z
6 x,-y,1/2+z
7 1/2-x,1/2-y,-z
8 1/2+x,1/2-y,1/2+z
_cell_length_a                   32.525(2)
_cell_length_b                   6.4769(5)
_cell_length_c                   7.1419(6)
_cell_angle_alpha                90
_cell_angle_beta                 98.883(3)
_cell_angle_gamma                90
_cell_volume                     1486.48
loop_
_atom_site_label
_atom_site_type_symbol
_atom_site_fract_x
_atom_site_fract_y
_atom_site_fract_z
Cd1 Cd 0.0000 -0.15461(2) 0.2500
Cl1 Cl 0.222718(19) 0.55886(13) 0.63416(9)
O1 O 0.06477(4) -0.0960(2) 0.3902(2)
O2 O 0.02952(4) 0.1741(2) 0.4642(2)
C1 C 0.06390(6) 0.0837(3) 0.4530(2)
C2 C 0.10373(6) 0.1976(3) 0.5081(2)
C3 C 0.10333(6) 0.4005(3) 0.5697(3)
H1 H 0.0782 0.4630 0.5836
C4 C 0.14008(6) 0.5103(3) 0.6107(3)
H2 H 0.1398 0.6468 0.6510
C5 C 0.17716(6) 0.4147(4) 0.5911(3)
C6 C 0.17853(6) 0.2115(4) 0.5343(3)
H3 H 0.2038 0.1485 0.5249
C7 C 0.14156(6) 0.1033(3) 0.4914(3)
H4 H 0.1420 -0.0332 0.4513
O3 O 0.0000 -0.4993(3) 0.2500
H5 H 0.0106 -0.5756 0.3494
Cd1D Cd 0.0000 0.15461(2) 0.7500
Cd1D_2 Cd 0.0000 0.15461(2) -0.2500
Cl1A Cl -0.222718(19) 0.55886(13) -0.13416(9)
O1A O -0.06477(4) -0.0960(2) 0.1098(2)
O2A O -0.02952(4) 0.1741(2) 0.0358(2)
O2D O -0.02952(4) -0.1741(2) 0.5358(2)
O2E O 0.02952(4) -0.1741(2) -0.0358(2)
C1A C -0.06390(6) 0.0837(3) 0.0470(2)
C2A C -0.10373(6) 0.1976(3) -0.0081(2)
C3A C -0.10333(6) 0.4005(3) -0.0697(3)
H1A H -0.0782 0.4630 -0.0836
C4A C -0.14008(6) 0.5103(3) -0.1107(3)
H2A H -0.1398 0.6468 -0.1510
C5A C -0.17716(6) 0.4147(4) -0.0911(3)
C6A C -0.17853(6) 0.2115(4) -0.0343(3)
H3A H -0.2038 0.1485 -0.0249
C7A C -0.14156(6) 0.1033(3) 0.0086(3)
H4A H -0.1420 -0.0332 0.0487
H5A H -0.0106 -0.5756 0.1506
loop_
_geom_bond_atom_site_label_1
_geom_bond_atom_site_label_2
_geom_bond_site_symmetry_1
_geom_bond_site_symmetry_2
Cd1 O1 1_555 1_555
Cl1 C5 1_555 1_555
O1 C1 1_555 1_555
O2 Cd1 1_555 1_555
C1 O2 1_555 1_555
C2 C1 1_555 1_555
C3 C2 1_555 1_555
H1 C3 1_555 1_555
C4 C3 1_555 1_555
H2 C4 1_555 1_555
C5 C4 1_555 1_555
C6 C5 1_555 1_555
H3 C6 1_555 1_555
C7 C2 1_555 1_555
H4 C7 1_555 1_555
O3 Cd1 1_555 1_555
H5 O3 1_555 1_555
Cd1D O2 1_555 1_555
Cd1D_2 O2A 1_555 1_555
Cl1A C5A 1_555 1_555
O1A Cd1 1_555 1_555
O2A Cd1 1_555 1_555
O2D Cd1 1_555 1_555
O2E Cd1 1_555 1_555
C1A O1A 1_555 1_555
C2A C1A 1_555 1_555
C3A C2A 1_555 1_555
H1A C3A 1_555 1_555
C4A C3A 1_555 1_555
H2A C4A 1_555 1_555
C5A C4A 1_555 1_555
C6A C5A 1_555 1_555
H3A C6A 1_555 1_555
C7A C2A 1_555 1_555
H4A C7A 1_555 1_555
H5A O3 1_555 1_555
C6 C7 1_555 1_555
Cd1D O2D 1_555 1_555
Cd1D_2 O2E 1_555 1_555
O2A C1A 1_555 1_555
C6A C7A 1_555 1_555

#END
