
#######################################################################
#
#                 Cambridge Crystallographic Data Centre
#                                CCDC 
#
#######################################################################
#
# If this CIF has been generated from an entry in the Cambridge 
# Structural Database, then it will include bibliographic, chemical, 
# crystal, experimental, refinement or atomic coordinate data resulting 
# from the CCDC's data processing and validation procedures.
#
#######################################################################

data_KURSAT
_symmetry_cell_setting           monoclinic
_symmetry_space_group_name_H-M   'C 2/c'
_symmetry_Int_Tables_number      15
_space_group_name_Hall           '-C 2yn'
loop_
_symmetry_equiv_pos_site_id
_symmetry_equiv_pos_as_xyz
1 x,y,z
2 -x,y,1/2-z
3 1/2+x,1/2+y,z
4 1/2-x,1/2+y,1/2-z
5 -x,-y,-z
6 x,-y,1/2+z
7 1/2-x,1/2-y,-z
8 1/2+x,1/2-y,1/2+z
_cell_length_a                   31.831(6)
_cell_length_b                   7.884(2)
_cell_length_c                   19.449(4)
_cell_angle_alpha                90
_cell_angle_beta                 107.912(7)
_cell_angle_gamma                90
_cell_volume                     4644.26
loop_
_atom_site_label
_atom_site_type_symbol
_atom_site_fract_x
_atom_site_fract_y
_atom_site_fract_z
O7 O 0.5000 0.4457(19) 0.7500
S3 S 0.5179(2) 0.6133(11) 0.7690(4)
C19 C 0.4860(8) 0.730(2) 0.8081(10)
S3A S 0.4821(2) 0.6133(11) 0.7310(4)
C19A C 0.5140(8) 0.730(2) 0.6919(10)
Cd1 Cd 0.71712(2) 0.21919(10) 0.89358(4)
O1 O 0.6847(2) 0.1075(10) 0.7740(3)
O2 O 0.6419(2) 0.2564(10) 0.8209(3)
C1 C 0.6476(3) 0.1654(13) 0.7704(5)
C2 C 0.6092(3) 0.1265(14) 0.7069(5)
C3 C 0.5672(3) 0.1836(14) 0.7027(5)
H1 H 0.5632 0.2482 0.7401
C4 C 0.5317(3) 0.1462(15) 0.6442(5)
H2 H 0.5039 0.1842 0.6432
C5 C 0.5360(3) 0.0543(15) 0.5870(5)
C6 C 0.5783(3) -0.0086(14) 0.5900(5)
H3 H 0.5818 -0.0726 0.5520
C7 C 0.6143(3) 0.0256(14) 0.6498(5)
H4 H 0.6419 -0.0180 0.6525
N1 N 0.4958(3) 0.0280(13) 0.5279(5)
O3 O 0.7085(2) 0.3264(10) 0.9999(4)
O4 O 0.7154(2) 0.3623(10) 1.1148(4)
C8 C 0.6920(3) 0.3546(13) 1.0507(5)
C9 C 0.6441(3) 0.3931(13) 1.0317(5)
C10 C 0.6276(3) 0.4522(14) 1.0863(6)
H5 H 0.6462 0.4667 1.1332
C11 C 0.5824(3) 0.4891(15) 1.0690(6)
H6 H 0.5709 0.5301 1.1044
C12 C 0.5549(3) 0.4645(15) 0.9992(6)
C13 C 0.5714(3) 0.4096(14) 0.9449(6)
H7 H 0.5529 0.3985 0.8977
C14 C 0.6163(3) 0.3711(15) 0.9625(5)
H8 H 0.6275 0.3300 0.9269
N2 N 0.5073(3) 0.4960(12) 0.9743(5)
O5 O 0.7270(2) 0.4950(10) 0.8652(3)
S1 S 0.70412(9) 0.5611(4) 0.78813(14)
C15 C 0.6553(3) 0.6631(16) 0.7914(6)
H9 H 0.6359 0.5812 0.8022
H10 H 0.6409 0.7150 0.7456
H11 H 0.6626 0.7486 0.8284
C16 C 0.7351(3) 0.7404(15) 0.7807(5)
H12 H 0.7367 0.8167 0.8199
H13 H 0.7211 0.7966 0.7356
H14 H 0.7643 0.7061 0.7824
O6 O 0.6925(2) -0.0320(10) 0.9264(4)
S2 S 0.67275(12) -0.0525(5) 0.98609(17)
C17 C 0.6186(4) -0.132(2) 0.9439(8)
H15 H 0.6007 -0.0445 0.9150
H16 H 0.6058 -0.1681 0.9802
H17 H 0.6201 -0.2268 0.9137
C18 C 0.6980(6) -0.2395(19) 1.0311(7)
H18 H 0.6925 -0.3319 0.9973
H19 H 0.6860 -0.2660 1.0693
H20 H 0.7293 -0.2218 1.0509
O1D O 0.3153(2) -0.1075(10) 0.2260(3)
O2D O 0.3581(2) -0.2564(10) 0.1791(3)
C1D C 0.3524(3) -0.1654(13) 0.2296(5)
C2D C 0.3908(3) -0.1265(14) 0.2931(5)
C3D C 0.4328(3) -0.1836(14) 0.2973(5)
H1D H 0.4368 -0.2482 0.2599
C4D C 0.4683(3) -0.1462(15) 0.3558(5)
H2D H 0.4961 -0.1842 0.3568
C5D C 0.4640(3) -0.0543(15) 0.4130(5)
C6D C 0.4217(3) 0.0086(14) 0.4100(5)
H3D H 0.4182 0.0726 0.4480
C7D C 0.3857(3) -0.0256(14) 0.3502(5)
H4D H 0.3581 0.0180 0.3475
N1D N 0.5042(3) -0.0280(13) 0.4721(5)
O3D O 0.2915(2) 0.6736(10) 1.0001(4)
O4D O 0.2846(2) 0.6377(10) 0.8852(4)
C8D C 0.3080(3) 0.6454(13) 0.9493(5)
C9D C 0.3559(3) 0.6069(13) 0.9683(5)
C10D C 0.3724(3) 0.5478(14) 0.9137(6)
H5D H 0.3538 0.5333 0.8668
C11D C 0.4176(3) 0.5109(15) 0.9310(6)
H6D H 0.4291 0.4699 0.8956
C12D C 0.4451(3) 0.5355(15) 1.0008(6)
C13D C 0.4286(3) 0.5904(14) 1.0551(6)
H7D H 0.4471 0.6015 1.1023
C14D C 0.3837(3) 0.6289(15) 1.0375(5)
H8D H 0.3725 0.6700 1.0731
N2D N 0.4927(3) 0.5040(12) 1.0257(5)
Cd1D Cd 0.28288(2) -0.21919(10) 0.10642(4)
O5D O 0.2730(2) -0.4950(10) 0.1348(3)
S1D S 0.29588(9) -0.5611(4) 0.21187(14)
C15D C 0.3447(3) -0.6631(16) 0.2086(6)
H9D H 0.3641 -0.5812 0.1978
H10D H 0.3591 -0.7150 0.2544
H11D H 0.3374 -0.7486 0.1716
C16D C 0.2649(3) -0.7404(15) 0.2193(5)
H12D H 0.2633 -0.8167 0.1801
H13D H 0.2789 -0.7966 0.2644
H14D H 0.2357 -0.7061 0.2176
O6D O 0.3075(2) 0.0320(10) 0.0736(4)
S2D S 0.32725(12) 0.0525(5) 0.01391(17)
C17D C 0.3814(4) 0.132(2) 0.0561(8)
H15D H 0.3993 0.0445 0.0850
H16D H 0.3942 0.1681 0.0198
H17D H 0.3799 0.2268 0.0863
C18D C 0.3020(6) 0.2395(19) -0.0311(7)
H18D H 0.3075 0.3319 0.0027
H19D H 0.3140 0.2660 -0.0693
H20D H 0.2707 0.2218 -0.0509
Cd1B Cd 0.21712(2) 0.71919(10) 0.89358(4)
Cd1D_2 Cd 0.28288(2) 0.78081(10) 1.10642(4)
Cd1F Cd 0.78288(2) 0.28081(10) 1.10642(4)
O3B O 0.2085(2) -0.1736(10) -0.0001(4)
O3D_2 O 0.2915(2) -0.3264(10) 0.0001(4)
O3F O 0.7915(2) 0.1736(10) 1.0001(4)
O4B O 0.2154(2) -0.1377(10) 0.1148(4)
O4F O 0.7846(2) 0.1377(10) 0.8852(4)
loop_
_geom_bond_atom_site_label_1
_geom_bond_atom_site_label_2
_geom_bond_site_symmetry_1
_geom_bond_site_symmetry_2
Cd1 O1 1_555 1_555
O1 C1 1_555 1_555
O2 Cd1 1_555 1_555
C1 O2 1_555 1_555
C2 C1 1_555 1_555
C3 C2 1_555 1_555
H1 C3 1_555 1_555
C4 C3 1_555 1_555
H2 C4 1_555 1_555
C5 C4 1_555 1_555
C6 C5 1_555 1_555
H3 C6 1_555 1_555
C7 C2 1_555 1_555
H4 C7 1_555 1_555
N1 C5 1_555 1_555
O3 Cd1 1_555 1_555
O4 C8 1_555 1_555
C8 O3 1_555 1_555
C9 C8 1_555 1_555
C10 C9 1_555 1_555
H5 C10 1_555 1_555
C11 C10 1_555 1_555
H6 C11 1_555 1_555
C12 C11 1_555 1_555
C13 C12 1_555 1_555
H7 C13 1_555 1_555
C14 C9 1_555 1_555
H8 C14 1_555 1_555
N2 C12 1_555 1_555
O5 Cd1 1_555 1_555
S1 O5 1_555 1_555
C15 S1 1_555 1_555
H9 C15 1_555 1_555
H10 C15 1_555 1_555
H11 C15 1_555 1_555
C16 S1 1_555 1_555
H12 C16 1_555 1_555
H13 C16 1_555 1_555
H14 C16 1_555 1_555
O6 Cd1 1_555 1_555
S2 O6 1_555 1_555
C17 S2 1_555 1_555
H15 C17 1_555 1_555
H16 C17 1_555 1_555
H17 C17 1_555 1_555
C18 S2 1_555 1_555
H18 C18 1_555 1_555
H19 C18 1_555 1_555
H20 C18 1_555 1_555
O7 S3 1_555 1_555
S3 C19 1_555 1_555
C19 S3A 1_555 1_555
O1D C1D 1_555 1_555
O2D C1D 1_555 1_555
C1D C2D 1_555 1_555
C2D C3D 1_555 1_555
C3D H1D 1_555 1_555
C4D C3D 1_555 1_555
H2D C4D 1_555 1_555
C5D C4D 1_555 1_555
C6D C5D 1_555 1_555
H3D C6D 1_555 1_555
C7D C2D 1_555 1_555
H4D C7D 1_555 1_555
N1D N1 1_555 1_555
O3D C8D 1_555 1_555
O4D C8D 1_555 1_555
C8D C9D 1_555 1_555
C9D C10D 1_555 1_555
C10D H5D 1_555 1_555
C11D C10D 1_555 1_555
H6D C11D 1_555 1_555
C12D C11D 1_555 1_555
C13D C12D 1_555 1_555
H7D C13D 1_555 1_555
C14D C9D 1_555 1_555
H8D C14D 1_555 1_555
N2D N2 1_555 1_555
Cd1D O1D 1_555 1_555
O5D Cd1D 1_555 1_555
S1D O5D 1_555 1_555
C15D S1D 1_555 1_555
H9D C15D 1_555 1_555
H10D C15D 1_555 1_555
H11D C15D 1_555 1_555
C16D S1D 1_555 1_555
H12D C16D 1_555 1_555
H13D C16D 1_555 1_555
H14D C16D 1_555 1_555
O6D Cd1D 1_555 1_555
S2D O6D 1_555 1_555
C17D S2D 1_555 1_555
H15D C17D 1_555 1_555
H16D C17D 1_555 1_555
H17D C17D 1_555 1_555
C18D S2D 1_555 1_555
H18D C18D 1_555 1_555
H19D C18D 1_555 1_555
H20D C18D 1_555 1_555
Cd1B O3D 1_555 1_555
Cd1D_2 O3D 1_555 1_555
Cd1F O3 1_555 1_555
O3B Cd1D 1_555 1_555
O3D_2 Cd1D 1_555 1_555
O3F Cd1 1_555 1_555
O4B Cd1D 1_555 1_555
O4F Cd1 1_555 1_555
S3A O7 1_555 1_555
C19A S3 1_555 1_555
C6 C7 1_555 1_555
O4 Cd1F 1_555 1_555
C13 C14 1_555 1_555
O2D Cd1D 1_555 1_555
C5D N1D 1_555 1_555
C6D C7D 1_555 1_555
O4D Cd1B 1_555 1_555
C12D N2D 1_555 1_555
C13D C14D 1_555 1_555
Cd1F O3F 1_555 1_555
S3A C19A 1_555 1_555

#END
