
#######################################################################
#
#                 Cambridge Crystallographic Data Centre
#                                CCDC 
#
#######################################################################
#
# If this CIF has been generated from an entry in the Cambridge 
# Structural Database, then it will include bibliographic, chemical, 
# crystal, experimental, refinement or atomic coordinate data resulting 
# from the CCDC's data processing and validation procedures.
#
#######################################################################

data_KURSIB
_symmetry_cell_setting           triclinic
_symmetry_space_group_name_H-M   'P -1'
_symmetry_Int_Tables_number      2
_space_group_name_Hall           '-P 1'
loop_
_symmetry_equiv_pos_site_id
_symmetry_equiv_pos_as_xyz
1 x,y,z
2 -x,-y,-z
_cell_length_a                   10.7515(7)
_cell_length_b                   10.7424(7)
_cell_length_c                   11.0098(8)
_cell_angle_alpha                95.683(2)
_cell_angle_beta                 96.940(2)
_cell_angle_gamma                96.596(2)
_cell_volume                     1245.68
loop_
_atom_site_label
_atom_site_type_symbol
_atom_site_fract_x
_atom_site_fract_y
_atom_site_fract_z
Cd1 Cd 0.5000 0.5000 0.5000
Cd2 Cd 0.294769(14) 0.286100(14) 0.300824(14)
O1 O 0.64772(14) 0.66367(14) 0.47099(14)
O2 O 0.64652(15) 0.85425(14) 0.56808(14)
C1 C 0.6345(2) 0.7797(2) 0.4706(2)
C2 C 0.6084(2) 0.8298(2) 0.3488(2)
C3 C 0.6301(2) 0.7603(2) 0.2416(2)
H1 H 0.6574 0.6815 0.2452
C4 C 0.6112(3) 0.8083(2) 0.1293(2)
H2 H 0.6307 0.7647 0.0582
C5 C 0.5626(2) 0.9225(2) 0.1244(2)
C6 C 0.5401(3) 0.9925(2) 0.2311(2)
H3 H 0.5083 1.0691 0.2269
C7 C 0.5657(2) 0.9468(2) 0.3432(2)
H4 H 0.5544 0.9945 0.4153
N1 N 0.5427(2) 0.9643(2) 0.00452(19)
O3 O 0.34930(14) 0.54719(14) 0.35811(14)
O4 O 0.16356(15) 0.42587(14) 0.32974(15)
C8 C 0.2308(2) 0.5316(2) 0.3587(2)
C9 C 0.1656(2) 0.6429(2) 0.3943(2)
C10 C 0.2309(2) 0.7644(2) 0.4112(2)
H5 H 0.3158 0.7765 0.4008
C11 C 0.1701(2) 0.8671(2) 0.4435(2)
H6 H 0.2132 0.9483 0.4533
C12 C 0.0432(2) 0.8472(2) 0.4613(2)
C13 C -0.0220(2) 0.7266(2) 0.4461(2)
H7 H -0.1062 0.7141 0.4590
C14 C 0.0392(2) 0.6252(2) 0.4117(2)
H8 H -0.0047 0.5442 0.4000
N2 N -0.0299(2) 0.94608(19) 0.4945(2)
O5 O 0.55697(15) 0.36346(14) 0.35180(14)
O6 O 0.43107(15) 0.32110(16) 0.17250(15)
C15 C 0.5382(2) 0.3549(2) 0.2360(2)
C16 C 0.6487(2) 0.3848(2) 0.1680(2)
C17 C 0.7711(2) 0.3886(3) 0.2261(2)
H9 H 0.7853 0.3708 0.3072
C18 C 0.8725(2) 0.4193(3) 0.1628(3)
H10 H 0.9548 0.4202 0.2006
C19 C 0.8500(3) 0.4487(3) 0.0426(2)
C20 C 0.7282(3) 0.4422(3) -0.0166(3)
H11 H 0.7139 0.4597 -0.0978
C21 C 0.6278(3) 0.4094(3) 0.0461(2)
H12 H 0.5456 0.4037 0.0065
N3 N 0.9479(2) 0.4860(3) -0.0303(2)
O7 O 0.14136(17) 0.14672(17) 0.19529(17)
C22 C 0.1361(3) 0.0308(3) 0.1740(3)
H13 H 0.2186 -0.0144 0.1736
N4 N 0.0277(3) -0.0464(3) 0.1539(3)
C23 C -0.0922(4) 0.0022(5) 0.1664(4)
H14 H -0.0771 0.0921 0.1872
H15 H -0.1308 -0.0358 0.2302
H16 H -0.1474 -0.0177 0.0899
C24 C 0.0251(6) -0.1818(3) 0.1207(4)
H17 H 0.1099 -0.2015 0.1202
H18 H -0.0219 -0.2059 0.0404
H19 H -0.0144 -0.2270 0.1798
O1A O 0.35228(14) 1.33633(14) -0.47099(14)
O2A O 0.35348(15) 1.14575(14) -0.56808(14)
C1A C 0.3655(2) 1.2203(2) -0.4706(2)
C2A C 0.3916(2) 1.1702(2) -0.3488(2)
C3A C 0.3699(2) 1.2397(2) -0.2416(2)
H1A H 0.3426 1.3185 -0.2452
C4A C 0.3888(3) 1.1917(2) -0.1293(2)
H2A H 0.3693 1.2353 -0.0582
C5A C 0.4374(2) 1.0775(2) -0.1244(2)
C6A C 0.4599(3) 1.0075(2) -0.2311(2)
H3A H 0.4917 0.9309 -0.2269
C7A C 0.4343(2) 1.0532(2) -0.3432(2)
H4A H 0.4456 1.0055 -0.4153
N1A N 0.4573(2) 1.0357(2) -0.00452(19)
O3A O -0.34930(14) 1.45281(14) 0.64189(14)
O4A O -0.16356(15) 1.57413(14) 0.67026(15)
C8A C -0.2308(2) 1.4684(2) 0.6413(2)
C9A C -0.1656(2) 1.3571(2) 0.6057(2)
C10A C -0.2309(2) 1.2356(2) 0.5888(2)
H5A H -0.3158 1.2235 0.5992
C11A C -0.1701(2) 1.1329(2) 0.5565(2)
H6A H -0.2132 1.0517 0.5467
C12A C -0.0432(2) 1.1528(2) 0.5387(2)
C13A C 0.0220(2) 1.2734(2) 0.5539(2)
H7A H 0.1062 1.2859 0.5410
C14A C -0.0392(2) 1.3748(2) 0.5883(2)
H8A H 0.0047 1.4558 0.6000
N2A N 0.0299(2) 1.05392(19) 0.5055(2)
O5A O 1.44303(15) 0.63654(14) -0.35180(14)
O6A O 1.56893(15) 0.67890(16) -0.17250(15)
C15A C 1.4618(2) 0.6451(2) -0.2360(2)
C16A C 1.3513(2) 0.6152(2) -0.1680(2)
C17A C 1.2289(2) 0.6114(3) -0.2261(2)
H9A H 1.2147 0.6292 -0.3072
C18A C 1.1275(2) 0.5807(3) -0.1628(3)
H10A H 1.0452 0.5798 -0.2006
C19A C 1.1500(3) 0.5513(3) -0.0426(2)
C20A C 1.2718(3) 0.5578(3) 0.0166(3)
H11A H 1.2861 0.5403 0.0978
C21A C 1.3722(3) 0.5906(3) -0.0461(2)
H12A H 1.4544 0.5963 -0.0065
N3A N 1.0521(2) 0.5140(3) 0.0303(2)
Cd2A Cd -0.294769(14) 1.713900(14) 0.699176(14)
O7A O -0.14136(17) 1.85328(17) 0.80471(17)
C22A C -0.1361(3) 1.9692(3) 0.8260(3)
H13A H -0.2186 2.0144 0.8264
N4A N -0.0277(3) 2.0464(3) 0.8461(3)
C23A C 0.0922(4) 1.9978(5) 0.8336(4)
H14A H 0.0771 1.9079 0.8128
H15A H 0.1308 2.0358 0.7698
H16A H 0.1474 2.0177 0.9101
C24A C -0.0251(6) 2.1818(3) 0.8793(4)
H17A H -0.1099 2.2015 0.8798
H18A H 0.0219 2.2059 0.9596
H19A H 0.0144 2.2270 0.8202
Cd1_2 Cd -0.5000 1.5000 0.5000
Cd1_3 Cd 0.5000 1.5000 -0.5000
Cd1_4 Cd 1.5000 0.5000 -0.5000
Cd2_2 Cd 0.294769(14) 1.286100(14) -0.699176(14)
Cd2A_2 Cd 0.705231(14) 0.713900(14) 0.699176(14)
Cd2A_3 Cd 1.705231(14) 0.713900(14) -0.300824(14)
O1_2 O -0.35228(14) 1.66367(14) 0.47099(14)
O1A_2 O 0.35228(14) 0.33633(14) 0.52901(14)
O2_2 O -0.35348(15) 1.85425(14) 0.56808(14)
O2A_2 O 0.35348(15) 0.14575(14) 0.43192(14)
O3A_2 O 0.65070(14) 0.45281(14) 0.64189(14)
O5A_2 O -0.55697(15) 1.63654(14) 0.64820(14)
O5A_3 O 0.44303(15) 0.63654(14) 0.64820(14)
O6A_2 O -0.43107(15) 1.67890(16) 0.82750(15)
loop_
_geom_bond_atom_site_label_1
_geom_bond_atom_site_label_2
_geom_bond_site_symmetry_1
_geom_bond_site_symmetry_2
Cd1 O1 1_555 1_555
Cd2 O3 1_555 1_555
O1 C1 1_555 1_555
O2 C1 1_555 1_555
C1 C2 1_555 1_555
C2 C3 1_555 1_555
C3 H1 1_555 1_555
C4 C3 1_555 1_555
H2 C4 1_555 1_555
C5 C4 1_555 1_555
C6 C5 1_555 1_555
H3 C6 1_555 1_555
C7 C2 1_555 1_555
H4 C7 1_555 1_555
N1 C5 1_555 1_555
O3 Cd1 1_555 1_555
O4 Cd2 1_555 1_555
C8 O3 1_555 1_555
C9 C8 1_555 1_555
C10 C9 1_555 1_555
H5 C10 1_555 1_555
C11 C10 1_555 1_555
H6 C11 1_555 1_555
C12 C11 1_555 1_555
C13 C12 1_555 1_555
H7 C13 1_555 1_555
C14 C9 1_555 1_555
H8 C14 1_555 1_555
N2 C12 1_555 1_555
O5 Cd1 1_555 1_555
O6 Cd2 1_555 1_555
C15 O5 1_555 1_555
C16 C15 1_555 1_555
C17 C16 1_555 1_555
H9 C17 1_555 1_555
C18 C17 1_555 1_555
H10 C18 1_555 1_555
C19 C18 1_555 1_555
C20 C19 1_555 1_555
H11 C20 1_555 1_555
C21 C16 1_555 1_555
H12 C21 1_555 1_555
N3 C19 1_555 1_555
O7 Cd2 1_555 1_555
C22 O7 1_555 1_555
H13 C22 1_555 1_555
N4 C22 1_555 1_555
C23 N4 1_555 1_555
H14 C23 1_555 1_555
H15 C23 1_555 1_555
H16 C23 1_555 1_555
C24 N4 1_555 1_555
H17 C24 1_555 1_555
H18 C24 1_555 1_555
H19 C24 1_555 1_555
O1A C1A 1_555 1_555
O2A C1A 1_555 1_555
C1A C2A 1_555 1_555
C2A C3A 1_555 1_555
C3A H1A 1_555 1_555
C4A C3A 1_555 1_555
H2A C4A 1_555 1_555
C5A C4A 1_555 1_555
C6A C5A 1_555 1_555
H3A C6A 1_555 1_555
C7A C2A 1_555 1_555
H4A C7A 1_555 1_555
N1A N1 1_555 1_555
O3A C8A 1_555 1_555
O4A C8A 1_555 1_555
C8A C9A 1_555 1_555
C9A C10A 1_555 1_555
C10A H5A 1_555 1_555
C11A C10A 1_555 1_555
H6A C11A 1_555 1_555
C12A C11A 1_555 1_555
C13A C12A 1_555 1_555
H7A C13A 1_555 1_555
C14A C9A 1_555 1_555
H8A C14A 1_555 1_555
N2A N2 1_555 1_555
O5A C15A 1_555 1_555
O6A C15A 1_555 1_555
C15A C16A 1_555 1_555
C16A C17A 1_555 1_555
C17A H9A 1_555 1_555
C18A C17A 1_555 1_555
H10A C18A 1_555 1_555
C19A C18A 1_555 1_555
C20A C19A 1_555 1_555
H11A C20A 1_555 1_555
C21A C16A 1_555 1_555
H12A C21A 1_555 1_555
N3A N3 1_555 1_555
Cd2A O3A 1_555 1_555
O7A Cd2A 1_555 1_555
C22A O7A 1_555 1_555
H13A C22A 1_555 1_555
N4A C22A 1_555 1_555
C23A N4A 1_555 1_555
H14A C23A 1_555 1_555
H15A C23A 1_555 1_555
H16A C23A 1_555 1_555
C24A N4A 1_555 1_555
H17A C24A 1_555 1_555
H18A C24A 1_555 1_555
H19A C24A 1_555 1_555
Cd1_2 O3A 1_555 1_555
Cd1_3 O1A 1_555 1_555
Cd1_4 O5A 1_555 1_555
Cd2_2 O1A 1_555 1_555
Cd2A_2 O1 1_555 1_555
Cd2A_3 O5A 1_555 1_555
O1_2 Cd2A 1_555 1_555
O1A_2 Cd1 1_555 1_555
O2_2 Cd2A 1_555 1_555
O2A_2 Cd2 1_555 1_555
O3A_2 Cd1 1_555 1_555
O5A_2 Cd2A 1_555 1_555
O5A_3 Cd1 1_555 1_555
O6A_2 Cd2A 1_555 1_555
Cd2 O5 1_555 1_555
Cd2 O1A_2 1_555 1_555
O2 Cd2A_2 1_555 1_555
C6 C7 1_555 1_555
O4 C8 1_555 1_555
C13 C14 1_555 1_555
O6 C15 1_555 1_555
C20 C21 1_555 1_555
O2A Cd2_2 1_555 1_555
C5A N1A 1_555 1_555
C6A C7A 1_555 1_555
O4A Cd2A 1_555 1_555
C12A N2A 1_555 1_555
C13A C14A 1_555 1_555
O6A Cd2A_3 1_555 1_555
C19A N3A 1_555 1_555
C20A C21A 1_555 1_555
Cd1_2 O1_2 1_555 1_555
Cd1_2 O5A_2 1_555 1_555
Cd2A_2 O3A_2 1_555 1_555
Cd2A_2 O5A_3 1_555 1_555

#END
