
#######################################################################
#
#                 Cambridge Crystallographic Data Centre
#                                CCDC 
#
#######################################################################
#
# If this CIF has been generated from an entry in the Cambridge 
# Structural Database, then it will include bibliographic, chemical, 
# crystal, experimental, refinement or atomic coordinate data resulting 
# from the CCDC's data processing and validation procedures.
#
#######################################################################

data_KURSUM
_symmetry_cell_setting           monoclinic
_symmetry_space_group_name_H-M   'P 21/c'
_symmetry_Int_Tables_number      14
_space_group_name_Hall           '-P 2ybc'
loop_
_symmetry_equiv_pos_site_id
_symmetry_equiv_pos_as_xyz
1 x,y,z
2 -x,1/2+y,1/2-z
3 -x,-y,-z
4 x,1/2-y,1/2+z
_cell_length_a                   8.7554(14)
_cell_length_b                   15.674(3)
_cell_length_c                   18.455(3)
_cell_angle_alpha                90
_cell_angle_beta                 98.851(3)
_cell_angle_gamma                90
_cell_volume                     2502.46
loop_
_atom_site_label
_atom_site_type_symbol
_atom_site_fract_x
_atom_site_fract_y
_atom_site_fract_z
Cd1 Cd 0.09748(3) 0.490930(16) 0.300044(14)
N1 N -0.1515(4) 0.52080(19) 0.25864(16)
N2 N -0.4062(4) 0.50949(19) 0.25203(17)
H1 H -0.4966 0.4885 0.2581
N3 N 0.0647(4) 0.41909(19) 0.40440(16)
N4 N -0.0190(3) 0.38418(19) 0.50792(15)
H2 H -0.0836 0.3724 0.5387
O1 O 0.1064(3) 0.38258(17) 0.21291(15)
O2 O 0.3259(3) 0.43106(16) 0.27181(14)
O3 O 0.1740(3) 0.89040(16) -0.12261(13)
O4 O 0.1927(3) 0.87718(16) -0.23902(14)
C1 C -0.2210(4) 0.5909(2) 0.2205(2)
C2 C -0.1571(5) 0.6594(3) 0.1866(2)
H3 H -0.0485 0.6645 0.1883
C3 C -0.2570(5) 0.7191(3) 0.1510(2)
H4 H -0.2164 0.7663 0.1278
C4 C -0.4171(5) 0.7116(3) 0.1481(2)
H5 H -0.4822 0.7544 0.1234
C5 C -0.4836(5) 0.6447(3) 0.1799(2)
H6 H -0.5924 0.6396 0.1773
C6 C -0.3813(4) 0.5844(2) 0.2163(2)
C7 C -0.2672(4) 0.4744(2) 0.27599(19)
C8 C -0.2521(5) 0.3929(2) 0.3185(2)
H7 H -0.1653 0.3598 0.3040
H8 H -0.3476 0.3591 0.3045
C9 C -0.2244(4) 0.4032(2) 0.4013(2)
H9 H -0.2728 0.4573 0.4137
H10 H -0.2777 0.3561 0.4230
C10 C -0.0578(4) 0.4038(2) 0.4366(2)
C11 C 0.1930(4) 0.4077(2) 0.46061(19)
C12 C 0.3508(4) 0.4136(2) 0.4588(2)
H11 H 0.3884 0.4293 0.4150
C13 C 0.4501(5) 0.3963(2) 0.5213(2)
H12 H 0.5583 0.3992 0.5209
C14 C 0.3941(5) 0.3740(2) 0.5875(2)
H13 H 0.4658 0.3629 0.6306
C15 C 0.2386(5) 0.3684(2) 0.5901(2)
H14 H 0.2001 0.3537 0.6338
C16 C 0.1396(4) 0.3857(2) 0.5243(2)
C17 C 0.2500(5) 0.3857(2) 0.2217(2)
C18 C 0.3369(5) 0.3376(2) 0.1691(2)
H15 H 0.4488 0.3499 0.1815
H16 H 0.3220 0.2755 0.1749
C19 C 0.2816(5) 0.3627(2) 0.0897(2)
H17 H 0.3410 0.3303 0.0574
H18 H 0.1712 0.3472 0.0764
C20 C 0.3008(5) 0.4576(3) 0.0773(2)
H19 H 0.4098 0.4733 0.0949
H20 H 0.2356 0.4892 0.1075
C21 C 0.2588(5) 0.4865(3) -0.0021(2)
H21 H 0.1521 0.4681 -0.0212
H22 H 0.3293 0.4589 -0.0322
C22 C 0.2704(5) 0.5833(3) -0.0092(2)
H23 H 0.3746 0.6015 0.0142
H24 H 0.1944 0.6100 0.0183
C23 C 0.2422(5) 0.6172(2) -0.0878(2)
H25 H 0.3248 0.5961 -0.1143
H26 H 0.1423 0.5949 -0.1132
C24 C 0.2393(5) 0.7145(2) -0.0905(2)
H27 H 0.1541 0.7353 -0.0656
H28 H 0.3375 0.7366 -0.0631
C25 C 0.2180(5) 0.7498(2) -0.1675(2)
H29 H 0.1273 0.7211 -0.1960
H30 H 0.3096 0.7334 -0.1899
C26 C 0.1956(4) 0.8446(2) -0.1769(2)
Cd1C Cd 0.09748(3) 1.009070(16) -0.199956(14)
O3C O 0.1740(3) 0.60960(16) 0.37739(13)
O4C O 0.1927(3) 0.62282(16) 0.26098(14)
loop_
_geom_bond_atom_site_label_1
_geom_bond_atom_site_label_2
_geom_bond_site_symmetry_1
_geom_bond_site_symmetry_2
Cd1 N1 1_555 1_555
N1 C1 1_555 1_555
N2 H1 1_555 1_555
N3 Cd1 1_555 1_555
N4 H2 1_555 1_555
O1 Cd1 1_555 1_555
O2 Cd1 1_555 1_555
O3 C26 1_555 1_555
O4 C26 1_555 1_555
C1 C2 1_555 1_555
C2 H3 1_555 1_555
C3 C2 1_555 1_555
H4 C3 1_555 1_555
C4 C3 1_555 1_555
H5 C4 1_555 1_555
C5 C4 1_555 1_555
H6 C5 1_555 1_555
C6 N2 1_555 1_555
C7 N1 1_555 1_555
C8 C7 1_555 1_555
H7 C8 1_555 1_555
H8 C8 1_555 1_555
C9 C8 1_555 1_555
H9 C9 1_555 1_555
H10 C9 1_555 1_555
C10 N3 1_555 1_555
C11 N3 1_555 1_555
C12 C11 1_555 1_555
H11 C12 1_555 1_555
C13 C12 1_555 1_555
H12 C13 1_555 1_555
C14 C13 1_555 1_555
H13 C14 1_555 1_555
C15 C14 1_555 1_555
H14 C15 1_555 1_555
C16 N4 1_555 1_555
C17 O1 1_555 1_555
C18 C17 1_555 1_555
H15 C18 1_555 1_555
H16 C18 1_555 1_555
C19 C18 1_555 1_555
H17 C19 1_555 1_555
H18 C19 1_555 1_555
C20 C19 1_555 1_555
H19 C20 1_555 1_555
H20 C20 1_555 1_555
C21 C20 1_555 1_555
H21 C21 1_555 1_555
H22 C21 1_555 1_555
C22 C21 1_555 1_555
H23 C22 1_555 1_555
H24 C22 1_555 1_555
C23 C22 1_555 1_555
H25 C23 1_555 1_555
H26 C23 1_555 1_555
C24 C23 1_555 1_555
H27 C24 1_555 1_555
H28 C24 1_555 1_555
C25 C24 1_555 1_555
H29 C25 1_555 1_555
H30 C25 1_555 1_555
C26 C25 1_555 1_555
Cd1C O3 1_555 1_555
O3C Cd1 1_555 1_555
O4C Cd1 1_555 1_555
N2 C7 1_555 1_555
N4 C10 1_555 1_555
O2 C17 1_555 1_555
O4 Cd1C 1_555 1_555
C1 C6 1_555 1_555
C5 C6 1_555 1_555
C9 C10 1_555 1_555
C11 C16 1_555 1_555
C15 C16 1_555 1_555

#END
