
#######################################################################
#
#                 Cambridge Crystallographic Data Centre
#                                CCDC 
#
#######################################################################
#
# If this CIF has been generated from an entry in the Cambridge 
# Structural Database, then it will include bibliographic, chemical, 
# crystal, experimental, refinement or atomic coordinate data resulting 
# from the CCDC's data processing and validation procedures.
#
#######################################################################

data_KURSAS
_symmetry_cell_setting           triclinic
_symmetry_space_group_name_H-M   'P -1'
_symmetry_Int_Tables_number      2
_space_group_name_Hall           '-P 1'
loop_
_symmetry_equiv_pos_site_id
_symmetry_equiv_pos_as_xyz
1 x,y,z
2 -x,-y,-z
_cell_length_a                   8.5902(3)
_cell_length_b                   9.4932(4)
_cell_length_c                   11.8446(5)
_cell_angle_alpha                69.2330(10)
_cell_angle_beta                 74.6520(10)
_cell_angle_gamma                71.6020(10)
_cell_volume                     844.191
loop_
_atom_site_label
_atom_site_type_symbol
_atom_site_fract_x
_atom_site_fract_y
_atom_site_fract_z
Cu1 Cu 0.5000 0.5000 0.5000
N1 N 0.42188(10) 0.17443(9) 0.37722(7)
N2 N 0.58575(11) 0.11927(10) 0.38325(8)
N3 N 0.62835(11) 0.21526(10) 0.41688(8)
N4 N 0.49368(10) 0.33358(9) 0.43272(7)
N5 N 0.23080(11) 0.34128(10) -0.15509(8)
N6 N 0.19378(16) 0.26607(14) -0.21840(9)
N7 N 0.27560(15) 0.30387(14) -0.32835(9)
N8 N 0.36562(11) 0.40410(10) -0.33836(8)
N9 N 0.05800(10) -0.15980(9) 0.33579(7)
N10 N -0.01294(11) -0.20876(10) 0.45440(8)
N11 N 0.09776(11) -0.32341(11) 0.50942(8)
N12 N 0.24167(11) -0.35052(10) 0.42864(8)
N13 N 0.19387(10) 0.11244(9) 0.17899(7)
C1 C 0.36653(12) 0.30591(11) 0.40781(9)
H1 H 0.2557 0.3687 0.4112
C2 C 0.33577(12) 0.09397(11) 0.33747(9)
H2 H 0.2419 0.0650 0.4026
H3 H 0.4136 -0.0025 0.3230
C3 C 0.27031(12) 0.19884(11) 0.22024(9)
H4 H 0.1870 0.2925 0.2357
H5 H 0.3629 0.2327 0.1562
C4 C 0.66497(12) 0.57377(11) 0.22978(8)
H6 H 0.6203 0.5086 0.2088
C5 C 0.16668(12) 0.31649(11) -0.02381(9)
H7 H 0.9566 0.6538 0.0095
H8 H 0.7946 0.6177 -0.0063
C6 C 0.22876(12) 0.14415(11) 0.04621(9)
H9 H 0.1755 0.0811 0.0243
H10 H 0.3505 0.1111 0.0195
C7 C 0.21343(12) -0.24693(11) 0.32171(9)
H11 H 0.2912 -0.2365 0.2472
C8 C -0.02967(11) -0.02595(11) 0.24720(9)
H12 H -0.1514 -0.0119 0.2749
H13 H -0.0011 -0.0455 0.1665
C9 C 0.01822(12) 0.12133(11) 0.23426(9)
H14 H -0.0525 0.2122 0.1825
H15 H -0.0021 0.1360 0.3161
Cu1_2 Cu 0.5000 0.5000 -0.5000
Cu1_3 Cu 0.5000 -0.5000 0.5000
Cu1_4 Cu 0.5000 1.5000 -0.5000
N1A N 0.57812(10) 0.82557(9) -0.37722(7)
N2A N 0.41425(11) 0.88073(10) -0.38325(8)
N3A N 0.37165(11) 0.78474(10) -0.41688(8)
N4A N 0.50632(10) 0.66642(9) -0.43272(7)
N4A_2 N 0.50632(10) 0.66642(9) 0.56728(7)
N5A N 0.76920(11) 0.65872(10) 0.15509(8)
N6A N 0.80622(16) 0.73393(14) 0.21840(9)
N7A N 0.72440(15) 0.69613(14) 0.32835(9)
N8_2 N 0.36562(11) 0.40410(10) 0.66164(8)
N8A N 0.63438(11) 0.59590(10) 0.33836(8)
N9A N 0.94200(10) 1.15980(9) -0.33579(7)
N10A N 1.01294(11) 1.20876(10) -0.45440(8)
N11A N 0.90224(11) 1.32341(11) -0.50942(8)
N12A N 0.75833(11) 0.35052(10) 0.57136(8)
N12_2 N 0.24167(11) 0.64948(10) 0.42864(8)
N12A_2 N 0.75833(11) 1.35052(10) -0.42864(8)
N13A N 0.80613(10) 0.88756(9) -0.17899(7)
C1A C 0.63347(12) 0.69409(11) -0.40781(9)
H1A H 0.7443 0.6313 -0.4112
C2A C 0.66423(12) 0.90603(11) -0.33747(9)
H2A H 0.7581 0.9350 -0.4026
H3A H 0.5864 1.0025 -0.3230
C3A C 0.72969(12) 0.80116(11) -0.22024(9)
H4A H 0.8130 0.7075 -0.2357
H5A H 0.6371 0.7673 -0.1562
C4A C 0.33503(12) 0.42623(11) -0.22978(8)
H6A H 0.3797 0.4914 -0.2088
C5A C 0.83332(12) 0.68351(11) 0.02381(9)
H7A H 0.0434 0.3462 -0.0095
H8A H 0.2054 0.3823 0.0063
C6A C 0.77124(12) 0.85585(11) -0.04621(9)
H9A H 0.8245 0.9189 -0.0243
H10A H 0.6495 0.8889 -0.0195
C7A C 0.78657(12) 1.24693(11) -0.32171(9)
H11A H 0.7088 1.2365 -0.2472
C8A C 1.02967(11) 1.02595(11) -0.24720(9)
H12A H 1.1514 1.0119 -0.2749
H13A H 1.0011 1.0455 -0.1665
C9A C 0.98178(12) 0.87867(11) -0.23426(9)
H14A H 1.0525 0.7878 -0.1825
H15A H 1.0021 0.8640 -0.3161
Cl1 Cl 0.29526(3) 0.69679(3) 0.01464(2)
O1 O 0.24265(13) 0.56699(11) 0.10773(11)
O2 O 0.35608(12) 0.66142(13) -0.10061(10)
O3 O 0.42605(10) 0.72936(10) 0.04944(8)
O4 O 0.15606(10) 0.83116(9) 0.00141(8)
loop_
_geom_bond_atom_site_label_1
_geom_bond_atom_site_label_2
_geom_bond_site_symmetry_1
_geom_bond_site_symmetry_2
Cu1 N4 1_555 1_555
N1 N2 1_555 1_555
N2 N3 1_555 1_555
N3 N4 1_555 1_555
N4 C1 1_555 1_555
N5 N6 1_555 1_555
N6 N7 1_555 1_555
N7 N8 1_555 1_555
N8 Cu1_2 1_555 1_555
N9 N10 1_555 1_555
N10 N11 1_555 1_555
N11 N12 1_555 1_555
N12 C7 1_555 1_555
N13 C3 1_555 1_555
C1 N1 1_555 1_555
H1 C1 1_555 1_555
C2 N1 1_555 1_555
H2 C2 1_555 1_555
H3 C2 1_555 1_555
C3 C2 1_555 1_555
H4 C3 1_555 1_555
H5 C3 1_555 1_555
C4 H6 1_555 1_555
C5 N5 1_555 1_555
H7 C5A 1_555 1_555
H8 C5A 1_555 1_555
C6 N13 1_555 1_555
H9 C6 1_555 1_555
H10 C6 1_555 1_555
C7 N9 1_555 1_555
H11 C7 1_555 1_555
C8 N9 1_555 1_555
H12 C8 1_555 1_555
H13 C8 1_555 1_555
C9 N13 1_555 1_555
H14 C9 1_555 1_555
H15 C9 1_555 1_555
Cl1 O1 1_555 1_555
O2 Cl1 1_555 1_555
O3 Cl1 1_555 1_555
O4 Cl1 1_555 1_555
Cu1_2 N4A 1_555 1_555
Cu1_3 N12 1_555 1_555
Cu1_4 N12A_2 1_555 1_555
N1A N2A 1_555 1_555
N2A N3A 1_555 1_555
N3A N4A 1_555 1_555
N4A C1A 1_555 1_555
N4A_2 Cu1 1_555 1_555
N5A C4 1_555 1_555
N6A N5A 1_555 1_555
N7A N6A 1_555 1_555
N8_2 Cu1 1_555 1_555
N8A Cu1 1_555 1_555
N9A N10A 1_555 1_555
N10A N11A 1_555 1_555
N11A N12A_2 1_555 1_555
N12A Cu1 1_555 1_555
N12_2 Cu1 1_555 1_555
N12A_2 C7A 1_555 1_555
N13A C3A 1_555 1_555
C1A N1A 1_555 1_555
H1A C1A 1_555 1_555
C2A N1A 1_555 1_555
H2A C2A 1_555 1_555
H3A C2A 1_555 1_555
C3A C2A 1_555 1_555
H4A C3A 1_555 1_555
H5A C3A 1_555 1_555
C4A N5 1_555 1_555
H6A C4A 1_555 1_555
C5A N5A 1_555 1_555
H7A C5 1_555 1_555
H8A C5 1_555 1_555
C6A N13A 1_555 1_555
H9A C6A 1_555 1_555
H10A C6A 1_555 1_555
C7A N9A 1_555 1_555
H11A C7A 1_555 1_555
C8A N9A 1_555 1_555
H12A C8A 1_555 1_555
H13A C8A 1_555 1_555
C9A N13A 1_555 1_555
H14A C9A 1_555 1_555
H15A C9A 1_555 1_555
N8 C4A 1_555 1_555
C4 N8A 1_555 1_555
C5 C6 1_555 1_555
C8 C9 1_555 1_555
N7A N8A 1_555 1_555
C5A C6A 1_555 1_555
C8A C9A 1_555 1_555

#END
