
#######################################################################
#
#                 Cambridge Crystallographic Data Centre
#                                CCDC 
#
#######################################################################
#
# If this CIF has been generated from an entry in the Cambridge 
# Structural Database, then it will include bibliographic, chemical, 
# crystal, experimental, refinement or atomic coordinate data resulting 
# from the CCDC's data processing and validation procedures.
#
#######################################################################

data_KURSEW
_symmetry_cell_setting           triclinic
_symmetry_space_group_name_H-M   'P -1'
_symmetry_Int_Tables_number      2
_space_group_name_Hall           '-P 1'
loop_
_symmetry_equiv_pos_site_id
_symmetry_equiv_pos_as_xyz
1 x,y,z
2 -x,-y,-z
_cell_length_a                   8.530(3)
_cell_length_b                   8.669(3)
_cell_length_c                   11.182(3)
_cell_angle_alpha                84.319(4)
_cell_angle_beta                 86.077(4)
_cell_angle_gamma                63.475(4)
_cell_volume                     735.928
loop_
_atom_site_label
_atom_site_type_symbol
_atom_site_fract_x
_atom_site_fract_y
_atom_site_fract_z
C1 C 1.1372(5) 0.4195(5) 0.9207(3)
C2 C 0.9253(6) 0.4091(5) 1.0618(3)
H1 H 0.8746 0.3450 1.1054
C3 C 1.2850(6) 0.3280(6) 0.8383(4)
H2 H 1.3785 0.2370 0.8829
H3 H 1.3256 0.4077 0.7992
H4 H 1.2475 0.2797 0.7790
C4 C 1.0908(7) 0.2478(7) 0.5122(4)
H5 H 1.1911 0.2641 0.4964
C5 C 1.0843(6) 0.1442(6) 0.6116(4)
C6 C 0.9521(8) 0.3287(7) 0.4349(4)
H6 H 0.9609 0.3976 0.3681
C7 C 0.8036(8) 0.3083(7) 0.4557(4)
H7 H 0.7117 0.3632 0.4029
C8 C 0.7873(6) 0.2052(6) 0.5563(4)
C9 C 0.9281(6) 0.1257(5) 0.6372(3)
C10 C 0.7684(6) -0.0009(6) 0.7554(4)
H8 H 0.7620 -0.0699 0.8229
C11 C 0.6310(6) 0.0691(6) 0.6755(4)
H9 H 0.5354 0.0443 0.6879
C12 C 0.6390(6) 0.1744(7) 0.5792(4)
H10 H 0.5451 0.2268 0.5278
Co1 Co 1.0000 0.0000 1.0000
N1 N 0.9070(4) 0.0284(4) 0.7373(3)
N2 N 1.0584(4) 0.3301(4) 0.9833(3)
O1 O 1.0368(4) -0.0431(4) 0.8181(2)
O2 O 1.1177(4) 0.1644(4) 0.9666(3)
O3 O 0.7397(4) 0.1908(4) 0.9808(3)
H11 H 0.6631 0.2000 1.0353
H12 H 0.7058 0.2760 0.9292
O4 O 1.2287(4) 0.0584(5) 0.6787(3)
H13 H 1.1957 0.0109 0.7386
C1A C 0.8628(5) 0.5805(5) 1.0793(3)
C2A C 1.0747(6) 0.5909(5) 0.9382(3)
H1A H 1.1254 0.6550 0.8946
C3A C 0.7150(6) 0.6720(6) 1.1617(4)
H2A H 0.6215 0.7630 1.1171
H3A H 0.6744 0.5923 1.2008
H4A H 0.7525 0.7203 1.2210
C4A C 0.9092(7) -0.2478(7) 1.4878(4)
H5A H 0.8089 -0.2641 1.5036
C5A C 0.9157(6) -0.1442(6) 1.3884(4)
C6A C 1.0479(8) -0.3287(7) 1.5651(4)
H6A H 1.0391 -0.3976 1.6319
C7A C 1.1964(8) -0.3083(7) 1.5443(4)
H7A H 1.2883 -0.3632 1.5971
C8A C 1.2127(6) -0.2052(6) 1.4437(4)
C9A C 1.0719(6) -0.1257(5) 1.3628(3)
C10A C 1.2316(6) 0.0009(6) 1.2446(4)
H8A H 1.2380 0.0699 1.1771
C11A C 1.3690(6) -0.0691(6) 1.3245(4)
H9A H 1.4646 -0.0443 1.3121
C12A C 1.3610(6) -0.1744(7) 1.4208(4)
H10A H 1.4549 -0.2268 1.4722
Co1_2 Co 1.0000 1.0000 1.0000
N1A N 1.0930(4) -0.0284(4) 1.2627(3)
N2A N 0.9416(4) 0.6699(4) 1.0167(3)
O1A O 0.9632(4) 0.0431(4) 1.1819(2)
O2A O 0.8823(4) 0.8356(4) 1.0334(3)
O2A_2 O 0.8823(4) -0.1644(4) 1.0334(3)
O3A O 1.2603(4) -0.1908(4) 1.0192(3)
H11A H 1.3369 -0.2000 0.9647
H12A H 1.2942 -0.2760 1.0708
O4A O 0.7713(4) -0.0584(5) 1.3213(3)
H13A H 0.8043 -0.0109 1.2614
Cl1 Cl 0.38256(16) 0.38330(16) 0.21191(10)
O5 O 0.4024(10) 0.3329(9) 0.3327(5)
O6 O 0.4894(19) 0.4538(19) 0.1748(10)
O7 O 0.4261(10) 0.2460(8) 0.1370(6)
O8 O 0.2142(12) 0.5000(16) 0.1965(7)
loop_
_geom_bond_atom_site_label_1
_geom_bond_atom_site_label_2
_geom_bond_site_symmetry_1
_geom_bond_site_symmetry_2
C1 C3 1_555 1_555
C2 H1 1_555 1_555
C3 H2 1_555 1_555
H3 C3 1_555 1_555
H4 C3 1_555 1_555
C4 H5 1_555 1_555
C5 C4 1_555 1_555
C6 C4 1_555 1_555
H6 C6 1_555 1_555
C7 C6 1_555 1_555
H7 C7 1_555 1_555
C8 C7 1_555 1_555
C9 C5 1_555 1_555
C10 H8 1_555 1_555
C11 C10 1_555 1_555
H9 C11 1_555 1_555
C12 C8 1_555 1_555
H10 C12 1_555 1_555
Co1 O1 1_555 1_555
N1 C9 1_555 1_555
N2 C1 1_555 1_555
O1 N1 1_555 1_555
O2 Co1 1_555 1_555
O3 Co1 1_555 1_555
H11 O3 1_555 1_555
H12 O3 1_555 1_555
O4 C5 1_555 1_555
H13 O4 1_555 1_555
Cl1 O5 1_555 1_555
O6 Cl1 1_555 1_555
O7 Cl1 1_555 1_555
O8 Cl1 1_555 1_555
C1A C2 1_555 1_555
C2A C1 1_555 1_555
H1A C2A 1_555 1_555
C3A C1A 1_555 1_555
H2A C3A 1_555 1_555
H3A C3A 1_555 1_555
H4A C3A 1_555 1_555
C4A H5A 1_555 1_555
C5A C4A 1_555 1_555
C6A C4A 1_555 1_555
H6A C6A 1_555 1_555
C7A C6A 1_555 1_555
H7A C7A 1_555 1_555
C8A C7A 1_555 1_555
C9A C5A 1_555 1_555
C10A H8A 1_555 1_555
C11A C10A 1_555 1_555
H9A C11A 1_555 1_555
C12A C8A 1_555 1_555
H10A C12A 1_555 1_555
Co1_2 O2A 1_555 1_555
N1A C9A 1_555 1_555
N2A C1A 1_555 1_555
O1A Co1 1_555 1_555
O2A N2A 1_555 1_555
O2A_2 Co1 1_555 1_555
O3A Co1 1_555 1_555
H11A O3A 1_555 1_555
H12A O3A 1_555 1_555
O4A C5A 1_555 1_555
H13A O4A 1_555 1_555
C2 N2 1_555 1_555
C8 C9 1_555 1_555
C10 N1 1_555 1_555
C11 C12 1_555 1_555
N2 O2 1_555 1_555
C2A N2A 1_555 1_555
C8A C9A 1_555 1_555
C10A N1A 1_555 1_555
C11A C12A 1_555 1_555
N1A O1A 1_555 1_555

#END
