
#######################################################################
#
#                 Cambridge Crystallographic Data Centre
#                                CCDC 
#
#######################################################################
#
# If this CIF has been generated from an entry in the Cambridge 
# Structural Database, then it will include bibliographic, chemical, 
# crystal, experimental, refinement or atomic coordinate data resulting 
# from the CCDC's data processing and validation procedures.
#
#######################################################################

data_KURTUN
_symmetry_cell_setting           monoclinic
_symmetry_space_group_name_H-M   'P 21'
_symmetry_Int_Tables_number      4
_space_group_name_Hall           'P 2yb'
loop_
_symmetry_equiv_pos_site_id
_symmetry_equiv_pos_as_xyz
1 x,y,z
2 -x,1/2+y,-z
_cell_length_a                   6.4831(7)
_cell_length_b                   19.265(2)
_cell_length_c                   9.7062(11)
_cell_angle_alpha                90
_cell_angle_beta                 98.848(2)
_cell_angle_gamma                90
_cell_volume                     1197.85
loop_
_atom_site_label
_atom_site_type_symbol
_atom_site_fract_x
_atom_site_fract_y
_atom_site_fract_z
Zn1 Zn 1.01818(5) 0.83531(2) 0.15530(4)
S1 S 0.59561(13) 0.76119(4) -0.03921(8)
N1 N 0.9621(4) 0.84335(19) 0.3638(3)
C1 C 0.7909(5) 0.81484(16) 0.4027(3)
H1 H 0.6967 0.7916 0.3365
C2 C 0.7500(5) 0.81905(15) 0.5399(3)
C3 C 0.8923(5) 0.85448(16) 0.6356(4)
H2 H 0.8676 0.8592 0.7270
C4 C 1.0682(5) 0.88257(18) 0.5975(4)
H3 H 1.1653 0.9056 0.6622
C5 C 1.0987(5) 0.87587(18) 0.4585(4)
H4 H 1.2183 0.8947 0.4315
N2 N 0.5748(4) 0.79042(15) 0.5860(3)
H5 H 0.5445 0.8065 0.6631
C6 C 0.4459(5) 0.73982(18) 0.5225(4)
O1 O 0.4570(4) 0.71652(12) 0.4060(2)
N3 N 0.3052(5) 0.71747(15) 0.6036(3)
H6 H 0.3019 0.7402 0.6796
C7 C 0.1645(5) 0.66159(17) 0.5776(3)
C8 C 0.1858(6) 0.60887(19) 0.4839(4)
H7 H 0.2956 0.6091 0.4325
C9 C 0.0411(6) 0.5561(2) 0.4683(4)
H8 H 0.0552 0.5208 0.4051
C10 C -0.1251(6) 0.55336(19) 0.5430(4)
H9 H -0.2232 0.5179 0.5282
C11 C -0.1405(5) 0.60492(17) 0.6399(3)
C12 C 0.0004(5) 0.65929(17) 0.6551(3)
H10 H -0.0144 0.6948 0.7178
N4 N -0.2982(4) 0.60722(14) 0.7258(3)
H11 H -0.3135 0.6464 0.7656
C13 C -0.4296(5) 0.55496(17) 0.7538(4)
O2 O -0.4347(4) 0.49686(12) 0.7017(2)
N5 N -0.5554(4) 0.57575(15) 0.8485(3)
H12 H -0.5270 0.6156 0.8867
C14 C -0.7245(6) 0.54001(18) 0.8903(4)
C15 C -0.7849(5) 0.47290(18) 0.8489(3)
H13 H -0.7116 0.4495 0.7879
N6 N -0.9455(4) 0.44088(14) 0.8943(3)
C16 C -1.0544(5) 0.47467(19) 0.9809(4)
H14 H -1.1646 0.4523 1.0134
C17 C -1.0052(6) 0.54219(19) 1.0225(4)
H15 H -1.0843 0.5653 1.0803
C18 C -0.8391(5) 0.57487(18) 0.9779(4)
H16 H -0.8039 0.6200 1.0063
O3 O 0.6905(4) 0.80524(12) 0.0790(2)
O4 O 0.7580(4) 0.73351(12) -0.1150(3)
O5 O 0.4479(4) 0.80304(13) -0.1355(2)
O6 O 0.4820(4) 0.70339(12) 0.0130(3)
O7 O 1.0881(4) 0.72757(13) 0.1965(3)
O8 O 1.3440(4) 0.86231(13) 0.2068(3)
O9 O 1.0745(4) 0.81868(13) -0.0455(2)
H17 H 1.194(7) 0.722(2) 0.251(4)
H18 H 1.000(7) 0.704(2) 0.220(4)
H19 H 1.445(6) 0.846(2) 0.170(4)
H20 H 1.386(7) 0.898(2) 0.215(4)
H21 H 1.198(7) 0.8143(19) -0.063(4)
H22 H 0.995(6) 0.786(2) -0.063(4)
Zn1A Zn -1.01818(5) 0.33531(2) 0.84470(4)
N6A N 0.9455(4) 0.94088(14) 0.1057(3)
O10 O 0.7276(5) 0.64800(13) 0.2427(3)
H23 H 0.691(7) 0.667(2) 0.320(5)
H24 H 0.615(7) 0.648(2) 0.163(5)
O11 O 0.6380(5) 0.50133(16) 0.2090(3)
H25 H 0.6448 0.5437 0.2152
C19 C 0.4550(7) 0.4779(2) 0.2561(5)
H26 H 0.4866 0.4655 0.3529
H27 H 0.4017 0.4380 0.2029
H28 H 0.3522 0.5141 0.2446
loop_
_geom_bond_atom_site_label_1
_geom_bond_atom_site_label_2
_geom_bond_site_symmetry_1
_geom_bond_site_symmetry_2
Zn1 N1 1_555 1_555
S1 O3 1_555 1_555
N1 C1 1_555 1_555
C1 H1 1_555 1_555
C2 C1 1_555 1_555
C3 C2 1_555 1_555
H2 C3 1_555 1_555
C4 C3 1_555 1_555
H3 C4 1_555 1_555
C5 N1 1_555 1_555
H4 C5 1_555 1_555
N2 C2 1_555 1_555
H5 N2 1_555 1_555
C6 N2 1_555 1_555
O1 C6 1_555 1_555
N3 C6 1_555 1_555
H6 N3 1_555 1_555
C7 N3 1_555 1_555
C8 C7 1_555 1_555
H7 C8 1_555 1_555
C9 C8 1_555 1_555
H8 C9 1_555 1_555
C10 C9 1_555 1_555
H9 C10 1_555 1_555
C11 C10 1_555 1_555
C12 C7 1_555 1_555
H10 C12 1_555 1_555
N4 C11 1_555 1_555
H11 N4 1_555 1_555
C13 N4 1_555 1_555
O2 C13 1_555 1_555
N5 C13 1_555 1_555
H12 N5 1_555 1_555
C14 N5 1_555 1_555
C15 C14 1_555 1_555
H13 C15 1_555 1_555
N6 C15 1_555 1_555
C16 N6 1_555 1_555
H14 C16 1_555 1_555
C17 C16 1_555 1_555
H15 C17 1_555 1_555
C18 C14 1_555 1_555
H16 C18 1_555 1_555
O3 Zn1 1_555 1_555
O4 S1 1_555 1_555
O5 S1 1_555 1_555
O6 S1 1_555 1_555
O7 Zn1 1_555 1_555
O8 Zn1 1_555 1_555
O9 Zn1 1_555 1_555
H17 O7 1_555 1_555
H18 O7 1_555 1_555
H19 O8 1_555 1_555
H20 O8 1_555 1_555
H21 O9 1_555 1_555
H22 O9 1_555 1_555
O10 H23 1_555 1_555
H24 O10 1_555 1_555
O11 H25 1_555 1_555
C19 O11 1_555 1_555
H26 C19 1_555 1_555
H27 C19 1_555 1_555
H28 C19 1_555 1_555
Zn1A N6 1_555 1_555
N6A Zn1 1_555 1_555
C4 C5 1_555 1_555
C11 C12 1_555 1_555
C17 C18 1_555 1_555

#END
