
#######################################################################
#
#                 Cambridge Crystallographic Data Centre
#                                CCDC 
#
#######################################################################
#
# If this CIF has been generated from an entry in the Cambridge 
# Structural Database, then it will include bibliographic, chemical, 
# crystal, experimental, refinement or atomic coordinate data resulting 
# from the CCDC's data processing and validation procedures.
#
#######################################################################

data_KUSDIN
_symmetry_cell_setting           orthorhombic
_symmetry_space_group_name_H-M   'P b c a'
_symmetry_Int_Tables_number      61
_space_group_name_Hall           '-P 2ac 2ab'
loop_
_symmetry_equiv_pos_site_id
_symmetry_equiv_pos_as_xyz
1 x,y,z
2 1/2-x,-y,1/2+z
3 1/2+x,1/2-y,-z
4 -x,1/2+y,1/2-z
5 -x,-y,-z
6 1/2+x,y,1/2-z
7 1/2-x,1/2+y,z
8 x,1/2-y,1/2+z
_cell_length_a                   11.5539(5)
_cell_length_b                   7.5514(3)
_cell_length_c                   19.2074(12)
_cell_angle_alpha                90
_cell_angle_beta                 90
_cell_angle_gamma                90
_cell_volume                     1675.81
loop_
_atom_site_label
_atom_site_type_symbol
_atom_site_fract_x
_atom_site_fract_y
_atom_site_fract_z
Mn1 Mn 0.20102(3) 0.56779(5) 0.499284(19)
O1 O 0.71330(15) 0.2219(2) 0.55848(10)
O2 O 0.12047(16) 0.3997(2) 0.57759(12)
O3 O 0.36095(15) 0.5445(2) 0.55154(10)
O4 O 0.60006(15) 0.0073(2) 0.59201(10)
O5 O 0.41115(15) 0.2601(2) 0.54410(11)
C1 C 0.4240(2) 0.4136(3) 0.56731(15)
C2 C 0.5800(2) 0.2898(3) 0.65221(14)
C3 C 0.5247(2) 0.4520(3) 0.61611(15)
H1 H 0.498 0.5329 0.6519
H2 H 0.5845 0.5125 0.5898
C4 C 0.4908(2) 0.1950(3) 0.69735(15)
H3 H 0.466 0.2725 0.734
H4 H 0.5249 0.0906 0.7171
H5 H 0.4255 0.1623 0.6693
C5 C 0.6807(2) 0.3516(4) 0.69914(15)
H6 H 0.7387 0.4083 0.6711
H7 H 0.714 0.2512 0.7223
H8 H 0.6521 0.4339 0.7332
C6 C 0.6323(2) 0.1667(3) 0.59685(14)
H9 H 0.119(3) 0.2878(16) 0.571(2)
H10 H 0.0509(13) 0.436(4) 0.583(2)
Mn1B Mn 0.70102(3) -0.06779(5) 0.500716(19)
Mn1D Mn 0.79898(3) 0.43221(5) 0.500716(19)
Mn1F Mn 0.29898(3) 0.06779(5) 0.499284(19)
O1B O 0.21330(15) 0.2781(2) 0.44152(10)
O1D O 0.28670(15) 0.7781(2) 0.44152(10)
O4B O 0.10006(15) 0.4927(2) 0.40799(10)
O5F O 0.08885(15) 0.7601(2) 0.54410(11)
loop_
_geom_bond_atom_site_label_1
_geom_bond_atom_site_label_2
_geom_bond_site_symmetry_1
_geom_bond_site_symmetry_2
Mn1 O2 1_555 1_555
O1 C6 1_555 1_555
O2 H9 1_555 1_555
O3 Mn1 1_555 1_555
O4 C6 1_555 1_555
O5 C1 1_555 1_555
C1 O3 1_555 1_555
C2 C3 1_555 1_555
C3 C1 1_555 1_555
H1 C3 1_555 1_555
H2 C3 1_555 1_555
C4 C2 1_555 1_555
H3 C4 1_555 1_555
H4 C4 1_555 1_555
H5 C4 1_555 1_555
C5 C2 1_555 1_555
H6 C5 1_555 1_555
H7 C5 1_555 1_555
H8 C5 1_555 1_555
C6 C2 1_555 1_555
H10 O2 1_555 1_555
Mn1B O1 1_555 1_555
Mn1D O1 1_555 1_555
Mn1F O5 1_555 1_555
O1B Mn1 1_555 1_555
O1D Mn1 1_555 1_555
O4B Mn1 1_555 1_555
O5F Mn1 1_555 1_555
O4 Mn1B 1_555 1_555
Mn1F O1B 1_555 1_555

#END
