
#######################################################################
#
#                 Cambridge Crystallographic Data Centre
#                                CCDC 
#
#######################################################################
#
# If this CIF has been generated from an entry in the Cambridge 
# Structural Database, then it will include bibliographic, chemical, 
# crystal, experimental, refinement or atomic coordinate data resulting 
# from the CCDC's data processing and validation procedures.
#
#######################################################################

data_KUSDAE01
_symmetry_cell_setting           monoclinic
_symmetry_space_group_name_H-M   'P 21/c'
_symmetry_Int_Tables_number      14
_space_group_name_Hall           '-P 2ybc'
loop_
_symmetry_equiv_pos_site_id
_symmetry_equiv_pos_as_xyz
1 x,y,z
2 -x,1/2+y,1/2-z
3 -x,-y,-z
4 x,1/2-y,1/2+z
_cell_length_a                   16.018(3)
_cell_length_b                   8.884(2)
_cell_length_c                   10.200(2)
_cell_angle_alpha                90
_cell_angle_beta                 95.71(2)
_cell_angle_gamma                90
_cell_volume                     1444.3
loop_
_atom_site_label
_atom_site_type_symbol
_atom_site_fract_x
_atom_site_fract_y
_atom_site_fract_z
U1 U 0.413546(16) 0.54729(3) 0.70306(2)
O1 O 0.4110(4) 0.3750(6) 0.7874(5)
O2 O 0.4182(4) 0.7192(6) 0.6164(5)
O3 O 0.2637(3) 0.5412(7) 0.6569(5)
O4 O 0.3129(3) 0.6574(7) 0.8392(5)
O5 O -0.3949(3) 0.5841(6) 0.4944(5)
O6 O -0.4451(3) 0.5077(7) 0.6778(5)
O7 O -0.0767(3) 0.6724(7) 0.9108(4)
O8 O 0.4911(4) 0.6485(7) 0.9052(5)
H1 H 0.466(4) 0.674(11) 0.971(6)
H2 H 0.540(3) 0.689(10) 0.919(8)
C1 C 0.2506(5) 0.6111(8) 0.7634(7)
C2 C 0.1638(4) 0.6320(9) 0.7977(6)
C3 C 0.0990(5) 0.5437(8) 0.7358(7)
H3 H 0.1109 0.4769 0.6700
C4 C 0.0185(5) 0.5532(8) 0.7700(7)
H4 H -0.0237 0.4926 0.7292
C5 C 0.0015(4) 0.6559(8) 0.8671(6)
C6 C 0.0640(5) 0.7433(9) 0.9307(6)
H5 H 0.0518 0.8095 0.9968
C7 C 0.1454(5) 0.7320(8) 0.8955(7)
H6 H 0.1876 0.7916 0.9375
C8 C -0.1490(5) 0.6341(9) 0.8302(6)
C9 C -0.2123(5) 0.5658(8) 0.8909(7)
H7 H -0.2029 0.5387 0.9792
C10 C -0.2895(5) 0.5371(8) 0.8223(7)
H8 H -0.3321 0.4921 0.8639
C11 C -0.3025(5) 0.5772(7) 0.6885(7)
C12 C -0.2383(5) 0.6430(8) 0.6279(6)
H9 H -0.2470 0.6680 0.5391
C13 C -0.1616(5) 0.6723(9) 0.6968(6)
H10 H -0.1188 0.7168 0.6551
C14 C -0.3863(4) 0.5523(8) 0.6156(7)
U1B U -0.413546(16) 0.45271(3) 0.29694(2)
U1_2 U -0.586454(16) 0.54729(3) 0.70306(2)
O5B O 0.3949(3) 0.4159(6) 0.5056(5)
O6_2 O 0.5549(3) 0.5077(7) 0.6778(5)
loop_
_geom_bond_atom_site_label_1
_geom_bond_atom_site_label_2
_geom_bond_site_symmetry_1
_geom_bond_site_symmetry_2
U1 O1 1_555 1_555
O2 U1 1_555 1_555
O3 U1 1_555 1_555
O4 U1 1_555 1_555
O5 C14 1_555 1_555
O6 C14 1_555 1_555
O7 C5 1_555 1_555
O8 U1 1_555 1_555
H1 O8 1_555 1_555
H2 O8 1_555 1_555
C1 O3 1_555 1_555
C2 C1 1_555 1_555
C3 C2 1_555 1_555
H3 C3 1_555 1_555
C4 C3 1_555 1_555
H4 C4 1_555 1_555
C5 C4 1_555 1_555
C6 C5 1_555 1_555
H5 C6 1_555 1_555
C7 C2 1_555 1_555
H6 C7 1_555 1_555
C8 O7 1_555 1_555
C9 C8 1_555 1_555
H7 C9 1_555 1_555
C10 C9 1_555 1_555
H8 C10 1_555 1_555
C11 C10 1_555 1_555
C12 C11 1_555 1_555
H9 C12 1_555 1_555
C13 C8 1_555 1_555
H10 C13 1_555 1_555
C14 C11 1_555 1_555
U1B O5 1_555 1_555
U1_2 O6 1_555 1_555
O5B U1 1_555 1_555
O6_2 U1 1_555 1_555
O4 C1 1_555 1_555
C6 C7 1_555 1_555
C12 C13 1_555 1_555

#END
