
#######################################################################
#
#                 Cambridge Crystallographic Data Centre
#                                CCDC 
#
#######################################################################
#
# If this CIF has been generated from an entry in the Cambridge 
# Structural Database, then it will include bibliographic, chemical, 
# crystal, experimental, refinement or atomic coordinate data resulting 
# from the CCDC's data processing and validation procedures.
#
#######################################################################

data_KUSREX
_symmetry_cell_setting           monoclinic
_symmetry_space_group_name_H-M   'C 2/c'
_symmetry_Int_Tables_number      15
_space_group_name_Hall           '-C 2yn'
loop_
_symmetry_equiv_pos_site_id
_symmetry_equiv_pos_as_xyz
1 x,y,z
2 -x,y,1/2-z
3 1/2+x,1/2+y,z
4 1/2-x,1/2+y,1/2-z
5 -x,-y,-z
6 x,-y,1/2+z
7 1/2-x,1/2-y,-z
8 1/2+x,1/2-y,1/2+z
_cell_length_a                   21.267(3)
_cell_length_b                   18.250(2)
_cell_length_c                   10.1715(13)
_cell_angle_alpha                90
_cell_angle_beta                 99.716(3)
_cell_angle_gamma                90
_cell_volume                     3891.16
loop_
_atom_site_label
_atom_site_type_symbol
_atom_site_fract_x
_atom_site_fract_y
_atom_site_fract_z
Cu1 Cu 0.21254(2) 0.20483(2) 0.92301(4)
O1 O 0.16547(13) 0.19633(16) 1.0724(3)
O2 O 0.22863(13) 0.27391(16) 1.2010(2)
O3 O 0.16595(14) 0.29520(16) 0.8687(3)
O4 O 0.22960(13) 0.37283(15) 0.9965(3)
N1 N 0.14919(14) 0.13753(18) 0.7813(3)
C1 C 0.1818(2) 0.2319(2) 1.1790(4)
C2 C 0.1437(3) 0.2214(4) 1.2893(5)
C3 C 0.1876(4) 0.1675(6) 1.3919(7)
H1 H 0.1670 0.1580 1.4671
H2 H 0.2282 0.1903 1.4219
H3 H 0.1939 0.1223 1.3478
C4 C 0.0866(2) 0.1761(3) 1.2513(6)
H4 H 0.0553 0.2031 1.1914
H5 H 0.0695 0.1631 1.3296
H6 H 0.0977 0.1324 1.2079
C5 C 0.1378(4) 0.2866(3) 1.3609(9)
H7 H 0.1116 0.3209 1.3045
H8 H 0.1792 0.3075 1.3897
H9 H 0.1183 0.2758 1.4373
C6 C 0.1816(2) 0.3586(3) 0.9119(4)
C7 C 0.1385(3) 0.4219(3) 0.8583(6)
C8 C 0.0872(4) 0.4266(5) 0.9554(9)
H10 H 0.1084 0.4369 1.0444
H11 H 0.0649 0.3808 0.9542
H12 H 0.0573 0.4651 0.9259
C9 C 0.1737(4) 0.4911(3) 0.8625(9)
H13 H 0.2049 0.4880 0.8048
H14 H 0.1946 0.5004 0.9522
H15 H 0.1445 0.5303 0.8334
C10 C 0.1007(3) 0.4055(4) 0.7250(6)
H16 H 0.1286 0.4037 0.6601
H17 H 0.0693 0.4430 0.7010
H18 H 0.0799 0.3590 0.7279
C11 C 0.1667(2) 0.0730(3) 0.7433(4)
H19 H 0.2059 0.0548 0.7845
C12 C 0.1306(2) 0.0300(2) 0.6459(4)
H20 H 0.1457 -0.0152 0.6221
C13 C 0.07204(18) 0.0560(2) 0.5855(3)
C14 C 0.05398(18) 0.1240(3) 0.6255(4)
H21 H 0.0150 0.1438 0.5866
C15 C 0.09306(19) 0.1624(2) 0.7218(4)
H22 H 0.0796 0.2081 0.7467
C16 C 0.02976(17) 0.0128(2) 0.4769(4)
H23 H 0.0184 0.0435 0.3985
H24 H 0.0531 -0.0292 0.4520
N1D N -0.14919(14) -0.13753(18) 0.2187(3)
C11D C -0.1667(2) -0.0730(3) 0.2567(4)
H19D H -0.2059 -0.0548 0.2155
C12D C -0.1306(2) -0.0300(2) 0.3541(4)
H20D H -0.1457 0.0152 0.3779
C13D C -0.07204(18) -0.0560(2) 0.4145(3)
C14D C -0.05398(18) -0.1240(3) 0.3745(4)
H21D H -0.0150 -0.1438 0.4134
C15D C -0.09306(19) -0.1624(2) 0.2782(4)
H22D H -0.0796 -0.2081 0.2533
C16D C -0.02976(17) -0.0128(2) 0.5231(4)
H23D H -0.0184 -0.0435 0.6015
H24D H -0.0531 0.0292 0.5480
Cu1D Cu -0.21254(2) -0.20483(2) 0.07699(4)
O1D O -0.16547(13) -0.19633(16) -0.0724(3)
O2D O -0.22863(13) -0.27391(16) -0.2010(2)
O3D O -0.16595(14) -0.29520(16) 0.1313(3)
O4D O -0.22960(13) -0.37283(15) 0.0035(3)
C1D C -0.1818(2) -0.2319(2) -0.1790(4)
C2D C -0.1437(3) -0.2214(4) -0.2893(5)
C3D C -0.1876(4) -0.1675(6) -0.3919(7)
H1D H -0.1670 -0.1580 -0.4671
H2D H -0.2282 -0.1903 -0.4219
H3D H -0.1939 -0.1223 -0.3478
C4D C -0.0866(2) -0.1761(3) -0.2513(6)
H4D H -0.0553 -0.2031 -0.1914
H5D H -0.0695 -0.1631 -0.3296
H6D H -0.0977 -0.1324 -0.2079
C5D C -0.1378(4) -0.2866(3) -0.3609(9)
H7D H -0.1116 -0.3209 -0.3045
H8D H -0.1792 -0.3075 -0.3897
H9D H -0.1183 -0.2758 -0.4373
C6D C -0.1816(2) -0.3586(3) 0.0881(4)
C7D C -0.1385(3) -0.4219(3) 0.1417(6)
C8D C -0.0872(4) -0.4266(5) 0.0446(9)
H10D H -0.1084 -0.4369 -0.0444
H11D H -0.0649 -0.3808 0.0458
H12D H -0.0573 -0.4651 0.0741
C9D C -0.1737(4) -0.4911(3) 0.1375(9)
H13D H -0.2049 -0.4880 0.1952
H14D H -0.1946 -0.5004 0.0478
H15D H -0.1445 -0.5303 0.1666
C10D C -0.1007(3) -0.4055(4) 0.2750(6)
H16D H -0.1286 -0.4037 0.3399
H17D H -0.0693 -0.4430 0.2990
H18D H -0.0799 -0.3590 0.2721
Cu1B Cu -0.28746(2) -0.29517(2) -0.07699(4)
Cu1F Cu 0.28746(2) 0.29517(2) 1.07699(4)
O2B O -0.27137(13) -0.22609(16) 0.2010(2)
O2F O 0.27137(13) 0.22609(16) 0.7990(2)
O4B O -0.27040(13) -0.12717(15) -0.0035(3)
O4F O 0.27040(13) 0.12717(15) 1.0035(3)
loop_
_geom_bond_atom_site_label_1
_geom_bond_atom_site_label_2
_geom_bond_site_symmetry_1
_geom_bond_site_symmetry_2
Cu1 O1 1_555 1_555
O1 C1 1_555 1_555
O2 C1 1_555 1_555
O3 Cu1 1_555 1_555
O4 C6 1_555 1_555
N1 Cu1 1_555 1_555
C1 C2 1_555 1_555
C2 C3 1_555 1_555
C3 H1 1_555 1_555
H2 C3 1_555 1_555
H3 C3 1_555 1_555
C4 C2 1_555 1_555
H4 C4 1_555 1_555
H5 C4 1_555 1_555
H6 C4 1_555 1_555
C5 C2 1_555 1_555
H7 C5 1_555 1_555
H8 C5 1_555 1_555
H9 C5 1_555 1_555
C6 O3 1_555 1_555
C7 C6 1_555 1_555
C8 C7 1_555 1_555
H10 C8 1_555 1_555
H11 C8 1_555 1_555
H12 C8 1_555 1_555
C9 C7 1_555 1_555
H13 C9 1_555 1_555
H14 C9 1_555 1_555
H15 C9 1_555 1_555
C10 C7 1_555 1_555
H16 C10 1_555 1_555
H17 C10 1_555 1_555
H18 C10 1_555 1_555
C11 N1 1_555 1_555
H19 C11 1_555 1_555
C12 C11 1_555 1_555
H20 C12 1_555 1_555
C13 C12 1_555 1_555
C14 C13 1_555 1_555
H21 C14 1_555 1_555
C15 N1 1_555 1_555
H22 C15 1_555 1_555
C16 C13 1_555 1_555
H23 C16 1_555 1_555
H24 C16 1_555 1_555
N1D C11D 1_555 1_555
C11D H19D 1_555 1_555
C12D C11D 1_555 1_555
H20D C12D 1_555 1_555
C13D C12D 1_555 1_555
C14D C13D 1_555 1_555
H21D C14D 1_555 1_555
C15D N1D 1_555 1_555
H22D C15D 1_555 1_555
C16D C16 1_555 1_555
H23D C16D 1_555 1_555
H24D C16D 1_555 1_555
Cu1D N1D 1_555 1_555
O1D Cu1D 1_555 1_555
O2D C1D 1_555 1_555
O3D Cu1D 1_555 1_555
O4D C6D 1_555 1_555
C1D O1D 1_555 1_555
C2D C1D 1_555 1_555
C3D C2D 1_555 1_555
H1D C3D 1_555 1_555
H2D C3D 1_555 1_555
H3D C3D 1_555 1_555
C4D C2D 1_555 1_555
H4D C4D 1_555 1_555
H5D C4D 1_555 1_555
H6D C4D 1_555 1_555
C5D C2D 1_555 1_555
H7D C5D 1_555 1_555
H8D C5D 1_555 1_555
H9D C5D 1_555 1_555
C6D O3D 1_555 1_555
C7D C6D 1_555 1_555
C8D C7D 1_555 1_555
H10D C8D 1_555 1_555
H11D C8D 1_555 1_555
H12D C8D 1_555 1_555
C9D C7D 1_555 1_555
H13D C9D 1_555 1_555
H14D C9D 1_555 1_555
H15D C9D 1_555 1_555
C10D C7D 1_555 1_555
H16D C10D 1_555 1_555
H17D C10D 1_555 1_555
H18D C10D 1_555 1_555
Cu1B Cu1D 1_555 1_555
Cu1F Cu1 1_555 1_555
O2B Cu1D 1_555 1_555
O2F Cu1 1_555 1_555
O4B Cu1D 1_555 1_555
O4F Cu1 1_555 1_555
O2 Cu1F 1_555 1_555
O4 Cu1F 1_555 1_555
C14 C15 1_555 1_555
C13D C16D 1_555 1_555
C14D C15D 1_555 1_555
O2D Cu1B 1_555 1_555
O4D Cu1B 1_555 1_555

#END
