
#######################################################################
#
#                 Cambridge Crystallographic Data Centre
#                                CCDC 
#
#######################################################################
#
# If this CIF has been generated from an entry in the Cambridge 
# Structural Database, then it will include bibliographic, chemical, 
# crystal, experimental, refinement or atomic coordinate data resulting 
# from the CCDC's data processing and validation procedures.
#
#######################################################################

data_KUTFAI
_symmetry_cell_setting           hexagonal
_symmetry_space_group_name_H-M   'P 63/m'
_symmetry_Int_Tables_number      176
_space_group_name_Hall           '-P 6c'
loop_
_symmetry_equiv_pos_site_id
_symmetry_equiv_pos_as_xyz
1 x,y,z
2 -x,-y,1/2+z
3 -y,x-y,z
4 y,-x+y,1/2+z
5 -x+y,-x,z
6 x-y,x,1/2+z
7 -x,-y,-z
8 x,y,1/2-z
9 y,-x+y,-z
10 -y,x-y,1/2-z
11 x-y,x,-z
12 -x+y,-x,1/2-z
_cell_length_a                   6.8842(12)
_cell_length_b                   6.8842(12)
_cell_length_c                   12.066(3)
_cell_angle_alpha                90
_cell_angle_beta                 90
_cell_angle_gamma                120
_cell_volume                     495.223
loop_
_atom_site_label
_atom_site_type_symbol
_atom_site_fract_x
_atom_site_fract_y
_atom_site_fract_z
Sr1 Sr 0.3333 0.6667 0.03344(3)
F1 F 0.3333 0.6667 0.2500
O1 O 0.3458(4) 0.9415(4) -0.11861(15)
N1 N 0.7862(4) 0.8179(6) 0.12302(19)
Li1 Li 0.0180(13) 0.4544(12) 0.2500
C1 C 0.1749(7) 0.9686(5) -0.1219(2)
O1F O 0.6542(4) 1.0585(4) 0.11861(15)
O1B O 0.0585(4) 0.4043(6) -0.11861(15)
O1D O 0.5957(6) 0.6542(4) -0.11861(15)
O1H O -0.0585(4) 0.5957(6) 0.11861(15)
O1J O 0.4043(6) 0.3458(4) 0.11861(15)
N1D N 0.0317(7) 0.2138(4) 0.12302(19)
N1B N 0.1821(6) 0.9683(7) 0.12302(19)
Li1D Li 0.4364(18) 0.9820(13) 0.2500
Sr1G Sr 0.3333 0.6667 0.46656(3)
Li1B Li 0.5456(12) 0.5636(18) 0.2500
Sr1F Sr 0.6667 1.3333 -0.03344(3)
Li1E Li 0.5636(18) 1.0180(13) -0.2500
C1F C 0.8251(7) 1.0314(5) 0.1219(2)
C1H C 0.9686(5) 0.7937(9) 0.1219(2)
Sr1F_2 Sr -0.3333 0.3333 -0.03344(3)
Li1A Li -0.0180(13) 0.5456(12) -0.2500
Sr1F_3 Sr 0.6667 0.3333 -0.03344(3)
O1C O -0.0585(4) 0.5957(6) 0.38139(15)
N1K N 0.0317(7) 0.2138(4) 0.37698(19)
O1A O 0.6542(4) 1.0585(4) 0.38139(15)
N1I N 0.1821(6) 0.9683(7) 0.37698(19)
N1J N -0.0317(7) 0.7862(4) -0.12302(19)
N1F N 0.2138(4) 1.1821(6) -0.12302(19)
F1A F 0.6667 1.3333 -0.2500
O1B_2 O 1.0585(4) 1.4043(6) -0.11861(15)
O1D_2 O 0.5957(6) 1.6542(4) -0.11861(15)
O1H_2 O 0.9415(4) 1.5957(6) 0.11861(15)
O1J_2 O 0.4043(6) 1.3458(4) 0.11861(15)
N1J_2 N 0.9683(7) 1.7862(4) -0.12302(19)
N1H N 0.8179(6) 1.0317(7) -0.12302(19)
N1D_2 N 1.0317(7) 1.2138(4) 0.12302(19)
O1H_3 O 0.9415(4) 0.5957(6) 0.11861(15)
N1B_2 N 1.1821(6) 0.9683(7) 0.12302(19)
O1D_3 O -0.4043(6) 0.6542(4) -0.11861(15)
C1D C -0.2063(9) 0.8251(7) -0.1219(2)
C1B C 0.0314(5) 1.2063(9) -0.1219(2)
Li1C Li 0.4544(12) 1.4364(18) -0.2500
Sr1_2 Sr 1.3333 1.6667 0.03344(3)
Sr1_3 Sr 0.3333 1.6667 0.03344(3)
Li1_2 Li 1.0180(13) 1.4544(12) 0.2500
C1J C 1.2063(9) 1.1749(7) 0.1219(2)
Sr1_4 Sr 1.3333 0.6667 0.03344(3)
Li1_3 Li 1.0180(13) 0.4544(12) 0.2500
Li1D_2 Li 1.4364(18) 0.9820(13) 0.2500
Sr1_5 Sr -0.6667 0.6667 0.03344(3)
Li1C_2 Li -0.5456(12) 0.4364(18) -0.2500
N1H_2 N -0.1821(6) 1.0317(7) -0.12302(19)
O1B_3 O 0.0585(4) 1.4043(6) -0.11861(15)
O1J_3 O 1.4043(6) 1.3458(4) 0.11861(15)
F1_2 F 1.3333 1.6667 0.2500
N1_2 N 1.7862(4) 1.8179(6) 0.12302(19)
Sr1F_4 Sr -0.3333 1.3333 -0.03344(3)
Li1E_2 Li -0.4364(18) 1.0180(13) -0.2500
Li1A_2 Li -0.0180(13) 1.5456(12) -0.2500
Li1B_2 Li 1.5456(12) 1.5636(18) 0.2500
Sr1F_5 Sr 1.6667 1.3333 -0.03344(3)
O1E O 1.4043(6) 1.3458(4) 0.38139(15)
N1G N 1.7862(4) 1.8179(6) 0.37698(19)
loop_
_geom_bond_atom_site_label_1
_geom_bond_atom_site_label_2
_geom_bond_site_symmetry_1
_geom_bond_site_symmetry_2
Sr1 F1 1_555 1_555
F1 Li1 1_555 1_555
O1 Sr1 1_555 1_555
N1 Sr1 1_555 1_555
Li1 O1H 1_555 1_555
C1 O1 1_555 1_555
O1F Sr1 1_555 1_555
O1B Sr1 1_555 1_555
O1D Sr1 1_555 1_555
O1H Sr1 1_555 1_555
O1J Sr1 1_555 1_555
N1D Sr1 1_555 1_555
N1B Sr1 1_555 1_555
Li1D F1 1_555 1_555
Sr1G F1 1_555 1_555
Li1B F1 1_555 1_555
Sr1F O1 1_555 1_555
Li1E O1 1_555 1_555
C1F N1 1_555 1_555
C1H N1 1_555 1_555
Sr1F_2 O1B 1_555 1_555
Li1A O1B 1_555 1_555
Sr1F_3 O1D 1_555 1_555
O1C Li1 1_555 1_555
N1K Li1 1_555 1_555
O1A Li1D 1_555 1_555
N1I Li1D 1_555 1_555
N1J C1 1_555 1_555
N1F C1 1_555 1_555
F1A Sr1F 1_555 1_555
O1B_2 Sr1F 1_555 1_555
O1D_2 Sr1F 1_555 1_555
O1H_2 Sr1F 1_555 1_555
O1J_2 Sr1F 1_555 1_555
N1J_2 Sr1F 1_555 1_555
N1H Sr1F 1_555 1_555
N1D_2 C1F 1_555 1_555
O1H_3 C1H 1_555 1_555
N1B_2 C1H 1_555 1_555
O1D_3 Sr1F_2 1_555 1_555
C1D N1J 1_555 1_555
C1B N1F 1_555 1_555
Li1C N1F 1_555 1_555
Sr1_2 O1B_2 1_555 1_555
Sr1_3 O1D_2 1_555 1_555
Li1_2 O1H_2 1_555 1_555
C1J N1D_2 1_555 1_555
Sr1_4 O1H_3 1_555 1_555
Li1_3 O1H_3 1_555 1_555
Li1D_2 N1B_2 1_555 1_555
Sr1_5 O1D_3 1_555 1_555
Li1C_2 O1D_3 1_555 1_555
N1H_2 C1D 1_555 1_555
O1B_3 C1B 1_555 1_555
O1J_3 Sr1_2 1_555 1_555
F1_2 Sr1_2 1_555 1_555
N1_2 Sr1_2 1_555 1_555
Sr1F_4 N1H_2 1_555 1_555
Li1E_2 N1H_2 1_555 1_555
Li1A_2 O1B_3 1_555 1_555
Li1B_2 O1J_3 1_555 1_555
Sr1F_5 O1J_3 1_555 1_555
O1E Li1B_2 1_555 1_555
N1G Li1B_2 1_555 1_555
N1 Li1B 1_555 1_555
Li1 N1D 1_555 1_555
O1F Li1D 1_555 1_555
O1F Sr1F 1_555 1_555
O1F C1F 1_555 1_555
O1H Sr1F_2 1_555 1_555
O1J Li1B 1_555 1_555
O1J Sr1F_3 1_555 1_555
N1B Li1D 1_555 1_555
Sr1G O1C 1_555 1_555
Sr1G N1K 1_555 1_555
Sr1G O1A 1_555 1_555
Sr1G N1I 1_555 1_555
Sr1F N1F 1_555 1_555
Li1E F1A 1_555 1_555
Li1E N1H 1_555 1_555
Sr1F_2 N1J 1_555 1_555
Li1A N1J 1_555 1_555
Sr1F_3 O1H_3 1_555 1_555
F1A Li1C 1_555 1_555
O1D_2 Li1C 1_555 1_555
O1H_2 Sr1_2 1_555 1_555
O1J_2 Sr1_3 1_555 1_555
N1D_2 Sr1_2 1_555 1_555
N1D_2 Li1_2 1_555 1_555
N1B_2 C1J 1_555 1_555
N1B_2 Sr1_4 1_555 1_555
O1D_3 C1D 1_555 1_555
C1B N1H_2 1_555 1_555
Sr1_3 O1B_3 1_555 1_555
Li1_2 F1_2 1_555 1_555
C1J O1J_3 1_555 1_555
O1B_3 Sr1F_4 1_555 1_555
F1_2 Li1B_2 1_555 1_555
N1_2 Li1B_2 1_555 1_555

#END
