
#######################################################################
#
#                 Cambridge Crystallographic Data Centre
#                                CCDC 
#
#######################################################################
#
# If this CIF has been generated from an entry in the Cambridge 
# Structural Database, then it will include bibliographic, chemical, 
# crystal, experimental, refinement or atomic coordinate data resulting 
# from the CCDC's data processing and validation procedures.
#
#######################################################################

data_KUTJOA
_symmetry_cell_setting           monoclinic
_symmetry_space_group_name_H-M   'P 21/c'
_symmetry_Int_Tables_number      14
_space_group_name_Hall           '-P 2ybc'
loop_
_symmetry_equiv_pos_site_id
_symmetry_equiv_pos_as_xyz
1 x,y,z
2 -x,1/2+y,1/2-z
3 -x,-y,-z
4 x,1/2-y,1/2+z
_cell_length_a                   7.4469(15)
_cell_length_b                   15.272(3)
_cell_length_c                   9.1109(18)
_cell_angle_alpha                90
_cell_angle_beta                 109.39(3)
_cell_angle_gamma                90
_cell_volume                     977.403
loop_
_atom_site_label
_atom_site_type_symbol
_atom_site_fract_x
_atom_site_fract_y
_atom_site_fract_z
Br1 Br 0.06827(6) 0.77356(2) 0.29834(5)
C1 C 0.2636(5) 0.7285(2) 0.4712(4)
C2 C 0.4045(5) 0.7839(2) 0.5586(4)
H1 H 0.4070 0.8423 0.5310
C3 C 0.5406(5) 0.7507(3) 0.6871(5)
H2 H 0.6356 0.7867 0.7505
C4 C 0.5350(5) 0.6631(2) 0.7212(4)
H3 H 0.6268 0.6392 0.8079
C5 C 0.3933(5) 0.6112(2) 0.6268(4)
H4 H 0.3920 0.5520 0.6498
Cl1 Cl -0.14783(12) 0.58837(5) 0.49804(9)
Cl2 Cl 0.24061(12) 0.54377(6) 0.20976(9)
Cl3 Cl -0.19805(12) 0.53151(7) 0.13411(9)
Cu1 Cu 0.05034(6) 0.56824(3) 0.36107(4)
Cu2 Cu 0.0000 0.5000 0.0000
N1 N 0.2556(4) 0.64345(17) 0.5016(3)
Br1B Br -0.06827(6) 0.22644(2) -0.29834(5)
C1B C -0.2636(5) 0.2715(2) -0.4712(4)
C2B C -0.4045(5) 0.2161(2) -0.5586(4)
H1B H -0.4070 0.1577 -0.5310
C3B C -0.5406(5) 0.2493(3) -0.6871(5)
H2B H -0.6356 0.2133 -0.7505
C4B C -0.5350(5) 0.3369(2) -0.7212(4)
H3B H -0.6268 0.3608 -0.8079
C5B C -0.3933(5) 0.3888(2) -0.6268(4)
H4B H -0.3920 0.4480 -0.6498
Cl1B Cl 0.14783(12) 0.41163(5) -0.49804(9)
Cl2B Cl -0.24061(12) 0.45623(6) -0.20976(9)
Cl3B Cl 0.19805(12) 0.46849(7) -0.13411(9)
Cu1B Cu -0.05034(6) 0.43176(3) -0.36107(4)
N1B N -0.2556(4) 0.35655(17) -0.5016(3)
Cl1_2 Cl -0.14783(12) 0.58837(5) -0.50196(9)
Cl1B_2 Cl 0.14783(12) 0.41163(5) 0.50196(9)
Cu1_2 Cu 0.05034(6) 0.56824(3) -0.63893(4)
Cu1B_2 Cu -0.05034(6) 0.43176(3) 0.63893(4)
loop_
_geom_bond_atom_site_label_1
_geom_bond_atom_site_label_2
_geom_bond_site_symmetry_1
_geom_bond_site_symmetry_2
Br1 C1 1_555 1_555
C1 C2 1_555 1_555
C2 H1 1_555 1_555
C3 C2 1_555 1_555
H2 C3 1_555 1_555
C4 C3 1_555 1_555
H3 C4 1_555 1_555
C5 C4 1_555 1_555
H4 C5 1_555 1_555
Cl1 Cu1 1_555 1_555
Cl2 Cu1 1_555 1_555
Cl3 Cu1 1_555 1_555
Cu1 N1 1_555 1_555
Cu2 Cl2 1_555 1_555
N1 C1 1_555 1_555
Br1B C1B 1_555 1_555
C1B C2B 1_555 1_555
C2B H1B 1_555 1_555
C3B C2B 1_555 1_555
H2B C3B 1_555 1_555
C4B C3B 1_555 1_555
H3B C4B 1_555 1_555
C5B C4B 1_555 1_555
H4B C5B 1_555 1_555
Cl1B Cu1B 1_555 1_555
Cl2B Cu2 1_555 1_555
Cl3B Cu2 1_555 1_555
Cu1B Cl2B 1_555 1_555
N1B C1B 1_555 1_555
Cl1_2 Cu1B 1_555 1_555
Cl1B_2 Cu1 1_555 1_555
Cu1_2 Cl1B 1_555 1_555
Cu1B_2 Cl1 1_555 1_555
C5 N1 1_555 1_555
Cl3 Cu2 1_555 1_555
C5B N1B 1_555 1_555
Cl3B Cu1B 1_555 1_555
Cu1B N1B 1_555 1_555
Cl1_2 Cu1_2 1_555 1_555
Cl1B_2 Cu1B_2 1_555 1_555

#END
