
#######################################################################
#
#                 Cambridge Crystallographic Data Centre
#                                CCDC 
#
#######################################################################
#
# If this CIF has been generated from an entry in the Cambridge 
# Structural Database, then it will include bibliographic, chemical, 
# crystal, experimental, refinement or atomic coordinate data resulting 
# from the CCDC's data processing and validation procedures.
#
#######################################################################

data_KUTKIV
_symmetry_cell_setting           monoclinic
_symmetry_space_group_name_H-M   'P 21/c'
_symmetry_Int_Tables_number      14
_space_group_name_Hall           '-P 2ybc'
loop_
_symmetry_equiv_pos_site_id
_symmetry_equiv_pos_as_xyz
1 x,y,z
2 -x,1/2+y,1/2-z
3 -x,-y,-z
4 x,1/2-y,1/2+z
_cell_length_a                   21.6645(7)
_cell_length_b                   16.7527(5)
_cell_length_c                   19.1286(8)
_cell_angle_alpha                90
_cell_angle_beta                 112.582(4)
_cell_angle_gamma                90
_cell_volume                     6410.24
loop_
_atom_site_label
_atom_site_type_symbol
_atom_site_fract_x
_atom_site_fract_y
_atom_site_fract_z
C1 C 0.3528(2) -0.0453(3) 0.9683(2)
C2 C 0.4094(2) -0.0153(3) 1.0262(2)
C3 C 0.4516(2) -0.0650(3) 1.0832(2)
C4 C 0.43471(19) -0.1447(3) 1.0812(2)
H1 H 0.4625 -0.1781 1.1190
C5 C 0.37859(19) -0.1772(2) 1.0258(2)
C6 C 0.33705(18) -0.1250(3) 0.9702(2)
C7 C 0.19875(18) -0.2619(2) 1.0643(2)
C8 C 0.24378(19) -0.2587(2) 1.0281(2)
C9 C 0.31208(19) -0.2712(2) 1.0666(2)
C10 C 0.33446(18) -0.2856(2) 1.1442(2)
H2 H 0.3799 -0.2943 1.1711
C11 C 0.29194(18) -0.2875(2) 1.1826(2)
C12 C 0.22458(18) -0.2749(2) 1.1416(2)
C13 C 0.2928(2) -0.1053(3) 1.3551(2)
C14 C 0.28037(19) -0.1780(2) 1.3171(2)
C15 C 0.33213(18) -0.2203(2) 1.3069(2)
C16 C 0.39518(19) -0.1853(3) 1.3329(2)
H3 H 0.4298 -0.2125 1.3259
C17 C 0.4086(2) -0.1122(3) 1.3686(2)
C18 C 0.3565(2) -0.0731(3) 1.3796(2)
C19 C 0.4394(2) 0.1058(3) 1.2581(3)
C20 C 0.4467(2) 0.0569(3) 1.3197(3)
C21 C 0.4742(2) -0.0185(3) 1.3274(3)
C22 C 0.4950(2) -0.0444(3) 1.2705(3)
H4 H 0.5132 -0.0953 1.2747
C23 C 0.4902(2) 0.0016(3) 1.2080(3)
C24 C 0.4605(2) 0.0770(3) 1.2027(3)
C25 C 0.22221(19) -0.1679(3) 0.9258(2)
H5 H 0.2212 -0.1309 0.9643
H6 H 0.1834 -0.1574 0.8800
C26 C 0.35897(19) -0.2643(2) 1.0251(2)
C27 C 0.4193(2) -0.3205(3) 1.0563(3)
H7 H 0.4040 -0.3745 1.0546
H8 H 0.4459 -0.3062 1.1077
H9 H 0.4457 -0.3159 1.0261
C28 C 0.17482(19) -0.2080(3) 1.2170(2)
H10 H 0.1288 -0.2013 1.2118
H11 H 0.1868 -0.1622 1.1938
C29 C 0.31707(19) -0.3021(2) 1.2680(2)
C30 C 0.3760(2) -0.3594(3) 1.2970(2)
H12 H 0.3637 -0.4093 1.2707
H13 H 0.3882 -0.3680 1.3503
H14 H 0.4133 -0.3370 1.2884
C31 C 0.3661(2) 0.0678(3) 1.3780(3)
H15 H 0.3499 0.1116 1.3994
H16 H 0.3345 0.0600 1.3264
C32 C 0.4768(2) -0.0716(3) 1.3927(2)
C33 C 0.5353(2) -0.1302(3) 1.4192(3)
H17 H 0.5335 -0.1615 1.4604
H18 H 0.5767 -0.1011 1.4358
H19 H 0.5326 -0.1647 1.3781
C34 C 0.4057(3) 0.1172(3) 1.0720(3)
H20 H 0.3929 0.1685 1.0471
H21 H 0.3669 0.0950 1.0786
C35 C 0.5122(2) -0.0286(3) 1.1463(3)
C36 C 0.5714(2) -0.0864(3) 1.1752(3)
H22 H 0.5827 -0.1033 1.1336
H23 H 0.5594 -0.1321 1.1976
H24 H 0.6091 -0.0602 1.2124
C37 C 0.3106(2) 0.0088(3) 0.9047(3)
H25 H 0.3356 0.0572 0.9056
H26 H 0.3017 -0.0177 0.8567
C38 C 0.12427(19) -0.2566(2) 1.0197(2)
H27 H 0.1129 -0.2879 0.9738
H28 H 0.1012 -0.2797 1.0494
C39 C 0.2380(2) -0.0655(3) 1.3728(2)
H29 H 0.2184 -0.1041 1.3961
H30 H 0.2572 -0.0229 1.4091
C40 C 0.4125(3) 0.1896(3) 1.2519(4)
H31 H 0.4138 0.2064 1.3010
H32 H 0.4410 0.2252 1.2377
C41 C 0.1829(3) 0.0766(4) 0.9557(3)
H33 H 0.1664 0.1010 0.9886
C42 C 0.1857(2) 0.0195(3) 0.8610(3)
H34 H 0.1740 -0.0047 0.8139
C43 C 0.0828(2) -0.0553(3) 1.0136(3)
H35 H 0.0829 -0.0055 1.0353
C44 C 0.0630(2) -0.1454(3) 0.9329(2)
H36 H 0.0474 -0.1743 0.8879
C45 C 0.1363(3) 0.0355(3) 1.2064(3)
H37 H 0.1284 0.0700 1.1658
C46 C 0.1205(2) -0.0477(3) 1.2787(3)
H38 H 0.1005 -0.0836 1.3006
C47 C 0.2579(7) 0.2448(8) 1.1095(6)
H39 H 0.2309 0.2776 1.0705
C48 C 0.2915(4) 0.1492(5) 1.1819(5)
H40 H 0.2936 0.1008 1.2065
C49 C 0.0262(3) -0.0447(3) 0.7053(4)
C50 C 0.0068(2) -0.1022(3) 0.6381(3)
C51 C -0.0114(3) -0.0762(3) 0.5649(3)
H41 H -0.0097 -0.0220 0.5552
C52 C -0.0320(3) -0.1292(3) 0.5058(3)
H42 H -0.0439 -0.1107 0.4565
C53 C -0.0352(3) -0.2099(3) 0.5189(3)
H43 H -0.0502 -0.2457 0.4787
C54 C -0.0157(2) -0.2369(3) 0.5934(3)
C55 C 0.0053(2) -0.1829(2) 0.6517(3)
H44 H 0.0188 -0.2010 0.7013
C56 C -0.0190(2) -0.3241(3) 0.6100(3)
N1 N 0.24764(17) 0.0300(2) 0.91002(19)
N2 N 0.2468(2) 0.0677(3) 0.9720(2)
N3 N 0.14294(18) 0.0481(2) 0.8882(2)
N4 N 0.10101(16) -0.17502(19) 0.99957(18)
N5 N 0.1142(2) -0.1174(2) 1.0530(2)
N6 N 0.05039(18) -0.0697(2) 0.9388(2)
N7 N 0.18495(17) -0.0321(2) 1.3052(2)
N8 N 0.1965(2) 0.0223(3) 1.2595(3)
N9 N 0.0883(2) -0.0062(2) 1.2176(2)
N10 N 0.3435(3) 0.1963(3) 1.1960(3)
N11 N 0.3225(7) 0.2599(6) 1.1515(6)
N12 N 0.2368(4) 0.1770(7) 1.1302(5)
O1 O 0.04180(19) -0.0737(2) 0.7693(2)
O2 O 0.0225(3) 0.0281(2) 0.6922(3)
O3 O -0.00284(17) -0.34396(17) 0.67789(18)
O4 O -0.03797(17) -0.37363(19) 0.55740(19)
O5 O 0.28097(13) -0.15369(17) 0.91124(14)
O6 O 0.21784(13) -0.24623(16) 0.95000(14)
O7 O 0.17976(13) -0.27770(16) 1.17813(14)
O8 O 0.21678(12) -0.20983(17) 1.29571(14)
O9 O 0.36837(16) -0.0019(2) 1.41996(18)
O10 O 0.42933(17) 0.0891(2) 1.3767(2)
O11 O 0.45733(17) 0.12881(19) 1.1440(2)
O12 O 0.42506(16) 0.0652(2) 1.02476(19)
Cd1 Cd 0.027945(15) 0.023005(17) 0.843376(17)
N9B N -0.0883(2) 0.0062(2) 0.7824(2)
O3A O 0.00284(17) 0.15604(17) 0.82211(18)
O4A O 0.03797(17) 0.12637(19) 0.94260(19)
Cd1A Cd -0.027945(15) -0.476995(17) 0.656624(17)
Cd1B Cd -0.027945(15) -0.023005(17) 1.156624(17)
C57 C 0.1684(5) -0.4720(5) 1.0254(4)
H45 H 0.1874 -0.4820 0.9884
H46 H 0.1584 -0.4162 1.0256
H47 H 0.1280 -0.5024 1.0131
C58 C 0.2813(7) -0.5137(7) 1.1042(7)
H48 H 0.2816 -0.5171 1.0542
H49 H 0.2950 -0.5640 1.1296
H50 H 0.3116 -0.4727 1.1322
C59 C 0.2020(6) -0.4890(7) 1.1586(6)
H51 H 0.1597 -0.4704 1.1523
N13 N 0.2153(4) -0.4950(4) 1.0990(3)
O13 O 0.2401(5) -0.5057(6) 1.2233(4)
O14 O -0.0285(2) 0.1822(3) 0.6642(2)
N14 N 0.1879(9) 0.2569(11) 1.3134(11)
O15 O 0.3083(10) 0.2629(11) 1.3845(11)
C60 C 0.1503(10) 0.2891(15) 1.2453(12)
H52 H 0.1778 0.3229 1.2286
H53 H 0.1148 0.3201 1.2499
H54 H 0.1317 0.2472 1.2090
C61 C 0.1876(9) 0.2110(13) 1.3652(11)
H55 H 0.2316 0.2087 1.4042
H56 H 0.1742 0.1585 1.3449
H57 H 0.1567 0.2307 1.3861
C62 C 0.2702(8) 0.2805(11) 1.3262(12)
H58 H 0.2817 0.3049 1.2893
O16 O 0.1111(8) 0.1511(9) 1.0923(9)
O17 O 0.2983(11) -0.0538(14) 1.1549(12)
loop_
_geom_bond_atom_site_label_1
_geom_bond_atom_site_label_2
_geom_bond_site_symmetry_1
_geom_bond_site_symmetry_2
C1 C2 1_555 1_555
C2 C3 1_555 1_555
C3 C4 1_555 1_555
C4 H1 1_555 1_555
C5 C4 1_555 1_555
C6 C1 1_555 1_555
C7 C8 1_555 1_555
C8 C9 1_555 1_555
C9 C10 1_555 1_555
C10 H2 1_555 1_555
C11 C10 1_555 1_555
C12 C7 1_555 1_555
C13 C14 1_555 1_555
C14 C15 1_555 1_555
C15 C16 1_555 1_555
C16 H3 1_555 1_555
C17 C16 1_555 1_555
C18 C13 1_555 1_555
C19 C20 1_555 1_555
C20 C21 1_555 1_555
C21 C22 1_555 1_555
C22 H4 1_555 1_555
C23 C22 1_555 1_555
C24 C19 1_555 1_555
C25 H5 1_555 1_555
H6 C25 1_555 1_555
C26 C5 1_555 1_555
C27 C26 1_555 1_555
H7 C27 1_555 1_555
H8 C27 1_555 1_555
H9 C27 1_555 1_555
C28 H10 1_555 1_555
H11 C28 1_555 1_555
C29 C11 1_555 1_555
C30 C29 1_555 1_555
H12 C30 1_555 1_555
H13 C30 1_555 1_555
H14 C30 1_555 1_555
C31 H15 1_555 1_555
H16 C31 1_555 1_555
C32 C17 1_555 1_555
C33 C32 1_555 1_555
H17 C33 1_555 1_555
H18 C33 1_555 1_555
H19 C33 1_555 1_555
C34 H20 1_555 1_555
H21 C34 1_555 1_555
C35 C3 1_555 1_555
C36 C35 1_555 1_555
H22 C36 1_555 1_555
H23 C36 1_555 1_555
H24 C36 1_555 1_555
C37 C1 1_555 1_555
H25 C37 1_555 1_555
H26 C37 1_555 1_555
C38 C7 1_555 1_555
H27 C38 1_555 1_555
H28 C38 1_555 1_555
C39 C13 1_555 1_555
H29 C39 1_555 1_555
H30 C39 1_555 1_555
C40 C19 1_555 1_555
H31 C40 1_555 1_555
H32 C40 1_555 1_555
C41 H33 1_555 1_555
C42 H34 1_555 1_555
C43 H35 1_555 1_555
C44 H36 1_555 1_555
C45 H37 1_555 1_555
C46 H38 1_555 1_555
C47 H39 1_555 1_555
C48 H40 1_555 1_555
C49 C50 1_555 1_555
C50 C51 1_555 1_555
C51 H41 1_555 1_555
C52 C51 1_555 1_555
H42 C52 1_555 1_555
C53 C52 1_555 1_555
H43 C53 1_555 1_555
C54 C53 1_555 1_555
C55 C50 1_555 1_555
H44 C55 1_555 1_555
C56 C54 1_555 1_555
N1 C37 1_555 1_555
N2 C41 1_555 1_555
N3 C41 1_555 1_555
N4 C38 1_555 1_555
N5 C43 1_555 1_555
N6 C43 1_555 1_555
N7 C39 1_555 1_555
N8 C45 1_555 1_555
N9 C45 1_555 1_555
N10 C40 1_555 1_555
N11 C47 1_555 1_555
N12 C47 1_555 1_555
O1 C49 1_555 1_555
O2 C49 1_555 1_555
O3 C56 1_555 1_555
O4 C56 1_555 1_555
O5 C6 1_555 1_555
O6 C8 1_555 1_555
O7 C12 1_555 1_555
O8 C14 1_555 1_555
O9 C18 1_555 1_555
O10 C20 1_555 1_555
O11 C24 1_555 1_555
O12 C2 1_555 1_555
Cd1 N3 1_555 1_555
C57 H45 1_555 1_555
H46 C57 1_555 1_555
H47 C57 1_555 1_555
C58 H48 1_555 1_555
H49 C58 1_555 1_555
H50 C58 1_555 1_555
C59 H51 1_555 1_555
N13 C57 1_555 1_555
O13 C59 1_555 1_555
N14 C60 1_555 1_555
O15 C62 1_555 1_555
C60 H52 1_555 1_555
H53 C60 1_555 1_555
H54 C60 1_555 1_555
C61 N14 1_555 1_555
H55 C61 1_555 1_555
H56 C61 1_555 1_555
H57 C61 1_555 1_555
C62 N14 1_555 1_555
H58 C62 1_555 1_555
N9B Cd1 1_555 1_555
O3A Cd1 1_555 1_555
O4A Cd1 1_555 1_555
Cd1A O3 1_555 1_555
Cd1B N9 1_555 1_555
C5 C6 1_555 1_555
C9 C26 1_555 1_555
C11 C12 1_555 1_555
C15 C29 1_555 1_555
C17 C18 1_555 1_555
C21 C32 1_555 1_555
C23 C24 1_555 1_555
C23 C35 1_555 1_555
C25 O5 1_555 1_555
C25 O6 1_555 1_555
C28 O7 1_555 1_555
C28 O8 1_555 1_555
C31 O9 1_555 1_555
C31 O10 1_555 1_555
C34 O11 1_555 1_555
C34 O12 1_555 1_555
C42 N1 1_555 1_555
C42 N3 1_555 1_555
C44 N4 1_555 1_555
C44 N6 1_555 1_555
C46 N7 1_555 1_555
C46 N9 1_555 1_555
C48 N10 1_555 1_555
C48 N12 1_555 1_555
C54 C55 1_555 1_555
N1 N2 1_555 1_555
N4 N5 1_555 1_555
N6 Cd1 1_555 1_555
N7 N8 1_555 1_555
N10 N11 1_555 1_555
O1 Cd1 1_555 1_555
O4 Cd1A 1_555 1_555
C58 N13 1_555 1_555
C59 N13 1_555 1_555

#END
