
#######################################################################
#
#                 Cambridge Crystallographic Data Centre
#                                CCDC 
#
#######################################################################
#
# If this CIF has been generated from an entry in the Cambridge 
# Structural Database, then it will include bibliographic, chemical, 
# crystal, experimental, refinement or atomic coordinate data resulting 
# from the CCDC's data processing and validation procedures.
#
#######################################################################

data_KUTKOB
_symmetry_cell_setting           monoclinic
_symmetry_space_group_name_H-M   'P 21/c'
_symmetry_Int_Tables_number      14
_space_group_name_Hall           '-P 2ybc'
loop_
_symmetry_equiv_pos_site_id
_symmetry_equiv_pos_as_xyz
1 x,y,z
2 -x,1/2+y,1/2-z
3 -x,-y,-z
4 x,1/2-y,1/2+z
_cell_length_a                   21.6201(10)
_cell_length_b                   16.8333(6)
_cell_length_c                   19.1726(8)
_cell_angle_alpha                90
_cell_angle_beta                 112.705(5)
_cell_angle_gamma                90
_cell_volume                     6436.89
loop_
_atom_site_label
_atom_site_type_symbol
_atom_site_fract_x
_atom_site_fract_y
_atom_site_fract_z
C1 C 0.8538(3) -0.0523(4) 0.4660(3)
C2 C 0.9108(3) -0.0237(4) 0.5227(4)
C3 C 0.9529(3) -0.0710(4) 0.5810(4)
C4 C 0.9355(3) -0.1502(4) 0.5799(3)
H1 H 0.9635 -0.1833 0.6178
C5 C 0.8783(3) -0.1829(4) 0.5250(3)
C6 C 0.8369(3) -0.1319(4) 0.4692(3)
C7 C 0.6985(3) -0.2650(3) 0.5659(3)
C8 C 0.7439(3) -0.2629(3) 0.5285(3)
C9 C 0.8119(3) -0.2744(3) 0.5670(3)
C10 C 0.8352(3) -0.2881(3) 0.6451(3)
H2 H 0.8807 -0.2968 0.6719
C11 C 0.7925(3) -0.2891(3) 0.6838(3)
C12 C 0.7246(3) -0.2767(3) 0.6428(3)
C13 C 0.7928(3) -0.1029(4) 0.8522(3)
C14 C 0.7811(3) -0.1771(4) 0.8157(3)
C15 C 0.8326(3) -0.2193(4) 0.8060(3)
C16 C 0.8959(3) -0.1835(4) 0.8321(3)
H3 H 0.9310 -0.2109 0.8265
C17 C 0.9086(3) -0.1107(4) 0.8654(3)
C18 C 0.8565(3) -0.0701(4) 0.8754(4)
C19 C 0.9403(4) 0.1043(5) 0.7503(6)
C20 C 0.9466(3) 0.0566(6) 0.8122(5)
C21 C 0.9745(3) -0.0184(5) 0.8217(4)
C22 C 0.9962(3) -0.0461(5) 0.7662(4)
H4 H 1.0147 -0.0967 0.7717
C23 C 0.9915(3) -0.0018(4) 0.7037(4)
C24 C 0.9622(3) 0.0731(5) 0.6964(5)
C25 C 0.7228(3) -0.1740(4) 0.4262(3)
H5 H 0.6838 -0.1637 0.3804
H6 H 0.7219 -0.1363 0.4641
C26 C 0.8583(3) -0.2692(4) 0.5255(3)
C27 C 0.9190(3) -0.3267(5) 0.5573(4)
H7 H 0.9468 -0.3207 0.5289
H8 H 0.9031 -0.3804 0.5531
H9 H 0.9445 -0.3144 0.6094
C28 C 0.6758(3) -0.2077(4) 0.7170(3)
H10 H 0.6296 -0.2000 0.7112
H11 H 0.6885 -0.1630 0.6935
C29 C 0.8179(3) -0.2999(4) 0.7692(3)
C30 C 0.8779(3) -0.3570(4) 0.7984(4)
H12 H 0.8655 -0.4071 0.7729
H13 H 0.8910 -0.3647 0.8518
H14 H 0.9147 -0.3348 0.7887
C31 C 0.8654(4) 0.0688(5) 0.8682(6)
H15 H 0.8473 0.1130 0.8868
H16 H 0.8350 0.0582 0.8166
C32 C 0.9773(3) -0.0686(5) 0.8894(4)
C33 C 1.0369(3) -0.1279(6) 0.9180(4)
H17 H 1.0353 -0.1572 0.9602
H18 H 1.0783 -0.0991 0.9333
H19 H 1.0338 -0.1640 0.8780
C34 C 0.9076(4) 0.1111(5) 0.5643(5)
H20 H 0.8679 0.0915 0.5706
H21 H 0.8967 0.1618 0.5385
C35 C 1.0141(3) -0.0357(4) 0.6436(4)
C36 C 1.0730(3) -0.0934(5) 0.6743(4)
H22 H 1.1098 -0.0679 0.7136
H23 H 1.0866 -0.1090 0.6342
H24 H 1.0596 -0.1395 0.6944
C37 C 0.8112(3) -0.0002(4) 0.4022(4)
H25 H 0.8358 0.0480 0.4022
H26 H 0.8023 -0.0275 0.3547
C38 C 0.6240(3) -0.2611(4) 0.5212(4)
H27 H 0.6129 -0.2934 0.4760
H28 H 0.6009 -0.2833 0.5512
C39 C 0.7383(3) -0.0637(5) 0.8700(4)
H29 H 0.7190 -0.1025 0.8931
H30 H 0.7579 -0.0218 0.9066
C40 C 0.9135(4) 0.1866(5) 0.7437(6)
H31 H 0.9200 0.2061 0.7937
H32 H 0.9386 0.2208 0.7234
C41 C 0.6829(4) 0.0667(5) 0.4526(5)
H33 H 0.6663 0.0906 0.4855
C42 C 0.6859(3) 0.0111(4) 0.3577(4)
H34 H 0.6741 -0.0124 0.3105
C43 C 0.5807(4) -0.0610(5) 0.5109(5)
H35 H 0.5798 -0.0113 0.5317
C44 C 0.5635(3) -0.1511(4) 0.4317(4)
H36 H 0.5496 -0.1799 0.3869
C45 C 0.6369(4) 0.0398(5) 0.7082(5)
H37 H 0.6292 0.0765 0.6695
C46 C 0.6201(3) -0.0440(5) 0.7776(5)
H38 H 0.5992 -0.0794 0.7988
C47 C 0.5207(3) 0.1673(5) 0.3883(5)
C48 C 0.5178(3) 0.2521(5) 0.4057(5)
C49 C 0.5378(4) 0.2775(6) 0.4799(6)
H39 H 0.5528 0.2401 0.5186
C50 C 0.5360(6) 0.3555(9) 0.4978(10)
C51 C 0.5144(6) 0.4102(7) 0.4394(12)
H40 H 0.5124 0.4635 0.4510
C52 C 0.4957(4) 0.3884(5) 0.3642(8)
C53 C 0.4963(3) 0.3081(5) 0.3496(5)
H41 H 0.4814 0.2913 0.2995
C54 C 0.4758(6) 0.4465(9) 0.2944(13)
N1 N 0.7481(2) 0.0210(3) 0.4067(3)
N2 N 0.7476(3) 0.0575(4) 0.4695(4)
N3 N 0.6428(3) 0.0391(4) 0.3847(4)
N4 N 0.6003(2) -0.1799(3) 0.4992(3)
N5 N 0.6123(3) -0.1216(4) 0.5509(4)
N6 N 0.5495(3) -0.0765(4) 0.4369(4)
N7 N 0.6856(3) -0.0302(3) 0.8045(3)
N8 N 0.6971(3) 0.0242(5) 0.7592(5)
N9 N 0.5886(3) -0.0012(4) 0.7169(4)
O1 O 0.5041(3) 0.1485(3) 0.3205(3)
O2 O 0.5401(2) 0.1177(3) 0.4400(3)
O3 O 0.4595(6) 0.4206(7) 0.2372(8)
O4 O 0.4786(5) 0.5181(5) 0.3137(9)
O5 O 0.5562(6) 0.3798(7) 0.5702(7)
H42 H 0.5683 0.3413 0.5985
O6 O 0.78043(18) -0.1600(3) 0.4115(2)
O7 O 0.71712(18) -0.2510(2) 0.4515(2)
O8 O 0.68031(17) -0.2780(2) 0.6793(2)
O9 O 0.71732(17) -0.2089(3) 0.7953(2)
O10 O 0.8682(2) 0.0018(4) 0.9126(3)
O11 O 0.9284(3) 0.0906(3) 0.8684(3)
O12 O 0.9608(2) 0.1216(3) 0.6375(3)
O13 O 0.9271(2) 0.0560(3) 0.5196(3)
Cd1 Cd 0.52808(2) 0.01553(3) 0.34037(3)
N10 N 0.8414(5) 0.1913(6) 0.6945(6)
C55 C 0.7925(8) 0.1365(10) 0.6691(10)
N11 N 0.8128(13) 0.2649(16) 0.6678(15)
N12 N 0.7333(7) 0.1728(11) 0.6275(9)
C56 C 0.7495(16) 0.2482(19) 0.6179(17)
N9B N 0.4114(3) 0.0012(4) 0.2831(4)
O3A O 0.5405(6) -0.0794(7) 0.2628(8)
Cd1A Cd 0.47192(2) 0.51553(3) 0.15963(3)
Cd1B Cd 0.47192(2) -0.01553(3) 0.65963(3)
O14 O 0.4703(4) 0.1805(5) 0.1682(5)
N13 N 0.7174(6) -0.4970(6) 0.5984(5)
O15 O 0.7417(6) -0.5065(8) 0.7223(6)
C57 C 0.6664(7) -0.4777(8) 0.5249(7)
H43 H 0.6843 -0.4852 0.4867
H44 H 0.6529 -0.4233 0.5247
H45 H 0.6283 -0.5118 0.5147
C58 C 0.7020(8) -0.4915(10) 0.6559(8)
H46 H 0.6588 -0.4752 0.6484
C59 C 0.7842(9) -0.5130(11) 0.6033(9)
H47 H 0.7842 -0.5164 0.5533
H48 H 0.7996 -0.5624 0.6293
H49 H 0.8136 -0.4709 0.6306
N14 N 0.7054(9) 0.2470(11) 0.3415(11)
O16 O 0.8167(11) 0.2369(13) 0.4087(14)
C60 C 0.7696(10) 0.2185(16) 0.3397(16)
H50 H 0.7762 0.1934 0.2999
C61 C 0.6442(10) 0.2386(17) 0.2715(13)
H51 H 0.6508 0.1972 0.2406
H52 H 0.6353 0.2878 0.2440
H53 H 0.6068 0.2253 0.2845
C62 C 0.7071(13) 0.3073(18) 0.3983(14)
H54 H 0.7501 0.3063 0.4394
H55 H 0.6728 0.2958 0.4170
H56 H 0.6994 0.3590 0.3753
O17 O 0.8013(17) -0.0612(19) 0.6488(16)
loop_
_geom_bond_atom_site_label_1
_geom_bond_atom_site_label_2
_geom_bond_site_symmetry_1
_geom_bond_site_symmetry_2
C1 C2 1_555 1_555
C2 C3 1_555 1_555
C3 C4 1_555 1_555
C4 H1 1_555 1_555
C5 C4 1_555 1_555
C6 C1 1_555 1_555
C7 C8 1_555 1_555
C8 C9 1_555 1_555
C9 C10 1_555 1_555
C10 H2 1_555 1_555
C11 C10 1_555 1_555
C12 C7 1_555 1_555
C13 C14 1_555 1_555
C14 C15 1_555 1_555
C15 C16 1_555 1_555
C16 H3 1_555 1_555
C17 C16 1_555 1_555
C18 C13 1_555 1_555
C19 C20 1_555 1_555
C20 C21 1_555 1_555
C21 C22 1_555 1_555
C22 H4 1_555 1_555
C23 C22 1_555 1_555
C24 C19 1_555 1_555
C25 H5 1_555 1_555
H6 C25 1_555 1_555
C26 C5 1_555 1_555
C27 C26 1_555 1_555
H7 C27 1_555 1_555
H8 C27 1_555 1_555
H9 C27 1_555 1_555
C28 H10 1_555 1_555
H11 C28 1_555 1_555
C29 C11 1_555 1_555
C30 C29 1_555 1_555
H12 C30 1_555 1_555
H13 C30 1_555 1_555
H14 C30 1_555 1_555
C31 H15 1_555 1_555
H16 C31 1_555 1_555
C32 C17 1_555 1_555
C33 C32 1_555 1_555
H17 C33 1_555 1_555
H18 C33 1_555 1_555
H19 C33 1_555 1_555
C34 H20 1_555 1_555
H21 C34 1_555 1_555
C35 C3 1_555 1_555
C36 C35 1_555 1_555
H22 C36 1_555 1_555
H23 C36 1_555 1_555
H24 C36 1_555 1_555
C37 C1 1_555 1_555
H25 C37 1_555 1_555
H26 C37 1_555 1_555
C38 C7 1_555 1_555
H27 C38 1_555 1_555
H28 C38 1_555 1_555
C39 C13 1_555 1_555
H29 C39 1_555 1_555
H30 C39 1_555 1_555
C40 C19 1_555 1_555
H31 C40 1_555 1_555
H32 C40 1_555 1_555
C41 H33 1_555 1_555
C42 H34 1_555 1_555
C43 H35 1_555 1_555
C44 H36 1_555 1_555
C45 H37 1_555 1_555
C46 H38 1_555 1_555
C47 C48 1_555 1_555
C48 C49 1_555 1_555
C49 H39 1_555 1_555
C50 C49 1_555 1_555
C51 C50 1_555 1_555
H40 C51 1_555 1_555
C52 C51 1_555 1_555
C53 C48 1_555 1_555
H41 C53 1_555 1_555
C54 C52 1_555 1_555
N1 C37 1_555 1_555
N2 C41 1_555 1_555
N3 C41 1_555 1_555
N4 C38 1_555 1_555
N5 C43 1_555 1_555
N6 C43 1_555 1_555
N7 C39 1_555 1_555
N8 C45 1_555 1_555
N9 C45 1_555 1_555
O1 C47 1_555 1_555
O2 C47 1_555 1_555
O3 C54 1_555 1_555
O4 C54 1_555 1_555
O5 C50 1_555 1_555
H42 O5 1_555 1_555
O6 C6 1_555 1_555
O7 C8 1_555 1_555
O8 C12 1_555 1_555
O9 C14 1_555 1_555
O10 C18 1_555 1_555
O11 C20 1_555 1_555
O12 C24 1_555 1_555
O13 C2 1_555 1_555
Cd1 N3 1_555 1_555
N10 C40 1_555 1_555
C55 N10 1_555 1_555
N11 N10 1_555 1_555
N12 C55 1_555 1_555
C56 N11 1_555 1_555
N13 C57 1_555 1_555
O15 C58 1_555 1_555
C57 H43 1_555 1_555
H44 C57 1_555 1_555
H45 C57 1_555 1_555
C58 N13 1_555 1_555
H46 C58 1_555 1_555
C59 N13 1_555 1_555
H47 C59 1_555 1_555
H48 C59 1_555 1_555
H49 C59 1_555 1_555
N14 C60 1_555 1_555
O16 C60 1_555 1_555
C60 H50 1_555 1_555
C61 N14 1_555 1_555
H51 C61 1_555 1_555
H52 C61 1_555 1_555
H53 C61 1_555 1_555
C62 N14 1_555 1_555
H54 C62 1_555 1_555
H55 C62 1_555 1_555
H56 C62 1_555 1_555
N9B Cd1 1_555 1_555
O3A Cd1 1_555 1_555
Cd1A O3 1_555 1_555
Cd1B N9 1_555 1_555
C5 C6 1_555 1_555
C9 C26 1_555 1_555
C11 C12 1_555 1_555
C15 C29 1_555 1_555
C17 C18 1_555 1_555
C21 C32 1_555 1_555
C23 C24 1_555 1_555
C23 C35 1_555 1_555
C25 O6 1_555 1_555
C25 O7 1_555 1_555
C28 O8 1_555 1_555
C28 O9 1_555 1_555
C31 O10 1_555 1_555
C31 O11 1_555 1_555
C34 O12 1_555 1_555
C34 O13 1_555 1_555
C42 N1 1_555 1_555
C42 N3 1_555 1_555
C44 N4 1_555 1_555
C44 N6 1_555 1_555
C46 N7 1_555 1_555
C46 N9 1_555 1_555
C52 C53 1_555 1_555
N1 N2 1_555 1_555
N4 N5 1_555 1_555
N6 Cd1 1_555 1_555
N7 N8 1_555 1_555
O1 Cd1 1_555 1_555
O2 Cd1 1_555 1_555
N12 C56 1_555 1_555

#END
