
#######################################################################
#
#                 Cambridge Crystallographic Data Centre
#                                CCDC 
#
#######################################################################
#
# If this CIF has been generated from an entry in the Cambridge 
# Structural Database, then it will include bibliographic, chemical, 
# crystal, experimental, refinement or atomic coordinate data resulting 
# from the CCDC's data processing and validation procedures.
#
#######################################################################

data_KUTNIY
_symmetry_cell_setting           orthorhombic
_symmetry_space_group_name_H-M   'I m m a'
_symmetry_Int_Tables_number      74
_space_group_name_Hall           '-I 2b 2'
loop_
_symmetry_equiv_pos_site_id
_symmetry_equiv_pos_as_xyz
1 x,y,z
2 -x,1/2-y,z
3 x,-y,-z
4 -x,1/2+y,-z
5 1/2+x,1/2+y,1/2+z
6 1/2-x,-y,1/2+z
7 1/2+x,1/2-y,1/2-z
8 1/2-x,y,1/2-z
9 -x,-y,-z
10 x,1/2+y,-z
11 -x,y,z
12 x,1/2-y,z
13 1/2-x,1/2-y,1/2-z
14 1/2+x,y,1/2-z
15 1/2-x,1/2+y,1/2+z
16 1/2+x,-y,1/2+z
_cell_length_a                   24.135(5)
_cell_length_b                   35.096(5)
_cell_length_c                   18.028(5)
_cell_angle_alpha                90
_cell_angle_beta                 90
_cell_angle_gamma                90
_cell_volume                     15270.5
loop_
_atom_site_label
_atom_site_type_symbol
_atom_site_fract_x
_atom_site_fract_y
_atom_site_fract_z
Zn1 Zn 0.32137(2) 0.04092(2) 0.48784(2)
O1 O 0.12866(10) -0.03565(8) 0.08221(13)
C1 C 0.19688(15) -0.01390(13) 0.35315(19)
O2 O 0.25464(9) -0.03816(9) 0.44637(13)
C2 C 0.05083(13) -0.01917(12) 0.21973(18)
C3 C 0.04978(14) -0.01011(12) 0.14398(19)
O3 O 0.10998(9) 0.02644(9) 0.07019(13)
C4 C 0.10352(14) -0.01917(12) 0.26312(19)
O4 O 0.27209(10) 0.02076(10) 0.40310(13)
C5 C 0.11382(15) -0.04649(13) 0.3159(2)
H1 H 0.0889 -0.0664 0.3223
C6 C 0.0000 -0.02349(17) 0.2551(3)
H2 H 0.0000 -0.0296 0.3053
C7 C 0.14045(15) 0.01043(13) 0.2550(2)
H3 H 0.1343 0.0287 0.2186
N1 N 0.32295(13) 0.09738(12) 0.4675(2)
C8 C 0.0000 -0.00516(17) 0.1093(3)
H4 H 0.0000 0.0019 0.0596
C9 C 0.18649(14) 0.01339(14) 0.2999(2)
H5 H 0.2106 0.0339 0.2943
C10 C 0.16083(16) -0.04460(14) 0.3594(2)
H6 H 0.1684 -0.0640 0.3931
C11 C 0.24551(15) -0.01054(14) 0.4040(2)
C12 C 0.10159(14) -0.00609(13) 0.09639(18)
C13 C 0.2840(3) 0.1201(2) 0.4958(3)
H7 H 0.2557 0.1097 0.5244
C14 C 0.3600(2) 0.11362(18) 0.4243(3)
H8 H 0.3885 0.0987 0.4054
C15 C 0.2855(5) 0.1606(3) 0.4824(6)
H9 H 0.2600 0.1764 0.5058
C16 C 0.3586(3) 0.1521(2) 0.4056(5)
H10 H 0.3834 0.1612 0.3704
C17 C 0.3235(4) 0.1756(2) 0.4359(5)
N2 N 0.3572(4) 0.23002(19) 0.3790(7)
N3 N 0.2728(10) 0.2354(4) 0.4561(14)
C18 C 0.3175(9) 0.2140(3) 0.4180(7)
O1J O -0.12866(10) -0.03565(8) 0.08221(13)
C1J C -0.19688(15) -0.01390(13) 0.35315(19)
O2J O -0.25464(9) -0.03816(9) 0.44637(13)
C2J C -0.05083(13) -0.01917(12) 0.21973(18)
C3J C -0.04978(14) -0.01011(12) 0.14398(19)
O3J O -0.10998(9) 0.02644(9) 0.07019(13)
C4J C -0.10352(14) -0.01917(12) 0.26312(19)
O4J O -0.27209(10) 0.02076(10) 0.40310(13)
C5J C -0.11382(15) -0.04649(13) 0.3159(2)
H1J H -0.0889 -0.0664 0.3223
C7J C -0.14045(15) 0.01043(13) 0.2550(2)
H3J H -0.1343 0.0287 0.2186
C9J C -0.18649(14) 0.01339(14) 0.2999(2)
H5J H -0.2106 0.0339 0.2943
C10J C -0.16083(16) -0.04460(14) 0.3594(2)
H6J H -0.1684 -0.0640 0.3931
C11J C -0.24551(15) -0.01054(14) 0.4040(2)
C12J C -0.10159(14) -0.00609(13) 0.09639(18)
N1K N 0.32295(13) 0.40262(12) 0.4675(2)
C13K C 0.2840(3) 0.3799(2) 0.4958(3)
H7K H 0.2557 0.3903 0.5244
C14K C 0.3600(2) 0.38638(18) 0.4243(3)
H8K H 0.3885 0.4013 0.4054
C15K C 0.2855(5) 0.3394(3) 0.4824(6)
H9K H 0.2600 0.3236 0.5058
C16K C 0.3586(3) 0.3479(2) 0.4056(5)
H10K H 0.3834 0.3388 0.3704
C17K C 0.3235(4) 0.3244(2) 0.4359(5)
N2K N 0.3572(4) 0.26998(19) 0.3790(7)
N3K N 0.2728(10) 0.2646(4) 0.4561(14)
C18K C 0.3175(9) 0.2860(3) 0.4180(7)
Zn1B Zn 0.32137(2) -0.04092(2) 0.51216(2)
Zn1E Zn 0.17863(2) -0.04092(2) -0.01216(2)
Zn1G Zn 0.17863(2) 0.04092(2) 0.01216(2)
Zn1H Zn -0.32137(2) -0.04092(2) 0.51216(2)
Zn1J Zn -0.32137(2) 0.04092(2) 0.48784(2)
Zn1K Zn 0.32137(2) 0.45908(2) 0.48784(2)
Zn1M Zn -0.17863(2) 0.04092(2) 0.01216(2)
Zn1O Zn -0.17863(2) -0.04092(2) -0.01216(2)
O1E O 0.37134(10) 0.03565(8) 0.58221(13)
O1G O 0.37134(10) -0.03565(8) 0.41779(13)
O2B O 0.25464(9) 0.03816(9) 0.55363(13)
O3E O 0.39002(9) -0.02644(9) 0.57019(13)
O3G O 0.39002(9) 0.02644(9) 0.42981(13)
O4B O 0.27209(10) -0.02076(10) 0.59690(13)
N1B N 0.32295(13) -0.09738(12) 0.5325(2)
loop_
_geom_bond_atom_site_label_1
_geom_bond_atom_site_label_2
_geom_bond_site_symmetry_1
_geom_bond_site_symmetry_2
Zn1 O4 1_555 1_555
O1 C12 1_555 1_555
C1 C9 1_555 1_555
O2 C11 1_555 1_555
C2 C3 1_555 1_555
C3 C8 1_555 1_555
O3 C12 1_555 1_555
C4 C2 1_555 1_555
O4 C11 1_555 1_555
C5 C4 1_555 1_555
H1 C5 1_555 1_555
C6 C2 1_555 1_555
H2 C6 1_555 1_555
C7 C4 1_555 1_555
H3 C7 1_555 1_555
N1 Zn1 1_555 1_555
C8 H4 1_555 1_555
C9 C7 1_555 1_555
H5 C9 1_555 1_555
C10 C1 1_555 1_555
H6 C10 1_555 1_555
C11 C1 1_555 1_555
C12 C3 1_555 1_555
C13 N1 1_555 1_555
H7 C13 1_555 1_555
C14 N1 1_555 1_555
H8 C14 1_555 1_555
C15 C13 1_555 1_555
H9 C15 1_555 1_555
C16 C14 1_555 1_555
H10 C16 1_555 1_555
C17 C15 1_555 1_555
N2 C18 1_555 1_555
N3 C18 1_555 1_555
C18 C17 1_555 1_555
O1J C12J 1_555 1_555
C1J C9J 1_555 1_555
O2J C11J 1_555 1_555
C2J C6 1_555 1_555
C3J C8 1_555 1_555
O3J C12J 1_555 1_555
C4J C2J 1_555 1_555
O4J C11J 1_555 1_555
C5J C4J 1_555 1_555
H1J C5J 1_555 1_555
C7J C4J 1_555 1_555
H3J C7J 1_555 1_555
C9J C7J 1_555 1_555
H5J C9J 1_555 1_555
C10J C1J 1_555 1_555
H6J C10J 1_555 1_555
C11J C1J 1_555 1_555
C12J C3J 1_555 1_555
N1K C13K 1_555 1_555
C13K H7K 1_555 1_555
C14K N1K 1_555 1_555
H8K C14K 1_555 1_555
C15K C13K 1_555 1_555
H9K C15K 1_555 1_555
C16K C14K 1_555 1_555
H10K C16K 1_555 1_555
C17K C15K 1_555 1_555
N2K N2 1_555 1_555
N3K N3 1_555 1_555
C18K C17K 1_555 1_555
Zn1B O2 1_555 1_555
Zn1E O1 1_555 1_555
Zn1G O3 1_555 1_555
Zn1H O2J 1_555 1_555
Zn1J O4J 1_555 1_555
Zn1K N1K 1_555 1_555
Zn1M O3J 1_555 1_555
Zn1O O1J 1_555 1_555
O1E Zn1 1_555 1_555
O1G Zn1B 1_555 1_555
O2B Zn1 1_555 1_555
O3E Zn1B 1_555 1_555
O3G Zn1 1_555 1_555
O4B Zn1B 1_555 1_555
N1B Zn1B 1_555 1_555
C5 C10 1_555 1_555
C16 C17 1_555 1_555
C2J C3J 1_555 1_555
C5J C10J 1_555 1_555
C16K C17K 1_555 1_555
N2K C18K 1_555 1_555
N3K C18K 1_555 1_555

#END
