
#######################################################################
#
#                 Cambridge Crystallographic Data Centre
#                                CCDC 
#
#######################################################################
#
# If this CIF has been generated from an entry in the Cambridge 
# Structural Database, then it will include bibliographic, chemical, 
# crystal, experimental, refinement or atomic coordinate data resulting 
# from the CCDC's data processing and validation procedures.
#
#######################################################################

data_KUTNOE
_symmetry_cell_setting           orthorhombic
_symmetry_space_group_name_H-M   'I m m a'
_symmetry_Int_Tables_number      74
_space_group_name_Hall           '-I 2b 2'
loop_
_symmetry_equiv_pos_site_id
_symmetry_equiv_pos_as_xyz
1 x,y,z
2 -x,1/2-y,z
3 -x,1/2+y,-z
4 x,-y,-z
5 1/2+x,1/2+y,1/2+z
6 1/2-x,-y,1/2+z
7 1/2-x,y,1/2-z
8 1/2+x,1/2-y,1/2-z
9 -x,-y,-z
10 x,1/2+y,-z
11 x,1/2-y,z
12 -x,y,z
13 1/2-x,1/2-y,1/2-z
14 1/2+x,y,1/2-z
15 1/2+x,-y,1/2+z
16 1/2-x,1/2+y,1/2+z
_cell_length_a                   24.137(5)
_cell_length_b                   36.488(5)
_cell_length_c                   18.163(3)
_cell_angle_alpha                90
_cell_angle_beta                 90
_cell_angle_gamma                90
_cell_volume                     15996.4
loop_
_atom_site_label
_atom_site_type_symbol
_atom_site_fract_x
_atom_site_fract_y
_atom_site_fract_z
Zn1 Zn 0.17940(2) 0.46036(2) 0.50909(3)
O1 O 0.38952(11) 0.52836(10) 0.06812(18)
O2 O 0.24561(12) 0.46605(9) 0.44365(17)
O3 O 0.37209(12) 0.46789(10) 0.08342(17)
O4 O 0.22902(12) 0.52314(10) 0.40405(17)
N1 N 0.17806(15) 0.40617(12) 0.5200(2)
C1 C 0.44981(16) 0.49399(13) 0.1423(2)
C2 C 0.5000 0.49841(18) 0.1078(4)
H1 H 0.5000 0.5048 0.0582
C3 C 0.39842(16) 0.49774(13) 0.0957(2)
C4 C 0.44956(16) 0.48537(16) 0.2176(2)
C5 C 0.39737(17) 0.48571(15) 0.2615(2)
C6 C 0.31384(19) 0.51661(16) 0.2987(3)
H2 H 0.2896 0.5362 0.2930
C7 C 0.25463(18) 0.49355(15) 0.4039(2)
C8 C 0.38699(18) 0.45904(14) 0.3140(2)
H3 H 0.4118 0.4397 0.3190
C9 C 0.5000 0.4815(2) 0.2529(4)
H4 H 0.5000 0.4759 0.3028
C10 C 0.30368(18) 0.49078(16) 0.3522(3)
C11 C 0.34049(18) 0.46040(15) 0.3594(3)
H5 H 0.3336 0.4420 0.3935
C12 C 0.35907(19) 0.51371(16) 0.2541(3)
H6 H 0.3644 0.5312 0.2175
C13 C 0.1790(2) 0.32975(18) 0.5281(5)
C14 C 0.1784(3) 0.28815(17) 0.5311(5)
C15 C 0.2283(3) 0.26948(18) 0.5437(6)
H7 H 0.2609 0.2824 0.5519
C16 C 0.1388(3) 0.3869(2) 0.5476(5)
H8 H 0.1091 0.3997 0.5678
C17 C 0.2212(3) 0.3848(2) 0.4945(4)
H9 H 0.2513 0.3966 0.4731
C18 C 0.2225(3) 0.3470(2) 0.4987(5)
H10 H 0.2529 0.3339 0.4815
C19 C 0.1364(3) 0.3504(2) 0.5503(7)
H11 H 0.1045 0.3392 0.5680
C20 C 0.1300(3) 0.26849(19) 0.5303(7)
H12 H 0.0964 0.2809 0.5297
O1K O 0.61048(11) 0.52836(10) 0.06812(18)
O2K O 0.75439(12) 0.46605(9) 0.44365(17)
O3K O 0.62791(12) 0.46789(10) 0.08342(17)
O4K O 0.77098(12) 0.52314(10) 0.40405(17)
C1K C 0.55019(16) 0.49399(13) 0.1423(2)
C3K C 0.60158(16) 0.49774(13) 0.0957(2)
C4K C 0.55044(16) 0.48537(16) 0.2176(2)
C5K C 0.60263(17) 0.48571(15) 0.2615(2)
C6K C 0.68616(19) 0.51661(16) 0.2987(3)
H2K H 0.7104 0.5362 0.2930
C7K C 0.74537(18) 0.49355(15) 0.4039(2)
C8K C 0.61301(18) 0.45904(14) 0.3140(2)
H3K H 0.5882 0.4397 0.3190
C10K C 0.69632(18) 0.49078(16) 0.3522(3)
C11K C 0.65951(18) 0.46040(15) 0.3594(3)
H5K H 0.6664 0.4420 0.3935
C12K C 0.64093(19) 0.51371(16) 0.2541(3)
H6K H 0.6356 0.5312 0.2175
N1J N 0.17806(15) 0.09383(12) 0.5200(2)
C13J C 0.1790(2) 0.17025(18) 0.5281(5)
C14J C 0.1784(3) 0.21185(17) 0.5311(5)
C15J C 0.2283(3) 0.23052(18) 0.5437(6)
H7J H 0.2609 0.2176 0.5519
C16J C 0.1388(3) 0.1131(2) 0.5476(5)
H8J H 0.1091 0.1003 0.5678
C17J C 0.2212(3) 0.1152(2) 0.4945(4)
H9J H 0.2513 0.1034 0.4731
C18J C 0.2225(3) 0.1530(2) 0.4987(5)
H10J H 0.2529 0.1661 0.4815
C19J C 0.1364(3) 0.1496(2) 0.5503(7)
H11J H 0.1045 0.1608 0.5680
C20J C 0.1300(3) 0.23151(19) 0.5303(7)
H12J H 0.0964 0.2191 0.5297
Zn1C Zn 0.17940(2) 0.53964(2) 0.49091(3)
Zn1E Zn 0.32060(2) 0.53964(2) 0.00909(3)
Zn1F Zn 0.32060(2) 0.46036(2) -0.00909(3)
Zn1H Zn 0.82060(2) 0.53964(2) 0.49091(3)
Zn1J Zn 0.17940(2) 0.03964(2) 0.50909(3)
Zn1K Zn 0.82060(2) 0.46036(2) 0.50909(3)
Zn1M Zn 0.67940(2) 0.46036(2) -0.00909(3)
Zn1N Zn 0.67940(2) 0.53964(2) 0.00909(3)
O1E O 0.11048(11) 0.47164(10) 0.56812(18)
O1F O 0.11048(11) 0.52836(10) 0.43188(18)
O2C O 0.24561(12) 0.53395(9) 0.55635(17)
O3E O 0.12791(12) 0.53211(10) 0.58342(17)
O3F O 0.12791(12) 0.46789(10) 0.41658(17)
O4C O 0.22902(12) 0.47686(10) 0.59595(17)
N1C N 0.17806(15) 0.59383(12) 0.4800(2)
loop_
_geom_bond_atom_site_label_1
_geom_bond_atom_site_label_2
_geom_bond_site_symmetry_1
_geom_bond_site_symmetry_2
Zn1 O2 1_555 1_555
O1 C3 1_555 1_555
O2 C7 1_555 1_555
O3 C3 1_555 1_555
O4 C7 1_555 1_555
N1 Zn1 1_555 1_555
C1 C2 1_555 1_555
C2 H1 1_555 1_555
C3 C1 1_555 1_555
C4 C1 1_555 1_555
C5 C4 1_555 1_555
C6 H2 1_555 1_555
C7 C10 1_555 1_555
C8 C5 1_555 1_555
H3 C8 1_555 1_555
C9 C4 1_555 1_555
H4 C9 1_555 1_555
C10 C6 1_555 1_555
C11 C8 1_555 1_555
H5 C11 1_555 1_555
C12 C5 1_555 1_555
H6 C12 1_555 1_555
C13 C14 1_555 1_555
C14 C15 1_555 1_555
C15 H7 1_555 1_555
C16 N1 1_555 1_555
H8 C16 1_555 1_555
C17 N1 1_555 1_555
H9 C17 1_555 1_555
C18 C13 1_555 1_555
H10 C18 1_555 1_555
C19 C13 1_555 1_555
H11 C19 1_555 1_555
C20 C14 1_555 1_555
H12 C20 1_555 1_555
O1K C3K 1_555 1_555
O2K C7K 1_555 1_555
O3K C3K 1_555 1_555
O4K C7K 1_555 1_555
C1K C2 1_555 1_555
C3K C1K 1_555 1_555
C4K C9 1_555 1_555
C5K C4K 1_555 1_555
C6K H2K 1_555 1_555
C7K C10K 1_555 1_555
C8K C5K 1_555 1_555
H3K C8K 1_555 1_555
C10K C6K 1_555 1_555
C11K C8K 1_555 1_555
H5K C11K 1_555 1_555
C12K C5K 1_555 1_555
H6K C12K 1_555 1_555
N1J C16J 1_555 1_555
C13J C14J 1_555 1_555
C14J C15J 1_555 1_555
C15J C15 1_555 1_555
H7J C15J 1_555 1_555
C16J H8J 1_555 1_555
C17J N1J 1_555 1_555
H9J C17J 1_555 1_555
C18J C13J 1_555 1_555
H10J C18J 1_555 1_555
C19J C13J 1_555 1_555
H11J C19J 1_555 1_555
C20J C20 1_555 1_555
H12J C20J 1_555 1_555
Zn1C O4 1_555 1_555
Zn1E O1 1_555 1_555
Zn1F O3 1_555 1_555
Zn1H O4K 1_555 1_555
Zn1J N1J 1_555 1_555
Zn1K O2K 1_555 1_555
Zn1M O3K 1_555 1_555
Zn1N O1K 1_555 1_555
O1E Zn1 1_555 1_555
O1F Zn1C 1_555 1_555
O2C Zn1C 1_555 1_555
O3E Zn1C 1_555 1_555
O3F Zn1 1_555 1_555
O4C Zn1 1_555 1_555
N1C Zn1C 1_555 1_555
C6 C12 1_555 1_555
C10 C11 1_555 1_555
C16 C19 1_555 1_555
C17 C18 1_555 1_555
C1K C4K 1_555 1_555
C6K C12K 1_555 1_555
C10K C11K 1_555 1_555
C14J C20J 1_555 1_555
C16J C19J 1_555 1_555
C17J C18J 1_555 1_555

#END
