
#######################################################################
#
#                 Cambridge Crystallographic Data Centre
#                                CCDC 
#
#######################################################################
#
# If this CIF has been generated from an entry in the Cambridge 
# Structural Database, then it will include bibliographic, chemical, 
# crystal, experimental, refinement or atomic coordinate data resulting 
# from the CCDC's data processing and validation procedures.
#
#######################################################################

data_KUTNUK
_symmetry_cell_setting           orthorhombic
_symmetry_space_group_name_H-M   'I m m a'
_symmetry_Int_Tables_number      74
_space_group_name_Hall           '-I 2b 2'
loop_
_symmetry_equiv_pos_site_id
_symmetry_equiv_pos_as_xyz
1 x,y,z
2 -x,1/2-y,z
3 -x,1/2+y,-z
4 x,-y,-z
5 1/2+x,1/2+y,1/2+z
6 1/2-x,-y,1/2+z
7 1/2-x,y,1/2-z
8 1/2+x,1/2-y,1/2-z
9 -x,-y,-z
10 x,1/2+y,-z
11 x,1/2-y,z
12 -x,y,z
13 1/2-x,1/2-y,1/2-z
14 1/2+x,y,1/2-z
15 1/2+x,-y,1/2+z
16 1/2-x,1/2+y,1/2+z
_cell_length_a                   23.997(7)
_cell_length_b                   36.410(6)
_cell_length_c                   18.142(3)
_cell_angle_alpha                90
_cell_angle_beta                 90
_cell_angle_gamma                90
_cell_volume                     15851.2
loop_
_atom_site_label
_atom_site_type_symbol
_atom_site_fract_x
_atom_site_fract_y
_atom_site_fract_z
Cu1 Cu 0.82060(2) 0.53795(2) 0.50739(2)
O1 O 0.61157(8) 0.47057(6) 0.06722(12)
O2 O 0.62861(8) 0.53043(6) 0.08416(11)
O3 O 0.75493(8) 0.53433(5) 0.44318(11)
O4 O 0.77098(8) 0.47711(6) 0.40628(11)
N1 N 0.82111(10) 0.59425(7) 0.51647(15)
C1 C 0.60201(12) 0.50118(8) 0.09512(16)
C2 C 0.55031(12) 0.50393(8) 0.14221(17)
C3 C 0.5000 0.49892(11) 0.1074(3)
H1 H 0.5000 0.4918 0.0581
C4 C 0.55082(12) 0.51370(9) 0.21696(17)
C5 C 0.5000 0.51814(12) 0.2521(2)
H2 H 0.5000 0.5244 0.3018
C6 C 0.74521(12) 0.50683(8) 0.40410(17)
C7 C 0.68709(12) 0.48319(10) 0.29990(18)
H3 H 0.7112 0.4633 0.2959
C8 C 0.60334(12) 0.51426(9) 0.26004(16)
C9 C 0.69741(13) 0.50986(9) 0.35129(18)
C10 C 0.64127(12) 0.48539(9) 0.25389(18)
H4 H 0.6357 0.4674 0.2183
C11 C 0.61400(13) 0.54090(9) 0.31155(18)
H5 H 0.5892 0.5604 0.3165
C12 C 0.66051(13) 0.53956(9) 0.35632(19)
H6 H 0.6673 0.5584 0.3898
C13 C 0.82072(16) 0.67125(13) 0.5251(3)
C14 C 0.82048(17) 0.71164(11) 0.5289(3)
C15 C 0.77764(16) 0.61468(12) 0.4935(2)
H7 H 0.7469 0.6026 0.4740
C16 C 0.77610(19) 0.65226(11) 0.4971(3)
H8 H 0.7448 0.6649 0.4806
C17 C 0.86422(19) 0.64997(12) 0.5499(3)
H9 H 0.8952 0.6613 0.5707
C18 C 0.7730(2) 0.73037(11) 0.5404(3)
H10 H 0.7399 0.7177 0.5485
C19 C 0.8703(2) 0.73116(11) 0.5204(4)
H11 H 0.9037 0.7185 0.5148
C20 C 0.86280(18) 0.61346(11) 0.5449(3)
H12 H 0.8933 0.6005 0.5627
O1K O 0.38843(8) 0.47057(6) 0.06722(12)
O2K O 0.37139(8) 0.53043(6) 0.08416(11)
O3K O 0.24507(8) 0.53433(5) 0.44318(11)
O4K O 0.22902(8) 0.47711(6) 0.40628(11)
C1K C 0.39799(12) 0.50118(8) 0.09512(16)
C2K C 0.44969(12) 0.50393(8) 0.14221(17)
C4K C 0.44918(12) 0.51370(9) 0.21696(17)
C6K C 0.25479(12) 0.50683(8) 0.40410(17)
C7K C 0.31291(12) 0.48319(10) 0.29990(18)
H3K H 0.2888 0.4633 0.2959
C8K C 0.39666(12) 0.51426(9) 0.26004(16)
C9K C 0.30259(13) 0.50986(9) 0.35129(18)
C10K C 0.35873(12) 0.48539(9) 0.25389(18)
H4K H 0.3643 0.4674 0.2183
C11K C 0.38600(13) 0.54090(9) 0.31155(18)
H5K H 0.4108 0.5604 0.3165
C12K C 0.33949(13) 0.53956(9) 0.35632(19)
H6K H 0.3327 0.5584 0.3898
N1J N 0.82111(10) 0.90575(7) 0.51647(15)
C13J C 0.82072(16) 0.82875(13) 0.5251(3)
C14J C 0.82048(17) 0.78836(11) 0.5289(3)
C15J C 0.77764(16) 0.88532(12) 0.4935(2)
H7J H 0.7469 0.8974 0.4740
C16J C 0.77610(19) 0.84774(11) 0.4971(3)
H8J H 0.7448 0.8351 0.4806
C17J C 0.86422(19) 0.85003(12) 0.5499(3)
H9J H 0.8952 0.8387 0.5707
C18J C 0.7730(2) 0.76963(11) 0.5404(3)
H10J H 0.7399 0.7823 0.5485
C19J C 0.8703(2) 0.76884(11) 0.5204(4)
H11J H 0.9037 0.7815 0.5148
C20J C 0.86280(18) 0.88654(11) 0.5449(3)
H12J H 0.8933 0.8995 0.5627
Cu1C Cu 0.82060(2) 0.46205(2) 0.49261(2)
Cu1E Cu 0.67940(2) 0.46205(2) 0.00739(2)
Cu1F Cu 0.67940(2) 0.53795(2) -0.00739(2)
Cu1H Cu 0.17940(2) 0.46205(2) 0.49261(2)
Cu1J Cu 0.82060(2) 0.96205(2) 0.50739(2)
Cu1K Cu 0.17940(2) 0.53795(2) 0.50739(2)
Cu1M Cu 0.32060(2) 0.53795(2) -0.00739(2)
Cu1N Cu 0.32060(2) 0.46205(2) 0.00739(2)
O1E O 0.88843(8) 0.52943(6) 0.56722(12)
O1F O 0.88843(8) 0.47057(6) 0.43278(12)
O2E O 0.87139(8) 0.46957(6) 0.58416(11)
O2F O 0.87139(8) 0.53043(6) 0.41584(11)
O3C O 0.75493(8) 0.46567(5) 0.55682(11)
O4C O 0.77098(8) 0.52289(6) 0.59372(11)
N1C N 0.82111(10) 0.40575(7) 0.48353(15)
loop_
_geom_bond_atom_site_label_1
_geom_bond_atom_site_label_2
_geom_bond_site_symmetry_1
_geom_bond_site_symmetry_2
Cu1 O3 1_555 1_555
O1 C1 1_555 1_555
O2 C1 1_555 1_555
O3 C6 1_555 1_555
O4 C6 1_555 1_555
N1 Cu1 1_555 1_555
C1 C2 1_555 1_555
C2 C3 1_555 1_555
C3 H1 1_555 1_555
C4 C2 1_555 1_555
C5 C4 1_555 1_555
H2 C5 1_555 1_555
C6 C9 1_555 1_555
C7 H3 1_555 1_555
C8 C4 1_555 1_555
C9 C7 1_555 1_555
C10 C7 1_555 1_555
H4 C10 1_555 1_555
C11 C8 1_555 1_555
H5 C11 1_555 1_555
C12 C9 1_555 1_555
H6 C12 1_555 1_555
C13 C14 1_555 1_555
C14 C18 1_555 1_555
C15 N1 1_555 1_555
H7 C15 1_555 1_555
C16 C13 1_555 1_555
H8 C16 1_555 1_555
C17 C13 1_555 1_555
H9 C17 1_555 1_555
C18 H10 1_555 1_555
C19 C14 1_555 1_555
H11 C19 1_555 1_555
C20 N1 1_555 1_555
H12 C20 1_555 1_555
O1K C1K 1_555 1_555
O2K C1K 1_555 1_555
O3K C6K 1_555 1_555
O4K C6K 1_555 1_555
C1K C2K 1_555 1_555
C2K C3 1_555 1_555
C4K C5 1_555 1_555
C6K C9K 1_555 1_555
C7K H3K 1_555 1_555
C8K C4K 1_555 1_555
C9K C7K 1_555 1_555
C10K C7K 1_555 1_555
H4K C10K 1_555 1_555
C11K C8K 1_555 1_555
H5K C11K 1_555 1_555
C12K C9K 1_555 1_555
H6K C12K 1_555 1_555
N1J C15J 1_555 1_555
C13J C14J 1_555 1_555
C14J C18J 1_555 1_555
C15J H7J 1_555 1_555
C16J C13J 1_555 1_555
H8J C16J 1_555 1_555
C17J C13J 1_555 1_555
H9J C17J 1_555 1_555
C18J C18 1_555 1_555
H10J C18J 1_555 1_555
C19J C19 1_555 1_555
H11J C19J 1_555 1_555
C20J N1J 1_555 1_555
H12J C20J 1_555 1_555
Cu1C O4 1_555 1_555
Cu1E O1 1_555 1_555
Cu1F O2 1_555 1_555
Cu1H O4K 1_555 1_555
Cu1J N1J 1_555 1_555
Cu1K O3K 1_555 1_555
Cu1M O2K 1_555 1_555
Cu1N O1K 1_555 1_555
O1E Cu1 1_555 1_555
O1F Cu1C 1_555 1_555
O2E Cu1C 1_555 1_555
O2F Cu1 1_555 1_555
O3C Cu1C 1_555 1_555
O4C Cu1 1_555 1_555
N1C Cu1C 1_555 1_555
C8 C10 1_555 1_555
C11 C12 1_555 1_555
C15 C16 1_555 1_555
C17 C20 1_555 1_555
C2K C4K 1_555 1_555
C8K C10K 1_555 1_555
C11K C12K 1_555 1_555
C14J C19J 1_555 1_555
C15J C16J 1_555 1_555
C17J C20J 1_555 1_555

#END
