
#######################################################################
#
#                 Cambridge Crystallographic Data Centre
#                                CCDC 
#
#######################################################################
#
# If this CIF has been generated from an entry in the Cambridge 
# Structural Database, then it will include bibliographic, chemical, 
# crystal, experimental, refinement or atomic coordinate data resulting 
# from the CCDC's data processing and validation procedures.
#
#######################################################################

data_KUTPAS
_symmetry_cell_setting           orthorhombic
_symmetry_space_group_name_H-M   'I m m a'
_symmetry_Int_Tables_number      74
_space_group_name_Hall           '-I 2b 2'
loop_
_symmetry_equiv_pos_site_id
_symmetry_equiv_pos_as_xyz
1 x,y,z
2 -x,1/2-y,z
3 -x,1/2+y,-z
4 x,-y,-z
5 1/2+x,1/2+y,1/2+z
6 1/2-x,-y,1/2+z
7 1/2-x,y,1/2-z
8 1/2+x,1/2-y,1/2-z
9 -x,-y,-z
10 x,1/2+y,-z
11 x,1/2-y,z
12 -x,y,z
13 1/2-x,1/2-y,1/2-z
14 1/2+x,y,1/2-z
15 1/2+x,-y,1/2+z
16 1/2-x,1/2+y,1/2+z
_cell_length_a                   23.989(10)
_cell_length_b                   28.069(9)
_cell_length_c                   18.483(6)
_cell_angle_alpha                90
_cell_angle_beta                 90
_cell_angle_gamma                90
_cell_volume                     12445.5
loop_
_atom_site_label
_atom_site_type_symbol
_atom_site_fract_x
_atom_site_fract_y
_atom_site_fract_z
Zn1 Zn 0.81924(2) 0.55172(2) 0.49450(2)
O1 O 0.61238(11) 0.46049(10) 0.93392(14)
O2 O 0.62968(11) 0.53761(10) 0.91571(14)
O3 O 0.75236(11) 0.54227(10) 0.55814(14)
O4 O 0.76930(11) 0.46674(10) 0.59262(14)
N1 N 0.81938(11) 0.62332(13) 0.49047(16)
C1 C 0.60231(15) 0.50008(13) 0.90518(17)
C2 C 0.55125(15) 0.50245(12) 0.85876(19)
C3 C 0.5000 0.49773(19) 0.8922(3)
H1 H 0.5000 0.4908 0.9414
C4 C 0.61214(16) 0.54941(16) 0.6885(2)
H2 H 0.5871 0.5746 0.6841
C5 C 0.74309(15) 0.50480(13) 0.59617(19)
C6 C 0.82009(16) 0.72340(15) 0.4877(2)
C7 C 0.69542(16) 0.50787(15) 0.6481(2)
C8 C 0.68716(16) 0.47506(19) 0.7011(2)
H3 H 0.7124 0.4502 0.7064
C9 C 0.65784(16) 0.54728(16) 0.6433(2)
H4 H 0.6642 0.5714 0.6098
C10 C 0.60281(17) 0.51393(16) 0.7413(2)
C11 C 0.55120(16) 0.51282(17) 0.7850(2)
C12 C 0.64187(16) 0.47798(17) 0.7473(2)
H5 H 0.6376 0.4551 0.7834
C13 C 0.5000 0.5185(2) 0.7499(3)
H6 H 0.5000 0.5264 0.7010
C14 C 0.77615(18) 0.64955(18) 0.5118(3)
H7 H 0.7444 0.6335 0.5271
C15 C 0.8641(2) 0.69648(18) 0.4624(4)
H8 H 0.8953 0.7116 0.4435
C16 C 0.7749(2) 0.69734(18) 0.5128(3)
H9 H 0.7436 0.7131 0.5305
C17 C 0.8624(2) 0.65008(19) 0.4645(4)
H10 H 0.8933 0.6338 0.4469
O1K O 0.38762(11) 0.46049(10) 0.93392(14)
O2K O 0.37032(11) 0.53761(10) 0.91571(14)
O3K O 0.24764(11) 0.54227(10) 0.55814(14)
O4K O 0.23070(11) 0.46674(10) 0.59262(14)
C1K C 0.39769(15) 0.50008(13) 0.90518(17)
C2K C 0.44875(15) 0.50245(12) 0.85876(19)
C4K C 0.38786(16) 0.54941(16) 0.6885(2)
H2K H 0.4129 0.5746 0.6841
C5K C 0.25691(15) 0.50480(13) 0.59617(19)
C7K C 0.30458(16) 0.50787(15) 0.6481(2)
C8K C 0.31284(16) 0.47506(19) 0.7011(2)
H3K H 0.2876 0.4502 0.7064
C9K C 0.34216(16) 0.54728(16) 0.6433(2)
H4K H 0.3358 0.5714 0.6098
C10K C 0.39719(17) 0.51393(16) 0.7413(2)
C11K C 0.44880(16) 0.51282(17) 0.7850(2)
C12K C 0.35813(16) 0.47798(17) 0.7473(2)
H5K H 0.3624 0.4551 0.7834
N1J N 0.81938(11) 0.87668(13) 0.49047(16)
C6J C 0.82009(16) 0.77660(15) 0.4877(2)
C14J C 0.77615(18) 0.85045(18) 0.5118(3)
H7J H 0.7444 0.8665 0.5271
C15J C 0.8641(2) 0.80352(18) 0.4624(4)
H8J H 0.8953 0.7884 0.4435
C16J C 0.7749(2) 0.80266(18) 0.5128(3)
H9J H 0.7436 0.7869 0.5305
C17J C 0.8624(2) 0.84992(19) 0.4645(4)
H10J H 0.8933 0.8662 0.4469
Zn1C Zn 0.81924(2) 0.44828(2) 0.50550(2)
Zn1E Zn 0.68076(2) 0.44828(2) 0.99450(2)
Zn1F Zn 0.68076(2) 0.55172(2) 1.00550(2)
Zn1H Zn 0.18076(2) 0.44828(2) 0.50550(2)
Zn1J Zn 0.81924(2) 0.94828(2) 0.49450(2)
Zn1K Zn 0.18076(2) 0.55172(2) 0.49450(2)
Zn1M Zn 0.31924(2) 0.55172(2) 1.00550(2)
Zn1N Zn 0.31924(2) 0.44828(2) 0.99450(2)
O1E O 0.88762(11) 0.53951(10) 0.43392(14)
O1F O 0.88762(11) 0.46049(10) 0.56608(14)
O2E O 0.87032(11) 0.46239(10) 0.41571(14)
O2F O 0.87032(11) 0.53761(10) 0.58429(14)
O3C O 0.75236(11) 0.45773(10) 0.44186(14)
O4C O 0.76930(11) 0.53326(10) 0.40738(14)
N1C N 0.81938(11) 0.37668(13) 0.50953(16)
loop_
_geom_bond_atom_site_label_1
_geom_bond_atom_site_label_2
_geom_bond_site_symmetry_1
_geom_bond_site_symmetry_2
Zn1 O3 1_555 1_555
O1 C1 1_555 1_555
O2 C1 1_555 1_555
O3 C5 1_555 1_555
O4 C5 1_555 1_555
N1 Zn1 1_555 1_555
C1 C2 1_555 1_555
C2 C3 1_555 1_555
C3 H1 1_555 1_555
C4 H2 1_555 1_555
C5 C7 1_555 1_555
C6 C15 1_555 1_555
C7 C8 1_555 1_555
C8 H3 1_555 1_555
C9 C4 1_555 1_555
H4 C9 1_555 1_555
C10 C4 1_555 1_555
C11 C2 1_555 1_555
C12 C8 1_555 1_555
H5 C12 1_555 1_555
C13 C11 1_555 1_555
H6 C13 1_555 1_555
C14 N1 1_555 1_555
H7 C14 1_555 1_555
C15 H8 1_555 1_555
C16 C6 1_555 1_555
H9 C16 1_555 1_555
C17 N1 1_555 1_555
H10 C17 1_555 1_555
O1K C1K 1_555 1_555
O2K C1K 1_555 1_555
O3K C5K 1_555 1_555
O4K C5K 1_555 1_555
C1K C2K 1_555 1_555
C2K C3 1_555 1_555
C4K H2K 1_555 1_555
C5K C7K 1_555 1_555
C7K C8K 1_555 1_555
C8K H3K 1_555 1_555
C9K C4K 1_555 1_555
H4K C9K 1_555 1_555
C10K C4K 1_555 1_555
C11K C13 1_555 1_555
C12K C8K 1_555 1_555
H5K C12K 1_555 1_555
N1J C14J 1_555 1_555
C6J C6 1_555 1_555
C14J H7J 1_555 1_555
C15J C6J 1_555 1_555
H8J C15J 1_555 1_555
C16J C6J 1_555 1_555
H9J C16J 1_555 1_555
C17J N1J 1_555 1_555
H10J C17J 1_555 1_555
Zn1C O4 1_555 1_555
Zn1E O1 1_555 1_555
Zn1F O2 1_555 1_555
Zn1H O4K 1_555 1_555
Zn1J N1J 1_555 1_555
Zn1K O3K 1_555 1_555
Zn1M O2K 1_555 1_555
Zn1N O1K 1_555 1_555
O1E Zn1 1_555 1_555
O1F Zn1C 1_555 1_555
O2E Zn1C 1_555 1_555
O2F Zn1 1_555 1_555
O3C Zn1C 1_555 1_555
O4C Zn1 1_555 1_555
N1C Zn1C 1_555 1_555
C7 C9 1_555 1_555
C10 C11 1_555 1_555
C10 C12 1_555 1_555
C14 C16 1_555 1_555
C15 C17 1_555 1_555
C2K C11K 1_555 1_555
C7K C9K 1_555 1_555
C10K C11K 1_555 1_555
C10K C12K 1_555 1_555
C14J C16J 1_555 1_555
C15J C17J 1_555 1_555

#END
