
#######################################################################
#
#                 Cambridge Crystallographic Data Centre
#                                CCDC 
#
#######################################################################
#
# If this CIF has been generated from an entry in the Cambridge 
# Structural Database, then it will include bibliographic, chemical, 
# crystal, experimental, refinement or atomic coordinate data resulting 
# from the CCDC's data processing and validation procedures.
#
#######################################################################

data_KUTPEW
_symmetry_cell_setting           triclinic
_symmetry_space_group_name_H-M   'P -1'
_symmetry_Int_Tables_number      2
_space_group_name_Hall           '-P 1'
loop_
_symmetry_equiv_pos_site_id
_symmetry_equiv_pos_as_xyz
1 x,y,z
2 -x,-y,-z
_cell_length_a                   10.148(5)
_cell_length_b                   14.893(5)
_cell_length_c                   15.090(5)
_cell_angle_alpha                95.243(5)
_cell_angle_beta                 108.812(5)
_cell_angle_gamma                108.461(5)
_cell_volume                     1999.58
loop_
_atom_site_label
_atom_site_type_symbol
_atom_site_fract_x
_atom_site_fract_y
_atom_site_fract_z
Zn1 Zn 0.30878(10) 0.15391(6) 0.35326(5)
Zn2 Zn 0.03274(10) 0.19574(6) 0.28666(5)
O1 O 0.0626(6) -0.0513(4) 0.7252(4)
O2 O 0.4780(6) 0.1095(4) 0.3850(4)
C1 C 0.1865(8) 0.2022(5) 0.5936(5)
C2 C 0.5727(10) 0.5500(5) 0.6626(5)
C3 C 0.1810(8) 0.1725(5) 0.7742(5)
O3 O 0.3021(7) 0.1898(4) 0.4846(4)
O4 O 0.0446(7) 0.1634(4) 1.1578(4)
C4 C 0.0839(9) 0.1016(5) 0.6915(5)
O5 O 0.0820(7) 0.2093(4) 0.4320(3)
O6 O 0.8015(8) 0.6718(4) 0.6900(4)
O7 O 0.2558(7) 0.1339(4) 1.2091(4)
O8 O -0.1362(7) 0.2399(4) 0.2603(4)
C5 C 0.2853(9) 0.2753(5) 0.6753(4)
O9 O -0.1473(7) -0.0230(4) 0.6615(4)
C6 C 0.1741(9) 0.1602(5) 0.8684(5)
C7 C 0.1573(9) 0.1450(6) 1.0480(5)
O10 O 0.5948(7) 0.7034(4) 0.6362(4)
C8 C 0.3851(9) 0.3661(5) 0.6674(5)
C9 C 0.5321(10) 0.4120(5) 0.7366(5)
H1 H 0.5671 0.3821 0.7857
C10 C 0.4290(11) 0.5044(6) 0.5945(6)
H2 H 0.3937 0.5358 0.5468
C11 C 0.0326(9) 0.1301(6) 0.9694(5)
H3 H -0.0587 0.1174 0.9767
C12 C 0.3023(10) 0.1760(6) 0.9471(5)
H4 H 0.3943 0.1924 0.9401
C13 C 0.0854(9) 0.1178(5) 0.6020(5)
H5 H 0.0178 0.0713 0.5470
C14 C 0.1920(9) 0.2021(5) 0.4943(5)
C15 C 0.2767(9) 0.2567(5) 0.7631(5)
H6 H 0.3400 0.3045 0.8179
C16 C 0.0377(10) 0.1332(6) 0.8801(5)
H7 H -0.0505 0.1172 0.8272
C17 C 0.6233(10) 0.5004(6) 0.7318(6)
H8 H 0.7213 0.5278 0.7758
C18 C 0.6653(11) 0.6495(5) 0.6622(5)
C19 C 0.3355(11) 0.4125(6) 0.5954(6)
H9 H 0.2405 0.3828 0.5479
C20 C 0.2947(10) 0.1676(6) 1.0362(5)
H10 H 0.3811 0.1769 1.0883
C21 C -0.0073(9) 0.0020(5) 0.6945(5)
C22 C 0.1548(10) 0.1473(5) 1.1452(5)
N1 N -0.213(3) 0.3702(18) 0.2601(15)
C23 C 0.7097(11) 0.0400(7) 0.4278(6)
H11 H 0.7647 -0.0023 0.4314
H12 H 0.7596 0.0979 0.4104
H13 H 0.7038 0.0566 0.4891
C24 C 0.4618(16) 0.0336(9) 0.3373(9)
H14 H 0.3739 0.0033 0.2839
N2 N 0.5610(13) -0.0083(8) 0.3568(8)
C25 C 0.547(3) -0.094(2) 0.290(2)
H15 H 0.6308 -0.1135 0.3172
H16 H 0.4559 -0.1467 0.2792
H17 H 0.5467 -0.0773 0.2297
C26 C -0.146(5) 0.479(2) 0.289(3)
H18 H -0.2252 0.5039 0.2755
H19 H -0.0868 0.4982 0.3563
H20 H -0.0845 0.5036 0.2535
C27 C -0.0947(17) 0.3335(10) 0.2804(9)
H21 H 0.0056 0.3741 0.3063
C28 C -0.3410 0.3022 0.2824
H22 H -0.4212 0.3262 0.2690
H23 H -0.3764 0.2385 0.2433
H24 H -0.3058 0.2993 0.3488
Zn1_2 Zn 0.30878(10) 0.15391(6) 1.35326(5)
Zn1A Zn -0.30878(10) -0.15391(6) 0.64674(5)
Zn1A_2 Zn 0.69122(10) 0.84609(6) 0.64674(5)
Zn2_2 Zn 0.03274(10) 0.19574(6) 1.28666(5)
Zn2A Zn -0.03274(10) -0.19574(6) 0.71334(5)
Zn2A_2 Zn 0.96726(10) 0.80426(6) 0.71334(5)
O1A O -0.0626(6) 0.0513(4) 0.2748(4)
O4_2 O 0.0446(7) 0.1634(4) 0.1578(4)
O6A O 0.1985(8) 0.3282(4) 0.3100(4)
O7_2 O 0.2558(7) 0.1339(4) 0.2091(4)
O9A O 0.1473(7) 0.0230(4) 0.3385(4)
O10A O 0.4052(7) 0.2966(4) 0.3638(4)
loop_
_geom_bond_atom_site_label_1
_geom_bond_atom_site_label_2
_geom_bond_site_symmetry_1
_geom_bond_site_symmetry_2
Zn1 O2 1_555 1_555
Zn2 O5 1_555 1_555
O1 C21 1_555 1_555
O2 C24 1_555 1_555
C1 C5 1_555 1_555
C2 C10 1_555 1_555
C3 C4 1_555 1_555
O3 Zn1 1_555 1_555
O4 C22 1_555 1_555
C4 C13 1_555 1_555
O5 C14 1_555 1_555
O6 C18 1_555 1_555
O7 C22 1_555 1_555
O8 Zn2 1_555 1_555
C5 C8 1_555 1_555
O9 C21 1_555 1_555
C6 C3 1_555 1_555
C7 C11 1_555 1_555
O10 C18 1_555 1_555
C8 C9 1_555 1_555
C9 H1 1_555 1_555
C10 H2 1_555 1_555
C11 H3 1_555 1_555
C12 C6 1_555 1_555
H4 C12 1_555 1_555
C13 C1 1_555 1_555
H5 C13 1_555 1_555
C14 C1 1_555 1_555
C15 C3 1_555 1_555
H6 C15 1_555 1_555
C16 C6 1_555 1_555
H7 C16 1_555 1_555
C17 C2 1_555 1_555
H8 C17 1_555 1_555
C18 C2 1_555 1_555
C19 C8 1_555 1_555
H9 C19 1_555 1_555
C20 C7 1_555 1_555
H10 C20 1_555 1_555
C21 C4 1_555 1_555
C22 C7 1_555 1_555
N1 C26 1_555 1_555
C23 H11 1_555 1_555
H12 C23 1_555 1_555
H13 C23 1_555 1_555
C24 H14 1_555 1_555
N2 C23 1_555 1_555
C25 N2 1_555 1_555
H15 C25 1_555 1_555
H16 C25 1_555 1_555
H17 C25 1_555 1_555
C26 H18 1_555 1_555
H19 C26 1_555 1_555
H20 C26 1_555 1_555
C27 O8 1_555 1_555
H21 C27 1_555 1_555
C28 N1 1_555 1_555
H22 C28 1_555 1_555
H23 C28 1_555 1_555
H24 C28 1_555 1_555
Zn1_2 O7 1_555 1_555
Zn1A O9 1_555 1_555
Zn1A_2 O10 1_555 1_555
Zn2_2 O4 1_555 1_555
Zn2A O1 1_555 1_555
Zn2A_2 O6 1_555 1_555
O1A Zn2 1_555 1_555
O4_2 Zn2 1_555 1_555
O6A Zn2 1_555 1_555
O7_2 Zn1 1_555 1_555
O9A Zn1 1_555 1_555
O10A Zn1 1_555 1_555
O3 C14 1_555 1_555
C5 C15 1_555 1_555
C9 C17 1_555 1_555
C10 C19 1_555 1_555
C11 C16 1_555 1_555
C12 C20 1_555 1_555
N1 C27 1_555 1_555
C24 N2 1_555 1_555

#END
