
#######################################################################
#
#                 Cambridge Crystallographic Data Centre
#                                CCDC 
#
#######################################################################
#
# If this CIF has been generated from an entry in the Cambridge 
# Structural Database, then it will include bibliographic, chemical, 
# crystal, experimental, refinement or atomic coordinate data resulting 
# from the CCDC's data processing and validation procedures.
#
#######################################################################

data_KUTRUO
_symmetry_cell_setting           monoclinic
_symmetry_space_group_name_H-M   'C 2/c'
_symmetry_Int_Tables_number      15
_space_group_name_Hall           '-C 2yn'
loop_
_symmetry_equiv_pos_site_id
_symmetry_equiv_pos_as_xyz
1 x,y,z
2 -x,y,1/2-z
3 1/2+x,1/2+y,z
4 1/2-x,1/2+y,1/2-z
5 -x,-y,-z
6 x,-y,1/2+z
7 1/2-x,1/2-y,-z
8 1/2+x,1/2-y,1/2+z
_cell_length_a                   17.317(5)
_cell_length_b                   25.397(5)
_cell_length_c                   21.540(5)
_cell_angle_alpha                90
_cell_angle_beta                 94.431(5)
_cell_angle_gamma                90
_cell_volume                     9444.97
loop_
_atom_site_label
_atom_site_type_symbol
_atom_site_fract_x
_atom_site_fract_y
_atom_site_fract_z
Na1 Na -0.3760(5) 0.1407(3) -0.2792(3)
O10 O -0.5000 0.1160(5) -0.2500
O11 O -0.3783(5) 0.1962(4) -0.3875(5)
O12 O -0.3446(11) 0.2135(7) -0.2219(7)
O13 O -0.3786(15) 0.0900(9) -0.3508(12)
O14 O -0.2415(17) 0.1518(12) -0.2655(14)
O15 O -0.263(4) 0.081(2) -0.245(3)
O16 O -0.4193(18) 0.0677(13) -0.2207(16)
Na1A Na -0.6240(5) 0.1407(3) -0.2208(3)
O11A O -0.6217(5) 0.1962(4) -0.1125(5)
O12A O -0.6554(11) 0.2135(7) -0.2781(7)
O13A O -0.6214(15) 0.0900(9) -0.1492(12)
O14A O -0.7585(17) 0.1518(12) -0.2345(14)
O15A O -0.737(4) 0.081(2) -0.255(3)
O16A O -0.5807(18) 0.0677(13) -0.2793(16)
C1 C -0.1270(3) -0.1897(2) -0.4344(3)
H1 H -0.1718 -0.2072 -0.4523
C2 C -0.0685(4) -0.2188(2) -0.4040(4)
H2 H -0.0730 -0.2560 -0.4014
C3 C -0.0054(4) -0.1944(3) -0.3782(4)
H3 H 0.0348 -0.2143 -0.3568
C4 C 0.0009(4) -0.1408(3) -0.3827(4)
H4 H 0.0459 -0.1233 -0.3652
C5 C -0.0587(3) -0.1128(2) -0.4127(3)
C6 C -0.0595(3) -0.0544(2) -0.4178(3)
C7 C -0.1343(3) 0.01796(19) -0.4539(3)
C8 C -0.1278(4) 0.0464(2) -0.5087(3)
H5 H -0.1100 0.0296 -0.5443
C9 C -0.1476(3) 0.0994(2) -0.5108(3)
H6 H -0.1421 0.1189 -0.5478
C10 C -0.1750(3) 0.12379(19) -0.4605(3)
C11 C -0.1806(4) 0.0957(2) -0.4058(3)
H7 H -0.1982 0.1128 -0.3703
C12 C -0.1609(4) 0.0430(2) -0.4025(3)
H8 H -0.1655 0.0239 -0.3650
C13 C -0.1959(3) 0.1810(2) -0.4644(3)
C14 C -0.9300(4) 0.0862(2) -0.4278(3)
H9 H -0.9503 0.0566 -0.4504
C15 C -0.9701(4) 0.1059(3) -0.3796(3)
H10 H -1.0178 0.0905 -0.3702
C16 C -0.9401(5) 0.1477(3) -0.3459(4)
H11 H -0.9668 0.1622 -0.3130
C17 C -0.8696(5) 0.1685(3) -0.3607(3)
H12 H -0.8469 0.1968 -0.3370
C18 C -0.8331(4) 0.1481(2) -0.4094(3)
C19 C -0.7587(3) 0.1683(2) -0.4286(3)
C20 C -0.6608(3) 0.1576(2) -0.4974(3)
C21 C -0.5982(4) 0.1289(3) -0.4753(4)
H13 H -0.6038 0.0997 -0.4486
C22 C -0.5232(4) 0.1442(3) -0.4936(4)
H14 H -0.4788 0.1252 -0.4776
C23 C -0.5143(4) 0.1849(3) -0.5332(4)
C24 C -0.5770(5) 0.2123(3) -0.5543(5)
H15 H -0.5716 0.2408 -0.5821
C25 C -0.6495(4) 0.1993(3) -0.5359(4)
H16 H -0.6929 0.2200 -0.5506
C26 C -0.4339(6) 0.1999(3) -0.5558(4)
C27 C -0.2588(5) 0.0226(2) -1.0864(3)
H17 H -0.2282 0.0413 -1.1137
C28 C -0.3022(6) -0.0201(3) -1.1084(4)
H18 H -0.3010 -0.0306 -1.1506
C29 C -0.3463(8) -0.0468(4) -1.0701(5)
H19 H -0.3748 -0.0769 -1.0846
C30 C -0.3491(6) -0.0294(3) -1.0093(4)
H20 H -0.3807 -0.0471 -0.9816
C31 C -0.3059(4) 0.0134(2) -0.9896(3)
C32 C -0.3057(4) 0.0346(2) -0.9263(3)
C33 C -0.2521(3) 0.0999(2) -0.8569(2)
C34 C -0.3158(4) 0.1276(3) -0.8400(3)
H21 H -0.3620 0.1286 -0.8669
C35 C -0.3120(4) 0.1538(3) -0.7836(4)
H22 H -0.3557 0.1729 -0.7718
C36 C -0.2430(4) 0.1526(3) -0.7432(3)
C37 C -0.1848(4) 0.1227(3) -0.7609(3)
H23 H -0.1385 0.1205 -0.7343
C38 C -0.1893(4) 0.0950(3) -0.8157(3)
H24 H -0.1482 0.0722 -0.8249
C39 C -0.2387(4) 0.1819(3) -0.6832(3)
Co1 Co -0.19396(4) -0.09018(2) -0.48474(3)
N1 N -0.1222(3) -0.13715(16) -0.4393(2)
N2 N -0.1190(3) -0.03721(16) -0.4527(2)
N3 N -0.8636(3) 0.10754(16) -0.4435(2)
N4 N -0.7371(3) 0.14523(16) -0.4795(2)
N5 N -0.2595(3) 0.03795(17) -1.0264(2)
N6 N -0.2559(3) 0.07455(17) -0.9163(2)
O1 O -0.0076(3) -0.02743(18) -0.3911(3)
O2 O -0.2007(2) 0.20202(16) -0.5173(2)
O3 O -0.2059(3) 0.20535(15) -0.4150(2)
O4 O -0.7223(3) 0.20300(19) -0.3979(2)
O5 O -0.4323(5) 0.2296(4) -0.5992(4)
O6 O -0.3783(4) 0.1828(2) -0.5261(4)
O7 O -0.3470(3) 0.0147(2) -0.8875(2)
O8 O -0.1821(4) 0.2095(4) -0.6702(3)
O9 O -0.2954(3) 0.1795(2) -0.6520(2)
Zn1 Zn -0.29467(4) 0.21700(2) -0.57292(3)
Co1D Co -0.80604(4) 0.09018(2) -0.51526(3)
Co1E Co -0.19396(4) 0.09018(2) -0.98474(3)
N3D N -0.1364(3) -0.10754(16) -0.5565(2)
N4D N -0.2629(3) -0.14523(16) -0.5205(2)
N5E N -0.2595(3) -0.03795(17) -0.5264(2)
N6E N -0.2559(3) -0.07455(17) -0.4163(2)
O3F O -0.2941(3) 0.29465(15) -0.5850(2)
Zn1F Zn -0.20533(4) 0.28300(2) -0.42708(3)
loop_
_geom_bond_atom_site_label_1
_geom_bond_atom_site_label_2
_geom_bond_site_symmetry_1
_geom_bond_site_symmetry_2
C1 H1 1_555 1_555
C2 C1 1_555 1_555
H2 C2 1_555 1_555
C3 C2 1_555 1_555
H3 C3 1_555 1_555
C4 C3 1_555 1_555
H4 C4 1_555 1_555
C5 C4 1_555 1_555
C6 C5 1_555 1_555
C7 C8 1_555 1_555
C8 H5 1_555 1_555
C9 C8 1_555 1_555
H6 C9 1_555 1_555
C10 C9 1_555 1_555
C11 C10 1_555 1_555
H7 C11 1_555 1_555
C12 C7 1_555 1_555
H8 C12 1_555 1_555
C13 C10 1_555 1_555
C14 H9 1_555 1_555
C15 C14 1_555 1_555
H10 C15 1_555 1_555
C16 C15 1_555 1_555
H11 C16 1_555 1_555
C17 C16 1_555 1_555
H12 C17 1_555 1_555
C18 C17 1_555 1_555
C19 C18 1_555 1_555
C20 C21 1_555 1_555
C21 H13 1_555 1_555
C22 C21 1_555 1_555
H14 C22 1_555 1_555
C23 C22 1_555 1_555
C24 C23 1_555 1_555
H15 C24 1_555 1_555
C25 C20 1_555 1_555
H16 C25 1_555 1_555
C26 C23 1_555 1_555
C27 H17 1_555 1_555
C28 C27 1_555 1_555
H18 C28 1_555 1_555
C29 C28 1_555 1_555
H19 C29 1_555 1_555
C30 C29 1_555 1_555
H20 C30 1_555 1_555
C31 C30 1_555 1_555
C32 C31 1_555 1_555
C33 C34 1_555 1_555
C34 H21 1_555 1_555
C35 C34 1_555 1_555
H22 C35 1_555 1_555
C36 C35 1_555 1_555
C37 C36 1_555 1_555
H23 C37 1_555 1_555
C38 C33 1_555 1_555
H24 C38 1_555 1_555
C39 C36 1_555 1_555
Co1 N1 1_555 1_555
N1 C1 1_555 1_555
N2 C6 1_555 1_555
N3 C14 1_555 1_555
N4 C19 1_555 1_555
N5 C27 1_555 1_555
N6 C32 1_555 1_555
O1 C6 1_555 1_555
O2 C13 1_555 1_555
O3 C13 1_555 1_555
O4 C19 1_555 1_555
O5 C26 1_555 1_555
O6 C26 1_555 1_555
O7 C32 1_555 1_555
O8 C39 1_555 1_555
O9 C39 1_555 1_555
Zn1 O2 1_555 1_555
Na1 O10 1_555 1_555
O10 Na1A 1_555 1_555
O11 Na1 1_555 1_555
O12 Na1 1_555 1_555
O13 Na1 1_555 1_555
O14 Na1 1_555 1_555
O15 Na1 1_555 1_555
O16 Na1 1_555 1_555
Co1D N3 1_555 1_555
Co1E N5 1_555 1_555
N3D Co1 1_555 1_555
N4D Co1 1_555 1_555
N5E Co1 1_555 1_555
N6E Co1 1_555 1_555
O3F Zn1 1_555 1_555
Zn1F O3 1_555 1_555
Na1A O11A 1_555 1_555
O12A Na1A 1_555 1_555
O13A Na1A 1_555 1_555
O14A Na1A 1_555 1_555
O15A Na1A 1_555 1_555
O16A Na1A 1_555 1_555
C5 N1 1_555 1_555
C7 N2 1_555 1_555
C11 C12 1_555 1_555
C18 N3 1_555 1_555
C20 N4 1_555 1_555
C24 C25 1_555 1_555
C31 N5 1_555 1_555
C33 N6 1_555 1_555
C37 C38 1_555 1_555
Co1 N2 1_555 1_555
N4 Co1D 1_555 1_555
N6 Co1E 1_555 1_555
O5 Zn1 1_555 1_555
O6 Zn1 1_555 1_555
O9 Zn1 1_555 1_555

#END
