
#######################################################################
#
#                 Cambridge Crystallographic Data Centre
#                                CCDC 
#
#######################################################################
#
# If this CIF has been generated from an entry in the Cambridge 
# Structural Database, then it will include bibliographic, chemical, 
# crystal, experimental, refinement or atomic coordinate data resulting 
# from the CCDC's data processing and validation procedures.
#
#######################################################################

data_KUTRAS
_symmetry_cell_setting           orthorhombic
_symmetry_space_group_name_H-M   'P b c a'
_symmetry_Int_Tables_number      61
_space_group_name_Hall           '-P 2ac 2ab'
loop_
_symmetry_equiv_pos_site_id
_symmetry_equiv_pos_as_xyz
1 x,y,z
2 1/2-x,-y,1/2+z
3 1/2+x,1/2-y,-z
4 -x,1/2+y,1/2-z
5 -x,-y,-z
6 1/2+x,y,1/2-z
7 1/2-x,1/2+y,z
8 x,1/2-y,1/2+z
_cell_length_a                   14.214(1)
_cell_length_b                   11.801(1)
_cell_length_c                   25.597(1)
_cell_angle_alpha                90
_cell_angle_beta                 90
_cell_angle_gamma                90
_cell_volume                     4293.63
loop_
_atom_site_label
_atom_site_type_symbol
_atom_site_fract_x
_atom_site_fract_y
_atom_site_fract_z
Sn1 Sn 0.20611(3) 0.64353(3) 0.13625(2)
Se1 Se 0.36037(5) 0.41647(6) 0.09797(3)
O1 O 0.2900(3) 0.4846(4) 0.1404(2)
O2 O 0.1136(3) 0.7949(4) 0.1302(2)
C1 C 0.0823(5) 0.5414(5) 0.1344(3)
C2 C 0.0154(5) 0.5590(7) 0.0979(4)
C3 C -0.0640(7) 0.4906(9) 0.0943(4)
C4 C -0.0737(7) 0.4012(8) 0.1287(4)
C5 C -0.0078(7) 0.3835(7) 0.1670(4)
C6 C 0.0713(6) 0.4541(6) 0.1700(3)
C7 C 0.2631(6) 0.6950(6) 0.2095(3)
C8 C 0.2286(7) 0.7874(7) 0.2356(3)
C9 C 0.2670(9) 0.8210(10) 0.2834(4)
C10 C 0.3363(9) 0.7604(11) 0.3046(4)
C11 C 0.3744(10) 0.6684(11) 0.2791(4)
C12 C 0.3361(8) 0.6339(8) 0.2320(4)
C13 C 0.2696(5) 0.6848(6) 0.0632(3)
C14 C 0.2482(6) 0.6252(7) 0.0188(3)
C15 C 0.2906(6) 0.6497(8) -0.0288(3)
C16 C 0.3564(7) 0.7353(9) -0.0318(3)
C17 C 0.3805(7) 0.7946(8) 0.0129(3)
C18 C 0.3372(5) 0.7687(7) 0.0595(3)
C19 C 0.4774(6) 0.4957(6) 0.1091(3)
C20 C 0.5242(7) 0.4904(10) 0.1540(5)
C21 C 0.6076(7) 0.5508(9) 0.1591(6)
C22 C 0.6428(9) 0.6115(9) 0.1175(7)
C23 C 0.5938(8) 0.6157(9) 0.0722(6)
C24 C 0.5108(7) 0.5586(8) 0.0664(4)
H1 H 0.0228(5) 0.6215(7) 0.0736(4)
H2 H -0.1114(7) 0.5056(9) 0.0679(4)
H3 H -0.1278(7) 0.3513(8) 0.1259(4)
H4 H -0.0154(7) 0.3218(7) 0.1917(4)
H5 H 0.1180(6) 0.4423(6) 0.1971(3)
H6 H 0.1771(7) 0.8303(7) 0.2205(3)
H7 H 0.2435(9) 0.8881(10) 0.3010(4)
H8 H 0.3602(9) 0.7811(11) 0.3388(4)
H9 H 0.4274(10) 0.6281(11) 0.2941(4)
H10 H 0.3606(8) 0.5672(8) 0.2146(4)
H11 H 0.2027(6) 0.5641(7) 0.0208(3)
H12 H 0.2747(6) 0.6061(8) -0.0597(3)
H13 H 0.3844(7) 0.7547(9) -0.0651(3)
H14 H 0.4277(7) 0.8538(8) 0.0114(3)
H15 H 0.3549(5) 0.8099(7) 0.0908(3)
H16 H 0.5010(7) 0.4451(10) 0.1829(5)
H17 H 0.6415(7) 0.5505(9) 0.1920(6)
H18 H 0.7026(9) 0.6507(9) 0.1206(7)
H19 H 0.6170(8) 0.6611(9) 0.0433(6)
H20 H 0.4765(7) 0.5603(8) 0.0337(4)
O2F O 0.3864(3) 0.2949(4) 0.1302(2)
Se1F Se 0.13963(5) 0.91647(6) 0.09797(3)
Sn1F Sn 0.29389(3) 0.14353(3) 0.13625(2)
O1F O 0.2100(3) 0.9846(4) 0.1404(2)
C19F C 0.0226(6) 0.9957(6) 0.1091(3)
O1F_2 O 0.2100(3) -0.0154(4) 0.1404(2)
C1F C 0.4177(5) 0.0414(5) 0.1344(3)
C7F C 0.2369(6) 0.1950(6) 0.2095(3)
C13F C 0.2304(5) 0.1848(6) 0.0632(3)
Sn1F_2 Sn 0.29389(3) 1.14353(3) 0.13625(2)
C20F C -0.0242(7) 0.9904(10) 0.1540(5)
C24F C -0.0108(7) 1.0586(8) 0.0664(4)
C2F C 0.4846(5) 0.0590(7) 0.0979(4)
C6F C 0.4287(6) -0.0459(6) 0.1700(3)
C8F C 0.2714(7) 0.2874(7) 0.2356(3)
C12F C 0.1639(8) 0.1339(8) 0.2320(4)
C14F C 0.2518(6) 0.1252(7) 0.0188(3)
C18F C 0.1628(5) 0.2687(7) 0.0595(3)
C21F C -0.1076(7) 1.0508(9) 0.1591(6)
H16F H -0.0010(7) 0.9451(10) 0.1829(5)
C23F C -0.0938(8) 1.1157(9) 0.0722(6)
H20F H 0.0235(7) 1.0603(8) 0.0337(4)
C3F C 0.5640(7) -0.0094(9) 0.0943(4)
H1F H 0.4772(5) 0.1215(7) 0.0736(4)
C5F C 0.5078(7) -0.1165(7) 0.1670(4)
H5F H 0.3820(6) -0.0577(6) 0.1971(3)
C9F C 0.2330(9) 0.3210(10) 0.2834(4)
H6F H 0.3229(7) 0.3303(7) 0.2205(3)
C11F C 0.1256(10) 0.1684(11) 0.2791(4)
H10F H 0.1394(8) 0.0672(8) 0.2146(4)
C15F C 0.2094(6) 0.1497(8) -0.0288(3)
H11F H 0.2973(6) 0.0641(7) 0.0208(3)
C17F C 0.1195(7) 0.2946(8) 0.0129(3)
H15F H 0.1451(5) 0.3099(7) 0.0908(3)
C22F C -0.1428(9) 1.1115(9) 0.1175(7)
H17F H -0.1415(7) 1.0505(9) 0.1920(6)
H19F H -0.1170(8) 1.1611(9) 0.0433(6)
C4F C 0.5737(7) -0.0988(8) 0.1287(4)
H2F H 0.6114(7) 0.0056(9) 0.0679(4)
H4F H 0.5154(7) -0.1782(7) 0.1917(4)
C10F C 0.1637(9) 0.2604(11) 0.3046(4)
H7F H 0.2565(9) 0.3881(10) 0.3010(4)
H9F H 0.0726(10) 0.1281(11) 0.2941(4)
C16F C 0.1436(7) 0.2353(9) -0.0318(3)
H12F H 0.2253(6) 0.1061(8) -0.0597(3)
H14F H 0.0723(7) 0.3538(8) 0.0114(3)
H18F H -0.2026(9) 1.1507(9) 0.1206(7)
H3F H 0.6278(7) -0.1487(8) 0.1259(4)
H8F H 0.1398(9) 0.2811(11) 0.3388(4)
H13F H 0.1156(7) 0.2547(9) -0.0651(3)
loop_
_geom_bond_atom_site_label_1
_geom_bond_atom_site_label_2
_geom_bond_site_symmetry_1
_geom_bond_site_symmetry_2
Sn1 O1 1_555 1_555
Se1 O1 1_555 1_555
O2 Sn1 1_555 1_555
C1 Sn1 1_555 1_555
C2 C1 1_555 1_555
C3 C2 1_555 1_555
C4 C3 1_555 1_555
C5 C4 1_555 1_555
C6 C1 1_555 1_555
C7 Sn1 1_555 1_555
C8 C7 1_555 1_555
C9 C8 1_555 1_555
C10 C9 1_555 1_555
C11 C10 1_555 1_555
C12 C7 1_555 1_555
C13 Sn1 1_555 1_555
C14 C13 1_555 1_555
C15 C14 1_555 1_555
C16 C15 1_555 1_555
C17 C16 1_555 1_555
C18 C13 1_555 1_555
C19 Se1 1_555 1_555
C20 C19 1_555 1_555
C21 C20 1_555 1_555
C22 C21 1_555 1_555
C23 C22 1_555 1_555
C24 C19 1_555 1_555
H1 C2 1_555 1_555
H2 C3 1_555 1_555
H3 C4 1_555 1_555
H4 C5 1_555 1_555
H5 C6 1_555 1_555
H6 C8 1_555 1_555
H7 C9 1_555 1_555
H8 C10 1_555 1_555
H9 C11 1_555 1_555
H10 C12 1_555 1_555
H11 C14 1_555 1_555
H12 C15 1_555 1_555
H13 C16 1_555 1_555
H14 C17 1_555 1_555
H15 C18 1_555 1_555
H16 C20 1_555 1_555
H17 C21 1_555 1_555
H18 C22 1_555 1_555
H19 C23 1_555 1_555
H20 C24 1_555 1_555
O2F Se1 1_555 1_555
Se1F O2 1_555 1_555
Sn1F O2F 1_555 1_555
O1F Se1F 1_555 1_555
C19F Se1F 1_555 1_555
O1F_2 Sn1F 1_555 1_555
C1F Sn1F 1_555 1_555
C7F Sn1F 1_555 1_555
C13F Sn1F 1_555 1_555
Sn1F_2 O1F 1_555 1_555
C20F C19F 1_555 1_555
C24F C19F 1_555 1_555
C2F C1F 1_555 1_555
C6F C1F 1_555 1_555
C8F C7F 1_555 1_555
C12F C7F 1_555 1_555
C14F C13F 1_555 1_555
C18F C13F 1_555 1_555
C21F C20F 1_555 1_555
H16F C20F 1_555 1_555
C23F C24F 1_555 1_555
H20F C24F 1_555 1_555
C3F C2F 1_555 1_555
H1F C2F 1_555 1_555
C5F C6F 1_555 1_555
H5F C6F 1_555 1_555
C9F C8F 1_555 1_555
H6F C8F 1_555 1_555
C11F C12F 1_555 1_555
H10F C12F 1_555 1_555
C15F C14F 1_555 1_555
H11F C14F 1_555 1_555
C17F C18F 1_555 1_555
H15F C18F 1_555 1_555
C22F C21F 1_555 1_555
H17F C21F 1_555 1_555
H19F C23F 1_555 1_555
C4F C3F 1_555 1_555
H2F C3F 1_555 1_555
H4F C5F 1_555 1_555
C10F C9F 1_555 1_555
H7F C9F 1_555 1_555
H9F C11F 1_555 1_555
C16F C15F 1_555 1_555
H12F C15F 1_555 1_555
H14F C17F 1_555 1_555
H18F C22F 1_555 1_555
H3F C4F 1_555 1_555
H8F C10F 1_555 1_555
H13F C16F 1_555 1_555
C5 C6 1_555 1_555
C11 C12 1_555 1_555
C17 C18 1_555 1_555
C23 C24 1_555 1_555
C23F C22F 1_555 1_555
C5F C4F 1_555 1_555
C11F C10F 1_555 1_555
C17F C16F 1_555 1_555

#END
