
#######################################################################
#
#                 Cambridge Crystallographic Data Centre
#                                CCDC 
#
#######################################################################
#
# If this CIF has been generated from an entry in the Cambridge 
# Structural Database, then it will include bibliographic, chemical, 
# crystal, experimental, refinement or atomic coordinate data resulting 
# from the CCDC's data processing and validation procedures.
#
#######################################################################

data_KUTSUP
_symmetry_cell_setting           triclinic
_symmetry_space_group_name_H-M   'P -1'
_symmetry_Int_Tables_number      2
_space_group_name_Hall           '-P 1'
loop_
_symmetry_equiv_pos_site_id
_symmetry_equiv_pos_as_xyz
1 x,y,z
2 -x,-y,-z
_cell_length_a                   11.1387(8)
_cell_length_b                   13.7914(10)
_cell_length_c                   19.7302(14)
_cell_angle_alpha                97.262(2)
_cell_angle_beta                 90.221(2)
_cell_angle_gamma                103.555(2)
_cell_volume                     2921.1
loop_
_atom_site_label
_atom_site_type_symbol
_atom_site_fract_x
_atom_site_fract_y
_atom_site_fract_z
Ni1 Ni 0.60196(4) 0.53165(4) 0.32623(3)
Ni2 Ni 0.35343(4) 0.42332(4) 0.24699(3)
Ni3 Ni 0.61069(4) 0.44399(4) 0.17979(3)
Ni4 Ni 0.52097(5) 0.29991(4) 0.29126(3)
O1 O 0.5102(2) 0.53009(19) 0.23529(14)
O2 O 0.4508(2) 0.4174(2) 0.33402(14)
O3 O 0.6113(3) 0.1904(2) 0.2456(2)
O4 O 0.6953(3) 0.3392(3) 0.12052(18)
N1 N 0.8820(3) 0.5064(3) 0.2700(2)
N2 N 0.7732(3) 0.5652(3) 0.18329(18)
N3 N 0.7679(3) 0.6329(3) 0.30275(19)
N4 N 0.5710(3) 0.4894(3) 0.08766(19)
H1 H 0.5850 0.4455 0.0525
H2 H 0.4911 0.4920 0.0852
N5 N 0.5559(3) 0.6575(3) 0.37574(19)
H3 H 0.4779 0.6580 0.3638
H4 H 0.5607 0.6576 0.4213
O5 O 0.6674(2) 0.4162(2) 0.27378(14)
C1 C 0.7728(4) 0.6551(3) 0.2316(2)
H5 H 0.8468 0.7067 0.2264
H6 H 0.7019 0.6809 0.2212
C2 C 0.8840(4) 0.5274(4) 0.2004(2)
H7 H 0.8846 0.4665 0.1699
H8 H 0.9587 0.5774 0.1938
C3 C 0.8785(4) 0.5947(4) 0.3167(2)
H9 H 0.9526 0.6468 0.3125
H10 H 0.8772 0.5786 0.3632
C4 C 0.7951(4) 0.4161(3) 0.2840(2)
H11 H 0.8124 0.3592 0.2548
H12 H 0.8086 0.4062 0.3310
C5 C 0.7793(4) 0.5898(4) 0.1110(2)
H13 H 0.8120 0.5404 0.0822
H14 H 0.8343 0.6554 0.1097
C6 C 0.6518(5) 0.5899(4) 0.0844(2)
H15 H 0.6196 0.6408 0.1121
H16 H 0.6554 0.6049 0.0376
C7 C 0.7709(4) 0.7271(3) 0.3500(2)
H17 H 0.8256 0.7836 0.3327
H18 H 0.8029 0.7213 0.3947
C8 C 0.6415(5) 0.7460(3) 0.3564(3)
H19 H 0.6432 0.8034 0.3906
H20 H 0.6140 0.7611 0.3131
N6 N 0.2931(4) 0.1786(3) 0.1758(2)
N7 N 0.2134(3) 0.2911(3) 0.25884(19)
N8 N 0.3506(3) 0.1914(3) 0.2960(2)
N9 N 0.2324(3) 0.5004(3) 0.29488(19)
H21 H 0.2728 0.5486 0.3276
H22 H 0.1973 0.5297 0.2645
N10 N 0.5621(4) 0.2639(3) 0.3864(2)
H23 H 0.6227 0.2305 0.3831
H24 H 0.5877 0.3203 0.4162
O6 O 0.4584(3) 0.3315(2) 0.19955(14)
C9 C 0.1888(4) 0.2200(4) 0.1936(2)
H25 H 0.1174 0.1658 0.1985
H26 H 0.1698 0.2554 0.1569
C10 C 0.2418(4) 0.2325(3) 0.3131(2)
H27 H 0.2576 0.2758 0.3564
H28 H 0.1710 0.1777 0.3178
C11 C 0.3236(5) 0.1245(3) 0.2291(3)
H29 H 0.3952 0.0984 0.2164
H30 H 0.2551 0.0678 0.2338
C12 C 0.3991(4) 0.2490(3) 0.1498(2)
H31 H 0.4596 0.2118 0.1335
H32 H 0.3705 0.2755 0.1111
C13 C 0.1022(4) 0.3301(4) 0.2765(3)
H33 H 0.0427 0.2802 0.2974
H34 H 0.0639 0.3424 0.2353
C14 C 0.1373(4) 0.4261(4) 0.3253(2)
H35 H 0.0649 0.4528 0.3347
H36 H 0.1691 0.4128 0.3681
C15 C 0.3759(5) 0.1327(3) 0.3497(3)
H37 H 0.4220 0.0847 0.3307
H38 H 0.2983 0.0953 0.3653
C16 C 0.4492(5) 0.2005(4) 0.4101(3)
H39 H 0.3992 0.2426 0.4330
H40 H 0.4709 0.1596 0.4427
S1 S 0.23811(9) 0.51229(8) 0.11388(5)
O7 O 0.3353(3) 0.5523(3) 0.06896(17)
O8 O 0.2079(3) 0.5886(2) 0.16283(16)
O9 O 0.2652(3) 0.4288(2) 0.14580(15)
C17 C 0.0602(4) 0.3577(3) 0.0505(2)
H41 H 0.0977 0.3174 0.0737
C18 C 0.1054(4) 0.4592(3) 0.0588(2)
C19 C 0.0524(3) 0.5235(3) 0.0227(2)
C20 C 0.0972(4) 0.6284(3) 0.0287(2)
H42 H 0.1653 0.6589 0.0577
C21 C 0.0441(5) 0.6863(3) -0.0065(2)
H43 H 0.0764 0.7555 -0.0017
S2 S 0.70360(11) 0.53529(13) 0.49341(7)
O10 O 0.6532(4) 0.4659(5) 0.5383(2)
O11 O 0.6782(4) 0.6350(4) 0.5118(3)
O12 O 0.6795(3) 0.5016(2) 0.42124(16)
C22 C 0.8670(5) 0.3817(4) 0.4883(3)
H44 H 0.7812 0.3632 0.4851
C23 C 0.9348(4) 0.4912(4) 0.4976(2)
C24 C 0.8716(4) 0.5667(4) 0.5026(3)
C25 C 0.9371(5) 0.6623(5) 0.5116(3)
H45 H 0.8952 0.7136 0.5157
C26 C 1.0668(5) 0.6880(4) 0.5151(3)
H46 H 1.1079 0.7555 0.5199
S1A S -0.23811(9) 0.48771(8) -0.11388(5)
O7A O -0.3353(3) 0.4477(3) -0.06896(17)
O8A O -0.2079(3) 0.4114(2) -0.16283(16)
O9A O -0.2652(3) 0.5712(2) -0.14580(15)
C17A C -0.0602(4) 0.6423(3) -0.0505(2)
H41A H -0.0977 0.6826 -0.0737
C18A C -0.1054(4) 0.5408(3) -0.0588(2)
C19A C -0.0524(3) 0.4765(3) -0.0227(2)
C20A C -0.0972(4) 0.3716(3) -0.0287(2)
H42A H -0.1653 0.3411 -0.0577
C21A C -0.0441(5) 0.3137(3) 0.0065(2)
H43A H -0.0764 0.2445 0.0017
S2A S 1.29640(11) 0.46471(13) 0.50659(7)
O10A O 1.3468(4) 0.5341(5) 0.4617(2)
O11A O 1.3218(4) 0.3650(4) 0.4882(3)
O12A O 1.3205(3) 0.4984(2) 0.57876(16)
C22A C 1.1330(5) 0.6183(4) 0.5117(3)
H44A H 1.2188 0.6368 0.5149
C23A C 1.0652(4) 0.5088(4) 0.5024(2)
C24A C 1.1284(4) 0.4333(4) 0.4974(3)
C25A C 1.0629(5) 0.3377(5) 0.4884(3)
H45A H 1.1048 0.2864 0.4843
C26A C 0.9332(5) 0.3120(4) 0.4849(3)
H46A H 0.8921 0.2445 0.4801
Ni1A Ni -0.60196(4) 0.46835(4) -0.32623(3)
Ni2A Ni -0.35343(4) 0.57668(4) -0.24699(3)
Ni3A Ni -0.61069(4) 0.55601(4) -0.17979(3)
Ni4A Ni -0.52097(5) 0.70009(4) -0.29126(3)
O1A O -0.5102(2) 0.46991(19) -0.23529(14)
O2A O -0.4508(2) 0.5826(2) -0.33402(14)
O3A O -0.6113(3) 0.8096(2) -0.2456(2)
O4A O -0.6953(3) 0.6608(3) -0.12052(18)
N1A N -0.8820(3) 0.4936(3) -0.2700(2)
N2A N -0.7732(3) 0.4348(3) -0.18329(18)
N3A N -0.7679(3) 0.3671(3) -0.30275(19)
N4A N -0.5710(3) 0.5106(3) -0.08766(19)
H1A H -0.5850 0.5545 -0.0525
H2A H -0.4911 0.5080 -0.0852
N5A N -0.5559(3) 0.3425(3) -0.37574(19)
H3A H -0.4779 0.3420 -0.3638
H4A H -0.5607 0.3424 -0.4213
O5A O -0.6674(2) 0.5838(2) -0.27378(14)
C1A C -0.7728(4) 0.3449(3) -0.2316(2)
H5A H -0.8468 0.2933 -0.2264
H6A H -0.7019 0.3191 -0.2212
C2A C -0.8840(4) 0.4726(4) -0.2004(2)
H7A H -0.8846 0.5335 -0.1699
H8A H -0.9587 0.4226 -0.1938
C3A C -0.8785(4) 0.4053(4) -0.3167(2)
H9A H -0.9526 0.3532 -0.3125
H10A H -0.8772 0.4214 -0.3632
C4A C -0.7951(4) 0.5839(3) -0.2840(2)
H11A H -0.8124 0.6408 -0.2548
H12A H -0.8086 0.5938 -0.3310
C5A C -0.7793(4) 0.4102(4) -0.1110(2)
H13A H -0.8120 0.4596 -0.0822
H14A H -0.8343 0.3446 -0.1097
C6A C -0.6518(5) 0.4101(4) -0.0844(2)
H15A H -0.6196 0.3592 -0.1121
H16A H -0.6554 0.3951 -0.0376
C7A C -0.7709(4) 0.2729(3) -0.3500(2)
H17A H -0.8256 0.2164 -0.3327
H18A H -0.8029 0.2787 -0.3947
C8A C -0.6415(5) 0.2540(3) -0.3564(3)
H19A H -0.6432 0.1966 -0.3906
H20A H -0.6140 0.2389 -0.3131
N6A N -0.2931(4) 0.8214(3) -0.1758(2)
N7A N -0.2134(3) 0.7089(3) -0.25884(19)
N8A N -0.3506(3) 0.8086(3) -0.2960(2)
N9A N -0.2324(3) 0.4996(3) -0.29488(19)
H21A H -0.2728 0.4514 -0.3276
H22A H -0.1973 0.4703 -0.2645
N10A N -0.5621(4) 0.7361(3) -0.3864(2)
H23A H -0.6227 0.7695 -0.3831
H24A H -0.5877 0.6797 -0.4162
O6A O -0.4584(3) 0.6685(2) -0.19955(14)
C9A C -0.1888(4) 0.7800(4) -0.1936(2)
H25A H -0.1174 0.8342 -0.1985
H26A H -0.1698 0.7446 -0.1569
C10A C -0.2418(4) 0.7675(3) -0.3131(2)
H27A H -0.2576 0.7242 -0.3564
H28A H -0.1710 0.8223 -0.3178
C11A C -0.3236(5) 0.8755(3) -0.2291(3)
H29A H -0.3952 0.9016 -0.2164
H30A H -0.2551 0.9322 -0.2338
C12A C -0.3991(4) 0.7510(3) -0.1498(2)
H31A H -0.4596 0.7882 -0.1335
H32A H -0.3705 0.7245 -0.1111
C13A C -0.1022(4) 0.6699(4) -0.2765(3)
H33A H -0.0427 0.7198 -0.2974
H34A H -0.0639 0.6576 -0.2353
C14A C -0.1373(4) 0.5739(4) -0.3253(2)
H35A H -0.0649 0.5472 -0.3347
H36A H -0.1691 0.5872 -0.3681
C15A C -0.3759(5) 0.8673(3) -0.3497(3)
H37A H -0.4220 0.9153 -0.3307
H38A H -0.2983 0.9047 -0.3653
C16A C -0.4492(5) 0.7995(4) -0.4101(3)
H39A H -0.3992 0.7574 -0.4330
H40A H -0.4709 0.8404 -0.4427
Ni1A_2 Ni 1.39804(4) 0.46835(4) 0.67377(3)
O12A_2 O -0.6795(3) 0.4984(2) -0.42124(16)
S3 S 0.32457(13) 0.83251(10) 0.39017(8)
O13 O 0.3011(4) 0.7307(3) 0.3592(2)
O14 O 0.3364(4) 0.8438(3) 0.4640(2)
O15 O 0.4267(4) 0.8972(3) 0.3599(2)
S4 S -0.12395(12) 0.96292(11) 0.20241(8)
O16 O -0.0905(3) 1.0707(3) 0.2272(2)
O17 O -0.2235(3) 0.9101(3) 0.2400(3)
O18 O -0.1455(5) 0.9423(5) 0.1298(3)
C27 C 0.1918(5) 0.8788(3) 0.3701(3)
C28 C 0.1421(6) 0.9294(4) 0.4242(3)
H47 H 0.1730 0.9337 0.4686
C29 C 0.0447(6) 0.9740(5) 0.4110(3)
H48 H 0.0106 1.0074 0.4471
C30 C 0.0001(5) 0.9691(4) 0.3466(3)
H49 H -0.0654 0.9983 0.3395
C31 C 0.0499(4) 0.9206(3) 0.2895(3)
C32 C 0.1497(4) 0.8750(3) 0.3023(3)
C33 C 0.2028(5) 0.8299(4) 0.2446(3)
H50 H 0.2683 0.8005 0.2515
C34 C 0.1614(6) 0.8286(5) 0.1814(3)
H51 H 0.1984 0.7984 0.1451
C35 C 0.0606(5) 0.8730(4) 0.1675(3)
H52 H 0.0337 0.8729 0.1228
C36 C 0.0060(4) 0.9147(4) 0.2208(3)
O19 O 0.4682(4) 0.7103(3) 0.1889(3)
O20 O -0.4694(4) 0.9179(3) 0.2332(3)
O21 O 0.5727(5) 0.2680(4) -0.0079(2)
O22 O 0.2354(5) 0.8612(4) 0.6668(3)
O23 O 0.3510(5) 0.9878(5) 0.5760(3)
O24 O 0.8195(8) 0.1951(6) 0.1434(4)
O25 O 0.2262(9) 0.0348(7) 0.0536(5)
O26 O 0.3283(9) 0.1654(8) -0.0371(5)
O27 O -0.4670(12) 1.0282(10) 0.1259(7)
O28 O 0.0215(17) -0.0687(13) -0.0370(9)
O29 O 0.3220(18) -0.0864(15) -0.0098(10)
loop_
_geom_bond_atom_site_label_1
_geom_bond_atom_site_label_2
_geom_bond_site_symmetry_1
_geom_bond_site_symmetry_2
Ni1 O1 1_555 1_555
Ni2 O1 1_555 1_555
Ni3 O1 1_555 1_555
Ni4 O2 1_555 1_555
O2 Ni1 1_555 1_555
O3 Ni4 1_555 1_555
O4 Ni3 1_555 1_555
N1 C2 1_555 1_555
N2 Ni3 1_555 1_555
N3 Ni1 1_555 1_555
N4 Ni3 1_555 1_555
H1 N4 1_555 1_555
H2 N4 1_555 1_555
N5 Ni1 1_555 1_555
H3 N5 1_555 1_555
H4 N5 1_555 1_555
O5 Ni1 1_555 1_555
C1 N2 1_555 1_555
H5 C1 1_555 1_555
H6 C1 1_555 1_555
C2 N2 1_555 1_555
H7 C2 1_555 1_555
H8 C2 1_555 1_555
C3 N1 1_555 1_555
H9 C3 1_555 1_555
H10 C3 1_555 1_555
C4 N1 1_555 1_555
H11 C4 1_555 1_555
H12 C4 1_555 1_555
C5 N2 1_555 1_555
H13 C5 1_555 1_555
H14 C5 1_555 1_555
C6 N4 1_555 1_555
H15 C6 1_555 1_555
H16 C6 1_555 1_555
C7 N3 1_555 1_555
H17 C7 1_555 1_555
H18 C7 1_555 1_555
C8 N5 1_555 1_555
H19 C8 1_555 1_555
H20 C8 1_555 1_555
N6 C9 1_555 1_555
N7 Ni2 1_555 1_555
N8 Ni4 1_555 1_555
N9 Ni2 1_555 1_555
H21 N9 1_555 1_555
H22 N9 1_555 1_555
N10 Ni4 1_555 1_555
H23 N10 1_555 1_555
H24 N10 1_555 1_555
O6 Ni2 1_555 1_555
C9 N7 1_555 1_555
H25 C9 1_555 1_555
H26 C9 1_555 1_555
C10 N7 1_555 1_555
H27 C10 1_555 1_555
H28 C10 1_555 1_555
C11 N6 1_555 1_555
H29 C11 1_555 1_555
H30 C11 1_555 1_555
C12 N6 1_555 1_555
H31 C12 1_555 1_555
H32 C12 1_555 1_555
C13 N7 1_555 1_555
H33 C13 1_555 1_555
H34 C13 1_555 1_555
C14 N9 1_555 1_555
H35 C14 1_555 1_555
H36 C14 1_555 1_555
C15 N8 1_555 1_555
H37 C15 1_555 1_555
H38 C15 1_555 1_555
C16 N10 1_555 1_555
H39 C16 1_555 1_555
H40 C16 1_555 1_555
S1 O7 1_555 1_555
O8 S1 1_555 1_555
O9 Ni2 1_555 1_555
C17 H41 1_555 1_555
C18 S1 1_555 1_555
C19 C18 1_555 1_555
C20 C19 1_555 1_555
H42 C20 1_555 1_555
C21 C20 1_555 1_555
H43 C21 1_555 1_555
S2 O10 1_555 1_555
O11 S2 1_555 1_555
O12 Ni1 1_555 1_555
C22 H44 1_555 1_555
C23 C22 1_555 1_555
C24 S2 1_555 1_555
C25 C24 1_555 1_555
H45 C25 1_555 1_555
C26 C25 1_555 1_555
H46 C26 1_555 1_555
S3 O13 1_555 1_555
O14 S3 1_555 1_555
O15 S3 1_555 1_555
S4 O16 1_555 1_555
O17 S4 1_555 1_555
O18 S4 1_555 1_555
C27 S3 1_555 1_555
C28 C27 1_555 1_555
H47 C28 1_555 1_555
C29 C28 1_555 1_555
H48 C29 1_555 1_555
C30 C29 1_555 1_555
H49 C30 1_555 1_555
C31 C30 1_555 1_555
C32 C27 1_555 1_555
C33 C32 1_555 1_555
H50 C33 1_555 1_555
C34 C33 1_555 1_555
H51 C34 1_555 1_555
C35 C34 1_555 1_555
H52 C35 1_555 1_555
C36 S4 1_555 1_555
S1A O7A 1_555 1_555
O8A S1A 1_555 1_555
O9A S1A 1_555 1_555
C17A C21 1_555 1_555
H41A C17A 1_555 1_555
C18A S1A 1_555 1_555
C19A C19 1_555 1_555
C20A C19A 1_555 1_555
H42A C20A 1_555 1_555
C21A C17 1_555 1_555
H43A C21A 1_555 1_555
S2A O10A 1_555 1_555
O11A S2A 1_555 1_555
O12A S2A 1_555 1_555
C22A C26 1_555 1_555
H44A C22A 1_555 1_555
C23A C23 1_555 1_555
C24A S2A 1_555 1_555
C25A C24A 1_555 1_555
H45A C25A 1_555 1_555
C26A C22 1_555 1_555
H46A C26A 1_555 1_555
Ni1A O1A 1_555 1_555
Ni2A O9A 1_555 1_555
Ni3A O1A 1_555 1_555
Ni4A O2A 1_555 1_555
O1A Ni2A 1_555 1_555
O2A Ni1A 1_555 1_555
O3A Ni4A 1_555 1_555
O4A Ni3A 1_555 1_555
N1A C2A 1_555 1_555
N2A Ni3A 1_555 1_555
N3A Ni1A 1_555 1_555
N4A Ni3A 1_555 1_555
H1A N4A 1_555 1_555
H2A N4A 1_555 1_555
N5A Ni1A 1_555 1_555
H3A N5A 1_555 1_555
H4A N5A 1_555 1_555
O5A Ni1A 1_555 1_555
C1A N2A 1_555 1_555
H5A C1A 1_555 1_555
H6A C1A 1_555 1_555
C2A N2A 1_555 1_555
H7A C2A 1_555 1_555
H8A C2A 1_555 1_555
C3A N1A 1_555 1_555
H9A C3A 1_555 1_555
H10A C3A 1_555 1_555
C4A N1A 1_555 1_555
H11A C4A 1_555 1_555
H12A C4A 1_555 1_555
C5A N2A 1_555 1_555
H13A C5A 1_555 1_555
H14A C5A 1_555 1_555
C6A N4A 1_555 1_555
H15A C6A 1_555 1_555
H16A C6A 1_555 1_555
C7A N3A 1_555 1_555
H17A C7A 1_555 1_555
H18A C7A 1_555 1_555
C8A N5A 1_555 1_555
H19A C8A 1_555 1_555
H20A C8A 1_555 1_555
N6A C9A 1_555 1_555
N7A Ni2A 1_555 1_555
N8A Ni4A 1_555 1_555
N9A Ni2A 1_555 1_555
H21A N9A 1_555 1_555
H22A N9A 1_555 1_555
N10A Ni4A 1_555 1_555
H23A N10A 1_555 1_555
H24A N10A 1_555 1_555
O6A Ni2A 1_555 1_555
C9A N7A 1_555 1_555
H25A C9A 1_555 1_555
H26A C9A 1_555 1_555
C10A N7A 1_555 1_555
H27A C10A 1_555 1_555
H28A C10A 1_555 1_555
C11A N6A 1_555 1_555
H29A C11A 1_555 1_555
H30A C11A 1_555 1_555
C12A N6A 1_555 1_555
H31A C12A 1_555 1_555
H32A C12A 1_555 1_555
C13A N7A 1_555 1_555
H33A C13A 1_555 1_555
H34A C13A 1_555 1_555
C14A N9A 1_555 1_555
H35A C14A 1_555 1_555
H36A C14A 1_555 1_555
C15A N8A 1_555 1_555
H37A C15A 1_555 1_555
H38A C15A 1_555 1_555
C16A N10A 1_555 1_555
H39A C16A 1_555 1_555
H40A C16A 1_555 1_555
Ni1A_2 O12A 1_555 1_555
O12A_2 Ni1A 1_555 1_555
Ni2 O2 1_555 1_555
Ni3 O5 1_555 1_555
Ni3 O6 1_555 1_555
Ni4 O5 1_555 1_555
Ni4 O6 1_555 1_555
N3 C1 1_555 1_555
N3 C3 1_555 1_555
O5 C4 1_555 1_555
C5 C6 1_555 1_555
C7 C8 1_555 1_555
N8 C10 1_555 1_555
N8 C11 1_555 1_555
O6 C12 1_555 1_555
C13 C14 1_555 1_555
C15 C16 1_555 1_555
S1 O9 1_555 1_555
C17 C18 1_555 1_555
S2 O12 1_555 1_555
C23 C24 1_555 1_555
C31 C32 1_555 1_555
C31 C36 1_555 1_555
C35 C36 1_555 1_555
C17A C18A 1_555 1_555
C18A C19A 1_555 1_555
C20A C21A 1_555 1_555
C22A C23A 1_555 1_555
C23A C24A 1_555 1_555
C25A C26A 1_555 1_555
Ni2A O2A 1_555 1_555
Ni3A O5A 1_555 1_555
Ni3A O6A 1_555 1_555
Ni4A O5A 1_555 1_555
Ni4A O6A 1_555 1_555
N3A C1A 1_555 1_555
N3A C3A 1_555 1_555
O5A C4A 1_555 1_555
C5A C6A 1_555 1_555
C7A C8A 1_555 1_555
N8A C10A 1_555 1_555
N8A C11A 1_555 1_555
O6A C12A 1_555 1_555
C13A C14A 1_555 1_555
C15A C16A 1_555 1_555

#END
