
#######################################################################
#
#                 Cambridge Crystallographic Data Centre
#                                CCDC 
#
#######################################################################
#
# If this CIF has been generated from an entry in the Cambridge 
# Structural Database, then it will include bibliographic, chemical, 
# crystal, experimental, refinement or atomic coordinate data resulting 
# from the CCDC's data processing and validation procedures.
#
#######################################################################

data_KUVJES
_symmetry_cell_setting           triclinic
_symmetry_space_group_name_H-M   'P -1'
_symmetry_Int_Tables_number      2
_space_group_name_Hall           '-P 1'
loop_
_symmetry_equiv_pos_site_id
_symmetry_equiv_pos_as_xyz
1 x,y,z
2 -x,-y,-z
_cell_length_a                   9.6088(8)
_cell_length_b                   9.7439(8)
_cell_length_c                   11.0648(9)
_cell_angle_alpha                81.842(2)
_cell_angle_beta                 85.131(2)
_cell_angle_gamma                87.5750(10)
_cell_volume                     1021.3
loop_
_atom_site_label
_atom_site_type_symbol
_atom_site_fract_x
_atom_site_fract_y
_atom_site_fract_z
U1 U 0.28849(3) -0.17787(3) 0.96419(3)
U2 U 0.5000 0.0000 0.5000
P1 P 0.5307(2) 0.06983(18) 0.79582(18)
P2 P 0.3104(2) 0.70372(18) 0.65976(18)
O1 O 0.1353(6) -0.0729(6) 0.9654(6)
O2 O 0.4383(6) -0.2896(5) 0.9651(5)
O3 O 0.3410(6) 0.0742(5) 0.5550(5)
O4 O 0.6005(6) 0.0324(5) 0.6755(5)
O5 O 0.6301(6) 0.0525(5) 0.8965(5)
O6 O 0.3986(6) -0.0087(5) 0.8340(5)
O7 O 0.1885(6) 0.6973(5) 0.5766(5)
H1 H 0.2183 0.6655 0.5143
O8 O 0.4316(6) 0.7797(5) 0.5915(5)
O9 O 0.2465(6) 0.7605(5) 0.7722(5)
O10 O 0.7758(5) 0.2855(5) 0.8272(5)
O11 O 0.7953(5) 0.3961(5) 0.6389(5)
O12 O 0.0623(6) 0.3735(7) 0.6535(6)
H2 H 0.1184 0.3650 0.5948
O13 O 0.0535(6) 0.4980(6) 0.8049(5)
O14 O 0.1321(7) -0.3809(7) 0.9865(6)
C1 C 0.4746(7) 0.2523(7) 0.7617(7)
C2 C 0.3304(8) 0.2793(7) 0.7579(7)
H3 H 0.2692 0.2064 0.7751
C3 C 0.2774(8) 0.4161(7) 0.7283(7)
C4 C 0.3697(8) 0.5259(7) 0.6989(7)
C5 C 0.5128(8) 0.4954(7) 0.6991(7)
H4 H 0.5750 0.5670 0.6769
C6 C 0.5660(7) 0.3602(7) 0.7318(6)
C7 C 0.7230(8) 0.3439(7) 0.7337(7)
C8 C 0.1214(7) 0.4333(7) 0.7327(7)
U1A U 0.71151(3) 0.17787(3) 0.03581(3)
P1A P 0.4693(2) -0.06983(18) 0.20418(18)
P2A P 0.6896(2) -0.70372(18) 0.34024(18)
O1A O 0.8647(6) 0.0729(6) 0.0346(6)
O2A O 0.5617(6) 0.2896(5) 0.0349(5)
O3A O 0.6590(6) -0.0742(5) 0.4450(5)
O4A O 0.3995(6) -0.0324(5) 0.3245(5)
O5A O 0.3699(6) -0.0525(5) 0.1035(5)
O6A O 0.6014(6) 0.0087(5) 0.1660(5)
O7A O 0.8115(6) -0.6973(5) 0.4234(5)
H1A H 0.7817 -0.6655 0.4857
O8A O 0.5684(6) -0.7797(5) 0.4085(5)
O9A O 0.7535(6) -0.7605(5) 0.2278(5)
O10A O 0.2242(5) -0.2855(5) 0.1728(5)
O11A O 0.2047(5) -0.3961(5) 0.3611(5)
O12A O 0.9377(6) -0.3735(7) 0.3465(6)
H2A H 0.8816 -0.3650 0.4052
O13A O 0.9465(6) -0.4980(6) 0.1951(5)
O14A O 0.8679(7) 0.3809(7) 0.0135(6)
C1A C 0.5254(7) -0.2523(7) 0.2383(7)
C2A C 0.6696(8) -0.2793(7) 0.2421(7)
H3A H 0.7308 -0.2064 0.2249
C3A C 0.7226(8) -0.4161(7) 0.2717(7)
C4A C 0.6303(8) -0.5259(7) 0.3011(7)
C5A C 0.4872(8) -0.4954(7) 0.3009(7)
H4A H 0.4250 -0.5670 0.3231
C6A C 0.4340(7) -0.3602(7) 0.2682(6)
C7A C 0.2770(8) -0.3439(7) 0.2663(7)
C8A C 0.8786(7) -0.4333(7) 0.2673(7)
U1_2 U 0.28849(3) -0.17787(3) -0.03581(3)
U1_3 U 0.28849(3) 0.82213(3) 0.96419(3)
U1A_2 U 0.71151(3) -0.82213(3) 0.03581(3)
U1A_3 U 0.71151(3) 0.17787(3) 1.03581(3)
U2_2 U 0.5000 -1.0000 0.5000
U2_3 U 0.5000 1.0000 0.5000
O5_2 O 0.6301(6) 0.0525(5) -0.1035(5)
O5A_2 O 0.3699(6) -0.0525(5) 1.1035(5)
O8_2 O 0.4316(6) -0.2203(5) 0.5915(5)
O8A_2 O 0.5684(6) 0.2203(5) 0.4085(5)
O9_2 O 0.2465(6) -0.2395(5) 0.7722(5)
O9A_2 O 0.7535(6) 0.2395(5) 0.2278(5)
O10_2 O 0.7758(5) 0.2855(5) -0.1728(5)
O10A_2 O 0.2242(5) -0.2855(5) 1.1728(5)
O15 O 0.7207(10) 0.6372(10) 0.9425(10)
C9 C 0.9191(13) 0.9361(14) 0.7731(13)
H5 H 0.9227 0.9698 0.8472
C10 C 0.9748(12) 1.0129(12) 0.6688(11)
H6 H 1.0150 1.0976 0.6712
C11 C 0.9696(9) 0.9609(9) 0.5597(8)
C12 C 0.9116(11) 0.8356(11) 0.5612(11)
H7 H 0.9096 0.7984 0.4885
C13 C 0.8563(11) 0.7637(12) 0.6683(13)
H8 H 0.8161 0.6786 0.6679
N1 N 0.8598(10) 0.8149(12) 0.7732(11)
H9 H 0.8241 0.7702 0.8405
C9A C 1.0809(13) 1.0639(14) 0.2269(13)
H5A H 1.0773 1.0302 0.1528
C10A C 1.0252(12) 0.9871(12) 0.3312(11)
H6A H 0.9850 0.9024 0.3288
C11A C 1.0304(9) 1.0391(9) 0.4403(8)
C12A C 1.0884(11) 1.1644(11) 0.4388(11)
H7A H 1.0904 1.2016 0.5115
C13A C 1.1437(11) 1.2363(12) 0.3317(13)
H8A H 1.1839 1.3214 0.3321
N1A N 1.1402(10) 1.1851(12) 0.2268(11)
H9A H 1.1759 1.2298 0.1595
loop_
_geom_bond_atom_site_label_1
_geom_bond_atom_site_label_2
_geom_bond_site_symmetry_1
_geom_bond_site_symmetry_2
U1 O1 1_555 1_555
U2 O3 1_555 1_555
P1 O4 1_555 1_555
P2 O7 1_555 1_555
O2 U1 1_555 1_555
O4 U2 1_555 1_555
O5 P1 1_555 1_555
O6 U1 1_555 1_555
O7 H1 1_555 1_555
O8 P2 1_555 1_555
O9 P2 1_555 1_555
O10 C7 1_555 1_555
O11 C7 1_555 1_555
O12 H2 1_555 1_555
O13 C8 1_555 1_555
O14 U1 1_555 1_555
C1 P1 1_555 1_555
C2 C1 1_555 1_555
H3 C2 1_555 1_555
C3 C2 1_555 1_555
C4 P2 1_555 1_555
C5 C4 1_555 1_555
H4 C5 1_555 1_555
C6 C1 1_555 1_555
C7 C6 1_555 1_555
C8 O12 1_555 1_555
C9 H5 1_555 1_555
C10 C9 1_555 1_555
H6 C10 1_555 1_555
C11 C10 1_555 1_555
C12 C11 1_555 1_555
H7 C12 1_555 1_555
C13 C12 1_555 1_555
H8 C13 1_555 1_555
N1 C9 1_555 1_555
H9 N1 1_555 1_555
U1A O1A 1_555 1_555
P1A O4A 1_555 1_555
P2A O7A 1_555 1_555
O2A U1A 1_555 1_555
O3A U2 1_555 1_555
O4A U2 1_555 1_555
O5A P1A 1_555 1_555
O6A U1A 1_555 1_555
O7A H1A 1_555 1_555
O8A P2A 1_555 1_555
O9A P2A 1_555 1_555
O10A C7A 1_555 1_555
O11A C7A 1_555 1_555
O12A H2A 1_555 1_555
O13A C8A 1_555 1_555
O14A U1A 1_555 1_555
C1A P1A 1_555 1_555
C2A C1A 1_555 1_555
H3A C2A 1_555 1_555
C3A C2A 1_555 1_555
C4A P2A 1_555 1_555
C5A C4A 1_555 1_555
H4A C5A 1_555 1_555
C6A C1A 1_555 1_555
C7A C6A 1_555 1_555
C8A O12A 1_555 1_555
U1_2 O5A 1_555 1_555
U1_3 O9 1_555 1_555
U1A_2 O9A 1_555 1_555
U1A_3 O5 1_555 1_555
U2_2 O8A 1_555 1_555
U2_3 O8 1_555 1_555
O5_2 U1A 1_555 1_555
O5A_2 U1 1_555 1_555
O8_2 U2 1_555 1_555
O8A_2 U2 1_555 1_555
O9_2 U1 1_555 1_555
O9A_2 U1A 1_555 1_555
O10_2 U1A 1_555 1_555
O10A_2 U1 1_555 1_555
C9A H5A 1_555 1_555
C10A C9A 1_555 1_555
H6A C10A 1_555 1_555
C11A C11 1_555 1_555
C12A C11A 1_555 1_555
H7A C12A 1_555 1_555
C13A C12A 1_555 1_555
H8A C13A 1_555 1_555
N1A C9A 1_555 1_555
H9A N1A 1_555 1_555
P1 O6 1_555 1_555
O10 U1A_3 1_555 1_555
C3 C4 1_555 1_555
C3 C8 1_555 1_555
C5 C6 1_555 1_555
C13 N1 1_555 1_555
P1A O6A 1_555 1_555
O10A U1_2 1_555 1_555
C3A C4A 1_555 1_555
C3A C8A 1_555 1_555
C5A C6A 1_555 1_555
C10A C11A 1_555 1_555
C13A N1A 1_555 1_555

#END
