
#######################################################################
#
#                 Cambridge Crystallographic Data Centre
#                                CCDC 
#
#######################################################################
#
# If this CIF has been generated from an entry in the Cambridge 
# Structural Database, then it will include bibliographic, chemical, 
# crystal, experimental, refinement or atomic coordinate data resulting 
# from the CCDC's data processing and validation procedures.
#
#######################################################################

data_KUVLOE
_symmetry_cell_setting           monoclinic
_symmetry_space_group_name_H-M   'P 21/c'
_symmetry_Int_Tables_number      14
_space_group_name_Hall           '-P 2ybc'
loop_
_symmetry_equiv_pos_site_id
_symmetry_equiv_pos_as_xyz
1 x,y,z
2 -x,1/2+y,1/2-z
3 -x,-y,-z
4 x,1/2-y,1/2+z
_cell_length_a                   10.010(5)
_cell_length_b                   14.104(5)
_cell_length_c                   18.255(5)
_cell_angle_alpha                90
_cell_angle_beta                 95.281(5)
_cell_angle_gamma                90
_cell_volume                     2566.32
loop_
_atom_site_label
_atom_site_type_symbol
_atom_site_fract_x
_atom_site_fract_y
_atom_site_fract_z
Cd1 Cd 0.22313(7) 0.37560(5) 0.28669(4)
O1 O -0.6318(7) 0.3083(6) 0.2041(5)
O2 O -0.2839(6) 0.3418(5) 0.2484(4)
O3 O 0.0526(7) 0.2996(6) 0.2162(4)
O4 O -0.0286(8) 0.3856(6) 0.3003(4)
N1 N 0.2040(10) 0.9883(7) 0.7110(5)
N2 N 0.2730(10) 0.2380(6) 0.3576(5)
N3 N 0.2419(9) 0.4747(6) 0.3897(5)
C1 C 0.1386(11) 0.5760(8) 0.4721(6)
H1 H 0.0600 0.5968 0.4904
C2 C -0.3965(10) 0.3120(7) 0.2088(6)
C3 C -0.0422(10) 0.3340(8) 0.2476(6)
C4 C 0.3607(11) 0.5098(7) 0.4160(6)
H2 H 0.4374 0.4874 0.3966
C5 C 0.1909(12) 0.8313(8) 0.6166(6)
C6 C 0.3943(14) 0.0812(8) 0.4319(6)
C7 C 0.3772(14) 0.1673(8) 0.4664(6)
H3 H 0.4075 0.1742 0.5159
C8 C 0.3750(12) 0.5778(8) 0.4706(6)
H4 H 0.4597 0.5994 0.4883
C9 C 0.2590(11) 0.6141(7) 0.4994(5)
C10 C 0.2742(12) 0.6925(7) 0.5529(6)
H5 H 0.3576 0.7012 0.5789
C11 C 0.3168(12) 0.2422(8) 0.4294(6)
H6 H 0.3056 0.2984 0.4548
C12 C 0.1318(11) 0.5084(8) 0.4190(6)
H7 H 0.0482 0.4844 0.4019
C13 C -0.3672(12) 0.2616(10) 0.1512(7)
H8 H -0.4277 0.2348 0.1153
C14 C -0.1797(10) 0.3085(8) 0.2153(6)
C15 C -0.5252(10) 0.3396(8) 0.2369(6)
C16 C 0.1764(12) 0.7510(8) 0.5661(6)
H9 H 0.0922 0.7403 0.5414
C17 C 0.3056(12) 0.8559(7) 0.6571(6)
H10 H 0.3833 0.8206 0.6539
C18 C 0.3393(14) 0.0750(8) 0.3600(7)
H11 H 0.3394 0.0171 0.3355
C19 C -0.2259(12) 0.2568(9) 0.1550(7)
H12 H -0.1746 0.2248 0.1230
C20 C 0.2850(13) 0.1524(7) 0.3245(6)
H13 H 0.2544 0.1467 0.2750
C21 C 0.3071(13) 0.9338(8) 0.7033(6)
H14 H 0.3873 0.9483 0.7308
C22 C 0.0923(15) 0.9628(12) 0.6719(10)
H15 H 0.0158 0.9988 0.6769
C23 C 0.0804(15) 0.8886(11) 0.6252(10)
H16 H -0.0015 0.8757 0.5989
C24 C 0.4623(15) -0.0011(9) 0.4683(7)
H17 H 0.4513 -0.0594 0.4447
O5 O -0.5219(8) 0.3923(5) 0.2931(4)
N2B N 0.7270(10) -0.2380(6) 0.6424(5)
C6B C 0.6057(14) -0.0812(8) 0.5681(6)
C7B C 0.6228(14) -0.1673(8) 0.5336(6)
H3B H 0.5925 -0.1742 0.4841
C11B C 0.6832(12) -0.2422(8) 0.5706(6)
H6B H 0.6944 -0.2984 0.5452
C18B C 0.6607(14) -0.0750(8) 0.6400(7)
H11B H 0.6606 -0.0171 0.6645
C20B C 0.7150(13) -0.1524(7) 0.6755(6)
H13B H 0.7456 -0.1467 0.7250
C24B C 0.5377(15) 0.0011(9) 0.5317(7)
H17B H 0.5487 0.0594 0.5553
Cd1B Cd 0.77687(7) -0.37560(5) 0.71331(4)
O1B O 1.6318(7) -0.3083(6) 0.7959(5)
O2B O 1.2839(6) -0.3418(5) 0.7516(4)
O3B O 0.9474(7) -0.2996(6) 0.7838(4)
O4B O 1.0286(8) -0.3856(6) 0.6997(4)
N1B N 0.7960(10) -0.9883(7) 0.2890(5)
N3B N 0.7581(9) -0.4747(6) 0.6103(5)
C1B C 0.8614(11) -0.5760(8) 0.5279(6)
H1B H 0.9400 -0.5968 0.5096
C2B C 1.3965(10) -0.3120(7) 0.7912(6)
C3B C 1.0422(10) -0.3340(8) 0.7524(6)
C4B C 0.6393(11) -0.5098(7) 0.5840(6)
H2B H 0.5626 -0.4874 0.6034
C5B C 0.8091(12) -0.8313(8) 0.3834(6)
C8B C 0.6250(12) -0.5778(8) 0.5294(6)
H4B H 0.5403 -0.5994 0.5117
C9B C 0.7410(11) -0.6141(7) 0.5006(5)
C10B C 0.7258(12) -0.6925(7) 0.4471(6)
H5B H 0.6424 -0.7012 0.4211
C12B C 0.8682(11) -0.5084(8) 0.5810(6)
H7B H 0.9518 -0.4844 0.5981
C13B C 1.3672(12) -0.2616(10) 0.8488(7)
H8B H 1.4277 -0.2348 0.8847
C14B C 1.1797(10) -0.3085(8) 0.7847(6)
C15B C 1.5252(10) -0.3396(8) 0.7631(6)
C16B C 0.8236(12) -0.7510(8) 0.4339(6)
H9B H 0.9078 -0.7403 0.4586
C17B C 0.6944(12) -0.8559(7) 0.3429(6)
H10B H 0.6167 -0.8206 0.3461
C19B C 1.2259(12) -0.2568(9) 0.8450(7)
H12B H 1.1746 -0.2248 0.8770
C21B C 0.6929(13) -0.9338(8) 0.2967(6)
H14B H 0.6127 -0.9483 0.2692
C22B C 0.9077(15) -0.9628(12) 0.3281(10)
H15B H 0.9842 -0.9988 0.3231
C23B C 0.9196(15) -0.8886(11) 0.3748(10)
H16B H 1.0015 -0.8757 0.4011
O5B O 1.5219(8) -0.3923(5) 0.7069(4)
Cd1_2 Cd -0.77687(7) 0.37560(5) 0.28669(4)
Cd1A Cd 0.77687(7) -1.12440(5) 0.21331(4)
Cd1B_2 Cd 1.77687(7) -0.37560(5) 0.71331(4)
Cd1C Cd 0.22313(7) 1.12440(5) 0.78669(4)
O1_2 O 0.3682(7) 0.3083(6) 0.2041(5)
O1B_2 O 0.6318(7) -0.3083(6) 0.7959(5)
N1A N 0.7960(10) -0.5117(7) 0.7890(5)
N1C N 0.2040(10) 0.5117(7) 0.2110(5)
O5_2 O 0.4781(8) 0.3923(5) 0.2931(4)
O5B_2 O 0.5219(8) -0.3923(5) 0.7069(4)
O6 O 0.3259(10) 0.3297(7) 0.5910(5)
O7 O 0.7298(12) 0.5039(7) 0.3370(6)
O8 O -0.0799(14) 0.7701(14) 0.4391(7)
loop_
_geom_bond_atom_site_label_1
_geom_bond_atom_site_label_2
_geom_bond_site_symmetry_1
_geom_bond_site_symmetry_2
Cd1 O3 1_555 1_555
O1 C15 1_555 1_555
O2 C2 1_555 1_555
O3 C3 1_555 1_555
O4 Cd1 1_555 1_555
N1 C21 1_555 1_555
N2 Cd1 1_555 1_555
N3 Cd1 1_555 1_555
C1 H1 1_555 1_555
C2 C13 1_555 1_555
C3 O4 1_555 1_555
C4 N3 1_555 1_555
H2 C4 1_555 1_555
C5 C16 1_555 1_555
C6 C7 1_555 1_555
C7 H3 1_555 1_555
C8 C4 1_555 1_555
H4 C8 1_555 1_555
C9 C1 1_555 1_555
C10 C9 1_555 1_555
H5 C10 1_555 1_555
C11 N2 1_555 1_555
H6 C11 1_555 1_555
C12 N3 1_555 1_555
H7 C12 1_555 1_555
C13 H8 1_555 1_555
C14 O2 1_555 1_555
C15 C2 1_555 1_555
C16 C10 1_555 1_555
H9 C16 1_555 1_555
C17 C5 1_555 1_555
H10 C17 1_555 1_555
C18 C6 1_555 1_555
H11 C18 1_555 1_555
C19 C13 1_555 1_555
H12 C19 1_555 1_555
C20 N2 1_555 1_555
H13 C20 1_555 1_555
C21 C17 1_555 1_555
H14 C21 1_555 1_555
C22 N1 1_555 1_555
H15 C22 1_555 1_555
C23 C5 1_555 1_555
H16 C23 1_555 1_555
C24 C6 1_555 1_555
H17 C24 1_555 1_555
O5 C15 1_555 1_555
N2B C11B 1_555 1_555
C6B C7B 1_555 1_555
C7B H3B 1_555 1_555
C11B C7B 1_555 1_555
H6B C11B 1_555 1_555
C18B C6B 1_555 1_555
H11B C18B 1_555 1_555
C20B N2B 1_555 1_555
H13B C20B 1_555 1_555
C24B C24 1_555 1_555
H17B C24B 1_555 1_555
Cd1B N2B 1_555 1_555
O1B C15B 1_555 1_555
O2B C2B 1_555 1_555
O3B Cd1B 1_555 1_555
O4B Cd1B 1_555 1_555
N1B C21B 1_555 1_555
N3B Cd1B 1_555 1_555
C1B H1B 1_555 1_555
C2B C13B 1_555 1_555
C3B O3B 1_555 1_555
C4B N3B 1_555 1_555
H2B C4B 1_555 1_555
C5B C16B 1_555 1_555
C8B C4B 1_555 1_555
H4B C8B 1_555 1_555
C9B C1B 1_555 1_555
C10B C9B 1_555 1_555
H5B C10B 1_555 1_555
C12B N3B 1_555 1_555
H7B C12B 1_555 1_555
C13B H8B 1_555 1_555
C14B O2B 1_555 1_555
C15B C2B 1_555 1_555
C16B C10B 1_555 1_555
H9B C16B 1_555 1_555
C17B C5B 1_555 1_555
H10B C17B 1_555 1_555
C19B C13B 1_555 1_555
H12B C19B 1_555 1_555
C21B C17B 1_555 1_555
H14B C21B 1_555 1_555
C22B N1B 1_555 1_555
H15B C22B 1_555 1_555
C23B C5B 1_555 1_555
H16B C23B 1_555 1_555
O5B C15B 1_555 1_555
Cd1_2 O1 1_555 1_555
Cd1A N1B 1_555 1_555
Cd1B_2 O1B 1_555 1_555
Cd1C N1 1_555 1_555
O1_2 Cd1 1_555 1_555
O1B_2 Cd1B 1_555 1_555
N1A Cd1B 1_555 1_555
N1C Cd1 1_555 1_555
O5_2 Cd1 1_555 1_555
O5B_2 Cd1B 1_555 1_555
C1 C12 1_555 1_555
C3 C14 1_555 1_555
C7 C11 1_555 1_555
C8 C9 1_555 1_555
C14 C19 1_555 1_555
C18 C20 1_555 1_555
C22 C23 1_555 1_555
O5 Cd1_2 1_555 1_555
C6B C24B 1_555 1_555
C18B C20B 1_555 1_555
O4B C3B 1_555 1_555
C1B C12B 1_555 1_555
C3B C14B 1_555 1_555
C8B C9B 1_555 1_555
C14B C19B 1_555 1_555
C22B C23B 1_555 1_555
O5B Cd1B_2 1_555 1_555

#END
