
#######################################################################
#
#                 Cambridge Crystallographic Data Centre
#                                CCDC 
#
#######################################################################
#
# If this CIF has been generated from an entry in the Cambridge 
# Structural Database, then it will include bibliographic, chemical, 
# crystal, experimental, refinement or atomic coordinate data resulting 
# from the CCDC's data processing and validation procedures.
#
#######################################################################

data_KUVLIY
_symmetry_cell_setting           monoclinic
_symmetry_space_group_name_H-M   'P 21/n'
_symmetry_Int_Tables_number      14
_space_group_name_Hall           '-P 2yn'
loop_
_symmetry_equiv_pos_site_id
_symmetry_equiv_pos_as_xyz
1 x,y,z
2 1/2-x,1/2+y,1/2-z
3 -x,-y,-z
4 1/2+x,1/2-y,1/2+z
_cell_length_a                   11.7783(9)
_cell_length_b                   9.8847(7)
_cell_length_c                   18.2783(15)
_cell_angle_alpha                90
_cell_angle_beta                 108.294(3)
_cell_angle_gamma                90
_cell_volume                     2020.5
loop_
_atom_site_label
_atom_site_type_symbol
_atom_site_fract_x
_atom_site_fract_y
_atom_site_fract_z
Cd1 Cd 0.65981(2) 0.02598(2) 0.84344(2)
O1 O 0.6719(2) -0.4739(2) 0.89807(13)
O2 O 0.7107(2) -0.1290(3) 0.95262(16)
O3 O 0.6452(3) -0.2195(3) 0.83735(16)
O4 O 0.6431(3) -0.7272(3) 0.83445(16)
O5 O 0.7143(3) -0.8188(3) 0.94940(17)
N1 N 0.5906(2) 0.0224(3) 0.70466(15)
N2 N 0.8571(2) 0.0192(3) 0.83974(16)
N3 N 1.4582(3) 0.0278(4) 0.84089(19)
C1 C 1.0941(3) 0.0205(4) 0.8395(2)
C2 C 0.6875(3) -0.3639(4) 0.9451(2)
C3 C 0.6870(3) -0.5860(4) 0.9438(2)
C4 C 0.5358(4) 0.1260(4) 0.5810(2)
H1 H 0.5230 0.2061 0.5530
C5 C 0.6805(3) -0.7196(4) 0.9062(2)
C6 C 0.5187(3) 0.0050(3) 0.54307(19)
C7 C 0.6808(3) -0.2283(4) 0.9088(2)
C8 C 0.7110(4) -0.4042(4) 1.0186(2)
H2 H 0.7250 -0.3488 1.0617
C9 C 0.7104(4) -0.5478(4) 1.0178(2)
H3 H 0.7237 -0.6046 1.0603
C10 C 1.3086(3) -0.0413(5) 0.8947(2)
H4 H 1.2906 -0.0893 0.9334
C11 C 0.5398(4) -0.1077(4) 0.5891(2)
H5 H 0.5302 -0.1932 0.5668
C12 C 1.4246(3) -0.0364(5) 0.8931(2)
H6 H 1.4829 -0.0817 0.9316
C13 C 1.0013(3) 0.0389(6) 0.7746(2)
H7 H 1.0155 0.0533 0.7279
C14 C 1.2206(3) 0.0236(4) 0.8399(2)
C15 C 0.5753(4) -0.0951(4) 0.6683(2)
H8 H 0.5891 -0.1737 0.6977
C16 C 0.5717(4) 0.1310(4) 0.6604(2)
H9 H 0.5832 0.2155 0.6841
C17 C 0.9470(3) 0.0002(6) 0.9026(2)
H10 H 0.9301 -0.0142 0.9483
C18 C 1.0652(3) 0.0004(6) 0.9053(2)
H11 H 1.1252 -0.0133 0.9519
C19 C 1.2562(4) 0.1000(7) 0.7878(3)
H12 H 1.2007 0.1514 0.7508
C20 C 0.8852(3) 0.0366(5) 0.7771(2)
H13 H 0.8234 0.0483 0.7311
C21 C 1.3747(4) 0.0992(7) 0.7911(3)
H14 H 1.3970 0.1525 0.7560
N1B N 0.4094(2) -0.0224(3) 0.29534(15)
C4B C 0.4642(4) -0.1260(4) 0.4190(2)
H1B H 0.4770 -0.2061 0.4470
C6B C 0.4813(3) -0.0050(3) 0.45693(19)
C11B C 0.4602(4) 0.1077(4) 0.4109(2)
H5B H 0.4698 0.1932 0.4332
C15B C 0.4247(4) 0.0951(4) 0.3317(2)
H8B H 0.4109 0.1737 0.3023
C16B C 0.4283(4) -0.1310(4) 0.3396(2)
H9B H 0.4168 -0.2155 0.3159
Cd1B Cd 0.34019(2) -0.02598(2) 0.15656(2)
O1B O 0.3281(2) 0.4739(2) 0.10193(13)
O2B O 0.2893(2) 0.1290(3) 0.04738(16)
O3B O 0.3548(3) 0.2195(3) 0.16265(16)
O4B O 0.3569(3) 0.7272(3) 0.16555(16)
O5B O 0.2857(3) 0.8188(3) 0.05060(17)
N2B N 0.1429(2) -0.0192(3) 0.16026(16)
N3B N -0.4582(3) -0.0278(4) 0.15911(19)
C1B C -0.0941(3) -0.0205(4) 0.1605(2)
C2B C 0.3125(3) 0.3639(4) 0.0549(2)
C3B C 0.3130(3) 0.5860(4) 0.0562(2)
C5B C 0.3195(3) 0.7196(4) 0.0938(2)
C7B C 0.3192(3) 0.2283(4) 0.0912(2)
C8B C 0.2890(4) 0.4042(4) -0.0186(2)
H2B H 0.2750 0.3488 -0.0617
C9B C 0.2896(4) 0.5478(4) -0.0178(2)
H3B H 0.2763 0.6046 -0.0603
C10B C -0.3086(3) 0.0413(5) 0.1053(2)
H4B H -0.2906 0.0893 0.0666
C12B C -0.4246(3) 0.0364(5) 0.1069(2)
H6B H -0.4829 0.0817 0.0684
C13B C -0.0013(3) -0.0389(6) 0.2254(2)
H7B H -0.0155 -0.0533 0.2721
C14B C -0.2206(3) -0.0236(4) 0.1601(2)
C17B C 0.0530(3) -0.0002(6) 0.0974(2)
H10B H 0.0699 0.0142 0.0517
C18B C -0.0652(3) -0.0004(6) 0.0947(2)
H11B H -0.1252 0.0133 0.0481
C19B C -0.2562(4) -0.1000(7) 0.2122(3)
H12B H -0.2007 -0.1514 0.2492
C20B C 0.1148(3) -0.0366(5) 0.2229(2)
H13B H 0.1766 -0.0483 0.2689
C21B C -0.3747(4) -0.0992(7) 0.2089(3)
H14B H -0.3970 -0.1525 0.2440
Cd1_2 Cd 0.65981(2) -0.97402(2) 0.84344(2)
Cd1_3 Cd 1.65981(2) 0.02598(2) 0.84344(2)
Cd1B_2 Cd -0.65981(2) -0.02598(2) 0.15656(2)
Cd1B_3 Cd 0.34019(2) 0.97402(2) 0.15656(2)
O4_2 O 0.6431(3) 0.2728(3) 0.83445(16)
O4B_2 O 0.3569(3) -0.2728(3) 0.16555(16)
O5_2 O 0.7143(3) 0.1812(3) 0.94940(17)
O5B_2 O 0.2857(3) -0.1812(3) 0.05060(17)
N3_2 N 0.4582(3) 0.0278(4) 0.84089(19)
N3B_2 N 0.5418(3) -0.0278(4) 0.15911(19)
loop_
_geom_bond_atom_site_label_1
_geom_bond_atom_site_label_2
_geom_bond_site_symmetry_1
_geom_bond_site_symmetry_2
Cd1 O2 1_555 1_555
O1 C2 1_555 1_555
O2 C7 1_555 1_555
O3 Cd1 1_555 1_555
O4 C5 1_555 1_555
O5 C5 1_555 1_555
N1 Cd1 1_555 1_555
N2 Cd1 1_555 1_555
N3 C12 1_555 1_555
C1 C13 1_555 1_555
C2 C7 1_555 1_555
C3 O1 1_555 1_555
C4 H1 1_555 1_555
C5 C3 1_555 1_555
C6 C4 1_555 1_555
C7 O3 1_555 1_555
C8 C2 1_555 1_555
H2 C8 1_555 1_555
C9 C3 1_555 1_555
H3 C9 1_555 1_555
C10 H4 1_555 1_555
C11 C6 1_555 1_555
H5 C11 1_555 1_555
C12 C10 1_555 1_555
H6 C12 1_555 1_555
C13 H7 1_555 1_555
C14 C1 1_555 1_555
C15 N1 1_555 1_555
H8 C15 1_555 1_555
C16 N1 1_555 1_555
H9 C16 1_555 1_555
C17 N2 1_555 1_555
H10 C17 1_555 1_555
C18 C1 1_555 1_555
H11 C18 1_555 1_555
C19 C14 1_555 1_555
H12 C19 1_555 1_555
C20 N2 1_555 1_555
H13 C20 1_555 1_555
C21 N3 1_555 1_555
H14 C21 1_555 1_555
N1B C15B 1_555 1_555
C4B H1B 1_555 1_555
C6B C6 1_555 1_555
C11B C6B 1_555 1_555
H5B C11B 1_555 1_555
C15B C11B 1_555 1_555
H8B C15B 1_555 1_555
C16B N1B 1_555 1_555
H9B C16B 1_555 1_555
Cd1B N1B 1_555 1_555
O1B C2B 1_555 1_555
O2B Cd1B 1_555 1_555
O3B Cd1B 1_555 1_555
O4B C5B 1_555 1_555
O5B C5B 1_555 1_555
N2B Cd1B 1_555 1_555
N3B C12B 1_555 1_555
C1B C13B 1_555 1_555
C2B C7B 1_555 1_555
C3B O1B 1_555 1_555
C5B C3B 1_555 1_555
C7B O2B 1_555 1_555
C8B C2B 1_555 1_555
H2B C8B 1_555 1_555
C9B C3B 1_555 1_555
H3B C9B 1_555 1_555
C10B H4B 1_555 1_555
C12B C10B 1_555 1_555
H6B C12B 1_555 1_555
C13B H7B 1_555 1_555
C14B C1B 1_555 1_555
C17B N2B 1_555 1_555
H10B C17B 1_555 1_555
C18B C1B 1_555 1_555
H11B C18B 1_555 1_555
C19B C14B 1_555 1_555
H12B C19B 1_555 1_555
C20B N2B 1_555 1_555
H13B C20B 1_555 1_555
C21B N3B 1_555 1_555
H14B C21B 1_555 1_555
Cd1_2 O4 1_555 1_555
Cd1_3 N3 1_555 1_555
Cd1B_2 N3B 1_555 1_555
Cd1B_3 O4B 1_555 1_555
O4_2 Cd1 1_555 1_555
O4B_2 Cd1B 1_555 1_555
O5_2 Cd1 1_555 1_555
O5B_2 Cd1B 1_555 1_555
N3_2 Cd1 1_555 1_555
N3B_2 Cd1B 1_555 1_555
O5 Cd1_2 1_555 1_555
C4 C16 1_555 1_555
C8 C9 1_555 1_555
C10 C14 1_555 1_555
C11 C15 1_555 1_555
C13 C20 1_555 1_555
C17 C18 1_555 1_555
C19 C21 1_555 1_555
C4B C6B 1_555 1_555
C4B C16B 1_555 1_555
O3B C7B 1_555 1_555
O5B Cd1B_3 1_555 1_555
C8B C9B 1_555 1_555
C10B C14B 1_555 1_555
C13B C20B 1_555 1_555
C17B C18B 1_555 1_555
C19B C21B 1_555 1_555

#END
