
#######################################################################
#
#                 Cambridge Crystallographic Data Centre
#                                CCDC 
#
#######################################################################
#
# If this CIF has been generated from an entry in the Cambridge 
# Structural Database, then it will include bibliographic, chemical, 
# crystal, experimental, refinement or atomic coordinate data resulting 
# from the CCDC's data processing and validation procedures.
#
#######################################################################

data_KUVLUK
_symmetry_cell_setting           triclinic
_symmetry_space_group_name_H-M   'P -1'
_symmetry_Int_Tables_number      2
_space_group_name_Hall           '-P 1'
loop_
_symmetry_equiv_pos_site_id
_symmetry_equiv_pos_as_xyz
1 x,y,z
2 -x,-y,-z
_cell_length_a                   5.9502(3)
_cell_length_b                   9.9575(5)
_cell_length_c                   16.4531(9)
_cell_angle_alpha                74.197(2)
_cell_angle_beta                 84.359(2)
_cell_angle_gamma                89.099(2)
_cell_volume                     933.382
loop_
_atom_site_label
_atom_site_type_symbol
_atom_site_fract_x
_atom_site_fract_y
_atom_site_fract_z
Cd1 Cd 0.41919(6) 0.28768(4) 0.24679(2)
O1 O 0.1402(6) -0.5426(4) 0.2247(3)
C1 C -0.0637(8) -0.2775(5) 0.2415(3)
H1 H -0.1868 -0.3299 0.2363
C2 C -0.0672(8) -0.1393(5) 0.2516(3)
H2 H -0.1931 -0.0834 0.2537
O2 O 0.4713(6) -0.4644(4) 0.2458(2)
O3 O 0.4638(6) 0.0343(4) 0.2600(2)
O4 O 0.1216(6) 0.1175(4) 0.2778(3)
O5 O 0.7947(7) 0.2944(5) 0.2223(3)
O6 O 0.2907(6) -0.2126(3) 0.2504(2)
N1 N 0.4356(7) 0.2544(4) 0.3926(3)
N2 N 0.4314(7) 0.2927(5) 0.1018(3)
C3 C 0.7732(9) 0.0951(5) -0.0299(3)
H3 H 0.7713 0.0752 -0.0819
C4 C 0.2677(8) -0.4481(5) 0.2370(3)
C5 C 0.2552(8) 0.0229(5) 0.2657(3)
C6 C 0.1497(8) -0.1061(5) 0.2574(3)
C7 C 0.6088(10) 0.3121(6) 0.5040(4)
N3 N 0.9263(8) 0.0429(5) 0.0179(3)
C8 C 0.4577(10) 0.2224(6) 0.5632(4)
H4 H 0.4618 0.2134 0.6208
C9 C 0.7791(11) 0.3921(7) 0.5316(4)
H5 H 0.7764 0.3874 0.5889
C10 C 0.5912(10) 0.3250(6) 0.4184(4)
H6 H 0.6908 0.3845 0.3779
C11 C 0.5998(9) 0.1859(5) -0.0044(3)
C12 C 0.1554(8) -0.3165(5) 0.2410(3)
C13 C 0.5903(9) 0.2108(6) 0.0749(3)
H7 H 0.6976 0.1697 0.1112
C14 C 0.2966(10) 0.1671(6) 0.4509(4)
H8 H 0.1903 0.1170 0.4327
C15 C 0.3030(11) 0.1474(7) 0.5368(4)
H9 H 0.2046 0.0847 0.5759
C16 C 0.4384(10) 0.2467(6) -0.0572(3)
H10 H 0.4366 0.2301 -0.1101
C17 C 0.2805(10) 0.3509(6) 0.0494(4)
H11 H 0.1703 0.4066 0.0673
C18 C 0.2789(10) 0.3328(7) -0.0307(4)
H12 H 0.1726 0.3776 -0.0663
N4 N 0.9282(9) 0.4665(6) 0.4797(3)
H13 H 0.870(12) 0.229(8) 0.241(5)
H14 H 0.846(12) 0.350(8) 0.222(5)
N1A N 1.5644(7) 0.7456(4) 0.6074(3)
C7A C 1.3912(10) 0.6879(6) 0.4960(4)
C8A C 1.5423(10) 0.7776(6) 0.4368(4)
H4A H 1.5382 0.7866 0.3792
C9A C 1.2209(11) 0.6079(7) 0.4684(4)
H5A H 1.2236 0.6126 0.4111
C10A C 1.4088(10) 0.6750(6) 0.5816(4)
H6A H 1.3092 0.6155 0.6221
C14A C 1.7034(10) 0.8329(6) 0.5491(4)
H8A H 1.8097 0.8830 0.5673
C15A C 1.6970(11) 0.8526(7) 0.4632(4)
H9A H 1.7954 0.9153 0.4241
N4A N 1.0718(9) 0.5335(6) 0.5203(3)
N2A N 1.5686(7) -0.2927(5) -0.1018(3)
C3A C 1.2268(9) -0.0951(5) 0.0299(3)
H3A H 1.2287 -0.0752 0.0819
N3A N 1.0737(8) -0.0429(5) -0.0179(3)
C11A C 1.4002(9) -0.1859(5) 0.0044(3)
C13A C 1.4097(9) -0.2108(6) -0.0749(3)
H7A H 1.3024 -0.1697 -0.1112
C16A C 1.5616(10) -0.2467(6) 0.0572(3)
H10A H 1.5634 -0.2301 0.1101
C17A C 1.7195(10) -0.3509(6) -0.0494(4)
H11A H 1.8297 -0.4066 -0.0673
C18A C 1.7211(10) -0.3328(7) 0.0307(4)
H12A H 1.8274 -0.3776 0.0663
Cd1A Cd 1.58081(6) -0.28768(4) -0.24679(2)
O1A O 1.8598(6) 0.5426(4) -0.2247(3)
C1A C 2.0637(8) 0.2775(5) -0.2415(3)
H1A H 2.1868 0.3299 -0.2363
C2A C 2.0672(8) 0.1393(5) -0.2516(3)
H2A H 2.1931 0.0834 -0.2537
O2A O 1.5287(6) 0.4644(4) -0.2458(2)
O3A O 1.5362(6) -0.0343(4) -0.2600(2)
O4A O 1.8784(6) -0.1175(4) -0.2778(3)
O5A O 1.2053(7) -0.2944(5) -0.2223(3)
O6A O 1.7093(6) 0.2126(3) -0.2504(2)
C4A C 1.7323(8) 0.4481(5) -0.2370(3)
C5A C 1.7448(8) -0.0229(5) -0.2657(3)
C6A C 1.8503(8) 0.1061(5) -0.2574(3)
C12A C 1.8446(8) 0.3165(5) -0.2410(3)
H13A H 1.130(12) -0.229(8) -0.241(5)
H14A H 1.154(12) -0.350(8) -0.222(5)
Cd1_2 Cd 0.41919(6) -0.71232(4) 0.24679(2)
Cd1A_2 Cd 1.58081(6) 0.71232(4) -0.24679(2)
Cd1A_3 Cd 1.58081(6) 0.71232(4) 0.75321(2)
O1_2 O 0.1402(6) 0.4574(4) 0.2247(3)
O1A_2 O 1.8598(6) -0.4574(4) -0.2247(3)
O2_2 O 0.4713(6) 0.5356(4) 0.2458(2)
O2A_2 O 1.5287(6) -0.5356(4) -0.2458(2)
N1A_2 N 1.5644(7) -0.2544(4) -0.3926(3)
loop_
_geom_bond_atom_site_label_1
_geom_bond_atom_site_label_2
_geom_bond_site_symmetry_1
_geom_bond_site_symmetry_2
Cd1 O3 1_555 1_555
O1 C4 1_555 1_555
C1 H1 1_555 1_555
C2 C1 1_555 1_555
H2 C2 1_555 1_555
O2 C4 1_555 1_555
O3 C5 1_555 1_555
O4 Cd1 1_555 1_555
O5 Cd1 1_555 1_555
O6 C6 1_555 1_555
N1 Cd1 1_555 1_555
N2 Cd1 1_555 1_555
C3 H3 1_555 1_555
C4 C12 1_555 1_555
C5 O4 1_555 1_555
C6 C2 1_555 1_555
C7 C8 1_555 1_555
N3 C3 1_555 1_555
C8 H4 1_555 1_555
C9 C7 1_555 1_555
H5 C9 1_555 1_555
C10 N1 1_555 1_555
H6 C10 1_555 1_555
C11 C3 1_555 1_555
C12 C1 1_555 1_555
C13 N2 1_555 1_555
H7 C13 1_555 1_555
C14 N1 1_555 1_555
H8 C14 1_555 1_555
C15 C8 1_555 1_555
H9 C15 1_555 1_555
C16 C11 1_555 1_555
H10 C16 1_555 1_555
C17 N2 1_555 1_555
H11 C17 1_555 1_555
C18 C16 1_555 1_555
H12 C18 1_555 1_555
N4 C9 1_555 1_555
H13 O5 1_555 1_555
H14 O5 1_555 1_555
N1A C10A 1_555 1_555
C7A C8A 1_555 1_555
C8A H4A 1_555 1_555
C9A C7A 1_555 1_555
H5A C9A 1_555 1_555
C10A C7A 1_555 1_555
H6A C10A 1_555 1_555
C14A N1A 1_555 1_555
H8A C14A 1_555 1_555
C15A C8A 1_555 1_555
H9A C15A 1_555 1_555
N4A N4 1_555 1_555
N2A C13A 1_555 1_555
C3A H3A 1_555 1_555
N3A N3 1_555 1_555
C11A C3A 1_555 1_555
C13A C11A 1_555 1_555
H7A C13A 1_555 1_555
C16A C11A 1_555 1_555
H10A C16A 1_555 1_555
C17A N2A 1_555 1_555
H11A C17A 1_555 1_555
C18A C16A 1_555 1_555
H12A C18A 1_555 1_555
Cd1A N2A 1_555 1_555
O1A C4A 1_555 1_555
C1A H1A 1_555 1_555
C2A C1A 1_555 1_555
H2A C2A 1_555 1_555
O2A C4A 1_555 1_555
O3A Cd1A 1_555 1_555
O4A Cd1A 1_555 1_555
O5A Cd1A 1_555 1_555
O6A C6A 1_555 1_555
C4A C12A 1_555 1_555
C5A O3A 1_555 1_555
C6A C2A 1_555 1_555
C12A C1A 1_555 1_555
H13A O5A 1_555 1_555
H14A O5A 1_555 1_555
Cd1_2 O1 1_555 1_555
Cd1A_2 O1A 1_555 1_555
Cd1A_3 N1A 1_555 1_555
O1_2 Cd1 1_555 1_555
O1A_2 Cd1A 1_555 1_555
O2_2 Cd1 1_555 1_555
O2A_2 Cd1A 1_555 1_555
N1A_2 Cd1A 1_555 1_555
O2 Cd1_2 1_555 1_555
O6 C12 1_555 1_555
C5 C6 1_555 1_555
C7 C10 1_555 1_555
C11 C13 1_555 1_555
C14 C15 1_555 1_555
C17 C18 1_555 1_555
C9A N4A 1_555 1_555
C14A C15A 1_555 1_555
C3A N3A 1_555 1_555
C17A C18A 1_555 1_555
O2A Cd1A_2 1_555 1_555
O4A C5A 1_555 1_555
O6A C12A 1_555 1_555
C5A C6A 1_555 1_555

#END
