
#######################################################################
#
#                 Cambridge Crystallographic Data Centre
#                                CCDC 
#
#######################################################################
#
# If this CIF has been generated from an entry in the Cambridge 
# Structural Database, then it will include bibliographic, chemical, 
# crystal, experimental, refinement or atomic coordinate data resulting 
# from the CCDC's data processing and validation procedures.
#
#######################################################################

data_KUVMOF
_symmetry_cell_setting           monoclinic
_symmetry_space_group_name_H-M   'C 2/c'
_symmetry_Int_Tables_number      15
_space_group_name_Hall           '-C 2yn'
loop_
_symmetry_equiv_pos_site_id
_symmetry_equiv_pos_as_xyz
1 x,y,z
2 -x,y,1/2-z
3 1/2+x,1/2+y,z
4 1/2-x,1/2+y,1/2-z
5 -x,-y,-z
6 x,-y,1/2+z
7 1/2-x,1/2-y,-z
8 1/2+x,1/2-y,1/2+z
_cell_length_a                   33.224(3)
_cell_length_b                   21.0248(17)
_cell_length_c                   8.4989(7)
_cell_angle_alpha                90
_cell_angle_beta                 102.143(2)
_cell_angle_gamma                90
_cell_volume                     5803.89
loop_
_atom_site_label
_atom_site_type_symbol
_atom_site_fract_x
_atom_site_fract_y
_atom_site_fract_z
Zn1 Zn 0.31392(3) 0.84278(5) -0.22187(10)
C1 C 0.2901(2) 0.7231(4) -0.3008(9)
O1 O 0.31049(17) 0.7658(3) -0.3484(6)
O2 O 0.27313(17) 0.7297(3) -0.1865(7)
C2 C 0.2875(3) 0.6588(4) -0.3807(12)
H1 H 0.3021 0.6599 -0.4693
H2 H 0.3000 0.6267 -0.3018
H3 H 0.2585 0.6480 -0.4229
C3 C 0.3422(5) 0.9277(9) -0.394(2)
O3 O 0.3563(4) 0.9066(5) -0.2565(13)
O4 O 0.3086(4) 0.9128(7) -0.4728(17)
C4 C 0.3698(10) 0.9743(16) -0.460(4)
H4 H 0.3954 0.9807 -0.3801
H5 H 0.3762 0.9571 -0.5591
H6 H 0.3556 1.0152 -0.4833
Si1 Si 0.5000 0.64672(15) 1.2500
C5 C 0.4711(2) 0.6962(4) 1.0808(8)
C6 C 0.4336(2) 0.6739(4) 0.9901(9)
H7 H 0.4209 0.6381 1.0276
C7 C 0.4147(2) 0.7025(4) 0.8479(9)
H8 H 0.3895 0.6860 0.7876
C8 C 0.4325(2) 0.7557(4) 0.7927(8)
C9 C 0.4679(2) 0.7813(4) 0.8874(8)
H9 H 0.4793 0.8192 0.8544
C10 C 0.4864(2) 0.7521(4) 1.0291(8)
H10 H 0.5104 0.7707 1.0934
C11 C 0.4142(2) 0.7796(4) 0.6357(9)
C12 C 0.3999(2) 0.7943(4) 0.5022(9)
C13 C 0.3800(2) 0.8071(4) 0.3378(8)
C14 C 0.3384(2) 0.7962(4) 0.2806(9)
H11 H 0.3217 0.7815 0.3509
C15 C 0.3219(2) 0.8068(4) 0.1225(9)
H12 H 0.2933 0.7987 0.0857
N1 N 0.34271(17) 0.8276(3) 0.0163(7)
C16 C 0.3826(2) 0.8402(4) 0.0707(8)
H13 H 0.3981 0.8559 -0.0032
C17 C 0.4023(2) 0.8317(4) 0.2273(9)
H14 H 0.4306 0.8422 0.2614
C18 C 0.4609(2) 0.5977(4) 1.3263(8)
C19 C 0.4358(3) 0.6283(4) 1.4116(11)
H15 H 0.4419 0.6711 1.4434
C20 C 0.4024(3) 0.5998(4) 1.4530(11)
H16 H 0.3845 0.6238 1.5041
C21 C 0.3950(2) 0.5372(4) 1.4204(9)
C22 C 0.4193(3) 0.5043(4) 1.3348(10)
H17 H 0.4139 0.4608 1.3084
C23 C 0.4515(2) 0.5353(4) 1.2878(10)
H18 H 0.4677 0.5126 1.2269
C24 C 0.3606(3) 0.5057(4) 1.4660(11)
C25 C 0.3331(3) 0.4804(4) 1.5101(10)
C26 C 0.3005(2) 0.4496(4) 1.5677(9)
C27 C 0.2658(3) 0.4808(5) 1.5882(12)
H19 H 0.2627 0.5248 1.5643
C28 C 0.2356(3) 0.4485(4) 1.6434(12)
H20 H 0.2121 0.4715 1.6585
N2 N 0.23770(18) 0.3868(3) 1.6765(7)
C29 C 0.2707(2) 0.3564(4) 1.6571(10)
H21 H 0.2727 0.3121 1.6802
C30 C 0.3030(2) 0.3856(4) 1.6042(10)
H22 H 0.3265 0.3618 1.5933
C5A C 0.5289(2) 0.6962(4) 1.4192(8)
C6A C 0.5664(2) 0.6739(4) 1.5099(9)
H7A H 0.5791 0.6381 1.4724
C7A C 0.5853(2) 0.7025(4) 1.6521(9)
H8A H 0.6105 0.6860 1.7124
C8A C 0.5675(2) 0.7557(4) 1.7073(8)
C9A C 0.5321(2) 0.7813(4) 1.6126(8)
H9A H 0.5207 0.8192 1.6456
C10A C 0.5136(2) 0.7521(4) 1.4709(8)
H10A H 0.4896 0.7707 1.4066
C11A C 0.5858(2) 0.7796(4) 1.8643(9)
C12A C 0.6001(2) 0.7943(4) 1.9978(9)
C13A C 0.6200(2) 0.8071(4) 2.1622(8)
C14A C 0.6616(2) 0.7962(4) 2.2194(9)
H11A H 0.6783 0.7815 2.1491
C15A C 0.6781(2) 0.8068(4) 2.3775(9)
H12A H 0.7067 0.7987 2.4143
N1A N 0.65729(17) 0.8276(3) 2.4837(7)
C16A C 0.6174(2) 0.8402(4) 2.4293(8)
H13A H 0.6019 0.8559 2.5032
C17A C 0.5977(2) 0.8317(4) 2.2727(9)
H14A H 0.5694 0.8422 2.2386
C18A C 0.5391(2) 0.5977(4) 1.1737(8)
C19A C 0.5642(3) 0.6283(4) 1.0884(11)
H15A H 0.5581 0.6711 1.0566
C20A C 0.5976(3) 0.5998(4) 1.0470(11)
H16A H 0.6155 0.6238 0.9959
C21A C 0.6050(2) 0.5372(4) 1.0796(9)
C22A C 0.5807(3) 0.5043(4) 1.1652(10)
H17A H 0.5861 0.4608 1.1916
C23A C 0.5485(2) 0.5353(4) 1.2122(10)
H18A H 0.5323 0.5126 1.2731
C24A C 0.6394(3) 0.5057(4) 1.0340(11)
C25A C 0.6669(3) 0.4804(4) 0.9899(10)
C26A C 0.6995(2) 0.4496(4) 0.9323(9)
C27A C 0.7342(3) 0.4808(5) 0.9118(12)
H19A H 0.7373 0.5248 0.9357
C28A C 0.7644(3) 0.4485(4) 0.8566(12)
H20A H 0.7879 0.4715 0.8415
N2A N 0.76230(18) 0.3868(3) 0.8235(7)
C29A C 0.7293(2) 0.3564(4) 0.8429(10)
H21A H 0.7273 0.3121 0.8198
C30A C 0.6970(2) 0.3856(4) 0.8958(10)
H22A H 0.6735 0.3618 0.9067
Zn1A Zn 0.68608(3) 0.84278(5) 2.72187(10)
C1A C 0.7099(2) 0.7231(4) 2.8008(9)
O1A O 0.68951(17) 0.7658(3) 2.8484(6)
O2A O 0.72687(17) 0.7297(3) 2.6865(7)
C2A C 0.7125(3) 0.6588(4) 2.8807(12)
H1A H 0.6979 0.6599 2.9693
H2A H 0.7000 0.6267 2.8018
H3A H 0.7415 0.6480 2.9229
C3A C 0.6578(5) 0.9277(9) 2.894(2)
O3A O 0.6437(4) 0.9066(5) 2.7565(13)
O4A O 0.6914(4) 0.9128(7) 2.9728(17)
C4A C 0.6302(10) 0.9743(16) 2.960(4)
H4A H 0.6046 0.9807 2.8801
H5A H 0.6238 0.9571 3.0591
H6A H 0.6444 1.0152 2.9833
Zn1B Zn 0.81392(3) 0.34278(5) 0.77813(10)
Zn1C Zn 0.18608(3) 0.34278(5) 1.72187(10)
N2B N 0.73770(18) 0.8868(3) 2.6765(7)
N2C N 0.26230(18) 0.8868(3) -0.1765(7)
O7 O 0.4823(5) 0.9264(7) 0.424(3)
O8 O 0.4537(6) 0.9523(8) -0.158(2)
C31? C 0.3593(8) 0.9281(13) -0.349(3)
O5? O 0.3252(7) 0.9037(10) -0.379(3)
O6? O 0.3863(8) 0.9153(9) -0.233(2)
C32? C 0.3692(11) 0.9674(17) -0.488(4)
H23? H 0.3441 0.9733 -0.5707
H24? H 0.3800 1.0090 -0.4472
H25? H 0.3899 0.9451 -0.5342
loop_
_geom_bond_atom_site_label_1
_geom_bond_atom_site_label_2
_geom_bond_site_symmetry_1
_geom_bond_site_symmetry_2
Zn1 O1 1_555 1_555
C1 O1 1_555 1_555
O2 C1 1_555 1_555
C2 C1 1_555 1_555
H1 C2 1_555 1_555
H2 C2 1_555 1_555
H3 C2 1_555 1_555
C3 O3 1_555 1_555
O3 Zn1 1_555 1_555
O4 Zn1 1_555 1_555
C4 C3 1_555 1_555
H4 C4 1_555 1_555
H5 C4 1_555 1_555
H6 C4 1_555 1_555
Si1 C5 1_555 1_555
C5 C6 1_555 1_555
C6 H7 1_555 1_555
C7 C6 1_555 1_555
H8 C7 1_555 1_555
C8 C7 1_555 1_555
C9 C8 1_555 1_555
H9 C9 1_555 1_555
C10 C5 1_555 1_555
H10 C10 1_555 1_555
C11 C8 1_555 1_555
C12 C11 1_555 1_555
C13 C12 1_555 1_555
C14 C13 1_555 1_555
H11 C14 1_555 1_555
C15 C14 1_555 1_555
H12 C15 1_555 1_555
N1 Zn1 1_555 1_555
C16 N1 1_555 1_555
H13 C16 1_555 1_555
C17 C13 1_555 1_555
H14 C17 1_555 1_555
C18 Si1 1_555 1_555
C19 C18 1_555 1_555
H15 C19 1_555 1_555
C20 C19 1_555 1_555
H16 C20 1_555 1_555
C21 C20 1_555 1_555
C22 C21 1_555 1_555
H17 C22 1_555 1_555
C23 C18 1_555 1_555
H18 C23 1_555 1_555
C24 C21 1_555 1_555
C25 C24 1_555 1_555
C26 C25 1_555 1_555
C27 C26 1_555 1_555
H19 C27 1_555 1_555
C28 C27 1_555 1_555
H20 C28 1_555 1_555
N2 C28 1_555 1_555
C29 N2 1_555 1_555
H21 C29 1_555 1_555
C30 C26 1_555 1_555
H22 C30 1_555 1_555
C5A Si1 1_555 1_555
C6A C5A 1_555 1_555
H7A C6A 1_555 1_555
C7A C6A 1_555 1_555
H8A C7A 1_555 1_555
C8A C7A 1_555 1_555
C9A C8A 1_555 1_555
H9A C9A 1_555 1_555
C10A C5A 1_555 1_555
H10A C10A 1_555 1_555
C11A C8A 1_555 1_555
C12A C11A 1_555 1_555
C13A C12A 1_555 1_555
C14A C13A 1_555 1_555
H11A C14A 1_555 1_555
C15A C14A 1_555 1_555
H12A C15A 1_555 1_555
N1A C15A 1_555 1_555
C16A N1A 1_555 1_555
H13A C16A 1_555 1_555
C17A C13A 1_555 1_555
H14A C17A 1_555 1_555
C18A Si1 1_555 1_555
C19A C18A 1_555 1_555
H15A C19A 1_555 1_555
C20A C19A 1_555 1_555
H16A C20A 1_555 1_555
C21A C20A 1_555 1_555
C22A C21A 1_555 1_555
H17A C22A 1_555 1_555
C23A C18A 1_555 1_555
H18A C23A 1_555 1_555
C24A C21A 1_555 1_555
C25A C24A 1_555 1_555
C26A C25A 1_555 1_555
C27A C26A 1_555 1_555
H19A C27A 1_555 1_555
C28A C27A 1_555 1_555
H20A C28A 1_555 1_555
N2A C28A 1_555 1_555
C29A N2A 1_555 1_555
H21A C29A 1_555 1_555
C30A C26A 1_555 1_555
H22A C30A 1_555 1_555
Zn1A N1A 1_555 1_555
C1A O1A 1_555 1_555
O1A Zn1A 1_555 1_555
O2A C1A 1_555 1_555
C2A C1A 1_555 1_555
H1A C2A 1_555 1_555
H2A C2A 1_555 1_555
H3A C2A 1_555 1_555
C3A O3A 1_555 1_555
O3A Zn1A 1_555 1_555
O4A Zn1A 1_555 1_555
C4A C3A 1_555 1_555
H4A C4A 1_555 1_555
H5A C4A 1_555 1_555
H6A C4A 1_555 1_555
Zn1B N2A 1_555 1_555
Zn1C N2 1_555 1_555
N2B Zn1A 1_555 1_555
N2C Zn1 1_555 1_555
C3 O4 1_555 1_555
C9 C10 1_555 1_555
C15 N1 1_555 1_555
C16 C17 1_555 1_555
C22 C23 1_555 1_555
C29 C30 1_555 1_555
C9A C10A 1_555 1_555
C16A C17A 1_555 1_555
C22A C23A 1_555 1_555
C29A C30A 1_555 1_555
C3A O4A 1_555 1_555

#END
