
#######################################################################
#
#                 Cambridge Crystallographic Data Centre
#                                CCDC 
#
#######################################################################
#
# If this CIF has been generated from an entry in the Cambridge 
# Structural Database, then it will include bibliographic, chemical, 
# crystal, experimental, refinement or atomic coordinate data resulting 
# from the CCDC's data processing and validation procedures.
#
#######################################################################

data_KUVMAR
_symmetry_cell_setting           monoclinic
_symmetry_space_group_name_H-M   'P 21/c'
_symmetry_Int_Tables_number      14
_space_group_name_Hall           '-P 2ybc'
loop_
_symmetry_equiv_pos_site_id
_symmetry_equiv_pos_as_xyz
1 x,y,z
2 -x,1/2+y,1/2-z
3 -x,-y,-z
4 x,1/2-y,1/2+z
_cell_length_a                   22.317(5)
_cell_length_b                   9.927(5)
_cell_length_c                   31.901(5)
_cell_angle_alpha                90
_cell_angle_beta                 109.521(5)
_cell_angle_gamma                90
_cell_volume                     6661.14
loop_
_atom_site_label
_atom_site_type_symbol
_atom_site_fract_x
_atom_site_fract_y
_atom_site_fract_z
Cd1 Cd 0.08405(2) 0.15837(4) 0.82065(2)
Cd2 Cd -0.67891(2) 0.23287(5) 0.67203(2)
O1 O 0.0730(2) 0.4066(4) 0.81358(15)
O2 O 0.12430(18) 0.6583(4) 0.83288(13)
O3 O 0.0745(2) 0.9129(4) 0.82594(16)
O4 O -0.7591(2) 1.0741(5) 0.65168(17)
O5 O -0.7210(2) 0.7282(4) 0.66086(14)
O6 O -0.7645(2) 0.3868(5) 0.65797(17)
N1 N -0.0291(2) 0.1571(5) 0.78992(16)
N2 N 0.0741(3) 0.1503(6) 0.58527(17)
N3 N 0.0869(2) 0.1481(5) 0.74779(15)
N4 N -0.6850(3) 0.2593(6) 1.09746(18)
N5 N 0.0936(3) 0.1931(6) 0.54923(18)
N6 N 0.0733(3) 0.2879(5) 0.38977(17)
N7 N -0.5685(3) 0.2428(6) 0.69461(19)
C1 C 0.0382(3) 0.1263(6) 0.7101(2)
H1 H -0.0010 0.1031 0.7123
N8 N -0.6788(3) 0.2091(6) 0.74567(19)
C2 C 0.1115(3) 0.1951(6) 0.6218(2)
H2 H 0.1469 0.2443 0.6217
C3 C 0.1090(3) 0.2957(7) 0.4692(2)
H3 H 0.1367 0.3320 0.4954
C4 C 0.1627(3) 0.7683(5) 0.84509(19)
C5 C 0.0542(3) 0.1602(7) 0.5121(2)
H4 H 0.0190 0.1083 0.5109
N9 N -0.2675(3) 0.2350(7) 0.7400(2)
C6 C 0.0431(3) 0.1363(6) 0.6684(2)
H5 H 0.0080 0.1191 0.6433
C7 C 0.2250(3) 0.7304(6) 0.8609(2)
H6 H 0.2602 0.7864 0.8713
C8 C 0.2248(3) 0.5886(6) 0.8581(2)
H7 H 0.2604 0.5330 0.8665
C9 C 0.1328(3) 0.4140(5) 0.83023(19)
N10 N -0.3324(3) 0.1948(7) 0.7251(2)
C10 C 0.0635(3) 0.2037(7) 0.4703(2)
C11 C 0.1010(3) 0.1723(6) 0.66420(19)
C12 C 0.1327(3) 0.9037(6) 0.8396(2)
C13 C -0.7292(3) 0.4882(6) 0.6620(2)
C14 C -0.0635(3) 0.2685(7) 0.7755(2)
H8 H -0.0424 0.3486 0.7746
C15 C -0.8211(3) 0.8030(7) 0.6364(2)
H9 H -0.8560 0.8603 0.6274
C16 C -0.7363(4) 0.3326(9) 1.0229(2)
H10 H -0.7690 0.3814 1.0028
C17 C -0.7609(3) 0.6214(6) 0.6526(2)
C18 C 0.1516(3) 0.1907(8) 0.7028(2)
H11 H 0.1915 0.2120 0.7015
C19 C 0.0220(3) 0.1539(7) 0.4305(2)
H12 H -0.0099 0.0932 0.4303
C20 C -0.1294(3) 0.2697(7) 0.7618(2)
H13 H -0.1519 0.3497 0.7533
C21 C 0.0291(4) 0.1969(7) 0.3912(2)
H14 H 0.0023 0.1615 0.3646
N11 N -0.6552(4) 0.2634(10) 0.9067(2)
C22 C -0.1612(3) 0.1493(7) 0.7612(2)
C23 C 0.1128(3) 0.3336(6) 0.4279(2)
H15 H 0.1444 0.3936 0.4273
C24 C -0.7249(4) 0.9711(7) 0.6580(2)
C25 C -0.7317(4) 0.3242(8) 1.0674(2)
H16 H -0.7627 0.3658 1.0764
C26 C -0.7587(3) 0.8403(7) 0.6512(2)
N12 N -0.6508(4) 0.2347(9) 0.9507(2)
C27 C 0.1429(3) 0.1776(7) 0.7433(2)
H17 H 0.1778 0.1899 0.7689
C28 C 0.1633(3) 0.5479(5) 0.84086(19)
C29 C -0.8224(3) 0.6615(8) 0.6372(2)
H18 H -0.8582 0.6066 0.6289
C30 C -0.1258(3) 0.0354(7) 0.7745(2)
H19 H -0.1459 -0.0469 0.7740
C31 C -0.6762(4) 0.1667(10) 0.8794(3)
H20 H -0.6903 0.0872 0.8884
C32 C -0.4727(4) 0.3677(9) 0.7289(3)
H21 H -0.4529 0.4457 0.7430
C33 C -0.2319(3) 0.1357(7) 0.7457(2)
H22 H -0.2499 0.0502 0.7402
C34 C -0.6598(4) 0.3019(9) 0.8177(3)
H23 H -0.6472 0.3759 0.8365
C35 C -0.5341(3) 0.1409(8) 0.6876(2)
H24 H -0.5548 0.0633 0.6738
C36 C -0.0609(3) 0.0417(7) 0.7887(2)
H25 H -0.0378 -0.0373 0.7978
C37 C -0.4681(3) 0.1474(8) 0.7005(3)
H26 H -0.4450 0.0753 0.6952
C38 C -0.6606(4) 0.3097(8) 0.7743(3)
H27 H -0.6477 0.3897 0.7648
C39 C -0.6426(3) 0.1933(8) 1.0839(2)
H28 H -0.6108 0.1443 1.1046
C40 C -0.6441(4) 0.1950(9) 1.0403(2)
H29 H -0.6137 0.1484 1.0319
C41 C -0.6775(4) 0.1847(9) 0.8329(2)
C42 C -0.6948(4) 0.2827(9) 0.9624(3)
H30 H -0.7287 0.3270 0.9418
C43 C -0.6919(4) 0.2680(8) 1.0090(2)
C44 C -0.7008(4) 0.0827(9) 0.8030(3)
H31 H -0.7159 0.0034 0.8113
C45 C -0.4377(3) 0.2616(9) 0.7211(2)
C46 C -0.3676(3) 0.2782(9) 0.7354(3)
H32 H -0.3492 0.3527 0.7526
C47 C -0.7009(4) 0.1011(8) 0.7606(3)
H33 H -0.7179 0.0323 0.7404
C48 C -0.5381(4) 0.3540(9) 0.7149(3)
H34 H -0.5622 0.4251 0.7197
O7 O 0.1699(2) 0.3149(4) 0.83873(15)
O8 O 0.1695(2) 1.0035(4) 0.84746(16)
O9 O -0.6662(2) 0.9749(5) 0.67097(16)
O10 O -0.6688(2) 0.4862(5) 0.67403(17)
Cd1_2 Cd 0.08405(2) 1.15837(4) 0.82065(2)
Cd1C Cd 0.08405(2) 0.34163(4) 0.32065(2)
Cd2_2 Cd -0.67891(2) 1.23287(5) 0.67203(2)
Cd2C Cd -0.67891(2) 0.26713(5) 1.17203(2)
O3_2 O 0.0745(2) -0.0871(4) 0.82594(16)
O4_2 O -0.7591(2) 0.0741(5) 0.65168(17)
N4C N -0.6850(3) 0.2407(6) 0.59746(18)
N6C N 0.0733(3) 0.2121(5) 0.88977(17)
O8_2 O 0.1695(2) 0.0035(4) 0.84746(16)
O9_2 O -0.6662(2) -0.0251(5) 0.67097(16)
N13 N 0.9774(3) 0.0523(7) 0.9950(2)
N14 N 0.8400(3) 0.4208(7) 1.0215(2)
C49 C 0.8706(4) 0.3579(9) 1.0598(3)
H35 H 0.8641 0.3889 1.0855
C50 C 0.8897(4) 0.2659(8) 0.9862(3)
H36 H 0.8960 0.2375 0.9602
C51 C 0.9647(4) 0.0906(8) 1.0293(3)
H37 H 0.9835 0.0473 1.0564
C52 C 0.9205(4) 0.2029(8) 1.0262(2)
C53 C 0.9105(4) 0.2513(8) 1.0637(3)
H38 H 0.9306 0.2119 1.0912
C54 C 0.8495(4) 0.3715(9) 0.9855(3)
H39 H 0.8276 0.4108 0.9582
N13B N 1.0226(3) -0.0523(7) 1.0050(2)
N14B N 1.1600(3) -0.4208(7) 0.9785(2)
C49B C 1.1294(4) -0.3579(9) 0.9402(3)
H35B H 1.1359 -0.3889 0.9145
C50B C 1.1103(4) -0.2659(8) 1.0138(3)
H36B H 1.1040 -0.2375 1.0398
C51B C 1.0353(4) -0.0906(8) 0.9707(3)
H37B H 1.0165 -0.0473 0.9436
C52B C 1.0795(4) -0.2029(8) 0.9738(2)
C53B C 1.0895(4) -0.2513(8) 0.9363(3)
H38B H 1.0694 -0.2119 0.9088
C54B C 1.1505(4) -0.3715(9) 1.0145(3)
H39B H 1.1724 -0.4108 1.0418
N15 N 0.7768(3) 0.0302(7) 0.0046(2)
N16 N 0.6073(3) 0.3924(8) -0.0265(2)
C55 C 0.6814(4) 0.2240(8) -0.0304(3)
N17 N 0.5564(4) 0.4728(8) -0.0527(3)
C56 C 0.7052(4) 0.1997(9) 0.0150(3)
H40 H 0.6900 0.2473 0.0344
C57 C 0.6305(4) 0.3204(10) -0.0509(3)
H41 H 0.6149 0.3296 -0.0816
C58 C 0.7541(4) 0.0572(9) -0.0383(3)
H42 H 0.7713 0.0101 -0.0569
C59 C 0.4815(5) 0.7686(10) -0.0266(4)
H43 H 0.5081 0.7829 0.0025
C60 C 0.5416(4) 0.5648(9) -0.0298(3)
H44 H 0.5644 0.5720 0.0004
C61 C 0.7072(4) 0.1495(9) -0.0577(3)
H45 H 0.6928 0.1624 -0.0884
C62 C 0.4893(4) 0.6590(10) -0.0503(3)
N18 N 0.3897(4) 0.8409(10) -0.0880(3)
C63 C 0.7510(4) 0.1054(8) 0.0304(3)
H46 H 0.7662 0.0903 0.0609
C64 C 0.3982(5) 0.7292(14) -0.1091(4)
H47 H 0.3692 0.7121 -0.1373
C65 C 0.4462(5) 0.6397(13) -0.0923(3)
H48 H 0.4499 0.5655 -0.1090
C66 C 0.4313(5) 0.8606(11) -0.0478(4)
H49 H 0.4276 0.9383 -0.0325
O11 O 0.5894(3) 0.2251(8) -0.1681(2)
O12 O -0.4923(4) -0.1374(10) 0.6465(4)
loop_
_geom_bond_atom_site_label_1
_geom_bond_atom_site_label_2
_geom_bond_site_symmetry_1
_geom_bond_site_symmetry_2
Cd1 O1 1_555 1_555
Cd2 O6 1_555 1_555
O1 C9 1_555 1_555
O2 C4 1_555 1_555
O3 C12 1_555 1_555
O4 C24 1_555 1_555
O5 C17 1_555 1_555
O6 C13 1_555 1_555
N1 Cd1 1_555 1_555
N2 N5 1_555 1_555
N3 Cd1 1_555 1_555
N4 C25 1_555 1_555
N5 C5 1_555 1_555
N6 C21 1_555 1_555
N7 Cd2 1_555 1_555
C1 N3 1_555 1_555
H1 C1 1_555 1_555
N8 Cd2 1_555 1_555
C2 N2 1_555 1_555
H2 C2 1_555 1_555
C3 H3 1_555 1_555
C4 C7 1_555 1_555
C5 H4 1_555 1_555
N9 N10 1_555 1_555
C6 C1 1_555 1_555
H5 C6 1_555 1_555
C7 H6 1_555 1_555
C8 C7 1_555 1_555
H7 C8 1_555 1_555
C9 C28 1_555 1_555
N10 C46 1_555 1_555
C10 C3 1_555 1_555
C11 C2 1_555 1_555
C12 C4 1_555 1_555
C13 C17 1_555 1_555
C14 N1 1_555 1_555
H8 C14 1_555 1_555
C15 H9 1_555 1_555
C16 H10 1_555 1_555
C17 C29 1_555 1_555
C18 C11 1_555 1_555
H11 C18 1_555 1_555
C19 C10 1_555 1_555
H12 C19 1_555 1_555
C20 C14 1_555 1_555
H13 C20 1_555 1_555
C21 C19 1_555 1_555
H14 C21 1_555 1_555
N11 N12 1_555 1_555
C22 C20 1_555 1_555
C23 N6 1_555 1_555
H15 C23 1_555 1_555
C24 C26 1_555 1_555
C25 C16 1_555 1_555
H16 C25 1_555 1_555
C26 O5 1_555 1_555
N12 C42 1_555 1_555
C27 N3 1_555 1_555
H17 C27 1_555 1_555
C28 O2 1_555 1_555
C29 C15 1_555 1_555
H18 C29 1_555 1_555
C30 C22 1_555 1_555
H19 C30 1_555 1_555
C31 N11 1_555 1_555
H20 C31 1_555 1_555
C32 H21 1_555 1_555
C33 N9 1_555 1_555
H22 C33 1_555 1_555
C34 H23 1_555 1_555
C35 N7 1_555 1_555
H24 C35 1_555 1_555
C36 N1 1_555 1_555
H25 C36 1_555 1_555
C37 C35 1_555 1_555
H26 C37 1_555 1_555
C38 N8 1_555 1_555
H27 C38 1_555 1_555
C39 N4 1_555 1_555
H28 C39 1_555 1_555
C40 C39 1_555 1_555
H29 C40 1_555 1_555
C41 C31 1_555 1_555
C42 H30 1_555 1_555
C43 C16 1_555 1_555
C44 C41 1_555 1_555
H31 C44 1_555 1_555
C45 C32 1_555 1_555
C46 C45 1_555 1_555
H32 C46 1_555 1_555
C47 N8 1_555 1_555
H33 C47 1_555 1_555
C48 N7 1_555 1_555
H34 C48 1_555 1_555
O7 Cd1 1_555 1_555
O8 C12 1_555 1_555
O9 C24 1_555 1_555
O10 Cd2 1_555 1_555
N13 C51 1_555 1_555
N14 C49 1_555 1_555
C49 H35 1_555 1_555
C50 H36 1_555 1_555
C51 H37 1_555 1_555
C52 C50 1_555 1_555
C53 C49 1_555 1_555
H38 C53 1_555 1_555
C54 N14 1_555 1_555
H39 C54 1_555 1_555
N15 C58 1_555 1_555
N16 N17 1_555 1_555
C55 C56 1_555 1_555
N17 C60 1_555 1_555
C56 H40 1_555 1_555
C57 N16 1_555 1_555
H41 C57 1_555 1_555
C58 H42 1_555 1_555
C59 H43 1_555 1_555
C60 H44 1_555 1_555
C61 C55 1_555 1_555
H45 C61 1_555 1_555
C62 C59 1_555 1_555
N18 C64 1_555 1_555
C63 N15 1_555 1_555
H46 C63 1_555 1_555
C64 H47 1_555 1_555
C65 C62 1_555 1_555
H48 C65 1_555 1_555
C66 C59 1_555 1_555
H49 C66 1_555 1_555
Cd1_2 O3 1_555 1_555
Cd1C N6 1_555 1_555
Cd2_2 O4 1_555 1_555
Cd2C N4 1_555 1_555
O3_2 Cd1 1_555 1_555
O4_2 Cd2 1_555 1_555
N4C Cd2 1_555 1_555
N6C Cd1 1_555 1_555
O8_2 Cd1 1_555 1_555
O9_2 Cd2 1_555 1_555
N13B N13 1_555 1_555
N14B C49B 1_555 1_555
C49B H35B 1_555 1_555
C50B H36B 1_555 1_555
C51B N13B 1_555 1_555
H37B C51B 1_555 1_555
C52B C50B 1_555 1_555
C53B C49B 1_555 1_555
H38B C53B 1_555 1_555
C54B N14B 1_555 1_555
H39B C54B 1_555 1_555
C3 C23 1_555 1_555
C5 C10 1_555 1_555
C6 C11 1_555 1_555
C8 C28 1_555 1_555
C9 O7 1_555 1_555
C13 O10 1_555 1_555
C15 C26 1_555 1_555
C18 C27 1_555 1_555
C22 C33 1_555 1_555
C30 C36 1_555 1_555
C32 C48 1_555 1_555
C34 C38 1_555 1_555
C34 C41 1_555 1_555
C37 C45 1_555 1_555
C40 C43 1_555 1_555
C42 C43 1_555 1_555
C44 C47 1_555 1_555
O8 Cd1_2 1_555 1_555
O9 Cd2_2 1_555 1_555
C50 C54 1_555 1_555
C51 C52 1_555 1_555
C52 C53 1_555 1_555
C55 C57 1_555 1_555
C56 C63 1_555 1_555
C58 C61 1_555 1_555
C60 C62 1_555 1_555
N18 C66 1_555 1_555
C64 C65 1_555 1_555
C50B C54B 1_555 1_555
C51B C52B 1_555 1_555
C52B C53B 1_555 1_555

#END
