
#######################################################################
#
#                 Cambridge Crystallographic Data Centre
#                                CCDC 
#
#######################################################################
#
# If this CIF has been generated from an entry in the Cambridge 
# Structural Database, then it will include bibliographic, chemical, 
# crystal, experimental, refinement or atomic coordinate data resulting 
# from the CCDC's data processing and validation procedures.
#
#######################################################################

data_KUVRIE
_symmetry_cell_setting           triclinic
_symmetry_space_group_name_H-M   'P -1'
_symmetry_Int_Tables_number      2
_space_group_name_Hall           '-P 1'
loop_
_symmetry_equiv_pos_site_id
_symmetry_equiv_pos_as_xyz
1 x,y,z
2 -x,-y,-z
_cell_length_a                   8.9712(9)
_cell_length_b                   10.0571(10)
_cell_length_c                   18.3348(19)
_cell_angle_alpha                74.5820(10)
_cell_angle_beta                 79.4070(10)
_cell_angle_gamma                83.0710(10)
_cell_volume                     1563.03
loop_
_atom_site_label
_atom_site_type_symbol
_atom_site_fract_x
_atom_site_fract_y
_atom_site_fract_z
Ni1 Ni -0.02165(5) 0.61546(4) 0.73282(2)
N1 N -0.2393(3) 0.6237(3) 0.71155(14)
N2 N -0.4532(3) 0.5857(3) 0.68141(15)
N3 N -0.0866(3) 0.5292(3) 0.84898(15)
N4 N -0.0824(4) 0.3867(3) 0.96325(16)
N5 N 0.0504(3) 0.6998(3) 0.61608(15)
N6 N 0.1479(3) 0.8332(3) 0.50584(16)
O1 O 0.0846(3) 1.4288(2) 0.72800(12)
O2 O -0.0554(3) 1.3310(2) 0.67114(15)
O3 O 0.1731(3) 0.7025(2) 0.76010(12)
O4 O -0.0482(3) 0.8188(2) 0.74790(13)
C1 C 0.0444(4) 1.3263(3) 0.71025(18)
C2 C 0.1277(4) 1.1889(3) 0.74081(17)
C3 C 0.2532(4) 1.1783(3) 0.77627(18)
H1 H 0.2862 1.2589 0.7815
C4 C 0.3329(4) 1.0530(4) 0.80462(18)
C5 C 0.2787(4) 0.9345(3) 0.79623(17)
H2 H 0.3298 0.8489 0.8133
C6 C 0.1497(4) 0.9415(3) 0.76283(17)
C7 C 0.0753(4) 1.0684(3) 0.73440(17)
H3 H -0.0096 1.0731 0.7111
C8 C 0.0880(4) 0.8128(3) 0.75742(18)
C9 C 0.4730(4) 1.0477(4) 0.8425(2)
C10 C 0.6038(5) 1.1065(5) 0.7802(3)
H4 H 0.6925 1.1042 0.8030
H5 H 0.5750 1.2004 0.7552
H6 H 0.6258 1.0520 0.7433
C11 C 0.4382(5) 1.1362(5) 0.9008(3)
H7 H 0.3468 1.1090 0.9355
H8 H 0.4248 1.2319 0.8744
H9 H 0.5212 1.1231 0.9290
C12 C 0.5235(5) 0.9015(5) 0.8834(3)
H10 H 0.5500 0.8458 0.8471
H11 H 0.4420 0.8628 0.9222
H12 H 0.6103 0.9036 0.9068
C13 C -0.3191(4) 0.5298(4) 0.70168(19)
H13 H -0.2865 0.4366 0.7080
C14 C -0.3296(4) 0.7457(4) 0.69631(19)
H14 H -0.3037 0.8311 0.6986
C15 C -0.4605(4) 0.7228(4) 0.6776(2)
H15 H -0.5403 0.7879 0.6647
C16 C -0.5619(4) 0.5136(4) 0.6593(2)
H16 H -0.6625 0.5593 0.6688
H17 H -0.5636 0.4199 0.6915
C17 C -0.5280(4) 0.5077(4) 0.5765(2)
C18 C -0.3905(4) 0.5418(5) 0.5297(2)
H18 H -0.3154 0.5715 0.5493
C19 C -0.3641(4) 0.5321(4) 0.4549(2)
H19 H -0.2702 0.5532 0.4251
C20 C -0.0046(4) 0.4359(4) 0.89314(19)
H20 H 0.0959 0.4072 0.8776
C21 C -0.2235(5) 0.5407(4) 0.8947(2)
H21 H -0.3059 0.6007 0.8797
C22 C -0.2229(5) 0.4538(5) 0.9640(2)
H22 H -0.3032 0.4417 1.0047
C23 C -0.0272(6) 0.2764(4) 1.0246(2)
H23 H -0.0959 0.2756 1.0722
H24 H 0.0719 0.2967 1.0310
C24 C 0.0580(5) 0.0278(4) 1.0582(2)
H25 H 0.0980 0.0454 1.0978
C25 C -0.0143(4) 0.1345(4) 1.00984(19)
C26 C -0.0718(5) 0.1041(4) 0.9513(2)
H26 H -0.1208 0.1746 0.9178
C27 C 0.1312(4) 0.8062(4) 0.58230(19)
H27 H 0.1720 0.8569 0.6085
C28 C 0.0139(4) 0.6579(4) 0.5566(2)
H28 H -0.0433 0.5836 0.5623
C29 C 0.0723(4) 0.7390(4) 0.4893(2)
H29 H 0.0628 0.7319 0.4409
C30 C 0.2267(5) 0.9495(4) 0.4510(2)
H30 H 0.1580 1.0324 0.4457
H31 H 0.2532 0.9289 0.4012
C31 C 0.5057(5) 0.9042(5) 0.4586(2)
H32 H 0.5107 0.8387 0.4305
C32 C 0.3693(5) 0.9763(4) 0.4760(2)
C33 C 0.3651(5) 1.0720(4) 0.5178(2)
H33 H 0.2737 1.1214 0.5304
N1A N -0.7607(3) 0.3763(3) 0.28845(14)
N2A N -0.5468(3) 0.4143(3) 0.31859(15)
C13A C -0.6809(4) 0.4702(4) 0.29832(19)
H13A H -0.7135 0.5634 0.2920
C14A C -0.6704(4) 0.2543(4) 0.30369(19)
H14A H -0.6963 0.1689 0.3014
C15A C -0.5395(4) 0.2772(4) 0.3224(2)
H15A H -0.4597 0.2121 0.3353
C16A C -0.4381(4) 0.4864(4) 0.3407(2)
H16A H -0.3375 0.4407 0.3312
H17A H -0.4364 0.5801 0.3085
C17A C -0.4720(4) 0.4923(4) 0.4235(2)
C18A C -0.6095(4) 0.4582(5) 0.4703(2)
H18A H -0.6846 0.4285 0.4507
C19A C -0.6359(4) 0.4679(4) 0.5451(2)
H19A H -0.7298 0.4468 0.5749
N3A N 0.0866(3) -0.5292(3) 1.15102(15)
N4A N 0.0824(4) -0.3867(3) 1.03675(16)
C20A C 0.0046(4) -0.4359(4) 1.10686(19)
H20A H -0.0959 -0.4072 1.1224
C21A C 0.2235(5) -0.5407(4) 1.1053(2)
H21A H 0.3059 -0.6007 1.1203
C22A C 0.2229(5) -0.4538(5) 1.0360(2)
H22A H 0.3032 -0.4417 0.9953
C23A C 0.0272(6) -0.2764(4) 0.9754(2)
H23A H 0.0959 -0.2756 0.9278
H24A H -0.0719 -0.2967 0.9690
C24A C -0.0580(5) -0.0278(4) 0.9418(2)
H25A H -0.0980 -0.0454 0.9022
C25A C 0.0143(4) -0.1345(4) 0.99016(19)
C26A C 0.0718(5) -0.1041(4) 1.0487(2)
H26A H 0.1208 -0.1746 1.0822
N5A N 0.9496(3) 1.3002(3) 0.38392(15)
N6A N 0.8521(3) 1.1668(3) 0.49416(16)
C27A C 0.8688(4) 1.1938(4) 0.41770(19)
H27A H 0.8280 1.1431 0.3915
C28A C 0.9861(4) 1.3421(4) 0.4434(2)
H28A H 1.0433 1.4164 0.4377
C29A C 0.9277(4) 1.2610(4) 0.5107(2)
H29A H 0.9372 1.2681 0.5591
C30A C 0.7733(5) 1.0505(4) 0.5490(2)
H30A H 0.8420 0.9676 0.5543
H31A H 0.7468 1.0711 0.5988
C31A C 0.4943(5) 1.0958(5) 0.5414(2)
H32A H 0.4893 1.1613 0.5695
C32A C 0.6307(5) 1.0237(4) 0.5240(2)
C33A C 0.6349(5) 0.9280(4) 0.4822(2)
H33A H 0.7263 0.8786 0.4696
Ni1A Ni -0.97835(5) 0.38454(4) 0.26718(2)
O1A O -1.0846(3) -0.4288(2) 0.27200(12)
O2A O -0.9446(3) -0.3310(2) 0.32886(15)
O3A O -1.1731(3) 0.2975(2) 0.23990(12)
O4A O -0.9518(3) 0.1812(2) 0.25210(13)
C1A C -1.0444(4) -0.3263(3) 0.28975(18)
C2A C -1.1277(4) -0.1889(3) 0.25919(17)
C3A C -1.2532(4) -0.1783(3) 0.22373(18)
H1A H -1.2862 -0.2589 0.2185
C4A C -1.3329(4) -0.0530(4) 0.19538(18)
C5A C -1.2787(4) 0.0655(3) 0.20377(17)
H2A H -1.3298 0.1511 0.1867
C6A C -1.1497(4) 0.0585(3) 0.23717(17)
C7A C -1.0753(4) -0.0684(3) 0.26560(17)
H3A H -0.9904 -0.0731 0.2889
C8A C -1.0880(4) 0.1872(3) 0.24258(18)
C9A C -1.4730(4) -0.0477(4) 0.1575(2)
C10A C -1.6038(5) -0.1065(5) 0.2198(3)
H4A H -1.6925 -0.1042 0.1970
H5A H -1.5750 -0.2004 0.2448
H6A H -1.6258 -0.0520 0.2567
C11A C -1.4382(5) -0.1362(5) 0.0992(3)
H7A H -1.3468 -0.1090 0.0645
H8A H -1.4248 -0.2319 0.1256
H9A H -1.5212 -0.1231 0.0710
C12A C -1.5235(5) 0.0985(5) 0.1166(3)
H10A H -1.5500 0.1542 0.1529
H11A H -1.4420 0.1372 0.0778
H12A H -1.6103 0.0964 0.0932
Ni1_2 Ni -0.02165(5) 1.61546(4) 0.73282(2)
Ni1A_2 Ni -0.97835(5) -0.61546(4) 0.26718(2)
Ni1A_3 Ni 0.02165(5) -0.61546(4) 1.26718(2)
Ni1A_4 Ni 1.02165(5) 1.38454(4) 0.26718(2)
N3A_2 N -0.9134(3) 0.4708(3) 0.15102(15)
N5A_2 N -1.0504(3) 0.3002(3) 0.38392(15)
O1_2 O 0.0846(3) 0.4288(2) 0.72800(12)
O1A_2 O -1.0846(3) 0.5712(2) 0.27200(12)
O5 O 0.3692(4) 0.5431(4) 0.85845(19)
H34 H 0.3237 0.6026 0.8240
H35 H 0.3978 0.4780 0.8348
loop_
_geom_bond_atom_site_label_1
_geom_bond_atom_site_label_2
_geom_bond_site_symmetry_1
_geom_bond_site_symmetry_2
Ni1 N1 1_555 1_555
N1 C13 1_555 1_555
N2 C13 1_555 1_555
N3 Ni1 1_555 1_555
N4 C20 1_555 1_555
N5 Ni1 1_555 1_555
N6 C27 1_555 1_555
O1 C1 1_555 1_555
O2 C1 1_555 1_555
O3 Ni1 1_555 1_555
O4 Ni1 1_555 1_555
C1 C2 1_555 1_555
C2 C3 1_555 1_555
C3 H1 1_555 1_555
C4 C3 1_555 1_555
C5 C4 1_555 1_555
H2 C5 1_555 1_555
C6 C5 1_555 1_555
C7 C2 1_555 1_555
H3 C7 1_555 1_555
C8 O3 1_555 1_555
C9 C4 1_555 1_555
C10 C9 1_555 1_555
H4 C10 1_555 1_555
H5 C10 1_555 1_555
H6 C10 1_555 1_555
C11 C9 1_555 1_555
H7 C11 1_555 1_555
H8 C11 1_555 1_555
H9 C11 1_555 1_555
C12 C9 1_555 1_555
H10 C12 1_555 1_555
H11 C12 1_555 1_555
H12 C12 1_555 1_555
C13 H13 1_555 1_555
C14 N1 1_555 1_555
H14 C14 1_555 1_555
C15 N2 1_555 1_555
H15 C15 1_555 1_555
C16 N2 1_555 1_555
H16 C16 1_555 1_555
H17 C16 1_555 1_555
C17 C16 1_555 1_555
C18 C17 1_555 1_555
H18 C18 1_555 1_555
C19 C18 1_555 1_555
H19 C19 1_555 1_555
C20 N3 1_555 1_555
H20 C20 1_555 1_555
C21 N3 1_555 1_555
H21 C21 1_555 1_555
C22 N4 1_555 1_555
H22 C22 1_555 1_555
C23 N4 1_555 1_555
H23 C23 1_555 1_555
H24 C23 1_555 1_555
C24 H25 1_555 1_555
C25 C23 1_555 1_555
C26 C25 1_555 1_555
H26 C26 1_555 1_555
C27 N5 1_555 1_555
H27 C27 1_555 1_555
C28 N5 1_555 1_555
H28 C28 1_555 1_555
C29 N6 1_555 1_555
H29 C29 1_555 1_555
C30 N6 1_555 1_555
H30 C30 1_555 1_555
H31 C30 1_555 1_555
C31 H32 1_555 1_555
C32 C30 1_555 1_555
C33 C32 1_555 1_555
H33 C33 1_555 1_555
O5 H34 1_555 1_555
H35 O5 1_555 1_555
N1A C13A 1_555 1_555
N2A C13A 1_555 1_555
C13A H13A 1_555 1_555
C14A N1A 1_555 1_555
H14A C14A 1_555 1_555
C15A N2A 1_555 1_555
H15A C15A 1_555 1_555
C16A N2A 1_555 1_555
H16A C16A 1_555 1_555
H17A C16A 1_555 1_555
C17A C19 1_555 1_555
C18A C17A 1_555 1_555
H18A C18A 1_555 1_555
C19A C17 1_555 1_555
H19A C19A 1_555 1_555
N3A C20A 1_555 1_555
N4A C20A 1_555 1_555
C20A H20A 1_555 1_555
C21A N3A 1_555 1_555
H21A C21A 1_555 1_555
C22A N4A 1_555 1_555
H22A C22A 1_555 1_555
C23A N4A 1_555 1_555
H23A C23A 1_555 1_555
H24A C23A 1_555 1_555
C24A C26 1_555 1_555
H25A C24A 1_555 1_555
C25A C23A 1_555 1_555
C26A C24 1_555 1_555
H26A C26A 1_555 1_555
N5A C27A 1_555 1_555
N6A C27A 1_555 1_555
C27A H27A 1_555 1_555
C28A N5A 1_555 1_555
H28A C28A 1_555 1_555
C29A N6A 1_555 1_555
H29A C29A 1_555 1_555
C30A N6A 1_555 1_555
H30A C30A 1_555 1_555
H31A C30A 1_555 1_555
C31A C33 1_555 1_555
H32A C31A 1_555 1_555
C32A C30A 1_555 1_555
C33A C31 1_555 1_555
H33A C33A 1_555 1_555
Ni1A N1A 1_555 1_555
O1A C1A 1_555 1_555
O2A C1A 1_555 1_555
O3A Ni1A 1_555 1_555
O4A Ni1A 1_555 1_555
C1A C2A 1_555 1_555
C2A C3A 1_555 1_555
C3A H1A 1_555 1_555
C4A C3A 1_555 1_555
C5A C4A 1_555 1_555
H2A C5A 1_555 1_555
C6A C5A 1_555 1_555
C7A C2A 1_555 1_555
H3A C7A 1_555 1_555
C8A O3A 1_555 1_555
C9A C4A 1_555 1_555
C10A C9A 1_555 1_555
H4A C10A 1_555 1_555
H5A C10A 1_555 1_555
H6A C10A 1_555 1_555
C11A C9A 1_555 1_555
H7A C11A 1_555 1_555
H8A C11A 1_555 1_555
H9A C11A 1_555 1_555
C12A C9A 1_555 1_555
H10A C12A 1_555 1_555
H11A C12A 1_555 1_555
H12A C12A 1_555 1_555
Ni1_2 O1 1_555 1_555
Ni1A_2 O1A 1_555 1_555
Ni1A_3 N3A 1_555 1_555
Ni1A_4 N5A 1_555 1_555
N3A_2 Ni1A 1_555 1_555
N5A_2 Ni1A 1_555 1_555
O1_2 Ni1 1_555 1_555
O1A_2 Ni1A 1_555 1_555
O4 C8 1_555 1_555
C6 C7 1_555 1_555
C6 C8 1_555 1_555
C14 C15 1_555 1_555
C21 C22 1_555 1_555
C24 C25 1_555 1_555
C28 C29 1_555 1_555
C31 C32 1_555 1_555
C14A C15A 1_555 1_555
C16A C17A 1_555 1_555
C18A C19A 1_555 1_555
C21A C22A 1_555 1_555
C24A C25A 1_555 1_555
C25A C26A 1_555 1_555
C28A C29A 1_555 1_555
C31A C32A 1_555 1_555
C32A C33A 1_555 1_555
O4A C8A 1_555 1_555
C6A C7A 1_555 1_555
C6A C8A 1_555 1_555

#END
