
#######################################################################
#
#                 Cambridge Crystallographic Data Centre
#                                CCDC 
#
#######################################################################
#
# If this CIF has been generated from an entry in the Cambridge 
# Structural Database, then it will include bibliographic, chemical, 
# crystal, experimental, refinement or atomic coordinate data resulting 
# from the CCDC's data processing and validation procedures.
#
#######################################################################

data_KUVRUQ
_symmetry_cell_setting           triclinic
_symmetry_space_group_name_H-M   'P -1'
_symmetry_Int_Tables_number      2
_space_group_name_Hall           '-P 1'
loop_
_symmetry_equiv_pos_site_id
_symmetry_equiv_pos_as_xyz
1 x,y,z
2 -x,-y,-z
_cell_length_a                   10.2427(9)
_cell_length_b                   11.0898(10)
_cell_length_c                   11.8660(10)
_cell_angle_alpha                105.9120(10)
_cell_angle_beta                 94.2520(10)
_cell_angle_gamma                106.0960(10)
_cell_volume                     1228.84
loop_
_atom_site_label
_atom_site_type_symbol
_atom_site_fract_x
_atom_site_fract_y
_atom_site_fract_z
Ni1 Ni 0.60971(3) 0.40009(3) 0.14676(3)
N1 N 0.6471(2) 0.5296(2) 0.3188(2)
N2 N 0.6331(3) 0.6868(2) 0.4739(2)
N3 N 0.4819(2) 0.8433(2) 0.2111(2)
N4 N 0.4234(2) 0.7355(2) 0.0203(2)
O1 O 0.44117(18) 0.26325(18) 0.18963(17)
O2 O 0.40571(18) 0.41869(18) 0.12109(17)
O3 O -0.0588(2) 0.4973(2) 0.1502(2)
O4 O -0.22645(18) 0.34368(19) 0.18923(17)
O5 O 0.7176(2) 0.5566(2) 0.0929(2)
H1 H 0.794(2) 0.547(4) 0.096(3)
H2 H 0.690(4) 0.560(4) 0.025(2)
C1 C 0.3610(3) 0.3216(2) 0.1600(2)
C2 C 0.2122(3) 0.2768(3) 0.1731(2)
C3 C 0.1291(3) 0.3568(3) 0.1706(2)
H3 H 0.1653 0.4397 0.1615
C4 C -0.0089(3) 0.3112(3) 0.1819(2)
C5 C -0.0615(3) 0.1873(3) 0.1957(2)
H4 H -0.1532 0.1589 0.2049
C6 C 0.0189(3) 0.1039(3) 0.1961(2)
C7 C 0.1567(3) 0.1522(3) 0.1855(2)
H5 H 0.2134 0.0999 0.1867
C8 C -0.1042(3) 0.3921(3) 0.1728(2)
C9 C -0.0430(4) -0.0340(3) 0.2079(4)
C10 C 0.0279(4) -0.1301(3) 0.1420(4)
H6 H 0.1239 -0.0992 0.1752
H7 H 0.0180 -0.1357 0.0595
H8 H -0.0136 -0.2157 0.1500
C11 C -0.0278(4) -0.0251(3) 0.3381(4)
H9 H 0.0681 0.0080 0.3720
H10 H -0.0671 -0.1112 0.3458
H11 H -0.0746 0.0334 0.3790
C12 C -0.1948(4) -0.0913(3) 0.1525(4)
H12 H -0.2286 -0.1814 0.1519
H13 H -0.2050 -0.0876 0.0725
H14 H -0.2462 -0.0410 0.1981
C13 C 0.5661(3) 0.5927(3) 0.3718(3)
H15 H 0.4737 0.5745 0.3424
C14 C 0.7719(3) 0.5850(3) 0.3922(3)
H16 H 0.8501 0.5597 0.3784
C15 C 0.7649(3) 0.6813(4) 0.4871(3)
H17 H 0.8358 0.7339 0.5495
C16 C 0.4392(3) 0.7777(3) 0.5023(3)
C17 C 0.3314(4) 0.7305(4) 0.5597(3)
H18 H 0.3506 0.7105 0.6291
C18 C 0.1976(4) 0.7130(4) 0.5158(4)
H19 H 0.1269 0.6824 0.5557
C19 C 0.1680(4) 0.7410(5) 0.4118(4)
H20 H 0.0772 0.7271 0.3805
C20 C 0.2739(4) 0.7897(4) 0.3546(3)
H21 H 0.2534 0.8089 0.2851
C21 C 0.4097(3) 0.8104(3) 0.3990(3)
C22 C 0.4667(3) 0.7297(3) 0.1252(2)
H22 H 0.4844 0.6565 0.1384
C23 C 0.4467(3) 0.9268(3) 0.1570(3)
H23 H 0.4476 1.0127 0.1936
C24 C 0.4103(3) 0.8596(3) 0.0401(3)
H24 H 0.3808 0.8921 -0.0181
C25 C 0.5824(4) 0.7879(3) 0.5510(3)
H25 H 0.6437 0.8749 0.5586
H26 H 0.5837 0.7774 0.6296
C26 C 0.5253(3) 0.8687(3) 0.3378(2)
H27 H 0.5609 0.9632 0.3761
H28 H 0.5995 0.8320 0.3477
Ni1_2 Ni -0.39029(3) 0.40009(3) 0.14676(3)
Ni1A Ni 0.39029(3) 0.59991(3) -0.14676(3)
N4A N 0.5766(2) 0.2645(2) -0.0203(2)
O4_2 O 0.77355(18) 0.34368(19) 0.18923(17)
loop_
_geom_bond_atom_site_label_1
_geom_bond_atom_site_label_2
_geom_bond_site_symmetry_1
_geom_bond_site_symmetry_2
Ni1 N1 1_555 1_555
N1 C13 1_555 1_555
N2 C13 1_555 1_555
N3 C22 1_555 1_555
N4 C22 1_555 1_555
O1 Ni1 1_555 1_555
O2 Ni1 1_555 1_555
O3 C8 1_555 1_555
O4 C8 1_555 1_555
O5 Ni1 1_555 1_555
H1 O5 1_555 1_555
H2 O5 1_555 1_555
C1 O1 1_555 1_555
C2 C1 1_555 1_555
C3 C2 1_555 1_555
H3 C3 1_555 1_555
C4 C3 1_555 1_555
C5 C4 1_555 1_555
H4 C5 1_555 1_555
C6 C5 1_555 1_555
C7 C2 1_555 1_555
H5 C7 1_555 1_555
C8 C4 1_555 1_555
C9 C6 1_555 1_555
C10 C9 1_555 1_555
H6 C10 1_555 1_555
H7 C10 1_555 1_555
H8 C10 1_555 1_555
C11 C9 1_555 1_555
H9 C11 1_555 1_555
H10 C11 1_555 1_555
H11 C11 1_555 1_555
C12 C9 1_555 1_555
H12 C12 1_555 1_555
H13 C12 1_555 1_555
H14 C12 1_555 1_555
C13 H15 1_555 1_555
C14 N1 1_555 1_555
H16 C14 1_555 1_555
C15 N2 1_555 1_555
H17 C15 1_555 1_555
C16 C17 1_555 1_555
C17 H18 1_555 1_555
C18 C17 1_555 1_555
H19 C18 1_555 1_555
C19 C18 1_555 1_555
H20 C19 1_555 1_555
C20 C19 1_555 1_555
H21 C20 1_555 1_555
C21 C16 1_555 1_555
C22 H22 1_555 1_555
C23 N3 1_555 1_555
H23 C23 1_555 1_555
C24 N4 1_555 1_555
H24 C24 1_555 1_555
C25 N2 1_555 1_555
H25 C25 1_555 1_555
H26 C25 1_555 1_555
C26 N3 1_555 1_555
H27 C26 1_555 1_555
H28 C26 1_555 1_555
Ni1_2 O4 1_555 1_555
Ni1A N4 1_555 1_555
N4A Ni1 1_555 1_555
O4_2 Ni1 1_555 1_555
O2 C1 1_555 1_555
C6 C7 1_555 1_555
C14 C15 1_555 1_555
C16 C25 1_555 1_555
C20 C21 1_555 1_555
C21 C26 1_555 1_555
C23 C24 1_555 1_555

#END
