
#######################################################################
#
#                 Cambridge Crystallographic Data Centre
#                                CCDC 
#
#######################################################################
#
# If this CIF has been generated from an entry in the Cambridge 
# Structural Database, then it will include bibliographic, chemical, 
# crystal, experimental, refinement or atomic coordinate data resulting 
# from the CCDC's data processing and validation procedures.
#
#######################################################################

data_KUVROK
_symmetry_cell_setting           triclinic
_symmetry_space_group_name_H-M   'P -1'
_symmetry_Int_Tables_number      2
_space_group_name_Hall           '-P 1'
loop_
_symmetry_equiv_pos_site_id
_symmetry_equiv_pos_as_xyz
1 x,y,z
2 -x,-y,-z
_cell_length_a                   9.0020(5)
_cell_length_b                   10.2280(6)
_cell_length_c                   14.9680(9)
_cell_angle_alpha                78.7850(10)
_cell_angle_beta                 84.2210(10)
_cell_angle_gamma                78.2830(10)
_cell_volume                     1320.97
loop_
_atom_site_label
_atom_site_type_symbol
_atom_site_fract_x
_atom_site_fract_y
_atom_site_fract_z
Ni1 Ni 0.61496(3) -0.18020(3) 0.63711(2)
N1 N -0.1537(3) 0.7702(2) 0.60622(17)
N2 N 0.0778(3) 0.6519(3) 0.59653(19)
N3 N 0.3851(3) -0.1343(2) 0.67295(16)
N4 N 0.1569(3) -0.0217(3) 0.70080(18)
O1 O 0.6528(2) -0.08901(18) 0.74770(13)
O2 O 0.6228(2) 0.03545(17) 0.61141(12)
O3 O 0.5989(3) 0.5356(2) 0.57826(14)
O4 O 0.6184(2) 0.62365(17) 0.70008(13)
O5 O 0.5807(2) -0.20825(19) 0.50745(13)
H1 H 0.579(5) -0.290(2) 0.517(3)
H2 H 0.514(3) -0.164(3) 0.4731(19)
C1 C 0.6367(3) 0.0253(2) 0.69644(18)
C2 C 0.6352(3) 0.1488(2) 0.73634(18)
C3 C 0.6239(3) 0.2761(2) 0.68133(18)
H3 H 0.6154 0.2861 0.6189
C4 C 0.6255(3) 0.3879(2) 0.72031(18)
C5 C 0.6375(3) 0.3724(3) 0.81333(19)
H4 H 0.6378 0.4485 0.8387
C6 C 0.6494(3) 0.2447(3) 0.87052(19)
C7 C 0.6464(3) 0.1349(3) 0.82965(19)
H5 H 0.6522 0.0494 0.8658
C8 C 0.6127(3) 0.5268(3) 0.66067(18)
C9 C 0.6583(4) 0.2306(3) 0.9738(2)
C10 C 0.4979(7) 0.2640(8) 1.0161(3)
H6 H 0.4381 0.2034 1.0024
H7 H 0.4532 0.3558 0.9915
H8 H 0.5009 0.2538 1.0810
C11 C 0.7520(7) 0.3259(5) 0.9960(3)
H9 H 0.7764 0.3000 1.0588
H10 H 0.6950 0.4171 0.9859
H11 H 0.8442 0.3213 0.9575
C12 C 0.7275(10) 0.0885(5) 1.0166(3)
H12 H 0.8309 0.0670 0.9929
H13 H 0.6707 0.0259 1.0026
H14 H 0.7250 0.0820 1.0815
C13 C 0.2901(3) -0.0180(3) 0.6536(2)
H15 H 0.3129 0.0569 0.6123
C14 C 0.3069(4) -0.2159(3) 0.7359(2)
H16 H 0.3453 -0.3048 0.7626
C15 C 0.1665(4) -0.1477(3) 0.7531(2)
H17 H 0.0906 -0.1800 0.7929
C16 C -0.0661(3) 0.6531(3) 0.6313(2)
H18 H -0.0990 0.5793 0.6688
C17 C -0.0614(4) 0.8499(3) 0.5545(2)
H19 H -0.0921 0.9403 0.5279
C18 C 0.0820(4) 0.7780(3) 0.5476(2)
H20 H 0.1662 0.8086 0.5158
C19 C 0.0294(4) 0.0942(4) 0.7017(3)
H21 H -0.0508 0.0673 0.7455
H22 H -0.0114 0.1207 0.6419
C20 C 0.0805(3) 0.2137(3) 0.7269(3)
C21 C 0.1028(5) 0.2155(4) 0.8159(3)
H23 H 0.0810 0.1448 0.8614
C22 C 0.1567(7) 0.3196(5) 0.8391(3)
H24 H 0.1684 0.3207 0.9000
C23 C 0.1934(6) 0.4225(4) 0.7717(3)
H25 H 0.2325 0.4919 0.7873
C24 C 0.1730(4) 0.4238(3) 0.6820(3)
C25 C 0.1168(3) 0.3177(3) 0.6592(3)
H26 H 0.1037 0.3169 0.5984
C26 C 0.2081(4) 0.5383(4) 0.6083(3)
H27 H 0.2949 0.5702 0.6238
H28 H 0.2348 0.5053 0.5512
Ni1_2 Ni -0.38504(3) 0.81980(3) 0.63711(2)
Ni1_3 Ni 0.61496(3) 0.81980(3) 0.63711(2)
N1_2 N 0.8463(3) -0.2298(2) 0.60622(17)
O4_2 O 0.6184(2) -0.37635(17) 0.70008(13)
O6 O 0.8621(6) 0.7392(10) 0.8705(4)
H29 H 0.7769 0.7893 0.8369
H30 H 0.8665 0.6450 0.8695
loop_
_geom_bond_atom_site_label_1
_geom_bond_atom_site_label_2
_geom_bond_site_symmetry_1
_geom_bond_site_symmetry_2
Ni1 N3 1_555 1_555
N1 C16 1_555 1_555
N2 C16 1_555 1_555
N3 C13 1_555 1_555
N4 C13 1_555 1_555
O1 Ni1 1_555 1_555
O2 Ni1 1_555 1_555
O3 C8 1_555 1_555
O4 C8 1_555 1_555
O5 Ni1 1_555 1_555
H1 O5 1_555 1_555
H2 O5 1_555 1_555
C1 O1 1_555 1_555
C2 C1 1_555 1_555
C3 C2 1_555 1_555
H3 C3 1_555 1_555
C4 C3 1_555 1_555
C5 C4 1_555 1_555
H4 C5 1_555 1_555
C6 C5 1_555 1_555
C7 C2 1_555 1_555
H5 C7 1_555 1_555
C8 C4 1_555 1_555
C9 C6 1_555 1_555
C10 C9 1_555 1_555
H6 C10 1_555 1_555
H7 C10 1_555 1_555
H8 C10 1_555 1_555
C11 C9 1_555 1_555
H9 C11 1_555 1_555
H10 C11 1_555 1_555
H11 C11 1_555 1_555
C12 C9 1_555 1_555
H12 C12 1_555 1_555
H13 C12 1_555 1_555
H14 C12 1_555 1_555
C13 H15 1_555 1_555
C14 N3 1_555 1_555
H16 C14 1_555 1_555
C15 N4 1_555 1_555
H17 C15 1_555 1_555
C16 H18 1_555 1_555
C17 N1 1_555 1_555
H19 C17 1_555 1_555
C18 N2 1_555 1_555
H20 C18 1_555 1_555
C19 N4 1_555 1_555
H21 C19 1_555 1_555
H22 C19 1_555 1_555
C20 C19 1_555 1_555
C21 C20 1_555 1_555
H23 C21 1_555 1_555
C22 C21 1_555 1_555
H24 C22 1_555 1_555
C23 C22 1_555 1_555
H25 C23 1_555 1_555
C24 C23 1_555 1_555
C25 C20 1_555 1_555
H26 C25 1_555 1_555
C26 N2 1_555 1_555
H27 C26 1_555 1_555
H28 C26 1_555 1_555
O6 H29 1_555 1_555
H30 O6 1_555 1_555
Ni1_2 N1 1_555 1_555
Ni1_3 O4 1_555 1_555
N1_2 Ni1 1_555 1_555
O4_2 Ni1 1_555 1_555
O2 C1 1_555 1_555
C6 C7 1_555 1_555
C14 C15 1_555 1_555
C17 C18 1_555 1_555
C24 C25 1_555 1_555
C24 C26 1_555 1_555

#END
