
#######################################################################
#
#                 Cambridge Crystallographic Data Centre
#                                CCDC 
#
#######################################################################
#
# If this CIF has been generated from an entry in the Cambridge 
# Structural Database, then it will include bibliographic, chemical, 
# crystal, experimental, refinement or atomic coordinate data resulting 
# from the CCDC's data processing and validation procedures.
#
#######################################################################

data_KUVREA
_symmetry_cell_setting           orthorhombic
_symmetry_space_group_name_H-M   'P 21 21 21'
_symmetry_Int_Tables_number      19
_space_group_name_Hall           'P 2ac 2ab'
loop_
_symmetry_equiv_pos_site_id
_symmetry_equiv_pos_as_xyz
1 x,y,z
2 1/2-x,-y,1/2+z
3 -x,1/2+y,1/2-z
4 1/2+x,1/2-y,-z
_cell_length_a                   10.5786(6)
_cell_length_b                   15.8768(8)
_cell_length_c                   18.6358(11)
_cell_angle_alpha                90
_cell_angle_beta                 90
_cell_angle_gamma                90
_cell_volume                     3129.96
loop_
_atom_site_label
_atom_site_type_symbol
_atom_site_fract_x
_atom_site_fract_y
_atom_site_fract_z
Ni1 Ni 0.50089(4) 1.02562(2) 0.279270(19)
N1 N 0.4255(3) 0.99797(17) 0.17739(14)
N2 N 0.2778(3) 0.96545(17) 0.09813(15)
N3 N 0.2911(3) 0.58671(17) 0.03432(15)
N4 N 0.4208(2) 0.54244(18) 0.11931(16)
N5 N -0.1916(3) 0.69280(18) 0.20698(16)
N6 N -0.3714(2) 0.62240(17) 0.20884(16)
O1 O 0.6223(2) 1.11814(14) 0.23637(13)
O2 O 0.7864(3) 1.04530(18) 0.1962(3)
O3 O 0.6075(2) 1.42764(14) 0.18571(13)
O4 O 0.7369(2) 1.47708(15) 0.10056(14)
O5 O 0.6470(3) 0.93475(17) 0.26006(18)
H1 H 0.696(6) 0.967(4) 0.236(4)
H2 H 0.641(12) 0.922(8) 0.304(2)
C1 C 0.7260(3) 1.1121(2) 0.2045(2)
C2 C 0.7806(3) 1.19032(18) 0.17082(16)
C3 C 0.8953(3) 1.18583(19) 0.13419(18)
H3 H 0.9357 1.1340 0.1302
C4 C 0.9516(3) 1.2568(2) 0.10332(17)
C5 C 0.8847(3) 1.33222(19) 0.10823(18)
H4 H 0.9186 1.3803 0.0871
C6 C 0.7685(3) 1.33833(19) 0.14373(16)
C7 C 0.7186(3) 1.26728(19) 0.17632(16)
H5 H 0.6434 1.2711 0.2020
C8 C 0.7000(3) 1.42214(19) 0.14216(16)
C9 C 1.0784(3) 1.2534(2) 0.0648(2)
C10 C 1.0558(6) 1.2752(4) -0.0138(4)
H6 H 1.1355 1.2829 -0.0375
H7 H 1.0074 1.3262 -0.0169
H8 H 1.0102 1.2302 -0.0365
C11 C 1.1654(6) 1.3190(4) 0.0973(4)
H9 H 1.2077 1.3491 0.0597
H10 H 1.2269 1.2917 0.1272
H11 H 1.1167 1.3577 0.1256
C12 C 1.1406(6) 1.1697(4) 0.0671(4)
H12 H 1.0834 1.1276 0.0495
H13 H 1.1638 1.1567 0.1156
H14 H 1.2151 1.1707 0.0376
C13 C 0.4526(3) 1.0363(2) 0.11273(19)
H15 H 0.5226 1.0703 0.1040
C14 C 0.3625(3) 1.0171(2) 0.0639(2)
H16 H 0.3587 1.0353 0.0165
C15 C 0.3203(3) 0.9562(2) 0.16577(18)
H17 H 0.2797 0.9238 0.2004
C16 C 0.3399(3) 0.6007(2) 0.0994(2)
H18 H 0.3188 0.6469 0.1277
C17 C 0.4240(4) 0.4871(3) 0.0628(2)
H19 H 0.4730 0.4385 0.0610
C18 C 0.3450(3) 0.5138(3) 0.0098(2)
H20 H 0.3305 0.4878 -0.0342
C19 C -0.2861(4) 0.7504(2) 0.1961(2)
H21 H -0.2766 0.8080 0.1890
C20 C -0.3954(4) 0.7072(2) 0.1978(2)
H22 H -0.4753 0.7307 0.1923
C21 C -0.2487(3) 0.6174(2) 0.2146(2)
H23 H -0.2055 0.5673 0.2229
C22 C -0.0552(3) 0.7087(3) 0.2168(2)
H24 H -0.0158 0.6572 0.2336
H25 H -0.0450 0.7507 0.2542
C23 C 0.0254(4) 0.5853(2) 0.1135(3)
H26 H 0.0578 0.5529 0.0740
H27 H -0.0649 0.5797 0.1154
H28 H 0.0615 0.5651 0.1575
C24 C 0.1920(4) 0.6352(3) -0.0024(2)
H29 H 0.1248 0.5975 -0.0174
H30 H 0.2270 0.6616 -0.0449
C25 C 0.2700(5) 0.8123(3) -0.0178(2)
H31 H 0.2295 0.8457 -0.0541
H32 H 0.3060 0.7629 -0.0393
H33 H 0.3357 0.8448 0.0046
C26 C 0.1544(3) 0.9386(2) 0.0689(2)
H34 H 0.1542 0.9478 0.0175
H35 H 0.0886 0.9736 0.0896
C27 C -0.0048(4) 0.8900(2) 0.1926(2)
H36 H 0.0258 0.9445 0.1786
H37 H 0.0237 0.8775 0.2403
H38 H -0.0956 0.8900 0.1916
C28 C 0.0152(3) 0.7385(2) 0.15071(18)
C29 C 0.0601(3) 0.6775(2) 0.1032(2)
C30 C 0.1387(3) 0.7019(2) 0.04674(19)
C31 C 0.1736(3) 0.7865(2) 0.03823(18)
C32 C 0.1237(3) 0.8471(2) 0.08369(18)
C33 C 0.0450(3) 0.8240(2) 0.14111(19)
Ni1B Ni -0.50089(4) 0.52562(2) 0.220730(19)
Ni1B_2 Ni 0.49911(4) 0.52562(2) 0.220730(19)
Ni1B_3 Ni 0.49911(4) 1.52562(2) 0.220730(19)
N4B N 0.5792(2) 1.04244(18) 0.38069(16)
N6B N 0.3714(2) 1.12240(17) 0.29116(16)
O3B O 0.3925(2) 0.92764(14) 0.31429(13)
loop_
_geom_bond_atom_site_label_1
_geom_bond_atom_site_label_2
_geom_bond_site_symmetry_1
_geom_bond_site_symmetry_2
Ni1 N1 1_555 1_555
N1 C13 1_555 1_555
N2 C14 1_555 1_555
N3 C16 1_555 1_555
N4 C16 1_555 1_555
N5 C19 1_555 1_555
N6 C20 1_555 1_555
O1 Ni1 1_555 1_555
O2 C1 1_555 1_555
O3 C8 1_555 1_555
O4 C8 1_555 1_555
O5 Ni1 1_555 1_555
H1 O5 1_555 1_555
H2 O5 1_555 1_555
C1 O1 1_555 1_555
C2 C1 1_555 1_555
C3 C2 1_555 1_555
H3 C3 1_555 1_555
C4 C3 1_555 1_555
C5 C4 1_555 1_555
H4 C5 1_555 1_555
C6 C5 1_555 1_555
C7 C2 1_555 1_555
H5 C7 1_555 1_555
C8 C6 1_555 1_555
C9 C4 1_555 1_555
C10 C9 1_555 1_555
H6 C10 1_555 1_555
H7 C10 1_555 1_555
H8 C10 1_555 1_555
C11 C9 1_555 1_555
H9 C11 1_555 1_555
H10 C11 1_555 1_555
H11 C11 1_555 1_555
C12 C9 1_555 1_555
H12 C12 1_555 1_555
H13 C12 1_555 1_555
H14 C12 1_555 1_555
C13 H15 1_555 1_555
C14 C13 1_555 1_555
H16 C14 1_555 1_555
C15 N1 1_555 1_555
H17 C15 1_555 1_555
C16 H18 1_555 1_555
C17 N4 1_555 1_555
H19 C17 1_555 1_555
C18 N3 1_555 1_555
H20 C18 1_555 1_555
C19 H21 1_555 1_555
C20 C19 1_555 1_555
H22 C20 1_555 1_555
C21 N5 1_555 1_555
H23 C21 1_555 1_555
C22 N5 1_555 1_555
H24 C22 1_555 1_555
H25 C22 1_555 1_555
C23 H26 1_555 1_555
H27 C23 1_555 1_555
H28 C23 1_555 1_555
C24 N3 1_555 1_555
H29 C24 1_555 1_555
H30 C24 1_555 1_555
C25 H31 1_555 1_555
H32 C25 1_555 1_555
H33 C25 1_555 1_555
C26 N2 1_555 1_555
H34 C26 1_555 1_555
H35 C26 1_555 1_555
C27 H36 1_555 1_555
H37 C27 1_555 1_555
H38 C27 1_555 1_555
C28 C22 1_555 1_555
C29 C23 1_555 1_555
C30 C24 1_555 1_555
C31 C25 1_555 1_555
C32 C26 1_555 1_555
C33 C27 1_555 1_555
Ni1B N6 1_555 1_555
Ni1B_2 N4 1_555 1_555
Ni1B_3 O3 1_555 1_555
N4B Ni1 1_555 1_555
N6B Ni1 1_555 1_555
O3B Ni1 1_555 1_555
N2 C15 1_555 1_555
N6 C21 1_555 1_555
C6 C7 1_555 1_555
C17 C18 1_555 1_555
C28 C29 1_555 1_555
C28 C33 1_555 1_555
C29 C30 1_555 1_555
C30 C31 1_555 1_555
C31 C32 1_555 1_555
C32 C33 1_555 1_555

#END
