
#######################################################################
#
#                 Cambridge Crystallographic Data Centre
#                                CCDC 
#
#######################################################################
#
# If this CIF has been generated from an entry in the Cambridge 
# Structural Database, then it will include bibliographic, chemical, 
# crystal, experimental, refinement or atomic coordinate data resulting 
# from the CCDC's data processing and validation procedures.
#
#######################################################################

data_KUVZOR
_symmetry_cell_setting           orthorhombic
_symmetry_space_group_name_H-M   'P b c a'
_symmetry_Int_Tables_number      61
_space_group_name_Hall           '-P 2ac 2ab'
loop_
_symmetry_equiv_pos_site_id
_symmetry_equiv_pos_as_xyz
1 x,y,z
2 1/2-x,-y,1/2+z
3 -x,1/2+y,1/2-z
4 1/2+x,1/2-y,-z
5 -x,-y,-z
6 1/2+x,y,1/2-z
7 x,1/2-y,1/2+z
8 1/2-x,1/2+y,z
_cell_length_a                   12.8793(16)
_cell_length_b                   23.655(3)
_cell_length_c                   29.969(4)
_cell_angle_alpha                90
_cell_angle_beta                 90
_cell_angle_gamma                90
_cell_volume                     9130.35
loop_
_atom_site_label
_atom_site_type_symbol
_atom_site_fract_x
_atom_site_fract_y
_atom_site_fract_z
Cd1 Cd 0.50318(4) 0.42908(2) 0.241114(16)
Cd2 Cd 0.72962(4) 0.53764(2) 0.415710(17)
Cd3 Cd 0.98234(4) 0.74434(2) 0.507203(17)
Br1 Br 0.59714(6) 0.35423(3) 0.18844(3)
Br2 Br 0.57499(7) 0.52175(4) 0.20364(3)
Br3 Br 0.89860(8) 0.49733(4) 0.45055(3)
Br4 Br 0.54394(7) 0.50353(4) 0.43779(3)
Br5 Br 0.74372(7) 0.61664(4) 0.35482(3)
Br6 Br 1.07895(7) 0.69307(5) 0.56992(3)
N1 N 0.6491(4) 0.4230(2) 0.29363(17)
N2 N 0.7359(4) 0.3608(2) 0.34693(18)
N3 N 0.8393(4) 0.4219(2) 0.29879(17)
N4 N 0.7355(4) 0.4628(2) 0.35878(18)
N5 N 0.7264(4) 0.6088(3) 0.47673(18)
N6 N 0.8208(4) 0.6866(2) 0.51211(18)
N7 N 0.6306(4) 0.6896(2) 0.50745(18)
N8 N 0.7158(5) 0.6225(3) 0.55742(18)
O1 O 0.4172(4) 0.4820(2) 0.29551(16)
O2 O 0.4195(4) 0.3574(2) 0.28718(18)
O3 O 0.8995(4) 0.8098(2) 0.55201(16)
O4 O 0.8977(4) 0.7966(2) 0.45223(18)
O5 O 1.0461(5) 0.6928(3) 0.44652(18)
C1 C 0.6467(5) 0.3676(3) 0.3163(2)
H1 H 0.6481 0.3377 0.2942
H2 H 0.5826 0.3641 0.3331
C2 C 0.8312(5) 0.3659(3) 0.3218(2)
H3 H 0.8343 0.3359 0.2997
H4 H 0.8898 0.3612 0.3418
C3 C 0.8319(5) 0.4663(3) 0.3331(2)
H5 H 0.8904 0.4629 0.3533
H6 H 0.8358 0.5030 0.3188
C4 C 0.6463(5) 0.4679(3) 0.3279(2)
H7 H 0.5820 0.4651 0.3447
H8 H 0.6480 0.5046 0.3136
C5 C 0.7323(5) 0.4066(3) 0.3798(2)
H9 H 0.7908 0.4029 0.4000
H10 H 0.6692 0.4033 0.3972
C6 C 0.7487(5) 0.4270(3) 0.2692(2)
H11 H 0.7515 0.3974 0.2469
H12 H 0.7517 0.4630 0.2538
C7 C 0.8212(5) 0.6443(3) 0.4766(2)
H13 H 0.8816 0.6202 0.4801
H14 H 0.8269 0.6633 0.4480
C8 C 0.7261(5) 0.7231(3) 0.5060(2)
H15 H 0.7241 0.7515 0.5293
H16 H 0.7305 0.7425 0.4775
C9 C 0.6254(6) 0.6597(3) 0.5508(2)
H17 H 0.6226 0.6873 0.5747
H18 H 0.5623 0.6374 0.5519
C10 C 0.7190(6) 0.5814(3) 0.5210(2)
H19 H 0.6569 0.5582 0.5220
H20 H 0.7784 0.5567 0.5251
C11 C 0.8116(6) 0.6573(3) 0.5556(2)
H21 H 0.8102 0.6850 0.5794
H22 H 0.8716 0.6332 0.5601
C12 C 0.6345(5) 0.6470(3) 0.4719(2)
H23 H 0.6378 0.6658 0.4432
H24 H 0.5715 0.6246 0.4726
Cd1E Cd 1.00318(4) 0.42908(2) 0.258886(16)
Cd3C Cd 0.48234(4) 0.75566(2) 0.492797(17)
N3E N 0.3393(4) 0.4219(2) 0.20121(17)
N7C N 1.1306(4) 0.8104(2) 0.49255(18)
N9 N 0.4006(5) 0.6739(3) 0.3577(2)
N10 N 0.2888(5) 0.6806(3) 0.2925(2)
N11 N 0.3987(6) 0.5984(3) 0.3016(2)
N12 N 0.4756(5) 0.6899(3) 0.2841(2)
C13 C 0.3027(7) 0.6937(4) 0.3405(3)
H25 H 0.2982 0.7343 0.3448
H26 H 0.2468 0.6764 0.3574
C14 C 0.2981(7) 0.6199(4) 0.2864(3)
H27 H 0.2894 0.6110 0.2550
H28 H 0.2431 0.6012 0.3028
C15 C 0.4825(7) 0.6289(4) 0.2782(3)
H29 H 0.5490 0.6158 0.2894
H30 H 0.4792 0.6201 0.2467
C16 C 0.4822(6) 0.7012(3) 0.3320(3)
H31 H 0.5490 0.6882 0.3429
H32 H 0.4785 0.7416 0.3368
C17 C 0.4091(7) 0.6122(4) 0.3491(3)
H33 H 0.4758 0.5989 0.3598
H34 H 0.3554 0.5926 0.3658
C18 C 0.3709(7) 0.7078(3) 0.2683(3)
H35 H 0.3643 0.7484 0.2716
H36 H 0.3642 0.6988 0.2368
O6 O 0.8345(6) 0.8964(3) 0.4965(2)
O7 O 0.0247(9) 0.7315(7) 0.3629(3)
O8 O 0.1406(7) 0.5896(4) 0.4636(3)
O9 O 0.3022(5) 0.4172(3) 0.35323(19)
O10 O 0.3910(5) 0.2440(3) 0.2743(3)
O11 O 0.8200(5) 0.7520(3) 0.3757(2)
loop_
_geom_bond_atom_site_label_1
_geom_bond_atom_site_label_2
_geom_bond_site_symmetry_1
_geom_bond_site_symmetry_2
Cd1 Br1 1_555 1_555
Cd2 Br3 1_555 1_555
Cd3 Br6 1_555 1_555
Br2 Cd1 1_555 1_555
Br4 Cd2 1_555 1_555
Br5 Cd2 1_555 1_555
N1 Cd1 1_555 1_555
N2 C1 1_555 1_555
N3 C2 1_555 1_555
N4 Cd2 1_555 1_555
N5 Cd2 1_555 1_555
N6 Cd3 1_555 1_555
N7 C8 1_555 1_555
N8 C9 1_555 1_555
O1 Cd1 1_555 1_555
O2 Cd1 1_555 1_555
O3 Cd3 1_555 1_555
O4 Cd3 1_555 1_555
O5 Cd3 1_555 1_555
C1 N1 1_555 1_555
H1 C1 1_555 1_555
H2 C1 1_555 1_555
C2 N2 1_555 1_555
H3 C2 1_555 1_555
H4 C2 1_555 1_555
C3 N3 1_555 1_555
H5 C3 1_555 1_555
H6 C3 1_555 1_555
C4 N1 1_555 1_555
H7 C4 1_555 1_555
H8 C4 1_555 1_555
C5 N2 1_555 1_555
H9 C5 1_555 1_555
H10 C5 1_555 1_555
C6 N1 1_555 1_555
H11 C6 1_555 1_555
H12 C6 1_555 1_555
C7 N5 1_555 1_555
H13 C7 1_555 1_555
H14 C7 1_555 1_555
C8 N6 1_555 1_555
H15 C8 1_555 1_555
H16 C8 1_555 1_555
C9 N7 1_555 1_555
H17 C9 1_555 1_555
H18 C9 1_555 1_555
C10 N5 1_555 1_555
H19 C10 1_555 1_555
H20 C10 1_555 1_555
C11 N6 1_555 1_555
H21 C11 1_555 1_555
H22 C11 1_555 1_555
C12 N5 1_555 1_555
H23 C12 1_555 1_555
H24 C12 1_555 1_555
N9 C13 1_555 1_555
N10 C13 1_555 1_555
N11 C14 1_555 1_555
N12 C15 1_555 1_555
C13 H25 1_555 1_555
H26 C13 1_555 1_555
C14 N10 1_555 1_555
H27 C14 1_555 1_555
H28 C14 1_555 1_555
C15 N11 1_555 1_555
H29 C15 1_555 1_555
H30 C15 1_555 1_555
C16 N9 1_555 1_555
H31 C16 1_555 1_555
H32 C16 1_555 1_555
C17 N9 1_555 1_555
H33 C17 1_555 1_555
H34 C17 1_555 1_555
C18 N10 1_555 1_555
H35 C18 1_555 1_555
H36 C18 1_555 1_555
Cd1E N3 1_555 1_555
Cd3C N7 1_555 1_555
N3E Cd1 1_555 1_555
N7C Cd3 1_555 1_555
N3 C6 1_555 1_555
N4 C3 1_555 1_555
N4 C4 1_555 1_555
N4 C5 1_555 1_555
N6 C7 1_555 1_555
N7 C12 1_555 1_555
N8 C10 1_555 1_555
N8 C11 1_555 1_555
N11 C17 1_555 1_555
N12 C16 1_555 1_555
N12 C18 1_555 1_555

#END
