
#######################################################################
#
#                 Cambridge Crystallographic Data Centre
#                                CCDC 
#
#######################################################################
#
# If this CIF has been generated from an entry in the Cambridge 
# Structural Database, then it will include bibliographic, chemical, 
# crystal, experimental, refinement or atomic coordinate data resulting 
# from the CCDC's data processing and validation procedures.
#
#######################################################################

data_KUVZUX
_symmetry_cell_setting           triclinic
_symmetry_space_group_name_H-M   'P -1'
_symmetry_Int_Tables_number      2
_space_group_name_Hall           '-P 1'
loop_
_symmetry_equiv_pos_site_id
_symmetry_equiv_pos_as_xyz
1 x,y,z
2 -x,-y,-z
_cell_length_a                   7.779(2)
_cell_length_b                   13.848(3)
_cell_length_c                   18.149(4)
_cell_angle_alpha                68.67(2)
_cell_angle_beta                 88.81(2)
_cell_angle_gamma                76.03(2)
_cell_volume                     1762.42
loop_
_atom_site_label
_atom_site_type_symbol
_atom_site_fract_x
_atom_site_fract_y
_atom_site_fract_z
Cd1 Cd 0.34695(3) 1.178131(19) 0.348822(14)
Cd2 Cd 0.54961(3) 0.84592(2) 0.164211(14)
O1 O 0.0851(3) 1.3121(2) 0.30448(16)
H1 H 0.007(4) 1.331(3) 0.332(2)
H2 H 0.043(5) 1.322(3) 0.2590(15)
O2 O 0.4109(3) 0.7040(2) 0.19199(16)
H3 H 0.433(5) 0.639(3) 0.235(2)
H4 H 0.347(6) 0.702(3) 0.165(3)
S1 S 0.16757(13) 1.13893(8) 0.48224(6)
C1 C 0.3072(4) 1.0317(3) 0.5430(2)
N1 N 0.4041(4) 0.9562(2) 0.58716(18)
S2 S 0.51113(16) 1.38381(10) 0.08222(7)
C2 C 0.4661(5) 1.2989(3) 0.1647(2)
N2 N 0.4338(5) 1.2401(3) 0.22338(19)
S3 S 0.68479(13) 1.02204(8) 0.11549(5)
C3 C 0.6483(4) 1.0604(3) 0.0191(2)
N3 N 0.6295(4) 1.0895(2) -0.04838(17)
S4 S 0.9543(2) 0.60826(11) 0.40055(10)
C4 C 0.8152(5) 0.6949(3) 0.3292(2)
N4 N 0.7151(4) 0.7545(3) 0.27970(19)
N5 N 0.2516(4) 1.0466(2) 0.31103(16)
N6 N 0.0217(4) 1.0176(3) 0.2375(2)
N7 N 0.3305(4) 0.9224(2) 0.23943(16)
N8 N 0.1696(5) 0.8752(2) 0.36011(18)
C5 C 0.0805(5) 1.0961(3) 0.2605(2)
H5 H -0.0100 1.1255 0.2895
H6 H 0.0959 1.1544 0.2132
C6 C 0.3849(4) 1.0025(3) 0.2641(2)
H7 H 0.4021 1.0608 0.2172
H8 H 0.4975 0.9692 0.2955
C7 C 0.2247(5) 0.9548(3) 0.3814(2)
H9 H 0.3348 0.9212 0.4147
H10 H 0.1355 0.9818 0.4120
C8 C 0.1565(5) 0.9772(3) 0.1922(2)
H11 H 0.1716 1.0362 0.1455
H12 H 0.1170 0.9272 0.1748
C9 C 0.3025(5) 0.8354(3) 0.3130(2)
H13 H 0.2650 0.7823 0.2986
H14 H 0.4143 0.8005 0.3450
N9 N 0.4785(3) 1.3087(2) 0.37250(16)
N10 N 0.7651(4) 1.3536(2) 0.37470(17)
N11 N 0.4932(4) 1.4971(2) 0.32123(16)
N12 N 0.5434(4) 1.3918(2) 0.46379(17)
C10 C 0.0037(6) 0.9280(4) 0.3104(3)
H15 H -0.0862 0.9552 0.3407
H16 H -0.0362 0.8759 0.2957
C11 C 0.6736(4) 1.2772(3) 0.3653(2)
H17 H 0.7234 1.2070 0.4054
H18 H 0.6940 1.2724 0.3137
C12 C 0.4058(4) 1.4180(3) 0.3128(2)
H19 H 0.4205 1.4161 0.2601
H20 H 0.2796 1.4404 0.3182
C13 C 0.4540(5) 1.3165(3) 0.4525(2)
H21 H 0.3281 1.3392 0.4585
H22 H 0.5003 1.2463 0.4933
C14 C 0.6856(5) 1.4598(3) 0.3148(2)
H23 H 0.7043 1.4574 0.2624
H24 H 0.7453 1.5109 0.3205
C15 C 0.4694(5) 1.4975(3) 0.4024(2)
H25 H 0.5268 1.5487 0.4095
H26 H 0.3437 1.5204 0.4085
C16 C 0.7324(5) 1.3582(3) 0.4540(2)
H27 H 0.7823 1.2880 0.4942
H28 H 0.7923 1.4079 0.4618
N13 N 0.7918(3) 0.7559(2) 0.10117(16)
N14 N 0.9420(4) 0.5835(2) 0.09398(18)
N15 N 0.9286(4) 0.7477(2) -0.01983(18)
N16 N 1.1166(4) 0.7064(3) 0.09902(19)
C17 C 0.7946(5) 0.6416(3) 0.1250(2)
H29 H 0.8043 0.6089 0.1825
H30 H 0.6835 0.6357 0.1060
C18 C 0.7801(5) 0.8016(3) 0.0129(2)
H31 H 0.6700 0.7957 -0.0072
H32 H 0.7775 0.8771 -0.0049
C19 C 0.9287(5) 0.6352(3) 0.0067(2)
H33 H 1.0280 0.5980 -0.0140
H34 H 0.8203 0.6289 -0.0145
C20 C 1.0942(5) 0.7546(3) 0.0117(2)
H35 H 1.0965 0.8293 -0.0054
H36 H 1.1932 0.7185 -0.0099
C21 C 1.1107(5) 0.5937(3) 0.1233(2)
H37 H 1.1235 0.5606 0.1807
H38 H 1.2095 0.5557 0.1028
C22 C 0.9646(4) 0.7620(3) 0.1293(2)
H39 H 0.9662 0.8367 0.1131
H40 H 0.9762 0.7313 0.1868
Cd1A Cd 0.65305(3) 0.821869(19) 0.651178(14)
Cd2A Cd 0.45039(3) 1.15408(2) -0.164211(14)
N1A N 0.5959(4) 1.0438(2) 0.41284(18)
N3A N 0.3705(4) 0.9105(2) 0.04838(17)
O3 O -0.0953(5) 1.3731(3) 0.16501(19)
H41 H -0.065(7) 1.438(4) 0.135(3)
H42 H -0.168(7) 1.362(5) 0.152(3)
loop_
_geom_bond_atom_site_label_1
_geom_bond_atom_site_label_2
_geom_bond_site_symmetry_1
_geom_bond_site_symmetry_2
Cd1 O1 1_555 1_555
Cd2 O2 1_555 1_555
O1 H1 1_555 1_555
H2 O1 1_555 1_555
O2 H3 1_555 1_555
H4 O2 1_555 1_555
S1 Cd1 1_555 1_555
C1 S1 1_555 1_555
N1 C1 1_555 1_555
S2 C2 1_555 1_555
C2 N2 1_555 1_555
N2 Cd1 1_555 1_555
S3 Cd2 1_555 1_555
C3 S3 1_555 1_555
N3 C3 1_555 1_555
S4 C4 1_555 1_555
C4 N4 1_555 1_555
N4 Cd2 1_555 1_555
N5 Cd1 1_555 1_555
N6 C5 1_555 1_555
N7 Cd2 1_555 1_555
N8 C7 1_555 1_555
C5 N5 1_555 1_555
H5 C5 1_555 1_555
H6 C5 1_555 1_555
C6 N5 1_555 1_555
H7 C6 1_555 1_555
H8 C6 1_555 1_555
C7 N5 1_555 1_555
H9 C7 1_555 1_555
H10 C7 1_555 1_555
C8 N6 1_555 1_555
H11 C8 1_555 1_555
H12 C8 1_555 1_555
C9 N7 1_555 1_555
H13 C9 1_555 1_555
H14 C9 1_555 1_555
N9 Cd1 1_555 1_555
N10 C11 1_555 1_555
N11 C12 1_555 1_555
N12 C13 1_555 1_555
C10 N6 1_555 1_555
H15 C10 1_555 1_555
H16 C10 1_555 1_555
C11 N9 1_555 1_555
H17 C11 1_555 1_555
H18 C11 1_555 1_555
C12 N9 1_555 1_555
H19 C12 1_555 1_555
H20 C12 1_555 1_555
C13 N9 1_555 1_555
H21 C13 1_555 1_555
H22 C13 1_555 1_555
C14 N10 1_555 1_555
H23 C14 1_555 1_555
H24 C14 1_555 1_555
C15 N11 1_555 1_555
H25 C15 1_555 1_555
H26 C15 1_555 1_555
C16 N10 1_555 1_555
H27 C16 1_555 1_555
H28 C16 1_555 1_555
N13 Cd2 1_555 1_555
N14 C17 1_555 1_555
N15 C18 1_555 1_555
N16 C20 1_555 1_555
C17 N13 1_555 1_555
H29 C17 1_555 1_555
H30 C17 1_555 1_555
C18 N13 1_555 1_555
H31 C18 1_555 1_555
H32 C18 1_555 1_555
C19 N14 1_555 1_555
H33 C19 1_555 1_555
H34 C19 1_555 1_555
C20 N15 1_555 1_555
H35 C20 1_555 1_555
H36 C20 1_555 1_555
C21 N14 1_555 1_555
H37 C21 1_555 1_555
H38 C21 1_555 1_555
C22 N13 1_555 1_555
H39 C22 1_555 1_555
H40 C22 1_555 1_555
O3 H41 1_555 1_555
H42 O3 1_555 1_555
Cd1A N1 1_555 1_555
Cd2A N3 1_555 1_555
N1A Cd1 1_555 1_555
N3A Cd2 1_555 1_555
N7 C6 1_555 1_555
N7 C8 1_555 1_555
N8 C9 1_555 1_555
N8 C10 1_555 1_555
N11 C14 1_555 1_555
N12 C15 1_555 1_555
N12 C16 1_555 1_555
N15 C19 1_555 1_555
N16 C21 1_555 1_555
N16 C22 1_555 1_555

#END
