
#######################################################################
#
#                 Cambridge Crystallographic Data Centre
#                                CCDC 
#
#######################################################################
#
# If this CIF has been generated from an entry in the Cambridge 
# Structural Database, then it will include bibliographic, chemical, 
# crystal, experimental, refinement or atomic coordinate data resulting 
# from the CCDC's data processing and validation procedures.
#
#######################################################################

data_KUWBIO
_symmetry_cell_setting           monoclinic
_symmetry_space_group_name_H-M   'P 21/c'
_symmetry_Int_Tables_number      14
_space_group_name_Hall           '-P 2ybc'
loop_
_symmetry_equiv_pos_site_id
_symmetry_equiv_pos_as_xyz
1 x,y,z
2 -x,1/2+y,1/2-z
3 -x,-y,-z
4 x,1/2-y,1/2+z
_cell_length_a                   13.9760(12)
_cell_length_b                   20.1040(18)
_cell_length_c                   17.2250(15)
_cell_angle_alpha                90
_cell_angle_beta                 94.1850(10)
_cell_angle_gamma                90
_cell_volume                     4826.86
loop_
_atom_site_label
_atom_site_type_symbol
_atom_site_fract_x
_atom_site_fract_y
_atom_site_fract_z
Mo1 Mo -1.14017(8) 1.01681(6) 0.16188(7)
Mo2 Mo -1.12968(8) 1.14860(5) 0.02659(6)
Mo3 Mo -1.25270(7) 0.99978(5) -0.02687(6)
Mo4 Mo -1.11340(9) 0.97441(6) -0.18733(7)
Mo5 Mo -0.87654(9) 1.15047(6) 0.04364(7)
Mo6 Mo -1.00090(8) 1.12752(6) -0.13989(7)
Cu1 Cu -1.14244(17) 0.99182(12) -0.40569(14)
Cu2 Cu -1.53045(17) 0.83122(13) -0.36948(15)
Mo7 Mo -1.35830(10) 0.90895(8) -0.46716(9)
Cu3 Cu -1.52102(17) 1.15912(13) -0.34987(15)
Mo8 Mo -1.35323(10) 1.08454(8) -0.45519(9)
Mo9 Mo -1.53317(10) 0.99611(7) -0.39869(8)
O1 O -0.8184(13) 1.2204(8) 0.0648(11)
O2 O -0.9966(11) 1.1879(8) -0.2032(9)
O3 O -1.2313(11) 1.0633(7) -0.4222(8)
O4 O -1.5578(9) 0.9222(7) -0.3444(7)
O5 O -1.1931(14) 1.2175(10) 0.0333(12)
O6 O -1.3986(9) 0.9942(5) -0.3940(7)
O7 O -1.5547(10) 1.0635(7) -0.3358(8)
O8 O -1.2035(15) 1.0256(11) 0.2394(9)
O9 O -1.1723(14) 0.9696(11) -0.2816(8)
O10 O -1.3969(9) 1.1361(7) -0.3805(8)
O11 O -1.2372(10) 0.9227(7) -0.4346(8)
O12 O -1.3540(10) 0.8581(8) -0.5463(9)
O13 O -1.4038(10) 0.8556(8) -0.3946(9)
O14 O -1.4997(7) 1.0643(8) -0.4957(6)
O15 O -1.2259(16) 1.0891(9) -0.0180(8)
O16 O -1.1380(15) 1.1035(9) 0.1224(10)
O17 O -1.0879(13) 1.0755(9) -0.1900(16)
N1 N -1.0394(11) 0.9253(9) -0.4072(9)
N2 N -1.5043(13) 0.7358(9) -0.3952(10)
N3 N -1.6355(13) 0.7882(9) -0.3161(9)
O18 O -1.3514(13) 0.9999(6) -0.5409(9)
O19 O -1.213(2) 1.0028(8) -0.1310(13)
O20 O -0.9074(14) 1.1598(16) -0.0626(9)
O21 O -1.3453(10) 1.1384(8) -0.5287(10)
O22 O -1.0994(13) 1.1647(13) -0.0744(10)
O23 O -1.2343(18) 0.9934(8) 0.0846(14)
O24 O -1.0084(19) 0.9877(12) 0.0908(6)
O25 O -1.099(2) 1.0274(15) 0.0294(16)
O26 O -1.0919(19) 0.9696(14) -0.0432(15)
O27 O -1.0044(16) 1.0815(14) -0.0106(14)
Si1 Si -1.0000 1.0000 0.0000
O28 O -1.3726(11) 0.9980(8) -0.0344(12)
O29 O -1.217(2) 0.9093(12) -0.0263(10)
O30 O -1.1043(15) 0.9247(10) 0.172(2)
O31 O -1.0157(9) 1.0375(12) 0.2089(17)
C1 C -0.9446(13) 0.9531(9) -0.4043(10)
C2 C -0.880(3) 0.8537(18) -0.419(2)
H1 H -0.8266 0.8274 -0.4251
C3 C -1.415(2) 0.6498(16) -0.4407(19)
H2 H -1.3633 0.6355 -0.4678
C4 C -1.4759(17) 0.6028(12) -0.4113(17)
H3 H -1.4672 0.5576 -0.4195
C5 C -1.7093(18) 0.6884(14) -0.2834(14)
H4 H -1.7076 0.6422 -0.2833
C6 C -1.7743(18) 0.7895(12) -0.2424(15)
H5 H -1.8182 0.8119 -0.2139
C7 C -1.5513(19) 0.6261(14) -0.3687(16)
H6 H -1.5921 0.5957 -0.3472
C8 C -1.5652(19) 0.6910(12) -0.3588(14)
C9 C -1.7819(19) 0.7198(13) -0.2462(13)
H7 H -1.8316 0.6965 -0.2255
C10 C -1.6368(15) 0.7235(11) -0.3219(12)
C11 C -1.7065(17) 0.8279(14) -0.2777(13)
H8 H -1.7063 0.8742 -0.2769
C12 C -0.8623(13) 0.9145(13) -0.4090(11)
H9 H -0.8005 0.9319 -0.4053
C13 C -1.4283(18) 0.7163(11) -0.4305(18)
H10 H -1.3852 0.7472 -0.4480
C14 C -0.9686(16) 0.8182(11) -0.4220(14)
H11 H -0.9741 0.7726 -0.4300
C15 C -1.0463(15) 0.8606(11) -0.4115(14)
H12 H -1.1064 0.8415 -0.4075
C16 C -0.874(2) 1.1297(12) -0.3872(15)
H13 H -0.8191 1.1564 -0.3834
C17 C -0.9594(17) 1.1582(11) -0.3821(15)
H14 H -0.9624 1.2042 -0.3770
C18 C -1.0414(14) 1.1231(12) -0.3841(9)
H15 H -1.1004 1.1434 -0.3791
N4 N -1.0337(13) 1.0567(9) -0.3937(8)
C19 C -0.9429(14) 1.0260(12) -0.3915(12)
C20 C -0.8635(17) 1.0654(13) -0.3973(12)
H16 H -0.8047 1.0472 -0.4080
N5 N -1.4966(9) 1.2527(5) -0.3607(8)
C21 C -1.5646(9) 1.2934(7) -0.3299(8)
C22 C -1.5561(12) 1.3622(7) -0.3346(10)
H17 H -1.6017 1.3894 -0.3139
C23 C -1.4796(14) 1.3902(6) -0.3701(11)
H18 H -1.4739 1.4362 -0.3732
C24 C -1.4115(10) 1.3494(8) -0.4010(10)
H19 H -1.3603 1.3682 -0.4247
C25 C -1.4200(8) 1.2807(8) -0.3963(9)
H20 H -1.3745 1.2534 -0.4169
N6 N -1.6230(8) 1.1950(7) -0.2872(8)
C26 C -1.6853(11) 1.1562(7) -0.2471(9)
H21 H -1.6784 1.1102 -0.2459
C27 C -1.7580(11) 1.1863(11) -0.2086(10)
H22 H -1.7997 1.1604 -0.1817
C28 C -1.7683(10) 1.2550(11) -0.2104(10)
H23 H -1.8169 1.2751 -0.1847
C29 C -1.7060(12) 1.2938(8) -0.2505(9)
H24 H -1.7129 1.3398 -0.2517
C30 C -1.6333(11) 1.2637(7) -0.2890(8)
O32 O -1.0072(12) 1.1725(14) 0.0609(10)
O33 O -1.1191(16) 0.8930(12) -0.1475(13)
Mo1_2 Mo -2.14017(8) 1.01681(6) -0.83812(7)
Mo1B Mo -1.85983(8) 0.98319(6) -1.16188(7)
Mo1B_2 Mo -0.85983(8) 0.98319(6) -0.16188(7)
Mo2B Mo -1.87032(8) 0.85140(5) -1.02659(6)
Mo2_2 Mo -2.12968(8) 1.14860(5) -0.97341(6)
Mo2B_2 Mo -0.87032(8) 0.85140(5) -0.02659(6)
Mo3_2 Mo -2.25270(7) 0.99978(5) -1.02687(6)
Mo3B Mo -1.74730(7) 1.00022(5) -0.97313(6)
Mo3B_2 Mo -0.74730(7) 1.00022(5) 0.02687(6)
Mo4B Mo -1.88660(9) 1.02559(6) -0.81267(7)
Mo4_2 Mo -2.11340(9) 0.97441(6) -1.18733(7)
Mo4B_2 Mo -0.88660(9) 1.02559(6) 0.18733(7)
Mo5B Mo -2.12346(9) 0.84953(6) -1.04364(7)
Mo5_2 Mo -1.87654(9) 1.15047(6) -0.95636(7)
Mo5B_2 Mo -1.12346(9) 0.84953(6) -0.04364(7)
Mo6B Mo -1.99910(8) 0.87248(6) -0.86011(7)
Mo6_2 Mo -2.00090(8) 1.12752(6) -1.13989(7)
Mo6B_2 Mo -0.99910(8) 0.87248(6) 0.13989(7)
Cu1B Cu -1.85756(17) 1.00818(12) -0.59431(14)
Cu1_2 Cu -2.14244(17) 0.99182(12) -1.40569(14)
Cu1B_2 Cu -0.85756(17) 1.00818(12) 0.40569(14)
Cu2B Cu -1.46955(17) 1.16878(13) -0.63052(15)
Mo7B Mo -1.64170(10) 1.09105(8) -0.53284(9)
Cu3B Cu -1.47898(17) 0.84088(13) -0.65013(15)
Mo8B Mo -1.64677(10) 0.91546(8) -0.54481(9)
Mo9B Mo -1.46683(10) 1.00389(7) -0.60131(8)
O1B O -2.1816(13) 0.7796(8) -1.0648(11)
O1_2 O -1.8184(13) 1.2204(8) -0.9352(11)
O1B_2 O -1.1816(13) 0.7796(8) -0.0648(11)
O2B O -2.0034(11) 0.8121(8) -0.7968(9)
O2_2 O -1.9966(11) 1.1879(8) -1.2032(9)
O2B_2 O -1.0034(11) 0.8121(8) 0.2032(9)
O3B O -1.7687(11) 0.9367(7) -0.5778(8)
O4B O -1.4422(9) 1.0778(7) -0.6556(7)
O5B O -1.8069(14) 0.7825(10) -1.0333(12)
O5_2 O -2.1931(14) 1.2175(10) -0.9667(12)
O5B_2 O -0.8069(14) 0.7825(10) -0.0333(12)
O6B O -1.6014(9) 1.0058(5) -0.6060(7)
O7B O -1.4453(10) 0.9365(7) -0.6642(8)
O8_2 O -2.2035(15) 1.0256(11) -0.7606(9)
O8B O -1.7965(15) 0.9744(11) -1.2394(9)
O8B_2 O -0.7965(15) 0.9744(11) -0.2394(9)
O9B O -1.8277(14) 1.0304(11) -0.7184(8)
O9_2 O -2.1723(14) 0.9696(11) -1.2816(8)
O9B_2 O -0.8277(14) 1.0304(11) 0.2816(8)
O10B O -1.6031(9) 0.8639(7) -0.6195(8)
O11B O -1.7628(10) 1.0773(7) -0.5654(8)
O12B O -1.6460(10) 1.1419(8) -0.4537(9)
O13B O -1.5962(10) 1.1444(8) -0.6054(9)
O14B O -1.5003(7) 0.9357(8) -0.5043(6)
O15_2 O -2.2259(16) 1.0891(9) -1.0180(8)
O15B O -1.7741(16) 0.9109(9) -0.9820(8)
O15B_2 O -0.7741(16) 0.9109(9) 0.0180(8)
O16_2 O -2.1380(15) 1.1035(9) -0.8776(10)
O16B O -1.8620(15) 0.8965(9) -1.1224(10)
O16B_2 O -0.8620(15) 0.8965(9) -0.1224(10)
O17B O -1.9121(13) 0.9245(9) -0.8100(16)
O17_2 O -2.0879(13) 1.0755(9) -1.1900(16)
O17B_2 O -0.9121(13) 0.9245(9) 0.1900(16)
N1B N -1.9606(11) 1.0747(9) -0.5928(9)
N2B N -1.4957(13) 1.2642(9) -0.6048(10)
N3B N -1.3645(13) 1.2118(9) -0.6839(9)
O18B O -1.6486(13) 1.0001(6) -0.4591(9)
O19_2 O -2.213(2) 1.0028(8) -1.1310(13)
O19B O -1.787(2) 0.9972(8) -0.8690(13)
O19B_2 O -0.787(2) 0.9972(8) 0.1310(13)
O20B O -2.0926(14) 0.8402(16) -0.9374(9)
O20_2 O -1.9074(14) 1.1598(16) -1.0626(9)
O20B_2 O -1.0926(14) 0.8402(16) 0.0626(9)
O21B O -1.6547(10) 0.8616(8) -0.4713(10)
O22_2 O -2.0994(13) 1.1647(13) -1.0744(10)
O22B O -1.9006(13) 0.8353(13) -0.9256(10)
O22B_2 O -0.9006(13) 0.8353(13) 0.0744(10)
O23_2 O -2.2343(18) 0.9934(8) -0.9154(14)
O23B O -1.7657(18) 1.0066(8) -1.0846(14)
O23B_2 O -0.7657(18) 1.0066(8) -0.0846(14)
O24_2 O -2.0084(19) 0.9877(12) -0.9092(6)
O24B O -1.9916(19) 1.0123(12) -1.0908(6)
O24B_2 O -0.9916(19) 1.0123(12) -0.0908(6)
O25B O -1.901(2) 0.9726(15) -1.0294(16)
O25_2 O -2.099(2) 1.0274(15) -0.9706(16)
O25B_2 O -0.901(2) 0.9726(15) -0.0294(16)
O26_2 O -2.0919(19) 0.9696(14) -1.0432(15)
O26B O -1.9081(19) 1.0304(14) -0.9568(15)
O26B_2 O -0.9081(19) 1.0304(14) 0.0432(15)
O27_2 O -2.0044(16) 1.0815(14) -1.0106(14)
O27B O -1.9956(16) 0.9185(14) -0.9894(14)
O27B_2 O -0.9956(16) 0.9185(14) 0.0106(14)
Si1_2 Si -2.0000 1.0000 -1.0000
O28B O -1.6274(11) 1.0020(8) -0.9656(12)
O28_2 O -2.3726(11) 0.9980(8) -1.0344(12)
O28B_2 O -0.6274(11) 1.0020(8) 0.0344(12)
O29B O -1.783(2) 1.0907(12) -0.9737(10)
O29_2 O -2.217(2) 0.9093(12) -1.0263(10)
O29B_2 O -0.783(2) 1.0907(12) 0.0263(10)
O30_2 O -2.1043(15) 0.9247(10) -0.828(2)
O30B O -1.8957(15) 1.0753(10) -1.172(2)
O30B_2 O -0.8957(15) 1.0753(10) -0.172(2)
O31B O -1.9843(9) 0.9625(12) -1.2089(17)
O31_2 O -2.0157(9) 1.0375(12) -0.7911(17)
O31B_2 O -0.9843(9) 0.9625(12) -0.2089(17)
C1B C -2.0554(13) 1.0469(9) -0.5957(10)
C2B C -2.120(3) 1.1463(18) -0.581(2)
H1B H -2.1734 1.1726 -0.5749
C3B C -1.585(2) 1.3502(16) -0.5593(19)
H2B H -1.6367 1.3645 -0.5322
C4B C -1.5241(17) 1.3972(12) -0.5887(17)
H3B H -1.5328 1.4424 -0.5805
C5B C -1.2907(18) 1.3116(14) -0.7166(14)
H4B H -1.2924 1.3578 -0.7167
C6B C -1.2257(18) 1.2105(12) -0.7576(15)
H5B H -1.1818 1.1881 -0.7861
C7B C -1.4487(19) 1.3739(14) -0.6313(16)
H6B H -1.4079 1.4043 -0.6528
C8B C -1.4348(19) 1.3090(12) -0.6412(14)
C9B C -1.2181(19) 1.2802(13) -0.7538(13)
H7B H -1.1684 1.3035 -0.7745
C10B C -1.3632(15) 1.2765(11) -0.6781(12)
C11B C -1.2935(17) 1.1721(14) -0.7223(13)
H8B H -1.2937 1.1258 -0.7231
C12B C -2.1377(13) 1.0855(13) -0.5910(11)
H9B H -2.1995 1.0681 -0.5947
C13B C -1.5717(18) 1.2837(11) -0.5695(18)
H10B H -1.6148 1.2528 -0.5520
C14B C -2.0314(16) 1.1818(11) -0.5780(14)
H11B H -2.0259 1.2274 -0.5700
C15B C -1.9537(15) 1.1394(11) -0.5885(14)
H12B H -1.8936 1.1585 -0.5925
C16B C -2.126(2) 0.8703(12) -0.6128(15)
H13B H -2.1809 0.8436 -0.6166
C17B C -2.0406(17) 0.8418(11) -0.6179(15)
H14B H -2.0376 0.7958 -0.6230
C18B C -1.9586(14) 0.8769(12) -0.6159(9)
H15B H -1.8996 0.8566 -0.6209
N4B N -1.9663(13) 0.9433(9) -0.6063(8)
C19B C -2.0571(14) 0.9740(12) -0.6085(12)
C20B C -2.1365(17) 0.9346(13) -0.6027(12)
H16B H -2.1953 0.9528 -0.5920
N5B N -1.5034(9) 0.7473(5) -0.6393(8)
C21B C -1.4354(9) 0.7066(7) -0.6701(8)
C22B C -1.4439(12) 0.6378(7) -0.6654(10)
H17B H -1.3983 0.6106 -0.6861
C23B C -1.5204(14) 0.6098(6) -0.6299(11)
H18B H -1.5261 0.5638 -0.6268
C24B C -1.5885(10) 0.6506(8) -0.5990(10)
H19B H -1.6397 0.6318 -0.5753
C25B C -1.5800(8) 0.7193(8) -0.6037(9)
H20B H -1.6255 0.7466 -0.5831
N6B N -1.3770(8) 0.8050(7) -0.7128(8)
C26B C -1.3147(11) 0.8438(7) -0.7529(9)
H21B H -1.3216 0.8898 -0.7541
C27B C -1.2420(11) 0.8137(11) -0.7914(10)
H22B H -1.2003 0.8396 -0.8183
C28B C -1.2317(10) 0.7450(11) -0.7896(10)
H23B H -1.1831 0.7249 -0.8153
C29B C -1.2940(12) 0.7062(8) -0.7495(9)
H24B H -1.2871 0.6602 -0.7483
C30B C -1.3667(11) 0.7363(7) -0.7110(8)
O32B O -1.9928(12) 0.8275(14) -1.0609(10)
O32_2 O -2.0072(12) 1.1725(14) -0.9391(10)
O32B_2 O -0.9928(12) 0.8275(14) -0.0609(10)
O33B O -1.8809(16) 1.1070(12) -0.8525(13)
O33_2 O -2.1191(16) 0.8930(12) -1.1475(13)
O33B_2 O -0.8809(16) 1.1070(12) 0.1475(13)
loop_
_geom_bond_atom_site_label_1
_geom_bond_atom_site_label_2
_geom_bond_site_symmetry_1
_geom_bond_site_symmetry_2
Mo1 O8 1_555 1_555
Mo2 O5 1_555 1_555
Mo3 O15 1_555 1_555
Mo4 O9 1_555 1_555
Mo5 O1 1_555 1_555
Mo6 O2 1_555 1_555
Cu1 O3 1_555 1_555
Cu2 O4 1_555 1_555
Mo7 O6 1_555 1_555
Cu3 O7 1_555 1_555
Mo8 O3 1_555 1_555
Mo9 O4 1_555 1_555
O6 Mo8 1_555 1_555
O7 Mo9 1_555 1_555
O9 Cu1 1_555 1_555
O10 Cu3 1_555 1_555
O11 Cu1 1_555 1_555
O12 Mo7 1_555 1_555
O13 Cu2 1_555 1_555
O14 Mo8 1_555 1_555
O15 Mo2 1_555 1_555
O16 Mo1 1_555 1_555
O17 Mo4 1_555 1_555
N1 Cu1 1_555 1_555
N2 Cu2 1_555 1_555
N3 Cu2 1_555 1_555
O18 Mo7 1_555 1_555
O19 Mo3 1_555 1_555
O20 Mo5 1_555 1_555
O21 Mo8 1_555 1_555
O22 Mo2 1_555 1_555
O23 Mo1 1_555 1_555
O24 Mo1 1_555 1_555
O25 Mo1 1_555 1_555
O26 Mo3 1_555 1_555
O27 Mo2 1_555 1_555
Si1 O24 1_555 1_555
O28 Mo3 1_555 1_555
O29 Mo3 1_555 1_555
O30 Mo1 1_555 1_555
O31 Mo1 1_555 1_555
C1 N1 1_555 1_555
C2 H1 1_555 1_555
C3 H2 1_555 1_555
C4 C3 1_555 1_555
H3 C4 1_555 1_555
C5 H4 1_555 1_555
C6 H5 1_555 1_555
C7 C4 1_555 1_555
H6 C7 1_555 1_555
C8 N2 1_555 1_555
C9 C5 1_555 1_555
H7 C9 1_555 1_555
C10 N3 1_555 1_555
C11 N3 1_555 1_555
H8 C11 1_555 1_555
C12 C1 1_555 1_555
H9 C12 1_555 1_555
C13 N2 1_555 1_555
H10 C13 1_555 1_555
C14 C2 1_555 1_555
H11 C14 1_555 1_555
C15 N1 1_555 1_555
H12 C15 1_555 1_555
C16 H13 1_555 1_555
C17 C16 1_555 1_555
H14 C17 1_555 1_555
C18 C17 1_555 1_555
H15 C18 1_555 1_555
N4 Cu1 1_555 1_555
C19 C1 1_555 1_555
C20 C16 1_555 1_555
H16 C20 1_555 1_555
N5 Cu3 1_555 1_555
C21 N5 1_555 1_555
C22 C21 1_555 1_555
H17 C22 1_555 1_555
C23 C22 1_555 1_555
H18 C23 1_555 1_555
C24 C23 1_555 1_555
H19 C24 1_555 1_555
C25 N5 1_555 1_555
H20 C25 1_555 1_555
N6 Cu3 1_555 1_555
C26 N6 1_555 1_555
H21 C26 1_555 1_555
C27 C26 1_555 1_555
H22 C27 1_555 1_555
C28 C27 1_555 1_555
H23 C28 1_555 1_555
C29 C28 1_555 1_555
H24 C29 1_555 1_555
C30 C21 1_555 1_555
O32 Mo2 1_555 1_555
O33 Mo4 1_555 1_555
Mo1_2 O8_2 1_555 1_555
Mo1B O8B 1_555 1_555
Mo1B_2 O8B_2 1_555 1_555
Mo2B O5B 1_555 1_555
Mo2_2 O5_2 1_555 1_555
Mo2B_2 O5B_2 1_555 1_555
Mo3_2 O15_2 1_555 1_555
Mo3B O15B 1_555 1_555
Mo3B_2 O15B_2 1_555 1_555
Mo4B O9B 1_555 1_555
Mo4_2 O9_2 1_555 1_555
Mo4B_2 O24 1_555 1_555
Mo5B O1B 1_555 1_555
Mo5_2 O1_2 1_555 1_555
Mo5B_2 O26 1_555 1_555
Mo6B O2B 1_555 1_555
Mo6_2 O2_2 1_555 1_555
Mo6B_2 O24 1_555 1_555
Cu1B O3B 1_555 1_555
Cu1_2 O9_2 1_555 1_555
Cu1B_2 O9B_2 1_555 1_555
Cu2B O21 1_555 1_555
Mo7B O14 1_555 1_555
Cu3B O12 1_555 1_555
Mo8B O3B 1_555 1_555
Mo9B O14 1_555 1_555
O1B_2 Mo5B_2 1_555 1_555
O2B_2 Mo6B_2 1_555 1_555
O4B Cu2B 1_555 1_555
O6B Mo7B 1_555 1_555
O7B Cu3B 1_555 1_555
O9B Cu1B 1_555 1_555
O9B_2 Mo4B_2 1_555 1_555
O10B Cu3B 1_555 1_555
O11B Cu1B 1_555 1_555
O12B Cu3 1_555 1_555
O13B Cu2B 1_555 1_555
O14B Mo7 1_555 1_555
O15_2 Mo2_2 1_555 1_555
O15B Mo2B 1_555 1_555
O15B_2 Mo2B_2 1_555 1_555
O16_2 Mo1_2 1_555 1_555
O16B Mo1B 1_555 1_555
O16B_2 Mo1B_2 1_555 1_555
O17B Mo4B 1_555 1_555
O17_2 Mo4_2 1_555 1_555
O17B_2 Mo4B_2 1_555 1_555
N1B Cu1B 1_555 1_555
N2B Cu2B 1_555 1_555
N3B Cu2B 1_555 1_555
O18B Mo9 1_555 1_555
O19_2 Mo3_2 1_555 1_555
O19B Mo3B 1_555 1_555
O19B_2 Mo3B_2 1_555 1_555
O20B Mo5B 1_555 1_555
O20_2 Mo5_2 1_555 1_555
O20B_2 Mo5B_2 1_555 1_555
O21B Cu2 1_555 1_555
O22_2 Mo2_2 1_555 1_555
O22B Mo2B 1_555 1_555
O22B_2 Mo2B_2 1_555 1_555
O23_2 Mo1_2 1_555 1_555
O23B Mo1B 1_555 1_555
O23B_2 Mo1B_2 1_555 1_555
O24_2 Mo1_2 1_555 1_555
O24B Mo1B 1_555 1_555
O24B_2 Mo4 1_555 1_555
O25B Mo1B 1_555 1_555
O25_2 Mo1_2 1_555 1_555
O25B_2 Si1 1_555 1_555
O26_2 Mo3_2 1_555 1_555
O26B Mo3B 1_555 1_555
O26B_2 Mo5 1_555 1_555
O27_2 Mo2_2 1_555 1_555
O27B Mo2B 1_555 1_555
O27B_2 Si1 1_555 1_555
Si1_2 O24_2 1_555 1_555
O28B Mo3B 1_555 1_555
O28_2 Mo3_2 1_555 1_555
O28B_2 Mo3B_2 1_555 1_555
O29B Mo3B 1_555 1_555
O29_2 Mo3_2 1_555 1_555
O29B_2 Mo5 1_555 1_555
O30_2 Mo1_2 1_555 1_555
O30B Mo1B 1_555 1_555
O30B_2 Mo6 1_555 1_555
O31B Mo1B 1_555 1_555
O31_2 Mo1_2 1_555 1_555
O31B_2 Mo4 1_555 1_555
C1B N1B 1_555 1_555
C2B H1B 1_555 1_555
C3B H2B 1_555 1_555
C4B C3B 1_555 1_555
H3B C4B 1_555 1_555
C5B H4B 1_555 1_555
C6B H5B 1_555 1_555
C7B C4B 1_555 1_555
H6B C7B 1_555 1_555
C8B N2B 1_555 1_555
C9B C5B 1_555 1_555
H7B C9B 1_555 1_555
C10B N3B 1_555 1_555
C11B N3B 1_555 1_555
H8B C11B 1_555 1_555
C12B C1B 1_555 1_555
H9B C12B 1_555 1_555
C13B N2B 1_555 1_555
H10B C13B 1_555 1_555
C14B C2B 1_555 1_555
H11B C14B 1_555 1_555
C15B N1B 1_555 1_555
H12B C15B 1_555 1_555
C16B H13B 1_555 1_555
C17B C16B 1_555 1_555
H14B C17B 1_555 1_555
C18B C17B 1_555 1_555
H15B C18B 1_555 1_555
N4B Cu1B 1_555 1_555
C19B C1B 1_555 1_555
C20B C16B 1_555 1_555
H16B C20B 1_555 1_555
N5B Cu3B 1_555 1_555
C21B N5B 1_555 1_555
C22B C21B 1_555 1_555
H17B C22B 1_555 1_555
C23B C22B 1_555 1_555
H18B C23B 1_555 1_555
C24B C23B 1_555 1_555
H19B C24B 1_555 1_555
C25B N5B 1_555 1_555
H20B C25B 1_555 1_555
N6B Cu3B 1_555 1_555
C26B N6B 1_555 1_555
H21B C26B 1_555 1_555
C27B C26B 1_555 1_555
H22B C27B 1_555 1_555
C28B C27B 1_555 1_555
H23B C28B 1_555 1_555
C29B C28B 1_555 1_555
H24B C29B 1_555 1_555
C30B C21B 1_555 1_555
O32B Mo2B 1_555 1_555
O32_2 Mo2_2 1_555 1_555
O32B_2 Mo2B_2 1_555 1_555
O33B Mo4B 1_555 1_555
O33_2 Mo4_2 1_555 1_555
O33B_2 Mo5 1_555 1_555
Mo2 O16 1_555 1_555
Mo2 O25 1_555 1_555
Mo3 O23 1_555 1_555
Mo3 O25 1_555 1_555
Mo4 O19 1_555 1_555
Mo4 O26 1_555 1_555
Mo5 O27 1_555 1_555
Mo5 O32 1_555 1_555
Mo6 O17 1_555 1_555
Mo6 O20 1_555 1_555
Mo6 O22 1_555 1_555
Mo6 O27 1_555 1_555
Mo6 O24B_2 1_555 1_555
Mo7 O11 1_555 1_555
Mo7 O13 1_555 1_555
Mo8 O10 1_555 1_555
Mo8 O18 1_555 1_555
Mo9 O6 1_555 1_555
Mo9 O14 1_555 1_555
Mo9 O14B 1_555 1_555
O18 Mo9B 1_555 1_555
O24 O25 1_555 1_555
O25 O26 1_555 1_555
O25 Si1 1_555 1_555
O26 Si1 1_555 1_555
O27 Si1 1_555 1_555
Si1 O24B_2 1_555 1_555
Si1 O26B_2 1_555 1_555
O29 Mo5B_2 1_555 1_555
O30 Mo6B_2 1_555 1_555
O31 Mo4B_2 1_555 1_555
C2 C12 1_555 1_555
C3 C13 1_555 1_555
C5 C10 1_555 1_555
C6 C9 1_555 1_555
C6 C11 1_555 1_555
C7 C8 1_555 1_555
C8 C10 1_555 1_555
C14 C15 1_555 1_555
C18 N4 1_555 1_555
N4 C19 1_555 1_555
C19 C20 1_555 1_555
C24 C25 1_555 1_555
N6 C30 1_555 1_555
C29 C30 1_555 1_555
O33 Mo5B_2 1_555 1_555
Mo1B_2 O24B_2 1_555 1_555
Mo1B_2 O25B_2 1_555 1_555
Mo1B_2 O30B_2 1_555 1_555
Mo1B_2 O31B_2 1_555 1_555
Mo2B O16B 1_555 1_555
Mo2B O25B 1_555 1_555
Mo2_2 O16_2 1_555 1_555
Mo2_2 O25_2 1_555 1_555
Mo2B_2 O16B_2 1_555 1_555
Mo2B_2 O25B_2 1_555 1_555
Mo2B_2 O27B_2 1_555 1_555
Mo3_2 O23_2 1_555 1_555
Mo3_2 O25_2 1_555 1_555
Mo3B O23B 1_555 1_555
Mo3B O25B 1_555 1_555
Mo3B_2 O23B_2 1_555 1_555
Mo3B_2 O25B_2 1_555 1_555
Mo3B_2 O26B_2 1_555 1_555
Mo3B_2 O29B_2 1_555 1_555
Mo4B O19B 1_555 1_555
Mo4B O24_2 1_555 1_555
Mo4B O26B 1_555 1_555
Mo4B O31_2 1_555 1_555
Mo4_2 O19_2 1_555 1_555
Mo4_2 O24B 1_555 1_555
Mo4_2 O26_2 1_555 1_555
Mo4_2 O31B 1_555 1_555
Mo4B_2 O19B_2 1_555 1_555
Mo4B_2 O26B_2 1_555 1_555
Mo4B_2 O33B_2 1_555 1_555
Mo5B O26_2 1_555 1_555
Mo5B O27B 1_555 1_555
Mo5B O29_2 1_555 1_555
Mo5B O32B 1_555 1_555
Mo5B O33_2 1_555 1_555
Mo5_2 O26B 1_555 1_555
Mo5_2 O27_2 1_555 1_555
Mo5_2 O29B 1_555 1_555
Mo5_2 O32_2 1_555 1_555
Mo5_2 O33B 1_555 1_555
Mo5B_2 O27B_2 1_555 1_555
Mo5B_2 O32B_2 1_555 1_555
Mo6B O17B 1_555 1_555
Mo6B O20B 1_555 1_555
Mo6B O22B 1_555 1_555
Mo6B O24_2 1_555 1_555
Mo6B O27B 1_555 1_555
Mo6B O30_2 1_555 1_555
Mo6_2 O17_2 1_555 1_555
Mo6_2 O20_2 1_555 1_555
Mo6_2 O22_2 1_555 1_555
Mo6_2 O24B 1_555 1_555
Mo6_2 O27_2 1_555 1_555
Mo6_2 O30B 1_555 1_555
Mo6B_2 O17B_2 1_555 1_555
Mo6B_2 O20B_2 1_555 1_555
Mo6B_2 O22B_2 1_555 1_555
Mo6B_2 O27B_2 1_555 1_555
Mo7B O11B 1_555 1_555
Mo7B O12B 1_555 1_555
Mo7B O13B 1_555 1_555
Mo7B O18B 1_555 1_555
Mo8B O6B 1_555 1_555
Mo8B O10B 1_555 1_555
Mo8B O14B 1_555 1_555
Mo8B O18B 1_555 1_555
Mo8B O21B 1_555 1_555
Mo9B O4B 1_555 1_555
Mo9B O6B 1_555 1_555
Mo9B O7B 1_555 1_555
Mo9B O14B 1_555 1_555
O24_2 O25_2 1_555 1_555
O24B O25B 1_555 1_555
O24B Si1_2 1_555 1_555
O24B_2 O25B_2 1_555 1_555
O25B O26B 1_555 1_555
O25B Si1_2 1_555 1_555
O25_2 O26_2 1_555 1_555
O25_2 Si1_2 1_555 1_555
O25B_2 O26B_2 1_555 1_555
O26_2 Si1_2 1_555 1_555
O26B Si1_2 1_555 1_555
O27_2 Si1_2 1_555 1_555
O27B Si1_2 1_555 1_555
C2B C12B 1_555 1_555
C3B C13B 1_555 1_555
C5B C10B 1_555 1_555
C6B C9B 1_555 1_555
C6B C11B 1_555 1_555
C7B C8B 1_555 1_555
C8B C10B 1_555 1_555
C14B C15B 1_555 1_555
C18B N4B 1_555 1_555
N4B C19B 1_555 1_555
C19B C20B 1_555 1_555
C24B C25B 1_555 1_555
N6B C30B 1_555 1_555
C29B C30B 1_555 1_555

#END
