
#######################################################################
#
#                 Cambridge Crystallographic Data Centre
#                                CCDC 
#
#######################################################################
#
# If this CIF has been generated from an entry in the Cambridge 
# Structural Database, then it will include bibliographic, chemical, 
# crystal, experimental, refinement or atomic coordinate data resulting 
# from the CCDC's data processing and validation procedures.
#
#######################################################################

data_KUWCEM
_symmetry_cell_setting           orthorhombic
_symmetry_space_group_name_H-M   'I m m a'
_symmetry_Int_Tables_number      74
_space_group_name_Hall           '-I 2b 2'
loop_
_symmetry_equiv_pos_site_id
_symmetry_equiv_pos_as_xyz
1 x,y,z
2 -x,1/2-y,z
3 -x,1/2+y,-z
4 x,-y,-z
5 1/2+x,1/2+y,1/2+z
6 1/2-x,-y,1/2+z
7 1/2-x,y,1/2-z
8 1/2+x,1/2-y,1/2-z
9 -x,-y,-z
10 x,1/2+y,-z
11 x,1/2-y,z
12 -x,y,z
13 1/2-x,1/2-y,1/2-z
14 1/2+x,y,1/2-z
15 1/2+x,-y,1/2+z
16 1/2-x,1/2+y,1/2+z
_cell_length_a                   24.133(2)
_cell_length_b                   27.911(3)
_cell_length_c                   17.9404(18)
_cell_angle_alpha                90
_cell_angle_beta                 90
_cell_angle_gamma                90
_cell_volume                     12084.2
loop_
_atom_site_label
_atom_site_type_symbol
_atom_site_fract_x
_atom_site_fract_y
_atom_site_fract_z
Cu1 Cu 0.82234(2) 0.45255(2) 0.50263(3)
O1 O 0.76057(16) 0.45708(14) 0.4335(2)
O2 O 0.61514(15) 0.54010(15) 0.0716(2)
O3 O 0.62402(15) 0.46078(15) 0.0794(2)
C1 C 0.55031(18) 0.49892(18) 0.1433(3)
O4 O 0.76911(17) 0.53517(15) 0.4148(2)
C2 C 0.60216(18) 0.5003(2) 0.0957(3)
N1 N 0.82302(15) 0.37604(19) 0.5054(2)
C3 C 0.5000 0.5025(3) 0.1064(4)
H1 H 0.5000 0.5074 0.0552
C4 C 0.74717(19) 0.4957(2) 0.4039(2)
C5 C 0.8242(2) 0.2768(2) 0.5101(3)
C6 C 0.6978(2) 0.4950(2) 0.3524(3)
C7 C 0.5505(2) 0.4937(2) 0.2204(3)
C8 C 0.6027(2) 0.4932(3) 0.2636(3)
C9 C 0.5000 0.4893(4) 0.2555(5)
H2 H 0.5000 0.4828 0.3064
C10 C 0.6856(2) 0.5279(3) 0.3032(4)
H3 H 0.7090 0.5542 0.2991
C11 C 0.6140(3) 0.4514(3) 0.3146(4)
H4 H 0.5904 0.4252 0.3185
C12 C 0.6630(3) 0.4555(3) 0.3554(5)
H5 H 0.6729 0.4302 0.3865
C13 C 0.8639(4) 0.3512(3) 0.5231(7)
H6 H 0.8965 0.3676 0.5335
C14 C 0.8660(4) 0.3029(3) 0.5287(6)
H7 H 0.8981 0.2883 0.5463
C15 C 0.6400(3) 0.5257(4) 0.2571(4)
H8 H 0.6362 0.5487 0.2199
C16 C 0.7817(4) 0.3516(3) 0.4850(7)
H9 H 0.7509 0.3684 0.4679
C17 C 0.7781(4) 0.3015(3) 0.4857(7)
H10 H 0.7461 0.2856 0.4705
O1K O 0.23943(16) 0.45708(14) 0.4335(2)
O2K O 0.38486(15) 0.54010(15) 0.0716(2)
O3K O 0.37598(15) 0.46078(15) 0.0794(2)
C1K C 0.44969(18) 0.49892(18) 0.1433(3)
O4K O 0.23089(17) 0.53517(15) 0.4148(2)
C2K C 0.39784(18) 0.5003(2) 0.0957(3)
C4K C 0.25283(19) 0.4957(2) 0.4039(2)
C6K C 0.3022(2) 0.4950(2) 0.3524(3)
C7K C 0.4495(2) 0.4937(2) 0.2204(3)
C8K C 0.3973(2) 0.4932(3) 0.2636(3)
C10K C 0.3144(2) 0.5279(3) 0.3032(4)
H3K H 0.2910 0.5542 0.2991
C11K C 0.3860(3) 0.4514(3) 0.3146(4)
H4K H 0.4096 0.4252 0.3185
C12K C 0.3370(3) 0.4555(3) 0.3554(5)
H5K H 0.3271 0.4302 0.3865
C15K C 0.3600(3) 0.5257(4) 0.2571(4)
H8K H 0.3638 0.5487 0.2199
N1J N 0.82302(15) 0.12396(19) 0.5054(2)
C5J C 0.8242(2) 0.2232(2) 0.5101(3)
C13J C 0.8639(4) 0.1488(3) 0.5231(7)
H6J H 0.8965 0.1324 0.5335
C14J C 0.8660(4) 0.1971(3) 0.5287(6)
H7J H 0.8981 0.2117 0.5463
C16J C 0.7817(4) 0.1484(3) 0.4850(7)
H9J H 0.7509 0.1316 0.4679
C17J C 0.7781(4) 0.1985(3) 0.4857(7)
H10J H 0.7461 0.2144 0.4705
Cu1C Cu 0.82234(2) 0.54745(2) 0.49737(3)
Cu1E Cu 0.67766(2) 0.54745(2) 0.00263(3)
Cu1F Cu 0.67766(2) 0.45255(2) -0.00263(3)
Cu1H Cu 0.17766(2) 0.54745(2) 0.49737(3)
Cu1J Cu 0.82234(2) 0.04745(2) 0.50263(3)
Cu1K Cu 0.17766(2) 0.45255(2) 0.50263(3)
Cu1M Cu 0.32234(2) 0.45255(2) -0.00263(3)
Cu1N Cu 0.32234(2) 0.54745(2) 0.00263(3)
O1C O 0.76057(16) 0.54292(14) 0.5665(2)
O2E O 0.88486(15) 0.45990(15) 0.5716(2)
O2F O 0.88486(15) 0.54010(15) 0.4284(2)
O3E O 0.87598(15) 0.53922(15) 0.5794(2)
O3F O 0.87598(15) 0.46078(15) 0.4206(2)
O4C O 0.76911(17) 0.46483(15) 0.5852(2)
N1C N 0.82302(15) 0.62396(19) 0.4946(2)
loop_
_geom_bond_atom_site_label_1
_geom_bond_atom_site_label_2
_geom_bond_site_symmetry_1
_geom_bond_site_symmetry_2
Cu1 O1 1_555 1_555
O1 C4 1_555 1_555
O2 C2 1_555 1_555
O3 C2 1_555 1_555
C1 C2 1_555 1_555
O4 C4 1_555 1_555
N1 Cu1 1_555 1_555
C3 C1 1_555 1_555
H1 C3 1_555 1_555
C4 C6 1_555 1_555
C5 C14 1_555 1_555
C6 C10 1_555 1_555
C7 C1 1_555 1_555
C8 C7 1_555 1_555
C9 C7 1_555 1_555
H2 C9 1_555 1_555
C10 H3 1_555 1_555
C11 C8 1_555 1_555
H4 C11 1_555 1_555
C12 C6 1_555 1_555
H5 C12 1_555 1_555
C13 N1 1_555 1_555
H6 C13 1_555 1_555
C14 C13 1_555 1_555
H7 C14 1_555 1_555
C15 C8 1_555 1_555
H8 C15 1_555 1_555
C16 N1 1_555 1_555
H9 C16 1_555 1_555
C17 C5 1_555 1_555
H10 C17 1_555 1_555
O1K C4K 1_555 1_555
O2K C2K 1_555 1_555
O3K C2K 1_555 1_555
C1K C3 1_555 1_555
O4K C4K 1_555 1_555
C2K C1K 1_555 1_555
C4K C6K 1_555 1_555
C6K C10K 1_555 1_555
C7K C9 1_555 1_555
C8K C7K 1_555 1_555
C10K H3K 1_555 1_555
C11K C8K 1_555 1_555
H4K C11K 1_555 1_555
C12K C6K 1_555 1_555
H5K C12K 1_555 1_555
C15K C8K 1_555 1_555
H8K C15K 1_555 1_555
N1J C13J 1_555 1_555
C5J C5 1_555 1_555
C13J H6J 1_555 1_555
C14J C5J 1_555 1_555
H7J C14J 1_555 1_555
C16J N1J 1_555 1_555
H9J C16J 1_555 1_555
C17J C5J 1_555 1_555
H10J C17J 1_555 1_555
Cu1C O4 1_555 1_555
Cu1E O2 1_555 1_555
Cu1F O3 1_555 1_555
Cu1H O4K 1_555 1_555
Cu1J N1J 1_555 1_555
Cu1K O1K 1_555 1_555
Cu1M O3K 1_555 1_555
Cu1N O2K 1_555 1_555
O1C Cu1C 1_555 1_555
O2E Cu1 1_555 1_555
O2F Cu1C 1_555 1_555
O3E Cu1C 1_555 1_555
O3F Cu1 1_555 1_555
O4C Cu1 1_555 1_555
N1C Cu1C 1_555 1_555
C10 C15 1_555 1_555
C11 C12 1_555 1_555
C16 C17 1_555 1_555
C1K C7K 1_555 1_555
C10K C15K 1_555 1_555
C11K C12K 1_555 1_555
C13J C14J 1_555 1_555
C16J C17J 1_555 1_555

#END
