
#######################################################################
#
#                 Cambridge Crystallographic Data Centre
#                                CCDC 
#
#######################################################################
#
# If this CIF has been generated from an entry in the Cambridge 
# Structural Database, then it will include bibliographic, chemical, 
# crystal, experimental, refinement or atomic coordinate data resulting 
# from the CCDC's data processing and validation procedures.
#
#######################################################################

data_KUWCOV
_symmetry_cell_setting           monoclinic
_symmetry_space_group_name_H-M   'P 21/n'
_symmetry_Int_Tables_number      14
_space_group_name_Hall           '-P 2yn'
loop_
_symmetry_equiv_pos_site_id
_symmetry_equiv_pos_as_xyz
1 x,y,z
2 1/2-x,1/2+y,1/2-z
3 -x,-y,-z
4 1/2+x,1/2-y,1/2+z
_cell_length_a                   7.2326(5)
_cell_length_b                   9.8199(6)
_cell_length_c                   20.7478(18)
_cell_angle_alpha                90
_cell_angle_beta                 91.291(6)
_cell_angle_gamma                90
_cell_volume                     1473.21
loop_
_atom_site_label
_atom_site_type_symbol
_atom_site_fract_x
_atom_site_fract_y
_atom_site_fract_z
C1 C 0.6711(7) 0.4106(8) 0.2875(4)
H1 H 0.7935 0.4397 0.2882
C2 C 0.6161(7) 0.3154(8) 0.2428(3)
C3 C 0.4323(8) 0.2751(9) 0.2403(4)
H2 H 0.3897 0.2147 0.2088
C4 C 0.3121(8) 0.3272(9) 0.2862(4)
H3 H 0.1892 0.2995 0.2869
C5 C 0.3781(7) 0.4176(8) 0.3291(4)
C6 C 0.7558(8) 0.2604(8) 0.1973(4)
C7 C 0.2677(7) 0.4771(9) 0.3845(4)
C8 C 0.5225(8) 0.7821(8) 0.5082(4)
H4 H 0.4010 0.7555 0.4995
C9 C 0.5525(9) 0.8656(9) 0.5582(4)
C10 C 0.7367(10) 0.9120(10) 0.5733(5)
C11 C 0.8699(10) 0.8591(11) 0.5322(6)
H5 H 0.9931 0.8825 0.5398
C12 C 0.8276(9) 0.7742(9) 0.4812(5)
H6 H 0.9216 0.7448 0.4546
C13 C 0.3942(11) 0.9114(10) 0.6002(6)
H7 H 0.4410 0.9711 0.6334
H8 H 0.3383 0.8332 0.6195
H9 H 0.3036 0.9587 0.5741
C14 C 0.7849(14) 1.0039(12) 0.6259(7)
H10 H 0.9155 1.0211 0.6262
H11 H 0.7516 0.9632 0.6661
H12 H 0.7192 1.0882 0.6202
N1 N 0.5549(6) 0.4633(7) 0.3303(3)
N2 N 0.6544(7) 0.7332(7) 0.4691(3)
O1 O 0.9183(5) 0.2892(7) 0.2024(3)
O2 O 0.6898(5) 0.1795(6) 0.1537(3)
O3 O 0.3518(5) 0.5606(5) 0.4215(3)
O4 O 0.1071(6) 0.4377(7) 0.3899(3)
Cu1 Cu 0.60886(9) 0.60259(10) 0.39733(5)
O5 O 0.7819(6) 0.4448(7) 0.4518(4)
H13 H 0.887(7) 0.458(14) 0.439(5)
H14 H 0.786(16) 0.434(18) 0.4916(16)
O1A O 0.5817(5) 0.7892(7) 0.2976(3)
O2A O 0.8102(5) 0.6795(6) 0.3463(3)
Cu1A Cu 0.89114(9) 0.10259(10) 0.10267(5)
loop_
_geom_bond_atom_site_label_1
_geom_bond_atom_site_label_2
_geom_bond_site_symmetry_1
_geom_bond_site_symmetry_2
C1 H1 1_555 1_555
C2 C1 1_555 1_555
C3 C2 1_555 1_555
H2 C3 1_555 1_555
C4 C3 1_555 1_555
H3 C4 1_555 1_555
C5 C4 1_555 1_555
C6 C2 1_555 1_555
C7 C5 1_555 1_555
C8 H4 1_555 1_555
C9 C8 1_555 1_555
C10 C9 1_555 1_555
C11 C10 1_555 1_555
H5 C11 1_555 1_555
C12 C11 1_555 1_555
H6 C12 1_555 1_555
C13 C9 1_555 1_555
H7 C13 1_555 1_555
H8 C13 1_555 1_555
H9 C13 1_555 1_555
C14 C10 1_555 1_555
H10 C14 1_555 1_555
H11 C14 1_555 1_555
H12 C14 1_555 1_555
N1 C1 1_555 1_555
N2 C8 1_555 1_555
O1 C6 1_555 1_555
O2 C6 1_555 1_555
O3 C7 1_555 1_555
O4 C7 1_555 1_555
Cu1 N1 1_555 1_555
O5 Cu1 1_555 1_555
H13 O5 1_555 1_555
H14 O5 1_555 1_555
O1A Cu1 1_555 1_555
O2A Cu1 1_555 1_555
Cu1A O1 1_555 1_555
C5 N1 1_555 1_555
C12 N2 1_555 1_555
N2 Cu1 1_555 1_555
O2 Cu1A 1_555 1_555
O3 Cu1 1_555 1_555

#END
