
#######################################################################
#
#                 Cambridge Crystallographic Data Centre
#                                CCDC 
#
#######################################################################
#
# If this CIF has been generated from an entry in the Cambridge 
# Structural Database, then it will include bibliographic, chemical, 
# crystal, experimental, refinement or atomic coordinate data resulting 
# from the CCDC's data processing and validation procedures.
#
#######################################################################

data_KUWDOX
_symmetry_cell_setting           monoclinic
_symmetry_space_group_name_H-M   'P 21/c'
_symmetry_Int_Tables_number      14
_space_group_name_Hall           '-P 2ybc'
loop_
_symmetry_equiv_pos_site_id
_symmetry_equiv_pos_as_xyz
1 x,y,z
2 -x,1/2+y,1/2-z
3 -x,-y,-z
4 x,1/2-y,1/2+z
_cell_length_a                   12.325(3)
_cell_length_b                   16.317(3)
_cell_length_c                   15.585(3)
_cell_angle_alpha                90
_cell_angle_beta                 104.60(3)
_cell_angle_gamma                90
_cell_volume                     3033.05
loop_
_atom_site_label
_atom_site_type_symbol
_atom_site_fract_x
_atom_site_fract_y
_atom_site_fract_z
Mn1 Mn 0.10793(6) 0.88888(4) 0.21867(5)
Mn2 Mn 0.29430(7) 0.90160(5) 0.50774(5)
O1 O 0.2846(3) 0.8057(3) 0.4166(3)
O2 O 0.2447(4) 0.8128(3) 0.2680(3)
O3 O 0.4372(3) 0.6221(3) 0.1122(3)
O4 O 0.6040(4) 0.5729(3) 0.1828(3)
O5 O 0.4087(4) 0.9632(4) 0.4389(4)
H1 H 0.4120 0.9875 0.4877
H2 H 0.3832 0.9954 0.3956
O6 O 0.1682(3) 0.8329(2) 0.5637(3)
H3 H 0.1464 0.7902 0.5329
H4 H 0.1083 0.8501 0.5752
O7 O 0.2211(3) 0.9811(2) 0.1839(3)
H5 H 0.1829 1.0209 0.1566
H6 H 0.2808 1.0071 0.2081
N1 N 0.1917(5) 1.1589(4) 0.6614(4)
N2 N 0.2538(4) 1.0178(3) 0.5865(3)
N3 N 0.1534(4) 0.9697(3) 0.4224(3)
N4 N 0.0874(4) 0.9589(3) 0.3387(3)
N5 N 0.0163(4) 1.0645(3) 0.3991(3)
N6 N -0.0415(4) 0.9747(2) 0.1792(3)
N7 N 0.0290(4) 0.8701(3) 0.0729(3)
N8 N 0.0444(4) 0.8234(2) 0.0039(3)
N9 N -0.0981(4) 0.9107(3) -0.0493(3)
N10 N -0.0013(4) 0.7202(3) -0.2560(3)
N11 N -0.1363(4) 0.8452(3) -0.2180(3)
C1 C -0.0900(5) 0.7505(3) -0.3177(3)
H7 H -0.1071 0.7291 -0.3749
C2 C -0.1552(5) 0.8122(3) -0.2977(4)
H8 H -0.2151 0.8315 -0.3420
C3 C -0.0498(4) 0.8151(3) -0.1568(3)
C4 C 0.0186(4) 0.7545(3) -0.1750(3)
H9 H 0.0796 0.7369 -0.1306
C5 C -0.0329(4) 0.8498(3) -0.0669(3)
C6 C -0.0567(4) 0.9211(3) 0.0381(3)
C7 C -0.1016(4) 0.9766(3) 0.0951(3)
C8 C -0.1951(5) 1.0237(4) 0.0667(4)
H10 H -0.2356 1.0239 0.0076
C9 C -0.2280(6) 1.0723(4) 0.1309(4)
H11 H -0.2933 1.1032 0.1147
C10 C -0.1642(5) 1.0741(4) 0.2167(4)
H12 H -0.1825 1.1086 0.2584
C11 C -0.0716(4) 1.0228(3) 0.2395(4)
C12 C 0.0086(4) 1.0161(3) 0.3272(3)
C13 C 0.1068(4) 1.0326(3) 0.4554(3)
C14 C 0.1641(5) 1.0623(3) 0.5442(3)
C15 C 0.1343(6) 1.1311(4) 0.5823(4)
H13 H 0.0712 1.1600 0.5519
C16 C 0.2797(7) 1.1145(5) 0.7021(5)
H14 H 0.3223 1.1315 0.7573
C17 C 0.3099(7) 1.0453(5) 0.6662(5)
H15 H 0.3716 1.0159 0.6980
C18 C 0.3042(4) 0.7919(3) 0.3422(4)
C19 C 0.4071(4) 0.7448(3) 0.3400(4)
C20 C 0.4156(4) 0.7035(3) 0.2641(4)
H16 H 0.3556 0.7045 0.2141
C21 C 0.5109(5) 0.6615(4) 0.2619(4)
C22 C 0.6014(5) 0.6616(4) 0.3367(4)
H17 H 0.6672 0.6344 0.3354
C23 C 0.5931(5) 0.7025(5) 0.4136(4)
C24 C 0.4957(5) 0.7432(4) 0.4140(4)
H18 H 0.4895 0.7700 0.4652
C25 C 0.5167(5) 0.6156(4) 0.1786(4)
C26 C 0.6910(6) 0.7004(7) 0.4957(5)
H19 H 0.6647 0.6838 0.5460
H20 H 0.7238 0.7540 0.5061
H21 H 0.7463 0.6622 0.4866
Mn1C Mn 0.10793(6) 0.61112(4) -0.28133(5)
Mn2C Mn 0.29430(7) 0.59840(5) 0.00774(5)
O3C O 0.4372(3) 0.8779(3) 0.6122(3)
N10C N -0.0013(4) 0.7798(3) 0.2440(3)
O8 O 0.4380(15) 0.8923(12) 0.0975(12)
H22 H 0.4402 0.8902 0.1524
H23 H 0.3894 0.8555 0.0981
loop_
_geom_bond_atom_site_label_1
_geom_bond_atom_site_label_2
_geom_bond_site_symmetry_1
_geom_bond_site_symmetry_2
Mn1 O2 1_555 1_555
Mn2 O1 1_555 1_555
O1 C18 1_555 1_555
O2 C18 1_555 1_555
O3 C25 1_555 1_555
O4 C25 1_555 1_555
O5 Mn2 1_555 1_555
H1 O5 1_555 1_555
H2 O5 1_555 1_555
O6 Mn2 1_555 1_555
H3 O6 1_555 1_555
H4 O6 1_555 1_555
O7 Mn1 1_555 1_555
H5 O7 1_555 1_555
H6 O7 1_555 1_555
N1 C15 1_555 1_555
N2 Mn2 1_555 1_555
N3 Mn2 1_555 1_555
N4 Mn1 1_555 1_555
N5 C12 1_555 1_555
N6 Mn1 1_555 1_555
N7 Mn1 1_555 1_555
N8 N7 1_555 1_555
N9 C5 1_555 1_555
N10 C1 1_555 1_555
N11 C2 1_555 1_555
C1 H7 1_555 1_555
C2 C1 1_555 1_555
H8 C2 1_555 1_555
C3 N11 1_555 1_555
C4 N10 1_555 1_555
H9 C4 1_555 1_555
C5 N8 1_555 1_555
C6 N7 1_555 1_555
C7 N6 1_555 1_555
C8 C7 1_555 1_555
H10 C8 1_555 1_555
C9 C8 1_555 1_555
H11 C9 1_555 1_555
C10 C9 1_555 1_555
H12 C10 1_555 1_555
C11 N6 1_555 1_555
C12 N4 1_555 1_555
C13 N3 1_555 1_555
C14 N2 1_555 1_555
C15 C14 1_555 1_555
H13 C15 1_555 1_555
C16 N1 1_555 1_555
H14 C16 1_555 1_555
C17 N2 1_555 1_555
H15 C17 1_555 1_555
C18 C19 1_555 1_555
C19 C20 1_555 1_555
C20 H16 1_555 1_555
C21 C20 1_555 1_555
C22 C21 1_555 1_555
H17 C22 1_555 1_555
C23 C22 1_555 1_555
C24 C19 1_555 1_555
H18 C24 1_555 1_555
C25 C21 1_555 1_555
C26 C23 1_555 1_555
H19 C26 1_555 1_555
H20 C26 1_555 1_555
H21 C26 1_555 1_555
O8 H22 1_555 1_555
H23 O8 1_555 1_555
Mn1C N10 1_555 1_555
Mn2C O3 1_555 1_555
O3C Mn2 1_555 1_555
N10C Mn1 1_555 1_555
N3 N4 1_555 1_555
N5 C13 1_555 1_555
N9 C6 1_555 1_555
C3 C4 1_555 1_555
C3 C5 1_555 1_555
C6 C7 1_555 1_555
C10 C11 1_555 1_555
C11 C12 1_555 1_555
C13 C14 1_555 1_555
C16 C17 1_555 1_555
C23 C24 1_555 1_555

#END
