
#######################################################################
#
#                 Cambridge Crystallographic Data Centre
#                                CCDC 
#
#######################################################################
#
# If this CIF has been generated from an entry in the Cambridge 
# Structural Database, then it will include bibliographic, chemical, 
# crystal, experimental, refinement or atomic coordinate data resulting 
# from the CCDC's data processing and validation procedures.
#
#######################################################################

data_KUWFUF
_symmetry_cell_setting           triclinic
_symmetry_space_group_name_H-M   'P -1'
_symmetry_Int_Tables_number      2
_space_group_name_Hall           '-P 1'
loop_
_symmetry_equiv_pos_site_id
_symmetry_equiv_pos_as_xyz
1 x,y,z
2 -x,-y,-z
_cell_length_a                   10.1090(14)
_cell_length_b                   11.2544(16)
_cell_length_c                   12.3282(17)
_cell_angle_alpha                70.576(2)
_cell_angle_beta                 77.903(2)
_cell_angle_gamma                82.210(3)
_cell_volume                     1290.08
loop_
_atom_site_label
_atom_site_type_symbol
_atom_site_fract_x
_atom_site_fract_y
_atom_site_fract_z
Ni1 Ni 0.59908(3) 0.73184(3) 0.63862(3)
N1 N 0.6035(2) 0.7905(2) 0.46064(18)
N2 N 0.5570(2) 0.8942(2) 0.28566(18)
N3 N -0.3219(2) 0.5858(2) -0.02024(18)
N4 N -0.4024(2) 0.6698(2) -0.18304(18)
O1 O 0.70133(16) 0.88949(17) 0.62803(15)
O2 O 0.81557(16) 0.71438(17) 0.61453(15)
O3 O 1.30564(19) 0.65106(19) 0.64345(19)
O4 O 1.40442(16) 0.80363(18) 0.66573(15)
O5 O 0.5585(2) 0.54913(19) 0.65536(18)
C1 C 0.8111(2) 0.8228(3) 0.6242(2)
C2 C 0.9357(2) 0.8703(2) 0.6377(2)
C3 C 0.9296(3) 0.9877(3) 0.6519(2)
H1 H 0.8485 1.0378 0.6513
C4 C 1.0441(3) 1.0305(3) 0.6670(2)
H2 H 1.0403 1.1095 0.6766
C5 C 1.1644(3) 0.9555(3) 0.6677(2)
H3 H 1.2415 0.9849 0.6774
C6 C 1.1719(2) 0.8378(2) 0.6544(2)
C7 C 1.0565(2) 0.7955(2) 0.6398(2)
H4 H 1.0601 0.7159 0.6313
C8 C 1.3035(2) 0.7578(3) 0.6541(2)
C9 C 0.5226(3) 0.8784(2) 0.4010(2)
H5 H 0.4509 0.9236 0.4342
C10 C 0.6941(3) 0.7485(3) 0.3788(2)
H6 H 0.7643 0.6863 0.3951
C11 C 0.6656(3) 0.8114(3) 0.2710(2)
H7 H 0.7111 0.8003 0.2008
C12 C 0.4834(3) 0.9772(3) 0.1957(2)
H8 H 0.5477 1.0107 0.1246
H9 H 0.4386 1.0479 0.2208
C13 C 0.3790(3) 0.9120(3) 0.1694(2)
C14 C 0.2946(3) 0.9814(3) 0.0914(2)
H10 H 0.3053 1.0671 0.0544
C15 C 0.1957(3) 0.9259(3) 0.0678(2)
H11 H 0.1411 0.9747 0.0147
C16 C 0.1757(3) 0.7991(3) 0.1212(2)
C17 C 0.2620(3) 0.7298(3) 0.1989(3)
H12 H 0.2523 0.6439 0.2357
C18 C 0.3605(3) 0.7858(3) 0.2219(3)
H13 H 0.4161 0.7372 0.2742
C19 C -0.2997(3) 0.6052(3) -0.1354(2)
H14 H -0.2211 0.5763 -0.1766
C20 C -0.4952(3) 0.6923(3) -0.0929(2)
H15 H -0.5790 0.7369 -0.1001
C21 C -0.4470(3) 0.6402(3) 0.0082(2)
H16 H -0.4907 0.6413 0.0822
C22 C -0.2265(3) 0.5194(3) 0.0583(3)
H17 H -0.1735 0.4544 0.0290
H18 H -0.2777 0.4777 0.1346
C23 C -0.1314(3) 0.6028(3) 0.0720(2)
C24 C -0.0750(3) 0.7022(3) -0.0168(2)
H19 H -0.1033 0.7263 -0.0886
C25 C 0.0229(3) 0.7680(3) -0.0029(2)
H20 H 0.0603 0.8342 -0.0655
C26 C 0.0659(3) 0.7361(3) 0.1036(2)
C27 C 0.0044(3) 0.6380(3) 0.1944(2)
H21 H 0.0295 0.6157 0.2674
C28 C -0.0919(3) 0.5732(3) 0.1794(2)
H22 H -0.1313 0.5084 0.2422
H23 H 0.478(2) 0.557(3) 0.650(3)
H24 H 0.5966(17) 0.520(2) 0.5987(17)
Ni1_2 Ni -0.40092(3) 0.73184(3) -0.36138(3)
Ni1_3 Ni 1.59908(3) 0.73184(3) 0.63862(3)
N4_2 N 0.5976(2) 0.6698(2) 0.81696(18)
O4_2 O 0.40442(16) 0.80363(18) 0.66573(15)
O6 O 0.2520(3) 0.5707(3) 0.4763(2)
H25 H 0.2630 0.6007 0.5282
H26 H 0.1734 0.6010 0.4692
O7 O 0.9832(5) 0.5624(5) 0.5018(4)
loop_
_geom_bond_atom_site_label_1
_geom_bond_atom_site_label_2
_geom_bond_site_symmetry_1
_geom_bond_site_symmetry_2
Ni1 N1 1_555 1_555
N1 C9 1_555 1_555
N2 C9 1_555 1_555
N3 C19 1_555 1_555
N4 C19 1_555 1_555
O1 Ni1 1_555 1_555
O2 Ni1 1_555 1_555
O3 C8 1_555 1_555
O4 C8 1_555 1_555
O5 Ni1 1_555 1_555
C1 O1 1_555 1_555
C2 C1 1_555 1_555
C3 C2 1_555 1_555
H1 C3 1_555 1_555
C4 C3 1_555 1_555
H2 C4 1_555 1_555
C5 C4 1_555 1_555
H3 C5 1_555 1_555
C6 C5 1_555 1_555
C7 C2 1_555 1_555
H4 C7 1_555 1_555
C8 C6 1_555 1_555
C9 H5 1_555 1_555
C10 N1 1_555 1_555
H6 C10 1_555 1_555
C11 N2 1_555 1_555
H7 C11 1_555 1_555
C12 N2 1_555 1_555
H8 C12 1_555 1_555
H9 C12 1_555 1_555
C13 C12 1_555 1_555
C14 C13 1_555 1_555
H10 C14 1_555 1_555
C15 C14 1_555 1_555
H11 C15 1_555 1_555
C16 C15 1_555 1_555
C17 C16 1_555 1_555
H12 C17 1_555 1_555
C18 C13 1_555 1_555
H13 C18 1_555 1_555
C19 H14 1_555 1_555
C20 N4 1_555 1_555
H15 C20 1_555 1_555
C21 N3 1_555 1_555
H16 C21 1_555 1_555
C22 N3 1_555 1_555
H17 C22 1_555 1_555
H18 C22 1_555 1_555
C23 C22 1_555 1_555
C24 C23 1_555 1_555
H19 C24 1_555 1_555
C25 C24 1_555 1_555
H20 C25 1_555 1_555
C26 C16 1_555 1_555
C27 C26 1_555 1_555
H21 C27 1_555 1_555
C28 C23 1_555 1_555
H22 C28 1_555 1_555
H23 O5 1_555 1_555
H24 O5 1_555 1_555
O6 H25 1_555 1_555
H26 O6 1_555 1_555
Ni1_2 N4 1_555 1_555
Ni1_3 O4 1_555 1_555
N4_2 Ni1 1_555 1_555
O4_2 Ni1 1_555 1_555
O2 C1 1_555 1_555
C6 C7 1_555 1_555
C10 C11 1_555 1_555
C17 C18 1_555 1_555
C20 C21 1_555 1_555
C25 C26 1_555 1_555
C27 C28 1_555 1_555

#END
