
#######################################################################
#
#                 Cambridge Crystallographic Data Centre
#                                CCDC 
#
#######################################################################
#
# If this CIF has been generated from an entry in the Cambridge 
# Structural Database, then it will include bibliographic, chemical, 
# crystal, experimental, refinement or atomic coordinate data resulting 
# from the CCDC's data processing and validation procedures.
#
#######################################################################

data_KUWFIT
_symmetry_cell_setting           monoclinic
_symmetry_space_group_name_H-M   'P 21'
_symmetry_Int_Tables_number      4
_space_group_name_Hall           'P 2yb'
loop_
_symmetry_equiv_pos_site_id
_symmetry_equiv_pos_as_xyz
1 x,y,z
2 -x,1/2+y,-z
_cell_length_a                   8.3747(17)
_cell_length_b                   13.005(3)
_cell_length_c                   10.693(2)
_cell_angle_alpha                90
_cell_angle_beta                 90.68(3)
_cell_angle_gamma                90
_cell_volume                     1164.52
loop_
_atom_site_label
_atom_site_type_symbol
_atom_site_fract_x
_atom_site_fract_y
_atom_site_fract_z
Mn1 Mn 0.70340(7) 1.08196(5) 0.09468(5)
Mn2 Mn 0.58338(7) 0.83513(4) 0.42609(5)
Cl1 Cl 0.58895(15) 0.98410(9) 0.56404(12)
Cl2 Cl 0.6170(2) 1.21855(13) -0.05221(13)
O1 O 0.3795(4) 0.8911(2) 0.3214(3)
H1 H 0.3887 0.9555 0.3096
H2 H 0.2993 0.8674 0.2814
O2 O 0.5190(5) 0.6928(2) 0.3175(3)
H3 H 0.4299 0.7016 0.2801
H4 H 0.5045 0.6333 0.3484
O3 O 0.5836(5) 0.9718(3) -0.0235(4)
H5 H 0.4903 0.9933 -0.0413
H6 H 0.5386 0.9150 -0.0063
N1 N 0.0699(5) 0.8949(3) 0.6569(4)
N2 N 0.1655(4) 0.7200(3) 0.7887(3)
N3 N 0.5216(4) 0.7333(3) 0.5977(3)
N4 N 0.4537(4) 0.6291(3) 0.7555(3)
N5 N 0.6013(4) 0.5995(3) 0.7179(3)
N6 N 0.7885(4) 0.8827(3) 0.2937(3)
N7 N 0.8201(4) 0.9486(3) 0.1971(3)
N8 N 1.0411(4) 0.8535(3) 0.2303(3)
N9 N 0.9507(4) 1.0575(3) 0.0038(3)
N10 N 1.2587(5) 1.0176(3) -0.0771(3)
N11 N 0.7987(4) 0.7383(3) 0.4721(3)
C1 C -0.0213(6) 0.8520(4) 0.7413(5)
H7 H -0.1211 0.8806 0.7560
C2 C 0.0238(6) 0.7672(4) 0.8083(4)
H8 H -0.0443 0.7413 0.8687
C3 C 0.2582(5) 0.7616(3) 0.7031(4)
C4 C 0.2121(6) 0.8503(4) 0.6385(4)
H9 H 0.2817 0.8792 0.5812
C5 C 0.4089(5) 0.7086(3) 0.6828(3)
C6 C 0.6374(5) 0.6633(3) 0.6242(4)
C7 C 0.7853(5) 0.6624(3) 0.5552(3)
C8 C 0.9078(5) 0.5900(4) 0.5743(4)
H10 H 0.8966 0.5369 0.6318
C9 C 1.0459(5) 0.5999(4) 0.5050(4)
H11 H 1.1299 0.5540 0.5166
C10 C 1.0577(5) 0.6780(3) 0.4189(4)
H12 H 1.1496 0.6851 0.3717
C11 C 0.9322(5) 0.7460(3) 0.4029(4)
C12 C 0.9251(5) 0.8280(3) 0.3094(3)
C13 C 0.9709(5) 0.9283(3) 0.1625(4)
C14 C 1.0428(5) 0.9845(3) 0.0584(4)
C15 C 1.1949(5) 0.9645(4) 0.0176(4)
H13 H 1.2547 0.9131 0.0564
C16 C 1.1677(6) 1.0887(4) -0.1304(4)
H14 H 1.2081 1.1263 -0.1970
C17 C 1.0145(6) 1.1088(4) -0.0904(4)
H15 H 0.9547 1.1596 -0.1305
Mn1A Mn 0.29660(7) 0.58196(5) 0.90532(5)
N2A N 0.8345(4) 1.2200(3) 0.2113(3)
N4A N 0.5463(4) 1.1291(3) 0.2445(3)
O4 O 0.6776(12) 0.7856(8) 0.9275(10)
H16 H 0.6210 0.8019 0.8689
H17 H 0.6260 0.7608 0.9885
loop_
_geom_bond_atom_site_label_1
_geom_bond_atom_site_label_2
_geom_bond_site_symmetry_1
_geom_bond_site_symmetry_2
Mn1 Cl2 1_555 1_555
Mn2 Cl1 1_555 1_555
O1 Mn2 1_555 1_555
H1 O1 1_555 1_555
H2 O1 1_555 1_555
O2 Mn2 1_555 1_555
H3 O2 1_555 1_555
H4 O2 1_555 1_555
O3 Mn1 1_555 1_555
H5 O3 1_555 1_555
H6 O3 1_555 1_555
N1 C1 1_555 1_555
N2 C2 1_555 1_555
N3 Mn2 1_555 1_555
N4 N5 1_555 1_555
N5 C6 1_555 1_555
N6 Mn2 1_555 1_555
N7 Mn1 1_555 1_555
N8 C12 1_555 1_555
N9 Mn1 1_555 1_555
N10 C15 1_555 1_555
N11 Mn2 1_555 1_555
C1 H7 1_555 1_555
C2 C1 1_555 1_555
H8 C2 1_555 1_555
C3 N2 1_555 1_555
C4 N1 1_555 1_555
H9 C4 1_555 1_555
C5 N3 1_555 1_555
C6 N3 1_555 1_555
C7 N11 1_555 1_555
C8 C7 1_555 1_555
H10 C8 1_555 1_555
C9 C8 1_555 1_555
H11 C9 1_555 1_555
C10 C9 1_555 1_555
H12 C10 1_555 1_555
C11 N11 1_555 1_555
C12 N6 1_555 1_555
C13 N7 1_555 1_555
C14 N9 1_555 1_555
C15 C14 1_555 1_555
H13 C15 1_555 1_555
C16 N10 1_555 1_555
H14 C16 1_555 1_555
C17 N9 1_555 1_555
H15 C17 1_555 1_555
O4 H16 1_555 1_555
H17 O4 1_555 1_555
Mn1A N2 1_555 1_555
N2A Mn1 1_555 1_555
N4A Mn1 1_555 1_555
N4 C5 1_555 1_555
N4 Mn1A 1_555 1_555
N6 N7 1_555 1_555
N8 C13 1_555 1_555
C3 C4 1_555 1_555
C3 C5 1_555 1_555
C6 C7 1_555 1_555
C10 C11 1_555 1_555
C11 C12 1_555 1_555
C13 C14 1_555 1_555
C16 C17 1_555 1_555

#END
