
#######################################################################
#
#                 Cambridge Crystallographic Data Centre
#                                CCDC 
#
#######################################################################
#
# If this CIF has been generated from an entry in the Cambridge 
# Structural Database, then it will include bibliographic, chemical, 
# crystal, experimental, refinement or atomic coordinate data resulting 
# from the CCDC's data processing and validation procedures.
#
#######################################################################

data_KUWFEP
_symmetry_cell_setting           tetragonal
_symmetry_space_group_name_H-M   'P 42/n'
_symmetry_Int_Tables_number      86
_space_group_name_Hall           '-P 4bc'
loop_
_symmetry_equiv_pos_site_id
_symmetry_equiv_pos_as_xyz
1 x,y,z
2 1/2-x,1/2-y,z
3 -y,1/2+x,1/2+z
4 1/2+y,-x,1/2+z
5 -x,-y,-z
6 1/2+x,1/2+y,-z
7 y,1/2-x,1/2-z
8 1/2-y,x,1/2-z
_cell_length_a                   24.053(4)
_cell_length_b                   24.053(4)
_cell_length_c                   9.307(3)
_cell_angle_alpha                90
_cell_angle_beta                 90
_cell_angle_gamma                90
_cell_volume                     5384.54
loop_
_atom_site_label
_atom_site_type_symbol
_atom_site_fract_x
_atom_site_fract_y
_atom_site_fract_z
Mn1 Mn 0.51885(3) 0.22443(2) 0.47921(7)
Mn2 Mn 0.56205(3) 0.38530(2) 0.74487(7)
S1 S 0.64641(5) 0.16157(5) 0.67263(13)
O1 O 0.60466(13) 0.30995(13) 0.7952(4)
O2 O 0.56223(17) 0.24769(16) 0.6642(5)
O3 O 0.70723(15) 0.05352(15) 0.6399(4)
O4 O 0.77270(12) 0.07369(13) 0.8034(4)
O5 O 0.51230(12) 0.36520(12) 0.9326(3)
H1 H 0.5225 0.3410 0.9938
H2 H 0.4910 0.3898 0.9684
O6 O 0.63742(13) 0.40299(14) 0.6198(4)
H3 H 0.6599 0.4175 0.6796
H4 H 0.6379 0.3677 0.6220
N1 N 0.44640(14) 0.23471(14) 0.3071(4)
N2 N 0.3704(2) 0.26325(19) 0.0952(5)
N3 N 0.49269(14) 0.31308(13) 0.4790(4)
N4 N 0.50202(13) 0.35770(13) 0.5669(4)
N5 N 0.43013(14) 0.37831(13) 0.4219(4)
N6 N 0.50189(13) 0.45624(13) 0.6992(4)
N7 N 0.59113(13) 0.46999(13) 0.8695(4)
N8 N 0.63125(13) 0.48986(13) 0.9601(4)
N9 N 0.56259(13) 0.55319(13) 0.9529(4)
N10 N 0.69897(14) 0.55624(14) 1.1207(4)
N11 N 0.66098(17) 0.65371(17) 1.2465(4)
C1 C 0.4263(2) 0.19719(19) 0.2155(5)
H5 H 0.4385 0.1606 0.2210
C2 C 0.3880(3) 0.2115(2) 0.1136(6)
H6 H 0.3736 0.1838 0.0547
C3 C 0.3918(2) 0.3011(2) 0.1840(6)
H7 H 0.3815 0.3382 0.1728
C4 C 0.42859(18) 0.28735(17) 0.2921(5)
C5 C 0.45034(16) 0.32736(16) 0.3958(5)
C6 C 0.46394(16) 0.39482(16) 0.5285(4)
C7 C 0.46101(16) 0.44852(15) 0.6033(4)
C8 C 0.41997(18) 0.48777(18) 0.5796(5)
H8 H 0.3922 0.4817 0.5118
C9 C 0.42137(18) 0.53621(18) 0.6594(5)
H9 H 0.3937 0.5628 0.6477
C10 C 0.46371(18) 0.54496(17) 0.7559(4)
H10 H 0.4656 0.5778 0.8083
C11 C 0.50338(16) 0.50396(16) 0.7736(4)
C12 C 0.55183(15) 0.50907(15) 0.8674(4)
C13 C 0.61276(15) 0.53889(16) 1.0070(4)
C14 C 0.64650(16) 0.57345(16) 1.1013(4)
C15 C 0.62811(18) 0.62190(18) 1.1659(5)
H11 H 0.5913 0.6327 1.1524
C16 C 0.7124(2) 0.6361(2) 1.2627(5)
H12 H 0.7369 0.6574 1.3172
C17 C 0.73145(19) 0.5876(2) 1.2021(5)
H13 H 0.7679 0.5766 1.2186
C18 C 0.60084(17) 0.26334(18) 0.7399(5)
C19 C 0.64281(19) 0.22089(18) 0.7727(5)
C20 C 0.6808(3) 0.2212(2) 0.8812(8)
H14 H 0.6840 0.2495 0.9487
C21 C 0.7146(3) 0.1734(2) 0.8785(9)
H15 H 0.7430 0.1669 0.9443
C22 C 0.70159(19) 0.13758(19) 0.7694(6)
C23 C 0.72809(18) 0.08366(19) 0.7325(5)
Mn1B Mn 0.77557(2) 0.01885(3) 0.97921(7)
Mn1C Mn 0.72443(2) 0.48115(3) 0.97921(7)
O4C O 0.57369(13) 0.22730(12) 0.3034(4)
N8B N 0.51014(13) 0.13125(13) 0.4601(4)
N10B N 0.44376(14) 0.19897(14) 0.6207(4)
O7 O 0.7074(3) 0.4857(3) 0.4709(8)
H16 H 0.7183 0.4732 0.3901
H17 H 0.7140 0.4606 0.5327
O8 O 0.2497(7) 0.2865(7) 0.0345(18)
H18 H 0.2850 0.2856 0.0324
H19 H 0.2379 0.3198 0.0316
O8A O 0.2503(7) 0.2135(7) 0.0345(18)
H18A H 0.2150 0.2144 0.0324
H19A H 0.2621 0.1802 0.0316
loop_
_geom_bond_atom_site_label_1
_geom_bond_atom_site_label_2
_geom_bond_site_symmetry_1
_geom_bond_site_symmetry_2
Mn1 O2 1_555 1_555
Mn2 O1 1_555 1_555
S1 C19 1_555 1_555
O1 C18 1_555 1_555
O2 C18 1_555 1_555
O3 C23 1_555 1_555
O4 C23 1_555 1_555
O5 Mn2 1_555 1_555
H1 O5 1_555 1_555
H2 O5 1_555 1_555
O6 Mn2 1_555 1_555
H3 O6 1_555 1_555
H4 O6 1_555 1_555
N1 Mn1 1_555 1_555
N2 C2 1_555 1_555
N3 Mn1 1_555 1_555
N4 Mn2 1_555 1_555
N5 C5 1_555 1_555
N6 Mn2 1_555 1_555
N7 Mn2 1_555 1_555
N8 N7 1_555 1_555
N9 C12 1_555 1_555
N10 C14 1_555 1_555
N11 C15 1_555 1_555
C1 N1 1_555 1_555
H5 C1 1_555 1_555
C2 C1 1_555 1_555
H6 C2 1_555 1_555
C3 N2 1_555 1_555
H7 C3 1_555 1_555
C4 N1 1_555 1_555
C5 N3 1_555 1_555
C6 N4 1_555 1_555
C7 N6 1_555 1_555
C8 C7 1_555 1_555
H8 C8 1_555 1_555
C9 C8 1_555 1_555
H9 C9 1_555 1_555
C10 C9 1_555 1_555
H10 C10 1_555 1_555
C11 N6 1_555 1_555
C12 N7 1_555 1_555
C13 N8 1_555 1_555
C14 C13 1_555 1_555
C15 C14 1_555 1_555
H11 C15 1_555 1_555
C16 N11 1_555 1_555
H12 C16 1_555 1_555
C17 N10 1_555 1_555
H13 C17 1_555 1_555
C18 C19 1_555 1_555
C19 C20 1_555 1_555
C20 H14 1_555 1_555
C21 C20 1_555 1_555
H15 C21 1_555 1_555
C22 S1 1_555 1_555
C23 C22 1_555 1_555
O7 H16 1_555 1_555
H17 O7 1_555 1_555
O8 H18 1_555 1_555
H19 O8 1_555 1_555
Mn1B O4 1_555 1_555
Mn1C N8 1_555 1_555
O4C Mn1 1_555 1_555
N8B Mn1 1_555 1_555
N10B Mn1 1_555 1_555
O8A H18A 1_555 1_555
H19A O8A 1_555 1_555
N3 N4 1_555 1_555
N5 C6 1_555 1_555
N9 C13 1_555 1_555
N10 Mn1C 1_555 1_555
C3 C4 1_555 1_555
C4 C5 1_555 1_555
C6 C7 1_555 1_555
C10 C11 1_555 1_555
C11 C12 1_555 1_555
C16 C17 1_555 1_555
C21 C22 1_555 1_555

#END
