
#######################################################################
#
#                 Cambridge Crystallographic Data Centre
#                                CCDC 
#
#######################################################################
#
# If this CIF has been generated from an entry in the Cambridge 
# Structural Database, then it will include bibliographic, chemical, 
# crystal, experimental, refinement or atomic coordinate data resulting 
# from the CCDC's data processing and validation procedures.
#
#######################################################################

data_KUWFAL
_symmetry_cell_setting           monoclinic
_symmetry_space_group_name_H-M   'P 21/c'
_symmetry_Int_Tables_number      14
_space_group_name_Hall           '-P 2ybc'
loop_
_symmetry_equiv_pos_site_id
_symmetry_equiv_pos_as_xyz
1 x,y,z
2 -x,1/2+y,1/2-z
3 -x,-y,-z
4 x,1/2-y,1/2+z
_cell_length_a                   16.001(3)
_cell_length_b                   10.142(2)
_cell_length_c                   19.287(4)
_cell_angle_alpha                90
_cell_angle_beta                 101.27(3)
_cell_angle_gamma                90
_cell_volume                     3069.58
loop_
_atom_site_label
_atom_site_type_symbol
_atom_site_fract_x
_atom_site_fract_y
_atom_site_fract_z
Mn1 Mn 0.29321(4) 0.96302(5) 0.46873(3)
Mn2 Mn 0.22380(4) 0.80526(5) 0.65689(3)
O1 O 0.3574(2) 0.8177(2) 0.53525(16)
O2 O 0.32177(19) 0.7014(3) 0.62310(15)
O3 O 0.3174(3) 0.2099(3) 0.61002(19)
O4 O 0.3682(2) 0.1142(3) 0.52275(17)
O5 O 0.4509(3) 0.3748(4) 0.3343(2)
H1 H 0.4620 0.3889 0.2952
O6 O 0.4251(4) 0.5846(4) 0.3267(2)
O7 O 0.3001(2) 0.9868(3) 0.69142(17)
H2 H 0.2807 1.0505 0.6643
H3 H 0.3338 0.9821 0.7313
O8 O 0.13765(16) 0.6415(2) 0.61163(14)
H4 H 0.1336 0.6272 0.5677
H5 H 0.1514 0.6008 0.6507
N1 N 0.4801(3) 0.5576(6) 0.7842(2)
N2 N 0.3832(2) 0.5357(3) 0.88775(16)
N3 N 0.2369(2) 0.6721(3) 0.88134(17)
N4 N 0.16401(19) 0.7451(3) 0.86394(17)
N5 N 0.2290(2) 0.7409(3) 0.77004(17)
N6 N 0.1129(2) 0.9003(3) 0.69362(17)
N7 N 0.1579(2) 0.9382(3) 0.57165(17)
N8 N 0.1806(2) 0.9926(3) 0.51412(17)
N9 N 0.0747(2) 1.1155(4) 0.54123(19)
N10 N 0.2062(2) 1.1432(4) 0.40633(18)
N11 N 0.1139(5) 1.3702(7) 0.3658(4)
C1 C 0.4581(2) 0.4749(4) 0.8935(2)
H6 H 0.4788 0.4253 0.9338
C2 C 0.5054(3) 0.4834(6) 0.8419(3)
H7 H 0.5562 0.4366 0.8469
C3 C 0.4045(3) 0.6175(7) 0.7777(3)
H8 H 0.3845 0.6683 0.7377
C4 C 0.3557(2) 0.6057(4) 0.8286(2)
C5 C 0.2740(2) 0.6727(4) 0.8251(2)
C6 C 0.1615(2) 0.7834(4) 0.79747(19)
C7 C 0.0944(2) 0.8651(4) 0.7556(2)
C8 C 0.0198(3) 0.9072(4) 0.7761(2)
H9 H 0.0069 0.8812 0.8191
C9 C -0.0341(3) 0.9885(5) 0.7305(3)
H10 H -0.0846 1.0172 0.7425
C10 C -0.0139(3) 1.0278(5) 0.6671(3)
H11 H -0.0498 1.0839 0.6367
C11 C 0.0609(2) 0.9817(4) 0.6499(2)
C12 C 0.0948(3) 1.0136(4) 0.5861(2)
C13 C 0.1306(3) 1.0979(4) 0.4976(2)
C14 C 0.1440(3) 1.1833(5) 0.4396(3)
C15 C 0.0992(5) 1.2958(7) 0.4189(4)
H12 H 0.0567 1.3213 0.4428
C16 C 0.1740(5) 1.3279(7) 0.3318(4)
H13 H 0.1844 1.3753 0.2931
C17 C 0.2206(4) 1.2167(5) 0.3526(3)
H14 H 0.2632 1.1918 0.3286
C18 C 0.3462(2) 0.7103(3) 0.5651(2)
C19 C 0.3642(2) 0.5854(3) 0.5293(2)
C20 C 0.3522(3) 0.4636(3) 0.5597(2)
H15 H 0.3350 0.4604 0.6030
C21 C 0.3659(3) 0.3471(4) 0.5256(2)
C22 C 0.3922(3) 0.3537(4) 0.4614(2)
H16 H 0.4025 0.2760 0.4388
C23 C 0.4034(3) 0.4738(4) 0.4299(2)
C24 C 0.3895(2) 0.5902(4) 0.4648(2)
H17 H 0.3975 0.6713 0.4446
C25 C 0.3490(3) 0.2142(4) 0.5563(2)
C26 C 0.4264(3) 0.4825(5) 0.3592(3)
Mn1_2 Mn 0.29321(4) -0.03698(5) 0.46873(3)
Mn1C Mn 0.29321(4) 0.53698(5) 0.96873(3)
O4_2 O 0.3682(2) 1.1142(3) 0.52275(17)
N2C N 0.3832(2) 0.9643(3) 0.38775(16)
N3C N 0.2369(2) 0.8279(3) 0.38134(17)
O9 O 0.05982(16) 0.6829(2) 0.46935(14)
H18 H 0.1062 0.6586 0.4581
H19 H 0.0139 0.7133 0.4449
O10 O 0.1691(4) 0.3688(5) 0.6380(3)
H20 H 0.2085 0.3116 0.6417
H21 H 0.1351 0.3092 0.6185
loop_
_geom_bond_atom_site_label_1
_geom_bond_atom_site_label_2
_geom_bond_site_symmetry_1
_geom_bond_site_symmetry_2
Mn1 O1 1_555 1_555
Mn2 O2 1_555 1_555
O1 C18 1_555 1_555
O2 C18 1_555 1_555
O3 C25 1_555 1_555
O4 C25 1_555 1_555
O5 H1 1_555 1_555
O6 C26 1_555 1_555
O7 Mn2 1_555 1_555
H2 O7 1_555 1_555
H3 O7 1_555 1_555
O8 Mn2 1_555 1_555
H4 O8 1_555 1_555
H5 O8 1_555 1_555
N1 C2 1_555 1_555
N2 C1 1_555 1_555
N3 N4 1_555 1_555
N4 C6 1_555 1_555
N5 Mn2 1_555 1_555
N6 Mn2 1_555 1_555
N7 Mn2 1_555 1_555
N8 Mn1 1_555 1_555
N9 C12 1_555 1_555
N10 Mn1 1_555 1_555
N11 C15 1_555 1_555
C1 H6 1_555 1_555
C2 C1 1_555 1_555
H7 C2 1_555 1_555
C3 N1 1_555 1_555
H8 C3 1_555 1_555
C4 N2 1_555 1_555
C5 N3 1_555 1_555
C6 N5 1_555 1_555
C7 N6 1_555 1_555
C8 C7 1_555 1_555
H9 C8 1_555 1_555
C9 C8 1_555 1_555
H10 C9 1_555 1_555
C10 C9 1_555 1_555
H11 C10 1_555 1_555
C11 N6 1_555 1_555
C12 N7 1_555 1_555
C13 N8 1_555 1_555
C14 N10 1_555 1_555
C15 C14 1_555 1_555
H12 C15 1_555 1_555
C16 N11 1_555 1_555
H13 C16 1_555 1_555
C17 N10 1_555 1_555
H14 C17 1_555 1_555
C18 C19 1_555 1_555
C19 C20 1_555 1_555
C20 H15 1_555 1_555
C21 C20 1_555 1_555
C22 C21 1_555 1_555
H16 C22 1_555 1_555
C23 C22 1_555 1_555
C24 C19 1_555 1_555
H17 C24 1_555 1_555
C25 C21 1_555 1_555
C26 O5 1_555 1_555
O9 H18 1_555 1_555
H19 O9 1_555 1_555
O10 H20 1_555 1_555
H21 O10 1_555 1_555
Mn1_2 O4 1_555 1_555
Mn1C N2 1_555 1_555
O4_2 Mn1 1_555 1_555
N2C Mn1 1_555 1_555
N3C Mn1 1_555 1_555
N3 Mn1C 1_555 1_555
N5 C5 1_555 1_555
N7 N8 1_555 1_555
N9 C13 1_555 1_555
C3 C4 1_555 1_555
C4 C5 1_555 1_555
C6 C7 1_555 1_555
C10 C11 1_555 1_555
C11 C12 1_555 1_555
C13 C14 1_555 1_555
C16 C17 1_555 1_555
C23 C24 1_555 1_555
C23 C26 1_555 1_555

#END
