
#######################################################################
#
#                 Cambridge Crystallographic Data Centre
#                                CCDC 
#
#######################################################################
#
# If this CIF has been generated from an entry in the Cambridge 
# Structural Database, then it will include bibliographic, chemical, 
# crystal, experimental, refinement or atomic coordinate data resulting 
# from the CCDC's data processing and validation procedures.
#
#######################################################################

data_KUWFOZ
_symmetry_cell_setting           orthorhombic
_symmetry_space_group_name_H-M   'P n a 21'
_symmetry_Int_Tables_number      33
_space_group_name_Hall           'P 2c -2n'
loop_
_symmetry_equiv_pos_site_id
_symmetry_equiv_pos_as_xyz
1 x,y,z
2 -x,-y,1/2+z
3 1/2-x,1/2+y,1/2+z
4 1/2+x,1/2-y,z
_cell_length_a                   18.023(3)
_cell_length_b                   11.862(2)
_cell_length_c                   13.824(3)
_cell_angle_alpha                90
_cell_angle_beta                 90
_cell_angle_gamma                90
_cell_volume                     2955.42
loop_
_atom_site_label
_atom_site_type_symbol
_atom_site_fract_x
_atom_site_fract_y
_atom_site_fract_z
Ni1 Ni 0.60800(3) -0.35776(4) 0.16289(5)
N1 N 0.6175(2) 0.5064(3) 0.2559(3)
N2 N 0.6546(3) 0.3448(3) 0.3151(3)
N3 N 1.0070(2) -0.0819(3) 0.1206(3)
N4 N 0.9155(2) 0.0341(3) 0.0915(3)
N5 N 0.5975(2) -0.2217(3) 0.0732(3)
N6 N 0.5959(2) -0.0493(4) 0.0158(3)
O1 O 0.57030(18) -0.2540(3) 0.2842(2)
O2 O 0.68781(17) -0.2605(3) 0.2496(3)
O3 O 0.8654(2) -0.0142(4) 0.4485(4)
O4 O 0.81702(19) 0.0693(3) 0.5760(3)
C1 C 0.6363(3) -0.2228(4) 0.3008(4)
C2 C 0.6511(3) -0.1417(4) 0.3802(4)
C3 C 0.5930(3) -0.0999(5) 0.4357(4)
H1 H 0.5446 -0.1214 0.4216
C4 C 0.6060(3) -0.0287(6) 0.5097(5)
H2 H 0.5664 -0.0037 0.5472
C5 C 0.6759(3) 0.0077(5) 0.5308(4)
H3 H 0.6837 0.0578 0.5815
C6 C 0.7356(3) -0.0305(4) 0.4762(4)
C7 C 0.7222(3) -0.1041(4) 0.4009(4)
H4 H 0.7617 -0.1290 0.3633
C8 C 0.8134(3) 0.0106(4) 0.5019(4)
C9 C 0.6125(3) -0.1167(4) 0.0909(4)
H5 H 0.6325 -0.0910 0.1489
C10 C 0.5709(3) -0.2234(5) -0.0188(4)
H6 H 0.5559 -0.2876 -0.0522
C11 C 0.5698(3) -0.1162(5) -0.0546(5)
H7 H 0.5540 -0.0939 -0.1158
C12 C 0.6055(3) 0.0739(4) 0.0120(5)
H8 H 0.5597 0.1101 0.0320
H9 H 0.6157 0.0964 -0.0541
C13 C 0.5939(3) 0.3752(5) 0.3674(5)
H10 H 0.5724 0.3357 0.4182
C14 C 0.5716(3) 0.4744(5) 0.3301(4)
H11 H 0.5308 0.5154 0.3516
C15 C 0.6670(3) 0.4254(4) 0.2501(4)
H12 H 0.7060 0.4244 0.2059
C16 C 0.6970(4) 0.2389(5) 0.3243(5)
H13 H 0.6685 0.1847 0.3614
H14 H 0.7430 0.2533 0.3585
C17 C 0.9411(3) -0.1342(4) 0.1391(4)
H15 H 0.9363 -0.2080 0.1611
C18 C 0.8847(3) -0.0651(5) 0.1212(4)
H16 H 0.8344 -0.0810 0.1277
C19 C 0.9882(2) 0.0185(4) 0.0908(4)
H17 H 1.0221 0.0730 0.0712
C20 C 0.8763(3) 0.1353(4) 0.0580(5)
H18 H 0.8743 0.1347 -0.0121
H19 H 0.9039 0.2016 0.0778
C21 C 0.7981(3) 0.1425(4) 0.0978(4)
C22 C 0.7859(3) 0.1865(4) 0.1886(4)
C23 C 0.7137(3) 0.1913(4) 0.2255(4)
C24 C 0.6541(2) 0.1539(3) 0.1682(6)
C25 C 0.6676(3) 0.1131(4) 0.0760(4)
C26 C 0.7400(3) 0.1049(4) 0.0416(4)
C27 C 0.7544(3) 0.0504(5) -0.0555(4)
H20 H 0.8004 0.0097 -0.0532
H21 H 0.7571 0.1075 -0.1046
H22 H 0.7147 -0.0007 -0.0704
C28 C 0.8499(4) 0.2247(7) 0.2509(6)
H23 H 0.8604 0.1682 0.2987
H24 H 0.8371 0.2941 0.2824
H25 H 0.8929 0.2361 0.2111
C29 C 0.5757(3) 0.1578(5) 0.2082(5)
H26 H 0.5547 0.2308 0.1964
H27 H 0.5769 0.1437 0.2766
H28 H 0.5461 0.1013 0.1770
Ni1_2 Ni 0.60800(3) 0.64224(4) 0.16289(5)
Ni1B Ni 0.89200(3) 0.14224(4) 0.66289(5)
Ni1C Ni 1.10800(3) -0.14224(4) 0.16289(5)
N1_2 N 0.6175(2) -0.4936(3) 0.2559(3)
N3C N 0.5070(2) -0.4181(3) 0.1206(3)
O4B O 0.68298(19) -0.4307(3) 0.0760(3)
O5 O 0.3364(2) 0.8216(4) 0.2524(4)
H29 H 0.3661 0.7824 0.2992
H30 H 0.2862 0.7953 0.2566
O6 O 0.5713(3) 0.2903(4) 0.8888(4)
H31 H 0.5897 0.3631 0.9073
H32 H 0.5249 0.3009 0.8561
O7 O 0.9638(3) 0.5564(4) 0.2410(5)
H33 H 0.9772 0.5986 0.1944
H34 H 0.9210 0.5273 0.2354
loop_
_geom_bond_atom_site_label_1
_geom_bond_atom_site_label_2
_geom_bond_site_symmetry_1
_geom_bond_site_symmetry_2
Ni1 N5 1_555 1_555
N1 C14 1_555 1_555
N2 C13 1_555 1_555
N3 C17 1_555 1_555
N4 C18 1_555 1_555
N5 C9 1_555 1_555
N6 C9 1_555 1_555
O1 Ni1 1_555 1_555
O2 Ni1 1_555 1_555
O3 C8 1_555 1_555
O4 C8 1_555 1_555
C1 O1 1_555 1_555
C2 C1 1_555 1_555
C3 C2 1_555 1_555
H1 C3 1_555 1_555
C4 C3 1_555 1_555
H2 C4 1_555 1_555
C5 C4 1_555 1_555
H3 C5 1_555 1_555
C6 C5 1_555 1_555
C7 C2 1_555 1_555
H4 C7 1_555 1_555
C8 C6 1_555 1_555
C9 H5 1_555 1_555
C10 N5 1_555 1_555
H6 C10 1_555 1_555
C11 N6 1_555 1_555
H7 C11 1_555 1_555
C12 N6 1_555 1_555
H8 C12 1_555 1_555
H9 C12 1_555 1_555
C13 H10 1_555 1_555
C14 C13 1_555 1_555
H11 C14 1_555 1_555
C15 N1 1_555 1_555
H12 C15 1_555 1_555
C16 N2 1_555 1_555
H13 C16 1_555 1_555
H14 C16 1_555 1_555
C17 H15 1_555 1_555
C18 C17 1_555 1_555
H16 C18 1_555 1_555
C19 N3 1_555 1_555
H17 C19 1_555 1_555
C20 N4 1_555 1_555
H18 C20 1_555 1_555
H19 C20 1_555 1_555
C21 C20 1_555 1_555
C22 C21 1_555 1_555
C23 C16 1_555 1_555
C24 C23 1_555 1_555
C25 C12 1_555 1_555
C26 C21 1_555 1_555
C27 C26 1_555 1_555
H20 C27 1_555 1_555
H21 C27 1_555 1_555
H22 C27 1_555 1_555
C28 C22 1_555 1_555
H23 C28 1_555 1_555
H24 C28 1_555 1_555
H25 C28 1_555 1_555
C29 C24 1_555 1_555
H26 C29 1_555 1_555
H27 C29 1_555 1_555
H28 C29 1_555 1_555
O5 H29 1_555 1_555
H30 O5 1_555 1_555
O6 H31 1_555 1_555
H32 O6 1_555 1_555
O7 H33 1_555 1_555
H34 O7 1_555 1_555
Ni1_2 N1 1_555 1_555
Ni1B O4 1_555 1_555
Ni1C N3 1_555 1_555
N1_2 Ni1 1_555 1_555
N3C Ni1 1_555 1_555
O4B Ni1 1_555 1_555
N2 C15 1_555 1_555
N4 C19 1_555 1_555
O2 C1 1_555 1_555
C6 C7 1_555 1_555
C10 C11 1_555 1_555
C22 C23 1_555 1_555
C24 C25 1_555 1_555
C25 C26 1_555 1_555

#END
