
#######################################################################
#
#                 Cambridge Crystallographic Data Centre
#                                CCDC 
#
#######################################################################
#
# If this CIF has been generated from an entry in the Cambridge 
# Structural Database, then it will include bibliographic, chemical, 
# crystal, experimental, refinement or atomic coordinate data resulting 
# from the CCDC's data processing and validation procedures.
#
#######################################################################

data_KUWJIX
_symmetry_cell_setting           orthorhombic
_symmetry_space_group_name_H-M   'P 21 21 21'
_symmetry_Int_Tables_number      19
_space_group_name_Hall           'P 2ac 2ab'
loop_
_symmetry_equiv_pos_site_id
_symmetry_equiv_pos_as_xyz
1 x,y,z
2 1/2-x,-y,1/2+z
3 -x,1/2+y,1/2-z
4 1/2+x,1/2-y,-z
_cell_length_a                   8.1003(7)
_cell_length_b                   8.6911(7)
_cell_length_c                   20.2616(17)
_cell_angle_alpha                90
_cell_angle_beta                 90
_cell_angle_gamma                90
_cell_volume                     1426.43
loop_
_atom_site_label
_atom_site_type_symbol
_atom_site_fract_x
_atom_site_fract_y
_atom_site_fract_z
Cu1 Cu 1.18399(4) 0.04600(3) 0.95554(2)
S1 S 1.04308(9) -0.12506(8) 1.07552(3)
O1 O 0.9544(2) 0.4324(2) 1.01873(10)
O2 O 1.1691(2) -0.1251(2) 1.01933(9)
O3 O 0.9696(3) -0.1079(3) 0.88053(11)
O4 O 1.2322(3) -0.1046(2) 0.88523(9)
N1 N 1.1453(3) 0.2166(3) 0.89159(11)
N2 N 1.0971(3) 0.2005(3) 1.01865(11)
N3 N 1.1000(4) -0.1607(3) 0.85860(12)
C1 C 1.1804(4) 0.2188(3) 0.82684(13)
H1 H 1.2424 0.1367 0.8083
C2 C 1.1285(4) 0.3380(4) 0.78621(14)
H2 H 1.1554 0.3376 0.7406
C3 C 1.0380(4) 0.4561(4) 0.81253(14)
H3 H 1.0013 0.5381 0.7852
C4 C 1.0002(3) 0.4552(4) 0.87962(14)
H4 H 0.9383 0.5363 0.8989
C5 C 1.0558(3) 0.3323(3) 0.91751(13)
C6 C 1.0306(3) 0.3264(3) 0.99119(13)
C7 C 1.1010(3) 0.1902(3) 1.08855(13)
C8 C 1.1432(3) 0.3163(3) 1.12786(14)
H5 H 1.1641 0.4133 1.1079
C9 C 1.1549(4) 0.3005(4) 1.19616(14)
H6 H 1.1842 0.3871 1.2223
C10 C 1.1245(4) 0.1603(4) 1.22665(15)
H7 H 1.1288 0.1517 1.2734
C11 C 1.0879(4) 0.0340(4) 1.18846(13)
H8 H 1.0710 -0.0633 1.2087
C12 C 1.0757(3) 0.0485(3) 1.11986(12)
C13 C 0.8494(3) -0.0883(3) 1.03867(16)
H9 H 0.8261 -0.1675 1.0055
H10 H 0.8514 0.0130 1.0174
H11 H 0.7632 -0.0900 1.0726
Cu1C Cu 0.68399(4) 0.45400(3) 1.04446(2)
O1C O 1.4544(2) 0.0676(2) 0.98127(10)
loop_
_geom_bond_atom_site_label_1
_geom_bond_atom_site_label_2
_geom_bond_site_symmetry_1
_geom_bond_site_symmetry_2
Cu1 O2 1_555 1_555
S1 O2 1_555 1_555
O1 C6 1_555 1_555
O3 Cu1 1_555 1_555
O4 Cu1 1_555 1_555
N1 Cu1 1_555 1_555
N2 Cu1 1_555 1_555
N3 O3 1_555 1_555
C1 N1 1_555 1_555
H1 C1 1_555 1_555
C2 C1 1_555 1_555
H2 C2 1_555 1_555
C3 C2 1_555 1_555
H3 C3 1_555 1_555
C4 C3 1_555 1_555
H4 C4 1_555 1_555
C5 N1 1_555 1_555
C6 N2 1_555 1_555
C7 N2 1_555 1_555
C8 C7 1_555 1_555
H5 C8 1_555 1_555
C9 C8 1_555 1_555
H6 C9 1_555 1_555
C10 C9 1_555 1_555
H7 C10 1_555 1_555
C11 C10 1_555 1_555
H8 C11 1_555 1_555
C12 S1 1_555 1_555
C13 S1 1_555 1_555
H9 C13 1_555 1_555
H10 C13 1_555 1_555
H11 C13 1_555 1_555
Cu1C O1 1_555 1_555
O1C Cu1 1_555 1_555
O4 N3 1_555 1_555
C4 C5 1_555 1_555
C5 C6 1_555 1_555
C7 C12 1_555 1_555
C11 C12 1_555 1_555

#END
