
#######################################################################
#
#                 Cambridge Crystallographic Data Centre
#                                CCDC 
#
#######################################################################
#
# If this CIF has been generated from an entry in the Cambridge 
# Structural Database, then it will include bibliographic, chemical, 
# crystal, experimental, refinement or atomic coordinate data resulting 
# from the CCDC's data processing and validation procedures.
#
#######################################################################

data_KUWJUJ
_symmetry_cell_setting           triclinic
_symmetry_space_group_name_H-M   'P 1'
_symmetry_Int_Tables_number      1
_space_group_name_Hall           'P 1'
loop_
_symmetry_equiv_pos_site_id
_symmetry_equiv_pos_as_xyz
1 x,y,z
_cell_length_a                   7.77240(14)
_cell_length_b                   9.2706(17)
_cell_length_c                   10.851(2)
_cell_angle_alpha                105.763(2)
_cell_angle_beta                 101.288(2)
_cell_angle_gamma                90.422(3)
_cell_volume                     736.388
loop_
_atom_site_label
_atom_site_type_symbol
_atom_site_fract_x
_atom_site_fract_y
_atom_site_fract_z
Cu1 Cu 0.95780(4) 0.69383(4) 0.97579(3)
Cu2 Cu 0.50184(4) 0.33589(4) 1.14002(3)
S1 S 0.86545(11) 0.92235(9) 1.21121(8)
S2 S 0.28052(11) 0.09955(10) 0.90908(8)
O1 O 0.9788(4) 0.8900(3) 1.1068(3)
O2 O 0.7556(3) 0.3516(3) 1.0780(3)
O3 O 0.4491(4) 0.1345(3) 1.0156(3)
O4 O 0.2471(3) 0.6692(3) 1.0225(3)
O5 O 0.9856(4) 0.8031(3) 0.8452(2)
O6 O 0.8267(5) 0.9297(3) 0.7293(3)
O7 O 0.6992(4) 0.7983(4) 0.8274(3)
O8 O 0.6160(4) 0.2362(3) 1.2723(3)
O9 O 0.5381(5) 0.0964(3) 1.3864(3)
O10 O 0.3397(4) 0.2134(4) 1.2882(3)
N1 N 0.8802(4) 0.5006(3) 0.8396(3)
N2 N 0.8870(4) 0.5823(3) 1.0910(3)
N3 N 0.4858(4) 0.5282(3) 1.2726(3)
N4 N 0.3704(4) 0.4418(3) 1.0194(3)
N5 N 0.8318(5) 0.8453(3) 0.7996(3)
N6 N 0.4927(5) 0.1806(3) 1.3172(3)
C1 C 0.8843(5) 0.4671(4) 0.7124(4)
H1 H 0.9361 0.5387 0.6802
C2 C 0.8145(5) 0.3302(4) 0.6262(3)
H2 H 0.8195 0.3079 0.5362
C3 C 0.7374(5) 0.2264(4) 0.6731(4)
H3 H 0.6879 0.1323 0.6157
C4 C 0.7336(5) 0.2620(4) 0.8052(3)
H4 H 0.6818 0.1927 0.8398
C5 C 0.8064(4) 0.3998(4) 0.8854(3)
C6 C 0.8145(4) 0.4438(4) 1.0298(3)
C7 C 0.9227(4) 0.6310(4) 1.2290(3)
C8 C 0.9808(5) 0.5339(4) 1.3046(4)
H5 H 0.9916 0.4310 1.2631
C9 C 1.0228(5) 0.5867(5) 1.4398(4)
H6 H 1.0644 0.5194 1.4896
C10 C 1.0054(6) 0.7348(5) 1.5039(4)
H7 H 1.0308 0.7681 1.5968
C11 C 0.9506(5) 0.8344(5) 1.4312(3)
H8 H 0.9408 0.9372 1.4738
C12 C 0.9099(5) 0.7818(4) 1.2946(3)
C13 C 0.6433(5) 0.8718(4) 1.1248(4)
H9 H 0.6043 0.9442 1.0757
H10 H 0.5677 0.8724 1.1873
H11 H 0.6363 0.7711 1.0639
C14 C 0.5479(5) 0.5640(5) 1.4018(4)
H12 H 0.6156 0.4945 1.4375
C15 C 0.5167(5) 0.6995(4) 1.4857(4)
H13 H 0.5608 0.7220 1.5773
C16 C 0.4196(5) 0.8013(4) 1.4325(4)
H14 H 0.3980 0.8954 1.4873
C17 C 0.3543(5) 0.7642(4) 1.2983(4)
H15 H 0.2870 0.8319 1.2600
C18 C 0.3894(4) 0.6270(4) 1.2221(3)
C19 C 0.3273(4) 0.5792(4) 1.0759(3)
C20 C 0.3354(4) 0.3870(4) 0.8823(3)
C21 C 0.3582(5) 0.4780(4) 0.8019(4)
H16 H 0.3922 0.5817 0.8400
C22 C 0.3317(5) 0.4183(5) 0.6668(4)
H17 H 0.3489 0.4819 0.6142
C23 C 0.2805(5) 0.2675(5) 0.6074(4)
H18 H 0.2604 0.2284 0.5150
C24 C 0.2594(5) 0.1757(5) 0.6843(4)
H19 H 0.2266 0.0720 0.6452
C25 C 0.2862(5) 0.2348(4) 0.8202(3)
C26 C 0.1039(5) 0.1546(4) 0.9900(4)
H20 H 0.0927 0.0897 1.0463
H21 H -0.0056 0.1452 0.9249
H22 H 0.1270 0.2591 1.0436
Cu1_2 Cu -0.04220(4) 0.69383(4) 0.97579(3)
O4_2 O 1.2471(3) 0.6692(3) 1.0225(3)
loop_
_geom_bond_atom_site_label_1
_geom_bond_atom_site_label_2
_geom_bond_site_symmetry_1
_geom_bond_site_symmetry_2
Cu1 O1 1_555 1_555
Cu2 O2 1_555 1_555
S1 O1 1_555 1_555
S2 O3 1_555 1_555
O2 C6 1_555 1_555
O3 Cu2 1_555 1_555
O4 C19 1_555 1_555
O5 Cu1 1_555 1_555
O6 N5 1_555 1_555
O7 Cu1 1_555 1_555
O8 Cu2 1_555 1_555
O9 N6 1_555 1_555
O10 Cu2 1_555 1_555
N1 Cu1 1_555 1_555
N2 Cu1 1_555 1_555
N3 Cu2 1_555 1_555
N4 Cu2 1_555 1_555
N5 O5 1_555 1_555
N6 O8 1_555 1_555
C1 N1 1_555 1_555
H1 C1 1_555 1_555
C2 C1 1_555 1_555
H2 C2 1_555 1_555
C3 C2 1_555 1_555
H3 C3 1_555 1_555
C4 C3 1_555 1_555
H4 C4 1_555 1_555
C5 N1 1_555 1_555
C6 N2 1_555 1_555
C7 N2 1_555 1_555
C8 C7 1_555 1_555
H5 C8 1_555 1_555
C9 C8 1_555 1_555
H6 C9 1_555 1_555
C10 C9 1_555 1_555
H7 C10 1_555 1_555
C11 C10 1_555 1_555
H8 C11 1_555 1_555
C12 S1 1_555 1_555
C13 S1 1_555 1_555
H9 C13 1_555 1_555
H10 C13 1_555 1_555
H11 C13 1_555 1_555
C14 N3 1_555 1_555
H12 C14 1_555 1_555
C15 C14 1_555 1_555
H13 C15 1_555 1_555
C16 C15 1_555 1_555
H14 C16 1_555 1_555
C17 C16 1_555 1_555
H15 C17 1_555 1_555
C18 N3 1_555 1_555
C19 N4 1_555 1_555
C20 N4 1_555 1_555
C21 C20 1_555 1_555
H16 C21 1_555 1_555
C22 C21 1_555 1_555
H17 C22 1_555 1_555
C23 C22 1_555 1_555
H18 C23 1_555 1_555
C24 C23 1_555 1_555
H19 C24 1_555 1_555
C25 S2 1_555 1_555
C26 S2 1_555 1_555
H20 C26 1_555 1_555
H21 C26 1_555 1_555
H22 C26 1_555 1_555
Cu1_2 O4 1_555 1_555
O4_2 Cu1 1_555 1_555
O7 N5 1_555 1_555
O10 N6 1_555 1_555
C4 C5 1_555 1_555
C5 C6 1_555 1_555
C7 C12 1_555 1_555
C11 C12 1_555 1_555
C17 C18 1_555 1_555
C18 C19 1_555 1_555
C20 C25 1_555 1_555
C24 C25 1_555 1_555

#END
