
#######################################################################
#
#                 Cambridge Crystallographic Data Centre
#                                CCDC 
#
#######################################################################
#
# If this CIF has been generated from an entry in the Cambridge 
# Structural Database, then it will include bibliographic, chemical, 
# crystal, experimental, refinement or atomic coordinate data resulting 
# from the CCDC's data processing and validation procedures.
#
#######################################################################

data_KUWJOD
_symmetry_cell_setting           orthorhombic
_symmetry_space_group_name_H-M   'P 21 21 21'
_symmetry_Int_Tables_number      19
_space_group_name_Hall           'P 2ac 2ab'
loop_
_symmetry_equiv_pos_site_id
_symmetry_equiv_pos_as_xyz
1 x,y,z
2 1/2-x,-y,1/2+z
3 -x,1/2+y,1/2-z
4 1/2+x,1/2-y,-z
_cell_length_a                   7.102(5)
_cell_length_b                   9.142(5)
_cell_length_c                   20.9440(12)
_cell_angle_alpha                90
_cell_angle_beta                 90
_cell_angle_gamma                90
_cell_volume                     1359.82
loop_
_atom_site_label
_atom_site_type_symbol
_atom_site_fract_x
_atom_site_fract_y
_atom_site_fract_z
Cu1 Cu -0.21899(2) 0.427380(15) 1.049729(6)
N1 N -0.16681(14) 0.28705(11) 1.12182(5)
N2 N -0.13500(14) 0.26263(11) 0.99896(5)
N3 N -0.18393(16) 0.66261(11) 1.13242(5)
O1 O 0.02626(11) 0.04220(9) 1.00670(4)
O2 O -0.31081(12) 0.58743(9) 1.10207(4)
O3 O -0.23982(16) 0.76083(10) 1.16809(4)
O4 O -0.01570(14) 0.63182(12) 1.12477(5)
S1 S -0.02265(4) 0.55612(3) 0.971343(14)
C1 C -0.18978(17) 0.30755(13) 1.18420(6)
H1 H -0.2425 0.3972 1.1986
C2 C -0.13939(17) 0.20247(15) 1.22912(6)
H2 H -0.1540 0.2207 1.2735
C3 C -0.06751(16) 0.07080(16) 1.20756(6)
H3 H -0.0354 -0.0040 1.2371
C4 C -0.04238(16) 0.04828(13) 1.14222(6)
H4 H 0.0075 -0.0413 1.1267
C5 C -0.09180(16) 0.15929(13) 1.10066(6)
C6 C -0.06302(16) 0.14856(12) 1.02978(6)
C7 C -0.11840(16) 0.28251(13) 0.93257(6)
C8 C -0.15772(18) 0.17302(14) 0.88773(6)
H5 H -0.1897 0.0772 0.9015
C9 C -0.14966(18) 0.20545(14) 0.82295(6)
H6 H -0.1789 0.1319 0.7925
C10 C -0.09888(18) 0.34524(15) 0.80219(6)
H7 H -0.0917 0.3658 0.7578
C11 C -0.05898(16) 0.45408(14) 0.84637(6)
H8 H -0.0226 0.5488 0.8323
C12 C -0.07250(15) 0.42385(14) 0.91115(5)
C13 C -0.15659(19) 0.71401(13) 0.94564(7)
H9 H -0.1117 0.7459 0.9036
H10 H -0.1404 0.7935 0.9765
H11 H -0.2902 0.6880 0.9428
Cu1C Cu 0.28101(2) 0.072620(15) 0.950271(6)
O1C O -0.47374(11) 0.45780(9) 0.99330(4)
loop_
_geom_bond_atom_site_label_1
_geom_bond_atom_site_label_2
_geom_bond_site_symmetry_1
_geom_bond_site_symmetry_2
Cu1 N1 1_555 1_555
N1 C1 1_555 1_555
N2 Cu1 1_555 1_555
N3 O2 1_555 1_555
O1 C6 1_555 1_555
O2 Cu1 1_555 1_555
O3 N3 1_555 1_555
O4 Cu1 1_555 1_555
S1 Cu1 1_555 1_555
C1 H1 1_555 1_555
C2 C1 1_555 1_555
H2 C2 1_555 1_555
C3 C2 1_555 1_555
H3 C3 1_555 1_555
C4 C3 1_555 1_555
H4 C4 1_555 1_555
C5 N1 1_555 1_555
C6 N2 1_555 1_555
C7 N2 1_555 1_555
C8 C7 1_555 1_555
H5 C8 1_555 1_555
C9 C8 1_555 1_555
H6 C9 1_555 1_555
C10 C9 1_555 1_555
H7 C10 1_555 1_555
C11 C10 1_555 1_555
H8 C11 1_555 1_555
C12 S1 1_555 1_555
C13 S1 1_555 1_555
H9 C13 1_555 1_555
H10 C13 1_555 1_555
H11 C13 1_555 1_555
Cu1C O1 1_555 1_555
O1C Cu1 1_555 1_555
N3 O4 1_555 1_555
C4 C5 1_555 1_555
C5 C6 1_555 1_555
C7 C12 1_555 1_555
C11 C12 1_555 1_555

#END
