
#######################################################################
#
#                 Cambridge Crystallographic Data Centre
#                                CCDC 
#
#######################################################################
#
# If this CIF has been generated from an entry in the Cambridge 
# Structural Database, then it will include bibliographic, chemical, 
# crystal, experimental, refinement or atomic coordinate data resulting 
# from the CCDC's data processing and validation procedures.
#
#######################################################################

data_KUWKES
_symmetry_cell_setting           monoclinic
_symmetry_space_group_name_H-M   'P 21/n'
_symmetry_Int_Tables_number      14
_space_group_name_Hall           '-P 2yn'
loop_
_symmetry_equiv_pos_site_id
_symmetry_equiv_pos_as_xyz
1 x,y,z
2 1/2-x,1/2+y,1/2-z
3 -x,-y,-z
4 1/2+x,1/2-y,1/2+z
_cell_length_a                   15.070(8)
_cell_length_b                   7.230(4)
_cell_length_c                   19.165(10)
_cell_angle_alpha                90
_cell_angle_beta                 96.86(1)
_cell_angle_gamma                90
_cell_volume                     2073.19
loop_
_atom_site_label
_atom_site_type_symbol
_atom_site_fract_x
_atom_site_fract_y
_atom_site_fract_z
Cu1 Cu -0.32185(5) 0.15490(10) 0.12006(4)
O1 O -0.5330(3) 0.1132(6) 0.3873(2)
O2 O -0.4053(2) 0.1920(6) 0.1878(2)
O3 O -0.2408(2) -0.0354(6) 0.3956(2)
O4 O -0.2594(2) 0.0260(7) 0.0547(2)
O5 O -0.1455(3) -0.0693(7) 0.0036(2)
N1 N -0.3844(3) 0.0536(7) 0.3933(2)
N2 N -0.4666(3) 0.1603(7) 0.2883(2)
N3 N -0.2331(3) 0.0767(7) 0.2617(2)
N4 N -0.2268(3) 0.1068(6) 0.1962(2)
N5 N -0.4170(3) 0.2155(7) 0.0409(2)
C1 C -0.3828(5) 0.0040(1) 0.4680(3)
C2 C -0.4662(4) 0.1093(8) 0.3580(3)
C3 C -0.5533(4) 0.2180(10) 0.2500(4)
C4 C -0.3943(3) 0.1487(8) 0.2513(3)
C5 C -0.3118(3) 0.0866(8) 0.2883(3)
C6 C -0.3071(3) 0.0307(8) 0.3613(3)
C7 C -0.1354(3) 0.1137(8) 0.1816(3)
C8 C -0.1116(3) 0.0653(8) 0.1156(3)
C9 C -0.0212(4) 0.0790(10) 0.1052(3)
C10 C 0.0425(4) 0.1430(10) 0.1576(3)
C11 C 0.0177(4) 0.1950(10) 0.2215(3)
C12 C -0.0704(4) 0.1800(9) 0.2337(3)
C13 C -0.1754(4) 0.0011(9) 0.0543(3)
C14 C -0.5046(4) 0.2070(10) 0.0463(3)
C15 C -0.5690(4) 0.2570(10) -0.0080(4)
C16 C -0.5424(5) 0.3170(10) -0.0692(4)
C17 C -0.4519(5) 0.3230(10) -0.0765(3)
C18 C -0.3919(4) 0.2710(10) -0.0204(3)
H1 H -0.415(5) 0.100(10) 0.496(4)
H2 H -0.410(4) -0.092(9) 0.476(3)
H3 H -0.322(5) -0.010(10) 0.490(4)
H4 H -0.541(4) 0.308(9) 0.208(3)
H5 H -0.578(5) 0.120(10) 0.227(4)
H6 H -0.593(4) 0.258(9) 0.282(3)
H7 H -0.005(3) 0.048(8) 0.059(3)
H8 H 0.106(4) 0.151(9) 0.145(3)
H9 H 0.067(4) 0.252(8) 0.260(3)
H10 H -0.089(3) 0.224(8) 0.279(3)
H11 H -0.515(4) 0.178(9) 0.095(3)
H12 H -0.636(4) 0.235(9) 0.002(3)
H13 H -0.578(4) 0.351(9) -0.105(3)
H14 H -0.427(4) 0.373(9) -0.119(3)
H15 H -0.320(3) 0.277(8) -0.019(3)
O3A O -0.2592(2) 0.4646(6) 0.1044(2)
Cu1A Cu -0.17815(5) -0.34510(10) 0.37994(4)
O6 O -0.2760(3) -0.1639(8) -0.1068(2)
H16 H -0.2673 -0.2633 -0.118
H17 H -0.2376 -0.1181 -0.0638
O7 O -0.7179(3) -0.1301(8) 0.2012(3)
H18 H -0.7587 -0.0708 0.2237
H19 H -0.7163 -0.0578 0.155
O8 O -0.7224(3) 0.0136(8) 0.3419(3)
H20 H -0.6685 0.0472 0.3651
H21 H -0.709 -0.0577 0.3015
loop_
_geom_bond_atom_site_label_1
_geom_bond_atom_site_label_2
_geom_bond_site_symmetry_1
_geom_bond_site_symmetry_2
Cu1 O2 1_555 1_555
O1 C2 1_555 1_555
O2 C4 1_555 1_555
O3 C6 1_555 1_555
O4 Cu1 1_555 1_555
O5 C13 1_555 1_555
N1 C1 1_555 1_555
N2 C2 1_555 1_555
N3 N4 1_555 1_555
N4 Cu1 1_555 1_555
N5 Cu1 1_555 1_555
C1 H1 1_555 1_555
C2 N1 1_555 1_555
C3 N2 1_555 1_555
C4 N2 1_555 1_555
C5 N3 1_555 1_555
C6 N1 1_555 1_555
C7 N4 1_555 1_555
C8 C7 1_555 1_555
C9 C8 1_555 1_555
C10 C9 1_555 1_555
C11 C10 1_555 1_555
C12 C7 1_555 1_555
C13 O4 1_555 1_555
C14 N5 1_555 1_555
C15 C14 1_555 1_555
C16 C15 1_555 1_555
C17 C16 1_555 1_555
C18 N5 1_555 1_555
O6 H16 1_555 1_555
O7 H18 1_555 1_555
O8 H20 1_555 1_555
H2 C1 1_555 1_555
H3 C1 1_555 1_555
H4 C3 1_555 1_555
H5 C3 1_555 1_555
H6 C3 1_555 1_555
H7 C9 1_555 1_555
H8 C10 1_555 1_555
H9 C11 1_555 1_555
H10 C12 1_555 1_555
H11 C14 1_555 1_555
H12 C15 1_555 1_555
H13 C16 1_555 1_555
H14 C17 1_555 1_555
H15 C18 1_555 1_555
H17 O6 1_555 1_555
H19 O7 1_555 1_555
H21 O8 1_555 1_555
O3A Cu1 1_555 1_555
Cu1A O3 1_555 1_555
C4 C5 1_555 1_555
C5 C6 1_555 1_555
C8 C13 1_555 1_555
C11 C12 1_555 1_555
C17 C18 1_555 1_555

#END
