
#######################################################################
#
#                 Cambridge Crystallographic Data Centre
#                                CCDC 
#
#######################################################################
#
# If this CIF has been generated from an entry in the Cambridge 
# Structural Database, then it will include bibliographic, chemical, 
# crystal, experimental, refinement or atomic coordinate data resulting 
# from the CCDC's data processing and validation procedures.
#
#######################################################################

data_KUWKAQ
_symmetry_cell_setting           monoclinic
_symmetry_space_group_name_H-M   'P 21'
_symmetry_Int_Tables_number      4
_space_group_name_Hall           'P 2yb'
loop_
_symmetry_equiv_pos_site_id
_symmetry_equiv_pos_as_xyz
1 x,y,z
2 -x,1/2+y,-z
_cell_length_a                   8.8284(12)
_cell_length_b                   8.0746(11)
_cell_length_c                   12.3897(16)
_cell_angle_alpha                90
_cell_angle_beta                 99.540(2)
_cell_angle_gamma                90
_cell_volume                     870.995
loop_
_atom_site_label
_atom_site_type_symbol
_atom_site_fract_x
_atom_site_fract_y
_atom_site_fract_z
Cu1 Cu 0.37672(3) 0.86587(3) 0.63067(2)
S1 S 0.10096(6) 0.67507(6) 0.50042(4)
O1 O 0.65262(17) 0.60168(19) 0.46407(12)
O2 O 0.15519(17) 0.81058(18) 0.58470(12)
N1 N 0.5947(2) 0.8242(2) 0.70044(14)
N2 N 0.44212(19) 0.7456(2) 0.50863(14)
N3 N 0.3181(2) 0.9730(2) 0.76158(15)
C1 C 0.6653(2) 0.8693(3) 0.80028(15)
H1 H 0.6125 0.9386 0.8437
C2 C 0.8140(3) 0.8175(3) 0.84216(18)
H2 H 0.8631 0.8542 0.9121
C3 C 0.8892(3) 0.7123(3) 0.78097(18)
H3 H 0.9898 0.6739 0.8088
C4 C 0.8153(2) 0.6631(3) 0.67756(17)
H4 H 0.8642 0.5902 0.6339
C5 C 0.6688(2) 0.7232(2) 0.64012(16)
C6 C 0.5845(2) 0.6828(2) 0.52712(16)
C7 C 0.3559(2) 0.7403(2) 0.40159(16)
C8 C 0.4196(2) 0.7763(3) 0.30804(18)
H5 H 0.5266 0.7975 0.3149
C9 C 0.3281(3) 0.7814(3) 0.20510(18)
H6 H 0.3736 0.8046 0.1424
C10 C 0.1704(3) 0.7528(3) 0.19309(18)
H7 H 0.1087 0.7566 0.1226
C11 C 0.1041(2) 0.7187(3) 0.28460(17)
H8 H -0.0035 0.7010 0.2774
C12 C 0.1967(2) 0.7106(3) 0.38734(16)
C13 C 0.1883(2) 0.4859(3) 0.55491(18)
H9 H 0.1588 0.3958 0.5027
H10 H 0.1536 0.4601 0.6242
H11 H 0.3003 0.4983 0.5677
C14 C 0.2828(2) 1.0089(3) 0.84324(18)
C15 C 0.2377(3) 1.0546(3) 0.94635(19)
H12 H 0.1548 0.9816 0.9610
H13 H 0.2017 1.1696 0.9425
H14 H 0.3260 1.0436 1.0053
Cu1A Cu 0.62328(3) 0.36587(3) 0.36933(2)
O1A O 0.34738(17) 1.10168(19) 0.53593(12)
Cl1 Cl 0.31003(6) 0.52253(6) 0.88398(4)
O3 O 0.3917(2) 0.5927(2) 0.80377(15)
O4 O 0.1878(2) 0.4184(2) 0.82976(15)
O5 O 0.2449(2) 0.6531(3) 0.94178(16)
O6 O 0.4145(2) 0.4241(2) 0.96064(14)
loop_
_geom_bond_atom_site_label_1
_geom_bond_atom_site_label_2
_geom_bond_site_symmetry_1
_geom_bond_site_symmetry_2
Cu1 O2 1_555 1_555
S1 O2 1_555 1_555
O1 C6 1_555 1_555
N1 Cu1 1_555 1_555
N2 Cu1 1_555 1_555
N3 Cu1 1_555 1_555
C1 N1 1_555 1_555
H1 C1 1_555 1_555
C2 C1 1_555 1_555
H2 C2 1_555 1_555
C3 C2 1_555 1_555
H3 C3 1_555 1_555
C4 C3 1_555 1_555
H4 C4 1_555 1_555
C5 N1 1_555 1_555
C6 N2 1_555 1_555
C7 N2 1_555 1_555
C8 C7 1_555 1_555
H5 C8 1_555 1_555
C9 C8 1_555 1_555
H6 C9 1_555 1_555
C10 C9 1_555 1_555
H7 C10 1_555 1_555
C11 C10 1_555 1_555
H8 C11 1_555 1_555
C12 S1 1_555 1_555
C13 S1 1_555 1_555
H9 C13 1_555 1_555
H10 C13 1_555 1_555
H11 C13 1_555 1_555
C14 N3 1_555 1_555
C15 C14 1_555 1_555
H12 C15 1_555 1_555
H13 C15 1_555 1_555
H14 C15 1_555 1_555
Cl1 O3 1_555 1_555
O4 Cl1 1_555 1_555
O5 Cl1 1_555 1_555
O6 Cl1 1_555 1_555
Cu1A O1 1_555 1_555
O1A Cu1 1_555 1_555
C4 C5 1_555 1_555
C5 C6 1_555 1_555
C7 C12 1_555 1_555
C11 C12 1_555 1_555

#END
