
#######################################################################
#
#                 Cambridge Crystallographic Data Centre
#                                CCDC 
#
#######################################################################
#
# If this CIF has been generated from an entry in the Cambridge 
# Structural Database, then it will include bibliographic, chemical, 
# crystal, experimental, refinement or atomic coordinate data resulting 
# from the CCDC's data processing and validation procedures.
#
#######################################################################

data_KUWPAV
_symmetry_cell_setting           triclinic
_symmetry_space_group_name_H-M   'P -1'
_symmetry_Int_Tables_number      2
_space_group_name_Hall           '-P 1'
loop_
_symmetry_equiv_pos_site_id
_symmetry_equiv_pos_as_xyz
1 x,y,z
2 -x,-y,-z
_cell_length_a                   9.4950(19)
_cell_length_b                   15.284(3)
_cell_length_c                   19.639(4)
_cell_angle_alpha                109.44(3)
_cell_angle_beta                 93.93(3)
_cell_angle_gamma                103.48(3)
_cell_volume                     2580.13
loop_
_atom_site_label
_atom_site_type_symbol
_atom_site_fract_x
_atom_site_fract_y
_atom_site_fract_z
Co1 Co 0.80486(10) 0.35506(6) 0.22072(5)
Co2 Co 0.90985(14) 0.59745(7) 0.26961(6)
Co3 Co 1.01997(11) 0.89315(7) 0.24283(6)
Co4 Co 1.15291(9) 1.13758(6) 0.29258(5)
O1 O 0.8636(6) 0.4071(4) 0.1398(3)
O2 O 1.0167(6) 0.5561(3) 0.1874(3)
O3 O 0.9668(9) 0.1713(4) -0.0837(5)
O4 O 1.0884(6) 0.2257(3) -0.1596(3)
O5 O 1.9834(5) 1.0155(3) 0.2133(3)
O6 O 1.9112(5) 1.1432(3) 0.2740(3)
O7 O 1.2315(5) 0.9303(3) 0.2422(3)
O8 O 1.3313(5) 1.0874(3) 0.2640(3)
O9 O 0.6152(6) 0.3968(4) 0.2419(3)
O10 O 0.7461(6) 0.5389(5) 0.3121(4)
O11 O 0.0497(5) 0.3457(3) 0.2304(3)
O12 O -0.0199(5) 0.4685(4) 0.2982(3)
O13 O 0.9433(6) 1.2127(4) 0.7048(3)
O14 O 0.9962(7) 1.2999(4) 0.6356(3)
O15 O 0.9240(6) 0.9459(3) 0.3265(3)
O16 O 1.0813(6) 1.0944(3) 0.3762(3)
O17 O 0.7768(6) 0.2903(4) 0.3029(3)
O18 O 0.7692(8) 0.6499(5) 0.2173(4)
O19 O 1.1850(6) 1.1998(4) 0.2099(3)
N1 N 0.6945(6) 0.2214(4) 0.1411(3)
N2 N 1.2811(6) 1.2718(4) 0.3701(3)
C1 C 0.9713(9) 0.4737(5) 0.1387(4)
C2 C 1.0508(8) 0.4510(5) 0.0727(4)
C3 C 1.0137(9) 0.3576(5) 0.0203(4)
H1 H 0.9389 0.3093 0.0247
C4 C 1.0909(8) 0.3375(5) -0.0394(4)
C5 C 1.0444(8) 0.2380(6) -0.0957(4)
C6 C 1.2053(8) 0.4109(5) -0.0439(4)
H2 H 1.2568 0.3969 -0.0830
C7 C 1.2457(8) 0.5059(5) 0.0089(4)
C8 C 1.1664(8) 0.5229(5) 0.0664(4)
H3 H 1.1908 0.5843 0.1022
C9 C 1.3665(8) 0.5852(5) 0.0028(4)
C10 C 1.4421(9) 0.5717(5) -0.0572(4)
H4 H 1.4177 0.5120 -0.0950
C11 C 1.5517(9) 0.6458(5) -0.0604(4)
H5 H 1.6021 0.6349 -0.1000
C12 C 1.5899(8) 0.7376(5) -0.0057(4)
H6 H 1.6652 0.7868 -0.0087
C13 C 1.5148(7) 0.7540(5) 0.0527(4)
C14 C 1.4025(7) 0.6782(5) 0.0576(4)
H7 H 1.3520 0.6896 0.0972
C15 C 1.5459(7) 0.8516(5) 0.1138(4)
C16 C 1.6929(7) 0.9106(5) 0.1414(4)
H8 H 1.7702 0.8895 0.1212
C17 C 1.7218(6) 0.9987(4) 0.1980(4)
C18 C 1.8789(7) 1.0573(4) 0.2308(4)
C19 C 1.6077(7) 1.0326(4) 0.2308(4)
H9 H 1.6277 1.0927 0.2680
C20 C 1.4608(7) 0.9726(4) 0.2056(4)
C21 C 1.4350(7) 0.8839(5) 0.1479(4)
H10 H 1.3391 0.8450 0.1319
C22 C 1.3313(7) 1.0000(4) 0.2397(3)
C23 C 0.6252(8) 0.4790(6) 0.2844(4)
C24 C 0.4961(7) 0.5121(5) 0.3101(4)
C25 C 0.3513(8) 0.4526(5) 0.2814(4)
H11 H 0.3339 0.3913 0.2461
C26 C 0.2390(7) 0.4875(5) 0.3066(4)
C27 C 0.0815(7) 0.4294(5) 0.2771(4)
C28 C 0.2643(8) 0.5785(5) 0.3635(4)
H12 H 0.1853 0.5995 0.3815
C29 C 0.4075(8) 0.6369(5) 0.3927(4)
C30 C 0.5217(8) 0.6020(5) 0.3649(4)
H13 H 0.6178 0.6397 0.3832
C31 C 0.4351(8) 0.7317(5) 0.4515(4)
C32 C 0.3417(9) 0.7505(5) 0.5039(4)
H14 H 0.2591 0.7026 0.5022
C33 C 0.3732(9) 0.8407(6) 0.5580(4)
H15 H 0.3118 0.8521 0.5930
C34 C 0.4949(9) 0.9157(5) 0.5619(4)
H16 H 0.5121 0.9764 0.5981
C35 C 0.5909(8) 0.8979(5) 0.5103(4)
C36 C 0.5567(8) 0.8061(5) 0.4564(4)
H17 H 0.6187 0.7940 0.4218
C37 C 0.7197(8) 0.9791(5) 0.5110(4)
C38 C 0.7747(8) 1.0584(5) 0.5723(4)
H18 H 0.7342 1.0628 0.6147
C39 C 0.8927(9) 1.1345(5) 0.5726(4)
C40 C 0.9464(9) 1.2220(6) 0.6422(5)
C41 C 0.9574(8) 1.1273(5) 0.5085(4)
H19 H 1.0342 1.1774 0.5079
C42 C 0.9034(8) 1.0431(4) 0.4460(4)
C43 C 0.7857(8) 0.9706(5) 0.4478(4)
H20 H 0.7496 0.9152 0.4063
C44 C 0.9773(7) 1.0287(5) 0.3789(4)
C45 C 0.7620(7) 0.1745(5) 0.0899(4)
H21 H 0.8613 0.2009 0.0912
C46 C 0.6901(8) 0.0873(5) 0.0340(4)
H22 H 0.7416 0.0567 -0.0008
C47 C 0.5422(7) 0.0461(4) 0.0305(4)
C48 C 0.4730(8) 0.0952(5) 0.0848(4)
H23 H 0.3738 0.0701 0.0848
C49 C 0.5510(8) 0.1817(5) 0.1393(4)
H24 H 0.5028 0.2131 0.1755
C50 C 1.2262(8) 1.3294(6) 0.4215(5)
H25 H 1.1271 1.3087 0.4239
C51 C 1.3061(9) 1.4182(6) 0.4720(5)
H26 H 1.2595 1.4556 0.5056
C52 C 1.4550(7) 1.4515(4) 0.4727(3)
C53 C 1.5147(7) 1.3925(5) 0.4211(4)
H27 H 1.6145 1.4106 0.4193
C54 C 1.4257(7) 1.3046(5) 0.3711(4)
H28 H 1.4695 1.2665 0.3363
N1A N 0.3055(6) -0.2214(4) -0.1411(3)
C45A C 0.2380(7) -0.1745(5) -0.0899(4)
H21A H 0.1387 -0.2009 -0.0912
C46A C 0.3099(8) -0.0873(5) -0.0340(4)
H22A H 0.2584 -0.0567 0.0008
C47A C 0.4578(7) -0.0461(4) -0.0305(4)
C48A C 0.5270(8) -0.0952(5) -0.0848(4)
H23A H 0.6262 -0.0701 -0.0848
C49A C 0.4490(8) -0.1817(5) -0.1393(4)
H24A H 0.4972 -0.2131 -0.1755
N2A N 1.7189(6) 1.7282(4) 0.6299(3)
C50A C 1.7738(8) 1.6706(6) 0.5785(5)
H25A H 1.8729 1.6913 0.5761
C51A C 1.6939(9) 1.5818(6) 0.5280(5)
H26A H 1.7405 1.5444 0.4944
C52A C 1.5450(7) 1.5485(4) 0.5273(3)
C53A C 1.4853(7) 1.6075(5) 0.5789(4)
H27A H 1.3855 1.5894 0.5807
C54A C 1.5743(7) 1.6954(5) 0.6289(4)
H28A H 1.5305 1.7335 0.6637
Co1A Co 0.19514(10) -0.35506(6) -0.22072(5)
Co2A Co 0.09015(14) -0.59745(7) -0.26961(6)
Co3A Co -0.01997(11) -0.89315(7) -0.24283(6)
Co4A Co -0.15291(9) -1.13758(6) -0.29258(5)
O1A O 0.1364(6) -0.4071(4) -0.1398(3)
O2A O -0.0167(6) -0.5561(3) -0.1874(3)
O3A O 0.0332(9) -0.1713(4) 0.0837(5)
O4A O -0.0884(6) -0.2257(3) 0.1596(3)
O5A O -0.9834(5) -1.0155(3) -0.2133(3)
O6A O -0.9112(5) -1.1432(3) -0.2740(3)
O7A O -0.2315(5) -0.9303(3) -0.2422(3)
O8A O -0.3313(5) -1.0874(3) -0.2640(3)
O9A O 0.3848(6) -0.3968(4) -0.2419(3)
O10A O 0.2539(6) -0.5389(5) -0.3121(4)
O11A O 0.9503(5) -0.3457(3) -0.2304(3)
O12A O 1.0199(5) -0.4685(4) -0.2982(3)
O13A O 0.0567(6) -1.2127(4) -0.7048(3)
O14A O 0.0038(7) -1.2999(4) -0.6356(3)
O15A O 0.0760(6) -0.9459(3) -0.3265(3)
O16A O -0.0813(6) -1.0944(3) -0.3762(3)
O17A O 0.2232(6) -0.2903(4) -0.3029(3)
O18A O 0.2308(8) -0.6499(5) -0.2173(4)
O19A O -0.1850(6) -1.1998(4) -0.2099(3)
C1A C 0.0287(9) -0.4737(5) -0.1387(4)
C2A C -0.0508(8) -0.4510(5) -0.0727(4)
C3A C -0.0137(9) -0.3576(5) -0.0203(4)
H1A H 0.0611 -0.3093 -0.0247
C4A C -0.0909(8) -0.3375(5) 0.0394(4)
C5A C -0.0444(8) -0.2380(6) 0.0957(4)
C6A C -0.2053(8) -0.4109(5) 0.0439(4)
H2A H -0.2568 -0.3969 0.0830
C7A C -0.2457(8) -0.5059(5) -0.0089(4)
C8A C -0.1664(8) -0.5229(5) -0.0664(4)
H3A H -0.1908 -0.5843 -0.1022
C9A C -0.3665(8) -0.5852(5) -0.0028(4)
C10A C -0.4421(9) -0.5717(5) 0.0572(4)
H4A H -0.4177 -0.5120 0.0950
C11A C -0.5517(9) -0.6458(5) 0.0604(4)
H5A H -0.6021 -0.6349 0.1000
C12A C -0.5899(8) -0.7376(5) 0.0057(4)
H6A H -0.6652 -0.7868 0.0087
C13A C -0.5148(7) -0.7540(5) -0.0527(4)
C14A C -0.4025(7) -0.6782(5) -0.0576(4)
H7A H -0.3520 -0.6896 -0.0972
C15A C -0.5459(7) -0.8516(5) -0.1138(4)
C16A C -0.6929(7) -0.9106(5) -0.1414(4)
H8A H -0.7702 -0.8895 -0.1212
C17A C -0.7218(6) -0.9987(4) -0.1980(4)
C18A C -0.8789(7) -1.0573(4) -0.2308(4)
C19A C -0.6077(7) -1.0326(4) -0.2308(4)
H9A H -0.6277 -1.0927 -0.2680
C20A C -0.4608(7) -0.9726(4) -0.2056(4)
C21A C -0.4350(7) -0.8839(5) -0.1479(4)
H10A H -0.3391 -0.8450 -0.1319
C22A C -0.3313(7) -1.0000(4) -0.2397(3)
C23A C 0.3748(8) -0.4790(6) -0.2844(4)
C24A C 0.5039(7) -0.5121(5) -0.3101(4)
C25A C 0.6487(8) -0.4526(5) -0.2814(4)
H11A H 0.6661 -0.3913 -0.2461
C26A C 0.7610(7) -0.4875(5) -0.3066(4)
C27A C 0.9185(7) -0.4294(5) -0.2771(4)
C28A C 0.7357(8) -0.5785(5) -0.3635(4)
H12A H 0.8147 -0.5995 -0.3815
C29A C 0.5925(8) -0.6369(5) -0.3927(4)
C30A C 0.4783(8) -0.6020(5) -0.3649(4)
H13A H 0.3822 -0.6397 -0.3832
C31A C 0.5649(8) -0.7317(5) -0.4515(4)
C32A C 0.6583(9) -0.7505(5) -0.5039(4)
H14A H 0.7409 -0.7026 -0.5022
C33A C 0.6268(9) -0.8407(6) -0.5580(4)
H15A H 0.6882 -0.8521 -0.5930
C34A C 0.5051(9) -0.9157(5) -0.5619(4)
H16A H 0.4879 -0.9764 -0.5981
C35A C 0.4091(8) -0.8979(5) -0.5103(4)
C36A C 0.4433(8) -0.8061(5) -0.4564(4)
H17A H 0.3813 -0.7940 -0.4218
C37A C 0.2803(8) -0.9791(5) -0.5110(4)
C38A C 0.2253(8) -1.0584(5) -0.5723(4)
H18A H 0.2658 -1.0628 -0.6147
C39A C 0.1073(9) -1.1345(5) -0.5726(4)
C40A C 0.0536(9) -1.2220(6) -0.6422(5)
C41A C 0.0426(8) -1.1273(5) -0.5085(4)
H19A H -0.0342 -1.1774 -0.5079
C42A C 0.0966(8) -1.0431(4) -0.4460(4)
C43A C 0.2143(8) -0.9706(5) -0.4478(4)
H20A H 0.2504 -0.9152 -0.4063
C44A C 0.0227(7) -1.0287(5) -0.3789(4)
Co1_2 Co -0.19514(10) 0.35506(6) 0.22072(5)
Co1A_2 Co 1.19514(10) -0.35506(6) -0.22072(5)
Co2_2 Co -0.09015(14) -1.40255(7) -0.73039(6)
Co2_3 Co -0.09015(14) 0.59745(7) 0.26961(6)
Co2A_2 Co 1.09015(14) -0.59745(7) -0.26961(6)
Co2A_3 Co 1.09015(14) 1.40255(7) 0.73039(6)
Co3_2 Co 0.01997(11) -1.10685(7) -0.75717(6)
Co3_3 Co 0.01997(11) -0.10685(7) 0.24283(6)
Co3_4 Co 2.01997(11) 0.89315(7) 0.24283(6)
Co3A_2 Co -1.01997(11) -0.89315(7) -0.24283(6)
Co3A_3 Co 0.98003(11) 0.10685(7) -0.24283(6)
Co3A_4 Co 0.98003(11) 1.10685(7) 0.75717(6)
Co4_2 Co 2.15291(9) 1.13758(6) 0.29258(5)
Co4A_2 Co -1.15291(9) -1.13758(6) -0.29258(5)
Co4A_3 Co 1.84709(9) 1.86242(6) 0.70742(5)
O4_2 O 0.0884(6) -0.7743(3) -0.1596(3)
O4A_2 O 0.9116(6) 0.7743(3) 0.1596(3)
O5_2 O 0.9834(5) 1.0155(3) 0.2133(3)
O5A_2 O 0.0166(5) -1.0155(3) -0.2133(3)
O6_2 O 0.9112(5) 1.1432(3) 0.2740(3)
O6A_2 O 0.0888(5) -1.1432(3) -0.2740(3)
O11_2 O 1.0497(5) 0.3457(3) 0.2304(3)
O11A_2 O -0.0497(5) -0.3457(3) -0.2304(3)
O12_2 O 0.9801(5) 0.4685(4) 0.2982(3)
O12A_2 O 0.0199(5) -0.4685(4) -0.2982(3)
O13_2 O -0.0567(6) -0.7873(4) -0.2952(3)
O13A_2 O 1.0567(6) 0.7873(4) 0.2952(3)
O14_2 O -0.0038(7) -0.7001(4) -0.3644(3)
O14A_2 O 1.0038(7) 0.7001(4) 0.3644(3)
N2A_2 N -0.2811(6) -1.2718(4) -0.3701(3)
loop_
_geom_bond_atom_site_label_1
_geom_bond_atom_site_label_2
_geom_bond_site_symmetry_1
_geom_bond_site_symmetry_2
Co1 O1 1_555 1_555
Co2 O2 1_555 1_555
Co3 O7 1_555 1_555
Co4 O8 1_555 1_555
O1 C1 1_555 1_555
O2 C1 1_555 1_555
O3 C5 1_555 1_555
O4 C5 1_555 1_555
O5 C18 1_555 1_555
O6 C18 1_555 1_555
O7 C22 1_555 1_555
O8 C22 1_555 1_555
O9 Co1 1_555 1_555
O10 Co2 1_555 1_555
O11 C27 1_555 1_555
O12 C27 1_555 1_555
O13 C40 1_555 1_555
O14 C40 1_555 1_555
O15 Co3 1_555 1_555
O16 Co4 1_555 1_555
O17 Co1 1_555 1_555
O18 Co2 1_555 1_555
O19 Co4 1_555 1_555
N1 Co1 1_555 1_555
N2 Co4 1_555 1_555
C1 C2 1_555 1_555
C2 C3 1_555 1_555
C3 H1 1_555 1_555
C4 C3 1_555 1_555
C5 C4 1_555 1_555
C6 C4 1_555 1_555
H2 C6 1_555 1_555
C7 C6 1_555 1_555
C8 C2 1_555 1_555
H3 C8 1_555 1_555
C9 C7 1_555 1_555
C10 C9 1_555 1_555
H4 C10 1_555 1_555
C11 C10 1_555 1_555
H5 C11 1_555 1_555
C12 C11 1_555 1_555
H6 C12 1_555 1_555
C13 C12 1_555 1_555
C14 C9 1_555 1_555
H7 C14 1_555 1_555
C15 C13 1_555 1_555
C16 C15 1_555 1_555
H8 C16 1_555 1_555
C17 C16 1_555 1_555
C18 C17 1_555 1_555
C19 C17 1_555 1_555
H9 C19 1_555 1_555
C20 C19 1_555 1_555
C21 C15 1_555 1_555
H10 C21 1_555 1_555
C22 C20 1_555 1_555
C23 O9 1_555 1_555
C24 C23 1_555 1_555
C25 C24 1_555 1_555
H11 C25 1_555 1_555
C26 C25 1_555 1_555
C27 C26 1_555 1_555
C28 C26 1_555 1_555
H12 C28 1_555 1_555
C29 C28 1_555 1_555
C30 C24 1_555 1_555
H13 C30 1_555 1_555
C31 C29 1_555 1_555
C32 C31 1_555 1_555
H14 C32 1_555 1_555
C33 C32 1_555 1_555
H15 C33 1_555 1_555
C34 C33 1_555 1_555
H16 C34 1_555 1_555
C35 C34 1_555 1_555
C36 C31 1_555 1_555
H17 C36 1_555 1_555
C37 C35 1_555 1_555
C38 C37 1_555 1_555
H18 C38 1_555 1_555
C39 C38 1_555 1_555
C40 C39 1_555 1_555
C41 C39 1_555 1_555
H19 C41 1_555 1_555
C42 C41 1_555 1_555
C43 C37 1_555 1_555
H20 C43 1_555 1_555
C44 O15 1_555 1_555
C45 N1 1_555 1_555
H21 C45 1_555 1_555
C46 C45 1_555 1_555
H22 C46 1_555 1_555
C47 C46 1_555 1_555
C48 C47 1_555 1_555
H23 C48 1_555 1_555
C49 N1 1_555 1_555
H24 C49 1_555 1_555
C50 N2 1_555 1_555
H25 C50 1_555 1_555
C51 C50 1_555 1_555
H26 C51 1_555 1_555
C52 C51 1_555 1_555
C53 C52 1_555 1_555
H27 C53 1_555 1_555
C54 N2 1_555 1_555
H28 C54 1_555 1_555
N1A C45A 1_555 1_555
C45A H21A 1_555 1_555
C46A C45A 1_555 1_555
H22A C46A 1_555 1_555
C47A C47 1_555 1_555
C48A C47A 1_555 1_555
H23A C48A 1_555 1_555
C49A N1A 1_555 1_555
H24A C49A 1_555 1_555
N2A C50A 1_555 1_555
C50A H25A 1_555 1_555
C51A C50A 1_555 1_555
H26A C51A 1_555 1_555
C52A C52 1_555 1_555
C53A C52A 1_555 1_555
H27A C53A 1_555 1_555
C54A N2A 1_555 1_555
H28A C54A 1_555 1_555
Co1A N1A 1_555 1_555
Co2A O2A 1_555 1_555
Co3A O7A 1_555 1_555
Co4A O8A 1_555 1_555
O1A Co1A 1_555 1_555
O2A C1A 1_555 1_555
O3A C5A 1_555 1_555
O4A C5A 1_555 1_555
O5A C18A 1_555 1_555
O6A C18A 1_555 1_555
O7A C22A 1_555 1_555
O8A C22A 1_555 1_555
O9A Co1A 1_555 1_555
O10A Co2A 1_555 1_555
O11A C27A 1_555 1_555
O12A C27A 1_555 1_555
O13A C40A 1_555 1_555
O14A C40A 1_555 1_555
O15A Co3A 1_555 1_555
O16A Co4A 1_555 1_555
O17A Co1A 1_555 1_555
O18A Co2A 1_555 1_555
O19A Co4A 1_555 1_555
C1A O1A 1_555 1_555
C2A C1A 1_555 1_555
C3A C2A 1_555 1_555
H1A C3A 1_555 1_555
C4A C3A 1_555 1_555
C5A C4A 1_555 1_555
C6A C4A 1_555 1_555
H2A C6A 1_555 1_555
C7A C6A 1_555 1_555
C8A C2A 1_555 1_555
H3A C8A 1_555 1_555
C9A C7A 1_555 1_555
C10A C9A 1_555 1_555
H4A C10A 1_555 1_555
C11A C10A 1_555 1_555
H5A C11A 1_555 1_555
C12A C11A 1_555 1_555
H6A C12A 1_555 1_555
C13A C12A 1_555 1_555
C14A C9A 1_555 1_555
H7A C14A 1_555 1_555
C15A C13A 1_555 1_555
C16A C15A 1_555 1_555
H8A C16A 1_555 1_555
C17A C16A 1_555 1_555
C18A C17A 1_555 1_555
C19A C17A 1_555 1_555
H9A C19A 1_555 1_555
C20A C19A 1_555 1_555
C21A C15A 1_555 1_555
H10A C21A 1_555 1_555
C22A C20A 1_555 1_555
C23A O9A 1_555 1_555
C24A C23A 1_555 1_555
C25A C24A 1_555 1_555
H11A C25A 1_555 1_555
C26A C25A 1_555 1_555
C27A C26A 1_555 1_555
C28A C26A 1_555 1_555
H12A C28A 1_555 1_555
C29A C28A 1_555 1_555
C30A C24A 1_555 1_555
H13A C30A 1_555 1_555
C31A C29A 1_555 1_555
C32A C31A 1_555 1_555
H14A C32A 1_555 1_555
C33A C32A 1_555 1_555
H15A C33A 1_555 1_555
C34A C33A 1_555 1_555
H16A C34A 1_555 1_555
C35A C34A 1_555 1_555
C36A C31A 1_555 1_555
H17A C36A 1_555 1_555
C37A C35A 1_555 1_555
C38A C37A 1_555 1_555
H18A C38A 1_555 1_555
C39A C38A 1_555 1_555
C40A C39A 1_555 1_555
C41A C39A 1_555 1_555
H19A C41A 1_555 1_555
C42A C41A 1_555 1_555
C43A C37A 1_555 1_555
H20A C43A 1_555 1_555
C44A O15A 1_555 1_555
Co1_2 O11 1_555 1_555
Co1A_2 O11A 1_555 1_555
Co2_2 O14A 1_555 1_555
Co2_3 O12 1_555 1_555
Co2A_2 O12A 1_555 1_555
Co2A_3 O14 1_555 1_555
Co3_2 O13A 1_555 1_555
Co3_3 O4A 1_555 1_555
Co3_4 O5 1_555 1_555
Co3A_2 O5A 1_555 1_555
Co3A_3 O4 1_555 1_555
Co3A_4 O13 1_555 1_555
Co4_2 O5 1_555 1_555
Co4A_2 O5A 1_555 1_555
Co4A_3 N2A 1_555 1_555
O4_2 Co3A 1_555 1_555
O4A_2 Co3 1_555 1_555
O5_2 Co3 1_555 1_555
O5A_2 Co3A 1_555 1_555
O6_2 Co4 1_555 1_555
O6A_2 Co4A 1_555 1_555
O11_2 Co1 1_555 1_555
O11A_2 Co1A 1_555 1_555
O12_2 Co1 1_555 1_555
O12A_2 Co1A 1_555 1_555
O13_2 Co3A 1_555 1_555
O13A_2 Co3 1_555 1_555
O14_2 Co2A 1_555 1_555
O14A_2 Co2 1_555 1_555
N2A_2 Co4A 1_555 1_555
Co2 O12_2 1_555 1_555
Co4 O5_2 1_555 1_555
O6 Co4_2 1_555 1_555
O10 C23 1_555 1_555
O12 Co1_2 1_555 1_555
O16 C44 1_555 1_555
C7 C8 1_555 1_555
C13 C14 1_555 1_555
C20 C21 1_555 1_555
C29 C30 1_555 1_555
C35 C36 1_555 1_555
C42 C43 1_555 1_555
C42 C44 1_555 1_555
C48 C49 1_555 1_555
C53 C54 1_555 1_555
C46A C47A 1_555 1_555
C48A C49A 1_555 1_555
C51A C52A 1_555 1_555
C53A C54A 1_555 1_555
Co2A O12A_2 1_555 1_555
Co4A O5A_2 1_555 1_555
O6A Co4A_2 1_555 1_555
O10A C23A 1_555 1_555
O12A Co1A_2 1_555 1_555
O16A C44A 1_555 1_555
C7A C8A 1_555 1_555
C13A C14A 1_555 1_555
C20A C21A 1_555 1_555
C29A C30A 1_555 1_555
C35A C36A 1_555 1_555
C42A C43A 1_555 1_555
C42A C44A 1_555 1_555

#END
