
#######################################################################
#
#                 Cambridge Crystallographic Data Centre
#                                CCDC 
#
#######################################################################
#
# If this CIF has been generated from an entry in the Cambridge 
# Structural Database, then it will include bibliographic, chemical, 
# crystal, experimental, refinement or atomic coordinate data resulting 
# from the CCDC's data processing and validation procedures.
#
#######################################################################

data_KUWROK
_symmetry_cell_setting           monoclinic
_symmetry_space_group_name_H-M   'P 21/m'
_symmetry_Int_Tables_number      11
_space_group_name_Hall           '-P 2yb'
loop_
_symmetry_equiv_pos_site_id
_symmetry_equiv_pos_as_xyz
1 x,y,z
2 -x,1/2+y,-z
3 -x,-y,-z
4 x,1/2-y,z
_cell_length_a                   13.623(5)
_cell_length_b                   25.345(5)
_cell_length_c                   13.858(5)
_cell_angle_alpha                90
_cell_angle_beta                 98.038(5)
_cell_angle_gamma                90
_cell_volume                     4737.81
loop_
_atom_site_label
_atom_site_type_symbol
_atom_site_fract_x
_atom_site_fract_y
_atom_site_fract_z
W1 W 0.31844(6) -0.05634(3) -0.60004(6)
W2 W 0.53977(6) -0.05637(3) -0.68354(6)
W3 W 0.32769(6) -0.05645(3) -0.84123(6)
W4 W 0.62251(5) -0.17583(3) -0.80349(5)
W5 W 0.61362(5) -0.17611(3) -0.54010(5)
W6 W 0.39421(5) -0.17575(3) -0.45664(5)
W7 W 0.16203(5) -0.17603(3) -0.62523(6)
W8 W 0.16989(5) -0.17580(3) -0.86703(5)
W9 W 0.41017(5) -0.17593(3) -0.95780(5)
Ag1 Ag 0.3941(2) -0.08720(13) -1.2203(2)
P1 P 0.3950(3) -0.17252(15) -0.7085(3)
O1 O 0.3939(7) -0.1096(4) -0.7091(8)
O2 O 0.4525(8) -0.1892(4) -0.7919(9)
O3 O 0.2863(8) -0.1901(4) -0.7272(8)
O4 O 0.4463(8) -0.1889(4) -0.6086(9)
O5 O 0.2824(10) -0.0104(5) -0.9262(10)
O6 O 0.2812(9) -0.0275(5) -0.7283(10)
O7 O 0.4528(9) -0.0282(5) -0.7937(9)
O8 O 0.2677(10) -0.0092(5) -0.5344(9)
O9 O 0.4466(9) -0.0276(5) -0.6028(9)
O10 O 0.6319(9) -0.0107(5) -0.6726(9)
O11 O 0.2213(8) -0.1055(5) -0.8524(8)
O12 O 0.3900(8) -0.1060(4) -0.9191(9)
O13 O 0.2134(8) -0.1048(4) -0.6253(8)
O14 O 0.5920(9) -0.1051(5) -0.7669(9)
O15 O 0.3750(9) -0.1052(5) -0.5037(9)
O16 O 0.5849(8) -0.1063(4) -0.5833(9)
O17 O 0.7395(10) -0.1629(5) -0.8239(11)
O18 O 0.5500(9) -0.1656(4) -0.9313(9)
O19 O 0.3952(10) -0.1642(5) -1.0790(9)
O20 O 0.2774(8) -0.1893(4) -0.9363(8)
O21 O 0.0788(9) -0.1628(5) -0.9596(10)
O22 O 0.1011(8) -0.1658(5) -0.7573(10)
O23 O 0.0633(9) -0.1630(5) -0.5629(10)
O24 O 0.2649(9) -0.1895(5) -0.5209(9)
O25 O 0.3696(11) -0.1650(6) -0.3405(9)
O26 O 0.5345(9) -0.1669(5) -0.4383(9)
O27 O 0.7282(9) -0.1651(5) -0.4782(10)
O28 O 0.6403(8) -0.1898(5) -0.6680(9)
O29 O 0.6204(11) -0.2500 -0.8218(13)
O30 O 0.6082(11) -0.2500 -0.5201(13)
O31 O 0.4146(11) -0.2500 -0.4461(13)
O32 O 0.1446(13) -0.2500 -0.6402(12)
O33 O 0.1494(13) -0.2500 -0.8593(12)
O34 O 0.4287(12) -0.2500 -0.9636(12)
N1 N 0.5537(14) -0.0971(7) -1.2066(18)
N2 N 1.2359(16) -0.0897(10) -1.242(2)
C1 C 0.6920(15) -0.0894(8) -1.2883(17)
H1 H 0.7173 -0.0832 -1.3462
C2 C 0.7557(17) -0.1021(8) -1.2088(18)
C3 C 0.5950(16) -0.0851(7) -1.2885(17)
H2 H 0.5548 -0.0740 -1.3445
C4 C 0.6105(16) -0.1088(9) -1.1252(17)
H3 H 0.5833 -0.1146 -1.0681
C5 C 1.0223(19) -0.0967(10) -1.261(2)
C6 C 1.197(2) -0.1048(11) -1.165(2)
H4 H 1.2383 -0.1140 -1.1076
C7 C 0.9166(14) -0.0956(9) -1.2732(16)
H5 H 0.8826 -0.0875 -1.3344
C8 C 0.7106(19) -0.1124(10) -1.126(2)
H6 H 0.7505 -0.1221 -1.0686
C9 C 0.8661(17) -0.1053(10) -1.2035(19)
H7 H 0.9015 -0.1153 -1.1440
C10 C 1.183(2) -0.0849(12) -1.330(3)
H8 H 1.2145 -0.0810 -1.3844
C11 C 1.091(3) -0.1068(10) -1.170(2)
H9 H 1.0645 -0.1147 -1.1132
C12 C 1.077(2) -0.0858(14) -1.340(2)
H10 H 1.0417 -0.0789 -1.4010
W1C W 0.31844(6) -0.44366(3) -0.60004(6)
W2C W 0.53977(6) -0.44363(3) -0.68354(6)
W3C W 0.32769(6) -0.44355(3) -0.84123(6)
W4C W 0.62251(5) -0.32417(3) -0.80349(5)
W5C W 0.61362(5) -0.32389(3) -0.54010(5)
W6C W 0.39421(5) -0.32425(3) -0.45664(5)
W7C W 0.16203(5) -0.32397(3) -0.62523(6)
W8C W 0.16989(5) -0.32420(3) -0.86703(5)
W9C W 0.41017(5) -0.32407(3) -0.95780(5)
Ag1C Ag 0.3941(2) -0.41280(13) -1.2203(2)
Ag1_2 Ag 0.3941(2) -0.08720(13) -0.2203(2)
Ag1_3 Ag 1.3941(2) -0.08720(13) -1.2203(2)
Ag1C_2 Ag 0.3941(2) -0.41280(13) -0.2203(2)
Ag1_4 Ag -0.6059(2) -0.08720(13) -1.2203(2)
P1C P 0.3950(3) -0.32748(15) -0.7085(3)
O1C O 0.3939(7) -0.3904(4) -0.7091(8)
O2C O 0.4525(8) -0.3108(4) -0.7919(9)
O3C O 0.2863(8) -0.3099(4) -0.7272(8)
O4C O 0.4463(8) -0.3111(4) -0.6086(9)
O5C O 0.2824(10) -0.4896(5) -0.9262(10)
O6C O 0.2812(9) -0.4725(5) -0.7283(10)
O7C O 0.4528(9) -0.4718(5) -0.7937(9)
O8C O 0.2677(10) -0.4908(5) -0.5344(9)
O9C O 0.4466(9) -0.4724(5) -0.6028(9)
O10C O 0.6319(9) -0.4893(5) -0.6726(9)
O11C O 0.2213(8) -0.3945(5) -0.8524(8)
O12C O 0.3900(8) -0.3940(4) -0.9191(9)
O13C O 0.2134(8) -0.3952(4) -0.6253(8)
O14C O 0.5920(9) -0.3949(5) -0.7669(9)
O15C O 0.3750(9) -0.3948(5) -0.5037(9)
O16C O 0.5849(8) -0.3937(4) -0.5833(9)
O17C O 0.7395(10) -0.3371(5) -0.8239(11)
O18C O 0.5500(9) -0.3344(4) -0.9313(9)
O19C O 0.3952(10) -0.3358(5) -1.0790(9)
O20C O 0.2774(8) -0.3107(4) -0.9363(8)
O21C O 0.0788(9) -0.3372(5) -0.9596(10)
O22C O 0.1011(8) -0.3342(5) -0.7573(10)
O23C O 0.0633(9) -0.3370(5) -0.5629(10)
O24C O 0.2649(9) -0.3105(5) -0.5209(9)
O25C O 0.3696(11) -0.3350(6) -0.3405(9)
O25_2 O 0.3696(11) -0.1650(6) -1.3405(9)
O25C_2 O 0.3696(11) -0.3350(6) -1.3405(9)
O26C O 0.5345(9) -0.3331(5) -0.4383(9)
O27C O 0.7282(9) -0.3349(5) -0.4782(10)
O28C O 0.6403(8) -0.3102(5) -0.6680(9)
N1_2 N -0.4463(14) -0.0971(7) -1.2066(18)
N1C N 0.5537(14) -0.4029(7) -1.2066(18)
N2_2 N 0.2359(16) -0.0897(10) -1.242(2)
N2C N 0.2359(16) -0.4103(10) -1.242(2)
C1_2 C -0.3080(15) -0.0894(8) -1.2883(17)
H1_2 H -0.2827 -0.0832 -1.3462
C2_2 C -0.2443(17) -0.1021(8) -1.2088(18)
C3_2 C -0.4050(16) -0.0851(7) -1.2885(17)
H2_2 H -0.4452 -0.0740 -1.3445
C4_2 C -0.3895(16) -0.1088(9) -1.1252(17)
H3_2 H -0.4167 -0.1146 -1.0681
C5_2 C 0.0223(19) -0.0967(10) -1.261(2)
C6_2 C 0.197(2) -0.1048(11) -1.165(2)
H4_2 H 0.2383 -0.1140 -1.1076
C7_2 C -0.0834(14) -0.0956(9) -1.2732(16)
H5_2 H -0.1174 -0.0875 -1.3344
C8_2 C -0.2894(19) -0.1124(10) -1.126(2)
H6_2 H -0.2495 -0.1221 -1.0686
C9_2 C -0.1339(17) -0.1053(10) -1.2035(19)
H7_2 H -0.0985 -0.1153 -1.1440
C10_2 C 0.183(2) -0.0849(12) -1.330(3)
H8_2 H 0.2145 -0.0810 -1.3844
C11_2 C 0.091(3) -0.1068(10) -1.170(2)
H9_2 H 0.0645 -0.1147 -1.1132
C12_2 C 0.077(2) -0.0858(14) -1.340(2)
H10_2 H 0.0417 -0.0789 -1.4010
Ag2 Ag -0.59642(14) -0.2500 -0.20792(15)
N3 N -0.4374(14) -0.2500 -0.1894(16)
N4 N 0.2466(16) -0.2500 -0.2245(17)
C13 C 0.198(2) -0.2500 -0.141(2)
H11 H 0.2369 -0.2500 -0.0800
C14 C 0.0954(19) -0.2500 -0.143(2)
H12 H 0.0668 -0.2500 -0.0861
C15 C -0.3930(18) -0.2500 -0.270(2)
H13 H -0.4318 -0.2500 -0.3303
C16 C -0.2276(17) -0.2500 -0.1775(19)
C17 C -0.2907(19) -0.2500 -0.264(2)
H14 H -0.2634 -0.2500 -0.3221
C18 C -0.2762(19) -0.2500 -0.093(2)
H15 H -0.2389 -0.2500 -0.0310
C19 C -0.125(2) -0.2500 -0.168(2)
H16 H -0.0903 -0.2500 -0.1055
C20 C 0.036(2) -0.2500 -0.236(2)
C21 C -0.379(2) -0.2500 -0.102(2)
H17 H -0.4095 -0.2500 -0.0459
C22 C 0.186(2) -0.2500 -0.320(3)
H18 H 0.2144 -0.2500 -0.3770
C23 C -0.070(2) -0.2500 -0.244(2)
H19 H -0.1052 -0.2500 -0.3062
C24 C 0.084(2) -0.2500 -0.320(3)
H20 H 0.0439 -0.2500 -0.3805
Ag2_2 Ag 0.40358(14) -0.2500 -0.20792(15)
N4_2 N -0.7534(16) -0.2500 -0.2245(17)
N5 N 0.1135(16) 0.0573(7) 0.7170(13)
C25 C 0.0186(18) 0.0577(9) 0.7159(17)
H21 H -0.0215 0.0680 0.6591
C26 C 0.0324(17) 0.0292(8) 0.8796(16)
C27 C 0.179(2) 0.0457(10) 0.806(2)
H22 H 0.2475 0.0490 0.8093
C28 C -0.0257(16) 0.0434(9) 0.7957(17)
H23 H -0.0944 0.0435 0.7922
C29 C 0.1356(19) 0.0298(10) 0.8838(16)
H24 H 0.1751 0.0192 0.9406
C30 C -0.015(2) 0.0111(10) 0.9640(19)
H25 H -0.0824 0.0189 0.9584
N5B N -0.1135(16) -0.0573(7) 1.2830(13)
C25B C -0.0186(18) -0.0577(9) 1.2841(17)
H21B H 0.0215 -0.0680 1.3409
C26B C -0.0324(17) -0.0292(8) 1.1204(16)
C27B C -0.179(2) -0.0457(10) 1.194(2)
H22B H -0.2475 -0.0490 1.1907
C28B C 0.0257(16) -0.0434(9) 1.2043(17)
H23B H 0.0944 -0.0435 1.2078
C29B C -0.1356(19) -0.0298(10) 1.1162(16)
H24B H -0.1751 -0.0192 1.0594
C30B C 0.015(2) -0.0111(10) 1.0360(19)
H25B H 0.0824 -0.0189 1.0416
O35 O 0.1714(11) 0.0743(6) 0.5406(11)
O36 O 0.925(4) -0.2500 -0.779(4)
O37 O -0.112(4) -0.312(2) 0.062(4)
O38 O 0.592(7) 0.004(4) 0.077(7)
loop_
_geom_bond_atom_site_label_1
_geom_bond_atom_site_label_2
_geom_bond_site_symmetry_1
_geom_bond_site_symmetry_2
W1 O1 1_555 1_555
W2 O1 1_555 1_555
W3 O1 1_555 1_555
W4 O2 1_555 1_555
W5 O4 1_555 1_555
W6 O4 1_555 1_555
W7 O3 1_555 1_555
W8 O3 1_555 1_555
W9 O2 1_555 1_555
Ag1 O19 1_555 1_555
P1 O1 1_555 1_555
O2 P1 1_555 1_555
O3 P1 1_555 1_555
O4 P1 1_555 1_555
O5 W3 1_555 1_555
O6 W1 1_555 1_555
O7 W2 1_555 1_555
O8 W1 1_555 1_555
O9 W1 1_555 1_555
O10 W2 1_555 1_555
O11 W3 1_555 1_555
O12 W3 1_555 1_555
O13 W1 1_555 1_555
O14 W2 1_555 1_555
O15 W1 1_555 1_555
O16 W2 1_555 1_555
O17 W4 1_555 1_555
O18 W4 1_555 1_555
O19 W9 1_555 1_555
O20 W8 1_555 1_555
O21 W8 1_555 1_555
O22 W7 1_555 1_555
O23 W7 1_555 1_555
O24 W6 1_555 1_555
O25 W6 1_555 1_555
O26 W5 1_555 1_555
O27 W5 1_555 1_555
O28 W4 1_555 1_555
O29 W4 1_555 1_555
O30 W5 1_555 1_555
O31 W6 1_555 1_555
O32 W7 1_555 1_555
O33 W8 1_555 1_555
O34 W9 1_555 1_555
N1 Ag1 1_555 1_555
N2 C6 1_555 1_555
C1 H1 1_555 1_555
C2 C1 1_555 1_555
C3 N1 1_555 1_555
H2 C3 1_555 1_555
C4 N1 1_555 1_555
H3 C4 1_555 1_555
C5 C7 1_555 1_555
C6 H4 1_555 1_555
C7 H5 1_555 1_555
C8 C2 1_555 1_555
H6 C8 1_555 1_555
C9 C2 1_555 1_555
H7 C9 1_555 1_555
C10 N2 1_555 1_555
H8 C10 1_555 1_555
C11 C5 1_555 1_555
H9 C11 1_555 1_555
C12 C5 1_555 1_555
H10 C12 1_555 1_555
Ag2 N3 1_555 1_555
N3 C15 1_555 1_555
N4 C13 1_555 1_555
C13 H11 1_555 1_555
C14 C13 1_555 1_555
H12 C14 1_555 1_555
C15 H13 1_555 1_555
C16 C17 1_555 1_555
C17 C15 1_555 1_555
H14 C17 1_555 1_555
C18 C16 1_555 1_555
H15 C18 1_555 1_555
C19 C16 1_555 1_555
H16 C19 1_555 1_555
C20 C14 1_555 1_555
C21 N3 1_555 1_555
H17 C21 1_555 1_555
C22 N4 1_555 1_555
H18 C22 1_555 1_555
C23 C19 1_555 1_555
H19 C23 1_555 1_555
C24 C20 1_555 1_555
H20 C24 1_555 1_555
N5 C25 1_555 1_555
C25 H21 1_555 1_555
C26 C28 1_555 1_555
C27 N5 1_555 1_555
H22 C27 1_555 1_555
C28 C25 1_555 1_555
H23 C28 1_555 1_555
C29 C26 1_555 1_555
H24 C29 1_555 1_555
C30 C26 1_555 1_555
H25 C30 1_555 1_555
W1C O1C 1_555 1_555
W2C O1C 1_555 1_555
W3C O1C 1_555 1_555
W4C O29 1_555 1_555
W5C O30 1_555 1_555
W6C O31 1_555 1_555
W7C O32 1_555 1_555
W8C O33 1_555 1_555
W9C O34 1_555 1_555
Ag1C O19C 1_555 1_555
Ag1_2 O25 1_555 1_555
Ag1_3 N2 1_555 1_555
Ag1C_2 O25C 1_555 1_555
Ag1_4 N1_2 1_555 1_555
P1C O1C 1_555 1_555
O2C W4C 1_555 1_555
O3C W7C 1_555 1_555
O4C W5C 1_555 1_555
O5C W3C 1_555 1_555
O6C W1C 1_555 1_555
O7C W2C 1_555 1_555
O8C W1C 1_555 1_555
O9C W1C 1_555 1_555
O10C W2C 1_555 1_555
O11C W3C 1_555 1_555
O12C W3C 1_555 1_555
O13C W1C 1_555 1_555
O14C W2C 1_555 1_555
O15C W1C 1_555 1_555
O16C W2C 1_555 1_555
O17C W4C 1_555 1_555
O18C W4C 1_555 1_555
O19C W9C 1_555 1_555
O20C W8C 1_555 1_555
O21C W8C 1_555 1_555
O22C W7C 1_555 1_555
O23C W7C 1_555 1_555
O24C W6C 1_555 1_555
O25C W6C 1_555 1_555
O25_2 Ag1 1_555 1_555
O25C_2 Ag1C 1_555 1_555
O26C W5C 1_555 1_555
O27C W5C 1_555 1_555
O28C W4C 1_555 1_555
N1_2 C3_2 1_555 1_555
N1C Ag1C 1_555 1_555
N2_2 Ag1 1_555 1_555
N2C Ag1C 1_555 1_555
C1_2 H1_2 1_555 1_555
C2_2 C1_2 1_555 1_555
C3_2 C1_2 1_555 1_555
H2_2 C3_2 1_555 1_555
C4_2 N1_2 1_555 1_555
H3_2 C4_2 1_555 1_555
C5_2 C7_2 1_555 1_555
C6_2 N2_2 1_555 1_555
H4_2 C6_2 1_555 1_555
C7_2 H5_2 1_555 1_555
C8_2 C2_2 1_555 1_555
H6_2 C8_2 1_555 1_555
C9_2 C2_2 1_555 1_555
H7_2 C9_2 1_555 1_555
C10_2 N2_2 1_555 1_555
H8_2 C10_2 1_555 1_555
C11_2 C5_2 1_555 1_555
H9_2 C11_2 1_555 1_555
C12_2 C5_2 1_555 1_555
H10_2 C12_2 1_555 1_555
Ag2_2 N4 1_555 1_555
N4_2 Ag2 1_555 1_555
N5B C25B 1_555 1_555
C25B H21B 1_555 1_555
C26B C28B 1_555 1_555
C27B N5B 1_555 1_555
H22B C27B 1_555 1_555
C28B C25B 1_555 1_555
H23B C28B 1_555 1_555
C29B C26B 1_555 1_555
H24B C29B 1_555 1_555
C30B C30 1_555 1_555
H25B C30B 1_555 1_555
W2 O9 1_555 1_555
W3 O6 1_555 1_555
W3 O7 1_555 1_555
W4 O14 1_555 1_555
W5 O16 1_555 1_555
W5 O28 1_555 1_555
W6 O15 1_555 1_555
W6 O26 1_555 1_555
W7 O13 1_555 1_555
W7 O24 1_555 1_555
W8 O11 1_555 1_555
W8 O22 1_555 1_555
W9 O12 1_555 1_555
W9 O18 1_555 1_555
W9 O20 1_555 1_555
C1 C3 1_555 1_555
C4 C8 1_555 1_555
C6 C11 1_555 1_555
C7 C9 1_555 1_555
C10 C12 1_555 1_555
C18 C21 1_555 1_555
C20 C23 1_555 1_555
C22 C24 1_555 1_555
C27 C29 1_555 1_555
W2C O9C 1_555 1_555
W3C O6C 1_555 1_555
W3C O7C 1_555 1_555
W4C O14C 1_555 1_555
W5C O16C 1_555 1_555
W5C O28C 1_555 1_555
W6C O4C 1_555 1_555
W6C O15C 1_555 1_555
W6C O26C 1_555 1_555
W7C O13C 1_555 1_555
W7C O24C 1_555 1_555
W8C O3C 1_555 1_555
W8C O11C 1_555 1_555
W8C O22C 1_555 1_555
W9C O2C 1_555 1_555
W9C O12C 1_555 1_555
W9C O18C 1_555 1_555
W9C O20C 1_555 1_555
P1C O2C 1_555 1_555
P1C O3C 1_555 1_555
P1C O4C 1_555 1_555
C4_2 C8_2 1_555 1_555
C6_2 C11_2 1_555 1_555
C7_2 C9_2 1_555 1_555
C10_2 C12_2 1_555 1_555
C26B C30B 1_555 1_555
C27B C29B 1_555 1_555

#END
