
#######################################################################
#
#                 Cambridge Crystallographic Data Centre
#                                CCDC 
#
#######################################################################
#
# If this CIF has been generated from an entry in the Cambridge 
# Structural Database, then it will include bibliographic, chemical, 
# crystal, experimental, refinement or atomic coordinate data resulting 
# from the CCDC's data processing and validation procedures.
#
#######################################################################

data_KUWRAW
_symmetry_cell_setting           triclinic
_symmetry_space_group_name_H-M   'P -1'
_symmetry_Int_Tables_number      2
_space_group_name_Hall           '-P 1'
loop_
_symmetry_equiv_pos_site_id
_symmetry_equiv_pos_as_xyz
1 x,y,z
2 -x,-y,-z
_cell_length_a                   10.0242(11)
_cell_length_b                   10.4152(12)
_cell_length_c                   10.5732(12)
_cell_angle_alpha                100.8210(10)
_cell_angle_beta                 108.6010(10)
_cell_angle_gamma                101.2320(10)
_cell_volume                     988.417
loop_
_atom_site_label
_atom_site_type_symbol
_atom_site_fract_x
_atom_site_fract_y
_atom_site_fract_z
Cu1 Cu 0.39578(3) 0.44962(3) 0.13058(4)
C1 C -0.3697(3) 0.8501(3) -0.0312(3)
C2 C -0.2993(3) 0.9838(3) 0.0378(4)
C3 C -0.1517(3) 1.0217(3) 0.1120(3)
C4 C -0.0780(3) 0.9226(3) 0.1169(3)
C5 C -0.1561(3) 0.7896(3) 0.0483(3)
C6 C 0.3725(3) 0.7249(3) 0.2035(3)
C7 C 0.4084(3) 0.8624(3) 0.2618(3)
C8 C 0.2939(3) 0.9328(3) 0.2504(3)
C9 C 0.0805(3) 0.9586(3) 0.1892(3)
C10 C 0.5543(3) 0.9322(3) 0.3347(3)
C11 C 0.6574(3) 0.8610(3) 0.3463(4)
C12 C 0.6135(3) 0.7237(3) 0.2865(3)
C13 C -0.0711(3) 0.2469(3) 0.5442(3)
C14 C 0.2236(3) 0.4237(3) 0.2831(3)
C15 C -0.2984(3) 0.4475(3) 0.1555(3)
C16 C -0.1718(2) 0.4059(3) 0.2426(3)
C17 C -0.1826(3) 0.3467(3) 0.3473(3)
C18 C -0.0386(3) 0.4311(3) 0.2224(3)
C19 C 0.0800(2) 0.3984(3) 0.3062(3)
C20 C 0.0675(3) 0.3411(3) 0.4105(3)
C21 C -0.0653(3) 0.3129(3) 0.4315(3)
N1 N -0.3006(2) 0.7517(2) -0.0263(2)
N2 N 0.4723(2) 0.6535(2) 0.2155(2)
N3 N 0.1668(2) 1.0752(2) 0.2665(3)
N4 N 0.3082(2) 1.0570(2) 0.3072(3)
O1 O 0.21544(17) 0.44862(18) 0.16761(19)
O2 O 0.33497(19) 0.4189(2) 0.3718(2)
O3 O -0.41471(17) 0.41456(19) 0.1811(2)
O4 O -0.28291(18) 0.50821(19) 0.07012(19)
O5 O -0.1937(2) 0.2256(2) 0.5719(2)
O6 O 0.0285(2) 0.2107(2) 0.6103(2)
O7 O 0.15228(18) 0.86178(17) 0.17234(19)
H1 H -0.275(3) 0.327(2) 0.355(3)
H2 H -0.036(2) 0.469(2) 0.154(3)
H3 H -0.118(3) 0.713(2) 0.048(3)
H4 H 0.142(2) 0.321(2) 0.465(2)
H5 H 0.677(3) 0.673(3) 0.300(3)
H6 H -0.104(3) 1.107(3) 0.153(3)
H7 H 0.273(3) 0.674(2) 0.152(3)
H8 H -0.467(3) 0.819(3) -0.086(3)
H9 H -0.349(3) 1.050(3) 0.032(3)
H10 H 0.747(3) 0.905(3) 0.396(3)
H11 H 0.586(3) 1.026(3) 0.380(3)
H12 H -0.258(3) 0.252(3) 0.529(3)
Cu1A Cu -0.39578(3) 0.55038(3) -0.13058(4)
Cu1_2 Cu -0.60422(3) 0.44962(3) 0.13058(4)
N1A N 0.3006(2) 0.2483(2) 0.0263(2)
O3_2 O 0.58529(17) 0.41456(19) 0.1811(2)
O4A O 0.28291(18) 0.49179(19) -0.07012(19)
O8 O 0.5605(3) 0.2881(3) 0.4708(3)
H13 H 0.472(4) 0.222(4) 0.415(4)
H14 H 0.556(3) 0.350(3) 0.478(3)
loop_
_geom_bond_atom_site_label_1
_geom_bond_atom_site_label_2
_geom_bond_site_symmetry_1
_geom_bond_site_symmetry_2
Cu1 N2 1_555 1_555
C1 C2 1_555 1_555
C2 C3 1_555 1_555
C3 C4 1_555 1_555
C4 C5 1_555 1_555
C5 N1 1_555 1_555
C6 C7 1_555 1_555
C7 C8 1_555 1_555
C8 N4 1_555 1_555
C9 C4 1_555 1_555
C10 C7 1_555 1_555
C11 C10 1_555 1_555
C12 C11 1_555 1_555
C13 C21 1_555 1_555
C14 C19 1_555 1_555
C15 C16 1_555 1_555
C16 C17 1_555 1_555
C17 C21 1_555 1_555
C18 C16 1_555 1_555
C19 C18 1_555 1_555
C20 C19 1_555 1_555
C21 C20 1_555 1_555
N1 C1 1_555 1_555
N2 C6 1_555 1_555
N3 C9 1_555 1_555
N4 N3 1_555 1_555
O1 Cu1 1_555 1_555
O2 C14 1_555 1_555
O3 C15 1_555 1_555
O4 C15 1_555 1_555
O5 C13 1_555 1_555
O6 C13 1_555 1_555
O7 C8 1_555 1_555
H1 C17 1_555 1_555
H2 C18 1_555 1_555
H3 C5 1_555 1_555
H4 C20 1_555 1_555
H5 C12 1_555 1_555
H6 C3 1_555 1_555
H7 C6 1_555 1_555
H8 C1 1_555 1_555
H9 C2 1_555 1_555
H10 C11 1_555 1_555
H11 C10 1_555 1_555
H12 O5 1_555 1_555
O8 H13 1_555 1_555
H14 O8 1_555 1_555
Cu1A N1 1_555 1_555
Cu1_2 O3 1_555 1_555
N1A Cu1 1_555 1_555
O3_2 Cu1 1_555 1_555
O4A Cu1 1_555 1_555
C9 O7 1_555 1_555
C12 N2 1_555 1_555
C14 O1 1_555 1_555
O4 Cu1A 1_555 1_555

#END
