
#######################################################################
#
#                 Cambridge Crystallographic Data Centre
#                                CCDC 
#
#######################################################################
#
# If this CIF has been generated from an entry in the Cambridge 
# Structural Database, then it will include bibliographic, chemical, 
# crystal, experimental, refinement or atomic coordinate data resulting 
# from the CCDC's data processing and validation procedures.
#
#######################################################################

data_KUWREA
_symmetry_cell_setting           monoclinic
_symmetry_space_group_name_H-M   'P 21/c'
_symmetry_Int_Tables_number      14
_space_group_name_Hall           '-P 2ybc'
loop_
_symmetry_equiv_pos_site_id
_symmetry_equiv_pos_as_xyz
1 x,y,z
2 -x,1/2+y,1/2-z
3 -x,-y,-z
4 x,1/2-y,1/2+z
_cell_length_a                   17.7819(13)
_cell_length_b                   17.0410(13)
_cell_length_c                   19.4050(14)
_cell_angle_alpha                90
_cell_angle_beta                 98.5540(10)
_cell_angle_gamma                90
_cell_volume                     5814.72
loop_
_atom_site_label
_atom_site_type_symbol
_atom_site_fract_x
_atom_site_fract_y
_atom_site_fract_z
Co1 Co 0.05409(2) 0.20190(3) 0.34365(2)
C1 C -0.4052(2) -0.0600(2) 0.4624(2)
H1 H -0.4470 -0.0911 0.4673
N1 N 0.06102(17) 0.32694(18) 0.31865(16)
O1 O -0.25981(12) 0.21001(14) 0.48689(13)
Co2 Co -0.36885(2) 0.19374(3) 0.43790(2)
C2 C 0.25535(17) 0.19718(18) 0.26505(16)
H2 H 0.2029 0.1982 0.2521
N2 N -0.35447(15) 0.06783(17) 0.45293(16)
O2 O 0.08697(12) 0.29239(13) 0.48727(12)
Co3 Co 0.19754(2) 0.27378(3) 0.51771(2)
C3 C -0.00132(17) 0.29725(18) 0.59641(16)
H3 H 0.0497 0.3109 0.6071
N3 N -0.17189(14) -0.14667(16) 0.45195(15)
O3 O -0.00404(12) 0.22508(14) 0.42244(11)
C4 C -0.10806(17) 0.25693(18) 0.51256(16)
H4 H -0.1281 0.2422 0.4674
N4 N -0.37546(16) 0.31921(18) 0.41683(16)
O4 O -0.27972(14) 0.2505(2) 0.59188(14)
C5 C 0.28634(17) 0.20082(18) 0.33539(15)
N5 N 0.04862(15) 0.07837(16) 0.36778(15)
O5 O 0.30965(13) 0.21720(16) 0.09364(12)
C6 C -0.03092(16) 0.27549(18) 0.52851(16)
N6 N 0.2767(2) 0.5474(2) 0.2205(2)
O6 O 0.19780(13) 0.19498(16) 0.12223(12)
C7 C -0.27424(18) -0.0453(2) 0.45552(19)
N7 N 0.2017(2) 0.5421(2) 0.2353(2)
O7 O 0.05816(12) 0.32263(15) 0.73592(12)
C8 C 0.36463(17) 0.19759(19) 0.35450(16)
H5 H 0.3855 0.2009 0.4013
N8 N -0.52384(18) 0.55917(19) 0.4029(2)
O8 O -0.05166(13) 0.30272(15) 0.77059(12)
C9 C 0.02126(17) 0.26398(18) 0.47578(16)
N9 N -0.59968(18) 0.57206(19) 0.4115(2)
O9 O -0.41670(14) 0.20079(16) 0.53191(13)
C10 C 0.30264(17) 0.19206(18) 0.21411(16)
N10 N -0.09786(15) -0.14165(17) 0.43542(16)
O10 O -0.32247(13) 0.18545(15) 0.34104(13)
C11 C -0.19914(17) -0.07602(19) 0.44815(18)
N11 N -0.78458(16) 0.39210(16) 0.48282(15)
O11 O 0.52192(12) 0.17897(14) 0.38911(12)
C12 C -0.15529(17) 0.26030(18) 0.56360(16)
N12 N 0.4760(3) 0.3583(3) 0.2108(4)
O12 O 0.16578(12) 0.19679(15) 0.37226(13)
C13 C -0.3354(2) -0.0942(2) 0.4605(2)
H6 H -0.3295 -0.1484 0.4626
O13 O 0.26367(12) 0.23549(14) 0.44855(11)
C14 C -0.01222(17) 0.31022(18) 0.72225(16)
O14 O 0.53769(13) 0.19830(17) 0.27819(13)
C15 C -0.08670(18) -0.0690(2) 0.42301(18)
O15 O -0.57633(13) 0.44528(14) 0.41950(14)
C16 C -0.12498(17) 0.28080(19) 0.63175(17)
H7 H -0.1560 0.2826 0.6663
O16 O 0.25910(15) 0.42816(15) 0.25859(15)
C17 C 0.23467(17) 0.21153(17) 0.38889(16)
O17 O -0.14747(13) -0.02315(13) 0.43037(14)
C18 C 0.26893(18) 0.20071(19) 0.13893(16)
C19 C 0.38115(17) 0.18668(18) 0.23427(16)
H8 H 0.4128 0.1813 0.2005
C20 C 0.41242(17) 0.18933(19) 0.30387(17)
C21 C -0.23818(17) 0.2388(2) 0.54684(17)
C22 C -0.04711(17) 0.29873(18) 0.64786(16)
C23 C 0.49762(17) 0.18836(19) 0.32475(18)
C24 C -0.4437(2) 0.4412(2) 0.4035(2)
C25 C -0.43923(19) 0.3610(2) 0.41852(19)
H9 H -0.4819 0.3357 0.4301
C26 C -0.01818(19) -0.0338(2) 0.40202(19)
C27 C -0.6278(2) 0.5045(2) 0.4216(2)
C28 C -0.01286(18) 0.0459(2) 0.38909(18)
H10 H -0.0534 0.0782 0.3954
C29 C -0.71765(19) 0.4114(2) 0.46230(19)
H11 H -0.6799 0.3734 0.4644
C30 C 0.0427(2) -0.0823(2) 0.3926(2)
H12 H 0.0406 -0.1360 0.4007
C31 C -0.28634(18) 0.0352(2) 0.45248(19)
H13 H -0.2450 0.0679 0.4500
C32 C -0.7028(2) 0.4853(2) 0.43832(19)
C33 C 0.1222(2) 0.3586(2) 0.29692(19)
H14 H 0.1637 0.3265 0.2932
C34 C 0.3085(2) 0.4803(2) 0.2353(2)
C35 C 0.1064(2) 0.0305(2) 0.3586(2)
H15 H 0.1489 0.0520 0.3430
C36 C -0.3148(2) 0.4363(3) 0.3836(2)
H16 H -0.2713 0.4601 0.3719
C37 C 0.1264(2) 0.4386(2) 0.2795(2)
C38 C -0.8384(2) 0.4475(2) 0.4789(2)
H17 H -0.8847 0.4352 0.4931
C39 C 0.1935(2) 0.4720(2) 0.2569(2)
C40 C 0.0008(2) 0.4529(3) 0.3070(2)
H18 H -0.0414 0.4837 0.3116
C41 C -0.3803(2) 0.4795(2) 0.3851(2)
H19 H -0.3821 0.5326 0.3740
C42 C 0.4412(3) 0.5119(3) 0.2290(3)
H20 H 0.4296 0.5641 0.2364
C43 C 0.0013(2) 0.3735(2) 0.3226(2)
H21 H -0.0420 0.3516 0.3365
C44 C 0.1057(2) -0.0490(2) 0.3712(3)
H22 H 0.1474 -0.0799 0.3653
C45 C -0.4131(2) 0.0192(2) 0.4571(2)
H23 H -0.4613 0.0408 0.4564
C46 C -0.5128(2) 0.4847(2) 0.4074(2)
C47 C -0.3147(2) 0.3571(2) 0.3999(2)
H24 H -0.2701 0.3287 0.3989
C48 C 0.0636(3) 0.4857(3) 0.2846(2)
H25 H 0.0640 0.5386 0.2729
C49 C -0.7595(2) 0.5425(2) 0.4341(2)
H26 H -0.7513 0.5926 0.4178
C50 C 0.5114(2) 0.4934(3) 0.2192(3)
H27 H 0.5483 0.5321 0.2186
C51 C 0.3848(2) 0.4555(2) 0.2284(2)
C52 C -0.8278(2) 0.5228(2) 0.4545(2)
H28 H -0.8667 0.5596 0.4521
C53 C 0.5274(3) 0.4197(4) 0.2103(3)
H29 H 0.5766 0.4074 0.2032
C54 C 0.4034(3) 0.3789(3) 0.2202(3)
H30 H 0.3667 0.3402 0.2209
Co1C Co 0.05409(2) 0.29810(3) 0.84365(2)
Co2_2 Co 0.63115(2) 0.19374(3) 0.43790(2)
Co3B Co -0.19754(2) -0.27378(3) 0.48229(2)
Co3C Co 0.19754(2) 0.22622(3) 0.01771(2)
Co3_2 Co -0.80246(2) 0.27378(3) 0.51771(2)
N3B N 0.17189(14) 0.14667(16) 0.54805(15)
O5C O 0.30965(13) 0.28280(16) 0.59364(12)
O6C O 0.19780(13) 0.30502(16) 0.62223(12)
O7C O 0.05816(12) 0.17737(15) 0.23592(12)
O8C O -0.05166(13) 0.19728(15) 0.27059(12)
N11_2 N 0.21542(16) 0.39210(16) 0.48282(15)
O11_2 O -0.47808(12) 0.17897(14) 0.38911(12)
O18 O -0.2665(3) 0.1469(3) 0.7060(3)
O19 O 0.1662(2) 0.4639(2) 0.6774(3)
O20 O -0.1819(2) 0.2657(2) 0.3149(2)
H31 H -0.146(4) 0.236(4) 0.284(3)
H32 H -0.217(3) 0.230(4) 0.325(3)
O21 O -0.5448(2) 0.2913(3) 0.5471(3)
H33 H -0.526(4) 0.361(4) 0.566(3)
H34 H -0.569(3) 0.286(4) 0.559(3)
O22 O -0.2798(4) -0.0080(4) 0.6986(4)
H35 H -0.2973(16) -0.0117(16) 0.7292(16)
loop_
_geom_bond_atom_site_label_1
_geom_bond_atom_site_label_2
_geom_bond_site_symmetry_1
_geom_bond_site_symmetry_2
Co1 N1 1_555 1_555
C1 H1 1_555 1_555
N1 C33 1_555 1_555
O1 Co2 1_555 1_555
Co2 N2 1_555 1_555
C2 H2 1_555 1_555
N2 C31 1_555 1_555
O2 Co3 1_555 1_555
Co3 O13 1_555 1_555
C3 H3 1_555 1_555
N3 N10 1_555 1_555
O3 Co1 1_555 1_555
C4 H4 1_555 1_555
N4 Co2 1_555 1_555
O4 C21 1_555 1_555
C5 C2 1_555 1_555
N5 Co1 1_555 1_555
O5 C18 1_555 1_555
C6 C3 1_555 1_555
N6 N7 1_555 1_555
O6 C18 1_555 1_555
C7 C11 1_555 1_555
N7 C39 1_555 1_555
O7 C14 1_555 1_555
C8 C5 1_555 1_555
H5 C8 1_555 1_555
N8 N9 1_555 1_555
O8 C14 1_555 1_555
C9 O2 1_555 1_555
N9 C27 1_555 1_555
O9 Co2 1_555 1_555
C10 C2 1_555 1_555
N10 C15 1_555 1_555
O10 Co2 1_555 1_555
C11 N3 1_555 1_555
N11 C29 1_555 1_555
O11 C23 1_555 1_555
C12 C4 1_555 1_555
N12 C53 1_555 1_555
O12 Co1 1_555 1_555
C13 C1 1_555 1_555
H6 C13 1_555 1_555
O13 C17 1_555 1_555
C14 C22 1_555 1_555
O14 C23 1_555 1_555
C15 O17 1_555 1_555
O15 C27 1_555 1_555
C16 C12 1_555 1_555
H7 C16 1_555 1_555
O16 C34 1_555 1_555
C17 C5 1_555 1_555
O17 C11 1_555 1_555
C18 C10 1_555 1_555
C19 C10 1_555 1_555
H8 C19 1_555 1_555
C20 C8 1_555 1_555
C21 O1 1_555 1_555
C22 C3 1_555 1_555
C23 C20 1_555 1_555
C24 C25 1_555 1_555
C25 N4 1_555 1_555
H9 C25 1_555 1_555
C26 C15 1_555 1_555
C27 C32 1_555 1_555
C28 N5 1_555 1_555
H10 C28 1_555 1_555
C29 H11 1_555 1_555
C30 C26 1_555 1_555
H12 C30 1_555 1_555
C31 C7 1_555 1_555
H13 C31 1_555 1_555
C32 C29 1_555 1_555
C33 H14 1_555 1_555
C34 N6 1_555 1_555
C35 N5 1_555 1_555
H15 C35 1_555 1_555
C36 H16 1_555 1_555
C37 C33 1_555 1_555
C38 N11 1_555 1_555
H17 C38 1_555 1_555
C39 O16 1_555 1_555
C40 H18 1_555 1_555
C41 C24 1_555 1_555
H19 C41 1_555 1_555
C42 H20 1_555 1_555
C43 N1 1_555 1_555
H21 C43 1_555 1_555
C44 C30 1_555 1_555
H22 C44 1_555 1_555
C45 C1 1_555 1_555
H23 C45 1_555 1_555
C46 N8 1_555 1_555
C47 N4 1_555 1_555
H24 C47 1_555 1_555
C48 C37 1_555 1_555
H25 C48 1_555 1_555
C49 C32 1_555 1_555
H26 C49 1_555 1_555
C50 C42 1_555 1_555
H27 C50 1_555 1_555
C51 C34 1_555 1_555
C52 C38 1_555 1_555
H28 C52 1_555 1_555
C53 C50 1_555 1_555
H29 C53 1_555 1_555
C54 N12 1_555 1_555
H30 C54 1_555 1_555
O20 H31 1_555 1_555
H32 O20 1_555 1_555
O21 H33 1_555 1_555
H34 O21 1_555 1_555
O22 H35 1_555 1_555
Co1C O7 1_555 1_555
Co2_2 O11 1_555 1_555
Co3B N3 1_555 1_555
Co3C O5 1_555 1_555
Co3_2 N11 1_555 1_555
N3B Co3 1_555 1_555
O5C Co3 1_555 1_555
O6C Co3 1_555 1_555
O7C Co1 1_555 1_555
O8C Co1 1_555 1_555
N11_2 Co3 1_555 1_555
O11_2 Co2 1_555 1_555
N2 C45 1_555 1_555
O3 C9 1_555 1_555
C4 C6 1_555 1_555
C6 C9 1_555 1_555
O6 Co3C 1_555 1_555
C7 C13 1_555 1_555
O8 Co1C 1_555 1_555
C12 C21 1_555 1_555
O12 C17 1_555 1_555
O15 C46 1_555 1_555
C16 C22 1_555 1_555
C19 C20 1_555 1_555
C24 C46 1_555 1_555
C26 C28 1_555 1_555
C35 C44 1_555 1_555
C36 C41 1_555 1_555
C36 C47 1_555 1_555
C37 C39 1_555 1_555
C40 C43 1_555 1_555
C40 C48 1_555 1_555
C42 C51 1_555 1_555
C49 C52 1_555 1_555
C51 C54 1_555 1_555

#END
