
#######################################################################
#
#                 Cambridge Crystallographic Data Centre
#                                CCDC 
#
#######################################################################
#
# If this CIF has been generated from an entry in the Cambridge 
# Structural Database, then it will include bibliographic, chemical, 
# crystal, experimental, refinement or atomic coordinate data resulting 
# from the CCDC's data processing and validation procedures.
#
#######################################################################

data_KUWSAX
_symmetry_cell_setting           monoclinic
_symmetry_space_group_name_H-M   'C 2/m'
_symmetry_Int_Tables_number      12
_space_group_name_Hall           '-C 2y'
loop_
_symmetry_equiv_pos_site_id
_symmetry_equiv_pos_as_xyz
1 x,y,z
2 -x,y,-z
3 1/2+x,1/2+y,z
4 1/2-x,1/2+y,-z
5 -x,-y,-z
6 x,-y,z
7 1/2-x,1/2-y,-z
8 1/2+x,1/2-y,z
_cell_length_a                   18.460(2)
_cell_length_b                   23.082(2)
_cell_length_c                   11.8243(13)
_cell_angle_alpha                90
_cell_angle_beta                 113.232(2)
_cell_angle_gamma                90
_cell_volume                     4629.73
loop_
_atom_site_label
_atom_site_type_symbol
_atom_site_fract_x
_atom_site_fract_y
_atom_site_fract_z
O1 O 0.5000 0.1068(5) 0.5000
Cu1 Cu 0.25353(3) 0.17595(2) 0.50442(5)
C1 C 0.3573(3) 0.1899(2) 0.7718(5)
H1 H 0.3917 0.2109 0.7475
C2 C 0.3752(4) 0.1822(3) 0.8963(6)
H2 H 0.4215 0.1974 0.9546
C3 C 0.3248(4) 0.1523(3) 0.9328(6)
H3 H 0.3355 0.1478 1.0160
C4 C 0.2577(4) 0.1287(3) 0.8451(6)
H4 H 0.2234 0.1071 0.8687
C5 C 0.2415(3) 0.1373(2) 0.7217(5)
C6 C 0.1674(3) 0.1171(2) 0.6196(5)
H5 H 0.1263 0.1459 0.6034
H6 H 0.1495 0.0813 0.6432
C7 C 0.1121(3) 0.1139(2) 0.3893(5)
H7 H 0.0775 0.1433 0.3991
H8 H 0.0834 0.0776 0.3687
C8 C 0.1377(3) 0.1311(2) 0.2881(5)
C9 C 0.0955(3) 0.1176(3) 0.1663(5)
H9 H 0.0508 0.0943 0.1431
C10 C 0.1209(4) 0.1392(3) 0.0788(6)
H10 H 0.0928 0.1311 -0.0041
C11 C 0.1872(4) 0.1724(3) 0.1151(6)
H11 H 0.2046 0.1877 0.0574
C12 C 0.2281(3) 0.1830(2) 0.2390(5)
H12 H 0.2742 0.2048 0.2643
C13 C 0.2238(3) 0.05208(19) 0.5126(4)
C14 C 0.3019(3) 0.0518(2) 0.5264(5)
H13 H 0.3281 0.0866 0.5300
C15 C 0.3409(4) 0.0000 0.5349(9)
C16 C 0.1848(3) 0.0000 0.5057(6)
Cl1 Cl 0.34784(7) 0.23830(5) 0.50368(12)
Cl2 Cl 0.43312(8) 0.25413(6) 0.22951(13)
N1 N 0.2910(2) 0.16771(17) 0.6855(4)
N2 N 0.1834(2) 0.10747(15) 0.5063(3)
N3 N 0.2034(2) 0.16288(17) 0.3235(4)
Na1 Na 0.5000 0.20615(14) 0.5000
O2 O 0.4602(3) 0.2868(2) 0.3424(4)
O3 O 0.4443(4) 0.1957(3) 0.2656(5)
O4 O 0.4792(3) 0.2670(3) 0.1618(5)
O5 O 0.3523(3) 0.2649(3) 0.1596(5)
H14 H 0.4845 0.0890 0.4345
H15 H 0.5180 0.0890 0.5700
H16 H 0.1317 0.0000 0.5029
H17 H 0.3950 0.0000 0.5492
Cu1A Cu 0.74647(3) 0.17595(2) 0.49558(5)
Cu1F Cu 0.24647(3) 0.32405(2) 0.49558(5)
Cu1E Cu 0.25353(3) -0.17595(2) 0.50442(5)
Cu1G Cu 0.75353(3) 0.32405(2) 0.50442(5)
C1E C 0.3573(3) -0.1899(2) 0.7718(5)
H1E H 0.3917 -0.2109 0.7475
C2E C 0.3752(4) -0.1822(3) 0.8963(6)
H2E H 0.4215 -0.1974 0.9546
C3E C 0.3248(4) -0.1523(3) 0.9328(6)
H3E H 0.3355 -0.1478 1.0160
C4E C 0.2577(4) -0.1287(3) 0.8451(6)
H4E H 0.2234 -0.1071 0.8687
C5E C 0.2415(3) -0.1373(2) 0.7217(5)
C6E C 0.1674(3) -0.1171(2) 0.6196(5)
H5E H 0.1263 -0.1459 0.6034
H6E H 0.1495 -0.0813 0.6432
C7E C 0.1121(3) -0.1139(2) 0.3893(5)
H7E H 0.0775 -0.1433 0.3991
H8E H 0.0834 -0.0776 0.3687
C8E C 0.1377(3) -0.1311(2) 0.2881(5)
C9E C 0.0955(3) -0.1176(3) 0.1663(5)
H9E H 0.0508 -0.0943 0.1431
C10E C 0.1209(4) -0.1392(3) 0.0788(6)
H10E H 0.0928 -0.1311 -0.0041
C11E C 0.1872(4) -0.1724(3) 0.1151(6)
H11E H 0.2046 -0.1877 0.0574
C12E C 0.2281(3) -0.1830(2) 0.2390(5)
H12E H 0.2742 -0.2048 0.2643
C13E C 0.2238(3) -0.05208(19) 0.5126(4)
C14E C 0.3019(3) -0.0518(2) 0.5264(5)
H13E H 0.3281 -0.0866 0.5300
Cl1A Cl 0.65216(7) 0.23830(5) 0.49632(12)
Cl1F Cl 0.15216(7) 0.26170(5) 0.49632(12)
Cl1G Cl 0.84784(7) 0.26170(5) 0.50368(12)
Cl2A Cl 0.56688(8) 0.25413(6) 0.77049(13)
N1E N 0.2910(2) -0.16771(17) 0.6855(4)
N1A N 0.7090(2) 0.16771(17) 0.3145(4)
N2E N 0.1834(2) -0.10747(15) 0.5063(3)
N2A N 0.8166(2) 0.10747(15) 0.4937(3)
N3E N 0.2034(2) -0.16288(17) 0.3235(4)
N3A N 0.7966(2) 0.16288(17) 0.6765(4)
O2A O 0.5398(3) 0.2868(2) 0.6576(4)
O3A O 0.5557(4) 0.1957(3) 0.7344(5)
O4A O 0.5208(3) 0.2670(3) 0.8382(5)
O5A O 0.6477(3) 0.2649(3) 0.8404(5)
Cl3 Cl 0.07489(14) 0.0000 0.7883(2)
O6 O 0.0376(7) 0.0000 0.6573(9)
O7 O 0.1556(7) 0.0000 0.8039(14)
O8 O 0.0782(7) 0.0615(5) 0.8209(12)
O8E O 0.0782(7) -0.0615(5) 0.8209(12)
O9 O 0.3295(11) 0.0000 0.2109(15)
O10 O 0.4485(12) 0.0000 0.351(2)
O11? O 0.0124(18) 0.0000 0.829(3)
O12? O 0.524(2) 0.0000 0.078(3)
loop_
_geom_bond_atom_site_label_1
_geom_bond_atom_site_label_2
_geom_bond_site_symmetry_1
_geom_bond_site_symmetry_2
O1 Na1 1_555 1_555
Cu1 Cl1 1_555 1_555
C1 H1 1_555 1_555
C2 C1 1_555 1_555
H2 C2 1_555 1_555
C3 C2 1_555 1_555
H3 C3 1_555 1_555
C4 C3 1_555 1_555
H4 C4 1_555 1_555
C5 C4 1_555 1_555
C6 C5 1_555 1_555
H5 C6 1_555 1_555
H6 C6 1_555 1_555
C7 H7 1_555 1_555
H8 C7 1_555 1_555
C8 C7 1_555 1_555
C9 C8 1_555 1_555
H9 C9 1_555 1_555
C10 C9 1_555 1_555
H10 C10 1_555 1_555
C11 C10 1_555 1_555
H11 C11 1_555 1_555
C12 C11 1_555 1_555
H12 C12 1_555 1_555
C13 C14 1_555 1_555
C14 H13 1_555 1_555
C15 C14 1_555 1_555
C16 C13 1_555 1_555
Cl1 Na1 1_555 1_555
Cl2 O2 1_555 1_555
N1 Cu1 1_555 1_555
N2 Cu1 1_555 1_555
N3 Cu1 1_555 1_555
Na1 O2 1_555 1_555
O3 Cl2 1_555 1_555
O4 Cl2 1_555 1_555
O5 Cl2 1_555 1_555
H14 O1 1_555 1_555
H15 O1 1_555 1_555
H16 C16 1_555 1_555
H17 C15 1_555 1_555
Cl3 O6 1_555 1_555
O7 Cl3 1_555 1_555
O8 Cl3 1_555 1_555
Cu1A Cl1A 1_555 1_555
Cu1F Cl1 1_555 1_555
Cu1E N1E 1_555 1_555
Cu1G Cl1A 1_555 1_555
C1E H1E 1_555 1_555
C2E C1E 1_555 1_555
H2E C2E 1_555 1_555
C3E C2E 1_555 1_555
H3E C3E 1_555 1_555
C4E C3E 1_555 1_555
H4E C4E 1_555 1_555
C5E C4E 1_555 1_555
C6E C5E 1_555 1_555
H5E C6E 1_555 1_555
H6E C6E 1_555 1_555
C7E H7E 1_555 1_555
H8E C7E 1_555 1_555
C8E C7E 1_555 1_555
C9E C8E 1_555 1_555
H9E C9E 1_555 1_555
C10E C9E 1_555 1_555
H10E C10E 1_555 1_555
C11E C10E 1_555 1_555
H11E C11E 1_555 1_555
C12E C11E 1_555 1_555
H12E C12E 1_555 1_555
C13E C16 1_555 1_555
C14E C15 1_555 1_555
H13E C14E 1_555 1_555
Cl1A Na1 1_555 1_555
Cl1F Cu1 1_555 1_555
Cl1G Cu1A 1_555 1_555
Cl2A O2A 1_555 1_555
N1E C1E 1_555 1_555
N1A Cu1A 1_555 1_555
N2E Cu1E 1_555 1_555
N2A Cu1A 1_555 1_555
N3E Cu1E 1_555 1_555
N3A Cu1A 1_555 1_555
O2A Na1 1_555 1_555
O3A Na1 1_555 1_555
O4A Cl2A 1_555 1_555
O5A Cl2A 1_555 1_555
O8E Cl3 1_555 1_555
C1 N1 1_555 1_555
C5 N1 1_555 1_555
C6 N2 1_555 1_555
C7 N2 1_555 1_555
C8 N3 1_555 1_555
C12 N3 1_555 1_555
C13 N2 1_555 1_555
Na1 O3 1_555 1_555
Cu1F Cl1F 1_555 1_555
Cu1G Cl1G 1_555 1_555
C5E N1E 1_555 1_555
C6E N2E 1_555 1_555
C7E N2E 1_555 1_555
C8E N3E 1_555 1_555
C12E N3E 1_555 1_555
C13E C14E 1_555 1_555
C13E N2E 1_555 1_555
Cl2A O3A 1_555 1_555

#END
