
#######################################################################
#
#                 Cambridge Crystallographic Data Centre
#                                CCDC 
#
#######################################################################
#
# If this CIF has been generated from an entry in the Cambridge 
# Structural Database, then it will include bibliographic, chemical, 
# crystal, experimental, refinement or atomic coordinate data resulting 
# from the CCDC's data processing and validation procedures.
#
#######################################################################

data_KUWVEE
_symmetry_cell_setting           monoclinic
_symmetry_space_group_name_H-M   'P 21/n'
_symmetry_Int_Tables_number      14
_space_group_name_Hall           '-P 2yn'
loop_
_symmetry_equiv_pos_site_id
_symmetry_equiv_pos_as_xyz
1 x,y,z
2 1/2-x,1/2+y,1/2-z
3 -x,-y,-z
4 1/2+x,1/2-y,1/2+z
_cell_length_a                   8.6597(16)
_cell_length_b                   9.3091(18)
_cell_length_c                   14.083(3)
_cell_angle_alpha                90
_cell_angle_beta                 93.293(3)
_cell_angle_gamma                90
_cell_volume                     1133.41
loop_
_atom_site_label
_atom_site_type_symbol
_atom_site_fract_x
_atom_site_fract_y
_atom_site_fract_z
Co1 Co 0.0000 0.5000 0.5000
S1 S 0.21100(18) 0.57558(18) 0.81444(6)
N1 N 0.0646(2) 0.7072(2) 0.43329(14)
N2 N 0.2926(2) 0.8994(2) 0.05601(14)
N3 N 0.1268(2) 0.5548(3) 0.62280(14)
C1 C 0.0696(3) 0.7213(3) 0.33860(16)
H1 H 0.0277 0.6480 0.3004
C2 C 0.1333(3) 0.8381(3) 0.29430(17)
C3 C 0.1916(4) 0.9485(3) 0.3514(2)
H2 H 0.2363 1.0286 0.3246
C4 C 0.1826(4) 0.9384(3) 0.4486(2)
H3 H 0.2184 1.0127 0.4881
C5 C 0.1196(3) 0.8165(3) 0.48640(18)
H4 H 0.1152 0.8102 0.5521
C6 C 0.2737(3) 0.8910(3) 0.14975(17)
H5 H 0.3548 0.9211 0.1911
C7 C 0.1408(3) 0.8401(3) 0.18904(17)
C8 C 0.0229(3) 0.7910(3) 0.12689(19)
H6 H -0.0679 0.7549 0.1498
C9 C 0.0420(3) 0.7964(4) 0.0305(2)
H7 H -0.0353 0.7625 -0.0123
C10 C 0.1767(3) 0.8525(3) -0.00201(18)
H8 H 0.1870 0.8578 -0.0673
C11 C 0.1642(3) 0.5653(3) 0.70208(18)
Co1A Co -0.5000 0.0000 1.0000
Co1A_2 Co 0.5000 1.0000 0.0000
S1B S -0.21100(18) 0.42442(18) 0.18556(6)
N1B N -0.0646(2) 0.2928(2) 0.56671(14)
N2B N -0.2926(2) 0.1006(2) 0.94399(14)
N2A N 0.2074(2) 0.3994(2) 0.44399(14)
N2C N -0.2074(2) 0.6006(2) 0.55601(14)
N3B N -0.1268(2) 0.4452(3) 0.37720(14)
C1B C -0.0696(3) 0.2787(3) 0.66140(16)
H1B H -0.0277 0.3520 0.6996
C2B C -0.1333(3) 0.1619(3) 0.70570(17)
C3B C -0.1916(4) 0.0515(3) 0.6486(2)
H2B H -0.2363 -0.0286 0.6754
C4B C -0.1826(4) 0.0616(3) 0.5514(2)
H3B H -0.2184 -0.0127 0.5119
C5B C -0.1196(3) 0.1835(3) 0.51360(18)
H4B H -0.1152 0.1898 0.4479
C6B C -0.2737(3) 0.1090(3) 0.85025(17)
H5B H -0.3548 0.0789 0.8089
C7B C -0.1408(3) 0.1599(3) 0.81096(17)
C8B C -0.0229(3) 0.2090(3) 0.87311(19)
H6B H 0.0679 0.2451 0.8502
C9B C -0.0420(3) 0.2036(4) 0.9695(2)
H7B H 0.0353 0.2375 1.0123
C10B C -0.1767(3) 0.1475(3) 1.00201(18)
H8B H -0.1870 0.1422 1.0673
C11B C -0.1642(3) 0.4347(3) 0.29792(18)
loop_
_geom_bond_atom_site_label_1
_geom_bond_atom_site_label_2
_geom_bond_site_symmetry_1
_geom_bond_site_symmetry_2
Co1 N1 1_555 1_555
S1 C11 1_555 1_555
N1 C1 1_555 1_555
N2 C6 1_555 1_555
N3 Co1 1_555 1_555
C1 H1 1_555 1_555
C2 C1 1_555 1_555
C3 C2 1_555 1_555
H2 C3 1_555 1_555
C4 C3 1_555 1_555
H3 C4 1_555 1_555
C5 N1 1_555 1_555
H4 C5 1_555 1_555
C6 H5 1_555 1_555
C7 C2 1_555 1_555
C8 C7 1_555 1_555
H6 C8 1_555 1_555
C9 C8 1_555 1_555
H7 C9 1_555 1_555
C10 N2 1_555 1_555
H8 C10 1_555 1_555
C11 N3 1_555 1_555
Co1A N2B 1_555 1_555
Co1A_2 N2 1_555 1_555
S1B C11B 1_555 1_555
N1B Co1 1_555 1_555
N2B C6B 1_555 1_555
N2A Co1 1_555 1_555
N2C Co1 1_555 1_555
N3B Co1 1_555 1_555
C1B N1B 1_555 1_555
H1B C1B 1_555 1_555
C2B C1B 1_555 1_555
C3B C2B 1_555 1_555
H2B C3B 1_555 1_555
C4B C3B 1_555 1_555
H3B C4B 1_555 1_555
C5B N1B 1_555 1_555
H4B C5B 1_555 1_555
C6B H5B 1_555 1_555
C7B C2B 1_555 1_555
C8B C7B 1_555 1_555
H6B C8B 1_555 1_555
C9B C8B 1_555 1_555
H7B C9B 1_555 1_555
C10B N2B 1_555 1_555
H8B C10B 1_555 1_555
C11B N3B 1_555 1_555
C4 C5 1_555 1_555
C6 C7 1_555 1_555
C9 C10 1_555 1_555
C4B C5B 1_555 1_555
C6B C7B 1_555 1_555
C9B C10B 1_555 1_555

#END
