
#######################################################################
#
#                 Cambridge Crystallographic Data Centre
#                                CCDC 
#
#######################################################################
#
# If this CIF has been generated from an entry in the Cambridge 
# Structural Database, then it will include bibliographic, chemical, 
# crystal, experimental, refinement or atomic coordinate data resulting 
# from the CCDC's data processing and validation procedures.
#
#######################################################################

data_KUXCUD
_symmetry_cell_setting           triclinic
_symmetry_space_group_name_H-M   'P -1'
_symmetry_Int_Tables_number      2
_space_group_name_Hall           '-P 1'
loop_
_symmetry_equiv_pos_site_id
_symmetry_equiv_pos_as_xyz
1 x,y,z
2 -x,-y,-z
_cell_length_a                   8.1066(15)
_cell_length_b                   11.540(2)
_cell_length_c                   18.120(4)
_cell_angle_alpha                79.999(4)
_cell_angle_beta                 83.830(4)
_cell_angle_gamma                82.963(4)
_cell_volume                     1650.34
loop_
_atom_site_label
_atom_site_type_symbol
_atom_site_fract_x
_atom_site_fract_y
_atom_site_fract_z
Sm1 Sm 0.32070(4) 0.29232(3) 0.773720(19)
O1 O 0.3371(8) 0.4846(5) 0.6976(3)
N1 N 0.5749(8) 0.9040(5) 0.7049(3)
C1 C 0.3405(9) 0.5375(6) 0.6309(4)
S1 S 0.4560(2) 0.70185(15) 0.69724(10)
O2 O 0.1811(7) 0.1852(5) 0.8862(3)
H1 H 0.2272 0.1188 0.9064
H2 H 0.1824 0.1841 0.8393
Cu1 Cu 0.22420(10) 0.34277(7) 0.58203(5)
N2 N 0.6579(8) 0.9981(5) 0.6672(3)
C2 C 0.4007(12) 0.6584(6) 0.6129(4)
H3 H 0.3137 0.7153 0.5912
H4 H 0.4972 0.6572 0.5763
O3 O 0.2975(7) 0.4993(4) 0.5754(3)
S2 S 0.6188(3) 0.87298(16) 0.56762(10)
O4 O 0.1479(9) 0.3857(5) 0.4636(3)
H5 H 0.1510 0.3286 0.4393
H6 H 0.1008 0.4469 0.4377
Cu2 Cu 0.47963(14) 0.91050(8) 0.80604(5)
S3 S 0.7803(2) 1.10079(15) 0.52981(10)
N3 N -0.0789(9) 0.6644(6) 0.6960(4)
O5 O 0.5295(7) 1.2782(5) 0.6707(3)
C3 C 0.5481(9) 0.8311(6) 0.6606(4)
N4 N 0.0049(8) 0.7642(6) 0.6863(4)
O6 O 0.4549(7) 1.2738(5) 0.5570(3)
C4 C 0.6858(9) 0.9942(6) 0.5960(4)
S4 S -0.2320(3) 0.50545(17) 0.80088(12)
C5 C 0.7429(9) 1.2256(6) 0.5801(4)
H7 H 0.8042 1.2069 0.6245
H8 H 0.7874 1.2932 0.5483
O7 O 0.0520(7) 0.3515(6) 0.7382(4)
N5 N 0.3722(9) 0.8656(6) 0.9057(4)
S5 S -0.0719(3) 0.71446(19) 0.82850(12)
O8 O -0.0040(7) 0.4069(5) 0.6197(3)
N6 N 0.3370(9) 0.9528(5) 0.9510(4)
C6 C 0.5604(9) 1.2604(6) 0.6043(4)
S6 S 0.1217(2) 0.91945(16) 0.75957(11)
O9 O 0.2419(8) 1.1388(5) 0.7125(3)
C7 C -0.0397(9) 0.3986(6) 0.6902(4)
S7 S 0.3570(3) 0.64007(18) 0.89399(12)
O10 O 0.1556(7) 1.1828(4) 0.5974(3)
C8 C -0.2171(9) 0.4479(7) 0.7143(4)
H9 H -0.2899 0.3857 0.7199
H10 H -0.2558 0.5105 0.6749
S8 S 0.2273(3) 0.76587(17) 1.02731(11)
O11 O 0.2790(8) 0.4261(5) 0.8611(3)
C9 C -0.1249(9) 0.6288(6) 0.7671(4)
S9 S 0.1951(3) 1.00762(17) 1.08111(11)
C10 C 0.0205(9) 0.7986(6) 0.7503(4)
O12 O 0.1523(11) 0.3502(6) 0.9716(4)
O13 O 0.4976(7) 0.9014(4) 1.1881(3)
C11 C 0.1319(11) 0.9910(6) 0.6626(5)
H11 H 0.2137 0.9460 0.6326
H12 H 0.0243 0.9945 0.6431
O14 O 0.4113(7) 0.7344(5) 1.1722(3)
C12 C 0.1806(9) 1.1159(6) 0.6574(5)
C13 C 0.2233(11) 0.4283(7) 0.9284(5)
C14 C 0.2393(12) 0.5371(7) 0.9617(5)
H13 H 0.2960 0.5146 1.0073
H14 H 0.1292 0.5754 0.9746
C15 C 0.3229(10) 0.7630(6) 0.9384(4)
C16 C 0.2615(10) 0.9139(6) 1.0154(4)
C17 C 0.2105(10) 0.9043(7) 1.1682(4)
H15 H 0.1776 0.9465 1.2103
H16 H 0.1338 0.8453 1.1704
C18 C 0.3856(9) 0.8428(6) 1.1757(4)
Sm1_2 Sm 0.32070(4) 1.29232(3) 0.773720(19)
Sm1A Sm 0.67930(4) 0.70768(3) 1.226280(19)
Cu1_2 Cu 0.22420(10) 1.34277(7) 0.58203(5)
Cu2A Cu 0.52037(14) 1.08950(8) 1.19396(5)
O5_2 O 0.5295(7) 0.2782(5) 0.6707(3)
O6_2 O 0.4549(7) 0.2738(5) 0.5570(3)
O9_2 O 0.2419(8) 0.1388(5) 0.7125(3)
O10_2 O 0.1556(7) 0.1828(4) 0.5974(3)
O13A O 0.5024(7) 0.0986(4) 0.8119(3)
O13A_2 O 0.5024(7) 1.0986(4) 0.8119(3)
O14A O 0.5887(7) 0.2656(5) 0.8278(3)
loop_
_geom_bond_atom_site_label_1
_geom_bond_atom_site_label_2
_geom_bond_site_symmetry_1
_geom_bond_site_symmetry_2
Sm1 O1 1_555 1_555
O1 C1 1_555 1_555
N1 N2 1_555 1_555
C1 C2 1_555 1_555
S1 C2 1_555 1_555
O2 Sm1 1_555 1_555
H1 O2 1_555 1_555
H2 O2 1_555 1_555
Cu1 O3 1_555 1_555
N2 C4 1_555 1_555
C2 H3 1_555 1_555
H4 C2 1_555 1_555
O3 C1 1_555 1_555
S2 C3 1_555 1_555
O4 Cu1 1_555 1_555
H5 O4 1_555 1_555
H6 O4 1_555 1_555
Cu2 N1 1_555 1_555
S3 C4 1_555 1_555
N3 N4 1_555 1_555
O5 C6 1_555 1_555
C3 N1 1_555 1_555
N4 C10 1_555 1_555
O6 C6 1_555 1_555
C4 S2 1_555 1_555
S4 C8 1_555 1_555
C5 S3 1_555 1_555
H7 C5 1_555 1_555
H8 C5 1_555 1_555
O7 Sm1 1_555 1_555
N5 Cu2 1_555 1_555
S5 C9 1_555 1_555
O8 Cu1 1_555 1_555
N6 N5 1_555 1_555
C6 C5 1_555 1_555
S6 C10 1_555 1_555
O9 C12 1_555 1_555
C7 O7 1_555 1_555
S7 C14 1_555 1_555
O10 C12 1_555 1_555
C8 C7 1_555 1_555
H9 C8 1_555 1_555
H10 C8 1_555 1_555
S8 C15 1_555 1_555
O11 Sm1 1_555 1_555
C9 N3 1_555 1_555
S9 C16 1_555 1_555
C10 S5 1_555 1_555
O12 C13 1_555 1_555
O13 C18 1_555 1_555
C11 S6 1_555 1_555
H11 C11 1_555 1_555
H12 C11 1_555 1_555
O14 C18 1_555 1_555
C12 C11 1_555 1_555
C13 O11 1_555 1_555
C14 C13 1_555 1_555
H13 C14 1_555 1_555
H14 C14 1_555 1_555
C15 N5 1_555 1_555
C16 N6 1_555 1_555
C17 S9 1_555 1_555
H15 C17 1_555 1_555
H16 C17 1_555 1_555
C18 C17 1_555 1_555
Sm1_2 O5 1_555 1_555
Sm1A O13 1_555 1_555
Cu1_2 O6 1_555 1_555
Cu2A O13 1_555 1_555
O5_2 Sm1 1_555 1_555
O6_2 Cu1 1_555 1_555
O9_2 Sm1 1_555 1_555
O10_2 Cu1 1_555 1_555
O13A Sm1 1_555 1_555
O13A_2 Cu2 1_555 1_555
O14A Sm1 1_555 1_555
S1 C3 1_555 1_555
S4 C9 1_555 1_555
O8 C7 1_555 1_555
O9 Sm1_2 1_555 1_555
S7 C15 1_555 1_555
O10 Cu1_2 1_555 1_555
S8 C16 1_555 1_555
O14 Sm1A 1_555 1_555
Sm1_2 O13A_2 1_555 1_555

#END
