
#######################################################################
#
#                 Cambridge Crystallographic Data Centre
#                                CCDC 
#
#######################################################################
#
# If this CIF has been generated from an entry in the Cambridge 
# Structural Database, then it will include bibliographic, chemical, 
# crystal, experimental, refinement or atomic coordinate data resulting 
# from the CCDC's data processing and validation procedures.
#
#######################################################################

data_KUXDIS
_symmetry_cell_setting           triclinic
_symmetry_space_group_name_H-M   'P -1'
_symmetry_Int_Tables_number      2
_space_group_name_Hall           '-P 1'
loop_
_symmetry_equiv_pos_site_id
_symmetry_equiv_pos_as_xyz
1 x,y,z
2 -x,-y,-z
_cell_length_a                   8.1002(5)
_cell_length_b                   11.5085(6)
_cell_length_c                   18.0508(10)
_cell_angle_alpha                79.9850(10)
_cell_angle_beta                 84.0530(10)
_cell_angle_gamma                82.8820(10)
_cell_volume                     1638.5
loop_
_atom_site_label
_atom_site_type_symbol
_atom_site_fract_x
_atom_site_fract_y
_atom_site_fract_z
Tb1 Tb 0.17719(3) 0.208204(18) 0.727157(12)
O1 O 0.3166(4) 0.3141(3) 0.61846(18)
H1 H 0.2823 0.3847 0.5993
H2 H 0.3879 0.2861 0.5864
O2 O 0.2591(4) 0.3594(3) 0.7858(2)
C1 C 0.3195(5) 0.3844(4) 0.8417(3)
N1 N 0.4902(5) 0.7371(3) 0.8117(2)
S1 S 0.37725(15) 0.58023(10) 0.73900(7)
Cu1 Cu 0.27544(7) 0.15742(4) 0.91793(3)
O3 O 0.3421(4) 0.3173(3) 0.90294(19)
O4 O 0.3552(5) 0.1145(3) 1.03612(19)
H3 H 0.3555 0.1718 1.0601
H4 H 0.4014 0.0525 1.0621
N2 N 0.5767(5) 0.8362(3) 0.8018(2)
C2 C 0.3675(6) 0.5089(4) 0.8361(3)
H5 H 0.4753 0.5056 0.8557
H6 H 0.2857 0.5542 0.8660
S2 S 0.57145(18) 0.78502(11) 0.67006(7)
Cu2 Cu 0.01716(8) -0.40967(5) 0.69349(3)
O5 O 0.4431(4) 1.1457(3) 0.7602(2)
N3 N -0.0770(5) -0.4037(3) 0.7949(2)
C3 C 0.4773(6) 0.7017(4) 0.7488(3)
S3 S 0.73014(16) 0.99540(10) 0.69759(7)
N4 N -0.1606(5) -0.4981(3) 0.8324(2)
O6 O 0.5026(4) 1.0949(3) 0.87931(19)
C4 C 0.6225(6) 0.8713(4) 0.7312(3)
S4 S 0.04112(15) -0.20103(10) 0.80225(6)
O7 O 0.1558(4) 0.0176(3) 0.80153(19)
C5 C 0.7137(6) 1.0531(4) 0.7838(3)
H7 H 0.7552 0.9909 0.8231
H8 H 0.7847 1.1166 0.7778
N5 N 0.1249(5) -0.3643(3) 0.5943(2)
S5 S -0.12050(15) -0.37289(10) 0.93256(6)
S6 S -0.28157(14) -0.60115(9) 0.97021(6)
O8 O 0.2030(4) 0.0012(3) 0.92388(18)
C6 C 0.5379(6) 1.1001(4) 0.8092(3)
N6 N 0.1612(5) -0.4520(3) 0.5486(2)
O9 O -0.0288(4) -0.7750(3) 0.82777(17)
C7 C 0.1576(6) -0.0354(4) 0.8678(3)
S7 S 0.14042(17) -0.13850(10) 0.60647(7)
S8 S 0.27361(18) -0.26493(10) 0.47354(7)
O10 O 0.0436(4) -0.7745(3) 0.94305(17)
C8 C 0.0953(7) -0.1566(4) 0.8860(3)
H9 H -0.0018 -0.1542 0.9223
H10 H 0.1814 -0.2141 0.9086
O11 O 0.2193(4) 0.0756(3) 0.64050(18)
C9 C -0.0508(5) -0.3297(4) 0.8389(2)
S9 S 0.30618(18) -0.50647(10) 0.41893(7)
O12 O 0.3480(6) 0.1518(3) 0.5311(2)
C10 C -0.1884(5) -0.4937(3) 0.9036(2)
O13 O 0.0865(4) -0.2334(3) 0.32749(18)
C11 C -0.2429(5) -0.7251(4) 0.9188(3)
H11 H -0.2877 -0.7933 0.9501
H12 H -0.3040 -0.7054 0.8740
O14 O 0.0018(4) -0.4004(3) 0.31179(17)
C12 C -0.0596(5) -0.7605(3) 0.8945(2)
C13 C 0.2759(6) 0.0736(4) 0.5734(3)
C14 C 0.2581(7) -0.0356(4) 0.5397(3)
H13 H 0.3680 -0.0744 0.5267
H14 H 0.2013 -0.0122 0.4939
C15 C 0.1747(6) -0.2624(4) 0.5618(2)
C16 C 0.2381(6) -0.4124(4) 0.4843(2)
C17 C 0.2894(6) -0.4020(4) 0.3324(3)
H15 H 0.3243 -0.4432 0.2900
H16 H 0.3644 -0.3420 0.3312
C18 C 0.1155(6) -0.3424(4) 0.3242(2)
Tb1_2 Tb 0.17719(3) -0.791796(18) 0.727157(12)
Tb1_3 Tb 0.17719(3) 1.208204(18) 0.727157(12)
Tb1A Tb -0.17719(3) -0.208204(18) 0.272843(12)
Cu1_2 Cu 0.27544(7) -0.84258(4) 0.91793(3)
Cu1_3 Cu 0.27544(7) 1.15742(4) 0.91793(3)
Cu2A Cu -0.01716(8) -0.59033(5) 0.30651(3)
O5_2 O 0.4431(4) 0.1457(3) 0.7602(2)
O6_2 O 0.5026(4) 0.0949(3) 0.87931(19)
O9_2 O -0.0288(4) 0.2250(3) 0.82777(17)
O10_2 O 0.0436(4) 0.2255(3) 0.94305(17)
O13A O -0.0865(4) 0.2334(3) 0.67251(18)
O14A O -0.0018(4) -0.5996(3) 0.68821(17)
O14A_2 O -0.0018(4) 0.4004(3) 0.68821(17)
loop_
_geom_bond_atom_site_label_1
_geom_bond_atom_site_label_2
_geom_bond_site_symmetry_1
_geom_bond_site_symmetry_2
Tb1 O1 1_555 1_555
O1 H1 1_555 1_555
H2 O1 1_555 1_555
O2 Tb1 1_555 1_555
C1 O2 1_555 1_555
N1 N2 1_555 1_555
S1 C2 1_555 1_555
Cu1 O3 1_555 1_555
O3 C1 1_555 1_555
O4 Cu1 1_555 1_555
H3 O4 1_555 1_555
H4 O4 1_555 1_555
N2 C4 1_555 1_555
C2 C1 1_555 1_555
H5 C2 1_555 1_555
H6 C2 1_555 1_555
S2 C3 1_555 1_555
Cu2 N3 1_555 1_555
O5 C6 1_555 1_555
N3 N4 1_555 1_555
C3 N1 1_555 1_555
S3 C4 1_555 1_555
N4 C10 1_555 1_555
O6 C6 1_555 1_555
C4 S2 1_555 1_555
S4 C8 1_555 1_555
O7 Tb1 1_555 1_555
C5 S3 1_555 1_555
H7 C5 1_555 1_555
H8 C5 1_555 1_555
N5 Cu2 1_555 1_555
S5 C9 1_555 1_555
S6 C10 1_555 1_555
O8 Cu1 1_555 1_555
C6 C5 1_555 1_555
N6 N5 1_555 1_555
O9 C12 1_555 1_555
C7 O7 1_555 1_555
S7 C14 1_555 1_555
S8 C15 1_555 1_555
O10 C12 1_555 1_555
C8 C7 1_555 1_555
H9 C8 1_555 1_555
H10 C8 1_555 1_555
O11 Tb1 1_555 1_555
C9 N3 1_555 1_555
S9 C16 1_555 1_555
O12 C13 1_555 1_555
C10 S5 1_555 1_555
O13 C18 1_555 1_555
C11 S6 1_555 1_555
H11 C11 1_555 1_555
H12 C11 1_555 1_555
O14 C18 1_555 1_555
C12 C11 1_555 1_555
C13 O11 1_555 1_555
C14 C13 1_555 1_555
H13 C14 1_555 1_555
H14 C14 1_555 1_555
C15 N5 1_555 1_555
C16 N6 1_555 1_555
C17 S9 1_555 1_555
H15 C17 1_555 1_555
H16 C17 1_555 1_555
C18 C17 1_555 1_555
Tb1_2 O9 1_555 1_555
Tb1_3 O5 1_555 1_555
Tb1A O13 1_555 1_555
Cu1_2 O10 1_555 1_555
Cu1_3 O6 1_555 1_555
Cu2A O14 1_555 1_555
O5_2 Tb1 1_555 1_555
O6_2 Cu1 1_555 1_555
O9_2 Tb1 1_555 1_555
O10_2 Cu1 1_555 1_555
O13A Tb1 1_555 1_555
O14A Cu2 1_555 1_555
O14A_2 Tb1 1_555 1_555
S1 C3 1_555 1_555
S4 C9 1_555 1_555
O8 C7 1_555 1_555
S7 C15 1_555 1_555
S8 C16 1_555 1_555
O14 Tb1A 1_555 1_555
Tb1_2 O14A 1_555 1_555

#END
