
#######################################################################
#
#                 Cambridge Crystallographic Data Centre
#                                CCDC 
#
#######################################################################
#
# If this CIF has been generated from an entry in the Cambridge 
# Structural Database, then it will include bibliographic, chemical, 
# crystal, experimental, refinement or atomic coordinate data resulting 
# from the CCDC's data processing and validation procedures.
#
#######################################################################

data_KUXDOY
_symmetry_cell_setting           triclinic
_symmetry_space_group_name_H-M   'P -1'
_symmetry_Int_Tables_number      2
_space_group_name_Hall           '-P 1'
loop_
_symmetry_equiv_pos_site_id
_symmetry_equiv_pos_as_xyz
1 x,y,z
2 -x,-y,-z
_cell_length_a                   8.0977(4)
_cell_length_b                   11.5000(6)
_cell_length_c                   18.0302(9)
_cell_angle_alpha                79.9800(10)
_cell_angle_beta                 84.1560(10)
_cell_angle_gamma                82.8540(10)
_cell_volume                     1635.05
loop_
_atom_site_label
_atom_site_type_symbol
_atom_site_fract_x
_atom_site_fract_y
_atom_site_fract_z
Dy1 Dy 0.176598(17) 0.208334(12) 0.727428(8)
Cu1 Cu 0.27523(5) 0.15752(3) 0.91789(2)
O1 O 0.4415(3) 0.1449(2) 0.75973(15)
O2 O 0.3158(3) 0.3142(2) 0.61978(14)
H1 H 0.2722 0.3752 0.5918
H2 H 0.4007 0.2851 0.5947
C1 C 0.5376(4) 0.1001(3) 0.80918(19)
N1 N 0.5762(4) -0.1632(3) 0.80131(17)
S1 S 0.72952(11) -0.00442(8) 0.69722(5)
Cu2 Cu 0.01616(6) 0.59061(4) 0.69333(2)
O3 O 0.3554(4) 0.1142(2) 1.03615(15)
H3 H 0.3475 0.1702 1.0620
H4 H 0.4076 0.0534 1.0609
C2 C 0.7132(4) 0.0535(3) 0.78411(19)
H5 H 0.7550 -0.0087 0.8234
H6 H 0.7839 0.1172 0.7782
O4 O 0.5022(3) 0.0956(2) 0.87931(14)
N2 N 0.4901(4) -0.2631(3) 0.81172(17)
S2 S 0.57094(13) -0.21530(8) 0.66949(5)
O5 O 0.2602(3) -0.6417(2) 0.78582(15)
C3 C 0.6231(4) -0.1285(3) 0.7309(2)
N3 N -0.1616(4) 0.5020(2) 0.83249(16)
S3 S 0.37688(11) -0.42004(7) 0.73863(5)
S4 S -0.28169(10) 0.39885(7) 0.97014(5)
O6 O 0.3415(3) -0.6821(2) 0.90284(14)
C4 C 0.4766(4) -0.2983(3) 0.74835(19)
N4 N -0.0780(3) 0.5965(2) 0.79497(15)
O7 O -0.0288(3) 0.2257(2) 0.82768(13)
C5 C 0.3666(4) -0.4913(3) 0.83582(19)
H7 H 0.4742 -0.4948 0.8558
H8 H 0.2846 -0.4459 0.8656
N5 N -0.1239(4) 0.3642(2) 0.40599(16)
S5 S -0.12090(11) 0.62739(7) 0.93256(5)
O8 O 0.0435(3) 0.2253(2) 0.94318(13)
C6 C 0.3183(4) -0.6157(3) 0.8411(2)
N6 N -0.1613(4) 0.4512(2) 0.45149(16)
S6 S 0.04008(11) 0.79908(7) 0.80201(5)
C7 C -0.0608(4) 0.2403(3) 0.89453(18)
O9 O 0.1548(3) 1.0184(2) 0.80172(14)
S7 S -0.13969(12) 0.13790(8) 0.39350(5)
S8 S -0.27373(13) 0.26435(8) 0.52657(5)
O10 O 0.2033(3) 1.0009(2) 0.92355(14)
C8 C -0.2440(4) 0.2752(3) 0.91857(19)
H9 H -0.2885 0.2068 0.9498
H10 H -0.3052 0.2950 0.8737
O11 O -0.2192(3) -0.0759(2) 0.35866(14)
C9 C -0.1890(4) 0.5060(3) 0.90392(17)
S9 S -0.30672(12) 0.50613(8) 0.58110(5)
O12 O -0.3491(5) -0.1517(3) 0.46814(17)
C10 C -0.0517(4) 0.6708(3) 0.83909(17)
O13 O -0.0857(3) 0.2330(2) 0.67312(13)
C11 C 0.0957(5) 0.8436(3) 0.88631(19)
H11 H -0.0007 0.8453 0.9229
H12 H 0.1828 0.7863 0.9085
O14 O -0.0016(3) 0.40087(19) 0.68843(13)
C12 C 0.1564(4) 0.9649(3) 0.86788(19)
C13 C -0.2758(5) -0.0741(3) 0.4257(2)
C14 C -0.2570(5) 0.0357(3) 0.4600(2)
H13 H -0.1998 0.0118 0.5059
H14 H -0.3666 0.0748 0.4732
C15 C -0.1744(4) 0.2619(3) 0.43804(18)
C16 C -0.2378(4) 0.4124(3) 0.51541(18)
C17 C -0.2902(4) 0.4010(3) 0.66781(19)
H15 H -0.3262 0.4418 0.7104
H16 H -0.3642 0.3405 0.6687
C18 C -0.1144(4) 0.3422(3) 0.67618(17)
Dy1_2 Dy 0.176598(17) -0.791666(12) 0.727428(8)
Dy1_3 Dy 0.176598(17) 1.208334(12) 0.727428(8)
Dy1A Dy -0.176598(17) -0.208334(12) 0.272572(8)
Cu1_2 Cu 0.27523(5) -0.84248(3) 0.91789(2)
Cu1_3 Cu 0.27523(5) 1.15752(3) 0.91789(2)
Cu2A Cu -0.01616(6) 0.40939(4) 0.30667(2)
O5_2 O 0.2602(3) 0.3583(2) 0.78582(15)
O6_2 O 0.3415(3) 0.3179(2) 0.90284(14)
N5A N 0.1239(4) 0.6358(2) 0.59401(16)
O9_2 O 0.1548(3) 0.0184(2) 0.80172(14)
O10_2 O 0.2033(3) 0.0009(2) 0.92355(14)
O11A O 0.2192(3) 0.0759(2) 0.64134(14)
loop_
_geom_bond_atom_site_label_1
_geom_bond_atom_site_label_2
_geom_bond_site_symmetry_1
_geom_bond_site_symmetry_2
Dy1 O1 1_555 1_555
Cu1 O3 1_555 1_555
O1 C1 1_555 1_555
O2 Dy1 1_555 1_555
H1 O2 1_555 1_555
H2 O2 1_555 1_555
C1 C2 1_555 1_555
N1 N2 1_555 1_555
S1 C2 1_555 1_555
Cu2 N4 1_555 1_555
O3 H3 1_555 1_555
H4 O3 1_555 1_555
C2 H5 1_555 1_555
H6 C2 1_555 1_555
O4 Cu1 1_555 1_555
N2 C4 1_555 1_555
S2 C3 1_555 1_555
O5 C6 1_555 1_555
C3 N1 1_555 1_555
N3 N4 1_555 1_555
S3 C4 1_555 1_555
S4 C8 1_555 1_555
O6 C6 1_555 1_555
C4 S2 1_555 1_555
N4 C10 1_555 1_555
O7 Dy1 1_555 1_555
C5 S3 1_555 1_555
H7 C5 1_555 1_555
H8 C5 1_555 1_555
N5 N6 1_555 1_555
S5 C9 1_555 1_555
O8 Cu1 1_555 1_555
C6 C5 1_555 1_555
N6 C16 1_555 1_555
S6 C10 1_555 1_555
C7 O7 1_555 1_555
O9 C12 1_555 1_555
S7 C14 1_555 1_555
S8 C15 1_555 1_555
O10 C12 1_555 1_555
C8 C7 1_555 1_555
H9 C8 1_555 1_555
H10 C8 1_555 1_555
O11 C13 1_555 1_555
C9 N3 1_555 1_555
S9 C16 1_555 1_555
O12 C13 1_555 1_555
C10 S5 1_555 1_555
O13 Dy1 1_555 1_555
C11 S6 1_555 1_555
H11 C11 1_555 1_555
H12 C11 1_555 1_555
O14 Dy1 1_555 1_555
C12 C11 1_555 1_555
C13 C14 1_555 1_555
C14 H13 1_555 1_555
H14 C14 1_555 1_555
C15 N5 1_555 1_555
C16 S8 1_555 1_555
C17 S9 1_555 1_555
H15 C17 1_555 1_555
H16 C17 1_555 1_555
C18 O13 1_555 1_555
Dy1_2 O5 1_555 1_555
Dy1_3 O9 1_555 1_555
Dy1A O11 1_555 1_555
Cu1_2 O6 1_555 1_555
Cu1_3 O10 1_555 1_555
Cu2A N5 1_555 1_555
O5_2 Dy1 1_555 1_555
O6_2 Cu1 1_555 1_555
N5A Cu2 1_555 1_555
O9_2 Dy1 1_555 1_555
O10_2 Cu1 1_555 1_555
O11A Dy1 1_555 1_555
C1 O4 1_555 1_555
S1 C3 1_555 1_555
Cu2 O14 1_555 1_555
S4 C9 1_555 1_555
O8 C7 1_555 1_555
S7 C15 1_555 1_555
O14 C18 1_555 1_555
C17 C18 1_555 1_555

#END
