
#######################################################################
#
#                 Cambridge Crystallographic Data Centre
#                                CCDC 
#
#######################################################################
#
# If this CIF has been generated from an entry in the Cambridge 
# Structural Database, then it will include bibliographic, chemical, 
# crystal, experimental, refinement or atomic coordinate data resulting 
# from the CCDC's data processing and validation procedures.
#
#######################################################################

data_KUXDOW
_symmetry_cell_setting           triclinic
_symmetry_space_group_name_H-M   'P -1'
_symmetry_Int_Tables_number      2
_space_group_name_Hall           '-P 1'
loop_
_symmetry_equiv_pos_site_id
_symmetry_equiv_pos_as_xyz
1 x,y,z
2 -x,-y,-z
_cell_length_a                   22.01(2)
_cell_length_b                   19.98(1)
_cell_length_c                   16.48(1)
_cell_angle_alpha                94.49(6)
_cell_angle_beta                 92.46(7)
_cell_angle_gamma                116.76(5)
_cell_volume                     6426.28
loop_
_atom_site_label
_atom_site_type_symbol
_atom_site_fract_x
_atom_site_fract_y
_atom_site_fract_z
Ag1 Ag 0.0792(4) 1.0208(6) 0.9409(6)
Ag2 Ag 0.1811(4) 1.0610(6) 0.8066(6)
Ag3 Ag -0.0189(4) 0.9906(6) 0.5949(6)
Ag4 Ag -0.0159(4) 0.9849(5) 0.7824(6)
Ag5 Ag 0.1186(4) 0.9802(6) 0.6532(6)
I1 I 0.2200(3) 1.1186(5) 0.9631(6)
I2 I 0.0945(4) 1.1118(4) 0.7061(5)
I3 I 0.2610(3) 1.0282(5) 0.6943(5)
I4 I -0.0310(3) 1.0625(4) 0.9235(4)
I5 I 0.0614(3) 0.9014(4) 0.8033(4)
I6 I 0.0469(3) 0.9135(5) 0.5060(5)
I7 I -0.1273(3) 0.8955(5) 0.6736(5)
I4A I 0.0310(3) 0.9375(4) 1.0765(4)
I6A I -0.0469(3) 1.0865(5) 0.4940(5)
Ag1A Ag -0.0792(4) 0.9792(6) 1.0591(6)
Ag3A Ag 0.0189(4) 1.0094(6) 0.4051(6)
Ag6 Ag 0.2271(3) 0.6009(4) 1.0450(4)
P1 P 0.174(1) 0.475(1) 1.080(1)
C1 C 0.115(2) 0.409(2) 0.994(2)
C2 C 0.135(2) 0.429(2) 0.914(3)
O1 O 0.194(2) 0.494(3) 0.916(3)
C3 C 0.209(3) 0.525(4) 0.844(4)
C4 C 0.100(2) 0.390(2) 0.842(2)
C5 C 0.040(1) 0.325(2) 0.853(2)
O2 O 0.015(2) 0.288(2) 0.779(2)
C6 C -0.037(2) 0.215(2) 0.775(2)
C7 C 0.017(1) 0.302(1) 0.920(2)
C8 C 0.052(1) 0.350(2) 0.996(2)
O3 O 0.031(2) 0.331(2) 1.072(2)
C9 C -0.022(2) 0.257(2) 1.088(2)
C10 C 0.136(3) 0.467(4) 1.171(4)
C11 C 0.096(3) 0.516(4) 1.185(4)
O4 O 0.105(2) 0.560(3) 1.126(3)
C12 C 0.090(4) 0.624(5) 1.139(6)
C13 C 0.065(4) 0.520(5) 1.245(6)
C14 C 0.049(4) 0.468(4) 1.293(5)
O5 O 0.016(3) 0.464(3) 1.368(4)
C15 C 0.000(4) 0.415(5) 1.426(6)
C16 C 0.078(4) 0.416(4) 1.297(5)
C17 C 0.116(4) 0.419(4) 1.230(5)
O6 O 0.143(3) 0.370(3) 1.211(4)
C18 C 0.124(4) 0.315(5) 1.268(5)
C19 C 0.241(4) 0.444(4) 1.101(5)
C20 C 0.299(3) 0.486(4) 1.135(4)
O7 O 0.319(2) 0.564(3) 1.143(3)
C21 C 0.386(4) 0.622(5) 1.169(5)
C22 C 0.359(4) 0.474(5) 1.140(5)
C23 C 0.335(4) 0.396(4) 1.125(4)
O8 O 0.393(3) 0.374(3) 1.128(3)
C24 C 0.374(4) 0.294(4) 1.118(5)
C25 C 0.267(4) 0.334(4) 1.095(5)
C26 C 0.222(4) 0.374(5) 1.084(5)
O9 O 0.158(3) 0.311(3) 1.059(4)
C27 C 0.131(8) 0.236(9) 1.06(1)
P2 P 0.273(1) 0.727(1) 1.005(1)
C28 C 0.237(3) 0.728(4) 0.910(4)
C29 C 0.168(3) 0.680(4) 0.886(4)
O10 O 0.137(2) 0.626(3) 0.943(3)
C30 C 0.077(4) 0.568(4) 0.922(5)
C31 C 0.132(3) 0.675(4) 0.815(4)
C32 C 0.164(4) 0.728(5) 0.772(5)
O11 O 0.122(3) 0.732(3) 0.695(3)
C33 C 0.147(5) 0.789(6) 0.655(6)
C34 C 0.235(3) 0.785(4) 0.780(4)
C35 C 0.263(4) 0.774(4) 0.850(5)
O12 O 0.333(3) 0.825(3) 0.871(3)
C36 C 0.368(5) 0.889(5) 0.824(6)
C37 C 0.253(3) 0.783(4) 1.079(4)
C38 C 0.262(3) 0.777(4) 1.162(4)
O13 O 0.280(2) 0.720(3) 1.178(3)
C39 C 0.266(3) 0.686(4) 1.251(4)
C40 C 0.248(3) 0.819(4) 1.230(5)
C41 C 0.227(3) 0.863(4) 1.195(4)
O14 O 0.216(3) 0.906(3) 1.275(4)
C42 C 0.208(4) 0.969(4) 1.256(5)
C43 C 0.224(4) 0.887(4) 1.115(5)
C44 C 0.234(3) 0.834(4) 1.062(4)
O15 O 0.237(2) 0.859(3) 0.983(3)
C45 C 0.213(5) 0.906(5) 0.971(6)
C46 C 0.368(3) 0.766(4) 1.009(4)
C47 C 0.398(4) 0.720(5) 0.991(5)
O16 O 0.356(2) 0.652(3) 0.956(3)
C48 C 0.379(6) 0.589(7) 0.960(8)
C49 C 0.470(4) 0.743(4) 0.997(5)
C50 C 0.504(4) 0.813(4) 1.017(5)
O17 O 0.578(2) 0.840(3) 1.037(3)
C51 C 0.614(4) 0.909(5) 1.082(6)
C52 C 0.479(5) 0.869(5) 1.042(6)
C53 C 0.407(4) 0.841(5) 1.041(5)
O18 O 0.382(3) 0.889(3) 1.045(3)
C54 C 0.416(4) 0.948(5) 1.104(6)
H1 H 0.2122 0.4908 0.7996
H2 H 0.1739 0.5379 0.8212
H3 H 0.2517 0.5726 0.8392
H4 H 0.1143 0.4105 0.7819
H5 H -0.0231 0.1806 0.7981
H6 H -0.0768 0.2108 0.7935
H7 H -0.0584 0.1797 0.7174
H8 H -0.0220 0.2515 0.9219
H9 H -0.0667 0.2341 1.0638
H10 H -0.0088 0.2108 1.0755
H11 H -0.0420 0.2265 1.1468
H12 H 0.0395 0.6071 1.1492
H13 H 0.1140 0.6588 1.1853
H14 H 0.0932 0.6567 1.0941
H15 H 0.0516 0.5624 1.2560
H16 H -0.0109 0.3675 1.4160
H17 H 0.0522 0.4366 1.4609
H18 H -0.0163 0.4105 1.4893
H19 H 0.0741 0.3791 1.3431
H20 H 0.1481 0.3385 1.3271
H21 H 0.0793 0.2848 1.2775
H22 H 0.1437 0.2752 1.2642
H23 H 0.4016 0.6156 1.2192
H24 H 0.4154 0.6246 1.1283
H25 H 0.4019 0.6807 1.1799
H26 H 0.4041 0.5070 1.1649
H27 H 0.3455 0.2712 1.1595
H28 H 0.3481 0.2726 1.0657
H29 H 0.4087 0.2776 1.1190
H30 H 0.2533 0.2789 1.0831
H31 H 0.1598 0.2248 1.0093
H32 H 0.1452 0.2225 1.1005
H33 H 0.0906 0.1859 1.0345
H34 H 0.0404 0.5800 0.9023
H35 H 0.0786 0.5339 0.8760
H36 H 0.0493 0.5276 0.9588
H37 H 0.0829 0.6306 0.7965
H38 H 0.1629 0.8382 0.6932
H39 H 0.1956 0.7984 0.6391
H40 H 0.1312 0.8018 0.6070
H41 H 0.2628 0.8288 0.7462
H42 H 0.3696 0.8716 0.7627
H43 H 0.3466 0.9219 0.8165
H44 H 0.4180 0.9277 0.8331
H45 H 0.2907 0.7288 1.2993
H46 H 0.2182 0.6696 1.2632
H47 H 0.2769 0.6485 1.2691
H48 H 0.2587 0.8236 1.2902
H49 H 0.2506 1.0055 1.2320
H50 H 0.1718 0.9582 1.2180
H51 H 0.2058 0.9986 1.3039
H52 H 0.2146 0.9336 1.0866
H53 H 0.1708 0.8965 0.9899
H54 H 0.2460 0.9574 1.0107
H55 H 0.2161 0.9315 0.9219
H56 H 0.4176 0.6070 0.9189
H57 H 0.3887 0.5822 1.0016
H58 H 0.3476 0.5403 0.9212
H59 H 0.4927 0.7120 0.9858
H60 H 0.6100 0.9468 1.0475
H61 H 0.5935 0.9119 1.1295
H62 H 0.6618 0.9285 1.0941
H63 H 0.5106 0.9214 1.0586
H64 H 0.4187 0.9373 1.1638
H65 H 0.4668 0.9815 1.1000
H66 H 0.4036 0.9927 1.1173
Ag7 Ag 0.3579(3) 0.5992(4) 0.5515(4)
P3 P 0.306(1) 0.475(1) 0.588(1)
C55 C 0.208(3) 0.442(4) 0.592(4)
C56 C 0.197(4) 0.500(4) 0.626(5)
O19 O 0.239(2) 0.567(3) 0.645(3)
C57 C 0.223(5) 0.630(6) 0.652(6)
C58 C 0.123(5) 0.482(6) 0.646(6)
C59 C 0.083(4) 0.411(4) 0.610(5)
O20 O 0.007(3) 0.387(3) 0.620(3)
C60 C -0.039(3) 0.314(4) 0.603(4)
C61 C 0.090(3) 0.339(4) 0.578(4)
C62 C 0.160(3) 0.365(4) 0.578(4)
O21 O 0.181(3) 0.312(3) 0.554(3)
C63 C 0.136(5) 0.241(6) 0.516(7)
C64 C 0.313(3) 0.407(4) 0.509(4)
C65 C 0.307(3) 0.421(3) 0.434(4)
O22 O 0.305(2) 0.489(3) 0.415(3)
C66 C 0.308(4) 0.511(5) 0.347(5)
C67 C 0.311(4) 0.387(4) 0.363(5)
C68 C 0.316(3) 0.323(4) 0.384(4)
O23 O 0.320(2) 0.273(3) 0.314(3)
C69 C 0.321(5) 0.203(6) 0.315(7)
C70 C 0.318(4) 0.288(4) 0.456(5)
C71 C 0.314(3) 0.342(4) 0.526(4)
O24 O 0.320(2) 0.326(3) 0.601(3)
C72 C 0.297(4) 0.249(5) 0.617(5)
C73 C 0.341(3) 0.465(4) 0.681(4)
C74 C 0.413(3) 0.509(4) 0.708(4)
O25 O 0.442(3) 0.550(3) 0.648(3)
C75 C 0.510(4) 0.613(5) 0.663(5)
C76 C 0.448(3) 0.512(4) 0.777(4)
C77 C 0.421(4) 0.457(4) 0.819(5)
O26 O 0.446(3) 0.462(3) 0.894(3)
C78 C 0.424(6) 0.416(6) 0.962(7)
C79 C 0.346(3) 0.421(4) 0.815(5)
C80 C 0.311(4) 0.424(5) 0.736(5)
O27 O 0.241(2) 0.369(3) 0.729(3)
C81 C 0.210(3) 0.307(4) 0.781(4)
P4 P 0.412(1) 0.723(1) 0.515(1)
C82 C 0.349(4) 0.757(4) 0.494(5)
C83 C 0.281(5) 0.709(6) 0.457(7)
O28 O 0.271(2) 0.642(3) 0.453(3)
C84 C 0.208(3) 0.578(4) 0.430(4)
C85 C 0.229(4) 0.727(5) 0.463(5)
C86 C 0.249(5) 0.805(5) 0.471(6)
O29 O 0.197(3) 0.825(4) 0.452(4)
C87 C 0.222(6) 0.911(7) 0.455(8)
C88 C 0.309(4) 0.854(5) 0.507(5)
C89 C 0.359(5) 0.831(6) 0.518(7)
O30 O 0.425(3) 0.886(3) 0.553(4)
C90 C 0.443(5) 0.960(6) 0.596(7)
C91 C 0.454(4) 0.744(4) 0.421(5)
C92 C 0.482(4) 0.696(4) 0.413(5)
O31 O 0.475(3) 0.635(3) 0.453(3)
C93 C 0.485(6) 0.571(7) 0.449(7)
C94 C 0.513(5) 0.688(6) 0.337(5)
C95 C 0.519(4) 0.750(6) 0.275(3)
O32 O 0.558(7) 0.769(9) 0.194(7)
C96 C 0.591(6) 0.732(8) 0.201(8)
C97 C 0.497(5) 0.789(6) 0.289(4)
C98 C 0.467(5) 0.786(6) 0.354(7)
O33 O 0.432(3) 0.827(4) 0.375(4)
C99 C 0.428(6) 0.877(7) 0.318(8)
C100 C 0.476(3) 0.786(4) 0.590(4)
C101 C 0.468(4) 0.778(5) 0.672(5)
O34 O 0.403(3) 0.721(3) 0.687(3)
C102 C 0.394(4) 0.692(5) 0.761(5)
C103 C 0.509(4) 0.812(4) 0.748(5)
C104 C 0.576(3) 0.879(4) 0.722(4)
O35 O 0.626(3) 0.919(3) 0.789(3)
C105 C 0.618(4) 0.888(4) 0.863(5)
C106 C 0.584(4) 0.899(4) 0.646(5)
C107 C 0.547(4) 0.848(4) 0.588(5)
O36 O 0.551(3) 0.869(3) 0.505(3)
C108 C 0.620(4) 0.906(5) 0.484(5)
H67 H 0.1965 0.6294 0.6053
H68 H 0.1866 0.6154 0.6961
H69 H 0.2510 0.6801 0.6726
H70 H 0.1119 0.5169 0.6704
H71 H -0.0355 0.2922 0.5502
H72 H -0.0302 0.2856 0.6432
H73 H -0.0895 0.2939 0.6033
H74 H 0.0539 0.2910 0.5483
H75 H 0.0998 0.2155 0.5520
H76 H 0.1080 0.2459 0.4673
H77 H 0.1434 0.2000 0.4920
H78 H 0.3482 0.5167 0.3180
H79 H 0.2691 0.4730 0.3050
H80 H 0.3052 0.5576 0.3208
H81 H 0.3120 0.4039 0.3069
H82 H 0.3500 0.2056 0.3570
H83 H 0.2716 0.1701 0.3368
H84 H 0.3176 0.1668 0.2734
H85 H 0.3197 0.2386 0.4669
H86 H 0.2488 0.2174 0.5988
H87 H 0.3208 0.2247 0.5854
H88 H 0.2997 0.2309 0.6716
H89 H 0.5128 0.6494 0.7088
H90 H 0.5424 0.5943 0.6837
H91 H 0.5372 0.6463 0.6242
H92 H 0.4968 0.5540 0.7875
H93 H 0.3847 0.4170 0.9781
H94 H 0.4156 0.3663 0.9420
H95 H 0.4458 0.4167 1.0193
H96 H 0.3178 0.3870 0.8625
H97 H 0.2332 0.2772 0.7791
H98 H 0.2184 0.3308 0.8392
H99 H 0.1619 0.2709 0.7800
H100 H 0.1784 0.5770 0.4736
H101 H 0.1860 0.5843 0.3811
H102 H 0.1955 0.5242 0.4208
H103 H 0.1869 0.6846 0.4333
H104 H 0.2445 0.9377 0.5172
H105 H 0.2652 0.9412 0.4282
H106 H 0.1925 0.9308 0.4457
H107 H 0.3231 0.9086 0.5067
H108 H 0.4175 0.9851 0.5980
H109 H 0.4324 0.9436 0.6659
H110 H 0.4894 1.0055 0.6294
H111 H 0.4699 0.5413 0.3948
H112 H 0.5393 0.5903 0.4456
H113 H 0.4864 0.5227 0.4740
H114 H 0.5285 0.6496 0.3242
H115 H 0.6110 0.7409 0.2558
H116 H 0.5482 0.6764 0.2047
H117 H 0.6083 0.7348 0.1592
H118 H 0.4756 0.8181 0.2443
H119 H 0.4719 0.9167 0.2980
H120 H 0.4057 0.8509 0.2543
H121 H 0.4013 0.9093 0.3182
H122 H 0.4285 0.6796 0.7800
H123 H 0.4001 0.7362 0.8027
H124 H 0.3512 0.6530 0.7757
H125 H 0.4926 0.7928 0.8011
H126 H 0.5723 0.8762 0.8839
H127 H 0.6151 0.8359 0.8558
H128 H 0.6479 0.9093 0.9127
H129 H 0.6190 0.9547 0.6328
H130 H 0.6498 0.9510 0.5223
H131 H 0.6422 0.8719 0.4918
H132 H 0.6274 0.9192 0.4315
loop_
_geom_bond_atom_site_label_1
_geom_bond_atom_site_label_2
_geom_bond_site_symmetry_1
_geom_bond_site_symmetry_2
Ag1 I1 1_555 1_555
Ag2 I1 1_555 1_555
Ag3 I2 1_555 1_555
Ag4 I2 1_555 1_555
Ag5 I2 1_555 1_555
I2 Ag2 1_555 1_555
I3 Ag2 1_555 1_555
I4 Ag1 1_555 1_555
I5 Ag1 1_555 1_555
I6 Ag3 1_555 1_555
I7 Ag3 1_555 1_555
Ag6 P1 1_555 1_555
P1 C1 1_555 1_555
C1 C2 1_555 1_555
C2 O1 1_555 1_555
O1 C3 1_555 1_555
C3 H1 1_555 1_555
C4 C2 1_555 1_555
C5 C4 1_555 1_555
O2 C5 1_555 1_555
C6 O2 1_555 1_555
C7 C5 1_555 1_555
C8 C1 1_555 1_555
O3 C8 1_555 1_555
C9 O3 1_555 1_555
C10 P1 1_555 1_555
C11 C10 1_555 1_555
O4 C11 1_555 1_555
C12 O4 1_555 1_555
C13 C11 1_555 1_555
C14 C13 1_555 1_555
O5 C14 1_555 1_555
C15 O5 1_555 1_555
C16 C14 1_555 1_555
C17 C10 1_555 1_555
O6 C17 1_555 1_555
C18 O6 1_555 1_555
C19 P1 1_555 1_555
C20 C19 1_555 1_555
O7 C20 1_555 1_555
C21 O7 1_555 1_555
C22 C20 1_555 1_555
C23 C22 1_555 1_555
O8 C23 1_555 1_555
C24 O8 1_555 1_555
C25 C23 1_555 1_555
C26 C19 1_555 1_555
O9 C26 1_555 1_555
C27 O9 1_555 1_555
P2 Ag6 1_555 1_555
C28 P2 1_555 1_555
C29 C28 1_555 1_555
O10 C29 1_555 1_555
C30 O10 1_555 1_555
C31 C29 1_555 1_555
C32 C31 1_555 1_555
O11 C32 1_555 1_555
C33 O11 1_555 1_555
C34 C32 1_555 1_555
C35 C28 1_555 1_555
O12 C35 1_555 1_555
C36 O12 1_555 1_555
C37 P2 1_555 1_555
C38 C37 1_555 1_555
O13 C38 1_555 1_555
C39 O13 1_555 1_555
C40 C38 1_555 1_555
C41 C40 1_555 1_555
O14 C41 1_555 1_555
C42 O14 1_555 1_555
C43 C41 1_555 1_555
C44 C37 1_555 1_555
O15 C44 1_555 1_555
C45 O15 1_555 1_555
C46 P2 1_555 1_555
C47 C46 1_555 1_555
O16 C47 1_555 1_555
C48 O16 1_555 1_555
C49 C47 1_555 1_555
C50 C49 1_555 1_555
O17 C50 1_555 1_555
C51 O17 1_555 1_555
C52 C50 1_555 1_555
C53 C46 1_555 1_555
O18 C53 1_555 1_555
C54 O18 1_555 1_555
H2 C3 1_555 1_555
H3 C3 1_555 1_555
H4 C4 1_555 1_555
H5 C6 1_555 1_555
H6 C6 1_555 1_555
H7 C6 1_555 1_555
H8 C7 1_555 1_555
H9 C9 1_555 1_555
H10 C9 1_555 1_555
H11 C9 1_555 1_555
H12 C12 1_555 1_555
H13 C12 1_555 1_555
H14 C12 1_555 1_555
H15 C13 1_555 1_555
H16 C15 1_555 1_555
H17 C15 1_555 1_555
H18 C15 1_555 1_555
H19 C16 1_555 1_555
H20 C18 1_555 1_555
H21 C18 1_555 1_555
H22 C18 1_555 1_555
H23 C21 1_555 1_555
H24 C21 1_555 1_555
H25 C21 1_555 1_555
H26 C22 1_555 1_555
H27 C24 1_555 1_555
H28 C24 1_555 1_555
H29 C24 1_555 1_555
H30 C25 1_555 1_555
H31 C27 1_555 1_555
H32 C27 1_555 1_555
H33 C27 1_555 1_555
H34 C30 1_555 1_555
H35 C30 1_555 1_555
H36 C30 1_555 1_555
H37 C31 1_555 1_555
H38 C33 1_555 1_555
H39 C33 1_555 1_555
H40 C33 1_555 1_555
H41 C34 1_555 1_555
H42 C36 1_555 1_555
H43 C36 1_555 1_555
H44 C36 1_555 1_555
H45 C39 1_555 1_555
H46 C39 1_555 1_555
H47 C39 1_555 1_555
H48 C40 1_555 1_555
H49 C42 1_555 1_555
H50 C42 1_555 1_555
H51 C42 1_555 1_555
H52 C43 1_555 1_555
H53 C45 1_555 1_555
H54 C45 1_555 1_555
H55 C45 1_555 1_555
H56 C48 1_555 1_555
H57 C48 1_555 1_555
H58 C48 1_555 1_555
H59 C49 1_555 1_555
H60 C51 1_555 1_555
H61 C51 1_555 1_555
H62 C51 1_555 1_555
H63 C52 1_555 1_555
H64 C54 1_555 1_555
H65 C54 1_555 1_555
H66 C54 1_555 1_555
Ag7 P3 1_555 1_555
P3 C55 1_555 1_555
C55 C56 1_555 1_555
C56 O19 1_555 1_555
O19 C57 1_555 1_555
C57 H67 1_555 1_555
C58 C56 1_555 1_555
C59 C58 1_555 1_555
O20 C59 1_555 1_555
C60 O20 1_555 1_555
C61 C59 1_555 1_555
C62 C55 1_555 1_555
O21 C62 1_555 1_555
C63 O21 1_555 1_555
C64 P3 1_555 1_555
C65 C64 1_555 1_555
O22 C65 1_555 1_555
C66 O22 1_555 1_555
C67 C65 1_555 1_555
C68 C67 1_555 1_555
O23 C68 1_555 1_555
C69 O23 1_555 1_555
C70 C68 1_555 1_555
C71 C64 1_555 1_555
O24 C71 1_555 1_555
C72 O24 1_555 1_555
C73 P3 1_555 1_555
C74 C73 1_555 1_555
O25 C74 1_555 1_555
C75 O25 1_555 1_555
C76 C74 1_555 1_555
C77 C76 1_555 1_555
O26 C77 1_555 1_555
C78 O26 1_555 1_555
C79 C77 1_555 1_555
C80 C73 1_555 1_555
O27 C80 1_555 1_555
C81 O27 1_555 1_555
P4 Ag7 1_555 1_555
C82 P4 1_555 1_555
C83 C82 1_555 1_555
O28 C83 1_555 1_555
C84 O28 1_555 1_555
C85 C83 1_555 1_555
C86 C85 1_555 1_555
O29 C86 1_555 1_555
C87 O29 1_555 1_555
C88 C86 1_555 1_555
C89 C82 1_555 1_555
O30 C89 1_555 1_555
C90 O30 1_555 1_555
C91 P4 1_555 1_555
C92 C91 1_555 1_555
O31 C92 1_555 1_555
C93 O31 1_555 1_555
C94 C92 1_555 1_555
C95 C94 1_555 1_555
O32 C95 1_555 1_555
C96 O32 1_555 1_555
C97 C95 1_555 1_555
C98 C91 1_555 1_555
O33 C98 1_555 1_555
C99 O33 1_555 1_555
C100 P4 1_555 1_555
C101 C100 1_555 1_555
O34 C101 1_555 1_555
C102 O34 1_555 1_555
C103 C101 1_555 1_555
C104 C103 1_555 1_555
O35 C104 1_555 1_555
C105 O35 1_555 1_555
C106 C104 1_555 1_555
C107 C100 1_555 1_555
O36 C107 1_555 1_555
C108 O36 1_555 1_555
H68 C57 1_555 1_555
H69 C57 1_555 1_555
H70 C58 1_555 1_555
H71 C60 1_555 1_555
H72 C60 1_555 1_555
H73 C60 1_555 1_555
H74 C61 1_555 1_555
H75 C63 1_555 1_555
H76 C63 1_555 1_555
H77 C63 1_555 1_555
H78 C66 1_555 1_555
H79 C66 1_555 1_555
H80 C66 1_555 1_555
H81 C67 1_555 1_555
H82 C69 1_555 1_555
H83 C69 1_555 1_555
H84 C69 1_555 1_555
H85 C70 1_555 1_555
H86 C72 1_555 1_555
H87 C72 1_555 1_555
H88 C72 1_555 1_555
H89 C75 1_555 1_555
H90 C75 1_555 1_555
H91 C75 1_555 1_555
H92 C76 1_555 1_555
H93 C78 1_555 1_555
H94 C78 1_555 1_555
H95 C78 1_555 1_555
H96 C79 1_555 1_555
H97 C81 1_555 1_555
H98 C81 1_555 1_555
H99 C81 1_555 1_555
H100 C84 1_555 1_555
H101 C84 1_555 1_555
H102 C84 1_555 1_555
H103 C85 1_555 1_555
H104 C87 1_555 1_555
H105 C87 1_555 1_555
H106 C87 1_555 1_555
H107 C88 1_555 1_555
H108 C90 1_555 1_555
H109 C90 1_555 1_555
H110 C90 1_555 1_555
H111 C93 1_555 1_555
H112 C93 1_555 1_555
H113 C93 1_555 1_555
H114 C94 1_555 1_555
H115 C96 1_555 1_555
H116 C96 1_555 1_555
H117 C96 1_555 1_555
H118 C97 1_555 1_555
H119 C99 1_555 1_555
H120 C99 1_555 1_555
H121 C99 1_555 1_555
H122 C102 1_555 1_555
H123 C102 1_555 1_555
H124 C102 1_555 1_555
H125 C103 1_555 1_555
H126 C105 1_555 1_555
H127 C105 1_555 1_555
H128 C105 1_555 1_555
H129 C106 1_555 1_555
H130 C108 1_555 1_555
H131 C108 1_555 1_555
H132 C108 1_555 1_555
I4A Ag1 1_555 1_555
I6A Ag3 1_555 1_555
Ag1A I4 1_555 1_555
Ag3A I6 1_555 1_555
Ag2 I5 1_555 1_555
Ag4 I4 1_555 1_555
Ag4 I5 1_555 1_555
Ag4 I7 1_555 1_555
Ag5 I3 1_555 1_555
Ag5 I5 1_555 1_555
Ag5 I6 1_555 1_555
C7 C8 1_555 1_555
C16 C17 1_555 1_555
C25 C26 1_555 1_555
C34 C35 1_555 1_555
C43 C44 1_555 1_555
C52 C53 1_555 1_555
C61 C62 1_555 1_555
C70 C71 1_555 1_555
C79 C80 1_555 1_555
C88 C89 1_555 1_555
C97 C98 1_555 1_555
C106 C107 1_555 1_555
I4A Ag1A 1_555 1_555
I6A Ag3A 1_555 1_555

#END
