
#######################################################################
#
#                 Cambridge Crystallographic Data Centre
#                                CCDC 
#
#######################################################################
#
# If this CIF has been generated from an entry in the Cambridge 
# Structural Database, then it will include bibliographic, chemical, 
# crystal, experimental, refinement or atomic coordinate data resulting 
# from the CCDC's data processing and validation procedures.
#
#######################################################################

data_KUXDUE
_symmetry_cell_setting           triclinic
_symmetry_space_group_name_H-M   'P -1'
_symmetry_Int_Tables_number      2
_space_group_name_Hall           '-P 1'
loop_
_symmetry_equiv_pos_site_id
_symmetry_equiv_pos_as_xyz
1 x,y,z
2 -x,-y,-z
_cell_length_a                   8.0949(5)
_cell_length_b                   11.4921(7)
_cell_length_c                   17.9945(11)
_cell_angle_alpha                79.9500(10)
_cell_angle_beta                 84.3290(10)
_cell_angle_gamma                82.7900(10)
_cell_volume                     1630.19
loop_
_atom_site_label
_atom_site_type_symbol
_atom_site_fract_x
_atom_site_fract_y
_atom_site_fract_z
Er1 Er -0.32465(2) 0.208493(15) 0.727948(10)
Cu1 Cu -0.22502(6) 0.15758(4) 0.91795(3)
O1 O -0.3490(4) 0.0204(3) 0.80103(17)
S1 S -0.46203(14) -0.20051(9) 0.80152(6)
N1 N -0.5810(5) -0.4029(3) 0.79480(19)
C1 C -0.3447(5) -0.0342(3) 0.8669(2)
O2 O -0.1875(4) 0.3140(3) 0.62162(17)
H1 H -0.2006 0.3811 0.5930
H2 H -0.1033 0.2737 0.6029
Cu2 Cu -0.48583(8) -0.40886(5) 0.69300(3)
O3 O -0.2964(4) 0.0011(3) 0.92294(18)
C2 C -0.4055(7) -0.1552(4) 0.8854(2)
H3 H -0.5017 -0.1531 0.9221
H4 H -0.3184 -0.2125 0.9078
S2 S -0.62180(15) -0.37241(9) 0.93251(6)
O4 O -0.1438(5) 0.1144(3) 1.03655(19)
H5 H -0.1421 0.1714 1.0607
H6 H -0.0972 0.0519 1.0623
N2 N -0.6638(5) -0.4972(3) 0.83197(19)
S3 S -0.78251(13) -0.60143(9) 0.97017(6)
C3 C -0.5531(5) -0.3288(3) 0.8390(2)
N3 N -0.0118(5) -0.2631(3) 0.8108(2)
O5 O -0.5285(4) -0.7727(3) 0.82688(16)
C4 C -0.6903(5) -0.4940(3) 0.9039(2)
S4 S -0.12421(14) -0.42056(10) 0.73771(6)
N4 N 0.0740(5) -0.1637(3) 0.8007(2)
O6 O -0.4571(4) -0.7751(3) 0.94354(16)
C5 C -0.7434(5) -0.7246(4) 0.9179(2)
H7 H -0.7878 -0.7934 0.9488
H8 H -0.8043 -0.7044 0.8728
S5 S 0.07012(17) -0.21581(11) 0.66857(7)
N5 N -0.6599(5) -0.5496(3) 0.4512(2)
O7 O -0.2401(4) -0.6429(3) 0.78515(18)
S6 S 0.22756(15) -0.00417(10) 0.69626(7)
C6 C -0.5607(5) -0.7591(3) 0.8943(2)
N6 N -0.6217(5) -0.6366(3) 0.40593(19)
O8 O -0.1602(4) -0.6821(3) 0.90309(18)
O9 O -0.0613(4) 0.1436(3) 0.75893(19)
C7 C -0.1831(5) -0.6165(3) 0.8408(3)
S7 S -0.80730(16) -0.49448(10) 0.58099(6)
S8 S -0.77381(17) -0.73626(10) 0.52622(6)
O10 O 0.0016(4) 0.0970(3) 0.87862(17)
C8 C -0.1355(6) -0.4913(4) 0.8354(2)
H9 H -0.0283 -0.4944 0.8559
H10 H -0.2183 -0.4457 0.8648
O11 O -0.5009(4) -0.5994(2) 0.68870(17)
C9 C -0.0239(5) -0.2986(4) 0.7473(2)
S9 S -0.63790(16) -0.86327(10) 0.39333(6)
O12 O -0.5837(4) -0.7678(3) 0.67358(16)
C10 C 0.1214(5) -0.1282(4) 0.7295(3)
O13 O -0.7179(4) -1.0770(3) 0.35741(17)
C11 C 0.2122(5) 0.0542(4) 0.7829(2)
H11 H 0.2553 -0.0076 0.8224
H12 H 0.2819 0.1186 0.7766
C12 C 0.0357(5) 0.1000(3) 0.8082(3)
O14 O -0.8495(6) -1.1522(3) 0.4665(2)
C13 C -0.6138(5) -0.6583(4) 0.6765(2)
C14 C -0.7896(5) -0.5998(4) 0.6679(2)
H13 H -0.8259 -0.5591 0.7105
H14 H -0.8632 -0.6606 0.6686
C15 C -0.7377(5) -0.5889(4) 0.5152(2)
C16 C -0.6728(5) -0.7393(4) 0.4383(2)
C17 C -0.7568(7) -0.9661(4) 0.4598(2)
H15 H -0.6997 -0.9907 0.5058
H16 H -0.8662 -0.9266 0.4728
C18 C -0.7761(6) -1.0749(4) 0.4249(3)
Er1_2 Er -0.32465(2) -0.791507(15) 0.727948(10)
Er1A Er -0.67535(2) -1.208493(15) 0.272052(10)
Cu1_2 Cu -0.22502(6) -0.84242(4) 0.91795(3)
Cu2A Cu -0.51417(8) -0.59114(5) 0.30700(3)
O5_2 O -0.5285(4) 0.2273(3) 0.82688(16)
O6_2 O -0.4571(4) 0.2249(3) 0.94354(16)
O7_2 O -0.2401(4) 0.3571(3) 0.78515(18)
N6A N -0.3783(5) -0.3634(3) 0.59407(19)
O8_2 O -0.1602(4) 0.3179(3) 0.90309(18)
O11_2 O -0.5009(4) 0.4006(2) 0.68870(17)
O12_2 O -0.5837(4) 0.2322(3) 0.67358(16)
O13A O -0.2821(4) 0.0770(3) 0.64259(17)
loop_
_geom_bond_atom_site_label_1
_geom_bond_atom_site_label_2
_geom_bond_site_symmetry_1
_geom_bond_site_symmetry_2
Er1 O1 1_555 1_555
Cu1 O3 1_555 1_555
O1 C1 1_555 1_555
S1 C2 1_555 1_555
N1 Cu2 1_555 1_555
C1 O3 1_555 1_555
O2 Er1 1_555 1_555
H1 O2 1_555 1_555
H2 O2 1_555 1_555
Cu2 O11 1_555 1_555
C2 C1 1_555 1_555
H3 C2 1_555 1_555
H4 C2 1_555 1_555
S2 C3 1_555 1_555
O4 Cu1 1_555 1_555
H5 O4 1_555 1_555
H6 O4 1_555 1_555
N2 N1 1_555 1_555
S3 C4 1_555 1_555
C3 S1 1_555 1_555
N3 N4 1_555 1_555
O5 C6 1_555 1_555
C4 S2 1_555 1_555
S4 C8 1_555 1_555
N4 C10 1_555 1_555
O6 C6 1_555 1_555
C5 S3 1_555 1_555
H7 C5 1_555 1_555
H8 C5 1_555 1_555
S5 C9 1_555 1_555
N5 N6 1_555 1_555
O7 C7 1_555 1_555
S6 C10 1_555 1_555
C6 C5 1_555 1_555
N6 C16 1_555 1_555
O8 C7 1_555 1_555
O9 Er1 1_555 1_555
C7 C8 1_555 1_555
S7 C14 1_555 1_555
S8 C15 1_555 1_555
O10 Cu1 1_555 1_555
C8 H9 1_555 1_555
H10 C8 1_555 1_555
O11 C13 1_555 1_555
C9 N3 1_555 1_555
S9 C16 1_555 1_555
O12 C13 1_555 1_555
C10 S5 1_555 1_555
O13 C18 1_555 1_555
C11 S6 1_555 1_555
H11 C11 1_555 1_555
H12 C11 1_555 1_555
C12 O9 1_555 1_555
O14 C18 1_555 1_555
C13 C14 1_555 1_555
C14 H13 1_555 1_555
H14 C14 1_555 1_555
C15 N5 1_555 1_555
C16 S8 1_555 1_555
C17 S9 1_555 1_555
H15 C17 1_555 1_555
H16 C17 1_555 1_555
C18 C17 1_555 1_555
Er1_2 O5 1_555 1_555
Er1A O13 1_555 1_555
Cu1_2 O6 1_555 1_555
Cu2A N6 1_555 1_555
O5_2 Er1 1_555 1_555
O6_2 Cu1 1_555 1_555
O7_2 Er1 1_555 1_555
N6A Cu2 1_555 1_555
O8_2 Cu1 1_555 1_555
O11_2 Er1 1_555 1_555
O12_2 Er1 1_555 1_555
O13A Er1 1_555 1_555
N1 C3 1_555 1_555
N2 C4 1_555 1_555
S4 C9 1_555 1_555
O7 Er1_2 1_555 1_555
O8 Cu1_2 1_555 1_555
S7 C15 1_555 1_555
O10 C12 1_555 1_555
O11 Er1_2 1_555 1_555
O12 Er1_2 1_555 1_555
C11 C12 1_555 1_555

#END
