
#######################################################################
#
#                 Cambridge Crystallographic Data Centre
#                                CCDC 
#
#######################################################################
#
# If this CIF has been generated from an entry in the Cambridge 
# Structural Database, then it will include bibliographic, chemical, 
# crystal, experimental, refinement or atomic coordinate data resulting 
# from the CCDC's data processing and validation procedures.
#
#######################################################################

data_KUXFOA
_symmetry_cell_setting           monoclinic
_symmetry_space_group_name_H-M   'P 21/c'
_symmetry_Int_Tables_number      14
_space_group_name_Hall           '-P 2ybc'
loop_
_symmetry_equiv_pos_site_id
_symmetry_equiv_pos_as_xyz
1 x,y,z
2 -x,1/2+y,1/2-z
3 -x,-y,-z
4 x,1/2-y,1/2+z
_cell_length_a                   11.9046(6)
_cell_length_b                   20.7509(11)
_cell_length_c                   8.3020(4)
_cell_angle_alpha                90
_cell_angle_beta                 93.5720(10)
_cell_angle_gamma                90
_cell_volume                     2046.87
loop_
_atom_site_label
_atom_site_type_symbol
_atom_site_fract_x
_atom_site_fract_y
_atom_site_fract_z
Pr1 Pr 0.538560(18) 0.262032(11) 0.79284(2)
Cu1 Cu -0.10966(4) 0.04529(3) 0.58458(7)
O1 O 0.2766(3) -0.20217(16) 0.6239(4)
N1 N -0.0416(3) -0.08749(17) 0.5056(4)
S1 S 0.00245(10) -0.21767(6) 0.50407(19)
C1 C 0.2162(3) -0.1657(2) 0.5324(5)
S2 S -0.22096(8) -0.15433(5) 0.45078(13)
N2 N -0.1300(3) -0.04396(16) 0.4945(4)
O2 O 0.2201(3) -0.10617(15) 0.5377(4)
C2 C 0.1327(4) -0.1988(2) 0.4137(6)
H1 H 0.1658 -0.2383 0.3757
H2 H 0.1170 -0.1710 0.3212
C3 C -0.0766(3) -0.1470(2) 0.4874(5)
S3 S -0.34858(9) -0.02375(5) 0.44067(14)
O3 O -0.4949(2) -0.18922(13) 0.4441(3)
N3 N 0.0206(3) 0.08541(17) 0.8760(4)
C4 C -0.2285(3) -0.07114(19) 0.4644(5)
N4 N -0.0845(3) 0.06034(17) 0.8262(4)
O4 O -0.5023(3) -0.11527(15) 0.6326(4)
S4 S 0.14591(9) 0.13003(6) 1.13527(12)
S5 S -0.09129(9) 0.08010(6) 1.12966(13)
C5 C -0.4529(3) -0.0817(2) 0.3689(5)
H3 H -0.5200 -0.0585 0.3301
H4 H -0.4246 -0.1044 0.2778
O5 O 0.3592(2) 0.19595(16) 1.1527(3)
C6 C -0.4857(3) -0.13086(19) 0.4925(5)
S6 S -0.28584(9) 0.02137(5) 0.92391(14)
O6 O 0.3897(3) 0.19523(16) 0.8893(4)
C7 C 0.3337(3) 0.1830(2) 1.0084(5)
O7 O -0.3503(3) 0.15452(14) 0.8174(3)
O8 O -0.3934(3) 0.19274(14) 1.0522(3)
C8 C 0.2228(3) 0.1494(2) 0.9627(5)
H5 H 0.2378 0.1100 0.9046
H6 H 0.1770 0.1770 0.8910
C9 C 0.0279(3) 0.0981(2) 1.0299(5)
C10 C -0.1507(3) 0.05468(19) 0.9448(5)
C11 C -0.3583(3) 0.0807(2) 1.0409(5)
H7 H -0.3194 0.0847 1.1466
H8 H -0.4340 0.0655 1.0562
C12 C -0.3649(3) 0.1463(2) 0.9616(5)
Pr1_2 Pr -0.461440(18) 0.262032(11) 0.79284(2)
Pr1A Pr -0.538560(18) -0.237968(11) 0.70716(2)
Pr1A_2 Pr 0.461440(18) -0.237968(11) 0.70716(2)
Pr1B Pr -0.538560(18) -0.262032(11) 0.20716(2)
Pr1C Pr -0.461440(18) 0.237968(11) 1.29284(2)
Pr1C_2 Pr 0.538560(18) 0.237968(11) 1.29284(2)
Cu1B Cu 0.10966(4) -0.04529(3) 0.41542(7)
O1A O 0.7234(3) 0.29783(16) 0.8761(4)
N1B N 0.0416(3) 0.08749(17) 0.4944(4)
O2B O -0.2201(3) 0.10617(15) 0.4623(4)
O3A O 0.4949(2) 0.31078(13) 1.0559(3)
O3B O 0.4949(2) 0.18922(13) 0.5559(3)
O4A O 0.5023(3) 0.38473(15) 0.8674(4)
O5C O 0.3592(2) 0.30405(16) 0.6527(3)
O7_2 O 0.6497(3) 0.15452(14) 0.8174(3)
O8_2 O 0.6066(3) 0.19274(14) 1.0522(3)
O8C O 0.6066(3) 0.30726(14) 0.5522(3)
loop_
_geom_bond_atom_site_label_1
_geom_bond_atom_site_label_2
_geom_bond_site_symmetry_1
_geom_bond_site_symmetry_2
Pr1 O6 1_555 1_555
Cu1 N2 1_555 1_555
O1 C1 1_555 1_555
N1 N2 1_555 1_555
S1 C2 1_555 1_555
C1 O2 1_555 1_555
S2 C3 1_555 1_555
N2 C4 1_555 1_555
O2 Cu1B 1_555 1_555
C2 C1 1_555 1_555
H1 C2 1_555 1_555
H2 C2 1_555 1_555
C3 N1 1_555 1_555
S3 C4 1_555 1_555
O3 C6 1_555 1_555
N3 N4 1_555 1_555
C4 S2 1_555 1_555
N4 Cu1 1_555 1_555
O4 C6 1_555 1_555
S4 C8 1_555 1_555
S5 C9 1_555 1_555
C5 S3 1_555 1_555
H3 C5 1_555 1_555
H4 C5 1_555 1_555
O5 C7 1_555 1_555
C6 C5 1_555 1_555
S6 C10 1_555 1_555
O6 C7 1_555 1_555
C7 C8 1_555 1_555
O7 C12 1_555 1_555
O8 C12 1_555 1_555
C8 H5 1_555 1_555
H6 C8 1_555 1_555
C9 N3 1_555 1_555
C10 N4 1_555 1_555
C11 S6 1_555 1_555
H7 C11 1_555 1_555
H8 C11 1_555 1_555
C12 C11 1_555 1_555
Pr1_2 O7 1_555 1_555
Pr1A O3 1_555 1_555
Pr1A_2 O1 1_555 1_555
Pr1B O3 1_555 1_555
Pr1C O8 1_555 1_555
Pr1C_2 O5 1_555 1_555
Cu1B N1 1_555 1_555
O1A Pr1 1_555 1_555
N1B Cu1 1_555 1_555
O2B Cu1 1_555 1_555
O3A Pr1 1_555 1_555
O3B Pr1 1_555 1_555
O4A Pr1 1_555 1_555
O5C Pr1 1_555 1_555
O7_2 Pr1 1_555 1_555
O8_2 Pr1 1_555 1_555
O8C Pr1 1_555 1_555
S1 C3 1_555 1_555
O4 Pr1A 1_555 1_555
S4 C9 1_555 1_555
S5 C10 1_555 1_555
O8 Pr1_2 1_555 1_555
Pr1C_2 O3A 1_555 1_555
Pr1C_2 O8_2 1_555 1_555

#END
