
#######################################################################
#
#                 Cambridge Crystallographic Data Centre
#                                CCDC 
#
#######################################################################
#
# If this CIF has been generated from an entry in the Cambridge 
# Structural Database, then it will include bibliographic, chemical, 
# crystal, experimental, refinement or atomic coordinate data resulting 
# from the CCDC's data processing and validation procedures.
#
#######################################################################

data_KUXFEQ
_symmetry_cell_setting           triclinic
_symmetry_space_group_name_H-M   'P -1'
_symmetry_Int_Tables_number      2
_space_group_name_Hall           '-P 1'
loop_
_symmetry_equiv_pos_site_id
_symmetry_equiv_pos_as_xyz
1 x,y,z
2 -x,-y,-z
_cell_length_a                   8.0908(5)
_cell_length_b                   11.4763(6)
_cell_length_c                   17.9588(10)
_cell_angle_alpha                79.9260(10)
_cell_angle_beta                 84.5650(10)
_cell_angle_gamma                82.7860(10)
_cell_volume                     1624.29
loop_
_atom_site_label
_atom_site_type_symbol
_atom_site_fract_x
_atom_site_fract_y
_atom_site_fract_z
Lu1 Lu 0.173952(16) 0.708492(11) 0.228585(7)
Cu1 Cu 0.01090(6) 1.09208(4) 0.19243(2)
S1 S 0.30833(13) -0.00433(8) -0.08080(5)
O1 O 0.0820(3) 0.2683(2) -0.17457(14)
O2 O 0.3099(3) 0.8132(2) 0.12440(14)
H1 H 0.3814 0.7829 0.0933
H2 H 0.2726 0.8821 0.1027
N1 N 0.1579(4) 0.0509(3) 0.04831(16)
C1 C 0.1134(4) 0.1590(3) -0.17688(17)
Cu2 Cu 0.27470(5) 0.65761(3) 0.41795(2)
S2 S 0.27390(14) 0.23759(8) -0.02592(5)
O3 O 0.0017(3) 0.0992(2) -0.18913(13)
O4 O 0.3573(4) 0.6137(3) 0.53654(17)
H3 H 0.3568 0.6706 0.5612
H4 H 0.4060 0.5515 0.5619
N2 N 0.1191(4) 0.1386(3) 0.09338(16)
C2 C 0.2900(4) 0.1012(3) -0.16786(19)
H5 H 0.3628 0.1624 -0.1685
H6 H 0.3268 0.0605 -0.2105
S3 S 0.13523(13) 0.36479(8) 0.10665(5)
O5 O 0.2156(3) 0.5781(2) 0.14364(14)
C3 C 0.2367(4) 0.0897(3) -0.01503(18)
N3 N -0.1657(4) 1.0025(3) 0.33172(16)
S4 S -0.28259(11) 0.89807(7) 0.46982(5)
O6 O 0.3497(5) 0.6534(3) 0.03510(17)
C4 C 0.1716(4) 0.2408(3) 0.06175(18)
N4 N -0.0835(4) 1.0973(2) 0.29413(15)
S5 S -0.12288(12) 1.12779(8) 0.43227(5)
O7 O -0.0276(3) 0.7290(2) 0.32659(13)
N5 N 0.4857(4) 0.2374(3) 0.30959(17)
C5 C 0.2548(5) 0.4678(3) 0.0414(2)
H7 H 0.3643 0.4281 0.0287
H8 H 0.1985 0.4931 -0.0050
S6 S 0.03529(11) 1.30000(7) 0.30082(5)
O8 O 0.0428(3) 0.7242(2) 0.44350(14)
N6 N 0.5708(4) 0.3374(3) 0.29976(18)
C6 C 0.2741(5) 0.5765(3) 0.0769(2)
S7 S 0.37440(11) 0.07849(8) 0.23681(5)
O9 O 0.1460(3) 1.5219(2) 0.30044(14)
C7 C -0.0599(4) 0.7408(3) 0.39371(18)
S8 S 0.56874(14) 0.28328(9) 0.16739(5)
O10 O 0.2040(4) 1.5010(2) 0.42217(15)
C8 C -0.2435(4) 0.7745(3) 0.4177(2)
H9 H -0.2869 0.7055 0.4488
H10 H -0.3052 0.7944 0.3725
S9 S 0.72467(12) 0.49607(8) 0.19498(5)
O11 O 0.2605(3) -0.1448(2) 0.28496(16)
C9 C -0.1918(4) 1.0064(3) 0.40371(18)
C10 C -0.0557(4) 1.1717(3) 0.33816(18)
O12 O 0.3384(3) -0.1821(2) 0.40357(15)
C11 C 0.0935(5) 1.3445(3) 0.3849(2)
H11 H -0.0017 1.3457 0.4220
H12 H 0.1818 1.2873 0.4068
O13 O 0.4339(3) 0.6413(3) 0.25810(16)
O14 O 0.5009(3) 0.5975(2) 0.37774(15)
C12 C 0.1532(4) 1.4669(3) 0.36639(19)
C13 C 0.3163(4) -0.1166(3) 0.3408(2)
C14 C 0.3634(5) 0.0086(3) 0.3347(2)
H13 H 0.4707 0.0058 0.3553
H14 H 0.2806 0.0545 0.3639
C15 C 0.4732(4) 0.2010(3) 0.2460(2)
C16 C 0.6185(4) 0.3719(3) 0.2288(2)
C17 C 0.7089(4) 0.5543(3) 0.2821(2)
H15 H 0.7517 0.4921 0.3217
H16 H 0.7790 0.6185 0.2761
C18 C 0.5328(4) 0.6004(3) 0.3071(2)
Lu1_2 Lu 0.173952(16) -0.291508(11) 0.228585(7)
Lu1_3 Lu 0.173952(16) 1.708492(11) 0.228585(7)
Lu1A Lu -0.173952(16) 0.291508(11) -0.228585(7)
Cu1_2 Cu 0.01090(6) 0.09208(4) 0.19243(2)
Cu1A Cu -0.01090(6) -0.09208(4) -0.19243(2)
O1A O -0.0820(3) 0.7317(2) 0.17457(14)
Cu2_2 Cu 0.27470(5) -0.34239(3) 0.41795(2)
Cu2_3 Cu 0.27470(5) 1.65761(3) 0.41795(2)
O3A O -0.0017(3) 0.9008(2) 0.18913(13)
N2_2 N 0.1191(4) 1.1386(3) 0.09338(16)
O9_2 O 0.1460(3) 0.5219(2) 0.30044(14)
O10_2 O 0.2040(4) 0.5010(2) 0.42217(15)
O11_2 O 0.2605(3) 0.8552(2) 0.28496(16)
O12_2 O 0.3384(3) 0.8179(2) 0.40357(15)
loop_
_geom_bond_atom_site_label_1
_geom_bond_atom_site_label_2
_geom_bond_site_symmetry_1
_geom_bond_site_symmetry_2
Lu1 O2 1_555 1_555
Cu1 N4 1_555 1_555
S1 C2 1_555 1_555
O1 C1 1_555 1_555
O2 H1 1_555 1_555
H2 O2 1_555 1_555
N1 N2 1_555 1_555
C1 O3 1_555 1_555
Cu2 O4 1_555 1_555
S2 C3 1_555 1_555
O3 Lu1A 1_555 1_555
O4 H3 1_555 1_555
H4 O4 1_555 1_555
N2 C4 1_555 1_555
C2 C1 1_555 1_555
H5 C2 1_555 1_555
H6 C2 1_555 1_555
S3 C4 1_555 1_555
O5 Lu1 1_555 1_555
C3 S1 1_555 1_555
N3 N4 1_555 1_555
S4 C8 1_555 1_555
O6 C6 1_555 1_555
C4 S2 1_555 1_555
N4 C10 1_555 1_555
S5 C9 1_555 1_555
O7 Lu1 1_555 1_555
N5 N6 1_555 1_555
C5 S3 1_555 1_555
H7 C5 1_555 1_555
H8 C5 1_555 1_555
S6 C10 1_555 1_555
O8 Cu2 1_555 1_555
N6 C16 1_555 1_555
C6 O5 1_555 1_555
S7 C14 1_555 1_555
O9 C12 1_555 1_555
C7 O7 1_555 1_555
S8 C15 1_555 1_555
O10 C12 1_555 1_555
C8 C7 1_555 1_555
H9 C8 1_555 1_555
H10 C8 1_555 1_555
S9 C16 1_555 1_555
O11 C13 1_555 1_555
C9 N3 1_555 1_555
C10 S5 1_555 1_555
O12 C13 1_555 1_555
C11 S6 1_555 1_555
H11 C11 1_555 1_555
H12 C11 1_555 1_555
O13 Lu1 1_555 1_555
O14 Cu2 1_555 1_555
C12 C11 1_555 1_555
C13 C14 1_555 1_555
C14 H13 1_555 1_555
H14 C14 1_555 1_555
C15 N5 1_555 1_555
C16 S8 1_555 1_555
C17 S9 1_555 1_555
H15 C17 1_555 1_555
H16 C17 1_555 1_555
C18 O13 1_555 1_555
Lu1_2 O11 1_555 1_555
Lu1_3 O9 1_555 1_555
Lu1A O1 1_555 1_555
Cu1_2 N2 1_555 1_555
Cu1A O3 1_555 1_555
O1A Lu1 1_555 1_555
Cu2_2 O12 1_555 1_555
Cu2_3 O10 1_555 1_555
O3A Lu1 1_555 1_555
N2_2 Cu1 1_555 1_555
O9_2 Lu1 1_555 1_555
O10_2 Cu2 1_555 1_555
O11_2 Lu1 1_555 1_555
O12_2 Cu2 1_555 1_555
Cu1 O3A 1_555 1_555
N1 C3 1_555 1_555
S4 C9 1_555 1_555
C5 C6 1_555 1_555
O8 C7 1_555 1_555
S7 C15 1_555 1_555
O14 C18 1_555 1_555
C17 C18 1_555 1_555

#END
