
#######################################################################
#
#                 Cambridge Crystallographic Data Centre
#                                CCDC 
#
#######################################################################
#
# If this CIF has been generated from an entry in the Cambridge 
# Structural Database, then it will include bibliographic, chemical, 
# crystal, experimental, refinement or atomic coordinate data resulting 
# from the CCDC's data processing and validation procedures.
#
#######################################################################

data_KUXFIU
_symmetry_cell_setting           monoclinic
_symmetry_space_group_name_H-M   'P 21/c'
_symmetry_Int_Tables_number      14
_space_group_name_Hall           '-P 2ybc'
loop_
_symmetry_equiv_pos_site_id
_symmetry_equiv_pos_as_xyz
1 x,y,z
2 -x,1/2+y,1/2-z
3 -x,-y,-z
4 x,1/2-y,1/2+z
_cell_length_a                   11.9109(5)
_cell_length_b                   20.7637(8)
_cell_length_c                   8.3308(3)
_cell_angle_alpha                90
_cell_angle_beta                 93.5350(10)
_cell_angle_gamma                90
_cell_volume                     2056.41
loop_
_atom_site_label
_atom_site_type_symbol
_atom_site_fract_x
_atom_site_fract_y
_atom_site_fract_z
Ce1 Ce -0.538483(11) 0.262160(6) 0.208401(15)
O1 O 0.34984(16) 0.15368(9) 0.1830(2)
C1 C 0.3654(2) 0.14574(12) 0.0394(3)
N1 N 0.08513(17) 0.06052(10) 0.1738(3)
S1 S 0.28572(5) 0.02083(3) 0.07677(9)
Cu1 Cu 0.10962(3) 0.045307(16) 0.41502(4)
O2 O 0.39299(17) 0.19195(9) -0.0504(2)
C2 C 0.3586(2) 0.08002(13) -0.0387(3)
H1 H 0.4343 0.0647 -0.0533
H2 H 0.3201 0.0840 -0.1443
S2 S 0.09170(6) 0.07939(4) -0.12847(8)
N2 N -0.01982(18) 0.08560(11) 0.1248(3)
N3 N 0.04200(17) -0.08748(10) 0.4940(3)
S3 S -0.14495(5) 0.13004(3) -0.13382(7)
C3 C 0.1512(2) 0.05439(12) 0.0556(3)
O3 O -0.35847(16) 0.19544(10) -0.1516(2)
S4 S -0.00222(6) -0.21738(4) 0.49517(12)
N4 N 0.12999(17) -0.04378(10) 0.5053(3)
C4 C -0.0273(2) 0.09785(12) -0.0291(3)
O4 O -0.38903(17) 0.19492(10) 0.1108(2)
O5 O -0.21976(16) -0.10585(9) 0.4626(3)
C5 C -0.2223(2) 0.14984(14) 0.0381(3)
H3 H -0.2368 0.1107 0.0970
H4 H -0.1768 0.1779 0.1089
S5 S 0.22102(5) -0.15407(3) 0.54852(8)
O6 O -0.27628(16) -0.20187(10) 0.3756(3)
S6 S 0.34829(5) -0.02346(3) 0.55930(9)
C6 C -0.3331(2) 0.18285(12) -0.0077(3)
C7 C -0.2163(2) -0.16539(13) 0.4666(3)
O7 O 0.49492(16) -0.18857(8) 0.5561(2)
O8 O 0.50160(17) -0.11493(9) 0.3676(2)
C8 C -0.1332(2) -0.19847(13) 0.5862(4)
H5 H -0.1176 -0.1705 0.6782
H6 H -0.1664 -0.2379 0.6242
C9 C 0.0767(2) -0.14674(12) 0.5123(3)
C10 C 0.2285(2) -0.07111(11) 0.5355(3)
C11 C 0.4525(2) -0.08124(12) 0.6304(3)
H7 H 0.5196 -0.0581 0.6692
H8 H 0.4243 -0.1041 0.7212
C12 C 0.48538(19) -0.13024(12) 0.5073(3)
Ce1_2 Ce 0.461517(11) 0.262160(6) 0.208401(15)
Ce1A Ce -0.461517(11) -0.237840(6) 0.291599(15)
Ce1A_2 Ce 0.538483(11) -0.237840(6) 0.291599(15)
Ce1B Ce 0.538483(11) -0.262160(6) 0.791599(15)
Ce1C Ce -0.538483(11) 0.237840(6) -0.291599(15)
Ce1C_2 Ce 0.461517(11) 0.237840(6) -0.291599(15)
O1_2 O -0.65016(16) 0.15368(9) 0.1830(2)
Cu1B Cu -0.10962(3) -0.045307(16) 0.58498(4)
O2_2 O -0.60701(17) 0.19195(9) -0.0504(2)
O2C O -0.60701(17) 0.30805(9) 0.4496(2)
N3B N -0.04200(17) 0.08748(10) 0.5060(3)
O3C O -0.35847(16) 0.30456(10) 0.3484(2)
O5B O 0.21976(16) 0.10585(9) 0.5374(3)
O6A O -0.72372(16) 0.29813(10) 0.1244(3)
O7A O -0.49492(16) 0.31143(8) -0.0561(2)
O7B O -0.49492(16) 0.18857(8) 0.4439(2)
O8A O -0.50160(17) 0.38507(9) 0.1324(2)
loop_
_geom_bond_atom_site_label_1
_geom_bond_atom_site_label_2
_geom_bond_site_symmetry_1
_geom_bond_site_symmetry_2
Ce1 O4 1_555 1_555
O1 C1 1_555 1_555
C1 O2 1_555 1_555
N1 Cu1 1_555 1_555
S1 C2 1_555 1_555
Cu1 N4 1_555 1_555
O2 Ce1_2 1_555 1_555
C2 C1 1_555 1_555
H1 C2 1_555 1_555
H2 C2 1_555 1_555
S2 C3 1_555 1_555
N2 N1 1_555 1_555
N3 N4 1_555 1_555
S3 C4 1_555 1_555
C3 N1 1_555 1_555
O3 C6 1_555 1_555
S4 C8 1_555 1_555
N4 C10 1_555 1_555
C4 S2 1_555 1_555
O4 C6 1_555 1_555
O5 C7 1_555 1_555
C5 S3 1_555 1_555
H3 C5 1_555 1_555
H4 C5 1_555 1_555
S5 C9 1_555 1_555
O6 C7 1_555 1_555
S6 C10 1_555 1_555
C6 C5 1_555 1_555
C7 C8 1_555 1_555
O7 C12 1_555 1_555
O8 C12 1_555 1_555
C8 H5 1_555 1_555
H6 C8 1_555 1_555
C9 N3 1_555 1_555
C10 S5 1_555 1_555
C11 S6 1_555 1_555
H7 C11 1_555 1_555
H8 C11 1_555 1_555
C12 C11 1_555 1_555
Ce1_2 O1 1_555 1_555
Ce1A O6 1_555 1_555
Ce1A_2 O7 1_555 1_555
Ce1B O7 1_555 1_555
Ce1C O3 1_555 1_555
Ce1C_2 O2 1_555 1_555
O1_2 Ce1 1_555 1_555
Cu1B N3 1_555 1_555
O2_2 Ce1 1_555 1_555
O2C Ce1 1_555 1_555
N3B Cu1 1_555 1_555
O3C Ce1 1_555 1_555
O5B Cu1 1_555 1_555
O6A Ce1 1_555 1_555
O7A Ce1 1_555 1_555
O7B Ce1 1_555 1_555
O8A Ce1 1_555 1_555
S1 C3 1_555 1_555
N2 C4 1_555 1_555
S4 C9 1_555 1_555
O5 Cu1B 1_555 1_555
O8 Ce1A_2 1_555 1_555
Ce1C O2_2 1_555 1_555
Ce1C O7A 1_555 1_555

#END
