
#######################################################################
#
#                 Cambridge Crystallographic Data Centre
#                                CCDC 
#
#######################################################################
#
# If this CIF has been generated from an entry in the Cambridge 
# Structural Database, then it will include bibliographic, chemical, 
# crystal, experimental, refinement or atomic coordinate data resulting 
# from the CCDC's data processing and validation procedures.
#
#######################################################################

data_KUXFAM
_symmetry_cell_setting           triclinic
_symmetry_space_group_name_H-M   'P -1'
_symmetry_Int_Tables_number      2
_space_group_name_Hall           '-P 1'
loop_
_symmetry_equiv_pos_site_id
_symmetry_equiv_pos_as_xyz
1 x,y,z
2 -x,-y,-z
_cell_length_a                   8.0835(4)
_cell_length_b                   11.4755(6)
_cell_length_c                   17.9595(9)
_cell_angle_alpha                79.9730(10)
_cell_angle_beta                 84.4780(10)
_cell_angle_gamma                82.7870(10)
_cell_volume                     1622.81
loop_
_atom_site_label
_atom_site_type_symbol
_atom_site_fract_x
_atom_site_fract_y
_atom_site_fract_z
Yb1 Yb 1.67482(2) 1.708560(16) 0.228501(10)
Cu1 Cu 1.77497(6) 1.65784(4) 0.41801(3)
S1 S 2.22651(15) 1.49612(10) 0.19553(6)
O1 O 1.9354(4) 1.6429(3) 0.25833(17)
N1 N 2.0720(5) 1.3378(3) 0.3000(2)
C1 C 2.0339(5) 1.6013(4) 0.3078(2)
O2 O 1.8123(4) 1.8138(3) 0.12402(16)
H1 H 1.8217 1.7591 0.0953
H2 H 1.7969 1.8784 0.1043
Cu2 Cu 1.51199(8) 2.09204(5) 0.19273(3)
S2 S 2.06961(17) 1.28376(11) 0.16801(6)
O3 O 2.0019(4) 1.5974(3) 0.37818(16)
N2 N 1.9864(5) 1.2376(3) 0.3104(2)
C2 C 2.2099(5) 1.5544(4) 0.2822(2)
H3 H 2.2525 1.4921 0.3217
H4 H 2.2804 1.6183 0.2761
O4 O 1.8570(4) 1.6140(3) 0.53672(17)
H5 H 1.8791 1.6629 0.5620
H6 H 1.9119 1.5447 0.5527
S3 S 1.87497(15) 1.07907(10) 0.23732(6)
O5 O 1.7605(4) 0.8560(3) 0.28506(17)
N3 N 1.3348(4) 2.0026(3) 0.33208(18)
C3 C 2.1207(6) 1.3718(4) 0.2291(2)
S4 S 1.21732(14) 1.89845(9) 0.47014(6)
O6 O 1.8389(4) 0.8179(3) 0.40368(16)
N4 N 1.4186(4) 2.0971(3) 0.29446(18)
C4 C 1.9749(5) 1.2011(4) 0.2470(2)
S5 S 1.37745(15) 2.12778(10) 0.43264(6)
O7 O 1.4721(4) 1.7286(3) 0.32665(15)
C5 C 1.8641(6) 1.0087(4) 0.3353(2)
H7 H 1.9716 1.0055 0.3557
H8 H 1.7815 1.0546 0.3646
N5 N 1.6201(5) 2.1380(3) 0.09354(18)
S6 S 1.53649(15) 2.30006(9) 0.30139(6)
O8 O 1.5434(4) 1.7247(3) 0.44338(15)
C6 C 1.8166(5) 0.8843(4) 0.3409(2)
N6 N 1.6595(5) 2.0502(3) 0.04826(19)
S7 S 1.63660(16) 2.36416(10) 0.10676(6)
O9 O 1.6478(4) 2.5217(3) 0.30093(16)
C7 C 1.4392(5) 1.7412(3) 0.3939(2)
S8 S 1.77401(17) 2.23691(10) -0.02595(6)
O10 O 1.7042(4) 2.5015(3) 0.42304(16)
C8 C 1.2567(5) 1.7747(4) 0.4180(2)
H9 H 1.2135 1.7057 0.4492
H10 H 1.1948 1.7943 0.3730
S9 S 1.80799(16) 1.99529(10) -0.08110(6)
O11 O 1.7166(4) 2.5781(3) 0.14349(16)
C9 C 1.3077(5) 2.0077(3) 0.4035(2)
O12 O 1.8502(5) 2.6534(3) 0.03475(19)
C10 C 1.4453(5) 2.1718(4) 0.3388(2)
C11 C 1.5946(7) 2.3455(4) 0.3856(2)
H11 H 1.4991 2.3471 0.4226
H12 H 1.6829 2.2885 0.4076
O13 O 1.5007(4) 2.0989(3) -0.18896(15)
O14 O 1.5812(4) 2.2679(3) -0.17407(15)
C12 C 1.6542(5) 2.4675(4) 0.3666(2)
C13 C 1.7767(6) 2.5756(4) 0.0764(2)
C14 C 1.7549(6) 2.4669(4) 0.0416(2)
H13 H 1.8640 2.4269 0.0283
H14 H 1.6975 2.4922 -0.0045
C15 C 1.6722(5) 2.2403(4) 0.0620(2)
C16 C 1.7388(5) 2.0892(4) -0.0153(2)
C17 C 1.7895(5) 2.1010(4) -0.1681(2)
H15 H 1.8259 2.0603 -0.2108
H16 H 1.8626 2.1620 -0.1688
C18 C 1.6140(5) 2.1586(4) -0.1767(2)
Yb1_2 Yb 1.67482(2) 0.708560(16) 0.228501(10)
Yb1_3 Yb 1.67482(2) 2.708560(16) 0.228501(10)
Yb1A Yb 1.32518(2) 2.291440(16) -0.228501(10)
Cu1_2 Cu 1.77497(6) 0.65784(4) 0.41801(3)
Cu1_3 Cu 1.77497(6) 2.65784(4) 0.41801(3)
Cu2A Cu 1.48801(8) 1.90796(5) -0.19273(3)
O5_2 O 1.7605(4) 1.8560(3) 0.28506(17)
O6_2 O 1.8389(4) 1.8179(3) 0.40368(16)
O9_2 O 1.6478(4) 1.5217(3) 0.30093(16)
O10_2 O 1.7042(4) 1.5015(3) 0.42304(16)
O11_2 O 1.7166(4) 1.5781(3) 0.14349(16)
O13A O 1.4993(4) 1.9011(3) 0.18896(15)
O14A O 1.4188(4) 1.7321(3) 0.17407(15)
loop_
_geom_bond_atom_site_label_1
_geom_bond_atom_site_label_2
_geom_bond_site_symmetry_1
_geom_bond_site_symmetry_2
Yb1 O1 1_555 1_555
Cu1 O3 1_555 1_555
S1 C2 1_555 1_555
O1 C1 1_555 1_555
N1 N2 1_555 1_555
C1 O3 1_555 1_555
O2 Yb1 1_555 1_555
H1 O2 1_555 1_555
H2 O2 1_555 1_555
Cu2 N4 1_555 1_555
S2 C3 1_555 1_555
N2 C4 1_555 1_555
C2 C1 1_555 1_555
H3 C2 1_555 1_555
H4 C2 1_555 1_555
O4 Cu1 1_555 1_555
H5 O4 1_555 1_555
H6 O4 1_555 1_555
S3 C4 1_555 1_555
O5 C6 1_555 1_555
N3 N4 1_555 1_555
C3 S1 1_555 1_555
S4 C8 1_555 1_555
O6 C6 1_555 1_555
N4 C10 1_555 1_555
C4 S2 1_555 1_555
S5 C9 1_555 1_555
O7 Yb1 1_555 1_555
C5 S3 1_555 1_555
H7 C5 1_555 1_555
H8 C5 1_555 1_555
N5 Cu2 1_555 1_555
S6 C10 1_555 1_555
O8 Cu1 1_555 1_555
C6 C5 1_555 1_555
N6 N5 1_555 1_555
S7 C14 1_555 1_555
O9 C12 1_555 1_555
C7 O7 1_555 1_555
S8 C15 1_555 1_555
O10 C12 1_555 1_555
C8 C7 1_555 1_555
H9 C8 1_555 1_555
H10 C8 1_555 1_555
S9 C16 1_555 1_555
O11 C13 1_555 1_555
C9 N3 1_555 1_555
O12 C13 1_555 1_555
C10 S5 1_555 1_555
C11 S6 1_555 1_555
H11 C11 1_555 1_555
H12 C11 1_555 1_555
O13 C18 1_555 1_555
O14 C18 1_555 1_555
C12 C11 1_555 1_555
C13 C14 1_555 1_555
C14 H13 1_555 1_555
H14 C14 1_555 1_555
C15 N5 1_555 1_555
C16 N6 1_555 1_555
C17 S9 1_555 1_555
H15 C17 1_555 1_555
H16 C17 1_555 1_555
C18 C17 1_555 1_555
Yb1_2 O5 1_555 1_555
Yb1_3 O9 1_555 1_555
Yb1A O13 1_555 1_555
Cu1_2 O6 1_555 1_555
Cu1_3 O10 1_555 1_555
Cu2A O13 1_555 1_555
O5_2 Yb1 1_555 1_555
O6_2 Cu1 1_555 1_555
O9_2 Yb1 1_555 1_555
O10_2 Cu1 1_555 1_555
O11_2 Yb1 1_555 1_555
O13A Yb1 1_555 1_555
O14A Yb1 1_555 1_555
N1 C3 1_555 1_555
Cu2 O13A 1_555 1_555
S4 C9 1_555 1_555
O8 C7 1_555 1_555
S7 C15 1_555 1_555
S8 C16 1_555 1_555
O11 Yb1_3 1_555 1_555
O14 Yb1A 1_555 1_555

#END
