
#######################################################################
#
#                 Cambridge Crystallographic Data Centre
#                                CCDC 
#
#######################################################################
#
# If this CIF has been generated from an entry in the Cambridge 
# Structural Database, then it will include bibliographic, chemical, 
# crystal, experimental, refinement or atomic coordinate data resulting 
# from the CCDC's data processing and validation procedures.
#
#######################################################################

data_KUXFUG
_symmetry_cell_setting           monoclinic
_symmetry_space_group_name_H-M   'P 21/c'
_symmetry_Int_Tables_number      14
_space_group_name_Hall           '-P 2ybc'
loop_
_symmetry_equiv_pos_site_id
_symmetry_equiv_pos_as_xyz
1 x,y,z
2 -x,1/2+y,1/2-z
3 -x,-y,-z
4 x,1/2-y,1/2+z
_cell_length_a                   11.8999(4)
_cell_length_b                   20.7364(8)
_cell_length_c                   8.2810(3)
_cell_angle_alpha                90
_cell_angle_beta                 93.6750(10)
_cell_angle_gamma                90
_cell_volume                     2039.23
loop_
_atom_site_label
_atom_site_type_symbol
_atom_site_fract_x
_atom_site_fract_y
_atom_site_fract_z
Nd1 Nd 0.961689(14) 0.238124(9) 0.70512(2)
Cu1 Cu 0.39019(4) -0.04514(2) 0.58491(6)
C1 C 0.8337(3) -0.18325(17) 1.0097(4)
S1 S 0.64656(8) -0.13001(5) 1.13711(10)
O1 O 0.8603(2) -0.19603(13) 1.1543(3)
N1 N 0.5207(2) -0.08506(15) 0.8778(4)
N2 N 0.4158(2) -0.06027(15) 0.8279(3)
C2 C 0.7234(3) -0.14977(19) 0.9640(4)
H1 H 0.6774 -0.1775 0.8924
H2 H 0.7383 -0.1105 0.9053
S2 S 0.40879(8) -0.08054(5) 1.13182(11)
O2 O 0.8904(2) -0.19510(14) 0.8898(3)
O3 O 0.1485(2) -0.15484(12) 0.8195(3)
N3 N 0.3700(2) 0.04403(14) 0.4935(3)
C3 C 0.5281(3) -0.09792(17) 1.0312(4)
S3 S 0.21391(8) -0.02183(4) 0.92532(12)
C4 C 0.3489(3) -0.05486(17) 0.9460(4)
N4 N 0.4579(2) 0.08795(14) 0.5044(4)
S4 S 0.15112(8) 0.02395(4) 0.44120(12)
O4 O 0.1065(2) -0.19308(12) 1.0548(3)
C5 C 0.1420(3) -0.08086(17) 1.0428(5)
H3 H 0.1814 -0.0847 1.1486
H4 H 0.0665 -0.0655 1.0584
S5 S 0.27895(7) 0.15466(4) 0.44944(11)
O5 O 0.0053(2) 0.18975(12) 0.4427(3)
C6 C 0.1342(3) -0.14691(17) 0.9653(4)
S6 S 0.50298(9) 0.21797(5) 0.50194(16)
O6 O -0.0027(2) 0.11609(13) 0.6324(3)
O7 O 0.7778(2) 0.20262(14) 0.6220(4)
C7 C 0.0142(3) 0.13113(17) 0.4924(4)
O8 O 0.7211(2) 0.10618(13) 0.5359(3)
C8 C 0.0470(3) 0.08161(17) 0.3687(4)
H5 H 0.0753 0.1043 0.2771
H6 H -0.0202 0.0584 0.3298
C9 C 0.2716(3) 0.07190(17) 0.4634(4)
C10 C 0.4238(3) 0.14686(17) 0.4854(4)
C11 C 0.6336(3) 0.19865(19) 0.4111(5)
H7 H 0.6178 0.1704 0.3191
H8 H 0.6668 0.2379 0.3720
C12 C 0.7171(3) 0.16597(18) 0.5311(4)
Nd1_2 Nd -0.038311(14) 0.238124(9) 0.70512(2)
Nd1A Nd 0.038311(14) -0.261876(9) 0.79488(2)
Nd1A_2 Nd 1.038311(14) -0.261876(9) 0.79488(2)
Nd1B Nd 0.038311(14) -0.238124(9) 1.29488(2)
Nd1B_2 Nd 1.038311(14) -0.238124(9) 1.29488(2)
Nd1C Nd -0.038311(14) 0.261876(9) 0.20512(2)
Cu1B Cu 0.60981(4) 0.04514(2) 0.41509(6)
O1B O 1.1397(2) 0.19603(13) 0.8457(3)
O2A O 1.1096(2) 0.30490(14) 0.6102(3)
O3A O 0.8515(2) 0.34516(12) 0.6805(3)
N4B N 0.5421(2) -0.08795(14) 0.4956(4)
O4A O 0.8935(2) 0.30692(12) 0.4452(3)
O4B O 0.8935(2) 0.19308(12) 0.9452(3)
O5_2 O 1.0053(2) 0.18975(12) 0.4427(3)
O5C O 1.0053(2) 0.31025(12) 0.9427(3)
O6_2 O 0.9973(2) 0.11609(13) 0.6324(3)
O8B O 0.2789(2) -0.10618(13) 0.4641(3)
loop_
_geom_bond_atom_site_label_1
_geom_bond_atom_site_label_2
_geom_bond_site_symmetry_1
_geom_bond_site_symmetry_2
Nd1 O7 1_555 1_555
Cu1 N2 1_555 1_555
C1 O1 1_555 1_555
S1 C2 1_555 1_555
O1 Nd1B_2 1_555 1_555
N1 N2 1_555 1_555
N2 C4 1_555 1_555
C2 C1 1_555 1_555
H1 C2 1_555 1_555
H2 C2 1_555 1_555
S2 C3 1_555 1_555
O2 C1 1_555 1_555
O3 C6 1_555 1_555
N3 Cu1 1_555 1_555
C3 S1 1_555 1_555
S3 C4 1_555 1_555
C4 S2 1_555 1_555
N4 N3 1_555 1_555
S4 C8 1_555 1_555
O4 C6 1_555 1_555
C5 S3 1_555 1_555
H3 C5 1_555 1_555
H4 C5 1_555 1_555
S5 C9 1_555 1_555
O5 C7 1_555 1_555
C6 C5 1_555 1_555
S6 C10 1_555 1_555
O6 C7 1_555 1_555
O7 C12 1_555 1_555
C7 C8 1_555 1_555
O8 C12 1_555 1_555
C8 H5 1_555 1_555
H6 C8 1_555 1_555
C9 N3 1_555 1_555
C10 N4 1_555 1_555
C11 S6 1_555 1_555
H7 C11 1_555 1_555
H8 C11 1_555 1_555
C12 C11 1_555 1_555
Nd1_2 O5 1_555 1_555
Nd1A O3 1_555 1_555
Nd1A_2 O2 1_555 1_555
Nd1B O4 1_555 1_555
Nd1C O5 1_555 1_555
Cu1B N4 1_555 1_555
O1B Nd1 1_555 1_555
O2A Nd1 1_555 1_555
O3A Nd1 1_555 1_555
N4B Cu1 1_555 1_555
O4A Nd1 1_555 1_555
O4B Nd1 1_555 1_555
O5_2 Nd1 1_555 1_555
O5C Nd1 1_555 1_555
O6_2 Nd1 1_555 1_555
O8B Cu1 1_555 1_555
N1 C3 1_555 1_555
S4 C9 1_555 1_555
O4 Nd1A 1_555 1_555
S5 C10 1_555 1_555
O6 Nd1_2 1_555 1_555
O8 Cu1B 1_555 1_555

#END
