
#######################################################################
#
#                 Cambridge Crystallographic Data Centre
#                                CCDC 
#
#######################################################################
#
# If this CIF has been generated from an entry in the Cambridge 
# Structural Database, then it will include bibliographic, chemical, 
# crystal, experimental, refinement or atomic coordinate data resulting 
# from the CCDC's data processing and validation procedures.
#
#######################################################################

data_KUXGIV
_symmetry_cell_setting           monoclinic
_symmetry_space_group_name_H-M   'P 21/c'
_symmetry_Int_Tables_number      14
_space_group_name_Hall           '-P 2ybc'
loop_
_symmetry_equiv_pos_site_id
_symmetry_equiv_pos_as_xyz
1 x,y,z
2 -x,1/2+y,1/2-z
3 -x,-y,-z
4 x,1/2-y,1/2+z
_cell_length_a                   11.8790(5)
_cell_length_b                   20.7070(9)
_cell_length_c                   8.2453(4)
_cell_angle_alpha                90
_cell_angle_beta                 93.7520(10)
_cell_angle_gamma                90
_cell_volume                     2023.82
loop_
_atom_site_label
_atom_site_type_symbol
_atom_site_fract_x
_atom_site_fract_y
_atom_site_fract_z
Gd1 Gd -0.038179(13) 0.238208(8) 0.702848(18)
Cu1 Cu 0.61014(4) 0.04501(2) 0.41499(5)
N1 N 0.4582(2) 0.08783(13) 0.5035(3)
S1 S 0.27894(7) 0.15517(4) 0.44811(10)
C1 C 0.0133(2) 0.13194(16) 0.4902(4)
O1 O -0.0037(2) 0.11718(12) 0.6319(3)
S2 S 0.15019(7) 0.02441(4) 0.44095(11)
N2 N 0.3696(2) 0.04434(13) 0.4925(3)
O2 O 0.00513(19) 0.19055(11) 0.4407(3)
C2 C 0.0458(3) 0.08216(16) 0.3669(4)
H1 H 0.0741 0.1046 0.2747
H2 H -0.0216 0.0589 0.3282
S3 S 0.50369(8) 0.21833(5) 0.50029(15)
O3 O 0.7229(2) 0.10640(12) 0.5342(3)
C3 C 0.2712(3) 0.07220(16) 0.4623(4)
N3 N 0.4784(2) 0.08494(14) 0.1212(3)
N4 N 0.5843(2) 0.06034(14) 0.1711(3)
C4 C 0.4234(3) 0.14717(16) 0.4835(4)
S4 S 0.59080(7) 0.08134(5) -0.13391(11)
O4 O 0.7799(2) 0.20329(13) 0.6193(3)
S5 S 0.35183(7) 0.13013(5) -0.13960(10)
C5 C 0.6349(3) 0.19915(18) 0.4086(4)
H3 H 0.6189 0.1710 0.3159
H4 H 0.6679 0.2386 0.3696
O5 O 0.1084(2) 0.19568(12) 0.1102(3)
S6 S 0.78654(7) 0.02240(4) 0.07276(11)
C6 C 0.7193(3) 0.16614(17) 0.5289(4)
O6 O 0.13696(19) 0.19663(12) -0.1560(3)
O7 O 0.8944(2) 0.19372(12) -0.0586(3)
C7 C 0.1643(3) 0.18402(16) -0.0112(4)
C8 C 0.2749(3) 0.15041(18) 0.0344(4)
H5 H 0.2600 0.1112 0.0938
H6 H 0.3212 0.1783 0.1059
O8 O 0.8532(2) 0.15600(12) 0.1782(3)
C9 C 0.4706(3) 0.09820(16) -0.0338(4)
C10 C 0.6513(3) 0.05530(16) 0.0516(4)
C11 C 0.8585(3) 0.08148(16) -0.0462(4)
H7 H 0.9340 0.0660 -0.0622
H8 H 0.8187 0.0852 -0.1524
C12 C 0.8668(3) 0.14795(16) 0.0312(4)
Gd1_2 Gd -0.038179(13) 0.238208(8) -0.297152(18)
Gd1_3 Gd 0.961821(13) 0.238208(8) -0.297152(18)
Gd1_4 Gd 0.961821(13) 0.238208(8) 0.702848(18)
Gd1C Gd -0.038179(13) 0.261792(8) 0.202848(18)
Gd1C_2 Gd 0.961821(13) 0.261792(8) 0.202848(18)
Cu1B Cu 0.38986(4) -0.04501(2) 0.58501(5)
N2B N 0.6304(2) -0.04434(13) 0.5075(3)
O2C O 0.00513(19) 0.30945(11) 0.9407(3)
O4_2 O -0.2201(2) 0.20329(13) 0.6193(3)
O5C O 0.1084(2) 0.30432(12) 0.6102(3)
O6_2 O 0.13696(19) 0.19663(12) 0.8440(3)
O7_2 O -0.1056(2) 0.19372(12) 0.9414(3)
O7C O -0.1056(2) 0.30628(12) 0.4414(3)
O8C O -0.1468(2) 0.34400(12) 0.6782(3)
loop_
_geom_bond_atom_site_label_1
_geom_bond_atom_site_label_2
_geom_bond_site_symmetry_1
_geom_bond_site_symmetry_2
Gd1 O1 1_555 1_555
Cu1 N1 1_555 1_555
N1 N2 1_555 1_555
S1 C3 1_555 1_555
C1 O1 1_555 1_555
S2 C2 1_555 1_555
N2 C3 1_555 1_555
O2 Gd1 1_555 1_555
C2 C1 1_555 1_555
H1 C2 1_555 1_555
H2 C2 1_555 1_555
S3 C4 1_555 1_555
O3 Cu1 1_555 1_555
C3 S2 1_555 1_555
N3 N4 1_555 1_555
N4 Cu1 1_555 1_555
C4 N1 1_555 1_555
S4 C9 1_555 1_555
O4 C6 1_555 1_555
S5 C8 1_555 1_555
C5 S3 1_555 1_555
H3 C5 1_555 1_555
H4 C5 1_555 1_555
O5 C7 1_555 1_555
S6 C10 1_555 1_555
C6 O3 1_555 1_555
O6 C7 1_555 1_555
O7 C12 1_555 1_555
C7 C8 1_555 1_555
C8 H5 1_555 1_555
H6 C8 1_555 1_555
O8 C12 1_555 1_555
C9 N3 1_555 1_555
C10 N4 1_555 1_555
C11 S6 1_555 1_555
H7 C11 1_555 1_555
H8 C11 1_555 1_555
C12 C11 1_555 1_555
Gd1_2 O6 1_555 1_555
Gd1_3 O7 1_555 1_555
Gd1_4 O4 1_555 1_555
Gd1C O2 1_555 1_555
Gd1C_2 O7 1_555 1_555
Cu1B N2 1_555 1_555
N2B Cu1 1_555 1_555
O2C Gd1 1_555 1_555
O4_2 Gd1 1_555 1_555
O5C Gd1 1_555 1_555
O6_2 Gd1 1_555 1_555
O7_2 Gd1 1_555 1_555
O7C Gd1 1_555 1_555
O8C Gd1 1_555 1_555
S1 C4 1_555 1_555
C1 O2 1_555 1_555
S4 C10 1_555 1_555
S5 C9 1_555 1_555
C5 C6 1_555 1_555
O5 Gd1C 1_555 1_555
O8 Gd1C_2 1_555 1_555
Gd1C O7C 1_555 1_555

#END
