
#######################################################################
#
#                 Cambridge Crystallographic Data Centre
#                                CCDC 
#
#######################################################################
#
# If this CIF has been generated from an entry in the Cambridge 
# Structural Database, then it will include bibliographic, chemical, 
# crystal, experimental, refinement or atomic coordinate data resulting 
# from the CCDC's data processing and validation procedures.
#
#######################################################################

data_KUXGUH
_symmetry_cell_setting           monoclinic
_symmetry_space_group_name_H-M   'P 21/c'
_symmetry_Int_Tables_number      14
_space_group_name_Hall           '-P 2ybc'
loop_
_symmetry_equiv_pos_site_id
_symmetry_equiv_pos_as_xyz
1 x,y,z
2 -x,1/2+y,1/2-z
3 -x,-y,-z
4 x,1/2-y,1/2+z
_cell_length_a                   11.8217(4)
_cell_length_b                   20.6159(7)
_cell_length_c                   8.1709(3)
_cell_angle_alpha                90
_cell_angle_beta                 93.8550(10)
_cell_angle_gamma                90
_cell_volume                     1986.87
loop_
_atom_site_label
_atom_site_type_symbol
_atom_site_fract_x
_atom_site_fract_y
_atom_site_fract_z
Dy1 Dy 0.038014(9) -0.261794(5) 0.800506(12)
Cu1 Cu 0.38956(3) -0.454971(15) 0.08377(4)
C1 C 0.13234(19) -0.35088(11) 0.4741(3)
N1 N 0.41695(17) -0.43982(10) 0.3298(2)
O1 O 0.10514(15) -0.30541(8) 0.5672(2)
S1 S 0.21314(5) -0.47633(3) 0.42770(8)
S2 S 0.40970(5) -0.41697(4) 0.63638(8)
C2 C 0.1413(2) -0.41801(12) 0.5501(3)
H1 H 0.0655 -0.4338 0.5661
H2 H 0.1816 -0.4148 0.6571
N2 N 0.52347(17) -0.41539(10) 0.3801(2)
O2 O 0.14392(15) -0.34180(8) 0.3258(2)
C3 C 0.3492(2) -0.44359(11) 0.4493(3)
S3 S 0.65046(5) -0.36955(3) 0.64275(7)
N3 N 0.36915(16) -0.54447(9) -0.0079(2)
O3 O 0.86601(14) -0.30242(9) 0.66022(19)
C4 C 0.5307(2) -0.40157(11) 0.5355(3)
N4 N 0.45846(17) -0.58835(9) 0.0025(2)
O4 O 0.89461(15) -0.30330(9) 0.3906(2)
S4 S 0.14871(5) -0.52487(3) -0.05992(8)
S5 S 0.27851(5) -0.65598(3) -0.05428(7)
C5 C 0.7279(2) -0.34937(13) 0.4679(3)
H3 H 0.7431 -0.3888 0.4085
H4 H 0.6813 -0.3216 0.3951
O5 O -0.00403(16) -0.61887(8) 0.1322(2)
S6 S 0.50466(6) -0.71900(3) -0.00158(11)
O6 O 0.00439(15) -0.69223(8) -0.06064(19)
C6 C 0.83930(19) -0.31524(11) 0.5134(3)
O7 O 0.72448(16) -0.60706(9) 0.0332(2)
C7 C 0.01243(18) -0.63324(11) -0.0117(3)
C8 C 0.0441(2) -0.58308(11) -0.1356(3)
H5 H -0.0240 -0.5599 -0.1742
H6 H 0.0725 -0.6053 -0.2290
O8 O 0.78332(15) -0.70467(9) 0.1142(2)
C9 C 0.2701(2) -0.57240(11) -0.0391(3)
C10 C 0.4237(2) -0.64787(11) -0.0175(3)
C11 C 0.6356(2) -0.69961(13) -0.0955(3)
H7 H 0.6683 -0.7392 -0.1362
H8 H 0.6190 -0.6710 -0.1882
C12 C 0.7215(2) -0.66708(12) 0.0252(3)
Dy1_2 Dy 1.038014(9) -0.261794(5) 0.800506(12)
Dy1A Dy -0.038014(9) -0.761794(5) -0.300506(12)
Dy1B Dy -0.038014(9) -0.738206(5) 0.199494(12)
Dy1B_2 Dy 0.961986(9) -0.738206(5) 0.199494(12)
Dy1C Dy 0.038014(9) -0.238206(5) 0.300506(12)
Dy1C_2 Dy 1.038014(9) -0.238206(5) 0.300506(12)
Cu1B Cu 0.61044(3) -0.545029(15) -0.08377(4)
O1C O 0.10514(15) -0.19459(8) 1.0672(2)
O2C O 0.14392(15) -0.15820(8) 0.8258(2)
O3_2 O -0.13399(14) -0.30242(9) 0.66022(19)
N4B N 0.54154(17) -0.41165(9) -0.0025(2)
O4C O -0.10539(15) -0.19670(9) 0.8906(2)
O5B O 0.00403(16) -0.38113(8) 0.8678(2)
O6A O -0.00439(15) -0.19223(8) 0.56064(19)
O6B O -0.00439(15) -0.30777(8) 1.06064(19)
O7B O 0.27552(16) -0.39294(9) -0.0332(2)
O8B O 0.21668(15) -0.29533(9) 0.8858(2)
loop_
_geom_bond_atom_site_label_1
_geom_bond_atom_site_label_2
_geom_bond_site_symmetry_1
_geom_bond_site_symmetry_2
Dy1 O1 1_555 1_555
Cu1 N1 1_555 1_555
C1 O1 1_555 1_555
N1 N2 1_555 1_555
O1 Dy1C 1_555 1_555
S1 C2 1_555 1_555
S2 C3 1_555 1_555
C2 C1 1_555 1_555
H1 C2 1_555 1_555
H2 C2 1_555 1_555
N2 C4 1_555 1_555
O2 C1 1_555 1_555
C3 N1 1_555 1_555
S3 C4 1_555 1_555
N3 Cu1 1_555 1_555
O3 C6 1_555 1_555
C4 S2 1_555 1_555
N4 N3 1_555 1_555
O4 C6 1_555 1_555
S4 C8 1_555 1_555
S5 C9 1_555 1_555
C5 S3 1_555 1_555
H3 C5 1_555 1_555
H4 C5 1_555 1_555
O5 C7 1_555 1_555
S6 C10 1_555 1_555
O6 C7 1_555 1_555
C6 C5 1_555 1_555
O7 C12 1_555 1_555
C7 C8 1_555 1_555
C8 H5 1_555 1_555
H6 C8 1_555 1_555
O8 C12 1_555 1_555
C9 N3 1_555 1_555
C10 N4 1_555 1_555
C11 S6 1_555 1_555
H7 C11 1_555 1_555
H8 C11 1_555 1_555
C12 C11 1_555 1_555
Dy1_2 O3 1_555 1_555
Dy1A O6 1_555 1_555
Dy1B O5 1_555 1_555
Dy1B_2 O8 1_555 1_555
Dy1C O2 1_555 1_555
Dy1C_2 O4 1_555 1_555
Cu1B N4 1_555 1_555
O1C Dy1 1_555 1_555
O2C Dy1 1_555 1_555
O3_2 Dy1 1_555 1_555
N4B Cu1 1_555 1_555
O4C Dy1 1_555 1_555
O5B Dy1 1_555 1_555
O6A Dy1 1_555 1_555
O6B Dy1 1_555 1_555
O7B Cu1 1_555 1_555
O8B Dy1 1_555 1_555
S1 C3 1_555 1_555
S4 C9 1_555 1_555
S5 C10 1_555 1_555
O6 Dy1B 1_555 1_555
O7 Cu1B 1_555 1_555
Dy1C O6A 1_555 1_555

#END
