
#######################################################################
#
#                 Cambridge Crystallographic Data Centre
#                                CCDC 
#
#######################################################################
#
# If this CIF has been generated from an entry in the Cambridge 
# Structural Database, then it will include bibliographic, chemical, 
# crystal, experimental, refinement or atomic coordinate data resulting 
# from the CCDC's data processing and validation procedures.
#
#######################################################################

data_KUXGER
_symmetry_cell_setting           monoclinic
_symmetry_space_group_name_H-M   'P 21/c'
_symmetry_Int_Tables_number      14
_space_group_name_Hall           '-P 2ybc'
loop_
_symmetry_equiv_pos_site_id
_symmetry_equiv_pos_as_xyz
1 x,y,z
2 -x,1/2+y,1/2-z
3 -x,-y,-z
4 x,1/2-y,1/2+z
_cell_length_a                   11.8580(5)
_cell_length_b                   20.6738(9)
_cell_length_c                   8.2197(3)
_cell_angle_alpha                90
_cell_angle_beta                 93.7700(10)
_cell_angle_gamma                90
_cell_volume                     2010.7
loop_
_atom_site_label
_atom_site_type_symbol
_atom_site_fract_x
_atom_site_fract_y
_atom_site_fract_z
Eu1 Eu -0.538136(11) -0.261796(7) -0.797912(15)
Cu1 Cu 0.11018(3) -0.045010(19) -0.58457(5)
S1 S -0.00398(7) 0.21848(4) -0.50014(13)
O1 O -0.22308(18) 0.10641(11) -0.5343(3)
N1 N 0.04162(19) 0.08816(12) -0.5037(3)
C1 C -0.2196(2) 0.16625(15) -0.5280(4)
S2 S 0.22120(6) 0.15540(4) -0.44754(9)
N2 N 0.13041(19) 0.04425(12) -0.4925(3)
O2 O -0.28088(17) 0.20374(12) -0.6179(3)
C2 C -0.1350(2) 0.19914(15) -0.4081(4)
H1 H -0.1188 0.1709 -0.3152
H2 H -0.1680 0.2386 -0.3686
C3 C 0.0763(2) 0.14749(14) -0.4843(3)
S3 S 0.35003(6) 0.02441(4) -0.44066(10)
O3 O 0.49489(17) 0.19103(10) -0.4403(2)
N3 N -0.02196(19) -0.08496(13) -0.8789(3)
N4 N 0.08407(19) -0.06008(12) -0.8287(3)
C4 C 0.2293(2) 0.07217(14) -0.4624(3)
S4 S -0.14869(6) -0.13019(4) -1.14056(8)
O4 O 0.50379(18) 0.11751(10) -0.6321(2)
O5 O -0.36368(16) -0.19674(11) -1.1574(2)
C5 C 0.4547(2) 0.08223(14) -0.3668(3)
H3 H 0.4266 0.1045 -0.2738
H4 H 0.5223 0.0589 -0.3285
S5 S 0.09069(6) -0.08172(4) -1.13467(9)
S6 S 0.28665(6) -0.02272(4) -0.92732(10)
O6 O -0.39231(17) -0.19619(11) -0.8900(2)
C6 C 0.4873(2) 0.13251(14) -0.4899(3)
O7 O 0.39440(17) -0.19407(10) -1.0606(2)
C7 C -0.3369(2) -0.18401(14) -1.0117(3)
O8 O 0.35349(17) -0.15660(10) -0.8226(2)
C8 C -0.2261(2) -0.15004(16) -0.9661(3)
H5 H -0.1798 -0.1777 -0.8936
H6 H -0.2413 -0.1106 -0.9074
C9 C -0.0298(2) -0.09822(14) -1.0341(3)
C10 C 0.1510(2) -0.05563(14) -0.9488(3)
C11 C 0.3584(2) -0.08161(15) -1.0469(4)
H7 H 0.3186 -0.0852 -1.1534
H8 H 0.4341 -0.0661 -1.0629
C12 C 0.3666(2) -0.14807(14) -0.9699(3)
Eu1_2 Eu 0.461864(11) -0.261796(7) -0.797912(15)
Eu1A Eu -0.461864(11) 0.238204(7) -0.702088(15)
Eu1A_2 Eu 0.538136(11) 0.238204(7) -0.702088(15)
Eu1B Eu 0.538136(11) 0.261796(7) -0.202088(15)
Eu1C Eu -0.538136(11) -0.238204(7) -1.297912(15)
Eu1C_2 Eu 0.461864(11) -0.238204(7) -1.297912(15)
Cu1B Cu -0.11018(3) 0.045010(19) -0.41543(5)
O1B O 0.22308(18) -0.10641(11) -0.4657(3)
N1B N -0.04162(19) -0.08816(12) -0.4963(3)
O2A O -0.71912(17) -0.29626(12) -0.8821(3)
O3A O -0.49489(17) -0.30897(10) -1.0597(2)
O3B O -0.49489(17) -0.19103(10) -0.5597(2)
O4A O -0.50379(18) -0.38249(10) -0.8679(2)
O5C O -0.36368(16) -0.30326(11) -0.6574(2)
O7_2 O -0.60560(17) -0.19407(10) -1.0606(2)
O7C O -0.60560(17) -0.30593(10) -0.5606(2)
O8_2 O -0.64651(17) -0.15660(10) -0.8226(2)
loop_
_geom_bond_atom_site_label_1
_geom_bond_atom_site_label_2
_geom_bond_site_symmetry_1
_geom_bond_site_symmetry_2
Eu1 O6 1_555 1_555
Cu1 N2 1_555 1_555
S1 C2 1_555 1_555
O1 C1 1_555 1_555
N1 N2 1_555 1_555
C1 O2 1_555 1_555
S2 C3 1_555 1_555
N2 C4 1_555 1_555
O2 Eu1A 1_555 1_555
C2 C1 1_555 1_555
H1 C2 1_555 1_555
H2 C2 1_555 1_555
C3 S1 1_555 1_555
S3 C4 1_555 1_555
O3 C6 1_555 1_555
N3 N4 1_555 1_555
N4 Cu1 1_555 1_555
C4 S2 1_555 1_555
S4 C8 1_555 1_555
O4 C6 1_555 1_555
O5 C7 1_555 1_555
C5 S3 1_555 1_555
H3 C5 1_555 1_555
H4 C5 1_555 1_555
S5 C9 1_555 1_555
S6 C10 1_555 1_555
O6 C7 1_555 1_555
C6 C5 1_555 1_555
O7 C12 1_555 1_555
C7 C8 1_555 1_555
O8 C12 1_555 1_555
C8 H5 1_555 1_555
H6 C8 1_555 1_555
C9 N3 1_555 1_555
C10 N4 1_555 1_555
C11 S6 1_555 1_555
H7 C11 1_555 1_555
H8 C11 1_555 1_555
C12 C11 1_555 1_555
Eu1_2 O7 1_555 1_555
Eu1A_2 O3 1_555 1_555
Eu1B O3 1_555 1_555
Eu1C O5 1_555 1_555
Eu1C_2 O7 1_555 1_555
Cu1B O1 1_555 1_555
O1B Cu1 1_555 1_555
N1B Cu1 1_555 1_555
O2A Eu1 1_555 1_555
O3A Eu1 1_555 1_555
O3B Eu1 1_555 1_555
O4A Eu1 1_555 1_555
O5C Eu1 1_555 1_555
O7_2 Eu1 1_555 1_555
O7C Eu1 1_555 1_555
O8_2 Eu1 1_555 1_555
N1 C3 1_555 1_555
N1 Cu1B 1_555 1_555
S4 C9 1_555 1_555
O4 Eu1A_2 1_555 1_555
S5 C10 1_555 1_555
O8 Eu1_2 1_555 1_555
Eu1C O3A 1_555 1_555
Eu1C O7_2 1_555 1_555

#END
