
#######################################################################
#
#                 Cambridge Crystallographic Data Centre
#                                CCDC 
#
#######################################################################
#
# If this CIF has been generated from an entry in the Cambridge 
# Structural Database, then it will include bibliographic, chemical, 
# crystal, experimental, refinement or atomic coordinate data resulting 
# from the CCDC's data processing and validation procedures.
#
#######################################################################

data_KUXGOB
_symmetry_cell_setting           monoclinic
_symmetry_space_group_name_H-M   'P 21/c'
_symmetry_Int_Tables_number      14
_space_group_name_Hall           '-P 2ybc'
loop_
_symmetry_equiv_pos_site_id
_symmetry_equiv_pos_as_xyz
1 x,y,z
2 -x,1/2+y,1/2-z
3 -x,-y,-z
4 x,1/2-y,1/2+z
_cell_length_a                   11.8350(5)
_cell_length_b                   20.6335(9)
_cell_length_c                   8.1879(3)
_cell_angle_alpha                90
_cell_angle_beta                 93.8500(10)
_cell_angle_gamma                90
_cell_volume                     1994.95
loop_
_atom_site_label
_atom_site_type_symbol
_atom_site_fract_x
_atom_site_fract_y
_atom_site_fract_z
Cu1 Cu -0.11030(3) 0.044986(17) 0.58430(5)
S1 S -0.28678(6) 0.02341(3) 0.92785(9)
O1 O -0.35548(17) 0.15760(9) 0.8251(2)
N1 N -0.08386(19) 0.06025(11) 0.8300(3)
C1 C -0.3682(2) 0.14865(13) 0.9733(3)
S2 S -0.09042(6) 0.08264(4) 1.13611(9)
O2 O -0.39463(17) 0.19444(10) 1.0650(2)
N2 N 0.02313(19) 0.08462(12) 0.8798(3)
C2 C -0.3581(2) 0.08190(14) 1.0491(3)
H1 H -0.4335 0.0659 1.0662
H2 H -0.3173 0.0854 1.1554
S3 S 0.14981(6) 0.13047(4) 1.14218(8)
O3 O 0.39386(17) 0.19629(10) 0.8907(2)
N3 N -0.04145(19) -0.08821(11) 0.5031(3)
C3 C -0.1508(2) 0.05630(13) 0.9492(3)
S4 S 0.00458(7) -0.21881(4) 0.49876(13)
O4 O 0.36499(16) 0.19743(10) 1.1593(2)
N4 N -0.13059(18) -0.04449(11) 0.4922(3)
C4 C 0.0303(2) 0.09826(13) 1.0353(3)
S5 S -0.22125(6) -0.15585(3) 0.44629(8)
O5 O 0.22409(18) -0.10690(10) 0.5331(3)
C5 C 0.2269(2) 0.15055(15) 0.9677(3)
H3 H 0.2418 0.1111 0.9083
H4 H 0.1804 0.1784 0.8953
S6 S -0.35087(6) -0.02483(3) 0.44049(10)
O6 O 0.28231(17) -0.20436(11) 0.6153(3)
C6 C 0.3382(2) 0.18440(13) 1.0127(3)
O7 O -0.50408(18) -0.11872(10) 0.6317(2)
C7 C 0.2210(2) -0.16684(14) 0.5263(3)
O8 O -0.49517(16) -0.19189(9) 0.4391(2)
C8 C 0.1357(2) -0.19944(14) 0.4058(4)
H5 H 0.1684 -0.2390 0.3655
H6 H 0.1192 -0.1709 0.3130
C9 C -0.0763(2) -0.14778(13) 0.4823(3)
C10 C -0.2297(2) -0.07252(12) 0.4622(3)
C11 C -0.4555(2) -0.08262(13) 0.3648(3)
H7 H -0.5234 -0.0593 0.3265
H8 H -0.4272 -0.1048 0.2714
C12 C -0.4875(2) -0.13306(13) 0.4889(3)
Tb1 Tb -0.462066(10) 0.261769(6) 0.799839(14)
Cu1B Cu 0.11030(3) -0.044986(17) 0.41570(5)
O2C O -0.39463(17) 0.30556(10) 0.5650(2)
O3_2 O -0.60614(17) 0.19629(10) 0.8907(2)
N3B N 0.04145(19) 0.08821(11) 0.4969(3)
O4C O -0.63501(16) 0.30257(10) 0.6593(2)
O5B O -0.22409(18) 0.10690(10) 0.4669(3)
O6A O -0.28231(17) 0.29564(11) 0.8847(3)
O7A O -0.49592(18) 0.38128(10) 0.8683(2)
O8A O -0.50483(16) 0.30811(9) 1.0609(2)
O8B O -0.50483(16) 0.19189(9) 0.5609(2)
Tb1_2 Tb 0.537934(10) 0.261769(6) 0.799839(14)
Tb1A Tb -0.537934(10) -0.238231(6) 0.700161(14)
Tb1A_2 Tb 0.462066(10) -0.238231(6) 0.700161(14)
Tb1B Tb -0.537934(10) -0.261769(6) 0.200161(14)
Tb1C Tb -0.462066(10) 0.238231(6) 1.299839(14)
Tb1C_2 Tb 0.537934(10) 0.238231(6) 1.299839(14)
loop_
_geom_bond_atom_site_label_1
_geom_bond_atom_site_label_2
_geom_bond_site_symmetry_1
_geom_bond_site_symmetry_2
Cu1 N1 1_555 1_555
S1 C2 1_555 1_555
O1 C1 1_555 1_555
N1 N2 1_555 1_555
C1 O2 1_555 1_555
S2 C3 1_555 1_555
O2 Tb1 1_555 1_555
N2 C4 1_555 1_555
C2 C1 1_555 1_555
H1 C2 1_555 1_555
H2 C2 1_555 1_555
S3 C4 1_555 1_555
O3 C6 1_555 1_555
N3 N4 1_555 1_555
C3 S1 1_555 1_555
S4 C8 1_555 1_555
O4 C6 1_555 1_555
N4 Cu1 1_555 1_555
C4 S2 1_555 1_555
S5 C9 1_555 1_555
O5 C7 1_555 1_555
C5 S3 1_555 1_555
H3 C5 1_555 1_555
H4 C5 1_555 1_555
S6 C10 1_555 1_555
O6 C7 1_555 1_555
C6 C5 1_555 1_555
O7 C12 1_555 1_555
C7 C8 1_555 1_555
O8 C12 1_555 1_555
C8 H5 1_555 1_555
H6 C8 1_555 1_555
C9 N3 1_555 1_555
C10 N4 1_555 1_555
C11 S6 1_555 1_555
H7 C11 1_555 1_555
H8 C11 1_555 1_555
C12 C11 1_555 1_555
Tb1 O1 1_555 1_555
Cu1B N3 1_555 1_555
O2C Tb1 1_555 1_555
O3_2 Tb1 1_555 1_555
N3B Cu1 1_555 1_555
O4C Tb1 1_555 1_555
O5B Cu1 1_555 1_555
O6A Tb1 1_555 1_555
O7A Tb1 1_555 1_555
O8A Tb1 1_555 1_555
O8B Tb1 1_555 1_555
Tb1_2 O3 1_555 1_555
Tb1A O7 1_555 1_555
Tb1A_2 O6 1_555 1_555
Tb1B O8 1_555 1_555
Tb1C O2 1_555 1_555
Tb1C_2 O4 1_555 1_555
N1 C3 1_555 1_555
S4 C9 1_555 1_555
S5 C10 1_555 1_555
O5 Cu1B 1_555 1_555
O8 Tb1A 1_555 1_555
O8A Tb1C 1_555 1_555

#END
