
#######################################################################
#
#                 Cambridge Crystallographic Data Centre
#                                CCDC 
#
#######################################################################
#
# If this CIF has been generated from an entry in the Cambridge 
# Structural Database, then it will include bibliographic, chemical, 
# crystal, experimental, refinement or atomic coordinate data resulting 
# from the CCDC's data processing and validation procedures.
#
#######################################################################

data_KUXHAO
_symmetry_cell_setting           monoclinic
_symmetry_space_group_name_H-M   'P 21/c'
_symmetry_Int_Tables_number      14
_space_group_name_Hall           '-P 2ybc'
loop_
_symmetry_equiv_pos_site_id
_symmetry_equiv_pos_as_xyz
1 x,y,z
2 -x,1/2+y,1/2-z
3 -x,-y,-z
4 x,1/2-y,1/2+z
_cell_length_a                   11.8033(6)
_cell_length_b                   20.5813(9)
_cell_length_c                   8.1503(4)
_cell_angle_alpha                90
_cell_angle_beta                 93.9380(10)
_cell_angle_gamma                90
_cell_volume                     1975.26
loop_
_atom_site_label
_atom_site_type_symbol
_atom_site_fract_x
_atom_site_fract_y
_atom_site_fract_z
Er1 Er -0.037632(12) -0.261833(7) 0.197607(16)
S1 S -0.21298(7) -0.47578(4) -0.42709(11)
N1 N -0.4168(2) -0.43970(13) -0.3303(3)
O1 O -0.1415(2) -0.34070(11) -0.3289(3)
C1 C -0.1316(3) -0.35063(15) -0.4772(4)
Cu1 Cu -0.38945(4) -0.45493(2) -0.08322(5)
S2 S -0.40964(8) -0.41616(5) -0.63690(10)
O2 O -0.1056(2) -0.30545(11) -0.5719(3)
N2 N -0.5242(2) -0.41550(14) -0.3803(3)
C2 C -0.1416(3) -0.41810(16) -0.5514(4)
H1 H -0.0660 -0.4342 -0.5680
H2 H -0.1827 -0.4152 -0.6584
S3 S -0.65144(7) -0.36936(5) -0.64423(10)
O3 O -0.8959(2) -0.30289(11) -0.3923(3)
N3 N -0.5417(2) -0.41168(13) 0.0018(3)
C3 C -0.3492(3) -0.44293(15) -0.4500(4)
S4 S -0.49468(8) -0.28086(4) -0.00248(15)
N4 N -0.6311(2) -0.45523(13) -0.0086(3)
O4 O -0.86705(19) -0.30193(11) -0.6620(3)
C4 C -0.5304(3) -0.40129(16) -0.5363(4)
S5 S -0.72161(7) -0.34372(4) -0.05528(10)
O5 O -0.2745(2) -0.39234(12) 0.0313(3)
C5 C -0.7292(3) -0.34949(17) -0.4696(4)
H3 H -0.7449 -0.3892 -0.4111
H4 H -0.6823 -0.3221 -0.3958
S6 S -0.85185(7) -0.47481(4) -0.06002(11)
O6 O -0.2148(2) -0.29453(12) 0.1104(3)
C6 C -0.8404(3) -0.31478(15) -0.5146(4)
O7 O -0.9964(2) -0.30702(10) -0.0618(3)
C7 C -0.2775(3) -0.33251(17) 0.0234(4)
O8 O -1.0039(2) -0.38034(11) 0.1311(3)
C8 C -0.3636(3) -0.29995(17) -0.0973(4)
H5 H -0.3804 -0.3285 -0.1904
H6 H -0.3312 -0.2603 -0.1379
C9 C -0.5759(3) -0.35182(15) -0.0187(4)
C10 C -0.7299(3) -0.42743(15) -0.0396(4)
C11 C -0.9567(3) -0.41663(15) -0.1352(4)
H7 H -1.0251 -0.4399 -0.1729
H8 H -0.9287 -0.3947 -0.2297
C12 C -0.9878(3) -0.36600(15) -0.0125(4)
Er1_2 Er -1.037632(12) -0.261833(7) -0.802393(16)
Er1_3 Er -1.037632(12) -0.261833(7) 0.197607(16)
Er1_4 Er -0.037632(12) -0.261833(7) -0.802393(16)
Er1C Er -1.037632(12) -0.238167(7) -0.302393(16)
Er1C_2 Er -0.037632(12) -0.238167(7) -0.302393(16)
O1C O -0.1415(2) -0.15930(11) 0.1711(3)
Cu1B Cu -0.61055(4) -0.54507(2) 0.08322(5)
O2_2 O -0.1056(2) -0.30545(11) 0.4281(3)
O2C O -0.1056(2) -0.19455(11) -0.0719(3)
O3C O 0.1041(2) -0.19711(11) 0.1077(3)
N4B N -0.3689(2) -0.54477(13) 0.0086(3)
O4_2 O 0.13295(19) -0.30193(11) 0.3380(3)
O7_2 O 0.0036(2) -0.30702(10) -0.0618(3)
O7C O 0.0036(2) -0.19298(10) 0.4382(3)
O8_2 O -0.0039(2) -0.38034(11) 0.1311(3)
loop_
_geom_bond_atom_site_label_1
_geom_bond_atom_site_label_2
_geom_bond_site_symmetry_1
_geom_bond_site_symmetry_2
Er1 O6 1_555 1_555
S1 C2 1_555 1_555
N1 Cu1 1_555 1_555
O1 C1 1_555 1_555
C1 O2 1_555 1_555
Cu1 N3 1_555 1_555
S2 C3 1_555 1_555
O2 Er1_4 1_555 1_555
N2 N1 1_555 1_555
C2 C1 1_555 1_555
H1 C2 1_555 1_555
H2 C2 1_555 1_555
S3 C4 1_555 1_555
O3 C6 1_555 1_555
N3 N4 1_555 1_555
C3 S1 1_555 1_555
S4 C8 1_555 1_555
N4 C10 1_555 1_555
O4 C6 1_555 1_555
C4 S2 1_555 1_555
S5 C9 1_555 1_555
O5 Cu1 1_555 1_555
C5 S3 1_555 1_555
H3 C5 1_555 1_555
H4 C5 1_555 1_555
S6 C10 1_555 1_555
O6 C7 1_555 1_555
C6 C5 1_555 1_555
O7 C12 1_555 1_555
C7 O5 1_555 1_555
O8 C12 1_555 1_555
C8 C7 1_555 1_555
H5 C8 1_555 1_555
H6 C8 1_555 1_555
C9 N3 1_555 1_555
C10 S5 1_555 1_555
C11 S6 1_555 1_555
H7 C11 1_555 1_555
H8 C11 1_555 1_555
C12 C11 1_555 1_555
Er1_2 O4 1_555 1_555
Er1_3 O7 1_555 1_555
Er1C O3 1_555 1_555
Er1C_2 O1 1_555 1_555
O1C Er1 1_555 1_555
Cu1B N4 1_555 1_555
O2_2 Er1 1_555 1_555
O2C Er1 1_555 1_555
O3C Er1 1_555 1_555
N4B Cu1 1_555 1_555
O4_2 Er1 1_555 1_555
O7_2 Er1 1_555 1_555
O7C Er1 1_555 1_555
O8_2 Er1 1_555 1_555
N1 C3 1_555 1_555
O2 Er1C_2 1_555 1_555
N2 C4 1_555 1_555
S4 C9 1_555 1_555
O7 Er1C 1_555 1_555
O8 Er1_3 1_555 1_555
Er1C_2 O2C 1_555 1_555
Er1C_2 O7_2 1_555 1_555

#END
