
#######################################################################
#
#                 Cambridge Crystallographic Data Centre
#                                CCDC 
#
#######################################################################
#
# If this CIF has been generated from an entry in the Cambridge 
# Structural Database, then it will include bibliographic, chemical, 
# crystal, experimental, refinement or atomic coordinate data resulting 
# from the CCDC's data processing and validation procedures.
#
#######################################################################

data_KUXHUI
_symmetry_cell_setting           triclinic
_symmetry_space_group_name_H-M   'P -1'
_symmetry_Int_Tables_number      2
_space_group_name_Hall           '-P 1'
loop_
_symmetry_equiv_pos_site_id
_symmetry_equiv_pos_as_xyz
1 x,y,z
2 -x,-y,-z
_cell_length_a                   9.6293(5)
_cell_length_b                   13.4368(7)
_cell_length_c                   14.8721(7)
_cell_angle_alpha                65.8540(10)
_cell_angle_beta                 82.1680(10)
_cell_angle_gamma                80.1030(10)
_cell_volume                     1725.1
loop_
_atom_site_label
_atom_site_type_symbol
_atom_site_fract_x
_atom_site_fract_y
_atom_site_fract_z
Tb1 Tb 1.161852(17) -0.446964(14) 1.040171(12)
N1 N 1.0029(3) -0.1501(3) 0.5290(2)
O1 O 1.1284(3) -0.2964(2) 0.88160(19)
C1 C 1.0429(4) -0.3317(3) 0.8496(3)
S1 S 1.16727(11) -0.20342(9) 0.68082(7)
O2 O 1.2846(4) -0.3193(3) 1.0600(2)
H1 H 1.2694 -0.2863 1.0991
H2 H 1.3318 -0.2804 1.0087
Tb2 Tb 0.708959(16) -0.034501(13) 0.049304(11)
N2 N 1.0002(3) -0.0957(3) 0.4266(2)
O3 O 0.9750(3) -0.4101(2) 0.9075(2)
C2 C 1.0235(4) -0.2833(3) 0.7410(3)
H3 H 0.9335 -0.2369 0.7274
H4 H 1.0258 -0.3412 0.7175
S2 S 1.24569(10) -0.08404(9) 0.46603(7)
O4 O 1.3319(3) -0.5911(2) 1.11953(19)
H5 H 1.3290 -0.6351 1.1834
H6 H 1.4286 -0.5902 1.1078
S3 S 1.15287(10) 0.01707(8) 0.25826(6)
C3 C 1.1235(4) -0.1493(3) 0.5586(3)
O5 O 0.8964(3) 0.0407(2) 0.0670(2)
N3 N 0.4667(4) -0.3956(3) 0.5602(2)
O6 O 1.1262(3) -0.4789(2) 1.2126(2)
H7 H 1.1691 -0.5264 1.2618
H8 H 1.0702 -0.4347 1.2326
S4 S 0.31835(13) -0.52411(10) 0.72635(7)
O7 O 1.1122(3) 0.0856(2) 0.05496(18)
C4 C 1.1180(4) -0.0566(3) 0.3847(3)
N4 N 0.4598(4) -0.3391(3) 0.4582(2)
O8 O 0.9686(4) -0.3216(3) 1.0641(2)
H9 H 0.9495 -0.2585 1.0666
H10 H 0.8912 -0.3421 1.0613
O9 O 0.3920(3) -0.4270(2) 0.9256(2)
C5 C 1.0045(4) -0.0122(4) 0.2146(3)
H11 H 1.0089 -0.0911 0.2353
H12 H 0.9171 0.0135 0.2439
S5 S 0.22523(11) -0.41646(10) 0.52377(8)
N5 N 0.6769(3) -0.2793(3) 0.6817(2)
O10 O 0.6479(3) -0.1953(2) 0.0297(2)
H13 H 0.6808 -0.2394 0.0217
H14 H 0.5814 -0.1735 -0.0088
S6 S 0.28499(12) -0.28609(10) 0.31048(8)
O11 O 0.2483(3) -0.5333(3) 0.9203(2)
C6 C 1.0047(4) 0.0426(3) 0.1036(3)
N6 N 0.7632(3) -0.3365(2) 0.6313(2)
O12 O 0.2683(3) -0.1334(2) 0.11485(18)
C7 C 0.3520(4) -0.4818(3) 0.8850(3)
S7 S 0.49779(11) -0.09162(8) 0.65688(7)
O13 O 0.4540(3) -0.0494(2) 0.09254(18)
C8 C 0.4286(4) -0.4789(4) 0.7870(3)
H15 H 0.5178 -0.5267 0.7990
H16 H 0.4481 -0.4047 0.7452
S8 S 0.65160(10) -0.16041(8) 0.49982(6)
C9 C 0.3550(4) -0.4414(3) 0.6021(3)
O14 O 0.4052(3) -0.1354(2) 0.93303(18)
S9 S 0.86466(10) -0.33035(8) 0.45262(7)
C10 C 0.3405(4) -0.3437(3) 0.4298(3)
O15 O 0.3612(3) 0.0033(2) 0.79121(19)
C11 C 0.4228(4) -0.2009(3) 0.2465(3)
H17 H 0.4384 -0.1590 0.2831
H18 H 0.5103 -0.2466 0.2406
O16 O 0.8056(3) -0.1921(2) 0.17087(19)
C12 C 0.3775(4) -0.1244(3) 0.1455(3)
O17 O 0.9495(3) -0.3322(3) 0.2645(2)
C13 C 0.4110(4) -0.0925(3) 0.8384(3)
C14 C 0.4854(4) -0.1665(3) 0.7878(3)
H19 H 0.4334 -0.2282 0.8045
H20 H 0.5794 -0.1951 0.8107
C15 C 0.6129(4) -0.1874(3) 0.6232(3)
C16 C 0.7614(4) -0.2843(3) 0.5358(3)
C17 C 0.7806(4) -0.2370(3) 0.3425(3)
H21 H 0.6819 -0.2474 0.3496
H22 H 0.7850 -0.1618 0.3334
C18 C 0.8520(4) -0.2559(3) 0.2530(3)
Tb1_2 Tb 0.161852(17) -0.446964(14) 1.040171(12)
Tb1A Tb 0.838148(17) -0.553036(14) 0.959829(12)
Tb2A Tb 0.291041(16) 0.034501(13) -0.049304(11)
Tb2A_2 Tb 0.291041(16) 0.034501(13) 0.950696(11)
Tb2A_3 Tb 1.291041(16) 0.034501(13) -0.049304(11)
O3A O 1.0250(3) -0.5899(2) 1.0925(2)
O7A O 0.8878(3) -0.0856(2) -0.05496(18)
O9_2 O 1.3920(3) -0.4270(2) 0.9256(2)
O11_2 O 1.2483(3) -0.5333(3) 0.9203(2)
O12A O 0.7317(3) 0.1334(2) -0.11485(18)
O13A O 0.5460(3) 0.0494(2) -0.09254(18)
O14A O 0.5948(3) 0.1354(2) 0.06697(18)
O15A O 0.6388(3) -0.0033(2) 0.20879(19)
loop_
_geom_bond_atom_site_label_1
_geom_bond_atom_site_label_2
_geom_bond_site_symmetry_1
_geom_bond_site_symmetry_2
Tb1 O1 1_555 1_555
N1 N2 1_555 1_555
O1 C1 1_555 1_555
C1 O3 1_555 1_555
S1 C2 1_555 1_555
O2 Tb1 1_555 1_555
H1 O2 1_555 1_555
H2 O2 1_555 1_555
Tb2 O5 1_555 1_555
N2 C4 1_555 1_555
O3 Tb1 1_555 1_555
C2 C1 1_555 1_555
H3 C2 1_555 1_555
H4 C2 1_555 1_555
S2 C3 1_555 1_555
O4 Tb1 1_555 1_555
H5 O4 1_555 1_555
H6 O4 1_555 1_555
S3 C4 1_555 1_555
C3 N1 1_555 1_555
O5 C6 1_555 1_555
N3 N4 1_555 1_555
O6 Tb1 1_555 1_555
H7 O6 1_555 1_555
H8 O6 1_555 1_555
S4 C8 1_555 1_555
O7 C6 1_555 1_555
C4 S2 1_555 1_555
N4 C10 1_555 1_555
O8 Tb1 1_555 1_555
H9 O8 1_555 1_555
H10 O8 1_555 1_555
O9 C7 1_555 1_555
C5 S3 1_555 1_555
H11 C5 1_555 1_555
H12 C5 1_555 1_555
S5 C9 1_555 1_555
N5 N6 1_555 1_555
O10 Tb2 1_555 1_555
H13 O10 1_555 1_555
H14 O10 1_555 1_555
S6 C10 1_555 1_555
O11 C7 1_555 1_555
C6 C5 1_555 1_555
N6 C16 1_555 1_555
O12 C12 1_555 1_555
C7 C8 1_555 1_555
S7 C14 1_555 1_555
O13 Tb2 1_555 1_555
C8 H15 1_555 1_555
H16 C8 1_555 1_555
S8 C15 1_555 1_555
C9 N3 1_555 1_555
O14 C13 1_555 1_555
S9 C16 1_555 1_555
C10 S5 1_555 1_555
O15 C13 1_555 1_555
C11 S6 1_555 1_555
H17 C11 1_555 1_555
H18 C11 1_555 1_555
O16 Tb2 1_555 1_555
C12 O13 1_555 1_555
O17 C18 1_555 1_555
C13 C14 1_555 1_555
C14 H19 1_555 1_555
H20 C14 1_555 1_555
C15 N5 1_555 1_555
C16 S8 1_555 1_555
C17 S9 1_555 1_555
H21 C17 1_555 1_555
H22 C17 1_555 1_555
C18 O16 1_555 1_555
Tb1_2 O9 1_555 1_555
Tb1A O3 1_555 1_555
Tb2A O12 1_555 1_555
Tb2A_2 O14 1_555 1_555
Tb2A_3 O7 1_555 1_555
O3A Tb1 1_555 1_555
O7A Tb2 1_555 1_555
O9_2 Tb1 1_555 1_555
O11_2 Tb1 1_555 1_555
O12A Tb2 1_555 1_555
O13A Tb2 1_555 1_555
O14A Tb2 1_555 1_555
O15A Tb2 1_555 1_555
S1 C3 1_555 1_555
S4 C9 1_555 1_555
O11 Tb1_2 1_555 1_555
S7 C15 1_555 1_555
O13 Tb2A 1_555 1_555
O15 Tb2A_2 1_555 1_555
C11 C12 1_555 1_555
C17 C18 1_555 1_555
Tb1A O3A 1_555 1_555
Tb2A O13A 1_555 1_555

#END
