
#######################################################################
#
#                 Cambridge Crystallographic Data Centre
#                                CCDC 
#
#######################################################################
#
# If this CIF has been generated from an entry in the Cambridge 
# Structural Database, then it will include bibliographic, chemical, 
# crystal, experimental, refinement or atomic coordinate data resulting 
# from the CCDC's data processing and validation procedures.
#
#######################################################################

data_KUXHES
_symmetry_cell_setting           monoclinic
_symmetry_space_group_name_H-M   'P 21/c'
_symmetry_Int_Tables_number      14
_space_group_name_Hall           '-P 2ybc'
loop_
_symmetry_equiv_pos_site_id
_symmetry_equiv_pos_as_xyz
1 x,y,z
2 -x,1/2+y,1/2-z
3 -x,-y,-z
4 x,1/2-y,1/2+z
_cell_length_a                   11.7655(8)
_cell_length_b                   20.5495(15)
_cell_length_c                   8.1416(6)
_cell_angle_alpha                90
_cell_angle_beta                 93.885(2)
_cell_angle_gamma                90
_cell_volume                     1963.91
loop_
_atom_site_label
_atom_site_type_symbol
_atom_site_fract_x
_atom_site_fract_y
_atom_site_fract_z
Yb1 Yb 0.037863(17) 0.237890(10) 0.30259(2)
Cu1 Cu -0.61078(5) 0.04528(3) 0.58217(7)
S1 S -0.50517(11) 0.21935(6) 0.50102(19)
N1 N -0.4583(3) 0.08878(18) 0.4975(4)
C1 C -0.7228(4) 0.1680(2) 0.4778(6)
O1 O -0.7267(3) 0.10818(16) 0.4690(4)
N2 N -0.3684(3) 0.04441(18) 0.5081(4)
C2 C -0.6353(4) 0.2008(2) 0.5972(6)
H1 H -0.6182 0.1724 0.6907
H2 H -0.6674 0.2407 0.6377
S2 S -0.27785(10) 0.15638(6) 0.55539(14)
O2 O -0.7866(3) 0.20644(16) 0.3902(4)
S3 S -0.14712(10) 0.02537(6) 0.56104(16)
O3 O -0.0025(3) 0.19366(15) 0.5623(4)
C3 C -0.4239(4) 0.1484(2) 0.5181(5)
N3 N -0.5826(3) 0.06047(18) 0.8292(4)
C4 C -0.2694(4) 0.0734(2) 0.5393(5)
N4 N -0.4753(3) 0.0846(2) 0.8795(4)
S4 S -0.78725(10) 0.02453(6) 0.92590(15)
O4 O 0.0037(3) 0.12013(16) 0.3693(4)
S5 S -0.59037(11) 0.08432(7) 1.13646(15)
C5 C -0.0429(4) 0.0837(2) 0.6370(5)
H3 H -0.0716 0.1057 0.7311
H4 H 0.0257 0.0605 0.6753
O5 O -0.8601(3) 0.16013(15) 0.8311(4)
S6 S -0.34794(10) 0.13103(6) 1.14446(14)
C6 C -0.0115(4) 0.1345(2) 0.5131(5)
O6 O -0.8940(3) 0.19467(16) 1.0776(4)
O7 O -0.1024(3) 0.19820(16) 0.8921(4)
C7 C -0.8692(4) 0.1497(2) 0.9802(6)
O8 O -0.1316(3) 0.19874(15) 1.1622(4)
C8 C -0.8596(4) 0.0815(2) 1.0519(6)
H5 H -0.8190 0.0837 1.1595
H6 H -0.9355 0.0652 1.0670
C9 C -0.6510(4) 0.0574(2) 0.9484(5)
C10 C -0.4690(4) 0.0990(2) 1.0364(6)
C11 C -0.2693(4) 0.1512(2) 0.9691(5)
H7 H -0.2536 0.1116 0.9100
H8 H -0.3161 0.1789 0.8954
C12 C -0.1574(4) 0.1858(2) 1.0157(5)
Yb1_2 Yb -0.962137(17) 0.237890(10) 0.30259(2)
Yb1_3 Yb -0.962137(17) 0.237890(10) 1.30259(2)
Yb1_4 Yb 0.037863(17) 0.237890(10) 1.30259(2)
Yb1C Yb -0.962137(17) 0.262110(10) 0.80259(2)
Yb1C_2 Yb 0.037863(17) 0.262110(10) 0.80259(2)
Cu1B Cu -0.38922(5) -0.04528(3) 0.41783(7)
N2B N -0.6316(3) -0.04441(18) 0.4919(4)
O2_2 O 0.2134(3) 0.20644(16) 0.3902(4)
O3C O -0.0025(3) 0.30634(15) 0.0623(4)
O5C O 0.1399(3) 0.33987(15) 0.3311(4)
O6_2 O 0.1060(3) 0.19467(16) 0.0776(4)
O6C O 0.1060(3) 0.30533(16) 0.5776(4)
O7C O -0.1024(3) 0.30180(16) 0.3921(4)
O8_2 O -0.1316(3) 0.19874(15) 0.1622(4)
loop_
_geom_bond_atom_site_label_1
_geom_bond_atom_site_label_2
_geom_bond_site_symmetry_1
_geom_bond_site_symmetry_2
Yb1 O3 1_555 1_555
Cu1 N1 1_555 1_555
S1 C2 1_555 1_555
N1 N2 1_555 1_555
C1 O1 1_555 1_555
O1 Cu1 1_555 1_555
N2 C4 1_555 1_555
C2 C1 1_555 1_555
H1 C2 1_555 1_555
H2 C2 1_555 1_555
S2 C3 1_555 1_555
O2 C1 1_555 1_555
S3 C4 1_555 1_555
O3 C6 1_555 1_555
C3 S1 1_555 1_555
N3 Cu1 1_555 1_555
C4 S2 1_555 1_555
N4 N3 1_555 1_555
S4 C8 1_555 1_555
O4 Yb1 1_555 1_555
S5 C9 1_555 1_555
C5 S3 1_555 1_555
H3 C5 1_555 1_555
H4 C5 1_555 1_555
O5 C7 1_555 1_555
S6 C10 1_555 1_555
C6 O4 1_555 1_555
O6 C7 1_555 1_555
O7 C12 1_555 1_555
C7 C8 1_555 1_555
O8 C12 1_555 1_555
C8 H5 1_555 1_555
H6 C8 1_555 1_555
C9 N3 1_555 1_555
C10 N4 1_555 1_555
C11 S6 1_555 1_555
H7 C11 1_555 1_555
H8 C11 1_555 1_555
C12 C11 1_555 1_555
Yb1_2 O2 1_555 1_555
Yb1_3 O6 1_555 1_555
Yb1_4 O8 1_555 1_555
Yb1C O5 1_555 1_555
Yb1C_2 O3 1_555 1_555
Cu1B N2 1_555 1_555
N2B Cu1 1_555 1_555
O2_2 Yb1 1_555 1_555
O3C Yb1 1_555 1_555
O5C Yb1 1_555 1_555
O6_2 Yb1 1_555 1_555
O6C Yb1 1_555 1_555
O7C Yb1 1_555 1_555
O8_2 Yb1 1_555 1_555
N1 C3 1_555 1_555
S4 C9 1_555 1_555
S5 C10 1_555 1_555
C5 C6 1_555 1_555
O6 Yb1C 1_555 1_555
O7 Yb1C_2 1_555 1_555
Yb1C_2 O6C 1_555 1_555

#END
