
#######################################################################
#
#                 Cambridge Crystallographic Data Centre
#                                CCDC 
#
#######################################################################
#
# If this CIF has been generated from an entry in the Cambridge 
# Structural Database, then it will include bibliographic, chemical, 
# crystal, experimental, refinement or atomic coordinate data resulting 
# from the CCDC's data processing and validation procedures.
#
#######################################################################

data_KUXJUJ
_symmetry_cell_setting           triclinic
_symmetry_space_group_name_H-M   'P -1'
_symmetry_Int_Tables_number      2
_space_group_name_Hall           '-P 1'
loop_
_symmetry_equiv_pos_site_id
_symmetry_equiv_pos_as_xyz
1 x,y,z
2 -x,-y,-z
_cell_length_a                   13.384(3)
_cell_length_b                   15.191(3)
_cell_length_c                   25.220(5)
_cell_angle_alpha                104.16(3)
_cell_angle_beta                 90.08(3)
_cell_angle_gamma                109.80(3)
_cell_volume                     4657.91
loop_
_atom_site_label
_atom_site_type_symbol
_atom_site_fract_x
_atom_site_fract_y
_atom_site_fract_z
W1 W 0.48211(7) 0.98388(8) 0.22899(3)
W2 W 0.54169(7) 0.76000(8) 0.17902(3)
W3 W 0.52349(7) 0.72390(8) 0.32118(3)
W4 W 0.34286(7) 0.54673(8) 0.13214(3)
W5 W 0.46540(7) 0.94891(8) 0.37187(3)
W6 W 0.44540(7) 0.86457(8) 0.07949(3)
W7 W 0.04799(7) 0.50318(8) 0.27020(3)
W8 W 0.14156(7) 0.75556(8) 0.44853(3)
W9 W 0.06411(7) 0.53738(8) 0.12700(3)
W10 W 0.22765(7) 0.97481(8) 0.22564(4)
W11 W 0.00942(7) 0.74091(8) 0.17111(3)
W12 W 0.24548(7) 0.64850(8) 0.03149(3)
W13 W 0.39928(7) 0.76614(8) 0.45193(3)
W14 W 0.21133(7) 0.93939(8) 0.36863(3)
W15 W 0.32599(7) 0.50992(8) 0.27431(4)
W16 W 0.19009(7) 0.85523(8) 0.07609(3)
W17 W -0.00714(7) 0.70667(8) 0.31376(3)
W18 W 0.19876(7) 0.55085(8) 0.40412(3)
P1 P 0.2805(4) 0.7583(5) 0.17301(19)
P2 P 0.2619(4) 0.7221(5) 0.32391(19)
Cu1 Cu 0.7439(3) 1.2550(3) 0.25030(12)
Cu2 Cu 0.0249(4) 0.9146(4) 0.58905(18)
Cu3 Cu 0.4304(3) 1.2406(4) 0.23936(14)
Cu4 Cu -0.0030(4) 1.0841(4) 0.21451(18)
Cu5 Cu -0.2994(3) 0.5816(4) 0.32532(14)
O1 O 0.3406(10) 0.6762(11) 0.2966(5)
O2 O 0.3605(11) 1.0043(12) 0.3931(5)
O3 O -0.1253(13) 0.7239(17) 0.3295(7)
O4 O -0.0353(13) 0.3859(15) 0.2583(7)
O5 O 0.3299(14) 0.3949(15) 0.2607(6)
O6 O 0.3539(10) 0.7042(12) 0.1784(5)
O7 O -0.0502(12) 0.5718(14) 0.2974(6)
O8 O 0.1940(11) 0.5163(14) 0.1382(6)
O9 O 0.3766(11) 0.7459(14) 0.0247(6)
O10 O 0.3808(12) 1.0463(13) 0.2303(6)
O11 O 0.0918(12) 0.5145(14) 0.3454(6)
O12 O 0.3262(11) 0.6340(12) 0.4519(6)
O13 O 0.5792(12) 1.0441(13) 0.4049(6)
O14 O 0.4334(12) 0.8826(14) 0.4276(6)
O15 O 0.6547(12) 0.7458(14) 0.3395(6)
O16 O 0.3503(12) 0.4429(14) 0.0963(6)
O17 O 0.6720(11) 0.7841(14) 0.1746(7)
O18 O 0.1244(10) 0.6269(13) 0.4494(6)
O19 O 0.4701(11) 0.5833(13) 0.3019(6)
O20 O 0.2865(10) 0.7746(12) 0.1135(5)
O21 O -0.0159(12) 0.4267(13) 0.0893(6)
O22 O 0.0866(11) 0.8360(13) 0.3291(6)
O23 O 0.5983(11) 1.0831(13) 0.2390(6)
O24 O 0.2857(12) 0.5241(14) 0.3484(7)
O25 O 0.2811(12) 0.7963(14) 0.4880(6)
O26 O 0.0403(12) 0.7091(14) 0.3885(6)
O27 O 0.1796(10) 0.4874(12) 0.2532(5)
O28 O 0.5447(11) 0.9237(14) 0.0459(5)
O29 O 0.3359(12) 0.9065(15) 0.0583(6)
O30 O 0.1800(11) 1.0706(13) 0.2326(6)
O31 O 0.1603(13) 0.4490(15) 0.4289(6)
O32 O -0.0286(12) 0.6075(15) 0.1306(6)
O33 O 0.2257(12) 0.9424(13) 0.1464(6)
O34 O 0.5347(10) 0.8808(11) 0.2183(5)
O35 O 0.1766(11) 0.7358(13) 0.0206(5)
O36 O 0.5195(12) 0.8515(13) 0.3389(6)
O37 O 0.1497(11) 0.6710(13) 0.2930(5)
O38 O 0.4695(11) 0.7266(12) 0.3930(5)
O39 O 0.1255(12) 0.5870(14) 0.0656(6)
O40 O 0.3581(11) 0.5329(12) 0.2044(6)
O41 O 0.3130(10) 0.8606(12) 0.2144(5)
O42 O 0.1914(11) 0.8735(12) 0.4253(5)
O43 O 0.4629(12) 0.9522(15) 0.1499(6)
O44 O 0.5082(10) 0.7951(13) 0.1147(6)
O45 O 0.3189(11) 0.5941(12) 0.0700(6)
O46 O 0.5325(11) 0.7253(13) 0.2457(6)
O47 O 0.2360(10) 0.9709(11) 0.2996(5)
O48 O 0.0722(11) 0.7801(13) 0.1078(5)
O49 O 0.4642(11) 0.9822(13) 0.3023(6)
O50 O -0.0110(11) 0.7067(13) 0.2389(6)
O51 O 0.0379(11) 0.5188(11) 0.1975(5)
O52 O 0.4890(12) 0.6297(13) 0.1390(5)
O53 O 0.1291(12) 0.9049(14) 0.0408(6)
O54 O -0.1074(12) 0.7611(14) 0.1622(6)
O55 O 0.2233(14) 0.5723(16) -0.0340(6)
O56 O 0.1589(13) 1.0262(14) 0.3989(6)
O57 O 0.2996(11) 0.8300(13) 0.3305(6)
O58 O 0.4917(13) 0.8055(14) 0.5075(6)
O59 O 0.2539(12) 0.7102(14) 0.3846(6)
O60 O 0.0727(12) 0.7858(14) 0.5030(6)
O61 O 0.1003(11) 0.8642(13) 0.2140(5)
O62 O 0.1614(11) 0.6973(12) 0.1761(5)
C1 C -0.303(4) 0.600(5) 0.2153(19)
H1 H -0.3079 0.6611 0.2284
C2 C -0.217(3) 0.606(3) 0.4358(15)
H2 H -0.1489 0.6128 0.4246
C3 C -0.291(3) 0.574(3) 0.1682(14)
H3 H -0.2769 0.6089 0.1420
C4 C 0.170(3) 1.145(4) 0.5261(14)
H4 H 0.1635 1.1898 0.5081
C5 C -0.009(4) 0.753(5) 0.647(2)
H5 H 0.0510 0.7369 0.6368
C6 C 0.215(3) 1.021(3) 0.5482(13)
H6 H 0.2480 0.9767 0.5499
C7 C 0.805(3) 1.289(3) 0.1451(14)
H7 H 0.8607 1.3454 0.1624
C8 C 0.512(3) 1.358(4) 0.3478(17)
H8 H 0.5456 1.4139 0.3368
C9 C 0.412(2) 1.137(3) 0.1231(11)
H9 H 0.4069 1.0788 0.1303
C10 C 0.679(2) 1.160(3) 0.1322(11)
H10 H 0.6246 1.1059 0.1365
C11 C 0.089(3) 1.093(4) 0.5518(15)
H11 H 0.0271 1.1054 0.5617
C12 C 0.819(2) 1.358(3) 0.3630(11)
H12 H 0.8590 1.4170 0.3564
C13 C 0.4688(17) 1.2393(19) 0.3965(9)
H13 H 0.4695 1.2073 0.4235
C14 C -0.193(2) 1.010(3) 0.2688(11)
H14 H -0.2257 1.0503 0.2602
C15 C 0.7394(17) 1.2494(19) 0.4075(8)
H15 H 0.7102 1.2179 0.4342
C16 C 0.7847(17) 1.258(2) 0.0934(8)
H16 H 0.8188 1.2872 0.0668
C17 C 0.431(2) 1.203(3) 0.3456(10)
H17 H 0.3936 1.1374 0.3306
C18 C -0.157(4) 0.740(5) 0.680(2)
H18 H -0.2142 0.7164 0.6996
C19 C -0.149(4) 0.800(5) 0.6432(19)
H19 H -0.2008 0.8228 0.6336
C20 C -0.085(3) 0.945(3) 0.2771(13)
H20 H -0.0232 0.9305 0.2765
C21 C 0.713(2) 1.217(3) 0.3546(11)
H21 H 0.6671 1.1547 0.3380
C22 C -0.164(2) 0.903(2) 0.3031(10)
H22 H -0.1696 0.8544 0.3204
C23 C 0.411(3) 1.155(3) 0.0714(14)
H23 H 0.4034 1.1126 0.0370
C24 C 0.435(3) 1.295(4) 0.1405(16)
H24 H 0.4500 1.3597 0.1598
C25 C -0.364(3) 0.610(3) 0.4385(14)
H25 H -0.4264 0.6199 0.4301
C26 C -0.334(3) 0.606(4) 0.4872(17)
H26 H -0.3733 0.6036 0.5175
C27 C -0.302(4) 0.465(6) 0.218(2)
H27 H -0.2980 0.4129 0.2300
N1 N 0.265(2) 1.124(3) 0.5298(11)
N2 N -0.290(2) 0.599(2) 0.4012(10)
N3 N 0.7552(18) 1.281(2) 0.3276(9)
N4 N -0.232(3) 0.604(3) 0.4840(13)
N5 N -0.067(3) 0.727(3) 0.6785(14)
N6 N 0.813(2) 1.332(3) 0.4157(11)
N7 N -0.052(2) 0.817(3) 0.6253(12)
N8 N 0.118(2) 1.019(3) 0.5597(12)
N9 N 0.451(2) 1.266(3) 0.3176(11)
N10 N 0.707(3) 1.179(3) 0.0863(13)
N11 N -0.0945(17) 1.0019(19) 0.2541(8)
N12 N 0.7400(16) 1.2311(18) 0.1717(7)
N13 N -0.3091(17) 0.546(2) 0.2492(9)
N14 N 0.4229(19) 1.226(2) 0.1629(9)
N15 N -0.229(2) 0.943(3) 0.2994(11)
N16 N 0.424(2) 1.263(3) 0.0861(11)
N17 N 0.509(3) 1.341(3) 0.4008(13)
N18 N -0.302(3) 0.474(4) 0.1616(17)
C28 C 0.170(6) 1.183(7) 0.149(2)
H28 H 0.2187 1.1517 0.1514
N19 N 0.061(2) 1.164(2) 0.1677(10)
C29 C 0.034(9) 1.234(9) 0.152(3)
H29 H -0.0322 1.2390 0.1590
C30 C 0.098(15) 1.295(16) 0.127(5)
H30 H 0.0920 1.3445 0.1135
N20 N 0.178(7) 1.257(8) 0.128(3)
W1_2 W -0.51789(7) 0.98388(8) 0.22899(3)
W2_2 W -0.45831(7) 0.76000(8) 0.17902(3)
W3_2 W -0.47651(7) 0.72390(8) 0.32118(3)
W4_2 W -0.65714(7) 0.54673(8) 0.13214(3)
W5_2 W -0.53460(7) 0.94891(8) 0.37187(3)
W6_2 W -0.55460(7) 0.86457(8) 0.07949(3)
W7_2 W -0.95201(7) 0.50318(8) 0.27020(3)
W8_2 W -0.85844(7) 0.75556(8) 0.44853(3)
W9_2 W -0.93589(7) 0.53738(8) 0.12700(3)
W10_2 W -0.77235(7) 0.97481(8) 0.22564(4)
W11_2 W -0.99058(7) 0.74091(8) 0.17111(3)
W12_2 W -0.75452(7) 0.64850(8) 0.03149(3)
W13_2 W -0.60072(7) 0.76614(8) 0.45193(3)
W14_2 W -0.78867(7) 0.93939(8) 0.36863(3)
W15_2 W -0.67401(7) 0.50992(8) 0.27431(4)
W16_2 W -0.80991(7) 0.85523(8) 0.07609(3)
W17_2 W -1.00714(7) 0.70667(8) 0.31376(3)
W18_2 W -0.80124(7) 0.55085(8) 0.40412(3)
P1_2 P -0.7195(4) 0.7583(5) 0.17301(19)
P2_2 P -0.7381(4) 0.7221(5) 0.32391(19)
Cu1_2 Cu -0.2561(3) 1.2550(3) 0.25030(12)
Cu2_2 Cu -0.9751(4) 0.9146(4) 0.58905(18)
Cu3_2 Cu -0.5696(3) 1.2406(4) 0.23936(14)
Cu4_2 Cu -1.0030(4) 1.0841(4) 0.21451(18)
Cu5_2 Cu 0.7006(3) 0.5816(4) 0.32532(14)
Cu5_3 Cu -1.2994(3) 0.5816(4) 0.32532(14)
O1_2 O -0.6594(10) 0.6762(11) 0.2966(5)
O2_2 O -0.6395(11) 1.0043(12) 0.3931(5)
O3_2 O -1.1253(13) 0.7239(17) 0.3295(7)
O3_3 O 0.8747(13) 0.7239(17) 0.3295(7)
O4_2 O -1.0353(13) 0.3859(15) 0.2583(7)
O5_2 O -0.6701(14) 0.3949(15) 0.2607(6)
O6_2 O -0.6461(10) 0.7042(12) 0.1784(5)
O7_2 O -1.0502(12) 0.5718(14) 0.2974(6)
O8_2 O -0.8060(11) 0.5163(14) 0.1382(6)
O9_2 O -0.6234(11) 0.7459(14) 0.0247(6)
O10_2 O -0.6192(12) 1.0463(13) 0.2303(6)
O11_2 O -0.9082(12) 0.5145(14) 0.3454(6)
O12_2 O -0.6738(11) 0.6340(12) 0.4519(6)
O13_2 O -0.4208(12) 1.0441(13) 0.4049(6)
O14_2 O -0.5666(12) 0.8826(14) 0.4276(6)
O15_2 O -0.3453(12) 0.7458(14) 0.3395(6)
O16_2 O -0.6497(12) 0.4429(14) 0.0963(6)
O17_2 O -0.3280(11) 0.7841(14) 0.1746(7)
O18_2 O -0.8756(10) 0.6269(13) 0.4494(6)
O19_2 O -0.5299(11) 0.5833(13) 0.3019(6)
O20_2 O -0.7135(10) 0.7746(12) 0.1135(5)
O21_2 O -1.0159(12) 0.4267(13) 0.0893(6)
O22_2 O -0.9134(11) 0.8360(13) 0.3291(6)
O23_2 O -0.4017(11) 1.0831(13) 0.2390(6)
O24_2 O -0.7143(12) 0.5241(14) 0.3484(7)
O25_2 O -0.7189(12) 0.7963(14) 0.4880(6)
O26_2 O -0.9597(12) 0.7091(14) 0.3885(6)
O27_2 O -0.8204(10) 0.4874(12) 0.2532(5)
O28_2 O -0.4553(11) 0.9237(14) 0.0459(5)
O29_2 O -0.6641(12) 0.9065(15) 0.0583(6)
O30_2 O -0.8200(11) 1.0706(13) 0.2326(6)
O31_2 O -0.8397(13) 0.4490(15) 0.4289(6)
O32_2 O -1.0286(12) 0.6075(15) 0.1306(6)
O33_2 O -0.7743(12) 0.9424(13) 0.1464(6)
O34_2 O -0.4653(10) 0.8808(11) 0.2183(5)
O35_2 O -0.8234(11) 0.7358(13) 0.0206(5)
O36_2 O -0.4805(12) 0.8515(13) 0.3389(6)
O37_2 O -0.8503(11) 0.6710(13) 0.2930(5)
O38_2 O -0.5305(11) 0.7266(12) 0.3930(5)
O39_2 O -0.8745(12) 0.5870(14) 0.0656(6)
O40_2 O -0.6419(11) 0.5329(12) 0.2044(6)
O41_2 O -0.6870(10) 0.8606(12) 0.2144(5)
O42_2 O -0.8086(11) 0.8735(12) 0.4253(5)
O43_2 O -0.5371(12) 0.9522(15) 0.1499(6)
O44_2 O -0.4918(10) 0.7951(13) 0.1147(6)
O45_2 O -0.6811(11) 0.5941(12) 0.0700(6)
O46_2 O -0.4675(11) 0.7253(13) 0.2457(6)
O47_2 O -0.7640(10) 0.9709(11) 0.2996(5)
O48_2 O -0.9278(11) 0.7801(13) 0.1078(5)
O49_2 O -0.5358(11) 0.9822(13) 0.3023(6)
O50_2 O -1.0110(11) 0.7067(13) 0.2389(6)
O51_2 O -0.9621(11) 0.5188(11) 0.1975(5)
O52_2 O -0.5110(12) 0.6297(13) 0.1390(5)
O53_2 O -0.8709(12) 0.9049(14) 0.0408(6)
O54_2 O -1.1074(12) 0.7611(14) 0.1622(6)
O55_2 O -0.7767(14) 0.5723(16) -0.0340(6)
O56_2 O -0.8411(13) 1.0262(14) 0.3989(6)
O57_2 O -0.7004(11) 0.8300(13) 0.3305(6)
O58_2 O -0.5083(13) 0.8055(14) 0.5075(6)
O59_2 O -0.7461(12) 0.7102(14) 0.3846(6)
O60_2 O -0.9273(12) 0.7858(14) 0.5030(6)
O61_2 O -0.8997(11) 0.8642(13) 0.2140(5)
O62_2 O -0.8386(11) 0.6973(12) 0.1761(5)
C1_2 C 0.697(4) 0.600(5) 0.2153(19)
H1_2 H 0.6921 0.6611 0.2284
C2_2 C 0.783(3) 0.606(3) 0.4358(15)
H2_2 H 0.8511 0.6128 0.4246
C3_2 C 0.709(3) 0.574(3) 0.1682(14)
H3_2 H 0.7231 0.6089 0.1420
C4_2 C -0.830(3) 1.145(4) 0.5261(14)
H4_2 H -0.8365 1.1898 0.5081
C5_2 C -1.009(4) 0.753(5) 0.647(2)
H5_2 H -0.9490 0.7369 0.6368
C6_2 C -0.785(3) 1.021(3) 0.5482(13)
H6_2 H -0.7520 0.9767 0.5499
C7_2 C -0.195(3) 1.289(3) 0.1451(14)
H7_2 H -0.1393 1.3454 0.1624
C8_2 C -0.488(3) 1.358(4) 0.3478(17)
H8_2 H -0.4544 1.4139 0.3368
C9_2 C -0.588(2) 1.137(3) 0.1231(11)
H9_2 H -0.5931 1.0788 0.1303
C10_2 C -0.321(2) 1.160(3) 0.1322(11)
H10_2 H -0.3754 1.1059 0.1365
C11_2 C -0.911(3) 1.093(4) 0.5518(15)
H11_2 H -0.9729 1.1054 0.5617
C12_2 C -0.181(2) 1.358(3) 0.3630(11)
H12_2 H -0.1410 1.4170 0.3564
C13_2 C -0.5312(17) 1.2393(19) 0.3965(9)
H13_2 H -0.5305 1.2073 0.4235
C14_2 C -1.193(2) 1.010(3) 0.2688(11)
H14_2 H -1.2257 1.0503 0.2602
C15_2 C -0.2606(17) 1.2494(19) 0.4075(8)
H15_2 H -0.2898 1.2179 0.4342
C16_2 C -0.2153(17) 1.258(2) 0.0934(8)
H16_2 H -0.1812 1.2872 0.0668
C17_2 C -0.569(2) 1.203(3) 0.3456(10)
H17_2 H -0.6064 1.1374 0.3306
C18_2 C -1.157(4) 0.740(5) 0.680(2)
H18_2 H -1.2142 0.7164 0.6996
C19_2 C -1.149(4) 0.800(5) 0.6432(19)
H19_2 H -1.2008 0.8228 0.6336
C20_2 C -1.085(3) 0.945(3) 0.2771(13)
H20_2 H -1.0232 0.9305 0.2765
C21_2 C -0.287(2) 1.217(3) 0.3546(11)
H21_2 H -0.3329 1.1547 0.3380
C22_2 C -1.164(2) 0.903(2) 0.3031(10)
H22_2 H -1.1696 0.8544 0.3204
C23_2 C -0.589(3) 1.155(3) 0.0714(14)
H23_2 H -0.5966 1.1126 0.0370
C24_2 C -0.565(3) 1.295(4) 0.1405(16)
H24_2 H -0.5500 1.3597 0.1598
C25_2 C 0.636(3) 0.610(3) 0.4385(14)
H25_2 H 0.5736 0.6199 0.4301
C26_2 C 0.666(3) 0.606(4) 0.4872(17)
H26_2 H 0.6267 0.6036 0.5175
C27_2 C 0.698(4) 0.465(6) 0.218(2)
H27_2 H 0.7020 0.4129 0.2300
N1_2 N -0.735(2) 1.124(3) 0.5298(11)
N2_2 N 0.710(2) 0.599(2) 0.4012(10)
N3_2 N -0.2448(18) 1.281(2) 0.3276(9)
N4_2 N 0.768(3) 0.604(3) 0.4840(13)
N5_2 N -1.067(3) 0.727(3) 0.6785(14)
N6_2 N -0.187(2) 1.332(3) 0.4157(11)
N7_2 N -1.052(2) 0.817(3) 0.6253(12)
N8_2 N -0.882(2) 1.019(3) 0.5597(12)
N9_2 N -0.549(2) 1.266(3) 0.3176(11)
N10_2 N -0.293(3) 1.179(3) 0.0863(13)
N11_2 N -1.0945(17) 1.0019(19) 0.2541(8)
N12_2 N -0.2600(16) 1.2311(18) 0.1717(7)
N13_2 N 0.6909(17) 0.546(2) 0.2492(9)
N14_2 N -0.5771(19) 1.226(2) 0.1629(9)
N15_2 N -1.229(2) 0.943(3) 0.2994(11)
N16_2 N -0.576(2) 1.263(3) 0.0861(11)
N17_2 N -0.491(3) 1.341(3) 0.4008(13)
N18_2 N 0.698(3) 0.474(4) 0.1616(17)
C28_2 C -0.830(6) 1.183(7) 0.149(2)
H28_2 H -0.7813 1.1517 0.1514
N19_2 N -0.939(2) 1.164(2) 0.1677(10)
C29_2 C -0.966(9) 1.234(9) 0.152(3)
H29_2 H -1.0322 1.2390 0.1590
C30_2 C -0.902(15) 1.295(16) 0.127(5)
H30_2 H -0.9080 1.3445 0.1135
N20_2 N -0.822(7) 1.257(8) 0.128(3)
Cu6 Cu 1.0000 1.0000 0.0000
C31 C 0.828(2) 0.895(2) 0.1126(11)
H31 H 0.8134 0.8563 0.1372
C32 C 0.911(4) 0.916(5) 0.086(2)
H32 H 0.9692 0.8974 0.0913
C33 C 0.807(3) 0.970(3) 0.0529(15)
H33 H 0.7744 0.9919 0.0287
N21 N 0.908(3) 0.960(3) 0.0529(15)
N22 N 0.768(2) 0.938(3) 0.0982(12)
C31A C 1.172(2) 1.105(2) -0.1126(11)
H31A H 1.1866 1.1437 -0.1372
C32A C 1.089(4) 1.084(5) -0.086(2)
H32A H 1.0308 1.1026 -0.0913
C33A C 1.193(3) 1.030(3) -0.0529(15)
H33A H 1.2256 1.0081 -0.0287
N21A N 1.092(3) 1.040(3) -0.0529(15)
N22A N 1.232(2) 1.062(3) -0.0982(12)
O63 O -0.088(3) 0.643(3) 0.0084(13)
O64 O 0.546(3) 0.644(4) 1.0097(16)
loop_
_geom_bond_atom_site_label_1
_geom_bond_atom_site_label_2
_geom_bond_site_symmetry_1
_geom_bond_site_symmetry_2
W1 O10 1_555 1_555
W2 O6 1_555 1_555
W3 O1 1_555 1_555
W4 O6 1_555 1_555
W5 O2 1_555 1_555
W6 O9 1_555 1_555
W7 O4 1_555 1_555
W8 O18 1_555 1_555
W9 O8 1_555 1_555
W10 O10 1_555 1_555
W11 O32 1_555 1_555
W12 O9 1_555 1_555
W13 O12 1_555 1_555
W14 O2 1_555 1_555
W15 O1 1_555 1_555
W16 O20 1_555 1_555
W17 O3 1_555 1_555
W18 O11 1_555 1_555
P1 O6 1_555 1_555
P2 O1 1_555 1_555
Cu1 O23 1_555 1_555
Cu2 O60 1_555 1_555
Cu3 O10 1_555 1_555
Cu4 O30 1_555 1_555
Cu5 O3 1_555 1_555
O5 W15 1_555 1_555
O7 W7 1_555 1_555
O8 W4 1_555 1_555
O11 W7 1_555 1_555
O12 W18 1_555 1_555
O13 W5 1_555 1_555
O14 W5 1_555 1_555
O15 W3 1_555 1_555
O16 W4 1_555 1_555
O17 W2 1_555 1_555
O18 W18 1_555 1_555
O19 W3 1_555 1_555
O20 W6 1_555 1_555
O21 W9 1_555 1_555
O22 W14 1_555 1_555
O23 W1 1_555 1_555
O24 W15 1_555 1_555
O25 W8 1_555 1_555
O26 W8 1_555 1_555
O27 W7 1_555 1_555
O28 W6 1_555 1_555
O29 W6 1_555 1_555
O30 W10 1_555 1_555
O31 W18 1_555 1_555
O32 W9 1_555 1_555
O33 W10 1_555 1_555
O34 W1 1_555 1_555
O35 W12 1_555 1_555
O36 W3 1_555 1_555
O37 W7 1_555 1_555
O38 W3 1_555 1_555
O39 W9 1_555 1_555
O40 W4 1_555 1_555
O41 W1 1_555 1_555
O42 W8 1_555 1_555
O43 W1 1_555 1_555
O44 W2 1_555 1_555
O45 W4 1_555 1_555
O46 W2 1_555 1_555
O47 W10 1_555 1_555
O48 W11 1_555 1_555
O49 W1 1_555 1_555
O50 W11 1_555 1_555
O51 W7 1_555 1_555
O52 W2 1_555 1_555
O53 W16 1_555 1_555
O54 W11 1_555 1_555
O55 W12 1_555 1_555
O56 W14 1_555 1_555
O57 W5 1_555 1_555
O58 W13 1_555 1_555
O59 W8 1_555 1_555
O60 W8 1_555 1_555
O61 W10 1_555 1_555
O62 W9 1_555 1_555
C1 H1 1_555 1_555
C2 H2 1_555 1_555
C3 C1 1_555 1_555
H3 C3 1_555 1_555
C4 H4 1_555 1_555
C5 H5 1_555 1_555
C6 H6 1_555 1_555
C7 H7 1_555 1_555
C8 H8 1_555 1_555
C9 H9 1_555 1_555
C10 H10 1_555 1_555
C11 C4 1_555 1_555
H11 C11 1_555 1_555
C12 H12 1_555 1_555
C13 H13 1_555 1_555
C14 H14 1_555 1_555
C15 H15 1_555 1_555
C16 C7 1_555 1_555
H16 C16 1_555 1_555
C17 C13 1_555 1_555
H17 C17 1_555 1_555
C18 H18 1_555 1_555
C19 C18 1_555 1_555
H19 C19 1_555 1_555
C20 H20 1_555 1_555
C21 C15 1_555 1_555
H21 C21 1_555 1_555
C22 C20 1_555 1_555
H22 C22 1_555 1_555
C23 C9 1_555 1_555
H23 C23 1_555 1_555
C24 H24 1_555 1_555
C25 H25 1_555 1_555
C26 C25 1_555 1_555
H26 C26 1_555 1_555
C27 H27 1_555 1_555
N1 C4 1_555 1_555
N2 Cu5 1_555 1_555
N3 Cu1 1_555 1_555
N4 C2 1_555 1_555
N5 C5 1_555 1_555
N6 C12 1_555 1_555
N7 Cu2 1_555 1_555
N8 Cu2 1_555 1_555
N9 Cu3 1_555 1_555
N10 C10 1_555 1_555
N11 Cu4 1_555 1_555
N12 Cu1 1_555 1_555
N13 Cu5 1_555 1_555
N14 Cu3 1_555 1_555
N15 C14 1_555 1_555
N16 C23 1_555 1_555
N17 C8 1_555 1_555
N18 C3 1_555 1_555
C28 H28 1_555 1_555
N19 Cu4 1_555 1_555
C29 N19 1_555 1_555
H29 C29 1_555 1_555
C30 C29 1_555 1_555
H30 C30 1_555 1_555
N20 C28 1_555 1_555
Cu6 N21 1_555 1_555
C31 H31 1_555 1_555
C32 C31 1_555 1_555
H32 C32 1_555 1_555
C33 H33 1_555 1_555
N21 C32 1_555 1_555
N22 C31 1_555 1_555
W1_2 O10_2 1_555 1_555
W2_2 O6_2 1_555 1_555
W3_2 O1_2 1_555 1_555
W4_2 O6_2 1_555 1_555
W5_2 O2_2 1_555 1_555
W6_2 O9_2 1_555 1_555
W7_2 O4_2 1_555 1_555
W8_2 O18_2 1_555 1_555
W9_2 O8_2 1_555 1_555
W10_2 O10_2 1_555 1_555
W11_2 O32_2 1_555 1_555
W12_2 O9_2 1_555 1_555
W13_2 O12_2 1_555 1_555
W14_2 O2_2 1_555 1_555
W15_2 O1_2 1_555 1_555
W16_2 O20_2 1_555 1_555
W17_2 O3_2 1_555 1_555
W18_2 O11_2 1_555 1_555
P1_2 O6_2 1_555 1_555
P2_2 O1_2 1_555 1_555
Cu1_2 O23_2 1_555 1_555
Cu2_2 O60_2 1_555 1_555
Cu3_2 O10_2 1_555 1_555
Cu4_2 O30_2 1_555 1_555
Cu5_2 O15 1_555 1_555
Cu5_3 O3_2 1_555 1_555
O3_3 Cu5_2 1_555 1_555
O5_2 W15_2 1_555 1_555
O7_2 W7_2 1_555 1_555
O8_2 W4_2 1_555 1_555
O11_2 W7_2 1_555 1_555
O12_2 W18_2 1_555 1_555
O13_2 W5_2 1_555 1_555
O14_2 W5_2 1_555 1_555
O15_2 Cu5 1_555 1_555
O16_2 W4_2 1_555 1_555
O17_2 W2_2 1_555 1_555
O18_2 W18_2 1_555 1_555
O19_2 W3_2 1_555 1_555
O20_2 W6_2 1_555 1_555
O21_2 W9_2 1_555 1_555
O22_2 W14_2 1_555 1_555
O23_2 W1_2 1_555 1_555
O24_2 W15_2 1_555 1_555
O25_2 W8_2 1_555 1_555
O26_2 W8_2 1_555 1_555
O27_2 W7_2 1_555 1_555
O28_2 W6_2 1_555 1_555
O29_2 W6_2 1_555 1_555
O30_2 W10_2 1_555 1_555
O31_2 W18_2 1_555 1_555
O32_2 W9_2 1_555 1_555
O33_2 W10_2 1_555 1_555
O34_2 W1_2 1_555 1_555
O35_2 W12_2 1_555 1_555
O36_2 W3_2 1_555 1_555
O37_2 W7_2 1_555 1_555
O38_2 W3_2 1_555 1_555
O39_2 W9_2 1_555 1_555
O40_2 W4_2 1_555 1_555
O41_2 W1_2 1_555 1_555
O42_2 W8_2 1_555 1_555
O43_2 W1_2 1_555 1_555
O44_2 W2_2 1_555 1_555
O45_2 W4_2 1_555 1_555
O46_2 W2_2 1_555 1_555
O47_2 W10_2 1_555 1_555
O48_2 W11_2 1_555 1_555
O49_2 W1_2 1_555 1_555
O50_2 W11_2 1_555 1_555
O51_2 W7_2 1_555 1_555
O52_2 W2_2 1_555 1_555
O53_2 W16_2 1_555 1_555
O54_2 W11_2 1_555 1_555
O55_2 W12_2 1_555 1_555
O56_2 W14_2 1_555 1_555
O57_2 W5_2 1_555 1_555
O58_2 W13_2 1_555 1_555
O59_2 W8_2 1_555 1_555
O60_2 W8_2 1_555 1_555
O61_2 W10_2 1_555 1_555
O62_2 W9_2 1_555 1_555
C1_2 H1_2 1_555 1_555
C2_2 H2_2 1_555 1_555
C3_2 C1_2 1_555 1_555
H3_2 C3_2 1_555 1_555
C4_2 H4_2 1_555 1_555
C5_2 H5_2 1_555 1_555
C6_2 H6_2 1_555 1_555
C7_2 H7_2 1_555 1_555
C8_2 H8_2 1_555 1_555
C9_2 H9_2 1_555 1_555
C10_2 H10_2 1_555 1_555
C11_2 C4_2 1_555 1_555
H11_2 C11_2 1_555 1_555
C12_2 H12_2 1_555 1_555
C13_2 H13_2 1_555 1_555
C14_2 H14_2 1_555 1_555
C15_2 H15_2 1_555 1_555
C16_2 C7_2 1_555 1_555
H16_2 C16_2 1_555 1_555
C17_2 C13_2 1_555 1_555
H17_2 C17_2 1_555 1_555
C18_2 H18_2 1_555 1_555
C19_2 C18_2 1_555 1_555
H19_2 C19_2 1_555 1_555
C20_2 H20_2 1_555 1_555
C21_2 C15_2 1_555 1_555
H21_2 C21_2 1_555 1_555
C22_2 C20_2 1_555 1_555
H22_2 C22_2 1_555 1_555
C23_2 C9_2 1_555 1_555
H23_2 C23_2 1_555 1_555
C24_2 H24_2 1_555 1_555
C25_2 H25_2 1_555 1_555
C26_2 C25_2 1_555 1_555
H26_2 C26_2 1_555 1_555
C27_2 H27_2 1_555 1_555
N1_2 C4_2 1_555 1_555
N2_2 Cu5_2 1_555 1_555
N3_2 Cu1_2 1_555 1_555
N4_2 C2_2 1_555 1_555
N5_2 C5_2 1_555 1_555
N6_2 C12_2 1_555 1_555
N7_2 Cu2_2 1_555 1_555
N8_2 Cu2_2 1_555 1_555
N9_2 Cu3_2 1_555 1_555
N10_2 C10_2 1_555 1_555
N11_2 Cu4_2 1_555 1_555
N12_2 Cu1_2 1_555 1_555
N13_2 Cu5_2 1_555 1_555
N14_2 Cu3_2 1_555 1_555
N15_2 C14_2 1_555 1_555
N16_2 C23_2 1_555 1_555
N17_2 C8_2 1_555 1_555
N18_2 C3_2 1_555 1_555
C28_2 H28_2 1_555 1_555
N19_2 Cu4_2 1_555 1_555
C29_2 N19_2 1_555 1_555
H29_2 C29_2 1_555 1_555
C30_2 C29_2 1_555 1_555
H30_2 C30_2 1_555 1_555
N20_2 C28_2 1_555 1_555
C31A H31A 1_555 1_555
C32A C31A 1_555 1_555
H32A C32A 1_555 1_555
C33A H33A 1_555 1_555
N21A Cu6 1_555 1_555
N22A C31A 1_555 1_555
W2 O34 1_555 1_555
W3 O46 1_555 1_555
W4 O52 1_555 1_555
W5 O36 1_555 1_555
W5 O49 1_555 1_555
W6 O43 1_555 1_555
W6 O44 1_555 1_555
W9 O51 1_555 1_555
W10 O41 1_555 1_555
W11 O61 1_555 1_555
W11 O62 1_555 1_555
W12 O20 1_555 1_555
W12 O39 1_555 1_555
W12 O45 1_555 1_555
W13 O14 1_555 1_555
W13 O25 1_555 1_555
W13 O38 1_555 1_555
W13 O59 1_555 1_555
W14 O42 1_555 1_555
W14 O47 1_555 1_555
W14 O57 1_555 1_555
W15 O19 1_555 1_555
W15 O27 1_555 1_555
W15 O40 1_555 1_555
W16 O29 1_555 1_555
W16 O33 1_555 1_555
W16 O35 1_555 1_555
W16 O48 1_555 1_555
W17 O7 1_555 1_555
W17 O22 1_555 1_555
W17 O26 1_555 1_555
W17 O37 1_555 1_555
W17 O50 1_555 1_555
W18 O24 1_555 1_555
W18 O59 1_555 1_555
P1 O20 1_555 1_555
P1 O41 1_555 1_555
P1 O62 1_555 1_555
P2 O37 1_555 1_555
P2 O57 1_555 1_555
P2 O59 1_555 1_555
C1 N13 1_555 1_555
C2 N2 1_555 1_555
C5 N7 1_555 1_555
C6 N1 1_555 1_555
C6 N8 1_555 1_555
C7 N12 1_555 1_555
C8 N9 1_555 1_555
C9 N14 1_555 1_555
C10 N12 1_555 1_555
C11 N8 1_555 1_555
C12 N3 1_555 1_555
C13 N17 1_555 1_555
C14 N11 1_555 1_555
C15 N6 1_555 1_555
C16 N10 1_555 1_555
C17 N9 1_555 1_555
C18 N5 1_555 1_555
C19 N7 1_555 1_555
C20 N11 1_555 1_555
C21 N3 1_555 1_555
C22 N15 1_555 1_555
C24 N14 1_555 1_555
C24 N16 1_555 1_555
C25 N2 1_555 1_555
C26 N4 1_555 1_555
C27 N13 1_555 1_555
C27 N18 1_555 1_555
C28 N19 1_555 1_555
C30 N20 1_555 1_555
C33 N21 1_555 1_555
C33 N22 1_555 1_555
W2_2 O34_2 1_555 1_555
W3_2 O15_2 1_555 1_555
W3_2 O46_2 1_555 1_555
W4_2 O52_2 1_555 1_555
W5_2 O36_2 1_555 1_555
W5_2 O49_2 1_555 1_555
W6_2 O43_2 1_555 1_555
W6_2 O44_2 1_555 1_555
W9_2 O51_2 1_555 1_555
W10_2 O41_2 1_555 1_555
W11_2 O61_2 1_555 1_555
W11_2 O62_2 1_555 1_555
W12_2 O20_2 1_555 1_555
W12_2 O39_2 1_555 1_555
W12_2 O45_2 1_555 1_555
W13_2 O14_2 1_555 1_555
W13_2 O25_2 1_555 1_555
W13_2 O38_2 1_555 1_555
W13_2 O59_2 1_555 1_555
W14_2 O42_2 1_555 1_555
W14_2 O47_2 1_555 1_555
W14_2 O57_2 1_555 1_555
W15_2 O19_2 1_555 1_555
W15_2 O27_2 1_555 1_555
W15_2 O40_2 1_555 1_555
W16_2 O29_2 1_555 1_555
W16_2 O33_2 1_555 1_555
W16_2 O35_2 1_555 1_555
W16_2 O48_2 1_555 1_555
W17_2 O7_2 1_555 1_555
W17_2 O22_2 1_555 1_555
W17_2 O26_2 1_555 1_555
W17_2 O37_2 1_555 1_555
W17_2 O50_2 1_555 1_555
W18_2 O24_2 1_555 1_555
W18_2 O59_2 1_555 1_555
P1_2 O20_2 1_555 1_555
P1_2 O41_2 1_555 1_555
P1_2 O62_2 1_555 1_555
P2_2 O37_2 1_555 1_555
P2_2 O57_2 1_555 1_555
P2_2 O59_2 1_555 1_555
C1_2 N13_2 1_555 1_555
C2_2 N2_2 1_555 1_555
C5_2 N7_2 1_555 1_555
C6_2 N1_2 1_555 1_555
C6_2 N8_2 1_555 1_555
C7_2 N12_2 1_555 1_555
C8_2 N9_2 1_555 1_555
C9_2 N14_2 1_555 1_555
C10_2 N12_2 1_555 1_555
C11_2 N8_2 1_555 1_555
C12_2 N3_2 1_555 1_555
C13_2 N17_2 1_555 1_555
C14_2 N11_2 1_555 1_555
C15_2 N6_2 1_555 1_555
C16_2 N10_2 1_555 1_555
C17_2 N9_2 1_555 1_555
C18_2 N5_2 1_555 1_555
C19_2 N7_2 1_555 1_555
C20_2 N11_2 1_555 1_555
C21_2 N3_2 1_555 1_555
C22_2 N15_2 1_555 1_555
C24_2 N14_2 1_555 1_555
C24_2 N16_2 1_555 1_555
C25_2 N2_2 1_555 1_555
C26_2 N4_2 1_555 1_555
C27_2 N13_2 1_555 1_555
C27_2 N18_2 1_555 1_555
C28_2 N19_2 1_555 1_555
C30_2 N20_2 1_555 1_555
C32A N21A 1_555 1_555
C33A N21A 1_555 1_555
C33A N22A 1_555 1_555

#END
