
#######################################################################
#
#                 Cambridge Crystallographic Data Centre
#                                CCDC 
#
#######################################################################
#
# If this CIF has been generated from an entry in the Cambridge 
# Structural Database, then it will include bibliographic, chemical, 
# crystal, experimental, refinement or atomic coordinate data resulting 
# from the CCDC's data processing and validation procedures.
#
#######################################################################

data_KUXROL
_symmetry_cell_setting           monoclinic
_symmetry_space_group_name_H-M   'P 21/c'
_symmetry_Int_Tables_number      14
_space_group_name_Hall           '-P 2ybc'
loop_
_symmetry_equiv_pos_site_id
_symmetry_equiv_pos_as_xyz
1 x,y,z
2 -x,1/2+y,1/2-z
3 -x,-y,-z
4 x,1/2-y,1/2+z
_cell_length_a                   13.409(4)
_cell_length_b                   25.530(7)
_cell_length_c                   13.952(4)
_cell_angle_alpha                90
_cell_angle_beta                 99.554(3)
_cell_angle_gamma                90
_cell_volume                     4709.96
loop_
_atom_site_label
_atom_site_type_symbol
_atom_site_fract_x
_atom_site_fract_y
_atom_site_fract_z
C1 C 0.0599(3) 0.43117(14) 0.0255(3)
H1 H 0.0489 0.4126 -0.0326
C2 C 0.0133(3) 0.41650(13) 0.1010(2)
H2 H -0.0282 0.3871 0.0942
C3 C 0.0258(2) 0.44417(12) 0.1877(2)
C4 C -0.0275(2) 0.42317(14) 0.2671(2)
C5 C -0.4860(3) 0.55868(14) 0.2595(3)
H3 H -0.4798 0.5766 0.2027
C6 C -0.5388(3) 0.58559(16) 0.3311(3)
O1 O -0.03156(19) 0.37454(10) 0.27513(17)
O2 O -0.06369(16) 0.45351(9) 0.32336(16)
O3 O -0.5580(2) 0.63241(11) 0.3210(2)
O4 O -0.55941(17) 0.55967(10) 0.40237(18)
H8 H 0.060(2) 0.5109(12) 0.332(2)
H9 H 0.231(2) 0.5625(12) 0.280(2)
C7 C 0.1132(2) 0.44024(13) 0.5226(2)
H10 H 0.0848 0.4732 0.5089
C8 C 0.2131(2) 0.43723(13) 0.5691(3)
H11 H 0.2502 0.4676 0.5862
C9 C 0.2562(2) 0.38894(13) 0.5893(2)
H12 H 0.3230 0.3860 0.6202
C10 C 0.1978(2) 0.34400(12) 0.5626(2)
C11 C 0.2389(2) 0.29135(12) 0.5807(2)
C12 C 0.3702(3) 0.23653(14) 0.6359(2)
C13 C 0.4721(3) 0.22904(16) 0.6803(3)
H13 H 0.5132 0.2577 0.7003
C14 C 0.5090(3) 0.17997(19) 0.6932(3)
H14 H 0.5754 0.1749 0.7238
C15 C 0.4487(3) 0.13649(18) 0.6611(3)
H15 H 0.4764 0.1031 0.6695
C16 C 0.3507(3) 0.14198(15) 0.6180(3)
H16 H 0.3117 0.1127 0.5976
C17 C 0.3086(3) 0.19294(14) 0.6046(3)
C18 C 0.1759(2) 0.24709(12) 0.5513(2)
C19 C 0.0698(2) 0.25485(12) 0.5058(2)
C20 C 0.0047(3) 0.21355(12) 0.4760(2)
H17 H 0.0273 0.1792 0.4850
C21 C -0.0926(3) 0.22361(13) 0.4335(3)
H18 H -0.1370 0.1963 0.4136
C22 C -0.1241(2) 0.27494(12) 0.4206(2)
H19 H -0.1902 0.2815 0.3910
C23 C 0.0328(2) 0.30572(11) 0.4904(2)
C24 C 0.0982(2) 0.35089(11) 0.5180(2)
C25 C -0.3838(2) 0.58153(13) 0.6005(2)
H20 H -0.4045 0.5471 0.5880
C26 C -0.2864(3) 0.59089(14) 0.6505(3)
H21 H -0.2437 0.5631 0.6717
C27 C -0.2544(2) 0.64133(13) 0.6678(2)
H22 H -0.1894 0.6482 0.7003
C28 C -0.3206(2) 0.68259(12) 0.6361(2)
C29 C -0.2920(2) 0.73758(12) 0.6501(2)
C30 C -0.1731(2) 0.80015(14) 0.6995(2)
C31 C -0.0732(3) 0.81442(16) 0.7413(3)
H23 H -0.0255 0.7887 0.7623
C32 C -0.0476(3) 0.86565(18) 0.7504(3)
H24 H 0.0181 0.8748 0.7779
C33 C -0.1182(3) 0.90518(17) 0.7192(3)
H25 H -0.0987 0.9401 0.7262
C34 C -0.2148(3) 0.89315(14) 0.6789(3)
H26 H -0.2609 0.9197 0.6582
C35 C -0.2451(3) 0.83993(14) 0.6685(2)
C36 C -0.3652(2) 0.77778(12) 0.6198(2)
C37 C -0.4686(2) 0.76343(12) 0.5756(2)
C38 C -0.5446(2) 0.80000(13) 0.5477(3)
H27 H -0.5318 0.8355 0.5585
C39 C -0.6379(3) 0.78358(13) 0.5043(3)
H28 H -0.6893 0.8078 0.4854
C40 C -0.6556(2) 0.73082(13) 0.4888(2)
H29 H -0.7192 0.7202 0.4580
C41 C -0.4924(2) 0.71051(11) 0.5590(2)
C42 C -0.4174(2) 0.66966(12) 0.5892(2)
C43 C 0.1383(3) 0.50163(13) 0.1210(2)
H30 H 0.1818 0.5303 0.1270
C44 C 0.1236(3) 0.47387(14) 0.0364(3)
H31 H 0.1567 0.4838 -0.0143
C45 C 0.0901(2) 0.48826(11) 0.1988(2)
C46 C 0.1087(2) 0.51778(12) 0.2906(2)
C47 C 0.1823(2) 0.55131(13) 0.3191(2)
C48 C 0.1901(2) 0.58026(12) 0.4122(2)
C49 C -0.3126(2) 0.41396(12) 0.3306(2)
C50 C -0.3296(2) 0.43926(12) 0.2314(2)
C51 C -0.2811(2) 0.41506(13) 0.1616(2)
H32 H -0.2396 0.3863 0.1794
C52 C -0.2934(3) 0.43291(14) 0.0676(3)
H33 H -0.2604 0.4161 0.0226
C53 C -0.3541(3) 0.47537(14) 0.0396(3)
H34 H -0.3632 0.4872 -0.0243
C54 C -0.4012(2) 0.50014(13) 0.1073(3)
H35 H -0.4409 0.5294 0.0881
C55 C -0.3920(2) 0.48316(12) 0.2040(2)
C56 C -0.4477(2) 0.51147(13) 0.2708(2)
H36 H -0.4565 0.4938 0.3271
N1 N 0.05638(18) 0.39830(9) 0.49668(18)
N2 N -0.06392(17) 0.31537(9) 0.44855(18)
N3 N 0.33412(19) 0.28612(11) 0.62216(19)
N4 N 0.2104(2) 0.19853(10) 0.5627(2)
N5 N -0.44830(18) 0.62001(9) 0.56997(19)
N6 N -0.58525(18) 0.69438(9) 0.51599(18)
N7 N -0.19811(19) 0.74860(11) 0.69039(19)
N8 N -0.34203(19) 0.82814(10) 0.62900(19)
O7 O 0.13822(16) 0.56406(8) 0.47346(16)
O8 O 0.24613(15) 0.62043(8) 0.42376(16)
O9 O -0.36834(16) 0.42767(9) 0.39113(16)
O10 O -0.24593(15) 0.37917(8) 0.34697(15)
Zn1 Zn -0.09969(3) 0.394063(13) 0.41716(3)
Zn2 Zn -0.60348(3) 0.613180(13) 0.49255(3)
O7B O -0.13822(16) 0.43594(8) 0.52654(16)
O8_2 O -0.75387(15) 0.62043(8) 0.42376(16)
O9B O -0.63166(16) 0.57233(9) 0.60887(16)
Zn1B Zn 0.09969(3) 0.605937(13) 0.58284(3)
Zn2_2 Zn 0.39652(3) 0.613180(13) 0.49255(3)
Zn2B Zn -0.39652(3) 0.386820(13) 0.50745(3)
O5 O -0.2590(3) 0.18854(15) 0.2477(3)
H4 H -0.3134 0.1832 0.2078
H5 H -0.2687 0.1599 0.2901
O6 O -0.1439(3) 0.28635(14) 0.1689(3)
H6 H -0.1653 0.2607 0.1989
H7 H -0.0844 0.2931 0.2002
loop_
_geom_bond_atom_site_label_1
_geom_bond_atom_site_label_2
_geom_bond_site_symmetry_1
_geom_bond_site_symmetry_2
C1 H1 1_555 1_555
C2 C1 1_555 1_555
H2 C2 1_555 1_555
C3 C2 1_555 1_555
C4 C3 1_555 1_555
C5 H3 1_555 1_555
C6 C5 1_555 1_555
O1 C4 1_555 1_555
O2 C4 1_555 1_555
O3 C6 1_555 1_555
O4 C6 1_555 1_555
O5 H4 1_555 1_555
H5 O5 1_555 1_555
O6 H6 1_555 1_555
H7 O6 1_555 1_555
H8 C46 1_555 1_555
H9 C47 1_555 1_555
C7 H10 1_555 1_555
C8 C7 1_555 1_555
H11 C8 1_555 1_555
C9 C8 1_555 1_555
H12 C9 1_555 1_555
C10 C9 1_555 1_555
C11 C10 1_555 1_555
C12 C13 1_555 1_555
C13 H13 1_555 1_555
C14 C13 1_555 1_555
H14 C14 1_555 1_555
C15 C14 1_555 1_555
H15 C15 1_555 1_555
C16 C15 1_555 1_555
H16 C16 1_555 1_555
C17 C12 1_555 1_555
C18 C11 1_555 1_555
C19 C18 1_555 1_555
C20 C19 1_555 1_555
H17 C20 1_555 1_555
C21 C20 1_555 1_555
H18 C21 1_555 1_555
C22 C21 1_555 1_555
H19 C22 1_555 1_555
C23 C19 1_555 1_555
C24 C10 1_555 1_555
C25 H20 1_555 1_555
C26 C25 1_555 1_555
H21 C26 1_555 1_555
C27 C26 1_555 1_555
H22 C27 1_555 1_555
C28 C27 1_555 1_555
C29 C28 1_555 1_555
C30 C31 1_555 1_555
C31 H23 1_555 1_555
C32 C31 1_555 1_555
H24 C32 1_555 1_555
C33 C32 1_555 1_555
H25 C33 1_555 1_555
C34 C33 1_555 1_555
H26 C34 1_555 1_555
C35 C30 1_555 1_555
C36 C29 1_555 1_555
C37 C36 1_555 1_555
C38 C37 1_555 1_555
H27 C38 1_555 1_555
C39 C38 1_555 1_555
H28 C39 1_555 1_555
C40 C39 1_555 1_555
H29 C40 1_555 1_555
C41 C37 1_555 1_555
C42 C28 1_555 1_555
C43 H30 1_555 1_555
C44 C1 1_555 1_555
H31 C44 1_555 1_555
C45 C3 1_555 1_555
C46 C45 1_555 1_555
C47 C46 1_555 1_555
C48 C47 1_555 1_555
C49 C50 1_555 1_555
C50 C51 1_555 1_555
C51 H32 1_555 1_555
C52 C51 1_555 1_555
H33 C52 1_555 1_555
C53 C52 1_555 1_555
H34 C53 1_555 1_555
C54 C53 1_555 1_555
H35 C54 1_555 1_555
C55 C50 1_555 1_555
C56 C5 1_555 1_555
H36 C56 1_555 1_555
N1 C7 1_555 1_555
N2 C22 1_555 1_555
N3 C11 1_555 1_555
N4 C17 1_555 1_555
N5 C25 1_555 1_555
N6 C40 1_555 1_555
N7 C29 1_555 1_555
N8 C35 1_555 1_555
O7 C48 1_555 1_555
O8 C48 1_555 1_555
O9 C49 1_555 1_555
O10 C49 1_555 1_555
Zn1 O1 1_555 1_555
Zn2 O4 1_555 1_555
O7B Zn1 1_555 1_555
O8_2 Zn2 1_555 1_555
O9B Zn2 1_555 1_555
Zn1B O7 1_555 1_555
Zn2_2 O8 1_555 1_555
Zn2B O9 1_555 1_555
O2 Zn1 1_555 1_555
C12 N3 1_555 1_555
C16 C17 1_555 1_555
C18 N4 1_555 1_555
C23 C24 1_555 1_555
C23 N2 1_555 1_555
C24 N1 1_555 1_555
C30 N7 1_555 1_555
C34 C35 1_555 1_555
C36 N8 1_555 1_555
C41 C42 1_555 1_555
C41 N6 1_555 1_555
C42 N5 1_555 1_555
C43 C44 1_555 1_555
C43 C45 1_555 1_555
C54 C55 1_555 1_555
C55 C56 1_555 1_555
N1 Zn1 1_555 1_555
N2 Zn1 1_555 1_555
N5 Zn2 1_555 1_555
N6 Zn2 1_555 1_555
O10 Zn1 1_555 1_555

#END
