
#######################################################################
#
#                 Cambridge Crystallographic Data Centre
#                                CCDC 
#
#######################################################################
#
# If this CIF has been generated from an entry in the Cambridge 
# Structural Database, then it will include bibliographic, chemical, 
# crystal, experimental, refinement or atomic coordinate data resulting 
# from the CCDC's data processing and validation procedures.
#
#######################################################################

data_KUXTON
_symmetry_cell_setting           tetragonal
_symmetry_space_group_name_H-M   'I 41/a c d'
_symmetry_Int_Tables_number      142
_space_group_name_Hall           '-I 4bd 2c'
loop_
_symmetry_equiv_pos_site_id
_symmetry_equiv_pos_as_xyz
1 x,y,z
2 1/2-x,-y,1/2+z
3 1/4-y,3/4+x,1/4+z
4 1/4+y,1/4-x,3/4+z
5 1/2-x,y,-z
6 x,-y,1/2-z
7 1/4+y,3/4+x,3/4-z
8 1/4-y,1/4-x,1/4-z
9 1/2+x,1/2+y,1/2+z
10 -x,1/2-y,z
11 3/4-y,1/4+x,3/4+z
12 3/4+y,3/4-x,1/4+z
13 -x,1/2+y,1/2-z
14 1/2+x,1/2-y,-z
15 3/4+y,1/4+x,1/4-z
16 3/4-y,3/4-x,3/4-z
17 -x,-y,-z
18 1/2+x,y,1/2-z
19 3/4+y,1/4-x,3/4-z
20 3/4-y,3/4+x,1/4-z
21 1/2+x,-y,z
22 -x,y,1/2+z
23 3/4-y,1/4-x,1/4+z
24 3/4+y,3/4+x,3/4+z
25 1/2-x,1/2-y,1/2-z
26 x,1/2+y,-z
27 1/4+y,3/4-x,1/4-z
28 1/4-y,1/4+x,3/4-z
29 x,1/2-y,1/2+z
30 1/2-x,1/2+y,z
31 1/4-y,3/4-x,3/4+z
32 1/4+y,1/4+x,1/4+z
_cell_length_a                   12.9571(2)
_cell_length_b                   12.9571(2)
_cell_length_c                   30.9700(7)
_cell_angle_alpha                90
_cell_angle_beta                 90
_cell_angle_gamma                90
_cell_volume                     5199.44
loop_
_atom_site_label
_atom_site_type_symbol
_atom_site_fract_x
_atom_site_fract_y
_atom_site_fract_z
Cu1 Cu 0.53388(8) -0.13305(5) 0.58880(3)
Cl1 Cl 0.36004(9) -0.23832(9) 0.57623(4)
N1 N 0.4930(4) 0.0055(4) 0.57597(13)
N2 N 0.4801(3) 0.1600(3) 0.54855(14)
C1 C 0.4018(5) 0.0526(5) 0.59045(19)
H1 H 0.3535 0.0218 0.6096
C2 C 0.3927(4) 0.1453(5) 0.57380(19)
H2 H 0.3377 0.1926 0.5781
C3 C 0.5376(4) 0.0740(4) 0.55121(15)
C4 C 0.5000 0.2500 0.5224(2)
H3 H 0.5603 0.2367 0.5036
C5 C 0.6367(4) 0.0585(4) 0.52907(17)
H4 H 0.6589 -0.0133 0.5326
H5 H 0.6887 0.1046 0.5416
H6 H 0.6286 0.0738 0.4983
Cu1G Cu 0.38305(5) -0.28388(8) 0.66120(3)
Cu1I Cu 0.46612(8) -0.36695(5) 0.58880(3)
Cu1I_2 Cu 0.46612(8) 0.63305(5) 0.58880(3)
Cu1N Cu 0.61695(5) -0.21612(8) 0.66120(3)
Cl1G Cl 0.48832(9) -0.11004(9) 0.67377(4)
Cl1I Cl 0.63996(9) -0.26168(9) 0.57623(4)
Cl1N Cl 0.51168(9) -0.38996(9) 0.67377(4)
N1I N 0.5070(4) 0.4945(4) 0.57597(13)
N1G N 0.2445(4) -0.2430(4) 0.67403(13)
N2I N 0.5199(3) 0.3400(3) 0.54855(14)
C1I C 0.5982(5) 0.4474(5) 0.59045(19)
H1I H 0.6465 0.4782 0.6096
C2I C 0.6073(4) 0.3547(5) 0.57380(19)
H2I H 0.6623 0.3074 0.5781
C3I C 0.4624(4) 0.4260(4) 0.55121(15)
H3I H 0.4397 0.2633 0.5036
C5I C 0.3633(4) 0.4415(4) 0.52907(17)
H4I H 0.3411 0.5133 0.5326
H5I H 0.3113 0.3954 0.5416
H6I H 0.3714 0.4262 0.4983
loop_
_geom_bond_atom_site_label_1
_geom_bond_atom_site_label_2
_geom_bond_site_symmetry_1
_geom_bond_site_symmetry_2
Cu1 Cl1 1_555 1_555
Cl1 Cu1G 1_555 1_555
N1 Cu1 1_555 1_555
N2 C2 1_555 1_555
C1 N1 1_555 1_555
H1 C1 1_555 1_555
C2 C1 1_555 1_555
H2 C2 1_555 1_555
C3 N1 1_555 1_555
C4 N2 1_555 1_555
H3 C4 1_555 1_555
C5 C3 1_555 1_555
H4 C5 1_555 1_555
H5 C5 1_555 1_555
H6 C5 1_555 1_555
Cu1G Cl1G 1_555 1_555
Cu1I Cl1 1_555 1_555
Cu1I_2 N1I 1_555 1_555
Cu1N Cl1G 1_555 1_555
Cl1G Cu1 1_555 1_555
Cl1I Cu1 1_555 1_555
Cl1N Cu1G 1_555 1_555
N1I C1I 1_555 1_555
N1G Cu1G 1_555 1_555
N2I C4 1_555 1_555
C1I H1I 1_555 1_555
C2I N2I 1_555 1_555
H2I C2I 1_555 1_555
C3I N1I 1_555 1_555
H3I C4 1_555 1_555
C5I C3I 1_555 1_555
H4I C5I 1_555 1_555
H5I C5I 1_555 1_555
H6I C5I 1_555 1_555
N2 C3 1_555 1_555
Cu1I Cl1I 1_555 1_555
Cu1I Cl1N 1_555 1_555
Cu1N Cl1I 1_555 1_555
Cu1N Cl1N 1_555 1_555
N2I C3I 1_555 1_555
C1I C2I 1_555 1_555

#END
