
#######################################################################
#
#                 Cambridge Crystallographic Data Centre
#                                CCDC 
#
#######################################################################
#
# If this CIF has been generated from an entry in the Cambridge 
# Structural Database, then it will include bibliographic, chemical, 
# crystal, experimental, refinement or atomic coordinate data resulting 
# from the CCDC's data processing and validation procedures.
#
#######################################################################

data_KUXVOO
_symmetry_cell_setting           monoclinic
_symmetry_space_group_name_H-M   'P 21/n'
_symmetry_Int_Tables_number      14
_space_group_name_Hall           '-P 2yn'
loop_
_symmetry_equiv_pos_site_id
_symmetry_equiv_pos_as_xyz
1 x,y,z
2 1/2-x,1/2+y,1/2-z
3 -x,-y,-z
4 1/2+x,1/2-y,1/2+z
_cell_length_a                   8.475(1)
_cell_length_b                   9.234(2)
_cell_length_c                   16.320(3)
_cell_angle_alpha                90
_cell_angle_beta                 100.33(1)
_cell_angle_gamma                90
_cell_volume                     1256.47
loop_
_atom_site_label
_atom_site_type_symbol
_atom_site_fract_x
_atom_site_fract_y
_atom_site_fract_z
Y1 Y 0.0525(1) 0.0939(1) 0.3329(1)
O1 O 0.1125(7) -0.1086(9) 0.4200(3)
O2 O 0.2572(9) -0.0316(8) 0.2773(4)
O3 O -0.0830(8) -0.1029(11) 0.2577(5)
O4 O 0.0137(9) 0.1672(10) 0.1912(4)
O5 O -0.0599(10) 0.3293(9) 0.3215(4)
O9 O 0.2789(6) 0.2486(6) 0.3404(3)
O10 O 0.5068(7) 0.3480(6) 0.3991(3)
O11 O 0.5840(6) 0.0730(8) 0.2926(3)
O12 O 0.8171(6) 0.0687(6) 0.3817(3)
O13 O 0.2460(6) 0.2515(6) 0.5932(3)
O14 O 0.1103(6) 0.1845(6) 0.4696(3)
C1 C 0.4090(9) 0.2492(9) 0.3924(4)
C2 C 0.6661(8) 0.0606(8) 0.3629(4)
C3 C 0.2338(8) 0.1823(8) 0.5265(4)
C4 C 0.4516(7) 0.1163(8) 0.4461(3)
C5 C 0.5798(8) 0.0289(8) 0.4335(4)
C6 C 0.3725(7) 0.0884(9) 0.5130(3)
H1 H 0.085(12) -0.121(12) 0.4566(52)
H2 H 0.145(11) -0.206(10) 0.3954(52)
H3 H 0.262(14) -0.074(13) 0.2556(67)
H4 H 0.3224(97) 0.082(11) 0.3151(48)
H5 H -0.065(11) -0.133(10) 0.2088(51)
H6 H -0.102(12) -0.159(11) 0.2988(56)
H7 H -0.047(12) 0.091(11) 0.1740(62)
H8 H 0.126(10) 0.1466(88) 0.1645(52)
H9 H -0.072(15) 0.358(13) 0.2892(65)
H10 H -0.106(12) 0.348(12) 0.3553(55)
C6B C 0.6275(7) -0.0884(9) 0.4870(3)
C3B C 0.7662(8) -0.1823(8) 0.4735(4)
O13B O 0.7540(6) -0.2515(6) 0.4068(3)
O14B O 0.8897(6) -0.1845(6) 0.5304(3)
C4B C 0.5484(7) -0.1163(8) 0.5539(3)
C1B C 0.5910(9) -0.2492(9) 0.6076(4)
O9B O 0.7211(6) -0.2486(6) 0.6596(3)
O10B O 0.4932(7) -0.3480(6) 0.6009(3)
C5B C 0.4202(8) -0.0289(8) 0.5665(4)
C2B C 0.3339(8) -0.0606(8) 0.6371(4)
O11B O 0.4160(6) -0.0730(8) 0.7074(3)
O12B O 0.1829(6) -0.0687(6) 0.6183(3)
Y1B Y 0.9475(1) -0.0939(1) 0.6671(1)
O1B O 0.8875(7) 0.1086(9) 0.5800(3)
H1B H 0.915(12) 0.121(12) 0.5434(52)
H2B H 0.855(11) 0.206(10) 0.6046(52)
O2B O 0.7428(9) 0.0316(8) 0.7227(4)
H3B H 0.738(14) 0.074(13) 0.7444(67)
H4B H 0.6776(97) -0.082(11) 0.6849(48)
O3B O 1.0830(8) 0.1029(11) 0.7423(5)
H5B H 1.065(11) 0.133(10) 0.7912(51)
H6B H 1.102(12) 0.159(11) 0.7012(56)
O4B O 0.9863(9) -0.1672(10) 0.8088(4)
H7B H 1.047(12) -0.091(11) 0.8260(62)
H8B H 0.874(10) -0.1466(88) 0.8355(52)
O5B O 1.0599(10) -0.3293(9) 0.6785(4)
H9B H 1.072(15) -0.358(13) 0.7108(65)
H10B H 1.106(12) -0.348(12) 0.6447(55)
O12_2 O -0.1829(6) 0.0687(6) 0.3817(3)
Y1_2 Y 1.0525(1) 0.0939(1) 0.3329(1)
Y1B_2 Y -0.0525(1) -0.0939(1) 0.6671(1)
O12B_2 O 1.1829(6) -0.0687(6) 0.6183(3)
O6 O 0.7884(12) -0.1349(8) 0.9284(6)
O7 O 0.0076(18) -0.5332(13) 0.5762(9)
O8 O 0.1873(25) 0.5412(19) 0.5486(1)
loop_
_geom_bond_atom_site_label_1
_geom_bond_atom_site_label_2
_geom_bond_site_symmetry_1
_geom_bond_site_symmetry_2
Y1 O1 1_555 1_555
O1 H1 1_555 1_555
O2 Y1 1_555 1_555
O3 Y1 1_555 1_555
O4 Y1 1_555 1_555
O5 Y1 1_555 1_555
O9 Y1 1_555 1_555
O10 C1 1_555 1_555
O11 C2 1_555 1_555
O12 C2 1_555 1_555
O13 C3 1_555 1_555
O14 Y1 1_555 1_555
C1 O9 1_555 1_555
C2 C5 1_555 1_555
C3 O14 1_555 1_555
C4 C1 1_555 1_555
C5 C4 1_555 1_555
C6 C3 1_555 1_555
H2 O1 1_555 1_555
H3 O2 1_555 1_555
H4 O2 1_555 1_555
H5 O3 1_555 1_555
H6 O3 1_555 1_555
H7 O4 1_555 1_555
H8 O4 1_555 1_555
H9 O5 1_555 1_555
H10 O5 1_555 1_555
C6B C5 1_555 1_555
C3B C6B 1_555 1_555
O13B C3B 1_555 1_555
O14B C3B 1_555 1_555
C4B C6B 1_555 1_555
C1B C4B 1_555 1_555
O9B C1B 1_555 1_555
O10B C1B 1_555 1_555
C5B C6 1_555 1_555
C2B C5B 1_555 1_555
O11B C2B 1_555 1_555
O12B C2B 1_555 1_555
Y1B O14B 1_555 1_555
O1B Y1B 1_555 1_555
H1B O1B 1_555 1_555
H2B O1B 1_555 1_555
O2B Y1B 1_555 1_555
H3B O2B 1_555 1_555
H4B O2B 1_555 1_555
O3B Y1B 1_555 1_555
H5B O3B 1_555 1_555
H6B O3B 1_555 1_555
O4B Y1B 1_555 1_555
H7B O4B 1_555 1_555
H8B O4B 1_555 1_555
O5B Y1B 1_555 1_555
H9B O5B 1_555 1_555
H10B O5B 1_555 1_555
O12_2 Y1 1_555 1_555
Y1_2 O12 1_555 1_555
Y1B_2 O12B 1_555 1_555
O12B_2 Y1B 1_555 1_555
C4 C6 1_555 1_555
C4B C5B 1_555 1_555
O9B Y1B 1_555 1_555

#END
