
#######################################################################
#
#                 Cambridge Crystallographic Data Centre
#                                CCDC 
#
#######################################################################
#
# If this CIF has been generated from an entry in the Cambridge 
# Structural Database, then it will include bibliographic, chemical, 
# crystal, experimental, refinement or atomic coordinate data resulting 
# from the CCDC's data processing and validation procedures.
#
#######################################################################

data_KUXVUV
_symmetry_cell_setting           triclinic
_symmetry_space_group_name_H-M   'P -1'
_symmetry_Int_Tables_number      2
_space_group_name_Hall           '-P 1'
loop_
_symmetry_equiv_pos_site_id
_symmetry_equiv_pos_as_xyz
1 x,y,z
2 -x,-y,-z
_cell_length_a                   8.3112(4)
_cell_length_b                   9.9605(4)
_cell_length_c                   16.4964(7)
_cell_angle_alpha                90.699(2)
_cell_angle_beta                 103.392(2)
_cell_angle_gamma                110.548(2)
_cell_volume                     1237.41
loop_
_atom_site_label
_atom_site_type_symbol
_atom_site_fract_x
_atom_site_fract_y
_atom_site_fract_z
Tb1 Tb 0.60621(5) 0.29148(4) 0.48415(2)
Ag1 Ag 0.1147(2) -0.0200(2) 0.46423(11)
Ag2 Ag 0.5000 0.0000 0.0000
Ag3 Ag 0.16540(12) 0.66119(10) -0.00156(4)
C1 C 0.3758(10) 0.4584(8) 0.3628(5)
C2 C 0.3220(11) 0.5035(9) 0.2764(5)
C3 C 0.1998(10) 0.5714(9) 0.2602(5)
H1 H 0.1491 0.5891 0.3019
C4 C 0.1551(11) 0.6122(10) 0.1813(6)
H2 H 0.0710 0.6557 0.1704
C5 C 0.3450(13) 0.5270(12) 0.1362(6)
H3 H 0.3953 0.5116 0.0938
C6 C 0.3941(12) 0.4824(10) 0.2129(6)
H4 H 0.4769 0.4376 0.2220
C7 C 0.3941(9) -0.0399(9) 0.3750(5)
C8 C 0.4167(10) -0.0306(8) 0.2870(5)
C9 C 0.5111(11) -0.1008(9) 0.2578(5)
H5 H 0.5623 -0.1555 0.2926
C10 C 0.5297(12) -0.0904(10) 0.1774(6)
H6 H 0.5973 -0.1364 0.1598
C11 C 0.3598(14) 0.0495(12) 0.1519(6)
H7 H 0.3036 0.0988 0.1151
C12 C 0.3426(11) 0.0478(11) 0.2320(5)
H8 H 0.2808 0.0994 0.2497
C13 C 0.8521(12) 0.1672(10) 0.3774(6)
C14 C 0.8599(10) 0.2146(9) 0.2898(5)
C15 C 0.9429(12) 0.1608(11) 0.2419(6)
H9 H 1.0036 0.1016 0.2640
C16 C 0.9351(12) 0.1958(11) 0.1605(5)
H10 H 0.9906 0.1582 0.1284
C17 C 0.7693(13) 0.3319(11) 0.1733(6)
H11 H 0.7094 0.3910 0.1501
C18 C 0.7705(12) 0.2996(11) 0.2547(5)
H12 H 0.7109 0.3356 0.2852
C19 C 0.9689(11) 0.5378(9) 0.4621(5)
N1 N 0.2254(10) 0.5928(9) 0.1202(5)
N2 N 0.4561(10) -0.0180(9) 0.1236(4)
N3 N 0.8518(10) 0.2806(9) 0.1266(5)
O5 O 0.4451(7) 0.3633(6) 0.3673(4)
O6 O 0.3475(9) 0.5106(6) 0.4230(4)
O7 O 0.3837(8) 0.0677(6) 0.4112(4)
O8 O 0.3918(8) -0.1534(6) 0.4053(4)
O9 O 0.8032(8) 0.4994(7) 0.4347(4)
O10 O 1.0813(7) 0.6347(6) 0.4390(3)
O11 O 0.7408(7) 0.1898(7) 0.4075(4)
O12 O 0.9597(10) 0.1148(10) 0.4124(5)
O13 O 0.3222(7) 0.2530(8) 0.5191(4)
H13 H 0.3457 0.3421 0.5210
H14 H 0.2251 0.2178 0.4837
O14 O -0.096(3) -0.1952(17) 0.3454(13)
H15 H -0.0459 -0.1996 0.3088
H16 H -0.1971 -0.2586 0.3301
Tb1A Tb 0.39379(5) -0.29148(4) -0.48415(2)
Tb1A_2 Tb 0.39379(5) 0.70852(4) 0.51585(2)
Tb1A_3 Tb 0.39379(5) -0.29148(4) 0.51585(2)
Tb1A_4 Tb 1.39379(5) 0.70852(4) 0.51585(2)
Tb1_2 Tb 0.60621(5) 0.29148(4) -0.51585(2)
Tb1_3 Tb -0.39379(5) 0.29148(4) 0.48415(2)
Ag1A Ag 0.8853(2) 0.0200(2) -0.46423(11)
Ag1A_2 Ag -0.1147(2) 0.0200(2) 0.53577(11)
Ag1_2 Ag 1.1147(2) -0.0200(2) 0.46423(11)
Ag1A_3 Ag 0.8853(2) 0.0200(2) 0.53577(11)
Ag1_3 Ag 1.1147(2) -0.0200(2) -0.53577(11)
Ag3A Ag 0.83460(12) 0.33881(10) 1.00156(4)
Ag3A_2 Ag 0.83460(12) 0.33881(10) 0.00156(4)
Ag3A_3 Ag -0.16540(12) 0.33881(10) 0.00156(4)
C1A C 0.6242(10) 0.5416(8) 0.6372(5)
C2A C 0.6780(11) 0.4965(9) 0.7236(5)
C3A C 0.8002(10) 0.4286(9) 0.7398(5)
H1A H 0.8509 0.4109 0.6981
C4A C 0.8449(11) 0.3878(10) 0.8187(6)
H2A H 0.9290 0.3443 0.8296
C5A C 0.6550(13) 0.4730(12) 0.8638(6)
H3A H 0.6047 0.4884 0.9062
C6A C 0.6059(12) 0.5176(10) 0.7871(6)
H4A H 0.5231 0.5624 0.7780
C7A C 0.6059(9) 0.0399(9) -0.3750(5)
C8A C 0.5833(10) 0.0306(8) -0.2870(5)
C9A C 0.4889(11) 0.1008(9) -0.2578(5)
H5A H 0.4377 0.1555 -0.2926
C10A C 0.4703(12) 0.0904(10) -0.1774(6)
H6A H 0.4027 0.1364 -0.1598
C11A C 0.6402(14) -0.0495(12) -0.1519(6)
H7A H 0.6964 -0.0988 -0.1151
C12A C 0.6574(11) -0.0478(11) -0.2320(5)
H8A H 0.7192 -0.0994 -0.2497
C13_2 C -0.1479(12) 0.1672(10) 0.3774(6)
C14_2 C -0.1401(10) 0.2146(9) 0.2898(5)
C15_2 C -0.0571(12) 0.1608(11) 0.2419(6)
H9_2 H 0.0036 0.1016 0.2640
C16_2 C -0.0649(12) 0.1958(11) 0.1605(5)
H10_2 H -0.0094 0.1582 0.1284
C17_2 C -0.2307(13) 0.3319(11) 0.1733(6)
H11_2 H -0.2906 0.3910 0.1501
C18_2 C -0.2295(12) 0.2996(11) 0.2547(5)
H12_2 H -0.2891 0.3356 0.2852
C19A C 1.0311(11) 0.4622(9) 0.5379(5)
N1A N 0.7746(10) 0.4072(9) 0.8798(5)
N2A N 0.5439(10) 0.0180(9) -0.1236(4)
N3_2 N -0.1482(10) 0.2806(9) 0.1266(5)
N3A N 0.1482(10) 0.7194(9) -0.1266(5)
N3_3 N 0.8518(10) 0.2806(9) 1.1266(5)
O5A O 0.5549(7) 0.6367(6) 0.6327(4)
O5A_2 O 0.5549(7) -0.3633(6) -0.3673(4)
O6A O 0.6525(9) 0.4894(6) 0.5770(4)
O6_2 O 0.3475(9) -0.4894(6) -0.5770(4)
O7A O 0.6163(8) -0.0677(6) -0.4112(4)
O8A O 0.6082(8) 0.1534(6) -0.4053(4)
O8A_2 O 0.6082(8) 0.1534(6) 0.5947(4)
O8_2 O 0.3918(8) -0.1534(6) -0.5947(4)
O9A O 1.1968(8) 0.5006(7) 0.5653(4)
O9A_2 O 0.1968(8) -0.4994(7) -0.4347(4)
O10A O 0.9187(7) 0.3653(6) 0.5610(3)
O10_2 O 0.0813(7) -0.3653(6) -0.5610(3)
O11_2 O -0.2592(7) 0.1898(7) 0.4075(4)
O11A O 0.2592(7) -0.1898(7) -0.4075(4)
O12_2 O -0.0403(10) 0.1148(10) 0.4124(5)
O12A O 0.0403(10) -0.1148(10) 0.5876(5)
O12A_2 O 1.0403(10) -0.1148(10) -0.4124(5)
O12_3 O 0.9597(10) 0.1148(10) -0.5876(5)
O13A O 0.6778(7) -0.2530(8) -0.5191(4)
H13A H 0.6543 -0.3421 -0.5210
H14A H 0.7749 -0.2178 -0.4837
O14A O 1.096(3) 0.1952(17) -0.3454(13)
H15A H 1.0459 0.1996 -0.3088
H16A H 1.1971 0.2586 -0.3301
Cl1 Cl 0.7891(3) 0.7482(3) 0.05318(17)
O1 O 0.6264(12) 0.7584(12) 0.0085(6)
O2 O 0.9077(14) 0.7779(17) 0.0009(7)
O3 O 0.7558(18) 0.6022(11) 0.0661(9)
O4 O 0.8651(16) 0.8256(16) 0.1323(8)
loop_
_geom_bond_atom_site_label_1
_geom_bond_atom_site_label_2
_geom_bond_site_symmetry_1
_geom_bond_site_symmetry_2
Cl1 O1 1_555 1_555
O2 Cl1 1_555 1_555
O3 Cl1 1_555 1_555
O4 Cl1 1_555 1_555
Tb1 O5 1_555 1_555
Ag1 O7 1_555 1_555
Ag2 N2 1_555 1_555
Ag3 N1 1_555 1_555
C1 C2 1_555 1_555
C2 C3 1_555 1_555
C3 H1 1_555 1_555
C4 C3 1_555 1_555
H2 C4 1_555 1_555
C5 H3 1_555 1_555
C6 C2 1_555 1_555
H4 C6 1_555 1_555
C7 C8 1_555 1_555
C8 C9 1_555 1_555
C9 H5 1_555 1_555
C10 C9 1_555 1_555
H6 C10 1_555 1_555
C11 H7 1_555 1_555
C12 C8 1_555 1_555
H8 C12 1_555 1_555
C13 C14 1_555 1_555
C14 C15 1_555 1_555
C15 H9 1_555 1_555
C16 C15 1_555 1_555
H10 C16 1_555 1_555
C17 H11 1_555 1_555
C18 C14 1_555 1_555
H12 C18 1_555 1_555
C19 O9 1_555 1_555
N1 C4 1_555 1_555
N2 C10 1_555 1_555
N3 C16 1_555 1_555
O5 C1 1_555 1_555
O6 C1 1_555 1_555
O7 Tb1 1_555 1_555
O8 C7 1_555 1_555
O9 Tb1 1_555 1_555
O10 C19 1_555 1_555
O11 Tb1 1_555 1_555
O12 C13 1_555 1_555
O13 Tb1 1_555 1_555
H13 O13 1_555 1_555
H14 O13 1_555 1_555
O14 Ag1 1_555 1_555
H15 O14 1_555 1_555
H16 O14 1_555 1_555
Tb1A O5A_2 1_555 1_555
Tb1A_2 O6 1_555 1_555
Tb1A_3 O8 1_555 1_555
Tb1A_4 O10 1_555 1_555
Tb1_2 O8A 1_555 1_555
Tb1_3 O11_2 1_555 1_555
Ag1A Ag1_3 1_555 1_555
Ag1A_2 Ag1 1_555 1_555
Ag1_2 O12 1_555 1_555
Ag1A_3 O12 1_555 1_555
Ag1_3 O12A_2 1_555 1_555
Ag3A N1A 1_555 1_555
Ag3A_2 N3 1_555 1_555
Ag3A_3 N3_2 1_555 1_555
C1A C2A 1_555 1_555
C2A C3A 1_555 1_555
C3A H1A 1_555 1_555
C4A C3A 1_555 1_555
H2A C4A 1_555 1_555
C5A H3A 1_555 1_555
C6A C2A 1_555 1_555
H4A C6A 1_555 1_555
C7A C8A 1_555 1_555
C8A C9A 1_555 1_555
C9A H5A 1_555 1_555
C10A C9A 1_555 1_555
H6A C10A 1_555 1_555
C11A H7A 1_555 1_555
C12A C8A 1_555 1_555
H8A C12A 1_555 1_555
C13_2 C14_2 1_555 1_555
C14_2 C15_2 1_555 1_555
C15_2 H9_2 1_555 1_555
C16_2 C15_2 1_555 1_555
H10_2 C16_2 1_555 1_555
C17_2 H11_2 1_555 1_555
C18_2 C14_2 1_555 1_555
H12_2 C18_2 1_555 1_555
C19A C19 1_555 1_555
N1A C4A 1_555 1_555
N2A Ag2 1_555 1_555
N3_2 C16_2 1_555 1_555
N3A Ag3 1_555 1_555
N3_3 Ag3A 1_555 1_555
O5A Tb1A_2 1_555 1_555
O6A Tb1 1_555 1_555
O6_2 Tb1A 1_555 1_555
O7A Tb1A 1_555 1_555
O8A C7A 1_555 1_555
O8A_2 Tb1 1_555 1_555
O8_2 Tb1A 1_555 1_555
O9A Tb1A_4 1_555 1_555
O9A_2 Tb1A 1_555 1_555
O10A Tb1 1_555 1_555
O10_2 Tb1A 1_555 1_555
O11_2 C13_2 1_555 1_555
O11A Tb1A 1_555 1_555
O12_2 Ag1 1_555 1_555
O12A Ag1 1_555 1_555
O12A_2 Ag1A 1_555 1_555
O12_3 Ag1A 1_555 1_555
O13A Tb1A 1_555 1_555
H13A O13A 1_555 1_555
H14A O13A 1_555 1_555
O14A Ag1A 1_555 1_555
H15A O14A 1_555 1_555
H16A O14A 1_555 1_555
C5 C6 1_555 1_555
C5 N1 1_555 1_555
C7 O7 1_555 1_555
C11 C12 1_555 1_555
C11 N2 1_555 1_555
C13 O11 1_555 1_555
C17 C18 1_555 1_555
C17 N3 1_555 1_555
Ag1A O7A 1_555 1_555
Ag1A_2 O12_2 1_555 1_555
Ag1A_2 O12A 1_555 1_555
Ag1_2 Ag1A_3 1_555 1_555
Ag1_3 O12_3 1_555 1_555
C1A O5A 1_555 1_555
C1A O6A 1_555 1_555
C5A C6A 1_555 1_555
C5A N1A 1_555 1_555
C7A O7A 1_555 1_555
C10A N2A 1_555 1_555
C11A C12A 1_555 1_555
C11A N2A 1_555 1_555
C13_2 O12_2 1_555 1_555
C17_2 C18_2 1_555 1_555
C17_2 N3_2 1_555 1_555
C19A O9A 1_555 1_555
C19A O10A 1_555 1_555

#END
