
#######################################################################
#
#                 Cambridge Crystallographic Data Centre
#                                CCDC 
#
#######################################################################
#
# If this CIF has been generated from an entry in the Cambridge 
# Structural Database, then it will include bibliographic, chemical, 
# crystal, experimental, refinement or atomic coordinate data resulting 
# from the CCDC's data processing and validation procedures.
#
#######################################################################

data_KUXWEH
_symmetry_cell_setting           orthorhombic
_symmetry_space_group_name_H-M   'P b c n'
_symmetry_Int_Tables_number      60
_space_group_name_Hall           '-P 2n 2ab'
loop_
_symmetry_equiv_pos_site_id
_symmetry_equiv_pos_as_xyz
1 x,y,z
2 1/2-x,1/2-y,1/2+z
3 1/2+x,1/2-y,-z
4 -x,y,1/2-z
5 -x,-y,-z
6 1/2+x,1/2+y,1/2-z
7 1/2-x,1/2+y,z
8 x,-y,1/2+z
_cell_length_a                   8.4676(18)
_cell_length_b                   9.549(2)
_cell_length_c                   15.570(3)
_cell_angle_alpha                90
_cell_angle_beta                 90
_cell_angle_gamma                90
_cell_volume                     1258.95
loop_
_atom_site_label
_atom_site_type_symbol
_atom_site_fract_x
_atom_site_fract_y
_atom_site_fract_z
Zn1 Zn 0.5000 0.20655(6) 0.2500
P1 P 0.70008(12) 0.20211(10) 0.05412(6)
N1 N 0.1611(4) -0.1262(3) 0.2123(2)
O1 O 0.5807(4) 0.2159(3) 0.12365(19)
C1 C 0.1266(5) -0.0375(4) 0.1486(3)
H1 H 0.0429 -0.0487 0.1095
N2 N 0.3319(4) 0.0513(3) 0.2131(2)
C2 C 0.2865(5) -0.0685(4) 0.2499(2)
H2 H 0.3380 -0.1081 0.2975
N3 N 0.2272(5) 0.0681(4) 0.1486(2)
H3 H 0.2262 0.1377 0.1125
O2 O 0.8063(3) 0.0689(3) 0.0632(2)
H4 H 0.7554 -0.0014 0.0484
O3 O 0.8144(4) 0.3233(3) 0.0477(2)
O4 O 0.6153(4) 0.1876(4) -0.0349(2)
H5 H 0.5182 0.1911 -0.0278
P1C P 0.29992(12) 0.20211(10) 0.44588(6)
N1C N 0.8389(4) -0.1262(3) 0.2877(2)
O1C O 0.4193(4) 0.2159(3) 0.37635(19)
C1C C 0.8734(5) -0.0375(4) 0.3514(3)
H1C H 0.9571 -0.0487 0.3905
N2C N 0.6681(4) 0.0513(3) 0.2869(2)
C2C C 0.7135(5) -0.0685(4) 0.2501(2)
H2C H 0.6620 -0.1081 0.2025
N3C N 0.7728(5) 0.0681(4) 0.3514(2)
H3C H 0.7738 0.1377 0.3875
O2C O 0.1937(3) 0.0689(3) 0.4368(2)
H4C H 0.2446 -0.0014 0.4516
O3C O 0.1856(4) 0.3233(3) 0.4523(2)
O4C O 0.3847(4) 0.1876(4) 0.5349(2)
H5C H 0.4818 0.1911 0.5278
Zn1E Zn 0.0000 -0.29345(6) 0.2500
Zn1E_2 Zn 1.0000 -0.29345(6) 0.2500
N1E N 0.6611(4) 0.3738(3) 0.2877(2)
N1F N 0.3389(4) 0.3738(3) 0.2123(2)
loop_
_geom_bond_atom_site_label_1
_geom_bond_atom_site_label_2
_geom_bond_site_symmetry_1
_geom_bond_site_symmetry_2
Zn1 O1 1_555 1_555
P1 O1 1_555 1_555
N1 C1 1_555 1_555
C1 H1 1_555 1_555
N2 Zn1 1_555 1_555
C2 N1 1_555 1_555
H2 C2 1_555 1_555
N3 C1 1_555 1_555
H3 N3 1_555 1_555
O2 P1 1_555 1_555
H4 O2 1_555 1_555
O3 P1 1_555 1_555
O4 P1 1_555 1_555
H5 O4 1_555 1_555
P1C O1C 1_555 1_555
N1C C1C 1_555 1_555
O1C Zn1 1_555 1_555
C1C H1C 1_555 1_555
N2C Zn1 1_555 1_555
C2C N1C 1_555 1_555
H2C C2C 1_555 1_555
N3C C1C 1_555 1_555
H3C N3C 1_555 1_555
O2C P1C 1_555 1_555
H4C O2C 1_555 1_555
O3C P1C 1_555 1_555
O4C P1C 1_555 1_555
H5C O4C 1_555 1_555
Zn1E N1 1_555 1_555
Zn1E_2 N1C 1_555 1_555
N1E Zn1 1_555 1_555
N1F Zn1 1_555 1_555
N2 C2 1_555 1_555
N2 N3 1_555 1_555
N2C C2C 1_555 1_555
N2C N3C 1_555 1_555

#END
