
#######################################################################
#
#                 Cambridge Crystallographic Data Centre
#                                CCDC 
#
#######################################################################
#
# If this CIF has been generated from an entry in the Cambridge 
# Structural Database, then it will include bibliographic, chemical, 
# crystal, experimental, refinement or atomic coordinate data resulting 
# from the CCDC's data processing and validation procedures.
#
#######################################################################

data_KUXWIK
_symmetry_cell_setting           monoclinic
_symmetry_space_group_name_H-M   'P 21/c'
_symmetry_Int_Tables_number      14
_space_group_name_Hall           '-P 2ybc'
loop_
_symmetry_equiv_pos_site_id
_symmetry_equiv_pos_as_xyz
1 x,y,z
2 -x,1/2+y,1/2-z
3 -x,-y,-z
4 x,1/2-y,1/2+z
_cell_length_a                   7.6815(1)
_cell_length_b                   18.9433(4)
_cell_length_c                   12.1566(2)
_cell_angle_alpha                90
_cell_angle_beta                 106.929(1)
_cell_angle_gamma                90
_cell_volume                     1692.29
loop_
_atom_site_label
_atom_site_type_symbol
_atom_site_fract_x
_atom_site_fract_y
_atom_site_fract_z
Ag1 Ag -0.28765(8) 0.01157(3) 0.52045(5)
C1 C -0.0757(11) 0.1451(3) 0.6393(6)
H1 H -0.0622 0.1184 0.7054
C2 C 0.0093(10) 0.2092(3) 0.6497(6)
H2 H 0.0785 0.2250 0.7215
C3 C -0.0076(8) 0.2501(3) 0.5538(6)
C4 C -0.1169(9) 0.2246(3) 0.4493(6)
H3 H -0.1340 0.2511 0.3825
C5 C -0.2007(10) 0.1590(3) 0.4457(6)
H4 H -0.2757 0.1428 0.3757
C6 C 0.0873(9) 0.3208(3) 0.5599(6)
C7 C -0.3300(10) -0.1467(3) 0.5629(6)
H5 H -0.2700 -0.1331 0.6380
C8 C -0.3854(9) -0.2163(3) 0.5409(6)
H6 H -0.3595 -0.2491 0.6004
C9 C -0.4787(9) -0.2369(3) 0.4308(5)
C10 C -0.5091(10) -0.1866(3) 0.3437(6)
H7 H -0.5707 -0.1985 0.2682
C11 C -0.4464(10) -0.1191(3) 0.3713(6)
H8 H -0.4645 -0.0864 0.3119
C12 C -0.5590(10) -0.3104(3) 0.4037(6)
C13 C 0.3239(9) -0.0195(3) 0.7936(5)
C14 C 0.1252(9) -0.0266(4) 0.7333(6)
H9 H 0.1070 -0.0735 0.6997
H10 H 0.0969 0.0066 0.6699
C15 C -0.0154(9) -0.0167(3) 0.7954(6)
N1 N -0.1777(8) 0.1186(3) 0.5386(5)
N2 N -0.3614(8) -0.0976(3) 0.4774(4)
La1 La 0.28427(5) 0.457194(16) 0.56846(3)
O1 O 0.1934(7) 0.3398(2) 0.6533(4)
O2 O 0.0522(6) 0.3576(2) 0.4692(4)
O3 O -0.4761(6) -0.3598(2) 0.4721(4)
O4 O -0.6956(8) -0.3173(2) 0.3229(5)
O5 O 0.4348(6) -0.0409(2) 0.7447(4)
O6 O 0.3781(6) 0.0090(2) 0.8931(4)
O7 O 0.0332(6) -0.0129(2) 0.9034(3)
O8 O -0.1792(6) -0.0168(2) 0.7391(4)
O9 O 0.3029(6) 0.5908(2) 0.6011(4)
H11 H 0.368(6) 0.607(3) 0.565(5)
H12 H 0.203(4) 0.608(3) 0.570(5)
La1B La -0.28427(5) -0.457194(16) 0.43154(3)
La1A La 0.71573(5) -0.042806(16) 0.93154(3)
La1C La 0.28427(5) 0.042806(16) 1.06846(3)
La1A_2 La -0.28427(5) -0.042806(16) 0.93154(3)
O3B O 0.4761(6) 0.3598(2) 0.5279(4)
O5A O 0.5652(6) 0.4591(2) 0.7553(4)
O6A O 0.6219(6) 0.5090(2) 0.6069(4)
O6C O 0.3781(6) 0.4910(2) 0.3931(4)
O7A O -0.0332(6) 0.4871(2) 0.5966(3)
O7C O 0.0332(6) 0.5129(2) 0.4034(3)
O8A O 0.1792(6) 0.4832(2) 0.7609(4)
loop_
_geom_bond_atom_site_label_1
_geom_bond_atom_site_label_2
_geom_bond_site_symmetry_1
_geom_bond_site_symmetry_2
Ag1 N1 1_555 1_555
C1 H1 1_555 1_555
C2 C1 1_555 1_555
H2 C2 1_555 1_555
C3 C2 1_555 1_555
C4 C3 1_555 1_555
H3 C4 1_555 1_555
C5 C4 1_555 1_555
H4 C5 1_555 1_555
C6 C3 1_555 1_555
C7 H5 1_555 1_555
C8 C7 1_555 1_555
H6 C8 1_555 1_555
C9 C8 1_555 1_555
C10 C9 1_555 1_555
H7 C10 1_555 1_555
C11 C10 1_555 1_555
H8 C11 1_555 1_555
C12 C9 1_555 1_555
C13 C14 1_555 1_555
C14 H9 1_555 1_555
H10 C14 1_555 1_555
C15 C14 1_555 1_555
N1 C1 1_555 1_555
N2 Ag1 1_555 1_555
La1 O1 1_555 1_555
O1 C6 1_555 1_555
O2 C6 1_555 1_555
O3 C12 1_555 1_555
O4 C12 1_555 1_555
O5 C13 1_555 1_555
O6 C13 1_555 1_555
O7 C15 1_555 1_555
O8 Ag1 1_555 1_555
O9 La1 1_555 1_555
H11 O9 1_555 1_555
H12 O9 1_555 1_555
La1B O3 1_555 1_555
La1A O5 1_555 1_555
La1C O6 1_555 1_555
La1A_2 O7 1_555 1_555
O3B La1 1_555 1_555
O5A La1 1_555 1_555
O6A La1 1_555 1_555
O6C La1 1_555 1_555
O7A La1 1_555 1_555
O7C La1 1_555 1_555
O8A La1 1_555 1_555
C5 N1 1_555 1_555
C7 N2 1_555 1_555
C11 N2 1_555 1_555
C15 O8 1_555 1_555
La1 O2 1_555 1_555
O6 La1A 1_555 1_555
O7 La1C 1_555 1_555
O8 La1A_2 1_555 1_555

#END
