
#######################################################################
#
#                 Cambridge Crystallographic Data Centre
#                                CCDC 
#
#######################################################################
#
# If this CIF has been generated from an entry in the Cambridge 
# Structural Database, then it will include bibliographic, chemical, 
# crystal, experimental, refinement or atomic coordinate data resulting 
# from the CCDC's data processing and validation procedures.
#
#######################################################################

data_KUXYUY
_symmetry_cell_setting           monoclinic
_symmetry_space_group_name_H-M   'P c'
_symmetry_Int_Tables_number      7
_space_group_name_Hall           'P -2yc'
loop_
_symmetry_equiv_pos_site_id
_symmetry_equiv_pos_as_xyz
1 x,y,z
2 x,-y,1/2+z
_cell_length_a                   9.887(3)
_cell_length_b                   7.0863(13)
_cell_length_c                   22.737(6)
_cell_angle_alpha                90
_cell_angle_beta                 91.55(2)
_cell_angle_gamma                90
_cell_volume                     1592.42
loop_
_atom_site_label
_atom_site_type_symbol
_atom_site_fract_x
_atom_site_fract_y
_atom_site_fract_z
S1 S 0.97283(9) -0.60820(17) -0.60644(4)
S2 S 0.67916(8) -0.28196(15) -0.31385(4)
S3 S 0.17654(8) -0.33473(16) -0.41106(4)
Na1 Na -0.00305(16) -0.0104(3) -0.32644(8)
O1 O 0.4824(2) -0.6563(4) -0.67901(11)
H1 H 0.5246 -0.6784 -0.7088
O2 O 0.9804(3) -0.6937(5) -0.66361(11)
O3 O 1.0277(2) -0.4216(4) -0.60285(13)
O4 O 1.0253(2) -0.7342(4) -0.55955(11)
O5 O 0.7937(2) -0.1673(4) -0.33000(10)
O6 O 0.7152(3) -0.4662(4) -0.29141(11)
O7 O 0.5885(2) -0.1786(4) -0.27469(9)
O8 O 0.1637(2) -0.2384(4) -0.35589(11)
O9 O 0.1254(3) -0.5285(4) -0.41058(13)
O10 O 0.1240(2) -0.2253(4) -0.46121(10)
C1 C 0.5699(3) -0.6128(6) -0.63438(14)
C2 C 0.7093(4) -0.6282(5) -0.64207(16)
H2 H 0.7437 -0.6667 -0.6778
C3 C 0.7933(3) -0.5847(5) -0.59544(15)
C4 C 0.7486(3) -0.5186(5) -0.54006(14)
C5 C 0.6036(3) -0.5041(5) -0.53477(14)
C6 C 0.5134(3) -0.5517(5) -0.58212(15)
C7 C 0.3712(3) -0.5435(6) -0.57446(15)
H3 H 0.3128 -0.5821 -0.6049
C8 C 0.3204(3) -0.4812(5) -0.52426(14)
H4 H 0.2270 -0.4721 -0.5210
C9 C 0.4061(3) -0.4280(5) -0.47539(15)
C10 C 0.5489(3) -0.4397(5) -0.48033(15)
C11 C 0.6368(3) -0.3897(5) -0.43135(15)
C12 C 0.7809(3) -0.4100(5) -0.43936(15)
H5 H 0.8403 -0.3787 -0.4085
C13 C 0.8322(4) -0.4736(5) -0.49073(16)
H6 H 0.9253 -0.4878 -0.4934
C14 C 0.5822(4) -0.3261(6) -0.37737(15)
C15 C 0.4418(3) -0.3112(5) -0.37532(13)
H7 H 0.4042 -0.2675 -0.3408
C16 C 0.3560(3) -0.3580(5) -0.42174(15)
O11 O -0.0096(3) 0.0992(4) -0.42727(13)
H8 H 0.0342 0.0233 -0.4486
H9 H 0.0256 0.2084 -0.4287
O12 O 0.0936(4) -0.0403(7) -0.23719(15)
H10 H 0.0595 -0.1232 -0.2150
H11 H 0.1526 0.0306 -0.2207
O13 O -0.0439(4) 0.3021(7) -0.31088(19)
H12 H 0.0164 0.3620 -0.2912
H13 H -0.1145 0.3679 -0.3059
Na1_2 Na 0.99695(16) -0.0104(3) -0.32644(8)
O5_2 O -0.2063(2) -0.1673(4) -0.33000(10)
N1 N 0.7247(3) 0.1196(5) -0.13781(14)
N2 N 0.4571(3) -0.1833(5) 0.12803(13)
C17 C 0.8062(4) 0.0824(6) -0.09309(17)
H14 H 0.8991 0.0973 -0.0968
C18 C 0.7558(4) 0.0216(6) -0.04078(16)
H15 H 0.8155 -0.0082 -0.0099
C19 C 0.6176(4) 0.0034(6) -0.03292(15)
C20 C 0.5350(4) 0.0478(6) -0.08100(17)
H16 H 0.4415 0.0400 -0.0779
C21 C 0.5897(4) 0.1041(6) -0.13410(17)
H17 H 0.5335 0.1307 -0.1665
C22 C 0.5645(4) -0.0659(5) 0.02311(16)
C23 C 0.6479(4) -0.1135(5) 0.07059(16)
H18 H 0.7412 -0.1051 0.0669
C24 C 0.5964(4) -0.1731(6) 0.12339(18)
H19 H 0.6537 -0.2054 0.1549
C25 C 0.3766(4) -0.1409(6) 0.08429(18)
H20 H 0.2836 -0.1498 0.0888
C26 C 0.4252(4) -0.0831(6) 0.03142(17)
H21 H 0.3649 -0.0548 0.0006
C27 C 0.7794(5) 0.1793(7) -0.19708(17)
H22 H 0.8744 0.2057 -0.1928
H23 H 0.7328 0.2905 -0.2107
H24 H 0.7656 0.0793 -0.2251
C28 C 0.4078(5) -0.2356(7) 0.18697(17)
H25 H 0.3174 -0.2843 0.1831
H26 H 0.4081 -0.1260 0.2118
H27 H 0.4661 -0.3302 0.2041
O14 O 0.1942(3) -0.0484(4) -0.57664(12)
H28 H 0.1738 -0.0993 -0.5442
H29 H 0.1331 0.0351 -0.5736
O15 O 0.2901(4) -0.7994(7) -0.18174(16)
H30 H 0.2620 -0.8457 -0.1498
H31 H 0.2521 -0.7096 -0.2006
O16 O 0.1609(5) -0.4955(7) -0.2459(2)
H32 H 0.1090 -0.4409 -0.2220
H33 H 0.1621 -0.4251 -0.2761
loop_
_geom_bond_atom_site_label_1
_geom_bond_atom_site_label_2
_geom_bond_site_symmetry_1
_geom_bond_site_symmetry_2
S1 O2 1_555 1_555
S2 O5 1_555 1_555
S3 O8 1_555 1_555
Na1 O8 1_555 1_555
O1 H1 1_555 1_555
O3 S1 1_555 1_555
O4 S1 1_555 1_555
O5 Na1_2 1_555 1_555
O6 S2 1_555 1_555
O7 S2 1_555 1_555
O9 S3 1_555 1_555
O10 S3 1_555 1_555
C1 O1 1_555 1_555
C2 C1 1_555 1_555
H2 C2 1_555 1_555
C3 S1 1_555 1_555
C4 C3 1_555 1_555
C5 C4 1_555 1_555
C6 C1 1_555 1_555
C7 C6 1_555 1_555
H3 C7 1_555 1_555
C8 C7 1_555 1_555
H4 C8 1_555 1_555
C9 C8 1_555 1_555
C10 C5 1_555 1_555
C11 C10 1_555 1_555
C12 C11 1_555 1_555
H5 C12 1_555 1_555
C13 C4 1_555 1_555
H6 C13 1_555 1_555
C14 S2 1_555 1_555
C15 C14 1_555 1_555
H7 C15 1_555 1_555
C16 S3 1_555 1_555
O11 Na1 1_555 1_555
H8 O11 1_555 1_555
H9 O11 1_555 1_555
O12 Na1 1_555 1_555
H10 O12 1_555 1_555
H11 O12 1_555 1_555
O13 Na1 1_555 1_555
H12 O13 1_555 1_555
H13 O13 1_555 1_555
N1 C17 1_555 1_555
N2 C24 1_555 1_555
C17 H14 1_555 1_555
C18 C17 1_555 1_555
H15 C18 1_555 1_555
C19 C18 1_555 1_555
C20 C19 1_555 1_555
H16 C20 1_555 1_555
C21 N1 1_555 1_555
H17 C21 1_555 1_555
C22 C19 1_555 1_555
C23 C22 1_555 1_555
H18 C23 1_555 1_555
C24 C23 1_555 1_555
H19 C24 1_555 1_555
C25 N2 1_555 1_555
H20 C25 1_555 1_555
C26 C22 1_555 1_555
H21 C26 1_555 1_555
C27 N1 1_555 1_555
H22 C27 1_555 1_555
H23 C27 1_555 1_555
H24 C27 1_555 1_555
C28 N2 1_555 1_555
H25 C28 1_555 1_555
H26 C28 1_555 1_555
H27 C28 1_555 1_555
O14 H28 1_555 1_555
H29 O14 1_555 1_555
O15 H30 1_555 1_555
H31 O15 1_555 1_555
O16 H32 1_555 1_555
H33 O16 1_555 1_555
O5_2 Na1 1_555 1_555
C2 C3 1_555 1_555
C5 C6 1_555 1_555
C9 C10 1_555 1_555
C9 C16 1_555 1_555
C11 C14 1_555 1_555
C12 C13 1_555 1_555
C15 C16 1_555 1_555
C20 C21 1_555 1_555
C25 C26 1_555 1_555

#END
