
#######################################################################
#
#                 Cambridge Crystallographic Data Centre
#                                CCDC 
#
#######################################################################
#
# If this CIF has been generated from an entry in the Cambridge 
# Structural Database, then it will include bibliographic, chemical, 
# crystal, experimental, refinement or atomic coordinate data resulting 
# from the CCDC's data processing and validation procedures.
#
#######################################################################

data_KUYDOY
_symmetry_cell_setting           monoclinic
_symmetry_space_group_name_H-M   'P 21/c'
_symmetry_Int_Tables_number      14
_space_group_name_Hall           '-P 2ybc'
loop_
_symmetry_equiv_pos_site_id
_symmetry_equiv_pos_as_xyz
1 x,y,z
2 -x,1/2+y,1/2-z
3 -x,-y,-z
4 x,1/2-y,1/2+z
_cell_length_a                   16.2488(12)
_cell_length_b                   9.1243(7)
_cell_length_c                   17.6597(13)
_cell_angle_alpha                90
_cell_angle_beta                 106.1010(10)
_cell_angle_gamma                90
_cell_volume                     2515.51
loop_
_atom_site_label
_atom_site_type_symbol
_atom_site_fract_x
_atom_site_fract_y
_atom_site_fract_z
Sn1 Sn 0.713719(10) 0.684277(17) 0.636309(10)
O1 O 0.69004(11) 0.47709(18) 0.57420(10)
O2 O 0.67770(12) 0.38360(18) 0.68702(10)
O3 O 0.75097(11) -0.09345(18) 0.70015(10)
N1 N 0.76074(14) 0.1326(2) 0.74976(12)
H1 H 0.7445(18) 0.2220(14) 0.7429(17)
C1 C 0.83515(16) 0.6177(3) 0.71146(15)
C2 C 0.86804(18) 0.6706(3) 0.78784(16)
H2 H 0.8346 0.7352 0.8094
C3 C 0.94956(19) 0.6294(3) 0.83297(18)
H3 H 0.9713 0.6659 0.8851
C4 C 0.99895(18) 0.5356(3) 0.80199(18)
H4 H 1.0549 0.5090 0.8323
C5 C 0.96632(18) 0.4809(3) 0.72680(18)
H5 H 0.9998 0.4160 0.7055
C6 C 0.88493(17) 0.5203(3) 0.68220(16)
H6 H 0.8627 0.4803 0.6309
C7 C 0.71739(17) 0.7899(3) 0.52981(15)
C8 C 0.79231(19) 0.8554(3) 0.52171(17)
H7 H 0.8436 0.8495 0.5636
C9 C 0.7924(2) 0.9291(3) 0.45295(18)
H8 H 0.8441 0.9712 0.4479
C10 C 0.7182(2) 0.9418(3) 0.39173(17)
H9 H 0.7187 0.9930 0.3450
C11 C 0.6436(2) 0.8797(3) 0.39911(17)
H10 H 0.5922 0.8888 0.3575
C12 C 0.64319(19) 0.8035(3) 0.46733(17)
H11 H 0.5915 0.7601 0.4714
C13 C 0.59173(17) 0.7011(3) 0.65848(15)
C14 C 0.52338(17) 0.6196(3) 0.61153(16)
H12 H 0.5331 0.5557 0.5724
C15 C 0.44184(17) 0.6309(3) 0.62125(17)
H13 H 0.3962 0.5747 0.5891
C16 C 0.42711(18) 0.7244(3) 0.67808(18)
H14 H 0.3713 0.7320 0.6848
C17 C 0.49320(19) 0.8064(3) 0.72480(18)
H15 H 0.4829 0.8708 0.7634
C18 C 0.57512(17) 0.7944(3) 0.71517(16)
H16 H 0.6205 0.8507 0.7477
C19 C 0.68113(16) 0.3687(3) 0.61824(15)
C20 C 0.67628(18) 0.2192(3) 0.57931(16)
H17 H 0.7324 0.1979 0.5700
H18 H 0.6332 0.2238 0.5273
C21 C 0.65302(16) 0.0911(3) 0.62635(15)
H19 H 0.6050 0.1222 0.6470
H20 H 0.6324 0.0082 0.5898
C22 C 0.72532(16) 0.0370(3) 0.69461(15)
C23 C 0.82697(16) 0.0973(3) 0.82208(14)
H21 H 0.8668 0.0238 0.8094
C24 C 0.87745(18) 0.2358(3) 0.85281(15)
H22 H 0.9053 0.2719 0.8132
H23 H 0.8377 0.3127 0.8608
C25 C 0.94531(18) 0.2078(3) 0.93013(16)
H24 H 0.9733 0.3016 0.9508
H25 H 0.9897 0.1416 0.9206
C26 C 0.90676(18) 0.1391(3) 0.99144(16)
H26 H 0.8679 0.2104 1.0062
H27 H 0.9532 0.1151 1.0394
C27 C 0.85695(18) -0.0001(3) 0.95937(15)
H28 H 0.8968 -0.0749 0.9495
H29 H 0.8302 -0.0398 0.9990
C28 C 0.78805(16) 0.0314(3) 0.88344(15)
H30 H 0.7456 0.1005 0.8942
H31 H 0.7579 -0.0606 0.8628
Sn1_2 Sn 0.713719(10) -0.315723(17) 0.636309(10)
O3_2 O 0.75097(11) 0.90655(18) 0.70015(10)
loop_
_geom_bond_atom_site_label_1
_geom_bond_atom_site_label_2
_geom_bond_site_symmetry_1
_geom_bond_site_symmetry_2
Sn1 O1 1_555 1_555
O1 C19 1_555 1_555
O2 C19 1_555 1_555
O3 C22 1_555 1_555
N1 H1 1_555 1_555
C1 Sn1 1_555 1_555
C2 C1 1_555 1_555
H2 C2 1_555 1_555
C3 C2 1_555 1_555
H3 C3 1_555 1_555
C4 C3 1_555 1_555
H4 C4 1_555 1_555
C5 C4 1_555 1_555
H5 C5 1_555 1_555
C6 C1 1_555 1_555
H6 C6 1_555 1_555
C7 Sn1 1_555 1_555
C8 C7 1_555 1_555
H7 C8 1_555 1_555
C9 C8 1_555 1_555
H8 C9 1_555 1_555
C10 C9 1_555 1_555
H9 C10 1_555 1_555
C11 C10 1_555 1_555
H10 C11 1_555 1_555
C12 C7 1_555 1_555
H11 C12 1_555 1_555
C13 Sn1 1_555 1_555
C14 C13 1_555 1_555
H12 C14 1_555 1_555
C15 C14 1_555 1_555
H13 C15 1_555 1_555
C16 C15 1_555 1_555
H14 C16 1_555 1_555
C17 C16 1_555 1_555
H15 C17 1_555 1_555
C18 C13 1_555 1_555
H16 C18 1_555 1_555
C19 C20 1_555 1_555
C20 H17 1_555 1_555
H18 C20 1_555 1_555
C21 C20 1_555 1_555
H19 C21 1_555 1_555
H20 C21 1_555 1_555
C22 N1 1_555 1_555
C23 N1 1_555 1_555
H21 C23 1_555 1_555
C24 C23 1_555 1_555
H22 C24 1_555 1_555
H23 C24 1_555 1_555
C25 C24 1_555 1_555
H24 C25 1_555 1_555
H25 C25 1_555 1_555
C26 C25 1_555 1_555
H26 C26 1_555 1_555
H27 C26 1_555 1_555
C27 C26 1_555 1_555
H28 C27 1_555 1_555
H29 C27 1_555 1_555
C28 C23 1_555 1_555
H30 C28 1_555 1_555
H31 C28 1_555 1_555
Sn1_2 O3 1_555 1_555
O3_2 Sn1 1_555 1_555
C5 C6 1_555 1_555
C11 C12 1_555 1_555
C17 C18 1_555 1_555
C21 C22 1_555 1_555
C27 C28 1_555 1_555

#END
