
#######################################################################
#
#                 Cambridge Crystallographic Data Centre
#                                CCDC 
#
#######################################################################
#
# If this CIF has been generated from an entry in the Cambridge 
# Structural Database, then it will include bibliographic, chemical, 
# crystal, experimental, refinement or atomic coordinate data resulting 
# from the CCDC's data processing and validation procedures.
#
#######################################################################

data_KUYHAO
_symmetry_cell_setting           monoclinic
_symmetry_space_group_name_H-M   'C 2/c'
_symmetry_Int_Tables_number      15
_space_group_name_Hall           '-C 2yn'
loop_
_symmetry_equiv_pos_site_id
_symmetry_equiv_pos_as_xyz
1 x,y,z
2 -x,y,1/2-z
3 1/2+x,1/2+y,z
4 1/2-x,1/2+y,1/2-z
5 -x,-y,-z
6 x,-y,1/2+z
7 1/2-x,1/2-y,-z
8 1/2+x,1/2-y,1/2+z
_cell_length_a                   15.363(4)
_cell_length_b                   6.0888(12)
_cell_length_c                   21.896(6)
_cell_angle_alpha                90
_cell_angle_beta                 103.67(3)
_cell_angle_gamma                90
_cell_volume                     1990.18
loop_
_atom_site_label
_atom_site_type_symbol
_atom_site_fract_x
_atom_site_fract_y
_atom_site_fract_z
Cu1 Cu 0.0000 1.02668(15) 0.2500
O1 O -0.0864(2) 1.0271(7) 0.16798(16)
O2 O -0.0691(3) 0.6662(7) 0.15674(17)
O3 O -0.1479(3) 0.6794(7) 0.03254(17)
C1 C -0.0948(4) 0.8473(11) 0.1365(2)
C2 C -0.1406(4) 0.8781(10) 0.0675(2)
H1 H -0.2001 0.9377 0.0643
H2 H -0.1070 0.9840 0.0493
C3 C -0.0715(4) 0.5975(10) 0.0191(2)
C4 C 0.0125(4) 0.6894(10) 0.0344(3)
H3 H 0.0218 0.8182 0.0579
C5 C -0.0824(4) 0.4048(10) -0.0158(3)
H4 H -0.1385 0.3387 -0.0266
N1 N 0.0988(3) 0.9911(8) 0.20420(18)
C6 C 0.1565(4) 0.8241(10) 0.2156(3)
H5 H 0.1512 0.7228 0.2463
C7 C 0.2226(4) 0.7939(11) 0.1847(3)
H6 H 0.2605 0.6731 0.1937
C8 C 0.2327(4) 0.9417(13) 0.1405(3)
H7 H 0.2787 0.9270 0.1198
C9 C 0.1732(5) 1.1140(12) 0.1271(3)
H8 H 0.1771 1.2156 0.0962
C10 C 0.1086(4) 1.1333(10) 0.1598(3)
H9 H 0.0693 1.2514 0.1508
O4 O 0.0000 1.3867(10) 0.2500
H10 H 0.023(5) 1.463(10) 0.280(3)
Cu1D Cu 0.0000 -0.02668(15) -0.2500
O1D O 0.0864(2) -0.0271(7) -0.16798(16)
O1A O 0.0864(2) 1.0271(7) 0.33202(16)
O2D O 0.0691(3) 0.3338(7) -0.15674(17)
O3D O 0.1479(3) 0.3206(7) -0.03254(17)
C1D C 0.0948(4) 0.1527(11) -0.1365(2)
C2D C 0.1406(4) 0.1219(10) -0.0675(2)
H1D H 0.2001 0.0623 -0.0643
H2D H 0.1070 0.0160 -0.0493
C3D C 0.0715(4) 0.4025(10) -0.0191(2)
C4D C -0.0125(4) 0.3106(10) -0.0344(3)
H3D H -0.0218 0.1818 -0.0579
C5D C 0.0824(4) 0.5952(10) 0.0158(3)
H4D H 0.1385 0.6613 0.0266
N1A N -0.0988(3) 0.9911(8) 0.29580(18)
C6A C -0.1565(4) 0.8241(10) 0.2844(3)
H5A H -0.1512 0.7228 0.2537
C7A C -0.2226(4) 0.7939(11) 0.3153(3)
H6A H -0.2605 0.6731 0.3063
C8A C -0.2327(4) 0.9417(13) 0.3595(3)
H7A H -0.2787 0.9270 0.3802
C9A C -0.1732(5) 1.1140(12) 0.3729(3)
H8A H -0.1771 1.2156 0.4038
C10A C -0.1086(4) 1.1333(10) 0.3402(3)
H9A H -0.0693 1.2514 0.3492
H10A H -0.023(5) 1.463(10) 0.220(3)
loop_
_geom_bond_atom_site_label_1
_geom_bond_atom_site_label_2
_geom_bond_site_symmetry_1
_geom_bond_site_symmetry_2
Cu1 O1 1_555 1_555
O1 C1 1_555 1_555
O2 C1 1_555 1_555
O3 C2 1_555 1_555
C1 C2 1_555 1_555
C2 H1 1_555 1_555
H2 C2 1_555 1_555
C3 O3 1_555 1_555
C4 C3 1_555 1_555
H3 C4 1_555 1_555
C5 C3 1_555 1_555
H4 C5 1_555 1_555
N1 Cu1 1_555 1_555
C6 N1 1_555 1_555
H5 C6 1_555 1_555
C7 C6 1_555 1_555
H6 C7 1_555 1_555
C8 C7 1_555 1_555
H7 C8 1_555 1_555
C9 C8 1_555 1_555
H8 C9 1_555 1_555
C10 N1 1_555 1_555
H9 C10 1_555 1_555
O4 Cu1 1_555 1_555
H10 O4 1_555 1_555
Cu1D O1D 1_555 1_555
O1D C1D 1_555 1_555
O1A Cu1 1_555 1_555
O2D C1D 1_555 1_555
O3D C2D 1_555 1_555
C1D C2D 1_555 1_555
C2D H1D 1_555 1_555
H2D C2D 1_555 1_555
C3D O3D 1_555 1_555
C4D C5 1_555 1_555
H3D C4D 1_555 1_555
C5D C4 1_555 1_555
H4D C5D 1_555 1_555
N1A Cu1 1_555 1_555
C6A N1A 1_555 1_555
H5A C6A 1_555 1_555
C7A C6A 1_555 1_555
H6A C7A 1_555 1_555
C8A C7A 1_555 1_555
H7A C8A 1_555 1_555
C9A C8A 1_555 1_555
H8A C9A 1_555 1_555
C10A N1A 1_555 1_555
H9A C10A 1_555 1_555
H10A O4 1_555 1_555
C9 C10 1_555 1_555
C3D C4D 1_555 1_555
C3D C5D 1_555 1_555
C9A C10A 1_555 1_555

#END
