
#######################################################################
#
#                 Cambridge Crystallographic Data Centre
#                                CCDC 
#
#######################################################################
#
# If this CIF has been generated from an entry in the Cambridge 
# Structural Database, then it will include bibliographic, chemical, 
# crystal, experimental, refinement or atomic coordinate data resulting 
# from the CCDC's data processing and validation procedures.
#
#######################################################################

data_KUYHOC
_symmetry_cell_setting           triclinic
_symmetry_space_group_name_H-M   'P -1'
_symmetry_Int_Tables_number      2
_space_group_name_Hall           '-P 1'
loop_
_symmetry_equiv_pos_site_id
_symmetry_equiv_pos_as_xyz
1 x,y,z
2 -x,-y,-z
_cell_length_a                   11.3636(15)
_cell_length_b                   11.4119(15)
_cell_length_c                   11.9918(15)
_cell_angle_alpha                63.528(2)
_cell_angle_beta                 89.335(2)
_cell_angle_gamma                65.811(2)
_cell_volume                     1241.66
loop_
_atom_site_label
_atom_site_type_symbol
_atom_site_fract_x
_atom_site_fract_y
_atom_site_fract_z
Ag1 Ag 0.46248(3) 0.12904(3) 0.32515(3)
N1 N 0.2537(4) 0.4313(4) 0.2939(3)
N2 N 0.1692(4) 0.2838(4) 0.3325(3)
N3 N 0.2430(3) 1.0310(4) -0.3191(3)
N4 N 0.3348(4) 1.1721(4) -0.3546(3)
C1 C 0.3370(5) 0.5534(5) 0.0323(4)
H1 H 0.3746 0.4529 0.0615
C2 C 0.3085(5) 0.6488(5) -0.0971(4)
H2 H 0.3260 0.6117 -0.1538
C3 C 0.2540(4) 0.7998(5) -0.1432(4)
C4 C 0.2269(5) 0.8525(5) -0.0564(4)
H3 H 0.1903 0.9529 -0.0855
C5 C 0.2544(5) 0.7555(5) 0.0743(4)
H4 H 0.2349 0.7922 0.1311
C6 C 0.3102(4) 0.6055(4) 0.1198(4)
C7 C 0.3438(5) 0.4986(5) 0.2612(4)
H5 H 0.4339 0.4226 0.2846
H6 H 0.3375 0.5499 0.3090
C8 C 0.2850(4) 0.2935(4) 0.3183(3)
C9 C 0.1215(5) 0.5068(5) 0.2917(4)
H7 H 0.0778 0.6033 0.2761
C10 C 0.0679(5) 0.4132(5) 0.3166(4)
H8 H -0.0192 0.4324 0.3219
C11 C 0.1508(5) 0.1543(5) 0.3571(4)
H9 H 0.0978 0.1383 0.4212
H10 H 0.2362 0.0685 0.3908
C12 C 0.0843(5) 0.1712(5) 0.2381(4)
H11 H -0.0006 0.2576 0.2044
H12 H 0.0682 0.0869 0.2616
C13 C 0.1641(5) 0.1852(6) 0.1332(5)
H13 H 0.1737 0.2743 0.1038
H14 H 0.2516 0.1027 0.1680
C14 C 0.0986(7) 0.1891(8) 0.0216(6)
H15 H 0.1528 0.1942 -0.0407
H16 H 0.0139 0.2737 -0.0160
H17 H 0.0874 0.1019 0.0506
C15 C 0.2246(4) 0.9007(5) -0.2858(4)
H18 H 0.2817 0.8464 -0.3245
H19 H 0.1342 0.9315 -0.3213
C16 C 0.3620(4) 1.0335(5) -0.3299(4)
C17 C 0.1448(4) 1.1638(5) -0.3387(4)
H20 H 0.0565 1.1870 -0.3363
C18 C 0.2016(4) 1.2543(5) -0.3621(4)
H21 H 0.1600 1.3516 -0.3796
C19 C 0.4337(5) 1.2264(5) -0.3649(4)
H22 H 0.4153 1.3055 -0.4508
H23 H 0.5203 1.1479 -0.3498
C20 C 0.4346(6) 1.2817(6) -0.2701(5)
H24 H 0.5015 1.3158 -0.2814
H25 H 0.3500 1.3657 -0.2911
C21 C 0.4601(6) 1.1718(6) -0.1314(5)
H26 H 0.5518 1.0988 -0.1039
H27 H 0.4060 1.1219 -0.1217
C22 C 0.4300(6) 1.2429(6) -0.0469(5)
H28 H 0.4439 1.1698 0.0396
H29 H 0.3398 1.3169 -0.0748
H30 H 0.4872 1.2871 -0.0519
Ag1A Ag 0.53752(3) 0.87096(3) -0.32515(3)
C16A C 0.6380(4) -0.0335(5) 0.3299(4)
P1 P 0.76781(11) 0.28501(11) 0.51153(10)
F1 F 0.8121(5) 0.2072(4) 0.6636(3)
F2 F 0.6958(3) 0.1871(4) 0.5238(4)
F3 F 0.7303(4) 0.3610(3) 0.3605(3)
F4 F 0.8417(3) 0.3835(3) 0.4983(3)
F5 F 0.6356(3) 0.4085(3) 0.5124(3)
F6 F 0.9021(3) 0.1590(3) 0.5128(3)
loop_
_geom_bond_atom_site_label_1
_geom_bond_atom_site_label_2
_geom_bond_site_symmetry_1
_geom_bond_site_symmetry_2
Ag1 C8 1_555 1_555
N1 C7 1_555 1_555
N2 C8 1_555 1_555
N3 C15 1_555 1_555
N4 C16 1_555 1_555
C1 H1 1_555 1_555
C2 C1 1_555 1_555
H2 C2 1_555 1_555
C3 C2 1_555 1_555
C4 C3 1_555 1_555
H3 C4 1_555 1_555
C5 C4 1_555 1_555
H4 C5 1_555 1_555
C6 C1 1_555 1_555
C7 C6 1_555 1_555
H5 C7 1_555 1_555
H6 C7 1_555 1_555
C8 N1 1_555 1_555
C9 N1 1_555 1_555
H7 C9 1_555 1_555
C10 N2 1_555 1_555
H8 C10 1_555 1_555
C11 N2 1_555 1_555
H9 C11 1_555 1_555
H10 C11 1_555 1_555
C12 C11 1_555 1_555
H11 C12 1_555 1_555
H12 C12 1_555 1_555
C13 C12 1_555 1_555
H13 C13 1_555 1_555
H14 C13 1_555 1_555
C14 C13 1_555 1_555
H15 C14 1_555 1_555
H16 C14 1_555 1_555
H17 C14 1_555 1_555
C15 C3 1_555 1_555
H18 C15 1_555 1_555
H19 C15 1_555 1_555
C16 N3 1_555 1_555
C17 N3 1_555 1_555
H20 C17 1_555 1_555
C18 N4 1_555 1_555
H21 C18 1_555 1_555
C19 N4 1_555 1_555
H22 C19 1_555 1_555
H23 C19 1_555 1_555
C20 C19 1_555 1_555
H24 C20 1_555 1_555
H25 C20 1_555 1_555
C21 C20 1_555 1_555
H26 C21 1_555 1_555
H27 C21 1_555 1_555
C22 C21 1_555 1_555
H28 C22 1_555 1_555
H29 C22 1_555 1_555
H30 C22 1_555 1_555
P1 F1 1_555 1_555
F2 P1 1_555 1_555
F3 P1 1_555 1_555
F4 P1 1_555 1_555
F5 P1 1_555 1_555
F6 P1 1_555 1_555
Ag1A C16 1_555 1_555
C16A Ag1 1_555 1_555
C5 C6 1_555 1_555
C9 C10 1_555 1_555
C17 C18 1_555 1_555

#END
