
#######################################################################
#
#                 Cambridge Crystallographic Data Centre
#                                CCDC 
#
#######################################################################
#
# If this CIF has been generated from an entry in the Cambridge 
# Structural Database, then it will include bibliographic, chemical, 
# crystal, experimental, refinement or atomic coordinate data resulting 
# from the CCDC's data processing and validation procedures.
#
#######################################################################

data_KUYKOF
_symmetry_cell_setting           monoclinic
_symmetry_space_group_name_H-M   'C 2/c'
_symmetry_Int_Tables_number      15
_space_group_name_Hall           '-C 2yn'
loop_
_symmetry_equiv_pos_site_id
_symmetry_equiv_pos_as_xyz
1 x,y,z
2 -x,y,1/2-z
3 1/2+x,1/2+y,z
4 1/2-x,1/2+y,1/2-z
5 -x,-y,-z
6 x,-y,1/2+z
7 1/2-x,1/2-y,-z
8 1/2+x,1/2-y,1/2+z
_cell_length_a                   13.3280(8)
_cell_length_b                   17.1434(11)
_cell_length_c                   10.7390(7)
_cell_angle_alpha                90
_cell_angle_beta                 108.4810(10)
_cell_angle_gamma                90
_cell_volume                     2327.18
loop_
_atom_site_label
_atom_site_type_symbol
_atom_site_fract_x
_atom_site_fract_y
_atom_site_fract_z
Cu1 Cu 0.0000 0.0000 0.0000
O1 O 0.07772(9) 0.07930(7) -0.06903(12)
N1 N -0.12716(11) 0.06855(8) -0.04454(14)
O2 O 0.10913(11) 0.10867(8) 0.14011(13)
C1 C 0.12054(13) 0.12134(9) 0.03160(17)
C2 C 0.18792(13) 0.18884(9) 0.01433(16)
C3 C 0.13967(13) 0.25988(10) -0.03235(17)
C4 C 0.29738(13) 0.17762(10) 0.04732(17)
C5 C -0.17376(16) 0.08364(12) 0.0463(2)
H1 H -0.1455 0.0619 0.1294
C6 C -0.16747(16) 0.10076(13) -0.1635(2)
H2 H -0.1352 0.0910 -0.2270
C7 C 0.02162(15) 0.26957(12) -0.0624(2)
H3 H -0.0085 0.2213 -0.0462
H4 H -0.0097 0.2840 -0.1528
H5 H 0.0081 0.3096 -0.0073
C8 C 0.34512(16) 0.09915(12) 0.0956(3)
H6 H 0.2904 0.0640 0.1001
H7 H 0.3961 0.1048 0.1813
H8 H 0.3793 0.0788 0.0361
C9 C -0.3036(2) 0.16249(18) -0.1002(3)
H9 H -0.3636 0.1938 -0.1193
C10 C -0.2619(2) 0.13013(15) 0.0210(3)
H10 H -0.2928 0.1394 0.0861
C11 C -0.2556(2) 0.14817(16) -0.1942(2)
H11 H -0.2823 0.1702 -0.2774
Cu1B Cu 0.5000 0.5000 0.0000
O1F O 0.42228(9) 0.42070(7) 0.06903(12)
O1D O -0.07772(9) -0.07930(7) 0.06903(12)
N1D N 0.12716(11) -0.06855(8) 0.04454(14)
O2F O 0.39087(11) 0.39133(8) -0.14011(13)
C1F C 0.37946(13) 0.37866(9) -0.03160(17)
C2F C 0.31208(13) 0.31116(9) -0.01433(16)
C3F C 0.36033(13) 0.24012(10) 0.03235(17)
C4F C 0.20262(13) 0.32238(10) -0.04732(17)
C5D C 0.17376(16) -0.08364(12) -0.0463(2)
H1D H 0.1455 -0.0619 -0.1294
C6D C 0.16747(16) -0.10076(13) 0.1635(2)
H2D H 0.1352 -0.0910 0.2270
C7F C 0.47838(15) 0.23043(12) 0.0624(2)
H3F H 0.5085 0.2787 0.0462
H4F H 0.5097 0.2160 0.1528
H5F H 0.4919 0.1904 0.0073
C8F C 0.15488(16) 0.40085(12) -0.0956(3)
H6F H 0.2096 0.4360 -0.1001
H7F H 0.1039 0.3952 -0.1813
H8F H 0.1207 0.4212 -0.0361
C9D C 0.3036(2) -0.16249(18) 0.1002(3)
H9D H 0.3636 -0.1938 0.1193
C10D C 0.2619(2) -0.13013(15) -0.0210(3)
H10D H 0.2928 -0.1394 -0.0861
C11D C 0.2556(2) -0.14817(16) 0.1942(2)
H11D H 0.2823 -0.1702 0.2774
O3 O 0.0000 0.21858(15) 0.2500
H12 H 0.040(2) 0.1861(19) 0.216(3)
H12A H -0.040(2) 0.1861(19) 0.284(3)
loop_
_geom_bond_atom_site_label_1
_geom_bond_atom_site_label_2
_geom_bond_site_symmetry_1
_geom_bond_site_symmetry_2
Cu1 O1 1_555 1_555
O1 C1 1_555 1_555
N1 Cu1 1_555 1_555
O2 C1 1_555 1_555
C1 C2 1_555 1_555
C2 C3 1_555 1_555
C3 C7 1_555 1_555
C4 C2 1_555 1_555
C5 N1 1_555 1_555
H1 C5 1_555 1_555
C6 N1 1_555 1_555
H2 C6 1_555 1_555
C7 H3 1_555 1_555
H4 C7 1_555 1_555
H5 C7 1_555 1_555
C8 C4 1_555 1_555
H6 C8 1_555 1_555
H7 C8 1_555 1_555
H8 C8 1_555 1_555
C9 H9 1_555 1_555
C10 C5 1_555 1_555
H10 C10 1_555 1_555
C11 C6 1_555 1_555
H11 C11 1_555 1_555
O3 H12 1_555 1_555
Cu1B O1F 1_555 1_555
O1F C1F 1_555 1_555
O1D Cu1 1_555 1_555
N1D Cu1 1_555 1_555
O2F C1F 1_555 1_555
C1F C2F 1_555 1_555
C2F C3F 1_555 1_555
C3F C4 1_555 1_555
C4F C3 1_555 1_555
C5D N1D 1_555 1_555
H1D C5D 1_555 1_555
C6D N1D 1_555 1_555
H2D C6D 1_555 1_555
C7F C3F 1_555 1_555
H3F C7F 1_555 1_555
H4F C7F 1_555 1_555
H5F C7F 1_555 1_555
C8F C4F 1_555 1_555
H6F C8F 1_555 1_555
H7F C8F 1_555 1_555
H8F C8F 1_555 1_555
C9D H9D 1_555 1_555
C10D C5D 1_555 1_555
H10D C10D 1_555 1_555
C11D C6D 1_555 1_555
H11D C11D 1_555 1_555
H12A O3 1_555 1_555
C9 C10 1_555 1_555
C9 C11 1_555 1_555
C2F C4F 1_555 1_555
C9D C10D 1_555 1_555
C9D C11D 1_555 1_555

#END
