
#######################################################################
#
#                 Cambridge Crystallographic Data Centre
#                                CCDC 
#
#######################################################################
#
# If this CIF has been generated from an entry in the Cambridge 
# Structural Database, then it will include bibliographic, chemical, 
# crystal, experimental, refinement or atomic coordinate data resulting 
# from the CCDC's data processing and validation procedures.
#
#######################################################################

data_KUYKIZ
_symmetry_cell_setting           rhombohedral
_symmetry_space_group_name_H-M   'R -3'
_symmetry_Int_Tables_number      148
_space_group_name_Hall           '-R 3'
loop_
_symmetry_equiv_pos_site_id
_symmetry_equiv_pos_as_xyz
1 x,y,z
2 -y,x-y,z
3 -x+y,-x,z
4 2/3+x,1/3+y,1/3+z
5 2/3-y,1/3+x-y,1/3+z
6 2/3-x+y,1/3-x,1/3+z
7 1/3+x,2/3+y,2/3+z
8 1/3-y,2/3+x-y,2/3+z
9 1/3-x+y,2/3-x,2/3+z
10 -x,-y,-z
11 y,-x+y,-z
12 x-y,x,-z
13 1/3-x,2/3-y,2/3-z
14 1/3+y,2/3-x+y,2/3-z
15 1/3+x-y,2/3+x,2/3-z
16 2/3-x,1/3-y,1/3-z
17 2/3+y,1/3-x+y,1/3-z
18 2/3+x-y,1/3+x,1/3-z
_cell_length_a                   14.1407(3)
_cell_length_b                   14.1407(3)
_cell_length_c                   18.0629(5)
_cell_angle_alpha                90
_cell_angle_beta                 90
_cell_angle_gamma                120
_cell_volume                     3127.95
loop_
_atom_site_label
_atom_site_type_symbol
_atom_site_fract_x
_atom_site_fract_y
_atom_site_fract_z
Ho1 Ho 0.0000 0.0000 0.754297(13)
O1 O -0.1198(2) -0.12391(19) 0.66415(13)
O2 O -0.00678(19) -0.17736(19) 0.75023(13)
O3 O 0.1248(2) -0.0026(2) 0.84201(15)
C1 C -0.1492(2) -0.2252(2) 0.66312(19)
C2 C -0.2332(2) -0.3039(2) 0.6206(2)
C3 C -0.0802(2) -0.2555(2) 0.71218(18)
H1 H -0.2770 -0.2850 0.5912
Ho1O Ho -0.3333 -0.6667 0.579036(13)
Ho1O_2 Ho 0.6667 0.3333 0.579036(13)
Ho1O_3 Ho -0.3333 0.3333 0.579036(13)
O1O O -0.2135(2) -0.54276(19) 0.66918(13)
O1A O 0.12391(19) 0.00411(28) 0.66415(13)
O1P O 0.54276(19) 0.32922(28) 0.66918(13)
O1B O -0.00411(28) 0.1198(2) 0.66415(13)
O1Q O -0.32922(28) 0.2135(2) 0.66918(13)
O1P_2 O -0.45724(19) -0.67078(28) 0.66918(13)
O1Q_2 O -0.32922(28) -0.7865(2) 0.66918(13)
O2O O -0.32655(19) -0.48931(19) 0.58310(13)
O2A O 0.17736(19) 0.17058(27) 0.75023(13)
O2P O 0.48931(19) 0.16275(27) 0.58310(13)
O2B O -0.17058(27) 0.00678(19) 0.75023(13)
O2Q O -0.16275(27) 0.32655(19) 0.58310(13)
O2P_2 O -0.51069(19) -0.83725(27) 0.58310(13)
O2Q_2 O -0.16275(27) -0.67345(19) 0.58310(13)
O3A O 0.0026(2) 0.1274(3) 0.84201(15)
O3B O -0.1274(3) -0.1248(2) 0.84201(15)
O3O O -0.4581(2) -0.6641(2) 0.49132(15)
O3P O -0.3359(2) -0.7941(3) 0.49132(15)
O3Q O -0.2059(3) -0.5419(2) 0.49132(15)
C1O C -0.1841(2) -0.4415(2) 0.67021(19)
C1A C 0.2252(2) 0.0760(3) 0.66312(19)
C1P C 0.4415(2) 0.2573(3) 0.67021(19)
C1B C -0.0760(3) 0.1492(2) 0.66312(19)
C1Q C -0.2573(3) 0.1841(2) 0.67021(19)
C2O C -0.1001(2) -0.3628(2) 0.7127(2)
C2A C 0.3039(2) 0.0707(3) 0.6206(2)
C2P C 0.3628(2) 0.2626(3) 0.7127(2)
C2B C -0.0707(3) 0.2332(2) 0.6206(2)
C2Q C -0.2626(3) 0.1001(2) 0.7127(2)
C3O C -0.2531(2) -0.4112(2) 0.62115(18)
C3A C 0.2555(2) 0.1753(3) 0.71218(18)
C3P C 0.4112(2) 0.1580(3) 0.62115(18)
C3B C -0.1753(3) 0.0802(2) 0.71218(18)
C3Q C -0.1580(3) 0.2531(2) 0.62115(18)
H1O H -0.0563 -0.3817 0.7421
H1A H 0.2850 0.0080 0.5912
H1P H 0.3817 0.3253 0.7421
H1B H -0.0080 0.2770 0.5912
H1Q H -0.3253 0.0563 0.7421
O4 O 0.1390(2) -0.1541(2) 0.93023(18)
O5 O 0.2672(2) 0.1817(2) 0.92192(19)
O6 O -0.1882(2) -0.0598(2) 0.54192(17)
loop_
_geom_bond_atom_site_label_1
_geom_bond_atom_site_label_2
_geom_bond_site_symmetry_1
_geom_bond_site_symmetry_2
Ho1 O1 1_555 1_555
O1 C1 1_555 1_555
O2 Ho1 1_555 1_555
O3 Ho1 1_555 1_555
C1 C2 1_555 1_555
C2 H1 1_555 1_555
C3 O2 1_555 1_555
Ho1O O1O 1_555 1_555
Ho1O_2 O1P 1_555 1_555
Ho1O_3 O1Q 1_555 1_555
O1O C1O 1_555 1_555
O1A Ho1 1_555 1_555
O1P C1P 1_555 1_555
O1B Ho1 1_555 1_555
O1Q C1Q 1_555 1_555
O1P_2 Ho1O 1_555 1_555
O1Q_2 Ho1O 1_555 1_555
O2O Ho1O 1_555 1_555
O2A Ho1 1_555 1_555
O2P Ho1O_2 1_555 1_555
O2B Ho1 1_555 1_555
O2Q Ho1O_3 1_555 1_555
O2P_2 Ho1O 1_555 1_555
O2Q_2 Ho1O 1_555 1_555
O3A Ho1 1_555 1_555
O3B Ho1 1_555 1_555
O3O Ho1O 1_555 1_555
O3P Ho1O 1_555 1_555
O3Q Ho1O 1_555 1_555
C1O C2O 1_555 1_555
C1A O1A 1_555 1_555
C1P C2P 1_555 1_555
C1B O1B 1_555 1_555
C1Q C2Q 1_555 1_555
C2O C3 1_555 1_555
C2A C1A 1_555 1_555
C2P C3A 1_555 1_555
C2B C1B 1_555 1_555
C2Q C3B 1_555 1_555
C3O C2 1_555 1_555
C3A O2A 1_555 1_555
C3P O2P 1_555 1_555
C3B O2B 1_555 1_555
C3Q O2Q 1_555 1_555
H1O C2O 1_555 1_555
H1A C2A 1_555 1_555
H1P C2P 1_555 1_555
H1B C2B 1_555 1_555
H1Q C2Q 1_555 1_555
C1 C3 1_555 1_555
O2O C3O 1_555 1_555
C1O C3O 1_555 1_555
C1A C3A 1_555 1_555
C1P C3P 1_555 1_555
C1B C3B 1_555 1_555
C1Q C3Q 1_555 1_555
C2A C3P 1_555 1_555
C2B C3Q 1_555 1_555

#END
