
#######################################################################
#
#                 Cambridge Crystallographic Data Centre
#                                CCDC 
#
#######################################################################
#
# If this CIF has been generated from an entry in the Cambridge 
# Structural Database, then it will include bibliographic, chemical, 
# crystal, experimental, refinement or atomic coordinate data resulting 
# from the CCDC's data processing and validation procedures.
#
#######################################################################

data_KUYLUM
_symmetry_cell_setting           monoclinic
_symmetry_space_group_name_H-M   'P 21/c'
_symmetry_Int_Tables_number      14
_space_group_name_Hall           '-P 2ybc'
loop_
_symmetry_equiv_pos_site_id
_symmetry_equiv_pos_as_xyz
1 x,y,z
2 -x,1/2+y,1/2-z
3 -x,-y,-z
4 x,1/2-y,1/2+z
_cell_length_a                   7.4138(15)
_cell_length_b                   14.064(3)
_cell_length_c                   15.392(4)
_cell_angle_alpha                90
_cell_angle_beta                 113.80(3)
_cell_angle_gamma                90
_cell_volume                     1468.41
loop_
_atom_site_label
_atom_site_type_symbol
_atom_site_fract_x
_atom_site_fract_y
_atom_site_fract_z
Co1 Co -0.15263(4) -0.183676(18) -0.376007(18)
K1 K 0.17639(8) -0.06463(4) -0.05791(4)
O1 O -0.3391(2) -0.15333(10) -0.32390(10)
O2 O -0.0295(2) -0.17746(10) -0.24051(10)
O3 O -0.2175(3) -0.13028(13) -0.16521(12)
O4 O 0.0521(2) -0.24608(10) -0.40039(11)
O5 O -0.1835(2) -0.31752(10) -0.37814(10)
O6 O 0.0328(2) -0.40547(11) -0.41275(12)
O7 O 0.4913(3) -0.02509(15) -0.12247(15)
H1 H 0.5011 0.0352 -0.1276
H2 H 0.5648 -0.0574 -0.1420
O8 O 0.4066(3) -0.17732(14) 0.09211(15)
H3 H 0.3177 -0.2011 0.1073
H4 H 0.5008 -0.2166 0.1180
N1 N -0.3278(2) -0.16972(11) -0.50825(12)
N2 N -0.0978(2) -0.05200(11) -0.38840(12)
C1 C -0.4355(3) -0.23832(15) -0.56647(16)
H5 H -0.4197 -0.3008 -0.5448
C2 C -0.5694(3) -0.21909(18) -0.65784(17)
H6 H -0.6425 -0.2679 -0.6970
C3 C -0.5931(3) -0.12702(18) -0.68993(16)
H7 H -0.6847 -0.1126 -0.7507
C4 C -0.4802(3) -0.05601(16) -0.63147(15)
H8 H -0.4929 0.0066 -0.6526
C5 C -0.3477(3) -0.07938(14) -0.54072(14)
C6 C -0.2142(3) -0.01164(14) -0.47241(14)
C7 C -0.1996(3) 0.08361(15) -0.48953(16)
H9 H -0.2809 0.1103 -0.5474
C8 C -0.0630(4) 0.13897(15) -0.41985(17)
H10 H -0.0521 0.2035 -0.4299
C9 C 0.0568(3) 0.09727(16) -0.33514(16)
H11 H 0.1503 0.1332 -0.2874
C10 C 0.0361(3) 0.00167(15) -0.32208(15)
H12 H 0.1184 -0.0264 -0.2651
C11 C -0.1975(3) -0.15262(14) -0.23757(15)
C12 C -0.0283(3) -0.32881(14) -0.39785(14)
K1A K -0.17639(8) -0.56463(4) -0.44209(4)
K1C K 0.17639(8) -0.43537(4) -0.55791(4)
K1B K 0.82361(8) 0.06463(4) 0.05791(4)
O6A O -0.0328(2) 0.09453(11) -0.08725(12)
O6C O 0.0328(2) -0.09453(11) 0.08725(12)
O7B O 0.5087(3) 0.02509(15) 0.12247(15)
H1B H 0.4989 -0.0352 0.1276
H2B H 0.4352 0.0574 0.1420
loop_
_geom_bond_atom_site_label_1
_geom_bond_atom_site_label_2
_geom_bond_site_symmetry_1
_geom_bond_site_symmetry_2
Co1 O1 1_555 1_555
K1 O2 1_555 1_555
O1 C11 1_555 1_555
O2 Co1 1_555 1_555
O3 K1 1_555 1_555
O4 Co1 1_555 1_555
O5 Co1 1_555 1_555
O6 C12 1_555 1_555
O7 K1 1_555 1_555
H1 O7 1_555 1_555
H2 O7 1_555 1_555
O8 K1 1_555 1_555
H3 O8 1_555 1_555
H4 O8 1_555 1_555
N1 Co1 1_555 1_555
N2 Co1 1_555 1_555
C1 N1 1_555 1_555
H5 C1 1_555 1_555
C2 C1 1_555 1_555
H6 C2 1_555 1_555
C3 C2 1_555 1_555
H7 C3 1_555 1_555
C4 C3 1_555 1_555
H8 C4 1_555 1_555
C5 N1 1_555 1_555
C6 N2 1_555 1_555
C7 C6 1_555 1_555
H9 C7 1_555 1_555
C8 C7 1_555 1_555
H10 C8 1_555 1_555
C9 C8 1_555 1_555
H11 C9 1_555 1_555
C10 N2 1_555 1_555
H12 C10 1_555 1_555
C11 O2 1_555 1_555
C12 O4 1_555 1_555
K1A O6 1_555 1_555
K1C O6 1_555 1_555
K1B O7 1_555 1_555
O6A K1 1_555 1_555
O6C K1 1_555 1_555
O7B K1 1_555 1_555
H1B O7B 1_555 1_555
H2B O7B 1_555 1_555
O3 C11 1_555 1_555
O5 C12 1_555 1_555
C4 C5 1_555 1_555
C5 C6 1_555 1_555
C9 C10 1_555 1_555
K1B O7B 1_555 1_555

#END
