
#######################################################################
#
#                 Cambridge Crystallographic Data Centre
#                                CCDC 
#
#######################################################################
#
# If this CIF has been generated from an entry in the Cambridge 
# Structural Database, then it will include bibliographic, chemical, 
# crystal, experimental, refinement or atomic coordinate data resulting 
# from the CCDC's data processing and validation procedures.
#
#######################################################################

data_KUYMIB
_symmetry_cell_setting           triclinic
_symmetry_space_group_name_H-M   'P -1'
_symmetry_Int_Tables_number      2
_space_group_name_Hall           '-P 1'
loop_
_symmetry_equiv_pos_site_id
_symmetry_equiv_pos_as_xyz
1 x,y,z
2 -x,-y,-z
_cell_length_a                   10.2431(10)
_cell_length_b                   10.7881(10)
_cell_length_c                   13.1180(12)
_cell_angle_alpha                73.045(2)
_cell_angle_beta                 69.000(2)
_cell_angle_gamma                88.231(2)
_cell_volume                     1290.07
loop_
_atom_site_label
_atom_site_type_symbol
_atom_site_fract_x
_atom_site_fract_y
_atom_site_fract_z
Cd1 Cd 0.35097(3) 0.60113(3) 0.72815(2)
Ag1 Ag 0.10392(4) 0.65042(5) 0.43358(4)
S1 S 0.15459(13) 0.40610(14) 0.53373(12)
S2 S 0.02307(13) 0.81055(13) 0.55890(11)
S3 S 0.67482(14) 0.24010(13) 0.73061(11)
N1 N 0.5157(3) 0.7499(3) 0.5680(3)
N2 N 0.4812(3) 0.7228(3) 0.7841(3)
N3 N 0.2798(3) 0.5376(3) 0.9263(3)
N4 N 0.1985(5) 0.4575(5) 0.7163(5)
N5 N 0.1895(4) 0.7448(4) 0.6917(4)
N6 N 0.5008(4) 0.4416(4) 0.7139(4)
C1 C 0.1772(5) 0.4438(5) 0.9948(4)
H1 H 0.1315 0.4041 0.9613
C2 C 0.1365(5) 0.4039(5) 1.1107(4)
H2 H 0.0646 0.3385 1.1553
C3 C 0.2025(5) 0.4612(5) 1.1601(4)
H3 H 0.1763 0.4360 1.2393
C4 C 0.3089(5) 0.5572(5) 1.0916(4)
H4 H 0.3553 0.5970 1.1246
C5 C 0.3470(4) 0.5943(4) 0.9750(3)
C6 C 0.4614(4) 0.6971(4) 0.8953(3)
C7 C 0.5406(4) 0.7635(4) 0.9314(3)
H5 H 0.5251 0.7436 1.0089
C8 C 0.6438(4) 0.8600(4) 0.8517(3)
C9 C 0.7284(4) 0.9362(4) 0.8865(3)
C10 C 0.6754(4) 0.9573(4) 0.9935(3)
H6 H 0.5896 0.9157 1.0469
C11 C 0.7497(5) 1.0396(4) 1.0209(4)
H7 H 0.7120 1.0524 1.0926
C12 C 0.8775(4) 1.1029(4) 0.9452(4)
C13 C 0.9541(5) 1.1953(5) 0.9751(5)
H8 H 0.9749 1.2780 0.9169
H9 H 1.0399 1.1609 0.9801
H10 H 0.8963 1.2060 1.0475
C14 C 0.9318(4) 1.0779(4) 0.8406(4)
H11 H 1.0195 1.1170 0.7889
C15 C 0.8601(4) 0.9973(4) 0.8109(4)
H12 H 0.8997 0.9832 0.7398
C16 C 0.6626(4) 0.8850(4) 0.7365(3)
H13 H 0.7299 0.9495 0.6807
C17 C 0.5810(4) 0.8137(4) 0.7051(3)
C18 C 0.5954(4) 0.8332(4) 0.5847(3)
C19 C 0.6844(5) 0.9295(4) 0.4939(4)
H14 H 0.7387 0.9869 0.5063
C20 C 0.6929(5) 0.9406(5) 0.3842(4)
H15 H 0.7532 1.0052 0.3222
C21 C 0.6119(5) 0.8558(5) 0.3677(4)
H16 H 0.6156 0.8615 0.2945
C22 C 0.5254(5) 0.7624(5) 0.4611(4)
H17 H 0.4704 0.7045 0.4499
C23 C 0.1773(5) 0.4366(4) 0.6421(5)
C24 C 0.1223(4) 0.7706(4) 0.6354(4)
C25 C 0.5739(5) 0.3592(5) 0.7190(4)
Ag1A Ag -0.10392(4) 0.34958(5) 0.56642(4)
Ag1A_2 Ag 0.89608(4) 0.34958(5) 0.56642(4)
S1A S -0.15459(13) 0.59390(14) 0.46627(12)
S3A S 0.32518(14) 0.75990(13) 0.26939(11)
loop_
_geom_bond_atom_site_label_1
_geom_bond_atom_site_label_2
_geom_bond_site_symmetry_1
_geom_bond_site_symmetry_2
Cd1 N1 1_555 1_555
Ag1 S1 1_555 1_555
S1 C23 1_555 1_555
S2 Ag1 1_555 1_555
S3 C25 1_555 1_555
N1 C18 1_555 1_555
N2 Cd1 1_555 1_555
N3 Cd1 1_555 1_555
N4 Cd1 1_555 1_555
N5 Cd1 1_555 1_555
N6 Cd1 1_555 1_555
C1 N3 1_555 1_555
H1 C1 1_555 1_555
C2 C1 1_555 1_555
H2 C2 1_555 1_555
C3 C2 1_555 1_555
H3 C3 1_555 1_555
C4 C3 1_555 1_555
H4 C4 1_555 1_555
C5 N3 1_555 1_555
C6 N2 1_555 1_555
C7 C6 1_555 1_555
H5 C7 1_555 1_555
C8 C7 1_555 1_555
C9 C8 1_555 1_555
C10 C9 1_555 1_555
H6 C10 1_555 1_555
C11 C10 1_555 1_555
H7 C11 1_555 1_555
C12 C11 1_555 1_555
C13 C12 1_555 1_555
H8 C13 1_555 1_555
H9 C13 1_555 1_555
H10 C13 1_555 1_555
C14 C12 1_555 1_555
H11 C14 1_555 1_555
C15 C9 1_555 1_555
H12 C15 1_555 1_555
C16 C8 1_555 1_555
H13 C16 1_555 1_555
C17 N2 1_555 1_555
C18 C17 1_555 1_555
C19 C18 1_555 1_555
H14 C19 1_555 1_555
C20 C19 1_555 1_555
H15 C20 1_555 1_555
C21 C20 1_555 1_555
H16 C21 1_555 1_555
C22 N1 1_555 1_555
H17 C22 1_555 1_555
C23 N4 1_555 1_555
C24 S2 1_555 1_555
C25 N6 1_555 1_555
Ag1A S1 1_555 1_555
Ag1A_2 S3 1_555 1_555
S1A Ag1 1_555 1_555
S3A Ag1 1_555 1_555
N5 C24 1_555 1_555
C4 C5 1_555 1_555
C5 C6 1_555 1_555
C14 C15 1_555 1_555
C16 C17 1_555 1_555
C21 C22 1_555 1_555
Ag1A S1A 1_555 1_555

#END
