
#######################################################################
#
#                 Cambridge Crystallographic Data Centre
#                                CCDC 
#
#######################################################################
#
# If this CIF has been generated from an entry in the Cambridge 
# Structural Database, then it will include bibliographic, chemical, 
# crystal, experimental, refinement or atomic coordinate data resulting 
# from the CCDC's data processing and validation procedures.
#
#######################################################################

data_KUYNOI
_symmetry_cell_setting           triclinic
_symmetry_space_group_name_H-M   'P -1'
_symmetry_Int_Tables_number      2
_space_group_name_Hall           '-P 1'
loop_
_symmetry_equiv_pos_site_id
_symmetry_equiv_pos_as_xyz
1 x,y,z
2 -x,-y,-z
_cell_length_a                   5.0720(2)
_cell_length_b                   9.0025(3)
_cell_length_c                   9.5520(3)
_cell_angle_alpha                93.198(2)
_cell_angle_beta                 96.992(2)
_cell_angle_gamma                100.452(2)
_cell_volume                     424.367
loop_
_atom_site_label
_atom_site_type_symbol
_atom_site_fract_x
_atom_site_fract_y
_atom_site_fract_z
Ag1 Ag 0.0000 0.0000 0.5000
Ag2 Ag 0.5000 -0.5000 0.0000
N1 N 0.2684(3) -0.10407(19) 0.38878(18)
C1 C 0.3565(4) -0.2298(2) 0.4306(2)
H1 H 0.3003 -0.2710 0.5139
C2 C 0.5233(4) -0.3006(2) 0.3584(2)
H2 H 0.5804 -0.3886 0.3917
C3 C 0.6080(4) -0.2422(2) 0.2358(2)
C4 C 0.5244(4) -0.1101(2) 0.1946(2)
H3 H 0.5824 -0.0647 0.1134
C5 C 0.3576(4) -0.0467(2) 0.2725(2)
H4 H 0.3017 0.0430 0.2427
N2 N 0.7619(3) -0.3164(2) 0.15325(19)
H5 H 0.874(5) -0.362(3) 0.199(3)
H6 H 0.845(5) -0.259(3) 0.097(3)
Ag2_2 Ag -0.5000 0.5000 1.0000
N1A N -0.2684(3) 0.10407(19) 0.61122(18)
C1A C -0.3565(4) 0.2298(2) 0.5694(2)
H1A H -0.3003 0.2710 0.4861
C2A C -0.5233(4) 0.3006(2) 0.6416(2)
H2A H -0.5804 0.3886 0.6083
C3A C -0.6080(4) 0.2422(2) 0.7642(2)
C4A C -0.5244(4) 0.1101(2) 0.8054(2)
H3A H -0.5824 0.0647 0.8866
C5A C -0.3576(4) 0.0467(2) 0.7275(2)
H4A H -0.3017 -0.0430 0.7573
N2A N -0.7619(3) 0.3164(2) 0.84675(19)
N2A_2 N 0.2381(3) -0.6836(2) -0.15325(19)
H5A H -0.874(5) 0.362(3) 0.801(3)
H5A_2 H 0.126(5) -0.638(3) -0.199(3)
H6A H -0.845(5) 0.259(3) 0.903(3)
H6A_2 H 0.155(5) -0.741(3) -0.097(3)
Cl1 Cl -0.04375(9) -0.70217(6) 0.19452(5)
O1 O -0.0156(4) -0.81713(18) 0.08849(17)
O2 O 0.0718(4) -0.7384(2) 0.32954(17)
O3 O 0.0969(3) -0.55690(18) 0.16137(19)
O4 O -0.3233(3) -0.6953(2) 0.1977(2)
loop_
_geom_bond_atom_site_label_1
_geom_bond_atom_site_label_2
_geom_bond_site_symmetry_1
_geom_bond_site_symmetry_2
Ag1 N1 1_555 1_555
Ag2 N2 1_555 1_555
Cl1 O1 1_555 1_555
O2 Cl1 1_555 1_555
O3 Cl1 1_555 1_555
O4 Cl1 1_555 1_555
N1 C1 1_555 1_555
C1 H1 1_555 1_555
C2 C1 1_555 1_555
H2 C2 1_555 1_555
C3 C2 1_555 1_555
C4 C3 1_555 1_555
H3 C4 1_555 1_555
C5 N1 1_555 1_555
H4 C5 1_555 1_555
N2 C3 1_555 1_555
H5 N2 1_555 1_555
H6 N2 1_555 1_555
Ag2_2 N2A 1_555 1_555
N1A Ag1 1_555 1_555
C1A N1A 1_555 1_555
H1A C1A 1_555 1_555
C2A C1A 1_555 1_555
H2A C2A 1_555 1_555
C3A C2A 1_555 1_555
C4A C3A 1_555 1_555
H3A C4A 1_555 1_555
C5A N1A 1_555 1_555
H4A C5A 1_555 1_555
N2A C3A 1_555 1_555
N2A_2 Ag2 1_555 1_555
H5A N2A 1_555 1_555
H5A_2 N2A_2 1_555 1_555
H6A N2A 1_555 1_555
H6A_2 N2A_2 1_555 1_555
C4 C5 1_555 1_555
C4A C5A 1_555 1_555

#END
