
#######################################################################
#
#                 Cambridge Crystallographic Data Centre
#                                CCDC 
#
#######################################################################
#
# If this CIF has been generated from an entry in the Cambridge 
# Structural Database, then it will include bibliographic, chemical, 
# crystal, experimental, refinement or atomic coordinate data resulting 
# from the CCDC's data processing and validation procedures.
#
#######################################################################

data_KUYPAW
_symmetry_cell_setting           triclinic
_symmetry_space_group_name_H-M   'P -1'
_symmetry_Int_Tables_number      2
_space_group_name_Hall           '-P 1'
loop_
_symmetry_equiv_pos_site_id
_symmetry_equiv_pos_as_xyz
1 x,y,z
2 -x,-y,-z
_cell_length_a                   6.8767(14)
_cell_length_b                   9.5293(19)
_cell_length_c                   11.149(2)
_cell_angle_alpha                86.83(3)
_cell_angle_beta                 89.53(3)
_cell_angle_gamma                89.52(3)
_cell_volume                     729.43
loop_
_atom_site_label
_atom_site_type_symbol
_atom_site_fract_x
_atom_site_fract_y
_atom_site_fract_z
Co1 Co 0.23932(7) 0.27775(5) 0.73432(4)
N1 N 0.2539(4) 0.0677(3) 0.6805(2)
N2 N 0.2379(4) 0.1661(3) 0.9024(2)
C1 C 0.2526(5) 0.0223(4) 0.5691(3)
C2 C 0.2653(5) -0.1224(4) 0.5494(4)
H1 H 0.2659 -0.1521 0.4713
C3 C 0.2765(5) -0.2181(4) 0.6433(4)
H2 H 0.2860 -0.3133 0.6297
C4 C 0.2737(5) -0.1737(3) 0.7614(3)
C5 C 0.2824(5) -0.2671(4) 0.8659(4)
H3 H 0.2923 -0.3633 0.8571
C6 C 0.2766(5) -0.2182(4) 0.9773(4)
H4 H 0.2831 -0.2812 1.0439
C7 C 0.2604(5) -0.0702(3) 0.9941(3)
C8 C 0.2485(5) -0.0137(4) 1.1072(3)
H5 H 0.2515 -0.0724 1.1766
C9 C 0.2326(5) 0.1280(4) 1.1146(3)
H6 H 0.2249 0.1660 1.1896
C10 C 0.2276(5) 0.2173(3) 1.0107(3)
C11 C 0.2530(4) 0.0242(3) 0.8937(3)
C12 C 0.2620(4) -0.0274(3) 0.7747(3)
C13 C 0.2325(6) 0.1281(5) 0.4669(3)
H7 H 0.1190 0.1850 0.4789
H8 H 0.2202 0.0809 0.3935
H9 H 0.3455 0.1867 0.4623
C14 C 0.2121(6) 0.3725(4) 1.0190(3)
H10 H 0.3391 0.4104 1.0304
H11 H 0.1298 0.3933 1.0858
H12 H 0.1574 0.4137 0.9462
O1 O 0.4924(4) 0.3945(4) 0.7882(3)
O2 O 0.4560(5) 0.3466(4) 0.6052(3)
O3 O 0.9214(4) 0.2696(3) 0.6983(3)
O4 O 1.0687(5) 0.4640(4) 0.7095(5)
C15 C 0.5528(5) 0.4017(3) 0.6837(3)
C16 C 0.7380(5) 0.4791(4) 0.6502(3)
H13 H 0.7421 0.4975 0.5638
H14 H 0.7359 0.5691 0.6869
C17 C 0.9200(5) 0.3999(4) 0.6886(3)
Co1_2 Co 1.23932(7) 0.27775(5) 0.73432(4)
O3_2 O -0.0786(4) 0.2696(3) 0.6983(3)
O4_2 O 0.0687(5) 0.4640(4) 0.7095(5)
loop_
_geom_bond_atom_site_label_1
_geom_bond_atom_site_label_2
_geom_bond_site_symmetry_1
_geom_bond_site_symmetry_2
Co1 N1 1_555 1_555
N1 C1 1_555 1_555
N2 Co1 1_555 1_555
C1 C2 1_555 1_555
C2 H1 1_555 1_555
C3 C2 1_555 1_555
H2 C3 1_555 1_555
C4 C3 1_555 1_555
C5 C4 1_555 1_555
H3 C5 1_555 1_555
C6 C5 1_555 1_555
H4 C6 1_555 1_555
C7 C6 1_555 1_555
C8 C7 1_555 1_555
H5 C8 1_555 1_555
C9 C8 1_555 1_555
H6 C9 1_555 1_555
C10 N2 1_555 1_555
C11 N2 1_555 1_555
C12 N1 1_555 1_555
C13 C1 1_555 1_555
H7 C13 1_555 1_555
H8 C13 1_555 1_555
H9 C13 1_555 1_555
C14 C10 1_555 1_555
H10 C14 1_555 1_555
H11 C14 1_555 1_555
H12 C14 1_555 1_555
O1 Co1 1_555 1_555
O2 Co1 1_555 1_555
O3 C17 1_555 1_555
O4 C17 1_555 1_555
C15 O1 1_555 1_555
C16 C15 1_555 1_555
H13 C16 1_555 1_555
H14 C16 1_555 1_555
C17 C16 1_555 1_555
Co1_2 O3 1_555 1_555
O3_2 Co1 1_555 1_555
O4_2 Co1 1_555 1_555
C4 C12 1_555 1_555
C7 C11 1_555 1_555
C9 C10 1_555 1_555
C11 C12 1_555 1_555
O2 C15 1_555 1_555
O4 Co1_2 1_555 1_555

#END
