
#######################################################################
#
#                 Cambridge Crystallographic Data Centre
#                                CCDC 
#
#######################################################################
#
# If this CIF has been generated from an entry in the Cambridge 
# Structural Database, then it will include bibliographic, chemical, 
# crystal, experimental, refinement or atomic coordinate data resulting 
# from the CCDC's data processing and validation procedures.
#
#######################################################################

data_KUYSIH
_symmetry_cell_setting           monoclinic
_symmetry_space_group_name_H-M   'P 21/n'
_symmetry_Int_Tables_number      14
_space_group_name_Hall           '-P 2yn'
loop_
_symmetry_equiv_pos_site_id
_symmetry_equiv_pos_as_xyz
1 x,y,z
2 1/2-x,1/2+y,1/2-z
3 -x,-y,-z
4 1/2+x,1/2-y,1/2+z
_cell_length_a                   13.0712(14)
_cell_length_b                   23.080(2)
_cell_length_c                   15.6340(16)
_cell_angle_alpha                90
_cell_angle_beta                 93.4700(10)
_cell_angle_gamma                90
_cell_volume                     4707.87
loop_
_atom_site_label
_atom_site_type_symbol
_atom_site_fract_x
_atom_site_fract_y
_atom_site_fract_z
Ag1 Ag 0.67704(5) 0.24042(3) 0.55934(5)
Ag2 Ag 0.49477(5) 0.24103(3) 0.71296(4)
N1 N 0.7422(7) 0.1363(5) 0.7966(7)
N2 N 0.9491(8) 0.2412(4) 0.3589(6)
P1 P 0.60071(16) 0.33099(9) 0.50436(14)
P2 P 0.43500(16) 0.33225(9) 0.64005(14)
P3 P 0.61866(16) 0.14163(9) 0.52595(14)
P4 P 0.45647(17) 0.14001(9) 0.66334(15)
S1 S 0.69887(17) 0.24681(11) 0.73000(16)
S2 S 0.8817(2) 0.24072(14) 0.5231(2)
C1 C 0.7242(7) 0.1814(5) 0.7699(7)
C2 C 0.9092(8) 0.2425(4) 0.4226(7)
C3 C 0.4656(6) 0.3405(4) 0.5286(5)
H1 H 0.4440 0.3789 0.5097
H2 H 0.4248 0.3128 0.4946
C4 C 0.5943(7) 0.3337(4) 0.3880(6)
C5 C 0.6844(8) 0.3277(4) 0.3492(7)
H3 H 0.7459 0.3256 0.3822
C6 C 0.6847(8) 0.3246(5) 0.2606(7)
H4 H 0.7465 0.3211 0.2346
C7 C 0.5942(8) 0.3266(5) 0.2106(7)
H5 H 0.5947 0.3244 0.1513
C8 C 0.5053(8) 0.3316(4) 0.2487(6)
H6 H 0.4438 0.3320 0.2156
C9 C 0.5049(7) 0.3363(4) 0.3366(6)
H7 H 0.4428 0.3413 0.3618
C10 C 0.6664(7) 0.3976(4) 0.5373(6)
C11 C 0.7642(7) 0.3934(4) 0.5762(6)
H8 H 0.7946 0.3572 0.5837
C12 C 0.8174(8) 0.4423(4) 0.6041(7)
H9 H 0.8831 0.4388 0.6300
C13 C 0.7733(8) 0.4958(4) 0.5936(7)
H10 H 0.8082 0.5287 0.6137
C14 C 0.6787(8) 0.5008(4) 0.5539(7)
H11 H 0.6494 0.5373 0.5460
C15 C 0.6250(7) 0.4521(4) 0.5250(6)
H12 H 0.5606 0.4562 0.4971
C16 C 0.2954(7) 0.3366(4) 0.6316(6)
C17 C 0.2480(7) 0.3291(4) 0.7076(7)
H13 H 0.2870 0.3247 0.7590
C18 C 0.1413(8) 0.3280(5) 0.7065(8)
H14 H 0.1086 0.3223 0.7571
C19 C 0.0856(9) 0.3353(5) 0.6317(9)
H15 H 0.0144 0.3352 0.6317
C20 C 0.1301(8) 0.3428(5) 0.5569(8)
H16 H 0.0902 0.3467 0.5060
C21 C 0.2356(7) 0.3445(4) 0.5569(7)
H17 H 0.2668 0.3510 0.5059
C22 C 0.4750(7) 0.4014(4) 0.6861(6)
C23 C 0.5642(7) 0.4043(4) 0.7378(6)
H18 H 0.5998 0.3706 0.7529
C24 C 0.6009(8) 0.4577(4) 0.7673(7)
H19 H 0.6614 0.4595 0.8017
C25 C 0.5495(9) 0.5072(5) 0.7463(7)
H20 H 0.5758 0.5428 0.7649
C26 C 0.4596(8) 0.5049(4) 0.6982(6)
H21 H 0.4232 0.5387 0.6856
C27 C 0.4220(7) 0.4523(4) 0.6680(6)
H22 H 0.3604 0.4510 0.6351
C28 C 0.5626(7) 0.1018(4) 0.6134(6)
H23 H 0.6162 0.0938 0.6574
H24 H 0.5372 0.0648 0.5914
C29 C 0.7291(7) 0.0990(4) 0.4987(6)
C30 C 0.8073(7) 0.0897(4) 0.5609(7)
H25 H 0.7958 0.0973 0.6180
C31 C 0.9021(8) 0.0694(5) 0.5398(8)
H26 H 0.9547 0.0648 0.5821
C32 C 0.9181(9) 0.0561(5) 0.4572(8)
H27 H 0.9812 0.0415 0.4429
C33 C 0.8420(9) 0.0641(5) 0.3955(7)
H28 H 0.8531 0.0546 0.3390
C34 C 0.7467(8) 0.0864(4) 0.4158(7)
H29 H 0.6956 0.0925 0.3728
C35 C 0.5264(7) 0.1321(4) 0.4371(6)
C36 C 0.4939(8) 0.0789(5) 0.4059(7)
H30 H 0.5227 0.0453 0.4296
C37 C 0.4185(9) 0.0750(5) 0.3393(8)
H31 H 0.3971 0.0387 0.3192
C38 C 0.3753(8) 0.1241(5) 0.3028(7)
H32 H 0.3228 0.1213 0.2601
C39 C 0.4105(8) 0.1773(5) 0.3301(7)
H33 H 0.3841 0.2108 0.3042
C40 C 0.4854(7) 0.1809(4) 0.3963(6)
H34 H 0.5089 0.2173 0.4141
C41 C 0.3476(7) 0.1354(4) 0.5868(6)
C42 C 0.3018(8) 0.1858(4) 0.5572(6)
H35 H 0.3296 0.2208 0.5765
C43 C 0.2166(8) 0.1872(5) 0.5002(7)
H36 H 0.1883 0.2225 0.4828
C44 C 0.1741(8) 0.1366(5) 0.4695(8)
H37 H 0.1136 0.1369 0.4349
C45 C 0.2227(10) 0.0855(6) 0.4910(9)
H38 H 0.1965 0.0505 0.4698
C46 C 0.3107(9) 0.0863(5) 0.5444(8)
H39 H 0.3474 0.0520 0.5522
C47 C 0.4310(8) 0.0900(4) 0.7463(7)
C48 C 0.4558(10) 0.1033(5) 0.8299(8)
H40 H 0.4851 0.1394 0.8419
C49 C 0.4401(11) 0.0665(6) 0.8987(9)
H41 H 0.4587 0.0786 0.9542
C50 C 0.3977(10) 0.0128(5) 0.8854(8)
H42 H 0.3875 -0.0122 0.9307
C51 C 0.3709(12) -0.0023(6) 0.8029(10)
H43 H 0.3412 -0.0383 0.7908
C52 C 0.3882(11) 0.0358(5) 0.7370(9)
H44 H 0.3690 0.0237 0.6816
Ag2C Ag 0.99477(5) 0.25897(3) 0.21296(4)
N2C N 0.4491(8) 0.2588(4) 0.8589(6)
loop_
_geom_bond_atom_site_label_1
_geom_bond_atom_site_label_2
_geom_bond_site_symmetry_1
_geom_bond_site_symmetry_2
Ag1 P1 1_555 1_555
Ag2 P2 1_555 1_555
N1 C1 1_555 1_555
N2 C2 1_555 1_555
P1 C3 1_555 1_555
P2 C3 1_555 1_555
P3 Ag1 1_555 1_555
P4 Ag2 1_555 1_555
S1 Ag1 1_555 1_555
S2 Ag1 1_555 1_555
C1 S1 1_555 1_555
C2 S2 1_555 1_555
C3 H1 1_555 1_555
H2 C3 1_555 1_555
C4 P1 1_555 1_555
C5 C4 1_555 1_555
H3 C5 1_555 1_555
C6 C5 1_555 1_555
H4 C6 1_555 1_555
C7 C6 1_555 1_555
H5 C7 1_555 1_555
C8 C7 1_555 1_555
H6 C8 1_555 1_555
C9 C4 1_555 1_555
H7 C9 1_555 1_555
C10 P1 1_555 1_555
C11 C10 1_555 1_555
H8 C11 1_555 1_555
C12 C11 1_555 1_555
H9 C12 1_555 1_555
C13 C12 1_555 1_555
H10 C13 1_555 1_555
C14 C13 1_555 1_555
H11 C14 1_555 1_555
C15 C10 1_555 1_555
H12 C15 1_555 1_555
C16 P2 1_555 1_555
C17 C16 1_555 1_555
H13 C17 1_555 1_555
C18 C17 1_555 1_555
H14 C18 1_555 1_555
C19 C18 1_555 1_555
H15 C19 1_555 1_555
C20 C19 1_555 1_555
H16 C20 1_555 1_555
C21 C16 1_555 1_555
H17 C21 1_555 1_555
C22 P2 1_555 1_555
C23 C22 1_555 1_555
H18 C23 1_555 1_555
C24 C23 1_555 1_555
H19 C24 1_555 1_555
C25 C24 1_555 1_555
H20 C25 1_555 1_555
C26 C25 1_555 1_555
H21 C26 1_555 1_555
C27 C22 1_555 1_555
H22 C27 1_555 1_555
C28 P3 1_555 1_555
H23 C28 1_555 1_555
H24 C28 1_555 1_555
C29 P3 1_555 1_555
C30 C29 1_555 1_555
H25 C30 1_555 1_555
C31 C30 1_555 1_555
H26 C31 1_555 1_555
C32 C31 1_555 1_555
H27 C32 1_555 1_555
C33 C32 1_555 1_555
H28 C33 1_555 1_555
C34 C29 1_555 1_555
H29 C34 1_555 1_555
C35 P3 1_555 1_555
C36 C35 1_555 1_555
H30 C36 1_555 1_555
C37 C36 1_555 1_555
H31 C37 1_555 1_555
C38 C37 1_555 1_555
H32 C38 1_555 1_555
C39 C38 1_555 1_555
H33 C39 1_555 1_555
C40 C35 1_555 1_555
H34 C40 1_555 1_555
C41 P4 1_555 1_555
C42 C41 1_555 1_555
H35 C42 1_555 1_555
C43 C42 1_555 1_555
H36 C43 1_555 1_555
C44 C43 1_555 1_555
H37 C44 1_555 1_555
C45 C44 1_555 1_555
H38 C45 1_555 1_555
C46 C41 1_555 1_555
H39 C46 1_555 1_555
C47 P4 1_555 1_555
C48 C47 1_555 1_555
H40 C48 1_555 1_555
C49 C48 1_555 1_555
H41 C49 1_555 1_555
C50 C49 1_555 1_555
H42 C50 1_555 1_555
C51 C50 1_555 1_555
H43 C51 1_555 1_555
C52 C47 1_555 1_555
H44 C52 1_555 1_555
Ag2C N2 1_555 1_555
N2C Ag2 1_555 1_555
Ag2 S1 1_555 1_555
P4 C28 1_555 1_555
C8 C9 1_555 1_555
C14 C15 1_555 1_555
C20 C21 1_555 1_555
C26 C27 1_555 1_555
C33 C34 1_555 1_555
C39 C40 1_555 1_555
C45 C46 1_555 1_555
C51 C52 1_555 1_555

#END
