
#######################################################################
#
#                 Cambridge Crystallographic Data Centre
#                                CCDC 
#
#######################################################################
#
# If this CIF has been generated from an entry in the Cambridge 
# Structural Database, then it will include bibliographic, chemical, 
# crystal, experimental, refinement or atomic coordinate data resulting 
# from the CCDC's data processing and validation procedures.
#
#######################################################################

data_KUYTEE
_symmetry_cell_setting           monoclinic
_symmetry_space_group_name_H-M   'C 2/c'
_symmetry_Int_Tables_number      15
_space_group_name_Hall           '-C 2yn'
loop_
_symmetry_equiv_pos_site_id
_symmetry_equiv_pos_as_xyz
1 x,y,z
2 -x,y,1/2-z
3 1/2+x,1/2+y,z
4 1/2-x,1/2+y,1/2-z
5 -x,-y,-z
6 x,-y,1/2+z
7 1/2-x,1/2-y,-z
8 1/2+x,1/2-y,1/2+z
_cell_length_a                   17.584(3)
_cell_length_b                   10.8568(19)
_cell_length_c                   21.891(4)
_cell_angle_alpha                90
_cell_angle_beta                 103.801(2)
_cell_angle_gamma                90
_cell_volume                     4058.47
loop_
_atom_site_label
_atom_site_type_symbol
_atom_site_fract_x
_atom_site_fract_y
_atom_site_fract_z
Cd1 Cd 0.0000 0.74023(3) -0.2500
C1 C -0.1391(2) 1.3529(3) 0.14433(15)
C2 C -0.16577(18) 1.3714(3) 0.07425(14)
C3 C -0.21138(19) 1.4726(3) 0.04962(15)
H1 H -0.2266 1.5295 0.0762
C4 C -0.23363(19) 1.4875(3) -0.01481(16)
C5 C -0.2124(2) 1.4046(3) -0.05570(15)
H2 H -0.2276 1.4168 -0.0990
C6 C -0.16780(19) 1.3023(3) -0.03069(15)
C7 C -0.14483(19) 1.2873(3) 0.03395(15)
H3 H -0.1147 1.2193 0.0505
C8 C -0.3530(2) 1.6069(3) -0.03346(16)
C9 C -0.3967(2) 1.7153(3) -0.06802(18)
C10 C -0.4431(2) 1.7860(4) -0.0395(2)
H4 H -0.4453 1.7708 0.0018
C11 C -0.4868(3) 1.8809(4) -0.0739(2)
H5 H -0.5172 1.9299 -0.0541
C12 C -0.4417(3) 1.8360(4) -0.1594(2)
H6 H -0.4406 1.8528 -0.2008
C13 C -0.3957(3) 1.7405(3) -0.1292(2)
H7 H -0.3648 1.6946 -0.1499
C14 C -0.1521(2) 1.2117(3) -0.13085(16)
C15 C -0.1209(2) 1.0994(3) -0.15632(15)
C16 C -0.1481(3) 1.0700(4) -0.21868(17)
H8 H -0.1864 1.1181 -0.2446
C17 C -0.1180(3) 0.9685(4) -0.24232(18)
H9 H -0.1380 0.9483 -0.2844
C18 C -0.0367(2) 0.9273(4) -0.14846(17)
H10 H 0.0018 0.8780 -0.1236
C19 C -0.0636(2) 1.0259(3) -0.12058(17)
H11 H -0.0433 1.0428 -0.0782
N1 N -0.4871(2) 1.9047(3) -0.13331(19)
N2 N -0.06210(18) 0.8981(3) -0.20837(13)
N3 N -0.28104(17) 1.5900(3) -0.04134(13)
H12 H -0.2624 1.6427 -0.0632
N4 N -0.14702(16) 1.2095(3) -0.06830(12)
H13 H -0.1288 1.1428 -0.0491
O1 O -0.09323(16) 1.2649(2) 0.16214(11)
O2 O -0.16316(16) 1.4247(2) 0.17948(11)
O3 O -0.38414(17) 1.5403(2) -0.00154(13)
O4 O -0.17829(19) 1.2984(2) -0.16454(12)
O5 O 0.07154(19) 0.6011(3) -0.29733(14)
H14 H 0.050(2) 0.539(3) -0.3152(17)
H17 H 0.109(2) 0.575(4) -0.2698(18)
Cd1D Cd 0.0000 1.25977(3) 0.2500
C1D C 0.1391(2) 0.6471(3) -0.14433(15)
C2D C 0.16577(18) 0.6286(3) -0.07425(14)
C3D C 0.21138(19) 0.5274(3) -0.04962(15)
H1D H 0.2266 0.4705 -0.0762
C4D C 0.23363(19) 0.5125(3) 0.01481(16)
C5D C 0.2124(2) 0.5954(3) 0.05570(15)
H2D H 0.2276 0.5832 0.0990
C6D C 0.16780(19) 0.6977(3) 0.03069(15)
C7D C 0.14483(19) 0.7127(3) -0.03395(15)
H3D H 0.1147 0.7807 -0.0505
C8D C 0.3530(2) 0.3931(3) 0.03346(16)
C9D C 0.3967(2) 0.2847(3) 0.06802(18)
C10D C 0.4431(2) 0.2140(4) 0.0395(2)
H4D H 0.4453 0.2292 -0.0018
C11D C 0.4868(3) 0.1191(4) 0.0739(2)
H5D H 0.5172 0.0701 0.0541
C12D C 0.4417(3) 0.1640(4) 0.1594(2)
H6D H 0.4406 0.1472 0.2008
C13D C 0.3957(3) 0.2595(3) 0.1292(2)
H7D H 0.3648 0.3054 0.1499
C14D C 0.1521(2) 0.7883(3) 0.13085(16)
C15D C 0.1209(2) 0.9006(3) 0.15632(15)
C16D C 0.1481(3) 0.9300(4) 0.21868(17)
H8D H 0.1864 0.8819 0.2446
C17D C 0.1180(3) 1.0315(4) 0.24232(18)
H9D H 0.1380 1.0517 0.2844
C18D C 0.0367(2) 1.0727(4) 0.14846(17)
H10D H -0.0018 1.1220 0.1236
C19D C 0.0636(2) 0.9741(3) 0.12058(17)
H11D H 0.0433 0.9572 0.0782
N1D N 0.4871(2) 0.0953(3) 0.13331(19)
N2D N 0.06210(18) 1.1019(3) 0.20837(13)
N2A N 0.06210(18) 0.8981(3) -0.29163(13)
N3D N 0.28104(17) 0.4100(3) 0.04134(13)
H12D H 0.2624 0.3573 0.0632
N4D N 0.14702(16) 0.7905(3) 0.06830(12)
H13D H 0.1288 0.8572 0.0491
O1D O 0.09323(16) 0.7351(2) -0.16214(11)
O1E O -0.09323(16) 0.7351(2) -0.33786(11)
O2D O 0.16316(16) 0.5753(2) -0.17948(11)
O3D O 0.38414(17) 0.4597(2) 0.00154(13)
O4D O 0.17829(19) 0.7016(2) 0.16454(12)
O5A O -0.07154(19) 0.6011(3) -0.20267(14)
H14A H -0.050(2) 0.539(3) -0.1848(17)
H17A H -0.109(2) 0.575(4) -0.2302(18)
O6 O 0.1941(3) 0.3124(5) 0.1269(2)
H18 H 0.150(2) 0.325(7) 0.135(3)
H19 H 0.207(4) 0.243(3) 0.143(3)
O7 O 0.2760(3) 0.1472(3) 0.20727(17)
H15 H 0.299(3) 0.154(6) 0.2454(12)
H16 H 0.283(3) 0.073(2) 0.198(2)
loop_
_geom_bond_atom_site_label_1
_geom_bond_atom_site_label_2
_geom_bond_site_symmetry_1
_geom_bond_site_symmetry_2
Cd1 N2 1_555 1_555
C1 C2 1_555 1_555
C2 C3 1_555 1_555
C3 H1 1_555 1_555
C4 C3 1_555 1_555
C5 C4 1_555 1_555
H2 C5 1_555 1_555
C6 C5 1_555 1_555
C7 C2 1_555 1_555
H3 C7 1_555 1_555
C8 C9 1_555 1_555
C9 C10 1_555 1_555
C10 H4 1_555 1_555
C11 C10 1_555 1_555
H5 C11 1_555 1_555
C12 H6 1_555 1_555
C13 C9 1_555 1_555
H7 C13 1_555 1_555
C14 C15 1_555 1_555
C15 C16 1_555 1_555
C16 H8 1_555 1_555
C17 C16 1_555 1_555
H9 C17 1_555 1_555
C18 H10 1_555 1_555
C19 C15 1_555 1_555
H11 C19 1_555 1_555
N1 C11 1_555 1_555
N2 C17 1_555 1_555
N3 C4 1_555 1_555
H12 N3 1_555 1_555
N4 C6 1_555 1_555
H13 N4 1_555 1_555
O1 C1 1_555 1_555
O2 C1 1_555 1_555
O3 C8 1_555 1_555
O4 C14 1_555 1_555
O5 Cd1 1_555 1_555
O6 H18 1_555 1_555
O7 H15 1_555 1_555
H14 O5 1_555 1_555
H16 O7 1_555 1_555
H17 O5 1_555 1_555
H19 O6 1_555 1_555
Cd1D O1 1_555 1_555
C1D C2D 1_555 1_555
C2D C3D 1_555 1_555
C3D H1D 1_555 1_555
C4D C3D 1_555 1_555
C5D C4D 1_555 1_555
H2D C5D 1_555 1_555
C6D C5D 1_555 1_555
C7D C2D 1_555 1_555
H3D C7D 1_555 1_555
C8D C9D 1_555 1_555
C9D C10D 1_555 1_555
C10D H4D 1_555 1_555
C11D C10D 1_555 1_555
H5D C11D 1_555 1_555
C12D H6D 1_555 1_555
C13D C9D 1_555 1_555
H7D C13D 1_555 1_555
C14D C15D 1_555 1_555
C15D C16D 1_555 1_555
C16D H8D 1_555 1_555
C17D C16D 1_555 1_555
H9D C17D 1_555 1_555
C18D H10D 1_555 1_555
C19D C15D 1_555 1_555
H11D C19D 1_555 1_555
N1D C11D 1_555 1_555
N2D Cd1D 1_555 1_555
N2A Cd1 1_555 1_555
N3D C4D 1_555 1_555
H12D N3D 1_555 1_555
N4D C6D 1_555 1_555
H13D N4D 1_555 1_555
O1D Cd1 1_555 1_555
O1E Cd1 1_555 1_555
O2D C1D 1_555 1_555
O3D C8D 1_555 1_555
O4D C14D 1_555 1_555
O5A Cd1 1_555 1_555
H14A O5A 1_555 1_555
H17A O5A 1_555 1_555
C6 C7 1_555 1_555
C8 N3 1_555 1_555
C12 C13 1_555 1_555
C12 N1 1_555 1_555
C14 N4 1_555 1_555
C18 C19 1_555 1_555
C18 N2 1_555 1_555
C1D O1D 1_555 1_555
C6D C7D 1_555 1_555
C8D N3D 1_555 1_555
C12D C13D 1_555 1_555
C12D N1D 1_555 1_555
C14D N4D 1_555 1_555
C17D N2D 1_555 1_555
C18D C19D 1_555 1_555
C18D N2D 1_555 1_555

#END
