
#######################################################################
#
#                 Cambridge Crystallographic Data Centre
#                                CCDC 
#
#######################################################################
#
# If this CIF has been generated from an entry in the Cambridge 
# Structural Database, then it will include bibliographic, chemical, 
# crystal, experimental, refinement or atomic coordinate data resulting 
# from the CCDC's data processing and validation procedures.
#
#######################################################################

data_KUYTOO
_symmetry_cell_setting           monoclinic
_symmetry_space_group_name_H-M   'P 21/c'
_symmetry_Int_Tables_number      14
_space_group_name_Hall           '-P 2ybc'
loop_
_symmetry_equiv_pos_site_id
_symmetry_equiv_pos_as_xyz
1 x,y,z
2 -x,1/2+y,1/2-z
3 -x,-y,-z
4 x,1/2-y,1/2+z
_cell_length_a                   7.5795(5)
_cell_length_b                   16.9491(10)
_cell_length_c                   8.2215(5)
_cell_angle_alpha                90
_cell_angle_beta                 113.325(3)
_cell_angle_gamma                90
_cell_volume                     969.863
loop_
_atom_site_label
_atom_site_type_symbol
_atom_site_fract_x
_atom_site_fract_y
_atom_site_fract_z
Cd1 Cd 0.0000 0.5000 0.0000
Cl1 Cl 0.18617(7) 0.53526(3) -0.19411(7)
N1 N 0.4333(3) 0.60582(12) 0.5065(2)
C1 C 0.4379(3) 0.56302(12) 0.2553(3)
H1 H 0.4822 0.5515 0.1674
C2 C 0.7421(3) 0.62024(12) 0.4780(3)
H2 H 0.8033 0.5921 0.4116
H3 H 0.8016 0.6027 0.6000
C3 C 0.7814(3) 0.70736(11) 0.4718(3)
C4 C 0.6464(3) 0.76634(13) 0.4358(3)
H4 H 0.5187 0.7540 0.4106
C5 C 0.7022(3) 0.84449(12) 0.4373(3)
H5 H 0.6094 0.8836 0.4141
C6 C 1.0109(3) 0.80837(14) 0.5028(4)
H6 H 1.1368 0.8221 0.5239
C7 C 0.9684(3) 0.72969(13) 0.5070(4)
H7 H 1.0646 0.6919 0.5332
N2 N 0.2643(2) 0.54659(10) 0.2469(2)
C8 C 0.2694(3) 0.57354(12) 0.4037(3)
H8 H 0.1653 0.5695 0.4360
N3 N 0.5399(2) 0.59858(9) 0.4081(2)
N4 N 0.8817(3) 0.86600(10) 0.4702(2)
Cd1A Cd 1.0000 1.0000 0.5000
Cd1A_2 Cd 1.0000 0.0000 0.5000
Cl1B Cl -0.18617(7) 0.46474(3) 0.19411(7)
N1A N 0.5667(3) 0.10582(12) -0.0065(2)
C1A C 0.5621(3) 0.06302(12) 0.2447(3)
H1A H 0.5178 0.0515 0.3326
C2A C 0.2579(3) 0.12024(12) 0.0220(3)
H2A H 0.1967 0.0921 0.0884
H3A H 0.1984 0.1027 -0.1000
C3A C 0.2186(3) 0.20736(11) 0.0282(3)
C4A C 0.3536(3) 0.26634(13) 0.0642(3)
H4A H 0.4813 0.2540 0.0894
C5A C 0.2978(3) 0.34449(12) 0.0627(3)
H5A H 0.3906 0.3836 0.0859
C6A C -0.0109(3) 0.30837(14) -0.0028(4)
H6A H -0.1368 0.3221 -0.0239
C7A C 0.0316(3) 0.22969(13) -0.0070(4)
H7A H -0.0646 0.1919 -0.0332
N2A N 0.7357(2) 0.04659(10) 0.2531(2)
N2B N -0.2643(2) 0.45341(10) -0.2469(2)
C8A C 0.7306(3) 0.07354(12) 0.0963(3)
H8A H 0.8347 0.0695 0.0640
N3A N 0.4601(2) 0.09858(9) 0.0919(2)
N4A N 0.1183(3) 0.36600(10) 0.0298(2)
N4C N -0.1183(3) 0.63400(10) -0.0298(2)
loop_
_geom_bond_atom_site_label_1
_geom_bond_atom_site_label_2
_geom_bond_site_symmetry_1
_geom_bond_site_symmetry_2
Cd1 Cl1 1_555 1_555
N1 C8 1_555 1_555
C1 H1 1_555 1_555
C2 H2 1_555 1_555
H3 C2 1_555 1_555
C3 C2 1_555 1_555
C4 C3 1_555 1_555
H4 C4 1_555 1_555
C5 C4 1_555 1_555
H5 C5 1_555 1_555
C6 H6 1_555 1_555
C7 C3 1_555 1_555
H7 C7 1_555 1_555
N2 Cd1 1_555 1_555
C8 N2 1_555 1_555
H8 C8 1_555 1_555
N3 N1 1_555 1_555
N4 C5 1_555 1_555
Cd1A N4 1_555 1_555
Cd1A_2 N2A 1_555 1_555
Cl1B Cd1 1_555 1_555
N1A C8A 1_555 1_555
C1A H1A 1_555 1_555
C2A H2A 1_555 1_555
H3A C2A 1_555 1_555
C3A C2A 1_555 1_555
C4A C3A 1_555 1_555
H4A C4A 1_555 1_555
C5A C4A 1_555 1_555
H5A C5A 1_555 1_555
C6A H6A 1_555 1_555
C7A C3A 1_555 1_555
H7A C7A 1_555 1_555
N2A C1A 1_555 1_555
N2B Cd1 1_555 1_555
C8A N2A 1_555 1_555
H8A C8A 1_555 1_555
N3A N1A 1_555 1_555
N4A Cd1 1_555 1_555
N4C Cd1 1_555 1_555
C1 N2 1_555 1_555
C1 N3 1_555 1_555
C2 N3 1_555 1_555
C6 C7 1_555 1_555
C6 N4 1_555 1_555
C1A N3A 1_555 1_555
C2A N3A 1_555 1_555
C5A N4A 1_555 1_555
C6A C7A 1_555 1_555
C6A N4A 1_555 1_555

#END
