
#######################################################################
#
#                 Cambridge Crystallographic Data Centre
#                                CCDC 
#
#######################################################################
#
# If this CIF has been generated from an entry in the Cambridge 
# Structural Database, then it will include bibliographic, chemical, 
# crystal, experimental, refinement or atomic coordinate data resulting 
# from the CCDC's data processing and validation procedures.
#
#######################################################################

data_KVIOLD01
_symmetry_cell_setting           monoclinic
_symmetry_space_group_name_H-M   'P 21/c'
_symmetry_Int_Tables_number      14
_space_group_name_Hall           '-P 2ybc'
loop_
_symmetry_equiv_pos_site_id
_symmetry_equiv_pos_as_xyz
1 x,y,z
2 -x,1/2+y,1/2-z
3 -x,-y,-z
4 x,1/2-y,1/2+z
_cell_length_a                   11.296(5)
_cell_length_b                   11.981(4)
_cell_length_c                   6.493(3)
_cell_angle_alpha                90
_cell_angle_beta                 105.347(13)
_cell_angle_gamma                90
_cell_volume                     847.41
loop_
_atom_site_label
_atom_site_type_symbol
_atom_site_fract_x
_atom_site_fract_y
_atom_site_fract_z
K1 K 0.84590(10) 0.49548(8) 0.61352(18)
N1 N 0.4747(3) 0.7116(3) 0.2340(6)
H1 H 0.4311 0.6500 0.2052
O1 O 0.6438(3) 0.6052(2) 0.3638(5)
O2 O 0.3041(3) 0.8146(2) 0.1001(5)
O3 O 0.8566(3) 0.7238(2) 0.5049(6)
N2 N 0.7929(3) 0.8115(3) 0.4512(6)
N3 N 0.4826(3) 0.9043(3) 0.2354(6)
H2 H 0.4432 0.9683 0.2126
C1 C 0.6093(4) 0.9089(4) 0.3199(7)
C2 C 0.6019(4) 0.7005(4) 0.3275(7)
C3 C 0.6699(4) 0.8024(3) 0.3677(7)
O4 O 0.9063(3) 0.3195(2) 0.9005(6)
C4 C 0.4142(4) 0.8103(3) 0.1849(7)
O5 O 0.6595(3) 1.0018(2) 0.3447(5)
O6 O 0.9059(3) 0.4797(3) 0.2254(6)
K1A K 0.15410(10) 0.99548(8) -0.11352(18)
K1C K 0.84590(10) 1.00452(8) 0.11352(18)
K1B K 1.15410(10) 0.50452(8) 0.38648(18)
O2A O 0.6959(3) 0.3146(2) 0.3999(5)
O5C O 0.6595(3) 0.4982(2) 0.8447(5)
O6B O 1.0941(3) 0.5203(3) 0.7746(6)
loop_
_geom_bond_atom_site_label_1
_geom_bond_atom_site_label_2
_geom_bond_site_symmetry_1
_geom_bond_site_symmetry_2
K1 O1 1_555 1_555
N1 H1 1_555 1_555
O1 C2 1_555 1_555
O2 C4 1_555 1_555
O3 K1 1_555 1_555
N2 O3 1_555 1_555
N3 H2 1_555 1_555
C1 N3 1_555 1_555
C2 N1 1_555 1_555
C3 N2 1_555 1_555
O4 K1 1_555 1_555
C4 N1 1_555 1_555
O5 C1 1_555 1_555
O6 K1 1_555 1_555
K1A O2 1_555 1_555
K1C O5 1_555 1_555
K1B O6 1_555 1_555
O2A K1 1_555 1_555
O5C K1 1_555 1_555
O6B K1 1_555 1_555
N3 C4 1_555 1_555
C1 C3 1_555 1_555
C2 C3 1_555 1_555
K1B O6B 1_555 1_555

#END
