
#######################################################################
#
#                 Cambridge Crystallographic Data Centre
#                                CCDC 
#
#######################################################################
#
# If this CIF has been generated from an entry in the Cambridge 
# Structural Database, then it will include bibliographic, chemical, 
# crystal, experimental, refinement or atomic coordinate data resulting 
# from the CCDC's data processing and validation procedures.
#
#######################################################################

data_LABBUN
_symmetry_cell_setting           monoclinic
_symmetry_space_group_name_H-M   'P 21/c'
_symmetry_Int_Tables_number      14
_space_group_name_Hall           '-P 2ybc'
loop_
_symmetry_equiv_pos_site_id
_symmetry_equiv_pos_as_xyz
1 x,y,z
2 -x,1/2+y,1/2-z
3 -x,-y,-z
4 x,1/2-y,1/2+z
_cell_length_a                   10.284(4)
_cell_length_b                   21.263(7)
_cell_length_c                   12.532(4)
_cell_angle_alpha                90
_cell_angle_beta                 103.726(4)
_cell_angle_gamma                90
_cell_volume                     2662.1
loop_
_atom_site_label
_atom_site_type_symbol
_atom_site_fract_x
_atom_site_fract_y
_atom_site_fract_z
Yb1 Yb 0.169725(15) 0.972919(7) 0.624079(13)
O1 O 0.3234(2) 0.88977(12) 0.6867(2)
O2 O 0.3818(3) 0.95943(12) 0.5780(2)
O3 O 0.9928(3) 0.91107(12) 0.6363(2)
O4 O 0.8354(3) 0.95245(12) 0.5016(2)
O5 O 0.1258(3) 0.91527(13) 0.4691(2)
O6 O -0.0329(3) 0.95420(12) 0.3319(2)
O7 O -0.0723(3) 0.75181(18) -0.0352(2)
H1 H -0.1345 0.7480 -0.0895
O8 O -0.2223(3) 0.80676(17) 0.0251(3)
N1 N 0.7313(4) 0.73979(17) 0.7791(3)
N2 N 0.2881(4) 0.72079(19) 0.3147(4)
H2 H 0.3408 0.7256 0.3786
H3 H 0.2973 0.6888 0.2750
N3 N 0.3373(3) 1.04325(15) 0.7466(3)
N4 N 0.1825(3) 0.96312(16) 0.8291(3)
C1 C 0.4077(4) 0.91133(18) 0.6369(3)
C2 C 0.5425(4) 0.88068(18) 0.6504(3)
C3 C 0.5714(4) 0.82358(17) 0.7062(3)
H4 H 0.5055 0.8027 0.7321
C4 C 0.6982(4) 0.79827(17) 0.7227(3)
C5 C 0.7961(4) 0.83069(17) 0.6855(3)
H5 H 0.8828 0.8148 0.7000
C6 C 0.7666(4) 0.88599(17) 0.6275(3)
C7 C 0.6388(3) 0.91077(18) 0.6085(3)
H6 H 0.6176 0.9475 0.5677
C8 C 0.8737(4) 0.91910(18) 0.5847(3)
C9 C 0.0536(4) 0.91330(18) 0.3734(3)
C10 C 0.0706(4) 0.85845(17) 0.3030(3)
C11 C -0.0202(4) 0.84907(18) 0.2034(3)
H7 H -0.0902 0.8773 0.1792
C12 C -0.0059(4) 0.79746(18) 0.1403(3)
C13 C 0.0992(4) 0.75582(19) 0.1745(3)
H8 H 0.1097 0.7222 0.1298
C14 C 0.1893(4) 0.76420(19) 0.2759(4)
C15 C 0.1728(4) 0.81623(19) 0.3389(3)
H9 H 0.2322 0.8225 0.4066
C16 C -0.1101(4) 0.78668(19) 0.0377(4)
C17 C 0.4193(4) 1.0793(2) 0.7073(4)
H10 H 0.4148 1.0779 0.6324
C18 C 0.5129(5) 1.1198(2) 0.7728(5)
H11 H 0.5700 1.1441 0.7422
C19 C 0.5182(5) 1.1226(2) 0.8816(5)
H12 H 0.5780 1.1500 0.9260
C20 C 0.4354(5) 1.0851(2) 0.9278(4)
C21 C 0.3456(4) 1.0452(2) 0.8559(3)
C22 C 0.2619(4) 1.0039(2) 0.8998(3)
C23 C 0.2655(5) 1.0052(2) 1.0122(4)
C24 C 0.3559(6) 1.0473(3) 1.0809(4)
H13 H 0.3583 1.0488 1.1555
C25 C 0.4367(6) 1.0845(3) 1.0416(4)
H14 H 0.4957 1.1107 1.0894
C26 C 0.1819(6) 0.9638(3) 1.0514(4)
H15 H 0.1797 0.9642 1.1251
C27 C 0.1050(6) 0.9235(3) 0.9815(4)
H16 H 0.0494 0.8954 1.0063
C28 C 0.1095(5) 0.9242(3) 0.8715(4)
H17 H 0.0572 0.8951 0.8248
H20 H 0.654(4) 0.7229(19) 0.788(3)
H21 H 0.764(4) 0.714(2) 0.744(3)
Yb1_2 Yb 1.169725(15) 0.972919(7) 0.624079(13)
Yb1B Yb 0.830275(15) 1.027081(7) 0.375921(13)
Yb1B_2 Yb -0.169725(15) 1.027081(7) 0.375921(13)
O3_2 O -0.0072(3) 0.91107(12) 0.6363(2)
O4B O 0.1646(3) 1.04755(12) 0.4984(2)
O6B O 0.0329(3) 1.04580(12) 0.6681(2)
O9 O 0.5494(4) 0.7337(3) 0.9485(3)
H18 H 0.614(4) 0.758(2) 0.962(4)
H19 H 0.542(6) 0.715(3) 1.005(3)
loop_
_geom_bond_atom_site_label_1
_geom_bond_atom_site_label_2
_geom_bond_site_symmetry_1
_geom_bond_site_symmetry_2
Yb1 O1 1_555 1_555
O1 C1 1_555 1_555
O2 Yb1 1_555 1_555
O3 C8 1_555 1_555
O4 C8 1_555 1_555
O5 Yb1 1_555 1_555
O6 C9 1_555 1_555
O7 H1 1_555 1_555
O8 C16 1_555 1_555
O9 H18 1_555 1_555
N1 C4 1_555 1_555
N2 H2 1_555 1_555
H3 N2 1_555 1_555
N3 Yb1 1_555 1_555
N4 Yb1 1_555 1_555
C1 O2 1_555 1_555
C2 C1 1_555 1_555
C3 C2 1_555 1_555
H4 C3 1_555 1_555
C4 C3 1_555 1_555
C5 C4 1_555 1_555
H5 C5 1_555 1_555
C6 C5 1_555 1_555
C7 C2 1_555 1_555
H6 C7 1_555 1_555
C8 C6 1_555 1_555
C9 O5 1_555 1_555
C10 C9 1_555 1_555
C11 C10 1_555 1_555
H7 C11 1_555 1_555
C12 C11 1_555 1_555
C13 C12 1_555 1_555
H8 C13 1_555 1_555
C14 N2 1_555 1_555
C15 C10 1_555 1_555
H9 C15 1_555 1_555
C16 O7 1_555 1_555
C17 N3 1_555 1_555
H10 C17 1_555 1_555
C18 C17 1_555 1_555
H11 C18 1_555 1_555
C19 C18 1_555 1_555
H12 C19 1_555 1_555
C20 C19 1_555 1_555
C21 N3 1_555 1_555
C22 N4 1_555 1_555
C23 C22 1_555 1_555
C24 C23 1_555 1_555
H13 C24 1_555 1_555
C25 C20 1_555 1_555
H14 C25 1_555 1_555
C26 C23 1_555 1_555
H15 C26 1_555 1_555
C27 C26 1_555 1_555
H16 C27 1_555 1_555
C28 N4 1_555 1_555
H17 C28 1_555 1_555
H19 O9 1_555 1_555
H20 N1 1_555 1_555
H21 N1 1_555 1_555
Yb1_2 O3 1_555 1_555
Yb1B O4 1_555 1_555
Yb1B_2 O6 1_555 1_555
O3_2 Yb1 1_555 1_555
O4B Yb1 1_555 1_555
O6B Yb1 1_555 1_555
C6 C7 1_555 1_555
C12 C16 1_555 1_555
C13 C14 1_555 1_555
C14 C15 1_555 1_555
C20 C21 1_555 1_555
C21 C22 1_555 1_555
C24 C25 1_555 1_555
C27 C28 1_555 1_555

#END
