
#######################################################################
#
#                 Cambridge Crystallographic Data Centre
#                                CCDC 
#
#######################################################################
#
# If this CIF has been generated from an entry in the Cambridge 
# Structural Database, then it will include bibliographic, chemical, 
# crystal, experimental, refinement or atomic coordinate data resulting 
# from the CCDC's data processing and validation procedures.
#
#######################################################################

data_LABBIB
_symmetry_cell_setting           monoclinic
_symmetry_space_group_name_H-M   'P 21/c'
_symmetry_Int_Tables_number      14
_space_group_name_Hall           '-P 2ybc'
loop_
_symmetry_equiv_pos_site_id
_symmetry_equiv_pos_as_xyz
1 x,y,z
2 -x,1/2+y,1/2-z
3 -x,-y,-z
4 x,1/2-y,1/2+z
_cell_length_a                   9.9659(7)
_cell_length_b                   15.5586(11)
_cell_length_c                   8.6438(6)
_cell_angle_alpha                90
_cell_angle_beta                 92.4190(10)
_cell_angle_gamma                90
_cell_volume                     1339.07
loop_
_atom_site_label
_atom_site_type_symbol
_atom_site_fract_x
_atom_site_fract_y
_atom_site_fract_z
Ce1 Ce 0.714890(15) 0.195808(9) 0.190854(17)
N1 N 0.4901(2) 0.59949(14) 0.2143(3)
O1 O 0.9178(2) 0.19645(12) 0.3836(2)
O2 O 0.75012(19) 0.34526(12) 0.2581(2)
O3 O 0.5174(2) 0.71882(13) -0.1317(2)
O4 O 0.6546(2) 0.39851(12) 0.4686(2)
O5 O 0.9254(2) 0.30389(12) 0.5521(2)
O6 O 1.1991(2) 0.54216(12) 0.2635(2)
O7 O 0.3646(2) 0.71668(12) 0.0459(2)
O8 O 0.9838(2) 0.55166(15) 0.1922(3)
C1 C 0.9787(3) 0.25886(19) 0.4532(3)
C2 C 1.1216(3) 0.2778(2) 0.4118(4)
H1 H 1.1391 0.2495 0.3148
H2 H 1.1821 0.2535 0.4909
C3 C 1.1525(3) 0.3732(2) 0.3959(4)
H3 H 1.1379 0.4019 0.4935
H4 H 1.2463 0.3804 0.3727
C4 C 1.0654(3) 0.4147(2) 0.2694(4)
H5 H 1.0792 0.3845 0.1732
H6 H 0.9721 0.4070 0.2940
C5 C 1.0898(3) 0.5084(2) 0.2438(4)
C6 C 0.5402(3) 0.53185(18) 0.2921(3)
H7 H 0.5058 0.5191 0.3878
C7 C 0.6934(3) 0.49938(18) 0.0970(3)
H8 H 0.7603 0.4654 0.0568
C8 C 0.6406(3) 0.47942(17) 0.2380(3)
C9 C 0.6853(3) 0.40129(17) 0.3292(3)
C10 C 0.6452(3) 0.57100(18) 0.0163(3)
H9 H 0.6806 0.5867 -0.0775
C11 C 0.5435(3) 0.61822(17) 0.0783(3)
C12 C 0.4743(3) 0.69025(17) -0.0096(3)
Ce1A Ce 0.285110(15) 0.695808(9) 0.309146(17)
Ce1B Ce 0.285110(15) 0.804192(9) -0.190854(17)
Ce1C Ce 0.714890(15) 0.304192(9) 0.690854(17)
Ce1A_2 Ce 1.285110(15) 0.695808(9) 0.309146(17)
N1A N 0.5099(2) 0.09949(14) 0.2857(3)
O3B O 0.4826(2) 0.28118(13) 0.1317(2)
O4C O 0.6546(2) 0.10149(12) -0.0314(2)
O5C O 0.9254(2) 0.19611(12) 0.0521(2)
O6A O 0.8009(2) 0.04216(12) 0.2365(2)
O7B O 0.6354(2) 0.28332(12) -0.0459(2)
O7A O 0.6354(2) 0.21668(12) 0.4541(2)
loop_
_geom_bond_atom_site_label_1
_geom_bond_atom_site_label_2
_geom_bond_site_symmetry_1
_geom_bond_site_symmetry_2
Ce1 O1 1_555 1_555
N1 C6 1_555 1_555
O1 C1 1_555 1_555
O2 Ce1 1_555 1_555
O3 C12 1_555 1_555
O4 C9 1_555 1_555
O5 C1 1_555 1_555
O6 C5 1_555 1_555
O7 C12 1_555 1_555
O8 C5 1_555 1_555
C1 C2 1_555 1_555
C2 H1 1_555 1_555
H2 C2 1_555 1_555
C3 C2 1_555 1_555
H3 C3 1_555 1_555
H4 C3 1_555 1_555
C4 C3 1_555 1_555
H5 C4 1_555 1_555
H6 C4 1_555 1_555
C5 C4 1_555 1_555
C6 H7 1_555 1_555
C7 H8 1_555 1_555
C8 C6 1_555 1_555
C9 O2 1_555 1_555
C10 C7 1_555 1_555
H9 C10 1_555 1_555
C11 N1 1_555 1_555
C12 C11 1_555 1_555
Ce1A N1 1_555 1_555
Ce1B O3 1_555 1_555
Ce1C O4 1_555 1_555
Ce1A_2 O6 1_555 1_555
N1A Ce1 1_555 1_555
O3B Ce1 1_555 1_555
O4C Ce1 1_555 1_555
O5C Ce1 1_555 1_555
O6A Ce1 1_555 1_555
O7B Ce1 1_555 1_555
O7A Ce1 1_555 1_555
O5 Ce1C 1_555 1_555
O7 Ce1A 1_555 1_555
O7 Ce1B 1_555 1_555
C7 C8 1_555 1_555
C8 C9 1_555 1_555
C10 C11 1_555 1_555
Ce1C O7A 1_555 1_555

#END
