
#######################################################################
#
#                 Cambridge Crystallographic Data Centre
#                                CCDC 
#
#######################################################################
#
# If this CIF has been generated from an entry in the Cambridge 
# Structural Database, then it will include bibliographic, chemical, 
# crystal, experimental, refinement or atomic coordinate data resulting 
# from the CCDC's data processing and validation procedures.
#
#######################################################################

data_LABBOH
_symmetry_cell_setting           monoclinic
_symmetry_space_group_name_H-M   'P 21/c'
_symmetry_Int_Tables_number      14
_space_group_name_Hall           '-P 2ybc'
loop_
_symmetry_equiv_pos_site_id
_symmetry_equiv_pos_as_xyz
1 x,y,z
2 -x,1/2+y,1/2-z
3 -x,-y,-z
4 x,1/2-y,1/2+z
_cell_length_a                   13.5018(7)
_cell_length_b                   17.8543(10)
_cell_length_c                   10.4922(5)
_cell_angle_alpha                90
_cell_angle_beta                 105.1460(10)
_cell_angle_gamma                90
_cell_volume                     2441.44
loop_
_atom_site_label
_atom_site_type_symbol
_atom_site_fract_x
_atom_site_fract_y
_atom_site_fract_z
Sn1 Sn 0.31203(4) 0.71210(3) 0.43308(5)
Cl1 Cl 0.2700(4) 1.1030(2) 0.8117(5)
Cl2 Cl -0.1099(4) 1.0154(3) 0.8096(6)
O1 O 0.3104(6) 0.7916(4) 0.6154(6)
O2 O 0.3118(5) 0.8704(3) 0.7784(5)
O3 O 0.2600(7) 0.9886(4) 0.6213(7)
C1 C 0.3021(7) 0.8557(6) 0.6575(8)
C2 C 0.2837(9) 0.9214(6) 0.5641(10)
H1 H 0.3445 0.9294 0.5329
H2 H 0.2276 0.9093 0.4881
C3 C 0.1714(9) 0.9910(6) 0.6599(10)
C4 C 0.1607(9) 1.0424(6) 0.7503(12)
C5 C 0.0823(11) 1.0521(6) 0.8004(12)
H3 H 0.0827 1.0886 0.8637
C6 C 0.0005(11) 1.0061(8) 0.7552(12)
C7 C 0.0059(9) 0.9528(6) 0.6669(12)
H4 H -0.0498 0.9209 0.6370
C8 C 0.0901(10) 0.9438(6) 0.6196(11)
H5 H 0.0920 0.9056 0.5601
C9 C 0.4465(8) 0.7657(7) 0.4138(11)
H6 H 0.4661 0.7413 0.3414
H7 H 0.4275 0.8166 0.3856
C10 C 0.5371(10) 0.7704(9) 0.5206(15)
H8 H 0.5560 0.7203 0.5538
H9 H 0.5214 0.7990 0.5914
C11 C 0.6302(10) 0.8065(10) 0.4858(16)
H10 H 0.6570 0.7708 0.4335
H11 H 0.6060 0.8496 0.4300
C12 C 0.7108(13) 0.8297(14) 0.5898(17)
H12 H 0.7053 0.8825 0.6031
H13 H 0.7747 0.8191 0.5696
H14 H 0.7080 0.8034 0.6687
C13 C 0.3072(9) 0.6260(7) 0.5638(10)
H15 H 0.2990 0.6472 0.6456
H16 H 0.2480 0.5947 0.5267
C14 C 0.4136(11) 0.5728(8) 0.5968(14)
H17 H 0.4268 0.5543 0.5159
H18 H 0.4727 0.6013 0.6453
C15 C 0.3906(13) 0.5065(9) 0.6826(16)
H19 H 0.3539 0.5250 0.7442
H20 H 0.3475 0.4697 0.6259
C16 C 0.4809(16) 0.4733(12) 0.751(2)
H21 H 0.5229 0.5097 0.8079
H22 H 0.5167 0.4545 0.6898
H23 H 0.4661 0.4327 0.8031
C17 C 0.1634(8) 0.7520(7) 0.3371(9)
H24 H 0.1640 0.8064 0.3364
H25 H 0.1447 0.7348 0.2463
C18 C 0.0844(9) 0.7249(8) 0.4059(13)
H26 H 0.0860 0.6706 0.4064
H27 H 0.1062 0.7412 0.4972
C19 C -0.0213(10) 0.7481(11) 0.3534(14)
H28 H -0.0442 0.7303 0.2631
H29 H -0.0230 0.8024 0.3505
C20 C -0.0964(11) 0.7227(10) 0.4248(17)
H30 H -0.1393 0.6844 0.3744
H31 H -0.1381 0.7643 0.4369
H32 H -0.0605 0.7030 0.5093
Sn1C Sn 0.31203(4) 0.78790(3) 0.93308(5)
O2C O 0.3118(5) 0.6296(3) 0.2784(5)
loop_
_geom_bond_atom_site_label_1
_geom_bond_atom_site_label_2
_geom_bond_site_symmetry_1
_geom_bond_site_symmetry_2
Sn1 O1 1_555 1_555
Cl1 C4 1_555 1_555
Cl2 C6 1_555 1_555
O1 C1 1_555 1_555
O2 C1 1_555 1_555
O3 C2 1_555 1_555
C1 C2 1_555 1_555
C2 H1 1_555 1_555
H2 C2 1_555 1_555
C3 O3 1_555 1_555
C4 C3 1_555 1_555
C5 C4 1_555 1_555
H3 C5 1_555 1_555
C6 C5 1_555 1_555
C7 C6 1_555 1_555
H4 C7 1_555 1_555
C8 C3 1_555 1_555
H5 C8 1_555 1_555
C9 Sn1 1_555 1_555
H6 C9 1_555 1_555
H7 C9 1_555 1_555
C10 C9 1_555 1_555
H8 C10 1_555 1_555
H9 C10 1_555 1_555
C11 C10 1_555 1_555
H10 C11 1_555 1_555
H11 C11 1_555 1_555
C12 C11 1_555 1_555
H12 C12 1_555 1_555
H13 C12 1_555 1_555
H14 C12 1_555 1_555
C13 Sn1 1_555 1_555
H15 C13 1_555 1_555
H16 C13 1_555 1_555
C14 C13 1_555 1_555
H17 C14 1_555 1_555
H18 C14 1_555 1_555
C15 C14 1_555 1_555
H19 C15 1_555 1_555
H20 C15 1_555 1_555
C16 C15 1_555 1_555
H21 C16 1_555 1_555
H22 C16 1_555 1_555
H23 C16 1_555 1_555
C17 Sn1 1_555 1_555
H24 C17 1_555 1_555
H25 C17 1_555 1_555
C18 C17 1_555 1_555
H26 C18 1_555 1_555
H27 C18 1_555 1_555
C19 C18 1_555 1_555
H28 C19 1_555 1_555
H29 C19 1_555 1_555
C20 C19 1_555 1_555
H30 C20 1_555 1_555
H31 C20 1_555 1_555
H32 C20 1_555 1_555
Sn1C O2 1_555 1_555
O2C Sn1 1_555 1_555
C7 C8 1_555 1_555

#END
