
#######################################################################
#
#                 Cambridge Crystallographic Data Centre
#                                CCDC 
#
#######################################################################
#
# If this CIF has been generated from an entry in the Cambridge 
# Structural Database, then it will include bibliographic, chemical, 
# crystal, experimental, refinement or atomic coordinate data resulting 
# from the CCDC's data processing and validation procedures.
#
#######################################################################

data_LABCUN
_symmetry_cell_setting           tetragonal
_symmetry_space_group_name_H-M   'P 42 21 2'
_symmetry_Int_Tables_number      94
_space_group_name_Hall           'P 4n 2n'
loop_
_symmetry_equiv_pos_site_id
_symmetry_equiv_pos_as_xyz
1 x,y,z
2 -x,-y,z
3 1/2-y,1/2+x,1/2+z
4 1/2+y,1/2-x,1/2+z
5 1/2-x,1/2+y,1/2-z
6 1/2+x,1/2-y,1/2-z
7 y,x,-z
8 -y,-x,-z
_cell_length_a                   11.7385(17)
_cell_length_b                   11.7385(17)
_cell_length_c                   22.408(5)
_cell_angle_alpha                90
_cell_angle_beta                 90
_cell_angle_gamma                90
_cell_volume                     3087.65
loop_
_atom_site_label
_atom_site_type_symbol
_atom_site_fract_x
_atom_site_fract_y
_atom_site_fract_z
N1 N 0.4360(15) 0.4133(15) 0.1596(8)
C12 C 0.500(3) 0.3139(19) 0.1342(13)
C13 C 0.552(6) 0.350(6) 0.074(2)
C14 C 0.321(2) 0.458(2) 0.1443(13)
C15 C 0.277(3) 0.382(3) 0.0959(16)
C16 C 0.470(2) 0.458(2) 0.2205(10)
C16A C 0.530(2) 0.542(2) 0.2205(10)
N1A N 0.5640(15) 0.5867(15) 0.1596(8)
C12A C 0.500(3) 0.6861(19) 0.1342(13)
C13A C 0.448(6) 0.650(6) 0.074(2)
C14A C 0.679(2) 0.542(2) 0.1443(13)
C15A C 0.723(3) 0.618(3) 0.0959(16)
C17 C 0.5000 0.0000 -0.0222(14)
O4 O 0.5068(15) 0.0954(13) 0.0277(7)
O4A O 0.4932(15) -0.0954(13) 0.0277(7)
O5 O 0.2767(16) 0.1573(16) 0.0328(8)
Zn1 Zn 0.0000 0.0000 0.0000
O1 O 0.0022(7) 0.1290(5) 0.0553(2)
O2 O -0.1754(6) 0.0787(6) 0.0805(3)
O3 O -0.1269(6) 0.5417(5) 0.3686(3)
C1 C -0.0499(8) 0.4585(7) 0.2809(4)
C2 C -0.1362(8) 0.4642(7) 0.3226(4)
C3 C -0.2336(9) 0.3938(9) 0.3193(4)
H1 H -0.2900 0.3963 0.3485
C4 C -0.2413(9) 0.3219(9) 0.2714(5)
H2 H -0.3073 0.2789 0.2670
C5 C -0.1654(9) 0.2338(9) 0.1791(4)
H3 H -0.2314 0.1907 0.1749
C6 C -0.0807(9) 0.2228(8) 0.1374(4)
C7 C 0.0162(11) 0.2898(7) 0.1443(4)
H4 H 0.0750 0.2810 0.1169
C8 C 0.0299(8) 0.3670(8) 0.1886(4)
H5 H 0.0950 0.4120 0.1902
C9 C -0.0576(8) 0.3786(7) 0.2331(4)
C10 C -0.1553(9) 0.3096(8) 0.2288(4)
C11 C -0.0877(9) 0.1386(8) 0.0875(4)
C1A C 0.0499(8) 0.5415(7) 0.2809(4)
C2A C 0.1362(8) 0.5358(7) 0.3226(4)
O3A O 0.1269(6) 0.4583(5) 0.3686(3)
C3A C 0.2336(9) 0.6062(9) 0.3193(4)
H1A H 0.2900 0.6037 0.3485
C4A C 0.2413(9) 0.6781(9) 0.2714(5)
H2A H 0.3073 0.7211 0.2670
C10A C 0.1553(9) 0.6904(8) 0.2288(4)
C5A C 0.1654(9) 0.7662(9) 0.1791(4)
H3A H 0.2314 0.8093 0.1749
C6A C 0.0807(9) 0.7772(8) 0.1374(4)
C7A C -0.0162(11) 0.7102(7) 0.1443(4)
H4A H -0.0750 0.7190 0.1169
C8A C -0.0299(8) 0.6330(8) 0.1886(4)
H5A H -0.0950 0.5880 0.1902
C9A C 0.0576(8) 0.6214(7) 0.2331(4)
C11A C 0.0877(9) 0.8614(8) 0.0875(4)
O1A O -0.0022(7) 0.8710(5) 0.0553(2)
O2A O 0.1754(6) 0.9213(6) 0.0805(3)
O1A_2 O -0.0022(7) -0.1290(5) 0.0553(2)
O2A_2 O 0.1754(6) -0.0787(6) 0.0805(3)
O3A_2 O 0.1269(6) -0.5417(5) 0.3686(3)
C1A_2 C 0.0499(8) -0.4585(7) 0.2809(4)
C2A_2 C 0.1362(8) -0.4642(7) 0.3226(4)
C3A_2 C 0.2336(9) -0.3938(9) 0.3193(4)
H1A_2 H 0.2900 -0.3963 0.3485
C4A_2 C 0.2413(9) -0.3219(9) 0.2714(5)
H2A_2 H 0.3073 -0.2789 0.2670
C5A_2 C 0.1654(9) -0.2338(9) 0.1791(4)
H3A_2 H 0.2314 -0.1907 0.1749
C6A_2 C 0.0807(9) -0.2228(8) 0.1374(4)
C7A_2 C -0.0162(11) -0.2898(7) 0.1443(4)
H4A_2 H -0.0750 -0.2810 0.1169
C8A_2 C -0.0299(8) -0.3670(8) 0.1886(4)
H5A_2 H -0.0950 -0.4120 0.1902
C9A_2 C 0.0576(8) -0.3786(7) 0.2331(4)
C10A_2 C 0.1553(9) -0.3096(8) 0.2288(4)
C11A_2 C 0.0877(9) -0.1386(8) 0.0875(4)
C1_2 C -0.0499(8) -0.5415(7) 0.2809(4)
C2_2 C -0.1362(8) -0.5358(7) 0.3226(4)
O3_2 O -0.1269(6) -0.4583(5) 0.3686(3)
C3_2 C -0.2336(9) -0.6062(9) 0.3193(4)
H1_2 H -0.2900 -0.6037 0.3485
C4_2 C -0.2413(9) -0.6781(9) 0.2714(5)
H2_2 H -0.3073 -0.7211 0.2670
C10_2 C -0.1553(9) -0.6904(8) 0.2288(4)
C5_2 C -0.1654(9) -0.7662(9) 0.1791(4)
H3_2 H -0.2314 -0.8093 0.1749
C6_2 C -0.0807(9) -0.7772(8) 0.1374(4)
C7_2 C 0.0162(11) -0.7102(7) 0.1443(4)
H4_2 H 0.0750 -0.7190 0.1169
C8_2 C 0.0299(8) -0.6330(8) 0.1886(4)
H5_2 H 0.0950 -0.5880 0.1902
C9_2 C -0.0576(8) -0.6214(7) 0.2331(4)
C11_2 C -0.0877(9) -0.8614(8) 0.0875(4)
O1_2 O 0.0022(7) -0.8710(5) 0.0553(2)
O2_2 O -0.1754(6) -0.9213(6) 0.0805(3)
O1F O 0.1290(5) 0.0022(7) -0.0553(2)
O1G O -0.1290(5) -0.0022(7) -0.0553(2)
Zn1_2 Zn 0.0000 1.0000 0.0000
Zn1_3 Zn 0.0000 -1.0000 0.0000
loop_
_geom_bond_atom_site_label_1
_geom_bond_atom_site_label_2
_geom_bond_site_symmetry_1
_geom_bond_site_symmetry_2
Zn1 O1 1_555 1_555
O1 C11 1_555 1_555
O2 C11 1_555 1_555
O3 C2 1_555 1_555
C1 C2 1_555 1_555
C2 C3 1_555 1_555
C3 H1 1_555 1_555
C4 C3 1_555 1_555
H2 C4 1_555 1_555
C5 H3 1_555 1_555
C6 C5 1_555 1_555
C7 C6 1_555 1_555
H4 C7 1_555 1_555
C8 C7 1_555 1_555
H5 C8 1_555 1_555
C9 C1 1_555 1_555
C10 C4 1_555 1_555
C11 C6 1_555 1_555
N1 C12 1_555 1_555
C12 C13 1_555 1_555
C14 N1 1_555 1_555
C15 C14 1_555 1_555
C16 N1 1_555 1_555
C17 O4 1_555 1_555
C1A C1 1_555 1_555
C2A C1A 1_555 1_555
O3A C2A 1_555 1_555
C3A C2A 1_555 1_555
H1A C3A 1_555 1_555
C4A C3A 1_555 1_555
H2A C4A 1_555 1_555
C10A C4A 1_555 1_555
C5A C10A 1_555 1_555
H3A C5A 1_555 1_555
C6A C5A 1_555 1_555
C7A C6A 1_555 1_555
H4A C7A 1_555 1_555
C8A C7A 1_555 1_555
H5A C8A 1_555 1_555
C9A C1A 1_555 1_555
C11A C6A 1_555 1_555
O1A C11A 1_555 1_555
O2A C11A 1_555 1_555
C16A C16 1_555 1_555
N1A C16A 1_555 1_555
C12A N1A 1_555 1_555
C13A C12A 1_555 1_555
C14A N1A 1_555 1_555
C15A C14A 1_555 1_555
O4A C17 1_555 1_555
O1A_2 Zn1 1_555 1_555
O2A_2 C11A_2 1_555 1_555
O3A_2 C2A_2 1_555 1_555
C1A_2 C2A_2 1_555 1_555
C2A_2 C3A_2 1_555 1_555
C3A_2 H1A_2 1_555 1_555
C4A_2 C3A_2 1_555 1_555
H2A_2 C4A_2 1_555 1_555
C5A_2 H3A_2 1_555 1_555
C6A_2 C5A_2 1_555 1_555
C7A_2 C6A_2 1_555 1_555
H4A_2 C7A_2 1_555 1_555
C8A_2 C7A_2 1_555 1_555
H5A_2 C8A_2 1_555 1_555
C9A_2 C1A_2 1_555 1_555
C10A_2 C4A_2 1_555 1_555
C11A_2 O1A_2 1_555 1_555
C1_2 C1A_2 1_555 1_555
C2_2 C1_2 1_555 1_555
O3_2 C2_2 1_555 1_555
C3_2 C2_2 1_555 1_555
H1_2 C3_2 1_555 1_555
C4_2 C3_2 1_555 1_555
H2_2 C4_2 1_555 1_555
C10_2 C4_2 1_555 1_555
C5_2 C10_2 1_555 1_555
H3_2 C5_2 1_555 1_555
C6_2 C5_2 1_555 1_555
C7_2 C6_2 1_555 1_555
H4_2 C7_2 1_555 1_555
C8_2 C7_2 1_555 1_555
H5_2 C8_2 1_555 1_555
C9_2 C1_2 1_555 1_555
C11_2 C6_2 1_555 1_555
O1_2 C11_2 1_555 1_555
O2_2 C11_2 1_555 1_555
O1F Zn1 1_555 1_555
O1G Zn1 1_555 1_555
Zn1_2 O1A 1_555 1_555
Zn1_3 O1_2 1_555 1_555
C5 C10 1_555 1_555
C8 C9 1_555 1_555
C9 C10 1_555 1_555
C10A C9A 1_555 1_555
C8A C9A 1_555 1_555
C5A_2 C10A_2 1_555 1_555
C6A_2 C11A_2 1_555 1_555
C8A_2 C9A_2 1_555 1_555
C9A_2 C10A_2 1_555 1_555
C10_2 C9_2 1_555 1_555
C8_2 C9_2 1_555 1_555

#END
