
#######################################################################
#
#                 Cambridge Crystallographic Data Centre
#                                CCDC 
#
#######################################################################
#
# If this CIF has been generated from an entry in the Cambridge 
# Structural Database, then it will include bibliographic, chemical, 
# crystal, experimental, refinement or atomic coordinate data resulting 
# from the CCDC's data processing and validation procedures.
#
#######################################################################

data_LABFOL
_symmetry_cell_setting           triclinic
_symmetry_space_group_name_H-M   'P -1'
_symmetry_Int_Tables_number      2
_space_group_name_Hall           '-P 1'
loop_
_symmetry_equiv_pos_site_id
_symmetry_equiv_pos_as_xyz
1 x,y,z
2 -x,-y,-z
_cell_length_a                   7.838(5)
_cell_length_b                   11.043(5)
_cell_length_c                   16.485(5)
_cell_angle_alpha                73.063(5)
_cell_angle_beta                 80.033(5)
_cell_angle_gamma                85.796(5)
_cell_volume                     1343.97
loop_
_atom_site_label
_atom_site_type_symbol
_atom_site_fract_x
_atom_site_fract_y
_atom_site_fract_z
Cd1 Cd -0.07865(3) 0.65816(2) 0.389412(16)
Cd2 Cd -0.51092(4) 0.75857(3) 0.468650(18)
C1 C -0.0014(6) 0.7463(4) 0.1840(3)
H1 H -0.1167 0.7308 0.1845
C2 C 0.2364(6) 0.7620(4) 0.2249(3)
H2 H 0.3187 0.7594 0.2598
C3 C 0.2649(6) 0.8021(4) 0.1385(3)
H3 H 0.3684 0.8309 0.1033
C4 C 0.0759(7) 0.8235(4) 0.0239(2)
H4 H -0.0351 0.7898 0.0241
H5 H 0.1642 0.7827 -0.0089
C5 C 0.0736(6) 0.9644(4) -0.0204(2)
H6 H 0.0633 0.9778 -0.0802
H7 H 0.1829 0.9988 -0.0187
C6 C -0.2248(6) 0.9271(4) 0.3768(3)
C7 C -0.0917(5) 1.0138(3) 0.3161(2)
C8 C -0.1531(5) 1.1125(3) 0.2530(2)
H8 H -0.2697 1.1160 0.2476
C9 C -0.0455(5) 1.2052(3) 0.1985(2)
H9 H -0.0898 1.2698 0.1567
C10 C 0.1285(4) 1.2026(3) 0.2056(2)
C11 C 0.1917(5) 1.1023(3) 0.2684(2)
H10 H 0.3081 1.0997 0.2741
C12 C 0.0849(5) 1.0075(3) 0.3221(2)
C13 C 0.1628(5) 0.8986(3) 0.3854(2)
C14 C 0.2563(4) 1.3052(3) 0.1499(2)
C15 C 0.3481(5) 1.3620(3) 0.2052(2)
C16 C 0.2538(5) 1.3744(3) 0.2827(2)
H11 H 0.1426 1.3425 0.3007
C17 C 0.3224(4) 1.4331(3) 0.3331(2)
C18 C 0.4874(4) 1.4834(3) 0.3060(2)
C19 C 0.5810(5) 1.4701(4) 0.2294(2)
H12 H 0.6920 1.5022 0.2111
C20 C 0.5134(5) 1.4104(4) 0.1798(2)
H13 H 0.5792 1.4025 0.1289
C21 C 0.5595(5) 1.5615(3) 0.3533(2)
C22 C 0.2124(5) 1.4282(3) 0.4187(2)
C23 C 0.3861(5) 1.2422(4) 0.0909(2)
C24 C 0.1652(5) 1.4181(4) 0.0918(2)
N1 N 0.0690(5) 0.7258(3) 0.2535(2)
N2 N 0.1102(5) 0.7917(3) 0.11291(19)
O1 O -0.2719(4) 0.8340(3) 0.3584(2)
O2 O -0.3129(9) 0.9496(7) 0.4327(5)
O3 O 0.0719(3) 0.8040(2) 0.42535(15)
O4 O 0.3167(3) 0.9096(2) 0.39323(18)
O5 O 0.0600(3) 1.4669(2) 0.42075(15)
O6 O 0.2766(3) 1.3728(2) 0.48598(14)
O7 O 0.4539(3) 1.6201(2) 0.39516(16)
O8 O 0.7236(3) 1.5611(2) 0.34459(16)
F1 F 0.4759(3) 1.3241(2) 0.02356(14)
F2 F 0.3053(3) 1.1686(2) 0.05838(15)
F3 F 0.5029(3) 1.1671(2) 0.13379(15)
F4 F 0.0980(3) 1.3851(2) 0.03186(13)
F5 F 0.2723(3) 1.5122(2) 0.04939(14)
F6 F 0.0361(3) 1.4675(2) 0.13703(14)
O9 O -0.7614(4) 0.6991(3) 0.56408(18)
H14 H -0.777(6) 0.620(2) 0.591(3)
H15 H -0.830(5) 0.727(4) 0.527(2)
O10 O -0.4873(4) 0.8326(3) 0.5878(2)
H16 H -0.579(3) 0.883(3) 0.574(3)
H17 H -0.396(3) 0.883(3) 0.572(3)
Cd1A Cd 0.07865(3) 1.34184(2) -0.389412(16)
Cd1_2 Cd -0.07865(3) 1.65816(2) 0.389412(16)
Cd1A_2 Cd 0.07865(3) 1.34184(2) 0.610588(16)
Cd1_3 Cd 0.92135(3) 1.65816(2) 0.389412(16)
Cd1_4 Cd -0.07865(3) -0.34184(2) 0.389412(16)
Cd1A_3 Cd 0.07865(3) 0.34184(2) 0.610588(16)
Cd1_5 Cd 0.92135(3) 0.65816(2) 0.389412(16)
Cd2_2 Cd -0.51092(4) -0.24143(3) 0.468650(18)
Cd2_3 Cd 0.48908(4) 0.75857(3) 0.468650(18)
Cd2A Cd 0.51092(4) 1.24143(3) 0.531350(18)
Cd2_4 Cd 0.48908(4) 1.75857(3) 0.468650(18)
Cd2_5 Cd 0.48908(4) -0.24143(3) 0.468650(18)
Cd2A_2 Cd 0.51092(4) 0.24143(3) 0.531350(18)
C1A C 0.0014(6) 1.2537(4) -0.1840(3)
H1A H 0.1167 1.2692 -0.1845
C2A C -0.2364(6) 1.2380(4) -0.2249(3)
H2A H -0.3187 1.2406 -0.2598
C3A C -0.2649(6) 1.1979(4) -0.1385(3)
H3A H -0.3684 1.1691 -0.1033
C4A C -0.0759(7) 1.1765(4) -0.0239(2)
H4A H 0.0351 1.2102 -0.0241
H5A H -0.1642 1.2173 0.0089
C5A C -0.0736(6) 1.0356(4) 0.0204(2)
H6A H -0.0633 1.0222 0.0802
H7A H -0.1829 1.0012 0.0187
C6_2 C -0.2248(6) -0.0729(4) 0.3768(3)
C7_2 C -0.0917(5) 0.0138(3) 0.3161(2)
C8_2 C -0.1531(5) 0.1125(3) 0.2530(2)
H8_2 H -0.2697 0.1160 0.2476
C9_2 C -0.0455(5) 0.2052(3) 0.1985(2)
H9_2 H -0.0898 0.2698 0.1567
C10_2 C 0.1285(4) 0.2026(3) 0.2056(2)
C11_2 C 0.1917(5) 0.1023(3) 0.2684(2)
H10_2 H 0.3081 0.0997 0.2741
C12_2 C 0.0849(5) 0.0075(3) 0.3221(2)
C13_2 C 0.1628(5) -0.1014(3) 0.3854(2)
C14_2 C 0.2563(4) 0.3052(3) 0.1499(2)
C15_2 C 0.3481(5) 0.3620(3) 0.2052(2)
C16_2 C 0.2538(5) 0.3744(3) 0.2827(2)
H11_2 H 0.1426 0.3425 0.3007
C17_2 C 0.3224(4) 0.4331(3) 0.3331(2)
C18_2 C 0.4874(4) 0.4834(3) 0.3060(2)
C19_2 C 0.5810(5) 0.4701(4) 0.2294(2)
H12_2 H 0.6920 0.5022 0.2111
C20_2 C 0.5134(5) 0.4104(4) 0.1798(2)
H13_2 H 0.5792 0.4025 0.1289
C21_2 C 0.5595(5) 0.5615(3) 0.3533(2)
C22_2 C 0.2124(5) 0.4282(3) 0.4187(2)
C23_2 C 0.3861(5) 0.2422(4) 0.0909(2)
C24_2 C 0.1652(5) 0.4181(4) 0.0918(2)
N1A N -0.0690(5) 1.2742(3) -0.2535(2)
N2A N -0.1102(5) 1.2083(3) -0.11291(19)
O1_2 O -0.2719(4) -0.1660(3) 0.3584(2)
O1A O 0.2719(4) 1.1660(3) -0.3584(2)
O2_2 O -0.3129(9) -0.0504(7) 0.4327(5)
O3_2 O 0.0719(3) -0.1960(2) 0.42535(15)
O3A O -0.0719(3) 1.1960(2) -0.42535(15)
O4_2 O 0.3167(3) -0.0904(2) 0.39323(18)
O4_3 O -0.6833(3) 0.9096(2) 0.39323(18)
O4_4 O -0.6833(3) -0.0904(2) 0.39323(18)
O5_2 O 0.0600(3) 0.4669(2) 0.42075(15)
O5A O -0.0600(3) 1.5331(2) -0.42075(15)
O6_2 O 0.2766(3) 0.3728(2) 0.48598(14)
O6A O -0.2766(3) 0.6272(2) 0.51402(14)
O6_3 O 0.2766(3) 1.3728(2) -0.51402(14)
O6A_2 O -0.2766(3) -0.3728(2) 0.51402(14)
O7_2 O 0.4539(3) 0.6201(2) 0.39516(16)
O7_3 O -0.5461(3) 0.6201(2) 0.39516(16)
O7_4 O -0.5461(3) -0.3799(2) 0.39516(16)
O8_2 O 0.7236(3) 0.5611(2) 0.34459(16)
O8_3 O -0.2764(3) 0.5611(2) 0.34459(16)
O8A O 0.2764(3) 1.4389(2) -0.34459(16)
F1_2 F 0.4759(3) 0.3241(2) 0.02356(14)
F2_2 F 0.3053(3) 0.1686(2) 0.05838(15)
F3_2 F 0.5029(3) 0.1671(2) 0.13379(15)
F4_2 F 0.0980(3) 0.3851(2) 0.03186(13)
F5_2 F 0.2723(3) 0.5122(2) 0.04939(14)
F6_2 F 0.0361(3) 0.4675(2) 0.13703(14)
O9_2 O -0.7614(4) -0.3009(3) 0.56408(18)
H14_2 H -0.777(6) -0.380(2) 0.591(3)
H15_2 H -0.830(5) -0.273(4) 0.527(2)
O10_2 O -0.4873(4) -0.1674(3) 0.5878(2)
H16_2 H -0.579(3) -0.117(3) 0.574(3)
H17_2 H -0.396(3) -0.117(3) 0.572(3)
O11 O -0.392(2) 0.8823(16) 0.1970(9)
O12? O -0.2557(16) 0.9724(11) 0.4561(8)
loop_
_geom_bond_atom_site_label_1
_geom_bond_atom_site_label_2
_geom_bond_site_symmetry_1
_geom_bond_site_symmetry_2
Cd1 N1 1_555 1_555
Cd2 O1 1_555 1_555
C1 H1 1_555 1_555
C2 H2 1_555 1_555
C3 C2 1_555 1_555
H3 C3 1_555 1_555
C4 H4 1_555 1_555
H5 C4 1_555 1_555
C5 C4 1_555 1_555
H6 C5 1_555 1_555
H7 C5 1_555 1_555
C6 C7 1_555 1_555
C7 C8 1_555 1_555
C8 H8 1_555 1_555
C9 C8 1_555 1_555
H9 C9 1_555 1_555
C10 C9 1_555 1_555
C11 C10 1_555 1_555
H10 C11 1_555 1_555
C12 C7 1_555 1_555
C13 C12 1_555 1_555
C14 C10 1_555 1_555
C15 C14 1_555 1_555
C16 C15 1_555 1_555
H11 C16 1_555 1_555
C17 C16 1_555 1_555
C18 C17 1_555 1_555
C19 C18 1_555 1_555
H12 C19 1_555 1_555
C20 C15 1_555 1_555
H13 C20 1_555 1_555
C21 C18 1_555 1_555
C22 C17 1_555 1_555
C23 C14 1_555 1_555
C24 C14 1_555 1_555
N1 C1 1_555 1_555
N2 C1 1_555 1_555
O1 Cd1 1_555 1_555
O2 Cd2 1_555 1_555
O3 Cd1 1_555 1_555
O4 C13 1_555 1_555
O5 C22 1_555 1_555
O6 C22 1_555 1_555
O7 C21 1_555 1_555
O8 C21 1_555 1_555
F1 C23 1_555 1_555
F2 C23 1_555 1_555
F3 C23 1_555 1_555
F4 C24 1_555 1_555
F5 C24 1_555 1_555
F6 C24 1_555 1_555
O9 Cd2 1_555 1_555
H14 O9 1_555 1_555
H15 O9 1_555 1_555
O10 Cd2 1_555 1_555
H16 O10 1_555 1_555
H17 O10 1_555 1_555
Cd1A N1A 1_555 1_555
Cd1_2 O5 1_555 1_555
Cd1A_2 O6 1_555 1_555
Cd1_3 O8 1_555 1_555
Cd1_4 O1_2 1_555 1_555
Cd1A_3 O6_2 1_555 1_555
Cd1_5 O8_2 1_555 1_555
Cd2_2 O1_2 1_555 1_555
Cd2_3 O4 1_555 1_555
Cd2A O6 1_555 1_555
Cd2_4 O7 1_555 1_555
Cd2_5 O4_2 1_555 1_555
Cd2A_2 O6_2 1_555 1_555
C1A H1A 1_555 1_555
C2A H2A 1_555 1_555
C3A C2A 1_555 1_555
H3A C3A 1_555 1_555
C4A H4A 1_555 1_555
H5A C4A 1_555 1_555
C5A C5 1_555 1_555
H6A C5A 1_555 1_555
H7A C5A 1_555 1_555
C6_2 C7_2 1_555 1_555
C7_2 C8_2 1_555 1_555
C8_2 H8_2 1_555 1_555
C9_2 C8_2 1_555 1_555
H9_2 C9_2 1_555 1_555
C10_2 C9_2 1_555 1_555
C11_2 C10_2 1_555 1_555
H10_2 C11_2 1_555 1_555
C12_2 C7_2 1_555 1_555
C13_2 C12_2 1_555 1_555
C14_2 C10_2 1_555 1_555
C15_2 C14_2 1_555 1_555
C16_2 C15_2 1_555 1_555
H11_2 C16_2 1_555 1_555
C17_2 C16_2 1_555 1_555
C18_2 C17_2 1_555 1_555
C19_2 C18_2 1_555 1_555
H12_2 C19_2 1_555 1_555
C20_2 C15_2 1_555 1_555
H13_2 C20_2 1_555 1_555
C21_2 C18_2 1_555 1_555
C22_2 C17_2 1_555 1_555
C23_2 C14_2 1_555 1_555
C24_2 C14_2 1_555 1_555
N1A C1A 1_555 1_555
N2A C1A 1_555 1_555
O1_2 C6_2 1_555 1_555
O1A Cd1A 1_555 1_555
O2_2 Cd2_2 1_555 1_555
O3_2 Cd1_4 1_555 1_555
O3A Cd1A 1_555 1_555
O4_2 C13_2 1_555 1_555
O4_3 Cd2 1_555 1_555
O4_4 Cd2_2 1_555 1_555
O5_2 Cd1 1_555 1_555
O5A Cd1A 1_555 1_555
O6_2 C22_2 1_555 1_555
O6A Cd1 1_555 1_555
O6_3 Cd1A 1_555 1_555
O6A_2 Cd1_4 1_555 1_555
O7_2 Cd2_3 1_555 1_555
O7_3 Cd2 1_555 1_555
O7_4 Cd2_2 1_555 1_555
O8_2 C21_2 1_555 1_555
O8_3 Cd1 1_555 1_555
O8A Cd1A 1_555 1_555
F1_2 C23_2 1_555 1_555
F2_2 C23_2 1_555 1_555
F3_2 C23_2 1_555 1_555
F4_2 C24_2 1_555 1_555
F5_2 C24_2 1_555 1_555
F6_2 C24_2 1_555 1_555
O9_2 Cd2_2 1_555 1_555
H14_2 O9_2 1_555 1_555
H15_2 O9_2 1_555 1_555
O10_2 Cd2_2 1_555 1_555
H16_2 O10_2 1_555 1_555
H17_2 O10_2 1_555 1_555
Cd2 O6A 1_555 1_555
C2 N1 1_555 1_555
C3 N2 1_555 1_555
C4 N2 1_555 1_555
C6 O1 1_555 1_555
C6 O2 1_555 1_555
C11 C12 1_555 1_555
C13 O3 1_555 1_555
C19 C20 1_555 1_555
Cd2_2 O6A_2 1_555 1_555
C2A N1A 1_555 1_555
C3A N2A 1_555 1_555
C4A C5A 1_555 1_555
C4A N2A 1_555 1_555
C6_2 O2_2 1_555 1_555
C11_2 C12_2 1_555 1_555
C13_2 O3_2 1_555 1_555
C19_2 C20_2 1_555 1_555
C21_2 O7_2 1_555 1_555
C22_2 O5_2 1_555 1_555

#END
