
#######################################################################
#
#                 Cambridge Crystallographic Data Centre
#                                CCDC 
#
#######################################################################
#
# If this CIF has been generated from an entry in the Cambridge 
# Structural Database, then it will include bibliographic, chemical, 
# crystal, experimental, refinement or atomic coordinate data resulting 
# from the CCDC's data processing and validation procedures.
#
#######################################################################

data_LABFUR
_symmetry_cell_setting           triclinic
_symmetry_space_group_name_H-M   'P -1'
_symmetry_Int_Tables_number      2
_space_group_name_Hall           '-P 1'
loop_
_symmetry_equiv_pos_site_id
_symmetry_equiv_pos_as_xyz
1 x,y,z
2 -x,-y,-z
_cell_length_a                   7.7343(4)
_cell_length_b                   10.9887(8)
_cell_length_c                   16.5426(10)
_cell_angle_alpha                73.026(6)
_cell_angle_beta                 80.561(5)
_cell_angle_gamma                85.382(5)
_cell_volume                     1325.71
loop_
_atom_site_label
_atom_site_type_symbol
_atom_site_fract_x
_atom_site_fract_y
_atom_site_fract_z
Mn1 Mn 0.91683(5) 0.16843(4) 0.38762(3)
Mn2 Mn 1.49554(6) 0.24459(4) 0.47123(3)
C1 C 1.2023(4) 0.5956(3) 0.27272(19)
H1 H 1.3209 0.5912 0.2775
C2 C 1.0951(4) 0.5011(3) 0.32676(19)
C3 C 0.9150(4) 0.5117(3) 0.32218(19)
C4 C 0.8512(4) 0.6101(3) 0.2604(2)
H2 H 0.7323 0.6154 0.2560
C5 C 0.9610(4) 0.7015(3) 0.2047(2)
H3 H 0.9157 0.7661 0.1625
C6 C 1.1373(4) 0.6973(3) 0.21136(18)
C7 C 1.2659(4) 0.8008(3) 0.15504(19)
C8 C 1.3571(4) 0.8594(3) 0.20994(18)
C9 C 1.5268(4) 0.9075(3) 0.1834(2)
H4 H 1.5934 0.8974 0.1334
C10 C 1.5935(4) 0.9700(3) 0.2324(2)
H5 H 1.7058 1.0012 0.2148
C11 C 1.4986(4) 0.9876(3) 0.30669(18)
C12 C 1.3303(4) 0.9373(3) 0.33504(18)
C13 C 1.2637(4) 0.8748(3) 0.28516(18)
H6 H 1.1521 0.8422 0.3033
C14 C 1.1734(4) 0.3887(3) 0.38765(19)
C15 C 0.7838(4) 0.4312(3) 0.3898(2)
C16 C 1.1707(4) 0.9135(3) 0.0967(2)
C17 C 1.3956(4) 0.7360(3) 0.0966(2)
C18 C 1.5713(4) 1.0678(3) 0.35264(19)
C19 C 1.2173(4) 0.9422(3) 0.41674(18)
C20 C 0.9855(5) 0.2550(3) 0.1847(2)
H7 H 0.8676 0.2444 0.1843
C21 C 1.2297(5) 0.2621(4) 0.2267(2)
H8 H 1.3141 0.2569 0.2618
C22 C 1.2600(5) 0.2949(4) 0.1409(2)
H9 H 1.3670 0.3166 0.1064
C23 C 1.0687(6) 0.3192(4) 0.0261(2)
H10 H 0.9551 0.2875 0.0262
H11 H 1.1566 0.2753 -0.0052
C24 C 1.0707(5) 0.4617(4) -0.0194(2)
H12 H 1.1838 0.4932 -0.0184
H13 H 1.0578 0.4747 -0.0787
N1 N 1.0548(4) 0.2372(3) 0.25488(17)
N2 N 1.1033(4) 0.2903(3) 0.11414(17)
O1 O 1.0760(3) 0.29422(19) 0.42432(14)
O2 O 1.3282(3) 0.3931(2) 0.39823(15)
O3 O 0.7244(3) 0.3352(2) 0.37733(17)
O4 O 0.7381(4) 0.4712(3) 0.4536(2)
O5 O 1.4629(3) 1.1210(2) 0.39709(14)
O6 O 1.7352(3) 1.0771(2) 0.34035(14)
O7 O 1.0717(3) 0.9979(2) 0.41251(14)
O8 O 1.2683(3) 0.87787(19) 0.48675(13)
F1 F 1.0421(3) 0.96603(18) 0.14176(13)
F2 F 1.2794(3) 1.00767(18) 0.05421(13)
F3 F 1.1001(3) 0.88126(19) 0.03775(12)
F4 F 1.4841(3) 0.8180(2) 0.02940(12)
F5 F 1.5146(3) 0.6609(2) 0.13888(13)
F6 F 1.3122(3) 0.6625(2) 0.06420(13)
O10 O 1.2468(3) 0.1805(3) 0.55739(17)
H14 H 1.167(4) 0.211(4) 0.523(2)
H15 H 1.222(5) 0.104(2) 0.591(2)
O11 O 1.5086(3) 0.3307(2) 0.57476(17)
H16 H 1.400(3) 0.369(3) 0.580(3)
H17 H 1.585(4) 0.393(3) 0.547(3)
Mn1A Mn 1.08317(5) 0.83157(4) -0.38762(3)
Mn1_2 Mn 1.91683(5) 1.16843(4) 0.38762(3)
Mn1_3 Mn 0.91683(5) 1.16843(4) 0.38762(3)
Mn1A_2 Mn 1.08317(5) 0.83157(4) 0.61238(3)
Mn1_4 Mn -0.08317(5) -0.83157(4) 0.38762(3)
Mn1_5 Mn -0.08317(5) 0.16843(4) 0.38762(3)
Mn1A_3 Mn 0.08317(5) -0.16843(4) 0.61238(3)
Mn2_2 Mn 0.49554(6) -0.75541(4) 0.47123(3)
Mn2_3 Mn 0.49554(6) 0.24459(4) 0.47123(3)
Mn2_4 Mn 1.49554(6) 1.24459(4) 0.47123(3)
Mn2A Mn 1.50446(6) 0.75541(4) 0.52877(3)
Mn2_5 Mn -0.50446(6) -0.75541(4) 0.47123(3)
Mn2A_2 Mn 0.50446(6) -0.24459(4) 0.52877(3)
C1_2 C 0.2023(4) -0.4044(3) 0.27272(19)
H1_2 H 0.3209 -0.4088 0.2775
C2_2 C 0.0951(4) -0.4989(3) 0.32676(19)
C3_2 C -0.0850(4) -0.4883(3) 0.32218(19)
C4_2 C -0.1488(4) -0.3899(3) 0.2604(2)
H2_2 H -0.2677 -0.3846 0.2560
C5_2 C -0.0390(4) -0.2985(3) 0.2047(2)
H3_2 H -0.0843 -0.2339 0.1625
C6_2 C 0.1373(4) -0.3027(3) 0.21136(18)
C7_2 C 0.2659(4) -0.1992(3) 0.15504(19)
C8_2 C 0.3571(4) -0.1406(3) 0.20994(18)
C9_2 C 0.5268(4) -0.0925(3) 0.1834(2)
H4_2 H 0.5934 -0.1026 0.1334
C10_2 C 0.5935(4) -0.0300(3) 0.2324(2)
H5_2 H 0.7058 0.0012 0.2148
C11_2 C 0.4986(4) -0.0124(3) 0.30669(18)
C12_2 C 0.3303(4) -0.0627(3) 0.33504(18)
C13_2 C 0.2637(4) -0.1252(3) 0.28516(18)
H6_2 H 0.1521 -0.1578 0.3033
C14_2 C 0.1734(4) -0.6113(3) 0.38765(19)
C15_2 C -0.2162(4) -0.5688(3) 0.3898(2)
C16_2 C 0.1707(4) -0.0865(3) 0.0967(2)
C17_2 C 0.3956(4) -0.2640(3) 0.0966(2)
C18_2 C 0.5713(4) 0.0678(3) 0.35264(19)
C19_2 C 0.2173(4) -0.0578(3) 0.41674(18)
C20A C 1.0145(5) 0.7450(3) -0.1847(2)
H7A H 1.1324 0.7556 -0.1843
C21A C 0.7703(5) 0.7379(4) -0.2267(2)
H8A H 0.6859 0.7431 -0.2618
C22A C 0.7400(5) 0.7051(4) -0.1409(2)
H9A H 0.6330 0.6834 -0.1064
C23A C 0.9313(6) 0.6808(4) -0.0261(2)
H10A H 1.0449 0.7125 -0.0262
H11A H 0.8434 0.7247 0.0052
C24A C 0.9293(5) 0.5383(4) 0.0194(2)
H12A H 0.8162 0.5068 0.0184
H13A H 0.9422 0.5253 0.0787
N1A N 0.9452(4) 0.7628(3) -0.25488(17)
N2A N 0.8967(4) 0.7097(3) -0.11414(17)
O1_2 O 0.0760(3) -0.70578(19) 0.42432(14)
O1A O 0.9240(3) 0.70578(19) -0.42432(14)
O2_2 O 0.3282(3) -0.6069(2) 0.39823(15)
O3_2 O -0.2756(3) -0.6648(2) 0.37733(17)
O3_3 O 1.7244(3) 0.3352(2) 0.37733(17)
O3A O 1.2756(3) 0.6648(2) -0.37733(17)
O3_4 O 0.7244(3) -0.6648(2) 0.37733(17)
O4_2 O -0.2619(4) -0.5288(3) 0.4536(2)
O5_2 O 0.4629(3) 0.1210(2) 0.39709(14)
O5_3 O 1.4629(3) 0.1210(2) 0.39709(14)
O5_4 O 0.4629(3) -0.8790(2) 0.39709(14)
O6_2 O 0.7352(3) 0.0771(2) 0.34035(14)
O6A O 1.2648(3) 0.9229(2) -0.34035(14)
O7_2 O 0.0717(3) -0.0021(2) 0.41251(14)
O7_3 O 1.0717(3) -0.0021(2) 0.41251(14)
O7A O 0.9283(3) 1.0021(2) -0.41251(14)
O8_2 O 0.2683(3) -0.12213(19) 0.48675(13)
O8A O 0.7317(3) 0.12213(19) 0.51325(13)
O8A_2 O 1.7317(3) 0.12213(19) 0.51325(13)
O8_3 O 1.2683(3) 0.87787(19) -0.51325(13)
O8A_3 O 0.7317(3) -0.87787(19) 0.51325(13)
F1_2 F 0.0421(3) -0.03397(18) 0.14176(13)
F2_2 F 0.2794(3) 0.00767(18) 0.05421(13)
F3_2 F 0.1001(3) -0.11874(19) 0.03775(12)
F4_2 F 0.4841(3) -0.1820(2) 0.02940(12)
F5_2 F 0.5146(3) -0.3391(2) 0.13888(13)
F6_2 F 0.3122(3) -0.3375(2) 0.06420(13)
O10_2 O 0.2468(3) -0.8195(3) 0.55739(17)
H14_2 H 0.167(4) -0.789(4) 0.523(2)
H15_2 H 0.222(5) -0.896(2) 0.591(2)
O11_2 O 0.5086(3) -0.6693(2) 0.57476(17)
H16_2 H 0.400(3) -0.631(3) 0.580(3)
H17_2 H 0.585(4) -0.607(3) 0.547(3)
O9 O 0.6026(17) 0.3807(14) 0.2090(9)
loop_
_geom_bond_atom_site_label_1
_geom_bond_atom_site_label_2
_geom_bond_site_symmetry_1
_geom_bond_site_symmetry_2
Mn1 N1 1_555 1_555
Mn2 O2 1_555 1_555
C1 H1 1_555 1_555
C2 C1 1_555 1_555
C3 C2 1_555 1_555
C4 C3 1_555 1_555
H2 C4 1_555 1_555
C5 C4 1_555 1_555
H3 C5 1_555 1_555
C6 C1 1_555 1_555
C7 C6 1_555 1_555
C8 C7 1_555 1_555
C9 C8 1_555 1_555
H4 C9 1_555 1_555
C10 C9 1_555 1_555
H5 C10 1_555 1_555
C11 C10 1_555 1_555
C12 C11 1_555 1_555
C13 C8 1_555 1_555
H6 C13 1_555 1_555
C14 C2 1_555 1_555
C15 C3 1_555 1_555
C16 C7 1_555 1_555
C17 C7 1_555 1_555
C18 C11 1_555 1_555
C19 C12 1_555 1_555
C20 H7 1_555 1_555
C21 H8 1_555 1_555
C22 C21 1_555 1_555
H9 C22 1_555 1_555
C23 H10 1_555 1_555
H11 C23 1_555 1_555
C24 C23 1_555 1_555
H12 C24 1_555 1_555
H13 C24 1_555 1_555
N1 C20 1_555 1_555
N2 C20 1_555 1_555
O1 Mn1 1_555 1_555
O2 C14 1_555 1_555
O3 Mn1 1_555 1_555
O4 C15 1_555 1_555
O5 C18 1_555 1_555
O6 C18 1_555 1_555
O7 C19 1_555 1_555
O8 C19 1_555 1_555
F1 C16 1_555 1_555
F2 C16 1_555 1_555
F3 C16 1_555 1_555
F4 C17 1_555 1_555
F5 C17 1_555 1_555
F6 C17 1_555 1_555
O10 Mn2 1_555 1_555
H14 O10 1_555 1_555
H15 O10 1_555 1_555
O11 Mn2 1_555 1_555
H16 O11 1_555 1_555
H17 O11 1_555 1_555
Mn1A N1A 1_555 1_555
Mn1_2 O6 1_555 1_555
Mn1_3 O7 1_555 1_555
Mn1A_2 O8 1_555 1_555
Mn1_4 O1_2 1_555 1_555
Mn1_5 O7_2 1_555 1_555
Mn1A_3 O8_2 1_555 1_555
Mn2_2 O2_2 1_555 1_555
Mn2_3 O3 1_555 1_555
Mn2_4 O5 1_555 1_555
Mn2A O8 1_555 1_555
Mn2_5 O3_2 1_555 1_555
Mn2A_2 O8_2 1_555 1_555
C1_2 H1_2 1_555 1_555
C2_2 C1_2 1_555 1_555
C3_2 C2_2 1_555 1_555
C4_2 C3_2 1_555 1_555
H2_2 C4_2 1_555 1_555
C5_2 C4_2 1_555 1_555
H3_2 C5_2 1_555 1_555
C6_2 C1_2 1_555 1_555
C7_2 C6_2 1_555 1_555
C8_2 C7_2 1_555 1_555
C9_2 C8_2 1_555 1_555
H4_2 C9_2 1_555 1_555
C10_2 C9_2 1_555 1_555
H5_2 C10_2 1_555 1_555
C11_2 C10_2 1_555 1_555
C12_2 C11_2 1_555 1_555
C13_2 C8_2 1_555 1_555
H6_2 C13_2 1_555 1_555
C14_2 C2_2 1_555 1_555
C15_2 C3_2 1_555 1_555
C16_2 C7_2 1_555 1_555
C17_2 C7_2 1_555 1_555
C18_2 C11_2 1_555 1_555
C19_2 C12_2 1_555 1_555
C20A H7A 1_555 1_555
C21A H8A 1_555 1_555
C22A C21A 1_555 1_555
H9A C22A 1_555 1_555
C23A H10A 1_555 1_555
H11A C23A 1_555 1_555
C24A C24 1_555 1_555
H12A C24A 1_555 1_555
H13A C24A 1_555 1_555
N1A C20A 1_555 1_555
N2A C20A 1_555 1_555
O1_2 C14_2 1_555 1_555
O1A Mn1A 1_555 1_555
O2_2 C14_2 1_555 1_555
O3_2 Mn1_4 1_555 1_555
O3_3 Mn2 1_555 1_555
O3A Mn1A 1_555 1_555
O3_4 Mn2_2 1_555 1_555
O4_2 C15_2 1_555 1_555
O5_2 Mn2_3 1_555 1_555
O5_3 Mn2 1_555 1_555
O5_4 Mn2_2 1_555 1_555
O6_2 Mn1 1_555 1_555
O6A Mn1A 1_555 1_555
O7_2 C19_2 1_555 1_555
O7_3 Mn1 1_555 1_555
O7A Mn1A 1_555 1_555
O8_2 C19_2 1_555 1_555
O8A Mn1 1_555 1_555
O8A_2 Mn2 1_555 1_555
O8_3 Mn1A 1_555 1_555
O8A_3 Mn2_2 1_555 1_555
F1_2 C16_2 1_555 1_555
F2_2 C16_2 1_555 1_555
F3_2 C16_2 1_555 1_555
F4_2 C17_2 1_555 1_555
F5_2 C17_2 1_555 1_555
F6_2 C17_2 1_555 1_555
O10_2 Mn2_2 1_555 1_555
H14_2 O10_2 1_555 1_555
H15_2 O10_2 1_555 1_555
O11_2 Mn2_2 1_555 1_555
H16_2 O11_2 1_555 1_555
H17_2 O11_2 1_555 1_555
C5 C6 1_555 1_555
C12 C13 1_555 1_555
C14 O1 1_555 1_555
C15 O3 1_555 1_555
C21 N1 1_555 1_555
C22 N2 1_555 1_555
C23 N2 1_555 1_555
Mn2_3 O8A 1_555 1_555
C5_2 C6_2 1_555 1_555
C12_2 C13_2 1_555 1_555
C15_2 O3_2 1_555 1_555
C18_2 O5_2 1_555 1_555
C18_2 O6_2 1_555 1_555
C21A N1A 1_555 1_555
C22A N2A 1_555 1_555
C23A C24A 1_555 1_555
C23A N2A 1_555 1_555

#END
