
#######################################################################
#
#                 Cambridge Crystallographic Data Centre
#                                CCDC 
#
#######################################################################
#
# If this CIF has been generated from an entry in the Cambridge 
# Structural Database, then it will include bibliographic, chemical, 
# crystal, experimental, refinement or atomic coordinate data resulting 
# from the CCDC's data processing and validation procedures.
#
#######################################################################

data_LABFIF
_symmetry_cell_setting           triclinic
_symmetry_space_group_name_H-M   'P -1'
_symmetry_Int_Tables_number      2
_space_group_name_Hall           '-P 1'
loop_
_symmetry_equiv_pos_site_id
_symmetry_equiv_pos_as_xyz
1 x,y,z
2 -x,-y,-z
_cell_length_a                   10.590(4)
_cell_length_b                   11.460(6)
_cell_length_c                   17.775(9)
_cell_angle_alpha                77.232(19)
_cell_angle_beta                 75.175(16)
_cell_angle_gamma                63.319(15)
_cell_volume                     1849.22
loop_
_atom_site_label
_atom_site_type_symbol
_atom_site_fract_x
_atom_site_fract_y
_atom_site_fract_z
Cd1 Cd 0.348001(19) 0.367798(19) 0.068503(11)
C1 C 0.1227(3) 0.4353(3) 0.23789(18)
H1 H 0.1802 0.3595 0.2661
C2 C 0.0414(3) 0.5849(3) 0.14476(19)
H2 H 0.0332 0.6324 0.0952
C3 C -0.0553(3) 0.6209(3) 0.2102(2)
H3 H -0.1412 0.6960 0.2143
C4 C -0.0754(4) 0.5220(4) 0.35168(19)
H4 H -0.1099 0.6075 0.3689
H5 H -0.0075 0.4579 0.3841
C5 C -0.2011(4) 0.4861(4) 0.36191(19)
H6 H -0.1651 0.3977 0.3486
H7 H -0.2641 0.5457 0.3258
C6 C -0.2879(4) 0.4927(4) 0.4457(2)
H8 H -0.3128 0.5774 0.4613
H9 H -0.3767 0.4872 0.4459
C7 C -0.2107(3) 0.3864(3) 0.50499(18)
H10 H -0.1919 0.3015 0.4921
H11 H -0.1191 0.3879 0.5032
C8 C -0.3690(3) 0.3352(3) 0.62512(19)
H12 H -0.3779 0.2692 0.6074
C9 C -0.3074(4) 0.4904(4) 0.6308(2)
H13 H -0.2661 0.5505 0.6169
C10 C -0.3896(5) 0.4726(4) 0.6995(2)
H14 H -0.4160 0.5176 0.7425
C11 C 0.2410(3) 0.1883(3) 0.01020(19)
H15 H 0.1949 0.2583 -0.0254
C12 C 0.3613(4) 0.0713(4) 0.1017(2)
H16 H 0.4148 0.0463 0.1412
C13 C 0.3213(4) -0.0081(4) 0.0765(3)
H17 H 0.3410 -0.0959 0.0951
C14 C 0.1751(4) 0.0263(4) -0.0255(2)
H18 H 0.2402 -0.0600 -0.0410
H19 H 0.1543 0.0874 -0.0728
C15 C 0.0362(4) 0.0209(4) 0.02261(19)
H20 H 0.0570 -0.0407 0.0697
H21 H -0.0288 0.1070 0.0385
C16 C 0.5743(3) 0.2941(3) 0.14698(15)
C17 C 0.7142(3) 0.2677(2) 0.16991(15)
C18 C 0.7642(3) 0.1696(3) 0.23071(15)
H22 H 0.7120 0.1205 0.2561
C19 C 0.8916(3) 0.1433(3) 0.25440(16)
C20 C 0.9692(3) 0.2157(3) 0.21547(17)
H23 H 1.0558 0.1973 0.2293
C21 C 0.9182(3) 0.3158(3) 0.15575(17)
H24 H 0.9696 0.3660 0.1312
C22 C 0.7924(3) 0.3418(3) 0.13240(15)
C23 C 0.7503(3) 0.4472(3) 0.06329(17)
C24 C 0.9429(3) 0.0275(3) 0.32034(16)
C25 C 1.0032(3) -0.1003(3) 0.28198(18)
C26 C 1.0639(3) 0.0301(3) 0.35342(18)
C27 C 0.8210(3) 0.0334(3) 0.39130(15)
C28 C 0.8222(3) -0.0777(3) 0.44062(17)
H25 H 0.8928 -0.1590 0.4272
C29 C 0.7224(3) -0.0747(3) 0.51002(17)
C30 C 0.7496(3) -0.2105(3) 0.5553(2)
C31 C 0.6154(3) 0.0491(3) 0.53098(16)
C32 C 0.5027(3) 0.0792(4) 0.60463(18)
C33 C 0.6129(3) 0.1593(3) 0.47922(17)
H26 H 0.5403 0.2408 0.4908
C34 C 0.7131(3) 0.1545(3) 0.41093(17)
H27 H 0.7083 0.2315 0.3784
N1 N 0.1549(3) 0.4674(3) 0.16164(15)
N2 N -0.0030(3) 0.5254(3) 0.26960(15)
N3 N -0.2958(3) 0.4034(2) 0.58500(14)
N4 N 0.3106(3) 0.1948(3) 0.06010(15)
N5 N 0.2455(3) 0.0676(3) 0.01774(16)
O1 O 0.5465(3) 0.2004(2) 0.14640(15)
O2 O 0.4937(2) 0.4136(2) 0.12816(12)
O3 O 0.7346(2) 0.4152(2) 0.00464(12)
O4 O 0.7406(3) 0.5576(2) 0.06612(17)
O5 O 0.8450(3) -0.3075(2) 0.52681(18)
O6 O 0.6727(3) -0.2213(3) 0.62305(16)
H28 H 0.6143 -0.1479 0.6342
O7 O 0.4778(3) -0.0150(3) 0.65035(15)
O8 O 0.4372(3) 0.1915(3) 0.61976(17)
F1 F 1.0244(2) 0.1467(2) 0.37612(12)
F2 F 1.18771(19) 0.0029(2) 0.30300(12)
F3 F 1.0943(2) -0.0585(2) 0.41692(11)
F4 F 1.0911(3) -0.0954(2) 0.21427(12)
F5 F 1.0794(2) -0.20785(18) 0.32624(12)
F6 F 0.8976(2) -0.1198(2) 0.26839(14)
O11 O 0.5591(3) 0.3275(2) -0.03336(14)
H33 H 0.623(4) 0.352(4) -0.022(2)
H34 H 0.530(4) 0.392(3) -0.0746(19)
N6 N -0.4272(3) 0.3764(3) 0.69430(17)
H35 H -0.476(4) 0.346(4) 0.7344(18)
Cd1A Cd -0.348001(19) -0.367798(19) -0.068503(11)
Cd1A_2 Cd 0.651999(19) 0.632202(19) -0.068503(11)
C1A C -0.1227(3) -0.4353(3) -0.23789(18)
H1A H -0.1802 -0.3595 -0.2661
C2A C -0.0414(3) -0.5849(3) -0.14476(19)
H2A H -0.0332 -0.6324 -0.0952
C3A C 0.0553(3) -0.6209(3) -0.2102(2)
H3A H 0.1412 -0.6960 -0.2143
C4A C 0.0754(4) -0.5220(4) -0.35168(19)
H4A H 0.1099 -0.6075 -0.3689
H5A H 0.0075 -0.4579 -0.3841
C5A C 0.2011(4) -0.4861(4) -0.36191(19)
H6A H 0.1651 -0.3977 -0.3486
H7A H 0.2641 -0.5457 -0.3258
C6A C 0.2879(4) -0.4927(4) -0.4457(2)
H8A H 0.3128 -0.5774 -0.4613
H9A H 0.3767 -0.4872 -0.4459
C7A C 0.2107(3) -0.3864(3) -0.50499(18)
H10A H 0.1919 -0.3015 -0.4921
H11A H 0.1191 -0.3879 -0.5032
C8A C 0.3690(3) -0.3352(3) -0.62512(19)
H12A H 0.3779 -0.2692 -0.6074
C9A C 0.3074(4) -0.4904(4) -0.6308(2)
H13A H 0.2661 -0.5505 -0.6169
C10A C 0.3896(5) -0.4726(4) -0.6995(2)
H14A H 0.4160 -0.5176 -0.7425
C11A C -0.2410(3) -0.1883(3) -0.01020(19)
H15A H -0.1949 -0.2583 0.0254
C12A C -0.3613(4) -0.0713(4) -0.1017(2)
H16A H -0.4148 -0.0463 -0.1412
C13A C -0.3213(4) 0.0081(4) -0.0765(3)
H17A H -0.3410 0.0959 -0.0951
C14A C -0.1751(4) -0.0263(4) 0.0255(2)
H18A H -0.2402 0.0600 0.0410
H19A H -0.1543 -0.0874 0.0728
C15A C -0.0362(4) -0.0209(4) -0.02261(19)
H20A H -0.0570 0.0407 -0.0697
H21A H 0.0288 -0.1070 -0.0385
C16A C 0.4257(3) 0.7059(3) -0.14698(15)
C17A C 0.2858(3) 0.7323(2) -0.16991(15)
C18A C 0.2358(3) 0.8304(3) -0.23071(15)
H22A H 0.2880 0.8795 -0.2561
C19A C 0.1084(3) 0.8567(3) -0.25440(16)
C20A C 0.0308(3) 0.7843(3) -0.21547(17)
H23A H -0.0558 0.8027 -0.2293
C21A C 0.0818(3) 0.6842(3) -0.15575(17)
H24A H 0.0304 0.6340 -0.1312
C22A C 0.2076(3) 0.6582(3) -0.13240(15)
C23A C 0.2497(3) 0.5528(3) -0.06329(17)
C24A C 0.0571(3) 0.9725(3) -0.32034(16)
C25A C -0.0032(3) 1.1003(3) -0.28198(18)
C26A C -0.0639(3) 0.9699(3) -0.35342(18)
C27A C 0.1790(3) 0.9666(3) -0.39130(15)
C28A C 0.1778(3) 1.0777(3) -0.44062(17)
H25A H 0.1072 1.1590 -0.4272
C29A C 0.2776(3) 1.0747(3) -0.51002(17)
C30A C 0.2504(3) 1.2105(3) -0.5553(2)
C31A C 0.3846(3) 0.9509(3) -0.53098(16)
C32A C 0.4973(3) 0.9208(4) -0.60463(18)
C33A C 0.3871(3) 0.8407(3) -0.47922(17)
H26A H 0.4597 0.7592 -0.4908
C34A C 0.2869(3) 0.8455(3) -0.41093(17)
H27A H 0.2917 0.7685 -0.3784
N1A N -0.1549(3) -0.4674(3) -0.16164(15)
N2A N 0.0030(3) -0.5254(3) -0.26960(15)
N3A N 0.2958(3) -0.4034(2) -0.58500(14)
N4A N -0.3106(3) -0.1948(3) -0.06010(15)
N5A N -0.2455(3) -0.0676(3) -0.01774(16)
O1A O 0.4535(3) 0.7996(2) -0.14640(15)
O1A_2 O -0.5465(3) -0.2004(2) -0.14640(15)
O2A O 0.5063(2) 0.5864(2) -0.12816(12)
O2A_2 O -0.4937(2) -0.4136(2) -0.12816(12)
O3A O 0.2654(2) 0.5848(2) -0.00464(12)
O3_2 O -0.2654(2) -0.5848(2) 0.00464(12)
O4A O 0.2594(3) 0.4424(2) -0.06612(17)
O4_2 O -0.2594(3) -0.4424(2) 0.06612(17)
O5A O 0.1550(3) 1.3075(2) -0.52681(18)
O6A O 0.3273(3) 1.2213(3) -0.62305(16)
H28A H 0.3857 1.1479 -0.6342
O7A O 0.5222(3) 1.0150(3) -0.65035(15)
O8A O 0.5628(3) 0.8085(3) -0.61976(17)
F1A F -0.0244(2) 0.8533(2) -0.37612(12)
F2A F -0.18771(19) 0.9971(2) -0.30300(12)
F3A F -0.0943(2) 1.0585(2) -0.41692(11)
F4A F -0.0911(3) 1.0954(2) -0.21427(12)
F5A F -0.0794(2) 1.20785(18) -0.32624(12)
F6A F 0.1024(2) 1.1198(2) -0.26839(14)
O11A O -0.5591(3) -0.3275(2) 0.03336(14)
H33A H -0.623(4) -0.352(4) 0.022(2)
H34A H -0.530(4) -0.392(3) 0.0746(19)
N6A N 0.4272(3) -0.3764(3) -0.69430(17)
H35A H 0.476(4) -0.346(4) -0.7344(18)
O9 O 0.3559(3) 0.0813(3) 0.79947(15)
H29 H 0.381(5) 0.000(3) 0.826(2)
H30 H 0.381(5) 0.068(4) 0.7497(12)
O10 O -0.5764(4) 0.2816(4) 0.81484(19)
H31 H -0.589(6) 0.210(4) 0.813(4)
H32 H -0.639(5) 0.321(5) 0.854(3)
loop_
_geom_bond_atom_site_label_1
_geom_bond_atom_site_label_2
_geom_bond_site_symmetry_1
_geom_bond_site_symmetry_2
Cd1 N1 1_555 1_555
C1 H1 1_555 1_555
C2 H2 1_555 1_555
C3 C2 1_555 1_555
H3 C3 1_555 1_555
C4 H4 1_555 1_555
H5 C4 1_555 1_555
C5 C4 1_555 1_555
H6 C5 1_555 1_555
H7 C5 1_555 1_555
C6 C5 1_555 1_555
H8 C6 1_555 1_555
H9 C6 1_555 1_555
C7 C6 1_555 1_555
H10 C7 1_555 1_555
H11 C7 1_555 1_555
C8 H12 1_555 1_555
C9 H13 1_555 1_555
C10 C9 1_555 1_555
H14 C10 1_555 1_555
C11 H15 1_555 1_555
C12 H16 1_555 1_555
C13 C12 1_555 1_555
H17 C13 1_555 1_555
C14 H18 1_555 1_555
H19 C14 1_555 1_555
C15 C14 1_555 1_555
H20 C15 1_555 1_555
H21 C15 1_555 1_555
C16 C17 1_555 1_555
C17 C18 1_555 1_555
C18 H22 1_555 1_555
C19 C18 1_555 1_555
C20 C19 1_555 1_555
H23 C20 1_555 1_555
C21 C20 1_555 1_555
H24 C21 1_555 1_555
C22 C17 1_555 1_555
C23 C22 1_555 1_555
C24 C19 1_555 1_555
C25 C24 1_555 1_555
C26 C24 1_555 1_555
C27 C24 1_555 1_555
C28 C27 1_555 1_555
H25 C28 1_555 1_555
C29 C28 1_555 1_555
C30 C29 1_555 1_555
C31 C29 1_555 1_555
C32 C31 1_555 1_555
C33 C31 1_555 1_555
H26 C33 1_555 1_555
C34 C27 1_555 1_555
H27 C34 1_555 1_555
N1 C1 1_555 1_555
N2 C1 1_555 1_555
N3 C7 1_555 1_555
N4 Cd1 1_555 1_555
N5 C11 1_555 1_555
O1 Cd1 1_555 1_555
O2 Cd1 1_555 1_555
O3 C23 1_555 1_555
O4 C23 1_555 1_555
O5 C30 1_555 1_555
O6 C30 1_555 1_555
H28 O6 1_555 1_555
O7 C32 1_555 1_555
O8 C32 1_555 1_555
F1 C26 1_555 1_555
F2 C26 1_555 1_555
F3 C26 1_555 1_555
F4 C25 1_555 1_555
F5 C25 1_555 1_555
F6 C25 1_555 1_555
O9 H29 1_555 1_555
H30 O9 1_555 1_555
O10 H31 1_555 1_555
H32 O10 1_555 1_555
O11 Cd1 1_555 1_555
H33 O11 1_555 1_555
H34 O11 1_555 1_555
N6 C8 1_555 1_555
H35 N6 1_555 1_555
Cd1A N1A 1_555 1_555
Cd1A_2 O3 1_555 1_555
C1A H1A 1_555 1_555
C2A H2A 1_555 1_555
C3A C2A 1_555 1_555
H3A C3A 1_555 1_555
C4A H4A 1_555 1_555
H5A C4A 1_555 1_555
C5A C4A 1_555 1_555
H6A C5A 1_555 1_555
H7A C5A 1_555 1_555
C6A C5A 1_555 1_555
H8A C6A 1_555 1_555
H9A C6A 1_555 1_555
C7A C6A 1_555 1_555
H10A C7A 1_555 1_555
H11A C7A 1_555 1_555
C8A H12A 1_555 1_555
C9A H13A 1_555 1_555
C10A C9A 1_555 1_555
H14A C10A 1_555 1_555
C11A H15A 1_555 1_555
C12A H16A 1_555 1_555
C13A C12A 1_555 1_555
H17A C13A 1_555 1_555
C14A H18A 1_555 1_555
H19A C14A 1_555 1_555
C15A C15 1_555 1_555
H20A C15A 1_555 1_555
H21A C15A 1_555 1_555
C16A C17A 1_555 1_555
C17A C18A 1_555 1_555
C18A H22A 1_555 1_555
C19A C18A 1_555 1_555
C20A C19A 1_555 1_555
H23A C20A 1_555 1_555
C21A C20A 1_555 1_555
H24A C21A 1_555 1_555
C22A C17A 1_555 1_555
C23A C22A 1_555 1_555
C24A C19A 1_555 1_555
C25A C24A 1_555 1_555
C26A C24A 1_555 1_555
C27A C24A 1_555 1_555
C28A C27A 1_555 1_555
H25A C28A 1_555 1_555
C29A C28A 1_555 1_555
C30A C29A 1_555 1_555
C31A C29A 1_555 1_555
C32A C31A 1_555 1_555
C33A C31A 1_555 1_555
H26A C33A 1_555 1_555
C34A C27A 1_555 1_555
H27A C34A 1_555 1_555
N1A C1A 1_555 1_555
N2A C1A 1_555 1_555
N3A C7A 1_555 1_555
N4A Cd1A 1_555 1_555
N5A C11A 1_555 1_555
O1A Cd1A_2 1_555 1_555
O1A_2 Cd1A 1_555 1_555
O2A Cd1A_2 1_555 1_555
O2A_2 Cd1A 1_555 1_555
O3A Cd1 1_555 1_555
O3_2 Cd1A 1_555 1_555
O4A Cd1 1_555 1_555
O4_2 Cd1A 1_555 1_555
O5A C30A 1_555 1_555
O6A C30A 1_555 1_555
H28A O6A 1_555 1_555
O7A C32A 1_555 1_555
O8A C32A 1_555 1_555
F1A C26A 1_555 1_555
F2A C26A 1_555 1_555
F3A C26A 1_555 1_555
F4A C25A 1_555 1_555
F5A C25A 1_555 1_555
F6A C25A 1_555 1_555
O11A Cd1A 1_555 1_555
H33A O11A 1_555 1_555
H34A O11A 1_555 1_555
N6A C8A 1_555 1_555
H35A N6A 1_555 1_555
C2 N1 1_555 1_555
C3 N2 1_555 1_555
C4 N2 1_555 1_555
C8 N3 1_555 1_555
C9 N3 1_555 1_555
C10 N6 1_555 1_555
C11 N4 1_555 1_555
C12 N4 1_555 1_555
C13 N5 1_555 1_555
C14 N5 1_555 1_555
C16 O1 1_555 1_555
C16 O2 1_555 1_555
C21 C22 1_555 1_555
C33 C34 1_555 1_555
O4 Cd1A_2 1_555 1_555
C2A N1A 1_555 1_555
C3A N2A 1_555 1_555
C4A N2A 1_555 1_555
C8A N3A 1_555 1_555
C9A N3A 1_555 1_555
C10A N6A 1_555 1_555
C11A N4A 1_555 1_555
C12A N4A 1_555 1_555
C13A N5A 1_555 1_555
C14A C15A 1_555 1_555
C14A N5A 1_555 1_555
C16A O1A 1_555 1_555
C16A O2A 1_555 1_555
C21A C22A 1_555 1_555
C23A O3A 1_555 1_555
C23A O4A 1_555 1_555
C33A C34A 1_555 1_555

#END
