
#######################################################################
#
#                 Cambridge Crystallographic Data Centre
#                                CCDC 
#
#######################################################################
#
# If this CIF has been generated from an entry in the Cambridge 
# Structural Database, then it will include bibliographic, chemical, 
# crystal, experimental, refinement or atomic coordinate data resulting 
# from the CCDC's data processing and validation procedures.
#
#######################################################################

data_LABGEC
_symmetry_cell_setting           monoclinic
_symmetry_space_group_name_H-M   'P 21/c'
_symmetry_Int_Tables_number      14
_space_group_name_Hall           '-P 2ybc'
loop_
_symmetry_equiv_pos_site_id
_symmetry_equiv_pos_as_xyz
1 x,y,z
2 -x,1/2+y,1/2-z
3 -x,-y,-z
4 x,1/2-y,1/2+z
_cell_length_a                   17.5941(19)
_cell_length_b                   8.5724(9)
_cell_length_c                   16.3844(18)
_cell_angle_alpha                90
_cell_angle_beta                 106.052(2)
_cell_angle_gamma                90
_cell_volume                     2374.81
loop_
_atom_site_label
_atom_site_type_symbol
_atom_site_fract_x
_atom_site_fract_y
_atom_site_fract_z
C1 C 0.63190(14) -0.0069(3) 0.18134(16)
C2 C 0.55970(14) 0.0289(3) 0.19416(16)
H1 H 0.5563 0.0972 0.2371
C3 C 0.49258(14) -0.0388(3) 0.14191(16)
C4 C 0.49712(14) -0.1430(3) 0.07923(16)
H2 H 0.4517 -0.1906 0.0457
C5 C 0.56985(14) -0.1755(3) 0.06698(15)
C6 C 0.63829(14) -0.1072(3) 0.11763(16)
H3 H 0.6873 -0.1285 0.1088
C7 C 0.77757(18) 0.0073(4) 0.2498(3)
H4 H 0.7941 -0.0800 0.2256
C8 C 0.82322(16) 0.1059(4) 0.3058(2)
H5 H 0.8778 0.0974 0.3270
C9 C 0.70689(14) 0.1882(3) 0.28326(16)
H6 H 0.6634 0.2484 0.2851
C10 C 0.40319(16) 0.0632(3) 0.22576(18)
H7 H 0.4404 0.0961 0.2749
C11 C 0.32438(15) 0.0697(3) 0.20965(18)
H8 H 0.2976 0.1085 0.2469
C12 C 0.34605(14) -0.0306(3) 0.09927(16)
H9 H 0.3389 -0.0743 0.0457
C13 C 0.64371(17) -0.3261(4) -0.0161(2)
H10 H 0.6950 -0.2956 0.0121
C14 C 0.6220(2) -0.4239(4) -0.0821(2)
H11 H 0.6569 -0.4730 -0.1073
C15 C 0.51640(17) -0.3519(4) -0.05727(18)
H12 H 0.4631 -0.3380 -0.0612
C16 C 0.90864(13) 0.7901(2) 0.59180(14)
H13 H 0.9647 0.7699 0.5977
C17 C 0.89759(13) 0.8150(3) 0.67921(13)
H14 H 0.9167 0.7241 0.7141
H15 H 0.8417 0.8263 0.6743
C18 C 0.94146(13) 0.9591(3) 0.72242(14)
H16 H 0.9981 0.9450 0.7291
C19 C 0.91310(14) 1.1035(2) 0.66707(14)
H17 H 0.8574 1.1208 0.6616
H18 H 0.9421 1.1944 0.6943
C20 C 0.92539(14) 1.0829(2) 0.57898(14)
H19 H 0.9822 1.0733 0.5848
C21 C 0.88339(15) 0.9346(3) 0.53627(14)
H20 H 0.8267 0.9483 0.5246
H21 H 0.8954 0.9191 0.4825
C22 C 0.86071(13) 0.6539(2) 0.54593(14)
C23 C 0.92871(13) 0.9797(2) 0.80960(14)
C24 C 0.89285(14) 1.2189(2) 0.52079(14)
Co1 Co 0.824232(17) 0.41747(3) 0.410400(18)
Co2 Co 1.0000 0.5000 0.5000
N1 N 0.77916(11) 0.2193(2) 0.32730(12)
N2 N 0.70205(12) 0.0604(2) 0.23518(14)
N3 N 0.28870(11) 0.0108(2) 0.13013(13)
N4 N 0.41795(12) -0.0021(2) 0.15466(13)
N5 N 0.54230(17) -0.4420(3) -0.10763(18)
N6 N 0.57612(12) -0.2802(3) 0.00183(13)
O1 O 0.88734(9) 0.58733(16) 0.48854(9)
O2 O 0.79823(10) 0.6166(2) 0.55974(11)
O3 O 0.98798(9) 0.97629(19) 0.87280(10)
O4 O 0.85858(10) 0.9995(2) 0.81118(10)
O5 O 0.93428(9) 1.27919(17) 0.47697(10)
O6 O 0.82307(9) 1.26401(19) 0.51168(10)
C1B C 1.36810(14) 1.0069(3) 0.81866(16)
C2B C 1.44030(14) 0.9711(3) 0.80584(16)
H1B H 1.4437 0.9028 0.7629
C3B C 1.50742(14) 1.0388(3) 0.85809(16)
C4B C 1.50288(14) 1.1430(3) 0.92077(16)
H2B H 1.5483 1.1906 0.9543
C5B C 1.43015(14) 1.1755(3) 0.93302(15)
C6B C 1.36171(14) 1.1072(3) 0.88237(16)
H3B H 1.3127 1.1285 0.8912
C7B C 1.22243(18) 0.9927(4) 0.7502(3)
H4B H 1.2059 1.0800 0.7744
C8B C 1.17678(16) 0.8941(4) 0.6942(2)
H5B H 1.1222 0.9026 0.6730
C9B C 1.29311(14) 0.8118(3) 0.71674(16)
H6B H 1.3366 0.7516 0.7149
C10B C 1.59681(16) 0.9368(3) 0.77424(18)
H7B H 1.5596 0.9039 0.7251
C11B C 1.67562(15) 0.9303(3) 0.79035(18)
H8B H 1.7024 0.8915 0.7531
C12B C 1.65395(14) 1.0306(3) 0.90073(16)
H9B H 1.6611 1.0743 0.9543
C13B C 1.35629(17) 1.3261(4) 1.0161(2)
H10B H 1.3050 1.2956 0.9879
C14B C 1.3780(2) 1.4239(4) 1.0821(2)
H11B H 1.3431 1.4730 1.1073
C15B C 1.48360(17) 1.3519(4) 1.05727(18)
H12B H 1.5369 1.3380 1.0612
C16B C 1.09136(13) 0.2099(2) 0.40820(14)
H13B H 1.0353 0.2301 0.4023
C17B C 1.10241(13) 0.1850(3) 0.32079(13)
H14B H 1.0833 0.2759 0.2859
H15B H 1.1583 0.1737 0.3257
C18B C 1.05854(13) 0.0409(3) 0.27758(14)
H16B H 1.0019 0.0550 0.2709
C19B C 1.08690(14) -0.1035(2) 0.33293(14)
H17B H 1.1426 -0.1208 0.3384
H18B H 1.0579 -0.1944 0.3057
C20B C 1.07461(14) -0.0829(2) 0.42102(14)
H19B H 1.0178 -0.0733 0.4152
C21B C 1.11661(15) 0.0654(3) 0.46373(14)
H20B H 1.1733 0.0517 0.4754
H21B H 1.1046 0.0809 0.5175
C22B C 1.13929(13) 0.3461(2) 0.45407(14)
C23B C 1.07129(13) 0.0203(2) 0.19040(14)
C24B C 1.10715(14) -0.2189(2) 0.47921(14)
Co1B Co 1.175768(17) 0.58253(3) 0.589600(18)
Co1_2 Co 0.824232(17) 1.41747(3) 0.410400(18)
Co1A Co 0.175768(17) -0.08253(3) 0.089600(18)
Co1A_2 Co 1.175768(17) -0.08253(3) 0.089600(18)
Co1B_2 Co 1.175768(17) -0.41747(3) 0.589600(18)
Co1C Co 0.824232(17) 1.08253(3) 0.910400(18)
Co1C_2 Co 1.824232(17) 1.08253(3) 0.910400(18)
Co2_2 Co 1.0000 -0.5000 0.5000
Co2_3 Co 1.0000 1.5000 0.5000
Co2A Co 1.0000 0.0000 0.0000
Co2A_2 Co 1.0000 1.0000 1.0000
N1B N 1.22084(11) 0.7807(2) 0.67270(12)
N2B N 1.29795(12) 0.9396(2) 0.76482(14)
N3B N 1.71130(11) 0.9892(2) 0.86987(13)
N3A N 0.71130(11) 0.5108(2) 0.36987(13)
N3C N 1.28870(11) 0.4892(2) 0.63013(13)
N4B N 1.58205(12) 1.0021(2) 0.84534(13)
N5B N 1.45770(17) 1.4420(3) 1.10763(18)
N6B N 1.42388(12) 1.2802(3) 0.99817(13)
O1B O 1.11266(9) 0.41267(16) 0.51146(9)
O2B O 1.20177(10) 0.3834(2) 0.44026(11)
O3B O 1.01202(9) 0.02371(19) 0.12720(10)
O3A O 1.01202(9) 0.47629(19) 0.62720(10)
O3C O 0.98798(9) 0.52371(19) 0.37280(10)
O4B O 1.14142(10) 0.0005(2) 0.18882(10)
O4A O 1.14142(10) 0.4995(2) 0.68882(10)
O4C O 0.85858(10) 0.5005(2) 0.31118(10)
O5B O 1.06572(9) -0.27919(17) 0.52303(10)
O5_2 O 0.93428(9) 0.27919(17) 0.47697(10)
O5B_2 O 1.06572(9) 0.72081(17) 0.52303(10)
O6B O 1.17693(9) -0.26401(19) 0.48832(10)
O6_2 O 0.82307(9) 0.26401(19) 0.51168(10)
O6B_2 O 1.17693(9) 0.73599(19) 0.48832(10)
O7 O 0.68450(15) 0.2139(4) 0.56387(18)
H22 H 0.6882 0.2704 0.6074
H23 H 0.7258 0.2274 0.5474
loop_
_geom_bond_atom_site_label_1
_geom_bond_atom_site_label_2
_geom_bond_site_symmetry_1
_geom_bond_site_symmetry_2
C1 C2 1_555 1_555
C2 H1 1_555 1_555
C3 C2 1_555 1_555
C4 C3 1_555 1_555
H2 C4 1_555 1_555
C5 C4 1_555 1_555
C6 C1 1_555 1_555
H3 C6 1_555 1_555
C7 H4 1_555 1_555
C8 C7 1_555 1_555
H5 C8 1_555 1_555
C9 H6 1_555 1_555
C10 H7 1_555 1_555
C11 C10 1_555 1_555
H8 C11 1_555 1_555
C12 H9 1_555 1_555
C13 H10 1_555 1_555
C14 C13 1_555 1_555
H11 C14 1_555 1_555
C15 H12 1_555 1_555
C16 H13 1_555 1_555
C17 C16 1_555 1_555
H14 C17 1_555 1_555
H15 C17 1_555 1_555
C18 C17 1_555 1_555
H16 C18 1_555 1_555
C19 C18 1_555 1_555
H17 C19 1_555 1_555
H18 C19 1_555 1_555
C20 C19 1_555 1_555
H19 C20 1_555 1_555
C21 C16 1_555 1_555
H20 C21 1_555 1_555
H21 C21 1_555 1_555
C22 C16 1_555 1_555
C23 C18 1_555 1_555
C24 C20 1_555 1_555
Co1 N1 1_555 1_555
Co2 O1 1_555 1_555
N1 C8 1_555 1_555
N2 C1 1_555 1_555
N3 C11 1_555 1_555
N4 C3 1_555 1_555
N5 C14 1_555 1_555
N6 C5 1_555 1_555
O1 C22 1_555 1_555
O2 C22 1_555 1_555
O3 C23 1_555 1_555
O4 C23 1_555 1_555
O5 C24 1_555 1_555
O6 C24 1_555 1_555
O7 H22 1_555 1_555
H23 O7 1_555 1_555
C1B C2B 1_555 1_555
C2B H1B 1_555 1_555
C3B C2B 1_555 1_555
C4B C3B 1_555 1_555
H2B C4B 1_555 1_555
C5B C4B 1_555 1_555
C6B C1B 1_555 1_555
H3B C6B 1_555 1_555
C7B H4B 1_555 1_555
C8B C7B 1_555 1_555
H5B C8B 1_555 1_555
C9B H6B 1_555 1_555
C10B H7B 1_555 1_555
C11B C10B 1_555 1_555
H8B C11B 1_555 1_555
C12B H9B 1_555 1_555
C13B H10B 1_555 1_555
C14B C13B 1_555 1_555
H11B C14B 1_555 1_555
C15B H12B 1_555 1_555
C16B H13B 1_555 1_555
C17B C16B 1_555 1_555
H14B C17B 1_555 1_555
H15B C17B 1_555 1_555
C18B C17B 1_555 1_555
H16B C18B 1_555 1_555
C19B C18B 1_555 1_555
H17B C19B 1_555 1_555
H18B C19B 1_555 1_555
C20B C19B 1_555 1_555
H19B C20B 1_555 1_555
C21B C16B 1_555 1_555
H20B C21B 1_555 1_555
H21B C21B 1_555 1_555
C22B C16B 1_555 1_555
C23B C18B 1_555 1_555
C24B C20B 1_555 1_555
Co1B N1B 1_555 1_555
Co1_2 O5 1_555 1_555
Co1A N3 1_555 1_555
Co1A_2 O4B 1_555 1_555
Co1B_2 O5B 1_555 1_555
Co1C O4 1_555 1_555
Co1C_2 N3B 1_555 1_555
Co2_2 O5B 1_555 1_555
Co2_3 O5 1_555 1_555
Co2A O3B 1_555 1_555
Co2A_2 O3 1_555 1_555
N1B C8B 1_555 1_555
N2B C1B 1_555 1_555
N3B C11B 1_555 1_555
N3A Co1 1_555 1_555
N3C Co1B 1_555 1_555
N4B C3B 1_555 1_555
N5B C14B 1_555 1_555
N6B C5B 1_555 1_555
O1B Co2 1_555 1_555
O2B C22B 1_555 1_555
O3B C23B 1_555 1_555
O3A Co2 1_555 1_555
O3C Co2 1_555 1_555
O4B C23B 1_555 1_555
O4A Co1B 1_555 1_555
O4C Co1 1_555 1_555
O5B C24B 1_555 1_555
O5_2 Co1 1_555 1_555
O5B_2 Co2 1_555 1_555
O6B C24B 1_555 1_555
O6_2 Co1 1_555 1_555
O6B_2 Co1B 1_555 1_555
C5 C6 1_555 1_555
C7 N2 1_555 1_555
C9 N1 1_555 1_555
C9 N2 1_555 1_555
C10 N4 1_555 1_555
C12 N3 1_555 1_555
C12 N4 1_555 1_555
C13 N6 1_555 1_555
C15 N5 1_555 1_555
C15 N6 1_555 1_555
C20 C21 1_555 1_555
Co1 O1 1_555 1_555
Co2 O5_2 1_555 1_555
O6 Co1_2 1_555 1_555
C5B C6B 1_555 1_555
C7B N2B 1_555 1_555
C9B N1B 1_555 1_555
C9B N2B 1_555 1_555
C10B N4B 1_555 1_555
C12B N3B 1_555 1_555
C12B N4B 1_555 1_555
C13B N6B 1_555 1_555
C15B N5B 1_555 1_555
C15B N6B 1_555 1_555
C20B C21B 1_555 1_555
C22B O1B 1_555 1_555
Co1B O1B 1_555 1_555
Co1B O5B_2 1_555 1_555
Co1B_2 O6B 1_555 1_555

#END
