
#######################################################################
#
#                 Cambridge Crystallographic Data Centre
#                                CCDC 
#
#######################################################################
#
# If this CIF has been generated from an entry in the Cambridge 
# Structural Database, then it will include bibliographic, chemical, 
# crystal, experimental, refinement or atomic coordinate data resulting 
# from the CCDC's data processing and validation procedures.
#
#######################################################################

data_LABGIG
_symmetry_cell_setting           monoclinic
_symmetry_space_group_name_H-M   'P 21/c'
_symmetry_Int_Tables_number      14
_space_group_name_Hall           '-P 2ybc'
loop_
_symmetry_equiv_pos_site_id
_symmetry_equiv_pos_as_xyz
1 x,y,z
2 -x,1/2+y,1/2-z
3 -x,-y,-z
4 x,1/2-y,1/2+z
_cell_length_a                   18.3958(16)
_cell_length_b                   8.4767(7)
_cell_length_c                   16.6419(14)
_cell_angle_alpha                90
_cell_angle_beta                 108.4240(10)
_cell_angle_gamma                90
_cell_volume                     2462.05
loop_
_atom_site_label
_atom_site_type_symbol
_atom_site_fract_x
_atom_site_fract_y
_atom_site_fract_z
C1 C 0.58135(17) 0.6970(4) 0.06652(18)
C2 C 0.64670(17) 0.6322(3) 0.12371(18)
H1 H 0.6950 0.6547 0.1200
C3 C 0.63837(16) 0.5341(3) 0.18589(17)
C4 C 0.56753(16) 0.4983(3) 0.19231(18)
H2 H 0.5631 0.4320 0.2351
C5 C 0.50317(16) 0.5618(3) 0.13453(18)
C6 C 0.50963(17) 0.6627(4) 0.07173(19)
H3 H 0.4661 0.7069 0.0334
C7 C 0.6569(3) 0.8472(6) -0.0084(3)
H4 H 0.7059 0.8136 0.0225
C8 C 0.6387(3) 0.9508(6) -0.0728(3)
H5 H 0.6741 1.0034 -0.0925
C9 C 0.5348(2) 0.8753(5) -0.0587(2)
H6 H 0.4827 0.8621 -0.0676
C10 C 0.77319(17) 0.5427(4) 0.2853(2)
H7 H 0.7867 0.6454 0.2766
C11 C 0.81656(17) 0.4361(4) 0.3386(2)
H8 H 0.8663 0.4542 0.3738
C12 C 0.71042(16) 0.3211(3) 0.27765(18)
H9 H 0.6717 0.2459 0.2613
C13 C 0.4166(2) 0.4475(5) 0.2092(3)
H10 H 0.4531 0.4078 0.2573
C14 C 0.34051(19) 0.4402(4) 0.1906(2)
H11 H 0.3151 0.3909 0.2240
C15 C 0.36080(17) 0.5663(4) 0.0898(2)
H12 H 0.3534 0.6243 0.0404
C16 C 0.92304(15) -0.0544(3) 0.24688(15)
H13 H 0.9780 -0.0747 0.2724
C17 C 0.88517(16) -0.1995(3) 0.19728(16)
H14 H 0.8973 -0.2906 0.2344
H15 H 0.8300 -0.1854 0.1791
C18 C 0.91006(14) -0.2322(3) 0.11999(15)
H16 H 0.9643 -0.2621 0.1391
C19 C 0.90010(16) -0.0855(3) 0.06350(16)
H17 H 0.9206 -0.1070 0.0176
H18 H 0.8459 -0.0625 0.0389
C20 C 0.94070(15) 0.0577(3) 0.11314(15)
H19 H 0.9958 0.0360 0.1345
C21 C 0.91203(16) 0.0899(3) 0.18882(15)
H20 H 0.9398 0.1788 0.2209
H21 H 0.8581 0.1175 0.1683
C22 C 0.88929(15) -0.0144(3) 0.31613(15)
C23 C 0.86389(15) -0.3654(3) 0.06674(15)
C24 C 0.92747(15) 0.2031(3) 0.05653(15)
Mn1 Mn 0.81675(2) 0.08726(5) 0.42124(2)
Mn2 Mn 1.0000 0.0000 0.5000
N1 N 0.5622(2) 0.9681(4) -0.1048(2)
N2 N 0.58959(16) 0.8007(3) 0.00291(17)
N3 N 0.77761(13) 0.2963(3) 0.33434(15)
N4 N 0.70436(13) 0.4687(3) 0.24595(15)
N5 N 0.30507(13) 0.5156(3) 0.11529(16)
N6 N 0.43021(13) 0.5261(3) 0.14246(16)
O1 O 0.82403(11) -0.0611(2) 0.31211(12)
O2 O 0.92687(10) 0.0766(2) 0.37608(10)
O3 O 0.80354(12) -0.4101(3) 0.07619(14)
O4 O 0.88914(10) -0.4222(2) 0.00943(11)
O5 O 0.98492(11) 0.2786(2) 0.05447(13)
O6 O 0.85910(11) 0.2364(2) 0.01521(12)
C1A C 0.41865(17) 0.1970(4) 0.43348(18)
C2A C 0.35330(17) 0.1322(3) 0.37629(18)
H1A H 0.3050 0.1547 0.3800
C3A C 0.36163(16) 0.0341(3) 0.31411(17)
C4A C 0.43247(16) -0.0017(3) 0.30769(18)
H2A H 0.4369 -0.0680 0.2649
C5A C 0.49683(16) 0.0618(3) 0.36547(18)
C6A C 0.49037(17) 0.1627(4) 0.42827(19)
H3A H 0.5339 0.2069 0.4666
C7A C 0.3431(3) 0.3472(6) 0.5084(3)
H4A H 0.2941 0.3136 0.4775
C8A C 0.3613(3) 0.4508(6) 0.5728(3)
H5A H 0.3259 0.5034 0.5925
C9A C 0.4652(2) 0.3753(5) 0.5587(2)
H6A H 0.5173 0.3621 0.5676
C10A C 0.22681(17) 0.0427(4) 0.2147(2)
H7A H 0.2133 0.1454 0.2234
C11A C 0.18344(17) -0.0639(4) 0.1614(2)
H8A H 0.1337 -0.0458 0.1262
C12A C 0.28958(16) -0.1789(3) 0.22235(18)
H9A H 0.3283 -0.2541 0.2387
C13A C 0.5834(2) -0.0525(5) 0.2908(3)
H10A H 0.5469 -0.0922 0.2427
C14A C 0.65949(19) -0.0598(4) 0.3094(2)
H11A H 0.6849 -0.1091 0.2760
C15A C 0.63920(17) 0.0663(4) 0.4102(2)
H12A H 0.6466 0.1243 0.4596
C16B C 1.07696(15) 0.0544(3) 0.75312(15)
H13B H 1.0220 0.0747 0.7276
C17B C 1.11483(16) 0.1995(3) 0.80272(16)
H14B H 1.1027 0.2906 0.7656
H15B H 1.1700 0.1854 0.8209
C18B C 1.08994(14) 0.2322(3) 0.88001(15)
H16B H 1.0357 0.2621 0.8609
C19B C 1.09990(16) 0.0855(3) 0.93650(16)
H17B H 1.0794 0.1070 0.9824
H18B H 1.1541 0.0625 0.9611
C20B C 1.05930(15) -0.0577(3) 0.88686(15)
H19B H 1.0042 -0.0360 0.8655
C21B C 1.08797(16) -0.0899(3) 0.81118(15)
H20B H 1.0602 -0.1788 0.7791
H21B H 1.1419 -0.1175 0.8317
C22B C 1.11071(15) 0.0144(3) 0.68387(15)
C23B C 1.13611(15) 0.3654(3) 0.93326(15)
C24B C 1.07253(15) -0.2031(3) 0.94347(15)
Mn1B Mn 1.18325(2) -0.08726(5) 0.57876(2)
Mn1A Mn 0.18325(2) 0.58726(5) 0.07876(2)
Mn1C Mn 0.81675(2) -0.58726(5) -0.07876(2)
Mn1C_2 Mn 0.81675(2) 0.41274(5) -0.07876(2)
Mn1A_2 Mn 1.18325(2) 0.58726(5) 1.07876(2)
Mn1A_3 Mn 1.18325(2) -0.41274(5) 1.07876(2)
Mn1A_4 Mn 0.18325(2) -0.41274(5) 0.07876(2)
Mn2A Mn 1.0000 -0.5000 0.0000
Mn2A_2 Mn 1.0000 0.5000 0.0000
Mn2A_3 Mn 1.0000 0.5000 1.0000
Mn2A_4 Mn 1.0000 -0.5000 1.0000
N1A N 0.4378(2) 0.4681(4) 0.6048(2)
N2A N 0.41041(16) 0.3007(3) 0.49709(17)
N3A N 0.22239(13) -0.2037(3) 0.16566(15)
N3B N 1.22239(13) -0.2963(3) 0.66566(15)
N4A N 0.29564(13) -0.0313(3) 0.25405(15)
N5A N 0.69493(13) 0.0156(3) 0.38471(16)
N5C N 1.30507(13) -0.0156(3) 0.61529(16)
N6A N 0.56979(13) 0.0261(3) 0.35754(16)
O1B O 1.17597(11) 0.0611(2) 0.68789(12)
O2B O 1.07313(10) -0.0766(2) 0.62392(10)
O3B O 1.19646(12) 0.4101(3) 0.92381(14)
O4B O 1.11086(10) 0.4222(2) 0.99057(11)
O4C O 0.88914(10) -0.0778(2) 0.50943(11)
O4A O 1.11086(10) 0.0778(2) 0.49057(11)
O5B O 1.01508(11) -0.2786(2) 0.94553(13)
O5A O 1.01508(11) -0.2214(2) 0.44553(13)
O5C O 0.98492(11) 0.2214(2) 0.55447(13)
O6B O 1.14090(11) -0.2364(2) 0.98479(12)
O6C O 0.85910(11) 0.2636(2) 0.51521(12)
O6A O 1.14090(11) -0.2636(2) 0.48479(12)
O7 O 0.2650(2) 0.7912(4) 0.41723(19)
O8 O 0.3574(8) 0.613(2) 0.3883(10)
loop_
_geom_bond_atom_site_label_1
_geom_bond_atom_site_label_2
_geom_bond_site_symmetry_1
_geom_bond_site_symmetry_2
C1 C2 1_555 1_555
C2 H1 1_555 1_555
C3 C2 1_555 1_555
C4 C3 1_555 1_555
H2 C4 1_555 1_555
C5 C4 1_555 1_555
C6 C1 1_555 1_555
H3 C6 1_555 1_555
C7 H4 1_555 1_555
C8 C7 1_555 1_555
H5 C8 1_555 1_555
C9 H6 1_555 1_555
C10 H7 1_555 1_555
C11 C10 1_555 1_555
H8 C11 1_555 1_555
C12 H9 1_555 1_555
C13 H10 1_555 1_555
C14 C13 1_555 1_555
H11 C14 1_555 1_555
C15 H12 1_555 1_555
C16 H13 1_555 1_555
C17 C16 1_555 1_555
H14 C17 1_555 1_555
H15 C17 1_555 1_555
C18 C17 1_555 1_555
H16 C18 1_555 1_555
C19 C18 1_555 1_555
H17 C19 1_555 1_555
H18 C19 1_555 1_555
C20 C19 1_555 1_555
H19 C20 1_555 1_555
C21 C16 1_555 1_555
H20 C21 1_555 1_555
H21 C21 1_555 1_555
C22 C16 1_555 1_555
C23 C18 1_555 1_555
C24 C20 1_555 1_555
Mn1 N3 1_555 1_555
Mn2 O2 1_555 1_555
N1 C8 1_555 1_555
N2 C1 1_555 1_555
N3 C11 1_555 1_555
N4 C3 1_555 1_555
N5 C14 1_555 1_555
N6 C5 1_555 1_555
O1 C22 1_555 1_555
O2 C22 1_555 1_555
O3 C23 1_555 1_555
O4 C23 1_555 1_555
O5 C24 1_555 1_555
O6 C24 1_555 1_555
C1A C2A 1_555 1_555
C2A H1A 1_555 1_555
C3A C2A 1_555 1_555
C4A C3A 1_555 1_555
H2A C4A 1_555 1_555
C5A C4A 1_555 1_555
C6A C1A 1_555 1_555
H3A C6A 1_555 1_555
C7A H4A 1_555 1_555
C8A C7A 1_555 1_555
H5A C8A 1_555 1_555
C9A H6A 1_555 1_555
C10A H7A 1_555 1_555
C11A C10A 1_555 1_555
H8A C11A 1_555 1_555
C12A H9A 1_555 1_555
C13A H10A 1_555 1_555
C14A C13A 1_555 1_555
H11A C14A 1_555 1_555
C15A H12A 1_555 1_555
C16B H13B 1_555 1_555
C17B C16B 1_555 1_555
H14B C17B 1_555 1_555
H15B C17B 1_555 1_555
C18B C17B 1_555 1_555
H16B C18B 1_555 1_555
C19B C18B 1_555 1_555
H17B C19B 1_555 1_555
H18B C19B 1_555 1_555
C20B C19B 1_555 1_555
H19B C20B 1_555 1_555
C21B C16B 1_555 1_555
H20B C21B 1_555 1_555
H21B C21B 1_555 1_555
C22B C16B 1_555 1_555
C23B C18B 1_555 1_555
C24B C20B 1_555 1_555
Mn1B N3B 1_555 1_555
Mn1A N5 1_555 1_555
Mn1C O4 1_555 1_555
Mn1C_2 O6 1_555 1_555
Mn1A_2 O4B 1_555 1_555
Mn1A_3 O6B 1_555 1_555
Mn1A_4 N3A 1_555 1_555
Mn2A O4 1_555 1_555
Mn2A_2 O5 1_555 1_555
Mn2A_3 O4B 1_555 1_555
Mn2A_4 O5B 1_555 1_555
N1A C8A 1_555 1_555
N2A C1A 1_555 1_555
N3A C11A 1_555 1_555
N4A C3A 1_555 1_555
N5A Mn1 1_555 1_555
N5C Mn1B 1_555 1_555
N6A C5A 1_555 1_555
O1B C22B 1_555 1_555
O2B Mn2 1_555 1_555
O3B C23B 1_555 1_555
O4B C23B 1_555 1_555
O4C Mn1 1_555 1_555
O4A Mn2 1_555 1_555
O5B C24B 1_555 1_555
O5A Mn2 1_555 1_555
O5C Mn2 1_555 1_555
O6B C24B 1_555 1_555
O6C Mn1 1_555 1_555
O6A Mn1B 1_555 1_555
C5 C6 1_555 1_555
C7 N2 1_555 1_555
C9 N1 1_555 1_555
C9 N2 1_555 1_555
C10 N4 1_555 1_555
C12 N3 1_555 1_555
C12 N4 1_555 1_555
C13 N6 1_555 1_555
C15 N5 1_555 1_555
C15 N6 1_555 1_555
C20 C21 1_555 1_555
Mn1 O1 1_555 1_555
Mn1 O2 1_555 1_555
Mn2 O4C 1_555 1_555
C5A C6A 1_555 1_555
C7A N2A 1_555 1_555
C9A N1A 1_555 1_555
C9A N2A 1_555 1_555
C10A N4A 1_555 1_555
C12A N3A 1_555 1_555
C12A N4A 1_555 1_555
C13A N6A 1_555 1_555
C14A N5A 1_555 1_555
C15A N5A 1_555 1_555
C15A N6A 1_555 1_555
C20B C21B 1_555 1_555
C22B O2B 1_555 1_555
Mn1B O1B 1_555 1_555
Mn1B O2B 1_555 1_555
Mn1B O4A 1_555 1_555

#END
