
#######################################################################
#
#                 Cambridge Crystallographic Data Centre
#                                CCDC 
#
#######################################################################
#
# If this CIF has been generated from an entry in the Cambridge 
# Structural Database, then it will include bibliographic, chemical, 
# crystal, experimental, refinement or atomic coordinate data resulting 
# from the CCDC's data processing and validation procedures.
#
#######################################################################

data_LABGOM
_symmetry_cell_setting           monoclinic
_symmetry_space_group_name_H-M   'P 21/c'
_symmetry_Int_Tables_number      14
_space_group_name_Hall           '-P 2ybc'
loop_
_symmetry_equiv_pos_site_id
_symmetry_equiv_pos_as_xyz
1 x,y,z
2 -x,1/2+y,1/2-z
3 -x,-y,-z
4 x,1/2-y,1/2+z
_cell_length_a                   17.4216(15)
_cell_length_b                   8.5070(7)
_cell_length_c                   16.3463(14)
_cell_angle_alpha                90
_cell_angle_beta                 106.5660(10)
_cell_angle_gamma                90
_cell_volume                     2322.05
loop_
_atom_site_label
_atom_site_type_symbol
_atom_site_fract_x
_atom_site_fract_y
_atom_site_fract_z
Ni1 Ni 0.173977(16) 0.91575(3) 0.090259(18)
Ni2 Ni 0.0000 1.0000 0.0000
C1 C 0.49119(15) 0.9638(3) 0.14126(17)
C2 C 0.55957(16) 1.0318(3) 0.19428(18)
H1 H 0.5563 1.1006 0.2374
C3 C 0.63285(16) 0.9956(3) 0.18207(18)
C4 C 0.63879(15) 0.8938(3) 0.11799(17)
H2 H 0.6882 0.8718 0.1094
C5 C 0.56945(15) 0.8256(3) 0.06703(16)
C6 C 0.49528(15) 0.8578(3) 0.07866(17)
H3 H 0.4493 0.8091 0.0450
C7 C 0.40111(18) 1.0682(4) 0.22445(19)
H4 H 0.4391 1.1035 0.2733
C8 C 0.32149(17) 1.0731(3) 0.20894(19)
H5 H 0.2947 1.1118 0.2464
C9 C 0.34285(15) 0.9714(3) 0.09805(17)
H6 H 0.3353 0.9276 0.0442
C10 C 0.78067(19) 1.0110(4) 0.2498(3)
H7 H 0.7973 0.9249 0.2242
C11 C 0.82711(18) 1.1082(4) 0.3068(2)
H8 H 0.8825 1.0998 0.3278
C12 C 0.70872(16) 1.1899(3) 0.28605(17)
H9 H 0.6647 1.2490 0.2889
C13 C 0.51510(18) 0.6466(4) -0.0578(2)
H10 H 0.4611 0.6600 -0.0620
C14 C 0.54081(19) 0.5576(4) -0.1076(2)
H11 H 0.5105 0.4954 -0.1519
C15 C 0.64422(19) 0.6724(4) -0.0154(2)
H12 H 0.6962 0.7030 0.0132
C16 C 0.07351(15) 0.5894(3) -0.08072(15)
H13 H 0.0160 0.5820 -0.0871
C17 C 0.11508(16) 0.4401(3) -0.03637(15)
H14 H 0.1726 0.4527 -0.0237
H15 H 0.1025 0.4264 0.0173
C18 C 0.08932(14) 0.2931(3) -0.09123(14)
H16 H 0.0326 0.2726 -0.0974
C19 C 0.10080(15) 0.3156(3) -0.17915(14)
H17 H 0.0812 0.2234 -0.2137
H18 H 0.1575 0.3261 -0.1737
C20 C 0.05667(14) 0.4607(3) -0.22366(14)
H19 H -0.0008 0.4477 -0.2308
C21 C 0.08632(15) 0.6067(3) -0.16888(15)
H20 H 0.1429 0.6220 -0.1628
H21 H 0.0577 0.6985 -0.1971
C22 C 0.10780(14) 0.7255(3) -0.02280(14)
C23 C 0.13870(14) 0.1561(3) -0.04458(14)
C24 C 0.06998(14) 0.4783(2) -0.31126(15)
N1 N 0.28492(13) 1.0122(2) 0.12901(14)
N2 N 0.41566(13) 1.0003(2) 0.15358(14)
N3 N 0.78207(12) 1.2215(2) 0.33007(13)
N4 N 0.70365(13) 1.0629(3) 0.23611(15)
N5 N 0.6216(2) 0.5733(5) -0.0821(3)
N6 N 0.57534(13) 0.7191(3) 0.00192(15)
O1 O 0.06812(10) 0.78385(17) 0.02481(10)
O2 O 0.17725(10) 0.7734(2) -0.01572(11)
O3 O 0.20163(11) 0.1199(2) -0.05862(12)
O4 O 0.11231(10) 0.08988(17) 0.01362(10)
O5 O 0.00988(10) 0.4760(2) -0.37512(10)
O6 O 0.14133(11) 0.4961(2) -0.31155(11)
Ni1B Ni -0.173977(16) 1.08425(3) -0.090259(18)
Ni1A Ni 0.826023(16) 1.41575(3) 0.409741(18)
Ni1_2 Ni 0.173977(16) -0.08425(3) 0.090259(18)
Ni1C Ni 0.173977(16) 0.58425(3) -0.409741(18)
Ni1B_2 Ni -0.173977(16) 2.08425(3) -0.090259(18)
Ni1A_2 Ni -0.173977(16) 1.41575(3) 0.409741(18)
Ni1A_3 Ni 0.826023(16) 0.41575(3) 0.409741(18)
Ni2_2 Ni 0.0000 0.0000 0.0000
Ni2A Ni 0.0000 0.5000 -0.5000
Ni2_3 Ni 0.0000 2.0000 0.0000
Ni2A_2 Ni 0.0000 1.5000 0.5000
C1A C 0.50881(15) 0.4638(3) 0.35874(17)
C2A C 0.44043(16) 0.5318(3) 0.30572(18)
H1A H 0.4437 0.6006 0.2626
C3A C 0.36715(16) 0.4956(3) 0.31793(18)
C4A C 0.36121(15) 0.3938(3) 0.38201(17)
H2A H 0.3118 0.3718 0.3906
C5A C 0.43055(15) 0.3256(3) 0.43297(16)
C6A C 0.50472(15) 0.3578(3) 0.42134(17)
H3A H 0.5507 0.3091 0.4550
C7A C 0.59889(18) 0.5682(4) 0.27555(19)
H4A H 0.5609 0.6035 0.2267
C8A C 0.67851(17) 0.5731(3) 0.29106(19)
H5A H 0.7053 0.6118 0.2536
C9A C 0.65715(15) 0.4714(3) 0.40195(17)
H6A H 0.6647 0.4276 0.4558
C10A C 0.21933(19) 0.5110(4) 0.2502(3)
H7A H 0.2027 0.4249 0.2758
C11A C 0.17289(18) 0.6082(4) 0.1932(2)
H8A H 0.1175 0.5998 0.1722
C12A C 0.29128(16) 0.6899(3) 0.21395(17)
H9A H 0.3353 0.7490 0.2111
C13A C 0.48490(18) 0.1466(4) 0.5578(2)
H10A H 0.5389 0.1600 0.5620
C14A C 0.45919(19) 0.0576(4) 0.6076(2)
H11A H 0.4895 -0.0046 0.6519
C15A C 0.35578(19) 0.1724(4) 0.5154(2)
H12A H 0.3038 0.2030 0.4868
C16B C -0.07351(15) 1.4106(3) 0.08072(15)
H13B H -0.0160 1.4180 0.0871
C17B C -0.11508(16) 1.5599(3) 0.03637(15)
H14B H -0.1726 1.5473 0.0237
H15B H -0.1025 1.5736 -0.0173
C18B C -0.08932(14) 1.7069(3) 0.09123(14)
H16B H -0.0326 1.7274 0.0974
C19B C -0.10080(15) 1.6844(3) 0.17915(14)
H17B H -0.0812 1.7766 0.2137
H18B H -0.1575 1.6739 0.1737
C20B C -0.05667(14) 1.5393(3) 0.22366(14)
H19B H 0.0008 1.5523 0.2308
C21B C -0.08632(15) 1.3933(3) 0.16888(15)
H20B H -0.1429 1.3780 0.1628
H21B H -0.0577 1.3015 0.1971
C22B C -0.10780(14) 1.2745(3) 0.02280(14)
C23B C -0.13870(14) 1.8439(3) 0.04458(14)
C24B C -0.06998(14) 1.5217(2) 0.31126(15)
N1A N 0.71508(13) 0.5122(2) 0.37099(14)
N1B N -0.28492(13) 0.9878(2) -0.12901(14)
N2A N 0.58434(13) 0.5003(2) 0.34642(14)
N3A N 0.21793(12) 0.7215(2) 0.16993(13)
N3C N -0.21793(12) 1.2785(2) -0.16993(13)
N4A N 0.29635(13) 0.5629(3) 0.26389(15)
N5A N 0.3784(2) 0.0733(5) 0.5821(3)
N6A N 0.42466(13) 0.2191(3) 0.49808(15)
O1B O -0.06812(10) 1.21615(17) -0.02481(10)
O2B O -0.17725(10) 1.2266(2) 0.01572(11)
O3B O -0.20163(11) 1.8801(2) 0.05862(12)
O4B O -0.11231(10) 1.91012(17) -0.01362(10)
O4_2 O 0.11231(10) 1.08988(17) 0.01362(10)
O4B_2 O -0.11231(10) 0.91012(17) -0.01362(10)
O5B O -0.00988(10) 1.5240(2) 0.37512(10)
O5A O -0.00988(10) 0.9760(2) -0.12488(10)
O5C O 0.00988(10) 1.0240(2) 0.12488(10)
O6B O -0.14133(11) 1.5039(2) 0.31155(11)
O6C O 0.14133(11) 1.0039(2) 0.18845(11)
O6A O -0.14133(11) 0.9961(2) -0.18845(11)
O7 O 0.31473(16) 0.7119(4) 0.9326(2)
loop_
_geom_bond_atom_site_label_1
_geom_bond_atom_site_label_2
_geom_bond_site_symmetry_1
_geom_bond_site_symmetry_2
Ni1 N1 1_555 1_555
Ni2 O1 1_555 1_555
C1 C2 1_555 1_555
C2 H1 1_555 1_555
C3 C2 1_555 1_555
C4 C3 1_555 1_555
H2 C4 1_555 1_555
C5 C4 1_555 1_555
C6 C1 1_555 1_555
H3 C6 1_555 1_555
C7 H4 1_555 1_555
C8 C7 1_555 1_555
H5 C8 1_555 1_555
C9 H6 1_555 1_555
C10 H7 1_555 1_555
C11 C10 1_555 1_555
H8 C11 1_555 1_555
C12 H9 1_555 1_555
C13 H10 1_555 1_555
C14 C13 1_555 1_555
H11 C14 1_555 1_555
C15 H12 1_555 1_555
C16 H13 1_555 1_555
C17 C16 1_555 1_555
H14 C17 1_555 1_555
H15 C17 1_555 1_555
C18 C17 1_555 1_555
H16 C18 1_555 1_555
C19 C18 1_555 1_555
H17 C19 1_555 1_555
H18 C19 1_555 1_555
C20 C19 1_555 1_555
H19 C20 1_555 1_555
C21 C16 1_555 1_555
H20 C21 1_555 1_555
H21 C21 1_555 1_555
C22 C16 1_555 1_555
C23 C18 1_555 1_555
C24 C20 1_555 1_555
N1 C8 1_555 1_555
N2 C1 1_555 1_555
N3 C11 1_555 1_555
N4 C3 1_555 1_555
N5 C14 1_555 1_555
N6 C5 1_555 1_555
O1 Ni1 1_555 1_555
O2 Ni1 1_555 1_555
O3 C23 1_555 1_555
O4 C23 1_555 1_555
O5 C24 1_555 1_555
O6 C24 1_555 1_555
Ni1B N1B 1_555 1_555
Ni1A N3 1_555 1_555
Ni1_2 O4 1_555 1_555
Ni1C O6 1_555 1_555
Ni1B_2 O4B 1_555 1_555
Ni1A_2 O6B 1_555 1_555
Ni1A_3 N1A 1_555 1_555
Ni2_2 O4 1_555 1_555
Ni2A O5 1_555 1_555
Ni2_3 O4B 1_555 1_555
Ni2A_2 O5B 1_555 1_555
C1A C2A 1_555 1_555
C2A H1A 1_555 1_555
C3A C2A 1_555 1_555
C4A C3A 1_555 1_555
H2A C4A 1_555 1_555
C5A C4A 1_555 1_555
C6A C1A 1_555 1_555
H3A C6A 1_555 1_555
C7A H4A 1_555 1_555
C8A C7A 1_555 1_555
H5A C8A 1_555 1_555
C9A H6A 1_555 1_555
C10A H7A 1_555 1_555
C11A C10A 1_555 1_555
H8A C11A 1_555 1_555
C12A H9A 1_555 1_555
C13A H10A 1_555 1_555
C14A C13A 1_555 1_555
H11A C14A 1_555 1_555
C15A H12A 1_555 1_555
C16B H13B 1_555 1_555
C17B C16B 1_555 1_555
H14B C17B 1_555 1_555
H15B C17B 1_555 1_555
C18B C17B 1_555 1_555
H16B C18B 1_555 1_555
C19B C18B 1_555 1_555
H17B C19B 1_555 1_555
H18B C19B 1_555 1_555
C20B C19B 1_555 1_555
H19B C20B 1_555 1_555
C21B C16B 1_555 1_555
H20B C21B 1_555 1_555
H21B C21B 1_555 1_555
C22B C16B 1_555 1_555
C23B C18B 1_555 1_555
C24B C20B 1_555 1_555
N1A C8A 1_555 1_555
N2A C1A 1_555 1_555
N3A Ni1 1_555 1_555
N3C Ni1B 1_555 1_555
N4A C3A 1_555 1_555
N5A C14A 1_555 1_555
N6A C5A 1_555 1_555
O1B Ni2 1_555 1_555
O2B Ni1B 1_555 1_555
O3B C23B 1_555 1_555
O4B C23B 1_555 1_555
O4_2 Ni1 1_555 1_555
O4B_2 Ni2 1_555 1_555
O5B C24B 1_555 1_555
O5A Ni2 1_555 1_555
O5C Ni2 1_555 1_555
O6B C24B 1_555 1_555
O6C Ni1 1_555 1_555
O6A Ni1B 1_555 1_555
Ni2 O4_2 1_555 1_555
C5 C6 1_555 1_555
C7 N2 1_555 1_555
C9 N1 1_555 1_555
C9 N2 1_555 1_555
C10 N4 1_555 1_555
C12 N3 1_555 1_555
C12 N4 1_555 1_555
C13 N6 1_555 1_555
C15 N5 1_555 1_555
C15 N6 1_555 1_555
C20 C21 1_555 1_555
C22 O1 1_555 1_555
C22 O2 1_555 1_555
Ni1B O1B 1_555 1_555
Ni1B O4B_2 1_555 1_555
C5A C6A 1_555 1_555
C7A N2A 1_555 1_555
C9A N1A 1_555 1_555
C9A N2A 1_555 1_555
C10A N4A 1_555 1_555
C11A N3A 1_555 1_555
C12A N3A 1_555 1_555
C12A N4A 1_555 1_555
C13A N6A 1_555 1_555
C15A N5A 1_555 1_555
C15A N6A 1_555 1_555
C20B C21B 1_555 1_555
C22B O1B 1_555 1_555
C22B O2B 1_555 1_555

#END
