
#######################################################################
#
#                 Cambridge Crystallographic Data Centre
#                                CCDC 
#
#######################################################################
#
# If this CIF has been generated from an entry in the Cambridge 
# Structural Database, then it will include bibliographic, chemical, 
# crystal, experimental, refinement or atomic coordinate data resulting 
# from the CCDC's data processing and validation procedures.
#
#######################################################################

data_LABHIH
_symmetry_cell_setting           triclinic
_symmetry_space_group_name_H-M   'P -1'
_symmetry_Int_Tables_number      2
_space_group_name_Hall           '-P 1'
loop_
_symmetry_equiv_pos_site_id
_symmetry_equiv_pos_as_xyz
1 x,y,z
2 -x,-y,-z
_cell_length_a                   8.8282(4)
_cell_length_b                   9.3941(4)
_cell_length_c                   13.1958(6)
_cell_angle_alpha                90.1950(10)
_cell_angle_beta                 99.3210(10)
_cell_angle_gamma                104.2720(10)
_cell_volume                     1045.51
loop_
_atom_site_label
_atom_site_type_symbol
_atom_site_fract_x
_atom_site_fract_y
_atom_site_fract_z
Mn1 Mn 0.30585(4) 0.77285(4) 0.54184(3)
Mn2 Mn 0.08476(5) 0.74033(4) 0.75331(3)
O1 O 0.0910(2) 0.5185(2) 0.71639(16)
O2 O 0.3027(2) 0.58059(19) 0.63950(16)
O3 O -0.0506(2) 0.2927(3) 0.49109(16)
O4 O 0.0923(2) 0.2579(2) 0.37479(14)
O5 O 0.4480(2) 0.2033(2) 0.45030(15)
O6 O 0.3272(2) -0.0339(2) 0.45380(15)
O7 O 0.2842(2) -0.12277(19) 0.68703(15)
O8 O 0.1842(4) -0.0004(2) 0.7858(2)
O9 O 0.2577(3) 0.6416(2) 0.39592(17)
H1 H 0.1615 0.6104 0.4035
H2 H 0.2593 0.6909 0.3420
N1 N 0.1659(3) 0.6954(3) 0.91830(19)
N2 N -0.0891(3) 0.7918(3) 0.8489(2)
C1 C 0.1927(3) 0.3255(3) 0.65742(19)
H5 H 0.0918 0.2642 0.6715
C2 C 0.2157(3) 0.2865(3) 0.54928(18)
H6 H 0.3077 0.3581 0.5315
C3 C 0.2534(3) 0.1352(3) 0.55939(19)
H7 H 0.1534 0.0591 0.5529
C4 C 0.3458(3) 0.1389(3) 0.67202(19)
H8 H 0.4576 0.1438 0.6706
C5 C 0.3309(3) 0.2807(3) 0.7249(2)
H9 H 0.4281 0.3575 0.7288
H10 H 0.3085 0.2622 0.7939
C6 C 0.1955(3) 0.4873(3) 0.67180(19)
C7 C 0.0738(3) 0.2790(3) 0.46615(19)
C8 C 0.3497(3) 0.0987(3) 0.48112(19)
C9 C 0.2705(3) -0.0006(3) 0.7211(2)
C10 C 0.2896(5) 0.6377(4) 0.9470(3)
H11 H 0.3512 0.6250 0.8985
C11 C 0.3293(6) 0.5963(5) 1.0461(4)
H12 H 0.4164 0.5571 1.0641
C12 C 0.2388(7) 0.6138(6) 1.1168(3)
H13 H 0.2634 0.5868 1.1840
C13 C 0.1113(6) 0.6716(5) 1.0884(3)
H14 H 0.0476 0.6827 1.1361
C14 C 0.0770(4) 0.7138(4) 0.9877(2)
C15 C -0.0566(4) 0.7793(4) 0.9509(2)
C16 C -0.1418(5) 0.8298(5) 1.0165(3)
H15 H -0.1174 0.8219 1.0872
C17 C -0.2610(6) 0.8907(6) 0.9764(4)
H16 H -0.3199 0.9231 1.0199
C18 C -0.2958(5) 0.9051(6) 0.8726(4)
H17 H -0.3770 0.9472 0.8442
C19 C -0.2052(5) 0.8546(5) 0.8121(3)
H18 H -0.2263 0.8648 0.7415
Mn1A Mn -0.30585(4) 0.22715(4) 0.45816(3)
Mn1A_2 Mn 0.69415(4) 0.22715(4) 0.45816(3)
Mn1_2 Mn 0.30585(4) -0.22715(4) 0.54184(3)
Mn2A Mn -0.08476(5) 0.25967(4) 0.24669(3)
Mn2_2 Mn 0.08476(5) -0.25967(4) 0.75331(3)
O3A O 0.0506(2) 0.7073(3) 0.50891(16)
O4A O -0.0923(2) 0.7421(2) 0.62521(14)
O5A O 0.5520(2) 0.7967(2) 0.54970(15)
O6_2 O 0.3272(2) 0.9661(2) 0.45380(15)
O7_2 O 0.2842(2) 0.87723(19) 0.68703(15)
O8_2 O 0.1842(4) 0.9996(2) 0.7858(2)
O10 O 0.3817(3) 0.4392(2) 0.32479(19)
H3 H 0.2889 0.4014 0.3370
H4 H 0.4193 0.3695 0.3072
loop_
_geom_bond_atom_site_label_1
_geom_bond_atom_site_label_2
_geom_bond_site_symmetry_1
_geom_bond_site_symmetry_2
Mn1 O2 1_555 1_555
Mn2 O1 1_555 1_555
O1 C6 1_555 1_555
O2 C6 1_555 1_555
O3 C7 1_555 1_555
O4 C7 1_555 1_555
O5 C8 1_555 1_555
O6 C8 1_555 1_555
O7 C9 1_555 1_555
O8 C9 1_555 1_555
O9 Mn1 1_555 1_555
H1 O9 1_555 1_555
H2 O9 1_555 1_555
O10 H3 1_555 1_555
H4 O10 1_555 1_555
N1 Mn2 1_555 1_555
N2 Mn2 1_555 1_555
C1 H5 1_555 1_555
C2 C1 1_555 1_555
H6 C2 1_555 1_555
C3 C2 1_555 1_555
H7 C3 1_555 1_555
C4 C3 1_555 1_555
H8 C4 1_555 1_555
C5 C1 1_555 1_555
H9 C5 1_555 1_555
H10 C5 1_555 1_555
C6 C1 1_555 1_555
C7 C2 1_555 1_555
C8 C3 1_555 1_555
C9 C4 1_555 1_555
C10 N1 1_555 1_555
H11 C10 1_555 1_555
C11 C10 1_555 1_555
H12 C11 1_555 1_555
C12 C11 1_555 1_555
H13 C12 1_555 1_555
C13 C12 1_555 1_555
H14 C13 1_555 1_555
C14 N1 1_555 1_555
C15 N2 1_555 1_555
C16 C15 1_555 1_555
H15 C16 1_555 1_555
C17 C16 1_555 1_555
H16 C17 1_555 1_555
C18 C17 1_555 1_555
H17 C18 1_555 1_555
C19 N2 1_555 1_555
H18 C19 1_555 1_555
Mn1A O3 1_555 1_555
Mn1A_2 O5 1_555 1_555
Mn1_2 O6 1_555 1_555
Mn2A O4 1_555 1_555
Mn2_2 O7 1_555 1_555
O3A Mn1 1_555 1_555
O4A Mn2 1_555 1_555
O5A Mn1 1_555 1_555
O6_2 Mn1 1_555 1_555
O7_2 Mn1 1_555 1_555
O8_2 Mn2 1_555 1_555
Mn2 O7_2 1_555 1_555
O7 Mn1_2 1_555 1_555
O8 Mn2_2 1_555 1_555
C4 C5 1_555 1_555
C13 C14 1_555 1_555
C14 C15 1_555 1_555
C18 C19 1_555 1_555

#END
