
#######################################################################
#
#                 Cambridge Crystallographic Data Centre
#                                CCDC 
#
#######################################################################
#
# If this CIF has been generated from an entry in the Cambridge 
# Structural Database, then it will include bibliographic, chemical, 
# crystal, experimental, refinement or atomic coordinate data resulting 
# from the CCDC's data processing and validation procedures.
#
#######################################################################

data_LABJAB
_symmetry_cell_setting           monoclinic
_symmetry_space_group_name_H-M   'P 21/c'
_symmetry_Int_Tables_number      14
_space_group_name_Hall           '-P 2ybc'
loop_
_symmetry_equiv_pos_site_id
_symmetry_equiv_pos_as_xyz
1 x,y,z
2 -x,1/2+y,1/2-z
3 -x,-y,-z
4 x,1/2-y,1/2+z
_cell_length_a                   8.1398(5)
_cell_length_b                   10.4304(6)
_cell_length_c                   15.5320(10)
_cell_angle_alpha                90
_cell_angle_beta                 104.8460(10)
_cell_angle_gamma                90
_cell_volume                     1274.67
loop_
_atom_site_label
_atom_site_type_symbol
_atom_site_fract_x
_atom_site_fract_y
_atom_site_fract_z
Cd1 Cd 0.27602(5) 0.68302(3) 0.13132(2)
Cd2 Cd 0.12336(5) 0.43429(4) -0.25427(3)
O1 O 0.2992(6) 0.4594(4) 0.1538(3)
O2 O 0.3256(6) 0.5293(4) 0.0250(3)
O3 O -0.0130(6) 0.3011(4) -0.0193(3)
O4 O 0.0141(5) 0.3204(4) -0.1549(3)
O5 O 0.3629(6) -0.1483(4) 0.0662(3)
O6 O 0.2030(6) -0.0564(4) 0.1435(3)
O7 O 0.3816(6) 0.1693(4) 0.2717(3)
O8 O 0.6012(5) 0.2243(4) 0.2207(3)
O9 O -0.0727(7) 0.3157(5) -0.3596(3)
H1 H -0.0398 0.2433 -0.3820
H2 H -0.1813 0.3422 -0.3780
O10 O 0.2622(7) 0.5716(5) -0.1493(3)
H3 H 0.3056 0.6439 -0.1311
H4 H 0.2877 0.5198 -0.1057
O11 O -0.0932(6) 0.5735(4) -0.2636(3)
H5 H -0.1789 0.5931 -0.2445
H6 H -0.0634 0.6402 -0.2872
C1 C 0.3593(7) 0.3027(5) 0.0522(3)
H7 H 0.4804 0.3005 0.0537
C2 C 0.2605(7) 0.2553(5) -0.0422(3)
H8 H 0.3220 0.2793 -0.0863
C3 C 0.2574(7) 0.1076(5) -0.0328(3)
H9 H 0.3100 0.0669 -0.0752
H10 H 0.1414 0.0769 -0.0434
C4 C 0.3587(7) 0.0773(5) 0.0639(3)
H11 H 0.4795 0.0720 0.0653
C5 C 0.3308(7) 0.1987(5) 0.1151(3)
H12 H 0.2120 0.2014 0.1182
C6 C 0.4445(7) 0.1993(5) 0.2082(3)
C7 C 0.3211(6) 0.4376(5) 0.0772(4)
C8 C 0.0791(7) 0.2987(5) -0.0723(4)
C9 C 0.3047(7) -0.0492(5) 0.0934(3)
Cd1B Cd -0.27602(5) 0.31698(3) -0.13132(2)
Cd1_2 Cd 0.27602(5) -0.31698(3) 0.13132(2)
Cd1A Cd 0.72398(5) 0.18302(3) 0.36868(2)
Cd2C Cd 0.12336(5) 0.06571(4) 0.24573(3)
O3B O 0.0130(6) 0.6989(4) 0.0193(3)
O4B O -0.0141(5) 0.6796(4) 0.1549(3)
O5_2 O 0.3629(6) 0.8517(4) 0.0662(3)
O6C O 0.2030(6) 0.5564(4) -0.3565(3)
O7C O 0.3816(6) 0.3307(4) -0.2283(3)
O8A O 0.3988(5) 0.7243(4) 0.2793(3)
loop_
_geom_bond_atom_site_label_1
_geom_bond_atom_site_label_2
_geom_bond_site_symmetry_1
_geom_bond_site_symmetry_2
Cd1 O1 1_555 1_555
Cd2 O4 1_555 1_555
O1 C7 1_555 1_555
O2 Cd1 1_555 1_555
O3 C8 1_555 1_555
O4 C8 1_555 1_555
O5 C9 1_555 1_555
O6 C9 1_555 1_555
O7 C6 1_555 1_555
O8 C6 1_555 1_555
O9 Cd2 1_555 1_555
H1 O9 1_555 1_555
H2 O9 1_555 1_555
O10 Cd2 1_555 1_555
H3 O10 1_555 1_555
H4 O10 1_555 1_555
O11 Cd2 1_555 1_555
H5 O11 1_555 1_555
H6 O11 1_555 1_555
C1 H7 1_555 1_555
C2 C1 1_555 1_555
H8 C2 1_555 1_555
C3 C2 1_555 1_555
H9 C3 1_555 1_555
H10 C3 1_555 1_555
C4 C3 1_555 1_555
H11 C4 1_555 1_555
C5 C1 1_555 1_555
H12 C5 1_555 1_555
C6 C5 1_555 1_555
C7 O2 1_555 1_555
C8 C2 1_555 1_555
C9 C4 1_555 1_555
Cd1B O3 1_555 1_555
Cd1_2 O5 1_555 1_555
Cd1A O8 1_555 1_555
Cd2C O6 1_555 1_555
O3B Cd1 1_555 1_555
O4B Cd1 1_555 1_555
O5_2 Cd1 1_555 1_555
O6C Cd2 1_555 1_555
O7C Cd2 1_555 1_555
O8A Cd1 1_555 1_555
O4 Cd1B 1_555 1_555
O7 Cd2C 1_555 1_555
C1 C7 1_555 1_555
C4 C5 1_555 1_555

#END
