
#######################################################################
#
#                 Cambridge Crystallographic Data Centre
#                                CCDC 
#
#######################################################################
#
# If this CIF has been generated from an entry in the Cambridge 
# Structural Database, then it will include bibliographic, chemical, 
# crystal, experimental, refinement or atomic coordinate data resulting 
# from the CCDC's data processing and validation procedures.
#
#######################################################################

data_LABJOP
_symmetry_cell_setting           monoclinic
_symmetry_space_group_name_H-M   'C 2/c'
_symmetry_Int_Tables_number      15
_space_group_name_Hall           '-C 2yn'
loop_
_symmetry_equiv_pos_site_id
_symmetry_equiv_pos_as_xyz
1 x,y,z
2 -x,y,1/2-z
3 1/2+x,1/2+y,z
4 1/2-x,1/2+y,1/2-z
5 -x,-y,-z
6 x,-y,1/2+z
7 1/2-x,1/2-y,-z
8 1/2+x,1/2-y,1/2+z
_cell_length_a                   13.1150(19)
_cell_length_b                   22.273(3)
_cell_length_c                   10.6802(15)
_cell_angle_alpha                90
_cell_angle_beta                 118.973(2)
_cell_angle_gamma                90
_cell_volume                     2729.35
loop_
_atom_site_label
_atom_site_type_symbol
_atom_site_fract_x
_atom_site_fract_y
_atom_site_fract_z
Cu1 Cu 0.91871(6) 0.33624(3) 0.79580(8)
Br1 Br 0.87224(6) 0.37504(3) 0.55449(7)
N1 N 0.9294(4) 0.24655(19) 0.8397(5)
N2 N 0.6863(4) 0.1197(2) 1.1456(6)
C1 C 1.0340(5) 0.2233(3) 0.9284(6)
H1 H 1.0979 0.2489 0.9651
C2 C 1.0535(5) 0.1641(2) 0.9691(6)
H2 H 1.1284 0.1502 1.0301
C3 C 0.9589(5) 0.1256(2) 0.9170(6)
C4 C 0.8514(5) 0.1480(2) 0.8215(6)
H3 H 0.7864 0.1231 0.7808
C5 C 0.8417(5) 0.2080(2) 0.7870(6)
H4 H 0.7683 0.2225 0.7220
C6 C 0.9786(5) 0.0609(2) 0.9635(6)
C7 C 1.0585(5) 0.0282(2) 0.9414(5)
H5 H 1.0989 0.0479 0.9022
C8 C 0.9185(5) 0.0319(2) 1.0257(6)
C9 C 0.8371(5) 0.0627(2) 1.0643(6)
C10 C 0.7417(5) 0.0338(3) 1.0560(7)
H6 H 0.7248 -0.0055 1.0222
C11 C 0.6705(6) 0.0635(3) 1.0984(8)
H7 H 0.6073 0.0426 1.0934
C12 C 0.7792(5) 0.1476(3) 1.1524(6)
H8 H 0.7931 0.1871 1.1851
C13 C 0.8555(5) 0.1219(2) 1.1142(6)
H9 H 0.9187 0.1436 1.1215
Cu1A Cu 1.08129(6) 0.33624(3) 0.70420(8)
Cu1F Cu 0.58129(6) 0.16376(3) 1.20420(8)
Cu1D Cu 1.08129(6) -0.33624(3) 1.20420(8)
Cu1B Cu 1.41871(6) -0.16376(3) 0.79580(8)
Br1A Br 1.12776(6) 0.37504(3) 0.94551(7)
N1D N 1.0706(4) -0.24655(19) 1.1603(5)
N1A N 1.0706(4) 0.24655(19) 0.6603(5)
N2D N 1.3137(4) -0.1197(2) 0.8544(6)
N2F N 0.8137(4) 0.3803(2) 0.8544(6)
N2G N 1.1863(4) 0.3803(2) 0.6456(6)
C1D C 0.9660(5) -0.2233(3) 1.0716(6)
H1D H 0.9021 -0.2489 1.0349
C2D C 0.9465(5) -0.1641(2) 1.0309(6)
H2D H 0.8716 -0.1502 0.9699
C3D C 1.0411(5) -0.1256(2) 1.0830(6)
C4D C 1.1486(5) -0.1480(2) 1.1785(6)
H3D H 1.2136 -0.1231 1.2192
C5D C 1.1583(5) -0.2080(2) 1.2130(6)
H4D H 1.2317 -0.2225 1.2780
C6D C 1.0214(5) -0.0609(2) 1.0365(6)
C7D C 0.9415(5) -0.0282(2) 1.0586(5)
H5D H 0.9011 -0.0479 1.0978
C8D C 1.0815(5) -0.0319(2) 0.9743(6)
C9D C 1.1629(5) -0.0627(2) 0.9357(6)
C10D C 1.2583(5) -0.0338(3) 0.9440(7)
H6D H 1.2752 0.0055 0.9778
C11D C 1.3295(6) -0.0635(3) 0.9016(8)
H7D H 1.3927 -0.0426 0.9066
C12D C 1.2208(5) -0.1476(3) 0.8476(6)
H8D H 1.2069 -0.1871 0.8149
C13D C 1.1445(5) -0.1219(2) 0.8858(6)
H9D H 1.0813 -0.1436 0.8785
C14 C 1.0000 0.3687(7) 0.2500
C15 C 1.0000 0.3039(7) 0.2500
N3 N 1.0000 0.2553(9) 0.2500
loop_
_geom_bond_atom_site_label_1
_geom_bond_atom_site_label_2
_geom_bond_site_symmetry_1
_geom_bond_site_symmetry_2
Cu1 Br1 1_555 1_555
Br1 Cu1A 1_555 1_555
N1 Cu1 1_555 1_555
N2 C11 1_555 1_555
C1 N1 1_555 1_555
H1 C1 1_555 1_555
C2 C1 1_555 1_555
H2 C2 1_555 1_555
C3 C2 1_555 1_555
C4 C3 1_555 1_555
H3 C4 1_555 1_555
C5 N1 1_555 1_555
H4 C5 1_555 1_555
C6 C3 1_555 1_555
C7 C6 1_555 1_555
H5 C7 1_555 1_555
C8 C6 1_555 1_555
C9 C8 1_555 1_555
C10 C9 1_555 1_555
H6 C10 1_555 1_555
C11 C10 1_555 1_555
H7 C11 1_555 1_555
C12 N2 1_555 1_555
H8 C12 1_555 1_555
C13 C9 1_555 1_555
H9 C13 1_555 1_555
C14 C15 1_555 1_555
C15 N3 1_555 1_555
Cu1A Br1A 1_555 1_555
Cu1F N2 1_555 1_555
Cu1D N1D 1_555 1_555
Cu1B N2D 1_555 1_555
Br1A Cu1 1_555 1_555
N1D C1D 1_555 1_555
N1A Cu1A 1_555 1_555
N2D C11D 1_555 1_555
N2F Cu1 1_555 1_555
N2G Cu1A 1_555 1_555
C1D H1D 1_555 1_555
C2D C1D 1_555 1_555
H2D C2D 1_555 1_555
C3D C2D 1_555 1_555
C4D C3D 1_555 1_555
H3D C4D 1_555 1_555
C5D N1D 1_555 1_555
H4D C5D 1_555 1_555
C6D C3D 1_555 1_555
C7D C8 1_555 1_555
H5D C7D 1_555 1_555
C8D C7 1_555 1_555
C9D C8D 1_555 1_555
C10D C9D 1_555 1_555
H6D C10D 1_555 1_555
C11D C10D 1_555 1_555
H7D C11D 1_555 1_555
C12D N2D 1_555 1_555
H8D C12D 1_555 1_555
C13D C9D 1_555 1_555
H9D C13D 1_555 1_555
C4 C5 1_555 1_555
C12 C13 1_555 1_555
C4D C5D 1_555 1_555
C6D C7D 1_555 1_555
C6D C8D 1_555 1_555
C12D C13D 1_555 1_555

#END
