
#######################################################################
#
#                 Cambridge Crystallographic Data Centre
#                                CCDC 
#
#######################################################################
#
# If this CIF has been generated from an entry in the Cambridge 
# Structural Database, then it will include bibliographic, chemical, 
# crystal, experimental, refinement or atomic coordinate data resulting 
# from the CCDC's data processing and validation procedures.
#
#######################################################################

data_LABJIJ
_symmetry_cell_setting           orthorhombic
_symmetry_space_group_name_H-M   'P b c n'
_symmetry_Int_Tables_number      60
_space_group_name_Hall           '-P 2n 2ab'
loop_
_symmetry_equiv_pos_site_id
_symmetry_equiv_pos_as_xyz
1 x,y,z
2 1/2-x,1/2-y,1/2+z
3 -x,y,1/2-z
4 1/2+x,1/2-y,-z
5 -x,-y,-z
6 1/2+x,1/2+y,1/2-z
7 x,-y,1/2+z
8 1/2-x,1/2+y,z
_cell_length_a                   18.175(3)
_cell_length_b                   8.7350(15)
_cell_length_c                   30.413(5)
_cell_angle_alpha                90
_cell_angle_beta                 90
_cell_angle_gamma                90
_cell_volume                     4828.33
loop_
_atom_site_label
_atom_site_type_symbol
_atom_site_fract_x
_atom_site_fract_y
_atom_site_fract_z
Cu1 Cu 0.69693(3) 0.39150(8) 0.661129(19)
S1 S 0.85658(8) 0.49742(18) 0.67157(5)
O1 O 0.80411(19) 0.3665(4) 0.66539(12)
O2 O 0.8147(2) 0.6396(5) 0.66682(15)
O3 O 0.9120(2) 0.4880(6) 0.63731(18)
O4 O 0.8887(3) 0.4856(6) 0.71436(17)
N1 N 0.7042(2) 0.3742(5) 0.59402(14)
N2 N 0.4083(2) 0.5430(6) 0.34908(14)
N3 N 0.6876(2) 0.5586(5) 0.22549(14)
N4 N 0.9873(3) 0.3123(8) 0.4743(2)
C1 C 0.7047(3) 0.3775(6) 0.45278(16)
C2 C 0.6366(3) 0.3940(7) 0.43302(17)
H1 H 0.5948 0.3799 0.4502
C3 C 0.6273(3) 0.4306(7) 0.38898(17)
C4 C 0.6908(3) 0.4487(7) 0.36299(17)
C5 C 0.7592(3) 0.4238(7) 0.38253(17)
H2 H 0.8009 0.4303 0.3649
C6 C 0.7683(3) 0.3900(6) 0.42647(17)
C7 C 0.7069(3) 0.3703(6) 0.50193(17)
C8 C 0.6537(3) 0.2918(7) 0.52588(17)
H3 H 0.6178 0.2354 0.5113
C9 C 0.6543(3) 0.2975(7) 0.57105(18)
H4 H 0.6178 0.2449 0.5863
C10 C 0.7550(3) 0.4502(7) 0.57146(18)
H5 H 0.7899 0.5059 0.5871
C11 C 0.7588(3) 0.4513(7) 0.52666(17)
H6 H 0.7959 0.5058 0.5126
C12 C 0.5518(3) 0.4661(7) 0.37317(16)
C13 C 0.5358(3) 0.6054(7) 0.35339(18)
H7 H 0.5730 0.6758 0.3479
C14 C 0.4643(3) 0.6385(7) 0.34192(18)
H8 H 0.4546 0.7321 0.3285
C15 C 0.4232(3) 0.4072(7) 0.36768(18)
H9 H 0.3850 0.3379 0.3721
C16 C 0.4938(3) 0.3670(7) 0.38047(19)
H10 H 0.5021 0.2732 0.3940
C17 C 0.6878(3) 0.4872(7) 0.31519(17)
C18 C 0.7336(3) 0.5973(8) 0.29821(18)
H11 H 0.7659 0.6495 0.3166
C19 C 0.7317(3) 0.6305(7) 0.25384(19)
H12 H 0.7626 0.7068 0.2432
C20 C 0.6428(3) 0.4511(7) 0.24247(18)
H13 H 0.6116 0.3992 0.2234
C21 C 0.6404(3) 0.4135(7) 0.28606(17)
H14 H 0.6075 0.3398 0.2961
C22 C 0.8436(3) 0.3631(7) 0.44333(18)
C23 C 0.8596(3) 0.2459(8) 0.4723(2)
H15 H 0.8227 0.1805 0.4821
C24 C 0.9313(4) 0.2272(9) 0.4864(3)
H16 H 0.9406 0.1480 0.5061
C25 C 0.9714(4) 0.4214(10) 0.4464(3)
H17 H 1.0101 0.4824 0.4366
C26 C 0.9018(3) 0.4540(9) 0.4300(2)
H18 H 0.8945 0.5349 0.4106
Cu1G Cu 0.80307(3) -0.10850(8) 0.661129(19)
Cu1G_2 Cu 0.80307(3) 0.89150(8) 0.661129(19)
Cu1D Cu 0.30307(3) 0.60850(8) 0.338871(19)
Cu1F Cu 0.69693(3) 0.60850(8) 0.161129(19)
Cu1B Cu 0.30307(3) 0.39150(8) 0.838871(19)
S1G S 0.64342(8) -0.00258(18) 0.67157(5)
O1G O 0.69589(19) -0.1335(4) 0.66539(12)
O2G O 0.6853(2) 0.1396(5) 0.66682(15)
O2_2 O 0.8147(2) -0.3604(5) 0.66682(15)
O3G O 0.5880(2) -0.0120(6) 0.63731(18)
O4G O 0.6113(3) -0.0144(6) 0.71436(17)
N1D N 0.2958(2) 0.6258(5) 0.40598(14)
N1G N 0.7958(2) -0.1258(5) 0.59402(14)
N2D N 0.5917(2) 0.4570(6) 0.65092(14)
N2C N 0.9083(2) -0.0430(6) 0.65092(14)
N3D N 0.3124(2) 0.4414(5) 0.77451(14)
N3F N 0.6876(2) 0.4414(5) 0.72549(14)
N3A N 0.8124(2) -0.0586(5) 0.72549(14)
N4D N 0.0127(3) 0.6877(8) 0.5257(2)
C1D C 0.2953(3) 0.6225(6) 0.54722(16)
C2D C 0.3634(3) 0.6060(7) 0.56698(17)
H1D H 0.4052 0.6201 0.5498
C3D C 0.3727(3) 0.5694(7) 0.61102(17)
C4D C 0.3092(3) 0.5513(7) 0.63701(17)
C5D C 0.2408(3) 0.5762(7) 0.61747(17)
H2D H 0.1991 0.5697 0.6351
C6D C 0.2317(3) 0.6100(6) 0.57353(17)
C7D C 0.2931(3) 0.6297(6) 0.49807(17)
C8D C 0.3463(3) 0.7082(7) 0.47412(17)
H3D H 0.3822 0.7646 0.4887
C9D C 0.3457(3) 0.7025(7) 0.42895(18)
H4D H 0.3822 0.7551 0.4137
C10D C 0.2450(3) 0.5498(7) 0.42854(18)
H5D H 0.2101 0.4941 0.4129
C11D C 0.2412(3) 0.5487(7) 0.47334(17)
H6D H 0.2041 0.4942 0.4874
C12D C 0.4482(3) 0.5339(7) 0.62683(16)
C13D C 0.4642(3) 0.3946(7) 0.64661(18)
H7D H 0.4270 0.3242 0.6521
C14D C 0.5357(3) 0.3615(7) 0.65808(18)
H8D H 0.5454 0.2679 0.6715
C15D C 0.5768(3) 0.5928(7) 0.63232(18)
H9D H 0.6150 0.6621 0.6279
C16D C 0.5062(3) 0.6330(7) 0.61953(19)
H10D H 0.4979 0.7268 0.6060
C17D C 0.3122(3) 0.5128(7) 0.68481(17)
C18D C 0.2664(3) 0.4027(8) 0.70179(18)
H11D H 0.2341 0.3505 0.6834
C19D C 0.2683(3) 0.3695(7) 0.74616(19)
H12D H 0.2374 0.2932 0.7568
C20D C 0.3572(3) 0.5489(7) 0.75753(18)
H13D H 0.3884 0.6008 0.7766
C21D C 0.3596(3) 0.5865(7) 0.71394(17)
H14D H 0.3925 0.6602 0.7039
C22D C 0.1564(3) 0.6369(7) 0.55667(18)
C23D C 0.1404(3) 0.7541(8) 0.5277(2)
H15D H 0.1773 0.8195 0.5179
C24D C 0.0687(4) 0.7728(9) 0.5136(3)
H16D H 0.0594 0.8520 0.4939
C25D C 0.0286(4) 0.5786(10) 0.5536(3)
H17D H -0.0101 0.5176 0.5634
C26D C 0.0982(3) 0.5460(9) 0.5700(2)
H18D H 0.1055 0.4651 0.5894
O5 O 0.5000 0.2022(10) 0.2500
O6 O 0.5673(5) 0.0225(14) 0.3278(3)
O7 O 0.5666(9) -0.1937(18) 0.2684(5)
loop_
_geom_bond_atom_site_label_1
_geom_bond_atom_site_label_2
_geom_bond_site_symmetry_1
_geom_bond_site_symmetry_2
Cu1 O1 1_555 1_555
S1 O1 1_555 1_555
O2 S1 1_555 1_555
O3 S1 1_555 1_555
O4 S1 1_555 1_555
N1 Cu1 1_555 1_555
N2 C14 1_555 1_555
N3 C19 1_555 1_555
N4 C24 1_555 1_555
C1 C2 1_555 1_555
C2 H1 1_555 1_555
C3 C2 1_555 1_555
C4 C3 1_555 1_555
C5 C4 1_555 1_555
H2 C5 1_555 1_555
C6 C1 1_555 1_555
C7 C1 1_555 1_555
C8 C7 1_555 1_555
H3 C8 1_555 1_555
C9 N1 1_555 1_555
H4 C9 1_555 1_555
C10 N1 1_555 1_555
H5 C10 1_555 1_555
C11 C7 1_555 1_555
H6 C11 1_555 1_555
C12 C3 1_555 1_555
C13 C12 1_555 1_555
H7 C13 1_555 1_555
C14 C13 1_555 1_555
H8 C14 1_555 1_555
C15 N2 1_555 1_555
H9 C15 1_555 1_555
C16 C12 1_555 1_555
H10 C16 1_555 1_555
C17 C4 1_555 1_555
C18 C17 1_555 1_555
H11 C18 1_555 1_555
C19 C18 1_555 1_555
H12 C19 1_555 1_555
C20 N3 1_555 1_555
H13 C20 1_555 1_555
C21 C17 1_555 1_555
H14 C21 1_555 1_555
C22 C6 1_555 1_555
C23 C22 1_555 1_555
H15 C23 1_555 1_555
C24 C23 1_555 1_555
H16 C24 1_555 1_555
C25 N4 1_555 1_555
H17 C25 1_555 1_555
C26 C22 1_555 1_555
H18 C26 1_555 1_555
Cu1G O1G 1_555 1_555
Cu1G_2 O2 1_555 1_555
Cu1D N2 1_555 1_555
Cu1F N3 1_555 1_555
Cu1B N3D 1_555 1_555
S1G O1G 1_555 1_555
O2G Cu1 1_555 1_555
O2_2 Cu1G 1_555 1_555
O3G S1G 1_555 1_555
O4G S1G 1_555 1_555
N1D Cu1D 1_555 1_555
N1G Cu1G 1_555 1_555
N2D Cu1 1_555 1_555
N2C Cu1G 1_555 1_555
N3D C19D 1_555 1_555
N3F Cu1 1_555 1_555
N3A Cu1G 1_555 1_555
N4D C24D 1_555 1_555
C1D C2D 1_555 1_555
C2D H1D 1_555 1_555
C3D C2D 1_555 1_555
C4D C3D 1_555 1_555
C5D C4D 1_555 1_555
H2D C5D 1_555 1_555
C6D C1D 1_555 1_555
C7D C1D 1_555 1_555
C8D C7D 1_555 1_555
H3D C8D 1_555 1_555
C9D N1D 1_555 1_555
H4D C9D 1_555 1_555
C10D N1D 1_555 1_555
H5D C10D 1_555 1_555
C11D C7D 1_555 1_555
H6D C11D 1_555 1_555
C12D C3D 1_555 1_555
C13D C12D 1_555 1_555
H7D C13D 1_555 1_555
C14D N2D 1_555 1_555
H8D C14D 1_555 1_555
C15D N2D 1_555 1_555
H9D C15D 1_555 1_555
C16D C12D 1_555 1_555
H10D C16D 1_555 1_555
C17D C4D 1_555 1_555
C18D C17D 1_555 1_555
H11D C18D 1_555 1_555
C19D C18D 1_555 1_555
H12D C19D 1_555 1_555
C20D N3D 1_555 1_555
H13D C20D 1_555 1_555
C21D C17D 1_555 1_555
H14D C21D 1_555 1_555
C22D C6D 1_555 1_555
C23D C22D 1_555 1_555
H15D C23D 1_555 1_555
C24D C23D 1_555 1_555
H16D C24D 1_555 1_555
C25D N4D 1_555 1_555
H17D C25D 1_555 1_555
C26D C22D 1_555 1_555
H18D C26D 1_555 1_555
C5 C6 1_555 1_555
C8 C9 1_555 1_555
C10 C11 1_555 1_555
C15 C16 1_555 1_555
C20 C21 1_555 1_555
C25 C26 1_555 1_555
S1G O2G 1_555 1_555
C5D C6D 1_555 1_555
C8D C9D 1_555 1_555
C10D C11D 1_555 1_555
C13D C14D 1_555 1_555
C15D C16D 1_555 1_555
C20D C21D 1_555 1_555
C25D C26D 1_555 1_555

#END
