
#######################################################################
#
#                 Cambridge Crystallographic Data Centre
#                                CCDC 
#
#######################################################################
#
# If this CIF has been generated from an entry in the Cambridge 
# Structural Database, then it will include bibliographic, chemical, 
# crystal, experimental, refinement or atomic coordinate data resulting 
# from the CCDC's data processing and validation procedures.
#
#######################################################################

data_LABJEF
_symmetry_cell_setting           monoclinic
_symmetry_space_group_name_H-M   'C 2/c'
_symmetry_Int_Tables_number      15
_space_group_name_Hall           '-C 2yn'
loop_
_symmetry_equiv_pos_site_id
_symmetry_equiv_pos_as_xyz
1 x,y,z
2 -x,y,1/2-z
3 1/2+x,1/2+y,z
4 1/2-x,1/2+y,1/2-z
5 -x,-y,-z
6 x,-y,1/2+z
7 1/2-x,1/2-y,-z
8 1/2+x,1/2-y,1/2+z
_cell_length_a                   23.631(3)
_cell_length_b                   4.8043(7)
_cell_length_c                   23.560(3)
_cell_angle_alpha                90
_cell_angle_beta                 116.741(2)
_cell_angle_gamma                90
_cell_volume                     2388.71
loop_
_atom_site_label
_atom_site_type_symbol
_atom_site_fract_x
_atom_site_fract_y
_atom_site_fract_z
Cu1 Cu 0.11368(2) 0.45725(10) 0.13167(2)
N1 N 0.15056(16) 0.5278(7) 0.23389(16)
N2 N -0.01401(16) 0.5048(7) 0.39237(18)
N3 N 0.12723(16) 0.8480(8) 0.11231(15)
C1 C 0.1323(2) 0.3777(9) 0.2702(2)
H1 H 0.1038 0.2334 0.2511
C2 C 0.1531(2) 0.4223(9) 0.3346(2)
H2 H 0.1383 0.3111 0.3574
C3 C 0.19614(16) 0.6340(9) 0.36484(18)
C4 C 0.21628(17) 0.7867(9) 0.32755(18)
H3 H 0.2458 0.9283 0.3457
C5 C 0.19248(18) 0.7292(9) 0.26319(18)
H4 H 0.2065 0.8368 0.2392
C6 C 0.22132(17) 0.6950(9) 0.43383(17)
C7 C 0.28497(17) 0.7661(9) 0.46712(18)
H5 H 0.3089 0.7774 0.4449
C8 C 0.18511(17) 0.6785(9) 0.46759(18)
C9 C 0.11599(17) 0.6158(9) 0.43901(18)
C10 C 0.09398(19) 0.4171(10) 0.4666(2)
H6 H 0.1224 0.3170 0.5017
C11 C 0.02975(19) 0.3676(10) 0.4421(2)
H7 H 0.0162 0.2314 0.4613
C12 C 0.00773(19) 0.6955(10) 0.3658(2)
H8 H -0.0216 0.7930 0.3308
C13 C 0.07086(18) 0.7561(10) 0.3870(2)
H9 H 0.0832 0.8909 0.3665
C14 C 0.12498(18) 1.0771(8) 0.11517(18)
Cu1F Cu 0.38632(2) 1.04275(10) 0.86833(2)
Cu1A Cu -0.11368(2) 0.45725(10) 0.36833(2)
Cu1_2 Cu 0.11368(2) 1.45725(10) 0.13167(2)
Cu1G Cu 0.61368(2) 1.04275(10) 0.63167(2)
Cu1A_2 Cu -0.11368(2) 1.45725(10) 0.36833(2)
N1F N 0.34944(16) 0.9722(7) 0.76611(16)
N1A N -0.15056(16) 0.5278(7) 0.26611(16)
N2F N 0.51401(16) 0.9952(7) 0.60763(18)
N2A N 0.01401(16) 0.5048(7) 0.10763(18)
N3A N -0.12723(16) 0.8480(8) 0.38769(15)
C1F C 0.3677(2) 1.1223(9) 0.7298(2)
H1F H 0.3962 1.2666 0.7489
C2F C 0.3469(2) 1.0777(9) 0.6654(2)
H2F H 0.3617 1.1889 0.6426
C3F C 0.30386(16) 0.8660(9) 0.63516(18)
C4F C 0.28372(17) 0.7133(9) 0.67245(18)
H3F H 0.2542 0.5717 0.6543
C5F C 0.30752(18) 0.7708(9) 0.73681(18)
H4F H 0.2935 0.6632 0.7608
C6F C 0.27868(17) 0.8050(9) 0.56617(17)
C7F C 0.21503(17) 0.7339(9) 0.53288(18)
H5F H 0.1911 0.7226 0.5551
C8F C 0.31489(17) 0.8215(9) 0.53241(18)
C9F C 0.38401(17) 0.8842(9) 0.56099(18)
C10F C 0.40602(19) 1.0829(10) 0.5334(2)
H6F H 0.3776 1.1830 0.4983
C11F C 0.47025(19) 1.1324(10) 0.5579(2)
H7F H 0.4838 1.2686 0.5387
C12F C 0.49227(19) 0.8045(10) 0.6342(2)
H8F H 0.5216 0.7070 0.6692
C13F C 0.42914(18) 0.7439(10) 0.6130(2)
H9F H 0.4168 0.6091 0.6335
C14_2 C 0.12498(18) 0.0771(8) 0.11517(18)
C14A C -0.12498(18) 0.0771(8) 0.38483(18)
C14A_2 C -0.12498(18) 1.0771(8) 0.38483(18)
loop_
_geom_bond_atom_site_label_1
_geom_bond_atom_site_label_2
_geom_bond_site_symmetry_1
_geom_bond_site_symmetry_2
Cu1 N1 1_555 1_555
N1 C1 1_555 1_555
N2 C11 1_555 1_555
N3 Cu1 1_555 1_555
C1 H1 1_555 1_555
C2 C1 1_555 1_555
H2 C2 1_555 1_555
C3 C2 1_555 1_555
C4 C3 1_555 1_555
H3 C4 1_555 1_555
C5 N1 1_555 1_555
H4 C5 1_555 1_555
C6 C3 1_555 1_555
C7 C6 1_555 1_555
H5 C7 1_555 1_555
C8 C6 1_555 1_555
C9 C8 1_555 1_555
C10 C9 1_555 1_555
H6 C10 1_555 1_555
C11 C10 1_555 1_555
H7 C11 1_555 1_555
C12 N2 1_555 1_555
H8 C12 1_555 1_555
C13 C9 1_555 1_555
H9 C13 1_555 1_555
C14 N3 1_555 1_555
Cu1F N1F 1_555 1_555
Cu1A N2 1_555 1_555
Cu1_2 C14 1_555 1_555
Cu1G N2F 1_555 1_555
Cu1A_2 C14A_2 1_555 1_555
N1F C1F 1_555 1_555
N1A Cu1A 1_555 1_555
N2F C11F 1_555 1_555
N2A Cu1 1_555 1_555
N3A Cu1A 1_555 1_555
C1F H1F 1_555 1_555
C2F C1F 1_555 1_555
H2F C2F 1_555 1_555
C3F C2F 1_555 1_555
C4F C3F 1_555 1_555
H3F C4F 1_555 1_555
C5F N1F 1_555 1_555
H4F C5F 1_555 1_555
C6F C3F 1_555 1_555
C7F C8 1_555 1_555
H5F C7F 1_555 1_555
C8F C7 1_555 1_555
C9F C8F 1_555 1_555
C10F C9F 1_555 1_555
H6F C10F 1_555 1_555
C11F C10F 1_555 1_555
H7F C11F 1_555 1_555
C12F N2F 1_555 1_555
H8F C12F 1_555 1_555
C13F C9F 1_555 1_555
H9F C13F 1_555 1_555
C14_2 Cu1 1_555 1_555
C14A Cu1A 1_555 1_555
C14A_2 N3A 1_555 1_555
C4 C5 1_555 1_555
C12 C13 1_555 1_555
C4F C5F 1_555 1_555
C6F C7F 1_555 1_555
C6F C8F 1_555 1_555
C12F C13F 1_555 1_555

#END
