
#######################################################################
#
#                 Cambridge Crystallographic Data Centre
#                                CCDC 
#
#######################################################################
#
# If this CIF has been generated from an entry in the Cambridge 
# Structural Database, then it will include bibliographic, chemical, 
# crystal, experimental, refinement or atomic coordinate data resulting 
# from the CCDC's data processing and validation procedures.
#
#######################################################################

data_LABKOO
_symmetry_cell_setting           monoclinic
_symmetry_space_group_name_H-M   'P 2/a'
_symmetry_Int_Tables_number      13
_space_group_name_Hall           'P 2y -1a'
loop_
_symmetry_equiv_pos_site_id
_symmetry_equiv_pos_as_xyz
1 x,y,z
2 -x,y,-z
3 1/2-x,-y,-z
4 1/2+x,-y,z
_cell_length_a                   10.499(3)
_cell_length_b                   6.750(4)
_cell_length_c                   14.802(6)
_cell_angle_alpha                90
_cell_angle_beta                 104.08(3)
_cell_angle_gamma                90
_cell_volume                     1017.48
loop_
_atom_site_label
_atom_site_type_symbol
_atom_site_fract_x
_atom_site_fract_y
_atom_site_fract_z
Br1 Br 0.1396(2) -0.9243(2) 0.25085(13)
S1 S 0.1593(4) -0.5472(7) 0.1667(3)
Na1 Na 0.1372(7) -0.2620(13) -0.0375(5)
O1 O 0.0000 0.0019(42) 0.0000
O2 O 0.3015(13) -0.0848(21) 0.0820(10)
O3 O 0.0843(11) -0.4031(27) 0.1007(8)
O4 O 0.2874(11) -0.5877(25) 0.1548(9)
N1 N 0.0634(15) -0.7254(26) 0.1609(9)
C1 C 0.3018(23) -0.3702(49) 0.3278(14)
C2 C 0.3138(42) -0.2892(60) 0.4104(23)
C3 C 0.1999(44) -0.2616(40) 0.4508(22)
C4 C 0.0810(35) -0.3158(44) 0.3971(18)
C5 C 0.0748(25) -0.3992(59) 0.3144(17)
C6 C 0.1827(18) -0.4398(26) 0.2765(11)
Br1A Br -0.1396(2) -0.9243(2) -0.25085(13)
S1A S -0.1593(4) -0.5472(7) -0.1667(3)
O3A O -0.0843(11) -0.4031(27) -0.1007(8)
O4A O -0.2874(11) -0.5877(25) -0.1548(9)
N1A N -0.0634(15) -0.7254(26) -0.1609(9)
C1A C -0.3018(23) -0.3702(49) -0.3278(14)
C2A C -0.3138(42) -0.2892(60) -0.4104(23)
C3A C -0.1999(44) -0.2616(40) -0.4508(22)
C4A C -0.0810(35) -0.3158(44) -0.3971(18)
C5A C -0.0748(25) -0.3992(59) -0.3144(17)
C6A C -0.1827(18) -0.4398(26) -0.2765(11)
Na1A Na -0.1372(7) -0.2620(13) 0.0375(5)
O2A O -0.3015(13) -0.0848(21) -0.0820(10)
O4B O 0.2126(11) -0.4123(25) -0.1548(9)
Na1B Na 0.3628(7) -0.7380(13) 0.0375(5)
Na1C Na -0.3628(7) -0.7380(13) -0.0375(5)
O4C O -0.2126(11) -0.4123(25) 0.1548(9)
loop_
_geom_bond_atom_site_label_1
_geom_bond_atom_site_label_2
_geom_bond_site_symmetry_1
_geom_bond_site_symmetry_2
Br1 N1 1_555 1_555
S1 O3 1_555 1_555
Na1 O1 1_555 1_555
O1 Na1A 1_555 1_555
O2 Na1 1_555 1_555
O3 Na1 1_555 1_555
O4 S1 1_555 1_555
N1 S1 1_555 1_555
C1 C2 1_555 1_555
C2 C3 1_555 1_555
C3 C4 1_555 1_555
C4 C5 1_555 1_555
C5 C6 1_555 1_555
C6 S1 1_555 1_555
Br1A N1A 1_555 1_555
S1A O3A 1_555 1_555
O3A Na1 1_555 1_555
O4A S1A 1_555 1_555
N1A S1A 1_555 1_555
C1A C2A 1_555 1_555
C2A C3A 1_555 1_555
C3A C4A 1_555 1_555
C4A C5A 1_555 1_555
C5A C6A 1_555 1_555
C6A S1A 1_555 1_555
Na1A O3 1_555 1_555
O2A Na1A 1_555 1_555
O4B Na1 1_555 1_555
Na1B O4 1_555 1_555
Na1C O4A 1_555 1_555
O4C Na1A 1_555 1_555
C1 C6 1_555 1_555
O3A Na1A 1_555 1_555
C1A C6A 1_555 1_555

#END
