
#######################################################################
#
#                 Cambridge Crystallographic Data Centre
#                                CCDC 
#
#######################################################################
#
# If this CIF has been generated from an entry in the Cambridge 
# Structural Database, then it will include bibliographic, chemical, 
# crystal, experimental, refinement or atomic coordinate data resulting 
# from the CCDC's data processing and validation procedures.
#
#######################################################################

data_LABNOT
_symmetry_cell_setting           orthorhombic
_symmetry_space_group_name_H-M   'P n m a'
_symmetry_Int_Tables_number      62
_space_group_name_Hall           '-P 2ac 2n'
loop_
_symmetry_equiv_pos_site_id
_symmetry_equiv_pos_as_xyz
1 x,y,z
2 1/2-x,-y,1/2+z
3 -x,1/2+y,-z
4 1/2+x,1/2-y,1/2-z
5 -x,-y,-z
6 1/2+x,y,1/2-z
7 x,1/2-y,z
8 1/2-x,1/2+y,1/2+z
_cell_length_a                   23.496(2)
_cell_length_b                   6.8277(6)
_cell_length_c                   8.7335(8)
_cell_angle_alpha                90
_cell_angle_beta                 90
_cell_angle_gamma                90
_cell_volume                     1401.06
loop_
_atom_site_label
_atom_site_type_symbol
_atom_site_fract_x
_atom_site_fract_y
_atom_site_fract_z
Eu1 Eu 0.291287(10) 0.2500 0.65832(3)
Cl1 Cl 0.40791(7) 0.2500 0.5667(2)
P1 P 0.20951(5) 0.2500 1.02052(15)
N1 N 0.09924(18) 0.2500 1.1366(5)
H1 H 0.1077 0.3570 1.1923
C1 C 0.1332(2) 0.2500 0.9922(6)
H2 H 0.1229 0.1364 0.9336
C2 C 0.0375(2) 0.2500 1.0978(7)
H3 H 0.0295 0.1364 1.0368
C3 C -0.0020(2) 0.2500 1.2363(7)
C4 C -0.0224(2) 0.4236(9) 1.2938(5)
H4 H -0.0075 0.5450 1.2557
C5 C -0.0646(2) 0.4252(8) 1.4062(5)
H5 H -0.0791 0.5464 1.4457
C6 C -0.0859(2) 0.2500 1.4616(6)
C7 C -0.1306(2) 0.2500 1.5841(6)
O1 O 0.23208(18) 0.2500 0.8603(4)
O2 O 0.22379(13) 0.0704(4) 1.1124(4)
O3 O -0.14878(12) 0.4122(4) 1.6356(3)
O4 O 0.19389(19) 0.2500 0.5355(6)
H6 H 0.1903 0.3516 0.4801
O5 O 0.2993(2) 0.2500 0.3684(5)
H7 H 0.3173 0.3516 0.3399
Eu1A Eu 0.208713(10) -0.2500 1.15832(3)
Eu1C Eu -0.208713(10) 0.2500 1.84168(3)
Eu1A_2 Eu 0.208713(10) 0.7500 1.15832(3)
H1F H 0.1077 0.1430 1.1923
H2F H 0.1229 0.3636 0.9336
H3F H 0.0295 0.3636 1.0368
C4F C -0.0224(2) 0.0764(9) 1.2938(5)
H4F H -0.0075 -0.0450 1.2557
C5F C -0.0646(2) 0.0748(8) 1.4062(5)
H5F H -0.0791 -0.0464 1.4457
O2F O 0.22379(13) 0.4296(4) 1.1124(4)
O2A O 0.27621(13) -0.0704(4) 0.6124(4)
O2G O 0.27621(13) 0.5704(4) 0.6124(4)
O3F O -0.14878(12) 0.0878(4) 1.6356(3)
O3C O 0.35122(12) 0.0878(4) 0.8644(3)
O3E O 0.35122(12) 0.4122(4) 0.8644(3)
H6F H 0.1903 0.1484 0.4801
H7F H 0.3173 0.1484 0.3399
loop_
_geom_bond_atom_site_label_1
_geom_bond_atom_site_label_2
_geom_bond_site_symmetry_1
_geom_bond_site_symmetry_2
Eu1 Cl1 1_555 1_555
P1 C1 1_555 1_555
N1 H1 1_555 1_555
C1 N1 1_555 1_555
H2 C1 1_555 1_555
C2 N1 1_555 1_555
H3 C2 1_555 1_555
C3 C2 1_555 1_555
C4 C3 1_555 1_555
H4 C4 1_555 1_555
C5 C4 1_555 1_555
H5 C5 1_555 1_555
C6 C5 1_555 1_555
C7 C6 1_555 1_555
O1 Eu1 1_555 1_555
O2 P1 1_555 1_555
O3 C7 1_555 1_555
O4 Eu1 1_555 1_555
H6 O4 1_555 1_555
O5 Eu1 1_555 1_555
H7 O5 1_555 1_555
Eu1A O2 1_555 1_555
Eu1C O3 1_555 1_555
Eu1A_2 O2F 1_555 1_555
H1F N1 1_555 1_555
H2F C1 1_555 1_555
H3F C2 1_555 1_555
C4F C3 1_555 1_555
H4F C4F 1_555 1_555
C5F C6 1_555 1_555
H5F C5F 1_555 1_555
O2F P1 1_555 1_555
O2A Eu1 1_555 1_555
O2G Eu1 1_555 1_555
O3F C7 1_555 1_555
O3C Eu1 1_555 1_555
O3E Eu1 1_555 1_555
H6F O4 1_555 1_555
H7F O5 1_555 1_555
P1 O1 1_555 1_555
Eu1C O3F 1_555 1_555
C4F C5F 1_555 1_555

#END
