
#######################################################################
#
#                 Cambridge Crystallographic Data Centre
#                                CCDC 
#
#######################################################################
#
# If this CIF has been generated from an entry in the Cambridge 
# Structural Database, then it will include bibliographic, chemical, 
# crystal, experimental, refinement or atomic coordinate data resulting 
# from the CCDC's data processing and validation procedures.
#
#######################################################################

data_LABPIP
_symmetry_cell_setting           orthorhombic
_symmetry_space_group_name_H-M   'P n m a'
_symmetry_Int_Tables_number      62
_space_group_name_Hall           '-P 2ac 2n'
loop_
_symmetry_equiv_pos_site_id
_symmetry_equiv_pos_as_xyz
1 x,y,z
2 1/2-x,-y,1/2+z
3 -x,1/2+y,-z
4 1/2+x,1/2-y,1/2-z
5 -x,-y,-z
6 1/2+x,y,1/2-z
7 x,1/2-y,z
8 1/2-x,1/2+y,1/2+z
_cell_length_a                   23.436(17)
_cell_length_b                   6.736(5)
_cell_length_c                   8.643(6)
_cell_angle_alpha                90
_cell_angle_beta                 90
_cell_angle_gamma                90
_cell_volume                     1364.43
loop_
_atom_site_label
_atom_site_type_symbol
_atom_site_fract_x
_atom_site_fract_y
_atom_site_fract_z
Er1 Er 0.290975(9) 0.2500 0.65929(3)
Cl1 Cl 0.40582(6) 0.2500 0.56596(19)
P1 P 0.21027(5) 0.2500 1.02027(16)
N1 N 0.09998(19) 0.2500 1.1367(5)
H1 H 0.1085 0.3570 1.1924
C1 C 0.1338(2) 0.2500 0.9886(6)
H2 H 0.1235 0.1364 0.9300
C2 C 0.0378(2) 0.2500 1.0977(7)
H3 H 0.0298 0.1364 1.0367
C3 C -0.0022(2) 0.2500 1.2361(7)
C4 C -0.02265(18) 0.4273(8) 1.2943(6)
H4 H -0.0077 0.5487 1.2562
C5 C -0.06503(19) 0.4273(7) 1.4061(5)
H5 H -0.0796 0.5486 1.4456
C6 C -0.0863(2) 0.2500 1.4629(7)
C7 C -0.1316(2) 0.2500 1.5850(6)
O1 O 0.23395(18) 0.2500 0.8593(4)
O2 O 0.22424(12) 0.0673(4) 1.1141(3)
O3 O -0.15000(12) 0.4136(5) 1.6378(3)
O4 O 0.19539(19) 0.2500 0.5412(6)
H6 H 0.1918 0.3516 0.4859
O5 O 0.2978(2) 0.2500 0.3733(5)
H7 H 0.3158 0.3516 0.3449
Er1A Er 0.209025(9) -0.2500 1.15929(3)
Er1C Er -0.209025(9) 0.2500 1.84071(3)
Er1A_2 Er 0.209025(9) 0.7500 1.15929(3)
H1F H 0.1085 0.1430 1.1924
H2F H 0.1235 0.3636 0.9300
H3F H 0.0298 0.3636 1.0367
C4F C -0.02265(18) 0.0727(8) 1.2943(6)
H4F H -0.0077 -0.0487 1.2562
C5F C -0.06503(19) 0.0727(7) 1.4061(5)
H5F H -0.0796 -0.0486 1.4456
O2F O 0.22424(12) 0.4327(4) 1.1141(3)
O2A O 0.27576(12) -0.0673(4) 0.6141(3)
O2G O 0.27576(12) 0.5673(4) 0.6141(3)
O3F O -0.15000(12) 0.0864(5) 1.6378(3)
O3C O 0.35000(12) 0.0864(5) 0.8622(3)
O3E O 0.35000(12) 0.4136(5) 0.8622(3)
H6F H 0.1918 0.1484 0.4859
H7F H 0.3158 0.1484 0.3449
loop_
_geom_bond_atom_site_label_1
_geom_bond_atom_site_label_2
_geom_bond_site_symmetry_1
_geom_bond_site_symmetry_2
Er1 Cl1 1_555 1_555
P1 C1 1_555 1_555
N1 H1 1_555 1_555
C1 N1 1_555 1_555
H2 C1 1_555 1_555
C2 N1 1_555 1_555
H3 C2 1_555 1_555
C3 C2 1_555 1_555
C4 C3 1_555 1_555
H4 C4 1_555 1_555
C5 C4 1_555 1_555
H5 C5 1_555 1_555
C6 C5 1_555 1_555
C7 C6 1_555 1_555
O1 Er1 1_555 1_555
O2 P1 1_555 1_555
O3 C7 1_555 1_555
O4 Er1 1_555 1_555
H6 O4 1_555 1_555
O5 Er1 1_555 1_555
H7 O5 1_555 1_555
Er1A O2 1_555 1_555
Er1C O3 1_555 1_555
Er1A_2 O2F 1_555 1_555
H1F N1 1_555 1_555
H2F C1 1_555 1_555
H3F C2 1_555 1_555
C4F C3 1_555 1_555
H4F C4F 1_555 1_555
C5F C6 1_555 1_555
H5F C5F 1_555 1_555
O2F P1 1_555 1_555
O2A Er1 1_555 1_555
O2G Er1 1_555 1_555
O3F C7 1_555 1_555
O3C Er1 1_555 1_555
O3E Er1 1_555 1_555
H6F O4 1_555 1_555
H7F O5 1_555 1_555
P1 O1 1_555 1_555
Er1C O3F 1_555 1_555
C4F C5F 1_555 1_555

#END
