
#######################################################################
#
#                 Cambridge Crystallographic Data Centre
#                                CCDC 
#
#######################################################################
#
# If this CIF has been generated from an entry in the Cambridge 
# Structural Database, then it will include bibliographic, chemical, 
# crystal, experimental, refinement or atomic coordinate data resulting 
# from the CCDC's data processing and validation procedures.
#
#######################################################################

data_LABQUB01
_symmetry_cell_setting           monoclinic
_symmetry_space_group_name_H-M   'P 21/n'
_symmetry_Int_Tables_number      14
_space_group_name_Hall           '-P 2yn'
loop_
_symmetry_equiv_pos_site_id
_symmetry_equiv_pos_as_xyz
1 x,y,z
2 1/2-x,1/2+y,1/2-z
3 -x,-y,-z
4 1/2+x,1/2-y,1/2+z
_cell_length_a                   8.4251(7)
_cell_length_b                   7.9458(7)
_cell_length_c                   10.8479(9)
_cell_angle_alpha                90
_cell_angle_beta                 95.498(2)
_cell_angle_gamma                90
_cell_volume                     722.863
loop_
_atom_site_label
_atom_site_type_symbol
_atom_site_fract_x
_atom_site_fract_y
_atom_site_fract_z
Cd1 Cd 1.0000 0.0000 0.5000
O1 O 0.9020(6) -0.2576(6) 0.5578(4)
N1 N 0.7823(6) 0.1687(7) 0.5524(5)
N2 N 0.2598(6) 0.4715(6) 0.6100(5)
N3 N 0.1689(6) 0.5640(7) 0.6816(5)
N4 N 0.2492(6) 0.5941(7) 0.7891(5)
C1 C 0.6340(7) 0.1588(8) 0.4966(6)
H1 H 0.6148 0.0846 0.4281
C2 C 0.5075(7) 0.2505(8) 0.5331(5)
H2 H 0.4046 0.2407 0.4895
C3 C 0.8071(7) 0.2797(8) 0.6458(6)
H3 H 0.9127 0.2928 0.6838
C4 C 0.6890(7) 0.3753(8) 0.6894(6)
H4 H 0.7131 0.4522 0.7556
C5 C 0.5328(7) 0.3579(8) 0.6350(6)
C6 C 0.3979(7) 0.4517(7) 0.6788(6)
H5 H 0.853(9) -0.329(11) 0.513(7)
H6 H 0.968(11) -0.309(12) 0.589(8)
N5 N 0.3938(6) 0.5259(6) 0.7911(5)
Cd1A Cd 0.5000 0.5000 1.0000
Cd1A_2 Cd 1.5000 -0.5000 0.0000
O1B O 1.0980(6) 0.2576(6) 0.4422(4)
N1B N 1.2177(6) -0.1687(7) 0.4476(5)
N2B N 1.7402(6) -0.4715(6) 0.3900(5)
N3B N 1.8311(6) -0.5640(7) 0.3184(5)
N4B N 1.7508(6) -0.5941(7) 0.2109(5)
C1B C 1.3660(7) -0.1588(8) 0.5034(6)
H1B H 1.3852 -0.0846 0.5719
C2B C 1.4925(7) -0.2505(8) 0.4669(5)
H2B H 1.5954 -0.2407 0.5105
C3B C 1.1929(7) -0.2797(8) 0.3542(6)
H3B H 1.0873 -0.2928 0.3162
C4B C 1.3110(7) -0.3753(8) 0.3106(6)
H4B H 1.2869 -0.4522 0.2444
C5B C 1.4672(7) -0.3579(8) 0.3650(6)
C6B C 1.6021(7) -0.4517(7) 0.3212(6)
H5B H 1.147(9) 0.329(11) 0.487(7)
H6B H 1.032(11) 0.309(12) 0.411(8)
N5B N 1.6062(6) -0.5259(6) 0.2089(5)
N5A N 1.1062(6) 0.0259(6) 0.7089(5)
N5C N 0.8938(6) -0.0259(6) 0.2911(5)
loop_
_geom_bond_atom_site_label_1
_geom_bond_atom_site_label_2
_geom_bond_site_symmetry_1
_geom_bond_site_symmetry_2
Cd1 O1 1_555 1_555
O1 H5 1_555 1_555
N1 Cd1 1_555 1_555
N2 N3 1_555 1_555
N3 N4 1_555 1_555
N4 N5 1_555 1_555
C1 N1 1_555 1_555
H1 C1 1_555 1_555
C2 C1 1_555 1_555
H2 C2 1_555 1_555
C3 N1 1_555 1_555
H3 C3 1_555 1_555
C4 C3 1_555 1_555
H4 C4 1_555 1_555
C5 C2 1_555 1_555
C6 N2 1_555 1_555
H6 O1 1_555 1_555
N5 C6 1_555 1_555
Cd1A N5 1_555 1_555
Cd1A_2 N5B 1_555 1_555
O1B Cd1 1_555 1_555
N1B Cd1 1_555 1_555
N2B N3B 1_555 1_555
N3B N4B 1_555 1_555
N4B N5B 1_555 1_555
C1B N1B 1_555 1_555
H1B C1B 1_555 1_555
C2B C1B 1_555 1_555
H2B C2B 1_555 1_555
C3B N1B 1_555 1_555
H3B C3B 1_555 1_555
C4B C3B 1_555 1_555
H4B C4B 1_555 1_555
C5B C2B 1_555 1_555
C6B N2B 1_555 1_555
H5B O1B 1_555 1_555
H6B O1B 1_555 1_555
N5B C6B 1_555 1_555
N5A Cd1 1_555 1_555
N5C Cd1 1_555 1_555
C4 C5 1_555 1_555
C5 C6 1_555 1_555
C4B C5B 1_555 1_555
C5B C6B 1_555 1_555

#END
