
#######################################################################
#
#                 Cambridge Crystallographic Data Centre
#                                CCDC 
#
#######################################################################
#
# If this CIF has been generated from an entry in the Cambridge 
# Structural Database, then it will include bibliographic, chemical, 
# crystal, experimental, refinement or atomic coordinate data resulting 
# from the CCDC's data processing and validation procedures.
#
#######################################################################

data_LABQOW
_symmetry_cell_setting           triclinic
_symmetry_space_group_name_H-M   'P -1'
_symmetry_Int_Tables_number      2
_space_group_name_Hall           '-P 1'
loop_
_symmetry_equiv_pos_site_id
_symmetry_equiv_pos_as_xyz
1 x,y,z
2 -x,-y,-z
_cell_length_a                   10.9889(7)
_cell_length_b                   11.4124(7)
_cell_length_c                   12.3293(8)
_cell_angle_alpha                80.8810(10)
_cell_angle_beta                 84.8950(10)
_cell_angle_gamma                68.2990(10)
_cell_volume                     1417.69
loop_
_atom_site_label
_atom_site_type_symbol
_atom_site_fract_x
_atom_site_fract_y
_atom_site_fract_z
Zn1 Zn 0.96858(5) 0.35492(4) 0.43154(4)
Zn2 Zn 0.17476(5) -0.07042(4) 0.35713(4)
N1 N 0.2350(4) 0.0262(3) 0.2269(3)
N2 N 0.2868(4) 0.1708(3) 0.1136(3)
N3 N 0.8938(4) 0.2819(3) 0.1302(3)
N4 N 0.9161(3) 0.3535(3) 0.2800(3)
O1 O 1.1351(3) 0.3894(2) 0.3967(2)
O2 O 1.1380(3) 0.4529(2) 0.5585(2)
O3 O 1.1438(3) 0.6794(2) 0.4391(2)
O4 O 1.2948(3) 0.7501(2) 0.3576(2)
O5 O 1.4151(3) 0.0992(2) 0.4014(2)
O6 O 1.0831(3) 0.1627(2) 0.4418(2)
O7 O 1.2222(3) -0.0308(2) 0.4927(2)
O8 O 1.0070(3) 0.0471(2) 0.6591(2)
O9 O 0.9557(3) 0.1586(3) 0.8005(3)
C1 C 1.4214(4) 0.2985(4) 0.4265(3)
C2 C 1.3253(4) 0.4193(4) 0.4321(3)
C3 C 1.3561(4) 0.5281(4) 0.3959(3)
C4 C 1.4820(4) 0.5124(4) 0.3548(4)
H3 H 1.5030 0.5839 0.3289
C5 C 1.5760(4) 0.3942(4) 0.3516(4)
H4 H 1.6603 0.3862 0.3254
C6 C 1.5466(4) 0.2871(4) 0.3869(3)
H5 H 1.6108 0.2069 0.3842
C7 C 1.3904(4) 0.1779(4) 0.4619(3)
C8 C 1.3279(4) 0.1676(3) 0.5735(3)
C9 C 1.2191(4) 0.1297(3) 0.5951(3)
C10 C 1.1545(4) 0.1416(3) 0.6982(3)
C11 C 1.2043(5) 0.1798(4) 0.7797(4)
H6 H 1.1608 0.1882 0.8479
C12 C 1.3175(5) 0.2056(4) 0.7608(4)
H7 H 1.3539 0.2250 0.8177
C13 C 1.3770(4) 0.2027(4) 0.6580(4)
H8 H 1.4511 0.2245 0.6448
C14 C 1.1876(4) 0.4242(3) 0.4664(4)
C15 C 1.2564(4) 0.6618(4) 0.3986(3)
C16 C 1.1686(4) 0.0854(4) 0.5049(3)
C17 C 1.0294(4) 0.1151(4) 0.7221(4)
C18 C 0.2369(4) 0.1426(4) 0.2135(4)
H9 H 0.2076 0.1978 0.2662
C19 C 0.3210(5) 0.0653(4) 0.0617(4)
H10 H 0.3597 0.0556 -0.0082
C20 C 0.2875(5) -0.0218(4) 0.1317(4)
H11 H 0.2986 -0.1027 0.1173
C21 C 0.3126(5) 0.2872(4) 0.0733(4)
H12 H 0.2682 0.3504 0.1218
H13 H 0.2771 0.3207 0.0008
C22 C 0.4573(5) 0.2647(4) 0.0672(4)
C23 C 0.5399(5) 0.1766(4) 0.1443(4)
H14 H 0.5067 0.1299 0.1994
C24 C 0.6708(5) 0.1582(4) 0.1394(4)
H15 H 0.7248 0.0984 0.1918
C25 C 0.7248(5) 0.2246(4) 0.0603(4)
C26 C 0.6417(5) 0.3141(4) -0.0163(4)
H16 H 0.6751 0.3616 -0.0705
C27 C 0.5095(5) 0.3333(4) -0.0129(4)
H17 H 0.4552 0.3932 -0.0651
C28 C 0.8695(5) 0.2011(4) 0.0596(4)
H18 H 0.9175 0.1123 0.0857
H19 H 0.9005 0.2197 -0.0150
C29 C 0.8868(5) 0.4053(4) 0.0996(4)
H20 H 0.8745 0.4502 0.0291
C30 C 0.9011(5) 0.4486(4) 0.1912(4)
H21 H 0.9010 0.5295 0.1945
C31 C 0.9107(4) 0.2564(4) 0.2381(4)
H22 H 0.9178 0.1787 0.2794
Zn1A Zn 1.03142(5) 0.64508(4) 0.56846(4)
Zn2_2 Zn 1.17476(5) 0.92958(4) 0.35713(4)
Zn2_3 Zn 1.17476(5) -0.07042(4) 0.35713(4)
Zn2A Zn 0.82524(5) 0.07042(4) 0.64287(4)
O2A O 0.8620(3) 0.5471(2) 0.4415(2)
O3A O 0.8562(3) 0.3206(2) 0.5609(2)
O4_2 O 0.2948(3) -0.2499(2) 0.3576(2)
O7_2 O 0.2222(3) -0.0308(2) 0.4927(2)
O8A O -0.0070(3) -0.0471(2) 0.3409(2)
O10 O 0.8667(4) 0.4257(3) 0.8171(3)
H1 H 0.9032 0.3514 0.7974
H2 H 0.8582 0.4791 0.7586
loop_
_geom_bond_atom_site_label_1
_geom_bond_atom_site_label_2
_geom_bond_site_symmetry_1
_geom_bond_site_symmetry_2
Zn1 N4 1_555 1_555
Zn2 N1 1_555 1_555
N1 C18 1_555 1_555
N2 C18 1_555 1_555
N3 C28 1_555 1_555
N4 C30 1_555 1_555
O1 Zn1 1_555 1_555
O2 C14 1_555 1_555
O3 C15 1_555 1_555
O4 C15 1_555 1_555
O5 C7 1_555 1_555
O6 Zn1 1_555 1_555
O7 C16 1_555 1_555
O8 C17 1_555 1_555
O9 C17 1_555 1_555
O10 H1 1_555 1_555
H2 O10 1_555 1_555
C1 C2 1_555 1_555
C2 C3 1_555 1_555
C3 C4 1_555 1_555
C4 H3 1_555 1_555
C5 C4 1_555 1_555
H4 C5 1_555 1_555
C6 C1 1_555 1_555
H5 C6 1_555 1_555
C7 C1 1_555 1_555
C8 C7 1_555 1_555
C9 C8 1_555 1_555
C10 C9 1_555 1_555
C11 C10 1_555 1_555
H6 C11 1_555 1_555
C12 C11 1_555 1_555
H7 C12 1_555 1_555
C13 C8 1_555 1_555
H8 C13 1_555 1_555
C14 O1 1_555 1_555
C15 C3 1_555 1_555
C16 O6 1_555 1_555
C17 C10 1_555 1_555
C18 H9 1_555 1_555
C19 N2 1_555 1_555
H10 C19 1_555 1_555
C20 N1 1_555 1_555
H11 C20 1_555 1_555
C21 N2 1_555 1_555
H12 C21 1_555 1_555
H13 C21 1_555 1_555
C22 C21 1_555 1_555
C23 C22 1_555 1_555
H14 C23 1_555 1_555
C24 C23 1_555 1_555
H15 C24 1_555 1_555
C25 C24 1_555 1_555
C26 C25 1_555 1_555
H16 C26 1_555 1_555
C27 C22 1_555 1_555
H17 C27 1_555 1_555
C28 C25 1_555 1_555
H18 C28 1_555 1_555
H19 C28 1_555 1_555
C29 N3 1_555 1_555
H20 C29 1_555 1_555
C30 C29 1_555 1_555
H21 C30 1_555 1_555
C31 N3 1_555 1_555
H22 C31 1_555 1_555
Zn1A O2 1_555 1_555
Zn2_2 O4 1_555 1_555
Zn2_3 O7 1_555 1_555
Zn2A O8 1_555 1_555
O2A Zn1 1_555 1_555
O3A Zn1 1_555 1_555
O4_2 Zn2 1_555 1_555
O7_2 Zn2 1_555 1_555
O8A Zn2 1_555 1_555
N4 C31 1_555 1_555
O3 Zn1A 1_555 1_555
C2 C14 1_555 1_555
C5 C6 1_555 1_555
C9 C16 1_555 1_555
C12 C13 1_555 1_555
C19 C20 1_555 1_555
C26 C27 1_555 1_555

#END
