
#######################################################################
#
#                 Cambridge Crystallographic Data Centre
#                                CCDC 
#
#######################################################################
#
# If this CIF has been generated from an entry in the Cambridge 
# Structural Database, then it will include bibliographic, chemical, 
# crystal, experimental, refinement or atomic coordinate data resulting 
# from the CCDC's data processing and validation procedures.
#
#######################################################################

data_LABQOV
_symmetry_cell_setting           orthorhombic
_symmetry_space_group_name_H-M   'P b c a'
_symmetry_Int_Tables_number      61
_space_group_name_Hall           '-P 2ac 2ab'
loop_
_symmetry_equiv_pos_site_id
_symmetry_equiv_pos_as_xyz
1 x,y,z
2 1/2+x,y,1/2-z
3 x,1/2-y,1/2+z
4 1/2-x,1/2+y,z
5 -x,-y,-z
6 1/2-x,-y,1/2+z
7 -x,1/2+y,1/2-z
8 1/2+x,1/2-y,-z
_cell_length_a                   7.0056(3)
_cell_length_b                   12.6282(6)
_cell_length_c                   21.3318(10)
_cell_angle_alpha                90
_cell_angle_beta                 90
_cell_angle_gamma                90
_cell_volume                     1887.18
loop_
_atom_site_label
_atom_site_type_symbol
_atom_site_fract_x
_atom_site_fract_y
_atom_site_fract_z
Cd1 Cd 0.09292(4) 0.27358(2) 0.011920(13)
Cd2 Cd -0.5000 0.5000 0.0000
Cl1 Cl -0.17071(13) 0.40149(7) -0.03028(4)
N1 N -0.5909(4) 0.7329(3) -0.14462(18)
N2 N -0.5704(4) 0.6892(3) -0.08826(14)
O1 O -0.6487(4) 0.3503(2) -0.03018(13)
C1 C -0.6084(6) 0.7627(3) -0.2789(2)
H1 H -0.6314 0.8205 -0.2529
C2 C -0.5603(5) 0.6530(3) -0.18485(17)
C3 C -0.5664(5) 0.6659(3) -0.25262(18)
C4 C -0.5339(6) 0.5831(3) -0.29310(19)
H2 H -0.5056 0.5161 -0.2776
N3 N -0.5297(5) 0.5871(2) -0.09432(15)
N4 N -0.5228(5) 0.5618(2) -0.15548(16)
C5 C -0.6170(6) 0.7751(3) -0.3428(2)
H3 H -0.6463 0.8415 -0.3590
C6 C -0.5435(6) 0.6000(3) -0.35685(19)
H4 H -0.5207 0.5430 -0.3835
N5 N -0.5843(4) 0.6946(3) -0.38260(15)
H5 H -0.663(6) 0.357(4) -0.063(2)
Cl1D Cl -0.82929(13) 0.59851(7) 0.03028(4)
O1D O -0.3513(4) 0.6497(2) 0.03018(13)
H5D H -0.337(6) 0.643(4) 0.063(2)
N1D N -0.4091(4) 0.2671(3) 0.14462(18)
N2D N -0.4296(4) 0.3108(3) 0.08826(14)
C1D C -0.3916(6) 0.2373(3) 0.2789(2)
H1D H -0.3686 0.1795 0.2529
C2D C -0.4397(5) 0.3470(3) 0.18485(17)
C3D C -0.4336(5) 0.3341(3) 0.25262(18)
C4D C -0.4661(6) 0.4169(3) 0.29310(19)
H2D H -0.4944 0.4839 0.2776
N3D N -0.4703(5) 0.4129(2) 0.09432(15)
N4D N -0.4772(5) 0.4382(2) 0.15548(16)
C5D C -0.3830(6) 0.2249(3) 0.3428(2)
H3D H -0.3537 0.1585 0.3590
C6D C -0.4565(6) 0.4000(3) 0.35685(19)
H4D H -0.4793 0.4570 0.3835
N5D N -0.4157(4) 0.3054(3) 0.38260(15)
Cd1D Cd -1.09292(4) 0.72642(2) -0.011920(13)
Cl1G Cl 0.32929(13) 0.09851(7) 0.03028(4)
N2C N 0.0704(4) 0.1892(3) -0.08826(14)
O1_2 O 0.3513(4) 0.3503(2) -0.03018(13)
O1G O -0.1487(4) 0.1497(2) 0.03018(13)
N5E N 0.0843(4) 0.3054(3) 0.11740(15)
Cd1G Cd -0.40708(4) 0.22642(2) -0.011920(13)
Cd1C Cd -0.59292(4) 0.77358(2) 0.011920(13)
Cd1_2 Cd -0.90708(4) 0.27358(2) 0.011920(13)
Cd1E Cd -0.59292(4) 0.72642(2) -0.488080(13)
Cd1D_2 Cd -0.09292(4) 0.72642(2) -0.011920(13)
Cd1A Cd -0.40708(4) 0.27358(2) 0.488080(13)
Cl1C Cl -1.32929(13) 0.90149(7) -0.03028(4)
N2G N -1.0704(4) 0.8108(3) 0.08826(14)
O1C O -0.8513(4) 0.8503(2) -0.03018(13)
O1D_2 O -1.3513(4) 0.6497(2) 0.03018(13)
N5A N -1.0843(4) 0.6946(3) -0.11740(15)
H5_2 H 0.337(6) 0.357(4) -0.063(2)
H5G H -0.163(6) 0.143(4) 0.063(2)
H5C H -0.837(6) 0.857(4) -0.063(2)
H5D_2 H -1.337(6) 0.643(4) 0.063(2)
loop_
_geom_bond_atom_site_label_1
_geom_bond_atom_site_label_2
_geom_bond_site_symmetry_1
_geom_bond_site_symmetry_2
Cd1 Cl1 1_555 1_555
Cd2 Cl1 1_555 1_555
Cl1 Cd1G 1_555 1_555
N1 N2 1_555 1_555
N2 N3 1_555 1_555
O1 Cd2 1_555 1_555
C1 H1 1_555 1_555
C2 N1 1_555 1_555
C3 C1 1_555 1_555
C4 C3 1_555 1_555
H2 C4 1_555 1_555
N3 Cd2 1_555 1_555
N4 C2 1_555 1_555
C5 C1 1_555 1_555
H3 C5 1_555 1_555
C6 C4 1_555 1_555
H4 C6 1_555 1_555
N5 C5 1_555 1_555
H5 O1 1_555 1_555
Cl1D Cd2 1_555 1_555
O1D Cd2 1_555 1_555
H5D O1D 1_555 1_555
N1D N2D 1_555 1_555
N2D N3D 1_555 1_555
C1D H1D 1_555 1_555
C2D N1D 1_555 1_555
C3D C1D 1_555 1_555
C4D C3D 1_555 1_555
H2D C4D 1_555 1_555
N3D Cd2 1_555 1_555
N4D C2D 1_555 1_555
C5D C1D 1_555 1_555
H3D C5D 1_555 1_555
C6D C4D 1_555 1_555
H4D C6D 1_555 1_555
N5D C5D 1_555 1_555
Cd1D Cl1D 1_555 1_555
Cl1G Cd1 1_555 1_555
N2C Cd1 1_555 1_555
O1_2 Cd1 1_555 1_555
O1G Cd1 1_555 1_555
N5E Cd1 1_555 1_555
Cd1G O1 1_555 1_555
Cd1C N2 1_555 1_555
Cd1_2 O1 1_555 1_555
Cd1E N5 1_555 1_555
Cd1D_2 O1D 1_555 1_555
Cd1A N5D 1_555 1_555
Cl1C Cd1D 1_555 1_555
N2G Cd1D 1_555 1_555
O1C Cd1D 1_555 1_555
O1D_2 Cd1D 1_555 1_555
N5A Cd1D 1_555 1_555
H5_2 O1_2 1_555 1_555
H5G O1G 1_555 1_555
H5C O1C 1_555 1_555
H5D_2 O1D_2 1_555 1_555
C2 C3 1_555 1_555
N3 N4 1_555 1_555
C6 N5 1_555 1_555
Cl1D Cd1C 1_555 1_555
O1D Cd1C 1_555 1_555
N2D Cd1G 1_555 1_555
C2D C3D 1_555 1_555
N3D N4D 1_555 1_555
C6D N5D 1_555 1_555
O1G Cd1G 1_555 1_555
Cd1C O1C 1_555 1_555

#END
