
#######################################################################
#
#                 Cambridge Crystallographic Data Centre
#                                CCDC 
#
#######################################################################
#
# If this CIF has been generated from an entry in the Cambridge 
# Structural Database, then it will include bibliographic, chemical, 
# crystal, experimental, refinement or atomic coordinate data resulting 
# from the CCDC's data processing and validation procedures.
#
#######################################################################

data_LABQIQ
_symmetry_cell_setting           triclinic
_symmetry_space_group_name_H-M   'P -1'
_symmetry_Int_Tables_number      2
_space_group_name_Hall           '-P 1'
loop_
_symmetry_equiv_pos_site_id
_symmetry_equiv_pos_as_xyz
1 x,y,z
2 -x,-y,-z
_cell_length_a                   11.4663(14)
_cell_length_b                   11.4985(14)
_cell_length_c                   12.4691(15)
_cell_angle_alpha                93.944(2)
_cell_angle_beta                 108.388(2)
_cell_angle_gamma                94.247(2)
_cell_volume                     1548.38
loop_
_atom_site_label
_atom_site_type_symbol
_atom_site_fract_x
_atom_site_fract_y
_atom_site_fract_z
Zn1 Zn 0.22593(8) 1.05177(8) 0.55674(8)
Zn2 Zn 0.96680(8) 1.33114(8) 1.43557(8)
N1 N 0.9302(6) 1.2529(6) 1.2765(5)
N2 N 0.3826(6) 0.9860(6) 0.6425(5)
O1 O 0.1031(4) 0.8213(4) 0.5132(4)
O2 O 0.1477(5) 0.9560(4) 0.4100(4)
O3 O -0.1194(4) 0.9111(5) 0.3552(4)
O4 O -0.2712(5) 0.7856(6) 0.2376(6)
O5 O 0.3348(5) 0.7790(5) 0.4148(6)
O6 O 0.0357(5) 0.4953(5) 0.3942(5)
O7 O 0.1774(5) 0.5932(5) 0.5442(5)
O8 O 0.1437(4) 0.3070(5) 0.5142(4)
O9 O 0.2870(5) 0.1908(4) 0.4977(5)
C1 C 0.1368(7) 0.6995(7) 0.2835(7)
C2 C 0.0564(7) 0.7724(6) 0.3120(6)
C3 C -0.0635(7) 0.7628(7) 0.2439(7)
C4 C -0.1046(7) 0.6892(7) 0.1406(7)
H1 H -0.1862 0.6853 0.0937
C5 C -0.0238(8) 0.6246(8) 0.1107(8)
H2 H -0.0488 0.5795 0.0410
C6 C 0.0945(8) 0.6251(7) 0.1824(7)
H3 H 0.1473 0.5756 0.1638
C7 C 0.2671(8) 0.6938(7) 0.3604(7)
C8 C 0.3119(7) 0.5722(7) 0.3719(6)
C9 C 0.2500(7) 0.4876(6) 0.4150(6)
C10 C 0.2955(7) 0.3792(6) 0.4318(6)
C11 C 0.4002(7) 0.3549(7) 0.4017(7)
H4 H 0.4313 0.2827 0.4133
C12 C 0.4566(7) 0.4381(8) 0.3553(7)
H5 H 0.5236 0.4201 0.3327
C13 C 0.4156(7) 0.5479(7) 0.3414(7)
H6 H 0.4562 0.6045 0.3124
C14 C 0.1028(7) 0.8547(7) 0.4182(7)
C15 C -0.1613(7) 0.8244(7) 0.2794(7)
C16 C 0.1438(8) 0.5251(7) 0.4526(8)
C17 C 0.2359(7) 0.2849(7) 0.4838(6)
C18 C 0.8717(8) 1.3021(8) 1.1844(8)
H7 H 0.8549 1.3795 1.1921
C19 C 0.8340(9) 1.2419(8) 1.0757(7)
H8 H 0.7922 1.2796 1.0134
C20 C 0.8578(7) 1.1280(7) 1.0601(7)
C21 C 0.9210(7) 1.0792(7) 1.1564(7)
H9 H 0.9413 1.0027 1.1507
C22 C 0.9546(7) 1.1423(7) 1.2611(7)
H10 H 0.9964 1.1060 1.3246
C23 C 0.8159(8) 1.0616(8) 0.9441(7)
H11 H 0.8796 1.0755 0.9092
H12 H 0.7423 1.0929 0.8978
C24 C 0.7877(8) 0.9302(7) 0.9427(7)
H13 H 0.7308 0.9161 0.9849
H14 H 0.8635 0.8973 0.9814
C25 C 0.7320(7) 0.8665(8) 0.8240(8)
H15 H 0.7222 0.7829 0.8300
H16 H 0.7887 0.8802 0.7815
C26 C 0.6065(7) 0.9058(7) 0.7585(7)
C27 C 0.5989(7) 0.9915(8) 0.6861(7)
H17 H 0.6704 1.0229 0.6743
C28 C 0.4892(7) 1.0319(7) 0.6312(7)
H18 H 0.4878 1.0922 0.5850
C29 C 0.3884(8) 0.9006(8) 0.7104(8)
H19 H 0.3154 0.8670 0.7178
C30 C 0.4980(8) 0.8602(8) 0.7702(8)
H20 H 0.4983 0.8019 0.8184
Zn1A Zn -0.22593(8) 0.94823(8) 0.44326(8)
Zn1_2 Zn 0.22593(8) 0.05177(8) 0.55674(8)
Zn2A Zn 0.03320(8) 0.66886(8) 0.56443(8)
Zn2_2 Zn -0.03320(8) 0.33114(8) 0.43557(8)
O1A O 0.8969(4) 1.1787(4) 1.4868(4)
O3A O 0.1194(4) 1.0889(5) 0.6448(4)
O6_2 O 1.0357(5) 1.4953(5) 1.3942(5)
O7A O 0.8226(5) 1.4068(5) 1.4558(5)
O8_2 O 1.1437(4) 1.3070(5) 1.5142(4)
O9_2 O 0.2870(5) 1.1908(4) 0.4977(5)
O10 O 0.6886(7) 0.5285(7) 0.2453(6)
H21 H 0.6833 0.6008 0.2365
H22 H 0.7430 0.5278 0.3099
O11 O 0.4869(18) 0.7887(19) 0.0923(18)
H23 H 0.4627 0.7389 0.1300
H24 H 0.5179 0.7487 0.0502
O12 O 0.476(2) 0.6154(17) 0.9295(17)
H25 H 0.5174 0.5710 0.9015
H26 H 0.4189 0.6328 0.8723
O13 O 0.658(2) 0.463(2) 0.996(2)
H27 H 0.5867 0.4449 1.0001
H28 H 0.6458 0.4760 0.9273
loop_
_geom_bond_atom_site_label_1
_geom_bond_atom_site_label_2
_geom_bond_site_symmetry_1
_geom_bond_site_symmetry_2
Zn1 N2 1_555 1_555
Zn2 N1 1_555 1_555
N1 C18 1_555 1_555
N2 C28 1_555 1_555
O1 C14 1_555 1_555
O2 Zn1 1_555 1_555
O3 C15 1_555 1_555
O4 C15 1_555 1_555
O5 C7 1_555 1_555
O6 C16 1_555 1_555
O7 C16 1_555 1_555
O8 C17 1_555 1_555
O9 C17 1_555 1_555
C1 C2 1_555 1_555
C2 C3 1_555 1_555
C3 C4 1_555 1_555
C4 H1 1_555 1_555
C5 C4 1_555 1_555
H2 C5 1_555 1_555
C6 C1 1_555 1_555
H3 C6 1_555 1_555
C7 C1 1_555 1_555
C8 C7 1_555 1_555
C9 C8 1_555 1_555
C10 C9 1_555 1_555
C11 C10 1_555 1_555
H4 C11 1_555 1_555
C12 C11 1_555 1_555
H5 C12 1_555 1_555
C13 C8 1_555 1_555
H6 C13 1_555 1_555
C14 O2 1_555 1_555
C15 C3 1_555 1_555
C16 C9 1_555 1_555
C17 C10 1_555 1_555
C18 H7 1_555 1_555
C19 C18 1_555 1_555
H8 C19 1_555 1_555
C20 C19 1_555 1_555
C21 C20 1_555 1_555
H9 C21 1_555 1_555
C22 N1 1_555 1_555
H10 C22 1_555 1_555
C23 C20 1_555 1_555
H11 C23 1_555 1_555
H12 C23 1_555 1_555
C24 C23 1_555 1_555
H13 C24 1_555 1_555
H14 C24 1_555 1_555
C25 C24 1_555 1_555
H15 C25 1_555 1_555
H16 C25 1_555 1_555
C26 C25 1_555 1_555
C27 C26 1_555 1_555
H17 C27 1_555 1_555
C28 C27 1_555 1_555
H18 C28 1_555 1_555
C29 N2 1_555 1_555
H19 C29 1_555 1_555
C30 C26 1_555 1_555
H20 C30 1_555 1_555
O10 H21 1_555 1_555
H22 O10 1_555 1_555
O11 H23 1_555 1_555
H24 O11 1_555 1_555
O12 H25 1_555 1_555
H26 O12 1_555 1_555
O13 H27 1_555 1_555
H28 O13 1_555 1_555
Zn1A O3 1_555 1_555
Zn1_2 O9 1_555 1_555
Zn2A O1 1_555 1_555
Zn2_2 O6 1_555 1_555
O1A Zn2 1_555 1_555
O3A Zn1 1_555 1_555
O6_2 Zn2 1_555 1_555
O7A Zn2 1_555 1_555
O8_2 Zn2 1_555 1_555
O9_2 Zn1 1_555 1_555
O7 Zn2A 1_555 1_555
O8 Zn2_2 1_555 1_555
C2 C14 1_555 1_555
C5 C6 1_555 1_555
C12 C13 1_555 1_555
C21 C22 1_555 1_555
C29 C30 1_555 1_555

#END
