
#######################################################################
#
#                 Cambridge Crystallographic Data Centre
#                                CCDC 
#
#######################################################################
#
# If this CIF has been generated from an entry in the Cambridge 
# Structural Database, then it will include bibliographic, chemical, 
# crystal, experimental, refinement or atomic coordinate data resulting 
# from the CCDC's data processing and validation procedures.
#
#######################################################################

data_LABQUB
_symmetry_cell_setting           monoclinic
_symmetry_space_group_name_H-M   'P 21/n'
_symmetry_Int_Tables_number      14
_space_group_name_Hall           '-P 2yn'
loop_
_symmetry_equiv_pos_site_id
_symmetry_equiv_pos_as_xyz
1 x,y,z
2 1/2+x,1/2-y,1/2+z
3 -x,-y,-z
4 1/2-x,1/2+y,1/2-z
_cell_length_a                   8.4360(4)
_cell_length_b                   8.0018(4)
_cell_length_c                   10.8795(5)
_cell_angle_alpha                90
_cell_angle_beta                 95.4880(10)
_cell_angle_gamma                90
_cell_volume                     731.035
loop_
_atom_site_label
_atom_site_type_symbol
_atom_site_fract_x
_atom_site_fract_y
_atom_site_fract_z
Cd1 Cd 0.0000 0.0000 0.0000
O1 O -0.09652(18) 0.2578(2) 0.05640(16)
H1 H -0.0709 0.2741 0.1300
C1 C -0.1009(2) -0.0515(3) -0.32075(19)
C2 C 0.0326(2) -0.1434(2) -0.36487(19)
N1 N -0.2388(2) -0.0274(2) -0.3894(2)
N2 N -0.1042(2) 0.0205(2) -0.20884(19)
N3 N -0.3287(2) 0.0625(3) -0.31810(18)
C3 C 0.1879(2) -0.1278(3) -0.3098(2)
H2 H 0.2110 -0.0545 -0.2442
N4 N -0.2495(2) 0.0915(2) -0.21089(17)
C4 C 0.0083(2) -0.2502(3) -0.4657(2)
H3 H -0.0924 -0.2604 -0.5080
C5 C 0.3077(3) -0.2231(3) -0.3539(2)
H4 H 0.4111 -0.2103 -0.3171
C6 C 0.1343(2) -0.3406(3) -0.5025(2)
H5 H 0.1154 -0.4114 -0.5701
N5 N 0.2820(2) -0.3325(2) -0.44663(17)
H6 H -0.151(4) 0.323(4) 0.008(4)
O1B O 0.09652(18) -0.2578(2) -0.05640(16)
H1B H 0.0709 -0.2741 -0.1300
H6B H 0.151(4) -0.323(4) -0.008(4)
C1B C 0.1009(2) 0.0515(3) 0.32075(19)
C2B C -0.0326(2) 0.1434(2) 0.36487(19)
N1B N 0.2388(2) 0.0274(2) 0.3894(2)
N2B N 0.1042(2) -0.0205(2) 0.20884(19)
N3B N 0.3287(2) -0.0625(3) 0.31810(18)
C3B C -0.1879(2) 0.1278(3) 0.3098(2)
H2B H -0.2110 0.0545 0.2442
N4B N 0.2495(2) -0.0915(2) 0.21089(17)
C4B C -0.0083(2) 0.2502(3) 0.4657(2)
H3B H 0.0924 0.2604 0.5080
C5B C -0.3077(3) 0.2231(3) 0.3539(2)
H4B H -0.4111 0.2103 0.3171
C6B C -0.1343(2) 0.3406(3) 0.5025(2)
H5B H -0.1154 0.4114 0.5701
N5B N -0.2820(2) 0.3325(2) 0.44663(17)
N5A N -0.2180(2) -0.1675(2) 0.05337(17)
N5C N 0.2180(2) 0.1675(2) -0.05337(17)
Cd1A Cd 0.5000 -0.5000 -0.5000
Cd1A_2 Cd -0.5000 0.5000 0.5000
loop_
_geom_bond_atom_site_label_1
_geom_bond_atom_site_label_2
_geom_bond_site_symmetry_1
_geom_bond_site_symmetry_2
Cd1 O1 1_555 1_555
O1 H1 1_555 1_555
C1 C2 1_555 1_555
C2 C3 1_555 1_555
N1 C1 1_555 1_555
N2 Cd1 1_555 1_555
N3 N1 1_555 1_555
C3 H2 1_555 1_555
N4 N2 1_555 1_555
C4 C2 1_555 1_555
H3 C4 1_555 1_555
C5 C3 1_555 1_555
H4 C5 1_555 1_555
C6 C4 1_555 1_555
H5 C6 1_555 1_555
N5 C5 1_555 1_555
H6 O1 1_555 1_555
O1B Cd1 1_555 1_555
H1B O1B 1_555 1_555
H6B O1B 1_555 1_555
C1B C2B 1_555 1_555
C2B C3B 1_555 1_555
N1B C1B 1_555 1_555
N2B Cd1 1_555 1_555
N3B N1B 1_555 1_555
C3B H2B 1_555 1_555
N4B N2B 1_555 1_555
C4B C2B 1_555 1_555
H3B C4B 1_555 1_555
C5B C3B 1_555 1_555
H4B C5B 1_555 1_555
C6B C4B 1_555 1_555
H5B C6B 1_555 1_555
N5B C5B 1_555 1_555
N5A Cd1 1_555 1_555
N5C Cd1 1_555 1_555
Cd1A N5 1_555 1_555
Cd1A_2 N5B 1_555 1_555
C1 N2 1_555 1_555
N3 N4 1_555 1_555
C6 N5 1_555 1_555
C1B N2B 1_555 1_555
N3B N4B 1_555 1_555
C6B N5B 1_555 1_555

#END
