
#######################################################################
#
#                 Cambridge Crystallographic Data Centre
#                                CCDC 
#
#######################################################################
#
# If this CIF has been generated from an entry in the Cambridge 
# Structural Database, then it will include bibliographic, chemical, 
# crystal, experimental, refinement or atomic coordinate data resulting 
# from the CCDC's data processing and validation procedures.
#
#######################################################################

data_LABQEM
_symmetry_cell_setting           monoclinic
_symmetry_space_group_name_H-M   'P 21/c'
_symmetry_Int_Tables_number      14
_space_group_name_Hall           '-P 2ybc'
loop_
_symmetry_equiv_pos_site_id
_symmetry_equiv_pos_as_xyz
1 x,y,z
2 -x,1/2+y,1/2-z
3 -x,-y,-z
4 x,1/2-y,1/2+z
_cell_length_a                   7.842(5)
_cell_length_b                   11.799(5)
_cell_length_c                   32.729(5)
_cell_angle_alpha                90
_cell_angle_beta                 90.930(5)
_cell_angle_gamma                90
_cell_volume                     3027.94
loop_
_atom_site_label
_atom_site_type_symbol
_atom_site_fract_x
_atom_site_fract_y
_atom_site_fract_z
C1 C 0.7580(14) 0.0461(9) 0.3427(3)
H1 H 0.8731 0.0273 0.3424
C2 C 0.6437(14) -0.0266(10) 0.3258(3)
H2 H 0.6799 -0.0941 0.3141
C3 C 0.4749(13) 0.0004(9) 0.3261(3)
C4 C 0.4213(14) 0.0985(10) 0.3435(3)
H3 H 0.3062 0.1174 0.3442
C5 C 0.5452(14) 0.1694(10) 0.3603(3)
H4 H 0.5105 0.2368 0.3724
C6 C 0.3417(14) -0.0822(10) 0.3115(3)
C7 C 0.3939(16) -0.0138(10) 0.2405(3)
H5 H 0.4728 0.0357 0.2556
C8 C 0.4980(19) -0.0830(13) 0.2116(4)
H6 H 0.5760 -0.1299 0.2269
H7 H 0.5609 -0.0334 0.1941
H8 H 0.4238 -0.1300 0.1952
C9 C 0.269(2) 0.0626(13) 0.2171(5)
H9 H 0.2057 0.1073 0.2361
H10 H 0.1918 0.0167 0.2011
H11 H 0.3311 0.1118 0.1993
C10 C 0.1751(14) -0.1651(9) 0.2546(3)
H12 H 0.1682 -0.1538 0.2249
C11 C 0.2291(18) -0.2890(10) 0.2616(5)
H13 H 0.3405 -0.3008 0.2506
H14 H 0.1489 -0.3385 0.2481
H15 H 0.2315 -0.3050 0.2903
C12 C 0.0009(14) -0.1402(11) 0.2708(4)
H16 H -0.0272 -0.0622 0.2657
H17 H 0.0002 -0.1543 0.2997
H18 H -0.0817 -0.1880 0.2574
C13 C 0.6182(13) -0.1414(10) 0.5106(3)
H19 H 0.6624 -0.1496 0.5370
C14 C 0.4647(12) -0.1913(9) 0.5013(3)
H20 H 0.4094 -0.2348 0.5208
C15 C 0.3930(11) -0.1771(8) 0.4632(3)
C16 C 0.4802(11) -0.1166(8) 0.4355(3)
H21 H 0.4355 -0.1063 0.4092
C17 C 0.6364(13) -0.0700(9) 0.4462(3)
H22 H 0.6946 -0.0289 0.4266
C18 C 0.2167(12) -0.2163(8) 0.4540(3)
C19 C 0.3318(14) -0.3936(9) 0.4275(3)
H23 H 0.4374 -0.3567 0.4369
C20 C 0.3104(16) -0.5028(10) 0.4527(4)
H24 H 0.3036 -0.4839 0.4811
H25 H 0.4066 -0.5516 0.4485
H26 H 0.2079 -0.5409 0.4441
C21 C 0.3472(17) -0.4154(11) 0.3825(4)
H27 H 0.3613 -0.3448 0.3684
H28 H 0.2458 -0.4525 0.3725
H29 H 0.4442 -0.4630 0.3778
C22 C 0.0129(12) -0.3503(9) 0.4248(3)
H30 H 0.0218 -0.4259 0.4127
C23 C -0.0989(13) -0.3625(9) 0.4614(3)
H31 H -0.0452 -0.4123 0.4809
H32 H -0.2072 -0.3934 0.4531
H33 H -0.1157 -0.2895 0.4737
C24 C -0.0672(15) -0.2750(11) 0.3924(3)
H34 H 0.0067 -0.2707 0.3693
H35 H -0.0840 -0.2004 0.4033
H36 H -0.1752 -0.3060 0.3839
N1 N 0.7103(11) 0.1459(7) 0.3601(2)
N2 N 0.3093(10) -0.0863(7) 0.2705(2)
N3 N 0.7085(10) -0.0809(7) 0.4834(3)
N4 N 0.1887(10) -0.3159(7) 0.4365(2)
O1 O 0.2714(11) -0.1408(8) 0.3363(2)
O2 O 0.0996(8) -0.1503(6) 0.4638(2)
Cl1 Cl 0.7500(5) 0.3796(3) 0.42004(13)
Cl2 Cl 1.0741(4) 0.3047(3) 0.34023(10)
Co1 Co 0.89314(18) 0.24786(13) 0.38739(4)
Co2 Co 1.0000 0.0000 0.5000
Cl3 Cl 1.0214(4) 0.1135(3) 0.42750(10)
C1B C 1.2420(14) -0.0461(9) 0.6573(3)
H1B H 1.1269 -0.0273 0.6576
C2B C 1.3563(14) 0.0266(10) 0.6742(3)
H2B H 1.3201 0.0941 0.6859
C3B C 1.5251(13) -0.0004(9) 0.6739(3)
C4B C 1.5787(14) -0.0985(10) 0.6565(3)
H3B H 1.6938 -0.1174 0.6558
C5B C 1.4548(14) -0.1694(10) 0.6397(3)
H4B H 1.4895 -0.2368 0.6276
C6B C 1.6583(14) 0.0822(10) 0.6885(3)
C7B C 1.6061(16) 0.0138(10) 0.7595(3)
H5B H 1.5272 -0.0357 0.7444
C8B C 1.5020(19) 0.0830(13) 0.7884(4)
H6B H 1.4240 0.1299 0.7731
H7B H 1.4391 0.0334 0.8059
H8B H 1.5762 0.1300 0.8048
C9B C 1.731(2) -0.0626(13) 0.7829(5)
H9B H 1.7943 -0.1073 0.7639
H10B H 1.8082 -0.0167 0.7989
H11B H 1.6689 -0.1118 0.8007
C10B C 1.8249(14) 0.1651(9) 0.7454(3)
H12B H 1.8318 0.1538 0.7751
C11B C 1.7709(18) 0.2890(10) 0.7384(5)
H13B H 1.6595 0.3008 0.7494
H14B H 1.8511 0.3385 0.7519
H15B H 1.7685 0.3050 0.7097
C12B C 1.9991(14) 0.1402(11) 0.7292(4)
H16B H 2.0272 0.0622 0.7343
H17B H 1.9998 0.1543 0.7003
H18B H 2.0817 0.1880 0.7426
C13_2 C 1.6182(13) -0.1414(10) 0.5106(3)
H19_2 H 1.6624 -0.1496 0.5370
C14_2 C 1.4647(12) -0.1913(9) 0.5013(3)
H20_2 H 1.4094 -0.2348 0.5208
C15_2 C 1.3930(11) -0.1771(8) 0.4632(3)
C16_2 C 1.4802(11) -0.1166(8) 0.4355(3)
H21_2 H 1.4355 -0.1063 0.4092
C17_2 C 1.6364(13) -0.0700(9) 0.4462(3)
H22_2 H 1.6946 -0.0289 0.4266
C18_2 C 1.2167(12) -0.2163(8) 0.4540(3)
C19_2 C 1.3318(14) -0.3936(9) 0.4275(3)
H23_2 H 1.4374 -0.3567 0.4369
C20_2 C 1.3104(16) -0.5028(10) 0.4527(4)
H24_2 H 1.3036 -0.4839 0.4811
H25_2 H 1.4066 -0.5516 0.4485
H26_2 H 1.2079 -0.5409 0.4441
C21_2 C 1.3472(17) -0.4154(11) 0.3825(4)
H27_2 H 1.3613 -0.3448 0.3684
H28_2 H 1.2458 -0.4525 0.3725
H29_2 H 1.4442 -0.4630 0.3778
C22_2 C 1.0129(12) -0.3503(9) 0.4248(3)
H30_2 H 1.0218 -0.4259 0.4127
C23_2 C 0.9011(13) -0.3625(9) 0.4614(3)
H31_2 H 0.9548 -0.4123 0.4809
H32_2 H 0.7928 -0.3934 0.4531
H33_2 H 0.8843 -0.2895 0.4737
C24_2 C 0.9328(15) -0.2750(11) 0.3924(3)
H34_2 H 1.0067 -0.2707 0.3693
H35_2 H 0.9160 -0.2004 0.4033
H36_2 H 0.8248 -0.3060 0.3839
N1B N 1.2897(11) -0.1459(7) 0.6399(2)
N2B N 1.6907(10) 0.0863(7) 0.7295(2)
N3_2 N 1.7085(10) -0.0809(7) 0.4834(3)
N3B N 1.2915(10) 0.0809(7) 0.5166(3)
N4_2 N 1.1887(10) -0.3159(7) 0.4365(2)
O1B O 1.7286(11) 0.1408(8) 0.6637(2)
O2_2 O 1.0996(8) -0.1503(6) 0.4638(2)
O2B O 0.9004(8) 0.1503(6) 0.5362(2)
Cl1B Cl 1.2500(5) -0.3796(3) 0.57996(13)
Cl2B Cl 0.9259(4) -0.3047(3) 0.65977(10)
Co1B Co 1.10686(18) -0.24786(13) 0.61261(4)
Co2_2 Co 0.0000 0.0000 0.5000
Co2_3 Co 2.0000 0.0000 0.5000
Cl3B Cl 0.9786(4) -0.1135(3) 0.57250(10)
loop_
_geom_bond_atom_site_label_1
_geom_bond_atom_site_label_2
_geom_bond_site_symmetry_1
_geom_bond_site_symmetry_2
C1 H1 1_555 1_555
C2 C1 1_555 1_555
H2 C2 1_555 1_555
C3 C2 1_555 1_555
C4 C3 1_555 1_555
H3 C4 1_555 1_555
C5 C4 1_555 1_555
H4 C5 1_555 1_555
C6 C3 1_555 1_555
C7 H5 1_555 1_555
C8 C7 1_555 1_555
H6 C8 1_555 1_555
H7 C8 1_555 1_555
H8 C8 1_555 1_555
C9 C7 1_555 1_555
H9 C9 1_555 1_555
H10 C9 1_555 1_555
H11 C9 1_555 1_555
C10 H12 1_555 1_555
C11 C10 1_555 1_555
H13 C11 1_555 1_555
H14 C11 1_555 1_555
H15 C11 1_555 1_555
C12 C10 1_555 1_555
H16 C12 1_555 1_555
H17 C12 1_555 1_555
H18 C12 1_555 1_555
C13 H19 1_555 1_555
C14 C13 1_555 1_555
H20 C14 1_555 1_555
C15 C14 1_555 1_555
C16 C15 1_555 1_555
H21 C16 1_555 1_555
C17 C16 1_555 1_555
H22 C17 1_555 1_555
C18 C15 1_555 1_555
C19 H23 1_555 1_555
C20 C19 1_555 1_555
H24 C20 1_555 1_555
H25 C20 1_555 1_555
H26 C20 1_555 1_555
C21 C19 1_555 1_555
H27 C21 1_555 1_555
H28 C21 1_555 1_555
H29 C21 1_555 1_555
C22 H30 1_555 1_555
C23 C22 1_555 1_555
H31 C23 1_555 1_555
H32 C23 1_555 1_555
H33 C23 1_555 1_555
C24 C22 1_555 1_555
H34 C24 1_555 1_555
H35 C24 1_555 1_555
H36 C24 1_555 1_555
N1 C1 1_555 1_555
N2 C6 1_555 1_555
N3 C13 1_555 1_555
N4 C18 1_555 1_555
O1 C6 1_555 1_555
O2 C18 1_555 1_555
Cl1 Co1 1_555 1_555
Cl2 Co1 1_555 1_555
Co1 N1 1_555 1_555
Co2 N3 1_555 1_555
Cl3 Co1 1_555 1_555
C1B H1B 1_555 1_555
C2B C1B 1_555 1_555
H2B C2B 1_555 1_555
C3B C2B 1_555 1_555
C4B C3B 1_555 1_555
H3B C4B 1_555 1_555
C5B C4B 1_555 1_555
H4B C5B 1_555 1_555
C6B C3B 1_555 1_555
C7B H5B 1_555 1_555
C8B C7B 1_555 1_555
H6B C8B 1_555 1_555
H7B C8B 1_555 1_555
H8B C8B 1_555 1_555
C9B C7B 1_555 1_555
H9B C9B 1_555 1_555
H10B C9B 1_555 1_555
H11B C9B 1_555 1_555
C10B H12B 1_555 1_555
C11B C10B 1_555 1_555
H13B C11B 1_555 1_555
H14B C11B 1_555 1_555
H15B C11B 1_555 1_555
C12B C10B 1_555 1_555
H16B C12B 1_555 1_555
H17B C12B 1_555 1_555
H18B C12B 1_555 1_555
C13_2 H19_2 1_555 1_555
C14_2 C13_2 1_555 1_555
H20_2 C14_2 1_555 1_555
C15_2 C14_2 1_555 1_555
C16_2 C15_2 1_555 1_555
H21_2 C16_2 1_555 1_555
C17_2 C16_2 1_555 1_555
H22_2 C17_2 1_555 1_555
C18_2 C15_2 1_555 1_555
C19_2 H23_2 1_555 1_555
C20_2 C19_2 1_555 1_555
H24_2 C20_2 1_555 1_555
H25_2 C20_2 1_555 1_555
H26_2 C20_2 1_555 1_555
C21_2 C19_2 1_555 1_555
H27_2 C21_2 1_555 1_555
H28_2 C21_2 1_555 1_555
H29_2 C21_2 1_555 1_555
C22_2 H30_2 1_555 1_555
C23_2 C22_2 1_555 1_555
H31_2 C23_2 1_555 1_555
H32_2 C23_2 1_555 1_555
H33_2 C23_2 1_555 1_555
C24_2 C22_2 1_555 1_555
H34_2 C24_2 1_555 1_555
H35_2 C24_2 1_555 1_555
H36_2 C24_2 1_555 1_555
N1B C1B 1_555 1_555
N2B C6B 1_555 1_555
N3_2 C13_2 1_555 1_555
N3B Co2 1_555 1_555
N4_2 C18_2 1_555 1_555
O1B C6B 1_555 1_555
O2_2 Co2 1_555 1_555
O2B Co2 1_555 1_555
Cl1B Co1B 1_555 1_555
Cl2B Co1B 1_555 1_555
Co1B N1B 1_555 1_555
Co2_2 O2 1_555 1_555
Co2_3 N3_2 1_555 1_555
Cl3B Co2 1_555 1_555
C5 N1 1_555 1_555
C7 N2 1_555 1_555
C10 N2 1_555 1_555
C17 N3 1_555 1_555
C19 N4 1_555 1_555
C22 N4 1_555 1_555
Co2 Cl3 1_555 1_555
C5B N1B 1_555 1_555
C7B N2B 1_555 1_555
C10B N2B 1_555 1_555
C17_2 N3_2 1_555 1_555
C18_2 O2_2 1_555 1_555
C19_2 N4_2 1_555 1_555
C22_2 N4_2 1_555 1_555
Co1B Cl3B 1_555 1_555

#END
