
#######################################################################
#
#                 Cambridge Crystallographic Data Centre
#                                CCDC 
#
#######################################################################
#
# If this CIF has been generated from an entry in the Cambridge 
# Structural Database, then it will include bibliographic, chemical, 
# crystal, experimental, refinement or atomic coordinate data resulting 
# from the CCDC's data processing and validation procedures.
#
#######################################################################

data_LABRUD
_symmetry_cell_setting           monoclinic
_symmetry_space_group_name_H-M   'C 2/c'
_symmetry_Int_Tables_number      15
_space_group_name_Hall           '-C 2yn'
loop_
_symmetry_equiv_pos_site_id
_symmetry_equiv_pos_as_xyz
1 x,y,z
2 -x,y,1/2-z
3 1/2+x,1/2+y,z
4 1/2-x,1/2+y,1/2-z
5 -x,-y,-z
6 x,-y,1/2+z
7 1/2-x,1/2-y,-z
8 1/2+x,1/2-y,1/2+z
_cell_length_a                   32.147(3)
_cell_length_b                   5.7642(5)
_cell_length_c                   24.298(2)
_cell_angle_alpha                90
_cell_angle_beta                 118.1340(10)
_cell_angle_gamma                90
_cell_volume                     3970.48
loop_
_atom_site_label
_atom_site_type_symbol
_atom_site_fract_x
_atom_site_fract_y
_atom_site_fract_z
Cu1 Cu 0.025220(11) 0.07453(6) 0.429115(15)
Cu2 Cu 0.2500 0.2500 0.5000
O1 O 0.22947(7) 0.4474(4) 0.54693(9)
O2 O 0.16836(8) 0.2089(4) 0.51243(11)
O3 O 0.08109(7) 0.5056(4) 0.43649(9)
O4 O 0.06605(7) 0.2697(3) 0.49837(9)
O5 O 0.02581(6) 0.7848(3) 0.48988(8)
O6 O 0.03366(6) 0.7741(3) 0.58659(9)
O7 O 0.19570(9) 1.0005(5) 0.74388(11)
O8 O 0.25087(8) 0.9884(5) 0.71671(12)
N1 N 0.21109(9) 0.9448(5) 0.70820(12)
N2 N 0.20705(9) 0.4239(5) 0.42011(11)
N3 N 0.01793(8) 0.8951(4) 0.14763(11)
C1 C 0.16883(9) 0.5455(5) 0.57079(13)
C2 C 0.11983(9) 0.5701(5) 0.54613(12)
C3 C 0.10135(9) 0.7181(5) 0.57537(12)
C4 C 0.13166(10) 0.8354(5) 0.62935(13)
H1 H 0.1198 0.9276 0.6502
C5 C 0.17973(10) 0.8132(5) 0.65174(13)
C6 C 0.19906(10) 0.6732(5) 0.62342(13)
H2 H 0.2316 0.6643 0.6391
C7 C 0.18938(10) 0.3839(5) 0.54076(13)
C8 C 0.08614(9) 0.4397(5) 0.48798(13)
C9 C 0.04883(9) 0.7613(4) 0.54701(12)
C10 C 0.19217(12) 0.3240(7) 0.36453(15)
H3 H 0.2063 0.1862 0.3623
C11 C 0.15674(13) 0.4154(7) 0.31020(15)
H4 H 0.1472 0.3373 0.2727
C12 C 0.13526(11) 0.6219(6) 0.31099(14)
C13 C 0.15328(12) 0.7345(6) 0.36844(15)
H5 H 0.1415 0.8787 0.3713
C14 C 0.18849(12) 0.6325(6) 0.42081(15)
H6 H 0.2001 0.7114 0.4586
C15 C 0.04382(15) 0.7236(6) 0.14426(16)
H7 H 0.0359 0.6611 0.1053
C16 C 0.08189(14) 0.6327(7) 0.19554(16)
H8 H 0.0991 0.5124 0.1905
C17 C 0.09483(11) 0.7180(6) 0.25422(14)
C18 C 0.06817(16) 0.8975(9) 0.25731(17)
H9 H 0.0757 0.9650 0.2956
C19 C 0.03025(14) 0.9789(9) 0.20396(17)
H10 H 0.0124 1.0988 0.2077
O9 O 0.08298(7) -0.0348(4) 0.42364(10)
H11 H 0.0847 -0.1766 0.4263
H12 H 0.1065 0.0267 0.4525
Cu1F Cu 0.474780(11) 0.42547(6) 0.570885(15)
Cu1_2 Cu 0.025220(11) 1.07453(6) 0.429115(15)
Cu1D Cu -0.025220(11) 0.92547(6) 0.570885(15)
Cu1A Cu -0.025220(11) 1.07453(6) 0.070885(15)
Cu1F_2 Cu 0.474780(11) -0.57453(6) 0.570885(15)
Cu1B Cu 0.525220(11) -0.42547(6) 0.429115(15)
Cu1G Cu 0.525220(11) -0.57453(6) 0.929115(15)
O1F O 0.27053(7) 0.0526(4) 0.45307(9)
O2F O 0.33164(8) 0.2911(4) 0.48757(11)
O3F O 0.41891(7) -0.0056(4) 0.56351(9)
O4F O 0.43395(7) 0.2303(3) 0.50163(9)
O5F O 0.47419(6) -0.2848(3) 0.51012(8)
O5_2 O 0.02581(6) -0.2152(3) 0.48988(8)
O5F_2 O 0.47419(6) 0.7152(3) 0.51012(8)
O6F O 0.46634(6) -0.2741(3) 0.41341(9)
O6D O -0.03366(6) 0.2259(3) 0.41341(9)
O6B O 0.53366(6) 0.2741(3) 0.58659(9)
O7F O 0.30430(9) -0.5005(5) 0.25612(11)
O8F O 0.24913(8) -0.4884(5) 0.28329(12)
N1F N 0.28891(9) -0.4448(5) 0.29180(12)
N2F N 0.29295(9) 0.0761(5) 0.57989(11)
N3F N 0.48207(8) -0.3951(4) 0.85237(11)
N3A N -0.01793(8) -0.1049(4) 0.35237(11)
N3G N 0.51793(8) 0.6049(4) 0.64763(11)
C1F C 0.33117(9) -0.0455(5) 0.42921(13)
C2F C 0.38017(9) -0.0701(5) 0.45387(12)
C3F C 0.39865(9) -0.2181(5) 0.42463(12)
C4F C 0.36834(10) -0.3354(5) 0.37065(13)
H1F H 0.3802 -0.4276 0.3498
C5F C 0.32027(10) -0.3132(5) 0.34826(13)
C6F C 0.30094(10) -0.1732(5) 0.37658(13)
H2F H 0.2684 -0.1643 0.3609
C7F C 0.31062(10) 0.1161(5) 0.45924(13)
C8F C 0.41386(9) 0.0603(5) 0.51202(13)
C9F C 0.45117(9) -0.2613(4) 0.45299(12)
C10F C 0.30783(12) 0.1760(7) 0.63547(15)
H3F H 0.2937 0.3138 0.6377
C11F C 0.34326(13) 0.0846(7) 0.68980(15)
H4F H 0.3528 0.1627 0.7273
C12F C 0.36474(11) -0.1219(6) 0.68901(14)
C13F C 0.34672(12) -0.2345(6) 0.63156(15)
H5F H 0.3585 -0.3787 0.6287
C14F C 0.31151(12) -0.1325(6) 0.57919(15)
H6F H 0.2999 -0.2114 0.5414
C15F C 0.45618(15) -0.2236(6) 0.85574(16)
H7F H 0.4641 -0.1611 0.8947
C16F C 0.41811(14) -0.1327(7) 0.80446(16)
H8F H 0.4009 -0.0124 0.8095
C17F C 0.40517(11) -0.2180(6) 0.74578(14)
C18F C 0.43183(16) -0.3975(9) 0.74269(17)
H9F H 0.4243 -0.4650 0.7044
C19F C 0.46975(14) -0.4789(9) 0.79604(17)
H10F H 0.4876 -0.5988 0.7923
O9F O 0.41702(7) 0.5348(4) 0.57636(10)
H11F H 0.4153 0.6766 0.5737
H12F H 0.3935 0.4733 0.5475
O10 O 0.04061(16) 0.3911(8) 0.31145(18)
H13 H 0.0607 0.4344 0.3468
H14 H 0.0157 0.4663 0.2998
loop_
_geom_bond_atom_site_label_1
_geom_bond_atom_site_label_2
_geom_bond_site_symmetry_1
_geom_bond_site_symmetry_2
Cu1 O4 1_555 1_555
Cu2 O1 1_555 1_555
O1 C7 1_555 1_555
O2 C7 1_555 1_555
O3 C8 1_555 1_555
O4 C8 1_555 1_555
O5 C9 1_555 1_555
O6 C9 1_555 1_555
O7 N1 1_555 1_555
O8 N1 1_555 1_555
N1 C5 1_555 1_555
N2 Cu2 1_555 1_555
N3 C15 1_555 1_555
C1 C2 1_555 1_555
C2 C3 1_555 1_555
C3 C4 1_555 1_555
C4 H1 1_555 1_555
C5 C4 1_555 1_555
C6 C1 1_555 1_555
H2 C6 1_555 1_555
C7 C1 1_555 1_555
C8 C2 1_555 1_555
C9 C3 1_555 1_555
C10 N2 1_555 1_555
H3 C10 1_555 1_555
C11 C10 1_555 1_555
H4 C11 1_555 1_555
C12 C11 1_555 1_555
C13 C12 1_555 1_555
H5 C13 1_555 1_555
C14 N2 1_555 1_555
H6 C14 1_555 1_555
C15 H7 1_555 1_555
C16 C15 1_555 1_555
H8 C16 1_555 1_555
C17 C12 1_555 1_555
C18 C17 1_555 1_555
H9 C18 1_555 1_555
C19 N3 1_555 1_555
H10 C19 1_555 1_555
O9 Cu1 1_555 1_555
H11 O9 1_555 1_555
H12 O9 1_555 1_555
O10 H13 1_555 1_555
H14 O10 1_555 1_555
Cu1F O4F 1_555 1_555
Cu1_2 O5 1_555 1_555
Cu1D O6 1_555 1_555
Cu1A N3 1_555 1_555
Cu1F_2 O5F 1_555 1_555
Cu1B O6F 1_555 1_555
Cu1G N3F 1_555 1_555
O1F Cu2 1_555 1_555
O2F C7F 1_555 1_555
O3F C8F 1_555 1_555
O4F C8F 1_555 1_555
O5F C9F 1_555 1_555
O5_2 Cu1 1_555 1_555
O5F_2 Cu1F 1_555 1_555
O6F C9F 1_555 1_555
O6D Cu1 1_555 1_555
O6B Cu1F 1_555 1_555
O7F N1F 1_555 1_555
O8F N1F 1_555 1_555
N1F C5F 1_555 1_555
N2F Cu2 1_555 1_555
N3F C15F 1_555 1_555
N3A Cu1 1_555 1_555
N3G Cu1F 1_555 1_555
C1F C2F 1_555 1_555
C2F C3F 1_555 1_555
C3F C4F 1_555 1_555
C4F H1F 1_555 1_555
C5F C4F 1_555 1_555
C6F C1F 1_555 1_555
H2F C6F 1_555 1_555
C7F O1F 1_555 1_555
C8F C2F 1_555 1_555
C9F C3F 1_555 1_555
C10F N2F 1_555 1_555
H3F C10F 1_555 1_555
C11F C10F 1_555 1_555
H4F C11F 1_555 1_555
C12F C11F 1_555 1_555
C13F C12F 1_555 1_555
H5F C13F 1_555 1_555
C14F N2F 1_555 1_555
H6F C14F 1_555 1_555
C15F H7F 1_555 1_555
C16F C15F 1_555 1_555
H8F C16F 1_555 1_555
C17F C12F 1_555 1_555
C18F C17F 1_555 1_555
H9F C18F 1_555 1_555
C19F N3F 1_555 1_555
H10F C19F 1_555 1_555
O9F Cu1F 1_555 1_555
H11F O9F 1_555 1_555
H12F O9F 1_555 1_555
C5 C6 1_555 1_555
C13 C14 1_555 1_555
C16 C17 1_555 1_555
C18 C19 1_555 1_555
C1F C7F 1_555 1_555
C5F C6F 1_555 1_555
C13F C14F 1_555 1_555
C16F C17F 1_555 1_555
C18F C19F 1_555 1_555

#END
