
#######################################################################
#
#                 Cambridge Crystallographic Data Centre
#                                CCDC 
#
#######################################################################
#
# If this CIF has been generated from an entry in the Cambridge 
# Structural Database, then it will include bibliographic, chemical, 
# crystal, experimental, refinement or atomic coordinate data resulting 
# from the CCDC's data processing and validation procedures.
#
#######################################################################

data_LABREN
_symmetry_cell_setting           monoclinic
_symmetry_space_group_name_H-M   'C 2/c'
_symmetry_Int_Tables_number      15
_space_group_name_Hall           '-C 2yn'
loop_
_symmetry_equiv_pos_site_id
_symmetry_equiv_pos_as_xyz
1 x,y,z
2 -x,y,1/2-z
3 1/2+x,1/2+y,z
4 1/2-x,1/2+y,1/2-z
5 -x,-y,-z
6 x,-y,1/2+z
7 1/2-x,1/2-y,-z
8 1/2+x,1/2-y,1/2+z
_cell_length_a                   21.3161(10)
_cell_length_b                   12.4028(10)
_cell_length_c                   18.6010(10)
_cell_angle_alpha                90
_cell_angle_beta                 111.7400(10)
_cell_angle_gamma                90
_cell_volume                     4567.94
loop_
_atom_site_label
_atom_site_type_symbol
_atom_site_fract_x
_atom_site_fract_y
_atom_site_fract_z
Cd1 Cd 0.731719(8) 0.821639(14) 0.362669(8)
N1 N 0.75208(12) 0.79895(19) 0.25010(12)
N2 N 0.66141(12) 0.9681(2) 0.31226(13)
O1 O 0.83569(10) 0.91710(19) 0.41526(10)
O2 O 0.77873(9) 0.92217(16) 0.49180(10)
O3 O 0.85026(9) 0.73604(14) 0.58649(9)
O4 O 0.84648(12) 0.83496(17) 0.68293(12)
O5 O 1.0000 0.7594(2) 0.7500
C1 C 0.91442(11) 0.89861(18) 0.61688(12)
C2 C 0.89677(12) 0.95450(19) 0.54671(12)
C3 C 0.94060(13) 1.0315(2) 0.53772(13)
H1 H 0.9286 1.0695 0.4915
C4 C 1.00234(14) 1.0525(2) 0.59723(14)
H2 H 1.0317 1.1035 0.5906
C5 C 1.01924(12) 0.9972(2) 0.66562(13)
H3 H 1.0601 1.0117 0.7056
C6 C 0.97646(11) 0.92024(19) 0.67618(12)
C7 C 1.0000 0.8563(3) 0.7500
C8 C 0.83232(13) 0.9303(2) 0.48043(13)
C9 C 0.86716(13) 0.81714(19) 0.62969(14)
C10 C 0.72391(16) 0.7193(2) 0.20149(14)
H4 H 0.6992 0.6675 0.2159
C11 C 0.72973(18) 0.7101(3) 0.13026(16)
H5 H 0.7103 0.6518 0.0983
C12 C 0.76452(16) 0.7879(3) 0.10634(15)
C13 C 0.79311(16) 0.8697(3) 0.15685(15)
H6 H 0.8166 0.9240 0.1430
C14 C 0.78751(14) 0.8725(2) 0.22771(15)
H7 H 0.8091 0.9275 0.2619
C15 C 0.7719(2) 0.7871(4) 0.02864(18)
H8 H 0.7633 0.8594 0.0074
H9 H 0.8184 0.7695 0.0368
C16 C 0.63323(17) 1.0126(3) 0.35809(19)
H10 H 0.6429 0.9835 0.4071
C17 C 0.59011(17) 1.1003(3) 0.3359(2)
H11 H 0.5706 1.1277 0.3693
C18 C 0.57618(16) 1.1466(3) 0.2650(2)
C19 C 0.60584(19) 1.1019(3) 0.2190(2)
H12 H 0.5981 1.1315 0.1706
C20 C 0.64713(18) 1.0134(3) 0.24330(18)
H13 H 0.6660 0.9839 0.2099
C21 C 0.53061(17) 1.2434(3) 0.2389(3)
H14 H 0.5155 1.2484 0.1830
H15 H 0.5569 1.3076 0.2603
O6 O 0.79829(11) 0.67573(15) 0.43146(12)
H16 H 0.8371 0.6988 0.4599
H17 H 0.7794 0.6466 0.4596
Cd1F Cd 0.768281(8) 0.678361(14) -0.362669(8)
Cd1F_2 Cd 0.768281(8) 0.678361(14) 0.637331(8)
Cd1A Cd 0.268281(8) 0.821639(14) 0.137331(8)
Cd1A_2 Cd 1.268281(8) 0.821639(14) 1.137331(8)
Cd1G Cd 1.231719(8) 0.678361(14) 0.862669(8)
N1F N 0.74792(12) 0.70105(19) -0.25010(12)
N2A N 0.33859(12) 0.9681(2) 0.18774(13)
N2F N 0.83859(12) 0.5319(2) -0.31226(13)
O1A O 1.16431(10) 0.91710(19) 1.08474(10)
O1F O 0.66431(10) 0.58290(19) -0.41526(10)
O2A O 1.22127(9) 0.92217(16) 1.00820(10)
O2F O 0.72127(9) 0.57783(16) -0.49180(10)
O3A O 1.14974(9) 0.73604(14) 0.91351(9)
O3F O 0.64974(9) 0.76396(14) 0.41351(9)
O3_2 O 0.85026(9) 0.73604(14) -0.41351(9)
O4A O 1.15352(12) 0.83496(17) 0.81707(12)
O4F O 0.65352(12) 0.66504(17) 0.31707(12)
O4_2 O 0.84648(12) 0.83496(17) -0.31707(12)
C1A C 1.08558(11) 0.89861(18) 0.88312(12)
C2A C 1.10323(12) 0.95450(19) 0.95329(12)
C3A C 1.05940(13) 1.0315(2) 0.96228(13)
H1A H 1.0714 1.0695 1.0085
C4A C 0.99766(14) 1.0525(2) 0.90277(14)
H2A H 0.9683 1.1035 0.9094
C5A C 0.98076(12) 0.9972(2) 0.83438(13)
H3A H 0.9399 1.0117 0.7944
C6A C 1.02354(11) 0.92024(19) 0.82382(12)
C8A C 1.16768(13) 0.9303(2) 1.01957(13)
C9A C 1.13284(13) 0.81714(19) 0.87031(14)
C10F C 0.77609(16) 0.7807(2) -0.20149(14)
H4F H 0.8008 0.8325 -0.2159
C11F C 0.77027(18) 0.7899(3) -0.13026(16)
H5F H 0.7897 0.8482 -0.0983
C12F C 0.73548(16) 0.7121(3) -0.10634(15)
C13F C 0.70689(16) 0.6303(3) -0.15685(15)
H6F H 0.6834 0.5760 -0.1430
C14F C 0.71249(14) 0.6275(2) -0.22771(15)
H7F H 0.6909 0.5725 -0.2619
C15F C 0.7281(2) 0.7129(4) -0.02864(18)
H8F H 0.7367 0.6406 -0.0074
H9F H 0.6816 0.7305 -0.0368
C16A C 0.36677(17) 1.0126(3) 0.14191(19)
H10A H 0.3571 0.9835 0.0929
C17A C 0.40989(17) 1.1003(3) 0.1641(2)
H11A H 0.4294 1.1277 0.1307
C18A C 0.42382(16) 1.1466(3) 0.2350(2)
C19A C 0.39416(19) 1.1019(3) 0.2810(2)
H12A H 0.4019 1.1315 0.3294
C20A C 0.35287(18) 1.0134(3) 0.25670(18)
H13A H 0.3340 0.9839 0.2901
C21A C 0.46939(17) 1.2434(3) 0.2611(3)
H14A H 0.4845 1.2484 0.3170
H15A H 0.4431 1.3076 0.2397
O6F O 0.70171(11) 0.82427(15) -0.43146(12)
H16F H 0.6629 0.8012 -0.4599
H17F H 0.7206 0.8534 -0.4596
loop_
_geom_bond_atom_site_label_1
_geom_bond_atom_site_label_2
_geom_bond_site_symmetry_1
_geom_bond_site_symmetry_2
Cd1 N1 1_555 1_555
N1 C10 1_555 1_555
N2 Cd1 1_555 1_555
O1 Cd1 1_555 1_555
O2 Cd1 1_555 1_555
O3 C9 1_555 1_555
O4 C9 1_555 1_555
O5 C7 1_555 1_555
C1 C2 1_555 1_555
C2 C3 1_555 1_555
C3 H1 1_555 1_555
C4 C3 1_555 1_555
H2 C4 1_555 1_555
C5 C4 1_555 1_555
H3 C5 1_555 1_555
C6 C1 1_555 1_555
C7 C6 1_555 1_555
C8 O1 1_555 1_555
C9 C1 1_555 1_555
C10 H4 1_555 1_555
C11 C10 1_555 1_555
H5 C11 1_555 1_555
C12 C11 1_555 1_555
C13 C12 1_555 1_555
H6 C13 1_555 1_555
C14 N1 1_555 1_555
H7 C14 1_555 1_555
C15 C12 1_555 1_555
H8 C15 1_555 1_555
H9 C15 1_555 1_555
C16 N2 1_555 1_555
H10 C16 1_555 1_555
C17 C16 1_555 1_555
H11 C17 1_555 1_555
C18 C17 1_555 1_555
C19 C18 1_555 1_555
H12 C19 1_555 1_555
C20 N2 1_555 1_555
H13 C20 1_555 1_555
C21 C18 1_555 1_555
H14 C21 1_555 1_555
H15 C21 1_555 1_555
O6 Cd1 1_555 1_555
H16 O6 1_555 1_555
H17 O6 1_555 1_555
Cd1F N1F 1_555 1_555
Cd1F_2 O3 1_555 1_555
Cd1A N2A 1_555 1_555
Cd1A_2 O1A 1_555 1_555
Cd1G O3A 1_555 1_555
N1F C10F 1_555 1_555
N2A C16A 1_555 1_555
N2F Cd1F 1_555 1_555
O1A C8A 1_555 1_555
O1F Cd1F 1_555 1_555
O2A Cd1A_2 1_555 1_555
O2F Cd1F 1_555 1_555
O3A C9A 1_555 1_555
O3F Cd1 1_555 1_555
O3_2 Cd1F 1_555 1_555
O4A Cd1G 1_555 1_555
O4F Cd1 1_555 1_555
O4_2 Cd1F 1_555 1_555
C1A C2A 1_555 1_555
C2A C3A 1_555 1_555
C3A H1A 1_555 1_555
C4A C3A 1_555 1_555
H2A C4A 1_555 1_555
C5A C4A 1_555 1_555
H3A C5A 1_555 1_555
C6A C7 1_555 1_555
C8A O2A 1_555 1_555
C9A O4A 1_555 1_555
C10F H4F 1_555 1_555
C11F C10F 1_555 1_555
H5F C11F 1_555 1_555
C12F C11F 1_555 1_555
C13F C12F 1_555 1_555
H6F C13F 1_555 1_555
C14F N1F 1_555 1_555
H7F C14F 1_555 1_555
C15F C15 1_555 1_555
H8F C15F 1_555 1_555
H9F C15F 1_555 1_555
C16A H10A 1_555 1_555
C17A C16A 1_555 1_555
H11A C17A 1_555 1_555
C18A C17A 1_555 1_555
C19A C18A 1_555 1_555
H12A C19A 1_555 1_555
C20A N2A 1_555 1_555
H13A C20A 1_555 1_555
C21A C21 1_555 1_555
H14A C21A 1_555 1_555
H15A C21A 1_555 1_555
O6F Cd1F 1_555 1_555
H16F O6F 1_555 1_555
H17F O6F 1_555 1_555
O2 C8 1_555 1_555
O4 Cd1F_2 1_555 1_555
C2 C8 1_555 1_555
C5 C6 1_555 1_555
C13 C14 1_555 1_555
C19 C20 1_555 1_555
C1A C6A 1_555 1_555
C1A C9A 1_555 1_555
C2A C8A 1_555 1_555
C5A C6A 1_555 1_555
C12F C15F 1_555 1_555
C13F C14F 1_555 1_555
C18A C21A 1_555 1_555
C19A C20A 1_555 1_555

#END
