
#######################################################################
#
#                 Cambridge Crystallographic Data Centre
#                                CCDC 
#
#######################################################################
#
# If this CIF has been generated from an entry in the Cambridge 
# Structural Database, then it will include bibliographic, chemical, 
# crystal, experimental, refinement or atomic coordinate data resulting 
# from the CCDC's data processing and validation procedures.
#
#######################################################################

data_LABROX
_symmetry_cell_setting           triclinic
_symmetry_space_group_name_H-M   'P -1'
_symmetry_Int_Tables_number      2
_space_group_name_Hall           '-P 1'
loop_
_symmetry_equiv_pos_site_id
_symmetry_equiv_pos_as_xyz
1 x,y,z
2 -x,-y,-z
_cell_length_a                   11.659(2)
_cell_length_b                   11.789(2)
_cell_length_c                   12.945(3)
_cell_angle_alpha                70.39(3)
_cell_angle_beta                 67.92(3)
_cell_angle_gamma                85.77(3)
_cell_volume                     1550.34
loop_
_atom_site_label
_atom_site_type_symbol
_atom_site_fract_x
_atom_site_fract_y
_atom_site_fract_z
Cd1 Cd 0.46394(4) 0.31993(3) 0.02166(3)
Cd2 Cd 0.65910(4) 0.01135(3) 0.11895(4)
O1 O 0.4579(4) -0.0374(4) 0.2942(5)
O2 O 0.4784(4) 0.1028(4) 0.1243(4)
O3 O 0.2952(4) 0.2069(4) 0.0019(4)
O4 O 0.2774(4) 0.0058(4) 0.0621(4)
O5 O -0.1833(4) 0.1685(4) 0.0299(4)
O6 O -0.2943(4) 0.1272(4) 0.2202(4)
O7 O -0.3489(4) 0.3571(4) 0.0360(4)
O8 O -0.3652(5) 0.5307(4) 0.0656(5)
O9 O 0.0033(5) 0.1020(5) 0.1297(6)
N1 N 0.3839(4) 0.3404(4) 0.2012(4)
N2 N 0.3668(5) 0.3248(5) 0.3792(4)
N3 N 0.5838(4) 0.2952(4) -0.1463(4)
N4 N 0.7437(5) 0.2743(4) -0.2939(4)
O10 O 0.7373(4) -0.1673(4) 0.1835(4)
H1 H 0.7359 -0.2026 0.1364
H2 H 0.7997 -0.1937 0.2013
C1 C 0.4134(5) 0.0403(5) 0.2300(6)
C2 C 0.2668(5) 0.1063(5) 0.0781(5)
C3 C -0.2134(5) 0.1915(5) 0.1234(6)
C4 C -0.3166(5) 0.4340(5) 0.0656(5)
C5 C 0.0128(5) 0.1720(5) 0.1766(5)
C6 C 0.2800(5) 0.0693(4) 0.2786(5)
C7 C 0.2107(5) 0.1028(5) 0.2065(5)
C8 C 0.0906(5) 0.1428(5) 0.2506(5)
C9 C 0.0433(5) 0.1487(5) 0.3639(5)
H5 H -0.0352 0.1767 0.3923
C10 C 0.1113(6) 0.1137(6) 0.4348(6)
H6 H 0.0787 0.1175 0.5110
C11 C 0.2278(6) 0.0729(5) 0.3928(6)
H7 H 0.2724 0.0472 0.4421
C12 C -0.0522(5) 0.2873(5) 0.1610(5)
C13 C -0.1552(5) 0.2993(5) 0.1274(5)
C14 C -0.2090(5) 0.4124(5) 0.1058(4)
C15 C -0.1590(5) 0.5072(5) 0.1190(5)
H8 H -0.1949 0.5812 0.1057
C16 C -0.0577(6) 0.4948(5) 0.1512(5)
H9 H -0.0251 0.5602 0.1584
C17 C -0.0046(5) 0.3852(5) 0.1727(5)
H10 H 0.0633 0.3766 0.1952
C18 C 0.2885(6) 0.4078(5) 0.2447(6)
H11 H 0.2402 0.4534 0.2045
C19 C 0.2766(6) 0.3969(6) 0.3557(6)
H12 H 0.2181 0.4318 0.4062
C20 C 0.4287(6) 0.2933(5) 0.2842(5)
H13 H 0.4954 0.2440 0.2776
C21 C 0.3921(7) 0.2923(6) 0.4890(6)
H14 H 0.4482 0.2273 0.4916
H15 H 0.3153 0.2642 0.5570
C22 C 0.4493(7) 0.4005(6) 0.4945(5)
C23 C 0.3838(6) 0.4518(6) 0.5790(5)
H16 H 0.3049 0.4198 0.6325
C24 C 0.5655(7) 0.4500(6) 0.4158(5)
H17 H 0.6104 0.4162 0.3581
C25 C 0.5514(6) 0.3102(6) -0.2415(5)
H18 H 0.4722 0.3258 -0.2422
C26 C 0.7014(5) 0.2747(5) -0.1821(5)
H19 H 0.7496 0.2621 -0.1364
C27 C 0.6468(6) 0.2997(7) -0.3307(6)
H20 H 0.6485 0.3079 -0.4053
C28 C 0.8736(6) 0.2641(6) -0.3652(6)
H21 H 0.8761 0.2203 -0.4173
H22 H 0.9147 0.2177 -0.3130
C29 C 0.9384(6) 0.4492(6) -0.5474(5)
H23 H 0.8968 0.4156 -0.5800
C30 C 0.9424(6) 0.3825(6) -0.4370(5)
C31 C 1.0056(6) 0.4369(6) -0.3913(5)
H24 H 1.0097 0.3950 -0.3179
Cd1_2 Cd 1.46394(4) 0.31993(3) 0.02166(3)
Cd1_3 Cd -0.53606(4) 0.31993(3) 0.02166(3)
Cd1A Cd -0.46394(4) 0.68007(3) -0.02166(3)
Cd1A_2 Cd 0.53606(4) 0.68007(3) 0.97834(3)
Cd1A_3 Cd 1.53606(4) 0.68007(3) -1.02166(3)
Cd1A_4 Cd 0.53606(4) 0.68007(3) -0.02166(3)
Cd2_2 Cd 1.65910(4) 0.01135(3) 0.11895(4)
Cd2A Cd 0.34090(4) -0.01135(3) -0.11895(4)
Cd2_3 Cd -0.34090(4) 0.01135(3) 0.11895(4)
Cd2A_2 Cd 1.34090(4) -0.01135(3) -0.11895(4)
O1_2 O 1.4579(4) -0.0374(4) 0.2942(5)
O2_2 O 1.4784(4) 0.1028(4) 0.1243(4)
O3_2 O 1.2952(4) 0.2069(4) 0.0019(4)
O4_2 O 1.2774(4) 0.0058(4) 0.0621(4)
O4A O 0.7226(4) -0.0058(4) -0.0621(4)
O4A_2 O 1.7226(4) -0.0058(4) -0.0621(4)
O5_2 O 0.8167(4) 0.1685(4) 0.0299(4)
O5_3 O 1.8167(4) 0.1685(4) 0.0299(4)
O6_2 O 0.7057(4) 0.1272(4) 0.2202(4)
O6_3 O 1.7057(4) 0.1272(4) 0.2202(4)
O7_2 O 0.6511(4) 0.3571(4) 0.0360(4)
O7_3 O 1.6511(4) 0.3571(4) 0.0360(4)
O8_2 O 0.6348(5) 0.5307(4) 0.0656(5)
O8A O 0.3652(5) 0.4693(4) -0.0656(5)
O8A_2 O 1.3652(5) 0.4693(4) -0.0656(5)
O9_2 O 1.0033(5) 0.1020(5) 0.1297(6)
N1A N 0.6161(4) 0.6596(4) 0.7988(4)
N1_2 N 1.3839(4) 0.3404(4) 0.2012(4)
N2A N 0.6332(5) 0.6752(5) 0.6208(4)
N3A N 1.4162(4) 0.7048(4) -0.8537(4)
N3_2 N 1.5838(4) 0.2952(4) -0.1463(4)
N4A N 1.2563(5) 0.7257(4) -0.7061(4)
O10_2 O 1.7373(4) -0.1673(4) 0.1835(4)
H1_2 H 1.7359 -0.2026 0.1364
H2_2 H 1.7997 -0.1937 0.2013
C1_2 C 1.4134(5) 0.0403(5) 0.2300(6)
C2_2 C 1.2668(5) 0.1063(5) 0.0781(5)
C3_2 C 0.7866(5) 0.1915(5) 0.1234(6)
C4_2 C 0.6834(5) 0.4340(5) 0.0656(5)
C5_2 C 1.0128(5) 0.1720(5) 0.1766(5)
C6_2 C 1.2800(5) 0.0693(4) 0.2786(5)
C7_2 C 1.2107(5) 0.1028(5) 0.2065(5)
C8_2 C 1.0906(5) 0.1428(5) 0.2506(5)
C9_2 C 1.0433(5) 0.1487(5) 0.3639(5)
H5_2 H 0.9648 0.1767 0.3923
C10_2 C 1.1113(6) 0.1137(6) 0.4348(6)
H6_2 H 1.0787 0.1175 0.5110
C11_2 C 1.2278(6) 0.0729(5) 0.3928(6)
H7_2 H 1.2724 0.0472 0.4421
C12_2 C 0.9478(5) 0.2873(5) 0.1610(5)
C13_2 C 0.8448(5) 0.2993(5) 0.1274(5)
C14_2 C 0.7910(5) 0.4124(5) 0.1058(4)
C15_2 C 0.8410(5) 0.5072(5) 0.1190(5)
H8_2 H 0.8051 0.5812 0.1057
C16_2 C 0.9423(6) 0.4948(5) 0.1512(5)
H9_2 H 0.9749 0.5602 0.1584
C17_2 C 0.9954(5) 0.3852(5) 0.1727(5)
H10_2 H 1.0633 0.3766 0.1952
C18A C 0.7115(6) 0.5922(5) 0.7553(6)
H11A H 0.7598 0.5466 0.7955
C19A C 0.7234(6) 0.6031(6) 0.6443(6)
H12A H 0.7819 0.5682 0.5938
C20A C 0.5713(6) 0.7067(5) 0.7158(5)
H13A H 0.5046 0.7560 0.7224
C21A C 0.6079(7) 0.7077(6) 0.5110(6)
H14A H 0.5518 0.7727 0.5084
H15A H 0.6847 0.7358 0.4430
C22A C 0.5507(7) 0.5995(6) 0.5055(5)
C23A C 0.6162(6) 0.5482(6) 0.4210(5)
H16A H 0.6951 0.5802 0.3675
C24A C 0.4345(7) 0.5500(6) 0.5842(5)
H17A H 0.3896 0.5838 0.6419
C25A C 1.4486(6) 0.6898(6) -0.7585(5)
H18A H 1.5278 0.6742 -0.7578
C26A C 1.2986(5) 0.7253(5) -0.8179(5)
H19A H 1.2504 0.7379 -0.8636
C27A C 1.3532(6) 0.7003(7) -0.6693(6)
H20A H 1.3515 0.6921 -0.5947
C28A C 1.1264(6) 0.7359(6) -0.6348(6)
H21A H 1.1239 0.7797 -0.5827
H22A H 1.0853 0.7823 -0.6870
C29A C 1.0616(6) 0.5508(6) -0.4526(5)
H23A H 1.1032 0.5844 -0.4200
C30A C 1.0576(6) 0.6175(6) -0.5630(5)
C31A C 0.9944(6) 0.5631(6) -0.6087(5)
H24A H 0.9903 0.6050 -0.6821
O11 O 1.0225(4) 0.1472(5) 0.8453(5)
H3 H 0.9448 0.1409 0.8843
H4 H 1.0302 0.1300 0.7844
O12 O 0.7060(9) 0.1842(7) 0.4335(7)
H25 H 0.7422 0.2496 0.4225
H26 H 0.6663 0.1562 0.5078
O13 O 0.5000 1.0000 0.5000
H27 H 0.5683 0.9666 0.4807
H27A H 0.4317 1.0334 0.5193
H28? H 0.4971 1.0193 0.5585
loop_
_geom_bond_atom_site_label_1
_geom_bond_atom_site_label_2
_geom_bond_site_symmetry_1
_geom_bond_site_symmetry_2
Cd1 O2 1_555 1_555
Cd2 O1 1_555 1_555
O1 C1 1_555 1_555
O2 Cd2 1_555 1_555
O3 Cd1 1_555 1_555
O4 C2 1_555 1_555
O5 C3 1_555 1_555
O6 C3 1_555 1_555
O7 C4 1_555 1_555
O8 C4 1_555 1_555
O9 C5 1_555 1_555
N1 Cd1 1_555 1_555
N2 C19 1_555 1_555
N3 Cd1 1_555 1_555
N4 C26 1_555 1_555
O10 Cd2 1_555 1_555
H1 O10 1_555 1_555
H2 O10 1_555 1_555
O11 H3 1_555 1_555
H4 O11 1_555 1_555
C1 O2 1_555 1_555
C2 O3 1_555 1_555
C3 C13 1_555 1_555
C4 C14 1_555 1_555
C5 C8 1_555 1_555
C6 C1 1_555 1_555
C7 C2 1_555 1_555
C8 C7 1_555 1_555
C9 C8 1_555 1_555
H5 C9 1_555 1_555
C10 C9 1_555 1_555
H6 C10 1_555 1_555
C11 C6 1_555 1_555
H7 C11 1_555 1_555
C12 C5 1_555 1_555
C13 C12 1_555 1_555
C14 C13 1_555 1_555
C15 C14 1_555 1_555
H8 C15 1_555 1_555
C16 C15 1_555 1_555
H9 C16 1_555 1_555
C17 C12 1_555 1_555
H10 C17 1_555 1_555
C18 N1 1_555 1_555
H11 C18 1_555 1_555
C19 C18 1_555 1_555
H12 C19 1_555 1_555
C20 N1 1_555 1_555
H13 C20 1_555 1_555
C21 N2 1_555 1_555
H14 C21 1_555 1_555
H15 C21 1_555 1_555
C22 C21 1_555 1_555
C23 C22 1_555 1_555
H16 C23 1_555 1_555
C24 C22 1_555 1_555
H17 C24 1_555 1_555
C25 N3 1_555 1_555
H18 C25 1_555 1_555
C26 N3 1_555 1_555
H19 C26 1_555 1_555
C27 N4 1_555 1_555
H20 C27 1_555 1_555
C28 N4 1_555 1_555
H21 C28 1_555 1_555
H22 C28 1_555 1_555
C29 H23 1_555 1_555
C30 C28 1_555 1_555
C31 C30 1_555 1_555
H24 C31 1_555 1_555
O12 H25 1_555 1_555
H26 O12 1_555 1_555
O13 H27 1_555 1_555
Cd1_2 O2_2 1_555 1_555
Cd1_3 O7 1_555 1_555
Cd1A O8 1_555 1_555
Cd1A_2 N1A 1_555 1_555
Cd1A_3 N3A 1_555 1_555
Cd1A_4 O8_2 1_555 1_555
Cd2_2 O1_2 1_555 1_555
Cd2A O4 1_555 1_555
Cd2_3 O5 1_555 1_555
Cd2A_2 O4_2 1_555 1_555
O1_2 C1_2 1_555 1_555
O2_2 Cd2_2 1_555 1_555
O3_2 Cd1_2 1_555 1_555
O4_2 C2_2 1_555 1_555
O4A Cd2 1_555 1_555
O4A_2 Cd2_2 1_555 1_555
O5_2 Cd2 1_555 1_555
O5_3 Cd2_2 1_555 1_555
O6_2 Cd2 1_555 1_555
O6_3 Cd2_2 1_555 1_555
O7_2 Cd1 1_555 1_555
O7_3 Cd1_2 1_555 1_555
O8_2 C4_2 1_555 1_555
O8A Cd1 1_555 1_555
O8A_2 Cd1_2 1_555 1_555
O9_2 C5_2 1_555 1_555
N1A C18A 1_555 1_555
N1_2 Cd1_2 1_555 1_555
N2A C19A 1_555 1_555
N3A C25A 1_555 1_555
N3_2 Cd1_2 1_555 1_555
N4A C26A 1_555 1_555
O10_2 Cd2_2 1_555 1_555
H1_2 O10_2 1_555 1_555
H2_2 O10_2 1_555 1_555
C1_2 O2_2 1_555 1_555
C2_2 O3_2 1_555 1_555
C3_2 O5_2 1_555 1_555
C4_2 O7_2 1_555 1_555
C5_2 C8_2 1_555 1_555
C6_2 C1_2 1_555 1_555
C7_2 C2_2 1_555 1_555
C8_2 C7_2 1_555 1_555
C9_2 C8_2 1_555 1_555
H5_2 C9_2 1_555 1_555
C10_2 C9_2 1_555 1_555
H6_2 C10_2 1_555 1_555
C11_2 C6_2 1_555 1_555
H7_2 C11_2 1_555 1_555
C12_2 C5_2 1_555 1_555
C13_2 C3_2 1_555 1_555
C14_2 C4_2 1_555 1_555
C15_2 C14_2 1_555 1_555
H8_2 C15_2 1_555 1_555
C16_2 C15_2 1_555 1_555
H9_2 C16_2 1_555 1_555
C17_2 C12_2 1_555 1_555
H10_2 C17_2 1_555 1_555
C18A H11A 1_555 1_555
C19A C18A 1_555 1_555
H12A C19A 1_555 1_555
C20A N1A 1_555 1_555
H13A C20A 1_555 1_555
C21A N2A 1_555 1_555
H14A C21A 1_555 1_555
H15A C21A 1_555 1_555
C22A C21A 1_555 1_555
C23A C24 1_555 1_555
H16A C23A 1_555 1_555
C24A C23 1_555 1_555
H17A C24A 1_555 1_555
C25A H18A 1_555 1_555
C26A N3A 1_555 1_555
H19A C26A 1_555 1_555
C27A N4A 1_555 1_555
H20A C27A 1_555 1_555
C28A N4A 1_555 1_555
H21A C28A 1_555 1_555
H22A C28A 1_555 1_555
C29A C31 1_555 1_555
H23A C29A 1_555 1_555
C30A C28A 1_555 1_555
C31A C29 1_555 1_555
H24A C31A 1_555 1_555
H27A O13 1_555 1_555
O6 Cd2_3 1_555 1_555
N2 C20 1_555 1_555
C6 C7 1_555 1_555
C10 C11 1_555 1_555
C16 C17 1_555 1_555
C25 C27 1_555 1_555
C29 C30 1_555 1_555
O6_2 C3_2 1_555 1_555
N2A C20A 1_555 1_555
C6_2 C7_2 1_555 1_555
C10_2 C11_2 1_555 1_555
C12_2 C13_2 1_555 1_555
C13_2 C14_2 1_555 1_555
C16_2 C17_2 1_555 1_555
C22A C23A 1_555 1_555
C22A C24A 1_555 1_555
C25A C27A 1_555 1_555
C29A C30A 1_555 1_555
C30A C31A 1_555 1_555

#END
