
#######################################################################
#
#                 Cambridge Crystallographic Data Centre
#                                CCDC 
#
#######################################################################
#
# If this CIF has been generated from an entry in the Cambridge 
# Structural Database, then it will include bibliographic, chemical, 
# crystal, experimental, refinement or atomic coordinate data resulting 
# from the CCDC's data processing and validation procedures.
#
#######################################################################

data_LABRUD01
_symmetry_cell_setting           monoclinic
_symmetry_space_group_name_H-M   'C 2/c'
_symmetry_Int_Tables_number      15
_space_group_name_Hall           '-C 2yn'
loop_
_symmetry_equiv_pos_site_id
_symmetry_equiv_pos_as_xyz
1 x,y,z
2 -x,y,1/2-z
3 1/2+x,1/2+y,z
4 1/2-x,1/2+y,1/2-z
5 -x,-y,-z
6 x,-y,1/2+z
7 1/2-x,1/2-y,-z
8 1/2+x,1/2-y,1/2+z
_cell_length_a                   32.113(5)
_cell_length_b                   5.7559(3)
_cell_length_c                   24.284(7)
_cell_angle_alpha                90
_cell_angle_beta                 118.19(3)
_cell_angle_gamma                90
_cell_volume                     3956.22
loop_
_atom_site_label
_atom_site_type_symbol
_atom_site_fract_x
_atom_site_fract_y
_atom_site_fract_z
Cu1 Cu 0.2500 0.7500 0.5000
Cu2 Cu -0.025130(17) 0.07427(10) 0.57084(3)
C1 C 0.10156(13) 0.2833(8) 0.5749(2)
C2 C 0.17988(15) 0.1883(9) 0.6521(3)
O1 O 0.03379(9) 0.2268(6) 0.58694(17)
O2 O 0.22939(9) 0.5534(6) 0.54642(16)
O3 O -0.08295(10) -0.0354(7) 0.57597(19)
H1 H -0.1067 -0.0001 0.5438
O4 O 0.02574(9) 0.2153(5) 0.48949(16)
O5 O 0.08085(11) 0.4945(6) 0.4360(2)
O6 O 0.16826(10) 0.7921(6) 0.5126(2)
O7 O 0.06585(9) 0.7305(6) 0.49855(17)
O8 O 0.19621(13) -0.0002(7) 0.7440(2)
O9 O 0.25083(11) 0.0120(7) 0.7166(2)
N1 N 0.21115(14) 0.0573(8) 0.7081(2)
C3 C 0.11963(13) 0.4305(9) 0.5465(2)
N2 N 0.01784(12) 0.1045(8) 0.1479(2)
C4 C 0.18876(17) 0.3681(10) 0.4212(3)
H2 H 0.2004 0.2875 0.4587
C5 C 0.19867(15) 0.3253(8) 0.6229(2)
H3 H 0.2312 0.3314 0.6380
C6 C 0.18918(16) 0.6166(9) 0.5412(3)
C7 C 0.13162(14) 0.1661(8) 0.6293(3)
H4 H 0.1195 0.0744 0.6500
C8 C 0.08611(14) 0.5606(9) 0.4872(3)
N3 N 0.20699(12) 0.5798(8) 0.4203(2)
C9 C 0.16899(14) 0.4538(8) 0.5708(3)
C10 C 0.04829(14) 0.2387(8) 0.5464(2)
C11 C 0.19184(18) 0.6724(11) 0.3646(3)
H5 H 0.2061 0.8098 0.3622
C12 C 0.09453(16) 0.2821(9) 0.2535(3)
C13 C 0.15340(17) 0.2691(10) 0.3678(3)
H6 H 0.1416 0.1242 0.3704
C14 C 0.13496(16) 0.3799(10) 0.3105(3)
C15 C 0.15676(18) 0.5837(12) 0.3099(3)
H7 H 0.1478 0.6618 0.2724
C16 C 0.04396(19) 0.2749(10) 0.1446(3)
H8 H 0.0363 0.3359 0.1055
C17 C 0.0822(2) 0.3675(11) 0.1963(3)
H9 H 0.0994 0.4888 0.1915
C18 C 0.0303(2) 0.0210(13) 0.2038(3)
H10 H 0.0130 -0.1020 0.2073
C19 C 0.0678(2) 0.1056(14) 0.2576(3)
H11 H 0.0748 0.0427 0.2963
H12 H -0.0815(18) -0.176(10) 0.571(3)
Cu2F Cu 0.525130(17) 1.42573(10) 0.42916(3)
Cu2D Cu 0.025130(17) -0.07427(10) 0.42916(3)
Cu2D_2 Cu 0.025130(17) 0.92573(10) 0.42916(3)
Cu2E Cu -0.025130(17) -0.07427(10) 0.07084(3)
Cu2B Cu 0.474870(17) 1.57427(10) 0.57084(3)
Cu2B_2 Cu 0.474870(17) 0.57427(10) 0.57084(3)
Cu2C Cu 0.525130(17) 1.57427(10) 0.92916(3)
C1F C 0.39844(13) 1.2167(8) 0.4251(2)
C2F C 0.32012(15) 1.3117(9) 0.3479(3)
O1F O 0.46621(9) 1.2732(6) 0.41306(17)
O2F O 0.27061(9) 0.9466(6) 0.45358(16)
O3F O 0.58295(10) 1.5354(7) 0.42403(19)
H1F H 0.6067 1.5001 0.4562
O4F O 0.47426(9) 1.2847(5) 0.51051(16)
O4D O -0.02574(9) -0.2153(5) 0.51051(16)
O4B O 0.52574(9) 1.7153(5) 0.48949(16)
O5F O 0.41915(11) 1.0055(6) 0.5640(2)
O6F O 0.33174(10) 0.7079(6) 0.4874(2)
O7F O 0.43415(9) 0.7695(6) 0.50145(17)
O7D O -0.06585(9) 0.2695(6) 0.50145(17)
O7B O 0.56585(9) 1.2305(6) 0.49855(17)
O8F O 0.30379(13) 1.5002(7) 0.2560(2)
O9F O 0.24917(11) 1.4880(7) 0.2834(2)
N1F N 0.28885(14) 1.4427(8) 0.2919(2)
C3F C 0.38037(13) 1.0695(9) 0.4535(2)
N2F N 0.48216(12) 1.3955(8) 0.8521(2)
N2E N 0.01784(12) -0.1045(8) 0.6479(2)
N2C N 0.48216(12) 1.6045(8) 0.3521(2)
C4F C 0.31124(17) 1.1319(10) 0.5788(3)
H2F H 0.2996 1.2125 0.5413
C5F C 0.30133(15) 1.1747(8) 0.3771(2)
H3F H 0.2688 1.1686 0.3620
C6F C 0.31082(16) 0.8834(9) 0.4588(3)
C7F C 0.36838(14) 1.3339(8) 0.3707(3)
H4F H 0.3805 1.4256 0.3500
C8F C 0.41389(14) 0.9394(9) 0.5128(3)
N3F N 0.29301(12) 0.9202(8) 0.5797(2)
C9F C 0.33101(14) 1.0462(8) 0.4292(3)
C10F C 0.45171(14) 1.2613(8) 0.4536(2)
C11F C 0.30816(18) 0.8276(11) 0.6354(3)
H5F H 0.2939 0.6902 0.6378
C12F C 0.40547(16) 1.2179(9) 0.7465(3)
C13F C 0.34660(17) 1.2309(10) 0.6322(3)
H6F H 0.3584 1.3758 0.6296
C14F C 0.36504(16) 1.1201(10) 0.6895(3)
C15F C 0.34324(18) 0.9163(12) 0.6901(3)
H7F H 0.3522 0.8382 0.7276
C16F C 0.45604(19) 1.2251(10) 0.8554(3)
H8F H 0.4637 1.1641 0.8945
C17F C 0.4178(2) 1.1325(11) 0.8037(3)
H9F H 0.4006 1.0112 0.8085
C18F C 0.4697(2) 1.4790(13) 0.7962(3)
H10F H 0.4870 1.6020 0.7927
C19F C 0.4322(2) 1.3944(14) 0.7424(3)
H11F H 0.4252 1.4573 0.7037
H12F H 0.5815(18) 1.676(10) 0.429(3)
O10 O 0.0411(2) 0.6063(12) 0.3125(3)
loop_
_geom_bond_atom_site_label_1
_geom_bond_atom_site_label_2
_geom_bond_site_symmetry_1
_geom_bond_site_symmetry_2
Cu1 O2 1_555 1_555
Cu2 O1 1_555 1_555
C1 C3 1_555 1_555
C2 N1 1_555 1_555
O1 C10 1_555 1_555
O2 C6 1_555 1_555
O3 Cu2 1_555 1_555
H1 O3 1_555 1_555
O4 C10 1_555 1_555
O5 C8 1_555 1_555
O6 C6 1_555 1_555
O7 C8 1_555 1_555
O8 N1 1_555 1_555
O9 N1 1_555 1_555
C3 C8 1_555 1_555
N2 C16 1_555 1_555
C4 H2 1_555 1_555
C5 C2 1_555 1_555
H3 C5 1_555 1_555
C6 C9 1_555 1_555
C7 C1 1_555 1_555
H4 C7 1_555 1_555
N3 Cu1 1_555 1_555
C9 C3 1_555 1_555
C10 C1 1_555 1_555
C11 N3 1_555 1_555
H5 C11 1_555 1_555
C12 C14 1_555 1_555
C13 C4 1_555 1_555
H6 C13 1_555 1_555
C14 C13 1_555 1_555
C15 C11 1_555 1_555
H7 C15 1_555 1_555
C16 H8 1_555 1_555
C17 C12 1_555 1_555
H9 C17 1_555 1_555
C18 N2 1_555 1_555
H10 C18 1_555 1_555
C19 C12 1_555 1_555
H11 C19 1_555 1_555
H12 O3 1_555 1_555
Cu2F O1F 1_555 1_555
Cu2D O4 1_555 1_555
Cu2D_2 O7 1_555 1_555
Cu2E N2 1_555 1_555
Cu2B O4F 1_555 1_555
Cu2B_2 O7F 1_555 1_555
Cu2C N2F 1_555 1_555
C1F C3F 1_555 1_555
C2F N1F 1_555 1_555
O1F C10F 1_555 1_555
O2F Cu1 1_555 1_555
O3F Cu2F 1_555 1_555
H1F O3F 1_555 1_555
O4F C10F 1_555 1_555
O4D Cu2 1_555 1_555
O4B Cu2F 1_555 1_555
O5F C8F 1_555 1_555
O6F C6F 1_555 1_555
O7F C8F 1_555 1_555
O7D Cu2 1_555 1_555
O7B Cu2F 1_555 1_555
O8F N1F 1_555 1_555
O9F N1F 1_555 1_555
C3F C8F 1_555 1_555
N2F C16F 1_555 1_555
N2E Cu2 1_555 1_555
N2C Cu2F 1_555 1_555
C4F H2F 1_555 1_555
C5F C2F 1_555 1_555
H3F C5F 1_555 1_555
C6F O2F 1_555 1_555
C7F C1F 1_555 1_555
H4F C7F 1_555 1_555
N3F Cu1 1_555 1_555
C9F C3F 1_555 1_555
C10F C1F 1_555 1_555
C11F N3F 1_555 1_555
H5F C11F 1_555 1_555
C12F C14F 1_555 1_555
C13F C4F 1_555 1_555
H6F C13F 1_555 1_555
C14F C13F 1_555 1_555
C15F C11F 1_555 1_555
H7F C15F 1_555 1_555
C16F H8F 1_555 1_555
C17F C12F 1_555 1_555
H9F C17F 1_555 1_555
C18F N2F 1_555 1_555
H10F C18F 1_555 1_555
C19F C12F 1_555 1_555
H11F C19F 1_555 1_555
H12F O3F 1_555 1_555
C2 C7 1_555 1_555
C4 N3 1_555 1_555
C5 C9 1_555 1_555
C14 C15 1_555 1_555
C16 C17 1_555 1_555
C18 C19 1_555 1_555
C2F C7F 1_555 1_555
C4F N3F 1_555 1_555
C5F C9F 1_555 1_555
C6F C9F 1_555 1_555
C14F C15F 1_555 1_555
C16F C17F 1_555 1_555
C18F C19F 1_555 1_555

#END
