
#######################################################################
#
#                 Cambridge Crystallographic Data Centre
#                                CCDC 
#
#######################################################################
#
# If this CIF has been generated from an entry in the Cambridge 
# Structural Database, then it will include bibliographic, chemical, 
# crystal, experimental, refinement or atomic coordinate data resulting 
# from the CCDC's data processing and validation procedures.
#
#######################################################################

data_LABSOY
_symmetry_cell_setting           monoclinic
_symmetry_space_group_name_H-M   'C 2/c'
_symmetry_Int_Tables_number      15
_space_group_name_Hall           '-C 2yn'
loop_
_symmetry_equiv_pos_site_id
_symmetry_equiv_pos_as_xyz
1 x,y,z
2 -x,y,1/2-z
3 1/2+x,1/2+y,z
4 1/2-x,1/2+y,1/2-z
5 -x,-y,-z
6 x,-y,1/2+z
7 1/2-x,1/2-y,-z
8 1/2+x,1/2-y,1/2+z
_cell_length_a                   10.345(2)
_cell_length_b                   22.698(4)
_cell_length_c                   16.105(3)
_cell_angle_alpha                90
_cell_angle_beta                 94.177(2)
_cell_angle_gamma                90
_cell_volume                     3771.58
loop_
_atom_site_label
_atom_site_type_symbol
_atom_site_fract_x
_atom_site_fract_y
_atom_site_fract_z
Ni1 Ni 0.5000 0.25460(2) 0.2500
Ni2 Ni 0.0000 0.25387(2) 0.2500
O1 O 0.6280(2) 0.25632(9) 0.15630(14)
H1 H 0.6042 0.2490 0.1069
H2 H 0.7080 0.2605 0.1622
O2 O 0.3636(2) 0.24544(9) 0.14707(14)
O3 O 0.17447(19) 0.26166(10) 0.19893(14)
O4 O -0.0951(2) 0.25495(9) 0.13556(13)
O5 O -0.0482(2) 0.28355(9) 0.00940(12)
O6 O -0.2181(2) 0.17827(12) 0.01733(18)
H3 H -0.2923 0.1762 -0.0041
O7 O -0.1869(3) 0.10072(14) -0.0620(2)
O8 O 0.4106(3) 0.06291(16) 0.0009(2)
O9 O 0.2490(3) 0.02095(15) -0.0667(2)
N1 N 0.5000 0.66052(15) 0.2500
N2 N 0.5000 0.34617(16) 0.2500
N3 N 0.5000 0.16109(15) 0.2500
N4 N 0.5000 -0.15170(16) 0.2500
N5 N 0.2952(3) 0.05994(15) -0.0217(2)
C1 C 0.2427(3) 0.23847(13) 0.14696(18)
C2 C 0.1810(3) 0.19568(13) 0.08278(18)
C3 C 0.0471(3) 0.19504(13) 0.05655(17)
C4 C -0.0033(3) 0.14688(14) 0.00912(18)
C5 C 0.0773(3) 0.10241(15) -0.0155(2)
H4 H 0.0438 0.0703 -0.0459
C6 C 0.2090(3) 0.10682(15) 0.0061(2)
C7 C 0.2611(3) 0.15222(15) 0.0541(2)
H5 H 0.3501 0.1539 0.0673
C8 C -0.0390(3) 0.24873(12) 0.06919(18)
C9 C -0.1461(3) 0.13906(14) -0.0162(2)
C10 C 0.6019(3) 0.62928(14) 0.2827(2)
H6 H 0.6740 0.6497 0.3054
C11 C 0.6047(3) 0.56848(14) 0.2844(2)
H7 H 0.6770 0.5491 0.3087
C12 C 0.5000 0.53609(19) 0.2500
C13 C 0.5000 0.4707(2) 0.2500
C14 C 0.6147(3) 0.43789(14) 0.2522(2)
H8 H 0.6941 0.4572 0.2533
C15 C 0.6109(3) 0.37712(14) 0.2529(2)
H9 H 0.6889 0.3566 0.2554
C16 C 0.5393(3) 0.12993(14) 0.18553(19)
H10 H 0.5675 0.1505 0.1403
C17 C 0.5404(3) 0.06915(14) 0.1825(2)
H11 H 0.5677 0.0497 0.1360
C18 C 0.5000 0.03732(19) 0.2500
C19 C 0.5000 -0.02811(19) 0.2500
C20 C 0.4701(4) -0.05999(15) 0.1777(2)
H12 H 0.4492 -0.0406 0.1277
C21 C 0.4717(4) -0.12061(15) 0.1805(2)
H13 H 0.4520 -0.1411 0.1312
Ni1_2 Ni -0.5000 0.25460(2) 0.2500
Ni2B Ni 0.5000 -0.24613(2) 0.2500
Ni2B_2 Ni 0.5000 0.75387(2) 0.2500
O1A O 0.3720(2) 0.25632(9) 0.34370(14)
H1A H 0.3958 0.2490 0.3931
H2A H 0.2920 0.2605 0.3378
O2A O -0.3636(2) 0.24544(9) 0.35293(14)
O2A_2 O 0.6364(2) 0.24544(9) 0.35293(14)
O3A O -0.17447(19) 0.26166(10) 0.30107(14)
O4A O 0.0951(2) 0.25495(9) 0.36444(13)
O5A O 0.0482(2) 0.28355(9) 0.49060(12)
O6A O 0.2181(2) 0.17827(12) 0.48267(18)
H3A H 0.2923 0.1762 0.5041
O7A O 0.1869(3) 0.10072(14) 0.5620(2)
O8A O -0.4106(3) 0.06291(16) 0.4991(2)
O9A O -0.2490(3) 0.02095(15) 0.5667(2)
N1B N 0.0000 0.16052(15) 0.2500
N4B N 0.0000 0.34830(16) 0.2500
N5A N -0.2952(3) 0.05994(15) 0.5217(2)
C1A C -0.2427(3) 0.23847(13) 0.35304(18)
C2A C -0.1810(3) 0.19568(13) 0.41722(18)
C3A C -0.0471(3) 0.19504(13) 0.44345(17)
C4A C 0.0033(3) 0.14688(14) 0.49088(18)
C5A C -0.0773(3) 0.10241(15) 0.5155(2)
H4A H -0.0438 0.0703 0.5459
C6A C -0.2090(3) 0.10682(15) 0.4939(2)
C7A C -0.2611(3) 0.15222(15) 0.4459(2)
H5A H -0.3501 0.1539 0.4327
C8A C 0.0390(3) 0.24873(12) 0.43081(18)
C9A C 0.1461(3) 0.13906(14) 0.5162(2)
C10A C 0.3981(3) 0.62928(14) 0.2173(2)
H6A H 0.3260 0.6497 0.1946
C11A C 0.3953(3) 0.56848(14) 0.2156(2)
H7A H 0.3230 0.5491 0.1913
C14A C 0.3853(3) 0.43789(14) 0.2478(2)
H8A H 0.3059 0.4572 0.2467
C15A C 0.3891(3) 0.37712(14) 0.2471(2)
H9A H 0.3111 0.3566 0.2446
C16A C 0.4607(3) 0.12993(14) 0.31447(19)
H10A H 0.4325 0.1505 0.3597
C17A C 0.4596(3) 0.06915(14) 0.3175(2)
H11A H 0.4323 0.0497 0.3640
C20A C 0.5299(4) -0.05999(15) 0.3223(2)
H12A H 0.5508 -0.0406 0.3723
C21A C 0.5283(4) -0.12061(15) 0.3195(2)
H13A H 0.5480 -0.1411 0.3688
loop_
_geom_bond_atom_site_label_1
_geom_bond_atom_site_label_2
_geom_bond_site_symmetry_1
_geom_bond_site_symmetry_2
Ni1 O1 1_555 1_555
Ni2 O3 1_555 1_555
O1 H1 1_555 1_555
H2 O1 1_555 1_555
O2 Ni1 1_555 1_555
O3 C1 1_555 1_555
O4 Ni2 1_555 1_555
O5 C8 1_555 1_555
O6 H3 1_555 1_555
O7 C9 1_555 1_555
O8 N5 1_555 1_555
O9 N5 1_555 1_555
N1 C10 1_555 1_555
N2 Ni1 1_555 1_555
N3 Ni1 1_555 1_555
N4 C21 1_555 1_555
N5 C6 1_555 1_555
C1 O2 1_555 1_555
C2 C1 1_555 1_555
C3 C2 1_555 1_555
C4 C3 1_555 1_555
C5 C4 1_555 1_555
H4 C5 1_555 1_555
C6 C5 1_555 1_555
C7 C2 1_555 1_555
H5 C7 1_555 1_555
C8 O4 1_555 1_555
C9 O6 1_555 1_555
C10 H6 1_555 1_555
C11 C10 1_555 1_555
H7 C11 1_555 1_555
C12 C11 1_555 1_555
C13 C12 1_555 1_555
C14 C13 1_555 1_555
H8 C14 1_555 1_555
C15 N2 1_555 1_555
H9 C15 1_555 1_555
C16 N3 1_555 1_555
H10 C16 1_555 1_555
C17 C16 1_555 1_555
H11 C17 1_555 1_555
C18 C17 1_555 1_555
C19 C18 1_555 1_555
C20 C19 1_555 1_555
H12 C20 1_555 1_555
C21 C20 1_555 1_555
H13 C21 1_555 1_555
Ni1_2 O2A 1_555 1_555
Ni2B N4 1_555 1_555
Ni2B_2 N1 1_555 1_555
O1A Ni1 1_555 1_555
H1A O1A 1_555 1_555
H2A O1A 1_555 1_555
O2A C1A 1_555 1_555
O2A_2 Ni1 1_555 1_555
O3A Ni2 1_555 1_555
O4A Ni2 1_555 1_555
O5A C8A 1_555 1_555
O6A H3A 1_555 1_555
O7A C9A 1_555 1_555
O8A N5A 1_555 1_555
O9A N5A 1_555 1_555
N1B Ni2 1_555 1_555
N4B Ni2 1_555 1_555
N5A C6A 1_555 1_555
C1A O3A 1_555 1_555
C2A C1A 1_555 1_555
C3A C2A 1_555 1_555
C4A C3A 1_555 1_555
C5A C4A 1_555 1_555
H4A C5A 1_555 1_555
C6A C5A 1_555 1_555
C7A C2A 1_555 1_555
H5A C7A 1_555 1_555
C8A O4A 1_555 1_555
C9A O6A 1_555 1_555
C10A N1 1_555 1_555
H6A C10A 1_555 1_555
C11A C12 1_555 1_555
H7A C11A 1_555 1_555
C14A C13 1_555 1_555
H8A C14A 1_555 1_555
C15A N2 1_555 1_555
H9A C15A 1_555 1_555
C16A N3 1_555 1_555
H10A C16A 1_555 1_555
C17A C18 1_555 1_555
H11A C17A 1_555 1_555
C20A C19 1_555 1_555
H12A C20A 1_555 1_555
C21A N4 1_555 1_555
H13A C21A 1_555 1_555
C3 C8 1_555 1_555
C4 C9 1_555 1_555
C6 C7 1_555 1_555
C14 C15 1_555 1_555
C3A C8A 1_555 1_555
C4A C9A 1_555 1_555
C6A C7A 1_555 1_555
C10A C11A 1_555 1_555
C14A C15A 1_555 1_555
C16A C17A 1_555 1_555
C20A C21A 1_555 1_555

#END
