
#######################################################################
#
#                 Cambridge Crystallographic Data Centre
#                                CCDC 
#
#######################################################################
#
# If this CIF has been generated from an entry in the Cambridge 
# Structural Database, then it will include bibliographic, chemical, 
# crystal, experimental, refinement or atomic coordinate data resulting 
# from the CCDC's data processing and validation procedures.
#
#######################################################################

data_LABSEO
_symmetry_cell_setting           monoclinic
_symmetry_space_group_name_H-M   'P 2/c'
_symmetry_Int_Tables_number      13
_space_group_name_Hall           '-P 2yc'
loop_
_symmetry_equiv_pos_site_id
_symmetry_equiv_pos_as_xyz
1 x,y,z
2 -x,y,1/2-z
3 -x,-y,-z
4 x,-y,1/2+z
_cell_length_a                   13.1240(11)
_cell_length_b                   11.4567(9)
_cell_length_c                   16.0054(13)
_cell_angle_alpha                90
_cell_angle_beta                 90.6260(10)
_cell_angle_gamma                90
_cell_volume                     2406.39
loop_
_atom_site_label
_atom_site_type_symbol
_atom_site_fract_x
_atom_site_fract_y
_atom_site_fract_z
Co1 Co 0.62218(2) -0.07971(2) 0.149905(16)
Co2 Co 1.0000 0.01346(3) 0.2500
O1 O 0.93151(11) 0.03038(14) 0.13244(9)
O2 O 0.78376(11) -0.06469(13) 0.14121(9)
O3 O 0.62858(11) -0.10589(14) 0.02126(9)
O4 O 0.73633(13) -0.12836(14) -0.08410(10)
O5 O 0.53545(12) 0.08119(15) -0.13269(11)
O6 O 0.66209(12) 0.09505(15) -0.22365(9)
O7 O 0.8812(3) 0.4394(2) 0.0440(2)
O8 O 0.7913(3) 0.4731(2) -0.0629(2)
O10 O 1.14047(11) 0.00347(14) 0.19100(10)
H3 H 1.1833 -0.0326 0.2195
H4 H 1.1685 0.0443 0.1553
N1 N 1.0000 -0.1753(2) 0.2500
N2 N 1.0000 -0.7965(2) 0.2500
N3 N 0.60882(14) 0.10782(17) 0.16118(11)
N4 N 0.62115(14) 0.72906(17) 0.15451(11)
N5 N 0.8245(2) 0.4070(2) -0.01097(16)
C1 C 0.84091(15) 0.01151(18) 0.11014(12)
C2 C 0.79985(15) 0.09195(18) 0.04223(13)
C3 C 0.83218(17) 0.2076(2) 0.04407(14)
H5 H 0.8782 0.2329 0.0847
C4 C 0.79499(18) 0.28389(19) -0.01516(14)
C5 C 0.72974(17) 0.24977(19) -0.07958(13)
H6 H 0.7079 0.3029 -0.1199
C6 C 0.69798(14) 0.13438(17) -0.08210(12)
C7 C 0.73125(14) 0.05531(17) -0.02025(12)
C8 C 0.69663(16) -0.07046(17) -0.02739(12)
C9 C 0.62477(15) 0.09900(16) -0.15190(12)
C10 C 0.9943(2) -0.2358(2) 0.17878(15)
H7 H 0.9907 -0.1949 0.1287
C11 C 0.9935(2) -0.3570(2) 0.17592(16)
H8 H 0.9887 -0.3956 0.1249
C12 C 1.0000 -0.4201(3) 0.2500
C13 C 1.0000 -0.5506(3) 0.2500
C14 C 1.0491(2) -0.6140(2) 0.18815(17)
H9 H 1.0825 -0.5756 0.1452
C15 C 1.04788(19) -0.7350(2) 0.19110(17)
H10 H 1.0823 -0.7757 0.1498
C16 C 0.56026(17) 0.1698(2) 0.10143(14)
H11 H 0.5259 0.1297 0.0591
C17 C 0.55924(19) 0.2905(2) 0.10031(15)
H12 H 0.5247 0.3298 0.0578
C18 C 0.61019(18) 0.3538(2) 0.16303(14)
C19 C 0.6570(2) 0.2888(2) 0.22622(15)
H13 H 0.6900 0.3264 0.2704
C20 C 0.65406(19) 0.1682(2) 0.22292(14)
H14 H 0.6853 0.1267 0.2660
C21 C 0.61410(18) 0.4833(2) 0.16137(15)
C22 C 0.6972(2) 0.5453(2) 0.19207(17)
H15 H 0.7524 0.5058 0.2155
C23 C 0.69808(19) 0.6666(2) 0.18782(16)
H16 H 0.7545 0.7062 0.2090
C24 C 0.5426(2) 0.6689(2) 0.12369(18)
H17 H 0.4895 0.7105 0.0988
C25 C 0.5349(2) 0.5486(2) 0.12619(18)
H18 H 0.4773 0.5115 0.1046
Co1A Co 1.37782(2) -0.07971(2) 0.350095(16)
Co1B Co 0.37782(2) 0.07971(2) -0.149905(16)
Co1C Co 0.62218(2) 0.07971(2) -0.350095(16)
Co1_2 Co 0.62218(2) 0.92029(2) 0.149905(16)
Co1C_2 Co 1.62218(2) 0.07971(2) 0.649905(16)
Co1B_2 Co 1.37782(2) 0.07971(2) 0.850095(16)
Co1A_2 Co 1.37782(2) -1.07971(2) 0.350095(16)
Co2_2 Co 1.0000 -0.98654(3) 0.2500
O1A O 1.06849(11) 0.03038(14) 0.36756(9)
O2A O 1.21624(11) -0.06469(13) 0.35879(9)
O3A O 1.37142(11) -0.10589(14) 0.47874(9)
O4A O 1.26367(13) -0.12836(14) 0.58410(10)
O5A O 1.46455(12) 0.08119(15) 0.63269(11)
O5B O 0.46455(12) -0.08119(15) 0.13269(11)
O5C O 1.53545(12) -0.08119(15) 0.36731(11)
O6A O 1.33791(12) 0.09505(15) 0.72365(9)
O6C O 0.66209(12) -0.09505(15) 0.27635(9)
O6B O 1.33791(12) -0.09505(15) 0.22365(9)
O7A O 1.1188(3) 0.4394(2) 0.4560(2)
O8A O 1.2087(3) 0.4731(2) 0.5629(2)
O10A O 0.85953(11) 0.00347(14) 0.30900(10)
H3A H 0.8167 -0.0326 0.2805
H4A H 0.8315 0.0443 0.3447
N2_2 N 1.0000 0.2035(2) 0.2500
N3A N 1.39118(14) 0.10782(17) 0.33882(11)
N3A_2 N 1.39118(14) -0.89218(17) 0.33882(11)
N4_2 N 0.62115(14) -0.27094(17) 0.15451(11)
N4A N 1.37885(14) -0.27094(17) 0.34549(11)
N5A N 1.1755(2) 0.4070(2) 0.51097(16)
C1A C 1.15909(15) 0.01151(18) 0.38986(12)
C2A C 1.20015(15) 0.09195(18) 0.45777(13)
C3A C 1.16782(17) 0.2076(2) 0.45593(14)
H5A H 1.1218 0.2329 0.4153
C4A C 1.20501(18) 0.28389(19) 0.51516(14)
C5A C 1.27026(17) 0.24977(19) 0.57958(13)
H6A H 1.2921 0.3029 0.6199
C6A C 1.30202(14) 0.13438(17) 0.58210(12)
C7A C 1.26875(14) 0.05531(17) 0.52025(12)
C8A C 1.30337(16) -0.07046(17) 0.52739(12)
C9A C 1.37523(15) 0.09900(16) 0.65190(12)
C10A C 1.0057(2) -0.2358(2) 0.32122(15)
H7A H 1.0093 -0.1949 0.3713
C11A C 1.0065(2) -0.3570(2) 0.32408(16)
H8A H 1.0113 -0.3956 0.3751
C14A C 0.9509(2) -0.6140(2) 0.31185(17)
H9A H 0.9175 -0.5756 0.3548
C15A C 0.95212(19) -0.7350(2) 0.30890(17)
H10A H 0.9177 -0.7757 0.3502
C16A C 1.43974(17) -0.8302(2) 0.39857(14)
H11A H 1.4741 -0.8703 0.4409
C17A C 1.44076(19) -0.7095(2) 0.39969(15)
H12A H 1.4753 -0.6702 0.4422
C18A C 1.38981(18) -0.6462(2) 0.33697(14)
C19A C 1.3430(2) -0.7112(2) 0.27378(15)
H13A H 1.3100 -0.6736 0.2296
C20A C 1.34594(19) -0.8318(2) 0.27708(14)
H14A H 1.3147 -0.8733 0.2340
C21A C 1.38590(18) -0.5167(2) 0.33863(15)
C22A C 1.3028(2) -0.4547(2) 0.30793(17)
H15A H 1.2476 -0.4942 0.2845
C23A C 1.30192(19) -0.3334(2) 0.31218(16)
H16A H 1.2455 -0.2938 0.2910
C24A C 1.4574(2) -0.3311(2) 0.37631(18)
H17A H 1.5105 -0.2895 0.4012
C25A C 1.4651(2) -0.4514(2) 0.37381(18)
H18A H 1.5227 -0.4885 0.3954
O9 O 0.6618(5) 0.6338(6) 0.9421(5)
H1 H 0.6426 0.7036 0.9471
H2 H 0.7055 0.5793 0.9391
loop_
_geom_bond_atom_site_label_1
_geom_bond_atom_site_label_2
_geom_bond_site_symmetry_1
_geom_bond_site_symmetry_2
Co1 O2 1_555 1_555
Co2 O1 1_555 1_555
O1 C1 1_555 1_555
O2 C1 1_555 1_555
O3 Co1 1_555 1_555
O4 C8 1_555 1_555
O5 C9 1_555 1_555
O6 C9 1_555 1_555
O7 N5 1_555 1_555
O8 N5 1_555 1_555
O9 H1 1_555 1_555
H2 O9 1_555 1_555
O10 Co2 1_555 1_555
H3 O10 1_555 1_555
H4 O10 1_555 1_555
N1 Co2 1_555 1_555
N2 C15 1_555 1_555
N3 Co1 1_555 1_555
N4 C23 1_555 1_555
N5 C4 1_555 1_555
C1 C2 1_555 1_555
C2 C3 1_555 1_555
C3 H5 1_555 1_555
C4 C3 1_555 1_555
C5 C4 1_555 1_555
H6 C5 1_555 1_555
C6 C5 1_555 1_555
C7 C2 1_555 1_555
C8 O3 1_555 1_555
C9 C6 1_555 1_555
C10 N1 1_555 1_555
H7 C10 1_555 1_555
C11 C10 1_555 1_555
H8 C11 1_555 1_555
C12 C11 1_555 1_555
C13 C12 1_555 1_555
C14 C13 1_555 1_555
H9 C14 1_555 1_555
C15 C14 1_555 1_555
H10 C15 1_555 1_555
C16 N3 1_555 1_555
H11 C16 1_555 1_555
C17 C16 1_555 1_555
H12 C17 1_555 1_555
C18 C17 1_555 1_555
C19 C18 1_555 1_555
H13 C19 1_555 1_555
C20 N3 1_555 1_555
H14 C20 1_555 1_555
C21 C18 1_555 1_555
C22 C21 1_555 1_555
H15 C22 1_555 1_555
C23 C22 1_555 1_555
H16 C23 1_555 1_555
C24 N4 1_555 1_555
H17 C24 1_555 1_555
C25 C21 1_555 1_555
H18 C25 1_555 1_555
Co1A O2A 1_555 1_555
Co1B O5 1_555 1_555
Co1C O6 1_555 1_555
Co1_2 N4 1_555 1_555
Co1C_2 O5A 1_555 1_555
Co1B_2 O6A 1_555 1_555
Co1A_2 N3A_2 1_555 1_555
Co2_2 N2 1_555 1_555
O1A Co2 1_555 1_555
O2A C1A 1_555 1_555
O3A Co1A 1_555 1_555
O4A C8A 1_555 1_555
O5A C9A 1_555 1_555
O5B Co1 1_555 1_555
O5C Co1A 1_555 1_555
O6A C9A 1_555 1_555
O6C Co1 1_555 1_555
O6B Co1A 1_555 1_555
O7A N5A 1_555 1_555
O8A N5A 1_555 1_555
O10A Co2 1_555 1_555
H3A O10A 1_555 1_555
H4A O10A 1_555 1_555
N2_2 Co2 1_555 1_555
N3A Co1A 1_555 1_555
N3A_2 C16A 1_555 1_555
N4_2 Co1 1_555 1_555
N4A Co1A 1_555 1_555
N5A C4A 1_555 1_555
C1A O1A 1_555 1_555
C2A C1A 1_555 1_555
C3A C2A 1_555 1_555
H5A C3A 1_555 1_555
C4A C3A 1_555 1_555
C5A C4A 1_555 1_555
H6A C5A 1_555 1_555
C6A C5A 1_555 1_555
C7A C2A 1_555 1_555
C8A O3A 1_555 1_555
C9A C6A 1_555 1_555
C10A N1 1_555 1_555
H7A C10A 1_555 1_555
C11A C12 1_555 1_555
H8A C11A 1_555 1_555
C14A C13 1_555 1_555
H9A C14A 1_555 1_555
C15A N2 1_555 1_555
H10A C15A 1_555 1_555
C16A H11A 1_555 1_555
C17A C16A 1_555 1_555
H12A C17A 1_555 1_555
C18A C17A 1_555 1_555
C19A C18A 1_555 1_555
H13A C19A 1_555 1_555
C20A N3A_2 1_555 1_555
H14A C20A 1_555 1_555
C21A C18A 1_555 1_555
C22A C21A 1_555 1_555
H15A C22A 1_555 1_555
C23A N4A 1_555 1_555
H16A C23A 1_555 1_555
C24A N4A 1_555 1_555
H17A C24A 1_555 1_555
C25A C21A 1_555 1_555
H18A C25A 1_555 1_555
C6 C7 1_555 1_555
C7 C8 1_555 1_555
C19 C20 1_555 1_555
C24 C25 1_555 1_555
C6A C7A 1_555 1_555
C7A C8A 1_555 1_555
C10A C11A 1_555 1_555
C14A C15A 1_555 1_555
C19A C20A 1_555 1_555
C22A C23A 1_555 1_555
C24A C25A 1_555 1_555

#END
