
#######################################################################
#
#                 Cambridge Crystallographic Data Centre
#                                CCDC 
#
#######################################################################
#
# If this CIF has been generated from an entry in the Cambridge 
# Structural Database, then it will include bibliographic, chemical, 
# crystal, experimental, refinement or atomic coordinate data resulting 
# from the CCDC's data processing and validation procedures.
#
#######################################################################

data_LABSAK
_symmetry_cell_setting           triclinic
_symmetry_space_group_name_H-M   'P -1'
_symmetry_Int_Tables_number      2
_space_group_name_Hall           '-P 1'
loop_
_symmetry_equiv_pos_site_id
_symmetry_equiv_pos_as_xyz
1 x,y,z
2 -x,-y,-z
_cell_length_a                   5.7813(9)
_cell_length_b                   13.309(2)
_cell_length_c                   16.417(2)
_cell_angle_alpha                107.004(2)
_cell_angle_beta                 99.633(2)
_cell_angle_gamma                98.489(2)
_cell_volume                     1164.76
loop_
_atom_site_label
_atom_site_type_symbol
_atom_site_fract_x
_atom_site_fract_y
_atom_site_fract_z
Cu1 Cu 0.5000 0.5000 0.5000
Cu2 Cu 0.05172(6) 0.37504(3) 1.06555(2)
O1 O 0.1279(4) 0.34854(16) 0.95144(13)
O2 O 0.2007(4) 0.51635(16) 0.94543(13)
O3 O 0.6789(4) 0.50641(17) 0.87235(13)
O4 O 0.4530(4) 0.60940(17) 0.82505(15)
O5 O 0.6510(4) 0.4850(2) 0.67406(15)
O6 O 0.3439(4) 0.41467(18) 0.55917(13)
O7 O -0.1661(8) 0.0847(3) 0.5559(2)
O8 O -0.3268(7) 0.0938(3) 0.6639(2)
O9 O -0.0025(4) 0.37123(18) 1.18269(14)
H1 H -0.1393 0.3787 1.1860
H2 H 0.0985 0.4172 1.2235
N1 N -0.1859(7) 0.1316(3) 0.6293(2)
N2 N 0.3444(5) 0.6238(2) 0.55642(17)
N3 N 0.7982(5) 1.2410(2) 1.00526(17)
C1 C 0.1596(5) 0.3694(2) 0.81697(19)
C2 C 0.3112(5) 0.4203(2) 0.77597(18)
C3 C 0.2948(6) 0.3761(3) 0.6860(2)
C4 C 0.1290(7) 0.2826(3) 0.6380(2)
H5 H 0.1154 0.2534 0.5781
C5 C -0.0168(7) 0.2330(3) 0.6800(2)
C6 C -0.0046(6) 0.2752(3) 0.7685(2)
H6 H -0.1053 0.2408 0.7952
C7 C 0.1650(5) 0.4175(2) 0.91287(19)
C8 C 0.4940(5) 0.5219(2) 0.82914(18)
C9 C 0.4485(6) 0.4307(3) 0.6384(2)
C10 C 0.4275(7) 0.7243(3) 0.5574(2)
H7 H 0.5565 0.7357 0.5319
C11 C 0.3319(7) 0.8104(3) 0.5941(3)
H8 H 0.3986 0.8784 0.5940
C12 C 0.1352(7) 0.7965(3) 0.6314(2)
C13 C 0.0516(7) 0.6928(3) 0.6312(2)
H9 H -0.0771 0.6793 0.6564
C14 C 0.1583(6) 0.6102(3) 0.5939(2)
H10 H 0.0984 0.5418 0.5947
C15 C 0.0176(7) 0.8883(3) 0.6686(3)
H11 H -0.1095 0.8625 0.6939
H12 H -0.0559 0.9109 0.6212
C16 C 0.1876(8) 0.9858(3) 0.7381(3)
H13 H 0.3153 1.0114 0.7131
H14 H 0.1002 1.0427 0.7544
C17 C 0.2972(8) 0.9638(3) 0.8191(3)
H15 H 0.3802 0.9053 0.8027
H16 H 0.1699 0.9407 0.8454
C18 C 0.5852(7) 1.2472(3) 0.9675(3)
H17 H 0.5432 1.3140 0.9807
C19 C 0.4201(8) 1.1600(3) 0.9092(3)
H18 H 0.2706 1.1693 0.8850
C20 C 0.4721(7) 1.0601(3) 0.8863(2)
C21 C 0.6894(8) 1.0530(3) 0.9276(3)
H19 H 0.7326 0.9865 0.9165
C22 C 0.8469(8) 1.1428(3) 0.9858(3)
H20 H 0.9945 1.1348 1.0128
Cu1_2 Cu -0.5000 0.5000 1.5000
Cu2A Cu -0.05172(6) 0.62496(3) 0.93445(2)
Cu2A_2 Cu 0.94828(6) 0.62496(3) 0.93445(2)
Cu2_2 Cu 1.05172(6) 1.37504(3) 1.06555(2)
Cu2A_3 Cu -0.05172(6) -0.37504(3) -0.06555(2)
Cu2_3 Cu -0.94828(6) 0.37504(3) 1.06555(2)
O1A O -0.1279(4) 0.65146(16) 1.04856(13)
O2A O -0.2007(4) 0.48365(16) 1.05457(13)
O3A O 0.3211(4) 0.49359(17) 1.12765(13)
O3_2 O -0.3211(4) 0.50641(17) 0.87235(13)
O3A_2 O -0.6789(4) 0.49359(17) 1.12765(13)
O4A O -0.4530(4) 0.39060(17) 1.17495(15)
O5A O -0.6510(4) 0.5150(2) 1.32594(15)
O6A O 0.6561(4) 0.58533(18) 0.44083(13)
O6A_2 O -0.3439(4) 0.58533(18) 1.44083(13)
O7A O 0.1661(8) 0.9153(3) 1.4441(2)
O8A O 0.3268(7) 0.9062(3) 1.3361(2)
O9A O 0.0025(4) 0.62877(18) 0.81731(14)
H1A H 0.1393 0.6213 0.8140
H2A H -0.0985 0.5828 0.7765
N1A N 0.1859(7) 0.8684(3) 1.3707(2)
N2A N 0.6556(5) 0.3762(2) 0.44358(17)
N3A N 0.2018(5) -0.2410(2) -0.00526(17)
N3_2 N -0.2018(5) 0.2410(2) 1.00526(17)
N3A_2 N 0.2018(5) 0.7590(2) 0.99474(17)
C1A C -0.1596(5) 0.6306(2) 1.18303(19)
C2A C -0.3112(5) 0.5797(2) 1.22403(18)
C3A C -0.2948(6) 0.6239(3) 1.3140(2)
C4A C -0.1290(7) 0.7174(3) 1.3620(2)
H5A H -0.1154 0.7466 1.4219
C5A C 0.0168(7) 0.7670(3) 1.3200(2)
C6A C 0.0046(6) 0.7248(3) 1.2315(2)
H6A H 0.1053 0.7592 1.2048
C7A C -0.1650(5) 0.5825(2) 1.08713(19)
C8A C -0.4940(5) 0.4781(2) 1.17086(18)
C9A C -0.4485(6) 0.5693(3) 1.3616(2)
C10A C 0.5725(7) 0.2757(3) 0.4426(2)
H7A H 0.4435 0.2643 0.4681
C11A C 0.6681(7) 0.1896(3) 0.4059(3)
H8A H 0.6014 0.1216 0.4060
C12A C 0.8648(7) 0.2035(3) 0.3686(2)
C13A C 0.9484(7) 0.3072(3) 0.3688(2)
H9A H 1.0771 0.3207 0.3436
C14A C 0.8417(6) 0.3898(3) 0.4061(2)
H10A H 0.9016 0.4582 0.4053
C15A C 0.9824(7) 0.1117(3) 0.3314(3)
H11A H 1.1095 0.1375 0.3061
H12A H 1.0559 0.0891 0.3788
C16A C 0.8124(8) 0.0142(3) 0.2619(3)
H13A H 0.6847 -0.0114 0.2869
H14A H 0.8998 -0.0427 0.2456
C17A C 0.7028(8) 0.0362(3) 0.1809(3)
H15A H 0.6198 0.0947 0.1973
H16A H 0.8301 0.0593 0.1546
C18A C 0.4148(7) -0.2472(3) 0.0325(3)
H17A H 0.4568 -0.3140 0.0193
C19A C 0.5799(8) -0.1600(3) 0.0908(3)
H18A H 0.7294 -0.1693 0.1150
C20A C 0.5279(7) -0.0601(3) 0.1137(2)
C21A C 0.3106(8) -0.0530(3) 0.0724(3)
H19A H 0.2674 0.0135 0.0835
C22A C 0.1531(8) -0.1428(3) 0.0142(3)
H20A H 0.0055 -0.1348 -0.0128
O10 O 0.7321(7) 0.7976(3) 0.8197(3)
H3 H 0.6300 0.7482 0.8224
H4 H 0.8536 0.7755 0.8078
loop_
_geom_bond_atom_site_label_1
_geom_bond_atom_site_label_2
_geom_bond_site_symmetry_1
_geom_bond_site_symmetry_2
Cu1 O6 1_555 1_555
Cu2 O1 1_555 1_555
O1 C7 1_555 1_555
O2 C7 1_555 1_555
O3 C8 1_555 1_555
O4 C8 1_555 1_555
O5 C9 1_555 1_555
O6 C9 1_555 1_555
O7 N1 1_555 1_555
O8 N1 1_555 1_555
O9 Cu2 1_555 1_555
H1 O9 1_555 1_555
H2 O9 1_555 1_555
O10 H3 1_555 1_555
H4 O10 1_555 1_555
N1 C5 1_555 1_555
N2 Cu1 1_555 1_555
N3 C18 1_555 1_555
C1 C2 1_555 1_555
C2 C3 1_555 1_555
C3 C4 1_555 1_555
C4 H5 1_555 1_555
C5 C4 1_555 1_555
C6 C1 1_555 1_555
H6 C6 1_555 1_555
C7 C1 1_555 1_555
C8 C2 1_555 1_555
C9 C3 1_555 1_555
C10 N2 1_555 1_555
H7 C10 1_555 1_555
C11 C10 1_555 1_555
H8 C11 1_555 1_555
C12 C11 1_555 1_555
C13 C12 1_555 1_555
H9 C13 1_555 1_555
C14 N2 1_555 1_555
H10 C14 1_555 1_555
C15 C12 1_555 1_555
H11 C15 1_555 1_555
H12 C15 1_555 1_555
C16 C15 1_555 1_555
H13 C16 1_555 1_555
H14 C16 1_555 1_555
C17 C16 1_555 1_555
H15 C17 1_555 1_555
H16 C17 1_555 1_555
C18 H17 1_555 1_555
C19 C18 1_555 1_555
H18 C19 1_555 1_555
C20 C17 1_555 1_555
C21 C20 1_555 1_555
H19 C21 1_555 1_555
C22 N3 1_555 1_555
H20 C22 1_555 1_555
Cu1_2 O6A_2 1_555 1_555
Cu2A O2 1_555 1_555
Cu2A_2 O3 1_555 1_555
Cu2_2 N3 1_555 1_555
Cu2A_3 N3A 1_555 1_555
Cu2_3 O3A_2 1_555 1_555
O1A Cu2A 1_555 1_555
O2A Cu2 1_555 1_555
O3A Cu2 1_555 1_555
O3_2 Cu2A 1_555 1_555
O3A_2 C8A 1_555 1_555
O4A C8A 1_555 1_555
O5A C9A 1_555 1_555
O6A Cu1 1_555 1_555
O6A_2 C9A 1_555 1_555
O7A N1A 1_555 1_555
O8A N1A 1_555 1_555
O9A Cu2A 1_555 1_555
H1A O9A 1_555 1_555
H2A O9A 1_555 1_555
N1A C5A 1_555 1_555
N2A Cu1 1_555 1_555
N3A C18A 1_555 1_555
N3_2 Cu2 1_555 1_555
N3A_2 Cu2A 1_555 1_555
C1A C2A 1_555 1_555
C2A C3A 1_555 1_555
C3A C4A 1_555 1_555
C4A H5A 1_555 1_555
C5A C4A 1_555 1_555
C6A C1A 1_555 1_555
H6A C6A 1_555 1_555
C7A O1A 1_555 1_555
C8A C2A 1_555 1_555
C9A C3A 1_555 1_555
C10A N2A 1_555 1_555
H7A C10A 1_555 1_555
C11A C10A 1_555 1_555
H8A C11A 1_555 1_555
C12A C11A 1_555 1_555
C13A C12A 1_555 1_555
H9A C13A 1_555 1_555
C14A N2A 1_555 1_555
H10A C14A 1_555 1_555
C15A C12A 1_555 1_555
H11A C15A 1_555 1_555
H12A C15A 1_555 1_555
C16A C15A 1_555 1_555
H13A C16A 1_555 1_555
H14A C16A 1_555 1_555
C17A C16A 1_555 1_555
H15A C17A 1_555 1_555
H16A C17A 1_555 1_555
C18A H17A 1_555 1_555
C19A C18A 1_555 1_555
H18A C19A 1_555 1_555
C20A C17A 1_555 1_555
C21A C20A 1_555 1_555
H19A C21A 1_555 1_555
C22A N3A 1_555 1_555
H20A C22A 1_555 1_555
C5 C6 1_555 1_555
C13 C14 1_555 1_555
C19 C20 1_555 1_555
C21 C22 1_555 1_555
O2A C7A 1_555 1_555
C1A C7A 1_555 1_555
C5A C6A 1_555 1_555
C13A C14A 1_555 1_555
C19A C20A 1_555 1_555
C21A C22A 1_555 1_555

#END
