
#######################################################################
#
#                 Cambridge Crystallographic Data Centre
#                                CCDC 
#
#######################################################################
#
# If this CIF has been generated from an entry in the Cambridge 
# Structural Database, then it will include bibliographic, chemical, 
# crystal, experimental, refinement or atomic coordinate data resulting 
# from the CCDC's data processing and validation procedures.
#
#######################################################################

data_LABSEO01
_symmetry_cell_setting           monoclinic
_symmetry_space_group_name_H-M   'P 2/c'
_symmetry_Int_Tables_number      13
_space_group_name_Hall           '-P 2yc'
loop_
_symmetry_equiv_pos_site_id
_symmetry_equiv_pos_as_xyz
1 x,y,z
2 -x,y,1/2-z
3 -x,-y,-z
4 x,-y,1/2+z
_cell_length_a                   13.0717(16)
_cell_length_b                   11.4167(14)
_cell_length_c                   15.9342(19)
_cell_angle_alpha                90
_cell_angle_beta                 90.5190(10)
_cell_angle_gamma                90
_cell_volume                     2377.85
loop_
_atom_site_label
_atom_site_type_symbol
_atom_site_fract_x
_atom_site_fract_y
_atom_site_fract_z
C1 C -0.3458(4) 0.3307(4) -0.2770(3)
H1 H -0.3139 0.3719 -0.2338
C2 C -0.4399(4) 0.3299(4) -0.3979(3)
H2 H -0.4743 0.3700 -0.4405
C3 C -0.4419(4) 0.2096(4) -0.3992(3)
H3 H -0.4775 0.1704 -0.4415
C4 C -0.3437(4) 0.2115(4) -0.2739(3)
H4 H -0.3107 0.1739 -0.2295
C5 C -0.3900(4) 0.1460(4) -0.3364(3)
C6 C -0.3859(4) 0.0157(4) -0.3393(3)
C7 C -0.4641(4) -0.0492(4) -0.3743(3)
H5 H -0.5218 -0.0120 -0.3961
C8 C -0.4565(4) -0.1693(4) -0.3768(4)
H6 H -0.5099 -0.2110 -0.4016
C9 C -0.3033(4) -0.0456(4) -0.3085(3)
H7 H -0.2481 -0.0055 -0.2851
C10 C -0.3020(4) -0.1666(4) -0.3121(3)
H8 H -0.2457 -0.2060 -0.2898
C11 C 0.0481(4) 0.7666(4) 0.1917(3)
H9 H 0.0833 0.7260 0.1504
C12 C 0.0486(4) 0.8874(4) 0.1888(3)
H10 H 0.0820 0.9258 0.1454
C13 C 0.0000 0.9517(5) 0.2500
C14 C 0.0000 1.0803(5) 0.2500
C15 C 0.0061(4) 1.1443(4) 0.3238(3)
H11 H 0.0106 1.1058 0.3751
C16 C 0.0053(4) 1.2663(4) 0.3210(3)
H12 H 0.0086 1.3075 0.3713
C17 C -0.1586(3) 0.5126(3) 0.1097(3)
C18 C -0.2000(3) 0.5932(4) 0.0417(3)
C19 C -0.1687(4) 0.7099(4) 0.0435(3)
H13 H -0.1226 0.7358 0.0842
C20 C -0.2066(4) 0.7859(4) -0.0154(3)
C21 C -0.2717(4) 0.7504(4) -0.0787(3)
H14 H -0.2943 0.8037 -0.1189
C22 C -0.3033(3) 0.6349(3) -0.0823(3)
C23 C -0.2687(3) 0.5557(3) -0.0205(3)
C24 C -0.3033(3) 0.4302(3) -0.0276(3)
C25 C -0.3753(3) 0.5992(3) -0.1523(3)
Co1 Co -0.37742(4) 0.57925(5) -0.35027(4)
Co2 Co 0.0000 0.51496(6) 0.2500
N1 N -0.3914(3) 0.3924(3) -0.3389(2)
N2 N -0.3778(3) -0.2293(3) -0.3462(2)
N3 N 0.0000 0.7050(4) 0.2500
N4 N 0.0000 1.3261(4) 0.2500
N5 N -0.1771(4) 0.9088(4) -0.0099(3)
O1 O -0.1405(2) 0.5049(3) 0.3089(2)
O2 O -0.0678(2) 0.5320(3) 0.1323(2)
O3 O -0.2159(2) 0.4368(2) 0.14055(19)
O4 O -0.2624(3) 0.3715(3) -0.0841(2)
O5 O -0.3717(2) 0.3951(3) 0.02134(19)
O6 O -0.2164(5) 0.9765(4) -0.0615(3)
O7 O -0.1180(4) 0.9402(3) 0.0419(3)
O8 O -0.3381(2) 0.5950(3) -0.2241(2)
O9 O -0.4650(3) 0.5813(3) -0.1333(2)
H17 H -0.188(3) 0.486(5) 0.278(3)
H18 H -0.165(4) 0.541(5) 0.349(2)
C1_2 C -0.3458(4) 1.3307(4) -0.2770(3)
H1_2 H -0.3139 1.3719 -0.2338
C2_2 C -0.4399(4) 1.3299(4) -0.3979(3)
H2_2 H -0.4743 1.3700 -0.4405
C3_2 C -0.4419(4) 1.2096(4) -0.3992(3)
H3_2 H -0.4775 1.1704 -0.4415
C4_2 C -0.3437(4) 1.2115(4) -0.2739(3)
H4_2 H -0.3107 1.1739 -0.2295
C5_2 C -0.3900(4) 1.1460(4) -0.3364(3)
C6_2 C -0.3859(4) 1.0157(4) -0.3393(3)
C7_2 C -0.4641(4) 0.9508(4) -0.3743(3)
H5_2 H -0.5218 0.9880 -0.3961
C8_2 C -0.4565(4) 0.8307(4) -0.3768(4)
H6_2 H -0.5099 0.7890 -0.4016
C9_2 C -0.3033(4) 0.9544(4) -0.3085(3)
H7_2 H -0.2481 0.9945 -0.2851
C10_2 C -0.3020(4) 0.8334(4) -0.3121(3)
H8_2 H -0.2457 0.7940 -0.2898
C11A C -0.0481(4) 0.7666(4) 0.3083(3)
H9A H -0.0833 0.7260 0.3496
C12A C -0.0486(4) 0.8874(4) 0.3112(3)
H10A H -0.0820 0.9258 0.3546
C15A C -0.0061(4) 1.1443(4) 0.1762(3)
H11A H -0.0106 1.1058 0.1249
C16A C -0.0053(4) 1.2663(4) 0.1790(3)
H12A H -0.0086 1.3075 0.1287
C17A C 0.1586(3) 0.5126(3) 0.3903(3)
C18A C 0.2000(3) 0.5932(4) 0.4583(3)
C19A C 0.1687(4) 0.7099(4) 0.4565(3)
H13A H 0.1226 0.7358 0.4158
C20A C 0.2066(4) 0.7859(4) 0.5154(3)
C21A C 0.2717(4) 0.7504(4) 0.5787(3)
H14A H 0.2943 0.8037 0.6189
C22A C 0.3033(3) 0.6349(3) 0.5823(3)
C23A C 0.2687(3) 0.5557(3) 0.5205(3)
C24A C 0.3033(3) 0.4302(3) 0.5276(3)
C25A C 0.3753(3) 0.5992(3) 0.6523(3)
Co1A Co 0.37742(4) 0.57925(5) 0.85027(4)
Co1_2 Co -0.37742(4) -0.42075(5) -0.35027(4)
Co1C Co -0.37742(4) 0.42075(5) 0.14973(4)
Co1A_2 Co -0.62258(4) 0.57925(5) -0.14973(4)
Co1B Co 0.37742(4) 0.42075(5) 0.35027(4)
Co1_3 Co 0.62258(4) 0.57925(5) 0.64973(4)
Co1_4 Co -0.37742(4) 1.57925(5) -0.35027(4)
Co2_2 Co 0.0000 1.51496(6) 0.2500
N1_2 N -0.3914(3) 1.3924(3) -0.3389(2)
N1A N 0.3914(3) 0.3924(3) 0.8389(2)
N2_2 N -0.3778(3) 0.7707(3) -0.3462(2)
N2A N 0.3778(3) 0.7707(3) 0.8462(2)
N4_2 N 0.0000 0.3261(4) 0.2500
N5A N 0.1771(4) 0.9088(4) 0.5099(3)
O1A O 0.1405(2) 0.5049(3) 0.1911(2)
O2A O 0.0678(2) 0.5320(3) 0.3677(2)
O3A O 0.2159(2) 0.4368(2) 0.35945(19)
O3C O -0.2159(2) 0.5632(2) -0.35945(19)
O3B O 0.2159(2) 0.5632(2) 0.85945(19)
O4A O 0.2624(3) 0.3715(3) 0.5841(2)
O5A O 0.3717(2) 0.3951(3) 0.47866(19)
O5C O -0.3717(2) 0.6049(3) -0.47866(19)
O5B O 0.3717(2) 0.6049(3) 0.97866(19)
O6A O 0.2164(5) 0.9765(4) 0.5615(3)
O7A O 0.1180(4) 0.9402(3) 0.4581(3)
O8A O 0.3381(2) 0.5950(3) 0.7241(2)
O9A O 0.4650(3) 0.5813(3) 0.6333(2)
O9A_2 O -0.5350(3) 0.5813(3) -0.3667(2)
O9_2 O 0.5350(3) 0.5813(3) 0.8667(2)
H17A H 0.188(3) 0.486(5) 0.222(3)
H18A H 0.165(4) 0.541(5) 0.151(2)
H15 H 0.308(3) 0.189(9) 0.538(18)
H16 H 0.389(4) 0.12(2) 0.523(5)
O10 O 0.3397(14) 0.1308(12) 0.5536(14)
loop_
_geom_bond_atom_site_label_1
_geom_bond_atom_site_label_2
_geom_bond_site_symmetry_1
_geom_bond_site_symmetry_2
C1 H1 1_555 1_555
C2 H2 1_555 1_555
C3 C2 1_555 1_555
H3 C3 1_555 1_555
C4 C1 1_555 1_555
H4 C4 1_555 1_555
C5 C3 1_555 1_555
C6 C5 1_555 1_555
C7 C6 1_555 1_555
H5 C7 1_555 1_555
C8 C7 1_555 1_555
H6 C8 1_555 1_555
C9 C6 1_555 1_555
H7 C9 1_555 1_555
C10 C9 1_555 1_555
H8 C10 1_555 1_555
C11 H9 1_555 1_555
C12 C11 1_555 1_555
H10 C12 1_555 1_555
C13 C12 1_555 1_555
C14 C13 1_555 1_555
C15 C14 1_555 1_555
H11 C15 1_555 1_555
C16 C15 1_555 1_555
H12 C16 1_555 1_555
C17 C18 1_555 1_555
C18 C19 1_555 1_555
C19 H13 1_555 1_555
C20 C19 1_555 1_555
C21 C20 1_555 1_555
H14 C21 1_555 1_555
C22 C21 1_555 1_555
C23 C18 1_555 1_555
C24 C23 1_555 1_555
C25 C22 1_555 1_555
Co1 N1 1_555 1_555
Co2 N3 1_555 1_555
H15 O10 1_555 1_555
H16 O10 1_555 1_555
N1 C1 1_555 1_555
N2 C8 1_555 1_555
N3 C11 1_555 1_555
N4 C16 1_555 1_555
N5 C20 1_555 1_555
O1 Co2 1_555 1_555
O2 C17 1_555 1_555
O3 C17 1_555 1_555
O4 C24 1_555 1_555
O5 C24 1_555 1_555
O6 N5 1_555 1_555
O7 N5 1_555 1_555
O8 C25 1_555 1_555
O9 C25 1_555 1_555
H17 O1 1_555 1_555
H18 O1 1_555 1_555
C1_2 H1_2 1_555 1_555
C2_2 H2_2 1_555 1_555
C3_2 C2_2 1_555 1_555
H3_2 C3_2 1_555 1_555
C4_2 C1_2 1_555 1_555
H4_2 C4_2 1_555 1_555
C5_2 C3_2 1_555 1_555
C6_2 C5_2 1_555 1_555
C7_2 C6_2 1_555 1_555
H5_2 C7_2 1_555 1_555
C8_2 C7_2 1_555 1_555
H6_2 C8_2 1_555 1_555
C9_2 C6_2 1_555 1_555
H7_2 C9_2 1_555 1_555
C10_2 C9_2 1_555 1_555
H8_2 C10_2 1_555 1_555
C11A N3 1_555 1_555
H9A C11A 1_555 1_555
C12A C13 1_555 1_555
H10A C12A 1_555 1_555
C15A C14 1_555 1_555
H11A C15A 1_555 1_555
C16A N4 1_555 1_555
H12A C16A 1_555 1_555
C17A C18A 1_555 1_555
C18A C19A 1_555 1_555
C19A H13A 1_555 1_555
C20A C19A 1_555 1_555
C21A C20A 1_555 1_555
H14A C21A 1_555 1_555
C22A C21A 1_555 1_555
C23A C18A 1_555 1_555
C24A C23A 1_555 1_555
C25A C22A 1_555 1_555
Co1A N1A 1_555 1_555
Co1_2 N2 1_555 1_555
Co1C O3 1_555 1_555
Co1A_2 O9 1_555 1_555
Co1B O3A 1_555 1_555
Co1_3 O9A 1_555 1_555
Co1_4 N1_2 1_555 1_555
Co2_2 N4 1_555 1_555
N1_2 C1_2 1_555 1_555
N2_2 Co1 1_555 1_555
N2A Co1A 1_555 1_555
N4_2 Co2 1_555 1_555
N5A C20A 1_555 1_555
O1A Co2 1_555 1_555
O2A Co2 1_555 1_555
O3A C17A 1_555 1_555
O3C Co1 1_555 1_555
O3B Co1A 1_555 1_555
O4A C24A 1_555 1_555
O5A C24A 1_555 1_555
O5C Co1 1_555 1_555
O5B Co1A 1_555 1_555
O6A N5A 1_555 1_555
O7A N5A 1_555 1_555
O8A C25A 1_555 1_555
O9A C25A 1_555 1_555
O9A_2 Co1 1_555 1_555
O9_2 Co1A 1_555 1_555
H17A O1A 1_555 1_555
H18A O1A 1_555 1_555
C2 N1 1_555 1_555
C4 C5 1_555 1_555
C10 N2 1_555 1_555
C22 C23 1_555 1_555
Co1 O8 1_555 1_555
Co2 O2 1_555 1_555
O5 Co1C 1_555 1_555
C2_2 N1_2 1_555 1_555
C4_2 C5_2 1_555 1_555
C8_2 N2_2 1_555 1_555
C10_2 N2_2 1_555 1_555
C11A C12A 1_555 1_555
C15A C16A 1_555 1_555
C17A O2A 1_555 1_555
C22A C23A 1_555 1_555
Co1A O8A 1_555 1_555
Co1B O5A 1_555 1_555

#END
