
#######################################################################
#
#                 Cambridge Crystallographic Data Centre
#                                CCDC 
#
#######################################################################
#
# If this CIF has been generated from an entry in the Cambridge 
# Structural Database, then it will include bibliographic, chemical, 
# crystal, experimental, refinement or atomic coordinate data resulting 
# from the CCDC's data processing and validation procedures.
#
#######################################################################

data_LABTIS
_symmetry_cell_setting           monoclinic
_symmetry_space_group_name_H-M   'P 21/n'
_symmetry_Int_Tables_number      14
_space_group_name_Hall           '-P 2yn'
loop_
_symmetry_equiv_pos_site_id
_symmetry_equiv_pos_as_xyz
1 x,y,z
2 1/2+x,1/2-y,1/2+z
3 -x,-y,-z
4 1/2-x,1/2+y,1/2-z
_cell_length_a                   11.155(9)
_cell_length_b                   12.002(9)
_cell_length_c                   12.976(6)
_cell_angle_alpha                90
_cell_angle_beta                 108.73
_cell_angle_gamma                90
_cell_volume                     1645.26
loop_
_atom_site_label
_atom_site_type_symbol
_atom_site_fract_x
_atom_site_fract_y
_atom_site_fract_z
Zn1 Zn 0.02127(7) 0.07387(6) 0.25870(6)
O1 O 0.0339(4) 0.1187(4) 0.1132(4)
O2 O 0.1713(5) -0.0249(4) 0.1469(4)
O3 O 0.4611(5) 0.1878(4) -0.2226(5)
O4 O 0.3758(5) 0.3547(4) -0.2089(4)
N1 N -0.0051(6) -0.0853(4) 0.3025(5)
N2 N 0.0002(6) -0.2683(5) 0.3229(5)
H1 H 0.0185 -0.3403 0.3156
N3 N 0.1897(5) 0.1203(4) 0.3712(4)
N4 N 0.3501(6) 0.2165(6) 0.4850(5)
H2 H 0.3984 0.2746 0.5179
C1 C -0.0731(8) -0.1150(7) 0.3722(6)
H3 H -0.1166 -0.0642 0.4051
C2 C -0.0684(8) -0.2282(6) 0.3855(6)
H4 H -0.1056 -0.2717 0.4294
C3 C 0.0351(6) -0.1823(6) 0.2743(5)
H5 H 0.0824 -0.1886 0.2244
C4 C 0.2411(7) 0.2222(6) 0.3999(6)
H6 H 0.2043 0.2899 0.3641
C5 C 0.3719(9) 0.1053(8) 0.5125(7)
H7 H 0.4427 0.0745 0.5687
C6 C 0.2732(8) 0.0474(7) 0.4428(6)
H8 H 0.2627 -0.0320 0.4423
C7 C 0.1260(6) 0.0624(5) 0.0952(5)
C8 C 0.1824(6) 0.1091(5) 0.0131(5)
C9 C 0.2527(7) 0.0397(6) -0.0331(6)
H9 H 0.2569 -0.0387 -0.0174
C10 C 0.3164(8) 0.0842(6) -0.1020(6)
H10 H 0.3644 0.0362 -0.1331
C11 C 0.3091(6) 0.1988(5) -0.1261(5)
C12 C 0.2352(6) 0.2675(5) -0.0831(5)
H11 H 0.2265 0.3452 -0.1015
C13 C 0.1723(7) 0.2228(5) -0.0139(6)
H12 H 0.1224 0.2703 0.0158
C14 C 0.3866(7) 0.2476(6) -0.1932(5)
O4A O -0.1242(5) 0.1453(4) 0.2911(4)
Zn1A Zn 0.52127(7) 0.42613(6) -0.24130(6)
O5 O 0.4452(6) 0.0183(4) 0.2431(4)
H13 H 0.3589 -0.0094 0.2057
H14 H 0.4744 -0.0459 0.2371
loop_
_geom_bond_atom_site_label_1
_geom_bond_atom_site_label_2
_geom_bond_site_symmetry_1
_geom_bond_site_symmetry_2
Zn1 O1 1_555 1_555
O1 C7 1_555 1_555
O2 C7 1_555 1_555
O3 C14 1_555 1_555
O4 C14 1_555 1_555
N1 Zn1 1_555 1_555
N2 H1 1_555 1_555
N3 Zn1 1_555 1_555
N4 H2 1_555 1_555
C1 N1 1_555 1_555
H3 C1 1_555 1_555
C2 N2 1_555 1_555
H4 C2 1_555 1_555
C3 N1 1_555 1_555
H5 C3 1_555 1_555
C4 N3 1_555 1_555
H6 C4 1_555 1_555
C5 N4 1_555 1_555
H7 C5 1_555 1_555
C6 N3 1_555 1_555
H8 C6 1_555 1_555
C7 C8 1_555 1_555
C8 C9 1_555 1_555
C9 H9 1_555 1_555
C10 C9 1_555 1_555
H10 C10 1_555 1_555
C11 C10 1_555 1_555
C12 C11 1_555 1_555
H11 C12 1_555 1_555
C13 C8 1_555 1_555
H12 C13 1_555 1_555
C14 C11 1_555 1_555
O5 H13 1_555 1_555
H14 O5 1_555 1_555
O4A Zn1 1_555 1_555
Zn1A O4 1_555 1_555
N2 C3 1_555 1_555
N4 C4 1_555 1_555
C1 C2 1_555 1_555
C5 C6 1_555 1_555
C12 C13 1_555 1_555

#END
