
#######################################################################
#
#                 Cambridge Crystallographic Data Centre
#                                CCDC 
#
#######################################################################
#
# If this CIF has been generated from an entry in the Cambridge 
# Structural Database, then it will include bibliographic, chemical, 
# crystal, experimental, refinement or atomic coordinate data resulting 
# from the CCDC's data processing and validation procedures.
#
#######################################################################

data_LABXIV
_symmetry_cell_setting           orthorhombic
_symmetry_space_group_name_H-M   'P b c a'
_symmetry_Int_Tables_number      61
_space_group_name_Hall           '-P 2ac 2ab'
loop_
_symmetry_equiv_pos_site_id
_symmetry_equiv_pos_as_xyz
1 x,y,z
2 1/2-x,-y,1/2+z
3 1/2+x,1/2-y,-z
4 -x,1/2+y,1/2-z
5 -x,-y,-z
6 1/2+x,y,1/2-z
7 1/2-x,1/2+y,z
8 x,1/2-y,1/2+z
_cell_length_a                   13.1(1)
_cell_length_b                   25.91(8)
_cell_length_c                   12.56(9)
_cell_angle_alpha                90
_cell_angle_beta                 90
_cell_angle_gamma                90
_cell_volume                     4263.13
loop_
_atom_site_label
_atom_site_type_symbol
_atom_site_fract_x
_atom_site_fract_y
_atom_site_fract_z
Cd1 Cd -0.18299(2) 0.247180(8) 0.67083(2)
O1 O -0.0048(3) 0.2544(2) 0.6663(3)
O2 O 0.0840(3) 0.3143(2) 0.5883(3)
O3 O -0.0809(2) 0.3178(1) 0.5900(2)
O4 O -0.3128(2) 0.3022(1) 0.5987(2)
O5 O -0.4695(2) 0.2795(2) 0.5824(3)
O6 O -0.3625(2) 0.2270(1) 0.6578(2)
O7 O -0.1802(2) 0.1689(1) 0.7564(2)
N1 N -0.1868(2) 0.2045(1) 0.3250(2)
N2 N -0.1780(2) 0.20252(10) 0.5110(2)
N3 N 0.0022(3) 0.2966(2) 0.6144(3)
N4 N -0.3839(3) 0.2701(2) 0.6130(3)
C1 C -0.1869(3) 0.2270(1) 0.4194(2)
C2 C -0.1766(3) 0.1519(1) 0.3226(3)
C3 C -0.1649(2) 0.1225(1) 0.4139(2)
C4 C -0.1668(3) 0.1503(1) 0.5077(3)
C5 C -0.1501(3) 0.0650(1) 0.4121(2)
C6 C -0.0628(3) 0.0447(1) 0.3627(3)
C7 C 0.0141(3) 0.0764(2) 0.3148(3)
C8 C 0.0962(3) 0.0547(2) 0.2678(4)
C9 C 0.1099(4) 0.0004(2) 0.2644(4)
C10 C 0.0405(4) -0.0314(2) 0.3087(4)
C11 C -0.0475(3) -0.0108(1) 0.3613(3)
C12 C -0.1183(4) -0.0431(1) 0.4110(3)
C13 C -0.2028(3) -0.0238(1) 0.4621(3)
C14 C -0.2736(4) -0.0565(2) 0.5132(4)
C15 C -0.3581(5) -0.0373(2) 0.5604(5)
C16 C -0.3768(4) 0.0173(2) 0.5592(4)
C17 C -0.3103(3) 0.0504(2) 0.5112(3)
C18 C -0.2214(3) 0.0318(1) 0.4617(3)
H1 H -0.1953 0.2628 0.4215
H2 H -0.178(2) 0.137(1) 0.258(3)
H3 H -0.161(2) 0.134(1) 0.573(3)
H4 H 0.005(3) 0.112(2) 0.320(3)
H5 H 0.1473 0.0768 0.2363
H6 H 0.168(4) -0.015(2) 0.227(5)
H7 H 0.043(4) -0.061(2) 0.305(4)
H8 H -0.111(4) -0.084(2) 0.403(4)
H9 H -0.259(4) -0.096(2) 0.519(4)
H10 H -0.395(4) -0.056(2) 0.589(4)
H11 H -0.436(4) 0.031(2) 0.602(4)
H12 H -0.324(3) 0.083(1) 0.514(3)
H13 H -0.2490 0.1608 0.7842
H14 H -0.1200 0.1588 0.8058
Cd1G Cd -0.18299(2) 0.252820(8) 0.17083(2)
N1G N -0.1868(2) 0.2955(1) 0.8250(2)
O8 O -0.3565(3) 0.3262(1) 0.3727(3)
H15 H -0.357(4) 0.325(2) 0.452(5)
H16 H -0.405(6) 0.303(3) 0.348(6)
O9 O -0.0176(4) 0.3548(2) 0.3702(4)
H17 H -0.024(6) 0.350(3) 0.424(5)
H18 H 0.019(6) 0.329(3) 0.366(7)
loop_
_geom_bond_atom_site_label_1
_geom_bond_atom_site_label_2
_geom_bond_site_symmetry_1
_geom_bond_site_symmetry_2
Cd1 O1 1_555 1_555
O1 N3 1_555 1_555
O2 N3 1_555 1_555
O3 N3 1_555 1_555
O4 Cd1 1_555 1_555
O5 N4 1_555 1_555
O6 Cd1 1_555 1_555
O7 Cd1 1_555 1_555
N1 C1 1_555 1_555
N2 Cd1 1_555 1_555
N4 O4 1_555 1_555
C1 N2 1_555 1_555
C2 N1 1_555 1_555
C3 C2 1_555 1_555
C4 N2 1_555 1_555
C5 C3 1_555 1_555
C6 C5 1_555 1_555
C7 C6 1_555 1_555
C8 C7 1_555 1_555
C9 C8 1_555 1_555
C10 C9 1_555 1_555
C11 C6 1_555 1_555
C12 C11 1_555 1_555
C13 C12 1_555 1_555
C14 C13 1_555 1_555
C15 C14 1_555 1_555
C16 C15 1_555 1_555
C17 C16 1_555 1_555
C18 C5 1_555 1_555
H1 C1 1_555 1_555
H2 C2 1_555 1_555
H3 C4 1_555 1_555
H4 C7 1_555 1_555
H5 C8 1_555 1_555
H6 C9 1_555 1_555
H7 C10 1_555 1_555
H8 C12 1_555 1_555
H9 C14 1_555 1_555
H10 C15 1_555 1_555
H11 C16 1_555 1_555
H12 C17 1_555 1_555
H13 O7 1_555 1_555
H14 O7 1_555 1_555
O8 H15 1_555 1_555
H16 O8 1_555 1_555
O9 H17 1_555 1_555
H18 O9 1_555 1_555
Cd1G N1 1_555 1_555
N1G Cd1 1_555 1_555
O6 N4 1_555 1_555
C3 C4 1_555 1_555
C10 C11 1_555 1_555
C13 C18 1_555 1_555
C17 C18 1_555 1_555

#END
