
#######################################################################
#
#                 Cambridge Crystallographic Data Centre
#                                CCDC 
#
#######################################################################
#
# If this CIF has been generated from an entry in the Cambridge 
# Structural Database, then it will include bibliographic, chemical, 
# crystal, experimental, refinement or atomic coordinate data resulting 
# from the CCDC's data processing and validation procedures.
#
#######################################################################

data_LACCID
_symmetry_cell_setting           monoclinic
_symmetry_space_group_name_H-M   'C 2/c'
_symmetry_Int_Tables_number      15
_space_group_name_Hall           '-C 2yn'
loop_
_symmetry_equiv_pos_site_id
_symmetry_equiv_pos_as_xyz
1 x,y,z
2 -x,y,1/2-z
3 1/2+x,1/2+y,z
4 1/2-x,1/2+y,1/2-z
5 -x,-y,-z
6 x,-y,1/2+z
7 1/2-x,1/2-y,-z
8 1/2+x,1/2-y,1/2+z
_cell_length_a                   18.7369(3)
_cell_length_b                   10.16210(10)
_cell_length_c                   20.3373(3)
_cell_angle_alpha                90
_cell_angle_beta                 97.0790(10)
_cell_angle_gamma                90
_cell_volume                     3842.83
loop_
_atom_site_label
_atom_site_type_symbol
_atom_site_fract_x
_atom_site_fract_y
_atom_site_fract_z
Co1 Co 0.0000 0.31297(9) 0.7500
O1 O 0.15523(15) 0.4727(3) 0.81315(14)
O2 O 0.07407(14) 0.3221(3) 0.83421(13)
O3 O 0.13333(14) 0.1949(3) 1.06575(13)
O4 O 0.29140(17) 0.5543(3) 1.04526(15)
N1 N 0.05804(17) -0.1557(3) 1.20897(16)
N2 N 0.4885(2) 0.8521(4) 1.1332(2)
C1 C 0.1269(2) 0.3973(4) 0.85128(19)
C2 C 0.1579(2) 0.3925(4) 0.9230(2)
C3 C 0.1318(2) 0.3011(4) 0.96429(19)
H1 H 0.0948 0.2446 0.9478
C4 C 0.1606(2) 0.2935(4) 1.03039(19)
C5 C 0.2130(2) 0.3803(4) 1.0561(2)
H2 H 0.2312 0.3776 1.1008
C6 C 0.2384(2) 0.4721(4) 1.0141(2)
C7 C 0.2116(2) 0.4794(4) 0.9480(2)
H3 H 0.2293 0.5416 0.9206
C8 C 0.1584(2) 0.1838(4) 1.1341(2)
H4 H 0.1461 0.2622 1.1575
H5 H 0.2102 0.1734 1.1405
C9 C 0.1228(2) 0.0653(4) 1.15979(19)
C10 C 0.0581(2) 0.0183(5) 1.1307(2)
H6 H 0.0348 0.0596 1.0933
C11 C 0.0276(2) -0.0893(5) 1.1564(2)
H7 H -0.0169 -0.1177 1.1361
C12 C 0.1207(3) -0.1078(5) 1.2377(3)
H8 H 0.1428 -0.1505 1.2752
C13 C 0.1546(3) 0.0005(6) 1.2155(2)
H9 H 0.1981 0.0297 1.2376
C14 C 0.3316(2) 0.6315(5) 1.0055(2)
H10 H 0.3004 0.6925 0.9790
H11 H 0.3551 0.5757 0.9759
C15 C 0.3871(2) 0.7058(4) 1.0513(2)
C16 C 0.3904(2) 0.7009(5) 1.1191(2)
H12 H 0.3588 0.6479 1.1391
C17 C 0.4409(3) 0.7753(5) 1.1571(3)
H13 H 0.4418 0.7714 1.2029
C18 C 0.4854(2) 0.8578(5) 1.0679(3)
H14 H 0.5179 0.9119 1.0498
C19 C 0.4359(2) 0.7870(5) 1.0247(2)
H15 H 0.4356 0.7940 0.9790
O5 O 0.06401(14) 0.4516(3) 0.70421(14)
H16 H 0.0942 0.4882 0.7331
H17 H 0.0374 0.5108 0.6844
Co1D Co 0.0000 -0.31297(9) 0.2500
Co1D_2 Co 0.0000 -0.31297(9) 1.2500
O1A O -0.15523(15) 0.4727(3) 0.68685(14)
O2A O -0.07407(14) 0.3221(3) 0.66579(13)
O3A O -0.13333(14) 0.1949(3) 0.43425(13)
O4A O -0.29140(17) 0.5543(3) 0.45474(15)
N1A N -0.05804(17) -0.1557(3) 0.29103(16)
N1D N -0.05804(17) 0.1557(3) 0.79103(16)
N1E N 0.05804(17) 0.1557(3) 0.70897(16)
N2A N -0.4885(2) 0.8521(4) 0.3668(2)
C1A C -0.1269(2) 0.3973(4) 0.64872(19)
C2A C -0.1579(2) 0.3925(4) 0.5770(2)
C3A C -0.1318(2) 0.3011(4) 0.53571(19)
H1A H -0.0948 0.2446 0.5522
C4A C -0.1606(2) 0.2935(4) 0.46961(19)
C5A C -0.2130(2) 0.3803(4) 0.4439(2)
H2A H -0.2312 0.3776 0.3992
C6A C -0.2384(2) 0.4721(4) 0.4859(2)
C7A C -0.2116(2) 0.4794(4) 0.5520(2)
H3A H -0.2293 0.5416 0.5794
C8A C -0.1584(2) 0.1838(4) 0.3659(2)
H4A H -0.1461 0.2622 0.3425
H5A H -0.2102 0.1734 0.3595
C9A C -0.1228(2) 0.0653(4) 0.34021(19)
C10A C -0.0581(2) 0.0183(5) 0.3693(2)
H6A H -0.0348 0.0596 0.4067
C11A C -0.0276(2) -0.0893(5) 0.3436(2)
H7A H 0.0169 -0.1177 0.3639
C12A C -0.1207(3) -0.1078(5) 0.2623(3)
H8A H -0.1428 -0.1505 0.2248
C13A C -0.1546(3) 0.0005(6) 0.2845(2)
H9A H -0.1981 0.0297 0.2624
C14A C -0.3316(2) 0.6315(5) 0.4945(2)
H10A H -0.3004 0.6925 0.5210
H11A H -0.3551 0.5757 0.5241
C15A C -0.3871(2) 0.7058(4) 0.4487(2)
C16A C -0.3904(2) 0.7009(5) 0.3809(2)
H12A H -0.3588 0.6479 0.3609
C17A C -0.4409(3) 0.7753(5) 0.3429(3)
H13A H -0.4418 0.7714 0.2971
C18A C -0.4854(2) 0.8578(5) 0.4321(3)
H14A H -0.5179 0.9119 0.4502
C19A C -0.4359(2) 0.7870(5) 0.4753(2)
H15A H -0.4356 0.7940 0.5210
O5A O -0.06401(14) 0.4516(3) 0.79579(14)
H16A H -0.0942 0.4882 0.7669
H17A H -0.0374 0.5108 0.8156
O6 O 0.1705(3) 0.3271(5) 0.6315(2)
H18 H 0.1395 0.3636 0.6528
H19 H 0.2027 0.2926 0.6593
O7 O 0.2185(2) 0.7078(5) 0.7722(2)
H20 H 0.2505 0.7380 0.8015
H21 H 0.2016 0.6375 0.7869
loop_
_geom_bond_atom_site_label_1
_geom_bond_atom_site_label_2
_geom_bond_site_symmetry_1
_geom_bond_site_symmetry_2
Co1 O2 1_555 1_555
O1 C1 1_555 1_555
O2 C1 1_555 1_555
O3 C4 1_555 1_555
O4 C6 1_555 1_555
N1 C11 1_555 1_555
N2 C17 1_555 1_555
C1 C2 1_555 1_555
C2 C3 1_555 1_555
C3 H1 1_555 1_555
C4 C3 1_555 1_555
C5 C4 1_555 1_555
H2 C5 1_555 1_555
C6 C5 1_555 1_555
C7 C2 1_555 1_555
H3 C7 1_555 1_555
C8 O3 1_555 1_555
H4 C8 1_555 1_555
H5 C8 1_555 1_555
C9 C8 1_555 1_555
C10 C9 1_555 1_555
H6 C10 1_555 1_555
C11 C10 1_555 1_555
H7 C11 1_555 1_555
C12 N1 1_555 1_555
H8 C12 1_555 1_555
C13 C9 1_555 1_555
H9 C13 1_555 1_555
C14 O4 1_555 1_555
H10 C14 1_555 1_555
H11 C14 1_555 1_555
C15 C14 1_555 1_555
C16 C15 1_555 1_555
H12 C16 1_555 1_555
C17 C16 1_555 1_555
H13 C17 1_555 1_555
C18 N2 1_555 1_555
H14 C18 1_555 1_555
C19 C15 1_555 1_555
H15 C19 1_555 1_555
O5 Co1 1_555 1_555
H16 O5 1_555 1_555
H17 O5 1_555 1_555
O6 H18 1_555 1_555
H19 O6 1_555 1_555
O7 H20 1_555 1_555
H21 O7 1_555 1_555
Co1D N1A 1_555 1_555
Co1D_2 N1 1_555 1_555
O1A C1A 1_555 1_555
O2A Co1 1_555 1_555
O3A C4A 1_555 1_555
O4A C6A 1_555 1_555
N1A C11A 1_555 1_555
N1D Co1 1_555 1_555
N1E Co1 1_555 1_555
N2A C17A 1_555 1_555
C1A O2A 1_555 1_555
C2A C1A 1_555 1_555
C3A C2A 1_555 1_555
H1A C3A 1_555 1_555
C4A C3A 1_555 1_555
C5A C4A 1_555 1_555
H2A C5A 1_555 1_555
C6A C5A 1_555 1_555
C7A C2A 1_555 1_555
H3A C7A 1_555 1_555
C8A O3A 1_555 1_555
H4A C8A 1_555 1_555
H5A C8A 1_555 1_555
C9A C8A 1_555 1_555
C10A C9A 1_555 1_555
H6A C10A 1_555 1_555
C11A C10A 1_555 1_555
H7A C11A 1_555 1_555
C12A N1A 1_555 1_555
H8A C12A 1_555 1_555
C13A C9A 1_555 1_555
H9A C13A 1_555 1_555
C14A O4A 1_555 1_555
H10A C14A 1_555 1_555
H11A C14A 1_555 1_555
C15A C14A 1_555 1_555
C16A C15A 1_555 1_555
H12A C16A 1_555 1_555
C17A C16A 1_555 1_555
H13A C17A 1_555 1_555
C18A N2A 1_555 1_555
H14A C18A 1_555 1_555
C19A C15A 1_555 1_555
H15A C19A 1_555 1_555
O5A Co1 1_555 1_555
H16A O5A 1_555 1_555
H17A O5A 1_555 1_555
C6 C7 1_555 1_555
C12 C13 1_555 1_555
C18 C19 1_555 1_555
C6A C7A 1_555 1_555
C12A C13A 1_555 1_555
C18A C19A 1_555 1_555

#END
