
#######################################################################
#
#                 Cambridge Crystallographic Data Centre
#                                CCDC 
#
#######################################################################
#
# If this CIF has been generated from an entry in the Cambridge 
# Structural Database, then it will include bibliographic, chemical, 
# crystal, experimental, refinement or atomic coordinate data resulting 
# from the CCDC's data processing and validation procedures.
#
#######################################################################

data_LACCUP
_symmetry_cell_setting           monoclinic
_symmetry_space_group_name_H-M   'P 2/c'
_symmetry_Int_Tables_number      13
_space_group_name_Hall           '-P 2yc'
loop_
_symmetry_equiv_pos_site_id
_symmetry_equiv_pos_as_xyz
1 x,y,z
2 -x,y,1/2-z
3 -x,-y,-z
4 x,-y,1/2+z
_cell_length_a                   25.323(4)
_cell_length_b                   4.8988(8)
_cell_length_c                   33.300(4)
_cell_angle_alpha                90
_cell_angle_beta                 120.00
_cell_angle_gamma                90
_cell_volume                     3577.5
loop_
_atom_site_label
_atom_site_type_symbol
_atom_site_fract_x
_atom_site_fract_y
_atom_site_fract_z
Hg1 Hg 0.0000 1.5675(3) 0.2500
Hg2 Hg 0.36646(5) 1.1401(2) 0.60655(3)
Cl1 Cl -0.0597(4) 1.6725(16) 0.1706(3)
Cl2 Cl 0.4660(3) 1.3160(12) 0.65789(19)
Cl3 Cl 0.2609(3) 1.2308(15) 0.5524(2)
O1 O 0.4351(8) -0.079(4) 0.4287(6)
O2 O 0.3902(7) 0.272(3) 0.4407(5)
O3 O 0.2272(8) 0.563(3) 0.2886(5)
O4 O 0.3247(8) -0.157(3) 0.2532(5)
N1 N 0.3943(11) 0.833(3) 0.5638(6)
N2 N 0.0695(10) 1.245(5) 0.2460(8)
N3 N 0.3605(10) -0.833(4) 0.1614(5)
C1 C 0.3560(11) 0.147(4) 0.3638(7)
C2 C 0.3104(10) 0.339(5) 0.3492(7)
H1 H 0.3050 0.4420 0.3703
C3 C 0.2723(11) 0.372(5) 0.3010(8)
C4 C 0.2747(11) 0.206(4) 0.2684(7)
H2 H 0.2459 0.2155 0.2370
C5 C 0.3267(11) 0.009(5) 0.2871(7)
C6 C 0.3606(10) -0.011(5) 0.3309(7)
H3 H 0.3911 -0.1432 0.3420
C7 C 0.3987(12) 0.092(5) 0.4133(8)
C8 C 0.4335(11) 0.239(5) 0.4903(7)
H4 H 0.4750 0.2648 0.4966
H5 H 0.4301 0.0586 0.5007
C9 C 0.4174(11) 0.453(5) 0.5144(8)
C10 C 0.3592(11) 0.536(5) 0.4981(7)
H6 H 0.3280 0.4655 0.4705
C11 C 0.3460(15) 0.730(6) 0.5231(9)
H7 H 0.3061 0.7864 0.5127
C12 C 0.4491(11) 0.748(7) 0.5785(9)
H8 H 0.4806 0.8145 0.6064
C13 C 0.4613(11) 0.567(5) 0.5546(7)
H9 H 0.5017 0.5162 0.5658
C14 C 0.1849(12) 0.622(4) 0.2426(8)
H10 H 0.1614 0.4599 0.2269
H11 H 0.2053 0.6863 0.2263
C15 C 0.1444(15) 0.837(5) 0.2438(10)
C16 C 0.1553(12) 0.968(6) 0.2842(10)
H12 H 0.1895 0.9240 0.3124
C17 C 0.1141(13) 1.168(5) 0.2821(10)
H13 H 0.1210 1.2463 0.3098
C18 C 0.0527(15) 1.139(6) 0.2028(12)
H14 H 0.0164 1.1884 0.1764
C19 C 0.0948(13) 0.945(7) 0.2007(10)
H15 H 0.0900 0.8912 0.1723
C20 C 0.3750(9) -0.319(4) 0.2686(7)
H16 H 0.3797 -0.4306 0.2943
H17 H 0.4112 -0.2074 0.2794
C21 C 0.3671(12) -0.503(4) 0.2285(8)
C22 C 0.3188(13) -0.501(5) 0.1843(8)
H18 H 0.2867 -0.3809 0.1765
C23 C 0.3171(9) -0.666(5) 0.1528(7)
H19 H 0.2833 -0.6621 0.1231
C24 C 0.4100(15) -0.840(5) 0.2049(10)
H20 H 0.4407 -0.9654 0.2111
C25 C 0.4166(11) -0.672(5) 0.2396(7)
H21 H 0.4517 -0.6706 0.2686
Hg2A Hg -0.36646(5) 1.1401(2) -0.10655(3)
Hg2C Hg 0.36646(5) -1.1401(2) 0.10655(3)
Hg2B Hg -0.36646(5) -1.1401(2) 0.39345(3)
Cl1A Cl 0.0597(4) 1.6725(16) 0.3294(3)
Cl2A Cl -0.4660(3) 1.3160(12) -0.15789(19)
Cl3A Cl -0.2609(3) 1.2308(15) -0.0524(2)
O1A O -0.4351(8) -0.079(4) 0.0713(6)
O2A O -0.3902(7) 0.272(3) 0.0593(5)
O3A O -0.2272(8) 0.563(3) 0.2114(5)
O4A O -0.3247(8) -0.157(3) 0.2468(5)
N1A N -0.3943(11) 0.833(3) -0.0638(6)
N2A N -0.0695(10) 1.245(5) 0.2540(8)
N3A N -0.3605(10) -0.833(4) 0.3386(5)
N3C N 0.3605(10) 0.833(4) 0.6614(5)
N3B N -0.3605(10) 0.833(4) -0.1614(5)
C1A C -0.3560(11) 0.147(4) 0.1362(7)
C2A C -0.3104(10) 0.339(5) 0.1508(7)
H1A H -0.3050 0.4420 0.1297
C3A C -0.2723(11) 0.372(5) 0.1990(8)
C4A C -0.2747(11) 0.206(4) 0.2316(7)
H2A H -0.2459 0.2155 0.2630
C5A C -0.3267(11) 0.009(5) 0.2129(7)
C6A C -0.3606(10) -0.011(5) 0.1691(7)
H3A H -0.3911 -0.1432 0.1580
C7A C -0.3987(12) 0.092(5) 0.0867(8)
C8A C -0.4335(11) 0.239(5) 0.0097(7)
H4A H -0.4750 0.2648 0.0034
H5A H -0.4301 0.0586 -0.0007
C9A C -0.4174(11) 0.453(5) -0.0144(8)
C10A C -0.3592(11) 0.536(5) 0.0019(7)
H6A H -0.3280 0.4655 0.0295
C11A C -0.3460(15) 0.730(6) -0.0231(9)
H7A H -0.3061 0.7864 -0.0127
C12A C -0.4491(11) 0.748(7) -0.0785(9)
H8A H -0.4806 0.8145 -0.1064
C13A C -0.4613(11) 0.567(5) -0.0546(7)
H9A H -0.5017 0.5162 -0.0658
C14A C -0.1849(12) 0.622(4) 0.2574(8)
H10A H -0.1614 0.4599 0.2731
H11A H -0.2053 0.6863 0.2737
C15A C -0.1444(15) 0.837(5) 0.2562(10)
C16A C -0.1553(12) 0.968(6) 0.2158(10)
H12A H -0.1895 0.9240 0.1876
C17A C -0.1141(13) 1.168(5) 0.2179(10)
H13A H -0.1210 1.2463 0.1902
C18A C -0.0527(15) 1.139(6) 0.2972(12)
H14A H -0.0164 1.1884 0.3236
C19A C -0.0948(13) 0.945(7) 0.2993(10)
H15A H -0.0900 0.8912 0.3277
C20A C -0.3750(9) -0.319(4) 0.2314(7)
H16A H -0.3797 -0.4306 0.2057
H17A H -0.4112 -0.2074 0.2206
C21A C -0.3671(12) -0.503(4) 0.2715(8)
C22A C -0.3188(13) -0.501(5) 0.3157(8)
H18A H -0.2867 -0.3809 0.3235
C23A C -0.3171(9) -0.666(5) 0.3472(7)
H19A H -0.2833 -0.6621 0.3769
C24A C -0.4100(15) -0.840(5) 0.2951(10)
H20A H -0.4407 -0.9654 0.2889
C25A C -0.4166(11) -0.672(5) 0.2604(7)
H21A H -0.4517 -0.6706 0.2314
O5 O 0.1065(12) 1.151(5) 0.5134(10)
O6 O 0.2347(15) 0.941(7) 0.4101(12)
C26 C 0.1919(19) 1.167(8) 0.4201(14)
C27 C 0.164(2) 0.790(10) 0.6380(18)
O7 O 0.152(3) 1.032(16) 0.598(3)
loop_
_geom_bond_atom_site_label_1
_geom_bond_atom_site_label_2
_geom_bond_site_symmetry_1
_geom_bond_site_symmetry_2
Hg1 Cl1 1_555 1_555
Hg2 Cl2 1_555 1_555
Cl3 Hg2 1_555 1_555
O1 C7 1_555 1_555
O2 C7 1_555 1_555
O3 C3 1_555 1_555
O4 C5 1_555 1_555
N1 Hg2 1_555 1_555
N2 Hg1 1_555 1_555
N3 C23 1_555 1_555
C1 C2 1_555 1_555
C2 H1 1_555 1_555
C3 C2 1_555 1_555
C4 C3 1_555 1_555
H2 C4 1_555 1_555
C5 C4 1_555 1_555
C6 C1 1_555 1_555
H3 C6 1_555 1_555
C7 C1 1_555 1_555
C8 O2 1_555 1_555
H4 C8 1_555 1_555
H5 C8 1_555 1_555
C9 C8 1_555 1_555
C10 C9 1_555 1_555
H6 C10 1_555 1_555
C11 N1 1_555 1_555
H7 C11 1_555 1_555
C12 N1 1_555 1_555
H8 C12 1_555 1_555
C13 C9 1_555 1_555
H9 C13 1_555 1_555
C14 O3 1_555 1_555
H10 C14 1_555 1_555
H11 C14 1_555 1_555
C15 C14 1_555 1_555
C16 C15 1_555 1_555
H12 C16 1_555 1_555
C17 N2 1_555 1_555
H13 C17 1_555 1_555
C18 N2 1_555 1_555
H14 C18 1_555 1_555
C19 C15 1_555 1_555
H15 C19 1_555 1_555
C20 O4 1_555 1_555
H16 C20 1_555 1_555
H17 C20 1_555 1_555
C21 C20 1_555 1_555
C22 C21 1_555 1_555
H18 C22 1_555 1_555
C23 C22 1_555 1_555
H19 C23 1_555 1_555
C24 N3 1_555 1_555
H20 C24 1_555 1_555
C25 C21 1_555 1_555
H21 C25 1_555 1_555
O6 C26 1_555 1_555
C27 O7 1_555 1_555
Hg2A Cl2A 1_555 1_555
Hg2C N3 1_555 1_555
Hg2B N3A 1_555 1_555
Cl1A Hg1 1_555 1_555
Cl3A Hg2A 1_555 1_555
O1A C7A 1_555 1_555
O2A C7A 1_555 1_555
O3A C3A 1_555 1_555
O4A C5A 1_555 1_555
N1A Hg2A 1_555 1_555
N2A Hg1 1_555 1_555
N3A C23A 1_555 1_555
N3C Hg2 1_555 1_555
N3B Hg2A 1_555 1_555
C1A C2A 1_555 1_555
C2A H1A 1_555 1_555
C3A C2A 1_555 1_555
C4A C3A 1_555 1_555
H2A C4A 1_555 1_555
C5A C4A 1_555 1_555
C6A C1A 1_555 1_555
H3A C6A 1_555 1_555
C7A C1A 1_555 1_555
C8A O2A 1_555 1_555
H4A C8A 1_555 1_555
H5A C8A 1_555 1_555
C9A C8A 1_555 1_555
C10A C9A 1_555 1_555
H6A C10A 1_555 1_555
C11A N1A 1_555 1_555
H7A C11A 1_555 1_555
C12A N1A 1_555 1_555
H8A C12A 1_555 1_555
C13A C9A 1_555 1_555
H9A C13A 1_555 1_555
C14A O3A 1_555 1_555
H10A C14A 1_555 1_555
H11A C14A 1_555 1_555
C15A C14A 1_555 1_555
C16A C15A 1_555 1_555
H12A C16A 1_555 1_555
C17A N2A 1_555 1_555
H13A C17A 1_555 1_555
C18A N2A 1_555 1_555
H14A C18A 1_555 1_555
C19A C15A 1_555 1_555
H15A C19A 1_555 1_555
C20A O4A 1_555 1_555
H16A C20A 1_555 1_555
H17A C20A 1_555 1_555
C21A C20A 1_555 1_555
C22A C21A 1_555 1_555
H18A C22A 1_555 1_555
C23A C22A 1_555 1_555
H19A C23A 1_555 1_555
C24A N3A 1_555 1_555
H20A C24A 1_555 1_555
C25A C21A 1_555 1_555
H21A C25A 1_555 1_555
C5 C6 1_555 1_555
C10 C11 1_555 1_555
C12 C13 1_555 1_555
C16 C17 1_555 1_555
C18 C19 1_555 1_555
C24 C25 1_555 1_555
C5A C6A 1_555 1_555
C10A C11A 1_555 1_555
C12A C13A 1_555 1_555
C16A C17A 1_555 1_555
C18A C19A 1_555 1_555
C24A C25A 1_555 1_555

#END
