
#######################################################################
#
#                 Cambridge Crystallographic Data Centre
#                                CCDC 
#
#######################################################################
#
# If this CIF has been generated from an entry in the Cambridge 
# Structural Database, then it will include bibliographic, chemical, 
# crystal, experimental, refinement or atomic coordinate data resulting 
# from the CCDC's data processing and validation procedures.
#
#######################################################################

data_LACDAW
_symmetry_cell_setting           orthorhombic
_symmetry_space_group_name_H-M   'P b c m'
_symmetry_Int_Tables_number      57
_space_group_name_Hall           '-P 2c 2b'
loop_
_symmetry_equiv_pos_site_id
_symmetry_equiv_pos_as_xyz
1 x,y,z
2 -x,-y,1/2+z
3 x,1/2-y,-z
4 -x,1/2+y,1/2-z
5 -x,-y,-z
6 x,y,1/2-z
7 -x,1/2+y,z
8 x,1/2-y,1/2+z
_cell_length_a                   7.5483(2)
_cell_length_b                   36.1989(11)
_cell_length_c                   22.7980(5)
_cell_angle_alpha                90
_cell_angle_beta                 90
_cell_angle_gamma                90
_cell_volume                     6229.33
loop_
_atom_site_label
_atom_site_type_symbol
_atom_site_fract_x
_atom_site_fract_y
_atom_site_fract_z
Hg1 Hg -0.03299(11) -0.13310(2) 0.2500
Hg2 Hg 1.18949(11) 0.07907(3) 0.2500
Hg3 Hg -0.81895(10) 0.2500 0.5000
I1 I -0.2235(2) -0.19444(4) 0.2500
I2 I 0.3108(2) -0.11549(6) 0.2500
I3 I 1.3506(2) 0.14395(5) 0.2500
I4 I 1.2745(3) 0.00862(6) 0.2500
I5 I -0.90963(17) 0.27684(3) 0.60329(4)
O1 O -0.3354(17) 0.0504(4) 0.5200(7)
O2 O -0.1684(16) 0.0173(3) 0.4586(6)
O3 O 0.0540(12) 0.1643(3) 0.5593(4)
O4 O 0.3591(13) 0.0908(3) 0.4187(5)
N1 N -0.1434(18) -0.0933(3) 0.3235(5)
N2 N -0.5709(14) 0.2108(3) 0.5315(5)
N3 N 0.9452(16) 0.0890(4) 0.3190(5)
C1 C -0.0586(18) 0.0744(4) 0.4928(6)
C2 C -0.0770(17) 0.1050(4) 0.5279(6)
H1 H -0.1751 0.1074 0.5523
C3 C 0.0531(17) 0.1324(4) 0.5265(6)
C4 C 0.1972(17) 0.1286(4) 0.4890(6)
H2 H 0.2825 0.1471 0.4869
C5 C 0.2129(17) 0.0974(4) 0.4552(6)
C6 C 0.0894(17) 0.0696(4) 0.4562(7)
H3 H 0.1031 0.0484 0.4335
C7 C -0.200(2) 0.0462(4) 0.4930(8)
C8 C -0.302(2) -0.0107(5) 0.4476(9)
H4 H -0.3297 -0.0232 0.4841
H5 H -0.4098 0.0013 0.4340
C9 C -0.241(2) -0.0407(4) 0.3999(8)
C10 C -0.349(2) -0.0685(5) 0.3944(7)
H6 H -0.4567 -0.0700 0.4144
C11 C -0.287(3) -0.0981(6) 0.3534(7)
H7 H -0.3512 -0.1198 0.3495
C12 C -0.048(3) -0.0619(5) 0.3349(8)
H8 H 0.0566 -0.0592 0.3135
C13 C -0.084(2) -0.0345(5) 0.3728(8)
H9 H -0.0114 -0.0142 0.3795
C14 C -0.0844(17) 0.1692(4) 0.6023(6)
H10 H -0.1063 0.1459 0.6219
H11 H -0.0451 0.1868 0.6316
C15 C -0.2547(18) 0.1828(4) 0.5751(6)
C16 C -0.2727(18) 0.1918(4) 0.5173(6)
H12 H -0.1784 0.1883 0.4917
C17 C -0.4327(17) 0.2064(4) 0.4965(6)
H13 H -0.4420 0.2131 0.4573
C18 C -0.5536(18) 0.2014(4) 0.5877(6)
H14 H -0.6506 0.2049 0.6122
C19 C -0.4034(18) 0.1870(4) 0.6117(7)
H15 H -0.3994 0.1801 0.6509
C20 C 0.4876(18) 0.1187(4) 0.4176(6)
H16 H 0.4365 0.1412 0.4017
H17 H 0.5272 0.1239 0.4572
C21 C 0.6421(18) 0.1071(4) 0.3808(6)
C22 C 0.7815(19) 0.1322(4) 0.3730(6)
H18 H 0.7740 0.1559 0.3884
C23 C 0.929(2) 0.1213(4) 0.3425(7)
H19 H 1.0219 0.1380 0.3385
C24 C 0.8135(19) 0.0643(4) 0.3257(7)
H20 H 0.8255 0.0410 0.3091
C25 C 0.661(2) 0.0725(4) 0.3564(7)
H21 H 0.5728 0.0548 0.3607
Hg3E Hg -0.81895(10) 0.2500 0.0000
I5B I -0.90963(17) 0.22316(3) 0.39671(4)
O1E O -0.3354(17) 0.0504(4) -0.0200(7)
O2E O -0.1684(16) 0.0173(3) 0.0414(6)
O3E O 0.0540(12) 0.1643(3) -0.0593(4)
O4E O 0.3591(13) 0.0908(3) 0.0813(5)
N1E N -0.1434(18) -0.0933(3) 0.1765(5)
N2E N -0.5709(14) 0.2108(3) -0.0315(5)
N2B N -0.5709(14) 0.2892(3) 0.4685(5)
N3E N 0.9452(16) 0.0890(4) 0.1810(5)
C1E C -0.0586(18) 0.0744(4) 0.0072(6)
C2E C -0.0770(17) 0.1050(4) -0.0279(6)
H1E H -0.1751 0.1074 -0.0523
C3E C 0.0531(17) 0.1324(4) -0.0265(6)
C4E C 0.1972(17) 0.1286(4) 0.0110(6)
H2E H 0.2825 0.1471 0.0131
C5E C 0.2129(17) 0.0974(4) 0.0448(6)
C6E C 0.0894(17) 0.0696(4) 0.0438(7)
H3E H 0.1031 0.0484 0.0665
C7E C -0.200(2) 0.0462(4) 0.0070(8)
C8E C -0.302(2) -0.0107(5) 0.0524(9)
H4E H -0.3297 -0.0232 0.0159
H5E H -0.4098 0.0013 0.0660
C9E C -0.241(2) -0.0407(4) 0.1001(8)
C10E C -0.349(2) -0.0685(5) 0.1056(7)
H6E H -0.4567 -0.0700 0.0856
C11E C -0.287(3) -0.0981(6) 0.1466(7)
H7E H -0.3512 -0.1198 0.1505
C12E C -0.048(3) -0.0619(5) 0.1651(8)
H8E H 0.0566 -0.0592 0.1865
C13E C -0.084(2) -0.0345(5) 0.1272(8)
H9E H -0.0114 -0.0142 0.1205
C14E C -0.0844(17) 0.1692(4) -0.1023(6)
H10E H -0.1063 0.1459 -0.1219
H11E H -0.0451 0.1868 -0.1316
C15E C -0.2547(18) 0.1828(4) -0.0751(6)
C16E C -0.2727(18) 0.1918(4) -0.0173(6)
H12E H -0.1784 0.1883 0.0083
C17E C -0.4327(17) 0.2064(4) 0.0035(6)
H13E H -0.4420 0.2131 0.0427
C18E C -0.5536(18) 0.2014(4) -0.0877(6)
H14E H -0.6506 0.2049 -0.1122
C19E C -0.4034(18) 0.1870(4) -0.1117(7)
H15E H -0.3994 0.1801 -0.1509
C20E C 0.4876(18) 0.1187(4) 0.0824(6)
H16E H 0.4365 0.1412 0.0983
H17E H 0.5272 0.1239 0.0428
C21E C 0.6421(18) 0.1071(4) 0.1192(6)
C22E C 0.7815(19) 0.1322(4) 0.1270(6)
H18E H 0.7740 0.1559 0.1116
C23E C 0.929(2) 0.1213(4) 0.1575(7)
H19E H 1.0219 0.1380 0.1615
C24E C 0.8135(19) 0.0643(4) 0.1743(7)
H20E H 0.8255 0.0410 0.1909
C25E C 0.661(2) 0.0725(4) 0.1436(7)
H21E H 0.5728 0.0548 0.1393
O5 O -0.293(9) 0.2690(18) -0.2500
O6 O -0.395(6) 0.2806(13) -0.336(2)
loop_
_geom_bond_atom_site_label_1
_geom_bond_atom_site_label_2
_geom_bond_site_symmetry_1
_geom_bond_site_symmetry_2
Hg1 I1 1_555 1_555
Hg2 I3 1_555 1_555
Hg3 I5 1_555 1_555
I2 Hg1 1_555 1_555
I4 Hg2 1_555 1_555
O1 C7 1_555 1_555
O2 C7 1_555 1_555
O3 C3 1_555 1_555
O4 C5 1_555 1_555
N1 Hg1 1_555 1_555
N2 Hg3 1_555 1_555
N3 Hg2 1_555 1_555
C1 C2 1_555 1_555
C2 H1 1_555 1_555
C3 C2 1_555 1_555
C4 C3 1_555 1_555
H2 C4 1_555 1_555
C5 C4 1_555 1_555
C6 C1 1_555 1_555
H3 C6 1_555 1_555
C7 C1 1_555 1_555
C8 O2 1_555 1_555
H4 C8 1_555 1_555
H5 C8 1_555 1_555
C9 C8 1_555 1_555
C10 C9 1_555 1_555
H6 C10 1_555 1_555
C11 N1 1_555 1_555
H7 C11 1_555 1_555
C12 N1 1_555 1_555
H8 C12 1_555 1_555
C13 C9 1_555 1_555
H9 C13 1_555 1_555
C14 O3 1_555 1_555
H10 C14 1_555 1_555
H11 C14 1_555 1_555
C15 C14 1_555 1_555
C16 C15 1_555 1_555
H12 C16 1_555 1_555
C17 N2 1_555 1_555
H13 C17 1_555 1_555
C18 N2 1_555 1_555
H14 C18 1_555 1_555
C19 C15 1_555 1_555
H15 C19 1_555 1_555
C20 O4 1_555 1_555
H16 C20 1_555 1_555
H17 C20 1_555 1_555
C21 C20 1_555 1_555
C22 C21 1_555 1_555
H18 C22 1_555 1_555
C23 N3 1_555 1_555
H19 C23 1_555 1_555
C24 N3 1_555 1_555
H20 C24 1_555 1_555
C25 C21 1_555 1_555
H21 C25 1_555 1_555
Hg3E N2E 1_555 1_555
I5B Hg3 1_555 1_555
O1E C7E 1_555 1_555
O2E C7E 1_555 1_555
O3E C3E 1_555 1_555
O4E C5E 1_555 1_555
N1E Hg1 1_555 1_555
N2E C17E 1_555 1_555
N2B Hg3 1_555 1_555
N3E Hg2 1_555 1_555
C1E C2E 1_555 1_555
C2E H1E 1_555 1_555
C3E C2E 1_555 1_555
C4E C3E 1_555 1_555
H2E C4E 1_555 1_555
C5E C4E 1_555 1_555
C6E C1E 1_555 1_555
H3E C6E 1_555 1_555
C7E C1E 1_555 1_555
C8E O2E 1_555 1_555
H4E C8E 1_555 1_555
H5E C8E 1_555 1_555
C9E C8E 1_555 1_555
C10E C9E 1_555 1_555
H6E C10E 1_555 1_555
C11E N1E 1_555 1_555
H7E C11E 1_555 1_555
C12E N1E 1_555 1_555
H8E C12E 1_555 1_555
C13E C9E 1_555 1_555
H9E C13E 1_555 1_555
C14E O3E 1_555 1_555
H10E C14E 1_555 1_555
H11E C14E 1_555 1_555
C15E C14E 1_555 1_555
C16E C15E 1_555 1_555
H12E C16E 1_555 1_555
C17E C16E 1_555 1_555
H13E C17E 1_555 1_555
C18E N2E 1_555 1_555
H14E C18E 1_555 1_555
C19E C15E 1_555 1_555
H15E C19E 1_555 1_555
C20E O4E 1_555 1_555
H16E C20E 1_555 1_555
H17E C20E 1_555 1_555
C21E C20E 1_555 1_555
C22E C21E 1_555 1_555
H18E C22E 1_555 1_555
C23E N3E 1_555 1_555
H19E C23E 1_555 1_555
C24E N3E 1_555 1_555
H20E C24E 1_555 1_555
C25E C21E 1_555 1_555
H21E C25E 1_555 1_555
C5 C6 1_555 1_555
C10 C11 1_555 1_555
C12 C13 1_555 1_555
C16 C17 1_555 1_555
C18 C19 1_555 1_555
C22 C23 1_555 1_555
C24 C25 1_555 1_555
C5E C6E 1_555 1_555
C10E C11E 1_555 1_555
C12E C13E 1_555 1_555
C18E C19E 1_555 1_555
C22E C23E 1_555 1_555
C24E C25E 1_555 1_555

#END
