
#######################################################################
#
#                 Cambridge Crystallographic Data Centre
#                                CCDC 
#
#######################################################################
#
# If this CIF has been generated from an entry in the Cambridge 
# Structural Database, then it will include bibliographic, chemical, 
# crystal, experimental, refinement or atomic coordinate data resulting 
# from the CCDC's data processing and validation procedures.
#
#######################################################################

data_LACDUQ
_symmetry_cell_setting           orthorhombic
_symmetry_space_group_name_H-M   'P m m n'
_symmetry_Int_Tables_number      59
_space_group_name_Hall           '-P 2ab 2a'
loop_
_symmetry_equiv_pos_site_id
_symmetry_equiv_pos_as_xyz
1 x,y,z
2 1/2-x,1/2-y,z
3 1/2+x,-y,-z
4 -x,1/2+y,-z
5 -x,-y,-z
6 1/2+x,1/2+y,-z
7 1/2-x,y,z
8 x,1/2-y,z
_cell_length_a                   22.988(11)
_cell_length_b                   25.016(12)
_cell_length_c                   13.119(5)
_cell_angle_alpha                90
_cell_angle_beta                 90
_cell_angle_gamma                90
_cell_volume                     7544.31
loop_
_atom_site_label
_atom_site_type_symbol
_atom_site_fract_x
_atom_site_fract_y
_atom_site_fract_z
Cl2 Cl 0.0522(3) 0.7500 0.8759(4)
O12 O 0.0298(13) 0.7500 0.980(2)
O13 O 0.0059(7) 0.7500 0.8066(14)
O14 O 0.0825(11) 0.7101(8) 0.8643(15)
O14G O 0.0825(11) 0.7899(8) 0.8643(15)
Cl3 Cl 0.0572(6) 0.7500 0.3776(8)
O15 O 0.0035(17) 0.7500 0.443(4)
O16 O 0.1189(12) 0.7500 0.409(3)
O17 O 0.0471(12) 0.7052(9) 0.3149(19)
O17G O 0.0471(12) 0.7948(9) 0.3149(19)
O4 O 0.2500 0.2500 0.1874(16)
O5 O 0.2500 0.7500 0.361(6)
O6 O 0.2500 0.7500 0.210(6)
O8 O 0.2500 0.7500 0.624(3)
O9 O 0.4978(18) 0.2500 0.870(3)
O10 O 0.2500 0.2500 0.414(7)
O11 O 0.2500 0.544(2) 0.199(3)
N8 N 0.2500 0.2500 0.864(4)
C34 C 0.2500 0.2500 0.778(4)
C35 C 0.2500 0.2500 0.661(4)
N9 N 0.2500 0.4729(17) 0.261(3)
C36 C 0.2500 0.4330(18) 0.304(3)
C37 C 0.2500 0.3892(18) 0.387(3)
Cu1 Cu 0.06940(7) 0.50051(6) 0.71461(11)
Cu2 Cu 0.07390(7) 0.49210(6) 1.03825(12)
Cl1 Cl 0.02777(15) 0.51511(14) 0.8761(2)
O1 O 0.0680(4) 0.6357(4) 0.5384(5)
O2 O 0.0805(5) 0.3859(4) 0.4707(7)
O3 O 0.1157(5) 0.6286(4) 0.1980(6)
O19 O 0.1476(4) 0.3514(4) 0.7074(7)
O20 O 0.2013(4) 0.5729(4) 0.8268(7)
O21 O 0.1447(4) 0.3422(3) 0.9956(8)
N1 N 0.0650(4) 0.5686(4) 0.6467(7)
N2 N 0.0959(5) 0.3794(4) 0.3034(8)
N3 N 0.0993(4) 0.5591(4) 0.0959(6)
N4 N 0.2004(5) 0.5792(5) 0.5137(9)
N5 N 0.0961(6) 0.4271(5) 0.7115(7)
N7 N 0.0970(5) 0.4176(4) 1.0226(7)
C1 C 0.0742(4) 0.5510(5) 0.4624(8)
C2 C 0.0729(5) 0.4960(5) 0.4648(9)
H1 H 0.0644 0.4784 0.5273
C3 C 0.0837(5) 0.4657(6) 0.3787(8)
C4 C 0.0923(5) 0.4925(5) 0.2855(10)
H2 H 0.0978 0.4722 0.2251
C5 C 0.0929(5) 0.5477(6) 0.2798(8)
C6 C 0.0838(5) 0.5776(5) 0.3688(8)
H3 H 0.0842 0.6155 0.3662
C7 C 0.0700(5) 0.5841(5) 0.5541(8)
C8 C 0.0609(6) 0.6165(5) 0.7100(9)
H4 H 0.0903 0.6157 0.7651
H5 H 0.0217 0.6195 0.7411
C9 C 0.0722(6) 0.6632(6) 0.6370(9)
H6 H 0.0423 0.6915 0.6438
H7 H 0.1113 0.6789 0.6476
C10 C 0.0852(6) 0.4088(6) 0.3817(10)
C11 C 0.0970(9) 0.3254(7) 0.3328(12)
H8 H 0.1349 0.3088 0.3163
H9 H 0.0656 0.3050 0.2989
C12 C 0.0870(8) 0.3283(6) 0.4535(12)
H10 H 0.0514 0.3086 0.4739
H11 H 0.1207 0.3137 0.4911
C13 C 0.1019(5) 0.5769(5) 0.1858(8)
C14 C 0.1176(7) 0.6026(5) 0.0262(8)
H12 H 0.0890 0.6079 -0.0294
H13 H 0.1564 0.5954 -0.0036
C15 C 0.1191(11) 0.6518(6) 0.1006(8)
H14 H 0.1557 0.6723 0.0925
H15 H 0.0857 0.6760 0.0882
C16 C 0.2500 0.5047(8) 0.5929(14)
C17 C 0.1970(6) 0.4801(6) 0.6239(8)
H16 H 0.1611 0.4980 0.6133
C18 C 0.1976(5) 0.4328(5) 0.6667(8)
C19 C 0.2500 0.4058(8) 0.6890(12)
H17 H 0.2500 0.3710 0.7177
C20 C 0.2500 0.5577(8) 0.5383(14)
C21 C 0.2152(7) 0.6272(6) 0.4590(14)
H18 H 0.1997 0.6593 0.4941
H19 H 0.1997 0.6262 0.3886
C22 C 0.1448(6) 0.4047(7) 0.6972(8)
C23 C 0.0525(7) 0.3830(6) 0.7348(12)
H20 H 0.0328 0.3894 0.8008
H21 H 0.0227 0.3804 0.6804
C24 C 0.0892(7) 0.3334(7) 0.7388(11)
H22 H 0.0901 0.3184 0.8087
H23 H 0.0741 0.3058 0.6916
C25 C 0.2500 0.4968(8) 0.8983(11)
C26 C 0.1978(5) 0.4706(5) 0.9214(8)
H24 H 0.1619 0.4875 0.9054
C27 C 0.1971(6) 0.4227(5) 0.9650(9)
C28 C 0.2500 0.3983(8) 0.9900(15)
H25 H 0.2500 0.3648 1.0241
C29 C 0.2500 0.5505(8) 0.8485(14)
C30 C 0.2174(6) 0.6226(6) 0.7768(10)
H26 H 0.2021 0.6538 0.8149
H27 H 0.2021 0.6238 0.7063
C31 C 0.1421(7) 0.3962(5) 0.9969(9)
C32 C 0.0543(6) 0.3749(5) 1.0459(10)
H28 H 0.0223 0.3747 0.9953
H29 H 0.0376 0.3797 1.1148
C33 C 0.0893(7) 0.3240(6) 1.0398(12)
H30 H 0.0953 0.3083 1.1083
H31 H 0.0701 0.2973 0.9954
Cu1F Cu 0.43060(7) 0.50051(6) 0.71461(11)
Cu1D Cu -0.06940(7) 0.49949(6) 1.28539(11)
Cu1_2 Cu 0.06940(7) 0.50051(6) -0.28539(11)
Cu1_3 Cu 0.06940(7) 0.50051(6) 1.71461(11)
Cu1D_2 Cu -0.06940(7) 0.49949(6) 0.28539(11)
Cu1B Cu -0.43060(7) 0.49949(6) 1.28539(11)
Cu2D Cu -0.07390(7) 0.50790(6) 0.96175(12)
Cu2_2 Cu 0.07390(7) 0.49210(6) 0.03825(12)
Cu2F Cu 0.42610(7) 0.49210(6) 1.03825(12)
Cu2B Cu 0.57390(7) 0.50790(6) 0.96175(12)
Cu2F_2 Cu 0.42610(7) 0.49210(6) 0.03825(12)
Cu2B_2 Cu -0.42610(7) 0.50790(6) 0.96175(12)
Cu2D_2 Cu -0.07390(7) 0.50790(6) -0.03825(12)
Cl1D Cl -0.02777(15) 0.48489(14) 1.1239(2)
Cl1F Cl 0.47223(15) 0.51511(14) 0.8761(2)
Cl1_2 Cl 0.02777(15) 0.51511(14) -0.1239(2)
Cl1D_2 Cl -0.02777(15) 0.48489(14) 0.1239(2)
Cl1B Cl 0.52777(15) 0.48489(14) 1.1239(2)
O1_2 O 0.0680(4) 0.6357(4) 1.5384(5)
O1F O 0.4320(4) 0.6357(4) 0.5384(5)
O1D O -0.0680(4) 0.3643(4) 0.4616(5)
O2_2 O 0.0805(5) 0.3859(4) 1.4707(7)
O2F O 0.4195(5) 0.3859(4) 0.4707(7)
O2D O -0.0805(5) 0.6141(4) 0.5293(7)
O3_2 O 0.1157(5) 0.6286(4) 1.1980(6)
O3F O 0.3843(5) 0.6286(4) 0.1980(6)
O3D O -0.1157(5) 0.3714(4) 0.8020(6)
O19F O 0.3524(4) 0.3514(4) 0.7074(7)
O19D O -0.1476(4) 0.6486(4) 1.2926(7)
O19B O -0.3524(4) 0.6486(4) 1.2926(7)
O20F O 0.2987(4) 0.5729(4) 0.8268(7)
O20D O -0.2013(4) 0.4271(4) 1.1732(7)
O20B O -0.2987(4) 0.4271(4) 1.1732(7)
O21F O 0.3553(4) 0.3422(3) 0.9956(8)
O21D O -0.1447(4) 0.6578(3) 1.0044(8)
O21B O -0.3553(4) 0.6578(3) 1.0044(8)
N1_2 N 0.0650(4) 0.5686(4) 1.6467(7)
N1F N 0.4350(4) 0.5686(4) 0.6467(7)
N1D N -0.0650(4) 0.4314(4) 0.3533(7)
N1D_2 N -0.0650(4) 0.4314(4) 1.3533(7)
N1_3 N 0.0650(4) 0.5686(4) -0.3533(7)
N2_2 N 0.0959(5) 0.3794(4) 1.3034(8)
N2F N 0.4041(5) 0.3794(4) 0.3034(8)
N2D N -0.0959(5) 0.6206(4) 0.6966(8)
N3_2 N 0.0993(4) 0.5591(4) 1.0959(6)
N3F N 0.4007(4) 0.5591(4) 0.0959(6)
N3D N -0.0993(4) 0.4409(4) 0.9041(6)
N3F_2 N 0.4007(4) 0.5591(4) 1.0959(6)
N4F N 0.2996(5) 0.5792(5) 0.5137(9)
N4D N -0.2004(5) 0.4208(5) 1.4863(9)
N4B N -0.2996(5) 0.4208(5) 1.4863(9)
N5F N 0.4039(6) 0.4271(5) 0.7115(7)
N5D N -0.0961(6) 0.5729(5) 1.2885(7)
N5B N -0.4039(6) 0.5729(5) 1.2885(7)
N5_2 N 0.0961(6) 0.4271(5) -0.2885(7)
N7F N 0.4030(5) 0.4176(4) 1.0226(7)
N7D N -0.0970(5) 0.5824(4) 0.9774(7)
N7B N -0.4030(5) 0.5824(4) 0.9774(7)
N7_2 N 0.0970(5) 0.4176(4) 0.0226(7)
C1_2 C 0.0742(4) 0.5510(5) 1.4624(8)
C1F C 0.4258(4) 0.5510(5) 0.4624(8)
C1D C -0.0742(4) 0.4490(5) 0.5376(8)
C2_2 C 0.0729(5) 0.4960(5) 1.4648(9)
C2F C 0.4271(5) 0.4960(5) 0.4648(9)
C2D C -0.0729(5) 0.5040(5) 0.5352(9)
H1_2 H 0.0644 0.4784 1.5273
H1F H 0.4356 0.4784 0.5273
H1D H -0.0644 0.5216 0.4727
C3_2 C 0.0837(5) 0.4657(6) 1.3787(8)
C3F C 0.4163(5) 0.4657(6) 0.3787(8)
C3D C -0.0837(5) 0.5343(6) 0.6213(8)
C4_2 C 0.0923(5) 0.4925(5) 1.2855(10)
C4F C 0.4077(5) 0.4925(5) 0.2855(10)
C4D C -0.0923(5) 0.5075(5) 0.7145(10)
H2_2 H 0.0978 0.4722 1.2251
H2F H 0.4022 0.4722 0.2251
H2D H -0.0978 0.5278 0.7749
C5_2 C 0.0929(5) 0.5477(6) 1.2798(8)
C5F C 0.4071(5) 0.5477(6) 0.2798(8)
C5D C -0.0929(5) 0.4523(6) 0.7202(8)
C6_2 C 0.0838(5) 0.5776(5) 1.3688(8)
C6F C 0.4162(5) 0.5776(5) 0.3688(8)
C6D C -0.0838(5) 0.4224(5) 0.6312(8)
H3_2 H 0.0842 0.6155 1.3662
H3F H 0.4158 0.6155 0.3662
H3D H -0.0842 0.3845 0.6338
C7_2 C 0.0700(5) 0.5841(5) 1.5541(8)
C7F C 0.4300(5) 0.5841(5) 0.5541(8)
C7D C -0.0700(5) 0.4159(5) 0.4459(8)
C8_2 C 0.0609(6) 0.6165(5) 1.7100(9)
C8F C 0.4391(6) 0.6165(5) 0.7100(9)
C8D C -0.0609(6) 0.3835(5) 0.2900(9)
H4_2 H 0.0903 0.6157 1.7651
H4F H 0.4097 0.6157 0.7651
H4D H -0.0903 0.3843 0.2349
H5_2 H 0.0217 0.6195 1.7411
H5F H 0.4783 0.6195 0.7411
H5D H -0.0217 0.3805 0.2589
C9_2 C 0.0722(6) 0.6632(6) 1.6370(9)
C9F C 0.4278(6) 0.6632(6) 0.6370(9)
C9D C -0.0722(6) 0.3368(6) 0.3630(9)
H6_2 H 0.0423 0.6915 1.6438
H6F H 0.4577 0.6915 0.6438
H6D H -0.0423 0.3085 0.3562
H7_2 H 0.1113 0.6789 1.6476
H7F H 0.3887 0.6789 0.6476
H7D H -0.1113 0.3211 0.3524
C10_2 C 0.0852(6) 0.4088(6) 1.3817(10)
C10F C 0.4148(6) 0.4088(6) 0.3817(10)
C10D C -0.0852(6) 0.5912(6) 0.6183(10)
C11_2 C 0.0970(9) 0.3254(7) 1.3328(12)
C11F C 0.4030(9) 0.3254(7) 0.3328(12)
C11D C -0.0970(9) 0.6746(7) 0.6672(12)
H8_2 H 0.1349 0.3088 1.3163
H8F H 0.3651 0.3088 0.3163
H8D H -0.1349 0.6912 0.6837
H9_2 H 0.0656 0.3050 1.2989
H9F H 0.4344 0.3050 0.2989
H9D H -0.0656 0.6950 0.7011
C12_2 C 0.0870(8) 0.3283(6) 1.4535(12)
C12F C 0.4130(8) 0.3283(6) 0.4535(12)
C12D C -0.0870(8) 0.6717(6) 0.5465(12)
H10_2 H 0.0514 0.3086 1.4739
H10F H 0.4486 0.3086 0.4739
H10D H -0.0514 0.6914 0.5261
H11_2 H 0.1207 0.3137 1.4911
H11F H 0.3793 0.3137 0.4911
H11D H -0.1207 0.6863 0.5089
C13_2 C 0.1019(5) 0.5769(5) 1.1858(8)
C13F C 0.3981(5) 0.5769(5) 0.1858(8)
C13D C -0.1019(5) 0.4231(5) 0.8142(8)
C14_2 C 0.1176(7) 0.6026(5) 1.0262(8)
C14F C 0.3824(7) 0.6026(5) 0.0262(8)
C14D C -0.1176(7) 0.3974(5) 0.9738(8)
H12_2 H 0.0890 0.6079 0.9706
H12F H 0.4110 0.6079 -0.0294
H12D H -0.0890 0.3921 1.0294
H13_2 H 0.1564 0.5954 0.9964
H13F H 0.3436 0.5954 -0.0036
H13D H -0.1564 0.4046 1.0036
C15_2 C 0.1191(11) 0.6518(6) 1.1006(8)
C15F C 0.3809(11) 0.6518(6) 0.1006(8)
C15D C -0.1191(11) 0.3482(6) 0.8994(8)
H14_2 H 0.1557 0.6723 1.0925
H14F H 0.3443 0.6723 0.0925
H14D H -0.1557 0.3277 0.9075
H15_2 H 0.0857 0.6760 1.0882
H15F H 0.4143 0.6760 0.0882
H15D H -0.0857 0.3240 0.9118
C16B C -0.2500 0.4953(8) 1.4071(14)
C17F C 0.3030(6) 0.4801(6) 0.6239(8)
C17D C -0.1970(6) 0.5199(6) 1.3761(8)
C17B C -0.3030(6) 0.5199(6) 1.3761(8)
H16F H 0.3389 0.4980 0.6133
H16D H -0.1611 0.5020 1.3867
H16B H -0.3389 0.5020 1.3867
C18F C 0.3024(5) 0.4328(5) 0.6667(8)
C18D C -0.1976(5) 0.5672(5) 1.3333(8)
C18B C -0.3024(5) 0.5672(5) 1.3333(8)
C19B C -0.2500 0.5942(8) 1.3110(12)
H17B H -0.2500 0.6290 1.2823
C20B C -0.2500 0.4423(8) 1.4617(14)
C21F C 0.2848(7) 0.6272(6) 0.4590(14)
C21D C -0.2152(7) 0.3728(6) 1.5410(14)
C21B C -0.2848(7) 0.3728(6) 1.5410(14)
H18F H 0.3003 0.6593 0.4941
H18D H -0.1997 0.3407 1.5059
H18B H -0.3003 0.3407 1.5059
H19F H 0.3003 0.6262 0.3886
H19D H -0.1997 0.3738 1.6114
H19B H -0.3003 0.3738 1.6114
C22F C 0.3552(6) 0.4047(7) 0.6972(8)
C22D C -0.1448(6) 0.5953(7) 1.3028(8)
C22B C -0.3552(6) 0.5953(7) 1.3028(8)
C23F C 0.4475(7) 0.3830(6) 0.7348(12)
C23D C -0.0525(7) 0.6170(6) 1.2652(12)
C23B C -0.4475(7) 0.6170(6) 1.2652(12)
H20F H 0.4672 0.3894 0.8008
H20D H -0.0328 0.6106 1.1992
H20B H -0.4672 0.6106 1.1992
H21F H 0.4773 0.3804 0.6804
H21D H -0.0227 0.6196 1.3196
H21B H -0.4773 0.6196 1.3196
C24F C 0.4108(7) 0.3334(7) 0.7388(11)
C24D C -0.0892(7) 0.6666(7) 1.2612(11)
C24B C -0.4108(7) 0.6666(7) 1.2612(11)
H22F H 0.4099 0.3184 0.8087
H22D H -0.0901 0.6816 1.1913
H22B H -0.4099 0.6816 1.1913
H23F H 0.4259 0.3058 0.6916
H23D H -0.0741 0.6942 1.3084
H23B H -0.4259 0.6942 1.3084
C25B C -0.2500 0.5032(8) 1.1017(11)
C26F C 0.3022(5) 0.4706(5) 0.9214(8)
C26D C -0.1978(5) 0.5294(5) 1.0786(8)
C26B C -0.3022(5) 0.5294(5) 1.0786(8)
H24F H 0.3381 0.4875 0.9054
H24D H -0.1619 0.5125 1.0946
H24B H -0.3381 0.5125 1.0946
C27F C 0.3029(6) 0.4227(5) 0.9650(9)
C27D C -0.1971(6) 0.5773(5) 1.0350(9)
C27B C -0.3029(6) 0.5773(5) 1.0350(9)
C28B C -0.2500 0.6017(8) 1.0100(15)
H25B H -0.2500 0.6352 0.9759
C29B C -0.2500 0.4495(8) 1.1515(14)
C30F C 0.2826(6) 0.6226(6) 0.7768(10)
C30D C -0.2174(6) 0.3774(6) 1.2232(10)
C30B C -0.2826(6) 0.3774(6) 1.2232(10)
H26F H 0.2979 0.6538 0.8149
H26D H -0.2021 0.3462 1.1851
H26B H -0.2979 0.3462 1.1851
H27F H 0.2979 0.6238 0.7063
H27D H -0.2021 0.3762 1.2937
H27B H -0.2979 0.3762 1.2937
C31F C 0.3579(7) 0.3962(5) 0.9969(9)
C31D C -0.1421(7) 0.6038(5) 1.0031(9)
C31B C -0.3579(7) 0.6038(5) 1.0031(9)
C32F C 0.4457(6) 0.3749(5) 1.0459(10)
C32D C -0.0543(6) 0.6251(5) 0.9541(10)
C32B C -0.4457(6) 0.6251(5) 0.9541(10)
H28F H 0.4777 0.3747 0.9953
H28D H -0.0223 0.6253 1.0047
H28B H -0.4777 0.6253 1.0047
H29F H 0.4624 0.3797 1.1148
H29D H -0.0376 0.6203 0.8852
H29B H -0.4624 0.6203 0.8852
C33F C 0.4107(7) 0.3240(6) 1.0398(12)
C33D C -0.0893(7) 0.6760(6) 0.9602(12)
C33B C -0.4107(7) 0.6760(6) 0.9602(12)
H30F H 0.4047 0.3083 1.1083
H30D H -0.0953 0.6917 0.8917
H30B H -0.4047 0.6917 0.8917
H31F H 0.4299 0.2973 0.9954
H31D H -0.0701 0.7027 1.0046
H31B H -0.4299 0.7027 1.0046
O7? O 0.2500 0.7500 0.114(13)
O18? O 0.2004(5) 0.5792(5) 0.5137(9)
N6? N 0.2013(4) 0.5729(4) 0.8268(7)
H32? H 0.2613 0.2854 0.6357
H33? H 0.2109 0.2413 0.6357
H34? H 0.2777 0.2233 0.6357
H35? H 0.2251 0.4003 0.4434
H36? H 0.2898 0.3836 0.4113
H37? H 0.2351 0.3557 0.3577
loop_
_geom_bond_atom_site_label_1
_geom_bond_atom_site_label_2
_geom_bond_site_symmetry_1
_geom_bond_site_symmetry_2
Cu1 Cl1 1_555 1_555
Cu2 Cl1 1_555 1_555
Cl1 Cu2D 1_555 1_555
Cl2 O12 1_555 1_555
Cl3 O15 1_555 1_555
O1 C7 1_555 1_555
O2 C10 1_555 1_555
O3 C13 1_555 1_555
O13 Cl2 1_555 1_555
O14 Cl2 1_555 1_555
O16 Cl3 1_555 1_555
O17 Cl3 1_555 1_555
O19 C22 1_555 1_555
O20 C29 1_555 1_555
O21 C31 1_555 1_555
N1 Cu1 1_555 1_555
N2 C10 1_555 1_555
N3 C13 1_555 1_555
N4 C20 1_555 1_555
N5 Cu1 1_555 1_555
N7 Cu2 1_555 1_555
N8 C34 1_555 1_555
N9 C36 1_555 1_555
C1 C2 1_555 1_555
C2 H1 1_555 1_555
C3 C2 1_555 1_555
C4 C3 1_555 1_555
H2 C4 1_555 1_555
C5 C4 1_555 1_555
C6 C1 1_555 1_555
H3 C6 1_555 1_555
C7 N1 1_555 1_555
C8 N1 1_555 1_555
H4 C8 1_555 1_555
H5 C8 1_555 1_555
C9 O1 1_555 1_555
H6 C9 1_555 1_555
H7 C9 1_555 1_555
C10 C3 1_555 1_555
C11 N2 1_555 1_555
H8 C11 1_555 1_555
H9 C11 1_555 1_555
C12 O2 1_555 1_555
H10 C12 1_555 1_555
H11 C12 1_555 1_555
C13 C5 1_555 1_555
C14 N3 1_555 1_555
H12 C14 1_555 1_555
H13 C14 1_555 1_555
C15 O3 1_555 1_555
H14 C15 1_555 1_555
H15 C15 1_555 1_555
C16 C17 1_555 1_555
C17 H16 1_555 1_555
C18 C17 1_555 1_555
C19 C18 1_555 1_555
H17 C19 1_555 1_555
C20 C16 1_555 1_555
C21 N4 1_555 1_555
H18 C21 1_555 1_555
H19 C21 1_555 1_555
C22 N5 1_555 1_555
C23 N5 1_555 1_555
H20 C23 1_555 1_555
H21 C23 1_555 1_555
C24 O19 1_555 1_555
H22 C24 1_555 1_555
H23 C24 1_555 1_555
C25 C26 1_555 1_555
C26 H24 1_555 1_555
C27 C26 1_555 1_555
C28 C27 1_555 1_555
H25 C28 1_555 1_555
C29 C25 1_555 1_555
C30 O20 1_555 1_555
H26 C30 1_555 1_555
H27 C30 1_555 1_555
C31 N7 1_555 1_555
C32 N7 1_555 1_555
H28 C32 1_555 1_555
H29 C32 1_555 1_555
C33 O21 1_555 1_555
H30 C33 1_555 1_555
H31 C33 1_555 1_555
C34 C35 1_555 1_555
C36 C37 1_555 1_555
Cu1F Cl1F 1_555 1_555
Cu1D Cl1D 1_555 1_555
Cu1_2 Cl1_2 1_555 1_555
Cu1_3 N1_2 1_555 1_555
Cu1D_2 Cl1D_2 1_555 1_555
Cu1B N5B 1_555 1_555
Cu2D Cl1D 1_555 1_555
Cu2_2 N3 1_555 1_555
Cu2F Cl1F 1_555 1_555
Cu2B Cl1F 1_555 1_555
Cu2F_2 N3F 1_555 1_555
Cu2B_2 N7B 1_555 1_555
Cu2D_2 Cl1_2 1_555 1_555
Cl1D Cu2 1_555 1_555
Cl1_2 Cu2_2 1_555 1_555
Cl1D_2 Cu2_2 1_555 1_555
Cl1B Cu2F 1_555 1_555
O1_2 C7_2 1_555 1_555
O1F C7F 1_555 1_555
O1D C7D 1_555 1_555
O2_2 C10_2 1_555 1_555
O2F C10F 1_555 1_555
O2D C10D 1_555 1_555
O3_2 C13_2 1_555 1_555
O3F C13F 1_555 1_555
O3D C13D 1_555 1_555
O14G Cl2 1_555 1_555
O17G Cl3 1_555 1_555
O19F C22F 1_555 1_555
O19D C22D 1_555 1_555
O19B C22B 1_555 1_555
O20F C29 1_555 1_555
O20D C29B 1_555 1_555
O20B C29B 1_555 1_555
O21F C31F 1_555 1_555
O21D C31D 1_555 1_555
O21B C31B 1_555 1_555
N1_2 C7_2 1_555 1_555
N1F Cu1F 1_555 1_555
N1D Cu1D_2 1_555 1_555
N1D_2 Cu1D 1_555 1_555
N1_3 Cu1_2 1_555 1_555
N2_2 C10_2 1_555 1_555
N2F C10F 1_555 1_555
N2D C10D 1_555 1_555
N3_2 Cu2 1_555 1_555
N3F C13F 1_555 1_555
N3D Cu2D 1_555 1_555
N3F_2 Cu2F 1_555 1_555
N4F C20 1_555 1_555
N4D C20B 1_555 1_555
N4B C20B 1_555 1_555
N5F Cu1F 1_555 1_555
N5D Cu1D 1_555 1_555
N5B C22B 1_555 1_555
N5_2 Cu1_2 1_555 1_555
N7F Cu2F 1_555 1_555
N7D Cu2D 1_555 1_555
N7B C31B 1_555 1_555
N7_2 Cu2_2 1_555 1_555
C1_2 C2_2 1_555 1_555
C1F C2F 1_555 1_555
C1D C2D 1_555 1_555
C2_2 H1_2 1_555 1_555
C2F H1F 1_555 1_555
C2D H1D 1_555 1_555
C3_2 C2_2 1_555 1_555
C3F C2F 1_555 1_555
C3D C2D 1_555 1_555
C4_2 C3_2 1_555 1_555
C4F C3F 1_555 1_555
C4D C3D 1_555 1_555
H2_2 C4_2 1_555 1_555
H2F C4F 1_555 1_555
H2D C4D 1_555 1_555
C5_2 C4_2 1_555 1_555
C5F C4F 1_555 1_555
C5D C4D 1_555 1_555
C6_2 C1_2 1_555 1_555
C6F C1F 1_555 1_555
C6D C1D 1_555 1_555
H3_2 C6_2 1_555 1_555
H3F C6F 1_555 1_555
H3D C6D 1_555 1_555
C7_2 C1_2 1_555 1_555
C7F N1F 1_555 1_555
C7D N1D 1_555 1_555
C8_2 N1_2 1_555 1_555
C8F N1F 1_555 1_555
C8D N1D 1_555 1_555
H4_2 C8_2 1_555 1_555
H4F C8F 1_555 1_555
H4D C8D 1_555 1_555
H5_2 C8_2 1_555 1_555
H5F C8F 1_555 1_555
H5D C8D 1_555 1_555
C9_2 O1_2 1_555 1_555
C9F O1F 1_555 1_555
C9D O1D 1_555 1_555
H6_2 C9_2 1_555 1_555
H6F C9F 1_555 1_555
H6D C9D 1_555 1_555
H7_2 C9_2 1_555 1_555
H7F C9F 1_555 1_555
H7D C9D 1_555 1_555
C10_2 C3_2 1_555 1_555
C10F C3F 1_555 1_555
C10D C3D 1_555 1_555
C11_2 N2_2 1_555 1_555
C11F N2F 1_555 1_555
C11D N2D 1_555 1_555
H8_2 C11_2 1_555 1_555
H8F C11F 1_555 1_555
H8D C11D 1_555 1_555
H9_2 C11_2 1_555 1_555
H9F C11F 1_555 1_555
H9D C11D 1_555 1_555
C12_2 O2_2 1_555 1_555
C12F O2F 1_555 1_555
C12D O2D 1_555 1_555
H10_2 C12_2 1_555 1_555
H10F C12F 1_555 1_555
H10D C12D 1_555 1_555
H11_2 C12_2 1_555 1_555
H11F C12F 1_555 1_555
H11D C12D 1_555 1_555
C13_2 N3_2 1_555 1_555
C13F C5F 1_555 1_555
C13D N3D 1_555 1_555
C14_2 N3_2 1_555 1_555
C14F N3F 1_555 1_555
C14D N3D 1_555 1_555
H12_2 C14_2 1_555 1_555
H12F C14F 1_555 1_555
H12D C14D 1_555 1_555
H13_2 C14_2 1_555 1_555
H13F C14F 1_555 1_555
H13D C14D 1_555 1_555
C15_2 O3_2 1_555 1_555
C15F O3F 1_555 1_555
C15D O3D 1_555 1_555
H14_2 C15_2 1_555 1_555
H14F C15F 1_555 1_555
H14D C15D 1_555 1_555
H15_2 C15_2 1_555 1_555
H15F C15F 1_555 1_555
H15D C15D 1_555 1_555
C16B C17D 1_555 1_555
C17F C16 1_555 1_555
C17D H16D 1_555 1_555
C17B C16B 1_555 1_555
H16F C17F 1_555 1_555
H16B C17B 1_555 1_555
C18F C19 1_555 1_555
C18D C17D 1_555 1_555
C18B C17B 1_555 1_555
C19B C18D 1_555 1_555
H17B C19B 1_555 1_555
C20B C16B 1_555 1_555
C21F C21 1_555 1_555
C21D N4D 1_555 1_555
C21B N4B 1_555 1_555
H18F C21F 1_555 1_555
H18D C21D 1_555 1_555
H18B C21B 1_555 1_555
H19F C21F 1_555 1_555
H19D C21D 1_555 1_555
H19B C21B 1_555 1_555
C22F N5F 1_555 1_555
C22D N5D 1_555 1_555
C22B C18B 1_555 1_555
C23F N5F 1_555 1_555
C23D N5D 1_555 1_555
C23B N5B 1_555 1_555
H20F C23F 1_555 1_555
H20D C23D 1_555 1_555
H20B C23B 1_555 1_555
H21F C23F 1_555 1_555
H21D C23D 1_555 1_555
H21B C23B 1_555 1_555
C24F O19F 1_555 1_555
C24D O19D 1_555 1_555
C24B O19B 1_555 1_555
H22F C24F 1_555 1_555
H22D C24D 1_555 1_555
H22B C24B 1_555 1_555
H23F C24F 1_555 1_555
H23D C24D 1_555 1_555
H23B C24B 1_555 1_555
C25B C26D 1_555 1_555
C26F C25 1_555 1_555
C26D H24D 1_555 1_555
C26B C25B 1_555 1_555
H24F C26F 1_555 1_555
H24B C26B 1_555 1_555
C27F C28 1_555 1_555
C27D C26D 1_555 1_555
C27B C26B 1_555 1_555
C28B C27D 1_555 1_555
H25B C28B 1_555 1_555
C29B C25B 1_555 1_555
C30F C30 1_555 1_555
C30D O20D 1_555 1_555
C30B O20B 1_555 1_555
H26F C30F 1_555 1_555
H26D C30D 1_555 1_555
H26B C30B 1_555 1_555
H27F C30F 1_555 1_555
H27D C30D 1_555 1_555
H27B C30B 1_555 1_555
C31F N7F 1_555 1_555
C31D N7D 1_555 1_555
C31B C27B 1_555 1_555
C32F N7F 1_555 1_555
C32D N7D 1_555 1_555
C32B N7B 1_555 1_555
H28F C32F 1_555 1_555
H28D C32D 1_555 1_555
H28B C32B 1_555 1_555
H29F C32F 1_555 1_555
H29D C32D 1_555 1_555
H29B C32B 1_555 1_555
C33F O21F 1_555 1_555
C33D O21D 1_555 1_555
C33B O21B 1_555 1_555
H30F C33F 1_555 1_555
H30D C33D 1_555 1_555
H30B C33B 1_555 1_555
H31F C33F 1_555 1_555
H31D C33D 1_555 1_555
H31B C33B 1_555 1_555
C1 C7 1_555 1_555
C5 C6 1_555 1_555
C8 C9 1_555 1_555
C11 C12 1_555 1_555
C14 C15 1_555 1_555
C18 C22 1_555 1_555
C23 C24 1_555 1_555
C27 C31 1_555 1_555
C32 C33 1_555 1_555
Cu2B Cl1B 1_555 1_555
Cu2D_2 Cl1D_2 1_555 1_555
O20F C30F 1_555 1_555
N4F C21F 1_555 1_555
C1F C7F 1_555 1_555
C1D C7D 1_555 1_555
C5_2 C6_2 1_555 1_555
C5_2 C13_2 1_555 1_555
C5F C6F 1_555 1_555
C5D C6D 1_555 1_555
C5D C13D 1_555 1_555
C8_2 C9_2 1_555 1_555
C8F C9F 1_555 1_555
C8D C9D 1_555 1_555
C11_2 C12_2 1_555 1_555
C11F C12F 1_555 1_555
C11D C12D 1_555 1_555
C14_2 C15_2 1_555 1_555
C14F C15F 1_555 1_555
C14D C15D 1_555 1_555
C17F C18F 1_555 1_555
C18F C22F 1_555 1_555
C18D C22D 1_555 1_555
C18B C19B 1_555 1_555
C21D C21B 1_555 1_555
C23F C24F 1_555 1_555
C23D C24D 1_555 1_555
C23B C24B 1_555 1_555
C26F C27F 1_555 1_555
C27F C31F 1_555 1_555
C27D C31D 1_555 1_555
C27B C28B 1_555 1_555
C30D C30B 1_555 1_555
C32F C33F 1_555 1_555
C32D C33D 1_555 1_555
C32B C33B 1_555 1_555

#END
