
#######################################################################
#
#                 Cambridge Crystallographic Data Centre
#                                CCDC 
#
#######################################################################
#
# If this CIF has been generated from an entry in the Cambridge 
# Structural Database, then it will include bibliographic, chemical, 
# crystal, experimental, refinement or atomic coordinate data resulting 
# from the CCDC's data processing and validation procedures.
#
#######################################################################

data_LACDEA
_symmetry_cell_setting           monoclinic
_symmetry_space_group_name_H-M   'C 2/c'
_symmetry_Int_Tables_number      15
_space_group_name_Hall           '-C 2yn'
loop_
_symmetry_equiv_pos_site_id
_symmetry_equiv_pos_as_xyz
1 x,y,z
2 -x,y,1/2-z
3 1/2+x,1/2+y,z
4 1/2-x,1/2+y,1/2-z
5 -x,-y,-z
6 x,-y,1/2+z
7 1/2-x,1/2-y,-z
8 1/2+x,1/2-y,1/2+z
_cell_length_a                   28.9050(19)
_cell_length_b                   10.3312(3)
_cell_length_c                   22.738(3)
_cell_angle_alpha                90
_cell_angle_beta                 118.362(11)
_cell_angle_gamma                90
_cell_volume                     5975.04
loop_
_atom_site_label
_atom_site_type_symbol
_atom_site_fract_x
_atom_site_fract_y
_atom_site_fract_z
Zn1 Zn 0.64237(2) 0.43810(6) 0.13050(3)
Zn2 Zn 0.0000 -0.55439(9) -0.2500
Cl1 Cl 0.62190(6) 0.63521(13) 0.14695(7)
Cl2 Cl 0.70648(6) 0.41250(17) 0.10389(9)
Cl3 Cl -0.00819(6) -0.66167(16) -0.33939(9)
O1 O 0.36260(13) -0.0142(4) -0.14917(16)
O2 O 0.41577(12) 0.0930(3) -0.05556(15)
O3 O 0.32013(15) 0.1557(4) 0.07079(18)
O4 O 0.20298(13) -0.1027(4) -0.11242(17)
N1 N 0.58045(15) 0.3398(4) 0.05910(19)
N2 N 0.33708(16) 0.3419(4) 0.2822(2)
N3 N 0.06223(15) -0.4325(4) -0.2218(2)
C1 C 0.33231(19) 0.0349(5) -0.0703(2)
C2 C 0.3435(2) 0.0955(5) -0.0110(2)
H1 H 0.3751 0.1393 0.0132
C3 C 0.3071(2) 0.0903(5) 0.0121(2)
C4 C 0.2605(2) 0.0234(5) -0.0228(3)
H2 H 0.2364 0.0190 -0.0066
C5 C 0.25017(19) -0.0370(5) -0.0822(2)
C6 C 0.28545(19) -0.0319(5) -0.1069(2)
H3 H 0.2781 -0.0722 -0.1470
C7 C 0.3705(2) 0.0342(4) -0.0972(2)
C8 C 0.45430(18) 0.1010(5) -0.0781(2)
H4 H 0.4389 0.1381 -0.1226
H5 H 0.4676 0.0155 -0.0795
C9 C 0.49803(18) 0.1855(5) -0.0296(2)
C10 C 0.54852(19) 0.1723(5) -0.0223(2)
H6 H 0.5553 0.1112 -0.0473
C11 C 0.58786(19) 0.2498(5) 0.0218(2)
H7 H 0.6213 0.2400 0.0262
C12 C 0.53207(19) 0.3532(5) 0.0512(2)
H8 H 0.5263 0.4159 0.0763
C13 C 0.49025(19) 0.2793(5) 0.0078(2)
H9 H 0.4570 0.2925 0.0037
C14 C 0.2848(2) 0.1461(6) 0.0962(3)
H10 H 0.2795 0.0556 0.1028
H11 H 0.2511 0.1818 0.0641
C15 C 0.30453(19) 0.2177(5) 0.1622(3)
C16 C 0.3534(2) 0.2695(5) 0.1936(3)
H12 H 0.3761 0.2645 0.1754
C17 C 0.3683(2) 0.3315(6) 0.2554(3)
H13 H 0.4019 0.3666 0.2781
C18 C 0.2882(2) 0.2887(5) 0.2486(3)
H14 H 0.2658 0.2941 0.2673
C19 C 0.2708(2) 0.2276(6) 0.1884(3)
H15 H 0.2370 0.1938 0.1660
C20 C 0.1928(2) -0.1775(6) -0.1692(3)
H16 H 0.2238 -0.2275 -0.1607
H17 H 0.1846 -0.1210 -0.2070
C21 C 0.14743(18) -0.2670(5) -0.1850(2)
C22 C 0.1116(2) -0.2453(6) -0.1628(3)
H18 H 0.1151 -0.1753 -0.1352
C23 C 0.0698(2) -0.3311(7) -0.1826(3)
H19 H 0.0456 -0.3164 -0.1673
C24 C 0.09793(17) -0.4511(5) -0.2429(2)
H20 H 0.0936 -0.5213 -0.2707
C25 C 0.14036(18) -0.3715(5) -0.2256(2)
H21 H 0.1642 -0.3883 -0.2412
Zn1A Zn -0.64237(2) 0.43810(6) -0.63050(3)
Zn1A_2 Zn 0.35763(2) 0.43810(6) 0.36950(3)
Zn1_2 Zn -0.35763(2) 0.43810(6) -0.86950(3)
Cl1A Cl -0.62190(6) 0.63521(13) -0.64695(7)
Cl2A Cl -0.70648(6) 0.41250(17) -0.60389(9)
Cl3A Cl 0.00819(6) -0.66167(16) -0.16061(9)
O1A O -0.36260(13) -0.0142(4) -0.35083(16)
O2A O -0.41577(12) 0.0930(3) -0.44444(15)
O3A O -0.32013(15) 0.1557(4) -0.57079(18)
O4A O -0.20298(13) -0.1027(4) -0.38758(17)
N1A N -0.58045(15) 0.3398(4) -0.55910(19)
N2A N -0.33708(16) 0.3419(4) -0.7822(2)
N2A_2 N 0.66292(16) 0.3419(4) 0.2178(2)
N2_2 N -0.66292(16) 0.3419(4) -0.7178(2)
N3A N -0.06223(15) -0.4325(4) -0.2782(2)
C1A C -0.33231(19) 0.0349(5) -0.4297(2)
C2A C -0.3435(2) 0.0955(5) -0.4890(2)
H1A H -0.3751 0.1393 -0.5132
C3A C -0.3071(2) 0.0903(5) -0.5121(2)
C4A C -0.2605(2) 0.0234(5) -0.4772(3)
H2A H -0.2364 0.0190 -0.4934
C5A C -0.25017(19) -0.0370(5) -0.4178(2)
C6A C -0.28545(19) -0.0319(5) -0.3931(2)
H3A H -0.2781 -0.0722 -0.3530
C7A C -0.3705(2) 0.0342(4) -0.4028(2)
C8A C -0.45430(18) 0.1010(5) -0.4219(2)
H4A H -0.4389 0.1381 -0.3774
H5A H -0.4676 0.0155 -0.4205
C9A C -0.49803(18) 0.1855(5) -0.4704(2)
C10A C -0.54852(19) 0.1723(5) -0.4777(2)
H6A H -0.5553 0.1112 -0.4527
C11A C -0.58786(19) 0.2498(5) -0.5218(2)
H7A H -0.6213 0.2400 -0.5262
C12A C -0.53207(19) 0.3532(5) -0.5512(2)
H8A H -0.5263 0.4159 -0.5763
C13A C -0.49025(19) 0.2793(5) -0.5078(2)
H9A H -0.4570 0.2925 -0.5037
C14A C -0.2848(2) 0.1461(6) -0.5962(3)
H10A H -0.2795 0.0556 -0.6028
H11A H -0.2511 0.1818 -0.5641
C15A C -0.30453(19) 0.2177(5) -0.6622(3)
C16A C -0.3534(2) 0.2695(5) -0.6936(3)
H12A H -0.3761 0.2645 -0.6754
C17A C -0.3683(2) 0.3315(6) -0.7554(3)
H13A H -0.4019 0.3666 -0.7781
C18A C -0.2882(2) 0.2887(5) -0.7486(3)
H14A H -0.2658 0.2941 -0.7673
C19A C -0.2708(2) 0.2276(6) -0.6884(3)
H15A H -0.2370 0.1938 -0.6660
C20A C -0.1928(2) -0.1775(6) -0.3308(3)
H16A H -0.2238 -0.2275 -0.3393
H17A H -0.1846 -0.1210 -0.2930
C21A C -0.14743(18) -0.2670(5) -0.3150(2)
C22A C -0.1116(2) -0.2453(6) -0.3372(3)
H18A H -0.1151 -0.1753 -0.3648
C23A C -0.0698(2) -0.3311(7) -0.3174(3)
H19A H -0.0456 -0.3164 -0.3327
C24A C -0.09793(17) -0.4511(5) -0.2571(2)
H20A H -0.0936 -0.5213 -0.2293
C25A C -0.14036(18) -0.3715(5) -0.2744(2)
H21A H -0.1642 -0.3883 -0.2588
C26 C 0.3931(3) 0.4455(8) 0.0590(5)
H22 H 0.3761 0.4196 0.0846
H23 H 0.3874 0.3808 0.0260
H24 H 0.3787 0.5265 0.0373
O5 O 0.4411(4) 0.4581(16) 0.0969(7)
H25 H 0.4519 0.5338 0.1118
O6 O 0.0155(5) 0.1247(12) 0.1681(6)
O7? O 0.018(2) -0.022(3) 0.249(3)
loop_
_geom_bond_atom_site_label_1
_geom_bond_atom_site_label_2
_geom_bond_site_symmetry_1
_geom_bond_site_symmetry_2
Zn1 Cl1 1_555 1_555
Zn2 Cl3 1_555 1_555
Cl2 Zn1 1_555 1_555
O1 C7 1_555 1_555
O2 C7 1_555 1_555
O3 C3 1_555 1_555
O4 C5 1_555 1_555
N1 Zn1 1_555 1_555
N2 C17 1_555 1_555
N3 Zn2 1_555 1_555
C1 C2 1_555 1_555
C2 H1 1_555 1_555
C3 C2 1_555 1_555
C4 C3 1_555 1_555
H2 C4 1_555 1_555
C5 C4 1_555 1_555
C6 C1 1_555 1_555
H3 C6 1_555 1_555
C7 C1 1_555 1_555
C8 O2 1_555 1_555
H4 C8 1_555 1_555
H5 C8 1_555 1_555
C9 C8 1_555 1_555
C10 C9 1_555 1_555
H6 C10 1_555 1_555
C11 N1 1_555 1_555
H7 C11 1_555 1_555
C12 N1 1_555 1_555
H8 C12 1_555 1_555
C13 C9 1_555 1_555
H9 C13 1_555 1_555
C14 O3 1_555 1_555
H10 C14 1_555 1_555
H11 C14 1_555 1_555
C15 C14 1_555 1_555
C16 C15 1_555 1_555
H12 C16 1_555 1_555
C17 C16 1_555 1_555
H13 C17 1_555 1_555
C18 N2 1_555 1_555
H14 C18 1_555 1_555
C19 C15 1_555 1_555
H15 C19 1_555 1_555
C20 O4 1_555 1_555
H16 C20 1_555 1_555
H17 C20 1_555 1_555
C21 C20 1_555 1_555
C22 C21 1_555 1_555
H18 C22 1_555 1_555
C23 N3 1_555 1_555
H19 C23 1_555 1_555
C24 N3 1_555 1_555
H20 C24 1_555 1_555
C25 C21 1_555 1_555
H21 C25 1_555 1_555
C26 H22 1_555 1_555
H23 C26 1_555 1_555
H24 C26 1_555 1_555
O5 C26 1_555 1_555
H25 O5 1_555 1_555
Zn1A Cl1A 1_555 1_555
Zn1A_2 N2 1_555 1_555
Zn1_2 N2A 1_555 1_555
Cl2A Zn1A 1_555 1_555
Cl3A Zn2 1_555 1_555
O1A C7A 1_555 1_555
O2A C7A 1_555 1_555
O3A C3A 1_555 1_555
O4A C5A 1_555 1_555
N1A Zn1A 1_555 1_555
N2A C17A 1_555 1_555
N2A_2 Zn1 1_555 1_555
N2_2 Zn1A 1_555 1_555
N3A Zn2 1_555 1_555
C1A C2A 1_555 1_555
C2A H1A 1_555 1_555
C3A C2A 1_555 1_555
C4A C3A 1_555 1_555
H2A C4A 1_555 1_555
C5A C4A 1_555 1_555
C6A C1A 1_555 1_555
H3A C6A 1_555 1_555
C7A C1A 1_555 1_555
C8A O2A 1_555 1_555
H4A C8A 1_555 1_555
H5A C8A 1_555 1_555
C9A C8A 1_555 1_555
C10A C9A 1_555 1_555
H6A C10A 1_555 1_555
C11A N1A 1_555 1_555
H7A C11A 1_555 1_555
C12A N1A 1_555 1_555
H8A C12A 1_555 1_555
C13A C9A 1_555 1_555
H9A C13A 1_555 1_555
C14A O3A 1_555 1_555
H10A C14A 1_555 1_555
H11A C14A 1_555 1_555
C15A C14A 1_555 1_555
C16A C15A 1_555 1_555
H12A C16A 1_555 1_555
C17A C16A 1_555 1_555
H13A C17A 1_555 1_555
C18A N2A 1_555 1_555
H14A C18A 1_555 1_555
C19A C15A 1_555 1_555
H15A C19A 1_555 1_555
C20A O4A 1_555 1_555
H16A C20A 1_555 1_555
H17A C20A 1_555 1_555
C21A C20A 1_555 1_555
C22A C21A 1_555 1_555
H18A C22A 1_555 1_555
C23A N3A 1_555 1_555
H19A C23A 1_555 1_555
C24A N3A 1_555 1_555
H20A C24A 1_555 1_555
C25A C21A 1_555 1_555
H21A C25A 1_555 1_555
C5 C6 1_555 1_555
C10 C11 1_555 1_555
C12 C13 1_555 1_555
C18 C19 1_555 1_555
C22 C23 1_555 1_555
C24 C25 1_555 1_555
C5A C6A 1_555 1_555
C10A C11A 1_555 1_555
C12A C13A 1_555 1_555
C18A C19A 1_555 1_555
C22A C23A 1_555 1_555
C24A C25A 1_555 1_555

#END
