
#######################################################################
#
#                 Cambridge Crystallographic Data Centre
#                                CCDC 
#
#######################################################################
#
# If this CIF has been generated from an entry in the Cambridge 
# Structural Database, then it will include bibliographic, chemical, 
# crystal, experimental, refinement or atomic coordinate data resulting 
# from the CCDC's data processing and validation procedures.
#
#######################################################################

data_LACDIE
_symmetry_cell_setting           triclinic
_symmetry_space_group_name_H-M   'P -1'
_symmetry_Int_Tables_number      2
_space_group_name_Hall           '-P 1'
loop_
_symmetry_equiv_pos_site_id
_symmetry_equiv_pos_as_xyz
1 x,y,z
2 -x,-y,-z
_cell_length_a                   13.9131(8)
_cell_length_b                   14.4528(9)
_cell_length_c                   20.5450(10)
_cell_angle_alpha                76.2060(10)
_cell_angle_beta                 74.4060(10)
_cell_angle_gamma                64.9360(10)
_cell_volume                     3567.57
loop_
_atom_site_label
_atom_site_type_symbol
_atom_site_fract_x
_atom_site_fract_y
_atom_site_fract_z
Cu1 Cu -0.17831(5) 0.83010(5) 0.10174(3)
Cu2 Cu 0.18420(6) 0.61040(5) 0.05761(4)
O1 O -0.2341(3) 1.1195(3) -0.0513(2)
O3 O -0.0688(4) 0.9252(4) 0.23090(18)
O5 O -0.1815(3) 0.9179(3) -0.10513(17)
O6 O 0.1591(3) 0.6682(3) -0.14733(18)
O7 O 0.1578(4) 0.3642(3) 0.19964(19)
O8 O -0.2524(3) 0.5725(3) 0.1176(2)
N1 N -0.1959(4) 1.2609(4) -0.0769(2)
N2 N -0.1414(4) 0.8670(3) 0.1735(2)
N3 N -0.2015(3) 0.8795(3) 0.0084(2)
N4 N 0.1907(3) 0.6286(3) -0.0406(2)
N5 N 0.1729(4) 0.5068(3) 0.1354(2)
N6 N -0.2120(4) 0.7002(4) 0.1305(2)
C1 C -0.1205(4) 1.1253(4) 0.0150(2)
C2 C -0.1478(4) 1.0575(4) 0.0693(2)
H1 H -0.2083 1.0433 0.0725
C3 C -0.0839(4) 1.0108(4) 0.1189(2)
C4 C 0.0055(4) 1.0332(4) 0.1139(2)
H2 H 0.0455 1.0050 0.1486
C5 C 0.0363(4) 1.0970(4) 0.0580(2)
C6 C -0.0273(4) 1.1426(4) 0.0085(2)
H3 H -0.0073 1.1852 -0.0295
C7 C -0.1853(4) 1.1752(4) -0.0398(3)
C8 C -0.2639(7) 1.2743(6) -0.1250(4)
H4 H -0.3295 1.3358 -0.1196
H5 H -0.2251 1.2800 -0.1718
C9 C -0.2895(5) 1.1802(5) -0.1076(3)
H6 H -0.2629 1.1425 -0.1463
H7 H -0.3669 1.1980 -0.0937
C10 C -0.1027(4) 0.9315(4) 0.1745(2)
C11 C -0.1433(6) 0.8027(5) 0.2423(3)
H8 H -0.2169 0.8156 0.2667
H9 H -0.1059 0.7298 0.2385
C12 C -0.0850(7) 0.8376(6) 0.2778(3)
H10 H -0.0163 0.7830 0.2852
H11 H -0.1284 0.8583 0.3214
C13 C -0.1422(4) 0.8970(4) -0.0483(3)
C14 C -0.3054(4) 0.8939(5) -0.0065(3)
H12 H -0.3636 0.9538 0.0116
H13 H -0.3230 0.8336 0.0127
C15 C -0.2865(5) 0.9094(5) -0.0835(3)
H14 H -0.2853 0.8511 -0.0998
H15 H -0.3425 0.9717 -0.1004
C16 C 0.0205(4) 0.6352(4) -0.0603(2)
C17 C -0.0191(4) 0.6170(4) -0.1093(3)
H16 H -0.0171 0.3822 0.1545
C18 C -0.1125(4) 0.5977(4) -0.0902(2)
C19 C -0.1701(4) 0.6006(4) -0.0240(3)
H17 H 0.2330 0.4125 0.0118
C20 C -0.1328(4) 0.6237(4) 0.0246(2)
C21 C -0.0363(4) 0.6386(4) 0.0063(2)
H18 H -0.0097 0.6510 0.0389
C22 C 0.1272(4) 0.6439(4) -0.0801(3)
C23 C 0.2917(5) 0.6344(5) -0.0849(3)
H19 H -0.3505 0.4329 0.0833
H20 H -0.3119 0.3176 0.0713
C24 C 0.2645(5) 0.6719(6) -0.1555(3)
H21 H -0.2615 0.2583 0.1713
H22 H -0.3178 0.3727 0.1878
C25 C 0.1498(4) 0.4287(4) 0.1417(3)
C26 C 0.2040(7) 0.5022(6) 0.2000(3)
H23 H 0.2759 0.5024 0.1915
H24 H 0.1533 0.5601 0.2235
C27 C 0.2008(7) 0.4010(6) 0.2415(3)
H25 H 0.1538 0.4119 0.2858
H26 H 0.2726 0.3524 0.2481
C28 C -0.1990(4) 0.6352(4) 0.0939(3)
C29 C -0.2874(6) 0.6846(6) 0.1942(3)
H27 H -0.3501 0.7479 0.2016
H28 H -0.2521 0.6613 0.2333
C30 C -0.3189(7) 0.6035(7) 0.1830(4)
H29 H -0.3042 0.5453 0.2193
H30 H -0.3951 0.6312 0.1812
Cu1A Cu 0.17831(5) 1.16990(5) -0.10174(3)
Cu1A_2 Cu 0.17831(5) 0.16990(5) -0.10174(3)
Cu2A Cu -0.18420(6) 1.38960(5) -0.05761(4)
Cu2A_2 Cu -0.18420(6) 0.38960(5) -0.05761(4)
O1A O 0.2341(3) 0.8805(3) 0.0513(2)
O3A O 0.0688(4) 1.0748(4) -0.23090(18)
O5A O 0.1815(3) 1.0821(3) 0.10513(17)
O6A O -0.1591(3) 0.3318(3) 0.14733(18)
O7A O -0.1578(4) 0.6358(3) -0.19964(19)
O8A O 0.2524(3) 0.4275(3) -0.1176(2)
N1A N 0.1959(4) 0.7391(4) 0.0769(2)
N1_2 N -0.1959(4) 0.2609(4) -0.0769(2)
N2A N 0.1414(4) 1.1330(3) -0.1735(2)
N3A N 0.2015(3) 1.1205(3) -0.0084(2)
N4A N -0.1907(3) 0.3714(3) 0.0406(2)
N5A N -0.1729(4) 0.4932(3) -0.1354(2)
N6A N 0.2120(4) 0.2998(4) -0.1305(2)
N6A_2 N 0.2120(4) 1.2998(4) -0.1305(2)
C1A C 0.1205(4) 0.8747(4) -0.0150(2)
C2A C 0.1478(4) 0.9425(4) -0.0693(2)
H1A H 0.2083 0.9567 -0.0725
C3A C 0.0839(4) 0.9892(4) -0.1189(2)
C4A C -0.0055(4) 0.9668(4) -0.1139(2)
H2A H -0.0455 0.9950 -0.1486
C5A C -0.0363(4) 0.9030(4) -0.0580(2)
C6A C 0.0273(4) 0.8574(4) -0.0085(2)
H3A H 0.0073 0.8148 0.0295
C7A C 0.1853(4) 0.8248(4) 0.0398(3)
C8A C 0.2639(7) 0.7257(6) 0.1250(4)
H4A H 0.3295 0.6642 0.1196
H5A H 0.2251 0.7200 0.1718
C9A C 0.2895(5) 0.8198(5) 0.1076(3)
H6A H 0.2629 0.8575 0.1463
H7A H 0.3669 0.8020 0.0937
C10A C 0.1027(4) 1.0685(4) -0.1745(2)
C11A C 0.1433(6) 1.1973(5) -0.2423(3)
H8A H 0.2169 1.1844 -0.2667
H9A H 0.1059 1.2702 -0.2385
C12A C 0.0850(7) 1.1624(6) -0.2778(3)
H10A H 0.0163 1.2170 -0.2852
H11A H 0.1284 1.1417 -0.3214
C13A C 0.1422(4) 1.1030(4) 0.0483(3)
C14A C 0.3054(4) 1.1061(5) 0.0065(3)
H12A H 0.3636 1.0462 -0.0116
H13A H 0.3230 1.1664 -0.0127
C15A C 0.2865(5) 1.0906(5) 0.0835(3)
H14A H 0.2853 1.1489 0.0998
H15A H 0.3425 1.0283 0.1004
C16A C -0.0205(4) 0.3648(4) 0.0603(2)
C17A C 0.0191(4) 0.3830(4) 0.1093(3)
H16A H 0.0171 0.6178 -0.1545
C18A C 0.1125(4) 0.4023(4) 0.0902(2)
C19A C 0.1701(4) 0.3994(4) 0.0240(3)
H17A H -0.2330 0.5875 -0.0118
C20A C 0.1328(4) 0.3763(4) -0.0246(2)
C21A C 0.0363(4) 0.3614(4) -0.0063(2)
H18A H 0.0097 0.3490 -0.0389
C22A C -0.1272(4) 0.3561(4) 0.0801(3)
C23A C -0.2917(5) 0.3656(5) 0.0849(3)
H19A H 0.3505 0.5671 -0.0833
H20A H 0.3119 0.6824 -0.0713
C24A C -0.2645(5) 0.3281(6) 0.1555(3)
H21A H 0.2615 0.7417 -0.1713
H22A H 0.3178 0.6273 -0.1878
C25A C -0.1498(4) 0.5713(4) -0.1417(3)
C26A C -0.2040(7) 0.4978(6) -0.2000(3)
H23A H -0.2759 0.4976 -0.1915
H24A H -0.1533 0.4399 -0.2235
C27A C -0.2008(7) 0.5990(6) -0.2415(3)
H25A H -0.1538 0.5881 -0.2858
H26A H -0.2726 0.6476 -0.2481
C28A C 0.1990(4) 0.3648(4) -0.0939(3)
C29A C 0.2874(6) 0.3154(6) -0.1942(3)
H27A H 0.3501 0.2521 -0.2016
H28A H 0.2521 0.3387 -0.2333
C30A C 0.3189(7) 0.3965(7) -0.1830(4)
H29A H 0.3042 0.4547 -0.2193
H30A H 0.3951 0.3688 -0.1812
Cu3 Cu -0.68889(5) 0.13198(6) -0.64108(3)
Cu4 Cu -0.71212(6) -0.23722(6) -0.50186(4)
O9 O -0.8038(3) 0.2196(3) -0.44647(19)
O10 O -0.3968(3) -0.2580(4) -0.5221(3)
O11 O -0.6274(3) -0.0342(4) -0.2576(2)
O12 O -0.8736(4) -0.2935(4) -0.6186(3)
O13 O -0.8502(3) -0.0590(3) -0.34263(18)
O14 O -0.9718(3) 0.1261(4) -0.67019(18)
N7 N -0.7464(3) 0.1909(3) -0.5552(2)
N8 N -0.5549(4) -0.2560(4) -0.5285(3)
N9 N -0.4493(4) -0.1033(4) -0.2959(2)
N10 N -0.7642(4) -0.2934(4) -0.5566(2)
N11 N -0.7794(4) -0.1672(4) -0.4200(2)
N12 N -0.8080(3) 0.1190(3) -0.6720(2)
C31 C -0.6685(4) 0.0536(4) -0.4651(3)
C32 C -0.6222(4) -0.0290(4) -0.5015(3)
H31 H -0.6384 -0.0212 -0.5441
C33 C -0.5512(4) -0.1242(4) -0.4746(3)
C34 C -0.5243(4) -0.1336(5) -0.4123(3)
H32 H -0.4745 -0.1957 -0.3950
C35 C -0.5708(4) -0.0512(5) -0.3759(3)
C36 C -0.6440(4) 0.0417(4) -0.4013(3)
H33 H -0.6769 0.0963 -0.3760
C37 C -0.7400(4) 0.1557(4) -0.4926(3)
C38 C -0.8223(5) 0.2996(5) -0.5586(3)
H34 H -0.8807 0.3114 -0.5808
H35 H -0.7856 0.3453 -0.5832
C39 C -0.8646(5) 0.3159(5) -0.4841(3)
H36 H -0.8522 0.3728 -0.4756
H37 H -0.9414 0.3303 -0.4715
C40 C -0.5051(4) -0.2137(5) -0.5101(3)
C41 C -0.4730(5) -0.3453(6) -0.5607(4)
H38 H -0.4774 -0.3374 -0.6081
H39 H -0.4815 -0.4087 -0.5369
C42 C -0.3677(6) -0.3452(7) -0.5547(5)
H40 H -0.3283 -0.4083 -0.5275
H41 H -0.3229 -0.3390 -0.5994
C43 C -0.5434(5) -0.0643(5) -0.3090(3)
C44 C -0.4623(5) -0.1071(7) -0.2212(3)
H42 H -0.4337 -0.1778 -0.1990
H43 H -0.4257 -0.0689 -0.2120
C45 C -0.5808(5) -0.0584(7) -0.1975(3)
H44 H -0.6067 -0.1056 -0.1628
H45 H -0.5994 0.0038 -0.1786
C46 C -0.9534(4) -0.1748(4) -0.5385(3)
C47 C -1.0149(4) -0.0917(4) -0.5784(3)
H46 H -0.9976 -0.0887 -0.6256
C48 C -1.1029(4) -0.0119(4) -0.5487(3)
C49 C -1.1305(4) -0.0190(4) -0.4778(2)
H47 H -1.1889 0.0338 -0.4573
C50 C -1.0703(4) -0.1055(4) -0.4382(2)
C51 C -0.9805(4) -0.1818(4) -0.4678(3)
H48 H -0.9384 -0.2376 -0.4407
C52 C -0.8578(5) -0.2561(5) -0.5707(3)
C53 C -0.6971(6) -0.3761(6) -0.5979(4)
H49 H -0.6326 -0.3654 -0.6244
H50 H -0.6759 -0.4426 -0.5692
C54 C -0.7689(5) -0.3704(6) -0.6446(4)
H51 H -0.7735 -0.4366 -0.6411
H52 H -0.7420 -0.3483 -0.6918
C55 C -0.8371(4) -0.0779(4) -0.4066(3)
C56 C -0.7906(5) -0.1551(6) -0.3049(3)
H53 H -0.8379 -0.1760 -0.2656
H54 H -0.7336 -0.1496 -0.2894
C57 C -0.7449(6) -0.2297(6) -0.3549(4)
H55 H -0.7732 -0.2838 -0.3396
H56 H -0.6667 -0.2611 -0.3610
C58 C -0.8969(4) 0.1168(4) -0.6376(3)
C59 C -0.8123(5) 0.1258(5) -0.7442(3)
H57 H -0.7633 0.0620 -0.7620
H58 H -0.7937 0.1823 -0.7723
C60 C -0.9278(5) 0.1444(7) -0.7424(3)
H59 H -0.9664 0.2147 -0.7620
H60 H -0.9316 0.0971 -0.7672
Cu3A Cu -0.31111(5) -0.13198(6) -0.35892(3)
Cu3A_2 Cu -1.31111(5) -0.13198(6) -0.35892(3)
Cu3_2 Cu -1.68889(5) 0.13198(6) -0.64108(3)
Cu4A Cu -1.28788(6) 0.23722(6) -0.49814(4)
O9A O -1.1962(3) -0.2196(3) -0.55353(19)
O10A O -1.6032(3) 0.2580(4) -0.4779(3)
O11A O -1.3726(3) 0.0342(4) -0.7424(2)
O12A O -1.1264(4) 0.2935(4) -0.3814(3)
O13A O -1.1498(3) 0.0590(3) -0.65737(18)
O14A O -1.0282(3) -0.1261(4) -0.32981(18)
N7A N -1.2536(3) -0.1909(3) -0.4448(2)
N8A N -1.4451(4) 0.2560(4) -0.4715(3)
N9A N -0.5507(4) 0.1033(4) -0.7041(2)
N9_2 N -1.4493(4) -0.1033(4) -0.2959(2)
N9A_2 N -1.5507(4) 0.1033(4) -0.7041(2)
N10A N -1.2358(4) 0.2934(4) -0.4434(2)
N11A N -1.2206(4) 0.1672(4) -0.5800(2)
N12A N -1.1920(3) -0.1190(3) -0.3280(2)
C31A C -1.3315(4) -0.0536(4) -0.5349(3)
C32A C -1.3778(4) 0.0290(4) -0.4985(3)
H31A H -1.3616 0.0212 -0.4559
C33A C -1.4488(4) 0.1242(4) -0.5254(3)
C34A C -1.4757(4) 0.1336(5) -0.5877(3)
H32A H -1.5255 0.1957 -0.6050
C35A C -1.4292(4) 0.0512(5) -0.6241(3)
C36A C -1.3560(4) -0.0417(4) -0.5987(3)
H33A H -1.3231 -0.0963 -0.6240
C37A C -1.2600(4) -0.1557(4) -0.5074(3)
C38A C -1.1777(5) -0.2996(5) -0.4414(3)
H34A H -1.1193 -0.3114 -0.4192
H35A H -1.2144 -0.3453 -0.4168
C39A C -1.1354(5) -0.3159(5) -0.5159(3)
H36A H -1.1478 -0.3728 -0.5244
H37A H -1.0586 -0.3303 -0.5285
C40A C -1.4949(4) 0.2137(5) -0.4899(3)
C41A C -1.5270(5) 0.3453(6) -0.4393(4)
H38A H -1.5226 0.3374 -0.3919
H39A H -1.5185 0.4087 -0.4631
C42A C -1.6323(6) 0.3452(7) -0.4453(5)
H40A H -1.6717 0.4083 -0.4725
H41A H -1.6771 0.3390 -0.4006
C43A C -1.4566(5) 0.0643(5) -0.6910(3)
C44A C -1.5377(5) 0.1071(7) -0.7788(3)
H42A H -1.5663 0.1778 -0.8010
H43A H -1.5743 0.0689 -0.7880
C45A C -1.4192(5) 0.0584(7) -0.8025(3)
H44A H -1.3933 0.1056 -0.8372
H45A H -1.4006 -0.0038 -0.8214
C46A C -1.0466(4) 0.1748(4) -0.4615(3)
C47A C -0.9851(4) 0.0917(4) -0.4216(3)
H46A H -1.0024 0.0887 -0.3744
C48A C -0.8971(4) 0.0119(4) -0.4513(3)
C49A C -0.8695(4) 0.0190(4) -0.5222(2)
H47A H -0.8111 -0.0338 -0.5427
C50A C -0.9297(4) 0.1055(4) -0.5618(2)
C51A C -1.0195(4) 0.1818(4) -0.5322(3)
H48A H -1.0616 0.2376 -0.5593
C52A C -1.1422(5) 0.2561(5) -0.4293(3)
C53A C -1.3029(6) 0.3761(6) -0.4021(4)
H49A H -1.3674 0.3654 -0.3756
H50A H -1.3241 0.4426 -0.4308
C54A C -1.2311(5) 0.3704(6) -0.3554(4)
H51A H -1.2265 0.4366 -0.3589
H52A H -1.2580 0.3483 -0.3082
C55A C -1.1629(4) 0.0779(4) -0.5934(3)
C56A C -1.2094(5) 0.1551(6) -0.6951(3)
H53A H -1.1621 0.1760 -0.7344
H54A H -1.2664 0.1496 -0.7106
C57A C -1.2551(6) 0.2297(6) -0.6451(4)
H55A H -1.2268 0.2838 -0.6604
H56A H -1.3333 0.2611 -0.6390
C58A C -1.1031(4) -0.1168(4) -0.3624(3)
C59A C -1.1877(5) -0.1258(5) -0.2558(3)
H57A H -1.2367 -0.0620 -0.2380
H58A H -1.2063 -0.1823 -0.2277
C60A C -1.0722(5) -0.1444(7) -0.2576(3)
H59A H -1.0336 -0.2147 -0.2380
H60A H -1.0684 -0.0971 -0.2328
Cl1 Cl -0.52456(15) 0.24228(19) -0.96000(10)
O15 O -0.6159(5) 0.2836(5) -0.9094(3)
O16 O -0.4344(5) 0.2551(7) -0.9552(4)
O17 O -0.5535(6) 0.2763(8) -1.0246(3)
O18 O -0.4955(6) 0.1328(5) -0.9474(4)
Cl2 Cl -0.53669(15) 0.39895(16) -0.70608(13)
O19 O -0.6383(17) 0.401(3) -0.6841(13)
O20 O -0.514(2) 0.4034(18) -0.6425(13)
O21 O -0.4679(5) 0.3040(5) -0.7294(3)
O22 O -0.5670(9) 0.4776(8) -0.7568(6)
O2 O 0.4005(7) 0.5111(7) 0.0531(5)
O4 O -0.6400(11) -0.4214(10) -0.4241(7)
Cl3 Cl -0.8968(2) 0.5350(2) -0.3390(2)
O23 O -0.9519(14) 0.6393(7) -0.3289(10)
O24 O -0.7841(6) 0.5050(11) -0.3440(6)
O25 O -0.9316(11) 0.4720(12) -0.2804(10)
O26 O -0.9194(18) 0.5248(19) -0.4003(10)
Cl4 Cl -0.6046(5) 0.8425(3) -0.7257(3)
O27 O -0.6140(16) 0.9058(11) -0.7896(5)
O28 O -0.568(2) 0.7363(9) -0.7357(13)
O29 O -0.5209(9) 0.8500(9) -0.6990(6)
O30 O -0.7038(11) 0.8699(12) -0.6779(8)
Cl5? Cl -0.8968(2) 0.5350(2) -0.3390(2)
Cl6? Cl -0.6046(5) 0.8425(3) -0.7257(3)
O31? O -0.545(3) 0.329(2) -0.972(4)
O32? O -0.621(3) 0.390(2) -0.659(2)
O33? O -0.4643(14) 0.4366(14) -0.7042(13)
O34? O -0.9936(11) 0.6242(10) -0.3348(13)
O35? O -0.836(3) 0.533(3) -0.2926(18)
O36? O -0.906(2) 0.4402(12) -0.3351(10)
O37? O -0.839(3) 0.5537(15) -0.4087(10)
O38? O -0.5619(17) 0.8926(18) -0.7874(8)
O39? O -0.5371(14) 0.7356(7) -0.7149(10)
O40? O -0.6136(14) 0.8900(8) -0.6689(6)
O41? O -0.7160(10) 0.8583(14) -0.7255(9)
loop_
_geom_bond_atom_site_label_1
_geom_bond_atom_site_label_2
_geom_bond_site_symmetry_1
_geom_bond_site_symmetry_2
Cu1 N2 1_555 1_555
Cu2 N4 1_555 1_555
Cu3 N7 1_555 1_555
Cu4 N8 1_555 1_555
Cl1 O15 1_555 1_555
Cl2 O19 1_555 1_555
O1 C7 1_555 1_555
O3 C10 1_555 1_555
O5 C13 1_555 1_555
O6 C22 1_555 1_555
O7 C25 1_555 1_555
O8 C28 1_555 1_555
O9 C37 1_555 1_555
O10 C40 1_555 1_555
O11 C43 1_555 1_555
O12 C52 1_555 1_555
O13 C55 1_555 1_555
O14 C58 1_555 1_555
O16 Cl1 1_555 1_555
O17 Cl1 1_555 1_555
O18 Cl1 1_555 1_555
O20 Cl2 1_555 1_555
O21 Cl2 1_555 1_555
O22 Cl2 1_555 1_555
Cl3 O23 1_555 1_555
O24 Cl3 1_555 1_555
O25 Cl3 1_555 1_555
O26 Cl3 1_555 1_555
Cl4 O27 1_555 1_555
O28 Cl4 1_555 1_555
O29 Cl4 1_555 1_555
O30 Cl4 1_555 1_555
N1 C7 1_555 1_555
N2 C10 1_555 1_555
N3 Cu1 1_555 1_555
N4 C22 1_555 1_555
N5 Cu2 1_555 1_555
N6 Cu1 1_555 1_555
N7 C37 1_555 1_555
N8 C40 1_555 1_555
N9 C43 1_555 1_555
N10 Cu4 1_555 1_555
N11 Cu4 1_555 1_555
N12 Cu3 1_555 1_555
C1 C2 1_555 1_555
C2 H1 1_555 1_555
C3 C2 1_555 1_555
C4 C3 1_555 1_555
H2 C4 1_555 1_555
C5 C4 1_555 1_555
C6 C1 1_555 1_555
H3 C6 1_555 1_555
C7 C1 1_555 1_555
C8 N1 1_555 1_555
H4 C8 1_555 1_555
H5 C8 1_555 1_555
C9 O1 1_555 1_555
H6 C9 1_555 1_555
H7 C9 1_555 1_555
C10 C3 1_555 1_555
C11 N2 1_555 1_555
H8 C11 1_555 1_555
H9 C11 1_555 1_555
C12 O3 1_555 1_555
H10 C12 1_555 1_555
H11 C12 1_555 1_555
C13 N3 1_555 1_555
C14 N3 1_555 1_555
H12 C14 1_555 1_555
H13 C14 1_555 1_555
C15 O5 1_555 1_555
H14 C15 1_555 1_555
H15 C15 1_555 1_555
C16 C17 1_555 1_555
C17 C18 1_555 1_555
H16 C17A 1_555 1_555
C18 C19 1_555 1_555
C19 C20 1_555 1_555
H17 C19A 1_555 1_555
C20 C21 1_555 1_555
C21 C16 1_555 1_555
H18 C21 1_555 1_555
C22 C16 1_555 1_555
C23 N4 1_555 1_555
H19 C23A 1_555 1_555
H20 C23A 1_555 1_555
C24 O6 1_555 1_555
H21 C24A 1_555 1_555
H22 C24A 1_555 1_555
C25 N5 1_555 1_555
C26 N5 1_555 1_555
H23 C26 1_555 1_555
H24 C26 1_555 1_555
C27 O7 1_555 1_555
H25 C27 1_555 1_555
H26 C27 1_555 1_555
C28 N6 1_555 1_555
C29 N6 1_555 1_555
H27 C29 1_555 1_555
H28 C29 1_555 1_555
C30 O8 1_555 1_555
H29 C30 1_555 1_555
H30 C30 1_555 1_555
C31 C32 1_555 1_555
C32 H31 1_555 1_555
C33 C32 1_555 1_555
C34 C33 1_555 1_555
H32 C34 1_555 1_555
C35 C34 1_555 1_555
C36 C31 1_555 1_555
H33 C36 1_555 1_555
C37 C31 1_555 1_555
C38 N7 1_555 1_555
H34 C38 1_555 1_555
H35 C38 1_555 1_555
C39 O9 1_555 1_555
H36 C39 1_555 1_555
H37 C39 1_555 1_555
C40 C33 1_555 1_555
C41 N8 1_555 1_555
H38 C41 1_555 1_555
H39 C41 1_555 1_555
C42 O10 1_555 1_555
H40 C42 1_555 1_555
H41 C42 1_555 1_555
C43 C35 1_555 1_555
C44 N9 1_555 1_555
H42 C44 1_555 1_555
H43 C44 1_555 1_555
C45 O11 1_555 1_555
H44 C45 1_555 1_555
H45 C45 1_555 1_555
C46 C47 1_555 1_555
C47 H46 1_555 1_555
C48 C47 1_555 1_555
C49 C48 1_555 1_555
H47 C49 1_555 1_555
C50 C49 1_555 1_555
C51 C46 1_555 1_555
H48 C51 1_555 1_555
C52 N10 1_555 1_555
C53 N10 1_555 1_555
H49 C53 1_555 1_555
H50 C53 1_555 1_555
C54 O12 1_555 1_555
H51 C54 1_555 1_555
H52 C54 1_555 1_555
C55 N11 1_555 1_555
C56 O13 1_555 1_555
H53 C56 1_555 1_555
H54 C56 1_555 1_555
C57 N11 1_555 1_555
H55 C57 1_555 1_555
H56 C57 1_555 1_555
C58 N12 1_555 1_555
C59 N12 1_555 1_555
H57 C59 1_555 1_555
H58 C59 1_555 1_555
C60 O14 1_555 1_555
H59 C60 1_555 1_555
H60 C60 1_555 1_555
Cu1A N2A 1_555 1_555
Cu1A_2 N6A 1_555 1_555
Cu2A N1 1_555 1_555
Cu2A_2 N1_2 1_555 1_555
Cu3A N9 1_555 1_555
Cu3A_2 N7A 1_555 1_555
Cu3_2 N9A_2 1_555 1_555
Cu4A N8A 1_555 1_555
O1A C7A 1_555 1_555
O3A C10A 1_555 1_555
O5A C13A 1_555 1_555
O6A C22A 1_555 1_555
O7A C25A 1_555 1_555
O8A C28A 1_555 1_555
O9A C37A 1_555 1_555
O10A C40A 1_555 1_555
O11A C43A 1_555 1_555
O12A C52A 1_555 1_555
O13A C55A 1_555 1_555
O14A C58A 1_555 1_555
N1A Cu2 1_555 1_555
N2A C10A 1_555 1_555
N3A Cu1A 1_555 1_555
N4A Cu2A_2 1_555 1_555
N5A Cu2A_2 1_555 1_555
N6A C28A 1_555 1_555
N6A_2 Cu1A 1_555 1_555
N7A C37A 1_555 1_555
N8A C40A 1_555 1_555
N9A Cu3 1_555 1_555
N9_2 Cu3A_2 1_555 1_555
N9A_2 C43A 1_555 1_555
N10A Cu4A 1_555 1_555
N11A Cu4A 1_555 1_555
N12A Cu3A_2 1_555 1_555
C1A C2A 1_555 1_555
C2A H1A 1_555 1_555
C3A C2A 1_555 1_555
C4A C3A 1_555 1_555
H2A C4A 1_555 1_555
C5A C13 1_555 1_555
C6A C1A 1_555 1_555
H3A C6A 1_555 1_555
C7A N1A 1_555 1_555
C8A N1A 1_555 1_555
H4A C8A 1_555 1_555
H5A C8A 1_555 1_555
C9A O1A 1_555 1_555
H6A C9A 1_555 1_555
H7A C9A 1_555 1_555
C10A C3A 1_555 1_555
C11A N2A 1_555 1_555
H8A C11A 1_555 1_555
H9A C11A 1_555 1_555
C12A O3A 1_555 1_555
H10A C12A 1_555 1_555
H11A C12A 1_555 1_555
C13A C5 1_555 1_555
C14A N3A 1_555 1_555
H12A C14A 1_555 1_555
H13A C14A 1_555 1_555
C15A O5A 1_555 1_555
H14A C15A 1_555 1_555
H15A C15A 1_555 1_555
C16A C17A 1_555 1_555
C17A C18A 1_555 1_555
H16A C17 1_555 1_555
C18A C25 1_555 1_555
C19A C18A 1_555 1_555
H17A C19 1_555 1_555
C20A C19A 1_555 1_555
C21A C16A 1_555 1_555
H18A C21A 1_555 1_555
C22A N4A 1_555 1_555
C23A N4A 1_555 1_555
H19A C23 1_555 1_555
H20A C23 1_555 1_555
C24A O6A 1_555 1_555
H21A C24 1_555 1_555
H22A C24 1_555 1_555
C25A C18 1_555 1_555
C26A N5A 1_555 1_555
H23A C26A 1_555 1_555
H24A C26A 1_555 1_555
C27A O7A 1_555 1_555
H25A C27A 1_555 1_555
H26A C27A 1_555 1_555
C28A C20A 1_555 1_555
C29A N6A 1_555 1_555
H27A C29A 1_555 1_555
H28A C29A 1_555 1_555
C30A O8A 1_555 1_555
H29A C30A 1_555 1_555
H30A C30A 1_555 1_555
C31A C32A 1_555 1_555
C32A H31A 1_555 1_555
C33A C32A 1_555 1_555
C34A C33A 1_555 1_555
H32A C34A 1_555 1_555
C35A C34A 1_555 1_555
C36A C31A 1_555 1_555
H33A C36A 1_555 1_555
C37A C31A 1_555 1_555
C38A N7A 1_555 1_555
H34A C38A 1_555 1_555
H35A C38A 1_555 1_555
C39A O9A 1_555 1_555
H36A C39A 1_555 1_555
H37A C39A 1_555 1_555
C40A C33A 1_555 1_555
C41A N8A 1_555 1_555
H38A C41A 1_555 1_555
H39A C41A 1_555 1_555
C42A O10A 1_555 1_555
H40A C42A 1_555 1_555
H41A C42A 1_555 1_555
C43A C35A 1_555 1_555
C44A N9A_2 1_555 1_555
H42A C44A 1_555 1_555
H43A C44A 1_555 1_555
C45A O11A 1_555 1_555
H44A C45A 1_555 1_555
H45A C45A 1_555 1_555
C46A C47A 1_555 1_555
C47A H46A 1_555 1_555
C48A C55 1_555 1_555
C49A C48A 1_555 1_555
H47A C49A 1_555 1_555
C50A C58 1_555 1_555
C51A C46A 1_555 1_555
H48A C51A 1_555 1_555
C52A N10A 1_555 1_555
C53A N10A 1_555 1_555
H49A C53A 1_555 1_555
H50A C53A 1_555 1_555
C54A O12A 1_555 1_555
H51A C54A 1_555 1_555
H52A C54A 1_555 1_555
C55A C48 1_555 1_555
C56A O13A 1_555 1_555
H53A C56A 1_555 1_555
H54A C56A 1_555 1_555
C57A N11A 1_555 1_555
H55A C57A 1_555 1_555
H56A C57A 1_555 1_555
C58A C50 1_555 1_555
C59A N12A 1_555 1_555
H57A C59A 1_555 1_555
H58A C59A 1_555 1_555
C60A O14A 1_555 1_555
H59A C60A 1_555 1_555
H60A C60A 1_555 1_555
C5 C6 1_555 1_555
C8 C9 1_555 1_555
C11 C12 1_555 1_555
C14 C15 1_555 1_555
C20 C28 1_555 1_555
C23 C24 1_555 1_555
C26 C27 1_555 1_555
C29 C30 1_555 1_555
C35 C36 1_555 1_555
C38 C39 1_555 1_555
C41 C42 1_555 1_555
C44 C45 1_555 1_555
C46 C52 1_555 1_555
C50 C51 1_555 1_555
C53 C54 1_555 1_555
C56 C57 1_555 1_555
C59 C60 1_555 1_555
N3A C13A 1_555 1_555
N5A C25A 1_555 1_555
N11A C55A 1_555 1_555
N12A C58A 1_555 1_555
C1A C7A 1_555 1_555
C4A C5A 1_555 1_555
C5A C6A 1_555 1_555
C8A C9A 1_555 1_555
C11A C12A 1_555 1_555
C14A C15A 1_555 1_555
C16A C22A 1_555 1_555
C20A C21A 1_555 1_555
C23A C24A 1_555 1_555
C26A C27A 1_555 1_555
C29A C30A 1_555 1_555
C35A C36A 1_555 1_555
C38A C39A 1_555 1_555
C41A C42A 1_555 1_555
C44A C45A 1_555 1_555
C46A C52A 1_555 1_555
C47A C48A 1_555 1_555
C49A C50A 1_555 1_555
C50A C51A 1_555 1_555
C53A C54A 1_555 1_555
C56A C57A 1_555 1_555
C59A C60A 1_555 1_555

#END
