
#######################################################################
#
#                 Cambridge Crystallographic Data Centre
#                                CCDC 
#
#######################################################################
#
# If this CIF has been generated from an entry in the Cambridge 
# Structural Database, then it will include bibliographic, chemical, 
# crystal, experimental, refinement or atomic coordinate data resulting 
# from the CCDC's data processing and validation procedures.
#
#######################################################################

data_LACFOM
_symmetry_cell_setting           orthorhombic
_symmetry_space_group_name_H-M   'P n m a'
_symmetry_Int_Tables_number      62
_space_group_name_Hall           '-P 2ac 2n'
loop_
_symmetry_equiv_pos_site_id
_symmetry_equiv_pos_as_xyz
1 x,y,z
2 1/2-x,-y,1/2+z
3 -x,1/2+y,-z
4 1/2+x,1/2-y,1/2-z
5 -x,-y,-z
6 1/2+x,y,1/2-z
7 x,1/2-y,z
8 1/2-x,1/2+y,1/2+z
_cell_length_a                   5.9527(3)
_cell_length_b                   13.0441(6)
_cell_length_c                   19.5781(10)
_cell_angle_alpha                90
_cell_angle_beta                 90
_cell_angle_gamma                90
_cell_volume                     1520.19
loop_
_atom_site_label
_atom_site_type_symbol
_atom_site_fract_x
_atom_site_fract_y
_atom_site_fract_z
Pb1 Pb 0.74268(3) 0.2500 0.689683(11)
S1 S 1.1065(3) -0.2500 0.99564(8)
O1 O 0.8366(6) 0.1376(3) 0.78565(18)
O2 O 0.5269(6) 0.1310(3) 0.85002(17)
O3 O 1.3485(8) -0.2500 0.9895(2)
O4 O 1.0077(8) -0.2500 1.0632(2)
C1 C 0.7202(8) 0.1029(4) 0.8340(3)
C2 C 0.8229(7) 0.0173(3) 0.8756(2)
C3 C 0.7037(8) -0.0229(4) 0.9302(2)
H1 H 0.5645 0.0047 0.9415
C4 C 0.7903(7) -0.1042(4) 0.9683(2)
H2 H 0.7105 -0.1315 1.0049
C5 C 0.9985(7) -0.1432(3) 0.9502(2)
C6 C 1.1184(8) -0.1039(4) 0.8958(2)
H3 H 1.2572 -0.1316 0.8842
C7 C 1.0314(8) -0.0237(4) 0.8588(2)
H4 H 1.1125 0.0034 0.8225
Pb1C Pb 1.24268(3) 0.2500 0.810317(11)
Pb1C_2 Pb 0.24268(3) 0.2500 0.810317(11)
Pb1A Pb 0.75732(3) -0.2500 1.189683(11)
Pb1_2 Pb 0.74268(3) -0.7500 0.689683(11)
Pb1C_3 Pb 1.24268(3) -0.7500 0.810317(11)
Pb1C_4 Pb 0.24268(3) -0.7500 0.810317(11)
O1F O 0.8366(6) -0.6376(3) 0.78565(18)
O1C O 0.3366(6) 0.3624(3) 0.71435(18)
O1E O 0.3366(6) 0.1376(3) 0.71435(18)
O1F_2 O 0.8366(6) 0.3624(3) 0.78565(18)
O2F O 0.5269(6) -0.6310(3) 0.85002(17)
O2C O 1.0269(6) 0.3690(3) 0.64998(17)
O2E O 1.0269(6) 0.1310(3) 0.64998(17)
O4A O 0.4923(8) 0.2500 0.5632(2)
C1F C 0.7202(8) -0.6029(4) 0.8340(3)
C2F C 0.8229(7) -0.5173(3) 0.8756(2)
C3F C 0.7037(8) -0.4771(4) 0.9302(2)
H1F H 0.5645 -0.5047 0.9415
C4F C 0.7903(7) -0.3958(4) 0.9683(2)
H2F H 0.7105 -0.3685 1.0049
C5F C 0.9985(7) -0.3568(3) 0.9502(2)
C6F C 1.1184(8) -0.3961(4) 0.8958(2)
H3F H 1.2572 -0.3684 0.8842
C7F C 1.0314(8) -0.4763(4) 0.8588(2)
H4F H 1.1125 -0.5034 0.8225
loop_
_geom_bond_atom_site_label_1
_geom_bond_atom_site_label_2
_geom_bond_site_symmetry_1
_geom_bond_site_symmetry_2
Pb1 O1 1_555 1_555
S1 O3 1_555 1_555
O1 C1 1_555 1_555
O2 C1 1_555 1_555
O4 S1 1_555 1_555
C1 C2 1_555 1_555
C2 C3 1_555 1_555
C3 H1 1_555 1_555
C4 C3 1_555 1_555
H2 C4 1_555 1_555
C5 S1 1_555 1_555
C6 C5 1_555 1_555
H3 C6 1_555 1_555
C7 C2 1_555 1_555
H4 C7 1_555 1_555
Pb1C O1 1_555 1_555
Pb1C_2 O2 1_555 1_555
Pb1A O4 1_555 1_555
Pb1_2 O1F 1_555 1_555
Pb1C_3 O1F 1_555 1_555
Pb1C_4 O2F 1_555 1_555
O1F C1F 1_555 1_555
O1C Pb1 1_555 1_555
O1E Pb1 1_555 1_555
O1F_2 Pb1 1_555 1_555
O2F C1F 1_555 1_555
O2C Pb1 1_555 1_555
O2E Pb1 1_555 1_555
O4A Pb1 1_555 1_555
C1F C2F 1_555 1_555
C2F C3F 1_555 1_555
C3F H1F 1_555 1_555
C4F C3F 1_555 1_555
H2F C4F 1_555 1_555
C5F S1 1_555 1_555
C6F C5F 1_555 1_555
H3F C6F 1_555 1_555
C7F C2F 1_555 1_555
H4F C7F 1_555 1_555
C4 C5 1_555 1_555
C6 C7 1_555 1_555
Pb1C O1F_2 1_555 1_555
Pb1C_2 O1C 1_555 1_555
Pb1C_2 O1E 1_555 1_555
C4F C5F 1_555 1_555
C6F C7F 1_555 1_555

#END
