
#######################################################################
#
#                 Cambridge Crystallographic Data Centre
#                                CCDC 
#
#######################################################################
#
# If this CIF has been generated from an entry in the Cambridge 
# Structural Database, then it will include bibliographic, chemical, 
# crystal, experimental, refinement or atomic coordinate data resulting 
# from the CCDC's data processing and validation procedures.
#
#######################################################################

data_LACFAW02
_symmetry_cell_setting           monoclinic
_symmetry_space_group_name_H-M   'C 2/c'
_symmetry_Int_Tables_number      15
_space_group_name_Hall           '-C 2yn'
loop_
_symmetry_equiv_pos_site_id
_symmetry_equiv_pos_as_xyz
1 x,y,z
2 1/2+x,1/2+y,z
3 x,-y,1/2+z
4 1/2+x,1/2-y,1/2+z
5 -x,-y,-z
6 1/2-x,1/2-y,-z
7 -x,y,1/2-z
8 1/2-x,1/2+y,1/2-z
_cell_length_a                   19.670(4)
_cell_length_b                   11.119(2)
_cell_length_c                   14.897(3)
_cell_angle_alpha                90
_cell_angle_beta                 113.85(3)
_cell_angle_gamma                90
_cell_volume                     2979.91
loop_
_atom_site_label
_atom_site_type_symbol
_atom_site_fract_x
_atom_site_fract_y
_atom_site_fract_z
Co1 Co 0.2500 0.2500 0.0000
O1 O 0.3045(2) 0.4042(3) 0.0028(3)
N1 N 0.3085(2) 0.1743(3) -0.0826(3)
C1 C 0.3522(2) 0.4255(4) -0.0323(4)
C2 C 0.3820(3) 0.5556(5) -0.0107(4)
F1 F 0.4258(2) 0.5870(3) -0.0545(3)
F2 F 0.4216(3) 0.5702(4) 0.0837(3)
F3 F 0.3279(2) 0.6330(3) -0.0380(4)
C3 C 0.3783(3) 0.3539(5) -0.0834(4)
H1 H 0.4165(25) 0.3778(41) -0.0977(32)
C4 C 0.3563(2) 0.2312(4) -0.1071(3)
C5 C 0.3903(3) 0.1581(5) -0.1639(4)
C6 C 0.4737(4) 0.1418(7) -0.1085(7)
H2 H 0.4850(32) 0.0663(61) -0.1377(46)
H3 H 0.4997(31) 0.2138(55) -0.1021(41)
H4 H 0.4872(37) 0.1173(66) -0.0385(54)
C7 C 0.3700(6) 0.2023(9) -0.2686(6)
H5 H 0.3160(38) 0.2044(60) -0.2984(46)
H6 H 0.4048(36) 0.2586(58) -0.2580(49)
H7 H 0.3846(59) 0.149(11) -0.3112(88)
N2 N 0.3520(3) 0.0444(4) -0.1665(4)
O2 O 0.3648(3) -0.0511(4) -0.2043(4)
C8 C 0.3001(3) 0.0483(5) -0.1183(4)
C9 C 0.2234(4) 0.0242(7) -0.1925(6)
H8 H 0.1846(34) 0.0213(56) -0.1674(44)
H9 H 0.2035(32) 0.0770(56) -0.2372(44)
H10 H 0.2170(32) -0.0508(64) -0.2226(47)
C10 C 0.3240(4) -0.0416(6) -0.0340(6)
H11 H 0.3734(32) -0.0264(50) 0.0163(42)
H12 H 0.3294(41) -0.1202(80) -0.0618(58)
H13 H 0.2860(41) -0.0344(67) -0.0074(56)
O3 O 0.3401(2) 0.1952(4) 0.1356(3)
H14 H 0.3359(42) 0.1724(73) 0.1728(54)
C11 C 0.4185(3) 0.1982(6) 0.1599(5)
H15 H 0.4221(30) 0.2113(52) 0.1002(48)
H16 H 0.4417(38) 0.1296(73) 0.1798(55)
C12 C 0.4576(3) 0.2892(6) 0.2366(5)
H17 H 0.4306(41) 0.3626(77) 0.2199(56)
H18 H 0.4471(33) 0.2582(55) 0.3000(49)
O1E O 0.1955(2) 0.0958(3) -0.0028(3)
C1E C 0.1478(2) 0.0745(4) 0.0323(4)
C2E C 0.1180(3) -0.0556(5) 0.0107(4)
F1E F 0.0742(2) -0.0870(3) 0.0545(3)
F2E F 0.0784(3) -0.0702(4) -0.0837(3)
F3E F 0.1721(2) -0.1330(3) 0.0380(4)
C3E C 0.1217(3) 0.1461(5) 0.0834(4)
H1E H 0.0835(25) 0.1222(41) 0.0977(32)
C4E C 0.1437(2) 0.2688(4) 0.1071(3)
N1E N 0.1915(2) 0.3257(3) 0.0826(3)
C12F C 0.5424(3) 0.2892(6) 0.2634(5)
C11F C 0.5815(3) 0.1982(6) 0.3401(5)
O3F O 0.6599(2) 0.1952(4) 0.3644(3)
Co1F Co 0.7500 0.2500 0.5000
H14F H 0.6641(42) 0.1724(73) 0.3272(54)
H15F H 0.5779(30) 0.2113(52) 0.3998(48)
H16F H 0.5583(38) 0.1296(73) 0.3202(55)
H17F H 0.5694(41) 0.3626(77) 0.2801(56)
H18F H 0.5529(33) 0.2582(55) 0.2000(49)
O3E O 0.1599(2) 0.3048(4) -0.1356(3)
H14E H 0.1641(42) 0.3276(73) -0.1728(54)
C8E C 0.1999(3) 0.4517(5) 0.1183(4)
N2E N 0.1480(3) 0.4556(4) 0.1665(4)
C5E C 0.1097(3) 0.3419(5) 0.1639(4)
C6E C 0.0263(4) 0.3582(7) 0.1085(7)
H2E H 0.0150(32) 0.4337(61) 0.1377(46)
H3E H 0.0003(31) 0.2862(55) 0.1021(41)
H4E H 0.0128(37) 0.3827(66) 0.0385(54)
C7E C 0.1300(6) 0.2977(9) 0.2686(6)
H5E H 0.1840(38) 0.2956(60) 0.2984(46)
H6E H 0.0952(36) 0.2414(58) 0.2580(49)
H7E H 0.1154(59) 0.351(11) 0.3112(88)
O2E O 0.1352(3) 0.5511(4) 0.2043(4)
C9E C 0.2766(4) 0.4758(7) 0.1925(6)
H8E H 0.3154(34) 0.4787(56) 0.1674(44)
H9E H 0.2965(32) 0.4230(56) 0.2372(44)
H10E H 0.2830(32) 0.5508(64) 0.2226(47)
C10E C 0.1760(4) 0.5416(6) 0.0340(6)
H11E H 0.1266(32) 0.5264(50) -0.0163(42)
H12E H 0.1706(41) 0.6202(80) 0.0618(58)
H13E H 0.2140(41) 0.5344(67) 0.0074(56)
loop_
_geom_bond_atom_site_label_1
_geom_bond_atom_site_label_2
_geom_bond_site_symmetry_1
_geom_bond_site_symmetry_2
Co1 O1 1_555 1_555
O1 C1 1_555 1_555
N1 Co1 1_555 1_555
C1 C2 1_555 1_555
C2 F1 1_555 1_555
F2 C2 1_555 1_555
F3 C2 1_555 1_555
C3 C1 1_555 1_555
H1 C3 1_555 1_555
C4 N1 1_555 1_555
C5 C4 1_555 1_555
C6 C5 1_555 1_555
H2 C6 1_555 1_555
H3 C6 1_555 1_555
H4 C6 1_555 1_555
C7 C5 1_555 1_555
H5 C7 1_555 1_555
H6 C7 1_555 1_555
H7 C7 1_555 1_555
N2 C5 1_555 1_555
O2 N2 1_555 1_555
C8 N1 1_555 1_555
C9 C8 1_555 1_555
H8 C9 1_555 1_555
H9 C9 1_555 1_555
H10 C9 1_555 1_555
C10 C8 1_555 1_555
H11 C10 1_555 1_555
H12 C10 1_555 1_555
H13 C10 1_555 1_555
O3 Co1 1_555 1_555
H14 O3 1_555 1_555
C11 O3 1_555 1_555
H15 C11 1_555 1_555
H16 C11 1_555 1_555
C12 C11 1_555 1_555
H17 C12 1_555 1_555
H18 C12 1_555 1_555
O1E Co1 1_555 1_555
C1E O1E 1_555 1_555
C2E C1E 1_555 1_555
F1E C2E 1_555 1_555
F2E C2E 1_555 1_555
F3E C2E 1_555 1_555
C3E C1E 1_555 1_555
H1E C3E 1_555 1_555
C4E C3E 1_555 1_555
N1E Co1 1_555 1_555
C12F C12 1_555 1_555
C11F C12F 1_555 1_555
O3F C11F 1_555 1_555
Co1F O3F 1_555 1_555
H14F O3F 1_555 1_555
H15F C11F 1_555 1_555
H16F C11F 1_555 1_555
H17F C12F 1_555 1_555
H18F C12F 1_555 1_555
O3E Co1 1_555 1_555
H14E O3E 1_555 1_555
C8E N1E 1_555 1_555
N2E C8E 1_555 1_555
C5E C4E 1_555 1_555
C6E C5E 1_555 1_555
H2E C6E 1_555 1_555
H3E C6E 1_555 1_555
H4E C6E 1_555 1_555
C7E C5E 1_555 1_555
H5E C7E 1_555 1_555
H6E C7E 1_555 1_555
H7E C7E 1_555 1_555
O2E N2E 1_555 1_555
C9E C8E 1_555 1_555
H8E C9E 1_555 1_555
H9E C9E 1_555 1_555
H10E C9E 1_555 1_555
C10E C8E 1_555 1_555
H11E C10E 1_555 1_555
H12E C10E 1_555 1_555
H13E C10E 1_555 1_555
C3 C4 1_555 1_555
N2 C8 1_555 1_555
C4E N1E 1_555 1_555
N2E C5E 1_555 1_555

#END
