
#######################################################################
#
#                 Cambridge Crystallographic Data Centre
#                                CCDC 
#
#######################################################################
#
# If this CIF has been generated from an entry in the Cambridge 
# Structural Database, then it will include bibliographic, chemical, 
# crystal, experimental, refinement or atomic coordinate data resulting 
# from the CCDC's data processing and validation procedures.
#
#######################################################################

data_LACFAW01
_symmetry_cell_setting           monoclinic
_symmetry_space_group_name_H-M   'C 2/c'
_symmetry_Int_Tables_number      15
_space_group_name_Hall           '-C 2yn'
loop_
_symmetry_equiv_pos_site_id
_symmetry_equiv_pos_as_xyz
1 x,y,z
2 -x,y,1/2-z
3 1/2+x,1/2+y,z
4 1/2-x,1/2+y,1/2-z
5 -x,-y,-z
6 x,-y,1/2+z
7 1/2-x,1/2-y,-z
8 1/2+x,1/2-y,1/2+z
_cell_length_a                   19.670
_cell_length_b                   11.119
_cell_length_c                   14.897
_cell_angle_alpha                90
_cell_angle_beta                 113.85
_cell_angle_gamma                90
_cell_volume                     2979.91
loop_
_atom_site_label
_atom_site_type_symbol
_atom_site_fract_x
_atom_site_fract_y
_atom_site_fract_z
Co1 Co 0.2500 0.2500 0.0000
N1 N 0.3530 0.4549 -0.1657
F1 F 0.4220 -0.0672 0.0846
C1 C 0.3530 0.0744 -0.0320
C2 C 0.3800 0.1451 -0.0839
C3 C 0.3900 0.3402 -0.1660
C4 C 0.3685 0.2973 -0.2703
C5 C 0.2220 0.4749 -0.1955
C6 C 0.4582 0.2110 0.2361
O1 O 0.3045 0.0960 0.0027
O2 O 0.3396 0.3060 0.1360
N2 N 0.3082 0.3254 -0.0824
F2 F 0.4261 -0.0868 -0.0539
F3 F 0.3281 -0.1336 -0.0365
C7 C 0.3826 -0.0557 -0.0086
C8 C 0.3562 0.2672 -0.1074
C9 C 0.4758 0.3618 -0.1053
C10 C 0.3003 0.4532 -0.1163
C11 C 0.3256 0.5440 -0.0308
C12 C 0.4201 0.3053 0.1603
O3 O 0.3660 0.5511 -0.2038
O1F O 0.1955 0.4040 -0.0027
C1F C 0.1470 0.4256 0.0320
C2F C 0.1200 0.3549 0.0839
C8F C 0.1438 0.2328 0.1074
C3F C 0.1100 0.1598 0.1660
N1F N 0.1470 0.0451 0.1657
C10F C 0.1997 0.0468 0.1163
C5F C 0.2780 0.0251 0.1955
N2F N 0.1918 0.1746 0.0824
C6A C 0.5418 0.2110 0.2639
C12A C 0.5799 0.3053 0.3397
O2A O 0.6604 0.3060 0.3640
Co1A Co 0.7500 0.2500 0.5000
O2F O 0.1604 0.1940 -0.1360
C11F C 0.1744 -0.0440 0.0308
O3F O 0.1340 -0.0511 0.2038
C4F C 0.1315 0.2027 0.2703
C9F C 0.0242 0.1382 0.1053
C7F C 0.1174 0.5557 0.0086
F1F F 0.0780 0.5672 -0.0846
F2F F 0.0739 0.5868 0.0539
F3F F 0.1719 0.6336 0.0365
loop_
_geom_bond_atom_site_label_1
_geom_bond_atom_site_label_2
_geom_bond_site_symmetry_1
_geom_bond_site_symmetry_2
Co1 O1 1_555 1_555
N1 C3 1_555 1_555
F1 C7 1_555 1_555
C1 C2 1_555 1_555
C2 C8 1_555 1_555
C3 C4 1_555 1_555
C5 C10 1_555 1_555
C6 C12 1_555 1_555
O1 C1 1_555 1_555
O2 Co1 1_555 1_555
N2 Co1 1_555 1_555
F2 C7 1_555 1_555
F3 C7 1_555 1_555
C7 C1 1_555 1_555
C8 C3 1_555 1_555
C9 C3 1_555 1_555
C10 N1 1_555 1_555
C11 C10 1_555 1_555
C12 O2 1_555 1_555
O3 N1 1_555 1_555
O1F Co1 1_555 1_555
C1F O1F 1_555 1_555
C2F C1F 1_555 1_555
C8F C2F 1_555 1_555
C3F C8F 1_555 1_555
N1F C3F 1_555 1_555
C10F N1F 1_555 1_555
C5F C10F 1_555 1_555
N2F Co1 1_555 1_555
C6A C6 1_555 1_555
C12A C6A 1_555 1_555
O2A C12A 1_555 1_555
Co1A O2A 1_555 1_555
O2F Co1 1_555 1_555
C11F C10F 1_555 1_555
O3F N1F 1_555 1_555
C4F C3F 1_555 1_555
C9F C3F 1_555 1_555
C7F C1F 1_555 1_555
F1F C7F 1_555 1_555
F2F C7F 1_555 1_555
F3F C7F 1_555 1_555
N2 C10 1_555 1_555
N2 C8 1_555 1_555
C8F N2F 1_555 1_555
C10F N2F 1_555 1_555

#END
