
#######################################################################
#
#                 Cambridge Crystallographic Data Centre
#                                CCDC 
#
#######################################################################
#
# If this CIF has been generated from an entry in the Cambridge 
# Structural Database, then it will include bibliographic, chemical, 
# crystal, experimental, refinement or atomic coordinate data resulting 
# from the CCDC's data processing and validation procedures.
#
#######################################################################

data_LACFAW
_symmetry_cell_setting           triclinic
_symmetry_space_group_name_H-M   'P 1'
_symmetry_Int_Tables_number      1
_space_group_name_Hall           'P 1'
loop_
_symmetry_equiv_pos_site_id
_symmetry_equiv_pos_as_xyz
1 x,y,z
_cell_length_a                   11.119(3)
_cell_length_b                   11.298(3)
_cell_length_c                   15.201(3)
_cell_angle_alpha                92.19(2)
_cell_angle_beta                 111.46(2)
_cell_angle_gamma                119.48(2)
_cell_volume                     1489.91
loop_
_atom_site_label
_atom_site_type_symbol
_atom_site_fract_x
_atom_site_fract_y
_atom_site_fract_z
Co1 Co 0.0715 0.1198 -0.3898
N1 N 0.2881(13) 0.3185(11) -0.3011(8)
O1 O -0.0362(10) 0.2227(10) -0.3877(7)
C1 C 0.0265(13) 0.3550(12) -0.3553(8)
C2 C -0.0855(14) 0.3995(15) -0.3708(10)
F1 F -0.0416(12) 0.5149(9) -0.3294(8)
F2 F -0.1446(13) 0.3942(14) -0.4723(9)
F3 F -0.2052(13) 0.3064(12) -0.3663(10)
C3 C 0.1785(19) 0.4615(17) -0.3067(12)
C4 C 0.3083(15) 0.4415(14) -0.2790(8)
C5 C 0.4727(17) 0.5770(16) -0.2150(17)
C6 C 0.5156(19) 0.6826(17) -0.2744(13)
C7 C 0.5139(21) 0.6391(17) -0.1194(13)
C8 C 0.4429(16) 0.3440(14) -0.2722(9)
C9 C 0.4632(15) 0.2694(15) -0.1920(14)
C10 C 0.4672(15) 0.2992(16) -0.3558(11)
N2 N 0.5403(12) 0.4888(11) -0.2236(10)
O2 O 0.6957(11) 0.5603(11) -0.1839(9)
N3 N -0.1481(11) -0.0813(11) -0.4670(7)
O3 O 0.1654(10) 0.0080(8) -0.3831(6)
C11 C 0.1075(21) -0.1220(18) -0.4197(12)
C12 C 0.2455(27) -0.1474(19) -0.3891(15)
F4 F 0.3169(13) -0.1258(13) -0.3033(8)
F5 F 0.3330(14) -0.0776(14) -0.4383(11)
F6 F 0.1726(11) -0.2988(10) -0.4351(8)
C13 C -0.0380(14) -0.2247(15) -0.4729(10)
C14 C -0.1574(16) -0.1992(13) -0.4960(10)
C15 C -0.3227(16) -0.3191(12) -0.5508(8)
C16 C -0.3716(22) -0.4303(19) -0.4858(16)
C17 C -0.3579(25) -0.3737(25) -0.6602(15)
C18 C -0.2968(17) -0.0890(14) -0.5024(14)
C19 C -0.3336(26) -0.0667(21) -0.4174(19)
C20 C -0.3233(21) -0.0129(18) -0.5846(11)
N4 N -0.4090(16) -0.2554(14) -0.5551(10)
O4 O -0.5471(15) -0.3099(16) -0.5936(13)
O5 O -0.0339(15) -0.3398(13) -0.0236(9)
C21 C 0.0236(24) -0.1999(19) -0.0550(13)
C22 C 0.0843(27) -0.2023(2) -0.1242(16)
C23 C 0.1564(20) -0.0511(19) -0.1407(12)
C24 C -0.0114(23) -0.0663(20) -0.2302(14)
O6 O 0.0563(15) 0.0773(11) -0.2558(8)
Co2 Co 0.0661(4) -0.3824(3) 0.1115(3)
N5 N 0.1379(11) -0.1788(10) 0.1931(7)
O7 O 0.2765(10) -0.2728(9) 0.1078(7)
C25 C 0.3770(15) -0.1446(16) 0.1436(9)
C26 C 0.5293(18) -0.1033(17) 0.1296(10)
F7 F 0.6339(1) 0.0306(9) 0.1640(8)
F8 F 0.4723(11) -0.1119(11) 0.0207(7)
F9 F 0.5587(12) -0.1973(12) 0.1329(11)
C27 C 0.3850(14) -0.0440(12) 0.1923(8)
C28 C 0.2626(13) -0.0573(12) 0.2194(8)
C29 C 0.2816(17) 0.0602(14) 0.2726(10)
C30 C 0.2945(17) 0.1759(13) 0.2233(11)
C31 C 0.4090(28) 0.1182(22) 0.3769(14)
C32 C 0.0365(22) -0.1651(14) 0.2267(13)
C33 C 0.0049(20) -0.2406(16) 0.3070(12)
C34 C -0.1292(22) -0.2063(22) 0.1341(11)
N6 N 0.1264(17) -0.0184(16) 0.2765(11)
O8 O 0.0775(15) 0.0527(12) 0.3067(9)
N7 N 0.0066(13) -0.5746(12) 0.0295(10)
O9 O -0.1354(10) -0.4838(9) 0.1139(7)
C35 C -0.2433(15) -0.6197(14) 0.0801(10)
C36 C -0.3658(17) -0.6553(16) 0.1097(14)
F10 F -0.5000(10) -0.7804(11) 0.0540(8)
F11 F -0.3437(13) -0.6283(16) 0.1889(9)
F12 F -0.4400(14) -0.5843(13) 0.0586(10)
C37 C -0.2542(20) -0.7334(16) 0.0230(12)
C38 C -0.1311(21) -0.6953(15) 0.0068(10)
C39 C -0.1447(18) -0.8278(14) -0.0551(13)
C40 C -0.2749(19) -0.8980(17) -0.1632(31)
C41 C -0.1459(34) -0.9386(22) 0.0133(25)
C42 C 0.1065(15) -0.5995(14) -0.0082(9)
C43 C 0.2481(15) -0.5684(14) 0.0728(11)
C44 C 0.1229(22) -0.5165(18) -0.0822(11)
N8 N -0.0025(16) -0.7609(11) -0.0548(9)
O10 O 0.0398(18) -0.8206(14) -0.0987(11)
O11 O 0.1698(13) -0.4253(10) 0.2479(8)
C45 C 0.1133(19) -0.5568(17) 0.2659(12)
C46 C 0.0589(22) -0.5650(20) 0.3474(14)
C47 C 0.0233(20) -0.6929(18) 0.3867(13)
C48 C 0.1236(16) -0.7032(15) 0.4495(10)
O12 O 0.0773(14) -0.8355(12) 0.4720(9)
O12_2 O 0.0773(14) 0.1645(12) -0.5280(9)
Co1_2 Co 0.0715 -0.8802 0.6102
loop_
_geom_bond_atom_site_label_1
_geom_bond_atom_site_label_2
_geom_bond_site_symmetry_1
_geom_bond_site_symmetry_2
Co1 N1 1_555 1_555
N1 C4 1_555 1_555
O1 Co1 1_555 1_555
C1 O1 1_555 1_555
C2 C1 1_555 1_555
F1 C2 1_555 1_555
F2 C2 1_555 1_555
F3 C2 1_555 1_555
C3 C1 1_555 1_555
C4 C3 1_555 1_555
C5 C4 1_555 1_555
C6 C5 1_555 1_555
C7 C5 1_555 1_555
C8 N1 1_555 1_555
C9 C8 1_555 1_555
C10 C8 1_555 1_555
N2 C5 1_555 1_555
O2 N2 1_555 1_555
N3 Co1 1_555 1_555
O3 Co1 1_555 1_555
C11 O3 1_555 1_555
C12 C11 1_555 1_555
F4 C12 1_555 1_555
F5 C12 1_555 1_555
F6 C12 1_555 1_555
C13 C11 1_555 1_555
C14 N3 1_555 1_555
C15 C14 1_555 1_555
C16 C15 1_555 1_555
C17 C15 1_555 1_555
C18 N3 1_555 1_555
C19 C18 1_555 1_555
C20 C18 1_555 1_555
N4 C15 1_555 1_555
O4 N4 1_555 1_555
O5 C21 1_555 1_555
C21 C22 1_555 1_555
C22 C23 1_555 1_555
C23 C24 1_555 1_555
C24 O6 1_555 1_555
O6 Co1 1_555 1_555
Co2 O5 1_555 1_555
N5 Co2 1_555 1_555
O7 Co2 1_555 1_555
C25 O7 1_555 1_555
C26 C25 1_555 1_555
F7 C26 1_555 1_555
F8 C26 1_555 1_555
F9 C26 1_555 1_555
C27 C25 1_555 1_555
C28 N5 1_555 1_555
C29 C28 1_555 1_555
C30 C29 1_555 1_555
C31 C29 1_555 1_555
C32 N5 1_555 1_555
C33 C32 1_555 1_555
C34 C32 1_555 1_555
N6 C29 1_555 1_555
O8 N6 1_555 1_555
N7 Co2 1_555 1_555
O9 Co2 1_555 1_555
C35 O9 1_555 1_555
C36 C35 1_555 1_555
F10 C36 1_555 1_555
F11 C36 1_555 1_555
F12 C36 1_555 1_555
C37 C35 1_555 1_555
C38 N7 1_555 1_555
C39 C38 1_555 1_555
C40 C39 1_555 1_555
C41 C39 1_555 1_555
C42 N7 1_555 1_555
C43 C42 1_555 1_555
C44 C42 1_555 1_555
N8 C39 1_555 1_555
O10 N8 1_555 1_555
O11 Co2 1_555 1_555
C45 O11 1_555 1_555
C46 C45 1_555 1_555
C47 C46 1_555 1_555
C48 C47 1_555 1_555
O12 C48 1_555 1_555
O12_2 Co1 1_555 1_555
Co1_2 O12 1_555 1_555
C8 N2 1_555 1_555
C13 C14 1_555 1_555
C18 N4 1_555 1_555
C27 C28 1_555 1_555
C32 N6 1_555 1_555
C37 C38 1_555 1_555
C42 N8 1_555 1_555

#END
