
#######################################################################
#
#                 Cambridge Crystallographic Data Centre
#                                CCDC 
#
#######################################################################
#
# If this CIF has been generated from an entry in the Cambridge 
# Structural Database, then it will include bibliographic, chemical, 
# crystal, experimental, refinement or atomic coordinate data resulting 
# from the CCDC's data processing and validation procedures.
#
#######################################################################

data_LACFIG
_symmetry_cell_setting           orthorhombic
_symmetry_space_group_name_H-M   'P n n a'
_symmetry_Int_Tables_number      52
_space_group_name_Hall           '-P 2a 2bc'
loop_
_symmetry_equiv_pos_site_id
_symmetry_equiv_pos_as_xyz
1 x,y,z
2 1/2-x,-y,z
3 x,1/2-y,1/2-z
4 1/2-x,1/2+y,1/2-z
5 -x,-y,-z
6 1/2+x,y,-z
7 -x,1/2+y,1/2+z
8 1/2+x,1/2-y,1/2+z
_cell_length_a                   14.0625(13)
_cell_length_b                   21.702(2)
_cell_length_c                   13.4908(13)
_cell_angle_alpha                90
_cell_angle_beta                 90
_cell_angle_gamma                90
_cell_volume                     4117.18
loop_
_atom_site_label
_atom_site_type_symbol
_atom_site_fract_x
_atom_site_fract_y
_atom_site_fract_z
Cu1 Cu 0.7500 0.0000 -0.23974(14)
Cu2 Cu 0.57810(11) -0.15374(7) -0.14903(10)
Br1 Br 0.7500 0.0000 -0.41850(13)
Br2 Br 0.65752(11) -0.2500 -0.2500
Cu3 Cu 0.4751(2) -0.2500 -0.2500
Br3 Br 0.41970(12) -0.23792(7) -0.09128(16)
O1 O 0.5776(6) 0.1315(3) -0.1093(6)
O2 O 0.6667(6) -0.1515(3) 0.1410(6)
O3 O 0.5608(6) 0.0271(4) 0.3221(6)
N1 N 0.6710(6) 0.0670(4) -0.1945(7)
N2 N 0.6403(6) -0.1609(4) -0.0210(6)
N3 N 0.4788(6) 0.1008(4) 0.2472(6)
C1 C 0.6166(7) 0.0396(4) -0.0249(8)
C2 C 0.6368(7) -0.0223(5) -0.0282(8)
H1 H 0.6559 -0.0400 -0.0878
C3 C 0.6293(7) -0.0589(5) 0.0562(8)
C4 C 0.6003(7) -0.0318(5) 0.1452(8)
H2 H 0.5958 -0.0556 0.2023
C5 C 0.5779(7) 0.0310(5) 0.1490(8)
C6 C 0.5872(7) 0.0666(5) 0.0621(8)
H3 H 0.5733 0.1085 0.0636
C7 C 0.6240(8) 0.0779(5) -0.1149(8)
C8 C 0.6535(9) 0.1192(6) -0.2621(9)
H4 H 0.6144 0.1066 -0.3177
H5 H 0.7129 0.1358 -0.2871
C9 C 0.6021(10) 0.1663(6) -0.1985(10)
H6 H 0.6432 0.2009 -0.1829
H7 H 0.5455 0.1815 -0.2316
C10 C 0.6452(8) -0.1257(5) 0.0525(8)
C11 C 0.6662(9) -0.2239(5) 0.0133(9)
H8 H 0.6196 -0.2540 -0.0083
H9 H 0.7284 -0.2358 -0.0110
C12 C 0.6662(10) -0.2177(5) 0.1231(9)
H10 H 0.6100 -0.2366 0.1515
H11 H 0.7222 -0.2369 0.1515
C13 C 0.5374(8) 0.0561(5) 0.2379(8)
C14 C 0.4561(9) 0.1082(5) 0.3532(8)
H12 H 0.3881 0.1055 0.3644
H13 H 0.4788 0.1475 0.3779
C15 C 0.5075(10) 0.0556(6) 0.4024(9)
H14 H 0.5498 0.0704 0.4539
H15 H 0.4628 0.0266 0.4313
Cu2A Cu 0.92190(11) 0.15374(7) -0.14903(10)
Cu2B Cu 0.57810(11) -0.34626(7) -0.35097(10)
Cu2D Cu 0.42190(11) 0.15374(7) 0.14903(10)
Cu2E Cu 1.07810(11) -0.15374(7) 0.14903(10)
Br2A Br 0.84248(11) 0.2500 -0.2500
Br3B Br 0.41970(12) -0.26208(7) -0.40872(16)
O1A O 0.9224(6) -0.1315(3) -0.1093(6)
O2A O 0.8333(6) 0.1515(3) 0.1410(6)
O3A O 0.9392(6) -0.0271(4) 0.3221(6)
N1A N 0.8290(6) -0.0670(4) -0.1945(7)
N2A N 0.8597(6) 0.1609(4) -0.0210(6)
N3A N 1.0212(6) -0.1008(4) 0.2472(6)
N3D N 0.5212(6) -0.1008(4) -0.2472(6)
N3E N 0.9788(6) 0.1008(4) -0.2472(6)
C1A C 0.8834(7) -0.0396(4) -0.0249(8)
C2A C 0.8632(7) 0.0223(5) -0.0282(8)
H1A H 0.8441 0.0400 -0.0878
C3A C 0.8707(7) 0.0589(5) 0.0562(8)
C4A C 0.8997(7) 0.0318(5) 0.1452(8)
H2A H 0.9042 0.0556 0.2023
C5A C 0.9221(7) -0.0310(5) 0.1490(8)
C6A C 0.9128(7) -0.0666(5) 0.0621(8)
H3A H 0.9267 -0.1085 0.0636
C7A C 0.8760(8) -0.0779(5) -0.1149(8)
C8A C 0.8465(9) -0.1192(6) -0.2621(9)
H4A H 0.8856 -0.1066 -0.3177
H5A H 0.7871 -0.1358 -0.2871
C9A C 0.8979(10) -0.1663(6) -0.1985(10)
H6A H 0.8568 -0.2009 -0.1829
H7A H 0.9545 -0.1815 -0.2316
C10A C 0.8548(8) 0.1257(5) 0.0525(8)
C11A C 0.8338(9) 0.2239(5) 0.0133(9)
H8A H 0.8804 0.2540 -0.0083
H9A H 0.7716 0.2358 -0.0110
C12A C 0.8338(10) 0.2177(5) 0.1231(9)
H10A H 0.8900 0.2366 0.1515
H11A H 0.7778 0.2369 0.1515
C13A C 0.9626(8) -0.0561(5) 0.2379(8)
C14A C 1.0439(9) -0.1082(5) 0.3532(8)
H12A H 1.1119 -0.1055 0.3644
H13A H 1.0212 -0.1475 0.3779
C15A C 0.9925(10) -0.0556(6) 0.4024(9)
H14A H 0.9502 -0.0704 0.4539
H15A H 1.0372 -0.0266 0.4313
N4 N 0.4306(12) 0.1320(7) 0.6108(12)
C16 C 0.3538(15) 0.1249(7) 0.6164(12)
C17 C 0.2534(13) 0.1138(9) 0.6279(14)
H16 H 0.2435 0.0721 0.6492
H17 H 0.2219 0.1204 0.5657
H18 H 0.2280 0.1416 0.6766
loop_
_geom_bond_atom_site_label_1
_geom_bond_atom_site_label_2
_geom_bond_site_symmetry_1
_geom_bond_site_symmetry_2
Cu1 Br1 1_555 1_555
Cu2 Br2 1_555 1_555
Br2 Cu3 1_555 1_555
Cu3 Br3 1_555 1_555
O1 C7 1_555 1_555
O2 C10 1_555 1_555
O3 C13 1_555 1_555
N1 Cu1 1_555 1_555
N2 Cu2 1_555 1_555
N3 C13 1_555 1_555
N4 C16 1_555 1_555
C1 C2 1_555 1_555
C2 H1 1_555 1_555
C3 C2 1_555 1_555
C4 C3 1_555 1_555
H2 C4 1_555 1_555
C5 C4 1_555 1_555
C6 C1 1_555 1_555
H3 C6 1_555 1_555
C7 N1 1_555 1_555
C8 N1 1_555 1_555
H4 C8 1_555 1_555
H5 C8 1_555 1_555
C9 O1 1_555 1_555
H6 C9 1_555 1_555
H7 C9 1_555 1_555
C10 N2 1_555 1_555
C11 N2 1_555 1_555
H8 C11 1_555 1_555
H9 C11 1_555 1_555
C12 O2 1_555 1_555
H10 C12 1_555 1_555
H11 C12 1_555 1_555
C13 C5 1_555 1_555
C14 N3 1_555 1_555
H12 C14 1_555 1_555
H13 C14 1_555 1_555
C15 O3 1_555 1_555
H14 C15 1_555 1_555
H15 C15 1_555 1_555
C16 C17 1_555 1_555
C17 H16 1_555 1_555
H17 C17 1_555 1_555
H18 C17 1_555 1_555
Cu2A Br2A 1_555 1_555
Cu2B Br2 1_555 1_555
Cu2D N3 1_555 1_555
Cu2E N3A 1_555 1_555
Br3B Cu3 1_555 1_555
O1A C7A 1_555 1_555
O2A C10A 1_555 1_555
O3A C13A 1_555 1_555
N1A Cu1 1_555 1_555
N2A Cu2A 1_555 1_555
N3A C13A 1_555 1_555
N3D Cu2 1_555 1_555
N3E Cu2A 1_555 1_555
C1A C2A 1_555 1_555
C2A H1A 1_555 1_555
C3A C2A 1_555 1_555
C4A C3A 1_555 1_555
H2A C4A 1_555 1_555
C5A C4A 1_555 1_555
C6A C1A 1_555 1_555
H3A C6A 1_555 1_555
C7A N1A 1_555 1_555
C8A N1A 1_555 1_555
H4A C8A 1_555 1_555
H5A C8A 1_555 1_555
C9A O1A 1_555 1_555
H6A C9A 1_555 1_555
H7A C9A 1_555 1_555
C10A N2A 1_555 1_555
C11A N2A 1_555 1_555
H8A C11A 1_555 1_555
H9A C11A 1_555 1_555
C12A O2A 1_555 1_555
H10A C12A 1_555 1_555
H11A C12A 1_555 1_555
C13A C5A 1_555 1_555
C14A N3A 1_555 1_555
H12A C14A 1_555 1_555
H13A C14A 1_555 1_555
C15A O3A 1_555 1_555
H14A C15A 1_555 1_555
H15A C15A 1_555 1_555
C1 C7 1_555 1_555
C3 C10 1_555 1_555
C5 C6 1_555 1_555
C8 C9 1_555 1_555
C11 C12 1_555 1_555
C14 C15 1_555 1_555
C1A C7A 1_555 1_555
C3A C10A 1_555 1_555
C5A C6A 1_555 1_555
C8A C9A 1_555 1_555
C11A C12A 1_555 1_555
C14A C15A 1_555 1_555

#END
