
#######################################################################
#
#                 Cambridge Crystallographic Data Centre
#                                CCDC 
#
#######################################################################
#
# If this CIF has been generated from an entry in the Cambridge 
# Structural Database, then it will include bibliographic, chemical, 
# crystal, experimental, refinement or atomic coordinate data resulting 
# from the CCDC's data processing and validation procedures.
#
#######################################################################

data_LACFEC
_symmetry_cell_setting           triclinic
_symmetry_space_group_name_H-M   'P -1'
_symmetry_Int_Tables_number      2
_space_group_name_Hall           '-P 1'
loop_
_symmetry_equiv_pos_site_id
_symmetry_equiv_pos_as_xyz
1 x,y,z
2 -x,-y,-z
_cell_length_a                   7.145(9)
_cell_length_b                   11.1913(15)
_cell_length_c                   11.4001(16)
_cell_angle_alpha                85.809(3)
_cell_angle_beta                 76.365(3)
_cell_angle_gamma                77.003(3)
_cell_volume                     862.994
loop_
_atom_site_label
_atom_site_type_symbol
_atom_site_fract_x
_atom_site_fract_y
_atom_site_fract_z
Br1 Br 0.22854(14) 0.15570(8) 0.42475(8)
Br2 Br 0.23543(11) 0.10384(7) 0.06540(7)
Cu1 Cu 0.60632(15) 0.13695(8) -0.01554(9)
Cu2 Cu 0.19687(15) 0.23195(9) 0.22894(9)
O1 O 0.9860(8) 0.3822(4) -0.2152(5)
O2 O 0.7472(7) 0.2122(4) 0.2977(4)
O3 O 0.4136(8) 0.6584(5) 0.3352(4)
N1 N 0.8974(9) 0.5861(6) -0.2317(6)
N2 N 0.6937(8) 0.1375(5) 0.1347(5)
N3 N 0.3885(8) 0.7846(5) 0.1740(5)
C1 C 0.7889(9) 0.4822(6) -0.0388(6)
C2 C 0.7981(10) 0.3671(6) 0.0180(7)
H1 H 0.8720 0.2978 -0.0245
C3 C 0.7007(10) 0.3542(6) 0.1349(6)
C4 C 0.5939(10) 0.4551(6) 0.1995(6)
H2 H 0.5301 0.4462 0.2797
C5 C 0.5808(10) 0.5713(6) 0.1452(6)
C6 C 0.6785(10) 0.5846(6) 0.0276(6)
H3 H 0.6710 0.6624 -0.0082
C7 C 0.8931(10) 0.4909(6) -0.1658(6)
C8 C 1.0153(13) 0.5431(7) -0.3540(7)
H4 H 0.9358 0.5638 -0.4137
H5 H 1.1295 0.5799 -0.3787
C9 C 1.0766(14) 0.4076(7) -0.3391(7)
H6 H 1.0298 0.3655 -0.3942
H7 H 1.2190 0.3820 -0.3538
C10 C 0.7111(10) 0.2288(6) 0.1874(6)
C11 C 0.7284(12) 0.0298(7) 0.2158(6)
H8 H 0.8438 -0.0304 0.1786
H9 H 0.6154 -0.0084 0.2357
C12 C 0.7598(12) 0.0805(6) 0.3269(7)
H10 H 0.6585 0.0683 0.3972
H11 H 0.8879 0.0418 0.3420
C13 C 0.4592(10) 0.6790(6) 0.2149(6)
C14 C 0.2621(11) 0.8531(7) 0.2802(7)
H12 H 0.1238 0.8593 0.2821
H13 H 0.2864 0.9351 0.2792
C15 C 0.3185(13) 0.7798(7) 0.3863(7)
H14 H 0.4094 0.8143 0.4176
H15 H 0.2034 0.7755 0.4503
Br2A Br 0.76457(11) -0.10384(7) -0.06540(7)
Cu1A Cu 0.39368(15) -0.13695(8) 0.01554(9)
Cu1A_2 Cu 0.39368(15) 0.86305(8) 0.01554(9)
Cu2A Cu 0.80313(15) 0.76805(9) -0.22894(9)
N1A N 0.1026(9) 0.4139(6) 0.2317(6)
N3A N 0.6115(8) 0.2154(5) -0.1740(5)
loop_
_geom_bond_atom_site_label_1
_geom_bond_atom_site_label_2
_geom_bond_site_symmetry_1
_geom_bond_site_symmetry_2
Br1 Cu2 1_555 1_555
Br2 Cu1 1_555 1_555
Cu1 N2 1_555 1_555
Cu2 Br2 1_555 1_555
O1 C7 1_555 1_555
O2 C10 1_555 1_555
O3 C13 1_555 1_555
N1 C7 1_555 1_555
N2 C10 1_555 1_555
N3 C13 1_555 1_555
C1 C2 1_555 1_555
C2 H1 1_555 1_555
C3 C2 1_555 1_555
C4 C3 1_555 1_555
H2 C4 1_555 1_555
C5 C4 1_555 1_555
C6 C1 1_555 1_555
H3 C6 1_555 1_555
C7 C1 1_555 1_555
C8 N1 1_555 1_555
H4 C8 1_555 1_555
H5 C8 1_555 1_555
C9 O1 1_555 1_555
H6 C9 1_555 1_555
H7 C9 1_555 1_555
C10 C3 1_555 1_555
C11 N2 1_555 1_555
H8 C11 1_555 1_555
H9 C11 1_555 1_555
C12 O2 1_555 1_555
H10 C12 1_555 1_555
H11 C12 1_555 1_555
C13 C5 1_555 1_555
C14 N3 1_555 1_555
H12 C14 1_555 1_555
H13 C14 1_555 1_555
C15 O3 1_555 1_555
H14 C15 1_555 1_555
H15 C15 1_555 1_555
Br2A Cu1 1_555 1_555
Cu1A Br2 1_555 1_555
Cu1A_2 N3 1_555 1_555
Cu2A N1 1_555 1_555
N1A Cu2 1_555 1_555
N3A Cu1 1_555 1_555
C5 C6 1_555 1_555
C8 C9 1_555 1_555
C11 C12 1_555 1_555
C14 C15 1_555 1_555
Br2A Cu1A 1_555 1_555

#END
