
#######################################################################
#
#                 Cambridge Crystallographic Data Centre
#                                CCDC 
#
#######################################################################
#
# If this CIF has been generated from an entry in the Cambridge 
# Structural Database, then it will include bibliographic, chemical, 
# crystal, experimental, refinement or atomic coordinate data resulting 
# from the CCDC's data processing and validation procedures.
#
#######################################################################

data_LACFUS
_symmetry_cell_setting           monoclinic
_symmetry_space_group_name_H-M   'P 21/n'
_symmetry_Int_Tables_number      14
_space_group_name_Hall           '-P 2yn'
loop_
_symmetry_equiv_pos_site_id
_symmetry_equiv_pos_as_xyz
1 x,y,z
2 1/2-x,1/2+y,1/2-z
3 -x,-y,-z
4 1/2+x,1/2-y,1/2+z
_cell_length_a                   9.4887(7)
_cell_length_b                   7.4979(5)
_cell_length_c                   18.1593(12)
_cell_angle_alpha                90
_cell_angle_beta                 91.634(6)
_cell_angle_gamma                90
_cell_volume                     1291.42
loop_
_atom_site_label
_atom_site_type_symbol
_atom_site_fract_x
_atom_site_fract_y
_atom_site_fract_z
Pb1 Pb 0.814577(14) 0.579862(19) 0.247108(7)
S1 S 0.42716(13) 0.66842(17) 0.21970(9)
O1 O 0.7984(3) 0.8174(4) 0.34276(15)
O2 O 1.0049(4) 0.6809(5) 0.34538(18)
O3 O 0.8568(4) 0.8640(5) 0.17659(19)
O4 O 0.9874(4) 0.6454(5) 0.1393(2)
O5 O 0.5758(3) 0.7426(4) 0.2246(2)
C1 C 0.9203(5) 0.7917(6) 0.3709(2)
C2 C 0.9614(5) 0.8993(6) 0.4384(2)
C3 C 0.8689(5) 1.0234(7) 0.4659(2)
H1 H 0.7805 1.0385 0.4434
C4 C 1.0927(5) 0.8748(7) 0.4733(3)
H2 H 1.1546 0.7898 0.4556
C5 C 0.9363(5) 0.7966(6) 0.1304(2)
C6 C 0.9687(5) 0.9020(5) 0.0629(2)
C7 C 0.9243(6) 1.0781(6) 0.0551(3)
H3 H 0.8734 1.1316 0.0921
C8 C 1.0442(5) 0.8258(7) 0.0076(3)
H4 H 1.0745 0.7082 0.0122
C9 C 0.3380(7) 0.7771(10) 0.2918(5)
H5 H 0.3714 0.7311 0.3385
H6 H 0.2385 0.7559 0.2862
H7 H 0.3559 0.9030 0.2897
C10 C 0.3442(6) 0.7805(8) 0.1439(4)
H8 H 0.3811 0.7362 0.0988
H9 H 0.3622 0.9062 0.1478
H10 H 0.2444 0.7596 0.1442
Pb1B Pb 1.185423(14) 1.420138(19) 0.752892(7)
Pb1A Pb 0.685423(14) 1.079862(19) 0.252892(7)
Pb1C Pb 1.314577(14) 0.920138(19) 0.747108(7)
Pb1B_2 Pb 1.185423(14) 1.420138(19) -0.247108(7)
Pb1C_2 Pb 1.314577(14) 0.920138(19) -0.252892(7)
Pb1A_2 Pb 0.685423(14) 0.079862(19) 0.252892(7)
S1A S 1.07284(13) 0.16842(17) 0.28030(9)
O1B O 1.2016(3) 1.1826(4) 0.65724(15)
O1A O 0.7016(3) 0.3174(4) 0.15724(15)
O1C O 1.2984(3) 1.6826(4) 0.84276(15)
O2B O 0.9951(4) 1.3191(5) 0.65462(18)
O3B O 1.1432(4) 1.1360(5) -0.17659(19)
O3A O 0.6432(4) 0.3640(5) 0.32341(19)
O3B_2 O 1.1432(4) 1.1360(5) 0.82341(19)
O3C O 1.3568(4) 1.6360(5) 0.67659(19)
O4B O 1.0126(4) 1.3546(5) -0.1393(2)
O4B_2 O 1.0126(4) 1.3546(5) 0.8607(2)
O5A O 0.9242(3) 0.2426(4) 0.2754(2)
O5B O 1.4242(3) 1.2574(4) 0.7754(2)
O5C O 1.0758(3) 1.7574(4) 0.7246(2)
C1B C 1.0797(5) 1.2083(6) 0.6291(2)
C2B C 1.0386(5) 1.1007(6) 0.5616(2)
C3B C 1.1311(5) 0.9766(7) 0.5341(2)
H1B H 1.2195 0.9615 0.5566
C4B C 0.9073(5) 1.1252(7) 0.5267(3)
H2B H 0.8454 1.2102 0.5444
C5B C 1.0637(5) 1.2034(6) -0.1304(2)
C6B C 1.0313(5) 1.0980(5) -0.0629(2)
C7B C 1.0757(6) 0.9219(6) -0.0551(3)
H3B H 1.1266 0.8684 -0.0921
C8B C 0.9558(5) 1.1742(7) -0.0076(3)
H4B H 0.9255 1.2918 -0.0122
C9A C 1.1620(7) 0.2771(10) 0.2082(5)
H5A H 1.1286 0.2311 0.1615
H6A H 1.2615 0.2559 0.2138
H7A H 1.1441 0.4030 0.2103
C10A C 1.1558(6) 0.2805(8) 0.3561(4)
H8A H 1.1189 0.2362 0.4012
H9A H 1.1378 0.4062 0.3522
H10A H 1.2556 0.2596 0.3558
loop_
_geom_bond_atom_site_label_1
_geom_bond_atom_site_label_2
_geom_bond_site_symmetry_1
_geom_bond_site_symmetry_2
Pb1 O1 1_555 1_555
S1 O5 1_555 1_555
O1 C1 1_555 1_555
O2 Pb1 1_555 1_555
O3 Pb1 1_555 1_555
O4 Pb1 1_555 1_555
O5 Pb1 1_555 1_555
C1 O2 1_555 1_555
C2 C1 1_555 1_555
C3 C2 1_555 1_555
H1 C3 1_555 1_555
C4 C2 1_555 1_555
H2 C4 1_555 1_555
C5 O3 1_555 1_555
C6 C5 1_555 1_555
C7 C6 1_555 1_555
H3 C7 1_555 1_555
C8 C6 1_555 1_555
H4 C8 1_555 1_555
C9 S1 1_555 1_555
H5 C9 1_555 1_555
H6 C9 1_555 1_555
H7 C9 1_555 1_555
C10 S1 1_555 1_555
H8 C10 1_555 1_555
H9 C10 1_555 1_555
H10 C10 1_555 1_555
Pb1B O1B 1_555 1_555
Pb1A O1 1_555 1_555
Pb1C O1B 1_555 1_555
Pb1B_2 O3B 1_555 1_555
Pb1C_2 O3B 1_555 1_555
Pb1A_2 O1A 1_555 1_555
S1A O5A 1_555 1_555
O1B C1B 1_555 1_555
O1A Pb1 1_555 1_555
O1C Pb1B 1_555 1_555
O2B Pb1B 1_555 1_555
O3B C5B 1_555 1_555
O3A Pb1 1_555 1_555
O3B_2 Pb1B 1_555 1_555
O3C Pb1B 1_555 1_555
O4B Pb1B_2 1_555 1_555
O4B_2 Pb1B 1_555 1_555
O5A Pb1 1_555 1_555
O5B Pb1B 1_555 1_555
O5C Pb1B 1_555 1_555
C1B O2B 1_555 1_555
C2B C1B 1_555 1_555
C3B C4 1_555 1_555
H1B C3B 1_555 1_555
C4B C3 1_555 1_555
H2B C4B 1_555 1_555
C5B O4B 1_555 1_555
C6B C5B 1_555 1_555
C7B C8 1_555 1_555
H3B C7B 1_555 1_555
C8B C7 1_555 1_555
H4B C8B 1_555 1_555
C9A S1A 1_555 1_555
H5A C9A 1_555 1_555
H6A C9A 1_555 1_555
H7A C9A 1_555 1_555
C10A S1A 1_555 1_555
H8A C10A 1_555 1_555
H9A C10A 1_555 1_555
H10A C10A 1_555 1_555
O3 Pb1A 1_555 1_555
O4 C5 1_555 1_555
O5 Pb1A 1_555 1_555
Pb1C O3B_2 1_555 1_555
Pb1C O5B 1_555 1_555
Pb1A_2 O3A 1_555 1_555
Pb1A_2 O5A 1_555 1_555
C2B C3B 1_555 1_555
C2B C4B 1_555 1_555
C6B C7B 1_555 1_555
C6B C8B 1_555 1_555

#END
