
#######################################################################
#
#                 Cambridge Crystallographic Data Centre
#                                CCDC 
#
#######################################################################
#
# If this CIF has been generated from an entry in the Cambridge 
# Structural Database, then it will include bibliographic, chemical, 
# crystal, experimental, refinement or atomic coordinate data resulting 
# from the CCDC's data processing and validation procedures.
#
#######################################################################

data_LACGON
_symmetry_cell_setting           monoclinic
_symmetry_space_group_name_H-M   'C 2/m'
_symmetry_Int_Tables_number      12
_space_group_name_Hall           '-C 2y'
loop_
_symmetry_equiv_pos_site_id
_symmetry_equiv_pos_as_xyz
1 x,y,z
2 -x,y,-z
3 1/2+x,1/2+y,z
4 1/2-x,1/2+y,-z
5 -x,-y,-z
6 x,-y,z
7 1/2-x,1/2-y,-z
8 1/2+x,1/2-y,z
_cell_length_a                   11.4429(14)
_cell_length_b                   23.6717(14)
_cell_length_c                   8.1660(9)
_cell_angle_alpha                90
_cell_angle_beta                 128.596(4)
_cell_angle_gamma                90
_cell_volume                     1728.78
loop_
_atom_site_label
_atom_site_type_symbol
_atom_site_fract_x
_atom_site_fract_y
_atom_site_fract_z
Pb1 Pb 0.5000 0.0000 1.0000
Ca1 Ca 0.5000 0.0000 0.5000
S1 S 0.0000 0.26920(6) 0.0000
S2 S 0.20760(17) 0.0000 -0.0154(2)
O1 O 0.3100(6) 0.07354(19) 0.7557(8)
O2 O 0.4592(4) 0.06456(13) 0.6712(5)
O3 O -0.0909(4) 0.29970(14) 0.0363(6)
O4 O 0.2451(5) 0.0000 0.1984(7)
C1 C 0.3520(6) 0.08764(19) 0.6532(8)
C2 C 0.2718(5) 0.13567(18) 0.5003(7)
C3 C 0.3010(5) 0.14900(19) 0.3627(7)
H1 H 0.3737 0.1291 0.3688
C4 C 0.2225(5) 0.19175(19) 0.2171(7)
H2 H 0.2430 0.2010 0.1266
C5 C 0.1127(4) 0.22074(17) 0.2071(6)
C6 C 0.0836(5) 0.20900(19) 0.3454(7)
H3 H 0.0114 0.2292 0.3395
C7 C 0.1642(5) 0.16658(19) 0.4920(7)
H4 H 0.1465 0.1585 0.5863
C8 C 0.0824(9) 0.0575(4) -0.1546(11)
H5 H 0.0085 0.0473 -0.2992
H6 H 0.1371 0.0899 -0.1444
H7 H 0.0339 0.0664 -0.0952
Pb1_2 Pb -0.5000 0.0000 -1.0000
Pb1_3 Pb 1.5000 0.0000 3.0000
Ca1_2 Ca -0.5000 0.0000 -0.5000
Ca1_3 Ca 0.5000 0.0000 1.5000
Ca1_4 Ca 1.5000 0.0000 2.5000
S1_2 S 1.0000 0.26920(6) 2.0000
S2A S 0.79240(17) 0.0000 1.0154(2)
O1A O -0.3100(6) 0.07354(19) -0.7557(8)
O1A_2 O 0.6900(6) 0.07354(19) 1.2443(8)
O1_2 O 1.3100(6) 0.07354(19) 2.7557(8)
O1D O 0.6900(6) -0.07354(19) 1.2443(8)
O1E O 0.3100(6) -0.07354(19) 0.7557(8)
O2A O -0.4592(4) 0.06456(13) -0.6712(5)
O2A_2 O 0.5408(4) 0.06456(13) 1.3288(5)
O2_2 O 1.4592(4) 0.06456(13) 2.6712(5)
O2D O 0.5408(4) -0.06456(13) 1.3288(5)
O2E O 0.4592(4) -0.06456(13) 0.6712(5)
O2A_3 O 0.5408(4) 0.06456(13) 0.3288(5)
O2D_2 O 0.5408(4) -0.06456(13) 0.3288(5)
O3A O 0.0909(4) 0.29970(14) -0.0363(6)
O3A_2 O 1.0909(4) 0.29970(14) 1.9637(6)
O3_2 O 0.9091(4) 0.29970(14) 2.0363(6)
O4A O 0.7549(5) 0.0000 0.8016(7)
C1A C -0.3520(6) 0.08764(19) -0.6532(8)
C1A_2 C 0.6480(6) 0.08764(19) 1.3468(8)
C1_2 C 1.3520(6) 0.08764(19) 2.6532(8)
C2A C -0.2718(5) 0.13567(18) -0.5003(7)
C2A_2 C 0.7282(5) 0.13567(18) 1.4997(7)
C2_2 C 1.2718(5) 0.13567(18) 2.5003(7)
C3A C -0.3010(5) 0.14900(19) -0.3627(7)
C3A_2 C 0.6990(5) 0.14900(19) 1.6373(7)
C3_2 C 1.3010(5) 0.14900(19) 2.3627(7)
H1A H -0.3737 0.1291 -0.3688
H1A_2 H 0.6263 0.1291 1.6312
H1_2 H 1.3737 0.1291 2.3688
C4A C -0.2225(5) 0.19175(19) -0.2171(7)
C4A_2 C 0.7775(5) 0.19175(19) 1.7829(7)
C4_2 C 1.2225(5) 0.19175(19) 2.2171(7)
H2A H -0.2430 0.2010 -0.1266
H2A_2 H 0.7570 0.2010 1.8734
H2_2 H 1.2430 0.2010 2.1266
C5A C -0.1127(4) 0.22074(17) -0.2071(6)
C5A_2 C 0.8873(4) 0.22074(17) 1.7929(6)
C5_2 C 1.1127(4) 0.22074(17) 2.2071(6)
C6A C -0.0836(5) 0.20900(19) -0.3454(7)
C6A_2 C 0.9164(5) 0.20900(19) 1.6546(7)
C6_2 C 1.0836(5) 0.20900(19) 2.3454(7)
H3A H -0.0114 0.2292 -0.3395
H3A_2 H 0.9886 0.2292 1.6605
H3_2 H 1.0114 0.2292 2.3395
C7A C -0.1642(5) 0.16658(19) -0.4920(7)
C7A_2 C 0.8358(5) 0.16658(19) 1.5080(7)
C7_2 C 1.1642(5) 0.16658(19) 2.4920(7)
H4A H -0.1465 0.1585 -0.5863
H4A_2 H 0.8535 0.1585 1.4137
H4_2 H 1.1465 0.1585 2.5863
C8E C 0.0824(9) -0.0575(4) -0.1546(11)
C8A C 0.9176(9) 0.0575(4) 1.1546(11)
C8D C 0.9176(9) -0.0575(4) 1.1546(11)
H5E H 0.0085 -0.0473 -0.2992
H5A H 0.9915 0.0473 1.2992
H5D H 0.9915 -0.0473 1.2992
H6E H 0.1371 -0.0899 -0.1444
H6A H 0.8629 0.0899 1.1444
H6D H 0.8629 -0.0899 1.1444
H7E H 0.0339 -0.0664 -0.0952
H7A H 0.9661 0.0664 1.0952
H7D H 0.9661 -0.0664 1.0952
loop_
_geom_bond_atom_site_label_1
_geom_bond_atom_site_label_2
_geom_bond_site_symmetry_1
_geom_bond_site_symmetry_2
Pb1 O1 1_555 1_555
Ca1 O2 1_555 1_555
S1 O3 1_555 1_555
S2 O4 1_555 1_555
O1 C1 1_555 1_555
O2 Pb1 1_555 1_555
O4 Ca1 1_555 1_555
C1 O2 1_555 1_555
C2 C1 1_555 1_555
C3 C2 1_555 1_555
H1 C3 1_555 1_555
C4 C3 1_555 1_555
H2 C4 1_555 1_555
C5 S1 1_555 1_555
C6 C5 1_555 1_555
H3 C6 1_555 1_555
C7 C2 1_555 1_555
H4 C7 1_555 1_555
C8 S2 1_555 1_555
H5 C8 1_555 1_555
H6 C8 1_555 1_555
H7 C8 1_555 1_555
Pb1_2 O1A 1_555 1_555
Pb1_3 O1_2 1_555 1_555
Ca1_2 O2A 1_555 1_555
Ca1_3 O2A_2 1_555 1_555
Ca1_4 O2_2 1_555 1_555
S1_2 O3A_2 1_555 1_555
S2A O4A 1_555 1_555
O1A C1A 1_555 1_555
O1A_2 Pb1 1_555 1_555
O1_2 C1_2 1_555 1_555
O1D Pb1 1_555 1_555
O1E Pb1 1_555 1_555
O2A Pb1_2 1_555 1_555
O2A_2 Pb1 1_555 1_555
O2_2 Pb1_3 1_555 1_555
O2D Pb1 1_555 1_555
O2E Pb1 1_555 1_555
O2A_3 Ca1 1_555 1_555
O2D_2 Ca1 1_555 1_555
O3A S1 1_555 1_555
O3_2 S1_2 1_555 1_555
O4A Ca1 1_555 1_555
C1A O2A 1_555 1_555
C1A_2 O1A_2 1_555 1_555
C1_2 O2_2 1_555 1_555
C2A C1A 1_555 1_555
C2A_2 C1A_2 1_555 1_555
C2_2 C1_2 1_555 1_555
C3A C2A 1_555 1_555
C3A_2 C2A_2 1_555 1_555
C3_2 C2_2 1_555 1_555
H1A C3A 1_555 1_555
H1A_2 C3A_2 1_555 1_555
H1_2 C3_2 1_555 1_555
C4A C3A 1_555 1_555
C4A_2 C3A_2 1_555 1_555
C4_2 C3_2 1_555 1_555
H2A C4A 1_555 1_555
H2A_2 C4A_2 1_555 1_555
H2_2 C4_2 1_555 1_555
C5A S1 1_555 1_555
C5A_2 S1_2 1_555 1_555
C5_2 S1_2 1_555 1_555
C6A C5A 1_555 1_555
C6A_2 C5A_2 1_555 1_555
C6_2 C5_2 1_555 1_555
H3A C6A 1_555 1_555
H3A_2 C6A_2 1_555 1_555
H3_2 C6_2 1_555 1_555
C7A C2A 1_555 1_555
C7A_2 C2A_2 1_555 1_555
C7_2 C2_2 1_555 1_555
H4A C7A 1_555 1_555
H4A_2 C7A_2 1_555 1_555
H4_2 C7_2 1_555 1_555
C8E S2 1_555 1_555
C8A S2A 1_555 1_555
C8D S2A 1_555 1_555
H5E C8E 1_555 1_555
H5A C8A 1_555 1_555
H5D C8D 1_555 1_555
H6E C8E 1_555 1_555
H6A C8A 1_555 1_555
H6D C8D 1_555 1_555
H7E C8E 1_555 1_555
H7A C8A 1_555 1_555
H7D C8D 1_555 1_555
Ca1 O2E 1_555 1_555
C4 C5 1_555 1_555
C6 C7 1_555 1_555
Ca1_3 O2D 1_555 1_555
O2A_2 C1A_2 1_555 1_555
C4A C5A 1_555 1_555
C4A_2 C5A_2 1_555 1_555
C4_2 C5_2 1_555 1_555
C6A C7A 1_555 1_555
C6A_2 C7A_2 1_555 1_555
C6_2 C7_2 1_555 1_555

#END
