
#######################################################################
#
#                 Cambridge Crystallographic Data Centre
#                                CCDC 
#
#######################################################################
#
# If this CIF has been generated from an entry in the Cambridge 
# Structural Database, then it will include bibliographic, chemical, 
# crystal, experimental, refinement or atomic coordinate data resulting 
# from the CCDC's data processing and validation procedures.
#
#######################################################################

data_LACGIH
_symmetry_cell_setting           triclinic
_symmetry_space_group_name_H-M   'P -1'
_symmetry_Int_Tables_number      2
_space_group_name_Hall           '-P 1'
loop_
_symmetry_equiv_pos_site_id
_symmetry_equiv_pos_as_xyz
1 x,y,z
2 -x,-y,-z
_cell_length_a                   9.8108(5)
_cell_length_b                   10.4971(4)
_cell_length_c                   12.3568(5)
_cell_angle_alpha                68.336(8)
_cell_angle_beta                 87.529(9)
_cell_angle_gamma                68.261(8)
_cell_volume                     1092.09
loop_
_atom_site_label
_atom_site_type_symbol
_atom_site_fract_x
_atom_site_fract_y
_atom_site_fract_z
Pb1 Pb 0.04881(3) 0.38588(3) 0.72176(2)
Sr1 Sr -0.04515(6) 0.81461(6) 0.49883(5)
O1 O 0.1177(8) 0.4700(7) 0.8668(6)
O2 O 0.0641(8) 0.6663(7) 0.7007(5)
O3 O 0.1073(7) 1.1204(6) 0.7118(5)
O4 O 0.1766(7) 1.1222(6) 0.8786(5)
O5 O -0.1317(6) 0.4241(6) 0.5324(5)
O6 O -0.1725(6) 0.6244(6) 0.5704(5)
O7 O -0.6942(7) 1.0085(8) 0.4849(8)
O8 O -0.8653(6) 0.9397(6) 0.4452(6)
O9 O 0.1453(6) 0.6519(6) 1.1829(4)
O10 O -0.5741(7) 0.5696(8) 0.2568(6)
H1 H -0.6635 0.6025 0.2396
C1 C 0.1008(9) 0.6043(9) 0.8097(8)
C2 C 0.1432(8) 1.0597(8) 0.8220(7)
C3 C -0.2141(7) 0.5540(7) 0.5247(6)
C4 C -0.7313(8) 0.9239(8) 0.4544(7)
C5 C 0.1179(9) 0.6906(8) 0.8764(7)
C6 C 0.1224(9) 0.6346(9) 0.9974(7)
H2 H 0.1148 0.5431 1.0351
C7 C 0.1379(8) 0.7115(8) 1.0645(7)
C8 C 0.1470(8) 0.8491(8) 1.0055(7)
H3 H 0.1589 0.9023 1.0476
C9 C 0.1383(8) 0.9076(8) 0.8840(7)
C10 C 0.1227(8) 0.8309(8) 0.8181(7)
H4 H 0.1156 0.8719 0.7367
C11 C -0.3644(8) 0.6266(8) 0.4579(7)
C12 C -0.4013(8) 0.5677(8) 0.3846(7)
H5 H -0.3305 0.4870 0.3731
C13 C -0.5440(8) 0.6293(9) 0.3285(7)
C14 C -0.6537(9) 0.7458(8) 0.3530(7)
H6 H -0.7509 0.7837 0.3202
C15 C -0.6148(8) 0.8020(8) 0.4259(7)
C16 C -0.4701(8) 0.7456(8) 0.4762(7)
H7 H -0.4443 0.7878 0.5221
Pb1_2 Pb 0.04881(3) 1.38588(3) 0.72176(2)
Pb1A Pb -0.04881(3) 0.61412(3) 1.27824(2)
Sr1A Sr 0.04515(6) 1.18539(6) 0.50117(5)
Sr1A_2 Sr 0.04515(6) 0.18539(6) 0.50117(5)
Sr1A_3 Sr -0.95485(6) 1.18539(6) 0.50117(5)
Sr1_2 Sr -1.04515(6) 0.81461(6) 0.49883(5)
O3_2 O 0.1073(7) 0.1204(6) 0.7118(5)
O3A O -0.1073(7) 0.8796(6) 0.2882(5)
O4_2 O 0.1766(7) 0.1222(6) 0.8786(5)
O5A O 0.1317(6) 0.5759(6) 0.4676(5)
O7A O -0.3058(7) 0.9915(8) 0.5151(8)
O8A O -0.1347(6) 1.0603(6) 0.5548(6)
O8_2 O 0.1347(6) 0.9397(6) 0.4452(6)
O9A O -0.1453(6) 0.3481(6) 0.8171(4)
N1 N 0.5893(10) 0.8095(13) -0.1503(10)
C17 C 0.747(2) 0.792(3) -0.158(2)
C18 C 0.487(2) 0.902(4) -0.254(2)
C19? C 0.551(4) 0.950(5) -0.120(4)
C20? C 0.551(2) 0.707(4) -0.050(2)
loop_
_geom_bond_atom_site_label_1
_geom_bond_atom_site_label_2
_geom_bond_site_symmetry_1
_geom_bond_site_symmetry_2
Pb1 O1 1_555 1_555
Sr1 O2 1_555 1_555
O1 C1 1_555 1_555
O2 C1 1_555 1_555
O3 C2 1_555 1_555
O4 C2 1_555 1_555
O5 Pb1 1_555 1_555
O6 Pb1 1_555 1_555
O7 C4 1_555 1_555
O8 C4 1_555 1_555
O9 C7 1_555 1_555
O10 H1 1_555 1_555
N1 C17 1_555 1_555
C1 C5 1_555 1_555
C2 C9 1_555 1_555
C3 O5 1_555 1_555
C4 C15 1_555 1_555
C5 C6 1_555 1_555
C6 H2 1_555 1_555
C7 C6 1_555 1_555
C8 C7 1_555 1_555
H3 C8 1_555 1_555
C9 C8 1_555 1_555
C10 C5 1_555 1_555
H4 C10 1_555 1_555
C11 C3 1_555 1_555
C12 C11 1_555 1_555
H5 C12 1_555 1_555
C13 O10 1_555 1_555
C14 C13 1_555 1_555
H6 C14 1_555 1_555
C15 C14 1_555 1_555
C16 C11 1_555 1_555
H7 C16 1_555 1_555
C18 N1 1_555 1_555
Pb1_2 O3 1_555 1_555
Pb1A O9 1_555 1_555
Sr1A O3 1_555 1_555
Sr1A_2 O5 1_555 1_555
Sr1A_3 O7 1_555 1_555
Sr1_2 O8 1_555 1_555
O3_2 Pb1 1_555 1_555
O3A Sr1 1_555 1_555
O4_2 Pb1 1_555 1_555
O5A Sr1 1_555 1_555
O7A Sr1 1_555 1_555
O8A Sr1 1_555 1_555
O8_2 Sr1 1_555 1_555
O9A Pb1 1_555 1_555
Sr1 O6 1_555 1_555
O4 Pb1_2 1_555 1_555
O6 C3 1_555 1_555
O8 Sr1A_3 1_555 1_555
C9 C10 1_555 1_555
C12 C13 1_555 1_555
C15 C16 1_555 1_555
Sr1A O8A 1_555 1_555
Sr1A O8_2 1_555 1_555
Sr1A_2 O3_2 1_555 1_555

#END
