
#######################################################################
#
#                 Cambridge Crystallographic Data Centre
#                                CCDC 
#
#######################################################################
#
# If this CIF has been generated from an entry in the Cambridge 
# Structural Database, then it will include bibliographic, chemical, 
# crystal, experimental, refinement or atomic coordinate data resulting 
# from the CCDC's data processing and validation procedures.
#
#######################################################################

data_LACHII
_symmetry_cell_setting           monoclinic
_symmetry_space_group_name_H-M   'P 21/c'
_symmetry_Int_Tables_number      14
_space_group_name_Hall           '-P 2ybc'
loop_
_symmetry_equiv_pos_site_id
_symmetry_equiv_pos_as_xyz
1 x,y,z
2 -x,1/2+y,1/2-z
3 -x,-y,-z
4 x,1/2-y,1/2+z
_cell_length_a                   8.521(2)
_cell_length_b                   10.161(2)
_cell_length_c                   21.849(3)
_cell_angle_alpha                90
_cell_angle_beta                 97.554(2)
_cell_angle_gamma                90
_cell_volume                     1875.31
loop_
_atom_site_label
_atom_site_type_symbol
_atom_site_fract_x
_atom_site_fract_y
_atom_site_fract_z
Cu1 Cu 0.47388(3) 0.21188(3) 0.170088(13)
O1 O 0.3386(2) 0.02248(18) 0.12245(8)
O2 O 0.5027(2) 0.07968(17) 0.23535(8)
O3 O 0.3958(2) -0.09112(19) 0.27809(9)
N1 N 0.2744(2) 0.2890(2) 0.19400(10)
N2 N 0.4309(3) 0.3358(2) 0.09870(11)
H1 H 0.378(4) 0.296(3) 0.0665(11)
N3 N 0.6730(2) 0.1797(2) 0.13403(10)
C1 C 0.1909(3) 0.2459(3) 0.23796(13)
H2 H 0.2316 0.1751 0.2637
C2 C 0.0474(3) 0.3012(3) 0.24707(15)
H3 H -0.0100 0.2688 0.2783
C3 C -0.0107(3) 0.4051(3) 0.20963(16)
H4 H -0.1102 0.4434 0.2141
C4 C 0.0774(3) 0.4521(3) 0.16584(14)
H5 H 0.0406 0.5249 0.1407
C5 C 0.2199(3) 0.3924(3) 0.15874(12)
C6 C 0.3263(4) 0.4411(3) 0.11417(14)
H6 H 0.2614 0.4729 0.0761
H7 H 0.3904 0.5157 0.1327
C7 C 0.5796(3) 0.3751(3) 0.07784(13)
H8 H 0.6197 0.4562 0.0997
H9 H 0.5618 0.3942 0.0330
C8 C 0.7011(3) 0.2662(3) 0.09048(12)
C9 C 0.8356(3) 0.2591(3) 0.06096(13)
H10 H 0.8545 0.3224 0.0308
C10 C 0.9414(3) 0.1575(3) 0.07647(14)
H11 H 1.0338 0.1496 0.0567
C11 C 0.9118(3) 0.0680(3) 0.12074(15)
H12 H 0.9832 -0.0025 0.1317
C12 C 0.7774(3) 0.0817(3) 0.14919(14)
H13 H 0.7580 0.0205 0.1802
C13 C 0.3795(4) -0.0426(3) 0.06796(14)
H14 H 0.4856 -0.0142 0.0594
H15 H 0.3014 -0.0207 0.0317
C14 C 0.3786(4) -0.1882(3) 0.08033(14)
H16 H 0.4575 -0.2347 0.0588
H17 H 0.2726 -0.2267 0.0677
C15 C 0.4229(5) -0.1931(3) 0.14971(15)
H18 H 0.5388 -0.1856 0.1614
H19 H 0.3850 -0.2752 0.1673
C16 C 0.3366(3) -0.0728(3) 0.17052(12)
H20 H 0.2245 -0.0970 0.1742
C17 C 0.4173(3) -0.0238(2) 0.23289(11)
Cu1A Cu 0.52612(3) -0.28812(3) 0.329912(13)
O3A O 0.6042(2) 0.40888(19) 0.22191(9)
Cl1 Cl 0.16598(8) 0.20228(7) 0.43928(3)
O4 O 0.2416(3) 0.1755(3) 0.38642(12)
O5 O 0.0126(3) 0.2552(3) 0.41937(16)
O6 O 0.1504(4) 0.0832(3) 0.47233(13)
O7 O 0.2571(3) 0.2947(2) 0.47959(11)
loop_
_geom_bond_atom_site_label_1
_geom_bond_atom_site_label_2
_geom_bond_site_symmetry_1
_geom_bond_site_symmetry_2
Cu1 O1 1_555 1_555
Cl1 O4 1_555 1_555
O1 C13 1_555 1_555
O2 Cu1 1_555 1_555
O3 C17 1_555 1_555
O5 Cl1 1_555 1_555
O6 Cl1 1_555 1_555
O7 Cl1 1_555 1_555
N1 Cu1 1_555 1_555
N2 Cu1 1_555 1_555
H1 N2 1_555 1_555
N3 Cu1 1_555 1_555
C1 N1 1_555 1_555
H2 C1 1_555 1_555
C2 C1 1_555 1_555
H3 C2 1_555 1_555
C3 C2 1_555 1_555
H4 C3 1_555 1_555
C4 C3 1_555 1_555
H5 C4 1_555 1_555
C5 N1 1_555 1_555
C6 N2 1_555 1_555
H6 C6 1_555 1_555
H7 C6 1_555 1_555
C7 N2 1_555 1_555
H8 C7 1_555 1_555
H9 C7 1_555 1_555
C8 N3 1_555 1_555
C9 C8 1_555 1_555
H10 C9 1_555 1_555
C10 C9 1_555 1_555
H11 C10 1_555 1_555
C11 C10 1_555 1_555
H12 C11 1_555 1_555
C12 N3 1_555 1_555
H13 C12 1_555 1_555
C13 H14 1_555 1_555
H15 C13 1_555 1_555
C14 C13 1_555 1_555
H16 C14 1_555 1_555
H17 C14 1_555 1_555
C15 C14 1_555 1_555
H18 C15 1_555 1_555
H19 C15 1_555 1_555
C16 O1 1_555 1_555
H20 C16 1_555 1_555
C17 O2 1_555 1_555
Cu1A O3 1_555 1_555
O3A Cu1 1_555 1_555
C4 C5 1_555 1_555
C5 C6 1_555 1_555
C7 C8 1_555 1_555
C11 C12 1_555 1_555
C15 C16 1_555 1_555
C16 C17 1_555 1_555

#END
