
#######################################################################
#
#                 Cambridge Crystallographic Data Centre
#                                CCDC 
#
#######################################################################
#
# If this CIF has been generated from an entry in the Cambridge 
# Structural Database, then it will include bibliographic, chemical, 
# crystal, experimental, refinement or atomic coordinate data resulting 
# from the CCDC's data processing and validation procedures.
#
#######################################################################

data_LACHEE
_symmetry_cell_setting           monoclinic
_symmetry_space_group_name_H-M   'C 2/c'
_symmetry_Int_Tables_number      15
_space_group_name_Hall           '-C 2yn'
loop_
_symmetry_equiv_pos_site_id
_symmetry_equiv_pos_as_xyz
1 x,y,z
2 -x,y,1/2-z
3 1/2+x,1/2+y,z
4 1/2-x,1/2+y,1/2-z
5 -x,-y,-z
6 x,-y,1/2+z
7 1/2-x,1/2-y,-z
8 1/2+x,1/2-y,1/2+z
_cell_length_a                   15.458(2)
_cell_length_b                   15.890(2)
_cell_length_c                   11.4300(10)
_cell_angle_alpha                90
_cell_angle_beta                 99.318(4)
_cell_angle_gamma                90
_cell_volume                     2770.48
loop_
_atom_site_label
_atom_site_type_symbol
_atom_site_fract_x
_atom_site_fract_y
_atom_site_fract_z
C1 C 0.30916(10) 0.23718(10) 0.30618(13)
C2 C 0.34416(10) 0.23552(11) 0.19141(14)
C3 C 0.33016(11) 0.16985(11) 0.00619(14)
C4 C 0.38413(12) 0.22420(12) -0.03324(15)
H1 H 0.3936 0.2198 -0.1131
C5 C 0.43048(12) 0.29207(13) 0.04343(16)
H2 H 0.4192 0.3473 0.0037
H3 H 0.4945 0.2817 0.0560
C6 C 0.39858(11) 0.29342(12) 0.16077(15)
H4 H 0.4180 0.3373 0.2152
C7 C 0.28045(11) 0.10314(11) -0.06666(14)
C8 C 0.37021(10) 0.15669(10) 0.60574(13)
C9 C 0.43820(10) 0.10146(10) 0.67600(13)
C10 C 0.43606(12) 0.01821(11) 0.67108(17)
H5 H 0.3922 -0.0081 0.6152
C11 C 0.5000 -0.03628(17) 0.7500
H6 H 0.4682 -0.0728 0.7989
O1 O 0.25434(8) 0.18099(8) 0.32273(11)
O2 O 0.33680(8) 0.29507(8) 0.37746(10)
O3 O 0.31128(9) 0.16848(8) 0.12077(10)
O4 O 0.22958(9) 0.05636(8) -0.02663(11)
O5 O 0.29635(9) 0.09999(9) -0.17568(11)
H7 H 0.2656(14) 0.0606(11) -0.209(2)
O6 O 0.30313(7) 0.12036(8) 0.55062(11)
O7 O 0.38470(8) 0.23472(8) 0.60903(11)
O8 O 0.5000 0.14811(10) 0.7500
O9 O 0.11714(8) 0.07755(8) 0.42600(12)
H8 H 0.0905(15) 0.0746(17) 0.4873(14)
H9 H 0.1482(14) 0.0320(9) 0.425(2)
Cu1 Cu 0.201724(12) 0.183680(12) 0.469601(15)
C1F C 0.19084(10) 0.26282(10) 0.69382(13)
C2F C 0.15584(10) 0.26448(11) 0.80859(14)
C3F C 0.16984(11) 0.33015(11) 0.99381(14)
C4F C 0.11587(12) 0.27580(12) 1.03324(15)
H1F H 0.1064 0.2802 1.1131
C5F C 0.06952(12) 0.20793(13) 0.95657(16)
H2F H 0.0808 0.1527 0.9963
H3F H 0.0055 0.2183 0.9440
C6F C 0.10142(11) 0.20658(12) 0.83923(15)
H4F H 0.0820 0.1627 0.7848
C7F C 0.21955(11) 0.39686(11) 1.06666(14)
C8A C 0.62979(10) 0.15669(10) 0.89426(13)
C9A C 0.56180(10) 0.10146(10) 0.82400(13)
C10A C 0.56394(12) 0.01821(11) 0.82892(17)
H5A H 0.6078 -0.0081 0.8848
H6A H 0.5318 -0.0728 0.7011
O1F O 0.24566(8) 0.31901(8) 0.67727(11)
O2F O 0.16320(8) 0.20493(8) 0.62254(10)
O3F O 0.18872(9) 0.33152(8) 0.87923(10)
O4F O 0.27042(9) 0.44364(8) 1.02663(11)
O5F O 0.20365(9) 0.40001(9) 1.17568(11)
H7F H 0.2344(14) 0.4394(11) 1.209(2)
O6A O 0.69687(7) 0.12036(8) 0.94938(11)
O6F O 0.19687(7) 0.37964(8) 0.44938(11)
O7A O 0.61530(8) 0.23472(8) 0.89097(11)
O7F O 0.11530(8) 0.26528(8) 0.39097(11)
O9F O 0.38286(8) 0.42245(8) 0.57400(12)
H8F H 0.4095(15) 0.4254(17) 0.5127(14)
H9F H 0.3518(14) 0.4680(9) 0.575(2)
Cu1F Cu 0.298276(12) 0.316320(12) 0.530399(15)
Cu1A Cu 0.798276(12) 0.183680(12) 1.030399(15)
Cu1G Cu 0.701724(12) 0.316320(12) 0.969601(15)
O10 O 0.21409(9) 0.02506(9) 0.21087(11)
H10 H 0.2217(17) 0.0282(17) 0.1372(7)
H11 H 0.2268(17) 0.0736(8) 0.244(2)
O11 O 0.0000 0.1433(3) 0.2500
H12 H 0.037(3) 0.1235(11) 0.207(5)
H12A H -0.037(3) 0.1235(11) 0.293(5)
O13 O 0.0417(2) 0.0324(2) 0.6249(4)
H16 H 0.013(4) -0.010(3) 0.591(6)
H17 H 0.085(3) 0.015(4) 0.677(5)
H13? H 0.0000 0.1981(3) 0.2500
O12? O 0.0261(4) 0.1459(4) 0.2202(6)
H14? H -0.016(5) 0.115(6) 0.183(9)
H15? H 0.0000 0.1874(6) 0.2500
loop_
_geom_bond_atom_site_label_1
_geom_bond_atom_site_label_2
_geom_bond_site_symmetry_1
_geom_bond_site_symmetry_2
C1 C2 1_555 1_555
C2 C6 1_555 1_555
C3 C4 1_555 1_555
C4 H1 1_555 1_555
C5 C4 1_555 1_555
H2 C5 1_555 1_555
H3 C5 1_555 1_555
C6 C5 1_555 1_555
H4 C6 1_555 1_555
C7 C3 1_555 1_555
C8 C9 1_555 1_555
C9 C10 1_555 1_555
C10 H5 1_555 1_555
C11 C10 1_555 1_555
H6 C11 1_555 1_555
O1 C1 1_555 1_555
O2 C1 1_555 1_555
O3 C2 1_555 1_555
O4 C7 1_555 1_555
O5 C7 1_555 1_555
H7 O5 1_555 1_555
O6 C8 1_555 1_555
O7 C8 1_555 1_555
O8 C9 1_555 1_555
O9 H8 1_555 1_555
H9 O9 1_555 1_555
O10 H10 1_555 1_555
H11 O10 1_555 1_555
O11 H12 1_555 1_555
O13 H16 1_555 1_555
H17 O13 1_555 1_555
Cu1 O1 1_555 1_555
C1F C2F 1_555 1_555
C2F C6F 1_555 1_555
C3F C4F 1_555 1_555
C4F H1F 1_555 1_555
C5F C4F 1_555 1_555
H2F C5F 1_555 1_555
H3F C5F 1_555 1_555
C6F C5F 1_555 1_555
H4F C6F 1_555 1_555
C7F C3F 1_555 1_555
C8A C9A 1_555 1_555
C9A O8 1_555 1_555
C10A C11 1_555 1_555
H5A C10A 1_555 1_555
H6A C11 1_555 1_555
O1F C1F 1_555 1_555
O2F Cu1 1_555 1_555
O3F C2F 1_555 1_555
O4F C7F 1_555 1_555
O5F C7F 1_555 1_555
H7F O5F 1_555 1_555
O6A C8A 1_555 1_555
O6F Cu1F 1_555 1_555
O7A C8A 1_555 1_555
O7F Cu1 1_555 1_555
O9F H8F 1_555 1_555
H9F O9F 1_555 1_555
H12A O11 1_555 1_555
Cu1F O2 1_555 1_555
Cu1A O6A 1_555 1_555
Cu1G O7A 1_555 1_555
C3 O3 1_555 1_555
O6 Cu1 1_555 1_555
O7 Cu1F 1_555 1_555
O9 Cu1 1_555 1_555
Cu1 Cu1F 1_555 1_555
C1F O2F 1_555 1_555
C3F O3F 1_555 1_555
C9A C10A 1_555 1_555
O1F Cu1F 1_555 1_555
O9F Cu1F 1_555 1_555
Cu1A Cu1G 1_555 1_555

#END
