
#######################################################################
#
#                 Cambridge Crystallographic Data Centre
#                                CCDC 
#
#######################################################################
#
# If this CIF has been generated from an entry in the Cambridge 
# Structural Database, then it will include bibliographic, chemical, 
# crystal, experimental, refinement or atomic coordinate data resulting 
# from the CCDC's data processing and validation procedures.
#
#######################################################################

data_LACHEC
_symmetry_cell_setting           triclinic
_symmetry_space_group_name_H-M   'P -1'
_symmetry_Int_Tables_number      2
_space_group_name_Hall           '-P 1'
loop_
_symmetry_equiv_pos_site_id
_symmetry_equiv_pos_as_xyz
1 x,y,z
2 -x,-y,-z
_cell_length_a                   9.5001(10)
_cell_length_b                   10.5493(12)
_cell_length_c                   11.7799(13)
_cell_angle_alpha                63.666(11)
_cell_angle_beta                 85.427(12)
_cell_angle_gamma                73.609(11)
_cell_volume                     1013.64
loop_
_atom_site_label
_atom_site_type_symbol
_atom_site_fract_x
_atom_site_fract_y
_atom_site_fract_z
K1 K 0.2167(1) 0.3561(1) -0.4073(1)
Nd1 Nd 0.2421(1) -0.0312(1) -0.4660(1)
S1 S 0.0150(1) -0.1640(1) -0.2446(1)
S2 S -0.0813(1) 0.2158(1) -0.3965(1)
S3 S 0.6090(1) -0.2954(1) -0.3318(1)
S4 S 0.5068(1) 0.0036(1) -0.2667(1)
O1 O -0.0146(4) -0.3015(4) -0.1720(3)
O2 O -0.0413(4) -0.0907(4) -0.3767(3)
O3 O 0.1704(4) -0.1702(4) -0.2470(3)
O4 O 0.0720(4) 0.1492(3) -0.4095(3)
O5 O -0.1815(4) 0.2108(3) -0.4804(3)
O6 O -0.1026(4) 0.3619(3) -0.4106(3)
O7 O 0.6670(4) -0.4411(4) -0.3200(4)
O8 O 0.6968(6) -0.2018(5) -0.4104(4)
O9 O 0.4570(5) -0.2364(5) -0.3759(4)
O10 O 0.4728(5) 0.0937(4) -0.2018(4)
O11 O 0.6238(5) 0.0325(4) -0.3515(4)
O12 O 0.3782(5) 0.0146(4) -0.3305(4)
O13 O 0.0329(1) 0.4571(1) -0.2508(1)
O14 O 0.4269(1) 0.4602(1) -0.3866(1)
C1 C -0.0763(5) -0.0461(5) -0.1751(4)
C2 C -0.1176(5) 0.1082(5) -0.2370(4)
C3 C -0.1882(6) 0.1861(6) -0.1705(5)
C4 C -0.2166(6) 0.1134(7) -0.0448(5)
C5 C -0.1762(6) -0.0356(7) 0.0155(5)
C6 C -0.1067(6) -0.1169(6) -0.0489(5)
C7 C 0.6150(5) -0.3053(5) -0.1779(4)
C8 C 0.5704(5) -0.1825(5) -0.1516(4)
C9 C 0.5762(6) -0.2050(6) -0.0267(5)
C10 C 0.6243(7) -0.3436(7) 0.0692(5)
C11 C 0.6700(7) -0.4629(7) 0.0441(5)
C12 C 0.6655(1) -0.4443(1) -0.0776(1)
K1A K -0.2167(1) 0.6439(1) -0.5927(1)
O6A O 0.1026(4) 0.6381(3) -0.5894(3)
O2A O 0.0413(4) 0.0907(4) -0.6233(3)
O5A O 0.1815(4) -0.2108(3) -0.5196(3)
O11A O 0.3762(5) -0.0325(4) -0.6485(4)
Nd1A Nd -0.2421(1) 0.0312(1) -0.5340(1)
Nd1A_2 Nd 0.7579(1) 0.0312(1) -0.5340(1)
O7A O 0.3330(4) 0.4411(4) -0.6800(4)
O8A O 0.3032(6) 0.2018(5) -0.5896(4)
K1A_2 K 0.7833(1) -0.3561(1) -0.5927(1)
loop_
_geom_bond_atom_site_label_1
_geom_bond_atom_site_label_2
_geom_bond_site_symmetry_1
_geom_bond_site_symmetry_2
K1 O4 1_555 1_555
Nd1 O2 1_555 1_555
S1 O1 1_555 1_555
S2 O4 1_555 1_555
S3 O7 1_555 1_555
S4 O10 1_555 1_555
O2 S1 1_555 1_555
O3 Nd1 1_555 1_555
O4 Nd1 1_555 1_555
O5 S2 1_555 1_555
O6 K1 1_555 1_555
O7 K1A_2 1_555 1_555
O8 S3 1_555 1_555
O9 Nd1 1_555 1_555
O10 K1 1_555 1_555
O11 S4 1_555 1_555
O12 K1 1_555 1_555
O13 K1 1_555 1_555
O14 K1 1_555 1_555
C1 S1 1_555 1_555
C2 S2 1_555 1_555
C3 C2 1_555 1_555
C4 C3 1_555 1_555
C5 C4 1_555 1_555
C6 C1 1_555 1_555
C7 S3 1_555 1_555
C8 S4 1_555 1_555
C9 C8 1_555 1_555
C10 C9 1_555 1_555
C11 C10 1_555 1_555
C12 C7 1_555 1_555
K1A O6 1_555 1_555
O6A K1 1_555 1_555
O2A Nd1 1_555 1_555
O5A Nd1 1_555 1_555
O11A Nd1 1_555 1_555
Nd1A O2 1_555 1_555
Nd1A_2 O8 1_555 1_555
O7A K1 1_555 1_555
O8A K1 1_555 1_555
K1A_2 O8 1_555 1_555
Nd1 O8A 1_555 1_555
Nd1 O12 1_555 1_555
S1 O3 1_555 1_555
S2 O6 1_555 1_555
S3 O9 1_555 1_555
S4 O12 1_555 1_555
O5 Nd1A 1_555 1_555
O11 Nd1A_2 1_555 1_555
C1 C2 1_555 1_555
C5 C6 1_555 1_555
C7 C8 1_555 1_555
C11 C12 1_555 1_555
K1A O6A 1_555 1_555
O2A Nd1A 1_555 1_555

#END
