
#######################################################################
#
#                 Cambridge Crystallographic Data Centre
#                                CCDC 
#
#######################################################################
#
# If this CIF has been generated from an entry in the Cambridge 
# Structural Database, then it will include bibliographic, chemical, 
# crystal, experimental, refinement or atomic coordinate data resulting 
# from the CCDC's data processing and validation procedures.
#
#######################################################################

data_LACLIL
_symmetry_cell_setting           monoclinic
_symmetry_space_group_name_H-M   'P 21/c'
_symmetry_Int_Tables_number      14
_space_group_name_Hall           '-P 2ybc'
loop_
_symmetry_equiv_pos_site_id
_symmetry_equiv_pos_as_xyz
1 x,y,z
2 x,1/2-y,1/2+z
3 -x,-y,-z
4 -x,1/2+y,1/2-z
_cell_length_a                   9.369(1)
_cell_length_b                   7.325(1)
_cell_length_c                   22.520(1)
_cell_angle_alpha                90.00
_cell_angle_beta                 99.39(1)
_cell_angle_gamma                90.00
_cell_volume                     1524.79
loop_
_atom_site_label
_atom_site_type_symbol
_atom_site_fract_x
_atom_site_fract_y
_atom_site_fract_z
Ag1 Ag 0.40134(4) 0.46112(5) 0.19900(2)
B1 B 0.2351(5) 0.7461(7) 0.1773(3)
B2 B 0.3947(5) 0.7822(6) 0.1536(2)
B3 B 0.3437(5) 0.9056(6) 0.2179(2)
B4 B 0.1677(5) 0.9616(7) 0.1707(2)
B5 B 0.2219(5) 0.8401(6) 0.1072(2)
B6 B 0.4708(5) 1.0042(6) 0.1752(2)
B7 B 0.3084(5) 1.1320(6) 0.1865(2)
B8 B 0.2236(5) 1.0838(7) 0.1092(2)
B9 B 0.3837(5) 0.9596(7) 0.0964(2)
B10 B 0.3935(5) 1.1710(7) 0.1273(2)
H17 H 0.186(4) 0.623(6) 0.1940(17)
H18 H 0.475(4) 0.679(5) 0.1481(15)
H19 H 0.373(4) 0.883(5) 0.2688(17)
H20 H 0.063(4) 0.992(5) 0.1874(18)
H21 H 0.158(4) 0.776(5) 0.0672(16)
H22 H 0.587(5) 1.011(6) 0.193(2)
H23 H 0.293(4) 1.241(6) 0.2245(18)
H24 H 0.145(4) 1.163(6) 0.0810(17)
H25 H 0.437(5) 0.941(6) 0.056(2)
H26 H 0.439(5) 1.290(6) 0.1084(18)
B3C B 0.6563(5) 0.4056(6) 0.2821(2)
B6C B 0.5292(5) 0.5042(6) 0.3248(2)
B7_2 B 0.3084(5) 0.1320(6) 0.1865(2)
B10_2 B 0.3935(5) 0.1710(7) 0.1273(2)
H19C H 0.627(4) 0.383(5) 0.2312(17)
H23_2 H 0.293(4) 0.241(6) 0.2245(18)
Ag1C Ag 0.59866(4) 0.96112(5) 0.30100(2)
Ag1_2 Ag 0.40134(4) 1.46112(5) 0.19900(2)
H22C H 0.413(5) 0.511(6) 0.307(2)
H26_2 H 0.439(5) 0.290(6) 0.1084(18)
N1 N 0.1301(4) 0.1703(5) 0.39062(17)
C1 C 0.2176(5) 0.3437(7) 0.3919(3)
C2 C 0.1957(8) 0.4726(10) 0.4410(3)
C3 C 0.1545(7) 0.0572(9) 0.3382(2)
C4 C 0.0793(7) -0.1236(8) 0.3314(3)
C5 C 0.1523(6) 0.0701(8) 0.4495(2)
C6 C 0.3064(8) 0.0136(11) 0.4704(4)
H1 H 0.054(5) 0.206(6) 0.387(2)
H2 H 0.314(5) 0.299(6) 0.3949(19)
H3 H 0.192(5) 0.392(8) 0.354(2)
H4 H 0.225(6) 0.432(8) 0.478(3)
H5 H 0.254(6) 0.581(9) 0.438(2)
H6 H 0.099(7) 0.513(8) 0.438(3)
H7 H 0.246(6) 0.046(8) 0.342(2)
H8 H 0.117(5) 0.138(8) 0.300(2)
H9 H 0.098(5) -0.192(9) 0.295(2)
H10 H 0.129(6) -0.196(9) 0.364(3)
H11 H -0.006(7) -0.111(9) 0.337(3)
H12 H 0.124(5) 0.150(7) 0.475(2)
H13 H 0.091(6) -0.037(8) 0.443(3)
H14 H 0.363(5) 0.112(7) 0.478(2)
H15 H 0.311(7) -0.044(9) 0.500(3)
H16 H 0.341(6) -0.061(8) 0.443(3)
loop_
_geom_bond_atom_site_label_1
_geom_bond_atom_site_label_2
_geom_bond_site_symmetry_1
_geom_bond_site_symmetry_2
Ag1 B1 1_555 1_555
N1 C1 1_555 1_555
C1 C2 1_555 1_555
C2 H4 1_555 1_555
C3 N1 1_555 1_555
C4 C3 1_555 1_555
C5 N1 1_555 1_555
C6 C5 1_555 1_555
B1 B2 1_555 1_555
B2 Ag1 1_555 1_555
B3 B1 1_555 1_555
B4 B1 1_555 1_555
B5 B1 1_555 1_555
B6 B2 1_555 1_555
B7 B3 1_555 1_555
B8 B4 1_555 1_555
B9 B2 1_555 1_555
B10 B6 1_555 1_555
H1 N1 1_555 1_555
H2 C1 1_555 1_555
H3 C1 1_555 1_555
H5 C2 1_555 1_555
H6 C2 1_555 1_555
H7 C3 1_555 1_555
H8 C3 1_555 1_555
H9 C4 1_555 1_555
H10 C4 1_555 1_555
H11 C4 1_555 1_555
H12 C5 1_555 1_555
H13 C5 1_555 1_555
H14 C6 1_555 1_555
H15 C6 1_555 1_555
H16 C6 1_555 1_555
H17 B1 1_555 1_555
H18 Ag1 1_555 1_555
H19 B3 1_555 1_555
H20 B4 1_555 1_555
H21 B5 1_555 1_555
H22 B6 1_555 1_555
H23 B7 1_555 1_555
H24 B8 1_555 1_555
H25 B9 1_555 1_555
H26 B10 1_555 1_555
B3C Ag1 1_555 1_555
B6C Ag1 1_555 1_555
B7_2 Ag1 1_555 1_555
B10_2 Ag1 1_555 1_555
H19C Ag1 1_555 1_555
H23_2 Ag1 1_555 1_555
Ag1C B3 1_555 1_555
Ag1_2 B7 1_555 1_555
H22C B6C 1_555 1_555
H26_2 B10_2 1_555 1_555
B2 B3 1_555 1_555
B2 B5 1_555 1_555
B2 H18 1_555 1_555
B3 B6 1_555 1_555
B3 B4 1_555 1_555
B4 B7 1_555 1_555
B4 B5 1_555 1_555
B5 B8 1_555 1_555
B5 B9 1_555 1_555
B6 B9 1_555 1_555
B6 B7 1_555 1_555
B6 Ag1C 1_555 1_555
B7 B10 1_555 1_555
B7 B8 1_555 1_555
B8 B10 1_555 1_555
B8 B9 1_555 1_555
B9 B10 1_555 1_555
B10 Ag1_2 1_555 1_555
H19 Ag1C 1_555 1_555
H23 Ag1_2 1_555 1_555
B3C B6C 1_555 1_555
B3C H19C 1_555 1_555
B7_2 B10_2 1_555 1_555
B7_2 H23_2 1_555 1_555

#END
