
#######################################################################
#
#                 Cambridge Crystallographic Data Centre
#                                CCDC 
#
#######################################################################
#
# If this CIF has been generated from an entry in the Cambridge 
# Structural Database, then it will include bibliographic, chemical, 
# crystal, experimental, refinement or atomic coordinate data resulting 
# from the CCDC's data processing and validation procedures.
#
#######################################################################

data_LACVAO
_symmetry_cell_setting           triclinic
_symmetry_space_group_name_H-M   'P -1'
_symmetry_Int_Tables_number      2
_space_group_name_Hall           '-P 1'
loop_
_symmetry_equiv_pos_site_id
_symmetry_equiv_pos_as_xyz
1 x,y,z
2 -x,-y,-z
_cell_length_a                   7.4719(14)
_cell_length_b                   9.6025(15)
_cell_length_c                   9.6934(17)
_cell_angle_alpha                75.965(14)
_cell_angle_beta                 78.872(15)
_cell_angle_gamma                87.877(14)
_cell_volume                     662.008
loop_
_atom_site_label
_atom_site_type_symbol
_atom_site_fract_x
_atom_site_fract_y
_atom_site_fract_z
Hg1 Hg 0.74476(5) 0.90023(3) 0.57380(4)
Hg2 Hg 0.26824(4) 0.98062(3) 0.95730(4)
Cl1 Cl 0.8615(3) 1.0774(2) 0.6574(3)
Cl2 Cl 0.3625(3) 0.9356(2) 0.6824(2)
Cl3 Cl 0.4393(2) 1.18698(19) 0.9397(2)
O1 O 0.9371(10) 0.7063(8) 0.7610(8)
H1 H 1.0015 0.7364 0.8101
N1 N 0.7239(8) 0.6935(6) 0.5307(7)
C1 C 0.7577(11) 0.6827(8) 0.3922(9)
H2 H 0.7748 0.7683 0.3172
C2 C 0.7686(12) 0.5543(9) 0.3550(9)
H3 H 0.7930 0.5503 0.2562
C3 C 0.7436(12) 0.4301(9) 0.4640(10)
H4 H 0.7514 0.3388 0.4417
C4 C 0.7073(11) 0.4410(8) 0.6039(10)
H5 H 0.6895 0.3562 0.6798
C5 C 0.6958(10) 0.5735(7) 0.6377(8)
C6 C 0.6549(12) 0.5862(9) 0.7902(10)
H6 H 0.5768 0.5042 0.8503
H7 H 0.5862 0.6755 0.7955
C7 C 0.8275(16) 0.5885(11) 0.8509(11)
H8 H 0.7965 0.5998 0.9516
H9 H 0.8944 0.4975 0.8513
Cl4 Cl 0.0488(2) 0.7980(2) 1.0391(2)
Hg1A Hg 0.25524(5) 1.09977(3) 0.42620(4)
Hg2A Hg 0.73176(4) 1.01938(3) 1.04270(4)
Cl2A Cl 0.6375(3) 1.0644(2) 0.3176(2)
Cl3A Cl 0.5607(2) 0.81302(19) 1.0603(2)
loop_
_geom_bond_atom_site_label_1
_geom_bond_atom_site_label_2
_geom_bond_site_symmetry_1
_geom_bond_site_symmetry_2
Hg1 Cl1 1_555 1_555
Hg2 Cl2 1_555 1_555
Cl2 Hg1 1_555 1_555
Cl3 Hg2 1_555 1_555
O1 Hg1 1_555 1_555
H1 O1 1_555 1_555
N1 Hg1 1_555 1_555
C1 N1 1_555 1_555
H2 C1 1_555 1_555
C2 C1 1_555 1_555
H3 C2 1_555 1_555
C3 C2 1_555 1_555
H4 C3 1_555 1_555
C4 C3 1_555 1_555
H5 C4 1_555 1_555
C5 N1 1_555 1_555
C6 C5 1_555 1_555
H6 C6 1_555 1_555
H7 C6 1_555 1_555
C7 O1 1_555 1_555
H8 C7 1_555 1_555
H9 C7 1_555 1_555
Cl4 Hg2 1_555 1_555
Hg1A Cl2 1_555 1_555
Hg2A Cl3 1_555 1_555
Cl2A Hg1 1_555 1_555
Cl3A Hg2 1_555 1_555
C4 C5 1_555 1_555
C6 C7 1_555 1_555
Hg1A Cl2A 1_555 1_555
Hg2A Cl3A 1_555 1_555

#END
