
#######################################################################
#
#                 Cambridge Crystallographic Data Centre
#                                CCDC 
#
#######################################################################
#
# If this CIF has been generated from an entry in the Cambridge 
# Structural Database, then it will include bibliographic, chemical, 
# crystal, experimental, refinement or atomic coordinate data resulting 
# from the CCDC's data processing and validation procedures.
#
#######################################################################

data_LACXET
_symmetry_cell_setting           monoclinic
_symmetry_space_group_name_H-M   'P 21/n'
_symmetry_Int_Tables_number      14
_space_group_name_Hall           '-P 2yn'
loop_
_symmetry_equiv_pos_site_id
_symmetry_equiv_pos_as_xyz
1 x,y,z
2 1/2+x,1/2-y,1/2+z
3 -x,-y,-z
4 1/2-x,1/2+y,1/2-z
_cell_length_a                   17.006(6)
_cell_length_b                   15.130(5)
_cell_length_c                   24.973(8)
_cell_angle_alpha                90
_cell_angle_beta                 106.361(6)
_cell_angle_gamma                90
_cell_volume                     6165.37
loop_
_atom_site_label
_atom_site_type_symbol
_atom_site_fract_x
_atom_site_fract_y
_atom_site_fract_z
O26 O -0.0857(15) 0.3470(13) 0.2475(12)
O31 O 0.078(2) 0.1064(19) 0.2486(18)
O32 O 0.913(5) 0.173(4) 0.261(4)
Eu1 Eu 0.55493(6) 0.31946(8) 0.24739(5)
Eu2 Eu 0.06162(7) 0.43202(8) 0.25038(5)
Eu3 Eu 0.76717(8) 0.44383(10) 0.24841(5)
Eu4 Eu 0.27624(7) 0.30795(9) 0.25568(5)
O1 O 0.5211(10) 0.2761(11) 0.3294(7)
O2 O 0.3910(8) 0.2338(10) 0.3095(6)
O3 O 0.1409(9) 0.2959(10) 0.2027(7)
O4 O 0.0107(9) 0.3235(10) 0.1823(6)
O5 O 0.3307(9) 0.4087(10) 0.3302(6)
O6 O 0.2003(9) 0.4444(10) 0.3066(7)
O7 O 0.5742(9) 0.4526(11) 0.2994(7)
O8 O 0.7064(9) 0.4930(11) 0.3208(7)
O9 O 0.2159(9) 0.2611(11) 0.3288(7)
O10 O 0.0869(9) 0.3027(10) 0.3072(6)
O11 O 0.7456(10) 0.3101(11) 0.1989(7)
O12 O 0.6146(9) 0.2687(10) 0.1737(6)
O13 O 0.3120(10) 0.2735(12) 0.1728(8)
O14 O 0.4450(8) 0.2417(10) 0.1921(6)
O15 O 0.6906(9) 0.3097(10) 0.2995(7)
O16 O 0.8226(9) 0.3442(11) 0.3207(7)
O17 O 0.8097(9) 0.4768(11) 0.1694(7)
O18 O -0.0550(9) 0.4986(11) 0.1919(7)
O19 O 0.2562(9) 0.4416(10) 0.2045(7)
O20 O 0.1255(9) 0.4783(10) 0.1807(7)
O21 O 0.4987(9) 0.4202(11) 0.1737(7)
O22 O 0.6322(9) 0.4526(11) 0.1954(7)
O23 O 0.8826(8) 0.5190(10) 0.3010(6)
O24 O 0.0132(9) 0.4815(10) 0.3223(7)
O25 O 0.0871(10) 0.5916(10) 0.2574(7)
O27 O 0.4202(10) 0.3979(9) 0.2538(8)
O28 O 0.5890(10) 0.1605(10) 0.2606(7)
O29 O 0.7384(10) 0.6053(13) 0.2301(9)
O30 O 0.2416(10) 0.1451(13) 0.2400(8)
C1 C 0.4638(15) 0.2542(17) 0.4024(11)
C2 C 0.5302(13) 0.2887(16) 0.4406(10)
H1 H 0.5706 0.3181 0.4290
C3 C 0.5376(14) 0.2790(17) 0.4999(11)
C4 C 0.6053(14) 0.3068(17) 0.5405(11)
H2 H 0.6443 0.3406 0.5301
C5 C 0.6181(14) 0.2868(16) 0.5960(11)
H3 H 0.6660 0.3036 0.6226
C6 C 0.5583(14) 0.2416(16) 0.6109(11)
C7 C 0.4854(15) 0.2191(17) 0.5724(11)
H4 H 0.4437 0.1927 0.5841
C8 C 0.4745(14) 0.2359(16) 0.5165(11)
C9 C 0.4051(14) 0.2048(18) 0.4745(11)
H5 H 0.3626 0.1764 0.4842
C10 C 0.4014(14) 0.2169(15) 0.4199(10)
H6 H 0.3543 0.1990 0.3930
C11 C 0.4579(12) 0.2574(14) 0.3426(9)
C12 C 0.0684(15) 0.2906(17) 0.1684(11)
C13 C 0.2810(14) 0.4759(16) 0.3997(10)
C14 C 0.3515(14) 0.4594(16) 0.4413(10)
H7 H 0.3967 0.4356 0.4325
C15 C 0.3559(15) 0.4778(18) 0.4961(12)
C16 C 0.4259(15) 0.4577(17) 0.5407(11)
H8 H 0.4718 0.4330 0.5334
C17 C 0.4262(14) 0.4747(16) 0.5955(11)
H9 H 0.4743 0.4661 0.6240
C18 C 0.3572(14) 0.5039(16) 0.6086(10)
C19 C 0.2924(15) 0.5268(16) 0.5652(11)
H10 H 0.2471 0.5520 0.5731
C20 C 0.2897(14) 0.5152(16) 0.5114(10)
C21 C 0.2199(14) 0.5388(16) 0.4670(10)
H11 H 0.1763 0.5680 0.4747
C22 C 0.2168(15) 0.5191(16) 0.4139(11)
H12 H 0.1703 0.5347 0.3856
C23 C 0.2707(13) 0.4434(15) 0.3427(10)
C24 C 0.6397(14) 0.4794(15) 0.3317(10)
C25 C 0.1457(14) 0.2541(16) 0.3976(10)
C26 C 0.2112(14) 0.2715(16) 0.4440(11)
H13 H 0.2606 0.2908 0.4390
C27 C 0.2042(14) 0.2604(16) 0.4982(11)
C28 C 0.2673(14) 0.2809(16) 0.5460(11)
H14 H 0.3153 0.3055 0.5417
C29 C 0.2618(15) 0.2665(16) 0.5980(11)
H15 H 0.3057 0.2790 0.6290
C30 C 0.1866(14) 0.2316(15) 0.6045(10)
C31 C 0.1252(15) 0.2112(17) 0.5576(11)
H16 H 0.0770 0.1866 0.5616
C32 C 0.1319(15) 0.2257(17) 0.5045(11)
C33 C 0.0667(15) 0.2060(18) 0.4562(11)
H17 H 0.0186 0.1821 0.4608
C34 C 0.0714(14) 0.2203(16) 0.4050(10)
H18 H 0.0270 0.2084 0.3743
C35 C 0.1486(14) 0.2749(15) 0.3413(10)
C36 C 0.6825(14) 0.2851(15) 0.1637(10)
C37 C 0.3697(14) 0.2546(16) 0.0970(10)
C38 C 0.4348(13) 0.2180(15) 0.0817(10)
H19 H 0.4818 0.2010 0.1092
C39 C 0.4310(14) 0.2068(17) 0.0283(10)
H20 H 0.4755 0.1833 0.0185
C40 C 0.3607(15) 0.2303(17) -0.0127(12)
C41 C 0.3486(13) 0.2081(16) -0.0707(10)
H21 H 0.3903 0.1797 -0.0814
C42 C 0.2754(13) 0.2283(15) -0.1111(10)
C43 C 0.2115(13) 0.2721(15) -0.0959(10)
H22 H 0.1629 0.2862 -0.1226
C44 C 0.2228(15) 0.2938(18) -0.0397(11)
H23 H 0.1816 0.3247 -0.0298
C45 C 0.2943(14) 0.2707(16) 0.0026(10)
C46 C 0.3020(16) 0.2798(18) 0.0577(12)
H24 H 0.2589 0.3044 0.0687
C47 C 0.3775(13) 0.2565(15) 0.1595(10)
C48 C 0.7642(13) 0.3091(15) 0.3330(9)
C49 C -0.1287(14) 0.5000(16) 0.0966(10)
C50 C -0.0616(15) 0.5353(17) 0.0841(12)
H25 H -0.0145 0.5475 0.1127
C51 C -0.0631(14) 0.5524(18) 0.0315(11)
H26 H -0.0197 0.5828 0.0243
C52 C -0.1294(14) 0.5252(17) -0.0133(11)
C53 C -0.1291(13) 0.5362(15) -0.0697(10)
H27 H -0.0833 0.5601 -0.0776
C54 C -0.1953(13) 0.5120(15) -0.1124(10)
C55 C -0.2650(14) 0.4772(16) -0.1004(11)
H28 H -0.3110 0.4631 -0.1295
C56 C -0.2661(13) 0.4640(16) -0.0467(10)
H29 H -0.3120 0.4393 -0.0393
C57 C -0.1984(13) 0.4876(15) -0.0026(10)
C58 C -0.1949(13) 0.4744(15) 0.0532(10)
H30 H -0.2391 0.4473 0.0616
C59 C -0.1252(14) 0.4894(15) 0.1546(10)
C60 C 0.1924(15) 0.4688(16) 0.1694(11)
C61 C 0.5610(12) 0.4516(14) 0.1617(9)
C62 C 0.5496(14) 0.4831(16) 0.1040(11)
C63 C 0.6108(15) 0.5256(16) 0.0880(11)
H31 H 0.6582 0.5423 0.1151
C64 C 0.6039(15) 0.5435(17) 0.0347(11)
H32 H 0.6470 0.5710 0.0252
C65 C 0.5331(15) 0.5215(18) -0.0070(12)
C66 C 0.4796(17) 0.4615(19) 0.0643(12)
H33 H 0.4378 0.4342 0.0755
C67 C -0.0524(14) 0.5007(15) 0.3357(10)
C68 C -0.0427(14) 0.5042(16) 0.3971(10)
C69 C 0.0208(14) 0.4706(17) 0.4338(11)
H34 H 0.0609 0.4414 0.4218
C70 C 0.0292(15) 0.4784(18) 0.4913(11)
C71 C 0.0972(14) 0.4441(18) 0.5319(11)
H35 H 0.1384 0.4162 0.5205
C72 C -0.1044(13) 0.5500(16) 0.4142(11)
H36 H -0.1489 0.5751 0.3880
C59_2 C 0.8748(14) 0.4894(15) 0.1546(10)
C67_2 C 0.9476(14) 0.5007(15) 0.3357(10)
C12A C 0.5684(15) 0.2094(17) 0.6684(11)
C6A C 0.0583(14) 0.2584(16) 0.1109(11)
C24B C 0.3603(14) 0.5206(15) 0.6683(10)
C18B C 0.6428(14) 0.4961(16) 0.3914(10)
C36A C 0.1825(14) 0.2149(15) 0.6637(10)
C30A C 0.6866(14) 0.2684(15) 0.1045(10)
C48A C 0.2642(13) 0.1909(15) -0.1670(9)
C42A C 0.7754(13) 0.2717(15) 0.3889(10)
C60B C -0.1924(15) 0.5312(16) -0.1694(11)
O17_2 O -0.1903(9) 0.4768(11) 0.1694(7)
C54B C 0.1953(13) 0.4880(15) 0.1124(10)
C65B C 0.4669(15) 0.4785(18) 0.0070(12)
C66B C 0.5204(17) 0.5385(19) -0.0643(12)
O23_2 O -0.1174(8) 0.5190(10) 0.3010(6)
C70B C -0.0292(15) 0.5216(18) 0.5087(11)
C72B C 0.1044(13) 0.4500(16) 0.5858(11)
C71B C -0.0972(14) 0.5559(18) 0.4681(11)
loop_
_geom_bond_atom_site_label_1
_geom_bond_atom_site_label_2
_geom_bond_site_symmetry_1
_geom_bond_site_symmetry_2
Eu1 O1 1_555 1_555
Eu2 O4 1_555 1_555
Eu3 O8 1_555 1_555
Eu4 O2 1_555 1_555
O1 C11 1_555 1_555
O2 C11 1_555 1_555
O3 Eu4 1_555 1_555
O4 C12 1_555 1_555
O5 Eu4 1_555 1_555
O6 Eu2 1_555 1_555
O7 Eu1 1_555 1_555
O8 C24 1_555 1_555
O9 Eu4 1_555 1_555
O10 Eu2 1_555 1_555
O11 Eu3 1_555 1_555
O12 Eu1 1_555 1_555
O13 Eu4 1_555 1_555
O14 Eu1 1_555 1_555
O15 Eu1 1_555 1_555
O16 Eu3 1_555 1_555
O17 Eu3 1_555 1_555
O18 Eu2 1_555 1_555
O19 Eu4 1_555 1_555
O20 Eu2 1_555 1_555
O21 Eu1 1_555 1_555
O22 Eu3 1_555 1_555
O23 Eu3 1_555 1_555
O24 Eu2 1_555 1_555
O25 Eu2 1_555 1_555
O27 Eu1 1_555 1_555
O28 Eu1 1_555 1_555
O29 Eu3 1_555 1_555
O30 Eu4 1_555 1_555
C1 C2 1_555 1_555
C2 H1 1_555 1_555
C3 C2 1_555 1_555
C4 C3 1_555 1_555
H2 C4 1_555 1_555
C5 C4 1_555 1_555
H3 C5 1_555 1_555
C6 C5 1_555 1_555
C7 C6 1_555 1_555
H4 C7 1_555 1_555
C8 C3 1_555 1_555
C9 C8 1_555 1_555
H5 C9 1_555 1_555
C10 C1 1_555 1_555
H6 C10 1_555 1_555
C11 C1 1_555 1_555
C12 O3 1_555 1_555
C13 C14 1_555 1_555
C14 H7 1_555 1_555
C15 C14 1_555 1_555
C16 C15 1_555 1_555
H8 C16 1_555 1_555
C17 C16 1_555 1_555
H9 C17 1_555 1_555
C18 C17 1_555 1_555
C19 C18 1_555 1_555
H10 C19 1_555 1_555
C20 C15 1_555 1_555
C21 C20 1_555 1_555
H11 C21 1_555 1_555
C22 C13 1_555 1_555
H12 C22 1_555 1_555
C23 O5 1_555 1_555
C24 O7 1_555 1_555
C25 C26 1_555 1_555
C26 H13 1_555 1_555
C27 C26 1_555 1_555
C28 C27 1_555 1_555
H14 C28 1_555 1_555
C29 C28 1_555 1_555
H15 C29 1_555 1_555
C30 C29 1_555 1_555
C31 C30 1_555 1_555
H16 C31 1_555 1_555
C32 C27 1_555 1_555
C33 C32 1_555 1_555
H17 C33 1_555 1_555
C34 C25 1_555 1_555
H18 C34 1_555 1_555
C35 O9 1_555 1_555
C36 O11 1_555 1_555
C37 C38 1_555 1_555
C38 H19 1_555 1_555
C39 C38 1_555 1_555
H20 C39 1_555 1_555
C40 C39 1_555 1_555
C41 C40 1_555 1_555
H21 C41 1_555 1_555
C42 C41 1_555 1_555
C43 C42 1_555 1_555
H22 C43 1_555 1_555
C44 C43 1_555 1_555
H23 C44 1_555 1_555
C45 C40 1_555 1_555
C46 C37 1_555 1_555
H24 C46 1_555 1_555
C47 O13 1_555 1_555
C48 O15 1_555 1_555
C49 C50 1_555 1_555
C50 H25 1_555 1_555
C51 C50 1_555 1_555
H26 C51 1_555 1_555
C52 C51 1_555 1_555
C53 C52 1_555 1_555
H27 C53 1_555 1_555
C54 C53 1_555 1_555
C55 C54 1_555 1_555
H28 C55 1_555 1_555
C56 C55 1_555 1_555
H29 C56 1_555 1_555
C57 C52 1_555 1_555
C58 C49 1_555 1_555
H30 C58 1_555 1_555
C59 O18 1_555 1_555
C60 O19 1_555 1_555
C61 O21 1_555 1_555
C62 C61 1_555 1_555
C63 C62 1_555 1_555
H31 C63 1_555 1_555
C64 C63 1_555 1_555
H32 C64 1_555 1_555
C65 C64 1_555 1_555
C66 C62 1_555 1_555
H33 C66 1_555 1_555
C67 O24 1_555 1_555
C68 C67 1_555 1_555
C69 C68 1_555 1_555
H34 C69 1_555 1_555
C70 C69 1_555 1_555
C71 C70 1_555 1_555
H35 C71 1_555 1_555
C72 C68 1_555 1_555
H36 C72 1_555 1_555
C59_2 O17 1_555 1_555
C67_2 O23 1_555 1_555
C12A C6 1_555 1_555
C6A C12 1_555 1_555
C24B C18 1_555 1_555
C18B C24 1_555 1_555
C36A C30 1_555 1_555
C30A C36 1_555 1_555
C48A C42 1_555 1_555
C42A C48 1_555 1_555
C60B C54 1_555 1_555
O17_2 C59 1_555 1_555
C54B C60 1_555 1_555
C65B C65 1_555 1_555
C66B C65 1_555 1_555
O23_2 C67 1_555 1_555
C70B C70 1_555 1_555
C72B C71 1_555 1_555
C71B C72 1_555 1_555
O6 C23 1_555 1_555
O10 C35 1_555 1_555
O12 C36 1_555 1_555
O14 C47 1_555 1_555
O16 C48 1_555 1_555
O20 C60 1_555 1_555
O22 C61 1_555 1_555
C7 C8 1_555 1_555
C9 C10 1_555 1_555
C13 C23 1_555 1_555
C19 C20 1_555 1_555
C21 C22 1_555 1_555
C25 C35 1_555 1_555
C31 C32 1_555 1_555
C33 C34 1_555 1_555
C37 C47 1_555 1_555
C44 C45 1_555 1_555
C45 C46 1_555 1_555
C49 C59 1_555 1_555
C56 C57 1_555 1_555
C57 C58 1_555 1_555
C66 C65B 1_555 1_555
C70B C71B 1_555 1_555

#END
