
#######################################################################
#
#                 Cambridge Crystallographic Data Centre
#                                CCDC 
#
#######################################################################
#
# If this CIF has been generated from an entry in the Cambridge 
# Structural Database, then it will include bibliographic, chemical, 
# crystal, experimental, refinement or atomic coordinate data resulting 
# from the CCDC's data processing and validation procedures.
#
#######################################################################

data_LACYOE
_symmetry_cell_setting           orthorhombic
_symmetry_space_group_name_H-M   'F d d 2'
_symmetry_Int_Tables_number      43
_space_group_name_Hall           'F 2 -2d'
loop_
_symmetry_equiv_pos_site_id
_symmetry_equiv_pos_as_xyz
1 x,y,z
2 -x,-y,z
3 1/4+x,1/4-y,1/4+z
4 1/4-x,1/4+y,1/4+z
5 x,1/2+y,1/2+z
6 -x,1/2-y,1/2+z
7 1/4+x,3/4-y,3/4+z
8 1/4-x,3/4+y,3/4+z
9 1/2+x,y,1/2+z
10 1/2-x,-y,1/2+z
11 3/4+x,1/4-y,3/4+z
12 3/4-x,1/4+y,3/4+z
13 1/2+x,1/2+y,z
14 1/2-x,1/2-y,z
15 3/4+x,3/4-y,1/4+z
16 3/4-x,3/4+y,1/4+z
_cell_length_a                   20.0896(11)
_cell_length_b                   48.224(3)
_cell_length_c                   7.8432(4)
_cell_angle_alpha                90
_cell_angle_beta                 90
_cell_angle_gamma                90
_cell_volume                     7598.5
loop_
_atom_site_label
_atom_site_type_symbol
_atom_site_fract_x
_atom_site_fract_y
_atom_site_fract_z
Cl1 Cl 0.13537(4) 0.171617(18) 0.52443(12)
O1 O 0.16254(19) 0.18852(6) 0.6573(4)
O2 O 0.13653(14) 0.14290(6) 0.5793(4)
O3 O 0.17641(15) 0.17401(6) 0.3784(4)
O4 O 0.06974(13) 0.18014(7) 0.4833(8)
C15 C -0.0031(15) 0.0029(7) 0.4499(11)
O5 O -0.0273(3) 0.00841(10) 0.2982(7)
H20 H -0.0061 0.0216 0.2536
C15A C 0.0031(15) -0.0029(7) 0.4499(11)
O5A O 0.0273(3) -0.00841(10) 0.2982(7)
H20A H 0.0061 -0.0216 0.2536
Ag1 Ag 0.306929(11) 0.072588(5) 0.20674(4)
C1 C 0.36850(14) 0.12822(6) 0.3783(4)
C2 C 0.41450(14) 0.14984(6) 0.4054(4)
C3 C 0.49208(14) 0.12658(6) 0.2430(4)
H1 H 0.5357 0.1250 0.1973
C4 C 0.44567(13) 0.10625(6) 0.2083(5)
H2 H 0.4571 0.0915 0.1334
C5 C 0.30210(13) 0.12717(6) 0.4640(5)
H3 H 0.2872 0.1079 0.4718
H4 H 0.3058 0.1350 0.5788
H5 H 0.2698 0.1379 0.3976
C6 C 0.39861(14) 0.17459(6) 0.5089(4)
C7 C 0.33387(15) 0.18973(6) 0.4851(5)
H6 H 0.3418 0.2098 0.4892
H7 H 0.3146 0.1848 0.3743
H8 H 0.3029 0.1845 0.5761
C8 C 0.40746(16) 0.17733(7) 0.9468(6)
H9 H 0.4388 0.1637 0.9006
H10 H 0.4159 0.1798 1.0690
H11 H 0.3618 0.1707 0.9300
C9 C 0.41645(14) 0.20440(6) 0.8569(4)
C10 C 0.40175(12) 0.23051(5) 0.9530(5)
C11 C 0.34121(16) 0.24910(7) 1.1718(4)
H12 H 0.3112 0.2471 1.2646
C12 C 0.36337(15) 0.27522(6) 1.1289(4)
H13 H 0.3477 0.2908 1.1913
C13 C 0.42720(14) 0.25687(6) 0.9115(4)
C14 C 0.47739(17) 0.26219(7) 0.7752(5)
H14 H 0.5014 0.2794 0.8004
H15 H 0.5090 0.2467 0.7705
H16 H 0.4548 0.2639 0.6650
N1 N 0.38486(12) 0.10683(5) 0.2778(3)
N2 N 0.47646(11) 0.14860(5) 0.3404(3)
N3 N 0.44417(12) 0.18264(5) 0.6112(3)
N4 N 0.43185(11) 0.20709(5) 0.7005(4)
N5 N 0.36070(13) 0.22664(5) 1.0867(4)
N6 N 0.40645(12) 0.27908(5) 1.0010(3)
C1J C 0.11850(14) 0.12178(6) 0.1283(4)
C2J C 0.16450(14) 0.10016(6) 0.1554(4)
C3J C 0.24208(14) 0.12342(6) -0.0070(4)
H1J H 0.2857 0.1250 -0.0527
C4J C 0.19567(13) 0.14375(6) -0.0417(5)
H2J H 0.2071 0.1585 -0.1166
C5J C 0.05210(13) 0.12283(6) 0.2140(5)
H3J H 0.0372 0.1421 0.2218
H4J H 0.0558 0.1150 0.3288
H5J H 0.0198 0.1121 0.1476
C6J C 0.14861(14) 0.07541(6) 0.2589(4)
C7J C 0.08387(15) 0.06027(6) 0.2351(5)
H6J H 0.0918 0.0402 0.2392
H7J H 0.0646 0.0652 0.1243
H8J H 0.0529 0.0655 0.3261
C8J C 0.15746(16) 0.07267(7) 0.6968(6)
H9J H 0.1888 0.0863 0.6506
H10J H 0.1659 0.0702 0.8190
H11J H 0.1118 0.0793 0.6800
C9J C 0.16645(14) 0.04560(6) 0.6069(4)
C10J C 0.15175(12) 0.01949(5) 0.7030(5)
C11J C 0.09121(16) 0.00090(7) 0.9218(4)
H12J H 0.0612 0.0029 1.0146
C12J C 0.11337(15) -0.02522(6) 0.8789(4)
H13J H 0.0977 -0.0408 0.9413
C13J C 0.17720(14) -0.00687(6) 0.6615(4)
C14J C 0.22739(17) -0.01219(7) 0.5252(5)
H14J H 0.2514 -0.0294 0.5504
H15J H 0.2590 0.0033 0.5205
H16J H 0.2048 -0.0139 0.4150
N1J N 0.13486(12) 0.14317(5) 0.0278(3)
N2J N 0.22646(11) 0.10140(5) 0.0904(3)
N3J N 0.19417(12) 0.06736(5) 0.3612(3)
N4J N 0.18185(11) 0.04291(5) 0.4505(4)
N5J N 0.11070(13) 0.02336(5) 0.8367(4)
N6J N 0.15645(12) -0.02908(5) 0.7510(3)
Ag1J Ag 0.056929(11) 0.177412(5) -0.04326(4)
N6O N 0.34355(12) 0.02908(5) 0.2510(3)
Ag1B Ag 0.556929(11) 0.177412(5) 0.45674(4)
Ag1K Ag 0.443071(11) 0.322588(5) 0.95674(4)
Ag1I Ag 0.193071(11) -0.072588(5) 0.70674(4)
N2H N -0.02354(11) 0.14860(5) -0.1596(3)
N3H N -0.05583(12) 0.18264(5) 0.1112(3)
N6M N 0.09355(12) 0.22092(5) 0.0010(3)
H17? H 0.0437 0.0085 0.4533
H18? H -0.0065 -0.0170 0.4733
H19? H -0.0282 0.0132 0.5362
loop_
_geom_bond_atom_site_label_1
_geom_bond_atom_site_label_2
_geom_bond_site_symmetry_1
_geom_bond_site_symmetry_2
Ag1 N1 1_555 1_555
C1 C2 1_555 1_555
C2 C6 1_555 1_555
C3 H1 1_555 1_555
C4 C3 1_555 1_555
H2 C4 1_555 1_555
C5 C1 1_555 1_555
H3 C5 1_555 1_555
H4 C5 1_555 1_555
H5 C5 1_555 1_555
C6 C7 1_555 1_555
C7 H6 1_555 1_555
H7 C7 1_555 1_555
H8 C7 1_555 1_555
C8 H9 1_555 1_555
H10 C8 1_555 1_555
H11 C8 1_555 1_555
C9 C8 1_555 1_555
C10 C9 1_555 1_555
C11 H12 1_555 1_555
C12 C11 1_555 1_555
H13 C12 1_555 1_555
C13 C10 1_555 1_555
C14 C13 1_555 1_555
H14 C14 1_555 1_555
H15 C14 1_555 1_555
H16 C14 1_555 1_555
N1 C1 1_555 1_555
N2 C2 1_555 1_555
N3 C6 1_555 1_555
N4 C9 1_555 1_555
N5 C10 1_555 1_555
N6 C12 1_555 1_555
Cl1 O1 1_555 1_555
O2 Cl1 1_555 1_555
O3 Cl1 1_555 1_555
O4 Cl1 1_555 1_555
C15 O5 1_555 1_555
O5 H20 1_555 1_555
C15A O5 1_555 1_555
O5A C15 1_555 1_555
H20A O5A 1_555 1_555
C1J C2J 1_555 1_555
C2J C6J 1_555 1_555
C3J H1J 1_555 1_555
C4J C3J 1_555 1_555
H2J C4J 1_555 1_555
C5J C1J 1_555 1_555
H3J C5J 1_555 1_555
H4J C5J 1_555 1_555
H5J C5J 1_555 1_555
C6J C7J 1_555 1_555
C7J H6J 1_555 1_555
H7J C7J 1_555 1_555
H8J C7J 1_555 1_555
C8J H9J 1_555 1_555
H10J C8J 1_555 1_555
H11J C8J 1_555 1_555
C9J C8J 1_555 1_555
C10J C9J 1_555 1_555
C11J H12J 1_555 1_555
C12J C11J 1_555 1_555
H13J C12J 1_555 1_555
C13J C10J 1_555 1_555
C14J C13J 1_555 1_555
H14J C14J 1_555 1_555
H15J C14J 1_555 1_555
H16J C14J 1_555 1_555
N1J C1J 1_555 1_555
N2J Ag1 1_555 1_555
N3J Ag1 1_555 1_555
N4J C9J 1_555 1_555
N5J C10J 1_555 1_555
N6J C12J 1_555 1_555
Ag1J N1J 1_555 1_555
N6O Ag1 1_555 1_555
Ag1B N2 1_555 1_555
Ag1K N6 1_555 1_555
Ag1I N6J 1_555 1_555
N2H Ag1J 1_555 1_555
N3H Ag1J 1_555 1_555
N6M Ag1J 1_555 1_555
C3 N2 1_555 1_555
C4 N1 1_555 1_555
C11 N5 1_555 1_555
C13 N6 1_555 1_555
N3 N4 1_555 1_555
N3 Ag1B 1_555 1_555
O5 O5A 1_555 1_555
C15A O5A 1_555 1_555
C2J N2J 1_555 1_555
C3J N2J 1_555 1_555
C4J N1J 1_555 1_555
C6J N3J 1_555 1_555
C11J N5J 1_555 1_555
C13J N6J 1_555 1_555
N3J N4J 1_555 1_555

#END
