
#######################################################################
#
#                 Cambridge Crystallographic Data Centre
#                                CCDC 
#
#######################################################################
#
# If this CIF has been generated from an entry in the Cambridge 
# Structural Database, then it will include bibliographic, chemical, 
# crystal, experimental, refinement or atomic coordinate data resulting 
# from the CCDC's data processing and validation procedures.
#
#######################################################################

data_LACZIZ
_symmetry_cell_setting           tetragonal
_symmetry_space_group_name_H-M   'P -4 c 2'
_symmetry_Int_Tables_number      116
_space_group_name_Hall           'P -4 -2c'
loop_
_symmetry_equiv_pos_site_id
_symmetry_equiv_pos_as_xyz
1 x,y,z
2 -x,-y,z
3 y,-x,-z
4 -y,x,-z
5 x,-y,1/2+z
6 -x,y,1/2+z
7 y,x,1/2-z
8 -y,-x,1/2-z
_cell_length_a                   16.1067(3)
_cell_length_b                   16.1067(3)
_cell_length_c                   14.4935(5)
_cell_angle_alpha                90
_cell_angle_beta                 90
_cell_angle_gamma                90
_cell_volume                     3759.99
loop_
_atom_site_label
_atom_site_type_symbol
_atom_site_fract_x
_atom_site_fract_y
_atom_site_fract_z
P1 P 0.5000 0.5000 0.2500
F1 F 0.5000 0.5000 0.3607(7)
F2 F 0.4300(4) 0.5700(4) 0.2500
F3 F 0.5689(4) 0.5689(4) 0.2500
F1F F 0.5000 0.5000 0.1393(7)
F2A F 0.5700(4) 0.4300(4) 0.2500
F3A F 0.4311(4) 0.4311(4) 0.2500
P2 P 0.23223(15) 0.76777(15) 0.7500
F4 F 0.2916(4) 0.8281(5) 0.6931(5)
F5 F 0.1624(3) 0.8376(3) 0.7500
F6 F 0.1947(5) 0.7306(5) 0.6563(5)
F7 F 0.3013(4) 0.6987(4) 0.7500
F4G F 0.1719(5) 0.7084(4) 0.8069(5)
F6G F 0.2694(5) 0.8053(5) 0.8437(5)
C13 C 1.0267(13) 0.9733(13) 0.7500
H13 H 1.0669 0.9331 0.7500
Cl2 Cl 1.0545(12) 1.0152(11) 0.8494(11)
C13A C 0.9733(13) 1.0267(13) 0.7500
H13A H 0.9331 1.0669 0.7500
Cl2A Cl 0.9455(12) 0.9848(11) 0.8494(11)
Cl2G Cl 0.9848(11) 0.9455(12) 0.6506(11)
Cl2F Cl 1.0152(11) 1.0545(12) 0.6506(11)
Ag1 Ag 0.28422(5) 0.72695(5) 0.40884(5)
C1 C 0.3111(8) 0.5643(8) 0.5398(8)
H1 H 0.3350 0.6046 0.5796
C2 C 0.3106(7) 0.4835(8) 0.5679(8)
H2 H 0.3353 0.4686 0.6251
C3 C 0.2437(8) 0.4482(7) 0.4367(8)
H3 H 0.2171 0.4082 0.3987
C4 C 0.2478(6) 0.5307(6) 0.4066(8)
C5 C 0.2102(6) 0.5565(6) 0.3154(7)
C6 C 0.1748(9) 0.4918(7) 0.2518(11)
H4 H 0.1622 0.5170 0.1919
H5 H 0.1237 0.4691 0.2786
H6 H 0.2153 0.4470 0.2434
C7 C 0.0493(9) 0.6883(15) 0.2907(10)
H7 H 0.0139 0.6392 0.2835
H8 H 0.0146 0.7383 0.2907
H9 H 0.0796 0.6846 0.3492
C8 C 0.1090(6) 0.6924(8) 0.2135(8)
C9 C 0.0808(6) 0.7333(8) 0.1301(9)
C10 C 0.0016(10) 0.7489(14) 0.1074(13)
H10 H -0.0404 0.7326 0.1497
C11 C 0.0370(11) 0.8131(10) -0.0247(10)
H11 H 0.0229 0.8427 -0.0792
C12 C 0.1162(7) 0.8009(7) -0.0061(8)
H12 H 0.1571 0.8219 -0.0472
N1 N 0.2800(5) 0.5895(6) 0.4596(6)
N2 N 0.2751(5) 0.4247(6) 0.5149(7)
N3 N 0.2106(5) 0.6354(5) 0.3022(6)
N4 N 0.1806(4) 0.6650(5) 0.2170(5)
N5 N 0.1404(5) 0.7595(5) 0.0696(5)
N6 N -0.0227(8) 0.7866(11) 0.0280(12)
C1B C 0.5643(8) 0.6889(8) 0.4602(8)
H1B H 0.6046 0.6650 0.4204
C2B C 0.4835(8) 0.6894(7) 0.4321(8)
H2B H 0.4686 0.6647 0.3749
C3B C 0.4482(7) 0.7563(8) 0.5633(8)
H3B H 0.4082 0.7829 0.6013
C4B C 0.5307(6) 0.7522(6) 0.5934(8)
C5B C 0.5565(6) 0.7898(6) 0.6846(7)
C6B C 0.4918(7) 0.8252(9) 0.7482(11)
H4B H 0.5170 0.8378 0.8081
H5B H 0.4691 0.8763 0.7214
H6B H 0.4470 0.7847 0.7566
C7B C 0.6883(15) 0.9507(9) 0.7093(10)
H7B H 0.6392 0.9861 0.7165
H8B H 0.7383 0.9854 0.7093
H9B H 0.6846 0.9204 0.6508
C8B C 0.6924(8) 0.8910(6) 0.7865(8)
C9B C 0.7333(8) 0.9192(6) 0.8699(9)
C10B C 0.7489(14) 0.9984(10) 0.8926(13)
H10B H 0.7326 1.0404 0.8503
C11B C 0.8131(10) 0.9630(11) 1.0247(10)
H11B H 0.8427 0.9771 1.0792
C12B C 0.8009(7) 0.8838(7) 1.0061(8)
H12B H 0.8219 0.8429 1.0472
N1B N 0.5895(6) 0.7200(5) 0.5404(6)
N2B N 0.4247(6) 0.7249(5) 0.4851(7)
N3B N 0.6354(5) 0.7894(5) 0.6978(6)
N4B N 0.6650(5) 0.8194(4) 0.7830(5)
N5B N 0.7595(5) 0.8596(5) 0.9304(5)
N6B N 0.7866(11) 1.0227(8) 0.9720(12)
C1G C 0.4357(8) 0.6889(8) -0.0398(8)
H1G H 0.3954 0.6650 -0.0796
C2G C 0.5165(8) 0.6894(7) -0.0679(8)
H2G H 0.5314 0.6647 -0.1251
C3G C 0.5518(7) 0.7563(8) 0.0633(8)
H3G H 0.5918 0.7829 0.1013
C4G C 0.4693(6) 0.7522(6) 0.0934(8)
C5G C 0.4435(6) 0.7898(6) 0.1846(7)
C6G C 0.5082(7) 0.8252(9) 0.2482(11)
H4G H 0.4830 0.8378 0.3081
H5G H 0.5309 0.8763 0.2214
H6G H 0.5530 0.7847 0.2566
C7G C 0.3117(15) 0.9507(9) 0.2093(10)
H7G H 0.3608 0.9861 0.2165
H8G H 0.2617 0.9854 0.2093
H9G H 0.3154 0.9204 0.1508
C8G C 0.3076(8) 0.8910(6) 0.2865(8)
C9G C 0.2667(8) 0.9192(6) 0.3699(9)
C10G C 0.2511(14) 0.9984(10) 0.3926(13)
H10G H 0.2674 1.0404 0.3503
C11G C 0.1869(10) 0.9630(11) 0.5247(10)
H11G H 0.1573 0.9771 0.5792
C12G C 0.1991(7) 0.8838(7) 0.5061(8)
H12G H 0.1781 0.8429 0.5472
N1G N 0.4105(6) 0.7200(5) 0.0404(6)
N2G N 0.5753(6) 0.7249(5) -0.0149(7)
N3G N 0.3646(5) 0.7894(5) 0.1978(6)
N4G N 0.3350(5) 0.8194(4) 0.2830(5)
N5G N 0.2405(5) 0.8596(5) 0.4304(5)
N6G N 0.2134(11) 1.0227(8) 0.4720(12)
Ag1B Ag 0.72695(5) 0.71578(5) 0.59116(5)
Ag1G Ag 0.27305(5) 0.71578(5) 0.09116(5)
Ag1C Ag 0.27305(5) 0.28422(5) 0.59116(5)
C1A C 0.6889(8) 0.4357(8) 0.5398(8)
H1A H 0.6650 0.3954 0.5796
C2A C 0.6894(7) 0.5165(8) 0.5679(8)
H2A H 0.6647 0.5314 0.6251
C3A C 0.7563(8) 0.5518(7) 0.4367(8)
H3A H 0.7829 0.5918 0.3987
C4A C 0.7522(6) 0.4693(6) 0.4066(8)
C5A C 0.7898(6) 0.4435(6) 0.3154(7)
C6A C 0.8252(9) 0.5082(7) 0.2518(11)
H4A H 0.8378 0.4830 0.1919
H5A H 0.8763 0.5309 0.2786
H6A H 0.7847 0.5530 0.2434
C7A C 0.9507(9) 0.3117(15) 0.2907(10)
H7A H 0.9861 0.3608 0.2835
H8A H 0.9854 0.2617 0.2907
H9A H 0.9204 0.3154 0.3492
C8A C 0.8910(6) 0.3076(8) 0.2135(8)
C9A C 0.9192(6) 0.2667(8) 0.1301(9)
C10A C 0.9984(10) 0.2511(14) 0.1074(13)
H10A H 1.0404 0.2674 0.1497
C11A C 0.9630(11) 0.1869(10) -0.0247(10)
H11A H 0.9771 0.1573 -0.0792
C12A C 0.8838(7) 0.1991(7) -0.0061(8)
H12A H 0.8429 0.1781 -0.0472
N1A N 0.7200(5) 0.4105(6) 0.4596(6)
N2A N 0.7249(5) 0.5753(6) 0.5149(7)
N3A N 0.7894(5) 0.3646(5) 0.3022(6)
N4A N 0.8194(4) 0.3350(5) 0.2170(5)
N5A N 0.8596(5) 0.2405(5) 0.0696(5)
N6A N 1.0227(8) 0.2134(11) 0.0280(12)
Ag1E Ag 0.71578(5) 0.72695(5) 0.90884(5)
Ag1E_2 Ag 0.71578(5) 0.72695(5) -0.09116(5)
N4E N 0.8194(4) 0.6650(5) 0.7170(5)
N5E N 0.8596(5) 0.7595(5) 0.5696(5)
N2D N 0.2751(5) 0.5753(6) 0.0149(7)
N1C N 0.4105(6) 0.2800(5) 0.5404(6)
N3C N 0.3646(5) 0.2106(5) 0.6978(6)
N4D N 0.1806(4) 0.3350(5) 0.7170(5)
N5D N 0.1404(5) 0.2405(5) 0.5696(5)
Ag1A Ag 0.71578(5) 0.27305(5) 0.40884(5)
Ag1F Ag 0.72695(5) 0.28422(5) 0.09116(5)
P3? P 0.0026(10) 0.5176(6) 0.5135(6)
F8? F 0.0788(14) 0.5820(13) 0.5202(19)
F9? F 0.0666(13) 0.4434(13) 0.5268(12)
F10? F 0.0000 0.5000 0.4046(11)
F11? F -0.0628(12) 0.5900(11) 0.4947(11)
F12? F -0.0017(17) 0.5326(14) 0.6216(10)
F13? F 0.0695(15) 0.5489(12) 0.5358(19)
Cl1? Cl 0.9290(7) 0.9290(7) 0.7500
loop_
_geom_bond_atom_site_label_1
_geom_bond_atom_site_label_2
_geom_bond_site_symmetry_1
_geom_bond_site_symmetry_2
Ag1 N1 1_555 1_555
C1 H1 1_555 1_555
C2 C1 1_555 1_555
H2 C2 1_555 1_555
C3 H3 1_555 1_555
C4 C3 1_555 1_555
C5 C4 1_555 1_555
C6 C5 1_555 1_555
H4 C6 1_555 1_555
H5 C6 1_555 1_555
H6 C6 1_555 1_555
C7 H7 1_555 1_555
H8 C7 1_555 1_555
H9 C7 1_555 1_555
C8 C7 1_555 1_555
C9 C8 1_555 1_555
C10 C9 1_555 1_555
H10 C10 1_555 1_555
C11 H11 1_555 1_555
C12 C11 1_555 1_555
H12 C12 1_555 1_555
N1 C1 1_555 1_555
N2 C2 1_555 1_555
N3 Ag1 1_555 1_555
N4 C8 1_555 1_555
N5 C9 1_555 1_555
N6 C10 1_555 1_555
P1 F1 1_555 1_555
F2 P1 1_555 1_555
F3 P1 1_555 1_555
P2 F4 1_555 1_555
F5 P2 1_555 1_555
F6 P2 1_555 1_555
F7 P2 1_555 1_555
C13 H13 1_555 1_555
Cl2 C13 1_555 1_555
F1F P1 1_555 1_555
F2A P1 1_555 1_555
F3A P1 1_555 1_555
F4G P2 1_555 1_555
F6G P2 1_555 1_555
C13A C13 1_555 1_555
H13A C13A 1_555 1_555
Cl2A C13 1_555 1_555
Cl2G C13 1_555 1_555
Cl2F C13 1_555 1_555
C1B H1B 1_555 1_555
C2B C1B 1_555 1_555
H2B C2B 1_555 1_555
C3B H3B 1_555 1_555
C4B C3B 1_555 1_555
C5B C4B 1_555 1_555
C6B C5B 1_555 1_555
H4B C6B 1_555 1_555
H5B C6B 1_555 1_555
H6B C6B 1_555 1_555
C7B H7B 1_555 1_555
H8B C7B 1_555 1_555
H9B C7B 1_555 1_555
C8B C7B 1_555 1_555
C9B C8B 1_555 1_555
C10B C9B 1_555 1_555
H10B C10B 1_555 1_555
C11B H11B 1_555 1_555
C12B C11B 1_555 1_555
H12B C12B 1_555 1_555
N1B C1B 1_555 1_555
N2B Ag1 1_555 1_555
N3B C5B 1_555 1_555
N4B C8B 1_555 1_555
N5B C9B 1_555 1_555
N6B C10B 1_555 1_555
C1G H1G 1_555 1_555
C2G C1G 1_555 1_555
H2G C2G 1_555 1_555
C3G H3G 1_555 1_555
C4G C3G 1_555 1_555
C5G C4G 1_555 1_555
C6G C5G 1_555 1_555
H4G C6G 1_555 1_555
H5G C6G 1_555 1_555
H6G C6G 1_555 1_555
C7G H7G 1_555 1_555
H8G C7G 1_555 1_555
H9G C7G 1_555 1_555
C8G C7G 1_555 1_555
C9G C8G 1_555 1_555
C10G C9G 1_555 1_555
H10G C10G 1_555 1_555
C11G H11G 1_555 1_555
C12G C11G 1_555 1_555
H12G C12G 1_555 1_555
N1G C1G 1_555 1_555
N2G C2G 1_555 1_555
N3G C5G 1_555 1_555
N4G Ag1 1_555 1_555
N5G Ag1 1_555 1_555
N6G C10G 1_555 1_555
Ag1B N1B 1_555 1_555
Ag1G N4 1_555 1_555
Ag1C N2 1_555 1_555
C1A H1A 1_555 1_555
C2A C1A 1_555 1_555
H2A C2A 1_555 1_555
C3A H3A 1_555 1_555
C4A C3A 1_555 1_555
C5A C4A 1_555 1_555
C6A C5A 1_555 1_555
H4A C6A 1_555 1_555
H5A C6A 1_555 1_555
H6A C6A 1_555 1_555
C7A H7A 1_555 1_555
H8A C7A 1_555 1_555
H9A C7A 1_555 1_555
C8A C7A 1_555 1_555
C9A C8A 1_555 1_555
C10A C9A 1_555 1_555
H10A C10A 1_555 1_555
C11A H11A 1_555 1_555
C12A C11A 1_555 1_555
H12A C12A 1_555 1_555
N1A C1A 1_555 1_555
N2A Ag1B 1_555 1_555
N3A C5A 1_555 1_555
N4A C8A 1_555 1_555
N5A C9A 1_555 1_555
N6A C10A 1_555 1_555
Ag1E N4B 1_555 1_555
Ag1E_2 N2G 1_555 1_555
N4E Ag1B 1_555 1_555
N5E Ag1B 1_555 1_555
N2D Ag1G 1_555 1_555
N1C Ag1C 1_555 1_555
N3C Ag1C 1_555 1_555
N4D Ag1C 1_555 1_555
N5D Ag1C 1_555 1_555
Ag1A N1A 1_555 1_555
Ag1F N4A 1_555 1_555
C3 N2 1_555 1_555
C4 N1 1_555 1_555
C5 N3 1_555 1_555
C11 N6 1_555 1_555
C12 N5 1_555 1_555
N3 N4 1_555 1_555
N5 Ag1G 1_555 1_555
Cl2 C13A 1_555 1_555
Cl2 Cl2A 1_555 1_555
C13A Cl2A 1_555 1_555
C13A Cl2G 1_555 1_555
C13A Cl2F 1_555 1_555
Cl2G Cl2F 1_555 1_555
C2B N2B 1_555 1_555
C3B N2B 1_555 1_555
C4B N1B 1_555 1_555
C11B N6B 1_555 1_555
C12B N5B 1_555 1_555
N3B Ag1B 1_555 1_555
N3B N4B 1_555 1_555
N5B Ag1E 1_555 1_555
C3G N2G 1_555 1_555
C4G N1G 1_555 1_555
C8G N4G 1_555 1_555
C9G N5G 1_555 1_555
C11G N6G 1_555 1_555
C12G N5G 1_555 1_555
N1G Ag1G 1_555 1_555
N3G Ag1G 1_555 1_555
N3G N4G 1_555 1_555
C2A N2A 1_555 1_555
C3A N2A 1_555 1_555
C4A N1A 1_555 1_555
C11A N6A 1_555 1_555
C12A N5A 1_555 1_555
N3A N4A 1_555 1_555
N3A Ag1A 1_555 1_555
N5A Ag1F 1_555 1_555

#END
