
#######################################################################
#
#                 Cambridge Crystallographic Data Centre
#                                CCDC 
#
#######################################################################
#
# If this CIF has been generated from an entry in the Cambridge 
# Structural Database, then it will include bibliographic, chemical, 
# crystal, experimental, refinement or atomic coordinate data resulting 
# from the CCDC's data processing and validation procedures.
#
#######################################################################

data_LACZAR
_symmetry_cell_setting           orthorhombic
_symmetry_space_group_name_H-M   'F d d 2'
_symmetry_Int_Tables_number      43
_space_group_name_Hall           'F 2 -2d'
loop_
_symmetry_equiv_pos_site_id
_symmetry_equiv_pos_as_xyz
1 x,y,z
2 -x,-y,z
3 1/4+x,1/4-y,1/4+z
4 1/4-x,1/4+y,1/4+z
5 x,1/2+y,1/2+z
6 -x,1/2-y,1/2+z
7 1/4+x,3/4-y,3/4+z
8 1/4-x,3/4+y,3/4+z
9 1/2+x,y,1/2+z
10 1/2-x,-y,1/2+z
11 3/4+x,1/4-y,3/4+z
12 3/4-x,1/4+y,3/4+z
13 1/2+x,1/2+y,z
14 1/2-x,1/2-y,z
15 3/4+x,3/4-y,1/4+z
16 3/4-x,3/4+y,1/4+z
_cell_length_a                   21.5481(11)
_cell_length_b                   45.196(2)
_cell_length_c                   8.7331(4)
_cell_angle_alpha                90
_cell_angle_beta                 90
_cell_angle_gamma                90
_cell_volume                     8505.06
loop_
_atom_site_label
_atom_site_type_symbol
_atom_site_fract_x
_atom_site_fract_y
_atom_site_fract_z
Sb1 Sb 0.37463(2) 0.069620(12) 0.74514(6)
F1 F 0.4280(4) 0.0722(3) 0.5832(9)
F2 F 0.3636(5) 0.10946(15) 0.7365(12)
F3 F 0.3184(3) 0.06990(17) 0.9004(9)
F4 F 0.3843(4) 0.03028(16) 0.7428(14)
F5 F 0.4408(3) 0.07626(17) 0.8795(7)
F6 F 0.3105(2) 0.06440(12) 0.6038(8)
O1 O 0.4979(7) 0.0376(3) 0.1030(18)
H17 H 0.4660 0.0429 0.1511
C15 C 0.4850(12) 0.0123(4) 0.023(2)
H19 H 0.4822 0.0166 -0.0873
H20 H 0.4456 0.0040 0.0582
C15A C 0.5150(12) -0.0123(4) 0.023(2)
O1A O 0.5021(7) -0.0376(3) 0.1030(18)
H17A H 0.5340 -0.0429 0.1511
H19A H 0.5178 -0.0166 -0.0873
H20A H 0.5544 -0.0040 0.0582
Ag1 Ag 0.285181(19) 0.074781(9) 0.20883(6)
C1 C 0.3524(3) 0.13172(12) 0.3628(7)
C2 C 0.3999(3) 0.15173(12) 0.3983(7)
C3 C 0.4672(3) 0.12666(13) 0.2438(7)
H1 H 0.5073 0.1242 0.2000
C4 C 0.4201(3) 0.10689(12) 0.2056(8)
H2 H 0.4286 0.0914 0.1349
C5 C 0.2896(3) 0.13289(15) 0.4329(10)
H3 H 0.2733 0.1128 0.4438
H4 H 0.2923 0.1422 0.5340
H5 H 0.2619 0.1445 0.3673
C6 C 0.3899(3) 0.17734(12) 0.5047(7)
C7 C 0.3332(3) 0.19736(14) 0.4890(10)
H6 H 0.3466 0.2181 0.4857
H7 H 0.3110 0.1925 0.3944
H8 H 0.3056 0.1944 0.5769
C8 C 0.4102(4) 0.17133(14) 0.9074(9)
H9 H 0.4341 0.1568 0.8486
H10 H 0.4255 0.1719 1.0130
H11 H 0.3662 0.1657 0.9072
C9 C 0.4173(3) 0.20121(14) 0.8360(8)
C10 C 0.4080(3) 0.22827(12) 0.9320(7)
C11 C 0.3499(4) 0.24994(16) 1.1179(9)
H12 H 0.3195 0.2487 1.1965
C12 C 0.3767(3) 0.27686(14) 1.0863(8)
H13 H 0.3622 0.2940 1.1383
C13 C 0.4406(3) 0.25504(12) 0.9071(7)
C14 C 0.4951(3) 0.25827(13) 0.8017(8)
H14 H 0.5196 0.2756 0.8322
H15 H 0.5210 0.2405 0.8076
H16 H 0.4804 0.2609 0.6964
N1 N 0.3639(2) 0.10907(11) 0.2649(7)
N2 N 0.4573(2) 0.14917(10) 0.3412(6)
N3 N 0.4330(2) 0.18146(10) 0.6001(6)
N4 N 0.4263(2) 0.20633(9) 0.6937(6)
N5 N 0.3655(3) 0.22550(12) 1.0407(7)
N6 N 0.4225(2) 0.27960(10) 0.9849(6)
C1J C 0.1024(3) 0.11828(12) 0.1128(7)
C2J C 0.1499(3) 0.09827(12) 0.1483(7)
C3J C 0.2172(3) 0.12334(13) -0.0062(7)
H1J H 0.2573 0.1258 -0.0500
C4J C 0.1701(3) 0.14311(12) -0.0444(8)
H2J H 0.1786 0.1586 -0.1151
C5J C 0.0396(3) 0.11711(15) 0.1829(10)
H3J H 0.0233 0.1372 0.1938
H4J H 0.0423 0.1078 0.2840
H5J H 0.0119 0.1055 0.1173
C6J C 0.1399(3) 0.07266(12) 0.2547(7)
C7J C 0.0832(3) 0.05264(14) 0.2390(10)
H6J H 0.0966 0.0319 0.2357
H7J H 0.0610 0.0575 0.1444
H8J H 0.0556 0.0556 0.3269
C8J C 0.1602(4) 0.07867(14) 0.6574(9)
H9J H 0.1841 0.0932 0.5986
H10J H 0.1755 0.0781 0.7630
H11J H 0.1162 0.0843 0.6572
C9J C 0.1673(3) 0.04879(14) 0.5860(8)
C10J C 0.1580(3) 0.02173(12) 0.6820(7)
C11J C 0.0999(4) 0.00006(16) 0.8679(9)
H12J H 0.0695 0.0013 0.9465
C12J C 0.1267(3) -0.02686(14) 0.8363(8)
H13J H 0.1122 -0.0440 0.8883
C13J C 0.1906(3) -0.00504(12) 0.6571(7)
C14J C 0.2451(3) -0.00827(13) 0.5517(8)
H14J H 0.2696 -0.0256 0.5822
H15J H 0.2710 0.0095 0.5576
H16J H 0.2304 -0.0109 0.4464
N1J N 0.1139(2) 0.14093(11) 0.0149(7)
N2J N 0.2073(2) 0.10083(10) 0.0912(6)
N3J N 0.1830(2) 0.06854(10) 0.3501(6)
N4J N 0.1763(2) 0.04367(9) 0.4437(6)
N5J N 0.1155(3) 0.02450(12) 0.7907(7)
N6J N 0.1725(2) -0.02960(10) 0.7349(6)
Ag1J Ag 0.035181(19) 0.175219(9) -0.04117(6)
N6O N 0.3275(2) 0.02960(10) 0.2349(6)
Ag1B Ag 0.535181(19) 0.175219(9) 0.45883(6)
Ag1K Ag 0.464819(19) 0.324781(9) 0.95883(6)
Ag1I Ag 0.214819(19) -0.074781(9) 0.70883(6)
N2H N -0.0427(2) 0.14917(10) -0.1588(6)
N3H N -0.0670(2) 0.18146(10) 0.1001(6)
N6M N 0.0775(2) 0.22040(10) -0.0151(6)
H18? H 0.5185 -0.0019 0.0409
loop_
_geom_bond_atom_site_label_1
_geom_bond_atom_site_label_2
_geom_bond_site_symmetry_1
_geom_bond_site_symmetry_2
Ag1 N1 1_555 1_555
C1 C2 1_555 1_555
C2 C6 1_555 1_555
C3 H1 1_555 1_555
C4 C3 1_555 1_555
H2 C4 1_555 1_555
C5 C1 1_555 1_555
H3 C5 1_555 1_555
H4 C5 1_555 1_555
H5 C5 1_555 1_555
C6 C7 1_555 1_555
C7 H6 1_555 1_555
H7 C7 1_555 1_555
H8 C7 1_555 1_555
C8 H9 1_555 1_555
H10 C8 1_555 1_555
H11 C8 1_555 1_555
C9 C8 1_555 1_555
C10 C9 1_555 1_555
C11 H12 1_555 1_555
C12 C11 1_555 1_555
H13 C12 1_555 1_555
C13 C10 1_555 1_555
C14 C13 1_555 1_555
H14 C14 1_555 1_555
H15 C14 1_555 1_555
H16 C14 1_555 1_555
N1 C1 1_555 1_555
N2 C2 1_555 1_555
N3 C6 1_555 1_555
N4 C9 1_555 1_555
N5 C10 1_555 1_555
N6 C12 1_555 1_555
Sb1 F1 1_555 1_555
F2 Sb1 1_555 1_555
F3 Sb1 1_555 1_555
F4 Sb1 1_555 1_555
F5 Sb1 1_555 1_555
F6 Sb1 1_555 1_555
O1 H17 1_555 1_555
C15 O1 1_555 1_555
H19 C15 1_555 1_555
H20 C15 1_555 1_555
C15A C15 1_555 1_555
O1A C15A 1_555 1_555
H17A O1A 1_555 1_555
H19A C15A 1_555 1_555
H20A C15A 1_555 1_555
C1J C2J 1_555 1_555
C2J C6J 1_555 1_555
C3J H1J 1_555 1_555
C4J C3J 1_555 1_555
H2J C4J 1_555 1_555
C5J C1J 1_555 1_555
H3J C5J 1_555 1_555
H4J C5J 1_555 1_555
H5J C5J 1_555 1_555
C6J C7J 1_555 1_555
C7J H6J 1_555 1_555
H7J C7J 1_555 1_555
H8J C7J 1_555 1_555
C8J H9J 1_555 1_555
H10J C8J 1_555 1_555
H11J C8J 1_555 1_555
C9J C8J 1_555 1_555
C10J C9J 1_555 1_555
C11J H12J 1_555 1_555
C12J C11J 1_555 1_555
H13J C12J 1_555 1_555
C13J C10J 1_555 1_555
C14J C13J 1_555 1_555
H14J C14J 1_555 1_555
H15J C14J 1_555 1_555
H16J C14J 1_555 1_555
N1J C1J 1_555 1_555
N2J Ag1 1_555 1_555
N3J Ag1 1_555 1_555
N4J C9J 1_555 1_555
N5J C10J 1_555 1_555
N6J C12J 1_555 1_555
Ag1J N1J 1_555 1_555
N6O Ag1 1_555 1_555
Ag1B N2 1_555 1_555
Ag1K N6 1_555 1_555
Ag1I N6J 1_555 1_555
N2H Ag1J 1_555 1_555
N3H Ag1J 1_555 1_555
N6M Ag1J 1_555 1_555
C3 N2 1_555 1_555
C4 N1 1_555 1_555
C11 N5 1_555 1_555
C13 N6 1_555 1_555
N3 N4 1_555 1_555
N3 Ag1B 1_555 1_555
C2J N2J 1_555 1_555
C3J N2J 1_555 1_555
C4J N1J 1_555 1_555
C6J N3J 1_555 1_555
C11J N5J 1_555 1_555
C13J N6J 1_555 1_555
N3J N4J 1_555 1_555

#END
