
#######################################################################
#
#                 Cambridge Crystallographic Data Centre
#                                CCDC 
#
#######################################################################
#
# If this CIF has been generated from an entry in the Cambridge 
# Structural Database, then it will include bibliographic, chemical, 
# crystal, experimental, refinement or atomic coordinate data resulting 
# from the CCDC's data processing and validation procedures.
#
#######################################################################

data_LACZOF
_symmetry_cell_setting           monoclinic
_symmetry_space_group_name_H-M   'P 21/c'
_symmetry_Int_Tables_number      14
_space_group_name_Hall           '-P 2ybc'
loop_
_symmetry_equiv_pos_site_id
_symmetry_equiv_pos_as_xyz
1 x,y,z
2 x,1/2-y,1/2+z
3 -x,-y,-z
4 -x,1/2+y,1/2-z
_cell_length_a                   12.3435(6)
_cell_length_b                   20.3548(10)
_cell_length_c                   9.0861(5)
_cell_angle_alpha                90
_cell_angle_beta                 98.5230(10)
_cell_angle_gamma                90
_cell_volume                     2257.67
loop_
_atom_site_label
_atom_site_type_symbol
_atom_site_fract_x
_atom_site_fract_y
_atom_site_fract_z
Ag1 Ag 0.048033(17) 0.070349(11) -0.15696(2)
Ag2 Ag 0.512012(16) 0.137736(11) 0.41239(2)
C1 C 0.2285(2) 0.15038(13) 0.0468(3)
C2 C 0.3071(2) 0.16227(13) 0.1683(3)
H1 H 0.3193 0.2061 0.2025
C3 C 0.3457(2) 0.05266(14) 0.1873(3)
H2 H 0.3872 0.0169 0.2333
C4 C 0.2644(2) 0.04067(14) 0.0674(3)
H3 H 0.2500 -0.0033 0.0351
C5 C 0.1635(2) 0.20618(14) -0.0350(3)
C6 C 0.1884(2) 0.27452(14) 0.0169(3)
H4 H 0.1482 0.3055 -0.0538
H5 H 0.2672 0.2826 0.0236
H6 H 0.1661 0.2805 0.1151
C7 C -0.2651(2) 0.05764(13) -0.4772(3)
C8 C -0.1626(2) 0.04540(14) -0.3977(3)
H7 H -0.1294 0.0038 -0.4070
C9 C -0.1588(2) 0.14854(14) -0.3006(3)
H8 H -0.1236 0.1818 -0.2374
C10 C -0.2602(2) 0.16137(14) -0.3821(3)
H9 H -0.2920 0.2036 -0.3757
C11 C -0.3271(2) 0.00543(15) -0.5742(3)
C12 C -0.2717(2) -0.05817(14) -0.5931(4)
H10 H -0.3233 -0.0882 -0.6516
H11 H -0.2467 -0.0775 -0.4952
H12 H -0.2087 -0.0507 -0.6451
N1 N 0.20615(17) 0.08933(11) -0.0033(2)
N2 N 0.36684(18) 0.11367(11) 0.2397(2)
N3 N -0.31451(18) 0.11590(11) -0.4694(2)
N4 N -0.10899(18) 0.09081(12) -0.3080(3)
O1 O 0.09388(19) 0.19398(11) -0.1398(3)
O2 O -0.4197(2) 0.01639(13) -0.6309(4)
S1 S -0.03674(6) 0.08549(4) 0.21129(8)
O3 O -0.0675(2) 0.06713(12) 0.0577(3)
O4 O -0.0730(2) 0.03978(13) 0.3144(3)
O5 O 0.07414(19) 0.10581(14) 0.2517(3)
C13 C -0.1168(3) 0.15842(19) 0.2307(4)
F1 F -0.0944(2) 0.18373(11) 0.3658(3)
F2 F -0.0946(4) 0.20357(13) 0.1358(3)
F3 F -0.2220(2) 0.14475(17) 0.2097(4)
S2 S 0.49457(5) 0.19871(3) 0.81554(7)
O6 O 0.48196(19) 0.17153(12) 0.6690(2)
O7 O 0.39313(19) 0.21375(13) 0.8684(3)
O8 O 0.5783(2) 0.24830(11) 0.8445(3)
C14 C 0.5488(2) 0.13086(15) 0.9338(3)
F4 F 0.56506(17) 0.14815(11) 1.0753(2)
F5 F 0.64414(17) 0.11006(11) 0.8980(2)
F6 F 0.48031(19) 0.08015(10) 0.9199(3)
N3_2 N 0.68549(18) 0.11590(11) 0.5306(2)
O2_2 O 0.5803(2) 0.01639(13) 0.3691(4)
O8A O 0.5783(2) 0.25170(11) 0.3445(3)
Ag2_2 Ag -0.487988(16) 0.137736(11) -0.58761(2)
Ag2A Ag 0.512012(16) 0.362264(11) 0.91239(2)
loop_
_geom_bond_atom_site_label_1
_geom_bond_atom_site_label_2
_geom_bond_site_symmetry_1
_geom_bond_site_symmetry_2
Ag1 N1 1_555 1_555
Ag2 N2 1_555 1_555
C1 C2 1_555 1_555
C2 H1 1_555 1_555
C3 H2 1_555 1_555
C4 C3 1_555 1_555
H3 C4 1_555 1_555
C5 C1 1_555 1_555
C6 C5 1_555 1_555
H4 C6 1_555 1_555
H5 C6 1_555 1_555
H6 C6 1_555 1_555
C7 C8 1_555 1_555
C8 H7 1_555 1_555
C9 H8 1_555 1_555
C10 C9 1_555 1_555
H9 C10 1_555 1_555
C11 C7 1_555 1_555
C12 C11 1_555 1_555
H10 C12 1_555 1_555
H11 C12 1_555 1_555
H12 C12 1_555 1_555
N1 C1 1_555 1_555
N2 C2 1_555 1_555
N3 C7 1_555 1_555
N4 Ag1 1_555 1_555
O1 Ag1 1_555 1_555
O2 C11 1_555 1_555
S1 O3 1_555 1_555
O3 Ag1 1_555 1_555
O4 S1 1_555 1_555
O5 S1 1_555 1_555
C13 S1 1_555 1_555
F1 C13 1_555 1_555
F2 C13 1_555 1_555
F3 C13 1_555 1_555
S2 O6 1_555 1_555
O6 Ag2 1_555 1_555
O7 S2 1_555 1_555
O8 S2 1_555 1_555
C14 S2 1_555 1_555
F4 C14 1_555 1_555
F5 C14 1_555 1_555
F6 C14 1_555 1_555
N3_2 Ag2 1_555 1_555
O2_2 Ag2 1_555 1_555
O8A Ag2 1_555 1_555
Ag2_2 N3 1_555 1_555
Ag2A O8 1_555 1_555
C3 N2 1_555 1_555
C4 N1 1_555 1_555
C5 O1 1_555 1_555
C8 N4 1_555 1_555
C9 N4 1_555 1_555
C10 N3 1_555 1_555
O2 Ag2_2 1_555 1_555

#END
