
#######################################################################
#
#                 Cambridge Crystallographic Data Centre
#                                CCDC 
#
#######################################################################
#
# If this CIF has been generated from an entry in the Cambridge 
# Structural Database, then it will include bibliographic, chemical, 
# crystal, experimental, refinement or atomic coordinate data resulting 
# from the CCDC's data processing and validation procedures.
#
#######################################################################

data_LADFON
_symmetry_cell_setting           monoclinic
_symmetry_space_group_name_H-M   'P 21/n'
_symmetry_Int_Tables_number      14
_space_group_name_Hall           '-P 2yn'
loop_
_symmetry_equiv_pos_site_id
_symmetry_equiv_pos_as_xyz
1 x,y,z
2 1/2-x,1/2+y,1/2-z
3 -x,-y,-z
4 1/2+x,1/2-y,1/2+z
_cell_length_a                   8.2722(4)
_cell_length_b                   27.6453(11)
_cell_length_c                   11.1959(5)
_cell_angle_alpha                90
_cell_angle_beta                 93.5610(10)
_cell_angle_gamma                90
_cell_volume                     2555.42
loop_
_atom_site_label
_atom_site_type_symbol
_atom_site_fract_x
_atom_site_fract_y
_atom_site_fract_z
Cu1 Cu 0.59434(5) 0.343785(14) 0.26867(3)
Br1 Br 0.51253(5) 0.243927(13) -0.10044(3)
Br2 Br 0.65722(5) 0.244217(13) -0.37184(3)
Br3 Br 0.69148(5) 0.447614(13) -0.36082(3)
Br4 Br 0.56872(5) 0.446627(14) -0.08082(3)
O1 O 0.6435(3) 0.08747(8) 0.2693(2)
O2 O 0.6052(3) 0.33965(8) 0.09249(18)
O3 O 0.3454(3) 0.34997(11) 0.0251(2)
O4 O 0.8490(3) 0.34527(10) -0.4928(2)
O5 O 0.5863(3) 0.34732(8) -0.55544(19)
O6 O 0.3456(3) 0.37134(11) 0.2580(2)
H1 H 0.2944 0.3652 0.1916
H2 H 0.2927 0.3696 0.3206
N1 N 0.5728(3) 0.27140(9) 0.2746(2)
N2 N 0.4700(4) 0.10073(10) 0.4080(3)
N3 N 0.4982(4) 0.05075(11) 0.4013(3)
N4 N 0.7952(3) -0.09171(10) 0.2404(2)
C1 C 0.5638(4) 0.17192(12) 0.3052(3)
C2 C 0.6599(4) 0.19230(12) 0.2208(3)
H3 H 0.7216 0.1729 0.1733
C3 C 0.6613(4) 0.24186(12) 0.2093(3)
H4 H 0.7266 0.2555 0.1536
C4 C 0.4756(4) 0.25135(11) 0.3524(3)
H5 H 0.4111 0.2714 0.3961
C5 C 0.4679(4) 0.20237(12) 0.3698(3)
H6 H 0.3991 0.1896 0.4244
C6 C 0.5563(4) 0.12044(12) 0.3296(3)
C7 C 0.5991(4) 0.04492(12) 0.3199(3)
C8 C 0.6649(4) -0.00161(12) 0.2837(3)
C9 C 0.7948(4) -0.00639(13) 0.2125(3)
H7 H 0.8399 0.0207 0.1782
C10 C 0.8562(4) -0.05172(12) 0.1932(3)
H8 H 0.9437 -0.0547 0.1454
C11 C 0.6672(4) -0.08712(12) 0.3056(3)
H9 H 0.6225 -0.1149 0.3370
C12 C 0.5975(5) -0.04295(13) 0.3287(3)
H10 H 0.5069 -0.0411 0.3736
C13 C 0.4916(4) 0.34523(12) 0.0130(3)
C14 C 0.5465(4) 0.34548(12) -0.1148(3)
C15 C 0.5636(4) 0.30252(12) -0.1771(3)
C16 C 0.6172(4) 0.30277(12) -0.2923(3)
C17 C 0.6504(4) 0.34616(11) -0.3485(3)
C18 C 0.6348(4) 0.38898(12) -0.2858(3)
C19 C 0.5843(4) 0.38901(12) -0.1694(3)
C20 C 0.7042(4) 0.34629(11) -0.4776(3)
Cu1_2 Cu 0.59434(5) 0.343785(14) -0.73133(3)
Cu1A Cu 0.90566(5) -0.156215(14) 0.23133(3)
O5_2 O 0.5863(3) 0.34732(8) 0.44456(19)
N4A N 0.7048(3) 0.40829(10) 0.2596(2)
O7 O 0.1197(5) 0.38190(14) 0.4206(4)
H11 H 0.0330 0.3708 0.4397
C21 C 0.1370(8) 0.4286(2) 0.4629(5)
H12 H 0.0659 0.4336 0.5263
H13 H 0.1102 0.4510 0.3991
H14 H 0.2471 0.4337 0.4927
loop_
_geom_bond_atom_site_label_1
_geom_bond_atom_site_label_2
_geom_bond_site_symmetry_1
_geom_bond_site_symmetry_2
Cu1 O2 1_555 1_555
Br1 C15 1_555 1_555
Br2 C16 1_555 1_555
Br3 C18 1_555 1_555
Br4 C19 1_555 1_555
O1 C6 1_555 1_555
O2 C13 1_555 1_555
O3 C13 1_555 1_555
O4 C20 1_555 1_555
O5 C20 1_555 1_555
O6 Cu1 1_555 1_555
H1 O6 1_555 1_555
H2 O6 1_555 1_555
N1 Cu1 1_555 1_555
N2 N3 1_555 1_555
N3 C7 1_555 1_555
N4 C10 1_555 1_555
C1 C2 1_555 1_555
C2 H3 1_555 1_555
C3 N1 1_555 1_555
H4 C3 1_555 1_555
C4 N1 1_555 1_555
H5 C4 1_555 1_555
C5 C1 1_555 1_555
H6 C5 1_555 1_555
C6 N2 1_555 1_555
C7 O1 1_555 1_555
C8 C7 1_555 1_555
C9 C8 1_555 1_555
H7 C9 1_555 1_555
C10 C9 1_555 1_555
H8 C10 1_555 1_555
C11 N4 1_555 1_555
H9 C11 1_555 1_555
C12 C8 1_555 1_555
H10 C12 1_555 1_555
C13 C14 1_555 1_555
C14 C15 1_555 1_555
C15 C16 1_555 1_555
C16 C17 1_555 1_555
C17 C18 1_555 1_555
C18 C19 1_555 1_555
C19 C14 1_555 1_555
C20 C17 1_555 1_555
O7 H11 1_555 1_555
C21 O7 1_555 1_555
H12 C21 1_555 1_555
H13 C21 1_555 1_555
H14 C21 1_555 1_555
Cu1_2 O5 1_555 1_555
Cu1A N4 1_555 1_555
O5_2 Cu1 1_555 1_555
N4A Cu1 1_555 1_555
C1 C6 1_555 1_555
C2 C3 1_555 1_555
C4 C5 1_555 1_555
C11 C12 1_555 1_555

#END
