
#######################################################################
#
#                 Cambridge Crystallographic Data Centre
#                                CCDC 
#
#######################################################################
#
# If this CIF has been generated from an entry in the Cambridge 
# Structural Database, then it will include bibliographic, chemical, 
# crystal, experimental, refinement or atomic coordinate data resulting 
# from the CCDC's data processing and validation procedures.
#
#######################################################################

data_LADFUT
_symmetry_cell_setting           triclinic
_symmetry_space_group_name_H-M   'P -1'
_symmetry_Int_Tables_number      2
_space_group_name_Hall           '-P 1'
loop_
_symmetry_equiv_pos_site_id
_symmetry_equiv_pos_as_xyz
1 x,y,z
2 -x,-y,-z
_cell_length_a                   11.398(4)
_cell_length_b                   12.337(4)
_cell_length_c                   12.667(4)
_cell_angle_alpha                65.774(5)
_cell_angle_beta                 75.569(5)
_cell_angle_gamma                75.861(4)
_cell_volume                     1552.61
loop_
_atom_site_label
_atom_site_type_symbol
_atom_site_fract_x
_atom_site_fract_y
_atom_site_fract_z
Zn1 Zn 0.53489(6) 0.35076(6) 0.31487(6)
Br1 Br 1.18776(7) 0.54055(8) 0.09442(7)
Br2 Br 1.16920(7) 0.12094(7) 0.50232(8)
Br3 Br 0.86492(7) 0.16489(7) 0.52892(9)
Br4 Br 0.88280(7) 0.59320(8) 0.12916(8)
O1 O 0.4566(4) 0.9318(4) -0.1060(4)
O2 O 0.7200(4) 0.3423(4) 0.2899(4)
O3 O 0.6963(4) 0.4508(5) 0.3989(6)
O4 O 1.3415(4) 0.3541(4) 0.3250(4)
O5 O 1.3446(4) 0.2367(5) 0.2273(5)
O6 O 0.5697(4) 0.2540(5) 0.2143(6)
H1 H 0.6387 0.2662 0.1704
H2 H 0.5194 0.2339 0.1888
N1 N 0.4925(5) 0.5326(4) 0.2282(5)
N2 N 0.3249(6) 0.9817(5) 0.0345(5)
N3 N 0.3267(6) 1.0821(5) -0.0696(6)
N4 N 0.5045(5) 1.2574(4) -0.5078(5)
C1 C 0.3651(7) 0.7237(6) 0.1929(7)
H3 H 0.2981 0.7710 0.2208
C2 C 0.3978(7) 0.6035(6) 0.2600(7)
H4 H 0.3491 0.5711 0.3325
C3 C 0.5587(6) 0.5801(6) 0.1232(6)
H5 H 0.6263 0.5310 0.0986
C4 C 0.5337(6) 0.6965(6) 0.0492(6)
H6 H 0.5828 0.7256 -0.0238
C5 C 0.4334(6) 0.7708(6) 0.0850(6)
C6 C 0.4009(6) 0.8960(6) 0.0073(6)
C7 C 0.4033(7) 1.0493(6) -0.1476(6)
C8 C 0.4416(6) 1.1197(6) -0.2733(6)
C9 C 0.5226(7) 1.0700(6) -0.3472(7)
H7 H 0.5581 0.9894 -0.3193
C10 C 0.5502(6) 1.1405(6) -0.4621(6)
H8 H 0.6042 1.1054 -0.5119
C11 C 0.4316(7) 1.3029(6) -0.4349(6)
H9 H 0.4023 1.3851 -0.4642
C12 C 0.3942(7) 1.2404(6) -0.3187(7)
H10 H 0.3386 1.2779 -0.2717
C13 C 0.8979(6) 0.3740(6) 0.3253(6)
C14 C 0.9665(6) 0.4536(6) 0.2343(6)
C15 C 1.0931(6) 0.4327(6) 0.2190(6)
C16 C 1.1536(5) 0.3316(6) 0.2985(6)
C17 C 1.0866(5) 0.2526(6) 0.3899(6)
C18 C 0.9591(6) 0.2737(6) 0.4039(7)
C19 C 0.7563(6) 0.3936(6) 0.3412(7)
C20 C 1.2939(6) 0.3054(6) 0.2823(6)
Zn1_2 Zn 1.53489(6) 0.35076(6) 0.31487(6)
Zn1_3 Zn 0.53489(6) 1.35076(6) -0.68513(6)
O4_2 O 0.3415(4) 0.3541(4) 0.3250(4)
N4_2 N 0.5045(5) 0.2574(4) 0.4922(5)
O7 O 0.2381(6) 0.9008(8) 0.8073(11)
N5 N 0.0302(7) 0.9225(7) 0.8279(8)
C21 C 0.0056(11) 1.0414(11) 0.8309(11)
H11 H 0.0795 1.0610 0.8372
H12 H -0.0561 1.0439 0.8974
H13 H -0.0228 1.0988 0.7601
C22 C -0.0750(9) 0.8756(10) 0.8301(11)
H14 H -0.1042 0.9186 0.7566
H15 H -0.1388 0.8853 0.8928
H16 H -0.0519 0.7917 0.8422
C23 C 0.1432(9) 0.8624(11) 0.8138(12)
H17 H 0.1525 0.7877 0.8085
O8 O 0.0000 0.5000 0.5000
O9? O 0.094(2) 0.621(2) 0.368(2)
O10? O 0.072(3) 0.552(3) 0.435(3)
O11? O -0.102(3) 0.568(2) 0.461(2)
loop_
_geom_bond_atom_site_label_1
_geom_bond_atom_site_label_2
_geom_bond_site_symmetry_1
_geom_bond_site_symmetry_2
Zn1 O2 1_555 1_555
Br1 C15 1_555 1_555
Br2 C17 1_555 1_555
Br3 C18 1_555 1_555
Br4 C14 1_555 1_555
O1 C6 1_555 1_555
O2 C19 1_555 1_555
O3 C19 1_555 1_555
O4 C20 1_555 1_555
O5 C20 1_555 1_555
O6 Zn1 1_555 1_555
H1 O6 1_555 1_555
H2 O6 1_555 1_555
O7 C23 1_555 1_555
N1 Zn1 1_555 1_555
N2 N3 1_555 1_555
N3 C7 1_555 1_555
N4 C10 1_555 1_555
N5 C21 1_555 1_555
C1 H3 1_555 1_555
C2 N1 1_555 1_555
H4 C2 1_555 1_555
C3 N1 1_555 1_555
H5 C3 1_555 1_555
C4 C3 1_555 1_555
H6 C4 1_555 1_555
C5 C1 1_555 1_555
C6 N2 1_555 1_555
C7 O1 1_555 1_555
C8 C7 1_555 1_555
C9 C8 1_555 1_555
H7 C9 1_555 1_555
C10 C9 1_555 1_555
H8 C10 1_555 1_555
C11 N4 1_555 1_555
H9 C11 1_555 1_555
C12 C8 1_555 1_555
H10 C12 1_555 1_555
C13 C14 1_555 1_555
C14 C15 1_555 1_555
C15 C16 1_555 1_555
C16 C17 1_555 1_555
C17 C18 1_555 1_555
C18 C13 1_555 1_555
C19 C13 1_555 1_555
C20 C16 1_555 1_555
C21 H11 1_555 1_555
H12 C21 1_555 1_555
H13 C21 1_555 1_555
C22 N5 1_555 1_555
H14 C22 1_555 1_555
H15 C22 1_555 1_555
H16 C22 1_555 1_555
C23 N5 1_555 1_555
H17 C23 1_555 1_555
Zn1_2 O4 1_555 1_555
Zn1_3 N4 1_555 1_555
O4_2 Zn1 1_555 1_555
N4_2 Zn1 1_555 1_555
C1 C2 1_555 1_555
C4 C5 1_555 1_555
C5 C6 1_555 1_555
C11 C12 1_555 1_555

#END
