
#######################################################################
#
#                 Cambridge Crystallographic Data Centre
#                                CCDC 
#
#######################################################################
#
# If this CIF has been generated from an entry in the Cambridge 
# Structural Database, then it will include bibliographic, chemical, 
# crystal, experimental, refinement or atomic coordinate data resulting 
# from the CCDC's data processing and validation procedures.
#
#######################################################################

data_LADFAZ
_symmetry_cell_setting           triclinic
_symmetry_space_group_name_H-M   'P -1'
_symmetry_Int_Tables_number      2
_space_group_name_Hall           '-P 1'
loop_
_symmetry_equiv_pos_site_id
_symmetry_equiv_pos_as_xyz
1 x,y,z
2 -x,-y,-z
_cell_length_a                   8.1293(9)
_cell_length_b                   10.9582(11)
_cell_length_c                   11.4728(12)
_cell_angle_alpha                63.567(2)
_cell_angle_beta                 76.532(2)
_cell_angle_gamma                86.0070(10)
_cell_volume                     889.331
loop_
_atom_site_label
_atom_site_type_symbol
_atom_site_fract_x
_atom_site_fract_y
_atom_site_fract_z
Br1 Br 0.32122(3) 0.15002(3) 0.01723(3)
Br2 Br 0.35048(3) 0.05638(3) -0.22872(3)
Zn1 Zn 0.0000 0.0000 0.5000
N1 N 0.1865(2) 0.1661(2) 0.4183(2)
N2 N 0.5757(3) 0.5569(2) 0.3370(2)
N3 N 0.7409(3) 0.6133(2) 0.2934(3)
N4 N 1.3551(3) 0.6165(3) 0.0571(3)
O1 O 0.7410(2) 0.43851(17) 0.24737(17)
O2 O 0.0343(2) -0.00764(17) 0.31484(16)
O3 O -0.0909(3) 0.18512(18) 0.20322(18)
O4 O -0.1986(2) 0.13475(18) 0.45709(18)
H1 H -0.2285 0.1871 0.4944
H2 H -0.1745 0.1717 0.3722
C1 C 0.4467(3) 0.3571(2) 0.3412(2)
C2 C 0.2911(3) 0.3636(3) 0.4200(3)
H3 H 0.2717 0.4321 0.4479
C3 C 0.1665(3) 0.2666(3) 0.4557(3)
H4 H 0.0628 0.2712 0.5086
C4 C 0.3358(3) 0.1625(3) 0.3410(3)
H5 H 0.3510 0.0940 0.3131
C5 C 0.4686(3) 0.2547(3) 0.3001(3)
H6 H 0.5705 0.2483 0.2463
C6 C 0.5821(3) 0.4551(3) 0.3089(2)
C7 C 0.8321(3) 0.5415(2) 0.2417(3)
C8 C 1.0127(3) 0.5628(2) 0.1789(2)
C9 C 1.0987(3) 0.6726(3) 0.1710(3)
H7 H 1.0431 0.7299 0.2064
C10 C 1.2671(4) 0.6944(3) 0.1097(3)
H8 H 1.3238 0.7682 0.1044
C11 C 1.2707(4) 0.5114(3) 0.0659(3)
H9 H 1.3300 0.4557 0.0299
C12 C 1.1008(3) 0.4801(3) 0.1252(3)
H10 H 1.0472 0.4057 0.1289
C13 C -0.0105(3) 0.0363(2) 0.1041(2)
C14 C 0.1379(3) 0.0608(2) 0.0068(2)
C15 C 0.1488(3) 0.0249(2) -0.0962(2)
C16 C -0.0242(3) 0.0762(2) 0.2176(2)
Br1A Br -0.32122(3) -0.15002(3) -0.01723(3)
Br2A Br -0.35048(3) -0.05638(3) 0.22872(3)
Zn1_2 Zn 0.0000 0.0000 -0.5000
N1A N -0.1865(2) -0.1661(2) 0.5817(2)
N2A N -0.5757(3) -0.5569(2) 0.6630(2)
N3A N -0.7409(3) -0.6133(2) 0.7066(3)
N4A N -1.3551(3) -0.6165(3) 0.9429(3)
O1A O -0.7410(2) -0.43851(17) 0.75263(17)
O2A O -0.0343(2) 0.00764(17) -0.31484(16)
O2A_2 O -0.0343(2) 0.00764(17) 0.68516(16)
O3A O 0.0909(3) -0.18512(18) -0.20322(18)
O4A O 0.1986(2) -0.13475(18) 0.54291(18)
H1A H 0.2285 -0.1871 0.5056
H2A H 0.1745 -0.1717 0.6278
C1A C -0.4467(3) -0.3571(2) 0.6588(2)
C2A C -0.2911(3) -0.3636(3) 0.5800(3)
H3A H -0.2717 -0.4321 0.5521
C3A C -0.1665(3) -0.2666(3) 0.5443(3)
H4A H -0.0628 -0.2712 0.4914
C4A C -0.3358(3) -0.1625(3) 0.6590(3)
H5A H -0.3510 -0.0940 0.6869
C5A C -0.4686(3) -0.2547(3) 0.6999(3)
H6A H -0.5705 -0.2483 0.7537
C6A C -0.5821(3) -0.4551(3) 0.6911(2)
C7A C -0.8321(3) -0.5415(2) 0.7583(3)
C8A C -1.0127(3) -0.5628(2) 0.8211(2)
C9A C -1.0987(3) -0.6726(3) 0.8290(3)
H7A H -1.0431 -0.7299 0.7936
C10A C -1.2671(4) -0.6944(3) 0.8903(3)
H8A H -1.3238 -0.7682 0.8956
C11A C -1.2707(4) -0.5114(3) 0.9341(3)
H9A H -1.3300 -0.4557 0.9701
C12A C -1.1008(3) -0.4801(3) 0.8748(3)
H10A H -1.0472 -0.4057 0.8711
C13A C 0.0105(3) -0.0363(2) -0.1041(2)
C14A C -0.1379(3) -0.0608(2) -0.0068(2)
C15A C -0.1488(3) -0.0249(2) 0.0962(2)
C16A C 0.0242(3) -0.0762(2) -0.2176(2)
O5 O 0.7126(3) 0.2902(3) 0.5928(3)
H11 H 0.6242 0.3282 0.6150
H12 H 0.7480 0.2249 0.6556
loop_
_geom_bond_atom_site_label_1
_geom_bond_atom_site_label_2
_geom_bond_site_symmetry_1
_geom_bond_site_symmetry_2
Br1 C14 1_555 1_555
Br2 C15 1_555 1_555
Zn1 N1 1_555 1_555
N1 C3 1_555 1_555
N2 N3 1_555 1_555
N3 C7 1_555 1_555
N4 C10 1_555 1_555
O1 C6 1_555 1_555
O2 Zn1 1_555 1_555
O3 C16 1_555 1_555
O4 Zn1 1_555 1_555
H1 O4 1_555 1_555
H2 O4 1_555 1_555
C1 C2 1_555 1_555
C2 H3 1_555 1_555
C3 C2 1_555 1_555
H4 C3 1_555 1_555
C4 N1 1_555 1_555
H5 C4 1_555 1_555
C5 C1 1_555 1_555
H6 C5 1_555 1_555
C6 N2 1_555 1_555
C7 O1 1_555 1_555
C8 C7 1_555 1_555
C9 C8 1_555 1_555
H7 C9 1_555 1_555
C10 C9 1_555 1_555
H8 C10 1_555 1_555
C11 N4 1_555 1_555
H9 C11 1_555 1_555
C12 C8 1_555 1_555
H10 C12 1_555 1_555
C13 C14 1_555 1_555
C14 C15 1_555 1_555
C15 C13A 1_555 1_555
C16 O2 1_555 1_555
O5 H11 1_555 1_555
H12 O5 1_555 1_555
Br1A C14A 1_555 1_555
Br2A C15A 1_555 1_555
Zn1_2 O2A 1_555 1_555
N1A Zn1 1_555 1_555
N2A N3A 1_555 1_555
N3A C7A 1_555 1_555
N4A C10A 1_555 1_555
O1A C6A 1_555 1_555
O2A C16A 1_555 1_555
O2A_2 Zn1 1_555 1_555
O3A C16A 1_555 1_555
O4A Zn1 1_555 1_555
H1A O4A 1_555 1_555
H2A O4A 1_555 1_555
C1A C2A 1_555 1_555
C2A H3A 1_555 1_555
C3A N1A 1_555 1_555
H4A C3A 1_555 1_555
C4A N1A 1_555 1_555
H5A C4A 1_555 1_555
C5A C1A 1_555 1_555
H6A C5A 1_555 1_555
C6A N2A 1_555 1_555
C7A O1A 1_555 1_555
C8A C7A 1_555 1_555
C9A C8A 1_555 1_555
H7A C9A 1_555 1_555
C10A C9A 1_555 1_555
H8A C10A 1_555 1_555
C11A N4A 1_555 1_555
H9A C11A 1_555 1_555
C12A C8A 1_555 1_555
H10A C12A 1_555 1_555
C13A C14A 1_555 1_555
C14A C15A 1_555 1_555
C15A C13 1_555 1_555
C16A C13A 1_555 1_555
C1 C6 1_555 1_555
C4 C5 1_555 1_555
C11 C12 1_555 1_555
C13 C16 1_555 1_555
C1A C6A 1_555 1_555
C2A C3A 1_555 1_555
C4A C5A 1_555 1_555
C11A C12A 1_555 1_555

#END
