
#######################################################################
#
#                 Cambridge Crystallographic Data Centre
#                                CCDC 
#
#######################################################################
#
# If this CIF has been generated from an entry in the Cambridge 
# Structural Database, then it will include bibliographic, chemical, 
# crystal, experimental, refinement or atomic coordinate data resulting 
# from the CCDC's data processing and validation procedures.
#
#######################################################################

data_LADFED
_symmetry_cell_setting           triclinic
_symmetry_space_group_name_H-M   'P -1'
_symmetry_Int_Tables_number      2
_space_group_name_Hall           '-P 1'
loop_
_symmetry_equiv_pos_site_id
_symmetry_equiv_pos_as_xyz
1 x,y,z
2 -x,-y,-z
_cell_length_a                   10.891(2)
_cell_length_b                   12.402(3)
_cell_length_c                   15.103(3)
_cell_angle_alpha                78.950(4)
_cell_angle_beta                 71.012(4)
_cell_angle_gamma                64.975(4)
_cell_volume                     1744.4
loop_
_atom_site_label
_atom_site_type_symbol
_atom_site_fract_x
_atom_site_fract_y
_atom_site_fract_z
Ag1 Ag 0.44576(5) 0.82025(4) 0.67794(3)
Br1 Br 0.29330(8) 0.78176(6) 1.02740(5)
Br2 Br 0.32309(8) 0.59058(7) 1.21084(5)
Br3 Br -0.00600(8) 1.11028(7) 0.68186(5)
Br4 Br -0.29724(8) 1.19496(7) 0.61784(6)
O1 O -0.0316(5) 1.3820(4) 0.9013(4)
O2 O 0.8949(4) 0.3336(4) 0.3517(3)
O3 O 0.3697(5) 0.6964(4) 0.8068(3)
O4 O 0.5625(5) 0.7163(4) 0.8030(3)
O5 O 0.2590(5) 0.8325(4) 0.6298(3)
O6 O 0.3487(5) 0.9538(4) 0.5301(3)
O7 O 0.6226(5) 0.8896(4) 0.6156(4)
H1 H 0.7045 0.8565 0.6238
H2 H 0.6117 0.9423 0.5705
N1 N 0.3237(6) 1.0099(5) 0.7367(4)
N2 N 0.0237(7) 1.4570(6) 0.7552(5)
N3 N -0.0752(7) 1.5505(5) 0.8122(5)
N4 N -0.3628(8) 1.6753(9) 1.1469(7)
H3 H -0.4144 1.7106 1.1978
N5 N 0.5978(6) 0.6573(5) 0.5870(4)
N6 N 1.0291(6) 0.3021(5) 0.4447(4)
N7 N 1.1021(6) 0.2213(5) 0.3743(4)
N8 N 1.1329(8) 0.0542(6) 0.0815(5)
C1 C 0.1406(8) 1.1416(6) 0.8487(5)
H4 H 0.0777 1.1513 0.9083
C2 C 0.2330(8) 1.0294(6) 0.8207(5)
H5 H 0.2316 0.9643 0.8628
C3 C 0.3290(7) 1.1058(6) 0.6780(5)
H6 H 0.3964 1.0934 0.6201
C4 C 0.2398(8) 1.2203(6) 0.6999(6)
H7 H 0.2445 1.2840 0.6568
C5 C 0.1420(7) 1.2400(6) 0.7875(5)
C6 C 0.0450(8) 1.3615(6) 0.8105(6)
C7 C -0.1032(8) 1.5025(6) 0.8965(6)
C8 C -0.1956(8) 1.5624(7) 0.9841(6)
C9 C -0.2088(9) 1.4979(8) 1.0678(7)
H8 H -0.1629 1.4153 1.0715
C10 C -0.2928(10) 1.5598(10) 1.1471(7)
H9 H -0.3001 1.5163 1.2046
C11 C -0.3502(10) 1.7341(10) 1.0655(9)
H10 H -0.3974 1.8165 1.0639
C12 C -0.2712(9) 1.6818(8) 0.9813(7)
H11 H -0.2698 1.7270 0.9245
C13 C 0.6681(7) 0.5299(6) 0.4631(5)
H12 H 0.6463 0.5106 0.4151
C14 C 0.5724(7) 0.6240(6) 0.5183(5)
H13 H 0.4849 0.6666 0.5066
C15 C 0.7228(7) 0.5964(6) 0.6026(5)
H14 H 0.7430 0.6198 0.6494
C16 C 0.8246(7) 0.5003(6) 0.5533(5)
H15 H 0.9103 0.4591 0.5676
C17 C 0.7977(7) 0.4654(6) 0.4819(5)
C18 C 0.9078(7) 0.3666(6) 0.4278(5)
C19 C 1.0219(7) 0.2421(6) 0.3214(5)
C20 C 1.0567(7) 0.1807(6) 0.2393(5)
C21 C 1.1920(8) 0.0952(7) 0.2070(6)
H16 H 1.2606 0.0783 0.2373
C22 C 1.2223(9) 0.0363(8) 0.1296(6)
H17 H 1.3130 -0.0207 0.1094
C23 C 1.0045(9) 0.1372(7) 0.1133(5)
H18 H 0.9389 0.1528 0.0806
C24 C 0.9611(7) 0.2015(6) 0.1904(5)
H19 H 0.8694 0.2577 0.2090
C25 C 0.4710(7) 0.6720(6) 0.8375(5)
C26 C 0.4872(6) 0.5826(5) 0.9219(4)
C27 C 0.4242(7) 0.5387(5) 1.0883(4)
C28 C 0.4128(6) 0.6193(5) 1.0122(4)
C29 C 0.2540(7) 0.9127(6) 0.5657(5)
C30 C 0.1241(6) 0.9618(6) 0.5296(4)
C31 C -0.0035(7) 1.0454(6) 0.5778(4)
C32 C -0.1249(7) 1.0825(6) 0.5488(5)
Ag1A Ag 0.55424(5) 0.17975(4) 1.32206(3)
Ag1A_2 Ag -0.44576(5) 1.17975(4) 0.32206(3)
Br1A Br 0.70670(8) 0.21824(6) 0.97260(5)
Br2A Br 0.67691(8) 0.40942(7) 0.78916(5)
Br3A Br 0.00600(8) 0.88972(7) 0.31814(5)
Br4A Br 0.29724(8) 0.80504(7) 0.38216(6)
O1A O 1.0316(5) -0.3820(4) 1.0987(4)
O2A O 0.1051(4) 0.6664(4) 1.6483(3)
O3A O 0.6303(5) 0.3036(4) 1.1932(3)
O4A O 0.4375(5) 0.2837(4) 1.1970(3)
O5A O -0.2590(5) 1.1675(4) 0.3702(3)
O5A_2 O 0.7410(5) 0.1675(4) 1.3702(3)
O6A O -0.3487(5) 1.0462(4) 0.4699(3)
O6A_2 O 0.6513(5) 0.0462(4) 1.4699(3)
O7A O 0.3774(5) 0.1104(4) 1.3844(4)
H1A H 0.2955 0.1435 1.3762
H2A H 0.3883 0.0577 1.4295
N1A N 0.6763(6) -0.0099(5) 1.2633(4)
N2A N 0.9763(7) -0.4570(6) 1.2448(5)
N3A N 1.0752(7) -0.5505(5) 1.1878(5)
N4A N 1.3628(8) -0.6753(9) 0.8531(7)
H3A H 1.4144 -0.7106 0.8022
N5A N 0.4022(6) 0.3427(5) 1.4130(4)
N6A N -0.0291(6) 0.6979(5) 1.5553(4)
N7A N -0.1021(6) 0.7787(5) 1.6257(4)
N8A N -0.1329(8) 0.9458(6) 1.9185(5)
C1A C 0.8594(8) -0.1416(6) 1.1513(5)
H4A H 0.9223 -0.1513 1.0917
C2A C 0.7670(8) -0.0294(6) 1.1793(5)
H5A H 0.7684 0.0357 1.1372
C3A C 0.6710(7) -0.1058(6) 1.3220(5)
H6A H 0.6036 -0.0934 1.3799
C4A C 0.7602(8) -0.2203(6) 1.3001(6)
H7A H 0.7555 -0.2840 1.3432
C5A C 0.8580(7) -0.2400(6) 1.2125(5)
C6A C 0.9550(8) -0.3615(6) 1.1895(6)
C7A C 1.1032(8) -0.5025(6) 1.1035(6)
C8A C 1.1956(8) -0.5624(7) 1.0159(6)
C9A C 1.2088(9) -0.4979(8) 0.9322(7)
H8A H 1.1629 -0.4153 0.9285
C10A C 1.2928(10) -0.5598(10) 0.8529(7)
H9A H 1.3001 -0.5163 0.7954
C11A C 1.3502(10) -0.7341(10) 0.9345(9)
H10A H 1.3974 -0.8165 0.9361
C12A C 1.2712(9) -0.6818(8) 1.0187(7)
H11A H 1.2698 -0.7270 1.0755
C13A C 0.3319(7) 0.4701(6) 1.5369(5)
H12A H 0.3537 0.4894 1.5849
C14A C 0.4276(7) 0.3760(6) 1.4817(5)
H13A H 0.5151 0.3334 1.4934
C15A C 0.2772(7) 0.4036(6) 1.3974(5)
H14A H 0.2570 0.3802 1.3506
C16A C 0.1754(7) 0.4997(6) 1.4467(5)
H15A H 0.0897 0.5409 1.4324
C17A C 0.2023(7) 0.5346(6) 1.5181(5)
C18A C 0.0922(7) 0.6334(6) 1.5722(5)
C19A C -0.0219(7) 0.7579(6) 1.6786(5)
C20A C -0.0567(7) 0.8193(6) 1.7607(5)
C21A C -0.1920(8) 0.9048(7) 1.7930(6)
H16A H -0.2606 0.9217 1.7627
C22A C -0.2223(9) 0.9637(8) 1.8704(6)
H17A H -0.3130 1.0207 1.8906
C23A C -0.0045(9) 0.8628(7) 1.8867(5)
H18A H 0.0611 0.8472 1.9194
C24A C 0.0389(7) 0.7985(6) 1.8096(5)
H19A H 0.1306 0.7423 1.7910
C25A C 0.5290(7) 0.3280(6) 1.1625(5)
C26A C 0.5128(6) 0.4174(5) 1.0781(4)
C27A C 0.5758(7) 0.4613(5) 0.9117(4)
C28A C 0.5872(6) 0.3807(5) 0.9878(4)
C29A C -0.2540(7) 1.0873(6) 0.4343(5)
C30A C -0.1241(6) 1.0382(6) 0.4704(4)
C31A C 0.0035(7) 0.9546(6) 0.4222(4)
C32A C 0.1249(7) 0.9175(6) 0.4512(5)
loop_
_geom_bond_atom_site_label_1
_geom_bond_atom_site_label_2
_geom_bond_site_symmetry_1
_geom_bond_site_symmetry_2
Ag1 O3 1_555 1_555
Br1 C28 1_555 1_555
Br2 C27 1_555 1_555
Br3 C31 1_555 1_555
Br4 C32 1_555 1_555
O1 C6 1_555 1_555
O2 C18 1_555 1_555
O3 C25 1_555 1_555
O4 Ag1 1_555 1_555
O5 Ag1 1_555 1_555
O6 Ag1 1_555 1_555
O7 Ag1 1_555 1_555
H1 O7 1_555 1_555
H2 O7 1_555 1_555
N1 Ag1 1_555 1_555
N2 N3 1_555 1_555
N3 C7 1_555 1_555
N4 H3 1_555 1_555
N5 Ag1 1_555 1_555
N6 N7 1_555 1_555
N7 C19 1_555 1_555
N8 C22 1_555 1_555
C1 H4 1_555 1_555
C2 N1 1_555 1_555
H5 C2 1_555 1_555
C3 N1 1_555 1_555
H6 C3 1_555 1_555
C4 C3 1_555 1_555
H7 C4 1_555 1_555
C5 C1 1_555 1_555
C6 N2 1_555 1_555
C7 O1 1_555 1_555
C8 C7 1_555 1_555
C9 C8 1_555 1_555
H8 C9 1_555 1_555
C10 N4 1_555 1_555
H9 C10 1_555 1_555
C11 N4 1_555 1_555
H10 C11 1_555 1_555
C12 C8 1_555 1_555
H11 C12 1_555 1_555
C13 H12 1_555 1_555
C14 N5 1_555 1_555
H13 C14 1_555 1_555
C15 N5 1_555 1_555
H14 C15 1_555 1_555
C16 C15 1_555 1_555
H15 C16 1_555 1_555
C17 C13 1_555 1_555
C18 N6 1_555 1_555
C19 O2 1_555 1_555
C20 C19 1_555 1_555
C21 C20 1_555 1_555
H16 C21 1_555 1_555
C22 C21 1_555 1_555
H17 C22 1_555 1_555
C23 N8 1_555 1_555
H18 C23 1_555 1_555
C24 C20 1_555 1_555
H19 C24 1_555 1_555
C25 O4 1_555 1_555
C26 C25 1_555 1_555
C27 C28 1_555 1_555
C28 C26 1_555 1_555
C29 O5 1_555 1_555
C30 C29 1_555 1_555
C31 C30 1_555 1_555
C32 C31 1_555 1_555
Ag1A O3A 1_555 1_555
Ag1A_2 O5A 1_555 1_555
Br1A C28A 1_555 1_555
Br2A C27A 1_555 1_555
Br3A C31A 1_555 1_555
Br4A C32A 1_555 1_555
O1A C6A 1_555 1_555
O2A C18A 1_555 1_555
O3A C25A 1_555 1_555
O4A Ag1A 1_555 1_555
O5A C29A 1_555 1_555
O5A_2 Ag1A 1_555 1_555
O6A Ag1A_2 1_555 1_555
O6A_2 Ag1A 1_555 1_555
O7A Ag1A 1_555 1_555
H1A O7A 1_555 1_555
H2A O7A 1_555 1_555
N1A Ag1A 1_555 1_555
N2A N3A 1_555 1_555
N3A C7A 1_555 1_555
N4A H3A 1_555 1_555
N5A Ag1A 1_555 1_555
N6A N7A 1_555 1_555
N7A C19A 1_555 1_555
N8A C22A 1_555 1_555
C1A H4A 1_555 1_555
C2A N1A 1_555 1_555
H5A C2A 1_555 1_555
C3A N1A 1_555 1_555
H6A C3A 1_555 1_555
C4A C3A 1_555 1_555
H7A C4A 1_555 1_555
C5A C1A 1_555 1_555
C6A N2A 1_555 1_555
C7A O1A 1_555 1_555
C8A C7A 1_555 1_555
C9A C8A 1_555 1_555
H8A C9A 1_555 1_555
C10A N4A 1_555 1_555
H9A C10A 1_555 1_555
C11A N4A 1_555 1_555
H10A C11A 1_555 1_555
C12A C8A 1_555 1_555
H11A C12A 1_555 1_555
C13A H12A 1_555 1_555
C14A N5A 1_555 1_555
H13A C14A 1_555 1_555
C15A N5A 1_555 1_555
H14A C15A 1_555 1_555
C16A C15A 1_555 1_555
H15A C16A 1_555 1_555
C17A C13A 1_555 1_555
C18A N6A 1_555 1_555
C19A O2A 1_555 1_555
C20A C19A 1_555 1_555
C21A C20A 1_555 1_555
H16A C21A 1_555 1_555
C22A C21A 1_555 1_555
H17A C22A 1_555 1_555
C23A N8A 1_555 1_555
H18A C23A 1_555 1_555
C24A C20A 1_555 1_555
H19A C24A 1_555 1_555
C25A O4A 1_555 1_555
C26A C27 1_555 1_555
C27A C26 1_555 1_555
C28A C26A 1_555 1_555
C29A O6A 1_555 1_555
C30A C32 1_555 1_555
C31A C30A 1_555 1_555
C32A C30 1_555 1_555
O6 C29 1_555 1_555
C1 C2 1_555 1_555
C4 C5 1_555 1_555
C5 C6 1_555 1_555
C9 C10 1_555 1_555
C11 C12 1_555 1_555
C13 C14 1_555 1_555
C16 C17 1_555 1_555
C17 C18 1_555 1_555
C23 C24 1_555 1_555
C1A C2A 1_555 1_555
C4A C5A 1_555 1_555
C5A C6A 1_555 1_555
C9A C10A 1_555 1_555
C11A C12A 1_555 1_555
C13A C14A 1_555 1_555
C16A C17A 1_555 1_555
C17A C18A 1_555 1_555
C23A C24A 1_555 1_555
C25A C26A 1_555 1_555
C27A C28A 1_555 1_555
C29A C30A 1_555 1_555
C31A C32A 1_555 1_555

#END
