
#######################################################################
#
#                 Cambridge Crystallographic Data Centre
#                                CCDC 
#
#######################################################################
#
# If this CIF has been generated from an entry in the Cambridge 
# Structural Database, then it will include bibliographic, chemical, 
# crystal, experimental, refinement or atomic coordinate data resulting 
# from the CCDC's data processing and validation procedures.
#
#######################################################################

data_LADFIH
_symmetry_cell_setting           triclinic
_symmetry_space_group_name_H-M   'P -1'
_symmetry_Int_Tables_number      2
_space_group_name_Hall           '-P 1'
loop_
_symmetry_equiv_pos_site_id
_symmetry_equiv_pos_as_xyz
1 x,y,z
2 -x,-y,-z
_cell_length_a                   10.8691(8)
_cell_length_b                   12.3897(9)
_cell_length_c                   15.1065(10)
_cell_angle_alpha                78.9610(10)
_cell_angle_beta                 71.0450(10)
_cell_angle_gamma                64.9900(10)
_cell_volume                     1740.11
loop_
_atom_site_label
_atom_site_type_symbol
_atom_site_fract_x
_atom_site_fract_y
_atom_site_fract_z
Cd1 Cd 0.44560(3) 0.82029(3) 0.67795(2)
Br1 Br 0.29320(5) 0.78180(4) 1.02742(3)
Br2 Br 0.32309(5) 0.59047(4) 1.21083(3)
Br3 Br -0.00575(5) 1.11030(4) 0.68178(3)
Br4 Br -0.29712(5) 1.19497(4) 0.61785(3)
O1 O -0.0315(3) 1.3826(3) 0.9010(2)
O2 O 0.8953(3) 0.3334(2) 0.3521(2)
O3 O 0.3699(3) 0.6962(3) 0.8068(2)
O4 O 0.5628(3) 0.7164(3) 0.8028(2)
O5 O 0.2578(3) 0.8330(3) 0.6302(2)
O6 O 0.3477(3) 0.9541(3) 0.5303(2)
O7 O 0.6221(3) 0.8898(3) 0.6149(2)
H1 H 0.7045 0.8565 0.6238
H2 H 0.6117 0.9423 0.5705
N1 N 0.3241(4) 1.0099(3) 0.7364(3)
N2 N 0.0226(4) 1.4567(3) 0.7561(3)
N3 N -0.0760(5) 1.5510(4) 0.8126(3)
N4 N -0.3626(5) 1.6762(5) 1.1476(4)
N5 N 0.5984(4) 0.6576(3) 0.5867(2)
N6 N 1.0287(4) 0.3021(3) 0.4452(3)
N7 N 1.1029(4) 0.2213(3) 0.3749(3)
N8 N 1.1325(5) 0.0548(4) 0.0825(3)
C1 C 0.1400(5) 1.1425(4) 0.8484(3)
H3 H 0.0774 1.1529 0.9081
C2 C 0.2312(5) 1.0302(4) 0.8206(3)
H4 H 0.2281 0.9652 0.8626
C3 C 0.3287(5) 1.1045(4) 0.6783(3)
H5 H 0.3950 1.0919 0.6200
C4 C 0.2400(5) 1.2201(4) 0.7003(4)
H6 H 0.2459 1.2838 0.6576
C5 C 0.1423(5) 1.2394(4) 0.7869(3)
C6 C 0.0464(5) 1.3605(4) 0.8107(3)
C7 C -0.1038(5) 1.5034(4) 0.8963(4)
C8 C -0.1957(5) 1.5611(4) 0.9834(4)
C9 C -0.2066(6) 1.4980(5) 1.0677(4)
H7 H -0.1576 1.4157 1.0718
C10 C -0.2924(7) 1.5594(6) 1.1474(4)
H8 H -0.3013 1.5153 1.2046
C11 C -0.3496(7) 1.7341(6) 1.0650(6)
H9 H -0.3977 1.8166 1.0629
C12 C -0.2705(6) 1.6825(5) 0.9814(4)
H10 H -0.2675 1.7284 0.9249
C13 C 0.6672(4) 0.5298(4) 0.4638(3)
H11 H 0.6449 0.5099 0.4164
C14 C 0.5718(5) 0.6239(4) 0.5186(3)
H12 H 0.4840 0.6662 0.5073
C15 C 0.7237(4) 0.5953(4) 0.6028(3)
H13 H 0.7440 0.6181 0.6499
C16 C 0.8250(4) 0.4990(4) 0.5533(3)
H14 H 0.9108 0.4569 0.5676
C17 C 0.7972(4) 0.4661(3) 0.4820(3)
C18 C 0.9078(4) 0.3661(4) 0.4286(3)
C19 C 1.0220(4) 0.2423(4) 0.3223(3)
C20 C 1.0564(4) 0.1810(4) 0.2390(3)
C21 C 1.1927(5) 0.0958(4) 0.2076(4)
H15 H 1.2607 0.0795 0.2384
C22 C 1.2236(6) 0.0366(5) 0.1301(4)
H16 H 1.3146 -0.0202 0.1096
C23 C 1.0041(6) 0.1378(5) 0.1129(3)
H17 H 0.9390 0.1539 0.0797
C24 C 0.9609(5) 0.2017(4) 0.1905(3)
H18 H 0.8689 0.2576 0.2094
C25 C 0.4731(5) 0.6722(4) 0.8370(3)
C26 C 0.4878(4) 0.5824(3) 0.9212(3)
C27 C 0.4247(4) 0.5379(3) 1.0889(3)
C28 C 0.4124(4) 0.6183(3) 1.0116(3)
C29 C 0.2546(4) 0.9127(4) 0.5655(3)
C30 C 0.1233(4) 0.9609(3) 0.5296(3)
C31 C -0.0033(4) 1.0458(4) 0.5781(3)
C32 C -0.1248(4) 1.0834(3) 0.5486(3)
Cd1A Cd 0.55440(3) 0.17971(3) 1.32205(2)
Cd1A_2 Cd -0.44560(3) 1.17971(3) 0.32205(2)
Br1A Br 0.70680(5) 0.21820(4) 0.97258(3)
Br2A Br 0.67691(5) 0.40953(4) 0.78917(3)
Br3A Br 0.00575(5) 0.88970(4) 0.31822(3)
Br4A Br 0.29712(5) 0.80503(4) 0.38215(3)
O1A O 1.0315(3) -0.3826(3) 1.0990(2)
O2A O 0.1047(3) 0.6666(2) 1.6479(2)
O3A O 0.6301(3) 0.3038(3) 1.1932(2)
O4A O 0.4372(3) 0.2836(3) 1.1972(2)
O5A O -0.2578(3) 1.1670(3) 0.3698(2)
O5A_2 O 0.7422(3) 0.1670(3) 1.3698(2)
O6A O -0.3477(3) 1.0459(3) 0.4697(2)
O6A_2 O 0.6523(3) 0.0459(3) 1.4697(2)
O7A O 0.3779(3) 0.1102(3) 1.3851(2)
H1A H 0.2955 0.1435 1.3762
H2A H 0.3883 0.0577 1.4295
N1A N 0.6759(4) -0.0099(3) 1.2636(3)
N2A N 0.9774(4) -0.4567(3) 1.2439(3)
N3A N 1.0760(5) -0.5510(4) 1.1874(3)
N4A N 1.3626(5) -0.6762(5) 0.8524(4)
N5A N 0.4016(4) 0.3424(3) 1.4133(2)
N6A N -0.0287(4) 0.6979(3) 1.5548(3)
N7A N -0.1029(4) 0.7787(3) 1.6251(3)
N8A N -0.1325(5) 0.9452(4) 1.9175(3)
C1A C 0.8600(5) -0.1425(4) 1.1516(3)
H3A H 0.9226 -0.1529 1.0919
C2A C 0.7688(5) -0.0302(4) 1.1794(3)
H4A H 0.7719 0.0348 1.1374
C3A C 0.6713(5) -0.1045(4) 1.3217(3)
H5A H 0.6050 -0.0919 1.3800
C4A C 0.7600(5) -0.2201(4) 1.2997(4)
H6A H 0.7541 -0.2838 1.3424
C5A C 0.8577(5) -0.2394(4) 1.2131(3)
C6A C 0.9536(5) -0.3605(4) 1.1893(3)
C7A C 1.1038(5) -0.5034(4) 1.1037(4)
C8A C 1.1957(5) -0.5611(4) 1.0166(4)
C9A C 1.2066(6) -0.4980(5) 0.9323(4)
H7A H 1.1576 -0.4157 0.9282
C10A C 1.2924(7) -0.5594(6) 0.8526(4)
H8A H 1.3013 -0.5153 0.7954
C11A C 1.3496(7) -0.7341(6) 0.9350(6)
H9A H 1.3977 -0.8166 0.9371
C12A C 1.2705(6) -0.6825(5) 1.0186(4)
H10A H 1.2675 -0.7284 1.0751
C13A C 0.3328(4) 0.4702(4) 1.5362(3)
H11A H 0.3551 0.4901 1.5836
C14A C 0.4282(5) 0.3761(4) 1.4814(3)
H12A H 0.5160 0.3338 1.4927
C15A C 0.2763(4) 0.4047(4) 1.3972(3)
H13A H 0.2560 0.3819 1.3501
C16A C 0.1750(4) 0.5010(4) 1.4467(3)
H14A H 0.0892 0.5431 1.4324
C17A C 0.2028(4) 0.5339(3) 1.5180(3)
C18A C 0.0922(4) 0.6339(4) 1.5714(3)
C19A C -0.0220(4) 0.7577(4) 1.6777(3)
C20A C -0.0564(4) 0.8190(4) 1.7610(3)
C21A C -0.1927(5) 0.9042(4) 1.7924(4)
H15A H -0.2607 0.9205 1.7616
C22A C -0.2236(6) 0.9634(5) 1.8699(4)
H16A H -0.3146 1.0202 1.8904
C23A C -0.0041(6) 0.8622(5) 1.8871(3)
H17A H 0.0610 0.8461 1.9203
C24A C 0.0391(5) 0.7983(4) 1.8095(3)
H18A H 0.1311 0.7424 1.7906
C25A C 0.5269(5) 0.3278(4) 1.1630(3)
C26A C 0.5122(4) 0.4176(3) 1.0788(3)
C27A C 0.5753(4) 0.4621(3) 0.9111(3)
C28A C 0.5876(4) 0.3817(3) 0.9884(3)
C29A C -0.2546(4) 1.0873(4) 0.4345(3)
C30A C -0.1233(4) 1.0391(3) 0.4704(3)
C31A C 0.0033(4) 0.9542(4) 0.4219(3)
C32A C 0.1248(4) 0.9166(3) 0.4514(3)
loop_
_geom_bond_atom_site_label_1
_geom_bond_atom_site_label_2
_geom_bond_site_symmetry_1
_geom_bond_site_symmetry_2
Cd1 O3 1_555 1_555
Br1 C28 1_555 1_555
Br2 C27 1_555 1_555
Br3 C31 1_555 1_555
Br4 C32 1_555 1_555
O1 C6 1_555 1_555
O2 C18 1_555 1_555
O3 C25 1_555 1_555
O4 Cd1 1_555 1_555
O5 Cd1 1_555 1_555
O6 Cd1 1_555 1_555
O7 Cd1 1_555 1_555
H1 O7 1_555 1_555
H2 O7 1_555 1_555
N1 Cd1 1_555 1_555
N2 N3 1_555 1_555
N3 C7 1_555 1_555
N4 C10 1_555 1_555
N5 Cd1 1_555 1_555
N6 N7 1_555 1_555
N7 C19 1_555 1_555
N8 C22 1_555 1_555
C1 H3 1_555 1_555
C2 N1 1_555 1_555
H4 C2 1_555 1_555
C3 N1 1_555 1_555
H5 C3 1_555 1_555
C4 C3 1_555 1_555
H6 C4 1_555 1_555
C5 C1 1_555 1_555
C6 N2 1_555 1_555
C7 O1 1_555 1_555
C8 C7 1_555 1_555
C9 C8 1_555 1_555
H7 C9 1_555 1_555
C10 C9 1_555 1_555
H8 C10 1_555 1_555
C11 N4 1_555 1_555
H9 C11 1_555 1_555
C12 C8 1_555 1_555
H10 C12 1_555 1_555
C13 H11 1_555 1_555
C14 N5 1_555 1_555
H12 C14 1_555 1_555
C15 N5 1_555 1_555
H13 C15 1_555 1_555
C16 C15 1_555 1_555
H14 C16 1_555 1_555
C17 C13 1_555 1_555
C18 N6 1_555 1_555
C19 O2 1_555 1_555
C20 C19 1_555 1_555
C21 C20 1_555 1_555
H15 C21 1_555 1_555
C22 C21 1_555 1_555
H16 C22 1_555 1_555
C23 N8 1_555 1_555
H17 C23 1_555 1_555
C24 C20 1_555 1_555
H18 C24 1_555 1_555
C25 O4 1_555 1_555
C26 C25 1_555 1_555
C27 C28 1_555 1_555
C28 C26 1_555 1_555
C29 O5 1_555 1_555
C30 C29 1_555 1_555
C31 C30 1_555 1_555
C32 C31 1_555 1_555
Cd1A O3A 1_555 1_555
Cd1A_2 O5A 1_555 1_555
Br1A C28A 1_555 1_555
Br2A C27A 1_555 1_555
Br3A C31A 1_555 1_555
Br4A C32A 1_555 1_555
O1A C6A 1_555 1_555
O2A C18A 1_555 1_555
O3A C25A 1_555 1_555
O4A Cd1A 1_555 1_555
O5A C29A 1_555 1_555
O5A_2 Cd1A 1_555 1_555
O6A Cd1A_2 1_555 1_555
O6A_2 Cd1A 1_555 1_555
O7A Cd1A 1_555 1_555
H1A O7A 1_555 1_555
H2A O7A 1_555 1_555
N1A Cd1A 1_555 1_555
N2A N3A 1_555 1_555
N3A C7A 1_555 1_555
N4A C10A 1_555 1_555
N5A Cd1A 1_555 1_555
N6A N7A 1_555 1_555
N7A C19A 1_555 1_555
N8A C22A 1_555 1_555
C1A H3A 1_555 1_555
C2A N1A 1_555 1_555
H4A C2A 1_555 1_555
C3A N1A 1_555 1_555
H5A C3A 1_555 1_555
C4A C3A 1_555 1_555
H6A C4A 1_555 1_555
C5A C1A 1_555 1_555
C6A N2A 1_555 1_555
C7A O1A 1_555 1_555
C8A C7A 1_555 1_555
C9A C8A 1_555 1_555
H7A C9A 1_555 1_555
C10A C9A 1_555 1_555
H8A C10A 1_555 1_555
C11A N4A 1_555 1_555
H9A C11A 1_555 1_555
C12A C8A 1_555 1_555
H10A C12A 1_555 1_555
C13A H11A 1_555 1_555
C14A N5A 1_555 1_555
H12A C14A 1_555 1_555
C15A N5A 1_555 1_555
H13A C15A 1_555 1_555
C16A C15A 1_555 1_555
H14A C16A 1_555 1_555
C17A C13A 1_555 1_555
C18A N6A 1_555 1_555
C19A O2A 1_555 1_555
C20A C19A 1_555 1_555
C21A C20A 1_555 1_555
H15A C21A 1_555 1_555
C22A C21A 1_555 1_555
H16A C22A 1_555 1_555
C23A N8A 1_555 1_555
H17A C23A 1_555 1_555
C24A C20A 1_555 1_555
H18A C24A 1_555 1_555
C25A O4A 1_555 1_555
C26A C27 1_555 1_555
C27A C26 1_555 1_555
C28A C26A 1_555 1_555
C29A O6A 1_555 1_555
C30A C32 1_555 1_555
C31A C30A 1_555 1_555
C32A C30 1_555 1_555
O6 C29 1_555 1_555
C1 C2 1_555 1_555
C4 C5 1_555 1_555
C5 C6 1_555 1_555
C11 C12 1_555 1_555
C13 C14 1_555 1_555
C16 C17 1_555 1_555
C17 C18 1_555 1_555
C23 C24 1_555 1_555
C1A C2A 1_555 1_555
C4A C5A 1_555 1_555
C5A C6A 1_555 1_555
C11A C12A 1_555 1_555
C13A C14A 1_555 1_555
C16A C17A 1_555 1_555
C17A C18A 1_555 1_555
C23A C24A 1_555 1_555
C25A C26A 1_555 1_555
C27A C28A 1_555 1_555
C29A C30A 1_555 1_555
C31A C32A 1_555 1_555

#END
