
#######################################################################
#
#                 Cambridge Crystallographic Data Centre
#                                CCDC 
#
#######################################################################
#
# If this CIF has been generated from an entry in the Cambridge 
# Structural Database, then it will include bibliographic, chemical, 
# crystal, experimental, refinement or atomic coordinate data resulting 
# from the CCDC's data processing and validation procedures.
#
#######################################################################

data_LADGOO
_symmetry_cell_setting           monoclinic
_symmetry_space_group_name_H-M   'P 21/c'
_symmetry_Int_Tables_number      14
_space_group_name_Hall           '-P 2ybc'
loop_
_symmetry_equiv_pos_site_id
_symmetry_equiv_pos_as_xyz
1 x,y,z
2 -x,1/2+y,1/2-z
3 -x,-y,-z
4 x,1/2-y,1/2+z
_cell_length_a                   8.5537(9)
_cell_length_b                   10.7371(11)
_cell_length_c                   18.0139(18)
_cell_angle_alpha                90
_cell_angle_beta                 100.193(2)
_cell_angle_gamma                90
_cell_volume                     1628.32
loop_
_atom_site_label
_atom_site_type_symbol
_atom_site_fract_x
_atom_site_fract_y
_atom_site_fract_z
O1 O 0.0970(3) 0.6721(3) 0.42067(17)
C1 C -0.5039(5) 1.2671(5) 0.4348(3)
O2 O -0.5625(4) 1.3471(3) 0.47375(19)
C2 C -0.4101(5) 1.1670(4) 0.4811(3)
H1 H -0.3103 1.2013 0.5069
H2 H -0.4687 1.1366 0.5188
O3 O -0.0846(3) 0.7219(3) 0.32408(17)
C3 C -0.0286(5) 0.7297(4) 0.3936(2)
C4 C -0.2197(5) 0.8960(4) 0.4173(3)
H3 H -0.2623 0.8975 0.3661
O4 O -0.3791(4) 1.0668(3) 0.43364(19)
Dy1 Dy 0.15091(2) 0.901809(18) 0.800418(11)
C5 C -0.0978(5) 0.8874(4) 0.5704(3)
O5 O -0.0360(4) 0.9831(3) 0.69223(18)
O6 O 0.2377(4) 1.1091(3) 0.77898(19)
H4 H 0.2968 1.1358 0.8188
H5 H 0.1572 1.1563 0.7679
O7 O 0.3800(4) 0.9440(3) 0.89312(18)
H6 H 0.3601 0.9271 0.9366
H7 H 0.4039 1.0206 0.8912
O8 O 0.2420(4) 0.6883(3) 0.81718(18)
H8 H 0.1623 0.6399 0.8124
H9 H 0.2978 0.6708 0.7839
C6 C -0.0236(5) 0.8887(4) 0.6522(2)
C7 C -0.1027(5) 0.8095(4) 0.4459(2)
C8 C -0.0432(5) 0.8055(4) 0.5222(2)
H10 H 0.0338 0.7471 0.5412
O9 O 0.3728(4) 0.8811(3) 0.7363(2)
H11 H 0.3652 0.8129 0.7120
H12 H 0.3729 0.9415 0.7058
O10 O -0.0076(4) 1.0468(3) 0.8553(2)
H13 H -0.0122 1.1152 0.8313
H14 H -0.1008 1.0174 0.8526
C9 C -0.2104(5) 0.9761(4) 0.5425(3)
H15 H -0.2467 1.0318 0.5751
C10 C -0.2705(5) 0.9798(4) 0.4660(3)
O13 O -0.5179(4) 1.2663(3) 0.36497(19)
O14 O 0.0553(3) 0.7958(3) 0.68071(17)
O1C O 0.0970(3) 0.8279(3) 0.92067(17)
O3C O -0.0846(3) 0.7781(3) 0.82408(17)
Dy1C Dy 0.15091(2) 0.598191(18) 0.300418(11)
O11 O 0.2041(4) -0.0063(4) 0.0428(2)
H16 H 0.2503 0.0552 0.0263
H17 H 0.1445 -0.0422 0.0063
O12 O 0.3744(5) 0.9564(5) 0.2163(3)
H18 H 0.3518 0.9585 0.1684
H19 H 0.3829 1.0303 0.2335
loop_
_geom_bond_atom_site_label_1
_geom_bond_atom_site_label_2
_geom_bond_site_symmetry_1
_geom_bond_site_symmetry_2
O1 C3 1_555 1_555
C1 O2 1_555 1_555
C2 C1 1_555 1_555
H1 C2 1_555 1_555
H2 C2 1_555 1_555
O3 C3 1_555 1_555
C3 C7 1_555 1_555
C4 H3 1_555 1_555
O4 C2 1_555 1_555
Dy1 O5 1_555 1_555
C5 C6 1_555 1_555
O5 C6 1_555 1_555
O6 Dy1 1_555 1_555
H4 O6 1_555 1_555
H5 O6 1_555 1_555
O7 Dy1 1_555 1_555
H6 O7 1_555 1_555
H7 O7 1_555 1_555
O8 Dy1 1_555 1_555
H8 O8 1_555 1_555
H9 O8 1_555 1_555
C6 O14 1_555 1_555
C7 C4 1_555 1_555
C8 C5 1_555 1_555
H10 C8 1_555 1_555
O9 Dy1 1_555 1_555
H11 O9 1_555 1_555
H12 O9 1_555 1_555
O10 Dy1 1_555 1_555
H13 O10 1_555 1_555
H14 O10 1_555 1_555
C9 C5 1_555 1_555
H15 C9 1_555 1_555
C10 C4 1_555 1_555
O11 H16 1_555 1_555
H17 O11 1_555 1_555
O12 H18 1_555 1_555
H19 O12 1_555 1_555
O13 C1 1_555 1_555
O14 Dy1 1_555 1_555
O1C Dy1 1_555 1_555
O3C Dy1 1_555 1_555
Dy1C O1 1_555 1_555
O3 Dy1C 1_555 1_555
O4 C10 1_555 1_555
C7 C8 1_555 1_555
C9 C10 1_555 1_555

#END
