
#######################################################################
#
#                 Cambridge Crystallographic Data Centre
#                                CCDC 
#
#######################################################################
#
# If this CIF has been generated from an entry in the Cambridge 
# Structural Database, then it will include bibliographic, chemical, 
# crystal, experimental, refinement or atomic coordinate data resulting 
# from the CCDC's data processing and validation procedures.
#
#######################################################################

data_LADGII
_symmetry_cell_setting           monoclinic
_symmetry_space_group_name_H-M   'P 21/c'
_symmetry_Int_Tables_number      14
_space_group_name_Hall           '-P 2ybc'
loop_
_symmetry_equiv_pos_site_id
_symmetry_equiv_pos_as_xyz
1 x,y,z
2 -x,1/2+y,1/2-z
3 -x,-y,-z
4 x,1/2-y,1/2+z
_cell_length_a                   8.5764(8)
_cell_length_b                   10.7704(11)
_cell_length_c                   18.0954(17)
_cell_angle_alpha                90
_cell_angle_beta                 100.167(2)
_cell_angle_gamma                90
_cell_volume                     1645.25
loop_
_atom_site_label
_atom_site_type_symbol
_atom_site_fract_x
_atom_site_fract_y
_atom_site_fract_z
O1 O 0.8731(6) 0.4568(7) 0.2144(3)
H1 H 0.9639 0.4231 0.2250
H2 H 0.8686 0.5010 0.1751
O2 O -0.0616(5) -0.3460(4) 0.9734(2)
O3 O -0.0180(5) -0.2650(4) 0.8655(2)
C1 C 0.4565(6) 0.1941(5) 1.0215(3)
H3 H 0.5335 0.2523 1.0401
O4 O 0.4628(5) 0.0174(3) 1.19122(19)
O5 O 0.5545(4) 0.2034(3) 1.17888(18)
C2 C 0.4749(6) 0.1112(4) 1.1509(3)
C3 C 0.4018(6) 0.1119(4) 1.0695(3)
C4 C 0.2889(6) 0.0234(5) 1.0424(3)
H4 H 0.2531 -0.0319 1.0751
C5 C 0.0903(6) -0.1674(5) 0.9807(3)
H5 H 0.0338 -0.1370 1.0191
H6 H 0.1899 -0.2027 1.0056
Eu1 Eu 0.65161(3) 0.40150(2) 0.800120(12)
O6 O 0.5955(4) 0.3260(3) 0.92046(17)
O7 O 0.7417(4) 0.1857(4) 0.81629(19)
H7 H 0.8165 0.1740 0.7919
H8 H 0.6651 0.1373 0.7997
O8 O 0.7386(5) 0.6117(3) 0.7794(2)
H9 H 0.6579 0.6581 0.7673
H10 H 0.7950 0.6387 0.8196
O9 O 0.4143(4) 0.2763(3) 0.82469(18)
O10 O 0.8827(4) 0.4465(4) 0.89440(19)
H11 H 0.8550 0.4894 0.9294
H12 H 0.9239 0.3788 0.9124
C6 C 0.2808(6) 0.1033(4) 0.9174(3)
H13 H 0.2383 0.1023 0.8664
O11 O 0.8753(5) 0.3822(4) 0.7354(2)
H14 H 0.9585 0.3670 0.7672
H15 H 0.8583 0.3230 0.7039
C7 C 0.4711(6) 0.2698(4) 0.8938(3)
O12 O 0.1214(5) -0.0671(4) 0.93384(19)
O13 O 0.4897(5) 0.5486(4) 0.8552(2)
H16 H 0.5054 0.6215 0.8400
H17 H 0.3925 0.5298 0.8419
C8 C 0.3965(6) 0.1886(4) 0.9455(2)
C9 C -0.0047(7) -0.2654(5) 0.9353(3)
C10 C 0.2289(6) 0.0189(5) 0.9657(3)
O4C O 0.4628(5) 0.4826(3) 0.69122(19)
O5C O 0.5545(4) 0.2966(3) 0.67888(18)
Eu1C Eu 0.65161(3) 0.09850(2) 1.300120(12)
O14 O 0.2959(5) 0.9943(5) 0.4581(2)
H18 H 0.3293 0.9385 0.4902
H19 H 0.2595 1.0549 0.4799
loop_
_geom_bond_atom_site_label_1
_geom_bond_atom_site_label_2
_geom_bond_site_symmetry_1
_geom_bond_site_symmetry_2
O1 H1 1_555 1_555
H2 O1 1_555 1_555
O2 C9 1_555 1_555
O3 C9 1_555 1_555
C1 H3 1_555 1_555
O4 C2 1_555 1_555
O5 C2 1_555 1_555
C2 C3 1_555 1_555
C3 C1 1_555 1_555
C4 C3 1_555 1_555
H4 C4 1_555 1_555
C5 H5 1_555 1_555
H6 C5 1_555 1_555
Eu1 O6 1_555 1_555
O6 C7 1_555 1_555
O7 Eu1 1_555 1_555
H7 O7 1_555 1_555
H8 O7 1_555 1_555
O8 Eu1 1_555 1_555
H9 O8 1_555 1_555
H10 O8 1_555 1_555
O9 Eu1 1_555 1_555
O10 Eu1 1_555 1_555
H11 O10 1_555 1_555
H12 O10 1_555 1_555
C6 H13 1_555 1_555
O11 Eu1 1_555 1_555
H14 O11 1_555 1_555
H15 O11 1_555 1_555
C7 O9 1_555 1_555
O12 C5 1_555 1_555
O13 Eu1 1_555 1_555
H16 O13 1_555 1_555
H17 O13 1_555 1_555
C8 C1 1_555 1_555
C9 C5 1_555 1_555
C10 C4 1_555 1_555
O14 H18 1_555 1_555
H19 O14 1_555 1_555
O4C Eu1 1_555 1_555
O5C Eu1 1_555 1_555
Eu1C O4 1_555 1_555
O5 Eu1C 1_555 1_555
C6 C8 1_555 1_555
C6 C10 1_555 1_555
C7 C8 1_555 1_555
O12 C10 1_555 1_555

#END
