
#######################################################################
#
#                 Cambridge Crystallographic Data Centre
#                                CCDC 
#
#######################################################################
#
# If this CIF has been generated from an entry in the Cambridge 
# Structural Database, then it will include bibliographic, chemical, 
# crystal, experimental, refinement or atomic coordinate data resulting 
# from the CCDC's data processing and validation procedures.
#
#######################################################################

data_LADHAB
_symmetry_cell_setting           triclinic
_symmetry_space_group_name_H-M   'P -1'
_symmetry_Int_Tables_number      2
_space_group_name_Hall           '-P 1'
loop_
_symmetry_equiv_pos_site_id
_symmetry_equiv_pos_as_xyz
1 x,y,z
2 -x,-y,-z
_cell_length_a                   8.318(2)
_cell_length_b                   10.011(2)
_cell_length_c                   10.856(3)
_cell_angle_alpha                62.661(4)
_cell_angle_beta                 72.166(5)
_cell_angle_gamma                75.526(5)
_cell_volume                     758.025
loop_
_atom_site_label
_atom_site_type_symbol
_atom_site_fract_x
_atom_site_fract_y
_atom_site_fract_z
C1 C 0.1362(9) 0.6751(8) 0.4421(8)
C2 C 0.1071(10) 0.8304(8) 0.3720(8)
H1 H 0.0590 0.8895 0.4231
C3 C 0.1511(9) 0.9001(8) 0.2206(8)
C4 C 0.2233(9) 0.8069(8) 0.1483(8)
H2 H 0.2563 0.8501 0.0496
C5 C 0.2462(11) 0.6511(9) 0.2221(9)
C6 C 0.2064(10) 0.5845(8) 0.3662(8)
H3 H 0.2254 0.4796 0.4144
C7 C 0.0997(10) 0.6017(9) 0.6031(8)
C8 C 0.1175(10) 1.0688(8) 0.1407(8)
C9 C 0.4283(9) 0.4407(8) 0.1811(8)
H4 H 0.4415 0.3842 0.1253
H5 H 0.3861 0.3759 0.2800
C10 C 0.6014(9) 0.4798(8) 0.1643(7)
C11 C 0.2667(10) 0.0624(9) 0.7521(9)
H6 H 0.1783 0.0251 0.8303
C12 C 0.3298(10) -0.0127(8) 0.6664(8)
H7 H 0.2828 -0.0970 0.6852
C13 C 0.4631(10) 0.0371(10) 0.5521(8)
C14 C 0.5268(10) 0.1628(9) 0.5310(8)
H8 H 0.6175 0.2005 0.4553
C15 C 0.4542(10) 0.2321(8) 0.6236(8)
H9 H 0.4998 0.3152 0.6094
Cu1 Cu 0.01236(10) 0.63577(9) 0.85802(9)
Cu2 Cu 0.18574(11) 0.30742(9) 0.84323(9)
N1 N 0.3235(7) 0.1856(7) 0.7311(7)
O1 O 0.0527(7) 1.1458(5) 0.2062(6)
O2 O 0.1681(7) 1.1139(6) 0.0066(6)
O3 O 0.7159(6) 0.3672(5) 0.1935(5)
O4 O 0.6209(6) 0.6148(5) 0.1209(5)
O5 O 0.1764(7) 0.4700(6) 0.6541(6)
O6 O 0.0019(7) 0.6733(6) 0.6695(5)
O7 O -0.0009(7) 0.4132(5) 0.9417(5)
H10 H -0.0955 0.4003 0.9366
O8 O 0.3062(7) 0.5711(6) 0.1372(6)
C1A C -0.1362(9) 0.3249(8) 1.5579(8)
C2A C -0.1071(10) 0.1696(8) 1.6280(8)
H1A H -0.0590 0.1105 1.5769
C3A C -0.1511(9) 0.0999(8) 1.7794(8)
C4A C -0.2233(9) 0.1931(8) 1.8517(8)
H2A H -0.2563 0.1499 1.9504
C5A C -0.2462(11) 0.3489(9) 1.7779(9)
C6A C -0.2064(10) 0.4155(8) 1.6338(8)
H3A H -0.2254 0.5204 1.5856
C7A C -0.0997(10) 0.3983(9) 1.3969(8)
C8A C -0.1175(10) -0.0688(8) 1.8593(8)
C9A C -0.4283(9) 0.5593(8) 1.8189(8)
H4A H -0.4415 0.6158 1.8747
H5A H -0.3861 0.6241 1.7200
C10A C -0.6014(9) 0.5202(8) 1.8357(7)
C11A C 0.7333(10) -0.0624(9) 0.2479(9)
H6A H 0.8217 -0.0251 0.1697
C12A C 0.6702(10) 0.0127(8) 0.3336(8)
H7A H 0.7172 0.0970 0.3148
C13A C 0.5369(10) -0.0371(10) 0.4479(8)
C14A C 0.4732(10) -0.1628(9) 0.4690(8)
H8A H 0.3825 -0.2005 0.5447
C15A C 0.5458(10) -0.2321(8) 0.3764(8)
H9A H 0.5002 -0.3152 0.3906
Cu1A Cu -0.01236(10) 0.36423(9) 1.14198(9)
Cu1_2 Cu -0.98764(10) 0.63577(9) 1.85802(9)
Cu1_3 Cu 0.01236(10) -0.36423(9) 1.85802(9)
Cu1A_2 Cu -0.01236(10) 1.36423(9) 0.14198(9)
Cu1A_3 Cu 0.98764(10) 0.36423(9) 0.14198(9)
Cu2A Cu -0.18574(11) 0.69258(9) 1.15677(9)
Cu2_2 Cu -0.81426(11) 0.30742(9) 1.84323(9)
Cu2_3 Cu 0.18574(11) 1.30742(9) -0.15677(9)
Cu2A_2 Cu -0.18574(11) -0.30742(9) 2.15677(9)
Cu2A_3 Cu 0.81426(11) -0.30742(9) 0.15677(9)
Cu2A_4 Cu 0.81426(11) 0.69258(9) 0.15677(9)
N1A N 0.6765(7) -0.1856(7) 0.2689(7)
N1A_2 N -0.3235(7) 0.8144(7) 1.2689(7)
O1A O -0.0527(7) -0.1458(5) 1.7938(6)
O1_2 O 0.0527(7) 0.1458(5) 1.2062(6)
O1A_2 O -0.0527(7) 0.8542(5) 0.7938(6)
O2A O -0.1681(7) -0.1139(6) 1.9934(6)
O2_2 O 0.1681(7) 0.1139(6) 1.0066(6)
O2A_2 O -0.1681(7) 0.8861(6) 0.9934(6)
O3A O -0.7159(6) 0.6328(5) 1.8065(5)
O3_2 O -0.2841(6) 0.3672(5) 1.1935(5)
O3A_2 O 0.2841(6) 0.6328(5) 0.8065(5)
O4A O -0.6209(6) 0.3852(5) 1.8791(5)
O4_2 O -0.3791(6) 0.6148(5) 1.1209(5)
O4A_2 O 0.3791(6) 0.3852(5) 0.8791(5)
O5A O -0.1764(7) 0.5300(6) 1.3459(6)
O6A O -0.0019(7) 0.3267(6) 1.3305(5)
O7A O 0.0009(7) 0.5868(5) 1.0583(5)
H10A H 0.0955 0.5997 1.0634
O8A O -0.3062(7) 0.4289(6) 1.8628(6)
loop_
_geom_bond_atom_site_label_1
_geom_bond_atom_site_label_2
_geom_bond_site_symmetry_1
_geom_bond_site_symmetry_2
C1 C2 1_555 1_555
C2 H1 1_555 1_555
C3 C2 1_555 1_555
C4 C3 1_555 1_555
H2 C4 1_555 1_555
C5 C4 1_555 1_555
C6 C1 1_555 1_555
H3 C6 1_555 1_555
C7 C1 1_555 1_555
C8 C3 1_555 1_555
C9 H4 1_555 1_555
H5 C9 1_555 1_555
C10 C9 1_555 1_555
C11 H6 1_555 1_555
C12 C11 1_555 1_555
H7 C12 1_555 1_555
C13 C12 1_555 1_555
C14 C13 1_555 1_555
H8 C14 1_555 1_555
C15 C14 1_555 1_555
H9 C15 1_555 1_555
Cu1 O6 1_555 1_555
Cu2 N1 1_555 1_555
N1 C11 1_555 1_555
O1 C8 1_555 1_555
O2 C8 1_555 1_555
O3 C10 1_555 1_555
O4 C10 1_555 1_555
O5 C7 1_555 1_555
O6 C7 1_555 1_555
O7 Cu1 1_555 1_555
H10 O7 1_555 1_555
O8 C5 1_555 1_555
C1A C2A 1_555 1_555
C2A H1A 1_555 1_555
C3A C2A 1_555 1_555
C4A C3A 1_555 1_555
H2A C4A 1_555 1_555
C5A C4A 1_555 1_555
C6A C1A 1_555 1_555
H3A C6A 1_555 1_555
C7A C1A 1_555 1_555
C8A C3A 1_555 1_555
C9A H4A 1_555 1_555
H5A C9A 1_555 1_555
C10A C9A 1_555 1_555
C11A H6A 1_555 1_555
C12A C11A 1_555 1_555
H7A C12A 1_555 1_555
C13A C13 1_555 1_555
C14A C13A 1_555 1_555
H8A C14A 1_555 1_555
C15A C14A 1_555 1_555
H9A C15A 1_555 1_555
Cu1A O7 1_555 1_555
Cu1_2 O3A 1_555 1_555
Cu1_3 O1A 1_555 1_555
Cu1A_2 O1 1_555 1_555
Cu1A_3 O3 1_555 1_555
Cu2A N1A_2 1_555 1_555
Cu2_2 O4A 1_555 1_555
Cu2_3 O2 1_555 1_555
Cu2A_2 O2A 1_555 1_555
Cu2A_3 N1A 1_555 1_555
Cu2A_4 O4 1_555 1_555
N1A C11A 1_555 1_555
O1A C8A 1_555 1_555
O1_2 Cu1A 1_555 1_555
O1A_2 Cu1 1_555 1_555
O2A C8A 1_555 1_555
O2_2 Cu2 1_555 1_555
O2A_2 Cu2A 1_555 1_555
O3A C10A 1_555 1_555
O3_2 Cu1A 1_555 1_555
O3A_2 Cu1 1_555 1_555
O4A C10A 1_555 1_555
O4_2 Cu2A 1_555 1_555
O4A_2 Cu2 1_555 1_555
O5A C7A 1_555 1_555
O6A C7A 1_555 1_555
O7A Cu1 1_555 1_555
H10A O7A 1_555 1_555
O8A C5A 1_555 1_555
C5 C6 1_555 1_555
C9 O8 1_555 1_555
C15 N1 1_555 1_555
Cu2 O5 1_555 1_555
Cu2 O7 1_555 1_555
C5A C6A 1_555 1_555
C9A O8A 1_555 1_555
C12A C13A 1_555 1_555
C15A N1A 1_555 1_555
Cu1A O6A 1_555 1_555
Cu1A O7A 1_555 1_555
Cu2A O5A 1_555 1_555
Cu2A O7A 1_555 1_555

#END
