
#######################################################################
#
#                 Cambridge Crystallographic Data Centre
#                                CCDC 
#
#######################################################################
#
# If this CIF has been generated from an entry in the Cambridge 
# Structural Database, then it will include bibliographic, chemical, 
# crystal, experimental, refinement or atomic coordinate data resulting 
# from the CCDC's data processing and validation procedures.
#
#######################################################################

data_LADQIQ
_symmetry_cell_setting           monoclinic
_symmetry_space_group_name_H-M   'P 21/c'
_symmetry_Int_Tables_number      14
_space_group_name_Hall           '-P 2ybc'
loop_
_symmetry_equiv_pos_site_id
_symmetry_equiv_pos_as_xyz
1 x,y,z
2 -x,1/2+y,1/2-z
3 -x,-y,-z
4 x,1/2-y,1/2+z
_cell_length_a                   14.609(4)
_cell_length_b                   21.164(5)
_cell_length_c                   16.482(5)
_cell_angle_alpha                90
_cell_angle_beta                 114.69(2)
_cell_angle_gamma                90
_cell_volume                     4630.12
loop_
_atom_site_label
_atom_site_type_symbol
_atom_site_fract_x
_atom_site_fract_y
_atom_site_fract_z
Zn1 Zn -0.2105(1) -0.2229(1) 0.1350(1)
O1 O -0.1844(3) -0.2123(2) 0.0181(2)
O2 O -0.2495(3) -0.2333(2) 0.2471(2)
N1 N -0.3691(3) -0.2308(2) 0.0517(3)
N2 N -1.0531(3) -0.2855(2) -0.2762(3)
N3 N -0.2267(3) -0.1205(2) 0.1404(3)
N4 N -0.1861(3) -0.3241(2) 0.1329(3)
N5 N -0.5932(3) 0.1958(2) 0.2477(3)
N6 N -0.0909(4) -0.3894(2) 0.4803(3)
C1 C -0.4015(3) -0.2625(3) -0.0258(3)
C2 C -0.5009(4) -0.2649(3) -0.0863(3)
C3 C -0.5730(4) -0.2326(3) -0.0686(4)
C4 C -0.5405(4) -0.2000(3) 0.0111(4)
C5 C -0.4392(3) -0.2002(3) 0.0686(3)
C6 C -1.0115(4) -0.2564(3) -0.1968(3)
C7 C -0.9111(4) -0.2579(3) -0.1434(4)
C8 C -0.8455(3) -0.2897(3) -0.1706(4)
C9 C -0.8878(4) -0.3191(3) -0.2528(4)
C10 C -0.9902(4) -0.3162(3) -0.3022(4)
C11 C -0.7316(4) -0.2909(3) -0.1125(4)
C12 C -0.6828(4) -0.2345(3) -0.1309(4)
C13 C -0.2919(4) -0.0876(2) 0.0697(3)
C14 C -0.3285(4) -0.0291(3) 0.0763(4)
C15 C -0.2982(4) -0.0008(2) 0.1595(4)
C16 C -0.2270(4) -0.0323(2) 0.2312(3)
C17 C -0.1933(3) -0.0912(2) 0.2198(3)
C18 C -0.3476(4) 0.0587(3) 0.1717(4)
C19 C -0.4086(5) 0.0441(3) 0.2243(4)
C20 C -0.4715(4) 0.0986(3) 0.2327(4)
C21 C -0.5755(4) 0.0955(3) 0.1901(4)
C22 C -0.6314(4) 0.1451(3) 0.1994(4)
C23 C -0.4930(4) 0.1984(3) 0.2873(4)
C24 C -0.4300(4) 0.1512(3) 0.2814(4)
C25 C -0.2430(4) -0.3649(2) 0.1548(3)
C26 C -0.2132(4) -0.4261(3) 0.1815(3)
C27 C -0.1225(4) -0.4485(2) 0.1858(3)
C28 C -0.0669(4) -0.4073(3) 0.1596(3)
C29 C -0.0991(4) -0.3459(2) 0.1351(3)
C30 C -0.0827(5) -0.5121(3) 0.2231(4)
C31 C 0.0037(4) -0.5058(3) 0.3170(4)
C32 C -0.0254(4) -0.4662(3) 0.3778(3)
C33 C 0.0236(4) -0.4105(3) 0.4148(4)
C34 C -0.0122(5) -0.3739(3) 0.4650(4)
C35 C -0.1342(4) -0.4444(3) 0.4478(4)
C36 C -0.1059(4) -0.4843(3) 0.3967(3)
H1 H -0.1705(11) -0.2410(10) -0.0056(11)
H2 H -0.1521(11) -0.1846(11) 0.0122(11)
H3 H -0.2173(11) -0.2221(10) 0.2953(11)
H4 H -0.2934(11) -0.2470(11) 0.2460(11)
H7 H -0.3527 -0.2846 -0.0399
H8 H -0.5202 -0.2889 -0.1404
H9 H -0.5879 -0.1773 0.0266
H10 H -0.4183 -0.1771 0.1236
H11 H -1.0548 -0.2334 -0.1767
H12 H -0.8854 -0.2368 -0.0867
H13 H -0.8460 -0.3414 -0.2753
H14 H -1.0182 -0.3376 -0.3587
H15 H -0.7727 -0.2891 -0.0798
H16 H -0.7472 -0.3285 -0.1483
H17 H -0.6896 -0.2364 -0.1914
H18 H -0.7151 -0.1970 -0.1229
H19 H -0.3139 -0.1063 0.0115
H20 H -0.3748 -0.0079 0.0237
H21 H -0.2008 -0.0133 0.2894
H22 H -0.1437 -0.1120 0.2710
H23 H -0.2968 0.0894 0.2035
H24 H -0.3912 0.0754 0.1143
H25 H -0.4532 0.0097 0.1954
H26 H -0.3629 0.0615 0.2834
H27 H -0.6082 0.0593 0.1547
H28 H -0.7034 0.1424 0.1683
H29 H -0.4623 0.2352 0.3221
H30 H -0.3582 0.1557 0.3112
H31 H -0.3069 -0.3507 0.1516
H32 H -0.2559 -0.4533 0.1972
H33 H -0.0050 -0.4214 0.1583
H34 H -0.0576 -0.3180 0.1190
H35 H -0.1360 -0.5367 0.2269
H36 H -0.0580 -0.5328 0.1845
H37 H 0.0606 -0.4866 0.3117
H38 H 0.0220 -0.5472 0.3425
H39 H 0.0816 -0.3973 0.4059
H40 H 0.0221 -0.3351 0.4900
H41 H -0.1895 -0.4572 0.4610
H42 H -0.1406 -0.5235 0.3748
N2C N -0.0531(3) -0.2145(2) 0.2238(3)
Zn1C Zn -1.2105(1) -0.2771(1) -0.3650(1)
Cl1 Cl -0.6680(2) -0.3917(1) 0.6507(2)
O3 O -0.5862(6) -0.3552(4) 0.6896(5)
O4 O -0.6925(5) -0.4207(5) 0.7150(5)
O5 O -0.6453(7) -0.4385(4) 0.6102(5)
O6 O -0.7452(6) -0.3639(5) 0.5855(6)
Cl2 Cl -0.8877(2) -0.3691(2) 0.0425(2)
O7 O -0.9419(4) -0.3141(4) 0.0362(4)
O8 O -0.8089(5) -0.3625(4) 0.0208(5)
O9 O -0.8576(5) -0.3979(5) 0.1223(5)
O10 O -0.9692(7) -0.4064(5) -0.0246(7)
N7 N -0.7259(4) -0.5867(3) 0.0951(3)
C37 C -0.7514(5) -0.5359(3) 0.0432(4)
C38 C -0.6837(5) -0.5001(3) 0.0250(4)
C39 C -0.5844(5) -0.5167(3) 0.0613(4)
C40 C -0.5555(5) -0.5676(3) 0.1191(5)
C41 C -0.6286(5) -0.5997(3) 0.1336(4)
C42 C -0.5094(5) -0.4829(4) 0.0367(5)
H43 H -0.8209 -0.5234 0.0168
H44 H -0.7062 -0.4636 -0.0129
H45 H -0.4861 -0.5800 0.1483
H46 H -0.6075 -0.6344 0.1749
H47 H -0.4371(11) -0.4855(10) 0.0932(11)
H48 H -0.5186(11) -0.4365(11) 0.0292(11)
C42B C -0.4906(5) -0.5171(4) -0.0367(5)
C39B C -0.4156(5) -0.4833(3) -0.0613(4)
C38B C -0.3163(5) -0.4999(3) -0.0250(4)
C37B C -0.2486(5) -0.4641(3) -0.0432(4)
N7B N -0.2741(4) -0.4133(3) -0.0951(3)
C41B C -0.3714(5) -0.4003(3) -0.1336(4)
C40B C -0.4445(5) -0.4324(3) -0.1191(5)
H45B H -0.5139 -0.4200 -0.1483
H46B H -0.3925 -0.3656 -0.1749
H43B H -0.1791 -0.4766 -0.0168
H44B H -0.2938 -0.5364 0.0129
H47B H -0.5629(11) -0.5145(10) -0.0932(11)
H48B H -0.4814(11) -0.5635(11) -0.0292(11)
O11 O -0.8467(3) -0.6891(2) 0.0821(2)
H5 H -0.8104(11) -0.6651(11) 0.0902(11)
H6 H -0.8972(11) -0.6847(11) 0.0660(11)
loop_
_geom_bond_atom_site_label_1
_geom_bond_atom_site_label_2
_geom_bond_site_symmetry_1
_geom_bond_site_symmetry_2
Zn1 O1 1_555 1_555
Cl1 O3 1_555 1_555
Cl2 O7 1_555 1_555
O1 H1 1_555 1_555
O2 Zn1 1_555 1_555
N1 Zn1 1_555 1_555
N2 C6 1_555 1_555
N3 Zn1 1_555 1_555
N4 Zn1 1_555 1_555
N5 C22 1_555 1_555
N6 C34 1_555 1_555
N7 C37 1_555 1_555
C1 N1 1_555 1_555
C2 C1 1_555 1_555
C3 C2 1_555 1_555
C4 C3 1_555 1_555
C5 N1 1_555 1_555
C6 C7 1_555 1_555
C7 C8 1_555 1_555
C8 C9 1_555 1_555
C9 C10 1_555 1_555
C10 N2 1_555 1_555
C11 C8 1_555 1_555
C12 C3 1_555 1_555
C13 N3 1_555 1_555
C14 C13 1_555 1_555
C15 C14 1_555 1_555
C16 C15 1_555 1_555
C17 N3 1_555 1_555
C18 C15 1_555 1_555
C19 C18 1_555 1_555
C20 C19 1_555 1_555
C21 C20 1_555 1_555
C22 C21 1_555 1_555
C23 N5 1_555 1_555
C24 C20 1_555 1_555
C25 N4 1_555 1_555
C26 C25 1_555 1_555
C27 C26 1_555 1_555
C28 C27 1_555 1_555
C29 N4 1_555 1_555
C30 C27 1_555 1_555
C31 C30 1_555 1_555
C32 C31 1_555 1_555
C33 C32 1_555 1_555
C34 C33 1_555 1_555
C35 N6 1_555 1_555
C36 C32 1_555 1_555
C37 C38 1_555 1_555
C38 C39 1_555 1_555
C39 C40 1_555 1_555
C40 C41 1_555 1_555
C41 N7 1_555 1_555
C42 C39 1_555 1_555
O4 Cl1 1_555 1_555
O5 Cl1 1_555 1_555
O6 Cl1 1_555 1_555
O8 Cl2 1_555 1_555
O9 Cl2 1_555 1_555
O10 Cl2 1_555 1_555
O11 H5 1_555 1_555
H2 O1 1_555 1_555
H3 O2 1_555 1_555
H4 O2 1_555 1_555
H6 O11 1_555 1_555
H7 C1 1_555 1_555
H8 C2 1_555 1_555
H9 C4 1_555 1_555
H10 C5 1_555 1_555
H11 C6 1_555 1_555
H12 C7 1_555 1_555
H13 C9 1_555 1_555
H14 C10 1_555 1_555
H15 C11 1_555 1_555
H16 C11 1_555 1_555
H17 C12 1_555 1_555
H18 C12 1_555 1_555
H19 C13 1_555 1_555
H20 C14 1_555 1_555
H21 C16 1_555 1_555
H22 C17 1_555 1_555
H23 C18 1_555 1_555
H24 C18 1_555 1_555
H25 C19 1_555 1_555
H26 C19 1_555 1_555
H27 C21 1_555 1_555
H28 C22 1_555 1_555
H29 C23 1_555 1_555
H30 C24 1_555 1_555
H31 C25 1_555 1_555
H32 C26 1_555 1_555
H33 C28 1_555 1_555
H34 C29 1_555 1_555
H35 C30 1_555 1_555
H36 C30 1_555 1_555
H37 C31 1_555 1_555
H38 C31 1_555 1_555
H39 C33 1_555 1_555
H40 C34 1_555 1_555
H41 C35 1_555 1_555
H42 C36 1_555 1_555
H43 C37 1_555 1_555
H44 C38 1_555 1_555
H45 C40 1_555 1_555
H46 C41 1_555 1_555
H47 C42 1_555 1_555
H48 C42 1_555 1_555
N2C Zn1 1_555 1_555
Zn1C N2 1_555 1_555
C42B C42 1_555 1_555
C39B C42B 1_555 1_555
C38B C39B 1_555 1_555
C37B C38B 1_555 1_555
N7B C37B 1_555 1_555
C41B N7B 1_555 1_555
C40B C39B 1_555 1_555
H45B C40B 1_555 1_555
H46B C41B 1_555 1_555
H43B C37B 1_555 1_555
H44B C38B 1_555 1_555
H47B C42B 1_555 1_555
H48B C42B 1_555 1_555
C4 C5 1_555 1_555
C11 C12 1_555 1_555
C16 C17 1_555 1_555
C23 C24 1_555 1_555
C28 C29 1_555 1_555
C35 C36 1_555 1_555
C41B C40B 1_555 1_555

#END
