
#######################################################################
#
#                 Cambridge Crystallographic Data Centre
#                                CCDC 
#
#######################################################################
#
# If this CIF has been generated from an entry in the Cambridge 
# Structural Database, then it will include bibliographic, chemical, 
# crystal, experimental, refinement or atomic coordinate data resulting 
# from the CCDC's data processing and validation procedures.
#
#######################################################################

data_LADQOW
_symmetry_cell_setting           monoclinic
_symmetry_space_group_name_H-M   'P 21/c'
_symmetry_Int_Tables_number      14
_space_group_name_Hall           '-P 2ybc'
loop_
_symmetry_equiv_pos_site_id
_symmetry_equiv_pos_as_xyz
1 x,y,z
2 -x,1/2+y,1/2-z
3 -x,-y,-z
4 x,1/2-y,1/2+z
_cell_length_a                   14.511(6)
_cell_length_b                   21.216(7)
_cell_length_c                   16.467(7)
_cell_angle_alpha                90
_cell_angle_beta                 114.76(3)
_cell_angle_gamma                90
_cell_volume                     4603.57
loop_
_atom_site_label
_atom_site_type_symbol
_atom_site_fract_x
_atom_site_fract_y
_atom_site_fract_z
Ni1 Ni -0.2107(1) -0.2218(1) 0.1379(1)
O1 O -0.1824(7) -0.2127(5) 0.0247(6)
O2 O -0.2499(6) -0.2318(4) 0.2470(6)
N1 N -0.3663(8) -0.2300(6) 0.0556(7)
N2 N -1.0557(7) -0.2875(5) -0.2745(7)
N3 N -0.2288(7) -0.1225(5) 0.1406(7)
N4 N -0.1845(8) -0.3203(5) 0.1362(7)
N5 N -0.5915(9) 0.1980(6) 0.2469(8)
N6 N -0.0912(10) -0.3895(6) 0.4830(7)
C1 C -0.3965(10) -0.2614(7) -0.0223(9)
C2 C -0.4970(11) -0.2652(7) -0.0819(9)
C3 C -0.5701(10) -0.2345(7) -0.0675(10)
C4 C -0.5387(10) -0.2004(7) 0.0122(10)
C5 C -0.4391(10) -0.1992(7) 0.0710(10)
C6 C -1.0131(11) -0.2553(7) -0.1965(9)
C7 C -0.9124(10) -0.2578(7) -0.1442(10)
C8 C -0.8447(11) -0.2918(7) -0.1687(10)
C9 C -0.8886(10) -0.3215(7) -0.2496(10)
C10 C -0.9924(10) -0.3198(7) -0.2994(9)
C11 C -0.7287(10) -0.2914(7) -0.1078(10)
C12 C -0.6831(10) -0.2367(7) -0.1312(10)
C13 C -0.2912(10) -0.0913(6) 0.0709(9)
C14 C -0.3257(10) -0.0315(7) 0.0771(9)
C15 C -0.2994(10) -0.0015(6) 0.1591(9)
C16 C -0.2260(10) -0.0334(6) 0.2331(9)
C17 C -0.1942(9) -0.0924(6) 0.2213(8)
C18 C -0.3476(12) 0.0576(7) 0.1703(10)
C19 C -0.4081(12) 0.0459(7) 0.2232(10)
C20 C -0.4714(11) 0.0988(7) 0.2330(10)
C21 C -0.5752(11) 0.0983(8) 0.1880(10)
C22 C -0.6341(11) 0.1484(8) 0.1956(10)
C23 C -0.4933(12) 0.1995(7) 0.2841(9)
C24 C -0.4298(12) 0.1508(8) 0.2817(10)
C25 C -0.2451(10) -0.3595(6) 0.1561(8)
C26 C -0.2175(10) -0.4220(7) 0.1808(8)
C27 C -0.1255(10) -0.4441(6) 0.1839(8)
C28 C -0.0672(11) -0.4024(6) 0.1606(8)
C29 C -0.0997(10) -0.3418(7) 0.1361(9)
C30 C -0.0860(12) -0.5084(7) 0.2201(9)
C31 C 0.0011(11) -0.5049(6) 0.3136(9)
C32 C -0.0244(11) -0.4647(7) 0.3785(10)
C33 C 0.0206(11) -0.4112(7) 0.4135(10)
C34 C -0.0141(13) -0.3745(8) 0.4647(10)
C35 C -0.1339(11) -0.4447(7) 0.4490(10)
C36 C -0.1080(11) -0.4832(7) 0.3969(9)
H1 H -0.2024(32) -0.2008(30) -0.0077(31)
H2 H -0.1447(31) -0.1792(29) 0.0286(31)
H3 H -0.2075(31) -0.2273(30) 0.2858(30)
H4 H -0.3037(31) -0.2531(29) 0.2455(31)
H7 H -0.3464 -0.2818 -0.0370
H8 H -0.5155 -0.2903 -0.1348
H9 H -0.5877 -0.1776 0.0257
H10 H -0.4197 -0.1757 0.1254
H11 H -1.0557 -0.2301 -0.1778
H12 H -0.8861 -0.2356 -0.0883
H13 H -0.8466 -0.3438 -0.2722
H14 H -1.0205 -0.3429 -0.3546
H15 H -0.7694 -0.2883 -0.0746
H16 H -0.7442 -0.3301 -0.1412
H17 H -0.6906 -0.2406 -0.1918
H18 H -0.7159 -0.1988 -0.1252
H19 H -0.3140 -0.1106 0.0130
H20 H -0.3691 -0.0100 0.0234
H21 H -0.1985 -0.0142 0.2912
H22 H -0.1448 -0.1135 0.2726
H23 H -0.2957 0.0881 0.2009
H24 H -0.3917 0.0735 0.1125
H25 H -0.4532 0.0114 0.1953
H26 H -0.3612 0.0337 0.2823
H27 H -0.6080 0.0630 0.1507
H28 H -0.7065 0.1467 0.1632
H29 H -0.4617 0.2372 0.3159
H30 H -0.3576 0.1544 0.3142
H31 H -0.3086 -0.3442 0.1532
H32 H -0.2611 -0.4493 0.1955
H33 H -0.0036 -0.4160 0.1617
H34 H -0.0592 -0.3142 0.1182
H35 H -0.1403 -0.5327 0.2232
H36 H -0.0621 -0.5287 0.1805
H37 H 0.0167 -0.5469 0.3372
H38 H 0.0594 -0.4872 0.3086
H39 H 0.0779 -0.3974 0.4035
H40 H 0.0208 -0.3357 0.4886
H41 H -0.1885 -0.4584 0.4631
H42 H -0.1444 -0.5216 0.3731
N2C N -0.0557(7) -0.2125(5) 0.2255(7)
Ni1C Ni -1.2107(1) -0.2782(1) -0.3621(1)
Cl1 Cl -0.6664(4) -0.3930(3) 0.6522(4)
O3 O -0.5846(13) -0.3550(9) 0.6926(10)
O4 O -0.6940(13) -0.4193(10) 0.7148(11)
O5 O -0.6414(15) -0.4385(10) 0.6150(13)
O6 O -0.7442(14) -0.3605(11) 0.5844(15)
Cl2 Cl -0.8905(5) -0.3710(5) 0.0401(6)
O7 O -0.9356(13) -0.3135(8) 0.0421(11)
O8 O -0.8090(12) -0.3663(9) 0.0188(11)
O9 O -0.8579(12) -0.4049(10) 0.1180(12)
O10 O -0.9728(16) -0.4087(12) -0.0282(15)
N7 N -0.7270(11) -0.5896(7) 0.0942(9)
C37 C -0.7571(14) -0.5396(10) 0.0428(12)
C38 C -0.6862(14) -0.5017(9) 0.0274(11)
C39 C -0.5860(13) -0.5178(9) 0.0619(10)
C40 C -0.5552(14) -0.5691(9) 0.1210(12)
C41 C -0.6294(13) -0.6009(8) 0.1327(10)
C42 C -0.5113(13) -0.4838(9) 0.0350(11)
H43 H -0.8277 -0.5286 0.0158
H44 H -0.7086 -0.4641 -0.0080
H45 H -0.4852 -0.5810 0.1514
H46 H -0.6083 -0.6356 0.1739
H47 H -0.4437(31) -0.4976(29) 0.0893(31)
H48 H -0.5346(31) -0.4360(29) 0.0217(30)
C42B C -0.4887(13) -0.5162(9) -0.0350(11)
C39B C -0.4140(13) -0.4822(9) -0.0619(10)
C38B C -0.3138(14) -0.4983(9) -0.0274(11)
C37B C -0.2429(14) -0.4604(10) -0.0428(12)
N7B N -0.2730(11) -0.4104(7) -0.0942(9)
C41B C -0.3706(13) -0.3991(8) -0.1327(10)
C40B C -0.4448(14) -0.4309(9) -0.1210(12)
H45B H -0.5148 -0.4190 -0.1514
H46B H -0.3917 -0.3644 -0.1739
H43B H -0.1723 -0.4714 -0.0158
H44B H -0.2914 -0.5359 0.0080
H47B H -0.5563(31) -0.5024(29) -0.0893(31)
H48B H -0.4654(31) -0.5640(29) -0.0217(30)
O11 O -0.8453(7) -0.6912(5) 0.0800(7)
H5 H -0.7915(31) -0.6743(29) 0.0979(31)
H6 H -0.8995(31) -0.6938(30) 0.0646(31)
loop_
_geom_bond_atom_site_label_1
_geom_bond_atom_site_label_2
_geom_bond_site_symmetry_1
_geom_bond_site_symmetry_2
Ni1 O1 1_555 1_555
Cl1 O3 1_555 1_555
Cl2 O7 1_555 1_555
O1 H1 1_555 1_555
O2 Ni1 1_555 1_555
N1 Ni1 1_555 1_555
N2 C6 1_555 1_555
N3 Ni1 1_555 1_555
N4 Ni1 1_555 1_555
N5 C22 1_555 1_555
N6 C34 1_555 1_555
N7 C37 1_555 1_555
C1 N1 1_555 1_555
C2 C1 1_555 1_555
C3 C2 1_555 1_555
C4 C3 1_555 1_555
C5 N1 1_555 1_555
C6 C7 1_555 1_555
C7 C8 1_555 1_555
C8 C9 1_555 1_555
C9 C10 1_555 1_555
C10 N2 1_555 1_555
C11 C8 1_555 1_555
C12 C3 1_555 1_555
C13 N3 1_555 1_555
C14 C13 1_555 1_555
C15 C14 1_555 1_555
C16 C15 1_555 1_555
C17 N3 1_555 1_555
C18 C15 1_555 1_555
C19 C18 1_555 1_555
C20 C19 1_555 1_555
C21 C20 1_555 1_555
C22 C21 1_555 1_555
C23 N5 1_555 1_555
C24 C20 1_555 1_555
C25 N4 1_555 1_555
C26 C25 1_555 1_555
C27 C26 1_555 1_555
C28 C27 1_555 1_555
C29 N4 1_555 1_555
C30 C27 1_555 1_555
C31 C30 1_555 1_555
C32 C31 1_555 1_555
C33 C32 1_555 1_555
C34 C33 1_555 1_555
C35 N6 1_555 1_555
C36 C32 1_555 1_555
C37 C38 1_555 1_555
C38 C39 1_555 1_555
C39 C40 1_555 1_555
C40 C41 1_555 1_555
C41 N7 1_555 1_555
C42 C39 1_555 1_555
O4 Cl1 1_555 1_555
O5 Cl1 1_555 1_555
O6 Cl1 1_555 1_555
O8 Cl2 1_555 1_555
O9 Cl2 1_555 1_555
O10 Cl2 1_555 1_555
O11 H5 1_555 1_555
H2 O1 1_555 1_555
H3 O2 1_555 1_555
H4 O2 1_555 1_555
H6 O11 1_555 1_555
H7 C1 1_555 1_555
H8 C2 1_555 1_555
H9 C4 1_555 1_555
H10 C5 1_555 1_555
H11 C6 1_555 1_555
H12 C7 1_555 1_555
H13 C9 1_555 1_555
H14 C10 1_555 1_555
H15 C11 1_555 1_555
H16 C11 1_555 1_555
H17 C12 1_555 1_555
H18 C12 1_555 1_555
H19 C13 1_555 1_555
H20 C14 1_555 1_555
H21 C16 1_555 1_555
H22 C17 1_555 1_555
H23 C18 1_555 1_555
H24 C18 1_555 1_555
H25 C19 1_555 1_555
H26 C19 1_555 1_555
H27 C21 1_555 1_555
H28 C22 1_555 1_555
H29 C23 1_555 1_555
H30 C24 1_555 1_555
H31 C25 1_555 1_555
H32 C26 1_555 1_555
H33 C28 1_555 1_555
H34 C29 1_555 1_555
H35 C30 1_555 1_555
H36 C30 1_555 1_555
H37 C31 1_555 1_555
H38 C31 1_555 1_555
H39 C33 1_555 1_555
H40 C34 1_555 1_555
H41 C35 1_555 1_555
H42 C36 1_555 1_555
H43 C37 1_555 1_555
H44 C38 1_555 1_555
H45 C40 1_555 1_555
H46 C41 1_555 1_555
H47 C42 1_555 1_555
H48 C42 1_555 1_555
N2C Ni1 1_555 1_555
Ni1C N2 1_555 1_555
C42B C42 1_555 1_555
C39B C42B 1_555 1_555
C38B C39B 1_555 1_555
C37B C38B 1_555 1_555
N7B C37B 1_555 1_555
C41B N7B 1_555 1_555
C40B C39B 1_555 1_555
H45B C40B 1_555 1_555
H46B C41B 1_555 1_555
H43B C37B 1_555 1_555
H44B C38B 1_555 1_555
H47B C42B 1_555 1_555
H48B C42B 1_555 1_555
C4 C5 1_555 1_555
C11 C12 1_555 1_555
C16 C17 1_555 1_555
C23 C24 1_555 1_555
C28 C29 1_555 1_555
C35 C36 1_555 1_555
C41B C40B 1_555 1_555

#END
