
#######################################################################
#
#                 Cambridge Crystallographic Data Centre
#                                CCDC 
#
#######################################################################
#
# If this CIF has been generated from an entry in the Cambridge 
# Structural Database, then it will include bibliographic, chemical, 
# crystal, experimental, refinement or atomic coordinate data resulting 
# from the CCDC's data processing and validation procedures.
#
#######################################################################

data_LADQEM
_symmetry_cell_setting           monoclinic
_symmetry_space_group_name_H-M   'C 2/c'
_symmetry_Int_Tables_number      15
_space_group_name_Hall           '-C 2yn'
loop_
_symmetry_equiv_pos_site_id
_symmetry_equiv_pos_as_xyz
1 x,y,z
2 -x,y,1/2-z
3 1/2+x,1/2+y,z
4 1/2-x,1/2+y,1/2-z
5 -x,-y,-z
6 x,-y,1/2+z
7 1/2-x,1/2-y,-z
8 1/2+x,1/2-y,1/2+z
_cell_length_a                   30.141(7)
_cell_length_b                   13.993(4)
_cell_length_c                   19.765(4)
_cell_angle_alpha                90
_cell_angle_beta                 129.410(10)
_cell_angle_gamma                90
_cell_volume                     6440.7
loop_
_atom_site_label
_atom_site_type_symbol
_atom_site_fract_x
_atom_site_fract_y
_atom_site_fract_z
Mn1 Mn 0.0000 0.0000 0.0000
O1 O -0.0056(1) -0.0104(2) -0.1137(2)
O2 O 0.0922(1) -0.0252(2) 0.0852(2)
N1 N 0.0106(1) 0.1641(2) 0.0020(2)
C1 C -0.0041(2) 0.2199(3) 0.0384(3)
C2 C -0.0058(2) 0.3195(3) 0.0331(3)
C3 C 0.0077(2) 0.3639(3) -0.0135(3)
C4 C 0.0240(2) 0.3060(3) -0.0510(3)
C5 C 0.0247(2) 0.2081(3) -0.0421(3)
C6 C 0.0035(2) 0.4712(3) -0.0289(3)
H1 H -0.0321(10) 0.0119(13) -0.1579(13)
H2 H 0.0208(11) -0.0322(13) -0.1114(13)
H3 H 0.1161(10) 0.0159(13) 0.1110(13)
H4 H 0.1065(10) -0.0713(13) 0.1009(12)
H6 H -0.0143 0.1903 0.0705
H7 H -0.0164 0.3564 0.0619
H8 H 0.0347 0.3337 -0.0834
H9 H 0.0361 0.1692 -0.0689
H30 H -0.0357(11) 0.4862(14) -0.1001(13)
H31 H 0.0394(11) 0.4888(13) -0.0235(13)
O1D O 0.0056(1) 0.0104(2) 0.1137(2)
H1D H 0.0321(10) -0.0119(13) 0.1579(13)
H2D H -0.0208(11) 0.0322(13) 0.1114(13)
O2D O -0.0922(1) 0.0252(2) -0.0852(2)
H3D H -0.1161(10) -0.0159(13) -0.1110(13)
H4D H -0.1065(10) 0.0713(13) -0.1009(12)
C6D C -0.0035(2) 0.5288(3) 0.0289(3)
C3D C -0.0077(2) 0.6361(3) 0.0135(3)
C2D C 0.0058(2) 0.6805(3) -0.0331(3)
C1D C 0.0041(2) 0.7801(3) -0.0384(3)
N1D N -0.0106(1) 0.8359(2) -0.0020(2)
Mn1D Mn 0.0000 1.0000 0.0000
C5D C -0.0247(2) 0.7919(3) 0.0421(3)
C4D C -0.0240(2) 0.6940(3) 0.0510(3)
H8D H -0.0347 0.6663 0.0834
H9D H -0.0361 0.8308 0.0689
H6D H 0.0143 0.8097 -0.0705
H7D H 0.0164 0.6436 -0.0619
H30D H 0.0357(11) 0.5138(14) 0.1001(13)
H31D H -0.0394(11) 0.5112(13) 0.0235(13)
N1D_2 N -0.0106(1) -0.1641(2) -0.0020(2)
Cl1 Cl 0.1271(1) 0.5116(1) 0.3826(1)
O5 O 0.1043(6) 0.4336(7) 0.3933(8)
O6 O 0.1732(4) 0.4927(8) 0.3890(8)
O7 O 0.0850(4) 0.5559(9) 0.3057(7)
O8 O 0.1498(5) 0.5738(7) 0.4593(6)
N2 N 0.1419(2) 0.7912(2) 0.1451(3)
N3 N 0.1628(2) 0.1346(2) 0.1760(3)
C7 C 0.1361(2) 0.7354(3) 0.1936(3)
C8 C 0.1442(2) 0.6380(3) 0.1992(3)
C9 C 0.1578(2) 0.5937(3) 0.1520(3)
C10 C 0.1651(2) 0.6512(3) 0.1049(3)
C11 C 0.1570(2) 0.7478(3) 0.1028(3)
C12 C 0.1595(3) 0.4857(3) 0.1459(4)
C13 C 0.2038(2) 0.4342(3) 0.2259(3)
C14 C 0.1906(2) 0.3281(3) 0.2102(3)
C15 C 0.1554(2) 0.2853(3) 0.2231(3)
C16 C 0.1425(2) 0.1892(3) 0.2049(3)
C17 C 0.1965(2) 0.1771(3) 0.1643(3)
C18 C 0.2114(2) 0.2709(3) 0.1808(3)
H10 H 0.1257 0.7643 0.2259
H11 H 0.1403 0.6007 0.2360
H12 H 0.1761 0.6242 0.0728
H13 H 0.1626 0.7864 0.0686
H14 H 0.1646 0.4709 0.1037
H15 H 0.1230 0.4615 0.1253
H16 H 0.2406 0.4465 0.2413
H17 H 0.2042 0.4550 0.2726
H18 H 0.1398 0.3223 0.2445
H19 H 0.1176 0.1609 0.2140
H20 H 0.2115 0.1392 0.1425
H21 H 0.2369 0.2966 0.1719
N4 N 0.0993(2) 0.9332(3) 0.2713(2)
C19 C 0.1531(2) 0.9507(3) 0.3118(3)
C20 C 0.1980(2) 0.9044(3) 0.3875(3)
C21 C 0.1862(2) 0.8356(3) 0.4233(3)
C22 C 0.1300(2) 0.8162(3) 0.3819(3)
C23 C 0.0878(2) 0.8668(4) 0.3052(3)
C24 C 0.2340(2) 0.7835(3) 0.5069(3)
H22 H 0.1624 0.9987 0.2879
H23 H 0.2370 0.9205 0.4148
H24 H 0.1195 0.7689 0.4046
H25 H 0.0482 0.8522 0.2757
H32 H 0.2552(11) 0.8218(14) 0.5533(13)
H33 H 0.2199(11) 0.7533(14) 0.5323(13)
C24F C 0.2660(2) 0.7165(3) 0.4931(3)
C21F C 0.3138(2) 0.6644(3) 0.5767(3)
C20F C 0.3020(2) 0.5956(3) 0.6125(3)
C19F C 0.3469(2) 0.5493(3) 0.6882(3)
N4F N 0.4007(2) 0.5668(3) 0.7287(2)
C23F C 0.4122(2) 0.6332(4) 0.6948(3)
C22F C 0.3700(2) 0.6838(3) 0.6181(3)
H24F H 0.3805 0.7311 0.5954
H25F H 0.4518 0.6478 0.7243
H22F H 0.3376 0.5013 0.7121
H23F H 0.2630 0.5795 0.5852
H32F H 0.2448(11) 0.6782(14) 0.4467(13)
H33F H 0.2801(11) 0.7467(14) 0.4677(13)
N5 N 0.0862(2) 0.0845(3) 0.4066(2)
C25 C 0.1380(2) 0.0484(3) 0.4655(3)
C26 C 0.1873(2) 0.0860(3) 0.4860(3)
C27 C 0.1845(2) 0.1673(3) 0.4448(3)
C28 C 0.1312(2) 0.2070(3) 0.3848(3)
C29 C 0.0839(2) 0.1637(4) 0.3676(3)
C30 C 0.2373(2) 0.2132(4) 0.4660(3)
H26 H 0.1415 -0.0081 0.4961
H27 H 0.2236 0.0555 0.5291
H28 H 0.1269 0.2647 0.3548
H29 H 0.0470 0.1928 0.3250
H34 H 0.2565(11) 0.1753(14) 0.4654(13)
H35 H 0.2267(11) 0.2427(14) 0.4109(13)
C30F C 0.2627(2) 0.2868(4) 0.5340(3)
C27F C 0.3155(2) 0.3327(3) 0.5552(3)
C26F C 0.3127(2) 0.4140(3) 0.5140(3)
C25F C 0.3620(2) 0.4516(3) 0.5345(3)
N5F N 0.4138(2) 0.4155(3) 0.5934(2)
C29F C 0.4161(2) 0.3363(4) 0.6324(3)
C28F C 0.3688(2) 0.2930(3) 0.6152(3)
H28F H 0.3731 0.2353 0.6452
H29F H 0.4530 0.3072 0.6750
H26F H 0.3585 0.5081 0.5039
H27F H 0.2764 0.4445 0.4709
H34F H 0.2435(11) 0.3247(14) 0.5346(13)
H35F H 0.2733(11) 0.2573(14) 0.5891(13)
O3 O 0.0000 0.6823(6) 0.2500
O4 O 0.0000 0.3449(7) 0.2500
H5 H -0.0005(10) 0.3721(13) 0.3065(13)
H5A H 0.0005(10) 0.3721(13) 0.1935(13)
O9? O 0.1333(8) 0.4488(10) 0.3330(10)
O10? O 0.1784(6) 0.4797(10) 0.4663(10)
O11? O 0.1138(6) 0.5968(7) 0.3442(9)
O12? O 0.0845(5) 0.4775(10) 0.3876(10)
O13? O 0.1669(10) 0.5651(13) 0.3890(12)
O14? O 0.1107(10) 0.5807(13) 0.4029(13)
O15? O 0.0912(9) 0.4554(13) 0.2935(12)
O16? O 0.1311(11) 0.4817(13) 0.4280(12)
loop_
_geom_bond_atom_site_label_1
_geom_bond_atom_site_label_2
_geom_bond_site_symmetry_1
_geom_bond_site_symmetry_2
Mn1 O1 1_555 1_555
Cl1 O5 1_555 1_555
O1 H1 1_555 1_555
O2 Mn1 1_555 1_555
N1 Mn1 1_555 1_555
N2 C7 1_555 1_555
N3 C16 1_555 1_555
N4 C19 1_555 1_555
N5 C25 1_555 1_555
C1 N1 1_555 1_555
C2 C1 1_555 1_555
C3 C2 1_555 1_555
C4 C3 1_555 1_555
C5 N1 1_555 1_555
C6 C3 1_555 1_555
C7 C8 1_555 1_555
C8 C9 1_555 1_555
C9 C10 1_555 1_555
C10 C11 1_555 1_555
C11 N2 1_555 1_555
C12 C9 1_555 1_555
C13 C12 1_555 1_555
C14 C13 1_555 1_555
C15 C14 1_555 1_555
C16 C15 1_555 1_555
C17 N3 1_555 1_555
C18 C14 1_555 1_555
C19 C20 1_555 1_555
C20 C21 1_555 1_555
C21 C22 1_555 1_555
C22 C23 1_555 1_555
C23 N4 1_555 1_555
C24 C21 1_555 1_555
C25 C26 1_555 1_555
C26 C27 1_555 1_555
C27 C28 1_555 1_555
C28 C29 1_555 1_555
C29 N5 1_555 1_555
C30 C27 1_555 1_555
O4 H5 1_555 1_555
O6 Cl1 1_555 1_555
O7 Cl1 1_555 1_555
O8 Cl1 1_555 1_555
H2 O1 1_555 1_555
H3 O2 1_555 1_555
H4 O2 1_555 1_555
H6 C1 1_555 1_555
H7 C2 1_555 1_555
H8 C4 1_555 1_555
H9 C5 1_555 1_555
H10 C7 1_555 1_555
H11 C8 1_555 1_555
H12 C10 1_555 1_555
H13 C11 1_555 1_555
H14 C12 1_555 1_555
H15 C12 1_555 1_555
H16 C13 1_555 1_555
H17 C13 1_555 1_555
H18 C15 1_555 1_555
H19 C16 1_555 1_555
H20 C17 1_555 1_555
H21 C18 1_555 1_555
H22 C19 1_555 1_555
H23 C20 1_555 1_555
H24 C22 1_555 1_555
H25 C23 1_555 1_555
H26 C25 1_555 1_555
H27 C26 1_555 1_555
H28 C28 1_555 1_555
H29 C29 1_555 1_555
H30 C6 1_555 1_555
H31 C6 1_555 1_555
H32 C24 1_555 1_555
H33 C24 1_555 1_555
H34 C30 1_555 1_555
H35 C30 1_555 1_555
O1D Mn1 1_555 1_555
H1D O1D 1_555 1_555
H2D O1D 1_555 1_555
O2D Mn1 1_555 1_555
H3D O2D 1_555 1_555
H4D O2D 1_555 1_555
C6D C6 1_555 1_555
C3D C6D 1_555 1_555
C2D C3D 1_555 1_555
C1D C2D 1_555 1_555
N1D C1D 1_555 1_555
Mn1D N1D 1_555 1_555
C5D N1D 1_555 1_555
C4D C3D 1_555 1_555
H8D C4D 1_555 1_555
H9D C5D 1_555 1_555
H6D C1D 1_555 1_555
H7D C2D 1_555 1_555
H30D C6D 1_555 1_555
H31D C6D 1_555 1_555
N1D_2 Mn1 1_555 1_555
C24F C24 1_555 1_555
C21F C24F 1_555 1_555
C20F C21F 1_555 1_555
C19F C20F 1_555 1_555
N4F C19F 1_555 1_555
C23F N4F 1_555 1_555
C22F C21F 1_555 1_555
H24F C22F 1_555 1_555
H25F C23F 1_555 1_555
H22F C19F 1_555 1_555
H23F C20F 1_555 1_555
H32F C24F 1_555 1_555
H33F C24F 1_555 1_555
C30F C30 1_555 1_555
C27F C30F 1_555 1_555
C26F C27F 1_555 1_555
C25F C26F 1_555 1_555
N5F C25F 1_555 1_555
C29F N5F 1_555 1_555
C28F C27F 1_555 1_555
H28F C28F 1_555 1_555
H29F C29F 1_555 1_555
H26F C25F 1_555 1_555
H27F C26F 1_555 1_555
H34F C30F 1_555 1_555
H35F C30F 1_555 1_555
H5A O4 1_555 1_555
C4 C5 1_555 1_555
C17 C18 1_555 1_555
C5D C4D 1_555 1_555
C23F C22F 1_555 1_555
C29F C28F 1_555 1_555

#END
