
#######################################################################
#
#                 Cambridge Crystallographic Data Centre
#                                CCDC 
#
#######################################################################
#
# If this CIF has been generated from an entry in the Cambridge 
# Structural Database, then it will include bibliographic, chemical, 
# crystal, experimental, refinement or atomic coordinate data resulting 
# from the CCDC's data processing and validation procedures.
#
#######################################################################

data_LADSEO
_symmetry_cell_setting           orthorhombic
_symmetry_space_group_name_H-M   'P n a 21'
_symmetry_Int_Tables_number      33
_space_group_name_Hall           'P 2c -2n'
loop_
_symmetry_equiv_pos_site_id
_symmetry_equiv_pos_as_xyz
1 x,y,z
2 -x,-y,1/2+z
3 1/2-x,1/2+y,1/2+z
4 1/2+x,1/2-y,z
_cell_length_a                   15.4643(2)
_cell_length_b                   5.16512(7)
_cell_length_c                   6.27650(8)
_cell_angle_alpha                90
_cell_angle_beta                 90
_cell_angle_gamma                90
_cell_volume                     501.335
loop_
_atom_site_label
_atom_site_type_symbol
_atom_site_fract_x
_atom_site_fract_y
_atom_site_fract_z
Cd1 Cd 0.26943(6) -1.3378(2) -7.1119(2)
P1 P 0.3570(1) -1.2770(3) -7.6243(17)
O1 O 0.3136(5) -1.161(2) -7.4371(12)
O2 O 0.3482(4) -1.5765(6) -7.603(2)
O3 O 0.3217(6) -1.141(2) -7.8313(12)
N1 N 0.6302(6) -1.3293(5) -7.6347(4)
C1 C 0.4720(6) -1.1965(7) -7.6022(9)
C2 C 0.5424(9) -1.3972(6) -7.5535(9)
Cd1A Cd 0.73057(6) -1.6622(2) -7.6119(2)
O1B O 0.1864(5) -1.661(2) -6.9371(12)
O3_2 O 0.3217(6) -1.141(2) -6.8313(12)
O2B O 0.1518(4) -1.0765(6) -7.103(2)
Cd1B Cd 0.23057(6) -0.8378(2) -7.6119(2)
Cd1_2 Cd 0.26943(6) -1.3378(2) -8.1119(2)
O3B O 0.1783(6) -1.641(2) -7.3313(12)
N1A N 0.3698(6) -1.6707(5) -7.1347(4)
Cd1B_2 Cd 0.23057(6) -1.8378(2) -7.6119(2)
loop_
_geom_bond_atom_site_label_1
_geom_bond_atom_site_label_2
_geom_bond_site_symmetry_1
_geom_bond_site_symmetry_2
Cd1 O1 1_555 1_555
P1 O1 1_555 1_555
O1 Cd1B 1_555 1_555
O2 P1 1_555 1_555
O3 P1 1_555 1_555
N1 C2 1_555 1_555
C1 P1 1_555 1_555
C2 C1 1_555 1_555
Cd1A N1 1_555 1_555
O1B Cd1 1_555 1_555
O3_2 Cd1 1_555 1_555
O2B Cd1 1_555 1_555
Cd1B O3 1_555 1_555
Cd1_2 O3 1_555 1_555
O3B Cd1 1_555 1_555
N1A Cd1 1_555 1_555
Cd1B_2 O2 1_555 1_555
O3B Cd1B_2 1_555 1_555

#END
