
#######################################################################
#
#                 Cambridge Crystallographic Data Centre
#                                CCDC 
#
#######################################################################
#
# If this CIF has been generated from an entry in the Cambridge 
# Structural Database, then it will include bibliographic, chemical, 
# crystal, experimental, refinement or atomic coordinate data resulting 
# from the CCDC's data processing and validation procedures.
#
#######################################################################

data_LADVIW
_symmetry_cell_setting           monoclinic
_symmetry_space_group_name_H-M   'I 2/a'
_symmetry_Int_Tables_number      15
_space_group_name_Hall           '-I 2ya'
loop_
_symmetry_equiv_pos_site_id
_symmetry_equiv_pos_as_xyz
1 x,y,z
2 1/2+x,1/2+y,1/2+z
3 1/2+x,-y,z
4 x,1/2-y,1/2+z
5 -x,-y,-z
6 1/2-x,1/2-y,1/2-z
7 1/2-x,y,-z
8 -x,1/2+y,1/2-z
_cell_length_a                   15.3953(12)
_cell_length_b                   11.1701(8)
_cell_length_c                   20.056(2)
_cell_angle_alpha                90
_cell_angle_beta                 90.974(2)
_cell_angle_gamma                90
_cell_volume                     3448.47
loop_
_atom_site_label
_atom_site_type_symbol
_atom_site_fract_x
_atom_site_fract_y
_atom_site_fract_z
K1 K 0.0000 -0.5000 0.5000
K2 K -0.2500 -0.40686(7) 0.5000
N1 N -0.14181(13) -0.48592(19) 0.39451(10)
N2 N -0.16207(13) -0.28162(19) 0.40444(9)
C1 C -0.13841(16) -0.5837(3) 0.35619(12)
H1 H -0.1292 -0.6582 0.3780
C2 C -0.14718(17) -0.5854(3) 0.28737(12)
H2 H -0.1444 -0.6581 0.2629
C3 C -0.16036(17) -0.4756(3) 0.25566(12)
H3 H -0.1676 -0.4725 0.2086
C4 C -0.16280(15) -0.3735(2) 0.29190(11)
H4 H -0.1711 -0.2989 0.2699
C5 C -0.15296(14) -0.3764(2) 0.36365(11)
C6 C -0.14884(16) -0.1668(2) 0.37967(11)
C7 C -0.19886(17) -0.0712(2) 0.40315(13)
H5 H -0.2440 -0.0867 0.4337
C8 C -0.18390(19) 0.0453(3) 0.38276(14)
H6 H -0.2202 0.1076 0.3984
C9 C -0.1170(2) 0.0727(3) 0.34001(14)
H7 H -0.1072 0.1528 0.3261
C10 C -0.06521(19) -0.0196(3) 0.31817(13)
H8 H -0.0185 -0.0026 0.2893
C11 C -0.08009(17) -0.1356(2) 0.33746(11)
H9 H -0.0428 -0.1970 0.3218
O1 O 0.07948(11) -0.31429(16) 0.43135(9)
O2 O -0.11858(11) -0.44155(16) 0.60048(8)
O3 O -0.00314(11) -0.26325(15) 0.55165(8)
C12 C 0.14905(18) -0.3498(3) 0.39040(13)
H10 H 0.2017 -0.3639 0.4183
H11 H 0.1620 -0.2852 0.3583
C13 C 0.12570(19) -0.4613(3) 0.35354(12)
H12 H -0.0698 -0.5500 0.6707
H13 H -0.1709 -0.5204 0.6795
C14 C -0.10056(18) -0.3313(3) 0.63422(13)
H14 H -0.1513 -0.3077 0.6609
H15 H -0.0502 -0.3418 0.6650
C15 C -0.08121(16) -0.2355(3) 0.58490(15)
H16 H 0.0751 -0.8424 0.3919
H17 H 0.1297 -0.7711 0.4480
C16 C -0.01833(18) -0.8278(2) 0.49501(13)
H18 H 0.0307 -0.8400 0.5269
H19 H -0.0293 -0.9042 0.4713
C17 C -0.09770(18) -0.7910(3) 0.53174(14)
H20 H -0.1461 -0.7760 0.4997
H21 H -0.1154 -0.8559 0.5623
N1F N -0.35819(13) -0.48592(19) 0.60549(10)
O2F O -0.38142(11) -0.44155(16) 0.39952(8)
N2F N -0.33793(13) -0.28162(19) 0.59556(9)
N1D N 0.14181(13) -0.51408(19) 0.60549(10)
O2D O 0.11858(11) -0.55845(16) 0.39952(8)
O1D O -0.07948(11) -0.68571(16) 0.56865(9)
C12D C -0.14905(18) -0.6502(3) 0.60960(13)
H10D H -0.2017 -0.6361 0.5817
H11D H -0.1620 -0.7148 0.6417
C13D C -0.12570(19) -0.5387(3) 0.64646(12)
O3D O 0.00314(11) -0.73675(15) 0.44835(8)
C15D C 0.08121(16) -0.7645(3) 0.41510(15)
C14D C 0.10056(18) -0.6687(3) 0.36578(13)
K2B K 0.2500 -0.59314(7) 0.5000
N2D N 0.16207(13) -0.71838(19) 0.59556(9)
C5D C 0.15296(14) -0.6236(2) 0.63635(11)
C1D C 0.13841(16) -0.4163(3) 0.64381(12)
H1D H 0.1292 -0.3418 0.6220
C2D C 0.14718(17) -0.4146(3) 0.71263(12)
H2D H 0.1444 -0.3419 0.7371
C3D C 0.16036(17) -0.5244(3) 0.74434(12)
H3D H 0.1676 -0.5275 0.7914
C4D C 0.16280(15) -0.6265(2) 0.70810(11)
H4D H 0.1711 -0.7011 0.7301
C6D C 0.14884(16) -0.8332(2) 0.62033(11)
C7D C 0.19886(17) -0.9288(2) 0.59685(13)
H5D H 0.2440 -0.9133 0.5663
C8D C 0.18390(19) -1.0453(3) 0.61724(14)
H6D H 0.2202 -1.1076 0.6016
C9D C 0.1170(2) -1.0727(3) 0.65999(14)
H7D H 0.1072 -1.1528 0.6739
C10D C 0.06521(19) -0.9804(3) 0.68183(13)
H8D H 0.0185 -0.9974 0.7107
C11D C 0.08009(17) -0.8644(2) 0.66254(11)
H9D H 0.0428 -0.8030 0.6782
H14D H 0.1513 -0.6923 0.3391
H15D H 0.0502 -0.6582 0.3350
C16D C 0.01833(18) -0.1722(2) 0.50499(13)
H18D H -0.0307 -0.1600 0.4731
H19D H 0.0293 -0.0958 0.5287
C17D C 0.09770(18) -0.2090(3) 0.46826(14)
H20D H 0.1461 -0.2240 0.5003
H21D H 0.1154 -0.1441 0.4377
H16D H -0.0751 -0.1576 0.6081
H17D H -0.1297 -0.2289 0.5520
H12D H 0.0698 -0.4500 0.3293
H13D H 0.1709 -0.4796 0.3205
loop_
_geom_bond_atom_site_label_1
_geom_bond_atom_site_label_2
_geom_bond_site_symmetry_1
_geom_bond_site_symmetry_2
K1 N1 1_555 1_555
K2 N1 1_555 1_555
N1 C1 1_555 1_555
N2 K2 1_555 1_555
C1 H1 1_555 1_555
C2 C1 1_555 1_555
H2 C2 1_555 1_555
C3 C2 1_555 1_555
H3 C3 1_555 1_555
C4 C3 1_555 1_555
H4 C4 1_555 1_555
C5 N1 1_555 1_555
C6 N2 1_555 1_555
C7 C6 1_555 1_555
H5 C7 1_555 1_555
C8 C7 1_555 1_555
H6 C8 1_555 1_555
C9 C8 1_555 1_555
H7 C9 1_555 1_555
C10 C9 1_555 1_555
H8 C10 1_555 1_555
C11 C6 1_555 1_555
H9 C11 1_555 1_555
O1 K1 1_555 1_555
O2 K1 1_555 1_555
O3 K1 1_555 1_555
C12 O1 1_555 1_555
H10 C12 1_555 1_555
H11 C12 1_555 1_555
C13 C12 1_555 1_555
H12 C13D 1_555 1_555
H13 C13D 1_555 1_555
C14 O2 1_555 1_555
H14 C14 1_555 1_555
H15 C14 1_555 1_555
C15 O3 1_555 1_555
H16 C15D 1_555 1_555
H17 C15D 1_555 1_555
C16 H18 1_555 1_555
H19 C16 1_555 1_555
C17 C16 1_555 1_555
H20 C17 1_555 1_555
H21 C17 1_555 1_555
N1F K2 1_555 1_555
O2F K2 1_555 1_555
N2F K2 1_555 1_555
N1D K1 1_555 1_555
O2D K1 1_555 1_555
O1D K1 1_555 1_555
C12D O1D 1_555 1_555
H10D C12D 1_555 1_555
H11D C12D 1_555 1_555
C13D O2 1_555 1_555
O3D K1 1_555 1_555
C15D O3D 1_555 1_555
C14D O2D 1_555 1_555
K2B N1D 1_555 1_555
N2D K2B 1_555 1_555
C5D N1D 1_555 1_555
C1D N1D 1_555 1_555
H1D C1D 1_555 1_555
C2D C1D 1_555 1_555
H2D C2D 1_555 1_555
C3D C2D 1_555 1_555
H3D C3D 1_555 1_555
C4D C5D 1_555 1_555
H4D C4D 1_555 1_555
C6D N2D 1_555 1_555
C7D C6D 1_555 1_555
H5D C7D 1_555 1_555
C8D C7D 1_555 1_555
H6D C8D 1_555 1_555
C9D C8D 1_555 1_555
H7D C9D 1_555 1_555
C10D C9D 1_555 1_555
H8D C10D 1_555 1_555
C11D C6D 1_555 1_555
H9D C11D 1_555 1_555
H14D C14D 1_555 1_555
H15D C14D 1_555 1_555
C16D O3 1_555 1_555
H18D C16D 1_555 1_555
H19D C16D 1_555 1_555
C17D O1 1_555 1_555
H20D C17D 1_555 1_555
H21D C17D 1_555 1_555
H16D C15 1_555 1_555
H17D C15 1_555 1_555
H12D C13 1_555 1_555
H13D C13 1_555 1_555
K2 O2 1_555 1_555
N2 C5 1_555 1_555
C4 C5 1_555 1_555
C10 C11 1_555 1_555
C13 O2D 1_555 1_555
C14 C15 1_555 1_555
C16 O3D 1_555 1_555
C17 O1D 1_555 1_555
O2D K2B 1_555 1_555
C12D C13D 1_555 1_555
C15D C14D 1_555 1_555
N2D C5D 1_555 1_555
C3D C4D 1_555 1_555
C10D C11D 1_555 1_555
C16D C17D 1_555 1_555

#END
