
#######################################################################
#
#                 Cambridge Crystallographic Data Centre
#                                CCDC 
#
#######################################################################
#
# If this CIF has been generated from an entry in the Cambridge 
# Structural Database, then it will include bibliographic, chemical, 
# crystal, experimental, refinement or atomic coordinate data resulting 
# from the CCDC's data processing and validation procedures.
#
#######################################################################

data_LAFBEB
_symmetry_cell_setting           triclinic
_symmetry_space_group_name_H-M   'P -1'
_symmetry_Int_Tables_number      2
_space_group_name_Hall           '-P 1'
loop_
_symmetry_equiv_pos_site_id
_symmetry_equiv_pos_as_xyz
1 x,y,z
2 -x,-y,-z
_cell_length_a                   7.4104(7)
_cell_length_b                   9.2049(8)
_cell_length_c                   11.5236(10)
_cell_angle_alpha                74.100(1)
_cell_angle_beta                 71.854(1)
_cell_angle_gamma                79.970(1)
_cell_volume                     714.975
loop_
_atom_site_label
_atom_site_type_symbol
_atom_site_fract_x
_atom_site_fract_y
_atom_site_fract_z
Er1 Er 0.10600(2) 1.053810(19) 0.220636(15)
N1 N 0.3222(5) 0.4038(4) 0.7324(3)
O1 O 0.1669(4) 0.8729(3) 0.4036(3)
O2 O 0.1176(4) 0.7826(3) 0.2603(3)
O3 O 0.1809(4) 0.2105(3) 0.3207(3)
O4 O 0.4545(4) 0.1146(4) 0.3673(3)
O5 O 0.3745(7) 0.2764(4) 0.7821(4)
O6 O 0.3025(6) 0.5117(4) 0.7774(3)
O7 O -0.1760(4) 1.0784(4) 0.3750(3)
H1 H -0.2077 1.0045 0.4379
H2 H -0.2895 1.0893 0.3726
O8 O 0.4334(4) 1.0375(4) 0.1631(3)
H3 H 0.4966 0.9570 0.1922
H4 H 0.4913 1.1121 0.1126
O9 O 0.0638(5) 1.2986(4) 0.1012(3)
O10 O 0.2227(4) 1.0138(3) 0.0144(3)
O11 O 0.1445(4) 0.9687(4) -0.1437(3)
C1 C 0.1608(5) 0.7607(5) 0.3622(4)
C2 C 0.2088(5) 0.6027(5) 0.4309(4)
C3 C 0.2299(5) 0.4815(5) 0.3766(4)
H5 H 0.2048 0.4983 0.2996
C4 C 0.2880(6) 0.3350(5) 0.4354(4)
C5 C 0.3215(6) 0.3085(5) 0.5517(4)
H6 H 0.3637 0.2118 0.5911
C6 C 0.2905(6) 0.4293(5) 0.6081(4)
C7 C 0.2362(6) 0.5766(5) 0.5500(4)
H7 H 0.2185 0.6559 0.5893
C8 C 0.3115(6) 0.2093(5) 0.3702(4)
C9 C 0.1059(5) 0.9947(4) -0.0379(3)
H8 H 0.097(11) 1.386(4) 0.095(8)
H9 H -0.020(6) 1.326(7) 0.060(5)
Er1_2 Er 0.10600(2) 0.053810(19) 0.220636(15)
Er1A Er -0.10600(2) 0.946190(19) -0.220636(15)
Er1A_2 Er -0.10600(2) 1.946190(19) -0.220636(15)
N1A N -0.3222(5) 1.5962(4) -0.7324(3)
O1A O -0.1669(4) 1.1271(3) -0.4036(3)
O2A O -0.1176(4) 1.2174(3) -0.2603(3)
O3_2 O 0.1809(4) 1.2105(3) 0.3207(3)
O3A O -0.1809(4) 0.7895(3) -0.3207(3)
O3A_2 O -0.1809(4) 1.7895(3) -0.3207(3)
O4A O -0.4545(4) 1.8854(4) -0.3673(3)
O5A O -0.3745(7) 1.7236(4) -0.7821(4)
O6A O -0.3025(6) 1.4883(4) -0.7774(3)
O7A O 0.1760(4) 0.9216(4) -0.3750(3)
H1A H 0.2077 0.9955 -0.4379
H2A H 0.2895 0.9107 -0.3726
O8A O -0.4334(4) 0.9625(4) -0.1631(3)
H3A H -0.4966 1.0430 -0.1922
H4A H -0.4913 0.8879 -0.1126
O9A O -0.0638(5) 0.7014(4) -0.1012(3)
O10A O -0.2227(4) 0.9862(3) -0.0144(3)
O11A O -0.1445(4) 1.0313(4) 0.1437(3)
C1A C -0.1608(5) 1.2393(5) -0.3622(4)
C2A C -0.2088(5) 1.3973(5) -0.4309(4)
C3A C -0.2299(5) 1.5185(5) -0.3766(4)
H5A H -0.2048 1.5017 -0.2996
C4A C -0.2880(6) 1.6650(5) -0.4354(4)
C5A C -0.3215(6) 1.6915(5) -0.5517(4)
H6A H -0.3637 1.7882 -0.5911
C6A C -0.2905(6) 1.5707(5) -0.6081(4)
C7A C -0.2362(6) 1.4234(5) -0.5500(4)
H7A H -0.2185 1.3441 -0.5893
C8A C -0.3115(6) 1.7907(5) -0.3702(4)
C9A C -0.1059(5) 1.0053(4) 0.0379(3)
H8A H -0.097(11) 0.614(4) -0.095(8)
H9A H 0.020(6) 0.674(7) -0.060(5)
O12 O 0.1238(6) 0.6164(4) 0.0831(3)
H10 H 0.1410 0.5294 0.1303
H11 H 0.1219 0.6660 0.1357
O13 O 0.4963(13) 0.3643(12) 0.0013(9)
H12 H 0.5060 0.2804 0.0542
H13 H 0.6160 0.3704 -0.0263
loop_
_geom_bond_atom_site_label_1
_geom_bond_atom_site_label_2
_geom_bond_site_symmetry_1
_geom_bond_site_symmetry_2
Er1 O1 1_555 1_555
N1 O5 1_555 1_555
O1 C1 1_555 1_555
O2 Er1 1_555 1_555
O3 C8 1_555 1_555
O4 C8 1_555 1_555
O6 N1 1_555 1_555
O7 Er1 1_555 1_555
H1 O7 1_555 1_555
H2 O7 1_555 1_555
O8 Er1 1_555 1_555
H3 O8 1_555 1_555
H4 O8 1_555 1_555
O9 Er1 1_555 1_555
O10 Er1 1_555 1_555
O11 C9 1_555 1_555
C1 O2 1_555 1_555
C2 C1 1_555 1_555
C3 C2 1_555 1_555
H5 C3 1_555 1_555
C4 C3 1_555 1_555
C5 C4 1_555 1_555
H6 C5 1_555 1_555
C6 N1 1_555 1_555
C7 C2 1_555 1_555
H7 C7 1_555 1_555
C8 C4 1_555 1_555
C9 O10 1_555 1_555
H8 O9 1_555 1_555
H9 O9 1_555 1_555
O12 H10 1_555 1_555
H11 O12 1_555 1_555
O13 H12 1_555 1_555
H13 O13 1_555 1_555
Er1_2 O3 1_555 1_555
Er1A O11 1_555 1_555
Er1A_2 O3A_2 1_555 1_555
N1A O5A 1_555 1_555
O1A Er1A 1_555 1_555
O2A Er1A 1_555 1_555
O3_2 Er1 1_555 1_555
O3A Er1A 1_555 1_555
O3A_2 C8A 1_555 1_555
O4A C8A 1_555 1_555
O6A N1A 1_555 1_555
O7A Er1A 1_555 1_555
H1A O7A 1_555 1_555
H2A O7A 1_555 1_555
O8A Er1A 1_555 1_555
H3A O8A 1_555 1_555
H4A O8A 1_555 1_555
O9A Er1A 1_555 1_555
O10A Er1A 1_555 1_555
O11A Er1 1_555 1_555
C1A O1A 1_555 1_555
C2A C1A 1_555 1_555
C3A C2A 1_555 1_555
H5A C3A 1_555 1_555
C4A C3A 1_555 1_555
C5A C4A 1_555 1_555
H6A C5A 1_555 1_555
C6A N1A 1_555 1_555
C7A C2A 1_555 1_555
H7A C7A 1_555 1_555
C8A C4A 1_555 1_555
C9A C9 1_555 1_555
H8A O9A 1_555 1_555
H9A O9A 1_555 1_555
C5 C6 1_555 1_555
C6 C7 1_555 1_555
O2A C1A 1_555 1_555
O10A C9A 1_555 1_555
O11A C9A 1_555 1_555
C5A C6A 1_555 1_555
C6A C7A 1_555 1_555

#END
