
#######################################################################
#
#                 Cambridge Crystallographic Data Centre
#                                CCDC 
#
#######################################################################
#
# If this CIF has been generated from an entry in the Cambridge 
# Structural Database, then it will include bibliographic, chemical, 
# crystal, experimental, refinement or atomic coordinate data resulting 
# from the CCDC's data processing and validation procedures.
#
#######################################################################

data_LAFDOL
_symmetry_cell_setting           monoclinic
_symmetry_space_group_name_H-M   'P 21/c'
_symmetry_Int_Tables_number      14
_space_group_name_Hall           '-P 2ybc'
loop_
_symmetry_equiv_pos_site_id
_symmetry_equiv_pos_as_xyz
1 x,y,z
2 -x,1/2+y,1/2-z
3 -x,-y,-z
4 x,1/2-y,1/2+z
_cell_length_a                   11.528(1)
_cell_length_b                   11.210(1)
_cell_length_c                   16.512(2)
_cell_angle_alpha                90
_cell_angle_beta                 103.93(4)
_cell_angle_gamma                90
_cell_volume                     2071.07
loop_
_atom_site_label
_atom_site_type_symbol
_atom_site_fract_x
_atom_site_fract_y
_atom_site_fract_z
V1 V 0.32558(9) 0.21612(9) 0.88832(7)
Na1 Na 0.1883(2) 0.0697(2) 1.0455(2)
O1 O 0.2281(4) 0.1495(4) 0.9260(3)
O2 O 0.3692(4) -0.0135(5) 1.0814(3)
O3 O 0.1825(4) 0.2181(4) 1.1354(3)
O4 O 0.3001(4) 0.3826(4) 0.8847(3)
N2 N 0.4736(5) 0.2443(5) 0.9898(3)
N3 N 0.4482(5) 0.1035(4) 0.8650(3)
N4 N 0.2710(4) 0.2032(4) 0.7631(3)
C3 C 0.4790(7) 0.3249(7) 1.0507(5)
C4 C 0.5733(7) 0.3261(7) 1.1203(5)
C5 C 0.6613(6) 0.2416(8) 1.1276(5)
C6 C 0.6563(6) 0.1610(7) 1.0640(4)
C7 C 0.5621(6) 0.1647(6) 0.9951(4)
C8 C 0.4507(6) -0.0849(6) 1.0783(4)
C9 C 0.4152(6) 0.0465(6) 0.7861(4)
C10 C 0.4676(6) -0.0562(6) 0.7628(5)
C11 C 0.4203(7) -0.1061(7) 0.6854(5)
C12 C 0.3248(7) -0.0552(7) 0.6313(5)
C13 C 0.2718(6) 0.0487(6) 0.6529(4)
C14 C 0.3182(6) 0.1002(6) 0.7312(4)
C15 C 0.2049(5) 0.2150(6) 1.2127(4)
C16 C 0.1527(6) 0.1156(6) 1.2532(4)
C17 C 0.0498(7) 0.0590(8) 1.2063(5)
C18 C -0.0034(7) -0.0339(8) 1.2366(6)
C19 C 0.0469(7) -0.0773(7) 1.3147(6)
C20 C 0.1492(7) -0.0273(6) 1.3631(5)
C21 C 0.2026(6) 0.4290(6) 0.8334(4)
C8B C 0.5493(6) 0.0849(6) 0.9217(4)
C15C C 0.2049(5) 0.2850(6) 0.7127(4)
N3B N 0.5518(5) -0.1035(4) 1.1350(3)
C7B C 0.4379(6) -0.1647(6) 1.0049(4)
N4C N 0.2710(4) 0.2968(4) 1.2631(3)
C21C C 0.2026(6) 0.0710(6) 1.3334(4)
C16C C 0.1527(6) 0.3844(6) 0.7532(4)
C20C C 0.1492(7) 0.5273(6) 0.8631(5)
O2B O 0.6308(4) 0.0135(5) 0.9186(3)
O3C O 0.1825(4) 0.2819(4) 0.6354(3)
V1B V 0.67442(9) -0.21612(9) 1.11168(7)
C9B C 0.5848(6) -0.0465(6) 1.2139(4)
N2B N 0.5264(5) -0.2443(5) 1.0102(3)
C6B C 0.3437(6) -0.1610(7) 0.9360(4)
V1C V 0.32558(9) 0.28388(9) 1.38832(7)
C14C C 0.3182(6) 0.3998(6) 1.2312(4)
O4C O 0.3001(4) 0.1174(4) 1.3847(3)
C17C C 0.0498(7) 0.4410(8) 0.7063(5)
C19C C 0.0469(7) 0.5773(7) 0.8147(6)
Na1B Na 0.8117(2) -0.0697(2) 0.9545(2)
Na1C Na 0.1883(2) 0.4303(2) 0.5455(2)
O1B O 0.7719(4) -0.1495(4) 1.0740(3)
O4B O 0.6999(4) -0.3826(4) 1.1153(3)
N4B N 0.7290(4) -0.2032(4) 1.2369(3)
C10B C 0.5324(6) 0.0562(6) 1.2372(5)
C14B C 0.6818(6) -0.1002(6) 1.2688(4)
C3B C 0.5210(7) -0.3249(7) 0.9493(5)
C5B C 0.3387(6) -0.2416(8) 0.8724(5)
O1C O 0.2281(4) 0.3505(4) 1.4260(3)
N2C N 0.4736(5) 0.2557(5) 1.4898(3)
N3C N 0.4482(5) 0.3965(4) 1.3650(3)
C9C C 0.4152(6) 0.4535(6) 1.2861(4)
C13C C 0.2718(6) 0.4513(6) 1.1529(4)
C18C C -0.0034(7) 0.5339(8) 0.7366(6)
O3B O 0.8175(4) -0.2181(4) 0.8646(3)
O1C_2 O 0.2281(4) 0.3505(4) 0.4260(3)
O2C O 0.3692(4) 0.5135(5) 0.5814(3)
C21B C 0.7974(6) -0.4290(6) 1.1666(4)
C15A C 0.7951(5) -0.2850(6) 1.2873(4)
C11B C 0.5797(7) 0.1061(7) 1.3146(5)
C13B C 0.7282(6) -0.0487(6) 1.3471(4)
C4B C 0.4267(7) -0.3261(7) 0.8797(5)
Na1C_2 Na 0.1883(2) 0.4303(2) 1.5455(2)
C3C C 0.4790(7) 0.1751(7) 1.5507(5)
C7C C 0.5621(6) 0.3353(6) 1.4951(4)
C8A C 0.5493(6) 0.4151(6) 1.4217(4)
C10C C 0.4676(6) 0.5562(6) 1.2628(5)
C12C C 0.3248(7) 0.5552(7) 1.1313(5)
C15B C 0.7951(5) -0.2150(6) 0.7873(4)
C8C C 0.4507(6) 0.5849(6) 0.5783(4)
C16A C 0.8473(6) -0.3844(6) 1.2468(4)
C20A C 0.8508(7) -0.5273(6) 1.1369(5)
O3A O 0.8175(4) -0.2819(4) 1.3646(3)
C12B C 0.6752(7) 0.0552(7) 1.3687(5)
C4C C 0.5733(7) 0.1739(7) 1.6203(5)
C6C C 0.6563(6) 0.3390(7) 1.5640(4)
O2A O 0.6308(4) 0.4865(5) 1.4186(3)
C11C C 0.4203(7) 0.6061(7) 1.1854(5)
N4A N 0.7290(4) -0.2968(4) 0.7369(3)
C16B C 0.8473(6) -0.1156(6) 0.7468(4)
N3A N 0.5518(5) 0.6035(4) 0.6350(3)
C7A C 0.4379(6) 0.6647(6) 0.5049(4)
C17A C 0.9502(7) -0.4410(8) 1.2937(5)
C19A C 0.9531(7) -0.5773(7) 1.1853(6)
Na1A Na 0.8117(2) -0.4303(2) 1.4545(2)
C5C C 0.6613(6) 0.2584(8) 1.6276(5)
Na1A_2 Na 0.8117(2) 0.5697(2) 1.4545(2)
V1A V 0.67442(9) -0.28388(9) 0.61168(7)
C14A C 0.6818(6) -0.3998(6) 0.7688(4)
C17B C 0.9502(7) -0.0590(8) 0.7937(5)
C21A C 0.7974(6) -0.0710(6) 0.6666(4)
V1A_2 V 0.67442(9) 0.71612(9) 0.61168(7)
C9A C 0.5848(6) 0.5465(6) 0.7139(4)
N2A N 0.5264(5) 0.7443(5) 0.5102(3)
C6A C 0.3437(6) 0.6610(7) 0.4360(4)
C18A C 1.0034(7) -0.5339(8) 1.2634(6)
O1A O 0.7719(4) -0.3505(4) 1.5740(3)
O2A_2 O 0.6308(4) -0.5135(5) 1.4186(3)
O1A_2 O 0.7719(4) -0.3505(4) 0.5740(3)
O4A O 0.6999(4) -0.1174(4) 0.6153(3)
N2A_2 N 0.5264(5) -0.2557(5) 0.5102(3)
N3A_2 N 0.5518(5) -0.3965(4) 0.6350(3)
C9A_2 C 0.5848(6) -0.4535(6) 0.7139(4)
C13A C 0.7282(6) -0.4513(6) 0.8471(4)
C18B C 1.0034(7) 0.0339(8) 0.7634(6)
C20B C 0.8508(7) 0.0273(6) 0.6369(5)
C10A C 0.5324(6) 0.4438(6) 0.7372(5)
C14A_2 C 0.6818(6) 0.6002(6) 0.7688(4)
C3A C 0.5210(7) 0.8249(7) 0.4493(5)
C5A C 0.3387(6) 0.7416(8) 0.3724(5)
V1A_3 V 0.67442(9) -0.28388(9) 1.61168(7)
C12A C 0.6752(7) -0.5552(7) 0.8687(5)
C19B C 0.9531(7) 0.0773(7) 0.6853(6)
C11A C 0.5797(7) 0.3939(7) 0.8146(5)
C4A C 0.4267(7) 0.8261(7) 0.3797(5)
C11A_2 C 0.5797(7) -0.6061(7) 0.8146(5)
C12A_2 C 0.6752(7) 0.4448(7) 0.8687(5)
N1 N 0.9171(7) 0.1213(8) 0.9724(5)
C1 C 0.9405(8) 0.2046(9) 0.9468(6)
C2 C 0.9840(10) 0.3230(10) 0.9236(9)
loop_
_geom_bond_atom_site_label_1
_geom_bond_atom_site_label_2
_geom_bond_site_symmetry_1
_geom_bond_site_symmetry_2
N1 C1 1_555 1_555
C1 C2 1_555 1_555
V1 O1 1_555 1_555
Na1 O1 1_555 1_555
O2 Na1 1_555 1_555
O3 Na1 1_555 1_555
O4 V1 1_555 1_555
N2 V1 1_555 1_555
N3 V1 1_555 1_555
N4 V1 1_555 1_555
C3 N2 1_555 1_555
C4 C3 1_555 1_555
C5 C4 1_555 1_555
C6 C5 1_555 1_555
C7 N2 1_555 1_555
C8 O2 1_555 1_555
C9 N3 1_555 1_555
C10 C9 1_555 1_555
C11 C10 1_555 1_555
C12 C11 1_555 1_555
C13 C12 1_555 1_555
C14 N4 1_555 1_555
C15 O3 1_555 1_555
C16 C15 1_555 1_555
C17 C16 1_555 1_555
C18 C17 1_555 1_555
C19 C18 1_555 1_555
C20 C19 1_555 1_555
C21 O4 1_555 1_555
C8B N3 1_555 1_555
C15C N4 1_555 1_555
N3B C8 1_555 1_555
C7B C8 1_555 1_555
N4C C15 1_555 1_555
C21C C16 1_555 1_555
C16C C21 1_555 1_555
C20C C21 1_555 1_555
O2B C8B 1_555 1_555
O3C C15C 1_555 1_555
V1B N3B 1_555 1_555
C9B N3B 1_555 1_555
N2B C7B 1_555 1_555
C6B C7B 1_555 1_555
V1C N4C 1_555 1_555
C14C N4C 1_555 1_555
O4C C21C 1_555 1_555
C17C C16C 1_555 1_555
C19C C20C 1_555 1_555
Na1B O2B 1_555 1_555
Na1C O3C 1_555 1_555
O1B V1B 1_555 1_555
O4B V1B 1_555 1_555
N4B V1B 1_555 1_555
C10B C9B 1_555 1_555
C14B C9B 1_555 1_555
C3B N2B 1_555 1_555
C5B C6B 1_555 1_555
O1C V1C 1_555 1_555
N2C V1C 1_555 1_555
N3C V1C 1_555 1_555
C9C C14C 1_555 1_555
C13C C14C 1_555 1_555
C18C C17C 1_555 1_555
O3B Na1B 1_555 1_555
O1C_2 Na1C 1_555 1_555
O2C Na1C 1_555 1_555
C21B O4B 1_555 1_555
C15A N4B 1_555 1_555
C11B C10B 1_555 1_555
C13B C14B 1_555 1_555
C4B C3B 1_555 1_555
Na1C_2 O1C 1_555 1_555
C3C N2C 1_555 1_555
C7C N2C 1_555 1_555
C8A N3C 1_555 1_555
C10C C9C 1_555 1_555
C12C C13C 1_555 1_555
C15B O3B 1_555 1_555
C8C O2C 1_555 1_555
C16A C21B 1_555 1_555
C20A C21B 1_555 1_555
O3A C15A 1_555 1_555
C12B C11B 1_555 1_555
C4C C3C 1_555 1_555
C6C C7C 1_555 1_555
O2A C8A 1_555 1_555
C11C C10C 1_555 1_555
N4A C15B 1_555 1_555
C16B C15B 1_555 1_555
N3A C8C 1_555 1_555
C7A C8C 1_555 1_555
C17A C16A 1_555 1_555
C19A C20A 1_555 1_555
Na1A O3A 1_555 1_555
C5C C4C 1_555 1_555
Na1A_2 O2A 1_555 1_555
V1A N4A 1_555 1_555
C14A N4A 1_555 1_555
C17B C16B 1_555 1_555
C21A C16B 1_555 1_555
V1A_2 N3A 1_555 1_555
C9A N3A 1_555 1_555
N2A C7A 1_555 1_555
C6A C7A 1_555 1_555
C18A C17A 1_555 1_555
O1A Na1A 1_555 1_555
O2A_2 Na1A 1_555 1_555
O1A_2 V1A 1_555 1_555
O4A V1A 1_555 1_555
N2A_2 V1A 1_555 1_555
N3A_2 V1A 1_555 1_555
C9A_2 C14A 1_555 1_555
C13A C14A 1_555 1_555
C18B C17B 1_555 1_555
C20B C21A 1_555 1_555
C10A C9A 1_555 1_555
C14A_2 C9A 1_555 1_555
C3A N2A 1_555 1_555
C5A C6A 1_555 1_555
V1A_3 O1A 1_555 1_555
C12A C13A 1_555 1_555
C19B C18B 1_555 1_555
C11A C10A 1_555 1_555
C4A C3A 1_555 1_555
C11A_2 C12A 1_555 1_555
C12A_2 C11A 1_555 1_555
C6 C7 1_555 1_555
C7 C8B 1_555 1_555
C9 C14 1_555 1_555
C13 C14 1_555 1_555
C20 C21C 1_555 1_555
C15C C16C 1_555 1_555
V1B N2B 1_555 1_555
V1C O4C 1_555 1_555
C19C C18C 1_555 1_555
Na1B O1B 1_555 1_555
N4B C14B 1_555 1_555
C5B C4B 1_555 1_555
N3C C9C 1_555 1_555
C15A C16A 1_555 1_555
C13B C12B 1_555 1_555
C7C C8A 1_555 1_555
C12C C11C 1_555 1_555
C6C C5C 1_555 1_555
C19A C18A 1_555 1_555
C21A O4A 1_555 1_555
V1A_2 N2A 1_555 1_555
C20B C19B 1_555 1_555
C5A C4A 1_555 1_555

#END
