
#######################################################################
#
#                 Cambridge Crystallographic Data Centre
#                                CCDC 
#
#######################################################################
#
# If this CIF has been generated from an entry in the Cambridge 
# Structural Database, then it will include bibliographic, chemical, 
# crystal, experimental, refinement or atomic coordinate data resulting 
# from the CCDC's data processing and validation procedures.
#
#######################################################################

data_LAFMAG01
_symmetry_cell_setting           triclinic
_symmetry_space_group_name_H-M   'P -1'
_symmetry_Int_Tables_number      2
_space_group_name_Hall           '-P 1'
loop_
_symmetry_equiv_pos_site_id
_symmetry_equiv_pos_as_xyz
1 x,y,z
2 -x,-y,-z
_cell_length_a                   6.011(11)
_cell_length_b                   10.041(14)
_cell_length_c                   12.959(14)
_cell_angle_alpha                67.758(10)
_cell_angle_beta                 75.511(10)
_cell_angle_gamma                76.426(10)
_cell_volume                     692.33
loop_
_atom_site_label
_atom_site_type_symbol
_atom_site_fract_x
_atom_site_fract_y
_atom_site_fract_z
Cd1 Cd 0.21907(7) 0.16078(4) 0.20920(4)
S1 S 1.0638(3) 0.1694(2) 0.02259(15)
C1 C 0.7837(12) 0.1651(8) 0.0719(6)
N1 N 0.5889(12) 0.1633(9) 0.1036(6)
S2 S 0.3613(3) 0.1951(2) 0.37962(16)
C2 C 0.6465(12) 0.1854(8) 0.3387(6)
N2 N 0.8450(12) 0.1789(8) 0.3130(6)
N3 N 0.2694(9) -0.0982(6) 0.2758(5)
C3 C 0.0388(10) -0.1474(8) 0.3111(6)
H1 H -0.0549 -0.1087 0.3691
H2 H -0.0402 -0.1087 0.2466
C4 C 0.4076(11) -0.1616(7) 0.1884(5)
H3 H 0.5612 -0.1335 0.1652
H4 H 0.3330 -0.1218 0.1224
C5 C 0.3887(11) -0.1663(7) 0.3754(6)
H5 H 0.5419 -0.1381 0.3542
H6 H 0.3012 -0.1293 0.4354
N4 N 0.0579(10) -0.3087(7) 0.3557(6)
N5 N 0.4314(9) -0.3210(6) 0.2292(5)
N6 N 0.4132(10) -0.3244(6) 0.4186(5)
C6 C 0.1966(13) -0.3620(8) 0.2630(6)
H7 H 0.2095 -0.4671 0.2882
H8 H 0.1183 -0.3206 0.1983
C7 C 0.1841(12) -0.3685(8) 0.4513(6)
H9 H 0.2014 -0.4740 0.4785
H10 H 0.0943 -0.3351 0.5128
C8 C 0.5455(11) -0.3812(8) 0.3297(6)
H11 H 0.5592 -0.4866 0.3581
H12 H 0.7010 -0.3562 0.3082
O2 O 0.1537(12) 0.4129(7) 0.1261(5)
N2_2 N -0.1550(12) 0.1789(8) 0.3130(6)
Cd1_2 Cd 1.21907(7) 0.16078(4) 0.20920(4)
S1_2 S 0.0638(3) 0.1694(2) 0.02259(15)
O1 O 0.3273(10) -0.5005(6) -0.1031(5)
loop_
_geom_bond_atom_site_label_1
_geom_bond_atom_site_label_2
_geom_bond_site_symmetry_1
_geom_bond_site_symmetry_2
Cd1 N1 1_555 1_555
S1 C1 1_555 1_555
C1 N1 1_555 1_555
S2 Cd1 1_555 1_555
C2 S2 1_555 1_555
N2 C2 1_555 1_555
N3 Cd1 1_555 1_555
C3 N3 1_555 1_555
H1 C3 1_555 1_555
H2 C3 1_555 1_555
C4 N3 1_555 1_555
H3 C4 1_555 1_555
H4 C4 1_555 1_555
C5 N3 1_555 1_555
H5 C5 1_555 1_555
H6 C5 1_555 1_555
N4 C3 1_555 1_555
N5 C4 1_555 1_555
N6 C5 1_555 1_555
C6 N4 1_555 1_555
H7 C6 1_555 1_555
H8 C6 1_555 1_555
C7 N4 1_555 1_555
H9 C7 1_555 1_555
H10 C7 1_555 1_555
C8 N5 1_555 1_555
H11 C8 1_555 1_555
H12 C8 1_555 1_555
O2 Cd1 1_555 1_555
N2_2 Cd1 1_555 1_555
Cd1_2 S1 1_555 1_555
S1_2 Cd1 1_555 1_555
N2 Cd1_2 1_555 1_555
N5 C6 1_555 1_555
N6 C7 1_555 1_555
N6 C8 1_555 1_555

#END
