
#######################################################################
#
#                 Cambridge Crystallographic Data Centre
#                                CCDC 
#
#######################################################################
#
# If this CIF has been generated from an entry in the Cambridge 
# Structural Database, then it will include bibliographic, chemical, 
# crystal, experimental, refinement or atomic coordinate data resulting 
# from the CCDC's data processing and validation procedures.
#
#######################################################################

data_LAFMOV01
_symmetry_cell_setting           triclinic
_symmetry_space_group_name_H-M   'P -1'
_symmetry_Int_Tables_number      2
_space_group_name_Hall           '-P 1'
loop_
_symmetry_equiv_pos_site_id
_symmetry_equiv_pos_as_xyz
1 x,y,z
2 -x,-y,-z
_cell_length_a                   6.5230(13)
_cell_length_b                   9.7807(12)
_cell_length_c                   10.4712(5)
_cell_angle_alpha                80.215(6)
_cell_angle_beta                 89.872(8)
_cell_angle_gamma                71.376(12)
_cell_volume                     622.895
loop_
_atom_site_label
_atom_site_type_symbol
_atom_site_fract_x
_atom_site_fract_y
_atom_site_fract_z
Er1 Er -0.12599(4) -0.37628(3) -0.17791(2)
O1 O 0.0233(9) -0.2085(5) -0.1045(5)
O2 O 0.0491(7) -0.3933(5) 0.0496(4)
C1 C 0.0880(10) -0.2749(7) 0.0069(6)
C2 C 0.2126(10) -0.2155(7) 0.0910(6)
H1 H 0.297 -0.2925 0.1475
H2 H 0.1417 -0.1697 0.1597
C3 C 0.3353(11) -0.1243(7) 0.0114(7)
H3 H 0.4185 -0.0778 0.0645
H4 H 0.2422 -0.0355 -0.0615
C4 C 0.5051(9) -0.2113(6) -0.0696(6)
O3 O 0.5892(7) -0.3488(5) -0.0330(4)
O4 O 0.5656(8) -0.1499(5) -0.1699(5)
C5 C -0.2995(11) -0.4777(7) -0.3727(6)
C6 C -0.3829(11) -0.5360(8) -0.4781(7)
H5 H -0.3599 -0.6394 -0.4475
H6 H -0.2963 -0.5287 -0.5528
O5 O -0.0998(7) -0.5226(5) -0.3421(5)
O6 O -0.4252(7) -0.3864(6) -0.3126(5)
O7 O 0.2484(7) -0.4828(5) -0.1946(4)
H7 H 0.3134 -0.441 -0.24
H8 H 0.3462 -0.5405 -0.1133
O8 O -0.0807(8) -0.2216(5) -0.3613(4)
H9 H 0.0242 -0.1734 -0.3786
H10 H -0.0992 -0.225 -0.4393
Er1A Er 0.12599(4) -0.62372(3) 0.17791(2)
Er1_2 Er 0.87401(4) -0.37628(3) -0.17791(2)
Er1A_2 Er -0.87401(4) -0.62372(3) -0.82209(2)
Er1A_3 Er -0.87401(4) -0.62372(3) 0.17791(2)
O1A O -0.0233(9) -0.7915(5) 0.1045(5)
O2A O -0.0491(7) -0.6067(5) -0.0496(4)
C1A C -0.0880(10) -0.7251(7) -0.0069(6)
C2A C -0.2126(10) -0.7845(7) -0.0910(6)
H1A H -0.297 -0.7075 -0.1475
H2A H -0.1417 -0.8303 -0.1597
C3A C -0.3353(11) -0.8757(7) -0.0114(7)
H3A H -0.4185 -0.9222 -0.0645
H4A H -0.2422 -0.9645 0.0615
C4A C -0.5051(9) -0.7887(6) 0.0696(6)
O3A O -0.5892(7) -0.6512(5) 0.0330(4)
O3_2 O -0.4108(7) -0.3488(5) -0.0330(4)
O3A_2 O 0.4108(7) -0.6512(5) 0.0330(4)
O4A O -0.5656(8) -0.8501(5) 0.1699(5)
O4_2 O -0.4344(8) -0.1499(5) -0.1699(5)
O4A_2 O 0.4344(8) -0.8501(5) 0.1699(5)
C5A C -0.7005(11) -0.5223(7) -0.6273(6)
C6A C -0.6171(11) -0.4640(8) -0.5219(7)
H5A H -0.6401 -0.3606 -0.5525
H6A H -0.7037 -0.4713 -0.4472
O5A O -0.9002(7) -0.4774(5) -0.6579(5)
O5A_2 O 0.0998(7) -0.4774(5) 0.3421(5)
O6A O -0.5748(7) -0.6136(6) -0.6874(5)
O6A_2 O 0.4252(7) -0.6136(6) 0.3126(5)
O7A O -0.2484(7) -0.5172(5) 0.1946(4)
H7A H -0.3134 -0.559 0.24
H8A H -0.3462 -0.4595 0.1133
O8A O 0.0807(8) -0.7784(5) 0.3613(4)
H9A H -0.0242 -0.8266 0.3786
H10A H 0.0992 -0.775 0.4393
O9 O 0.2241(10) -0.0826(6) -0.3919(6)
H11 H 0.2401 -0.13 -0.4541
H12 H 0.2637 -0.1446 -0.3218
O10 O 0.3831(11) -0.1062(6) -0.6516(7)
H13 H 0.3401 -0.172 -0.6751
H14 H 0.2722 -0.0316 -0.6499
O11 O -0.1757(10) -0.2153(6) -0.6129(5)
H15 H -0.1382 -0.1623 -0.5672
H16 H -0.3133 -0.1884 -0.6178
loop_
_geom_bond_atom_site_label_1
_geom_bond_atom_site_label_2
_geom_bond_site_symmetry_1
_geom_bond_site_symmetry_2
Er1 O1 1_555 1_555
O1 C1 1_555 1_555
O2 Er1 1_555 1_555
C1 O2 1_555 1_555
C2 C1 1_555 1_555
H1 C2 1_555 1_555
H2 C2 1_555 1_555
C3 C2 1_555 1_555
H3 C3 1_555 1_555
H4 C3 1_555 1_555
C4 C3 1_555 1_555
O3 C4 1_555 1_555
O4 C4 1_555 1_555
C5 C6 1_555 1_555
C6 H5 1_555 1_555
H6 C6 1_555 1_555
O5 Er1 1_555 1_555
O6 Er1 1_555 1_555
O7 Er1 1_555 1_555
H7 O7 1_555 1_555
H8 O7 1_555 1_555
O8 Er1 1_555 1_555
H9 O8 1_555 1_555
H10 O8 1_555 1_555
O9 H11 1_555 1_555
H12 O9 1_555 1_555
O10 H13 1_555 1_555
H14 O10 1_555 1_555
O11 H15 1_555 1_555
H16 O11 1_555 1_555
Er1A O2 1_555 1_555
Er1_2 O3 1_555 1_555
Er1A_2 O5A 1_555 1_555
Er1A_3 O3A 1_555 1_555
O1A Er1A 1_555 1_555
O2A Er1 1_555 1_555
C1A O1A 1_555 1_555
C2A C1A 1_555 1_555
H1A C2A 1_555 1_555
H2A C2A 1_555 1_555
C3A C2A 1_555 1_555
H3A C3A 1_555 1_555
H4A C3A 1_555 1_555
C4A C3A 1_555 1_555
O3A C4A 1_555 1_555
O3_2 Er1 1_555 1_555
O3A_2 Er1A 1_555 1_555
O4A Er1A_3 1_555 1_555
O4_2 Er1 1_555 1_555
O4A_2 Er1A 1_555 1_555
C5A C6A 1_555 1_555
C6A C6 1_555 1_555
H5A C6A 1_555 1_555
H6A C6A 1_555 1_555
O5A C5A 1_555 1_555
O5A_2 Er1A 1_555 1_555
O6A Er1A_2 1_555 1_555
O6A_2 Er1A 1_555 1_555
O7A Er1A 1_555 1_555
H7A O7A 1_555 1_555
H8A O7A 1_555 1_555
O8A Er1A 1_555 1_555
H9A O8A 1_555 1_555
H10A O8A 1_555 1_555
O4 Er1_2 1_555 1_555
C5 O5 1_555 1_555
C5 O6 1_555 1_555
Er1A O2A 1_555 1_555
O2A C1A 1_555 1_555
C4A O4A 1_555 1_555
C5A O6A 1_555 1_555

#END
