
#######################################################################
#
#                 Cambridge Crystallographic Data Centre
#                                CCDC 
#
#######################################################################
#
# If this CIF has been generated from an entry in the Cambridge 
# Structural Database, then it will include bibliographic, chemical, 
# crystal, experimental, refinement or atomic coordinate data resulting 
# from the CCDC's data processing and validation procedures.
#
#######################################################################

data_LAFMEL
_symmetry_cell_setting           orthorhombic
_symmetry_space_group_name_H-M   'P b c a'
_symmetry_Int_Tables_number      61
_space_group_name_Hall           '-P 2ac 2ab'
loop_
_symmetry_equiv_pos_site_id
_symmetry_equiv_pos_as_xyz
1 x,y,z
2 1/2-x,-y,1/2+z
3 1/2+x,1/2-y,-z
4 -x,1/2+y,1/2-z
5 -x,-y,-z
6 1/2+x,y,1/2-z
7 1/2-x,1/2+y,z
8 x,1/2-y,1/2+z
_cell_length_a                   11.890(3)
_cell_length_b                   7.9087(15)
_cell_length_c                   14.664(4)
_cell_angle_alpha                90
_cell_angle_beta                 90
_cell_angle_gamma                90
_cell_volume                     1378.92
loop_
_atom_site_label
_atom_site_type_symbol
_atom_site_fract_x
_atom_site_fract_y
_atom_site_fract_z
H1 H -0.199(3) -0.002(4) 0.454(3)
H2 H -0.171(2) 0.175(5) 0.4668(19)
H3 H -0.192(2) -0.075(4) 0.625(2)
Ni1 Ni 0.0000 0.0000 0.5000
O1 O -0.15376(10) 0.0759(2) 0.44496(9)
O2 O 0.07578(9) 0.23525(17) 0.48789(8)
O3 O -0.17602(9) 0.38689(19) 0.51493(10)
N1 N -0.05973(12) 0.0545(2) 0.62904(10)
C1 C -0.07916(14) 0.4499(3) 0.50721(12)
C2 C 0.03367(14) 0.3793(3) 0.49449(11)
N2 N -0.15738(16) -0.0087(3) 0.66102(13)
C3 C -0.1817(2) 0.0552(4) 0.74271(17)
H4 H -0.2451 0.0305 0.7774
C4 C -0.0246(2) 0.1581(3) 0.69327(15)
H5 H 0.0415 0.2207 0.6899
C5 C -0.0980(3) 0.1622(4) 0.76620(16)
H6 H -0.0913 0.2248 0.8196
C2D C -0.03367(14) 0.6207(3) 0.50551(11)
O2D O -0.07578(9) 0.76475(17) 0.51211(8)
C1D C 0.07916(14) 0.5501(3) 0.49279(12)
O3D O 0.17602(9) 0.61311(19) 0.48507(10)
H1D H 0.199(3) 0.002(4) 0.546(3)
H2D H 0.171(2) -0.175(5) 0.5332(19)
O1D O 0.15376(10) -0.0759(2) 0.55504(9)
H3D H 0.192(2) 0.075(4) 0.375(2)
N1D N 0.05973(12) -0.0545(2) 0.37096(10)
N2D N 0.15738(16) 0.0087(3) 0.33898(13)
C3D C 0.1817(2) -0.0552(4) 0.25729(17)
H4D H 0.2451 -0.0305 0.2226
C4D C 0.0246(2) -0.1581(3) 0.30673(15)
H5D H -0.0415 -0.2207 0.3101
C5D C 0.0980(3) -0.1622(4) 0.23380(16)
H6D H 0.0913 -0.2248 0.1804
O2D_2 O -0.07578(9) -0.23525(17) 0.51211(8)
Ni1_2 Ni 0.0000 1.0000 0.5000
loop_
_geom_bond_atom_site_label_1
_geom_bond_atom_site_label_2
_geom_bond_site_symmetry_1
_geom_bond_site_symmetry_2
H1 O1 1_555 1_555
H2 O1 1_555 1_555
H3 N2 1_555 1_555
Ni1 O1 1_555 1_555
O2 Ni1 1_555 1_555
O3 C1 1_555 1_555
N1 Ni1 1_555 1_555
C1 C2 1_555 1_555
C2 O2 1_555 1_555
N2 N1 1_555 1_555
C3 N2 1_555 1_555
H4 C3 1_555 1_555
C4 N1 1_555 1_555
H5 C4 1_555 1_555
C5 C3 1_555 1_555
H6 C5 1_555 1_555
C2D C1 1_555 1_555
O2D C2D 1_555 1_555
C1D C2 1_555 1_555
O3D C1D 1_555 1_555
H1D O1D 1_555 1_555
H2D O1D 1_555 1_555
O1D Ni1 1_555 1_555
H3D N2D 1_555 1_555
N1D Ni1 1_555 1_555
N2D N1D 1_555 1_555
C3D N2D 1_555 1_555
H4D C3D 1_555 1_555
C4D N1D 1_555 1_555
H5D C4D 1_555 1_555
C5D C3D 1_555 1_555
H6D C5D 1_555 1_555
O2D_2 Ni1 1_555 1_555
Ni1_2 O2D 1_555 1_555
C4 C5 1_555 1_555
C2D C1D 1_555 1_555
C4D C5D 1_555 1_555

#END
