
#######################################################################
#
#                 Cambridge Crystallographic Data Centre
#                                CCDC 
#
#######################################################################
#
# If this CIF has been generated from an entry in the Cambridge 
# Structural Database, then it will include bibliographic, chemical, 
# crystal, experimental, refinement or atomic coordinate data resulting 
# from the CCDC's data processing and validation procedures.
#
#######################################################################

data_LAFMOV
_symmetry_cell_setting           triclinic
_symmetry_space_group_name_H-M   'P -1'
_symmetry_Int_Tables_number      2
_space_group_name_Hall           '-P 1'
loop_
_symmetry_equiv_pos_site_id
_symmetry_equiv_pos_as_xyz
1 x,y,z
2 -x,-y,-z
_cell_length_a                   6.517(1)
_cell_length_b                   9.774(1)
_cell_length_c                   10.466(1)
_cell_angle_alpha                80.19(1)
_cell_angle_beta                 89.84(1)
_cell_angle_gamma                71.37(1)
_cell_volume                     621.533
loop_
_atom_site_label
_atom_site_type_symbol
_atom_site_fract_x
_atom_site_fract_y
_atom_site_fract_z
Er1 Er 0.37408(3) 0.623859(19) 0.322129(16)
O1 O 0.5466(6) 0.6072(4) 0.5489(3)
O2 O 0.5231(7) 0.7919(4) 0.3949(4)
C1 C 0.5886(7) 0.7251(5) 0.5066(5)
C2 C 0.7138(8) 0.7847(6) 0.5912(4)
H1 H 0.8161 0.7037 0.6493
H2 H 0.6143 0.8455 0.6439
C3 C 0.8364(8) 0.8751(6) 0.5109(5)
H3 H 0.7331 0.9560 0.4533
H4 H 0.9062 0.9165 0.5688
C4 C 1.0055(7) 0.7890(5) 0.4309(4)
O3 O 1.0901(6) 0.6511(4) 0.4674(3)
O4 O 1.0668(7) 0.8510(4) 0.3314(4)
O5 O 0.0743(6) 0.6147(5) 0.1869(4)
O6 O 0.4005(6) 0.4768(4) 0.1583(4)
C5 C 0.2007(8) 0.5223(5) 0.1272(5)
C6 C 0.1193(8) 0.4630(7) 0.0214(5)
H5 H 0.1437 0.3592 0.0512
H6 H 0.2049 0.4722 -0.0535
O7 O 0.4173(6) 0.7778(4) 0.1391(3)
O8 O 0.7477(6) 0.5172(4) 0.3043(3)
H7 H 0.3962 0.7602 0.0702
H8 H 0.4917 0.8189 0.1244
H9 H 0.8408 0.5430 0.2696
H10 H 0.8331 0.4575 0.3659
C6A C -0.1193(8) 0.5370(7) -0.0214(5)
C5A C -0.2007(8) 0.4777(5) -0.1272(5)
O5A O -0.0743(6) 0.3853(5) -0.1869(4)
O6A O -0.4005(6) 0.5232(4) -0.1583(4)
H5A H -0.1437 0.6408 -0.0512
H6A H -0.2049 0.5278 0.0535
O3_2 O 0.0901(6) 0.6511(4) 0.4674(3)
O4_2 O 0.0668(7) 0.8510(4) 0.3314(4)
O1A O 0.4534(6) 0.3928(4) 0.4511(3)
Er1A Er 0.62592(3) 0.376141(19) 0.677871(16)
Er1_2 Er 1.37408(3) 0.623859(19) 0.322129(16)
Er1A_2 Er -0.37408(3) 0.376141(19) -0.322129(16)
Er1A_3 Er -0.37408(3) 0.376141(19) 0.677871(16)
C1A C 0.4114(7) 0.2749(5) 0.4934(5)
O2A O 0.4769(7) 0.2081(4) 0.6051(4)
O3A O 0.9099(6) 0.3489(4) 0.5326(3)
O4A O 0.9332(7) 0.1490(4) 0.6686(4)
O5A_2 O 0.9257(6) 0.3853(5) 0.8131(4)
O6A_2 O 0.5995(6) 0.5232(4) 0.8417(4)
O7A O 0.5827(6) 0.2222(4) 0.8609(3)
O8A O 0.2523(6) 0.4828(4) 0.6957(3)
O3A_2 O -0.0901(6) 0.3489(4) 0.5326(3)
O4A_2 O -0.0668(7) 0.1490(4) 0.6686(4)
C2A C 0.2862(8) 0.2153(6) 0.4088(4)
H7A H 0.6038 0.2398 0.9298
H8A H 0.5083 0.1811 0.8756
H9A H 0.1592 0.4570 0.7304
H10A H 0.1669 0.5425 0.6341
C4A C -0.0055(7) 0.2110(5) 0.5691(4)
H1A H 0.1839 0.2963 0.3507
H2A H 0.3857 0.1545 0.3561
C3A C 0.1636(8) 0.1249(6) 0.4891(5)
H3A H 0.2669 0.0440 0.5467
H4A H 0.0938 0.0835 0.4312
O9 O 0.3221(8) 0.7857(5) -0.1118(4)
H11 H 0.1835 0.8202 -0.1243
H12 H 0.3788 0.7305 -0.1460
O10 O 0.7257(7) 0.9147(5) 0.1083(5)
H13 H 0.6927 1.0009 0.1254
H14 H 0.8510 0.8618 0.1411
O11 O 1.1191(9) 1.1060(5) 0.1528(5)
H15 H 1.1634 1.0254 0.2080
H16 H 1.1672 1.0985 0.0759
loop_
_geom_bond_atom_site_label_1
_geom_bond_atom_site_label_2
_geom_bond_site_symmetry_1
_geom_bond_site_symmetry_2
Er1 O1 1_555 1_555
O1 C1 1_555 1_555
O2 Er1 1_555 1_555
C1 O2 1_555 1_555
C2 C1 1_555 1_555
H1 C2 1_555 1_555
H2 C2 1_555 1_555
C3 C2 1_555 1_555
H3 C3 1_555 1_555
H4 C3 1_555 1_555
C4 C3 1_555 1_555
O3 C4 1_555 1_555
O4 C4 1_555 1_555
O5 Er1 1_555 1_555
O6 Er1 1_555 1_555
C5 O5 1_555 1_555
C6 C5 1_555 1_555
H5 C6 1_555 1_555
H6 C6 1_555 1_555
O7 Er1 1_555 1_555
O8 Er1 1_555 1_555
H7 O7 1_555 1_555
H8 O7 1_555 1_555
H9 O8 1_555 1_555
H10 O8 1_555 1_555
O9 H11 1_555 1_555
H12 O9 1_555 1_555
O10 H13 1_555 1_555
H14 O10 1_555 1_555
O11 H15 1_555 1_555
H16 O11 1_555 1_555
C6A C6 1_555 1_555
C5A C6A 1_555 1_555
O5A C5A 1_555 1_555
O6A C5A 1_555 1_555
H5A C6A 1_555 1_555
H6A C6A 1_555 1_555
O3_2 Er1 1_555 1_555
O4_2 Er1 1_555 1_555
O1A Er1 1_555 1_555
Er1A O1 1_555 1_555
Er1_2 O3 1_555 1_555
Er1A_2 O5A 1_555 1_555
Er1A_3 O3A_2 1_555 1_555
C1A O1A 1_555 1_555
O2A Er1A 1_555 1_555
O3A Er1A 1_555 1_555
O4A Er1A 1_555 1_555
O5A_2 Er1A 1_555 1_555
O6A_2 Er1A 1_555 1_555
O7A Er1A 1_555 1_555
O8A Er1A 1_555 1_555
O3A_2 C4A 1_555 1_555
O4A_2 Er1A_3 1_555 1_555
C2A C1A 1_555 1_555
H7A O7A 1_555 1_555
H8A O7A 1_555 1_555
H9A O8A 1_555 1_555
H10A O8A 1_555 1_555
C4A O4A_2 1_555 1_555
H1A C2A 1_555 1_555
H2A C2A 1_555 1_555
C3A C2A 1_555 1_555
H3A C3A 1_555 1_555
H4A C3A 1_555 1_555
O4 Er1_2 1_555 1_555
O6 C5 1_555 1_555
O6A Er1A_2 1_555 1_555
O1A Er1A 1_555 1_555
C1A O2A 1_555 1_555
C4A C3A 1_555 1_555

#END
