
#######################################################################
#
#                 Cambridge Crystallographic Data Centre
#                                CCDC 
#
#######################################################################
#
# If this CIF has been generated from an entry in the Cambridge 
# Structural Database, then it will include bibliographic, chemical, 
# crystal, experimental, refinement or atomic coordinate data resulting 
# from the CCDC's data processing and validation procedures.
#
#######################################################################

data_LAFMAG
_symmetry_cell_setting           triclinic
_symmetry_space_group_name_H-M   'P -1'
_symmetry_Int_Tables_number      2
_space_group_name_Hall           '-P 1'
loop_
_symmetry_equiv_pos_site_id
_symmetry_equiv_pos_as_xyz
1 x,y,z
2 -x,-y,-z
_cell_length_a                   6.004(2)
_cell_length_b                   10.051(3)
_cell_length_c                   12.839(4)
_cell_angle_alpha                105.79(9)
_cell_angle_beta                 102.63(7)
_cell_angle_gamma                103.65(3)
_cell_volume                     690.547
loop_
_atom_site_label
_atom_site_type_symbol
_atom_site_fract_x
_atom_site_fract_y
_atom_site_fract_z
Cd1 Cd 0.4283(1) -0.6607 0.2093
S1 S 0.0865(2) -0.6701(1) 0.0220(1)
S2 S -0.2593(2) -0.6950(1) 0.3793(1)
C1 C -0.1441(8) -0.6667(5) 0.0709(4)
C2 C -0.0158(8) -0.6848(5) 0.3391(4)
C3 C 0.5952(9) -0.3386(5) 0.1876(4)
C4 C 0.4603(9) -0.1387(5) 0.2642(4)
C5 C 0.8756(8) -0.1206(5) 0.3285(4)
C6 C 0.6323(9) -0.1333(5) 0.4521(4)
C7 C 0.7645(8) -0.3335(5) 0.3774(4)
C8 C 0.3496(8) -0.3516(5) 0.3131(4)
N1 N -0.3083(8) -0.6643(5) 0.1036(4)
N2 N 0.1569(8) -0.6797(5) 0.3124(4)
N3 N 0.5454(6) -0.3996(4) 0.2774(3)
N4 N 0.6608(7) -0.1795(4) 0.2281(3)
N5 N 0.4115(7) -0.1930(4) 0.3550(3)
N6 N 0.8330(7) -0.1743(4) 0.4205(3)
O1 O 0.2791(7) -0.9143(4) 0.1271(3)
H1 H 0.096(20) -0.938(11) 0.1408(88)
H2 H 0.295(15) -0.9239(87) 0.0474(74)
H3 H 0.4360 -0.3829 0.1148
H4 H 0.7415 -0.3698 0.1631
H5 H 0.3000 -0.1842 0.1920
H6 H 0.5609 -0.0214 0.2948
H7 H 0.9247 -0.0032 0.3593
H8 H 1.0213 -0.1527 0.3041
H9 H 0.5989 -0.1743 0.5186
H10 H 0.6802 -0.0159 0.4829
H11 H 0.9110 -0.3647 0.3630
H12 H 0.7307 -0.3741 0.4440
H13 H 0.3162 -0.3921 0.3798
H14 H 0.1889 -0.3959 0.2411
N1_2 N 0.6917(8) -0.6643(5) 0.1036(4)
Cd1_2 Cd -0.5717(1) -0.6607 0.2093
S2_2 S 0.7407(2) -0.6950(1) 0.3793(1)
O2 O 0.2232(9) -0.9888(5) -0.1028(4)
H15 H 0.272(20) -1.057(12) -0.1331(94)
H16 H 0.254(17) -0.946(11) -0.1323(79)
loop_
_geom_bond_atom_site_label_1
_geom_bond_atom_site_label_2
_geom_bond_site_symmetry_1
_geom_bond_site_symmetry_2
Cd1 S1 1_555 1_555
S1 C1 1_555 1_555
S2 C2 1_555 1_555
C1 N1 1_555 1_555
C2 N2 1_555 1_555
C3 N3 1_555 1_555
C4 N4 1_555 1_555
C5 N4 1_555 1_555
C6 N5 1_555 1_555
C7 N3 1_555 1_555
C8 N3 1_555 1_555
N1 Cd1_2 1_555 1_555
N2 Cd1 1_555 1_555
N3 Cd1 1_555 1_555
N4 C3 1_555 1_555
N5 C4 1_555 1_555
N6 C5 1_555 1_555
O1 Cd1 1_555 1_555
H1 O1 1_555 1_555
H2 O1 1_555 1_555
H3 C3 1_555 1_555
H4 C3 1_555 1_555
H5 C4 1_555 1_555
H6 C4 1_555 1_555
H7 C5 1_555 1_555
H8 C5 1_555 1_555
H9 C6 1_555 1_555
H10 C6 1_555 1_555
H11 C7 1_555 1_555
H12 C7 1_555 1_555
H13 C8 1_555 1_555
H14 C8 1_555 1_555
O2 H15 1_555 1_555
H16 O2 1_555 1_555
N1_2 Cd1 1_555 1_555
Cd1_2 S2 1_555 1_555
S2_2 Cd1 1_555 1_555
C6 N6 1_555 1_555
C7 N6 1_555 1_555
C8 N5 1_555 1_555

#END
