
#######################################################################
#
#                 Cambridge Crystallographic Data Centre
#                                CCDC 
#
#######################################################################
#
# If this CIF has been generated from an entry in the Cambridge 
# Structural Database, then it will include bibliographic, chemical, 
# crystal, experimental, refinement or atomic coordinate data resulting 
# from the CCDC's data processing and validation procedures.
#
#######################################################################

data_LAFPIR
_symmetry_cell_setting           monoclinic
_symmetry_space_group_name_H-M   'P 21/n'
_symmetry_Int_Tables_number      14
_space_group_name_Hall           '-P 2yn'
loop_
_symmetry_equiv_pos_site_id
_symmetry_equiv_pos_as_xyz
1 x,y,z
2 1/2-x,1/2+y,1/2-z
3 -x,-y,-z
4 1/2+x,1/2-y,1/2+z
_cell_length_a                   10.348(2)
_cell_length_b                   8.1248(9)
_cell_length_c                   19.784(3)
_cell_angle_alpha                90
_cell_angle_beta                 103.30(2)
_cell_angle_gamma                90
_cell_volume                     1618.74
loop_
_atom_site_label
_atom_site_type_symbol
_atom_site_fract_x
_atom_site_fract_y
_atom_site_fract_z
P1 P 0.31597(5) 0.33656(7) 0.30342(3)
O1 O 0.4427(1) 0.7667(2) 0.35133(7)
O2 O 0.1976(1) 0.7420(2) 0.37292(7)
C1 C 0.4965(2) 0.3360(3) 0.3179(1)
C2 C 0.2780(2) 0.3005(2) 0.3877(1)
C3 C 0.5372(3) 0.8346(4) 0.3166(1)
C4 C 0.4006(3) 0.8854(3) 0.3942(1)
C5 C 0.3008(3) 0.8077(3) 0.4275(1)
C6 C 0.0888(3) 0.6796(5) 0.3978(2)
C7 C 0.5875(2) 0.2667(3) 0.3748(1)
C8 C 0.7229(2) 0.2710(3) 0.3791(1)
C9 C 0.7740(2) 0.3395(4) 0.3277(1)
C10 C 0.6873(3) 0.4068(4) 0.2703(2)
C11 C 0.5516(3) 0.4025(3) 0.2659(1)
C12 C 0.1595(2) 0.2201(3) 0.3901(1)
C13 C 0.1173(2) 0.2018(3) 0.4511(1)
C14 C 0.1940(2) 0.2622(4) 0.5128(1)
C15 C 0.3113(2) 0.3407(3) 0.5125(1)
C16 C 0.3525(2) 0.3620(3) 0.4514(1)
Li1 Li 0.2810(3) 0.6501(5) 0.2993(2)
H1 H 0.498(2) 0.935(3) 0.288(1)
H2 H 0.557(2) 0.750(3) 0.288(1)
H3 H 0.618(3) 0.876(3) 0.349(1)
H4 H 0.366(2) 0.985(3) 0.365(1)
H5 H 0.484(2) 0.929(3) 0.431(1)
H6 H 0.335(2) 0.709(2) 0.459(1)
H7 H 0.264(2) 0.893(3) 0.454(1)
H8 H 0.019(3) 0.634(3) 0.357(1)
H9 H 0.115(3) 0.573(4) 0.427(1)
H10 H 0.052(3) 0.765(4) 0.416(2)
H11 H 0.547(2) 0.218(2) 0.411(1)
H12 H 0.778(2) 0.212(3) 0.418(1)
H13 H 0.872(2) 0.337(3) 0.331(1)
H14 H 0.722(2) 0.449(3) 0.231(1)
H15 H 0.494(2) 0.461(3) 0.228(1)
H16 H 0.111(2) 0.172(3) 0.348(1)
H17 H 0.038(2) 0.138(3) 0.451(1)
H18 H 0.165(2) 0.238(3) 0.553(1)
H19 H 0.362(2) 0.395(3) 0.552(1)
H20 H 0.435(2) 0.421(3) 0.450(1)
Li1A Li 0.2190(3) 0.1501(5) 0.2007(2)
P1A P 0.18403(5) 0.83656(7) 0.19658(3)
P1A_2 P 0.18403(5) -0.16344(7) 0.19658(3)
O1A O 0.0573(1) 0.2667(2) 0.14867(7)
O2A O 0.3024(1) 0.2420(2) 0.12708(7)
C1A C 0.0035(2) 0.8360(3) 0.1821(1)
C2A C 0.2220(2) 0.8005(2) 0.1123(1)
Li1A_2 Li 0.2190(3) 1.1501(5) 0.2007(2)
C3A C -0.0372(3) 0.3346(4) 0.1834(1)
C4A C 0.0994(3) 0.3854(3) 0.1058(1)
C5A C 0.1992(3) 0.3077(3) 0.0725(1)
C6A C 0.4112(3) 0.1796(5) 0.1022(2)
C7A C -0.0875(2) 0.7667(3) 0.1252(1)
C11A C -0.0516(3) 0.9025(3) 0.2341(1)
C12A C 0.3405(2) 0.7201(3) 0.1099(1)
C16A C 0.1475(2) 0.8620(3) 0.0486(1)
H1A H 0.002(2) 0.435(3) 0.212(1)
H2A H -0.057(2) 0.250(3) 0.212(1)
H3A H -0.118(3) 0.376(3) 0.151(1)
H4A H 0.134(2) 0.485(3) 0.135(1)
H5A H 0.016(2) 0.429(3) 0.069(1)
H6A H 0.165(2) 0.209(2) 0.041(1)
H7A H 0.236(2) 0.393(3) 0.046(1)
H8A H 0.481(3) 0.134(3) 0.143(1)
H9A H 0.385(3) 0.073(4) 0.073(1)
H10A H 0.448(3) 0.265(4) 0.084(2)
C8A C -0.2229(2) 0.7710(3) 0.1209(1)
H11A H -0.047(2) 0.718(2) 0.089(1)
C10A C -0.1873(3) 0.9068(4) 0.2297(2)
H15A H 0.006(2) 0.961(3) 0.272(1)
C13A C 0.3827(2) 0.7018(3) 0.0489(1)
H16A H 0.389(2) 0.672(3) 0.152(1)
C15A C 0.1887(2) 0.8407(3) -0.0125(1)
H20A H 0.065(2) 0.921(3) 0.050(1)
C9A C -0.2740(2) 0.8395(4) 0.1723(1)
H12A H -0.278(2) 0.712(3) 0.082(1)
H14A H -0.222(2) 0.949(3) 0.269(1)
C14A C 0.3060(2) 0.7622(4) -0.0128(1)
H17A H 0.462(2) 0.638(3) 0.049(1)
H19A H 0.138(2) 0.895(3) -0.052(1)
H13A H -0.372(2) 0.837(3) 0.169(1)
H18A H 0.335(2) 0.738(3) -0.053(1)
loop_
_geom_bond_atom_site_label_1
_geom_bond_atom_site_label_2
_geom_bond_site_symmetry_1
_geom_bond_site_symmetry_2
P1 C1 1_555 1_555
O1 C3 1_555 1_555
O2 C5 1_555 1_555
C1 C7 1_555 1_555
C2 P1 1_555 1_555
C3 H1 1_555 1_555
C4 O1 1_555 1_555
C5 C4 1_555 1_555
C6 O2 1_555 1_555
C7 C8 1_555 1_555
C8 C9 1_555 1_555
C9 C10 1_555 1_555
C10 C11 1_555 1_555
C11 C1 1_555 1_555
C12 C2 1_555 1_555
C13 C12 1_555 1_555
C14 C13 1_555 1_555
C15 C14 1_555 1_555
C16 C2 1_555 1_555
Li1 P1 1_555 1_555
H2 C3 1_555 1_555
H3 C3 1_555 1_555
H4 C4 1_555 1_555
H5 C4 1_555 1_555
H6 C5 1_555 1_555
H7 C5 1_555 1_555
H8 C6 1_555 1_555
H9 C6 1_555 1_555
H10 C6 1_555 1_555
H11 C7 1_555 1_555
H12 C8 1_555 1_555
H13 C9 1_555 1_555
H14 C10 1_555 1_555
H15 C11 1_555 1_555
H16 C12 1_555 1_555
H17 C13 1_555 1_555
H18 C14 1_555 1_555
H19 C15 1_555 1_555
H20 C16 1_555 1_555
Li1A P1 1_555 1_555
P1A Li1 1_555 1_555
P1A_2 Li1A 1_555 1_555
O1A Li1A 1_555 1_555
O2A Li1A 1_555 1_555
C1A P1A 1_555 1_555
C2A P1A 1_555 1_555
Li1A_2 P1A 1_555 1_555
C3A O1A 1_555 1_555
C4A O1A 1_555 1_555
C5A O2A 1_555 1_555
C6A O2A 1_555 1_555
C7A C1A 1_555 1_555
C11A C1A 1_555 1_555
C12A C2A 1_555 1_555
C16A C2A 1_555 1_555
H1A C3A 1_555 1_555
H2A C3A 1_555 1_555
H3A C3A 1_555 1_555
H4A C4A 1_555 1_555
H5A C4A 1_555 1_555
H6A C5A 1_555 1_555
H7A C5A 1_555 1_555
H8A C6A 1_555 1_555
H9A C6A 1_555 1_555
H10A C6A 1_555 1_555
C8A C7A 1_555 1_555
H11A C7A 1_555 1_555
C10A C11A 1_555 1_555
H15A C11A 1_555 1_555
C13A C12A 1_555 1_555
H16A C12A 1_555 1_555
C15A C16A 1_555 1_555
H20A C16A 1_555 1_555
C9A C8A 1_555 1_555
H12A C8A 1_555 1_555
H14A C10A 1_555 1_555
C14A C13A 1_555 1_555
H17A C13A 1_555 1_555
H19A C15A 1_555 1_555
H13A C9A 1_555 1_555
H18A C14A 1_555 1_555
O1 Li1 1_555 1_555
O2 Li1 1_555 1_555
C15 C16 1_555 1_555
C4A C5A 1_555 1_555
C10A C9A 1_555 1_555
C15A C14A 1_555 1_555

#END
