
#######################################################################
#
#                 Cambridge Crystallographic Data Centre
#                                CCDC 
#
#######################################################################
#
# If this CIF has been generated from an entry in the Cambridge 
# Structural Database, then it will include bibliographic, chemical, 
# crystal, experimental, refinement or atomic coordinate data resulting 
# from the CCDC's data processing and validation procedures.
#
#######################################################################

data_LAFQUG
_symmetry_cell_setting           cubic
_symmetry_space_group_name_H-M   'F d -3 c'
_symmetry_Int_Tables_number      228
_space_group_name_Hall           '-F 4ud 2vw 3'
loop_
_symmetry_equiv_pos_site_id
_symmetry_equiv_pos_as_xyz
1 x,y,z
2 1/4+y,1/4+x,1/2-z
3 1/4+x,-z,3/4+y
4 -z,1/4+y,3/4+x
5 3/4+z,1/4+y,-x
6 1/4-z,x,1/4-y
7 1/4+x,3/4+z,-y
8 y,1/4-z,1/4-x
9 1/4+y,-x,3/4+z
10 x,1/4-y,1/4-z
11 1/4-x,1/4-y,z
12 1/2-y,-x,-z
13 -z,-y,1/2-x
14 z,1/4-x,1/4-y
15 x,1/2+y,1/2+z
16 1/4+y,3/4+x,-z
17 1/4+x,1/2-z,1/4+y
18 -z,3/4+y,1/4+x
19 3/4+z,3/4+y,1/2-x
20 1/4-z,1/2+x,3/4-y
21 1/4+x,1/4+z,1/2-y
22 y,3/4-z,3/4-x
23 1/4+y,1/2-x,1/4+z
24 x,3/4-y,3/4-z
25 1/4-x,3/4-y,1/2+z
26 1/2-y,1/2-x,1/2-z
27 -z,1/2-y,-x
28 z,3/4-x,3/4-y
29 1/2+x,y,1/2+z
30 3/4+y,1/4+x,-z
31 3/4+x,-z,1/4+y
32 1/2-z,1/4+y,1/4+x
33 1/4+z,1/4+y,1/2-x
34 3/4-z,x,3/4-y
35 3/4+x,3/4+z,1/2-y
36 1/2+y,1/4-z,3/4-x
37 3/4+y,-x,1/4+z
38 1/2+x,1/4-y,3/4-z
39 3/4-x,1/4-y,1/2+z
40 -y,-x,1/2-z
41 1/2-z,-y,-x
42 1/2+z,1/4-x,3/4-y
43 1/2+x,1/2+y,z
44 3/4+y,3/4+x,1/2-z
45 3/4+x,1/2-z,3/4+y
46 1/2-z,3/4+y,3/4+x
47 1/4+z,3/4+y,-x
48 3/4-z,1/2+x,1/4-y
49 3/4+x,1/4+z,-y
50 1/2+y,3/4-z,1/4-x
51 3/4+y,1/2-x,3/4+z
52 1/2+x,3/4-y,1/4-z
53 3/4-x,3/4-y,z
54 -y,1/2-x,-z
55 1/2-z,1/2-y,1/2-x
56 1/2+z,3/4-x,1/4-y
57 -x,1/2-z,-y
58 3/4-y,z,3/4-x
59 3/4-z,3/4-x,y
60 3/4-y,3/4-z,x
61 1/2-x,3/4+z,3/4+y
62 3/4+z,1/2-y,3/4+x
63 3/4-x,y,3/4-z
64 1/2-y,3/4+x,3/4+z
65 y,z,x
66 z,x,y
67 -x,-z,1/2-y
68 3/4-y,1/2+z,1/4-x
69 3/4-z,1/4-x,1/2+y
70 3/4-y,1/4-z,1/2+x
71 1/2-x,1/4+z,1/4+y
72 3/4+z,-y,1/4+x
73 3/4-x,1/2+y,1/4-z
74 1/2-y,1/4+x,1/4+z
75 y,1/2+z,1/2+x
76 z,1/2+x,1/2+y
77 1/2-x,1/2-z,1/2-y
78 1/4-y,z,1/4-x
79 1/4-z,3/4-x,1/2+y
80 1/4-y,3/4-z,1/2+x
81 -x,3/4+z,1/4+y
82 1/4+z,1/2-y,1/4+x
83 1/4-x,y,1/4-z
84 -y,3/4+x,1/4+z
85 1/2+y,z,1/2+x
86 1/2+z,x,1/2+y
87 1/2-x,-z,-y
88 1/4-y,1/2+z,3/4-x
89 1/4-z,1/4-x,y
90 1/4-y,1/4-z,x
91 -x,1/4+z,3/4+y
92 1/4+z,-y,3/4+x
93 1/4-x,1/2+y,3/4-z
94 -y,1/4+x,3/4+z
95 1/2+y,1/2+z,x
96 1/2+z,1/2+x,y
97 -x,-y,-z
98 3/4-y,3/4-x,1/2+z
99 3/4-x,z,1/4-y
100 z,3/4-y,1/4-x
101 1/4-z,3/4-y,x
102 3/4+z,-x,3/4+y
103 3/4-x,1/4-z,y
104 -y,3/4+z,3/4+x
105 3/4-y,x,1/4-z
106 -x,3/4+y,3/4+z
107 3/4+x,3/4+y,-z
108 1/2+y,x,z
109 z,y,1/2+x
110 -z,3/4+x,3/4+y
111 -x,1/2-y,1/2-z
112 3/4-y,1/4-x,z
113 3/4-x,1/2+z,3/4-y
114 z,1/4-y,3/4-x
115 1/4-z,1/4-y,1/2+x
116 3/4+z,1/2-x,1/4+y
117 3/4-x,3/4-z,1/2+y
118 -y,1/4+z,1/4+x
119 3/4-y,1/2+x,3/4-z
120 -x,1/4+y,1/4+z
121 3/4+x,1/4+y,1/2-z
122 1/2+y,1/2+x,1/2+z
123 z,1/2+y,x
124 -z,1/4+x,1/4+y
125 1/2-x,-y,1/2-z
126 1/4-y,3/4-x,z
127 1/4-x,z,3/4-y
128 1/2+z,3/4-y,3/4-x
129 3/4-z,3/4-y,1/2+x
130 1/4+z,-x,1/4+y
131 1/4-x,1/4-z,1/2+y
132 1/2-y,3/4+z,1/4+x
133 1/4-y,x,3/4-z
134 1/2-x,3/4+y,1/4+z
135 1/4+x,3/4+y,1/2-z
136 y,x,1/2+z
137 1/2+z,y,x
138 1/2-z,3/4+x,1/4+y
139 1/2-x,1/2-y,-z
140 1/4-y,1/4-x,1/2+z
141 1/4-x,1/2+z,1/4-y
142 1/2+z,1/4-y,1/4-x
143 3/4-z,1/4-y,x
144 1/4+z,1/2-x,3/4+y
145 1/4-x,3/4-z,y
146 1/2-y,1/4+z,3/4+x
147 1/4-y,1/2+x,1/4-z
148 1/2-x,1/4+y,3/4+z
149 1/4+x,1/4+y,-z
150 y,1/2+x,z
151 1/2+z,1/2+y,1/2+x
152 1/2-z,1/4+x,3/4+y
153 x,1/2+z,y
154 1/4+y,-z,1/4+x
155 1/4+z,1/4+x,-y
156 1/4+y,1/4+z,-x
157 1/2+x,1/4-z,1/4-y
158 1/4-z,1/2+y,1/4-x
159 1/4+x,-y,1/4+z
160 1/2+y,1/4-x,1/4-z
161 -y,-z,-x
162 -z,-x,-y
163 x,z,1/2+y
164 1/4+y,1/2-z,3/4+x
165 1/4+z,3/4+x,1/2-y
166 1/4+y,3/4+z,1/2-x
167 1/2+x,3/4-z,3/4-y
168 1/4-z,y,3/4-x
169 1/4+x,1/2-y,3/4+z
170 1/2+y,3/4-x,3/4-z
171 -y,1/2-z,1/2-x
172 -z,1/2-x,1/2-y
173 1/2+x,1/2+z,1/2+y
174 3/4+y,-z,3/4+x
175 3/4+z,1/4+x,1/2-y
176 3/4+y,1/4+z,1/2-x
177 x,1/4-z,3/4-y
178 3/4-z,1/2+y,3/4-x
179 3/4+x,-y,3/4+z
180 y,1/4-x,3/4-z
181 1/2-y,-z,1/2-x
182 1/2-z,-x,1/2-y
183 1/2+x,z,y
184 3/4+y,1/2-z,1/4+x
185 3/4+z,3/4+x,-y
186 3/4+y,3/4+z,-x
187 x,3/4-z,1/4-y
188 3/4-z,y,1/4-x
189 3/4+x,1/2-y,1/4+z
190 y,3/4-x,1/4-z
191 1/2-y,1/2-z,-x
192 1/2-z,1/2-x,-y
_cell_length_a                   63.724(7)
_cell_length_b                   63.724(7)
_cell_length_c                   63.724(7)
_cell_angle_alpha                90
_cell_angle_beta                 90
_cell_angle_gamma                90
_cell_volume                     258767
loop_
_atom_site_label
_atom_site_type_symbol
_atom_site_fract_x
_atom_site_fract_y
_atom_site_fract_z
Co1 Co 0.370919(12) 1.0000 0.120919(12)
Co2 Co 0.3750 0.8750 0.247768(14)
S1 S 0.32744(3) 0.95616(3) 0.16365(3)
S2 S 0.29936(4) 0.86906(8) 0.25415(4)
N1 N 0.35581(7) 0.97582(6) 0.13693(7)
N2 N 0.34248(8) 0.87261(7) 0.24895(7)
N3 N 0.48516(7) 0.88395(6) 0.15974(7)
N4 N 0.40107(7) 0.98399(7) 0.12391(7)
N5 N 0.43919(7) 0.92959(7) 0.15989(7)
N6 N 0.40420(7) 0.93836(7) 0.16926(7)
N7 N 0.42257(7) 0.91194(8) 0.18807(7)
N8 N 0.37099(7) 0.89869(8) 0.22381(7)
N9 N 0.37510(8) 0.84894(8) 0.26961(7)
N10 N 0.42187(8) 0.84393(8) 0.31371(8)
C1 C 0.34422(8) 0.96714(8) 0.14797(9)
C2 C 0.32463(12) 0.87120(12) 0.25110(9)
C3 C 0.48888(10) 0.87342(10) 0.17760(11)
H1 H 0.4998 0.8633 0.1777
C4 C 0.47763(11) 0.87654(12) 0.19586(13)
H2 H 0.4814 0.8693 0.2083
C5 C 0.46088(10) 0.89020(10) 0.19583(12)
H3 H 0.4524 0.8920 0.2079
C6 C 0.45683(9) 0.90120(8) 0.17750(9)
C7 C 0.46957(8) 0.89790(7) 0.16023(8)
H4 H 0.4671 0.9061 0.1480
C8 C 0.41685(11) 0.98583(11) 0.11019(12)
H5 H 0.4157 0.9961 0.0994
C9 C 0.43485(12) 0.97360(13) 0.11085(13)
H6 H 0.4456 0.9755 0.1007
C10 C 0.43692(11) 0.95877(12) 0.12624(11)
H7 H 0.4490 0.9500 0.1269
C11 C 0.42084(9) 0.95684(9) 0.14104(9)
C12 C 0.40339(8) 0.96959(8) 0.13913(8)
H8 H 0.3924 0.9681 0.1491
C13 C 0.42172(8) 0.94082(8) 0.15778(8)
C14 C 0.43865(8) 0.91525(9) 0.17523(8)
C15 C 0.40556(8) 0.92374(9) 0.18426(8)
C16 C 0.38710(8) 0.90339(9) 0.21148(8)
H9 H 0.3995 0.8951 0.2126
C17 C 0.38688(9) 0.91970(10) 0.19699(9)
C18 C 0.36869(11) 0.93150(12) 0.19504(12)
H10 H 0.3678 0.9427 0.1852
C19 C 0.35183(12) 0.92655(14) 0.20774(13)
H11 H 0.3391 0.9342 0.2066
C20 C 0.35372(10) 0.91040(12) 0.22207(11)
H12 H 0.3422 0.9075 0.2311
C21 C 0.36170(12) 0.83277(11) 0.26698(11)
H13 H 0.3513 0.8339 0.2564
C22 C 0.36236(15) 0.81485(12) 0.27886(14)
H14 H 0.3527 0.8038 0.2763
C23 C 0.37719(13) 0.81310(12) 0.29455(13)
H15 H 0.3780 0.8009 0.3030
C24 C 0.39103(11) 0.82984(10) 0.29766(10)
C25 C 0.38959(9) 0.84717(9) 0.28474(8)
H16 H 0.3993 0.8583 0.2866
C26 C 0.40736(10) 0.82889(10) 0.31395(10)
Co1PE Co 0.2500 0.870919(12) 0.129081(12)
Co1XC Co 0.379081(12) 1.129081(12) 0.0000
Co1CF Co 0.5000 0.879081(12) 0.129081(12)
Co1TC Co 0.379081(12) 1.120919(12) 0.2500
Co1SA Co 0.379081(12) 0.7500 0.120919(12)
Co1M Co 0.120919(12) 0.879081(12) 0.2500
Co2PE Co 0.3750 0.8750 0.002232(14)
Co2GE Co 0.252232(14) 1.1250 0.1250
Co2IC Co 0.3750 0.747768(14) 0.3750
Co2UA Co 0.502232(14) 0.8750 0.3750
Co2FA Co 0.497768(14) 1.1250 0.1250
Co2IA Co 0.3750 1.002232(14) 0.3750
Co2M Co 0.247768(14) 0.8750 0.3750
Co2DA Co 0.1250 0.752232(14) 0.1250
S1MC S 0.41365(3) 1.04384(3) 0.07744(3)
S1PE S 0.29384(3) 0.82744(3) 0.08635(3)
S1IF S 0.20616(3) 0.91365(3) 0.17256(3)
S1IG S 0.33635(3) 1.17256(3) 0.04384(3)
S1XC S 0.42256(3) 1.08635(3) -0.04384(3)
S2ZA S 0.45064(4) 0.88094(8) 0.25415(4)
S2PE S 0.38094(8) 0.79936(4) -0.00415(4)
S2CF S 0.36906(8) 0.95064(4) -0.00415(4)
S2IG S 0.24585(4) 1.20064(4) 0.13094(8)
S2GE S 0.24585(4) 1.04936(4) 0.11906(8)
N1MC N 0.38693(7) 1.02418(6) 0.10581(7)
N1PE N 0.27418(6) 0.85581(7) 0.11307(7)
N1IF N 0.22582(6) 0.88693(7) 0.14419(7)
N1IG N 0.36307(7) 1.14419(7) 0.02418(6)
N1XC N 0.39419(7) 1.11307(7) -0.02418(6)
N2ZA N 0.40752(8) 0.87739(7) 0.24895(7)
N2PE N 0.37739(7) 0.84248(8) 0.00105(7)
N2CF N 0.37261(7) 0.90752(8) 0.00105(7)
N2IG N 0.25105(7) 1.15752(8) 0.12739(7)
N2GE N 0.25105(7) 1.09248(8) 0.12261(7)
N3PE N 0.36605(6) 0.98516(7) 0.09026(7)
N3IG N 0.34026(7) 1.01484(7) 0.11605(6)
N3MC N 0.40974(7) 1.11605(6) 0.23516(7)
N3ZA N 0.26484(7) 0.86605(6) 0.15974(7)
N3DA N 0.23516(7) 0.84026(7) 0.13395(6)
N3FA N 0.40974(7) 1.13395(6) 0.01484(7)
N3FC N 0.38395(6) 1.15974(7) -0.01484(7)
N4PE N 0.26601(7) 0.90107(7) 0.12609(7)
N4IG N 0.37609(7) 1.09893(7) 0.01601(7)
N4MC N 0.37391(7) 1.01601(7) 0.15107(7)
N4ZA N 0.34893(7) 0.76601(7) 0.12391(7)
N4DA N 0.15107(7) 0.87609(7) 0.23399(7)
N4IF N 0.23399(7) 0.87391(7) 0.09893(7)
N4XC N 0.34893(7) 1.12609(7) -0.01601(7)
N5PE N 0.32041(7) 0.93919(7) 0.09011(7)
N5IG N 0.34011(7) 1.06081(7) 0.07041(7)
N5MC N 0.40989(7) 1.07041(7) 0.18919(7)
N5ZA N 0.31081(7) 0.82041(7) 0.15989(7)
N5DA N 0.18919(7) 0.84011(7) 0.17959(7)
N6PE N 0.31164(7) 0.90420(7) 0.08074(7)
N6IG N 0.33074(7) 1.09580(7) 0.06164(7)
N6MC N 0.41926(7) 1.06164(7) 0.15420(7)
N6ZA N 0.34580(7) 0.81164(7) 0.16926(7)
N6DA N 0.15420(7) 0.83074(7) 0.18836(7)
N7PE N 0.33806(8) 0.92257(7) 0.06193(7)
N7IG N 0.31193(7) 1.07743(7) 0.08806(8)
N7MC N 0.43807(7) 1.08806(8) 0.17257(7)
N7ZA N 0.32743(7) 0.83806(8) 0.18807(7)
N7DA N 0.17257(7) 0.81193(7) 0.16194(8)
N8PE N 0.35131(8) 0.87099(7) 0.02619(7)
N8IG N 0.27619(7) 1.12901(7) 0.10131(8)
N8MC N 0.47381(7) 1.10131(8) 0.12099(7)
N8ZA N 0.37901(7) 0.85131(8) 0.22381(7)
N8DA N 0.12099(7) 0.77619(7) 0.14869(8)
N8CF N 0.39869(8) 0.87901(7) 0.02619(7)
N8GE N 0.27619(7) 1.12099(7) 0.14869(8)
N9IC N 0.40106(8) 0.76961(7) 0.37490(8)
N9PB N 0.48039(7) 0.87490(8) 0.34894(8)
N9ZA N 0.37490(8) 0.90106(8) 0.26961(7)
N9IA N 0.34894(8) 0.98039(7) 0.37490(8)
N9WB N 0.26961(7) 0.87510(8) 0.34894(8)
N9PE N 0.40106(8) 0.87510(8) -0.01961(7)
N9CF N 0.34894(8) 0.87490(8) -0.01961(7)
N9IG N 0.23039(7) 1.12490(8) 0.15106(8)
N9GE N 0.23039(7) 1.12510(8) 0.09894(8)
N10PB N 0.43629(8) 0.82813(8) 0.34393(8)
N10IC N 0.40607(8) 0.81371(8) 0.32813(8)
N10ZA N 0.32813(8) 0.90607(8) 0.31371(8)
N10WB N 0.31371(8) 0.92187(8) 0.34393(8)
N10IA N 0.34393(8) 0.93629(8) 0.32813(8)
C1MC C 0.39797(9) 1.03286(8) 0.09422(8)
C1PE C 0.28286(8) 0.84422(8) 0.10203(9)
C1IF C 0.21714(8) 0.89797(9) 0.15578(8)
C1IG C 0.35203(9) 1.15578(8) 0.03286(8)
C1XC C 0.40578(8) 1.10203(9) -0.03286(8)
C2ZA C 0.42537(12) 0.87880(12) 0.25110(9)
C2PE C 0.37880(12) 0.82463(12) -0.00110(9)
C2CF C 0.37120(12) 0.92537(12) -0.00110(9)
C2IG C 0.24890(9) 1.17537(12) 0.12880(12)
C2GE C 0.24890(9) 1.07463(12) 0.12120(12)
C3PE C 0.37658(10) 0.98888(10) 0.07240(11)
C3IG C 0.32240(11) 1.01112(10) 0.12658(10)
C3MC C 0.42760(11) 1.12658(10) 0.23888(10)
C3ZA C 0.26112(10) 0.87658(10) 0.17760(11)
C3DA C 0.23888(10) 0.82240(11) 0.12342(10)
H1PE H 0.3867 0.9998 0.0723
H1IG H 0.3223 1.0002 0.1367
H1MC H 0.4277 1.1367 0.2498
H1ZA H 0.2502 0.8867 0.1777
H1DA H 0.2498 0.8223 0.1133
C4PE C 0.37346(12) 0.97763(11) 0.05414(13)
C4IG C 0.30414(13) 1.02237(11) 0.12346(12)
C4MC C 0.44586(13) 1.12346(12) 0.22763(11)
C4ZA C 0.27237(11) 0.87346(12) 0.19586(13)
C4DA C 0.22763(11) 0.80414(13) 0.12654(12)
H2PE H 0.3807 0.9814 0.0417
H2IG H 0.2917 1.0186 0.1307
H2MC H 0.4583 1.1307 0.2314
H2ZA H 0.2686 0.8807 0.2083
H2DA H 0.2314 0.7917 0.1193
C5PE C 0.35980(10) 0.96088(10) 0.05417(12)
C5IG C 0.30417(12) 1.03912(10) 0.10980(10)
C5MC C 0.44583(12) 1.10980(10) 0.21088(10)
C5ZA C 0.28912(10) 0.85980(10) 0.19583(12)
C5DA C 0.21088(10) 0.80417(12) 0.14020(10)
H3PE H 0.3580 0.9524 0.0421
H3IG H 0.2921 1.0476 0.1080
H3MC H 0.4579 1.1080 0.2024
H3ZA H 0.2976 0.8580 0.2079
H3DA H 0.2024 0.7921 0.1420
C6PE C 0.34880(8) 0.95683(9) 0.07250(9)
C6IG C 0.32250(9) 1.04317(9) 0.09880(8)
C6MC C 0.42750(9) 1.09880(8) 0.20683(9)
C6ZA C 0.29317(9) 0.84880(8) 0.17750(9)
C6DA C 0.20683(9) 0.82250(9) 0.15120(8)
C7PE C 0.35210(7) 0.96957(8) 0.08977(8)
C7IG C 0.33977(8) 1.03043(8) 0.10210(7)
C7MC C 0.41023(8) 1.10210(7) 0.21957(8)
C7ZA C 0.28043(8) 0.85210(7) 0.16023(8)
C7DA C 0.21957(8) 0.83977(8) 0.14790(7)
H4PE H 0.3439 0.9671 0.1020
H4IG H 0.3520 1.0329 0.0939
H4MC H 0.3980 1.0939 0.2171
H4ZA H 0.2829 0.8439 0.1480
H4DA H 0.2171 0.8520 0.1561
C8PE C 0.26417(11) 0.91685(11) 0.13981(12)
C8IG C 0.38981(12) 1.08315(11) 0.01417(11)
C8MC C 0.36019(12) 1.01417(11) 0.16685(11)
C8ZA C 0.33315(11) 0.76417(11) 0.11019(12)
C8DA C 0.16685(11) 0.88981(12) 0.23583(11)
H5PE H 0.2539 0.9157 0.1506
H5IG H 0.4006 1.0843 0.0039
H5MC H 0.3494 1.0039 0.1657
H5ZA H 0.3343 0.7539 0.0994
H5DA H 0.1657 0.9006 0.2461
C9PE C 0.27640(13) 0.93485(12) 0.13915(13)
C9IG C 0.38915(13) 1.06515(12) 0.02640(13)
C9MC C 0.36085(13) 1.02640(13) 0.18485(12)
C9ZA C 0.31515(12) 0.77640(13) 0.11085(13)
C9DA C 0.18485(12) 0.88915(13) 0.22360(13)
H6PE H 0.2745 0.9456 0.1493
H6IG H 0.3993 1.0544 0.0245
H6MC H 0.3507 1.0245 0.1956
H6ZA H 0.3044 0.7745 0.1007
H6DA H 0.1956 0.8993 0.2255
C10PE C 0.29123(12) 0.93692(11) 0.12376(11)
C10IG C 0.37376(11) 1.06308(11) 0.04123(12)
C10MC C 0.37624(11) 1.04123(12) 0.18692(11)
C10ZA C 0.31308(11) 0.79123(12) 0.12624(11)
C10DA C 0.18692(11) 0.87376(11) 0.20877(12)
H7PE H 0.3000 0.9490 0.1231
H7IG H 0.3731 1.0510 0.0500
H7MC H 0.3769 1.0500 0.1990
H7ZA H 0.3010 0.8000 0.1269
H7DA H 0.1990 0.8731 0.2000
C11PE C 0.29316(9) 0.92084(9) 0.10896(9)
C11IG C 0.35896(9) 1.07916(9) 0.04316(9)
C11MC C 0.39104(9) 1.04316(9) 0.17084(9)
C11ZA C 0.32916(9) 0.79316(9) 0.14104(9)
C11DA C 0.17084(9) 0.85896(9) 0.20684(9)
C12PE C 0.28041(8) 0.90339(8) 0.11087(8)
C12IG C 0.36087(8) 1.09661(8) 0.03041(8)
C12MC C 0.38913(8) 1.03041(8) 0.15339(8)
C12ZA C 0.34661(8) 0.78041(8) 0.13913(8)
C12DA C 0.15339(8) 0.86087(8) 0.21959(8)
H8PE H 0.2819 0.8924 0.1009
H8IG H 0.3509 1.1076 0.0319
H8MC H 0.3991 1.0319 0.1424
H8ZA H 0.3576 0.7819 0.1491
H8DA H 0.1424 0.8509 0.2181
C13PE C 0.30918(8) 0.92172(8) 0.09222(8)
C13IG C 0.34222(8) 1.07828(8) 0.05918(8)
C13MC C 0.40778(8) 1.05918(8) 0.17172(8)
C13ZA C 0.32828(8) 0.80918(8) 0.15778(8)
C13DA C 0.17172(8) 0.84222(8) 0.19082(8)
C14PE C 0.33475(9) 0.93865(8) 0.07477(8)
C14IG C 0.32477(8) 1.06135(8) 0.08475(9)
C14MC C 0.42523(8) 1.08475(9) 0.18865(8)
C14ZA C 0.31135(8) 0.83475(9) 0.17523(8)
C14DA C 0.18865(8) 0.82477(8) 0.16525(9)
C15PE C 0.32626(9) 0.90556(8) 0.06574(8)
C15IG C 0.31574(8) 1.09444(8) 0.07626(9)
C15MC C 0.43426(8) 1.07626(9) 0.15556(8)
C15ZA C 0.34444(8) 0.82626(9) 0.18426(8)
C15DA C 0.15556(8) 0.81574(8) 0.17374(9)
C16PE C 0.34661(9) 0.88710(8) 0.03852(8)
C16IG C 0.28852(8) 1.11290(8) 0.09661(9)
C16MC C 0.46148(8) 1.09661(9) 0.13710(8)
C16ZA C 0.36290(8) 0.84661(9) 0.21148(8)
C16DA C 0.13710(8) 0.78852(8) 0.15339(9)
H9PE H 0.3549 0.8995 0.0374
H9IG H 0.2874 1.1005 0.1049
H9MC H 0.4626 1.1049 0.1495
H9ZA H 0.3505 0.8549 0.2126
H9DA H 0.1495 0.7874 0.1451
C17PE C 0.33030(10) 0.88688(9) 0.05301(9)
C17IG C 0.30301(9) 1.11312(9) 0.08030(10)
C17MC C 0.44699(9) 1.08030(10) 0.13688(9)
C17ZA C 0.36312(9) 0.83030(10) 0.19699(9)
C17DA C 0.13688(9) 0.80301(9) 0.16970(10)
C18PE C 0.31850(12) 0.86869(11) 0.05496(12)
C18IG C 0.30496(12) 1.13131(11) 0.06850(12)
C18MC C 0.44504(12) 1.06850(12) 0.11869(11)
C18ZA C 0.38131(11) 0.81850(12) 0.19504(12)
C18DA C 0.11869(11) 0.80496(12) 0.18150(12)
H10PE H 0.3073 0.8678 0.0648
H10IG H 0.3148 1.1322 0.0573
H10MC H 0.4352 1.0573 0.1178
H10ZA H 0.3822 0.8073 0.1852
H10DA H 0.1178 0.8148 0.1927
C19PE C 0.32345(14) 0.85183(12) 0.04226(13)
C19IG C 0.29226(13) 1.14817(12) 0.07345(14)
C19MC C 0.45774(13) 1.07345(14) 0.10183(12)
C19ZA C 0.39817(12) 0.82345(14) 0.20774(13)
C19DA C 0.10183(12) 0.79226(13) 0.17655(14)
H11PE H 0.3158 0.8391 0.0434
H11IG H 0.2934 1.1609 0.0658
H11MC H 0.4566 1.0658 0.0891
H11ZA H 0.4109 0.8158 0.2066
H11DA H 0.0891 0.7934 0.1842
C20PE C 0.33960(12) 0.85372(10) 0.02793(11)
C20IG C 0.27793(11) 1.14628(10) 0.08960(12)
C20MC C 0.47207(11) 1.08960(12) 0.10372(10)
C20ZA C 0.39628(10) 0.83960(12) 0.22207(11)
C20DA C 0.10372(10) 0.77793(11) 0.16040(12)
H12PE H 0.3425 0.8422 0.0189
H12IG H 0.2689 1.1578 0.0925
H12MC H 0.4811 1.0925 0.0922
H12ZA H 0.4078 0.8425 0.2311
H12DA H 0.0922 0.7689 0.1575
C21IC C 0.41723(11) 0.76698(11) 0.38830(12)
C21PB C 0.48302(11) 0.88830(12) 0.33277(11)
C21ZA C 0.38830(12) 0.91723(11) 0.26698(11)
C21IA C 0.33277(11) 0.98302(11) 0.38830(12)
C21WB C 0.26698(11) 0.86170(12) 0.33277(11)
H13IC H 0.4161 0.7564 0.3987
H13PB H 0.4936 0.8987 0.3339
H13ZA H 0.3987 0.9161 0.2564
H13IA H 0.3339 0.9936 0.3987
H13WB H 0.2564 0.8513 0.3339
C22IC C 0.43515(12) 0.77886(14) 0.38764(15)
C22PB C 0.47114(14) 0.88764(15) 0.31485(12)
C22ZA C 0.38764(15) 0.93515(12) 0.27886(14)
C22IA C 0.31485(12) 0.97114(14) 0.38764(15)
C22WB C 0.27886(14) 0.86236(15) 0.31485(12)
H14IC H 0.4462 0.7763 0.3973
H14PB H 0.4737 0.8973 0.3038
H14ZA H 0.3973 0.9462 0.2763
H14IA H 0.3038 0.9737 0.3973
H14WB H 0.2763 0.8527 0.3038
C23IC C 0.43690(12) 0.79455(13) 0.37281(13)
C23PB C 0.45545(13) 0.87281(13) 0.31310(12)
C23ZA C 0.37281(13) 0.93690(12) 0.29455(13)
C23IA C 0.31310(12) 0.95545(13) 0.37281(13)
C23WB C 0.29455(13) 0.87719(13) 0.31310(12)
H15IC H 0.4491 0.8030 0.3720
H15PB H 0.4470 0.8720 0.3009
H15ZA H 0.3720 0.9491 0.3030
H15IA H 0.3009 0.9470 0.3720
H15WB H 0.3030 0.8780 0.3009
C24IC C 0.42016(10) 0.79766(10) 0.35897(11)
C24PB C 0.45234(10) 0.85897(11) 0.32984(10)
C24ZA C 0.35897(11) 0.92016(10) 0.29766(10)
C24IA C 0.32984(10) 0.95234(10) 0.35897(11)
C24WB C 0.29766(10) 0.89103(11) 0.32984(10)
C25IC C 0.40283(9) 0.78474(8) 0.36041(9)
C25PB C 0.46526(8) 0.86041(9) 0.34717(9)
C25ZA C 0.36041(9) 0.90283(9) 0.28474(8)
C25IA C 0.34717(9) 0.96526(8) 0.36041(9)
C25WB C 0.28474(8) 0.88959(9) 0.34717(9)
H16IC H 0.3917 0.7866 0.3507
H16PB H 0.4634 0.8507 0.3583
H16ZA H 0.3507 0.8917 0.2866
H16IA H 0.3583 0.9634 0.3507
H16WB H 0.2866 0.8993 0.3583
C26PB C 0.43605(10) 0.84264(10) 0.32889(10)
C26IC C 0.42111(10) 0.81395(10) 0.34264(10)
C26ZA C 0.34264(10) 0.92111(10) 0.31395(10)
C26WB C 0.31395(10) 0.90736(10) 0.32889(10)
C26IA C 0.32889(10) 0.93605(10) 0.34264(10)
O1 O 0.40140(17) 0.87042(16) 0.16035(15)
C27 C 0.4204(2) 0.8580(2) 0.1567(2)
H17 H 0.4239 0.8463 0.1651
C28 C 0.43239(18) 0.86438(18) 0.1407(2)
H18 H 0.4448 0.8580 0.1354
C29 C 0.42253(15) 0.88229(17) 0.13393(18)
H19 H 0.4278 0.8912 0.1232
C30 C 0.40444(14) 0.88565(13) 0.14448(14)
H20 H 0.3950 0.8968 0.1416
loop_
_geom_bond_atom_site_label_1
_geom_bond_atom_site_label_2
_geom_bond_site_symmetry_1
_geom_bond_site_symmetry_2
Co1 N1 1_555 1_555
Co2 N2 1_555 1_555
S1 C1 1_555 1_555
S2 C2 1_555 1_555
N1 C1 1_555 1_555
N2 C2 1_555 1_555
N3 C3 1_555 1_555
N4 Co1 1_555 1_555
N5 C13 1_555 1_555
N6 C13 1_555 1_555
N7 C14 1_555 1_555
N8 Co2 1_555 1_555
N9 Co2 1_555 1_555
N10 C26 1_555 1_555
C3 H1 1_555 1_555
C4 C3 1_555 1_555
H2 C4 1_555 1_555
C5 C4 1_555 1_555
H3 C5 1_555 1_555
C6 C5 1_555 1_555
C7 N3 1_555 1_555
H4 C7 1_555 1_555
C8 N4 1_555 1_555
H5 C8 1_555 1_555
C9 C8 1_555 1_555
H6 C9 1_555 1_555
C10 C9 1_555 1_555
H7 C10 1_555 1_555
C11 C10 1_555 1_555
C12 N4 1_555 1_555
H8 C12 1_555 1_555
C13 C11 1_555 1_555
C14 N5 1_555 1_555
C15 N6 1_555 1_555
C16 N8 1_555 1_555
H9 C16 1_555 1_555
C17 C15 1_555 1_555
C18 C17 1_555 1_555
H10 C18 1_555 1_555
C19 C18 1_555 1_555
H11 C19 1_555 1_555
C20 N8 1_555 1_555
H12 C20 1_555 1_555
C21 N9 1_555 1_555
H13 C21 1_555 1_555
C22 C21 1_555 1_555
H14 C22 1_555 1_555
C23 C22 1_555 1_555
H15 C23 1_555 1_555
C24 C23 1_555 1_555
C25 N9 1_555 1_555
H16 C25 1_555 1_555
C26 C24 1_555 1_555
O1 C27 1_555 1_555
C27 H17 1_555 1_555
C28 C27 1_555 1_555
H18 C28 1_555 1_555
C29 C28 1_555 1_555
H19 C29 1_555 1_555
C30 O1 1_555 1_555
H20 C30 1_555 1_555
Co1PE N1PE 1_555 1_555
Co1XC N1IG 1_555 1_555
Co1CF N3 1_555 1_555
Co1TC N3MC 1_555 1_555
Co1SA N4ZA 1_555 1_555
Co1M N4DA 1_555 1_555
Co2PE N2PE 1_555 1_555
Co2GE N2IG 1_555 1_555
Co2IC N9IC 1_555 1_555
Co2UA N9PB 1_555 1_555
Co2FA N8MC 1_555 1_555
Co2IA N9IA 1_555 1_555
Co2M N9WB 1_555 1_555
Co2DA N8DA 1_555 1_555
S1MC C1MC 1_555 1_555
S1PE C1PE 1_555 1_555
S1IF C1IF 1_555 1_555
S1IG C1IG 1_555 1_555
S1XC C1XC 1_555 1_555
S2ZA C2ZA 1_555 1_555
S2PE C2PE 1_555 1_555
S2CF C2CF 1_555 1_555
S2IG C2IG 1_555 1_555
S2GE C2GE 1_555 1_555
N1MC Co1 1_555 1_555
N1PE C1PE 1_555 1_555
N1IF Co1PE 1_555 1_555
N1IG C1IG 1_555 1_555
N1XC Co1XC 1_555 1_555
N2ZA Co2 1_555 1_555
N2PE C2PE 1_555 1_555
N2CF Co2PE 1_555 1_555
N2IG C2IG 1_555 1_555
N2GE Co2GE 1_555 1_555
N3PE Co1 1_555 1_555
N3IG Co1 1_555 1_555
N3MC C3MC 1_555 1_555
N3ZA Co1PE 1_555 1_555
N3DA Co1PE 1_555 1_555
N3FA Co1XC 1_555 1_555
N3FC Co1XC 1_555 1_555
N4PE Co1PE 1_555 1_555
N4IG Co1XC 1_555 1_555
N4MC Co1 1_555 1_555
N4ZA C8ZA 1_555 1_555
N4DA C8DA 1_555 1_555
N4IF Co1PE 1_555 1_555
N4XC Co1XC 1_555 1_555
N5PE C13PE 1_555 1_555
N5IG C13IG 1_555 1_555
N5MC C13MC 1_555 1_555
N5ZA C13ZA 1_555 1_555
N5DA C13DA 1_555 1_555
N6PE C13PE 1_555 1_555
N6IG C13IG 1_555 1_555
N6MC C13MC 1_555 1_555
N6ZA C13ZA 1_555 1_555
N6DA C13DA 1_555 1_555
N7PE C14PE 1_555 1_555
N7IG C14IG 1_555 1_555
N7MC C14MC 1_555 1_555
N7ZA C14ZA 1_555 1_555
N7DA C14DA 1_555 1_555
N8PE Co2PE 1_555 1_555
N8IG Co2GE 1_555 1_555
N8MC C16MC 1_555 1_555
N8ZA Co2 1_555 1_555
N8DA C16DA 1_555 1_555
N8CF Co2PE 1_555 1_555
N8GE Co2GE 1_555 1_555
N9IC C21IC 1_555 1_555
N9PB C21PB 1_555 1_555
N9ZA Co2 1_555 1_555
N9IA C21IA 1_555 1_555
N9WB C21WB 1_555 1_555
N9PE Co2PE 1_555 1_555
N9CF Co2PE 1_555 1_555
N9IG Co2GE 1_555 1_555
N9GE Co2GE 1_555 1_555
N10PB C26PB 1_555 1_555
N10IC C26 1_555 1_555
N10ZA C26ZA 1_555 1_555
N10WB C26WB 1_555 1_555
N10IA C26ZA 1_555 1_555
C1MC N1MC 1_555 1_555
C1IF N1IF 1_555 1_555
C1XC N1XC 1_555 1_555
C2ZA N2ZA 1_555 1_555
C2CF N2CF 1_555 1_555
C2GE N2GE 1_555 1_555
C3PE N3PE 1_555 1_555
C3IG N3IG 1_555 1_555
C3MC H1MC 1_555 1_555
C3ZA N3ZA 1_555 1_555
C3DA N3DA 1_555 1_555
H1PE C3PE 1_555 1_555
H1IG C3IG 1_555 1_555
H1ZA C3ZA 1_555 1_555
H1DA C3DA 1_555 1_555
C4PE C3PE 1_555 1_555
C4IG C3IG 1_555 1_555
C4MC C3MC 1_555 1_555
C4ZA C3ZA 1_555 1_555
C4DA C3DA 1_555 1_555
H2PE C4PE 1_555 1_555
H2IG C4IG 1_555 1_555
H2MC C4MC 1_555 1_555
H2ZA C4ZA 1_555 1_555
H2DA C4DA 1_555 1_555
C5PE C4PE 1_555 1_555
C5IG C4IG 1_555 1_555
C5MC C4MC 1_555 1_555
C5ZA C4ZA 1_555 1_555
C5DA C4DA 1_555 1_555
H3PE C5PE 1_555 1_555
H3IG C5IG 1_555 1_555
H3MC C5MC 1_555 1_555
H3ZA C5ZA 1_555 1_555
H3DA C5DA 1_555 1_555
C6PE C5PE 1_555 1_555
C6IG C5IG 1_555 1_555
C6MC C5MC 1_555 1_555
C6ZA C5ZA 1_555 1_555
C6DA C5DA 1_555 1_555
C7PE N3PE 1_555 1_555
C7IG N3IG 1_555 1_555
C7MC N3MC 1_555 1_555
C7ZA N3ZA 1_555 1_555
C7DA N3DA 1_555 1_555
H4PE C7PE 1_555 1_555
H4IG C7IG 1_555 1_555
H4MC C7MC 1_555 1_555
H4ZA C7ZA 1_555 1_555
H4DA C7DA 1_555 1_555
C8PE N4PE 1_555 1_555
C8IG N4IG 1_555 1_555
C8MC N4MC 1_555 1_555
C8ZA H5ZA 1_555 1_555
C8DA H5DA 1_555 1_555
H5PE C8PE 1_555 1_555
H5IG C8IG 1_555 1_555
H5MC C8MC 1_555 1_555
C9PE C8PE 1_555 1_555
C9IG C8IG 1_555 1_555
C9MC C8MC 1_555 1_555
C9ZA C8ZA 1_555 1_555
C9DA C8DA 1_555 1_555
H6PE C9PE 1_555 1_555
H6IG C9IG 1_555 1_555
H6MC C9MC 1_555 1_555
H6ZA C9ZA 1_555 1_555
H6DA C9DA 1_555 1_555
C10PE C9PE 1_555 1_555
C10IG C9IG 1_555 1_555
C10MC C9MC 1_555 1_555
C10ZA C9ZA 1_555 1_555
C10DA C9DA 1_555 1_555
H7PE C10PE 1_555 1_555
H7IG C10IG 1_555 1_555
H7MC C10MC 1_555 1_555
H7ZA C10ZA 1_555 1_555
H7DA C10DA 1_555 1_555
C11PE C10PE 1_555 1_555
C11IG C10IG 1_555 1_555
C11MC C10MC 1_555 1_555
C11ZA C10ZA 1_555 1_555
C11DA C10DA 1_555 1_555
C12PE N4PE 1_555 1_555
C12IG N4IG 1_555 1_555
C12MC N4MC 1_555 1_555
C12ZA N4ZA 1_555 1_555
C12DA N4DA 1_555 1_555
H8PE C12PE 1_555 1_555
H8IG C12IG 1_555 1_555
H8MC C12MC 1_555 1_555
H8ZA C12ZA 1_555 1_555
H8DA C12DA 1_555 1_555
C13PE C11PE 1_555 1_555
C13IG C11IG 1_555 1_555
C13MC C11MC 1_555 1_555
C13ZA C11ZA 1_555 1_555
C13DA C11DA 1_555 1_555
C14PE N5PE 1_555 1_555
C14IG N5IG 1_555 1_555
C14MC N5MC 1_555 1_555
C14ZA N5ZA 1_555 1_555
C14DA N5DA 1_555 1_555
C15PE N6PE 1_555 1_555
C15IG N6IG 1_555 1_555
C15MC N6MC 1_555 1_555
C15ZA N6ZA 1_555 1_555
C15DA N6DA 1_555 1_555
C16PE N8PE 1_555 1_555
C16IG N8IG 1_555 1_555
C16MC H9MC 1_555 1_555
C16ZA N8ZA 1_555 1_555
C16DA H9DA 1_555 1_555
H9PE C16PE 1_555 1_555
H9IG C16IG 1_555 1_555
H9ZA C16ZA 1_555 1_555
C17PE C15PE 1_555 1_555
C17IG C15IG 1_555 1_555
C17MC C15MC 1_555 1_555
C17ZA C15ZA 1_555 1_555
C17DA C15DA 1_555 1_555
C18PE C17PE 1_555 1_555
C18IG C17IG 1_555 1_555
C18MC C17MC 1_555 1_555
C18ZA C17ZA 1_555 1_555
C18DA C17DA 1_555 1_555
H10PE C18PE 1_555 1_555
H10IG C18IG 1_555 1_555
H10MC C18MC 1_555 1_555
H10ZA C18ZA 1_555 1_555
H10DA C18DA 1_555 1_555
C19PE C18PE 1_555 1_555
C19IG C18IG 1_555 1_555
C19MC C18MC 1_555 1_555
C19ZA C18ZA 1_555 1_555
C19DA C18DA 1_555 1_555
H11PE C19PE 1_555 1_555
H11IG C19IG 1_555 1_555
H11MC C19MC 1_555 1_555
H11ZA C19ZA 1_555 1_555
H11DA C19DA 1_555 1_555
C20PE N8PE 1_555 1_555
C20IG N8IG 1_555 1_555
C20MC N8MC 1_555 1_555
C20ZA N8ZA 1_555 1_555
C20DA N8DA 1_555 1_555
H12PE C20PE 1_555 1_555
H12IG C20IG 1_555 1_555
H12MC C20MC 1_555 1_555
H12ZA C20ZA 1_555 1_555
H12DA C20DA 1_555 1_555
C21IC H13IC 1_555 1_555
C21PB H13PB 1_555 1_555
C21ZA N9ZA 1_555 1_555
C21IA H13IA 1_555 1_555
C21WB H13WB 1_555 1_555
H13ZA C21ZA 1_555 1_555
C22IC C21IC 1_555 1_555
C22PB C21PB 1_555 1_555
C22ZA C21ZA 1_555 1_555
C22IA C21IA 1_555 1_555
C22WB C21WB 1_555 1_555
H14IC C22IC 1_555 1_555
H14PB C22PB 1_555 1_555
H14ZA C22ZA 1_555 1_555
H14IA C22IA 1_555 1_555
H14WB C22WB 1_555 1_555
C23IC C22IC 1_555 1_555
C23PB C22PB 1_555 1_555
C23ZA C22ZA 1_555 1_555
C23IA C22IA 1_555 1_555
C23WB C22WB 1_555 1_555
H15IC C23IC 1_555 1_555
H15PB C23PB 1_555 1_555
H15ZA C23ZA 1_555 1_555
H15IA C23IA 1_555 1_555
H15WB C23WB 1_555 1_555
C24IC C23IC 1_555 1_555
C24PB C23PB 1_555 1_555
C24ZA C23ZA 1_555 1_555
C24IA C23IA 1_555 1_555
C24WB C23WB 1_555 1_555
C25IC N9IC 1_555 1_555
C25PB N9PB 1_555 1_555
C25ZA N9ZA 1_555 1_555
C25IA N9IA 1_555 1_555
C25WB N9WB 1_555 1_555
H16IC C25IC 1_555 1_555
H16PB C25PB 1_555 1_555
H16ZA C25ZA 1_555 1_555
H16IA C25IA 1_555 1_555
H16WB C25WB 1_555 1_555
C26PB N10 1_555 1_555
C26IC N10PB 1_555 1_555
C26ZA C24ZA 1_555 1_555
C26WB N10ZA 1_555 1_555
C26IA N10WB 1_555 1_555
N7 C15 1_555 1_555
C6 C7 1_555 1_555
C6 C14 1_555 1_555
C11 C12 1_555 1_555
C16 C17 1_555 1_555
C19 C20 1_555 1_555
C24 C25 1_555 1_555
C29 C30 1_555 1_555
N7PE C15PE 1_555 1_555
N7IG C15IG 1_555 1_555
N7MC C15MC 1_555 1_555
N7ZA C15ZA 1_555 1_555
N7DA C15DA 1_555 1_555
N10IC C26IC 1_555 1_555
N10IA C26IA 1_555 1_555
C6PE C7PE 1_555 1_555
C6PE C14PE 1_555 1_555
C6IG C7IG 1_555 1_555
C6IG C14IG 1_555 1_555
C6MC C7MC 1_555 1_555
C6MC C14MC 1_555 1_555
C6ZA C7ZA 1_555 1_555
C6ZA C14ZA 1_555 1_555
C6DA C7DA 1_555 1_555
C6DA C14DA 1_555 1_555
C11PE C12PE 1_555 1_555
C11IG C12IG 1_555 1_555
C11MC C12MC 1_555 1_555
C11ZA C12ZA 1_555 1_555
C11DA C12DA 1_555 1_555
C16PE C17PE 1_555 1_555
C16IG C17IG 1_555 1_555
C16MC C17MC 1_555 1_555
C16ZA C17ZA 1_555 1_555
C16DA C17DA 1_555 1_555
C19PE C20PE 1_555 1_555
C19IG C20IG 1_555 1_555
C19MC C20MC 1_555 1_555
C19ZA C20ZA 1_555 1_555
C19DA C20DA 1_555 1_555
C24IC C25IC 1_555 1_555
C24IC C26IC 1_555 1_555
C24PB C25PB 1_555 1_555
C24PB C26PB 1_555 1_555
C24ZA C25ZA 1_555 1_555
C24IA C25IA 1_555 1_555
C24IA C26IA 1_555 1_555
C24WB C25WB 1_555 1_555
C24WB C26WB 1_555 1_555

#END
