
#######################################################################
#
#                 Cambridge Crystallographic Data Centre
#                                CCDC 
#
#######################################################################
#
# If this CIF has been generated from an entry in the Cambridge 
# Structural Database, then it will include bibliographic, chemical, 
# crystal, experimental, refinement or atomic coordinate data resulting 
# from the CCDC's data processing and validation procedures.
#
#######################################################################

data_LAFQOA
_symmetry_cell_setting           cubic
_symmetry_space_group_name_H-M   'F d -3 c'
_symmetry_Int_Tables_number      228
_space_group_name_Hall           '-F 4ud 2vw 3'
loop_
_symmetry_equiv_pos_site_id
_symmetry_equiv_pos_as_xyz
1 x,y,z
2 1/4+y,1/4+x,1/2-z
3 1/4+x,-z,3/4+y
4 -z,1/4+y,3/4+x
5 3/4+z,1/4+y,-x
6 1/4-z,x,1/4-y
7 1/4+x,3/4+z,-y
8 y,1/4-z,1/4-x
9 1/4+y,-x,3/4+z
10 x,1/4-y,1/4-z
11 1/4-x,1/4-y,z
12 1/2-y,-x,-z
13 -z,-y,1/2-x
14 z,1/4-x,1/4-y
15 x,1/2+y,1/2+z
16 1/4+y,3/4+x,-z
17 1/4+x,1/2-z,1/4+y
18 -z,3/4+y,1/4+x
19 3/4+z,3/4+y,1/2-x
20 1/4-z,1/2+x,3/4-y
21 1/4+x,1/4+z,1/2-y
22 y,3/4-z,3/4-x
23 1/4+y,1/2-x,1/4+z
24 x,3/4-y,3/4-z
25 1/4-x,3/4-y,1/2+z
26 1/2-y,1/2-x,1/2-z
27 -z,1/2-y,-x
28 z,3/4-x,3/4-y
29 1/2+x,y,1/2+z
30 3/4+y,1/4+x,-z
31 3/4+x,-z,1/4+y
32 1/2-z,1/4+y,1/4+x
33 1/4+z,1/4+y,1/2-x
34 3/4-z,x,3/4-y
35 3/4+x,3/4+z,1/2-y
36 1/2+y,1/4-z,3/4-x
37 3/4+y,-x,1/4+z
38 1/2+x,1/4-y,3/4-z
39 3/4-x,1/4-y,1/2+z
40 -y,-x,1/2-z
41 1/2-z,-y,-x
42 1/2+z,1/4-x,3/4-y
43 1/2+x,1/2+y,z
44 3/4+y,3/4+x,1/2-z
45 3/4+x,1/2-z,3/4+y
46 1/2-z,3/4+y,3/4+x
47 1/4+z,3/4+y,-x
48 3/4-z,1/2+x,1/4-y
49 3/4+x,1/4+z,-y
50 1/2+y,3/4-z,1/4-x
51 3/4+y,1/2-x,3/4+z
52 1/2+x,3/4-y,1/4-z
53 3/4-x,3/4-y,z
54 -y,1/2-x,-z
55 1/2-z,1/2-y,1/2-x
56 1/2+z,3/4-x,1/4-y
57 -x,1/2-z,-y
58 3/4-y,z,3/4-x
59 3/4-z,3/4-x,y
60 3/4-y,3/4-z,x
61 1/2-x,3/4+z,3/4+y
62 3/4+z,1/2-y,3/4+x
63 3/4-x,y,3/4-z
64 1/2-y,3/4+x,3/4+z
65 y,z,x
66 z,x,y
67 -x,-z,1/2-y
68 3/4-y,1/2+z,1/4-x
69 3/4-z,1/4-x,1/2+y
70 3/4-y,1/4-z,1/2+x
71 1/2-x,1/4+z,1/4+y
72 3/4+z,-y,1/4+x
73 3/4-x,1/2+y,1/4-z
74 1/2-y,1/4+x,1/4+z
75 y,1/2+z,1/2+x
76 z,1/2+x,1/2+y
77 1/2-x,1/2-z,1/2-y
78 1/4-y,z,1/4-x
79 1/4-z,3/4-x,1/2+y
80 1/4-y,3/4-z,1/2+x
81 -x,3/4+z,1/4+y
82 1/4+z,1/2-y,1/4+x
83 1/4-x,y,1/4-z
84 -y,3/4+x,1/4+z
85 1/2+y,z,1/2+x
86 1/2+z,x,1/2+y
87 1/2-x,-z,-y
88 1/4-y,1/2+z,3/4-x
89 1/4-z,1/4-x,y
90 1/4-y,1/4-z,x
91 -x,1/4+z,3/4+y
92 1/4+z,-y,3/4+x
93 1/4-x,1/2+y,3/4-z
94 -y,1/4+x,3/4+z
95 1/2+y,1/2+z,x
96 1/2+z,1/2+x,y
97 -x,-y,-z
98 3/4-y,3/4-x,1/2+z
99 3/4-x,z,1/4-y
100 z,3/4-y,1/4-x
101 1/4-z,3/4-y,x
102 3/4+z,-x,3/4+y
103 3/4-x,1/4-z,y
104 -y,3/4+z,3/4+x
105 3/4-y,x,1/4-z
106 -x,3/4+y,3/4+z
107 3/4+x,3/4+y,-z
108 1/2+y,x,z
109 z,y,1/2+x
110 -z,3/4+x,3/4+y
111 -x,1/2-y,1/2-z
112 3/4-y,1/4-x,z
113 3/4-x,1/2+z,3/4-y
114 z,1/4-y,3/4-x
115 1/4-z,1/4-y,1/2+x
116 3/4+z,1/2-x,1/4+y
117 3/4-x,3/4-z,1/2+y
118 -y,1/4+z,1/4+x
119 3/4-y,1/2+x,3/4-z
120 -x,1/4+y,1/4+z
121 3/4+x,1/4+y,1/2-z
122 1/2+y,1/2+x,1/2+z
123 z,1/2+y,x
124 -z,1/4+x,1/4+y
125 1/2-x,-y,1/2-z
126 1/4-y,3/4-x,z
127 1/4-x,z,3/4-y
128 1/2+z,3/4-y,3/4-x
129 3/4-z,3/4-y,1/2+x
130 1/4+z,-x,1/4+y
131 1/4-x,1/4-z,1/2+y
132 1/2-y,3/4+z,1/4+x
133 1/4-y,x,3/4-z
134 1/2-x,3/4+y,1/4+z
135 1/4+x,3/4+y,1/2-z
136 y,x,1/2+z
137 1/2+z,y,x
138 1/2-z,3/4+x,1/4+y
139 1/2-x,1/2-y,-z
140 1/4-y,1/4-x,1/2+z
141 1/4-x,1/2+z,1/4-y
142 1/2+z,1/4-y,1/4-x
143 3/4-z,1/4-y,x
144 1/4+z,1/2-x,3/4+y
145 1/4-x,3/4-z,y
146 1/2-y,1/4+z,3/4+x
147 1/4-y,1/2+x,1/4-z
148 1/2-x,1/4+y,3/4+z
149 1/4+x,1/4+y,-z
150 y,1/2+x,z
151 1/2+z,1/2+y,1/2+x
152 1/2-z,1/4+x,3/4+y
153 x,1/2+z,y
154 1/4+y,-z,1/4+x
155 1/4+z,1/4+x,-y
156 1/4+y,1/4+z,-x
157 1/2+x,1/4-z,1/4-y
158 1/4-z,1/2+y,1/4-x
159 1/4+x,-y,1/4+z
160 1/2+y,1/4-x,1/4-z
161 -y,-z,-x
162 -z,-x,-y
163 x,z,1/2+y
164 1/4+y,1/2-z,3/4+x
165 1/4+z,3/4+x,1/2-y
166 1/4+y,3/4+z,1/2-x
167 1/2+x,3/4-z,3/4-y
168 1/4-z,y,3/4-x
169 1/4+x,1/2-y,3/4+z
170 1/2+y,3/4-x,3/4-z
171 -y,1/2-z,1/2-x
172 -z,1/2-x,1/2-y
173 1/2+x,1/2+z,1/2+y
174 3/4+y,-z,3/4+x
175 3/4+z,1/4+x,1/2-y
176 3/4+y,1/4+z,1/2-x
177 x,1/4-z,3/4-y
178 3/4-z,1/2+y,3/4-x
179 3/4+x,-y,3/4+z
180 y,1/4-x,3/4-z
181 1/2-y,-z,1/2-x
182 1/2-z,-x,1/2-y
183 1/2+x,z,y
184 3/4+y,1/2-z,1/4+x
185 3/4+z,3/4+x,-y
186 3/4+y,3/4+z,-x
187 x,3/4-z,1/4-y
188 3/4-z,y,1/4-x
189 3/4+x,1/2-y,1/4+z
190 y,3/4-x,1/4-z
191 1/2-y,1/2-z,-x
192 1/2-z,1/2-x,-y
_cell_length_a                   63.628(9)
_cell_length_b                   63.628(9)
_cell_length_c                   63.628(9)
_cell_angle_alpha                90
_cell_angle_beta                 90
_cell_angle_gamma                90
_cell_volume                     257599
loop_
_atom_site_label
_atom_site_type_symbol
_atom_site_fract_x
_atom_site_fract_y
_atom_site_fract_z
Co1 Co -0.128586(15) 0.128586(15) 0.2500
Co2 Co -0.1250 0.002394(17) 0.3750
S1 S -0.08700(4) 0.17232(3) 0.20568(4)
S2 S -0.20052(4) -0.00432(4) 0.38075(9)
N1 N -0.11305(8) 0.14308(8) 0.22523(8)
N2 N -0.15754(10) 0.00121(8) 0.37707(8)
N3 N -0.01452(8) 0.09051(8) 0.36638(8)
N4 N -0.09788(8) 0.12538(8) 0.26510(8)
N5 N -0.09411(8) 0.07946(8) 0.31024(9)
N6 N -0.05937(8) 0.08941(8) 0.31919(8)
N7 N -0.07578(8) 0.06060(9) 0.33673(9)
N8 N -0.12805(8) 0.02614(8) 0.35080(8)
N9 N -0.12477(9) -0.01976(8) 0.34908(8)
N10 N -0.15564(9) -0.07837(9) 0.31402(9)
C1 C -0.10209(11) 0.15500(10) 0.21682(10)
C2 C -0.17520(14) -0.00116(10) 0.37836(14)
C3 C -0.02962(10) 0.08952(10) 0.35173(9)
H1 H -0.0320 0.1016 0.3434
C4 C -0.04181(10) 0.07217(11) 0.34803(10)
C5 C -0.03799(12) 0.05372(14) 0.35921(12)
H2 H -0.0462 0.0414 0.3570
C6 C -0.02159(12) 0.05403(15) 0.37374(14)
H3 H -0.0178 0.0417 0.3813
C7 C -0.01087(11) 0.07280(12) 0.37698(12)
H4 H -0.0002 0.0730 0.3875
C8 C -0.08228(11) 0.13963(12) 0.26347(12)
H5 H -0.0838 0.1507 0.2536
C9 C -0.06425(12) 0.13889(14) 0.27555(13)
H6 H -0.0536 0.1492 0.2739
C10 C -0.06199(12) 0.12307(12) 0.29002(13)
H7 H -0.0498 0.1224 0.2987
C11 C -0.07771(10) 0.10810(10) 0.29189(10)
C12 C -0.09523(10) 0.10972(10) 0.27900(9)
H8 H -0.1058 0.0993 0.2801
C13 C -0.07680(10) 0.09138(10) 0.30796(10)
C14 C -0.09302(10) 0.06474(10) 0.32491(10)
C15 C -0.05978(10) 0.07397(10) 0.33364(11)
C16 C -0.11179(10) 0.03807(10) 0.34578(10)
H9 H -0.0994 0.0369 0.3540
C17 C -0.11175(10) 0.05222(10) 0.32915(10)
C18 C -0.13022(11) 0.05495(11) 0.31784(12)
H10 H -0.1311 0.0651 0.3069
C19 C -0.14717(13) 0.04271(13) 0.32288(14)
H11 H -0.1598 0.0438 0.3150
C20 C -0.14588(11) 0.02852(11) 0.33967(12)
H12 H -0.1579 0.0204 0.3433
C21 C -0.11115(13) -0.01749(12) 0.33304(12)
H13 H -0.1009 -0.0066 0.3339
C22 C -0.11121(14) -0.02991(13) 0.31560(13)
H14 H -0.1010 -0.0280 0.3049
C23 C -0.12644(12) -0.04524(12) 0.31374(12)
H15 H -0.1272 -0.0538 0.3015
C24 C -0.14057(12) -0.04789(11) 0.33005(11)
C25 C -0.13924(10) -0.03479(10) 0.34725(10)
H16 H -0.1491 -0.0366 0.3583
C26 C -0.15684(11) -0.06430(11) 0.32924(10)
Co1SD Co -0.2500 0.121414(15) 0.378586(15)
Co1TC Co -0.121414(15) 0.2500 0.121414(15)
Co1JD Co 0.0000 0.121414(15) 0.371414(15)
Co1XC Co -0.121414(15) 0.0000 0.128586(15)
Co1JA Co -0.121414(15) 0.128586(15) 0.5000
Co1HA Co -0.378586(15) 0.0000 0.371414(15)
Co2JD Co -0.1250 0.247606(17) 0.3750
Co2AG Co -0.247606(17) 0.1250 0.1250
Co2OB Co -0.252394(17) -0.1250 0.3750
Co2E Co -0.1250 -0.1250 0.247606(17)
Co2MA Co -0.002394(17) 0.1250 0.1250
Co2G Co 0.002394(17) -0.1250 0.3750
Co2ZB Co -0.1250 -0.1250 0.502394(17)
Co2HA Co -0.3750 0.1250 0.497606(17)
S1MA S -0.17232(3) 0.08700(4) 0.29432(4)
S1KE S -0.29432(4) 0.07768(3) 0.33700(4)
S1SD S -0.20568(4) 0.16300(4) 0.42232(3)
S1AG S -0.07768(3) 0.29432(4) 0.16300(4)
S1TC S -0.16300(4) 0.20568(4) 0.07768(3)
S2JB S -0.04948(4) -0.00432(4) 0.36925(9)
S2KE S -0.11925(9) 0.25432(4) 0.45052(4)
S2JD S -0.13075(9) 0.25432(4) 0.29948(4)
S2AG S -0.25432(4) 0.11925(9) 0.04948(4)
S2CG S -0.25432(4) 0.13075(9) 0.20052(4)
N1MA N -0.14308(8) 0.11305(8) 0.27477(8)
N1KE N -0.27477(8) 0.10692(8) 0.36305(8)
N1SD N -0.22523(8) 0.13695(8) 0.39308(8)
N1AG N -0.10692(8) 0.27477(8) 0.13695(8)
N1TC N -0.13695(8) 0.22523(8) 0.10692(8)
N2JB N -0.09246(10) 0.00121(8) 0.37293(8)
N2KE N -0.12293(8) 0.24879(8) 0.40754(10)
N2JD N -0.12707(8) 0.24879(8) 0.34246(10)
N2AG N -0.24879(8) 0.12293(8) 0.09246(10)
N2CG N -0.24879(8) 0.12707(8) 0.15754(10)
N3KE N -0.13362(8) 0.15949(8) 0.26452(8)
N3AG N -0.15949(8) 0.13362(8) 0.23548(8)
N3MA N -0.09051(8) 0.01452(8) 0.13362(8)
N3JB N -0.23548(8) 0.09051(8) 0.38362(8)
N3HA N -0.26452(8) 0.11638(8) 0.40949(8)
N3OC N -0.09051(8) 0.23548(8) 0.11638(8)
N3JC N -0.11638(8) 0.26452(8) 0.09051(8)
N4KE N -0.23490(8) 0.12462(8) 0.34788(8)
N4AG N -0.12462(8) 0.23490(8) 0.15212(8)
N4MA N -0.12538(8) 0.09788(8) 0.23490(8)
N4JB N -0.15212(8) 0.12538(8) 0.48490(8)
N4HA N -0.34788(8) 0.01510(8) 0.37462(8)
N4SD N -0.26510(8) 0.15212(8) 0.37538(8)
N4TC N -0.15212(8) 0.26510(8) 0.12462(8)
N5KE N -0.18976(9) 0.17054(8) 0.34411(8)
N5AG N -0.17054(8) 0.18976(9) 0.15589(8)
N5MA N -0.07946(8) 0.09411(8) 0.18976(9)
N5JB N -0.15589(8) 0.07946(8) 0.43976(9)
N5HA N -0.34411(8) 0.06024(9) 0.42054(8)
N6KE N -0.18081(8) 0.16059(8) 0.30937(8)
N6AG N -0.16059(8) 0.18081(8) 0.19063(8)
N6MA N -0.08941(8) 0.05937(8) 0.18081(8)
N6JB N -0.19063(8) 0.08941(8) 0.43081(8)
N6HA N -0.30937(8) 0.06919(8) 0.41059(8)
N7KE N -0.16327(9) 0.18940(9) 0.32578(8)
N7AG N -0.18940(9) 0.16327(9) 0.17422(8)
N7MA N -0.06060(9) 0.07578(8) 0.16327(9)
N7JB N -0.17422(8) 0.06060(9) 0.41327(9)
N7HA N -0.32578(8) 0.08673(9) 0.43940(9)
N8KE N -0.14920(8) 0.22386(8) 0.37805(8)
N8AG N -0.22386(8) 0.14920(8) 0.12195(8)
N8MA N -0.02614(8) 0.12805(8) 0.14920(8)
N8JB N -0.12195(8) 0.02614(8) 0.39920(8)
N8HA N -0.37805(8) 0.10080(8) 0.47386(8)
N8JD N -0.10080(8) 0.22386(8) 0.37195(8)
N8CG N -0.22386(8) 0.10080(8) 0.12805(8)
N9QB N -0.23024(8) -0.09908(8) 0.37523(9)
N9CB N -0.15092(8) -0.12523(9) 0.26976(8)
N9JB N -0.12523(9) -0.01976(8) 0.40092(8)
N9G N -0.01976(8) -0.09908(8) 0.37477(9)
N9ZB N -0.09908(8) -0.12523(9) 0.48024(8)
N9KE N -0.15092(8) 0.26976(8) 0.37477(9)
N9JD N -0.09908(8) 0.26976(8) 0.37523(9)
N9AG N -0.26976(8) 0.15092(8) 0.12523(9)
N9CG N -0.26976(8) 0.09908(8) 0.12477(9)
N10CB N -0.18598(9) -0.09436(9) 0.32837(9)
N10QB N -0.17163(9) -0.06402(9) 0.34436(9)
N10JB N -0.09436(9) -0.07837(9) 0.43598(9)
N10ZB N -0.06402(9) -0.09436(9) 0.42163(9)
N10G N -0.07837(9) -0.06402(9) 0.40564(9)
C1MA C -0.15500(10) 0.10209(11) 0.28318(10)
C1KE C -0.28318(10) 0.09500(10) 0.35209(11)
C1SD C -0.21682(10) 0.14791(11) 0.40500(10)
C1AG C -0.09500(10) 0.28318(10) 0.14791(11)
C1TC C -0.14791(11) 0.21682(10) 0.09500(10)
C2JB C -0.07480(14) -0.00116(10) 0.37164(14)
C2KE C -0.12164(14) 0.25116(10) 0.42520(14)
C2JD C -0.12836(14) 0.25116(10) 0.32480(14)
C2AG C -0.25116(10) 0.12164(14) 0.07480(14)
C2CG C -0.25116(10) 0.12836(14) 0.17520(14)
C3KE C -0.14827(9) 0.16048(10) 0.27962(10)
C3AG C -0.16048(10) 0.14827(9) 0.22038(10)
C3MA C -0.08952(10) 0.02962(10) 0.14827(9)
C3JB C -0.22038(10) 0.08952(10) 0.39827(9)
C3HA C -0.27962(10) 0.10173(9) 0.41048(10)
H1KE H -0.1566 0.1484 0.2820
H1AG H -0.1484 0.1566 0.2180
H1MA H -0.1016 0.0320 0.1566
H1JB H -0.2180 0.1016 0.4066
H1HA H -0.2820 0.0934 0.3984
C4KE C -0.15197(10) 0.17783(11) 0.29181(10)
C4AG C -0.17783(11) 0.15197(10) 0.20819(10)
C4MA C -0.07217(11) 0.04181(10) 0.15197(10)
C4JB C -0.20819(10) 0.07217(11) 0.40197(10)
C4HA C -0.29181(10) 0.09803(10) 0.42783(11)
C5KE C -0.14079(12) 0.19628(14) 0.28799(12)
C5AG C -0.19628(14) 0.14079(12) 0.21201(12)
C5MA C -0.05372(14) 0.03799(12) 0.14079(12)
C5JB C -0.21201(12) 0.05372(14) 0.39079(12)
C5HA C -0.28799(12) 0.10921(12) 0.44628(14)
H2KE H -0.1430 0.2086 0.2962
H2AG H -0.2086 0.1430 0.2038
H2MA H -0.0414 0.0462 0.1430
H2JB H -0.2038 0.0414 0.3930
H2HA H -0.2962 0.1070 0.4586
C6KE C -0.12626(14) 0.19597(15) 0.27159(12)
C6AG C -0.19597(15) 0.12626(14) 0.22841(12)
C6MA C -0.05403(15) 0.02159(12) 0.12626(14)
C6JB C -0.22841(12) 0.05403(15) 0.37626(14)
C6HA C -0.27159(12) 0.12374(14) 0.44597(15)
H3KE H -0.1187 0.2083 0.2678
H3AG H -0.2083 0.1187 0.2322
H3MA H -0.0417 0.0178 0.1187
H3JB H -0.2322 0.0417 0.3687
H3HA H -0.2678 0.1313 0.4583
C7KE C -0.12302(12) 0.17720(12) 0.26087(11)
C7AG C -0.17720(12) 0.12302(12) 0.23913(11)
C7MA C -0.07280(12) 0.01087(11) 0.12302(12)
C7JB C -0.23913(11) 0.07280(12) 0.37302(12)
C7HA C -0.26087(11) 0.12698(12) 0.42720(12)
H4KE H -0.1125 0.1770 0.2502
H4AG H -0.1770 0.1125 0.2498
H4MA H -0.0730 0.0002 0.1125
H4JB H -0.2498 0.0730 0.3625
H4HA H -0.2502 0.1375 0.4270
C8KE C -0.23653(12) 0.11037(12) 0.33228(11)
C8AG C -0.11037(12) 0.23653(12) 0.16772(11)
C8MA C -0.13963(12) 0.08228(11) 0.23653(12)
C8JB C -0.16772(11) 0.13963(12) 0.48653(12)
C8HA C -0.33228(11) 0.01347(12) 0.36037(12)
H5KE H -0.2464 0.0993 0.3338
H5AG H -0.0993 0.2464 0.1662
H5MA H -0.1507 0.0838 0.2464
H5JB H -0.1662 0.1507 0.4964
H5HA H -0.3338 0.0036 0.3493
C9KE C -0.22445(13) 0.11111(14) 0.31425(12)
C9AG C -0.11111(14) 0.22445(13) 0.18575(12)
C9MA C -0.13889(14) 0.06425(12) 0.22445(13)
C9JB C -0.18575(12) 0.13889(14) 0.47445(13)
C9HA C -0.31425(12) 0.02555(13) 0.36111(14)
H6KE H -0.2261 0.1008 0.3036
H6AG H -0.1008 0.2261 0.1964
H6MA H -0.1492 0.0536 0.2261
H6JB H -0.1964 0.1492 0.4761
H6HA H -0.3036 0.0239 0.3508
C10KE C -0.20998(13) 0.12693(12) 0.31199(12)
C10AG C -0.12693(12) 0.20998(13) 0.18801(12)
C10MA C -0.12307(12) 0.06199(12) 0.20998(13)
C10JB C -0.18801(12) 0.12307(12) 0.45998(13)
C10HA C -0.31199(12) 0.04002(13) 0.37693(12)
H7KE H -0.2013 0.1276 0.2998
H7AG H -0.1276 0.2013 0.2002
H7MA H -0.1224 0.0498 0.2013
H7JB H -0.2002 0.1224 0.4513
H7HA H -0.2998 0.0487 0.3776
C11KE C -0.20811(10) 0.14190(10) 0.32771(10)
C11AG C -0.14190(10) 0.20811(10) 0.17229(10)
C11MA C -0.10810(10) 0.07771(10) 0.20811(10)
C11JB C -0.17229(10) 0.10810(10) 0.45811(10)
C11HA C -0.32771(10) 0.04189(10) 0.39190(10)
C12KE C -0.22100(9) 0.14028(10) 0.34523(10)
C12AG C -0.14028(10) 0.22100(9) 0.15477(10)
C12MA C -0.10972(10) 0.09523(10) 0.22100(9)
C12JB C -0.15477(10) 0.10972(10) 0.47100(9)
C12HA C -0.34523(10) 0.02900(9) 0.39028(10)
H8KE H -0.2199 0.1507 0.3558
H8AG H -0.1507 0.2199 0.1442
H8MA H -0.0993 0.1058 0.2199
H8JB H -0.1442 0.0993 0.4699
H8HA H -0.3558 0.0301 0.4007
C13KE C -0.19204(10) 0.15862(10) 0.32680(10)
C13AG C -0.15862(10) 0.19204(10) 0.17320(10)
C13MA C -0.09138(10) 0.07680(10) 0.19204(10)
C13JB C -0.17320(10) 0.09138(10) 0.44204(10)
C13HA C -0.32680(10) 0.05796(10) 0.40862(10)
C14KE C -0.17509(10) 0.18526(10) 0.34302(10)
C14AG C -0.18526(10) 0.17509(10) 0.15698(10)
C14MA C -0.06474(10) 0.09302(10) 0.17509(10)
C14JB C -0.15698(10) 0.06474(10) 0.42509(10)
C14HA C -0.34302(10) 0.07491(10) 0.43526(10)
C15KE C -0.16636(11) 0.17603(10) 0.30978(10)
C15AG C -0.17603(10) 0.16636(11) 0.19022(10)
C15MA C -0.07397(10) 0.05978(10) 0.16636(11)
C15JB C -0.19022(10) 0.07397(10) 0.41636(11)
C15HA C -0.30978(10) 0.08364(11) 0.42603(10)
C16KE C -0.15422(10) 0.21193(10) 0.36179(10)
C16AG C -0.21193(10) 0.15422(10) 0.13821(10)
C16MA C -0.03807(10) 0.11179(10) 0.15422(10)
C16JB C -0.13821(10) 0.03807(10) 0.40422(10)
C16HA C -0.36179(10) 0.09578(10) 0.46193(10)
H9KE H -0.1460 0.2131 0.3494
H9AG H -0.2131 0.1460 0.1506
H9MA H -0.0369 0.0994 0.1460
H9JB H -0.1506 0.0369 0.3960
H9HA H -0.3494 0.1040 0.4631
C17KE C -0.17085(10) 0.19778(10) 0.36175(10)
C17AG C -0.19778(10) 0.17085(10) 0.13825(10)
C17MA C -0.05222(10) 0.11175(10) 0.17085(10)
C17JB C -0.13825(10) 0.05222(10) 0.42085(10)
C17HA C -0.36175(10) 0.07915(10) 0.44778(10)
C18KE C -0.18216(12) 0.19505(11) 0.38022(11)
C18AG C -0.19505(11) 0.18216(12) 0.11978(11)
C18MA C -0.05495(11) 0.13022(11) 0.18216(12)
C18JB C -0.11978(11) 0.05495(11) 0.43216(12)
C18HA C -0.38022(11) 0.06784(12) 0.44505(11)
H10KE H -0.1931 0.1849 0.3811
H10AG H -0.1849 0.1931 0.1189
H10MA H -0.0651 0.1311 0.1931
H10JB H -0.1189 0.0651 0.4431
H10HA H -0.3811 0.0569 0.4349
C19KE C -0.17712(14) 0.20729(13) 0.39717(13)
C19AG C -0.20729(13) 0.17712(14) 0.10283(13)
C19MA C -0.04271(13) 0.14717(13) 0.17712(14)
C19JB C -0.10283(13) 0.04271(13) 0.42712(14)
C19HA C -0.39717(13) 0.07288(14) 0.45729(13)
H11KE H -0.1850 0.2062 0.4098
H11AG H -0.2062 0.1850 0.0902
H11MA H -0.0438 0.1598 0.1850
H11JB H -0.0902 0.0438 0.4350
H11HA H -0.4098 0.0650 0.4562
C20KE C -0.16033(12) 0.22148(11) 0.39588(11)
C20AG C -0.22148(11) 0.16033(12) 0.10412(11)
C20MA C -0.02852(11) 0.14588(11) 0.16033(12)
C20JB C -0.10412(11) 0.02852(11) 0.41033(12)
C20HA C -0.39588(11) 0.08967(12) 0.47148(11)
H12KE H -0.1567 0.2296 0.4079
H12AG H -0.2296 0.1567 0.0921
H12MA H -0.0204 0.1579 0.1567
H12JB H -0.0921 0.0204 0.4067
H12HA H -0.4079 0.0933 0.4796
C21QB C -0.23251(12) -0.08304(12) 0.38885(13)
C21CB C -0.16696(12) -0.13885(13) 0.26749(12)
C21JB C -0.13885(13) -0.01749(12) 0.41696(12)
C21G C -0.01749(12) -0.08304(12) 0.36115(13)
C21ZB C -0.08304(12) -0.13885(13) 0.48251(12)
H13QB H -0.2434 -0.0839 0.3991
H13CB H -0.1661 -0.1491 0.2566
H13JB H -0.1491 -0.0066 0.4161
H13G H -0.0066 -0.0839 0.3509
H13ZB H -0.0839 -0.1491 0.4934
C22QB C -0.22009(13) -0.06560(13) 0.38879(14)
C22CB C -0.18440(13) -0.13879(14) 0.27991(13)
C22JB C -0.13879(14) -0.02991(13) 0.43440(13)
C22G C -0.02991(13) -0.06560(13) 0.36121(14)
C22ZB C -0.06560(13) -0.13879(14) 0.47009(13)
H14QB H -0.2220 -0.0549 0.3990
H14CB H -0.1951 -0.1490 0.2780
H14JB H -0.1490 -0.0280 0.4451
H14G H -0.0280 -0.0549 0.3510
H14ZB H -0.0549 -0.1490 0.4720
C23QB C -0.20476(12) -0.06374(12) 0.37356(12)
C23CB C -0.18626(12) -0.12356(12) 0.29524(12)
C23JB C -0.12356(12) -0.04524(12) 0.43626(12)
C23G C -0.04524(12) -0.06374(12) 0.37644(12)
C23ZB C -0.06374(12) -0.12356(12) 0.45476(12)
H15QB H -0.1962 -0.0515 0.3728
H15CB H -0.1985 -0.1228 0.3038
H15JB H -0.1228 -0.0538 0.4485
H15G H -0.0538 -0.0515 0.3772
H15ZB H -0.0515 -0.1228 0.4462
C24QB C -0.20211(11) -0.08005(11) 0.35943(12)
C24CB C -0.16995(11) -0.10943(12) 0.29789(11)
C24JB C -0.10943(12) -0.04789(11) 0.41995(11)
C24G C -0.04789(11) -0.08005(11) 0.39057(12)
C24ZB C -0.08005(11) -0.10943(12) 0.45211(11)
C25QB C -0.21521(10) -0.09725(10) 0.36076(10)
C25CB C -0.15275(10) -0.11076(10) 0.28479(10)
C25JB C -0.11076(10) -0.03479(10) 0.40275(10)
C25G C -0.03479(10) -0.09725(10) 0.38924(10)
C25ZB C -0.09725(10) -0.11076(10) 0.46521(10)
H16QB H -0.2134 -0.1083 0.3509
H16CB H -0.1417 -0.1009 0.2866
H16JB H -0.1009 -0.0366 0.3917
H16G H -0.0366 -0.1083 0.3991
H16ZB H -0.1083 -0.1009 0.4634
C26CB C -0.17076(10) -0.09316(11) 0.31430(11)
C26QB C -0.18570(11) -0.07924(10) 0.34316(11)
C26JB C -0.09316(11) -0.06430(11) 0.42076(10)
C26ZB C -0.07924(10) -0.09316(11) 0.43570(11)
C26G C -0.06430(11) -0.07924(10) 0.40684(11)
S3 S -0.09847(5) 0.08422(6) 0.38295(5)
C27 C -0.0766(2) 0.0897(3) 0.3927(2)
H17 H -0.0699 0.0808 0.4027
C28 C -0.06754(16) 0.1083(3) 0.3859(3)
H18 H -0.0560 0.1155 0.3921
C29 C -0.0804(3) 0.1150(2) 0.3655(3)
H19 H -0.0768 0.1260 0.3561
C30 C -0.09843(15) 0.10162(15) 0.36364(14)
H20 H -0.1088 0.1026 0.3529
loop_
_geom_bond_atom_site_label_1
_geom_bond_atom_site_label_2
_geom_bond_site_symmetry_1
_geom_bond_site_symmetry_2
Co1 N1 1_555 1_555
Co2 N2 1_555 1_555
S1 C1 1_555 1_555
S2 C2 1_555 1_555
N1 C1 1_555 1_555
N2 C2 1_555 1_555
N3 C3 1_555 1_555
N4 Co1 1_555 1_555
N5 C13 1_555 1_555
N6 C13 1_555 1_555
N7 C14 1_555 1_555
N8 Co2 1_555 1_555
N9 Co2 1_555 1_555
N10 C26 1_555 1_555
C3 H1 1_555 1_555
C4 C3 1_555 1_555
C5 C4 1_555 1_555
H2 C5 1_555 1_555
C6 C5 1_555 1_555
H3 C6 1_555 1_555
C7 N3 1_555 1_555
H4 C7 1_555 1_555
C8 N4 1_555 1_555
H5 C8 1_555 1_555
C9 C8 1_555 1_555
H6 C9 1_555 1_555
C10 C9 1_555 1_555
H7 C10 1_555 1_555
C11 C10 1_555 1_555
C12 N4 1_555 1_555
H8 C12 1_555 1_555
C13 C11 1_555 1_555
C14 N5 1_555 1_555
C15 N6 1_555 1_555
C16 N8 1_555 1_555
H9 C16 1_555 1_555
C17 C14 1_555 1_555
C18 C17 1_555 1_555
H10 C18 1_555 1_555
C19 C18 1_555 1_555
H11 C19 1_555 1_555
C20 N8 1_555 1_555
H12 C20 1_555 1_555
C21 N9 1_555 1_555
H13 C21 1_555 1_555
C22 C21 1_555 1_555
H14 C22 1_555 1_555
C23 C22 1_555 1_555
H15 C23 1_555 1_555
C24 C23 1_555 1_555
C25 N9 1_555 1_555
H16 C25 1_555 1_555
C26 C24 1_555 1_555
S3 C27 1_555 1_555
C27 H17 1_555 1_555
C28 C27 1_555 1_555
H18 C28 1_555 1_555
C29 C28 1_555 1_555
H19 C29 1_555 1_555
C30 S3 1_555 1_555
H20 C30 1_555 1_555
Co1SD N1KE 1_555 1_555
Co1TC N1AG 1_555 1_555
Co1JD N3 1_555 1_555
Co1XC N3MA 1_555 1_555
Co1JA N4JB 1_555 1_555
Co1HA N4HA 1_555 1_555
Co2JD N2KE 1_555 1_555
Co2AG N2AG 1_555 1_555
Co2OB N9QB 1_555 1_555
Co2E N9CB 1_555 1_555
Co2MA N8MA 1_555 1_555
Co2G N9G 1_555 1_555
Co2ZB N9ZB 1_555 1_555
Co2HA N8HA 1_555 1_555
S1MA C1MA 1_555 1_555
S1KE C1KE 1_555 1_555
S1SD C1SD 1_555 1_555
S1AG C1AG 1_555 1_555
S1TC C1TC 1_555 1_555
S2JB C2JB 1_555 1_555
S2KE C2KE 1_555 1_555
S2JD C2JD 1_555 1_555
S2AG C2AG 1_555 1_555
S2CG C2CG 1_555 1_555
N1MA Co1 1_555 1_555
N1KE C1KE 1_555 1_555
N1SD Co1SD 1_555 1_555
N1AG C1AG 1_555 1_555
N1TC Co1TC 1_555 1_555
N2JB Co2 1_555 1_555
N2KE C2KE 1_555 1_555
N2JD Co2JD 1_555 1_555
N2AG C2AG 1_555 1_555
N2CG Co2AG 1_555 1_555
N3KE Co1 1_555 1_555
N3AG Co1 1_555 1_555
N3MA C3MA 1_555 1_555
N3JB Co1SD 1_555 1_555
N3HA Co1SD 1_555 1_555
N3OC Co1TC 1_555 1_555
N3JC Co1TC 1_555 1_555
N4KE Co1SD 1_555 1_555
N4AG Co1TC 1_555 1_555
N4MA Co1 1_555 1_555
N4JB C8JB 1_555 1_555
N4HA C8HA 1_555 1_555
N4SD Co1SD 1_555 1_555
N4TC Co1TC 1_555 1_555
N5KE C13KE 1_555 1_555
N5AG C13AG 1_555 1_555
N5MA C13MA 1_555 1_555
N5JB C13JB 1_555 1_555
N5HA C13HA 1_555 1_555
N6KE C13KE 1_555 1_555
N6AG C13AG 1_555 1_555
N6MA C13MA 1_555 1_555
N6JB C13JB 1_555 1_555
N6HA C13HA 1_555 1_555
N7KE C14KE 1_555 1_555
N7AG C14AG 1_555 1_555
N7MA C14MA 1_555 1_555
N7JB C14JB 1_555 1_555
N7HA C14HA 1_555 1_555
N8KE Co2JD 1_555 1_555
N8AG Co2AG 1_555 1_555
N8MA C16MA 1_555 1_555
N8JB Co2 1_555 1_555
N8HA C16HA 1_555 1_555
N8JD Co2JD 1_555 1_555
N8CG Co2AG 1_555 1_555
N9QB C21QB 1_555 1_555
N9CB C21CB 1_555 1_555
N9JB Co2 1_555 1_555
N9G C21G 1_555 1_555
N9ZB C21ZB 1_555 1_555
N9KE Co2JD 1_555 1_555
N9JD Co2JD 1_555 1_555
N9AG Co2AG 1_555 1_555
N9CG Co2AG 1_555 1_555
N10CB C26CB 1_555 1_555
N10QB C26 1_555 1_555
N10JB C26JB 1_555 1_555
N10ZB C26ZB 1_555 1_555
N10G C26JB 1_555 1_555
C1MA N1MA 1_555 1_555
C1SD N1SD 1_555 1_555
C1TC N1TC 1_555 1_555
C2JB N2JB 1_555 1_555
C2JD N2JD 1_555 1_555
C2CG N2CG 1_555 1_555
C3KE N3KE 1_555 1_555
C3AG N3AG 1_555 1_555
C3MA H1MA 1_555 1_555
C3JB N3JB 1_555 1_555
C3HA N3HA 1_555 1_555
H1KE C3KE 1_555 1_555
H1AG C3AG 1_555 1_555
H1JB C3JB 1_555 1_555
H1HA C3HA 1_555 1_555
C4KE C3KE 1_555 1_555
C4AG C3AG 1_555 1_555
C4MA C3MA 1_555 1_555
C4JB C3JB 1_555 1_555
C4HA C3HA 1_555 1_555
C5KE C4KE 1_555 1_555
C5AG C4AG 1_555 1_555
C5MA C4MA 1_555 1_555
C5JB C4JB 1_555 1_555
C5HA C4HA 1_555 1_555
H2KE C5KE 1_555 1_555
H2AG C5AG 1_555 1_555
H2MA C5MA 1_555 1_555
H2JB C5JB 1_555 1_555
H2HA C5HA 1_555 1_555
C6KE C5KE 1_555 1_555
C6AG C5AG 1_555 1_555
C6MA C5MA 1_555 1_555
C6JB C5JB 1_555 1_555
C6HA C5HA 1_555 1_555
H3KE C6KE 1_555 1_555
H3AG C6AG 1_555 1_555
H3MA C6MA 1_555 1_555
H3JB C6JB 1_555 1_555
H3HA C6HA 1_555 1_555
C7KE N3KE 1_555 1_555
C7AG N3AG 1_555 1_555
C7MA N3MA 1_555 1_555
C7JB N3JB 1_555 1_555
C7HA N3HA 1_555 1_555
H4KE C7KE 1_555 1_555
H4AG C7AG 1_555 1_555
H4MA C7MA 1_555 1_555
H4JB C7JB 1_555 1_555
H4HA C7HA 1_555 1_555
C8KE N4KE 1_555 1_555
C8AG N4AG 1_555 1_555
C8MA N4MA 1_555 1_555
C8JB H5JB 1_555 1_555
C8HA H5HA 1_555 1_555
H5KE C8KE 1_555 1_555
H5AG C8AG 1_555 1_555
H5MA C8MA 1_555 1_555
C9KE C8KE 1_555 1_555
C9AG C8AG 1_555 1_555
C9MA C8MA 1_555 1_555
C9JB C8JB 1_555 1_555
C9HA C8HA 1_555 1_555
H6KE C9KE 1_555 1_555
H6AG C9AG 1_555 1_555
H6MA C9MA 1_555 1_555
H6JB C9JB 1_555 1_555
H6HA C9HA 1_555 1_555
C10KE C9KE 1_555 1_555
C10AG C9AG 1_555 1_555
C10MA C9MA 1_555 1_555
C10JB C9JB 1_555 1_555
C10HA C9HA 1_555 1_555
H7KE C10KE 1_555 1_555
H7AG C10AG 1_555 1_555
H7MA C10MA 1_555 1_555
H7JB C10JB 1_555 1_555
H7HA C10HA 1_555 1_555
C11KE C10KE 1_555 1_555
C11AG C10AG 1_555 1_555
C11MA C10MA 1_555 1_555
C11JB C10JB 1_555 1_555
C11HA C10HA 1_555 1_555
C12KE N4KE 1_555 1_555
C12AG N4AG 1_555 1_555
C12MA N4MA 1_555 1_555
C12JB N4JB 1_555 1_555
C12HA N4HA 1_555 1_555
H8KE C12KE 1_555 1_555
H8AG C12AG 1_555 1_555
H8MA C12MA 1_555 1_555
H8JB C12JB 1_555 1_555
H8HA C12HA 1_555 1_555
C13KE C11KE 1_555 1_555
C13AG C11AG 1_555 1_555
C13MA C11MA 1_555 1_555
C13JB C11JB 1_555 1_555
C13HA C11HA 1_555 1_555
C14KE N5KE 1_555 1_555
C14AG N5AG 1_555 1_555
C14MA N5MA 1_555 1_555
C14JB N5JB 1_555 1_555
C14HA N5HA 1_555 1_555
C15KE N6KE 1_555 1_555
C15AG N6AG 1_555 1_555
C15MA N6MA 1_555 1_555
C15JB N6JB 1_555 1_555
C15HA N6HA 1_555 1_555
C16KE N8KE 1_555 1_555
C16AG N8AG 1_555 1_555
C16MA H9MA 1_555 1_555
C16JB N8JB 1_555 1_555
C16HA H9HA 1_555 1_555
H9KE C16KE 1_555 1_555
H9AG C16AG 1_555 1_555
H9JB C16JB 1_555 1_555
C17KE C14KE 1_555 1_555
C17AG C14AG 1_555 1_555
C17MA C14MA 1_555 1_555
C17JB C14JB 1_555 1_555
C17HA C14HA 1_555 1_555
C18KE C17KE 1_555 1_555
C18AG C17AG 1_555 1_555
C18MA C17MA 1_555 1_555
C18JB C17JB 1_555 1_555
C18HA C17HA 1_555 1_555
H10KE C18KE 1_555 1_555
H10AG C18AG 1_555 1_555
H10MA C18MA 1_555 1_555
H10JB C18JB 1_555 1_555
H10HA C18HA 1_555 1_555
C19KE C18KE 1_555 1_555
C19AG C18AG 1_555 1_555
C19MA C18MA 1_555 1_555
C19JB C18JB 1_555 1_555
C19HA C18HA 1_555 1_555
H11KE C19KE 1_555 1_555
H11AG C19AG 1_555 1_555
H11MA C19MA 1_555 1_555
H11JB C19JB 1_555 1_555
H11HA C19HA 1_555 1_555
C20KE N8KE 1_555 1_555
C20AG N8AG 1_555 1_555
C20MA N8MA 1_555 1_555
C20JB N8JB 1_555 1_555
C20HA N8HA 1_555 1_555
H12KE C20KE 1_555 1_555
H12AG C20AG 1_555 1_555
H12MA C20MA 1_555 1_555
H12JB C20JB 1_555 1_555
H12HA C20HA 1_555 1_555
C21QB H13QB 1_555 1_555
C21CB H13CB 1_555 1_555
C21JB N9JB 1_555 1_555
C21G H13G 1_555 1_555
C21ZB H13ZB 1_555 1_555
H13JB C21JB 1_555 1_555
C22QB C21QB 1_555 1_555
C22CB C21CB 1_555 1_555
C22JB C21JB 1_555 1_555
C22G C21G 1_555 1_555
C22ZB C21ZB 1_555 1_555
H14QB C22QB 1_555 1_555
H14CB C22CB 1_555 1_555
H14JB C22JB 1_555 1_555
H14G C22G 1_555 1_555
H14ZB C22ZB 1_555 1_555
C23QB C22QB 1_555 1_555
C23CB C22CB 1_555 1_555
C23JB C22JB 1_555 1_555
C23G C22G 1_555 1_555
C23ZB C22ZB 1_555 1_555
H15QB C23QB 1_555 1_555
H15CB C23CB 1_555 1_555
H15JB C23JB 1_555 1_555
H15G C23G 1_555 1_555
H15ZB C23ZB 1_555 1_555
C24QB C23QB 1_555 1_555
C24CB C23CB 1_555 1_555
C24JB C23JB 1_555 1_555
C24G C23G 1_555 1_555
C24ZB C23ZB 1_555 1_555
C25QB N9QB 1_555 1_555
C25CB N9CB 1_555 1_555
C25JB N9JB 1_555 1_555
C25G N9G 1_555 1_555
C25ZB N9ZB 1_555 1_555
H16QB C25QB 1_555 1_555
H16CB C25CB 1_555 1_555
H16JB C25JB 1_555 1_555
H16G C25G 1_555 1_555
H16ZB C25ZB 1_555 1_555
C26CB N10 1_555 1_555
C26QB N10CB 1_555 1_555
C26JB C24JB 1_555 1_555
C26ZB N10JB 1_555 1_555
C26G N10ZB 1_555 1_555
N7 C15 1_555 1_555
C4 C15 1_555 1_555
C6 C7 1_555 1_555
C11 C12 1_555 1_555
C16 C17 1_555 1_555
C19 C20 1_555 1_555
C24 C25 1_555 1_555
C29 C30 1_555 1_555
N7KE C15KE 1_555 1_555
N7AG C15AG 1_555 1_555
N7MA C15MA 1_555 1_555
N7JB C15JB 1_555 1_555
N7HA C15HA 1_555 1_555
N10QB C26QB 1_555 1_555
N10G C26G 1_555 1_555
C4KE C15KE 1_555 1_555
C4AG C15AG 1_555 1_555
C4MA C15MA 1_555 1_555
C4JB C15JB 1_555 1_555
C4HA C15HA 1_555 1_555
C6KE C7KE 1_555 1_555
C6AG C7AG 1_555 1_555
C6MA C7MA 1_555 1_555
C6JB C7JB 1_555 1_555
C6HA C7HA 1_555 1_555
C11KE C12KE 1_555 1_555
C11AG C12AG 1_555 1_555
C11MA C12MA 1_555 1_555
C11JB C12JB 1_555 1_555
C11HA C12HA 1_555 1_555
C16KE C17KE 1_555 1_555
C16AG C17AG 1_555 1_555
C16MA C17MA 1_555 1_555
C16JB C17JB 1_555 1_555
C16HA C17HA 1_555 1_555
C19KE C20KE 1_555 1_555
C19AG C20AG 1_555 1_555
C19MA C20MA 1_555 1_555
C19JB C20JB 1_555 1_555
C19HA C20HA 1_555 1_555
C24QB C25QB 1_555 1_555
C24QB C26QB 1_555 1_555
C24CB C25CB 1_555 1_555
C24CB C26CB 1_555 1_555
C24JB C25JB 1_555 1_555
C24G C25G 1_555 1_555
C24G C26G 1_555 1_555
C24ZB C25ZB 1_555 1_555
C24ZB C26ZB 1_555 1_555

#END
