
#######################################################################
#
#                 Cambridge Crystallographic Data Centre
#                                CCDC 
#
#######################################################################
#
# If this CIF has been generated from an entry in the Cambridge 
# Structural Database, then it will include bibliographic, chemical, 
# crystal, experimental, refinement or atomic coordinate data resulting 
# from the CCDC's data processing and validation procedures.
#
#######################################################################

data_LAFRIU
_symmetry_cell_setting           monoclinic
_symmetry_space_group_name_H-M   'P 21/c'
_symmetry_Int_Tables_number      14
_space_group_name_Hall           '-P 2ybc'
loop_
_symmetry_equiv_pos_site_id
_symmetry_equiv_pos_as_xyz
1 x,y,z
2 -x,1/2+y,1/2-z
3 -x,-y,-z
4 x,1/2-y,1/2+z
_cell_length_a                   9.1432(4)
_cell_length_b                   17.8251(8)
_cell_length_c                   10.1994(5)
_cell_angle_alpha                90
_cell_angle_beta                 99.226(2)
_cell_angle_gamma                90
_cell_volume                     1640.78
loop_
_atom_site_label
_atom_site_type_symbol
_atom_site_fract_x
_atom_site_fract_y
_atom_site_fract_z
Cu1 Cu 0.13633(3) 0.084937(14) 0.73472(2)
O1 O 0.27952(17) 0.16328(8) 0.69732(15)
O2 O 0.32381(17) 0.05628(9) 0.60501(17)
O3 O 0.9036(2) 0.17186(11) 0.75931(16)
O4 O 0.98600(17) 0.11819(10) 0.59062(16)
N1 N 0.25029(18) 0.05891(10) 0.91326(17)
N2 N 0.03758(19) -0.01226(10) 0.76465(17)
C1 C 0.3608(2) 0.09931(12) 0.9809(2)
H1 H 0.3880 0.1440 0.9444
C2 C 0.4358(3) 0.07680(13) 1.1028(2)
H2 H 0.5128 0.1056 1.1476
C3 C 0.3946(3) 0.01108(13) 1.1567(2)
H3 H 0.4446 -0.0054 1.2383
C4 C 0.2788(3) -0.03060(12) 1.0896(2)
H4 H 0.2483 -0.0746 1.1261
C5 C 0.2090(2) -0.00553(11) 0.9666(2)
C6 C 0.0878(2) -0.04647(11) 0.8820(2)
C7 C 0.0291(3) -0.11380(12) 0.9157(2)
H5 H 0.0615 -0.1354 0.9982
C8 C -0.0779(3) -0.14858(14) 0.8255(3)
H6 H -0.1178 -0.1943 0.8459
C9 C -0.1253(3) -0.11455(16) 0.7045(3)
H7 H -0.1959 -0.1376 0.6416
C10 C -0.0668(3) -0.04620(15) 0.6781(2)
H8 H -0.1010 -0.0228 0.5974
C11 C 0.3522(2) 0.12343(11) 0.6259(2)
C12 C 0.4746(2) 0.16179(11) 0.5647(2)
H9 H 0.4257 0.1914 0.4893
C13 C 0.5643(2) 0.21640(12) 0.6606(2)
H10 H 0.6108 0.1894 0.7389
H11 H 0.4985 0.2538 0.6885
C14 C 0.6838(2) 0.25556(12) 0.5958(2)
H12 H 0.6360 0.2887 0.5265
H13 H 0.7443 0.2862 0.6620
C15 C 0.7840(2) 0.20169(11) 0.5358(2)
H14 H 0.8404 0.2318 0.4808
C16 C 0.6912(2) 0.14564(12) 0.4428(2)
H15 H 0.6418 0.1721 0.3650
H16 H 0.7565 0.1085 0.4134
C17 C 0.5757(2) 0.10600(12) 0.5099(2)
H17 H 0.6252 0.0750 0.5818
H18 H 0.5164 0.0734 0.4461
C18 C 0.8970(2) 0.16166(12) 0.6391(2)
O4_2 O -0.01400(17) 0.11819(10) 0.59062(16)
Cu1_2 Cu 1.13633(3) 0.084937(14) 0.73472(2)
O5 O -0.1429(8) -0.2548(4) 0.5512(8)
loop_
_geom_bond_atom_site_label_1
_geom_bond_atom_site_label_2
_geom_bond_site_symmetry_1
_geom_bond_site_symmetry_2
Cu1 O1 1_555 1_555
O1 C11 1_555 1_555
O2 Cu1 1_555 1_555
O3 C18 1_555 1_555
O4 C18 1_555 1_555
N1 Cu1 1_555 1_555
N2 Cu1 1_555 1_555
C1 N1 1_555 1_555
H1 C1 1_555 1_555
C2 C1 1_555 1_555
H2 C2 1_555 1_555
C3 C2 1_555 1_555
H3 C3 1_555 1_555
C4 C3 1_555 1_555
H4 C4 1_555 1_555
C5 N1 1_555 1_555
C6 N2 1_555 1_555
C7 C6 1_555 1_555
H5 C7 1_555 1_555
C8 C7 1_555 1_555
H6 C8 1_555 1_555
C9 C8 1_555 1_555
H7 C9 1_555 1_555
C10 N2 1_555 1_555
H8 C10 1_555 1_555
C11 O2 1_555 1_555
C12 C11 1_555 1_555
H9 C12 1_555 1_555
C13 C12 1_555 1_555
H10 C13 1_555 1_555
H11 C13 1_555 1_555
C14 C13 1_555 1_555
H12 C14 1_555 1_555
H13 C14 1_555 1_555
C15 C14 1_555 1_555
H14 C15 1_555 1_555
C16 C15 1_555 1_555
H15 C16 1_555 1_555
H16 C16 1_555 1_555
C17 C12 1_555 1_555
H17 C17 1_555 1_555
H18 C17 1_555 1_555
C18 C15 1_555 1_555
O4_2 Cu1 1_555 1_555
Cu1_2 O4 1_555 1_555
C4 C5 1_555 1_555
C5 C6 1_555 1_555
C9 C10 1_555 1_555
C16 C17 1_555 1_555

#END
