
#######################################################################
#
#                 Cambridge Crystallographic Data Centre
#                                CCDC 
#
#######################################################################
#
# If this CIF has been generated from an entry in the Cambridge 
# Structural Database, then it will include bibliographic, chemical, 
# crystal, experimental, refinement or atomic coordinate data resulting 
# from the CCDC's data processing and validation procedures.
#
#######################################################################

data_LAFRIV
_symmetry_cell_setting           cubic
_symmetry_space_group_name_H-M   'F d -3 c'
_symmetry_Int_Tables_number      228
_space_group_name_Hall           '-F 4ud 2vw 3'
loop_
_symmetry_equiv_pos_site_id
_symmetry_equiv_pos_as_xyz
1 x,y,z
2 1/4+y,1/4+x,1/2-z
3 1/4+x,-z,3/4+y
4 -z,1/4+y,3/4+x
5 3/4+z,1/4+y,-x
6 1/4-z,x,1/4-y
7 1/4+x,3/4+z,-y
8 y,1/4-z,1/4-x
9 1/4+y,-x,3/4+z
10 x,1/4-y,1/4-z
11 1/4-x,1/4-y,z
12 1/2-y,-x,-z
13 -z,-y,1/2-x
14 z,1/4-x,1/4-y
15 x,1/2+y,1/2+z
16 1/4+y,3/4+x,-z
17 1/4+x,1/2-z,1/4+y
18 -z,3/4+y,1/4+x
19 3/4+z,3/4+y,1/2-x
20 1/4-z,1/2+x,3/4-y
21 1/4+x,1/4+z,1/2-y
22 y,3/4-z,3/4-x
23 1/4+y,1/2-x,1/4+z
24 x,3/4-y,3/4-z
25 1/4-x,3/4-y,1/2+z
26 1/2-y,1/2-x,1/2-z
27 -z,1/2-y,-x
28 z,3/4-x,3/4-y
29 1/2+x,y,1/2+z
30 3/4+y,1/4+x,-z
31 3/4+x,-z,1/4+y
32 1/2-z,1/4+y,1/4+x
33 1/4+z,1/4+y,1/2-x
34 3/4-z,x,3/4-y
35 3/4+x,3/4+z,1/2-y
36 1/2+y,1/4-z,3/4-x
37 3/4+y,-x,1/4+z
38 1/2+x,1/4-y,3/4-z
39 3/4-x,1/4-y,1/2+z
40 -y,-x,1/2-z
41 1/2-z,-y,-x
42 1/2+z,1/4-x,3/4-y
43 1/2+x,1/2+y,z
44 3/4+y,3/4+x,1/2-z
45 3/4+x,1/2-z,3/4+y
46 1/2-z,3/4+y,3/4+x
47 1/4+z,3/4+y,-x
48 3/4-z,1/2+x,1/4-y
49 3/4+x,1/4+z,-y
50 1/2+y,3/4-z,1/4-x
51 3/4+y,1/2-x,3/4+z
52 1/2+x,3/4-y,1/4-z
53 3/4-x,3/4-y,z
54 -y,1/2-x,-z
55 1/2-z,1/2-y,1/2-x
56 1/2+z,3/4-x,1/4-y
57 -x,1/2-z,-y
58 3/4-y,z,3/4-x
59 3/4-z,3/4-x,y
60 3/4-y,3/4-z,x
61 1/2-x,3/4+z,3/4+y
62 3/4+z,1/2-y,3/4+x
63 3/4-x,y,3/4-z
64 1/2-y,3/4+x,3/4+z
65 y,z,x
66 z,x,y
67 -x,-z,1/2-y
68 3/4-y,1/2+z,1/4-x
69 3/4-z,1/4-x,1/2+y
70 3/4-y,1/4-z,1/2+x
71 1/2-x,1/4+z,1/4+y
72 3/4+z,-y,1/4+x
73 3/4-x,1/2+y,1/4-z
74 1/2-y,1/4+x,1/4+z
75 y,1/2+z,1/2+x
76 z,1/2+x,1/2+y
77 1/2-x,1/2-z,1/2-y
78 1/4-y,z,1/4-x
79 1/4-z,3/4-x,1/2+y
80 1/4-y,3/4-z,1/2+x
81 -x,3/4+z,1/4+y
82 1/4+z,1/2-y,1/4+x
83 1/4-x,y,1/4-z
84 -y,3/4+x,1/4+z
85 1/2+y,z,1/2+x
86 1/2+z,x,1/2+y
87 1/2-x,-z,-y
88 1/4-y,1/2+z,3/4-x
89 1/4-z,1/4-x,y
90 1/4-y,1/4-z,x
91 -x,1/4+z,3/4+y
92 1/4+z,-y,3/4+x
93 1/4-x,1/2+y,3/4-z
94 -y,1/4+x,3/4+z
95 1/2+y,1/2+z,x
96 1/2+z,1/2+x,y
97 -x,-y,-z
98 3/4-y,3/4-x,1/2+z
99 3/4-x,z,1/4-y
100 z,3/4-y,1/4-x
101 1/4-z,3/4-y,x
102 3/4+z,-x,3/4+y
103 3/4-x,1/4-z,y
104 -y,3/4+z,3/4+x
105 3/4-y,x,1/4-z
106 -x,3/4+y,3/4+z
107 3/4+x,3/4+y,-z
108 1/2+y,x,z
109 z,y,1/2+x
110 -z,3/4+x,3/4+y
111 -x,1/2-y,1/2-z
112 3/4-y,1/4-x,z
113 3/4-x,1/2+z,3/4-y
114 z,1/4-y,3/4-x
115 1/4-z,1/4-y,1/2+x
116 3/4+z,1/2-x,1/4+y
117 3/4-x,3/4-z,1/2+y
118 -y,1/4+z,1/4+x
119 3/4-y,1/2+x,3/4-z
120 -x,1/4+y,1/4+z
121 3/4+x,1/4+y,1/2-z
122 1/2+y,1/2+x,1/2+z
123 z,1/2+y,x
124 -z,1/4+x,1/4+y
125 1/2-x,-y,1/2-z
126 1/4-y,3/4-x,z
127 1/4-x,z,3/4-y
128 1/2+z,3/4-y,3/4-x
129 3/4-z,3/4-y,1/2+x
130 1/4+z,-x,1/4+y
131 1/4-x,1/4-z,1/2+y
132 1/2-y,3/4+z,1/4+x
133 1/4-y,x,3/4-z
134 1/2-x,3/4+y,1/4+z
135 1/4+x,3/4+y,1/2-z
136 y,x,1/2+z
137 1/2+z,y,x
138 1/2-z,3/4+x,1/4+y
139 1/2-x,1/2-y,-z
140 1/4-y,1/4-x,1/2+z
141 1/4-x,1/2+z,1/4-y
142 1/2+z,1/4-y,1/4-x
143 3/4-z,1/4-y,x
144 1/4+z,1/2-x,3/4+y
145 1/4-x,3/4-z,y
146 1/2-y,1/4+z,3/4+x
147 1/4-y,1/2+x,1/4-z
148 1/2-x,1/4+y,3/4+z
149 1/4+x,1/4+y,-z
150 y,1/2+x,z
151 1/2+z,1/2+y,1/2+x
152 1/2-z,1/4+x,3/4+y
153 x,1/2+z,y
154 1/4+y,-z,1/4+x
155 1/4+z,1/4+x,-y
156 1/4+y,1/4+z,-x
157 1/2+x,1/4-z,1/4-y
158 1/4-z,1/2+y,1/4-x
159 1/4+x,-y,1/4+z
160 1/2+y,1/4-x,1/4-z
161 -y,-z,-x
162 -z,-x,-y
163 x,z,1/2+y
164 1/4+y,1/2-z,3/4+x
165 1/4+z,3/4+x,1/2-y
166 1/4+y,3/4+z,1/2-x
167 1/2+x,3/4-z,3/4-y
168 1/4-z,y,3/4-x
169 1/4+x,1/2-y,3/4+z
170 1/2+y,3/4-x,3/4-z
171 -y,1/2-z,1/2-x
172 -z,1/2-x,1/2-y
173 1/2+x,1/2+z,1/2+y
174 3/4+y,-z,3/4+x
175 3/4+z,1/4+x,1/2-y
176 3/4+y,1/4+z,1/2-x
177 x,1/4-z,3/4-y
178 3/4-z,1/2+y,3/4-x
179 3/4+x,-y,3/4+z
180 y,1/4-x,3/4-z
181 1/2-y,-z,1/2-x
182 1/2-z,-x,1/2-y
183 1/2+x,z,y
184 3/4+y,1/2-z,1/4+x
185 3/4+z,3/4+x,-y
186 3/4+y,3/4+z,-x
187 x,3/4-z,1/4-y
188 3/4-z,y,1/4-x
189 3/4+x,1/2-y,1/4+z
190 y,3/4-x,1/4-z
191 1/2-y,1/2-z,-x
192 1/2-z,1/2-x,-y
_cell_length_a                   63.92(3)
_cell_length_b                   63.92(3)
_cell_length_c                   63.92(3)
_cell_angle_alpha                90
_cell_angle_beta                 90
_cell_angle_gamma                90
_cell_volume                     261162
loop_
_atom_site_label
_atom_site_type_symbol
_atom_site_fract_x
_atom_site_fract_y
_atom_site_fract_z
S1 S 0.67285(3) 0.83491(3) 0.04135(4)
C1 C 0.65620(10) 0.85164(10) 0.03155(10)
N1 N 0.64476(7) 0.86337(7) 0.02372(7)
Co1 Co 0.629718(14) 0.879718(14) 0.0000
N2 N 0.63493(7) 0.91046(8) 0.01483(7)
C2 C 0.62512(10) 0.92833(12) 0.01079(11)
H1 H 0.6152 0.9286 -0.0003
C3 C 0.62851(11) 0.94659(14) 0.02179(12)
H2 H 0.6213 0.9590 0.0180
C4 C 0.64240(10) 0.94673(13) 0.03835(11)
H3 H 0.6448 0.9590 0.0463
C5 C 0.65272(9) 0.92792(10) 0.04287(10)
C6 C 0.64876(9) 0.91043(9) 0.03034(9)
H4 H 0.6563 0.8979 0.0331
N3 N 0.73349(8) 0.87309(8) 0.10005(8)
C7 C 0.71986(9) 0.88892(9) 0.09690(9)
H5 H 0.7195 0.8998 0.1070
C8 C 0.70661(10) 0.89051(10) 0.08035(10)
C9 C 0.70691(12) 0.87444(14) 0.06535(14)
H6 H 0.6975 0.8746 0.0538
C10 C 0.72096(15) 0.85870(15) 0.06775(16)
H7 H 0.7219 0.8480 0.0575
C11 C 0.73404(13) 0.85815(12) 0.08517(14)
H8 H 0.7436 0.8469 0.0866
C12 C 0.69107(9) 0.90760(10) 0.07879(10)
N4 N 0.68022(7) 0.90977(8) 0.06118(8)
C13 C 0.66641(9) 0.92568(10) 0.06122(10)
N5 N 0.66302(7) 0.93865(8) 0.07741(9)
C14 C 0.67406(9) 0.93459(10) 0.09434(10)
N6 N 0.68853(8) 0.91929(8) 0.09624(8)
C15 C 0.66970(9) 0.94720(10) 0.11334(10)
C16 C 0.65386(8) 0.96194(10) 0.11258(9)
H9 H 0.6462 0.9635 0.0999
N7 N 0.64889(7) 0.97392(8) 0.12869(8)
C17 C 0.65985(11) 0.97163(11) 0.14656(12)
H10 H 0.6566 0.9803 0.1582
C18 C 0.67569(13) 0.95708(13) 0.14855(14)
H11 H 0.6832 0.9560 0.1613
C19 C 0.68053(13) 0.94414(12) 0.13185(13)
H12 H 0.6909 0.9336 0.1331
Co2 Co 0.625000(15) 0.9979 0.1250
N8 N 0.62729(7) 0.99915(9) 0.09244(8)
C20 C 0.63052(9) 1.00138(13) 0.07506(12)
S2 S 0.63600(3) 1.00498(4) 0.05017(6)
N9 N 0.65124(7) 1.01961(8) 0.12507(8)
C21 C 0.65311(9) 1.03448(11) 0.13990(10)
H13 H 0.6422 1.0360 0.1498
C22 C 0.67030(12) 1.04756(13) 0.14127(11)
C23 C 0.68654(14) 1.04473(14) 0.12654(13)
H14 H 0.6985 1.0535 0.1269
C24 C 0.68496(13) 1.02957(14) 0.11202(12)
H15 H 0.6961 1.0272 0.1024
C25 C 0.66706(11) 1.01747(13) 0.11112(10)
H16 H 0.6658 1.0073 0.1003
C26 C 0.67109(12) 1.06412(13) 0.15742(12)
N10 N 0.65652(10) 1.06351(10) 0.17217(11)
S1CA S 0.58491(3) 0.92285(3) -0.04135(4)
S1AE S 0.66509(3) 0.79135(4) -0.07715(3)
S1NE S 0.57715(3) 0.70865(4) -0.16509(3)
S1WD S 0.54135(4) 0.91509(3) 0.07715(3)
S1IG S 0.45865(4) 0.82715(3) 0.16509(3)
C1CA C 0.60164(10) 0.90620(10) -0.03155(10)
C1AE C 0.64836(10) 0.78155(10) -0.09380(10)
C1NE C 0.59380(10) 0.71845(10) -0.14836(10)
C1WD C 0.53155(10) 0.89836(10) 0.09380(10)
C1IG C 0.46845(10) 0.84380(10) 0.14836(10)
N1CA N 0.61337(7) 0.89476(7) -0.02372(7)
N1AE N 0.63663(7) 0.77372(7) -0.10524(7)
N1NE N 0.60524(7) 0.72628(7) -0.13663(7)
N1WD N 0.52372(7) 0.88663(7) 0.10524(7)
N1IG N 0.47628(7) 0.85524(7) 0.13663(7)
Co1AE Co 0.620282(14) 0.7500 -0.120282(14)
Co1WD Co 0.5000 0.870282(14) 0.120282(14)
Co1KD Co 0.7500 0.870282(14) 0.129718(14)
Co1VD Co 0.620282(14) 1.0000 -0.129718(14)
Co1UB Co 0.620282(14) 0.879718(14) 0.2500
Co1OA Co 0.5000 0.620282(14) -0.129718(14)
N2CA N 0.66046(8) 0.88493(7) -0.01483(7)
N2AE N 0.58954(8) 0.76483(7) -0.11507(7)
N2WD N 0.51483(7) 0.83954(8) 0.11507(7)
N2DC N 0.61507(7) 0.91046(8) 0.23517(7)
N2NE N 0.61507(7) 0.73517(7) -0.08954(8)
N2IG N 0.48517(7) 0.86507(7) 0.08954(8)
C2CA C 0.67833(12) 0.87512(10) -0.01079(11)
C2AE C 0.57167(12) 0.76079(11) -0.12488(10)
C2WD C 0.51079(11) 0.82167(12) 0.12488(10)
C2DC C 0.62488(10) 0.92833(12) 0.23921(11)
C2NE C 0.62488(10) 0.73921(11) -0.07167(12)
H1CA H 0.6786 0.8652 0.0003
H1AE H 0.5714 0.7497 -0.1348
H1WD H 0.4997 0.8214 0.1348
H1DC H 0.6348 0.9286 0.2503
H1NE H 0.6348 0.7503 -0.0714
C3CA C 0.69659(14) 0.87851(11) -0.02179(12)
C3AE C 0.55341(14) 0.77179(12) -0.12149(11)
C3WD C 0.52179(12) 0.80341(14) 0.12149(11)
C3DC C 0.62149(11) 0.94659(14) 0.22821(12)
C3NE C 0.62149(11) 0.72821(12) -0.05341(14)
H2CA H 0.7090 0.8713 -0.0180
H2AE H 0.5410 0.7680 -0.1287
H2WD H 0.5180 0.7910 0.1287
H2DC H 0.6287 0.9590 0.2320
H2NE H 0.6287 0.7320 -0.0410
C4CA C 0.69673(13) 0.89240(10) -0.03835(11)
C4AE C 0.55327(13) 0.78835(11) -0.10760(10)
C4WD C 0.53835(11) 0.80327(13) 0.10760(10)
C4DC C 0.60760(10) 0.94673(13) 0.21165(11)
C4NE C 0.60760(10) 0.71165(11) -0.05327(13)
H3CA H 0.7090 0.8948 -0.0463
H3AE H 0.5410 0.7963 -0.1052
H3WD H 0.5463 0.7910 0.1052
H3DC H 0.6052 0.9590 0.2037
H3NE H 0.6052 0.7037 -0.0410
C5CA C 0.67792(10) 0.90272(9) -0.04287(10)
C5AE C 0.57208(10) 0.79287(10) -0.09728(9)
C5WD C 0.54287(10) 0.82208(10) 0.09728(9)
C5DC C 0.59728(9) 0.92792(10) 0.20713(10)
C5NE C 0.59728(9) 0.70713(10) -0.07208(10)
C6CA C 0.66043(9) 0.89876(9) -0.03034(9)
C6AE C 0.58957(9) 0.78034(9) -0.10124(9)
C6WD C 0.53034(9) 0.83957(9) 0.10124(9)
C6DC C 0.60124(9) 0.91043(9) 0.21966(9)
C6NE C 0.60124(9) 0.71966(9) -0.08957(9)
H4CA H 0.6479 0.9063 -0.0331
H4AE H 0.6021 0.7831 -0.0937
H4WD H 0.5331 0.8521 0.0937
H4DC H 0.5937 0.8979 0.2169
H4NE H 0.5937 0.7169 -0.1021
N3CA N 0.62309(8) 0.98349(8) -0.10005(8)
N3AE N 0.62691(8) 0.85005(8) -0.01651(8)
N3WD N 0.60005(8) 0.87691(8) 0.01651(8)
N3DC N 0.51651(8) 0.87309(8) 0.14995(8)
N3NE N 0.51651(8) 0.64995(8) -0.12691(8)
N3GA N 0.64995(8) 0.73349(8) -0.12309(8)
N3XA N 0.62309(8) 0.76651(8) -0.14995(8)
N3DA N 0.48349(8) 0.89995(8) 0.12309(8)
C7CA C 0.63892(9) 0.96986(9) -0.09690(9)
C7AE C 0.61108(9) 0.84690(9) -0.03014(9)
C7WD C 0.59690(9) 0.86108(9) 0.03014(9)
C7DC C 0.53014(9) 0.88892(9) 0.15310(9)
C7NE C 0.53014(9) 0.65310(9) -0.11108(9)
H5CA H 0.6498 0.9695 -0.1070
H5AE H 0.6002 0.8570 -0.0305
H5WD H 0.6070 0.8502 0.0305
H5DC H 0.5305 0.8998 0.1430
H5NE H 0.5305 0.6430 -0.1002
C8CA C 0.64051(10) 0.95661(10) -0.08035(10)
C8AE C 0.60949(10) 0.83035(10) -0.04339(10)
C8WD C 0.58035(10) 0.85949(10) 0.04339(10)
C8DC C 0.54339(10) 0.89051(10) 0.16965(10)
C8NE C 0.54339(10) 0.66965(10) -0.10949(10)
C9CA C 0.62444(14) 0.95691(12) -0.06535(14)
C9AE C 0.62556(14) 0.81535(14) -0.04309(12)
C9WD C 0.56535(14) 0.87556(14) 0.04309(12)
C9DC C 0.54309(12) 0.87444(14) 0.18465(14)
C9NE C 0.54309(12) 0.68465(14) -0.12556(14)
H6CA H 0.6246 0.9475 -0.0538
H6AE H 0.6254 0.8038 -0.0525
H6WD H 0.5538 0.8754 0.0525
H6DC H 0.5525 0.8746 0.1962
H6NE H 0.5525 0.6962 -0.1254
C10CA C 0.60870(15) 0.97096(15) -0.06775(16)
C10AE C 0.64130(15) 0.81775(16) -0.02904(15)
C10WD C 0.56775(16) 0.89130(15) 0.02904(15)
C10DC C 0.52904(15) 0.85870(15) 0.18225(16)
C10NE C 0.52904(15) 0.68225(16) -0.14130(15)
H7CA H 0.5980 0.9719 -0.0575
H7AE H 0.6520 0.8075 -0.0281
H7WD H 0.5575 0.9020 0.0281
H7DC H 0.5281 0.8480 0.1925
H7NE H 0.5281 0.6925 -0.1520
C11CA C 0.60815(12) 0.98404(13) -0.08517(14)
C11AE C 0.64185(12) 0.83517(14) -0.01596(13)
C11WD C 0.58517(14) 0.89185(12) 0.01596(13)
C11DC C 0.51596(13) 0.85815(12) 0.16483(14)
C11NE C 0.51596(13) 0.66483(14) -0.14185(12)
H8CA H 0.5969 0.9936 -0.0866
H8AE H 0.6531 0.8366 -0.0064
H8WD H 0.5866 0.9031 0.0064
H8DC H 0.5064 0.8469 0.1634
H8NE H 0.5064 0.6634 -0.1531
C12CA C 0.65760(10) 0.94107(9) -0.07879(10)
C12AE C 0.59240(10) 0.82879(10) -0.05893(9)
C12WD C 0.57879(10) 0.84240(10) 0.05893(9)
C12DC C 0.55893(9) 0.90760(10) 0.17121(10)
C12NE C 0.55893(9) 0.67121(10) -0.09240(10)
N4CA N 0.65977(8) 0.93022(7) -0.06118(8)
N4AE N 0.59023(8) 0.81118(8) -0.06978(7)
N4WD N 0.56118(8) 0.84023(8) 0.06978(7)
N4DC N 0.56978(7) 0.90977(8) 0.18882(8)
N4NE N 0.56978(7) 0.68882(8) -0.09023(8)
C13CA C 0.67568(10) 0.91641(9) -0.06122(10)
C13AE C 0.57432(10) 0.81122(10) -0.08359(9)
C13WD C 0.56122(10) 0.82432(10) 0.08359(9)
C13DC C 0.58359(9) 0.92568(10) 0.18878(10)
C13NE C 0.58359(9) 0.68878(10) -0.07432(10)
N5CA N 0.68865(8) 0.91302(7) -0.07741(9)
N5AE N 0.56135(8) 0.82741(9) -0.08698(7)
N5WD N 0.57741(9) 0.81135(8) 0.08698(7)
N5DC N 0.58698(7) 0.93865(8) 0.17259(9)
N5NE N 0.58698(7) 0.67259(9) -0.06135(8)
C14CA C 0.68459(10) 0.92406(9) -0.09434(10)
C14AE C 0.56541(10) 0.84434(10) -0.07594(9)
C14WD C 0.59434(10) 0.81541(10) 0.07594(9)
C14DC C 0.57594(9) 0.93459(10) 0.15566(10)
C14NE C 0.57594(9) 0.65566(10) -0.06541(10)
N6CA N 0.66929(8) 0.93853(8) -0.09624(8)
N6AE N 0.58071(8) 0.84624(8) -0.06147(8)
N6WD N 0.59624(8) 0.83071(8) 0.06147(8)
N6DC N 0.56147(8) 0.91929(8) 0.15376(8)
N6NE N 0.56147(8) 0.65376(8) -0.08071(8)
C15CA C 0.69720(10) 0.91970(9) -0.11334(10)
C15AE C 0.55280(10) 0.86334(10) -0.08030(9)
C15WD C 0.61334(10) 0.80280(10) 0.08030(9)
C15DC C 0.58030(9) 0.94720(10) 0.13666(10)
C15NE C 0.58030(9) 0.63666(10) -0.05280(10)
C16CA C 0.71194(10) 0.90386(8) -0.11258(9)
C16AE C 0.53806(10) 0.86258(9) -0.09614(8)
C16WD C 0.61258(9) 0.78806(10) 0.09614(8)
C16DC C 0.59614(8) 0.96194(10) 0.13742(9)
C16NE C 0.59614(8) 0.63742(9) -0.03806(10)
H9CA H 0.7135 0.8962 -0.0999
H9AE H 0.5365 0.8499 -0.1038
H9WD H 0.5999 0.7865 0.1038
H9DC H 0.6038 0.9635 0.1501
H9NE H 0.6038 0.6501 -0.0365
N7CA N 0.72392(8) 0.89889(7) -0.12869(8)
N7AE N 0.52608(8) 0.87869(8) -0.10111(7)
N7WD N 0.62869(8) 0.77608(8) 0.10111(7)
N7DC N 0.60111(7) 0.97392(8) 0.12131(8)
N7NE N 0.60111(7) 0.62131(8) -0.02608(8)
N7XA N 0.72392(8) 0.85111(7) -0.12131(8)
N7XF N 0.52608(8) 0.87131(8) -0.14889(7)
C17CA C 0.72163(11) 0.90985(11) -0.14656(12)
C17AE C 0.52837(11) 0.89656(12) -0.09015(11)
C17WD C 0.64656(12) 0.77837(11) 0.09015(11)
C17DC C 0.59015(11) 0.97163(11) 0.10344(12)
C17NE C 0.59015(11) 0.60344(12) -0.02837(11)
H10CA H 0.7303 0.9066 -0.1582
H10AE H 0.5197 0.9082 -0.0934
H10WD H 0.6582 0.7697 0.0934
H10DC H 0.5934 0.9803 0.0918
H10NE H 0.5934 0.5918 -0.0197
C18CA C 0.70708(13) 0.92569(13) -0.14855(14)
C18AE C 0.54292(13) 0.89855(14) -0.07431(13)
C18WD C 0.64855(14) 0.79292(13) 0.07431(13)
C18DC C 0.57431(13) 0.95708(13) 0.10145(14)
C18NE C 0.57431(13) 0.60145(14) -0.04292(13)
H11CA H 0.7060 0.9332 -0.1613
H11AE H 0.5440 0.9113 -0.0668
H11WD H 0.6613 0.7940 0.0668
H11DC H 0.5668 0.9560 0.0887
H11NE H 0.5668 0.5887 -0.0440
C19CA C 0.69414(12) 0.93053(13) -0.13185(13)
C19AE C 0.55586(12) 0.88185(13) -0.06947(13)
C19WD C 0.63185(13) 0.80586(12) 0.06947(13)
C19DC C 0.56947(13) 0.94414(12) 0.11815(13)
C19NE C 0.56947(13) 0.61815(13) -0.05586(12)
H12CA H 0.6836 0.9409 -0.1331
H12AE H 0.5664 0.8831 -0.0591
H12WD H 0.6331 0.8164 0.0591
H12DC H 0.5591 0.9336 0.1169
H12NE H 0.5591 0.6169 -0.0664
Co2CA Co 0.7479 0.875000(15) -0.1250
Co2AE Co 0.5021 0.8750 -0.125000(15)
Co2UA Co 0.6250 1.125000(15) 0.2521
Co2EB Co 0.7521 1.1250 0.125000(15)
Co2WD Co 0.6250 0.7521 0.125000(15)
Co2FB Co 0.6250 1.125000(15) -0.0021
Co2IA Co 0.4979 1.1250 0.125000(15)
Co2NE Co 0.625000(15) 0.6250 -0.0021
N8DC N 0.62271(7) 0.99915(9) 0.15756(8)
N8CA N 0.74915(9) 0.87729(7) -0.09244(8)
N8XA N 0.74915(9) 0.87271(7) -0.15756(8)
N8AE N 0.50085(9) 0.84244(8) -0.12271(7)
N8XF N 0.50085(9) 0.90756(8) -0.12729(7)
C20DC C 0.61948(9) 1.00138(13) 0.17494(12)
C20CA C 0.75138(13) 0.88052(9) -0.07506(12)
C20XA C 0.75138(13) 0.86948(9) -0.17494(12)
C20AE C 0.49862(13) 0.82506(12) -0.11948(9)
C20XF C 0.49862(13) 0.92494(12) -0.13052(9)
S2DC S 0.61400(3) 1.00498(4) 0.19983(6)
S2CA S 0.75498(4) 0.88600(3) -0.05017(6)
S2XA S 0.75498(4) 0.86400(3) -0.19983(6)
S2AE S 0.49502(4) 0.80017(6) -0.11400(3)
S2XF S 0.49502(4) 0.94983(6) -0.13600(3)
N9CB N 0.62507(8) 1.09876(7) 0.23039(8)
N9QB N 0.73039(8) 1.12493(8) 0.15124(7)
N9DC N 0.59876(7) 1.01961(8) 0.12493(8)
N9FB N 0.62493(8) 1.09876(7) 0.01961(8)
N9IA N 0.51961(8) 1.12493(8) 0.09876(7)
N9CA N 0.76961(8) 0.90124(7) -0.12507(8)
N9XA N 0.76961(8) 0.84876(7) -0.12493(8)
N9AE N 0.48039(8) 0.87507(8) -0.09876(7)
N9XF N 0.48039(8) 0.87493(8) -0.15124(7)
C21CB C 0.63990(10) 1.09689(9) 0.21552(11)
C21QB C 0.71552(11) 1.11010(10) 0.15311(9)
C21DC C 0.59689(9) 1.03448(11) 0.11010(10)
C21FB C 0.61010(10) 1.09689(9) 0.03448(11)
C21IA C 0.53448(11) 1.11010(10) 0.09689(9)
H13CB H 0.6498 1.1078 0.2140
H13QB H 0.7140 1.1002 0.1422
H13DC H 0.6078 1.0360 0.1002
H13FB H 0.6002 1.1078 0.0360
H13IA H 0.5360 1.1002 0.1078
C22CB C 0.64127(11) 1.07970(12) 0.20244(13)
C22QB C 0.70244(13) 1.10873(11) 0.17030(12)
C22DC C 0.57970(12) 1.04756(13) 0.10873(11)
C22FB C 0.60873(11) 1.07970(12) 0.04756(13)
C22IA C 0.54756(13) 1.10873(11) 0.07970(12)
C23CB C 0.62654(13) 1.06346(14) 0.20527(14)
C23QB C 0.70527(14) 1.12346(13) 0.18654(14)
C23DC C 0.56346(14) 1.04473(14) 0.12346(13)
C23FB C 0.62346(13) 1.06346(14) 0.04473(14)
C23IA C 0.54473(14) 1.12346(13) 0.06346(14)
H14CB H 0.6269 1.0515 0.1965
H14QB H 0.6965 1.1231 0.1985
H14DC H 0.5515 1.0535 0.1231
H14FB H 0.6231 1.0515 0.0535
H14IA H 0.5535 1.1231 0.0515
C24CB C 0.61202(12) 1.06504(13) 0.22043(14)
C24QB C 0.72043(14) 1.13798(12) 0.18496(13)
C24DC C 0.56504(13) 1.02957(14) 0.13798(12)
C24FB C 0.63798(12) 1.06504(13) 0.02957(14)
C24IA C 0.52957(14) 1.13798(12) 0.06504(13)
H15CB H 0.6024 1.0539 0.2228
H15QB H 0.7228 1.1476 0.1961
H15DC H 0.5539 1.0272 0.1476
H15FB H 0.6476 1.0539 0.0272
H15IA H 0.5272 1.1476 0.0539
C25CB C 0.61112(10) 1.08294(11) 0.23253(13)
C25QB C 0.73253(13) 1.13888(10) 0.16706(11)
C25DC C 0.58294(11) 1.01747(13) 0.13888(10)
C25FB C 0.63888(10) 1.08294(11) 0.01747(13)
C25IA C 0.51747(13) 1.13888(10) 0.08294(11)
H16CB H 0.6003 1.0842 0.2427
H16QB H 0.7427 1.1497 0.1658
H16DC H 0.5842 1.0073 0.1497
H16FB H 0.6497 1.0842 0.0073
H16IA H 0.5073 1.1497 0.0842
C26CB C 0.65742(12) 1.07891(12) 0.18588(13)
C26QB C 0.68588(13) 1.09258(12) 0.17109(12)
C26DC C 0.57891(12) 1.06412(13) 0.09258(12)
C26FB C 0.59258(12) 1.07891(12) 0.06412(13)
C26IA C 0.56412(13) 1.09258(12) 0.07891(12)
N10CB N 0.67217(11) 1.09348(10) 0.18649(10)
N10QB N 0.68649(10) 1.07783(11) 0.15652(10)
N10DC N 0.59348(10) 1.06351(10) 0.07783(11)
N10FB N 0.57783(11) 1.09348(10) 0.06351(10)
N10IA N 0.56351(10) 1.07783(11) 0.09348(10)
C27 C 0.6145(2) 0.8313(3) -0.1159(3)
H17 H 0.6293 0.8353 -0.1181
H18 H 0.6134 0.8233 -0.1027
C28 C 0.6065(3) 0.8191(3) -0.1338(4)
H19 H 0.6129 0.8070 -0.1395
C29 C 0.5884(3) 0.8277(3) -0.1408(2)
H20 H 0.5792 0.8218 -0.1509
C30 C 0.58545(19) 0.8470(2) -0.1305(2)
H21 H 0.5745 0.8566 -0.1335
C31 C 0.6007(3) 0.8501(2) -0.1155(2)
H22 H 0.6020 0.8619 -0.1065
C32 C 0.2912(3) 0.8183(4) 0.0450(2)
H23 H 0.3001 0.8178 0.0569
C33 C 0.3195(3) 0.7965(4) 0.0066(3)
H24 H 0.3343 0.7955 0.0055
C34 C 0.2907(3) 0.8342(3) 0.0305(4)
H25 H 0.2988 0.8466 0.0305
C35 C 0.3067(3) 0.8111(4) -0.0058(3)
H26 H 0.3075 0.8075 -0.0208
H27 H 0.3117 0.8256 -0.0038
C36 C 0.2850(3) 0.7914(2) 0.0189(3)
H28 H 0.2760 0.7794 0.0145
C37 C 0.2752(3) 0.8019(3) 0.0389(3)
H29 H 0.2702 0.7923 0.0502
C38 C 0.3075(4) 0.7842(3) 0.0202(3)
H30 H 0.3127 0.7732 0.0287
C39 C 0.2586(2) 0.8157(4) 0.0280(4)
H31 H 0.2511 0.8249 0.0379
H32 H 0.2484 0.8074 0.0197
C40 C 0.2842(3) 0.8087(3) 0.00223(18)
H33 H 0.2747 0.8044 -0.0095
C41 C 0.2744(3) 0.8277(3) 0.0142(3)
H34 H 0.2686 0.8391 0.0053
C42 C 0.6036(5) 0.8018(3) 0.0101(4)
H35 H 0.6002 0.8148 0.0037
C43 C 0.6205(4) 0.7602(3) 0.0084(3)
H36 H 0.6206 0.7451 0.0126
C44 C 0.5964(4) 0.7737(4) 0.0331(3)
H37 H 0.5923 0.7829 0.0449
H38 H 0.5912 0.7593 0.0355
C45 C 0.5998(3) 0.7656(4) -0.0029(3)
H39 H 0.5907 0.7529 -0.0036
C46 C 0.6200(4) 0.7744(4) 0.0284(3)
H40 H 0.6296 0.7705 0.0401
C47 C 0.6222(4) 0.7965(4) 0.0198(4)
H41 H 0.6342 0.8051 0.0209
C48 C 0.5896(3) 0.7825(4) 0.0116(4)
H42 H 0.5742 0.7850 0.0096
C49 C 0.6061(5) 0.7726(5) -0.0249(3)
H43 H 0.5999 0.7631 -0.0356
H44 H 0.6011 0.7870 -0.0277
C50 C 0.6290(5) 0.7717(4) -0.0258(3)
H45 H 0.6369 0.7758 -0.0377
C51 C 0.6379(4) 0.7644(5) -0.0073(4)
H46 H 0.6524 0.7623 -0.0050
loop_
_geom_bond_atom_site_label_1
_geom_bond_atom_site_label_2
_geom_bond_site_symmetry_1
_geom_bond_site_symmetry_2
S1 C1 1_555 1_555
C1 N1 1_555 1_555
N1 Co1 1_555 1_555
Co1 N2 1_555 1_555
N2 C2 1_555 1_555
C2 H1 1_555 1_555
C3 C2 1_555 1_555
H2 C3 1_555 1_555
C4 C3 1_555 1_555
H3 C4 1_555 1_555
C5 C4 1_555 1_555
C6 N2 1_555 1_555
H4 C6 1_555 1_555
N3 C7 1_555 1_555
C7 H5 1_555 1_555
C8 C7 1_555 1_555
C9 C8 1_555 1_555
H6 C9 1_555 1_555
C10 C9 1_555 1_555
H7 C10 1_555 1_555
C11 N3 1_555 1_555
H8 C11 1_555 1_555
C12 C8 1_555 1_555
N4 C12 1_555 1_555
C13 C5 1_555 1_555
N5 C13 1_555 1_555
C14 N5 1_555 1_555
N6 C12 1_555 1_555
C15 C14 1_555 1_555
C16 C15 1_555 1_555
H9 C16 1_555 1_555
N7 C16 1_555 1_555
C17 N7 1_555 1_555
H10 C17 1_555 1_555
C18 C17 1_555 1_555
H11 C18 1_555 1_555
C19 C15 1_555 1_555
H12 C19 1_555 1_555
Co2 N7 1_555 1_555
N8 Co2 1_555 1_555
C20 N8 1_555 1_555
S2 C20 1_555 1_555
N9 Co2 1_555 1_555
C21 N9 1_555 1_555
H13 C21 1_555 1_555
C22 C21 1_555 1_555
C23 C22 1_555 1_555
H14 C23 1_555 1_555
C24 C23 1_555 1_555
H15 C24 1_555 1_555
C25 N9 1_555 1_555
H16 C25 1_555 1_555
C26 C22 1_555 1_555
N10 C26 1_555 1_555
C27 H17 1_555 1_555
H18 C27 1_555 1_555
C28 C27 1_555 1_555
H19 C28 1_555 1_555
C29 C28 1_555 1_555
H20 C29 1_555 1_555
C30 C29 1_555 1_555
H21 C30 1_555 1_555
C31 C27 1_555 1_555
H22 C31 1_555 1_555
C32 H23 1_555 1_555
C33 H24 1_555 1_555
C34 C32 1_555 1_555
H25 C34 1_555 1_555
C35 C33 1_555 1_555
H26 C35 1_555 1_555
H27 C35 1_555 1_555
C36 H28 1_555 1_555
C37 C32 1_555 1_555
H29 C37 1_555 1_555
C38 C33 1_555 1_555
H30 C38 1_555 1_555
C39 C37 1_555 1_555
H31 C39 1_555 1_555
H32 C39 1_555 1_555
C40 C35 1_555 1_555
H33 C40 1_555 1_555
C41 C34 1_555 1_555
H34 C41 1_555 1_555
C42 H35 1_555 1_555
C43 H36 1_555 1_555
C44 H37 1_555 1_555
H38 C44 1_555 1_555
C45 C43 1_555 1_555
H39 C45 1_555 1_555
C46 C43 1_555 1_555
H40 C46 1_555 1_555
C47 C42 1_555 1_555
H41 C47 1_555 1_555
C48 C42 1_555 1_555
H42 C48 1_555 1_555
C49 C45 1_555 1_555
H43 C49 1_555 1_555
H44 C49 1_555 1_555
C50 C49 1_555 1_555
H45 C50 1_555 1_555
C51 C43 1_555 1_555
H46 C51 1_555 1_555
S1CA C1CA 1_555 1_555
S1AE C1AE 1_555 1_555
S1NE C1NE 1_555 1_555
S1WD C1WD 1_555 1_555
S1IG C1IG 1_555 1_555
C1CA N1CA 1_555 1_555
C1AE N1AE 1_555 1_555
C1NE N1NE 1_555 1_555
C1WD N1WD 1_555 1_555
C1IG N1IG 1_555 1_555
N1CA Co1 1_555 1_555
N1AE Co1AE 1_555 1_555
N1NE Co1AE 1_555 1_555
N1WD Co1WD 1_555 1_555
N1IG Co1WD 1_555 1_555
Co1AE N2AE 1_555 1_555
Co1WD N2WD 1_555 1_555
Co1KD N3 1_555 1_555
Co1VD N3CA 1_555 1_555
Co1UB N2DC 1_555 1_555
Co1OA N3NE 1_555 1_555
N2CA Co1 1_555 1_555
N2AE C2AE 1_555 1_555
N2WD C2WD 1_555 1_555
N2DC C2DC 1_555 1_555
N2NE Co1AE 1_555 1_555
N2IG Co1WD 1_555 1_555
C2CA N2CA 1_555 1_555
C2AE H1AE 1_555 1_555
C2WD H1WD 1_555 1_555
C2DC H1DC 1_555 1_555
C2NE N2NE 1_555 1_555
H1CA C2CA 1_555 1_555
H1NE C2NE 1_555 1_555
C3CA C2CA 1_555 1_555
C3AE C2AE 1_555 1_555
C3WD C2WD 1_555 1_555
C3DC C2DC 1_555 1_555
C3NE C2NE 1_555 1_555
H2CA C3CA 1_555 1_555
H2AE C3AE 1_555 1_555
H2WD C3WD 1_555 1_555
H2DC C3DC 1_555 1_555
H2NE C3NE 1_555 1_555
C4CA C3CA 1_555 1_555
C4AE C3AE 1_555 1_555
C4WD C3WD 1_555 1_555
C4DC C3DC 1_555 1_555
C4NE C3NE 1_555 1_555
H3CA C4CA 1_555 1_555
H3AE C4AE 1_555 1_555
H3WD C4WD 1_555 1_555
H3DC C4DC 1_555 1_555
H3NE C4NE 1_555 1_555
C5CA C4CA 1_555 1_555
C5AE C4AE 1_555 1_555
C5WD C4WD 1_555 1_555
C5DC C4DC 1_555 1_555
C5NE C4NE 1_555 1_555
C6CA N2CA 1_555 1_555
C6AE N2AE 1_555 1_555
C6WD N2WD 1_555 1_555
C6DC N2DC 1_555 1_555
C6NE N2NE 1_555 1_555
H4CA C6CA 1_555 1_555
H4AE C6AE 1_555 1_555
H4WD C6WD 1_555 1_555
H4DC C6DC 1_555 1_555
H4NE C6NE 1_555 1_555
N3CA C7CA 1_555 1_555
N3AE Co1 1_555 1_555
N3WD Co1 1_555 1_555
N3DC Co1WD 1_555 1_555
N3NE C7NE 1_555 1_555
N3GA Co1AE 1_555 1_555
N3XA Co1AE 1_555 1_555
N3DA Co1WD 1_555 1_555
C7CA H5CA 1_555 1_555
C7AE N3AE 1_555 1_555
C7WD N3WD 1_555 1_555
C7DC N3DC 1_555 1_555
C7NE H5NE 1_555 1_555
H5AE C7AE 1_555 1_555
H5WD C7WD 1_555 1_555
H5DC C7DC 1_555 1_555
C8CA C7CA 1_555 1_555
C8AE C7AE 1_555 1_555
C8WD C7WD 1_555 1_555
C8DC C7DC 1_555 1_555
C8NE C7NE 1_555 1_555
C9CA C8CA 1_555 1_555
C9AE C8AE 1_555 1_555
C9WD C8WD 1_555 1_555
C9DC C8DC 1_555 1_555
C9NE C8NE 1_555 1_555
H6CA C9CA 1_555 1_555
H6AE C9AE 1_555 1_555
H6WD C9WD 1_555 1_555
H6DC C9DC 1_555 1_555
H6NE C9NE 1_555 1_555
C10CA C9CA 1_555 1_555
C10AE C9AE 1_555 1_555
C10WD C9WD 1_555 1_555
C10DC C9DC 1_555 1_555
C10NE C9NE 1_555 1_555
H7CA C10CA 1_555 1_555
H7AE C10AE 1_555 1_555
H7WD C10WD 1_555 1_555
H7DC C10DC 1_555 1_555
H7NE C10NE 1_555 1_555
C11CA N3CA 1_555 1_555
C11AE N3AE 1_555 1_555
C11WD N3WD 1_555 1_555
C11DC N3DC 1_555 1_555
C11NE N3NE 1_555 1_555
H8CA C11CA 1_555 1_555
H8AE C11AE 1_555 1_555
H8WD C11WD 1_555 1_555
H8DC C11DC 1_555 1_555
H8NE C11NE 1_555 1_555
C12CA C8CA 1_555 1_555
C12AE C8AE 1_555 1_555
C12WD C8WD 1_555 1_555
C12DC C8DC 1_555 1_555
C12NE C8NE 1_555 1_555
N4CA C12CA 1_555 1_555
N4AE C12AE 1_555 1_555
N4WD C12WD 1_555 1_555
N4DC C12DC 1_555 1_555
N4NE C12NE 1_555 1_555
C13CA C5CA 1_555 1_555
C13AE C5AE 1_555 1_555
C13WD C5WD 1_555 1_555
C13DC C5DC 1_555 1_555
C13NE C5NE 1_555 1_555
N5CA C13CA 1_555 1_555
N5AE C13AE 1_555 1_555
N5WD C13WD 1_555 1_555
N5DC C13DC 1_555 1_555
N5NE C13NE 1_555 1_555
C14CA N5CA 1_555 1_555
C14AE N5AE 1_555 1_555
C14WD N5WD 1_555 1_555
C14DC N5DC 1_555 1_555
C14NE N5NE 1_555 1_555
N6CA C12CA 1_555 1_555
N6AE C12AE 1_555 1_555
N6WD C12WD 1_555 1_555
N6DC C12DC 1_555 1_555
N6NE C12NE 1_555 1_555
C15CA C14CA 1_555 1_555
C15AE C14AE 1_555 1_555
C15WD C14WD 1_555 1_555
C15DC C14DC 1_555 1_555
C15NE C14NE 1_555 1_555
C16CA C15CA 1_555 1_555
C16AE C15AE 1_555 1_555
C16WD C15WD 1_555 1_555
C16DC C15DC 1_555 1_555
C16NE C15NE 1_555 1_555
H9CA C16CA 1_555 1_555
H9AE C16AE 1_555 1_555
H9WD C16WD 1_555 1_555
H9DC C16DC 1_555 1_555
H9NE C16NE 1_555 1_555
N7CA C16CA 1_555 1_555
N7AE C16AE 1_555 1_555
N7WD C16WD 1_555 1_555
N7DC Co2 1_555 1_555
N7NE C16NE 1_555 1_555
N7XA Co2CA 1_555 1_555
N7XF Co2AE 1_555 1_555
C17CA N7CA 1_555 1_555
C17AE N7AE 1_555 1_555
C17WD N7WD 1_555 1_555
C17DC N7DC 1_555 1_555
C17NE N7NE 1_555 1_555
H10CA C17CA 1_555 1_555
H10AE C17AE 1_555 1_555
H10WD C17WD 1_555 1_555
H10DC C17DC 1_555 1_555
H10NE C17NE 1_555 1_555
C18CA C17CA 1_555 1_555
C18AE C17AE 1_555 1_555
C18WD C17WD 1_555 1_555
C18DC C17DC 1_555 1_555
C18NE C17NE 1_555 1_555
H11CA C18CA 1_555 1_555
H11AE C18AE 1_555 1_555
H11WD C18WD 1_555 1_555
H11DC C18DC 1_555 1_555
H11NE C18NE 1_555 1_555
C19CA C15CA 1_555 1_555
C19AE C15AE 1_555 1_555
C19WD C15WD 1_555 1_555
C19DC C15DC 1_555 1_555
C19NE C15NE 1_555 1_555
H12CA C19CA 1_555 1_555
H12AE C19AE 1_555 1_555
H12WD C19WD 1_555 1_555
H12DC C19DC 1_555 1_555
H12NE C19NE 1_555 1_555
Co2CA N7CA 1_555 1_555
Co2AE N7AE 1_555 1_555
Co2UA N9CB 1_555 1_555
Co2EB N9QB 1_555 1_555
Co2WD N7WD 1_555 1_555
Co2FB N9FB 1_555 1_555
Co2IA N9IA 1_555 1_555
Co2NE N7NE 1_555 1_555
N8DC Co2 1_555 1_555
N8CA Co2CA 1_555 1_555
N8XA Co2CA 1_555 1_555
N8AE Co2AE 1_555 1_555
N8XF Co2AE 1_555 1_555
C20DC N8DC 1_555 1_555
C20CA N8CA 1_555 1_555
C20XA N8XA 1_555 1_555
C20AE N8AE 1_555 1_555
C20XF N8XF 1_555 1_555
S2DC C20DC 1_555 1_555
S2CA C20CA 1_555 1_555
S2XA C20XA 1_555 1_555
S2AE C20AE 1_555 1_555
S2XF C20XF 1_555 1_555
N9CB C21CB 1_555 1_555
N9QB C21QB 1_555 1_555
N9DC Co2 1_555 1_555
N9FB C21FB 1_555 1_555
N9IA C21IA 1_555 1_555
N9CA Co2CA 1_555 1_555
N9XA Co2CA 1_555 1_555
N9AE Co2AE 1_555 1_555
N9XF Co2AE 1_555 1_555
C21CB H13CB 1_555 1_555
C21QB H13QB 1_555 1_555
C21DC N9DC 1_555 1_555
C21FB H13FB 1_555 1_555
C21IA H13IA 1_555 1_555
H13DC C21DC 1_555 1_555
C22CB C21CB 1_555 1_555
C22QB C21QB 1_555 1_555
C22DC C21DC 1_555 1_555
C22FB C21FB 1_555 1_555
C22IA C21IA 1_555 1_555
C23CB C22CB 1_555 1_555
C23QB C22QB 1_555 1_555
C23DC C22DC 1_555 1_555
C23FB C22FB 1_555 1_555
C23IA C22IA 1_555 1_555
H14CB C23CB 1_555 1_555
H14QB C23QB 1_555 1_555
H14DC C23DC 1_555 1_555
H14FB C23FB 1_555 1_555
H14IA C23IA 1_555 1_555
C24CB C23CB 1_555 1_555
C24QB C23QB 1_555 1_555
C24DC C23DC 1_555 1_555
C24FB C23FB 1_555 1_555
C24IA C23IA 1_555 1_555
H15CB C24CB 1_555 1_555
H15QB C24QB 1_555 1_555
H15DC C24DC 1_555 1_555
H15FB C24FB 1_555 1_555
H15IA C24IA 1_555 1_555
C25CB N9CB 1_555 1_555
C25QB N9QB 1_555 1_555
C25DC N9DC 1_555 1_555
C25FB N9FB 1_555 1_555
C25IA N9IA 1_555 1_555
H16CB C25CB 1_555 1_555
H16QB C25QB 1_555 1_555
H16DC C25DC 1_555 1_555
H16FB C25FB 1_555 1_555
H16IA C25IA 1_555 1_555
C26CB N10 1_555 1_555
C26QB C22QB 1_555 1_555
C26DC C22DC 1_555 1_555
C26FB C22FB 1_555 1_555
C26IA C22IA 1_555 1_555
N10CB C26CB 1_555 1_555
N10QB C26 1_555 1_555
N10DC C26DC 1_555 1_555
N10FB C26FB 1_555 1_555
N10IA C26DC 1_555 1_555
C5 C6 1_555 1_555
C10 C11 1_555 1_555
N4 C13 1_555 1_555
C14 N6 1_555 1_555
C18 C19 1_555 1_555
C24 C25 1_555 1_555
C30 C31 1_555 1_555
C36 C37 1_555 1_555
C36 C38 1_555 1_555
C36 C40 1_555 1_555
C39 C41 1_555 1_555
C40 C41 1_555 1_555
C44 C46 1_555 1_555
C44 C48 1_555 1_555
C45 C48 1_555 1_555
C46 C47 1_555 1_555
C50 C51 1_555 1_555
C5CA C6CA 1_555 1_555
C5AE C6AE 1_555 1_555
C5WD C6WD 1_555 1_555
C5DC C6DC 1_555 1_555
C5NE C6NE 1_555 1_555
C10CA C11CA 1_555 1_555
C10AE C11AE 1_555 1_555
C10WD C11WD 1_555 1_555
C10DC C11DC 1_555 1_555
C10NE C11NE 1_555 1_555
N4CA C13CA 1_555 1_555
N4AE C13AE 1_555 1_555
N4WD C13WD 1_555 1_555
N4DC C13DC 1_555 1_555
N4NE C13NE 1_555 1_555
C14CA N6CA 1_555 1_555
C14AE N6AE 1_555 1_555
C14WD N6WD 1_555 1_555
C14DC N6DC 1_555 1_555
C14NE N6NE 1_555 1_555
C16DC N7DC 1_555 1_555
C18CA C19CA 1_555 1_555
C18AE C19AE 1_555 1_555
C18WD C19WD 1_555 1_555
C18DC C19DC 1_555 1_555
C18NE C19NE 1_555 1_555
C22CB C26CB 1_555 1_555
C24CB C25CB 1_555 1_555
C24QB C25QB 1_555 1_555
C24DC C25DC 1_555 1_555
C24FB C25FB 1_555 1_555
C24IA C25IA 1_555 1_555
C26QB N10CB 1_555 1_555
C26QB N10QB 1_555 1_555
C26FB N10DC 1_555 1_555
C26IA N10FB 1_555 1_555
C26IA N10IA 1_555 1_555

#END
