
#######################################################################
#
#                 Cambridge Crystallographic Data Centre
#                                CCDC 
#
#######################################################################
#
# If this CIF has been generated from an entry in the Cambridge 
# Structural Database, then it will include bibliographic, chemical, 
# crystal, experimental, refinement or atomic coordinate data resulting 
# from the CCDC's data processing and validation procedures.
#
#######################################################################

data_LAFRER
_symmetry_cell_setting           cubic
_symmetry_space_group_name_H-M   'F d -3 c'
_symmetry_Int_Tables_number      228
_space_group_name_Hall           '-F 4ud 2vw 3'
loop_
_symmetry_equiv_pos_site_id
_symmetry_equiv_pos_as_xyz
1 x,y,z
2 1/4+y,1/4+x,1/2-z
3 1/4+x,-z,3/4+y
4 -z,1/4+y,3/4+x
5 3/4+z,1/4+y,-x
6 1/4-z,x,1/4-y
7 1/4+x,3/4+z,-y
8 y,1/4-z,1/4-x
9 1/4+y,-x,3/4+z
10 x,1/4-y,1/4-z
11 1/4-x,1/4-y,z
12 1/2-y,-x,-z
13 -z,-y,1/2-x
14 z,1/4-x,1/4-y
15 x,1/2+y,1/2+z
16 1/4+y,3/4+x,-z
17 1/4+x,1/2-z,1/4+y
18 -z,3/4+y,1/4+x
19 3/4+z,3/4+y,1/2-x
20 1/4-z,1/2+x,3/4-y
21 1/4+x,1/4+z,1/2-y
22 y,3/4-z,3/4-x
23 1/4+y,1/2-x,1/4+z
24 x,3/4-y,3/4-z
25 1/4-x,3/4-y,1/2+z
26 1/2-y,1/2-x,1/2-z
27 -z,1/2-y,-x
28 z,3/4-x,3/4-y
29 1/2+x,y,1/2+z
30 3/4+y,1/4+x,-z
31 3/4+x,-z,1/4+y
32 1/2-z,1/4+y,1/4+x
33 1/4+z,1/4+y,1/2-x
34 3/4-z,x,3/4-y
35 3/4+x,3/4+z,1/2-y
36 1/2+y,1/4-z,3/4-x
37 3/4+y,-x,1/4+z
38 1/2+x,1/4-y,3/4-z
39 3/4-x,1/4-y,1/2+z
40 -y,-x,1/2-z
41 1/2-z,-y,-x
42 1/2+z,1/4-x,3/4-y
43 1/2+x,1/2+y,z
44 3/4+y,3/4+x,1/2-z
45 3/4+x,1/2-z,3/4+y
46 1/2-z,3/4+y,3/4+x
47 1/4+z,3/4+y,-x
48 3/4-z,1/2+x,1/4-y
49 3/4+x,1/4+z,-y
50 1/2+y,3/4-z,1/4-x
51 3/4+y,1/2-x,3/4+z
52 1/2+x,3/4-y,1/4-z
53 3/4-x,3/4-y,z
54 -y,1/2-x,-z
55 1/2-z,1/2-y,1/2-x
56 1/2+z,3/4-x,1/4-y
57 -x,1/2-z,-y
58 3/4-y,z,3/4-x
59 3/4-z,3/4-x,y
60 3/4-y,3/4-z,x
61 1/2-x,3/4+z,3/4+y
62 3/4+z,1/2-y,3/4+x
63 3/4-x,y,3/4-z
64 1/2-y,3/4+x,3/4+z
65 y,z,x
66 z,x,y
67 -x,-z,1/2-y
68 3/4-y,1/2+z,1/4-x
69 3/4-z,1/4-x,1/2+y
70 3/4-y,1/4-z,1/2+x
71 1/2-x,1/4+z,1/4+y
72 3/4+z,-y,1/4+x
73 3/4-x,1/2+y,1/4-z
74 1/2-y,1/4+x,1/4+z
75 y,1/2+z,1/2+x
76 z,1/2+x,1/2+y
77 1/2-x,1/2-z,1/2-y
78 1/4-y,z,1/4-x
79 1/4-z,3/4-x,1/2+y
80 1/4-y,3/4-z,1/2+x
81 -x,3/4+z,1/4+y
82 1/4+z,1/2-y,1/4+x
83 1/4-x,y,1/4-z
84 -y,3/4+x,1/4+z
85 1/2+y,z,1/2+x
86 1/2+z,x,1/2+y
87 1/2-x,-z,-y
88 1/4-y,1/2+z,3/4-x
89 1/4-z,1/4-x,y
90 1/4-y,1/4-z,x
91 -x,1/4+z,3/4+y
92 1/4+z,-y,3/4+x
93 1/4-x,1/2+y,3/4-z
94 -y,1/4+x,3/4+z
95 1/2+y,1/2+z,x
96 1/2+z,1/2+x,y
97 -x,-y,-z
98 3/4-y,3/4-x,1/2+z
99 3/4-x,z,1/4-y
100 z,3/4-y,1/4-x
101 1/4-z,3/4-y,x
102 3/4+z,-x,3/4+y
103 3/4-x,1/4-z,y
104 -y,3/4+z,3/4+x
105 3/4-y,x,1/4-z
106 -x,3/4+y,3/4+z
107 3/4+x,3/4+y,-z
108 1/2+y,x,z
109 z,y,1/2+x
110 -z,3/4+x,3/4+y
111 -x,1/2-y,1/2-z
112 3/4-y,1/4-x,z
113 3/4-x,1/2+z,3/4-y
114 z,1/4-y,3/4-x
115 1/4-z,1/4-y,1/2+x
116 3/4+z,1/2-x,1/4+y
117 3/4-x,3/4-z,1/2+y
118 -y,1/4+z,1/4+x
119 3/4-y,1/2+x,3/4-z
120 -x,1/4+y,1/4+z
121 3/4+x,1/4+y,1/2-z
122 1/2+y,1/2+x,1/2+z
123 z,1/2+y,x
124 -z,1/4+x,1/4+y
125 1/2-x,-y,1/2-z
126 1/4-y,3/4-x,z
127 1/4-x,z,3/4-y
128 1/2+z,3/4-y,3/4-x
129 3/4-z,3/4-y,1/2+x
130 1/4+z,-x,1/4+y
131 1/4-x,1/4-z,1/2+y
132 1/2-y,3/4+z,1/4+x
133 1/4-y,x,3/4-z
134 1/2-x,3/4+y,1/4+z
135 1/4+x,3/4+y,1/2-z
136 y,x,1/2+z
137 1/2+z,y,x
138 1/2-z,3/4+x,1/4+y
139 1/2-x,1/2-y,-z
140 1/4-y,1/4-x,1/2+z
141 1/4-x,1/2+z,1/4-y
142 1/2+z,1/4-y,1/4-x
143 3/4-z,1/4-y,x
144 1/4+z,1/2-x,3/4+y
145 1/4-x,3/4-z,y
146 1/2-y,1/4+z,3/4+x
147 1/4-y,1/2+x,1/4-z
148 1/2-x,1/4+y,3/4+z
149 1/4+x,1/4+y,-z
150 y,1/2+x,z
151 1/2+z,1/2+y,1/2+x
152 1/2-z,1/4+x,3/4+y
153 x,1/2+z,y
154 1/4+y,-z,1/4+x
155 1/4+z,1/4+x,-y
156 1/4+y,1/4+z,-x
157 1/2+x,1/4-z,1/4-y
158 1/4-z,1/2+y,1/4-x
159 1/4+x,-y,1/4+z
160 1/2+y,1/4-x,1/4-z
161 -y,-z,-x
162 -z,-x,-y
163 x,z,1/2+y
164 1/4+y,1/2-z,3/4+x
165 1/4+z,3/4+x,1/2-y
166 1/4+y,3/4+z,1/2-x
167 1/2+x,3/4-z,3/4-y
168 1/4-z,y,3/4-x
169 1/4+x,1/2-y,3/4+z
170 1/2+y,3/4-x,3/4-z
171 -y,1/2-z,1/2-x
172 -z,1/2-x,1/2-y
173 1/2+x,1/2+z,1/2+y
174 3/4+y,-z,3/4+x
175 3/4+z,1/4+x,1/2-y
176 3/4+y,1/4+z,1/2-x
177 x,1/4-z,3/4-y
178 3/4-z,1/2+y,3/4-x
179 3/4+x,-y,3/4+z
180 y,1/4-x,3/4-z
181 1/2-y,-z,1/2-x
182 1/2-z,-x,1/2-y
183 1/2+x,z,y
184 3/4+y,1/2-z,1/4+x
185 3/4+z,3/4+x,-y
186 3/4+y,3/4+z,-x
187 x,3/4-z,1/4-y
188 3/4-z,y,1/4-x
189 3/4+x,1/2-y,1/4+z
190 y,3/4-x,1/4-z
191 1/2-y,1/2-z,-x
192 1/2-z,1/2-x,-y
_cell_length_a                   64.412(10)
_cell_length_b                   64.412(10)
_cell_length_c                   64.412(10)
_cell_angle_alpha                90
_cell_angle_beta                 90
_cell_angle_gamma                90
_cell_volume                     267239
loop_
_atom_site_label
_atom_site_type_symbol
_atom_site_fract_x
_atom_site_fract_y
_atom_site_fract_z
Co1 Co 0.121072(19) 0.2500 0.378928(19)
Co2 Co 0.1250 0.1250 0.25144(2)
N1 N 0.13708(10) 0.27320(9) 0.39394(10)
N2 N 0.09293(12) 0.12329(10) 0.25058(9)
N3 N 0.23474(10) 0.13435(9) 0.34101(10)
N4 N 0.15072(11) 0.23344(10) 0.37501(10)
N5 N 0.15473(10) 0.18848(10) 0.32947(10)
N6 N 0.18852(9) 0.17919(10) 0.33997(10)
N7 N 0.17314(10) 0.16224(10) 0.31119(9)
N8 N 0.12248(10) 0.14926(10) 0.27453(10)
N9 N 0.12516(10) 0.09915(10) 0.22928(10)
N10 N 0.17186(11) 0.09409(12) 0.18610(11)
S1 S 0.16216(5) 0.29698(5) 0.41980(5)
S2 S 0.05061(7) 0.11856(15) 0.24559(7)
C1 C 0.14741(13) 0.28381(12) 0.40456(12)
C2 C 0.21902(12) 0.14834(11) 0.34018(12)
H1 H 0.2163 0.1565 0.3521
C3 C 0.20698(12) 0.15126(11) 0.32314(12)
C4 C 0.21112(14) 0.14017(15) 0.30482(16)
H2 H 0.2029 0.1419 0.2927
C5 C 0.22757(15) 0.12677(16) 0.30540(17)
H3 H 0.2313 0.1193 0.2933
C6 C 0.23863(15) 0.12404(14) 0.32314(16)
H4 H 0.2497 0.1143 0.3230
C7 C 0.16627(15) 0.23465(15) 0.38923(16)
H5 H 0.1654 0.2448 0.3999
C8 C 0.18277(17) 0.22190(16) 0.38865(17)
H6 H 0.1930 0.2228 0.3992
C9 C 0.18504(16) 0.20780(15) 0.37326(15)
H7 H 0.1969 0.1990 0.3729
C10 C 0.16995(13) 0.20626(12) 0.35801(13)
C11 C 0.15296(12) 0.21918(11) 0.35960(12)
H8 H 0.1423 0.2181 0.3495
C12 C 0.17125(12) 0.19041(11) 0.34145(12)
C13 C 0.18837(11) 0.16545(12) 0.32471(12)
C14 C 0.15670(12) 0.17385(12) 0.31435(12)
C15 C 0.10594(14) 0.16191(15) 0.27549(14)
H9 H 0.0947 0.1593 0.2663
C16 C 0.10426(15) 0.17836(15) 0.28890(15)
H10 H 0.0921 0.1867 0.2892
C17 C 0.12096(14) 0.18251(13) 0.30202(14)
H11 H 0.1203 0.1938 0.3115
C18 C 0.13804(13) 0.17051(12) 0.30119(12)
C19 C 0.13826(11) 0.15321(12) 0.28735(11)
H12 H 0.1500 0.1442 0.2873
C20 C 0.11165(16) 0.08377(15) 0.23166(14)
H13 H 0.1008 0.0854 0.2416
C21 C 0.1126(2) 0.06531(17) 0.22020(17)
H14 H 0.1033 0.0542 0.2229
C22 C 0.12750(16) 0.06380(15) 0.20485(16)
H15 H 0.1282 0.0518 0.1964
C23 C 0.14131(14) 0.07984(14) 0.20191(13)
C24 C 0.13931(13) 0.09738(12) 0.21472(12)
H16 H 0.1487 0.1086 0.2127
C25 C 0.15725(14) 0.07921(13) 0.18569(13)
C26 C 0.07544(19) 0.1218(2) 0.24851(14)
Co1BE Co 0.0000 0.121072(19) 0.371072(19)
Co1KD Co 0.128928(19) 0.378928(19) 0.5000
Co1AE Co 0.2500 0.128928(19) 0.371072(19)
Co1NE Co 0.128928(19) 0.371072(19) 0.2500
Co1J Co 0.128928(19) 0.0000 0.378928(19)
Co1HA Co -0.128928(19) 0.128928(19) 0.2500
Co2BE Co 0.1250 0.1250 0.49856(2)
Co2KD Co 0.00144(2) 0.3750 0.3750
Co2G Co 0.1250 -0.00144(2) 0.1250
Co2M Co 0.25144(2) 0.1250 0.1250
Co2EA Co 0.24856(2) 0.3750 0.3750
Co2LB Co 0.1250 0.25144(2) 0.1250
Co2E Co -0.00144(2) 0.1250 0.1250
Co2HA Co -0.1250 0.00144(2) 0.3750
N1BB N 0.10606(10) 0.22680(9) 0.36292(10)
N1BE N -0.02320(9) 0.13708(10) 0.35606(10)
N1AG N 0.02320(9) 0.10606(10) 0.38708(10)
N1KD N 0.14394(10) 0.36292(10) 0.52320(9)
N1VD N 0.11292(10) 0.39394(10) 0.47680(9)
N2J N 0.15707(12) 0.12671(10) 0.25058(9)
N2BE N 0.12671(10) 0.09293(12) 0.49942(9)
N2WF N 0.12329(10) 0.15707(12) 0.49942(9)
N2KD N 0.00058(9) 0.40707(12) 0.37329(10)
N2RF N 0.00058(9) 0.34293(12) 0.37671(10)
N3BE N 0.11565(9) 0.23474(10) 0.40899(10)
N3KD N 0.09101(10) 0.26526(10) 0.38435(9)
N3BB N 0.15899(10) 0.36565(9) 0.26526(10)
N3J N 0.01526(10) 0.11565(9) 0.34101(10)
N3HA N -0.01526(10) 0.09101(10) 0.36565(9)
N3EA N 0.15899(10) 0.38435(9) 0.48474(10)
N3U N 0.13435(9) 0.40899(10) 0.51526(10)
N4BE N 0.01656(10) 0.15072(11) 0.37499(10)
N4KD N 0.12501(10) 0.34928(11) 0.48344(10)
N4BB N 0.12499(10) 0.26656(10) 0.34928(11)
N4J N 0.09928(11) 0.01656(10) 0.37501(10)
N4HA N -0.09928(11) 0.12501(10) 0.26656(10)
N4AG N -0.01656(10) 0.12499(10) 0.40072(11)
N4VD N 0.09928(11) 0.37501(10) 0.51656(10)
N5BE N 0.06152(10) 0.15473(10) 0.42053(10)
N5KD N 0.07947(10) 0.34527(10) 0.43848(10)
N5BB N 0.17053(10) 0.31152(10) 0.34527(10)
N5J N 0.09527(10) 0.06152(10) 0.32947(10)
N5HA N -0.09527(10) 0.07947(10) 0.31152(10)
N6BE N 0.07081(10) 0.18852(9) 0.41003(10)
N6KD N 0.08997(10) 0.31148(9) 0.42919(10)
N6BB N 0.16003(10) 0.32081(10) 0.31148(9)
N6J N 0.06148(9) 0.07081(10) 0.33997(10)
N6HA N -0.06148(9) 0.08997(10) 0.32081(10)
N7BE N 0.08776(10) 0.17314(10) 0.43881(9)
N7KD N 0.06119(9) 0.32686(10) 0.41224(10)
N7BB N 0.18881(9) 0.33776(10) 0.32686(10)
N7J N 0.07686(10) 0.08776(10) 0.31119(9)
N7HA N -0.07686(10) 0.06119(9) 0.33776(10)
N8BE N 0.10074(10) 0.12248(10) 0.47547(10)
N8KD N 0.02453(10) 0.37752(10) 0.39926(10)
N8BB N 0.22547(10) 0.35074(10) 0.37752(10)
N8J N 0.12752(10) 0.10074(10) 0.27453(10)
N8HA N -0.12752(10) 0.02453(10) 0.35074(10)
N8WF N 0.14926(10) 0.12752(10) 0.47547(10)
N8RF N 0.02453(10) 0.37248(10) 0.35074(10)
N9KC N 0.15085(10) 0.02072(10) 0.12516(10)
N9M N 0.22928(10) 0.12484(10) 0.15085(10)
N9J N 0.12484(10) 0.15085(10) 0.22928(10)
N9LB N 0.09915(10) 0.22928(10) 0.12516(10)
N9E N 0.02072(10) 0.12516(10) 0.15085(10)
N9BE N 0.15085(10) 0.12516(10) 0.52072(10)
N9WF N 0.09915(10) 0.12484(10) 0.52072(10)
N9KD N -0.02072(10) 0.37484(10) 0.34915(10)
N9RF N -0.02072(10) 0.37516(10) 0.40085(10)
N10M N 0.18610(11) 0.07814(11) 0.15591(12)
N10KC N 0.15591(12) 0.06390(11) 0.17186(11)
N10J N 0.07814(11) 0.15591(12) 0.18610(11)
N10E N 0.06390(11) 0.17186(11) 0.15591(12)
N10LB N 0.09409(12) 0.18610(11) 0.17186(11)
S1BB S 0.08020(5) 0.20302(5) 0.33784(5)
S1BE S -0.04698(5) 0.16216(5) 0.33020(5)
S1AG S 0.04698(5) 0.08020(5) 0.41216(5)
S1KD S 0.16980(5) 0.33784(5) 0.54698(5)
S1VD S 0.08784(5) 0.41980(5) 0.45302(5)
S2J S 0.19939(7) 0.13144(15) 0.24559(7)
S2BE S 0.13144(15) 0.05061(7) 0.50441(7)
S2WF S 0.11856(15) 0.19939(7) 0.50441(7)
S2KD S -0.00441(7) 0.44939(7) 0.36856(15)
S2RF S -0.00441(7) 0.30061(7) 0.38144(15)
C1BB C 0.09544(12) 0.21619(12) 0.35259(13)
C1BE C -0.03381(12) 0.14741(13) 0.34544(12)
C1AG C 0.03381(12) 0.09544(12) 0.39741(13)
C1KD C 0.15456(12) 0.35259(13) 0.53381(12)
C1VD C 0.10259(13) 0.40456(12) 0.46619(12)
C2BE C 0.10166(11) 0.21902(12) 0.40982(12)
C2KD C 0.09018(12) 0.28098(12) 0.39834(11)
C2BB C 0.15982(12) 0.35166(11) 0.28098(12)
C2J C 0.03098(12) 0.10166(11) 0.34018(12)
C2HA C -0.03098(12) 0.09018(12) 0.35166(11)
H1BE H 0.0935 0.2163 0.3979
H1KD H 0.1021 0.2837 0.4065
H1BB H 0.1479 0.3435 0.2837
H1J H 0.0337 0.0935 0.3521
H1HA H -0.0337 0.1021 0.3435
C3BE C 0.09874(11) 0.20698(12) 0.42686(12)
C3KD C 0.07314(12) 0.29302(12) 0.40126(11)
C3BB C 0.17686(12) 0.34874(11) 0.29302(12)
C3J C 0.04302(12) 0.09874(11) 0.32314(12)
C3HA C -0.04302(12) 0.07314(12) 0.34874(11)
C4BE C 0.10983(15) 0.21112(14) 0.44518(16)
C4KD C 0.05482(16) 0.28888(14) 0.39017(15)
C4BB C 0.19518(16) 0.35983(15) 0.28888(14)
C4J C 0.03888(14) 0.10983(15) 0.30482(16)
C4HA C -0.03888(14) 0.05482(16) 0.35983(15)
H2BE H 0.1081 0.2029 0.4573
H2KD H 0.0427 0.2971 0.3919
H2BB H 0.2073 0.3581 0.2971
H2J H 0.0471 0.1081 0.2927
H2HA H -0.0471 0.0427 0.3581
C5BE C 0.12323(16) 0.22757(15) 0.44460(17)
C5KD C 0.05540(17) 0.27243(15) 0.37677(16)
C5BB C 0.19460(17) 0.37323(16) 0.27243(15)
C5J C 0.02243(15) 0.12323(16) 0.30540(17)
C5HA C -0.02243(15) 0.05540(17) 0.37323(16)
H3BE H 0.1307 0.2313 0.4567
H3KD H 0.0433 0.2687 0.3693
H3BB H 0.2067 0.3807 0.2687
H3J H 0.0187 0.1307 0.2933
H3HA H -0.0187 0.0433 0.3807
C6BE C 0.12596(14) 0.23863(15) 0.42686(16)
C6KD C 0.07314(16) 0.26137(15) 0.37404(14)
C6BB C 0.17686(16) 0.37596(14) 0.26137(15)
C6J C 0.01137(15) 0.12596(14) 0.32314(16)
C6HA C -0.01137(15) 0.07314(16) 0.37596(14)
H4BE H 0.1357 0.2497 0.4270
H4KD H 0.0730 0.2503 0.3643
H4BB H 0.1770 0.3857 0.2503
H4J H 0.0003 0.1357 0.3230
H4HA H -0.0003 0.0730 0.3857
C7BE C 0.01535(15) 0.16627(15) 0.36077(16)
C7KD C 0.13923(16) 0.33373(15) 0.48465(15)
C7BB C 0.11077(16) 0.26535(15) 0.33373(15)
C7J C 0.08373(15) 0.01535(15) 0.38923(16)
C7HA C -0.08373(15) 0.13923(16) 0.26535(15)
H5BE H 0.0052 0.1654 0.3501
H5KD H 0.1499 0.3346 0.4948
H5BB H 0.1001 0.2552 0.3346
H5J H 0.0846 0.0052 0.3999
H5HA H -0.0846 0.1499 0.2552
C8BE C 0.02810(16) 0.18277(17) 0.36135(17)
C8KD C 0.13865(17) 0.31723(17) 0.47190(16)
C8BB C 0.11135(17) 0.27810(16) 0.31723(17)
C8J C 0.06723(17) 0.02810(16) 0.38865(17)
C8HA C -0.06723(17) 0.13865(17) 0.27810(16)
H6BE H 0.0272 0.1930 0.3508
H6KD H 0.1492 0.3070 0.4728
H6BB H 0.1008 0.2772 0.3070
H6J H 0.0570 0.0272 0.3992
H6HA H -0.0570 0.1492 0.2772
C9BE C 0.04220(15) 0.18504(16) 0.37674(15)
C9KD C 0.12326(15) 0.31496(16) 0.45780(15)
C9BB C 0.12674(15) 0.29220(15) 0.31496(16)
C9J C 0.06496(16) 0.04220(15) 0.37326(15)
C9HA C -0.06496(16) 0.12326(15) 0.29220(15)
H7BE H 0.0510 0.1969 0.3771
H7KD H 0.1229 0.3031 0.4490
H7BB H 0.1271 0.3010 0.3031
H7J H 0.0531 0.0510 0.3729
H7HA H -0.0531 0.1229 0.3010
C10BE C 0.04374(12) 0.16995(13) 0.39199(13)
C10KD C 0.10801(13) 0.33005(13) 0.45626(12)
C10BB C 0.14199(13) 0.29374(12) 0.33005(13)
C10J C 0.08005(13) 0.04374(12) 0.35801(13)
C10HA C -0.08005(13) 0.10801(13) 0.29374(12)
C11BE C 0.03082(11) 0.15296(12) 0.39040(12)
C11KD C 0.10960(12) 0.34704(12) 0.46918(11)
C11BB C 0.14040(12) 0.28082(11) 0.34704(12)
C11J C 0.09704(12) 0.03082(11) 0.35960(12)
C11HA C -0.09704(12) 0.10960(12) 0.28082(11)
H8BE H 0.0319 0.1423 0.4005
H8KD H 0.0995 0.3577 0.4681
H8BB H 0.1505 0.2819 0.3577
H8J H 0.1077 0.0319 0.3495
H8HA H -0.1077 0.0995 0.2819
C12BE C 0.05959(11) 0.17125(12) 0.40855(12)
C12KD C 0.09145(12) 0.32875(12) 0.44041(11)
C12BB C 0.15855(12) 0.30959(11) 0.32875(12)
C12J C 0.07875(12) 0.05959(11) 0.34145(12)
C12HA C -0.07875(12) 0.09145(12) 0.30959(11)
C13BE C 0.08455(12) 0.18837(11) 0.42529(12)
C13KD C 0.07471(12) 0.31163(11) 0.41545(12)
C13BB C 0.17529(12) 0.33455(12) 0.31163(11)
C13J C 0.06163(11) 0.08455(12) 0.32471(12)
C13HA C -0.06163(11) 0.07471(12) 0.33455(12)
C14BE C 0.07615(12) 0.15670(12) 0.43565(12)
C14KD C 0.06435(12) 0.34330(12) 0.42385(12)
C14BB C 0.18565(12) 0.32615(12) 0.34330(12)
C14J C 0.09330(12) 0.07615(12) 0.31435(12)
C14HA C -0.09330(12) 0.06435(12) 0.32615(12)
C15BE C 0.08809(15) 0.10594(14) 0.47451(14)
C15KD C 0.02549(14) 0.39406(14) 0.41191(15)
C15BB C 0.22451(14) 0.33809(15) 0.39406(14)
C15J C 0.14406(14) 0.08809(15) 0.27549(14)
C15HA C -0.14406(14) 0.02549(14) 0.33809(15)
H9BE H 0.0907 0.0947 0.4837
H9KD H 0.0163 0.4053 0.4093
H9BB H 0.2337 0.3407 0.4053
H9J H 0.1553 0.0907 0.2663
H9HA H -0.1553 0.0163 0.3407
C16BE C 0.07164(15) 0.10426(15) 0.46110(15)
C16KD C 0.03890(15) 0.39574(15) 0.42836(15)
C16BB C 0.21110(15) 0.32164(15) 0.39574(15)
C16J C 0.14574(15) 0.07164(15) 0.28890(15)
C16HA C -0.14574(15) 0.03890(15) 0.32164(15)
H10BE H 0.0633 0.0921 0.4608
H10KD H 0.0392 0.4079 0.4367
H10BB H 0.2108 0.3133 0.4079
H10J H 0.1579 0.0633 0.2892
H10HA H -0.1579 0.0392 0.3133
C17BE C 0.06749(13) 0.12096(14) 0.44798(14)
C17KD C 0.05202(14) 0.37904(14) 0.43251(13)
C17BB C 0.19798(14) 0.31749(13) 0.37904(14)
C17J C 0.12904(14) 0.06749(13) 0.30202(14)
C17HA C -0.12904(14) 0.05202(14) 0.31749(13)
H11BE H 0.0562 0.1203 0.4385
H11KD H 0.0615 0.3797 0.4438
H11BB H 0.1885 0.3062 0.3797
H11J H 0.1297 0.0562 0.3115
H11HA H -0.1297 0.0615 0.3062
C18BE C 0.07949(12) 0.13804(13) 0.44881(12)
C18KD C 0.05119(12) 0.36196(13) 0.42051(12)
C18BB C 0.19881(12) 0.32949(12) 0.36196(13)
C18J C 0.11196(13) 0.07949(12) 0.30119(12)
C18HA C -0.11196(13) 0.05119(12) 0.32949(12)
C19BE C 0.09679(12) 0.13826(11) 0.46265(11)
C19KD C 0.03735(11) 0.36174(11) 0.40321(12)
C19BB C 0.21265(11) 0.34679(12) 0.36174(11)
C19J C 0.11174(11) 0.09679(12) 0.28735(11)
C19HA C -0.11174(11) 0.03735(11) 0.34679(12)
H12BE H 0.1058 0.1500 0.4627
H12KD H 0.0373 0.3500 0.3942
H12BB H 0.2127 0.3558 0.3500
H12J H 0.1000 0.1058 0.2873
H12HA H -0.1000 0.0373 0.3558
C20KC C 0.16623(15) 0.01834(14) 0.11165(16)
C20M C 0.23166(14) 0.13835(16) 0.16623(15)
C20J C 0.13835(16) 0.16623(15) 0.23166(14)
C20LB C 0.08377(15) 0.23166(14) 0.11165(16)
C20E C 0.01834(14) 0.11165(16) 0.16623(15)
H13KC H 0.1646 0.0084 0.1008
H13M H 0.2416 0.1492 0.1646
H13J H 0.1492 0.1646 0.2416
H13LB H 0.0854 0.2416 0.1008
H13E H 0.0084 0.1008 0.1646
C21KC C 0.18469(17) 0.02980(17) 0.1126(2)
C21M C 0.22020(17) 0.1374(2) 0.18469(17)
C21J C 0.1374(2) 0.18469(17) 0.22020(17)
C21LB C 0.06531(17) 0.22020(17) 0.1126(2)
C21E C 0.02980(17) 0.1126(2) 0.18469(17)
H14KC H 0.1958 0.0271 0.1033
H14M H 0.2229 0.1467 0.1958
H14J H 0.1467 0.1958 0.2229
H14LB H 0.0542 0.2229 0.1033
H14E H 0.0271 0.1033 0.1958
C22KC C 0.18620(15) 0.04515(16) 0.12750(16)
C22M C 0.20485(16) 0.12250(16) 0.18620(15)
C22J C 0.12250(16) 0.18620(15) 0.20485(16)
C22LB C 0.06380(15) 0.20485(16) 0.12750(16)
C22E C 0.04515(16) 0.12750(16) 0.18620(15)
H15KC H 0.1982 0.0536 0.1282
H15M H 0.1964 0.1218 0.1982
H15J H 0.1218 0.1982 0.1964
H15LB H 0.0518 0.1964 0.1282
H15E H 0.0536 0.1282 0.1982
C23KC C 0.17016(14) 0.04809(13) 0.14131(14)
C23M C 0.20191(13) 0.10869(14) 0.17016(14)
C23J C 0.10869(14) 0.17016(14) 0.20191(13)
C23LB C 0.07984(14) 0.20191(13) 0.14131(14)
C23E C 0.04809(13) 0.14131(14) 0.17016(14)
C24KC C 0.15262(12) 0.03528(12) 0.13931(13)
C24M C 0.21472(12) 0.11069(13) 0.15262(12)
C24J C 0.11069(13) 0.15262(12) 0.21472(12)
C24LB C 0.09738(12) 0.21472(12) 0.13931(13)
C24E C 0.03528(12) 0.13931(13) 0.15262(12)
H16KC H 0.1414 0.0373 0.1487
H16M H 0.2127 0.1013 0.1414
H16J H 0.1013 0.1414 0.2127
H16LB H 0.1086 0.2127 0.1487
H16E H 0.0373 0.1487 0.1414
C25M C 0.18569(13) 0.09275(14) 0.17079(13)
C25KC C 0.17079(13) 0.06431(13) 0.15725(14)
C25J C 0.09275(14) 0.17079(13) 0.18569(13)
C25E C 0.06431(13) 0.15725(14) 0.17079(13)
C25LB C 0.07921(13) 0.18569(13) 0.15725(14)
C26J C 0.17456(19) 0.1282(2) 0.24851(14)
C26BE C 0.1282(2) 0.07544(19) 0.50149(14)
C26WF C 0.1218(2) 0.17456(19) 0.50149(14)
C26KD C -0.00149(14) 0.42456(19) 0.3718(2)
C26RF C -0.00149(14) 0.32544(19) 0.3782(2)
O1 O 0.1250 0.1250 0.32681(15)
C27 C 0.10681(15) 0.12571(16) 0.33793(15)
C28 C 0.0931(2) 0.14043(19) 0.3338(2)
H17 H 0.0956 0.1505 0.3233
C29 C 0.07394(19) 0.1407(2) 0.3458(3)
H18 H 0.0642 0.1516 0.3437
C30 C 0.06998(19) 0.1263(2) 0.3592(3)
H19 H 0.0569 0.1262 0.3661
C31 C 0.08464(19) 0.11094(18) 0.36379(18)
H20 H 0.0820 0.1007 0.3741
C32 C 0.10291(15) 0.11100(15) 0.35301(14)
H21 H 0.1131 0.1007 0.3560
C27J C 0.14319(15) 0.12429(16) 0.33793(15)
C28J C 0.1569(2) 0.10957(19) 0.3338(2)
H17J H 0.1544 0.0995 0.3233
C29J C 0.17606(19) 0.1093(2) 0.3458(3)
H18J H 0.1858 0.0984 0.3437
C30J C 0.18002(19) 0.1237(2) 0.3592(3)
H19J H 0.1931 0.1238 0.3661
C31J C 0.16536(19) 0.13906(18) 0.36379(18)
H20J H 0.1680 0.1493 0.3741
C32J C 0.14709(15) 0.13900(15) 0.35301(14)
H21J H 0.1369 0.1493 0.3560
loop_
_geom_bond_atom_site_label_1
_geom_bond_atom_site_label_2
_geom_bond_site_symmetry_1
_geom_bond_site_symmetry_2
Co1 N1 1_555 1_555
Co2 N2 1_555 1_555
N1 C1 1_555 1_555
N2 C26 1_555 1_555
N3 C2 1_555 1_555
N4 Co1 1_555 1_555
N5 C12 1_555 1_555
N6 C12 1_555 1_555
N7 C13 1_555 1_555
N8 Co2 1_555 1_555
N9 Co2 1_555 1_555
N10 C25 1_555 1_555
S1 C1 1_555 1_555
S2 C26 1_555 1_555
C2 H1 1_555 1_555
C3 C2 1_555 1_555
C4 C3 1_555 1_555
H2 C4 1_555 1_555
C5 C4 1_555 1_555
H3 C5 1_555 1_555
C6 N3 1_555 1_555
H4 C6 1_555 1_555
C7 N4 1_555 1_555
H5 C7 1_555 1_555
C8 C7 1_555 1_555
H6 C8 1_555 1_555
C9 C8 1_555 1_555
H7 C9 1_555 1_555
C10 C9 1_555 1_555
C11 N4 1_555 1_555
H8 C11 1_555 1_555
C12 C10 1_555 1_555
C13 N6 1_555 1_555
C14 N5 1_555 1_555
C15 N8 1_555 1_555
H9 C15 1_555 1_555
C16 C15 1_555 1_555
H10 C16 1_555 1_555
C17 C16 1_555 1_555
H11 C17 1_555 1_555
C18 C14 1_555 1_555
C19 N8 1_555 1_555
H12 C19 1_555 1_555
C20 N9 1_555 1_555
H13 C20 1_555 1_555
C21 C20 1_555 1_555
H14 C21 1_555 1_555
C22 C21 1_555 1_555
H15 C22 1_555 1_555
C23 C22 1_555 1_555
C24 N9 1_555 1_555
H16 C24 1_555 1_555
C25 C23 1_555 1_555
O1 C27 1_555 1_555
C27 C28 1_555 1_555
C28 H17 1_555 1_555
C29 C28 1_555 1_555
H18 C29 1_555 1_555
C30 C29 1_555 1_555
H19 C30 1_555 1_555
C31 C30 1_555 1_555
H20 C31 1_555 1_555
C32 C27 1_555 1_555
H21 C32 1_555 1_555
Co1BE N1BE 1_555 1_555
Co1KD N1KD 1_555 1_555
Co1AE N3 1_555 1_555
Co1NE N3BB 1_555 1_555
Co1J N4J 1_555 1_555
Co1HA N4HA 1_555 1_555
Co2BE N2BE 1_555 1_555
Co2KD N2KD 1_555 1_555
Co2G N9KC 1_555 1_555
Co2M N9M 1_555 1_555
Co2EA N8BB 1_555 1_555
Co2LB N9LB 1_555 1_555
Co2E N9E 1_555 1_555
Co2HA N8HA 1_555 1_555
N1BB Co1 1_555 1_555
N1BE C1BE 1_555 1_555
N1AG Co1BE 1_555 1_555
N1KD C1KD 1_555 1_555
N1VD Co1KD 1_555 1_555
N2J Co2 1_555 1_555
N2BE C26BE 1_555 1_555
N2WF Co2BE 1_555 1_555
N2KD C26KD 1_555 1_555
N2RF Co2KD 1_555 1_555
N3BE Co1 1_555 1_555
N3KD Co1 1_555 1_555
N3BB C2BB 1_555 1_555
N3J Co1BE 1_555 1_555
N3HA Co1BE 1_555 1_555
N3EA Co1KD 1_555 1_555
N3U Co1KD 1_555 1_555
N4BE Co1BE 1_555 1_555
N4KD Co1KD 1_555 1_555
N4BB Co1 1_555 1_555
N4J C7J 1_555 1_555
N4HA C7HA 1_555 1_555
N4AG Co1BE 1_555 1_555
N4VD Co1KD 1_555 1_555
N5BE C12BE 1_555 1_555
N5KD C12KD 1_555 1_555
N5BB C12BB 1_555 1_555
N5J C12J 1_555 1_555
N5HA C12HA 1_555 1_555
N6BE C12BE 1_555 1_555
N6KD C12KD 1_555 1_555
N6BB C12BB 1_555 1_555
N6J C12J 1_555 1_555
N6HA C12HA 1_555 1_555
N7BE C13BE 1_555 1_555
N7KD C13KD 1_555 1_555
N7BB C13BB 1_555 1_555
N7J C13J 1_555 1_555
N7HA C13HA 1_555 1_555
N8BE Co2BE 1_555 1_555
N8KD Co2KD 1_555 1_555
N8BB C15BB 1_555 1_555
N8J Co2 1_555 1_555
N8HA C15HA 1_555 1_555
N8WF Co2BE 1_555 1_555
N8RF Co2KD 1_555 1_555
N9KC C20KC 1_555 1_555
N9M C20M 1_555 1_555
N9J Co2 1_555 1_555
N9LB C20LB 1_555 1_555
N9E C20E 1_555 1_555
N9BE Co2BE 1_555 1_555
N9WF Co2BE 1_555 1_555
N9KD Co2KD 1_555 1_555
N9RF Co2KD 1_555 1_555
N10M C25M 1_555 1_555
N10KC C25 1_555 1_555
N10J C25J 1_555 1_555
N10E C25E 1_555 1_555
N10LB C25J 1_555 1_555
S1BB C1BB 1_555 1_555
S1BE C1BE 1_555 1_555
S1AG C1AG 1_555 1_555
S1KD C1KD 1_555 1_555
S1VD C1VD 1_555 1_555
S2J C26J 1_555 1_555
S2BE C26BE 1_555 1_555
S2WF C26WF 1_555 1_555
S2KD C26KD 1_555 1_555
S2RF C26RF 1_555 1_555
C1BB N1BB 1_555 1_555
C1AG N1AG 1_555 1_555
C1VD N1VD 1_555 1_555
C2BE N3BE 1_555 1_555
C2KD N3KD 1_555 1_555
C2BB H1BB 1_555 1_555
C2J N3J 1_555 1_555
C2HA N3HA 1_555 1_555
H1BE C2BE 1_555 1_555
H1KD C2KD 1_555 1_555
H1J C2J 1_555 1_555
H1HA C2HA 1_555 1_555
C3BE C2BE 1_555 1_555
C3KD C2KD 1_555 1_555
C3BB C2BB 1_555 1_555
C3J C2J 1_555 1_555
C3HA C2HA 1_555 1_555
C4BE C3BE 1_555 1_555
C4KD C3KD 1_555 1_555
C4BB C3BB 1_555 1_555
C4J C3J 1_555 1_555
C4HA C3HA 1_555 1_555
H2BE C4BE 1_555 1_555
H2KD C4KD 1_555 1_555
H2BB C4BB 1_555 1_555
H2J C4J 1_555 1_555
H2HA C4HA 1_555 1_555
C5BE C4BE 1_555 1_555
C5KD C4KD 1_555 1_555
C5BB C4BB 1_555 1_555
C5J C4J 1_555 1_555
C5HA C4HA 1_555 1_555
H3BE C5BE 1_555 1_555
H3KD C5KD 1_555 1_555
H3BB C5BB 1_555 1_555
H3J C5J 1_555 1_555
H3HA C5HA 1_555 1_555
C6BE N3BE 1_555 1_555
C6KD N3KD 1_555 1_555
C6BB N3BB 1_555 1_555
C6J N3J 1_555 1_555
C6HA N3HA 1_555 1_555
H4BE C6BE 1_555 1_555
H4KD C6KD 1_555 1_555
H4BB C6BB 1_555 1_555
H4J C6J 1_555 1_555
H4HA C6HA 1_555 1_555
C7BE N4BE 1_555 1_555
C7KD N4KD 1_555 1_555
C7BB N4BB 1_555 1_555
C7J H5J 1_555 1_555
C7HA H5HA 1_555 1_555
H5BE C7BE 1_555 1_555
H5KD C7KD 1_555 1_555
H5BB C7BB 1_555 1_555
C8BE C7BE 1_555 1_555
C8KD C7KD 1_555 1_555
C8BB C7BB 1_555 1_555
C8J C7J 1_555 1_555
C8HA C7HA 1_555 1_555
H6BE C8BE 1_555 1_555
H6KD C8KD 1_555 1_555
H6BB C8BB 1_555 1_555
H6J C8J 1_555 1_555
H6HA C8HA 1_555 1_555
C9BE C8BE 1_555 1_555
C9KD C8KD 1_555 1_555
C9BB C8BB 1_555 1_555
C9J C8J 1_555 1_555
C9HA C8HA 1_555 1_555
H7BE C9BE 1_555 1_555
H7KD C9KD 1_555 1_555
H7BB C9BB 1_555 1_555
H7J C9J 1_555 1_555
H7HA C9HA 1_555 1_555
C10BE C9BE 1_555 1_555
C10KD C9KD 1_555 1_555
C10BB C9BB 1_555 1_555
C10J C9J 1_555 1_555
C10HA C9HA 1_555 1_555
C11BE N4BE 1_555 1_555
C11KD N4KD 1_555 1_555
C11BB N4BB 1_555 1_555
C11J N4J 1_555 1_555
C11HA N4HA 1_555 1_555
H8BE C11BE 1_555 1_555
H8KD C11KD 1_555 1_555
H8BB C11BB 1_555 1_555
H8J C11J 1_555 1_555
H8HA C11HA 1_555 1_555
C12BE C10BE 1_555 1_555
C12KD C10KD 1_555 1_555
C12BB C10BB 1_555 1_555
C12J C10J 1_555 1_555
C12HA C10HA 1_555 1_555
C13BE N6BE 1_555 1_555
C13KD N6KD 1_555 1_555
C13BB N6BB 1_555 1_555
C13J N6J 1_555 1_555
C13HA N6HA 1_555 1_555
C14BE N5BE 1_555 1_555
C14KD N5KD 1_555 1_555
C14BB N5BB 1_555 1_555
C14J N5J 1_555 1_555
C14HA N5HA 1_555 1_555
C15BE N8BE 1_555 1_555
C15KD N8KD 1_555 1_555
C15BB H9BB 1_555 1_555
C15J N8J 1_555 1_555
C15HA H9HA 1_555 1_555
H9BE C15BE 1_555 1_555
H9KD C15KD 1_555 1_555
H9J C15J 1_555 1_555
C16BE C15BE 1_555 1_555
C16KD C15KD 1_555 1_555
C16BB C15BB 1_555 1_555
C16J C15J 1_555 1_555
C16HA C15HA 1_555 1_555
H10BE C16BE 1_555 1_555
H10KD C16KD 1_555 1_555
H10BB C16BB 1_555 1_555
H10J C16J 1_555 1_555
H10HA C16HA 1_555 1_555
C17BE C16BE 1_555 1_555
C17KD C16KD 1_555 1_555
C17BB C16BB 1_555 1_555
C17J C16J 1_555 1_555
C17HA C16HA 1_555 1_555
H11BE C17BE 1_555 1_555
H11KD C17KD 1_555 1_555
H11BB C17BB 1_555 1_555
H11J C17J 1_555 1_555
H11HA C17HA 1_555 1_555
C18BE C14BE 1_555 1_555
C18KD C14KD 1_555 1_555
C18BB C14BB 1_555 1_555
C18J C14J 1_555 1_555
C18HA C14HA 1_555 1_555
C19BE N8BE 1_555 1_555
C19KD N8KD 1_555 1_555
C19BB N8BB 1_555 1_555
C19J N8J 1_555 1_555
C19HA N8HA 1_555 1_555
H12BE C19BE 1_555 1_555
H12KD C19KD 1_555 1_555
H12BB C19BB 1_555 1_555
H12J C19J 1_555 1_555
H12HA C19HA 1_555 1_555
C20KC H13KC 1_555 1_555
C20M H13M 1_555 1_555
C20J N9J 1_555 1_555
C20LB H13LB 1_555 1_555
C20E H13E 1_555 1_555
H13J C20J 1_555 1_555
C21KC C20KC 1_555 1_555
C21M C20M 1_555 1_555
C21J C20J 1_555 1_555
C21LB C20LB 1_555 1_555
C21E C20E 1_555 1_555
H14KC C21KC 1_555 1_555
H14M C21M 1_555 1_555
H14J C21J 1_555 1_555
H14LB C21LB 1_555 1_555
H14E C21E 1_555 1_555
C22KC C21KC 1_555 1_555
C22M C21M 1_555 1_555
C22J C21J 1_555 1_555
C22LB C21LB 1_555 1_555
C22E C21E 1_555 1_555
H15KC C22KC 1_555 1_555
H15M C22M 1_555 1_555
H15J C22J 1_555 1_555
H15LB C22LB 1_555 1_555
H15E C22E 1_555 1_555
C23KC C22KC 1_555 1_555
C23M C22M 1_555 1_555
C23J C22J 1_555 1_555
C23LB C22LB 1_555 1_555
C23E C22E 1_555 1_555
C24KC N9KC 1_555 1_555
C24M N9M 1_555 1_555
C24J N9J 1_555 1_555
C24LB N9LB 1_555 1_555
C24E N9E 1_555 1_555
H16KC C24KC 1_555 1_555
H16M C24M 1_555 1_555
H16J C24J 1_555 1_555
H16LB C24LB 1_555 1_555
H16E C24E 1_555 1_555
C25M N10 1_555 1_555
C25KC N10M 1_555 1_555
C25J C23J 1_555 1_555
C25E N10J 1_555 1_555
C25LB N10E 1_555 1_555
C26J N2J 1_555 1_555
C26WF N2WF 1_555 1_555
C26RF N2RF 1_555 1_555
C27J O1 1_555 1_555
C28J C27J 1_555 1_555
H17J C28J 1_555 1_555
C29J C28J 1_555 1_555
H18J C29J 1_555 1_555
C30J C29J 1_555 1_555
H19J C30J 1_555 1_555
C31J C30J 1_555 1_555
H20J C31J 1_555 1_555
C32J C27J 1_555 1_555
H21J C32J 1_555 1_555
N7 C14 1_555 1_555
C3 C13 1_555 1_555
C5 C6 1_555 1_555
C10 C11 1_555 1_555
C17 C18 1_555 1_555
C18 C19 1_555 1_555
C23 C24 1_555 1_555
C31 C32 1_555 1_555
N7BE C14BE 1_555 1_555
N7KD C14KD 1_555 1_555
N7BB C14BB 1_555 1_555
N7J C14J 1_555 1_555
N7HA C14HA 1_555 1_555
N10KC C25KC 1_555 1_555
N10LB C25LB 1_555 1_555
C3BE C13BE 1_555 1_555
C3KD C13KD 1_555 1_555
C3BB C13BB 1_555 1_555
C3J C13J 1_555 1_555
C3HA C13HA 1_555 1_555
C5BE C6BE 1_555 1_555
C5KD C6KD 1_555 1_555
C5BB C6BB 1_555 1_555
C5J C6J 1_555 1_555
C5HA C6HA 1_555 1_555
C10BE C11BE 1_555 1_555
C10KD C11KD 1_555 1_555
C10BB C11BB 1_555 1_555
C10J C11J 1_555 1_555
C10HA C11HA 1_555 1_555
C17BE C18BE 1_555 1_555
C17KD C18KD 1_555 1_555
C17BB C18BB 1_555 1_555
C17J C18J 1_555 1_555
C17HA C18HA 1_555 1_555
C18BE C19BE 1_555 1_555
C18KD C19KD 1_555 1_555
C18BB C19BB 1_555 1_555
C18J C19J 1_555 1_555
C18HA C19HA 1_555 1_555
C23KC C24KC 1_555 1_555
C23KC C25KC 1_555 1_555
C23M C24M 1_555 1_555
C23M C25M 1_555 1_555
C23J C24J 1_555 1_555
C23LB C24LB 1_555 1_555
C23LB C25LB 1_555 1_555
C23E C24E 1_555 1_555
C23E C25E 1_555 1_555
C31J C32J 1_555 1_555

#END
