
#######################################################################
#
#                 Cambridge Crystallographic Data Centre
#                                CCDC 
#
#######################################################################
#
# If this CIF has been generated from an entry in the Cambridge 
# Structural Database, then it will include bibliographic, chemical, 
# crystal, experimental, refinement or atomic coordinate data resulting 
# from the CCDC's data processing and validation procedures.
#
#######################################################################

data_LAFROB
_symmetry_cell_setting           cubic
_symmetry_space_group_name_H-M   'F d -3 c'
_symmetry_Int_Tables_number      228
_space_group_name_Hall           '-F 4ud 2vw 3'
loop_
_symmetry_equiv_pos_site_id
_symmetry_equiv_pos_as_xyz
1 x,y,z
2 1/4+y,1/4+x,1/2-z
3 1/4+x,-z,3/4+y
4 -z,1/4+y,3/4+x
5 3/4+z,1/4+y,-x
6 1/4-z,x,1/4-y
7 1/4+x,3/4+z,-y
8 y,1/4-z,1/4-x
9 1/4+y,-x,3/4+z
10 x,1/4-y,1/4-z
11 1/4-x,1/4-y,z
12 1/2-y,-x,-z
13 -z,-y,1/2-x
14 z,1/4-x,1/4-y
15 x,1/2+y,1/2+z
16 1/4+y,3/4+x,-z
17 1/4+x,1/2-z,1/4+y
18 -z,3/4+y,1/4+x
19 3/4+z,3/4+y,1/2-x
20 1/4-z,1/2+x,3/4-y
21 1/4+x,1/4+z,1/2-y
22 y,3/4-z,3/4-x
23 1/4+y,1/2-x,1/4+z
24 x,3/4-y,3/4-z
25 1/4-x,3/4-y,1/2+z
26 1/2-y,1/2-x,1/2-z
27 -z,1/2-y,-x
28 z,3/4-x,3/4-y
29 1/2+x,y,1/2+z
30 3/4+y,1/4+x,-z
31 3/4+x,-z,1/4+y
32 1/2-z,1/4+y,1/4+x
33 1/4+z,1/4+y,1/2-x
34 3/4-z,x,3/4-y
35 3/4+x,3/4+z,1/2-y
36 1/2+y,1/4-z,3/4-x
37 3/4+y,-x,1/4+z
38 1/2+x,1/4-y,3/4-z
39 3/4-x,1/4-y,1/2+z
40 -y,-x,1/2-z
41 1/2-z,-y,-x
42 1/2+z,1/4-x,3/4-y
43 1/2+x,1/2+y,z
44 3/4+y,3/4+x,1/2-z
45 3/4+x,1/2-z,3/4+y
46 1/2-z,3/4+y,3/4+x
47 1/4+z,3/4+y,-x
48 3/4-z,1/2+x,1/4-y
49 3/4+x,1/4+z,-y
50 1/2+y,3/4-z,1/4-x
51 3/4+y,1/2-x,3/4+z
52 1/2+x,3/4-y,1/4-z
53 3/4-x,3/4-y,z
54 -y,1/2-x,-z
55 1/2-z,1/2-y,1/2-x
56 1/2+z,3/4-x,1/4-y
57 -x,1/2-z,-y
58 3/4-y,z,3/4-x
59 3/4-z,3/4-x,y
60 3/4-y,3/4-z,x
61 1/2-x,3/4+z,3/4+y
62 3/4+z,1/2-y,3/4+x
63 3/4-x,y,3/4-z
64 1/2-y,3/4+x,3/4+z
65 y,z,x
66 z,x,y
67 -x,-z,1/2-y
68 3/4-y,1/2+z,1/4-x
69 3/4-z,1/4-x,1/2+y
70 3/4-y,1/4-z,1/2+x
71 1/2-x,1/4+z,1/4+y
72 3/4+z,-y,1/4+x
73 3/4-x,1/2+y,1/4-z
74 1/2-y,1/4+x,1/4+z
75 y,1/2+z,1/2+x
76 z,1/2+x,1/2+y
77 1/2-x,1/2-z,1/2-y
78 1/4-y,z,1/4-x
79 1/4-z,3/4-x,1/2+y
80 1/4-y,3/4-z,1/2+x
81 -x,3/4+z,1/4+y
82 1/4+z,1/2-y,1/4+x
83 1/4-x,y,1/4-z
84 -y,3/4+x,1/4+z
85 1/2+y,z,1/2+x
86 1/2+z,x,1/2+y
87 1/2-x,-z,-y
88 1/4-y,1/2+z,3/4-x
89 1/4-z,1/4-x,y
90 1/4-y,1/4-z,x
91 -x,1/4+z,3/4+y
92 1/4+z,-y,3/4+x
93 1/4-x,1/2+y,3/4-z
94 -y,1/4+x,3/4+z
95 1/2+y,1/2+z,x
96 1/2+z,1/2+x,y
97 -x,-y,-z
98 3/4-y,3/4-x,1/2+z
99 3/4-x,z,1/4-y
100 z,3/4-y,1/4-x
101 1/4-z,3/4-y,x
102 3/4+z,-x,3/4+y
103 3/4-x,1/4-z,y
104 -y,3/4+z,3/4+x
105 3/4-y,x,1/4-z
106 -x,3/4+y,3/4+z
107 3/4+x,3/4+y,-z
108 1/2+y,x,z
109 z,y,1/2+x
110 -z,3/4+x,3/4+y
111 -x,1/2-y,1/2-z
112 3/4-y,1/4-x,z
113 3/4-x,1/2+z,3/4-y
114 z,1/4-y,3/4-x
115 1/4-z,1/4-y,1/2+x
116 3/4+z,1/2-x,1/4+y
117 3/4-x,3/4-z,1/2+y
118 -y,1/4+z,1/4+x
119 3/4-y,1/2+x,3/4-z
120 -x,1/4+y,1/4+z
121 3/4+x,1/4+y,1/2-z
122 1/2+y,1/2+x,1/2+z
123 z,1/2+y,x
124 -z,1/4+x,1/4+y
125 1/2-x,-y,1/2-z
126 1/4-y,3/4-x,z
127 1/4-x,z,3/4-y
128 1/2+z,3/4-y,3/4-x
129 3/4-z,3/4-y,1/2+x
130 1/4+z,-x,1/4+y
131 1/4-x,1/4-z,1/2+y
132 1/2-y,3/4+z,1/4+x
133 1/4-y,x,3/4-z
134 1/2-x,3/4+y,1/4+z
135 1/4+x,3/4+y,1/2-z
136 y,x,1/2+z
137 1/2+z,y,x
138 1/2-z,3/4+x,1/4+y
139 1/2-x,1/2-y,-z
140 1/4-y,1/4-x,1/2+z
141 1/4-x,1/2+z,1/4-y
142 1/2+z,1/4-y,1/4-x
143 3/4-z,1/4-y,x
144 1/4+z,1/2-x,3/4+y
145 1/4-x,3/4-z,y
146 1/2-y,1/4+z,3/4+x
147 1/4-y,1/2+x,1/4-z
148 1/2-x,1/4+y,3/4+z
149 1/4+x,1/4+y,-z
150 y,1/2+x,z
151 1/2+z,1/2+y,1/2+x
152 1/2-z,1/4+x,3/4+y
153 x,1/2+z,y
154 1/4+y,-z,1/4+x
155 1/4+z,1/4+x,-y
156 1/4+y,1/4+z,-x
157 1/2+x,1/4-z,1/4-y
158 1/4-z,1/2+y,1/4-x
159 1/4+x,-y,1/4+z
160 1/2+y,1/4-x,1/4-z
161 -y,-z,-x
162 -z,-x,-y
163 x,z,1/2+y
164 1/4+y,1/2-z,3/4+x
165 1/4+z,3/4+x,1/2-y
166 1/4+y,3/4+z,1/2-x
167 1/2+x,3/4-z,3/4-y
168 1/4-z,y,3/4-x
169 1/4+x,1/2-y,3/4+z
170 1/2+y,3/4-x,3/4-z
171 -y,1/2-z,1/2-x
172 -z,1/2-x,1/2-y
173 1/2+x,1/2+z,1/2+y
174 3/4+y,-z,3/4+x
175 3/4+z,1/4+x,1/2-y
176 3/4+y,1/4+z,1/2-x
177 x,1/4-z,3/4-y
178 3/4-z,1/2+y,3/4-x
179 3/4+x,-y,3/4+z
180 y,1/4-x,3/4-z
181 1/2-y,-z,1/2-x
182 1/2-z,-x,1/2-y
183 1/2+x,z,y
184 3/4+y,1/2-z,1/4+x
185 3/4+z,3/4+x,-y
186 3/4+y,3/4+z,-x
187 x,3/4-z,1/4-y
188 3/4-z,y,1/4-x
189 3/4+x,1/2-y,1/4+z
190 y,3/4-x,1/4-z
191 1/2-y,1/2-z,-x
192 1/2-z,1/2-x,-y
_cell_length_a                   64.197(17)
_cell_length_b                   64.197(17)
_cell_length_c                   64.197(17)
_cell_angle_alpha                90
_cell_angle_beta                 90
_cell_angle_gamma                90
_cell_volume                     264572
loop_
_atom_site_label
_atom_site_type_symbol
_atom_site_fract_x
_atom_site_fract_y
_atom_site_fract_z
Co1 Co 0.118508(10) 0.0000 0.368508(10)
Co2 Co 0.001880(14) -0.1250 0.3750
N1 N 0.10298(6) 0.02246(6) 0.38599(6)
N2 N 0.00032(7) -0.09306(7) 0.37124(7)
C1 C 0.09178(8) 0.02966(8) 0.39857(8)
C2 C -0.00171(8) -0.07542(10) 0.36826(11)
S1 S 0.07600(2) 0.03835(3) 0.41644(2)
S2 S -0.00432(3) -0.05026(5) 0.36451(3)
N3 N 0.08868(6) -0.01567(6) 0.36282(6)
C3 C 0.08951(8) -0.03242(8) 0.35030(8)
H1 H 0.1023 -0.0356 0.3436
C4 C 0.07251(10) -0.04526(9) 0.34666(9)
C5 C 0.05383(11) -0.04078(11) 0.35622(9)
H2 H 0.0422 -0.0498 0.3546
C6 C 0.05224(11) -0.02305(10) 0.36807(8)
H3 H 0.0393 -0.0191 0.3741
C7 C 0.06989(9) -0.01096(8) 0.37105(8)
H4 H 0.0687 0.0013 0.3793
N4 N 0.12868(7) -0.10270(7) 0.26829(7)
C8 C 0.14420(9) -0.08871(10) 0.26870(9)
H5 H 0.1554 -0.0902 0.2591
C9 C 0.14453(10) -0.07222(12) 0.28249(11)
H6 H 0.1560 -0.0629 0.2826
C10 C 0.12797(10) -0.06937(11) 0.29624(10)
H7 H 0.1277 -0.0579 0.3056
C11 C 0.11174(9) -0.08404(10) 0.29587(9)
C12 C 0.11292(8) -0.10031(8) 0.28174(8)
H8 H 0.1020 -0.1103 0.2816
C13 C 0.09460(9) -0.08283(10) 0.31082(9)
N5 N 0.09205(8) -0.06450(8) 0.32090(8)
C14 C 0.07561(9) -0.06459(10) 0.33443(10)
N6 N 0.06312(7) -0.08024(8) 0.33814(8)
C15 C 0.06740(8) -0.09783(9) 0.32762(9)
N7 N 0.08284(7) -0.09974(7) 0.31349(7)
C16 C 0.05457(8) -0.11623(9) 0.33207(9)
C17 C 0.05794(10) -0.13539(10) 0.32255(10)
H9 H 0.0689 -0.1373 0.3128
C18 C 0.04482(11) -0.15161(11) 0.32771(10)
H10 H 0.0465 -0.1648 0.3213
C19 C 0.02919(9) -0.14868(10) 0.34229(9)
H11 H 0.0203 -0.1600 0.3456
N8 N 0.02629(6) -0.13044(6) 0.35184(7)
N9 N -0.01897(7) -0.12357(7) 0.40167(7)
C20 C -0.01628(10) -0.13690(10) 0.41775(11)
H12 H -0.0060 -0.1475 0.4165
C21 C -0.02767(11) -0.13581(11) 0.43584(12)
H13 H -0.0254 -0.1457 0.4466
C22 C -0.04227(13) -0.12044(12) 0.43832(12)
H14 H -0.0502 -0.1196 0.4508
C23 C 0.03887(7) -0.11462(8) 0.34682(8)
H15 H 0.0370 -0.1017 0.3537
C24 C -0.04536(10) -0.10608(10) 0.42232(11)
C25 C -0.03347(8) -0.10873(9) 0.40427(9)
H16 H -0.0358 -0.0994 0.3931
C26 C -0.06130(11) -0.08990(11) 0.42382(11)
N10 N -0.07514(10) -0.09146(9) 0.43868(9)
Co1ZD Co 0.131492(10) -0.118508(10) 0.5000
Co1BE Co 0.2500 0.118508(10) 0.381492(10)
Co1GE Co 0.131492(10) -0.131492(10) 0.2500
Co1NF Co 0.0000 0.131492(10) 0.381492(10)
Co1R Co 0.118508(10) -0.2500 0.381492(10)
Co1O Co 0.2500 -0.131492(10) 0.631492(10)
Co2EA Co 0.1250 0.1250 0.251880(14)
Co2ZD Co 0.248120(14) -0.1250 0.3750
Co2QB Co -0.1250 -0.1250 0.501880(14)
Co2E Co -0.1250 0.001880(14) 0.3750
Co2IF Co 0.1250 0.1250 0.498120(14)
Co2G Co -0.1250 -0.1250 0.248120(14)
Co2CB Co -0.1250 -0.251880(14) 0.3750
Co2WC Co 0.1250 -0.001880(14) 0.6250
N1SB N 0.13599(6) -0.02246(6) 0.35298(6)
N1ZD N 0.14702(6) -0.13599(6) 0.52246(6)
N1YF N 0.11401(6) -0.10298(6) 0.47754(6)
N1IF N 0.27246(6) 0.13599(6) 0.39702(6)
N1BE N 0.22754(6) 0.10298(6) 0.36401(6)
N2W N 0.00032(7) -0.15694(7) 0.37876(7)
N2SB N 0.12124(7) 0.09306(7) 0.25032(7)
N2EA N 0.12876(7) 0.15694(7) 0.25032(7)
N2ZD N 0.24968(7) -0.12124(7) 0.40694(7)
N2JE N 0.24968(7) -0.12876(7) 0.34306(7)
C1SB C 0.14857(8) -0.02966(8) 0.34178(8)
C1ZD C 0.15822(8) -0.14857(8) 0.52966(8)
C1YF C 0.10143(8) -0.09178(8) 0.47034(8)
C1IF C 0.27966(8) 0.14857(8) 0.40822(8)
C1BE C 0.22034(8) 0.09178(8) 0.35143(8)
C2W C -0.00171(8) -0.17458(10) 0.38174(11)
C2SB C 0.11826(11) 0.07542(10) 0.24829(8)
C2EA C 0.13174(11) 0.17458(10) 0.24829(8)
C2ZD C 0.25171(8) -0.11826(11) 0.42458(10)
C2JE C 0.25171(8) -0.13174(11) 0.32542(10)
S1SB S 0.16644(2) -0.03835(3) 0.32600(2)
S1ZD S 0.17400(2) -0.16644(2) 0.53835(3)
S1YF S 0.08356(2) -0.07600(2) 0.46165(3)
S1IF S 0.28835(3) 0.16644(2) 0.42400(2)
S1BE S 0.21165(3) 0.07600(2) 0.33356(2)
S2W S -0.00432(3) -0.19974(5) 0.38549(3)
S2SB S 0.11451(3) 0.05026(5) 0.24568(3)
S2EA S 0.13549(3) 0.19974(5) 0.24568(3)
S2ZD S 0.25432(3) -0.11451(3) 0.44974(5)
S2JE S 0.25432(3) -0.13549(3) 0.30026(5)
N3SB N 0.11282(6) 0.01567(6) 0.33868(6)
N3ZD N 0.16132(6) -0.11282(6) 0.48433(6)
N3IF N 0.23433(6) 0.11282(6) 0.41132(6)
N3W N 0.08868(6) -0.23433(6) 0.38718(6)
N3YF N 0.13718(6) -0.08868(6) 0.51567(6)
N3BE N 0.26567(6) 0.08868(6) 0.38718(6)
C3SB C 0.10030(8) 0.03242(8) 0.33951(8)
C3ZD C 0.16049(8) -0.10030(8) 0.46758(8)
C3IF C 0.21758(8) 0.10030(8) 0.41049(8)
C3W C 0.08951(8) -0.21758(8) 0.39970(8)
C3YF C 0.14970(8) -0.08951(8) 0.53242(8)
H1SB H 0.0936 0.0356 0.3523
H1ZD H 0.1477 -0.0936 0.4644
H1IF H 0.2144 0.0936 0.3977
H1W H 0.1023 -0.2144 0.4064
H1YF H 0.1564 -0.1023 0.5356
C4SB C 0.09666(9) 0.04526(9) 0.32251(10)
C4ZD C 0.17749(10) -0.09666(9) 0.45474(9)
C4IF C 0.20474(9) 0.09666(9) 0.42749(10)
C4W C 0.07251(10) -0.20474(9) 0.40334(9)
C4YF C 0.15334(9) -0.07251(10) 0.54526(9)
C5SB C 0.10622(9) 0.04078(11) 0.30383(11)
C5ZD C 0.19617(11) -0.10622(9) 0.45922(11)
C5IF C 0.20922(11) 0.10622(9) 0.44617(11)
C5W C 0.05383(11) -0.20922(11) 0.39378(9)
C5YF C 0.14378(9) -0.05383(11) 0.54078(11)
H2SB H 0.1046 0.0498 0.2922
H2ZD H 0.2078 -0.1046 0.4502
H2IF H 0.2002 0.1046 0.4578
H2W H 0.0422 -0.2002 0.3954
H2YF H 0.1454 -0.0422 0.5498
C6SB C 0.11807(8) 0.02305(10) 0.30224(11)
C6ZD C 0.19776(11) -0.11807(8) 0.47695(10)
C6IF C 0.22695(10) 0.11807(8) 0.44776(11)
C6W C 0.05224(11) -0.22695(10) 0.38193(8)
C6YF C 0.13193(8) -0.05224(11) 0.52305(10)
H3SB H 0.1241 0.0191 0.2893
H3ZD H 0.2107 -0.1241 0.4809
H3IF H 0.2309 0.1241 0.4607
H3W H 0.0393 -0.2309 0.3759
H3YF H 0.1259 -0.0393 0.5191
C7SB C 0.12105(8) 0.01096(8) 0.31989(9)
C7ZD C 0.18011(9) -0.12105(8) 0.48904(8)
C7IF C 0.23904(8) 0.12105(8) 0.43011(9)
C7W C 0.06989(9) -0.23904(8) 0.37895(8)
C7YF C 0.12895(8) -0.06989(9) 0.51096(8)
H4SB H 0.1293 -0.0013 0.3187
H4ZD H 0.1813 -0.1293 0.5013
H4IF H 0.2513 0.1293 0.4313
H4W H 0.0687 -0.2513 0.3707
H4YF H 0.1207 -0.0687 0.4987
N4SB N 0.01829(7) 0.10270(7) 0.37868(7)
N4ZD N 0.12132(7) -0.01829(7) 0.39730(7)
N4IF N 0.14730(7) 0.01829(7) 0.37132(7)
N4W N 0.12868(7) -0.14730(7) 0.48171(7)
N4YF N 0.23171(7) -0.12868(7) 0.60270(7)
N4EC N 0.10270(7) -0.12132(7) 0.51829(7)
N4EA N 0.23171(7) 0.14730(7) 0.37868(7)
N4M N 0.26829(7) 0.12132(7) 0.35270(7)
C8SB C 0.01870(9) 0.08871(10) 0.39420(9)
C8ZD C 0.10580(9) -0.01870(9) 0.41129(10)
C8IF C 0.16129(10) 0.01870(9) 0.35580(9)
C8W C 0.14420(9) -0.16129(10) 0.48130(9)
C8YF C 0.23130(9) -0.14420(9) 0.58871(10)
H5SB H 0.0091 0.0902 0.4054
H5ZD H 0.0946 -0.0091 0.4098
H5IF H 0.1598 0.0091 0.3446
H5W H 0.1554 -0.1598 0.4909
H5YF H 0.2409 -0.1554 0.5902
C9SB C 0.03249(11) 0.07222(12) 0.39453(10)
C9ZD C 0.10547(10) -0.03249(11) 0.42778(12)
C9IF C 0.17778(12) 0.03249(11) 0.35547(10)
C9W C 0.14453(10) -0.17778(12) 0.46751(11)
C9YF C 0.21751(11) -0.14453(10) 0.57222(12)
H6SB H 0.0326 0.0629 0.4060
H6ZD H 0.0940 -0.0326 0.4371
H6IF H 0.1871 0.0326 0.3440
H6W H 0.1560 -0.1871 0.4674
H6YF H 0.2174 -0.1560 0.5629
C10SB C 0.04624(10) 0.06937(11) 0.37797(10)
C10ZD C 0.12203(10) -0.04624(10) 0.43063(11)
C10IF C 0.18063(11) 0.04624(10) 0.37203(10)
C10W C 0.12797(10) -0.18063(11) 0.45376(10)
C10YF C 0.20376(10) -0.12797(10) 0.56937(11)
H7SB H 0.0556 0.0579 0.3777
H7ZD H 0.1223 -0.0556 0.4421
H7IF H 0.1921 0.0556 0.3723
H7W H 0.1277 -0.1921 0.4444
H7YF H 0.1944 -0.1277 0.5579
C11SB C 0.04587(9) 0.08404(10) 0.36174(9)
C11ZD C 0.13826(9) -0.04587(9) 0.41596(10)
C11IF C 0.16596(10) 0.04587(9) 0.38826(9)
C11W C 0.11174(9) -0.16596(10) 0.45413(9)
C11YF C 0.20413(9) -0.11174(9) 0.58404(10)
C12SB C 0.03174(8) 0.10031(8) 0.36292(8)
C12ZD C 0.13708(8) -0.03174(8) 0.39969(8)
C12IF C 0.14969(8) 0.03174(8) 0.38708(8)
C12W C 0.11292(8) -0.14969(8) 0.46826(8)
C12YF C 0.21826(8) -0.11292(8) 0.60031(8)
H8SB H 0.0316 0.1103 0.3520
H8ZD H 0.1480 -0.0316 0.3897
H8IF H 0.1397 0.0316 0.3980
H8W H 0.1020 -0.1397 0.4684
H8YF H 0.2184 -0.1020 0.6103
C13SB C 0.06082(9) 0.08283(10) 0.34460(9)
C13ZD C 0.15540(9) -0.06082(9) 0.41717(10)
C13IF C 0.16717(10) 0.06082(9) 0.40540(9)
C13W C 0.09460(9) -0.16717(10) 0.43918(9)
C13YF C 0.18918(9) -0.09460(9) 0.58283(10)
N5SB N 0.07090(8) 0.06450(8) 0.34205(8)
N5ZD N 0.15795(8) -0.07090(8) 0.43550(8)
N5IF N 0.18550(8) 0.07090(8) 0.40795(8)
N5W N 0.09205(8) -0.18550(8) 0.42910(8)
N5YF N 0.17910(8) -0.09205(8) 0.56450(8)
C14SB C 0.08443(10) 0.06459(10) 0.32561(9)
C14ZD C 0.17439(9) -0.08443(10) 0.43541(10)
C14IF C 0.18541(10) 0.08443(10) 0.42439(9)
C14W C 0.07561(9) -0.18541(10) 0.41557(10)
C14YF C 0.16557(10) -0.07561(9) 0.56459(10)
N6SB N 0.08814(8) 0.08024(8) 0.31312(7)
N6ZD N 0.18688(7) -0.08814(8) 0.41976(8)
N6IF N 0.16976(8) 0.08814(8) 0.43688(7)
N6W N 0.06312(7) -0.16976(8) 0.41186(8)
N6YF N 0.16186(8) -0.06312(7) 0.58024(8)
C15SB C 0.07762(9) 0.09783(9) 0.31740(8)
C15ZD C 0.18260(8) -0.07762(9) 0.40217(9)
C15IF C 0.15217(9) 0.07762(9) 0.43260(8)
C15W C 0.06740(8) -0.15217(9) 0.42238(9)
C15YF C 0.17238(9) -0.06740(8) 0.59783(9)
N7SB N 0.06349(7) 0.09974(7) 0.33284(7)
N7ZD N 0.16716(7) -0.06349(7) 0.40026(7)
N7IF N 0.15026(7) 0.06349(7) 0.41716(7)
N7W N 0.08284(7) -0.15026(7) 0.43651(7)
N7YF N 0.18651(7) -0.08284(7) 0.59974(7)
C16SB C 0.08207(9) 0.11623(9) 0.30457(8)
C16ZD C 0.19543(8) -0.08207(9) 0.38377(9)
C16IF C 0.13377(9) 0.08207(9) 0.44543(8)
C16W C 0.05457(8) -0.13377(9) 0.41793(9)
C16YF C 0.16793(9) -0.05457(8) 0.61623(9)
C17SB C 0.07255(10) 0.13539(10) 0.30794(10)
C17ZD C 0.19206(10) -0.07255(10) 0.36461(10)
C17IF C 0.11461(10) 0.07255(10) 0.44206(10)
C17W C 0.05794(10) -0.11461(10) 0.42745(10)
C17YF C 0.17745(10) -0.05794(10) 0.63539(10)
H9SB H 0.0628 0.1373 0.3189
H9ZD H 0.1811 -0.0628 0.3627
H9IF H 0.1127 0.0628 0.4311
H9W H 0.0689 -0.1127 0.4372
H9YF H 0.1872 -0.0689 0.6373
C18SB C 0.07771(10) 0.15161(11) 0.29482(11)
C18ZD C 0.20518(11) -0.07771(10) 0.34839(11)
C18IF C 0.09839(11) 0.07771(10) 0.45518(11)
C18W C 0.04482(11) -0.09839(11) 0.42229(10)
C18YF C 0.17229(10) -0.04482(11) 0.65161(11)
H10SB H 0.0713 0.1648 0.2965
H10ZD H 0.2035 -0.0713 0.3352
H10IF H 0.0852 0.0713 0.4535
H10W H 0.0465 -0.0852 0.4287
H10YF H 0.1787 -0.0465 0.6648
C19SB C 0.09229(9) 0.14868(10) 0.27919(9)
C19ZD C 0.22081(9) -0.09229(9) 0.35132(10)
C19IF C 0.10132(10) 0.09229(9) 0.47081(9)
C19W C 0.02919(9) -0.10132(10) 0.40771(9)
C19YF C 0.15771(9) -0.02919(9) 0.64868(10)
H11SB H 0.0956 0.1600 0.2703
H11ZD H 0.2297 -0.0956 0.3400
H11IF H 0.0900 0.0956 0.4797
H11W H 0.0203 -0.0900 0.4044
H11YF H 0.1544 -0.0203 0.6600
N8SB N 0.10184(7) 0.13044(6) 0.27629(6)
N8ZD N 0.22371(6) -0.10184(7) 0.36956(6)
N8IF N 0.11956(6) 0.10184(7) 0.47371(6)
N8W N 0.02629(6) -0.11956(6) 0.39816(7)
N8YF N 0.14816(7) -0.02629(6) 0.63044(6)
N8EA N 0.14816(7) 0.11956(6) 0.27629(6)
N8JE N 0.22371(6) -0.14816(7) 0.38044(6)
N9VB N -0.12357(7) -0.09833(7) 0.48103(7)
N9GC N -0.09833(7) -0.01897(7) 0.37643(7)
N9W N -0.01897(7) -0.12643(7) 0.34833(7)
N9G N -0.12357(7) -0.15167(7) 0.26897(7)
N9CB N -0.09833(7) -0.23103(7) 0.37357(7)
N9SB N 0.15167(7) 0.12357(7) 0.23103(7)
N9EA N 0.09833(7) 0.12643(7) 0.23103(7)
N9ZD N 0.26897(7) -0.15167(7) 0.37643(7)
N9JE N 0.26897(7) -0.09833(7) 0.37357(7)
C20VB C -0.13690(10) -0.08225(11) 0.48372(10)
C20GC C -0.08225(11) -0.01628(10) 0.36310(10)
C20W C -0.01628(10) -0.11310(10) 0.33225(11)
C20G C -0.13690(10) -0.16775(11) 0.26628(10)
C20CB C -0.08225(11) -0.23372(10) 0.38690(10)
H12VB H -0.1475 -0.0835 0.4940
H12GC H -0.0835 -0.0060 0.3525
H12W H -0.0060 -0.1025 0.3335
H12G H -0.1475 -0.1665 0.2560
H12CB H -0.0835 -0.2440 0.3975
C21VB C -0.13581(11) -0.06416(12) 0.47233(11)
C21GC C -0.06416(12) -0.02767(11) 0.36419(11)
C21W C -0.02767(11) -0.11419(11) 0.31416(12)
C21G C -0.13581(11) -0.18584(12) 0.27767(11)
C21CB C -0.06416(12) -0.22233(11) 0.38581(11)
H13VB H -0.1457 -0.0534 0.4746
H13GC H -0.0534 -0.0254 0.3543
H13W H -0.0254 -0.1043 0.3034
H13G H -0.1457 -0.1966 0.2754
H13CB H -0.0534 -0.2246 0.3957
C22VB C -0.12044(12) -0.06168(12) 0.45773(13)
C22GC C -0.06168(12) -0.04227(13) 0.37956(12)
C22W C -0.04227(13) -0.12956(12) 0.31168(12)
C22G C -0.12044(12) -0.18832(12) 0.29227(13)
C22CB C -0.06168(12) -0.20773(13) 0.37044(12)
H14VB H -0.1196 -0.0492 0.4498
H14GC H -0.0492 -0.0502 0.3804
H14W H -0.0502 -0.1304 0.2992
H14G H -0.1196 -0.2008 0.3002
H14CB H -0.0492 -0.1998 0.3696
C23SB C 0.09682(8) 0.11462(8) 0.28887(7)
C23ZD C 0.21113(7) -0.09682(8) 0.38538(8)
C23IF C 0.13538(8) 0.09682(8) 0.46113(7)
C23W C 0.03887(7) -0.13538(8) 0.40318(8)
C23YF C 0.15318(8) -0.03887(7) 0.61462(8)
H15SB H 0.1037 0.1017 0.2870
H15ZD H 0.2130 -0.1037 0.3983
H15IF H 0.1483 0.1037 0.4630
H15W H 0.0370 -0.1483 0.3963
H15YF H 0.1463 -0.0370 0.6017
C24VB C -0.10608(10) -0.07768(11) 0.45464(10)
C24GC C -0.07768(11) -0.04536(10) 0.39392(10)
C24W C -0.04536(10) -0.14392(10) 0.32768(11)
C24G C -0.10608(10) -0.17232(11) 0.29536(10)
C24CB C -0.07768(11) -0.20464(10) 0.35608(10)
C25VB C -0.10873(9) -0.09573(9) 0.46653(8)
C25GC C -0.09573(9) -0.03347(8) 0.39127(9)
C25W C -0.03347(8) -0.14127(9) 0.34573(9)
C25G C -0.10873(9) -0.15427(9) 0.28347(8)
C25CB C -0.09573(9) -0.21653(8) 0.35873(9)
H16VB H -0.0994 -0.1069 0.4642
H16GC H -0.1069 -0.0358 0.4006
H16W H -0.0358 -0.1506 0.3569
H16G H -0.0994 -0.1431 0.2858
H16CB H -0.1069 -0.2142 0.3494
C26VB C -0.08990(11) -0.07618(11) 0.43870(11)
C26GC C -0.07618(11) -0.06130(11) 0.41010(11)
C26W C -0.06130(11) -0.16010(11) 0.32618(11)
C26G C -0.08990(11) -0.17382(11) 0.31130(11)
C26CB C -0.07618(11) -0.18870(11) 0.33990(11)
N10VB N -0.09146(9) -0.06132(9) 0.42486(10)
N10GC N -0.06132(9) -0.07514(10) 0.40854(9)
N10W N -0.07514(10) -0.15854(9) 0.31132(9)
N10G N -0.09146(9) -0.18868(9) 0.32514(10)
N10CB N -0.06132(9) -0.17486(10) 0.34146(9)
C27 C 0.1611(8) -0.1349(8) 0.4226(12)
H17 H 0.1572 -0.1484 0.4161
H18 H 0.1742 -0.1368 0.4306
C28 C 0.1632(8) -0.1179(12) 0.4065(7)
H19 H 0.1753 -0.1146 0.3986
C29 C 0.1445(11) -0.1084(8) 0.4057(9)
H20 H 0.1389 -0.1013 0.3940
C30 C 0.1343(6) -0.1110(11) 0.4259(13)
H21 H 0.1229 -0.1030 0.4310
C31 C 0.1439(11) -0.1267(12) 0.4362(5)
H22 H 0.1404 -0.1316 0.4497
C32 C 0.0942(2) 0.2761(2) 0.0328(3)
H23 H 0.0888 0.2860 0.0433
H24 H 0.0887 0.2620 0.0353
C33 C 0.1179(2) 0.27658(19) 0.0309(2)
H25 H 0.1256 0.2737 0.0441
C34 C 0.12114(18) 0.29848(17) 0.02179(17)
H26 H 0.1329 0.3072 0.0241
C35 C 0.1042(2) 0.30328(19) 0.00988(19)
H27 H 0.1015 0.3160 0.0029
C36 C 0.0904(3) 0.2837(2) 0.0102(2)
H28 H 0.0754 0.2861 0.0064
C37 C 0.1007(2) 0.2639(3) -0.0003(2)
H29 H 0.0912 0.2517 -0.0014
C38 C 0.1099(3) 0.2711(4) -0.0213(2)
H30 H 0.1047 0.2621 -0.0327
H31 H 0.1056 0.2857 -0.0242
C39 C 0.1324(3) 0.2697(3) -0.0200(2)
H32 H 0.1417 0.2686 -0.0314
C40 C 0.1380(3) 0.2704(6) 0.0013(3)
H33 H 0.1503 0.2762 0.0070
C41 C 0.1204(3) 0.2598(3) 0.0134(2)
H34 H 0.1229 0.2451 0.0180
C42 C 0.3130(4) 0.2599(3) 0.0230(4)
H35 H 0.3201 0.2486 0.0307
H36 H 0.3039 0.2537 0.0122
C43 C 0.3287(5) 0.2751(5) 0.0134(3)
H37 H 0.3406 0.2689 0.0055
C44 C 0.3342(2) 0.2890(3) 0.0316(3)
H38 H 0.3471 0.2960 0.0337
C45 C 0.3173(2) 0.28954(19) 0.0444(2)
H39 H 0.3161 0.2985 0.0561
C46 C 0.3006(3) 0.2741(3) 0.0378(4)
H40 H 0.2902 0.2684 0.0479
C47? C 0.2936(4) 0.2851(5) 0.0169(4)
C48? C 0.2902(6) 0.3087(5) 0.0185(5)
C49? C 0.3031(3) 0.3198(3) 0.0034(3)
C50? C 0.3187(3) 0.3065(3) -0.0045(4)
C51? C 0.3121(4) 0.2843(3) 0.0013(5)
H41? H 0.2811 0.2781 0.0109
H42? H 0.2753 0.3119 0.0159
H43? H 0.2937 0.3135 0.0327
H44? H 0.3012 0.3339 -0.0006
H45? H 0.3308 0.3105 -0.0119
H46? H 0.3088 0.2757 -0.0113
loop_
_geom_bond_atom_site_label_1
_geom_bond_atom_site_label_2
_geom_bond_site_symmetry_1
_geom_bond_site_symmetry_2
Co1 N1 1_555 1_555
Co2 N2 1_555 1_555
N1 C1 1_555 1_555
N2 C2 1_555 1_555
C1 S1 1_555 1_555
C2 S2 1_555 1_555
N3 Co1 1_555 1_555
C3 N3 1_555 1_555
H1 C3 1_555 1_555
C4 C3 1_555 1_555
C5 C4 1_555 1_555
H2 C5 1_555 1_555
C6 C5 1_555 1_555
H3 C6 1_555 1_555
C7 N3 1_555 1_555
H4 C7 1_555 1_555
N4 C8 1_555 1_555
C8 H5 1_555 1_555
C9 C8 1_555 1_555
H6 C9 1_555 1_555
C10 C9 1_555 1_555
H7 C10 1_555 1_555
C11 C10 1_555 1_555
C12 N4 1_555 1_555
H8 C12 1_555 1_555
C13 C11 1_555 1_555
N5 C13 1_555 1_555
C14 C4 1_555 1_555
N6 C14 1_555 1_555
C15 N6 1_555 1_555
N7 C13 1_555 1_555
C16 C15 1_555 1_555
C17 C16 1_555 1_555
H9 C17 1_555 1_555
C18 C17 1_555 1_555
H10 C18 1_555 1_555
C19 C18 1_555 1_555
H11 C19 1_555 1_555
N8 Co2 1_555 1_555
N9 Co2 1_555 1_555
C20 N9 1_555 1_555
H12 C20 1_555 1_555
C21 C20 1_555 1_555
H13 C21 1_555 1_555
C22 C21 1_555 1_555
H14 C22 1_555 1_555
C23 C16 1_555 1_555
H15 C23 1_555 1_555
C24 C22 1_555 1_555
C25 N9 1_555 1_555
H16 C25 1_555 1_555
C26 C24 1_555 1_555
N10 C26 1_555 1_555
C27 H17 1_555 1_555
H18 C27 1_555 1_555
C28 C27 1_555 1_555
H19 C28 1_555 1_555
C29 C28 1_555 1_555
H20 C29 1_555 1_555
C30 C29 1_555 1_555
H21 C30 1_555 1_555
C31 C27 1_555 1_555
H22 C31 1_555 1_555
C32 H23 1_555 1_555
H24 C32 1_555 1_555
C33 C32 1_555 1_555
H25 C33 1_555 1_555
C34 C33 1_555 1_555
H26 C34 1_555 1_555
C35 C34 1_555 1_555
H27 C35 1_555 1_555
C36 C32 1_555 1_555
H28 C36 1_555 1_555
C37 C36 1_555 1_555
H29 C37 1_555 1_555
C38 C37 1_555 1_555
H30 C38 1_555 1_555
H31 C38 1_555 1_555
C39 C38 1_555 1_555
H32 C39 1_555 1_555
C40 C39 1_555 1_555
H33 C40 1_555 1_555
C41 C33 1_555 1_555
H34 C41 1_555 1_555
C42 H35 1_555 1_555
H36 C42 1_555 1_555
C43 C42 1_555 1_555
H37 C43 1_555 1_555
C44 C43 1_555 1_555
H38 C44 1_555 1_555
C45 C44 1_555 1_555
H39 C45 1_555 1_555
C46 C42 1_555 1_555
H40 C46 1_555 1_555
Co1ZD N1ZD 1_555 1_555
Co1BE N1IF 1_555 1_555
Co1GE N4 1_555 1_555
Co1NF N4SB 1_555 1_555
Co1R N3W 1_555 1_555
Co1O N4YF 1_555 1_555
Co2EA N2SB 1_555 1_555
Co2ZD N2ZD 1_555 1_555
Co2QB N9VB 1_555 1_555
Co2E N9GC 1_555 1_555
Co2IF N8IF 1_555 1_555
Co2G N9G 1_555 1_555
Co2CB N9CB 1_555 1_555
Co2WC N8YF 1_555 1_555
N1SB Co1 1_555 1_555
N1ZD C1ZD 1_555 1_555
N1YF Co1ZD 1_555 1_555
N1IF C1IF 1_555 1_555
N1BE Co1BE 1_555 1_555
N2W Co2 1_555 1_555
N2SB C2SB 1_555 1_555
N2EA Co2EA 1_555 1_555
N2ZD C2ZD 1_555 1_555
N2JE Co2ZD 1_555 1_555
C1SB N1SB 1_555 1_555
C1ZD S1ZD 1_555 1_555
C1YF N1YF 1_555 1_555
C1IF S1IF 1_555 1_555
C1BE N1BE 1_555 1_555
C2W N2W 1_555 1_555
C2SB S2SB 1_555 1_555
C2EA N2EA 1_555 1_555
C2ZD S2ZD 1_555 1_555
C2JE N2JE 1_555 1_555
S1SB C1SB 1_555 1_555
S1YF C1YF 1_555 1_555
S1BE C1BE 1_555 1_555
S2W C2W 1_555 1_555
S2EA C2EA 1_555 1_555
S2JE C2JE 1_555 1_555
N3SB Co1 1_555 1_555
N3ZD Co1ZD 1_555 1_555
N3IF Co1BE 1_555 1_555
N3W C3W 1_555 1_555
N3YF Co1ZD 1_555 1_555
N3BE Co1BE 1_555 1_555
C3SB N3SB 1_555 1_555
C3ZD N3ZD 1_555 1_555
C3IF N3IF 1_555 1_555
C3W H1W 1_555 1_555
C3YF N3YF 1_555 1_555
H1SB C3SB 1_555 1_555
H1ZD C3ZD 1_555 1_555
H1IF C3IF 1_555 1_555
H1YF C3YF 1_555 1_555
C4SB C3SB 1_555 1_555
C4ZD C3ZD 1_555 1_555
C4IF C3IF 1_555 1_555
C4W C3W 1_555 1_555
C4YF C3YF 1_555 1_555
C5SB C4SB 1_555 1_555
C5ZD C4ZD 1_555 1_555
C5IF C4IF 1_555 1_555
C5W C4W 1_555 1_555
C5YF C4YF 1_555 1_555
H2SB C5SB 1_555 1_555
H2ZD C5ZD 1_555 1_555
H2IF C5IF 1_555 1_555
H2W C5W 1_555 1_555
H2YF C5YF 1_555 1_555
C6SB C5SB 1_555 1_555
C6ZD C5ZD 1_555 1_555
C6IF C5IF 1_555 1_555
C6W C5W 1_555 1_555
C6YF C5YF 1_555 1_555
H3SB C6SB 1_555 1_555
H3ZD C6ZD 1_555 1_555
H3IF C6IF 1_555 1_555
H3W C6W 1_555 1_555
H3YF C6YF 1_555 1_555
C7SB N3SB 1_555 1_555
C7ZD N3ZD 1_555 1_555
C7IF N3IF 1_555 1_555
C7W N3W 1_555 1_555
C7YF N3YF 1_555 1_555
H4SB C7SB 1_555 1_555
H4ZD C7ZD 1_555 1_555
H4IF C7IF 1_555 1_555
H4W C7W 1_555 1_555
H4YF C7YF 1_555 1_555
N4SB C8SB 1_555 1_555
N4ZD Co1 1_555 1_555
N4IF Co1 1_555 1_555
N4W Co1ZD 1_555 1_555
N4YF C8YF 1_555 1_555
N4EC Co1ZD 1_555 1_555
N4EA Co1BE 1_555 1_555
N4M Co1BE 1_555 1_555
C8SB H5SB 1_555 1_555
C8ZD N4ZD 1_555 1_555
C8IF N4IF 1_555 1_555
C8W N4W 1_555 1_555
C8YF H5YF 1_555 1_555
H5ZD C8ZD 1_555 1_555
H5IF C8IF 1_555 1_555
H5W C8W 1_555 1_555
C9SB C8SB 1_555 1_555
C9ZD C8ZD 1_555 1_555
C9IF C8IF 1_555 1_555
C9W C8W 1_555 1_555
C9YF C8YF 1_555 1_555
H6SB C9SB 1_555 1_555
H6ZD C9ZD 1_555 1_555
H6IF C9IF 1_555 1_555
H6W C9W 1_555 1_555
H6YF C9YF 1_555 1_555
C10SB C9SB 1_555 1_555
C10ZD C9ZD 1_555 1_555
C10IF C9IF 1_555 1_555
C10W C9W 1_555 1_555
C10YF C9YF 1_555 1_555
H7SB C10SB 1_555 1_555
H7ZD C10ZD 1_555 1_555
H7IF C10IF 1_555 1_555
H7W C10W 1_555 1_555
H7YF C10YF 1_555 1_555
C11SB C10SB 1_555 1_555
C11ZD C10ZD 1_555 1_555
C11IF C10IF 1_555 1_555
C11W C10W 1_555 1_555
C11YF C10YF 1_555 1_555
C12SB N4SB 1_555 1_555
C12ZD N4ZD 1_555 1_555
C12IF N4IF 1_555 1_555
C12W N4W 1_555 1_555
C12YF N4YF 1_555 1_555
H8SB C12SB 1_555 1_555
H8ZD C12ZD 1_555 1_555
H8IF C12IF 1_555 1_555
H8W C12W 1_555 1_555
H8YF C12YF 1_555 1_555
C13SB C11SB 1_555 1_555
C13ZD C11ZD 1_555 1_555
C13IF C11IF 1_555 1_555
C13W C11W 1_555 1_555
C13YF C11YF 1_555 1_555
N5SB C13SB 1_555 1_555
N5ZD C13ZD 1_555 1_555
N5IF C13IF 1_555 1_555
N5W C13W 1_555 1_555
N5YF C13YF 1_555 1_555
C14SB C4SB 1_555 1_555
C14ZD C4ZD 1_555 1_555
C14IF C4IF 1_555 1_555
C14W C4W 1_555 1_555
C14YF C4YF 1_555 1_555
N6SB C14SB 1_555 1_555
N6ZD C14ZD 1_555 1_555
N6IF C14IF 1_555 1_555
N6W C14W 1_555 1_555
N6YF C14YF 1_555 1_555
C15SB N6SB 1_555 1_555
C15ZD N6ZD 1_555 1_555
C15IF N6IF 1_555 1_555
C15W N6W 1_555 1_555
C15YF N6YF 1_555 1_555
N7SB C13SB 1_555 1_555
N7ZD C13ZD 1_555 1_555
N7IF C13IF 1_555 1_555
N7W C13W 1_555 1_555
N7YF C13YF 1_555 1_555
C16SB C15SB 1_555 1_555
C16ZD C15ZD 1_555 1_555
C16IF C15IF 1_555 1_555
C16W C15W 1_555 1_555
C16YF C15YF 1_555 1_555
C17SB C16SB 1_555 1_555
C17ZD C16ZD 1_555 1_555
C17IF C16IF 1_555 1_555
C17W C16W 1_555 1_555
C17YF C16YF 1_555 1_555
H9SB C17SB 1_555 1_555
H9ZD C17ZD 1_555 1_555
H9IF C17IF 1_555 1_555
H9W C17W 1_555 1_555
H9YF C17YF 1_555 1_555
C18SB C17SB 1_555 1_555
C18ZD C17ZD 1_555 1_555
C18IF C17IF 1_555 1_555
C18W C17W 1_555 1_555
C18YF C17YF 1_555 1_555
H10SB C18SB 1_555 1_555
H10ZD C18ZD 1_555 1_555
H10IF C18IF 1_555 1_555
H10W C18W 1_555 1_555
H10YF C18YF 1_555 1_555
C19SB C18SB 1_555 1_555
C19ZD C18ZD 1_555 1_555
C19IF C18IF 1_555 1_555
C19W C18W 1_555 1_555
C19YF C18YF 1_555 1_555
H11SB C19SB 1_555 1_555
H11ZD C19ZD 1_555 1_555
H11IF C19IF 1_555 1_555
H11W C19W 1_555 1_555
H11YF C19YF 1_555 1_555
N8SB Co2EA 1_555 1_555
N8ZD Co2ZD 1_555 1_555
N8IF C19IF 1_555 1_555
N8W Co2 1_555 1_555
N8YF C19YF 1_555 1_555
N8EA Co2EA 1_555 1_555
N8JE Co2ZD 1_555 1_555
N9VB C20VB 1_555 1_555
N9GC C20GC 1_555 1_555
N9W Co2 1_555 1_555
N9G C20G 1_555 1_555
N9CB C20CB 1_555 1_555
N9SB Co2EA 1_555 1_555
N9EA Co2EA 1_555 1_555
N9ZD Co2ZD 1_555 1_555
N9JE Co2ZD 1_555 1_555
C20VB H12VB 1_555 1_555
C20GC H12GC 1_555 1_555
C20W N9W 1_555 1_555
C20G H12G 1_555 1_555
C20CB H12CB 1_555 1_555
H12W C20W 1_555 1_555
C21VB C20VB 1_555 1_555
C21GC C20GC 1_555 1_555
C21W C20W 1_555 1_555
C21G C20G 1_555 1_555
C21CB C20CB 1_555 1_555
H13VB C21VB 1_555 1_555
H13GC C21GC 1_555 1_555
H13W C21W 1_555 1_555
H13G C21G 1_555 1_555
H13CB C21CB 1_555 1_555
C22VB C21VB 1_555 1_555
C22GC C21GC 1_555 1_555
C22W C21W 1_555 1_555
C22G C21G 1_555 1_555
C22CB C21CB 1_555 1_555
H14VB C22VB 1_555 1_555
H14GC C22GC 1_555 1_555
H14W C22W 1_555 1_555
H14G C22G 1_555 1_555
H14CB C22CB 1_555 1_555
C23SB C16SB 1_555 1_555
C23ZD C16ZD 1_555 1_555
C23IF C16IF 1_555 1_555
C23W C16W 1_555 1_555
C23YF C16YF 1_555 1_555
H15SB C23SB 1_555 1_555
H15ZD C23ZD 1_555 1_555
H15IF C23IF 1_555 1_555
H15W C23W 1_555 1_555
H15YF C23YF 1_555 1_555
C24VB C22VB 1_555 1_555
C24GC C22GC 1_555 1_555
C24W C22W 1_555 1_555
C24G C22G 1_555 1_555
C24CB C22CB 1_555 1_555
C25VB N9VB 1_555 1_555
C25GC N9GC 1_555 1_555
C25W N9W 1_555 1_555
C25G N9G 1_555 1_555
C25CB N9CB 1_555 1_555
H16VB C25VB 1_555 1_555
H16GC C25GC 1_555 1_555
H16W C25W 1_555 1_555
H16G C25G 1_555 1_555
H16CB C25CB 1_555 1_555
C26VB N10 1_555 1_555
C26GC C24GC 1_555 1_555
C26W C24W 1_555 1_555
C26G C24G 1_555 1_555
C26CB C24CB 1_555 1_555
N10VB C26VB 1_555 1_555
N10GC C26 1_555 1_555
N10W C26W 1_555 1_555
N10G C26G 1_555 1_555
N10CB C26W 1_555 1_555
C6 C7 1_555 1_555
C11 C12 1_555 1_555
N5 C14 1_555 1_555
C15 N7 1_555 1_555
C19 N8 1_555 1_555
N8 C23 1_555 1_555
C24 C25 1_555 1_555
C30 C31 1_555 1_555
C35 C36 1_555 1_555
C37 C41 1_555 1_555
C40 C41 1_555 1_555
C45 C46 1_555 1_555
C6SB C7SB 1_555 1_555
C6ZD C7ZD 1_555 1_555
C6IF C7IF 1_555 1_555
C6W C7W 1_555 1_555
C6YF C7YF 1_555 1_555
C11SB C12SB 1_555 1_555
C11ZD C12ZD 1_555 1_555
C11IF C12IF 1_555 1_555
C11W C12W 1_555 1_555
C11YF C12YF 1_555 1_555
N5SB C14SB 1_555 1_555
N5ZD C14ZD 1_555 1_555
N5IF C14IF 1_555 1_555
N5W C14W 1_555 1_555
N5YF C14YF 1_555 1_555
C15SB N7SB 1_555 1_555
C15ZD N7ZD 1_555 1_555
C15IF N7IF 1_555 1_555
C15W N7W 1_555 1_555
C15YF N7YF 1_555 1_555
C19SB N8SB 1_555 1_555
C19ZD N8ZD 1_555 1_555
C19W N8W 1_555 1_555
N8SB C23SB 1_555 1_555
N8ZD C23ZD 1_555 1_555
N8IF C23IF 1_555 1_555
N8W C23W 1_555 1_555
N8YF C23YF 1_555 1_555
C24VB C25VB 1_555 1_555
C24VB C26VB 1_555 1_555
C24GC C25GC 1_555 1_555
C24W C25W 1_555 1_555
C24G C25G 1_555 1_555
C24CB C25CB 1_555 1_555
C26GC N10VB 1_555 1_555
C26GC N10GC 1_555 1_555
C26G N10W 1_555 1_555
C26CB N10G 1_555 1_555
C26CB N10CB 1_555 1_555

#END
