
#######################################################################
#
#                 Cambridge Crystallographic Data Centre
#                                CCDC 
#
#######################################################################
#
# If this CIF has been generated from an entry in the Cambridge 
# Structural Database, then it will include bibliographic, chemical, 
# crystal, experimental, refinement or atomic coordinate data resulting 
# from the CCDC's data processing and validation procedures.
#
#######################################################################

data_LAFSAN
_symmetry_cell_setting           monoclinic
_symmetry_space_group_name_H-M   'P 21/a'
_symmetry_Int_Tables_number      14
_space_group_name_Hall           '-P 2yab'
loop_
_symmetry_equiv_pos_site_id
_symmetry_equiv_pos_as_xyz
1 x,y,z
2 1/2-x,1/2+y,-z
3 -x,-y,-z
4 1/2+x,1/2-y,z
_cell_length_a                   6.9489(4)
_cell_length_b                   16.1481(11)
_cell_length_c                   8.3511(5)
_cell_angle_alpha                90
_cell_angle_beta                 105.956(6)
_cell_angle_gamma                90
_cell_volume                     900.987
loop_
_atom_site_label
_atom_site_type_symbol
_atom_site_fract_x
_atom_site_fract_y
_atom_site_fract_z
Co1 Co 0.67450(4) 0.07659(2) 0.79261(3)
C1 C 0.6021(3) -0.0007(1) 0.4796(2)
O1 O 0.7512(2) 0.0263(1) 0.5867(2)
O2 O 0.6027(2) -0.0296(1) 0.3388(2)
C2 C 0.9368(3) -0.0398(1) 1.0004(2)
O3 O 0.7540(2) -0.0354(1) 0.9270(2)
O4 O 1.0280(2) -0.1019(1) 1.0737(2)
O5 O 0.5550(2) 0.1220(1) 0.9819(2)
H1 H 0.6294 0.1446 1.0524
H2 H 0.4828 0.0923 1.0217
N1 N 0.3215(3) 0.2996(1) 0.2428(2)
C3 C 0.3274(3) 0.2167(1) 0.2621(3)
H3 H 0.2557 0.1859 0.1711
N2 N 0.4238(3) 0.1738(1) 0.3960(2)
C4 C 0.5249(3) 0.2213(1) 0.5220(2)
C5 C 0.5320(3) 0.3076(1) 0.5127(2)
C6 C 0.4252(3) 0.3465(1) 0.3679(3)
H4 H 0.4259 0.4038 0.3582
N3 N 0.6516(3) 0.3332(1) 0.6640(2)
H5 H 0.6834 0.3834 0.6941
C7 C 0.7093(3) 0.2649(1) 0.7560(3)
H6 H 0.7926 0.2662 0.8643
N4 N 0.6360(2) 0.1951(1) 0.6776(2)
C1B C 0.3979(3) 0.0007(1) 0.5204(2)
O1B O 0.2488(2) -0.0263(1) 0.4133(2)
O2B O 0.3973(2) 0.0296(1) 0.6612(2)
C2B C 1.0632(3) 0.0398(1) 0.9996(2)
O3B O 1.2460(2) 0.0354(1) 1.0730(2)
O4B O 0.9720(2) 0.1019(1) 0.9263(2)
Co1B Co 0.32550(4) -0.07659(2) 0.20739(3)
O5B O 0.4450(2) -0.1220(1) 0.0181(2)
H1B H 0.3706 -0.1446 -0.0524
H2B H 0.5172 -0.0923 -0.0217
N1B N 0.6785(3) -0.2996(1) 0.7572(2)
C3B C 0.6726(3) -0.2167(1) 0.7379(3)
H3B H 0.7443 -0.1859 0.8289
N2B N 0.5762(3) -0.1738(1) 0.6040(2)
C4B C 0.4751(3) -0.2213(1) 0.4780(2)
C5B C 0.4680(3) -0.3076(1) 0.4873(2)
C6B C 0.5748(3) -0.3465(1) 0.6321(3)
H4B H 0.5741 -0.4038 0.6418
N3B N 0.3484(3) -0.3332(1) 0.3360(2)
H5B H 0.3166 -0.3834 0.3059
C7B C 0.2907(3) -0.2649(1) 0.2440(3)
H6B H 0.2074 -0.2662 0.1357
N4B N 0.3640(2) -0.1951(1) 0.3224(2)
Co1B_2 Co 1.32550(4) -0.07659(2) 1.20739(3)
O3B_2 O 0.2460(2) 0.0354(1) 0.0730(2)
O4_2 O 0.0280(2) -0.1019(1) 0.0737(2)
loop_
_geom_bond_atom_site_label_1
_geom_bond_atom_site_label_2
_geom_bond_site_symmetry_1
_geom_bond_site_symmetry_2
Co1 O1 1_555 1_555
C1 O1 1_555 1_555
O2 C1 1_555 1_555
C2 O3 1_555 1_555
O3 Co1 1_555 1_555
O4 C2 1_555 1_555
O5 Co1 1_555 1_555
H1 O5 1_555 1_555
H2 O5 1_555 1_555
N1 C3 1_555 1_555
C3 H3 1_555 1_555
N2 C3 1_555 1_555
C4 N2 1_555 1_555
C5 C4 1_555 1_555
C6 N1 1_555 1_555
H4 C6 1_555 1_555
N3 C5 1_555 1_555
H5 N3 1_555 1_555
C7 N3 1_555 1_555
H6 C7 1_555 1_555
N4 Co1 1_555 1_555
C1B C1 1_555 1_555
O1B C1B 1_555 1_555
O2B Co1 1_555 1_555
C2B C2 1_555 1_555
O3B C2B 1_555 1_555
O4B Co1 1_555 1_555
Co1B O2 1_555 1_555
O5B Co1B 1_555 1_555
H1B O5B 1_555 1_555
H2B O5B 1_555 1_555
N1B C3B 1_555 1_555
C3B H3B 1_555 1_555
N2B C3B 1_555 1_555
C4B N2B 1_555 1_555
C5B C4B 1_555 1_555
C6B N1B 1_555 1_555
H4B C6B 1_555 1_555
N3B C5B 1_555 1_555
H5B N3B 1_555 1_555
C7B N3B 1_555 1_555
H6B C7B 1_555 1_555
N4B Co1B 1_555 1_555
Co1B_2 O4 1_555 1_555
O3B_2 Co1B 1_555 1_555
O4_2 Co1B 1_555 1_555
C4 N4 1_555 1_555
C5 C6 1_555 1_555
C7 N4 1_555 1_555
C1B O2B 1_555 1_555
O1B Co1B 1_555 1_555
C2B O4B 1_555 1_555
O3B Co1B_2 1_555 1_555
C4B N4B 1_555 1_555
C5B C6B 1_555 1_555
C7B N4B 1_555 1_555

#END
