
#######################################################################
#
#                 Cambridge Crystallographic Data Centre
#                                CCDC 
#
#######################################################################
#
# If this CIF has been generated from an entry in the Cambridge 
# Structural Database, then it will include bibliographic, chemical, 
# crystal, experimental, refinement or atomic coordinate data resulting 
# from the CCDC's data processing and validation procedures.
#
#######################################################################

data_LAFSAM
_symmetry_cell_setting           triclinic
_symmetry_space_group_name_H-M   'P -1'
_symmetry_Int_Tables_number      2
_space_group_name_Hall           '-P 1'
loop_
_symmetry_equiv_pos_site_id
_symmetry_equiv_pos_as_xyz
1 x,y,z
2 -x,-y,-z
_cell_length_a                   8.254(3)
_cell_length_b                   8.562(3)
_cell_length_c                   13.416(5)
_cell_angle_alpha                81.97(3)
_cell_angle_beta                 74.72(3)
_cell_angle_gamma                79.75(3)
_cell_volume                     895.695
loop_
_atom_site_label
_atom_site_type_symbol
_atom_site_fract_x
_atom_site_fract_y
_atom_site_fract_z
Sn1 Sn -0.45457(2) -0.13227(2) 0.22955(1)
Sn2 Sn -0.78583(2) -0.43101(2) 0.27403(1)
S1 S 0.0453(1) 0.1766(1) 0.33835(5)
S2 S -0.0999(1) 0.0964(1) 0.19199(5)
O1 O 0.0840(3) 0.3229(2) 0.2728(2)
O2 O 0.1720(3) 0.1004(3) 0.3921(2)
O3 O -0.2410(3) 0.2176(3) 0.2240(2)
O4 O -0.1416(3) -0.0510(3) 0.1703(2)
O5 O -0.6942(3) -0.2113(3) 0.2649(2)
N1 N 0.0159(3) 0.0469(3) 0.2730(2)
C1 C -0.1450(4) 0.2245(4) 0.4311(2)
C2 C 0.0299(5) 0.1723(5) 0.0752(2)
C3 C -0.3180(4) -0.3365(4) 0.1541(3)
C4 C -0.5158(4) 0.0762(4) 0.1330(2)
C5 C -0.4437(4) -0.1101(4) 0.3828(2)
C6 C -1.0359(4) -0.3522(4) 0.3586(3)
C7 C -0.6174(4) -0.5692(4) 0.3578(3)
C8 C -0.7353(5) -0.4387(5) 0.1113(2)
H1 H -0.7918(28) -0.1527(35) 0.2726(25)
H2 H -0.1254 0.3062 0.4669
H3 H -0.2316 0.2671 0.3949
H4 H -0.1811 0.1373 0.4804
H5 H -0.0363 0.1963 0.0244
H6 H 0.0563 0.2694 0.0909
H7 H 0.1332 0.1038 0.0482
H8 H -0.3418 -0.4303 0.2005
H9 H -0.3557 -0.3390 0.0926
H10 H -0.1979 -0.3334 0.1356
H11 H -0.5649 0.1640 0.1741
H12 H -0.4086 0.0968 0.0883
H13 H -0.5908 0.0636 0.0918
H14 H -0.5254 -0.0225 0.4104
H15 H -0.4661 -0.2066 0.4265
H16 H -0.3316 -0.0908 0.3802
H17 H -1.0380 -0.2427 0.3681
H18 H -1.1249 -0.3600 0.3266
H19 H -1.0526 -0.4144 0.4248
H20 H -0.5784 -0.4922 0.3880
H21 H -0.6716 -0.6425 0.4118
H22 H -0.5225 -0.6266 0.3123
H23 H -0.6799 -0.3511 0.0735
H24 H -0.6612 -0.5371 0.0969
H25 H -0.8380 -0.4386 0.0904
Sn2_2 Sn 0.21417(2) 0.56899(2) 0.27403(1)
O1_2 O -0.9160(3) -0.6771(2) 0.2728(2)
loop_
_geom_bond_atom_site_label_1
_geom_bond_atom_site_label_2
_geom_bond_site_symmetry_1
_geom_bond_site_symmetry_2
Sn1 O4 1_555 1_555
Sn2 O5 1_555 1_555
S1 O1 1_555 1_555
S2 O3 1_555 1_555
O1 Sn2_2 1_555 1_555
O2 S1 1_555 1_555
O4 S2 1_555 1_555
O5 Sn1 1_555 1_555
N1 S1 1_555 1_555
C1 S1 1_555 1_555
C2 S2 1_555 1_555
C3 Sn1 1_555 1_555
C4 Sn1 1_555 1_555
C5 Sn1 1_555 1_555
C6 Sn2 1_555 1_555
C7 Sn2 1_555 1_555
C8 Sn2 1_555 1_555
H1 O5 1_555 1_555
H2 C1 1_555 1_555
H3 C1 1_555 1_555
H4 C1 1_555 1_555
H5 C2 1_555 1_555
H6 C2 1_555 1_555
H7 C2 1_555 1_555
H8 C3 1_555 1_555
H9 C3 1_555 1_555
H10 C3 1_555 1_555
H11 C4 1_555 1_555
H12 C4 1_555 1_555
H13 C4 1_555 1_555
H14 C5 1_555 1_555
H15 C5 1_555 1_555
H16 C5 1_555 1_555
H17 C6 1_555 1_555
H18 C6 1_555 1_555
H19 C6 1_555 1_555
H20 C7 1_555 1_555
H21 C7 1_555 1_555
H22 C7 1_555 1_555
H23 C8 1_555 1_555
H24 C8 1_555 1_555
H25 C8 1_555 1_555
O1_2 Sn2 1_555 1_555
S2 N1 1_555 1_555

#END
