
#######################################################################
#
#                 Cambridge Crystallographic Data Centre
#                                CCDC 
#
#######################################################################
#
# If this CIF has been generated from an entry in the Cambridge 
# Structural Database, then it will include bibliographic, chemical, 
# crystal, experimental, refinement or atomic coordinate data resulting 
# from the CCDC's data processing and validation procedures.
#
#######################################################################

data_LAFSUH
_symmetry_cell_setting           triclinic
_symmetry_space_group_name_H-M   'P -1'
_symmetry_Int_Tables_number      2
_space_group_name_Hall           '-P 1'
loop_
_symmetry_equiv_pos_site_id
_symmetry_equiv_pos_as_xyz
1 x,y,z
2 -x,-y,-z
_cell_length_a                   7.471(1)
_cell_length_b                   8.210(1)
_cell_length_c                   19.099(2)
_cell_angle_alpha                82.34(1)
_cell_angle_beta                 80.23(1)
_cell_angle_gamma                74.62(1)
_cell_volume                     1108.32
loop_
_atom_site_label
_atom_site_type_symbol
_atom_site_fract_x
_atom_site_fract_y
_atom_site_fract_z
Co1 Co 0.30451(5) 0.29021(4) 0.05961(2)
C1 C 0.5338(4) 0.0520(3) -0.0341(1)
O1 O 0.4791(3) 0.2103(2) -0.0358(1)
O2 O 0.6372(3) -0.0301(2) -0.0834(1)
C2 C -0.0502(4) 0.4277(3) 0.0061(1)
O3 O 0.0338(3) 0.2882(2) 0.0349(1)
O4 O -0.2084(2) 0.4598(2) -0.0139(1)
O5 O 0.5438(3) 0.3406(2) 0.0854(1)
H1 H 0.5888 0.269 0.1207
H2 H 0.6038 0.3673 0.0549
N1 N 0.0417(3) 0.2835(3) 0.2823(1)
C3 C 0.1190(4) 0.2515(3) 0.2162(2)
H3 H 0.1161 0.1472 0.2031
N2 N 0.2007(3) 0.3484(3) 0.1656(1)
C4 C 0.2000(4) 0.4968(3) 0.1898(1)
C5 C 0.1214(4) 0.5467(3) 0.2567(1)
C6 C 0.0372(4) 0.4348(3) 0.3047(2)
N3 N 0.1389(3) 0.7084(3) 0.2626(1)
C7 C 0.2285(4) 0.7491(3) 0.2006(2)
H4 H 0.262 0.8518 0.1891
N4 N 0.2680(3) 0.6278(3) 0.1545(1)
H5 H 0.3249 0.6328 0.1115
N5 N -0.0477(4) 0.4696(3) 0.3694(1)
H6 H -0.0987 0.3969 0.3965
H7 H -0.0519 0.5648 0.3845
C1A C 0.4662(4) -0.0520(3) 0.0341(1)
O1A O 0.5209(3) -0.2103(2) 0.0358(1)
O2A O 0.3628(3) 0.0301(2) 0.0834(1)
C2A C 0.0502(4) 0.5723(3) -0.0061(1)
O3A O -0.0338(3) 0.7118(2) -0.0349(1)
O4A O 0.2084(2) 0.5402(2) 0.0139(1)
Co1A Co 0.69549(5) -0.29021(4) -0.05961(2)
O5A O 0.4562(3) -0.3406(2) -0.0854(1)
H1A H 0.4112 -0.269 -0.1207
H2A H 0.3962 -0.3673 -0.0549
N1A N 0.9583(3) -0.2835(3) -0.2823(1)
C3A C 0.8810(4) -0.2515(3) -0.2162(2)
H3A H 0.8839 -0.1472 -0.2031
N2A N 0.7993(3) -0.3484(3) -0.1656(1)
C4A C 0.8000(4) -0.4968(3) -0.1898(1)
C5A C 0.8786(4) -0.5467(3) -0.2567(1)
C6A C 0.9628(4) -0.4348(3) -0.3047(2)
N3A N 0.8611(3) -0.7084(3) -0.2626(1)
C7A C 0.7715(4) -0.7491(3) -0.2006(2)
H4A H 0.738 -0.8518 -0.1891
N4A N 0.7320(3) -0.6278(3) -0.1545(1)
H5A H 0.6751 -0.6328 -0.1115
N5A N 1.0477(4) -0.4696(3) -0.3694(1)
H6A H 1.0987 -0.3969 -0.3965
H7A H 1.0519 -0.5648 -0.3845
Co1A_2 Co -0.30451(5) 0.70979(4) -0.05961(2)
O3A_2 O 0.9662(3) -0.2882(2) -0.0349(1)
O4_2 O 0.7916(2) -0.5402(2) -0.0139(1)
N6 N 0.7075(3) 1.0695(3) 0.1833(1)
C8 C 0.6048(5) 1.0368(4) 0.2458(2)
H8 H 0.5525 1.1296 0.2722
N7 N 0.5665(4) 0.8926(3) 0.2757(1)
C9 C 0.6444(4) 0.7667(3) 0.2332(1)
C10 C 0.7527(4) 0.7798(3) 0.1678(1)
C11 C 0.7863(4) 0.9386(3) 0.1431(1)
N8 N 0.8114(3) 0.6251(3) 0.1385(1)
C12 C 0.7353(4) 0.5254(4) 0.1867(2)
H9 H 0.7488 0.4115 0.1815
N9 N 0.6352(3) 0.6015(3) 0.2448(1)
H10 H 0.5774 0.5549 0.2815
N10 N 0.8901(4) 0.9685(3) 0.0809(1)
H11 H 0.9419 0.8874 0.0543
H12 H 0.9051 1.0688 0.0676
N11 N 0.8635(4) -0.2289(3) 0.4436(1)
C13 C 0.7810(4) -0.2717(4) 0.5083(2)
H13 H 0.7827 -0.3861 0.5181
N12 N 0.6970(4) -0.1761(3) 0.5608(1)
C14 C 0.7004(4) -0.0136(4) 0.5409(2)
C15 C 0.7777(4) 0.0511(3) 0.4759(2)
C16 C 0.8639(4) -0.0643(3) 0.4247(2)
N13 N 0.7534(4) 0.2251(3) 0.4744(1)
C17 C 0.6627(5) 0.2585(4) 0.5381(2)
H14 H 0.627 0.3673 0.553
N14 N 0.6256(4) 0.1224(3) 0.5801(1)
H15 H 0.5667 0.1214 0.6229
N15 N 0.9458(4) -0.0232(3) 0.3604(1)
H16 H 0.9972 -0.1003 0.3318
H17 H 0.9479 0.0807 0.3472
O6 O 0.5151(3) 0.3927(3) 0.3596(1)
H18 H 0.6136 0.3537 0.3841
H19 H 0.4537 0.3369 0.3762
loop_
_geom_bond_atom_site_label_1
_geom_bond_atom_site_label_2
_geom_bond_site_symmetry_1
_geom_bond_site_symmetry_2
Co1 O1 1_555 1_555
C1 O1 1_555 1_555
O2 C1 1_555 1_555
C2 O3 1_555 1_555
O3 Co1 1_555 1_555
O4 C2 1_555 1_555
O5 Co1 1_555 1_555
H1 O5 1_555 1_555
H2 O5 1_555 1_555
N1 C3 1_555 1_555
C3 H3 1_555 1_555
N2 Co1 1_555 1_555
C4 N2 1_555 1_555
C5 C4 1_555 1_555
C6 N1 1_555 1_555
N3 C5 1_555 1_555
C7 N3 1_555 1_555
H4 C7 1_555 1_555
N4 C4 1_555 1_555
H5 N4 1_555 1_555
N5 C6 1_555 1_555
H6 N5 1_555 1_555
H7 N5 1_555 1_555
N6 C8 1_555 1_555
C8 H8 1_555 1_555
N7 C8 1_555 1_555
C9 N7 1_555 1_555
C10 C9 1_555 1_555
C11 N6 1_555 1_555
N8 C10 1_555 1_555
C12 N8 1_555 1_555
H9 C12 1_555 1_555
N9 C9 1_555 1_555
H10 N9 1_555 1_555
N10 C11 1_555 1_555
H11 N10 1_555 1_555
H12 N10 1_555 1_555
N11 C13 1_555 1_555
C13 H13 1_555 1_555
N12 C13 1_555 1_555
C14 N12 1_555 1_555
C15 C14 1_555 1_555
C16 N11 1_555 1_555
N13 C15 1_555 1_555
C17 N13 1_555 1_555
H14 C17 1_555 1_555
N14 C14 1_555 1_555
H15 N14 1_555 1_555
N15 C16 1_555 1_555
H16 N15 1_555 1_555
H17 N15 1_555 1_555
O6 H18 1_555 1_555
H19 O6 1_555 1_555
C1A C1 1_555 1_555
O1A C1A 1_555 1_555
O2A Co1 1_555 1_555
C2A C2 1_555 1_555
O3A C2A 1_555 1_555
O4A Co1 1_555 1_555
Co1A O2 1_555 1_555
O5A Co1A 1_555 1_555
H1A O5A 1_555 1_555
H2A O5A 1_555 1_555
N1A C3A 1_555 1_555
C3A H3A 1_555 1_555
N2A Co1A 1_555 1_555
C4A N2A 1_555 1_555
C5A C4A 1_555 1_555
C6A N1A 1_555 1_555
N3A C5A 1_555 1_555
C7A N3A 1_555 1_555
H4A C7A 1_555 1_555
N4A C4A 1_555 1_555
H5A N4A 1_555 1_555
N5A C6A 1_555 1_555
H6A N5A 1_555 1_555
H7A N5A 1_555 1_555
Co1A_2 O4 1_555 1_555
O3A_2 Co1A 1_555 1_555
O4_2 Co1A 1_555 1_555
C3 N2 1_555 1_555
C5 C6 1_555 1_555
C7 N4 1_555 1_555
C10 C11 1_555 1_555
C12 N9 1_555 1_555
C15 C16 1_555 1_555
C17 N14 1_555 1_555
C1A O2A 1_555 1_555
O1A Co1A 1_555 1_555
C2A O4A 1_555 1_555
O3A Co1A_2 1_555 1_555
C3A N2A 1_555 1_555
C5A C6A 1_555 1_555
C7A N4A 1_555 1_555

#END
