
#######################################################################
#
#                 Cambridge Crystallographic Data Centre
#                                CCDC 
#
#######################################################################
#
# If this CIF has been generated from an entry in the Cambridge 
# Structural Database, then it will include bibliographic, chemical, 
# crystal, experimental, refinement or atomic coordinate data resulting 
# from the CCDC's data processing and validation procedures.
#
#######################################################################

data_LAFTAO
_symmetry_cell_setting           triclinic
_symmetry_space_group_name_H-M   'P -1'
_symmetry_Int_Tables_number      2
_space_group_name_Hall           '-P 1'
loop_
_symmetry_equiv_pos_site_id
_symmetry_equiv_pos_as_xyz
1 x,y,z
2 -x,-y,-z
_cell_length_a                   7.487(2)
_cell_length_b                   8.226(2)
_cell_length_c                   19.150(2)
_cell_angle_alpha                82.06(2)
_cell_angle_beta                 80.16(2)
_cell_angle_gamma                74.40(2)
_cell_volume                     1113.96
loop_
_atom_site_label
_atom_site_type_symbol
_atom_site_fract_x
_atom_site_fract_y
_atom_site_fract_z
Zn1 Zn 0.30388(6) 0.28891(5) 0.06075(2)
C1 C 0.5350(5) 0.0516(4) -0.03370(18)
O1 O 0.4813(3) 0.2106(3) -0.03529(11)
O2 O 0.6390(3) -0.0305(3) -0.08339(12)
C2 C -0.0519(5) 0.4281(4) 0.00576(17)
O3 O 0.0319(3) 0.2884(3) 0.03491(12)
O4 O -0.2096(3) 0.4629(3) -0.01426(11)
O5 O 0.5455(3) 0.3429(3) 0.08548(11)
H1 H 0.6022 0.2417 0.1188
H2 H 0.6567 0.3705 0.0499
N1 N 0.0439(4) 0.2835(3) 0.28315(15)
C3 C 0.1233(5) 0.2507(4) 0.2168(2)
H3 H 0.103 0.1338 0.2025
N2 N 0.2027(4) 0.3472(3) 0.16669(14)
C4 C 0.2005(5) 0.4954(4) 0.19029(18)
C5 C 0.1214(5) 0.5463(4) 0.25672(18)
C6 C 0.0364(5) 0.4341(4) 0.30513(19)
N3 N 0.1388(4) 0.7074(4) 0.26320(15)
C7 C 0.2277(5) 0.7482(4) 0.20074(19)
H4 H 0.2494 0.8803 0.1749
N4 N 0.2672(4) 0.6279(3) 0.15419(14)
H5 H 0.3533 0.6348 0.1098
N5 N -0.0489(4) 0.4703(3) 0.36952(15)
H6 H -0.0998 0.3861 0.3996
H7 H -0.0509 0.5723 0.3867
C1A C 0.4650(5) -0.0516(4) 0.03370(18)
O1A O 0.5187(3) -0.2106(3) 0.03529(11)
O2A O 0.3610(3) 0.0305(3) 0.08339(12)
C2A C 0.0519(5) 0.5719(4) -0.00576(17)
O3A O -0.0319(3) 0.7116(3) -0.03491(12)
O4A O 0.2096(3) 0.5371(3) 0.01426(11)
Zn1A Zn 0.69612(6) -0.28891(5) -0.06075(2)
O5A O 0.4545(3) -0.3429(3) -0.08548(11)
H1A H 0.3978 -0.2417 -0.1188
H2A H 0.3433 -0.3705 -0.0499
N1A N 0.9561(4) -0.2835(3) -0.28315(15)
C3A C 0.8767(5) -0.2507(4) -0.2168(2)
H3A H 0.897 -0.1338 -0.2025
N2A N 0.7973(4) -0.3472(3) -0.16669(14)
C4A C 0.7995(5) -0.4954(4) -0.19029(18)
C5A C 0.8786(5) -0.5463(4) -0.25672(18)
C6A C 0.9636(5) -0.4341(4) -0.30513(19)
N3A N 0.8612(4) -0.7074(4) -0.26320(15)
C7A C 0.7723(5) -0.7482(4) -0.20074(19)
H4A H 0.7506 -0.8803 -0.1749
N4A N 0.7328(4) -0.6279(3) -0.15419(14)
H5A H 0.6467 -0.6348 -0.1098
N5A N 1.0489(4) -0.4703(3) -0.36952(15)
H6A H 1.0998 -0.3861 -0.3996
H7A H 1.0509 -0.5723 -0.3867
Zn1A_2 Zn -0.30388(6) 0.71109(5) -0.06075(2)
O3A_2 O 0.9681(3) -0.2884(3) -0.03491(12)
O4_2 O 0.7904(3) -0.5371(3) -0.01426(11)
N6 N 0.7082(4) 1.0683(4) 0.18340(15)
C8 C 0.6049(5) 1.0383(5) 0.2459(2)
H8 H 0.5476 1.1402 0.278
N7 N 0.5674(4) 0.8918(4) 0.27581(15)
C9 C 0.6452(5) 0.7674(5) 0.23346(19)
C10 C 0.7538(5) 0.7804(4) 0.16767(18)
C11 C 0.7870(5) 0.9397(5) 0.14271(19)
N8 N 0.8106(4) 0.6269(4) 0.13814(15)
C12 C 0.7367(5) 0.5252(5) 0.1868(2)
H9 H 0.7569 0.3948 0.1735
N9 N 0.6361(4) 0.6007(4) 0.24514(15)
H10 H 0.5617 0.529 0.2816
N10 N 0.8895(4) 0.9678(3) 0.08081(16)
H11 H 0.9289 1.076 0.0586
H12 H 0.9501 0.8837 0.0506
N11 N 0.8633(4) -0.2292(4) 0.44373(15)
C13 C 0.7826(6) -0.2721(5) 0.5082(2)
H13 H 0.7725 -0.4091 0.5172
N12 N 0.6966(4) -0.1771(4) 0.56111(15)
C14 C 0.6991(5) -0.0127(5) 0.54142(19)
C15 C 0.7774(5) 0.0499(4) 0.47595(19)
C16 C 0.8639(5) -0.0642(5) 0.42512(19)
N13 N 0.7534(4) 0.2251(4) 0.47420(16)
C17 C 0.6615(6) 0.2592(5) 0.5381(2)
H14 H 0.671 0.3621 0.557
N14 N 0.6267(4) 0.1221(4) 0.58054(15)
H15 H 0.5739 0.1248 0.631
N15 N 0.9446(4) -0.0227(3) 0.36058(15)
H16 H 0.9893 -0.1024 0.3239
H17 H 0.9704 0.0881 0.3456
O6 O 0.5154(3) 0.3926(3) 0.35996(14)
H18 H 0.6525 0.3498 0.3781
H19 H 0.4515 0.2974 0.3719
loop_
_geom_bond_atom_site_label_1
_geom_bond_atom_site_label_2
_geom_bond_site_symmetry_1
_geom_bond_site_symmetry_2
Zn1 O1 1_555 1_555
C1 O1 1_555 1_555
O2 C1 1_555 1_555
C2 O3 1_555 1_555
O3 Zn1 1_555 1_555
O4 C2 1_555 1_555
O5 Zn1 1_555 1_555
H1 O5 1_555 1_555
H2 O5 1_555 1_555
N1 C3 1_555 1_555
C3 H3 1_555 1_555
N2 Zn1 1_555 1_555
C4 N2 1_555 1_555
C5 C4 1_555 1_555
C6 N1 1_555 1_555
N3 C5 1_555 1_555
C7 N3 1_555 1_555
H4 C7 1_555 1_555
N4 C4 1_555 1_555
H5 N4 1_555 1_555
N5 C6 1_555 1_555
H6 N5 1_555 1_555
H7 N5 1_555 1_555
N6 C8 1_555 1_555
C8 H8 1_555 1_555
N7 C8 1_555 1_555
C9 N7 1_555 1_555
C10 C9 1_555 1_555
C11 N6 1_555 1_555
N8 C10 1_555 1_555
C12 N8 1_555 1_555
H9 C12 1_555 1_555
N9 C9 1_555 1_555
H10 N9 1_555 1_555
N10 C11 1_555 1_555
H11 N10 1_555 1_555
H12 N10 1_555 1_555
N11 C13 1_555 1_555
C13 H13 1_555 1_555
N12 C13 1_555 1_555
C14 N12 1_555 1_555
C15 C14 1_555 1_555
C16 N11 1_555 1_555
N13 C15 1_555 1_555
C17 N13 1_555 1_555
H14 C17 1_555 1_555
N14 C14 1_555 1_555
H15 N14 1_555 1_555
N15 C16 1_555 1_555
H16 N15 1_555 1_555
H17 N15 1_555 1_555
O6 H18 1_555 1_555
H19 O6 1_555 1_555
C1A C1 1_555 1_555
O1A C1A 1_555 1_555
O2A Zn1 1_555 1_555
C2A C2 1_555 1_555
O3A C2A 1_555 1_555
O4A Zn1 1_555 1_555
Zn1A O2 1_555 1_555
O5A Zn1A 1_555 1_555
H1A O5A 1_555 1_555
H2A O5A 1_555 1_555
N1A C3A 1_555 1_555
C3A H3A 1_555 1_555
N2A Zn1A 1_555 1_555
C4A N2A 1_555 1_555
C5A C4A 1_555 1_555
C6A N1A 1_555 1_555
N3A C5A 1_555 1_555
C7A N3A 1_555 1_555
H4A C7A 1_555 1_555
N4A C4A 1_555 1_555
H5A N4A 1_555 1_555
N5A C6A 1_555 1_555
H6A N5A 1_555 1_555
H7A N5A 1_555 1_555
Zn1A_2 O4 1_555 1_555
O3A_2 Zn1A 1_555 1_555
O4_2 Zn1A 1_555 1_555
C3 N2 1_555 1_555
C5 C6 1_555 1_555
C7 N4 1_555 1_555
C10 C11 1_555 1_555
C12 N9 1_555 1_555
C15 C16 1_555 1_555
C17 N14 1_555 1_555
C1A O2A 1_555 1_555
O1A Zn1A 1_555 1_555
C2A O4A 1_555 1_555
O3A Zn1A_2 1_555 1_555
C3A N2A 1_555 1_555
C5A C6A 1_555 1_555
C7A N4A 1_555 1_555

#END
