
#######################################################################
#
#                 Cambridge Crystallographic Data Centre
#                                CCDC 
#
#######################################################################
#
# If this CIF has been generated from an entry in the Cambridge 
# Structural Database, then it will include bibliographic, chemical, 
# crystal, experimental, refinement or atomic coordinate data resulting 
# from the CCDC's data processing and validation procedures.
#
#######################################################################

data_LAFYUN
_symmetry_cell_setting           triclinic
_symmetry_space_group_name_H-M   'P -1'
_symmetry_Int_Tables_number      2
_space_group_name_Hall           '-P 1'
loop_
_symmetry_equiv_pos_site_id
_symmetry_equiv_pos_as_xyz
1 x,y,z
2 -x,-y,-z
_cell_length_a                   8.020(1)
_cell_length_b                   9.537(1)
_cell_length_c                   20.00(1)
_cell_angle_alpha                80.07(1)
_cell_angle_beta                 81.15(1)
_cell_angle_gamma                79.44(1)
_cell_volume                     1469.45
loop_
_atom_site_label
_atom_site_type_symbol
_atom_site_fract_x
_atom_site_fract_y
_atom_site_fract_z
Cu1 Cu 0.88014(8) 0.72823(7) 0.25584(3)
Cu2 Cu 0.44107(8) 1.75254(6) 0.30226(3)
Sr1 Sr 0.44503(6) 1.13876(5) 0.40542(2)
C1 C 0.8232(7) 0.5882(7) 0.1499(3)
C2 C 0.8482(9) 0.4589(7) 0.1206(3)
H1 H 0.9016 0.3735 0.1437
C3 C 0.7951(8) 0.4586(8) 0.0591(3)
H2 H 0.8128 0.3728 0.0410
C4 C 0.7160(9) 0.5827(7) 0.0233(3)
H3 H 0.6818 0.5817 -0.0190
C5 C 0.6885(9) 0.7073(7) 0.0509(3)
H4 H 0.6332 0.7908 0.0269
C6 C 0.7402(7) 0.7151(7) 0.1142(3)
C7 C 0.7021(7) 0.8552(6) 0.1392(3)
C8 C 0.7014(7) 1.0104(5) 0.2230(2)
H5 H 0.5784 1.0400 0.2296
H6 H 0.7504 1.0829 0.1895
C9 C 0.7717(7) 0.9997(6) 0.2903(3)
C10 C 0.9630(6) 0.8425(5) 0.3649(3)
H7 H 0.8814 0.8514 0.4057
H8 H 1.0445 0.9071 0.3630
C11 C 1.0549(7) 0.6886(6) 0.3670(3)
C12 C 0.6137(7) 0.9852(6) 0.0947(3)
H9 H 0.6047 1.0699 0.1158
H10 H 0.5014 0.9696 0.0901
H11 H 0.6793 0.9981 0.0504
C13 C 0.2508(6) 1.8874(6) 0.1940(2)
C14 C 0.1671(7) 2.0147(6) 0.1591(3)
H12 H 0.1555 2.1001 0.1771
C15 C 0.1020(7) 2.0177(6) 0.0995(3)
H13 H 0.0481 2.1041 0.0773
C16 C 0.1163(7) 1.8929(6) 0.0726(3)
H14 H 0.0733 1.8943 0.0318
C17 C 0.1944(7) 1.7659(6) 0.1059(2)
H15 H 0.2014 1.6818 0.0873
C18 C 0.2645(6) 1.7569(5) 0.1674(2)
C19 C 0.3474(6) 1.6160(5) 0.1990(2)
C20 C 0.4976(6) 1.4629(5) 0.2862(2)
H16 H 0.5943 1.4213 0.2564
H17 H 0.4132 1.3989 0.2948
C21 C 0.5564(6) 1.4738(5) 0.3534(2)
C22 C 0.5910(6) 1.6468(5) 0.4230(2)
H18 H 0.7112 1.6229 0.4291
H19 H 0.5263 1.5947 0.4612
C23 C 0.5322(6) 1.8070(5) 0.4205(2)
C24 C 0.3346(7) 1.4839(5) 0.1687(3)
H20 H 0.3721 1.3986 0.1993
H21 H 0.4055 1.4837 0.1254
H22 H 0.2180 1.4856 0.1622
N1 N 0.7418(5) 0.8709(5) 0.1974(2)
N2 N 0.8758(5) 0.8796(4) 0.3052(2)
N3 N 0.4235(5) 1.6034(4) 0.25176(18)
N4 N 0.5645(5) 1.6075(4) 0.35963(18)
O1 O 0.8783(5) 0.5763(4) 0.20886(17)
O2 O 0.7248(4) 1.1029(4) 0.32449(17)
O3 O 1.0224(4) 0.6181(3) 0.32380(17)
O4 O 1.1515(5) 0.6407(4) 0.41053(19)
O5 O 0.3121(4) 1.9002(3) 0.24964(16)
O6 O 0.5882(4) 1.3619(3) 0.39516(15)
O7 O 0.4683(4) 1.8760(3) 0.36760(15)
O8 O 0.5485(4) 1.8677(3) 0.46830(15)
O9 O 0.1731(4) 1.0418(4) 0.45649(17)
H23 H 0.0935 1.1120 0.4633
H24 H 0.1891 0.9883 0.4943
O10 O 0.1981(4) 1.3443(3) 0.41730(19)
H25 H 0.2161 1.4106 0.4374
H26 H 0.1376 1.3812 0.3854
O11 O 0.2963(4) 1.1610(3) 0.29730(15)
H27 H 0.3055 1.0673 0.2940
H28 H 0.2703 1.2403 0.2778
O7_2 O 0.4683(4) 0.8760(3) 0.36760(15)
O8_2 O 0.5485(4) 0.8677(3) 0.46830(15)
O8A O 0.4515(4) 1.1323(3) 0.53170(15)
Sr1_2 Sr 0.44503(6) 2.13876(5) 0.40542(2)
Sr1A Sr 0.55497(6) 1.86124(5) 0.59458(2)
O12 O 0.1439(4) 0.7613(4) 0.52429(17)
H29 H 0.1862 0.7015 0.4968
H30 H 0.1980 0.7427 0.5589
O13 O 0.9694(5) 0.2985(4) 0.2928(2)
H31 H 0.9260 0.2215 0.3002
H32 H 0.9962 0.3214 0.2500
loop_
_geom_bond_atom_site_label_1
_geom_bond_atom_site_label_2
_geom_bond_site_symmetry_1
_geom_bond_site_symmetry_2
Cu1 N1 1_555 1_555
Cu2 N3 1_555 1_555
Sr1 O2 1_555 1_555
C1 C2 1_555 1_555
C2 H1 1_555 1_555
C3 C2 1_555 1_555
H2 C3 1_555 1_555
C4 C3 1_555 1_555
H3 C4 1_555 1_555
C5 C4 1_555 1_555
H4 C5 1_555 1_555
C6 C1 1_555 1_555
C7 C6 1_555 1_555
C8 H5 1_555 1_555
H6 C8 1_555 1_555
C9 C8 1_555 1_555
C10 H7 1_555 1_555
H8 C10 1_555 1_555
C11 C10 1_555 1_555
C12 C7 1_555 1_555
H9 C12 1_555 1_555
H10 C12 1_555 1_555
H11 C12 1_555 1_555
C13 C14 1_555 1_555
C14 H12 1_555 1_555
C15 C14 1_555 1_555
H13 C15 1_555 1_555
C16 C15 1_555 1_555
H14 C16 1_555 1_555
C17 C16 1_555 1_555
H15 C17 1_555 1_555
C18 C13 1_555 1_555
C19 C18 1_555 1_555
C20 H16 1_555 1_555
H17 C20 1_555 1_555
C21 C20 1_555 1_555
C22 H18 1_555 1_555
H19 C22 1_555 1_555
C23 C22 1_555 1_555
C24 C19 1_555 1_555
H20 C24 1_555 1_555
H21 C24 1_555 1_555
H22 C24 1_555 1_555
N1 C7 1_555 1_555
N2 Cu1 1_555 1_555
N3 C19 1_555 1_555
N4 Cu2 1_555 1_555
O1 Cu1 1_555 1_555
O2 C9 1_555 1_555
O3 Cu1 1_555 1_555
O4 C11 1_555 1_555
O5 Cu2 1_555 1_555
O6 Sr1 1_555 1_555
O7 Cu2 1_555 1_555
O8 C23 1_555 1_555
O9 Sr1 1_555 1_555
H23 O9 1_555 1_555
H24 O9 1_555 1_555
O10 Sr1 1_555 1_555
H25 O10 1_555 1_555
H26 O10 1_555 1_555
O11 Sr1 1_555 1_555
H27 O11 1_555 1_555
H28 O11 1_555 1_555
O12 H29 1_555 1_555
H30 O12 1_555 1_555
O13 H31 1_555 1_555
H32 O13 1_555 1_555
O7_2 Sr1 1_555 1_555
O8_2 Sr1 1_555 1_555
O8A Sr1 1_555 1_555
Sr1_2 O7 1_555 1_555
Sr1A O8 1_555 1_555
C1 O1 1_555 1_555
C5 C6 1_555 1_555
C8 N1 1_555 1_555
C9 N2 1_555 1_555
C10 N2 1_555 1_555
C11 O3 1_555 1_555
C13 O5 1_555 1_555
C17 C18 1_555 1_555
C20 N3 1_555 1_555
C21 N4 1_555 1_555
C21 O6 1_555 1_555
C22 N4 1_555 1_555
C23 O7 1_555 1_555
O8 Sr1_2 1_555 1_555

#END
