
#######################################################################
#
#                 Cambridge Crystallographic Data Centre
#                                CCDC 
#
#######################################################################
#
# If this CIF has been generated from an entry in the Cambridge 
# Structural Database, then it will include bibliographic, chemical, 
# crystal, experimental, refinement or atomic coordinate data resulting 
# from the CCDC's data processing and validation procedures.
#
#######################################################################

data_LAGCIH
_symmetry_cell_setting           trigonal
_symmetry_space_group_name_H-M   'P -3'
_symmetry_Int_Tables_number      147
_space_group_name_Hall           '-P 3'
loop_
_symmetry_equiv_pos_site_id
_symmetry_equiv_pos_as_xyz
1 x,y,z
2 -y,x-y,z
3 -x+y,-x,z
4 -x,-y,-z
5 y,-x+y,-z
6 x-y,x,-z
_cell_length_a                   15.4572(14)
_cell_length_b                   15.4572(14)
_cell_length_c                   16.483(3)
_cell_angle_alpha                90
_cell_angle_beta                 90
_cell_angle_gamma                120
_cell_volume                     3410.58
loop_
_atom_site_label
_atom_site_type_symbol
_atom_site_fract_x
_atom_site_fract_y
_atom_site_fract_z
C1 C 0.8613(3) 0.4024(3) 0.25836(19)
C2 C 0.9111(3) 0.4812(3) 0.2020(2)
H1 H 0.9730 0.5348 0.2163
C3 C 0.8713(3) 0.4828(3) 0.1245(2)
C4 C 0.9369(3) 0.5576(3) 0.0619(2)
C5 C 0.9008(3) 0.5443(4) -0.0160(2)
H2 H 0.8383 0.4900 -0.0278
C6 C 1.0287(4) 0.6372(4) 0.0789(3)
H3 H 1.0534 0.6474 0.1316
C7 C 0.9557(3) 0.6100(4) -0.0771(3)
H4 H 0.9301 0.6007 -0.1295
C8 C 1.0855(4) 0.7032(5) 0.0175(3)
H5 H 1.1487 0.7568 0.0288
C9 C 1.0476(3) 0.6885(4) -0.0598(3)
C10 C 1.1071(3) 0.7569(4) -0.1235(3)
C11 C 0.9169(3) 0.4011(3) 0.3325(2)
C12 C 0.8612(3) 0.3529(3) 0.4007(2)
H6 H 0.7919 0.3228 0.3994
C13 C 1.0199(3) 0.4443(4) 0.3343(2)
H7 H 1.0574 0.4769 0.2885
C14 C 0.9086(3) 0.3495(3) 0.4708(2)
H8 H 0.8716 0.3182 0.5170
C15 C 1.0669(4) 0.4390(4) 0.4034(3)
H9 H 1.1359 0.4664 0.4040
C16 C 1.0116(3) 0.3932(3) 0.4716(2)
C17 C 1.0608(3) 0.3903(3) 0.5446(2)
N1 N 1.1017(3) 0.3917(3) 0.6021(2)
N2 N 1.1519(3) 0.8085(3) -0.1741(2)
O1 O 0.77250(18) 0.33075(18) 0.25188(13)
O2 O 0.78343(18) 0.42346(19) 0.10268(13)
Zn1 Zn 0.6667 0.3333 0.17608(4)
Ag1 Ag 0.86569(3) 0.59631(3) 0.268041(19)
C1B C 0.5411(4) 0.1387(3) 0.25836(19)
C1A C 0.5976(3) 0.4589(4) 0.25836(19)
C2B C 0.5701(4) 0.0889(3) 0.2020(2)
C2A C 0.5188(3) 0.4299(4) 0.2020(2)
H1B H 0.5618 0.0270 0.2163
H1A H 0.4652 0.4382 0.2163
C3B C 0.6115(4) 0.1287(3) 0.1245(2)
C3A C 0.5172(3) 0.3885(4) 0.1245(2)
C4B C 0.6207(4) 0.0631(3) 0.0619(2)
C4A C 0.4424(3) 0.3793(4) 0.0619(2)
C5B C 0.6435(5) 0.0992(3) -0.0160(2)
C5A C 0.4557(4) 0.3565(5) -0.0160(2)
H2B H 0.6517 0.1617 -0.0278
H2A H 0.5100 0.3483 -0.0278
C6B C 0.6085(6) -0.0287(4) 0.0789(3)
C6A C 0.3628(4) 0.3915(6) 0.0789(3)
H3B H 0.5940 -0.0534 0.1316
H3A H 0.3526 0.4060 0.1316
C7B C 0.6543(5) 0.0443(3) -0.0771(3)
C7A C 0.3900(4) 0.3457(5) -0.0771(3)
H4B H 0.6706 0.0699 -0.1295
H4A H 0.3993 0.3294 -0.1295
C8B C 0.6177(6) -0.0855(4) 0.0175(3)
C8A C 0.2968(5) 0.3823(6) 0.0175(3)
H5B H 0.6081 -0.1487 0.0288
H5A H 0.2432 0.3919 0.0288
C9B C 0.6409(5) -0.0476(3) -0.0598(3)
C9A C 0.3115(4) 0.3591(5) -0.0598(3)
C10B C 0.6498(5) -0.1071(3) -0.1235(3)
C10A C 0.2431(4) 0.3502(5) -0.1235(3)
C11B C 0.4842(4) 0.0831(3) 0.3325(2)
C11A C 0.5989(3) 0.5158(4) 0.3325(2)
C12B C 0.4917(4) 0.1388(3) 0.4007(2)
C12A C 0.6471(3) 0.5083(4) 0.4007(2)
H6B H 0.5309 0.2081 0.3994
H6A H 0.6772 0.4691 0.3994
C13B C 0.4244(5) -0.0199(3) 0.3343(2)
C13A C 0.5557(4) 0.5756(5) 0.3343(2)
H7B H 0.4195 -0.0574 0.2885
H7A H 0.5231 0.5805 0.2885
C14B C 0.4409(4) 0.0914(3) 0.4708(2)
C14A C 0.6505(3) 0.5591(4) 0.4708(2)
H8B H 0.4466 0.1284 0.5170
H8A H 0.6818 0.5534 0.5170
C15B C 0.3721(6) -0.0669(4) 0.4034(3)
C15A C 0.5610(4) 0.6279(6) 0.4034(3)
H9B H 0.3305 -0.1359 0.4040
H9A H 0.5336 0.6695 0.4040
C16B C 0.3816(4) -0.0116(3) 0.4716(2)
C16A C 0.6068(3) 0.6184(4) 0.4716(2)
C17B C 0.3295(4) -0.0608(3) 0.5446(2)
C17A C 0.6097(3) 0.6705(4) 0.5446(2)
N1B N 0.2900(4) -0.1017(3) 0.6021(2)
N1A N 0.6083(3) 0.7100(4) 0.6021(2)
N1C N 0.8983(3) 0.6083(3) 0.3979(2)
N1E N 0.7100(4) 0.1017(3) 0.3979(2)
N1D N 0.3917(3) 0.2900(4) 0.3979(2)
N2B N 0.6566(4) -0.1519(3) -0.1741(2)
N2A N 0.1915(3) 0.3434(4) -0.1741(2)
N2D N 0.8085(3) 0.6566(4) 0.1741(2)
N2C N 0.8481(3) 0.1915(3) 0.1741(2)
N2E N 0.3434(4) 0.1519(3) 0.1741(2)
O1B O 0.55825(25) 0.22750(18) 0.25188(13)
O1A O 0.66925(18) 0.44175(25) 0.25188(13)
O2B O 0.64003(26) 0.21657(18) 0.10268(13)
O2A O 0.57654(19) 0.35997(26) 0.10268(13)
Ag1B Ag 0.73062(4) 0.13431(3) 0.268041(19)
Ag1A Ag 0.40369(3) 0.26938(4) 0.268041(19)
Ag1C Ag 1.13431(3) 0.40369(3) 0.731959(19)
Ag1E Ag 1.26938(4) 0.86569(3) -0.268041(19)
Ag1E_2 Ag 0.26938(4) -0.13431(3) 0.731959(19)
Ag1D Ag 0.59631(3) -0.26938(4) -0.268041(19)
Ag1D_2 Ag 0.59631(3) 0.73062(4) 0.731959(19)
Ag1C_2 Ag 0.13431(3) 0.40369(3) -0.268041(19)
O3 O 1.0402(4) 0.7659(5) 0.2567(3)
O4 O 1.1374(4) 0.8148(5) 0.3710(3)
O5 O 1.2099(4) 0.8435(5) 0.2453(3)
O6 O 1.1225(6) 0.6846(5) 0.2945(5)
Cl1 Cl 1.12788(17) 0.7781(2) 0.29219(13)
loop_
_geom_bond_atom_site_label_1
_geom_bond_atom_site_label_2
_geom_bond_site_symmetry_1
_geom_bond_site_symmetry_2
C1 C2 1_555 1_555
C2 H1 1_555 1_555
C3 C2 1_555 1_555
C4 C3 1_555 1_555
C5 C4 1_555 1_555
H2 C5 1_555 1_555
C6 C4 1_555 1_555
H3 C6 1_555 1_555
C7 C5 1_555 1_555
H4 C7 1_555 1_555
C8 C6 1_555 1_555
H5 C8 1_555 1_555
C9 C7 1_555 1_555
C10 C9 1_555 1_555
C11 C1 1_555 1_555
C12 C11 1_555 1_555
H6 C12 1_555 1_555
C13 C11 1_555 1_555
H7 C13 1_555 1_555
C14 C12 1_555 1_555
H8 C14 1_555 1_555
C15 C13 1_555 1_555
H9 C15 1_555 1_555
C16 C14 1_555 1_555
C17 C16 1_555 1_555
N1 C17 1_555 1_555
N2 C10 1_555 1_555
O1 C1 1_555 1_555
O2 C3 1_555 1_555
O3 Cl1 1_555 1_555
O4 Cl1 1_555 1_555
O5 Cl1 1_555 1_555
O6 Cl1 1_555 1_555
Zn1 O1 1_555 1_555
Ag1 C2 1_555 1_555
C1B C2B 1_555 1_555
C1A C2A 1_555 1_555
C2B H1B 1_555 1_555
C2A H1A 1_555 1_555
C3B C2B 1_555 1_555
C3A C2A 1_555 1_555
C4B C3B 1_555 1_555
C4A C3A 1_555 1_555
C5B C4B 1_555 1_555
C5A C4A 1_555 1_555
H2B C5B 1_555 1_555
H2A C5A 1_555 1_555
C6B C4B 1_555 1_555
C6A C4A 1_555 1_555
H3B C6B 1_555 1_555
H3A C6A 1_555 1_555
C7B C5B 1_555 1_555
C7A C5A 1_555 1_555
H4B C7B 1_555 1_555
H4A C7A 1_555 1_555
C8B C6B 1_555 1_555
C8A C6A 1_555 1_555
H5B C8B 1_555 1_555
H5A C8A 1_555 1_555
C9B C7B 1_555 1_555
C9A C7A 1_555 1_555
C10B C9B 1_555 1_555
C10A C9A 1_555 1_555
C11B C1B 1_555 1_555
C11A C1A 1_555 1_555
C12B C11B 1_555 1_555
C12A C11A 1_555 1_555
H6B C12B 1_555 1_555
H6A C12A 1_555 1_555
C13B C11B 1_555 1_555
C13A C11A 1_555 1_555
H7B C13B 1_555 1_555
H7A C13A 1_555 1_555
C14B C12B 1_555 1_555
C14A C12A 1_555 1_555
H8B C14B 1_555 1_555
H8A C14A 1_555 1_555
C15B C13B 1_555 1_555
C15A C13A 1_555 1_555
H9B C15B 1_555 1_555
H9A C15A 1_555 1_555
C16B C14B 1_555 1_555
C16A C14A 1_555 1_555
C17B C16B 1_555 1_555
C17A C16A 1_555 1_555
N1B C17B 1_555 1_555
N1A C17A 1_555 1_555
N1C Ag1 1_555 1_555
N1E Ag1B 1_555 1_555
N1D Ag1A 1_555 1_555
N2B C10B 1_555 1_555
N2A C10A 1_555 1_555
N2D Ag1 1_555 1_555
N2C Ag1B 1_555 1_555
N2E Ag1A 1_555 1_555
O1B Zn1 1_555 1_555
O1A Zn1 1_555 1_555
O2B Zn1 1_555 1_555
O2A Zn1 1_555 1_555
Ag1B C2B 1_555 1_555
Ag1A C2A 1_555 1_555
Ag1C N1 1_555 1_555
Ag1E N2 1_555 1_555
Ag1E_2 N1B 1_555 1_555
Ag1D N2B 1_555 1_555
Ag1D_2 N1A 1_555 1_555
Ag1C_2 N2A 1_555 1_555
C8 C9 1_555 1_555
C15 C16 1_555 1_555
O2 Zn1 1_555 1_555
C1B O1B 1_555 1_555
C1A O1A 1_555 1_555
C3B O2B 1_555 1_555
C3A O2A 1_555 1_555
C8B C9B 1_555 1_555
C8A C9A 1_555 1_555
C15B C16B 1_555 1_555
C15A C16A 1_555 1_555

#END
