
#######################################################################
#
#                 Cambridge Crystallographic Data Centre
#                                CCDC 
#
#######################################################################
#
# If this CIF has been generated from an entry in the Cambridge 
# Structural Database, then it will include bibliographic, chemical, 
# crystal, experimental, refinement or atomic coordinate data resulting 
# from the CCDC's data processing and validation procedures.
#
#######################################################################

data_LAGDEE
_symmetry_cell_setting           trigonal
_symmetry_space_group_name_H-M   'P -3'
_symmetry_Int_Tables_number      147
_space_group_name_Hall           '-P 3'
loop_
_symmetry_equiv_pos_site_id
_symmetry_equiv_pos_as_xyz
1 x,y,z
2 -y,x-y,z
3 -x+y,-x,z
4 -x,-y,-z
5 y,-x+y,-z
6 x-y,x,-z
_cell_length_a                   15.939(2)
_cell_length_b                   15.939(2)
_cell_length_c                   16.463(5)
_cell_angle_alpha                90
_cell_angle_beta                 90
_cell_angle_gamma                120
_cell_volume                     3622.11
loop_
_atom_site_label
_atom_site_type_symbol
_atom_site_fract_x
_atom_site_fract_y
_atom_site_fract_z
C1 C 0.8803(4) 0.3999(4) 0.8752(3)
C2 C 0.9152(4) 0.4363(4) 0.7962(3)
H1 H 0.9741 0.4425 0.7805
C3 C 0.8667(4) 0.4637(4) 0.7398(3)
C4 C 0.9220(4) 0.5210(4) 0.6642(3)
C5 C 0.8677(5) 0.5111(5) 0.5955(4)
H2 H 0.8007 0.4717 0.5965
C6 C 1.0218(5) 0.5758(5) 0.6626(4)
H3 H 1.0577 0.5794 0.7083
C7 C 0.9139(5) 0.5605(5) 0.5255(4)
H4 H 0.8782 0.5550 0.4791
C8 C 1.0684(6) 0.6256(6) 0.5924(4)
H5 H 1.1355 0.6635 0.5911
C9 C 1.0144(5) 0.6185(5) 0.5250(4)
C10 C 1.0637(5) 0.6668(5) 0.4518(4)
C11 C 0.9477(4) 0.3891(4) 0.9356(3)
C12 C 0.9100(5) 0.3582(5) 1.0128(4)
H6 H 0.8474 0.3442 1.0250
C13 C 1.0415(6) 0.4140(9) 0.9197(5)
H7 H 1.0683 0.4391 0.8691
C14 C 0.9660(5) 0.3485(6) 1.0710(4)
H8 H 0.9403 0.3265 1.1225
C15 C 1.0968(6) 0.4019(9) 0.9787(5)
H9 H 1.1592 0.4151 0.9667
C16 C 1.0585(5) 0.3704(5) 1.0551(4)
C17 C 1.1168(5) 0.3639(5) 1.1165(4)
N1 N 1.1641(5) 0.3588(4) 1.1662(4)
N2 N 1.1028(5) 0.7054(5) 0.3943(3)
O1 O 0.7979(3) 0.3761(3) 0.9013(2)
O2 O 0.7821(3) 0.4479(3) 0.7448(2)
Ag1 Ag 0.86175(5) 0.27235(4) 0.73560(3)
Cd1 Cd 0.6667 0.3333 0.82592(4)
C1A C 0.6001(4) 0.4804(6) 0.8752(3)
C1B C 0.5196(6) 0.1197(4) 0.8752(3)
C2A C 0.5637(4) 0.4789(6) 0.7962(3)
C2B C 0.5211(6) 0.0848(4) 0.7962(3)
H1A H 0.5575 0.5316 0.7805
H1B H 0.4684 0.0259 0.7805
C3A C 0.5363(4) 0.4030(6) 0.7398(3)
C3B C 0.5970(6) 0.1333(4) 0.7398(3)
C4A C 0.4790(4) 0.4010(6) 0.6642(3)
C4B C 0.5990(6) 0.0780(4) 0.6642(3)
C5A C 0.4889(5) 0.3566(7) 0.5955(4)
C5B C 0.6434(7) 0.1323(5) 0.5955(4)
H2A H 0.5283 0.3290 0.5965
H2B H 0.6710 0.1993 0.5965
C6A C 0.4242(5) 0.4460(7) 0.6626(4)
C6B C 0.5540(7) -0.0218(5) 0.6626(4)
H3A H 0.4206 0.4783 0.7083
H3B H 0.5217 -0.0577 0.7083
C7A C 0.4395(5) 0.3534(7) 0.5255(4)
C7B C 0.6466(7) 0.0861(5) 0.5255(4)
H4A H 0.4450 0.3232 0.4791
H4B H 0.6768 0.1218 0.4791
C8A C 0.3744(6) 0.4428(8) 0.5924(4)
C8B C 0.5572(8) -0.0684(6) 0.5924(4)
H5A H 0.3365 0.4720 0.5911
H5B H 0.5280 -0.1355 0.5911
C9A C 0.3815(5) 0.3959(7) 0.5250(4)
C9B C 0.6041(7) -0.0144(5) 0.5250(4)
C10A C 0.3332(5) 0.3969(7) 0.4518(4)
C10B C 0.6031(7) -0.0637(5) 0.4518(4)
C11A C 0.6109(4) 0.5586(6) 0.9356(3)
C11B C 0.4414(6) 0.0523(4) 0.9356(3)
C12A C 0.6418(5) 0.5518(7) 1.0128(4)
C12B C 0.4482(7) 0.0900(5) 1.0128(4)
H6A H 0.6558 0.5032 1.0250
H6B H 0.4968 0.1526 1.0250
C13A C 0.5860(9) 0.6275(11) 0.9197(5)
C13B C 0.3725(11) -0.0415(6) 0.9197(5)
H7A H 0.5609 0.6292 0.8691
H7B H 0.3708 -0.0683 0.8691
C14A C 0.6515(6) 0.6175(8) 1.0710(4)
C14B C 0.3825(8) 0.0340(5) 1.0710(4)
H8A H 0.6735 0.6138 1.1225
H8B H 0.3862 0.0597 1.1225
C15A C 0.5981(9) 0.6949(11) 0.9787(5)
C15B C 0.3051(11) -0.0968(6) 0.9787(5)
H9A H 0.5849 0.7441 0.9667
H9B H 0.2559 -0.1592 0.9667
C16A C 0.6296(5) 0.6881(7) 1.0551(4)
C16B C 0.3119(7) -0.0585(5) 1.0551(4)
C17A C 0.6361(5) 0.7529(7) 1.1165(4)
C17B C 0.2471(7) -0.1168(5) 1.1165(4)
N1A N 0.6412(4) 0.8053(6) 1.1662(4)
N1B N 0.1947(6) -0.1641(5) 1.1662(4)
N1E N 0.8053(6) 0.1641(5) 0.8338(4)
N1C N 0.8359(5) 0.6412(4) 0.8338(4)
N1D N 0.3588(4) 0.1947(6) 0.8338(4)
N2A N 0.2946(5) 0.3974(7) 0.3943(3)
N2B N 0.6026(7) -0.1028(5) 0.3943(3)
N2C N 0.8972(5) 0.2946(5) 0.6057(3)
N2D N 0.7054(5) 0.6026(7) 0.6057(3)
N2E N 0.3974(7) 0.1028(5) 0.6057(3)
O1A O 0.6239(3) 0.4218(4) 0.9013(2)
O1B O 0.5782(4) 0.2021(3) 0.9013(2)
O2A O 0.5521(3) 0.3342(4) 0.7448(2)
O2B O 0.6658(4) 0.2179(3) 0.7448(2)
Ag1A Ag 0.72765(4) 0.58940(6) 0.73560(3)
Ag1B Ag 0.41060(6) 0.13825(5) 0.73560(3)
Ag1D Ag 1.27235(4) 0.41060(6) 1.26440(3)
Ag1C Ag 1.13825(5) 0.72765(4) 0.26440(3)
Ag1E Ag 0.58940(6) 0.86175(5) 1.26440(3)
Ag1D_2 Ag 0.27235(4) 0.41060(6) 0.26440(3)
Ag1C_2 Ag 0.13825(5) -0.27235(4) 1.26440(3)
Ag1E_2 Ag 0.58940(6) -0.13825(5) 0.26440(3)
B1 B 1.1410(8) 0.3931(10) 0.7230(5)
F1 F 1.0575(8) 0.3127(11) 0.7487(7)
F2 F 1.1321(12) 0.4740(11) 0.7319(9)
F3 F 1.1557(10) 0.3822(14) 0.6428(6)
F4 F 1.2186(8) 0.4052(10) 0.7675(6)
loop_
_geom_bond_atom_site_label_1
_geom_bond_atom_site_label_2
_geom_bond_site_symmetry_1
_geom_bond_site_symmetry_2
C1 C2 1_555 1_555
C2 H1 1_555 1_555
C3 C2 1_555 1_555
C4 C3 1_555 1_555
C5 C4 1_555 1_555
H2 C5 1_555 1_555
C6 C4 1_555 1_555
H3 C6 1_555 1_555
C7 C5 1_555 1_555
H4 C7 1_555 1_555
C8 C6 1_555 1_555
H5 C8 1_555 1_555
C9 C7 1_555 1_555
C10 C9 1_555 1_555
C11 C1 1_555 1_555
C12 C11 1_555 1_555
H6 C12 1_555 1_555
C13 C11 1_555 1_555
H7 C13 1_555 1_555
C14 C12 1_555 1_555
H8 C14 1_555 1_555
C15 C13 1_555 1_555
H9 C15 1_555 1_555
C16 C14 1_555 1_555
C17 C16 1_555 1_555
N1 C17 1_555 1_555
N2 C10 1_555 1_555
O1 C1 1_555 1_555
O2 C3 1_555 1_555
Ag1 C2 1_555 1_555
Cd1 O1 1_555 1_555
B1 F1 1_555 1_555
F2 B1 1_555 1_555
F3 B1 1_555 1_555
F4 B1 1_555 1_555
C1A C2A 1_555 1_555
C1B C2B 1_555 1_555
C2A H1A 1_555 1_555
C2B H1B 1_555 1_555
C3A C2A 1_555 1_555
C3B C2B 1_555 1_555
C4A C3A 1_555 1_555
C4B C3B 1_555 1_555
C5A C4A 1_555 1_555
C5B C4B 1_555 1_555
H2A C5A 1_555 1_555
H2B C5B 1_555 1_555
C6A C4A 1_555 1_555
C6B C4B 1_555 1_555
H3A C6A 1_555 1_555
H3B C6B 1_555 1_555
C7A C5A 1_555 1_555
C7B C5B 1_555 1_555
H4A C7A 1_555 1_555
H4B C7B 1_555 1_555
C8A C6A 1_555 1_555
C8B C6B 1_555 1_555
H5A C8A 1_555 1_555
H5B C8B 1_555 1_555
C9A C7A 1_555 1_555
C9B C7B 1_555 1_555
C10A C9A 1_555 1_555
C10B C9B 1_555 1_555
C11A C1A 1_555 1_555
C11B C1B 1_555 1_555
C12A C11A 1_555 1_555
C12B C11B 1_555 1_555
H6A C12A 1_555 1_555
H6B C12B 1_555 1_555
C13A C11A 1_555 1_555
C13B C11B 1_555 1_555
H7A C13A 1_555 1_555
H7B C13B 1_555 1_555
C14A C12A 1_555 1_555
C14B C12B 1_555 1_555
H8A C14A 1_555 1_555
H8B C14B 1_555 1_555
C15A C13A 1_555 1_555
C15B C13B 1_555 1_555
H9A C15A 1_555 1_555
H9B C15B 1_555 1_555
C16A C14A 1_555 1_555
C16B C14B 1_555 1_555
C17A C16A 1_555 1_555
C17B C16B 1_555 1_555
N1A C17A 1_555 1_555
N1B C17B 1_555 1_555
N1E Ag1 1_555 1_555
N1C Ag1A 1_555 1_555
N1D Ag1B 1_555 1_555
N2A C10A 1_555 1_555
N2B C10B 1_555 1_555
N2C Ag1 1_555 1_555
N2D Ag1A 1_555 1_555
N2E Ag1B 1_555 1_555
O1A Cd1 1_555 1_555
O1B Cd1 1_555 1_555
O2A Cd1 1_555 1_555
O2B Cd1 1_555 1_555
Ag1A C2A 1_555 1_555
Ag1B C2B 1_555 1_555
Ag1D N1 1_555 1_555
Ag1C N2 1_555 1_555
Ag1E N1A 1_555 1_555
Ag1D_2 N2A 1_555 1_555
Ag1C_2 N1B 1_555 1_555
Ag1E_2 N2B 1_555 1_555
C8 C9 1_555 1_555
C15 C16 1_555 1_555
O2 Cd1 1_555 1_555
C1A O1A 1_555 1_555
C1B O1B 1_555 1_555
C3A O2A 1_555 1_555
C3B O2B 1_555 1_555
C8A C9A 1_555 1_555
C8B C9B 1_555 1_555
C15A C16A 1_555 1_555
C15B C16B 1_555 1_555

#END
