
#######################################################################
#
#                 Cambridge Crystallographic Data Centre
#                                CCDC 
#
#######################################################################
#
# If this CIF has been generated from an entry in the Cambridge 
# Structural Database, then it will include bibliographic, chemical, 
# crystal, experimental, refinement or atomic coordinate data resulting 
# from the CCDC's data processing and validation procedures.
#
#######################################################################

data_LAGKUA
_symmetry_cell_setting           orthorhombic
_symmetry_space_group_name_H-M   'P b c a'
_symmetry_Int_Tables_number      61
_space_group_name_Hall           '-P 2ac 2ab'
loop_
_symmetry_equiv_pos_site_id
_symmetry_equiv_pos_as_xyz
1 x,y,z
2 1/2+x,y,1/2-z
3 x,1/2-y,1/2+z
4 1/2-x,1/2+y,z
5 -x,-y,-z
6 1/2-x,-y,1/2+z
7 -x,1/2+y,1/2-z
8 1/2+x,1/2-y,-z
_cell_length_a                   16.6518(4)
_cell_length_b                   14.0862(5)
_cell_length_c                   22.7124(4)
_cell_angle_alpha                90
_cell_angle_beta                 90
_cell_angle_gamma                90
_cell_volume                     5327.43
loop_
_atom_site_label
_atom_site_type_symbol
_atom_site_fract_x
_atom_site_fract_y
_atom_site_fract_z
Cd1 Cd 0.151828(18) 0.58173(2) 0.148942(12)
Cd2 Cd 0.596700(17) 0.76364(2) 0.438010(13)
Cd3 Cd 0.079930(18) 0.65464(2) -0.285480(13)
C1 C 0.2530(2) 0.5982(3) 0.32291(16)
C2 C 0.3368(2) 0.5991(3) 0.32689(17)
H1 H 0.3678 0.5884 0.2935
C3 C 0.3740(2) 0.6160(3) 0.38102(17)
C4 C 0.3271(2) 0.6320(3) 0.43044(17)
H2 H 0.3518 0.6431 0.4665
C5 C 0.2435(2) 0.6316(3) 0.42689(16)
C6 C 0.2068(2) 0.6145(3) 0.37311(17)
H3 H 0.1511 0.6140 0.3705
C7 C 0.2135(2) 0.5831(3) 0.26409(17)
C8 C 0.4642(2) 0.6247(3) 0.38691(18)
C9 C 0.1955(2) 0.6572(3) 0.48026(18)
C10 C 0.2240(2) 0.6342(3) -0.12732(17)
C11 C 0.3047(2) 0.6395(3) -0.14106(17)
H4 H 0.3205 0.6495 -0.1799
C12 C 0.3624(2) 0.6301(3) -0.09745(17)
C13 C 0.3398(2) 0.6154(3) -0.03961(17)
H5 H 0.3784 0.6077 -0.0104
C14 C 0.2583(2) 0.6122(3) -0.02554(16)
C15 C 0.2011(2) 0.6206(3) -0.06894(18)
H6 H 0.1469 0.6173 -0.0592
C16 C 0.1610(3) 0.6442(3) -0.17477(19)
C17 C 0.4496(3) 0.6412(3) -0.11337(19)
C18 C 0.2323(3) 0.6020(3) 0.03708(17)
C19 C 0.0719(3) 0.4053(3) 0.0864(2)
H7 H 0.0774 0.4412 0.0502
H8 H 0.0248 0.4288 0.1069
C20 C 0.0590(3) 0.3018(4) 0.0713(2)
H9 H 0.0094 0.2948 0.0493
H10 H 0.1028 0.2794 0.0469
C21 C 0.1309(3) 0.2547(4) 0.1600(2)
H11 H 0.1758 0.2323 0.1365
H12 H 0.1284 0.2167 0.1956
C22 C 0.1433(3) 0.3583(3) 0.1759(2)
H13 H 0.1008 0.3782 0.2024
H14 H 0.1939 0.3650 0.1966
O1 O 0.13817(17) 0.5724(2) 0.26137(13)
O2 O 0.25582(18) 0.5832(2) 0.21774(12)
O3 O 0.50768(16) 0.5934(2) 0.34508(12)
O4 O 0.48946(17) 0.6636(2) 0.43216(13)
O5 O 0.22887(18) 0.6643(3) 0.52904(12)
O6 O 0.12117(17) 0.6757(2) 0.47298(13)
O7 O 0.08895(18) 0.6491(3) -0.16114(15)
O8 O 0.18621(19) 0.6456(3) -0.22793(13)
O9 O 0.46406(17) 0.6708(3) -0.16505(13)
O10 O 0.50262(16) 0.6220(2) -0.07585(14)
O11 O 0.2811(2) 0.5856(3) 0.07632(13)
O12 O 0.15709(18) 0.6121(2) 0.04750(12)
O13 O 0.1544(3) 0.5460(3) -0.34507(17)
H15 H 0.1730 0.5041 -0.3224
H16 H 0.1493 0.5064 -0.3797
O14 O 0.0125(2) 0.5198(3) -0.25504(17)
H17 H 0.0154 0.4960 -0.2158
O15 O 0.02092(19) 0.7925(2) -0.24146(13)
H18 H 0.0012 0.8199 -0.2719
O16 O 0.14415(16) 0.7421(2) 0.15147(12)
H19 H 0.1897 0.7616 0.1575
N1 N 0.1437(2) 0.4218(3) 0.12356(15)
H22 H 0.1895 0.4056 0.1062
N2 N 0.0549(2) 0.2442(3) 0.12617(17)
H23 H 0.0500 0.1777 0.1136
H24 H 0.0135 0.2718 0.1400
O3A O 0.00768(16) 0.5934(2) 0.15492(12)
O5G O 0.72887(18) 0.8357(3) 0.47096(12)
O6G O 0.62117(17) 0.8243(2) 0.52702(13)
O10B O 0.50262(16) 0.8780(2) 0.42415(14)
O12A O 0.65709(18) 0.6121(2) 0.45250(12)
O16A O 0.64415(16) 0.7421(2) 0.34853(12)
O9A O -0.03594(17) 0.6708(3) -0.33495(13)
O16B O 0.14415(16) 0.7579(2) -0.34853(12)
Cd1A Cd 0.651828(18) 0.58173(2) 0.351058(12)
Cd2G Cd 0.096700(17) 0.73636(2) 0.561990(13)
Cd3A Cd 0.579930(18) 0.65464(2) -0.214520(13)
Cd2B Cd 0.596700(17) 0.73636(2) -0.061990(13)
Cd2A Cd 0.096700(17) 0.76364(2) 0.061990(13)
Cd3B Cd 0.079930(18) 0.84536(2) 0.214520(13)
H19A H 0.6897 0.7616 0.3425
H19B H 0.1897 0.7384 -0.3425
O17 O 0.0056(2) 0.0784(3) 0.0780(2)
H20 H -0.0371 0.0980 0.0501
H21 H 0.0000 0.0184 0.0777
loop_
_geom_bond_atom_site_label_1
_geom_bond_atom_site_label_2
_geom_bond_site_symmetry_1
_geom_bond_site_symmetry_2
Cd1 O1 1_555 1_555
Cd2 O4 1_555 1_555
Cd3 O8 1_555 1_555
C1 C2 1_555 1_555
C2 H1 1_555 1_555
C3 C2 1_555 1_555
C4 C3 1_555 1_555
H2 C4 1_555 1_555
C5 C4 1_555 1_555
C6 C1 1_555 1_555
H3 C6 1_555 1_555
C7 C1 1_555 1_555
C8 C3 1_555 1_555
C9 C5 1_555 1_555
C10 C11 1_555 1_555
C11 H4 1_555 1_555
C12 C11 1_555 1_555
C13 C12 1_555 1_555
H5 C13 1_555 1_555
C14 C13 1_555 1_555
C15 C10 1_555 1_555
H6 C15 1_555 1_555
C16 C10 1_555 1_555
C17 C12 1_555 1_555
C18 C14 1_555 1_555
C19 H7 1_555 1_555
H8 C19 1_555 1_555
C20 C19 1_555 1_555
H9 C20 1_555 1_555
H10 C20 1_555 1_555
C21 H11 1_555 1_555
H12 C21 1_555 1_555
C22 C21 1_555 1_555
H13 C22 1_555 1_555
H14 C22 1_555 1_555
O1 C7 1_555 1_555
O2 Cd1 1_555 1_555
O3 C8 1_555 1_555
O4 C8 1_555 1_555
O5 C9 1_555 1_555
O6 C9 1_555 1_555
O7 C16 1_555 1_555
O8 C16 1_555 1_555
O9 C17 1_555 1_555
O10 C17 1_555 1_555
O11 C18 1_555 1_555
O12 Cd1 1_555 1_555
O13 Cd3 1_555 1_555
H15 O13 1_555 1_555
H16 O13 1_555 1_555
O14 Cd3 1_555 1_555
H17 O14 1_555 1_555
O15 Cd3 1_555 1_555
H18 O15 1_555 1_555
O16 Cd1 1_555 1_555
H19 O16 1_555 1_555
O17 H20 1_555 1_555
H21 O17 1_555 1_555
N1 Cd1 1_555 1_555
H22 N1 1_555 1_555
N2 C20 1_555 1_555
H23 N2 1_555 1_555
H24 N2 1_555 1_555
O3A Cd1 1_555 1_555
O5G Cd2 1_555 1_555
O6G Cd2 1_555 1_555
O10B Cd2 1_555 1_555
O12A Cd2 1_555 1_555
O16A Cd2 1_555 1_555
O9A Cd3 1_555 1_555
O16B Cd3 1_555 1_555
Cd1A O3 1_555 1_555
Cd2G O5 1_555 1_555
Cd3A O9 1_555 1_555
Cd2B O10 1_555 1_555
Cd2A O12 1_555 1_555
Cd3B O16 1_555 1_555
H19A O16A 1_555 1_555
H19B O16B 1_555 1_555
C5 C6 1_555 1_555
C7 O2 1_555 1_555
C14 C15 1_555 1_555
C18 O12 1_555 1_555
C19 N1 1_555 1_555
C21 N2 1_555 1_555
C22 N1 1_555 1_555
O6 Cd2G 1_555 1_555
O16 Cd2A 1_555 1_555
O12A Cd1A 1_555 1_555
O16A Cd1A 1_555 1_555

#END
