
#######################################################################
#
#                 Cambridge Crystallographic Data Centre
#                                CCDC 
#
#######################################################################
#
# If this CIF has been generated from an entry in the Cambridge 
# Structural Database, then it will include bibliographic, chemical, 
# crystal, experimental, refinement or atomic coordinate data resulting 
# from the CCDC's data processing and validation procedures.
#
#######################################################################

data_LAGMUD
_symmetry_cell_setting           triclinic
_symmetry_space_group_name_H-M   'P -1'
_symmetry_Int_Tables_number      2
_space_group_name_Hall           '-P 1'
loop_
_symmetry_equiv_pos_site_id
_symmetry_equiv_pos_as_xyz
1 x,y,z
2 -x,-y,-z
_cell_length_a                   9.8196(3)
_cell_length_b                   10.3421(4)
_cell_length_c                   11.0133(3)
_cell_angle_alpha                77.278(2)
_cell_angle_beta                 76.398(2)
_cell_angle_gamma                65.793(2)
_cell_volume                     981.787
loop_
_atom_site_label
_atom_site_type_symbol
_atom_site_fract_x
_atom_site_fract_y
_atom_site_fract_z
Y1 Y 0.05613(4) 0.77233(3) 0.17594(3)
O1 O 0.1421(3) 0.9536(3) 0.1296(2)
O2 O 0.1157(3) 1.1003(3) -0.0520(2)
O3 O 0.1415(3) 0.6249(3) 0.3751(2)
O4 O 0.3159(3) 0.6502(3) 0.2179(3)
O5 O -0.1699(3) 0.7503(3) 0.3160(2)
O6 O -0.1153(3) 0.9353(3) 0.3225(2)
O7 O 0.1993(3) 0.7374(3) -0.0257(2)
O8 O 0.0471(3) 0.5670(3) 0.1317(2)
C1 C 0.3505(4) 1.0134(4) 0.0178(3)
C2 C 0.4105(4) 1.0842(4) -0.0911(3)
H1 H 0.3503 1.1403 -0.1516
C3 C 0.4408(4) 0.9293(4) 0.1084(4)
H2 H 0.4007 0.8822 0.1807
C4 C 0.1911(4) 1.0230(4) 0.0333(3)
C5 C 0.3924(4) 0.5515(4) 0.4194(3)
C6 C 0.5394(4) 0.5502(4) 0.3747(4)
H3 H 0.5655 0.5837 0.2905
C7 C 0.3550(4) 0.5001(4) 0.5458(3)
H4 H 0.2583 0.4999 0.5765
C8 C 0.2772(4) 0.6106(4) 0.3334(3)
C9 C -0.3558(4) 0.9340(4) 0.4328(3)
C10 C -0.3855(4) 1.0471(4) 0.4977(3)
H5 H -0.3091 1.0788 0.4961
C11 C -0.4719(4) 0.8879(4) 0.4358(3)
H6 H -0.4531 0.8130 0.3926
C12 C -0.2039(4) 0.8674(4) 0.3540(3)
C13 C 0.3287(4) 0.7279(4) -0.0813(3)
C14 C 0.5211(4) 0.7574(4) -0.2389(4)
H7 H 0.5347 0.8478 -0.2638
H8 H 0.5679 0.7008 -0.3078
C15 C 0.5871(4) 0.6760(4) -0.1178(4)
H9 H 0.6639 0.5824 -0.1315
H10 H 0.6302 0.7295 -0.0872
C16 C 0.0444(5) 0.2647(4) 0.3518(4)
H11 H -0.0109 0.2541 0.4364
H12 H 0.1455 0.1910 0.3470
C17 C -0.0384(5) 0.2598(4) 0.2535(4)
H13 H 0.0013 0.1653 0.2282
H14 H -0.1463 0.2883 0.2837
C18 C 0.0302(4) 0.4559(4) 0.1948(3)
N1 N 0.4551(4) 0.6645(4) -0.0317(3)
H15 H 0.4583 0.6209 0.0443
N2 N 0.3622(4) 0.7798(4) -0.2027(3)
H16 H 0.2969 0.8215 -0.2531
N3 N 0.0489(4) 0.4071(4) 0.3155(3)
H17 H 0.0618 0.4537 0.3647
N4 N -0.0048(4) 0.3650(4) 0.1505(3)
H18 H -0.0072 0.3677 0.0724
Y1A Y -1.05613(4) 1.22767(3) 0.82406(3)
Y1_2 Y 1.05613(4) 0.77233(3) 0.17594(3)
Y1A_2 Y -0.05613(4) 1.22767(3) -0.17594(3)
Y1A_3 Y 0.94387(4) 0.22767(3) 0.82406(3)
Y1A_4 Y 0.94387(4) 1.22767(3) -0.17594(3)
O1A O 0.8579(3) 1.0464(3) -0.1296(2)
O1A_2 O -1.1421(3) 1.0464(3) 0.8704(2)
O2A O 0.8843(3) 0.8997(3) 0.0520(2)
O2_2 O -0.8843(3) 1.1003(3) 0.9480(2)
O2A_2 O -0.1157(3) 0.8997(3) 0.0520(2)
O3A O 0.8585(3) 0.3751(3) 0.6249(2)
O3A_2 O -1.1415(3) 1.3751(3) 0.6249(2)
O4A O 0.6841(3) 0.3498(3) 0.7821(3)
O4A_2 O -1.3159(3) 1.3498(3) 0.7821(3)
O5A O -0.8301(3) 1.2497(3) 0.6840(2)
O6A O -0.8847(3) 1.0647(3) 0.6775(2)
O7A O -1.1993(3) 1.2626(3) 1.0257(2)
O8A O -1.0471(3) 1.4330(3) 0.8683(2)
C1A C 0.6495(4) 0.9866(4) -0.0178(3)
C2A C 0.5895(4) 0.9158(4) 0.0911(3)
H1A H 0.6497 0.8597 0.1516
C3A C 0.5592(4) 1.0707(4) -0.1084(4)
H2A H 0.5993 1.1178 -0.1807
C4A C 0.8089(4) 0.9770(4) -0.0333(3)
C5A C 0.6076(4) 0.4485(4) 0.5806(3)
C6A C 0.4606(4) 0.4498(4) 0.6253(4)
H3A H 0.4345 0.4163 0.7095
C7A C 0.6450(4) 0.4999(4) 0.4542(3)
H4A H 0.7417 0.5001 0.4235
C8A C 0.7228(4) 0.3894(4) 0.6666(3)
C8A_2 C -1.2772(4) 1.3894(4) 0.6666(3)
C9A C -0.6442(4) 1.0660(4) 0.5672(3)
C10A C -0.6145(4) 0.9529(4) 0.5023(3)
H5A H -0.6909 0.9212 0.5039
C11A C -0.5281(4) 1.1121(4) 0.5642(3)
H6A H -0.5469 1.1870 0.6074
C12A C -0.7961(4) 1.1326(4) 0.6460(3)
C13A C -1.3287(4) 1.2721(4) 1.0813(3)
C14A C -1.5211(4) 1.2426(4) 1.2389(4)
H7A H -1.5347 1.1522 1.2638
H8A H -1.5679 1.2992 1.3078
C15A C -1.5871(4) 1.3240(4) 1.1178(4)
H9A H -1.6639 1.4176 1.1315
H10A H -1.6302 1.2705 1.0872
C16A C -1.0444(5) 1.7353(4) 0.6482(4)
H11A H -0.9891 1.7459 0.5636
H12A H -1.1455 1.8090 0.6530
C17A C -0.9616(5) 1.7402(4) 0.7465(4)
H13A H -1.0013 1.8347 0.7718
H14A H -0.8537 1.7117 0.7163
C18A C -1.0302(4) 1.5441(4) 0.8052(3)
N1A N -1.4551(4) 1.3355(4) 1.0317(3)
H15A H -1.4583 1.3791 0.9557
N2A N -1.3622(4) 1.2202(4) 1.2027(3)
H16A H -1.2969 1.1785 1.2531
N3A N -1.0489(4) 1.5929(4) 0.6845(3)
H17A H -1.0618 1.5463 0.6353
N4A N -0.9952(4) 1.6350(4) 0.8495(3)
H18A H -0.9928 1.6323 0.9276
loop_
_geom_bond_atom_site_label_1
_geom_bond_atom_site_label_2
_geom_bond_site_symmetry_1
_geom_bond_site_symmetry_2
Y1 O1 1_555 1_555
O1 C4 1_555 1_555
O2 C4 1_555 1_555
O3 Y1 1_555 1_555
O4 Y1 1_555 1_555
O5 Y1 1_555 1_555
O6 Y1 1_555 1_555
O7 Y1 1_555 1_555
O8 Y1 1_555 1_555
C1 C2 1_555 1_555
C2 H1 1_555 1_555
C3 C1 1_555 1_555
H2 C3 1_555 1_555
C4 C1 1_555 1_555
C5 C6 1_555 1_555
C6 H3 1_555 1_555
C7 C5 1_555 1_555
H4 C7 1_555 1_555
C8 O3 1_555 1_555
C9 C10 1_555 1_555
C10 H5 1_555 1_555
C11 C9 1_555 1_555
H6 C11 1_555 1_555
C12 O5 1_555 1_555
C13 O7 1_555 1_555
C14 H7 1_555 1_555
H8 C14 1_555 1_555
C15 C14 1_555 1_555
H9 C15 1_555 1_555
H10 C15 1_555 1_555
C16 H11 1_555 1_555
H12 C16 1_555 1_555
C17 C16 1_555 1_555
H13 C17 1_555 1_555
H14 C17 1_555 1_555
C18 O8 1_555 1_555
N1 C13 1_555 1_555
H15 N1 1_555 1_555
N2 C13 1_555 1_555
H16 N2 1_555 1_555
N3 C16 1_555 1_555
H17 N3 1_555 1_555
N4 C17 1_555 1_555
H18 N4 1_555 1_555
Y1A O1A_2 1_555 1_555
Y1_2 O2A 1_555 1_555
Y1A_2 O2 1_555 1_555
Y1A_3 O3A 1_555 1_555
Y1A_4 O1A 1_555 1_555
O1A C4A 1_555 1_555
O2A C4A 1_555 1_555
O2_2 Y1A 1_555 1_555
O2A_2 Y1 1_555 1_555
O3A C8A 1_555 1_555
O3A_2 Y1A 1_555 1_555
O4A Y1A_3 1_555 1_555
O4A_2 Y1A 1_555 1_555
O5A Y1A 1_555 1_555
O6A Y1A 1_555 1_555
O7A Y1A 1_555 1_555
O8A Y1A 1_555 1_555
C1A C2A 1_555 1_555
C2A C3 1_555 1_555
H1A C2A 1_555 1_555
C3A C2 1_555 1_555
H2A C3A 1_555 1_555
C4A C1A 1_555 1_555
C5A C6A 1_555 1_555
C6A C7 1_555 1_555
H3A C6A 1_555 1_555
C7A C6 1_555 1_555
H4A C7A 1_555 1_555
C8A O4A 1_555 1_555
C8A_2 O3A_2 1_555 1_555
C9A C10A 1_555 1_555
C10A C11 1_555 1_555
H5A C10A 1_555 1_555
C11A C10 1_555 1_555
H6A C11A 1_555 1_555
C12A O5A 1_555 1_555
C13A O7A 1_555 1_555
C14A H7A 1_555 1_555
H8A C14A 1_555 1_555
C15A C14A 1_555 1_555
H9A C15A 1_555 1_555
H10A C15A 1_555 1_555
C16A H11A 1_555 1_555
H12A C16A 1_555 1_555
C17A C16A 1_555 1_555
H13A C17A 1_555 1_555
H14A C17A 1_555 1_555
C18A O8A 1_555 1_555
N1A C13A 1_555 1_555
H15A N1A 1_555 1_555
N2A C13A 1_555 1_555
H16A N2A 1_555 1_555
N3A C16A 1_555 1_555
H17A N3A 1_555 1_555
N4A C17A 1_555 1_555
H18A N4A 1_555 1_555
O4 C8 1_555 1_555
O6 C12 1_555 1_555
C5 C8 1_555 1_555
C9 C12 1_555 1_555
C14 N2 1_555 1_555
C15 N1 1_555 1_555
C18 N3 1_555 1_555
C18 N4 1_555 1_555
O4A_2 C8A_2 1_555 1_555
O6A C12A 1_555 1_555
C1A C3A 1_555 1_555
C5A C7A 1_555 1_555
C5A C8A 1_555 1_555
C9A C11A 1_555 1_555
C9A C12A 1_555 1_555
C14A N2A 1_555 1_555
C15A N1A 1_555 1_555
C18A N3A 1_555 1_555
C18A N4A 1_555 1_555

#END
