
#######################################################################
#
#                 Cambridge Crystallographic Data Centre
#                                CCDC 
#
#######################################################################
#
# If this CIF has been generated from an entry in the Cambridge 
# Structural Database, then it will include bibliographic, chemical, 
# crystal, experimental, refinement or atomic coordinate data resulting 
# from the CCDC's data processing and validation procedures.
#
#######################################################################

data_LAGMOX
_symmetry_cell_setting           triclinic
_symmetry_space_group_name_H-M   'P -1'
_symmetry_Int_Tables_number      2
_space_group_name_Hall           '-P 1'
loop_
_symmetry_equiv_pos_site_id
_symmetry_equiv_pos_as_xyz
1 x,y,z
2 -x,-y,-z
_cell_length_a                   8.5854(4)
_cell_length_b                   10.1894(5)
_cell_length_c                   10.8314(5)
_cell_angle_alpha                66.156(4)
_cell_angle_beta                 69.281(3)
_cell_angle_gamma                78.615(3)
_cell_volume                     808.97
loop_
_atom_site_label
_atom_site_type_symbol
_atom_site_fract_x
_atom_site_fract_y
_atom_site_fract_z
Y1 Y 0.65303(7) 0.43589(6) 0.15034(6)
O1 O 0.3684(4) 0.3767(4) 0.2644(4)
O2 O 0.8296(5) 0.5199(4) -0.0833(4)
H1 H 0.8984 0.5739 -0.0901
H2 H 0.7790 0.5546 -0.1455
O3 O 0.4546(5) 0.5201(4) 0.3308(4)
O4 O 0.5098(5) 0.6296(5) 0.0214(4)
O5 O 0.3213(5) 0.7592(4) -0.0794(5)
O6 O 0.6742(5) 0.2483(4) 0.3641(4)
O7 O 0.9100(5) 0.2932(4) 0.1898(5)
O8 O 0.8038(5) 0.5818(5) 0.1708(4)
C1 C 0.3393(8) 0.4592(7) 0.3342(6)
C2 C 0.1638(7) 0.4807(6) 0.4213(6)
C3 C 0.1228(8) 0.5782(6) 0.4885(6)
H3 H 0.2050 0.6308 0.4810
C4 C 0.0397(8) 0.4024(7) 0.4336(6)
H4 H 0.0669 0.3364 0.3887
C5 C 0.4286(8) 0.7467(7) -0.0208(7)
C6 C 0.4646(8) 0.8768(6) -0.0080(6)
C7 C 0.6217(8) 0.8895(7) -0.0087(6)
H5 H 0.7036 0.8154 -0.0136
C8 C 0.3422(8) 0.9862(7) 0.0022(6)
H6 H 0.2354 0.9769 0.0047
C9 C 0.8281(9) 0.2218(7) 0.3161(8)
C10 C 0.9159(8) 0.1052(6) 0.4109(7)
C11 C 1.0873(8) 0.0750(6) 0.3619(6)
H7 H 1.1466 0.1255 0.2685
C12 C 0.8299(8) 0.0289(7) 0.5499(7)
H8 H 0.7155 0.0477 0.5842
C13 C 0.8041(9) 0.6799(8) 0.2125(7)
C14 C 0.7159(8) 0.8398(7) 0.3300(7)
H9 H 0.7005 0.8215 0.4286
H10 H 0.6452 0.9234 0.2939
C15 C 0.8988(8) 0.8597(7) 0.2410(7)
H11 H 0.9165 0.9592 0.1789
H12 H 0.9709 0.8286 0.3006
N1 N 0.6819(7) 0.7152(5) 0.3130(5)
H13 H 0.5929 0.6693 0.3624
N2 N 0.9277(7) 0.7677(6) 0.1602(5)
H14 H 1.0135 0.7697 0.0881
Y1A Y -0.65303(7) 0.56411(6) 0.84966(6)
Y1_2 Y 0.65303(7) 1.43589(6) 0.15034(6)
Y1A_2 Y 0.34697(7) 0.56411(6) -0.15034(6)
Y1A_3 Y 0.34697(7) 1.56411(6) -0.15034(6)
Y1A_4 Y 1.34697(7) -0.43589(6) 0.84966(6)
O1A O -0.3684(4) 0.6233(4) 0.7356(4)
O2A O -0.8296(5) 0.4801(4) 1.0833(4)
H1A H -0.8984 0.4261 1.0901
H2A H -0.7790 0.4454 1.1455
O3A O -0.4546(5) 0.4799(4) 0.6692(4)
O4A O 0.4902(5) 1.3704(5) -0.0214(4)
O4A_2 O -0.5098(5) 0.3704(5) 0.9786(4)
O5A O 0.6787(5) 1.2408(4) 0.0794(5)
O5_2 O -0.6787(5) 0.7592(4) 0.9206(5)
O5A_2 O 0.6787(5) 0.2408(4) 0.0794(5)
O6A O 1.3258(5) -0.2483(4) 0.6359(4)
O6A_2 O -0.6742(5) 0.7517(4) 0.6359(4)
O7A O 1.0900(5) -0.2932(4) 0.8102(5)
O7A_2 O -0.9100(5) 0.7068(4) 0.8102(5)
O8A O -0.8038(5) 0.4182(5) 0.8292(4)
C1A C -0.3393(8) 0.5408(7) 0.6658(6)
C2A C -0.1638(7) 0.5193(6) 0.5787(6)
C3A C -0.1228(8) 0.4218(6) 0.5115(6)
H3A H -0.2050 0.3692 0.5190
C4A C -0.0397(8) 0.5976(7) 0.5664(6)
H4A H -0.0669 0.6636 0.6113
C5A C 0.5714(8) 1.2533(7) 0.0208(7)
C6A C 0.5354(8) 1.1232(6) 0.0080(6)
C7A C 0.3783(8) 1.1105(7) 0.0087(6)
H5A H 0.2964 1.1846 0.0136
C8A C 0.6578(8) 1.0138(7) -0.0022(6)
H6A H 0.7646 1.0231 -0.0047
C9A C 1.1719(9) -0.2218(7) 0.6839(8)
C9A_2 C -0.8281(9) 0.7782(7) 0.6839(8)
C10A C 1.0841(8) -0.1052(6) 0.5891(7)
C11A C 0.9127(8) -0.0750(6) 0.6381(6)
H7A H 0.8534 -0.1255 0.7315
C12A C 1.1701(8) -0.0289(7) 0.4501(7)
H8A H 1.2845 -0.0477 0.4158
C13A C -0.8041(9) 0.3201(8) 0.7875(7)
C14A C -0.7159(8) 0.1602(7) 0.6700(7)
H9A H -0.7005 0.1785 0.5714
H10A H -0.6452 0.0766 0.7061
C15A C -0.8988(8) 0.1403(7) 0.7590(7)
H11A H -0.9165 0.0408 0.8211
H12A H -0.9709 0.1714 0.6994
N1A N -0.6819(7) 0.2848(5) 0.6870(5)
H13A H -0.5929 0.3307 0.6376
N2A N -0.9277(7) 0.2323(6) 0.8398(5)
H14A H -1.0135 0.2303 0.9119
loop_
_geom_bond_atom_site_label_1
_geom_bond_atom_site_label_2
_geom_bond_site_symmetry_1
_geom_bond_site_symmetry_2
Y1 O1 1_555 1_555
O1 C1 1_555 1_555
O2 Y1 1_555 1_555
H1 O2 1_555 1_555
H2 O2 1_555 1_555
O3 Y1 1_555 1_555
O4 Y1 1_555 1_555
O5 C5 1_555 1_555
O6 Y1 1_555 1_555
O7 Y1 1_555 1_555
O8 Y1 1_555 1_555
C1 O3 1_555 1_555
C2 C1 1_555 1_555
C3 C2 1_555 1_555
H3 C3 1_555 1_555
C4 C2 1_555 1_555
H4 C4 1_555 1_555
C5 O4 1_555 1_555
C6 C5 1_555 1_555
C7 C6 1_555 1_555
H5 C7 1_555 1_555
C8 C6 1_555 1_555
H6 C8 1_555 1_555
C9 O6 1_555 1_555
C10 C9 1_555 1_555
C11 C10 1_555 1_555
H7 C11 1_555 1_555
C12 C10 1_555 1_555
H8 C12 1_555 1_555
C13 O8 1_555 1_555
C14 H9 1_555 1_555
H10 C14 1_555 1_555
C15 C14 1_555 1_555
H11 C15 1_555 1_555
H12 C15 1_555 1_555
N1 C13 1_555 1_555
H13 N1 1_555 1_555
N2 C13 1_555 1_555
H14 N2 1_555 1_555
Y1A O1A 1_555 1_555
Y1_2 O5A 1_555 1_555
Y1A_2 O5 1_555 1_555
Y1A_3 O4A 1_555 1_555
Y1A_4 O6A 1_555 1_555
O1A C1A 1_555 1_555
O2A Y1A 1_555 1_555
H1A O2A 1_555 1_555
H2A O2A 1_555 1_555
O3A Y1A 1_555 1_555
O4A C5A 1_555 1_555
O4A_2 Y1A 1_555 1_555
O5A C5A 1_555 1_555
O5_2 Y1A 1_555 1_555
O5A_2 Y1 1_555 1_555
O6A C9A 1_555 1_555
O6A_2 Y1A 1_555 1_555
O7A Y1A_4 1_555 1_555
O7A_2 Y1A 1_555 1_555
O8A Y1A 1_555 1_555
C1A O3A 1_555 1_555
C2A C1A 1_555 1_555
C3A C4 1_555 1_555
H3A C3A 1_555 1_555
C4A C3 1_555 1_555
H4A C4A 1_555 1_555
C5A C6A 1_555 1_555
C6A C7A 1_555 1_555
C7A C8 1_555 1_555
H5A C7A 1_555 1_555
C8A C7 1_555 1_555
H6A C8A 1_555 1_555
C9A O7A 1_555 1_555
C9A_2 O6A_2 1_555 1_555
C10A C9A 1_555 1_555
C11A C12 1_555 1_555
H7A C11A 1_555 1_555
C12A C11 1_555 1_555
H8A C12A 1_555 1_555
C13A O8A 1_555 1_555
C14A H9A 1_555 1_555
H10A C14A 1_555 1_555
C15A C14A 1_555 1_555
H11A C15A 1_555 1_555
H12A C15A 1_555 1_555
N1A C13A 1_555 1_555
H13A N1A 1_555 1_555
N2A C13A 1_555 1_555
H14A N2A 1_555 1_555
O7 C9 1_555 1_555
C14 N1 1_555 1_555
C15 N2 1_555 1_555
O7A_2 C9A_2 1_555 1_555
C2A C3A 1_555 1_555
C2A C4A 1_555 1_555
C6A C8A 1_555 1_555
C10A C11A 1_555 1_555
C10A C12A 1_555 1_555
C14A N1A 1_555 1_555
C15A N2A 1_555 1_555

#END
