
#######################################################################
#
#                 Cambridge Crystallographic Data Centre
#                                CCDC 
#
#######################################################################
#
# If this CIF has been generated from an entry in the Cambridge 
# Structural Database, then it will include bibliographic, chemical, 
# crystal, experimental, refinement or atomic coordinate data resulting 
# from the CCDC's data processing and validation procedures.
#
#######################################################################

data_LAGNIS
_symmetry_cell_setting           triclinic
_symmetry_space_group_name_H-M   'P -1'
_symmetry_Int_Tables_number      2
_space_group_name_Hall           '-P 1'
loop_
_symmetry_equiv_pos_site_id
_symmetry_equiv_pos_as_xyz
1 x,y,z
2 -x,-y,-z
_cell_length_a                   10.0149(6)
_cell_length_b                   10.1872(7)
_cell_length_c                   11.8347(9)
_cell_angle_alpha                67.770(5)
_cell_angle_beta                 72.895(5)
_cell_angle_gamma                64.328(4)
_cell_volume                     995.002
loop_
_atom_site_label
_atom_site_type_symbol
_atom_site_fract_x
_atom_site_fract_y
_atom_site_fract_z
Y1 Y 0.04713(4) 0.76946(4) 0.19753(3)
O1 O 0.2966(3) 0.6138(3) 0.2466(2)
O2 O 0.1313(3) 0.6966(4) 0.3943(3)
O3 O -0.1357(3) 0.9574(3) 0.2999(2)
O4 O -0.1694(3) 0.7417(3) 0.3506(3)
O5 O 0.1338(3) 0.9621(3) 0.1186(2)
O6 O 0.1289(3) 1.1178(3) -0.0731(2)
O7 O 0.0506(3) 0.5340(4) 0.2192(3)
O8 O 0.1950(3) 0.7272(3) 0.0101(2)
N1 N 0.0334(4) 0.3056(5) 0.2722(4)
N2 N 0.4455(3) 0.6668(4) 0.0082(3)
H1 H 0.4445 0.6319 0.0869
N3 N 0.3651(4) 0.7574(4) -0.1682(3)
H2 H 0.3062 0.7851 -0.2199
C1 C 0.3860(4) 0.5609(4) 0.4291(3)
C2 C 0.5348(4) 0.5040(5) 0.3783(4)
H3 H 0.5594 0.5059 0.2957
C3 C 0.3533(5) 0.5551(5) 0.5524(4)
H4 H 0.2539 0.5919 0.5889
C4 C 0.2636(4) 0.6277(5) 0.3534(4)
C5 C -0.3584(4) 0.9357(5) 0.4351(3)
C6 C -0.3928(4) 1.0633(5) 0.4720(3)
H5 H -0.3210 1.1065 0.4528
C7 C -0.4684(4) 0.8740(5) 0.4635(3)
H6 H -0.4479 0.7899 0.4387
C8 C -0.2117(4) 0.8735(5) 0.3588(3)
C9 C 0.3515(4) 1.0196(4) 0.0097(3)
C10 C 0.4249(4) 1.0852(4) -0.1012(3)
H7 H 0.3751 1.1428 -0.1691
C11 C 0.4262(4) 0.9354(4) 0.1107(3)
H8 H 0.3761 0.8923 0.1856
C12 C 0.1926(4) 1.0352(4) 0.0189(4)
C13 C 0.0579(5) 0.4060(6) 0.2947(5)
H9 H 0.0826 0.3827 0.3716
C14 C -0.0107(7) 0.3372(7) 0.1585(5)
H10 H -0.0178 0.4388 0.1089
H11 H -0.1065 0.3283 0.1741
H12 H 0.0623 0.2660 0.1154
C15 C 0.0499(6) 0.1559(6) 0.3607(5)
H13 H 0.0793 0.1491 0.4336
H14 H 0.1253 0.0788 0.3245
H15 H -0.0439 0.1412 0.3824
C16 C 0.3252(4) 0.7180(4) -0.0442(4)
C17 C 0.5207(5) 0.7469(5) -0.2032(4)
H16 H 0.5272 0.8468 -0.2441
H17 H 0.5766 0.6830 -0.2576
C18 C 0.5791(4) 0.6758(5) -0.0806(4)
H18 H 0.6562 0.5756 -0.0759
H19 H 0.6191 0.7396 -0.0678
Y1A Y -1.04713(4) 1.23054(4) 0.80247(3)
Y1_2 Y 1.04713(4) 0.76946(4) 0.19753(3)
Y1A_2 Y -0.04713(4) 1.23054(4) -0.19753(3)
Y1A_3 Y 0.95287(4) 0.23054(4) 0.80247(3)
Y1A_4 Y 0.95287(4) 1.23054(4) -0.19753(3)
O1A O 0.7034(3) 0.3862(3) 0.7534(2)
O1A_2 O -1.2966(3) 1.3862(3) 0.7534(2)
O2A O 0.8687(3) 0.3034(4) 0.6057(3)
O2A_2 O -1.1313(3) 1.3034(4) 0.6057(3)
O3A O -0.8643(3) 1.0426(3) 0.7001(2)
O4A O -0.8306(3) 1.2583(3) 0.6494(3)
O5A O 0.8662(3) 1.0379(3) -0.1186(2)
O5A_2 O -1.1338(3) 1.0379(3) 0.8814(2)
O6A O 0.8711(3) 0.8822(3) 0.0731(2)
O6_2 O -0.8711(3) 1.1178(3) 0.9269(2)
O6A_2 O -0.1289(3) 0.8822(3) 0.0731(2)
O7A O -1.0506(3) 1.4660(4) 0.7808(3)
O8A O -1.1950(3) 1.2728(3) 0.9899(2)
N1A N -1.0334(4) 1.6944(5) 0.7278(4)
N2A N -1.4455(3) 1.3332(4) 0.9918(3)
H1A H -1.4445 1.3681 0.9131
N3A N -1.3651(4) 1.2426(4) 1.1682(3)
H2A H -1.3062 1.2149 1.2199
C1A C 0.6140(4) 0.4391(4) 0.5709(3)
C2A C 0.4652(4) 0.4960(5) 0.6217(4)
H3A H 0.4406 0.4941 0.7043
C3A C 0.6467(5) 0.4449(5) 0.4476(4)
H4A H 0.7461 0.4081 0.4111
C4A C 0.7364(4) 0.3723(5) 0.6466(4)
C4A_2 C -1.2636(4) 1.3723(5) 0.6466(4)
C5A C -0.6416(4) 1.0643(5) 0.5649(3)
C6A C -0.6072(4) 0.9367(5) 0.5280(3)
H5A H -0.6790 0.8935 0.5472
C7A C -0.5316(4) 1.1260(5) 0.5365(3)
H6A H -0.5521 1.2101 0.5613
C8A C -0.7883(4) 1.1265(5) 0.6412(3)
C9A C 0.6485(4) 0.9804(4) -0.0097(3)
C10A C 0.5751(4) 0.9148(4) 0.1012(3)
H7A H 0.6249 0.8572 0.1691
C11A C 0.5738(4) 1.0646(4) -0.1107(3)
H8A H 0.6239 1.1077 -0.1856
C12A C 0.8074(4) 0.9648(4) -0.0189(4)
C13A C -1.0579(5) 1.5940(6) 0.7053(5)
H9A H -1.0826 1.6173 0.6284
C14A C -0.9893(7) 1.6628(7) 0.8415(5)
H10A H -0.9822 1.5612 0.8911
H11A H -0.8935 1.6717 0.8259
H12A H -1.0623 1.7340 0.8846
C15A C -1.0499(6) 1.8441(6) 0.6393(5)
H13A H -1.0793 1.8509 0.5664
H14A H -1.1253 1.9212 0.6755
H15A H -0.9561 1.8588 0.6176
C16A C -1.3252(4) 1.2820(4) 1.0442(4)
C17A C -1.5207(5) 1.2531(5) 1.2032(4)
H16A H -1.5272 1.1532 1.2441
H17A H -1.5766 1.3170 1.2576
C18A C -1.5791(4) 1.3242(5) 1.0806(4)
H18A H -1.6562 1.4244 1.0759
H19A H -1.6191 1.2604 1.0678
loop_
_geom_bond_atom_site_label_1
_geom_bond_atom_site_label_2
_geom_bond_site_symmetry_1
_geom_bond_site_symmetry_2
Y1 O1 1_555 1_555
O1 C4 1_555 1_555
O2 Y1 1_555 1_555
O3 Y1 1_555 1_555
O4 Y1 1_555 1_555
O5 Y1 1_555 1_555
O6 C12 1_555 1_555
O7 Y1 1_555 1_555
O8 Y1 1_555 1_555
N1 C13 1_555 1_555
N2 H1 1_555 1_555
N3 H2 1_555 1_555
C1 C2 1_555 1_555
C2 H3 1_555 1_555
C3 C1 1_555 1_555
H4 C3 1_555 1_555
C4 O2 1_555 1_555
C5 C6 1_555 1_555
C6 H5 1_555 1_555
C7 C5 1_555 1_555
H6 C7 1_555 1_555
C8 O3 1_555 1_555
C9 C10 1_555 1_555
C10 H7 1_555 1_555
C11 C9 1_555 1_555
H8 C11 1_555 1_555
C12 O5 1_555 1_555
C13 O7 1_555 1_555
H9 C13 1_555 1_555
C14 N1 1_555 1_555
H10 C14 1_555 1_555
H11 C14 1_555 1_555
H12 C14 1_555 1_555
C15 N1 1_555 1_555
H13 C15 1_555 1_555
H14 C15 1_555 1_555
H15 C15 1_555 1_555
C16 O8 1_555 1_555
C17 N3 1_555 1_555
H16 C17 1_555 1_555
H17 C17 1_555 1_555
C18 N2 1_555 1_555
H18 C18 1_555 1_555
H19 C18 1_555 1_555
Y1A O1A_2 1_555 1_555
Y1_2 O6A 1_555 1_555
Y1A_2 O6 1_555 1_555
Y1A_3 O1A 1_555 1_555
Y1A_4 O5A 1_555 1_555
O1A C4A 1_555 1_555
O1A_2 C4A_2 1_555 1_555
O2A Y1A_3 1_555 1_555
O2A_2 Y1A 1_555 1_555
O3A Y1A 1_555 1_555
O4A Y1A 1_555 1_555
O5A C12A 1_555 1_555
O5A_2 Y1A 1_555 1_555
O6A C12A 1_555 1_555
O6_2 Y1A 1_555 1_555
O6A_2 Y1 1_555 1_555
O7A Y1A 1_555 1_555
O8A Y1A 1_555 1_555
N1A C13A 1_555 1_555
N2A H1A 1_555 1_555
N3A H2A 1_555 1_555
C1A C2A 1_555 1_555
C2A C3 1_555 1_555
H3A C2A 1_555 1_555
C3A C2 1_555 1_555
H4A C3A 1_555 1_555
C4A O2A 1_555 1_555
C4A_2 O2A_2 1_555 1_555
C5A C6A 1_555 1_555
C6A C7 1_555 1_555
H5A C6A 1_555 1_555
C7A C6 1_555 1_555
H6A C7A 1_555 1_555
C8A O3A 1_555 1_555
C9A C10A 1_555 1_555
C10A C11 1_555 1_555
H7A C10A 1_555 1_555
C11A C10 1_555 1_555
H8A C11A 1_555 1_555
C12A C9A 1_555 1_555
C13A O7A 1_555 1_555
H9A C13A 1_555 1_555
C14A N1A 1_555 1_555
H10A C14A 1_555 1_555
H11A C14A 1_555 1_555
H12A C14A 1_555 1_555
C15A N1A 1_555 1_555
H13A C15A 1_555 1_555
H14A C15A 1_555 1_555
H15A C15A 1_555 1_555
C16A O8A 1_555 1_555
C17A N3A 1_555 1_555
H16A C17A 1_555 1_555
H17A C17A 1_555 1_555
C18A N2A 1_555 1_555
H18A C18A 1_555 1_555
H19A C18A 1_555 1_555
O4 C8 1_555 1_555
N2 C16 1_555 1_555
N3 C16 1_555 1_555
C1 C4 1_555 1_555
C5 C8 1_555 1_555
C9 C12 1_555 1_555
C17 C18 1_555 1_555
O4A C8A 1_555 1_555
N2A C16A 1_555 1_555
N3A C16A 1_555 1_555
C1A C3A 1_555 1_555
C1A C4A 1_555 1_555
C5A C7A 1_555 1_555
C5A C8A 1_555 1_555
C9A C11A 1_555 1_555
C17A C18A 1_555 1_555

#END
