
#######################################################################
#
#                 Cambridge Crystallographic Data Centre
#                                CCDC 
#
#######################################################################
#
# If this CIF has been generated from an entry in the Cambridge 
# Structural Database, then it will include bibliographic, chemical, 
# crystal, experimental, refinement or atomic coordinate data resulting 
# from the CCDC's data processing and validation procedures.
#
#######################################################################

data_LAGNAK
_symmetry_cell_setting           triclinic
_symmetry_space_group_name_H-M   'P -1'
_symmetry_Int_Tables_number      2
_space_group_name_Hall           '-P 1'
loop_
_symmetry_equiv_pos_site_id
_symmetry_equiv_pos_as_xyz
1 x,y,z
2 -x,-y,-z
_cell_length_a                   9.8488(6)
_cell_length_b                   10.6130(7)
_cell_length_c                   12.6336(8)
_cell_angle_alpha                69.6580(10)
_cell_angle_beta                 73.7720(10)
_cell_angle_gamma                62.5370(10)
_cell_volume                     1087.32
loop_
_atom_site_label
_atom_site_type_symbol
_atom_site_fract_x
_atom_site_fract_y
_atom_site_fract_z
Y1 Y 0.95111(4) 0.21993(4) 0.30880(3)
O1 O 0.8633(3) 0.2761(3) 0.12751(19)
O2 O 0.6837(3) 0.3732(3) 0.25863(18)
O3 O 0.8658(2) 0.0399(3) 0.38817(18)
O4 O 0.8781(3) -0.1016(3) 0.56672(19)
O5 O 1.1816(3) 0.2240(3) 0.17949(19)
O6 O 1.1502(3) 0.0204(2) 0.21632(19)
O7 O 0.7998(3) 0.2821(3) 0.47772(18)
O8 O 0.9608(3) 0.4344(3) 0.29025(19)
C1 C 0.6084(4) 0.4296(4) 0.0767(3)
C2 C 0.6520(4) 0.4241(5) -0.0356(3)
H1 H 0.7554 0.3732 -0.0613
C3 C 0.4545(4) 0.5076(5) 0.1112(3)
H2 H 0.4218 0.5144 0.1863
C4 C 0.7246(4) 0.3549(4) 0.1591(3)
C5 C 0.6492(4) -0.0136(4) 0.4902(3)
C6 C 0.5685(4) 0.0663(4) 0.3976(3)
H3 H 0.6147 0.1103 0.3294
C7 C 0.5816(4) -0.0804(4) 0.5927(3)
H4 H 0.6365 -0.1340 0.6543
C8 C 0.8101(4) -0.0256(4) 0.4809(3)
C9 C 1.3691(4) 0.0456(4) 0.0814(3)
C10 C 1.4062(4) -0.0762(4) 0.0434(3)
H5 H 1.3436 -0.1281 0.0724
C11 C 1.4651(4) 0.1219(4) 0.0371(3)
H6 H 1.4428 0.2035 0.0615
C12 C 1.2256(4) 0.0988(4) 0.1640(3)
C13 C 0.6706(4) 0.2893(4) 0.5325(3)
C14 C 0.4837(4) 0.2556(4) 0.6845(3)
H7 H 0.4281 0.3124 0.7405
H8 H 0.4851 0.1577 0.7169
C15 C 0.4107(4) 0.3313(4) 0.5741(3)
H9 H 0.3672 0.2733 0.5611
H10 H 0.3306 0.4284 0.5757
C16 C 0.9690(4) 0.5573(4) 0.2585(3)
C17 C 0.9007(5) 0.8066(4) 0.1278(3)
H11 H 0.8037 0.8747 0.0992
H12 H 0.9842 0.8117 0.0660
C18 C 0.9146(5) 0.8502(4) 0.2243(3)
H13 H 0.9272 0.9422 0.1953
H14 H 0.8213 0.8641 0.2794
C19 C 1.0522(4) 0.7316(4) 0.2810(3)
H15 H 1.1466 0.7244 0.2280
H16 H 1.0574 0.7560 0.3465
C20 C 1.1427(5) 0.4728(5) 0.3959(3)
H17 H 1.1240 0.3858 0.4151
H18 H 1.1255 0.5021 0.4640
H19 H 1.2477 0.4530 0.3601
C21 C 0.8578(5) 0.6129(4) 0.0922(3)
H20 H 0.8662 0.5139 0.1262
H21 H 0.9224 0.6181 0.0195
H22 H 0.7523 0.6772 0.0820
N1 N 0.5417(3) 0.3392(3) 0.4883(2)
H23 H 0.5367 0.3726 0.4164
N2 N 0.6397(3) 0.2497(3) 0.6473(2)
H24 H 0.7041 0.2242 0.6926
N3 N 0.9070(3) 0.6576(3) 0.1660(2)
N4 N 1.0373(3) 0.5913(3) 0.3173(2)
Y1A Y 0.04889(4) -0.21993(4) 0.69120(3)
Y1_2 Y -0.04889(4) 0.21993(4) 0.30880(3)
Y1A_2 Y 0.04889(4) 0.78007(4) -0.30880(3)
Y1A_3 Y 1.04889(4) -0.21993(4) 0.69120(3)
Y1A_4 Y 2.04889(4) -0.21993(4) -0.30880(3)
O1A O 0.1367(3) 0.7239(3) -0.12751(19)
O1A_2 O 0.1367(3) -0.2761(3) 0.87249(19)
O2A O 0.3163(3) 0.6268(3) -0.25863(18)
O2A_2 O 0.3163(3) -0.3732(3) 0.74137(18)
O3A O 0.1342(2) -0.0399(3) 0.61183(18)
O4A O 0.1219(3) 0.1016(3) 0.43328(19)
O4_2 O -0.1219(3) -0.1016(3) 0.56672(19)
O4A_2 O 1.1219(3) 0.1016(3) 0.43328(19)
O5A O 1.8184(3) -0.2240(3) -0.17949(19)
O5A_2 O -0.1816(3) -0.2240(3) 0.82051(19)
O6A O 1.8498(3) -0.0204(2) -0.21632(19)
O6A_2 O -0.1502(3) -0.0204(2) 0.78368(19)
O7A O 0.2002(3) -0.2821(3) 0.52228(18)
O8A O 0.0392(3) -0.4344(3) 0.70975(19)
C1A C 0.3916(4) 0.5704(4) -0.0767(3)
C2A C 0.3480(4) 0.5759(5) 0.0356(3)
H1A H 0.2446 0.6268 0.0613
C3A C 0.5455(4) 0.4924(5) -0.1112(3)
H2A H 0.5782 0.4856 -0.1863
C4A C 0.2754(4) 0.6451(4) -0.1591(3)
C4A_2 C 0.2754(4) -0.3549(4) 0.8409(3)
C5A C 0.3508(4) 0.0136(4) 0.5098(3)
C6A C 0.4315(4) -0.0663(4) 0.6024(3)
H3A H 0.3853 -0.1103 0.6706
C7A C 0.4184(4) 0.0804(4) 0.4073(3)
H4A H 0.3635 0.1340 0.3457
C8A C 0.1899(4) 0.0256(4) 0.5191(3)
C9A C 1.6309(4) -0.0456(4) -0.0814(3)
C10A C 1.5938(4) 0.0762(4) -0.0434(3)
H5A H 1.6564 0.1281 -0.0724
C11A C 1.5349(4) -0.1219(4) -0.0371(3)
H6A H 1.5572 -0.2035 -0.0615
C12A C 1.7744(4) -0.0988(4) -0.1640(3)
C12A_2 C -0.2256(4) -0.0988(4) 0.8360(3)
C13A C 0.3294(4) -0.2893(4) 0.4675(3)
C14A C 0.5163(4) -0.2556(4) 0.3155(3)
H7A H 0.5719 -0.3124 0.2595
H8A H 0.5149 -0.1577 0.2831
C15A C 0.5893(4) -0.3313(4) 0.4259(3)
H9A H 0.6328 -0.2733 0.4389
H10A H 0.6694 -0.4284 0.4243
C16A C 0.0310(4) -0.5573(4) 0.7415(3)
C17A C 0.0993(5) -0.8066(4) 0.8722(3)
H11A H 0.1963 -0.8747 0.9008
H12A H 0.0158 -0.8117 0.9340
C18A C 0.0854(5) -0.8502(4) 0.7757(3)
H13A H 0.0728 -0.9422 0.8047
H14A H 0.1787 -0.8641 0.7206
C19A C -0.0522(4) -0.7316(4) 0.7190(3)
H15A H -0.1466 -0.7244 0.7720
H16A H -0.0574 -0.7560 0.6535
C20A C -0.1427(5) -0.4728(5) 0.6041(3)
H17A H -0.1240 -0.3858 0.5849
H18A H -0.1255 -0.5021 0.5360
H19A H -0.2477 -0.4530 0.6399
C21A C 0.1422(5) -0.6129(4) 0.9078(3)
H20A H 0.1338 -0.5139 0.8738
H21A H 0.0776 -0.6181 0.9805
H22A H 0.2477 -0.6772 0.9180
N1A N 0.4583(3) -0.3392(3) 0.5117(2)
H23A H 0.4633 -0.3726 0.5836
N2A N 0.3603(3) -0.2497(3) 0.3527(2)
H24A H 0.2959 -0.2242 0.3074
N3A N 0.0930(3) -0.6576(3) 0.8340(2)
N4A N -0.0373(3) -0.5913(3) 0.6827(2)
loop_
_geom_bond_atom_site_label_1
_geom_bond_atom_site_label_2
_geom_bond_site_symmetry_1
_geom_bond_site_symmetry_2
Y1 O1 1_555 1_555
O1 C4 1_555 1_555
O2 Y1 1_555 1_555
O3 Y1 1_555 1_555
O4 C8 1_555 1_555
O5 Y1 1_555 1_555
O6 Y1 1_555 1_555
O7 Y1 1_555 1_555
O8 Y1 1_555 1_555
C1 C2 1_555 1_555
C2 H1 1_555 1_555
C3 C1 1_555 1_555
H2 C3 1_555 1_555
C4 O2 1_555 1_555
C5 C6 1_555 1_555
C6 H3 1_555 1_555
C7 C5 1_555 1_555
H4 C7 1_555 1_555
C8 O3 1_555 1_555
C9 C10 1_555 1_555
C10 H5 1_555 1_555
C11 C9 1_555 1_555
H6 C11 1_555 1_555
C12 O5 1_555 1_555
C13 O7 1_555 1_555
C14 H7 1_555 1_555
H8 C14 1_555 1_555
C15 C14 1_555 1_555
H9 C15 1_555 1_555
H10 C15 1_555 1_555
C16 O8 1_555 1_555
C17 H11 1_555 1_555
H12 C17 1_555 1_555
C18 C17 1_555 1_555
H13 C18 1_555 1_555
H14 C18 1_555 1_555
C19 C18 1_555 1_555
H15 C19 1_555 1_555
H16 C19 1_555 1_555
C20 H17 1_555 1_555
H18 C20 1_555 1_555
H19 C20 1_555 1_555
C21 H20 1_555 1_555
H21 C21 1_555 1_555
H22 C21 1_555 1_555
N1 C13 1_555 1_555
H23 N1 1_555 1_555
N2 C13 1_555 1_555
H24 N2 1_555 1_555
N3 C16 1_555 1_555
N4 C16 1_555 1_555
Y1A O1A_2 1_555 1_555
Y1_2 O4A 1_555 1_555
Y1A_2 O1A 1_555 1_555
Y1A_3 O4 1_555 1_555
Y1A_4 O5A 1_555 1_555
O1A C4A 1_555 1_555
O1A_2 C4A_2 1_555 1_555
O2A Y1A_2 1_555 1_555
O2A_2 Y1A 1_555 1_555
O3A Y1A 1_555 1_555
O4A C8A 1_555 1_555
O4_2 Y1A 1_555 1_555
O4A_2 Y1 1_555 1_555
O5A C12A 1_555 1_555
O5A_2 Y1A 1_555 1_555
O6A Y1A_4 1_555 1_555
O6A_2 Y1A 1_555 1_555
O7A Y1A 1_555 1_555
O8A Y1A 1_555 1_555
C1A C2A 1_555 1_555
C2A C3 1_555 1_555
H1A C2A 1_555 1_555
C3A C2 1_555 1_555
H2A C3A 1_555 1_555
C4A O2A 1_555 1_555
C4A_2 O2A_2 1_555 1_555
C5A C6A 1_555 1_555
C6A C7 1_555 1_555
H3A C6A 1_555 1_555
C7A C6 1_555 1_555
H4A C7A 1_555 1_555
C8A O3A 1_555 1_555
C9A C10A 1_555 1_555
C10A C11 1_555 1_555
H5A C10A 1_555 1_555
C11A C10 1_555 1_555
H6A C11A 1_555 1_555
C12A O6A 1_555 1_555
C12A_2 O5A_2 1_555 1_555
C13A O7A 1_555 1_555
C14A H7A 1_555 1_555
H8A C14A 1_555 1_555
C15A C14A 1_555 1_555
H9A C15A 1_555 1_555
H10A C15A 1_555 1_555
C16A O8A 1_555 1_555
C17A H11A 1_555 1_555
H12A C17A 1_555 1_555
C18A C17A 1_555 1_555
H13A C18A 1_555 1_555
H14A C18A 1_555 1_555
C19A C18A 1_555 1_555
H15A C19A 1_555 1_555
H16A C19A 1_555 1_555
C20A H17A 1_555 1_555
H18A C20A 1_555 1_555
H19A C20A 1_555 1_555
C21A H20A 1_555 1_555
H21A C21A 1_555 1_555
H22A C21A 1_555 1_555
N1A C13A 1_555 1_555
H23A N1A 1_555 1_555
N2A C13A 1_555 1_555
H24A N2A 1_555 1_555
N3A C16A 1_555 1_555
N4A C16A 1_555 1_555
O6 C12 1_555 1_555
C1 C4 1_555 1_555
C5 C8 1_555 1_555
C9 C12 1_555 1_555
C14 N2 1_555 1_555
C15 N1 1_555 1_555
C17 N3 1_555 1_555
C19 N4 1_555 1_555
C20 N4 1_555 1_555
C21 N3 1_555 1_555
O6A_2 C12A_2 1_555 1_555
C1A C3A 1_555 1_555
C1A C4A 1_555 1_555
C5A C7A 1_555 1_555
C5A C8A 1_555 1_555
C9A C11A 1_555 1_555
C9A C12A 1_555 1_555
C14A N2A 1_555 1_555
C15A N1A 1_555 1_555
C17A N3A 1_555 1_555
C19A N4A 1_555 1_555
C20A N4A 1_555 1_555
C21A N3A 1_555 1_555

#END
