
#######################################################################
#
#                 Cambridge Crystallographic Data Centre
#                                CCDC 
#
#######################################################################
#
# If this CIF has been generated from an entry in the Cambridge 
# Structural Database, then it will include bibliographic, chemical, 
# crystal, experimental, refinement or atomic coordinate data resulting 
# from the CCDC's data processing and validation procedures.
#
#######################################################################

data_LAGNEO
_symmetry_cell_setting           triclinic
_symmetry_space_group_name_H-M   'P -1'
_symmetry_Int_Tables_number      2
_space_group_name_Hall           '-P 1'
loop_
_symmetry_equiv_pos_site_id
_symmetry_equiv_pos_as_xyz
1 x,y,z
2 -x,-y,-z
_cell_length_a                   10.04630(10)
_cell_length_b                   10.42650(10)
_cell_length_c                   12.7385(2)
_cell_angle_alpha                109.0950(10)
_cell_angle_beta                 95.2620(10)
_cell_angle_gamma                118.2750(10)
_cell_volume                     1060.56
loop_
_atom_site_label
_atom_site_type_symbol
_atom_site_fract_x
_atom_site_fract_y
_atom_site_fract_z
Y1 Y 0.47339(3) 0.02190(3) 0.30224(3)
O1 O 0.3040(3) 0.1125(3) 0.2533(2)
O2 O 0.2998(3) -0.0730(3) 0.1088(2)
O3 O 0.3844(3) -0.2602(3) 0.2089(2)
O4 O 0.5786(3) -0.0954(3) 0.1620(2)
O5 O 0.2875(3) -0.0850(3) 0.3902(2)
O6 O 0.3370(3) -0.0326(3) 0.5779(2)
O7 O 0.6579(3) 0.2327(3) 0.2710(3)
O8 O 0.5455(3) 0.2451(3) 0.4721(2)
N1 N 0.8462(4) 0.3955(4) 0.2129(3)
N2 N 0.3654(3) 0.3219(4) 0.4783(3)
H1 H 0.3286 0.2888 0.4047
N3 N 0.5216(4) 0.3866(4) 0.6421(3)
H2 H 0.5997 0.4012 0.6893
C1 C 0.1200(4) 0.0074(4) 0.0703(3)
C2 C 0.0413(5) 0.0790(5) 0.1185(3)
H3 H 0.0687 0.1326 0.1989
C3 C 0.0771(5) -0.0720(5) -0.0489(3)
H4 H 0.1287 -0.1213 -0.0826
C4 C 0.2492(4) 0.0159(4) 0.1475(3)
C5 C 0.4906(4) -0.3729(4) 0.0723(3)
C6 C 0.3837(4) -0.5289(4) 0.0550(3)
H5 H 0.3050 -0.5491 0.0919
C7 C 0.6075(4) -0.3448(4) 0.0168(3)
H6 H 0.6803 -0.2405 0.0278
C8 C 0.4847(4) -0.2338(4) 0.1522(3)
C9 C 0.1225(4) -0.0277(4) 0.4926(3)
C10 C 0.0350(4) -0.0374(4) 0.3956(3)
H7 H 0.0586 -0.0623 0.3256
C11 C 0.0867(4) 0.0101(4) 0.5972(3)
H8 H 0.1447 0.0172 0.6624
C12 C 0.2588(4) -0.0517(4) 0.4862(3)
C13 C 0.7070(5) 0.2742(5) 0.1950(4)
H9 H 0.6392 0.2139 0.1193
C14 C 0.9594(5) 0.4884(6) 0.3279(4)
H10 H 1.0184 0.6007 0.3418
H11 H 0.9019 0.4790 0.3849
C15 C 1.0695(10) 0.4408(11) 0.3455(8)
H12 H 1.1391 0.5064 0.4237
H13 H 1.1304 0.4542 0.2918
H14 H 1.0125 0.3301 0.3329
C16 C 0.8954(6) 0.4389(6) 0.1190(4)
H15 H 0.8100 0.3630 0.0470
H16 H 0.9858 0.4298 0.1099
C17 C 0.9383(7) 0.6044(6) 0.1391(5)
H17 H 0.9711 0.6263 0.0752
H18 H 1.0234 0.6805 0.2099
H19 H 0.8482 0.6133 0.1451
C18 C 0.4811(4) 0.3108(4) 0.5258(3)
C19 C 0.4180(5) 0.4407(5) 0.6786(3)
H20 H 0.4775 0.5558 0.7256
H21 H 0.3587 0.3866 0.7228
C20 C 0.3080(5) 0.3956(4) 0.5640(3)
H22 H 0.1986 0.3204 0.5555
H23 H 0.3174 0.4899 0.5583
Y1A Y -0.47339(3) -0.02190(3) -0.30224(3)
Y1_2 Y -0.52661(3) 0.02190(3) 0.30224(3)
Y1A_2 Y -0.47339(3) -0.02190(3) 0.69776(3)
Y1A_3 Y 0.52661(3) -1.02190(3) -0.30224(3)
Y1A_4 Y 0.52661(3) -0.02190(3) 0.69776(3)
O1A O -0.3040(3) -0.1125(3) -0.2533(2)
O2A O -0.2998(3) 0.0730(3) -0.1088(2)
O3A O 0.6156(3) -0.7398(3) -0.2089(2)
O3A_2 O -0.3844(3) 0.2602(3) -0.2089(2)
O4A O 0.4214(3) -0.9046(3) -0.1620(2)
O4A_2 O -0.5786(3) 0.0954(3) -0.1620(2)
O5A O -0.2875(3) 0.0850(3) 0.6098(2)
O5A_2 O -0.2875(3) 0.0850(3) -0.3902(2)
O6A O -0.3370(3) 0.0326(3) 0.4221(2)
O6_2 O -0.6630(3) -0.0326(3) -0.4221(2)
O6A_2 O 0.6630(3) 0.0326(3) 0.4221(2)
O7A O -0.6579(3) -0.2327(3) -0.2710(3)
O8A O -0.5455(3) -0.2451(3) -0.4721(2)
N1A N -0.8462(4) -0.3955(4) -0.2129(3)
N2A N -0.3654(3) -0.3219(4) -0.4783(3)
H1A H -0.3286 -0.2888 -0.4047
N3A N -0.5216(4) -0.3866(4) -0.6421(3)
H2A H -0.5997 -0.4012 -0.6893
C1A C -0.1200(4) -0.0074(4) -0.0703(3)
C2A C -0.0413(5) -0.0790(5) -0.1185(3)
H3A H -0.0687 -0.1326 -0.1989
C3A C -0.0771(5) 0.0720(5) 0.0489(3)
H4A H -0.1287 0.1213 0.0826
C4A C -0.2492(4) -0.0159(4) -0.1475(3)
C5A C 0.5094(4) -0.6271(4) -0.0723(3)
C6A C 0.6163(4) -0.4711(4) -0.0550(3)
H5A H 0.6950 -0.4509 -0.0919
C7A C 0.3925(4) -0.6552(4) -0.0168(3)
H6A H 0.3197 -0.7595 -0.0278
C8A C 0.5153(4) -0.7662(4) -0.1522(3)
C8A_2 C -0.4847(4) 0.2338(4) -0.1522(3)
C9A C -0.1225(4) 0.0277(4) 0.5074(3)
C10A C -0.0350(4) 0.0374(4) 0.6044(3)
H7A H -0.0586 0.0623 0.6744
C11A C -0.0867(4) -0.0101(4) 0.4028(3)
H8A H -0.1447 -0.0172 0.3376
C12A C -0.2588(4) 0.0517(4) 0.5138(3)
C13A C -0.7070(5) -0.2742(5) -0.1950(4)
H9A H -0.6392 -0.2139 -0.1193
C14A C -0.9594(5) -0.4884(6) -0.3279(4)
H10A H -1.0184 -0.6007 -0.3418
H11A H -0.9019 -0.4790 -0.3849
C15A C -1.0695(10) -0.4408(11) -0.3455(8)
H12A H -1.1391 -0.5064 -0.4237
H13A H -1.1304 -0.4542 -0.2918
H14A H -1.0125 -0.3301 -0.3329
C16A C -0.8954(6) -0.4389(6) -0.1190(4)
H15A H -0.8100 -0.3630 -0.0470
H16A H -0.9858 -0.4298 -0.1099
C17A C -0.9383(7) -0.6044(6) -0.1391(5)
H17A H -0.9711 -0.6263 -0.0752
H18A H -1.0234 -0.6805 -0.2099
H19A H -0.8482 -0.6133 -0.1451
C18A C -0.4811(4) -0.3108(4) -0.5258(3)
C19A C -0.4180(5) -0.4407(5) -0.6786(3)
H20A H -0.4775 -0.5558 -0.7256
H21A H -0.3587 -0.3866 -0.7228
C20A C -0.3080(5) -0.3956(4) -0.5640(3)
H22A H -0.1986 -0.3204 -0.5555
H23A H -0.3174 -0.4899 -0.5583
loop_
_geom_bond_atom_site_label_1
_geom_bond_atom_site_label_2
_geom_bond_site_symmetry_1
_geom_bond_site_symmetry_2
Y1 O1 1_555 1_555
O1 C4 1_555 1_555
O2 Y1 1_555 1_555
O3 Y1 1_555 1_555
O4 Y1 1_555 1_555
O5 Y1 1_555 1_555
O6 C12 1_555 1_555
O7 Y1 1_555 1_555
O8 Y1 1_555 1_555
N1 C13 1_555 1_555
N2 H1 1_555 1_555
N3 H2 1_555 1_555
C1 C2 1_555 1_555
C2 H3 1_555 1_555
C3 C1 1_555 1_555
H4 C3 1_555 1_555
C4 O2 1_555 1_555
C5 C6 1_555 1_555
C6 H5 1_555 1_555
C7 C5 1_555 1_555
H6 C7 1_555 1_555
C8 O3 1_555 1_555
C9 C10 1_555 1_555
C10 H7 1_555 1_555
C11 C9 1_555 1_555
H8 C11 1_555 1_555
C12 O5 1_555 1_555
C13 O7 1_555 1_555
H9 C13 1_555 1_555
C14 N1 1_555 1_555
H10 C14 1_555 1_555
H11 C14 1_555 1_555
C15 C14 1_555 1_555
H12 C15 1_555 1_555
H13 C15 1_555 1_555
H14 C15 1_555 1_555
C16 N1 1_555 1_555
H15 C16 1_555 1_555
H16 C16 1_555 1_555
C17 C16 1_555 1_555
H17 C17 1_555 1_555
H18 C17 1_555 1_555
H19 C17 1_555 1_555
C18 O8 1_555 1_555
C19 N3 1_555 1_555
H20 C19 1_555 1_555
H21 C19 1_555 1_555
C20 N2 1_555 1_555
H22 C20 1_555 1_555
H23 C20 1_555 1_555
Y1A O1A 1_555 1_555
Y1_2 O6A 1_555 1_555
Y1A_2 O5A 1_555 1_555
Y1A_3 O3A 1_555 1_555
Y1A_4 O6 1_555 1_555
O1A C4A 1_555 1_555
O2A Y1A 1_555 1_555
O3A C8A 1_555 1_555
O3A_2 Y1A 1_555 1_555
O4A Y1A_3 1_555 1_555
O4A_2 Y1A 1_555 1_555
O5A C12A 1_555 1_555
O5A_2 Y1A 1_555 1_555
O6A C12A 1_555 1_555
O6_2 Y1A 1_555 1_555
O6A_2 Y1 1_555 1_555
O7A Y1A 1_555 1_555
O8A Y1A 1_555 1_555
N1A C13A 1_555 1_555
N2A H1A 1_555 1_555
N3A H2A 1_555 1_555
C1A C2A 1_555 1_555
C2A C3 1_555 1_555
H3A C2A 1_555 1_555
C3A C2 1_555 1_555
H4A C3A 1_555 1_555
C4A O2A 1_555 1_555
C5A C6A 1_555 1_555
C6A C7 1_555 1_555
H5A C6A 1_555 1_555
C7A C6 1_555 1_555
H6A C7A 1_555 1_555
C8A O4A 1_555 1_555
C8A_2 O3A_2 1_555 1_555
C9A C10A 1_555 1_555
C10A C11 1_555 1_555
H7A C10A 1_555 1_555
C11A C10 1_555 1_555
H8A C11A 1_555 1_555
C12A C9A 1_555 1_555
C13A O7A 1_555 1_555
H9A C13A 1_555 1_555
C14A N1A 1_555 1_555
H10A C14A 1_555 1_555
H11A C14A 1_555 1_555
C15A C14A 1_555 1_555
H12A C15A 1_555 1_555
H13A C15A 1_555 1_555
H14A C15A 1_555 1_555
C16A N1A 1_555 1_555
H15A C16A 1_555 1_555
H16A C16A 1_555 1_555
C17A C16A 1_555 1_555
H17A C17A 1_555 1_555
H18A C17A 1_555 1_555
H19A C17A 1_555 1_555
C18A O8A 1_555 1_555
C19A N3A 1_555 1_555
H20A C19A 1_555 1_555
H21A C19A 1_555 1_555
C20A N2A 1_555 1_555
H22A C20A 1_555 1_555
H23A C20A 1_555 1_555
O4 C8 1_555 1_555
N2 C18 1_555 1_555
N3 C18 1_555 1_555
C1 C4 1_555 1_555
C5 C8 1_555 1_555
C9 C12 1_555 1_555
C19 C20 1_555 1_555
O4A_2 C8A_2 1_555 1_555
N2A C18A 1_555 1_555
N3A C18A 1_555 1_555
C1A C3A 1_555 1_555
C1A C4A 1_555 1_555
C5A C7A 1_555 1_555
C5A C8A 1_555 1_555
C9A C11A 1_555 1_555
C19A C20A 1_555 1_555

#END
