
#######################################################################
#
#                 Cambridge Crystallographic Data Centre
#                                CCDC 
#
#######################################################################
#
# If this CIF has been generated from an entry in the Cambridge 
# Structural Database, then it will include bibliographic, chemical, 
# crystal, experimental, refinement or atomic coordinate data resulting 
# from the CCDC's data processing and validation procedures.
#
#######################################################################

data_LAGNUE
_symmetry_cell_setting           monoclinic
_symmetry_space_group_name_H-M   'P 21/n'
_symmetry_Int_Tables_number      14
_space_group_name_Hall           '-P 2yn'
loop_
_symmetry_equiv_pos_site_id
_symmetry_equiv_pos_as_xyz
1 x,y,z
2 1/2-x,1/2+y,1/2-z
3 -x,-y,-z
4 1/2+x,1/2-y,1/2+z
_cell_length_a                   11.1006(8)
_cell_length_b                   9.6292(6)
_cell_length_c                   16.0263(16)
_cell_angle_alpha                90
_cell_angle_beta                 91.066(6)
_cell_angle_gamma                90
_cell_volume                     1712.75
loop_
_atom_site_label
_atom_site_type_symbol
_atom_site_fract_x
_atom_site_fract_y
_atom_site_fract_z
Y1 Y 0.49512(4) 0.21058(5) 0.99034(3)
O1 O 0.5125(3) 0.1896(4) 1.1347(2)
O2 O 0.5372(3) -0.0297(4) 1.1013(2)
O3 O 0.8640(3) 0.1088(4) 1.4925(2)
O4 O 0.8734(3) -0.1171(4) 1.4698(2)
O5 O 0.6883(3) 0.1194(4) 0.9790(2)
O6 O 0.6883(3) -0.1133(4) 0.9779(2)
O7 O 0.5332(4) 0.3127(4) 0.8632(2)
N1 N 0.7213(7) 0.3681(8) 0.8548(5)
H1 H 0.7401 0.2908 0.8785
N2 N 0.5867(10) 0.4921(8) 0.7846(6)
H2 H 0.5157 0.4958 0.7623
C1 C 0.6073(4) 0.0452(6) 1.2356(3)
C2 C 0.6491(5) -0.0841(6) 1.2600(3)
H3 H 0.6298 -0.1618 1.2280
C3 C 0.7192(5) -0.0988(6) 1.3316(3)
H4 H 0.7475 -0.1862 1.3472
C4 C 0.7476(5) 0.0158(5) 1.3804(3)
C5 C 0.7016(5) 0.1430(5) 1.3588(3)
H5 H 0.7176 0.2195 1.3927
C6 C 0.6316(5) 0.1591(5) 1.2870(3)
H6 H 0.6007 0.2460 1.2730
C7 C 0.5465(5) 0.0691(7) 1.1520(3)
C8 C 0.8349(4) 0.0017(5) 1.4533(3)
C9 C 0.8751(4) 0.0014(5) 0.9906(4)
C10 C 0.9388(5) -0.1214(6) 0.9807(4)
H7 H 0.8976 -0.2028 0.9674
C11 C 0.9372(5) 0.1240(6) 1.0095(4)
H8 H 0.8953 0.2069 1.0155
C12 C 0.7396(5) 0.0013(6) 0.9811(3)
C13 C 0.6089(7) 0.3895(9) 0.8384(4)
C14 C 0.8223(11) 0.4659(14) 0.8364(10)
H9 H 0.8388 0.5251 0.8843
H10 H 0.8948 0.4142 0.8242
C15 C 0.7866(13) 0.5485(18) 0.7657(13)
H11 H 0.8412 0.5679 0.7240
C16 C 0.6722(13) 0.5983(13) 0.7603(10)
H12 H 0.6546 0.6276 0.7034
H13 H 0.6645 0.6785 0.7964
Y1B Y 0.50488(4) -0.21058(5) 1.00966(3)
Y1C Y 0.99512(4) 0.28942(5) 1.49034(3)
Y1A Y 1.00488(4) -0.28942(5) 1.50966(3)
Y1B_2 Y 1.50488(4) -0.21058(5) 1.00966(3)
Y1_2 Y 1.49512(4) 0.21058(5) 0.99034(3)
Y1A_2 Y 0.00488(4) -0.28942(5) 0.50966(3)
Y1C_2 Y -0.00488(4) 0.28942(5) 0.49034(3)
O1B O 0.4875(3) -0.1896(4) 0.8653(2)
O2B O 0.4628(3) 0.0297(4) 0.8987(2)
O3B O 0.1360(3) -0.1088(4) 0.5075(2)
O3C O 0.3640(3) 0.3912(4) 0.9925(2)
O3A O 0.6360(3) -0.3912(4) 1.0075(2)
O4B O 0.1266(3) 0.1171(4) 0.5302(2)
O4A O 0.6266(3) 0.3829(4) 1.0302(2)
O4C O 0.3734(3) -0.3829(4) 0.9698(2)
O5B O 1.3117(3) -0.1194(4) 1.0210(2)
O5B_2 O 0.3117(3) -0.1194(4) 1.0210(2)
O6B O 1.3117(3) 0.1133(4) 1.0221(2)
O6B_2 O 0.3117(3) 0.1133(4) 1.0221(2)
O7B O 0.4668(4) -0.3127(4) 1.1368(2)
N1B N 0.2787(7) -0.3681(8) 1.1452(5)
H1B H 0.2599 -0.2908 1.1215
N2B N 0.4133(10) -0.4921(8) 1.2154(6)
H2B H 0.4843 -0.4958 1.2377
C1B C 0.3927(4) -0.0452(6) 0.7644(3)
C2B C 0.3509(5) 0.0841(6) 0.7400(3)
H3B H 0.3702 0.1618 0.7720
C3B C 0.2808(5) 0.0988(6) 0.6684(3)
H4B H 0.2525 0.1862 0.6528
C4B C 0.2524(5) -0.0158(5) 0.6196(3)
C5B C 0.2984(5) -0.1430(5) 0.6412(3)
H5B H 0.2824 -0.2195 0.6073
C6B C 0.3684(5) -0.1591(5) 0.7130(3)
H6B H 0.3993 -0.2460 0.7270
C7B C 0.4535(5) -0.0691(7) 0.8480(3)
C8B C 0.1651(4) -0.0017(5) 0.5467(3)
C9B C 1.1249(4) -0.0014(5) 1.0094(4)
C10B C 1.0612(5) 0.1214(6) 1.0193(4)
H7B H 1.1024 0.2028 1.0326
C11B C 1.0628(5) -0.1240(6) 0.9905(4)
H8B H 1.1047 -0.2069 0.9845
C12B C 1.2604(5) -0.0013(6) 1.0189(3)
C13B C 0.3911(7) -0.3895(9) 1.1616(4)
C14B C 0.1777(11) -0.4659(14) 1.1636(10)
H9B H 0.1612 -0.5251 1.1157
H10B H 0.1052 -0.4142 1.1758
C15B C 0.2134(13) -0.5485(18) 1.2343(13)
H11B H 0.1588 -0.5679 1.2760
C16B C 0.3278(13) -0.5983(13) 1.2397(10)
H12B H 0.3454 -0.6276 1.2966
H13B H 0.3355 -0.6785 1.2036
loop_
_geom_bond_atom_site_label_1
_geom_bond_atom_site_label_2
_geom_bond_site_symmetry_1
_geom_bond_site_symmetry_2
Y1 O1 1_555 1_555
O1 C7 1_555 1_555
O2 C7 1_555 1_555
O3 C8 1_555 1_555
O4 C8 1_555 1_555
O5 Y1 1_555 1_555
O6 C12 1_555 1_555
O7 Y1 1_555 1_555
N1 H1 1_555 1_555
N2 H2 1_555 1_555
C1 C2 1_555 1_555
C2 H3 1_555 1_555
C3 C2 1_555 1_555
H4 C3 1_555 1_555
C4 C3 1_555 1_555
C5 C4 1_555 1_555
H5 C5 1_555 1_555
C6 C1 1_555 1_555
H6 C6 1_555 1_555
C7 C1 1_555 1_555
C8 C4 1_555 1_555
C9 C10 1_555 1_555
C10 H7 1_555 1_555
C11 C9 1_555 1_555
H8 C11 1_555 1_555
C12 O5 1_555 1_555
C13 O7 1_555 1_555
C14 N1 1_555 1_555
H9 C14 1_555 1_555
H10 C14 1_555 1_555
C15 C14 1_555 1_555
H11 C15 1_555 1_555
C16 N2 1_555 1_555
H12 C16 1_555 1_555
H13 C16 1_555 1_555
Y1B O2 1_555 1_555
Y1C O3 1_555 1_555
Y1A O4 1_555 1_555
Y1B_2 O5B 1_555 1_555
Y1_2 O6B 1_555 1_555
Y1A_2 O3B 1_555 1_555
Y1C_2 O4B 1_555 1_555
O1B Y1B 1_555 1_555
O2B Y1 1_555 1_555
O3B C8B 1_555 1_555
O3C Y1 1_555 1_555
O3A Y1B 1_555 1_555
O4B C8B 1_555 1_555
O4A Y1 1_555 1_555
O4C Y1B 1_555 1_555
O5B C12B 1_555 1_555
O5B_2 Y1B 1_555 1_555
O6B C12B 1_555 1_555
O6B_2 Y1 1_555 1_555
O7B Y1B 1_555 1_555
N1B H1B 1_555 1_555
N2B H2B 1_555 1_555
C1B C2B 1_555 1_555
C2B H3B 1_555 1_555
C3B C2B 1_555 1_555
H4B C3B 1_555 1_555
C4B C3B 1_555 1_555
C5B C4B 1_555 1_555
H5B C5B 1_555 1_555
C6B C1B 1_555 1_555
H6B C6B 1_555 1_555
C7B O1B 1_555 1_555
C8B C4B 1_555 1_555
C9B C10B 1_555 1_555
C10B C11 1_555 1_555
H7B C10B 1_555 1_555
C11B C10 1_555 1_555
H8B C11B 1_555 1_555
C12B C9B 1_555 1_555
C13B O7B 1_555 1_555
C14B N1B 1_555 1_555
H9B C14B 1_555 1_555
H10B C14B 1_555 1_555
C15B C14B 1_555 1_555
H11B C15B 1_555 1_555
C16B N2B 1_555 1_555
H12B C16B 1_555 1_555
H13B C16B 1_555 1_555
O6 Y1B 1_555 1_555
N1 C13 1_555 1_555
N2 C13 1_555 1_555
C5 C6 1_555 1_555
C9 C12 1_555 1_555
C15 C16 1_555 1_555
O2B C7B 1_555 1_555
N1B C13B 1_555 1_555
N2B C13B 1_555 1_555
C1B C7B 1_555 1_555
C5B C6B 1_555 1_555
C9B C11B 1_555 1_555
C15B C16B 1_555 1_555

#END
