
#######################################################################
#
#                 Cambridge Crystallographic Data Centre
#                                CCDC 
#
#######################################################################
#
# If this CIF has been generated from an entry in the Cambridge 
# Structural Database, then it will include bibliographic, chemical, 
# crystal, experimental, refinement or atomic coordinate data resulting 
# from the CCDC's data processing and validation procedures.
#
#######################################################################

data_LAGNOY
_symmetry_cell_setting           monoclinic
_symmetry_space_group_name_H-M   'C 2/c'
_symmetry_Int_Tables_number      15
_space_group_name_Hall           '-C 2yn'
loop_
_symmetry_equiv_pos_site_id
_symmetry_equiv_pos_as_xyz
1 x,y,z
2 -x,y,1/2-z
3 1/2+x,1/2+y,z
4 1/2-x,1/2+y,1/2-z
5 -x,-y,-z
6 x,-y,1/2+z
7 1/2-x,1/2-y,-z
8 1/2+x,1/2-y,1/2+z
_cell_length_a                   18.178(5)
_cell_length_b                   11.470(3)
_cell_length_c                   18.761(5)
_cell_angle_alpha                90
_cell_angle_beta                 109.247(4)
_cell_angle_gamma                90
_cell_volume                     3693.06
loop_
_atom_site_label
_atom_site_type_symbol
_atom_site_fract_x
_atom_site_fract_y
_atom_site_fract_z
Y1 Y -0.00111(3) 0.56392(4) 0.39565(2)
O1 O -0.0878(2) 0.5727(3) 0.27707(19)
O2 O -0.0858(2) 0.5261(3) 0.16298(19)
O3 O 0.0757(2) 0.4276(3) 0.4760(2)
O4 O -0.4176(2) 0.9090(3) 0.1127(2)
O5 O 0.0998(2) 0.3283(3) 0.5814(2)
C1 C -0.1162(3) 0.5729(4) 0.2069(3)
O6 O -0.4262(2) 0.8349(3) 0.00068(19)
C2 C 0.1847(3) 0.3005(5) 0.5112(3)
C3 C -0.3285(3) 0.7627(5) 0.1070(3)
C4 C -0.3962(3) 0.8422(5) 0.0711(3)
C5 C -0.1934(3) 0.6338(5) 0.1728(3)
C6 C 0.1152(3) 0.3558(5) 0.5233(3)
C7 C 0.2026(3) 0.3232(5) 0.4459(3)
H1 H 0.1708 0.3726 0.4093
O7 O 0.0232(3) 0.7513(4) 0.3540(2)
C8 C -0.2269(4) 0.6954(5) 0.2177(3)
H2 H -0.2041 0.6935 0.2699
C9 C 0.2326(3) 0.2269(5) 0.5651(3)
H3 H 0.2213 0.2110 0.6090
C10 C -0.2294(3) 0.6344(5) 0.0953(3)
H4 H -0.2081 0.5917 0.0647
C11 C -0.2963(3) 0.6979(5) 0.0634(3)
H5 H -0.3203 0.6968 0.0113
C12 C -0.2935(4) 0.7594(6) 0.1855(3)
H6 H -0.3156 0.8007 0.2161
N1 N 0.0600(5) 0.9406(6) 0.3760(5)
C13 C 0.0222(6) 0.8430(8) 0.3816(5)
H7 H -0.0095 0.8484 0.4115
C14 C 0.1067(10) 0.9463(11) 0.3270(11)
H8 H 0.1139 0.8662 0.3143
H9 H 0.0738 0.9825 0.2808
C15 C 0.0578(10) 1.0444(10) 0.4250(8)
H10 H 0.0355 1.0225 0.4635
H11 H 0.1100 1.0740 0.4497
C16 C 0.0118(11) 1.1287(16) 0.3772(10)
H12 H 0.0097 1.1971 0.4059
H13 H -0.0399 1.0987 0.3540
H14 H 0.0340 1.1482 0.3389
C17 C 0.1696(13) 0.9922(18) 0.3411(11)
H15 H 0.1866 0.9869 0.2979
H16 H 0.2065 0.9534 0.3832
H17 H 0.1659 1.0727 0.3535
Y1A Y 0.00111(3) 0.56392(4) 0.10435(2)
Y1B Y 0.49889(3) 0.06392(4) 0.39565(2)
Y1B_2 Y 0.49889(3) 1.06392(4) 0.39565(2)
Y1C Y -0.49889(3) 1.06392(4) 0.10435(2)
Y1D Y 0.00111(3) 0.43608(4) 0.60435(2)
Y1F Y 0.50111(3) -0.06392(4) 0.60435(2)
Y1F_2 Y 0.50111(3) 0.93608(4) 0.60435(2)
Y1G Y -0.50111(3) 0.93608(4) -0.10435(2)
O1A O 0.0878(2) 0.5727(3) 0.22293(19)
O2A O 0.0858(2) 0.5261(3) 0.33702(19)
O3F O 0.4243(2) 0.0724(3) 0.5240(2)
O3A O -0.0757(2) 0.4276(3) 0.0240(2)
O4A O 0.4176(2) 0.9090(3) 0.3873(2)
O4B O 0.0824(2) 0.4090(3) 0.1127(2)
O4C O -0.0824(2) 0.4090(3) 0.3873(2)
O5F O 0.4002(2) 0.1717(3) 0.4186(2)
O5D O -0.0998(2) 0.6717(3) 0.4186(2)
O5E O 0.0998(2) 0.6717(3) 0.0814(2)
C1A C 0.1162(3) 0.5729(4) 0.2931(3)
O6A O 0.4262(2) 0.8349(3) 0.49932(19)
O6F O -0.0738(2) 0.6651(3) -0.00068(19)
O6G O 0.0738(2) 0.6651(3) 0.50068(19)
C2F C 0.3153(3) 0.1995(5) 0.4888(3)
C3A C 0.3285(3) 0.7627(5) 0.3930(3)
C4A C 0.3962(3) 0.8422(5) 0.4289(3)
C5A C 0.1934(3) 0.6338(5) 0.3272(3)
C6F C 0.3848(3) 0.1442(5) 0.4767(3)
C7F C 0.2974(3) 0.1768(5) 0.5541(3)
H1F H 0.3292 0.1274 0.5907
O7A O -0.0232(3) 0.7513(4) 0.1460(2)
C8A C 0.2269(4) 0.6954(5) 0.2823(3)
H2A H 0.2041 0.6935 0.2301
C9F C 0.2674(3) 0.2731(5) 0.4349(3)
H3F H 0.2787 0.2890 0.3910
C10A C 0.2294(3) 0.6344(5) 0.4047(3)
H4A H 0.2081 0.5917 0.4353
C11A C 0.2963(3) 0.6979(5) 0.4366(3)
H5A H 0.3203 0.6968 0.4887
C12A C 0.2935(4) 0.7594(6) 0.3145(3)
H6A H 0.3156 0.8007 0.2839
N1A N -0.0600(5) 0.9406(6) 0.1240(5)
C13A C -0.0222(6) 0.8430(8) 0.1184(5)
H7A H 0.0095 0.8484 0.0885
C14A C -0.1067(10) 0.9463(11) 0.1730(11)
H8A H -0.1139 0.8662 0.1857
H9A H -0.0738 0.9825 0.2192
C15A C -0.0578(10) 1.0444(10) 0.0750(8)
H10A H -0.0355 1.0225 0.0365
H11A H -0.1100 1.0740 0.0503
C16A C -0.0118(11) 1.1287(16) 0.1228(10)
H12A H -0.0097 1.1971 0.0941
H13A H 0.0399 1.0987 0.1460
H14A H -0.0340 1.1482 0.1611
C17A C -0.1696(13) 0.9922(18) 0.1589(11)
H15A H -0.1866 0.9869 0.2021
H16A H -0.2065 0.9534 0.1168
H17A H -0.1659 1.0727 0.1465
loop_
_geom_bond_atom_site_label_1
_geom_bond_atom_site_label_2
_geom_bond_site_symmetry_1
_geom_bond_site_symmetry_2
Y1 O1 1_555 1_555
O1 C1 1_555 1_555
O2 C1 1_555 1_555
O3 Y1 1_555 1_555
O4 C4 1_555 1_555
O5 C6 1_555 1_555
C1 C5 1_555 1_555
O6 C4 1_555 1_555
C2 C6 1_555 1_555
C3 C4 1_555 1_555
C5 C8 1_555 1_555
C6 O3 1_555 1_555
C7 C2 1_555 1_555
H1 C7 1_555 1_555
O7 Y1 1_555 1_555
C8 H2 1_555 1_555
C9 C2 1_555 1_555
H3 C9 1_555 1_555
C10 C5 1_555 1_555
H4 C10 1_555 1_555
C11 C3 1_555 1_555
H5 C11 1_555 1_555
C12 C3 1_555 1_555
H6 C12 1_555 1_555
N1 C13 1_555 1_555
C13 O7 1_555 1_555
H7 C13 1_555 1_555
C14 N1 1_555 1_555
H8 C14 1_555 1_555
H9 C14 1_555 1_555
C15 N1 1_555 1_555
H10 C15 1_555 1_555
H11 C15 1_555 1_555
C16 C15 1_555 1_555
H12 C16 1_555 1_555
H13 C16 1_555 1_555
H14 C16 1_555 1_555
C17 C14 1_555 1_555
H15 C17 1_555 1_555
H16 C17 1_555 1_555
H17 C17 1_555 1_555
Y1A O2 1_555 1_555
Y1B O5F 1_555 1_555
Y1B_2 O4A 1_555 1_555
Y1C O4 1_555 1_555
Y1D O5 1_555 1_555
Y1F O3F 1_555 1_555
Y1F_2 O6A 1_555 1_555
Y1G O6 1_555 1_555
O1A Y1A 1_555 1_555
O2A Y1 1_555 1_555
O3F C6F 1_555 1_555
O3A Y1A 1_555 1_555
O4A C4A 1_555 1_555
O4B Y1A 1_555 1_555
O4C Y1 1_555 1_555
O5F C6F 1_555 1_555
O5D Y1 1_555 1_555
O5E Y1A 1_555 1_555
C1A O1A 1_555 1_555
O6A C4A 1_555 1_555
O6F Y1A 1_555 1_555
O6G Y1 1_555 1_555
C2F C6F 1_555 1_555
C3A C4A 1_555 1_555
C5A C1A 1_555 1_555
C7F C9 1_555 1_555
H1F C7F 1_555 1_555
O7A Y1A 1_555 1_555
C8A C5A 1_555 1_555
H2A C8A 1_555 1_555
C9F C7 1_555 1_555
H3F C9F 1_555 1_555
C10A C5A 1_555 1_555
H4A C10A 1_555 1_555
C11A C3A 1_555 1_555
H5A C11A 1_555 1_555
C12A C3A 1_555 1_555
H6A C12A 1_555 1_555
N1A C13A 1_555 1_555
C13A O7A 1_555 1_555
H7A C13A 1_555 1_555
C14A N1A 1_555 1_555
H8A C14A 1_555 1_555
H9A C14A 1_555 1_555
C15A N1A 1_555 1_555
H10A C15A 1_555 1_555
H11A C15A 1_555 1_555
C16A C15A 1_555 1_555
H12A C16A 1_555 1_555
H13A C16A 1_555 1_555
H14A C16A 1_555 1_555
C17A C14A 1_555 1_555
H15A C17A 1_555 1_555
H16A C17A 1_555 1_555
H17A C17A 1_555 1_555
C8 C12 1_555 1_555
C10 C11 1_555 1_555
O2A C1A 1_555 1_555
C2F C7F 1_555 1_555
C2F C9F 1_555 1_555
C8A C12A 1_555 1_555
C10A C11A 1_555 1_555

#END
