
#######################################################################
#
#                 Cambridge Crystallographic Data Centre
#                                CCDC 
#
#######################################################################
#
# If this CIF has been generated from an entry in the Cambridge 
# Structural Database, then it will include bibliographic, chemical, 
# crystal, experimental, refinement or atomic coordinate data resulting 
# from the CCDC's data processing and validation procedures.
#
#######################################################################

data_LAGPUG
_symmetry_cell_setting           monoclinic
_symmetry_space_group_name_H-M   'C 2/c'
_symmetry_Int_Tables_number      15
_space_group_name_Hall           '-C 2yn'
loop_
_symmetry_equiv_pos_site_id
_symmetry_equiv_pos_as_xyz
1 x,y,z
2 -x,y,1/2-z
3 1/2+x,1/2+y,z
4 1/2-x,1/2+y,1/2-z
5 -x,-y,-z
6 x,-y,1/2+z
7 1/2-x,1/2-y,-z
8 1/2+x,1/2-y,1/2+z
_cell_length_a                   20.9751(2)
_cell_length_b                   10.71590(10)
_cell_length_c                   16.53970(10)
_cell_angle_alpha                90
_cell_angle_beta                 112.2050(10)
_cell_angle_gamma                90
_cell_volume                     3441.88
loop_
_atom_site_label
_atom_site_type_symbol
_atom_site_fract_x
_atom_site_fract_y
_atom_site_fract_z
Nd1 Nd 0.502137(8) 0.523547(15) 0.872536(9)
O1 O 0.60675(11) 0.5303(2) 1.12086(14)
O2 O 0.61622(11) 0.4947(2) 0.99245(14)
O3 O 0.92834(11) 0.8151(2) 1.15204(15)
O4 O 0.92332(11) 0.8215(2) 1.28454(14)
O5 O 0.50194(11) 0.3425(2) 1.01701(13)
O6 O 0.51160(11) 0.2927(2) 0.89270(13)
O7 O 0.56943(11) 0.4334(2) 0.78460(13)
C1 C 0.71098(15) 0.5849(3) 1.10836(19)
C2 C 0.74859(16) 0.6036(3) 1.05607(19)
H1 H 0.7314 0.5750 0.9987
C3 C 0.81111(16) 0.6640(3) 1.0885(2)
H2 H 0.8360 0.6755 1.0530
C4 C 0.83738(16) 0.7082(3) 1.17390(19)
C5 C 0.80169(17) 0.6841(3) 1.2273(2)
H3 H 0.8199 0.7090 1.2854
C6 C 0.73902(17) 0.6233(3) 1.1948(2)
H4 H 0.7154 0.6079 1.2313
C7 C 0.63943(16) 0.5313(3) 1.0715(2)
C8 C 0.90165(16) 0.7870(3) 1.2059(2)
C9 C 0.50391(16) 0.1264(3) 0.98340(19)
C10 C 0.4934(2) 0.0883(3) 1.0573(2)
H5 H 0.4886 0.1473 1.0958
C11 C 0.4900(2) -0.0371(3) 1.0737(2)
H6 H 0.4834 -0.0621 1.1238
C12 C 0.50628(16) 0.2622(3) 0.96406(19)
C13 C 0.60763(17) 0.3398(3) 0.8077(2)
C14 C 0.6874(2) 0.2020(4) 0.8973(2)
H7 H 0.6716 0.1575 0.9373
H8 H 0.7374 0.1999 0.9196
C15 C 0.6564(2) 0.1470(4) 0.8054(2)
H9 H 0.6899 0.1441 0.7780
H10 H 0.6383 0.0638 0.8059
N1 N 0.66180(15) 0.3297(3) 0.88404(18)
H11 H 0.6789 0.3902 0.9199
N2 N 0.60186(16) 0.2356(3) 0.76216(18)
H12 H 0.5693 0.2220 0.7124
Nd1A Nd 0.497863(8) 0.523547(15) 0.627464(9)
Nd1_2 Nd 0.502137(8) -0.476453(15) 0.872536(9)
Nd1D Nd 0.497863(8) -0.523547(15) 1.127464(9)
Nd1D_2 Nd 0.497863(8) 0.476453(15) 1.127464(9)
Nd1E Nd 0.502137(8) 0.476453(15) 0.372536(9)
Nd1F Nd -0.002137(8) 0.976453(15) 0.127464(9)
Nd1F_2 Nd 0.997863(8) 0.976453(15) 1.127464(9)
Nd1G Nd 0.002137(8) 0.976453(15) 0.372536(9)
Nd1G_2 Nd 1.002137(8) 0.976453(15) 1.372536(9)
O1A O 0.39325(11) 0.5303(2) 0.37914(14)
O1D O 0.39325(11) 0.4697(2) 0.87914(14)
O1E O 0.60675(11) 0.4697(2) 0.62086(14)
O2A O 0.38378(11) 0.4947(2) 0.50755(14)
O3A O 0.07166(11) 0.8151(2) 0.34796(15)
O3F O 0.57166(11) 0.6849(2) 0.84796(15)
O3G O 0.42834(11) 0.6849(2) 0.65204(15)
O4A O 0.07668(11) 0.8215(2) 0.21546(14)
O4F O 0.57668(11) 0.6785(2) 0.71546(14)
O4G O 0.42332(11) 0.6785(2) 0.78454(14)
O5D O 0.49806(11) -0.3425(2) 0.98299(13)
O5D_2 O 0.49806(11) 0.6575(2) 0.98299(13)
O5E O 0.50194(11) 0.6575(2) 0.51701(13)
O6D O 0.48840(11) -0.2927(2) 1.10730(13)
O6A O 0.48840(11) 0.2927(2) 0.60730(13)
O7A O 0.43057(11) 0.4334(2) 0.71540(13)
C1A C 0.28902(15) 0.5849(3) 0.39164(19)
C2A C 0.25141(16) 0.6036(3) 0.44393(19)
H1A H 0.2686 0.5750 0.5013
C3A C 0.18889(16) 0.6640(3) 0.4115(2)
H2A H 0.1640 0.6755 0.4470
C4A C 0.16262(16) 0.7082(3) 0.32610(19)
C5A C 0.19831(17) 0.6841(3) 0.2727(2)
H3A H 0.1801 0.7090 0.2146
C6A C 0.26098(17) 0.6233(3) 0.3052(2)
H4A H 0.2846 0.6079 0.2687
C7A C 0.36057(16) 0.5313(3) 0.4285(2)
C8A C 0.09835(16) 0.7870(3) 0.2941(2)
C9D C 0.49609(16) -0.1264(3) 1.01660(19)
C10D C 0.5066(2) -0.0883(3) 0.9427(2)
H5D H 0.5114 -0.1473 0.9042
C11D C 0.5100(2) 0.0371(3) 0.9263(2)
H6D H 0.5166 0.0621 0.8762
C12D C 0.49372(16) -0.2622(3) 1.03594(19)
C13A C 0.39237(17) 0.3398(3) 0.6923(2)
C14A C 0.3126(2) 0.2020(4) 0.6027(2)
H7A H 0.3284 0.1575 0.5627
H8A H 0.2626 0.1999 0.5804
C15A C 0.3436(2) 0.1470(4) 0.6946(2)
H9A H 0.3101 0.1441 0.7220
H10A H 0.3617 0.0638 0.6941
N1A N 0.33820(15) 0.3297(3) 0.61596(18)
H11A H 0.3211 0.3902 0.5801
N2A N 0.39814(16) 0.2356(3) 0.73784(18)
H12A H 0.4307 0.2220 0.7876
loop_
_geom_bond_atom_site_label_1
_geom_bond_atom_site_label_2
_geom_bond_site_symmetry_1
_geom_bond_site_symmetry_2
Nd1 O2 1_555 1_555
O1 C7 1_555 1_555
O2 C7 1_555 1_555
O3 C8 1_555 1_555
O4 C8 1_555 1_555
O5 C12 1_555 1_555
O6 Nd1 1_555 1_555
O7 Nd1 1_555 1_555
C1 C2 1_555 1_555
C2 H1 1_555 1_555
C3 C2 1_555 1_555
H2 C3 1_555 1_555
C4 C3 1_555 1_555
C5 C4 1_555 1_555
H3 C5 1_555 1_555
C6 C1 1_555 1_555
H4 C6 1_555 1_555
C7 C1 1_555 1_555
C8 C4 1_555 1_555
C9 C10 1_555 1_555
C10 H5 1_555 1_555
C11 C10 1_555 1_555
H6 C11 1_555 1_555
C12 O6 1_555 1_555
C13 O7 1_555 1_555
C14 H7 1_555 1_555
H8 C14 1_555 1_555
C15 C14 1_555 1_555
H9 C15 1_555 1_555
H10 C15 1_555 1_555
N1 C13 1_555 1_555
H11 N1 1_555 1_555
N2 C13 1_555 1_555
H12 N2 1_555 1_555
Nd1A O7 1_555 1_555
Nd1_2 O5D 1_555 1_555
Nd1D O6D 1_555 1_555
Nd1D_2 O1 1_555 1_555
Nd1E O1A 1_555 1_555
Nd1F O4A 1_555 1_555
Nd1F_2 O3 1_555 1_555
Nd1G O3A 1_555 1_555
Nd1G_2 O4 1_555 1_555
O1A C7A 1_555 1_555
O1D Nd1 1_555 1_555
O1E Nd1A 1_555 1_555
O2A Nd1A 1_555 1_555
O3A C8A 1_555 1_555
O3F Nd1 1_555 1_555
O3G Nd1A 1_555 1_555
O4A C8A 1_555 1_555
O4F Nd1A 1_555 1_555
O4G Nd1 1_555 1_555
O5D C12D 1_555 1_555
O5D_2 Nd1 1_555 1_555
O5E Nd1A 1_555 1_555
O6D C12D 1_555 1_555
O6A Nd1A 1_555 1_555
O7A Nd1 1_555 1_555
C1A C2A 1_555 1_555
C2A H1A 1_555 1_555
C3A C2A 1_555 1_555
H2A C3A 1_555 1_555
C4A C3A 1_555 1_555
C5A C4A 1_555 1_555
H3A C5A 1_555 1_555
C6A C1A 1_555 1_555
H4A C6A 1_555 1_555
C7A O2A 1_555 1_555
C8A C4A 1_555 1_555
C9D C11 1_555 1_555
C10D C9D 1_555 1_555
H5D C10D 1_555 1_555
C11D C9 1_555 1_555
H6D C11D 1_555 1_555
C12D C9D 1_555 1_555
C13A O7A 1_555 1_555
C14A H7A 1_555 1_555
H8A C14A 1_555 1_555
C15A C14A 1_555 1_555
H9A C15A 1_555 1_555
H10A C15A 1_555 1_555
N1A C13A 1_555 1_555
H11A N1A 1_555 1_555
N2A C13A 1_555 1_555
H12A N2A 1_555 1_555
O5 Nd1D_2 1_555 1_555
C5 C6 1_555 1_555
C9 C12 1_555 1_555
C14 N1 1_555 1_555
C15 N2 1_555 1_555
Nd1A O7A 1_555 1_555
C1A C7A 1_555 1_555
C5A C6A 1_555 1_555
C10D C11D 1_555 1_555
C14A N1A 1_555 1_555
C15A N2A 1_555 1_555

#END
