
#######################################################################
#
#                 Cambridge Crystallographic Data Centre
#                                CCDC 
#
#######################################################################
#
# If this CIF has been generated from an entry in the Cambridge 
# Structural Database, then it will include bibliographic, chemical, 
# crystal, experimental, refinement or atomic coordinate data resulting 
# from the CCDC's data processing and validation procedures.
#
#######################################################################

data_LAGPOA
_symmetry_cell_setting           triclinic
_symmetry_space_group_name_H-M   'P -1'
_symmetry_Int_Tables_number      2
_space_group_name_Hall           '-P 1'
loop_
_symmetry_equiv_pos_site_id
_symmetry_equiv_pos_as_xyz
1 x,y,z
2 -x,-y,-z
_cell_length_a                   8.78000(10)
_cell_length_b                   10.18240(10)
_cell_length_c                   11.11540(10)
_cell_angle_alpha                65.8620(10)
_cell_angle_beta                 69.1310(10)
_cell_angle_gamma                78.0050(10)
_cell_volume                     845.099
loop_
_atom_site_label
_atom_site_type_symbol
_atom_site_fract_x
_atom_site_fract_y
_atom_site_fract_z
Ce1 Ce 0.650548(18) 0.433548(16) 0.140137(16)
O1 O 0.3584(3) 0.3709(2) 0.2720(2)
O2 O 0.8284(3) 0.5503(3) -0.0977(3)
H1 H 0.8972 0.6043 -0.1045
H2 H 0.7778 0.5849 -0.1599
O3 O 0.4425(3) 0.5238(3) 0.3249(3)
O4 O 0.4799(3) 0.6375(2) 0.0094(2)
O5 O 0.2704(3) 0.7749(3) -0.0482(3)
O6 O 0.6750(3) 0.2288(3) 0.3577(3)
O7 O 0.9094(3) 0.2876(2) 0.1952(2)
O8 O 0.7954(3) 0.5886(3) 0.1700(3)
C1 C 0.3308(4) 0.4564(4) 0.3356(3)
C2 C 0.1596(4) 0.4794(4) 0.4215(3)
C3 C 0.1197(4) 0.5820(4) 0.4821(4)
H3 H 0.2000 0.6370 0.4702
C4 C 0.0383(4) 0.3978(4) 0.4405(4)
H4 H 0.0646 0.3287 0.4002
C5 C 0.3946(4) 0.7566(3) -0.0116(3)
C6 C 0.4496(4) 0.8807(3) -0.0025(3)
C7 C 0.6114(4) 0.8864(3) -0.0181(4)
H5 H 0.6863 0.8099 -0.0296
C8 C 0.3369(4) 0.9948(3) 0.0167(4)
H6 H 0.2273 0.9911 0.0286
C9 C 0.8285(4) 0.2115(3) 0.3155(4)
C10 C 0.9164(4) 0.1005(3) 0.4108(3)
C11 C 1.0846(4) 0.0713(4) 0.3633(4)
H7 H 1.1419 0.1191 0.2712
C12 C 0.8331(4) 0.0279(4) 0.5480(4)
H8 H 0.7207 0.0462 0.5808
C13 C 0.7935(4) 0.6842(4) 0.2133(4)
C14 C 0.7031(6) 0.8432(4) 0.3287(5)
H9 H 0.6907 0.8218 0.4250
H10 H 0.6304 0.9266 0.2972
C15 C 0.8779(5) 0.8683(4) 0.2403(5)
H11 H 0.8890 0.9678 0.1768
H12 H 0.9496 0.8441 0.2967
N1 N 0.6709(4) 0.7191(4) 0.3100(4)
H13 H 0.5832 0.6740 0.3558
N2 N 0.9131(4) 0.7707(3) 0.1661(4)
H14 H 1.0010 0.7692 0.0997
Ce1A Ce -0.650548(18) 0.566452(16) 0.859863(16)
Ce1A_2 Ce 0.349452(18) 0.566452(16) -0.140137(16)
Ce1A_3 Ce 0.349452(18) 1.566452(16) -0.140137(16)
Ce1_2 Ce 0.650548(18) 1.433548(16) 0.140137(16)
Ce1A_4 Ce 1.349452(18) -0.433548(16) 0.859863(16)
O1A O -0.3584(3) 0.6291(2) 0.7280(2)
O2A O -0.8284(3) 0.4497(3) 1.0977(3)
H1A H -0.8972 0.3957 1.1045
H2A H -0.7778 0.4151 1.1599
O3A O -0.4425(3) 0.4762(3) 0.6751(3)
O4A O 0.5201(3) 1.3625(2) -0.0094(2)
O4A_2 O 0.5201(3) 0.3625(2) -0.0094(2)
O4A_3 O -0.4799(3) 0.3625(2) 0.9906(2)
O4_2 O -0.5201(3) 0.6375(2) 1.0094(2)
O5A O 0.7296(3) 1.2251(3) 0.0482(3)
O5A_2 O 0.7296(3) 0.2251(3) 0.0482(3)
O5_2 O -0.7296(3) 0.7749(3) 0.9518(3)
O6A O 1.3250(3) -0.2288(3) 0.6423(3)
O6A_2 O -0.6750(3) 0.7712(3) 0.6423(3)
O7A O 1.0906(3) -0.2876(2) 0.8048(2)
O7A_2 O -0.9094(3) 0.7124(2) 0.8048(2)
O8A O -0.7954(3) 0.4114(3) 0.8300(3)
C1A C -0.3308(4) 0.5436(4) 0.6644(3)
C2A C -0.1596(4) 0.5206(4) 0.5785(3)
C3A C -0.1197(4) 0.4180(4) 0.5179(4)
H3A H -0.2000 0.3630 0.5298
C4A C -0.0383(4) 0.6022(4) 0.5595(4)
H4A H -0.0646 0.6713 0.5998
C5A C 0.6054(4) 1.2434(3) 0.0116(3)
C6A C 0.5504(4) 1.1193(3) 0.0025(3)
C7A C 0.3886(4) 1.1136(3) 0.0181(4)
H5A H 0.3137 1.1901 0.0296
C8A C 0.6631(4) 1.0052(3) -0.0167(4)
H6A H 0.7727 1.0089 -0.0286
C9A C 1.1715(4) -0.2115(3) 0.6845(4)
C10A C 1.0836(4) -0.1005(3) 0.5892(3)
C11A C 0.9154(4) -0.0713(4) 0.6367(4)
H7A H 0.8581 -0.1191 0.7288
C12A C 1.1669(4) -0.0279(4) 0.4520(4)
H8A H 1.2793 -0.0462 0.4192
C13A C -0.7935(4) 0.3158(4) 0.7867(4)
C14A C -0.7031(6) 0.1568(4) 0.6713(5)
H9A H -0.6907 0.1782 0.5750
H10A H -0.6304 0.0734 0.7028
C15A C -0.8779(5) 0.1317(4) 0.7597(5)
H11A H -0.8890 0.0322 0.8232
H12A H -0.9496 0.1559 0.7033
N1A N -0.6709(4) 0.2809(4) 0.6900(4)
H13A H -0.5832 0.3260 0.6442
N2A N -0.9131(4) 0.2293(3) 0.8339(4)
H14A H -1.0010 0.2308 0.9003
loop_
_geom_bond_atom_site_label_1
_geom_bond_atom_site_label_2
_geom_bond_site_symmetry_1
_geom_bond_site_symmetry_2
Ce1 O1 1_555 1_555
O1 C1 1_555 1_555
O2 Ce1 1_555 1_555
H1 O2 1_555 1_555
H2 O2 1_555 1_555
O3 Ce1 1_555 1_555
O4 Ce1 1_555 1_555
O5 C5 1_555 1_555
O6 Ce1 1_555 1_555
O7 Ce1 1_555 1_555
O8 Ce1 1_555 1_555
C1 O3 1_555 1_555
C2 C1 1_555 1_555
C3 C2 1_555 1_555
H3 C3 1_555 1_555
C4 C2 1_555 1_555
H4 C4 1_555 1_555
C5 O4 1_555 1_555
C6 C5 1_555 1_555
C7 C6 1_555 1_555
H5 C7 1_555 1_555
C8 C6 1_555 1_555
H6 C8 1_555 1_555
C9 O6 1_555 1_555
C10 C9 1_555 1_555
C11 C10 1_555 1_555
H7 C11 1_555 1_555
C12 C10 1_555 1_555
H8 C12 1_555 1_555
C13 O8 1_555 1_555
C14 H9 1_555 1_555
H10 C14 1_555 1_555
C15 C14 1_555 1_555
H11 C15 1_555 1_555
H12 C15 1_555 1_555
N1 C13 1_555 1_555
H13 N1 1_555 1_555
N2 C13 1_555 1_555
H14 N2 1_555 1_555
Ce1A O1A 1_555 1_555
Ce1A_2 O4 1_555 1_555
Ce1A_3 O4A 1_555 1_555
Ce1_2 O4A 1_555 1_555
Ce1A_4 O6A 1_555 1_555
O1A C1A 1_555 1_555
O2A Ce1A 1_555 1_555
H1A O2A 1_555 1_555
H2A O2A 1_555 1_555
O3A Ce1A 1_555 1_555
O4A C5A 1_555 1_555
O4A_2 Ce1 1_555 1_555
O4A_3 Ce1A 1_555 1_555
O4_2 Ce1A 1_555 1_555
O5A Ce1_2 1_555 1_555
O5A_2 Ce1 1_555 1_555
O5_2 Ce1A 1_555 1_555
O6A C9A 1_555 1_555
O6A_2 Ce1A 1_555 1_555
O7A Ce1A_4 1_555 1_555
O7A_2 Ce1A 1_555 1_555
O8A Ce1A 1_555 1_555
C1A O3A 1_555 1_555
C2A C1A 1_555 1_555
C3A C4 1_555 1_555
H3A C3A 1_555 1_555
C4A C3 1_555 1_555
H4A C4A 1_555 1_555
C5A O5A 1_555 1_555
C6A C5A 1_555 1_555
C7A C8 1_555 1_555
H5A C7A 1_555 1_555
C8A C7 1_555 1_555
H6A C8A 1_555 1_555
C9A O7A 1_555 1_555
C10A C9A 1_555 1_555
C11A C12 1_555 1_555
H7A C11A 1_555 1_555
C12A C11 1_555 1_555
H8A C12A 1_555 1_555
C13A O8A 1_555 1_555
C14A H9A 1_555 1_555
H10A C14A 1_555 1_555
C15A C14A 1_555 1_555
H11A C15A 1_555 1_555
H12A C15A 1_555 1_555
N1A C13A 1_555 1_555
H13A N1A 1_555 1_555
N2A C13A 1_555 1_555
H14A N2A 1_555 1_555
O5 Ce1A_2 1_555 1_555
O7 C9 1_555 1_555
C14 N1 1_555 1_555
C15 N2 1_555 1_555
Ce1A_2 O4A_2 1_555 1_555
C2A C3A 1_555 1_555
C2A C4A 1_555 1_555
C6A C7A 1_555 1_555
C6A C8A 1_555 1_555
C10A C11A 1_555 1_555
C10A C12A 1_555 1_555
C14A N1A 1_555 1_555
C15A N2A 1_555 1_555

#END
