
#######################################################################
#
#                 Cambridge Crystallographic Data Centre
#                                CCDC 
#
#######################################################################
#
# If this CIF has been generated from an entry in the Cambridge 
# Structural Database, then it will include bibliographic, chemical, 
# crystal, experimental, refinement or atomic coordinate data resulting 
# from the CCDC's data processing and validation procedures.
#
#######################################################################

data_LAGPIU
_symmetry_cell_setting           monoclinic
_symmetry_space_group_name_H-M   'C 2/c'
_symmetry_Int_Tables_number      15
_space_group_name_Hall           '-C 2yn'
loop_
_symmetry_equiv_pos_site_id
_symmetry_equiv_pos_as_xyz
1 x,y,z
2 -x,y,1/2-z
3 1/2+x,1/2+y,z
4 1/2-x,1/2+y,1/2-z
5 -x,-y,-z
6 x,-y,1/2+z
7 1/2-x,1/2-y,-z
8 1/2+x,1/2-y,1/2+z
_cell_length_a                   20.9724(2)
_cell_length_b                   10.70560(10)
_cell_length_c                   16.5166(2)
_cell_angle_alpha                90
_cell_angle_beta                 111.7430(10)
_cell_angle_gamma                90
_cell_volume                     3444.51
loop_
_atom_site_label
_atom_site_type_symbol
_atom_site_fract_x
_atom_site_fract_y
_atom_site_fract_z
Pr1 Pr 0.502201(6) 0.523225(14) 0.872864(8)
O1 O 0.60681(10) 0.53186(19) 1.11963(12)
O2 O 0.61741(9) 0.49548(19) 0.99159(12)
O3 O 0.93020(9) 0.81344(19) 1.15543(12)
O4 O 0.92225(9) 0.82002(19) 1.28655(12)
O5 O 0.50252(9) 0.34370(18) 1.01467(11)
O6 O 0.51238(9) 0.29067(19) 0.89043(11)
O7 O 0.56989(9) 0.43392(19) 0.78352(11)
C1 C 0.71177(13) 0.5849(3) 1.10789(16)
C2 C 0.74985(13) 0.6038(3) 1.05558(16)
H1 H 0.7332 0.5756 0.9982
C3 C 0.81262(13) 0.6649(3) 1.08907(17)
H2 H 0.8379 0.6777 1.0539
C4 C 0.83805(13) 0.7069(3) 1.17492(16)
C5 C 0.80155(14) 0.6823(3) 1.22809(17)
H3 H 0.8192 0.7068 1.2862
C6 C 0.73873(14) 0.6213(3) 1.19478(17)
H4 H 0.7146 0.6046 1.2308
C7 C 0.64011(14) 0.5318(3) 1.07077(17)
C8 C 0.90207(13) 0.7856(3) 1.20843(17)
C9 C 0.50424(14) 0.1265(3) 0.98275(17)
C10 C 0.49252(15) 0.0896(3) 1.05694(18)
H5 H 0.4876 0.1494 1.0951
C11 C 0.48820(16) -0.0356(3) 1.07374(19)
H6 H 0.4802 -0.0599 1.1232
C12 C 0.50709(13) 0.2613(3) 0.96225(16)
C13 C 0.60846(14) 0.3402(3) 0.80702(17)
C14 C 0.68757(18) 0.2034(3) 0.8968(2)
H7 H 0.6697 0.1600 0.9355
H8 H 0.7373 0.1995 0.9208
C15 C 0.65829(17) 0.1491(3) 0.80432(19)
H9 H 0.6919 0.1507 0.7768
H10 H 0.6420 0.0643 0.8042
N1 N 0.66330(12) 0.3324(2) 0.88243(15)
H11 H 0.6812 0.3940 0.9168
N2 N 0.60186(12) 0.2351(2) 0.76203(15)
H12 H 0.5684 0.2196 0.7139
Pr1A Pr 0.497799(6) 0.523225(14) 0.627136(8)
Pr1_2 Pr 0.502201(6) -0.476775(14) 0.872864(8)
Pr1D Pr 0.497799(6) -0.523225(14) 1.127136(8)
Pr1D_2 Pr 0.497799(6) 0.476775(14) 1.127136(8)
Pr1E Pr 0.502201(6) 0.476775(14) 0.372864(8)
Pr1F Pr -0.002201(6) 0.976775(14) 0.127136(8)
Pr1F_2 Pr 0.997799(6) 0.976775(14) 1.127136(8)
Pr1G Pr 0.002201(6) 0.976775(14) 0.372864(8)
Pr1G_2 Pr 1.002201(6) 0.976775(14) 1.372864(8)
O1A O 0.39319(10) 0.53186(19) 0.38037(12)
O1D O 0.39319(10) 0.46814(19) 0.88037(12)
O1E O 0.60681(10) 0.46814(19) 0.61963(12)
O2A O 0.38259(9) 0.49548(19) 0.50841(12)
O3A O 0.06980(9) 0.81344(19) 0.34457(12)
O3F O 0.56980(9) 0.68656(19) 0.84457(12)
O3G O 0.43020(9) 0.68656(19) 0.65543(12)
O4A O 0.07775(9) 0.82002(19) 0.21345(12)
O4F O 0.57775(9) 0.67998(19) 0.71345(12)
O4G O 0.42225(9) 0.67998(19) 0.78655(12)
O5D O 0.49748(9) -0.34370(18) 0.98533(11)
O5D_2 O 0.49748(9) 0.65630(18) 0.98533(11)
O5E O 0.50252(9) 0.65630(18) 0.51467(11)
O6D O 0.48762(9) -0.29067(19) 1.10957(11)
O6A O 0.48762(9) 0.29067(19) 0.60957(11)
O7A O 0.43011(9) 0.43392(19) 0.71648(11)
C1A C 0.28823(13) 0.5849(3) 0.39211(16)
C2A C 0.25015(13) 0.6038(3) 0.44442(16)
H1A H 0.2668 0.5756 0.5018
C3A C 0.18738(13) 0.6649(3) 0.41093(17)
H2A H 0.1621 0.6777 0.4461
C4A C 0.16195(13) 0.7069(3) 0.32508(16)
C5A C 0.19845(14) 0.6823(3) 0.27191(17)
H3A H 0.1808 0.7068 0.2138
C6A C 0.26127(14) 0.6213(3) 0.30522(17)
H4A H 0.2854 0.6046 0.2692
C7A C 0.35989(14) 0.5318(3) 0.42923(17)
C8A C 0.09793(13) 0.7856(3) 0.29157(17)
C9D C 0.49576(14) -0.1265(3) 1.01725(17)
C10D C 0.50748(15) -0.0896(3) 0.94306(18)
H5D H 0.5124 -0.1494 0.9049
C11D C 0.51180(16) 0.0356(3) 0.92626(19)
H6D H 0.5198 0.0599 0.8768
C12D C 0.49291(13) -0.2613(3) 1.03775(16)
C13A C 0.39154(14) 0.3402(3) 0.69298(17)
C14A C 0.31243(18) 0.2034(3) 0.6032(2)
H7A H 0.3303 0.1600 0.5645
H8A H 0.2627 0.1995 0.5792
C15A C 0.34171(17) 0.1491(3) 0.69568(19)
H9A H 0.3081 0.1507 0.7232
H10A H 0.3580 0.0643 0.6958
N1A N 0.33670(12) 0.3324(2) 0.61757(15)
H11A H 0.3188 0.3940 0.5832
N2A N 0.39814(12) 0.2351(2) 0.73797(15)
H12A H 0.4316 0.2196 0.7861
loop_
_geom_bond_atom_site_label_1
_geom_bond_atom_site_label_2
_geom_bond_site_symmetry_1
_geom_bond_site_symmetry_2
Pr1 O2 1_555 1_555
O1 C7 1_555 1_555
O2 C7 1_555 1_555
O3 C8 1_555 1_555
O4 C8 1_555 1_555
O5 C12 1_555 1_555
O6 Pr1 1_555 1_555
O7 Pr1 1_555 1_555
C1 C2 1_555 1_555
C2 H1 1_555 1_555
C3 C2 1_555 1_555
H2 C3 1_555 1_555
C4 C3 1_555 1_555
C5 C4 1_555 1_555
H3 C5 1_555 1_555
C6 C1 1_555 1_555
H4 C6 1_555 1_555
C7 C1 1_555 1_555
C8 C4 1_555 1_555
C9 C10 1_555 1_555
C10 H5 1_555 1_555
C11 C10 1_555 1_555
H6 C11 1_555 1_555
C12 O6 1_555 1_555
C13 O7 1_555 1_555
C14 H7 1_555 1_555
H8 C14 1_555 1_555
C15 C14 1_555 1_555
H9 C15 1_555 1_555
H10 C15 1_555 1_555
N1 C13 1_555 1_555
H11 N1 1_555 1_555
N2 C13 1_555 1_555
H12 N2 1_555 1_555
Pr1A O7 1_555 1_555
Pr1_2 O5D 1_555 1_555
Pr1D O6D 1_555 1_555
Pr1D_2 O1 1_555 1_555
Pr1E O1A 1_555 1_555
Pr1F O4A 1_555 1_555
Pr1F_2 O3 1_555 1_555
Pr1G O3A 1_555 1_555
Pr1G_2 O4 1_555 1_555
O1A C7A 1_555 1_555
O1D Pr1 1_555 1_555
O1E Pr1A 1_555 1_555
O2A Pr1A 1_555 1_555
O3A C8A 1_555 1_555
O3F Pr1 1_555 1_555
O3G Pr1A 1_555 1_555
O4A C8A 1_555 1_555
O4F Pr1A 1_555 1_555
O4G Pr1 1_555 1_555
O5D C12D 1_555 1_555
O5D_2 Pr1 1_555 1_555
O5E Pr1A 1_555 1_555
O6D C12D 1_555 1_555
O6A Pr1A 1_555 1_555
O7A Pr1 1_555 1_555
C1A C2A 1_555 1_555
C2A H1A 1_555 1_555
C3A C2A 1_555 1_555
H2A C3A 1_555 1_555
C4A C3A 1_555 1_555
C5A C4A 1_555 1_555
H3A C5A 1_555 1_555
C6A C1A 1_555 1_555
H4A C6A 1_555 1_555
C7A O2A 1_555 1_555
C8A C4A 1_555 1_555
C9D C11 1_555 1_555
C10D C9D 1_555 1_555
H5D C10D 1_555 1_555
C11D C9 1_555 1_555
H6D C11D 1_555 1_555
C12D C9D 1_555 1_555
C13A O7A 1_555 1_555
C14A H7A 1_555 1_555
H8A C14A 1_555 1_555
C15A C14A 1_555 1_555
H9A C15A 1_555 1_555
H10A C15A 1_555 1_555
N1A C13A 1_555 1_555
H11A N1A 1_555 1_555
N2A C13A 1_555 1_555
H12A N2A 1_555 1_555
O5 Pr1D_2 1_555 1_555
C5 C6 1_555 1_555
C9 C12 1_555 1_555
C14 N1 1_555 1_555
C15 N2 1_555 1_555
Pr1A O7A 1_555 1_555
C1A C7A 1_555 1_555
C5A C6A 1_555 1_555
C10D C11D 1_555 1_555
C14A N1A 1_555 1_555
C15A N2A 1_555 1_555

#END
