
#######################################################################
#
#                 Cambridge Crystallographic Data Centre
#                                CCDC 
#
#######################################################################
#
# If this CIF has been generated from an entry in the Cambridge 
# Structural Database, then it will include bibliographic, chemical, 
# crystal, experimental, refinement or atomic coordinate data resulting 
# from the CCDC's data processing and validation procedures.
#
#######################################################################

data_LAGPEQ
_symmetry_cell_setting           monoclinic
_symmetry_space_group_name_H-M   'C 2/c'
_symmetry_Int_Tables_number      15
_space_group_name_Hall           '-C 2yn'
loop_
_symmetry_equiv_pos_site_id
_symmetry_equiv_pos_as_xyz
1 x,y,z
2 -x,y,1/2-z
3 1/2+x,1/2+y,z
4 1/2-x,1/2+y,1/2-z
5 -x,-y,-z
6 x,-y,1/2+z
7 1/2-x,1/2-y,-z
8 1/2+x,1/2-y,1/2+z
_cell_length_a                   21.1364(6)
_cell_length_b                   10.7305(3)
_cell_length_c                   16.6554(4)
_cell_angle_alpha                90
_cell_angle_beta                 111.660(2)
_cell_angle_gamma                90
_cell_volume                     3510.79
loop_
_atom_site_label
_atom_site_type_symbol
_atom_site_fract_x
_atom_site_fract_y
_atom_site_fract_z
La1 La 0.502016(9) 0.523831(19) 0.873651(12)
O1 O 0.60843(12) 0.5290(2) 1.11878(16)
O2 O 0.61898(12) 0.4971(2) 0.99162(16)
O3 O 0.93056(11) 0.8109(2) 1.15670(17)
O4 O 0.92172(12) 0.8166(2) 1.28671(16)
O5 O 0.50255(11) 0.3437(2) 1.01084(14)
O6 O 0.51209(12) 0.2869(2) 0.88809(15)
O7 O 0.57018(11) 0.4335(2) 0.78296(15)
C1 C 0.71241(16) 0.5842(3) 1.1071(2)
C2 C 0.75042(16) 0.6039(3) 1.0563(2)
H1 H 0.7340 0.5763 0.9993
C3 C 0.81283(17) 0.6644(3) 1.0894(2)
H2 H 0.8380 0.6773 1.0546
C4 C 0.83785(16) 0.7059(3) 1.1750(2)
C5 C 0.80132(17) 0.6810(4) 1.2274(2)
H3 H 0.8187 0.7047 1.2852
C6 C 0.73881(17) 0.6206(4) 1.1935(2)
H4 H 0.7144 0.6044 1.2288
C7 C 0.64162(18) 0.5317(3) 1.0702(2)
C8 C 0.90176(17) 0.7834(3) 1.2087(2)
C9 C 0.50408(17) 0.1251(3) 0.9819(2)
C10 C 0.49237(19) 0.0913(4) 1.0558(2)
H5 H 0.4872 0.1519 1.0929
C11 C 0.4884(2) -0.0343(4) 1.0735(3)
H6 H 0.4807 -0.0579 1.1228
C12 C 0.50658(16) 0.2600(3) 0.9599(2)
C13 C 0.60882(17) 0.3413(4) 0.8067(2)
C14 C 0.6879(2) 0.2047(4) 0.8967(3)
H7 H 0.6706 0.1615 0.9356
H8 H 0.7372 0.2013 0.9199
C15 C 0.6584(2) 0.1501(4) 0.8054(3)
H9 H 0.6918 0.1502 0.7781
H10 H 0.6420 0.0658 0.8059
N1 N 0.66308(15) 0.3344(3) 0.88170(19)
H11 H 0.6805 0.3961 0.9156
N2 N 0.60284(16) 0.2355(3) 0.7626(2)
H12 H 0.5700 0.2197 0.7147
La1A La 0.497984(9) 0.523831(19) 0.626349(12)
La1_2 La 0.502016(9) -0.476169(19) 0.873651(12)
La1D La 0.497984(9) -0.523831(19) 1.126349(12)
La1D_2 La 0.497984(9) 0.476169(19) 1.126349(12)
La1E La 0.502016(9) 0.476169(19) 0.373651(12)
La1F La -0.002016(9) 0.976169(19) 0.126349(12)
La1F_2 La 0.997984(9) 0.976169(19) 1.126349(12)
La1G La 0.002016(9) 0.976169(19) 0.373651(12)
La1G_2 La 1.002016(9) 0.976169(19) 1.373651(12)
O1A O 0.39157(12) 0.5290(2) 0.38122(16)
O1D O 0.39157(12) 0.4710(2) 0.88122(16)
O1E O 0.60843(12) 0.4710(2) 0.61878(16)
O2A O 0.38102(12) 0.4971(2) 0.50838(16)
O3A O 0.06944(11) 0.8109(2) 0.34330(17)
O3F O 0.56944(11) 0.6891(2) 0.84330(17)
O3G O 0.43056(11) 0.6891(2) 0.65670(17)
O4A O 0.07828(12) 0.8166(2) 0.21329(16)
O4F O 0.57828(12) 0.6834(2) 0.71329(16)
O4G O 0.42172(12) 0.6834(2) 0.78671(16)
O5D O 0.49745(11) -0.3437(2) 0.98916(14)
O5D_2 O 0.49745(11) 0.6563(2) 0.98916(14)
O5E O 0.50255(11) 0.6563(2) 0.51084(14)
O5A O 0.49745(11) 0.3437(2) 0.48916(14)
O6D O 0.48791(12) -0.2869(2) 1.11191(15)
O6A O 0.48791(12) 0.2869(2) 0.61191(15)
O7A O 0.42982(11) 0.4335(2) 0.71704(15)
C1A C 0.28759(16) 0.5842(3) 0.3929(2)
C2A C 0.24958(16) 0.6039(3) 0.4437(2)
H1A H 0.2660 0.5763 0.5007
C3A C 0.18717(17) 0.6644(3) 0.4106(2)
H2A H 0.1620 0.6773 0.4454
C4A C 0.16215(16) 0.7059(3) 0.3250(2)
C5A C 0.19868(17) 0.6810(4) 0.2726(2)
H3A H 0.1813 0.7047 0.2148
C6A C 0.26119(17) 0.6206(4) 0.3065(2)
H4A H 0.2856 0.6044 0.2712
C7A C 0.35838(18) 0.5317(3) 0.4298(2)
C8A C 0.09824(17) 0.7834(3) 0.2913(2)
C9D C 0.49592(17) -0.1251(3) 1.0181(2)
C10D C 0.50763(19) -0.0913(4) 0.9442(2)
H5D H 0.5128 -0.1519 0.9071
C11D C 0.5116(2) 0.0343(4) 0.9265(3)
H6D H 0.5193 0.0579 0.8772
C12D C 0.49342(16) -0.2600(3) 1.0401(2)
C13A C 0.39118(17) 0.3413(4) 0.6933(2)
C14A C 0.3121(2) 0.2047(4) 0.6033(3)
H7A H 0.3294 0.1615 0.5644
H8A H 0.2628 0.2013 0.5801
C15A C 0.3416(2) 0.1501(4) 0.6946(3)
H9A H 0.3082 0.1502 0.7219
H10A H 0.3580 0.0658 0.6941
N1A N 0.33692(15) 0.3344(3) 0.61830(19)
H11A H 0.3195 0.3961 0.5844
N2A N 0.39716(16) 0.2355(3) 0.7374(2)
H12A H 0.4300 0.2197 0.7853
loop_
_geom_bond_atom_site_label_1
_geom_bond_atom_site_label_2
_geom_bond_site_symmetry_1
_geom_bond_site_symmetry_2
La1 O2 1_555 1_555
O1 C7 1_555 1_555
O2 C7 1_555 1_555
O3 C8 1_555 1_555
O4 C8 1_555 1_555
O5 La1 1_555 1_555
O6 La1 1_555 1_555
O7 La1 1_555 1_555
C1 C2 1_555 1_555
C2 H1 1_555 1_555
C3 C2 1_555 1_555
H2 C3 1_555 1_555
C4 C3 1_555 1_555
C5 C4 1_555 1_555
H3 C5 1_555 1_555
C6 C1 1_555 1_555
H4 C6 1_555 1_555
C7 C1 1_555 1_555
C8 C4 1_555 1_555
C9 C10 1_555 1_555
C10 H5 1_555 1_555
C11 C10 1_555 1_555
H6 C11 1_555 1_555
C12 O5 1_555 1_555
C13 O7 1_555 1_555
C14 H7 1_555 1_555
H8 C14 1_555 1_555
C15 C14 1_555 1_555
H9 C15 1_555 1_555
H10 C15 1_555 1_555
N1 C13 1_555 1_555
H11 N1 1_555 1_555
N2 C13 1_555 1_555
H12 N2 1_555 1_555
La1A O7 1_555 1_555
La1_2 O5D 1_555 1_555
La1D O5D 1_555 1_555
La1D_2 O1 1_555 1_555
La1E O1A 1_555 1_555
La1F O4A 1_555 1_555
La1F_2 O3 1_555 1_555
La1G O3A 1_555 1_555
La1G_2 O4 1_555 1_555
O1A C7A 1_555 1_555
O1D La1 1_555 1_555
O1E La1A 1_555 1_555
O2A La1A 1_555 1_555
O3A C8A 1_555 1_555
O3F La1 1_555 1_555
O3G La1A 1_555 1_555
O4A C8A 1_555 1_555
O4F La1A 1_555 1_555
O4G La1 1_555 1_555
O5D C12D 1_555 1_555
O5D_2 La1 1_555 1_555
O5E La1A 1_555 1_555
O5A La1A 1_555 1_555
O6D La1D 1_555 1_555
O6A La1A 1_555 1_555
O7A La1 1_555 1_555
C1A C2A 1_555 1_555
C2A H1A 1_555 1_555
C3A C2A 1_555 1_555
H2A C3A 1_555 1_555
C4A C3A 1_555 1_555
C5A C4A 1_555 1_555
H3A C5A 1_555 1_555
C6A C1A 1_555 1_555
H4A C6A 1_555 1_555
C7A O2A 1_555 1_555
C8A C4A 1_555 1_555
C9D C11 1_555 1_555
C10D C9D 1_555 1_555
H5D C10D 1_555 1_555
C11D C9 1_555 1_555
H6D C11D 1_555 1_555
C12D O6D 1_555 1_555
C13A O7A 1_555 1_555
C14A H7A 1_555 1_555
H8A C14A 1_555 1_555
C15A C14A 1_555 1_555
H9A C15A 1_555 1_555
H10A C15A 1_555 1_555
N1A C13A 1_555 1_555
H11A N1A 1_555 1_555
N2A C13A 1_555 1_555
H12A N2A 1_555 1_555
O5 La1D_2 1_555 1_555
O6 C12 1_555 1_555
C5 C6 1_555 1_555
C9 C12 1_555 1_555
C14 N1 1_555 1_555
C15 N2 1_555 1_555
La1A O7A 1_555 1_555
La1D_2 O5D_2 1_555 1_555
La1E O5E 1_555 1_555
La1E O5A 1_555 1_555
C1A C7A 1_555 1_555
C5A C6A 1_555 1_555
C9D C12D 1_555 1_555
C10D C11D 1_555 1_555
C14A N1A 1_555 1_555
C15A N2A 1_555 1_555

#END
