
#######################################################################
#
#                 Cambridge Crystallographic Data Centre
#                                CCDC 
#
#######################################################################
#
# If this CIF has been generated from an entry in the Cambridge 
# Structural Database, then it will include bibliographic, chemical, 
# crystal, experimental, refinement or atomic coordinate data resulting 
# from the CCDC's data processing and validation procedures.
#
#######################################################################

data_LAGQAN
_symmetry_cell_setting           triclinic
_symmetry_space_group_name_H-M   'P -1'
_symmetry_Int_Tables_number      2
_space_group_name_Hall           '-P 1'
loop_
_symmetry_equiv_pos_site_id
_symmetry_equiv_pos_as_xyz
1 x,y,z
2 -x,-y,-z
_cell_length_a                   8.6462(2)
_cell_length_b                   10.1590(3)
_cell_length_c                   11.0587(3)
_cell_angle_alpha                66.224(2)
_cell_angle_beta                 69.555(2)
_cell_angle_gamma                77.560(2)
_cell_volume                     829.767
loop_
_atom_site_label
_atom_site_type_symbol
_atom_site_fract_x
_atom_site_fract_y
_atom_site_fract_z
Sm1 Sm 0.649483(18) 0.433863(17) 0.141498(17)
O1 O 0.3611(3) 0.3736(3) 0.2666(2)
O2 O 0.8295(3) 0.5331(3) -0.0891(3)
H1 H 0.8983 0.5871 -0.0960
H2 H 0.7789 0.5678 -0.1514
O3 O 0.4464(3) 0.5248(3) 0.3221(3)
O4 O 0.4853(3) 0.6348(2) 0.0109(2)
O5 O 0.2830(4) 0.7764(3) -0.0635(4)
O6 O 0.6744(3) 0.2400(3) 0.3557(3)
O7 O 0.9111(3) 0.2907(3) 0.1928(3)
O8 O 0.7959(3) 0.5864(3) 0.1671(3)
C1 C 0.3334(4) 0.4577(4) 0.3321(3)
C2 C 0.1612(4) 0.4803(4) 0.4194(3)
C3 C 0.1226(4) 0.5785(4) 0.4854(4)
H3 H 0.2043 0.6314 0.4760
C4 C 0.0373(4) 0.4022(4) 0.4348(4)
H4 H 0.0628 0.3360 0.3905
C5 C 0.4028(4) 0.7559(3) -0.0171(4)
C6 C 0.4526(4) 0.8803(3) -0.0043(3)
C7 C 0.6163(4) 0.8877(4) -0.0192(4)
H5 H 0.6946 0.8121 -0.0320
C8 C 0.3357(4) 0.9935(4) 0.0152(4)
H6 H 0.2253 0.9891 0.0255
C9 C 0.8285(4) 0.2177(4) 0.3132(4)
C10 C 0.9170(4) 0.1028(4) 0.4103(4)
C11 C 1.0880(5) 0.0724(4) 0.3656(4)
H7 H 1.1473 0.1210 0.2747
C12 C 0.8305(4) 0.0290(4) 0.5449(4)
H8 H 0.7162 0.0480 0.5754
C13 C 0.7938(4) 0.6815(4) 0.2115(4)
C14 C 0.7039(6) 0.8399(5) 0.3284(5)
H9 H 0.6907 0.8189 0.4249
H10 H 0.6310 0.9245 0.2958
C15 C 0.8828(6) 0.8617(5) 0.2417(5)
H11 H 0.8953 0.9613 0.1797
H12 H 0.9552 0.8346 0.2996
N1 N 0.6710(4) 0.7177(4) 0.3087(4)
H13 H 0.5824 0.6735 0.3544
N2 N 0.9170(4) 0.7660(4) 0.1655(4)
H14 H 1.0055 0.7638 0.0990
Sm1A Sm -0.649483(18) 0.566137(17) 0.858502(17)
Sm1A_2 Sm 0.350517(18) 0.566137(17) -0.141498(17)
Sm1A_3 Sm 0.350517(18) 1.566137(17) -0.141498(17)
Sm1_2 Sm 0.649483(18) 1.433863(17) 0.141498(17)
Sm1A_4 Sm 1.350517(18) -0.433863(17) 0.858502(17)
O1A O -0.3611(3) 0.6264(3) 0.7334(2)
O2A O -0.8295(3) 0.4669(3) 1.0891(3)
H1A H -0.8983 0.4129 1.0960
H2A H -0.7789 0.4322 1.1514
O3A O -0.4464(3) 0.4752(3) 0.6779(3)
O4A O 0.5147(3) 1.3652(2) -0.0109(2)
O4A_2 O 0.5147(3) 0.3652(2) -0.0109(2)
O4A_3 O -0.4853(3) 0.3652(2) 0.9891(2)
O4_2 O -0.5147(3) 0.6348(2) 1.0109(2)
O5A O 0.7170(4) 1.2236(3) 0.0635(4)
O5A_2 O 0.7170(4) 0.2236(3) 0.0635(4)
O5_2 O -0.7170(4) 0.7764(3) 0.9365(4)
O6A O 1.3256(3) -0.2400(3) 0.6443(3)
O6A_2 O -0.6744(3) 0.7600(3) 0.6443(3)
O7A O 1.0889(3) -0.2907(3) 0.8072(3)
O7A_2 O -0.9111(3) 0.7093(3) 0.8072(3)
O8A O -0.7959(3) 0.4136(3) 0.8329(3)
C1A C -0.3334(4) 0.5423(4) 0.6679(3)
C2A C -0.1612(4) 0.5197(4) 0.5806(3)
C3A C -0.1226(4) 0.4215(4) 0.5146(4)
H3A H -0.2043 0.3686 0.5240
C4A C -0.0373(4) 0.5978(4) 0.5652(4)
H4A H -0.0628 0.6640 0.6095
C5A C 0.5972(4) 1.2441(3) 0.0171(4)
C6A C 0.5474(4) 1.1197(3) 0.0043(3)
C7A C 0.3837(4) 1.1123(4) 0.0192(4)
H5A H 0.3054 1.1879 0.0320
C8A C 0.6643(4) 1.0065(4) -0.0152(4)
H6A H 0.7747 1.0109 -0.0255
C9A C 1.1715(4) -0.2177(4) 0.6868(4)
C10A C 1.0830(4) -0.1028(4) 0.5897(4)
C11A C 0.9120(5) -0.0724(4) 0.6344(4)
H7A H 0.8527 -0.1210 0.7253
C12A C 1.1695(4) -0.0290(4) 0.4551(4)
H8A H 1.2838 -0.0480 0.4246
C13A C -0.7938(4) 0.3185(4) 0.7885(4)
C14A C -0.7039(6) 0.1601(5) 0.6716(5)
H9A H -0.6907 0.1811 0.5751
H10A H -0.6310 0.0755 0.7042
C15A C -0.8828(6) 0.1383(5) 0.7583(5)
H11A H -0.8953 0.0387 0.8203
H12A H -0.9552 0.1654 0.7004
N1A N -0.6710(4) 0.2823(4) 0.6913(4)
H13A H -0.5824 0.3265 0.6456
N2A N -0.9170(4) 0.2340(4) 0.8345(4)
H14A H -1.0055 0.2362 0.9010
loop_
_geom_bond_atom_site_label_1
_geom_bond_atom_site_label_2
_geom_bond_site_symmetry_1
_geom_bond_site_symmetry_2
Sm1 O1 1_555 1_555
O1 C1 1_555 1_555
O2 Sm1 1_555 1_555
H1 O2 1_555 1_555
H2 O2 1_555 1_555
O3 Sm1 1_555 1_555
O4 Sm1 1_555 1_555
O5 C5 1_555 1_555
O6 Sm1 1_555 1_555
O7 Sm1 1_555 1_555
O8 Sm1 1_555 1_555
C1 O3 1_555 1_555
C2 C1 1_555 1_555
C3 C2 1_555 1_555
H3 C3 1_555 1_555
C4 C2 1_555 1_555
H4 C4 1_555 1_555
C5 O4 1_555 1_555
C6 C5 1_555 1_555
C7 C6 1_555 1_555
H5 C7 1_555 1_555
C8 C6 1_555 1_555
H6 C8 1_555 1_555
C9 O6 1_555 1_555
C10 C9 1_555 1_555
C11 C10 1_555 1_555
H7 C11 1_555 1_555
C12 C10 1_555 1_555
H8 C12 1_555 1_555
C13 O8 1_555 1_555
C14 H9 1_555 1_555
H10 C14 1_555 1_555
C15 C14 1_555 1_555
H11 C15 1_555 1_555
H12 C15 1_555 1_555
N1 C13 1_555 1_555
H13 N1 1_555 1_555
N2 C13 1_555 1_555
H14 N2 1_555 1_555
Sm1A O1A 1_555 1_555
Sm1A_2 O4 1_555 1_555
Sm1A_3 O4A 1_555 1_555
Sm1_2 O4A 1_555 1_555
Sm1A_4 O6A 1_555 1_555
O1A C1A 1_555 1_555
O2A Sm1A 1_555 1_555
H1A O2A 1_555 1_555
H2A O2A 1_555 1_555
O3A Sm1A 1_555 1_555
O4A C5A 1_555 1_555
O4A_2 Sm1 1_555 1_555
O4A_3 Sm1A 1_555 1_555
O4_2 Sm1A 1_555 1_555
O5A Sm1_2 1_555 1_555
O5A_2 Sm1 1_555 1_555
O5_2 Sm1A 1_555 1_555
O6A C9A 1_555 1_555
O6A_2 Sm1A 1_555 1_555
O7A Sm1A_4 1_555 1_555
O7A_2 Sm1A 1_555 1_555
O8A Sm1A 1_555 1_555
C1A O3A 1_555 1_555
C2A C1A 1_555 1_555
C3A C4 1_555 1_555
H3A C3A 1_555 1_555
C4A C3 1_555 1_555
H4A C4A 1_555 1_555
C5A O5A 1_555 1_555
C6A C5A 1_555 1_555
C7A C8 1_555 1_555
H5A C7A 1_555 1_555
C8A C7 1_555 1_555
H6A C8A 1_555 1_555
C9A O7A 1_555 1_555
C10A C9A 1_555 1_555
C11A C12 1_555 1_555
H7A C11A 1_555 1_555
C12A C11 1_555 1_555
H8A C12A 1_555 1_555
C13A O8A 1_555 1_555
C14A H9A 1_555 1_555
H10A C14A 1_555 1_555
C15A C14A 1_555 1_555
H11A C15A 1_555 1_555
H12A C15A 1_555 1_555
N1A C13A 1_555 1_555
H13A N1A 1_555 1_555
N2A C13A 1_555 1_555
H14A N2A 1_555 1_555
O5 Sm1A_2 1_555 1_555
O7 C9 1_555 1_555
C14 N1 1_555 1_555
C15 N2 1_555 1_555
Sm1A_2 O4A_2 1_555 1_555
C2A C3A 1_555 1_555
C2A C4A 1_555 1_555
C6A C7A 1_555 1_555
C6A C8A 1_555 1_555
C10A C11A 1_555 1_555
C10A C12A 1_555 1_555
C14A N1A 1_555 1_555
C15A N2A 1_555 1_555

#END
