
#######################################################################
#
#                 Cambridge Crystallographic Data Centre
#                                CCDC 
#
#######################################################################
#
# If this CIF has been generated from an entry in the Cambridge 
# Structural Database, then it will include bibliographic, chemical, 
# crystal, experimental, refinement or atomic coordinate data resulting 
# from the CCDC's data processing and validation procedures.
#
#######################################################################

data_LAGQUH
_symmetry_cell_setting           triclinic
_symmetry_space_group_name_H-M   'P -1'
_symmetry_Int_Tables_number      2
_space_group_name_Hall           '-P 1'
loop_
_symmetry_equiv_pos_site_id
_symmetry_equiv_pos_as_xyz
1 x,y,z
2 -x,-y,-z
_cell_length_a                   8.5938(14)
_cell_length_b                   10.2014(16)
_cell_length_c                   10.9475(17)
_cell_angle_alpha                66.540(11)
_cell_angle_beta                 69.429(11)
_cell_angle_gamma                77.936(12)
_cell_volume                     821.607
loop_
_atom_site_label
_atom_site_type_symbol
_atom_site_fract_x
_atom_site_fract_y
_atom_site_fract_z
Ho1 Ho 0.65228(3) 0.43441(3) 0.15075(3)
O1 O 0.3674(4) 0.3793(4) 0.2615(4)
O2 O 0.8319(5) 0.5143(5) -0.0798(4)
H1 H 0.9008 0.5683 -0.0867
H2 H 0.7813 0.5490 -0.1421
O3 O 0.4508(5) 0.5219(5) 0.3288(4)
O4 O 0.5129(5) 0.6308(4) 0.0203(4)
O5 O 0.3228(6) 0.7607(5) -0.0795(5)
O6 O 0.6742(5) 0.2491(5) 0.3615(4)
O7 O 0.9099(5) 0.2889(4) 0.1925(4)
O8 O 0.8032(5) 0.5797(4) 0.1735(4)
C1 C 0.3367(6) 0.4594(6) 0.3327(6)
C2 C 0.1628(6) 0.4813(6) 0.4191(6)
C3 C 0.1218(7) 0.5766(6) 0.4892(6)
H3 H 0.2040 0.6281 0.4821
C4 C 0.0385(7) 0.4042(7) 0.4313(6)
H4 H 0.0647 0.3396 0.3851
C5 C 0.4301(8) 0.7468(6) -0.0205(6)
C6 C 0.4659(7) 0.8765(6) -0.0073(6)
C7 C 0.6261(7) 0.8925(6) -0.0148(6)
H5 H 0.7110 0.8210 -0.0258
C8 C 0.3414(7) 0.9862(6) 0.0059(6)
H6 H 0.2347 0.9771 0.0087
C9 C 0.8291(7) 0.2192(6) 0.3159(6)
C10 C 0.9173(7) 0.1058(6) 0.4110(6)
C11 C 1.0891(8) 0.0723(7) 0.3645(7)
H7 H 1.1494 0.1200 0.2728
C12 C 0.8308(7) 0.0308(7) 0.5459(6)
H8 H 0.7160 0.0501 0.5773
C13 C 0.7995(7) 0.6787(7) 0.2159(6)
C14 C 0.7094(10) 0.8391(7) 0.3303(8)
H9 H 0.6956 0.8202 0.4275
H10 H 0.6368 0.9226 0.2966
C15 C 0.8904(10) 0.8599(8) 0.2422(8)
H11 H 0.9042 0.9583 0.1785
H12 H 0.9631 0.8342 0.3003
N1 N 0.6757(7) 0.7153(6) 0.3124(6)
H13 H 0.5862 0.6713 0.3589
N2 N 0.9234(7) 0.7628(6) 0.1675(6)
H14 H 1.0121 0.7598 0.1001
Ho1A Ho -0.65228(3) 0.56559(3) 0.84925(3)
Ho1_2 Ho 0.65228(3) 1.43441(3) 0.15075(3)
Ho1A_2 Ho 0.34772(3) 0.56559(3) -0.15075(3)
Ho1A_3 Ho 0.34772(3) 1.56559(3) -0.15075(3)
Ho1A_4 Ho 1.34772(3) -0.43441(3) 0.84925(3)
O1A O -0.3674(4) 0.6207(4) 0.7385(4)
O2A O -0.8319(5) 0.4857(5) 1.0798(4)
H1A H -0.9008 0.4317 1.0867
H2A H -0.7813 0.4510 1.1421
O3A O -0.4508(5) 0.4781(5) 0.6712(4)
O4A O 0.4871(5) 1.3692(4) -0.0203(4)
O4A_2 O -0.5129(5) 0.3692(4) 0.9797(4)
O5A O 0.6772(6) 1.2393(5) 0.0795(5)
O5_2 O -0.6772(6) 0.7607(5) 0.9205(5)
O5A_2 O 0.6772(6) 0.2393(5) 0.0795(5)
O6A O 1.3258(5) -0.2491(5) 0.6385(4)
O6A_2 O -0.6742(5) 0.7509(5) 0.6385(4)
O7A O 1.0901(5) -0.2889(4) 0.8075(4)
O7A_2 O -0.9099(5) 0.7111(4) 0.8075(4)
O8A O -0.8032(5) 0.4203(4) 0.8265(4)
C1A C -0.3367(6) 0.5406(6) 0.6673(6)
C2A C -0.1628(6) 0.5187(6) 0.5809(6)
C3A C -0.1218(7) 0.4234(6) 0.5108(6)
H3A H -0.2040 0.3719 0.5179
C4A C -0.0385(7) 0.5958(7) 0.5687(6)
H4A H -0.0647 0.6604 0.6149
C5A C 0.5699(8) 1.2532(6) 0.0205(6)
C6A C 0.5341(7) 1.1235(6) 0.0073(6)
C7A C 0.3739(7) 1.1075(6) 0.0148(6)
H5A H 0.2890 1.1790 0.0258
C8A C 0.6586(7) 1.0138(6) -0.0059(6)
H6A H 0.7653 1.0229 -0.0087
C9A C 1.1709(7) -0.2192(6) 0.6841(6)
C9A_2 C -0.8291(7) 0.7808(6) 0.6841(6)
C10A C 1.0827(7) -0.1058(6) 0.5890(6)
C11A C 0.9109(8) -0.0723(7) 0.6355(7)
H7A H 0.8506 -0.1200 0.7272
C12A C 1.1692(7) -0.0308(7) 0.4541(6)
H8A H 1.2840 -0.0501 0.4227
C13A C -0.7995(7) 0.3213(7) 0.7841(6)
C14A C -0.7094(10) 0.1609(7) 0.6697(8)
H9A H -0.6956 0.1798 0.5725
H10A H -0.6368 0.0774 0.7034
C15A C -0.8904(10) 0.1401(8) 0.7578(8)
H11A H -0.9042 0.0417 0.8215
H12A H -0.9631 0.1658 0.6997
N1A N -0.6757(7) 0.2847(6) 0.6876(6)
H13A H -0.5862 0.3287 0.6411
N2A N -0.9234(7) 0.2372(6) 0.8325(6)
H14A H -1.0121 0.2402 0.8999
loop_
_geom_bond_atom_site_label_1
_geom_bond_atom_site_label_2
_geom_bond_site_symmetry_1
_geom_bond_site_symmetry_2
Ho1 O1 1_555 1_555
O1 C1 1_555 1_555
O2 Ho1 1_555 1_555
H1 O2 1_555 1_555
H2 O2 1_555 1_555
O3 Ho1 1_555 1_555
O4 Ho1 1_555 1_555
O5 C5 1_555 1_555
O6 Ho1 1_555 1_555
O7 Ho1 1_555 1_555
O8 Ho1 1_555 1_555
C1 O3 1_555 1_555
C2 C1 1_555 1_555
C3 C2 1_555 1_555
H3 C3 1_555 1_555
C4 C2 1_555 1_555
H4 C4 1_555 1_555
C5 O4 1_555 1_555
C6 C5 1_555 1_555
C7 C6 1_555 1_555
H5 C7 1_555 1_555
C8 C6 1_555 1_555
H6 C8 1_555 1_555
C9 O6 1_555 1_555
C10 C9 1_555 1_555
C11 C10 1_555 1_555
H7 C11 1_555 1_555
C12 C10 1_555 1_555
H8 C12 1_555 1_555
C13 O8 1_555 1_555
C14 H9 1_555 1_555
H10 C14 1_555 1_555
C15 C14 1_555 1_555
H11 C15 1_555 1_555
H12 C15 1_555 1_555
N1 C13 1_555 1_555
H13 N1 1_555 1_555
N2 C13 1_555 1_555
H14 N2 1_555 1_555
Ho1A O1A 1_555 1_555
Ho1_2 O5A 1_555 1_555
Ho1A_2 O5 1_555 1_555
Ho1A_3 O4A 1_555 1_555
Ho1A_4 O6A 1_555 1_555
O1A C1A 1_555 1_555
O2A Ho1A 1_555 1_555
H1A O2A 1_555 1_555
H2A O2A 1_555 1_555
O3A Ho1A 1_555 1_555
O4A C5A 1_555 1_555
O4A_2 Ho1A 1_555 1_555
O5A C5A 1_555 1_555
O5_2 Ho1A 1_555 1_555
O5A_2 Ho1 1_555 1_555
O6A C9A 1_555 1_555
O6A_2 Ho1A 1_555 1_555
O7A Ho1A_4 1_555 1_555
O7A_2 Ho1A 1_555 1_555
O8A Ho1A 1_555 1_555
C1A O3A 1_555 1_555
C2A C1A 1_555 1_555
C3A C4 1_555 1_555
H3A C3A 1_555 1_555
C4A C3 1_555 1_555
H4A C4A 1_555 1_555
C5A C6A 1_555 1_555
C6A C7A 1_555 1_555
C7A C8 1_555 1_555
H5A C7A 1_555 1_555
C8A C7 1_555 1_555
H6A C8A 1_555 1_555
C9A O7A 1_555 1_555
C9A_2 O6A_2 1_555 1_555
C10A C9A 1_555 1_555
C11A C12 1_555 1_555
H7A C11A 1_555 1_555
C12A C11 1_555 1_555
H8A C12A 1_555 1_555
C13A O8A 1_555 1_555
C14A H9A 1_555 1_555
H10A C14A 1_555 1_555
C15A C14A 1_555 1_555
H11A C15A 1_555 1_555
H12A C15A 1_555 1_555
N1A C13A 1_555 1_555
H13A N1A 1_555 1_555
N2A C13A 1_555 1_555
H14A N2A 1_555 1_555
O7 C9 1_555 1_555
C14 N1 1_555 1_555
C15 N2 1_555 1_555
O7A_2 C9A_2 1_555 1_555
C2A C3A 1_555 1_555
C2A C4A 1_555 1_555
C6A C8A 1_555 1_555
C10A C11A 1_555 1_555
C10A C12A 1_555 1_555
C14A N1A 1_555 1_555
C15A N2A 1_555 1_555

#END
