
#######################################################################
#
#                 Cambridge Crystallographic Data Centre
#                                CCDC 
#
#######################################################################
#
# If this CIF has been generated from an entry in the Cambridge 
# Structural Database, then it will include bibliographic, chemical, 
# crystal, experimental, refinement or atomic coordinate data resulting 
# from the CCDC's data processing and validation procedures.
#
#######################################################################

data_LAGQIV
_symmetry_cell_setting           triclinic
_symmetry_space_group_name_H-M   'P -1'
_symmetry_Int_Tables_number      2
_space_group_name_Hall           '-P 1'
loop_
_symmetry_equiv_pos_site_id
_symmetry_equiv_pos_as_xyz
1 x,y,z
2 -x,-y,-z
_cell_length_a                   8.6286(2)
_cell_length_b                   10.1522(3)
_cell_length_c                   11.0418(3)
_cell_angle_alpha                66.305(2)
_cell_angle_beta                 69.592(2)
_cell_angle_gamma                77.438(2)
_cell_volume                     826.739
loop_
_atom_site_label
_atom_site_type_symbol
_atom_site_fract_x
_atom_site_fract_y
_atom_site_fract_z
Eu1 Eu 0.64967(3) 0.43392(3) 0.14180(3)
O1 O 0.3623(5) 0.3735(4) 0.2652(4)
O2 O 0.8287(5) 0.5315(5) -0.0882(4)
H1 H 0.8976 0.5855 -0.0951
H2 H 0.7781 0.5662 -0.1505
O3 O 0.4475(5) 0.5241(5) 0.3218(4)
O4 O 0.4867(5) 0.6335(4) 0.0119(4)
O5 O 0.2866(6) 0.7756(5) -0.0665(6)
O6 O 0.6749(5) 0.2424(5) 0.3549(5)
O7 O 0.9116(5) 0.2912(4) 0.1916(4)
O8 O 0.7963(5) 0.5854(5) 0.1663(5)
C1 C 0.3329(7) 0.4582(6) 0.3314(6)
C2 C 0.1623(7) 0.4800(6) 0.4188(6)
C3 C 0.1219(7) 0.5784(7) 0.4872(7)
H3 H 0.2034 0.6306 0.4793
C4 C 0.0371(7) 0.4024(7) 0.4345(6)
H4 H 0.0628 0.3359 0.3904
C5 C 0.4047(8) 0.7555(6) -0.0184(6)
C6 C 0.4548(7) 0.8793(6) -0.0064(6)
C7 C 0.6166(7) 0.8879(6) -0.0185(6)
H5 H 0.6959 0.8121 -0.0297
C8 C 0.3363(8) 0.9919(6) 0.0142(6)
H6 H 0.2258 0.9866 0.0250
C9 C 0.8301(8) 0.2196(6) 0.3117(7)
C10 C 0.9171(7) 0.1028(6) 0.4097(6)
C11 C 1.0874(8) 0.0720(7) 0.3658(6)
H7 H 1.1470 0.1208 0.2752
C12 C 0.8310(7) 0.0298(7) 0.5449(6)
H8 H 0.7166 0.0498 0.5757
C13 C 0.7932(8) 0.6807(7) 0.2115(7)
C14 C 0.7039(10) 0.8398(8) 0.3287(8)
H9 H 0.6918 0.8187 0.4252
H10 H 0.6302 0.9243 0.2967
C15 C 0.8841(10) 0.8614(8) 0.2400(8)
H11 H 0.8960 0.9606 0.1770
H12 H 0.9576 0.8354 0.2971
N1 N 0.6716(7) 0.7168(6) 0.3085(6)
H13 H 0.5832 0.6723 0.3545
N2 N 0.9173(7) 0.7646(6) 0.1660(6)
H14 H 1.0064 0.7610 0.1002
Eu1A Eu -0.64967(3) 0.56608(3) 0.85820(3)
Eu1A_2 Eu 0.35033(3) 0.56608(3) -0.14180(3)
Eu1A_3 Eu 0.35033(3) 1.56608(3) -0.14180(3)
Eu1_2 Eu 0.64967(3) 1.43392(3) 0.14180(3)
Eu1A_4 Eu 1.35033(3) -0.43392(3) 0.85820(3)
O1A O -0.3623(5) 0.6265(4) 0.7348(4)
O2A O -0.8287(5) 0.4685(5) 1.0882(4)
H1A H -0.8976 0.4145 1.0951
H2A H -0.7781 0.4338 1.1505
O3A O -0.4475(5) 0.4759(5) 0.6782(4)
O4A O 0.5133(5) 1.3665(4) -0.0119(4)
O4A_2 O 0.5133(5) 0.3665(4) -0.0119(4)
O4A_3 O -0.4867(5) 0.3665(4) 0.9881(4)
O4_2 O -0.5133(5) 0.6335(4) 1.0119(4)
O5A O 0.7134(6) 1.2244(5) 0.0665(6)
O5A_2 O 0.7134(6) 0.2244(5) 0.0665(6)
O5_2 O -0.7134(6) 0.7756(5) 0.9335(6)
O6A O 1.3251(5) -0.2424(5) 0.6451(5)
O6A_2 O -0.6749(5) 0.7576(5) 0.6451(5)
O7A O 1.0884(5) -0.2912(4) 0.8084(4)
O7A_2 O -0.9116(5) 0.7088(4) 0.8084(4)
O8A O -0.7963(5) 0.4146(5) 0.8337(5)
C1A C -0.3329(7) 0.5418(6) 0.6686(6)
C2A C -0.1623(7) 0.5200(6) 0.5812(6)
C3A C -0.1219(7) 0.4216(7) 0.5128(7)
H3A H -0.2034 0.3694 0.5207
C4A C -0.0371(7) 0.5976(7) 0.5655(6)
H4A H -0.0628 0.6641 0.6096
C5A C 0.5953(8) 1.2445(6) 0.0184(6)
C6A C 0.5452(7) 1.1207(6) 0.0064(6)
C7A C 0.3834(7) 1.1121(6) 0.0185(6)
H5A H 0.3041 1.1879 0.0297
C8A C 0.6637(8) 1.0081(6) -0.0142(6)
H6A H 0.7742 1.0134 -0.0250
C9A C 1.1699(8) -0.2196(6) 0.6883(7)
C10A C 1.0829(7) -0.1028(6) 0.5903(6)
C11A C 0.9126(8) -0.0720(7) 0.6342(6)
H7A H 0.8530 -0.1208 0.7248
C12A C 1.1690(7) -0.0298(7) 0.4551(6)
H8A H 1.2834 -0.0498 0.4243
C13A C -0.7932(8) 0.3193(7) 0.7885(7)
C14A C -0.7039(10) 0.1602(8) 0.6713(8)
H9A H -0.6918 0.1813 0.5748
H10A H -0.6302 0.0757 0.7033
C15A C -0.8841(10) 0.1386(8) 0.7600(8)
H11A H -0.8960 0.0394 0.8230
H12A H -0.9576 0.1646 0.7029
N1A N -0.6716(7) 0.2832(6) 0.6915(6)
H13A H -0.5832 0.3277 0.6455
N2A N -0.9173(7) 0.2354(6) 0.8340(6)
H14A H -1.0064 0.2390 0.8998
loop_
_geom_bond_atom_site_label_1
_geom_bond_atom_site_label_2
_geom_bond_site_symmetry_1
_geom_bond_site_symmetry_2
Eu1 O1 1_555 1_555
O1 C1 1_555 1_555
O2 Eu1 1_555 1_555
H1 O2 1_555 1_555
H2 O2 1_555 1_555
O3 Eu1 1_555 1_555
O4 Eu1 1_555 1_555
O5 C5 1_555 1_555
O6 Eu1 1_555 1_555
O7 Eu1 1_555 1_555
O8 Eu1 1_555 1_555
C1 O3 1_555 1_555
C2 C1 1_555 1_555
C3 C2 1_555 1_555
H3 C3 1_555 1_555
C4 C2 1_555 1_555
H4 C4 1_555 1_555
C5 O4 1_555 1_555
C6 C5 1_555 1_555
C7 C6 1_555 1_555
H5 C7 1_555 1_555
C8 C6 1_555 1_555
H6 C8 1_555 1_555
C9 O6 1_555 1_555
C10 C9 1_555 1_555
C11 C10 1_555 1_555
H7 C11 1_555 1_555
C12 C10 1_555 1_555
H8 C12 1_555 1_555
C13 O8 1_555 1_555
C14 H9 1_555 1_555
H10 C14 1_555 1_555
C15 C14 1_555 1_555
H11 C15 1_555 1_555
H12 C15 1_555 1_555
N1 C13 1_555 1_555
H13 N1 1_555 1_555
N2 C13 1_555 1_555
H14 N2 1_555 1_555
Eu1A O1A 1_555 1_555
Eu1A_2 O4 1_555 1_555
Eu1A_3 O4A 1_555 1_555
Eu1_2 O4A 1_555 1_555
Eu1A_4 O6A 1_555 1_555
O1A C1A 1_555 1_555
O2A Eu1A 1_555 1_555
H1A O2A 1_555 1_555
H2A O2A 1_555 1_555
O3A Eu1A 1_555 1_555
O4A C5A 1_555 1_555
O4A_2 Eu1 1_555 1_555
O4A_3 Eu1A 1_555 1_555
O4_2 Eu1A 1_555 1_555
O5A Eu1_2 1_555 1_555
O5A_2 Eu1 1_555 1_555
O5_2 Eu1A 1_555 1_555
O6A C9A 1_555 1_555
O6A_2 Eu1A 1_555 1_555
O7A Eu1A_4 1_555 1_555
O7A_2 Eu1A 1_555 1_555
O8A Eu1A 1_555 1_555
C1A O3A 1_555 1_555
C2A C1A 1_555 1_555
C3A C4 1_555 1_555
H3A C3A 1_555 1_555
C4A C3 1_555 1_555
H4A C4A 1_555 1_555
C5A O5A 1_555 1_555
C6A C5A 1_555 1_555
C7A C8 1_555 1_555
H5A C7A 1_555 1_555
C8A C7 1_555 1_555
H6A C8A 1_555 1_555
C9A O7A 1_555 1_555
C10A C9A 1_555 1_555
C11A C12 1_555 1_555
H7A C11A 1_555 1_555
C12A C11 1_555 1_555
H8A C12A 1_555 1_555
C13A O8A 1_555 1_555
C14A H9A 1_555 1_555
H10A C14A 1_555 1_555
C15A C14A 1_555 1_555
H11A C15A 1_555 1_555
H12A C15A 1_555 1_555
N1A C13A 1_555 1_555
H13A N1A 1_555 1_555
N2A C13A 1_555 1_555
H14A N2A 1_555 1_555
O5 Eu1A_2 1_555 1_555
O7 C9 1_555 1_555
C14 N1 1_555 1_555
C15 N2 1_555 1_555
Eu1A_2 O4A_2 1_555 1_555
C2A C3A 1_555 1_555
C2A C4A 1_555 1_555
C6A C7A 1_555 1_555
C6A C8A 1_555 1_555
C10A C11A 1_555 1_555
C10A C12A 1_555 1_555
C14A N1A 1_555 1_555
C15A N2A 1_555 1_555

#END
