
#######################################################################
#
#                 Cambridge Crystallographic Data Centre
#                                CCDC 
#
#######################################################################
#
# If this CIF has been generated from an entry in the Cambridge 
# Structural Database, then it will include bibliographic, chemical, 
# crystal, experimental, refinement or atomic coordinate data resulting 
# from the CCDC's data processing and validation procedures.
#
#######################################################################

data_LAGRES
_symmetry_cell_setting           triclinic
_symmetry_space_group_name_H-M   'P -1'
_symmetry_Int_Tables_number      2
_space_group_name_Hall           '-P 1'
loop_
_symmetry_equiv_pos_site_id
_symmetry_equiv_pos_as_xyz
1 x,y,z
2 -x,-y,-z
_cell_length_a                   8.5776(5)
_cell_length_b                   10.1950(6)
_cell_length_c                   10.9115(7)
_cell_angle_alpha                66.672(3)
_cell_angle_beta                 69.425(3)
_cell_angle_gamma                78.113(3)
_cell_volume                     817.822
loop_
_atom_site_label
_atom_site_type_symbol
_atom_site_fract_x
_atom_site_fract_y
_atom_site_fract_z
Er1 Er 0.65333(3) 0.43394(3) 0.15342(3)
O1 O 0.3684(5) 0.3808(5) 0.2604(5)
O2 O 0.8326(6) 0.5114(6) -0.0768(5)
H1 H 0.9015 0.5654 -0.0836
H2 H 0.7820 0.5461 -0.1391
O3 O 0.4529(6) 0.5199(6) 0.3303(5)
O4 O 0.5202(7) 0.6295(5) 0.0237(5)
O5 O 0.3314(7) 0.7549(6) -0.0794(7)
O6 O 0.6731(6) 0.2497(6) 0.3636(6)
O7 O 0.9092(6) 0.2890(5) 0.1910(5)
O8 O 0.8040(6) 0.5786(5) 0.1752(5)
C1 C 0.3378(8) 0.4599(7) 0.3330(7)
C2 C 0.1625(8) 0.4818(7) 0.4190(7)
C3 C 0.1229(9) 0.5776(8) 0.4909(7)
H3 H 0.2050 0.6287 0.4850
C4 C 0.0378(9) 0.4055(8) 0.4305(8)
H4 H 0.0649 0.3414 0.3834
C5 C 0.4361(9) 0.7443(7) -0.0203(7)
C6 C 0.4699(9) 0.8760(6) -0.0074(7)
C7 C 0.6260(9) 0.8931(7) -0.0126(7)
H5 H 0.7113 0.8216 -0.0221
C8 C 0.3413(9) 0.9829(7) 0.0036(8)
H6 H 0.2356 0.9720 0.0050
C9 C 0.8283(9) 0.2200(7) 0.3157(8)
C10 C 0.9176(9) 0.1059(7) 0.4100(7)
C11 C 1.0868(9) 0.0737(8) 0.3652(8)
H7 H 1.1467 0.1236 0.2737
C12 C 0.8288(9) 0.0307(8) 0.5482(8)
H8 H 0.7142 0.0508 0.5816
C13 C 0.8015(9) 0.6765(8) 0.2167(8)
C14 C 0.7098(11) 0.8379(8) 0.3321(10)
H9 H 0.6941 0.8190 0.4299
H10 H 0.6382 0.9216 0.2974
C15 C 0.8902(11) 0.8584(8) 0.2469(10)
H11 H 0.9051 0.9570 0.1844
H12 H 0.9613 0.8312 0.3067
N1 N 0.6755(8) 0.7148(7) 0.3134(7)
H13 H 0.5850 0.6716 0.3591
N2 N 0.9257(8) 0.7618(7) 0.1685(8)
H14 H 1.0147 0.7602 0.1004
Er1A Er -0.65333(3) 0.56606(3) 0.84658(3)
Er1_2 Er 0.65333(3) 1.43394(3) 0.15342(3)
Er1A_2 Er 0.34667(3) 0.56606(3) -0.15342(3)
Er1A_3 Er 0.34667(3) 1.56606(3) -0.15342(3)
Er1A_4 Er 1.34667(3) -0.43394(3) 0.84658(3)
O1A O -0.3684(5) 0.6192(5) 0.7396(5)
O2A O -0.8326(6) 0.4886(6) 1.0768(5)
H1A H -0.9015 0.4346 1.0836
H2A H -0.7820 0.4539 1.1391
O3A O -0.4529(6) 0.4801(6) 0.6697(5)
O4A O 0.4798(7) 1.3705(5) -0.0237(5)
O4A_2 O -0.5202(7) 0.3705(5) 0.9763(5)
O5A O 0.6686(7) 1.2451(6) 0.0794(7)
O5_2 O -0.6686(7) 0.7549(6) 0.9206(7)
O5A_2 O 0.6686(7) 0.2451(6) 0.0794(7)
O6A O 1.3269(6) -0.2497(6) 0.6364(6)
O6A_2 O -0.6731(6) 0.7503(6) 0.6364(6)
O7A O 1.0908(6) -0.2890(5) 0.8090(5)
O7A_2 O -0.9092(6) 0.7110(5) 0.8090(5)
O8A O -0.8040(6) 0.4214(5) 0.8248(5)
C1A C -0.3378(8) 0.5401(7) 0.6670(7)
C2A C -0.1625(8) 0.5182(7) 0.5810(7)
C3A C -0.1229(9) 0.4224(8) 0.5091(7)
H3A H -0.2050 0.3713 0.5150
C4A C -0.0378(9) 0.5945(8) 0.5695(8)
H4A H -0.0649 0.6586 0.6166
C5A C 0.5639(9) 1.2557(7) 0.0203(7)
C6A C 0.5301(9) 1.1240(6) 0.0074(7)
C7A C 0.3740(9) 1.1069(7) 0.0126(7)
H5A H 0.2887 1.1784 0.0221
C8A C 0.6587(9) 1.0171(7) -0.0036(8)
H6A H 0.7644 1.0280 -0.0050
C9A C 1.1717(9) -0.2200(7) 0.6843(8)
C9A_2 C -0.8283(9) 0.7800(7) 0.6843(8)
C10A C 1.0824(9) -0.1059(7) 0.5900(7)
C11A C 0.9132(9) -0.0737(8) 0.6348(8)
H7A H 0.8533 -0.1236 0.7263
C12A C 1.1712(9) -0.0307(8) 0.4518(8)
H8A H 1.2858 -0.0508 0.4184
C13A C -0.8015(9) 0.3235(8) 0.7833(8)
C14A C -0.7098(11) 0.1621(8) 0.6679(10)
H9A H -0.6941 0.1810 0.5701
H10A H -0.6382 0.0784 0.7026
C15A C -0.8902(11) 0.1416(8) 0.7531(10)
H11A H -0.9051 0.0430 0.8156
H12A H -0.9613 0.1688 0.6933
N1A N -0.6755(8) 0.2852(7) 0.6866(7)
H13A H -0.5850 0.3284 0.6409
N2A N -0.9257(8) 0.2382(7) 0.8315(8)
H14A H -1.0147 0.2398 0.8996
loop_
_geom_bond_atom_site_label_1
_geom_bond_atom_site_label_2
_geom_bond_site_symmetry_1
_geom_bond_site_symmetry_2
Er1 O1 1_555 1_555
O1 C1 1_555 1_555
O2 Er1 1_555 1_555
H1 O2 1_555 1_555
H2 O2 1_555 1_555
O3 Er1 1_555 1_555
O4 Er1 1_555 1_555
O5 C5 1_555 1_555
O6 Er1 1_555 1_555
O7 Er1 1_555 1_555
O8 Er1 1_555 1_555
C1 O3 1_555 1_555
C2 C1 1_555 1_555
C3 C2 1_555 1_555
H3 C3 1_555 1_555
C4 C2 1_555 1_555
H4 C4 1_555 1_555
C5 O4 1_555 1_555
C6 C5 1_555 1_555
C7 C6 1_555 1_555
H5 C7 1_555 1_555
C8 C6 1_555 1_555
H6 C8 1_555 1_555
C9 O6 1_555 1_555
C10 C9 1_555 1_555
C11 C10 1_555 1_555
H7 C11 1_555 1_555
C12 C10 1_555 1_555
H8 C12 1_555 1_555
C13 O8 1_555 1_555
C14 H9 1_555 1_555
H10 C14 1_555 1_555
C15 C14 1_555 1_555
H11 C15 1_555 1_555
H12 C15 1_555 1_555
N1 C13 1_555 1_555
H13 N1 1_555 1_555
N2 C13 1_555 1_555
H14 N2 1_555 1_555
Er1A O1A 1_555 1_555
Er1_2 O5A 1_555 1_555
Er1A_2 O5 1_555 1_555
Er1A_3 O4A 1_555 1_555
Er1A_4 O6A 1_555 1_555
O1A C1A 1_555 1_555
O2A Er1A 1_555 1_555
H1A O2A 1_555 1_555
H2A O2A 1_555 1_555
O3A Er1A 1_555 1_555
O4A C5A 1_555 1_555
O4A_2 Er1A 1_555 1_555
O5A C5A 1_555 1_555
O5_2 Er1A 1_555 1_555
O5A_2 Er1 1_555 1_555
O6A C9A 1_555 1_555
O6A_2 Er1A 1_555 1_555
O7A Er1A_4 1_555 1_555
O7A_2 Er1A 1_555 1_555
O8A Er1A 1_555 1_555
C1A O3A 1_555 1_555
C2A C1A 1_555 1_555
C3A C4 1_555 1_555
H3A C3A 1_555 1_555
C4A C3 1_555 1_555
H4A C4A 1_555 1_555
C5A C6A 1_555 1_555
C6A C7A 1_555 1_555
C7A C8 1_555 1_555
H5A C7A 1_555 1_555
C8A C7 1_555 1_555
H6A C8A 1_555 1_555
C9A O7A 1_555 1_555
C9A_2 O6A_2 1_555 1_555
C10A C9A 1_555 1_555
C11A C12 1_555 1_555
H7A C11A 1_555 1_555
C12A C11 1_555 1_555
H8A C12A 1_555 1_555
C13A O8A 1_555 1_555
C14A H9A 1_555 1_555
H10A C14A 1_555 1_555
C15A C14A 1_555 1_555
H11A C15A 1_555 1_555
H12A C15A 1_555 1_555
N1A C13A 1_555 1_555
H13A N1A 1_555 1_555
N2A C13A 1_555 1_555
H14A N2A 1_555 1_555
O7 C9 1_555 1_555
C14 N1 1_555 1_555
C15 N2 1_555 1_555
O7A_2 C9A_2 1_555 1_555
C2A C3A 1_555 1_555
C2A C4A 1_555 1_555
C6A C8A 1_555 1_555
C10A C11A 1_555 1_555
C10A C12A 1_555 1_555
C14A N1A 1_555 1_555
C15A N2A 1_555 1_555

#END
