
#######################################################################
#
#                 Cambridge Crystallographic Data Centre
#                                CCDC 
#
#######################################################################
#
# If this CIF has been generated from an entry in the Cambridge 
# Structural Database, then it will include bibliographic, chemical, 
# crystal, experimental, refinement or atomic coordinate data resulting 
# from the CCDC's data processing and validation procedures.
#
#######################################################################

data_LAGROC
_symmetry_cell_setting           orthorhombic
_symmetry_space_group_name_H-M   'C m c m'
_symmetry_Int_Tables_number      63
_space_group_name_Hall           '-C 2n 2'
loop_
_symmetry_equiv_pos_site_id
_symmetry_equiv_pos_as_xyz
1 x,y,z
2 -x,-y,1/2+z
3 -x,y,1/2-z
4 x,-y,-z
5 1/2+x,1/2+y,z
6 1/2-x,1/2-y,1/2+z
7 1/2-x,1/2+y,1/2-z
8 1/2+x,1/2-y,-z
9 -x,-y,-z
10 x,y,1/2-z
11 x,-y,1/2+z
12 -x,y,z
13 1/2-x,1/2-y,-z
14 1/2+x,1/2+y,1/2-z
15 1/2+x,1/2-y,1/2+z
16 1/2-x,1/2+y,z
_cell_length_a                   15.6967(3)
_cell_length_b                   15.2088(3)
_cell_length_c                   10.7777(2)
_cell_angle_alpha                90
_cell_angle_beta                 90
_cell_angle_gamma                90
_cell_volume                     2572.94
loop_
_atom_site_label
_atom_site_type_symbol
_atom_site_fract_x
_atom_site_fract_y
_atom_site_fract_z
Zn1 Zn 0.0000 0.36286(3) 0.11332(5)
C1 C 0.1161(3) 0.4848(3) 0.2500
C2 C 0.3133(3) 0.6793(3) 0.2500
O1 O 0.0895(3) 0.4582(3) 0.1489(3)
C3 C 0.1849(3) 0.5542(3) 0.2500
C4 C 0.2795(3) 0.6493(3) 0.3611(4)
H1 H 0.2999 0.6715 0.4358
C5 C 0.2162(3) 0.5870(3) 0.3615(4)
H2 H 0.1943 0.5667 0.4364
C6 C 0.3832(3) 0.7474(3) 0.2500
O2 O 0.4095(2) 0.7732(3) 0.3524(3)
O3 O 0.0000 0.3728(2) -0.0703(4)
H3 H 0.0000 0.3235 -0.1010
Zn1B Zn 0.0000 0.36286(3) 0.38668(5)
Zn1D Zn -0.5000 0.86286(3) 0.11332(5)
Zn1D_2 Zn 0.5000 0.86286(3) 0.11332(5)
Zn1F Zn -0.5000 0.86286(3) 0.38668(5)
Zn1F_2 Zn 0.5000 0.86286(3) 0.38668(5)
C1B C -0.1161(3) 0.4848(3) 0.2500
C2B C -0.3133(3) 0.6793(3) 0.2500
O1I O 0.0895(3) 0.4582(3) 0.3511(3)
O1B O -0.0895(3) 0.4582(3) 0.3511(3)
O1K O -0.0895(3) 0.4582(3) 0.1489(3)
C3B C -0.1849(3) 0.5542(3) 0.2500
C4I C 0.2795(3) 0.6493(3) 0.1389(4)
C4B C -0.2795(3) 0.6493(3) 0.1389(4)
C4K C -0.2795(3) 0.6493(3) 0.3611(4)
H1I H 0.2999 0.6715 0.0642
H1B H -0.2999 0.6715 0.0642
H1K H -0.2999 0.6715 0.4358
C5I C 0.2162(3) 0.5870(3) 0.1385(4)
C5B C -0.2162(3) 0.5870(3) 0.1385(4)
C5K C -0.2162(3) 0.5870(3) 0.3615(4)
H2I H 0.1943 0.5667 0.0636
H2B H -0.1943 0.5667 0.0636
H2K H -0.1943 0.5667 0.4364
C6B C -0.3832(3) 0.7474(3) 0.2500
O2I O 0.4095(2) 0.7732(3) 0.1476(3)
O2B O -0.4095(2) 0.7732(3) 0.1476(3)
O2K O -0.4095(2) 0.7732(3) 0.3524(3)
O2D O -0.0905(2) 0.2732(3) 0.3524(3)
O2F O 0.0905(2) 0.2732(3) 0.1476(3)
O2M O -0.0905(2) 0.2732(3) 0.1476(3)
O2O O 0.0905(2) 0.2732(3) 0.3524(3)
O3B O 0.0000 0.3728(2) 0.5703(4)
H3B H 0.0000 0.3235 0.6010
O4 O 0.0000 0.2455(7) -0.2500
C7 C 0.0000 0.1635(9) -0.2500
N1 N 0.0741(6) 0.1206(6) -0.2500
C8 C 0.1558(12) 0.1673(12) -0.2500
C9 C 0.0746(19) 0.0367(18) -0.346(2)
N1B N -0.0741(6) 0.1206(6) -0.2500
C8B C -0.1558(12) 0.1673(12) -0.2500
C9B C -0.0746(19) 0.0367(18) -0.154(2)
C9I C 0.0746(19) 0.0367(18) -0.154(2)
C9K C -0.0746(19) 0.0367(18) -0.346(2)
loop_
_geom_bond_atom_site_label_1
_geom_bond_atom_site_label_2
_geom_bond_site_symmetry_1
_geom_bond_site_symmetry_2
Zn1 O1 1_555 1_555
C1 O1 1_555 1_555
C2 C4 1_555 1_555
C3 C1 1_555 1_555
C4 H1 1_555 1_555
C5 C3 1_555 1_555
H2 C5 1_555 1_555
C6 C2 1_555 1_555
O2 C6 1_555 1_555
O3 Zn1 1_555 1_555
H3 O3 1_555 1_555
O4 C7 1_555 1_555
C7 N1 1_555 1_555
N1 C8 1_555 1_555
C9 N1 1_555 1_555
Zn1B O1I 1_555 1_555
Zn1D O2B 1_555 1_555
Zn1D_2 O2I 1_555 1_555
Zn1F O2K 1_555 1_555
Zn1F_2 O2 1_555 1_555
C1B O1B 1_555 1_555
C2B C4B 1_555 1_555
O1I C1 1_555 1_555
O1B Zn1B 1_555 1_555
O1K Zn1 1_555 1_555
C3B C1B 1_555 1_555
C4I C2 1_555 1_555
C4B H1B 1_555 1_555
C4K C2B 1_555 1_555
H1I C4I 1_555 1_555
H1K C4K 1_555 1_555
C5I C3 1_555 1_555
C5B C3B 1_555 1_555
C5K C3B 1_555 1_555
H2I C5I 1_555 1_555
H2B C5B 1_555 1_555
H2K C5K 1_555 1_555
C6B C2B 1_555 1_555
O2I C6 1_555 1_555
O2B C6B 1_555 1_555
O2K C6B 1_555 1_555
O2D Zn1B 1_555 1_555
O2F Zn1 1_555 1_555
O2M Zn1 1_555 1_555
O2O Zn1B 1_555 1_555
O3B Zn1B 1_555 1_555
H3B O3B 1_555 1_555
N1B C7 1_555 1_555
C8B N1B 1_555 1_555
C9B N1B 1_555 1_555
C9I N1 1_555 1_555
C9K N1B 1_555 1_555
C4 C5 1_555 1_555
C1B O1K 1_555 1_555
C4I C5I 1_555 1_555
C4B C5B 1_555 1_555
C4K C5K 1_555 1_555

#END
