
#######################################################################
#
#                 Cambridge Crystallographic Data Centre
#                                CCDC 
#
#######################################################################
#
# If this CIF has been generated from an entry in the Cambridge 
# Structural Database, then it will include bibliographic, chemical, 
# crystal, experimental, refinement or atomic coordinate data resulting 
# from the CCDC's data processing and validation procedures.
#
#######################################################################

data_LAGSIX
_symmetry_cell_setting           monoclinic
_symmetry_space_group_name_H-M   'P 21/c'
_symmetry_Int_Tables_number      14
_space_group_name_Hall           '-P 2ybc'
loop_
_symmetry_equiv_pos_site_id
_symmetry_equiv_pos_as_xyz
1 x,y,z
2 -x,1/2+y,1/2-z
3 -x,-y,-z
4 x,1/2-y,1/2+z
_cell_length_a                   14.1295(4)
_cell_length_b                   19.2990(5)
_cell_length_c                   20.2432(5)
_cell_angle_alpha                90
_cell_angle_beta                 130.955(2)
_cell_angle_gamma                90
_cell_volume                     4168.86
loop_
_atom_site_label
_atom_site_type_symbol
_atom_site_fract_x
_atom_site_fract_y
_atom_site_fract_z
Sm1 Sm -0.28212(3) -0.226821(19) 0.25373(2)
Sm2 Sm -0.78319(3) -0.253800(18) 0.00628(2)
O1 O -0.6159(4) -0.2209(3) 0.0164(3)
O2 O -0.4475(4) -0.2341(3) -0.2557(3)
O3 O -0.1059(4) -0.2339(2) 0.7758(3)
O4 O -0.4086(4) -0.2196(3) 0.1021(3)
O5 O -0.1631(4) -0.2293(2) 0.4071(3)
O6 O 0.0928(4) -0.2713(3) 0.8563(3)
O7 O -0.2965(4) -0.3486(3) 0.2363(3)
C1 C -0.5261(6) -0.2163(3) -0.0496(4)
N1 N -0.4874(5) -0.0261(3) 0.1675(4)
O8 O -0.7466(5) -0.1383(3) 0.0788(3)
O9 O -0.6991(5) -0.3670(3) 0.0005(3)
N2 N -0.1711(6) -0.4399(3) 0.3092(4)
O10 O -0.8460(5) -0.3748(3) 0.0069(3)
N3 N -0.3000(6) -0.4329(4) 0.1581(4)
N4 N -0.1833(5) -0.0316(3) 0.1999(4)
C2 C -0.0130(6) -0.2521(3) 0.7843(4)
N5 N -0.1513(5) -0.0227(3) 0.3274(4)
C3 C -0.5409(6) -0.2204(3) -0.1935(4)
O11 O -0.3972(4) -0.1289(2) 0.2348(3)
O12 O 0.0391(4) -0.2562(3) 0.4895(3)
O13 O -0.1698(4) -0.1281(2) 0.2695(3)
C4 C -0.5161(6) -0.2198(3) 0.0289(4)
C5 C -0.4235(6) -0.2175(3) -0.1084(4)
O14 O -0.6538(4) -0.2228(3) -0.3452(3)
C6 C -0.1288(6) -0.2072(4) 0.5596(4)
C7 C -0.5472(6) -0.2260(3) -0.2701(4)
C8 C -0.4165(6) -0.2150(3) -0.0372(4)
C9 C -0.1191(6) -0.2097(4) 0.6333(4)
C10 C -0.0459(6) -0.2456(3) 0.5585(4)
N6 N -0.7697(7) -0.4054(3) 0.0035(4)
C11 C -0.0572(6) -0.2441(3) 0.4792(5)
C12 C -0.0235(6) -0.2508(3) 0.7057(4)
O15 O -0.8510(4) -0.1342(3) -0.0595(3)
C13 C 0.0481(6) -0.2865(4) 0.6302(4)
O16 O -0.8168(6) -0.0396(4) 0.0113(4)
C14 C -0.6488(6) -0.2192(4) -0.2054(5)
C15 C -0.1692(6) -0.0637(4) 0.2657(4)
C16 C -0.6426(6) -0.2174(4) -0.1341(4)
C17 C -0.4468(6) -0.0739(4) 0.2297(4)
N7 N -0.8053(6) -0.1021(4) 0.0103(4)
C18 C -0.5480(7) 0.0400(4) 0.1568(5)
N8 N -0.4565(5) -0.0584(3) 0.2916(4)
C19 C 0.0591(6) -0.2878(3) 0.7042(4)
O17 O -0.7633(6) -0.4685(4) 0.0023(4)
C20 C -0.2546(6) -0.4052(4) 0.2364(4)
C21 C -0.1173(8) -0.5065(5) 0.3135(6)
C22 C -0.1283(9) -0.5170(5) 0.2351(6)
C23 C -0.4090(8) -0.4003(5) 0.0732(5)
C24 C -0.2644(9) -0.5039(5) 0.1515(6)
C25 C -0.4213(7) -0.1117(5) 0.3575(5)
C26 C -0.1133(7) 0.0799(5) 0.2758(5)
C27 C -0.1291(7) -0.4103(5) 0.3914(5)
C28 C -0.1520(8) 0.0528(5) 0.3254(6)
C29 C -0.2093(7) -0.0744(4) 0.1296(5)
C30 C -0.5000(7) -0.0471(4) 0.0914(5)
C31 C -0.5293(8) 0.0015(5) 0.2826(5)
C32 C -0.5094(7) 0.0626(4) 0.2435(5)
C33 C -0.1890(7) 0.0436(4) 0.1888(5)
C34 C -0.1297(7) -0.0552(4) 0.4029(5)
Sm1C Sm -0.28212(3) -0.273179(19) -0.24627(2)
Sm1C_2 Sm -0.28212(3) -0.273179(19) 0.75373(2)
Sm2_2 Sm 0.21681(3) -0.253800(18) 1.00628(2)
Sm2C Sm 0.21681(3) -0.246200(18) 0.50628(2)
Sm2C_2 Sm -0.78319(3) -0.246200(18) -0.49372(2)
O2C O -0.4475(4) -0.2659(3) 0.2443(3)
O3C O -0.1059(4) -0.2661(2) 0.2758(3)
O6_2 O -0.9072(4) -0.2713(3) -0.1437(3)
O12C O -0.9609(4) -0.2438(3) -0.0105(3)
O14C O -0.6538(4) -0.2772(3) 0.1548(3)
loop_
_geom_bond_atom_site_label_1
_geom_bond_atom_site_label_2
_geom_bond_site_symmetry_1
_geom_bond_site_symmetry_2
Sm1 O4 1_555 1_555
Sm2 O1 1_555 1_555
O1 C4 1_555 1_555
O2 C7 1_555 1_555
O3 C2 1_555 1_555
O4 C4 1_555 1_555
O5 Sm1 1_555 1_555
O6 C2 1_555 1_555
O7 Sm1 1_555 1_555
C1 C4 1_555 1_555
N1 C17 1_555 1_555
O8 Sm2 1_555 1_555
O9 Sm2 1_555 1_555
N2 C20 1_555 1_555
O10 Sm2 1_555 1_555
N3 C20 1_555 1_555
N4 C15 1_555 1_555
C2 C12 1_555 1_555
N5 C15 1_555 1_555
C3 C5 1_555 1_555
O11 Sm1 1_555 1_555
O12 C11 1_555 1_555
O13 Sm1 1_555 1_555
C5 C8 1_555 1_555
O14 C7 1_555 1_555
C6 C9 1_555 1_555
C7 C3 1_555 1_555
C8 C1 1_555 1_555
C9 C12 1_555 1_555
C10 C6 1_555 1_555
N6 O9 1_555 1_555
C11 O5 1_555 1_555
C12 C19 1_555 1_555
O15 Sm2 1_555 1_555
C13 C10 1_555 1_555
O16 N7 1_555 1_555
C14 C3 1_555 1_555
C15 O13 1_555 1_555
C16 C1 1_555 1_555
C17 O11 1_555 1_555
N7 O8 1_555 1_555
C18 N1 1_555 1_555
N8 C17 1_555 1_555
C19 C13 1_555 1_555
O17 N6 1_555 1_555
C20 O7 1_555 1_555
C21 N2 1_555 1_555
C22 C21 1_555 1_555
C23 N3 1_555 1_555
C24 N3 1_555 1_555
C25 N8 1_555 1_555
C26 C28 1_555 1_555
C27 N2 1_555 1_555
C28 N5 1_555 1_555
C29 N4 1_555 1_555
C30 N1 1_555 1_555
C31 N8 1_555 1_555
C32 C18 1_555 1_555
C33 N4 1_555 1_555
C34 N5 1_555 1_555
Sm1C O2 1_555 1_555
Sm1C_2 O3 1_555 1_555
Sm2_2 O6 1_555 1_555
Sm2C O12 1_555 1_555
Sm2C_2 O14 1_555 1_555
O2C Sm1 1_555 1_555
O3C Sm1 1_555 1_555
O6_2 Sm2 1_555 1_555
O12C Sm2 1_555 1_555
O14C Sm2 1_555 1_555
O10 N6 1_555 1_555
C10 C11 1_555 1_555
O15 N7 1_555 1_555
C14 C16 1_555 1_555
C22 C24 1_555 1_555
C26 C33 1_555 1_555
C31 C32 1_555 1_555

#END
