
#######################################################################
#
#                 Cambridge Crystallographic Data Centre
#                                CCDC 
#
#######################################################################
#
# If this CIF has been generated from an entry in the Cambridge 
# Structural Database, then it will include bibliographic, chemical, 
# crystal, experimental, refinement or atomic coordinate data resulting 
# from the CCDC's data processing and validation procedures.
#
#######################################################################

data_LAGVUM
_symmetry_cell_setting           triclinic
_symmetry_space_group_name_H-M   'P -1'
_symmetry_Int_Tables_number      2
_space_group_name_Hall           '-P 1'
loop_
_symmetry_equiv_pos_site_id
_symmetry_equiv_pos_as_xyz
1 x,y,z
2 -x,-y,-z
_cell_length_a                   12.0086(2)
_cell_length_b                   12.9860(2)
_cell_length_c                   14.2475(2)
_cell_angle_alpha                74.3100(10)
_cell_angle_beta                 75.2050(10)
_cell_angle_gamma                67.0350(10)
_cell_volume                     1941.15
loop_
_atom_site_label
_atom_site_type_symbol
_atom_site_fract_x
_atom_site_fract_y
_atom_site_fract_z
Sm1 Sm 0.58799(3) 0.61435(3) -0.09526(2)
O1 O 0.6390(5) 0.6095(5) 0.0668(4)
O2 O 0.6394(6) 0.5845(5) 0.7269(4)
O3 O 0.4849(6) 0.7384(5) 0.7657(4)
O4 O 0.7026(5) 0.4164(4) -0.0859(4)
O5 O 0.5950(5) 0.8021(4) -0.1126(4)
O6 O 0.5496(4) 0.4817(4) 0.0975(3)
O7 O 0.6095(4) 0.2927(4) 0.0086(3)
O8 O 0.8035(6) 0.5871(5) -0.1393(4)
N1 N 0.9432(8) 0.5460(8) -0.2726(6)
N2 N 0.9784(7) 0.4309(7) -0.1171(7)
N3 N 0.4898(7) 0.9924(5) -0.1395(5)
N4 N 0.6972(8) 0.9211(6) -0.1285(6)
C1 C 1.0602(14) 0.4702(16) -0.3198(12)
C2 C 1.1198(18) 0.3569(17) -0.2667(15)
C3 C 1.1008(11) 0.3527(13) -0.1574(13)
C4 C 0.8853(12) 0.6458(12) -0.3371(9)
C5 C 0.8091(7) 0.2227(6) -0.0831(5)
C6 C 0.6011(6) 0.5336(6) 0.1246(5)
C7 C 0.7623(7) 0.3042(6) 0.2140(6)
C8 C 0.4096(8) 0.9153(7) 0.6024(5)
C9 C 0.5528(7) 0.6747(6) 0.7038(5)
N5 N 1.0237(6) 0.0425(5) -0.1322(4)
C10 C 0.6987(6) 0.3179(6) -0.0526(5)
C11 C 0.7044(7) 0.3916(6) 0.2682(5)
N6 N 0.4770(7) 0.7510(6) 0.4068(5)
N7 N 0.6710(6) 0.4570(5) 0.4243(4)
C12 C 0.9715(7) 0.0468(6) -0.0399(5)
C13 C 0.6219(6) 0.5042(6) 0.2311(5)
C14 C 0.8415(10) 0.2022(8) 0.2556(7)
C15 C 0.3355(11) 1.0223(8) 0.5577(6)
C16 C 0.5694(7) 0.5856(6) 0.2888(5)
C17 C 0.9706(7) 0.1281(6) -0.2038(5)
C18 C 0.8620(6) 0.1347(6) -0.0110(5)
C19 C 0.7201(7) 0.3771(6) 0.3685(5)
C20 C 0.8630(7) 0.2222(6) -0.1838(5)
C21 C 0.5283(7) 0.7078(6) 0.5989(5)
C22 C 0.4552(8) 0.8196(7) 0.5564(5)
C23 C 0.5755(7) 0.6232(6) 0.5425(5)
C24 C 0.8704(9) 0.2977(7) -0.3591(6)
C25 C 0.3626(12) 0.9442(8) 0.4127(7)
C26 C 0.5914(8) 0.9028(6) -0.1266(5)
C27 C 0.8097(11) 0.8243(10) -0.1163(12)
C28 C 0.5973(7) 0.5584(7) 0.3855(5)
C29 C 0.4369(8) 0.8347(7) 0.4583(5)
C30 C 0.5500(7) 0.6473(6) 0.4466(5)
C31 C 0.3202(12) 1.0343(8) 0.4597(7)
C32 C 0.9053(9) 0.5219(8) -0.1756(7)
C33 C 0.4800(10) 1.1131(7) -0.1524(7)
C34 C 0.8582(9) 0.1837(7) 0.3550(7)
C35 C 0.8123(8) 0.3089(7) -0.2636(6)
C36 C 0.7057(10) 1.0344(8) -0.1527(7)
C37 C 0.8037(8) 0.2667(7) 0.4073(6)
C38 C 1.0282(8) 0.1201(7) -0.3037(6)
C39 C 0.9315(10) 0.4074(9) -0.0084(8)
C40 C 0.9785(9) 0.2025(8) -0.3802(6)
C41 C 0.3788(9) 0.9761(7) -0.1456(7)
C42 C 0.5845(11) 1.1219(7) -0.1237(8)
Sm1A Sm 0.41201(3) 0.38565(3) 0.09526(2)
Sm1_2 Sm 0.58799(3) 0.61435(3) 0.90474(2)
Sm1_3 Sm 1.58799(3) -0.38565(3) -0.09526(2)
Sm1A_2 Sm 0.41201(3) 0.38565(3) -0.90474(2)
Sm1A_3 Sm 1.41201(3) -0.61435(3) 0.09526(2)
O1A O 0.3610(5) 0.3905(5) -0.0668(4)
O2A O 0.3606(6) 0.4155(5) -0.7269(4)
O2_2 O 0.6394(6) 0.5845(5) -0.2731(4)
O2A_2 O 0.3606(6) 0.4155(5) 0.2731(4)
O3A O 0.5151(6) 0.2616(5) -0.7657(4)
O3_2 O 0.4849(6) 0.7384(5) -0.2343(4)
O3A_2 O 0.5151(6) 0.2616(5) 0.2343(4)
O4A O 1.2974(5) -0.4164(4) 0.0859(4)
O4A_2 O 0.2974(5) 0.5836(4) 0.0859(4)
O5A O 0.4050(5) 0.1979(4) 0.1126(4)
O6A O 0.4504(4) 0.5183(4) -0.0975(3)
O7A O 1.3905(4) -0.2927(4) -0.0086(3)
O7A_2 O 0.3905(4) 0.7073(4) -0.0086(3)
O8A O 0.1965(6) 0.4129(5) 0.1393(4)
N1A N 0.0568(8) 0.4540(8) 0.2726(6)
N2A N 0.0216(7) 0.5691(7) 0.1171(7)
N3A N 0.5102(7) 0.0076(5) 0.1395(5)
N4A N 0.3028(8) 0.0789(6) 0.1285(6)
C1A C -0.0602(14) 0.5298(16) 0.3198(12)
C2A C -0.1198(18) 0.6431(17) 0.2667(15)
C3A C -0.1008(11) 0.6473(13) 0.1574(13)
C4A C 0.1147(12) 0.3542(12) 0.3371(9)
C5A C 1.1909(7) -0.2227(6) 0.0831(5)
C6A C 0.3989(6) 0.4664(6) -0.1246(5)
C7A C 0.2377(7) 0.6958(6) -0.2140(6)
C8A C 0.5904(8) 0.0847(7) -0.6024(5)
C9A C 0.4472(7) 0.3253(6) -0.7038(5)
C9_2 C 0.5528(7) 0.6747(6) -0.2962(5)
C9A_2 C 0.4472(7) 0.3253(6) 0.2962(5)
N5A N 0.9763(6) -0.0425(5) 0.1322(4)
C10A C 1.3013(6) -0.3179(6) 0.0526(5)
C11A C 0.2956(7) 0.6084(6) -0.2682(5)
N6A N 0.5230(7) 0.2490(6) -0.4068(5)
N7A N 0.3290(6) 0.5430(5) -0.4243(4)
C12A C 1.0285(7) -0.0468(6) 0.0399(5)
C13A C 0.3781(6) 0.4958(6) -0.2311(5)
C14A C 0.1585(10) 0.7978(8) -0.2556(7)
C15A C 0.6645(11) -0.0223(8) -0.5577(6)
C16A C 0.4306(7) 0.4144(6) -0.2888(5)
C17A C 1.0294(7) -0.1281(6) 0.2038(5)
C18A C 1.1380(6) -0.1347(6) 0.0110(5)
C19A C 0.2799(7) 0.6229(6) -0.3685(5)
C20A C 1.1370(7) -0.2222(6) 0.1838(5)
C21A C 0.4717(7) 0.2922(6) -0.5989(5)
C22A C 0.5448(8) 0.1804(7) -0.5564(5)
C23A C 0.4245(7) 0.3768(6) -0.5425(5)
C24A C 1.1296(9) -0.2977(7) 0.3591(6)
C25A C 0.6374(12) 0.0558(8) -0.4127(7)
C26A C 0.4086(8) 0.0972(6) 0.1266(5)
C27A C 0.1903(11) 0.1757(10) 0.1163(12)
C28A C 0.4027(7) 0.4416(7) -0.3855(5)
C29A C 0.5631(8) 0.1653(7) -0.4583(5)
C30A C 0.4500(7) 0.3527(6) -0.4466(5)
C31A C 0.6798(12) -0.0343(8) -0.4597(7)
C32A C 0.0947(9) 0.4781(8) 0.1756(7)
C33A C 0.5200(10) -0.1131(7) 0.1524(7)
C34A C 0.1418(9) 0.8163(7) -0.3550(7)
C35A C 1.1877(8) -0.3089(7) 0.2636(6)
C36A C 0.2943(10) -0.0344(8) 0.1527(7)
C37A C 0.1963(8) 0.7333(7) -0.4073(6)
C38A C 0.9718(8) -0.1201(7) 0.3037(6)
C39A C 0.0685(10) 0.5926(9) 0.0084(8)
C40A C 1.0215(9) -0.2025(8) 0.3802(6)
C41A C 0.6212(9) 0.0239(7) 0.1456(7)
C42A C 0.4155(11) -0.1219(7) 0.1237(8)
loop_
_geom_bond_atom_site_label_1
_geom_bond_atom_site_label_2
_geom_bond_site_symmetry_1
_geom_bond_site_symmetry_2
Sm1 O1 1_555 1_555
O1 C6 1_555 1_555
O2 C9 1_555 1_555
O3 C9 1_555 1_555
O4 Sm1 1_555 1_555
O5 Sm1 1_555 1_555
O6 Sm1 1_555 1_555
O7 C10 1_555 1_555
O8 Sm1 1_555 1_555
N1 C1 1_555 1_555
N2 C3 1_555 1_555
N3 C26 1_555 1_555
N4 C26 1_555 1_555
C1 C2 1_555 1_555
C2 C3 1_555 1_555
C4 N1 1_555 1_555
C5 C10 1_555 1_555
C6 O6 1_555 1_555
C7 C11 1_555 1_555
C8 C15 1_555 1_555
C9 C21 1_555 1_555
N5 C12 1_555 1_555
C10 O4 1_555 1_555
C11 C13 1_555 1_555
N6 C29 1_555 1_555
N7 C19 1_555 1_555
C12 C18 1_555 1_555
C13 C6 1_555 1_555
C14 C7 1_555 1_555
C15 C31 1_555 1_555
C16 C13 1_555 1_555
C17 N5 1_555 1_555
C18 C5 1_555 1_555
C19 C11 1_555 1_555
C20 C5 1_555 1_555
C21 C22 1_555 1_555
C22 C8 1_555 1_555
C23 C21 1_555 1_555
C24 C35 1_555 1_555
C25 C29 1_555 1_555
C26 O5 1_555 1_555
C27 N4 1_555 1_555
C28 N7 1_555 1_555
C29 C22 1_555 1_555
C30 N6 1_555 1_555
C31 C25 1_555 1_555
C32 O8 1_555 1_555
C33 N3 1_555 1_555
C34 C14 1_555 1_555
C35 C20 1_555 1_555
C36 N4 1_555 1_555
C37 C19 1_555 1_555
C38 C17 1_555 1_555
C39 N2 1_555 1_555
C40 C24 1_555 1_555
C41 N3 1_555 1_555
C42 C33 1_555 1_555
Sm1A O6 1_555 1_555
Sm1_2 O2 1_555 1_555
Sm1_3 O7A 1_555 1_555
Sm1A_2 O2A 1_555 1_555
Sm1A_3 O4A 1_555 1_555
O1A Sm1A 1_555 1_555
O2A C9A 1_555 1_555
O2_2 Sm1 1_555 1_555
O2A_2 Sm1A 1_555 1_555
O3A Sm1A_2 1_555 1_555
O3_2 Sm1 1_555 1_555
O3A_2 Sm1A 1_555 1_555
O4A C10A 1_555 1_555
O4A_2 Sm1A 1_555 1_555
O5A Sm1A 1_555 1_555
O6A Sm1 1_555 1_555
O7A C10A 1_555 1_555
O7A_2 Sm1 1_555 1_555
O8A Sm1A 1_555 1_555
N1A C1A 1_555 1_555
N2A C3A 1_555 1_555
N3A C26A 1_555 1_555
N4A C26A 1_555 1_555
C1A C2A 1_555 1_555
C2A C3A 1_555 1_555
C4A N1A 1_555 1_555
C5A C10A 1_555 1_555
C6A O1A 1_555 1_555
C7A C11A 1_555 1_555
C8A C15A 1_555 1_555
C9A O3A 1_555 1_555
C9_2 O2_2 1_555 1_555
C9A_2 O2A_2 1_555 1_555
N5A C12A 1_555 1_555
C11A C13A 1_555 1_555
N6A C29A 1_555 1_555
N7A C19A 1_555 1_555
C12A C12 1_555 1_555
C13A C6A 1_555 1_555
C14A C7A 1_555 1_555
C15A C31A 1_555 1_555
C16A C13A 1_555 1_555
C17A N5A 1_555 1_555
C18A C5A 1_555 1_555
C19A C11A 1_555 1_555
C20A C5A 1_555 1_555
C21A C9A 1_555 1_555
C22A C8A 1_555 1_555
C23A C21A 1_555 1_555
C24A C35A 1_555 1_555
C25A C29A 1_555 1_555
C26A O5A 1_555 1_555
C27A N4A 1_555 1_555
C28A N7A 1_555 1_555
C29A C22A 1_555 1_555
C30A N6A 1_555 1_555
C31A C25A 1_555 1_555
C32A O8A 1_555 1_555
C33A N3A 1_555 1_555
C34A C14A 1_555 1_555
C35A C20A 1_555 1_555
C36A N4A 1_555 1_555
C37A C19A 1_555 1_555
C38A C17A 1_555 1_555
C39A N2A 1_555 1_555
C40A C24A 1_555 1_555
C41A N3A 1_555 1_555
C42A C33A 1_555 1_555
O3 Sm1_2 1_555 1_555
O7 Sm1A 1_555 1_555
N1 C32 1_555 1_555
N2 C32 1_555 1_555
C16 C28 1_555 1_555
C17 C20 1_555 1_555
C23 C30 1_555 1_555
C28 C30 1_555 1_555
C34 C37 1_555 1_555
C36 C42 1_555 1_555
C38 C40 1_555 1_555
Sm1A O6A 1_555 1_555
O3_2 C9_2 1_555 1_555
O3A_2 C9A_2 1_555 1_555
O6A C6A 1_555 1_555
N1A C32A 1_555 1_555
N2A C32A 1_555 1_555
C12A C18A 1_555 1_555
C16A C28A 1_555 1_555
C17A C20A 1_555 1_555
C21A C22A 1_555 1_555
C23A C30A 1_555 1_555
C28A C30A 1_555 1_555
C34A C37A 1_555 1_555
C36A C42A 1_555 1_555
C38A C40A 1_555 1_555

#END
