
#######################################################################
#
#                 Cambridge Crystallographic Data Centre
#                                CCDC 
#
#######################################################################
#
# If this CIF has been generated from an entry in the Cambridge 
# Structural Database, then it will include bibliographic, chemical, 
# crystal, experimental, refinement or atomic coordinate data resulting 
# from the CCDC's data processing and validation procedures.
#
#######################################################################

data_LAGVEW
_symmetry_cell_setting           monoclinic
_symmetry_space_group_name_H-M   'P 21/n'
_symmetry_Int_Tables_number      14
_space_group_name_Hall           '-P 2yn'
loop_
_symmetry_equiv_pos_site_id
_symmetry_equiv_pos_as_xyz
1 x,y,z
2 1/2-x,1/2+y,1/2-z
3 -x,-y,-z
4 1/2+x,1/2-y,1/2+z
_cell_length_a                   13.7652(5)
_cell_length_b                   11.9175(5)
_cell_length_c                   17.8021(7)
_cell_angle_alpha                90
_cell_angle_beta                 109.4250(10)
_cell_angle_gamma                90
_cell_volume                     2754.14
loop_
_atom_site_label
_atom_site_type_symbol
_atom_site_fract_x
_atom_site_fract_y
_atom_site_fract_z
Nd1 Nd 0.813664(18) 0.54302(2) 0.035790(16)
O1 O 0.7225(3) 0.7224(3) -0.0226(3)
O2 O 0.6686(3) 0.6381(3) 0.0649(3)
O3 O 0.9234(3) 0.6250(3) -0.0272(2)
O4 O 1.0796(3) 0.6125(3) -0.0352(2)
O5 O 0.9240(3) 0.6462(3) 0.1431(2)
O6 O 0.7928(3) 0.4333(3) 0.1419(2)
O7 O 0.7302(5) 0.4884(5) -0.1084(3)
O8 O 0.6773(4) 0.3946(5) -0.0309(3)
O9 O 0.6236(5) 0.3558(6) -0.1549(3)
N1 N 0.9854(6) 0.8161(6) 0.1874(4)
N2 N 1.0928(5) 0.6591(7) 0.2130(4)
N3 N 0.8399(4) 0.2637(4) 0.1979(3)
N4 N 0.6685(4) 0.3142(4) 0.1495(3)
N5 N 0.6748(4) 0.4128(5) -0.0998(4)
C1 C 0.4599(4) 0.8937(5) 0.0606(4)
H1 H 0.4122 0.8859 0.0869
C2 C 0.5244(4) 0.8072(5) 0.0603(4)
H2 H 0.5210 0.7412 0.0872
C3 C 0.5967(4) 0.8169(4) 0.0195(3)
C4 C 0.6016(4) 0.9119(5) -0.0208(4)
H3 H 0.6481 0.9168 -0.0484
C5 C 0.5351(4) 1.0054(5) -0.0213(3)
C6 C 0.6671(4) 0.7195(5) 0.0208(4)
C7 C 0.9397(4) 0.8585(4) -0.0200(3)
H4 H 0.8749 0.8264 -0.0307
C8 C 1.0214(4) 0.7915(4) -0.0149(3)
C9 C 1.1195(4) 0.8385(4) 0.0018(4)
H5 H 1.1754 0.7930 0.0042
C10 C 1.1331(4) 0.9513(4) 0.0146(4)
H6 H 1.1988 0.9816 0.0269
C11 C 0.9507(4) 0.9769(4) -0.0093(4)
C12 C 1.0066(4) 0.6662(4) -0.0256(3)
C13 C 0.9998(5) 0.7057(6) 0.1799(4)
C14 C 1.0712(10) 0.8904(11) 0.2266(8)
H7 H 1.0677 0.9559 0.1935
H8 H 1.0656 0.9156 0.2768
C15 C 1.1659(13) 0.8370(14) 0.2407(10)
H9 H 1.2211 0.8806 0.2391
C16 C 1.1830(8) 0.7270(15) 0.2566(7)
H10 H 1.1997 0.7146 0.3133
H11 H 1.2417 0.7033 0.2418
C17 C 0.8844(10) 0.8637(7) 0.1600(5)
H12 H 0.8353 0.8066 0.1346
H13 H 0.8819 0.9226 0.1226
H14 H 0.8683 0.8938 0.2045
C18 C 1.1021(7) 0.5411(9) 0.2105(7)
H15 H 1.0370 0.5094 0.1793
H16 H 1.1223 0.5115 0.2636
H17 H 1.1532 0.5224 0.1867
C19 C 0.7676(5) 0.3394(5) 0.1618(3)
C20 C 0.8143(8) 0.1550(6) 0.2250(5)
H18 H 0.8648 0.0999 0.2221
H19 H 0.8186 0.1613 0.2804
C21 C 0.7164(9) 0.1174(8) 0.1803(8)
H20 H 0.7035 0.0443 0.1613
C22 C 0.6361(6) 0.2019(6) 0.1658(5)
H21 H 0.6137 0.2061 0.2119
H22 H 0.5775 0.1785 0.1207
C23 C 0.9483(5) 0.2897(8) 0.2159(5)
H23 H 0.9551 0.3624 0.1950
H24 H 0.9794 0.2343 0.1920
H25 H 0.9820 0.2895 0.2726
C24 C 0.5887(5) 0.3965(6) 0.1130(4)
H26 H 0.6201 0.4652 0.1046
H27 H 0.5493 0.4102 0.1475
H28 H 0.5443 0.3684 0.0629
Nd1B Nd 0.186336(18) 1.45698(2) -0.035790(16)
Nd1_2 Nd 0.813664(18) 1.54302(2) 0.035790(16)
Nd1B_2 Nd 1.186336(18) 0.45698(2) -0.035790(16)
Nd1B_3 Nd 1.186336(18) 1.45698(2) -0.035790(16)
O1B O 0.2775(3) 1.2776(3) 0.0226(3)
O2B O 0.3314(3) 1.3619(3) -0.0649(3)
O3B O 1.0766(3) 1.3750(3) 0.0272(2)
O3B_2 O 0.0766(3) 1.3750(3) 0.0272(2)
O4B O 0.9204(3) 1.3875(3) 0.0352(2)
O4_2 O 0.0796(3) 1.6125(3) -0.0352(2)
O4B_2 O 0.9204(3) 0.3875(3) 0.0352(2)
O5B O 0.0760(3) 1.3538(3) -0.1431(2)
O6B O 0.2072(3) 1.5667(3) -0.1419(2)
O7B O 0.2698(5) 1.5116(5) 0.1084(3)
O8B O 0.3227(4) 1.6054(5) 0.0309(3)
O9B O 0.3764(5) 1.6442(6) 0.1549(3)
N1B N 0.0146(6) 1.1839(6) -0.1874(4)
N2B N -0.0928(5) 1.3409(7) -0.2130(4)
N3B N 0.1601(4) 1.7363(4) -0.1979(3)
N4B N 0.3315(4) 1.6858(4) -0.1495(3)
N5B N 0.3252(4) 1.5872(5) 0.0998(4)
C1B C 0.5401(4) 1.1063(5) -0.0606(4)
H1B H 0.5878 1.1141 -0.0869
C2B C 0.4756(4) 1.1928(5) -0.0603(4)
H2B H 0.4790 1.2588 -0.0872
C3B C 0.4033(4) 1.1831(4) -0.0195(3)
C4B C 0.3984(4) 1.0881(5) 0.0208(4)
H3B H 0.3519 1.0832 0.0484
C5B C 0.4649(4) 0.9946(5) 0.0213(3)
C6B C 0.3329(4) 1.2805(5) -0.0208(4)
C7B C 1.0603(4) 1.1415(4) 0.0200(3)
H4B H 1.1251 1.1736 0.0307
C8B C 0.9786(4) 1.2085(4) 0.0149(3)
C9B C 0.8805(4) 1.1615(4) -0.0018(4)
H5B H 0.8246 1.2070 -0.0042
C10B C 0.8669(4) 1.0487(4) -0.0146(4)
H6B H 0.8012 1.0184 -0.0269
C11B C 1.0493(4) 1.0231(4) 0.0093(4)
C12B C 0.9934(4) 1.3338(4) 0.0256(3)
C13B C 0.0002(5) 1.2943(6) -0.1799(4)
C14B C -0.0712(10) 1.1096(11) -0.2266(8)
H7B H -0.0677 1.0441 -0.1935
H8B H -0.0656 1.0844 -0.2768
C15B C -0.1659(13) 1.1630(14) -0.2407(10)
H9B H -0.2211 1.1194 -0.2391
C16B C -0.1830(8) 1.2730(15) -0.2566(7)
H10B H -0.1997 1.2854 -0.3133
H11B H -0.2417 1.2967 -0.2418
C17B C 0.1156(10) 1.1363(7) -0.1600(5)
H12B H 0.1647 1.1934 -0.1346
H13B H 0.1181 1.0774 -0.1226
H14B H 0.1317 1.1062 -0.2045
C18B C -0.1021(7) 1.4589(9) -0.2105(7)
H15B H -0.0370 1.4906 -0.1793
H16B H -0.1223 1.4885 -0.2636
H17B H -0.1532 1.4776 -0.1867
C19B C 0.2324(5) 1.6606(5) -0.1618(3)
C20B C 0.1857(8) 1.8450(6) -0.2250(5)
H18B H 0.1352 1.9001 -0.2221
H19B H 0.1814 1.8387 -0.2804
C21B C 0.2836(9) 1.8826(8) -0.1803(8)
H20B H 0.2965 1.9557 -0.1613
C22B C 0.3639(6) 1.7981(6) -0.1658(5)
H21B H 0.3863 1.7939 -0.2119
H22B H 0.4225 1.8215 -0.1207
C23B C 0.0517(5) 1.7103(8) -0.2159(5)
H23B H 0.0449 1.6376 -0.1950
H24B H 0.0206 1.7657 -0.1920
H25B H 0.0180 1.7105 -0.2726
C24B C 0.4113(5) 1.6035(6) -0.1130(4)
H26B H 0.3799 1.5348 -0.1046
H27B H 0.4507 1.5898 -0.1475
H28B H 0.4557 1.6316 -0.0629
loop_
_geom_bond_atom_site_label_1
_geom_bond_atom_site_label_2
_geom_bond_site_symmetry_1
_geom_bond_site_symmetry_2
Nd1 O1 1_555 1_555
O1 C6 1_555 1_555
O2 Nd1 1_555 1_555
O3 Nd1 1_555 1_555
O4 C12 1_555 1_555
O5 Nd1 1_555 1_555
O6 Nd1 1_555 1_555
O7 Nd1 1_555 1_555
O8 Nd1 1_555 1_555
O9 N5 1_555 1_555
N1 C13 1_555 1_555
N2 C13 1_555 1_555
N3 C19 1_555 1_555
N4 C19 1_555 1_555
N5 O7 1_555 1_555
C1 H1 1_555 1_555
C2 C1 1_555 1_555
H2 C2 1_555 1_555
C3 C2 1_555 1_555
C4 C3 1_555 1_555
H3 C4 1_555 1_555
C5 C4 1_555 1_555
C6 O2 1_555 1_555
C7 H4 1_555 1_555
C8 C7 1_555 1_555
C9 C8 1_555 1_555
H5 C9 1_555 1_555
C10 C9 1_555 1_555
H6 C10 1_555 1_555
C11 C7 1_555 1_555
C12 O3 1_555 1_555
C13 O5 1_555 1_555
C14 N1 1_555 1_555
H7 C14 1_555 1_555
H8 C14 1_555 1_555
C15 C14 1_555 1_555
H9 C15 1_555 1_555
C16 N2 1_555 1_555
H10 C16 1_555 1_555
H11 C16 1_555 1_555
C17 N1 1_555 1_555
H12 C17 1_555 1_555
H13 C17 1_555 1_555
H14 C17 1_555 1_555
C18 N2 1_555 1_555
H15 C18 1_555 1_555
H16 C18 1_555 1_555
H17 C18 1_555 1_555
C19 O6 1_555 1_555
C20 N3 1_555 1_555
H18 C20 1_555 1_555
H19 C20 1_555 1_555
C21 C20 1_555 1_555
H20 C21 1_555 1_555
C22 N4 1_555 1_555
H21 C22 1_555 1_555
H22 C22 1_555 1_555
C23 N3 1_555 1_555
H23 C23 1_555 1_555
H24 C23 1_555 1_555
H25 C23 1_555 1_555
C24 N4 1_555 1_555
H26 C24 1_555 1_555
H27 C24 1_555 1_555
H28 C24 1_555 1_555
Nd1B O1B 1_555 1_555
Nd1_2 O4B 1_555 1_555
Nd1B_2 O4 1_555 1_555
Nd1B_3 O3B 1_555 1_555
O1B C6B 1_555 1_555
O2B Nd1B 1_555 1_555
O3B C12B 1_555 1_555
O3B_2 Nd1B 1_555 1_555
O4B C12B 1_555 1_555
O4_2 Nd1B 1_555 1_555
O4B_2 Nd1 1_555 1_555
O5B Nd1B 1_555 1_555
O6B Nd1B 1_555 1_555
O7B Nd1B 1_555 1_555
O8B Nd1B 1_555 1_555
O9B N5B 1_555 1_555
N1B C13B 1_555 1_555
N2B C13B 1_555 1_555
N3B C19B 1_555 1_555
N4B C19B 1_555 1_555
N5B O7B 1_555 1_555
C1B C5 1_555 1_555
H1B C1B 1_555 1_555
C2B C1B 1_555 1_555
H2B C2B 1_555 1_555
C3B C2B 1_555 1_555
C4B C3B 1_555 1_555
H3B C4B 1_555 1_555
C5B C1 1_555 1_555
C6B O2B 1_555 1_555
C7B H4B 1_555 1_555
C8B C7B 1_555 1_555
C9B C8B 1_555 1_555
H5B C9B 1_555 1_555
C10B C11 1_555 1_555
H6B C10B 1_555 1_555
C11B C10 1_555 1_555
C12B C8B 1_555 1_555
C13B O5B 1_555 1_555
C14B N1B 1_555 1_555
H7B C14B 1_555 1_555
H8B C14B 1_555 1_555
C15B C14B 1_555 1_555
H9B C15B 1_555 1_555
C16B N2B 1_555 1_555
H10B C16B 1_555 1_555
H11B C16B 1_555 1_555
C17B N1B 1_555 1_555
H12B C17B 1_555 1_555
H13B C17B 1_555 1_555
H14B C17B 1_555 1_555
C18B N2B 1_555 1_555
H15B C18B 1_555 1_555
H16B C18B 1_555 1_555
H17B C18B 1_555 1_555
C19B O6B 1_555 1_555
C20B N3B 1_555 1_555
H18B C20B 1_555 1_555
H19B C20B 1_555 1_555
C21B C20B 1_555 1_555
H20B C21B 1_555 1_555
C22B N4B 1_555 1_555
H21B C22B 1_555 1_555
H22B C22B 1_555 1_555
C23B N3B 1_555 1_555
H23B C23B 1_555 1_555
H24B C23B 1_555 1_555
H25B C23B 1_555 1_555
C24B N4B 1_555 1_555
H26B C24B 1_555 1_555
H27B C24B 1_555 1_555
H28B C24B 1_555 1_555
O8 N5 1_555 1_555
C3 C6 1_555 1_555
C5 C5B 1_555 1_555
C8 C12 1_555 1_555
C11 C11B 1_555 1_555
C15 C16 1_555 1_555
C21 C22 1_555 1_555
O8B N5B 1_555 1_555
C3B C6B 1_555 1_555
C4B C5B 1_555 1_555
C7B C11B 1_555 1_555
C9B C10B 1_555 1_555
C15B C16B 1_555 1_555
C21B C22B 1_555 1_555

#END
