
#######################################################################
#
#                 Cambridge Crystallographic Data Centre
#                                CCDC 
#
#######################################################################
#
# If this CIF has been generated from an entry in the Cambridge 
# Structural Database, then it will include bibliographic, chemical, 
# crystal, experimental, refinement or atomic coordinate data resulting 
# from the CCDC's data processing and validation procedures.
#
#######################################################################

data_LAGVIA
_symmetry_cell_setting           triclinic
_symmetry_space_group_name_H-M   'P -1'
_symmetry_Int_Tables_number      2
_space_group_name_Hall           '-P 1'
loop_
_symmetry_equiv_pos_site_id
_symmetry_equiv_pos_as_xyz
1 x,y,z
2 -x,-y,-z
_cell_length_a                   9.1962(4)
_cell_length_b                   11.7976(5)
_cell_length_c                   13.9687(8)
_cell_angle_alpha                99.686(3)
_cell_angle_beta                 106.089(3)
_cell_angle_gamma                112.632(2)
_cell_volume                     1277.82
loop_
_atom_site_label
_atom_site_type_symbol
_atom_site_fract_x
_atom_site_fract_y
_atom_site_fract_z
Ho1 Ho 0.83086(4) 0.37940(3) 0.29078(2)
O1 O 1.0930(6) 0.5487(4) 0.3813(3)
O2 O 0.5293(6) 0.2873(5) 0.2490(4)
O3 O 1.1924(7) 0.6215(5) 0.5533(4)
O4 O 0.9607(7) 0.3765(6) 0.1729(4)
O5 O 0.6162(7) 0.1875(5) 0.1507(4)
C1 C 1.5061(8) 0.9904(6) 0.5501(5)
C2 C 0.7463(13) 0.2602(11) -0.0490(7)
C3 C 1.2745(9) 0.7871(6) 0.3643(5)
C4 C 1.2888(8) 0.7680(6) 0.4623(5)
O6 O 0.9288(9) 0.2370(6) 0.3305(5)
C5 C 0.1866(9) 0.1222(6) 0.1190(5)
C6 C 0.4979(9) 0.2012(7) 0.1692(5)
C7 C 0.3196(9) 0.1160(6) 0.0967(5)
C8 C 0.1224(10) -0.0501(8) -0.0710(6)
O7 O 0.7821(8) 0.5705(6) 0.3338(5)
N1 N 0.7482(11) 0.5784(8) 0.2416(8)
C9 C 0.2886(10) 0.0263(7) 0.0003(6)
C10 C 1.4022(9) 0.8664(6) 0.5537(5)
C11 C 0.0156(9) 0.0436(7) 0.0486(5)
C12 C 1.3742(10) 0.9070(6) 0.3585(5)
N2 N 0.9290(11) 0.3189(8) -0.0020(5)
C13 C 1.0227(11) 0.3733(7) 0.1034(7)
O8 O 0.7467(9) 0.4916(7) 0.1752(5)
C14 C 1.1827(8) 0.6376(6) 0.4675(5)
C15 C 1.2198(17) 0.3980(12) 0.0249(9)
N3 N 1.1884(11) 0.4223(8) 0.1241(6)
O9 O 0.7179(12) 0.6645(8) 0.2175(8)
C16 C 1.3233(12) 0.4893(10) 0.2267(8)
C17 C 1.0014(15) 0.1733(9) 0.3564(8)
N4 N 0.9085(15) 0.0429(10) 0.3352(10)
N5 N 1.1685(13) 0.2188(11) 0.4080(10)
C18 C 1.2961(15) 0.3520(11) 0.4518(9)
C19 C 1.0427(16) 0.3276(12) -0.0580(8)
C20 C 0.7281(16) -0.0376(11) 0.2685(10)
C21 C 1.198(2) 0.1122(17) 0.427(2)
C22 C 1.038(2) -0.0063(17) 0.366(2)
Ho1A Ho -0.83086(4) -0.37940(3) -0.29078(2)
Ho1_2 Ho 1.83086(4) 1.37940(3) 0.29078(2)
Ho1A_2 Ho 1.16914(4) 0.62060(3) 0.70922(2)
Ho1A_3 Ho 2.16914(4) 1.62060(3) 0.70922(2)
O1A O 1.9070(6) 1.4513(4) 0.6187(3)
O1A_2 O -1.0930(6) -0.5487(4) -0.3813(3)
O2A O -0.5293(6) -0.2873(5) -0.2490(4)
O3A O 1.8076(7) 1.3785(5) 0.4467(4)
O3_2 O -0.8076(7) -0.3785(5) -0.4467(4)
O3A_2 O 0.8076(7) 0.3785(5) 0.4467(4)
O4A O -0.9607(7) -0.3765(6) -0.1729(4)
O5A O -0.6162(7) -0.1875(5) -0.1507(4)
C1A C 1.4939(8) 1.0096(6) 0.4499(5)
C2A C -0.7463(13) -0.2602(11) 0.0490(7)
C3A C 1.7255(9) 1.2129(6) 0.6357(5)
C4A C 1.7112(8) 1.2320(6) 0.5377(5)
O6A O -0.9288(9) -0.2370(6) -0.3305(5)
C5A C -0.1866(9) -0.1222(6) -0.1190(5)
C6A C -0.4979(9) -0.2012(7) -0.1692(5)
C7A C -0.3196(9) -0.1160(6) -0.0967(5)
C8A C -0.1224(10) 0.0501(8) 0.0710(6)
O7A O -0.7821(8) -0.5705(6) -0.3338(5)
N1A N -0.7482(11) -0.5784(8) -0.2416(8)
C9A C -0.2886(10) -0.0263(7) -0.0003(6)
C10A C 1.5978(9) 1.1336(6) 0.4463(5)
C11A C -0.0156(9) -0.0436(7) -0.0486(5)
C12A C 1.6258(10) 1.0930(6) 0.6415(5)
N2A N -0.9290(11) -0.3189(8) 0.0020(5)
C13A C -1.0227(11) -0.3733(7) -0.1034(7)
O8A O -0.7467(9) -0.4916(7) -0.1752(5)
C14A C 1.8173(8) 1.3624(6) 0.5325(5)
C15A C -1.2198(17) -0.3980(12) -0.0249(9)
N3A N -1.1884(11) -0.4223(8) -0.1241(6)
O9A O -0.7179(12) -0.6645(8) -0.2175(8)
C16A C -1.3233(12) -0.4893(10) -0.2267(8)
C17A C -1.0014(15) -0.1733(9) -0.3564(8)
N4A N -0.9085(15) -0.0429(10) -0.3352(10)
N5A N -1.1685(13) -0.2188(11) -0.4080(10)
C18A C -1.2961(15) -0.3520(11) -0.4518(9)
C19A C -1.0427(16) -0.3276(12) 0.0580(8)
C20A C -0.7281(16) 0.0376(11) -0.2685(10)
C21A C -1.198(2) -0.1122(17) -0.427(2)
C22A C -1.038(2) 0.0063(17) -0.366(2)
loop_
_geom_bond_atom_site_label_1
_geom_bond_atom_site_label_2
_geom_bond_site_symmetry_1
_geom_bond_site_symmetry_2
Ho1 O1 1_555 1_555
O1 C14 1_555 1_555
O2 Ho1 1_555 1_555
O3 C14 1_555 1_555
O4 Ho1 1_555 1_555
O5 Ho1 1_555 1_555
C1 C10 1_555 1_555
C2 N2 1_555 1_555
C3 C4 1_555 1_555
C4 C10 1_555 1_555
O6 Ho1 1_555 1_555
C5 C7 1_555 1_555
C6 O2 1_555 1_555
C7 C6 1_555 1_555
C8 C9 1_555 1_555
O7 Ho1 1_555 1_555
N1 O7 1_555 1_555
C9 C7 1_555 1_555
C11 C5 1_555 1_555
C12 C3 1_555 1_555
N2 C13 1_555 1_555
C13 O4 1_555 1_555
O8 Ho1 1_555 1_555
C14 C4 1_555 1_555
C15 N3 1_555 1_555
N3 C13 1_555 1_555
O9 N1 1_555 1_555
C16 N3 1_555 1_555
C17 O6 1_555 1_555
N4 C17 1_555 1_555
N5 C17 1_555 1_555
C18 N5 1_555 1_555
C19 N2 1_555 1_555
C20 N4 1_555 1_555
C21 N5 1_555 1_555
C22 N4 1_555 1_555
Ho1A O1A_2 1_555 1_555
Ho1_2 O3A 1_555 1_555
Ho1A_2 O3 1_555 1_555
Ho1A_3 O1A 1_555 1_555
O1A C14A 1_555 1_555
O2A Ho1A 1_555 1_555
O3A C14A 1_555 1_555
O3_2 Ho1A 1_555 1_555
O3A_2 Ho1 1_555 1_555
O4A Ho1A 1_555 1_555
O5A Ho1A 1_555 1_555
C1A C1 1_555 1_555
C2A N2A 1_555 1_555
C3A C4A 1_555 1_555
C4A C10A 1_555 1_555
O6A Ho1A 1_555 1_555
C5A C7A 1_555 1_555
C6A O2A 1_555 1_555
C7A C6A 1_555 1_555
C8A C11 1_555 1_555
O7A Ho1A 1_555 1_555
N1A O7A 1_555 1_555
C9A C7A 1_555 1_555
C10A C1A 1_555 1_555
C11A C8 1_555 1_555
C12A C1 1_555 1_555
N2A C13A 1_555 1_555
C13A O4A 1_555 1_555
O8A Ho1A 1_555 1_555
C14A C4A 1_555 1_555
C15A N3A 1_555 1_555
N3A C13A 1_555 1_555
O9A N1A 1_555 1_555
C16A N3A 1_555 1_555
C17A O6A 1_555 1_555
N4A C17A 1_555 1_555
N5A C17A 1_555 1_555
C18A N5A 1_555 1_555
C19A N2A 1_555 1_555
C20A N4A 1_555 1_555
C21A N5A 1_555 1_555
C22A N4A 1_555 1_555
O5 C6 1_555 1_555
N1 O8 1_555 1_555
C11 C11A 1_555 1_555
C12 C1A 1_555 1_555
C15 C19 1_555 1_555
C21 C22 1_555 1_555
O5A C6A 1_555 1_555
C3A C12A 1_555 1_555
C5A C11A 1_555 1_555
C8A C9A 1_555 1_555
N1A O8A 1_555 1_555
C15A C19A 1_555 1_555
C21A C22A 1_555 1_555

#END
