
#######################################################################
#
#                 Cambridge Crystallographic Data Centre
#                                CCDC 
#
#######################################################################
#
# If this CIF has been generated from an entry in the Cambridge 
# Structural Database, then it will include bibliographic, chemical, 
# crystal, experimental, refinement or atomic coordinate data resulting 
# from the CCDC's data processing and validation procedures.
#
#######################################################################

data_LAGVAS
_symmetry_cell_setting           monoclinic
_symmetry_space_group_name_H-M   'P 21/n'
_symmetry_Int_Tables_number      14
_space_group_name_Hall           '-P 2yn'
loop_
_symmetry_equiv_pos_site_id
_symmetry_equiv_pos_as_xyz
1 x,y,z
2 1/2-x,1/2+y,1/2-z
3 -x,-y,-z
4 1/2+x,1/2-y,1/2+z
_cell_length_a                   4.2805(12)
_cell_length_b                   23.711(7)
_cell_length_c                   15.956(6)
_cell_angle_alpha                90
_cell_angle_beta                 90.00
_cell_angle_gamma                90
_cell_volume                     1619.45
loop_
_atom_site_label
_atom_site_type_symbol
_atom_site_fract_x
_atom_site_fract_y
_atom_site_fract_z
I1 I -0.0062(5) 0.82554(10) 0.53605(12)
I2 I -0.5318(5) 0.67623(11) 0.43531(13)
Cu1 Cu -0.5150(10) 0.75738(19) 0.5463(2)
Cu2 Cu -0.0479(12) 0.7445(2) 0.4259(2)
N1 N -0.496(6) 0.7292(13) 0.6669(15)
N2 N -0.518(6) 0.7261(12) 0.8073(15)
N3 N -0.331(5) 0.6877(11) 0.698(2)
C4 C -0.335(8) 0.6867(15) 0.782(2)
H5 H -0.2248 0.6618 0.8163
C5 C -0.598(9) 0.7512(13) 0.737(2)
H6 H -0.7220 0.7834 0.7371
C7 C -0.102(12) 0.6502(17) 0.642(2)
H9 H -0.1387 0.6582 0.5838
H10 H -0.1414 0.6109 0.6526
H11 H 0.1105 0.6589 0.6558
I1_2 I -1.0062(5) 0.82554(10) 0.53605(12)
I2_2 I 0.4682(5) 0.67623(11) 0.43531(13)
Cu1_2 Cu 0.4850(10) 0.75738(19) 0.5463(2)
Cu2_2 Cu -1.0479(12) 0.7445(2) 0.4259(2)
Cu2C Cu -0.5479(12) 0.7555(2) 0.9259(2)
N2C N -0.018(6) 0.7739(12) 0.3073(15)
C1 C -0.489(8) 0.9434(19) 0.803(2)
H1 H -0.5409 0.9164 0.8468
H2 H -0.2726 0.9544 0.8116
O1 O -0.882(7) 1.0665(12) 0.7575(14)
N4 N -0.684(6) 0.9931(14) 0.814(2)
C2 C -0.482(8) 0.955(2) 0.651(2)
H3 H -0.5425 0.9384 0.5977
H4 H -0.2680 0.9684 0.6461
N5 N -0.694(8) 1.0035(15) 0.671(2)
C3 C -0.746(9) 1.023(2) 0.749(3)
C6 C -0.514(9) 0.9144(19) 0.720(3)
H7 H -0.3522 0.8860 0.7151
H8 H -0.7151 0.8956 0.7158
C8 C -0.707(11) 1.009(2) 0.896(3)
H12 H -0.8412 1.0418 0.9000
H13 H -0.5032 1.0190 0.9168
H14 H -0.7922 0.9792 0.9287
C9 C -0.727(13) 1.042(2) 0.603(3)
H15 H -0.8623 1.0727 0.6192
H16 H -0.8152 1.0232 0.5554
H17 H -0.5258 1.0572 0.5881
loop_
_geom_bond_atom_site_label_1
_geom_bond_atom_site_label_2
_geom_bond_site_symmetry_1
_geom_bond_site_symmetry_2
I1 Cu1 1_555 1_555
I2 Cu1 1_555 1_555
Cu1 Cu2 1_555 1_555
Cu2 I1 1_555 1_555
N1 Cu1 1_555 1_555
N2 C4 1_555 1_555
N3 N1 1_555 1_555
C1 H1 1_555 1_555
H2 C1 1_555 1_555
O1 C3 1_555 1_555
N4 C1 1_555 1_555
C2 H3 1_555 1_555
H4 C2 1_555 1_555
N5 C2 1_555 1_555
C3 N4 1_555 1_555
C4 N3 1_555 1_555
H5 C4 1_555 1_555
C5 N1 1_555 1_555
H6 C5 1_555 1_555
C6 C1 1_555 1_555
H7 C6 1_555 1_555
H8 C6 1_555 1_555
C7 N3 1_555 1_555
H9 C7 1_555 1_555
H10 C7 1_555 1_555
H11 C7 1_555 1_555
C8 N4 1_555 1_555
H12 C8 1_555 1_555
H13 C8 1_555 1_555
H14 C8 1_555 1_555
C9 N5 1_555 1_555
H15 C9 1_555 1_555
H16 C9 1_555 1_555
H17 C9 1_555 1_555
I1_2 Cu1 1_555 1_555
I2_2 Cu2 1_555 1_555
Cu1_2 I1 1_555 1_555
Cu2_2 I2 1_555 1_555
Cu2C N2 1_555 1_555
N2C Cu2 1_555 1_555
I2 Cu2 1_555 1_555
Cu1 Cu2_2 1_555 1_555
Cu2 Cu1_2 1_555 1_555
N2 C5 1_555 1_555
C2 C6 1_555 1_555
N5 C3 1_555 1_555
I1_2 Cu2_2 1_555 1_555
I2_2 Cu1_2 1_555 1_555

#END
