
#######################################################################
#
#                 Cambridge Crystallographic Data Centre
#                                CCDC 
#
#######################################################################
#
# If this CIF has been generated from an entry in the Cambridge 
# Structural Database, then it will include bibliographic, chemical, 
# crystal, experimental, refinement or atomic coordinate data resulting 
# from the CCDC's data processing and validation procedures.
#
#######################################################################

data_LAGVOG
_symmetry_cell_setting           monoclinic
_symmetry_space_group_name_H-M   'P 21/n'
_symmetry_Int_Tables_number      14
_space_group_name_Hall           '-P 2yn'
loop_
_symmetry_equiv_pos_site_id
_symmetry_equiv_pos_as_xyz
1 x,y,z
2 1/2-x,1/2+y,1/2-z
3 -x,-y,-z
4 1/2+x,1/2-y,1/2+z
_cell_length_a                   9.652(2)
_cell_length_b                   16.212(3)
_cell_length_c                   14.067(2)
_cell_angle_alpha                90
_cell_angle_beta                 106.580(7)
_cell_angle_gamma                90
_cell_volume                     2109.66
loop_
_atom_site_label
_atom_site_type_symbol
_atom_site_fract_x
_atom_site_fract_y
_atom_site_fract_z
Y1 Y 0.17309(16) 0.98252(9) 0.44742(11)
O1 O 0.0535(12) 1.0856(7) 0.3423(10)
O2 O -0.1043(14) 1.0855(8) 0.4314(9)
O3 O -0.2934(12) 1.4164(7) 0.0656(10)
O4 O -0.4732(14) 1.4077(8) 0.1381(11)
O5 O 0.6061(12) 1.0695(8) 0.4553(10)
O6 O 0.3656(12) 1.0598(7) 0.4219(10)
O7 O 0.2401(17) 0.9114(9) 0.3316(12)
C1 C -0.1355(17) 1.1848(9) 0.3035(13)
C2 C -0.260(2) 1.2162(11) 0.3174(15)
H1 H -0.2972 1.1940 0.3661
C3 C -0.329(2) 1.2788(12) 0.2612(15)
H2 H -0.4139 1.2991 0.2710
C4 C -0.2760(17) 1.3141(11) 0.1885(15)
C5 C -0.147(2) 1.2848(12) 0.1768(16)
H3 H -0.1075 1.3096 0.1310
C6 C -0.079(2) 1.2207(12) 0.2313(15)
H4 H 0.0053 1.2001 0.2212
C7 C -0.055(2) 1.1104(11) 0.3669(14)
C8 C -0.350(2) 1.3864(11) 0.1239(14)
C9 C 0.4912(19) 1.0367(10) 0.4654(12)
C10 C 0.207(2) 0.8614(15) 0.259(2)
C11 C 0.108(5) 0.842(2) 0.073(2)
H5 H 0.0032 0.8378 0.0529
H6 H 0.1380 0.8664 0.0194
C12 C 0.177(4) 0.7561(16) 0.100(2)
H7 H 0.1281 0.7184 0.0477
H8 H 0.2767 0.7600 0.0977
C13 C 0.180(3) 0.7191(16) 0.191(2)
H9 H 0.2494 0.6744 0.2050
H10 H 0.0852 0.6959 0.1862
C14 C 0.120(5) 0.976(2) 0.143(2)
H11 H 0.0863 0.9847 0.0729
H12 H 0.2043 1.0091 0.1709
H13 H 0.0459 0.9903 0.1730
C15 C 0.268(4) 0.7510(14) 0.388(3)
H14 H 0.2889 0.7982 0.4313
H15 H 0.3522 0.7171 0.3997
H16 H 0.1909 0.7198 0.4019
N1 N 0.156(3) 0.8922(17) 0.162(2)
N2 N 0.219(2) 0.7811(12) 0.2750(15)
Y1B Y -0.17309(16) 1.01748(9) 0.55258(11)
Y1C Y -0.32691(16) 1.51748(9) -0.05258(11)
Y1A Y -0.67309(16) 1.48252(9) 0.05258(11)
Y1B_2 Y 0.82691(16) 1.01748(9) 0.55258(11)
Y1A_2 Y 0.32691(16) 0.48252(9) 1.05258(11)
Y1C_2 Y 0.67309(16) 0.51748(9) 0.94742(11)
O1B O -0.0535(12) 0.9144(7) 0.6577(10)
O2B O 0.1043(14) 0.9145(8) 0.5686(9)
O3B O 0.2934(12) 0.5836(7) 0.9344(10)
O3C O 0.2066(12) 1.0836(7) 0.5656(10)
O3A O -0.2066(12) 0.9164(7) 0.4344(10)
O4B O 0.4732(14) 0.5923(8) 0.8619(11)
O4A O -0.0268(14) 0.9077(8) 0.3619(11)
O4C O 0.0268(14) 1.0923(8) 0.6381(11)
O5B O 0.3939(12) 0.9305(8) 0.5447(10)
O5_2 O -0.3939(12) 1.0695(8) 0.4553(10)
O6B O 0.6344(12) 0.9402(7) 0.5781(10)
O6B_2 O -0.3656(12) 0.9402(7) 0.5781(10)
O7B O -0.2401(17) 1.0886(9) 0.6684(12)
C1B C 0.1355(17) 0.8152(9) 0.6965(13)
C2B C 0.260(2) 0.7838(11) 0.6826(15)
H1B H 0.2972 0.8060 0.6339
C3B C 0.329(2) 0.7212(12) 0.7388(15)
H2B H 0.4139 0.7009 0.7290
C4B C 0.2760(17) 0.6859(11) 0.8115(15)
C5B C 0.147(2) 0.7152(12) 0.8232(16)
H3B H 0.1075 0.6904 0.8690
C6B C 0.079(2) 0.7793(12) 0.7687(15)
H4B H -0.0053 0.7999 0.7788
C7B C 0.055(2) 0.8896(11) 0.6331(14)
C8B C 0.350(2) 0.6136(11) 0.8761(14)
C9B C 0.5088(19) 0.9633(10) 0.5346(12)
C10B C -0.207(2) 1.1386(15) 0.741(2)
C11B C -0.108(5) 1.158(2) 0.927(2)
H5B H -0.0032 1.1622 0.9471
H6B H -0.1380 1.1336 0.9806
C12B C -0.177(4) 1.2439(16) 0.900(2)
H7B H -0.1281 1.2816 0.9523
H8B H -0.2767 1.2400 0.9023
C13B C -0.180(3) 1.2809(16) 0.809(2)
H9B H -0.2494 1.3256 0.7950
H10B H -0.0852 1.3041 0.8138
C14B C -0.120(5) 1.024(2) 0.857(2)
H11B H -0.0863 1.0153 0.9271
H12B H -0.2043 0.9909 0.8291
H13B H -0.0459 1.0097 0.8270
C15B C -0.268(4) 1.2490(14) 0.612(3)
H14B H -0.2889 1.2018 0.5687
H15B H -0.3522 1.2829 0.6003
H16B H -0.1909 1.2802 0.5981
N1B N -0.156(3) 1.1078(17) 0.838(2)
N2B N -0.219(2) 1.2189(12) 0.7250(15)
O8 O 0.3374(18) 1.0190(9) 0.0620(12)
O9 O 0.566(6) 1.011(3) 0.095(4)
loop_
_geom_bond_atom_site_label_1
_geom_bond_atom_site_label_2
_geom_bond_site_symmetry_1
_geom_bond_site_symmetry_2
Y1 O1 1_555 1_555
O1 C7 1_555 1_555
O2 C7 1_555 1_555
O3 C8 1_555 1_555
O4 C8 1_555 1_555
O5 C9 1_555 1_555
O6 Y1 1_555 1_555
O7 Y1 1_555 1_555
C1 C2 1_555 1_555
C2 H1 1_555 1_555
C3 C2 1_555 1_555
H2 C3 1_555 1_555
C4 C3 1_555 1_555
C5 C4 1_555 1_555
H3 C5 1_555 1_555
C6 C1 1_555 1_555
H4 C6 1_555 1_555
C7 C1 1_555 1_555
C8 C4 1_555 1_555
C9 O6 1_555 1_555
C10 O7 1_555 1_555
C11 H5 1_555 1_555
H6 C11 1_555 1_555
C12 C11 1_555 1_555
H7 C12 1_555 1_555
H8 C12 1_555 1_555
C13 C12 1_555 1_555
H9 C13 1_555 1_555
H10 C13 1_555 1_555
C14 H11 1_555 1_555
H12 C14 1_555 1_555
H13 C14 1_555 1_555
C15 H14 1_555 1_555
H15 C15 1_555 1_555
H16 C15 1_555 1_555
N1 C10 1_555 1_555
N2 C10 1_555 1_555
Y1B O2 1_555 1_555
Y1C O3 1_555 1_555
Y1A O4 1_555 1_555
Y1B_2 O5 1_555 1_555
Y1A_2 O3B 1_555 1_555
Y1C_2 O4B 1_555 1_555
O1B Y1B 1_555 1_555
O2B Y1 1_555 1_555
O3B C8B 1_555 1_555
O3C Y1 1_555 1_555
O3A Y1B 1_555 1_555
O4B C8B 1_555 1_555
O4A Y1 1_555 1_555
O4C Y1B 1_555 1_555
O5B Y1 1_555 1_555
O5_2 Y1B 1_555 1_555
O6B Y1B_2 1_555 1_555
O6B_2 Y1B 1_555 1_555
O7B Y1B 1_555 1_555
C1B C2B 1_555 1_555
C2B H1B 1_555 1_555
C3B C2B 1_555 1_555
H2B C3B 1_555 1_555
C4B C3B 1_555 1_555
C5B C4B 1_555 1_555
H3B C5B 1_555 1_555
C6B C1B 1_555 1_555
H4B C6B 1_555 1_555
C7B O1B 1_555 1_555
C8B C4B 1_555 1_555
C9B C9 1_555 1_555
C10B O7B 1_555 1_555
C11B H5B 1_555 1_555
H6B C11B 1_555 1_555
C12B C11B 1_555 1_555
H7B C12B 1_555 1_555
H8B C12B 1_555 1_555
C13B C12B 1_555 1_555
H9B C13B 1_555 1_555
H10B C13B 1_555 1_555
C14B H11B 1_555 1_555
H12B C14B 1_555 1_555
H13B C14B 1_555 1_555
C15B H14B 1_555 1_555
H15B C15B 1_555 1_555
H16B C15B 1_555 1_555
N1B C10B 1_555 1_555
N2B C10B 1_555 1_555
C5 C6 1_555 1_555
C11 N1 1_555 1_555
C13 N2 1_555 1_555
C14 N1 1_555 1_555
C15 N2 1_555 1_555
O2B C7B 1_555 1_555
O5B C9B 1_555 1_555
O6B C9B 1_555 1_555
C1B C7B 1_555 1_555
C5B C6B 1_555 1_555
C11B N1B 1_555 1_555
C13B N2B 1_555 1_555
C14B N1B 1_555 1_555
C15B N2B 1_555 1_555

#END
