
#######################################################################
#
#                 Cambridge Crystallographic Data Centre
#                                CCDC 
#
#######################################################################
#
# If this CIF has been generated from an entry in the Cambridge 
# Structural Database, then it will include bibliographic, chemical, 
# crystal, experimental, refinement or atomic coordinate data resulting 
# from the CCDC's data processing and validation procedures.
#
#######################################################################

data_LAGWAT
_symmetry_cell_setting           orthorhombic
_symmetry_space_group_name_H-M   'C m c 21'
_symmetry_Int_Tables_number      36
_space_group_name_Hall           'C 2n -2'
loop_
_symmetry_equiv_pos_site_id
_symmetry_equiv_pos_as_xyz
1 x,y,z
2 -x,-y,1/2+z
3 x,-y,1/2+z
4 -x,y,z
5 1/2+x,1/2+y,z
6 1/2-x,1/2-y,1/2+z
7 1/2+x,1/2-y,1/2+z
8 1/2-x,1/2+y,z
_cell_length_a                   28.797(6)
_cell_length_b                   16.626(3)
_cell_length_c                   15.490(3)
_cell_angle_alpha                90
_cell_angle_beta                 90
_cell_angle_gamma                90
_cell_volume                     7416.29
loop_
_atom_site_label
_atom_site_type_symbol
_atom_site_fract_x
_atom_site_fract_y
_atom_site_fract_z
Mg1 Mg 0.33944(6) 0.19034(11) 0.00693(19)
Mg2 Mg 0.0000 0.20898(17) -0.0087(3)
O1 O 0.04259(15) 0.0038(3) 0.0112(8)
O2 O 0.27450(14) 0.1465(2) -0.0180(4)
O3 O 0.41283(15) 0.1880(3) 0.0283(4)
O4 O 0.21609(14) 0.2298(3) 0.0101(6)
O5 O 0.05577(15) 0.1345(3) 0.0062(6)
O6 O 0.37552(14) 0.0805(2) -0.0139(4)
O7 O 0.24290(15) -0.1431(3) 0.0093(6)
O8 O 0.17137(14) -0.1884(2) 0.0270(4)
O9 O 0.3509(2) 0.2217(4) -0.1219(4)
O10 O 0.0000 0.2302(7) 0.1241(7)
O11 O 0.53844(15) -0.1815(2) -0.0236(4)
O12 O 0.3276(2) 0.1665(3) 0.1350(4)
O13 O 0.0000 0.1849(10) -0.1325(12)
N1 N 0.3801(3) 0.3381(5) -0.1697(6)
N2 N 0.3073(3) 0.2954(6) -0.2143(6)
N3 N 0.3301(3) 0.0631(5) 0.2288(6)
N4 N 0.3514(3) 0.1914(5) 0.2702(6)
N5 N 0.0000 0.2361(12) -0.2606(13)
N6 N 0.0000 0.1088(11) -0.2412(12)
N7 N 0.0439(5) 0.3258(7) 0.1887(9)
C1 C 0.1992(2) -0.1338(4) 0.0167(6)
C2 C 0.13578(19) -0.0327(4) 0.0138(6)
C3 C 0.2332(2) 0.1611(3) -0.0052(6)
C4 C 0.5000 -0.0554(4) -0.0146(7)
C5 C 0.4129(2) 0.1157(4) 0.0049(6)
C6 C 0.0685(2) 0.0653(4) 0.0093(9)
C7 C 0.1195(2) 0.0455(3) 0.0094(7)
C8 C 0.45769(19) 0.0699(3) 0.0002(6)
C9 C 0.19876(18) 0.0923(3) -0.0022(5)
C10 C 0.1514(2) 0.1086(4) 0.0004(6)
C11 C 0.18277(19) -0.0478(3) 0.0112(6)
C12 C 0.21430(19) 0.0149(3) 0.0020(6)
C13 C 0.4580(2) -0.0127(4) -0.0085(6)
C14 C 0.5000 0.1120(5) 0.0056(9)
C15 C 0.5000 -0.1426(6) -0.0200(9)
C16 C 0.3467(3) 0.2844(6) -0.1672(6)
C17 C 0.4239(4) 0.3246(7) -0.1313(9)
H1 H 0.4225 0.2774 -0.0957
H2 H 0.4322 0.3701 -0.0964
H3 H 0.4468 0.3172 -0.1756
C18 C 0.3367(3) 0.1408(5) 0.2085(6)
C19 C 0.0000 0.2941(12) 0.1697(13)
C20 C 0.3164(4) 0.0070(7) 0.1646(8)
H4 H 0.3129 0.0342 0.1103
H5 H 0.2873 -0.0169 0.1807
H6 H 0.3396 -0.0342 0.1594
C21 C 0.0000 0.3219(15) -0.2321(19)
H7 H 0.0000 0.3242 -0.1702
H8 H -0.0272 0.3483 -0.2540
C22 C 0.3602(5) 0.1646(8) 0.3608(10)
H9 H 0.3933 0.1571 0.3687
H10 H 0.3502 0.2067 0.4000
C23 C 0.0000 0.032(2) -0.185(3)
H11 H 0.0000 0.0465 -0.1249
H12 H 0.0272 0.0005 -0.1974
C24 C 0.3367(5) 0.0913(9) 0.3830(11)
H13 H 0.3046 0.1038 0.3964
H14 H 0.3508 0.0696 0.4349
C25 C 0.3376(5) 0.0272(9) 0.3141(11)
H15 H 0.3673 -0.0002 0.3151
H16 H 0.3135 -0.0121 0.3256
C26 C 0.0843(6) 0.2940(9) 0.1574(12)
H17 H 0.0775 0.2464 0.1246
H18 H 0.1044 0.2806 0.2046
H19 H 0.0993 0.3328 0.1208
C27 C 0.3605(5) 0.2727(8) 0.2506(9)
H20 H 0.3531 0.2827 0.1911
H21 H 0.3927 0.2841 0.2606
H22 H 0.3417 0.3066 0.2867
C28 C 0.3042(5) 0.3639(8) -0.2718(11)
H23 H 0.3162 0.3486 -0.3280
H24 H 0.2718 0.3785 -0.2789
C29 C 0.0466(7) 0.3996(13) 0.2422(17)
H25 H 0.0602 0.3874 0.2980
H26 H 0.0656 0.4398 0.2139
C30 C 0.2738(4) 0.2320(8) -0.2218(9)
H27 H 0.2807 0.1907 -0.1805
H28 H 0.2750 0.2098 -0.2790
H29 H 0.2433 0.2530 -0.2110
C31 C 0.3296(6) 0.4333(10) -0.2411(12)
H30 H 0.3156 0.4527 -0.1882
H31 H 0.3278 0.4759 -0.2837
C32 C 0.3779(5) 0.4130(9) -0.2254(10)
H32 H 0.3932 0.4573 -0.1963
H33 H 0.3936 0.4035 -0.2798
C33 C 0.0000 0.1764(11) -0.2073(12)
C34 C 0.0000 0.1657(17) -0.384(2)
H34 H 0.0268 0.1627 -0.4213
C35 C 0.0000 0.243(2) -0.356(3)
H35 H -0.0274 0.2712 -0.3760
C36 C 0.0000 0.4289(18) 0.253(2)
H36 H 0.0000 0.4760 0.2170
H37 H 0.0000 0.4481 0.3113
C37 C 0.0000 0.0826(15) -0.3355(18)
H38 H -0.0275 0.0514 -0.3494
H39 H 0.141(2) 0.159(4) -0.012(4)
H40 H 0.4286(17) -0.039(3) -0.016(3)
H41 H 0.247(2) 0.010(4) -0.004(5)
H42 H 0.5000 0.170(6) 0.009(7)
H43 H 0.117(3) -0.077(5) 0.021(6)
H44 H 0.0000 0.013(9) 0.013(11)
H45 H 0.250(5) -0.201(8) 0.006(11)
Mg1C Mg -0.33944(6) 0.19034(11) 0.00693(19)
Mg1C_2 Mg 0.66056(6) 0.19034(11) 0.00693(19)
Mg1D Mg -0.16056(6) -0.30966(11) 0.00693(19)
Mg1G Mg 0.16056(6) -0.30966(11) 0.00693(19)
Mg2D Mg 0.5000 -0.29102(17) -0.0087(3)
O1C O -0.04259(15) 0.0038(3) 0.0112(8)
O2C O -0.27450(14) 0.1465(2) -0.0180(4)
O3C O 0.58717(15) 0.1880(3) 0.0283(4)
O3C_2 O -0.41283(15) 0.1880(3) 0.0283(4)
O4C O -0.21609(14) 0.2298(3) 0.0101(6)
O5C O -0.05577(15) 0.1345(3) 0.0062(6)
O6C O 0.62448(14) 0.0805(2) -0.0139(4)
O6C_2 O -0.37552(14) 0.0805(2) -0.0139(4)
O7C O -0.24290(15) -0.1431(3) 0.0093(6)
O8C O -0.17137(14) -0.1884(2) 0.0270(4)
O8D O -0.32863(14) 0.3116(2) 0.0270(4)
O8G O 0.32863(14) 0.3116(2) 0.0270(4)
O9C O -0.3509(2) 0.2217(4) -0.1219(4)
O11C O 0.46156(15) -0.1815(2) -0.0236(4)
O11D O 0.03844(15) 0.3185(2) -0.0236(4)
O11G O -0.03844(15) 0.3185(2) -0.0236(4)
O12C O -0.3276(2) 0.1665(3) 0.1350(4)
N1C N -0.3801(3) 0.3381(5) -0.1697(6)
N2C N -0.3073(3) 0.2954(6) -0.2143(6)
N3C N -0.3301(3) 0.0631(5) 0.2288(6)
N4C N -0.3514(3) 0.1914(5) 0.2702(6)
N7C N -0.0439(5) 0.3258(7) 0.1887(9)
C1C C -0.1992(2) -0.1338(4) 0.0167(6)
C2C C -0.13578(19) -0.0327(4) 0.0138(6)
C3C C -0.2332(2) 0.1611(3) -0.0052(6)
C5C C 0.5871(2) 0.1157(4) 0.0049(6)
C6C C -0.0685(2) 0.0653(4) 0.0093(9)
C7C C -0.1195(2) 0.0455(3) 0.0094(7)
C8C C 0.54231(19) 0.0699(3) 0.0002(6)
C9C C -0.19876(18) 0.0923(3) -0.0022(5)
C10C C -0.1514(2) 0.1086(4) 0.0004(6)
C11C C -0.18277(19) -0.0478(3) 0.0112(6)
C12C C -0.21430(19) 0.0149(3) 0.0020(6)
C13C C 0.5420(2) -0.0127(4) -0.0085(6)
C16C C -0.3467(3) 0.2844(6) -0.1672(6)
C17C C -0.4239(4) 0.3246(7) -0.1313(9)
H1C H -0.4225 0.2774 -0.0957
H2C H -0.4322 0.3701 -0.0964
H3C H -0.4468 0.3172 -0.1756
C18C C -0.3367(3) 0.1408(5) 0.2085(6)
C20C C -0.3164(4) 0.0070(7) 0.1646(8)
H4C H -0.3129 0.0342 0.1103
H5C H -0.2873 -0.0169 0.1807
H6C H -0.3396 -0.0342 0.1594
H8C H 0.0272 0.3483 -0.2540
C22C C -0.3602(5) 0.1646(8) 0.3608(10)
H9C H -0.3933 0.1571 0.3687
H10C H -0.3502 0.2067 0.4000
H12C H -0.0272 0.0005 -0.1974
C24C C -0.3367(5) 0.0913(9) 0.3830(11)
H13C H -0.3046 0.1038 0.3964
H14C H -0.3508 0.0696 0.4349
C25C C -0.3376(5) 0.0272(9) 0.3141(11)
H15C H -0.3673 -0.0002 0.3151
H16C H -0.3135 -0.0121 0.3256
C26C C -0.0843(6) 0.2940(9) 0.1574(12)
H17C H -0.0775 0.2464 0.1246
H18C H -0.1044 0.2806 0.2046
H19C H -0.0993 0.3328 0.1208
C27C C -0.3605(5) 0.2727(8) 0.2506(9)
H20C H -0.3531 0.2827 0.1911
H21C H -0.3927 0.2841 0.2606
H22C H -0.3417 0.3066 0.2867
C28C C -0.3042(5) 0.3639(8) -0.2718(11)
H23C H -0.3162 0.3486 -0.3280
H24C H -0.2718 0.3785 -0.2789
C29C C -0.0466(7) 0.3996(13) 0.2422(17)
H25C H -0.0602 0.3874 0.2980
H26C H -0.0656 0.4398 0.2139
C30C C -0.2738(4) 0.2320(8) -0.2218(9)
H27C H -0.2807 0.1907 -0.1805
H28C H -0.2750 0.2098 -0.2790
H29C H -0.2433 0.2530 -0.2110
C31C C -0.3296(6) 0.4333(10) -0.2411(12)
H30C H -0.3156 0.4527 -0.1882
H31C H -0.3278 0.4759 -0.2837
C32C C -0.3779(5) 0.4130(9) -0.2254(10)
H32C H -0.3932 0.4573 -0.1963
H33C H -0.3936 0.4035 -0.2798
H34C H -0.0268 0.1627 -0.4213
H35C H 0.0274 0.2712 -0.3760
H38C H 0.0275 0.0514 -0.3494
H39C H -0.141(2) 0.159(4) -0.012(4)
H40C H 0.5714(17) -0.039(3) -0.016(3)
H41C H -0.247(2) 0.010(4) -0.004(5)
H43C H -0.117(3) -0.077(5) 0.021(6)
H45C H -0.250(5) -0.201(8) 0.006(11)
loop_
_geom_bond_atom_site_label_1
_geom_bond_atom_site_label_2
_geom_bond_site_symmetry_1
_geom_bond_site_symmetry_2
Mg1 O2 1_555 1_555
Mg2 O5 1_555 1_555
O1 C6 1_555 1_555
O2 C3 1_555 1_555
O3 Mg1 1_555 1_555
O4 C3 1_555 1_555
O5 C6 1_555 1_555
O6 Mg1 1_555 1_555
O7 C1 1_555 1_555
O8 C1 1_555 1_555
O9 Mg1 1_555 1_555
O10 Mg2 1_555 1_555
O11 C15 1_555 1_555
O12 Mg1 1_555 1_555
O13 Mg2 1_555 1_555
N1 C16 1_555 1_555
N2 C16 1_555 1_555
N3 C18 1_555 1_555
N4 C18 1_555 1_555
N5 C21 1_555 1_555
N6 C23 1_555 1_555
N7 C19 1_555 1_555
C1 C11 1_555 1_555
C2 C7 1_555 1_555
C3 C9 1_555 1_555
C4 C13 1_555 1_555
C5 O3 1_555 1_555
C6 C7 1_555 1_555
C7 C10 1_555 1_555
C8 C5 1_555 1_555
C9 C10 1_555 1_555
C10 H39 1_555 1_555
C11 C2 1_555 1_555
C12 C9 1_555 1_555
C13 C8 1_555 1_555
C14 C8 1_555 1_555
C15 C4 1_555 1_555
C16 O9 1_555 1_555
C17 N1 1_555 1_555
H1 C17 1_555 1_555
H2 C17 1_555 1_555
H3 C17 1_555 1_555
C18 O12 1_555 1_555
C19 O10 1_555 1_555
C20 N3 1_555 1_555
H4 C20 1_555 1_555
H5 C20 1_555 1_555
H6 C20 1_555 1_555
C21 H7 1_555 1_555
H8 C21 1_555 1_555
C22 N4 1_555 1_555
H9 C22 1_555 1_555
H10 C22 1_555 1_555
C23 H11 1_555 1_555
H12 C23 1_555 1_555
C24 C22 1_555 1_555
H13 C24 1_555 1_555
H14 C24 1_555 1_555
C25 N3 1_555 1_555
H15 C25 1_555 1_555
H16 C25 1_555 1_555
C26 N7 1_555 1_555
H17 C26 1_555 1_555
H18 C26 1_555 1_555
H19 C26 1_555 1_555
C27 N4 1_555 1_555
H20 C27 1_555 1_555
H21 C27 1_555 1_555
H22 C27 1_555 1_555
C28 N2 1_555 1_555
H23 C28 1_555 1_555
H24 C28 1_555 1_555
C29 N7 1_555 1_555
H25 C29 1_555 1_555
H26 C29 1_555 1_555
C30 N2 1_555 1_555
H27 C30 1_555 1_555
H28 C30 1_555 1_555
H29 C30 1_555 1_555
C31 C28 1_555 1_555
H30 C31 1_555 1_555
H31 C31 1_555 1_555
C32 N1 1_555 1_555
H32 C32 1_555 1_555
H33 C32 1_555 1_555
C33 O13 1_555 1_555
C34 H34 1_555 1_555
C35 N5 1_555 1_555
H35 C35 1_555 1_555
C36 C29 1_555 1_555
H36 C36 1_555 1_555
H37 C36 1_555 1_555
C37 N6 1_555 1_555
H38 C37 1_555 1_555
H40 C13 1_555 1_555
H41 C12 1_555 1_555
H42 C14 1_555 1_555
H43 C2 1_555 1_555
H44 O1 1_555 1_555
H45 O7 1_555 1_555
Mg1C O2C 1_555 1_555
Mg1C_2 O3C 1_555 1_555
Mg1D O8C 1_555 1_555
Mg1G O8 1_555 1_555
Mg2D O11 1_555 1_555
O1C H44 1_555 1_555
O2C C3C 1_555 1_555
O3C C5C 1_555 1_555
O3C_2 Mg1C 1_555 1_555
O4C C3C 1_555 1_555
O5C Mg2 1_555 1_555
O6C Mg1C_2 1_555 1_555
O6C_2 Mg1C 1_555 1_555
O7C C1C 1_555 1_555
O8C C1C 1_555 1_555
O8D Mg1C 1_555 1_555
O8G Mg1 1_555 1_555
O9C Mg1C 1_555 1_555
O11C C15 1_555 1_555
O11D Mg2 1_555 1_555
O11G Mg2 1_555 1_555
O12C Mg1C 1_555 1_555
N1C C16C 1_555 1_555
N2C C16C 1_555 1_555
N3C C18C 1_555 1_555
N4C C18C 1_555 1_555
N7C C19 1_555 1_555
C1C C11C 1_555 1_555
C2C C7C 1_555 1_555
C3C C9C 1_555 1_555
C5C O6C 1_555 1_555
C6C O1C 1_555 1_555
C7C C6C 1_555 1_555
C8C C14 1_555 1_555
C9C C10C 1_555 1_555
C10C C7C 1_555 1_555
C11C C2C 1_555 1_555
C12C C9C 1_555 1_555
C13C C4 1_555 1_555
C16C O9C 1_555 1_555
C17C N1C 1_555 1_555
H1C C17C 1_555 1_555
H2C C17C 1_555 1_555
H3C C17C 1_555 1_555
C18C O12C 1_555 1_555
C20C N3C 1_555 1_555
H4C C20C 1_555 1_555
H5C C20C 1_555 1_555
H6C C20C 1_555 1_555
H8C C21 1_555 1_555
C22C N4C 1_555 1_555
H9C C22C 1_555 1_555
H10C C22C 1_555 1_555
H12C C23 1_555 1_555
C24C C22C 1_555 1_555
H13C C24C 1_555 1_555
H14C C24C 1_555 1_555
C25C N3C 1_555 1_555
H15C C25C 1_555 1_555
H16C C25C 1_555 1_555
C26C N7C 1_555 1_555
H17C C26C 1_555 1_555
H18C C26C 1_555 1_555
H19C C26C 1_555 1_555
C27C N4C 1_555 1_555
H20C C27C 1_555 1_555
H21C C27C 1_555 1_555
H22C C27C 1_555 1_555
C28C N2C 1_555 1_555
H23C C28C 1_555 1_555
H24C C28C 1_555 1_555
C29C C36 1_555 1_555
H25C C29C 1_555 1_555
H26C C29C 1_555 1_555
C30C N2C 1_555 1_555
H27C C30C 1_555 1_555
H28C C30C 1_555 1_555
H29C C30C 1_555 1_555
C31C C28C 1_555 1_555
H30C C31C 1_555 1_555
H31C C31C 1_555 1_555
C32C N1C 1_555 1_555
H32C C32C 1_555 1_555
H33C C32C 1_555 1_555
H34C C34 1_555 1_555
H35C C35 1_555 1_555
H38C C37 1_555 1_555
H39C C10C 1_555 1_555
H40C C13C 1_555 1_555
H41C C12C 1_555 1_555
H43C C2C 1_555 1_555
H45C O7C 1_555 1_555
O6 C5 1_555 1_555
N5 C33 1_555 1_555
N6 C33 1_555 1_555
C11 C12 1_555 1_555
C24 C25 1_555 1_555
C31 C32 1_555 1_555
C34 C35 1_555 1_555
C34 C37 1_555 1_555
Mg2D O11C 1_555 1_555
O5C C6C 1_555 1_555
N7C C29C 1_555 1_555
C5C C8C 1_555 1_555
C8C C13C 1_555 1_555
C11C C12C 1_555 1_555
C24C C25C 1_555 1_555
C31C C32C 1_555 1_555

#END
