
#######################################################################
#
#                 Cambridge Crystallographic Data Centre
#                                CCDC 
#
#######################################################################
#
# If this CIF has been generated from an entry in the Cambridge 
# Structural Database, then it will include bibliographic, chemical, 
# crystal, experimental, refinement or atomic coordinate data resulting 
# from the CCDC's data processing and validation procedures.
#
#######################################################################

data_LAGXEX
_symmetry_cell_setting           monoclinic
_symmetry_space_group_name_H-M   'P 21/n'
_symmetry_Int_Tables_number      14
_space_group_name_Hall           '-P 2yn'
loop_
_symmetry_equiv_pos_site_id
_symmetry_equiv_pos_as_xyz
1 x,y,z
2 1/2-x,1/2+y,1/2-z
3 -x,-y,-z
4 1/2+x,1/2-y,1/2+z
_cell_length_a                   9.1579(18)
_cell_length_b                   30.916(6)
_cell_length_c                   12.882(3)
_cell_angle_alpha                90
_cell_angle_beta                 110.52(3)
_cell_angle_gamma                90
_cell_volume                     3415.81
loop_
_atom_site_label
_atom_site_type_symbol
_atom_site_fract_x
_atom_site_fract_y
_atom_site_fract_z
Cu1 Cu 0.73384(6) 0.008431(17) 0.25940(5)
Cu2 Cu 0.30768(6) -0.256960(17) 0.20919(5)
P1 P 0.61774(12) -0.19676(3) 0.26624(8)
P2 P 0.45404(13) -0.06098(4) 0.21057(9)
P3 P 1.03180(13) -0.18946(4) 0.19808(10)
P4 P 1.03549(13) -0.05023(4) 0.28043(9)
N1 N 0.5853(4) 0.05449(12) 0.1714(3)
N2 N 0.1469(4) -0.30196(12) 0.1337(3)
N3 N 0.8540(5) 0.06118(13) 0.3309(3)
N4 N 0.4170(4) -0.30996(12) 0.2934(3)
O1 O 0.8723(4) -0.19385(12) 0.1102(3)
O2 O 1.1995(4) -0.04810(13) 0.3710(3)
C1 C 0.1886(5) -0.34287(14) 0.1690(3)
O3 O 1.0300(4) -0.20674(12) 0.3115(3)
C2 C 0.3371(5) -0.34729(14) 0.2579(3)
C3 C 0.9773(5) -0.10602(15) 0.2598(4)
H1 H 0.9767 -0.1180 0.3293
H2 H 0.8719 -0.1077 0.2065
O4 O 1.0469(5) -0.03396(12) 0.1697(3)
C4 C 1.0846(5) -0.13313(14) 0.2184(4)
H3 H 1.1901 -0.1309 0.2713
H4 H 1.0842 -0.1212 0.1487
C5 C -0.0454(6) -0.3718(2) 0.0393(4)
H5 H -0.1116 -0.3948 0.0079
C6 C 0.6319(6) 0.09497(15) 0.2061(4)
C7 C 0.7811(6) 0.09845(15) 0.2955(4)
C8 C 0.0980(6) -0.37944(16) 0.1248(4)
C9 C 0.0108(5) -0.29593(18) 0.0512(4)
H6 H -0.0195 -0.2680 0.0257
C10 C 0.9928(6) 0.06165(19) 0.4148(4)
H7 H 1.0450 0.0358 0.4403
C11 C 1.0594(7) 0.1013(2) 0.4643(5)
H8 H 1.1555 0.1014 0.5218
C12 C 0.2930(10) -0.42486(18) 0.2562(6)
H9 H 0.3268 -0.4522 0.2849
C13 C 0.5524(6) -0.31188(19) 0.3780(4)
H10 H 0.6082 -0.2865 0.4025
C14 C 0.4507(6) 0.04926(19) 0.0867(4)
H11 H 0.4187 0.0215 0.0607
C15 C 0.9831(9) 0.1393(2) 0.4280(5)
H12 H 1.0260 0.1653 0.4609
C16 C 0.3891(7) -0.38742(16) 0.3034(4)
C17 C 0.1542(9) -0.42089(17) 0.1705(6)
H13 H 0.0956 -0.4455 0.1415
C18 C -0.0871(6) -0.3307(2) 0.0026(4)
H14 H -0.1809 -0.3258 -0.0551
C19 C 0.4027(8) 0.1257(2) 0.0737(5)
H15 H 0.3387 0.1491 0.0424
C20 C 0.5473(7) 0.13239(17) 0.1601(5)
C21 C 0.3570(7) 0.0847(2) 0.0363(5)
H16 H 0.2639 0.0803 -0.0224
C22 C 0.5332(8) -0.3885(2) 0.3930(5)
H17 H 0.5741 -0.4147 0.4263
C23 C 0.6125(7) -0.3502(3) 0.4305(4)
H18 H 0.7057 -0.3503 0.4906
C24 C 0.8393(8) 0.13870(17) 0.3405(5)
C25 C 0.6090(11) 0.17377(18) 0.2085(7)
H19 H 0.5514 0.1986 0.1808
C26 C 0.7437(11) 0.17745(18) 0.2904(6)
H20 H 0.7800 0.2048 0.3175
O5 O 0.6213(4) -0.20389(11) 0.1473(2)
O6 O 0.5925(4) -0.03894(11) 0.1967(3)
O7 O 0.4857(4) -0.22001(12) 0.2831(3)
O8 O 0.9179(4) -0.02741(12) 0.3184(3)
O9 O 1.1581(4) -0.20994(12) 0.1668(3)
O10 O 0.4473(4) -0.05396(12) 0.3278(3)
O11 O 0.7761(4) -0.20922(13) 0.3512(3)
O12 O 0.6659(6) 0.00736(16) 0.4225(4)
O13 O 0.3690(5) -0.25480(15) 0.0525(3)
O14 O 0.2988(4) -0.04721(15) 0.1239(3)
C27 C 0.4685(5) -0.11878(15) 0.1908(4)
H21 H 0.3709 -0.1325 0.1854
H22 H 0.4857 -0.1238 0.1216
C28 C 0.6001(5) -0.13915(15) 0.2850(4)
H23 H 0.5822 -0.1343 0.3540
H24 H 0.6974 -0.1251 0.2908
O9_2 O 0.1581(4) -0.20994(12) 0.1668(3)
Cu2_2 Cu 1.30768(6) -0.256960(17) 0.20919(5)
O15 O 0.8118(12) 0.0166(3) 0.0836(8)
O16 O 1.2265(12) -0.2680(3) 0.3996(8)
loop_
_geom_bond_atom_site_label_1
_geom_bond_atom_site_label_2
_geom_bond_site_symmetry_1
_geom_bond_site_symmetry_2
Cu1 N1 1_555 1_555
Cu2 N2 1_555 1_555
P1 O5 1_555 1_555
P2 O6 1_555 1_555
P3 O1 1_555 1_555
P4 O2 1_555 1_555
N1 C6 1_555 1_555
N2 C1 1_555 1_555
N3 Cu1 1_555 1_555
N4 Cu2 1_555 1_555
C1 C2 1_555 1_555
O3 P3 1_555 1_555
C2 N4 1_555 1_555
C3 P4 1_555 1_555
H1 C3 1_555 1_555
H2 C3 1_555 1_555
O4 P4 1_555 1_555
C4 P3 1_555 1_555
H3 C4 1_555 1_555
H4 C4 1_555 1_555
C5 H5 1_555 1_555
C6 C7 1_555 1_555
C7 N3 1_555 1_555
C8 C1 1_555 1_555
C9 N2 1_555 1_555
H6 C9 1_555 1_555
C10 N3 1_555 1_555
H7 C10 1_555 1_555
C11 C10 1_555 1_555
H8 C11 1_555 1_555
C12 H9 1_555 1_555
C13 N4 1_555 1_555
H10 C13 1_555 1_555
C14 N1 1_555 1_555
H11 C14 1_555 1_555
C15 C11 1_555 1_555
H12 C15 1_555 1_555
C16 C2 1_555 1_555
C17 C8 1_555 1_555
H13 C17 1_555 1_555
C18 C5 1_555 1_555
H14 C18 1_555 1_555
C19 H15 1_555 1_555
C20 C6 1_555 1_555
C21 C14 1_555 1_555
H16 C21 1_555 1_555
C22 C16 1_555 1_555
H17 C22 1_555 1_555
C23 C13 1_555 1_555
H18 C23 1_555 1_555
C24 C7 1_555 1_555
C25 C20 1_555 1_555
H19 C25 1_555 1_555
C26 C24 1_555 1_555
H20 C26 1_555 1_555
O6 Cu1 1_555 1_555
O7 Cu2 1_555 1_555
O8 Cu1 1_555 1_555
O9 P3 1_555 1_555
O10 P2 1_555 1_555
O11 P1 1_555 1_555
O12 Cu1 1_555 1_555
O13 Cu2 1_555 1_555
O14 P2 1_555 1_555
C27 P2 1_555 1_555
H21 C27 1_555 1_555
H22 C27 1_555 1_555
C28 P1 1_555 1_555
H23 C28 1_555 1_555
H24 C28 1_555 1_555
O9_2 Cu2 1_555 1_555
Cu2_2 O9 1_555 1_555
P1 O7 1_555 1_555
P4 O8 1_555 1_555
C3 C4 1_555 1_555
C5 C8 1_555 1_555
C9 C18 1_555 1_555
C12 C16 1_555 1_555
C12 C17 1_555 1_555
C15 C24 1_555 1_555
C19 C20 1_555 1_555
C19 C21 1_555 1_555
C22 C23 1_555 1_555
C25 C26 1_555 1_555
C27 C28 1_555 1_555

#END
