
#######################################################################
#
#                 Cambridge Crystallographic Data Centre
#                                CCDC 
#
#######################################################################
#
# If this CIF has been generated from an entry in the Cambridge 
# Structural Database, then it will include bibliographic, chemical, 
# crystal, experimental, refinement or atomic coordinate data resulting 
# from the CCDC's data processing and validation procedures.
#
#######################################################################

data_LAGZUP
_symmetry_cell_setting           triclinic
_symmetry_space_group_name_H-M   'P 1'
_symmetry_Int_Tables_number      1
_space_group_name_Hall           'P 1'
loop_
_symmetry_equiv_pos_site_id
_symmetry_equiv_pos_as_xyz
1 x,y,z
_cell_length_a                   13.594(3)
_cell_length_b                   17.190(4)
_cell_length_c                   18.900(4)
_cell_angle_alpha                66.722(4)
_cell_angle_beta                 79.188(4)
_cell_angle_gamma                82.523(4)
_cell_volume                     3977.35
loop_
_atom_site_label
_atom_site_type_symbol
_atom_site_fract_x
_atom_site_fract_y
_atom_site_fract_z
Ti1 Ti 0.3489 0.6818 0.3048
Ti2 Ti 0.38900(13) 0.12617(11) 0.73134(11)
S1 S 0.50732(18) 0.23583(15) 0.67745(15)
S2 S 0.26335(18) 0.24201(15) 0.72739(14)
S3 S 0.37253(18) 0.16682(16) 0.59528(15)
S4 S 0.53882(18) 0.03708(15) 0.75906(15)
S5 S 0.30814(19) 0.00511(15) 0.74398(15)
S6 S 0.34863(19) 0.09376(16) 0.86770(15)
N1 N 0.4398(5) 0.4148(5) 0.3073(5)
O1 O 0.3655(5) 0.1550(4) 0.3741(4)
O2 O 0.4428(4) 0.7287(4) 0.2129(3)
O3 O 0.7672(5) 0.3774(4) 0.6166(4)
O4 O 0.4114(4) 0.5765(4) 0.2924(3)
O5 O -0.0137(5) 0.4940(4) 0.5359(4)
O6 O 0.3309(4) 0.7898(4) 0.3172(3)
O7 O 0.2439(4) 0.6125(4) 0.3878(3)
O8 O 0.5828(5) 0.3773(4) 0.2430(4)
O9 O 0.4309(4) 0.6566(4) 0.3892(3)
O10 O 0.6202(5) 0.6523(4) 0.5456(4)
O11 O 0.2399(4) 0.7023(4) 0.2474(3)
C1 C 0.5173(6) 0.8023(6) 0.4585(5)
H1 H 0.5628 0.8046 0.4900
C2 C 0.0729(6) 0.5713(6) 0.4096(5)
C3 C 0.1341(7) 0.3844(6) 0.7749(6)
N2 N 0.5579(6) 0.5762(5) 0.4915(4)
C4 C 0.1637(7) 0.4531(6) 0.6018(5)
H2 H 0.2116 0.4053 0.5998
H3 H 0.0984 0.4295 0.6298
C5 C 0.4019(7) 0.8739(6) 0.3692(5)
H4 H 0.3676 0.9248 0.3394
C6 C -0.0098(8) 0.5774(6) 0.3730(6)
H5 H -0.0689 0.5504 0.4033
C7 C 0.5228(7) 0.4332(6) 0.2523(5)
C8 C 0.3002(7) 0.3219(6) 0.3811(6)
C9 C 0.4640(7) 0.8749(6) 0.4203(5)
H6 H 0.4687 0.9255 0.4282
N3 N 0.2850(5) 0.2364(5) 0.4405(4)
C10 C 0.2291(7) 0.2412(6) 0.8213(5)
N4 N 0.2096(5) 0.4291(4) 0.7258(4)
C11 C 0.1627(6) 0.3033(6) 0.8386(5)
C12 C 0.3071(7) 0.5242(6) 0.6131(6)
H7 H 0.3328 0.5460 0.6464
H8 H 0.3058 0.5691 0.5613
H9 H 0.3508 0.4758 0.6087
N5 N 0.1515(5) 0.5089(5) 0.5241(4)
C13 C 0.3033(7) 0.0093(6) 0.6494(6)
C14 C 0.3254(6) 0.0845(5) 0.5844(5)
C15 C 0.5085(7) 0.7246(6) 0.4537(5)
C16 C 0.2857(7) 0.0146(6) 0.5047(6)
H10 H 0.2785 0.0170 0.4548
C17 C 0.3258(7) 0.1622(6) 0.4355(6)
C18 C 0.4798(7) 0.5872(6) 0.2291(5)
C19 C 0.6401(7) 0.1025(6) 0.7364(6)
C20 C 0.5318(7) 0.5237(6) 0.2059(5)
C21 C 0.7141(7) 0.3269(6) 0.6108(6)
C22 C 0.1321(8) 0.5702(6) 0.6546(6)
H11 H 0.0644 0.5509 0.6771
H12 H 0.1309 0.6146 0.6025
H13 H 0.1560 0.5929 0.6880
C23 C 0.6408(7) 0.4386(6) 0.4945(5)
C24 C 0.2273(8) 0.1656(6) 0.9601(6)
H14 H 0.2530 0.1200 1.0019
C25 C 0.6299(7) 0.1891(6) 0.6920(5)
C26 C 0.3909(7) 0.7987(6) 0.3623(5)
O12 O 0.0447(5) 0.4090(5) 0.7733(4)
N6 N 0.6589(6) 0.3510(5) 0.5519(5)
C27 C 0.8073(7) 0.1995(6) 0.6873(6)
H15 H 0.8638 0.2330 0.6702
C28 C 0.2681(8) -0.0591(6) 0.5697(6)
H16 H 0.2517 -0.1083 0.5642
C29 C 0.4456(7) 0.7236(6) 0.4032(5)
C30 C 0.0673(7) 0.5229(5) 0.4939(5)
C31 C 0.2742(7) -0.0614(6) 0.6432(6)
H17 H 0.2586 -0.1108 0.6884
C32 C 0.7312(7) 0.0662(6) 0.7583(6)
H18 H 0.7370 0.0075 0.7901
C33 C 0.2019(7) 0.4962(6) 0.6486(5)
C34 C 0.2619(7) 0.1705(6) 0.8849(5)
C35 C 0.1265(7) 0.2941(6) 0.9150(5)
H19 H 0.0800 0.3362 0.9250
C36 C 0.1563(8) 0.6617(6) 0.2825(5)
C37 C 0.4157(7) 0.3312(6) 0.3591(6)
H20 H 0.4454 0.3165 0.4071
H21 H 0.4458 0.2908 0.3344
C38 C 0.0735(7) 0.6639(6) 0.2490(5)
H22 H 0.0729 0.6947 0.1948
C39 C -0.0077(8) 0.6207(7) 0.2955(6)
H23 H -0.0643 0.6212 0.2725
C40 C 0.1572(8) 0.2238(6) 0.9775(6)
H24 H 0.1310 0.2164 1.0298
C41 C 0.5651(8) 0.4299(7) 0.4472(6)
H25 H 0.5953 0.3931 0.4195
H26 H 0.5469 0.4861 0.4096
H27 H 0.5048 0.4052 0.4826
C42 C 0.5568(7) 0.6975(7) 0.1124(6)
H28 H 0.5648 0.7558 0.0812
C43 C 0.2546(8) 0.3344(7) 0.3105(6)
H29 H 0.1865 0.3147 0.3269
H30 H 0.2955 0.3018 0.2819
H31 H 0.2522 0.3947 0.2767
C44 C 0.3137(6) 0.0843(5) 0.5124(6)
C45 C 0.8167(7) 0.1144(6) 0.7346(6)
H32 H 0.8792 0.0889 0.7508
C46 C 0.7154(7) 0.2356(6) 0.6649(5)
C47 C 0.4958(7) 0.6735(6) 0.1815(6)
C48 C 0.6085(8) 0.6335(7) 0.0876(7)
H33 H 0.6508 0.6489 0.0387
C49 C 0.2530(8) 0.3828(6) 0.4171(6)
H34 H 0.1829 0.3699 0.4387
H35 H 0.2555 0.4407 0.3776
H36 H 0.2893 0.3781 0.4589
C50 C 0.5659(7) 0.6489(6) 0.5000(6)
C51 C 0.1558(7) 0.6133(6) 0.3630(5)
C52 C 0.5954(7) 0.4938(6) 0.5393(5)
H37 H 0.5398 0.4645 0.5792
H38 H 0.6469 0.5007 0.5667
C53 C 0.5976(8) 0.5478(7) 0.1348(6)
H39 H 0.6350 0.5054 0.1188
C54 C 0.7373 0.4700 0.4439
H40 H 0.7845 0.4732 0.4759
H41 H 0.7247 0.5266 0.4045
H42 H 0.7660 0.4310 0.4180
Na1 Na 0.8594 0.4625 0.6364
O13 O 0.7722 0.5916 0.6226
O14 O 0.8491 0.4125 0.7702
C55 C 0.7531 0.6264 0.6837
H43 H 0.7005 0.5955 0.7249
H44 H 0.7312 0.6866 0.6614
H45 H 0.8148 0.6201 0.7058
H46 H 0.2738 0.3972 0.7289
H47 H 0.2703 0.2430 0.4849
H48 H 0.5151 0.5705 0.4651
H49 H 0.1906 0.5314 0.4971
H50 H 0.6179 0.3181 0.5607
H51 H 0.3956 0.4662 0.3104
Na1_2 Na -0.1406 0.4625 0.6364
O5_2 O 0.9863(5) 0.4940(4) 0.5359(4)
P1 P 0.90937(19) 0.96053(17) 0.05890(15)
P2 P 0.70976(19) 0.96792(17) 0.15603(14)
C56 C 0.9054(7) 0.8623(6) 0.0474(5)
C57 C 0.7043(8) 0.7942(6) 0.2321(6)
H52 H 0.6811 0.7956 0.1873
C58 C 0.9868(9) 0.8044(7) 0.0561(6)
H53 H 1.0450 0.8143 0.0716
C59 C 0.9946(7) 0.8798(6) 0.1929(5)
H54 H 0.9369 0.8475 0.2107
C60 C 0.9063(7) 1.1198(6) -0.0565(6)
H55 H 0.8535 1.1339 -0.0220
C61 C 1.1502(8) 0.9082(6) 0.2145(6)
H56 H 1.1996 0.8957 0.2476
C62 C 0.7224(7) 0.8676(6) 0.2377(5)
C63 C 0.7386(10) 1.1134(7) 0.1743(7)
H57 H 0.7961 1.1183 0.1358
C64 C 0.6805(8) 1.0466(6) 0.1972(6)
C65 C 1.1636(8) 0.9711(6) 0.1406(6)
H58 H 1.2224 1.0020 0.1225
N7 N 0.8054(5) 0.9928(5) 0.0926(4)
C66 C 0.6040(7) 0.9649(7) 0.1119(6)
C67 C 0.5983(9) 1.0400(7) 0.2540(6)
H59 H 0.5570 0.9940 0.2682
C68 C 1.0604(8) 1.0794(7) -0.1552(5)
H60 H 1.1150 1.0653 -0.1885
C69 C 0.7205(9) 0.7163(7) 0.2936(6)
H61 H 0.7079 0.6644 0.2911
C70 C 0.7552(8) 0.7166(7) 0.3577(6)
H62 H 0.7667 0.6647 0.3997
C71 C 1.0052(7) 0.9428(6) 0.1189(5)
C72 C 0.7555(7) 0.8673(6) 0.3016(5)
H63 H 0.7664 0.9190 0.3053
C73 C 0.9495(7) 1.0380(6) -0.0341(5)
C74 C 0.5730(11) 1.0938(9) 0.2900(8)
H64 H 0.5192 1.0850 0.3320
C75 C 0.6096(8) 1.0067(7) 0.0319(6)
H65 H 0.6674 1.0357 0.0014
C76 C 1.0179(8) 1.1610(7) -0.1780(6)
H66 H 1.0424 1.2027 -0.2269
C77 C 1.0891(7) 0.9890(6) 0.0924(5)
H67 H 1.0969 1.0327 0.0419
C78 C 0.9386(8) 1.1824(6) -0.1290(6)
H68 H 0.9074 1.2381 -0.1444
C79 C 1.0258(7) 1.0190(6) -0.0865(6)
H69 H 1.0539 0.9624 -0.0735
C80 C 1.0634(7) 0.8633(6) 0.2399(6)
H70 H 1.0531 0.8207 0.2909
C81 C 0.6307(12) 1.1638(10) 0.2620(8)
H71 H 0.6109 1.2068 0.2824
C82 C 0.7151(11) 1.1746(8) 0.2064(8)
H72 H 0.7551 1.2216 0.1909
C83 C 0.5215(7) 0.9217(7) 0.1539(7)
H73 H 0.5192 0.8912 0.2084
C84 C 0.8203(9) 0.8473(8) 0.0262(7)
H74 H 0.7651 0.8883 0.0186
C85 C 0.9831(9) 0.7302(7) 0.0419(7)
H75 H 1.0410 0.6924 0.0430
C86 C 0.7727(7) 0.7909(7) 0.3605(6)
H76 H 0.7976 0.7902 0.4045
C87 C 0.8949(10) 0.7129(7) 0.0266(7)
H77 H 0.8890 0.6600 0.0232
C88 C 0.4426(8) 0.9212(7) 0.1195(7)
H78 H 0.3847 0.8925 0.1502
C89 C 0.8148 0.7730 0.0161
H79 H 0.7557 0.7630 0.0019
C90 C 0.5292 1.0052 -0.0025
H80 H 0.5307 1.0345 -0.0571
C91 C 0.4463 0.9612 0.0425
H81 H 0.3917 0.9593 0.0184
P3 P 0.9121 -0.0856 0.5809
P4 P 0.94058(18) 0.09976(15) 0.49286(14)
N8 N 0.9458(5) 0.0053(4) 0.5568(4)
C92 C 0.9817(7) -0.1418(6) 0.5241(5)
C93 C 1.0941(7) 0.1780(6) 0.6125(5)
H82 H 1.1368 0.1521 0.6512
C94 C 1.0771(7) -0.1193(6) 0.4870(5)
H83 H 1.1025 -0.0710 0.4882
C95 C 0.6404(7) 0.1400(6) 0.5390(6)
H84 H 0.5898 0.1187 0.5827
C96 C 0.9701(7) 0.2503(6) 0.5035(5)
H85 H 0.9268 0.2754 0.4652
C97 C 1.1357(8) -0.1652(7) 0.4485(6)
H86 H 1.2008 -0.1480 0.4224
C98 C 1.0247(8) 0.0730(7) 0.2874(6)
H87 H 0.9967 0.0521 0.2564
C99 C 1.0700(7) 0.2622(6) 0.5889(5)
H88 H 1.0968 0.2951 0.6103
C100 C 1.1009(8) -0.2364(7) 0.4473(6)
H89 H 1.1428 -0.2698 0.4224
C101 C 0.7867(8) 0.2006(6) 0.4107(5)
H90 H 0.8368 0.2209 0.3664
C102 C 0.7824(7) -0.0894(6) 0.5793(6)
C103 C 0.7490(7) -0.0672(6) 0.5077(5)
H91 H 0.7966 -0.0589 0.4619
C104 C 0.9415(6) -0.1431(6) 0.6781(5)
C105 C 0.6094(7) -0.0916(6) 0.6381(6)
H92 H 0.5608 -0.0994 0.6832
C106 C 1.0083(7) 0.1086(6) 0.4002(5)
C107 C 0.6478(7) -0.0574(6) 0.5028(6)
H93 H 0.6262 -0.0419 0.4538
C108 C 1.0063(8) -0.2587(7) 0.4818(6)
H94 H 0.9823 -0.3071 0.4796
C109 C 0.9953(6) 0.1651(6) 0.5276(5)
C110 C 1.1073(7) 0.1331(6) 0.3777(6)
H95 H 1.1358 0.1546 0.4081
C111 C 0.7406(7) 0.1134(6) 0.5448(6)
H96 H 0.7589 0.0752 0.5933
C112 C 0.8133(7) 0.1418(6) 0.4811(6)
C113 C 1.0061(7) 0.3011(6) 0.5333(6)
H97 H 0.9878 0.3602 0.5165
C114 C 0.6893(8) 0.2289(7) 0.4055(6)
H98 H 0.6718 0.2705 0.3580
C115 C 0.9695(8) 0.0783(7) 0.3529(6)
H99 H 0.9026 0.0610 0.3672
C116 C 1.0584(6) 0.1292(6) 0.5820(5)
H100 H 1.0774 0.0702 0.5987
C117 C 0.7114(7) -0.1031(6) 0.6455(6)
H101 H 0.7317 -0.1201 0.6951
C118 C 0.6155 0.1977 0.4687
H102 H 0.5472 0.2160 0.4638
C119 C 0.5781 -0.0697 0.5684
H103 H 0.5085 -0.0629 0.5649
C120 C 0.9429 -0.2123 0.5207
H104 H 0.8763 -0.2277 0.5438
C121 C 1.1639 0.1259 0.3106
H105 H 1.2319 0.1405 0.2967
C122 C 0.9564 -0.0979 0.7203
H106 H 0.9460 -0.0378 0.6990
C123 C 0.9604 -0.2310 0.7077
H107 H 0.9528 -0.2633 0.6784
C124 C 0.9856 -0.1368 0.7921
H108 H 0.9926 -0.1044 0.8213
C125 C 1.0050 -0.2252 0.8223
H109 H 1.0279 -0.2533 0.8713
C126 C 1.1233 0.0985 0.2654
H110 H 1.1616 0.0965 0.2185
C127 C 0.9902 -0.2699 0.7795
H111 H 1.0009 -0.3299 0.8005
P5 P 0.41928(19) 0.65995(16) 0.89584(14)
P6 P 0.3648(2) 0.48400(17) 0.94316(15)
C128 C 0.0812(8) 0.5140(6) 0.8893(7)
H112 H 0.0496 0.5151 0.8481
N9 N 0.4173(6) 0.5610(5) 0.9417(4)
C129 C 0.3913(7) 0.3783(6) 0.8609(6)
H113 H 0.3383 0.3480 0.8981
C130 C 0.4615(8) 0.7079(7) 0.7371(6)
H114 H 0.5293 0.7068 0.7438
C131 C 0.3783(7) 0.3946(6) 1.0328(5)
C132 C 0.3423(8) 0.7243(6) 0.6555(6)
H115 H 0.3276 0.7337 0.6055
C133 C 0.5158(8) 0.3911(6) 0.7540(6)
H116 H 0.5482 0.3707 0.7150
C134 C 0.0241(8) 0.5231(6) 0.9537(6)
H117 H -0.0469 0.5297 0.9572
C135 C 0.2650(8) 0.8470(7) 0.9563(7)
H118 H 0.2425 0.9048 0.9320
C136 C 0.4387(7) 0.3492(6) 0.8040(5)
H119 H 0.4172 0.3007 0.8004
C137 C 0.2309(7) 0.5022(6) 0.9441(5)
C138 C 0.5022(8) 0.4904(7) 0.8128(6)
H120 H 0.5251 0.5381 0.8169
C139 C 0.0689 0.5227 1.0140
H121 H 0.0296 0.5293 1.0587
C140 C 0.1855 0.5032 0.8837
H122 H 0.2251 0.4967 0.8390
C141 C 0.3061 0.8004 0.9130
H123 H 0.3104 0.8252 0.8579
C142 C 0.4193 0.4497 0.8649
C143 C 0.2871 0.7010 0.7899
H124 H 0.2349 0.6950 0.8325
C144 C 0.3851 0.6963 0.7998
C145 C 0.3197 0.3283 1.0544
H125 H 0.2689 0.3312 1.0250
C146 C 0.4531 0.3928 1.0738
H126 H 0.4924 0.4402 1.0584
C147 C 0.3325 0.6797 1.0293
H127 H 0.3560 0.6224 1.0545
C148 C 0.2642 0.7148 0.7159
H128 H 0.1967 0.7174 0.7079
C149 C 0.4381 0.7209 0.6650
H129 H 0.4901 0.7274 0.6222
C150 C 0.1732 0.5125 1.0070
H130 H 0.2049 0.5127 1.0476
C151 C 0.5508 0.4620 0.7557
H131 H 0.6058 0.4899 0.7194
C152 C 0.5451 0.6918 0.8844
C153 C 0.4692 0.3199 1.1380
H132 H 0.5216 0.3172 1.1660
C154 C 0.7222 0.6593 0.8772
H133 H 0.7780 0.6191 0.8807
C155 C 0.5602 0.7739 0.8664
H134 H 0.5041 0.8139 0.8610
C156 C 0.4112 0.2510 1.1626
H135 H 0.4230 0.2018 1.2071
C157 C 0.6538 0.8011 0.8556
H136 H 0.6634 0.8586 0.8452
C158 C 0.7365 0.7402 0.8606
H137 H 0.8028 0.7574 0.8520
C159 C 0.2886 0.7270 1.0725
H138 H 0.2809 0.7022 1.1277
C160 C 0.6258 0.6340 0.8892
H139 H 0.6155 0.5764 0.9008
C161 C 0.3352 0.2552 1.1207
H140 H 0.2939 0.2089 1.1369
C162 C 0.2567 0.8083 1.0364
H141 H 0.2274 0.8402 1.0670
C163 C 0.3420 0.7166 0.9489
O15 O 0.7300 0.3067 0.9185
C164 C 0.6447 0.2647 0.9245
H142 H 0.5860 0.3061 0.9155
H143 H 0.6307 0.2211 0.9778
C165 C 0.6601 0.2237 0.8669
H144 H 0.6725 0.2671 0.8141
H145 H 0.6000 0.1947 0.8724
H146 H 0.7179 0.1825 0.8761
C166 C 0.7195 0.3481 0.9711
H147 H 0.6996 0.3065 1.0245
H148 H 0.6646 0.3930 0.9589
C167 C 0.8095 0.3860 0.9696
H149 H 0.8662 0.3436 0.9755
H150 H 0.7997 0.4061 1.0124
H151 H 0.8233 0.4339 0.9198
O16 O 0.9274 0.4060 0.1956
C168 C 0.9127 0.4520 0.2406
H152 H 0.9702 0.4876 0.2278
H153 H 0.9080 0.4136 0.2961
C169 C 1.0160 0.3455 0.2080
H154 H 1.0088 0.3026 0.2620
H155 H 1.0780 0.3753 0.1977
C170 C 0.8132 0.5100 0.2263
H156 H 0.8252 0.5589 0.1770
H157 H 0.7916 0.5299 0.2691
H158 H 0.7608 0.4775 0.2238
C171 C 1.0184 0.3020 0.1460
H159 H 0.9521 0.2821 0.1511
H160 H 1.0683 0.2538 0.1561
H161 H 1.0362 0.3437 0.0931
loop_
_geom_bond_atom_site_label_1
_geom_bond_atom_site_label_2
_geom_bond_site_symmetry_1
_geom_bond_site_symmetry_2
Ti1 O2 1_555 1_555
Ti2 S1 1_555 1_555
S1 C25 1_555 1_555
S2 Ti2 1_555 1_555
S3 Ti2 1_555 1_555
S4 Ti2 1_555 1_555
S5 Ti2 1_555 1_555
S6 Ti2 1_555 1_555
N1 C7 1_555 1_555
O1 C17 1_555 1_555
O2 C47 1_555 1_555
O3 C21 1_555 1_555
O4 Ti1 1_555 1_555
O5 C30 1_555 1_555
O6 Ti1 1_555 1_555
O7 Ti1 1_555 1_555
O8 C7 1_555 1_555
O9 Ti1 1_555 1_555
O10 C50 1_555 1_555
O11 Ti1 1_555 1_555
C1 H1 1_555 1_555
C2 C6 1_555 1_555
C3 N4 1_555 1_555
N2 C50 1_555 1_555
C4 H2 1_555 1_555
H3 C4 1_555 1_555
C5 H4 1_555 1_555
C6 H5 1_555 1_555
C7 C20 1_555 1_555
C8 N3 1_555 1_555
C9 C1 1_555 1_555
H6 C9 1_555 1_555
N3 C17 1_555 1_555
C10 S2 1_555 1_555
N4 C33 1_555 1_555
C11 C3 1_555 1_555
C12 H7 1_555 1_555
H8 C12 1_555 1_555
H9 C12 1_555 1_555
N5 C4 1_555 1_555
C13 S5 1_555 1_555
C14 S3 1_555 1_555
C15 C1 1_555 1_555
C16 H10 1_555 1_555
C17 C44 1_555 1_555
C18 O4 1_555 1_555
C19 S4 1_555 1_555
C20 C18 1_555 1_555
C21 N6 1_555 1_555
C22 H11 1_555 1_555
H12 C22 1_555 1_555
H13 C22 1_555 1_555
C23 N6 1_555 1_555
C24 H14 1_555 1_555
C25 C19 1_555 1_555
C26 O6 1_555 1_555
O12 C3 1_555 1_555
N6 H50 1_555 1_555
C27 H15 1_555 1_555
C28 C16 1_555 1_555
H16 C28 1_555 1_555
C29 O9 1_555 1_555
C30 C2 1_555 1_555
C31 C13 1_555 1_555
H17 C31 1_555 1_555
C32 C19 1_555 1_555
H18 C32 1_555 1_555
C33 C4 1_555 1_555
C34 S6 1_555 1_555
C35 C11 1_555 1_555
H19 C35 1_555 1_555
C36 O11 1_555 1_555
C37 N1 1_555 1_555
H20 C37 1_555 1_555
H21 C37 1_555 1_555
C38 C36 1_555 1_555
H22 C38 1_555 1_555
C39 C6 1_555 1_555
H23 C39 1_555 1_555
C40 C24 1_555 1_555
H24 C40 1_555 1_555
C41 C23 1_555 1_555
H25 C41 1_555 1_555
H26 C41 1_555 1_555
H27 C41 1_555 1_555
C42 H28 1_555 1_555
C43 C8 1_555 1_555
H29 C43 1_555 1_555
H30 C43 1_555 1_555
H31 C43 1_555 1_555
C44 C14 1_555 1_555
C45 C27 1_555 1_555
H32 C45 1_555 1_555
C46 C21 1_555 1_555
C47 C18 1_555 1_555
C48 C42 1_555 1_555
H33 C48 1_555 1_555
C49 C8 1_555 1_555
H34 C49 1_555 1_555
H35 C49 1_555 1_555
H36 C49 1_555 1_555
C50 C15 1_555 1_555
C51 O7 1_555 1_555
C52 N2 1_555 1_555
H37 C52 1_555 1_555
H38 C52 1_555 1_555
C53 C20 1_555 1_555
H39 C53 1_555 1_555
C54 C23 1_555 1_555
H40 C54 1_555 1_555
H41 C54 1_555 1_555
H42 C54 1_555 1_555
Na1 O3 1_555 1_555
O13 Na1 1_555 1_555
O14 Na1 1_555 1_555
C55 O13 1_555 1_555
H43 C55 1_555 1_555
H44 C55 1_555 1_555
H45 C55 1_555 1_555
H46 N4 1_555 1_555
H47 N3 1_555 1_555
H48 N2 1_555 1_555
H49 N5 1_555 1_555
H51 N1 1_555 1_555
P1 C56 1_555 1_555
P2 C62 1_555 1_555
C56 C58 1_555 1_555
C57 H52 1_555 1_555
C58 H53 1_555 1_555
C59 H54 1_555 1_555
C60 H55 1_555 1_555
C61 H56 1_555 1_555
C62 C57 1_555 1_555
C63 H57 1_555 1_555
C64 P2 1_555 1_555
C65 C61 1_555 1_555
H58 C65 1_555 1_555
N7 P1 1_555 1_555
C66 P2 1_555 1_555
C67 C64 1_555 1_555
H59 C67 1_555 1_555
C68 H60 1_555 1_555
C69 C57 1_555 1_555
H61 C69 1_555 1_555
C70 C69 1_555 1_555
H62 C70 1_555 1_555
C71 P1 1_555 1_555
C72 C62 1_555 1_555
H63 C72 1_555 1_555
C73 P1 1_555 1_555
C74 C67 1_555 1_555
H64 C74 1_555 1_555
C75 C66 1_555 1_555
H65 C75 1_555 1_555
C76 C68 1_555 1_555
H66 C76 1_555 1_555
C77 C65 1_555 1_555
H67 C77 1_555 1_555
C78 C60 1_555 1_555
H68 C78 1_555 1_555
C79 C68 1_555 1_555
H69 C79 1_555 1_555
C80 C59 1_555 1_555
H70 C80 1_555 1_555
C81 C74 1_555 1_555
H71 C81 1_555 1_555
C82 C63 1_555 1_555
H72 C82 1_555 1_555
C83 C66 1_555 1_555
H73 C83 1_555 1_555
C84 C56 1_555 1_555
H74 C84 1_555 1_555
C85 C58 1_555 1_555
H75 C85 1_555 1_555
C86 C70 1_555 1_555
H76 C86 1_555 1_555
C87 C85 1_555 1_555
H77 C87 1_555 1_555
C88 C83 1_555 1_555
H78 C88 1_555 1_555
C89 C84 1_555 1_555
H79 C89 1_555 1_555
C90 C75 1_555 1_555
H80 C90 1_555 1_555
C91 C88 1_555 1_555
H81 C91 1_555 1_555
P3 N8 1_555 1_555
P4 N8 1_555 1_555
C92 P3 1_555 1_555
C93 H82 1_555 1_555
C94 C92 1_555 1_555
H83 C94 1_555 1_555
C95 H84 1_555 1_555
C96 H85 1_555 1_555
C97 C94 1_555 1_555
H86 C97 1_555 1_555
C98 H87 1_555 1_555
C99 C93 1_555 1_555
H88 C99 1_555 1_555
C100 C97 1_555 1_555
H89 C100 1_555 1_555
C101 H90 1_555 1_555
C102 P3 1_555 1_555
C103 C102 1_555 1_555
H91 C103 1_555 1_555
C104 P3 1_555 1_555
C105 H92 1_555 1_555
C106 P4 1_555 1_555
C107 C103 1_555 1_555
H93 C107 1_555 1_555
C108 C100 1_555 1_555
H94 C108 1_555 1_555
C109 P4 1_555 1_555
C110 C106 1_555 1_555
H95 C110 1_555 1_555
C111 C95 1_555 1_555
H96 C111 1_555 1_555
C112 P4 1_555 1_555
C113 C96 1_555 1_555
H97 C113 1_555 1_555
C114 C101 1_555 1_555
H98 C114 1_555 1_555
C115 C98 1_555 1_555
H99 C115 1_555 1_555
C116 C93 1_555 1_555
H100 C116 1_555 1_555
C117 C102 1_555 1_555
H101 C117 1_555 1_555
C118 C95 1_555 1_555
H102 C118 1_555 1_555
C119 C105 1_555 1_555
H103 C119 1_555 1_555
C120 C92 1_555 1_555
H104 C120 1_555 1_555
C121 C110 1_555 1_555
H105 C121 1_555 1_555
C122 C104 1_555 1_555
H106 C122 1_555 1_555
C123 C104 1_555 1_555
H107 C123 1_555 1_555
C124 C122 1_555 1_555
H108 C124 1_555 1_555
C125 C124 1_555 1_555
H109 C125 1_555 1_555
C126 C98 1_555 1_555
H110 C126 1_555 1_555
C127 C123 1_555 1_555
H111 C127 1_555 1_555
P5 N9 1_555 1_555
P6 N9 1_555 1_555
C128 H112 1_555 1_555
C129 H113 1_555 1_555
C130 H114 1_555 1_555
C131 P6 1_555 1_555
C132 H115 1_555 1_555
C133 H116 1_555 1_555
C134 C128 1_555 1_555
H117 C134 1_555 1_555
C135 H118 1_555 1_555
C136 C129 1_555 1_555
H119 C136 1_555 1_555
C137 P6 1_555 1_555
C138 H120 1_555 1_555
C139 C134 1_555 1_555
H121 C139 1_555 1_555
C140 C128 1_555 1_555
H122 C140 1_555 1_555
C141 C135 1_555 1_555
H123 C141 1_555 1_555
C142 P6 1_555 1_555
C143 H124 1_555 1_555
C144 P5 1_555 1_555
C145 C131 1_555 1_555
H125 C145 1_555 1_555
C146 C131 1_555 1_555
H126 C146 1_555 1_555
C147 H127 1_555 1_555
C148 C132 1_555 1_555
H128 C148 1_555 1_555
C149 C130 1_555 1_555
H129 C149 1_555 1_555
C150 C137 1_555 1_555
H130 C150 1_555 1_555
C151 C133 1_555 1_555
H131 C151 1_555 1_555
C152 P5 1_555 1_555
C153 C146 1_555 1_555
H132 C153 1_555 1_555
C154 H133 1_555 1_555
C155 C152 1_555 1_555
H134 C155 1_555 1_555
C156 C153 1_555 1_555
H135 C156 1_555 1_555
C157 C155 1_555 1_555
H136 C157 1_555 1_555
C158 C154 1_555 1_555
H137 C158 1_555 1_555
C159 C147 1_555 1_555
H138 C159 1_555 1_555
C160 C152 1_555 1_555
H139 C160 1_555 1_555
C161 C145 1_555 1_555
H140 C161 1_555 1_555
C162 C135 1_555 1_555
H141 C162 1_555 1_555
C163 P5 1_555 1_555
O15 C164 1_555 1_555
C164 H142 1_555 1_555
H143 C164 1_555 1_555
C165 C164 1_555 1_555
H144 C165 1_555 1_555
H145 C165 1_555 1_555
H146 C165 1_555 1_555
C166 O15 1_555 1_555
H147 C166 1_555 1_555
H148 C166 1_555 1_555
C167 C166 1_555 1_555
H149 C167 1_555 1_555
H150 C167 1_555 1_555
H151 C167 1_555 1_555
O16 C168 1_555 1_555
C168 H152 1_555 1_555
H153 C168 1_555 1_555
C169 O16 1_555 1_555
H154 C169 1_555 1_555
H155 C169 1_555 1_555
C170 C168 1_555 1_555
H156 C170 1_555 1_555
H157 C170 1_555 1_555
H158 C170 1_555 1_555
C171 C169 1_555 1_555
H159 C171 1_555 1_555
H160 C171 1_555 1_555
H161 C171 1_555 1_555
Na1_2 O5 1_555 1_555
O5_2 Na1 1_555 1_555
C2 C51 1_555 1_555
C5 C9 1_555 1_555
C5 C26 1_555 1_555
C8 C37 1_555 1_555
C10 C11 1_555 1_555
C10 C34 1_555 1_555
C12 C33 1_555 1_555
N5 C30 1_555 1_555
C13 C14 1_555 1_555
C15 C29 1_555 1_555
C16 C44 1_555 1_555
C22 C33 1_555 1_555
C23 C52 1_555 1_555
C24 C34 1_555 1_555
C25 C46 1_555 1_555
C26 C29 1_555 1_555
C27 C46 1_555 1_555
C28 C31 1_555 1_555
C32 C45 1_555 1_555
C35 C40 1_555 1_555
C36 C51 1_555 1_555
C38 C39 1_555 1_555
C42 C47 1_555 1_555
C48 C53 1_555 1_555
P2 N7 1_555 1_555
C59 C71 1_555 1_555
C60 C73 1_555 1_555
C61 C80 1_555 1_555
C63 C64 1_555 1_555
C71 C77 1_555 1_555
C72 C86 1_555 1_555
C73 C79 1_555 1_555
C76 C78 1_555 1_555
C81 C82 1_555 1_555
C87 C89 1_555 1_555
C90 C91 1_555 1_555
C96 C109 1_555 1_555
C99 C113 1_555 1_555
C101 C112 1_555 1_555
C105 C117 1_555 1_555
C106 C115 1_555 1_555
C107 C119 1_555 1_555
C108 C120 1_555 1_555
C109 C116 1_555 1_555
C111 C112 1_555 1_555
C114 C118 1_555 1_555
C121 C126 1_555 1_555
C125 C127 1_555 1_555
C129 C142 1_555 1_555
C130 C144 1_555 1_555
C132 C149 1_555 1_555
C133 C136 1_555 1_555
C137 C140 1_555 1_555
C138 C142 1_555 1_555
C138 C151 1_555 1_555
C139 C150 1_555 1_555
C141 C163 1_555 1_555
C143 C144 1_555 1_555
C143 C148 1_555 1_555
C147 C163 1_555 1_555
C154 C160 1_555 1_555
C156 C161 1_555 1_555
C157 C158 1_555 1_555
C159 C162 1_555 1_555

#END
