
#######################################################################
#
#                 Cambridge Crystallographic Data Centre
#                                CCDC 
#
#######################################################################
#
# If this CIF has been generated from an entry in the Cambridge 
# Structural Database, then it will include bibliographic, chemical, 
# crystal, experimental, refinement or atomic coordinate data resulting 
# from the CCDC's data processing and validation procedures.
#
#######################################################################

data_LAHCAZ
_symmetry_cell_setting           monoclinic
_symmetry_space_group_name_H-M   'P 2/c'
_symmetry_Int_Tables_number      13
_space_group_name_Hall           '-P 2yc'
loop_
_symmetry_equiv_pos_site_id
_symmetry_equiv_pos_as_xyz
1 x,y,z
2 x,-y,1/2+z
3 -x,-y,-z
4 -x,y,1/2-z
_cell_length_a                   11.7318(13)
_cell_length_b                   5.2736(5)
_cell_length_c                   16.5263(18)
_cell_angle_alpha                90
_cell_angle_beta                 96.428(5)
_cell_angle_gamma                90
_cell_volume                     1016.03
loop_
_atom_site_label
_atom_site_type_symbol
_atom_site_fract_x
_atom_site_fract_y
_atom_site_fract_z
Zn1 Zn 0.5000 1.31342(4) 0.2500
O1 O 0.52569(11) 1.5854(2) 0.33423(7)
O2 O 0.61886(13) 1.6568(3) 0.45304(9)
O3 O 0.64383(12) 1.3032(2) 0.39008(8)
N1 N 0.59868(12) 1.5150(3) 0.39470(8)
N2 N 0.61805(11) 1.0907(2) 0.20410(8)
C1 C 0.68718(14) 0.9352(3) 0.25215(9)
H1 H 0.6883 0.9492 0.3095
C2 C 0.75624(15) 0.7567(3) 0.22115(10)
H2 H 0.8041 0.6501 0.2567
C3 C 0.61803(14) 1.0710(3) 0.12286(9)
H3 H 0.5701 1.1814 0.0888
C4 C 0.68471(14) 0.8971(3) 0.08698(9)
H4 H 0.6826 0.8887 0.0294
C5 C 0.75514(13) 0.7341(3) 0.13670(10)
C6 C 0.82471(14) 0.5464(3) 0.10278(9)
C7 C 0.87908(14) 0.3873(3) 0.07418(10)
C8 C 0.94042(13) 0.1940(3) 0.03734(10)
C9 C 1.01319(14) 0.0260(3) 0.08303(9)
F1 F 1.02598(11) 0.0458(3) 0.16437(6)
C10 C 0.92931(14) 0.1629(3) -0.04713(10)
F2 F 0.86319(11) 0.3237(2) -0.09386(7)
C10B C 1.07069(14) -0.1629(3) 0.04713(10)
C8B C 1.05958(13) -0.1940(3) -0.03734(10)
C7B C 1.12092(14) -0.3873(3) -0.07418(10)
C6B C 1.17529(14) -0.5464(3) -0.10278(9)
C5B C 1.24486(13) -0.7341(3) -0.13670(10)
C2B C 1.24376(15) -0.7567(3) -0.22115(10)
C1B C 1.31282(14) -0.9352(3) -0.25215(9)
N2B N 1.38195(11) -1.0907(2) -0.20410(8)
C3B C 1.38197(14) -1.0710(3) -0.12286(9)
H3B H 1.4299 -1.1814 -0.0888
C4B C 1.31529(14) -0.8971(3) -0.08698(9)
H4B H 1.3174 -0.8887 -0.0294
H1B H 1.3117 -0.9492 -0.3095
H2B H 1.1959 -0.6501 -0.2567
C9B C 0.98681(14) -0.0260(3) -0.08303(9)
F1B F 0.97402(11) -0.0458(3) -0.16437(6)
F2B F 1.13681(11) -0.3237(2) 0.09386(7)
O1C O 0.47431(11) 1.5854(2) 0.16577(7)
O2C O 0.38114(13) 1.6568(3) 0.04696(9)
O3C O 0.35617(12) 1.3032(2) 0.10992(8)
N1C N 0.40132(12) 1.5150(3) 0.10530(8)
N2C N 0.38195(11) 1.0907(2) 0.29590(8)
Zn1A Zn 1.5000 -1.31342(4) -0.2500
loop_
_geom_bond_atom_site_label_1
_geom_bond_atom_site_label_2
_geom_bond_site_symmetry_1
_geom_bond_site_symmetry_2
Zn1 O1 1_555 1_555
O1 N1 1_555 1_555
O2 N1 1_555 1_555
O3 N1 1_555 1_555
N2 Zn1 1_555 1_555
C1 N2 1_555 1_555
H1 C1 1_555 1_555
C2 C1 1_555 1_555
H2 C2 1_555 1_555
C3 N2 1_555 1_555
H3 C3 1_555 1_555
C4 C3 1_555 1_555
H4 C4 1_555 1_555
C5 C2 1_555 1_555
C6 C5 1_555 1_555
C7 C6 1_555 1_555
C8 C7 1_555 1_555
C9 C8 1_555 1_555
F1 C9 1_555 1_555
C10 C8 1_555 1_555
F2 C10 1_555 1_555
C10B C9 1_555 1_555
C8B C10B 1_555 1_555
C7B C8B 1_555 1_555
C6B C7B 1_555 1_555
C5B C6B 1_555 1_555
C2B C5B 1_555 1_555
C1B C2B 1_555 1_555
N2B C1B 1_555 1_555
C3B N2B 1_555 1_555
H3B C3B 1_555 1_555
C4B C5B 1_555 1_555
H4B C4B 1_555 1_555
H1B C1B 1_555 1_555
H2B C2B 1_555 1_555
C9B C10 1_555 1_555
F1B C9B 1_555 1_555
F2B C10B 1_555 1_555
O1C Zn1 1_555 1_555
O2C N1C 1_555 1_555
O3C N1C 1_555 1_555
N1C O1C 1_555 1_555
N2C Zn1 1_555 1_555
Zn1A N2B 1_555 1_555
C4 C5 1_555 1_555
C8B C9B 1_555 1_555
C3B C4B 1_555 1_555

#END
