
#######################################################################
#
#                 Cambridge Crystallographic Data Centre
#                                CCDC 
#
#######################################################################
#
# If this CIF has been generated from an entry in the Cambridge 
# Structural Database, then it will include bibliographic, chemical, 
# crystal, experimental, refinement or atomic coordinate data resulting 
# from the CCDC's data processing and validation procedures.
#
#######################################################################

data_LAHNOX01
_symmetry_cell_setting           monoclinic
_symmetry_space_group_name_H-M   'C 2'
_symmetry_Int_Tables_number      5
_space_group_name_Hall           'C 2y'
loop_
_symmetry_equiv_pos_site_id
_symmetry_equiv_pos_as_xyz
1 x,y,z
2 -x,y,-z
3 1/2+x,1/2+y,z
4 1/2-x,1/2+y,-z
_cell_length_a                   26.705(4)
_cell_length_b                   7.3190(10)
_cell_length_c                   12.788(2)
_cell_angle_alpha                90
_cell_angle_beta                 92.090(10)
_cell_angle_gamma                90
_cell_volume                     2497.8
loop_
_atom_site_label
_atom_site_type_symbol
_atom_site_fract_x
_atom_site_fract_y
_atom_site_fract_z
Cu1 Cu 0.730160(10) 0.78016(5) 0.16343(2)
O1 O 0.76991(7) 0.7057(3) 0.04550(14)
O2 O 0.76499(7) 0.6105(3) -0.11946(14)
O3 O 0.78664(6) 0.7939(4) 0.26195(12)
O4 O 0.81074(7) 0.9030(4) 0.41608(16)
N1 N 0.67308(7) 0.7449(3) 0.06299(15)
H1 H 0.6490 0.6806 0.0938
H2 H 0.6602 0.8544 0.0445
N2 N 0.53347(9) 0.4893(3) -0.12327(19)
H3 H 0.5158 0.5874 -0.1272
N3 N 0.46133(8) 0.3253(4) -0.15135(18)
H4 H 0.4448 0.4250 -0.1611
H5 H 0.4461 0.2218 -0.1556
N4 N 0.53512(10) 0.1764(4) -0.1144(2)
H6 H 0.5668 0.1778 -0.1000
H7 H 0.5194 0.0740 -0.1190
N5 N 0.69069(7) 0.8424(3) 0.28659(15)
H8 H 0.6649 0.9157 0.2673
H9 H 0.6782 0.7401 0.3148
N6 N 0.58473(8) 0.9738(3) 0.61709(18)
H10 H 0.5670 0.8765 0.6233
N7 N 0.51153(9) 1.1320(4) 0.62661(19)
H11 H 0.4957 1.2338 0.6313
H12 H 0.4953 1.0305 0.6255
N8 N 0.58534(8) 1.2881(5) 0.62295(18)
H13 H 0.6175 1.2896 0.6215
H14 H 0.5689 1.3890 0.6256
C1 C 0.74519(9) 0.6561(4) -0.03791(19)
C2 C 0.68853(9) 0.6474(4) -0.03142(18)
H15 H 0.6794 0.5186 -0.0230
C3 C 0.66154(9) 0.7162(4) -0.13121(19)
H16 H 0.6731 0.6468 -0.1903
H17 H 0.6704 0.8431 -0.1420
C4 C 0.60444(10) 0.7003(4) -0.1286(2)
H18 H 0.5924 0.7781 -0.0734
H19 H 0.5897 0.7430 -0.1946
C5 C 0.58788(10) 0.5052(4) -0.1097(3)
H20 H 0.6039 0.4244 -0.1585
H21 H 0.5982 0.4684 -0.0393
C6 C 0.51066(10) 0.3310(4) -0.12958(19)
C7 C 0.77813(9) 0.8736(4) 0.3478(2)
C8 C 0.72431(9) 0.9367(4) 0.36395(19)
H22 H 0.7229 1.0674 0.3476
C9 C 0.70771(9) 0.9145(4) 0.47680(19)
H23 H 0.7119 0.7878 0.4977
H24 H 0.7292 0.9882 0.5227
C10 C 0.65327(9) 0.9705(4) 0.4905(2)
H25 H 0.6488 1.0967 0.4689
H26 H 0.6316 0.8954 0.4457
C11 C 0.63813(10) 0.9501(4) 0.6030(2)
H27 H 0.6480 0.8296 0.6279
H28 H 0.6563 1.0393 0.6457
C12 C 0.56123(10) 1.1315(4) 0.62112(19)
Cu1C Cu 0.769840(10) 0.28016(5) -0.16343(2)
O2C O 0.73501(7) 1.1105(3) 0.11946(14)
O5 O 0.54165(7) 0.7781(4) 0.40221(16)
O6 O 0.54329(8) 0.4834(3) 0.39257(19)
O7 O 0.47365(8) 0.6283(3) 0.36656(18)
N9 N 0.51972(9) 0.6309(4) 0.38737(17)
O8 O 0.58857(8) 0.9772(3) 0.1959(2)
O9 O 0.58593(8) 0.6832(3) 0.1891(2)
O10 O 0.52047(9) 0.8397(3) 0.1456(2)
N10 N 0.56512(9) 0.8329(3) 0.1766(2)
O11 O 0.83789(14) 0.8666(5) -0.1759(2)
H29 H 0.8094(7) 0.816(4) -0.169(3)
H30 H 0.8439(16) 0.864(8) -0.2395(12)
O12 O 0.65048(9) 0.4935(4) 0.38307(17)
H31 H 0.6648(11) 0.489(6) 0.4415(15)
H32 H 0.6200(4) 0.500(7) 0.390(3)
O13 O 0.86896(8) 0.6200(3) 0.00783(19)
H33 H 0.8735(13) 0.673(6) -0.048(2)
H34 H 0.8411(7) 0.649(5) 0.029(2)
loop_
_geom_bond_atom_site_label_1
_geom_bond_atom_site_label_2
_geom_bond_site_symmetry_1
_geom_bond_site_symmetry_2
Cu1 O1 1_555 1_555
O1 C1 1_555 1_555
O2 C1 1_555 1_555
O3 Cu1 1_555 1_555
O4 C7 1_555 1_555
O5 N9 1_555 1_555
O6 N9 1_555 1_555
O7 N9 1_555 1_555
O8 N10 1_555 1_555
O9 N10 1_555 1_555
O10 N10 1_555 1_555
O11 H29 1_555 1_555
O12 H31 1_555 1_555
O13 H33 1_555 1_555
N1 Cu1 1_555 1_555
H1 N1 1_555 1_555
H2 N1 1_555 1_555
N2 H3 1_555 1_555
N3 H4 1_555 1_555
H5 N3 1_555 1_555
N4 H6 1_555 1_555
H7 N4 1_555 1_555
N5 Cu1 1_555 1_555
H8 N5 1_555 1_555
H9 N5 1_555 1_555
N6 H10 1_555 1_555
N7 H11 1_555 1_555
H12 N7 1_555 1_555
N8 H13 1_555 1_555
H14 N8 1_555 1_555
C1 C2 1_555 1_555
C2 N1 1_555 1_555
H15 C2 1_555 1_555
C3 C2 1_555 1_555
H16 C3 1_555 1_555
H17 C3 1_555 1_555
C4 C3 1_555 1_555
H18 C4 1_555 1_555
H19 C4 1_555 1_555
C5 N2 1_555 1_555
H20 C5 1_555 1_555
H21 C5 1_555 1_555
C6 N2 1_555 1_555
C7 O3 1_555 1_555
C8 N5 1_555 1_555
H22 C8 1_555 1_555
C9 C8 1_555 1_555
H23 C9 1_555 1_555
H24 C9 1_555 1_555
C10 C9 1_555 1_555
H25 C10 1_555 1_555
H26 C10 1_555 1_555
C11 N6 1_555 1_555
H27 C11 1_555 1_555
H28 C11 1_555 1_555
C12 N6 1_555 1_555
H30 O11 1_555 1_555
H32 O12 1_555 1_555
H34 O13 1_555 1_555
Cu1C O2 1_555 1_555
O2C Cu1 1_555 1_555
N3 C6 1_555 1_555
N4 C6 1_555 1_555
N7 C12 1_555 1_555
N8 C12 1_555 1_555
C4 C5 1_555 1_555
C7 C8 1_555 1_555
C10 C11 1_555 1_555

#END
