
#######################################################################
#
#                 Cambridge Crystallographic Data Centre
#                                CCDC 
#
#######################################################################
#
# If this CIF has been generated from an entry in the Cambridge 
# Structural Database, then it will include bibliographic, chemical, 
# crystal, experimental, refinement or atomic coordinate data resulting 
# from the CCDC's data processing and validation procedures.
#
#######################################################################

data_LAHPEQ
_symmetry_cell_setting           monoclinic
_symmetry_space_group_name_H-M   'P 21/c'
_symmetry_Int_Tables_number      14
_space_group_name_Hall           '-P 2ybc'
loop_
_symmetry_equiv_pos_site_id
_symmetry_equiv_pos_as_xyz
1 x,y,z
2 x,1/2-y,1/2+z
3 -x,-y,-z
4 -x,1/2+y,1/2-z
_cell_length_a                   9.697(3)
_cell_length_b                   19.146(6)
_cell_length_c                   18.031(6)
_cell_angle_alpha                90
_cell_angle_beta                 91.524(5)
_cell_angle_gamma                90
_cell_volume                     3346.43
loop_
_atom_site_label
_atom_site_type_symbol
_atom_site_fract_x
_atom_site_fract_y
_atom_site_fract_z
Er1 Er 0.05000(2) 0.281061(11) 0.108028(11)
O1 O 0.2179(4) 0.2584(2) 0.01765(19)
O2 O 0.3389(4) 0.2927(2) -0.0796(2)
O3 O -0.1394(4) 0.36119(19) 0.10349(19)
O4 O -0.2830(3) 0.43298(19) 0.0421(2)
O5 O -0.1072(4) 0.2165(2) 0.0318(2)
O6 O -0.2021(6) 0.1147(3) -0.0037(3)
O7 O 0.2534(4) 0.2413(2) 0.1748(2)
O8 O 0.3751(5) 0.1569(3) 0.2306(3)
O9 O -0.1092(4) 0.23173(19) 0.1920(2)
O10 O -0.1779(5) 0.2089(2) 0.3059(2)
O11 O 0.1940(4) 0.38165(18) 0.12487(19)
O12 O 0.3209(6) 0.4488(3) 0.1996(3)
N1 N 0.0287(4) 0.3525(2) -0.0060(2)
N2 N 0.0790(4) 0.1537(2) 0.1138(2)
N3 N 0.0590(4) 0.3283(2) 0.2350(2)
C1 C 0.2368(5) 0.2958(3) -0.0398(3)
C2 C 0.1246(5) 0.3478(3) -0.0576(3)
C3 C 0.1210(6) 0.3893(3) -0.1203(3)
H1 H 0.1885 0.3853 -0.1557
C4 C 0.0153(6) 0.4366(3) -0.1288(3)
H2 H 0.0114 0.4655 -0.1702
C5 C -0.0854(6) 0.4412(3) -0.0760(3)
H3 H -0.1581 0.4726 -0.0816
C6 C -0.0751(5) 0.3981(3) -0.0150(3)
C7 C -0.1751(5) 0.3978(3) 0.0482(3)
C8 C -0.1180(6) 0.1497(3) 0.0326(3)
C9 C -0.0142(6) 0.1118(3) 0.0813(3)
C10 C -0.0143(8) 0.0399(3) 0.0929(4)
H4 H -0.0802 0.0113 0.0700
C11 C 0.0885(8) 0.0122(3) 0.1405(4)
H5 H 0.0918 -0.0356 0.1497
C12 C 0.1832(7) 0.0552(3) 0.1731(4)
H6 H 0.2514 0.0372 0.2049
C13 C 0.1772(6) 0.1258(3) 0.1586(3)
C14 C 0.2772(6) 0.1778(3) 0.1916(3)
C15 C -0.1078(5) 0.2412(3) 0.2611(3)
C16 C -0.0087(5) 0.2960(3) 0.2890(3)
C17 C 0.0182(6) 0.3106(3) 0.3632(3)
H7 H -0.0305 0.2879 0.3999
C18 C 0.1186(6) 0.3594(3) 0.3822(3)
H8 H 0.1387 0.3696 0.4317
C19 C 0.1886(6) 0.3929(3) 0.3265(3)
H9 H 0.2555 0.4264 0.3377
C20 C 0.1562(5) 0.3751(3) 0.2536(3)
C21 C 0.2311(6) 0.4042(3) 0.1883(3)
Na1 Na 0.5274(2) 0.36556(12) -0.02971(12)
Na2 Na -0.4631(2) 0.44887(12) 0.13325(12)
Na3 Na 0.5046(4) 0.19734(19) -0.0957(2)
O13 O 0.3752(4) 0.44471(18) 0.0250(2)
H10 H 0.3458 0.4815 0.0035
H11 H 0.3113 0.4252 0.0489
O14 O 0.4919(5) 0.3237(2) 0.0966(2)
H12 H 0.4130 0.3132 0.1127
H13 H 0.5463 0.2889 0.0995
O15 O 0.4982(5) 0.4238(2) -0.1490(2)
H14 H 0.4802 0.3852 -0.1714
H15 H 0.5116 0.4565 -0.1808
O16 O -0.3028(6) 0.4097(3) 0.2217(3)
H16 H -0.2354 0.3872 0.2043
H17 H -0.2845 0.4124 0.2715
O17 O 0.6863(4) 0.2781(2) -0.0608(2)
H18 H 0.7311 0.2867 -0.0996
H19 H 0.7356 0.2553 -0.0296
O18 O 0.4279(6) 0.1566(3) 0.0186(3)
H20 H 0.4445 0.1626 0.0654
H21 H 0.3705 0.1236 0.0110
O19 O 0.4834(9) 0.2094(4) -0.2153(4)
H22 H 0.5319 0.2458 -0.2216
H23 H 0.4459 0.1962 -0.2561
O20 O 0.6286(8) 0.0982(4) -0.1262(3)
H24 H 0.5604 0.0659 -0.1323
H25 H 0.7062 0.0815 -0.1382
Na1_2 Na -0.4726(2) 0.36556(12) -0.02971(12)
Na2_2 Na 0.5369(2) 0.44887(12) 0.13325(12)
O4_2 O 0.7170(3) 0.43298(19) 0.0421(2)
O12_2 O -0.6791(6) 0.4488(3) 0.1996(3)
O13_2 O -0.6248(4) 0.44471(18) 0.0250(2)
O14_2 O -0.5081(5) 0.3237(2) 0.0966(2)
O15B O -0.4982(5) 0.5762(2) 0.1490(2)
Na2B Na 0.4631(2) 0.55113(12) -0.13325(12)
H10_2 H -0.6542 0.4815 0.0035
H11_2 H -0.6887 0.4252 0.0489
H12_2 H -0.5870 0.3132 0.1127
H13_2 H -0.4537 0.2889 0.0995
H14B H -0.4802 0.6148 0.1714
H15B H -0.5116 0.5435 0.1808
O21 O 0.3800(5) -0.2007(3) -0.1416(3)
O22 O 0.3160(9) 0.0235(5) 0.9818(5)
O23 O 0.7077(7) 0.4160(3) 0.7477(4)
O24 O 0.4742(15) -0.0254(8) -0.1249(8)
loop_
_geom_bond_atom_site_label_1
_geom_bond_atom_site_label_2
_geom_bond_site_symmetry_1
_geom_bond_site_symmetry_2
Er1 O1 1_555 1_555
O1 C1 1_555 1_555
O2 C1 1_555 1_555
O3 Er1 1_555 1_555
O4 C7 1_555 1_555
O5 Er1 1_555 1_555
O6 C8 1_555 1_555
O7 Er1 1_555 1_555
O8 C14 1_555 1_555
O9 Er1 1_555 1_555
O10 C15 1_555 1_555
O11 Er1 1_555 1_555
O12 C21 1_555 1_555
N1 Er1 1_555 1_555
N2 Er1 1_555 1_555
N3 Er1 1_555 1_555
C1 C2 1_555 1_555
C2 N1 1_555 1_555
C3 C2 1_555 1_555
H1 C3 1_555 1_555
C4 C3 1_555 1_555
H2 C4 1_555 1_555
C5 C4 1_555 1_555
H3 C5 1_555 1_555
C6 N1 1_555 1_555
C7 O3 1_555 1_555
C8 O5 1_555 1_555
C9 N2 1_555 1_555
C10 C9 1_555 1_555
H4 C10 1_555 1_555
C11 C10 1_555 1_555
H5 C11 1_555 1_555
C12 C11 1_555 1_555
H6 C12 1_555 1_555
C13 N2 1_555 1_555
C14 O7 1_555 1_555
C15 O9 1_555 1_555
C16 N3 1_555 1_555
C17 C16 1_555 1_555
H7 C17 1_555 1_555
C18 C17 1_555 1_555
H8 C18 1_555 1_555
C19 C18 1_555 1_555
H9 C19 1_555 1_555
C20 N3 1_555 1_555
C21 O11 1_555 1_555
Na1 O2 1_555 1_555
Na2 O4 1_555 1_555
Na3 O2 1_555 1_555
O13 Na1 1_555 1_555
H10 O13 1_555 1_555
H11 O13 1_555 1_555
O14 Na1 1_555 1_555
H12 O14 1_555 1_555
H13 O14 1_555 1_555
O15 Na1 1_555 1_555
H14 O15 1_555 1_555
H15 O15 1_555 1_555
O16 Na2 1_555 1_555
H16 O16 1_555 1_555
H17 O16 1_555 1_555
O17 Na1 1_555 1_555
H18 O17 1_555 1_555
H19 O17 1_555 1_555
O18 Na3 1_555 1_555
H20 O18 1_555 1_555
H21 O18 1_555 1_555
O19 Na3 1_555 1_555
H22 O19 1_555 1_555
H23 O19 1_555 1_555
O20 Na3 1_555 1_555
H24 O20 1_555 1_555
H25 O20 1_555 1_555
Na1_2 O4 1_555 1_555
Na2_2 O12 1_555 1_555
O4_2 Na1 1_555 1_555
O12_2 Na2 1_555 1_555
O13_2 Na2 1_555 1_555
O14_2 Na2 1_555 1_555
O15B Na2 1_555 1_555
Na2B O15 1_555 1_555
H10_2 O13_2 1_555 1_555
H11_2 O13_2 1_555 1_555
H12_2 O14_2 1_555 1_555
H13_2 O14_2 1_555 1_555
H14B O15B 1_555 1_555
H15B O15B 1_555 1_555
C5 C6 1_555 1_555
C6 C7 1_555 1_555
C8 C9 1_555 1_555
C12 C13 1_555 1_555
C13 C14 1_555 1_555
C15 C16 1_555 1_555
C19 C20 1_555 1_555
C20 C21 1_555 1_555
Na3 O17 1_555 1_555
O13 Na2_2 1_555 1_555
O14 Na2_2 1_555 1_555
Na1_2 O13_2 1_555 1_555
Na1_2 O14_2 1_555 1_555
Na2_2 O4_2 1_555 1_555

#END
