
#######################################################################
#
#                 Cambridge Crystallographic Data Centre
#                                CCDC 
#
#######################################################################
#
# If this CIF has been generated from an entry in the Cambridge 
# Structural Database, then it will include bibliographic, chemical, 
# crystal, experimental, refinement or atomic coordinate data resulting 
# from the CCDC's data processing and validation procedures.
#
#######################################################################

data_LAHSOD
_symmetry_cell_setting           monoclinic
_symmetry_space_group_name_H-M   'P 21/c'
_symmetry_Int_Tables_number      14
_space_group_name_Hall           '-P 2ybc'
loop_
_symmetry_equiv_pos_site_id
_symmetry_equiv_pos_as_xyz
1 x,y,z
2 -x,1/2+y,1/2-z
3 -x,-y,-z
4 x,1/2-y,1/2+z
_cell_length_a                   13.902(2)
_cell_length_b                   13.345(2)
_cell_length_c                   15.007(2)
_cell_angle_alpha                90
_cell_angle_beta                 112.978(3)
_cell_angle_gamma                90
_cell_volume                     2563.22
loop_
_atom_site_label
_atom_site_type_symbol
_atom_site_fract_x
_atom_site_fract_y
_atom_site_fract_z
Cu1 Cu -0.94014(3) 0.30197(3) -0.13631(3)
Fe1 Fe -0.68253(3) 0.27294(4) -0.29597(3)
B1 B -0.4445(3) 0.2347(3) -0.2108(3)
H1 H -0.362(2) 0.221(2) -0.177(2)
N1 N -0.9483(2) 0.1566(2) -0.1053(2)
N2 N -1.0673(2) 0.3162(2) -0.10400(19)
N3 N -0.9812(2) 0.4366(2) -0.1982(2)
N4 N -0.57528(18) 0.3592(2) -0.20310(17)
N5 N -0.47297(19) 0.3323(2) -0.17279(17)
N6 N -0.50472(19) 0.1491(2) -0.18677(18)
N7 N -0.61051(19) 0.1556(2) -0.21887(18)
N8 N -0.48745(19) 0.2431(2) -0.32087(18)
N9 N -0.5915(2) 0.2624(2) -0.36832(18)
N10 N -0.8294(2) 0.2860(2) -0.1863(2)
N11 N -0.7880(2) 0.4563(2) -0.4189(2)
N12 N -0.8438(2) 0.3431(2) 0.0343(2)
C1 C -0.4728(3) 0.0633(3) -0.1373(2)
H2 H -0.4032 0.0411 -0.1082
C2 C -0.5589(3) 0.0134(3) -0.1361(3)
H3 H -0.5602 -0.0486 -0.1067
C3 C -0.6427(3) 0.0734(3) -0.1870(2)
H4 H -0.7126 0.0589 -0.1980
C4 C -0.4421(3) 0.2363(3) -0.3846(2)
H5 H -0.3710 0.2231 -0.3695
C5 C -0.5165(3) 0.2519(3) -0.4754(2)
H6 H -0.5071 0.2518 -0.5341
C6 C -0.6085(3) 0.2677(3) -0.4627(2)
H7 H -0.6736 0.2803 -0.5128
C7 C -0.4141(3) 0.4054(3) -0.1155(2)
H8 H -0.3408 0.4052 -0.0854
C8 C -0.4770(3) 0.4794(3) -0.1080(2)
H9 H -0.4568 0.5393 -0.0727
C9 C -0.5774(3) 0.4480(3) -0.1634(2)
H10 H -0.6384 0.4841 -0.1719
C10 C -0.7746(2) 0.2811(2) -0.2283(2)
C11 C -1.0627(3) 0.4796(3) -0.1675(3)
H11 H -1.1020 0.5321 -0.2128
H12 H -1.0300 0.5093 -0.1028
C12 C -1.1346(3) 0.3959(3) -0.1666(3)
H13 H -1.1852 0.4193 -0.1406
H14 H -1.1729 0.3705 -0.2323
C13 C -1.1151(3) 0.2175(3) -0.1082(3)
H15 H -1.1554 0.1982 -0.1756
H16 H -1.1622 0.2187 -0.0737
C14 C -1.0265(3) 0.1442(3) -0.0606(3)
H17 H -0.9937 0.1573 0.0091
H18 H -1.0534 0.0754 -0.0701
C15 C -0.7860(2) 0.3048(3) 0.1022(2)
C16 C -0.7503(2) 0.3887(3) -0.3705(2)
C15C C -0.7860(2) 0.1952(3) -0.3978(2)
Fe1C Fe -0.68253(3) 0.22706(4) 0.20403(3)
O1 O -1.0623(2) 0.2107(3) -0.3254(2)
O2 O -1.1470(2) 0.1098(2) -0.45970(18)
O3 O -1.1944(3) 0.1027(3) -0.3271(2)
O4 O -1.2350(2) 0.2440(2) -0.4273(2)
Cl1 Cl -1.15923(6) 0.16699(7) -0.38509(6)
O5 O -0.1479(3) 0.0561(3) 0.1011(2)
H19 H -0.163(6) 0.032(6) 0.041(3)
H20 H -0.191(3) 0.108(3) 0.093(4)
loop_
_geom_bond_atom_site_label_1
_geom_bond_atom_site_label_2
_geom_bond_site_symmetry_1
_geom_bond_site_symmetry_2
Cu1 N1 1_555 1_555
Fe1 N4 1_555 1_555
B1 H1 1_555 1_555
N1 C14 1_555 1_555
N2 Cu1 1_555 1_555
N3 Cu1 1_555 1_555
N4 N5 1_555 1_555
N5 B1 1_555 1_555
N6 B1 1_555 1_555
N7 Fe1 1_555 1_555
N8 B1 1_555 1_555
N9 Fe1 1_555 1_555
N10 Cu1 1_555 1_555
N11 C16 1_555 1_555
N12 Cu1 1_555 1_555
C1 N6 1_555 1_555
H2 C1 1_555 1_555
C2 C1 1_555 1_555
H3 C2 1_555 1_555
C3 N7 1_555 1_555
H4 C3 1_555 1_555
C4 N8 1_555 1_555
H5 C4 1_555 1_555
C5 C4 1_555 1_555
H6 C5 1_555 1_555
C6 N9 1_555 1_555
H7 C6 1_555 1_555
C7 N5 1_555 1_555
H8 C7 1_555 1_555
C8 C7 1_555 1_555
H9 C8 1_555 1_555
C9 N4 1_555 1_555
H10 C9 1_555 1_555
C10 Fe1 1_555 1_555
C11 N3 1_555 1_555
H11 C11 1_555 1_555
H12 C11 1_555 1_555
C12 N2 1_555 1_555
H13 C12 1_555 1_555
H14 C12 1_555 1_555
C13 N2 1_555 1_555
H15 C13 1_555 1_555
H16 C13 1_555 1_555
C14 C13 1_555 1_555
H17 C14 1_555 1_555
H18 C14 1_555 1_555
C15 N12 1_555 1_555
C16 Fe1 1_555 1_555
O1 Cl1 1_555 1_555
O2 Cl1 1_555 1_555
O3 Cl1 1_555 1_555
O4 Cl1 1_555 1_555
O5 H19 1_555 1_555
H20 O5 1_555 1_555
C15C Fe1 1_555 1_555
Fe1C C15 1_555 1_555
N6 N7 1_555 1_555
N8 N9 1_555 1_555
N10 C10 1_555 1_555
C2 C3 1_555 1_555
C5 C6 1_555 1_555
C8 C9 1_555 1_555
C11 C12 1_555 1_555

#END
