
#######################################################################
#
#                 Cambridge Crystallographic Data Centre
#                                CCDC 
#
#######################################################################
#
# If this CIF has been generated from an entry in the Cambridge 
# Structural Database, then it will include bibliographic, chemical, 
# crystal, experimental, refinement or atomic coordinate data resulting 
# from the CCDC's data processing and validation procedures.
#
#######################################################################

data_LAHTIY
_symmetry_cell_setting           monoclinic
_symmetry_space_group_name_H-M   'C 2/c'
_symmetry_Int_Tables_number      15
_space_group_name_Hall           '-C 2yn'
loop_
_symmetry_equiv_pos_site_id
_symmetry_equiv_pos_as_xyz
1 x,y,z
2 1/2+x,1/2+y,z
3 -x,y,1/2-z
4 1/2-x,1/2+y,1/2-z
5 -x,-y,-z
6 1/2-x,1/2-y,-z
7 x,-y,1/2+z
8 1/2+x,1/2-y,1/2+z
_cell_length_a                   25.9281(5)
_cell_length_b                   9.76310(10)
_cell_length_c                   17.3671(5)
_cell_angle_alpha                90
_cell_angle_beta                 103.290(2)
_cell_angle_gamma                90
_cell_volume                     4278.55
loop_
_atom_site_label
_atom_site_type_symbol
_atom_site_fract_x
_atom_site_fract_y
_atom_site_fract_z
Co1 Co 0.27601(5) -0.70081(13) 0.15549(7)
Co2 Co 0.2500 -0.2500 0.0000
P1 P 0.22290(10) -0.4797(3) 0.23472(14)
P2 P 0.22116(9) -0.5681(3) -0.00644(14)
N1 N 0.1840(3) -0.6670(8) 0.1179(4)
N2 N 0.3613(3) -0.6923(10) 0.1873(6)
C1 C 0.0668(4) -0.8260(13) 0.0536(7)
H1 H 0.0852 -0.8771 0.0235
C2 C 0.0120(4) -0.8116(15) 0.0281(7)
H2 H -0.0055 -0.8533 -0.0187
C3 C -0.0166(4) -0.7363(13) 0.0713(7)
C4 C 0.0108(5) -0.6775(14) 0.1425(7)
H3 H -0.0079 -0.6270 0.1725
C5 C 0.0648(4) -0.6926(13) 0.1692(6)
H4 H 0.0819 -0.6549 0.2176
C6 C 0.0943(4) -0.7651(11) 0.1234(6)
C7 C 0.1543(4) -0.7737(11) 0.1501(6)
H5 H 0.1640 -0.7685 0.2073
H6 H 0.1655 -0.8627 0.1350
C8 C 0.1727(4) -0.6702(10) 0.0300(5)
H7 H 0.1374 -0.6346 0.0085
H8 H 0.1738 -0.7641 0.0123
C9 C 0.1742(3) -0.5283(9) 0.1451(5)
H9 H 0.1390 -0.5249 0.1553
H10 H 0.1755 -0.4629 0.1035
C10 C -0.0744(5) -0.7185(15) 0.0401(8)
C11 C 0.3892(5) -0.8007(16) 0.1785(10)
H11 H 0.3717 -0.8790 0.1556
C12 C 0.4450(6) -0.8020(17) 0.2027(12)
H12 H 0.4643 -0.8798 0.1962
C13 C 0.4705(4) -0.6833(15) 0.2366(8)
C14 C 0.4418(6) -0.578(2) 0.2406(19)
H13 H 0.4575 -0.4951 0.2598
C15 C 0.3872(6) -0.588(2) 0.2162(17)
H14 H 0.3678 -0.5095 0.2215
O1 O -0.0973(3) -0.7792(14) -0.0185(7)
O2 O -0.0975(3) -0.6373(9) 0.0803(5)
H15 H -0.1284 -0.6263 0.0568
O3 O 0.2049(3) -0.5591(7) 0.3034(4)
H16 H 0.2091 -0.5099 0.3426
O4 O 0.2755(3) -0.5330(7) 0.2249(4)
O5 O 0.2216(3) -0.3272(7) 0.2472(4)
O6 O 0.2233(3) -0.6228(7) -0.0879(4)
O7 O 0.2018(2) -0.4189(6) -0.0152(4)
O8 O 0.2728(3) -0.5823(7) 0.0562(4)
O9 O 0.2027(3) -0.1660(8) 0.0754(5)
O10 O 0.3044(3) -0.3256(8) 0.1015(4)
C13B C 0.5295(4) -0.6833(15) 0.2634(8)
C12B C 0.5550(6) -0.8020(17) 0.2973(12)
C11B C 0.6108(5) -0.8007(16) 0.3215(10)
N2B N 0.6387(3) -0.6923(10) 0.3127(6)
C15B C 0.6128(6) -0.588(2) 0.2838(17)
C14B C 0.5582(6) -0.578(2) 0.2594(19)
H13B H 0.5425 -0.4951 0.2402
H14B H 0.6322 -0.5095 0.2785
H11B H 0.6283 -0.8790 0.3444
H12B H 0.5357 -0.8798 0.3038
P1E P 0.27710(10) -0.0203(3) -0.23472(14)
P2E P 0.27884(9) 0.0681(3) 0.00644(14)
N1E N 0.3160(3) 0.1670(8) -0.1179(4)
C1E C 0.4332(4) 0.3260(13) -0.0536(7)
H1E H 0.4148 0.3771 -0.0235
C2E C 0.4880(4) 0.3116(15) -0.0281(7)
H2E H 0.5055 0.3533 0.0187
C3E C 0.5166(4) 0.2363(13) -0.0713(7)
C4E C 0.4892(5) 0.1775(14) -0.1425(7)
H3E H 0.5079 0.1270 -0.1725
C5E C 0.4352(4) 0.1926(13) -0.1692(6)
H4E H 0.4181 0.1549 -0.2176
C6E C 0.4057(4) 0.2651(11) -0.1234(6)
C7E C 0.3457(4) 0.2737(11) -0.1501(6)
H5E H 0.3360 0.2685 -0.2073
H6E H 0.3345 0.3627 -0.1350
C8E C 0.3273(4) 0.1702(10) -0.0300(5)
H7E H 0.3626 0.1346 -0.0085
H8E H 0.3262 0.2641 -0.0123
C9E C 0.3258(3) 0.0283(9) -0.1451(5)
H9E H 0.3610 0.0249 -0.1553
H10E H 0.3245 -0.0371 -0.1035
C10E C 0.5744(5) 0.2185(15) -0.0401(8)
O1E O 0.5973(3) 0.2792(14) 0.0185(7)
O2E O 0.5975(3) 0.1373(9) -0.0803(5)
H15E H 0.6284 0.1263 -0.0568
O3E O 0.2951(3) 0.0591(7) -0.3034(4)
H16E H 0.2909 0.0099 -0.3426
O4E O 0.2245(3) 0.0330(7) -0.2249(4)
O5E O 0.2784(3) -0.1728(7) -0.2472(4)
O6E O 0.2767(3) 0.1228(7) 0.0879(4)
O7E O 0.2982(2) -0.0811(6) 0.0152(4)
O8E O 0.2272(3) 0.0823(7) -0.0562(4)
O9E O 0.2973(3) -0.3340(8) -0.0754(5)
O10E O 0.1956(3) -0.1744(8) -0.1015(4)
Co1E Co 0.22399(5) 0.20081(13) -0.15549(7)
O5C O 0.2784(3) -0.8272(7) 0.2528(4)
O6E_2 O 0.2767(3) -0.8772(7) 0.0879(4)
Co1C Co 0.22399(5) -0.20081(13) 0.34451(7)
Co1E_2 Co 0.22399(5) -0.79919(13) -0.15549(7)
Co1B Co 0.72399(5) -0.70081(13) 0.34451(7)
Co1F Co 0.27601(5) -0.29919(13) -0.34451(7)
Co1_2 Co 0.27601(5) 0.29919(13) 0.15549(7)
N2E N 0.1387(3) 0.1923(10) -0.1873(6)
O5F O 0.2216(3) 0.3272(7) -0.2528(4)
O6_2 O 0.2233(3) 0.3772(7) -0.0879(4)
loop_
_geom_bond_atom_site_label_1
_geom_bond_atom_site_label_2
_geom_bond_site_symmetry_1
_geom_bond_site_symmetry_2
Co1 N1 1_555 1_555
Co2 O7 1_555 1_555
P1 C9 1_555 1_555
P2 C8 1_555 1_555
N1 C7 1_555 1_555
N2 Co1 1_555 1_555
C1 H1 1_555 1_555
C2 C1 1_555 1_555
H2 C2 1_555 1_555
C3 C2 1_555 1_555
C4 C3 1_555 1_555
H3 C4 1_555 1_555
C5 C4 1_555 1_555
H4 C5 1_555 1_555
C6 C1 1_555 1_555
C7 C6 1_555 1_555
H5 C7 1_555 1_555
H6 C7 1_555 1_555
C8 N1 1_555 1_555
H7 C8 1_555 1_555
H8 C8 1_555 1_555
C9 N1 1_555 1_555
H9 C9 1_555 1_555
H10 C9 1_555 1_555
C10 C3 1_555 1_555
C11 N2 1_555 1_555
H11 C11 1_555 1_555
C12 C11 1_555 1_555
H12 C12 1_555 1_555
C13 C12 1_555 1_555
C14 C13 1_555 1_555
H13 C14 1_555 1_555
C15 N2 1_555 1_555
H14 C15 1_555 1_555
O1 C10 1_555 1_555
O2 C10 1_555 1_555
H15 O2 1_555 1_555
O3 P1 1_555 1_555
H16 O3 1_555 1_555
O4 Co1 1_555 1_555
O5 P1 1_555 1_555
O6 P2 1_555 1_555
O7 P2 1_555 1_555
O8 Co1 1_555 1_555
O9 Co2 1_555 1_555
O10 Co2 1_555 1_555
C13B C13 1_555 1_555
C12B C13B 1_555 1_555
C11B C12B 1_555 1_555
N2B C11B 1_555 1_555
C15B N2B 1_555 1_555
C14B C13B 1_555 1_555
H13B C14B 1_555 1_555
H14B C15B 1_555 1_555
H11B C11B 1_555 1_555
H12B C12B 1_555 1_555
P1E C9E 1_555 1_555
P2E C8E 1_555 1_555
N1E C7E 1_555 1_555
C1E H1E 1_555 1_555
C2E C1E 1_555 1_555
H2E C2E 1_555 1_555
C3E C2E 1_555 1_555
C4E C3E 1_555 1_555
H3E C4E 1_555 1_555
C5E C4E 1_555 1_555
H4E C5E 1_555 1_555
C6E C1E 1_555 1_555
C7E C6E 1_555 1_555
H5E C7E 1_555 1_555
H6E C7E 1_555 1_555
C8E N1E 1_555 1_555
H7E C8E 1_555 1_555
H8E C8E 1_555 1_555
C9E N1E 1_555 1_555
H9E C9E 1_555 1_555
H10E C9E 1_555 1_555
C10E C3E 1_555 1_555
O1E C10E 1_555 1_555
O2E C10E 1_555 1_555
H15E O2E 1_555 1_555
O3E P1E 1_555 1_555
H16E O3E 1_555 1_555
O4E P1E 1_555 1_555
O5E P1E 1_555 1_555
O6E P2E 1_555 1_555
O7E Co2 1_555 1_555
O8E P2E 1_555 1_555
O9E Co2 1_555 1_555
O10E Co2 1_555 1_555
Co1E N1E 1_555 1_555
O5C Co1 1_555 1_555
O6E_2 Co1 1_555 1_555
Co1C O5 1_555 1_555
Co1E_2 O6 1_555 1_555
Co1B N2B 1_555 1_555
Co1F O5E 1_555 1_555
Co1_2 O6E 1_555 1_555
N2E Co1E 1_555 1_555
O5F Co1E 1_555 1_555
O6_2 Co1E 1_555 1_555
P1 O4 1_555 1_555
P2 O8 1_555 1_555
C5 C6 1_555 1_555
C14 C15 1_555 1_555
C15B C14B 1_555 1_555
P2E O7E 1_555 1_555
C5E C6E 1_555 1_555
O4E Co1E 1_555 1_555
O8E Co1E 1_555 1_555

#END
