
#######################################################################
#
#                 Cambridge Crystallographic Data Centre
#                                CCDC 
#
#######################################################################
#
# If this CIF has been generated from an entry in the Cambridge 
# Structural Database, then it will include bibliographic, chemical, 
# crystal, experimental, refinement or atomic coordinate data resulting 
# from the CCDC's data processing and validation procedures.
#
#######################################################################

data_LAHWOI
_symmetry_cell_setting           monoclinic
_symmetry_space_group_name_H-M   'P 21'
_symmetry_Int_Tables_number      4
_space_group_name_Hall           'P 2yb'
loop_
_symmetry_equiv_pos_site_id
_symmetry_equiv_pos_as_xyz
1 x,y,z
2 -x,1/2+y,-z
_cell_length_a                   10.9654(4)
_cell_length_b                   10.0439(3)
_cell_length_c                   12.2092(5)
_cell_angle_alpha                90
_cell_angle_beta                 115.073(2)
_cell_angle_gamma                90
_cell_volume                     1217.96
loop_
_atom_site_label
_atom_site_type_symbol
_atom_site_fract_x
_atom_site_fract_y
_atom_site_fract_z
Bi1 Bi 0.04480(3) 0.30190(5) -0.00361(3)
S1 S 0.0556(2) 0.0209(3) -0.1655(2)
S2 S 0.1329(2) 0.0754(2) 0.2155(2)
O1 O 0.0767(7) 0.1671(7) -0.1479(6)
O2 O -0.0523(7) -0.0185(7) -0.1282(6)
O3 O 0.1748(7) -0.0554(7) -0.1040(6)
O4 O 0.1819(7) 0.1346(7) 0.1307(6)
O5 O 0.0635(7) -0.0500(7) 0.1689(5)
O6 O 0.0509(7) 0.1681(7) 0.2435(6)
C1 C 0.2386(9) 0.3918(11) 0.0175(8)
C2 C 0.3471(8) 0.313(2) 0.0350(7)
H1 H 0.3377 0.2192 0.0322
C3 C 0.4695(10) 0.3688(13) 0.0566(10)
H2 H 0.5448 0.3133 0.0706
C4 C 0.4831(12) 0.5068(14) 0.0579(10)
H3 H 0.5672 0.5458 0.0714
C5 C 0.3742(11) 0.5859(12) 0.0395(9)
H4 H 0.3823 0.6800 0.0391
C6 C 0.2515(11) 0.5275(11) 0.0212(8)
H5 H 0.1767 0.5821 0.0113
C7 C -0.0113(5) -0.0025(6) -0.3248(3)
C8 C -0.1325(4) 0.0596(5) -0.3958(4)
C9 C -0.1911(4) 0.0416(6) -0.5204(4)
H6 H -0.2740 0.0841 -0.5689
C10 C -0.1283(5) -0.0385(6) -0.5740(3)
C11 C -0.0070(5) -0.1006(6) -0.5030(4)
H7 H 0.0359 -0.1554 -0.5397
C12 C 0.0515(5) -0.0826(6) -0.3784(4)
C13 C -0.2064(7) 0.1561(7) -0.3486(6)
H8 H -0.2894 0.1863 -0.4158
H9 H -0.1486 0.2330 -0.3114
H10 H -0.2287 0.1112 -0.2882
C14 C -0.1911(12) -0.0606(13) -0.7105(8)
H11 H -0.2880 -0.0431 -0.7437
H12 H -0.1760 -0.1529 -0.7278
H13 H -0.1495 -0.0001 -0.7478
C15 C 0.1845(9) -0.1557(10) -0.3096(10)
H14 H 0.2544 -0.0915 -0.2625
H15 H 0.2109 -0.2014 -0.3672
H16 H 0.1735 -0.2213 -0.2549
C16 C 0.2805(8) 0.0283(10) 0.3472(7)
C17 C 0.3757(9) -0.0545(10) 0.3321(8)
C18 C 0.4814(10) -0.1014(10) 0.4340(8)
H17 H 0.5460 -0.1577 0.4248
C19 C 0.4972(10) -0.0694(10) 0.5498(8)
C20 C 0.4022(9) 0.0143(10) 0.5614(8)
H18 H 0.4121 0.0368 0.6403
C21 C 0.2933(9) 0.0665(10) 0.4624(8)
C22 C 0.3663(11) -0.0983(11) 0.2112(9)
H19 H 0.4501 -0.1428 0.2219
H20 H 0.3518 -0.0205 0.1588
H21 H 0.2907 -0.1602 0.1741
C23 C 0.6084(10) -0.1310(11) 0.6591(8)
H22 H 0.6247 -0.0766 0.7305
H23 H 0.6908 -0.1354 0.6464
H24 H 0.5820 -0.2210 0.6713
C24 C 0.2025(9) 0.1605(11) 0.4902(8)
H25 H 0.2341 0.1681 0.5780
H26 H 0.1102 0.1259 0.4546
H27 H 0.2043 0.2484 0.4560
Bi1A Bi -0.04480(3) -0.19810(5) 0.00361(3)
O2A O 0.0523(7) 0.4815(7) 0.1282(6)
O5A O -0.0635(7) 0.4500(7) -0.1689(5)
loop_
_geom_bond_atom_site_label_1
_geom_bond_atom_site_label_2
_geom_bond_site_symmetry_1
_geom_bond_site_symmetry_2
Bi1 O1 1_555 1_555
S1 O1 1_555 1_555
S2 O4 1_555 1_555
O2 S1 1_555 1_555
O3 S1 1_555 1_555
O4 Bi1 1_555 1_555
O5 S2 1_555 1_555
O6 S2 1_555 1_555
C1 Bi1 1_555 1_555
C2 C1 1_555 1_555
H1 C2 1_555 1_555
C3 C2 1_555 1_555
H2 C3 1_555 1_555
C4 C3 1_555 1_555
H3 C4 1_555 1_555
C5 C4 1_555 1_555
H4 C5 1_555 1_555
C6 C1 1_555 1_555
H5 C6 1_555 1_555
C7 S1 1_555 1_555
C8 C7 1_555 1_555
C9 C8 1_555 1_555
H6 C9 1_555 1_555
C10 C9 1_555 1_555
C11 C10 1_555 1_555
H7 C11 1_555 1_555
C12 C7 1_555 1_555
C13 C8 1_555 1_555
H8 C13 1_555 1_555
H9 C13 1_555 1_555
H10 C13 1_555 1_555
C14 C10 1_555 1_555
H11 C14 1_555 1_555
H12 C14 1_555 1_555
H13 C14 1_555 1_555
C15 C12 1_555 1_555
H14 C15 1_555 1_555
H15 C15 1_555 1_555
H16 C15 1_555 1_555
C16 S2 1_555 1_555
C17 C16 1_555 1_555
C18 C17 1_555 1_555
H17 C18 1_555 1_555
C19 C18 1_555 1_555
C20 C19 1_555 1_555
H18 C20 1_555 1_555
C21 C16 1_555 1_555
C22 C17 1_555 1_555
H19 C22 1_555 1_555
H20 C22 1_555 1_555
H21 C22 1_555 1_555
C23 C19 1_555 1_555
H22 C23 1_555 1_555
H23 C23 1_555 1_555
H24 C23 1_555 1_555
C24 C21 1_555 1_555
H25 C24 1_555 1_555
H26 C24 1_555 1_555
H27 C24 1_555 1_555
Bi1A O2 1_555 1_555
O2A Bi1 1_555 1_555
O5A Bi1 1_555 1_555
O5 Bi1A 1_555 1_555
C5 C6 1_555 1_555
C11 C12 1_555 1_555
C20 C21 1_555 1_555

#END
