
#######################################################################
#
#                 Cambridge Crystallographic Data Centre
#                                CCDC 
#
#######################################################################
#
# If this CIF has been generated from an entry in the Cambridge 
# Structural Database, then it will include bibliographic, chemical, 
# crystal, experimental, refinement or atomic coordinate data resulting 
# from the CCDC's data processing and validation procedures.
#
#######################################################################

data_LAHWUO
_symmetry_cell_setting           orthorhombic
_symmetry_space_group_name_H-M   'P 21 21 21'
_symmetry_Int_Tables_number      19
_space_group_name_Hall           'P 2ac 2ab'
loop_
_symmetry_equiv_pos_site_id
_symmetry_equiv_pos_as_xyz
1 x,y,z
2 1/2-x,-y,1/2+z
3 1/2+x,1/2-y,-z
4 -x,1/2+y,1/2-z
_cell_length_a                   10.8156(3)
_cell_length_b                   11.3881(3)
_cell_length_c                   16.6379(5)
_cell_angle_alpha                90
_cell_angle_beta                 90
_cell_angle_gamma                90
_cell_volume                     2049.28
loop_
_atom_site_label
_atom_site_type_symbol
_atom_site_fract_x
_atom_site_fract_y
_atom_site_fract_z
Bi1 Bi 0.08960(2) 0.826433(18) 0.50163(2)
S1 S 0.29935(18) 0.60117(15) 0.44237(11)
O1 O 0.2836(5) 0.7178(4) 0.4807(3)
C1 C 0.2029(6) 0.9900(5) 0.4938(5)
O2 O 0.4130(5) 0.5464(4) 0.4732(3)
C2 C 0.1472(7) 1.0969(7) 0.4729(4)
H1 H 0.0608 1.1001 0.4629
O3 O 0.1927(5) 0.5250(4) 0.4501(3)
C3 C 0.2195(8) 1.1999(6) 0.4668(4)
H2 H 0.1822 1.2723 0.4522
O4 O 0.5881(6) 0.5713(5) 0.3282(3)
C4 C 0.3452(7) 1.1944(7) 0.4824(4)
H3 H 0.3935 1.2640 0.4794
C5 C 0.4016(6) 1.0894(6) 0.5022(5)
H4 H 0.4883 1.0861 0.5113
C6 C 0.3296(6) 0.9887(6) 0.5087(5)
H5 H 0.3679 0.9169 0.5238
C7 C 0.0506(8) 0.8270(6) 0.3681(4)
C8 C -0.0310(8) 0.7443(7) 0.3371(5)
H6 H -0.0707 0.6899 0.3719
C9 C -0.0544(8) 0.7416(6) 0.2543(5)
H7 H -0.1142 0.6887 0.2334
C10 C 0.0091(8) 0.8155(7) 0.2026(5)
H8 H -0.0050 0.8113 0.1463
C11 C 0.0937(8) 0.8960(7) 0.2333(5)
H9 H 0.1380 0.9465 0.1981
C12 C 0.1130(9) 0.9019(7) 0.3153(5)
H10 H 0.1696 0.9579 0.3362
C13 C 0.3242(7) 0.6360(6) 0.3393(4)
H11 H 0.2444 0.6635 0.3170
H12 H 0.3818 0.7035 0.3374
C14 C 0.3740(7) 0.5431(7) 0.2829(4)
C15 C 0.5155(8) 0.5352(6) 0.2787(4)
C16 C 0.5455(7) 0.4782(6) 0.2003(4)
H13 H 0.5928 0.4047 0.2085
H14 H 0.5939 0.5316 0.1654
C17 C 0.4180(7) 0.4526(6) 0.1636(4)
H15 H 0.4182 0.4393 0.1042
C18 C 0.3604(8) 0.3540(6) 0.2127(5)
H16 H 0.4188 0.2877 0.2190
H17 H 0.2837 0.3249 0.1870
C19 C 0.3320(8) 0.4123(6) 0.2954(4)
H18 H 0.3797 0.3744 0.3391
H19 H 0.2428 0.4077 0.3082
C20 C 0.3418(8) 0.5615(6) 0.1919(4)
C21 C 0.2037(8) 0.5534(7) 0.1726(5)
H20 H 0.1610 0.6222 0.1946
H21 H 0.1694 0.4819 0.1967
H22 H 0.1922 0.5509 0.1142
C22 C 0.3894(7) 0.6807(6) 0.1598(5)
H23 H 0.3853 0.6810 0.1010
H24 H 0.4751 0.6924 0.1770
H25 H 0.3377 0.7442 0.1811
Bi1B Bi 0.58960(2) 0.673567(18) 0.49837(2)
O2B O -0.0870(5) 0.9536(4) 0.5268(3)
loop_
_geom_bond_atom_site_label_1
_geom_bond_atom_site_label_2
_geom_bond_site_symmetry_1
_geom_bond_site_symmetry_2
Bi1 O1 1_555 1_555
S1 O1 1_555 1_555
C1 Bi1 1_555 1_555
O2 S1 1_555 1_555
C2 C1 1_555 1_555
H1 C2 1_555 1_555
O3 S1 1_555 1_555
C3 C2 1_555 1_555
H2 C3 1_555 1_555
O4 C15 1_555 1_555
C4 C3 1_555 1_555
H3 C4 1_555 1_555
C5 C4 1_555 1_555
H4 C5 1_555 1_555
C6 C1 1_555 1_555
H5 C6 1_555 1_555
C7 Bi1 1_555 1_555
C8 C7 1_555 1_555
H6 C8 1_555 1_555
C9 C8 1_555 1_555
H7 C9 1_555 1_555
C10 C9 1_555 1_555
H8 C10 1_555 1_555
C11 C10 1_555 1_555
H9 C11 1_555 1_555
C12 C7 1_555 1_555
H10 C12 1_555 1_555
C13 S1 1_555 1_555
H11 C13 1_555 1_555
H12 C13 1_555 1_555
C14 C13 1_555 1_555
C15 C14 1_555 1_555
C16 C15 1_555 1_555
H13 C16 1_555 1_555
H14 C16 1_555 1_555
C17 C16 1_555 1_555
H15 C17 1_555 1_555
C18 C17 1_555 1_555
H16 C18 1_555 1_555
H17 C18 1_555 1_555
C19 C14 1_555 1_555
H18 C19 1_555 1_555
H19 C19 1_555 1_555
C20 C14 1_555 1_555
C21 C20 1_555 1_555
H20 C21 1_555 1_555
H21 C21 1_555 1_555
H22 C21 1_555 1_555
C22 C20 1_555 1_555
H23 C22 1_555 1_555
H24 C22 1_555 1_555
H25 C22 1_555 1_555
Bi1B O2 1_555 1_555
O2B Bi1 1_555 1_555
C5 C6 1_555 1_555
C11 C12 1_555 1_555
C17 C20 1_555 1_555
C18 C19 1_555 1_555

#END
