
#######################################################################
#
#                 Cambridge Crystallographic Data Centre
#                                CCDC 
#
#######################################################################
#
# If this CIF has been generated from an entry in the Cambridge 
# Structural Database, then it will include bibliographic, chemical, 
# crystal, experimental, refinement or atomic coordinate data resulting 
# from the CCDC's data processing and validation procedures.
#
#######################################################################

data_LAHYOJ
_symmetry_cell_setting           tetragonal
_symmetry_space_group_name_H-M   'P 43'
_symmetry_Int_Tables_number      78
_space_group_name_Hall           'P 4cw'
loop_
_symmetry_equiv_pos_site_id
_symmetry_equiv_pos_as_xyz
1 x,y,z
2 -x,-y,1/2+z
3 -y,x,3/4+z
4 y,-x,1/4+z
_cell_length_a                   10.550(5)
_cell_length_b                   10.550(5)
_cell_length_c                   23.15(1)
_cell_angle_alpha                90
_cell_angle_beta                 90
_cell_angle_gamma                90
_cell_volume                     2576.65
loop_
_atom_site_label
_atom_site_type_symbol
_atom_site_fract_x
_atom_site_fract_y
_atom_site_fract_z
Cu1 Cu -0.3052(1) -1.2232(1) -0.7926
Co1 Co -0.3141(1) -0.7189(1) -0.76130(8)
Co2 Co -0.8026(1) -1.2274(1) -0.82994(8)
O1 O -0.3785(6) -0.3923(6) -0.8015(3)
O2 O -0.4013(10) -0.3890(8) -0.7076(4)
O3 O -0.2410(7) -1.0574(6) -0.7679(3)
O4 O -0.2067(8) -0.9938(7) -0.8590(4)
O5 O -0.4591(6) -1.1526(6) -0.8257(3)
O6 O -0.5412(7) -1.0991(7) -0.7413(3)
O7 O -1.1382(6) -1.2921(7) -0.7740(3)
O8 O -1.1307(7) -1.3289(9) -0.8677(4)
C1 C -0.4445(9) -0.5800(9) -0.7557(5)
C2 C -0.4633(10) -0.6492(10) -0.8065(4)
C3 C -0.4879(10) -0.780(1) -0.7892(6)
C4 C -0.480(1) -0.783(1) -0.7270(6)
C5 C -0.4551(10) -0.663(1) -0.7077(5)
C6 C -0.4073(10) -0.4428(10) -0.7525(5)
C7 C -0.1813(9) -0.8504(9) -0.7826(4)
C8 C -0.1726(10) -0.819(1) -0.7248(5)
C9 C -0.151(1) -0.685(1) -0.7211(6)
C10 C -0.145(1) -0.634(1) -0.7748(6)
C11 C -0.1624(10) -0.737(1) -0.8139(5)
C12 C -0.2119(9) -0.9793(10) -0.8065(5)
C13 C -0.6679(9) -1.0929(10) -0.8255(5)
C14 C -0.781(1) -1.0484(10) -0.8008(5)
C15 C -0.879(1) -1.052(1) -0.8446(6)
C16 C -0.823(1) -1.101(1) -0.8963(5)
C17 C -0.6931(9) -1.121(1) -0.8847(4)
C18 C -0.5481(9) -1.1155(9) -0.7953(5)
C19 C -0.9432(10) -1.3536(9) -0.8135(5)
C20 C -0.865(1) -1.3967(10) -0.8608(5)
C21 C -0.739(1) -1.408(1) -0.8384(6)
C22 C -0.741(1) -1.371(1) -0.7799(6)
C23 C -0.867(1) -1.336(1) -0.7634(5)
C24 C -1.0814(10) -1.3221(9) -0.8204(5)
H1 H -0.4606 -0.6173 -0.8448
H2 H -0.5055 -0.8496 -0.8141
H3 H -0.4909 -0.8564 -0.7034
H4 H -0.4462 -0.6388 -0.6684
H5 H -0.1799 -0.8755 -0.6931
H6 H -0.1411 -0.6389 -0.6862
H7 H -0.1330 -0.5478 -0.7843
H8 H -0.1613 -0.7299 -0.8548
H9 H -0.7916 -1.0209 -0.7620
H10 H -0.9650 -1.0259 -0.8400
H11 H -0.8654 -1.1175 -0.9317
H12 H -0.6321 -1.1495 -0.9121
H13 H -0.8914 -1.4141 -0.8991
H14 H -0.6670 -1.4353 -0.8594
H15 H -0.6696 -1.3700 -0.7551
H16 H -0.8946 -1.3072 -0.7266
Cu1_2 Cu -0.3052(1) -0.2232(1) -0.7926
O1_2 O -0.3785(6) -1.3923(6) -0.8015(3)
Cu1_3 Cu -1.3052(1) -1.2232(1) -0.7926
O7_2 O -0.1382(6) -1.2921(7) -0.7740(3)
O9 O -0.222(1) -0.828(1) -0.9552(6)
C25 C -0.338(2) -0.808(2) -0.9623(7)
O10 O -0.736(2) -0.110(2) -0.6500(8)
C26 C -0.702(2) -0.230(3) -0.644(1)
loop_
_geom_bond_atom_site_label_1
_geom_bond_atom_site_label_2
_geom_bond_site_symmetry_1
_geom_bond_site_symmetry_2
Cu1 O3 1_555 1_555
Co1 C1 1_555 1_555
Co2 C13 1_555 1_555
O1 C6 1_555 1_555
O2 C6 1_555 1_555
O3 C12 1_555 1_555
O4 C12 1_555 1_555
O5 Cu1 1_555 1_555
O6 C18 1_555 1_555
O7 C24 1_555 1_555
O8 C24 1_555 1_555
C1 C2 1_555 1_555
C2 Co1 1_555 1_555
C3 Co1 1_555 1_555
C4 Co1 1_555 1_555
C5 Co1 1_555 1_555
C6 C1 1_555 1_555
C7 Co1 1_555 1_555
C8 Co1 1_555 1_555
C9 Co1 1_555 1_555
C10 Co1 1_555 1_555
C11 Co1 1_555 1_555
C12 C7 1_555 1_555
C13 C14 1_555 1_555
C14 Co2 1_555 1_555
C15 Co2 1_555 1_555
C16 Co2 1_555 1_555
C17 Co2 1_555 1_555
C18 O5 1_555 1_555
C19 Co2 1_555 1_555
C20 Co2 1_555 1_555
C21 Co2 1_555 1_555
C22 Co2 1_555 1_555
C23 Co2 1_555 1_555
C24 C19 1_555 1_555
H1 C2 1_555 1_555
H2 C3 1_555 1_555
H3 C4 1_555 1_555
H4 C5 1_555 1_555
H5 C8 1_555 1_555
H6 C9 1_555 1_555
H7 C10 1_555 1_555
H8 C11 1_555 1_555
H9 C14 1_555 1_555
H10 C15 1_555 1_555
H11 C16 1_555 1_555
H12 C17 1_555 1_555
H13 C20 1_555 1_555
H14 C21 1_555 1_555
H15 C22 1_555 1_555
H16 C23 1_555 1_555
O9 C25 1_555 1_555
O10 C26 1_555 1_555
Cu1_2 O1 1_555 1_555
O1_2 Cu1 1_555 1_555
Cu1_3 O7 1_555 1_555
O7_2 Cu1 1_555 1_555
C1 C5 1_555 1_555
C2 C3 1_555 1_555
C3 C4 1_555 1_555
C4 C5 1_555 1_555
C7 C8 1_555 1_555
C7 C11 1_555 1_555
C8 C9 1_555 1_555
C9 C10 1_555 1_555
C10 C11 1_555 1_555
C13 C17 1_555 1_555
C13 C18 1_555 1_555
C14 C15 1_555 1_555
C15 C16 1_555 1_555
C16 C17 1_555 1_555
C19 C20 1_555 1_555
C19 C23 1_555 1_555
C20 C21 1_555 1_555
C21 C22 1_555 1_555
C22 C23 1_555 1_555

#END
