
#######################################################################
#
#                 Cambridge Crystallographic Data Centre
#                                CCDC 
#
#######################################################################
#
# If this CIF has been generated from an entry in the Cambridge 
# Structural Database, then it will include bibliographic, chemical, 
# crystal, experimental, refinement or atomic coordinate data resulting 
# from the CCDC's data processing and validation procedures.
#
#######################################################################

data_LAJCOP
_symmetry_cell_setting           monoclinic
_symmetry_space_group_name_H-M   'P 21/n'
_symmetry_Int_Tables_number      14
_space_group_name_Hall           '-P 2yn'
loop_
_symmetry_equiv_pos_site_id
_symmetry_equiv_pos_as_xyz
1 x,y,z
2 1/2+x,1/2-y,1/2+z
3 -x,-y,-z
4 1/2-x,1/2+y,1/2-z
_cell_length_a                   7.5756(18)
_cell_length_b                   15.256(2)
_cell_length_c                   15.213(5)
_cell_angle_alpha                90
_cell_angle_beta                 96.40(2)
_cell_angle_gamma                90
_cell_volume                     1747.26
loop_
_atom_site_label
_atom_site_type_symbol
_atom_site_fract_x
_atom_site_fract_y
_atom_site_fract_z
Cu1 Cu 0.0000 0.0000 0.0000
Fe1 Fe -0.49581(13) -0.11063(7) 0.21076(6)
N1 N -0.4838(9) -0.3010(5) 0.1486(4)
N2 N -0.2700(10) -0.0682(5) 0.0617(5)
N3 N 0.1674(8) -0.0638(4) 0.0861(4)
N4 N -0.1450(9) -0.1393(5) 0.3319(4)
N5 N -0.5141(7) 0.0105(4) 0.2594(4)
N6 N -0.6210(7) -0.1406(4) 0.3150(3)
C1 C -0.4894(10) -0.2286(6) 0.1701(5)
C2 C -0.3557(10) -0.0813(5) 0.1169(5)
C3 C 0.2884(10) -0.0851(5) 0.1331(5)
C4 C -0.2743(10) -0.1282(5) 0.2857(5)
C5 C -0.4602(10) 0.0861(5) 0.2285(5)
H1 H -0.4079 0.0862 0.1760
C6 C -0.4792(11) 0.1642(6) 0.2714(6)
H2 H -0.4392 0.2160 0.2482
C7 C -0.5573(11) 0.1657(6) 0.3487(6)
H3 H -0.5693 0.2184 0.3781
C8 C -0.6186(10) 0.0883(5) 0.3831(5)
C9 C -0.5948(9) 0.0115(5) 0.3358(4)
C10 C -0.6510(9) -0.0711(5) 0.3654(4)
C11 C -0.7299(9) -0.0757(6) 0.4433(5)
C12 C -0.7721(10) -0.1607(7) 0.4717(5)
H4 H -0.8239 -0.1681 0.5239
C13 C -0.7366(10) -0.2308(6) 0.4227(5)
H5 H -0.7608 -0.2870 0.4418
C14 C -0.6638(9) -0.2193(5) 0.3434(5)
H6 H -0.6446 -0.2682 0.3092
C15 C -0.7017(11) 0.0813(7) 0.4624(5)
H7 H -0.7191 0.1316 0.4947
C16 C -0.7554(10) 0.0036(7) 0.4914(5)
H8 H -0.8097 0.0011 0.5432
O1 O 0.0206(7) -0.0938(3) -0.0881(3)
N2B N 0.2700(10) 0.0682(5) -0.0617(5)
C2B C 0.3557(10) 0.0813(5) -0.1169(5)
N3B N -0.1674(8) 0.0638(4) -0.0861(4)
C3B C -0.2884(10) 0.0851(5) -0.1331(5)
O1B O -0.0206(7) 0.0938(3) 0.0881(3)
Fe1B Fe 0.49581(13) 0.11063(7) -0.21076(6)
N5B N 0.5141(7) -0.0105(4) -0.2594(4)
N6B N 0.6210(7) 0.1406(4) -0.3150(3)
C5B C 0.4602(10) -0.0861(5) -0.2285(5)
H1B H 0.4079 -0.0862 -0.1760
C6B C 0.4792(11) -0.1642(6) -0.2714(6)
H2B H 0.4392 -0.2160 -0.2482
C7B C 0.5573(11) -0.1657(6) -0.3487(6)
H3B H 0.5693 -0.2184 -0.3781
C8B C 0.6186(10) -0.0883(5) -0.3831(5)
C9B C 0.5948(9) -0.0115(5) -0.3358(4)
C10B C 0.6510(9) 0.0711(5) -0.3654(4)
C11B C 0.7299(9) 0.0757(6) -0.4433(5)
C12B C 0.7721(10) 0.1607(7) -0.4717(5)
H4B H 0.8239 0.1681 -0.5239
C13B C 0.7366(10) 0.2308(6) -0.4227(5)
H5B H 0.7608 0.2870 -0.4418
C14B C 0.6638(9) 0.2193(5) -0.3434(5)
H6B H 0.6446 0.2682 -0.3092
C15B C 0.7017(11) -0.0813(7) -0.4624(5)
H7B H 0.7191 -0.1316 -0.4947
C16B C 0.7554(10) -0.0036(7) -0.4914(5)
H8B H 0.8097 -0.0011 -0.5432
N1B N 0.4838(9) 0.3010(5) -0.1486(4)
C1B C 0.4894(10) 0.2286(6) -0.1701(5)
N4B N 0.1450(9) 0.1393(5) -0.3319(4)
C4B C 0.2743(10) 0.1282(5) -0.2857(5)
C3_2 C -0.7116(10) -0.0851(5) 0.1331(5)
Fe1_2 Fe 0.50419(13) -0.11063(7) 0.21076(6)
Fe1B_2 Fe -0.50419(13) 0.11063(7) -0.21076(6)
C3B_2 C 0.7116(10) 0.0851(5) -0.1331(5)
O2 O -0.0042(8) 0.0398(4) 0.2568(4)
O3 O 0.3168(9) -0.2016(4) -0.0578(4)
loop_
_geom_bond_atom_site_label_1
_geom_bond_atom_site_label_2
_geom_bond_site_symmetry_1
_geom_bond_site_symmetry_2
Cu1 N2 1_555 1_555
Fe1 N5 1_555 1_555
N1 C1 1_555 1_555
N2 C2 1_555 1_555
N3 Cu1 1_555 1_555
N4 C4 1_555 1_555
N5 C5 1_555 1_555
N6 Fe1 1_555 1_555
C1 Fe1 1_555 1_555
C2 Fe1 1_555 1_555
C3 N3 1_555 1_555
C4 Fe1 1_555 1_555
C5 H1 1_555 1_555
C6 C5 1_555 1_555
H2 C6 1_555 1_555
C7 C6 1_555 1_555
H3 C7 1_555 1_555
C8 C7 1_555 1_555
C9 N5 1_555 1_555
C10 N6 1_555 1_555
C11 C10 1_555 1_555
C12 C11 1_555 1_555
H4 C12 1_555 1_555
C13 C12 1_555 1_555
H5 C13 1_555 1_555
C14 N6 1_555 1_555
H6 C14 1_555 1_555
C15 C8 1_555 1_555
H7 C15 1_555 1_555
C16 C11 1_555 1_555
H8 C16 1_555 1_555
O1 Cu1 1_555 1_555
N2B Cu1 1_555 1_555
C2B N2B 1_555 1_555
N3B Cu1 1_555 1_555
C3B N3B 1_555 1_555
O1B Cu1 1_555 1_555
Fe1B C2B 1_555 1_555
N5B Fe1B 1_555 1_555
N6B Fe1B 1_555 1_555
C5B N5B 1_555 1_555
H1B C5B 1_555 1_555
C6B C5B 1_555 1_555
H2B C6B 1_555 1_555
C7B C6B 1_555 1_555
H3B C7B 1_555 1_555
C8B C7B 1_555 1_555
C9B N5B 1_555 1_555
C10B N6B 1_555 1_555
C11B C10B 1_555 1_555
C12B C11B 1_555 1_555
H4B C12B 1_555 1_555
C13B C12B 1_555 1_555
H5B C13B 1_555 1_555
C14B N6B 1_555 1_555
H6B C14B 1_555 1_555
C15B C8B 1_555 1_555
H7B C15B 1_555 1_555
C16B C11B 1_555 1_555
H8B C16B 1_555 1_555
N1B C1B 1_555 1_555
C1B Fe1B 1_555 1_555
N4B C4B 1_555 1_555
C4B Fe1B 1_555 1_555
C3_2 Fe1 1_555 1_555
Fe1_2 C3 1_555 1_555
Fe1B_2 C3B 1_555 1_555
C3B_2 Fe1B 1_555 1_555
C8 C9 1_555 1_555
C9 C10 1_555 1_555
C13 C14 1_555 1_555
C15 C16 1_555 1_555
C8B C9B 1_555 1_555
C9B C10B 1_555 1_555
C13B C14B 1_555 1_555
C15B C16B 1_555 1_555

#END
