
#######################################################################
#
#                 Cambridge Crystallographic Data Centre
#                                CCDC 
#
#######################################################################
#
# If this CIF has been generated from an entry in the Cambridge 
# Structural Database, then it will include bibliographic, chemical, 
# crystal, experimental, refinement or atomic coordinate data resulting 
# from the CCDC's data processing and validation procedures.
#
#######################################################################

data_LAJCUV
_symmetry_cell_setting           triclinic
_symmetry_space_group_name_H-M   'P -1'
_symmetry_Int_Tables_number      2
_space_group_name_Hall           '-P 1'
loop_
_symmetry_equiv_pos_site_id
_symmetry_equiv_pos_as_xyz
1 x,y,z
2 -x,-y,-z
_cell_length_a                   7.083(3)
_cell_length_b                   13.529(7)
_cell_length_c                   15.622(3)
_cell_angle_alpha                92.87(3)
_cell_angle_beta                 90.02(3)
_cell_angle_gamma                97.97(4)
_cell_volume                     1480.63
loop_
_atom_site_label
_atom_site_type_symbol
_atom_site_fract_x
_atom_site_fract_y
_atom_site_fract_z
Fe1 Fe 0.70919(10) 0.77197(5) 0.42313(4)
Fe2 Fe 1.29398(10) 1.24064(6) 0.14921(4)
Cu1 Cu 0.76687(8) 1.14140(5) 0.35772(4)
N1 N 0.7293(7) 0.9822(3) 0.3574(3)
C1 C 0.5577(8) 0.8154(4) 0.5156(3)
N2 N 1.0603(6) 0.8347(4) 0.5414(3)
N3 N 0.3174(8) 0.7127(5) 0.3345(4)
N4 N 0.9944(6) 1.1692(4) 0.2821(3)
N5 N 1.3764(10) 1.4498(5) 0.2349(4)
N6 N 0.6049(6) 1.1717(4) 0.2609(3)
N7 N 0.9705(9) 1.3092(6) 0.0461(4)
N8 N 0.7218(6) 0.6363(3) 0.4657(3)
N9 N 0.8267(6) 0.7128(3) 0.3193(3)
N10 N 1.4570(6) 1.2849(3) 0.0495(3)
N11 N 1.2668(6) 1.1096(3) 0.0807(3)
C2 C 0.7201(7) 0.9034(4) 0.3807(3)
N12 N 0.4485(6) 0.8370(4) 0.5655(3)
C3 C 0.9387(7) 0.8152(4) 0.4919(3)
C4 C 0.4624(7) 0.7317(4) 0.3668(3)
C5 C 1.1112(8) 1.1962(4) 0.2350(3)
C6 C 1.3408(8) 1.3703(5) 0.2061(4)
C7 C 0.4965(7) 1.1986(4) 0.2177(3)
C8 C 1.0859(8) 1.2836(5) 0.0852(3)
C9 C 0.6899(8) 0.6037(5) 0.5430(4)
C10 C 0.7123(8) 0.5058(5) 0.5624(4)
C11 C 0.7599(8) 0.4406(5) 0.4991(4)
C12 C 0.7945(8) 0.4720(4) 0.4169(4)
C13 C 0.7782(7) 0.5722(4) 0.4035(3)
C14 C 0.8286(7) 0.6137(4) 0.3233(3)
C15 C 0.8803(7) 0.5519(4) 0.2544(4)
C16 C 0.9259(9) 0.5978(5) 0.1770(4)
C17 C 0.9269(9) 0.6982(6) 0.1740(4)
C18 C 0.8783(9) 0.7547(5) 0.2464(4)
C19 C 0.8483(9) 0.4118(5) 0.3460(5)
C20 C 0.8854(9) 0.4483(5) 0.2684(5)
C21 C 1.5523(8) 1.3733(5) 0.0359(4)
C22 C 1.6248(9) 1.3975(5) -0.0442(4)
H1 H 1.6899 1.4611 -0.0516
C23 C 1.6021(9) 1.3296(5) -0.1122(4)
C24 C 1.5126(8) 1.2331(5) -0.0991(3)
C25 C 1.4375(7) 1.2151(4) -0.0177(3)
C26 C 1.3402(7) 1.1201(4) -0.0001(3)
C27 C 1.3213(8) 1.0415(4) -0.0629(4)
C28 C 1.2350(9) 0.9490(5) -0.0386(4)
C29 C 1.1726(8) 0.9381(5) 0.0434(5)
H2 H 1.1191 0.8756 0.0606
C30 C 1.1891(9) 1.0209(5) 0.1016(4)
C31 C 1.4875(10) 1.1532(6) -0.1626(4)
C32 C 1.3981(10) 1.0611(6) -0.1453(4)
H3 H 0.659(7) 0.649(4) 0.585(4)
H4 H 0.944(8) 0.554(5) 0.120(4)
H5 H 1.147(7) 1.016(4) 0.156(4)
H6 H 1.571(8) 1.423(4) 0.084(4)
H7 H 0.880(8) 0.824(5) 0.249(4)
H8 H 0.915(10) 0.408(5) 0.227(5)
H9 H 0.953(10) 0.725(6) 0.126(5)
H10 H 1.225(9) 0.897(5) -0.070(4)
H11 H 0.689(8) 0.500(4) 0.617(4)
H12 H 1.385(11) 1.008(6) -0.188(5)
H13 H 0.775(10) 0.376(6) 0.507(5)
H14 H 1.534(10) 1.163(6) -0.208(5)
H15 H 1.625(10) 1.351(6) -0.160(5)
H16 H 0.847(11) 0.341(6) 0.356(5)
C7_2 C 1.4965(7) 1.1986(4) 0.2177(3)
N2A N 0.9397(6) 1.1653(4) 0.4586(3)
N12A N 0.5515(6) 1.1630(4) 0.4345(3)
Cu1A Cu 1.23313(8) 0.85860(5) 0.64228(4)
Cu1A_2 Cu 0.23313(8) 0.85860(5) 0.64228(4)
Fe2_2 Fe 0.29398(10) 1.24064(6) 0.14921(4)
O1 O 0.7877(13) 1.0500(8) 0.6881(6)
loop_
_geom_bond_atom_site_label_1
_geom_bond_atom_site_label_2
_geom_bond_site_symmetry_1
_geom_bond_site_symmetry_2
Fe1 C1 1_555 1_555
Fe2 N10 1_555 1_555
Cu1 N1 1_555 1_555
N1 C2 1_555 1_555
C1 N12 1_555 1_555
N2 C3 1_555 1_555
N3 C4 1_555 1_555
N4 Cu1 1_555 1_555
N5 C6 1_555 1_555
N6 Cu1 1_555 1_555
N7 C8 1_555 1_555
N8 Fe1 1_555 1_555
N9 Fe1 1_555 1_555
N10 C21 1_555 1_555
N11 Fe2 1_555 1_555
C2 Fe1 1_555 1_555
N12 Cu1A_2 1_555 1_555
C3 Fe1 1_555 1_555
C4 Fe1 1_555 1_555
C5 Fe2 1_555 1_555
C6 Fe2 1_555 1_555
C7 N6 1_555 1_555
C8 Fe2 1_555 1_555
C9 N8 1_555 1_555
C10 C9 1_555 1_555
C11 C10 1_555 1_555
C12 C11 1_555 1_555
C13 N8 1_555 1_555
C14 N9 1_555 1_555
C15 C14 1_555 1_555
C16 C15 1_555 1_555
C17 C16 1_555 1_555
C18 N9 1_555 1_555
C19 C12 1_555 1_555
C20 C15 1_555 1_555
C21 C22 1_555 1_555
C22 H1 1_555 1_555
C23 C22 1_555 1_555
C24 C23 1_555 1_555
C25 N10 1_555 1_555
C26 N11 1_555 1_555
C27 C26 1_555 1_555
C28 C27 1_555 1_555
C29 C28 1_555 1_555
H2 C29 1_555 1_555
C30 N11 1_555 1_555
C31 C24 1_555 1_555
C32 C27 1_555 1_555
H3 C9 1_555 1_555
H4 C16 1_555 1_555
H5 C30 1_555 1_555
H6 C21 1_555 1_555
H7 C18 1_555 1_555
H8 C20 1_555 1_555
H9 C17 1_555 1_555
H10 C28 1_555 1_555
H11 C10 1_555 1_555
H12 C32 1_555 1_555
H13 C11 1_555 1_555
H14 C31 1_555 1_555
H15 C23 1_555 1_555
H16 C19 1_555 1_555
C7_2 Fe2 1_555 1_555
N2A Cu1 1_555 1_555
N12A Cu1 1_555 1_555
Cu1A N2 1_555 1_555
Fe2_2 C7 1_555 1_555
N4 C5 1_555 1_555
C12 C13 1_555 1_555
C13 C14 1_555 1_555
C17 C18 1_555 1_555
C19 C20 1_555 1_555
C24 C25 1_555 1_555
C25 C26 1_555 1_555
C29 C30 1_555 1_555
C31 C32 1_555 1_555

#END
