
#######################################################################
#
#                 Cambridge Crystallographic Data Centre
#                                CCDC 
#
#######################################################################
#
# If this CIF has been generated from an entry in the Cambridge 
# Structural Database, then it will include bibliographic, chemical, 
# crystal, experimental, refinement or atomic coordinate data resulting 
# from the CCDC's data processing and validation procedures.
#
#######################################################################

data_LAJDOP
_symmetry_cell_setting           triclinic
_symmetry_space_group_name_H-M   'P -1'
_symmetry_Int_Tables_number      2
_space_group_name_Hall           '-P 1'
loop_
_symmetry_equiv_pos_site_id
_symmetry_equiv_pos_as_xyz
1 x,y,z
2 -x,-y,-z
_cell_length_a                   7.540(2)
_cell_length_b                   14.014(3)
_cell_length_c                   15.030(3)
_cell_angle_alpha                83.06(3)
_cell_angle_beta                 85.15(3)
_cell_angle_gamma                83.72(3)
_cell_volume                     1562.96
loop_
_atom_site_label
_atom_site_type_symbol
_atom_site_fract_x
_atom_site_fract_y
_atom_site_fract_z
Pb1 Pb 0.1321(1) 0.1022(1) 0.0772(1)
Pb2 Pb 0.1216(1) 0.3654(1) 0.4644(1)
O1 O 0.4105(9) 0.1542(5) 0.1140(4)
O2 O 0.1999(8) 0.1880(6) 0.2170(5)
O3 O 0.2733(9) 0.2118(5) 0.3738(5)
O4 O 0.7404(9) 0.1383(6) 0.1478(5)
O5 O 0.3400(10) 0.0817(6) -0.0466(5)
O6 O 0.0931(10) 0.0996(6) -0.1173(5)
O7 O 0.6455(9) 0.0577(6) -0.1292(5)
O8 O 0.1096(10) 0.1094(6) -0.2891(5)
O9 O 0.3348(9) 0.3605(6) 0.6005(4)
O10 O 0.1290(9) 0.3836(6) 0.7124(5)
O11 O 0.6556(9) 0.3215(5) 0.6301(4)
O12 O 0.2114(9) 0.3545(6) 0.8724(5)
O13 O -0.0127(8) 0.3658(6) 0.3172(5)
O14 O -0.2180(9) 0.3980(5) 0.4226(4)
O15 O -0.0813(9) 0.3744(6) 0.1545(5)
O16 O -0.5464(8) 0.4344(5) 0.3853(4)
O17 O 0.0507(11) 0.2638(6) 0.0209(5)
O18 O -0.0280(9) 0.2241(5) 0.5580(4)
O19 O 0.0796(8) 0.5491(5) 0.4125(4)
C1 C 0.3659(13) 0.1744(7) 0.1921(7)
C2 C 0.4977(12) 0.1749(7) 0.2571(6)
C3 C 0.4500(13) 0.1920(7) 0.3459(6)
C4 C 0.5731(14) 0.1863(8) 0.4099(7)
C5 C 0.7497(13) 0.1640(8) 0.3844(7)
C6 C 0.8008(15) 0.1470(9) 0.2961(8)
C7 C 0.6800(13) 0.1530(7) 0.2335(6)
C8 C 0.2590(14) 0.0886(8) -0.1189(6)
C9 C 0.3718(12) 0.0833(7) -0.2043(6)
C10 C 0.5596(13) 0.0662(7) -0.2063(7)
C11 C 0.6626(14) 0.0579(7) -0.2859(8)
C12 C 0.5770(16) 0.0647(9) -0.3654(7)
C13 C 0.3911(15) 0.0819(8) -0.3663(7)
C14 C 0.2933(14) 0.0930(8) -0.2881(7)
C15 C 0.2886(12) 0.3625(7) 0.6829(6)
C16 C 0.4245(13) 0.3361(7) 0.7493(6)
C17 C 0.6078(13) 0.3155(7) 0.7202(7)
C18 C 0.7349(14) 0.2921(8) 0.7810(7)
C19 C 0.6842(15) 0.2875(8) 0.8715(7)
C20 C 0.5104(14) 0.3074(8) 0.9020(7)
C21 C 0.3807(3) 0.3327(7) 0.8412(7)
C22 C -0.1727(12) 0.3892(7) 0.3411(6)
C23 C -0.3080(12) 0.4032(7) 0.2740(6)
C24 C -0.2584(14) 0.3954(7) 0.1823(7)
C25 C -0.3817(14) 0.4088(8) 0.1201(7)
C26 C -0.5559(15) 0.4311(8) 0.1452(7)
C27 C -0.6174(13) 0.4395(8) 0.2364(7)
C28 C -0.4909(13) 0.4262(7) 0.2987(6)
H1 H 0.049 0.321 0.061
H2 H 0.126 0.305 -0.028
H3 H -0.144 0.244 0.582
H4 H 0.042 0.188 0.604
H5 H 0.031 0.562 0.359
H6 H 0.186 0.575 0.403
H7 H 0.531 0.198 0.474
H8 H 0.843 0.163 0.432
H9 H 0.931 0.124 0.276
H10 H 0.204 0.211 0.328
H11 H 0.646 0.146 0.112
H12 H 0.809 0.051 -0.288
H13 H 0.645 0.056 -0.425
H14 H 0.327 0.084 -0.426
H15 H 0.563 0.065 -0.081
H16 H 0.061 0.112 -0.232
H17 H 0.876 0.278 0.760
H18 H 0.774 0.264 0.917
H19 H 0.482 0.307 0.969
H20 H 0.553 0.340 0.600
H21 H 0.141 0.370 0.825
H22 H -0.342 0.404 0.053
H23 H -0.643 0.441 0.097
H24 H -0.757 0.454 0.256
H25 H -0.013 0.367 0.202
H26 H -0.452 0.424 0.420
O7A O 0.3545(9) -0.0577(6) 0.1292(5)
O16_2 O 0.4536(8) 0.4344(5) 0.3853(4)
O19A O -0.0796(8) 0.4509(5) 0.5875(4)
Pb1A Pb 0.8679(1) -0.1022(1) -0.0772(1)
Pb2_2 Pb -0.8784(1) 0.3654(1) 0.4644(1)
Pb2A Pb -0.1216(1) 0.6346(1) 0.5356(1)
H15A H 0.437 -0.065 0.081
H26_2 H 0.548 0.424 0.420
H5A H -0.031 0.438 0.641
H6A H -0.186 0.425 0.597
loop_
_geom_bond_atom_site_label_1
_geom_bond_atom_site_label_2
_geom_bond_site_symmetry_1
_geom_bond_site_symmetry_2
Pb1 O1 1_555 1_555
Pb2 O3 1_555 1_555
O1 C1 1_555 1_555
O2 Pb1 1_555 1_555
O3 C3 1_555 1_555
O4 C7 1_555 1_555
O5 Pb1 1_555 1_555
O6 Pb1 1_555 1_555
O7 C10 1_555 1_555
O8 C14 1_555 1_555
O9 Pb2 1_555 1_555
O10 C15 1_555 1_555
O11 C17 1_555 1_555
O12 C21 1_555 1_555
O13 Pb2 1_555 1_555
O14 Pb2 1_555 1_555
O15 C24 1_555 1_555
O16 C28 1_555 1_555
O17 Pb1 1_555 1_555
O18 Pb2 1_555 1_555
O19 Pb2 1_555 1_555
C1 O2 1_555 1_555
C2 C1 1_555 1_555
C3 C2 1_555 1_555
C4 C3 1_555 1_555
C5 C4 1_555 1_555
C6 C5 1_555 1_555
C7 C2 1_555 1_555
C8 O5 1_555 1_555
C9 C8 1_555 1_555
C10 C9 1_555 1_555
C11 C10 1_555 1_555
C12 C11 1_555 1_555
C13 C12 1_555 1_555
C14 C9 1_555 1_555
C15 O9 1_555 1_555
C16 C15 1_555 1_555
C17 C16 1_555 1_555
C18 C17 1_555 1_555
C19 C18 1_555 1_555
C20 C19 1_555 1_555
C21 C16 1_555 1_555
C22 O13 1_555 1_555
C23 C22 1_555 1_555
C24 C23 1_555 1_555
C25 C24 1_555 1_555
C26 C25 1_555 1_555
C27 C26 1_555 1_555
C28 C23 1_555 1_555
H1 O17 1_555 1_555
H2 O17 1_555 1_555
H3 O18 1_555 1_555
H4 O18 1_555 1_555
H5 O19 1_555 1_555
H6 O19 1_555 1_555
H7 C4 1_555 1_555
H8 C5 1_555 1_555
H9 C6 1_555 1_555
H10 O3 1_555 1_555
H11 O4 1_555 1_555
H12 C11 1_555 1_555
H13 C12 1_555 1_555
H14 C13 1_555 1_555
H15 O7 1_555 1_555
H16 O8 1_555 1_555
H17 C18 1_555 1_555
H18 C19 1_555 1_555
H19 C20 1_555 1_555
H20 O11 1_555 1_555
H21 O12 1_555 1_555
H22 C25 1_555 1_555
H23 C26 1_555 1_555
H24 C27 1_555 1_555
H25 O15 1_555 1_555
H26 O16 1_555 1_555
O7A Pb1 1_555 1_555
O16_2 Pb2 1_555 1_555
O19A Pb2 1_555 1_555
Pb1A O7 1_555 1_555
Pb2_2 O16 1_555 1_555
Pb2A O19 1_555 1_555
H15A O7A 1_555 1_555
H26_2 O16_2 1_555 1_555
H5A O19A 1_555 1_555
H6A O19A 1_555 1_555
O6 C8 1_555 1_555
O14 C22 1_555 1_555
C6 C7 1_555 1_555
C13 C14 1_555 1_555
C20 C21 1_555 1_555
C27 C28 1_555 1_555
O19A Pb2A 1_555 1_555

#END
