
#######################################################################
#
#                 Cambridge Crystallographic Data Centre
#                                CCDC 
#
#######################################################################
#
# If this CIF has been generated from an entry in the Cambridge 
# Structural Database, then it will include bibliographic, chemical, 
# crystal, experimental, refinement or atomic coordinate data resulting 
# from the CCDC's data processing and validation procedures.
#
#######################################################################

data_LAJDAC
_symmetry_cell_setting           monoclinic
_symmetry_space_group_name_H-M   'P 21/n'
_symmetry_Int_Tables_number      14
_space_group_name_Hall           '-P 2yn'
loop_
_symmetry_equiv_pos_site_id
_symmetry_equiv_pos_as_xyz
1 x,y,z
2 1/2+x,1/2-y,1/2+z
3 -x,-y,-z
4 1/2-x,1/2+y,1/2-z
_cell_length_a                   20.019(3)
_cell_length_b                   7.2088(7)
_cell_length_c                   20.640(2)
_cell_angle_alpha                90
_cell_angle_beta                 96.641(9)
_cell_angle_gamma                90
_cell_volume                     2958.63
loop_
_atom_site_label
_atom_site_type_symbol
_atom_site_fract_x
_atom_site_fract_y
_atom_site_fract_z
Fe1 Fe 0.66795(2) 0.22330(6) 0.10402(2)
Fe2 Fe 0.44611(2) 0.21330(6) 0.31992(3)
Cu1 Cu 0.599800(19) -0.27103(5) 0.25529(2)
N1 N 0.62675(15) -0.0686(4) 0.19847(16)
N2 N 0.80902(16) 0.2074(4) 0.17845(16)
N3 N 0.62657(14) 0.5426(4) 0.19211(16)
N4 N 0.70085(16) -0.1231(4) 0.02603(18)
N5 N 0.40683(19) 0.1722(5) 0.17278(19)
N6 N 0.55358(14) -0.0743(4) 0.30093(16)
N7 N 0.54062(14) -0.4644(4) 0.28934(16)
N8 N 0.36233(17) -0.1351(4) 0.34178(19)
N9 N 0.69446(13) 0.3723(3) 0.03053(15)
N10 N 0.57916(13) 0.2425(3) 0.05058(14)
N11 N 0.46670(14) 0.2493(3) 0.41535(15)
N12 N 0.36576(14) 0.3622(4) 0.33612(17)
C1 C 0.64165(16) 0.0472(4) 0.16591(19)
C2 C 0.75631(18) 0.2125(4) 0.15159(18)
C3 C 0.64357(17) 0.4296(5) 0.15842(19)
C4 C 0.68898(16) 0.0052(5) 0.05512(19)
C5 C 0.42203(18) 0.1880(5) 0.2279(2)
C6 C 0.51660(17) 0.0406(4) 0.30899(19)
C7 C 0.50489(17) -0.5775(5) 0.30225(19)
C8 C 0.39247(17) -0.0067(5) 0.33352(18)
C9 C 0.75648(18) 0.4391(5) 0.0256(2)
H1 H 0.7888 0.4355 0.0618
C10 C 0.7726(2) 0.5124(5) -0.0318(2)
C11 C 0.7265(2) 0.5205(6) -0.0848(3)
C12 C 0.6619(2) 0.4560(5) -0.0802(2)
C13 C 0.64767(17) 0.3814(4) -0.02159(18)
C14 C 0.58120(17) 0.3122(4) -0.00994(18)
C15 C 0.52422(19) 0.3211(5) -0.0541(2)
C16 C 0.4632(2) 0.2646(5) -0.0354(2)
C17 C 0.46122(19) 0.2029(5) 0.0276(2)
C18 C 0.51982(17) 0.1914(5) 0.0693(2)
C19 C 0.5239(2) 0.2004(5) 0.4518(2)
C20 C 0.5325(3) 0.2206(5) 0.5183(2)
C21 C 0.4805(3) 0.2898(6) 0.5489(2)
C22 C 0.4222(3) 0.3434(6) 0.5120(2)
C23 C 0.41596(18) 0.3248(4) 0.4447(2)
C24 C 0.35906(18) 0.3857(4) 0.4000(2)
C25 C 0.3005(2) 0.4606(6) 0.4188(3)
C26 C 0.2494(2) 0.5048(6) 0.3733(3)
C27 C 0.2556(2) 0.4819(6) 0.3083(3)
C28 C 0.3154(2) 0.4109(6) 0.2914(3)
H2 H 0.5219(15) 0.148(4) 0.1152(18)
H3 H 0.4176(18) 0.170(4) 0.0436(18)
H4 H 0.424(2) 0.278(5) -0.064(2)
H5 H 0.5236(18) 0.358(5) -0.101(2)
H6 H 0.626(2) 0.457(5) -0.117(2)
H7 H 0.7356(19) 0.564(5) -0.119(2)
H8 H 0.814(2) 0.547(5) -0.033(2)
H9 H 0.557(2) 0.148(5) 0.427(2)
H10 H 0.573(2) 0.196(6) 0.546(2)
H11 H 0.484(2) 0.310(5) 0.591(2)
H12 H 0.3869(18) 0.390(5) 0.5263(19)
H13 H 0.299(2) 0.469(6) 0.461(2)
H14 H 0.2131(19) 0.552(5) 0.382(2)
H15 H 0.228(2) 0.515(6) 0.272(2)
H16 H 0.3264(17) 0.404(5) 0.2531(19)
C7_2 C 0.50489(17) 0.4225(5) 0.30225(19)
N2C N 0.69098(16) -0.2926(4) 0.32155(16)
N3_2 N 0.62657(14) -0.4574(4) 0.19211(16)
Cu1C Cu 0.900200(19) 0.22897(5) 0.24471(2)
Cu1_2 Cu 0.599800(19) 0.72897(5) 0.25529(2)
Fe2_2 Fe 0.44611(2) -0.78670(6) 0.31992(3)
O1 O 0.8386(2) 0.7923(7) 0.1008(3)
O2 O 0.4202(6) 0.7381(11) 0.2025(5)
loop_
_geom_bond_atom_site_label_1
_geom_bond_atom_site_label_2
_geom_bond_site_symmetry_1
_geom_bond_site_symmetry_2
Fe1 N9 1_555 1_555
Fe2 N11 1_555 1_555
Cu1 N1 1_555 1_555
N1 C1 1_555 1_555
N2 C2 1_555 1_555
N3 C3 1_555 1_555
N4 C4 1_555 1_555
N5 C5 1_555 1_555
N6 Cu1 1_555 1_555
N7 Cu1 1_555 1_555
N8 C8 1_555 1_555
N9 C9 1_555 1_555
N10 Fe1 1_555 1_555
N11 C19 1_555 1_555
N12 Fe2 1_555 1_555
C1 Fe1 1_555 1_555
C2 Fe1 1_555 1_555
C3 Fe1 1_555 1_555
C4 Fe1 1_555 1_555
C5 Fe2 1_555 1_555
C6 Fe2 1_555 1_555
C7 N7 1_555 1_555
C8 Fe2 1_555 1_555
C9 H1 1_555 1_555
C10 C9 1_555 1_555
C11 C10 1_555 1_555
C12 C11 1_555 1_555
C13 N9 1_555 1_555
C14 N10 1_555 1_555
C15 C14 1_555 1_555
C16 C15 1_555 1_555
C17 C16 1_555 1_555
C18 N10 1_555 1_555
C19 C20 1_555 1_555
C20 C21 1_555 1_555
C21 C22 1_555 1_555
C22 C23 1_555 1_555
C23 N11 1_555 1_555
C24 N12 1_555 1_555
C25 C24 1_555 1_555
C26 C25 1_555 1_555
C27 C26 1_555 1_555
C28 N12 1_555 1_555
H2 C18 1_555 1_555
H3 C17 1_555 1_555
H4 C16 1_555 1_555
H5 C15 1_555 1_555
H6 C12 1_555 1_555
H7 C11 1_555 1_555
H8 C10 1_555 1_555
H9 C19 1_555 1_555
H10 C20 1_555 1_555
H11 C21 1_555 1_555
H12 C22 1_555 1_555
H13 C25 1_555 1_555
H14 C26 1_555 1_555
H15 C27 1_555 1_555
H16 C28 1_555 1_555
C7_2 Fe2 1_555 1_555
N2C Cu1 1_555 1_555
N3_2 Cu1 1_555 1_555
Cu1C N2 1_555 1_555
Cu1_2 N3 1_555 1_555
Fe2_2 C7 1_555 1_555
N6 C6 1_555 1_555
C12 C13 1_555 1_555
C13 C14 1_555 1_555
C17 C18 1_555 1_555
C23 C24 1_555 1_555
C27 C28 1_555 1_555

#END
