
#######################################################################
#
#                 Cambridge Crystallographic Data Centre
#                                CCDC 
#
#######################################################################
#
# If this CIF has been generated from an entry in the Cambridge 
# Structural Database, then it will include bibliographic, chemical, 
# crystal, experimental, refinement or atomic coordinate data resulting 
# from the CCDC's data processing and validation procedures.
#
#######################################################################

data_LAJDUV01
_symmetry_cell_setting           hexagonal
_symmetry_space_group_name_H-M   'P 64 2 2'
_symmetry_Int_Tables_number      181
_space_group_name_Hall           "P 64 2' (0,0,2)"
loop_
_symmetry_equiv_pos_site_id
_symmetry_equiv_pos_as_xyz
1 x,y,z
2 x-y,x,2/3+z
3 -y,-x,1/3-z
4 -y,x-y,1/3+z
5 x-y,-y,-z
6 -x,-y,z
7 x,x-y,2/3-z
8 -x+y,-x,2/3+z
9 y,x,1/3-z
10 y,-x+y,1/3+z
11 -x+y,y,-z
12 -x,-x+y,2/3-z
_cell_length_a                   8.939(2)
_cell_length_b                   8.939(2)
_cell_length_c                   10.893(2)
_cell_angle_alpha                90
_cell_angle_beta                 90
_cell_angle_gamma                120
_cell_volume                     753.8
loop_
_atom_site_label
_atom_site_type_symbol
_atom_site_fract_x
_atom_site_fract_y
_atom_site_fract_z
Ti1 Ti 1.00000 0.50000 0.83333
O1 O 0.76296(7) 0.44900(7) 0.72365(6)
O2 O 0.92389(6) 0.27249(6) 0.72987(5)
C1 C 0.69175(3) 0.30825(3) 0.6667
C2 C 0.78951(3) 0.21049(3) 0.6667
O1B O 0.55100(7) 0.23704(7) 0.60968(6)
Ti1B Ti 0.50000 0.00000 0.50000
O1H O 0.44900(7) -0.23704(7) 0.60968(6)
C1H C 0.30825(3) -0.30825(3) 0.6666
O1E O 0.23704(7) -0.44900(7) 0.72365(6)
Ti1_2 Ti 0.00000 -0.50000 0.83333
O2B O 0.72751(6) 0.07611(6) 0.60346(5)
O1G O 0.68604(10) 0.23704(7) 0.39032(6)
O2G O 0.34860(8) 0.07611(6) 0.39654(5)
O1A O 0.31396(10) -0.23704(7) 0.39032(6)
O2A O 0.65140(8) -0.07611(6) 0.39654(5)
O2H O 0.27249(6) -0.07611(6) 0.60346(5)
C2H C 0.21049(3) -0.21049(3) 0.6666
O2E O 0.07611(6) -0.27249(6) 0.72987(5)
O3 O 0.7502(2) 0.7502(2) 0.6667
H2 H 0.74995 0.64082 0.68793
H2H H 0.64082 0.74995 0.64540
N1 N 0.00000 0.00000 0.16667
H1 H 0.10432 0.01563 0.11621
H1B H -0.01563 -0.10432 0.21712
H1E H -0.10432 -0.01563 0.11621
H1H H 0.01563 0.10432 0.21712
loop_
_geom_bond_atom_site_label_1
_geom_bond_atom_site_label_2
_geom_bond_site_symmetry_1
_geom_bond_site_symmetry_2
Ti1 O1 1_555 1_555
O1 C1 1_555 1_555
O2 Ti1 1_555 1_555
O3 H2 1_555 1_555
C1 C2 1_555 1_555
C2 O2 1_555 1_555
N1 H1 1_555 1_555
O1B C1 1_555 1_555
Ti1B O1B 1_555 1_555
O1H Ti1B 1_555 1_555
C1H O1H 1_555 1_555
O1E C1H 1_555 1_555
Ti1_2 O1E 1_555 1_555
O2B C2 1_555 1_555
O1G Ti1B 1_555 1_555
O2G Ti1B 1_555 1_555
O1A Ti1B 1_555 1_555
O2A Ti1B 1_555 1_555
O2H Ti1B 1_555 1_555
C2H C1H 1_555 1_555
O2E Ti1_2 1_555 1_555
H2H O3 1_555 1_555
H1B N1 1_555 1_555
H1E N1 1_555 1_555
H1H N1 1_555 1_555
Ti1B O2B 1_555 1_555
O2H C2H 1_555 1_555
C2H O2E 1_555 1_555

#END
