
#######################################################################
#
#                 Cambridge Crystallographic Data Centre
#                                CCDC 
#
#######################################################################
#
# If this CIF has been generated from an entry in the Cambridge 
# Structural Database, then it will include bibliographic, chemical, 
# crystal, experimental, refinement or atomic coordinate data resulting 
# from the CCDC's data processing and validation procedures.
#
#######################################################################

data_LAJDUV
_symmetry_cell_setting           hexagonal
_symmetry_space_group_name_H-M   'P 62 2 2'
_symmetry_Int_Tables_number      180
_space_group_name_Hall           "P 62 2' (0,0,4)"
loop_
_symmetry_equiv_pos_site_id
_symmetry_equiv_pos_as_xyz
1 x,y,z
2 x-y,x,1/3+z
3 -y,-x,2/3-z
4 -y,x-y,2/3+z
5 x-y,-y,-z
6 -x,-y,z
7 x,x-y,1/3-z
8 -x+y,-x,1/3+z
9 y,x,2/3-z
10 y,-x+y,2/3+z
11 -x+y,y,-z
12 -x,-x+y,1/3-z
_cell_length_a                   8.935(3)
_cell_length_b                   8.935(3)
_cell_length_c                   10.878(4)
_cell_angle_alpha                90
_cell_angle_beta                 90
_cell_angle_gamma                120
_cell_volume                     752.088
loop_
_atom_site_label
_atom_site_type_symbol
_atom_site_fract_x
_atom_site_fract_y
_atom_site_fract_z
Ti1 Ti 0.5000 0.5000 0.3333
O1 O 0.5511(3) 0.3140(3) 0.4430(3)
O2 O 0.9232(3) 0.6505(3) 0.5628(2)
C1 C 0.6920(3) 0.3840(6) 0.5000
C2 C 0.7895(3) 0.5791(7) 0.5000
O1J O 0.7629(4) 0.3140(3) 0.5570(3)
O2J O 0.7273(4) 0.6505(3) 0.4372(2)
O1B O 0.6860(3) 0.4489(3) 0.2237(3)
O2B O 0.3495(3) 0.0768(3) 0.1039(2)
C1B C 0.6160(6) 0.3080(3) 0.1667
C2B C 0.4209(7) 0.2105(3) 0.1667
O1C O 0.6860(3) 0.2371(4) 0.1097(3)
O2C O 0.3495(3) 0.2727(4) 0.2295(2)
O1E O 0.4489(3) 0.6860(3) 0.4430(3)
O1H O 0.3140(3) 0.5511(3) 0.2237(3)
O2D O 0.2727(4) 0.3495(3) 0.4372(2)
O2I O 0.6505(3) 0.7273(4) 0.2295(2)
Ti1A Ti 1.0000 0.5000 0.6666
Ti1C Ti 0.5000 0.0000 -0.0000
O3 O 0.2504(6) 0.0000 0.5000
H1 H 0.2378(91) -0.0892(92) 0.5179(63)
H1D H 0.327(13) 0.0892(92) 0.4821(63)
N1 N 0.0000 0.0000 0.0000
H2 H -0.0282(99) 0.0815(88) 0.0506(60)
H2D H -0.110(13) -0.0815(88) -0.0506(60)
H2E H 0.0282(99) -0.0815(88) 0.0506(60)
H2J H 0.110(13) 0.0815(88) -0.0506(60)
loop_
_geom_bond_atom_site_label_1
_geom_bond_atom_site_label_2
_geom_bond_site_symmetry_1
_geom_bond_site_symmetry_2
Ti1 O1 1_555 1_555
O1 C1 1_555 1_555
O2 C2 1_555 1_555
O3 H1 1_555 1_555
C1 C2 1_555 1_555
C2 O2J 1_555 1_555
N1 H2 1_555 1_555
O1J C1 1_555 1_555
O2J Ti1 1_555 1_555
H1D O3 1_555 1_555
H2D N1 1_555 1_555
H2E N1 1_555 1_555
H2J N1 1_555 1_555
O1B Ti1 1_555 1_555
O2B C2B 1_555 1_555
C1B O1B 1_555 1_555
C2B C1B 1_555 1_555
O1C C1B 1_555 1_555
O2C Ti1 1_555 1_555
O1E Ti1 1_555 1_555
O1H Ti1 1_555 1_555
O2D Ti1 1_555 1_555
O2I Ti1 1_555 1_555
Ti1A O2 1_555 1_555
Ti1C O2B 1_555 1_555
O1J Ti1A 1_555 1_555
C2B O2C 1_555 1_555
O1C Ti1C 1_555 1_555

#END
