
#######################################################################
#
#                 Cambridge Crystallographic Data Centre
#                                CCDC 
#
#######################################################################
#
# If this CIF has been generated from an entry in the Cambridge 
# Structural Database, then it will include bibliographic, chemical, 
# crystal, experimental, refinement or atomic coordinate data resulting 
# from the CCDC's data processing and validation procedures.
#
#######################################################################

data_LAJGUZ
_symmetry_cell_setting           triclinic
_symmetry_space_group_name_H-M   'P -1'
_symmetry_Int_Tables_number      2
_space_group_name_Hall           '-P 1'
loop_
_symmetry_equiv_pos_site_id
_symmetry_equiv_pos_as_xyz
1 x,y,z
2 -x,-y,-z
_cell_length_a                   12.4789(12)
_cell_length_b                   13.4919(13)
_cell_length_c                   14.0858(13)
_cell_angle_alpha                92.760(5)
_cell_angle_beta                 107.627(5)
_cell_angle_gamma                105.936(4)
_cell_volume                     2150.91
loop_
_atom_site_label
_atom_site_type_symbol
_atom_site_fract_x
_atom_site_fract_y
_atom_site_fract_z
Cd1 Cd 0.0000 0.0000 0.0000
Fe1 Fe 0.45196(5) -0.39727(4) -0.24843(4)
O1 O 0.2809(2) -0.4034(2) -0.2981(2)
O2 O 0.4833(3) -0.2464(2) -0.2031(2)
O3 O 0.4610(2) -0.3808(2) -0.3849(2)
O4 O 0.6234(2) -0.3784(2) -0.2066(2)
O5 O 0.4384(2) 0.5797(2) -0.1114(2)
O6 O 0.4088(3) 0.4474(2) -0.2731(2)
O7 O 0.1315(6) 0.0495(7) 0.1700(5)
N1 N 0.1002(4) -0.0920(3) -0.0719(3)
N2 N 0.9306(5) -0.2945(7) -0.5036(4)
N3 N 0.1064(3) 0.1492(3) -0.0470(3)
N4 N 0.2146(9) 0.0313(6) 0.2071(7)
C1 C 0.2328(4) -0.3481(4) -0.2579(3)
C2 C 0.2939(4) -0.2529(4) -0.1961(4)
C3 C 0.4160(4) -0.2039(3) -0.1748(4)
C4 C 0.4770(6) -0.0997(5) -0.1132(6)
H1 H 0.5616 -0.0771 -0.1055
H2 H 0.4420 -0.0535 -0.1457
H3 H 0.4667 -0.1005 -0.0482
C5 C 0.1012(5) -0.3957(5) -0.2837(5)
H4 H 0.0741 -0.4614 -0.3270
H5 H 0.0808 -0.4047 -0.2233
H6 H 0.0627 -0.3522 -0.3176
C6 C 0.1403(8) -0.1665(6) -0.0294(5)
H7 H 0.1220 -0.1833 0.0303
C7 C 0.2018(8) -0.2176(6) -0.0676(6)
H8 H 0.2298 -0.2666 -0.0339
C8 C 0.2249(4) -0.1959(4) -0.1539(4)
C9 C 0.1819(6) -0.1211(5) -0.1993(4)
H9 H 0.1958 -0.1055 -0.2608
C10 C 0.1187(5) -0.0721(4) -0.1582(4)
H10 H 0.0902 -0.0225 -0.1904
C11 C 0.5486(4) -0.3603(4) -0.4180(3)
C12 C 0.6646(4) -0.3526(3) -0.3590(3)
C13 C 0.6973(4) -0.3613(3) -0.2552(3)
C14 C 0.8210(4) -0.3518(6) -0.1942(4)
H11 H 0.8193 -0.3757 -0.1327
H12 H 0.8738 -0.2813 -0.1795
H13 H 0.8513 -0.3920 -0.2318
C15 C 0.5184(5) -0.3435(5) -0.5258(4)
H14 H 0.4467 -0.3260 -0.5450
H15 H 0.5087 -0.4055 -0.5680
H16 H 0.5866 -0.2902 -0.5315
C16 C 0.9220(6) -0.2191(7) -0.4449(6)
H17 H 0.9783 -0.1509 -0.4361
C17 C 0.8378(5) -0.2347(5) -0.3971(5)
H18 H 0.8337 -0.1780 -0.3561
C18 C 0.7586(4) -0.3322(4) -0.4083(4)
C19 C 0.7698(4) -0.4091(5) -0.4692(4)
H19 H 0.7149 -0.4784 -0.4810
C20 C 0.8557(5) -0.3870(8) -0.5146(5)
H20 H 0.8629 -0.4419 -0.5558
C21 C 0.3681(3) 0.5024(3) -0.0898(3)
C22 C 0.3221(4) 0.4019(3) -0.1467(3)
C23 C 0.3516(4) 0.3794(3) -0.2323(3)
C24 C 0.3179(6) 0.2687(4) -0.2806(5)
H21 H 0.3712 0.2638 -0.3176
H22 H 0.2361 0.2434 -0.3256
H23 H 0.3241 0.2269 -0.2301
C25 C 0.3382(4) 0.5252(4) 0.0033(3)
H24 H 0.3424 0.4723 0.0420
H25 H 0.2585 0.5287 -0.0142
H26 H 0.3945 0.5906 0.0427
C26 C 0.0595(4) 0.1958(4) -0.1234(5)
H27 H -0.0266 0.1691 -0.1553
C27 C 0.1251(4) 0.2782(4) -0.1572(4)
H28 H 0.0867 0.3068 -0.2107
C28 C 0.2476(4) 0.3151(3) -0.1105(3)
C29 C 0.2957(4) 0.2674(4) -0.0312(4)
H29 H 0.3814 0.2926 0.0029
C30 C 0.2230(4) 0.1859(4) -0.0021(4)
H30 H 0.2585 0.1562 0.0518
O8 O 0.275(2) 0.049(3) 0.2991(9)
O9 O 0.258(2) -0.0065(17) 0.1507(11)
O7A O -0.1315(6) -0.0495(7) -0.1700(5)
N4A N -0.2146(9) -0.0313(6) -0.2071(7)
O8A O -0.275(2) -0.049(3) -0.2991(9)
O9A O -0.258(2) 0.0065(17) -0.1507(11)
O1A O -0.2809(2) 0.4034(2) 0.2981(2)
O2A O -0.4833(3) 0.2464(2) 0.2031(2)
N1A N -0.1002(4) 0.0920(3) 0.0719(3)
C1A C -0.2328(4) 0.3481(4) 0.2579(3)
C2A C -0.2939(4) 0.2529(4) 0.1961(4)
C3A C -0.4160(4) 0.2039(3) 0.1748(4)
C4A C -0.4770(6) 0.0997(5) 0.1132(6)
H1A H -0.5616 0.0771 0.1055
H2A H -0.4420 0.0535 0.1457
H3A H -0.4667 0.1005 0.0482
C5A C -0.1012(5) 0.3957(5) 0.2837(5)
H4A H -0.0741 0.4614 0.3270
H5A H -0.0808 0.4047 0.2233
H6A H -0.0627 0.3522 0.3176
C6A C -0.1403(8) 0.1665(6) 0.0294(5)
H7A H -0.1220 0.1833 -0.0303
C7A C -0.2018(8) 0.2176(6) 0.0676(6)
H8A H -0.2298 0.2666 0.0339
C8A C -0.2249(4) 0.1959(4) 0.1539(4)
C9A C -0.1819(6) 0.1211(5) 0.1993(4)
H9A H -0.1958 0.1055 0.2608
C10A C -0.1187(5) 0.0721(4) 0.1582(4)
H10A H -0.0902 0.0225 0.1904
O5A O -0.4384(2) -0.5797(2) 0.1114(2)
O6A O -0.4088(3) -0.4474(2) 0.2731(2)
N3A N -0.1064(3) -0.1492(3) 0.0470(3)
C21A C -0.3681(3) -0.5024(3) 0.0898(3)
C22A C -0.3221(4) -0.4019(3) 0.1467(3)
C23A C -0.3516(4) -0.3794(3) 0.2323(3)
C24A C -0.3179(6) -0.2687(4) 0.2806(5)
H21A H -0.3712 -0.2638 0.3176
H22A H -0.2361 -0.2434 0.3256
H23A H -0.3241 -0.2269 0.2301
C25A C -0.3382(4) -0.5252(4) -0.0033(3)
H24A H -0.3424 -0.4723 -0.0420
H25A H -0.2585 -0.5287 0.0142
H26A H -0.3945 -0.5906 -0.0427
C26A C -0.0595(4) -0.1958(4) 0.1234(5)
H27A H 0.0266 -0.1691 0.1553
C27A C -0.1251(4) -0.2782(4) 0.1572(4)
H28A H -0.0867 -0.3068 0.2107
C28A C -0.2476(4) -0.3151(3) 0.1105(3)
C29A C -0.2957(4) -0.2674(4) 0.0312(4)
H29A H -0.3814 -0.2926 -0.0029
C30A C -0.2230(4) -0.1859(4) 0.0021(4)
H30A H -0.2585 -0.1562 -0.0518
Fe1A Fe -0.45196(5) 0.39727(4) 0.24843(4)
O3A O -0.4610(2) 0.3808(2) 0.3849(2)
O4A O -0.6234(2) 0.3784(2) 0.2066(2)
N2A N -0.9306(5) 0.2945(7) 0.5036(4)
C11A C -0.5486(4) 0.3603(4) 0.4180(3)
C12A C -0.6646(4) 0.3526(3) 0.3590(3)
C13A C -0.6973(4) 0.3613(3) 0.2552(3)
C14A C -0.8210(4) 0.3518(6) 0.1942(4)
H11A H -0.8193 0.3757 0.1327
H12A H -0.8738 0.2813 0.1795
H13A H -0.8513 0.3920 0.2318
C15A C -0.5184(5) 0.3435(5) 0.5258(4)
H14A H -0.4467 0.3260 0.5450
H15A H -0.5087 0.4055 0.5680
H16A H -0.5866 0.2902 0.5315
C16A C -0.9220(6) 0.2191(7) 0.4449(6)
H17A H -0.9783 0.1509 0.4361
C17A C -0.8378(5) 0.2347(5) 0.3971(5)
H18A H -0.8337 0.1780 0.3561
C18A C -0.7586(4) 0.3322(4) 0.4083(4)
C19A C -0.7698(4) 0.4091(5) 0.4692(4)
H19A H -0.7149 0.4784 0.4810
C20A C -0.8557(5) 0.3870(8) 0.5146(5)
H20A H -0.8629 0.4419 0.5558
O5_2 O 0.4384(2) -0.4203(2) -0.1114(2)
O6_2 O 0.4088(3) -0.5526(2) -0.2731(2)
Fe1_2 Fe 0.45196(5) 0.60273(4) -0.24843(4)
Fe1A_2 Fe -0.45196(5) -0.60273(4) 0.24843(4)
O5A_2 O -0.4384(2) 0.4203(2) 0.1114(2)
O6A_2 O -0.4088(3) 0.5526(2) 0.2731(2)
O12 O 1.0908(10) 0.7202(19) -0.6075(9)
O10? O 0.232(2) -0.0496(19) 0.175(3)
O11? O 0.302(3) 0.088(3) 0.277(4)
O13? O 1.1975(17) 0.8848(16) -0.6394(17)
loop_
_geom_bond_atom_site_label_1
_geom_bond_atom_site_label_2
_geom_bond_site_symmetry_1
_geom_bond_site_symmetry_2
Cd1 O7 1_555 1_555
Fe1 O1 1_555 1_555
O1 C1 1_555 1_555
O2 Fe1 1_555 1_555
O3 Fe1 1_555 1_555
O4 Fe1 1_555 1_555
O5 C21 1_555 1_555
O6 C23 1_555 1_555
O7 N4 1_555 1_555
N1 Cd1 1_555 1_555
N2 C16 1_555 1_555
N3 Cd1 1_555 1_555
N4 O8 1_555 1_555
C1 C2 1_555 1_555
C2 C3 1_555 1_555
C3 O2 1_555 1_555
C4 C3 1_555 1_555
H1 C4 1_555 1_555
H2 C4 1_555 1_555
H3 C4 1_555 1_555
C5 C1 1_555 1_555
H4 C5 1_555 1_555
H5 C5 1_555 1_555
H6 C5 1_555 1_555
C6 N1 1_555 1_555
H7 C6 1_555 1_555
C7 C6 1_555 1_555
H8 C7 1_555 1_555
C8 C2 1_555 1_555
C9 C8 1_555 1_555
H9 C9 1_555 1_555
C10 N1 1_555 1_555
H10 C10 1_555 1_555
C11 O3 1_555 1_555
C12 C11 1_555 1_555
C13 O4 1_555 1_555
C14 C13 1_555 1_555
H11 C14 1_555 1_555
H12 C14 1_555 1_555
H13 C14 1_555 1_555
C15 C11 1_555 1_555
H14 C15 1_555 1_555
H15 C15 1_555 1_555
H16 C15 1_555 1_555
C16 H17 1_555 1_555
C17 C16 1_555 1_555
H18 C17 1_555 1_555
C18 C12 1_555 1_555
C19 C18 1_555 1_555
H19 C19 1_555 1_555
C20 N2 1_555 1_555
H20 C20 1_555 1_555
C21 C22 1_555 1_555
C22 C23 1_555 1_555
C23 C24 1_555 1_555
C24 H21 1_555 1_555
H22 C24 1_555 1_555
H23 C24 1_555 1_555
C25 C21 1_555 1_555
H24 C25 1_555 1_555
H25 C25 1_555 1_555
H26 C25 1_555 1_555
C26 N3 1_555 1_555
H27 C26 1_555 1_555
C27 C26 1_555 1_555
H28 C27 1_555 1_555
C28 C22 1_555 1_555
C29 C28 1_555 1_555
H29 C29 1_555 1_555
C30 N3 1_555 1_555
H30 C30 1_555 1_555
O9 N4 1_555 1_555
O7A Cd1 1_555 1_555
N4A O7A 1_555 1_555
O8A N4A 1_555 1_555
O9A N4A 1_555 1_555
O1A C1A 1_555 1_555
O2A C3A 1_555 1_555
N1A Cd1 1_555 1_555
C1A C2A 1_555 1_555
C2A C3A 1_555 1_555
C3A C4A 1_555 1_555
C4A H1A 1_555 1_555
H2A C4A 1_555 1_555
H3A C4A 1_555 1_555
C5A C1A 1_555 1_555
H4A C5A 1_555 1_555
H5A C5A 1_555 1_555
H6A C5A 1_555 1_555
C6A N1A 1_555 1_555
H7A C6A 1_555 1_555
C7A C6A 1_555 1_555
H8A C7A 1_555 1_555
C8A C2A 1_555 1_555
C9A C8A 1_555 1_555
H9A C9A 1_555 1_555
C10A N1A 1_555 1_555
H10A C10A 1_555 1_555
O5A C21A 1_555 1_555
O6A C23A 1_555 1_555
N3A Cd1 1_555 1_555
C21A C22A 1_555 1_555
C22A C23A 1_555 1_555
C23A C24A 1_555 1_555
C24A H21A 1_555 1_555
H22A C24A 1_555 1_555
H23A C24A 1_555 1_555
C25A C21A 1_555 1_555
H24A C25A 1_555 1_555
H25A C25A 1_555 1_555
H26A C25A 1_555 1_555
C26A N3A 1_555 1_555
H27A C26A 1_555 1_555
C27A C26A 1_555 1_555
H28A C27A 1_555 1_555
C28A C22A 1_555 1_555
C29A C28A 1_555 1_555
H29A C29A 1_555 1_555
C30A N3A 1_555 1_555
H30A C30A 1_555 1_555
Fe1A O1A 1_555 1_555
O3A Fe1A 1_555 1_555
O4A Fe1A 1_555 1_555
N2A C16A 1_555 1_555
C11A O3A 1_555 1_555
C12A C11A 1_555 1_555
C13A O4A 1_555 1_555
C14A C13A 1_555 1_555
H11A C14A 1_555 1_555
H12A C14A 1_555 1_555
H13A C14A 1_555 1_555
C15A C11A 1_555 1_555
H14A C15A 1_555 1_555
H15A C15A 1_555 1_555
H16A C15A 1_555 1_555
C16A H17A 1_555 1_555
C17A C16A 1_555 1_555
H18A C17A 1_555 1_555
C18A C12A 1_555 1_555
C19A C18A 1_555 1_555
H19A C19A 1_555 1_555
C20A N2A 1_555 1_555
H20A C20A 1_555 1_555
O5_2 Fe1 1_555 1_555
O6_2 Fe1 1_555 1_555
Fe1_2 O5 1_555 1_555
Fe1A_2 O5A 1_555 1_555
O5A_2 Fe1A 1_555 1_555
O6A_2 Fe1A 1_555 1_555
O6 Fe1_2 1_555 1_555
C7 C8 1_555 1_555
C9 C10 1_555 1_555
C12 C13 1_555 1_555
C17 C18 1_555 1_555
C19 C20 1_555 1_555
C27 C28 1_555 1_555
C29 C30 1_555 1_555
O2A Fe1A 1_555 1_555
C7A C8A 1_555 1_555
C9A C10A 1_555 1_555
O6A Fe1A_2 1_555 1_555
C27A C28A 1_555 1_555
C29A C30A 1_555 1_555
C12A C13A 1_555 1_555
C17A C18A 1_555 1_555
C19A C20A 1_555 1_555

#END
