
#######################################################################
#
#                 Cambridge Crystallographic Data Centre
#                                CCDC 
#
#######################################################################
#
# If this CIF has been generated from an entry in the Cambridge 
# Structural Database, then it will include bibliographic, chemical, 
# crystal, experimental, refinement or atomic coordinate data resulting 
# from the CCDC's data processing and validation procedures.
#
#######################################################################

data_LAJGEK
_symmetry_cell_setting           monoclinic
_symmetry_space_group_name_H-M   'P 21/n'
_symmetry_Int_Tables_number      14
_space_group_name_Hall           '-P 2yn'
loop_
_symmetry_equiv_pos_site_id
_symmetry_equiv_pos_as_xyz
1 x,y,z
2 1/2-x,1/2+y,1/2-z
3 -x,-y,-z
4 1/2+x,1/2-y,1/2+z
_cell_length_a                   5.9673(6)
_cell_length_b                   11.4967(10)
_cell_length_c                   23.414(2)
_cell_angle_alpha                90
_cell_angle_beta                 92.072(4)
_cell_angle_gamma                90
_cell_volume                     1605.25
loop_
_atom_site_label
_atom_site_type_symbol
_atom_site_fract_x
_atom_site_fract_y
_atom_site_fract_z
Ag1 Ag 0.66957(3) 0.745528(13) 0.220426(6)
N1 N 0.8932(3) 0.58967(13) 0.23697(7)
H1 H 0.870(4) 0.562(2) 0.2721(10)
H2 H 1.018(4) 0.6242(19) 0.2455(9)
N2 N 0.6022(3) 0.38577(15) 0.22493(7)
H3 H 0.554(4) 0.436(2) 0.2487(10)
H4 H 0.488(4) 0.346(2) 0.2139(10)
N3 N 0.4081(3) 0.82755(15) 0.16069(7)
H5 H 0.372(4) 0.892(2) 0.1748(10)
H6 H 0.300(4) 0.782(2) 0.1590(10)
N4 N 0.6623(3) 1.02988(15) 0.13384(7)
H7 H 0.554(4) 1.070(2) 0.1153(10)
H8 H 0.780(5) 1.069(2) 0.1339(11)
C1 C 0.9245(3) 0.49820(14) 0.19348(7)
H9 H 1.0224 0.4360 0.2108
C2 C 0.6998(3) 0.44400(15) 0.17540(8)
H10 H 0.5957 0.5070 0.1616
C3 C 0.7283(3) 0.35652(16) 0.12731(8)
H11 H 0.5796 0.3253 0.1150
H12 H 0.8215 0.2907 0.1416
C4 C 0.8387(4) 0.41188(18) 0.07610(8)
H13 H 0.8588 0.3524 0.0462
H14 H 0.7403 0.4738 0.0599
C5 C 1.0657(4) 0.46344(18) 0.09411(9)
H15 H 1.1309 0.5031 0.0610
H16 H 1.1690 0.4002 0.1065
C6 C 1.0427(3) 0.55017(16) 0.14288(8)
H17 H 1.1938 0.5771 0.1558
H18 H 0.9573 0.6187 0.1286
C7 C 0.4808(3) 0.85002(15) 0.10174(8)
H19 H 0.3637 0.8979 0.0811
C8 C 0.7003(3) 0.91850(15) 0.10494(8)
H20 H 0.8097 0.8731 0.1294
C9 C 0.8001(3) 0.93141(17) 0.04624(8)
H21 H 0.9471 0.9711 0.0504
H22 H 0.6999 0.9805 0.0217
C10 C 0.8313(4) 0.81379(18) 0.01747(9)
H23 H 0.8921 0.8255 -0.0209
H24 H 0.9403 0.7666 0.0404
C11 C 0.6086(4) 0.74951(19) 0.01187(8)
H25 H 0.6325 0.6720 -0.0053
H26 H 0.5040 0.7935 -0.0138
C12 C 0.5050(3) 0.73493(16) 0.07040(8)
H27 H 0.3554 0.6984 0.0652
H28 H 0.6004 0.6820 0.0941
Ag1A Ag 0.83043(3) 0.245528(13) 0.279574(6)
N2A N 0.8978(3) 0.88577(15) 0.27507(7)
H3A H 0.946(4) 0.936(2) 0.2513(10)
H4A H 1.012(4) 0.846(2) 0.2861(10)
N5 N 0.3221(3) 0.64132(14) 0.32394(7)
O1 O 0.3041(2) 0.72104(12) 0.28719(6)
O2 O 0.3591(3) 0.53970(13) 0.30840(8)
O3 O 0.3033(3) 0.66382(17) 0.37526(7)
loop_
_geom_bond_atom_site_label_1
_geom_bond_atom_site_label_2
_geom_bond_site_symmetry_1
_geom_bond_site_symmetry_2
Ag1 N1 1_555 1_555
N1 H1 1_555 1_555
H2 N1 1_555 1_555
N2 H3 1_555 1_555
H4 N2 1_555 1_555
N3 Ag1 1_555 1_555
H5 N3 1_555 1_555
H6 N3 1_555 1_555
N4 H7 1_555 1_555
H8 N4 1_555 1_555
C1 N1 1_555 1_555
H9 C1 1_555 1_555
C2 N2 1_555 1_555
H10 C2 1_555 1_555
C3 C2 1_555 1_555
H11 C3 1_555 1_555
H12 C3 1_555 1_555
C4 C3 1_555 1_555
H13 C4 1_555 1_555
H14 C4 1_555 1_555
C5 C4 1_555 1_555
H15 C5 1_555 1_555
H16 C5 1_555 1_555
C6 C1 1_555 1_555
H17 C6 1_555 1_555
H18 C6 1_555 1_555
C7 N3 1_555 1_555
H19 C7 1_555 1_555
C8 N4 1_555 1_555
H20 C8 1_555 1_555
C9 C8 1_555 1_555
H21 C9 1_555 1_555
H22 C9 1_555 1_555
C10 C9 1_555 1_555
H23 C10 1_555 1_555
H24 C10 1_555 1_555
C11 C10 1_555 1_555
H25 C11 1_555 1_555
H26 C11 1_555 1_555
C12 C7 1_555 1_555
H27 C12 1_555 1_555
H28 C12 1_555 1_555
N5 O1 1_555 1_555
O2 N5 1_555 1_555
O3 N5 1_555 1_555
Ag1A N2 1_555 1_555
N2A Ag1 1_555 1_555
H3A N2A 1_555 1_555
H4A N2A 1_555 1_555
C1 C2 1_555 1_555
C5 C6 1_555 1_555
C7 C8 1_555 1_555
C11 C12 1_555 1_555

#END
