
#######################################################################
#
#                 Cambridge Crystallographic Data Centre
#                                CCDC 
#
#######################################################################
#
# If this CIF has been generated from an entry in the Cambridge 
# Structural Database, then it will include bibliographic, chemical, 
# crystal, experimental, refinement or atomic coordinate data resulting 
# from the CCDC's data processing and validation procedures.
#
#######################################################################

data_LAJHIO
_symmetry_cell_setting           monoclinic
_symmetry_space_group_name_H-M   'P 21/n'
_symmetry_Int_Tables_number      14
_space_group_name_Hall           '-P 2yn'
loop_
_symmetry_equiv_pos_site_id
_symmetry_equiv_pos_as_xyz
1 x,y,z
2 1/2+x,1/2-y,1/2+z
3 -x,-y,-z
4 1/2-x,1/2+y,1/2-z
_cell_length_a                   11.7982(6)
_cell_length_b                   25.5040(10)
_cell_length_c                   16.0778(9)
_cell_angle_alpha                90
_cell_angle_beta                 97.889(3)
_cell_angle_gamma                90
_cell_volume                     4792.04
loop_
_atom_site_label
_atom_site_type_symbol
_atom_site_fract_x
_atom_site_fract_y
_atom_site_fract_z
Cd1 Cd 0.80509(5) 0.25039(3) 0.37632(4)
Br1 Br 0.87750(9) 0.23519(4) 0.22558(6)
Br2 Br 0.75546(8) 0.27581(4) 0.52955(6)
Al1 Al 0.0336(2) 0.39342(10) 0.16112(15)
O1 O 0.0914(5) 0.3532(2) 0.2533(4)
O2 O 0.1758(4) 0.3961(2) 0.1239(3)
O3 O 0.4366(5) -0.0455(2) 0.2739(4)
O4 O 0.5322(5) -0.0641(2) 0.4284(3)
O5 O 1.3877(5) 0.1127(2) 0.6945(4)
O6 O 1.5021(5) 0.1655(2) 0.5913(4)
O7 O 0.8966(6) 0.3331(3) 0.3645(4)
N1 N 0.6194(6) 0.2821(3) 0.3219(4)
N2 N 0.7267(6) 0.1645(3) 0.3669(4)
N3 N 0.9837(6) 0.2188(3) 0.4441(5)
C1 C 0.5542(8) 0.2594(4) 0.2563(6)
H1 H 0.5857 0.2298 0.2306
C2 C 0.4451(7) 0.2762(4) 0.2244(6)
H2 H 0.4009 0.2578 0.1791
C3 C 0.3994(7) 0.3202(3) 0.2590(5)
C4 C 0.4670(8) 0.3443(4) 0.3277(6)
H3 H 0.4392 0.3747 0.3538
C5 C 0.5723(8) 0.3239(4) 0.3563(6)
H4 H 0.6163 0.3404 0.4038
C6 C 0.1925(7) 0.3324(3) 0.2723(6)
C7 C 0.2836(7) 0.3419(4) 0.2275(5)
C8 C 0.2698(7) 0.3719(3) 0.1530(5)
C9 C 0.2030(8) 0.2972(4) 0.3460(7)
H5 H 0.1321 0.2965 0.3689
H6 H 0.2207 0.2625 0.3285
H7 H 0.2629 0.3093 0.3879
C10 C 0.3669(8) 0.3781(4) 0.1034(6)
H8 H 0.3443 0.3998 0.0553
H9 H 0.4299 0.3941 0.1383
H10 H 0.3896 0.3443 0.0853
C11 C 0.6521(8) 0.1517(3) 0.4195(6)
H11 H 0.6362 0.1773 0.4600
C12 C 0.5970(7) 0.1037(4) 0.4165(6)
H12 H 0.5434 0.0962 0.4547
C13 C 0.6195(7) 0.0662(4) 0.3580(6)
C14 C 0.6961(8) 0.0793(4) 0.3041(6)
H13 H 0.7153 0.0545 0.2636
C15 C 0.7470(8) 0.1286(4) 0.3100(6)
H14 H 0.7995 0.1375 0.2717
C16 C 0.5843(7) -0.0206(3) 0.4241(5)
C17 C 0.5625(7) 0.0134(3) 0.3555(5)
C18 C 0.4832(7) -0.0005(4) 0.2836(5)
C19 C 0.6734(8) -0.0079(3) 0.4975(6)
H15 H 0.6762 -0.0356 0.5380
H16 H 0.7468 -0.0043 0.4788
H17 H 0.6537 0.0244 0.5228
C20 C 0.4490(10) 0.0385(5) 0.2135(7)
H18 H 0.3953 0.0229 0.1705
H19 H 0.4147 0.0684 0.2363
H20 H 0.5157 0.0494 0.1900
C21 C 1.0296(8) 0.1740(4) 0.4236(6)
H21 H 0.9907 0.1542 0.3775
C22 C 1.1315(9) 0.1546(4) 0.4664(7)
H22 H 1.1602 0.1213 0.4511
C23 C 1.1908(7) 0.1825(4) 0.5310(5)
C24 C 1.1440(7) 0.2298(4) 0.5519(6)
H23 H 1.1801 0.2503 0.5981
C25 C 1.0443(8) 0.2460(4) 0.5057(6)
H24 H 1.0157 0.2799 0.5180
C26 C 1.2989(7) 0.1302(4) 0.6479(6)
C27 C 1.3012(7) 0.1626(4) 0.5785(5)
C28 C 1.4069(8) 0.1822(4) 0.5593(6)
C29 C 1.4077(8) 0.2253(4) 0.4962(7)
H25 H 1.3630 0.2541 0.5119
H26 H 1.3767 0.2134 0.4411
H27 H 1.4849 0.2366 0.4947
C30 C 1.1872(7) 0.1150(4) 0.6771(7)
H28 H 1.1560 0.0868 0.6417
H29 H 1.1329 0.1432 0.6710
H30 H 1.1969 0.1026 0.7340
C31 C 0.8940(11) 0.3806(5) 0.4041(8)
H31 H 0.8727 0.3804 0.4595
H32 H 0.8454 0.4000 0.3622
H33 H 0.9696 0.3928 0.3988
H36 H 0.9253 0.3387 0.3155
O3C O 0.0634(5) 0.4545(2) 0.2261(4)
O4C O -0.0322(5) 0.4359(2) 0.0716(3)
O5A O -0.1123(5) 0.3873(2) 0.1945(4)
O6A O 0.0021(5) 0.3345(2) 0.0913(4)
Al1C Al 0.4664(2) -0.10658(10) 0.33888(15)
Al1A Al 1.5336(2) 0.10658(10) 0.66112(15)
C32 C 0.2470(14) 0.9343(7) -0.0228(11)
H34 H 0.1671 0.9424 -0.0345
Cl1 Cl 0.2814(4) 0.93145(16) 0.0867(2)
Cl2 Cl 0.3211(5) 0.98505(19) -0.0643(3)
Cl3 Cl 0.2677(6) 0.87483(19) -0.0713(3)
C33 C 0.4607(13) 0.5267(6) 0.2206(12)
H35 H 0.4542 0.5627 0.2362
Cl4 Cl 0.3285(3) 0.49674(18) 0.2201(3)
Cl5 Cl 0.5035(4) 0.52411(17) 0.1174(3)
Cl6 Cl 0.5656(4) 0.4971(2) 0.2935(3)
C34 C 0.6148(13) 0.4336(6) 0.5257(9)
O8 O 0.5071(12) 0.4064(7) 0.5382(12)
C35 C 0.189(2) 0.1532(12) 0.2328(18)
O9 O 0.0608(16) 0.1403(7) 0.2118(12)
loop_
_geom_bond_atom_site_label_1
_geom_bond_atom_site_label_2
_geom_bond_site_symmetry_1
_geom_bond_site_symmetry_2
Cd1 Br1 1_555 1_555
Br2 Cd1 1_555 1_555
Al1 O1 1_555 1_555
O1 C6 1_555 1_555
O2 Al1 1_555 1_555
O3 C18 1_555 1_555
O4 C16 1_555 1_555
O5 C26 1_555 1_555
O6 C28 1_555 1_555
O7 Cd1 1_555 1_555
N1 Cd1 1_555 1_555
N2 Cd1 1_555 1_555
N3 Cd1 1_555 1_555
C1 N1 1_555 1_555
H1 C1 1_555 1_555
C2 C1 1_555 1_555
H2 C2 1_555 1_555
C3 C2 1_555 1_555
C4 C3 1_555 1_555
H3 C4 1_555 1_555
C5 N1 1_555 1_555
H4 C5 1_555 1_555
C6 C7 1_555 1_555
C7 C3 1_555 1_555
C8 O2 1_555 1_555
C9 C6 1_555 1_555
H5 C9 1_555 1_555
H6 C9 1_555 1_555
H7 C9 1_555 1_555
C10 C8 1_555 1_555
H8 C10 1_555 1_555
H9 C10 1_555 1_555
H10 C10 1_555 1_555
C11 N2 1_555 1_555
H11 C11 1_555 1_555
C12 C11 1_555 1_555
H12 C12 1_555 1_555
C13 C12 1_555 1_555
C14 C13 1_555 1_555
H13 C14 1_555 1_555
C15 N2 1_555 1_555
H14 C15 1_555 1_555
C16 C17 1_555 1_555
C17 C13 1_555 1_555
C18 C17 1_555 1_555
C19 C16 1_555 1_555
H15 C19 1_555 1_555
H16 C19 1_555 1_555
H17 C19 1_555 1_555
C20 C18 1_555 1_555
H18 C20 1_555 1_555
H19 C20 1_555 1_555
H20 C20 1_555 1_555
C21 N3 1_555 1_555
H21 C21 1_555 1_555
C22 C21 1_555 1_555
H22 C22 1_555 1_555
C23 C22 1_555 1_555
C24 C23 1_555 1_555
H23 C24 1_555 1_555
C25 N3 1_555 1_555
H24 C25 1_555 1_555
C26 C27 1_555 1_555
C27 C23 1_555 1_555
C28 C27 1_555 1_555
C29 C28 1_555 1_555
H25 C29 1_555 1_555
H26 C29 1_555 1_555
H27 C29 1_555 1_555
C30 C26 1_555 1_555
H28 C30 1_555 1_555
H29 C30 1_555 1_555
H30 C30 1_555 1_555
C31 O7 1_555 1_555
H31 C31 1_555 1_555
H32 C31 1_555 1_555
H33 C31 1_555 1_555
C32 H34 1_555 1_555
Cl1 C32 1_555 1_555
Cl2 C32 1_555 1_555
Cl3 C32 1_555 1_555
C33 H35 1_555 1_555
Cl4 C33 1_555 1_555
Cl5 C33 1_555 1_555
Cl6 C33 1_555 1_555
H36 O7 1_555 1_555
C34 O8 1_555 1_555
C35 O9 1_555 1_555
O3C Al1 1_555 1_555
O4C Al1 1_555 1_555
O5A Al1 1_555 1_555
O6A Al1 1_555 1_555
Al1C O3 1_555 1_555
Al1A O5 1_555 1_555
O4 Al1C 1_555 1_555
O6 Al1A 1_555 1_555
C4 C5 1_555 1_555
C7 C8 1_555 1_555
C14 C15 1_555 1_555
C24 C25 1_555 1_555

#END
