
#######################################################################
#
#                 Cambridge Crystallographic Data Centre
#                                CCDC 
#
#######################################################################
#
# If this CIF has been generated from an entry in the Cambridge 
# Structural Database, then it will include bibliographic, chemical, 
# crystal, experimental, refinement or atomic coordinate data resulting 
# from the CCDC's data processing and validation procedures.
#
#######################################################################

data_LAJHAG
_symmetry_cell_setting           triclinic
_symmetry_space_group_name_H-M   'P -1'
_symmetry_Int_Tables_number      2
_space_group_name_Hall           '-P 1'
loop_
_symmetry_equiv_pos_site_id
_symmetry_equiv_pos_as_xyz
1 x,y,z
2 -x,-y,-z
_cell_length_a                   12.026(2)
_cell_length_b                   13.712(2)
_cell_length_c                   14.192(3)
_cell_angle_alpha                96.589(8)
_cell_angle_beta                 103.894(5)
_cell_angle_gamma                108.249(5)
_cell_volume                     2111.25
loop_
_atom_site_label
_atom_site_type_symbol
_atom_site_fract_x
_atom_site_fract_y
_atom_site_fract_z
Co1 Co 0.5000 0.0000 0.5000
Cl1 Cl 0.34399(13) -0.05582(12) 0.33879(9)
Al1 Al 0.04964(15) -0.59984(13) 0.74146(10)
O1 O 0.0969(4) -0.4539(4) 0.7807(3)
O2 O 0.0658(4) -0.5813(3) 0.6154(2)
O3 O 0.2159(4) 0.4110(4) 0.7830(3)
O4 O 0.0055(4) 0.2551(4) 0.6960(3)
O5 O 0.0381(4) -0.6163(3) 0.8674(2)
O6 O -0.1164(4) -0.6173(4) 0.6982(3)
N1 N 0.3976(4) -0.1392(4) 0.5517(3)
N2 N 0.3928(5) 0.0816(5) 0.5601(3)
N3 N -0.4504(6) -0.6986(8) 0.9948(4)
C1 C 0.1961(8) -0.2721(6) 0.8031(5)
H1 H 0.1697 -0.2750 0.8618
H2 H 0.2837 -0.2404 0.8216
H3 H 0.1599 -0.2311 0.7640
C2 C 0.1566(5) -0.3811(5) 0.7441(4)
C3 C 0.1831(5) -0.3998(5) 0.6531(4)
C4 C 0.1353(5) -0.4989(5) 0.5930(4)
C5 C 0.1624(6) -0.5200(6) 0.4964(4)
H4 H 0.1213 -0.5930 0.4658
H5 H 0.1343 -0.4782 0.4531
H6 H 0.2491 -0.5023 0.5085
C6 C 0.4474(6) -0.1762(6) 0.6269(4)
H7 H 0.5338 -0.1439 0.6591
C7 C 0.3822(6) -0.2604(6) 0.6616(4)
H8 H 0.4233 -0.2846 0.7155
C8 C 0.2577(6) -0.3083(5) 0.6185(4)
C9 C 0.2052(6) -0.2697(5) 0.5413(4)
H9 H 0.1188 -0.3008 0.5090
C10 C 0.2770(5) -0.1866(5) 0.5095(4)
H10 H 0.2379 -0.1617 0.4550
C11 C 0.4025(6) 0.3974(7) 0.7692(5)
H11 H 0.4321 0.4665 0.8097
H12 H 0.4376 0.3533 0.8045
H13 H 0.4253 0.4012 0.7090
C12 C 0.2631(6) 0.3533(6) 0.7448(4)
C13 C 0.1984(6) 0.2518(6) 0.6851(4)
C14 C 0.0703(7) 0.2067(5) 0.6674(4)
C15 C 0.0003(8) 0.0941(7) 0.6114(7)
H14 H -0.0848 0.0778 0.6068
H15 H 0.0099 0.0884 0.5461
H16 H 0.0299 0.0459 0.6444
C16 C 0.3823(7) 0.0787(7) 0.6518(5)
H17 H 0.4202 0.0380 0.6897
C17 C 0.3191(7) 0.1299(7) 0.6928(4)
H18 H 0.3134 0.1238 0.7584
C18 C 0.2631(6) 0.1908(6) 0.6422(5)
C19 C 0.2734(9) 0.1933(8) 0.5468(5)
H19 H 0.2375 0.2342 0.5074
C20 C 0.3383(8) 0.1357(7) 0.5102(5)
H20 H 0.3408 0.1362 0.4431
C21 C -0.0311(7) -0.6516(6) 1.0055(4)
H21 H 0.0536 -0.6427 1.0320
H22 H -0.0504 -0.6010 1.0448
H23 H -0.0813 -0.7211 1.0068
C22 C -0.0559(6) -0.6348(5) 0.8997(4)
C23 C -0.1721(5) -0.6454(5) 0.8444(4)
C24 C -0.1986(6) -0.6367(5) 0.7438(4)
C25 C -0.3244(6) -0.6567(6) 0.6822(4)
H24 H -0.3234 -0.6486 0.6161
H25 H -0.3771 -0.7264 0.6802
H26 H -0.3541 -0.6066 0.7105
C26 C -0.4466(7) -0.7768(8) 0.9301(5)
H27 H -0.5067 -0.8456 0.9192
C27 C -0.3601(7) -0.7620(7) 0.8796(5)
H28 H -0.3619 -0.8198 0.8333
C28 C -0.2720(6) -0.6628(6) 0.8936(4)
C29 C -0.2765(7) -0.5854(8) 0.9602(6)
H29 H -0.2172 -0.5158 0.9737
C30 C -0.3659(8) -0.6052(10) 1.0075(6)
H30 H -0.3675 -0.5490 1.0536
Cl1A Cl 0.65601(13) 0.05582(12) 0.66121(9)
O1A O 0.9031(4) 0.4539(4) 0.2193(3)
O2A O 0.9342(4) 0.5813(3) 0.3846(2)
N1A N 0.6024(4) 0.1392(4) 0.4483(3)
C1A C 0.8039(8) 0.2721(6) 0.1969(5)
H1A H 0.8303 0.2750 0.1382
H2A H 0.7163 0.2404 0.1784
H3A H 0.8401 0.2311 0.2360
C2A C 0.8434(5) 0.3811(5) 0.2559(4)
C3A C 0.8169(5) 0.3998(5) 0.3469(4)
C4A C 0.8647(5) 0.4989(5) 0.4070(4)
C5A C 0.8376(6) 0.5200(6) 0.5036(4)
H4A H 0.8787 0.5930 0.5342
H5A H 0.8657 0.4782 0.5469
H6A H 0.7509 0.5023 0.4915
C6A C 0.5526(6) 0.1762(6) 0.3731(4)
H7A H 0.4662 0.1439 0.3409
C7A C 0.6178(6) 0.2604(6) 0.3384(4)
H8A H 0.5767 0.2846 0.2845
C8A C 0.7423(6) 0.3083(5) 0.3815(4)
C9A C 0.7948(6) 0.2697(5) 0.4587(4)
H9A H 0.8812 0.3008 0.4910
C10A C 0.7230(5) 0.1866(5) 0.4905(4)
H10A H 0.7621 0.1617 0.5450
O3A O 0.7841(4) -0.4110(4) 0.2170(3)
O4A O 0.9945(4) -0.2551(4) 0.3040(3)
N2A N 0.6072(5) -0.0816(5) 0.4399(3)
C11A C 0.5975(6) -0.3974(7) 0.2308(5)
H11A H 0.5679 -0.4665 0.1903
H12A H 0.5624 -0.3533 0.1955
H13A H 0.5747 -0.4012 0.2910
C12A C 0.7369(6) -0.3533(6) 0.2552(4)
C13A C 0.8016(6) -0.2518(6) 0.3149(4)
C14A C 0.9297(7) -0.2067(5) 0.3326(4)
C15A C 0.9997(8) -0.0941(7) 0.3886(7)
H14A H 1.0848 -0.0778 0.3932
H15A H 0.9901 -0.0884 0.4539
H16A H 0.9701 -0.0459 0.3556
C16A C 0.6177(7) -0.0787(7) 0.3482(5)
H17A H 0.5798 -0.0380 0.3103
C17A C 0.6809(7) -0.1299(7) 0.3072(4)
H18A H 0.6866 -0.1238 0.2416
C18A C 0.7369(6) -0.1908(6) 0.3578(5)
C19A C 0.7266(9) -0.1933(8) 0.4532(5)
H19A H 0.7625 -0.2342 0.4926
C20A C 0.6617(8) -0.1357(7) 0.4898(5)
H20A H 0.6592 -0.1362 0.5569
Al1A Al 0.95036(15) 0.59984(13) 0.25854(10)
O5A O 0.9619(4) 0.6163(3) 0.1326(2)
O6A O 1.1164(4) 0.6173(4) 0.3018(3)
N3A N 1.4504(6) 0.6986(8) 0.0052(4)
C21A C 1.0311(7) 0.6516(6) -0.0055(4)
H21A H 0.9464 0.6427 -0.0320
H22A H 1.0504 0.6010 -0.0448
H23A H 1.0813 0.7211 -0.0068
C22A C 1.0559(6) 0.6348(5) 0.1003(4)
C23A C 1.1721(5) 0.6454(5) 0.1556(4)
C24A C 1.1986(6) 0.6367(5) 0.2562(4)
C25A C 1.3244(6) 0.6567(6) 0.3178(4)
H24A H 1.3234 0.6486 0.3839
H25A H 1.3771 0.7264 0.3198
H26A H 1.3541 0.6066 0.2895
C26A C 1.4466(7) 0.7768(8) 0.0699(5)
H27A H 1.5067 0.8456 0.0808
C27A C 1.3601(7) 0.7620(7) 0.1204(5)
H28A H 1.3619 0.8198 0.1667
C28A C 1.2720(6) 0.6628(6) 0.1064(4)
C29A C 1.2765(7) 0.5854(8) 0.0398(6)
H29A H 1.2172 0.5158 0.0263
C30A C 1.3659(8) 0.6052(10) -0.0075(6)
H30A H 1.3675 0.5490 -0.0536
O3_2 O 0.2159(4) -0.5890(4) 0.7830(3)
O4_2 O 0.0055(4) -0.7449(4) 0.6960(3)
Al1_2 Al 0.04964(15) 0.40016(13) 0.74146(10)
Al1A_2 Al 0.95036(15) -0.40016(13) 0.25854(10)
O3A_2 O 0.7841(4) 0.5890(4) 0.2170(3)
O4A_2 O 0.9945(4) 0.7449(4) 0.3040(3)
C31 C -0.2829(13) -0.3256(15) 0.7344(8)
H31 H -0.3211 -0.3370 0.7863
Cl2 Cl -0.3971(4) -0.3893(4) 0.6185(3)
Cl3 Cl -0.2275(5) -0.1918(4) 0.7366(3)
Cl4 Cl -0.1659(4) -0.3782(3) 0.7508(2)
O7 O -0.6337(10) -0.6987(15) 1.0803(8)
C32 C -0.734(2) -0.719(4) 1.0007(17)
C33 C 0.735(4) -0.027(6) 0.949(3)
H32 H 0.7461 -0.0934 0.9368
Cl5 Cl 0.578(2) -0.0583(13) 0.8930(13)
Cl6 Cl 0.770(3) 0.020(4) 1.077(2)
Cl7 Cl 0.826(3) 0.063(4) 0.897(3)
loop_
_geom_bond_atom_site_label_1
_geom_bond_atom_site_label_2
_geom_bond_site_symmetry_1
_geom_bond_site_symmetry_2
Co1 Cl1 1_555 1_555
Al1 O1 1_555 1_555
O1 C2 1_555 1_555
O2 Al1 1_555 1_555
O3 C12 1_555 1_555
O4 C14 1_555 1_555
O5 Al1 1_555 1_555
O6 Al1 1_555 1_555
N1 Co1 1_555 1_555
N2 Co1 1_555 1_555
N3 C26 1_555 1_555
C1 H1 1_555 1_555
H2 C1 1_555 1_555
H3 C1 1_555 1_555
C2 C1 1_555 1_555
C3 C2 1_555 1_555
C4 O2 1_555 1_555
C5 C4 1_555 1_555
H4 C5 1_555 1_555
H5 C5 1_555 1_555
H6 C5 1_555 1_555
C6 N1 1_555 1_555
H7 C6 1_555 1_555
C7 C6 1_555 1_555
H8 C7 1_555 1_555
C8 C3 1_555 1_555
C9 C8 1_555 1_555
H9 C9 1_555 1_555
C10 N1 1_555 1_555
H10 C10 1_555 1_555
C11 H11 1_555 1_555
H12 C11 1_555 1_555
H13 C11 1_555 1_555
C12 C11 1_555 1_555
C13 C12 1_555 1_555
C14 C13 1_555 1_555
C15 C14 1_555 1_555
H14 C15 1_555 1_555
H15 C15 1_555 1_555
H16 C15 1_555 1_555
C16 N2 1_555 1_555
H17 C16 1_555 1_555
C17 C16 1_555 1_555
H18 C17 1_555 1_555
C18 C13 1_555 1_555
C19 C18 1_555 1_555
H19 C19 1_555 1_555
C20 N2 1_555 1_555
H20 C20 1_555 1_555
C21 H21 1_555 1_555
H22 C21 1_555 1_555
H23 C21 1_555 1_555
C22 O5 1_555 1_555
C23 C22 1_555 1_555
C24 O6 1_555 1_555
C25 C24 1_555 1_555
H24 C25 1_555 1_555
H25 C25 1_555 1_555
H26 C25 1_555 1_555
C26 H27 1_555 1_555
C27 C26 1_555 1_555
H28 C27 1_555 1_555
C28 C23 1_555 1_555
C29 C28 1_555 1_555
H29 C29 1_555 1_555
C30 N3 1_555 1_555
H30 C30 1_555 1_555
C31 H31 1_555 1_555
Cl2 C31 1_555 1_555
Cl3 C31 1_555 1_555
Cl4 C31 1_555 1_555
O7 C32 1_555 1_555
C33 H32 1_555 1_555
Cl5 C33 1_555 1_555
Cl6 C33 1_555 1_555
Cl7 C33 1_555 1_555
Cl1A Co1 1_555 1_555
O1A C2A 1_555 1_555
O2A C4A 1_555 1_555
N1A Co1 1_555 1_555
C1A H1A 1_555 1_555
H2A C1A 1_555 1_555
H3A C1A 1_555 1_555
C2A C1A 1_555 1_555
C3A C2A 1_555 1_555
C4A C3A 1_555 1_555
C5A C4A 1_555 1_555
H4A C5A 1_555 1_555
H5A C5A 1_555 1_555
H6A C5A 1_555 1_555
C6A N1A 1_555 1_555
H7A C6A 1_555 1_555
C7A C6A 1_555 1_555
H8A C7A 1_555 1_555
C8A C3A 1_555 1_555
C9A C8A 1_555 1_555
H9A C9A 1_555 1_555
C10A N1A 1_555 1_555
H10A C10A 1_555 1_555
O3A C12A 1_555 1_555
O4A C14A 1_555 1_555
N2A Co1 1_555 1_555
C11A H11A 1_555 1_555
H12A C11A 1_555 1_555
H13A C11A 1_555 1_555
C12A C11A 1_555 1_555
C13A C12A 1_555 1_555
C14A C13A 1_555 1_555
C15A C14A 1_555 1_555
H14A C15A 1_555 1_555
H15A C15A 1_555 1_555
H16A C15A 1_555 1_555
C16A N2A 1_555 1_555
H17A C16A 1_555 1_555
C17A C16A 1_555 1_555
H18A C17A 1_555 1_555
C18A C13A 1_555 1_555
C19A C18A 1_555 1_555
H19A C19A 1_555 1_555
C20A N2A 1_555 1_555
H20A C20A 1_555 1_555
Al1A O1A 1_555 1_555
O5A Al1A 1_555 1_555
O6A Al1A 1_555 1_555
N3A C26A 1_555 1_555
C21A H21A 1_555 1_555
H22A C21A 1_555 1_555
H23A C21A 1_555 1_555
C22A O5A 1_555 1_555
C23A C22A 1_555 1_555
C24A O6A 1_555 1_555
C25A C24A 1_555 1_555
H24A C25A 1_555 1_555
H25A C25A 1_555 1_555
H26A C25A 1_555 1_555
C26A H27A 1_555 1_555
C27A C26A 1_555 1_555
H28A C27A 1_555 1_555
C28A C23A 1_555 1_555
C29A C28A 1_555 1_555
H29A C29A 1_555 1_555
C30A N3A 1_555 1_555
H30A C30A 1_555 1_555
O3_2 Al1 1_555 1_555
O4_2 Al1 1_555 1_555
Al1_2 O3 1_555 1_555
Al1A_2 O3A 1_555 1_555
O3A_2 Al1A 1_555 1_555
O4A_2 Al1A 1_555 1_555
O4 Al1_2 1_555 1_555
C3 C4 1_555 1_555
C7 C8 1_555 1_555
C9 C10 1_555 1_555
C17 C18 1_555 1_555
C19 C20 1_555 1_555
C21 C22 1_555 1_555
C23 C24 1_555 1_555
C27 C28 1_555 1_555
C29 C30 1_555 1_555
O2A Al1A 1_555 1_555
C7A C8A 1_555 1_555
C9A C10A 1_555 1_555
O4A Al1A_2 1_555 1_555
C17A C18A 1_555 1_555
C19A C20A 1_555 1_555
C21A C22A 1_555 1_555
C23A C24A 1_555 1_555
C27A C28A 1_555 1_555
C29A C30A 1_555 1_555

#END
