
#######################################################################
#
#                 Cambridge Crystallographic Data Centre
#                                CCDC 
#
#######################################################################
#
# If this CIF has been generated from an entry in the Cambridge 
# Structural Database, then it will include bibliographic, chemical, 
# crystal, experimental, refinement or atomic coordinate data resulting 
# from the CCDC's data processing and validation procedures.
#
#######################################################################

data_LAJHEK
_symmetry_cell_setting           monoclinic
_symmetry_space_group_name_H-M   'P 21/n'
_symmetry_Int_Tables_number      14
_space_group_name_Hall           '-P 2yn'
loop_
_symmetry_equiv_pos_site_id
_symmetry_equiv_pos_as_xyz
1 x,y,z
2 1/2+x,1/2-y,1/2+z
3 -x,-y,-z
4 1/2-x,1/2+y,1/2-z
_cell_length_a                   11.8236(9)
_cell_length_b                   25.833(2)
_cell_length_c                   17.2279(19)
_cell_angle_alpha                90
_cell_angle_beta                 97.843(11)
_cell_angle_gamma                90
_cell_volume                     5212.85
loop_
_atom_site_label
_atom_site_type_symbol
_atom_site_fract_x
_atom_site_fract_y
_atom_site_fract_z
Cd1 Cd 0.26714(3) 0.243440(12) 0.84134(2)
Al1 Al -0.50178(10) 0.37924(4) 0.62971(7)
O1 O -0.4512(3) 0.33102(12) 0.7080(2)
O2 O -0.3565(2) 0.38193(11) 0.59990(18)
O3 O 0.9604(3) 0.17177(11) 1.05301(19)
O4 O 0.8522(3) 0.12686(12) 1.15904(18)
O5 O -0.0336(3) -0.06695(12) 0.79706(18)
O6 O 0.0572(3) -0.07010(10) 0.94445(17)
O7 O 0.4057(7) 0.2072(3) 0.7406(4)
O8 O 0.2510(6) 0.2378(3) 0.6981(4)
O9 O 0.3548(7) 0.2096(3) 0.6168(4)
O10 O 0.2461(7) 0.3008(4) 0.9491(5)
O11 O 0.2137(11) 0.2366(5) 1.0024(9)
O12 O 0.2334(19) 0.3062(6) 1.0695(6)
O13 O 0.3563(4) 0.32143(17) 0.8147(3)
H1 H 0.3863 0.3208 0.7726
N1 N 0.0767(3) 0.27199(15) 0.7982(3)
N2 N 0.4386(4) 0.21737(16) 0.9179(3)
N3 N 0.1961(3) 0.15758(15) 0.8439(3)
N4 N 0.3377(6) 0.2172(2) 0.6834(4)
N5 N 0.2261(7) 0.2801(5) 1.0045(7)
C1 C -0.3416(6) 0.2785(3) 0.7993(5)
H2 H -0.4157 0.2736 0.8150
H3 H -0.3130 0.2458 0.7836
H4 H -0.2904 0.2922 0.8424
C2 C -0.3513(4) 0.31518(18) 0.7310(3)
C3 C -0.2540(4) 0.32937(18) 0.6975(3)
C4 C -0.2632(4) 0.36066(17) 0.6309(3)
C5 C -0.1619(5) 0.3716(3) 0.5890(4)
H5 H -0.1854 0.3934 0.5446
H6 H -0.1038 0.3889 0.6241
H7 H -0.1320 0.3397 0.5716
C6 C 0.0346(5) 0.3161(2) 0.8213(4)
H8 H 0.0803 0.3361 0.8609
C7 C -0.0715(5) 0.3354(2) 0.7898(4)
H9 H -0.0982 0.3675 0.8088
C8 C -0.1384(4) 0.30878(19) 0.7325(3)
C9 C -0.0954(5) 0.2629(2) 0.7081(4)
H10 H -0.1394 0.2425 0.6683
C10 C 0.0105(5) 0.2465(2) 0.7417(3)
H11 H 0.0387 0.2142 0.7242
C11 C 0.8633(6) 0.2231(3) 0.9543(4)
H12 H 0.9401 0.2297 0.9445
H13 H 0.8283 0.2552 0.9664
H14 H 0.8204 0.2080 0.9086
C12 C 0.8626(4) 0.18661(18) 1.0222(3)
C13 C 0.7597(4) 0.17089(17) 1.0480(3)
C14 C 0.7603(4) 0.14290(18) 1.1177(3)
C15 C 0.6519(4) 0.1316(3) 1.1492(4)
H15 H 0.6695 0.1125 1.1972
H16 H 0.6030 0.1112 1.1120
H17 H 0.6139 0.1633 1.1592
C16 C 0.4874(6) 0.1727(2) 0.9060(4)
H18 H 0.4477 0.1493 0.8684
C17 C 0.5895(5) 0.1566(2) 0.9465(4)
H19 H 0.6221 0.1242 0.9334
C18 C 0.6484(4) 0.18754(19) 1.0029(3)
C19 C 0.5969(5) 0.2345(2) 1.0154(4)
H20 H 0.6333 0.2581 1.0540
C20 C 0.4954(5) 0.2481(2) 0.9718(3)
H21 H 0.4629 0.2813 0.9812
C21 C -0.0321(7) 0.0083(3) 0.7224(4)
H22 H -0.0780 -0.0139 0.6861
H23 H -0.0758 0.0382 0.7330
H24 H 0.0343 0.0190 0.7003
C22 C 0.0028(5) -0.0206(2) 0.7971(3)
C23 C 0.0723(4) 0.00156(16) 0.8614(3)
C24 C 0.0978(4) -0.02485(16) 0.9322(3)
C25 C 0.1751(5) -0.00368(19) 1.0008(3)
H25 H 0.1812 -0.0283 1.0428
H26 H 0.2494 0.0027 0.9863
H27 H 0.1438 0.0281 1.0174
C26 C 0.1255(5) 0.14529(19) 0.8939(3)
H28 H 0.1020 0.1722 0.9267
C27 C 0.0832(5) 0.09632(18) 0.9002(3)
H29 H 0.0305 0.0895 0.9367
C28 C 0.1159(4) 0.05631(18) 0.8548(3)
C29 C 0.1906(5) 0.06966(19) 0.8022(3)
H30 H 0.2171 0.0431 0.7701
C30 C 0.2263(5) 0.1198(2) 0.7980(3)
H31 H 0.2768 0.1283 0.7607
C31 C 0.3779(17) 0.3695(7) 0.8471(10)
H32 H 0.4190 0.3884 0.8119
H33 H 0.3081 0.3874 0.8525
H34 H 0.4238 0.3669 0.8974
O3A O -0.5396(3) 0.32823(11) 0.55301(19)
O4A O -0.6478(3) 0.37314(12) 0.65904(18)
O5C O -0.4664(3) 0.43305(12) 0.70294(18)
O6C O -0.5572(3) 0.42990(10) 0.55555(17)
Al1A Al 0.99822(10) 0.12076(4) 1.12971(7)
Al1C Al 0.00178(10) -0.12076(4) 0.87029(7)
C32 C -0.0463(18) 0.5120(6) 0.7195(12)
H35 H -0.0504 0.5468 0.7387
Cl1 Cl -0.1752(5) 0.4807(2) 0.7186(5)
Cl2 Cl -0.0001(8) 0.5152(3) 0.6272(7)
Cl3 Cl 0.0606(9) 0.4793(5) 0.7855(7)
C33 C 0.143(3) 0.0784(16) 0.5265(16)
H36 H 0.1035 0.0463 0.5149
Cl4 Cl 0.170(2) 0.1093(9) 0.4387(11)
Cl5 Cl 0.2695(19) 0.0663(9) 0.5905(13)
Cl6 Cl 0.059(2) 0.1205(9) 0.5765(13)
loop_
_geom_bond_atom_site_label_1
_geom_bond_atom_site_label_2
_geom_bond_site_symmetry_1
_geom_bond_site_symmetry_2
Cd1 O7 1_555 1_555
Al1 O1 1_555 1_555
O1 C2 1_555 1_555
O2 Al1 1_555 1_555
O3 C12 1_555 1_555
O4 C14 1_555 1_555
O5 C22 1_555 1_555
O6 C24 1_555 1_555
O7 N4 1_555 1_555
O8 Cd1 1_555 1_555
O9 N4 1_555 1_555
O10 Cd1 1_555 1_555
O11 N5 1_555 1_555
O12 N5 1_555 1_555
O13 Cd1 1_555 1_555
H1 O13 1_555 1_555
N1 Cd1 1_555 1_555
N2 Cd1 1_555 1_555
N3 Cd1 1_555 1_555
N4 O8 1_555 1_555
N5 O10 1_555 1_555
C1 H2 1_555 1_555
H3 C1 1_555 1_555
H4 C1 1_555 1_555
C2 C1 1_555 1_555
C3 C2 1_555 1_555
C4 O2 1_555 1_555
C5 C4 1_555 1_555
H5 C5 1_555 1_555
H6 C5 1_555 1_555
H7 C5 1_555 1_555
C6 N1 1_555 1_555
H8 C6 1_555 1_555
C7 C6 1_555 1_555
H9 C7 1_555 1_555
C8 C3 1_555 1_555
C9 C8 1_555 1_555
H10 C9 1_555 1_555
C10 N1 1_555 1_555
H11 C10 1_555 1_555
C11 H12 1_555 1_555
H13 C11 1_555 1_555
H14 C11 1_555 1_555
C12 C11 1_555 1_555
C13 C12 1_555 1_555
C14 C13 1_555 1_555
C15 C14 1_555 1_555
H15 C15 1_555 1_555
H16 C15 1_555 1_555
H17 C15 1_555 1_555
C16 N2 1_555 1_555
H18 C16 1_555 1_555
C17 C16 1_555 1_555
H19 C17 1_555 1_555
C18 C13 1_555 1_555
C19 C18 1_555 1_555
H20 C19 1_555 1_555
C20 N2 1_555 1_555
H21 C20 1_555 1_555
C21 H22 1_555 1_555
H23 C21 1_555 1_555
H24 C21 1_555 1_555
C22 C21 1_555 1_555
C23 C22 1_555 1_555
C24 C23 1_555 1_555
C25 C24 1_555 1_555
H25 C25 1_555 1_555
H26 C25 1_555 1_555
H27 C25 1_555 1_555
C26 N3 1_555 1_555
H28 C26 1_555 1_555
C27 C26 1_555 1_555
H29 C27 1_555 1_555
C28 C23 1_555 1_555
C29 C28 1_555 1_555
H30 C29 1_555 1_555
C30 N3 1_555 1_555
H31 C30 1_555 1_555
C31 O13 1_555 1_555
H32 C31 1_555 1_555
H33 C31 1_555 1_555
H34 C31 1_555 1_555
C32 H35 1_555 1_555
Cl1 C32 1_555 1_555
Cl2 C32 1_555 1_555
Cl3 C32 1_555 1_555
C33 H36 1_555 1_555
Cl4 C33 1_555 1_555
Cl5 C33 1_555 1_555
Cl6 C33 1_555 1_555
O3A Al1 1_555 1_555
O4A Al1 1_555 1_555
O5C Al1 1_555 1_555
O6C Al1 1_555 1_555
Al1A O3 1_555 1_555
Al1C O5 1_555 1_555
O4 Al1A 1_555 1_555
O6 Al1C 1_555 1_555
C3 C4 1_555 1_555
C7 C8 1_555 1_555
C9 C10 1_555 1_555
C17 C18 1_555 1_555
C19 C20 1_555 1_555
C27 C28 1_555 1_555
C29 C30 1_555 1_555

#END
