
#######################################################################
#
#                 Cambridge Crystallographic Data Centre
#                                CCDC 
#
#######################################################################
#
# If this CIF has been generated from an entry in the Cambridge 
# Structural Database, then it will include bibliographic, chemical, 
# crystal, experimental, refinement or atomic coordinate data resulting 
# from the CCDC's data processing and validation procedures.
#
#######################################################################

data_LAJKUE
_symmetry_cell_setting           cubic
_symmetry_space_group_name_H-M   'I 4 3 2'
_symmetry_Int_Tables_number      211
_space_group_name_Hall           'I 4 2 3'
loop_
_symmetry_equiv_pos_site_id
_symmetry_equiv_pos_as_xyz
1 x,y,z
2 -y,x,z
3 x,-y,-z
4 z,x,y
5 -x,-y,z
6 y,x,-z
7 -x,z,y
8 y,-x,z
9 -x,y,-z
10 -z,-x,y
11 -y,-x,-z
12 x,-z,y
13 z,-x,-y
14 -x,-z,-y
15 -z,x,-y
16 x,z,-y
17 y,z,x
18 -z,y,x
19 z,y,-x
20 y,-z,-x
21 -z,-y,-x
22 -y,z,-x
23 -y,-z,x
24 z,-y,x
25 1/2+x,1/2+y,1/2+z
26 1/2-y,1/2+x,1/2+z
27 1/2+x,1/2-y,1/2-z
28 1/2+z,1/2+x,1/2+y
29 1/2-x,1/2-y,1/2+z
30 1/2+y,1/2+x,1/2-z
31 1/2-x,1/2+z,1/2+y
32 1/2+y,1/2-x,1/2+z
33 1/2-x,1/2+y,1/2-z
34 1/2-z,1/2-x,1/2+y
35 1/2-y,1/2-x,1/2-z
36 1/2+x,1/2-z,1/2+y
37 1/2+z,1/2-x,1/2-y
38 1/2-x,1/2-z,1/2-y
39 1/2-z,1/2+x,1/2-y
40 1/2+x,1/2+z,1/2-y
41 1/2+y,1/2+z,1/2+x
42 1/2-z,1/2+y,1/2+x
43 1/2+z,1/2+y,1/2-x
44 1/2+y,1/2-z,1/2-x
45 1/2-z,1/2-y,1/2-x
46 1/2-y,1/2+z,1/2-x
47 1/2-y,1/2-z,1/2+x
48 1/2+z,1/2-y,1/2+x
_cell_length_a                   30.868(10)
_cell_length_b                   30.868(10)
_cell_length_c                   30.868(10)
_cell_angle_alpha                90
_cell_angle_beta                 90
_cell_angle_gamma                90
_cell_volume                     29412.1
loop_
_atom_site_label
_atom_site_type_symbol
_atom_site_fract_x
_atom_site_fract_y
_atom_site_fract_z
Cs1 Cs 0.82142(5) 0.5000 0.82142(5)
O1 O 0.8388(7) 0.6990(4) 0.8620(4)
C1 C 0.8194(7) 0.6590(5) 0.8758(4)
H1 H 0.7877 0.6655 0.8780
O2 O 0.8001(6) 0.5895(3) 0.8636(3)
H2 H 0.8117 0.5813 0.8920
C2 C 0.8221(5) 0.6213(5) 0.8484(4)
H3 H 0.8090 0.6292 0.8198
O3 O 0.8735(6) 0.5826(4) 0.8095(5)
H4 H 0.8735 0.5540 0.8232
C3 C 0.8717(6) 0.6140(6) 0.8407(3)
H5 H 0.8853 0.6029 0.8679
O4 O 0.9364(5) 0.6493(3) 0.8254(3)
C4 C 0.8957(8) 0.6558(5) 0.8257(4)
H6 H 0.8859 0.6635 0.7958
C5 C 0.8835(9) 0.6945(6) 0.8581(6)
O5 O 0.8789(13) 0.7438(9) 0.7965(7)
H7 H 0.9027 0.7443 0.7755
C6 C 0.8978(12) 0.7406(10) 0.8430(17)
H8 H 0.9298 0.7432 0.8427
H9 H 0.8856 0.7633 0.8621
O6 O 0.9834(4) 0.6849(3) 0.7766(3)
C7 C 0.9603(6) 0.6445(5) 0.7829(3)
H10 H 0.9378 0.6427 0.7596
O7 O 0.9552(5) 0.5675(4) 0.7849(5)
H11 H 0.9317 0.5752 0.8048
C8 C 0.9860(6) 0.6059(5) 0.7800(8)
H12 H 0.9985 0.6047 0.7501
O8 O 1.0470(5) 0.5706(5) 0.7979(7)
H13 H 1.0767 0.5772 0.8070
C9 C 1.0194(5) 0.6060(5) 0.8085(5)
H14 H 1.0090 0.6042 0.8391
O9 O 0.8322(3) 0.6489(2) 0.9179(2)
C10 C 1.0494(4) 0.6500(3) 0.8003(3)
H15 H 1.0609 0.6522 0.7701
C11 C 1.0214(7) 0.6818(4) 0.8103(4)
H16 H 1.0104 0.6789 0.8406
O10 O 1.0607(6) 0.7320(5) 0.7578(6)
H17 H 1.0782 0.7582 0.7542
C12 C 1.0419(6) 0.7313(6) 0.8012(5)
H18 H 1.0187 0.7534 0.8035
H19 H 1.0645 0.7380 0.8230
Cs1D Cs 1.17858(5) 0.5000 0.82142(5)
Cs1HA Cs 1.0000 0.67858(5) 0.67858(5)
Cs1IA Cs 1.32142(5) 0.67858(5) 1.0000
Cs1H Cs 1.17858(5) 0.5000 1.17858(5)
Cs1EA Cs 1.0000 0.67858(5) 1.32142(5)
Cs1B Cs 0.82142(5) 0.5000 1.17858(5)
Cs1GA Cs 0.67858(5) 0.67858(5) 1.0000
O1Q O 1.1380(4) 0.6990(4) 0.8388(7)
O1H O 1.1612(7) 0.6990(4) 1.1380(4)
O1R O 0.8620(4) 0.6990(4) 1.1612(7)
C1Q C 1.1242(4) 0.6590(5) 0.8194(7)
C1H C 1.1806(7) 0.6590(5) 1.1242(4)
C1R C 0.8758(4) 0.6590(5) 1.1806(7)
H1Q H 1.1220 0.6655 0.7877
H1H H 1.2123 0.6655 1.1220
H1R H 0.8780 0.6655 1.2123
O2Q O 1.1364(3) 0.5895(3) 0.8001(6)
O2H O 1.1999(6) 0.5895(3) 1.1364(3)
O2R O 0.8636(3) 0.5895(3) 1.1999(6)
O2W O 0.8636(3) 0.4105(3) 0.8001(6)
O2D O 1.1999(6) 0.4105(3) 0.8636(3)
H2Q H 1.1080 0.5813 0.8117
H2H H 1.1883 0.5813 1.1080
H2R H 0.8920 0.5813 1.1883
H2W H 0.8920 0.4187 0.8117
H2D H 1.1883 0.4187 0.8920
C2Q C 1.1516(4) 0.6213(5) 0.8221(5)
C2H C 1.1779(5) 0.6213(5) 1.1516(4)
C2R C 0.8484(4) 0.6213(5) 1.1779(5)
H3Q H 1.1802 0.6292 0.8090
H3H H 1.1910 0.6292 1.1802
H3R H 0.8198 0.6292 1.1910
O3Q O 1.1905(5) 0.5826(4) 0.8735(6)
O3H O 1.1265(6) 0.5826(4) 1.1905(5)
O3R O 0.8095(5) 0.5826(4) 1.1265(6)
O3W O 0.8095(5) 0.4174(4) 0.8735(6)
O3D O 1.1265(6) 0.4174(4) 0.8095(5)
H4Q H 1.1768 0.5540 0.8735
H4H H 1.1265 0.5540 1.1768
H4R H 0.8232 0.5540 1.1265
H4W H 0.8232 0.4460 0.8735
H4D H 1.1265 0.4460 0.8232
C3Q C 1.1593(3) 0.6140(6) 0.8717(6)
C3H C 1.1283(6) 0.6140(6) 1.1593(3)
C3R C 0.8407(3) 0.6140(6) 1.1283(6)
H5Q H 1.1321 0.6029 0.8853
H5H H 1.1147 0.6029 1.1321
H5R H 0.8679 0.6029 1.1147
O4Q O 1.1746(3) 0.6493(3) 0.9364(5)
O4H O 1.0636(5) 0.6493(3) 1.1746(3)
O4R O 0.8254(3) 0.6493(3) 1.0636(5)
C4Q C 1.1743(4) 0.6558(5) 0.8957(8)
C4H C 1.1043(8) 0.6558(5) 1.1743(4)
C4R C 0.8257(4) 0.6558(5) 1.1043(8)
H6R H 0.7958 0.6635 1.1141
H6H H 1.1141 0.6635 1.2042
H6Q H 1.2042 0.6635 0.8859
C5Q C 1.1419(6) 0.6945(6) 0.8835(9)
C5H C 1.1165(9) 0.6945(6) 1.1419(6)
C5R C 0.8581(6) 0.6945(6) 1.1165(9)
O5R O 0.7965(7) 0.7438(9) 1.1211(13)
O5H O 1.1211(13) 0.7438(9) 1.2035(7)
O5Q O 1.2035(7) 0.7438(9) 0.8789(13)
H7R H 0.7755 0.7443 1.0973
H7H H 1.0973 0.7443 1.2245
H7Q H 1.2245 0.7443 0.9027
C6R C 0.8430(17) 0.7406(10) 1.1022(12)
C6H C 1.1022(12) 0.7406(10) 1.1570(17)
C6Q C 1.1570(17) 0.7406(10) 0.8978(12)
H8R H 0.8427 0.7432 1.0702
H8H H 1.0702 0.7432 1.1573
H8Q H 1.1573 0.7432 0.9298
H9R H 0.8621 0.7633 1.1144
H9H H 1.1144 0.7633 1.1379
H9Q H 1.1379 0.7633 0.8856
O6Q O 1.2234(3) 0.6849(3) 0.9834(4)
O6H O 1.0166(4) 0.6849(3) 1.2234(3)
O6R O 0.7766(3) 0.6849(3) 1.0166(4)
O6HA O 0.8151(3) 0.5166(4) 0.7234(3)
O6LA O 0.7234(3) 0.4834(4) 0.8151(3)
O6JA O 1.2766(3) 0.5166(4) 0.8151(3)
O6CA O 1.1849(3) 0.4834(4) 0.7234(3)
C7Q C 1.2171(3) 0.6445(5) 0.9603(6)
C7H C 1.0397(6) 0.6445(5) 1.2171(3)
C7R C 0.7829(3) 0.6445(5) 1.0397(6)
H10Q H 1.2404 0.6427 0.9378
H10H H 1.0622 0.6427 1.2404
H10R H 0.7596 0.6427 1.0622
O7Q O 1.2151(5) 0.5675(4) 0.9552(5)
O7H O 1.0448(5) 0.5675(4) 1.2151(5)
O7R O 0.7849(5) 0.5675(4) 1.0448(5)
H11Q H 1.1952 0.5752 0.9317
H11H H 1.0683 0.5752 1.1952
H11R H 0.8048 0.5752 1.0683
C8Q C 1.2200(8) 0.6059(5) 0.9860(6)
C8H C 1.0140(6) 0.6059(5) 1.2200(8)
C8R C 0.7800(8) 0.6059(5) 1.0140(6)
H12Q H 1.2499 0.6047 0.9985
H12H H 1.0015 0.6047 1.2499
H12R H 0.7501 0.6047 1.0015
O8Q O 1.2021(7) 0.5706(5) 1.0470(5)
O8H O 0.9530(5) 0.5706(5) 1.2021(7)
O8R O 0.7979(7) 0.5706(5) 0.9530(5)
H13Q H 1.1930 0.5772 1.0767
H13H H 0.9233 0.5772 1.1930
H13R H 0.8070 0.5772 0.9233
C9Q C 1.1915(5) 0.6060(5) 1.0194(5)
C9H C 0.9806(5) 0.6060(5) 1.1915(5)
C9R C 0.8085(5) 0.6060(5) 0.9806(5)
H14Q H 1.1609 0.6042 1.0090
H14H H 0.9910 0.6042 1.1609
H14R H 0.8391 0.6042 0.9910
O9Q O 1.0821(2) 0.6489(2) 0.8322(3)
O9H O 1.1678(3) 0.6489(2) 1.0821(2)
O9R O 0.9179(2) 0.6489(2) 1.1678(3)
C10Q C 1.1997(3) 0.6500(3) 1.0494(4)
C10H C 0.9506(4) 0.6500(3) 1.1997(3)
C10R C 0.8003(3) 0.6500(3) 0.9506(4)
H15R H 0.7701 0.6522 0.9391
H15H H 0.9391 0.6522 1.2299
H15Q H 1.2299 0.6522 1.0609
C11Q C 1.1897(4) 0.6818(4) 1.0214(7)
C11H C 0.9786(7) 0.6818(4) 1.1897(4)
C11R C 0.8103(4) 0.6818(4) 0.9786(7)
H16R H 0.8406 0.6789 0.9896
H16H H 0.9896 0.6789 1.1594
H16Q H 1.1594 0.6789 1.0104
O10R O 0.7578(6) 0.7320(5) 0.9393(6)
O10H O 0.9393(6) 0.7320(5) 1.2422(6)
O10Q O 1.2422(6) 0.7320(5) 1.0607(6)
O10HA O 0.7680(5) 0.4393(6) 0.7422(6)
O10LA O 0.7422(6) 0.5607(6) 0.7680(5)
O10JA O 1.2578(6) 0.4393(6) 0.7680(5)
O10CA O 1.2320(5) 0.5607(6) 0.7422(6)
H17R H 0.7542 0.7582 0.9218
H17H H 0.9218 0.7582 1.2458
H17Q H 1.2458 0.7582 1.0782
H17HA H 0.7418 0.4218 0.7458
H17LA H 0.7458 0.5782 0.7418
H17JA H 1.2542 0.4218 0.7418
H17CA H 1.2582 0.5782 0.7458
C12R C 0.8012(5) 0.7313(6) 0.9581(6)
C12H C 0.9581(6) 0.7313(6) 1.1988(5)
C12Q C 1.1988(5) 0.7313(6) 1.0419(6)
H18R H 0.8035 0.7534 0.9813
H18H H 0.9813 0.7534 1.1965
H18Q H 1.1965 0.7534 1.0187
H19R H 0.8230 0.7380 0.9355
H19H H 0.9355 0.7380 1.1770
H19Q H 1.1770 0.7380 1.0645
O11 O 1.0000 0.5000 0.657(2)
loop_
_geom_bond_atom_site_label_1
_geom_bond_atom_site_label_2
_geom_bond_site_symmetry_1
_geom_bond_site_symmetry_2
Cs1 O2 1_555 1_555
O1 C1 1_555 1_555
C1 H1 1_555 1_555
O2 H2 1_555 1_555
C2 C1 1_555 1_555
H3 C2 1_555 1_555
O3 Cs1 1_555 1_555
H4 O3 1_555 1_555
C3 C2 1_555 1_555
H5 C3 1_555 1_555
O4 C4 1_555 1_555
C4 C3 1_555 1_555
H6 C4 1_555 1_555
C5 O1 1_555 1_555
O5 H7 1_555 1_555
C6 C5 1_555 1_555
H8 C6 1_555 1_555
H9 C6 1_555 1_555
O6 C7 1_555 1_555
C7 O4 1_555 1_555
H10 C7 1_555 1_555
O7 H11 1_555 1_555
C8 C7 1_555 1_555
H12 C8 1_555 1_555
O8 H13 1_555 1_555
C9 C8 1_555 1_555
H14 C9 1_555 1_555
O9 C1 1_555 1_555
C10 C9 1_555 1_555
H15 C10 1_555 1_555
C11 O6 1_555 1_555
H16 C11 1_555 1_555
O10 H17 1_555 1_555
C12 C11 1_555 1_555
H18 C12 1_555 1_555
H19 C12 1_555 1_555
Cs1D O2Q 1_555 1_555
Cs1HA O6 1_555 1_555
Cs1IA O6Q 1_555 1_555
Cs1H O2H 1_555 1_555
Cs1EA O6H 1_555 1_555
Cs1B O2R 1_555 1_555
Cs1GA O6R 1_555 1_555
O1Q C1Q 1_555 1_555
O1H C1H 1_555 1_555
O1R C1R 1_555 1_555
C1Q H1Q 1_555 1_555
C1H H1H 1_555 1_555
C1R H1R 1_555 1_555
O2Q H2Q 1_555 1_555
O2H H2H 1_555 1_555
O2R H2R 1_555 1_555
O2W Cs1 1_555 1_555
O2D Cs1D 1_555 1_555
H2W O2W 1_555 1_555
H2D O2D 1_555 1_555
C2Q C1Q 1_555 1_555
C2H C1H 1_555 1_555
C2R C1R 1_555 1_555
H3Q C2Q 1_555 1_555
H3H C2H 1_555 1_555
H3R C2R 1_555 1_555
O3Q Cs1D 1_555 1_555
O3H Cs1H 1_555 1_555
O3R Cs1B 1_555 1_555
O3W Cs1 1_555 1_555
O3D Cs1D 1_555 1_555
H4Q O3Q 1_555 1_555
H4H O3H 1_555 1_555
H4R O3R 1_555 1_555
H4W O3W 1_555 1_555
H4D O3D 1_555 1_555
C3Q C2Q 1_555 1_555
C3H C2H 1_555 1_555
C3R C2R 1_555 1_555
H5Q C3Q 1_555 1_555
H5H C3H 1_555 1_555
H5R C3R 1_555 1_555
O4Q C4Q 1_555 1_555
O4H C4H 1_555 1_555
O4R C4R 1_555 1_555
C4Q C3Q 1_555 1_555
C4H C3H 1_555 1_555
C4R C3R 1_555 1_555
H6R C4R 1_555 1_555
H6H C4H 1_555 1_555
H6Q C4Q 1_555 1_555
C5Q O1Q 1_555 1_555
C5H O1H 1_555 1_555
C5R O1R 1_555 1_555
O5R H7R 1_555 1_555
O5H H7H 1_555 1_555
O5Q H7Q 1_555 1_555
C6R C5R 1_555 1_555
C6H C5H 1_555 1_555
C6Q C5Q 1_555 1_555
H8R C6R 1_555 1_555
H8H C6H 1_555 1_555
H8Q C6Q 1_555 1_555
H9R C6R 1_555 1_555
H9H C6H 1_555 1_555
H9Q C6Q 1_555 1_555
O6Q C7Q 1_555 1_555
O6H C7H 1_555 1_555
O6R C7R 1_555 1_555
O6HA Cs1 1_555 1_555
O6LA Cs1 1_555 1_555
O6JA Cs1D 1_555 1_555
O6CA Cs1D 1_555 1_555
C7Q O4Q 1_555 1_555
C7H O4H 1_555 1_555
C7R O4R 1_555 1_555
H10Q C7Q 1_555 1_555
H10H C7H 1_555 1_555
H10R C7R 1_555 1_555
O7Q H11Q 1_555 1_555
O7H H11H 1_555 1_555
O7R H11R 1_555 1_555
C8Q C7Q 1_555 1_555
C8H C7H 1_555 1_555
C8R C7R 1_555 1_555
H12Q C8Q 1_555 1_555
H12H C8H 1_555 1_555
H12R C8R 1_555 1_555
O8Q H13Q 1_555 1_555
O8H H13H 1_555 1_555
O8R H13R 1_555 1_555
C9Q C8Q 1_555 1_555
C9H C8H 1_555 1_555
C9R C8R 1_555 1_555
H14Q C9Q 1_555 1_555
H14H C9H 1_555 1_555
H14R C9R 1_555 1_555
O9Q C10 1_555 1_555
O9H C1H 1_555 1_555
O9R C1R 1_555 1_555
C10Q C9Q 1_555 1_555
C10H C9H 1_555 1_555
C10R O9 1_555 1_555
H15R C10R 1_555 1_555
H15H C10H 1_555 1_555
H15Q C10Q 1_555 1_555
C11Q O6Q 1_555 1_555
C11H O6H 1_555 1_555
C11R O6R 1_555 1_555
H16R C11R 1_555 1_555
H16H C11H 1_555 1_555
H16Q C11Q 1_555 1_555
O10R Cs1GA 1_555 1_555
O10H Cs1EA 1_555 1_555
O10Q Cs1IA 1_555 1_555
O10HA Cs1 1_555 1_555
O10LA Cs1 1_555 1_555
O10JA Cs1D 1_555 1_555
O10CA Cs1D 1_555 1_555
H17R O10R 1_555 1_555
H17H O10H 1_555 1_555
H17Q O10Q 1_555 1_555
H17HA O10HA 1_555 1_555
H17LA O10LA 1_555 1_555
H17JA O10JA 1_555 1_555
H17CA O10CA 1_555 1_555
C12R C11R 1_555 1_555
C12H C11H 1_555 1_555
C12Q C11Q 1_555 1_555
H18R C12R 1_555 1_555
H18H C12H 1_555 1_555
H18Q C12Q 1_555 1_555
H19R C12R 1_555 1_555
H19H C12H 1_555 1_555
H19Q C12Q 1_555 1_555
O2 C2 1_555 1_555
O3 C3 1_555 1_555
C4 C5 1_555 1_555
O5 C6 1_555 1_555
O7 C8 1_555 1_555
O8 C9 1_555 1_555
C10 C11 1_555 1_555
O10 C12 1_555 1_555
O10 Cs1HA 1_555 1_555
C1Q O9Q 1_555 1_555
O2Q C2Q 1_555 1_555
O2H C2H 1_555 1_555
O2R C2R 1_555 1_555
O3Q C3Q 1_555 1_555
O3H C3H 1_555 1_555
O3R C3R 1_555 1_555
C4Q C5Q 1_555 1_555
C4H C5H 1_555 1_555
C4R C5R 1_555 1_555
O5R C6R 1_555 1_555
O5H C6H 1_555 1_555
O5Q C6Q 1_555 1_555
O7Q C8Q 1_555 1_555
O7H C8H 1_555 1_555
O7R C8R 1_555 1_555
O8Q C9Q 1_555 1_555
O8H C9H 1_555 1_555
O8R C9R 1_555 1_555
C9R C10R 1_555 1_555
O9H C10Q 1_555 1_555
O9R C10H 1_555 1_555
C10Q C11Q 1_555 1_555
C10H C11H 1_555 1_555
C10R C11R 1_555 1_555
O10R C12R 1_555 1_555
O10H C12H 1_555 1_555
O10Q C12Q 1_555 1_555

#END
