
#######################################################################
#
#                 Cambridge Crystallographic Data Centre
#                                CCDC 
#
#######################################################################
#
# If this CIF has been generated from an entry in the Cambridge 
# Structural Database, then it will include bibliographic, chemical, 
# crystal, experimental, refinement or atomic coordinate data resulting 
# from the CCDC's data processing and validation procedures.
#
#######################################################################

data_LAJLIT
_symmetry_cell_setting           rhombohedral
_symmetry_space_group_name_H-M   'R 3 2'
_symmetry_Int_Tables_number      155
_space_group_name_Hall           'R 3 2"'
loop_
_symmetry_equiv_pos_site_id
_symmetry_equiv_pos_as_xyz
1 x,y,z
2 -y,x-y,z
3 -x+y,-x,z
4 y,x,-z
5 x-y,-y,-z
6 -x,-x+y,-z
7 2/3+x,1/3+y,1/3+z
8 2/3-y,1/3+x-y,1/3+z
9 2/3-x+y,1/3-x,1/3+z
10 2/3+y,1/3+x,1/3-z
11 2/3+x-y,1/3-y,1/3-z
12 2/3-x,1/3-x+y,1/3-z
13 1/3+x,2/3+y,2/3+z
14 1/3-y,2/3+x-y,2/3+z
15 1/3-x+y,2/3-x,2/3+z
16 1/3+y,2/3+x,2/3-z
17 1/3+x-y,2/3-y,2/3-z
18 1/3-x,2/3-x+y,2/3-z
_cell_length_a                   42.6517(3)
_cell_length_b                   42.6517(3)
_cell_length_c                   28.4636(5)
_cell_angle_alpha                90
_cell_angle_beta                 90
_cell_angle_gamma                120
_cell_volume                     44842.8
loop_
_atom_site_label
_atom_site_type_symbol
_atom_site_fract_x
_atom_site_fract_y
_atom_site_fract_z
C1 C 1.0500(4) -0.2280(5) 1.0588(7)
H1 H 1.0656 -0.2021 1.0665
H2 H 1.0250 -0.2332 1.0651
O1 O 1.0514(5) -0.2279(5) 0.9989(9)
C2 C 1.0557(4) -0.2432(7) 1.0924(8)
H3 H 1.0584 -0.2246 1.1158
C3 C 1.0895(4) -0.2355(4) 1.0963(7)
H4 H 1.0919 -0.2528 1.0749
C4 C 1.0908(7) -0.2460(5) 1.1379(9)
H5 H 1.0957 -0.2248 1.1579
O2 O 1.1206(6) -0.2505(4) 1.1459(5)
H6 H 1.1200 -0.2661 1.1273
C5 C 1.0696(4) -0.2767(4) 1.1676(5)
H7 H 1.0715 -0.2961 1.1505
C6 C 1.0328(4) -0.2899(6) 1.1662(8)
H8 H 1.0155 -0.3156 1.1752
O3 O 1.0260(4) -0.2722(3) 1.1162(4)
C7 C 1.1685(3) -0.1009(3) 1.0140(5)
H9 H 1.1436 -0.1057 1.0081
H10 H 1.1811 -0.0780 1.0320
O4 O 1.1844(3) -0.0952(2) 0.9738(3)
C8 C 1.1658(2) -0.1304(2) 1.0448(3)
H11 H 1.1527 -0.1311 1.0742
O5 O 1.14366(17) -0.16414(17) 1.01818(19)
C9 C 1.20161(19) -0.1271(2) 1.0577(2)
H12 H 1.2166 -0.1220 1.0286
O6 O 1.21953(12) -0.09703(14) 1.08915(16)
C10 C 1.19745(19) -0.16074(19) 1.0808(3)
H13 H 1.1863 -0.1637 1.1126
O7 O 1.23207(14) -0.15878(13) 1.0852(2)
C11 C 1.1729(2) -0.1946(2) 1.0497(3)
H14 H 1.1853 -0.1920 1.0189
O8 O 1.16813(16) -0.22653(15) 1.0727(2)
C12 C 1.1371(2) -0.1960(3) 1.0406(3)
H15 H 1.1215 -0.2172 1.0202
O9 O 1.11955(15) -0.19974(14) 1.08422(19)
C13 C 1.2681(2) 0.0271(2) 1.2712(3)
H16 H 1.2562 0.0002 1.2674
O10 O 1.2907(2) 0.03869(26) 1.3130(2)
C14 C 1.2460(2) -0.0226(2) 1.0953(2)
H17 H 1.2200 -0.0400 1.1027
O11 O 1.25814(15) -0.03866(14) 1.06281(18)
C15 C 1.2678(2) -0.0133(2) 1.1408(3)
H18 H 1.2935 0.0057 1.1346
O12 O 1.25174(15) 0.00014(17) 1.17432(19)
C16 C 1.2666(2) -0.0461(3) 1.1605(3)
H19 H 1.2413 -0.0632 1.1711
O13 O 1.29020(14) -0.03625(18) 1.20001(19)
H20 H 1.3002 -0.0138 1.2044
C17 C 1.27706(19) -0.0645(2) 1.1230(3)
H21 H 1.3032 -0.0481 1.1154
O14 O 1.27324(17) -0.09797(17) 1.1408(2)
H22 H 1.2598 -0.1151 1.1229
C18 C 1.25626(18) -0.0707(2) 1.0791(3)
C19 C 1.1948(4) 0.0467(5) 1.2281(4)
H23 H 1.1828 0.0432 1.1972
H24 H 1.1755 0.0327 1.2513
O15 O 1.2093(5) 0.0813(4) 1.2392(4)
H25 H 1.2187 0.0848 1.2660
C20 C 1.2185(3) 0.0301(4) 1.2254(3)
H26 H 1.2040 0.0034 1.2196
C21 C 1.2485(6) 0.0109(4) 1.0714(4)
H27 H 1.2311 0.0027 1.0449
H28 H 1.2409 0.0233 1.0942
O16 O 1.2814(4) 0.0347(2) 1.0551(3)
C22 C 1.2933(3) 0.0463(4) 1.2301(3)
H29 H 1.3058 0.0729 1.2354
O17 O 1.31990(18) 0.0355(2) 1.2229(2)
C23 C 1.2685(3) 0.0364(2) 1.1838(3)
H30 H 1.2848 0.0496 1.1567
O18 O 1.2452(3) 0.0483(2) 1.1886(2)
C24 C 1.1304(3) 0.0286(2) 1.3642(3)
H31 H 1.1328 0.0433 1.3360
H32 H 1.1052 0.0080 1.3653
O19 O 1.13771(14) 0.05015(22) 1.4052(2)
C25 C 1.1564(2) 0.0146(2) 1.3609(2)
H33 H 1.1509 -0.0007 1.3321
C26 C 1.1547(2) -0.0079(2) 1.4049(3)
H34 H 1.1600 0.0067 1.4343
C27 C 1.1818(2) -0.02037(19) 1.3975(2)
H35 H 1.1750 -0.0367 1.3695
O20 O 1.18088(13) -0.03984(14) 1.43995(16)
H36 H 1.2013 -0.0293 1.4528
C28 C 1.2186(2) 0.01143(19) 1.3917(2)
H37 H 1.2242 0.0261 1.4211
O21 O 1.24646(14) 0.00260(13) 1.3864(2)
H38 H 1.2374 -0.0200 1.3873
C29 C 1.2197(2) 0.03523(18) 1.3522(2)
H39 H 1.2440 0.0578 1.3520
O22 O 1.19197(13) 0.04504(20) 1.35789(18)
C30 C 1.0103(3) -0.0866(3) 1.3815(4)
H40 H 0.9991 -0.1080 1.3604
H41 H 1.0159 -0.0650 1.3625
O23 O 0.9845(2) -0.0911(2) 1.4175(4)
C31 C 1.0430(2) -0.0827(2) 1.4008(3)
H42 H 1.0581 -0.0826 1.3737
O24 O 1.06247(16) -0.04836(14) 1.4227(2)
C32 C 1.0390(2) -0.1122(2) 1.4344(4)
H43 H 1.0217 -0.1146 1.4598
O25 O 1.02450(18) -0.14555(16) 1.4107(3)
C33 C 1.0741(2) -0.1042(2) 1.4572(4)
H44 H 1.0908 -0.1045 1.4327
O26 O 1.06774(28) -0.13063(19) 1.4921(3)
C34 C 1.0915(2) -0.0668(2) 1.4803(3)
H45 H 1.0747 -0.0672 1.5051
O27 O 1.12529(21) -0.05814(13) 1.50210(19)
C35 C 1.0962(2) -0.0391(2) 1.4432(3)
H46 H 1.1076 -0.0143 1.4574
O28 O 1.11838(15) -0.03995(13) 1.40647(18)
C36 C 0.9435(4) -0.1849(3) 1.3071(5)
H47 H 0.9453 -0.1609 1.3088
H48 H 0.9482 -0.1891 1.2743
O29 O 0.90814(19) -0.21230(36) 1.3209(3)
C37 C 0.9697(4) -0.1857(4) 1.3376(5)
H49 H 0.9946 -0.1674 1.3268
C38 C 0.9680(3) -0.2224(3) 1.3462(6)
H50 H 0.9427 -0.2412 1.3547
C39 C 0.9942(4) -0.2221(4) 1.3827(8)
H51 H 1.0197 -0.2066 1.3719
O30 O 0.9841(4) -0.2582(3) 1.3799(11)
H52 H 0.9956 -0.2628 1.4000
C40 C 0.9884(3) -0.2087(3) 1.4264(6)
H53 H 0.9644 -0.2272 1.4397
O31 O 1.0160(3) -0.2057(3) 1.4558(6)
H54 H 1.0289 -0.2122 1.4412
C41 C 0.9892(3) -0.1725(2) 1.4212(5)
H55 H 0.9825 -0.1665 1.4522
O32 O 0.96330(13) -0.17576(22) 1.3880(2)
C42 C 0.9800(3) -0.2240(4) 1.1767(5)
H56 H 0.9880 -0.2343 1.1513
H57 H 0.9532 -0.2381 1.1748
O33 O 0.9855(9) -0.1946(11) 1.1558(12)
H58 H 0.9746 -0.1999 1.1299
C43 C 0.9850(4) -0.2416(5) 1.2154(6)
H59 H 1.0054 -0.2214 1.2329
O34 O 0.9516(5) -0.2491(5) 1.2443(5)
C44 C 0.9942(4) -0.2704(5) 1.2161(6)
H60 H 0.9754 -0.2918 1.1982
O35 O 1.0292(3) -0.2553(3) 1.1911(4)
C45 C 0.9972(4) -0.2819(5) 1.2639(6)
H61 H 1.0177 -0.2614 1.2812
O36 O 1.0024(3) -0.3125(4) 1.2615(4)
C46 C 0.9592(4) -0.2940(6) 1.2900(6)
H62 H 0.9400 -0.3152 1.2723
O37 O 0.9619(3) -0.3063(4) 1.3339(5)
C47 C 0.9505(6) -0.2642(6) 1.2867(8)
H63 H 0.9272 -0.2712 1.3032
O38 O 0.9781(3) -0.2325(3) 1.3044(4)
C48 C 1.2401(2) 0.0387(2) 1.2724(3)
H64 H 1.2516 0.0650 1.2799
O39 O 1.21431(15) 0.01732(14) 1.30816(18)
O43 O 1.3718(2) -0.0001 1.0000
O44 O 1.0441(2) -0.2491(2) 0.9289(3)
K1 K 1.31029(9) 0.0000 1.0000
K2 K 1.23175(6) -0.22517(4) 1.08542(6)
K3 K 1.00000(12) -0.29927(12) 1.0000
C1N C 1.0553(6) -0.3833(4) 0.7255(7)
H1N H 1.0656 -0.3989 0.7332
H2N H 1.0751 -0.3583 0.7318
O1N O 1.0540(7) -0.3847(5) 0.6656(9)
O1E O 0.9486(5) -0.2793(7) 1.0011(9)
C2N C 1.0344(8) -0.3890(4) 0.7591(8)
H3N H 1.0503 -0.3917 0.7825
C3N C 1.0083(6) -0.4228(4) 0.7630(7)
H4N H 0.9886 -0.4252 0.7416
C4N C 0.9965(9) -0.4241(7) 0.8046(9)
H5N H 1.0128 -0.4290 0.8246
O2N O 0.9622(7) -0.4539(6) 0.8126(5)
H6N H 0.9472 -0.4533 0.7940
C5N C 0.9870(6) -0.4029(4) 0.8343(5)
H7N H 0.9657 -0.4048 0.8172
C6N C 1.0106(7) -0.3661(4) 0.8329(8)
H8N H 1.0022 -0.3488 0.8419
O3N O 1.0351(5) -0.3593(4) 0.7829(4)
C7N C 1.0639(4) -0.5018(3) 0.6807(5)
H9N H 1.0840 -0.4769 0.6748
H10N H 1.0742 -0.5144 0.6987
O4N O 1.0537(4) -0.5177(3) 0.6405(3)
C8N C 1.0371(3) -0.4991(2) 0.7115(3)
H11N H 1.0495 -0.4860 0.7409
O5N O 1.02553(24) -0.47699(17) 0.68485(19)
C9N C 1.00462(28) -0.53494(19) 0.7244(2)
H12N H 0.9947 -0.5499 0.6953
O6N O 1.01677(18) -0.55286(12) 0.75582(16)
C10N C 0.97514(27) -0.53078(19) 0.7475(3)
H13N H 0.9833 -0.5196 0.7793
O7N O 0.94248(19) -0.56540(14) 0.7519(2)
C11N C 0.9658(3) -0.5062(2) 0.7164(3)
H14N H 0.9560 -0.5186 0.6856
O8N O 0.93867(22) -0.50146(16) 0.7394(2)
C12N C 1.0002(4) -0.4704(2) 0.7073(3)
H15N H 0.9946 -0.4548 0.6869
O9N O 1.01404(21) -0.45288(15) 0.75089(19)
C13N C 1.0923(3) -0.6014(2) 0.9379(3)
H16N H 1.0773 -0.5895 0.9341
O10N O 1.08132(33) -0.6240(2) 0.9797(2)
C14N C 1.0647(3) -0.5793(2) 0.7620(2)
H17N H 1.0733 -0.5533 0.7694
O11N O 1.03653(21) -0.59147(15) 0.72948(18)
O11D O 1.29680(21) 0.03866(14) 0.93719(18)
O11Q O 1.07519(15) -0.63013(21) 0.60386(18)
C15N C 1.0522(3) -0.6011(2) 0.8075(3)
H18N H 1.0455 -0.6268 0.8013
O12N O 1.08173(23) -0.58507(15) 0.84099(19)
C16N C 1.0206(4) -0.5999(2) 0.8272(3)
H19N H 1.0288 -0.5746 0.8378
O13N O 1.00688(23) -0.62353(14) 0.86668(19)
H20N H 1.0193 -0.6335 0.8711
C17N C 0.99177(28) -0.61039(19) 0.7897(3)
H21N H 0.9820 -0.6365 0.7821
O14N O 0.96212(24) -0.60657(17) 0.8075(2)
H22N H 0.9584 -0.5931 0.7896
C18N C 1.00637(27) -0.58959(18) 0.7458(3)
C19N C 1.1852(6) -0.5281(4) 0.8948(4)
H23N H 1.1937 -0.5161 0.8639
H24N H 1.1905 -0.5088 0.9180
O15N O 1.2053(6) -0.5426(5) 0.9059(4)
H25N H 1.1994 -0.5520 0.9327
C20N C 1.1449(5) -0.5518(3) 0.8921(3)
H26N H 1.1327 -0.5373 0.8863
C21N C 1.0957(7) -0.5818(6) 0.7381(4)
H27N H 1.1049 -0.5644 0.7116
H28N H 1.1157 -0.5742 0.7609
O16N O 1.0866(4) -0.6147(4) 0.7218(3)
O16D O 1.2467(4) -0.0347(2) 0.9449(3)
O16Q O 1.0519(4) -0.5800(4) 0.6116(3)
C22N C 1.0863(5) -0.6266(3) 0.8968(3)
H29N H 1.1004 -0.6391 0.9021
O17N O 1.04893(27) -0.65323(18) 0.8896(2)
C23N C 1.1012(4) -0.6018(3) 0.8505(3)
H30N H 1.0981 -0.6181 0.8234
O18N O 1.1364(4) -0.5785(3) 0.8553(2)
C24N C 1.2315(4) -0.4637(3) 1.0309(3)
H31N H 1.2438 -0.4661 1.0027
H32N H 1.2361 -0.4385 1.0320
O19N O 1.24577(26) -0.47104(14) 1.0719(2)
O19M O 1.28318(22) -0.24577(26) 1.0719(2)
O19F O 0.80438(14) -0.61652(22) 0.7385(2)
C25N C 1.1915(3) -0.4897(2) 1.0276(2)
H33N H 1.1817 -0.4842 0.9988
C26N C 1.1707(3) -0.4880(2) 1.0716(3)
H34N H 1.1800 -0.4933 1.1010
C27N C 1.13116(28) -0.5151(2) 1.0642(2)
H35N H 1.1216 -0.5083 1.0362
O20N O 1.11261(19) -0.51421(13) 1.10662(16)
H36N H 1.1027 -0.5346 1.1195
C28N C 1.12616(28) -0.5519(2) 1.0584(2)
H37N H 1.1352 -0.5575 1.0878
O21N O 1.08947(19) -0.57979(14) 1.0531(2)
H38N H 1.0759 -0.5707 1.0540
C29N C 1.14886(27) -0.5530(2) 1.0189(2)
H39N H 1.1471 -0.5773 1.0187
O22N O 1.18640(24) -0.52530(13) 1.02456(18)
O22M O 1.28829(20) -0.18640(24) 1.02456(18)
O22F O 0.85864(13) -0.62163(20) 0.69122(18)
C30N C 1.2364(4) -0.3436(3) 1.0482(4)
H40N H 1.2262 -0.3324 1.0271
H41N H 1.2524 -0.3492 1.0292
O23N O 1.2577(3) -0.3178(2) 1.0842(4)
C31N C 1.2076(3) -0.3763(2) 1.0675(3)
H42N H 1.1926 -0.3914 1.0404
O24N O 1.22250(21) -0.39580(16) 1.0894(2)
C32N C 1.1821(3) -0.3723(2) 1.1011(4)
H43N H 1.1970 -0.3550 1.1265
O25N O 1.16328(24) -0.35783(18) 1.0774(3)
C33N C 1.1550(3) -0.4074(2) 1.1239(4)
H44N H 1.1380 -0.4241 1.0994
O26N O 1.13496(34) -0.40107(28) 1.1588(3)
O26O O 1.20270(19) -0.26559(28) 1.1746(3)
O26J O 0.86504(34) -0.53604(19) 0.8412(3)
C34N C 1.1750(3) -0.4248(2) 1.1470(3)
H45N H 1.1914 -0.4080 1.1718
O27N O 1.14990(25) -0.45862(21) 1.16877(19)
O27O O 1.27519(13) -0.20804(21) 1.16457(19)
O27J O 0.85010(25) -0.60853(13) 0.83123(19)
C35N C 1.1980(3) -0.4295(2) 1.1099(3)
H46N H 1.2114 -0.4409 1.1241
O28N O 1.17500(20) -0.45171(15) 1.07314(18)
C36N C 1.2049(5) -0.2768(4) 0.9738(5)
H47N H 1.2271 -0.2786 0.9755
H48N H 1.1960 -0.2815 0.9410
O29N O 1.21289(41) -0.24147(19) 0.9876(3)
O29G O 0.87897(36) -0.54623(41) 0.6542(3)
C37N C 1.1779(6) -0.3030(4) 1.0043(5)
H49N H 1.1713 -0.3279 0.9935
C38N C 1.1429(4) -0.3013(3) 1.0129(6)
H50N H 1.1494 -0.2760 1.0214
C39N C 1.1170(6) -0.3275(4) 1.0494(8)
H51N H 1.1070 -0.3530 1.0386
O30N O 1.0910(5) -0.3174(4) 1.0466(11)
H52N H 1.0749 -0.3289 1.0667
C40N C 1.1362(4) -0.3217(3) 1.0931(6)
H53N H 1.1417 -0.2977 1.1064
O31N O 1.1116(4) -0.3493(3) 1.1225(6)
H54N H 1.0922 -0.3622 1.1079
C41N C 1.1716(4) -0.3225(3) 1.0879(5)
H55N H 1.1843 -0.3158 1.1189
O32N O 1.19427(26) -0.29663(13) 1.0547(2)
O32G O 0.84243(22) -0.52761(26) 0.7213(2)
C42N C 1.1293(5) -0.3133(3) 0.8434(5)
H56N H 1.1110 -0.3213 0.8180
H57N H 1.1420 -0.2865 0.8415
O33N O 1.1532(14) -0.3188(9) 0.8225(12)
H58N H 1.1588 -0.3079 0.7966
C43N C 1.1067(6) -0.3183(4) 0.8821(6)
H59N H 1.1065 -0.3387 0.8996
O34N O 1.1326(7) -0.2849(5) 0.9110(5)
C44N C 1.0687(6) -0.3275(4) 0.8828(6)
H60N H 1.0661 -0.3087 0.8649
O35N O 1.0488(4) -0.3625(3) 0.8578(4)
C45N C 1.0542(6) -0.3305(4) 0.9306(6)
H61N H 1.0542 -0.3510 0.9479
O36N O 1.0184(5) -0.3357(3) 0.9282(4)
O36J O 0.9816(5) -0.3542(4) 1.0718(4)
C46N C 1.0801(7) -0.2925(4) 0.9567(6)
H62N H 1.0781 -0.2733 0.9390
O37N O 1.0651(5) -0.2952(3) 1.0006(5)
O37J O 0.9349(5) -0.3604(4) 0.9994(5)
C47N C 1.1186(8) -0.2838(6) 0.9534(8)
H63N H 1.1349 -0.2605 0.9699
O38N O 1.1227(4) -0.3114(3) 0.9711(4)
C48N C 1.1319(3) -0.5734(2) 0.9391(3)
H64N H 1.1467 -0.5849 0.9466
O39N O 1.13634(21) -0.54764(15) 0.97483(18)
O43N O 0.9614(2) -0.7051(2) 0.6667
O44E O 0.9559(2) -0.2932(3) 1.0711(3)
K1N K 1.02304(9) -0.64362(9) 0.6667
K2N K 0.87641(7) -0.56508(6) 0.75209(6)
K2H K 1.20975(7) 0.10158(6) 1.41875(6)
K2O K 1.10816(4) -0.10158(6) 1.58125(6)
K2G K 0.89184(4) -0.20975(7) 1.41875(6)
K2A K 1.22517(4) -0.54308(7) 1.08542(6)
K2J K 1.12359(7) -0.44150(4) 1.24791(6)
K3G K 0.96594(12) -0.36740(17) 1.3333
K3N K 1.03406(17) -0.33333(12) 0.6667
C49 C 0.8792(3) 0.2399(3) 0.7478(3)
O40 O 0.84824(18) 0.23455(16) 0.7548(2)
C50 C 0.8875(4) 0.2094(3) 0.7550(4)
O42 O 0.90659(17) 0.27096(16) 0.73677(19)
C51 C 0.8683(3) 0.1851(3) 0.7904(4)
H65 H 0.8499 0.1867 0.8073
C52 C 0.8772(5) 0.1566(4) 0.8011(5)
H66 H 0.8647 0.1387 0.8244
C53 C 0.9058(5) 0.1579(4) 0.7740(5)
H67 H 0.9119 0.1395 0.7790
C54 C 0.9241(4) 0.1826(4) 0.7428(5)
H68 H 0.9438 0.1822 0.7279
C55 C 0.9165(2) 0.2101(3) 0.7297(4)
H69 H 0.9297 0.2275 0.7060
O41 O 0.90267(16) 0.3333 0.8333
O45 O 1.0734(3) -0.2875(3) 1.2269(8)
H70 H 1.0920 -0.2703 1.2391
loop_
_geom_bond_atom_site_label_1
_geom_bond_atom_site_label_2
_geom_bond_site_symmetry_1
_geom_bond_site_symmetry_2
C1 H1 1_555 1_555
H2 C1 1_555 1_555
O1 C1 1_555 1_555
C2 C1 1_555 1_555
H3 C2 1_555 1_555
C3 C2 1_555 1_555
H4 C3 1_555 1_555
C4 C3 1_555 1_555
H5 C4 1_555 1_555
O2 C4 1_555 1_555
H6 O2 1_555 1_555
C5 C4 1_555 1_555
H7 C5 1_555 1_555
C6 C5 1_555 1_555
H8 C6 1_555 1_555
O3 C2 1_555 1_555
C7 H9 1_555 1_555
H10 C7 1_555 1_555
O4 C7 1_555 1_555
C8 C7 1_555 1_555
H11 C8 1_555 1_555
O5 C8 1_555 1_555
C9 C8 1_555 1_555
H12 C9 1_555 1_555
O6 C9 1_555 1_555
C10 C9 1_555 1_555
H13 C10 1_555 1_555
O7 C10 1_555 1_555
C11 C10 1_555 1_555
H14 C11 1_555 1_555
O8 C11 1_555 1_555
C12 O5 1_555 1_555
H15 C12 1_555 1_555
O9 C3 1_555 1_555
C13 H16 1_555 1_555
O10 C13 1_555 1_555
C14 H17 1_555 1_555
O11 C14 1_555 1_555
C15 C14 1_555 1_555
H18 C15 1_555 1_555
O12 C15 1_555 1_555
C16 C15 1_555 1_555
H19 C16 1_555 1_555
O13 C16 1_555 1_555
H20 O13 1_555 1_555
C17 C16 1_555 1_555
H21 C17 1_555 1_555
O14 C17 1_555 1_555
H22 O14 1_555 1_555
C18 O6 1_555 1_555
C19 H23 1_555 1_555
H24 C19 1_555 1_555
O15 C19 1_555 1_555
H25 O15 1_555 1_555
C20 C19 1_555 1_555
H26 C20 1_555 1_555
C21 C14 1_555 1_555
H27 C21 1_555 1_555
H28 C21 1_555 1_555
O16 C21 1_555 1_555
C22 C13 1_555 1_555
H29 C22 1_555 1_555
O17 C22 1_555 1_555
C23 O12 1_555 1_555
H30 C23 1_555 1_555
O18 C20 1_555 1_555
C24 H31 1_555 1_555
H32 C24 1_555 1_555
O19 C24 1_555 1_555
C25 C24 1_555 1_555
H33 C25 1_555 1_555
C26 C25 1_555 1_555
H34 C26 1_555 1_555
C27 C26 1_555 1_555
H35 C27 1_555 1_555
O20 C27 1_555 1_555
H36 O20 1_555 1_555
C28 C27 1_555 1_555
H37 C28 1_555 1_555
O21 C28 1_555 1_555
H38 O21 1_555 1_555
C29 C28 1_555 1_555
H39 C29 1_555 1_555
O22 C25 1_555 1_555
C30 H40 1_555 1_555
H41 C30 1_555 1_555
O23 C30 1_555 1_555
C31 C30 1_555 1_555
H42 C31 1_555 1_555
O24 C31 1_555 1_555
C32 C31 1_555 1_555
H43 C32 1_555 1_555
O25 C32 1_555 1_555
C33 C32 1_555 1_555
H44 C33 1_555 1_555
O26 C33 1_555 1_555
C34 C33 1_555 1_555
H45 C34 1_555 1_555
O27 C34 1_555 1_555
C35 O24 1_555 1_555
H46 C35 1_555 1_555
O28 C26 1_555 1_555
C36 H47 1_555 1_555
H48 C36 1_555 1_555
O29 C36 1_555 1_555
C37 C36 1_555 1_555
H49 C37 1_555 1_555
C38 C37 1_555 1_555
H50 C38 1_555 1_555
C39 C38 1_555 1_555
H51 C39 1_555 1_555
O30 C39 1_555 1_555
H52 O30 1_555 1_555
C40 C39 1_555 1_555
H53 C40 1_555 1_555
O31 C40 1_555 1_555
H54 O31 1_555 1_555
C41 O25 1_555 1_555
H55 C41 1_555 1_555
O32 C37 1_555 1_555
C42 H56 1_555 1_555
H57 C42 1_555 1_555
O33 C42 1_555 1_555
H58 O33 1_555 1_555
C43 C42 1_555 1_555
H59 C43 1_555 1_555
O34 C43 1_555 1_555
C44 C43 1_555 1_555
H60 C44 1_555 1_555
O35 C6 1_555 1_555
C45 C44 1_555 1_555
H61 C45 1_555 1_555
O36 C45 1_555 1_555
C46 C45 1_555 1_555
H62 C46 1_555 1_555
O37 C46 1_555 1_555
C47 O34 1_555 1_555
H63 C47 1_555 1_555
O38 C38 1_555 1_555
C48 C13 1_555 1_555
H64 C48 1_555 1_555
O39 C29 1_555 1_555
C49 O40 1_555 1_555
C50 C49 1_555 1_555
O42 C49 1_555 1_555
O43 K1 1_555 1_555
C51 C50 1_555 1_555
H65 C51 1_555 1_555
O44 K3 1_555 1_555
C52 C51 1_555 1_555
H66 C52 1_555 1_555
C53 C52 1_555 1_555
H67 C53 1_555 1_555
C54 C53 1_555 1_555
H68 C54 1_555 1_555
C55 C50 1_555 1_555
H69 C55 1_555 1_555
K1 O11 1_555 1_555
K2 O7 1_555 1_555
K3 O1 1_555 1_555
O45 H70 1_555 1_555
C1N H1N 1_555 1_555
H2N C1N 1_555 1_555
O1N C1N 1_555 1_555
O1E K3 1_555 1_555
C2N C1N 1_555 1_555
H3N C2N 1_555 1_555
C3N C2N 1_555 1_555
H4N C3N 1_555 1_555
C4N C3N 1_555 1_555
H5N C4N 1_555 1_555
O2N C4N 1_555 1_555
H6N O2N 1_555 1_555
C5N C4N 1_555 1_555
H7N C5N 1_555 1_555
C6N C5N 1_555 1_555
H8N C6N 1_555 1_555
O3N C2N 1_555 1_555
C7N H9N 1_555 1_555
H10N C7N 1_555 1_555
O4N C7N 1_555 1_555
C8N C7N 1_555 1_555
H11N C8N 1_555 1_555
O5N C8N 1_555 1_555
C9N C8N 1_555 1_555
H12N C9N 1_555 1_555
O6N C9N 1_555 1_555
C10N C9N 1_555 1_555
H13N C10N 1_555 1_555
O7N C10N 1_555 1_555
C11N C10N 1_555 1_555
H14N C11N 1_555 1_555
O8N C11N 1_555 1_555
C12N O5N 1_555 1_555
H15N C12N 1_555 1_555
O9N C3N 1_555 1_555
C13N H16N 1_555 1_555
O10N C13N 1_555 1_555
C14N H17N 1_555 1_555
O11N C14N 1_555 1_555
O11D K1 1_555 1_555
O11Q K1N 1_555 1_555
C15N C14N 1_555 1_555
H18N C15N 1_555 1_555
O12N C15N 1_555 1_555
C16N C15N 1_555 1_555
H19N C16N 1_555 1_555
O13N C16N 1_555 1_555
H20N O13N 1_555 1_555
C17N C16N 1_555 1_555
H21N C17N 1_555 1_555
O14N C17N 1_555 1_555
H22N O14N 1_555 1_555
C18N O6N 1_555 1_555
C19N H23N 1_555 1_555
H24N C19N 1_555 1_555
O15N C19N 1_555 1_555
H25N O15N 1_555 1_555
C20N C19N 1_555 1_555
H26N C20N 1_555 1_555
C21N C14N 1_555 1_555
H27N C21N 1_555 1_555
H28N C21N 1_555 1_555
O16N C21N 1_555 1_555
O16D K1 1_555 1_555
O16Q K1N 1_555 1_555
C22N C13N 1_555 1_555
H29N C22N 1_555 1_555
O17N C22N 1_555 1_555
C23N O12N 1_555 1_555
H30N C23N 1_555 1_555
O18N C20N 1_555 1_555
C24N H31N 1_555 1_555
H32N C24N 1_555 1_555
O19N C24N 1_555 1_555
O19M K2 1_555 1_555
O19F K2N 1_555 1_555
C25N C24N 1_555 1_555
H33N C25N 1_555 1_555
C26N C25N 1_555 1_555
H34N C26N 1_555 1_555
C27N C26N 1_555 1_555
H35N C27N 1_555 1_555
O20N C27N 1_555 1_555
H36N O20N 1_555 1_555
C28N C27N 1_555 1_555
H37N C28N 1_555 1_555
O21N C28N 1_555 1_555
H38N O21N 1_555 1_555
C29N C28N 1_555 1_555
H39N C29N 1_555 1_555
O22N C25N 1_555 1_555
O22M K2 1_555 1_555
O22F K2N 1_555 1_555
C30N H40N 1_555 1_555
H41N C30N 1_555 1_555
O23N C30N 1_555 1_555
C31N C30N 1_555 1_555
H42N C31N 1_555 1_555
O24N C31N 1_555 1_555
C32N C31N 1_555 1_555
H43N C32N 1_555 1_555
O25N C32N 1_555 1_555
C33N C32N 1_555 1_555
H44N C33N 1_555 1_555
O26N C33N 1_555 1_555
O26O K2 1_555 1_555
O26J K2N 1_555 1_555
C34N C33N 1_555 1_555
H45N C34N 1_555 1_555
O27N C34N 1_555 1_555
O27O K2 1_555 1_555
O27J K2N 1_555 1_555
C35N O24N 1_555 1_555
H46N C35N 1_555 1_555
O28N C26N 1_555 1_555
C36N H47N 1_555 1_555
H48N C36N 1_555 1_555
O29N K2 1_555 1_555
O29G K2N 1_555 1_555
C37N C36N 1_555 1_555
H49N C37N 1_555 1_555
C38N C37N 1_555 1_555
H50N C38N 1_555 1_555
C39N C38N 1_555 1_555
H51N C39N 1_555 1_555
O30N C39N 1_555 1_555
H52N O30N 1_555 1_555
C40N C39N 1_555 1_555
H53N C40N 1_555 1_555
O31N C40N 1_555 1_555
H54N O31N 1_555 1_555
C41N O25N 1_555 1_555
H55N C41N 1_555 1_555
O32N K2 1_555 1_555
O32G K2N 1_555 1_555
C42N H56N 1_555 1_555
H57N C42N 1_555 1_555
O33N C42N 1_555 1_555
H58N O33N 1_555 1_555
C43N C42N 1_555 1_555
H59N C43N 1_555 1_555
O34N C43N 1_555 1_555
C44N C43N 1_555 1_555
H60N C44N 1_555 1_555
O35N C6N 1_555 1_555
C45N C44N 1_555 1_555
H61N C45N 1_555 1_555
O36N K3 1_555 1_555
O36J K3 1_555 1_555
C46N C45N 1_555 1_555
H62N C46N 1_555 1_555
O37N K3 1_555 1_555
O37J K3 1_555 1_555
C47N O34N 1_555 1_555
H63N C47N 1_555 1_555
O38N C38N 1_555 1_555
C48N C13N 1_555 1_555
H64N C48N 1_555 1_555
O39N C29N 1_555 1_555
O43N K1N 1_555 1_555
O44E K3 1_555 1_555
K1N O11N 1_555 1_555
K2N O7N 1_555 1_555
K2H O19 1_555 1_555
K2O O26 1_555 1_555
K2G O29 1_555 1_555
K2A O19N 1_555 1_555
K2J O26N 1_555 1_555
K3G O36 1_555 1_555
K3N O1N 1_555 1_555
C6 O3 1_555 1_555
C11 C12 1_555 1_555
O8 K2 1_555 1_555
C12 O9 1_555 1_555
O11 C18 1_555 1_555
C17 C18 1_555 1_555
C20 C48 1_555 1_555
O16 K1 1_555 1_555
C22 C23 1_555 1_555
C23 O18 1_555 1_555
C29 O22 1_555 1_555
O22 K2H 1_555 1_555
C34 C35 1_555 1_555
O27 K2O 1_555 1_555
C35 O28 1_555 1_555
C40 C41 1_555 1_555
C41 O32 1_555 1_555
O32 K2G 1_555 1_555
C44 O35 1_555 1_555
C46 C47 1_555 1_555
O37 K3G 1_555 1_555
C47 O38 1_555 1_555
C48 O39 1_555 1_555
C54 C55 1_555 1_555
C6N O3N 1_555 1_555
C11N C12N 1_555 1_555
O8N K2N 1_555 1_555
C12N O9N 1_555 1_555
O11N C18N 1_555 1_555
C17N C18N 1_555 1_555
C20N C48N 1_555 1_555
O16N K1N 1_555 1_555
C22N C23N 1_555 1_555
C23N O18N 1_555 1_555
C29N O22N 1_555 1_555
O22N K2A 1_555 1_555
C34N C35N 1_555 1_555
O27N K2J 1_555 1_555
C35N O28N 1_555 1_555
C36N O29N 1_555 1_555
C37N O32N 1_555 1_555
C40N C41N 1_555 1_555
C41N O32N 1_555 1_555
C44N O35N 1_555 1_555
C45N O36N 1_555 1_555
C46N O37N 1_555 1_555
C46N C47N 1_555 1_555
C47N O38N 1_555 1_555
C48N O39N 1_555 1_555

#END
