
#######################################################################
#
#                 Cambridge Crystallographic Data Centre
#                                CCDC 
#
#######################################################################
#
# If this CIF has been generated from an entry in the Cambridge 
# Structural Database, then it will include bibliographic, chemical, 
# crystal, experimental, refinement or atomic coordinate data resulting 
# from the CCDC's data processing and validation procedures.
#
#######################################################################

data_LAJLOZ
_symmetry_cell_setting           monoclinic
_symmetry_space_group_name_H-M   'P 21/c'
_symmetry_Int_Tables_number      14
_space_group_name_Hall           '-P 2ybc'
loop_
_symmetry_equiv_pos_site_id
_symmetry_equiv_pos_as_xyz
1 x,y,z
2 -x,1/2+y,1/2-z
3 -x,-y,-z
4 x,1/2-y,1/2+z
_cell_length_a                   14.303(3)
_cell_length_b                   24.284(5)
_cell_length_c                   15.840(7)
_cell_angle_alpha                90
_cell_angle_beta                 121.99(2)
_cell_angle_gamma                90
_cell_volume                     4666.28
loop_
_atom_site_label
_atom_site_type_symbol
_atom_site_fract_x
_atom_site_fract_y
_atom_site_fract_z
Co1 Co 0.25215(8) 0.49834(4) 0.49957(7)
Fe1 Fe 0.04216(9) 0.36922(4) 0.57619(8)
Fe2 Fe 0.42604(9) 0.38425(4) 0.36981(7)
N1 N 0.1105(5) 0.4210(3) 0.6919(4)
N2 N 0.1666(5) 0.4000(2) 0.7887(4)
N3 N 0.1776(5) 0.3253(2) 0.6435(4)
N4 N 0.2286(5) 0.3146(2) 0.7455(4)
N5 N -0.0156(5) 0.3256(2) 0.6458(4)
N6 N 0.0531(5) 0.3154(2) 0.7480(4)
N7 N 0.3362(4) 0.4912(2) 0.6483(4)
N8 N 0.4106(5) 0.3530(2) 0.1802(4)
N9 N 0.4757(5) 0.3495(2) 0.2828(4)
N10 N 0.2296(5) 0.3537(2) 0.1730(4)
N11 N 0.2750(5) 0.3510(2) 0.2759(4)
N12 N 0.1675(4) 0.5071(2) 0.3526(4)
N13 N 0.3183(5) 0.4421(2) 0.1734(4)
N14 N 0.3743(5) 0.4501(2) 0.2760(4)
N15 N 0.1508(5) 0.4435(2) 0.4929(4)
N16 N 0.3400(5) 0.4433(2) 0.4867(4)
N17 N -0.0901(6) 0.2923(3) 0.3921(6)
N18 N 0.5064(6) 0.2814(3) 0.5051(5)
C1 C -0.1148(7) 0.3045(3) 0.6181(6)
H1 H -0.1777 0.3055 0.5523
C2 C -0.1122(8) 0.2807(3) 0.7003(6)
H2 H -0.1711 0.2629 0.7007
C3 C -0.0053(7) 0.2886(3) 0.7811(6)
H3 H 0.0222 0.2772 0.8476
C4 C 0.1146(6) 0.4763(3) 0.7006(6)
H4 H 0.0835 0.5013 0.6461
C5 C 0.1718(6) 0.4920(3) 0.8020(6)
H5 H 0.1856 0.5283 0.8284
C6 C 0.2034(6) 0.4426(3) 0.8545(6)
H6 H 0.2441 0.4392 0.9249
C7 C 0.4135(6) 0.5324(3) 0.8111(5)
H7 H 0.4281 0.5650 0.8493
C8 C 0.3591(6) 0.5360(3) 0.7062(5)
H8 H 0.3380 0.5713 0.6757
C9 C 0.3691(6) 0.4414(3) 0.6938(5)
H9 H 0.3554 0.4095 0.6541
C10 C 0.4224(6) 0.4353(3) 0.7972(5)
H10 H 0.4429 0.3996 0.8260
C11 C 0.4459(6) 0.4815(3) 0.8590(5)
C12 C 0.5033(6) 0.4756(3) 0.9721(5)
H11 H 0.4714 0.4433 0.9861
H12 H 0.5822 0.4675 0.9994
C13 C 0.1545(6) 0.5580(3) 0.3101(5)
H13 H 0.1820 0.5896 0.3516
C14 C 0.1018(6) 0.5645(3) 0.2071(5)
H14 H 0.0923 0.6004 0.1800
C15 C 0.0624(6) 0.5188(3) 0.1426(5)
C16 C 0.0722(6) 0.4673(3) 0.1864(5)
H15 H 0.0433 0.4353 0.1461
C17 C 0.1254(6) 0.4632(3) 0.2912(5)
H16 H 0.1319 0.4279 0.3196
C18 C 0.1991(6) 0.3261(3) 0.2878(6)
H17 H 0.2078 0.3184 0.3504
C19 C 0.1045(7) 0.3128(3) 0.1950(6)
H18 H 0.0389 0.2957 0.1832
C20 C 0.1280(6) 0.3301(3) 0.1245(6)
H19 H 0.0810 0.3262 0.0545
C21 C -0.0361(6) 0.3213(3) 0.4607(6)
C22 C 0.1022(6) 0.4137(3) 0.5133(5)
C23 C 0.2451(7) 0.3046(3) 0.6146(7)
H20 H 0.2311 0.3058 0.5489
C24 C 0.3382(7) 0.2814(3) 0.6972(7)
H21 H 0.3983 0.2642 0.6978
C25 C 0.3261(7) 0.2883(3) 0.7794(6)
H22 H 0.3765 0.2767 0.8459
C26 C 0.4743(7) 0.3214(3) 0.4538(5)
C27 C 0.3746(6) 0.4192(3) 0.4439(5)
C28 C 0.5677(6) 0.3229(3) 0.3033(6)
H23 H 0.6274 0.3147 0.3686
C29 C 0.5642(6) 0.3087(3) 0.2148(6)
H24 H 0.6187 0.2899 0.2089
C30 C 0.4620(7) 0.3287(3) 0.1381(6)
H25 H 0.4336 0.3258 0.0688
C31 C 0.2957(6) 0.4919(3) 0.1279(6)
H26 H 0.2579 0.4977 0.0580
C32 C 0.3366(6) 0.5331(3) 0.1996(5)
H27 H 0.3332 0.5717 0.1893
C33 C 0.0103(6) 0.5268(3) 0.0299(5)
H28 H 0.0593 0.5509 0.0195
H29 H -0.0608 0.5463 0.0028
C34 C 0.3844(6) 0.5048(3) 0.2914(5)
H30 H 0.4188 0.5220 0.3548
B1 B 0.1756(8) 0.3365(4) 0.8028(7)
H31 H 0.233(6) 0.325(3) 0.887(5)
B2 B 0.2970(8) 0.3830(3) 0.1342(6)
H32 H 0.250(6) 0.387(3) 0.053(5)
N19 N 0.3547(5) 0.5534(2) 0.5135(4)
N20 N 0.1571(5) 0.5531(2) 0.5039(4)
C35 C 0.0862(6) 0.5842(3) 0.4827(5)
C36 C 0.4366(6) 0.5791(3) 0.5537(5)
Co1B Co 0.74785(8) 0.50166(4) 1.50043(7)
Co1B_2 Co -0.25215(8) 0.50166(4) -0.49957(7)
Co1B_3 Co -0.25215(8) 0.50166(4) 0.50043(7)
Co1B_4 Co 0.74785(8) 0.50166(4) 0.50043(7)
Fe1B Fe -0.04216(9) 0.63078(4) 0.42381(8)
Fe1B_2 Fe 0.95784(9) 0.63078(4) 1.42381(8)
Fe2B Fe 0.57396(9) 0.61575(4) 0.63019(7)
Fe2B_2 Fe 0.57396(9) 0.61575(4) 1.63019(7)
N1B N -0.1105(5) 0.5790(3) 0.3081(4)
N2B N -0.1666(5) 0.6000(2) 0.2113(4)
N3B N -0.1776(5) 0.6747(2) 0.3565(4)
N4B N -0.2286(5) 0.6854(2) 0.2545(4)
N5B N 0.0156(5) 0.6744(2) 0.3542(4)
N6B N -0.0531(5) 0.6846(2) 0.2520(4)
N7B N 0.6638(4) 0.5088(2) 1.3517(4)
N8B N 0.5894(5) 0.6470(2) 0.8198(4)
N9B N 0.5243(5) 0.6505(2) 0.7172(4)
N10B N 0.7704(5) 0.6463(2) 0.8270(4)
N11B N 0.7250(5) 0.6490(2) 0.7241(4)
N12B N -0.1675(4) 0.4929(2) -0.3526(4)
N12B_2 N 0.8325(4) 0.4929(2) 1.6474(4)
N13B N 0.6817(5) 0.5579(2) 0.8266(4)
N14B N 0.6257(5) 0.5499(2) 0.7240(4)
N15B N 0.8492(5) 0.5565(2) 1.5071(4)
N16B N 0.6600(5) 0.5567(2) 1.5133(4)
N17B N 0.0901(6) 0.7077(3) 0.6079(6)
N18B N 0.4936(6) 0.7186(3) 0.4949(5)
C1B C 0.1148(7) 0.6955(3) 0.3819(6)
H1B H 0.1777 0.6945 0.4477
C2B C 0.1122(8) 0.7193(3) 0.2997(6)
H2B H 0.1711 0.7371 0.2993
C3B C 0.0053(7) 0.7114(3) 0.2189(6)
H3B H -0.0222 0.7228 0.1524
C4B C -0.1146(6) 0.5237(3) 0.2994(6)
H4B H -0.0835 0.4987 0.3539
C5B C -0.1718(6) 0.5080(3) 0.1980(6)
H5B H -0.1856 0.4717 0.1716
C6B C -0.2034(6) 0.5574(3) 0.1455(6)
H6B H -0.2441 0.5608 0.0751
C7B C 0.5865(6) 0.4676(3) 1.1889(5)
H7B H 0.5719 0.4350 1.1507
C8B C 0.6409(6) 0.4640(3) 1.2938(5)
H8B H 0.6620 0.4287 1.3243
C9B C 0.6309(6) 0.5586(3) 1.3062(5)
H9B H 0.6446 0.5905 1.3459
C10B C 0.5776(6) 0.5647(3) 1.2028(5)
H10B H 0.5571 0.6004 1.1740
C11B C 0.5541(6) 0.5185(3) 1.1410(5)
C12B C 0.4967(6) 0.5244(3) 1.0279(5)
H11B H 0.5286 0.5567 1.0139
H12B H 0.4178 0.5325 1.0006
C13B C -0.1545(6) 0.4420(3) -0.3101(5)
H13B H -0.1820 0.4104 -0.3516
C14B C -0.1018(6) 0.4355(3) -0.2071(5)
H14B H -0.0923 0.3996 -0.1800
C15B C -0.0624(6) 0.4812(3) -0.1426(5)
C16B C -0.0722(6) 0.5327(3) -0.1864(5)
H15B H -0.0433 0.5647 -0.1461
C17B C -0.1254(6) 0.5368(3) -0.2912(5)
H16B H -0.1319 0.5721 -0.3196
C18B C 0.8009(6) 0.6739(3) 0.7122(6)
H17B H 0.7922 0.6816 0.6496
C19B C 0.8955(7) 0.6872(3) 0.8050(6)
H18B H 0.9611 0.7043 0.8168
C20B C 0.8720(6) 0.6699(3) 0.8755(6)
H19B H 0.9190 0.6738 0.9455
C21B C 0.0361(6) 0.6787(3) 0.5393(6)
C22B C 0.8978(6) 0.5863(3) 1.4867(5)
C22B_2 C -0.1022(6) 0.5863(3) 0.4867(5)
C23B C -0.2451(7) 0.6954(3) 0.3854(7)
H20B H -0.2311 0.6942 0.4511
C24B C -0.3382(7) 0.7186(3) 0.3028(7)
H21B H -0.3983 0.7358 0.3022
C25B C -0.3261(7) 0.7117(3) 0.2206(6)
H22B H -0.3765 0.7233 0.1541
C26B C 0.5257(7) 0.6786(3) 0.5462(5)
C27B C 0.6254(6) 0.5808(3) 1.5561(5)
C27B_2 C 0.6254(6) 0.5808(3) 0.5561(5)
C28B C 0.4323(6) 0.6771(3) 0.6967(6)
H23B H 0.3726 0.6853 0.6314
C29B C 0.4358(6) 0.6913(3) 0.7852(6)
H24B H 0.3813 0.7101 0.7911
C30B C 0.5380(7) 0.6713(3) 0.8619(6)
H25B H 0.5664 0.6742 0.9312
C31B C 0.7043(6) 0.5081(3) 0.8721(6)
H26B H 0.7421 0.5023 0.9420
C32B C 0.6634(6) 0.4669(3) 0.8004(5)
H27B H 0.6668 0.4283 0.8107
C33B C -0.0103(6) 0.4732(3) -0.0299(5)
H28B H -0.0593 0.4491 -0.0195
H29B H 0.0608 0.4537 -0.0028
C34B C 0.6156(6) 0.4952(3) 0.7086(5)
H30B H 0.5812 0.4780 0.6452
B1B B -0.1756(8) 0.6635(4) 0.1972(7)
H31B H -0.233(6) 0.675(3) 0.113(5)
B2B B 0.7030(8) 0.6170(3) 0.8658(6)
H32B H 0.750(6) 0.613(3) 0.947(5)
N19B N 0.6453(5) 0.4466(2) 0.4865(4)
N19B_2 N 0.6453(5) 0.4466(2) 1.4865(4)
N20B N -0.1571(5) 0.4469(2) 0.4961(4)
N20B_2 N 0.8429(5) 0.4469(2) 1.4961(4)
C35B C -0.0862(6) 0.4158(3) 0.5173(5)
C36B C 0.5634(6) 0.4209(3) 0.4463(5)
O1 O 0.2089(7) 0.8675(3) 0.3134(6)
O2 O 0.1705(8) 0.8925(4) 0.4721(6)
O3 O 0.3779(8) 0.8146(4) 0.4902(7)
O4 O 0.2532(10) 0.7018(4) 0.1051(7)
O5 O 0.363(4) 0.6610(10) 0.3050(10)
O6? O 0.171(3) 0.6841(13) 0.1067(19)
O7? O 0.413(5) 0.6677(13) 0.293(4)
loop_
_geom_bond_atom_site_label_1
_geom_bond_atom_site_label_2
_geom_bond_site_symmetry_1
_geom_bond_site_symmetry_2
Co1 N7 1_555 1_555
Fe1 N1 1_555 1_555
Fe2 N9 1_555 1_555
N1 N2 1_555 1_555
N2 C6 1_555 1_555
N3 Fe1 1_555 1_555
N4 N3 1_555 1_555
N5 Fe1 1_555 1_555
N6 N5 1_555 1_555
N7 C8 1_555 1_555
N8 N9 1_555 1_555
N9 C28 1_555 1_555
N10 N11 1_555 1_555
N11 Fe2 1_555 1_555
N12 Co1 1_555 1_555
N13 N14 1_555 1_555
N14 Fe2 1_555 1_555
N15 Co1 1_555 1_555
N16 Co1 1_555 1_555
N17 C21 1_555 1_555
N18 C26 1_555 1_555
C1 N5 1_555 1_555
H1 C1 1_555 1_555
C2 C1 1_555 1_555
H2 C2 1_555 1_555
C3 N6 1_555 1_555
H3 C3 1_555 1_555
C4 N1 1_555 1_555
H4 C4 1_555 1_555
C5 C4 1_555 1_555
H5 C5 1_555 1_555
C6 C5 1_555 1_555
H6 C6 1_555 1_555
C7 H7 1_555 1_555
C8 C7 1_555 1_555
H8 C8 1_555 1_555
C9 N7 1_555 1_555
H9 C9 1_555 1_555
C10 C9 1_555 1_555
H10 C10 1_555 1_555
C11 C7 1_555 1_555
C12 C11 1_555 1_555
H11 C12 1_555 1_555
H12 C12 1_555 1_555
C13 N12 1_555 1_555
H13 C13 1_555 1_555
C14 C13 1_555 1_555
H14 C14 1_555 1_555
C15 C14 1_555 1_555
C16 C15 1_555 1_555
H15 C16 1_555 1_555
C17 N12 1_555 1_555
H16 C17 1_555 1_555
C18 N11 1_555 1_555
H17 C18 1_555 1_555
C19 C18 1_555 1_555
H18 C19 1_555 1_555
C20 N10 1_555 1_555
H19 C20 1_555 1_555
C21 Fe1 1_555 1_555
C22 Fe1 1_555 1_555
C23 N3 1_555 1_555
H20 C23 1_555 1_555
C24 C23 1_555 1_555
H21 C24 1_555 1_555
C25 N4 1_555 1_555
H22 C25 1_555 1_555
C26 Fe2 1_555 1_555
C27 Fe2 1_555 1_555
C28 H23 1_555 1_555
C29 C28 1_555 1_555
H24 C29 1_555 1_555
C30 N8 1_555 1_555
H25 C30 1_555 1_555
C31 N13 1_555 1_555
H26 C31 1_555 1_555
C32 C31 1_555 1_555
H27 C32 1_555 1_555
C33 C15 1_555 1_555
H28 C33 1_555 1_555
H29 C33 1_555 1_555
C34 N14 1_555 1_555
H30 C34 1_555 1_555
B1 N2 1_555 1_555
H31 B1 1_555 1_555
B2 N8 1_555 1_555
H32 B2 1_555 1_555
N19 Co1 1_555 1_555
N20 Co1 1_555 1_555
C35 N20 1_555 1_555
C36 N19 1_555 1_555
Co1B N7B 1_555 1_555
Co1B_2 N12B 1_555 1_555
Co1B_3 N20B 1_555 1_555
Co1B_4 N19B 1_555 1_555
Fe1B C35 1_555 1_555
Fe1B_2 C22B 1_555 1_555
Fe2B C36 1_555 1_555
Fe2B_2 C27B 1_555 1_555
N1B Fe1B 1_555 1_555
N2B N1B 1_555 1_555
N3B Fe1B 1_555 1_555
N4B N3B 1_555 1_555
N5B Fe1B 1_555 1_555
N6B N5B 1_555 1_555
N7B C8B 1_555 1_555
N8B N9B 1_555 1_555
N9B Fe2B 1_555 1_555
N10B N11B 1_555 1_555
N11B Fe2B 1_555 1_555
N12B C13B 1_555 1_555
N12B_2 Co1B 1_555 1_555
N13B N14B 1_555 1_555
N14B Fe2B 1_555 1_555
N15B Co1B 1_555 1_555
N16B Co1B 1_555 1_555
N17B C21B 1_555 1_555
N18B C26B 1_555 1_555
C1B N5B 1_555 1_555
H1B C1B 1_555 1_555
C2B C1B 1_555 1_555
H2B C2B 1_555 1_555
C3B N6B 1_555 1_555
H3B C3B 1_555 1_555
C4B N1B 1_555 1_555
H4B C4B 1_555 1_555
C5B C4B 1_555 1_555
H5B C5B 1_555 1_555
C6B N2B 1_555 1_555
H6B C6B 1_555 1_555
C7B H7B 1_555 1_555
C8B C7B 1_555 1_555
H8B C8B 1_555 1_555
C9B N7B 1_555 1_555
H9B C9B 1_555 1_555
C10B C9B 1_555 1_555
H10B C10B 1_555 1_555
C11B C7B 1_555 1_555
C12B C12 1_555 1_555
H11B C12B 1_555 1_555
H12B C12B 1_555 1_555
C13B H13B 1_555 1_555
C14B C13B 1_555 1_555
H14B C14B 1_555 1_555
C15B C14B 1_555 1_555
C16B C15B 1_555 1_555
H15B C16B 1_555 1_555
C17B N12B 1_555 1_555
H16B C17B 1_555 1_555
C18B N11B 1_555 1_555
H17B C18B 1_555 1_555
C19B C18B 1_555 1_555
H18B C19B 1_555 1_555
C20B N10B 1_555 1_555
H19B C20B 1_555 1_555
C21B Fe1B 1_555 1_555
C22B N15B 1_555 1_555
C22B_2 Fe1B 1_555 1_555
C23B N3B 1_555 1_555
H20B C23B 1_555 1_555
C24B C23B 1_555 1_555
H21B C24B 1_555 1_555
C25B N4B 1_555 1_555
H22B C25B 1_555 1_555
C26B Fe2B 1_555 1_555
C27B N16B 1_555 1_555
C27B_2 Fe2B 1_555 1_555
C28B N9B 1_555 1_555
H23B C28B 1_555 1_555
C29B C28B 1_555 1_555
H24B C29B 1_555 1_555
C30B N8B 1_555 1_555
H25B C30B 1_555 1_555
C31B N13B 1_555 1_555
H26B C31B 1_555 1_555
C32B C31B 1_555 1_555
H27B C32B 1_555 1_555
C33B C33 1_555 1_555
H28B C33B 1_555 1_555
H29B C33B 1_555 1_555
C34B N14B 1_555 1_555
H30B C34B 1_555 1_555
B1B N2B 1_555 1_555
H31B B1B 1_555 1_555
B2B N8B 1_555 1_555
H32B B2B 1_555 1_555
N19B C36B 1_555 1_555
N19B_2 Co1B 1_555 1_555
N20B C35B 1_555 1_555
N20B_2 Co1B 1_555 1_555
C35B Fe1 1_555 1_555
C36B Fe2 1_555 1_555
N4 B1 1_555 1_555
N6 B1 1_555 1_555
N10 B2 1_555 1_555
N13 B2 1_555 1_555
N15 C22 1_555 1_555
N16 C27 1_555 1_555
C2 C3 1_555 1_555
C10 C11 1_555 1_555
C16 C17 1_555 1_555
C19 C20 1_555 1_555
C24 C25 1_555 1_555
C29 C30 1_555 1_555
C32 C34 1_555 1_555
N4B B1B 1_555 1_555
N6B B1B 1_555 1_555
N10B B2B 1_555 1_555
N13B B2B 1_555 1_555
C2B C3B 1_555 1_555
C5B C6B 1_555 1_555
C10B C11B 1_555 1_555
C11B C12B 1_555 1_555
C15B C33B 1_555 1_555
C16B C17B 1_555 1_555
C19B C20B 1_555 1_555
C24B C25B 1_555 1_555
C29B C30B 1_555 1_555
C32B C34B 1_555 1_555

#END
