
#######################################################################
#
#                 Cambridge Crystallographic Data Centre
#                                CCDC 
#
#######################################################################
#
# If this CIF has been generated from an entry in the Cambridge 
# Structural Database, then it will include bibliographic, chemical, 
# crystal, experimental, refinement or atomic coordinate data resulting 
# from the CCDC's data processing and validation procedures.
#
#######################################################################

data_LAJLEP
_symmetry_cell_setting           cubic
_symmetry_space_group_name_H-M   'I 4 3 2'
_symmetry_Int_Tables_number      211
_space_group_name_Hall           'I 4 2 3'
loop_
_symmetry_equiv_pos_site_id
_symmetry_equiv_pos_as_xyz
1 x,y,z
2 -y,x,z
3 x,-y,-z
4 z,x,y
5 -x,-y,z
6 y,x,-z
7 -x,z,y
8 y,-x,z
9 -x,y,-z
10 -z,-x,y
11 -y,-x,-z
12 x,-z,y
13 z,-x,-y
14 -x,-z,-y
15 -z,x,-y
16 x,z,-y
17 y,z,x
18 -z,y,x
19 z,y,-x
20 y,-z,-x
21 -z,-y,-x
22 -y,z,-x
23 -y,-z,x
24 z,-y,x
25 1/2+x,1/2+y,1/2+z
26 1/2-y,1/2+x,1/2+z
27 1/2+x,1/2-y,1/2-z
28 1/2+z,1/2+x,1/2+y
29 1/2-x,1/2-y,1/2+z
30 1/2+y,1/2+x,1/2-z
31 1/2-x,1/2+z,1/2+y
32 1/2+y,1/2-x,1/2+z
33 1/2-x,1/2+y,1/2-z
34 1/2-z,1/2-x,1/2+y
35 1/2-y,1/2-x,1/2-z
36 1/2+x,1/2-z,1/2+y
37 1/2+z,1/2-x,1/2-y
38 1/2-x,1/2-z,1/2-y
39 1/2-z,1/2+x,1/2-y
40 1/2+x,1/2+z,1/2-y
41 1/2+y,1/2+z,1/2+x
42 1/2-z,1/2+y,1/2+x
43 1/2+z,1/2+y,1/2-x
44 1/2+y,1/2-z,1/2-x
45 1/2-z,1/2-y,1/2-x
46 1/2-y,1/2+z,1/2-x
47 1/2-y,1/2-z,1/2+x
48 1/2+z,1/2-y,1/2+x
_cell_length_a                   31.0790(12)
_cell_length_b                   31.0790(12)
_cell_length_c                   31.0790(12)
_cell_angle_alpha                90
_cell_angle_beta                 90
_cell_angle_gamma                90
_cell_volume                     30019.3
loop_
_atom_site_label
_atom_site_type_symbol
_atom_site_fract_x
_atom_site_fract_y
_atom_site_fract_z
Rb1 Rb 0.81338(3) 0.5000 0.81338(3)
O1 O 0.8385(3) 0.6914(2) 0.8584(2)
C1 C 0.8177(4) 0.6541(3) 0.8745(3)
H1 H 0.7861 0.6600 0.8760
O2 O 0.8030(3) 0.5792(2) 0.8622(2)
H2 H 0.8086 0.5766 0.8931
C2 C 0.8246(4) 0.6157(3) 0.8459(3)
H3 H 0.8126 0.6224 0.8168
O3 O 0.8790(3) 0.5728(2) 0.8117(2)
H4 H 0.8740 0.5452 0.8262
C3 C 0.8714(3) 0.6072(3) 0.8413(3)
H5 H 0.8833 0.5990 0.8700
O4 O 0.9401(2) 0.64160(17) 0.82501(16)
C4 C 0.8950(3) 0.6480(2) 0.8253(2)
H6 H 0.8850 0.6552 0.7956
C5 C 0.8849(3) 0.6857(3) 0.8556(3)
H7 H 0.8971 0.6800 0.8849
O5 O 0.8873(4) 0.7364(4) 0.7929(4)
H8 H 0.9123 0.7418 0.7744
C6 C 0.9021(5) 0.7280(5) 0.8382(5)
H9 H 0.8924 0.7518 0.8570
H10 H 0.9340 0.7274 0.8388
O6 O 0.98514(18) 0.67910(16) 0.77816(16)
C7 C 0.9597(3) 0.6405(2) 0.7846(2)
H11 H 0.9366 0.6397 0.7621
O7 O 0.9604(2) 0.5638(2) 0.7864(2)
H12 H 0.9333 0.5713 0.8007
C8 C 0.9858(3) 0.6021(3) 0.7803(3)
H13 H 0.9965 0.6014 0.7499
O8 O 1.0516(2) 0.5654(2) 0.7992(3)
H14 H 1.0816 0.5725 0.8060
C9 C 1.0242(3) 0.6027(3) 0.8084(3)
H15 H 1.0148 0.6016 0.8391
O9 O 0.8323(2) 0.64470(16) 0.91596(17)
C10 C 1.0499(3) 0.6441(2) 0.8010(2)
H16 H 1.0624 0.6439 0.7713
C11 C 1.0214(3) 0.6826(2) 0.8064(2)
H17 H 1.0108 0.6833 0.8367
O10 O 1.0593(2) 0.7231(2) 0.7556(3)
H18 H 1.0747 0.7499 0.7496
C12 C 1.0424(3) 0.7246(3) 0.7967(3)
H19 H 1.0210 0.7482 0.7988
H20 H 1.0656 0.7303 0.8178
Rb1D Rb 1.18662(3) 0.5000 0.81338(3)
Rb1HA Rb 1.0000 0.68662(3) 0.68662(3)
Rb1IA Rb 1.31338(3) 0.68662(3) 1.0000
Rb1H Rb 1.18662(3) 0.5000 1.18662(3)
Rb1EA Rb 1.0000 0.68662(3) 1.31338(3)
Rb1B Rb 0.81338(3) 0.5000 1.18662(3)
Rb1GA Rb 0.68662(3) 0.68662(3) 1.0000
O1Q O 1.1416(2) 0.6914(2) 0.8385(3)
O1H O 1.1615(3) 0.6914(2) 1.1416(2)
O1R O 0.8584(2) 0.6914(2) 1.1615(3)
C1Q C 1.1255(3) 0.6541(3) 0.8177(4)
C1H C 1.1823(4) 0.6541(3) 1.1255(3)
C1R C 0.8745(3) 0.6541(3) 1.1823(4)
H1Q H 1.1240 0.6600 0.7861
H1H H 1.2139 0.6600 1.1240
H1R H 0.8760 0.6600 1.2139
O2Q O 1.1378(2) 0.5792(2) 0.8030(3)
O2H O 1.1970(3) 0.5792(2) 1.1378(2)
O2R O 0.8622(2) 0.5792(2) 1.1970(3)
O2W O 0.8622(2) 0.4208(2) 0.8030(3)
O2D O 1.1970(3) 0.4208(2) 0.8622(2)
H2Q H 1.1069 0.5766 0.8086
H2H H 1.1914 0.5766 1.1069
H2R H 0.8931 0.5766 1.1914
H2W H 0.8931 0.4234 0.8086
H2D H 1.1914 0.4234 0.8931
C2Q C 1.1541(3) 0.6157(3) 0.8246(4)
C2H C 1.1754(4) 0.6157(3) 1.1541(3)
C2R C 0.8459(3) 0.6157(3) 1.1754(4)
H3Q H 1.1832 0.6224 0.8126
H3H H 1.1874 0.6224 1.1832
H3R H 0.8168 0.6224 1.1874
O3Q O 1.1883(2) 0.5728(2) 0.8790(3)
O3H O 1.1210(3) 0.5728(2) 1.1883(2)
O3R O 0.8117(2) 0.5728(2) 1.1210(3)
O3W O 0.8117(2) 0.4272(2) 0.8790(3)
O3D O 1.1210(3) 0.4272(2) 0.8117(2)
H4Q H 1.1738 0.5452 0.8740
H4H H 1.1260 0.5452 1.1738
H4R H 0.8262 0.5452 1.1260
H4W H 0.8262 0.4548 0.8740
H4D H 1.1260 0.4548 0.8262
C3Q C 1.1587(3) 0.6072(3) 0.8714(3)
C3H C 1.1286(3) 0.6072(3) 1.1587(3)
C3R C 0.8413(3) 0.6072(3) 1.1286(3)
H5Q H 1.1300 0.5990 0.8833
H5H H 1.1167 0.5990 1.1300
H5R H 0.8700 0.5990 1.1167
O4Q O 1.17499(16) 0.64160(17) 0.9401(2)
O4H O 1.0599(2) 0.64160(17) 1.17499(16)
O4R O 0.82501(16) 0.64160(17) 1.0599(2)
C4Q C 1.1747(2) 0.6480(2) 0.8950(3)
C4H C 1.1050(3) 0.6480(2) 1.1747(2)
C4R C 0.8253(2) 0.6480(2) 1.1050(3)
H6R H 0.7956 0.6552 1.1150
H6H H 1.1150 0.6552 1.2044
H6Q H 1.2044 0.6552 0.8850
C5Q C 1.1444(3) 0.6857(3) 0.8849(3)
C5H C 1.1151(3) 0.6857(3) 1.1444(3)
C5R C 0.8556(3) 0.6857(3) 1.1151(3)
H7R H 0.8849 0.6800 1.1029
H7H H 1.1029 0.6800 1.1151
H7Q H 1.1151 0.6800 0.8971
O5R O 0.7929(4) 0.7364(4) 1.1127(4)
O5H O 1.1127(4) 0.7364(4) 1.2071(4)
O5Q O 1.2071(4) 0.7364(4) 0.8873(4)
H8R H 0.7744 0.7418 1.0877
H8H H 1.0877 0.7418 1.2256
H8Q H 1.2256 0.7418 0.9123
C6R C 0.8382(5) 0.7280(5) 1.0979(5)
C6H C 1.0979(5) 0.7280(5) 1.1618(5)
C6Q C 1.1618(5) 0.7280(5) 0.9021(5)
H9R H 0.8570 0.7518 1.1076
H9H H 1.1076 0.7518 1.1430
H9Q H 1.1430 0.7518 0.8924
H10R H 0.8388 0.7274 1.0660
H10H H 1.0660 0.7274 1.1612
H10Q H 1.1612 0.7274 0.9340
O6Q O 1.22184(16) 0.67910(16) 0.98514(18)
O6H O 1.01486(18) 0.67910(16) 1.22184(16)
O6R O 0.77816(16) 0.67910(16) 1.01486(18)
O6HA O 0.82090(16) 0.51486(18) 0.72184(16)
O6LA O 0.72184(16) 0.48514(18) 0.82090(16)
O6JA O 1.27816(16) 0.51486(18) 0.82090(16)
O6CA O 1.17910(16) 0.48514(18) 0.72184(16)
C7Q C 1.2154(2) 0.6405(2) 0.9597(3)
C7H C 1.0403(3) 0.6405(2) 1.2154(2)
C7R C 0.7846(2) 0.6405(2) 1.0403(3)
H11Q H 1.2379 0.6397 0.9366
H11H H 1.0634 0.6397 1.2379
H11R H 0.7621 0.6397 1.0634
O7Q O 1.2136(2) 0.5638(2) 0.9604(2)
O7H O 1.0396(2) 0.5638(2) 1.2136(2)
O7R O 0.7864(2) 0.5638(2) 1.0396(2)
H12Q H 1.1993 0.5713 0.9333
H12H H 1.0667 0.5713 1.1993
H12R H 0.8007 0.5713 1.0667
C8Q C 1.2197(3) 0.6021(3) 0.9858(3)
C8H C 1.0142(3) 0.6021(3) 1.2197(3)
C8R C 0.7803(3) 0.6021(3) 1.0142(3)
H13Q H 1.2501 0.6014 0.9965
H13H H 1.0035 0.6014 1.2501
H13R H 0.7499 0.6014 1.0035
O8Q O 1.2008(3) 0.5654(2) 1.0516(2)
O8H O 0.9484(2) 0.5654(2) 1.2008(3)
O8R O 0.7992(3) 0.5654(2) 0.9484(2)
H14Q H 1.1940 0.5725 1.0816
H14H H 0.9184 0.5725 1.1940
H14R H 0.8060 0.5725 0.9184
C9Q C 1.1916(3) 0.6027(3) 1.0242(3)
C9H C 0.9758(3) 0.6027(3) 1.1916(3)
C9R C 0.8084(3) 0.6027(3) 0.9758(3)
H15Q H 1.1609 0.6016 1.0148
H15H H 0.9852 0.6016 1.1609
H15R H 0.8391 0.6016 0.9852
O9Q O 1.08404(17) 0.64470(16) 0.8323(2)
O9H O 1.1677(2) 0.64470(16) 1.08404(17)
O9R O 0.91596(17) 0.64470(16) 1.1677(2)
C10Q C 1.1990(2) 0.6441(2) 1.0499(3)
C10H C 0.9501(3) 0.6441(2) 1.1990(2)
C10R C 0.8010(2) 0.6441(2) 0.9501(3)
H16R H 0.7713 0.6439 0.9376
H16H H 0.9376 0.6439 1.2287
H16Q H 1.2287 0.6439 1.0624
C11Q C 1.1936(2) 0.6826(2) 1.0214(3)
C11H C 0.9786(3) 0.6826(2) 1.1936(2)
C11R C 0.8064(2) 0.6826(2) 0.9786(3)
H17R H 0.8367 0.6833 0.9892
H17H H 0.9892 0.6833 1.1633
H17Q H 1.1633 0.6833 1.0108
O10R O 0.7556(3) 0.7231(2) 0.9407(2)
O10H O 0.9407(2) 0.7231(2) 1.2444(3)
O10Q O 1.2444(3) 0.7231(2) 1.0593(2)
O10HA O 0.7769(2) 0.4407(2) 0.7444(3)
O10LA O 0.7444(3) 0.5593(2) 0.7769(2)
O10JA O 1.2556(3) 0.4407(2) 0.7769(2)
O10CA O 1.2231(2) 0.5593(2) 0.7444(3)
H18R H 0.7496 0.7499 0.9253
H18H H 0.9253 0.7499 1.2504
H18Q H 1.2504 0.7499 1.0747
H18HA H 0.7501 0.4253 0.7504
H18LA H 0.7504 0.5747 0.7501
H18JA H 1.2496 0.4253 0.7501
H18CA H 1.2499 0.5747 0.7504
C12R C 0.7967(3) 0.7246(3) 0.9576(3)
C12H C 0.9576(3) 0.7246(3) 1.2033(3)
C12Q C 1.2033(3) 0.7246(3) 1.0424(3)
H19R H 0.7988 0.7482 0.9790
H19H H 0.9790 0.7482 1.2012
H19Q H 1.2012 0.7482 1.0210
H20R H 0.8178 0.7303 0.9344
H20H H 0.9344 0.7303 1.1822
H20Q H 1.1822 0.7303 1.0656
O11 O 1.0000 0.5000 0.6634(9)
loop_
_geom_bond_atom_site_label_1
_geom_bond_atom_site_label_2
_geom_bond_site_symmetry_1
_geom_bond_site_symmetry_2
Rb1 O2 1_555 1_555
O1 C1 1_555 1_555
C1 H1 1_555 1_555
O2 H2 1_555 1_555
C2 C1 1_555 1_555
H3 C2 1_555 1_555
O3 Rb1 1_555 1_555
H4 O3 1_555 1_555
C3 C2 1_555 1_555
H5 C3 1_555 1_555
O4 C4 1_555 1_555
C4 C3 1_555 1_555
H6 C4 1_555 1_555
C5 O1 1_555 1_555
H7 C5 1_555 1_555
O5 H8 1_555 1_555
C6 C5 1_555 1_555
H9 C6 1_555 1_555
H10 C6 1_555 1_555
O6 C7 1_555 1_555
C7 O4 1_555 1_555
H11 C7 1_555 1_555
O7 H12 1_555 1_555
C8 C7 1_555 1_555
H13 C8 1_555 1_555
O8 H14 1_555 1_555
C9 C8 1_555 1_555
H15 C9 1_555 1_555
O9 C1 1_555 1_555
C10 C9 1_555 1_555
H16 C10 1_555 1_555
C11 O6 1_555 1_555
H17 C11 1_555 1_555
O10 H18 1_555 1_555
C12 C11 1_555 1_555
H19 C12 1_555 1_555
H20 C12 1_555 1_555
Rb1D O2Q 1_555 1_555
Rb1HA O6 1_555 1_555
Rb1IA O6Q 1_555 1_555
Rb1H O2H 1_555 1_555
Rb1EA O6H 1_555 1_555
Rb1B O2R 1_555 1_555
Rb1GA O6R 1_555 1_555
O1Q C1Q 1_555 1_555
O1H C1H 1_555 1_555
O1R C1R 1_555 1_555
C1Q H1Q 1_555 1_555
C1H H1H 1_555 1_555
C1R H1R 1_555 1_555
O2Q H2Q 1_555 1_555
O2H H2H 1_555 1_555
O2R H2R 1_555 1_555
O2W Rb1 1_555 1_555
O2D Rb1D 1_555 1_555
H2W O2W 1_555 1_555
H2D O2D 1_555 1_555
C2Q C1Q 1_555 1_555
C2H C1H 1_555 1_555
C2R C1R 1_555 1_555
H3Q C2Q 1_555 1_555
H3H C2H 1_555 1_555
H3R C2R 1_555 1_555
O3Q Rb1D 1_555 1_555
O3H Rb1H 1_555 1_555
O3R Rb1B 1_555 1_555
O3W Rb1 1_555 1_555
O3D Rb1D 1_555 1_555
H4Q O3Q 1_555 1_555
H4H O3H 1_555 1_555
H4R O3R 1_555 1_555
H4W O3W 1_555 1_555
H4D O3D 1_555 1_555
C3Q C2Q 1_555 1_555
C3H C2H 1_555 1_555
C3R C2R 1_555 1_555
H5Q C3Q 1_555 1_555
H5H C3H 1_555 1_555
H5R C3R 1_555 1_555
O4Q C4Q 1_555 1_555
O4H C4H 1_555 1_555
O4R C4R 1_555 1_555
C4Q C3Q 1_555 1_555
C4H C3H 1_555 1_555
C4R C3R 1_555 1_555
H6R C4R 1_555 1_555
H6H C4H 1_555 1_555
H6Q C4Q 1_555 1_555
C5Q O1Q 1_555 1_555
C5H O1H 1_555 1_555
C5R O1R 1_555 1_555
H7R C5R 1_555 1_555
H7H C5H 1_555 1_555
H7Q C5Q 1_555 1_555
O5R H8R 1_555 1_555
O5H H8H 1_555 1_555
O5Q H8Q 1_555 1_555
C6R C5R 1_555 1_555
C6H C5H 1_555 1_555
C6Q C5Q 1_555 1_555
H9R C6R 1_555 1_555
H9H C6H 1_555 1_555
H9Q C6Q 1_555 1_555
H10R C6R 1_555 1_555
H10H C6H 1_555 1_555
H10Q C6Q 1_555 1_555
O6Q C7Q 1_555 1_555
O6H C7H 1_555 1_555
O6R C7R 1_555 1_555
O6HA Rb1 1_555 1_555
O6LA Rb1 1_555 1_555
O6JA Rb1D 1_555 1_555
O6CA Rb1D 1_555 1_555
C7Q O4Q 1_555 1_555
C7H O4H 1_555 1_555
C7R O4R 1_555 1_555
H11Q C7Q 1_555 1_555
H11H C7H 1_555 1_555
H11R C7R 1_555 1_555
O7Q H12Q 1_555 1_555
O7H H12H 1_555 1_555
O7R H12R 1_555 1_555
C8Q C7Q 1_555 1_555
C8H C7H 1_555 1_555
C8R C7R 1_555 1_555
H13Q C8Q 1_555 1_555
H13H C8H 1_555 1_555
H13R C8R 1_555 1_555
O8Q H14Q 1_555 1_555
O8H H14H 1_555 1_555
O8R H14R 1_555 1_555
C9Q C8Q 1_555 1_555
C9H C8H 1_555 1_555
C9R C8R 1_555 1_555
H15Q C9Q 1_555 1_555
H15H C9H 1_555 1_555
H15R C9R 1_555 1_555
O9Q C10 1_555 1_555
O9H C1H 1_555 1_555
O9R C1R 1_555 1_555
C10Q C9Q 1_555 1_555
C10H C9H 1_555 1_555
C10R O9 1_555 1_555
H16R C10R 1_555 1_555
H16H C10H 1_555 1_555
H16Q C10Q 1_555 1_555
C11Q O6Q 1_555 1_555
C11H O6H 1_555 1_555
C11R O6R 1_555 1_555
H17R C11R 1_555 1_555
H17H C11H 1_555 1_555
H17Q C11Q 1_555 1_555
O10R Rb1GA 1_555 1_555
O10H Rb1EA 1_555 1_555
O10Q Rb1IA 1_555 1_555
O10HA Rb1 1_555 1_555
O10LA Rb1 1_555 1_555
O10JA Rb1D 1_555 1_555
O10CA Rb1D 1_555 1_555
H18R O10R 1_555 1_555
H18H O10H 1_555 1_555
H18Q O10Q 1_555 1_555
H18HA O10HA 1_555 1_555
H18LA O10LA 1_555 1_555
H18JA O10JA 1_555 1_555
H18CA O10CA 1_555 1_555
C12R C11R 1_555 1_555
C12H C11H 1_555 1_555
C12Q C11Q 1_555 1_555
H19R C12R 1_555 1_555
H19H C12H 1_555 1_555
H19Q C12Q 1_555 1_555
H20R C12R 1_555 1_555
H20H C12H 1_555 1_555
H20Q C12Q 1_555 1_555
O2 C2 1_555 1_555
O3 C3 1_555 1_555
C4 C5 1_555 1_555
O5 C6 1_555 1_555
O7 C8 1_555 1_555
O8 C9 1_555 1_555
C10 C11 1_555 1_555
O10 C12 1_555 1_555
O10 Rb1HA 1_555 1_555
C1Q O9Q 1_555 1_555
O2Q C2Q 1_555 1_555
O2H C2H 1_555 1_555
O2R C2R 1_555 1_555
O3Q C3Q 1_555 1_555
O3H C3H 1_555 1_555
O3R C3R 1_555 1_555
C4Q C5Q 1_555 1_555
C4H C5H 1_555 1_555
C4R C5R 1_555 1_555
O5R C6R 1_555 1_555
O5H C6H 1_555 1_555
O5Q C6Q 1_555 1_555
O7Q C8Q 1_555 1_555
O7H C8H 1_555 1_555
O7R C8R 1_555 1_555
O8Q C9Q 1_555 1_555
O8H C9H 1_555 1_555
O8R C9R 1_555 1_555
C9R C10R 1_555 1_555
O9H C10Q 1_555 1_555
O9R C10H 1_555 1_555
C10Q C11Q 1_555 1_555
C10H C11H 1_555 1_555
C10R C11R 1_555 1_555
O10R C12R 1_555 1_555
O10H C12H 1_555 1_555
O10Q C12Q 1_555 1_555

#END
