
#######################################################################
#
#                 Cambridge Crystallographic Data Centre
#                                CCDC 
#
#######################################################################
#
# If this CIF has been generated from an entry in the Cambridge 
# Structural Database, then it will include bibliographic, chemical, 
# crystal, experimental, refinement or atomic coordinate data resulting 
# from the CCDC's data processing and validation procedures.
#
#######################################################################

data_LAJLOZ02
_symmetry_cell_setting           monoclinic
_symmetry_space_group_name_H-M   'P 21/c'
_symmetry_Int_Tables_number      14
_space_group_name_Hall           '-P 2ybc'
loop_
_symmetry_equiv_pos_site_id
_symmetry_equiv_pos_as_xyz
1 x,y,z
2 -x,1/2+y,1/2-z
3 -x,-y,-z
4 x,1/2-y,1/2+z
_cell_length_a                   14.476(4)
_cell_length_b                   24.246(5)
_cell_length_c                   15.927(3)
_cell_angle_alpha                90
_cell_angle_beta                 121.324(17)
_cell_angle_gamma                90
_cell_volume                     4775.33
loop_
_atom_site_label
_atom_site_type_symbol
_atom_site_fract_x
_atom_site_fract_y
_atom_site_fract_z
Co1 Co 0.24957(5) 0.49945(3) 0.49915(4)
Fe1 Fe 0.05009(5) 0.36735(3) 0.58975(5)
Fe2 Fe 0.42572(5) 0.37910(3) 0.36756(5)
N1 N 0.1118(3) 0.42238(16) 0.6975(3)
N2 N 0.1665(4) 0.40430(18) 0.7925(3)
N3 N 0.1873(3) 0.32671(16) 0.6605(3)
N4 N 0.2353(4) 0.31972(17) 0.7593(3)
N5 N -0.0021(4) 0.32533(16) 0.6640(3)
N6 N 0.0661(4) 0.31750(18) 0.7624(3)
N7 N 0.3382(3) 0.49288(16) 0.6568(3)
N8 N 0.4154(4) 0.34905(18) 0.1861(3)
N9 N 0.4777(3) 0.34548(17) 0.2855(3)
N10 N 0.2399(4) 0.35011(18) 0.1781(3)
N11 N 0.2806(3) 0.34746(16) 0.2766(3)
N12 N 0.1594(3) 0.50744(16) 0.3415(3)
N13 N 0.3285(4) 0.43806(18) 0.1816(3)
N14 N 0.3803(3) 0.44462(16) 0.2813(3)
N15 N 0.1406(3) 0.43795(17) 0.4903(3)
N16 N 0.3449(3) 0.43731(16) 0.4872(3)
N17 N -0.0547(5) 0.2799(3) 0.4279(5)
N18 N 0.5023(5) 0.2782(2) 0.5046(4)
C1 C -0.0953(5) 0.3020(2) 0.6402(5)
H1 H -0.1568 0.3009 0.5765
C2 C -0.0888(6) 0.2794(2) 0.7225(5)
H2 H -0.1435 0.2605 0.7259
C3 C 0.0132(6) 0.2900(3) 0.7976(5)
H3 H 0.0419 0.2798 0.8636
C4 C 0.1110(4) 0.4772(2) 0.7007(4)
H4 H 0.0788 0.5003 0.6452
C5 C 0.1639(5) 0.4955(2) 0.7969(4)
H5 H 0.1741 0.5321 0.8195
C6 C 0.1977(5) 0.4485(2) 0.8516(4)
H6 H 0.2372 0.4472 0.9206
C7 C 0.4151(4) 0.5356(2) 0.8146(4)
H7 H 0.4297 0.5683 0.8510
C8 C 0.3614(4) 0.5373(2) 0.7134(3)
H8 H 0.3399 0.5719 0.6826
C9 C 0.3691(4) 0.4440(2) 0.7026(3)
H9 H 0.3532 0.4120 0.6642
C10 C 0.4230(4) 0.4386(2) 0.8033(4)
H10 H 0.4432 0.4035 0.8322
C11 C 0.4474(4) 0.4850(2) 0.8621(3)
C12 C 0.5071(6) 0.4780(3) 0.9727(4)
H11 H 0.4837 0.4433 0.9874
H12 H 0.5845 0.4746 0.9971
C13 C 0.1428(4) 0.5562(2) 0.2975(3)
H13 H 0.1676 0.5880 0.3370
C14 C 0.0912(4) 0.5624(2) 0.1975(4)
H14 H 0.0811 0.5978 0.1699
C15 C 0.0543(4) 0.5166(2) 0.1376(4)
C16 C 0.0708(4) 0.4660(2) 0.1835(4)
H15 H 0.0467 0.4336 0.1457
C17 C 0.1223(4) 0.4629(2) 0.2845(3)
H16 H 0.1315 0.4282 0.3141
C18 C 0.2065(4) 0.3225(2) 0.2884(4)
H17 H 0.2140 0.3149 0.3495
C19 C 0.1170(5) 0.3091(2) 0.1988(5)
H18 H 0.0534 0.2916 0.1870
C20 C 0.1410(4) 0.3268(2) 0.1308(4)
H19 H 0.0959 0.3233 0.0622
C21 C -0.0142(5) 0.3133(2) 0.4859(4)
C22 C 0.1020(4) 0.41011(19) 0.5212(3)
C23 C 0.2545(5) 0.3062(2) 0.6347(5)
H20 H 0.2416 0.3060 0.5705
C24 C 0.3455(5) 0.2852(2) 0.7158(6)
H21 H 0.4046 0.2680 0.7174
C25 C 0.3322(5) 0.2946(2) 0.7932(5)
H22 H 0.3819 0.2853 0.8590
C26 C 0.4736(4) 0.3162(2) 0.4542(4)
C27 C 0.3773(4) 0.41342(19) 0.4464(3)
C28 C 0.5673(5) 0.3187(2) 0.3067(5)
H23 H 0.6247 0.3105 0.3705
C29 C 0.5635(6) 0.3045(3) 0.2199(5)
H24 H 0.6163 0.2856 0.2136
C30 C 0.4668(6) 0.3239(2) 0.1466(5)
H25 H 0.4401 0.3204 0.0790
C31 C 0.3072(5) 0.4883(2) 0.1394(4)
H26 H 0.2727 0.4952 0.0716
C32 C 0.3438(5) 0.5276(2) 0.2109(4)
H27 H 0.3393 0.5661 0.2026
C33 C 0.0031(6) 0.5238(3) 0.0279(4)
H28 H -0.0705 0.5378 0.0013
H29 H 0.0437 0.5523 0.0168
C34 C 0.3888(4) 0.4987(2) 0.2982(4)
H30 H 0.4210 0.5150 0.3608
B1 B 0.1800(6) 0.3421(3) 0.8120(5)
H31 H 0.231(5) 0.333(2) 0.892(4)
B2 B 0.3062(5) 0.3792(3) 0.1406(4)
H32 H 0.262(4) 0.379(2) 0.064(4)
N19 N 0.3590(3) 0.56089(17) 0.5089(3)
N20 N 0.1530(3) 0.56191(17) 0.5067(3)
C35 C 0.0793(4) 0.5902(2) 0.4760(3)
C36 C 0.4378(4) 0.58611(19) 0.5496(3)
Co1B Co 0.75043(5) 0.50055(3) 1.50085(4)
Co1B_2 Co -0.24957(5) 0.50055(3) -0.49915(4)
Co1B_3 Co -0.24957(5) 0.50055(3) 0.50085(4)
Co1B_4 Co 0.75043(5) 0.50055(3) 0.50085(4)
Fe1B Fe -0.05009(5) 0.63265(3) 0.41025(5)
Fe1B_2 Fe 0.94991(5) 0.63265(3) 1.41025(5)
Fe2B Fe 0.57428(5) 0.62090(3) 0.63244(5)
Fe2B_2 Fe 0.57428(5) 0.62090(3) 1.63244(5)
N1B N -0.1118(3) 0.57762(16) 0.3025(3)
N2B N -0.1665(4) 0.59570(18) 0.2075(3)
N3B N -0.1873(3) 0.67329(16) 0.3395(3)
N4B N -0.2353(4) 0.68028(17) 0.2407(3)
N5B N 0.0021(4) 0.67467(16) 0.3360(3)
N6B N -0.0661(4) 0.68250(18) 0.2376(3)
N7B N 0.6618(3) 0.50712(16) 1.3432(3)
N8B N 0.5846(4) 0.65095(18) 0.8139(3)
N9B N 0.5223(3) 0.65452(17) 0.7145(3)
N10B N 0.7601(4) 0.64989(18) 0.8219(3)
N11B N 0.7194(3) 0.65254(16) 0.7234(3)
N12B N -0.1594(3) 0.49256(16) -0.3415(3)
N12B_2 N 0.8406(3) 0.49256(16) 1.6585(3)
N13B N 0.6715(4) 0.56194(18) 0.8184(3)
N14B N 0.6197(3) 0.55538(16) 0.7187(3)
N15B N 0.8594(3) 0.56205(17) 1.5097(3)
N16B N 0.6551(3) 0.56269(16) 1.5128(3)
N17B N 0.0547(5) 0.7201(3) 0.5721(5)
N18B N 0.4977(5) 0.7218(2) 0.4954(4)
C1B C 0.0953(5) 0.6980(2) 0.3598(5)
H1B H 0.1568 0.6991 0.4235
C2B C 0.0888(6) 0.7206(2) 0.2775(5)
H2B H 0.1435 0.7395 0.2741
C3B C -0.0132(6) 0.7100(3) 0.2024(5)
H3B H -0.0419 0.7202 0.1364
C4B C -0.1110(4) 0.5228(2) 0.2993(4)
H4B H -0.0788 0.4997 0.3548
C5B C -0.1639(5) 0.5045(2) 0.2031(4)
H5B H -0.1741 0.4679 0.1805
C6B C -0.1977(5) 0.5515(2) 0.1484(4)
H6B H -0.2372 0.5528 0.0794
C7B C 0.5849(4) 0.4644(2) 1.1854(4)
H7B H 0.5703 0.4317 1.1490
C8B C 0.6386(4) 0.4627(2) 1.2866(3)
H8B H 0.6601 0.4281 1.3174
C9B C 0.6309(4) 0.5560(2) 1.2974(3)
H9B H 0.6468 0.5880 1.3358
C10B C 0.5770(4) 0.5614(2) 1.1967(4)
H10B H 0.5568 0.5965 1.1678
C11B C 0.5526(4) 0.5150(2) 1.1379(3)
C12B C 0.4929(6) 0.5220(3) 1.0273(4)
H11B H 0.5163 0.5567 1.0126
H12B H 0.4155 0.5254 1.0029
C13B C -0.1428(4) 0.4438(2) -0.2975(3)
H13B H -0.1676 0.4120 -0.3370
C14B C -0.0912(4) 0.4376(2) -0.1975(4)
H14B H -0.0811 0.4022 -0.1699
C15B C -0.0543(4) 0.4834(2) -0.1376(4)
C16B C -0.0708(4) 0.5340(2) -0.1835(4)
H15B H -0.0467 0.5664 -0.1457
C17B C -0.1223(4) 0.5371(2) -0.2845(3)
H16B H -0.1315 0.5718 -0.3141
C18B C 0.7935(4) 0.6775(2) 0.7116(4)
H17B H 0.7860 0.6851 0.6505
C19B C 0.8830(5) 0.6909(2) 0.8012(5)
H18B H 0.9466 0.7084 0.8130
C20B C 0.8590(4) 0.6732(2) 0.8692(4)
H19B H 0.9041 0.6767 0.9378
C21B C 0.0142(5) 0.6867(2) 0.5141(4)
C22B C 0.8980(4) 0.58989(19) 1.4788(3)
C22B_2 C -0.1020(4) 0.58989(19) 0.4788(3)
C23B C -0.2545(5) 0.6938(2) 0.3653(5)
H20B H -0.2416 0.6940 0.4295
C24B C -0.3455(5) 0.7148(2) 0.2842(6)
H21B H -0.4046 0.7320 0.2826
C25B C -0.3322(5) 0.7054(2) 0.2068(5)
H22B H -0.3819 0.7147 0.1410
C26B C 0.5264(4) 0.6838(2) 0.5458(4)
C27B C 0.6227(4) 0.58658(19) 1.5536(3)
C27B_2 C 0.6227(4) 0.58658(19) 0.5536(3)
C28B C 0.4327(5) 0.6813(2) 0.6933(5)
H23B H 0.3753 0.6895 0.6295
C29B C 0.4365(6) 0.6955(3) 0.7801(5)
H24B H 0.3837 0.7144 0.7864
C30B C 0.5332(6) 0.6761(2) 0.8534(5)
H25B H 0.5599 0.6796 0.9210
C31B C 0.6928(5) 0.5117(2) 0.8606(4)
H26B H 0.7273 0.5048 0.9284
C32B C 0.6562(5) 0.4724(2) 0.7891(4)
H27B H 0.6607 0.4339 0.7974
C33B C -0.0031(6) 0.4762(3) -0.0279(4)
H28B H 0.0705 0.4622 -0.0013
H29B H -0.0437 0.4477 -0.0168
C34B C 0.6112(4) 0.5013(2) 0.7018(4)
H30B H 0.5790 0.4850 0.6392
B1B B -0.1800(6) 0.6579(3) 0.1880(5)
H31B H -0.231(5) 0.667(2) 0.108(4)
B2B B 0.6938(5) 0.6208(3) 0.8594(4)
H32B H 0.738(4) 0.621(2) 0.936(4)
N19B N 0.6410(3) 0.43911(17) 0.4911(3)
N19B_2 N 0.6410(3) 0.43911(17) 1.4911(3)
N20B N -0.1530(3) 0.43809(17) 0.4933(3)
N20B_2 N 0.8470(3) 0.43809(17) 1.4933(3)
C35B C -0.0793(4) 0.4098(2) 0.5240(3)
C36B C 0.5622(4) 0.41389(19) 0.4504(3)
O1 O 0.1997(15) 0.8823(9) 0.4583(17)
O2 O 0.3928(17) 0.8264(9) 0.4932(17)
O3 O 0.189(5) 0.6867(19) 0.087(3)
O4 O 0.381(4) 0.6683(14) 0.215(8)
O5 O -0.135(17) 0.343(9) 0.252(10)
O6? O -0.158(5) 0.3631(9) 0.222(4)
O7? O 0.154(3) 0.6689(10) 0.090(3)
O8? O 0.338(2) 0.6607(10) 0.3058(15)
loop_
_geom_bond_atom_site_label_1
_geom_bond_atom_site_label_2
_geom_bond_site_symmetry_1
_geom_bond_site_symmetry_2
Co1 N7 1_555 1_555
Fe1 N1 1_555 1_555
Fe2 N9 1_555 1_555
N1 N2 1_555 1_555
N2 C6 1_555 1_555
N3 Fe1 1_555 1_555
N4 N3 1_555 1_555
N5 Fe1 1_555 1_555
N6 N5 1_555 1_555
N7 C8 1_555 1_555
N8 N9 1_555 1_555
N9 C28 1_555 1_555
N10 N11 1_555 1_555
N11 Fe2 1_555 1_555
N12 Co1 1_555 1_555
N13 N14 1_555 1_555
N14 Fe2 1_555 1_555
N15 Co1 1_555 1_555
N16 Co1 1_555 1_555
N17 C21 1_555 1_555
N18 C26 1_555 1_555
C1 N5 1_555 1_555
H1 C1 1_555 1_555
C2 C1 1_555 1_555
H2 C2 1_555 1_555
C3 N6 1_555 1_555
H3 C3 1_555 1_555
C4 N1 1_555 1_555
H4 C4 1_555 1_555
C5 C4 1_555 1_555
H5 C5 1_555 1_555
C6 C5 1_555 1_555
H6 C6 1_555 1_555
C7 H7 1_555 1_555
C8 C7 1_555 1_555
H8 C8 1_555 1_555
C9 N7 1_555 1_555
H9 C9 1_555 1_555
C10 C9 1_555 1_555
H10 C10 1_555 1_555
C11 C7 1_555 1_555
C12 C11 1_555 1_555
H11 C12 1_555 1_555
H12 C12 1_555 1_555
C13 N12 1_555 1_555
H13 C13 1_555 1_555
C14 C13 1_555 1_555
H14 C14 1_555 1_555
C15 C14 1_555 1_555
C16 C15 1_555 1_555
H15 C16 1_555 1_555
C17 N12 1_555 1_555
H16 C17 1_555 1_555
C18 N11 1_555 1_555
H17 C18 1_555 1_555
C19 C18 1_555 1_555
H18 C19 1_555 1_555
C20 N10 1_555 1_555
H19 C20 1_555 1_555
C21 Fe1 1_555 1_555
C22 Fe1 1_555 1_555
C23 N3 1_555 1_555
H20 C23 1_555 1_555
C24 C23 1_555 1_555
H21 C24 1_555 1_555
C25 N4 1_555 1_555
H22 C25 1_555 1_555
C26 Fe2 1_555 1_555
C27 Fe2 1_555 1_555
C28 H23 1_555 1_555
C29 C28 1_555 1_555
H24 C29 1_555 1_555
C30 N8 1_555 1_555
H25 C30 1_555 1_555
C31 N13 1_555 1_555
H26 C31 1_555 1_555
C32 C31 1_555 1_555
H27 C32 1_555 1_555
C33 C15 1_555 1_555
H28 C33 1_555 1_555
H29 C33 1_555 1_555
C34 N14 1_555 1_555
H30 C34 1_555 1_555
B1 N2 1_555 1_555
H31 B1 1_555 1_555
B2 N8 1_555 1_555
H32 B2 1_555 1_555
N19 Co1 1_555 1_555
N20 Co1 1_555 1_555
C35 N20 1_555 1_555
C36 N19 1_555 1_555
Co1B N7B 1_555 1_555
Co1B_2 N12B 1_555 1_555
Co1B_3 N20B 1_555 1_555
Co1B_4 N19B 1_555 1_555
Fe1B C35 1_555 1_555
Fe1B_2 C22B 1_555 1_555
Fe2B C36 1_555 1_555
Fe2B_2 C27B 1_555 1_555
N1B Fe1B 1_555 1_555
N2B N1B 1_555 1_555
N3B Fe1B 1_555 1_555
N4B N3B 1_555 1_555
N5B Fe1B 1_555 1_555
N6B N5B 1_555 1_555
N7B C8B 1_555 1_555
N8B N9B 1_555 1_555
N9B Fe2B 1_555 1_555
N10B N11B 1_555 1_555
N11B Fe2B 1_555 1_555
N12B C13B 1_555 1_555
N12B_2 Co1B 1_555 1_555
N13B N14B 1_555 1_555
N14B Fe2B 1_555 1_555
N15B Co1B 1_555 1_555
N16B Co1B 1_555 1_555
N17B C21B 1_555 1_555
N18B C26B 1_555 1_555
C1B N5B 1_555 1_555
H1B C1B 1_555 1_555
C2B C1B 1_555 1_555
H2B C2B 1_555 1_555
C3B N6B 1_555 1_555
H3B C3B 1_555 1_555
C4B N1B 1_555 1_555
H4B C4B 1_555 1_555
C5B C4B 1_555 1_555
H5B C5B 1_555 1_555
C6B N2B 1_555 1_555
H6B C6B 1_555 1_555
C7B H7B 1_555 1_555
C8B C7B 1_555 1_555
H8B C8B 1_555 1_555
C9B N7B 1_555 1_555
H9B C9B 1_555 1_555
C10B C9B 1_555 1_555
H10B C10B 1_555 1_555
C11B C7B 1_555 1_555
C12B C12 1_555 1_555
H11B C12B 1_555 1_555
H12B C12B 1_555 1_555
C13B H13B 1_555 1_555
C14B C13B 1_555 1_555
H14B C14B 1_555 1_555
C15B C14B 1_555 1_555
C16B C15B 1_555 1_555
H15B C16B 1_555 1_555
C17B N12B 1_555 1_555
H16B C17B 1_555 1_555
C18B N11B 1_555 1_555
H17B C18B 1_555 1_555
C19B C18B 1_555 1_555
H18B C19B 1_555 1_555
C20B N10B 1_555 1_555
H19B C20B 1_555 1_555
C21B Fe1B 1_555 1_555
C22B N15B 1_555 1_555
C22B_2 Fe1B 1_555 1_555
C23B N3B 1_555 1_555
H20B C23B 1_555 1_555
C24B C23B 1_555 1_555
H21B C24B 1_555 1_555
C25B N4B 1_555 1_555
H22B C25B 1_555 1_555
C26B Fe2B 1_555 1_555
C27B N16B 1_555 1_555
C27B_2 Fe2B 1_555 1_555
C28B N9B 1_555 1_555
H23B C28B 1_555 1_555
C29B C28B 1_555 1_555
H24B C29B 1_555 1_555
C30B N8B 1_555 1_555
H25B C30B 1_555 1_555
C31B N13B 1_555 1_555
H26B C31B 1_555 1_555
C32B C31B 1_555 1_555
H27B C32B 1_555 1_555
C33B C33 1_555 1_555
H28B C33B 1_555 1_555
H29B C33B 1_555 1_555
C34B N14B 1_555 1_555
H30B C34B 1_555 1_555
B1B N2B 1_555 1_555
H31B B1B 1_555 1_555
B2B N8B 1_555 1_555
H32B B2B 1_555 1_555
N19B C36B 1_555 1_555
N19B_2 Co1B 1_555 1_555
N20B C35B 1_555 1_555
N20B_2 Co1B 1_555 1_555
C35B Fe1 1_555 1_555
C36B Fe2 1_555 1_555
N4 B1 1_555 1_555
N6 B1 1_555 1_555
N10 B2 1_555 1_555
N13 B2 1_555 1_555
N15 C22 1_555 1_555
N16 C27 1_555 1_555
C2 C3 1_555 1_555
C10 C11 1_555 1_555
C16 C17 1_555 1_555
C19 C20 1_555 1_555
C24 C25 1_555 1_555
C29 C30 1_555 1_555
C32 C34 1_555 1_555
N4B B1B 1_555 1_555
N6B B1B 1_555 1_555
N10B B2B 1_555 1_555
N13B B2B 1_555 1_555
C2B C3B 1_555 1_555
C5B C6B 1_555 1_555
C10B C11B 1_555 1_555
C11B C12B 1_555 1_555
C15B C33B 1_555 1_555
C16B C17B 1_555 1_555
C19B C20B 1_555 1_555
C24B C25B 1_555 1_555
C29B C30B 1_555 1_555
C32B C34B 1_555 1_555

#END
