
#######################################################################
#
#                 Cambridge Crystallographic Data Centre
#                                CCDC 
#
#######################################################################
#
# If this CIF has been generated from an entry in the Cambridge 
# Structural Database, then it will include bibliographic, chemical, 
# crystal, experimental, refinement or atomic coordinate data resulting 
# from the CCDC's data processing and validation procedures.
#
#######################################################################

data_LAJLOZ01
_symmetry_cell_setting           monoclinic
_symmetry_space_group_name_H-M   'P 21/c'
_symmetry_Int_Tables_number      14
_space_group_name_Hall           '-P 2ybc'
loop_
_symmetry_equiv_pos_site_id
_symmetry_equiv_pos_as_xyz
1 x,y,z
2 -x,1/2+y,1/2-z
3 -x,-y,-z
4 x,1/2-y,1/2+z
_cell_length_a                   14.439(3)
_cell_length_b                   24.289(5)
_cell_length_c                   15.929(7)
_cell_angle_alpha                90
_cell_angle_beta                 121.34(2)
_cell_angle_gamma                90
_cell_volume                     4771.36
loop_
_atom_site_label
_atom_site_type_symbol
_atom_site_fract_x
_atom_site_fract_y
_atom_site_fract_z
Co1 Co 0.24961(5) 0.49890(3) 0.49925(5)
Fe1 Fe 0.04913(6) 0.36705(3) 0.58908(5)
Fe2 Fe 0.42493(6) 0.37952(3) 0.36559(5)
N1 N 0.1114(3) 0.42161(17) 0.6969(3)
N2 N 0.1659(4) 0.40356(19) 0.7918(3)
N3 N 0.1863(4) 0.32599(17) 0.6595(3)
N4 N 0.2349(4) 0.31916(18) 0.7583(4)
N5 N -0.0034(4) 0.32504(16) 0.6625(3)
N6 N 0.0644(4) 0.31704(18) 0.7609(4)
N7 N 0.3383(3) 0.49225(16) 0.6570(3)
N8 N 0.4141(4) 0.35002(18) 0.1838(3)
N9 N 0.4765(4) 0.34614(18) 0.2835(3)
N10 N 0.2385(4) 0.35080(18) 0.1768(3)
N11 N 0.2802(3) 0.34778(17) 0.2751(3)
N12 N 0.1595(3) 0.50722(17) 0.3420(3)
N13 N 0.3268(4) 0.43844(19) 0.1798(3)
N14 N 0.3788(3) 0.44461(17) 0.2795(3)
N15 N 0.1405(3) 0.43722(18) 0.4899(3)
N16 N 0.3452(3) 0.43688(17) 0.4871(3)
N17 N -0.0587(5) 0.2812(3) 0.4251(5)
N18 N 0.5048(5) 0.2794(2) 0.5033(4)
C1 C -0.0973(5) 0.3021(2) 0.6386(5)
H1 H -0.1590 0.3013 0.5748
C2 C -0.0914(6) 0.2796(3) 0.7213(6)
H2 H -0.1470 0.2614 0.7245
C3 C 0.0116(6) 0.2894(2) 0.7970(5)
H3 H 0.0407 0.2787 0.8628
C4 C 0.1111(4) 0.4766(2) 0.7004(4)
H4 H 0.0790 0.4999 0.6452
C5 C 0.1647(5) 0.4944(3) 0.7969(4)
H5 H 0.1760 0.5309 0.8197
C6 C 0.1978(5) 0.4472(2) 0.8522(4)
H6 H 0.2365 0.4457 0.9213
C7 C 0.4141(4) 0.5346(2) 0.8147(4)
H7 H 0.4279 0.5672 0.8513
C8 C 0.3612(4) 0.5366(2) 0.7132(4)
H8 H 0.3403 0.5712 0.6824
C9 C 0.3700(4) 0.4436(2) 0.7033(4)
H9 H 0.3550 0.4116 0.6652
C10 C 0.4230(5) 0.4384(2) 0.8029(4)
H10 H 0.4435 0.4032 0.8315
C11 C 0.4467(4) 0.4840(2) 0.8621(4)
C12 C 0.5058(6) 0.4777(3) 0.9724(4)
H11 H 0.4807 0.4436 0.9871
H12 H 0.5832 0.4732 0.9967
C13 C 0.1441(4) 0.5564(2) 0.2979(4)
H13 H 0.1698 0.5879 0.3377
C14 C 0.0932(5) 0.5630(2) 0.1988(4)
H14 H 0.0828 0.5985 0.1718
C15 C 0.0566(5) 0.5171(2) 0.1374(4)
C16 C 0.0708(5) 0.4665(2) 0.1828(4)
H15 H 0.0459 0.4342 0.1448
C17 C 0.1218(4) 0.4635(2) 0.2843(4)
H16 H 0.1300 0.4288 0.3134
C18 C 0.2058(5) 0.3229(2) 0.2878(5)
H17 H 0.2136 0.3152 0.3490
C19 C 0.1157(5) 0.3099(2) 0.1974(5)
H18 H 0.0519 0.2925 0.1858
C20 C 0.1384(5) 0.3278(2) 0.1279(5)
H19 H 0.0929 0.3247 0.0594
C21 C -0.0171(5) 0.3144(3) 0.4848(5)
C22 C 0.1015(4) 0.4091(2) 0.5211(4)
C23 C 0.2523(5) 0.3054(2) 0.6322(5)
H20 H 0.2385 0.3050 0.5677
C24 C 0.3451(5) 0.2844(3) 0.7149(6)
H21 H 0.4047 0.2675 0.7168
C25 C 0.3313(5) 0.2935(2) 0.7926(6)
H22 H 0.3803 0.2836 0.8583
C26 C 0.4738(4) 0.3170(2) 0.4526(4)
C27 C 0.3769(4) 0.4130(2) 0.4448(4)
C28 C 0.5664(5) 0.3196(2) 0.3030(5)
H23 H 0.6242 0.3112 0.3665
C29 C 0.5627(6) 0.3062(3) 0.2170(5)
H24 H 0.6159 0.2876 0.2105
C30 C 0.4657(6) 0.3255(3) 0.1438(5)
H25 H 0.4389 0.3222 0.0762
C31 C 0.3051(5) 0.4892(2) 0.1374(4)
H26 H 0.2697 0.4963 0.0696
C32 C 0.3433(5) 0.5281(2) 0.2099(5)
H27 H 0.3400 0.5666 0.2021
C33 C 0.0057(6) 0.5244(3) 0.0285(4)
H28 H -0.0665 0.5404 0.0024
H29 H 0.0489 0.5513 0.0175
C34 C 0.3881(4) 0.4990(2) 0.2977(4)
H30 H 0.4201 0.5150 0.3604
B1 B 0.1804(6) 0.3413(3) 0.8120(5)
H31 H 0.224(5) 0.331(2) 0.889(4)
B2 B 0.3044(6) 0.3800(3) 0.1383(5)
H32 H 0.266(4) 0.381(2) 0.064(4)
N19 N 0.3593(3) 0.56046(17) 0.5098(3)
N20 N 0.1528(4) 0.56166(18) 0.5072(3)
C35 C 0.0791(4) 0.5902(2) 0.4762(4)
C36 C 0.4385(4) 0.5855(2) 0.5513(4)
Co1B Co 0.75039(5) 0.50110(3) 1.50075(5)
Co1B_2 Co -0.24961(5) 0.50110(3) -0.49925(5)
Co1B_3 Co -0.24961(5) 0.50110(3) 0.50075(5)
Co1B_4 Co 0.75039(5) 0.50110(3) 0.50075(5)
Fe1B Fe -0.04913(6) 0.63295(3) 0.41092(5)
Fe1B_2 Fe 0.95087(6) 0.63295(3) 1.41092(5)
Fe2B Fe 0.57507(6) 0.62048(3) 0.63441(5)
Fe2B_2 Fe 0.57507(6) 0.62048(3) 1.63441(5)
N1B N -0.1114(3) 0.57839(17) 0.3031(3)
N2B N -0.1659(4) 0.59644(19) 0.2082(3)
N3B N -0.1863(4) 0.67401(17) 0.3405(3)
N4B N -0.2349(4) 0.68084(18) 0.2417(4)
N5B N 0.0034(4) 0.67496(16) 0.3375(3)
N6B N -0.0644(4) 0.68296(18) 0.2391(4)
N7B N 0.6617(3) 0.50775(16) 1.3430(3)
N8B N 0.5859(4) 0.64998(18) 0.8162(3)
N9B N 0.5235(4) 0.65386(18) 0.7165(3)
N10B N 0.7615(4) 0.64920(18) 0.8232(3)
N11B N 0.7198(3) 0.65222(17) 0.7249(3)
N12B N -0.1595(3) 0.49278(17) -0.3420(3)
N12B_2 N 0.8405(3) 0.49278(17) 1.6580(3)
N13B N 0.6732(4) 0.56156(19) 0.8202(3)
N14B N 0.6212(3) 0.55539(17) 0.7205(3)
N15B N 0.8595(3) 0.56278(18) 1.5101(3)
N16B N 0.6548(3) 0.56312(17) 1.5129(3)
N17B N 0.0587(5) 0.7188(3) 0.5749(5)
N18B N 0.4952(5) 0.7206(2) 0.4967(4)
C1B C 0.0973(5) 0.6979(2) 0.3614(5)
H1B H 0.1590 0.6987 0.4252
C2B C 0.0914(6) 0.7204(3) 0.2787(6)
H2B H 0.1470 0.7386 0.2755
C3B C -0.0116(6) 0.7106(2) 0.2030(5)
H3B H -0.0407 0.7213 0.1372
C4B C -0.1111(4) 0.5234(2) 0.2996(4)
H4B H -0.0790 0.5001 0.3548
C5B C -0.1647(5) 0.5056(3) 0.2031(4)
H5B H -0.1760 0.4691 0.1803
C6B C -0.1978(5) 0.5528(2) 0.1478(4)
H6B H -0.2365 0.5543 0.0787
C7B C 0.5859(4) 0.4654(2) 1.1853(4)
H7B H 0.5721 0.4328 1.1487
C8B C 0.6388(4) 0.4634(2) 1.2868(4)
H8B H 0.6597 0.4288 1.3176
C9B C 0.6300(4) 0.5564(2) 1.2967(4)
H9B H 0.6450 0.5884 1.3348
C10B C 0.5770(5) 0.5616(2) 1.1971(4)
H10B H 0.5565 0.5968 1.1685
C11B C 0.5533(4) 0.5160(2) 1.1379(4)
C12B C 0.4942(6) 0.5223(3) 1.0276(4)
H11B H 0.5193 0.5564 1.0129
H12B H 0.4168 0.5268 1.0033
C13B C -0.1441(4) 0.4436(2) -0.2979(4)
H13B H -0.1698 0.4121 -0.3377
C14B C -0.0932(5) 0.4370(2) -0.1988(4)
H14B H -0.0828 0.4015 -0.1718
C15B C -0.0566(5) 0.4829(2) -0.1374(4)
C16B C -0.0708(5) 0.5335(2) -0.1828(4)
H15B H -0.0459 0.5658 -0.1448
C17B C -0.1218(4) 0.5365(2) -0.2843(4)
H16B H -0.1300 0.5712 -0.3134
C18B C 0.7942(5) 0.6771(2) 0.7122(5)
H17B H 0.7864 0.6848 0.6510
C19B C 0.8843(5) 0.6901(2) 0.8026(5)
H18B H 0.9481 0.7075 0.8142
C20B C 0.8616(5) 0.6722(2) 0.8721(5)
H19B H 0.9071 0.6753 0.9406
C21B C 0.0171(5) 0.6856(3) 0.5152(5)
C22B C 0.8985(4) 0.5909(2) 1.4789(4)
C22B_2 C -0.1015(4) 0.5909(2) 0.4789(4)
C23B C -0.2523(5) 0.6946(2) 0.3678(5)
H20B H -0.2385 0.6950 0.4323
C24B C -0.3451(5) 0.7156(3) 0.2851(6)
H21B H -0.4047 0.7325 0.2832
C25B C -0.3313(5) 0.7065(2) 0.2074(6)
H22B H -0.3803 0.7164 0.1417
C26B C 0.5262(4) 0.6830(2) 0.5474(4)
C27B C 0.6231(4) 0.5870(2) 1.5552(4)
C27B_2 C 0.6231(4) 0.5870(2) 0.5552(4)
C28B C 0.4336(5) 0.6804(2) 0.6970(5)
H23B H 0.3758 0.6888 0.6335
C29B C 0.4373(6) 0.6938(3) 0.7830(5)
H24B H 0.3841 0.7124 0.7895
C30B C 0.5343(6) 0.6745(3) 0.8562(5)
H25B H 0.5611 0.6778 0.9238
C31B C 0.6949(5) 0.5108(2) 0.8626(4)
H26B H 0.7303 0.5037 0.9304
C32B C 0.6567(5) 0.4719(2) 0.7901(5)
H27B H 0.6600 0.4334 0.7979
C33B C -0.0057(6) 0.4756(3) -0.0285(4)
H28B H 0.0665 0.4596 -0.0024
H29B H -0.0489 0.4487 -0.0175
C34B C 0.6119(4) 0.5010(2) 0.7023(4)
H30B H 0.5799 0.4850 0.6396
B1B B -0.1804(6) 0.6587(3) 0.1880(5)
H31B H -0.224(5) 0.669(2) 0.111(4)
B2B B 0.6956(6) 0.6200(3) 0.8617(5)
H32B H 0.734(4) 0.619(2) 0.936(4)
N19B N 0.6407(3) 0.43954(17) 0.4902(3)
N19B_2 N 0.6407(3) 0.43954(17) 1.4902(3)
N20B N -0.1528(4) 0.43834(18) 0.4928(3)
N20B_2 N 0.8472(4) 0.43834(18) 1.4928(3)
C35B C -0.0791(4) 0.4098(2) 0.5238(4)
C36B C 0.5615(4) 0.4145(2) 0.4487(4)
O1 O 0.1974(11) 0.8817(7) 0.4571(13)
O2 O 0.3942(11) 0.8264(6) 0.5004(13)
O3 O 0.144(3) 0.6723(7) 0.075(3)
O4 O 0.3580(19) 0.6616(7) 0.3056(13)
O5 O -0.192(3) 0.3606(9) 0.198(3)
O6? O -0.077(5) 0.3695(12) 0.273(2)
O7? O 0.230(6) 0.694(2) 0.1050(18)
O8? O 0.3663(19) 0.6699(9) 0.178(3)
loop_
_geom_bond_atom_site_label_1
_geom_bond_atom_site_label_2
_geom_bond_site_symmetry_1
_geom_bond_site_symmetry_2
Co1 N7 1_555 1_555
Fe1 N1 1_555 1_555
Fe2 N9 1_555 1_555
N1 N2 1_555 1_555
N2 C6 1_555 1_555
N3 Fe1 1_555 1_555
N4 N3 1_555 1_555
N5 Fe1 1_555 1_555
N6 N5 1_555 1_555
N7 C8 1_555 1_555
N8 N9 1_555 1_555
N9 C28 1_555 1_555
N10 N11 1_555 1_555
N11 Fe2 1_555 1_555
N12 Co1 1_555 1_555
N13 N14 1_555 1_555
N14 Fe2 1_555 1_555
N15 Co1 1_555 1_555
N16 Co1 1_555 1_555
N17 C21 1_555 1_555
N18 C26 1_555 1_555
C1 N5 1_555 1_555
H1 C1 1_555 1_555
C2 C1 1_555 1_555
H2 C2 1_555 1_555
C3 N6 1_555 1_555
H3 C3 1_555 1_555
C4 N1 1_555 1_555
H4 C4 1_555 1_555
C5 C4 1_555 1_555
H5 C5 1_555 1_555
C6 C5 1_555 1_555
H6 C6 1_555 1_555
C7 H7 1_555 1_555
C8 C7 1_555 1_555
H8 C8 1_555 1_555
C9 N7 1_555 1_555
H9 C9 1_555 1_555
C10 C9 1_555 1_555
H10 C10 1_555 1_555
C11 C7 1_555 1_555
C12 C11 1_555 1_555
H11 C12 1_555 1_555
H12 C12 1_555 1_555
C13 N12 1_555 1_555
H13 C13 1_555 1_555
C14 C13 1_555 1_555
H14 C14 1_555 1_555
C15 C14 1_555 1_555
C16 C15 1_555 1_555
H15 C16 1_555 1_555
C17 N12 1_555 1_555
H16 C17 1_555 1_555
C18 N11 1_555 1_555
H17 C18 1_555 1_555
C19 C18 1_555 1_555
H18 C19 1_555 1_555
C20 N10 1_555 1_555
H19 C20 1_555 1_555
C21 Fe1 1_555 1_555
C22 Fe1 1_555 1_555
C23 N3 1_555 1_555
H20 C23 1_555 1_555
C24 C23 1_555 1_555
H21 C24 1_555 1_555
C25 N4 1_555 1_555
H22 C25 1_555 1_555
C26 Fe2 1_555 1_555
C27 Fe2 1_555 1_555
C28 H23 1_555 1_555
C29 C28 1_555 1_555
H24 C29 1_555 1_555
C30 N8 1_555 1_555
H25 C30 1_555 1_555
C31 N13 1_555 1_555
H26 C31 1_555 1_555
C32 C31 1_555 1_555
H27 C32 1_555 1_555
C33 C15 1_555 1_555
H28 C33 1_555 1_555
H29 C33 1_555 1_555
C34 N14 1_555 1_555
H30 C34 1_555 1_555
B1 N2 1_555 1_555
H31 B1 1_555 1_555
B2 N8 1_555 1_555
H32 B2 1_555 1_555
N19 Co1 1_555 1_555
N20 Co1 1_555 1_555
C35 N20 1_555 1_555
C36 N19 1_555 1_555
Co1B N7B 1_555 1_555
Co1B_2 N12B 1_555 1_555
Co1B_3 N20B 1_555 1_555
Co1B_4 N19B 1_555 1_555
Fe1B C35 1_555 1_555
Fe1B_2 C22B 1_555 1_555
Fe2B C36 1_555 1_555
Fe2B_2 C27B 1_555 1_555
N1B Fe1B 1_555 1_555
N2B N1B 1_555 1_555
N3B Fe1B 1_555 1_555
N4B N3B 1_555 1_555
N5B Fe1B 1_555 1_555
N6B N5B 1_555 1_555
N7B C8B 1_555 1_555
N8B N9B 1_555 1_555
N9B Fe2B 1_555 1_555
N10B N11B 1_555 1_555
N11B Fe2B 1_555 1_555
N12B C13B 1_555 1_555
N12B_2 Co1B 1_555 1_555
N13B N14B 1_555 1_555
N14B Fe2B 1_555 1_555
N15B Co1B 1_555 1_555
N16B Co1B 1_555 1_555
N17B C21B 1_555 1_555
N18B C26B 1_555 1_555
C1B N5B 1_555 1_555
H1B C1B 1_555 1_555
C2B C1B 1_555 1_555
H2B C2B 1_555 1_555
C3B N6B 1_555 1_555
H3B C3B 1_555 1_555
C4B N1B 1_555 1_555
H4B C4B 1_555 1_555
C5B C4B 1_555 1_555
H5B C5B 1_555 1_555
C6B N2B 1_555 1_555
H6B C6B 1_555 1_555
C7B H7B 1_555 1_555
C8B C7B 1_555 1_555
H8B C8B 1_555 1_555
C9B N7B 1_555 1_555
H9B C9B 1_555 1_555
C10B C9B 1_555 1_555
H10B C10B 1_555 1_555
C11B C7B 1_555 1_555
C12B C12 1_555 1_555
H11B C12B 1_555 1_555
H12B C12B 1_555 1_555
C13B H13B 1_555 1_555
C14B C13B 1_555 1_555
H14B C14B 1_555 1_555
C15B C14B 1_555 1_555
C16B C15B 1_555 1_555
H15B C16B 1_555 1_555
C17B N12B 1_555 1_555
H16B C17B 1_555 1_555
C18B N11B 1_555 1_555
H17B C18B 1_555 1_555
C19B C18B 1_555 1_555
H18B C19B 1_555 1_555
C20B N10B 1_555 1_555
H19B C20B 1_555 1_555
C21B Fe1B 1_555 1_555
C22B N15B 1_555 1_555
C22B_2 Fe1B 1_555 1_555
C23B N3B 1_555 1_555
H20B C23B 1_555 1_555
C24B C23B 1_555 1_555
H21B C24B 1_555 1_555
C25B N4B 1_555 1_555
H22B C25B 1_555 1_555
C26B Fe2B 1_555 1_555
C27B N16B 1_555 1_555
C27B_2 Fe2B 1_555 1_555
C28B N9B 1_555 1_555
H23B C28B 1_555 1_555
C29B C28B 1_555 1_555
H24B C29B 1_555 1_555
C30B N8B 1_555 1_555
H25B C30B 1_555 1_555
C31B N13B 1_555 1_555
H26B C31B 1_555 1_555
C32B C31B 1_555 1_555
H27B C32B 1_555 1_555
C33B C33 1_555 1_555
H28B C33B 1_555 1_555
H29B C33B 1_555 1_555
C34B N14B 1_555 1_555
H30B C34B 1_555 1_555
B1B N2B 1_555 1_555
H31B B1B 1_555 1_555
B2B N8B 1_555 1_555
H32B B2B 1_555 1_555
N19B C36B 1_555 1_555
N19B_2 Co1B 1_555 1_555
N20B C35B 1_555 1_555
N20B_2 Co1B 1_555 1_555
C35B Fe1 1_555 1_555
C36B Fe2 1_555 1_555
N4 B1 1_555 1_555
N6 B1 1_555 1_555
N10 B2 1_555 1_555
N13 B2 1_555 1_555
N15 C22 1_555 1_555
N16 C27 1_555 1_555
C2 C3 1_555 1_555
C10 C11 1_555 1_555
C16 C17 1_555 1_555
C19 C20 1_555 1_555
C24 C25 1_555 1_555
C29 C30 1_555 1_555
C32 C34 1_555 1_555
N4B B1B 1_555 1_555
N6B B1B 1_555 1_555
N10B B2B 1_555 1_555
N13B B2B 1_555 1_555
C2B C3B 1_555 1_555
C5B C6B 1_555 1_555
C10B C11B 1_555 1_555
C11B C12B 1_555 1_555
C15B C33B 1_555 1_555
C16B C17B 1_555 1_555
C19B C20B 1_555 1_555
C24B C25B 1_555 1_555
C29B C30B 1_555 1_555
C32B C34B 1_555 1_555

#END
