
#######################################################################
#
#                 Cambridge Crystallographic Data Centre
#                                CCDC 
#
#######################################################################
#
# If this CIF has been generated from an entry in the Cambridge 
# Structural Database, then it will include bibliographic, chemical, 
# crystal, experimental, refinement or atomic coordinate data resulting 
# from the CCDC's data processing and validation procedures.
#
#######################################################################

data_LAJQEU
_symmetry_cell_setting           monoclinic
_symmetry_space_group_name_H-M   'P 2/n'
_symmetry_Int_Tables_number      13
_space_group_name_Hall           '-P 2yac'
loop_
_symmetry_equiv_pos_site_id
_symmetry_equiv_pos_as_xyz
1 x,y,z
2 1/2-x,y,1/2-z
3 -x,-y,-z
4 1/2+x,-y,1/2+z
_cell_length_a                   13.5030(3)
_cell_length_b                   7.56400(10)
_cell_length_c                   15.1390(3)
_cell_angle_alpha                90
_cell_angle_beta                 113.1230(10)
_cell_angle_gamma                90
_cell_volume                     1422.03
loop_
_atom_site_label
_atom_site_type_symbol
_atom_site_fract_x
_atom_site_fract_y
_atom_site_fract_z
Ag1 Ag 0.56467(2) 0.12329(3) 0.10811(2)
Ag2 Ag 0.639452(17) -0.23335(3) 0.131004(18)
S1 S 0.87516(5) -0.20351(9) 0.10812(5)
O1 O 0.75000 -0.4566(4) 0.25000
O2 O 0.99046(16) -0.1187(3) 0.17647(15)
O3 O 0.73057(17) 0.1857(3) 0.14388(16)
O4 O 0.41063(17) 0.0136(3) 0.08687(16)
O5 O 0.88070(19) -0.3806(3) 0.14011(19)
O6 O 0.86509(19) -0.1730(3) 0.01218(15)
N1 N 0.78901(18) -0.0937(3) 0.13467(17)
N2 N 0.46473(18) -0.2730(3) 0.10550(16)
C1 C 0.9960(2) 0.0642(4) 0.1786(2)
C2 C 1.1080(3) 0.1289(5) 0.2060(3)
H1 H 1.1104 0.254 0.2172
H2 H 1.1315 0.1044 0.155
H3 H 1.1546 0.0699 0.2635
C3 C 0.9077(2) 0.1615(4) 0.1595(2)
H4 H 0.913 0.2837 0.1564
C4 C 0.8034(2) 0.0845(4) 0.14352(19)
C5 C 0.2815(2) -0.1909(4) 0.0830(2)
H5 H 0.2285 -0.1042 0.0624
C6 C 0.3886(2) -0.1460(4) 0.09063(19)
O7 O 0.33155(17) -0.4843(3) 0.13287(16)
C7 C 0.2549(2) -0.3504(4) 0.1041(2)
C8 C 0.1498(3) -0.4090(5) 0.1032(3)
H6 H 0.0978 -0.3161 0.0781
H7 H 0.1575 -0.4368 0.1675
H8 H 0.1259 -0.5122 0.0635
S2 S 0.42480(5) -0.47458(8) 0.09178(5)
O8 O 0.50806(17) -0.5855(3) 0.15405(16)
O9 O 0.37618(17) -0.5220(3) -0.00686(15)
Ag1_2 Ag 0.56467(2) 1.12329(3) 0.10811(2)
Ag1_3 Ag 0.56467(2) -0.87671(3) 0.10811(2)
Ag2_2 Ag 0.639452(17) 0.76665(3) 0.131004(18)
Ag2A Ag 0.860548(17) -0.23335(3) 0.368996(18)
Ag2B Ag 0.360548(17) -0.76665(3) -0.131004(18)
Ag2B_2 Ag 0.360548(17) 0.23335(3) -0.131004(18)
S1_2 S 0.87516(5) 0.79649(9) 0.10812(5)
O1_2 O 0.75000 0.5434(4) 0.25000
O2_2 O 0.99046(16) 0.8813(3) 0.17647(15)
O3_2 O 0.73057(17) 1.1857(3) 0.14388(16)
O4_2 O 0.41063(17) 1.0136(3) 0.08687(16)
O5_2 O 0.88070(19) 0.6194(3) 0.14011(19)
O6_2 O 0.86509(19) 0.8270(3) 0.01218(15)
N1_2 N 0.78901(18) 0.9063(3) 0.13467(17)
N2_2 N 0.46473(18) 0.7270(3) 0.10550(16)
C1_2 C 0.9960(2) 1.0642(4) 0.1786(2)
C2_2 C 1.1080(3) 1.1289(5) 0.2060(3)
H1_2 H 1.1104 1.254 0.2172
H2_2 H 1.1315 1.1044 0.155
H3_2 H 1.1546 1.0699 0.2635
C3_2 C 0.9077(2) 1.1615(4) 0.1595(2)
H4_2 H 0.913 1.2837 0.1564
C4_2 C 0.8034(2) 1.0845(4) 0.14352(19)
C5_2 C 0.2815(2) 0.8091(4) 0.0830(2)
H5_2 H 0.2285 0.8958 0.0624
C6_2 C 0.3886(2) 0.8540(4) 0.09063(19)
O7_2 O 0.33155(17) 0.5157(3) 0.13287(16)
C7_2 C 0.2549(2) 0.6496(4) 0.1041(2)
C8_2 C 0.1498(3) 0.5910(5) 0.1032(3)
H6_2 H 0.0978 0.6839 0.0781
H7_2 H 0.1575 0.5632 0.1675
H8_2 H 0.1259 0.4878 0.0635
S2_2 S 0.42480(5) 0.52542(8) 0.09178(5)
O8_2 O 0.50806(17) 0.4145(3) 0.15405(16)
O8_3 O 0.50806(17) 1.4145(3) 0.15405(16)
O9_2 O 0.37618(17) 0.4780(3) -0.00686(15)
O9B O 0.62382(17) -0.4780(3) 0.00686(15)
O9B_2 O 0.62382(17) 0.5220(3) 0.00686(15)
loop_
_geom_bond_atom_site_label_1
_geom_bond_atom_site_label_2
_geom_bond_site_symmetry_1
_geom_bond_site_symmetry_2
Ag1 Ag2 1_555 1_555
Ag2 O1 1_555 1_555
S1 O2 1_555 1_555
O1 Ag2A 1_555 1_555
O2 C1 1_555 1_555
O3 Ag1 1_555 1_555
O4 Ag1 1_555 1_555
O5 S1 1_555 1_555
O6 S1 1_555 1_555
N1 Ag2 1_555 1_555
N2 Ag2 1_555 1_555
C1 C2 1_555 1_555
C2 H1 1_555 1_555
H2 C2 1_555 1_555
H3 C2 1_555 1_555
C3 C1 1_555 1_555
H4 C3 1_555 1_555
C4 O3 1_555 1_555
C5 H5 1_555 1_555
C6 O4 1_555 1_555
O7 C7 1_555 1_555
C7 C5 1_555 1_555
C8 C7 1_555 1_555
H6 C8 1_555 1_555
H7 C8 1_555 1_555
H8 C8 1_555 1_555
S2 N2 1_555 1_555
O8 S2 1_555 1_555
O9 S2 1_555 1_555
Ag1_2 Ag2_2 1_555 1_555
Ag1_3 O8 1_555 1_555
Ag2_2 O1_2 1_555 1_555
Ag2B O9 1_555 1_555
Ag2B_2 O9_2 1_555 1_555
S1_2 O2_2 1_555 1_555
O2_2 C1_2 1_555 1_555
O3_2 Ag1_2 1_555 1_555
O4_2 Ag1_2 1_555 1_555
O5_2 S1_2 1_555 1_555
O6_2 S1_2 1_555 1_555
N1_2 Ag2_2 1_555 1_555
N2_2 Ag2_2 1_555 1_555
C1_2 C2_2 1_555 1_555
C2_2 H1_2 1_555 1_555
H2_2 C2_2 1_555 1_555
H3_2 C2_2 1_555 1_555
C3_2 C1_2 1_555 1_555
H4_2 C3_2 1_555 1_555
C4_2 O3_2 1_555 1_555
C5_2 H5_2 1_555 1_555
C6_2 O4_2 1_555 1_555
O7_2 C7_2 1_555 1_555
C7_2 C5_2 1_555 1_555
C8_2 C7_2 1_555 1_555
H6_2 C8_2 1_555 1_555
H7_2 C8_2 1_555 1_555
H8_2 C8_2 1_555 1_555
S2_2 N2_2 1_555 1_555
O8_2 Ag1 1_555 1_555
O8_3 Ag1_2 1_555 1_555
O9_2 S2_2 1_555 1_555
O9B Ag2 1_555 1_555
O9B_2 Ag2_2 1_555 1_555
S1 N1 1_555 1_555
N1 C4 1_555 1_555
N2 C6 1_555 1_555
C3 C4 1_555 1_555
C5 C6 1_555 1_555
O7 S2 1_555 1_555
S1_2 N1_2 1_555 1_555
N1_2 C4_2 1_555 1_555
N2_2 C6_2 1_555 1_555
C3_2 C4_2 1_555 1_555
C5_2 C6_2 1_555 1_555
O7_2 S2_2 1_555 1_555
S2_2 O8_2 1_555 1_555

#END
