
#######################################################################
#
#                 Cambridge Crystallographic Data Centre
#                                CCDC 
#
#######################################################################
#
# If this CIF has been generated from an entry in the Cambridge 
# Structural Database, then it will include bibliographic, chemical, 
# crystal, experimental, refinement or atomic coordinate data resulting 
# from the CCDC's data processing and validation procedures.
#
#######################################################################

data_LAJSUM
_symmetry_cell_setting           monoclinic
_symmetry_space_group_name_H-M   'C 2'
_symmetry_Int_Tables_number      5
_space_group_name_Hall           'C 2y'
loop_
_symmetry_equiv_pos_site_id
_symmetry_equiv_pos_as_xyz
1 x,y,z
2 -x,y,-z
3 1/2+x,1/2+y,z
4 1/2-x,1/2+y,-z
_cell_length_a                   17.637(5)
_cell_length_b                   6.3623(19)
_cell_length_c                   16.121(5)
_cell_angle_alpha                90
_cell_angle_beta                 93.363(5)
_cell_angle_gamma                90
_cell_volume                     1805.85
loop_
_atom_site_label
_atom_site_type_symbol
_atom_site_fract_x
_atom_site_fract_y
_atom_site_fract_z
Pb1 Pb 0.458650(18) 1.28889(5) 0.79257(2)
S1 S 0.51799(18) 1.1956(5) 0.66067(19)
O1 O 0.4821(5) 0.6252(14) 0.7431(6)
O2 O 0.4537(5) 0.9243(12) 0.7960(5)
C1 C 0.4803(5) 0.795(5) 0.7406(6)
C2 C 0.5167(6) 0.9189(16) 0.6671(7)
C3 C 0.5496(5) 0.801(4) 0.6141(5)
H1 H 0.5367 0.6645 0.6326
C4 C 0.5958(5) 0.7496(13) 0.5415(4)
C5 C 0.5979(5) 0.5573(12) 0.5008(5)
H2 H 0.5683 0.4430 0.5186
C6 C 0.6435(5) 0.5321(12) 0.4339(5)
H3 H 0.6449 0.4007 0.4061
C7 C 0.6868(5) 0.6993(16) 0.4078(5)
H4 H 0.7179 0.6822 0.3621
C8 C 0.6847(5) 0.8917(13) 0.4485(6)
H5 H 0.7143 1.0059 0.4307
C9 C 0.6392(5) 0.9168(11) 0.5153(5)
H6 H 0.6377 1.0482 0.5432
C10 C 0.3376(3) 1.3341(12) 0.7840(5)
C11 C 0.2882(5) 1.1751(10) 0.7565(5)
H7 H 0.3077 1.0426 0.7410
C12 C 0.2103(5) 1.2101(13) 0.7518(6)
H8 H 0.1766 1.1014 0.7330
C13 C 0.1817(3) 1.4040(15) 0.7745(6)
H9 H 0.1285 1.4279 0.7712
C14 C 0.2311(4) 1.5630(11) 0.8019(5)
H10 H 0.2116 1.6956 0.8175
C15 C 0.3090(4) 1.5281(11) 0.8067(5)
H11 H 0.3428 1.6367 0.8255
C16 C 0.5449(5) 1.2537(16) 0.8943(4)
C17 C 0.5530(5) 1.0574(14) 0.9316(5)
H12 H 0.5198 0.9458 0.9145
C18 C 0.6095(6) 1.0243(16) 0.9940(6)
H13 H 0.6151 0.8902 1.0195
C19 C 0.6580(5) 1.188(2) 1.0190(6)
H14 H 0.6967 1.1650 1.0616
C20 C 0.6499(5) 1.3839(18) 0.9817(7)
H15 H 0.6830 1.4955 0.9988
C21 C 0.5933(6) 1.4169(14) 0.9193(6)
H16 H 0.5878 1.5511 0.8938
Pb1_2 Pb 0.458650(18) 0.28889(5) 0.79257(2)
O1_2 O 0.4821(5) 1.6252(14) 0.7431(6)
loop_
_geom_bond_atom_site_label_1
_geom_bond_atom_site_label_2
_geom_bond_site_symmetry_1
_geom_bond_site_symmetry_2
Pb1 S1 1_555 1_555
S1 C2 1_555 1_555
O1 C1 1_555 1_555
O2 Pb1 1_555 1_555
C1 O2 1_555 1_555
C2 C1 1_555 1_555
C3 C2 1_555 1_555
H1 C3 1_555 1_555
C4 C3 1_555 1_555
C5 C4 1_555 1_555
H2 C5 1_555 1_555
C6 C5 1_555 1_555
H3 C6 1_555 1_555
C7 C6 1_555 1_555
H4 C7 1_555 1_555
C8 C7 1_555 1_555
H5 C8 1_555 1_555
C9 C4 1_555 1_555
H6 C9 1_555 1_555
C10 Pb1 1_555 1_555
C11 C10 1_555 1_555
H7 C11 1_555 1_555
C12 C11 1_555 1_555
H8 C12 1_555 1_555
C13 C12 1_555 1_555
H9 C13 1_555 1_555
C14 C13 1_555 1_555
H10 C14 1_555 1_555
C15 C10 1_555 1_555
H11 C15 1_555 1_555
C16 Pb1 1_555 1_555
C17 C16 1_555 1_555
H12 C17 1_555 1_555
C18 C17 1_555 1_555
H13 C18 1_555 1_555
C19 C18 1_555 1_555
H14 C19 1_555 1_555
C20 C19 1_555 1_555
H15 C20 1_555 1_555
C21 C16 1_555 1_555
H16 C21 1_555 1_555
Pb1_2 O1 1_555 1_555
O1_2 Pb1 1_555 1_555
C8 C9 1_555 1_555
C14 C15 1_555 1_555
C20 C21 1_555 1_555

#END
