
#######################################################################
#
#                 Cambridge Crystallographic Data Centre
#                                CCDC 
#
#######################################################################
#
# If this CIF has been generated from an entry in the Cambridge 
# Structural Database, then it will include bibliographic, chemical, 
# crystal, experimental, refinement or atomic coordinate data resulting 
# from the CCDC's data processing and validation procedures.
#
#######################################################################

data_LAJWEZ
_symmetry_cell_setting           monoclinic
_symmetry_space_group_name_H-M   'C 2/c'
_symmetry_Int_Tables_number      15
_space_group_name_Hall           '-C 2yn'
loop_
_symmetry_equiv_pos_site_id
_symmetry_equiv_pos_as_xyz
1 x,y,z
2 x,-y,1/2+z
3 1/2+x,1/2+y,z
4 1/2+x,1/2-y,1/2+z
5 -x,-y,-z
6 -x,y,1/2-z
7 1/2-x,1/2-y,-z
8 1/2-x,1/2+y,1/2-z
_cell_length_a                   28.4989(7)
_cell_length_b                   9.3347(2)
_cell_length_c                   22.7954(5)
_cell_angle_alpha                90
_cell_angle_beta                 132.4010(8)
_cell_angle_gamma                90
_cell_volume                     4478.09
loop_
_atom_site_label
_atom_site_type_symbol
_atom_site_fract_x
_atom_site_fract_y
_atom_site_fract_z
Sm1 Sm 0.5000 0.66665(2) 0.2500
Na1 Na 0.5000 0.18960(10) 0.2500
O1 O 0.46775(7) 0.4943(2) 0.28970(10)
O2 O 0.41453(9) 0.2915(2) 0.23230(10)
O3 O 0.30188(9) 0.2739(2) 0.17990(10)
O4 O 0.52592(8) 0.8342(2) 0.33990(10)
O5 O 0.54180(10) 1.0662(2) 0.36630(10)
O6 O 0.57290(10) 1.1596(2) 0.49410(10)
N1 N 0.60585(8) 0.5509(2) 0.38440(10)
N2 N 0.61138(8) 0.7673(2) 0.30840(10)
C1 C 0.60590(10) 0.4520(3) 0.42620(10)
C2 C 0.65930(10) 0.3757(3) 0.4890(2)
C3 C 0.71520(10) 0.3998(3) 0.50790(10)
C4 C 0.71850(10) 0.5030(3) 0.46650(10)
C5 C 0.77640(10) 0.5362(3) 0.4854(2)
C6 C 0.77900(10) 0.6411(3) 0.4481(2)
C7 C 0.72400(10) 0.7242(3) 0.38780(10)
C8 C 0.72580(10) 0.8401(3) 0.35040(10)
C9 C 0.67310(10) 0.9195(3) 0.2972(2)
C10 C 0.61640(10) 0.8798(3) 0.27740(10)
C11 C 0.66537(9) 0.6920(2) 0.36530(10)
C12 C 0.66260(10) 0.5783(2) 0.40550(10)
C13 C 0.42210(10) 0.4100(3) 0.26330(10)
C14 C 0.37590(10) 0.4567(2) 0.26980(10)
C15 C 0.38920(10) 0.5706(3) 0.31850(10)
C16 C 0.3461(2) 0.6170(3) 0.3233(2)
C17 C 0.2875(2) 0.5526(3) 0.2765(2)
C18 C 0.27250(10) 0.4398(3) 0.2283(2)
C19 C 0.31720(10) 0.3880(3) 0.2256(2)
C20 C 0.54140(10) 0.9397(3) 0.38400(10)
C21 C 0.55840(10) 0.9107(2) 0.46080(10)
C22 C 0.55950(10) 0.7713(3) 0.4830(2)
C23 C 0.5744(2) 0.7431(4) 0.5532(2)
C24 C 0.5874(2) 0.8549(4) 0.6014(2)
C25 C 0.58680(10) 0.9927(4) 0.58190(10)
C26 C 0.57310(10) 1.0221(3) 0.51160(10)
H1 H 0.5654 0.4319 0.4118
H2 H 0.6567 0.3067 0.5192
H3 H 0.7533 0.3447 0.5503
H4 H 0.8147 0.4804 0.5263
H5 H 0.8192 0.6614 0.4618
H6 H 0.7654 0.8640 0.3632
H7 H 0.6743 1.0033 0.2724
H8 H 0.5784 0.9380 0.2386
H9 H 0.4304 0.6190 0.3501
H10 H 0.3569 0.6946 0.3595
H11 H 0.2561 0.5887 0.2782
H12 H 0.2305 0.3947 0.1959
H13 H 0.5490 0.6922 0.4476
H14 H 0.5769 0.6443 0.5697
H15 H 0.5967 0.8354 0.6506
H16 H 0.5956 1.0715 0.6165
H17 H 0.3374 0.2498 0.1839
H18 H 0.5642 1.1670 0.4459
O1E O 0.53225(7) 0.4943(2) 0.21030(10)
O2E O 0.58547(9) 0.2915(2) 0.26770(10)
O3E O 0.69812(9) 0.2739(2) 0.32010(10)
C13E C 0.57790(10) 0.4100(3) 0.23670(10)
C14E C 0.62410(10) 0.4567(2) 0.23020(10)
C15E C 0.61080(10) 0.5706(3) 0.18150(10)
C16E C 0.6539(2) 0.6170(3) 0.1767(2)
C17E C 0.7125(2) 0.5526(3) 0.2235(2)
C18E C 0.72750(10) 0.4398(3) 0.2717(2)
C19E C 0.68280(10) 0.3880(3) 0.2744(2)
H9E H 0.5696 0.6190 0.1499
H10E H 0.6431 0.6946 0.1405
H11E H 0.7439 0.5887 0.2218
H12E H 0.7695 0.3947 0.3041
H17E H 0.6626 0.2498 0.3161
O4E O 0.47408(8) 0.8342(2) 0.16010(10)
O5E O 0.45820(10) 1.0662(2) 0.13370(10)
O6E O 0.42710(10) 1.1596(2) 0.00590(10)
C20E C 0.45860(10) 0.9397(3) 0.11600(10)
C21E C 0.44160(10) 0.9107(2) 0.03920(10)
C22E C 0.44050(10) 0.7713(3) 0.0170(2)
C23E C 0.4256(2) 0.7431(4) -0.0532(2)
C24E C 0.4126(2) 0.8549(4) -0.1014(2)
C25E C 0.41320(10) 0.9927(4) -0.08190(10)
C26E C 0.42690(10) 1.0221(3) -0.01160(10)
H13E H 0.4510 0.6922 0.0524
H14E H 0.4231 0.6443 -0.0697
H15E H 0.4033 0.8354 -0.1506
H16E H 0.4044 1.0715 -0.1165
H18E H 0.4358 1.1670 0.0541
N1E N 0.39415(8) 0.5509(2) 0.11560(10)
N2E N 0.38862(8) 0.7673(2) 0.19160(10)
C1E C 0.39410(10) 0.4520(3) 0.07380(10)
C2E C 0.34070(10) 0.3757(3) 0.0110(2)
C3E C 0.28480(10) 0.3998(3) -0.00790(10)
C4E C 0.28150(10) 0.5030(3) 0.03350(10)
C5E C 0.22360(10) 0.5362(3) 0.0146(2)
C6E C 0.22100(10) 0.6411(3) 0.0519(2)
C7E C 0.27600(10) 0.7242(3) 0.11220(10)
C8E C 0.27420(10) 0.8401(3) 0.14960(10)
C9E C 0.32690(10) 0.9195(3) 0.2028(2)
C10E C 0.38360(10) 0.8798(3) 0.22260(10)
C11E C 0.33463(9) 0.6920(2) 0.13470(10)
C12E C 0.33740(10) 0.5783(2) 0.09450(10)
H1E H 0.4346 0.4319 0.0882
H2E H 0.3433 0.3067 -0.0192
H3E H 0.2467 0.3447 -0.0503
H4E H 0.1853 0.4804 -0.0263
H5E H 0.1808 0.6614 0.0382
H6E H 0.2346 0.8640 0.1368
H7E H 0.3257 1.0033 0.2276
H8E H 0.4216 0.9380 0.2614
O5_2 O 0.54180(10) 0.0662(2) 0.36630(10)
O5E_2 O 0.45820(10) 0.0662(2) 0.13370(10)
Na1_2 Na 0.5000 1.18960(10) 0.2500
loop_
_geom_bond_atom_site_label_1
_geom_bond_atom_site_label_2
_geom_bond_site_symmetry_1
_geom_bond_site_symmetry_2
Sm1 O1 1_555 1_555
Na1 O2 1_555 1_555
O1 C13 1_555 1_555
O2 C13 1_555 1_555
O3 C19 1_555 1_555
O4 Sm1 1_555 1_555
O5 C20 1_555 1_555
O6 C26 1_555 1_555
N1 Sm1 1_555 1_555
N2 Sm1 1_555 1_555
C1 N1 1_555 1_555
C2 C1 1_555 1_555
C3 C2 1_555 1_555
C4 C3 1_555 1_555
C5 C4 1_555 1_555
C6 C5 1_555 1_555
C7 C6 1_555 1_555
C8 C7 1_555 1_555
C9 C8 1_555 1_555
C10 N2 1_555 1_555
C11 N2 1_555 1_555
C12 N1 1_555 1_555
C13 C14 1_555 1_555
C14 C15 1_555 1_555
C15 C16 1_555 1_555
C16 C17 1_555 1_555
C17 C18 1_555 1_555
C18 C19 1_555 1_555
C19 C14 1_555 1_555
C20 O4 1_555 1_555
C21 C20 1_555 1_555
C22 C21 1_555 1_555
C23 C22 1_555 1_555
C24 C23 1_555 1_555
C25 C24 1_555 1_555
C26 C21 1_555 1_555
H1 C1 1_555 1_555
H2 C2 1_555 1_555
H3 C3 1_555 1_555
H4 C5 1_555 1_555
H5 C6 1_555 1_555
H6 C8 1_555 1_555
H7 C9 1_555 1_555
H8 C10 1_555 1_555
H9 C15 1_555 1_555
H10 C16 1_555 1_555
H11 C17 1_555 1_555
H12 C18 1_555 1_555
H13 C22 1_555 1_555
H14 C23 1_555 1_555
H15 C24 1_555 1_555
H16 C25 1_555 1_555
H17 O3 1_555 1_555
H18 O6 1_555 1_555
O1E Sm1 1_555 1_555
O2E Na1 1_555 1_555
O3E C19E 1_555 1_555
C13E O1E 1_555 1_555
C14E C13E 1_555 1_555
C15E C14E 1_555 1_555
C16E C15E 1_555 1_555
C17E C16E 1_555 1_555
C18E C17E 1_555 1_555
C19E C14E 1_555 1_555
H9E C15E 1_555 1_555
H10E C16E 1_555 1_555
H11E C17E 1_555 1_555
H12E C18E 1_555 1_555
H17E O3E 1_555 1_555
O4E Sm1 1_555 1_555
O5E C20E 1_555 1_555
O6E C26E 1_555 1_555
C20E O4E 1_555 1_555
C21E C20E 1_555 1_555
C22E C21E 1_555 1_555
C23E C22E 1_555 1_555
C24E C23E 1_555 1_555
C25E C24E 1_555 1_555
C26E C21E 1_555 1_555
H13E C22E 1_555 1_555
H14E C23E 1_555 1_555
H15E C24E 1_555 1_555
H16E C25E 1_555 1_555
H18E O6E 1_555 1_555
N1E Sm1 1_555 1_555
N2E Sm1 1_555 1_555
C1E N1E 1_555 1_555
C2E C1E 1_555 1_555
C3E C2E 1_555 1_555
C4E C3E 1_555 1_555
C5E C4E 1_555 1_555
C6E C5E 1_555 1_555
C7E C6E 1_555 1_555
C8E C7E 1_555 1_555
C9E C8E 1_555 1_555
C10E N2E 1_555 1_555
C11E N2E 1_555 1_555
C12E N1E 1_555 1_555
H1E C1E 1_555 1_555
H2E C2E 1_555 1_555
H3E C3E 1_555 1_555
H4E C5E 1_555 1_555
H5E C6E 1_555 1_555
H6E C8E 1_555 1_555
H7E C9E 1_555 1_555
H8E C10E 1_555 1_555
O5_2 Na1 1_555 1_555
O5E_2 Na1 1_555 1_555
Na1_2 O5 1_555 1_555
C4 C12 1_555 1_555
C7 C11 1_555 1_555
C9 C10 1_555 1_555
C11 C12 1_555 1_555
C25 C26 1_555 1_555
O2E C13E 1_555 1_555
C18E C19E 1_555 1_555
O5E Na1_2 1_555 1_555
C25E C26E 1_555 1_555
C4E C12E 1_555 1_555
C7E C11E 1_555 1_555
C9E C10E 1_555 1_555
C11E C12E 1_555 1_555

#END
