
#######################################################################
#
#                 Cambridge Crystallographic Data Centre
#                                CCDC 
#
#######################################################################
#
# If this CIF has been generated from an entry in the Cambridge 
# Structural Database, then it will include bibliographic, chemical, 
# crystal, experimental, refinement or atomic coordinate data resulting 
# from the CCDC's data processing and validation procedures.
#
#######################################################################

data_LAJXAX
_symmetry_cell_setting           monoclinic
_symmetry_space_group_name_H-M   'C 2/c'
_symmetry_Int_Tables_number      15
_space_group_name_Hall           '-C 2yn'
loop_
_symmetry_equiv_pos_site_id
_symmetry_equiv_pos_as_xyz
1 x,y,z
2 -x,y,1/2-z
3 1/2+x,1/2+y,z
4 1/2-x,1/2+y,1/2-z
5 -x,-y,-z
6 x,-y,1/2+z
7 1/2-x,1/2-y,-z
8 1/2+x,1/2-y,1/2+z
_cell_length_a                   9.42337(37)
_cell_length_b                   15.99906(58)
_cell_length_c                   12.59867(47)
_cell_angle_alpha                90
_cell_angle_beta                 92.8346(29)
_cell_angle_gamma                90
_cell_volume                     1897.12
loop_
_atom_site_label
_atom_site_type_symbol
_atom_site_fract_x
_atom_site_fract_y
_atom_site_fract_z
Er1 Er 0.61000(21) 0.86914(13) 0.57208(14)
N1 N 0.60495 1.01578 0.63160
N2 N 0.52628 1.06625 0.56583
N3 N 0.54825 1.14603 0.59799
N4 N 0.60637 0.71328 0.57265
N5 N 0.70394 0.66925 0.52081
N6 N 0.67104 0.58727 0.52808
N7 N 0.77289 0.86440 0.73202
N8 N 0.63456 0.85947 0.75509
N9 N 0.62778 0.85779 0.86200
C1 C 0.67554 1.06435 0.70441
C2 C 0.64050 1.14485 0.68365
C3 C 0.51317 0.65851 0.61197
C4 C 0.55314 0.58063 0.58443
C5 C 0.85161 0.86578 0.82467
C6 C 0.76192 0.86170 0.90501
H1 H 0.74200 1.04426 0.76330
H2 H 0.67649 1.19476 0.72447
H3 H 0.42937 0.67305 0.65404
H4 H 0.50410 0.52745 0.60255
H5 H 0.95758 0.86922 0.83242
H6 H 0.78990 0.86158 0.98261
Er1D Er 0.39000(21) 1.13086(13) 0.42792(14)
Er1F Er 0.89000(21) 0.63086(13) 0.42792(14)
Er1A Er 0.39000(21) 0.86914(13) 0.92792(14)
N2D N 0.47372 0.93375 0.43417
N3D N 0.45175 0.85397 0.40201
N5F N 0.79606 0.83075 0.47919
N6F N 0.82896 0.91273 0.47192
N9A N 0.37222 0.85779 0.63800
loop_
_geom_bond_atom_site_label_1
_geom_bond_atom_site_label_2
_geom_bond_site_symmetry_1
_geom_bond_site_symmetry_2
Er1 N1 1_555 1_555
N1 N2 1_555 1_555
N2 N3 1_555 1_555
N3 C2 1_555 1_555
N4 Er1 1_555 1_555
N5 N4 1_555 1_555
N6 N5 1_555 1_555
N7 Er1 1_555 1_555
N8 Er1 1_555 1_555
N9 N8 1_555 1_555
C1 N1 1_555 1_555
C2 C1 1_555 1_555
C3 N4 1_555 1_555
C4 N6 1_555 1_555
C5 N7 1_555 1_555
C6 N9 1_555 1_555
H1 C1 1_555 1_555
H2 C2 1_555 1_555
H3 C3 1_555 1_555
H4 C4 1_555 1_555
H5 C5 1_555 1_555
H6 C6 1_555 1_555
Er1D N2 1_555 1_555
Er1F N5 1_555 1_555
Er1A N9 1_555 1_555
N2D Er1 1_555 1_555
N3D Er1 1_555 1_555
N5F Er1 1_555 1_555
N6F Er1 1_555 1_555
N9A Er1 1_555 1_555
N3 Er1D 1_555 1_555
N6 Er1F 1_555 1_555
N7 N8 1_555 1_555
C3 C4 1_555 1_555
C5 C6 1_555 1_555
N2D N3D 1_555 1_555
N5F N6F 1_555 1_555

#END
