
#######################################################################
#
#                 Cambridge Crystallographic Data Centre
#                                CCDC 
#
#######################################################################
#
# If this CIF has been generated from an entry in the Cambridge 
# Structural Database, then it will include bibliographic, chemical, 
# crystal, experimental, refinement or atomic coordinate data resulting 
# from the CCDC's data processing and validation procedures.
#
#######################################################################

data_LAJYAY
_symmetry_cell_setting           monoclinic
_symmetry_space_group_name_H-M   'C 2/c'
_symmetry_Int_Tables_number      15
_space_group_name_Hall           '-C 2yn'
loop_
_symmetry_equiv_pos_site_id
_symmetry_equiv_pos_as_xyz
1 x,y,z
2 -x,y,1/2-z
3 1/2+x,1/2+y,z
4 1/2-x,1/2+y,1/2-z
5 -x,-y,-z
6 x,-y,1/2+z
7 1/2-x,1/2-y,-z
8 1/2+x,1/2-y,1/2+z
_cell_length_a                   9.39807(89)
_cell_length_b                   15.9208(14)
_cell_length_c                   12.5558(12)
_cell_angle_alpha                90
_cell_angle_beta                 92.6947(72)
_cell_angle_gamma                90
_cell_volume                     1876.58
loop_
_atom_site_label
_atom_site_type_symbol
_atom_site_fract_x
_atom_site_fract_y
_atom_site_fract_z
Tm1 Tm 0.6090(4) 0.8686(3) 0.57252(25)
N1 N 0.58823 1.01616 0.62667
N2 N 0.50431 1.06927 0.56786
N3 N 0.52560 1.14774 0.60656
N4 N 0.59762 0.71286 0.56091
N5 N 0.70028 0.66621 0.51760
N6 N 0.67202 0.58443 0.53643
N7 N 0.79585 0.86860 0.73073
N8 N 0.65846 0.87547 0.75694
N9 N 0.65420 0.86865 0.86407
C1 C 0.66139 1.06180 0.70171
C2 C 0.62268 1.14312 0.68928
C3 C 0.50591 0.65991 0.60650
C4 C 0.55189 0.58053 0.59138
C5 C 0.87651 0.85753 0.82165
C6 C 0.78897 0.85757 0.90406
H1 H 0.72474 1.04159 0.75125
H2 H 0.65574 1.18656 0.72910
H3 H 0.42793 0.67488 0.64089
H4 H 0.50991 0.53338 0.61392
H5 H 0.97177 0.85125 0.82648
H6 H 0.81571 0.85131 0.97338
Tm1D Tm 0.3910(4) 1.1314(3) 0.42748(25)
Tm1F Tm 0.8910(4) 0.6314(3) 0.42748(25)
Tm1A Tm 0.3910(4) 0.8686(3) 0.92748(25)
N2D N 0.49569 0.93073 0.43214
N3D N 0.47440 0.85226 0.39344
N5F N 0.79972 0.83379 0.48240
N6F N 0.82798 0.91557 0.46357
N9A N 0.34580 0.86865 0.63593
loop_
_geom_bond_atom_site_label_1
_geom_bond_atom_site_label_2
_geom_bond_site_symmetry_1
_geom_bond_site_symmetry_2
Tm1 N1 1_555 1_555
N1 N2 1_555 1_555
N2 N3 1_555 1_555
N3 C2 1_555 1_555
N4 Tm1 1_555 1_555
N5 N4 1_555 1_555
N6 N5 1_555 1_555
N7 Tm1 1_555 1_555
N8 Tm1 1_555 1_555
N9 N8 1_555 1_555
C1 N1 1_555 1_555
C2 C1 1_555 1_555
C3 N4 1_555 1_555
C4 N6 1_555 1_555
C5 N7 1_555 1_555
C6 N9 1_555 1_555
H1 C1 1_555 1_555
H2 C2 1_555 1_555
H3 C3 1_555 1_555
H4 C4 1_555 1_555
H5 C5 1_555 1_555
H6 C6 1_555 1_555
Tm1D N2 1_555 1_555
Tm1F N5 1_555 1_555
Tm1A N9 1_555 1_555
N2D Tm1 1_555 1_555
N3D Tm1 1_555 1_555
N5F Tm1 1_555 1_555
N6F Tm1 1_555 1_555
N9A Tm1 1_555 1_555
N3 Tm1D 1_555 1_555
N6 Tm1F 1_555 1_555
N7 N8 1_555 1_555
C3 C4 1_555 1_555
C5 C6 1_555 1_555
N2D N3D 1_555 1_555
N5F N6F 1_555 1_555

#END
