
#######################################################################
#
#                 Cambridge Crystallographic Data Centre
#                                CCDC 
#
#######################################################################
#
# If this CIF has been generated from an entry in the Cambridge 
# Structural Database, then it will include bibliographic, chemical, 
# crystal, experimental, refinement or atomic coordinate data resulting 
# from the CCDC's data processing and validation procedures.
#
#######################################################################

data_LAJZIG
_symmetry_cell_setting           monoclinic
_symmetry_space_group_name_H-M   'P 21/c'
_symmetry_Int_Tables_number      14
_space_group_name_Hall           '-P 2ybc'
loop_
_symmetry_equiv_pos_site_id
_symmetry_equiv_pos_as_xyz
1 x,y,z
2 -x,1/2+y,1/2-z
3 -x,-y,-z
4 x,1/2-y,1/2+z
_cell_length_a                   10.644(2)
_cell_length_b                   10.415(2)
_cell_length_c                   13.736(3)
_cell_angle_alpha                90
_cell_angle_beta                 91.07(3)
_cell_angle_gamma                90
_cell_volume                     1522.47
loop_
_atom_site_label
_atom_site_type_symbol
_atom_site_fract_x
_atom_site_fract_y
_atom_site_fract_z
Cd1 Cd 0.174256(11) 0.389254(11) 0.820524(9)
N1 N 0.37503(14) 0.31491(15) 0.86395(11)
N2 N 0.31145(14) 0.56836(15) 0.84951(11)
N3 N 0.04275(13) 0.53272(14) 0.75084(10)
N4 N -0.07539(13) 0.69982(14) 0.70446(10)
O1 O 0.22861(13) 0.40426(12) 0.64968(10)
O2 O 0.18355(12) 0.51258(13) 0.51432(9)
O3 O 0.05292(14) 0.69701(14) 0.46429(10)
O4 O -0.08037(14) 0.83377(14) 0.53034(10)
C1 C 0.4052(2) 0.1919(2) 0.87451(16)
C2 C 0.5286(2) 0.1511(2) 0.89179(19)
C3 C 0.6216(2) 0.2404(2) 0.89942(17)
C4 C 0.59381(19) 0.3710(2) 0.89053(14)
C5 C 0.68684(18) 0.4700(2) 0.89998(16)
C6 C 0.65619(19) 0.5940(2) 0.89147(16)
C7 C 0.52844(18) 0.63213(19) 0.87347(14)
C8 C 0.4923(2) 0.7611(2) 0.86518(16)
C9 C 0.3688(2) 0.79064(19) 0.85055(17)
C10 C 0.28055(19) 0.69138(18) 0.84322(15)
C11 C 0.43386(16) 0.53816(17) 0.86439(12)
C12 C 0.46725(17) 0.40417(17) 0.87258(13)
C13 C -0.04323(16) 0.61922(16) 0.77631(13)
C14 C 0.16602(15) 0.48589(16) 0.60484(12)
C15 C 0.06873(15) 0.55963(15) 0.65601(12)
C16 C -0.00431(15) 0.66354(16) 0.62741(12)
C17 C -0.01271(17) 0.73670(17) 0.53563(13)
H1 H 0.3417 0.1306 0.8702
H2 H 0.5469 0.0641 0.8980
H3 H 0.7042 0.2143 0.9106
H4 H 0.7702 0.4474 0.9123
H5 H 0.7185 0.6563 0.8973
H6 H 0.5521 0.8259 0.8696
H7 H 0.3434 0.8758 0.8455
H8 H 0.1964 0.7127 0.8335
H9 H -0.0774 0.6230 0.8381
H10 H 0.097(2) 0.6296(18) 0.479(2)
N4A N 0.07539(13) 0.19982(14) 0.79554(10)
O4A O 0.08037(14) 0.33377(14) 0.96966(10)
Cd1A Cd -0.174256(11) 0.889254(11) 0.679476(9)
loop_
_geom_bond_atom_site_label_1
_geom_bond_atom_site_label_2
_geom_bond_site_symmetry_1
_geom_bond_site_symmetry_2
Cd1 N1 1_555 1_555
N1 C1 1_555 1_555
N2 Cd1 1_555 1_555
N3 Cd1 1_555 1_555
N4 C13 1_555 1_555
O1 Cd1 1_555 1_555
O2 C14 1_555 1_555
O3 C17 1_555 1_555
O4 C17 1_555 1_555
C1 C2 1_555 1_555
C2 C3 1_555 1_555
C3 C4 1_555 1_555
C4 C5 1_555 1_555
C5 C6 1_555 1_555
C6 C7 1_555 1_555
C7 C8 1_555 1_555
C8 C9 1_555 1_555
C9 C10 1_555 1_555
C10 N2 1_555 1_555
C11 N2 1_555 1_555
C12 N1 1_555 1_555
C13 N3 1_555 1_555
C14 O1 1_555 1_555
C15 N3 1_555 1_555
C16 N4 1_555 1_555
C17 C16 1_555 1_555
H1 C1 1_555 1_555
H2 C2 1_555 1_555
H3 C3 1_555 1_555
H4 C5 1_555 1_555
H5 C6 1_555 1_555
H6 C8 1_555 1_555
H7 C9 1_555 1_555
H8 C10 1_555 1_555
H9 C13 1_555 1_555
H10 O3 1_555 1_555
N4A Cd1 1_555 1_555
O4A Cd1 1_555 1_555
Cd1A N4 1_555 1_555
O4 Cd1A 1_555 1_555
C4 C12 1_555 1_555
C7 C11 1_555 1_555
C11 C12 1_555 1_555
C14 C15 1_555 1_555
C15 C16 1_555 1_555

#END
