
#######################################################################
#
#                 Cambridge Crystallographic Data Centre
#                                CCDC 
#
#######################################################################
#
# If this CIF has been generated from an entry in the Cambridge 
# Structural Database, then it will include bibliographic, chemical, 
# crystal, experimental, refinement or atomic coordinate data resulting 
# from the CCDC's data processing and validation procedures.
#
#######################################################################

data_LAKBEF
_symmetry_cell_setting           triclinic
_symmetry_space_group_name_H-M   'P -1'
_symmetry_Int_Tables_number      2
_space_group_name_Hall           '-P 1'
loop_
_symmetry_equiv_pos_site_id
_symmetry_equiv_pos_as_xyz
1 x,y,z
2 -x,-y,-z
_cell_length_a                   6.9258(19)
_cell_length_b                   7.513(2)
_cell_length_c                   12.907(4)
_cell_angle_alpha                77.622(8)
_cell_angle_beta                 83.212(9)
_cell_angle_gamma                74.103(8)
_cell_volume                     629.632
loop_
_atom_site_label
_atom_site_type_symbol
_atom_site_fract_x
_atom_site_fract_y
_atom_site_fract_z
Na1 Na 0.25379(15) 0.48339(14) 0.50904(8)
N1 N 0.0779(4) 1.3039(3) 0.12749(18)
O1 O 0.2926(3) 0.5920(3) 0.30923(14)
O2 O 0.4893(3) 0.4801(3) 0.17703(15)
H1 H 0.514(5) 0.380(3) 0.225(2)
O3 O -0.0303(3) 0.9333(2) 0.32176(14)
O4 O 0.2506(3) 1.0075(3) 0.34047(14)
O5 O -0.0434(4) 1.3153(3) 0.2012(2)
O6 O 0.1387(4) 1.4371(3) 0.0782(2)
C1 C 0.2956(3) 0.7906(3) 0.13895(18)
C2 C 0.1982(3) 0.9588(3) 0.17311(18)
C3 C 0.1632(4) 1.1215(3) 0.09543(19)
C4 C 0.2083(4) 1.1223(4) -0.0114(2)
H2 H 0.1826 1.2346 -0.0608
C5 C 0.2923(4) 0.9531(4) -0.0430(2)
H3 H 0.3174 0.9492 -0.1150
C6 C 0.3394(4) 0.7897(4) 0.03115(19)
H4 H 0.4017 0.6766 0.0090
C7 C 0.3560(4) 0.6117(3) 0.21803(19)
C8 C 0.1348(4) 0.9665(3) 0.28874(18)
O7 O 0.4256(3) 0.7172(3) 0.50762(14)
H5 H 0.4130 0.7603 0.5645
H6 H 0.3683 0.8021 0.4579
O8 O 0.2153(3) 0.3517(3) 0.69776(16)
H7 H 0.1629 0.4382 0.7332
H8 H 0.1388 0.2786 0.7032
O9 O 0.0640(3) 0.2796(3) 0.47933(14)
H9 H 0.0531 0.2066 0.5387
H10 H 0.1080 0.2156 0.4306
O7A O 0.5744(3) 0.2828(3) 0.49238(14)
O9A O -0.0640(3) 0.7204(3) 0.52067(14)
Na1A Na 0.74621(15) 0.51661(14) 0.49096(8)
Na1A_2 Na -0.25379(15) 0.51661(14) 0.49096(8)
H5A H 0.5870 0.2397 0.4355
H6A H 0.6317 0.1979 0.5421
H9A H -0.0531 0.7934 0.4613
H10A H -0.1080 0.7844 0.5694
O10 O 0.4202(3) 0.8509(2) 0.69551(14)
H11 H 0.3026 0.9233 0.7003
H12 H 0.5090 0.9125 0.6866
loop_
_geom_bond_atom_site_label_1
_geom_bond_atom_site_label_2
_geom_bond_site_symmetry_1
_geom_bond_site_symmetry_2
Na1 O1 1_555 1_555
N1 O5 1_555 1_555
O1 C7 1_555 1_555
O2 H1 1_555 1_555
O3 C8 1_555 1_555
O4 C8 1_555 1_555
O6 N1 1_555 1_555
C1 C2 1_555 1_555
C2 C3 1_555 1_555
C3 N1 1_555 1_555
C4 C3 1_555 1_555
H2 C4 1_555 1_555
C5 C4 1_555 1_555
H3 C5 1_555 1_555
C6 C1 1_555 1_555
H4 C6 1_555 1_555
C7 O2 1_555 1_555
C8 C2 1_555 1_555
O7 Na1 1_555 1_555
H5 O7 1_555 1_555
H6 O7 1_555 1_555
O8 Na1 1_555 1_555
H7 O8 1_555 1_555
H8 O8 1_555 1_555
O9 Na1 1_555 1_555
H9 O9 1_555 1_555
H10 O9 1_555 1_555
O10 H11 1_555 1_555
H12 O10 1_555 1_555
O7A Na1 1_555 1_555
O9A Na1 1_555 1_555
Na1A O7 1_555 1_555
Na1A_2 O9 1_555 1_555
H5A O7A 1_555 1_555
H6A O7A 1_555 1_555
H9A O9A 1_555 1_555
H10A O9A 1_555 1_555
C1 C7 1_555 1_555
C5 C6 1_555 1_555
O7A Na1A 1_555 1_555
O9A Na1A_2 1_555 1_555

#END
