
#######################################################################
#
#                 Cambridge Crystallographic Data Centre
#                                CCDC 
#
#######################################################################
#
# If this CIF has been generated from an entry in the Cambridge 
# Structural Database, then it will include bibliographic, chemical, 
# crystal, experimental, refinement or atomic coordinate data resulting 
# from the CCDC's data processing and validation procedures.
#
#######################################################################

data_LAKBAB
_symmetry_cell_setting           triclinic
_symmetry_space_group_name_H-M   'P 1'
_symmetry_Int_Tables_number      1
_space_group_name_Hall           'P 1'
loop_
_symmetry_equiv_pos_site_id
_symmetry_equiv_pos_as_xyz
1 x,y,z
_cell_length_a                   7.3854(15)
_cell_length_b                   11.432(2)
_cell_length_c                   13.625(3)
_cell_angle_alpha                92.88(3)
_cell_angle_beta                 98.04(3)
_cell_angle_gamma                97.18(3)
_cell_volume                     1127.43
loop_
_atom_site_label
_atom_site_type_symbol
_atom_site_fract_x
_atom_site_fract_y
_atom_site_fract_z
Co1 Co 0.11535(3) 0.97581(2) 0.39631(2)
O1 O 0.3979(2) 0.99361(17) 0.42345(15)
H1 H 0.459(3) 0.9413(17) 0.445(2)
H2 H 0.467(3) 1.0608(15) 0.438(2)
O2 O 0.1090(2) 0.96065(17) 0.24105(13)
H3 H 0.209(2) 0.973(2) 0.2177(18)
H4 H 0.030(3) 0.999(2) 0.2136(17)
O3 O 0.1066(3) 0.98048(17) 0.55075(13)
H5 H 0.182(3) 1.013(2) 0.5971(16)
H6 H 0.004(2) 0.961(2) 0.5674(19)
O4 O -0.1666(2) 0.96495(17) 0.37080(14)
H7 H -0.219(3) 1.0241(16) 0.3568(18)
H8 H -0.234(3) 0.9186(18) 0.4003(17)
N1 N 0.1339(3) 1.16772(19) 0.39597(15)
N2 N 0.1049(3) 1.78624(18) 0.40060(16)
C1 C 0.0857(3) 1.2274(2) 0.47338(17)
H9 H 0.0525 1.1848 0.5277
C2 C 0.0820(3) 1.3488(2) 0.47793(17)
H10 H 0.0500 1.3875 0.5352
C3 C 0.1247(3) 1.4128(2) 0.39962(19)
C4 C 0.1745(3) 1.3513(2) 0.31810(17)
H11 H 0.2044 1.3917 0.2620
C5 C 0.1792(3) 1.2308(2) 0.32067(17)
H12 H 0.2167 1.1904 0.2658
C6 C 0.0608(3) 1.7161(2) 0.31642(17)
H13 H 0.0229 1.7509 0.2564
C7 C 0.0676(3) 1.5960(2) 0.31283(17)
H14 H 0.0392 1.5505 0.2510
C8 C 0.1163(3) 1.5417(2) 0.39990(19)
C9 C 0.1601(3) 1.6143(2) 0.48773(17)
H15 H 0.1933 1.5816 0.5494
C10 C 0.1546(3) 1.7336(2) 0.48393(18)
H16 H 0.1882 1.7819 0.5442
N2_2 N 0.1049(3) 0.78624(18) 0.40060(16)
Co1_2 Co 0.11535(3) 1.97581(2) 0.39631(2)
Co2 Co 0.09944(3) 0.24624(2) 0.89686(2)
O5 O 0.0986(2) 0.26484(17) 1.04917(13)
H17 H 0.046(3) 0.3251(15) 1.0573(18)
H18 H 0.026(3) 0.2099(16) 1.0708(18)
O6 O 0.0897(2) 0.23879(16) 0.73797(13)
H19 H -0.010(2) 0.211(2) 0.7058(18)
H20 H 0.175(2) 0.209(2) 0.7116(17)
O7 O -0.1833(2) 0.24510(16) 0.86961(13)
H21 H -0.260(3) 0.1832(16) 0.8665(19)
H22 H -0.217(3) 0.2946(17) 0.9091(17)
O8 O 0.3796(2) 0.25124(17) 0.91289(15)
H23 H 0.432(3) 0.1903(16) 0.9105(19)
H24 H 0.462(3) 0.3048(17) 0.9426(19)
N3 N 0.0777(3) 0.05534(19) 0.89784(15)
N4 N 0.1200(3) -0.56408(18) 0.89280(16)
C11 C 0.1404(3) 0.0035(2) 0.97955(17)
H25 H 0.1838 0.0525 1.0386
C12 C 0.1461(3) -0.1159(2) 0.98350(17)
H26 H 0.1885 -0.1474 1.0444
C13 C 0.0894(3) -0.1908(2) 0.89750(18)
C14 C 0.0235(3) -0.1373(2) 0.81224(17)
H27 H -0.0170 -0.1837 0.7515
C15 C 0.0172(3) -0.0173(2) 0.81602(16)
H28 H -0.0327 0.0161 0.7574
C16 C 0.0062(3) -0.5170(2) 0.82435(18)
H29 H -0.0692 -0.5690 0.7741
C17 C -0.0079(3) -0.3984(2) 0.82265(18)
H30 H -0.0904 -0.3702 0.7722
C18 C 0.1011(3) -0.3190(2) 0.89631(18)
C19 C 0.2195(3) -0.3674(2) 0.96650(17)
H31 H 0.2966 -0.3177 1.0177
C20 C 0.2253(3) -0.4876(2) 0.96214(17)
H32 H 0.3084 -0.5180 1.0109
N4_2 N 0.1200(3) 0.43592(18) 0.89280(16)
Co2_2 Co 0.09944(3) -0.75376(2) 0.89686(2)
O9 O -0.3130(2) 0.40289(15) 0.98348(12)
O10 O -0.0581(2) 0.44512(14) 1.09613(11)
O11 O -0.3963(2) 0.20937(14) 1.44306(11)
O12 O -0.3052(2) 0.16013(14) 1.29901(11)
C21 C -0.2195(3) 0.4565(2) 1.06107(16)
C22 C -0.3098(3) 0.5430(2) 1.11956(16)
C23 C -0.3096(3) 0.6581(2) 1.09072(17)
H33 H -0.2620 0.6798 1.0320
C24 C -0.3790(3) 0.7414(2) 1.14790(17)
H34 H -0.3762 0.8204 1.1290
C25 C -0.4519(3) 0.7094(2) 1.23195(18)
H35 H -0.5030 0.7658 1.2696
C26 C -0.4508(3) 0.5954(2) 1.26174(17)
H36 H -0.5006 0.5743 1.3200
C27 C -0.3765(3) 0.5106(2) 1.20658(16)
C28 C -0.3607(3) 0.3912(2) 1.23984(17)
H37 H -0.3464 0.3322 1.1909
C29 C -0.3646(3) 0.3578(2) 1.33186(17)
H38 H -0.3754 0.4158 1.3824
C30 C -0.3529(3) 0.2345(2) 1.35952(18)
O13 O 0.6124(2) 0.81865(14) 0.47060(11)
O14 O 0.7775(2) 0.90433(14) 0.61213(11)
O15 O 0.5341(2) 1.05666(14) 0.86043(11)
O16 O 0.6028(2) 0.97562(15) 1.00469(11)
C31 C 0.6721(3) 0.8197(2) 0.56137(16)
C32 C 0.6138(3) 0.71074(19) 0.61433(16)
C33 C 0.6242(3) 0.6010(2) 0.56746(18)
H39 H 0.6649 0.5976 0.5044
C34 C 0.5764(4) 0.4971(2) 0.61094(19)
H40 H 0.5887 0.4232 0.5791
C35 C 0.5103(4) 0.5014(2) 0.70143(18)
H41 H 0.4731 0.4304 0.7308
C36 C 0.4990(3) 0.6104(2) 0.74881(18)
H42 H 0.4535 0.6128 0.8106
C37 C 0.5530(3) 0.7168(2) 0.70757(16)
C38 C 0.5439(3) 0.8319(2) 0.76104(16)
H43 H 0.5263 0.8973 0.7221
C39 C 0.5583(3) 0.8504(2) 0.85903(16)
H44 H 0.5656 0.7842 0.8981
C40 C 0.5639(3) 0.9691(2) 0.91175(18)
O17 O 0.4297(2) 0.01084(19) 0.17400(13)
H45 H 0.508(3) 0.063(2) 0.2062(18)
H46 H 0.466(4) 0.002(3) 0.1179(15)
O18 O 0.3736(2) 0.11403(17) 0.68274(12)
H47 H 0.465(3) 0.138(2) 0.6559(17)
H48 H 0.420(3) 0.085(2) 0.7363(14)
O19 O -0.1237(2) 0.10145(15) 1.13868(12)
H49 H -0.209(3) 0.061(2) 1.0978(16)
H50 H -0.176(3) 0.131(2) 1.1820(16)
O20 O -0.2517(2) 0.14410(16) 0.62451(12)
H51 H -0.264(4) 0.0695(14) 0.6134(19)
H52 H -0.274(4) 0.173(2) 0.5717(14)
loop_
_geom_bond_atom_site_label_1
_geom_bond_atom_site_label_2
_geom_bond_site_symmetry_1
_geom_bond_site_symmetry_2
Co1 O1 1_555 1_555
O1 H1 1_555 1_555
H2 O1 1_555 1_555
O2 Co1 1_555 1_555
H3 O2 1_555 1_555
H4 O2 1_555 1_555
O3 Co1 1_555 1_555
H5 O3 1_555 1_555
H6 O3 1_555 1_555
O4 Co1 1_555 1_555
H7 O4 1_555 1_555
H8 O4 1_555 1_555
N1 Co1 1_555 1_555
N2 C6 1_555 1_555
C1 N1 1_555 1_555
H9 C1 1_555 1_555
C2 C1 1_555 1_555
H10 C2 1_555 1_555
C3 C2 1_555 1_555
C4 C3 1_555 1_555
H11 C4 1_555 1_555
C5 N1 1_555 1_555
H12 C5 1_555 1_555
C6 H13 1_555 1_555
C7 C6 1_555 1_555
H14 C7 1_555 1_555
C8 C3 1_555 1_555
C9 C8 1_555 1_555
H15 C9 1_555 1_555
C10 N2 1_555 1_555
H16 C10 1_555 1_555
Co2 O5 1_555 1_555
O5 H17 1_555 1_555
H18 O5 1_555 1_555
O6 Co2 1_555 1_555
H19 O6 1_555 1_555
H20 O6 1_555 1_555
O7 Co2 1_555 1_555
H21 O7 1_555 1_555
H22 O7 1_555 1_555
O8 Co2 1_555 1_555
H23 O8 1_555 1_555
H24 O8 1_555 1_555
N3 Co2 1_555 1_555
N4 C16 1_555 1_555
C11 N3 1_555 1_555
H25 C11 1_555 1_555
C12 C11 1_555 1_555
H26 C12 1_555 1_555
C13 C12 1_555 1_555
C14 C13 1_555 1_555
H27 C14 1_555 1_555
C15 N3 1_555 1_555
H28 C15 1_555 1_555
C16 H29 1_555 1_555
C17 C16 1_555 1_555
H30 C17 1_555 1_555
C18 C13 1_555 1_555
C19 C18 1_555 1_555
H31 C19 1_555 1_555
C20 N4 1_555 1_555
H32 C20 1_555 1_555
O9 C21 1_555 1_555
O10 C21 1_555 1_555
O11 C30 1_555 1_555
O12 C30 1_555 1_555
C21 C22 1_555 1_555
C22 C23 1_555 1_555
C23 H33 1_555 1_555
C24 C23 1_555 1_555
H34 C24 1_555 1_555
C25 C24 1_555 1_555
H35 C25 1_555 1_555
C26 C25 1_555 1_555
H36 C26 1_555 1_555
C27 C22 1_555 1_555
C28 C27 1_555 1_555
H37 C28 1_555 1_555
C29 C28 1_555 1_555
H38 C29 1_555 1_555
C30 C29 1_555 1_555
O13 C31 1_555 1_555
O14 C31 1_555 1_555
O15 C40 1_555 1_555
O16 C40 1_555 1_555
C31 C32 1_555 1_555
C32 C33 1_555 1_555
C33 H39 1_555 1_555
C34 C33 1_555 1_555
H40 C34 1_555 1_555
C35 C34 1_555 1_555
H41 C35 1_555 1_555
C36 C35 1_555 1_555
H42 C36 1_555 1_555
C37 C32 1_555 1_555
C38 C37 1_555 1_555
H43 C38 1_555 1_555
C39 C38 1_555 1_555
H44 C39 1_555 1_555
C40 C39 1_555 1_555
O17 H45 1_555 1_555
H46 O17 1_555 1_555
O18 H47 1_555 1_555
H48 O18 1_555 1_555
O19 H49 1_555 1_555
H50 O19 1_555 1_555
O20 H51 1_555 1_555
H52 O20 1_555 1_555
N2_2 Co1 1_555 1_555
Co1_2 N2 1_555 1_555
N4_2 Co2 1_555 1_555
Co2_2 N4 1_555 1_555
C4 C5 1_555 1_555
C7 C8 1_555 1_555
C9 C10 1_555 1_555
C14 C15 1_555 1_555
C17 C18 1_555 1_555
C19 C20 1_555 1_555
C26 C27 1_555 1_555
C36 C37 1_555 1_555

#END
