
#######################################################################
#
#                 Cambridge Crystallographic Data Centre
#                                CCDC 
#
#######################################################################
#
# If this CIF has been generated from an entry in the Cambridge 
# Structural Database, then it will include bibliographic, chemical, 
# crystal, experimental, refinement or atomic coordinate data resulting 
# from the CCDC's data processing and validation procedures.
#
#######################################################################

data_LAKFIN
_symmetry_cell_setting           orthorhombic
_symmetry_space_group_name_H-M   'P b c a'
_symmetry_Int_Tables_number      61
_space_group_name_Hall           '-P 2ac 2ab'
loop_
_symmetry_equiv_pos_site_id
_symmetry_equiv_pos_as_xyz
1 x,y,z
2 1/2-x,-y,1/2+z
3 -x,1/2+y,1/2-z
4 1/2+x,1/2-y,-z
5 -x,-y,-z
6 1/2+x,y,1/2-z
7 x,1/2-y,1/2+z
8 1/2-x,1/2+y,z
_cell_length_a                   27.787(3)
_cell_length_b                   13.7247(12)
_cell_length_c                   45.881(4)
_cell_angle_alpha                90
_cell_angle_beta                 90
_cell_angle_gamma                90
_cell_volume                     17497.6
loop_
_atom_site_label
_atom_site_type_symbol
_atom_site_fract_x
_atom_site_fract_y
_atom_site_fract_z
C1 C 0.2251(3) 1.0446(6) 0.23995(17)
H1 H 0.1940 1.0497 0.2315
C2 C 0.2289(3) 1.0098(5) 0.26832(16)
H2 H 0.2010 0.9923 0.2792
C3 C 0.2741(3) 1.0014(5) 0.28025(16)
C4 C 0.3144(3) 1.0240(6) 0.26339(18)
H3 H 0.3460 1.0155 0.2709
C5 C 0.3074(3) 1.0590(6) 0.23553(18)
H4 H 0.3348 1.0751 0.2241
C6 C 0.2801(3) 0.9730(5) 0.31145(16)
C7 C 0.2439(3) 0.9388(5) 0.35448(16)
C8 C 0.3258(3) 0.9401(5) 0.35120(16)
C9 C 0.2000(3) 0.9242(5) 0.37193(17)
C10 C 0.1549(3) 0.9356(5) 0.35903(16)
H5 H 0.1521 0.9540 0.3391
C11 C 0.1147(3) 0.9197(6) 0.37568(17)
H6 H 0.0841 0.9281 0.3668
C12 C 0.1596(3) 0.8828(6) 0.41603(18)
H7 H 0.1613 0.8638 0.4359
C13 C 0.2020(3) 0.8986(5) 0.40122(17)
H8 H 0.2320 0.8921 0.4109
C14 C 0.3727(3) 0.9293(5) 0.36494(17)
C15 C 0.3767(3) 0.9133(6) 0.39468(18)
H9 H 0.3488 0.9121 0.4066
C16 C 0.4219(3) 0.8990(6) 0.4067(2)
H10 H 0.4242 0.8893 0.4272
C17 C 0.4586(3) 0.9154(7) 0.3622(2)
H11 H 0.4870 0.9164 0.3508
C18 C 0.4150(3) 0.9317(6) 0.3486(2)
H12 H 0.4138 0.9444 0.3282
C19 C 0.3118(3) 1.1214(6) 0.13334(19)
H13 H 0.3114 1.1906 0.1334
C20 C 0.3340(4) 1.0732(6) 0.11024(19)
H14 H 0.3478 1.1089 0.0946
C21 C 0.3358(3) 0.9725(6) 0.11050(18)
C22 C 0.3153(4) 0.9227(6) 0.1335(2)
H15 H 0.3164 0.8536 0.1344
C23 C 0.2929(4) 0.9762(6) 0.1551(2)
H16 H 0.2781 0.9418 0.1707
C24 C 0.3594(3) 0.9205(6) 0.08614(17)
C25 C 0.3941(3) 0.9219(6) 0.04181(17)
C26 C 0.3932(3) 0.7834(6) 0.06822(18)
C27 C 0.4092(3) 0.9756(6) 0.01508(17)
C28 C 0.3987(4) 1.0743(6) 0.01234(19)
H17 H 0.3824 1.1085 0.0274
C29 C 0.4352(4) 0.9310(7) -0.0068(2)
H18 H 0.4443 0.8646 -0.0050
C30 C 0.4089(3) 0.6801(6) 0.0729(2)
C31 C 0.4277(3) 0.6269(7) 0.0499(2)
H19 H 0.4291 0.6541 0.0309
C32 C 0.4064(4) 0.6386(7) 0.1000(2)
H20 H 0.3932 0.6737 0.1160
C33 C 0.4477(3) 0.9825(6) -0.03098(19)
H21 H 0.4652 0.9501 -0.0459
C34 C 0.4128(4) 1.1210(6) -0.01304(18)
H22 H 0.4053 1.1881 -0.0152
C35 C 0.4444(3) 0.5332(7) 0.0551(2)
H23 H 0.4574 0.4965 0.0394
C36 C 0.4236(4) 0.5447(7) 0.1038(2)
H24 H 0.4218 0.5160 0.1226
I1 I 0.16456(2) 1.16050(5) 0.175201(15)
I2 I 0.30265(3) 1.30904(4) 0.193339(14)
I3 I -0.01406(2) 0.94920(5) 0.398935(14)
I4 I 0.05787(3) 0.67225(5) 0.433247(18)
I5 I 0.57398(3) 0.77541(6) 0.36858(3)
I6 I 0.51079(3) 0.77734(5) 0.45868(2)
N1 N 0.2634(3) 1.0712(5) 0.22402(14)
N2 N 0.2387(2) 0.9606(4) 0.32647(13)
N3 N 0.2866(2) 0.9275(4) 0.36810(14)
N4 N 0.3240(2) 0.9643(4) 0.32247(13)
N5 N 0.1160(2) 0.8930(4) 0.40373(14)
N6 N 0.4625(2) 0.8983(5) 0.39087(17)
N7 N 0.2910(3) 1.0734(5) 0.15545(15)
N8 N 0.3708(2) 0.9719(5) 0.06221(14)
N9 N 0.4062(3) 0.8277(5) 0.04316(15)
N10 N 0.3691(2) 0.8250(5) 0.09026(14)
N11 N 0.4364(3) 1.0766(5) -0.03478(15)
N12 N 0.4425(3) 0.4931(5) 0.08183(17)
Zn1 Zn 0.25446(4) 1.15171(7) 0.18651(2)
Zn2 Zn 0.05250(4) 0.85568(7) 0.42526(2)
Zn3 Zn 0.52748(4) 0.85846(7) 0.40961(3)
N11A N 0.0636(3) 0.9234(5) 0.46522(15)
N12B N 0.5575(3) 0.9931(5) 0.41817(17)
Zn2A Zn 0.44750(4) 1.14432(7) -0.07474(2)
Zn3B Zn 0.47252(4) 0.35846(7) 0.09039(3)
C37 C 0.0444(4) 0.9421(11) 0.3091(3)
H25 H 0.0236 0.9691 0.3234
C38 C 0.0623(5) 1.0070(13) 0.2887(3)
H26 H 0.0531 1.0729 0.2917
C39 C 0.0913(5) 0.9917(14) 0.2647(4)
H27 H 0.0981 1.0469 0.2529
C40 C 0.1112(6) 0.9049(18) 0.2563(4)
H28 H 0.1294 0.9088 0.2388
C41 C 0.1098(6) 0.8071(17) 0.2690(5)
H29 H 0.1276 0.7575 0.2594
C42 C 0.0848(6) 0.7805(15) 0.2938(4)
C43 C 0.0844(7) 0.6900(14) 0.3051(5)
H30 H 0.1020 0.6360 0.2978
C44 C 0.0525(7) 0.6879(12) 0.3304(4)
H31 H 0.0462 0.6337 0.3427
C45 C 0.0335(6) 0.7797(12) 0.3327(3)
H32 H 0.0104 0.7984 0.3469
C46 C 0.0528(5) 0.8432(11) 0.3113(3)
C47 C 0.0526(6) 0.5695(16) 0.2350(4)
H33 H 0.0451 0.6233 0.2472
C48 C 0.0692(5) 0.5943(15) 0.2078(5)
H34 H 0.0709 0.6617 0.2032
C49 C 0.0838(5) 0.5286(16) 0.1865(5)
H35 H 0.0937 0.5575 0.1687
C50 C 0.0862(6) 0.4291(17) 0.1870(5)
H36 H 0.0989 0.3999 0.1699
C51 C 0.0725(6) 0.3629(15) 0.2093(4)
H37 H 0.0767 0.2959 0.2049
C52 C 0.0555(6) 0.3811(16) 0.2344(4)
C53 C 0.0396(7) 0.3045(16) 0.2560(4)
H38 H 0.0424 0.2357 0.2543
C54 C 0.0202(7) 0.358(2) 0.2788(5)
H39 H 0.0059 0.3284 0.2954
C55 C 0.0234(7) 0.4619(18) 0.2752(4)
H40 H 0.0130 0.5101 0.2887
C56 C 0.0450(6) 0.4783(14) 0.2476(4)
C57 C 0.3495(9) 0.937(2) 0.4777(4)
H41 H 0.3578 0.9577 0.4977
H42 H 0.3725 0.9672 0.4639
C58 C 0.2983(9) 0.966(2) 0.4702(4)
H43 H 0.2964 0.9673 0.4487
H44 H 0.2946 1.0344 0.4768
C59 C 0.2529(9) 0.911(2) 0.4810(4)
H45 H 0.2465 0.9250 0.5018
H46 H 0.2242 0.9293 0.4694
C60 C 0.2653(9) 0.802(2) 0.4765(4)
H47 H 0.2381 0.7654 0.4852
H48 H 0.2634 0.7909 0.4552
C61 C 0.3080(9) 0.752(2) 0.4859(4)
H49 H 0.3090 0.6853 0.4774
H50 H 0.3086 0.7459 0.5074
C62 C 0.3518(9) 0.813(2) 0.4749(4)
H51 H 0.3571 0.7971 0.4542
H52 H 0.3807 0.7911 0.4857
C63 C 0.7326(13) 0.763(3) 0.4347(9)
H53 H 0.7358 0.6984 0.4252
H54 H 0.7621 0.7770 0.4461
C64 C 0.6879(14) 0.769(3) 0.4534(9)
H55 H 0.6930 0.7240 0.4701
H56 H 0.6613 0.7406 0.4418
C65 C 0.6691(15) 0.866(3) 0.4662(9)
H57 H 0.6334 0.8670 0.4660
H58 H 0.6802 0.8737 0.4866
C66 C 0.6894(15) 0.948(3) 0.4469(9)
H59 H 0.6599 0.9787 0.4392
H60 H 0.7022 0.9942 0.4614
C67 C 0.7216(14) 0.959(3) 0.4237(9)
H61 H 0.7544 0.9752 0.4305
H62 H 0.7105 1.0086 0.4096
C68 C 0.7196(14) 0.853(3) 0.4102(8)
H63 H 0.7428 0.8497 0.3938
H64 H 0.6870 0.8421 0.4021
C69 C 0.2317(4) 0.2149(6) 0.3229(2)
C70 C 0.2582(6) 0.2422(7) 0.2974(3)
H65 H 0.2923 0.2469 0.2978
C71 C 0.2325(6) 0.2619(7) 0.2717(2)
H66 H 0.2497 0.2783 0.2545
C72 C 0.1833(7) 0.2579(8) 0.2708(3)
H67 H 0.1669 0.2718 0.2531
C73 C 0.1577(6) 0.2340(7) 0.2952(3)
H68 H 0.1235 0.2326 0.2945
C74 C 0.1817(4) 0.2115(6) 0.3215(2)
C75 C 0.1546(4) 0.1889(6) 0.3484(2)
C76 C 0.1036(4) 0.1836(7) 0.3485(3)
H69 H 0.0864 0.1920 0.3308
C77 C 0.0783(4) 0.1661(7) 0.3743(3)
H70 H 0.0441 0.1638 0.3742
C78 C 0.1031(5) 0.1526(8) 0.3994(3)
H71 H 0.0856 0.1401 0.4168
C79 C 0.1525(4) 0.1561(7) 0.4009(2)
H72 H 0.1687 0.1478 0.4189
C80 C 0.1788(4) 0.1724(6) 0.3750(2)
C81 C 0.2311(4) 0.1722(6) 0.3753(2)
C82 C 0.2569(4) 0.1486(7) 0.4016(2)
H73 H 0.2397 0.1334 0.4190
C83 C 0.3061(4) 0.1481(7) 0.4016(3)
H74 H 0.3227 0.1340 0.4192
C84 C 0.3330(4) 0.1682(7) 0.3761(3)
H75 H 0.3671 0.1663 0.3764
C85 C 0.3087(4) 0.1905(7) 0.3511(3)
H76 H 0.3264 0.2052 0.3339
C86 C 0.2570(4) 0.1921(6) 0.3503(2)
loop_
_geom_bond_atom_site_label_1
_geom_bond_atom_site_label_2
_geom_bond_site_symmetry_1
_geom_bond_site_symmetry_2
C1 H1 1_555 1_555
C2 C1 1_555 1_555
H2 C2 1_555 1_555
C3 C2 1_555 1_555
C4 C3 1_555 1_555
H3 C4 1_555 1_555
C5 C4 1_555 1_555
H4 C5 1_555 1_555
C6 C3 1_555 1_555
C7 C9 1_555 1_555
C8 C14 1_555 1_555
C9 C10 1_555 1_555
C10 H5 1_555 1_555
C11 C10 1_555 1_555
H6 C11 1_555 1_555
C12 H7 1_555 1_555
C13 C9 1_555 1_555
H8 C13 1_555 1_555
C14 C15 1_555 1_555
C15 H9 1_555 1_555
C16 C15 1_555 1_555
H10 C16 1_555 1_555
C17 H11 1_555 1_555
C18 C14 1_555 1_555
H12 C18 1_555 1_555
C19 H13 1_555 1_555
C20 C19 1_555 1_555
H14 C20 1_555 1_555
C21 C20 1_555 1_555
C22 C21 1_555 1_555
H15 C22 1_555 1_555
C23 C22 1_555 1_555
H16 C23 1_555 1_555
C24 C21 1_555 1_555
C25 C27 1_555 1_555
C26 C30 1_555 1_555
C27 C28 1_555 1_555
C28 H17 1_555 1_555
C29 C27 1_555 1_555
H18 C29 1_555 1_555
C30 C31 1_555 1_555
C31 H19 1_555 1_555
C32 C30 1_555 1_555
H20 C32 1_555 1_555
C33 C29 1_555 1_555
H21 C33 1_555 1_555
C34 C28 1_555 1_555
H22 C34 1_555 1_555
C35 C31 1_555 1_555
H23 C35 1_555 1_555
C36 C32 1_555 1_555
H24 C36 1_555 1_555
I1 Zn1 1_555 1_555
I2 Zn1 1_555 1_555
I3 Zn2 1_555 1_555
I4 Zn2 1_555 1_555
I5 Zn3 1_555 1_555
I6 Zn3 1_555 1_555
N1 C1 1_555 1_555
N2 C6 1_555 1_555
N3 C7 1_555 1_555
N4 C6 1_555 1_555
N5 C11 1_555 1_555
N6 C16 1_555 1_555
N7 C19 1_555 1_555
N8 C24 1_555 1_555
N9 C25 1_555 1_555
N10 C24 1_555 1_555
N11 C33 1_555 1_555
N12 C35 1_555 1_555
Zn1 N1 1_555 1_555
Zn2 N5 1_555 1_555
Zn3 N6 1_555 1_555
C37 H25 1_555 1_555
C38 C37 1_555 1_555
H26 C38 1_555 1_555
C39 C38 1_555 1_555
H27 C39 1_555 1_555
C40 C39 1_555 1_555
H28 C40 1_555 1_555
C41 C40 1_555 1_555
H29 C41 1_555 1_555
C42 C41 1_555 1_555
C43 C42 1_555 1_555
H30 C43 1_555 1_555
C44 C43 1_555 1_555
H31 C44 1_555 1_555
C45 C44 1_555 1_555
H32 C45 1_555 1_555
C46 C37 1_555 1_555
C47 H33 1_555 1_555
C48 C47 1_555 1_555
H34 C48 1_555 1_555
C49 C48 1_555 1_555
H35 C49 1_555 1_555
C50 C49 1_555 1_555
H36 C50 1_555 1_555
C51 C50 1_555 1_555
H37 C51 1_555 1_555
C52 C51 1_555 1_555
C53 C52 1_555 1_555
H38 C53 1_555 1_555
C54 C53 1_555 1_555
H39 C54 1_555 1_555
C55 C54 1_555 1_555
H40 C55 1_555 1_555
C56 C47 1_555 1_555
C57 H41 1_555 1_555
H42 C57 1_555 1_555
C58 C57 1_555 1_555
H43 C58 1_555 1_555
H44 C58 1_555 1_555
C59 C58 1_555 1_555
H45 C59 1_555 1_555
H46 C59 1_555 1_555
C60 C59 1_555 1_555
H47 C60 1_555 1_555
H48 C60 1_555 1_555
C61 C60 1_555 1_555
H49 C61 1_555 1_555
H50 C61 1_555 1_555
C62 C57 1_555 1_555
H51 C62 1_555 1_555
H52 C62 1_555 1_555
C63 H53 1_555 1_555
H54 C63 1_555 1_555
C64 C63 1_555 1_555
H55 C64 1_555 1_555
H56 C64 1_555 1_555
C65 C64 1_555 1_555
H57 C65 1_555 1_555
H58 C65 1_555 1_555
C66 C65 1_555 1_555
H59 C66 1_555 1_555
H60 C66 1_555 1_555
C67 C66 1_555 1_555
H61 C67 1_555 1_555
H62 C67 1_555 1_555
C68 C63 1_555 1_555
H63 C68 1_555 1_555
H64 C68 1_555 1_555
C69 C70 1_555 1_555
C70 H65 1_555 1_555
C71 C70 1_555 1_555
H66 C71 1_555 1_555
C72 C71 1_555 1_555
H67 C72 1_555 1_555
C73 C72 1_555 1_555
H68 C73 1_555 1_555
C74 C69 1_555 1_555
C75 C74 1_555 1_555
C76 C75 1_555 1_555
H69 C76 1_555 1_555
C77 C76 1_555 1_555
H70 C77 1_555 1_555
C78 C77 1_555 1_555
H71 C78 1_555 1_555
C79 C78 1_555 1_555
H72 C79 1_555 1_555
C80 C75 1_555 1_555
C81 C80 1_555 1_555
C82 C81 1_555 1_555
H73 C82 1_555 1_555
C83 C82 1_555 1_555
H74 C83 1_555 1_555
C84 C83 1_555 1_555
H75 C84 1_555 1_555
C85 C84 1_555 1_555
H76 C85 1_555 1_555
C86 C69 1_555 1_555
N11A Zn2 1_555 1_555
N12B Zn3 1_555 1_555
Zn2A N11 1_555 1_555
Zn3B N12 1_555 1_555
C5 N1 1_555 1_555
C7 N2 1_555 1_555
C8 N3 1_555 1_555
C8 N4 1_555 1_555
C12 C13 1_555 1_555
C12 N5 1_555 1_555
C17 C18 1_555 1_555
C17 N6 1_555 1_555
C23 N7 1_555 1_555
C25 N8 1_555 1_555
C26 N9 1_555 1_555
C26 N10 1_555 1_555
C34 N11 1_555 1_555
C36 N12 1_555 1_555
N7 Zn1 1_555 1_555
C42 C46 1_555 1_555
C45 C46 1_555 1_555
C52 C56 1_555 1_555
C55 C56 1_555 1_555
C61 C62 1_555 1_555
C67 C68 1_555 1_555
C73 C74 1_555 1_555
C79 C80 1_555 1_555
C81 C86 1_555 1_555
C85 C86 1_555 1_555

#END
