
#######################################################################
#
#                 Cambridge Crystallographic Data Centre
#                                CCDC 
#
#######################################################################
#
# If this CIF has been generated from an entry in the Cambridge 
# Structural Database, then it will include bibliographic, chemical, 
# crystal, experimental, refinement or atomic coordinate data resulting 
# from the CCDC's data processing and validation procedures.
#
#######################################################################

data_LAKHOV
_symmetry_cell_setting           hexagonal
_symmetry_space_group_name_H-M   'P 62 2 2'
_symmetry_Int_Tables_number      180
_space_group_name_Hall           "P 62 2' (0,0,4)"
loop_
_symmetry_equiv_pos_site_id
_symmetry_equiv_pos_as_xyz
1 x,y,z
2 -y,x-y,2/3+z
3 -x+y,-x,1/3+z
4 -x,-y,z
5 y,-x+y,2/3+z
6 x-y,x,1/3+z
7 y,x,2/3-z
8 x-y,-y,-z
9 -x,-x+y,1/3-z
10 -y,-x,2/3-z
11 -x+y,y,-z
12 x,x-y,1/3-z
_cell_length_a                   19.4771(8)
_cell_length_b                   19.4771(8)
_cell_length_c                   28.2766(7)
_cell_angle_alpha                90
_cell_angle_beta                 90
_cell_angle_gamma                120
_cell_volume                     9289.8
loop_
_atom_site_label
_atom_site_type_symbol
_atom_site_fract_x
_atom_site_fract_y
_atom_site_fract_z
Cd1 Cd 0.5000 1.0000 0.0000
Cl1 Cl 0.5000 1.0000 -0.12543(8)
O1 O -0.3591(3) 0.3300(3) -0.05341(16)
O2 O 0.5000 1.0000 -0.0833(3)
O3 O 0.5452(11) 1.1043(6) -0.1197(4)
O5 O 0.5000 1.0000 -0.1629(7)
N1 N 0.3665(3) 0.9032(3) 0.00422(19)
C1 C 0.3185(4) 0.9080(5) 0.0353(3)
H1 H 0.3396 0.9508 0.0560
C2 C 0.2381(4) 0.8525(5) 0.0388(3)
H2 H 0.2068 0.8595 0.0610
C3 C 0.2045(4) 0.7868(4) 0.0094(2)
C4 C 0.2560(4) 0.7818(4) -0.0222(3)
H3 H 0.2371 0.7393 -0.0431
C5 C 0.3348(4) 0.8390(4) -0.0230(2)
H4 H 0.3680 0.8324 -0.0438
C6 C 0.1211(4) 0.7303(4) 0.0126(2)
H5 H 0.0933 0.7354 0.0378
C7 C 0.0802(4) 0.6706(4) -0.0180(2)
H6 H 0.1092 0.6652 -0.0423
C8 C -0.0050(4) 0.6132(4) -0.0173(2)
C9 C -0.0560(4) 0.6082(4) 0.0204(2)
H7 H -0.0347 0.6426 0.0460
C10 C -0.1354(4) 0.5541(4) 0.0200(2)
H8 H -0.1674 0.5535 0.0446
C11 C -0.1692(3) 0.4995(4) -0.01731(17)
C12 C -0.2517(3) 0.4426(3) -0.01918(19)
C13 C -0.2805(3) 0.3887(4) -0.0556(2)
C14 C -0.2306(4) 0.3929(4) -0.0925(2)
H9 H -0.2516 0.3565 -0.1172
C15 C -0.1530(4) 0.4479(4) -0.0932(2)
H10 H -0.1215 0.4498 -0.1185
C16 C -0.1190(3) 0.5035(4) -0.05531(19)
C17 C -0.0381(3) 0.5617(4) -0.0541(2)
H11 H -0.0060 0.5652 -0.0794
C18 C -0.4045(6) 0.3001(9) -0.0961(4)
H12 H -0.4523 0.2496 -0.0909
H13 H -0.3736 0.2945 -0.1211
C19 C -0.4210(17) 0.3578(18) -0.1056(12)
H14 H -0.4499 0.3461 -0.1348
H15 H -0.3725 0.4075 -0.1084
H16 H -0.4525 0.3609 -0.0806
Cd1_2 Cd -0.5000 1.0000 0.0000
Cd1_3 Cd 1.5000 1.0000 0.0000
Cl1G Cl 0.5000 1.0000 0.12543(8)
O1J O -0.3109(4) 0.3300(3) 0.05341(16)
O1C O 1.3591(3) 1.6700(3) -0.05341(16)
O1G O 1.3109(4) 1.6700(3) 0.05341(16)
O2G O 0.5000 1.0000 0.0833(3)
O3C O 0.4548(11) 0.8957(6) -0.1197(4)
O3G O 0.4409(13) 0.8957(6) 0.1197(4)
O3J O 0.5591(13) 1.1043(6) 0.1197(4)
O5G O 0.5000 1.0000 0.1629(7)
N1J N -0.4633(4) 0.9032(3) -0.00422(19)
N1C N 0.6335(3) 1.0968(3) 0.00422(19)
N1G N 1.4633(4) 1.0968(3) -0.00422(19)
N1G_2 N 0.4633(4) 1.0968(3) -0.00422(19)
N1J_2 N 0.5367(4) 0.9032(3) -0.00422(19)
C1J C -0.4105(6) 0.9080(5) -0.0353(3)
C1C C 0.6815(4) 1.0920(5) 0.0353(3)
C1G C 1.4105(6) 1.0920(5) -0.0353(3)
H1J H -0.3888 0.9508 -0.0560
H1C H 0.6604 1.0492 0.0560
H1G H 1.3888 1.0492 -0.0560
C2J C -0.3856(6) 0.8525(5) -0.0388(3)
C2C C 0.7619(4) 1.1475(5) 0.0388(3)
C2G C 1.3856(6) 1.1475(5) -0.0388(3)
H2J H -0.3473 0.8595 -0.0610
H2C H 0.7932 1.1405 0.0610
H2G H 1.3473 1.1405 -0.0610
C3J C -0.4177(6) 0.7868(4) -0.0094(2)
C3C C 0.7955(4) 1.2132(4) 0.0094(2)
C3G C 1.4177(6) 1.2132(4) -0.0094(2)
C4J C -0.4742(6) 0.7818(4) 0.0222(3)
C4C C 0.7440(4) 1.2182(4) -0.0222(3)
C4G C 1.4742(6) 1.2182(4) 0.0222(3)
H3J H -0.4978 0.7393 0.0431
H3C H 0.7629 1.2607 -0.0431
H3G H 1.4978 1.2607 0.0431
C5J C -0.4958(6) 0.8390(4) 0.0230(2)
C5C C 0.6652(4) 1.1610(4) -0.0230(2)
C5G C 1.4958(6) 1.1610(4) 0.0230(2)
H4J H -0.5356 0.8324 0.0438
H4C H 0.6320 1.1676 -0.0438
H4G H 1.5356 1.1676 0.0438
C6J C -0.3908(6) 0.7303(4) -0.0126(2)
C6C C 0.8789(4) 1.2697(4) 0.0126(2)
C6G C 1.3908(6) 1.2697(4) -0.0126(2)
H5J H -0.3579 0.7354 -0.0378
H5C H 0.9067 1.2646 0.0378
H5G H 1.3579 1.2646 -0.0378
C7J C -0.4096(6) 0.6706(4) 0.0180(2)
C7C C 0.9198(4) 1.3294(4) -0.0180(2)
C7G C 1.4096(6) 1.3294(4) 0.0180(2)
H6J H -0.4440 0.6652 0.0423
H6C H 0.8908 1.3348 -0.0423
H6G H 1.4440 1.3348 0.0423
C8J C -0.3818(6) 0.6132(4) 0.0173(2)
C8C C 1.0050(4) 1.3868(4) -0.0173(2)
C8G C 1.3818(6) 1.3868(4) 0.0173(2)
C9J C -0.3358(6) 0.6082(4) -0.0204(2)
C9C C 1.0560(4) 1.3918(4) 0.0204(2)
C9G C 1.3358(6) 1.3918(4) -0.0204(2)
H7J H -0.3227 0.6426 -0.0460
H7C H 1.0347 1.3574 0.0460
H7G H 1.3227 1.3574 -0.0460
C10J C -0.3105(6) 0.5541(4) -0.0200(2)
C10C C 1.1354(4) 1.4459(4) 0.0200(2)
C10G C 1.3105(6) 1.4459(4) -0.0200(2)
H8J H -0.2791 0.5535 -0.0446
H8C H 1.1674 1.4465 0.0446
H8G H 1.2791 1.4465 -0.0446
C11J C -0.3313(5) 0.4995(4) 0.01731(17)
C11C C 1.1692(3) 1.5005(4) -0.01731(17)
C11G C 1.3313(5) 1.5005(4) 0.01731(17)
C12J C -0.3057(4) 0.4426(3) 0.01918(19)
C12C C 1.2517(3) 1.5574(3) -0.01918(19)
C12G C 1.3057(4) 1.5574(3) 0.01918(19)
C13J C -0.3308(5) 0.3887(4) 0.0556(2)
C13C C 1.2805(3) 1.6113(4) -0.0556(2)
C13G C 1.3308(5) 1.6113(4) 0.0556(2)
C14J C -0.3765(6) 0.3929(4) 0.0925(2)
C14C C 1.2306(4) 1.6071(4) -0.0925(2)
C14G C 1.3765(6) 1.6071(4) 0.0925(2)
H9J H -0.3919 0.3565 0.1172
H9C H 1.2516 1.6435 -0.1172
H9G H 1.3919 1.6435 0.1172
C15J C -0.3991(6) 0.4479(4) 0.0932(2)
C15C C 1.1530(4) 1.5521(4) -0.0932(2)
C15G C 1.3991(6) 1.5521(4) 0.0932(2)
H10J H -0.4287 0.4498 0.1185
H10C H 1.1215 1.5502 -0.1185
H10G H 1.4287 1.5502 0.1185
C16J C -0.3775(5) 0.5035(4) 0.05531(19)
C16C C 1.1190(3) 1.4965(4) -0.05531(19)
C16G C 1.3775(5) 1.4965(4) 0.05531(19)
C17J C -0.4002(5) 0.5617(4) 0.0541(2)
C17C C 1.0381(3) 1.4383(4) -0.0541(2)
C17G C 1.4002(5) 1.4383(4) 0.0541(2)
H11J H -0.4288 0.5652 0.0794
H11C H 1.0060 1.4348 -0.0794
H11G H 1.4288 1.4348 0.0794
C18J C -0.2954(11) 0.3001(9) 0.0961(4)
C18C C 1.4045(6) 1.6999(9) -0.0961(4)
C18G C 1.2954(11) 1.6999(9) 0.0961(4)
H12J H -0.2981 0.2496 0.0909
H12C H 1.4523 1.7504 -0.0909
H12G H 1.2981 1.7504 0.0909
H13J H -0.3319 0.2945 0.1211
H13C H 1.3736 1.7055 -0.1211
H13G H 1.3319 1.7055 0.1211
C19J C -0.2212(25) 0.3578(18) 0.1056(12)
C19C C 1.4210(17) 1.6422(18) -0.1056(12)
C19G C 1.2212(25) 1.6422(18) 0.1056(12)
H14J H -0.2040 0.3461 0.1348
H14C H 1.4499 1.6539 -0.1348
H14G H 1.2040 1.6539 0.1348
H15J H -0.2200 0.4075 0.1084
H15C H 1.3725 1.5925 -0.1084
H15G H 1.2200 1.5925 0.1084
H16J H -0.1866 0.3609 0.0806
H16C H 1.4525 1.6391 -0.0806
H16G H 1.1866 1.6391 0.0806
C20 C -0.693(2) 0.2151(19) -0.1485(9)
C21 C -0.624(2) 0.2426(18) -0.1739(11)
C22 C -0.6055(13) 0.1849(16) -0.1884(7)
C23 C -0.6396(15) 0.1230(15) -0.1795(7)
C24 C -0.711(2) 0.0868(16) -0.1567(10)
C25 C -0.7493(15) 0.1390(17) -0.1504(9)
C32 C -1.0110(18) 0.0232(15) -0.1273(9)
C33 C -1.0345(14) 0.0345(14) -0.1667
C32C C -0.9890(18) -0.0232(15) -0.1273(9)
C32F C -0.9768(15) -0.0110(18) -0.2060(9)
C32I C -1.0232(15) 0.0110(18) -0.2060(9)
C33C C -0.9655(14) -0.0345(14) -0.1667
C34 C -0.530(3) 0.454(3) -0.1467(15)
C35 C -0.5000 0.5000 -0.123(2)
C34F C -0.546(3) 0.470(3) -0.1866(15)
C34I C -0.454(3) 0.530(3) -0.1866(15)
C34C C -0.470(3) 0.546(3) -0.1467(15)
C35F C -0.5000 0.5000 -0.210(2)
O6 O 0.023(4) 0.851(4) -0.012(2)
O4? O 0.5598(10) 1.0037(10) -0.1528(6)
C26? C -0.2162(10) 0.2162(10) -0.1667
C27? C -0.2497(18) 0.131(2) -0.1833(11)
C28? C -0.204(3) 0.124(3) -0.2101(15)
C29? C -0.2601(17) 0.1683(17) -0.1649(11)
C30? C -0.270(4) 0.096(4) -0.134(2)
C31? C -0.178(4) 0.135(4) -0.120(2)
loop_
_geom_bond_atom_site_label_1
_geom_bond_atom_site_label_2
_geom_bond_site_symmetry_1
_geom_bond_site_symmetry_2
Cd1 O2 1_555 1_555
Cl1 O2 1_555 1_555
O1 C13 1_555 1_555
O3 Cl1 1_555 1_555
O5 Cl1 1_555 1_555
N1 Cd1 1_555 1_555
C1 N1 1_555 1_555
H1 C1 1_555 1_555
C2 C1 1_555 1_555
H2 C2 1_555 1_555
C3 C2 1_555 1_555
C4 C3 1_555 1_555
H3 C4 1_555 1_555
C5 N1 1_555 1_555
H4 C5 1_555 1_555
C6 C3 1_555 1_555
H5 C6 1_555 1_555
C7 C6 1_555 1_555
H6 C7 1_555 1_555
C8 C7 1_555 1_555
C9 C8 1_555 1_555
H7 C9 1_555 1_555
C10 C9 1_555 1_555
H8 C10 1_555 1_555
C11 C10 1_555 1_555
C12 C11 1_555 1_555
C13 C12 1_555 1_555
C14 C13 1_555 1_555
H9 C14 1_555 1_555
C15 C14 1_555 1_555
H10 C15 1_555 1_555
C16 C11 1_555 1_555
C17 C8 1_555 1_555
H11 C17 1_555 1_555
C18 O1 1_555 1_555
H12 C18 1_555 1_555
H13 C18 1_555 1_555
C19 C18 1_555 1_555
H14 C19 1_555 1_555
H15 C19 1_555 1_555
H16 C19 1_555 1_555
C20 C21 1_555 1_555
C21 C22 1_555 1_555
C22 C23 1_555 1_555
C23 C24 1_555 1_555
C24 C25 1_555 1_555
C25 C20 1_555 1_555
C32 C33 1_555 1_555
C33 C32I 1_555 1_555
C34 C35 1_555 1_555
C35 C34C 1_555 1_555
Cd1_2 N1J 1_555 1_555
Cd1_3 N1G 1_555 1_555
Cl1G O2G 1_555 1_555
O1J C13J 1_555 1_555
O1C C13C 1_555 1_555
O1G C13G 1_555 1_555
O2G Cd1 1_555 1_555
O3C Cl1 1_555 1_555
O3G Cl1G 1_555 1_555
O3J Cl1G 1_555 1_555
O5G Cl1G 1_555 1_555
N1J C1J 1_555 1_555
N1C Cd1 1_555 1_555
N1G C1G 1_555 1_555
N1G_2 Cd1 1_555 1_555
N1J_2 Cd1 1_555 1_555
C1J H1J 1_555 1_555
C1C N1C 1_555 1_555
C1G H1G 1_555 1_555
H1C C1C 1_555 1_555
C2J C1J 1_555 1_555
C2C C1C 1_555 1_555
C2G C1G 1_555 1_555
H2J C2J 1_555 1_555
H2C C2C 1_555 1_555
H2G C2G 1_555 1_555
C3J C2J 1_555 1_555
C3C C2C 1_555 1_555
C3G C2G 1_555 1_555
C4J C3J 1_555 1_555
C4C C3C 1_555 1_555
C4G C3G 1_555 1_555
H3J C4J 1_555 1_555
H3C C4C 1_555 1_555
H3G C4G 1_555 1_555
C5J N1J 1_555 1_555
C5C N1C 1_555 1_555
C5G N1G 1_555 1_555
H4J C5J 1_555 1_555
H4C C5C 1_555 1_555
H4G C5G 1_555 1_555
C6J C3J 1_555 1_555
C6C C3C 1_555 1_555
C6G C3G 1_555 1_555
H5J C6J 1_555 1_555
H5C C6C 1_555 1_555
H5G C6G 1_555 1_555
C7J C6J 1_555 1_555
C7C C6C 1_555 1_555
C7G C6G 1_555 1_555
H6J C7J 1_555 1_555
H6C C7C 1_555 1_555
H6G C7G 1_555 1_555
C8J C7J 1_555 1_555
C8C C7C 1_555 1_555
C8G C7G 1_555 1_555
C9J C8J 1_555 1_555
C9C C8C 1_555 1_555
C9G C8G 1_555 1_555
H7J C9J 1_555 1_555
H7C C9C 1_555 1_555
H7G C9G 1_555 1_555
C10J C9J 1_555 1_555
C10C C9C 1_555 1_555
C10G C9G 1_555 1_555
H8J C10J 1_555 1_555
H8C C10C 1_555 1_555
H8G C10G 1_555 1_555
C11J C10J 1_555 1_555
C11C C10C 1_555 1_555
C11G C10G 1_555 1_555
C12J C12 1_555 1_555
C12C C11C 1_555 1_555
C12G C11G 1_555 1_555
C13J C12J 1_555 1_555
C13C C12C 1_555 1_555
C13G C12G 1_555 1_555
C14J C13J 1_555 1_555
C14C C13C 1_555 1_555
C14G C13G 1_555 1_555
H9J C14J 1_555 1_555
H9C C14C 1_555 1_555
H9G C14G 1_555 1_555
C15J C14J 1_555 1_555
C15C C14C 1_555 1_555
C15G C14G 1_555 1_555
H10J C15J 1_555 1_555
H10C C15C 1_555 1_555
H10G C15G 1_555 1_555
C16J C11J 1_555 1_555
C16C C11C 1_555 1_555
C16G C11G 1_555 1_555
C17J C8J 1_555 1_555
C17C C8C 1_555 1_555
C17G C8G 1_555 1_555
H11J C17J 1_555 1_555
H11C C17C 1_555 1_555
H11G C17G 1_555 1_555
C18J O1J 1_555 1_555
C18C O1C 1_555 1_555
C18G O1G 1_555 1_555
H12J C18J 1_555 1_555
H12C C18C 1_555 1_555
H12G C18G 1_555 1_555
H13J C18J 1_555 1_555
H13C C18C 1_555 1_555
H13G C18G 1_555 1_555
C19J C18J 1_555 1_555
C19C C18C 1_555 1_555
C19G C18G 1_555 1_555
H14J C19J 1_555 1_555
H14C C19C 1_555 1_555
H14G C19G 1_555 1_555
H15J C19J 1_555 1_555
H15C C19C 1_555 1_555
H15G C19G 1_555 1_555
H16J C19J 1_555 1_555
H16C C19C 1_555 1_555
H16G C19G 1_555 1_555
C32C C32 1_555 1_555
C32F C32I 1_555 1_555
C33C C32C 1_555 1_555
C34F C34 1_555 1_555
C34I C34C 1_555 1_555
C35F C34F 1_555 1_555
C4 C5 1_555 1_555
C15 C16 1_555 1_555
C16 C17 1_555 1_555
C4J C5J 1_555 1_555
C4C C5C 1_555 1_555
C4G C5G 1_555 1_555
C11J C12J 1_555 1_555
C12C C12G 1_555 1_555
C15J C16J 1_555 1_555
C15C C16C 1_555 1_555
C15G C16G 1_555 1_555
C16J C17J 1_555 1_555
C16C C17C 1_555 1_555
C16G C17G 1_555 1_555
C32F C33C 1_555 1_555
C34I C35F 1_555 1_555

#END
