
#######################################################################
#
#                 Cambridge Crystallographic Data Centre
#                                CCDC 
#
#######################################################################
#
# If this CIF has been generated from an entry in the Cambridge 
# Structural Database, then it will include bibliographic, chemical, 
# crystal, experimental, refinement or atomic coordinate data resulting 
# from the CCDC's data processing and validation procedures.
#
#######################################################################

data_LAKHAH
_symmetry_cell_setting           hexagonal
_symmetry_space_group_name_H-M   'P 62 2 2'
_symmetry_Int_Tables_number      180
_space_group_name_Hall           "P 62 2' (0,0,4)"
loop_
_symmetry_equiv_pos_site_id
_symmetry_equiv_pos_as_xyz
1 x,y,z
2 -y,x-y,2/3+z
3 -x+y,-x,1/3+z
4 -x,-y,z
5 y,-x+y,2/3+z
6 x-y,x,1/3+z
7 y,x,2/3-z
8 x-y,-y,-z
9 -x,-x+y,1/3-z
10 -y,-x,2/3-z
11 -x+y,y,-z
12 x,x-y,1/3-z
_cell_length_a                   19.2540(12)
_cell_length_b                   19.2540(12)
_cell_length_c                   28.326(3)
_cell_angle_alpha                90
_cell_angle_beta                 90
_cell_angle_gamma                120
_cell_volume                     9094.06
loop_
_atom_site_label
_atom_site_type_symbol
_atom_site_fract_x
_atom_site_fract_y
_atom_site_fract_z
Cd1 Cd 0.5000 1.0000 0.0000
Cl1 Cl 0.5000 1.0000 -0.12461(17)
O1 O -0.3668(3) 0.3206(3) -0.0531(2)
O2 O 0.5000 1.0000 -0.0833(4)
O3 O 0.5294(10) 1.0995(7) -0.1173(5)
O5 O 0.5000 1.0000 -0.1638(10)
N1 N 0.3660(4) 0.9039(4) 0.0035(3)
C1 C 0.3156(5) 0.9119(6) 0.0334(4)
H1 H 0.3361 0.9560 0.0534
C2 C 0.2342(5) 0.8563(6) 0.0349(3)
H2 H 0.2014 0.8642 0.0556
C3 C 0.2010(5) 0.7892(5) 0.0060(4)
C4 C 0.2556(5) 0.7819(5) -0.0237(4)
H3 H 0.2374 0.7378 -0.0436
C5 C 0.3350(5) 0.8388(4) -0.0234(3)
H4 H 0.3694 0.8316 -0.0432
C6 C 0.1151(6) 0.7310(5) 0.0082(3)
H5 H 0.0856 0.7367 0.0324
C7 C 0.0761(6) 0.6704(5) -0.0220(4)
H6 H 0.1063 0.6660 -0.0462
C8 C -0.0114(5) 0.6087(5) -0.0210(4)
C9 C -0.0586(5) 0.6027(5) 0.0185(4)
H7 H -0.0353 0.6352 0.0447
C10 C -0.1390(5) 0.5485(5) 0.0179(3)
H8 H -0.1712 0.5488 0.0423
C11 C -0.1740(5) 0.4923(6) -0.0191(3)
C12 C -0.2567(4) 0.4333(5) -0.0201(3)
C13 C -0.2874(4) 0.3800(5) -0.0570(3)
C14 C -0.2392(5) 0.3850(5) -0.0954(3)
H9 H -0.2611 0.3494 -0.1205
C15 C -0.1605(5) 0.4419(5) -0.0958(3)
H10 H -0.1291 0.4449 -0.1215
C16 C -0.1250(5) 0.4969(6) -0.0582(3)
C17 C -0.0433(5) 0.5584(5) -0.0580(3)
H11 H -0.0111 0.5641 -0.0839
C18 C -0.4142(6) 0.2945(8) -0.0944(4)
H12 H -0.4611 0.2424 -0.0891
H13 H -0.3835 0.2897 -0.1201
C19 C -0.4381(17) 0.3520(17) -0.1064(9)
H14 H -0.4666 0.3373 -0.1359
H15 H -0.3915 0.4042 -0.1093
H16 H -0.4724 0.3529 -0.0821
Cd1_2 Cd -0.5000 1.0000 0.0000
Cd1_3 Cd 1.5000 1.0000 0.0000
Cl1G Cl 0.5000 1.0000 0.12461(17)
O1J O -0.3126(4) 0.3206(3) 0.0531(2)
O1C O 1.3668(3) 1.6794(3) -0.0531(2)
O1G O 1.3126(4) 1.6794(3) 0.0531(2)
O2G O 0.5000 1.0000 0.0833(4)
O3C O 0.4706(10) 0.9005(7) -0.1173(5)
O3G O 0.4299(12) 0.9005(7) 0.1173(5)
O3J O 0.5701(12) 1.0995(7) 0.1173(5)
O5G O 0.5000 1.0000 0.1638(10)
N1J N -0.4621(6) 0.9039(4) -0.0035(3)
N1C N 0.6340(4) 1.0961(4) 0.0035(3)
N1G N 1.4621(6) 1.0961(4) -0.0035(3)
N1G_2 N 0.4621(6) 1.0961(4) -0.0035(3)
N1J_2 N 0.5379(6) 0.9039(4) -0.0035(3)
C1J C -0.4037(8) 0.9119(6) -0.0334(4)
C1C C 0.6844(5) 1.0881(6) 0.0334(4)
C1G C 1.4037(8) 1.0881(6) -0.0334(4)
H1J H -0.3801 0.9560 -0.0534
H1C H 0.6639 1.0440 0.0534
H1G H 1.3801 1.0440 -0.0534
C2J C -0.3779(8) 0.8563(6) -0.0349(3)
C2C C 0.7658(5) 1.1437(6) 0.0349(3)
C2G C 1.3779(8) 1.1437(6) -0.0349(3)
H2J H -0.3372 0.8642 -0.0556
H2C H 0.7986 1.1358 0.0556
H2G H 1.3372 1.1358 -0.0556
C3J C -0.4118(7) 0.7892(5) -0.0060(4)
C3C C 0.7990(5) 1.2108(5) 0.0060(4)
C3G C 1.4118(7) 1.2108(5) -0.0060(4)
C4J C -0.4737(7) 0.7819(5) 0.0237(4)
C4C C 0.7444(5) 1.2181(5) -0.0237(4)
C4G C 1.4737(7) 1.2181(5) 0.0237(4)
H3J H -0.4996 0.7378 0.0436
H3C H 0.7626 1.2622 -0.0436
H3G H 1.4996 1.2622 0.0436
C5J C -0.4962(6) 0.8388(4) 0.0234(3)
C5C C 0.6650(5) 1.1612(4) -0.0234(3)
C5G C 1.4962(6) 1.1612(4) 0.0234(3)
H4J H -0.5378 0.8316 0.0432
H4C H 0.6306 1.1684 -0.0432
H4G H 1.5378 1.1684 0.0432
C6J C -0.3841(8) 0.7310(5) -0.0082(3)
C6C C 0.8849(6) 1.2690(5) 0.0082(3)
C6G C 1.3841(8) 1.2690(5) -0.0082(3)
H5J H -0.3489 0.7367 -0.0324
H5C H 0.9144 1.2633 0.0324
H5G H 1.3489 1.2633 -0.0324
C7J C -0.4057(8) 0.6704(5) 0.0220(4)
C7C C 0.9239(6) 1.3296(5) -0.0220(4)
C7G C 1.4057(8) 1.3296(5) 0.0220(4)
H6J H -0.4403 0.6660 0.0462
H6C H 0.8937 1.3340 -0.0462
H6G H 1.4403 1.3340 0.0462
C8J C -0.3799(7) 0.6087(5) 0.0210(4)
C8C C 1.0114(5) 1.3913(5) -0.0210(4)
C8G C 1.3799(7) 1.3913(5) 0.0210(4)
C9J C -0.3387(7) 0.6027(5) -0.0185(4)
C9C C 1.0586(5) 1.3973(5) 0.0185(4)
C9G C 1.3387(7) 1.3973(5) -0.0185(4)
H7J H -0.3295 0.6352 -0.0447
H7C H 1.0353 1.3648 0.0447
H7G H 1.3295 1.3648 -0.0447
C10J C -0.3125(7) 0.5485(5) -0.0179(3)
C10C C 1.1390(5) 1.4515(5) 0.0179(3)
C10G C 1.3125(7) 1.4515(5) -0.0179(3)
H8J H -0.2800 0.5488 -0.0423
H8C H 1.1712 1.4512 0.0423
H8G H 1.2800 1.4512 -0.0423
C11J C -0.3337(8) 0.4923(6) 0.0191(3)
C11C C 1.1740(5) 1.5077(6) -0.0191(3)
C11G C 1.3337(8) 1.5077(6) 0.0191(3)
C12J C -0.3100(6) 0.4333(5) 0.0201(3)
C12C C 1.2567(4) 1.5667(5) -0.0201(3)
C12G C 1.3100(6) 1.5667(5) 0.0201(3)
C13J C -0.3326(6) 0.3800(5) 0.0570(3)
C13C C 1.2874(4) 1.6200(5) -0.0570(3)
C13G C 1.3326(6) 1.6200(5) 0.0570(3)
C14J C -0.3758(7) 0.3850(5) 0.0954(3)
C14C C 1.2392(5) 1.6150(5) -0.0954(3)
C14G C 1.3758(7) 1.6150(5) 0.0954(3)
H9J H -0.3895 0.3494 0.1205
H9C H 1.2611 1.6506 -0.1205
H9G H 1.3895 1.6506 0.1205
C15J C -0.3976(7) 0.4419(5) 0.0958(3)
C15C C 1.1605(5) 1.5581(5) -0.0958(3)
C15G C 1.3976(7) 1.5581(5) 0.0958(3)
H10J H -0.4260 0.4449 0.1215
H10C H 1.1291 1.5551 -0.1215
H10G H 1.4260 1.5551 0.1215
C16J C -0.3781(8) 0.4969(6) 0.0582(3)
C16C C 1.1250(5) 1.5031(6) -0.0582(3)
C16G C 1.3781(8) 1.5031(6) 0.0582(3)
C17J C -0.3983(7) 0.5584(5) 0.0580(3)
C17C C 1.0433(5) 1.4416(5) -0.0580(3)
C17G C 1.3983(7) 1.4416(5) 0.0580(3)
H11J H -0.4248 0.5641 0.0839
H11C H 1.0111 1.4359 -0.0839
H11G H 1.4248 1.4359 0.0839
C18J C -0.2913(10) 0.2945(8) 0.0944(4)
C18C C 1.4142(6) 1.7055(8) -0.0944(4)
C18G C 1.2913(10) 1.7055(8) 0.0944(4)
H12J H -0.2965 0.2424 0.0891
H12C H 1.4611 1.7576 -0.0891
H12G H 1.2965 1.7576 0.0891
H13J H -0.3268 0.2897 0.1201
H13C H 1.3835 1.7103 -0.1201
H13G H 1.3268 1.7103 0.1201
C19J C -0.2099(24) 0.3520(17) 0.1064(9)
C19C C 1.4381(17) 1.6480(17) -0.1064(9)
C19G C 1.2099(24) 1.6480(17) 0.1064(9)
H14J H -0.1961 0.3373 0.1359
H14C H 1.4666 1.6627 -0.1359
H14G H 1.1961 1.6627 0.1359
H15J H -0.2043 0.4042 0.1093
H15C H 1.3915 1.5958 -0.1093
H15G H 1.2043 1.5958 0.1093
H16J H -0.1747 0.3529 0.0821
H16C H 1.4724 1.6471 -0.0821
H16G H 1.1747 1.6471 0.0821
O8 O -0.1961(16) 0.3026(16) -0.1864(8)
C25 C -0.126(6) 0.270(6) -0.195(3)
C26 C -0.132(5) 0.264(5) -0.148(3)
O11 O 0.038(3) 0.964(4) 0.1337(19)
O12 O -0.200(2) 0.600(4) 0.0000
O4? O 0.5721(11) 1.0183(9) -0.1489(8)
O6? O 0.204(3) 0.864(3) 0.2083(17)
C20? C 0.220(3) 0.847(3) 0.175(2)
C21? C 0.250(3) 0.924(3) 0.1739(17)
O7? O -0.008(4) 0.595(4) 0.1471(16)
C22? C 0.0000 0.665(4) 0.1667
C23? C -0.006(5) 0.692(4) 0.130(3)
C24? C -0.1845(14) 0.2446(14) -0.1688(11)
O9? O -0.1164(8) 0.7671(17) 0.0000
C27? C -0.083(4) 0.778(4) 0.056(2)
C28? C -0.002(5) 0.836(5) 0.077(3)
O10? O 0.181(3) 0.940(3) -0.0710(15)
C29? C 0.100(6) 0.884(6) -0.064(3)
C30? C 0.130(6) 0.926(6) -0.096(3)
loop_
_geom_bond_atom_site_label_1
_geom_bond_atom_site_label_2
_geom_bond_site_symmetry_1
_geom_bond_site_symmetry_2
Cd1 O2 1_555 1_555
Cl1 O2 1_555 1_555
O1 C13 1_555 1_555
O3 Cl1 1_555 1_555
O5 Cl1 1_555 1_555
N1 Cd1 1_555 1_555
C1 N1 1_555 1_555
H1 C1 1_555 1_555
C2 C1 1_555 1_555
H2 C2 1_555 1_555
C3 C2 1_555 1_555
C4 C3 1_555 1_555
H3 C4 1_555 1_555
C5 N1 1_555 1_555
H4 C5 1_555 1_555
C6 C3 1_555 1_555
H5 C6 1_555 1_555
C7 C6 1_555 1_555
H6 C7 1_555 1_555
C8 C7 1_555 1_555
C9 C8 1_555 1_555
H7 C9 1_555 1_555
C10 C9 1_555 1_555
H8 C10 1_555 1_555
C11 C10 1_555 1_555
C12 C11 1_555 1_555
C13 C12 1_555 1_555
C14 C13 1_555 1_555
H9 C14 1_555 1_555
C15 C14 1_555 1_555
H10 C15 1_555 1_555
C16 C11 1_555 1_555
C17 C8 1_555 1_555
H11 C17 1_555 1_555
C18 O1 1_555 1_555
H12 C18 1_555 1_555
H13 C18 1_555 1_555
C19 C18 1_555 1_555
H14 C19 1_555 1_555
H15 C19 1_555 1_555
H16 C19 1_555 1_555
O8 C25 1_555 1_555
C25 C26 1_555 1_555
Cd1_2 N1J 1_555 1_555
Cd1_3 N1G 1_555 1_555
Cl1G O2G 1_555 1_555
O1J C13J 1_555 1_555
O1C C13C 1_555 1_555
O1G C13G 1_555 1_555
O2G Cd1 1_555 1_555
O3C Cl1 1_555 1_555
O3G Cl1G 1_555 1_555
O3J Cl1G 1_555 1_555
O5G Cl1G 1_555 1_555
N1J C1J 1_555 1_555
N1C Cd1 1_555 1_555
N1G C1G 1_555 1_555
N1G_2 Cd1 1_555 1_555
N1J_2 Cd1 1_555 1_555
C1J H1J 1_555 1_555
C1C N1C 1_555 1_555
C1G H1G 1_555 1_555
H1C C1C 1_555 1_555
C2J C1J 1_555 1_555
C2C C1C 1_555 1_555
C2G C1G 1_555 1_555
H2J C2J 1_555 1_555
H2C C2C 1_555 1_555
H2G C2G 1_555 1_555
C3J C2J 1_555 1_555
C3C C2C 1_555 1_555
C3G C2G 1_555 1_555
C4J C3J 1_555 1_555
C4C C3C 1_555 1_555
C4G C3G 1_555 1_555
H3J C4J 1_555 1_555
H3C C4C 1_555 1_555
H3G C4G 1_555 1_555
C5J N1J 1_555 1_555
C5C N1C 1_555 1_555
C5G N1G 1_555 1_555
H4J C5J 1_555 1_555
H4C C5C 1_555 1_555
H4G C5G 1_555 1_555
C6J C3J 1_555 1_555
C6C C3C 1_555 1_555
C6G C3G 1_555 1_555
H5J C6J 1_555 1_555
H5C C6C 1_555 1_555
H5G C6G 1_555 1_555
C7J C6J 1_555 1_555
C7C C6C 1_555 1_555
C7G C6G 1_555 1_555
H6J C7J 1_555 1_555
H6C C7C 1_555 1_555
H6G C7G 1_555 1_555
C8J C7J 1_555 1_555
C8C C7C 1_555 1_555
C8G C7G 1_555 1_555
C9J C8J 1_555 1_555
C9C C8C 1_555 1_555
C9G C8G 1_555 1_555
H7J C9J 1_555 1_555
H7C C9C 1_555 1_555
H7G C9G 1_555 1_555
C10J C9J 1_555 1_555
C10C C9C 1_555 1_555
C10G C9G 1_555 1_555
H8J C10J 1_555 1_555
H8C C10C 1_555 1_555
H8G C10G 1_555 1_555
C11J C10J 1_555 1_555
C11C C10C 1_555 1_555
C11G C10G 1_555 1_555
C12J C12 1_555 1_555
C12C C11C 1_555 1_555
C12G C11G 1_555 1_555
C13J C12J 1_555 1_555
C13C C12C 1_555 1_555
C13G C12G 1_555 1_555
C14J C13J 1_555 1_555
C14C C13C 1_555 1_555
C14G C13G 1_555 1_555
H9J C14J 1_555 1_555
H9C C14C 1_555 1_555
H9G C14G 1_555 1_555
C15J C14J 1_555 1_555
C15C C14C 1_555 1_555
C15G C14G 1_555 1_555
H10J C15J 1_555 1_555
H10C C15C 1_555 1_555
H10G C15G 1_555 1_555
C16J C11J 1_555 1_555
C16C C11C 1_555 1_555
C16G C11G 1_555 1_555
C17J C8J 1_555 1_555
C17C C8C 1_555 1_555
C17G C8G 1_555 1_555
H11J C17J 1_555 1_555
H11C C17C 1_555 1_555
H11G C17G 1_555 1_555
C18J O1J 1_555 1_555
C18C O1C 1_555 1_555
C18G O1G 1_555 1_555
H12J C18J 1_555 1_555
H12C C18C 1_555 1_555
H12G C18G 1_555 1_555
H13J C18J 1_555 1_555
H13C C18C 1_555 1_555
H13G C18G 1_555 1_555
C19J C18J 1_555 1_555
C19C C18C 1_555 1_555
C19G C18G 1_555 1_555
H14J C19J 1_555 1_555
H14C C19C 1_555 1_555
H14G C19G 1_555 1_555
H15J C19J 1_555 1_555
H15C C19C 1_555 1_555
H15G C19G 1_555 1_555
H16J C19J 1_555 1_555
H16C C19C 1_555 1_555
H16G C19G 1_555 1_555
C4 C5 1_555 1_555
C15 C16 1_555 1_555
C16 C17 1_555 1_555
C4J C5J 1_555 1_555
C4C C5C 1_555 1_555
C4G C5G 1_555 1_555
C11J C12J 1_555 1_555
C12C C12G 1_555 1_555
C15J C16J 1_555 1_555
C15C C16C 1_555 1_555
C15G C16G 1_555 1_555
C16J C17J 1_555 1_555
C16C C17C 1_555 1_555
C16G C17G 1_555 1_555

#END
