
#######################################################################
#
#                 Cambridge Crystallographic Data Centre
#                                CCDC 
#
#######################################################################
#
# If this CIF has been generated from an entry in the Cambridge 
# Structural Database, then it will include bibliographic, chemical, 
# crystal, experimental, refinement or atomic coordinate data resulting 
# from the CCDC's data processing and validation procedures.
#
#######################################################################

data_LAKHEL
_symmetry_cell_setting           hexagonal
_symmetry_space_group_name_H-M   'P 61 2 2'
_symmetry_Int_Tables_number      178
_space_group_name_Hall           "P 61 2' (0,0,5)"
loop_
_symmetry_equiv_pos_site_id
_symmetry_equiv_pos_as_xyz
1 x,y,z
2 -y,x-y,1/3+z
3 -x+y,-x,2/3+z
4 -x,-y,1/2+z
5 y,-x+y,5/6+z
6 x-y,x,1/6+z
7 y,x,1/3-z
8 x-y,-y,-z
9 -x,-x+y,2/3-z
10 -y,-x,5/6-z
11 -x+y,y,1/2-z
12 x,x-y,1/6-z
_cell_length_a                   19.4422(4)
_cell_length_b                   19.4422(4)
_cell_length_c                   55.939(3)
_cell_angle_alpha                90
_cell_angle_beta                 90
_cell_angle_gamma                120
_cell_volume                     18312
loop_
_atom_site_label
_atom_site_type_symbol
_atom_site_fract_x
_atom_site_fract_y
_atom_site_fract_z
Cd1 Cd 1.0000 0.50654(7) -0.1667
Cl1 Cl 1.0104(5) 0.5125(4) -0.22981(9)
O1 O 0.3270(8) -0.3560(9) -0.1384(3)
O2 O 0.3245(8) -0.3128(8) -0.1926(2)
O3 O 0.988(2) 0.496(2) -0.2095(4)
O4 O 1.115(2) 0.566(2) -0.2265(6)
O5 O 0.995(2) 0.454(3) -0.2469(8)
O6 O 1.014(3) 0.597(3) -0.2321(7)
N1 N 0.9069(8) 0.3719(7) -0.1685(4)
N2 N 0.9049(13) -0.4598(11) -0.1643(3)
C1 C 0.8402(8) 0.3411(9) -0.1549(3)
H1 H 0.8333 0.3739 -0.1437
C2 C 0.7783(17) 0.2568(15) -0.1575(4)
H2 H 0.7317 0.2363 -0.1479
C3 C 0.7860(18) 0.2101(17) -0.1724(5)
C4 C 0.8497(15) 0.2396(10) -0.1850(4)
H3 H 0.8585 0.2074 -0.1959
C5 C 0.9074(13) 0.3220(11) -0.1822(5)
H4 H 0.9526 0.3412 -0.1923
C6 C 0.7339(15) 0.1272(9) -0.1704(5)
H5 H 0.7483 0.0975 -0.1807
C7 C 0.6755(14) 0.0854(11) -0.1587(4)
H6 H 0.6667 0.1145 -0.1466
C8 C 0.6153(13) 0.0017(13) -0.1584(3)
C9 C 0.5554(12) -0.0377(11) -0.1406(3)
H7 H 0.5550 -0.0042 -0.1283
C10 C 0.4998(14) -0.1139(11) -0.1387(4)
C11 C 0.4962(8) -0.1680(10) -0.1585(3)
C12 C 0.5512(9) -0.1315(11) -0.1776(3)
H8 H 0.5460 -0.1620 -0.1915
C13 C 0.6100(12) -0.0558(14) -0.1768(4)
H9 H 0.6504 -0.0379 -0.1886
C14 C 0.4381(10) -0.2496(10) -0.1559(3)
C15 C 0.3808(10) -0.2767(11) -0.1404(4)
C16 C 0.3857(15) -0.2255(12) -0.1202(3)
H10 H 0.3495 -0.2456 -0.1073
C17 C 0.4418(13) -0.1519(10) -0.1211(3)
H11 H 0.4437 -0.1196 -0.1081
C18 C 0.229(3) -0.440(4) -0.1141(11)
H12 H 0.2075 -0.4710 -0.0994
H13 H 0.2032 -0.4749 -0.1279
H14 H 0.2179 -0.3963 -0.1143
C19 C 0.309(3) -0.411(2) -0.1151(5)
H15 H 0.3221 -0.4535 -0.1176
H16 H 0.3364 -0.3798 -0.1007
C20 C 0.3037(17) -0.2884(18) -0.2104(4)
H17 H 0.3010 -0.2408 -0.2056
H18 H 0.2494 -0.3298 -0.2150
C21 C 0.351(4) -0.269(6) -0.2299(8)
H19 H 0.3280 -0.2532 -0.2429
H20 H 0.3544 -0.3158 -0.2350
H21 H 0.4039 -0.2257 -0.2260
C22 C 0.3807(17) -0.3301(13) -0.1953(4)
C23 C 0.4399(11) -0.3029(9) -0.1760(3)
C24 C 0.4967(12) -0.3256(11) -0.1759(3)
C25 C 0.5021(11) -0.3721(11) -0.1931(4)
C26 C 0.4483(13) -0.3973(14) -0.2148(5)
H22 H 0.4548 -0.4222 -0.2285
C27 C 0.3836(18) -0.3779(17) -0.2117(4)
H23 H 0.3401 -0.4023 -0.2225
C28 C 0.5542(18) -0.3921(12) -0.1954(4)
H24 H 0.5565 -0.4190 -0.2093
C29 C 0.6106(13) -0.3727(13) -0.1760(6)
C30 C 0.6054(13) -0.3297(12) -0.1577(4)
H25 H 0.6422 -0.3136 -0.1449
C31 C 0.5478(13) -0.3096(13) -0.1577(4)
H26 H 0.5434 -0.2828 -0.1442
C32 C 0.6752(12) -0.4000(12) -0.1768(4)
H27 H 0.6771 -0.4286 -0.1903
C33 C 0.7278(14) -0.3837(10) -0.1586(4)
H28 H 0.7264 -0.3571 -0.1445
C34 C 0.9103(16) -0.4056(12) -0.1482(5)
H29 H 0.9554 -0.3836 -0.1380
C35 C 0.8543(16) -0.3770(15) -0.1447(4)
H30 H 0.8589 -0.3408 -0.1326
C36 C 0.7908(13) -0.4110(12) -0.1621(3)
C37 C 0.7918(16) -0.4555(18) -0.1798(6)
H31 H 0.7586 -0.4663 -0.1934
C38 C 0.8391(12) -0.4839(13) -0.1782(4)
H32 H 0.8261 -0.5283 -0.1882
Cd1_2 Cd 1.0000 -0.49346(7) -0.1667
Cl1H Cl 0.9896(5) 0.5021(6) -0.10352(9)
O1H O 1.6730(8) 0.3170(12) -0.1949(3)
O2H O 1.6755(8) 0.3627(11) -0.1407(2)
O3H O 1.012(2) 0.508(3) -0.1238(4)
O3_2 O 0.988(2) -0.504(2) -0.2095(4)
O3H_2 O 1.012(2) -0.492(3) -0.1238(4)
O4H O 0.885(2) 0.451(3) -0.1068(6)
O5H O 1.005(2) 0.459(4) -0.0864(8)
O6H O 0.986(3) 0.583(4) -0.1012(7)
N1H N 1.0931(8) 0.4650(11) -0.1648(4)
N1_2 N 0.9069(8) -0.6281(7) -0.1685(4)
N1H_2 N 1.0931(8) -0.5350(11) -0.1648(4)
N2H N 1.0951(13) 0.6353(17) -0.1690(3)
N2_2 N 0.9049(13) 0.5402(11) -0.1643(3)
N2H_2 N 1.0951(13) -0.3647(17) -0.1690(3)
C1H C 1.1598(8) 0.5009(12) -0.1784(3)
H1H H 1.1667 0.5406 -0.1896
C2H C 1.2217(17) 0.4785(23) -0.1758(4)
H2H H 1.2683 0.5046 -0.1854
C3H C 1.2140(18) 0.4241(25) -0.1609(5)
C4H C 1.1503(15) 0.3899(18) -0.1483(4)
H3H H 1.1415 0.3489 -0.1374
C5H C 1.0926(13) 0.4146(17) -0.1511(5)
H4H H 1.0474 0.3886 -0.1410
C6H C 1.2661(15) 0.3933(17) -0.1629(5)
H5H H 1.2517 0.3492 -0.1526
C7H C 1.3245(14) 0.4099(18) -0.1746(4)
H6H H 1.3333 0.4478 -0.1867
C8H C 1.3847(13) 0.3864(18) -0.1749(3)
C9H C 1.4446(12) 0.4069(16) -0.1927(3)
H7H H 1.4450 0.4408 -0.2050
C10H C 1.5002(14) 0.3863(18) -0.1946(4)
C11H C 1.5038(8) 0.3358(13) -0.1748(3)
C12H C 1.4488(9) 0.3173(14) -0.1557(3)
H8H H 1.4540 0.2920 -0.1418
C13H C 1.3900(12) 0.3342(18) -0.1565(4)
H9H H 1.3496 0.3117 -0.1447
C14H C 1.5619(10) 0.3123(14) -0.1774(3)
C15H C 1.6192(10) 0.3425(15) -0.1929(4)
C16H C 1.6143(15) 0.3888(19) -0.2131(3)
H10H H 1.6505 0.4049 -0.2260
C17H C 1.5582(13) 0.4063(16) -0.2122(3)
H11H H 1.5563 0.4367 -0.2252
C18H C 1.771(3) 0.331(5) -0.2192(11)
H12H H 1.7925 0.3215 -0.2339
H13H H 1.7968 0.3219 -0.2054
H14H H 1.7821 0.3858 -0.2190
C19H C 1.691(3) 0.280(4) -0.2182(5)
H15H H 1.6779 0.2244 -0.2157
H16H H 1.6636 0.2838 -0.2326
C20H C 1.6963(17) 0.4079(25) -0.1229(4)
H17H H 1.6990 0.4582 -0.1277
H18H H 1.7506 0.4208 -0.1183
C21H C 1.649(4) 0.380(7) -0.1034(8)
H19H H 1.6720 0.4188 -0.0904
H20H H 1.6456 0.3298 -0.0983
H21H H 1.5961 0.3704 -0.1073
C22H C 1.6193(17) 0.2892(21) -0.1380(4)
C23H C 1.5601(11) 0.2572(14) -0.1573(3)
C24H C 1.5033(12) 0.1777(16) -0.1574(3)
C25H C 1.4979(11) 0.1258(16) -0.1402(4)
C26H C 1.5517(13) 0.1544(19) -0.1185(5)
H22H H 1.5452 0.1230 -0.1048
C27H C 1.6164(18) 0.2385(25) -0.1216(4)
H23H H 1.6599 0.2576 -0.1108
C28H C 1.4458(18) 0.0537(22) -0.1379(4)
H24H H 1.4435 0.0245 -0.1240
C29H C 1.3894(13) 0.0167(18) -0.1573(6)
C30H C 1.3946(13) 0.0649(18) -0.1756(4)
H25H H 1.3578 0.0442 -0.1884
C31H C 1.4522(13) 0.1426(18) -0.1756(4)
H26H H 1.4566 0.1738 -0.1891
C32H C 1.3248(12) -0.0752(17) -0.1565(4)
H27H H 1.3229 -0.1057 -0.1430
C33H C 1.2722(14) -0.1115(17) -0.1747(4)
H28H H 1.2736 -0.0835 -0.1888
C34H C 1.0897(16) -0.3159(20) -0.1851(5)
H29H H 1.0446 -0.3390 -0.1953
C35H C 1.1457(16) -0.2313(22) -0.1886(4)
H30H H 1.1411 -0.1997 -0.2007
C36H C 1.2092(13) -0.2018(18) -0.1712(3)
C37H C 1.2082(16) -0.2473(24) -0.1535(6)
H31H H 1.2414 -0.2249 -0.1399
C38H C 1.1609(12) -0.3230(18) -0.1551(4)
H32H H 1.1739 -0.3544 -0.1451
C39 C -0.1961(19) 1.0927(13) -0.2377(5)
H33 H -0.2224 1.0397 -0.2319
C40 C -0.1145(19) 1.140(2) -0.2349(6)
H34 H -0.0850 1.1199 -0.2271
C41 C -0.0760(12) 1.2179(19) -0.2434(6)
H35 H -0.0202 1.2505 -0.2414
C42 C -0.1191(14) 1.2478(12) -0.2547(5)
H36 H -0.0928 1.3009 -0.2605
C43 C -0.2007(14) 1.2002(14) -0.2575(4)
H37 H -0.2302 1.2207 -0.2653
C44 C -0.2392(12) 1.1227(13) -0.2490(4)
H38 H -0.2950 1.0901 -0.2510
O7 O 0.493(2) 0.995(2) -0.2707(9)
O8 O -0.145(2) 1.255(2) -0.0829(6)
O9 O 0.4874(15) -0.0103(15) -0.1655(5)
O10 O 0.368(7) 1.147(6) -0.1046(18)
C45 C 0.319(12) 1.094(17) -0.088(7)
C46 C 0.256(3) 1.150(3) -0.0796(8)
O11? O 0.0000 1.0223(8) -0.1667
C47? C -0.089(2) 0.909(2) -0.1611(6)
C48? C -0.0412(16) 0.9622(16) -0.1615(4)
O12? O 0.2029(16) 0.7971(16) -0.0833
C49? C 0.125(3) 0.759(3) -0.0731(10)
C50? C 0.053(5) 0.708(5) -0.0912(14)
O13? O -0.0396(11) 1.0396(11) -0.0833
C51? C -0.0125(14) 1.0246(14) -0.1046(4)
C52? C 0.0323(17) 1.0127(18) -0.1048(5)
O14? O -0.117(2) 1.132(2) -0.1423(7)
C53? C -0.069(4) 1.130(4) -0.1665(11)
C54? C -0.012(6) 1.181(4) -0.1636(19)
loop_
_geom_bond_atom_site_label_1
_geom_bond_atom_site_label_2
_geom_bond_site_symmetry_1
_geom_bond_site_symmetry_2
Cd1 O3 1_555 1_555
Cl1 O3 1_555 1_555
O1 C15 1_555 1_555
O2 C20 1_555 1_555
O4 Cl1 1_555 1_555
O5 Cl1 1_555 1_555
O6 Cl1 1_555 1_555
N1 Cd1 1_555 1_555
N2 C34 1_555 1_555
C1 N1 1_555 1_555
H1 C1 1_555 1_555
C2 C1 1_555 1_555
H2 C2 1_555 1_555
C3 C2 1_555 1_555
C4 C3 1_555 1_555
H3 C4 1_555 1_555
C5 N1 1_555 1_555
H4 C5 1_555 1_555
C6 C3 1_555 1_555
H5 C6 1_555 1_555
C7 C6 1_555 1_555
H6 C7 1_555 1_555
C8 C7 1_555 1_555
C9 C8 1_555 1_555
H7 C9 1_555 1_555
C10 C9 1_555 1_555
C11 C10 1_555 1_555
C12 C11 1_555 1_555
H8 C12 1_555 1_555
C13 C8 1_555 1_555
H9 C13 1_555 1_555
C14 C11 1_555 1_555
C15 C14 1_555 1_555
C16 C15 1_555 1_555
H10 C16 1_555 1_555
C17 C10 1_555 1_555
H11 C17 1_555 1_555
C18 H12 1_555 1_555
H13 C18 1_555 1_555
H14 C18 1_555 1_555
C19 O1 1_555 1_555
H15 C19 1_555 1_555
H16 C19 1_555 1_555
C20 H17 1_555 1_555
H18 C20 1_555 1_555
C21 C20 1_555 1_555
H19 C21 1_555 1_555
H20 C21 1_555 1_555
H21 C21 1_555 1_555
C22 O2 1_555 1_555
C23 C14 1_555 1_555
C24 C23 1_555 1_555
C25 C24 1_555 1_555
C26 C25 1_555 1_555
H22 C26 1_555 1_555
C27 C22 1_555 1_555
H23 C27 1_555 1_555
C28 C25 1_555 1_555
H24 C28 1_555 1_555
C29 C28 1_555 1_555
C30 C29 1_555 1_555
H25 C30 1_555 1_555
C31 C24 1_555 1_555
H26 C31 1_555 1_555
C32 C29 1_555 1_555
H27 C32 1_555 1_555
C33 C32 1_555 1_555
H28 C33 1_555 1_555
C34 H29 1_555 1_555
C35 C34 1_555 1_555
H30 C35 1_555 1_555
C36 C33 1_555 1_555
C37 C36 1_555 1_555
H31 C37 1_555 1_555
C38 N2 1_555 1_555
H32 C38 1_555 1_555
C39 H33 1_555 1_555
C40 C39 1_555 1_555
H34 C40 1_555 1_555
C41 C40 1_555 1_555
H35 C41 1_555 1_555
C42 C41 1_555 1_555
H36 C42 1_555 1_555
C43 C42 1_555 1_555
H37 C43 1_555 1_555
C44 C39 1_555 1_555
H38 C44 1_555 1_555
O10 C45 1_555 1_555
C45 C46 1_555 1_555
Cd1_2 N2 1_555 1_555
Cl1H O3H 1_555 1_555
O1H C15H 1_555 1_555
O2H C20H 1_555 1_555
O3H Cd1 1_555 1_555
O3_2 Cd1_2 1_555 1_555
O3H_2 Cd1_2 1_555 1_555
O4H Cl1H 1_555 1_555
O5H Cl1H 1_555 1_555
O6H Cl1H 1_555 1_555
N1H Cd1 1_555 1_555
N1_2 Cd1_2 1_555 1_555
N1H_2 Cd1_2 1_555 1_555
N2H Cd1 1_555 1_555
N2_2 Cd1 1_555 1_555
N2H_2 Cd1_2 1_555 1_555
C1H N1H 1_555 1_555
H1H C1H 1_555 1_555
C2H C1H 1_555 1_555
H2H C2H 1_555 1_555
C3H C2H 1_555 1_555
C4H C3H 1_555 1_555
H3H C4H 1_555 1_555
C5H N1H 1_555 1_555
H4H C5H 1_555 1_555
C6H C3H 1_555 1_555
H5H C6H 1_555 1_555
C7H C6H 1_555 1_555
H6H C7H 1_555 1_555
C8H C7H 1_555 1_555
C9H C8H 1_555 1_555
H7H C9H 1_555 1_555
C10H C9H 1_555 1_555
C11H C10H 1_555 1_555
C12H C11H 1_555 1_555
H8H C12H 1_555 1_555
C13H C8H 1_555 1_555
H9H C13H 1_555 1_555
C14H C11H 1_555 1_555
C15H C14H 1_555 1_555
C16H C15H 1_555 1_555
H10H C16H 1_555 1_555
C17H C10H 1_555 1_555
H11H C17H 1_555 1_555
C18H H12H 1_555 1_555
H13H C18H 1_555 1_555
H14H C18H 1_555 1_555
C19H O1H 1_555 1_555
H15H C19H 1_555 1_555
H16H C19H 1_555 1_555
C20H H17H 1_555 1_555
H18H C20H 1_555 1_555
C21H C20H 1_555 1_555
H19H C21H 1_555 1_555
H20H C21H 1_555 1_555
H21H C21H 1_555 1_555
C22H O2H 1_555 1_555
C23H C14H 1_555 1_555
C24H C23H 1_555 1_555
C25H C24H 1_555 1_555
C26H C25H 1_555 1_555
H22H C26H 1_555 1_555
C27H C22H 1_555 1_555
H23H C27H 1_555 1_555
C28H C25H 1_555 1_555
H24H C28H 1_555 1_555
C29H C28H 1_555 1_555
C30H C29H 1_555 1_555
H25H C30H 1_555 1_555
C31H C24H 1_555 1_555
H26H C31H 1_555 1_555
C32H C29H 1_555 1_555
H27H C32H 1_555 1_555
C33H C32H 1_555 1_555
H28H C33H 1_555 1_555
C34H N2H_2 1_555 1_555
H29H C34H 1_555 1_555
C35H C34H 1_555 1_555
H30H C35H 1_555 1_555
C36H C33H 1_555 1_555
C37H C36H 1_555 1_555
H31H C37H 1_555 1_555
C38H N2H_2 1_555 1_555
H32H C38H 1_555 1_555
C4 C5 1_555 1_555
C12 C13 1_555 1_555
C16 C17 1_555 1_555
C18 C19 1_555 1_555
C22 C23 1_555 1_555
C26 C27 1_555 1_555
C30 C31 1_555 1_555
C35 C36 1_555 1_555
C37 C38 1_555 1_555
C43 C44 1_555 1_555
C4H C5H 1_555 1_555
C12H C13H 1_555 1_555
C16H C17H 1_555 1_555
C18H C19H 1_555 1_555
C22H C23H 1_555 1_555
C26H C27H 1_555 1_555
C30H C31H 1_555 1_555
C35H C36H 1_555 1_555
C37H C38H 1_555 1_555

#END
