
#######################################################################
#
#                 Cambridge Crystallographic Data Centre
#                                CCDC 
#
#######################################################################
#
# If this CIF has been generated from an entry in the Cambridge 
# Structural Database, then it will include bibliographic, chemical, 
# crystal, experimental, refinement or atomic coordinate data resulting 
# from the CCDC's data processing and validation procedures.
#
#######################################################################

data_LAKTUN
_symmetry_cell_setting           triclinic
_symmetry_space_group_name_H-M   'P -1'
_symmetry_Int_Tables_number      2
_space_group_name_Hall           '-P 1'
loop_
_symmetry_equiv_pos_site_id
_symmetry_equiv_pos_as_xyz
1 x,y,z
2 -x,-y,-z
_cell_length_a                   5.5222(11)
_cell_length_b                   12.403(3)
_cell_length_c                   15.454(3)
_cell_angle_alpha                87.71(3)
_cell_angle_beta                 89.57(3)
_cell_angle_gamma                78.10(3)
_cell_volume                     1034.9
loop_
_atom_site_label
_atom_site_type_symbol
_atom_site_fract_x
_atom_site_fract_y
_atom_site_fract_z
Fe1 Fe 1.32496(8) 0.52380(4) 0.09095(3)
P1 P 0.88886(14) 0.37735(7) 0.10796(5)
P2 P 0.76140(15) 0.60095(7) 0.18582(6)
O1 O 1.1483(4) 0.39401(18) 0.08730(14)
O3 O 0.6949(4) 0.42751(18) 0.03917(13)
O4 O 0.8845(4) 0.25634(17) 0.12617(15)
O5 O 1.0095(4) 0.61948(18) 0.15447(15)
O6 O 0.5483(4) 0.63578(18) 0.12218(14)
O7 O 0.6815(4) 0.6560(2) 0.27186(16)
H3 H 0.780(7) 0.701(3) 0.303(3)
O8 O 0.5208(4) 0.44423(18) 0.21756(15)
H4 H 0.517(6) 0.3746(12) 0.232(2)
C1 C 0.7810(5) 0.4521(3) 0.2064(2)
C2 C 0.9343(6) 0.4082(3) 0.2857(2)
H13 H 0.8700 0.4502 0.3347
H14 H 1.1029 0.4142 0.2759
H15 H 0.9272 0.3322 0.2970
Fe1_2 Fe 2.32496(8) 0.52380(4) 0.09095(3)
Fe1_3 Fe 0.32496(8) 0.52380(4) 0.09095(3)
Fe1A Fe 0.67504(8) 0.47620(4) -0.09095(3)
Fe1A_2 Fe 1.67504(8) 0.47620(4) -0.09095(3)
P1_2 P 1.88886(14) 0.37735(7) 0.10796(5)
P2_2 P 1.76140(15) 0.60095(7) 0.18582(6)
O1_2 O 2.1483(4) 0.39401(18) 0.08730(14)
O3_2 O 1.6949(4) 0.42751(18) 0.03917(13)
O3A O 1.3051(4) 0.57249(18) -0.03917(13)
O3_3 O 2.6949(4) 0.42751(18) 0.03917(13)
O3A_2 O 2.3051(4) 0.57249(18) -0.03917(13)
O4_2 O 1.8845(4) 0.25634(17) 0.12617(15)
O5_2 O 2.0095(4) 0.61948(18) 0.15447(15)
O6_2 O 1.5483(4) 0.63578(18) 0.12218(14)
O6_3 O 2.5483(4) 0.63578(18) 0.12218(14)
O7_2 O 1.6815(4) 0.6560(2) 0.27186(16)
H3_2 H 1.780(7) 0.701(3) 0.303(3)
O8_2 O 1.5208(4) 0.44423(18) 0.21756(15)
O8_3 O 2.5208(4) 0.44423(18) 0.21756(15)
H4_2 H 1.517(6) 0.3746(12) 0.232(2)
H4_3 H 2.517(6) 0.3746(12) 0.232(2)
C1_2 C 1.7810(5) 0.4521(3) 0.2064(2)
C2_2 C 1.9343(6) 0.4082(3) 0.2857(2)
H13_2 H 1.8700 0.4502 0.3347
H14_2 H 2.1029 0.4142 0.2759
H15_2 H 1.9272 0.3322 0.2970
Fe2 Fe 0.14709(8) 0.03846(4) 0.40935(3)
P3 P 0.72091(14) -0.10562(7) 0.39033(5)
P4 P 0.62500(14) 0.13104(7) 0.32509(5)
O9 O 0.4499(4) -0.09625(18) 0.41044(14)
O10 O 0.8745(4) -0.06687(18) 0.45980(13)
O11 O 0.8435(4) -0.22392(18) 0.36922(15)
O12 O 0.3742(4) 0.14117(18) 0.36446(15)
O13 O 0.8225(4) 0.16329(17) 0.38015(14)
O14 O 0.5893(4) 0.20214(19) 0.23799(15)
H5 H 0.725(6) 0.208(3) 0.208(2)
O15 O 1.0162(4) -0.01700(18) 0.28671(14)
H6 H 1.085(6) -0.0811(16) 0.264(2)
C3 C 0.7518(5) -0.0127(3) 0.2971(2)
C4 C 0.6390(6) -0.0437(3) 0.2147(2)
H16 H 0.7100 -0.1190 0.2028
H17 H 0.6723 0.0035 0.1674
H18 H 0.4634 -0.0352 0.2220
Fe2_2 Fe -0.85291(8) 0.03846(4) 0.40935(3)
Fe2_3 Fe 1.14709(8) 0.03846(4) 0.40935(3)
Fe2A Fe 0.85291(8) -0.03846(4) 0.59065(3)
Fe2A_2 Fe -0.14709(8) -0.03846(4) 0.59065(3)
P3_2 P -0.27909(14) -0.10562(7) 0.39033(5)
P4_2 P -0.37500(14) 0.13104(7) 0.32509(5)
O9_2 O -0.5501(4) -0.09625(18) 0.41044(14)
O10_2 O -0.1255(4) -0.06687(18) 0.45980(13)
O10A O 0.1255(4) 0.06687(18) 0.54020(13)
O10_3 O -1.1255(4) -0.06687(18) 0.45980(13)
O10A_2 O -0.8745(4) 0.06687(18) 0.54020(13)
O11_2 O -0.1565(4) -0.22392(18) 0.36922(15)
O12_2 O -0.6258(4) 0.14117(18) 0.36446(15)
O13_2 O -0.1775(4) 0.16329(17) 0.38015(14)
O13_3 O -1.1775(4) 0.16329(17) 0.38015(14)
O14_2 O -0.4107(4) 0.20214(19) 0.23799(15)
H5_2 H -0.275(6) 0.208(3) 0.208(2)
O15_2 O 0.0162(4) -0.01700(18) 0.28671(14)
O15_3 O -0.9838(4) -0.01700(18) 0.28671(14)
H6_2 H 0.085(6) -0.0811(16) 0.264(2)
H6_3 H -0.915(6) -0.0811(16) 0.264(2)
C3_2 C -0.2482(5) -0.0127(3) 0.2971(2)
C4_2 C -0.3610(6) -0.0437(3) 0.2147(2)
H16_2 H -0.2900 -0.1190 0.2028
H17_2 H -0.3277 0.0035 0.1674
H18_2 H -0.5366 -0.0352 0.2220
O2 O 0.2017(5) 0.7980(2) 0.2129(2)
H1 H 0.1243 0.7553 0.1811
H2 H 0.2682 0.7606 0.2615
N1 N 0.7266(5) 0.2758(2) 0.5298(2)
H7 H 0.861(7) 0.264(3) 0.564(2)
H8 H 0.760(6) 0.251(3) 0.480(3)
H9 H 0.644(6) 0.228(3) 0.565(2)
C5 C 0.6073(6) 0.3920(3) 0.5155(2)
C6 C 0.7024(7) 0.4716(3) 0.5533(3)
H19 H 0.842(7) 0.452(3) 0.585(3)
C7 C 0.4045(7) 0.4185(3) 0.4617(3)
H20 H 0.336(7) 0.364(3) 0.436(3)
N1A N 0.2734(5) 0.7242(2) 0.4702(2)
H7A H 0.139(7) 0.736(3) 0.436(2)
H8A H 0.240(6) 0.749(3) 0.520(3)
H9A H 0.356(6) 0.772(3) 0.435(2)
C5A C 0.3927(6) 0.6080(3) 0.4845(2)
C6A C 0.2976(7) 0.5284(3) 0.4467(3)
H19A H 0.158(7) 0.548(3) 0.415(3)
C7A C 0.5955(7) 0.5815(3) 0.5383(3)
H20A H 0.664(7) 0.636(3) 0.564(3)
N2 N 0.5079(5) 0.7742(2) -0.0194(2)
H10 H 0.518(6) 0.736(3) 0.036(2)
H11 H 0.392(7) 0.765(3) -0.052(2)
H12 H 0.647(6) 0.744(3) -0.058(2)
C8 C 0.5066(6) 0.8905(3) -0.0088(2)
C9 C 0.6979(6) 0.9349(3) -0.0417(2)
H21 H 0.844(6) 0.886(3) -0.067(2)
C10 C 0.3078(6) 0.9542(3) 0.0327(2)
H22 H 0.178(6) 0.924(3) 0.060(2)
N2A N 0.4921(5) 1.2258(2) 0.0194(2)
H10A H 0.482(6) 1.264(3) -0.036(2)
H11A H 0.608(7) 1.235(3) 0.052(2)
H12A H 0.353(6) 1.256(3) 0.058(2)
C8A C 0.4934(6) 1.1095(3) 0.0088(2)
C9A C 0.3021(6) 1.0651(3) 0.0417(2)
H21A H 0.156(6) 1.114(3) 0.067(2)
C10A C 0.6922(6) 1.0458(3) -0.0327(2)
H22A H 0.822(6) 1.076(3) -0.060(2)
loop_
_geom_bond_atom_site_label_1
_geom_bond_atom_site_label_2
_geom_bond_site_symmetry_1
_geom_bond_site_symmetry_2
Fe1 O1 1_555 1_555
Fe2 O9 1_555 1_555
P1 O1 1_555 1_555
P2 O5 1_555 1_555
P3 O9 1_555 1_555
P4 O12 1_555 1_555
O2 H1 1_555 1_555
H2 O2 1_555 1_555
O3 P1 1_555 1_555
O4 P1 1_555 1_555
O5 Fe1 1_555 1_555
O6 P2 1_555 1_555
O7 P2 1_555 1_555
H3 O7 1_555 1_555
O8 H4 1_555 1_555
O10 P3 1_555 1_555
O11 P3 1_555 1_555
O12 Fe2 1_555 1_555
O13 P4 1_555 1_555
O14 P4 1_555 1_555
H5 O14 1_555 1_555
O15 H6 1_555 1_555
N1 H7 1_555 1_555
H8 N1 1_555 1_555
H9 N1 1_555 1_555
N2 H10 1_555 1_555
H11 N2 1_555 1_555
H12 N2 1_555 1_555
C1 P1 1_555 1_555
C2 C1 1_555 1_555
H13 C2 1_555 1_555
H14 C2 1_555 1_555
H15 C2 1_555 1_555
C3 P3 1_555 1_555
C4 C3 1_555 1_555
H16 C4 1_555 1_555
H17 C4 1_555 1_555
H18 C4 1_555 1_555
C5 N1 1_555 1_555
C6 C5 1_555 1_555
H19 C6 1_555 1_555
C7 C5 1_555 1_555
H20 C7 1_555 1_555
C8 N2 1_555 1_555
C9 C8 1_555 1_555
H21 C9 1_555 1_555
C10 C8 1_555 1_555
H22 C10 1_555 1_555
Fe1_2 O1_2 1_555 1_555
Fe1_3 O3 1_555 1_555
Fe1A O3 1_555 1_555
Fe1A_2 O3_2 1_555 1_555
Fe2_2 O9_2 1_555 1_555
Fe2_3 O10 1_555 1_555
Fe2A O10 1_555 1_555
Fe2A_2 O10_2 1_555 1_555
P1_2 O1_2 1_555 1_555
P2_2 O5_2 1_555 1_555
P3_2 O9_2 1_555 1_555
P4_2 O12_2 1_555 1_555
O3_2 Fe1 1_555 1_555
O3A Fe1 1_555 1_555
O3_3 Fe1_2 1_555 1_555
O3A_2 Fe1_2 1_555 1_555
O4_2 P1_2 1_555 1_555
O5_2 Fe1_2 1_555 1_555
O6_2 Fe1 1_555 1_555
O6_3 Fe1_2 1_555 1_555
O7_2 P2_2 1_555 1_555
H3_2 O7_2 1_555 1_555
O8_2 Fe1 1_555 1_555
O8_3 Fe1_2 1_555 1_555
H4_2 O8_2 1_555 1_555
H4_3 O8_3 1_555 1_555
O10_2 Fe2 1_555 1_555
O10A Fe2 1_555 1_555
O10_3 Fe2_2 1_555 1_555
O10A_2 Fe2_2 1_555 1_555
O11_2 P3_2 1_555 1_555
O12_2 Fe2_2 1_555 1_555
O13_2 Fe2 1_555 1_555
O13_3 Fe2_2 1_555 1_555
O14_2 P4_2 1_555 1_555
H5_2 O14_2 1_555 1_555
O15_2 Fe2 1_555 1_555
O15_3 Fe2_2 1_555 1_555
H6_2 O15_2 1_555 1_555
H6_3 O15_3 1_555 1_555
N1A H7A 1_555 1_555
H8A N1A 1_555 1_555
H9A N1A 1_555 1_555
N2A H10A 1_555 1_555
H11A N2A 1_555 1_555
H12A N2A 1_555 1_555
C1_2 P1_2 1_555 1_555
C2_2 C1_2 1_555 1_555
H13_2 C2_2 1_555 1_555
H14_2 C2_2 1_555 1_555
H15_2 C2_2 1_555 1_555
C3_2 P3_2 1_555 1_555
C4_2 C3_2 1_555 1_555
H16_2 C4_2 1_555 1_555
H17_2 C4_2 1_555 1_555
H18_2 C4_2 1_555 1_555
C5A N1A 1_555 1_555
C6A C7 1_555 1_555
H19A C6A 1_555 1_555
C7A C6 1_555 1_555
H20A C7A 1_555 1_555
C8A N2A 1_555 1_555
C9A C10 1_555 1_555
H21A C9A 1_555 1_555
C10A C9 1_555 1_555
H22A C10A 1_555 1_555
P2 C1 1_555 1_555
P4 C3 1_555 1_555
O6 Fe1_3 1_555 1_555
O8 C1 1_555 1_555
O8 Fe1_3 1_555 1_555
O13 Fe2_3 1_555 1_555
O15 C3 1_555 1_555
O15 Fe2_3 1_555 1_555
Fe1A_2 O3A 1_555 1_555
Fe2A_2 O10A 1_555 1_555
P1_2 O3_2 1_555 1_555
P2_2 O6_2 1_555 1_555
P2_2 C1_2 1_555 1_555
P3_2 O10_2 1_555 1_555
P4_2 O13_2 1_555 1_555
P4_2 C3_2 1_555 1_555
O8_2 C1_2 1_555 1_555
O15_2 C3_2 1_555 1_555
C5A C6A 1_555 1_555
C5A C7A 1_555 1_555
C8A C9A 1_555 1_555
C8A C10A 1_555 1_555

#END
