
#######################################################################
#
#                 Cambridge Crystallographic Data Centre
#                                CCDC 
#
#######################################################################
#
# If this CIF has been generated from an entry in the Cambridge 
# Structural Database, then it will include bibliographic, chemical, 
# crystal, experimental, refinement or atomic coordinate data resulting 
# from the CCDC's data processing and validation procedures.
#
#######################################################################

data_LAKVAV
_symmetry_cell_setting           triclinic
_symmetry_space_group_name_H-M   'P -1'
_symmetry_Int_Tables_number      2
_space_group_name_Hall           '-P 1'
loop_
_symmetry_equiv_pos_site_id
_symmetry_equiv_pos_as_xyz
1 x,y,z
2 -x,-y,-z
_cell_length_a                   5.4651(14)
_cell_length_b                   12.406(3)
_cell_length_c                   15.362(4)
_cell_angle_alpha                87.452(4)
_cell_angle_beta                 88.909(4)
_cell_angle_gamma                78.415(4)
_cell_volume                     1019.26
loop_
_atom_site_label
_atom_site_type_symbol
_atom_site_fract_x
_atom_site_fract_y
_atom_site_fract_z
Co1 Co 1.33339(7) 0.52252(3) 0.09073(3)
P1 P 0.89256(14) 0.37835(6) 0.10701(5)
P2 P 0.76480(14) 0.60147(6) 0.18359(5)
O1 O 1.1539(4) 0.39489(17) 0.08593(13)
O3 O 0.6964(4) 0.42736(17) 0.03844(13)
O4 O 0.8871(4) 0.25756(16) 0.12590(14)
O5 O 1.0173(4) 0.61970(17) 0.15153(15)
O6 O 0.5491(4) 0.63519(17) 0.12003(14)
O7 O 0.6827(5) 0.6580(2) 0.26947(16)
H3 H 0.777(7) 0.696(3) 0.305(3)
O8 O 0.5161(4) 0.44559(18) 0.21605(14)
H4 H 0.509(7) 0.3749(12) 0.227(2)
C1 C 0.7792(5) 0.4537(2) 0.20504(18)
C2 C 0.9280(6) 0.4106(3) 0.2862(2)
H13 H 0.8610 0.4538 0.3347
H14 H 1.0996 0.4157 0.2768
H15 H 0.9176 0.3351 0.2984
Co1_2 Co 2.33339(7) 0.52252(3) 0.09073(3)
Co1_3 Co 0.33339(7) 0.52252(3) 0.09073(3)
Co1A Co 0.66661(7) 0.47748(3) -0.09073(3)
Co1A_2 Co 1.66661(7) 0.47748(3) -0.09073(3)
P1_2 P 1.89256(14) 0.37835(6) 0.10701(5)
P2_2 P 1.76480(14) 0.60147(6) 0.18359(5)
O1_2 O 2.1539(4) 0.39489(17) 0.08593(13)
O3_2 O 1.6964(4) 0.42736(17) 0.03844(13)
O3A O 1.3036(4) 0.57264(17) -0.03844(13)
O3_3 O 2.6964(4) 0.42736(17) 0.03844(13)
O3A_2 O 2.3036(4) 0.57264(17) -0.03844(13)
O4_2 O 1.8871(4) 0.25756(16) 0.12590(14)
O5_2 O 2.0173(4) 0.61970(17) 0.15153(15)
O6_2 O 1.5491(4) 0.63519(17) 0.12003(14)
O6_3 O 2.5491(4) 0.63519(17) 0.12003(14)
O7_2 O 1.6827(5) 0.6580(2) 0.26947(16)
H3_2 H 1.777(7) 0.696(3) 0.305(3)
O8_2 O 1.5161(4) 0.44559(18) 0.21605(14)
O8_3 O 2.5161(4) 0.44559(18) 0.21605(14)
H4_2 H 1.509(7) 0.3749(12) 0.227(2)
H4_3 H 2.509(7) 0.3749(12) 0.227(2)
C1_2 C 1.7792(5) 0.4537(2) 0.20504(18)
C2_2 C 1.9280(6) 0.4106(3) 0.2862(2)
H13_2 H 1.8610 0.4538 0.3347
H14_2 H 2.0996 0.4157 0.2768
H15_2 H 1.9176 0.3351 0.2984
Co2 Co 0.14080(7) 0.03633(3) 0.40923(2)
P3 P 0.71472(14) -0.10520(6) 0.39156(5)
P4 P 0.62416(14) 0.13028(6) 0.32681(5)
O9 O 0.4398(4) -0.09543(17) 0.41178(13)
O10 O 0.8722(4) -0.06695(16) 0.46062(12)
O11 O 0.8365(4) -0.22393(17) 0.37048(14)
O12 O 0.3712(4) 0.14012(17) 0.36782(14)
O13 O 0.8267(4) 0.16129(17) 0.38113(13)
O14 O 0.5879(4) 0.20270(18) 0.23973(14)
H5 H 0.733(7) 0.208(3) 0.211(2)
O15 O 1.0194(4) -0.01745(17) 0.28736(13)
H6 H 1.103(6) -0.0789(17) 0.263(2)
C3 C 0.7527(5) -0.0130(2) 0.29737(18)
C4 C 0.6403(6) -0.0424(3) 0.2140(2)
H16 H 0.7101 -0.1175 0.2016
H17 H 0.6771 0.0052 0.1667
H18 H 0.4625 -0.0334 0.2212
Co2_2 Co -0.85920(7) 0.03633(3) 0.40923(2)
Co2_3 Co 1.14080(7) 0.03633(3) 0.40923(2)
Co2A Co 0.85920(7) -0.03633(3) 0.59077(2)
Co2A_2 Co -0.14080(7) -0.03633(3) 0.59077(2)
P3_2 P -0.28528(14) -0.10520(6) 0.39156(5)
P4_2 P -0.37584(14) 0.13028(6) 0.32681(5)
O9_2 O -0.5602(4) -0.09543(17) 0.41178(13)
O10_2 O -0.1278(4) -0.06695(16) 0.46062(12)
O10A O 0.1278(4) 0.06695(16) 0.53938(12)
O10_3 O -1.1278(4) -0.06695(16) 0.46062(12)
O10A_2 O -0.8722(4) 0.06695(16) 0.53938(12)
O11_2 O -0.1635(4) -0.22393(17) 0.37048(14)
O12_2 O -0.6288(4) 0.14012(17) 0.36782(14)
O13_2 O -0.1733(4) 0.16129(17) 0.38113(13)
O13_3 O -1.1733(4) 0.16129(17) 0.38113(13)
O14_2 O -0.4121(4) 0.20270(18) 0.23973(14)
H5_2 H -0.267(7) 0.208(3) 0.211(2)
O15_2 O 0.0194(4) -0.01745(17) 0.28736(13)
O15_3 O -0.9806(4) -0.01745(17) 0.28736(13)
H6_2 H 0.103(6) -0.0789(17) 0.263(2)
H6_3 H -0.897(6) -0.0789(17) 0.263(2)
C3_2 C -0.2473(5) -0.0130(2) 0.29737(18)
C4_2 C -0.3597(6) -0.0424(3) 0.2140(2)
H16_2 H -0.2899 -0.1175 0.2016
H17_2 H -0.3229 0.0052 0.1667
H18_2 H -0.5375 -0.0334 0.2212
O2 O 0.2040(6) 0.7960(2) 0.2158(2)
H1 H 0.1411 0.7491 0.1838
H2 H 0.2464 0.7696 0.2704
N1 N 0.7327(6) 0.2770(2) 0.5295(2)
H7 H 0.871(7) 0.267(3) 0.560(2)
H8 H 0.761(7) 0.251(3) 0.483(3)
H9 H 0.658(7) 0.227(3) 0.557(2)
C5 C 0.6111(6) 0.3923(2) 0.5149(2)
C6 C 0.7060(7) 0.4729(3) 0.5527(2)
H19 H 0.832(8) 0.457(3) 0.592(3)
C7 C 0.4033(7) 0.4182(3) 0.4626(2)
H20 H 0.346(8) 0.375(4) 0.438(3)
N1A N 0.2673(6) 0.7230(2) 0.4705(2)
H7A H 0.129(7) 0.733(3) 0.440(2)
H8A H 0.239(7) 0.749(3) 0.517(3)
H9A H 0.342(7) 0.773(3) 0.443(2)
C5A C 0.3889(6) 0.6077(2) 0.4851(2)
C6A C 0.2940(7) 0.5271(3) 0.4473(2)
H19A H 0.168(8) 0.543(3) 0.408(3)
C7A C 0.5967(7) 0.5818(3) 0.5374(2)
H20A H 0.654(8) 0.625(4) 0.562(3)
N2 N 0.5037(6) 0.7751(2) -0.0204(2)
H10 H 0.498(7) 0.743(3) 0.031(3)
H11 H 0.361(7) 0.765(3) -0.049(2)
H12 H 0.640(7) 0.744(3) -0.054(2)
C8 C 0.5049(6) 0.8910(2) -0.00939(19)
C9 C 0.6986(6) 0.9351(3) -0.0428(2)
H21 H 0.849(7) 0.893(3) -0.071(2)
C10 C 0.3064(6) 0.9539(3) 0.0337(2)
H22 H 0.155(7) 0.930(3) 0.063(2)
N2A N 0.4963(6) 1.2249(2) 0.0204(2)
H10A H 0.502(7) 1.257(3) -0.031(3)
H11A H 0.639(7) 1.235(3) 0.049(2)
H12A H 0.360(7) 1.256(3) 0.054(2)
C8A C 0.4951(6) 1.1090(2) 0.00939(19)
C9A C 0.3014(6) 1.0649(3) 0.0428(2)
H21A H 0.151(7) 1.107(3) 0.071(2)
C10A C 0.6936(6) 1.0461(3) -0.0337(2)
H22A H 0.845(7) 1.070(3) -0.063(2)
loop_
_geom_bond_atom_site_label_1
_geom_bond_atom_site_label_2
_geom_bond_site_symmetry_1
_geom_bond_site_symmetry_2
Co1 O1 1_555 1_555
Co2 O9 1_555 1_555
P1 O1 1_555 1_555
P2 O5 1_555 1_555
P3 O9 1_555 1_555
P4 O12 1_555 1_555
O2 H1 1_555 1_555
H2 O2 1_555 1_555
O3 P1 1_555 1_555
O4 P1 1_555 1_555
O5 Co1 1_555 1_555
O6 P2 1_555 1_555
O7 P2 1_555 1_555
H3 O7 1_555 1_555
O8 H4 1_555 1_555
O10 P3 1_555 1_555
O11 P3 1_555 1_555
O12 Co2 1_555 1_555
O13 P4 1_555 1_555
O14 P4 1_555 1_555
H5 O14 1_555 1_555
O15 H6 1_555 1_555
N1 H7 1_555 1_555
H8 N1 1_555 1_555
H9 N1 1_555 1_555
N2 H10 1_555 1_555
H11 N2 1_555 1_555
H12 N2 1_555 1_555
C1 P1 1_555 1_555
C2 C1 1_555 1_555
H13 C2 1_555 1_555
H14 C2 1_555 1_555
H15 C2 1_555 1_555
C3 P3 1_555 1_555
C4 C3 1_555 1_555
H16 C4 1_555 1_555
H17 C4 1_555 1_555
H18 C4 1_555 1_555
C5 N1 1_555 1_555
C6 C5 1_555 1_555
H19 C6 1_555 1_555
C7 C5 1_555 1_555
H20 C7 1_555 1_555
C8 N2 1_555 1_555
C9 C8 1_555 1_555
H21 C9 1_555 1_555
C10 C8 1_555 1_555
H22 C10 1_555 1_555
Co1_2 O1_2 1_555 1_555
Co1_3 O3 1_555 1_555
Co1A O3 1_555 1_555
Co1A_2 O3_2 1_555 1_555
Co2_2 O9_2 1_555 1_555
Co2_3 O10 1_555 1_555
Co2A O10 1_555 1_555
Co2A_2 O10_2 1_555 1_555
P1_2 O1_2 1_555 1_555
P2_2 O5_2 1_555 1_555
P3_2 O9_2 1_555 1_555
P4_2 O12_2 1_555 1_555
O3_2 Co1 1_555 1_555
O3A Co1 1_555 1_555
O3_3 Co1_2 1_555 1_555
O3A_2 Co1_2 1_555 1_555
O4_2 P1_2 1_555 1_555
O5_2 Co1_2 1_555 1_555
O6_2 Co1 1_555 1_555
O6_3 Co1_2 1_555 1_555
O7_2 P2_2 1_555 1_555
H3_2 O7_2 1_555 1_555
O8_2 Co1 1_555 1_555
O8_3 Co1_2 1_555 1_555
H4_2 O8_2 1_555 1_555
H4_3 O8_3 1_555 1_555
O10_2 Co2 1_555 1_555
O10A Co2 1_555 1_555
O10_3 Co2_2 1_555 1_555
O10A_2 Co2_2 1_555 1_555
O11_2 P3_2 1_555 1_555
O12_2 Co2_2 1_555 1_555
O13_2 Co2 1_555 1_555
O13_3 Co2_2 1_555 1_555
O14_2 P4_2 1_555 1_555
H5_2 O14_2 1_555 1_555
O15_2 Co2 1_555 1_555
O15_3 Co2_2 1_555 1_555
H6_2 O15_2 1_555 1_555
H6_3 O15_3 1_555 1_555
N1A H7A 1_555 1_555
H8A N1A 1_555 1_555
H9A N1A 1_555 1_555
N2A H10A 1_555 1_555
H11A N2A 1_555 1_555
H12A N2A 1_555 1_555
C1_2 P1_2 1_555 1_555
C2_2 C1_2 1_555 1_555
H13_2 C2_2 1_555 1_555
H14_2 C2_2 1_555 1_555
H15_2 C2_2 1_555 1_555
C3_2 P3_2 1_555 1_555
C4_2 C3_2 1_555 1_555
H16_2 C4_2 1_555 1_555
H17_2 C4_2 1_555 1_555
H18_2 C4_2 1_555 1_555
C5A N1A 1_555 1_555
C6A C7 1_555 1_555
H19A C6A 1_555 1_555
C7A C6 1_555 1_555
H20A C7A 1_555 1_555
C8A N2A 1_555 1_555
C9A C10 1_555 1_555
H21A C9A 1_555 1_555
C10A C9 1_555 1_555
H22A C10A 1_555 1_555
P2 C1 1_555 1_555
P4 C3 1_555 1_555
O6 Co1_3 1_555 1_555
O8 C1 1_555 1_555
O8 Co1_3 1_555 1_555
O13 Co2_3 1_555 1_555
O15 C3 1_555 1_555
O15 Co2_3 1_555 1_555
Co1A_2 O3A 1_555 1_555
Co2A_2 O10A 1_555 1_555
P1_2 O3_2 1_555 1_555
P2_2 O6_2 1_555 1_555
P2_2 C1_2 1_555 1_555
P3_2 O10_2 1_555 1_555
P4_2 O13_2 1_555 1_555
P4_2 C3_2 1_555 1_555
O8_2 C1_2 1_555 1_555
O15_2 C3_2 1_555 1_555
C5A C6A 1_555 1_555
C5A C7A 1_555 1_555
C8A C9A 1_555 1_555
C8A C10A 1_555 1_555

#END
