
#######################################################################
#
#                 Cambridge Crystallographic Data Centre
#                                CCDC 
#
#######################################################################
#
# If this CIF has been generated from an entry in the Cambridge 
# Structural Database, then it will include bibliographic, chemical, 
# crystal, experimental, refinement or atomic coordinate data resulting 
# from the CCDC's data processing and validation procedures.
#
#######################################################################

data_LAKVID
_symmetry_cell_setting           triclinic
_symmetry_space_group_name_H-M   'P -1'
_symmetry_Int_Tables_number      2
_space_group_name_Hall           '-P 1'
loop_
_symmetry_equiv_pos_site_id
_symmetry_equiv_pos_as_xyz
1 x,y,z
2 -x,-y,-z
_cell_length_a                   5.48950(10)
_cell_length_b                   12.3661(3)
_cell_length_c                   15.4141(4)
_cell_angle_alpha                87.5050(10)
_cell_angle_beta                 89.7740(10)
_cell_angle_gamma                78.5810(10)
_cell_volume                     1024.67
loop_
_atom_site_label
_atom_site_type_symbol
_atom_site_fract_x
_atom_site_fract_y
_atom_site_fract_z
Zn1 Zn 1.30839(8) 0.53033(4) 0.08986(3)
P1 P 0.89451(17) 0.37889(8) 0.10751(6)
P2 P 0.75500(18) 0.60378(8) 0.18244(6)
O1 O 1.1574(4) 0.3960(2) 0.08966(17)
O3 O 0.7044(4) 0.4260(2) 0.03685(16)
O4 O 0.8920(4) 0.2574(2) 0.12709(17)
O5 O 1.0019(4) 0.6248(2) 0.14924(18)
O6 O 0.5388(4) 0.6362(2) 0.11877(16)
O7 O 0.6790(5) 0.6599(2) 0.26767(18)
H3 H 0.753(7) 0.701(3) 0.302(2)
O8 O 0.5169(5) 0.4450(2) 0.21368(17)
H4 H 0.533(7) 0.3738(11) 0.229(3)
C1 C 0.7784(6) 0.4550(3) 0.2046(2)
C2 C 0.9305(7) 0.4141(4) 0.2853(2)
H13 H 0.8635 0.4571 0.3334
H14 H 1.0996 0.4214 0.2759
H15 H 0.9249 0.3379 0.2978
Zn1_2 Zn 2.30839(8) 0.53033(4) 0.08986(3)
Zn1_3 Zn 0.30839(8) 0.53033(4) 0.08986(3)
Zn1A Zn 0.69161(8) 0.46967(4) -0.08986(3)
Zn1A_2 Zn 1.69161(8) 0.46967(4) -0.08986(3)
P1_2 P 1.89451(17) 0.37889(8) 0.10751(6)
P2_2 P 1.75500(18) 0.60378(8) 0.18244(6)
O1_2 O 2.1574(4) 0.3960(2) 0.08966(17)
O3_2 O 1.7044(4) 0.4260(2) 0.03685(16)
O3A O 1.2956(4) 0.5740(2) -0.03685(16)
O3_3 O 2.7044(4) 0.4260(2) 0.03685(16)
O3A_2 O 2.2956(4) 0.5740(2) -0.03685(16)
O4_2 O 1.8920(4) 0.2574(2) 0.12709(17)
O5_2 O 2.0019(4) 0.6248(2) 0.14924(18)
O6_2 O 1.5388(4) 0.6362(2) 0.11877(16)
O6_3 O 2.5388(4) 0.6362(2) 0.11877(16)
O7_2 O 1.6790(5) 0.6599(2) 0.26767(18)
H3_2 H 1.753(7) 0.701(3) 0.302(2)
O8_2 O 1.5169(5) 0.4450(2) 0.21368(17)
O8_3 O 2.5169(5) 0.4450(2) 0.21368(17)
H4_2 H 1.533(7) 0.3738(11) 0.229(3)
H4_3 H 2.533(7) 0.3738(11) 0.229(3)
C1_2 C 1.7784(6) 0.4550(3) 0.2046(2)
C2_2 C 1.9305(7) 0.4141(4) 0.2853(2)
H13_2 H 1.8635 0.4571 0.3334
H14_2 H 2.0996 0.4214 0.2759
H15_2 H 1.9249 0.3379 0.2978
Zn2 Zn 0.15709(8) 0.04256(4) 0.40908(3)
P3 P 0.71273(17) -0.10503(8) 0.39288(6)
P4 P 0.63360(17) 0.13122(8) 0.32636(6)
O9 O 0.4378(4) -0.0940(2) 0.41014(16)
O10 O 0.8673(5) -0.0691(2) 0.46361(16)
O11 O 0.8294(5) -0.2244(2) 0.37229(17)
O12 O 0.3831(4) 0.1436(2) 0.36728(17)
O13 O 0.8363(4) 0.1624(2) 0.38079(16)
O14 O 0.5983(5) 0.2020(2) 0.23885(17)
H5 H 0.729(7) 0.211(3) 0.201(3)
O15 O 1.0207(4) -0.0184(2) 0.29127(17)
H6 H 1.093(6) -0.0836(16) 0.271(2)
C3 C 0.7548(6) -0.0136(3) 0.2992(2)
C4 C 0.6432(7) -0.0436(3) 0.2157(2)
H16 H 0.7138 -0.1188 0.2036
H17 H 0.6787 0.0043 0.1687
H18 H 0.4665 -0.0353 0.2221
Zn2_2 Zn -0.84291(8) 0.04256(4) 0.40908(3)
Zn2_3 Zn 1.15709(8) 0.04256(4) 0.40908(3)
Zn2A Zn 0.84291(8) -0.04256(4) 0.59092(3)
Zn2A_2 Zn -0.15709(8) -0.04256(4) 0.59092(3)
P3_2 P -0.28727(17) -0.10503(8) 0.39288(6)
P4_2 P -0.36640(17) 0.13122(8) 0.32636(6)
O9_2 O -0.5622(4) -0.0940(2) 0.41014(16)
O10_2 O -0.1327(5) -0.0691(2) 0.46361(16)
O10A O 0.1327(5) 0.0691(2) 0.53639(16)
O10_3 O -1.1327(5) -0.0691(2) 0.46361(16)
O10A_2 O -0.8673(5) 0.0691(2) 0.53639(16)
O11_2 O -0.1706(5) -0.2244(2) 0.37229(17)
O12_2 O -0.6169(4) 0.1436(2) 0.36728(17)
O13_2 O -0.1637(4) 0.1624(2) 0.38079(16)
O13_3 O -1.1637(4) 0.1624(2) 0.38079(16)
O14_2 O -0.4017(5) 0.2020(2) 0.23885(17)
H5_2 H -0.271(7) 0.211(3) 0.201(3)
O15_2 O 0.0207(4) -0.0184(2) 0.29127(17)
O15_3 O -0.9793(4) -0.0184(2) 0.29127(17)
H6_2 H 0.093(6) -0.0836(16) 0.271(2)
H6_3 H -0.907(6) -0.0836(16) 0.271(2)
C3_2 C -0.2452(6) -0.0136(3) 0.2992(2)
C4_2 C -0.3568(7) -0.0436(3) 0.2157(2)
H16_2 H -0.2862 -0.1188 0.2036
H17_2 H -0.3213 0.0043 0.1687
H18_2 H -0.5335 -0.0353 0.2221
O2 O 0.2029(6) 0.7936(3) 0.2233(3)
H1 H 0.1169 0.7608 0.1874
H2 H 0.3107 0.7528 0.2605
N1 N 0.7348(6) 0.2768(3) 0.5288(2)
H7 H 0.888(8) 0.267(3) 0.565(3)
H8 H 0.774(8) 0.246(4) 0.483(3)
H9 H 0.656(7) 0.227(3) 0.559(3)
C5 C 0.6115(7) 0.3924(3) 0.5143(3)
C6 C 0.7055(8) 0.4726(4) 0.5535(3)
H19 H 0.861(8) 0.460(4) 0.584(3)
C7 C 0.4055(8) 0.4180(4) 0.4616(3)
H20 H 0.338(8) 0.363(4) 0.441(3)
N1A N 0.2652(6) 0.7232(3) 0.4712(2)
H7A H 0.112(8) 0.733(3) 0.435(3)
H8A H 0.226(8) 0.754(4) 0.517(3)
H9A H 0.344(7) 0.773(3) 0.441(3)
C5A C 0.3885(7) 0.6076(3) 0.4857(3)
C6A C 0.2945(8) 0.5274(4) 0.4465(3)
H19A H 0.139(8) 0.540(4) 0.416(3)
C7A C 0.5945(8) 0.5820(4) 0.5384(3)
H20A H 0.662(8) 0.637(4) 0.559(3)
N2 N 0.5057(7) 0.7741(3) -0.0217(2)
H10 H 0.525(7) 0.725(3) 0.042(3)
H11 H 0.373(8) 0.770(3) -0.051(3)
H12 H 0.653(7) 0.741(3) -0.059(3)
C8 C 0.5058(7) 0.8903(3) -0.0103(2)
C9 C 0.6973(7) 0.9368(3) -0.0434(3)
H21 H 0.824(8) 0.892(4) -0.073(3)
C10 C 0.3099(7) 0.9521(3) 0.0330(3)
H22 H 0.188(7) 0.920(3) 0.059(3)
N2A N 0.4943(7) 1.2259(3) 0.0217(2)
H10A H 0.475(7) 1.275(3) -0.042(3)
H11A H 0.627(8) 1.230(3) 0.051(3)
H12A H 0.347(7) 1.259(3) 0.059(3)
C8A C 0.4942(7) 1.1097(3) 0.0103(2)
C9A C 0.3027(7) 1.0632(3) 0.0434(3)
H21A H 0.176(8) 1.108(4) 0.073(3)
C10A C 0.6901(7) 1.0479(3) -0.0330(3)
H22A H 0.812(7) 1.080(3) -0.059(3)
loop_
_geom_bond_atom_site_label_1
_geom_bond_atom_site_label_2
_geom_bond_site_symmetry_1
_geom_bond_site_symmetry_2
Zn1 O1 1_555 1_555
Zn2 O9 1_555 1_555
P1 O1 1_555 1_555
P2 O5 1_555 1_555
P3 O9 1_555 1_555
P4 O12 1_555 1_555
O2 H1 1_555 1_555
H2 O2 1_555 1_555
O3 P1 1_555 1_555
O4 P1 1_555 1_555
O5 Zn1 1_555 1_555
O6 P2 1_555 1_555
O7 P2 1_555 1_555
H3 O7 1_555 1_555
O8 H4 1_555 1_555
O10 P3 1_555 1_555
O11 P3 1_555 1_555
O12 Zn2 1_555 1_555
O13 P4 1_555 1_555
O14 P4 1_555 1_555
H5 O14 1_555 1_555
O15 H6 1_555 1_555
N1 H7 1_555 1_555
H8 N1 1_555 1_555
H9 N1 1_555 1_555
N2 H10 1_555 1_555
H11 N2 1_555 1_555
H12 N2 1_555 1_555
C1 P1 1_555 1_555
C2 C1 1_555 1_555
H13 C2 1_555 1_555
H14 C2 1_555 1_555
H15 C2 1_555 1_555
C3 P3 1_555 1_555
C4 C3 1_555 1_555
H16 C4 1_555 1_555
H17 C4 1_555 1_555
H18 C4 1_555 1_555
C5 N1 1_555 1_555
C6 C5 1_555 1_555
H19 C6 1_555 1_555
C7 C5 1_555 1_555
H20 C7 1_555 1_555
C8 N2 1_555 1_555
C9 C8 1_555 1_555
H21 C9 1_555 1_555
C10 C8 1_555 1_555
H22 C10 1_555 1_555
Zn1_2 O1_2 1_555 1_555
Zn1_3 O3 1_555 1_555
Zn1A O3 1_555 1_555
Zn1A_2 O3_2 1_555 1_555
Zn2_2 O9_2 1_555 1_555
Zn2_3 O10 1_555 1_555
Zn2A O10 1_555 1_555
Zn2A_2 O10_2 1_555 1_555
P1_2 O1_2 1_555 1_555
P2_2 O5_2 1_555 1_555
P3_2 O9_2 1_555 1_555
P4_2 O12_2 1_555 1_555
O3_2 Zn1 1_555 1_555
O3A Zn1 1_555 1_555
O3_3 Zn1_2 1_555 1_555
O3A_2 Zn1_2 1_555 1_555
O4_2 P1_2 1_555 1_555
O5_2 Zn1_2 1_555 1_555
O6_2 Zn1 1_555 1_555
O6_3 Zn1_2 1_555 1_555
O7_2 P2_2 1_555 1_555
H3_2 O7_2 1_555 1_555
O8_2 Zn1 1_555 1_555
O8_3 Zn1_2 1_555 1_555
H4_2 O8_2 1_555 1_555
H4_3 O8_3 1_555 1_555
O10_2 Zn2 1_555 1_555
O10A Zn2 1_555 1_555
O10_3 Zn2_2 1_555 1_555
O10A_2 Zn2_2 1_555 1_555
O11_2 P3_2 1_555 1_555
O12_2 Zn2_2 1_555 1_555
O13_2 Zn2 1_555 1_555
O13_3 Zn2_2 1_555 1_555
O14_2 P4_2 1_555 1_555
H5_2 O14_2 1_555 1_555
O15_2 Zn2 1_555 1_555
O15_3 Zn2_2 1_555 1_555
H6_2 O15_2 1_555 1_555
H6_3 O15_3 1_555 1_555
N1A H7A 1_555 1_555
H8A N1A 1_555 1_555
H9A N1A 1_555 1_555
N2A H10A 1_555 1_555
H11A N2A 1_555 1_555
H12A N2A 1_555 1_555
C1_2 P1_2 1_555 1_555
C2_2 C1_2 1_555 1_555
H13_2 C2_2 1_555 1_555
H14_2 C2_2 1_555 1_555
H15_2 C2_2 1_555 1_555
C3_2 P3_2 1_555 1_555
C4_2 C3_2 1_555 1_555
H16_2 C4_2 1_555 1_555
H17_2 C4_2 1_555 1_555
H18_2 C4_2 1_555 1_555
C5A N1A 1_555 1_555
C6A C7 1_555 1_555
H19A C6A 1_555 1_555
C7A C6 1_555 1_555
H20A C7A 1_555 1_555
C8A N2A 1_555 1_555
C9A C10 1_555 1_555
H21A C9A 1_555 1_555
C10A C9 1_555 1_555
H22A C10A 1_555 1_555
P2 C1 1_555 1_555
P4 C3 1_555 1_555
O6 Zn1_3 1_555 1_555
O8 C1 1_555 1_555
O8 Zn1_3 1_555 1_555
O13 Zn2_3 1_555 1_555
O15 C3 1_555 1_555
O15 Zn2_3 1_555 1_555
Zn1A_2 O3A 1_555 1_555
Zn2A_2 O10A 1_555 1_555
P1_2 O3_2 1_555 1_555
P2_2 O6_2 1_555 1_555
P2_2 C1_2 1_555 1_555
P3_2 O10_2 1_555 1_555
P4_2 O13_2 1_555 1_555
P4_2 C3_2 1_555 1_555
O8_2 C1_2 1_555 1_555
O15_2 C3_2 1_555 1_555
C5A C6A 1_555 1_555
C5A C7A 1_555 1_555
C8A C9A 1_555 1_555
C8A C10A 1_555 1_555

#END
