
#######################################################################
#
#                 Cambridge Crystallographic Data Centre
#                                CCDC 
#
#######################################################################
#
# If this CIF has been generated from an entry in the Cambridge 
# Structural Database, then it will include bibliographic, chemical, 
# crystal, experimental, refinement or atomic coordinate data resulting 
# from the CCDC's data processing and validation procedures.
#
#######################################################################

data_LAKYAZ
_symmetry_cell_setting           monoclinic
_symmetry_space_group_name_H-M   'P 21/n'
_symmetry_Int_Tables_number      14
_space_group_name_Hall           '-P 2yn'
loop_
_symmetry_equiv_pos_site_id
_symmetry_equiv_pos_as_xyz
1 x,y,z
2 1/2-x,1/2+y,1/2-z
3 -x,-y,-z
4 1/2+x,1/2-y,1/2+z
_cell_length_a                   10.269(2)
_cell_length_b                   10.462(2)
_cell_length_c                   15.875(4)
_cell_angle_alpha                90
_cell_angle_beta                 107.657(4)
_cell_angle_gamma                90
_cell_volume                     1625.17
loop_
_atom_site_label
_atom_site_type_symbol
_atom_site_fract_x
_atom_site_fract_y
_atom_site_fract_z
O1 O -0.46128(14) 0.78347(15) 0.26905(10)
Co1 Co 0.07495(3) 0.39043(3) 0.163829(18)
O2 O -0.11556(14) 0.45571(14) 0.08683(9)
O3 O 0.25608(16) 0.34215(17) 0.25977(11)
N1 N -0.20058(17) 0.50277(16) 0.12834(11)
O4 O 0.07812(14) 0.56249(15) 0.22872(10)
O5 O 0.00300(15) 0.75450(15) 0.25060(12)
C1 C -0.1623(2) 0.60238(19) 0.18585(14)
C2 C -0.0138(2) 0.6432(2) 0.22342(14)
C3 C -0.4241(2) 0.5092(2) 0.13965(15)
H1 H -0.5113 0.4743 0.1265
C4 C -0.2605(2) 0.6623(2) 0.21443(14)
H2 H -0.2365 0.7334 0.2510
C5 C -0.3934(2) 0.6192(2) 0.19001(15)
C6 C -0.3274(2) 0.4504(2) 0.10858(14)
C7 C -0.3536(2) 0.3318(2) 0.05395(17)
H3 H -0.3582 0.3524 -0.0058
H4 H -0.4387 0.2946 0.0548
H5 H -0.2809 0.2719 0.0777
O6 O -0.62237(16) 0.65990(19) 0.18252(13)
N2 N 0.08006(18) 0.24023(17) 0.07788(12)
O7 O 0.1910(2) 0.48828(18) 0.09268(12)
C8 C 0.0359(2) 0.2457(2) -0.01296(16)
H6 H -0.0179 0.3104 -0.0462
C9 C 0.1538(2) 0.1343(2) 0.09748(16)
H7 H 0.1976 0.1061 0.1546
C10 C -0.5020(2) 0.6928(2) 0.21677(15)
N3 N 0.15668(19) 0.07353(18) 0.02394(13)
C11 C 0.0820(3) 0.1436(3) -0.04637(17)
H8 H 0.0660 0.1245 -0.1059
C12 C 0.2321(3) -0.0437(2) 0.02042(19)
H9 H 0.1789 -0.0955 -0.0287
H10 H 0.2431 -0.0919 0.0743
C13 C 0.3705(2) -0.0199(2) 0.00981(16)
C14 C 0.4875(3) -0.0366(2) 0.07991(16)
H11 H 0.4801 -0.0614 0.1345
C15 C 0.3850(3) 0.0172(2) -0.07078(16)
H12 H 0.3076 0.0292 -0.1191
H13 H 0.170(3) 0.503(3) 0.034(2)
H14 H 0.328(4) 0.315(3) 0.250(2)
H15 H 0.231(3) 0.283(3) 0.286(2)
H16 H 0.248(3) 0.538(3) 0.115(2)
O1A O -0.03872(14) 0.28347(15) 0.23095(10)
O1_2 O -0.46128(14) -0.21653(15) 0.26905(10)
Co1A Co -0.57495(3) -0.10957(3) 0.336171(18)
Co1A_2 Co -0.57495(3) 0.89043(3) 0.336171(18)
Co1B Co 0.92505(3) -0.39043(3) -0.163829(18)
O2A O -0.38444(14) -0.04429(14) 0.41317(9)
O3A O -0.75608(16) -0.15785(17) 0.24023(11)
N1A N -0.29942(17) 0.00277(16) 0.37166(11)
O4A O -0.57812(14) 0.06249(15) 0.27128(10)
O5A O -0.50300(15) 0.25450(15) 0.24940(12)
C1A C -0.3377(2) 0.10238(19) 0.31415(14)
C2A C -0.4862(2) 0.1432(2) 0.27658(14)
C3A C -0.0759(2) 0.0092(2) 0.36035(15)
H1A H 0.0113 -0.0257 0.3735
C4A C -0.2395(2) 0.1623(2) 0.28557(14)
H2A H -0.2635 0.2334 0.2490
C5A C -0.1066(2) 0.1192(2) 0.30999(15)
C6A C -0.1726(2) -0.0496(2) 0.39142(14)
C7A C -0.1464(2) -0.1682(2) 0.44605(17)
H3A H -0.1418 -0.1476 0.5058
H4A H -0.0613 -0.2054 0.4452
H5A H -0.2191 -0.2281 0.4223
O6A O 0.12237(16) 0.15990(19) 0.31748(13)
N2B N 0.91994(18) -0.24023(17) -0.07788(12)
N2A N -0.58006(18) -0.25977(17) 0.42212(12)
O7A O -0.6910(2) -0.01172(18) 0.40732(12)
C8B C 0.9641(2) -0.2457(2) 0.01296(16)
H6B H 1.0179 -0.3104 0.0462
C9B C 0.8462(2) -0.1343(2) -0.09748(16)
H7B H 0.8024 -0.1061 -0.1546
C10A C 0.0020(2) 0.1928(2) 0.28323(15)
N3B N 0.84332(19) -0.07353(18) -0.02394(13)
C11B C 0.9180(3) -0.1436(3) 0.04637(17)
H8B H 0.9340 -0.1245 0.1059
C12B C 0.7679(3) 0.0437(2) -0.02042(19)
H9B H 0.8211 0.0955 0.0287
H10B H 0.7569 0.0919 -0.0743
C13B C 0.6295(2) 0.0199(2) -0.00981(16)
C14B C 0.5125(3) 0.0366(2) -0.07991(16)
H11B H 0.5199 0.0614 -0.1345
C15B C 0.6150(3) -0.0172(2) 0.07078(16)
H12B H 0.6924 -0.0292 0.1191
H13A H -0.670(3) 0.003(3) 0.466(2)
H14A H -0.828(4) -0.185(3) 0.250(2)
H15A H -0.731(3) -0.217(3) 0.214(2)
H16A H -0.748(3) 0.038(3) 0.385(2)
loop_
_geom_bond_atom_site_label_1
_geom_bond_atom_site_label_2
_geom_bond_site_symmetry_1
_geom_bond_site_symmetry_2
O1 C10 1_555 1_555
Co1 O2 1_555 1_555
O2 N1 1_555 1_555
O3 Co1 1_555 1_555
N1 C1 1_555 1_555
O4 Co1 1_555 1_555
O5 C2 1_555 1_555
C1 C2 1_555 1_555
C2 O4 1_555 1_555
C3 H1 1_555 1_555
C4 C1 1_555 1_555
H2 C4 1_555 1_555
C5 C3 1_555 1_555
C6 N1 1_555 1_555
C7 C6 1_555 1_555
H3 C7 1_555 1_555
H4 C7 1_555 1_555
H5 C7 1_555 1_555
O6 C10 1_555 1_555
N2 Co1 1_555 1_555
O7 Co1 1_555 1_555
C8 N2 1_555 1_555
H6 C8 1_555 1_555
C9 N2 1_555 1_555
H7 C9 1_555 1_555
C10 C5 1_555 1_555
N3 C9 1_555 1_555
C11 C8 1_555 1_555
H8 C11 1_555 1_555
C12 N3 1_555 1_555
H9 C12 1_555 1_555
H10 C12 1_555 1_555
C13 C12 1_555 1_555
C14 C13 1_555 1_555
H11 C14 1_555 1_555
C15 C13 1_555 1_555
H12 C15 1_555 1_555
H13 O7 1_555 1_555
H14 O3 1_555 1_555
H15 O3 1_555 1_555
H16 O7 1_555 1_555
O1A Co1 1_555 1_555
O1_2 Co1A 1_555 1_555
Co1A O2A 1_555 1_555
Co1A_2 O1 1_555 1_555
Co1B N2B 1_555 1_555
O2A N1A 1_555 1_555
O3A Co1A 1_555 1_555
N1A C1A 1_555 1_555
O4A Co1A 1_555 1_555
O5A C2A 1_555 1_555
C1A C2A 1_555 1_555
C2A O4A 1_555 1_555
C3A H1A 1_555 1_555
C4A C1A 1_555 1_555
H2A C4A 1_555 1_555
C5A C3A 1_555 1_555
C6A N1A 1_555 1_555
C7A C6A 1_555 1_555
H3A C7A 1_555 1_555
H4A C7A 1_555 1_555
H5A C7A 1_555 1_555
O6A C10A 1_555 1_555
N2B C8B 1_555 1_555
N2A Co1A 1_555 1_555
O7A Co1A 1_555 1_555
C8B H6B 1_555 1_555
C9B N2B 1_555 1_555
H7B C9B 1_555 1_555
C10A O1A 1_555 1_555
N3B C9B 1_555 1_555
C11B C8B 1_555 1_555
H8B C11B 1_555 1_555
C12B N3B 1_555 1_555
H9B C12B 1_555 1_555
H10B C12B 1_555 1_555
C13B C12B 1_555 1_555
C14B C15 1_555 1_555
H11B C14B 1_555 1_555
C15B C14 1_555 1_555
H12B C15B 1_555 1_555
H13A O7A 1_555 1_555
H14A O3A 1_555 1_555
H15A O3A 1_555 1_555
H16A O7A 1_555 1_555
C3 C6 1_555 1_555
C4 C5 1_555 1_555
N3 C11 1_555 1_555
C3A C6A 1_555 1_555
C4A C5A 1_555 1_555
C5A C10A 1_555 1_555
N3B C11B 1_555 1_555
C13B C14B 1_555 1_555
C13B C15B 1_555 1_555

#END
