
#######################################################################
#
#                 Cambridge Crystallographic Data Centre
#                                CCDC 
#
#######################################################################
#
# If this CIF has been generated from an entry in the Cambridge 
# Structural Database, then it will include bibliographic, chemical, 
# crystal, experimental, refinement or atomic coordinate data resulting 
# from the CCDC's data processing and validation procedures.
#
#######################################################################

data_LALBOR
_symmetry_cell_setting           monoclinic
_symmetry_space_group_name_H-M   'C 2/c'
_symmetry_Int_Tables_number      15
_space_group_name_Hall           '-C 2yn'
loop_
_symmetry_equiv_pos_site_id
_symmetry_equiv_pos_as_xyz
1 x,y,z
2 -x,y,1/2-z
3 1/2+x,1/2+y,z
4 1/2-x,1/2+y,1/2-z
5 -x,-y,-z
6 x,-y,1/2+z
7 1/2-x,1/2-y,-z
8 1/2+x,1/2-y,1/2+z
_cell_length_a                   6.6057(7)
_cell_length_b                   19.747(2)
_cell_length_c                   11.5891(13)
_cell_angle_alpha                90
_cell_angle_beta                 91.723(10)
_cell_angle_gamma                90
_cell_volume                     1511.03
loop_
_atom_site_label
_atom_site_type_symbol
_atom_site_fract_x
_atom_site_fract_y
_atom_site_fract_z
Cu1 Cu 0.0000 0.37077(5) 0.2500
Pt1 Pt 0.5000 0.5000 0.5000
N1 N 0.1744(6) 0.2927(2) 0.3077(4)
C1 C 0.0891(8) 0.1074(3) 0.2784(5)
H1 H 0.1515 0.0664 0.2962
C2 C 0.2889(7) 0.4625(3) 0.3927(5)
N2 N 0.1746(6) 0.4375(2) 0.3318(4)
C3 C 0.0949(7) 0.2306(3) 0.2816(5)
N3 N -0.2201(7) 0.3792(3) 0.4290(5)
C4 C 0.4521(8) 0.2347(3) 0.4009(5)
H2 H 0.5751 0.2377 0.4418
C5 C 0.3498(8) 0.2938(3) 0.3648(5)
H3 H 0.4086 0.3355 0.3820
C6 C 0.3700(9) 0.1735(3) 0.3755(5)
H4 H 0.4357 0.1342 0.4001
C7 C -0.3173(8) 0.4232(3) 0.4565(5)
C8 C 0.1865(8) 0.1692(3) 0.3124(5)
Cu1D Cu 1.0000 0.62923(5) 0.7500
Pt1_2 Pt -0.5000 0.5000 0.5000
Pt1A Pt -0.5000 0.5000 0.0000
N1A N -0.1744(6) 0.2927(2) 0.1923(4)
C1A C -0.0891(8) 0.1074(3) 0.2216(5)
H1A H -0.1515 0.0664 0.2038
C2A C -0.2889(7) 0.4625(3) 0.1073(5)
C2D C 0.7111(7) 0.5375(3) 0.6073(5)
N2A N -0.1746(6) 0.4375(2) 0.1682(4)
N2D N 0.8254(6) 0.5625(2) 0.6682(4)
C3A C -0.0949(7) 0.2306(3) 0.2184(5)
N3A N 0.2201(7) 0.3792(3) 0.0710(5)
C4A C -0.4521(8) 0.2347(3) 0.0991(5)
H2A H -0.5751 0.2377 0.0582
C5A C -0.3498(8) 0.2938(3) 0.1352(5)
H3A H -0.4086 0.3355 0.1180
C6A C -0.3700(9) 0.1735(3) 0.1245(5)
H4A H -0.4357 0.1342 0.0999
C7_2 C 0.6827(8) 0.4232(3) 0.4565(5)
C7D C 0.3173(8) 0.5768(3) 0.5435(5)
C8A C -0.1865(8) 0.1692(3) 0.1876(5)
loop_
_geom_bond_atom_site_label_1
_geom_bond_atom_site_label_2
_geom_bond_site_symmetry_1
_geom_bond_site_symmetry_2
Cu1 N1 1_555 1_555
Pt1 C2 1_555 1_555
N1 C3 1_555 1_555
C1 H1 1_555 1_555
C2 N2 1_555 1_555
N2 Cu1 1_555 1_555
C3 C8 1_555 1_555
N3 Cu1 1_555 1_555
C4 H2 1_555 1_555
C5 N1 1_555 1_555
H3 C5 1_555 1_555
C6 C4 1_555 1_555
H4 C6 1_555 1_555
C7 N3 1_555 1_555
C8 C1 1_555 1_555
Cu1D N2D 1_555 1_555
Pt1_2 C7 1_555 1_555
Pt1A C2A 1_555 1_555
N1A Cu1 1_555 1_555
C1A C1 1_555 1_555
H1A C1A 1_555 1_555
C2A N2A 1_555 1_555
C2D Pt1 1_555 1_555
N2A Cu1 1_555 1_555
N2D C2D 1_555 1_555
C3A C3 1_555 1_555
N3A Cu1 1_555 1_555
C4A H2A 1_555 1_555
C5A N1A 1_555 1_555
H3A C5A 1_555 1_555
C6A C4A 1_555 1_555
H4A C6A 1_555 1_555
C7_2 Pt1 1_555 1_555
C7D Pt1 1_555 1_555
C8A C1A 1_555 1_555
C4 C5 1_555 1_555
C6 C8 1_555 1_555
N1A C3A 1_555 1_555
C3A C8A 1_555 1_555
C4A C5A 1_555 1_555
C6A C8A 1_555 1_555

#END
