
#######################################################################
#
#                 Cambridge Crystallographic Data Centre
#                                CCDC 
#
#######################################################################
#
# If this CIF has been generated from an entry in the Cambridge 
# Structural Database, then it will include bibliographic, chemical, 
# crystal, experimental, refinement or atomic coordinate data resulting 
# from the CCDC's data processing and validation procedures.
#
#######################################################################

data_LALCUX
_symmetry_cell_setting           rhombohedral
_symmetry_space_group_name_H-M   'R -3 m'
_symmetry_Int_Tables_number      166
_space_group_name_Hall           '-R 3 2"'
loop_
_symmetry_equiv_pos_site_id
_symmetry_equiv_pos_as_xyz
1 x,y,z
2 -y,x-y,z
3 -x+y,-x,z
4 y,x,-z
5 2/3+x,1/3+y,1/3+z
6 2/3-y,1/3+x-y,1/3+z
7 2/3-x+y,1/3-x,1/3+z
8 2/3+y,1/3+x,1/3-z
9 1/3+x,2/3+y,2/3+z
10 1/3+y,2/3+x,2/3-z
11 x-y,-y,-z
12 -x,-x+y,-z
13 1/3-y,2/3+x-y,2/3+z
14 1/3-x+y,2/3-x,2/3+z
15 1/3+x-y,2/3-y,2/3-z
16 1/3-x,2/3-x+y,2/3-z
17 2/3+x-y,1/3-y,1/3-z
18 2/3-x,1/3-x+y,1/3-z
19 -x,-y,-z
20 y,-x+y,-z
21 x-y,x,-z
22 -y,-x,z
23 1/3-x,2/3-y,2/3-z
24 1/3+y,2/3-x+y,2/3-z
25 1/3+x-y,2/3+x,2/3-z
26 1/3-y,2/3-x,2/3+z
27 2/3-x,1/3-y,1/3-z
28 2/3-y,1/3-x,1/3+z
29 -x+y,y,z
30 x,x-y,z
31 2/3+y,1/3-x+y,1/3-z
32 2/3+x-y,1/3+x,1/3-z
33 2/3-x+y,1/3+y,1/3+z
34 2/3+x,1/3+x-y,1/3+z
35 1/3-x+y,2/3+y,2/3+z
36 1/3+x,2/3+x-y,2/3+z
_cell_length_a                   11.1999(12)
_cell_length_b                   11.1999(12)
_cell_length_c                   27.428(3)
_cell_angle_alpha                90
_cell_angle_beta                 90
_cell_angle_gamma                120.00
_cell_volume                     2979.57
loop_
_atom_site_label
_atom_site_type_symbol
_atom_site_fract_x
_atom_site_fract_y
_atom_site_fract_z
Ba1 Ba 0.6667 0.3333 0.11278(3)
Ba2 Ba 0.3334 0.6666 0.04254(3)
Fe1 Fe 0.46051(7) 0.53949(7) 0.13444(5)
O1 O 0.4282(3) 0.5718(3) 0.2065(2)
H1 H 0.459(7) 0.541(7) 0.229(5)
O2 O 0.4240(5) 0.3322(5) 0.14168(18)
C1 C 0.3333 0.2362(8) 0.1667
O3 O 0.4678(4) 0.5322(4) 0.0595(3)
O4 O 0.5760(4) 0.4240(4) 0.0332(3)
C2 C 0.5144(5) 0.4856(5) 0.0273(3)
Ba1DA Ba -0.0000 -0.0001 0.22055(3)
Ba1EA Ba 1.0001 0.0000 0.22055(3)
Ba1G Ba 1.0000 1.0000 0.22055(3)
Ba1C Ba 0.3333 0.6667 -0.11278(3)
Ba1C_2 Ba 0.3333 -0.3333 -0.11278(3)
Ba1C_3 Ba 1.3333 0.6667 -0.11278(3)
Ba1_2 Ba -0.3333 0.3333 0.11278(3)
Ba1_3 Ba 0.6667 1.3333 0.11278(3)
Ba1_4 Ba -0.3333 -0.6667 0.11278(3)
Ba1D Ba 0.3334 0.6666 0.44611(3)
Ba1_5 Ba 1.6667 0.3333 0.11278(3)
Ba2C Ba 0.6666 0.3334 -0.04254(3)
Ba2A Ba 0.3334 -0.3332 0.04254(3)
Ba2B Ba 1.3332 0.6666 0.04254(3)
Ba2C_2 Ba -0.3334 0.3334 -0.04254(3)
Ba2C_3 Ba 0.6666 1.3334 -0.04254(3)
Ba2G Ba 0.3333 0.6667 0.29079(3)
Ba2D Ba 0.0001 -0.0001 0.37587(3)
Fe1DA Fe 0.20616(7) 0.41231(10) 0.19889(5)
Fe1A Fe 0.46051(7) -0.07898(10) 0.13444(5)
Fe1G Fe 0.20616(7) -0.20616(7) 0.19889(5)
Fe1EA Fe 0.58769(10) -0.20616(7) 0.19889(5)
Fe1B Fe 1.07898(10) 0.53949(7) 0.13444(5)
Fe1DA_2 Fe 1.20616(7) 0.41231(10) 0.19889(5)
Fe1G_2 Fe 1.20616(7) 0.79384(7) 0.19889(5)
Fe1EA_2 Fe 0.58769(10) 0.79384(7) 0.19889(5)
Fe1C Fe 0.53949(7) 0.46051(7) -0.13444(5)
Fe1S Fe 0.53949(7) 0.07898(10) -0.13444(5)
Fe1T Fe 0.92102(10) 0.46051(7) -0.13444(5)
Fe1B_2 Fe 0.07898(10) 0.53949(7) 0.13444(5)
Fe1T_2 Fe -0.07898(10) 0.46051(7) -0.13444(5)
Fe1A_2 Fe 0.46051(7) 0.92102(10) 0.13444(5)
Fe1S_2 Fe 0.53949(7) 1.07898(10) -0.13444(5)
Fe1B_3 Fe 0.07898(10) -0.46051(7) 0.13444(5)
Fe1EA_3 Fe -0.41231(10) -0.20616(7) 0.19889(5)
Fe1_2 Fe -0.53949(7) -0.46051(7) 0.13444(5)
Fe1A_3 Fe -0.53949(7) -0.07898(10) 0.13444(5)
Fe1E Fe 0.12718(7) 0.25435(10) 0.46777(5)
Fe1_3 Fe 1.46051(7) 0.53949(7) 0.13444(5)
Fe1G_3 Fe 1.20616(7) -0.20616(7) 0.19889(5)
Fe1A_4 Fe 1.46051(7) -0.07898(10) 0.13444(5)
Fe1G_4 Fe 0.20616(7) 0.79384(7) 0.19889(5)
Fe1_4 Fe 0.46051(7) -0.46051(7) 0.13444(5)
Fe1DA_3 Fe 0.20616(7) -0.58769(10) 0.19889(5)
Fe1A_5 Fe 1.46051(7) 0.92102(10) 0.13444(5)
O1DA O 0.2385(3) 0.4769(4) 0.1268(2)
O1EA O 0.5231(4) 0.7615(3) 0.1268(2)
O1B O 0.1436(4) 0.5718(3) 0.2065(2)
O1A O 0.4282(3) -0.1436(4) 0.2065(2)
O1G O 0.2385(3) -0.2385(3) 0.1268(2)
O1EA_2 O 0.5231(4) -0.2385(3) 0.1268(2)
O1B_2 O 0.1436(4) -0.4282(3) 0.2065(2)
O1_2 O 0.4282(3) -0.4282(3) 0.2065(2)
O1B_3 O 1.1436(4) 0.5718(3) 0.2065(2)
O1DA_2 O 1.2385(3) 0.4769(4) 0.1268(2)
O1G_2 O 1.2385(3) 0.7615(3) 0.1268(2)
O1_3 O 1.4282(3) 0.5718(3) 0.2065(2)
O1A_2 O 1.4282(3) 0.8564(4) 0.2065(2)
O1A_3 O 0.4282(3) 0.8564(4) 0.2065(2)
O1C O 0.5718(3) 0.4282(3) -0.2065(2)
O1HA O 0.4769(4) 0.2385(3) -0.1268(2)
O1IA O 0.7615(3) 0.5231(4) -0.1268(2)
O1H O 0.7615(3) 0.2385(3) -0.1268(2)
O1S O 0.5718(3) 0.1436(4) -0.2065(2)
O1T O 0.8564(4) 0.4282(3) -0.2065(2)
H1DA H 0.208(7) 0.415(10) 0.104(5)
H1EA H 0.585(10) 0.792(7) 0.104(5)
H1B H 0.082(10) 0.541(7) 0.229(5)
H1A H 0.459(7) -0.082(10) 0.229(5)
H1G H 0.208(7) -0.208(7) 0.104(5)
H1EA_2 H 0.585(10) -0.208(7) 0.104(5)
H1B_2 H 0.082(10) -0.459(7) 0.229(5)
H1_2 H 0.459(7) -0.459(7) 0.229(5)
H1B_3 H 1.082(10) 0.541(7) 0.229(5)
H1DA_2 H 1.208(7) 0.415(10) 0.104(5)
H1G_2 H 1.208(7) 0.792(7) 0.104(5)
H1_3 H 1.459(7) 0.541(7) 0.229(5)
H1A_2 H 1.459(7) 0.918(10) 0.229(5)
H1A_3 H 0.459(7) 0.918(10) 0.229(5)
H1C H 0.541(7) 0.459(7) -0.229(5)
H1HA H 0.415(10) 0.208(7) -0.104(5)
H1IA H 0.792(7) 0.585(10) -0.104(5)
H1H H 0.792(7) 0.208(7) -0.104(5)
H1S H 0.541(7) 0.082(10) -0.229(5)
H1T H 0.918(10) 0.459(7) -0.229(5)
O2Q O 0.2427(5) 0.2415(7) 0.19165(18)
O2CA O 0.4240(5) 0.0918(7) 0.14168(18)
O2Z O 0.2427(5) 0.0011(5) 0.19165(18)
O2A O 0.6678(5) 0.0918(7) 0.14168(18)
O2P O 0.7585(7) 0.0011(5) 0.19165(18)
O2BA O 0.9082(7) 0.3322(5) 0.14168(18)
O2DA O 0.9989(5) 0.2415(7) 0.19165(18)
O2B O 0.9082(7) 0.5760(5) 0.14168(18)
O2G O 0.9989(5) 0.7573(5) 0.19165(18)
O2U O 0.6678(5) 0.5760(5) 0.14168(18)
O2EA O 0.7585(7) 0.7573(5) 0.19165(18)
O2G_2 O -0.0011(5) -0.2427(5) 0.19165(18)
O2B_2 O -0.0918(7) -0.4240(5) 0.14168(18)
O2EA_2 O -0.2415(7) -0.2427(5) 0.19165(18)
O2U_2 O -0.3322(5) -0.4240(5) 0.14168(18)
O2P_2 O -0.2415(7) 0.0011(5) 0.19165(18)
O2A_2 O -0.3322(5) 0.0918(7) 0.14168(18)
O2DA_2 O -0.0011(5) 0.2415(7) 0.19165(18)
O2BA_2 O -0.0918(7) 0.3322(5) 0.14168(18)
O2Q_2 O 1.2427(5) 0.2415(7) 0.19165(18)
O2_2 O 1.4240(5) 0.3322(5) 0.14168(18)
O2Z_2 O 1.2427(5) 0.0011(5) 0.19165(18)
O2CA_2 O 1.4240(5) 0.0918(7) 0.14168(18)
O2G_3 O 0.9989(5) -0.2427(5) 0.19165(18)
O2EA_3 O 0.7585(7) -0.2427(5) 0.19165(18)
O2DA_3 O 0.9989(5) 1.2415(7) 0.19165(18)
O2Z_3 O 1.2427(5) 1.0011(5) 0.19165(18)
O2P_3 O 0.7585(7) 1.0011(5) 0.19165(18)
O2Q_3 O 1.2427(5) 1.2415(7) 0.19165(18)
O2C O 0.3322(5) 0.4240(5) -0.14168(18)
O2R O 0.5760(5) 0.6678(5) -0.14168(18)
O2S O 0.3322(5) -0.0918(7) -0.14168(18)
O2K O 0.5760(5) -0.0918(7) -0.14168(18)
O2T O 1.0918(7) 0.4240(5) -0.14168(18)
O2J O 1.0918(7) 0.6678(5) -0.14168(18)
C1CA C 0.3333 0.0971(8) 0.1667
C1A C 0.7638(8) 0.0971(8) 0.1667
C1BA C 0.9029(8) 0.2362(8) 0.1667
C1B C 0.9029(8) 0.6667 0.1667
C1U C 0.7638(8) 0.6667 0.1667
C1G C -0.0971(8) -0.3334 0.1666
C1EA C -0.2362(8) -0.3334 0.1666
C1P C -0.2362(8) 0.0971(8) 0.1666
C1DA C -0.0971(8) 0.2362(8) 0.1666
C1Q C 1.3334 0.2362(8) 0.1666
C1Z C 1.3334 0.0971(8) 0.1666
O3C O 0.5322(4) 0.4678(4) -0.0595(3)
O3A O 0.4678(4) -0.0644(6) 0.0595(3)
O3S O 0.5322(4) 0.0644(6) -0.0595(3)
O3B O 1.0644(6) 0.5322(4) 0.0595(3)
O3T O 0.9356(6) 0.4678(4) -0.0595(3)
O3B_2 O 0.0644(6) 0.5322(4) 0.0595(3)
O3T_2 O -0.0644(6) 0.4678(4) -0.0595(3)
O3A_2 O 0.4678(4) 0.9356(6) 0.0595(3)
O3S_2 O 0.5322(4) 1.0644(6) -0.0595(3)
O3DA O 0.1989(4) 0.3977(6) 0.2738(3)
O3E O 0.1345(4) 0.2689(6) 0.3928(3)
O3_2 O 0.4678(4) -0.4678(4) 0.0595(3)
O3B_3 O 0.0644(6) -0.4678(4) 0.0595(3)
O3_3 O 1.4678(4) 0.5322(4) 0.0595(3)
O3A_3 O 1.4678(4) 0.9356(6) 0.0595(3)
O3G O 0.1989(4) -0.1989(4) 0.2738(3)
O3EA O 0.6023(6) -0.1989(4) 0.2738(3)
O3DA_2 O 1.1989(4) 0.3977(6) 0.2738(3)
O3G_2 O 1.1989(4) 0.8011(4) 0.2738(3)
O3EA_2 O 0.6023(6) 0.8011(4) 0.2738(3)
O4C O 0.4240(4) 0.5760(4) -0.0332(3)
O4A O 0.5760(4) 0.1520(6) 0.0332(3)
O4S O 0.4240(4) -0.1520(6) -0.0332(3)
O4B O 0.8480(6) 0.4240(4) 0.0332(3)
O4T O 1.1520(6) 0.5760(4) -0.0332(3)
O4B_2 O -0.1520(6) 0.4240(4) 0.0332(3)
O4T_2 O 0.1520(6) 0.5760(4) -0.0332(3)
O4A_2 O 0.5760(4) 1.1520(6) 0.0332(3)
O4S_2 O 0.4240(4) 0.8480(6) -0.0332(3)
O4DA O 0.0907(4) 0.1813(6) 0.3001(3)
O4E O 0.2427(4) 0.4853(6) 0.3665(3)
O4G O 0.0907(4) -0.0907(4) 0.3001(3)
O4EA O -0.1813(6) -0.0907(4) 0.3001(3)
O4G_2 O 1.0907(4) -0.0907(4) 0.3001(3)
O4DA_2 O 1.0907(4) 0.1813(6) 0.3001(3)
O4EA_2 O 0.8187(6) -0.0907(4) 0.3001(3)
O4G_3 O 1.0907(4) 0.9093(4) 0.3001(3)
O4DA_3 O 1.0907(4) 1.1813(6) 0.3001(3)
O4EA_3 O 0.8187(6) 0.9093(4) 0.3001(3)
O4C_2 O 0.4240(4) -0.4240(4) -0.0332(3)
O4T_3 O 0.1520(6) -0.4240(4) -0.0332(3)
O4C_3 O 1.4240(4) 0.5760(4) -0.0332(3)
O4S_3 O 1.4240(4) 0.8480(6) -0.0332(3)
C2C C 0.4856(5) 0.5144(5) -0.0273(3)
C2A C 0.5144(5) 0.0288(7) 0.0273(3)
C2S C 0.4856(5) -0.0288(7) -0.0273(3)
C2B C 0.9712(7) 0.4856(5) 0.0273(3)
C2T C 1.0288(7) 0.5144(5) -0.0273(3)
C2B_2 C -0.0288(7) 0.4856(5) 0.0273(3)
C2T_2 C 0.0288(7) 0.5144(5) -0.0273(3)
C2A_2 C 0.5144(5) 1.0288(7) 0.0273(3)
C2S_2 C 0.4856(5) 0.9712(7) -0.0273(3)
C2DA C 0.1523(5) 0.3045(7) 0.3060(3)
C2E C 0.1811(5) 0.3621(7) 0.3606(3)
O5 O 0.6667 0.3333 0.2159(6)
I1 I 0.53696(14) 0.46304(14) 0.30851(11)
O5DA O -0.0000 -0.0001 0.1174(6)
O5EA O 1.0001 0.0000 0.1174(6)
O5G O 1.0000 1.0000 0.1174(6)
H2? H 0.641(11) 0.28(2) 0.241(6)
O6? O 0.5422(11) 0.4578(11) 0.2725(9)
loop_
_geom_bond_atom_site_label_1
_geom_bond_atom_site_label_2
_geom_bond_site_symmetry_1
_geom_bond_site_symmetry_2
Ba1 O2 1_555 1_555
Ba2 O3 1_555 1_555
Fe1 O1 1_555 1_555
O1 H1 1_555 1_555
O2 Fe1 1_555 1_555
C1 O2 1_555 1_555
O3 Fe1 1_555 1_555
O4 Ba1 1_555 1_555
C2 O3 1_555 1_555
Ba1DA O2Q 1_555 1_555
Ba1EA O2P 1_555 1_555
Ba1G O2G 1_555 1_555
Ba1C O2C 1_555 1_555
Ba1C_2 O2S 1_555 1_555
Ba1C_3 O2T 1_555 1_555
Ba1_2 O2A_2 1_555 1_555
Ba1_3 O4A_2 1_555 1_555
Ba1_4 O2B_2 1_555 1_555
Ba1D O4E 1_555 1_555
Ba1_5 O2_2 1_555 1_555
Ba2C O4 1_555 1_555
Ba2A O3A 1_555 1_555
Ba2B O3B 1_555 1_555
Ba2C_2 O3T_2 1_555 1_555
Ba2C_3 O3S_2 1_555 1_555
Ba2G O3DA 1_555 1_555
Ba2D O3E 1_555 1_555
Fe1DA O1 1_555 1_555
Fe1A O1A 1_555 1_555
Fe1G O1A 1_555 1_555
Fe1EA O1A 1_555 1_555
Fe1B O1B_3 1_555 1_555
Fe1DA_2 O1B_3 1_555 1_555
Fe1G_2 O1B_3 1_555 1_555
Fe1EA_2 O1 1_555 1_555
Fe1C O1C 1_555 1_555
Fe1S O1HA 1_555 1_555
Fe1T O1IA 1_555 1_555
Fe1B_2 O1DA 1_555 1_555
Fe1T_2 O3T_2 1_555 1_555
Fe1A_2 O1EA 1_555 1_555
Fe1S_2 O3S_2 1_555 1_555
Fe1B_3 O1G 1_555 1_555
Fe1EA_3 O2EA_2 1_555 1_555
Fe1_2 O2U_2 1_555 1_555
Fe1A_3 O2A_2 1_555 1_555
Fe1E O3E 1_555 1_555
Fe1_3 O1DA_2 1_555 1_555
Fe1G_3 O2Z_2 1_555 1_555
Fe1A_4 O2CA_2 1_555 1_555
Fe1G_4 O1B 1_555 1_555
Fe1_4 O1EA_2 1_555 1_555
Fe1DA_3 O1B_2 1_555 1_555
Fe1A_5 O1G_2 1_555 1_555
O1DA Fe1 1_555 1_555
O1EA Fe1 1_555 1_555
O1B Fe1DA 1_555 1_555
O1A H1A 1_555 1_555
O1G Fe1A 1_555 1_555
O1EA_2 Fe1A 1_555 1_555
O1B_2 Fe1G 1_555 1_555
O1_2 Fe1EA 1_555 1_555
O1B_3 H1B_3 1_555 1_555
O1DA_2 Fe1B 1_555 1_555
O1G_2 Fe1B 1_555 1_555
O1_3 Fe1DA_2 1_555 1_555
O1A_2 Fe1G_2 1_555 1_555
O1A_3 Fe1EA_2 1_555 1_555
O1C H1C 1_555 1_555
O1HA Fe1C 1_555 1_555
O1IA Fe1C 1_555 1_555
O1H Fe1S 1_555 1_555
O1S Fe1S 1_555 1_555
O1T Fe1T 1_555 1_555
H1DA O1DA 1_555 1_555
H1EA O1EA 1_555 1_555
H1B O1B 1_555 1_555
H1G O1G 1_555 1_555
H1EA_2 O1EA_2 1_555 1_555
H1B_2 O1B_2 1_555 1_555
H1_2 O1_2 1_555 1_555
H1DA_2 O1DA_2 1_555 1_555
H1G_2 O1G_2 1_555 1_555
H1_3 O1_3 1_555 1_555
H1A_2 O1A_2 1_555 1_555
H1A_3 O1A_3 1_555 1_555
H1HA O1HA 1_555 1_555
H1IA O1IA 1_555 1_555
H1H O1H 1_555 1_555
H1S O1S 1_555 1_555
H1T O1T 1_555 1_555
O2Q C1 1_555 1_555
O2CA Ba1 1_555 1_555
O2Z Ba1DA 1_555 1_555
O2A Ba1 1_555 1_555
O2P Fe1EA 1_555 1_555
O2BA Ba1 1_555 1_555
O2DA Ba1EA 1_555 1_555
O2B Ba1 1_555 1_555
O2G Fe1G_2 1_555 1_555
O2U Ba1 1_555 1_555
O2EA Ba1G 1_555 1_555
O2G_2 Ba1DA 1_555 1_555
O2B_2 Fe1B_3 1_555 1_555
O2EA_2 Ba1DA 1_555 1_555
O2U_2 Ba1_4 1_555 1_555
O2P_2 Ba1DA 1_555 1_555
O2A_2 C1P 1_555 1_555
O2DA_2 Ba1DA 1_555 1_555
O2BA_2 Ba1_2 1_555 1_555
O2Q_2 Ba1EA 1_555 1_555
O2_2 Fe1_3 1_555 1_555
O2Z_2 Ba1EA 1_555 1_555
O2CA_2 Ba1_5 1_555 1_555
O2G_3 Ba1EA 1_555 1_555
O2EA_3 Ba1EA 1_555 1_555
O2DA_3 Ba1G 1_555 1_555
O2Z_3 Ba1G 1_555 1_555
O2P_3 Ba1G 1_555 1_555
O2Q_3 Ba1G 1_555 1_555
O2C Fe1C 1_555 1_555
O2R Ba1C 1_555 1_555
O2S Fe1S 1_555 1_555
O2K Ba1C_2 1_555 1_555
O2T Fe1T 1_555 1_555
O2J Ba1C_3 1_555 1_555
C1CA C1 1_555 1_555
C1A O2A 1_555 1_555
C1BA O2BA 1_555 1_555
C1B O2B 1_555 1_555
C1U O2U 1_555 1_555
C1G O2G_2 1_555 1_555
C1EA O2EA_2 1_555 1_555
C1P O2P_2 1_555 1_555
C1DA O2DA_2 1_555 1_555
C1Q O2Q_2 1_555 1_555
C1Z O2Z_2 1_555 1_555
O3C Ba2C 1_555 1_555
O3A Fe1A 1_555 1_555
O3S Ba2C 1_555 1_555
O3B Fe1B 1_555 1_555
O3T Ba2C 1_555 1_555
O3B_2 Ba2 1_555 1_555
O3T_2 C2T_2 1_555 1_555
O3A_2 Ba2 1_555 1_555
O3S_2 C2S_2 1_555 1_555
O3DA Fe1DA 1_555 1_555
O3E C2E 1_555 1_555
O3_2 Ba2A 1_555 1_555
O3B_3 Ba2A 1_555 1_555
O3_3 Ba2B 1_555 1_555
O3A_3 Ba2B 1_555 1_555
O3G Fe1G 1_555 1_555
O3EA Fe1EA 1_555 1_555
O3DA_2 Fe1DA_2 1_555 1_555
O3G_2 Fe1G_2 1_555 1_555
O3EA_2 Ba2G 1_555 1_555
O4C Ba2 1_555 1_555
O4A Ba1 1_555 1_555
O4S Ba1C_2 1_555 1_555
O4B Ba1 1_555 1_555
O4T Ba1C_3 1_555 1_555
O4B_2 Ba1_2 1_555 1_555
O4T_2 Ba2 1_555 1_555
O4A_2 Ba2C_3 1_555 1_555
O4S_2 Ba2 1_555 1_555
O4DA Ba1DA 1_555 1_555
O4E Ba2G 1_555 1_555
O4G Ba1DA 1_555 1_555
O4EA Ba1DA 1_555 1_555
O4G_2 Ba1EA 1_555 1_555
O4DA_2 Ba1EA 1_555 1_555
O4EA_2 Ba1EA 1_555 1_555
O4G_3 Ba1G 1_555 1_555
O4DA_3 Ba1G 1_555 1_555
O4EA_3 Ba1G 1_555 1_555
O4C_2 Ba1C_2 1_555 1_555
O4T_3 Ba1C_2 1_555 1_555
O4C_3 Ba1C_3 1_555 1_555
O4S_3 Ba1C_3 1_555 1_555
C2C C2 1_555 1_555
C2A O3A 1_555 1_555
C2S O3S 1_555 1_555
C2B O3B 1_555 1_555
C2T O3T 1_555 1_555
C2B_2 O3B_2 1_555 1_555
C2T_2 O4T_2 1_555 1_555
C2A_2 O3A_2 1_555 1_555
C2S_2 O4S_2 1_555 1_555
C2DA O3DA 1_555 1_555
C2E O4E 1_555 1_555
Fe1 O2U 1_555 1_555
O4 C2 1_555 1_555
Ba1C O4C 1_555 1_555
Ba1C O4T_2 1_555 1_555
Ba1C O4S_2 1_555 1_555
Ba2C O4A 1_555 1_555
Ba2C O4B 1_555 1_555
Ba2A O4S 1_555 1_555
Ba2A O4C_2 1_555 1_555
Ba2A O4T_3 1_555 1_555
Ba2B O4T 1_555 1_555
Ba2B O4C_3 1_555 1_555
Ba2B O4S_3 1_555 1_555
Ba2C_2 O4B_2 1_555 1_555
Ba2D O4DA 1_555 1_555
Ba2D O4G 1_555 1_555
Ba2D O4EA 1_555 1_555
Fe1DA O1DA 1_555 1_555
Fe1DA O2Q 1_555 1_555
Fe1DA O2DA_2 1_555 1_555
Fe1A O2CA 1_555 1_555
Fe1A O2A 1_555 1_555
Fe1G O1G 1_555 1_555
Fe1G O2Z 1_555 1_555
Fe1G O2G_2 1_555 1_555
Fe1EA O1EA_2 1_555 1_555
Fe1EA O2EA_3 1_555 1_555
Fe1B O2BA 1_555 1_555
Fe1B O2B 1_555 1_555
Fe1DA_2 O1DA_2 1_555 1_555
Fe1DA_2 O2DA 1_555 1_555
Fe1DA_2 O2Q_2 1_555 1_555
Fe1G_2 O1G_2 1_555 1_555
Fe1G_2 O2Z_3 1_555 1_555
Fe1EA_2 O1EA 1_555 1_555
Fe1EA_2 O2EA 1_555 1_555
Fe1EA_2 O2P_3 1_555 1_555
Fe1EA_2 O3EA_2 1_555 1_555
Fe1C O2R 1_555 1_555
Fe1C O3C 1_555 1_555
Fe1S O2K 1_555 1_555
Fe1S O3S 1_555 1_555
Fe1T O1H 1_555 1_555
Fe1T O2J 1_555 1_555
Fe1T O3T 1_555 1_555
Fe1B_2 O1B 1_555 1_555
Fe1B_2 O2BA_2 1_555 1_555
Fe1B_2 O3B_2 1_555 1_555
Fe1A_2 O1A_3 1_555 1_555
Fe1A_2 O3A_2 1_555 1_555
Fe1B_3 O1B_2 1_555 1_555
Fe1B_3 O3B_3 1_555 1_555
Fe1EA_3 O2P_2 1_555 1_555
Fe1_3 O1_3 1_555 1_555
Fe1_3 O3_3 1_555 1_555
Fe1G_3 O2G_3 1_555 1_555
Fe1G_4 O1A_3 1_555 1_555
Fe1_4 O1_2 1_555 1_555
Fe1_4 O3_2 1_555 1_555
Fe1DA_3 O1_2 1_555 1_555
Fe1A_5 O1A_2 1_555 1_555
Fe1A_5 O3A_3 1_555 1_555
O2CA C1CA 1_555 1_555
O2Z C1CA 1_555 1_555
O2P C1A 1_555 1_555
O2DA C1BA 1_555 1_555
O2G C1B 1_555 1_555
O2EA C1U 1_555 1_555
O2B_2 C1G 1_555 1_555
O2U_2 C1EA 1_555 1_555
O2BA_2 C1DA 1_555 1_555
O2_2 C1Q 1_555 1_555
O2CA_2 C1Z 1_555 1_555
C1A C1BA 1_555 1_555
C1B C1U 1_555 1_555
C1G C1EA 1_555 1_555
C1P C1DA 1_555 1_555
C1Q C1Z 1_555 1_555
O3C C2C 1_555 1_555
O4C C2C 1_555 1_555
O4A C2A 1_555 1_555
O4S C2S 1_555 1_555
O4B C2B 1_555 1_555
O4T C2T 1_555 1_555
O4B_2 C2B_2 1_555 1_555
O4A_2 C2A_2 1_555 1_555
O4DA C2DA 1_555 1_555
C2A C2S 1_555 1_555
C2B C2T 1_555 1_555
C2B_2 C2T_2 1_555 1_555
C2A_2 C2S_2 1_555 1_555
C2DA C2E 1_555 1_555

#END
