
#######################################################################
#
#                 Cambridge Crystallographic Data Centre
#                                CCDC 
#
#######################################################################
#
# If this CIF has been generated from an entry in the Cambridge 
# Structural Database, then it will include bibliographic, chemical, 
# crystal, experimental, refinement or atomic coordinate data resulting 
# from the CCDC's data processing and validation procedures.
#
#######################################################################

data_LALDOT
_symmetry_cell_setting           monoclinic
_symmetry_space_group_name_H-M   'P 21/n'
_symmetry_Int_Tables_number      14
_space_group_name_Hall           '-P 2yn'
loop_
_symmetry_equiv_pos_site_id
_symmetry_equiv_pos_as_xyz
1 x,y,z
2 1/2-x,1/2+y,1/2-z
3 -x,-y,-z
4 1/2+x,1/2-y,1/2+z
_cell_length_a                   11.699(2)
_cell_length_b                   11.427(2)
_cell_length_c                   18.680(4)
_cell_angle_alpha                90
_cell_angle_beta                 108.18(3)
_cell_angle_gamma                90
_cell_volume                     2372.57
loop_
_atom_site_label
_atom_site_type_symbol
_atom_site_fract_x
_atom_site_fract_y
_atom_site_fract_z
Ag1 Ag 0.23521(2) 0.22753(3) 0.488162(18)
Ag2 Ag -0.26841(3) 0.45595(3) 0.497780(17)
C1 C -0.0268(3) 0.2920(4) 0.4870(2)
C2 C -0.2048(3) 0.2230(4) 0.4049(2)
C3 C -0.1448(4) 0.1315(4) 0.3855(2)
H1 H -0.1864 0.0738 0.3524
C4 C -0.0200(3) 0.1269(4) 0.4164(2)
C5 C 0.0533(4) 0.0309(5) 0.3960(3)
H2 H 0.0979 -0.0103 0.4408
H3 H 0.1081 0.0647 0.3728
H4 H 0.0005 -0.0225 0.3615
C6 C -0.3380(3) 0.2407(4) 0.3686(2)
H5 H -0.3793 0.2233 0.4044
H6 H -0.3664 0.1895 0.3260
H7 H -0.3532 0.3204 0.3523
C7 C 0.4987(3) 0.3066(4) 0.5028(2)
C8 C 0.4909(3) 0.1374(4) 0.5684(2)
C9 C 0.6128(3) 0.1469(4) 0.6048(2)
H8 H 0.6533 0.0896 0.6386
C10 C 0.6734(3) 0.2425(4) 0.5902(2)
C11 C 0.8041(4) 0.2630(5) 0.6330(2)
H9 H 0.8516 0.2521 0.5998
H10 H 0.8295 0.2086 0.6740
H11 H 0.8144 0.3415 0.6523
C12 C 0.4201(4) 0.0354(4) 0.5821(3)
H12 H 0.3732 0.0026 0.5347
H13 H 0.3675 0.0611 0.6094
H14 H 0.4741 -0.0229 0.6109
C13 C 0.0084(3) 0.6489(4) 0.70642(19)
C14 C 0.1153(3) 0.5919(4) 0.7087(2)
H15 H 0.1142 0.5286 0.6773
C15 C 0.2239(3) 0.6317(4) 0.7589(2)
H16 H 0.2954 0.5945 0.7605
C16 C 0.2265(3) 0.7254(4) 0.8062(2)
H17 H 0.2994 0.7507 0.8393
C17 C 0.1196(3) 0.7825(4) 0.80420(19)
C18 C 0.0115(3) 0.7432(4) 0.75399(19)
H18 H -0.0599 0.7807 0.7523
C19 C -0.1092(3) 0.6117(4) 0.6483(2)
C20 C 0.1227(3) 0.8841(4) 0.8572(2)
N1 N 0.0397(3) 0.2081(3) 0.46600(18)
N2 N 0.0285(3) 0.3661(3) 0.54144(18)
H19 H -0.0123 0.4184 0.5560
H20 H 0.1051 0.3619 0.5622
N3 N -0.1480(3) 0.3026(3) 0.45622(17)
N4 N 0.4325(3) 0.2193(3) 0.51873(18)
N5 N 0.4422(3) 0.3841(3) 0.44972(18)
H21 H 0.3663 0.3773 0.4270
H22 H 0.4819 0.4406 0.4383
N6 N 0.6183(2) 0.3215(3) 0.53758(17)
O1 O -0.1037(2) 0.5380(3) 0.60092(15)
O3 O -0.2041(2) 0.6593(3) 0.65114(17)
O5 O 0.2222(2) 0.9023(3) 0.90829(15)
O6 O 0.0306(2) 0.9422(3) 0.85094(16)
Ag2_2 Ag 0.73159(3) 0.45595(3) 0.497780(17)
Ag2C Ag 0.23159(3) 1.04405(3) 0.997780(17)
N6_2 N -0.3817(2) 0.3215(3) 0.53758(17)
O5C O -0.2778(2) 0.5977(3) 0.40829(15)
O2 O 0.6877(3) 0.5167(4) 0.7423(2)
H23 H 0.7200 0.5586 0.7164
H24 H 0.6199 0.4931 0.7137
O4 O 0.8473(5) 0.3543(6) 0.8290(3)
H25 H 0.7993 0.4050 0.8025
H26 H 0.8062 0.2963 0.8356
loop_
_geom_bond_atom_site_label_1
_geom_bond_atom_site_label_2
_geom_bond_site_symmetry_1
_geom_bond_site_symmetry_2
Ag1 N1 1_555 1_555
Ag2 N3 1_555 1_555
C1 N1 1_555 1_555
C2 C3 1_555 1_555
C3 H1 1_555 1_555
C4 C3 1_555 1_555
C5 C4 1_555 1_555
H2 C5 1_555 1_555
H3 C5 1_555 1_555
H4 C5 1_555 1_555
C6 C2 1_555 1_555
H5 C6 1_555 1_555
H6 C6 1_555 1_555
H7 C6 1_555 1_555
C7 N4 1_555 1_555
C8 C9 1_555 1_555
C9 H8 1_555 1_555
C10 C9 1_555 1_555
C11 C10 1_555 1_555
H9 C11 1_555 1_555
H10 C11 1_555 1_555
H11 C11 1_555 1_555
C12 C8 1_555 1_555
H12 C12 1_555 1_555
H13 C12 1_555 1_555
H14 C12 1_555 1_555
C13 C14 1_555 1_555
C14 H15 1_555 1_555
C15 C14 1_555 1_555
H16 C15 1_555 1_555
C16 C15 1_555 1_555
H17 C16 1_555 1_555
C17 C16 1_555 1_555
C18 C13 1_555 1_555
H18 C18 1_555 1_555
C19 C13 1_555 1_555
C20 C17 1_555 1_555
N1 C4 1_555 1_555
N2 C1 1_555 1_555
H19 N2 1_555 1_555
H20 N2 1_555 1_555
N3 C1 1_555 1_555
N4 Ag1 1_555 1_555
N5 C7 1_555 1_555
H21 N5 1_555 1_555
H22 N5 1_555 1_555
N6 C7 1_555 1_555
O1 Ag2 1_555 1_555
O2 H23 1_555 1_555
H24 O2 1_555 1_555
O3 C19 1_555 1_555
O4 H25 1_555 1_555
H26 O4 1_555 1_555
O5 C20 1_555 1_555
O6 C20 1_555 1_555
Ag2_2 N6 1_555 1_555
Ag2C O5 1_555 1_555
N6_2 Ag2 1_555 1_555
O5C Ag2 1_555 1_555
C2 N3 1_555 1_555
C8 N4 1_555 1_555
C10 N6 1_555 1_555
C17 C18 1_555 1_555
C19 O1 1_555 1_555

#END
