
#######################################################################
#
#                 Cambridge Crystallographic Data Centre
#                                CCDC 
#
#######################################################################
#
# If this CIF has been generated from an entry in the Cambridge 
# Structural Database, then it will include bibliographic, chemical, 
# crystal, experimental, refinement or atomic coordinate data resulting 
# from the CCDC's data processing and validation procedures.
#
#######################################################################

data_LALDIN
_symmetry_cell_setting           monoclinic
_symmetry_space_group_name_H-M   'C 2/c'
_symmetry_Int_Tables_number      15
_space_group_name_Hall           '-C 2yn'
loop_
_symmetry_equiv_pos_site_id
_symmetry_equiv_pos_as_xyz
1 x,y,z
2 -x,y,1/2-z
3 1/2+x,1/2+y,z
4 1/2-x,1/2+y,1/2-z
5 -x,-y,-z
6 x,-y,1/2+z
7 1/2-x,1/2-y,-z
8 1/2+x,1/2-y,1/2+z
_cell_length_a                   12.502(3)
_cell_length_b                   20.211(4)
_cell_length_c                   9.1833(18)
_cell_angle_alpha                90
_cell_angle_beta                 112.49(3)
_cell_angle_gamma                90
_cell_volume                     2143.94
loop_
_atom_site_label
_atom_site_type_symbol
_atom_site_fract_x
_atom_site_fract_y
_atom_site_fract_z
Ag1 Ag -0.5000 0.21586(5) -0.2500
Ag2 Ag 0.0000 0.12200(5) 0.2500
C1 C -0.2561(7) 0.1392(4) 0.0162(9)
C2 C -0.4222(7) 0.1016(4) 0.0400(11)
C3 C -0.3555(8) 0.0636(4) 0.1650(10)
H1 H -0.3906 0.0365 0.2157
C4 C -0.2375(7) 0.0652(4) 0.2156(9)
C5 C -0.1605(8) 0.0246(5) 0.3531(10)
H2 H -0.1109 -0.0027 0.3205
H3 H -0.2073 -0.0028 0.3904
H4 H -0.1142 0.0536 0.4362
C6 C -0.5515(8) 0.1032(5) -0.0167(14)
H5 H -0.5843 0.1029 -0.1299
H6 H -0.5752 0.1426 0.0211
H7 H -0.5780 0.0650 0.0222
C7 C -0.2988(7) 0.2743(4) -0.5334(10)
H8 H -0.3458 0.2608 -0.6402
H9 H -0.2660 0.3172 -0.5395
C8 C -0.3782(7) 0.2825(4) -0.4432(9)
N1 N -0.2066(5) 0.1749(3) -0.0618(7)
H10 H -0.1325 0.1751 -0.0320
H11 H -0.2486 0.1978 -0.1422
N2 N -0.3737(5) 0.1406(3) -0.0373(7)
N3 N -0.1866(5) 0.1038(3) 0.1425(6)
O1 O -0.3544(4) 0.2493(3) -0.3191(6)
O3 O -0.4611(5) 0.3209(3) -0.4977(6)
Ag1F Ag 0.0000 0.28414(5) -0.7500
Ag1_2 Ag 0.5000 0.21586(5) 0.7500
C1A C 0.2561(7) 0.1392(4) 0.4838(9)
C2A C 0.4222(7) 0.1016(4) 0.4600(11)
C3A C 0.3555(8) 0.0636(4) 0.3350(10)
H1A H 0.3906 0.0365 0.2843
C4A C 0.2375(7) 0.0652(4) 0.2844(9)
C5A C 0.1605(8) 0.0246(5) 0.1469(10)
H2A H 0.1109 -0.0027 0.1795
H3A H 0.2073 -0.0028 0.1096
H4A H 0.1142 0.0536 0.0638
C6A C 0.5515(8) 0.1032(5) 0.5167(14)
H5A H 0.5843 0.1029 0.6299
H6A H 0.5752 0.1426 0.4789
H7A H 0.5780 0.0650 0.4778
C7F C -0.2012(7) 0.2257(4) -0.4666(10)
H8F H -0.1542 0.2392 -0.3598
H9F H -0.2340 0.1828 -0.4605
C8F C -0.1218(7) 0.2175(4) -0.5568(9)
N1A N 0.2066(5) 0.1749(3) 0.5618(7)
H10A H 0.1325 0.1751 0.5320
H11A H 0.2486 0.1978 0.6422
N2A N -0.6263(5) 0.1406(3) -0.4627(7)
N2A_2 N 0.3737(5) 0.1406(3) 0.5373(7)
N3A N 0.1866(5) 0.1038(3) 0.3575(6)
O1F O -0.1456(4) 0.2507(3) -0.6809(6)
O1A O -0.6456(4) 0.2493(3) -0.1809(6)
O3F O -0.0389(5) 0.1791(3) -0.5023(6)
O2 O 0.0000 0.0916(5) 0.7500
H12 H -0.0122 0.1162 0.6702
H12A H 0.0122 0.1162 0.8298
loop_
_geom_bond_atom_site_label_1
_geom_bond_atom_site_label_2
_geom_bond_site_symmetry_1
_geom_bond_site_symmetry_2
Ag1 N2 1_555 1_555
Ag2 N3 1_555 1_555
C1 N1 1_555 1_555
C2 C3 1_555 1_555
C3 H1 1_555 1_555
C4 C3 1_555 1_555
C5 C4 1_555 1_555
H2 C5 1_555 1_555
H3 C5 1_555 1_555
H4 C5 1_555 1_555
C6 C2 1_555 1_555
H5 C6 1_555 1_555
H6 C6 1_555 1_555
H7 C6 1_555 1_555
C7 H8 1_555 1_555
H9 C7 1_555 1_555
C8 C7 1_555 1_555
N1 H10 1_555 1_555
H11 N1 1_555 1_555
N2 C1 1_555 1_555
N3 C1 1_555 1_555
O1 Ag1 1_555 1_555
O2 H12 1_555 1_555
O3 C8 1_555 1_555
Ag1F O1F 1_555 1_555
Ag1_2 N2A_2 1_555 1_555
C1A N1A 1_555 1_555
C2A C3A 1_555 1_555
C3A H1A 1_555 1_555
C4A C3A 1_555 1_555
C5A C4A 1_555 1_555
H2A C5A 1_555 1_555
H3A C5A 1_555 1_555
H4A C5A 1_555 1_555
C6A C2A 1_555 1_555
H5A C6A 1_555 1_555
H6A C6A 1_555 1_555
H7A C6A 1_555 1_555
C7F C7 1_555 1_555
H8F C7F 1_555 1_555
H9F C7F 1_555 1_555
C8F C7F 1_555 1_555
N1A H10A 1_555 1_555
H11A N1A 1_555 1_555
N2A Ag1 1_555 1_555
N2A_2 C1A 1_555 1_555
N3A Ag2 1_555 1_555
O1F C8F 1_555 1_555
O1A Ag1 1_555 1_555
H12A O2 1_555 1_555
O3F C8F 1_555 1_555
C2 N2 1_555 1_555
C4 N3 1_555 1_555
C8 O1 1_555 1_555
C1A N3A 1_555 1_555
C2A N2A_2 1_555 1_555
C4A N3A 1_555 1_555

#END
