
#######################################################################
#
#                 Cambridge Crystallographic Data Centre
#                                CCDC 
#
#######################################################################
#
# If this CIF has been generated from an entry in the Cambridge 
# Structural Database, then it will include bibliographic, chemical, 
# crystal, experimental, refinement or atomic coordinate data resulting 
# from the CCDC's data processing and validation procedures.
#
#######################################################################

data_LALDUZ
_symmetry_cell_setting           triclinic
_symmetry_space_group_name_H-M   'P -1'
_symmetry_Int_Tables_number      2
_space_group_name_Hall           '-P 1'
loop_
_symmetry_equiv_pos_site_id
_symmetry_equiv_pos_as_xyz
1 x,y,z
2 -x,-y,-z
_cell_length_a                   8.9116(18)
_cell_length_b                   9.2445(18)
_cell_length_c                   18.724(4)
_cell_angle_alpha                103.92(3)
_cell_angle_beta                 92.14(3)
_cell_angle_gamma                109.46(3)
_cell_volume                     1400.03
loop_
_atom_site_label
_atom_site_type_symbol
_atom_site_fract_x
_atom_site_fract_y
_atom_site_fract_z
Zn1 Zn -0.51378(12) -0.21685(10) -0.42054(5)
Zn2 Zn -0.41462(9) -0.15923(8) -0.12418(4)
O1 O -0.6286(7) -0.6392(6) -0.5777(3)
O2 O -0.6464(7) -0.4125(6) -0.5077(3)
O3 O -0.6437(6) -0.0798(6) -0.4443(3)
O4 O -0.6383(7) 0.0941(6) -0.5109(3)
O5 O -0.6495(6) -0.2844(5) -0.3359(3)
O6 O -0.6198(5) -0.2333(5) -0.2119(2)
O7 O -0.3554(6) -0.0593(5) -0.3260(3)
O8 O -0.3046(5) -0.0633(5) -0.2088(2)
O9 O -0.4381(5) -0.3987(5) -0.1725(2)
O10 O -0.2901(6) -0.5555(6) -0.1870(3)
O11 O -0.1978(5) -0.1611(5) -0.0803(3)
O12 O -0.0292(6) -0.2953(6) -0.1089(3)
O13 O -0.3816(5) 0.0760(5) -0.0647(2)
O14 O -0.4411(5) 0.2059(5) 0.0419(2)
C7 C -0.5807(11) -0.5150(9) -0.5239(4)
C8 C -0.5810(9) 0.0043(8) -0.4871(4)
C9 C -0.5717(8) -0.2201(7) -0.2727(4)
C10 C -0.3937(8) -0.1036(7) -0.2685(4)
C11 C -0.3096(8) -0.4273(7) -0.1619(4)
C12 C -0.1653(8) -0.2827(8) -0.1130(4)
C13 C -0.4488(7) 0.0815(7) -0.0071(4)
Zn1A Zn -0.48622(12) -0.78315(10) -0.57946(5)
Zn1A_2 Zn -0.48622(12) 0.21685(10) -0.57946(5)
Zn2A Zn -0.58538(9) -0.84077(8) -0.87582(4)
Zn2A_2 Zn -0.58538(9) 0.15923(8) 0.12418(4)
O1A O -0.3714(7) -0.3608(6) -0.4223(3)
O2A O -0.3536(7) -0.5875(6) -0.4923(3)
O3A O -0.3563(6) 0.0798(6) -0.5557(3)
O3A_2 O -0.3563(6) -0.9202(6) -0.5557(3)
O4A O -0.3617(7) -0.0941(6) -0.4891(3)
O4_2 O -0.6383(7) -0.9059(6) -0.5109(3)
O5A O -0.3505(6) -0.7156(5) -0.6641(3)
O6A O -0.3802(5) -0.7667(5) -0.7881(2)
O7A O -0.6446(6) -0.9407(5) -0.6740(3)
O8A O -0.6954(5) -0.9367(5) -0.7912(2)
O9A O -0.5619(5) -0.6013(5) -0.8275(2)
O10A O -0.7099(6) -0.4445(6) -0.8130(3)
O11A O -0.8022(5) -0.8389(5) -0.9197(3)
O12A O -0.9708(6) -0.7047(6) -0.8911(3)
O13A O -0.6184(5) -0.0760(5) 0.0647(2)
O13A_2 O -0.6184(5) -1.0760(5) -0.9353(2)
O14A O -0.5589(5) -0.2059(5) -0.0419(2)
O14_2 O -0.4411(5) -0.7941(5) -0.9581(2)
C7A C -0.4193(11) -0.4850(9) -0.4761(4)
C8A C -0.4190(9) -0.0043(8) -0.5129(4)
C9A C -0.4283(8) -0.7799(7) -0.7273(4)
C10A C -0.6063(8) -0.8964(7) -0.7315(4)
C11A C -0.6904(8) -0.5727(7) -0.8381(4)
C12A C -0.8347(8) -0.7173(8) -0.8870(4)
C13A C -0.5512(7) -0.0815(7) 0.0071(4)
Co1 Co -0.09870(10) -0.31274(10) 0.22581(5)
N1 N -0.2893(7) -0.3632(7) 0.2801(3)
H1 H -0.3710 -0.4458 0.2510
H2 H -0.2654 -0.3900 0.3210
N2 N -0.1428(7) -0.1189(7) 0.2226(4)
H3 H -0.0683 -0.0333 0.2540
H4 H -0.1375 -0.1060 0.1765
N3 N -0.2307(7) -0.4358(7) 0.1297(3)
H5 H -0.2871 -0.5352 0.1319
H6 H -0.3007 -0.3898 0.1199
N4 N 0.0813(6) -0.2631(6) 0.1676(3)
H7 H 0.1449 -0.1603 0.1856
H8 H 0.1402 -0.3241 0.1710
N5 N 0.0480(6) -0.2033(6) 0.3205(3)
H9 H 0.1166 -0.1087 0.3177
H10 H -0.0092 -0.1856 0.3581
N6 N -0.0600(6) -0.5057(6) 0.2374(3)
H11 H -0.1543 -0.5866 0.2310
H12 H -0.0008 -0.5346 0.2026
C1 C -0.3369(10) -0.2179(12) 0.3013(5)
H13 H -0.4497 -0.2500 0.3077
H14 H -0.2755 -0.1482 0.3481
C2 C -0.3079(13) -0.1321(13) 0.2442(7)
H15 H -0.3131 -0.0268 0.2631
H16 H -0.3886 -0.1891 0.2013
C3 C -0.1271(9) -0.4435(9) 0.0688(4)
H17 H -0.0939 -0.5350 0.0635
H18 H -0.1868 -0.4548 0.0221
C4 C 0.0172(9) -0.2939(9) 0.0873(4)
H19 H -0.0121 -0.2056 0.0805
H20 H 0.0979 -0.3064 0.0555
C5 C 0.1387(9) -0.3035(9) 0.3347(4)
H21 H 0.1815 -0.2712 0.3867
H22 H 0.2276 -0.2920 0.3055
C6 C 0.0268(10) -0.4727(9) 0.3136(4)
H23 H -0.0494 -0.4893 0.3491
H24 H 0.0864 -0.5436 0.3129
O15 O -0.9677(12) -0.3535(15) -0.4751(6)
O16 O -0.4904(11) -0.3736(14) 0.0588(6)
O17 O -0.1226(11) -0.2059(12) -0.5465(4)
O18 O -0.0406(11) -0.1623(9) -0.3507(4)
O19 O 0.1942(6) 0.0243(6) -0.0759(3)
loop_
_geom_bond_atom_site_label_1
_geom_bond_atom_site_label_2
_geom_bond_site_symmetry_1
_geom_bond_site_symmetry_2
Zn1 O2 1_555 1_555
Zn2 O6 1_555 1_555
Co1 N1 1_555 1_555
O1 C7 1_555 1_555
O2 C7 1_555 1_555
O3 Zn1 1_555 1_555
O4 C8 1_555 1_555
O5 Zn1 1_555 1_555
O6 C9 1_555 1_555
O7 Zn1 1_555 1_555
O8 Zn2 1_555 1_555
O9 Zn2 1_555 1_555
O10 C11 1_555 1_555
O11 Zn2 1_555 1_555
O12 C12 1_555 1_555
O13 Zn2 1_555 1_555
O14 C13 1_555 1_555
N1 H1 1_555 1_555
H2 N1 1_555 1_555
N2 Co1 1_555 1_555
H3 N2 1_555 1_555
H4 N2 1_555 1_555
N3 Co1 1_555 1_555
H5 N3 1_555 1_555
H6 N3 1_555 1_555
N4 Co1 1_555 1_555
H7 N4 1_555 1_555
H8 N4 1_555 1_555
N5 Co1 1_555 1_555
H9 N5 1_555 1_555
H10 N5 1_555 1_555
N6 Co1 1_555 1_555
H11 N6 1_555 1_555
H12 N6 1_555 1_555
C1 N1 1_555 1_555
H13 C1 1_555 1_555
H14 C1 1_555 1_555
C2 N2 1_555 1_555
H15 C2 1_555 1_555
H16 C2 1_555 1_555
C3 N3 1_555 1_555
H17 C3 1_555 1_555
H18 C3 1_555 1_555
C4 N4 1_555 1_555
H19 C4 1_555 1_555
H20 C4 1_555 1_555
C5 N5 1_555 1_555
H21 C5 1_555 1_555
H22 C5 1_555 1_555
C6 N6 1_555 1_555
H23 C6 1_555 1_555
H24 C6 1_555 1_555
C7 C7A 1_555 1_555
C8 O3 1_555 1_555
C9 O5 1_555 1_555
C10 O7 1_555 1_555
C11 O9 1_555 1_555
C12 O11 1_555 1_555
C13 O13 1_555 1_555
Zn1A O1 1_555 1_555
Zn1A_2 O4 1_555 1_555
Zn2A O6A 1_555 1_555
Zn2A_2 O14 1_555 1_555
O1A Zn1 1_555 1_555
O2A Zn1A 1_555 1_555
O3A Zn1A_2 1_555 1_555
O3A_2 Zn1A 1_555 1_555
O4A Zn1 1_555 1_555
O4_2 Zn1A 1_555 1_555
O5A Zn1A 1_555 1_555
O6A C9A 1_555 1_555
O7A Zn1A 1_555 1_555
O8A Zn2A 1_555 1_555
O9A Zn2A 1_555 1_555
O10A C11A 1_555 1_555
O11A Zn2A 1_555 1_555
O12A C12A 1_555 1_555
O13A Zn2A_2 1_555 1_555
O13A_2 Zn2A 1_555 1_555
O14A Zn2 1_555 1_555
O14_2 Zn2A 1_555 1_555
C7A O1A 1_555 1_555
C8A C8 1_555 1_555
C9A O5A 1_555 1_555
C10A O7A 1_555 1_555
C11A O9A 1_555 1_555
C12A O11A 1_555 1_555
C13A C13 1_555 1_555
O8 C10 1_555 1_555
C1 C2 1_555 1_555
C3 C4 1_555 1_555
C5 C6 1_555 1_555
C9 C10 1_555 1_555
C11 C12 1_555 1_555
O2A C7A 1_555 1_555
O3A C8A 1_555 1_555
O4A C8A 1_555 1_555
O8A C10A 1_555 1_555
O13A C13A 1_555 1_555
O14A C13A 1_555 1_555
C9A C10A 1_555 1_555
C11A C12A 1_555 1_555

#END
