
#######################################################################
#
#                 Cambridge Crystallographic Data Centre
#                                CCDC 
#
#######################################################################
#
# If this CIF has been generated from an entry in the Cambridge 
# Structural Database, then it will include bibliographic, chemical, 
# crystal, experimental, refinement or atomic coordinate data resulting 
# from the CCDC's data processing and validation procedures.
#
#######################################################################

data_LALFIO
_symmetry_cell_setting           triclinic
_symmetry_space_group_name_H-M   'P -1'
_symmetry_Int_Tables_number      2
_space_group_name_Hall           '-P 1'
loop_
_symmetry_equiv_pos_site_id
_symmetry_equiv_pos_as_xyz
1 x,y,z
2 -x,-y,-z
_cell_length_a                   9.383(4)
_cell_length_b                   10.110(5)
_cell_length_c                   10.510(6)
_cell_angle_alpha                84.32(2)
_cell_angle_beta                 80.42(2)
_cell_angle_gamma                70.61(2)
_cell_volume                     926.311
loop_
_atom_site_label
_atom_site_type_symbol
_atom_site_fract_x
_atom_site_fract_y
_atom_site_fract_z
Cu1 Cu 0.83704(6) 0.05201(5) -0.39898(4)
S1 S 0.83108(13) -0.15091(12) -0.58852(12)
O3 O 0.9307(3) -0.0789(3) -0.5456(3)
O4 O 0.6871(4) -0.1101(5) -0.5026(4)
O5 O 0.9095(6) -0.3003(4) -0.5805(7)
O6 O 0.8141(5) -0.1099(6) -0.7228(4)
N1 N 0.7084(4) 0.3277(4) -0.0998(3)
N2 N 0.7381(4) 0.1774(4) -0.2485(3)
N3 N 0.8617(4) 0.7443(4) -0.1081(3)
N4 N 0.8982(4) 0.8978(4) -0.2642(3)
N5 N 0.6787(4) 0.4112(4) 0.3769(3)
N6 N 0.7372(4) 0.2072(4) 0.4836(3)
C1 C 0.7317(5) 0.4350(4) -0.0344(4)
C2 C 0.7833(5) 0.5375(4) -0.1051(4)
C3 C 0.8088(5) 0.6379(4) -0.0386(4)
C4 C 0.7800(5) 0.6381(5) 0.0951(4)
C5 C 0.7278(5) 0.5342(4) 0.1645(4)
C6 C 0.7038(5) 0.4320(4) 0.1001(4)
C7 C 0.7831(5) 0.2802(4) -0.2181(4)
C8 C 0.6337(5) 0.1561(5) -0.1448(4)
C9 C 0.6140(5) 0.2490(5) -0.0537(4)
C10 C 0.8329(5) 0.7984(4) -0.2283(4)
C11 C 0.9724(5) 0.9061(5) -0.1637(4)
C12 C 0.9492(5) 0.8141(5) -0.0668(4)
C13 C 0.6937(6) 0.5405(5) 0.3111(4)
C14 C 0.7877(5) 0.3112(5) 0.4305(4)
C15 C 0.5867(5) 0.2442(5) 0.4611(4)
C16 C 0.5497(5) 0.3714(5) 0.3950(4)
H1 H 0.8013 0.5394 -0.1988
H2 H 0.7965 0.7100 0.1399
H3 H 0.6672 0.3596 0.1478
H4 H 0.8578 0.3163 -0.2717
H5 H 0.5816 0.0870 -0.1400
H6 H 0.5475 0.2575 0.0283
H7 H 0.7738 0.7687 -0.2803
H8 H 1.0309 0.9689 -0.1628
H9 H 0.9868 0.7988 0.0158
H10 H 0.5983 0.6156 0.3323
H11 H 0.7753 0.5614 0.3420
H12 H 0.8901 0.3134 0.4310
H13 H 0.5195 0.1883 0.4883
H14 H 0.4522 0.4229 0.3664
Cu1A Cu 1.16296(6) -0.05201(5) -0.60102(4)
Cu1_2 Cu 0.83704(6) 1.05201(5) -0.39898(4)
Cu1_3 Cu 0.83704(6) 0.05201(5) 0.60102(4)
O3A O 1.0693(3) 0.0789(3) -0.4544(3)
N4_2 N 0.8982(4) -0.1022(4) -0.2642(3)
N6_2 N 0.7372(4) 0.2072(4) -0.5164(3)
O1 O 0.5126(5) 0.0638(5) 0.2426(5)
O2 O 0.1512(11) 0.4675(7) 0.4031(6)
loop_
_geom_bond_atom_site_label_1
_geom_bond_atom_site_label_2
_geom_bond_site_symmetry_1
_geom_bond_site_symmetry_2
Cu1 O3 1_555 1_555
S1 O3 1_555 1_555
O3 Cu1A 1_555 1_555
O4 S1 1_555 1_555
O5 S1 1_555 1_555
O6 S1 1_555 1_555
N1 C1 1_555 1_555
N2 Cu1 1_555 1_555
N3 C3 1_555 1_555
N4 C10 1_555 1_555
N5 C13 1_555 1_555
N6 C14 1_555 1_555
C1 C2 1_555 1_555
C2 C3 1_555 1_555
C3 C4 1_555 1_555
C4 C5 1_555 1_555
C5 C6 1_555 1_555
C6 C1 1_555 1_555
C7 N1 1_555 1_555
C8 N2 1_555 1_555
C9 N1 1_555 1_555
C10 N3 1_555 1_555
C11 N4 1_555 1_555
C12 N3 1_555 1_555
C13 C5 1_555 1_555
C14 N5 1_555 1_555
C15 N6 1_555 1_555
C16 N5 1_555 1_555
H1 C2 1_555 1_555
H2 C4 1_555 1_555
H3 C6 1_555 1_555
H4 C7 1_555 1_555
H5 C8 1_555 1_555
H6 C9 1_555 1_555
H7 C10 1_555 1_555
H8 C11 1_555 1_555
H9 C12 1_555 1_555
H10 C13 1_555 1_555
H11 C13 1_555 1_555
H12 C14 1_555 1_555
H13 C15 1_555 1_555
H14 C16 1_555 1_555
Cu1A O3A 1_555 1_555
Cu1_2 N4 1_555 1_555
Cu1_3 N6 1_555 1_555
O3A Cu1 1_555 1_555
N4_2 Cu1 1_555 1_555
N6_2 Cu1 1_555 1_555
N2 C7 1_555 1_555
C8 C9 1_555 1_555
C11 C12 1_555 1_555
C15 C16 1_555 1_555

#END
