
#######################################################################
#
#                 Cambridge Crystallographic Data Centre
#                                CCDC 
#
#######################################################################
#
# If this CIF has been generated from an entry in the Cambridge 
# Structural Database, then it will include bibliographic, chemical, 
# crystal, experimental, refinement or atomic coordinate data resulting 
# from the CCDC's data processing and validation procedures.
#
#######################################################################

data_LALFOU
_symmetry_cell_setting           triclinic
_symmetry_space_group_name_H-M   'P -1'
_symmetry_Int_Tables_number      2
_space_group_name_Hall           '-P 1'
loop_
_symmetry_equiv_pos_site_id
_symmetry_equiv_pos_as_xyz
1 x,y,z
2 -x,-y,-z
_cell_length_a                   8.010(5)
_cell_length_b                   11.542(4)
_cell_length_c                   13.090(5)
_cell_angle_alpha                83.533(17)
_cell_angle_beta                 86.67(3)
_cell_angle_gamma                83.22(3)
_cell_volume                     1192.85
loop_
_atom_site_label
_atom_site_type_symbol
_atom_site_fract_x
_atom_site_fract_y
_atom_site_fract_z
Cu1 Cu 0.0000 1.0000 0.0000
Cu2 Cu 0.0000 0.5000 0.5000
O1 O 0.2466(3) 1.0165(2) -0.01027(18)
H1 H 0.2994 0.9871 0.0498
H2 H 0.3087 0.9639 -0.0602
N1 N 0.1357(4) 0.6592(2) -0.0640(2)
N2 N 0.0448(4) 0.8452(2) -0.0541(2)
N3 N 0.3172(4) 0.3546(2) 0.2725(2)
N4 N 0.1289(4) 0.4062(3) 0.3941(2)
N5 N 0.2718(4) 0.3112(2) -0.2611(2)
N6 N 0.1586(4) 0.4150(3) -0.3969(2)
C1 C 0.2084(5) 0.5423(3) -0.0353(3)
C2 C 0.2837(5) 0.5125(3) 0.0586(3)
H3 H 0.2848 0.5697 0.1052
C3 C 0.3581(5) 0.3975(3) 0.0839(3)
C4 C 0.3570(5) 0.3146(3) 0.0149(3)
H4 H 0.4077 0.2367 0.0321
C5 C 0.2823(5) 0.3449(3) -0.0794(2)
C6 C 0.2069(5) 0.4578(3) -0.1039(3)
H5 H 0.1539 0.4782 -0.1675
C7 C 0.1189(5) 0.7497(3) -0.0051(3)
H6 H 0.1562 0.7444 0.0630
C8 C 0.0103(6) 0.8174(3) -0.1488(3)
H7 H -0.0432 0.8699 -0.2013
C9 C 0.0646(6) 0.7033(3) -0.1558(3)
H8 H 0.0556 0.6612 -0.2132
C10 C 0.4409(5) 0.3659(3) 0.1857(2)
H9 H 0.5141 0.2908 0.1836
H10 H 0.5128 0.4272 0.1964
C11 C 0.2330(5) 0.4446(3) 0.3198(3)
H11 H 0.2474 0.5250 0.3016
C12 C 0.1486(6) 0.2843(3) 0.3963(3)
H12 H 0.0901 0.2316 0.4422
C13 C 0.2652(6) 0.2535(3) 0.3219(3)
H13 H 0.3037 0.1759 0.3069
C14 C 0.2826(5) 0.2541(3) -0.1568(2)
H14 H 0.3871 0.1992 -0.1514
H15 H 0.1859 0.2082 -0.1400
C15 C 0.1279(5) 0.3500(3) -0.3097(3)
H16 H 0.0190 0.3328 -0.2844
C16 C 0.3299(6) 0.4164(4) -0.4056(3)
H17 H 0.3899 0.4552 -0.4614
C17 C 0.4007(5) 0.3528(3) -0.3210(3)
H18 H 0.5169 0.3403 -0.3069
Cu2_2 Cu 0.0000 0.5000 -0.5000
Cu2_3 Cu 0.0000 1.5000 -0.5000
Cu2_4 Cu 0.0000 1.5000 0.5000
O1A O -0.2466(3) 0.9835(2) 0.01027(18)
H1A H -0.2994 1.0129 -0.0498
H2A H -0.3087 1.0361 0.0602
N1A N -0.1357(4) 1.3408(2) 0.0640(2)
N2A N -0.0448(4) 1.1548(2) 0.0541(2)
N3A N -0.3172(4) 1.6454(2) -0.2725(2)
N4A N -0.1289(4) 1.5938(3) -0.3941(2)
N4A_2 N -0.1289(4) 0.5938(3) 0.6059(2)
N5A N -0.2718(4) 1.6888(2) 0.2611(2)
N6A N -0.1586(4) 1.5850(3) 0.3969(2)
N6_2 N 0.1586(4) 0.4150(3) 0.6031(2)
N6A_2 N -0.1586(4) 0.5850(3) 0.3969(2)
C1A C -0.2084(5) 1.4577(3) 0.0353(3)
C2A C -0.2837(5) 1.4875(3) -0.0586(3)
H3A H -0.2848 1.4303 -0.1052
C3A C -0.3581(5) 1.6025(3) -0.0839(3)
C4A C -0.3570(5) 1.6854(3) -0.0149(3)
H4A H -0.4077 1.7633 -0.0321
C5A C -0.2823(5) 1.6551(3) 0.0794(2)
C6A C -0.2069(5) 1.5422(3) 0.1039(3)
H5A H -0.1539 1.5218 0.1675
C7A C -0.1189(5) 1.2503(3) 0.0051(3)
H6A H -0.1562 1.2556 -0.0630
C8A C -0.0103(6) 1.1826(3) 0.1488(3)
H7A H 0.0432 1.1301 0.2013
C9A C -0.0646(6) 1.2967(3) 0.1558(3)
H8A H -0.0556 1.3388 0.2132
C10A C -0.4409(5) 1.6341(3) -0.1857(2)
H9A H -0.5141 1.7092 -0.1836
H10A H -0.5128 1.5728 -0.1964
C11A C -0.2330(5) 1.5554(3) -0.3198(3)
H11A H -0.2474 1.4750 -0.3016
C12A C -0.1486(6) 1.7157(3) -0.3963(3)
H12A H -0.0901 1.7684 -0.4422
C13A C -0.2652(6) 1.7465(3) -0.3219(3)
H13A H -0.3037 1.8241 -0.3069
C14A C -0.2826(5) 1.7459(3) 0.1568(2)
H14A H -0.3871 1.8008 0.1514
H15A H -0.1859 1.7918 0.1400
C15A C -0.1279(5) 1.6500(3) 0.3097(3)
H16A H -0.0190 1.6672 0.2844
C16A C -0.3299(6) 1.5836(4) 0.4056(3)
H17A H -0.3899 1.5448 0.4614
C17A C -0.4007(5) 1.6472(3) 0.3210(3)
H18A H -0.5169 1.6597 0.3069
S1 S 0.20509(13) 0.86308(8) 0.23095(7)
O2 O 0.3440(4) 0.9166(2) 0.1711(2)
O3 O 0.0436(3) 0.9077(2) 0.18211(19)
O4 O 0.2000(5) 0.8915(3) 0.3371(2)
O5 O 0.2340(4) 0.7352(2) 0.2292(2)
O6 O 0.1962(4) 0.6517(2) 0.46225(19)
O7 O 0.4257(4) 0.9285(2) 0.82720(19)
O8 O 0.4991(5) 0.9060(3) 0.4410(2)
O9 O 0.2104(5) 0.0231(3) 0.6700(2)
O10 O 0.6678(5) 0.2325(3) 0.3920(3)
O11? O 0.0437(14) 0.9764(12) 0.5109(12)
loop_
_geom_bond_atom_site_label_1
_geom_bond_atom_site_label_2
_geom_bond_site_symmetry_1
_geom_bond_site_symmetry_2
Cu1 O1 1_555 1_555
Cu2 N4 1_555 1_555
O1 H1 1_555 1_555
H2 O1 1_555 1_555
N1 C1 1_555 1_555
N2 Cu1 1_555 1_555
N3 C10 1_555 1_555
N4 C11 1_555 1_555
N5 C14 1_555 1_555
N6 C15 1_555 1_555
C1 C2 1_555 1_555
C2 H3 1_555 1_555
C3 C2 1_555 1_555
C4 C3 1_555 1_555
H4 C4 1_555 1_555
C5 C4 1_555 1_555
C6 C1 1_555 1_555
H5 C6 1_555 1_555
C7 N1 1_555 1_555
H6 C7 1_555 1_555
C8 N2 1_555 1_555
H7 C8 1_555 1_555
C9 N1 1_555 1_555
H8 C9 1_555 1_555
C10 C3 1_555 1_555
H9 C10 1_555 1_555
H10 C10 1_555 1_555
C11 N3 1_555 1_555
H11 C11 1_555 1_555
C12 N4 1_555 1_555
H12 C12 1_555 1_555
C13 N3 1_555 1_555
H13 C13 1_555 1_555
C14 C5 1_555 1_555
H14 C14 1_555 1_555
H15 C14 1_555 1_555
C15 N5 1_555 1_555
H16 C15 1_555 1_555
C16 N6 1_555 1_555
H17 C16 1_555 1_555
C17 N5 1_555 1_555
H18 C17 1_555 1_555
S1 O2 1_555 1_555
O3 S1 1_555 1_555
O4 S1 1_555 1_555
O5 S1 1_555 1_555
Cu2_2 N6 1_555 1_555
Cu2_3 N4A 1_555 1_555
Cu2_4 N6A 1_555 1_555
O1A Cu1 1_555 1_555
H1A O1A 1_555 1_555
H2A O1A 1_555 1_555
N1A C1A 1_555 1_555
N2A Cu1 1_555 1_555
N3A C10A 1_555 1_555
N4A C11A 1_555 1_555
N4A_2 Cu2 1_555 1_555
N5A C14A 1_555 1_555
N6A C15A 1_555 1_555
N6_2 Cu2 1_555 1_555
N6A_2 Cu2 1_555 1_555
C1A C2A 1_555 1_555
C2A H3A 1_555 1_555
C3A C2A 1_555 1_555
C4A C3A 1_555 1_555
H4A C4A 1_555 1_555
C5A C4A 1_555 1_555
C6A C1A 1_555 1_555
H5A C6A 1_555 1_555
C7A N1A 1_555 1_555
H6A C7A 1_555 1_555
C8A N2A 1_555 1_555
H7A C8A 1_555 1_555
C9A N1A 1_555 1_555
H8A C9A 1_555 1_555
C10A C3A 1_555 1_555
H9A C10A 1_555 1_555
H10A C10A 1_555 1_555
C11A N3A 1_555 1_555
H11A C11A 1_555 1_555
C12A N4A 1_555 1_555
H12A C12A 1_555 1_555
C13A N3A 1_555 1_555
H13A C13A 1_555 1_555
C14A C5A 1_555 1_555
H14A C14A 1_555 1_555
H15A C14A 1_555 1_555
C15A N5A 1_555 1_555
H16A C15A 1_555 1_555
C16A N6A 1_555 1_555
H17A C16A 1_555 1_555
C17A N5A 1_555 1_555
H18A C17A 1_555 1_555
N2 C7 1_555 1_555
C5 C6 1_555 1_555
C8 C9 1_555 1_555
C12 C13 1_555 1_555
C16 C17 1_555 1_555
N2A C7A 1_555 1_555
C5A C6A 1_555 1_555
C8A C9A 1_555 1_555
C12A C13A 1_555 1_555
C16A C17A 1_555 1_555

#END
