
#######################################################################
#
#                 Cambridge Crystallographic Data Centre
#                                CCDC 
#
#######################################################################
#
# If this CIF has been generated from an entry in the Cambridge 
# Structural Database, then it will include bibliographic, chemical, 
# crystal, experimental, refinement or atomic coordinate data resulting 
# from the CCDC's data processing and validation procedures.
#
#######################################################################

data_LALFOV
_symmetry_cell_setting           triclinic
_symmetry_space_group_name_H-M   'P -1'
_symmetry_Int_Tables_number      2
_space_group_name_Hall           '-P 1'
loop_
_symmetry_equiv_pos_site_id
_symmetry_equiv_pos_as_xyz
1 x,y,z
2 -x,-y,-z
_cell_length_a                   7.227(3)
_cell_length_b                   10.992(4)
_cell_length_c                   13.404(6)
_cell_angle_alpha                79.213(19)
_cell_angle_beta                 79.168(19)
_cell_angle_gamma                74.060(18)
_cell_volume                     995.207
loop_
_atom_site_label
_atom_site_type_symbol
_atom_site_fract_x
_atom_site_fract_y
_atom_site_fract_z
N1 N 0.1394(5) 0.4542(4) 0.7449(3)
C1 C 0.2538(7) 0.4588(5) 0.8116(4)
H1 H 0.2877 0.3875 0.8603
C2 C 0.1590(6) 0.6670(5) 0.6722(3)
H2 H 0.1248 0.7363 0.6217
C3 C 0.0930(7) 0.5585(5) 0.6766(3)
H3 H 0.0128 0.5587 0.6299
C4 C 0.2749(6) 0.6742(5) 0.7415(3)
Au1 Au -0.19913(2) -0.137700(18) 0.833520(12)
Au2 Au -0.5000 0.5000 0.5000
Au3 Au 0.5000 0.0000 1.0000
C5 C 0.3274(6) 0.1037(5) 0.9002(3)
C6 C 0.4261(6) 0.8332(5) 0.4665(3)
H4 H 0.2949 0.8534 0.4599
C7 C 0.5653(7) 0.7919(5) 0.3853(4)
H5 H 0.5240 0.7834 0.3258
C8 C 0.4811(6) 0.8446(4) 0.5576(3)
C9 C 0.8112(7) 0.7744(5) 0.4767(4)
H6 H 0.9433 0.7550 0.4812
C10 C 0.6818(7) 0.8128(5) 0.5605(3)
H7 H 0.7275 0.8178 0.6197
C11 C -0.3033(6) 0.4389(5) 0.5954(3)
C12 C 0.3423(6) 0.7906(5) 0.7448(3)
H8 H 0.4750 0.7628 0.7598
H9 H 0.2629 0.8324 0.8015
C13 C 0.3366(7) 0.8892(5) 0.6482(4)
H10 H 0.2069 0.9122 0.6294
H11 H 0.3613 0.9657 0.6635
C14 C 0.3238(7) 0.5634(5) 0.8120(4)
H12 H 0.4042 0.5603 0.8595
C15 C -0.1377(7) 0.0297(5) 0.7761(3)
C16 C -0.2064(7) 0.2541(5) 0.9697(4)
H13 H -0.1196 0.2570 1.0149
H14 H -0.3384 0.2801 1.0022
H15 H -0.1809 0.1684 0.9549
C17 C -0.2417(7) -0.3120(5) 0.8868(4)
Fe1 Fe 0.02413(9) 0.28759(6) 0.74517(4)
N2 N 0.2271(5) 0.1658(4) 0.8425(3)
N3 N 0.7589(5) 0.7633(4) 0.3890(3)
N4 N -0.1870(5) 0.3981(4) 0.6481(3)
N5 N -0.0911(6) 0.1227(4) 0.7480(3)
N6 N -0.2608(6) -0.4120(5) 0.9145(3)
O1 O -0.1769(4) 0.3382(3) 0.8766(2)
N1A N 0.8606(5) 0.5458(4) 0.2551(3)
N1A_2 N -1.1394(5) 0.5458(4) 0.2551(3)
C1A C 0.7462(7) 0.5412(5) 0.1884(4)
H1A H 0.7123 0.6125 0.1397
C2A C 0.8410(6) 0.3330(5) 0.3278(3)
H2A H 0.8752 0.2637 0.3783
C3A C 0.9070(7) 0.4415(5) 0.3234(3)
H3A H 0.9872 0.4413 0.3701
C4A C 0.7251(6) 0.3258(5) 0.2585(3)
Au1A Au -0.80087(2) 1.137700(18) 0.166480(12)
Au3_2 Au -1.5000 1.0000 0.0000
C5A C -1.3274(6) 0.8963(5) 0.0998(3)
C5A_2 C 0.6726(6) -0.1037(5) 1.0998(3)
C6A C 0.5739(6) 0.1668(5) 0.5335(3)
H4A H 0.7051 0.1466 0.5401
C7A C 0.4347(7) 0.2081(5) 0.6147(4)
H5A H 0.4760 0.2166 0.6742
C8A C 0.5189(6) 0.1554(4) 0.4424(3)
C9A C 0.1888(7) 0.2256(5) 0.5233(4)
H6A H 0.0567 0.2450 0.5188
C10A C 0.3182(7) 0.1872(5) 0.4395(3)
H7A H 0.2725 0.1822 0.3803
C11A C -0.6967(6) 0.5611(5) 0.4046(3)
C12A C 0.6577(6) 0.2094(5) 0.2552(3)
H8A H 0.5250 0.2372 0.2402
H9A H 0.7371 0.1676 0.1985
C13A C 0.6634(7) 0.1108(5) 0.3518(4)
H10A H 0.7931 0.0878 0.3706
H11A H 0.6387 0.0343 0.3365
C14A C 0.6762(7) 0.4366(5) 0.1880(4)
H12A H 0.5958 0.4397 0.1405
C15A C -0.8623(7) 0.9703(5) 0.2239(3)
C16A C -0.7936(7) 0.7459(5) 0.0303(4)
H13A H -0.8804 0.7430 -0.0149
H14A H -0.6616 0.7199 -0.0022
H15A H -0.8191 0.8316 0.0451
C17A C -0.7583(7) 1.3120(5) 0.1132(4)
Fe1A Fe -1.02413(9) 0.71241(6) 0.25483(4)
Fe1A_2 Fe 0.97587(9) 0.71241(6) 0.25483(4)
N2A N -1.2271(5) 0.8342(4) 0.1575(3)
N3A N 0.2411(5) 0.2367(4) 0.6110(3)
N3_2 N -1.2411(5) 0.7633(4) 0.3890(3)
N4A N -0.8130(5) 0.6019(4) 0.3519(3)
N5A N -0.9089(6) 0.8773(4) 0.2520(3)
N6A N -0.7392(6) 1.4120(5) 0.0855(3)
O1A O -0.8231(4) 0.6618(3) 0.1234(2)
loop_
_geom_bond_atom_site_label_1
_geom_bond_atom_site_label_2
_geom_bond_site_symmetry_1
_geom_bond_site_symmetry_2
N1 C1 1_555 1_555
C1 H1 1_555 1_555
C2 H2 1_555 1_555
C3 N1 1_555 1_555
H3 C3 1_555 1_555
C4 C2 1_555 1_555
Au1 C15 1_555 1_555
Au2 C11 1_555 1_555
Au3 C5 1_555 1_555
C5 N2 1_555 1_555
C6 H4 1_555 1_555
C7 C6 1_555 1_555
H5 C7 1_555 1_555
C8 C6 1_555 1_555
C9 H6 1_555 1_555
C10 C8 1_555 1_555
H7 C10 1_555 1_555
C11 N4 1_555 1_555
C12 C4 1_555 1_555
H8 C12 1_555 1_555
H9 C12 1_555 1_555
C13 C8 1_555 1_555
H10 C13 1_555 1_555
H11 C13 1_555 1_555
C14 C1 1_555 1_555
H12 C14 1_555 1_555
C15 N5 1_555 1_555
C16 H13 1_555 1_555
H14 C16 1_555 1_555
H15 C16 1_555 1_555
C17 Au1 1_555 1_555
Fe1 N1 1_555 1_555
N2 Fe1 1_555 1_555
N3 C7 1_555 1_555
N4 Fe1 1_555 1_555
N5 Fe1 1_555 1_555
N6 C17 1_555 1_555
O1 C16 1_555 1_555
N1A C1A 1_555 1_555
N1A_2 Fe1A 1_555 1_555
C1A H1A 1_555 1_555
C2A H2A 1_555 1_555
C3A N1A 1_555 1_555
H3A C3A 1_555 1_555
C4A C2A 1_555 1_555
Au1A C15A 1_555 1_555
Au3_2 C5A 1_555 1_555
C5A N2A 1_555 1_555
C5A_2 Au3 1_555 1_555
C6A H4A 1_555 1_555
C7A C6A 1_555 1_555
H5A C7A 1_555 1_555
C8A C6A 1_555 1_555
C9A H6A 1_555 1_555
C10A C8A 1_555 1_555
H7A C10A 1_555 1_555
C11A Au2 1_555 1_555
C12A C4A 1_555 1_555
H8A C12A 1_555 1_555
H9A C12A 1_555 1_555
C13A C8A 1_555 1_555
H10A C13A 1_555 1_555
H11A C13A 1_555 1_555
C14A C1A 1_555 1_555
H12A C14A 1_555 1_555
C15A N5A 1_555 1_555
C16A H13A 1_555 1_555
H14A C16A 1_555 1_555
H15A C16A 1_555 1_555
C17A Au1A 1_555 1_555
Fe1A N2A 1_555 1_555
Fe1A_2 N3 1_555 1_555
N3A Fe1 1_555 1_555
N3_2 Fe1A 1_555 1_555
N4A C11A 1_555 1_555
N5A Fe1A 1_555 1_555
N6A C17A 1_555 1_555
O1A C16A 1_555 1_555
C2 C3 1_555 1_555
C4 C14 1_555 1_555
C9 C10 1_555 1_555
C9 N3 1_555 1_555
C12 C13 1_555 1_555
Fe1 O1 1_555 1_555
N1A Fe1A_2 1_555 1_555
C2A C3A 1_555 1_555
C4A C14A 1_555 1_555
C7A N3A 1_555 1_555
C9A C10A 1_555 1_555
C9A N3A 1_555 1_555
C12A C13A 1_555 1_555
Fe1A N4A 1_555 1_555
Fe1A O1A 1_555 1_555

#END
