
#######################################################################
#
#                 Cambridge Crystallographic Data Centre
#                                CCDC 
#
#######################################################################
#
# If this CIF has been generated from an entry in the Cambridge 
# Structural Database, then it will include bibliographic, chemical, 
# crystal, experimental, refinement or atomic coordinate data resulting 
# from the CCDC's data processing and validation procedures.
#
#######################################################################

data_LALFEK
_symmetry_cell_setting           triclinic
_symmetry_space_group_name_H-M   'P -1'
_symmetry_Int_Tables_number      2
_space_group_name_Hall           '-P 1'
loop_
_symmetry_equiv_pos_site_id
_symmetry_equiv_pos_as_xyz
1 x,y,z
2 -x,-y,-z
_cell_length_a                   8.6760(17)
_cell_length_b                   9.911(2)
_cell_length_c                   9.999(2)
_cell_angle_alpha                82.30(3)
_cell_angle_beta                 81.31(3)
_cell_angle_gamma                89.57(3)
_cell_volume                     842.187
loop_
_atom_site_label
_atom_site_type_symbol
_atom_site_fract_x
_atom_site_fract_y
_atom_site_fract_z
Cu1 Cu 0.5000 0.5000 0.5000
Cu2 Cu 0.0000 0.5000 1.0000
S1 S 0.27369(12) 0.35613(10) 0.71874(10)
O2 O 0.4465(3) 0.3729(3) 0.6709(3)
O3 O 0.1949(3) 0.4289(3) 0.6112(3)
O4 O 0.2348(4) 0.2102(3) 0.7377(3)
O5 O 0.2343(4) 0.4124(3) 0.8475(3)
N1 N 0.3716(4) 0.1601(3) 0.3544(3)
N2 N 0.4648(4) 0.3541(3) 0.3920(3)
N3 N 0.2469(4) -0.2714(3) 0.2149(3)
N4 N 0.1550(4) -0.4089(3) 0.0909(3)
N5 N 0.0906(4) -0.1872(3) 0.6830(3)
N6 N 0.0095(4) -0.3281(3) 0.8684(3)
C1 C 0.3064(4) 0.0259(4) 0.3860(4)
C2 C 0.3161(5) -0.0585(4) 0.2857(4)
H1 H 0.3681 -0.0301 0.1982
C3 C 0.2465(4) -0.1861(4) 0.3189(4)
C4 C 0.1717(5) -0.2299(4) 0.4492(4)
H2 H 0.1273 -0.3167 0.4708
C5 C 0.1638(5) -0.1428(4) 0.5475(4)
C6 C 0.2305(5) -0.0138(4) 0.5166(4)
H3 H 0.2242 0.0448 0.5825
C7 C 0.4326(5) 0.2271(4) 0.4432(4)
H4 H 0.4496 0.1882 0.5295
C8 C 0.4219(5) 0.3702(4) 0.2641(4)
H5 H 0.4304 0.4511 0.2043
C9 C 0.3655(5) 0.2518(4) 0.2379(4)
H6 H 0.3300 0.2351 0.1584
C10 C 0.1287(5) -0.3562(4) 0.2053(4)
H7 H 0.0408 -0.3746 0.2711
C11 C 0.2966(5) -0.3585(4) 0.0244(4)
H8 H 0.3453 -0.3805 -0.0591
C12 C 0.3549(5) -0.2724(4) 0.0983(4)
H9 H 0.4484 -0.2236 0.0755
C13 C 0.0724(5) -0.3187(4) 0.7399(4)
H10 H 0.1009 -0.3927 0.6939
C14 C -0.0141(5) -0.1967(4) 0.8974(4)
H11 H -0.0573 -0.1723 0.9815
C15 C 0.0354(5) -0.1095(4) 0.7845(4)
H12 H 0.0330 -0.0149 0.7762
Cu2_2 Cu 0.0000 -0.5000 0.0000
Cu2_3 Cu 0.0000 -0.5000 1.0000
Cu2_4 Cu 1.0000 0.5000 0.0000
Cu2_5 Cu 1.0000 1.5000 1.0000
Cu2_6 Cu 1.0000 1.5000 0.0000
S1A S 0.72631(12) 0.64387(10) 0.28126(10)
O2A O 0.5535(3) 0.6271(3) 0.3291(3)
O3A O 0.8051(3) 0.5711(3) 0.3888(3)
O4A O 0.7652(4) 0.7898(3) 0.2623(3)
O5A O 0.7657(4) 0.5876(3) 0.1525(3)
O5A_2 O -0.2343(4) 0.5876(3) 1.1525(3)
N1A N 0.6284(4) 0.8399(3) 0.6456(3)
N2A N 0.5352(4) 0.6459(3) 0.6080(3)
N3A N 0.7531(4) 1.2714(3) 0.7851(3)
N4A N 0.8450(4) 1.4089(3) 0.9091(3)
N4_2 N 0.1550(4) 0.5911(3) 1.0909(3)
N4A_2 N -0.1550(4) 0.4089(3) 0.9091(3)
N5A N 0.9094(4) 1.1872(3) 0.3170(3)
N6A N 0.9905(4) 1.3281(3) 0.1316(3)
N6_2 N 0.0095(4) 0.6719(3) 0.8684(3)
N6A_2 N -0.0095(4) 0.3281(3) 1.1316(3)
C1A C 0.6936(4) 0.9741(4) 0.6140(4)
C2A C 0.6839(5) 1.0585(4) 0.7143(4)
H1A H 0.6319 1.0301 0.8018
C3A C 0.7535(4) 1.1861(4) 0.6811(4)
C4A C 0.8283(5) 1.2299(4) 0.5508(4)
H2A H 0.8727 1.3167 0.5292
C5A C 0.8362(5) 1.1428(4) 0.4525(4)
C6A C 0.7695(5) 1.0138(4) 0.4834(4)
H3A H 0.7758 0.9552 0.4175
C7A C 0.5674(5) 0.7729(4) 0.5568(4)
H4A H 0.5504 0.8118 0.4705
C8A C 0.5781(5) 0.6298(4) 0.7359(4)
H5A H 0.5696 0.5489 0.7957
C9A C 0.6345(5) 0.7482(4) 0.7621(4)
H6A H 0.6700 0.7649 0.8416
C10A C 0.8713(5) 1.3562(4) 0.7947(4)
H7A H 0.9592 1.3746 0.7289
C11A C 0.7034(5) 1.3585(4) 0.9756(4)
H8A H 0.6547 1.3805 1.0591
C12A C 0.6451(5) 1.2724(4) 0.9017(4)
H9A H 0.5516 1.2236 0.9245
C13A C 0.9276(5) 1.3187(4) 0.2601(4)
H10A H 0.8991 1.3927 0.3061
C14A C 1.0141(5) 1.1967(4) 0.1026(4)
H11A H 1.0573 1.1723 0.0185
C15A C 0.9646(5) 1.1095(4) 0.2155(4)
H12A H 0.9670 1.0149 0.2238
O1 O 0.3350(5) 0.0380(5) 0.9401(5)
loop_
_geom_bond_atom_site_label_1
_geom_bond_atom_site_label_2
_geom_bond_site_symmetry_1
_geom_bond_site_symmetry_2
Cu1 O2 1_555 1_555
Cu2 O5 1_555 1_555
S1 O2 1_555 1_555
O3 S1 1_555 1_555
O4 S1 1_555 1_555
O5 S1 1_555 1_555
N1 C1 1_555 1_555
N2 Cu1 1_555 1_555
N3 C3 1_555 1_555
N4 C10 1_555 1_555
N5 C5 1_555 1_555
N6 C13 1_555 1_555
C1 C2 1_555 1_555
C2 H1 1_555 1_555
C3 C2 1_555 1_555
C4 C3 1_555 1_555
H2 C4 1_555 1_555
C5 C4 1_555 1_555
C6 C1 1_555 1_555
H3 C6 1_555 1_555
C7 N1 1_555 1_555
H4 C7 1_555 1_555
C8 N2 1_555 1_555
H5 C8 1_555 1_555
C9 N1 1_555 1_555
H6 C9 1_555 1_555
C10 N3 1_555 1_555
H7 C10 1_555 1_555
C11 N4 1_555 1_555
H8 C11 1_555 1_555
C12 N3 1_555 1_555
H9 C12 1_555 1_555
C13 N5 1_555 1_555
H10 C13 1_555 1_555
C14 N6 1_555 1_555
H11 C14 1_555 1_555
C15 N5 1_555 1_555
H12 C15 1_555 1_555
Cu2_2 N4 1_555 1_555
Cu2_3 N6 1_555 1_555
Cu2_4 O5A 1_555 1_555
Cu2_5 N4A 1_555 1_555
Cu2_6 N6A 1_555 1_555
S1A O2A 1_555 1_555
O2A Cu1 1_555 1_555
O3A S1A 1_555 1_555
O4A S1A 1_555 1_555
O5A S1A 1_555 1_555
O5A_2 Cu2 1_555 1_555
N1A C1A 1_555 1_555
N2A Cu1 1_555 1_555
N3A C3A 1_555 1_555
N4A C10A 1_555 1_555
N4_2 Cu2 1_555 1_555
N4A_2 Cu2 1_555 1_555
N5A C5A 1_555 1_555
N6A C13A 1_555 1_555
N6_2 Cu2 1_555 1_555
N6A_2 Cu2 1_555 1_555
C1A C2A 1_555 1_555
C2A H1A 1_555 1_555
C3A C2A 1_555 1_555
C4A C3A 1_555 1_555
H2A C4A 1_555 1_555
C5A C4A 1_555 1_555
C6A C1A 1_555 1_555
H3A C6A 1_555 1_555
C7A N1A 1_555 1_555
H4A C7A 1_555 1_555
C8A N2A 1_555 1_555
H5A C8A 1_555 1_555
C9A N1A 1_555 1_555
H6A C9A 1_555 1_555
C10A N3A 1_555 1_555
H7A C10A 1_555 1_555
C11A N4A 1_555 1_555
H8A C11A 1_555 1_555
C12A N3A 1_555 1_555
H9A C12A 1_555 1_555
C13A N5A 1_555 1_555
H10A C13A 1_555 1_555
C14A N6A 1_555 1_555
H11A C14A 1_555 1_555
C15A N5A 1_555 1_555
H12A C15A 1_555 1_555
N2 C7 1_555 1_555
C5 C6 1_555 1_555
C8 C9 1_555 1_555
C11 C12 1_555 1_555
C14 C15 1_555 1_555
N2A C7A 1_555 1_555
C5A C6A 1_555 1_555
C8A C9A 1_555 1_555
C11A C12A 1_555 1_555
C14A C15A 1_555 1_555

#END
