
#######################################################################
#
#                 Cambridge Crystallographic Data Centre
#                                CCDC 
#
#######################################################################
#
# If this CIF has been generated from an entry in the Cambridge 
# Structural Database, then it will include bibliographic, chemical, 
# crystal, experimental, refinement or atomic coordinate data resulting 
# from the CCDC's data processing and validation procedures.
#
#######################################################################

data_LALFAH
_symmetry_cell_setting           monoclinic
_symmetry_space_group_name_H-M   'P 21/c'
_symmetry_Int_Tables_number      14
_space_group_name_Hall           '-P 2ybc'
loop_
_symmetry_equiv_pos_site_id
_symmetry_equiv_pos_as_xyz
1 x,y,z
2 -x,1/2+y,1/2-z
3 -x,-y,-z
4 x,1/2-y,1/2+z
_cell_length_a                   13.133(3)
_cell_length_b                   22.410(5)
_cell_length_c                   10.267(2)
_cell_angle_alpha                90
_cell_angle_beta                 98.96(3)
_cell_angle_gamma                90
_cell_volume                     2984.81
loop_
_atom_site_label
_atom_site_type_symbol
_atom_site_fract_x
_atom_site_fract_y
_atom_site_fract_z
Mn1 Mn -0.75783(8) 0.70020(5) 1.15349(10)
Mn2 Mn -0.68982(8) 0.47256(5) 1.33933(11)
O1 O -0.7798(5) 0.3132(2) 1.4786(5)
O2 O -0.3786(4) 0.4701(2) 1.4995(5)
O3 O -0.7718(4) 0.3031(2) 1.2161(5)
O4 O -0.6542(4) 0.5266(2) 1.1791(5)
O5 O -0.5284(4) 0.4437(2) 1.3830(5)
O6 O -0.7322(4) 0.3990(2) 1.2127(5)
O7 O -0.8132(4) 0.5364(2) 1.3104(5)
O8 O -0.7434(4) 0.4093(2) 1.4664(5)
O9 O -0.8472(4) 0.7032(2) 0.9587(5)
O10 O -0.6740(4) 0.6208(2) 1.1143(5)
O11 O -0.6592(4) 0.7897(2) 0.8447(5)
O12 O -0.6689(4) 0.7581(2) 1.0470(5)
O13 O -0.8408(4) 0.6290(2) 1.2348(5)
O14 O -0.8388(4) 0.7354(2) 0.7560(5)
C1 C -0.4733(6) 0.4754(3) 1.4663(7)
C2 C -0.7926(5) 0.5817(3) 1.2470(7)
C3 C -0.7024(5) 0.7621(3) 0.9260(7)
C4 C -0.8057(5) 0.7309(3) 0.8753(7)
C5 C -0.7584(6) 0.3580(3) 1.4183(7)
C6 C -0.7546(5) 0.3513(3) 1.2702(7)
C7 C -0.6986(6) 0.5755(3) 1.1738(7)
Mn1B Mn -0.24217(8) 0.29980(5) 1.84651(10)
Mn1A Mn -0.24217(8) 0.20020(5) 2.34651(10)
Mn1C Mn -0.75783(8) 0.79980(5) 0.65349(10)
Mn2B Mn -0.31018(8) 0.52744(5) 1.66067(11)
O1B O -0.2202(5) 0.6868(2) 1.5214(5)
O2B O -0.6214(4) 0.5299(2) 1.5005(5)
O3B O -0.2282(4) 0.6969(2) 1.7839(5)
O4B O -0.3458(4) 0.4734(2) 1.8209(5)
O5B O -0.4716(4) 0.5563(2) 1.6170(5)
O6B O -0.2678(4) 0.6010(2) 1.7873(5)
O7B O -0.1868(4) 0.4636(2) 1.6896(5)
O8B O -0.2566(4) 0.5907(2) 1.5336(5)
O9B O -0.1528(4) 0.2968(2) 2.0413(5)
O10B O -0.3260(4) 0.3792(2) 1.8857(5)
O11B O -0.3408(4) 0.2103(2) 2.1553(5)
O11A O -0.3408(4) 0.2897(2) 1.6553(5)
O11C O -0.6592(4) 0.7103(2) 1.3447(5)
O12B O -0.3311(4) 0.2419(2) 1.9530(5)
O13B O -0.1592(4) 0.3710(2) 1.7652(5)
O14B O -0.1612(4) 0.2646(2) 2.2440(5)
O14A O -0.1612(4) 0.2354(2) 1.7440(5)
O14C O -0.8388(4) 0.7646(2) 1.2560(5)
C1B C -0.5267(6) 0.5246(3) 1.5337(7)
C2B C -0.2074(5) 0.4183(3) 1.7530(7)
C3B C -0.2976(5) 0.2379(3) 2.0740(7)
C4B C -0.1943(5) 0.2691(3) 2.1247(7)
C5B C -0.2416(6) 0.6420(3) 1.5817(7)
C6B C -0.2454(5) 0.6487(3) 1.7298(7)
C7B C -0.3014(6) 0.4245(3) 1.8262(7)
Co1 Co -0.24648(7) 0.62879(4) 1.15810(9)
C8 C -0.4227(7) 0.5618(4) 1.1804(9)
H1 H -0.4647 0.5902 1.2199
H2 H -0.4485 0.5220 1.1927
C9 C -0.4283(7) 0.5749(4) 1.0345(9)
H3 H -0.4048 0.5404 0.9904
H4 H -0.4992 0.5830 0.9958
C10 C -0.4141(6) 0.6868(4) 1.0132(8)
H5 H -0.4826 0.6845 0.9618
H6 H -0.3746 0.7158 0.9720
C11 C -0.4217(6) 0.7061(4) 1.1507(9)
H7 H -0.4312 0.7490 1.1535
H8 H -0.4803 0.6870 1.1804
C12 C -0.0679(6) 0.6981(4) 1.1446(9)
H9 H -0.0437 0.7384 1.1334
H10 H -0.0233 0.6706 1.1073
C13 C -0.0662(6) 0.6849(4) 1.2883(8)
H11 H 0.0042 0.6780 1.3306
H12 H -0.0933 0.7187 1.3310
C14 C -0.0751(7) 0.5738(4) 1.3024(9)
H13 H -0.1111 0.5434 1.3449
H14 H -0.0063 0.5780 1.3518
C15 C -0.0685(7) 0.5548(4) 1.1600(10)
H15 H -0.0125 0.5759 1.1285
H16 H -0.0550 0.5124 1.1568
N1 N -0.3168(5) 0.5665(3) 1.2415(6)
H17 H -0.2848 0.5314 1.2347
H18 H -0.3139 0.5748 1.3278
N2 N -0.3631(5) 0.6272(3) 1.0157(6)
H19 H -0.3383 0.6224 0.9383
N3 N -0.3264(5) 0.6890(3) 1.2362(6)
H20 H -0.3421 0.6748 1.3126
H21 H -0.2871 0.7217 1.2550
N4 N -0.1731(5) 0.6917(3) 1.0787(6)
H22 H -0.1728 0.6832 0.9931
H23 H -0.2065 0.7266 1.0829
N5 N -0.1304(5) 0.6307(3) 1.3016(6)
H24 H -0.1559 0.6337 1.3788
N6 N -0.1677(5) 0.5692(3) 1.0753(6)
H25 H -0.2055 0.5357 1.0600
H26 H -0.1551 0.5833 0.9972
O15 O 0.1684(12) 0.5693(8) 1.5777(12)
O16 O 0.0239(11) 0.6422(6) 1.6281(15)
O17 O 0.3987(9) 0.6410(4) 0.7274(9)
O18 O -0.0073(8) 0.6142(5) 0.8890(9)
O19 O 0.2581(8) 0.5553(3) 1.8546(8)
O20 O 0.5337(5) 0.6604(3) 1.4349(6)
O21? O -0.032(2) 0.5683(13) 1.647(3)
loop_
_geom_bond_atom_site_label_1
_geom_bond_atom_site_label_2
_geom_bond_site_symmetry_1
_geom_bond_site_symmetry_2
Mn1 O9 1_555 1_555
Mn2 O4 1_555 1_555
O1 C5 1_555 1_555
O2 C1 1_555 1_555
O3 C6 1_555 1_555
O4 C7 1_555 1_555
O5 Mn2 1_555 1_555
O6 Mn2 1_555 1_555
O7 Mn2 1_555 1_555
O8 Mn2 1_555 1_555
O9 C4 1_555 1_555
O10 Mn1 1_555 1_555
O11 C3 1_555 1_555
O12 Mn1 1_555 1_555
O13 Mn1 1_555 1_555
O14 C4 1_555 1_555
C1 O5 1_555 1_555
C2 O7 1_555 1_555
C3 O12 1_555 1_555
C4 C3 1_555 1_555
C5 O8 1_555 1_555
C6 O6 1_555 1_555
C7 O10 1_555 1_555
Co1 N1 1_555 1_555
C8 H1 1_555 1_555
H2 C8 1_555 1_555
C9 C8 1_555 1_555
H3 C9 1_555 1_555
H4 C9 1_555 1_555
C10 H5 1_555 1_555
H6 C10 1_555 1_555
C11 C10 1_555 1_555
H7 C11 1_555 1_555
H8 C11 1_555 1_555
C12 H9 1_555 1_555
H10 C12 1_555 1_555
C13 C12 1_555 1_555
H11 C13 1_555 1_555
H12 C13 1_555 1_555
C14 H13 1_555 1_555
H14 C14 1_555 1_555
C15 C14 1_555 1_555
H15 C15 1_555 1_555
H16 C15 1_555 1_555
N1 C8 1_555 1_555
H17 N1 1_555 1_555
H18 N1 1_555 1_555
N2 Co1 1_555 1_555
H19 N2 1_555 1_555
N3 Co1 1_555 1_555
H20 N3 1_555 1_555
H21 N3 1_555 1_555
N4 Co1 1_555 1_555
H22 N4 1_555 1_555
H23 N4 1_555 1_555
N5 Co1 1_555 1_555
H24 N5 1_555 1_555
N6 Co1 1_555 1_555
H25 N6 1_555 1_555
H26 N6 1_555 1_555
Mn1B O9B 1_555 1_555
Mn1A O11B 1_555 1_555
Mn1C O11 1_555 1_555
Mn2B O2 1_555 1_555
O1B C5B 1_555 1_555
O2B Mn2 1_555 1_555
O3B C6B 1_555 1_555
O4B Mn2B 1_555 1_555
O5B Mn2B 1_555 1_555
O6B Mn2B 1_555 1_555
O7B Mn2B 1_555 1_555
O8B Mn2B 1_555 1_555
O9B C4B 1_555 1_555
O10B Mn1B 1_555 1_555
O11B C3B 1_555 1_555
O11A Mn1B 1_555 1_555
O11C Mn1 1_555 1_555
O12B Mn1B 1_555 1_555
O13B Mn1B 1_555 1_555
O14B Mn1A 1_555 1_555
O14A Mn1B 1_555 1_555
O14C Mn1 1_555 1_555
C1B C1 1_555 1_555
C2B O7B 1_555 1_555
C3B O12B 1_555 1_555
C4B O14B 1_555 1_555
C5B O8B 1_555 1_555
C6B O6B 1_555 1_555
C7B O4B 1_555 1_555
O13 C2 1_555 1_555
O14 Mn1C 1_555 1_555
C2 C7 1_555 1_555
C5 C6 1_555 1_555
C9 N2 1_555 1_555
C10 N2 1_555 1_555
C11 N3 1_555 1_555
C12 N4 1_555 1_555
C13 N5 1_555 1_555
C14 N5 1_555 1_555
C15 N6 1_555 1_555
O2B C1B 1_555 1_555
O5B C1B 1_555 1_555
O10B C7B 1_555 1_555
O13B C2B 1_555 1_555
C2B C7B 1_555 1_555
C3B C4B 1_555 1_555
C5B C6B 1_555 1_555

#END
