
#######################################################################
#
#                 Cambridge Crystallographic Data Centre
#                                CCDC 
#
#######################################################################
#
# If this CIF has been generated from an entry in the Cambridge 
# Structural Database, then it will include bibliographic, chemical, 
# crystal, experimental, refinement or atomic coordinate data resulting 
# from the CCDC's data processing and validation procedures.
#
#######################################################################

data_LALGAH
_symmetry_cell_setting           triclinic
_symmetry_space_group_name_H-M   'P -1'
_symmetry_Int_Tables_number      2
_space_group_name_Hall           '-P 1'
loop_
_symmetry_equiv_pos_site_id
_symmetry_equiv_pos_as_xyz
1 x,y,z
2 -x,-y,-z
_cell_length_a                   11.954(2)
_cell_length_b                   12.985(2)
_cell_length_c                   13.116(2)
_cell_angle_alpha                61.926(3)
_cell_angle_beta                 77.409(3)
_cell_angle_gamma                68.296(3)
_cell_volume                     1666.61
loop_
_atom_site_label
_atom_site_type_symbol
_atom_site_fract_x
_atom_site_fract_y
_atom_site_fract_z
Ag1 Ag 0.81407(3) 0.80532(3) 0.59629(3)
S1 S 0.77162(19) 0.61799(13) 0.78400(13)
S2 S 0.73357(15) 0.89759(12) 0.75631(12)
P1 P 0.74132(13) 0.72501(13) 0.86011(11)
P2 P 0.67483(9) 0.89604(9) 0.44010(9)
P3 P 1.02092(9) 0.81395(9) 0.52044(9)
O1 O 0.6344(5) 0.7110(5) 0.9537(4)
O2 O 0.8456(5) 0.6606(4) 0.9487(5)
C1 C 0.5177(9) 0.7570(13) 0.9179(9)
H1 H 0.5176 0.7401 0.8534
H2 H 0.4888 0.8453 0.8918
C2 C 0.4401(12) 0.703(2) 1.0087(13)
H3 H 0.3601 0.7364 0.9822
H4 H 0.4392 0.7213 1.0722
H5 H 0.4680 0.6162 1.0339
C3 C 0.8605(15) 0.7145(11) 1.0119(12)
H6 H 0.8849 0.7856 0.9565
H7 H 0.7810 0.7457 1.0434
C4 C 0.9283(15) 0.6607(10) 1.0914(12)
H8 H 0.9189 0.7136 1.1269
H9 H 1.0101 0.6384 1.0620
H10 H 0.9089 0.5880 1.1478
C5 C 0.6225(3) 0.7906(4) 0.4221(4)
C6 C 0.6802(5) 0.6659(4) 0.4783(5)
H11 H 0.7390 0.6371 0.5298
C7 C 0.6505(6) 0.5834(6) 0.4581(8)
H12 H 0.6905 0.4998 0.4949
C8 C 0.5634(7) 0.6246(6) 0.3850(7)
H13 H 0.5444 0.5692 0.3712
C9 C 0.5029(5) 0.7479(6) 0.3309(6)
H14 H 0.4417 0.7753 0.2824
C10 C 0.5329(4) 0.8317(5) 0.3485(5)
H15 H 0.4927 0.9153 0.3109
C11 C 0.7471(3) 0.9675(4) 0.2982(3)
C12 C 0.7829(5) 0.9175(5) 0.2205(5)
H16 H 0.7662 0.8464 0.2376
C13 C 0.8440(6) 0.9715(7) 0.1163(6)
H17 H 0.8645 0.9382 0.0631
C14 C 0.8740(5) 1.0716(6) 0.0916(5)
H18 H 0.9167 1.1062 0.0227
C15 C 0.8415(6) 1.1207(6) 0.1675(5)
H19 H 0.8615 1.1899 0.1508
C16 C 0.7783(5) 1.0696(5) 0.2707(4)
H20 H 0.7567 1.1050 0.3223
C17 C 1.0783(4) 0.7665(4) 0.4029(3)
C18 C 1.0517(4) 0.6670(4) 0.4120(4)
H21 H 1.0040 0.6295 0.4749
C19 C 1.0953(5) 0.6231(5) 0.3287(5)
H22 H 1.0776 0.5558 0.3362
C20 C 1.1640(5) 0.6779(5) 0.2359(5)
H23 H 1.1946 0.6473 0.1806
C21 C 1.1884(5) 0.7791(6) 0.2237(5)
H24 H 1.2338 0.8179 0.1593
C22 C 1.1455(5) 0.8229(5) 0.3073(4)
H25 H 1.1623 0.8912 0.2987
C23 C 1.1464(4) 0.7287(3) 0.6161(4)
C24 C 1.2633(4) 0.7306(4) 0.5756(5)
H26 H 1.2787 0.7758 0.4972
C25 C 1.3571(5) 0.6669(5) 0.6488(6)
H27 H 1.4348 0.6700 0.6209
C26 C 1.3330(7) 0.5982(6) 0.7649(7)
H28 H 1.3956 0.5535 0.8152
C27 C 1.2194(7) 0.5954(6) 0.8059(6)
H29 H 1.2048 0.5496 0.8844
C28 C 1.1242(5) 0.6600(5) 0.7326(5)
H30 H 1.0466 0.6570 0.7614
C29 C 0.5380(3) 1.0216(3) 0.4442(3)
H31 H 0.5611 1.0888 0.4375
H32 H 0.4905 1.0518 0.3789
C30 C 1.0263(4) 0.9720(3) 0.4570(3)
H33 H 1.1093 0.9721 0.4353
H34 H 0.9810 1.0213 0.3877
Ag1A Ag 0.18593(3) 1.19468(3) 0.40371(3)
Ag1A_2 Ag 1.18593(3) 1.19468(3) 0.40371(3)
S1A S 0.22838(19) 1.38201(13) 0.21600(13)
S2A S 0.26643(15) 1.10241(12) 0.24369(12)
P1A P 0.25868(13) 1.27499(13) 0.13989(11)
P2A P 0.32517(9) 1.10396(9) 0.55990(9)
P3A P 0.97908(9) 1.18605(9) 0.47956(9)
P3A_2 P -0.02092(9) 1.18605(9) 0.47956(9)
O1A O 0.3656(5) 1.2890(5) 0.0463(4)
O2A O 0.1544(5) 1.3394(4) 0.0513(5)
C1A C 0.4823(9) 1.2430(13) 0.0821(9)
H1A H 0.4824 1.2599 0.1466
H2A H 0.5112 1.1547 0.1082
C2A C 0.5599(12) 1.297(2) -0.0087(13)
H3A H 0.6399 1.2636 0.0178
H4A H 0.5608 1.2787 -0.0722
H5A H 0.5320 1.3838 -0.0339
C3A C 0.1395(15) 1.2855(11) -0.0119(12)
H6A H 0.1151 1.2144 0.0435
H7A H 0.2190 1.2543 -0.0434
C4A C 0.0717(15) 1.3393(10) -0.0914(12)
H8A H 0.0811 1.2864 -0.1269
H9A H -0.0101 1.3616 -0.0620
H10A H 0.0911 1.4120 -0.1478
C5A C 0.3775(3) 1.2094(4) 0.5779(4)
C6A C 0.3198(5) 1.3341(4) 0.5217(5)
H11A H 0.2610 1.3629 0.4702
C7A C 0.3495(6) 1.4166(6) 0.5419(8)
H12A H 0.3095 1.5002 0.5051
C8A C 0.4366(7) 1.3754(6) 0.6150(7)
H13A H 0.4556 1.4308 0.6288
C9A C 0.4971(5) 1.2521(6) 0.6691(6)
H14A H 0.5583 1.2247 0.7176
C10A C 0.4671(4) 1.1683(5) 0.6515(5)
H15A H 0.5073 1.0847 0.6891
C11A C 0.2529(3) 1.0325(4) 0.7018(3)
C12A C 0.2171(5) 1.0825(5) 0.7795(5)
H16A H 0.2338 1.1536 0.7624
C13A C 0.1560(6) 1.0285(7) 0.8837(6)
H17A H 0.1355 1.0618 0.9369
C14A C 0.1260(5) 0.9284(6) 0.9084(5)
H18A H 0.0833 0.8938 0.9773
C15A C 0.1585(6) 0.8793(6) 0.8325(5)
H19A H 0.1385 0.8101 0.8492
C16A C 0.2217(5) 0.9304(5) 0.7293(4)
H20A H 0.2433 0.8950 0.6777
C17A C 0.9217(4) 1.2335(4) 0.5971(3)
C18A C 0.9483(4) 1.3330(4) 0.5880(4)
H21A H 0.9960 1.3705 0.5251
C19A C 0.9047(5) 1.3769(5) 0.6713(5)
H22A H 0.9224 1.4442 0.6638
C20A C 0.8360(5) 1.3221(5) 0.7641(5)
H23A H 0.8054 1.3527 0.8194
C21A C 0.8116(5) 1.2209(6) 0.7763(5)
H24A H 0.7662 1.1821 0.8407
C22A C 0.8545(5) 1.1771(5) 0.6927(4)
H25A H 0.8377 1.1088 0.7013
C23A C 0.8536(4) 1.2713(3) 0.3839(4)
C24A C 0.7367(4) 1.2694(4) 0.4244(5)
H26A H 0.7213 1.2242 0.5028
C25A C 0.6429(5) 1.3331(5) 0.3512(6)
H27A H 0.5652 1.3300 0.3791
C26A C 0.6670(7) 1.4018(6) 0.2351(7)
H28A H 0.6044 1.4465 0.1848
C27A C 0.7806(7) 1.4046(6) 0.1941(6)
H29A H 0.7952 1.4504 0.1156
C28A C 0.8758(5) 1.3400(5) 0.2674(5)
H30A H 0.9534 1.3430 0.2386
C29A C 0.4620(3) 0.9784(3) 0.5558(3)
H31A H 0.4389 0.9112 0.5625
H32A H 0.5095 0.9482 0.6211
C30A C 0.9737(4) 1.0280(3) 0.5430(3)
H33A H 0.8907 1.0279 0.5647
H34A H 1.0190 0.9787 0.6123
loop_
_geom_bond_atom_site_label_1
_geom_bond_atom_site_label_2
_geom_bond_site_symmetry_1
_geom_bond_site_symmetry_2
Ag1 S1 1_555 1_555
S1 P1 1_555 1_555
S2 Ag1 1_555 1_555
P1 S2 1_555 1_555
P2 Ag1 1_555 1_555
P3 Ag1 1_555 1_555
O1 P1 1_555 1_555
O2 P1 1_555 1_555
C1 O1 1_555 1_555
H1 C1 1_555 1_555
H2 C1 1_555 1_555
C2 C1 1_555 1_555
H3 C2 1_555 1_555
H4 C2 1_555 1_555
H5 C2 1_555 1_555
C3 O2 1_555 1_555
H6 C3 1_555 1_555
H7 C3 1_555 1_555
C4 C3 1_555 1_555
H8 C4 1_555 1_555
H9 C4 1_555 1_555
H10 C4 1_555 1_555
C5 P2 1_555 1_555
C6 C5 1_555 1_555
H11 C6 1_555 1_555
C7 C6 1_555 1_555
H12 C7 1_555 1_555
C8 C7 1_555 1_555
H13 C8 1_555 1_555
C9 C8 1_555 1_555
H14 C9 1_555 1_555
C10 C5 1_555 1_555
H15 C10 1_555 1_555
C11 P2 1_555 1_555
C12 C11 1_555 1_555
H16 C12 1_555 1_555
C13 C12 1_555 1_555
H17 C13 1_555 1_555
C14 C13 1_555 1_555
H18 C14 1_555 1_555
C15 C14 1_555 1_555
H19 C15 1_555 1_555
C16 C11 1_555 1_555
H20 C16 1_555 1_555
C17 P3 1_555 1_555
C18 C17 1_555 1_555
H21 C18 1_555 1_555
C19 C18 1_555 1_555
H22 C19 1_555 1_555
C20 C19 1_555 1_555
H23 C20 1_555 1_555
C21 C20 1_555 1_555
H24 C21 1_555 1_555
C22 C17 1_555 1_555
H25 C22 1_555 1_555
C23 P3 1_555 1_555
C24 C23 1_555 1_555
H26 C24 1_555 1_555
C25 C24 1_555 1_555
H27 C25 1_555 1_555
C26 C25 1_555 1_555
H28 C26 1_555 1_555
C27 C26 1_555 1_555
H29 C27 1_555 1_555
C28 C23 1_555 1_555
H30 C28 1_555 1_555
C29 P2 1_555 1_555
H31 C29 1_555 1_555
H32 C29 1_555 1_555
C30 P3 1_555 1_555
H33 C30 1_555 1_555
H34 C30 1_555 1_555
Ag1A S1A 1_555 1_555
Ag1A_2 P3A 1_555 1_555
S1A P1A 1_555 1_555
S2A Ag1A 1_555 1_555
P1A S2A 1_555 1_555
P2A Ag1A 1_555 1_555
P3A C17A 1_555 1_555
P3A_2 Ag1A 1_555 1_555
O1A P1A 1_555 1_555
O2A P1A 1_555 1_555
C1A O1A 1_555 1_555
H1A C1A 1_555 1_555
H2A C1A 1_555 1_555
C2A C1A 1_555 1_555
H3A C2A 1_555 1_555
H4A C2A 1_555 1_555
H5A C2A 1_555 1_555
C3A O2A 1_555 1_555
H6A C3A 1_555 1_555
H7A C3A 1_555 1_555
C4A C3A 1_555 1_555
H8A C4A 1_555 1_555
H9A C4A 1_555 1_555
H10A C4A 1_555 1_555
C5A P2A 1_555 1_555
C6A C5A 1_555 1_555
H11A C6A 1_555 1_555
C7A C6A 1_555 1_555
H12A C7A 1_555 1_555
C8A C7A 1_555 1_555
H13A C8A 1_555 1_555
C9A C8A 1_555 1_555
H14A C9A 1_555 1_555
C10A C5A 1_555 1_555
H15A C10A 1_555 1_555
C11A P2A 1_555 1_555
C12A C11A 1_555 1_555
H16A C12A 1_555 1_555
C13A C12A 1_555 1_555
H17A C13A 1_555 1_555
C14A C13A 1_555 1_555
H18A C14A 1_555 1_555
C15A C14A 1_555 1_555
H19A C15A 1_555 1_555
C16A C11A 1_555 1_555
H20A C16A 1_555 1_555
C17A C18A 1_555 1_555
C18A H21A 1_555 1_555
C19A C18A 1_555 1_555
H22A C19A 1_555 1_555
C20A C19A 1_555 1_555
H23A C20A 1_555 1_555
C21A C20A 1_555 1_555
H24A C21A 1_555 1_555
C22A C17A 1_555 1_555
H25A C22A 1_555 1_555
C23A P3A 1_555 1_555
C24A C23A 1_555 1_555
H26A C24A 1_555 1_555
C25A C24A 1_555 1_555
H27A C25A 1_555 1_555
C26A C25A 1_555 1_555
H28A C26A 1_555 1_555
C27A C26A 1_555 1_555
H29A C27A 1_555 1_555
C28A C23A 1_555 1_555
H30A C28A 1_555 1_555
C29A C29 1_555 1_555
H31A C29A 1_555 1_555
H32A C29A 1_555 1_555
C30A C30 1_555 1_555
H33A C30A 1_555 1_555
H34A C30A 1_555 1_555
C9 C10 1_555 1_555
C15 C16 1_555 1_555
C21 C22 1_555 1_555
C27 C28 1_555 1_555
P2A C29A 1_555 1_555
P3A C30A 1_555 1_555
C9A C10A 1_555 1_555
C15A C16A 1_555 1_555
C21A C22A 1_555 1_555
C27A C28A 1_555 1_555

#END
