
#######################################################################
#
#                 Cambridge Crystallographic Data Centre
#                                CCDC 
#
#######################################################################
#
# If this CIF has been generated from an entry in the Cambridge 
# Structural Database, then it will include bibliographic, chemical, 
# crystal, experimental, refinement or atomic coordinate data resulting 
# from the CCDC's data processing and validation procedures.
#
#######################################################################

data_LALGAH01
_symmetry_cell_setting           triclinic
_symmetry_space_group_name_H-M   'P -1'
_symmetry_Int_Tables_number      2
_space_group_name_Hall           '-P 1'
loop_
_symmetry_equiv_pos_site_id
_symmetry_equiv_pos_as_xyz
1 x,y,z
2 -x,-y,-z
_cell_length_a                   11.1168(17)
_cell_length_b                   11.640(2)
_cell_length_c                   13.4236(12)
_cell_angle_alpha                99.904(11)
_cell_angle_beta                 91.219(11)
_cell_angle_gamma                106.036(15)
_cell_volume                     1640.19
loop_
_atom_site_label
_atom_site_type_symbol
_atom_site_fract_x
_atom_site_fract_y
_atom_site_fract_z
Ag1 Ag 0.40160(3) 0.88118(3) 0.23834(3)
S1 S 0.27440(16) 0.69025(15) 0.10058(12)
S2 S 0.16235(14) 0.89175(16) 0.25094(17)
P1 P 0.12919(15) 0.74455(15) 0.14580(14)
P2 P 0.46780(11) 0.82223(11) 0.39489(8)
P3 P 0.53643(11) 1.05004(10) 0.16838(8)
O1 O 0.0338(5) 0.6416(4) 0.1960(5)
O2 O 0.0492(10) 0.7469(8) 0.0516(7)
C1 C -0.0069(10) 0.5220(8) 0.1518(8)
H1 H -0.0204 0.5173 0.0794
H2 H 0.0602 0.4857 0.1617
C2 C -0.1106(11) 0.4545(9) 0.1835(9)
H3 H -0.1299 0.3727 0.1462
H4 H -0.1789 0.4876 0.1728
H5 H -0.0979 0.4544 0.2545
C3 C 0.0107(18) 0.8239(15) 0.0173(11)
H6 H 0.0772 0.8657 -0.0203
H7 H 0.0029 0.8834 0.0752
C4 C -0.0975(13) 0.7949(16) -0.0428(12)
H8 H -0.1074 0.8667 -0.0639
H9 H -0.1674 0.7615 -0.0056
H10 H -0.0939 0.7360 -0.1015
C5 C 0.3756(5) 0.6830(4) 0.4331(3)
C6 C 0.4195(5) 0.6304(5) 0.5054(4)
H11 H 0.5016 0.6633 0.5337
C7 C 0.3428(7) 0.5293(6) 0.5365(5)
H12 H 0.3738 0.4946 0.5851
C8 C 0.2222(8) 0.4804(6) 0.4963(6)
H13 H 0.1711 0.4125 0.5175
C9 C 0.1765(7) 0.5310(7) 0.4249(6)
H14 H 0.0939 0.4982 0.3978
C10 C 0.2546(6) 0.6325(6) 0.3929(5)
H15 H 0.2238 0.6662 0.3435
C11 C 0.6281(5) 0.8124(4) 0.3986(4)
C12 C 0.7167(5) 0.8699(6) 0.4781(5)
H16 H 0.6946 0.9126 0.5365
C13 C 0.8404(7) 0.8634(9) 0.4700(10)
H17 H 0.9002 0.9047 0.5229
C14 C 0.8743(11) 0.8008(15) 0.3899(14)
H18 H 0.9563 0.7956 0.3873
C15 C 0.7883(12) 0.7439(11) 0.3113(10)
H19 H 0.8123 0.7006 0.2541
C16 C 0.6646(8) 0.7489(7) 0.3143(6)
H20 H 0.6070 0.7094 0.2595
C17 C 0.6971(4) 1.1000(4) 0.2274(3)
C18 C 0.7382(5) 1.2028(6) 0.3005(4)
H21 H 0.6860 1.2523 0.3174
C19 C 0.8571(7) 1.2335(8) 0.3494(6)
H22 H 0.8834 1.3026 0.3998
C20 C 0.9342(7) 1.1644(8) 0.3245(6)
H23 H 1.0155 1.1882 0.3546
C21 C 0.8939(7) 1.0607(9) 0.2560(7)
H24 H 0.9463 1.0110 0.2408
C22 C 0.7732(6) 1.0273(6) 0.2076(5)
H25 H 0.7452 0.9545 0.1613
C23 C 0.4882(4) 1.1883(4) 0.1808(3)
C24 C 0.3896(5) 1.1997(5) 0.2379(4)
H26 H 0.3476 1.1354 0.2683
C25 C 0.3510(7) 1.3055(7) 0.2517(6)
H27 H 0.2862 1.3122 0.2929
C26 C 0.4083(8) 1.3984(7) 0.2046(7)
H28 H 0.3815 1.4681 0.2120
C27 C 0.5066(8) 1.3886(6) 0.1459(7)
H29 H 0.5462 1.4524 0.1141
C28 C 0.5472(6) 1.2847(5) 0.1338(5)
H30 H 0.6138 1.2795 0.0942
C29 C 0.4648(5) 0.9354(4) 0.5065(4)
H31 H 0.3784 0.9316 0.5192
H32 H 0.5028 0.9164 0.5650
C30 C 0.5609(4) 1.0158(4) 0.0325(3)
H33 H 0.6199 1.0859 0.0138
H34 H 0.5969 0.9482 0.0200
Ag1A Ag 0.59840(3) 1.11882(3) 0.76166(3)
Ag1A_2 Ag 0.59840(3) 1.11882(3) -0.23834(3)
S1A S 0.72560(16) 1.30975(15) 0.89942(12)
S2A S 0.83765(14) 1.10825(16) 0.74906(17)
P1A P 0.87081(15) 1.25545(15) 0.85420(14)
P2A P 0.53220(11) 1.17777(11) 0.60511(8)
P3A P 0.46357(11) 0.94996(10) -0.16838(8)
P3A_2 P 0.46357(11) 0.94996(10) 0.83162(8)
O1A O 0.9662(5) 1.3584(4) 0.8040(5)
O2A O 0.9508(10) 1.2531(8) 0.9484(7)
C1A C 1.0069(10) 1.4780(8) 0.8482(8)
H1A H 1.0204 1.4827 0.9206
H2A H 0.9398 1.5143 0.8383
C2A C 1.1106(11) 1.5455(9) 0.8165(9)
H3A H 1.1299 1.6273 0.8538
H4A H 1.1789 1.5124 0.8272
H5A H 1.0979 1.5456 0.7455
C3A C 0.9893(18) 1.1761(15) 0.9827(11)
H6A H 0.9228 1.1343 1.0203
H7A H 0.9971 1.1166 0.9248
C4A C 1.0975(13) 1.2051(16) 1.0428(12)
H8A H 1.1074 1.1333 1.0639
H9A H 1.1674 1.2385 1.0056
H10A H 1.0939 1.2640 1.1015
C5A C 0.6244(5) 1.3170(4) 0.5669(3)
C6A C 0.5805(5) 1.3696(5) 0.4946(4)
H11A H 0.4984 1.3367 0.4663
C7A C 0.6572(7) 1.4707(6) 0.4635(5)
H12A H 0.6262 1.5054 0.4149
C8A C 0.7778(8) 1.5196(6) 0.5037(6)
H13A H 0.8289 1.5875 0.4825
C9A C 0.8235(7) 1.4690(7) 0.5751(6)
H14A H 0.9061 1.5018 0.6022
C10A C 0.7454(6) 1.3675(6) 0.6071(5)
H15A H 0.7762 1.3338 0.6565
C11A C 0.3719(5) 1.1876(4) 0.6014(4)
C12A C 0.2833(5) 1.1301(6) 0.5219(5)
H16A H 0.3054 1.0874 0.4635
C13A C 0.1596(7) 1.1366(9) 0.5300(10)
H17A H 0.0998 1.0953 0.4771
C14A C 0.1257(11) 1.1992(15) 0.6101(14)
H18A H 0.0437 1.2044 0.6127
C15A C 0.2117(12) 1.2561(11) 0.6887(10)
H19A H 0.1877 1.2994 0.7459
C16A C 0.3354(8) 1.2511(7) 0.6857(6)
H20A H 0.3930 1.2906 0.7405
C17A C 0.3029(4) 0.9000(4) -0.2274(3)
C18A C 0.2618(5) 0.7972(6) -0.3005(4)
H21A H 0.3140 0.7477 -0.3174
C19A C 0.1429(7) 0.7665(8) -0.3494(6)
H22A H 0.1166 0.6974 -0.3998
C20A C 0.0658(7) 0.8356(8) -0.3245(6)
H23A H -0.0155 0.8118 -0.3546
C21A C 0.1061(7) 0.9393(9) -0.2560(7)
H24A H 0.0537 0.9890 -0.2408
C22A C 0.2268(6) 0.9727(6) -0.2076(5)
H25A H 0.2548 1.0455 -0.1613
C23A C 0.5118(4) 0.8117(4) -0.1808(3)
C24A C 0.6104(5) 0.8003(5) -0.2379(4)
H26A H 0.6524 0.8646 -0.2683
C25A C 0.6490(7) 0.6945(7) -0.2517(6)
H27A H 0.7138 0.6878 -0.2929
C26A C 0.5917(8) 0.6016(7) -0.2046(7)
H28A H 0.6185 0.5319 -0.2120
C27A C 0.4934(8) 0.6114(6) -0.1459(7)
H29A H 0.4538 0.5476 -0.1141
C28A C 0.4528(6) 0.7153(5) -0.1338(5)
H30A H 0.3862 0.7205 -0.0942
C29A C 0.5352(5) 1.0646(4) 0.4935(4)
H31A H 0.6216 1.0684 0.4808
H32A H 0.4972 1.0836 0.4350
C30A C 0.4391(4) 0.9842(4) -0.0325(3)
H33A H 0.3801 0.9141 -0.0138
H34A H 0.4031 1.0518 -0.0200
loop_
_geom_bond_atom_site_label_1
_geom_bond_atom_site_label_2
_geom_bond_site_symmetry_1
_geom_bond_site_symmetry_2
Ag1 S1 1_555 1_555
S1 P1 1_555 1_555
S2 Ag1 1_555 1_555
P1 S2 1_555 1_555
P2 Ag1 1_555 1_555
P3 Ag1 1_555 1_555
O1 P1 1_555 1_555
O2 P1 1_555 1_555
C1 O1 1_555 1_555
H1 C1 1_555 1_555
H2 C1 1_555 1_555
C2 C1 1_555 1_555
H3 C2 1_555 1_555
H4 C2 1_555 1_555
H5 C2 1_555 1_555
C3 O2 1_555 1_555
H6 C3 1_555 1_555
H7 C3 1_555 1_555
C4 C3 1_555 1_555
H8 C4 1_555 1_555
H9 C4 1_555 1_555
H10 C4 1_555 1_555
C5 P2 1_555 1_555
C6 C5 1_555 1_555
H11 C6 1_555 1_555
C7 C6 1_555 1_555
H12 C7 1_555 1_555
C8 C7 1_555 1_555
H13 C8 1_555 1_555
C9 C8 1_555 1_555
H14 C9 1_555 1_555
C10 C5 1_555 1_555
H15 C10 1_555 1_555
C11 P2 1_555 1_555
C12 C11 1_555 1_555
H16 C12 1_555 1_555
C13 C12 1_555 1_555
H17 C13 1_555 1_555
C14 C13 1_555 1_555
H18 C14 1_555 1_555
C15 C14 1_555 1_555
H19 C15 1_555 1_555
C16 C11 1_555 1_555
H20 C16 1_555 1_555
C17 P3 1_555 1_555
C18 C17 1_555 1_555
H21 C18 1_555 1_555
C19 C18 1_555 1_555
H22 C19 1_555 1_555
C20 C19 1_555 1_555
H23 C20 1_555 1_555
C21 C20 1_555 1_555
H24 C21 1_555 1_555
C22 C17 1_555 1_555
H25 C22 1_555 1_555
C23 P3 1_555 1_555
C24 C23 1_555 1_555
H26 C24 1_555 1_555
C25 C24 1_555 1_555
H27 C25 1_555 1_555
C26 C25 1_555 1_555
H28 C26 1_555 1_555
C27 C26 1_555 1_555
H29 C27 1_555 1_555
C28 C23 1_555 1_555
H30 C28 1_555 1_555
C29 P2 1_555 1_555
H31 C29 1_555 1_555
H32 C29 1_555 1_555
C30 P3 1_555 1_555
H33 C30 1_555 1_555
H34 C30 1_555 1_555
Ag1A S1A 1_555 1_555
Ag1A_2 P3A 1_555 1_555
S1A P1A 1_555 1_555
S2A Ag1A 1_555 1_555
P1A S2A 1_555 1_555
P2A Ag1A 1_555 1_555
P3A C17A 1_555 1_555
P3A_2 Ag1A 1_555 1_555
O1A P1A 1_555 1_555
O2A P1A 1_555 1_555
C1A O1A 1_555 1_555
H1A C1A 1_555 1_555
H2A C1A 1_555 1_555
C2A C1A 1_555 1_555
H3A C2A 1_555 1_555
H4A C2A 1_555 1_555
H5A C2A 1_555 1_555
C3A O2A 1_555 1_555
H6A C3A 1_555 1_555
H7A C3A 1_555 1_555
C4A C3A 1_555 1_555
H8A C4A 1_555 1_555
H9A C4A 1_555 1_555
H10A C4A 1_555 1_555
C5A P2A 1_555 1_555
C6A C5A 1_555 1_555
H11A C6A 1_555 1_555
C7A C6A 1_555 1_555
H12A C7A 1_555 1_555
C8A C7A 1_555 1_555
H13A C8A 1_555 1_555
C9A C8A 1_555 1_555
H14A C9A 1_555 1_555
C10A C5A 1_555 1_555
H15A C10A 1_555 1_555
C11A P2A 1_555 1_555
C12A C11A 1_555 1_555
H16A C12A 1_555 1_555
C13A C12A 1_555 1_555
H17A C13A 1_555 1_555
C14A C13A 1_555 1_555
H18A C14A 1_555 1_555
C15A C14A 1_555 1_555
H19A C15A 1_555 1_555
C16A C11A 1_555 1_555
H20A C16A 1_555 1_555
C17A C18A 1_555 1_555
C18A H21A 1_555 1_555
C19A C18A 1_555 1_555
H22A C19A 1_555 1_555
C20A C19A 1_555 1_555
H23A C20A 1_555 1_555
C21A C20A 1_555 1_555
H24A C21A 1_555 1_555
C22A C17A 1_555 1_555
H25A C22A 1_555 1_555
C23A P3A 1_555 1_555
C24A C23A 1_555 1_555
H26A C24A 1_555 1_555
C25A C24A 1_555 1_555
H27A C25A 1_555 1_555
C26A C25A 1_555 1_555
H28A C26A 1_555 1_555
C27A C26A 1_555 1_555
H29A C27A 1_555 1_555
C28A C23A 1_555 1_555
H30A C28A 1_555 1_555
C29A C29 1_555 1_555
H31A C29A 1_555 1_555
H32A C29A 1_555 1_555
C30A C30 1_555 1_555
H33A C30A 1_555 1_555
H34A C30A 1_555 1_555
C9 C10 1_555 1_555
C15 C16 1_555 1_555
C21 C22 1_555 1_555
C27 C28 1_555 1_555
P2A C29A 1_555 1_555
P3A C30A 1_555 1_555
C9A C10A 1_555 1_555
C15A C16A 1_555 1_555
C21A C22A 1_555 1_555
C27A C28A 1_555 1_555

#END
