
#######################################################################
#
#                 Cambridge Crystallographic Data Centre
#                                CCDC 
#
#######################################################################
#
# If this CIF has been generated from an entry in the Cambridge 
# Structural Database, then it will include bibliographic, chemical, 
# crystal, experimental, refinement or atomic coordinate data resulting 
# from the CCDC's data processing and validation procedures.
#
#######################################################################

data_LALGEK
_symmetry_cell_setting           monoclinic
_symmetry_space_group_name_H-M   'P 21/n'
_symmetry_Int_Tables_number      14
_space_group_name_Hall           '-P 2yn'
loop_
_symmetry_equiv_pos_site_id
_symmetry_equiv_pos_as_xyz
1 x,y,z
2 1/2-x,1/2+y,1/2-z
3 -x,-y,-z
4 1/2+x,1/2-y,1/2+z
_cell_length_a                   12.902(1)
_cell_length_b                   20.561(2)
_cell_length_c                   13.558(6)
_cell_angle_alpha                90
_cell_angle_beta                 109.38(2)
_cell_angle_gamma                90
_cell_volume                     3392.85
loop_
_atom_site_label
_atom_site_type_symbol
_atom_site_fract_x
_atom_site_fract_y
_atom_site_fract_z
Cu1 Cu 0.01560(10) 0.05580(3) 0.18300(10)
Cu2 Cu -0.09670(10) -0.15880(3) 0.32730(10)
O1 O -0.0576(3) -0.0497(2) 0.1690(3)
O2 O -0.1852(3) -0.1118(2) 0.2022(3)
O3 O -0.1152(3) -0.0300(2) -0.1107(3)
O4 O -0.1707(3) -0.1228(2) -0.0581(3)
O5 O 0.1236(3) 0.0243(2) 0.3119(3)
O6 O 0.1865(4) 0.1229(2) 0.3704(3)
O7 O 0.1507(3) 0.1011(2) 0.5870(3)
O8 O 0.3042(4) 0.1591(2) 0.6436(3)
O9 O 0.0730(3) -0.1110(2) 0.3583(3)
N1 N -0.0859(4) 0.0874(2) 0.2562(4)
N2 N -0.0880(4) 0.1078(2) 0.0671(4)
N3 N -0.0283(4) -0.2213(2) 0.4439(4)
N4 N -0.0476(4) -0.2286(2) 0.2483(4)
C1 C -0.1546(5) -0.0667(3) 0.1545(4)
C2 C -0.2450(4) -0.0291(3) 0.0755(4)
C3 C -0.3181(5) 0.0060(3) 0.1096(5)
C4 C -0.3933(5) 0.0481(3) 0.0414(5)
C5 C -0.3960(5) 0.0545(3) -0.0601(5)
C6 C -0.3227(5) 0.0185(3) -0.0952(5)
C7 C -0.2469(4) -0.0229(3) -0.0280(4)
C8 C -0.1709(5) -0.0625(3) -0.0683(4)
C9 C 0.1882(5) 0.0626(3) 0.3764(4)
C10 C 0.2759(4) 0.0300(3) 0.4657(4)
C11 C 0.3270(5) -0.0247(3) 0.4438(5)
C12 C 0.4133(5) -0.0544(3) 0.5216(5)
C13 C 0.4477(5) -0.0279(3) 0.6222(5)
C14 C 0.3976(5) 0.0272(3) 0.6427(5)
C15 C 0.3108(4) 0.0562(3) 0.5665(4)
C16 C 0.2517(5) 0.1106(3) 0.6004(4)
C17 C -0.0892(5) 0.0658(3) 0.3484(5)
C18 C -0.1654(6) 0.0907(4) 0.3911(6)
C19 C -0.2381(6) 0.1374(4) 0.3392(6)
C20 C -0.2345(6) 0.1595(4) 0.2447(6)
C21 C -0.1586(5) 0.1325(3) 0.2033(5)
C22 C -0.1561(5) 0.1461(3) 0.0973(5)
C23 C -0.2218(5) 0.1923(3) 0.0315(6)
C24 C -0.2205(6) 0.1951(4) -0.0700(6)
C25 C -0.1561(6) 0.1534(4) -0.1036(5)
C26 C -0.0887(5) 0.1114(3) -0.0321(5)
C27 C -0.0317(5) -0.2165(3) 0.5422(5)
C28 C 0.0285(5) -0.2580(3) 0.6209(5)
C29 C 0.0943(6) -0.3044(3) 0.5998(5)
C30 C 0.0971(5) -0.3100(3) 0.4986(5)
C31 C 0.0335(5) -0.2683(3) 0.4224(4)
C32 C 0.0247(5) -0.2714(3) 0.3095(5)
C33 C 0.0856(5) -0.3143(3) 0.2727(5)
C34 C 0.0683(6) -0.3139(3) 0.1664(6)
C35 C -0.0089(6) -0.2717(3) 0.1018(5)
C36 C -0.0660(6) -0.2293(3) 0.1461(5)
H1 H -0.315 0.003 0.185
H2 H -0.439 0.075 0.077
H3 H -0.452 0.077 -0.121
H4 H -0.330 0.022 -0.181
H5 H 0.282 -0.046 0.363
H6 H 0.456 -0.095 0.512
H7 H 0.517 -0.049 0.682
H8 H 0.425 0.045 0.721
H9 H -0.027 0.028 0.383
H10 H -0.138 0.076 0.474
H11 H -0.304 0.162 0.367
H12 H -0.274 0.214 0.210
H13 H -0.273 0.225 0.057
H14 H -0.272 0.228 -0.127
H15 H -0.148 0.158 -0.183
H16 H -0.027 0.083 -0.052
H17 H -0.080 -0.180 0.556
H18 H 0.015 -0.246 0.702
H19 H 0.129 -0.341 0.652
H20 H 0.153 -0.340 0.478
H21 H 0.157 -0.347 0.328
H22 H 0.119 -0.342 0.138
H23 H -0.015 -0.274 0.020
H24 H -0.123 -0.192 0.097
O3B O 0.1152(3) 0.0300(2) 0.1107(3)
O7B O -0.1507(3) -0.1011(2) 0.4130(3)
Cu1B Cu -0.01560(10) -0.05580(3) -0.18300(10)
Cu2B Cu 0.09670(10) 0.15880(3) 0.67270(10)
O10 O 0.1232(4) 0.2016(2) 0.1987(3)
O11 O 0.2367(4) 0.3134(3) 0.1262(5)
O12 O 0.0243(5) 0.3242(3) 0.1466(5)
loop_
_geom_bond_atom_site_label_1
_geom_bond_atom_site_label_2
_geom_bond_site_symmetry_1
_geom_bond_site_symmetry_2
Cu1 O1 1_555 1_555
Cu2 O2 1_555 1_555
O1 C1 1_555 1_555
O2 C1 1_555 1_555
O3 C8 1_555 1_555
O4 C8 1_555 1_555
O5 Cu1 1_555 1_555
O6 C9 1_555 1_555
O7 C16 1_555 1_555
O8 C16 1_555 1_555
O9 Cu2 1_555 1_555
N1 Cu1 1_555 1_555
N2 Cu1 1_555 1_555
N3 Cu2 1_555 1_555
N4 Cu2 1_555 1_555
C1 C2 1_555 1_555
C2 C3 1_555 1_555
C3 C4 1_555 1_555
C4 C5 1_555 1_555
C5 C6 1_555 1_555
C6 C7 1_555 1_555
C7 C2 1_555 1_555
C8 C7 1_555 1_555
C9 O5 1_555 1_555
C10 C9 1_555 1_555
C11 C10 1_555 1_555
C12 C11 1_555 1_555
C13 C12 1_555 1_555
C14 C13 1_555 1_555
C15 C10 1_555 1_555
C16 C15 1_555 1_555
C17 N1 1_555 1_555
C18 C17 1_555 1_555
C19 C18 1_555 1_555
C20 C19 1_555 1_555
C21 N1 1_555 1_555
C22 N2 1_555 1_555
C23 C22 1_555 1_555
C24 C23 1_555 1_555
C25 C24 1_555 1_555
C26 N2 1_555 1_555
C27 N3 1_555 1_555
C28 C27 1_555 1_555
C29 C28 1_555 1_555
C30 C29 1_555 1_555
C31 N3 1_555 1_555
C32 N4 1_555 1_555
C33 C32 1_555 1_555
C34 C33 1_555 1_555
C35 C34 1_555 1_555
C36 N4 1_555 1_555
H1 C3 1_555 1_555
H2 C4 1_555 1_555
H3 C5 1_555 1_555
H4 C6 1_555 1_555
H5 C11 1_555 1_555
H6 C12 1_555 1_555
H7 C13 1_555 1_555
H8 C14 1_555 1_555
H9 C17 1_555 1_555
H10 C18 1_555 1_555
H11 C19 1_555 1_555
H12 C20 1_555 1_555
H13 C23 1_555 1_555
H14 C24 1_555 1_555
H15 C25 1_555 1_555
H16 C26 1_555 1_555
H17 C27 1_555 1_555
H18 C28 1_555 1_555
H19 C29 1_555 1_555
H20 C30 1_555 1_555
H21 C33 1_555 1_555
H22 C34 1_555 1_555
H23 C35 1_555 1_555
H24 C36 1_555 1_555
O3B Cu1 1_555 1_555
O7B Cu2 1_555 1_555
Cu1B O3 1_555 1_555
Cu2B O7 1_555 1_555
C14 C15 1_555 1_555
C20 C21 1_555 1_555
C21 C22 1_555 1_555
C25 C26 1_555 1_555
C30 C31 1_555 1_555
C31 C32 1_555 1_555
C35 C36 1_555 1_555

#END
