
#######################################################################
#
#                 Cambridge Crystallographic Data Centre
#                                CCDC 
#
#######################################################################
#
# If this CIF has been generated from an entry in the Cambridge 
# Structural Database, then it will include bibliographic, chemical, 
# crystal, experimental, refinement or atomic coordinate data resulting 
# from the CCDC's data processing and validation procedures.
#
#######################################################################

data_LALGEL
_symmetry_cell_setting           rhombohedral
_symmetry_space_group_name_H-M   'R -3'
_symmetry_Int_Tables_number      148
_space_group_name_Hall           '-R 3'
loop_
_symmetry_equiv_pos_site_id
_symmetry_equiv_pos_as_xyz
1 x,y,z
2 -y,x-y,z
3 -x+y,-x,z
4 2/3+x,1/3+y,1/3+z
5 2/3-y,1/3+x-y,1/3+z
6 2/3-x+y,1/3-x,1/3+z
7 1/3+x,2/3+y,2/3+z
8 1/3-y,2/3+x-y,2/3+z
9 1/3-x+y,2/3-x,2/3+z
10 -x,-y,-z
11 y,-x+y,-z
12 x-y,x,-z
13 1/3-x,2/3-y,2/3-z
14 1/3+y,2/3-x+y,2/3-z
15 1/3+x-y,2/3+x,2/3-z
16 2/3-x,1/3-y,1/3-z
17 2/3+y,1/3-x+y,1/3-z
18 2/3+x-y,1/3+x,1/3-z
_cell_length_a                   19.7782(16)
_cell_length_b                   19.7782(16)
_cell_length_c                   32.244(4)
_cell_angle_alpha                90
_cell_angle_beta                 90
_cell_angle_gamma                120.00
_cell_volume                     10923.3
loop_
_atom_site_label
_atom_site_type_symbol
_atom_site_fract_x
_atom_site_fract_y
_atom_site_fract_z
Ag1 Ag 0.6667 0.3333 1.08051(4)
Ag2 Ag 0.58607(6) 0.38563(5) 1.01030(3)
Cl1 Cl 0.6666 0.3333 0.97126(14)
S1 S 0.54562(17) 0.34254(17) 1.08669(9)
S2 S 0.46973(17) 0.18507(17) 1.02309(11)
P1 P 0.46233(17) 0.23183(19) 1.07455(10)
P2 P 0.50327(15) 0.40777(13) 0.96262(7)
O1 O 0.3801(5) 0.2218(7) 1.0801(3)
O2 O 0.4588(6) 0.1741(7) 1.1102(4)
C1 C 0.3486(16) 0.2484(15) 1.0500(6)
H1 H 0.3792 0.3049 1.0513
H2 H 0.3614 0.2337 1.0237
C2 C 0.2759(11) 0.232(2) 1.0464(8)
H3 H 0.2711 0.2588 1.0228
H4 H 0.2607 0.2485 1.0710
H5 H 0.2427 0.1767 1.0428
C3 C 0.4588(15) 0.1819(15) 1.1494(6)
H6 H 0.4133 0.1857 1.1569
H7 H 0.5046 0.2307 1.1570
C4 C 0.458(2) 0.122(2) 1.1724(7)
H8 H 0.4583 0.1326 1.2015
H9 H 0.5036 0.1184 1.1658
H10 H 0.4121 0.0733 1.1658
C5 C 0.4674(6) 0.4657(5) 0.9893(3)
H11 H 0.4432 0.4837 0.9694
H12 H 0.4282 0.4333 1.0095
C6 C 0.4154(6) 0.3255(6) 0.9416(3)
C7 C 0.3487(8) 0.3287(8) 0.9329(4)
H13 H 0.3476 0.3747 0.9368
C8 C 0.2834(10) 0.2624(10) 0.9181(5)
H14 H 0.2382 0.2639 0.9120
C9 C 0.2852(9) 0.1939(13) 0.9125(5)
H15 H 0.2400 0.1485 0.9045
C10 C 0.3510(9) 0.1928(11) 0.9185(5)
H16 H 0.3532 0.1480 0.9123
C11 C 0.4163(7) 0.2577(7) 0.9338(4)
H17 H 0.4615 0.2556 0.9390
C12 C 0.5541(5) 0.4653(6) 0.9175(3)
C13 C 0.5349(7) 0.5135(7) 0.8979(3)
H18 H 0.4935 0.5188 0.9076
C14 C 0.5763(9) 0.5552(11) 0.8637(4)
H19 H 0.5632 0.5895 0.8512
C15 C 0.6354(9) 0.5477(12) 0.8475(4)
H20 H 0.6611 0.5746 0.8236
C16 C 0.6560(9) 0.5002(10) 0.8668(4)
H21 H 0.6970 0.4948 0.8566
C17 C 0.6165(7) 0.4598(7) 0.9017(3)
H22 H 0.6319 0.4280 0.9150
Ag1I Ag 0.3333 0.6667 0.91949(4)
Ag1I_2 Ag 0.3333 -0.3333 0.91949(4)
Ag2A Ag 0.61437(5) 0.20044(8) 1.01030(3)
Ag2B Ag 0.79956(8) 0.41393(6) 1.01030(3)
Ag2I Ag 0.41393(6) 0.61437(5) 0.98970(3)
Ag2J Ag 0.38563(5) -0.20044(8) 0.98970(3)
Ag2K Ag 1.20044(8) 0.58607(6) 0.98970(3)
Ag2J_2 Ag 0.38563(5) 0.79956(8) 0.98970(3)
Ag2K_2 Ag 0.20044(8) 0.58607(6) 0.98970(3)
Ag2K_3 Ag 0.20044(8) -0.41393(6) 0.98970(3)
Cl1I Cl 0.3334 0.6667 1.02874(14)
Cl1I_2 Cl 0.3334 -0.3333 1.02874(14)
Cl1I_3 Cl 1.3334 0.6667 1.02874(14)
S1A S 0.65746(17) 0.20308(24) 1.08669(9)
S1B S 0.79692(24) 0.45438(17) 1.08669(9)
S1I S 0.45438(17) 0.65746(17) 0.91331(9)
S1K S 0.20308(24) 0.54562(17) 0.91331(9)
S1J S 0.34254(17) -0.20308(24) 0.91331(9)
S1K_2 S 1.20308(24) 0.54562(17) 0.91331(9)
S1J_2 S 0.34254(17) 0.79692(24) 0.91331(9)
S2A S 0.81493(17) 0.28466(24) 1.02309(11)
S2B S 0.71534(24) 0.53027(17) 1.02309(11)
S2I S 0.53027(17) 0.81493(17) 0.97691(11)
S2K S 0.28466(24) 0.46973(17) 0.97691(11)
S2J S 0.18507(17) -0.28466(24) 0.97691(11)
S2I_2 S 0.53027(17) -0.18507(17) 0.97691(11)
S2J_2 S 1.18507(17) 0.71534(24) 0.97691(11)
P1A P 0.76817(19) 0.23050(25) 1.07455(10)
P1B P 0.76950(25) 0.53767(17) 1.07455(10)
P1I P 0.53767(17) 0.76817(19) 0.92545(10)
P1K P 0.23050(25) 0.46233(17) 0.92545(10)
P1J P 0.23183(19) -0.23050(25) 0.92545(10)
P2I P 0.49673(15) 0.59223(13) 1.03738(7)
P2A P 0.59223(13) 0.09550(20) 0.96262(7)
P2J P 0.40777(13) -0.09550(20) 1.03738(7)
P2B P 0.90450(20) 0.49673(15) 0.96262(7)
P2K P 1.09550(20) 0.50327(15) 1.03738(7)
O1A O 0.7782(7) 0.1583(9) 1.0801(3)
O1B O 0.8417(9) 0.6199(5) 1.0801(3)
O1I O 0.6199(5) 0.7782(7) 0.9199(3)
O1K O 0.1583(9) 0.3801(5) 0.9199(3)
O1J O 0.2218(7) -0.1583(9) 0.9199(3)
O2A O 0.8259(7) 0.2847(9) 1.1102(4)
O2B O 0.7153(9) 0.5412(6) 1.1102(4)
O2I O 0.5412(6) 0.8259(7) 0.8898(4)
O2K O 0.2847(9) 0.4588(6) 0.8898(4)
O2J O 0.1741(7) -0.2847(9) 0.8898(4)
C1A C 0.7516(15) 0.1002(22) 1.0500(6)
C1B C 0.8998(22) 0.6514(16) 1.0500(6)
C1I C 0.6514(16) 0.7516(15) 0.9500(6)
C1K C 0.1002(22) 0.3486(16) 0.9500(6)
C1J C 0.2484(15) -0.1002(22) 0.9500(6)
H1A H 0.6951 0.0743 1.0513
H1B H 0.9257 0.6208 1.0513
H1I H 0.6208 0.6951 0.9487
H1K H 0.0743 0.3792 0.9487
H1J H 0.3049 -0.0743 0.9487
H2A H 0.7663 0.1277 1.0237
H2B H 0.8723 0.6386 1.0237
H2I H 0.6386 0.7663 0.9763
H2K H 0.1277 0.3614 0.9763
H2J H 0.2337 -0.1277 0.9763
C2A C 0.768(2) 0.0439(23) 1.0464(8)
C2B C 0.9561(23) 0.7241(11) 1.0464(8)
C2I C 0.7241(11) 0.768(2) 0.9536(8)
C2K C 0.0439(23) 0.2759(11) 0.9536(8)
C2J C 0.232(2) -0.0439(23) 0.9536(8)
H3A H 0.7412 0.0123 1.0228
H3B H 0.9877 0.7289 1.0228
H3I H 0.7289 0.7412 0.9772
H3K H 0.0123 0.2711 0.9772
H3J H 0.2588 -0.0123 0.9772
H4A H 0.7515 0.0122 1.0710
H4B H 0.9878 0.7393 1.0710
H4I H 0.7393 0.7515 0.9290
H4K H 0.0122 0.2607 0.9290
H4J H 0.2485 -0.0122 0.9290
H5A H 0.8233 0.0660 1.0428
H5B H 0.9340 0.7573 1.0428
H5I H 0.7573 0.8233 0.9572
H5K H 0.0660 0.2427 0.9572
H5J H 0.1767 -0.0660 0.9572
C3A C 0.8181(15) 0.2769(21) 1.1494(6)
C3B C 0.7231(21) 0.5412(15) 1.1494(6)
C3I C 0.5412(15) 0.8181(15) 0.8506(6)
C3K C 0.2769(21) 0.4588(15) 0.8506(6)
C3J C 0.1819(15) -0.2769(21) 0.8506(6)
H6A H 0.8143 0.2276 1.1569
H6B H 0.7724 0.5867 1.1569
H6I H 0.5867 0.8143 0.8431
H6K H 0.2276 0.4133 0.8431
H6J H 0.1857 -0.2276 0.8431
H7A H 0.7693 0.2739 1.1570
H7B H 0.7261 0.4954 1.1570
H7I H 0.4954 0.7693 0.8430
H7K H 0.2739 0.5046 0.8430
H7J H 0.2307 -0.2739 0.8430
C4A C 0.878(2) 0.336(3) 1.1724(7)
C4B C 0.664(3) 0.542(2) 1.1724(7)
C4I C 0.542(2) 0.878(2) 0.8276(7)
C4K C 0.336(3) 0.458(2) 0.8276(7)
C4J C 0.122(2) -0.336(3) 0.8276(7)
H8A H 0.8674 0.3257 1.2015
H8B H 0.6743 0.5417 1.2015
H8I H 0.5417 0.8674 0.7985
H8K H 0.3257 0.4583 0.7985
H8J H 0.1326 -0.3257 0.7985
H9A H 0.8816 0.3852 1.1658
H9B H 0.6148 0.4964 1.1658
H9I H 0.4964 0.8816 0.8342
H9K H 0.3852 0.5036 0.8342
H9J H 0.1184 -0.3852 0.8342
H10A H 0.9267 0.3388 1.1658
H10B H 0.6612 0.5879 1.1658
H10I H 0.5879 0.9267 0.8342
H10K H 0.3388 0.4121 0.8342
H10J H 0.0733 -0.3388 0.8342
C5I C 0.5326(6) 0.5343(5) 1.0107(3)
C5A C 0.5343(5) 0.0017(8) 0.9893(3)
C5J C 0.4657(5) -0.0017(8) 1.0107(3)
C5B C 0.9983(8) 0.5326(6) 0.9893(3)
C5K C 1.0017(8) 0.4674(6) 1.0107(3)
H11I H 0.5568 0.5163 1.0306
H11A H 0.5163 -0.0405 0.9694
H11J H 0.4837 0.0405 1.0306
H11B H 1.0405 0.5568 0.9694
H11K H 0.9595 0.4432 1.0306
H12I H 0.5718 0.5667 0.9905
H12A H 0.5667 -0.0051 1.0095
H12J H 0.4333 0.0051 0.9905
H12B H 1.0051 0.5718 1.0095
H12K H 0.9949 0.4282 0.9905
C6I C 0.5846(6) 0.6745(6) 1.0584(3)
C6A C 0.6745(6) 0.0899(8) 0.9416(3)
C6J C 0.3255(6) -0.0899(8) 1.0584(3)
C6B C 0.9101(8) 0.5846(6) 0.9416(3)
C6K C 1.0899(8) 0.4154(6) 1.0584(3)
C7I C 0.6513(8) 0.6713(8) 1.0671(4)
C7A C 0.6713(8) 0.0200(11) 0.9329(4)
C7J C 0.3287(8) -0.0200(11) 1.0671(4)
C7B C 0.9800(11) 0.6513(8) 0.9329(4)
C7K C 1.0200(11) 0.3487(8) 1.0671(4)
H13I H 0.6524 0.6253 1.0632
H13A H 0.6253 -0.0271 0.9368
H13J H 0.3747 0.0271 1.0632
H13B H 1.0271 0.6524 0.9368
H13K H 0.9729 0.3476 1.0632
C8I C 0.7166(10) 0.7376(10) 1.0819(5)
C8A C 0.7376(10) 0.0210(14) 0.9181(5)
C8J C 0.2624(10) -0.0210(14) 1.0819(5)
C8B C 0.9790(14) 0.7166(10) 0.9181(5)
C8K C 1.0210(14) 0.2834(10) 1.0819(5)
H14I H 0.7618 0.7361 1.0880
H14A H 0.7361 -0.0257 0.9120
H14J H 0.2639 0.0257 1.0880
H14B H 1.0257 0.7618 0.9120
H14K H 0.9743 0.2382 1.0880
C9I C 0.7148(9) 0.8061(13) 1.0875(5)
C9A C 0.8061(13) 0.0913(16) 0.9125(5)
C9J C 0.1939(13) -0.0913(16) 1.0875(5)
C9B C 0.9087(16) 0.7148(9) 0.9125(5)
C9K C 1.0913(16) 0.2852(9) 1.0875(5)
H15I H 0.7600 0.8515 1.0955
H15A H 0.8515 0.0915 0.9045
H15J H 0.1485 -0.0915 1.0955
H15B H 0.9085 0.7600 0.9045
H15K H 1.0915 0.2400 1.0955
C10I C 0.6490(9) 0.8072(11) 1.0815(5)
C10A C 0.8072(11) 0.1582(14) 0.9185(5)
C10J C 0.1928(11) -0.1582(14) 1.0815(5)
C10B C 0.8418(14) 0.6490(9) 0.9185(5)
C10K C 1.1582(14) 0.3510(9) 1.0815(5)
H16I H 0.6468 0.8520 1.0877
H16A H 0.8520 0.2052 0.9123
H16J H 0.1480 -0.2052 1.0877
H16B H 0.7948 0.6468 0.9123
H16K H 1.2052 0.3532 1.0877
C11I C 0.5837(7) 0.7423(7) 1.0662(4)
C11A C 0.7423(7) 0.1586(10) 0.9338(4)
C11J C 0.2577(7) -0.1586(10) 1.0662(4)
C11B C 0.8414(10) 0.5837(7) 0.9338(4)
C11K C 1.1586(10) 0.4163(7) 1.0662(4)
H17I H 0.5385 0.7444 1.0610
H17A H 0.7444 0.2059 0.9390
H17J H 0.2556 -0.2059 1.0610
H17B H 0.7941 0.5385 0.9390
H17K H 1.2059 0.4615 1.0610
C12I C 0.4459(5) 0.5347(6) 1.0825(3)
C12A C 0.5347(6) 0.0888(8) 0.9175(3)
C12J C 0.4653(6) -0.0888(8) 1.0825(3)
C12B C 0.9112(8) 0.4459(5) 0.9175(3)
C12K C 1.0888(8) 0.5541(5) 1.0825(3)
C13I C 0.4651(7) 0.4865(7) 1.1021(3)
C13A C 0.4865(7) 0.0214(10) 0.8979(3)
C13J C 0.5135(7) -0.0214(10) 1.1021(3)
C13B C 0.9786(10) 0.4651(7) 0.8979(3)
C13K C 1.0214(10) 0.5349(7) 1.1021(3)
H18I H 0.5065 0.4812 1.0924
H18A H 0.4812 -0.0253 0.9076
H18J H 0.5188 0.0253 1.0924
H18B H 1.0253 0.5065 0.9076
H18K H 0.9747 0.4935 1.0924
C14I C 0.4237(9) 0.4448(11) 1.1363(4)
C14A C 0.4448(11) 0.0211(14) 0.8637(4)
C14J C 0.5552(11) -0.0211(14) 1.1363(4)
C14B C 0.9789(14) 0.4237(9) 0.8637(4)
C14K C 1.0211(14) 0.5763(9) 1.1363(4)
H19I H 0.4368 0.4105 1.1488
H19A H 0.4105 -0.0263 0.8512
H19J H 0.5895 0.0263 1.1488
H19B H 1.0263 0.4368 0.8512
H19K H 0.9737 0.5632 1.1488
C15I C 0.3646(9) 0.4523(12) 1.1525(4)
C15A C 0.4523(12) 0.0877(15) 0.8475(4)
C15J C 0.5477(12) -0.0877(15) 1.1525(4)
C15B C 0.9123(15) 0.3646(9) 0.8475(4)
C15K C 1.0877(15) 0.6354(9) 1.1525(4)
H20I H 0.3389 0.4254 1.1764
H20A H 0.4254 0.0865 0.8236
H20J H 0.5746 -0.0865 1.1764
H20B H 0.9135 0.3389 0.8236
H20K H 1.0865 0.6611 1.1764
C16I C 0.3440(9) 0.4998(10) 1.1332(4)
C16A C 0.4998(10) 0.1558(13) 0.8668(4)
C16J C 0.5002(10) -0.1558(13) 1.1332(4)
C16B C 0.8442(13) 0.3440(9) 0.8668(4)
C16K C 1.1558(13) 0.6560(9) 1.1332(4)
H21I H 0.3030 0.5052 1.1434
H21A H 0.5052 0.2022 0.8566
H21J H 0.4948 -0.2022 1.1434
H21B H 0.7978 0.3030 0.8566
H21K H 1.2022 0.6970 1.1434
C17I C 0.3835(7) 0.5402(7) 1.0983(3)
C17A C 0.5402(7) 0.1567(10) 0.9017(3)
C17J C 0.4598(7) -0.1567(10) 1.0983(3)
C17B C 0.8433(10) 0.3835(7) 0.9017(3)
C17K C 1.1567(10) 0.6165(7) 1.0983(3)
H22I H 0.3681 0.5720 1.0850
H22A H 0.5720 0.2039 0.9150
H22J H 0.4280 -0.2039 1.0850
H22B H 0.7961 0.3681 0.9150
H22K H 1.2039 0.6319 1.0850
loop_
_geom_bond_atom_site_label_1
_geom_bond_atom_site_label_2
_geom_bond_site_symmetry_1
_geom_bond_site_symmetry_2
Ag1 S1 1_555 1_555
Ag2 Cl1 1_555 1_555
Cl1 Ag2A 1_555 1_555
S1 Ag2 1_555 1_555
S2 P1 1_555 1_555
P1 S1 1_555 1_555
P2 Ag2 1_555 1_555
O1 P1 1_555 1_555
O2 P1 1_555 1_555
C1 O1 1_555 1_555
H1 C1 1_555 1_555
H2 C1 1_555 1_555
C2 C1 1_555 1_555
H3 C2 1_555 1_555
H4 C2 1_555 1_555
H5 C2 1_555 1_555
C3 O2 1_555 1_555
H6 C3 1_555 1_555
H7 C3 1_555 1_555
C4 C3 1_555 1_555
H8 C4 1_555 1_555
H9 C4 1_555 1_555
H10 C4 1_555 1_555
C5 P2 1_555 1_555
H11 C5 1_555 1_555
H12 C5 1_555 1_555
C6 P2 1_555 1_555
C7 C6 1_555 1_555
H13 C7 1_555 1_555
C8 C7 1_555 1_555
H14 C8 1_555 1_555
C9 C8 1_555 1_555
H15 C9 1_555 1_555
C10 C9 1_555 1_555
H16 C10 1_555 1_555
C11 C6 1_555 1_555
H17 C11 1_555 1_555
C12 P2 1_555 1_555
C13 C12 1_555 1_555
H18 C13 1_555 1_555
C14 C13 1_555 1_555
H19 C14 1_555 1_555
C15 C14 1_555 1_555
H20 C15 1_555 1_555
C16 C15 1_555 1_555
H21 C16 1_555 1_555
C17 C12 1_555 1_555
H22 C17 1_555 1_555
Ag1I S1I 1_555 1_555
Ag1I_2 S1J 1_555 1_555
Ag2A S2 1_555 1_555
Ag2B Cl1 1_555 1_555
Ag2I Cl1I 1_555 1_555
Ag2J Cl1I_2 1_555 1_555
Ag2K Cl1I_3 1_555 1_555
Ag2J_2 Cl1I 1_555 1_555
Ag2K_2 Cl1I 1_555 1_555
Ag2K_3 Cl1I_2 1_555 1_555
S1A Ag1 1_555 1_555
S1B Ag1 1_555 1_555
S1I Ag2I 1_555 1_555
S1K Ag1I 1_555 1_555
S1J Ag2J 1_555 1_555
S1K_2 Ag2K 1_555 1_555
S1J_2 Ag1I 1_555 1_555
S2A Ag2B 1_555 1_555
S2B Ag2 1_555 1_555
S2I Ag2J_2 1_555 1_555
S2K Ag2I 1_555 1_555
S2J Ag2K_3 1_555 1_555
S2I_2 Ag2J 1_555 1_555
S2J_2 Ag2K 1_555 1_555
P1A S1A 1_555 1_555
P1B S1B 1_555 1_555
P1I S1I 1_555 1_555
P1K S1K 1_555 1_555
P1J S1J 1_555 1_555
P2I Ag2I 1_555 1_555
P2A Ag2A 1_555 1_555
P2J Ag2J 1_555 1_555
P2B Ag2B 1_555 1_555
P2K Ag2K 1_555 1_555
O1A P1A 1_555 1_555
O1B P1B 1_555 1_555
O1I P1I 1_555 1_555
O1K P1K 1_555 1_555
O1J P1J 1_555 1_555
O2A P1A 1_555 1_555
O2B P1B 1_555 1_555
O2I P1I 1_555 1_555
O2K P1K 1_555 1_555
O2J P1J 1_555 1_555
C1A O1A 1_555 1_555
C1B O1B 1_555 1_555
C1I O1I 1_555 1_555
C1K O1K 1_555 1_555
C1J O1J 1_555 1_555
H1A C1A 1_555 1_555
H1B C1B 1_555 1_555
H1I C1I 1_555 1_555
H1K C1K 1_555 1_555
H1J C1J 1_555 1_555
H2A C1A 1_555 1_555
H2B C1B 1_555 1_555
H2I C1I 1_555 1_555
H2K C1K 1_555 1_555
H2J C1J 1_555 1_555
C2A C1A 1_555 1_555
C2B C1B 1_555 1_555
C2I C1I 1_555 1_555
C2K C1K 1_555 1_555
C2J C1J 1_555 1_555
H3A C2A 1_555 1_555
H3B C2B 1_555 1_555
H3I C2I 1_555 1_555
H3K C2K 1_555 1_555
H3J C2J 1_555 1_555
H4A C2A 1_555 1_555
H4B C2B 1_555 1_555
H4I C2I 1_555 1_555
H4K C2K 1_555 1_555
H4J C2J 1_555 1_555
H5A C2A 1_555 1_555
H5B C2B 1_555 1_555
H5I C2I 1_555 1_555
H5K C2K 1_555 1_555
H5J C2J 1_555 1_555
C3A O2A 1_555 1_555
C3B O2B 1_555 1_555
C3I O2I 1_555 1_555
C3K O2K 1_555 1_555
C3J O2J 1_555 1_555
H6A C3A 1_555 1_555
H6B C3B 1_555 1_555
H6I C3I 1_555 1_555
H6K C3K 1_555 1_555
H6J C3J 1_555 1_555
H7A C3A 1_555 1_555
H7B C3B 1_555 1_555
H7I C3I 1_555 1_555
H7K C3K 1_555 1_555
H7J C3J 1_555 1_555
C4A C3A 1_555 1_555
C4B C3B 1_555 1_555
C4I C3I 1_555 1_555
C4K C3K 1_555 1_555
C4J C3J 1_555 1_555
H8A C4A 1_555 1_555
H8B C4B 1_555 1_555
H8I C4I 1_555 1_555
H8K C4K 1_555 1_555
H8J C4J 1_555 1_555
H9A C4A 1_555 1_555
H9B C4B 1_555 1_555
H9I C4I 1_555 1_555
H9K C4K 1_555 1_555
H9J C4J 1_555 1_555
H10A C4A 1_555 1_555
H10B C4B 1_555 1_555
H10I C4I 1_555 1_555
H10K C4K 1_555 1_555
H10J C4J 1_555 1_555
C5I C5 1_555 1_555
C5A P2A 1_555 1_555
C5J P2J 1_555 1_555
C5B P2B 1_555 1_555
C5K P2K 1_555 1_555
H11I C5I 1_555 1_555
H11A C5A 1_555 1_555
H11J C5J 1_555 1_555
H11B C5B 1_555 1_555
H11K C5K 1_555 1_555
H12I C5I 1_555 1_555
H12A C5A 1_555 1_555
H12J C5J 1_555 1_555
H12B C5B 1_555 1_555
H12K C5K 1_555 1_555
C6I P2I 1_555 1_555
C6A P2A 1_555 1_555
C6J P2J 1_555 1_555
C6B P2B 1_555 1_555
C6K P2K 1_555 1_555
C7I C6I 1_555 1_555
C7A C6A 1_555 1_555
C7J C6J 1_555 1_555
C7B C6B 1_555 1_555
C7K C6K 1_555 1_555
H13I C7I 1_555 1_555
H13A C7A 1_555 1_555
H13J C7J 1_555 1_555
H13B C7B 1_555 1_555
H13K C7K 1_555 1_555
C8I C7I 1_555 1_555
C8A C7A 1_555 1_555
C8J C7J 1_555 1_555
C8B C7B 1_555 1_555
C8K C7K 1_555 1_555
H14I C8I 1_555 1_555
H14A C8A 1_555 1_555
H14J C8J 1_555 1_555
H14B C8B 1_555 1_555
H14K C8K 1_555 1_555
C9I C8I 1_555 1_555
C9A C8A 1_555 1_555
C9J C8J 1_555 1_555
C9B C8B 1_555 1_555
C9K C8K 1_555 1_555
H15I C9I 1_555 1_555
H15A C9A 1_555 1_555
H15J C9J 1_555 1_555
H15B C9B 1_555 1_555
H15K C9K 1_555 1_555
C10I C9I 1_555 1_555
C10A C9A 1_555 1_555
C10J C9J 1_555 1_555
C10B C9B 1_555 1_555
C10K C9K 1_555 1_555
H16I C10I 1_555 1_555
H16A C10A 1_555 1_555
H16J C10J 1_555 1_555
H16B C10B 1_555 1_555
H16K C10K 1_555 1_555
C11I C6I 1_555 1_555
C11A C6A 1_555 1_555
C11J C6J 1_555 1_555
C11B C6B 1_555 1_555
C11K C6K 1_555 1_555
H17I C11I 1_555 1_555
H17A C11A 1_555 1_555
H17J C11J 1_555 1_555
H17B C11B 1_555 1_555
H17K C11K 1_555 1_555
C12I P2I 1_555 1_555
C12A P2A 1_555 1_555
C12J P2J 1_555 1_555
C12B P2B 1_555 1_555
C12K P2K 1_555 1_555
C13I C12I 1_555 1_555
C13A C12A 1_555 1_555
C13J C12J 1_555 1_555
C13B C12B 1_555 1_555
C13K C12K 1_555 1_555
H18I C13I 1_555 1_555
H18A C13A 1_555 1_555
H18J C13J 1_555 1_555
H18B C13B 1_555 1_555
H18K C13K 1_555 1_555
C14I C13I 1_555 1_555
C14A C13A 1_555 1_555
C14J C13J 1_555 1_555
C14B C13B 1_555 1_555
C14K C13K 1_555 1_555
H19I C14I 1_555 1_555
H19A C14A 1_555 1_555
H19J C14J 1_555 1_555
H19B C14B 1_555 1_555
H19K C14K 1_555 1_555
C15I C14I 1_555 1_555
C15A C14A 1_555 1_555
C15J C14J 1_555 1_555
C15B C14B 1_555 1_555
C15K C14K 1_555 1_555
H20I C15I 1_555 1_555
H20A C15A 1_555 1_555
H20J C15J 1_555 1_555
H20B C15B 1_555 1_555
H20K C15K 1_555 1_555
C16I C15I 1_555 1_555
C16A C15A 1_555 1_555
C16J C15J 1_555 1_555
C16B C15B 1_555 1_555
C16K C15K 1_555 1_555
H21I C16I 1_555 1_555
H21A C16A 1_555 1_555
H21J C16J 1_555 1_555
H21B C16B 1_555 1_555
H21K C16K 1_555 1_555
C17I C12I 1_555 1_555
C17A C12A 1_555 1_555
C17J C12J 1_555 1_555
C17B C12B 1_555 1_555
C17K C12K 1_555 1_555
H22I C17I 1_555 1_555
H22A C17A 1_555 1_555
H22J C17J 1_555 1_555
H22B C17B 1_555 1_555
H22K C17K 1_555 1_555
C10 C11 1_555 1_555
C16 C17 1_555 1_555
Ag2A S1A 1_555 1_555
Ag2B S1B 1_555 1_555
Ag2J_2 S1J_2 1_555 1_555
Ag2K_2 S1K 1_555 1_555
S2A P1A 1_555 1_555
S2B P1B 1_555 1_555
S2I P1I 1_555 1_555
S2K P1K 1_555 1_555
S2J P1J 1_555 1_555
P2I C5I 1_555 1_555
C5A C5J 1_555 1_555
C5B C5K 1_555 1_555
C10I C11I 1_555 1_555
C10A C11A 1_555 1_555
C10J C11J 1_555 1_555
C10B C11B 1_555 1_555
C10K C11K 1_555 1_555
C16I C17I 1_555 1_555
C16A C17A 1_555 1_555
C16J C17J 1_555 1_555
C16B C17B 1_555 1_555
C16K C17K 1_555 1_555

#END
