
#######################################################################
#
#                 Cambridge Crystallographic Data Centre
#                                CCDC 
#
#######################################################################
#
# If this CIF has been generated from an entry in the Cambridge 
# Structural Database, then it will include bibliographic, chemical, 
# crystal, experimental, refinement or atomic coordinate data resulting 
# from the CCDC's data processing and validation procedures.
#
#######################################################################

data_LALJIS
_symmetry_cell_setting           triclinic
_symmetry_space_group_name_H-M   'P -1'
_symmetry_Int_Tables_number      2
_space_group_name_Hall           '-P 1'
loop_
_symmetry_equiv_pos_site_id
_symmetry_equiv_pos_as_xyz
1 x,y,z
2 -x,-y,-z
_cell_length_a                   13.7563(19)
_cell_length_b                   15.2893(19)
_cell_length_c                   19.455(3)
_cell_angle_alpha                70.541(6)
_cell_angle_beta                 76.102(6)
_cell_angle_gamma                68.662(5)
_cell_volume                     3560.53
loop_
_atom_site_label
_atom_site_type_symbol
_atom_site_fract_x
_atom_site_fract_y
_atom_site_fract_z
Mo1 Mo -0.22147(3) 0.58055(2) 0.291000(18)
Mo2 Mo -0.31514(3) 0.63510(2) 0.132100(18)
Mo3 Mo -0.42337(3) -0.33113(2) 0.412700(18)
Mo4 Mo -0.63565(3) 0.80881(3) 0.325670(19)
Mo5 Mo -0.56869(3) 0.82876(2) 0.143930(18)
Co1 Co -0.19460(4) 0.80800(4) -0.01001(3)
Co2 Co -0.15933(4) 0.32433(4) 0.41740(3)
P1 P -0.48255(8) 0.59721(7) 0.28029(5)
P2 P -0.38431(8) -0.18873(7) 0.23533(5)
O1 O -0.3102(2) 0.3689(2) 0.47202(16)
O3 O -0.3084(2) 0.9204(2) 0.03660(15)
O10 O -0.2815(2) 0.6534(2) 0.36173(14)
O11 O -0.2292(2) 0.54631(19) 0.20565(14)
O12 O -0.3168(2) -0.28845(19) 0.22074(14)
O13 O -0.1869(2) 0.4632(2) 0.34876(15)
O14 O -0.4009(2) 0.5822(2) 0.32874(14)
O15 O -0.1067(2) 0.6084(2) 0.26244(16)
O16 O -0.4437(2) 0.73741(19) 0.11232(14)
O17 O -0.3037(2) 0.5633(2) 0.07832(15)
O18 O -0.2303(2) 0.7019(2) 0.08029(14)
O19 O -0.4291(2) 0.56420(19) 0.21108(14)
O20 O -0.4602(2) -0.20208(19) 0.30769(14)
O21 O -0.4065(2) -0.4399(2) 0.47930(15)
O22 O -0.5701(2) 0.7010(2) 0.40412(14)
O23 O -0.4289(2) -0.2513(2) 0.45784(15)
O24 O -0.6390(2) 0.8843(2) 0.22331(15)
O25 O -0.5496(2) 0.70650(19) 0.25742(14)
O26 O -0.6666(2) 0.9050(2) 0.36082(16)
O27 O -0.7515(2) 0.7819(2) 0.34236(16)
O28 O -0.5802(2) 0.9309(2) 0.07026(15)
O29 O -0.4413(2) -0.12523(19) 0.16926(15)
O30 O -0.6607(2) 0.7836(2) 0.13387(16)
N1 N -0.1344(3) 0.9120(2) -0.09438(19)
N2 N -0.0699(3) 0.8068(2) 0.03669(19)
N3 N -0.3064(3) 0.7863(2) -0.05622(17)
N4 N -0.0975(3) 0.6971(2) -0.06267(18)
N5 N -0.1929(3) 0.2717(3) 0.34092(19)
N6 N -0.1398(3) 0.1747(2) 0.47640(19)
N7 N 0.0057(3) 0.2882(2) 0.37328(18)
N8 N -0.0924(3) 0.3589(3) 0.49001(19)
C1 C -0.1690(4) 0.9645(3) -0.1581(2)
H1 H -0.2284 0.9585 -0.1686
C2 C -0.1189(4) 1.0291(3) -0.2106(3)
H2 H -0.1456 1.0661 -0.2546
C3 C -0.0300(4) 1.0369(3) -0.1961(3)
H3 H 0.0035 1.0796 -0.2302
C4 C 0.0102(4) 0.9806(3) -0.1301(3)
C5 C 0.1030(4) 0.9836(4) -0.1102(3)
H4 H 0.1403 1.0241 -0.1430
C6 C 0.1370(4) 0.9290(4) -0.0449(3)
H5 H 0.1974 0.9321 -0.0335
C7 C 0.0804(4) 0.8659(3) 0.0074(3)
C8 C 0.1098(4) 0.8093(4) 0.0770(3)
H6 H 0.1699 0.8095 0.0908
C9 C 0.0495(4) 0.7539(4) 0.1246(3)
H7 H 0.0681 0.7162 0.1708
C10 C -0.0408(4) 0.7550(3) 0.1022(3)
H8 H -0.0818 0.7178 0.1348
C11 C -0.0110(3) 0.8622(3) -0.0105(2)
C12 C -0.0467(3) 0.9201(3) -0.0800(2)
C13 C -0.4105(3) 0.8274(3) -0.0481(2)
H9 H -0.4386 0.8861 -0.0355
C14 C -0.4791(4) 0.7851(4) -0.0579(2)
H10 H -0.5515 0.8145 -0.0499
C15 C -0.4401(4) 0.7006(4) -0.0794(2)
H11 H -0.4854 0.6720 -0.0857
C16 C -0.3308(4) 0.6581(3) -0.0917(2)
C17 C -0.2817(4) 0.5719(3) -0.1171(2)
H12 H -0.3237 0.5430 -0.1272
C18 C -0.1760(4) 0.5319(4) -0.1268(3)
H13 H -0.1463 0.4769 -0.1443
C19 C -0.1091(4) 0.5734(3) -0.1103(2)
C20 C 0.0007(4) 0.5342(3) -0.1175(3)
H14 H 0.0341 0.4797 -0.1355
C21 C 0.0592(4) 0.5760(4) -0.0980(3)
H15 H 0.1323 0.5511 -0.1035
C22 C 0.0069(4) 0.6570(3) -0.0695(3)
H16 H 0.0468 0.6837 -0.0548
C23 C -0.1550(3) 0.6571(3) -0.0844(2)
C24 C -0.2671(3) 0.7022(3) -0.0777(2)
C25 C -0.2169(4) 0.3213(3) 0.2734(2)
H17 H -0.2299 0.3885 0.2587
C26 C -0.2233(4) 0.2752(4) 0.2235(3)
H18 H -0.2386 0.3114 0.1763
C27 C -0.2067(4) 0.1768(4) 0.2454(3)
H19 H -0.2093 0.1452 0.2127
C28 C -0.1858(3) 0.1237(3) 0.3172(3)
C29 C -0.1745(4) 0.0208(4) 0.3468(3)
H20 H -0.1786 -0.0139 0.3170
C30 C -0.1582(4) -0.0250(4) 0.4169(3)
H21 H -0.1542 -0.0905 0.4352
C31 C -0.1467(3) 0.0238(3) 0.4643(3)
C32 C -0.1248(4) -0.0222(3) 0.5372(3)
H22 H -0.1215 -0.0873 0.5586
C33 C -0.1086(4) 0.0294(3) 0.5758(3)
H23 H -0.0933 -0.0007 0.6238
C34 C -0.1147(3) 0.1281(3) 0.5438(2)
H24 H -0.1008 0.1616 0.5705
C35 C -0.1543(3) 0.1233(3) 0.4364(2)
C36 C -0.1780(3) 0.1741(3) 0.3628(2)
C37 C 0.0545(4) 0.2548(3) 0.3149(2)
H25 H 0.0134 0.2500 0.2855
C38 C 0.1633(4) 0.2266(4) 0.2952(3)
H26 H 0.1934 0.2035 0.2539
C39 C 0.2249(4) 0.2333(4) 0.3373(3)
H27 H 0.2978 0.2133 0.3255
C40 C 0.1781(4) 0.2703(4) 0.3983(3)
C41 C 0.2363(4) 0.2816(5) 0.4456(3)
H28 H 0.3094 0.2641 0.4357
C42 C 0.1872(5) 0.3167(5) 0.5033(4)
H29 H 0.2270 0.3227 0.5329
C43 C 0.0748(4) 0.3452(4) 0.5208(3)
C44 C 0.0177(5) 0.3853(5) 0.5800(3)
H30 H 0.0534 0.3946 0.6106
C45 C -0.0892(5) 0.4103(5) 0.5921(3)
H31 H -0.1266 0.4365 0.6310
C46 C -0.1425(4) 0.3964(4) 0.5460(3)
H32 H -0.2157 0.4140 0.5548
C47 C 0.0147(4) 0.3351(3) 0.4764(2)
C48 C 0.0672(3) 0.2971(3) 0.4142(2)
C49 C -0.5754(3) 0.5322(3) 0.3344(2)
H33 H -0.5813 0.5301 0.3856
H34 H -0.6441 0.5688 0.3187
C50 C -0.5467(3) 0.4295(3) 0.3292(2)
C51 C -0.4825(3) 0.3505(3) 0.3746(2)
H35 H -0.4574 0.3602 0.4110
C52 C -0.4546(3) 0.2570(3) 0.3671(2)
H36 H -0.4130 0.2047 0.3994
C53 C -0.4884(3) 0.2405(3) 0.3116(2)
C54 C -0.4474(3) 0.1435(3) 0.2965(2)
C55 C -0.4137(3) 0.1378(3) 0.2242(2)
H37 H -0.4227 0.1949 0.1860
C56 C -0.3670(3) 0.0484(3) 0.2082(2)
H38 H -0.3456 0.0465 0.1594
C57 C -0.3520(3) -0.0379(3) 0.2639(2)
C58 C -0.2951(3) -0.1355(3) 0.2471(2)
H39 H -0.2555 -0.1797 0.2869
H40 H -0.2454 -0.1266 0.2025
C59 C -0.3899(4) -0.0327(3) 0.3364(2)
H41 H -0.3837 -0.0900 0.3743
C60 C -0.4363(4) 0.0562(3) 0.3526(2)
H42 H -0.4604 0.0580 0.4012
C61 C -0.5550(4) 0.3192(3) 0.2671(2)
H43 H -0.5797 0.3096 0.2305
C62 C -0.5854(4) 0.4122(3) 0.2765(2)
H44 H -0.6322 0.4636 0.2473
Mo1_2 Mo -0.22147(3) -0.41945(2) 0.291000(18)
Mo2_2 Mo -0.31514(3) -0.36490(2) 0.132100(18)
Mo3_2 Mo -0.42337(3) 0.66887(2) 0.412700(18)
Mo4_2 Mo -0.63565(3) -0.19119(3) 0.325670(19)
Mo5_2 Mo -0.56869(3) -0.17124(2) 0.143930(18)
O10_2 O -0.2815(2) -0.3466(2) 0.36173(14)
O12_2 O -0.3168(2) 0.71155(19) 0.22074(14)
O14_2 O -0.4009(2) -0.4178(2) 0.32874(14)
O20_2 O -0.4602(2) 0.79792(19) 0.30769(14)
O22_2 O -0.5701(2) -0.2990(2) 0.40412(14)
O29_2 O -0.4413(2) 0.87477(19) 0.16926(15)
O2 O -0.6359(3) 0.0784(3) 0.2273(2)
O4 O -0.8036(3) -0.3018(3) 0.2499(2)
O5 O -0.4706(4) -0.5295(3) 0.1145(2)
O6 O -0.2669(4) -0.6226(3) 0.0406(2)
O7 O -0.3627(4) -0.6364(3) -0.0649(3)
O8 O -0.4037(10) -0.9276(9) 0.5206(7)
O9 O 0.0448(12) 0.2275(11) -0.2847(10)
loop_
_geom_bond_atom_site_label_1
_geom_bond_atom_site_label_2
_geom_bond_site_symmetry_1
_geom_bond_site_symmetry_2
Mo1 O10 1_555 1_555
Mo2 O11 1_555 1_555
Mo3 O20 1_555 1_555
Mo4 O22 1_555 1_555
Mo5 O16 1_555 1_555
Co1 O3 1_555 1_555
Co2 O1 1_555 1_555
P1 O14 1_555 1_555
P2 O12 1_555 1_555
O10 Mo3_2 1_555 1_555
O11 Mo1 1_555 1_555
O12 Mo1_2 1_555 1_555
O13 Mo1 1_555 1_555
O14 Mo1 1_555 1_555
O15 Mo1 1_555 1_555
O16 Mo2 1_555 1_555
O17 Mo2 1_555 1_555
O18 Mo2 1_555 1_555
O19 Mo2 1_555 1_555
O20 P2 1_555 1_555
O21 Mo3 1_555 1_555
O22 Mo3_2 1_555 1_555
O23 Mo3 1_555 1_555
O24 Mo4 1_555 1_555
O25 Mo4 1_555 1_555
O26 Mo4 1_555 1_555
O27 Mo4 1_555 1_555
O28 Mo5 1_555 1_555
O29 P2 1_555 1_555
O30 Mo5 1_555 1_555
N1 Co1 1_555 1_555
N2 Co1 1_555 1_555
N3 Co1 1_555 1_555
N4 Co1 1_555 1_555
N5 Co2 1_555 1_555
N6 Co2 1_555 1_555
N7 Co2 1_555 1_555
N8 Co2 1_555 1_555
C1 N1 1_555 1_555
H1 C1 1_555 1_555
C2 C1 1_555 1_555
H2 C2 1_555 1_555
C3 C2 1_555 1_555
H3 C3 1_555 1_555
C4 C3 1_555 1_555
C5 C4 1_555 1_555
H4 C5 1_555 1_555
C6 C5 1_555 1_555
H5 C6 1_555 1_555
C7 C6 1_555 1_555
C8 C7 1_555 1_555
H6 C8 1_555 1_555
C9 C8 1_555 1_555
H7 C9 1_555 1_555
C10 N2 1_555 1_555
H8 C10 1_555 1_555
C11 N2 1_555 1_555
C12 N1 1_555 1_555
C13 N3 1_555 1_555
H9 C13 1_555 1_555
C14 C13 1_555 1_555
H10 C14 1_555 1_555
C15 C14 1_555 1_555
H11 C15 1_555 1_555
C16 C15 1_555 1_555
C17 C16 1_555 1_555
H12 C17 1_555 1_555
C18 C17 1_555 1_555
H13 C18 1_555 1_555
C19 C18 1_555 1_555
C20 C19 1_555 1_555
H14 C20 1_555 1_555
C21 C20 1_555 1_555
H15 C21 1_555 1_555
C22 N4 1_555 1_555
H16 C22 1_555 1_555
C23 N4 1_555 1_555
C24 N3 1_555 1_555
C25 N5 1_555 1_555
H17 C25 1_555 1_555
C26 C25 1_555 1_555
H18 C26 1_555 1_555
C27 C26 1_555 1_555
H19 C27 1_555 1_555
C28 C27 1_555 1_555
C29 C28 1_555 1_555
H20 C29 1_555 1_555
C30 C29 1_555 1_555
H21 C30 1_555 1_555
C31 C30 1_555 1_555
C32 C31 1_555 1_555
H22 C32 1_555 1_555
C33 C32 1_555 1_555
H23 C33 1_555 1_555
C34 N6 1_555 1_555
H24 C34 1_555 1_555
C35 N6 1_555 1_555
C36 N5 1_555 1_555
C37 N7 1_555 1_555
H25 C37 1_555 1_555
C38 C37 1_555 1_555
H26 C38 1_555 1_555
C39 C38 1_555 1_555
H27 C39 1_555 1_555
C40 C39 1_555 1_555
C41 C40 1_555 1_555
H28 C41 1_555 1_555
C42 C41 1_555 1_555
H29 C42 1_555 1_555
C43 C42 1_555 1_555
C44 C43 1_555 1_555
H30 C44 1_555 1_555
C45 C44 1_555 1_555
H31 C45 1_555 1_555
C46 N8 1_555 1_555
H32 C46 1_555 1_555
C47 N8 1_555 1_555
C48 N7 1_555 1_555
C49 P1 1_555 1_555
H33 C49 1_555 1_555
H34 C49 1_555 1_555
C50 C49 1_555 1_555
C51 C50 1_555 1_555
H35 C51 1_555 1_555
C52 C51 1_555 1_555
H36 C52 1_555 1_555
C53 C52 1_555 1_555
C54 C53 1_555 1_555
C55 C54 1_555 1_555
H37 C55 1_555 1_555
C56 C55 1_555 1_555
H38 C56 1_555 1_555
C57 C56 1_555 1_555
C58 P2 1_555 1_555
H39 C58 1_555 1_555
H40 C58 1_555 1_555
C59 C57 1_555 1_555
H41 C59 1_555 1_555
C60 C54 1_555 1_555
H42 C60 1_555 1_555
C61 C53 1_555 1_555
H43 C61 1_555 1_555
C62 C50 1_555 1_555
H44 C62 1_555 1_555
Mo1_2 O10_2 1_555 1_555
Mo2_2 O12 1_555 1_555
Mo3_2 O14 1_555 1_555
Mo4_2 O20 1_555 1_555
Mo5_2 O29 1_555 1_555
O10_2 Mo3 1_555 1_555
O12_2 Mo1 1_555 1_555
O14_2 Mo3 1_555 1_555
O20_2 Mo4 1_555 1_555
O22_2 Mo3 1_555 1_555
O29_2 Mo5 1_555 1_555
Mo2 O12_2 1_555 1_555
Mo5 O24 1_555 1_555
Mo5 O25 1_555 1_555
Co1 O18 1_555 1_555
Co2 O13 1_555 1_555
P1 O19 1_555 1_555
P1 O25 1_555 1_555
C4 C12 1_555 1_555
C7 C11 1_555 1_555
C9 C10 1_555 1_555
C11 C12 1_555 1_555
C16 C24 1_555 1_555
C19 C23 1_555 1_555
C21 C22 1_555 1_555
C23 C24 1_555 1_555
C28 C36 1_555 1_555
C31 C35 1_555 1_555
C33 C34 1_555 1_555
C35 C36 1_555 1_555
C40 C48 1_555 1_555
C43 C47 1_555 1_555
C45 C46 1_555 1_555
C47 C48 1_555 1_555
C57 C58 1_555 1_555
C59 C60 1_555 1_555
C61 C62 1_555 1_555
Mo1_2 O14_2 1_555 1_555
Mo3_2 O20_2 1_555 1_555
Mo4_2 O22_2 1_555 1_555

#END
