
#######################################################################
#
#                 Cambridge Crystallographic Data Centre
#                                CCDC 
#
#######################################################################
#
# If this CIF has been generated from an entry in the Cambridge 
# Structural Database, then it will include bibliographic, chemical, 
# crystal, experimental, refinement or atomic coordinate data resulting 
# from the CCDC's data processing and validation procedures.
#
#######################################################################

data_LALJEP
_symmetry_cell_setting           orthorhombic
_symmetry_space_group_name_H-M   'P 21 21 2'
_symmetry_Int_Tables_number      18
_space_group_name_Hall           'P 2 2ab'
loop_
_symmetry_equiv_pos_site_id
_symmetry_equiv_pos_as_xyz
1 x,y,z
2 -x,-y,z
3 1/2-x,1/2+y,-z
4 1/2+x,1/2-y,-z
_cell_length_a                   14.615(3)
_cell_length_b                   17.148(3)
_cell_length_c                   9.6756(19)
_cell_angle_alpha                90
_cell_angle_beta                 90
_cell_angle_gamma                90
_cell_volume                     2424.88
loop_
_atom_site_label
_atom_site_type_symbol
_atom_site_fract_x
_atom_site_fract_y
_atom_site_fract_z
Mo1 Mo 0.11711(3) 0.09073(3) 0.89664(6)
Mo2 Mo 0.06819(3) 0.04707(3) 0.51538(5)
Mo3 Mo 0.29144(4) 0.20401(3) 0.88679(7)
P1 P 0.28061(9) 0.07990(8) 0.63180(17)
P2 P 0.15378(10) 0.21946(8) 0.61931(18)
O1 O 0.0751(3) 0.0566(2) 0.7356(4)
O2 O 0.0616(3) -0.0647(2) 0.5388(4)
O3 O 0.0841(3) 0.0571(2) 0.3426(4)
O4 O 0.3763(3) 0.0523(3) 0.6066(6)
O5 O 0.0866(3) 0.1698(2) 0.5377(5)
O6 O 0.1341(3) 0.0058(3) 0.9880(5)
O7 O 0.1432(3) 0.3038(2) 0.5852(5)
O8 O 0.2093(3) 0.1542(3) 1.0058(5)
O9 O 0.1482(3) 0.2056(2) 0.7783(5)
O10 O 0.3248(3) 0.2219(3) 0.6905(5)
O11 O 0.0218(3) 0.1333(3) 0.9711(5)
O12 O 0.2588(3) 0.0817(3) 0.7892(5)
O13 O 0.2843(4) 0.2990(3) 0.9405(5)
O14 O 0.2101(3) 0.0326(2) 0.5505(5)
O15 O 0.3956(4) 0.1747(4) 0.9482(6)
C1 C 0.3101(4) 0.2813(3) 0.3929(7)
H1 H 0.3306 0.3151 0.4671
H2 H 0.2485 0.2968 0.3677
C2 C 0.3096(4) 0.1985(4) 0.4419(7)
H3 H 0.3721 0.1795 0.4408
H4 H 0.2752 0.1677 0.3758
C3 C 0.2698(4) 0.1835(3) 0.5860(7)
N1 N 0.3701(4) 0.3708(3) 0.2156(6)
H5 H 0.4073 0.3749 0.1431
H6 H 0.3880 0.4037 0.2814
H7 H 0.3132 0.3824 0.1900
C4 C 0.3729(4) 0.2906(4) 0.2690(7)
H8 H 0.4351 0.2778 0.2957
H9 H 0.3544 0.2547 0.1968
Mo2A Mo -0.06819(3) -0.04707(3) 0.51538(5)
O2A O -0.0616(3) 0.0647(2) 0.5388(4)
N2 N 0.2431(3) 0.4300(3) 0.6601(6)
H10 H 0.193(3) 0.395(3) 0.666(6)
H11 H 0.299(2) 0.401(3) 0.682(6)
H12 H 0.250(4) 0.449(3) 0.567(3)
H13 H 0.238(4) 0.472(2) 0.722(5)
O16 O 0.0905(3) -0.0993(4) 1.2041(6)
H14 H 0.135(4) -0.091(5) 1.260(7)
H15 H 0.045(4) -0.071(5) 1.225(9)
O17 O 0.3186(6) 0.0317(7) 1.1408(13)
H16 H 0.340(8) 0.073(5) 1.101(17)
H17 H 0.259(2) 0.038(8) 1.149(18)
O18 O 0.1902(5) 0.4185(5) 0.1329(10)
H18 H 0.235(5) 0.431(6) 0.079(11)
H19 H 0.150(5) 0.455(5) 0.126(13)
N3 N 0.0889(10) 0.2871(9) 1.0935(17)
O21 O 0.0481(9) 0.3679(7) 0.3441(14)
O19? O 0.0841(9) 0.2188(8) 1.2331(15)
O20? O 0.0027(10) 0.2504(9) 0.3325(16)
N4? N 0.0791(7) 0.3248(6) 0.9490(12)
O22? O 0.0318(8) 0.4303(7) 0.5329(14)
N5? N 0.5000(8) 0.0493(8) 1.1817(14)
N6? N 0.4560(10) 0.0588(8) 1.0548(16)
loop_
_geom_bond_atom_site_label_1
_geom_bond_atom_site_label_2
_geom_bond_site_symmetry_1
_geom_bond_site_symmetry_2
Mo1 O1 1_555 1_555
Mo2 O1 1_555 1_555
Mo3 O8 1_555 1_555
P1 O4 1_555 1_555
P2 O5 1_555 1_555
O2 Mo2 1_555 1_555
O3 Mo2 1_555 1_555
O5 Mo2 1_555 1_555
O6 Mo1 1_555 1_555
O7 P2 1_555 1_555
O8 Mo1 1_555 1_555
O9 Mo1 1_555 1_555
O10 Mo3 1_555 1_555
O11 Mo1 1_555 1_555
O12 Mo1 1_555 1_555
O13 Mo3 1_555 1_555
O14 Mo2 1_555 1_555
O15 Mo3 1_555 1_555
C1 H1 1_555 1_555
H2 C1 1_555 1_555
C2 C1 1_555 1_555
H3 C2 1_555 1_555
H4 C2 1_555 1_555
C3 P1 1_555 1_555
N1 H5 1_555 1_555
H6 N1 1_555 1_555
H7 N1 1_555 1_555
C4 C1 1_555 1_555
H8 C4 1_555 1_555
H9 C4 1_555 1_555
N2 H10 1_555 1_555
H11 N2 1_555 1_555
H12 N2 1_555 1_555
H13 N2 1_555 1_555
O16 H14 1_555 1_555
H15 O16 1_555 1_555
O17 H16 1_555 1_555
H17 O17 1_555 1_555
O18 H18 1_555 1_555
H19 O18 1_555 1_555
Mo2A O2 1_555 1_555
O2A Mo2 1_555 1_555
Mo3 O9 1_555 1_555
Mo3 O12 1_555 1_555
P1 O12 1_555 1_555
P1 O14 1_555 1_555
P2 O9 1_555 1_555
P2 C3 1_555 1_555
O10 C3 1_555 1_555
C2 C3 1_555 1_555
N1 C4 1_555 1_555
Mo2A O2A 1_555 1_555

#END
