
#######################################################################
#
#                 Cambridge Crystallographic Data Centre
#                                CCDC 
#
#######################################################################
#
# If this CIF has been generated from an entry in the Cambridge 
# Structural Database, then it will include bibliographic, chemical, 
# crystal, experimental, refinement or atomic coordinate data resulting 
# from the CCDC's data processing and validation procedures.
#
#######################################################################

data_LALKIT
_symmetry_cell_setting           triclinic
_symmetry_space_group_name_H-M   'P -1'
_symmetry_Int_Tables_number      2
_space_group_name_Hall           '-P 1'
loop_
_symmetry_equiv_pos_site_id
_symmetry_equiv_pos_as_xyz
1 x,y,z
2 -x,-y,-z
_cell_length_a                   6.6293(7)
_cell_length_b                   6.9794(7)
_cell_length_c                   10.359(1)
_cell_angle_alpha                75.259(2)
_cell_angle_beta                 71.010(2)
_cell_angle_gamma                75.764(2)
_cell_volume                     431.264
loop_
_atom_site_label
_atom_site_type_symbol
_atom_site_fract_x
_atom_site_fract_y
_atom_site_fract_z
Mn1 Mn 0.48056(6) 0.47012(6) 0.15815(4)
Mn2 Mn 0.5000 1.0000 0.0000
O1 O 0.5948(3) 0.6874(3) -0.03029(17)
O2 O 0.1524(3) 0.6590(3) 0.16102(18)
O3 O 0.1891(3) 0.9664(3) 0.16601(19)
O4 O -0.3180(3) 0.9129(3) 0.16139(18)
H1 H 0.729(2) 0.685(5) -0.046(4)
O5 O -0.4657(3) 0.6430(3) 0.28518(19)
O6 O 0.8132(4) 0.2956(4) 0.1184(3)
H2 H 0.827(7) 0.171(2) 0.156(3)
H3 H 0.843(7) 0.307(5) 0.0304(11)
N1 N -0.3163(3) 0.7039(3) 0.6299(2)
C1 C -0.3864(4) 0.7207(4) 0.5198(3)
H4 H -0.5270 0.7012 0.5360
C2 C -0.2626(4) 0.7654(4) 0.3825(2)
C3 C -0.3553(4) 0.7747(4) 0.2661(2)
C4 C -0.0515(4) 0.7940(4) 0.3587(3)
C5 C 0.1082(4) 0.8118(4) 0.2153(3)
C6 C 0.0204(4) 0.7809(4) 0.4726(3)
H5 H 0.1592 0.8026 0.4597
C7 C -0.1140(4) 0.7354(4) 0.6054(3)
H6 H -0.0626 0.7263 0.6807
Mn1A Mn 0.51944(6) 1.52988(6) -0.15815(4)
Mn1A_2 Mn 0.51944(6) 0.52988(6) -0.15815(4)
Mn1_2 Mn -0.51944(6) 0.47012(6) 0.15815(4)
Mn1A_3 Mn -0.48056(6) 0.52988(6) 0.84185(4)
Mn1_3 Mn 0.48056(6) 1.47012(6) 0.15815(4)
Mn1A_4 Mn 1.51944(6) 1.52988(6) -0.15815(4)
Mn1_4 Mn 1.48056(6) 1.47012(6) -0.84185(4)
Mn2_2 Mn -0.5000 1.0000 0.0000
Mn2_3 Mn 1.5000 1.0000 0.0000
O1A O 0.4052(3) 1.3126(3) 0.03029(17)
O1A_2 O 0.4052(3) 0.3126(3) 0.03029(17)
O1_2 O 0.5948(3) 1.6874(3) -0.03029(17)
O2A O 0.8476(3) 1.3410(3) -0.16102(18)
O3A O 0.8109(3) 1.0336(3) -0.16601(19)
O4A O 1.3180(3) 1.0871(3) -0.16139(18)
O4_2 O 0.6820(3) 0.9129(3) 0.16139(18)
O4A_2 O 0.3180(3) 1.0871(3) -0.16139(18)
H1A H 0.271(2) 1.315(5) 0.046(4)
H1A_2 H 0.271(2) 0.315(5) 0.046(4)
H1_2 H 0.729(2) 1.685(5) -0.046(4)
O5A O 1.4657(3) 1.3570(3) -0.28518(19)
O5_2 O 0.5343(3) 0.6430(3) 0.28518(19)
O5A_2 O 0.4657(3) 1.3570(3) -0.28518(19)
O6A O 0.1868(4) 1.7044(4) -0.1184(3)
H2A H 0.173(7) 1.829(2) -0.156(3)
H3A H 0.157(7) 1.693(5) -0.0304(11)
N1A N 1.3163(3) 1.2961(3) -0.6299(2)
N1A_2 N 0.3163(3) 0.2961(3) 0.3701(2)
N1_2 N 0.6837(3) 1.7039(3) -0.3701(2)
C1A C 1.3864(4) 1.2793(4) -0.5198(3)
H4A H 1.5270 1.2988 -0.5360
C2A C 1.2626(4) 1.2346(4) -0.3825(2)
C3A C 1.3553(4) 1.2253(4) -0.2661(2)
C4A C 1.0515(4) 1.2060(4) -0.3587(3)
C5A C 0.8918(4) 1.1882(4) -0.2153(3)
C6A C 0.9796(4) 1.2191(4) -0.4726(3)
H5A H 0.8408 1.1974 -0.4597
C7A C 1.1140(4) 1.2646(4) -0.6054(3)
H6A H 1.0626 1.2737 -0.6807
loop_
_geom_bond_atom_site_label_1
_geom_bond_atom_site_label_2
_geom_bond_site_symmetry_1
_geom_bond_site_symmetry_2
Mn1 O1 1_555 1_555
Mn2 O1 1_555 1_555
O1 H1 1_555 1_555
O2 Mn1 1_555 1_555
O3 Mn2 1_555 1_555
O4 C3 1_555 1_555
O5 C3 1_555 1_555
O6 Mn1 1_555 1_555
H2 O6 1_555 1_555
H3 O6 1_555 1_555
N1 C1 1_555 1_555
C1 H4 1_555 1_555
C2 C1 1_555 1_555
C3 C2 1_555 1_555
C4 C2 1_555 1_555
C5 O2 1_555 1_555
C6 C4 1_555 1_555
H5 C6 1_555 1_555
C7 N1 1_555 1_555
H6 C7 1_555 1_555
Mn1A O1A 1_555 1_555
Mn1A_2 O1 1_555 1_555
Mn1_2 O5 1_555 1_555
Mn1A_3 N1 1_555 1_555
Mn1_3 O1A 1_555 1_555
Mn1A_4 O5A 1_555 1_555
Mn1_4 N1A 1_555 1_555
Mn2_2 O4 1_555 1_555
Mn2_3 O4A 1_555 1_555
O1A Mn2 1_555 1_555
O1A_2 Mn1 1_555 1_555
O1_2 Mn1A 1_555 1_555
O2A Mn1A 1_555 1_555
O3A Mn2 1_555 1_555
O4A C3A 1_555 1_555
O4_2 Mn2 1_555 1_555
O4A_2 Mn2 1_555 1_555
H1A O1A 1_555 1_555
H1A_2 O1A_2 1_555 1_555
H1_2 O1_2 1_555 1_555
O5A C3A 1_555 1_555
O5_2 Mn1 1_555 1_555
O5A_2 Mn1A 1_555 1_555
O6A Mn1A 1_555 1_555
H2A O6A 1_555 1_555
H3A O6A 1_555 1_555
N1A C1A 1_555 1_555
N1A_2 Mn1 1_555 1_555
N1_2 Mn1A 1_555 1_555
C1A H4A 1_555 1_555
C2A C1A 1_555 1_555
C3A C2A 1_555 1_555
C4A C2A 1_555 1_555
C5A O2A 1_555 1_555
C6A C4A 1_555 1_555
H5A C6A 1_555 1_555
C7A N1A 1_555 1_555
H6A C7A 1_555 1_555
O3 C5 1_555 1_555
C4 C5 1_555 1_555
C6 C7 1_555 1_555
Mn1A_2 O1A_2 1_555 1_555
Mn1_3 O1_2 1_555 1_555
O3A C5A 1_555 1_555
C4A C5A 1_555 1_555
C6A C7A 1_555 1_555

#END
