
#######################################################################
#
#                 Cambridge Crystallographic Data Centre
#                                CCDC 
#
#######################################################################
#
# If this CIF has been generated from an entry in the Cambridge 
# Structural Database, then it will include bibliographic, chemical, 
# crystal, experimental, refinement or atomic coordinate data resulting 
# from the CCDC's data processing and validation procedures.
#
#######################################################################

data_LALKOY
_symmetry_cell_setting           triclinic
_symmetry_space_group_name_H-M   'P -1'
_symmetry_Int_Tables_number      2
_space_group_name_Hall           '-P 1'
loop_
_symmetry_equiv_pos_site_id
_symmetry_equiv_pos_as_xyz
1 x,y,z
2 -x,-y,-z
_cell_length_a                   11.302(2)
_cell_length_b                   11.814(1)
_cell_length_c                   10.457(1)
_cell_angle_alpha                97.09(2)
_cell_angle_beta                 109.44(2)
_cell_angle_gamma                77.89(1)
_cell_volume                     1285.16
loop_
_atom_site_label
_atom_site_type_symbol
_atom_site_fract_x
_atom_site_fract_y
_atom_site_fract_z
Ag1 Ag 0.0000 0.0000 0.0000
Ag2 Ag 0.0000 0.5000 0.0000
Ag3 Ag 0.04343(3) 0.24111(3) -0.02406(4)
Cu1 Cu -0.19742(4) 0.29480(4) 0.32173(3)
N1 N -0.3660(3) 0.3399(3) 0.1779(3)
N2 N -0.2752(3) 0.4336(2) 0.4238(3)
N3 N -0.0401(3) 0.2506(2) 0.4834(3)
N4 N -0.2504(3) 0.1570(3) 0.4102(3)
N5 N -0.1249(3) 0.1788(3) 0.1984(3)
N6 N -0.0908(4) 0.4430(3) 0.2408(4)
N7 N 0.3243(5) 0.1569(6) 0.1750(7)
N8 N -0.2417(4) 0.2872(4) -0.2273(5)
C1 C -0.4467(3) 0.4287(3) 0.2147(4)
C2 C -0.5713(4) 0.4610(4) 0.1316(4)
C3 C -0.6120(4) 0.4022(4) 0.0064(5)
C4 C -0.5286(4) 0.3132(4) -0.0310(5)
C5 C -0.4053(4) 0.2844(4) 0.0577(4)
C6 C -0.3924(3) 0.4864(3) 0.3506(4)
C7 C -0.4560(4) 0.5871(3) 0.4005(5)
C8 C -0.3971(4) 0.6324(4) 0.5297(5)
C9 C -0.2795(4) 0.5770(4) 0.6048(5)
C10 C -0.2213(4) 0.4773(3) 0.5483(4)
C11 C -0.0392(3) 0.1652(3) 0.5602(3)
C12 C 0.0672(4) 0.1297(3) 0.6687(4)
C13 C 0.1732(4) 0.1826(4) 0.7012(4)
C14 C 0.1707(4) 0.2693(4) 0.6243(4)
C15 C 0.0631(4) 0.3003(3) 0.5158(4)
C16 C -0.1569(3) 0.1144(3) 0.5202(4)
C17 C -0.1702(4) 0.0301(3) 0.5921(4)
C18 C -0.2844(5) -0.0140(4) 0.5462(5)
C19 C -0.3787(4) 0.0270(4) 0.4330(5)
C20 C -0.3585(4) 0.1135(4) 0.3679(4)
C21 C -0.0824(4) 0.1126(3) 0.1289(4)
C22 C -0.0568(4) 0.4662(3) 0.1591(4)
C23 C 0.2279(5) 0.1900(4) 0.1030(6)
C24 C -0.1413(5) 0.2730(4) -0.1584(5)
H1 H -0.6353 0.5313 0.1635
H2 H -0.7081 0.4263 -0.0609
H3 H -0.5584 0.2660 -0.1280
H4 H -0.3399 0.2140 0.0280
H5 H -0.5491 0.6290 0.3401
H6 H -0.4437 0.7107 0.5708
H7 H -0.2330 0.6105 0.7060
H8 H -0.1287 0.4339 0.6078
H9 H 0.0681 0.0608 0.7282
H10 H 0.2565 0.1557 0.7862
H11 H 0.2513 0.3125 0.6481
H12 H 0.0620 0.3676 0.4541
H13 H -0.0944 -0.0013 0.6817
H14 H -0.2974 -0.0802 0.6003
H15 H -0.4665 -0.0067 0.3949
H16 H -0.4335 0.1469 0.2789
N5A N 0.1249(3) -0.1788(3) -0.1984(3)
C21A C 0.0824(4) -0.1126(3) -0.1289(4)
Ag3A Ag -0.04343(3) -0.24111(3) 0.02406(4)
Cu1A Cu 0.19742(4) -0.29480(4) -0.32173(3)
N7A N -0.3243(5) -0.1569(6) -0.1750(7)
C23A C -0.2279(5) -0.1900(4) -0.1030(6)
N8A N 0.2417(4) -0.2872(4) 0.2273(5)
C24A C 0.1413(5) -0.2730(4) 0.1584(5)
N1A N 0.3660(3) -0.3399(3) -0.1779(3)
N2A N 0.2752(3) -0.4336(2) -0.4238(3)
C1A C 0.4467(3) -0.4287(3) -0.2147(4)
C2A C 0.5713(4) -0.4610(4) -0.1316(4)
C3A C 0.6120(4) -0.4022(4) -0.0064(5)
C4A C 0.5286(4) -0.3132(4) 0.0310(5)
C5A C 0.4053(4) -0.2844(4) -0.0577(4)
C6A C 0.3924(3) -0.4864(3) -0.3506(4)
C7A C 0.4560(4) -0.5871(3) -0.4005(5)
C8A C 0.3971(4) -0.6324(4) -0.5297(5)
C9A C 0.2795(4) -0.5770(4) -0.6048(5)
C10A C 0.2213(4) -0.4773(3) -0.5483(4)
H1A H 0.6353 -0.5313 -0.1635
H2A H 0.7081 -0.4263 0.0609
H3A H 0.5584 -0.2660 0.1280
H4A H 0.3399 -0.2140 -0.0280
H5A H 0.5491 -0.6290 -0.3401
H6A H 0.4437 -0.7107 -0.5708
H7A H 0.2330 -0.6105 -0.7060
H8A H 0.1287 -0.4339 -0.6078
N3A N 0.0401(3) -0.2506(2) -0.4834(3)
N4A N 0.2504(3) -0.1570(3) -0.4102(3)
C11A C 0.0392(3) -0.1652(3) -0.5602(3)
C12A C -0.0672(4) -0.1297(3) -0.6687(4)
C13A C -0.1732(4) -0.1826(4) -0.7012(4)
C14A C -0.1707(4) -0.2693(4) -0.6243(4)
C15A C -0.0631(4) -0.3003(3) -0.5158(4)
C16A C 0.1569(3) -0.1144(3) -0.5202(4)
C17A C 0.1702(4) -0.0301(3) -0.5921(4)
C18A C 0.2844(5) 0.0140(4) -0.5462(5)
C19A C 0.3787(4) -0.0270(4) -0.4330(5)
C20A C 0.3585(4) -0.1135(4) -0.3679(4)
H9A H -0.0681 -0.0608 -0.7282
H10A H -0.2565 -0.1557 -0.7862
H11A H -0.2513 -0.3125 -0.6481
H12A H -0.0620 -0.3676 -0.4541
H13A H 0.0944 0.0013 -0.6817
H14A H 0.2974 0.0802 -0.6003
H15A H 0.4665 0.0067 -0.3949
H16A H 0.4335 -0.1469 -0.2789
N6A N 0.0908(4) -0.4430(3) -0.2408(4)
C22A C 0.0568(4) -0.4662(3) -0.1591(4)
Ag3A_2 Ag -0.04343(3) 0.75889(3) 0.02406(4)
C22A_2 C 0.0568(4) 0.5338(3) -0.1591(4)
Ag2_2 Ag 0.0000 -0.5000 0.0000
O1 O 0.5945(7) 0.1102(6) 0.7927(8)
loop_
_geom_bond_atom_site_label_1
_geom_bond_atom_site_label_2
_geom_bond_site_symmetry_1
_geom_bond_site_symmetry_2
Ag1 Ag3 1_555 1_555
Ag2 Ag3 1_555 1_555
Ag3 C23 1_555 1_555
Cu1 N1 1_555 1_555
N1 C1 1_555 1_555
N2 Cu1 1_555 1_555
N3 Cu1 1_555 1_555
N4 Cu1 1_555 1_555
N5 Cu1 1_555 1_555
N6 Cu1 1_555 1_555
N7 C23 1_555 1_555
N8 C24 1_555 1_555
C1 C2 1_555 1_555
C2 C3 1_555 1_555
C3 C4 1_555 1_555
C4 C5 1_555 1_555
C5 N1 1_555 1_555
C6 N2 1_555 1_555
C7 C6 1_555 1_555
C8 C7 1_555 1_555
C9 C8 1_555 1_555
C10 N2 1_555 1_555
C11 N3 1_555 1_555
C12 C11 1_555 1_555
C13 C12 1_555 1_555
C14 C13 1_555 1_555
C15 N3 1_555 1_555
C16 N4 1_555 1_555
C17 C16 1_555 1_555
C18 C17 1_555 1_555
C19 C18 1_555 1_555
C20 N4 1_555 1_555
C21 Ag1 1_555 1_555
C22 Ag2 1_555 1_555
C24 Ag3 1_555 1_555
H1 C2 1_555 1_555
H2 C3 1_555 1_555
H3 C4 1_555 1_555
H4 C5 1_555 1_555
H5 C7 1_555 1_555
H6 C8 1_555 1_555
H7 C9 1_555 1_555
H8 C10 1_555 1_555
H9 C12 1_555 1_555
H10 C13 1_555 1_555
H11 C14 1_555 1_555
H12 C15 1_555 1_555
H13 C17 1_555 1_555
H14 C18 1_555 1_555
H15 C19 1_555 1_555
H16 C20 1_555 1_555
N5A C21A 1_555 1_555
C21A Ag1 1_555 1_555
Ag3A Ag1 1_555 1_555
Cu1A N5A 1_555 1_555
N7A C23A 1_555 1_555
C23A Ag3A 1_555 1_555
N8A C24A 1_555 1_555
C24A Ag3A 1_555 1_555
N1A Cu1A 1_555 1_555
N2A Cu1A 1_555 1_555
C1A N1A 1_555 1_555
C2A C1A 1_555 1_555
C3A C2A 1_555 1_555
C4A C3A 1_555 1_555
C5A N1A 1_555 1_555
C6A N2A 1_555 1_555
C7A C6A 1_555 1_555
C8A C7A 1_555 1_555
C9A C8A 1_555 1_555
C10A N2A 1_555 1_555
H1A C2A 1_555 1_555
H2A C3A 1_555 1_555
H3A C4A 1_555 1_555
H4A C5A 1_555 1_555
H5A C7A 1_555 1_555
H6A C8A 1_555 1_555
H7A C9A 1_555 1_555
H8A C10A 1_555 1_555
N3A Cu1A 1_555 1_555
N4A Cu1A 1_555 1_555
C11A N3A 1_555 1_555
C12A C11A 1_555 1_555
C13A C12A 1_555 1_555
C14A C13A 1_555 1_555
C15A N3A 1_555 1_555
C16A N4A 1_555 1_555
C17A C16A 1_555 1_555
C18A C17A 1_555 1_555
C19A C18A 1_555 1_555
C20A N4A 1_555 1_555
H9A C12A 1_555 1_555
H10A C13A 1_555 1_555
H11A C14A 1_555 1_555
H12A C15A 1_555 1_555
H13A C17A 1_555 1_555
H14A C18A 1_555 1_555
H15A C19A 1_555 1_555
H16A C20A 1_555 1_555
N6A Cu1A 1_555 1_555
C22A N6A 1_555 1_555
Ag3A_2 Ag2 1_555 1_555
C22A_2 Ag2 1_555 1_555
Ag2_2 Ag3A 1_555 1_555
N5 C21 1_555 1_555
N6 C22 1_555 1_555
C1 C6 1_555 1_555
C9 C10 1_555 1_555
C11 C16 1_555 1_555
C14 C15 1_555 1_555
C19 C20 1_555 1_555
C1A C6A 1_555 1_555
C4A C5A 1_555 1_555
C9A C10A 1_555 1_555
C11A C16A 1_555 1_555
C14A C15A 1_555 1_555
C19A C20A 1_555 1_555
C22A Ag2_2 1_555 1_555

#END
