
#######################################################################
#
#                 Cambridge Crystallographic Data Centre
#                                CCDC 
#
#######################################################################
#
# If this CIF has been generated from an entry in the Cambridge 
# Structural Database, then it will include bibliographic, chemical, 
# crystal, experimental, refinement or atomic coordinate data resulting 
# from the CCDC's data processing and validation procedures.
#
#######################################################################

data_LALKEP
_symmetry_cell_setting           orthorhombic
_symmetry_space_group_name_H-M   'P c a 21'
_symmetry_Int_Tables_number      29
_space_group_name_Hall           'P 2c -2ac'
loop_
_symmetry_equiv_pos_site_id
_symmetry_equiv_pos_as_xyz
1 x,y,z
2 -x,-y,1/2+z
3 1/2+x,-y,z
4 1/2-x,y,1/2+z
_cell_length_a                   14.737(3)
_cell_length_b                   6.0261(15)
_cell_length_c                   7.2614(17)
_cell_angle_alpha                90
_cell_angle_beta                 90
_cell_angle_gamma                90
_cell_volume                     644.861
loop_
_atom_site_label
_atom_site_type_symbol
_atom_site_fract_x
_atom_site_fract_y
_atom_site_fract_z
Mn1 Mn 0.54085(4) 0.08224(9) 0.14088(12)
O1 O 0.4229(2) -0.1175(5) 0.0977(4)
O2 O 0.4704(2) -0.2225(5) 0.3707(5)
O3 O 0.4483(2) -0.6946(5) 0.2725(5)
O4 O 0.3732(2) -0.8329(5) 0.5177(5)
N1 N 0.1597(3) -0.2722(5) 0.2453(5)
C1 C 0.2460(3) -0.2042(6) 0.2243(6)
H1 H 0.2557 -0.0646 0.1733
C2 C 0.3209(3) -0.3274(6) 0.2733(6)
C3 C 0.3078(3) -0.5389(7) 0.3491(6)
C4 C 0.2184(3) -0.6069(7) 0.3785(7)
H2 H 0.2067 -0.7429 0.4341
C5 C 0.1482(3) -0.4733(7) 0.3255(6)
H3 H 0.0893 -0.5231 0.3456
C6 C 0.4115(3) -0.2199(6) 0.2440(6)
C7 C 0.3834(3) -0.7008(6) 0.3848(6)
Mn1A Mn 0.45915(4) -0.08224(9) 0.64088(12)
Mn1_2 Mn 0.54085(4) -0.91776(9) 0.14088(12)
Mn1A_2 Mn 0.45915(4) -1.08224(9) 0.64088(12)
Mn1B Mn 0.04085(4) -0.08224(9) 0.14088(12)
O2A O 0.5296(2) 0.2225(5) -0.1293(5)
O3_2 O 0.4483(2) 0.3054(5) 0.2725(5)
O4A O 0.6268(2) -0.1671(5) 0.0177(5)
N1B N 0.6597(3) 0.2722(5) 0.2453(5)
loop_
_geom_bond_atom_site_label_1
_geom_bond_atom_site_label_2
_geom_bond_site_symmetry_1
_geom_bond_site_symmetry_2
Mn1 O1 1_555 1_555
O1 C6 1_555 1_555
O2 C6 1_555 1_555
O3 C7 1_555 1_555
O4 C7 1_555 1_555
N1 C1 1_555 1_555
C1 H1 1_555 1_555
C2 C1 1_555 1_555
C3 C2 1_555 1_555
C4 C3 1_555 1_555
H2 C4 1_555 1_555
C5 N1 1_555 1_555
H3 C5 1_555 1_555
C6 C2 1_555 1_555
C7 C3 1_555 1_555
Mn1A O2 1_555 1_555
Mn1_2 O3 1_555 1_555
Mn1A_2 O4 1_555 1_555
Mn1B N1 1_555 1_555
O2A Mn1 1_555 1_555
O3_2 Mn1 1_555 1_555
O4A Mn1 1_555 1_555
N1B Mn1 1_555 1_555
C4 C5 1_555 1_555

#END
