
#######################################################################
#
#                 Cambridge Crystallographic Data Centre
#                                CCDC 
#
#######################################################################
#
# If this CIF has been generated from an entry in the Cambridge 
# Structural Database, then it will include bibliographic, chemical, 
# crystal, experimental, refinement or atomic coordinate data resulting 
# from the CCDC's data processing and validation procedures.
#
#######################################################################

data_LALQEW
_symmetry_cell_setting           triclinic
_symmetry_space_group_name_H-M   'P -1'
_symmetry_Int_Tables_number      2
_space_group_name_Hall           '-P 1'
loop_
_symmetry_equiv_pos_site_id
_symmetry_equiv_pos_as_xyz
1 x,y,z
2 -x,-y,-z
_cell_length_a                   8.9091(16)
_cell_length_b                   8.9371(16)
_cell_length_c                   13.919(3)
_cell_angle_alpha                79.182(3)
_cell_angle_beta                 86.401(3)
_cell_angle_gamma                72.915(3)
_cell_volume                     1040.48
loop_
_atom_site_label
_atom_site_type_symbol
_atom_site_fract_x
_atom_site_fract_y
_atom_site_fract_z
Cd1 Cd 0.49744(12) 0.54561(11) 0.13629(7)
Br1 Br 0.30489(16) 0.46865(16) 0.02208(10)
Br2 Br 0.64860(17) 0.29599(15) 0.25628(10)
O1 O 0.2540(11) 0.6075(11) 0.2221(7)
N1 N -0.4254(13) 1.0001(13) -0.2370(8)
H2 H -0.3641 0.9047 -0.2421
N2 N -0.5214(13) 1.2284(12) -0.1820(8)
N3 N -0.0037(13) 0.8216(13) 0.1539(9)
C1 C -0.4227(17) 1.0812(17) -0.1636(11)
C2 C -0.1112(16) 0.8909(16) 0.0752(10)
C3 C -0.1795(16) 0.8891(15) -0.0876(10)
H3 H -0.1564 0.8459 -0.1460
C4 C -0.6030(16) 1.2374(16) -0.2661(10)
C5 C 0.1043(16) 0.8062(17) 0.3110(10)
C6 C -0.3380(16) 1.0854(14) 0.0023(10)
H4 H -0.4228 1.1785 0.0048
C7 C -0.2426(16) 1.0182(15) 0.0822(10)
H5 H -0.2665 1.0587 0.1415
C8 C 0.1961(19) 0.812(2) 0.4703(11)
H6 H 0.1850 0.8594 0.5269
C9 C -0.7207(17) 1.3593(16) -0.3187(10)
H7 H -0.7665 1.4571 -0.2965
C10 C -0.0816(16) 0.8235(16) -0.0082(10)
H8 H 0.0057 0.7325 -0.0109
C11 C -0.5905(18) 1.0644(17) -0.3881(11)
H9 H -0.5484 0.9663 -0.4106
C12 C -0.3124(15) 1.0186(15) -0.0831(10)
C13 C 0.2359(15) 0.6702(15) 0.3008(9)
C14 C -0.7033(19) 1.1852(18) -0.4380(10)
H10 H -0.7401 1.1709 -0.4973
C15 C 0.0899(19) 0.874(2) 0.3964(11)
H11 H 0.0041 0.9646 0.4025
C16 C -0.5385(16) 1.0917(16) -0.3007(10)
C17 C 0.3400(19) 0.6117(18) 0.3796(10)
H12 H 0.4280 0.5218 0.3761
C18 C 0.3184(18) 0.6808(17) 0.4618(11)
H13 H 0.3908 0.6360 0.5141
C19 C -0.0074(18) 0.8750(18) 0.2374(11)
H14 H -0.0910 0.9653 0.2475
C20 C -0.7682(18) 1.3303(17) -0.4061(11)
H15 H -0.8464 1.4114 -0.4446
Cd1A Cd 0.50256(12) 0.45439(11) -0.13629(7)
Cd1A_2 Cd -0.49744(12) 1.45439(11) -0.13629(7)
Br1A Br 0.69511(16) 0.53135(16) -0.02208(10)
N2A N 0.5214(13) 0.7716(12) 0.1820(8)
O2 O 0.2431(11) 0.2870(12) 0.2845(8)
H1 H 0.2689 0.3657 0.2529
C21 C 0.0798(19) 0.331(2) 0.3018(13)
H16 H 0.0550 0.3945 0.3539
H17 H 0.0453 0.2350 0.3215
H18 H 0.0255 0.3937 0.2418
O3 O 0.4700(19) 0.877(3) -0.1347(19)
loop_
_geom_bond_atom_site_label_1
_geom_bond_atom_site_label_2
_geom_bond_site_symmetry_1
_geom_bond_site_symmetry_2
Cd1 Br1 1_555 1_555
Br1 Cd1A 1_555 1_555
Br2 Cd1 1_555 1_555
O1 Cd1 1_555 1_555
O2 H1 1_555 1_555
N1 H2 1_555 1_555
N2 C1 1_555 1_555
N3 C2 1_555 1_555
C1 N1 1_555 1_555
C2 C7 1_555 1_555
C3 H3 1_555 1_555
C4 N2 1_555 1_555
C5 C13 1_555 1_555
C6 H4 1_555 1_555
C7 C6 1_555 1_555
H5 C7 1_555 1_555
C8 H6 1_555 1_555
C9 C4 1_555 1_555
H7 C9 1_555 1_555
C10 C2 1_555 1_555
H8 C10 1_555 1_555
C11 H9 1_555 1_555
C12 C1 1_555 1_555
C13 O1 1_555 1_555
C14 C11 1_555 1_555
H10 C14 1_555 1_555
C15 C5 1_555 1_555
H11 C15 1_555 1_555
C16 N1 1_555 1_555
C17 C13 1_555 1_555
H12 C17 1_555 1_555
C18 C8 1_555 1_555
H13 C18 1_555 1_555
C19 N3 1_555 1_555
H14 C19 1_555 1_555
C20 C9 1_555 1_555
H15 C20 1_555 1_555
C21 O2 1_555 1_555
H16 C21 1_555 1_555
H17 C21 1_555 1_555
H18 C21 1_555 1_555
Cd1A Br1A 1_555 1_555
Cd1A_2 N2 1_555 1_555
Br1A Cd1 1_555 1_555
N2A Cd1 1_555 1_555
C3 C10 1_555 1_555
C3 C12 1_555 1_555
C4 C16 1_555 1_555
C5 C19 1_555 1_555
C6 C12 1_555 1_555
C8 C15 1_555 1_555
C11 C16 1_555 1_555
C14 C20 1_555 1_555
C17 C18 1_555 1_555

#END
