
#######################################################################
#
#                 Cambridge Crystallographic Data Centre
#                                CCDC 
#
#######################################################################
#
# If this CIF has been generated from an entry in the Cambridge 
# Structural Database, then it will include bibliographic, chemical, 
# crystal, experimental, refinement or atomic coordinate data resulting 
# from the CCDC's data processing and validation procedures.
#
#######################################################################

data_LALTIC
_symmetry_cell_setting           orthorhombic
_symmetry_space_group_name_H-M   'F d d 2'
_symmetry_Int_Tables_number      43
_space_group_name_Hall           'F 2 -2d'
loop_
_symmetry_equiv_pos_site_id
_symmetry_equiv_pos_as_xyz
1 x,y,z
2 -x,-y,z
3 1/4+x,1/4-y,1/4+z
4 1/4-x,1/4+y,1/4+z
5 x,1/2+y,1/2+z
6 -x,1/2-y,1/2+z
7 1/4+x,3/4-y,3/4+z
8 1/4-x,3/4+y,3/4+z
9 1/2+x,y,1/2+z
10 1/2-x,-y,1/2+z
11 3/4+x,1/4-y,3/4+z
12 3/4-x,1/4+y,3/4+z
13 1/2+x,1/2+y,z
14 1/2-x,1/2-y,z
15 3/4+x,3/4-y,1/4+z
16 3/4-x,3/4+y,1/4+z
_cell_length_a                   14.757(7)
_cell_length_b                   45.38(2)
_cell_length_c                   10.518(5)
_cell_angle_alpha                90
_cell_angle_beta                 90
_cell_angle_gamma                90
_cell_volume                     7043.62
loop_
_atom_site_label
_atom_site_type_symbol
_atom_site_fract_x
_atom_site_fract_y
_atom_site_fract_z
Cd1 Cd 0.05291(5) 0.052222(14) 0.65888(8)
S1 S 0.03275(15) 0.04150(5) 0.1613(4)
C1 C 0.0789(7) 0.0315(2) 0.4128(15)
C2 C 0.0756(7) 0.0332(2) -0.0969(16)
C3 C 0.0952(8) 0.0259(2) 0.0407(11)
C4 C 0.1675(8) 0.0092(2) 0.0895(10)
H1 H 0.2108 -0.0007 0.0368
C5 C 0.1687(8) 0.0088(3) 0.2267(13)
H2 H 0.2126 -0.0019 0.2759
C6 C 0.1013(8) 0.0250(3) 0.2763(11)
C7 C 0.2645(9) 0.0703(3) 0.5791(16)
H3 H 0.2705 0.0492 0.5782
C8 C 0.3391(9) 0.0872(3) 0.5432(14)
H4 H 0.3939 0.0781 0.5135
C9 C 0.3301(11) 0.1185(3) 0.5510(16)
H5 H 0.3801 0.1312 0.5313
C10 C 0.2505(9) 0.1300(3) 0.5891(12)
H6 H 0.2433 0.1510 0.5939
C11 C 0.1752(8) 0.1119(2) 0.6207(11)
C12 C 0.0857(7) 0.1233(2) 0.6621(14)
C13 C 0.0720(8) 0.1531(2) 0.6820(15)
H7 H 0.1214 0.1666 0.6718
C14 C -0.0149(10) 0.1629(3) 0.7186(16)
H8 H -0.0264 0.1835 0.7305
C15 C -0.0818(11) 0.1432(4) 0.7348(16)
H9 H -0.1410 0.1495 0.7610
C16 C -0.0641(10) 0.1129(3) 0.7144(13)
H10 H -0.1119 0.0988 0.7256
N1 N 0.1845(6) 0.08163(18) 0.6172(9)
N2 N 0.0185(6) 0.10319(18) 0.6796(8)
O1 O -0.0950(5) 0.03226(15) 0.6594(10)
H11 H -0.1007 0.0170 0.6131
H12 H -0.0963 0.0198 0.7198
O2 O 0.1226(7) 0.01774(18) 0.4997(7)
O3 O 0.0205(8) 0.05102(17) 0.4379(8)
O4 O 0.1206(6) 0.02116(19) -0.1856(8)
O5 O 0.0161(7) 0.05302(17) -0.1145(7)
Cd1_2 Cd 0.05291(5) 0.052222(14) -0.34112(8)
O4_2 O 0.1206(6) 0.02116(19) 0.8144(8)
O5_2 O 0.0161(7) 0.05302(17) 0.8855(7)
loop_
_geom_bond_atom_site_label_1
_geom_bond_atom_site_label_2
_geom_bond_site_symmetry_1
_geom_bond_site_symmetry_2
Cd1 N1 1_555 1_555
S1 C3 1_555 1_555
C1 C6 1_555 1_555
C2 C3 1_555 1_555
C3 C4 1_555 1_555
C4 H1 1_555 1_555
C5 C4 1_555 1_555
H2 C5 1_555 1_555
C6 S1 1_555 1_555
C7 H3 1_555 1_555
C8 C7 1_555 1_555
H4 C8 1_555 1_555
C9 C8 1_555 1_555
H5 C9 1_555 1_555
C10 C9 1_555 1_555
H6 C10 1_555 1_555
C11 C10 1_555 1_555
C12 C11 1_555 1_555
C13 C12 1_555 1_555
H7 C13 1_555 1_555
C14 C13 1_555 1_555
H8 C14 1_555 1_555
C15 C14 1_555 1_555
H9 C15 1_555 1_555
C16 C15 1_555 1_555
H10 C16 1_555 1_555
N1 C7 1_555 1_555
N2 Cd1 1_555 1_555
O1 Cd1 1_555 1_555
H11 O1 1_555 1_555
H12 O1 1_555 1_555
O2 Cd1 1_555 1_555
O3 Cd1 1_555 1_555
O4 C2 1_555 1_555
O5 C2 1_555 1_555
Cd1_2 O4 1_555 1_555
O4_2 Cd1 1_555 1_555
O5_2 Cd1 1_555 1_555
C1 O2 1_555 1_555
C1 O3 1_555 1_555
C5 C6 1_555 1_555
C11 N1 1_555 1_555
C12 N2 1_555 1_555
C16 N2 1_555 1_555
O5 Cd1_2 1_555 1_555

#END
