
#######################################################################
#
#                 Cambridge Crystallographic Data Centre
#                                CCDC 
#
#######################################################################
#
# If this CIF has been generated from an entry in the Cambridge 
# Structural Database, then it will include bibliographic, chemical, 
# crystal, experimental, refinement or atomic coordinate data resulting 
# from the CCDC's data processing and validation procedures.
#
#######################################################################

data_LALTEY
_symmetry_cell_setting           monoclinic
_symmetry_space_group_name_H-M   'P 21/c'
_symmetry_Int_Tables_number      14
_space_group_name_Hall           '-P 2ybc'
loop_
_symmetry_equiv_pos_site_id
_symmetry_equiv_pos_as_xyz
1 x,y,z
2 -x,1/2+y,1/2-z
3 -x,-y,-z
4 x,1/2-y,1/2+z
_cell_length_a                   7.2615(6)
_cell_length_b                   21.9698(17)
_cell_length_c                   10.0513(8)
_cell_angle_alpha                90
_cell_angle_beta                 105.0110(10)
_cell_angle_gamma                90
_cell_volume                     1548.8
loop_
_atom_site_label
_atom_site_type_symbol
_atom_site_fract_x
_atom_site_fract_y
_atom_site_fract_z
Cd1 Cd 0.19101(3) 0.441624(9) 0.03190(2)
S1 S 0.72759(10) 0.42054(3) 0.51618(7)
N1 N 0.3431(3) 0.36086(11) -0.0441(2)
N2 N 0.0572(3) 0.35533(11) 0.0923(2)
O1 O 0.4622(3) 0.39665(10) 0.2524(2)
O2 O 0.4357(3) 0.49087(9) 0.1685(2)
O3 O 0.9621(4) 0.40368(10) 0.7962(2)
O4 O 1.0195(3) 0.50036(9) 0.8547(2)
C1 C 0.4801(5) 0.36282(15) -0.1089(3)
H1 H 0.5254 0.4006 -0.1279
C2 C 0.5591(6) 0.31043(17) -0.1498(4)
H2 H 0.6544 0.3135 -0.1959
C3 C 0.4960(5) 0.25505(16) -0.1218(4)
H3 H 0.5466 0.2198 -0.1495
C4 C 0.3546(4) 0.25121(13) -0.0510(3)
C5 C 0.2803(4) 0.30568(12) -0.0139(3)
C6 C 0.1313(4) 0.30290(12) 0.0583(3)
C7 C 0.0707(4) 0.24560(14) 0.0918(3)
C8 C -0.0717(5) 0.24428(16) 0.1640(4)
H4 H -0.1146 0.2074 0.1900
C9 C -0.1456(6) 0.29748(18) 0.1951(4)
H5 H -0.2415 0.2972 0.2411
C10 C -0.0782(5) 0.35221(16) 0.1583(4)
H6 H -0.1303 0.3882 0.1809
C11 C 0.2862(5) 0.19397(14) -0.0160(4)
H7 H 0.3360 0.1581 -0.0413
C12 C 0.1506(5) 0.19146(14) 0.0531(4)
H8 H 0.1086 0.1538 0.0759
C13 C 0.5062(4) 0.45112(13) 0.2596(3)
C14 C 0.6441(4) 0.47267(12) 0.3875(3)
C15 C 0.7048(4) 0.52984(13) 0.4281(3)
H9 H 0.6747 0.5639 0.3717
C16 C 0.8185(4) 0.53205(13) 0.5652(3)
H10 H 0.8716 0.5676 0.6088
C17 C 0.8419(4) 0.47624(12) 0.6265(3)
C18 C 0.9469(4) 0.45824(14) 0.7673(3)
Cd1_2 Cd 1.19101(3) 0.441624(9) 1.03190(2)
Cd1B Cd 0.80899(3) 0.558376(9) 0.96810(2)
O4_2 O 0.0195(3) 0.50036(9) -0.1453(2)
O4B O -0.0195(3) 0.49964(9) 0.1453(2)
loop_
_geom_bond_atom_site_label_1
_geom_bond_atom_site_label_2
_geom_bond_site_symmetry_1
_geom_bond_site_symmetry_2
Cd1 N1 1_555 1_555
S1 C14 1_555 1_555
N1 C1 1_555 1_555
N2 Cd1 1_555 1_555
O1 C13 1_555 1_555
O2 Cd1 1_555 1_555
O3 C18 1_555 1_555
O4 C18 1_555 1_555
C1 H1 1_555 1_555
C2 C1 1_555 1_555
H2 C2 1_555 1_555
C3 C2 1_555 1_555
H3 C3 1_555 1_555
C4 C3 1_555 1_555
C5 N1 1_555 1_555
C6 N2 1_555 1_555
C7 C6 1_555 1_555
C8 C7 1_555 1_555
H4 C8 1_555 1_555
C9 C8 1_555 1_555
H5 C9 1_555 1_555
C10 N2 1_555 1_555
H6 C10 1_555 1_555
C11 C4 1_555 1_555
H7 C11 1_555 1_555
C12 C7 1_555 1_555
H8 C12 1_555 1_555
C13 O2 1_555 1_555
C14 C13 1_555 1_555
C15 C14 1_555 1_555
H9 C15 1_555 1_555
C16 C15 1_555 1_555
H10 C16 1_555 1_555
C17 S1 1_555 1_555
C18 C17 1_555 1_555
Cd1_2 O4 1_555 1_555
Cd1B O4 1_555 1_555
O4_2 Cd1 1_555 1_555
O4B Cd1 1_555 1_555
C4 C5 1_555 1_555
C5 C6 1_555 1_555
C9 C10 1_555 1_555
C11 C12 1_555 1_555
C16 C17 1_555 1_555

#END
