
#######################################################################
#
#                 Cambridge Crystallographic Data Centre
#                                CCDC 
#
#######################################################################
#
# If this CIF has been generated from an entry in the Cambridge 
# Structural Database, then it will include bibliographic, chemical, 
# crystal, experimental, refinement or atomic coordinate data resulting 
# from the CCDC's data processing and validation procedures.
#
#######################################################################

data_LALWUR
_symmetry_cell_setting           monoclinic
_symmetry_space_group_name_H-M   'C 2/c'
_symmetry_Int_Tables_number      15
_space_group_name_Hall           '-C 2yn'
loop_
_symmetry_equiv_pos_site_id
_symmetry_equiv_pos_as_xyz
1 x,y,z
2 1/2+x,1/2+y,z
3 -x,y,1/2-z
4 1/2-x,1/2+y,1/2-z
5 -x,-y,-z
6 1/2-x,1/2-y,-z
7 x,-y,1/2+z
8 1/2+x,1/2-y,1/2+z
_cell_length_a                   13.8280(10)
_cell_length_b                   15.044(2)
_cell_length_c                   10.7020(10)
_cell_angle_alpha                90
_cell_angle_beta                 91.360(10)
_cell_angle_gamma                90
_cell_volume                     2225.69
loop_
_atom_site_label
_atom_site_type_symbol
_atom_site_fract_x
_atom_site_fract_y
_atom_site_fract_z
Cu1 Cu 0.0000 0.13787(6) 0.2500
Cu2 Cu 0.0000 0.0000 0.5000
Cl1 Cl 0.0000 -0.02222(13) 0.2500
Cl2 Cl 0.0000 0.28936(14) 0.2500
Cl3 Cl -0.08839(10) 0.12187(9) 0.47321(13)
N1 N 0.1299(3) 0.0803(3) 0.4520(4)
N2 N 0.2191(3) 0.0885(3) 0.5021(4)
C1 C 0.2725(4) 0.1461(4) 0.4341(5)
C2 C 0.3664(4) 0.1784(4) 0.4494(6)
H1 H 0.4068 0.1606 0.5155
C3 C 0.3954(4) 0.2371(5) 0.3622(6)
H2 H 0.4572 0.2610 0.3696
C4 C 0.3362(5) 0.2630(4) 0.2621(6)
H3 H 0.3606 0.3025 0.2038
C5 C 0.2430(4) 0.2326(4) 0.2458(6)
H4 H 0.2035 0.2507 0.1790
C6 C 0.2112(4) 0.1726(4) 0.3362(5)
N3 N 0.1238(3) 0.1309(3) 0.3514(4)
C7 C 0.2507(5) 0.0394(4) 0.6149(6)
H5 H 0.1948 0.0132 0.6540
H6 H 0.2809 0.0802 0.6741
C8 C 0.3199(6) -0.0314(5) 0.5833(9)
H7 H 0.3010 -0.0765 0.5286
C9 C 0.4034(11) -0.0311(9) 0.6292(16)
H8 H 0.4226 0.0139 0.6839
H9 H 0.4466 -0.0759 0.6088
Cu2F Cu 0.0000 0.0000 0.0000
Cl1F Cl 0.0000 0.02222(13) 0.7500
Cl3B Cl 0.08839(10) 0.12187(9) 0.02679(13)
Cl3D Cl 0.08839(10) -0.12187(9) 0.52679(13)
N1B N -0.1299(3) 0.0803(3) 0.0480(4)
N1D N -0.1299(3) -0.0803(3) 0.5480(4)
N2B N -0.2191(3) 0.0885(3) -0.0021(4)
C1B C -0.2725(4) 0.1461(4) 0.0659(5)
C2B C -0.3664(4) 0.1784(4) 0.0506(6)
H1B H -0.4068 0.1606 -0.0155
C3B C -0.3954(4) 0.2371(5) 0.1378(6)
H2B H -0.4572 0.2610 0.1304
C4B C -0.3362(5) 0.2630(4) 0.2379(6)
H3B H -0.3606 0.3025 0.2962
C5B C -0.2430(4) 0.2326(4) 0.2542(6)
H4B H -0.2035 0.2507 0.3210
C6B C -0.2112(4) 0.1726(4) 0.1638(5)
N3B N -0.1238(3) 0.1309(3) 0.1486(4)
C7B C -0.2507(5) 0.0394(4) -0.1149(6)
H5B H -0.1948 0.0132 -0.1540
H6B H -0.2809 0.0802 -0.1741
C8B C -0.3199(6) -0.0314(5) -0.0833(9)
H7B H -0.3010 -0.0765 -0.0286
C9B C -0.4034(11) -0.0311(9) -0.1292(16)
H8B H -0.4226 0.0139 -0.1839
H9B H -0.4466 -0.0759 -0.1088
loop_
_geom_bond_atom_site_label_1
_geom_bond_atom_site_label_2
_geom_bond_site_symmetry_1
_geom_bond_site_symmetry_2
Cu1 Cl1 1_555 1_555
Cu2 Cl1 1_555 1_555
Cl1 Cu2F 1_555 1_555
Cl2 Cu1 1_555 1_555
Cl3 Cu1 1_555 1_555
N1 Cu2 1_555 1_555
N2 N1 1_555 1_555
C1 N2 1_555 1_555
C2 C1 1_555 1_555
H1 C2 1_555 1_555
C3 C2 1_555 1_555
H2 C3 1_555 1_555
C4 C3 1_555 1_555
H3 C4 1_555 1_555
C5 C4 1_555 1_555
H4 C5 1_555 1_555
C6 C1 1_555 1_555
N3 Cu1 1_555 1_555
C7 N2 1_555 1_555
H5 C7 1_555 1_555
H6 C7 1_555 1_555
C8 C7 1_555 1_555
H7 C8 1_555 1_555
C9 C8 1_555 1_555
H8 C9 1_555 1_555
H9 C9 1_555 1_555
Cu2F Cl3B 1_555 1_555
Cl1F Cu2 1_555 1_555
Cl3B Cu1 1_555 1_555
Cl3D Cu2 1_555 1_555
N1B Cu2F 1_555 1_555
N1D Cu2 1_555 1_555
N2B N1B 1_555 1_555
C1B N2B 1_555 1_555
C2B C1B 1_555 1_555
H1B C2B 1_555 1_555
C3B C2B 1_555 1_555
H2B C3B 1_555 1_555
C4B C3B 1_555 1_555
H3B C4B 1_555 1_555
C5B C4B 1_555 1_555
H4B C5B 1_555 1_555
C6B C1B 1_555 1_555
N3B Cu1 1_555 1_555
C7B N2B 1_555 1_555
H5B C7B 1_555 1_555
H6B C7B 1_555 1_555
C8B C7B 1_555 1_555
H7B C8B 1_555 1_555
C9B C8B 1_555 1_555
H8B C9B 1_555 1_555
H9B C9B 1_555 1_555
Cu2 Cl3 1_555 1_555
N1 N3 1_555 1_555
C5 C6 1_555 1_555
C6 N3 1_555 1_555
N1B N3B 1_555 1_555
C5B C6B 1_555 1_555
C6B N3B 1_555 1_555

#END
