
#######################################################################
#
#                 Cambridge Crystallographic Data Centre
#                                CCDC 
#
#######################################################################
#
# If this CIF has been generated from an entry in the Cambridge 
# Structural Database, then it will include bibliographic, chemical, 
# crystal, experimental, refinement or atomic coordinate data resulting 
# from the CCDC's data processing and validation procedures.
#
#######################################################################

data_LALXON
_symmetry_cell_setting           monoclinic
_symmetry_space_group_name_H-M   'P 21'
_symmetry_Int_Tables_number      4
_space_group_name_Hall           'P 2yb'
loop_
_symmetry_equiv_pos_site_id
_symmetry_equiv_pos_as_xyz
1 x,y,z
2 -x,1/2+y,-z
_cell_length_a                   6.7699(4)
_cell_length_b                   12.5368(7)
_cell_length_c                   12.7550(6)
_cell_angle_alpha                90
_cell_angle_beta                 104.120(4)
_cell_angle_gamma                90
_cell_volume                     1049.85
loop_
_atom_site_label
_atom_site_type_symbol
_atom_site_fract_x
_atom_site_fract_y
_atom_site_fract_z
Co1 Co 0.29093(18) 0.06718(9) 0.24110(9)
Co2 Co 0.79786(18) -0.02155(8) 0.24587(10)
O1 O 0.2883(9) 0.0105(5) 0.0977(5)
O2 O 0.5822(9) -0.0773(5) 0.1297(5)
O3 O -0.1689(11) -0.2861(6) -0.2267(5)
O4 O 0.0640(10) -0.4057(5) -0.1839(5)
O5 O 0.2727(10) -0.0546(5) 0.3353(5)
O6 O -0.0126(10) -0.1442(5) 0.2653(5)
O7 O 0.4173(9) -0.3997(5) 0.6909(5)
O8 O 0.1658(10) -0.4892(6) 0.5949(5)
C1 C 0.3646(14) -0.0917(8) -0.0456(7)
C2 C 0.2745(16) -0.2086(8) -0.0505(8)
C3 C 0.1734(14) -0.2223(8) -0.1728(7)
H1 H 0.2807 -0.2411 -0.2090
C4 C 0.0935(16) -0.1126(8) -0.2126(8)
H2 H -0.0541 -0.1116 -0.2280
H3 H 0.1343 -0.0946 -0.2782
C5 C 0.1844(14) -0.0319(8) -0.1221(7)
H4 H 0.0835 -0.0110 -0.0836
H5 H 0.2324 0.0314 -0.1520
C6 C 0.4126(15) -0.0493(7) 0.0689(7)
C7 C 0.0161(17) -0.3083(8) -0.1965(7)
C8 C 0.5544(17) -0.0889(10) -0.0914(9)
H6 H 0.5891 -0.0162 -0.1024
H7 H 0.5268 -0.1263 -0.1591
H8 H 0.6661 -0.1226 -0.0414
C9 C 0.4435(17) -0.2921(9) -0.0139(8)
H9 H 0.5354 -0.2892 -0.0604
H10 H 0.3839 -0.3619 -0.0175
H11 H 0.5167 -0.2773 0.0591
C10 C 0.1218(16) -0.2208(9) 0.0177(8)
H12 H 0.1863 -0.2047 0.0917
H13 H 0.0722 -0.2928 0.0126
H14 H 0.0100 -0.1728 -0.0078
C11 C 0.2812(14) -0.2439(8) 0.3589(7)
C12 C 0.283(2) -0.2593(9) 0.4805(8)
C13 C 0.3509(14) -0.3796(7) 0.4974(7)
H15 H 0.4982 -0.3829 0.5046
C14 C 0.247(2) -0.4370(12) 0.3946(8)
H16 H 0.1334 -0.4791 0.4051
H17 H 0.3421 -0.4838 0.3710
C15 C 0.171(2) -0.3452(10) 0.3090(8)
H18 H 0.2051 -0.3617 0.2412
H19 H 0.0248 -0.3364 0.2956
C16 C 0.1682(17) -0.1399(9) 0.3166(7)
C17 C 0.3079(15) -0.4260(9) 0.5982(7)
C18 C 0.4984(17) -0.2406(11) 0.3465(11)
H20 H 0.4974 -0.2256 0.2726
H21 H 0.5625 -0.3083 0.3670
H22 H 0.5726 -0.1857 0.3922
C19 C 0.446(2) -0.1868(11) 0.5570(9)
H23 H 0.4195 -0.1134 0.5369
H24 H 0.5793 -0.2060 0.5503
H25 H 0.4375 -0.1966 0.6304
C20 C 0.0870(15) -0.2369(9) 0.5093(9)
H26 H 0.1027 -0.2492 0.5852
H27 H -0.0169 -0.2832 0.4687
H28 H 0.0487 -0.1640 0.4926
Co1A Co -0.29093(18) -0.43282(9) -0.24110(9)
Co1A_2 Co 0.70907(18) -0.43282(9) 0.75890(9)
Co2A Co 0.20214(18) -0.52155(8) -0.24587(10)
Co2_2 Co -0.20214(18) -0.02155(8) 0.24587(10)
Co2A_2 Co 0.20214(18) -0.52155(8) 0.75413(10)
O3A O 0.1689(11) 0.2139(6) 0.2267(5)
O4A O 0.9360(10) 0.0943(5) 0.1839(5)
O6_2 O 0.9874(10) -0.1442(5) 0.2653(5)
O7A O 0.5827(9) 0.1003(5) 0.3091(5)
O8A O 0.8342(10) 0.0108(6) 0.4051(5)
loop_
_geom_bond_atom_site_label_1
_geom_bond_atom_site_label_2
_geom_bond_site_symmetry_1
_geom_bond_site_symmetry_2
Co1 O1 1_555 1_555
Co2 O2 1_555 1_555
O1 C6 1_555 1_555
O2 C6 1_555 1_555
O3 C7 1_555 1_555
O4 C7 1_555 1_555
O5 Co1 1_555 1_555
O6 C16 1_555 1_555
O7 C17 1_555 1_555
O8 C17 1_555 1_555
C1 C2 1_555 1_555
C2 C3 1_555 1_555
C3 H1 1_555 1_555
C4 C3 1_555 1_555
H2 C4 1_555 1_555
H3 C4 1_555 1_555
C5 C1 1_555 1_555
H4 C5 1_555 1_555
H5 C5 1_555 1_555
C6 C1 1_555 1_555
C7 C3 1_555 1_555
C8 C1 1_555 1_555
H6 C8 1_555 1_555
H7 C8 1_555 1_555
H8 C8 1_555 1_555
C9 C2 1_555 1_555
H9 C9 1_555 1_555
H10 C9 1_555 1_555
H11 C9 1_555 1_555
C10 C2 1_555 1_555
H12 C10 1_555 1_555
H13 C10 1_555 1_555
H14 C10 1_555 1_555
C11 C12 1_555 1_555
C12 C13 1_555 1_555
C13 H15 1_555 1_555
C14 C13 1_555 1_555
H16 C14 1_555 1_555
H17 C14 1_555 1_555
C15 C11 1_555 1_555
H18 C15 1_555 1_555
H19 C15 1_555 1_555
C16 O5 1_555 1_555
C17 C13 1_555 1_555
C18 C11 1_555 1_555
H20 C18 1_555 1_555
H21 C18 1_555 1_555
H22 C18 1_555 1_555
C19 C12 1_555 1_555
H23 C19 1_555 1_555
H24 C19 1_555 1_555
H25 C19 1_555 1_555
C20 C12 1_555 1_555
H26 C20 1_555 1_555
H27 C20 1_555 1_555
H28 C20 1_555 1_555
Co1A O3 1_555 1_555
Co1A_2 O7 1_555 1_555
Co2A O4 1_555 1_555
Co2_2 O6 1_555 1_555
Co2A_2 O8 1_555 1_555
O3A Co1 1_555 1_555
O4A Co2 1_555 1_555
O6_2 Co2 1_555 1_555
O7A Co1 1_555 1_555
O8A Co2 1_555 1_555
C4 C5 1_555 1_555
C11 C16 1_555 1_555
C14 C15 1_555 1_555

#END
