
#######################################################################
#
#                 Cambridge Crystallographic Data Centre
#                                CCDC 
#
#######################################################################
#
# If this CIF has been generated from an entry in the Cambridge 
# Structural Database, then it will include bibliographic, chemical, 
# crystal, experimental, refinement or atomic coordinate data resulting 
# from the CCDC's data processing and validation procedures.
#
#######################################################################

data_LALYAA
_symmetry_cell_setting           monoclinic
_symmetry_space_group_name_H-M   'P 21/a'
_symmetry_Int_Tables_number      14
_space_group_name_Hall           '-P 2yab'
loop_
_symmetry_equiv_pos_site_id
_symmetry_equiv_pos_as_xyz
1 x,y,z
2 1/2-x,1/2+y,-z
3 -x,-y,-z
4 1/2+x,1/2-y,z
_cell_length_a                   6.830(3)
_cell_length_b                   19.872(9)
_cell_length_c                   11.697(6)
_cell_angle_alpha                90
_cell_angle_beta                 90.870(15)
_cell_angle_gamma                90
_cell_volume                     1587.4
loop_
_atom_site_label
_atom_site_type_symbol
_atom_site_fract_x
_atom_site_fract_y
_atom_site_fract_z
Zn1 Zn 0.25533(7) -0.37870(3) -0.05104(5)
Zn2 Zn 0.26185(7) -0.62337(3) -0.06525(5)
S1 S 0.06217(16) -0.39951(6) 0.11308(11)
S2 S 0.58813(17) -0.37389(6) -0.11437(11)
S3 S -0.2154(2) -0.29619(7) -0.52820(13)
O1 O 0.1777(5) -0.20789(17) 0.1501(3)
O2 O 0.2582(5) -0.27751(17) 0.0100(3)
O3 O 0.2911(5) -0.48298(18) -0.0780(3)
O4 O 0.4488(5) -0.56658(16) -0.1595(3)
O5 O -0.5232(7) -0.4086(3) -0.5196(5)
H1 H -0.574(11) -0.4469(19) -0.508(7)
O6 O -0.3012(7) -0.4853(2) -0.5671(4)
N1 N 0.0945(6) -0.3576(2) -0.1977(4)
C1 C 0.1956(6) -0.2658(2) 0.1072(4)
C2 C 0.1452(7) -0.3240(2) 0.1873(4)
H2 H 0.0436 -0.3093 0.2387
H3 H 0.2601 -0.3350 0.2333
C3 C 0.4320(7) -0.5046(2) -0.1342(4)
C4 C 0.5924(7) -0.4584(2) -0.1737(4)
H4 H 0.5841 -0.4551 -0.2564
H5 H 0.7175 -0.4788 -0.1543
C5 C 0.0657(8) -0.4034(3) -0.2808(5)
H6 H 0.1092 -0.4471 -0.2681
C6 C -0.0244(9) -0.3888(3) -0.3830(5)
H7 H -0.0416 -0.4221 -0.4381
C7 C -0.0900(7) -0.3235(3) -0.4037(4)
C8 C -0.0582(7) -0.2755(3) -0.3198(4)
H8 H -0.0964 -0.2310 -0.3313
C9 C 0.0316(7) -0.2950(3) -0.2185(4)
H9 H 0.0493 -0.2628 -0.1615
C10 C -0.2417(10) -0.3709(3) -0.6137(5)
H10 H -0.3032 -0.3585 -0.6860
H11 H -0.1120 -0.3878 -0.6302
C11 C -0.3584(8) -0.4269(3) -0.5619(5)
Zn2A Zn 0.23815(7) -0.12337(3) 0.06525(5)
Zn2B Zn -0.26185(7) -0.37663(3) 0.06525(5)
Zn2B_2 Zn 0.73815(7) -0.37663(3) 0.06525(5)
S1B S -0.06217(16) -0.60049(6) -0.11308(11)
S2B S 0.41187(17) -0.62611(6) 0.11437(11)
O1A O 0.3223(5) -0.70789(17) -0.1501(3)
loop_
_geom_bond_atom_site_label_1
_geom_bond_atom_site_label_2
_geom_bond_site_symmetry_1
_geom_bond_site_symmetry_2
Zn1 S1 1_555 1_555
Zn2 O4 1_555 1_555
S1 C2 1_555 1_555
S2 Zn1 1_555 1_555
S3 C7 1_555 1_555
O1 C1 1_555 1_555
O2 Zn1 1_555 1_555
O3 Zn1 1_555 1_555
O4 C3 1_555 1_555
O5 H1 1_555 1_555
O6 C11 1_555 1_555
N1 Zn1 1_555 1_555
C1 O2 1_555 1_555
C2 C1 1_555 1_555
H2 C2 1_555 1_555
H3 C2 1_555 1_555
C3 O3 1_555 1_555
C4 S2 1_555 1_555
H4 C4 1_555 1_555
H5 C4 1_555 1_555
C5 N1 1_555 1_555
H6 C5 1_555 1_555
C6 C5 1_555 1_555
H7 C6 1_555 1_555
C7 C6 1_555 1_555
C8 C7 1_555 1_555
H8 C8 1_555 1_555
C9 N1 1_555 1_555
H9 C9 1_555 1_555
C10 S3 1_555 1_555
H10 C10 1_555 1_555
H11 C10 1_555 1_555
C11 O5 1_555 1_555
Zn2A O1 1_555 1_555
Zn2B S1 1_555 1_555
Zn2B_2 S2 1_555 1_555
S1B Zn2 1_555 1_555
S2B Zn2 1_555 1_555
O1A Zn2 1_555 1_555
C3 C4 1_555 1_555
C8 C9 1_555 1_555
C10 C11 1_555 1_555

#END
