
#######################################################################
#
#                 Cambridge Crystallographic Data Centre
#                                CCDC 
#
#######################################################################
#
# If this CIF has been generated from an entry in the Cambridge 
# Structural Database, then it will include bibliographic, chemical, 
# crystal, experimental, refinement or atomic coordinate data resulting 
# from the CCDC's data processing and validation procedures.
#
#######################################################################

data_LALZIJ
_symmetry_cell_setting           orthorhombic
_symmetry_space_group_name_H-M   'P n a 21'
_symmetry_Int_Tables_number      33
_space_group_name_Hall           'P 2c -2n'
loop_
_symmetry_equiv_pos_site_id
_symmetry_equiv_pos_as_xyz
1 x,y,z
2 -x,-y,1/2+z
3 1/2+x,1/2-y,z
4 1/2-x,1/2+y,1/2+z
_cell_length_a                   12.7099(8)
_cell_length_b                   11.2854(7)
_cell_length_c                   9.4153(6)
_cell_angle_alpha                90
_cell_angle_beta                 90
_cell_angle_gamma                90
_cell_volume                     1350.5
loop_
_atom_site_label
_atom_site_type_symbol
_atom_site_fract_x
_atom_site_fract_y
_atom_site_fract_z
Zn1 Zn 0.576933(16) 0.679170(17) 0.60875(3)
Zn2 Zn 0.243763(16) 0.903194(17) 0.09567(3)
O1 O 0.36367(13) 0.84202(14) 0.20532(18)
O2 O 0.33246(14) 0.65788(14) 0.13424(19)
O3 O 0.67170(12) 0.82903(13) 0.57773(16)
O4 O 0.68401(13) 0.99873(13) 0.45480(17)
O5 O 0.45217(11) 0.55623(12) 0.62026(19)
O6 O 0.31393(13) 0.50443(14) 0.75089(16)
O7 O 0.63842(13) 0.64397(14) 0.81519(17)
O8 O 0.63749(12) 0.71150(14) 1.03816(17)
N1 N 0.49141(15) 0.76664(17) 0.43347(19)
N2 N 0.46998(16) 0.77732(17) 0.7457(2)
C1 C 0.40180(17) 0.82545(19) 0.5083(2)
H1 H 0.3435 0.7679 0.5183
H2 H 0.3761 0.8920 0.4492
C2 C 0.43051(16) 0.87227(19) 0.6538(2)
H3 H 0.4851 0.9343 0.6441
H4 H 0.3677 0.9088 0.6981
C3 C 0.45282(17) 0.68202(18) 0.3250(2)
H5 H 0.4174 0.6159 0.3750
H6 H 0.5147 0.6484 0.2755
C4 C 0.37735(17) 0.72952(19) 0.2128(2)
C5 C 0.56361(17) 0.85515(19) 0.3711(2)
H7 H 0.5224 0.9242 0.3377
H8 H 0.5996 0.8200 0.2879
C6 C 0.64552(16) 0.89652(18) 0.4779(2)
C7 C 0.38511(17) 0.69437(19) 0.7923(2)
H9 H 0.3160 0.7329 0.7774
H10 H 0.3930 0.6792 0.8953
C8 C 0.38620(17) 0.57741(18) 0.7144(2)
C9 C 0.53422(18) 0.8147(2) 0.8675(2)
H11 H 0.4881 0.8348 0.9487
H12 H 0.5753 0.8862 0.8421
C10 C 0.60868(16) 0.71431(19) 0.9090(2)
O9 O 0.67690(13) 0.55795(14) 0.53292(17)
H13 H 0.674(2) 0.4951(15) 0.581(2)
H14 H 0.686(2) 0.540(2) 0.4473(12)
Zn2A Zn 0.756237(16) 1.096806(17) 0.59567(3)
Zn2C Zn 0.256237(16) 0.403194(17) 0.59567(3)
Zn2B Zn 0.743763(16) 0.596806(17) 1.09567(3)
O4A O 0.31599(13) 1.00127(13) -0.04520(17)
O6C O 0.18607(13) 1.00443(14) 0.25089(16)
O8B O 0.13749(12) 0.78850(14) 0.03816(17)
loop_
_geom_bond_atom_site_label_1
_geom_bond_atom_site_label_2
_geom_bond_site_symmetry_1
_geom_bond_site_symmetry_2
Zn1 O3 1_555 1_555
Zn2 O1 1_555 1_555
O1 C4 1_555 1_555
O2 C4 1_555 1_555
O3 C6 1_555 1_555
O4 C6 1_555 1_555
O5 Zn1 1_555 1_555
O6 C8 1_555 1_555
O7 Zn1 1_555 1_555
O8 C10 1_555 1_555
N1 Zn1 1_555 1_555
N2 Zn1 1_555 1_555
C1 N1 1_555 1_555
H1 C1 1_555 1_555
H2 C1 1_555 1_555
C2 N2 1_555 1_555
H3 C2 1_555 1_555
H4 C2 1_555 1_555
C3 N1 1_555 1_555
H5 C3 1_555 1_555
H6 C3 1_555 1_555
C4 C3 1_555 1_555
C5 N1 1_555 1_555
H7 C5 1_555 1_555
H8 C5 1_555 1_555
C6 C5 1_555 1_555
C7 N2 1_555 1_555
H9 C7 1_555 1_555
H10 C7 1_555 1_555
C8 O5 1_555 1_555
C9 N2 1_555 1_555
H11 C9 1_555 1_555
H12 C9 1_555 1_555
C10 O7 1_555 1_555
O9 Zn1 1_555 1_555
H13 O9 1_555 1_555
H14 O9 1_555 1_555
Zn2A O4 1_555 1_555
Zn2C O6 1_555 1_555
Zn2B O8 1_555 1_555
O4A Zn2 1_555 1_555
O6C Zn2 1_555 1_555
O8B Zn2 1_555 1_555
C1 C2 1_555 1_555
C7 C8 1_555 1_555
C9 C10 1_555 1_555

#END
