
#######################################################################
#
#                 Cambridge Crystallographic Data Centre
#                                CCDC 
#
#######################################################################
#
# If this CIF has been generated from an entry in the Cambridge 
# Structural Database, then it will include bibliographic, chemical, 
# crystal, experimental, refinement or atomic coordinate data resulting 
# from the CCDC's data processing and validation procedures.
#
#######################################################################

data_LALZUU
_symmetry_cell_setting           trigonal
_symmetry_space_group_name_H-M   'P -3'
_symmetry_Int_Tables_number      147
_space_group_name_Hall           '-P 3'
loop_
_symmetry_equiv_pos_site_id
_symmetry_equiv_pos_as_xyz
1 x,y,z
2 -y,x-y,z
3 -x+y,-x,z
4 -x,-y,-z
5 y,-x+y,-z
6 x-y,x,-z
_cell_length_a                   17.853(4)
_cell_length_b                   17.853(4)
_cell_length_c                   8.823(4)
_cell_angle_alpha                90
_cell_angle_beta                 90
_cell_angle_gamma                120
_cell_volume                     2435.39
loop_
_atom_site_label
_atom_site_type_symbol
_atom_site_fract_x
_atom_site_fract_y
_atom_site_fract_z
Al1 Al 0.3333 0.6667 1.0065(3)
P1 P 0.52894(9) 0.77796(8) 0.88074(15)
P2 P 0.49018(9) 0.65039(9) 1.13739(14)
Na1 Na 0.3333 0.6667 0.6519(4)
Na2 Na 0.44580(13) 0.58017(15) 0.7785(2)
Na3 Na 0.57106(14) 0.95873(14) 1.0614(2)
C1 C 0.6534(3) 0.7969(4) 1.0968(7)
H1 H 0.6861 0.8526 1.0499
H2 H 0.6677 0.7571 1.0502
H3 H 0.6670 0.8016 1.2029
C2 C 0.5555(3) 0.7635(3) 1.0765(5)
O1 O 0.5617(2) 0.7344(2) 0.7748(4)
O2 O 0.4295(2) 0.7293(2) 0.8737(4)
O3 O 0.5639(2) 0.8732(2) 0.8526(4)
O4 O 0.5029(2) 0.5926(2) 1.0294(4)
O5 O 0.3966(2) 0.6338(2) 1.1327(4)
O6 O 0.5140(2) 0.6438(2) 1.2995(4)
O7 O 0.5361(2) 0.8172(2) 1.1760(4)
O8 O 0.3861(3) 0.5836(3) 0.5343(4)
O9 O 0.5447(3) 0.5366(2) 0.6792(4)
O10 O 0.7143(3) 1.0122(3) 1.2087(5)
P1A P 0.22204(8) 0.75098(12) 0.88074(15)
P1B P 0.24902(12) 0.47106(9) 0.88074(15)
P2A P 0.34961(9) 0.83979(13) 1.13739(14)
P2B P 0.16021(13) 0.50982(9) 1.13739(14)
Na2A Na 0.41983(15) 0.86563(20) 0.7785(2)
Na2B Na 0.13437(20) 0.55420(13) 0.7785(2)
Na2D Na 0.58017(15) 1.13437(20) 1.2215(2)
Na2E Na -0.13437(20) 0.44580(13) 1.2215(2)
Na2C Na 0.55420(13) 0.41983(15) 1.2215(2)
Na3A Na 0.04127(14) 0.61233(20) 1.0614(2)
Na3B Na 0.38767(20) 0.42894(14) 1.0614(2)
Na3E Na 0.61233(20) 0.57106(14) 0.9386(2)
Na3C Na 0.42894(14) 1.04127(14) 0.9386(2)
Na3D Na -0.04127(14) 0.38767(20) 0.9386(2)
C1A C 0.2031(4) 0.8565(5) 1.0968(7)
C1B C 0.1435(5) 0.3466(3) 1.0968(7)
H1A H 0.1474 0.8335 1.0499
H1B H 0.1665 0.3139 1.0499
H2A H 0.2429 0.9106 1.0502
H2B H 0.0894 0.3323 1.0502
H3A H 0.1984 0.8654 1.2029
H3B H 0.1346 0.3330 1.2029
C2A C 0.2365(3) 0.7920(4) 1.0765(5)
C2B C 0.2080(4) 0.4445(3) 1.0765(5)
O1A O 0.2656(2) 0.8273(3) 0.7748(4)
O1B O 0.1727(3) 0.4383(2) 0.7748(4)
O2A O 0.2707(2) 0.7002(3) 0.8737(4)
O2B O 0.2998(3) 0.5705(2) 0.8737(4)
O3A O 0.1268(2) 0.6907(3) 0.8526(4)
O3B O 0.3093(3) 0.4361(2) 0.8526(4)
O4A O 0.4074(2) 0.9103(3) 1.0294(4)
O4B O 0.0897(3) 0.4971(2) 1.0294(4)
O4D O 0.5926(2) 1.0897(3) 0.9706(4)
O4E O -0.0897(3) 0.5029(2) 0.9706(4)
O4C O 0.4971(2) 0.4074(2) 0.9706(4)
O5A O 0.3662(2) 0.7628(3) 1.1327(4)
O5B O 0.2372(3) 0.6034(2) 1.1327(4)
O6A O 0.3562(2) 0.8702(3) 1.2995(4)
O6B O 0.1298(3) 0.4860(2) 1.2995(4)
O7A O 0.1828(2) 0.7189(3) 1.1760(4)
O7B O 0.2811(3) 0.4639(2) 1.1760(4)
O8A O 0.4164(3) 0.8025(4) 0.5343(4)
O8B O 0.1975(4) 0.6139(3) 0.5343(4)
O9D O 0.5366(2) 0.9919(4) 1.3208(4)
O9A O 0.4634(2) 1.0081(4) 0.6792(4)
O9B O -0.0081(4) 0.4553(3) 0.6792(4)
O9E O 0.0081(4) 0.5447(3) 1.3208(4)
O9C O 0.4553(3) 0.4634(2) 1.3208(4)
O10A O -0.0122(3) 0.7021(4) 1.2087(5)
O10B O 0.2979(4) 0.2857(3) 1.2087(5)
O11 O 0.3488(3) 0.3709(3) 0.5935(6)
O12 O 0.2224(3) 0.4372(3) 0.4931(5)
O13 O 0.6551(4) 0.9118(3) 0.3939(5)
O14 O 0.1453(8) 0.1350(9) 0.104(2)
O15 O 0.7726(12) 0.8861(16) 0.448(2)
O16 O 0.7602(16) 0.9364(16) 0.750(3)
loop_
_geom_bond_atom_site_label_1
_geom_bond_atom_site_label_2
_geom_bond_site_symmetry_1
_geom_bond_site_symmetry_2
Al1 O2 1_555 1_555
P1 C2 1_555 1_555
P2 C2 1_555 1_555
Na1 O2 1_555 1_555
Na2 O1 1_555 1_555
Na3 O3 1_555 1_555
C1 H1 1_555 1_555
H2 C1 1_555 1_555
H3 C1 1_555 1_555
C2 C1 1_555 1_555
O1 P1 1_555 1_555
O2 P1 1_555 1_555
O3 P1 1_555 1_555
O4 P2 1_555 1_555
O5 Al1 1_555 1_555
O6 P2 1_555 1_555
O7 Na3 1_555 1_555
O8 Na1 1_555 1_555
O9 Na2 1_555 1_555
O10 Na3 1_555 1_555
P1A C2A 1_555 1_555
P1B C2B 1_555 1_555
P2A C2A 1_555 1_555
P2B C2B 1_555 1_555
Na2A O2 1_555 1_555
Na2B O1B 1_555 1_555
Na2D O4D 1_555 1_555
Na2E O4E 1_555 1_555
Na2C O4C 1_555 1_555
Na3A O3A 1_555 1_555
Na3B O4 1_555 1_555
Na3E O4 1_555 1_555
Na3C O4A 1_555 1_555
Na3D O4B 1_555 1_555
C1A H1A 1_555 1_555
C1B H1B 1_555 1_555
H2A C1A 1_555 1_555
H2B C1B 1_555 1_555
H3A C1A 1_555 1_555
H3B C1B 1_555 1_555
C2A C1A 1_555 1_555
C2B C1B 1_555 1_555
O1A P1A 1_555 1_555
O1B P1B 1_555 1_555
O2A Al1 1_555 1_555
O2B Al1 1_555 1_555
O3A P1A 1_555 1_555
O3B Na2 1_555 1_555
O4A Na3 1_555 1_555
O4B P2B 1_555 1_555
O4D Na3 1_555 1_555
O4E Na3A 1_555 1_555
O4C Na3B 1_555 1_555
O5A Al1 1_555 1_555
O5B Al1 1_555 1_555
O6A P2A 1_555 1_555
O6B P2B 1_555 1_555
O7A Na3A 1_555 1_555
O7B Na3B 1_555 1_555
O8A Na1 1_555 1_555
O8B Na1 1_555 1_555
O9D Na3 1_555 1_555
O9A Na2A 1_555 1_555
O9B Na2B 1_555 1_555
O9E Na2E 1_555 1_555
O9C Na2C 1_555 1_555
O10A Na3A 1_555 1_555
O10B Na3B 1_555 1_555
P2 O5 1_555 1_555
Na1 O2A 1_555 1_555
Na1 O2B 1_555 1_555
Na2 O4 1_555 1_555
Na2 O8 1_555 1_555
Na2 O2B 1_555 1_555
C2 O7 1_555 1_555
O3 Na2A 1_555 1_555
O9 Na3E 1_555 1_555
P1A O2A 1_555 1_555
P1B O2B 1_555 1_555
P1B O3B 1_555 1_555
P2A O4A 1_555 1_555
P2A O5A 1_555 1_555
P2B O5B 1_555 1_555
Na2A O1A 1_555 1_555
Na2A O4A 1_555 1_555
Na2A O8A 1_555 1_555
Na2B O2A 1_555 1_555
Na2B O3A 1_555 1_555
Na2B O4B 1_555 1_555
Na2B O8B 1_555 1_555
Na2D O9D 1_555 1_555
Na3A O4B 1_555 1_555
Na3A O9E 1_555 1_555
Na3B O3B 1_555 1_555
Na3B O9C 1_555 1_555
Na3E O4C 1_555 1_555
Na3C O4D 1_555 1_555
Na3C O9A 1_555 1_555
Na3D O4E 1_555 1_555
Na3D O9B 1_555 1_555
C2A O7A 1_555 1_555
C2B O7B 1_555 1_555

#END
