
#######################################################################
#
#                 Cambridge Crystallographic Data Centre
#                                CCDC 
#
#######################################################################
#
# If this CIF has been generated from an entry in the Cambridge 
# Structural Database, then it will include bibliographic, chemical, 
# crystal, experimental, refinement or atomic coordinate data resulting 
# from the CCDC's data processing and validation procedures.
#
#######################################################################

data_LALZEF
_symmetry_cell_setting           monoclinic
_symmetry_space_group_name_H-M   'P 21/c'
_symmetry_Int_Tables_number      14
_space_group_name_Hall           '-P 2ybc'
loop_
_symmetry_equiv_pos_site_id
_symmetry_equiv_pos_as_xyz
1 x,y,z
2 -x,1/2+y,1/2-z
3 -x,-y,-z
4 x,1/2-y,1/2+z
_cell_length_a                   12.6991(3)
_cell_length_b                   14.0263(3)
_cell_length_c                   15.0300(3)
_cell_angle_alpha                90
_cell_angle_beta                 107.103(2)
_cell_angle_gamma                90
_cell_volume                     2558.77
loop_
_atom_site_label
_atom_site_type_symbol
_atom_site_fract_x
_atom_site_fract_y
_atom_site_fract_z
Cu1 Cu 0.80644(2) 0.77569(2) 0.06620(2)
Cu2 Cu 1.07937(2) 0.922540(19) 0.35230(2)
S1 S 1.26497(6) 0.65529(5) 0.32658(5)
S2 S 0.77428(6) 0.74913(5) 0.34055(6)
O1 O 0.89280(15) 0.88794(12) 0.10392(15)
O2 O 1.03816(15) 0.96004(12) 0.19550(12)
O3 O 0.98983(13) 0.53969(11) 0.12039(12)
O4 O 0.78541(14) 0.49798(12) 0.10834(13)
N1 N 0.94052(15) 0.69787(13) 0.08385(13)
N2 N 0.73403(16) 0.65385(14) 0.07024(15)
N3 N 0.66686(18) 0.85655(15) 0.03676(15)
N4 N 1.15083(16) 0.80036(13) 0.34220(14)
N5 N 0.95136(16) 0.83884(13) 0.34618(14)
N6 N 1.3319(2) 0.83799(19) 0.3455(2)
N7 N 0.8087(2) 0.93835(18) 0.3590(2)
C1 C 0.9972(2) 0.89549(17) 0.13940(18)
C2 C 1.0730(2) 0.82771(16) 0.11232(16)
C3 C 1.04591(19) 0.73288(16) 0.08606(15)
C4 C 1.1236(2) 0.67630(17) 0.06215(16)
H1 H 1.1058 0.6138 0.0431
C5 C 1.2265(2) 0.7112(2) 0.06621(18)
H2 H 1.2776 0.6718 0.0511
C6 C 1.2536(2) 0.8043(2) 0.0926(2)
H3 H 1.3225 0.8283 0.0946
C7 C 1.1775(2) 0.86128(19) 0.11587(19)
H4 H 1.1963 0.9238 0.1344
C8 C 0.92245(19) 0.60850(16) 0.09978(16)
C9 C 0.80415(19) 0.58473(17) 0.09291(17)
C10 C 0.6168(2) 0.6315(2) 0.0569(2)
H5 H 0.6110 0.5857 0.1036
H6 H 0.5858 0.6027 -0.0038
C11 C 0.5523(2) 0.7191(2) 0.0642(2)
H7 H 0.5758 0.7413 0.1282
H8 H 0.4750 0.7021 0.0494
C12 C 0.5638(2) 0.7999(2) 0.0018(2)
H9 H 0.5608 0.7740 -0.0588
H10 H 0.5013 0.8424 -0.0067
C13 C 0.6695(3) 0.9296(2) -0.0339(2)
H11 H 0.6078 0.9718 -0.0425
H12 H 0.6657 0.8988 -0.0918
H13 H 0.7367 0.9654 -0.0131
C14 C 0.6659(3) 0.9085(2) 0.1222(2)
H14 H 0.7301 0.9482 0.1421
H15 H 0.6659 0.8635 0.1704
H16 H 0.6010 0.9474 0.1095
C15 C 1.2498(2) 0.77719(17) 0.33829(17)
C16 C 1.1316(2) 0.63758(18) 0.32828(19)
H17 H 1.0974 0.5784 0.3239
C17 C 1.0839(2) 0.72087(16) 0.33685(16)
C18 C 0.9723(2) 0.74175(16) 0.33878(17)
C19 C 0.8874(2) 0.68436(19) 0.33461(19)
H18 H 0.8890 0.6184 0.3292
C20 C 0.8503(2) 0.85367(18) 0.34868(18)
H21 H 1.317(2) 0.894(2) 0.342(2)
H22 H 1.380(3) 0.819(2) 0.323(2)
H23 H 0.846(2) 0.9860(16) 0.354(2)
H24 H 0.7410(15) 0.9452(19) 0.3520(18)
Cu2A Cu 0.92063(2) 0.422540(19) 0.14770(2)
O3A O 1.01017(13) 1.03969(11) 0.37961(12)
O4A O 1.21459(14) 0.99798(12) 0.39166(13)
N8 N 0.4748(3) 0.4700(3) 0.2113(2)
O5 O 0.4399(3) 0.3879(2) 0.1945(2)
O6 O 0.5700(3) 0.4876(3) 0.2522(2)
O7 O 0.4099(3) 0.5346(3) 0.1799(3)
O8 O 0.5261(3) 0.2093(3) 0.2242(3)
H19 H 0.4898 0.2564 0.2287
H20 H 0.5165 0.1675 0.2592
loop_
_geom_bond_atom_site_label_1
_geom_bond_atom_site_label_2
_geom_bond_site_symmetry_1
_geom_bond_site_symmetry_2
Cu1 O1 1_555 1_555
Cu2 O2 1_555 1_555
S1 C15 1_555 1_555
S2 C19 1_555 1_555
O1 C1 1_555 1_555
O2 C1 1_555 1_555
O3 C8 1_555 1_555
O4 C9 1_555 1_555
N1 Cu1 1_555 1_555
N2 Cu1 1_555 1_555
N3 Cu1 1_555 1_555
N4 Cu2 1_555 1_555
N5 Cu2 1_555 1_555
N6 C15 1_555 1_555
N7 C20 1_555 1_555
C1 C2 1_555 1_555
C2 C3 1_555 1_555
C3 N1 1_555 1_555
C4 C3 1_555 1_555
H1 C4 1_555 1_555
C5 C4 1_555 1_555
H2 C5 1_555 1_555
C6 C5 1_555 1_555
H3 C6 1_555 1_555
C7 C2 1_555 1_555
H4 C7 1_555 1_555
C8 N1 1_555 1_555
C9 N2 1_555 1_555
C10 N2 1_555 1_555
H5 C10 1_555 1_555
H6 C10 1_555 1_555
C11 C10 1_555 1_555
H7 C11 1_555 1_555
H8 C11 1_555 1_555
C12 N3 1_555 1_555
H9 C12 1_555 1_555
H10 C12 1_555 1_555
C13 N3 1_555 1_555
H11 C13 1_555 1_555
H12 C13 1_555 1_555
H13 C13 1_555 1_555
C14 N3 1_555 1_555
H14 C14 1_555 1_555
H15 C14 1_555 1_555
H16 C14 1_555 1_555
C15 N4 1_555 1_555
C16 S1 1_555 1_555
H17 C16 1_555 1_555
C17 N4 1_555 1_555
C18 N5 1_555 1_555
C19 C18 1_555 1_555
H18 C19 1_555 1_555
C20 S2 1_555 1_555
N8 O5 1_555 1_555
O6 N8 1_555 1_555
O7 N8 1_555 1_555
O8 H19 1_555 1_555
H20 O8 1_555 1_555
H21 N6 1_555 1_555
H22 N6 1_555 1_555
H23 N7 1_555 1_555
H24 N7 1_555 1_555
Cu2A O3 1_555 1_555
O3A Cu2 1_555 1_555
O4A Cu2 1_555 1_555
O4 Cu2A 1_555 1_555
N5 C20 1_555 1_555
C6 C7 1_555 1_555
C8 C9 1_555 1_555
C11 C12 1_555 1_555
C16 C17 1_555 1_555
C17 C18 1_555 1_555

#END
