
#######################################################################
#
#                 Cambridge Crystallographic Data Centre
#                                CCDC 
#
#######################################################################
#
# If this CIF has been generated from an entry in the Cambridge 
# Structural Database, then it will include bibliographic, chemical, 
# crystal, experimental, refinement or atomic coordinate data resulting 
# from the CCDC's data processing and validation procedures.
#
#######################################################################

data_LAMCEI
_symmetry_cell_setting           monoclinic
_symmetry_space_group_name_H-M   'I 2/a'
_symmetry_Int_Tables_number      15
_space_group_name_Hall           '-I 2ya'
loop_
_symmetry_equiv_pos_site_id
_symmetry_equiv_pos_as_xyz
1 x,y,z
2 1/2+x,1/2+y,1/2+z
3 1/2-x,y,-z
4 -x,1/2+y,1/2-z
5 -x,-y,-z
6 1/2-x,1/2-y,1/2-z
7 1/2+x,-y,z
8 x,1/2-y,1/2+z
_cell_length_a                   7.4070(8)
_cell_length_b                   11.5742(12)
_cell_length_c                   11.8183(12)
_cell_angle_alpha                90
_cell_angle_beta                 99.227(2)
_cell_angle_gamma                90
_cell_volume                     1000.07
loop_
_atom_site_label
_atom_site_type_symbol
_atom_site_fract_x
_atom_site_fract_y
_atom_site_fract_z
Co1 Co 0.2500 0.2500 0.2500
N1 N -0.09357(19) 0.16752(12) 0.33937(12)
O1 O 0.04731(15) 0.13594(10) 0.29765(10)
O2 O -0.12359(17) 0.27032(10) 0.35562(11)
O3 O -0.20015(16) 0.08954(10) 0.36308(10)
N2 N 0.23587(18) 0.14588(11) 0.09868(11)
C1 C 0.2500 -0.0325(2) 0.0000
H1 H 0.2500 -0.1146 0.0000
C2 C 0.2336(2) 0.02957(14) 0.09780(14)
H2 H 0.2204 -0.0108 0.1660
C3 C 0.2500 0.1985(2) 0.0000
H3 H 0.2500 0.2806 0.0000
O4 O 0.07399(16) 0.36508(10) 0.15270(10)
H4 H -0.0395(13) 0.3638(15) 0.1495(17)
H5 H 0.106(2) 0.4322(10) 0.1436(18)
Co1G Co 0.2500 0.2500 -0.2500
N1E N 0.59357(19) 0.33248(12) 0.16063(12)
O1E O 0.45269(15) 0.36406(10) 0.20235(10)
O2E O 0.62359(17) 0.22968(10) 0.14438(11)
O3E O 0.70015(16) 0.41046(10) 0.13692(10)
N2B N 0.26413(18) 0.14588(11) -0.09868(11)
N2E N 0.26413(18) 0.35412(11) 0.40132(11)
C2B C 0.2664(2) 0.02957(14) -0.09780(14)
H2B H 0.2796 -0.0108 -0.1660
O4E O 0.42601(16) 0.13492(10) 0.34730(10)
H4E H 0.5395(13) 0.1362(15) 0.3505(17)
H5E H 0.394(2) 0.0678(10) 0.3564(18)
loop_
_geom_bond_atom_site_label_1
_geom_bond_atom_site_label_2
_geom_bond_site_symmetry_1
_geom_bond_site_symmetry_2
Co1 O1 1_555 1_555
N1 O1 1_555 1_555
O2 N1 1_555 1_555
O3 N1 1_555 1_555
N2 Co1 1_555 1_555
C1 H1 1_555 1_555
C2 N2 1_555 1_555
H2 C2 1_555 1_555
C3 N2 1_555 1_555
H3 C3 1_555 1_555
O4 Co1 1_555 1_555
H4 O4 1_555 1_555
H5 O4 1_555 1_555
Co1G N2B 1_555 1_555
N1E O1E 1_555 1_555
O1E Co1 1_555 1_555
O2E N1E 1_555 1_555
O3E N1E 1_555 1_555
N2B C3 1_555 1_555
N2E Co1 1_555 1_555
C2B C1 1_555 1_555
H2B C2B 1_555 1_555
O4E Co1 1_555 1_555
H4E O4E 1_555 1_555
H5E O4E 1_555 1_555
C1 C2 1_555 1_555
N2B C2B 1_555 1_555

#END
