
#######################################################################
#
#                 Cambridge Crystallographic Data Centre
#                                CCDC 
#
#######################################################################
#
# If this CIF has been generated from an entry in the Cambridge 
# Structural Database, then it will include bibliographic, chemical, 
# crystal, experimental, refinement or atomic coordinate data resulting 
# from the CCDC's data processing and validation procedures.
#
#######################################################################

data_LAMCIM
_symmetry_cell_setting           monoclinic
_symmetry_space_group_name_H-M   'I 2/a'
_symmetry_Int_Tables_number      15
_space_group_name_Hall           '-I 2ya'
loop_
_symmetry_equiv_pos_site_id
_symmetry_equiv_pos_as_xyz
1 x,y,z
2 1/2+x,1/2+y,1/2+z
3 1/2-x,y,-z
4 -x,1/2+y,1/2-z
5 -x,-y,-z
6 1/2-x,1/2-y,1/2-z
7 1/2+x,-y,z
8 x,1/2-y,1/2+z
_cell_length_a                   7.3847(4)
_cell_length_b                   11.4970(5)
_cell_length_c                   11.6481(4)
_cell_angle_alpha                90
_cell_angle_beta                 99.125(2)
_cell_angle_gamma                90
_cell_volume                     976.43
loop_
_atom_site_label
_atom_site_type_symbol
_atom_site_fract_x
_atom_site_fract_y
_atom_site_fract_z
Ni1 Ni 0.2500 0.2500 0.2500
N1 N -0.0903(3) 0.16969(17) 0.33896(16)
O1 O 0.0518(2) 0.13907(14) 0.29691(13)
O2 O -0.1956(2) 0.09033(13) 0.36306(13)
O3 O -0.1228(2) 0.27216(14) 0.35514(15)
N2 N 0.2383(2) 0.14958(16) 0.10020(15)
C1 C 0.2359(3) 0.0326(2) 0.09918(19)
H1 H 0.2241 -0.0081 0.1686
C2 C 0.2500 -0.0294(3) 0.0000
H2 H 0.2500 -0.1121 0.0000
C3 C 0.2500 0.2020(3) 0.0000
H3 H 0.2500 0.2846 0.0000
O4 O 0.0723(2) 0.36333(14) 0.15169(14)
H4 H 0.104(3) 0.4324(11) 0.146(2)
H5 H -0.0401(15) 0.365(2) 0.153(2)
Ni1G Ni 0.2500 0.2500 -0.2500
N1E N 0.5903(3) 0.33031(17) 0.16104(16)
O1E O 0.4482(2) 0.36093(14) 0.20309(13)
O2E O 0.6956(2) 0.40967(13) 0.13694(13)
O3E O 0.6228(2) 0.22784(14) 0.14486(15)
N2B N 0.2617(2) 0.14958(16) -0.10020(15)
N2E N 0.2617(2) 0.35042(16) 0.39980(15)
C1B C 0.2641(3) 0.0326(2) -0.09918(19)
H1B H 0.2759 -0.0081 -0.1686
O4E O 0.4277(2) 0.13667(14) 0.34831(14)
H4E H 0.396(3) 0.0676(11) 0.354(2)
H5E H 0.5401(15) 0.135(2) 0.347(2)
loop_
_geom_bond_atom_site_label_1
_geom_bond_atom_site_label_2
_geom_bond_site_symmetry_1
_geom_bond_site_symmetry_2
Ni1 O1 1_555 1_555
N1 O1 1_555 1_555
O2 N1 1_555 1_555
O3 N1 1_555 1_555
N2 Ni1 1_555 1_555
C1 N2 1_555 1_555
H1 C1 1_555 1_555
C2 C1 1_555 1_555
H2 C2 1_555 1_555
C3 N2 1_555 1_555
H3 C3 1_555 1_555
O4 Ni1 1_555 1_555
H4 O4 1_555 1_555
H5 O4 1_555 1_555
Ni1G N2B 1_555 1_555
N1E O1E 1_555 1_555
O1E Ni1 1_555 1_555
O2E N1E 1_555 1_555
O3E N1E 1_555 1_555
N2B C3 1_555 1_555
N2E Ni1 1_555 1_555
C1B C2 1_555 1_555
H1B C1B 1_555 1_555
O4E Ni1 1_555 1_555
H4E O4E 1_555 1_555
H5E O4E 1_555 1_555
N2B C1B 1_555 1_555

#END
