
#######################################################################
#
#                 Cambridge Crystallographic Data Centre
#                                CCDC 
#
#######################################################################
#
# If this CIF has been generated from an entry in the Cambridge 
# Structural Database, then it will include bibliographic, chemical, 
# crystal, experimental, refinement or atomic coordinate data resulting 
# from the CCDC's data processing and validation procedures.
#
#######################################################################

data_LAMCOS
_symmetry_cell_setting           monoclinic
_symmetry_space_group_name_H-M   'I 2/a'
_symmetry_Int_Tables_number      15
_space_group_name_Hall           '-I 2ya'
loop_
_symmetry_equiv_pos_site_id
_symmetry_equiv_pos_as_xyz
1 x,y,z
2 1/2+x,1/2+y,1/2+z
3 1/2-x,y,-z
4 -x,1/2+y,1/2-z
5 -x,-y,-z
6 1/2-x,1/2-y,1/2-z
7 1/2+x,-y,z
8 x,1/2-y,1/2+z
_cell_length_a                   7.4390(6)
_cell_length_b                   11.5804(9)
_cell_length_c                   11.7508(8)
_cell_angle_alpha                90
_cell_angle_beta                 99.699(4)
_cell_angle_gamma                90
_cell_volume                     997.822
loop_
_atom_site_label
_atom_site_type_symbol
_atom_site_fract_x
_atom_site_fract_y
_atom_site_fract_z
Zn1 Zn -0.2500 0.2500 0.2500
N1 N -0.59321(13) 0.33218(9) 0.34029(8)
O1 O -0.45326(12) 0.36370(7) 0.29878(8)
O2 O -0.62357(14) 0.22952(8) 0.35651(9)
O3 O -0.69935(12) 0.41006(7) 0.36366(8)
N2 N -0.26300(13) 0.35417(8) 0.09926(8)
C1 C -0.26507(16) 0.47024(10) 0.09864(10)
H1 H -0.2771 0.5105 0.1674
C2 C -0.2500 0.53233(15) 0.0000
H2 H -0.2500 0.6144 0.0000
C3 C -0.2500 0.30143(14) 0.0000
H3 H -0.2500 0.2194 0.0000
O4 O -0.07197(12) 0.36508(7) 0.35143(8)
H4 H -0.106(2) 0.4327(10) 0.3578(17)
H5 H 0.0407(13) 0.3647(15) 0.3549(17)
Zn1G Zn -0.2500 0.2500 -0.2500
N1E N 0.09321(13) 0.16782(9) 0.15971(8)
O1E O -0.04674(12) 0.13630(7) 0.20122(8)
O2E O 0.12357(14) 0.27048(8) 0.14349(9)
O3E O 0.19935(12) 0.08994(7) 0.13634(8)
N2B N -0.23700(13) 0.35417(8) -0.09926(8)
N2E N -0.23700(13) 0.14583(8) 0.40074(8)
C1B C -0.23493(16) 0.47024(10) -0.09864(10)
H1B H -0.2229 0.5105 -0.1674
O4E O -0.42803(12) 0.13492(7) 0.14857(8)
H4E H -0.394(2) 0.0673(10) 0.1422(17)
H5E H -0.5407(13) 0.1353(15) 0.1451(17)
loop_
_geom_bond_atom_site_label_1
_geom_bond_atom_site_label_2
_geom_bond_site_symmetry_1
_geom_bond_site_symmetry_2
Zn1 O1 1_555 1_555
N1 O1 1_555 1_555
O2 N1 1_555 1_555
O3 N1 1_555 1_555
N2 Zn1 1_555 1_555
C1 N2 1_555 1_555
H1 C1 1_555 1_555
C2 C1 1_555 1_555
H2 C2 1_555 1_555
C3 N2 1_555 1_555
H3 C3 1_555 1_555
O4 Zn1 1_555 1_555
H4 O4 1_555 1_555
H5 O4 1_555 1_555
Zn1G N2B 1_555 1_555
N1E O1E 1_555 1_555
O1E Zn1 1_555 1_555
O2E N1E 1_555 1_555
O3E N1E 1_555 1_555
N2B C3 1_555 1_555
N2E Zn1 1_555 1_555
C1B C2 1_555 1_555
H1B C1B 1_555 1_555
O4E Zn1 1_555 1_555
H4E O4E 1_555 1_555
H5E O4E 1_555 1_555
N2B C1B 1_555 1_555

#END
