
#######################################################################
#
#                 Cambridge Crystallographic Data Centre
#                                CCDC 
#
#######################################################################
#
# If this CIF has been generated from an entry in the Cambridge 
# Structural Database, then it will include bibliographic, chemical, 
# crystal, experimental, refinement or atomic coordinate data resulting 
# from the CCDC's data processing and validation procedures.
#
#######################################################################

data_LAMGUC
_symmetry_cell_setting           triclinic
_symmetry_space_group_name_H-M   'P -1'
_symmetry_Int_Tables_number      2
_space_group_name_Hall           '-P 1'
loop_
_symmetry_equiv_pos_site_id
_symmetry_equiv_pos_as_xyz
1 x,y,z
2 -x,-y,-z
_cell_length_a                   8.00020(10)
_cell_length_b                   8.96160(10)
_cell_length_c                   10.2285(2)
_cell_angle_alpha                71.3330(10)
_cell_angle_beta                 77.7600(10)
_cell_angle_gamma                69.0230(10)
_cell_volume                     644.76
loop_
_atom_site_label
_atom_site_type_symbol
_atom_site_fract_x
_atom_site_fract_y
_atom_site_fract_z
Cu1 Cu 0.11805(3) -0.39450(3) 0.25186(2)
C1 C 0.1782(3) -0.5303(2) -0.0024(2)
H1 H 0.3042 -0.5523 -0.0064
C2 C 0.1102(3) -0.5557(2) -0.1050(2)
N1 N 0.0676(2) -0.4750(2) 0.10210(17)
C3 C 0.2296(3) -0.6280(2) -0.2193(2)
N2 N 0.1367(2) -0.6523(2) -0.29661(17)
O1 O 0.39812(19) -0.66098(19) -0.22902(16)
C4 C 0.2244(3) -0.7356(3) -0.4057(2)
H2 H 0.2980 -0.6723 -0.4756
H3 H 0.3045 -0.8482 -0.3659
C5 C 0.0791(3) -0.7460(2) -0.4729(2)
C6 C 0.1208(3) -0.8116(3) -0.5863(2)
H4 H 0.2424 -0.8492 -0.6247
C7 C -0.0164(4) -0.8217(3) -0.6427(2)
H5 H 0.0096 -0.8658 -0.7205
C8 C -0.1931(3) -0.7662(3) -0.5836(2)
H6 H -0.2896 -0.7721 -0.6201
C9 C -0.2258(3) -0.7025(3) -0.4710(2)
H7 H -0.3464 -0.6648 -0.4307
N3 N -0.0925(2) -0.6921(2) -0.41630(18)
O2 O 0.3779(2) -0.5038(2) 0.24141(19)
H8 H 0.431(4) -0.590(4) 0.221(3)
H9 H 0.445(4) -0.453(4) 0.221(3)
Si1 Si 0.0000 0.0000 0.0000
F1 F 0.15498(18) -0.17403(15) 0.08280(14)
F2 F 0.1185(2) -0.01813(19) -0.15360(14)
F3 F 0.1185(2) 0.11527(17) 0.01368(16)
Cu1A Cu -0.11805(3) -0.60550(3) -0.25186(2)
Cu1A_2 Cu -0.11805(3) 0.39450(3) -0.25186(2)
C1A C -0.1782(3) -0.4697(2) 0.0024(2)
H1A H -0.3042 -0.4477 0.0064
C2A C -0.1102(3) -0.4443(2) 0.1050(2)
N1A N -0.0676(2) -0.5250(2) -0.10210(17)
C3A C -0.2296(3) -0.3720(2) 0.2193(2)
N2A N -0.1367(2) -0.3477(2) 0.29661(17)
O1A O -0.39812(19) -0.33902(19) 0.22902(16)
C4A C -0.2244(3) -0.2644(3) 0.4057(2)
H2A H -0.2980 -0.3277 0.4756
H3A H -0.3045 -0.1518 0.3659
C5A C -0.0791(3) -0.2540(2) 0.4729(2)
C6A C -0.1208(3) -0.1884(3) 0.5863(2)
H4A H -0.2424 -0.1508 0.6247
C7A C 0.0164(4) -0.1783(3) 0.6427(2)
H5A H -0.0096 -0.1342 0.7205
C8A C 0.1931(3) -0.2338(3) 0.5836(2)
H6A H 0.2896 -0.2279 0.6201
C9A C 0.2258(3) -0.2975(3) 0.4710(2)
H7A H 0.3464 -0.3352 0.4307
N3A N 0.0925(2) -0.3079(2) 0.41630(18)
O2A O -0.3779(2) -0.4962(2) -0.24141(19)
H8A H -0.431(4) -0.410(4) -0.221(3)
H9A H -0.445(4) -0.547(4) -0.221(3)
F1A F -0.15498(18) 0.17403(15) -0.08280(14)
F1A_2 F -0.15498(18) -0.82597(15) -0.08280(14)
F2A F -0.1185(2) 0.01813(19) 0.15360(14)
F3A F -0.1185(2) -0.11527(17) -0.01368(16)
O3 O 0.5343(3) -0.7752(3) 0.1690(3)
H10 H 0.491(6) -0.836(6) 0.171(5)
H11 H 0.620(6) -0.809(6) 0.159(5)
O4 O 0.3818(3) -1.0016(2) 0.1837(2)
H12 H 0.329(5) -0.983(4) 0.128(4)
H13 H 0.434(5) -1.082(5) 0.188(4)
loop_
_geom_bond_atom_site_label_1
_geom_bond_atom_site_label_2
_geom_bond_site_symmetry_1
_geom_bond_site_symmetry_2
Cu1 N1 1_555 1_555
C1 H1 1_555 1_555
C2 C1 1_555 1_555
N1 C1 1_555 1_555
C3 C2 1_555 1_555
N2 C3 1_555 1_555
O1 C3 1_555 1_555
C4 N2 1_555 1_555
H2 C4 1_555 1_555
H3 C4 1_555 1_555
C5 C4 1_555 1_555
C6 C5 1_555 1_555
H4 C6 1_555 1_555
C7 C6 1_555 1_555
H5 C7 1_555 1_555
C8 C7 1_555 1_555
H6 C8 1_555 1_555
C9 C8 1_555 1_555
H7 C9 1_555 1_555
N3 C5 1_555 1_555
O2 Cu1 1_555 1_555
H8 O2 1_555 1_555
H9 O2 1_555 1_555
Si1 F1 1_555 1_555
F1 Cu1 1_555 1_555
F2 Si1 1_555 1_555
F3 Si1 1_555 1_555
O3 H10 1_555 1_555
H11 O3 1_555 1_555
O4 H12 1_555 1_555
H13 O4 1_555 1_555
Cu1A N2 1_555 1_555
Cu1A_2 F1A 1_555 1_555
C1A H1A 1_555 1_555
C2A N1 1_555 1_555
N1A C2 1_555 1_555
C3A C2A 1_555 1_555
N2A Cu1 1_555 1_555
O1A C3A 1_555 1_555
C4A N2A 1_555 1_555
H2A C4A 1_555 1_555
H3A C4A 1_555 1_555
C5A C4A 1_555 1_555
C6A C5A 1_555 1_555
H4A C6A 1_555 1_555
C7A C6A 1_555 1_555
H5A C7A 1_555 1_555
C8A C7A 1_555 1_555
H6A C8A 1_555 1_555
C9A C8A 1_555 1_555
H7A C9A 1_555 1_555
N3A Cu1 1_555 1_555
O2A Cu1A 1_555 1_555
H8A O2A 1_555 1_555
H9A O2A 1_555 1_555
F1A Si1 1_555 1_555
F1A_2 Cu1A 1_555 1_555
F2A Si1 1_555 1_555
F3A Si1 1_555 1_555
C9 N3 1_555 1_555
N3 Cu1A 1_555 1_555
Cu1A N1A 1_555 1_555
C1A C2A 1_555 1_555
C1A N1A 1_555 1_555
C3A N2A 1_555 1_555
C5A N3A 1_555 1_555
C9A N3A 1_555 1_555

#END
