
#######################################################################
#
#                 Cambridge Crystallographic Data Centre
#                                CCDC 
#
#######################################################################
#
# If this CIF has been generated from an entry in the Cambridge 
# Structural Database, then it will include bibliographic, chemical, 
# crystal, experimental, refinement or atomic coordinate data resulting 
# from the CCDC's data processing and validation procedures.
#
#######################################################################

data_LAMKUH
_symmetry_cell_setting           triclinic
_symmetry_space_group_name_H-M   'P -1'
_symmetry_Int_Tables_number      2
_space_group_name_Hall           '-P 1'
loop_
_symmetry_equiv_pos_site_id
_symmetry_equiv_pos_as_xyz
1 x,y,z
2 -x,-y,-z
_cell_length_a                   5.6070(11)
_cell_length_b                   9.811(2)
_cell_length_c                   11.679(2)
_cell_angle_alpha                67.44(3)
_cell_angle_beta                 81.93(3)
_cell_angle_gamma                84.28(3)
_cell_volume                     586.689
loop_
_atom_site_label
_atom_site_type_symbol
_atom_site_fract_x
_atom_site_fract_y
_atom_site_fract_z
Cd1 Cd 0.0000 1.0000 0.0000
O1 O -0.1591(9) 0.2034(5) 0.4718(4)
O2 O 0.1354(7) 0.1984(4) 0.5719(3)
O3 O 0.0654(5) 1.1593(3) 0.0984(3)
N1 N 0.6524(5) 0.9163(3) 0.1262(3)
N2 N 0.2627(5) 0.8176(3) 0.1293(3)
N3 N 0.0180(6) 0.2570(4) 0.4842(3)
N4 N 0.3441(5) 1.1798(4) 0.2129(3)
C1 C 0.2102(5) 0.6769(3) 0.2158(3)
C2 C 0.3446(6) 0.6018(4) 0.3172(3)
H1 H 0.4765 0.6457 0.3264
C3 C 0.2838(7) 0.4640(4) 0.4033(3)
H2 H 0.3748 0.4149 0.4694
C4 C 0.0864(6) 0.4002(4) 0.3899(3)
C5 C -0.0458(6) 0.4682(4) 0.2903(4)
H3 H -0.1761 0.4225 0.2818
C6 C 0.0172(6) 0.6057(4) 0.2026(4)
H4 H -0.0697 0.6511 0.1344
C7 C 0.4701(5) 0.8656(4) 0.1296(3)
C8 C 0.1668(6) 1.1147(4) 0.1947(4)
H5 H 0.1137 1.0288 0.2590
C9 C 0.4414(9) 1.3125(5) 0.1153(5)
H6 H 0.6050 1.2913 0.0873
H7 H 0.4371 1.3892 0.1476
H8 H 0.3461 1.3444 0.0466
C10 C 0.4716(9) 1.1095(6) 0.3235(5)
H9 H 0.3882 1.0246 0.3806
H10 H 0.4778 1.1784 0.3631
H11 H 0.6327 1.0793 0.2994
Cd1_2 Cd -1.0000 1.0000 0.0000
Cd1_3 Cd 1.0000 1.0000 0.0000
O1A O 0.1591(9) 1.7966(5) -0.4718(4)
O2A O -0.1354(7) 1.8016(4) -0.5719(3)
O3A O -0.0654(5) 0.8407(3) -0.0984(3)
N1A N -0.6524(5) 1.0837(3) -0.1262(3)
N1_2 N -0.3476(5) 0.9163(3) 0.1262(3)
N1A_2 N 0.3476(5) 1.0837(3) -0.1262(3)
N2A N -0.2627(5) 1.1824(3) -0.1293(3)
N3A N -0.0180(6) 1.7430(4) -0.4842(3)
N4A N -0.3441(5) 0.8202(4) -0.2129(3)
C1A C -0.2102(5) 1.3231(3) -0.2158(3)
C2A C -0.3446(6) 1.3982(4) -0.3172(3)
H1A H -0.4765 1.3543 -0.3264
C3A C -0.2838(7) 1.5360(4) -0.4033(3)
H2A H -0.3748 1.5851 -0.4694
C4A C -0.0864(6) 1.5998(4) -0.3899(3)
C5A C 0.0458(6) 1.5318(4) -0.2903(4)
H3A H 0.1761 1.5775 -0.2818
C6A C -0.0172(6) 1.3943(4) -0.2026(4)
H4A H 0.0697 1.3489 -0.1344
C7A C -0.4701(5) 1.1344(4) -0.1296(3)
C8A C -0.1668(6) 0.8853(4) -0.1947(4)
H5A H -0.1137 0.9712 -0.2590
C9A C -0.4414(9) 0.6875(5) -0.1153(5)
H6A H -0.6050 0.7087 -0.0873
H7A H -0.4371 0.6108 -0.1476
H8A H -0.3461 0.6556 -0.0466
C10A C -0.4716(9) 0.8905(6) -0.3235(5)
H9A H -0.3882 0.9754 -0.3806
H10A H -0.4778 0.8216 -0.3631
H11A H -0.6327 0.9207 -0.2994
loop_
_geom_bond_atom_site_label_1
_geom_bond_atom_site_label_2
_geom_bond_site_symmetry_1
_geom_bond_site_symmetry_2
Cd1 O3 1_555 1_555
O1 N3 1_555 1_555
O2 N3 1_555 1_555
O3 C8 1_555 1_555
N1 C7 1_555 1_555
N2 Cd1 1_555 1_555
N3 C4 1_555 1_555
N4 C8 1_555 1_555
C1 N2 1_555 1_555
C2 C1 1_555 1_555
H1 C2 1_555 1_555
C3 C2 1_555 1_555
H2 C3 1_555 1_555
C4 C3 1_555 1_555
C5 C4 1_555 1_555
H3 C5 1_555 1_555
C6 C1 1_555 1_555
H4 C6 1_555 1_555
C7 N2 1_555 1_555
C8 H5 1_555 1_555
C9 N4 1_555 1_555
H6 C9 1_555 1_555
H7 C9 1_555 1_555
H8 C9 1_555 1_555
C10 N4 1_555 1_555
H9 C10 1_555 1_555
H10 C10 1_555 1_555
H11 C10 1_555 1_555
Cd1_2 N1A 1_555 1_555
Cd1_3 N1 1_555 1_555
O1A N3A 1_555 1_555
O2A N3A 1_555 1_555
O3A Cd1 1_555 1_555
N1A C7A 1_555 1_555
N1_2 Cd1 1_555 1_555
N1A_2 Cd1 1_555 1_555
N2A Cd1 1_555 1_555
N3A C4A 1_555 1_555
N4A C8A 1_555 1_555
C1A N2A 1_555 1_555
C2A C1A 1_555 1_555
H1A C2A 1_555 1_555
C3A C2A 1_555 1_555
H2A C3A 1_555 1_555
C4A C3A 1_555 1_555
C5A C4A 1_555 1_555
H3A C5A 1_555 1_555
C6A C1A 1_555 1_555
H4A C6A 1_555 1_555
C7A N2A 1_555 1_555
C8A O3A 1_555 1_555
H5A C8A 1_555 1_555
C9A N4A 1_555 1_555
H6A C9A 1_555 1_555
H7A C9A 1_555 1_555
H8A C9A 1_555 1_555
C10A N4A 1_555 1_555
H9A C10A 1_555 1_555
H10A C10A 1_555 1_555
H11A C10A 1_555 1_555
C5 C6 1_555 1_555
C5A C6A 1_555 1_555

#END
