
#######################################################################
#
#                 Cambridge Crystallographic Data Centre
#                                CCDC 
#
#######################################################################
#
# If this CIF has been generated from an entry in the Cambridge 
# Structural Database, then it will include bibliographic, chemical, 
# crystal, experimental, refinement or atomic coordinate data resulting 
# from the CCDC's data processing and validation procedures.
#
#######################################################################

data_LAMLIW
_symmetry_cell_setting           triclinic
_symmetry_space_group_name_H-M   'P -1'
_symmetry_Int_Tables_number      2
_space_group_name_Hall           '-P 1'
loop_
_symmetry_equiv_pos_site_id
_symmetry_equiv_pos_as_xyz
1 x,y,z
2 -x,-y,-z
_cell_length_a                   8.8852(3)
_cell_length_b                   9.7465(3)
_cell_length_c                   11.1570(3)
_cell_angle_alpha                109.427(3)
_cell_angle_beta                 99.019(3)
_cell_angle_gamma                106.199(3)
_cell_volume                     841.131
loop_
_atom_site_label
_atom_site_type_symbol
_atom_site_fract_x
_atom_site_fract_y
_atom_site_fract_z
Pb1 Pb 0.526354(11) 0.321866(10) 0.619700(8)
Cl1 Cl 1.10668(9) 0.71315(9) 0.63924(7)
Cl2 Cl 0.92529(9) 0.85568(8) 0.80608(7)
Cl3 Cl 0.89253(10) 0.85230(9) 0.54481(7)
O1 O 0.7927(2) 0.5079(2) 0.66123(18)
O2 O 0.6722(3) 0.5436(2) 0.4883(2)
O3 O 0.6734(2) 0.1262(2) 0.54516(18)
O4 O 0.5454(2) 0.1386(2) 0.36793(18)
O5 O 0.6385(3) -0.0491(2) 0.35098(19)
N1 N 0.5609(3) 0.5650(3) 0.8223(2)
N2 N 0.6794(3) 0.3366(3) 0.8360(2)
N3 N 0.6188(3) 0.0712(3) 0.4200(2)
C1 C 0.5074(3) 0.6760(3) 0.8136(3)
H1 H 0.4390 0.6586 0.7314
C2 C 0.5473(4) 0.8182(3) 0.9205(3)
H2 H 0.5091 0.8964 0.9098
C3 C 0.6421(4) 0.8433(3) 1.0406(3)
H3 H 0.6673 0.9378 1.1147
C4 C 0.7023(3) 0.7275(3) 1.0538(3)
C5 C 0.6586(3) 0.5890(3) 0.9403(3)
C6 C 0.7343(3) 0.2258(3) 0.8442(3)
H4 H 0.7036 0.1326 0.7676
C7 C 0.8356(4) 0.2399(3) 0.9606(3)
H5 H 0.8731 0.1580 0.9619
C8 C 0.8803(3) 0.3727(3) 1.0725(3)
H6 H 0.9508 0.3849 1.1517
C9 C 0.8205(3) 0.4908(3) 1.0688(3)
C10 C 0.7198(3) 0.4687(3) 0.9475(2)
C11 C 0.8037(4) 0.7453(3) 1.1749(3)
H7 H 0.8318 0.8382 1.2512
C12 C 0.8606(3) 0.6330(3) 1.1830(3)
H8 H 0.9277 0.6478 1.2648
C13 C 0.7796(3) 0.5824(3) 0.5894(3)
C14 C 0.9201(3) 0.7446(3) 0.6404(3)
Pb1A Pb 0.473646(11) 0.678134(10) 0.380300(8)
Pb1A_2 Pb 0.473646(11) -0.321866(10) 0.380300(8)
O2A O 0.3278(3) 0.4564(2) 0.5117(2)
O5A O 0.3615(3) 0.0491(2) 0.64902(19)
loop_
_geom_bond_atom_site_label_1
_geom_bond_atom_site_label_2
_geom_bond_site_symmetry_1
_geom_bond_site_symmetry_2
Pb1 O1 1_555 1_555
Cl1 C14 1_555 1_555
Cl2 C14 1_555 1_555
Cl3 C14 1_555 1_555
O1 C13 1_555 1_555
O2 C13 1_555 1_555
O3 Pb1 1_555 1_555
O4 Pb1 1_555 1_555
O5 N3 1_555 1_555
N1 Pb1 1_555 1_555
N2 Pb1 1_555 1_555
N3 O3 1_555 1_555
C1 N1 1_555 1_555
H1 C1 1_555 1_555
C2 C1 1_555 1_555
H2 C2 1_555 1_555
C3 C2 1_555 1_555
H3 C3 1_555 1_555
C4 C3 1_555 1_555
C5 N1 1_555 1_555
C6 N2 1_555 1_555
H4 C6 1_555 1_555
C7 C6 1_555 1_555
H5 C7 1_555 1_555
C8 C7 1_555 1_555
H6 C8 1_555 1_555
C9 C8 1_555 1_555
C10 N2 1_555 1_555
C11 C4 1_555 1_555
H7 C11 1_555 1_555
C12 C9 1_555 1_555
H8 C12 1_555 1_555
C13 C14 1_555 1_555
Pb1A O2 1_555 1_555
Pb1A_2 O5 1_555 1_555
O2A Pb1 1_555 1_555
O5A Pb1 1_555 1_555
O4 N3 1_555 1_555
C4 C5 1_555 1_555
C5 C10 1_555 1_555
C9 C10 1_555 1_555
C11 C12 1_555 1_555

#END
