
#######################################################################
#
#                 Cambridge Crystallographic Data Centre
#                                CCDC 
#
#######################################################################
#
# If this CIF has been generated from an entry in the Cambridge 
# Structural Database, then it will include bibliographic, chemical, 
# crystal, experimental, refinement or atomic coordinate data resulting 
# from the CCDC's data processing and validation procedures.
#
#######################################################################

data_LAMNIY
_symmetry_cell_setting           triclinic
_symmetry_space_group_name_H-M   'P -1'
_symmetry_Int_Tables_number      2
_space_group_name_Hall           '-P 1'
loop_
_symmetry_equiv_pos_site_id
_symmetry_equiv_pos_as_xyz
1 x,y,z
2 -x,-y,-z
_cell_length_a                   7.3626(2)
_cell_length_b                   12.1382(3)
_cell_length_c                   12.1789(3)
_cell_angle_alpha                67.165(2)
_cell_angle_beta                 74.192(3)
_cell_angle_gamma                88.921(3)
_cell_volume                     960.528
loop_
_atom_site_label
_atom_site_type_symbol
_atom_site_fract_x
_atom_site_fract_y
_atom_site_fract_z
Pb1 Pb 0.030913(12) 0.835470(8) 0.138812(8)
O1 O 0.1928(3) 0.62307(19) 0.21830(19)
O2 O 0.2876(3) 0.79500(18) 0.21917(19)
O3 O 0.8367(3) 0.7102(2) 0.40132(19)
H1 H 0.765(6) 0.748(4) 0.440(4)
O4 O 0.0065(3) 0.98903(19) 0.25722(19)
O5 O 0.1523(3) 1.03718(18) 0.05741(18)
O6 O 0.0703(3) 1.3836(2) 0.3029(2)
H2 H 0.111(7) 1.442(5) 0.294(5)
O7 O 0.6149(3) 0.7967(2) -0.4465(2)
N1 N 0.2801(3) 0.8592(2) -0.0646(2)
N2 N 0.7553(4) 0.9791(3) -0.4941(2)
H5 H 0.830(5) 0.981(4) -0.561(3)
H6 H 0.769(6) 1.035(3) -0.471(4)
C1 C 0.3015(4) 0.6828(3) 0.2424(2)
C2 C 0.4561(4) 0.6274(2) 0.2976(2)
C3 C 0.5721(4) 0.6960(3) 0.3251(2)
H7 H 0.5529 0.7759 0.3098
C4 C 0.7168(4) 0.6450(3) 0.3754(2)
C5 C 0.7482(4) 0.5263(3) 0.3954(2)
H8 H 0.8481 0.4931 0.4262
C6 C 0.6310(4) 0.4575(3) 0.3697(3)
H9 H 0.6502 0.3775 0.3853
C7 C 0.4846(4) 0.5077(3) 0.3203(2)
H10 H 0.4063 0.4617 0.3026
C8 C 0.0990(4) 1.0640(3) 0.1532(3)
C9 C 0.1525(4) 1.1908(3) 0.1322(3)
C10 C 0.0883(4) 1.2299(3) 0.2284(3)
H11 H 0.0149 1.1770 0.3063
C11 C 0.1341(4) 1.3476(3) 0.2076(3)
C12 C 0.2455(5) 1.4274(3) 0.0911(3)
H12 H 0.2756 1.5067 0.0771
C13 C 0.3106(5) 1.3867(3) -0.0033(3)
H13 H 0.3856 1.4392 -0.0808
C14 C 0.2653(4) 1.2688(3) 0.0164(3)
H14 H 0.3101 1.2422 -0.0473
C15 C 0.4005(4) 0.9580(3) -0.1397(3)
H15 H 0.4060 1.0194 -0.1128
C16 C 0.5163(4) 0.9719(3) -0.2555(3)
H16 H 0.5959 1.0422 -0.3058
C17 C 0.5126(4) 0.8796(3) -0.2960(3)
C18 C 0.3894(4) 0.7765(3) -0.2170(3)
H17 H 0.3832 0.7127 -0.2406
C19 C 0.2766(4) 0.7705(3) -0.1032(3)
H18 H 0.1946 0.7016 -0.0512
C20 C 0.6331(4) 0.8831(3) -0.4197(3)
Pb1_2 Pb 1.030913(12) 0.835470(8) 0.138812(8)
Pb1A Pb -0.030913(12) 1.164530(8) -0.138812(8)
O3_2 O -0.1633(3) 0.7102(2) 0.40132(19)
H1_2 H -0.235(6) 0.748(4) 0.440(4)
O5A O -0.1523(3) 0.96282(18) -0.05741(18)
O8 O -0.1509(3) 0.1982(2) 0.5265(2)
H3 H -0.066(6) 0.260(3) 0.473(4)
H4 H -0.127(8) 0.204(5) 0.590(4)
loop_
_geom_bond_atom_site_label_1
_geom_bond_atom_site_label_2
_geom_bond_site_symmetry_1
_geom_bond_site_symmetry_2
Pb1 O1 1_555 1_555
O1 C1 1_555 1_555
O2 Pb1 1_555 1_555
O3 H1 1_555 1_555
O4 Pb1 1_555 1_555
O5 Pb1 1_555 1_555
O6 H2 1_555 1_555
O7 C20 1_555 1_555
O8 H3 1_555 1_555
H4 O8 1_555 1_555
N1 Pb1 1_555 1_555
N2 H5 1_555 1_555
H6 N2 1_555 1_555
C1 O2 1_555 1_555
C2 C1 1_555 1_555
C3 C2 1_555 1_555
H7 C3 1_555 1_555
C4 O3 1_555 1_555
C5 C4 1_555 1_555
H8 C5 1_555 1_555
C6 C5 1_555 1_555
H9 C6 1_555 1_555
C7 C2 1_555 1_555
H10 C7 1_555 1_555
C8 O4 1_555 1_555
C9 C8 1_555 1_555
C10 C9 1_555 1_555
H11 C10 1_555 1_555
C11 O6 1_555 1_555
C12 C11 1_555 1_555
H12 C12 1_555 1_555
C13 C12 1_555 1_555
H13 C13 1_555 1_555
C14 C9 1_555 1_555
H14 C14 1_555 1_555
C15 N1 1_555 1_555
H15 C15 1_555 1_555
C16 C15 1_555 1_555
H16 C16 1_555 1_555
C17 C16 1_555 1_555
C18 C17 1_555 1_555
H17 C18 1_555 1_555
C19 N1 1_555 1_555
H18 C19 1_555 1_555
C20 N2 1_555 1_555
Pb1_2 O3 1_555 1_555
Pb1A O5 1_555 1_555
O3_2 Pb1 1_555 1_555
H1_2 O3_2 1_555 1_555
O5A Pb1 1_555 1_555
O5 C8 1_555 1_555
C3 C4 1_555 1_555
C6 C7 1_555 1_555
C10 C11 1_555 1_555
C13 C14 1_555 1_555
C17 C20 1_555 1_555
C18 C19 1_555 1_555
Pb1A O5A 1_555 1_555

#END
