
#######################################################################
#
#                 Cambridge Crystallographic Data Centre
#                                CCDC 
#
#######################################################################
#
# If this CIF has been generated from an entry in the Cambridge 
# Structural Database, then it will include bibliographic, chemical, 
# crystal, experimental, refinement or atomic coordinate data resulting 
# from the CCDC's data processing and validation procedures.
#
#######################################################################

data_LAMPAR
_symmetry_cell_setting           monoclinic
_symmetry_space_group_name_H-M   'P 21/n'
_symmetry_Int_Tables_number      14
_space_group_name_Hall           '-P 2yn'
loop_
_symmetry_equiv_pos_site_id
_symmetry_equiv_pos_as_xyz
1 x,y,z
2 1/2-x,1/2+y,1/2-z
3 -x,-y,-z
4 1/2+x,1/2-y,1/2+z
_cell_length_a                   11.480(2)
_cell_length_b                   11.885(2)
_cell_length_c                   12.939(3)
_cell_angle_alpha                90
_cell_angle_beta                 110.55(3)
_cell_angle_gamma                90
_cell_volume                     1653.06
loop_
_atom_site_label
_atom_site_type_symbol
_atom_site_fract_x
_atom_site_fract_y
_atom_site_fract_z
Co1 Co -0.45315(3) 0.41666(2) 0.17656(2)
N1 N -0.38555(18) 0.51688(15) 0.32802(14)
N2 N -0.61812(17) 0.48988(14) 0.18452(14)
N3 N -0.27201(16) 0.34355(13) 0.21176(13)
N4 N -0.03063(16) 0.26879(15) 0.31897(14)
O1 O -0.34762(14) 0.14330(13) 0.37871(12)
O2 O -0.45986(13) 0.27783(12) 0.26930(11)
O3 O -0.04394(14) 0.17806(11) 0.53227(11)
O4 O -0.09944(13) 0.03985(11) 0.40832(11)
C1 C -0.2696(3) 0.5341(2) 0.3957(2)
C2 C -0.2402(4) 0.6006(3) 0.4911(3)
C3 C -0.3331(4) 0.6490(3) 0.5166(2)
C4 C -0.4573(3) 0.6350(2) 0.44690(19)
C5 C -0.5602(4) 0.6870(3) 0.4645(3)
C6 C -0.6762(4) 0.6740(3) 0.3938(3)
C7 C -0.7017(3) 0.6069(2) 0.2954(2)
C8 C -0.8195(3) 0.5927(3) 0.2177(3)
C9 C -0.8356(3) 0.5281(3) 0.1266(3)
C10 C -0.7323(2) 0.4780(2) 0.1127(2)
C11 C -0.6027(2) 0.55313(18) 0.27574(18)
C12 C -0.4784(2) 0.56729(17) 0.35205(18)
C13 C -0.1780(2) 0.38364(19) 0.18474(19)
C14 C -0.0580(2) 0.3459(2) 0.2384(2)
C15 C -0.12495(18) 0.22795(15) 0.34447(15)
C16 C -0.24751(18) 0.26405(15) 0.29017(14)
C17 C -0.36016(18) 0.22366(16) 0.31574(15)
C18 C -0.08744(18) 0.14044(15) 0.43553(15)
H1 H -0.202(2) 0.503(2) 0.374(2)
H2 H -0.156(3) 0.607(2) 0.535(3)
H3 H -0.326(3) 0.696(3) 0.576(3)
H4 H -0.547(3) 0.730(3) 0.529(2)
H5 H -0.744(3) 0.700(2) 0.407(2)
H6 H -0.893(4) 0.634(3) 0.222(3)
H7 H -0.920(3) 0.522(3) 0.077(2)
H8 H -0.737(2) 0.440(2) 0.055(2)
H9 H -0.196(2) 0.4362(19) 0.130(2)
H10 H 0.005(2) 0.3737(19) 0.2223(18)
Co1C Co 0.04685(3) 0.08334(2) 0.67656(2)
Co1A Co -0.04685(3) -0.08334(2) 0.32344(2)
O3C O -0.54394(14) 0.32194(11) 0.03227(11)
O4A O -0.40056(13) 0.53985(11) 0.09168(11)
O5 O -0.5161(3) -0.9151(2) 0.0811(3)
loop_
_geom_bond_atom_site_label_1
_geom_bond_atom_site_label_2
_geom_bond_site_symmetry_1
_geom_bond_site_symmetry_2
Co1 N1 1_555 1_555
N1 C1 1_555 1_555
N2 Co1 1_555 1_555
N3 Co1 1_555 1_555
N4 C14 1_555 1_555
O1 C17 1_555 1_555
O2 Co1 1_555 1_555
O3 C18 1_555 1_555
O4 C18 1_555 1_555
C1 C2 1_555 1_555
C2 C3 1_555 1_555
C3 C4 1_555 1_555
C4 C5 1_555 1_555
C5 C6 1_555 1_555
C6 C7 1_555 1_555
C7 C8 1_555 1_555
C8 C9 1_555 1_555
C9 C10 1_555 1_555
C10 N2 1_555 1_555
C11 N2 1_555 1_555
C12 N1 1_555 1_555
C13 N3 1_555 1_555
C14 C13 1_555 1_555
C15 N4 1_555 1_555
C16 N3 1_555 1_555
C17 O2 1_555 1_555
C18 C15 1_555 1_555
H1 C1 1_555 1_555
H2 C2 1_555 1_555
H3 C3 1_555 1_555
H4 C5 1_555 1_555
H5 C6 1_555 1_555
H6 C8 1_555 1_555
H7 C9 1_555 1_555
H8 C10 1_555 1_555
H9 C13 1_555 1_555
H10 C14 1_555 1_555
Co1C O3 1_555 1_555
Co1A O4 1_555 1_555
O3C Co1 1_555 1_555
O4A Co1 1_555 1_555
C4 C12 1_555 1_555
C7 C11 1_555 1_555
C11 C12 1_555 1_555
C15 C16 1_555 1_555
C16 C17 1_555 1_555

#END
