
#######################################################################
#
#                 Cambridge Crystallographic Data Centre
#                                CCDC 
#
#######################################################################
#
# If this CIF has been generated from an entry in the Cambridge 
# Structural Database, then it will include bibliographic, chemical, 
# crystal, experimental, refinement or atomic coordinate data resulting 
# from the CCDC's data processing and validation procedures.
#
#######################################################################

data_LAMPOG
_symmetry_cell_setting           monoclinic
_symmetry_space_group_name_H-M   'C 2'
_symmetry_Int_Tables_number      5
_space_group_name_Hall           'C 2y'
loop_
_symmetry_equiv_pos_site_id
_symmetry_equiv_pos_as_xyz
1 x,y,z
2 -x,y,-z
3 1/2+x,1/2+y,z
4 1/2-x,1/2+y,-z
_cell_length_a                   11.9274(11)
_cell_length_b                   5.3995(5)
_cell_length_c                   14.8194(14)
_cell_angle_alpha                90
_cell_angle_beta                 111.6920(10)
_cell_angle_gamma                90
_cell_volume                     886.812
loop_
_atom_site_label
_atom_site_type_symbol
_atom_site_fract_x
_atom_site_fract_y
_atom_site_fract_z
Cd1 Cd 1.0000 -0.5416 0.5000
S1 S 0.5000 0.8539(2) 0.0000
O1 O 0.7967(2) 0.1490(5) 0.2934(2)
O2 O 0.9342(2) -0.2296(5) 0.38439(17)
O3 O 0.7996(2) -0.3705(5) 0.44023(18)
O4 O 1.0681(2) -0.8139(5) 0.4240(2)
H1 H 1.1352 -0.8433 0.4183
H2 H 1.0227 -0.9369 0.3993
O5 O 0.4191(2) 0.9887(8) 0.03394(16)
C1 C 0.7421(3) -0.0213(13) 0.3363(2)
H3 H 0.6732 -0.0974 0.2865
H4 H 0.7134 0.0647 0.3811
C2 C 0.8317(3) -0.2201(7) 0.3903(2)
C3 C 0.7219(3) 0.3149(7) 0.2293(3)
C4 C 0.6016(3) 0.3498(7) 0.2148(3)
H5 H 0.5662 0.2610 0.2510
C5 C 0.5347(3) 0.5185(6) 0.1457(2)
H6 H 0.4537 0.5432 0.1353
C6 C 0.5877(3) 0.6509(7) 0.0921(2)
C7 C 0.7089(3) 0.6174(7) 0.1081(3)
H7 H 0.7450 0.7081 0.0728
C8 C 0.7754(3) 0.4480(16) 0.1770(2)
H8 H 0.8567 0.4240 0.1880
Cd1_2 Cd 0.0000 -0.5416 -0.5000
O1A O 0.2033(2) 0.1490(5) -0.2934(2)
O2A O 0.0658(2) -0.2296(5) -0.38439(17)
O2A_2 O 1.0658(2) -0.2296(5) 0.61561(17)
O3A O 0.2004(2) -0.3705(5) -0.44023(18)
O3A_2 O 1.2004(2) -0.3705(5) 0.55977(18)
O4A O 0.9319(2) -0.8139(5) 0.5760(2)
H1A H 0.8648 -0.8433 0.5817
H2A H 0.9773 -0.9369 0.6007
O5A O 0.5809(2) 0.9887(8) -0.03394(16)
C1A C 0.2579(3) -0.0213(13) -0.3363(2)
H3A H 0.3268 -0.0974 -0.2865
H4A H 0.2866 0.0647 -0.3811
C2A C 0.1683(3) -0.2201(7) -0.3903(2)
C3A C 0.2781(3) 0.3149(7) -0.2293(3)
C4A C 0.3984(3) 0.3498(7) -0.2148(3)
H5A H 0.4338 0.2610 -0.2510
C5A C 0.4653(3) 0.5185(6) -0.1457(2)
H6A H 0.5463 0.5432 -0.1353
C6A C 0.4123(3) 0.6509(7) -0.0921(2)
C7A C 0.2911(3) 0.6174(7) -0.1081(3)
H7A H 0.2550 0.7081 -0.0728
C8A C 0.2246(3) 0.4480(16) -0.1770(2)
H8A H 0.1433 0.4240 -0.1880
loop_
_geom_bond_atom_site_label_1
_geom_bond_atom_site_label_2
_geom_bond_site_symmetry_1
_geom_bond_site_symmetry_2
Cd1 O2 1_555 1_555
S1 O5 1_555 1_555
O1 C1 1_555 1_555
O2 C2 1_555 1_555
O3 Cd1 1_555 1_555
O4 Cd1 1_555 1_555
H1 O4 1_555 1_555
H2 O4 1_555 1_555
C1 H3 1_555 1_555
H4 C1 1_555 1_555
C2 O3 1_555 1_555
C3 O1 1_555 1_555
C4 C3 1_555 1_555
H5 C4 1_555 1_555
C5 C4 1_555 1_555
H6 C5 1_555 1_555
C6 S1 1_555 1_555
C7 C6 1_555 1_555
H7 C7 1_555 1_555
C8 C3 1_555 1_555
H8 C8 1_555 1_555
Cd1_2 O2A 1_555 1_555
O1A C1A 1_555 1_555
O2A C2A 1_555 1_555
O2A_2 Cd1 1_555 1_555
O3A Cd1_2 1_555 1_555
O3A_2 Cd1 1_555 1_555
O4A Cd1 1_555 1_555
H1A O4A 1_555 1_555
H2A O4A 1_555 1_555
O5A S1 1_555 1_555
C1A H3A 1_555 1_555
H4A C1A 1_555 1_555
C2A O3A 1_555 1_555
C3A O1A 1_555 1_555
C4A C3A 1_555 1_555
H5A C4A 1_555 1_555
C5A C4A 1_555 1_555
H6A C5A 1_555 1_555
C6A S1 1_555 1_555
C7A C6A 1_555 1_555
H7A C7A 1_555 1_555
C8A C3A 1_555 1_555
H8A C8A 1_555 1_555
C1 C2 1_555 1_555
C5 C6 1_555 1_555
C7 C8 1_555 1_555
C1A C2A 1_555 1_555
C5A C6A 1_555 1_555
C7A C8A 1_555 1_555

#END
