
#######################################################################
#
#                 Cambridge Crystallographic Data Centre
#                                CCDC 
#
#######################################################################
#
# If this CIF has been generated from an entry in the Cambridge 
# Structural Database, then it will include bibliographic, chemical, 
# crystal, experimental, refinement or atomic coordinate data resulting 
# from the CCDC's data processing and validation procedures.
#
#######################################################################

data_LAMPAS
_symmetry_cell_setting           monoclinic
_symmetry_space_group_name_H-M   'P 21/c'
_symmetry_Int_Tables_number      14
_space_group_name_Hall           '-P 2ybc'
loop_
_symmetry_equiv_pos_site_id
_symmetry_equiv_pos_as_xyz
1 x,y,z
2 -x,1/2+y,1/2-z
3 -x,-y,-z
4 x,1/2-y,1/2+z
_cell_length_a                   8.375(2)
_cell_length_b                   16.005(4)
_cell_length_c                   14.057(4)
_cell_angle_alpha                90
_cell_angle_beta                 102.618(4)
_cell_angle_gamma                90
_cell_volume                     1838.72
loop_
_atom_site_label
_atom_site_type_symbol
_atom_site_fract_x
_atom_site_fract_y
_atom_site_fract_z
Zn1 Zn 0.37841(3) 0.207619(14) 0.455381(16)
O1 O 0.40470(16) 0.33302(8) 0.29849(10)
O2 O 0.21557(17) 0.27506(9) 0.36867(10)
O3 O 0.25521(18) 0.36236(9) 0.02871(10)
O4 O 0.21554(18) 0.24772(9) 0.11179(10)
O5 O 0.1941(2) 0.44350(11) 0.44209(11)
O6 O -0.0626(2) 0.41913(11) 0.43565(12)
N1 N 0.4567(2) 0.12574(10) 0.36701(12)
N2 N 0.4793(2) 0.05951(11) 0.23352(12)
N3 N 0.5739(2) 0.25540(11) 0.54444(12)
N4 N 0.7568(2) 0.28401(11) 0.67687(13)
N5 N 0.0545(2) 0.42875(11) 0.39749(13)
C1 C 0.2635(2) 0.32439(12) 0.30897(13)
C2 C 0.1264(2) 0.37573(12) 0.24794(14)
C3 C 0.0247(3) 0.42461(13) 0.29116(15)
C4 C -0.0997(3) 0.47334(15) 0.23928(17)
H1 H -0.1657 0.5046 0.2712
C5 C -0.1245(3) 0.47481(16) 0.13908(17)
H2 H -0.2058 0.5085 0.1026
C6 C -0.0277(3) 0.42597(14) 0.09312(16)
H3 H -0.0457 0.4265 0.0255
C7 C 0.0960(2) 0.37607(12) 0.14624(14)
C8 C 0.1969(2) 0.32282(13) 0.09277(14)
C9 C 0.4173(2) 0.12626(12) 0.27040(15)
H4 H 0.3547 0.1675 0.2331
C10 C 0.5501(3) 0.05407(14) 0.39165(16)
H5 H 0.5967 0.0371 0.4549
C11 C 0.5631(3) 0.01286(14) 0.31019(16)
H6 H 0.6178 -0.0372 0.3066
C12 C 0.4611(3) 0.03974(15) 0.13012(16)
H7 H 0.3992 0.0830 0.0914
H8 H 0.4050 -0.0126 0.1161
H9 H 0.5673 0.0358 0.1150
C13 C 0.6139(3) 0.24697(13) 0.64004(15)
H10 H 0.5510 0.2190 0.6768
C14 C 0.6993(3) 0.30033(14) 0.51958(17)
H11 H 0.7046 0.3160 0.4566
C15 C 0.8124(3) 0.31792(15) 0.60038(17)
H12 H 0.9094 0.3473 0.6039
C16 C 0.8332(3) 0.29180(16) 0.78106(17)
H13 H 0.8170 0.3474 0.8027
H14 H 0.9483 0.2807 0.7910
H15 H 0.7842 0.2524 0.8176
Zn1C Zn 0.37841(3) 0.292381(14) -0.044619(16)
O3C O 0.25521(18) 0.13764(9) 0.52871(10)
loop_
_geom_bond_atom_site_label_1
_geom_bond_atom_site_label_2
_geom_bond_site_symmetry_1
_geom_bond_site_symmetry_2
Zn1 O2 1_555 1_555
O1 C1 1_555 1_555
O2 C1 1_555 1_555
O3 C8 1_555 1_555
O4 C8 1_555 1_555
O5 N5 1_555 1_555
O6 N5 1_555 1_555
N1 Zn1 1_555 1_555
N2 C9 1_555 1_555
N3 Zn1 1_555 1_555
N4 C13 1_555 1_555
N5 C3 1_555 1_555
C1 C2 1_555 1_555
C2 C3 1_555 1_555
C3 C4 1_555 1_555
C4 H1 1_555 1_555
C5 C4 1_555 1_555
H2 C5 1_555 1_555
C6 C5 1_555 1_555
H3 C6 1_555 1_555
C7 C2 1_555 1_555
C8 C7 1_555 1_555
C9 N1 1_555 1_555
H4 C9 1_555 1_555
C10 N1 1_555 1_555
H5 C10 1_555 1_555
C11 N2 1_555 1_555
H6 C11 1_555 1_555
C12 N2 1_555 1_555
H7 C12 1_555 1_555
H8 C12 1_555 1_555
H9 C12 1_555 1_555
C13 N3 1_555 1_555
H10 C13 1_555 1_555
C14 N3 1_555 1_555
H11 C14 1_555 1_555
C15 N4 1_555 1_555
H12 C15 1_555 1_555
C16 N4 1_555 1_555
H13 C16 1_555 1_555
H14 C16 1_555 1_555
H15 C16 1_555 1_555
Zn1C O3 1_555 1_555
O3C Zn1 1_555 1_555
C6 C7 1_555 1_555
C10 C11 1_555 1_555
C14 C15 1_555 1_555

#END
