
#######################################################################
#
#                 Cambridge Crystallographic Data Centre
#                                CCDC 
#
#######################################################################
#
# If this CIF has been generated from an entry in the Cambridge 
# Structural Database, then it will include bibliographic, chemical, 
# crystal, experimental, refinement or atomic coordinate data resulting 
# from the CCDC's data processing and validation procedures.
#
#######################################################################

data_LAMSOJ01
_symmetry_cell_setting           triclinic
_symmetry_space_group_name_H-M   'P -1'
_symmetry_Int_Tables_number      2
_space_group_name_Hall           '-P 1'
loop_
_symmetry_equiv_pos_site_id
_symmetry_equiv_pos_as_xyz
1 x,y,z
2 -x,-y,-z
_cell_length_a                   6.0482(12)
_cell_length_b                   7.5937(15)
_cell_length_c                   8.9091(18)
_cell_angle_alpha                98.38(3)
_cell_angle_beta                 99.77(3)
_cell_angle_gamma                96.80(3)
_cell_volume                     394.617
loop_
_atom_site_label
_atom_site_type_symbol
_atom_site_fract_x
_atom_site_fract_y
_atom_site_fract_z
Nd1 Nd 0.00914(2) 0.80740(2) 0.795446(17)
O1 O -0.1995(4) 0.6406(3) 0.9550(3)
O2 O -0.2190(4) 0.4108(3) 1.0843(3)
O3 O 0.4215(4) 0.8987(4) 0.8083(3)
O4 O 0.7682(4) 1.0021(3) 0.9481(3)
O5 O -0.1429(4) 0.4928(3) 0.6533(3)
O6 O -0.1296(4) 0.2756(3) 0.4569(3)
O7 O 0.0614(5) 1.0988(4) 0.7075(3)
H1 H -0.026(10) 1.132(8) 0.648(7)
H2 H 0.174(11) 1.155(9) 0.714(7)
O8 O -0.3220(5) 0.8287(5) 0.5953(4)
H3 H -0.437(10) 0.835(7) 0.628(6)
H4 H -0.348(9) 0.778(7) 0.532(7)
C1 C -0.1212(5) 0.5151(4) 1.0108(4)
C2 C 0.5540(5) 0.9707(4) 0.9290(4)
C3 C -0.0800(5) 0.4343(4) 0.5320(3)
Nd1A Nd -0.00914(2) 0.19260(2) 1.204554(17)
Nd1A_2 Nd 0.99086(2) 1.19260(2) 1.204554(17)
Nd1_2 Nd 1.00914(2) 0.80740(2) 0.795446(17)
Nd1A_3 Nd -0.00914(2) 0.19260(2) 0.204554(17)
Nd1A_4 Nd -0.00914(2) 1.19260(2) 1.204554(17)
O1A O 0.1995(4) 0.3594(3) 1.0450(3)
O2A O 0.2190(4) 0.5892(3) 0.9157(3)
O3A O 0.5785(4) 1.1013(4) 1.1917(3)
O3A_2 O -0.4215(4) 0.1013(4) 1.1917(3)
O4A O 0.2318(4) 0.9979(3) 1.0519(3)
O4_2 O -0.2318(4) 1.0021(3) 0.9481(3)
O4_3 O -0.2318(4) 0.0021(3) 0.9481(3)
O4A_2 O 0.2318(4) -0.0021(3) 1.0519(3)
O5A O 0.1429(4) 0.5072(3) 0.3467(3)
O5A_2 O 0.1429(4) 0.5072(3) 1.3467(3)
O6A O 0.1296(4) 0.7244(3) 0.5431(3)
O6_2 O -0.1296(4) 0.2756(3) 1.4569(3)
O7A O -0.0614(5) -0.0988(4) 1.2925(3)
H1A H 0.026(10) -0.132(8) 1.352(7)
H2A H -0.174(11) -0.155(9) 1.286(7)
O8A O 0.3220(5) 0.1713(5) 1.4047(4)
H3A H 0.437(10) 0.165(7) 1.372(6)
H4A H 0.348(9) 0.222(7) 1.468(7)
C1A C 0.1212(5) 0.4849(4) 0.9892(4)
C2A C 0.4460(5) 1.0293(4) 1.0710(4)
C3A C 0.0800(5) 0.5657(4) 0.4680(3)
O9 O -0.5777(6) 0.3699(5) 0.7102(4)
H5 H -0.442(10) 0.395(7) 0.712(6)
H6 H -0.602(9) 0.455(8) 0.775(7)
loop_
_geom_bond_atom_site_label_1
_geom_bond_atom_site_label_2
_geom_bond_site_symmetry_1
_geom_bond_site_symmetry_2
Nd1 O1 1_555 1_555
O1 C1 1_555 1_555
O2 C1 1_555 1_555
O3 Nd1 1_555 1_555
O4 C2 1_555 1_555
O5 Nd1 1_555 1_555
O6 C3 1_555 1_555
O7 Nd1 1_555 1_555
H1 O7 1_555 1_555
H2 O7 1_555 1_555
O8 Nd1 1_555 1_555
H3 O8 1_555 1_555
H4 O8 1_555 1_555
C1 C1A 1_555 1_555
C2 O3 1_555 1_555
C3 O5 1_555 1_555
O9 H5 1_555 1_555
H6 O9 1_555 1_555
Nd1A O2 1_555 1_555
Nd1A_2 O4 1_555 1_555
Nd1_2 O4 1_555 1_555
Nd1A_3 O6 1_555 1_555
Nd1A_4 O4A 1_555 1_555
O1A Nd1A 1_555 1_555
O2A Nd1 1_555 1_555
O3A Nd1A_2 1_555 1_555
O3A_2 Nd1A 1_555 1_555
O4A Nd1 1_555 1_555
O4_2 Nd1 1_555 1_555
O4_3 Nd1A 1_555 1_555
O4A_2 Nd1A 1_555 1_555
O5A Nd1A_3 1_555 1_555
O5A_2 Nd1A 1_555 1_555
O6A Nd1 1_555 1_555
O6_2 Nd1A 1_555 1_555
O7A Nd1A 1_555 1_555
H1A O7A 1_555 1_555
H2A O7A 1_555 1_555
O8A Nd1A 1_555 1_555
H3A O8A 1_555 1_555
H4A O8A 1_555 1_555
C1A O1A 1_555 1_555
C2A C2 1_555 1_555
C3A C3 1_555 1_555
Nd1A_4 O4_2 1_555 1_555
O2A C1A 1_555 1_555
O3A C2A 1_555 1_555
O4A C2A 1_555 1_555
O5A C3A 1_555 1_555
O6A C3A 1_555 1_555

#END
