
#######################################################################
#
#                 Cambridge Crystallographic Data Centre
#                                CCDC 
#
#######################################################################
#
# If this CIF has been generated from an entry in the Cambridge 
# Structural Database, then it will include bibliographic, chemical, 
# crystal, experimental, refinement or atomic coordinate data resulting 
# from the CCDC's data processing and validation procedures.
#
#######################################################################

data_LAMSOJ
_symmetry_cell_setting           triclinic
_symmetry_space_group_name_H-M   'P -1'
_symmetry_Int_Tables_number      2
_space_group_name_Hall           '-P 1'
loop_
_symmetry_equiv_pos_site_id
_symmetry_equiv_pos_as_xyz
1 x,y,z
2 -x,-y,-z
_cell_length_a                   6.036(3)
_cell_length_b                   7.603(3)
_cell_length_c                   8.906(4)
_cell_angle_alpha                98.386(6)
_cell_angle_beta                 99.742(3)
_cell_angle_gamma                96.802(5)
_cell_volume                     394.195
loop_
_atom_site_label
_atom_site_type_symbol
_atom_site_fract_x
_atom_site_fract_y
_atom_site_fract_z
Nd1 Nd 0.50918(3) 0.80732(2) 0.795455(19)
O1 O 0.3007(4) 0.6414(3) 0.9553(3)
O2 O 0.2687(4) 1.0032(3) 0.9482(3)
O3 O 0.6296(4) 0.7244(3) 0.5432(3)
O4 O 0.2812(4) 0.4112(3) 1.0845(3)
O5 O -0.0788(4) 0.8988(3) 0.8085(3)
O6 O 0.6426(5) 0.5083(3) 0.3469(3)
C1 C 0.3797(6) 0.5159(4) 1.0114(4)
C2 C 0.0540(5) 0.9720(4) 0.9295(4)
C3 C 0.5789(6) 0.5661(4) 0.4686(4)
O7 O 0.1774(4) 0.8272(4) 0.5951(3)
H1 H 0.052(5) 0.846(6) 0.618(5)
H2 H 0.145(7) 0.765(6) 0.509(3)
O8 O 0.5617(5) 1.0983(4) 0.7077(3)
H3 H 0.461(5) 1.144(6) 0.658(5)
H4 H 0.680(4) 1.171(5) 0.722(6)
Nd1A Nd 0.49082(3) 0.19268(2) 1.204545(19)
Nd1A_2 Nd 0.49082(3) 1.19268(2) 1.204545(19)
Nd1_2 Nd -0.49082(3) 0.80732(2) 0.795455(19)
Nd1A_3 Nd 0.49082(3) 0.19268(2) 0.204545(19)
Nd1A_4 Nd -0.50918(3) 1.19268(2) 1.204545(19)
O1A O 0.6993(4) 0.3586(3) 1.0447(3)
O2A O -0.2687(4) 0.9968(3) 1.0518(3)
O2A_2 O 0.7313(4) 0.9968(3) 1.0518(3)
O2A_3 O 0.7313(4) -0.0032(3) 1.0518(3)
O2_2 O 0.2687(4) 0.0032(3) 0.9482(3)
O3A O 0.3704(4) 0.2756(3) 0.4568(3)
O3A_2 O 0.3704(4) 0.2756(3) 1.4568(3)
O4A O 0.7188(4) 0.5888(3) 0.9155(3)
O5A O 0.0788(4) 1.1012(3) 1.1915(3)
O5_2 O 0.9212(4) 0.8988(3) 0.8085(3)
O5A_2 O 0.0788(4) 0.1012(3) 1.1915(3)
O6A O 0.3574(5) 0.4917(3) 0.6531(3)
O6_2 O 0.6426(5) 0.5083(3) 1.3469(3)
C1A C 0.6203(6) 0.4841(4) 0.9886(4)
C2A C -0.0540(5) 1.0280(4) 1.0705(4)
C3A C 0.4211(6) 0.4339(4) 0.5314(4)
O7A O 0.8226(4) 0.1728(4) 1.4049(3)
H1A H 0.948(5) 0.154(6) 1.382(5)
H2A H 0.855(7) 0.235(6) 1.491(3)
O8A O 0.4383(5) -0.0983(4) 1.2923(3)
H3A H 0.539(5) -0.144(6) 1.342(5)
H4A H 0.320(4) -0.171(5) 1.278(6)
O9 O 0.0780(5) 0.6307(4) 0.2901(4)
H5 H 0.105(8) 0.550(6) 0.226(5)
H6 H -0.065(3) 0.620(7) 0.277(6)
loop_
_geom_bond_atom_site_label_1
_geom_bond_atom_site_label_2
_geom_bond_site_symmetry_1
_geom_bond_site_symmetry_2
Nd1 O1 1_555 1_555
O1 C1 1_555 1_555
O2 Nd1 1_555 1_555
O3 Nd1 1_555 1_555
O4 C1 1_555 1_555
O5 C2 1_555 1_555
O6 C3 1_555 1_555
C1 C1A 1_555 1_555
C2 O2 1_555 1_555
C3 O3 1_555 1_555
O7 Nd1 1_555 1_555
H1 O7 1_555 1_555
H2 O7 1_555 1_555
O8 Nd1 1_555 1_555
H3 O8 1_555 1_555
H4 O8 1_555 1_555
O9 H5 1_555 1_555
H6 O9 1_555 1_555
Nd1A O4 1_555 1_555
Nd1A_2 O2 1_555 1_555
Nd1_2 O5 1_555 1_555
Nd1A_3 O6 1_555 1_555
Nd1A_4 O2A 1_555 1_555
O1A Nd1A 1_555 1_555
O2A Nd1_2 1_555 1_555
O2A_2 Nd1 1_555 1_555
O2A_3 Nd1A 1_555 1_555
O2_2 Nd1A 1_555 1_555
O3A Nd1A_3 1_555 1_555
O3A_2 Nd1A 1_555 1_555
O4A Nd1 1_555 1_555
O5A Nd1A_2 1_555 1_555
O5_2 Nd1 1_555 1_555
O5A_2 Nd1A 1_555 1_555
O6A Nd1 1_555 1_555
O6_2 Nd1A 1_555 1_555
C1A O1A 1_555 1_555
C2A C2 1_555 1_555
C3A C3 1_555 1_555
O7A Nd1A 1_555 1_555
H1A O7A 1_555 1_555
H2A O7A 1_555 1_555
O8A Nd1A 1_555 1_555
H3A O8A 1_555 1_555
H4A O8A 1_555 1_555
Nd1A_2 O2A_2 1_555 1_555
O2A C2A 1_555 1_555
O3A C3A 1_555 1_555
O4A C1A 1_555 1_555
O5A C2A 1_555 1_555
O6A C3A 1_555 1_555

#END
