
#######################################################################
#
#                 Cambridge Crystallographic Data Centre
#                                CCDC 
#
#######################################################################
#
# If this CIF has been generated from an entry in the Cambridge 
# Structural Database, then it will include bibliographic, chemical, 
# crystal, experimental, refinement or atomic coordinate data resulting 
# from the CCDC's data processing and validation procedures.
#
#######################################################################

data_LAMXED
_symmetry_cell_setting           triclinic
_symmetry_space_group_name_H-M   'P -1'
_symmetry_Int_Tables_number      2
_space_group_name_Hall           '-P 1'
loop_
_symmetry_equiv_pos_site_id
_symmetry_equiv_pos_as_xyz
1 x,y,z
2 -x,-y,-z
_cell_length_a                   7.5795(9)
_cell_length_b                   7.8800(9)
_cell_length_c                   14.0052(9)
_cell_angle_alpha                83.271(2)
_cell_angle_beta                 89.660(3)
_cell_angle_gamma                85.156(3)
_cell_volume                     827.745
loop_
_atom_site_label
_atom_site_type_symbol
_atom_site_fract_x
_atom_site_fract_y
_atom_site_fract_z
Re1 Re 0.17784(4) 0.74771(4) 0.02793(2)
Ag1 Ag 0.33133(7) 1.23532(7) 0.01343(4)
Ni1 Ni 0.22616(11) 1.22460(10) 0.51522(6)
O1 O 0.3337(8) 0.8971(8) 0.0193(5)
O2 O 0.1008(9) 0.7206(11) 0.1442(5)
O3 O 0.0068(12) 0.8221(15) -0.0497(6)
O4 O 0.2822(16) 0.5606(10) 0.0000(7)
O5 O 0.3685(8) 1.6229(7) 0.3395(4)
O6 O 0.2387(7) 1.4732(6) 0.4610(4)
O7 O 0.2811(10) 0.8120(7) -0.2835(4)
O8 O 0.2322(7) 0.9743(6) -0.4245(4)
O9 O 0.5017(7) 1.1994(8) 0.5261(5)
O10 O -0.0428(8) 1.2379(7) 0.5108(5)
N1 N 0.2494(7) 1.1970(7) 0.3704(4)
N2 N 0.3214(8) 1.2142(8) 0.1746(4)
N3 N 0.2987(8) 1.2568(8) -0.1478(4)
N4 N 0.2278(7) 1.2630(7) -0.3421(4)
C1 C 0.2991(8) 1.3406(8) 0.3198(5)
C2 C 0.3374(9) 1.3492(9) 0.2229(5)
H1 H 0.3755 1.4521 0.1901
C3 C 0.2708(10) 1.0713(9) 0.2240(5)
H2 H 0.2590 0.9737 0.1914
C4 C 0.2345(9) 1.0613(8) 0.3226(5)
H3 H 0.1991 0.9576 0.3557
C5 C 0.3063(9) 1.4915(8) 0.3774(5)
C6 C 0.2601(9) 1.4036(9) -0.2026(5)
H4 H 0.2547 1.5079 -0.1745
C7 C 0.2268(9) 1.4082(8) -0.3016(5)
H5 H 0.2035 1.5154 -0.3399
C8 C 0.2607(9) 1.1137(8) -0.2849(5)
C9 C 0.2966(10) 1.1119(9) -0.1882(5)
H6 H 0.3202 1.0050 -0.1496
C10 C 0.2583(10) 0.9512(9) -0.3327(5)
H7 H 0.574(14) 1.160(13) 0.504(8)
H8 H 0.573(13) 1.253(13) 0.566(8)
H9 H -0.090(17) 1.178(16) 0.472(10)
H10 H -0.107(11) 1.339(11) 0.523(6)
Ag1_2 Ag 0.33133(7) 0.23532(7) 0.01343(4)
Ni1_2 Ni 0.22616(11) 1.22460(10) -0.48478(6)
O4_2 O 0.2822(16) 1.5606(10) 0.0000(7)
O8_2 O 0.2322(7) 0.9743(6) 0.5755(4)
N4_2 N 0.2278(7) 1.2630(7) 0.6579(4)
loop_
_geom_bond_atom_site_label_1
_geom_bond_atom_site_label_2
_geom_bond_site_symmetry_1
_geom_bond_site_symmetry_2
Re1 O1 1_555 1_555
Ag1 O1 1_555 1_555
Ni1 O6 1_555 1_555
O2 Re1 1_555 1_555
O3 Re1 1_555 1_555
O4 Re1 1_555 1_555
O5 C5 1_555 1_555
O6 C5 1_555 1_555
O7 C10 1_555 1_555
O8 C10 1_555 1_555
O9 Ni1 1_555 1_555
O10 Ni1 1_555 1_555
N1 Ni1 1_555 1_555
N2 Ag1 1_555 1_555
N3 Ag1 1_555 1_555
N4 C7 1_555 1_555
C1 N1 1_555 1_555
C2 N2 1_555 1_555
H1 C2 1_555 1_555
C3 N2 1_555 1_555
H2 C3 1_555 1_555
C4 N1 1_555 1_555
H3 C4 1_555 1_555
C5 C1 1_555 1_555
C6 N3 1_555 1_555
H4 C6 1_555 1_555
C7 C6 1_555 1_555
H5 C7 1_555 1_555
C8 N4 1_555 1_555
C9 N3 1_555 1_555
H6 C9 1_555 1_555
C10 C8 1_555 1_555
H7 O9 1_555 1_555
H8 O9 1_555 1_555
H9 O10 1_555 1_555
H10 O10 1_555 1_555
Ag1_2 O4 1_555 1_555
Ni1_2 O8 1_555 1_555
O4_2 Ag1 1_555 1_555
O8_2 Ni1 1_555 1_555
N4_2 Ni1 1_555 1_555
N4 Ni1_2 1_555 1_555
C1 C2 1_555 1_555
C3 C4 1_555 1_555
C8 C9 1_555 1_555

#END
