
#######################################################################
#
#                 Cambridge Crystallographic Data Centre
#                                CCDC 
#
#######################################################################
#
# If this CIF has been generated from an entry in the Cambridge 
# Structural Database, then it will include bibliographic, chemical, 
# crystal, experimental, refinement or atomic coordinate data resulting 
# from the CCDC's data processing and validation procedures.
#
#######################################################################

data_LAMXOO
_symmetry_cell_setting           triclinic
_symmetry_space_group_name_H-M   'P -1'
_symmetry_Int_Tables_number      2
_space_group_name_Hall           '-P 1'
loop_
_symmetry_equiv_pos_site_id
_symmetry_equiv_pos_as_xyz
1 x,y,z
2 -x,-y,-z
_cell_length_a                   7.0018(14)
_cell_length_b                   10.049(2)
_cell_length_c                   10.491(2)
_cell_angle_alpha                109.83(3)
_cell_angle_beta                 103.63(3)
_cell_angle_gamma                105.78(3)
_cell_volume                     622.841
loop_
_atom_site_label
_atom_site_type_symbol
_atom_site_fract_x
_atom_site_fract_y
_atom_site_fract_z
Co1 Co 1.08955(7) 0.88775(5) 0.39668(4)
N1 N 0.8499(4) 0.9870(3) 0.3808(3)
N2 N 0.7988(4) 1.0243(3) 0.2840(3)
N3 N 0.7510(6) 1.0590(4) 0.1905(4)
N4 N 1.3416(5) 0.7993(3) 0.4387(3)
N5 N 1.5146(5) 0.8649(3) 0.5268(3)
N6 N 1.6882(5) 0.9262(3) 0.6149(3)
N7 N 0.9662(4) 0.7562(3) 0.1657(3)
N8 N 0.8808(4) 0.6720(3) 0.3697(3)
C1 C 1.0005(6) 0.8017(4) 0.0652(4)
H1 H 1.0859 0.9035 0.0945
C2 C 0.9122(6) 0.7015(5) -0.0844(4)
H2 H 0.9373 0.7376 -0.1521
C3 C 0.7906(6) 0.5522(4) -0.1286(4)
H3 H 0.7343 0.4850 -0.2269
C4 C 0.6230(5) 0.3430(4) -0.0625(4)
H4 H 0.5630 0.2713 -0.1593
C5 C 0.5901(5) 0.2991(4) 0.0411(4)
H5 H 0.5115 0.1968 0.0150
C6 C 0.6387(5) 0.3701(4) 0.3039(4)
H6 H 0.5605 0.2695 0.2834
C7 C 0.7191(6) 0.4816(4) 0.4423(4)
H7 H 0.6937 0.4580 0.5167
C8 C 0.8392(5) 0.6306(4) 0.4720(4)
H8 H 0.8933 0.7053 0.5673
C9 C 0.7490(5) 0.4984(4) -0.0256(3)
C10 C 0.6746(5) 0.4079(4) 0.1915(4)
C11 C 0.8398(5) 0.6068(3) 0.1210(3)
C12 C 0.7988(5) 0.5611(3) 0.2306(3)
Co1A Co 0.91045(7) 1.11225(5) 0.60332(4)
Co1A_2 Co 1.91045(7) 1.11225(5) 0.60332(4)
N1A N 1.1501(4) 1.0130(3) 0.6192(3)
N6A N 1.3118(5) 1.0738(3) 0.3851(3)
loop_
_geom_bond_atom_site_label_1
_geom_bond_atom_site_label_2
_geom_bond_site_symmetry_1
_geom_bond_site_symmetry_2
Co1 N1 1_555 1_555
N1 N2 1_555 1_555
N2 N3 1_555 1_555
N4 Co1 1_555 1_555
N5 N4 1_555 1_555
N6 N5 1_555 1_555
N7 Co1 1_555 1_555
N8 Co1 1_555 1_555
C1 N7 1_555 1_555
H1 C1 1_555 1_555
C2 C1 1_555 1_555
H2 C2 1_555 1_555
C3 C2 1_555 1_555
H3 C3 1_555 1_555
C4 H4 1_555 1_555
C5 C4 1_555 1_555
H5 C5 1_555 1_555
C6 H6 1_555 1_555
C7 C6 1_555 1_555
H7 C7 1_555 1_555
C8 N8 1_555 1_555
H8 C8 1_555 1_555
C9 C3 1_555 1_555
C10 C5 1_555 1_555
C11 N7 1_555 1_555
C12 N8 1_555 1_555
Co1A N1 1_555 1_555
Co1A_2 N6 1_555 1_555
N1A Co1 1_555 1_555
N6A Co1 1_555 1_555
C4 C9 1_555 1_555
C6 C10 1_555 1_555
C7 C8 1_555 1_555
C9 C11 1_555 1_555
C10 C12 1_555 1_555
C11 C12 1_555 1_555
Co1A N1A 1_555 1_555

#END
