
#######################################################################
#
#                 Cambridge Crystallographic Data Centre
#                                CCDC 
#
#######################################################################
#
# If this CIF has been generated from an entry in the Cambridge 
# Structural Database, then it will include bibliographic, chemical, 
# crystal, experimental, refinement or atomic coordinate data resulting 
# from the CCDC's data processing and validation procedures.
#
#######################################################################

data_LAMZEF
_symmetry_cell_setting           monoclinic
_symmetry_space_group_name_H-M   'P 21/n'
_symmetry_Int_Tables_number      14
_space_group_name_Hall           '-P 2yn'
loop_
_symmetry_equiv_pos_site_id
_symmetry_equiv_pos_as_xyz
1 x,y,z
2 1/2-x,1/2+y,1/2-z
3 -x,-y,-z
4 1/2+x,1/2-y,1/2+z
_cell_length_a                   12.7566(12)
_cell_length_b                   13.2771(12)
_cell_length_c                   18.9393(18)
_cell_angle_alpha                90
_cell_angle_beta                 95.984(2)
_cell_angle_gamma                90
_cell_volume                     3190.28
loop_
_atom_site_label
_atom_site_type_symbol
_atom_site_fract_x
_atom_site_fract_y
_atom_site_fract_z
Tb1 Tb 0.748418(14) -0.444916(14) 0.672923(10)
K1 K 0.64164(7) -0.21105(7) 0.76675(5)
O1 O 0.8677(2) -0.3697(2) 0.60148(18)
O2 O 0.7106(2) -0.2740(2) 0.64173(16)
O3 O 0.5874(2) -0.4039(2) 0.71524(16)
O4 O 0.6662(2) -0.5798(2) 0.72776(17)
O5 O 0.8079(2) -0.5905(2) 0.61580(15)
O6 O 0.6470(2) -0.4884(2) 0.56634(15)
O7 O 0.8943(2) -0.5080(2) 0.74647(16)
O8 O 0.8002(2) -0.3498(2) 0.77739(17)
O9 O 0.4352(4) -0.1977(4) 0.8012(4)
N1 N 0.3523(5) -0.0972(6) 0.8715(3)
C1 C 0.8550(3) -0.2804(4) 0.5780(2)
C2 C 0.9194(4) -0.2442(4) 0.5273(3)
H1 H 0.9658 -0.2914 0.5119
C3 C 0.9249(5) -0.1500(5) 0.4968(3)
H2 H 0.9707 -0.1456 0.4619
C4 C 0.8743(5) -0.0624(4) 0.5094(4)
H3 H 0.8923 -0.0059 0.4843
C5 C 0.8003(4) -0.0497(4) 0.5550(3)
H4 H 0.7777 0.0164 0.5597
C6 C 0.7532(4) -0.1193(4) 0.5956(3)
H5 H 0.7018 -0.0926 0.6215
C7 C 0.7689(3) -0.2227(3) 0.6047(2)
C8 C 0.5300(3) -0.4693(3) 0.7419(2)
C9 C 0.4325(4) -0.4408(4) 0.7630(3)
H6 H 0.4173 -0.3727 0.7566
C10 C 0.3553(5) -0.4942(6) 0.7914(3)
H7 H 0.2976 -0.4567 0.8024
C11 C 0.3511(5) -0.5951(6) 0.8058(4)
H8 H 0.2892 -0.6183 0.8220
C12 C 0.4280(5) -0.6661(5) 0.7991(3)
H9 H 0.4121 -0.7308 0.8135
C13 C 0.5252(4) -0.6554(4) 0.7741(3)
H10 H 0.5646 -0.7144 0.7746
C14 C 0.5753(4) -0.5709(3) 0.7478(2)
C15 C 0.7615(3) -0.6228(3) 0.5573(2)
C16 C 0.8000(4) -0.7076(4) 0.5247(2)
H11 H 0.8608 -0.7346 0.5489
C17 C 0.7646(5) -0.7588(4) 0.4635(3)
H12 H 0.8055 -0.8135 0.4527
C18 C 0.6779(4) -0.7408(4) 0.4162(3)
H13 H 0.6677 -0.7840 0.3774
C19 C 0.6050(4) -0.6667(4) 0.4195(3)
H14 H 0.5496 -0.6679 0.3834
C20 C 0.6006(3) -0.5898(4) 0.4684(2)
H15 H 0.5431 -0.5470 0.4590
C21 C 0.6671(3) -0.5648(3) 0.5295(2)
C22 C 0.9370(3) -0.4618(3) 0.8009(2)
C23 C 1.0268(5) -0.5011(5) 0.8388(3)
H16 H 1.0490 -0.5627 0.8224
C24 C 1.0875(7) -0.4636(6) 0.8963(5)
H17 H 1.1458 -0.5029 0.9119
C25 C 1.0769(7) -0.3767(7) 0.9354(4)
H18 H 1.1264 -0.3669 0.9745
C26 C 1.0026(5) -0.3046(6) 0.9232(3)
H19 H 1.0101 -0.2490 0.9531
C27 C 0.9183(5) -0.3024(5) 0.8728(3)
H20 H 0.8762 -0.2455 0.8749
C28 C 0.8830(4) -0.3696(4) 0.8186(2)
C29 C 0.4230(11) -0.1312(11) 0.8382(6)
H21 H 0.4034 -0.0862 0.7979
C30 C 0.3737(11) -0.0055(11) 0.9096(8)
H22 H 0.4404 0.0209 0.8990
H23 H 0.3760 -0.0183 0.9596
H24 H 0.3192 0.0425 0.8957
C31 C 0.2589(8) -0.1428(9) 0.8799(6)
H25 H 0.2511 -0.2016 0.8503
H26 H 0.2021 -0.0969 0.8666
H27 H 0.2576 -0.1620 0.9286
K1A K 0.85836(7) -0.71105(7) 0.73325(5)
O4A O 0.8338(2) -0.0798(2) 0.77224(17)
O5A O 0.6921(2) -0.0905(2) 0.88420(15)
O7A O 0.6057(2) -0.0080(2) 0.75353(16)
loop_
_geom_bond_atom_site_label_1
_geom_bond_atom_site_label_2
_geom_bond_site_symmetry_1
_geom_bond_site_symmetry_2
Tb1 O1 1_555 1_555
K1 O2 1_555 1_555
O1 C1 1_555 1_555
O2 Tb1 1_555 1_555
O3 Tb1 1_555 1_555
O4 Tb1 1_555 1_555
O5 Tb1 1_555 1_555
O6 Tb1 1_555 1_555
O7 Tb1 1_555 1_555
O8 Tb1 1_555 1_555
O9 K1 1_555 1_555
N1 C29 1_555 1_555
C1 C2 1_555 1_555
C2 H1 1_555 1_555
C3 C2 1_555 1_555
H2 C3 1_555 1_555
C4 C3 1_555 1_555
H3 C4 1_555 1_555
C5 C4 1_555 1_555
H4 C5 1_555 1_555
C6 C5 1_555 1_555
H5 C6 1_555 1_555
C7 O2 1_555 1_555
C8 O3 1_555 1_555
C9 C8 1_555 1_555
H6 C9 1_555 1_555
C10 C9 1_555 1_555
H7 C10 1_555 1_555
C11 C10 1_555 1_555
H8 C11 1_555 1_555
C12 C11 1_555 1_555
H9 C12 1_555 1_555
C13 C12 1_555 1_555
H10 C13 1_555 1_555
C14 O4 1_555 1_555
C15 O5 1_555 1_555
C16 C15 1_555 1_555
H11 C16 1_555 1_555
C17 C16 1_555 1_555
H12 C17 1_555 1_555
C18 C17 1_555 1_555
H13 C18 1_555 1_555
C19 C18 1_555 1_555
H14 C19 1_555 1_555
C20 C19 1_555 1_555
H15 C20 1_555 1_555
C21 O6 1_555 1_555
C22 O7 1_555 1_555
C23 C22 1_555 1_555
H16 C23 1_555 1_555
C24 C23 1_555 1_555
H17 C24 1_555 1_555
C25 C24 1_555 1_555
H18 C25 1_555 1_555
C26 C25 1_555 1_555
H19 C26 1_555 1_555
C27 C26 1_555 1_555
H20 C27 1_555 1_555
C28 O8 1_555 1_555
C29 O9 1_555 1_555
H21 C29 1_555 1_555
C30 N1 1_555 1_555
H22 C30 1_555 1_555
H23 C30 1_555 1_555
H24 C30 1_555 1_555
C31 N1 1_555 1_555
H25 C31 1_555 1_555
H26 C31 1_555 1_555
H27 C31 1_555 1_555
K1A O4 1_555 1_555
O4A K1 1_555 1_555
O5A K1 1_555 1_555
O7A K1 1_555 1_555
K1 O3 1_555 1_555
K1 O8 1_555 1_555
O5 K1A 1_555 1_555
O7 K1A 1_555 1_555
C1 C7 1_555 1_555
C6 C7 1_555 1_555
C8 C14 1_555 1_555
C13 C14 1_555 1_555
C15 C21 1_555 1_555
C20 C21 1_555 1_555
C22 C28 1_555 1_555
C27 C28 1_555 1_555

#END
