
#######################################################################
#
#                 Cambridge Crystallographic Data Centre
#                                CCDC 
#
#######################################################################
#
# If this CIF has been generated from an entry in the Cambridge 
# Structural Database, then it will include bibliographic, chemical, 
# crystal, experimental, refinement or atomic coordinate data resulting 
# from the CCDC's data processing and validation procedures.
#
#######################################################################

data_LAMZIJ
_symmetry_cell_setting           triclinic
_symmetry_space_group_name_H-M   'P -1'
_symmetry_Int_Tables_number      2
_space_group_name_Hall           '-P 1'
loop_
_symmetry_equiv_pos_site_id
_symmetry_equiv_pos_as_xyz
1 x,y,z
2 -x,-y,-z
_cell_length_a                   7.3048(5)
_cell_length_b                   11.0879(8)
_cell_length_c                   20.1174(15)
_cell_angle_alpha                79.3790(10)
_cell_angle_beta                 84.2300(10)
_cell_angle_gamma                78.8070(10)
_cell_volume                     1567.48
loop_
_atom_site_label
_atom_site_type_symbol
_atom_site_fract_x
_atom_site_fract_y
_atom_site_fract_z
Dy1 Dy 0.281127(15) 0.535699(12) 0.240018(6)
K1 K -0.18152(8) 0.41715(6) 0.22921(3)
O1 O -0.0239(2) 0.63149(18) 0.21594(9)
O2 O 0.2569(2) 0.73398(18) 0.17053(9)
O3 O -0.5416(2) 0.34772(18) 0.29490(10)
O4 O -0.8979(2) 0.40131(18) 0.30950(9)
O5 O -0.7808(2) 0.6175(2) 0.34214(9)
O6 O -0.4605(2) 0.59105(18) 0.27782(9)
O7 O 0.1922(3) 0.4212(2) 0.16391(10)
O8 O 0.5145(2) 0.48164(18) 0.15625(9)
O9 O -0.0836(5) 0.1720(3) 0.2353(2)
N1 N 0.1308(6) -0.0001(3) 0.2717(2)
C1 C -0.0636(3) 0.7380(2) 0.17857(13)
C2 C -0.2492(4) 0.7882(3) 0.16528(15)
H1 H -0.3340 0.7366 0.1841
C3 C -0.3288(4) 0.9010(3) 0.12920(17)
H2 H -0.4577 0.9128 0.1270
C4 C -0.2472(5) 0.9977(3) 0.09625(19)
H3 H -0.3274 1.0684 0.0769
C5 C -0.0596(5) 1.0027(3) 0.08839(19)
H4 H -0.0292 1.0760 0.0630
C6 C 0.0887(4) 0.9158(3) 0.11240(16)
H5 H 0.2042 0.9394 0.0994
C7 C 0.0996(4) 0.7972(3) 0.15312(13)
C8 C -0.6186(4) 0.2686(3) 0.33527(14)
C9 C -0.5105(5) 0.1562(3) 0.36521(17)
H6 H -0.3841 0.1473 0.3511
C10 C -0.5559(6) 0.0575(4) 0.4112(2)
H7 H -0.4575 -0.0081 0.4224
C11 C -0.7259(7) 0.0420(4) 0.4429(2)
H8 H -0.7279 -0.0319 0.4734
C12 C -0.8931(6) 0.1211(4) 0.4357(2)
H9 H -0.9924 0.0949 0.4635
C13 C -0.9379(5) 0.2341(3) 0.39341(17)
H10 H -1.0635 0.2711 0.3965
C14 C -0.8246(4) 0.3021(3) 0.34658(13)
C15 C -0.6475(4) 0.6311(3) 0.37446(14)
C16 C -0.6816(4) 0.6576(3) 0.44061(15)
H11 H -0.8063 0.6639 0.4569
C17 C -0.5645(5) 0.6758(4) 0.48583(17)
H12 H -0.6225 0.6914 0.5275
C18 C -0.3780(5) 0.6746(4) 0.47918(17)
H13 H -0.3247 0.6899 0.5162
C19 C -0.2589(5) 0.6532(4) 0.42343(17)
H14 H -0.1342 0.6555 0.4280
C20 C -0.2958(4) 0.6288(3) 0.36173(15)
H15 H -0.1918 0.6187 0.3312
C21 C -0.4619(3) 0.6167(2) 0.33739(13)
C22 C 0.4887(4) 0.4199(3) 0.11169(13)
C23 C 0.6359(4) 0.3896(3) 0.06244(15)
H16 H 0.7484 0.4120 0.0687
C24 C 0.6394(5) 0.3324(3) 0.00695(15)
H17 H 0.7521 0.3261 -0.0192
C25 C 0.5054(6) 0.2835(3) -0.01596(17)
H18 H 0.5363 0.2512 -0.0559
C26 C 0.3296(6) 0.2771(4) 0.01393(18)
H19 H 0.2573 0.2390 -0.0085
C27 C 0.2431(5) 0.3179(3) 0.07155(17)
H20 H 0.1249 0.2979 0.0836
C28 C 0.3043(4) 0.3856(3) 0.11568(14)
C29 C 0.0794(10) 0.1155(5) 0.2418(3)
H21 H 0.1261 0.1117 0.1947
C30 C -0.0182(8) -0.0677(5) 0.3063(3)
H22 H -0.1380 -0.0144 0.3007
H23 H 0.0019 -0.0915 0.3537
H24 H -0.0151 -0.1410 0.2869
C31 C 0.3190(7) -0.0623(5) 0.2741(3)
H25 H 0.3992 -0.0081 0.2492
H26 H 0.3340 -0.1362 0.2542
H27 H 0.3516 -0.0847 0.3204
Dy1_2 Dy -0.718873(15) 0.535699(12) 0.240018(6)
K1_2 K 0.81848(8) 0.41715(6) 0.22921(3)
K1_3 K -1.18152(8) 0.41715(6) 0.22921(3)
O3_2 O 0.4584(2) 0.34772(18) 0.29490(10)
O4_2 O 0.1021(2) 0.40131(18) 0.30950(9)
O5_2 O 0.2192(2) 0.6175(2) 0.34214(9)
O6_2 O 0.5395(2) 0.59105(18) 0.27782(9)
O8_2 O -0.4855(2) 0.48164(18) 0.15625(9)
loop_
_geom_bond_atom_site_label_1
_geom_bond_atom_site_label_2
_geom_bond_site_symmetry_1
_geom_bond_site_symmetry_2
Dy1 O1 1_555 1_555
K1 O1 1_555 1_555
O1 C1 1_555 1_555
O2 Dy1 1_555 1_555
O3 K1 1_555 1_555
O4 C14 1_555 1_555
O5 C15 1_555 1_555
O6 K1 1_555 1_555
O7 Dy1 1_555 1_555
O8 Dy1 1_555 1_555
O9 K1 1_555 1_555
N1 C29 1_555 1_555
C1 C2 1_555 1_555
C2 H1 1_555 1_555
C3 C2 1_555 1_555
H2 C3 1_555 1_555
C4 C3 1_555 1_555
H3 C4 1_555 1_555
C5 C4 1_555 1_555
H4 C5 1_555 1_555
C6 C5 1_555 1_555
H5 C6 1_555 1_555
C7 O2 1_555 1_555
C8 O3 1_555 1_555
C9 C8 1_555 1_555
H6 C9 1_555 1_555
C10 C9 1_555 1_555
H7 C10 1_555 1_555
C11 C10 1_555 1_555
H8 C11 1_555 1_555
C12 C11 1_555 1_555
H9 C12 1_555 1_555
C13 C12 1_555 1_555
H10 C13 1_555 1_555
C14 C8 1_555 1_555
C15 C16 1_555 1_555
C16 H11 1_555 1_555
C17 C16 1_555 1_555
H12 C17 1_555 1_555
C18 C17 1_555 1_555
H13 C18 1_555 1_555
C19 C18 1_555 1_555
H14 C19 1_555 1_555
C20 C19 1_555 1_555
H15 C20 1_555 1_555
C21 O6 1_555 1_555
C22 O8 1_555 1_555
C23 C22 1_555 1_555
H16 C23 1_555 1_555
C24 C23 1_555 1_555
H17 C24 1_555 1_555
C25 C24 1_555 1_555
H18 C25 1_555 1_555
C26 C25 1_555 1_555
H19 C26 1_555 1_555
C27 C26 1_555 1_555
H20 C27 1_555 1_555
C28 O7 1_555 1_555
C29 O9 1_555 1_555
H21 C29 1_555 1_555
C30 N1 1_555 1_555
H22 C30 1_555 1_555
H23 C30 1_555 1_555
H24 C30 1_555 1_555
C31 N1 1_555 1_555
H25 C31 1_555 1_555
H26 C31 1_555 1_555
H27 C31 1_555 1_555
Dy1_2 O3 1_555 1_555
K1_2 O8 1_555 1_555
K1_3 O4 1_555 1_555
O3_2 Dy1 1_555 1_555
O4_2 Dy1 1_555 1_555
O5_2 Dy1 1_555 1_555
O6_2 Dy1 1_555 1_555
O8_2 K1 1_555 1_555
K1 O7 1_555 1_555
K1 O4_2 1_555 1_555
O4 Dy1_2 1_555 1_555
O5 Dy1_2 1_555 1_555
O6 Dy1_2 1_555 1_555
C1 C7 1_555 1_555
C6 C7 1_555 1_555
C13 C14 1_555 1_555
C15 C21 1_555 1_555
C20 C21 1_555 1_555
C22 C28 1_555 1_555
C27 C28 1_555 1_555
Dy1_2 O8_2 1_555 1_555
K1_2 O3_2 1_555 1_555
K1_2 O6_2 1_555 1_555

#END
