
#######################################################################
#
#                 Cambridge Crystallographic Data Centre
#                                CCDC 
#
#######################################################################
#
# If this CIF has been generated from an entry in the Cambridge 
# Structural Database, then it will include bibliographic, chemical, 
# crystal, experimental, refinement or atomic coordinate data resulting 
# from the CCDC's data processing and validation procedures.
#
#######################################################################

data_LAMZOP
_symmetry_cell_setting           triclinic
_symmetry_space_group_name_H-M   'P -1'
_symmetry_Int_Tables_number      2
_space_group_name_Hall           '-P 1'
loop_
_symmetry_equiv_pos_site_id
_symmetry_equiv_pos_as_xyz
1 x,y,z
2 -x,-y,-z
_cell_length_a                   7.2622(4)
_cell_length_b                   10.9440(6)
_cell_length_c                   19.9951(12)
_cell_angle_alpha                80.0340(10)
_cell_angle_beta                 84.0010(10)
_cell_angle_gamma                78.8730(10)
_cell_volume                     1531.6
loop_
_atom_site_label
_atom_site_type_symbol
_atom_site_fract_x
_atom_site_fract_y
_atom_site_fract_z
K1 K -0.81533(10) 0.58179(7) 0.77074(4)
Ho1 Ho -0.278667(19) 0.462161(14) 0.760251(7)
C1 C -0.3831(5) 0.7309(3) 0.66610(17)
O1 O -0.5354(3) 0.4037(2) 0.72317(12)
O2 O -0.2147(3) 0.3813(3) 0.65682(13)
C2 C -0.4957(6) 0.8439(4) 0.6370(2)
H1 H -0.6250 0.8529 0.6527
N1 N -1.1289(6) 1.0036(4) 0.7261(2)
O3 O -0.4596(3) 0.6499(3) 0.70710(13)
C3 C -0.4503(7) 0.9429(4) 0.5900(2)
H2 H -0.5524 1.0099 0.5791
O4 O -0.0990(3) 0.5980(2) 0.69088(12)
C4 C -0.2789(8) 0.9606(5) 0.5559(3)
H3 H -0.2786 1.0358 0.5240
O5 O -1.1899(3) 0.5800(3) 0.83580(13)
C5 C -0.1085(7) 0.8798(5) 0.5637(3)
H4 H -0.0061 0.9061 0.5350
O6 O -1.5136(3) 0.5159(2) 0.84448(12)
C6 C -0.0634(6) 0.7665(4) 0.6066(2)
H5 H 0.0660 0.7291 0.6034
O7 O -0.9742(3) 0.3663(2) 0.78349(13)
C7 C -0.1752(5) 0.6978(3) 0.65379(16)
O8 O -1.2578(3) 0.2631(2) 0.82870(13)
C8 C -0.5355(5) 0.3796(3) 0.66245(17)
C9 C -0.7044(5) 0.3672(4) 0.63842(19)
H6 H -0.8108 0.3776 0.6702
O9 O -0.9158(6) 0.8301(3) 0.7602(2)
C10 C -0.7423(5) 0.3422(5) 0.5758(2)
H7 H -0.8699 0.3373 0.5719
C11 C -0.6239(6) 0.3234(5) 0.5185(2)
H8 H -0.6789 0.3080 0.4804
C12 C -0.4330(6) 0.3248(5) 0.5111(2)
H9 H -0.3739 0.3107 0.4677
C13 C -0.3142(5) 0.3433(4) 0.55673(19)
H10 H -0.1865 0.3391 0.5395
C14 C -0.3497(5) 0.3673(3) 0.62414(17)
C15 C -1.3031(5) 0.6164(3) 0.88495(17)
C16 C -1.2422(6) 0.6864(4) 0.9293(2)
H11 H -1.1217 0.7084 0.9164
C17 C -1.3301(6) 0.7281(4) 0.9885(2)
H12 H -1.2573 0.7696 1.0111
C18 C -1.5073(6) 0.7184(4) 1.0196(2)
H13 H -1.5385 0.7499 1.0615
C19 C -1.6426(6) 0.6680(4) 0.99613(19)
H14 H -1.7591 0.6748 1.0229
C20 C -1.6373(5) 0.6087(4) 0.93958(18)
H15 H -1.7516 0.5833 0.9335
C21 C -1.4895(5) 0.5800(3) 0.88963(17)
C22 C -1.0980(4) 0.1987(3) 0.84627(16)
C23 C -1.0909(6) 0.0794(4) 0.8876(2)
H16 H -1.2102 0.0558 0.9009
C24 C -0.9398(6) -0.0089(4) 0.9121(2)
H17 H -0.9718 -0.0838 0.9384
C25 C -0.7495(6) -0.0050(4) 0.9041(2)
H18 H -0.6675 -0.0771 0.9245
C26 C -0.6673(5) 0.0934(4) 0.8693(2)
H19 H -0.5343 0.0802 0.8700
C27 C -0.7465(5) 0.2082(4) 0.8336(2)
H20 H -0.6592 0.2615 0.8147
C28 C -0.9347(5) 0.2588(3) 0.82075(17)
C29 C -0.9847(8) 1.0740(5) 0.6900(3)
H21 H -0.8598 1.0216 0.6951
H22 H -0.9908 1.1512 0.7093
H23 H -1.0075 1.0959 0.6415
C30 C -1.3229(7) 1.0662(5) 0.7239(3)
H24 H -1.4044 1.0101 0.7497
H25 H -1.3561 1.0874 0.6764
H26 H -1.3399 1.1435 0.7439
C31 C -1.0803(8) 0.8871(5) 0.7571(3)
H27 H -1.1188 0.8955 0.8058
K1_2 K 0.18467(10) 0.58179(7) 0.77074(4)
K1_3 K -1.81533(10) 0.58179(7) 0.77074(4)
Ho1_2 Ho -1.278667(19) 0.462161(14) 0.760251(7)
O4_2 O -1.0990(3) 0.5980(2) 0.69088(12)
O5_2 O -0.1899(3) 0.5800(3) 0.83580(13)
O6_2 O -0.5136(3) 0.5159(2) 0.84448(12)
O7_2 O 0.0258(3) 0.3663(2) 0.78349(13)
O8_2 O -0.2578(3) 0.2631(2) 0.82870(13)
loop_
_geom_bond_atom_site_label_1
_geom_bond_atom_site_label_2
_geom_bond_site_symmetry_1
_geom_bond_site_symmetry_2
K1 O1 1_555 1_555
Ho1 O1 1_555 1_555
C1 C2 1_555 1_555
O1 C8 1_555 1_555
O2 Ho1 1_555 1_555
C2 H1 1_555 1_555
N1 C29 1_555 1_555
O3 K1 1_555 1_555
C3 C2 1_555 1_555
H2 C3 1_555 1_555
O4 Ho1 1_555 1_555
C4 C3 1_555 1_555
H3 C4 1_555 1_555
O5 K1 1_555 1_555
C5 C4 1_555 1_555
H4 C5 1_555 1_555
O6 C21 1_555 1_555
C6 C5 1_555 1_555
H5 C6 1_555 1_555
O7 K1 1_555 1_555
C7 C1 1_555 1_555
O8 C22 1_555 1_555
C8 C9 1_555 1_555
C9 H6 1_555 1_555
O9 K1 1_555 1_555
C10 C9 1_555 1_555
H7 C10 1_555 1_555
C11 C10 1_555 1_555
H8 C11 1_555 1_555
C12 C11 1_555 1_555
H9 C12 1_555 1_555
C13 C12 1_555 1_555
H10 C13 1_555 1_555
C14 O2 1_555 1_555
C15 O5 1_555 1_555
C16 C15 1_555 1_555
H11 C16 1_555 1_555
C17 C16 1_555 1_555
H12 C17 1_555 1_555
C18 C17 1_555 1_555
H13 C18 1_555 1_555
C19 C18 1_555 1_555
H14 C19 1_555 1_555
C20 C19 1_555 1_555
H15 C20 1_555 1_555
C21 C15 1_555 1_555
C22 C23 1_555 1_555
C23 H16 1_555 1_555
C24 C23 1_555 1_555
H17 C24 1_555 1_555
C25 C24 1_555 1_555
H18 C25 1_555 1_555
C26 C25 1_555 1_555
H19 C26 1_555 1_555
C27 C26 1_555 1_555
H20 C27 1_555 1_555
C28 O7 1_555 1_555
C29 H21 1_555 1_555
H22 C29 1_555 1_555
H23 C29 1_555 1_555
C30 N1 1_555 1_555
H24 C30 1_555 1_555
H25 C30 1_555 1_555
H26 C30 1_555 1_555
C31 N1 1_555 1_555
H27 C31 1_555 1_555
K1_2 O4 1_555 1_555
K1_3 O6 1_555 1_555
Ho1_2 O5 1_555 1_555
O4_2 K1 1_555 1_555
O5_2 Ho1 1_555 1_555
O6_2 K1 1_555 1_555
O7_2 Ho1 1_555 1_555
O8_2 Ho1 1_555 1_555
Ho1 O3 1_555 1_555
Ho1 O6_2 1_555 1_555
C1 O3 1_555 1_555
O4 C7 1_555 1_555
O6 Ho1_2 1_555 1_555
C6 C7 1_555 1_555
O7 Ho1_2 1_555 1_555
O8 Ho1_2 1_555 1_555
C8 C14 1_555 1_555
O9 C31 1_555 1_555
C13 C14 1_555 1_555
C20 C21 1_555 1_555
C22 C28 1_555 1_555
C27 C28 1_555 1_555
K1_2 O5_2 1_555 1_555
K1_2 O7_2 1_555 1_555
Ho1_2 O4_2 1_555 1_555

#END
