
#######################################################################
#
#                 Cambridge Crystallographic Data Centre
#                                CCDC 
#
#######################################################################
#
# If this CIF has been generated from an entry in the Cambridge 
# Structural Database, then it will include bibliographic, chemical, 
# crystal, experimental, refinement or atomic coordinate data resulting 
# from the CCDC's data processing and validation procedures.
#
#######################################################################

data_LAMZAB
_symmetry_cell_setting           triclinic
_symmetry_space_group_name_H-M   'P -1'
_symmetry_Int_Tables_number      2
_space_group_name_Hall           '-P 1'
loop_
_symmetry_equiv_pos_site_id
_symmetry_equiv_pos_as_xyz
1 x,y,z
2 -x,-y,-z
_cell_length_a                   7.2409(3)
_cell_length_b                   10.9079(4)
_cell_length_c                   19.8683(7)
_cell_angle_alpha                80.0870(10)
_cell_angle_beta                 84.1570(10)
_cell_angle_gamma                78.8690(10)
_cell_volume                     1512.93
loop_
_atom_site_label
_atom_site_type_symbol
_atom_site_fract_x
_atom_site_fract_y
_atom_site_fract_z
K1 K -0.81473(5) 0.58157(3) 0.771126(19)
Yb1 Yb -0.278148(8) 0.463064(6) 0.760317(3)
C1 C -0.3834(2) 0.73019(15) 0.66669(8)
O1 O -0.53276(16) 0.40454(11) 0.72406(6)
O2 O -0.21117(16) 0.38204(12) 0.65797(6)
C2 C -0.4983(3) 0.84342(17) 0.63778(10)
H1 H -0.632(4) 0.850(3) 0.6558(16)
N1 N -1.1294(3) 1.00601(17) 0.72556(10)
O3 O -0.45960(17) 0.64860(12) 0.70847(6)
C3 C -0.4527(3) 0.94337(19) 0.59038(11)
H2 H -0.536(4) 1.001(3) 0.5815(16)
O4 O -0.09962(16) 0.59593(11) 0.69120(6)
C4 C -0.2812(3) 0.9605(2) 0.55608(12)
H3 H -0.289(4) 1.036(3) 0.5240(15)
O5 O -1.18784(17) 0.57981(12) 0.83495(6)
C5 C -0.1082(3) 0.8793(2) 0.56375(12)
H4 H -0.012(4) 0.908(3) 0.5412(14)
O6 O -1.51074(16) 0.51387(12) 0.84439(6)
C6 C -0.0626(3) 0.76598(19) 0.60678(10)
H5 H 0.069(4) 0.719(3) 0.6042(14)
O7 O -0.97617(16) 0.36832(11) 0.78238(6)
C7 C -0.1757(2) 0.69656(15) 0.65465(8)
O8 O -1.26061(16) 0.26604(11) 0.82809(6)
C8 C -0.5326(2) 0.38001(15) 0.66316(8)
C9 C -0.7025(2) 0.36659(18) 0.63899(9)
H6 H -0.805(3) 0.375(2) 0.6723(12)
O9 O -0.9150(3) 0.83030(16) 0.76008(11)
C10 C -0.7400(3) 0.3417(2) 0.57604(10)
H7 H -0.862(4) 0.340(3) 0.5681(14)
C11 C -0.6203(3) 0.3221(2) 0.51832(10)
H8 H -0.680(4) 0.312(3) 0.4794(15)
C12 C -0.4289(3) 0.3240(2) 0.51073(9)
H9 H -0.375(4) 0.318(2) 0.4680(13)
C13 C -0.3102(3) 0.3431(2) 0.55662(10)
H10 H -0.200(4) 0.341(3) 0.5431(15)
C14 C -0.3459(2) 0.36755(15) 0.62485(8)
C15 C -1.3003(2) 0.61618(16) 0.88451(8)
C16 C -1.2392(3) 0.68617(19) 0.92886(9)
H11 H -1.126(4) 0.713(2) 0.9173(14)
C17 C -1.3269(3) 0.72879(19) 0.98816(9)
H12 H -1.255(4) 0.769(3) 1.0093(14)
C18 C -1.5036(3) 0.71958(17) 1.01983(9)
H13 H -1.536(3) 0.750(2) 1.0609(11)
C19 C -1.6413(3) 0.66742(17) 0.99622(9)
H14 H -1.759(4) 0.672(3) 1.0220(14)
C20 C -1.6356(2) 0.60879(17) 0.93942(9)
H15 H -1.741(3) 0.576(2) 0.9314(12)
C21 C -1.4875(2) 0.57871(15) 0.88967(8)
C22 C -1.1016(2) 0.20045(15) 0.84597(8)
C23 C -1.0949(3) 0.08096(18) 0.88758(10)
H16 H -1.227(3) 0.054(2) 0.8980(12)
C24 C -0.9436(3) -0.00842(18) 0.91186(11)
H17 H -0.972(4) -0.075(3) 0.9336(15)
C25 C -0.7521(3) -0.00537(18) 0.90361(11)
H18 H -0.674(4) -0.075(3) 0.9238(14)
C26 C -0.6683(2) 0.09331(17) 0.86855(10)
H19 H -0.542(4) 0.078(3) 0.8657(14)
C27 C -0.7469(2) 0.20878(17) 0.83258(9)
H20 H -0.665(3) 0.269(2) 0.8124(12)
C28 C -0.9362(2) 0.26022(15) 0.81977(8)
C29 C -0.9843(4) 1.0759(2) 0.68918(15)
H21 H -1.004(4) 1.162(3) 0.6970(16)
H22 H -0.955(5) 1.065(3) 0.6424(18)
H23 H -0.872(5) 1.056(3) 0.7048(17)
C30 C -1.3246(3) 1.0678(2) 0.72396(13)
H24 H -1.349(4) 1.148(3) 0.7463(13)
H25 H -1.362(4) 1.094(2) 0.6762(14)
H26 H -1.408(4) 1.004(3) 0.7473(14)
C31 C -1.0779(4) 0.8884(2) 0.75743(13)
H27 H -1.195(4) 0.853(3) 0.7830(14)
K1_2 K 0.18527(5) 0.58157(3) 0.771126(19)
K1_3 K -1.81473(5) 0.58157(3) 0.771126(19)
Yb1_2 Yb -1.278148(8) 0.463064(6) 0.760317(3)
O4_2 O -1.09962(16) 0.59593(11) 0.69120(6)
O5_2 O -0.18784(17) 0.57981(12) 0.83495(6)
O6_2 O -0.51074(16) 0.51387(12) 0.84439(6)
O7_2 O 0.02383(16) 0.36832(11) 0.78238(6)
O8_2 O -0.26061(16) 0.26604(11) 0.82809(6)
loop_
_geom_bond_atom_site_label_1
_geom_bond_atom_site_label_2
_geom_bond_site_symmetry_1
_geom_bond_site_symmetry_2
K1 O1 1_555 1_555
Yb1 O1 1_555 1_555
C1 C2 1_555 1_555
O1 C8 1_555 1_555
O2 Yb1 1_555 1_555
C2 H1 1_555 1_555
N1 C29 1_555 1_555
O3 K1 1_555 1_555
C3 C2 1_555 1_555
H2 C3 1_555 1_555
O4 Yb1 1_555 1_555
C4 C3 1_555 1_555
H3 C4 1_555 1_555
O5 K1 1_555 1_555
C5 C4 1_555 1_555
H4 C5 1_555 1_555
O6 C21 1_555 1_555
C6 C5 1_555 1_555
H5 C6 1_555 1_555
O7 K1 1_555 1_555
C7 C1 1_555 1_555
O8 C22 1_555 1_555
C8 C9 1_555 1_555
C9 H6 1_555 1_555
O9 K1 1_555 1_555
C10 C9 1_555 1_555
H7 C10 1_555 1_555
C11 C10 1_555 1_555
H8 C11 1_555 1_555
C12 C11 1_555 1_555
H9 C12 1_555 1_555
C13 C12 1_555 1_555
H10 C13 1_555 1_555
C14 O2 1_555 1_555
C15 O5 1_555 1_555
C16 C15 1_555 1_555
H11 C16 1_555 1_555
C17 C16 1_555 1_555
H12 C17 1_555 1_555
C18 C17 1_555 1_555
H13 C18 1_555 1_555
C19 C18 1_555 1_555
H14 C19 1_555 1_555
C20 C19 1_555 1_555
H15 C20 1_555 1_555
C21 C15 1_555 1_555
C22 C23 1_555 1_555
C23 H16 1_555 1_555
C24 C23 1_555 1_555
H17 C24 1_555 1_555
C25 C24 1_555 1_555
H18 C25 1_555 1_555
C26 C25 1_555 1_555
H19 C26 1_555 1_555
C27 C26 1_555 1_555
H20 C27 1_555 1_555
C28 O7 1_555 1_555
C29 H21 1_555 1_555
H22 C29 1_555 1_555
H23 C29 1_555 1_555
C30 N1 1_555 1_555
H24 C30 1_555 1_555
H25 C30 1_555 1_555
H26 C30 1_555 1_555
C31 N1 1_555 1_555
H27 C31 1_555 1_555
K1_2 O4 1_555 1_555
K1_3 O6 1_555 1_555
Yb1_2 O5 1_555 1_555
O4_2 K1 1_555 1_555
O5_2 Yb1 1_555 1_555
O6_2 K1 1_555 1_555
O7_2 Yb1 1_555 1_555
O8_2 Yb1 1_555 1_555
Yb1 O3 1_555 1_555
Yb1 O6_2 1_555 1_555
C1 O3 1_555 1_555
O4 C7 1_555 1_555
O6 Yb1_2 1_555 1_555
C6 C7 1_555 1_555
O7 Yb1_2 1_555 1_555
O8 Yb1_2 1_555 1_555
C8 C14 1_555 1_555
O9 C31 1_555 1_555
C13 C14 1_555 1_555
C20 C21 1_555 1_555
C22 C28 1_555 1_555
C27 C28 1_555 1_555
K1_2 O5_2 1_555 1_555
K1_2 O7_2 1_555 1_555
Yb1_2 O4_2 1_555 1_555

#END
