
#######################################################################
#
#                 Cambridge Crystallographic Data Centre
#                                CCDC 
#
#######################################################################
#
# If this CIF has been generated from an entry in the Cambridge 
# Structural Database, then it will include bibliographic, chemical, 
# crystal, experimental, refinement or atomic coordinate data resulting 
# from the CCDC's data processing and validation procedures.
#
#######################################################################

data_LANBAE
_symmetry_cell_setting           triclinic
_symmetry_space_group_name_H-M   'P -1'
_symmetry_Int_Tables_number      2
_space_group_name_Hall           '-P 1'
loop_
_symmetry_equiv_pos_site_id
_symmetry_equiv_pos_as_xyz
1 x,y,z
2 -x,-y,-z
_cell_length_a                   7.296(3)
_cell_length_b                   11.077(4)
_cell_length_c                   20.107(7)
_cell_angle_alpha                79.576(6)
_cell_angle_beta                 84.340(7)
_cell_angle_gamma                78.757(6)
_cell_volume                     1564.13
loop_
_atom_site_label
_atom_site_type_symbol
_atom_site_fract_x
_atom_site_fract_y
_atom_site_fract_z
N1 N 0.6313(6) -0.0010(3) -0.2279(2)
O1 O -0.0426(3) 0.35030(17) -0.20663(11)
C1 C -0.1200(4) 0.2700(2) -0.16523(15)
O2 O -0.3988(2) 0.40370(16) -0.19090(10)
C2 C -0.0093(5) 0.1579(3) -0.1357(2)
H1 H 0.1198 0.1489 -0.1502
O3 O 0.0353(2) 0.59160(17) -0.22355(9)
C3 C -0.0559(6) 0.0599(3) -0.0897(2)
H2 H 0.0447 -0.0075 -0.0789
O4 O -0.2844(2) 0.61704(19) -0.15958(10)
C4 C -0.2245(7) 0.0436(4) -0.0569(3)
H3 H -0.2253 -0.0318 -0.0257
O5 O 0.7606(2) 0.73059(17) -0.32851(10)
C5 C -0.3934(6) 0.1241(4) -0.0640(2)
H4 H -0.4950 0.0981 -0.0354
O6 O 0.4779(2) 0.62942(16) -0.28312(11)
C6 C -0.4376(5) 0.2371(3) -0.10638(18)
H5 H -0.5656 0.2755 -0.1028
O7 O 0.6891(3) 0.4229(2) -0.33559(11)
C7 C -0.3248(4) 0.3049(2) -0.15403(14)
O8 O 1.0111(2) 0.48367(17) -0.34327(9)
O9 O 0.4179(5) 0.1723(3) -0.2626(2)
C8 C 0.0339(3) 0.6171(2) -0.16408(14)
C9 C 0.2019(4) 0.6295(3) -0.13918(16)
H6 H 0.3086 0.6187 -0.1702
C10 C 0.2383(4) 0.6547(4) -0.07730(19)
H7 H 0.3655 0.6579 -0.0726
C11 C 0.1196(5) 0.6757(4) -0.02170(19)
H8 H 0.1740 0.6921 0.0160
C12 C -0.0691(5) 0.6758(4) -0.01471(18)
H9 H -0.1284 0.6912 0.0279
C13 C -0.1859(4) 0.6568(3) -0.06016(17)
H10 H -0.3132 0.6620 -0.0436
C14 C -0.1507(3) 0.6313(2) -0.12657(14)
C15 C 0.6027(4) 0.7947(2) -0.34662(15)
C16 C 0.5961(5) 0.9139(3) -0.3873(2)
H11 H 0.7148 0.9374 -0.3999
C17 C 0.4462(5) 1.0010(3) -0.41144(19)
H12 H 0.4773 1.0757 -0.4374
C18 C 0.2573(5) 0.9967(3) -0.4037(2)
H13 H 0.1756 1.0686 -0.4242
C19 C 0.1749(4) 0.9001(3) -0.36988(18)
H14 H 0.0426 0.9135 -0.3714
C20 C 0.2526(4) 0.7869(3) -0.33406(16)
H15 H 0.1652 0.7346 -0.3153
C21 C 0.4391(3) 0.7358(2) -0.32052(13)
C22 C 0.8008(4) 0.3864(3) -0.38383(15)
C23 C 0.7398(5) 0.3187(3) -0.42829(18)
H16 H 0.6182 0.2994 -0.4167
C24 C 0.8279(6) 0.2769(3) -0.48517(19)
H17 H 0.7550 0.2362 -0.5076
C25 C 1.0030(5) 0.2833(3) -0.51557(18)
H18 H 1.0336 0.2506 -0.5566
C26 C 1.1382(5) 0.3323(3) -0.49241(16)
H19 H 1.2544 0.3244 -0.5186
C27 C 1.1330(4) 0.3916(3) -0.43717(15)
H20 H 1.2470 0.4166 -0.4313
C28 C 0.9868(4) 0.4212(2) -0.38789(13)
C29 C 0.5830(8) 0.1154(4) -0.2585(3)
H21 H 0.6243 0.1095 -0.3069
C30 C 0.8203(7) -0.0631(4) -0.2261(3)
H22 H 0.9013 -0.0084 -0.2525
H23 H 0.8347 -0.1397 -0.2454
H24 H 0.8555 -0.0841 -0.1790
C31 C 0.4836(7) -0.0701(4) -0.1910(3)
H25 H 0.3603 -0.0164 -0.1958
H26 H 0.5081 -0.0933 -0.1429
H27 H 0.4862 -0.1456 -0.2103
Tm1 Tm -0.220130(12) 0.535330(8) -0.260280(5)
K1 K 0.31615(7) 0.41735(5) -0.27056(3)
O2_2 O 0.6012(2) 0.40370(16) -0.19090(10)
O5_2 O -0.2394(2) 0.73059(17) -0.32851(10)
O6_2 O -0.5221(2) 0.62942(16) -0.28312(11)
O7_2 O -0.3109(3) 0.4229(2) -0.33559(11)
O8_2 O 0.0111(2) 0.48367(17) -0.34327(9)
Tm1_2 Tm 0.779870(12) 0.535330(8) -0.260280(5)
K1_2 K -0.68385(7) 0.41735(5) -0.27056(3)
K1_3 K 1.31615(7) 0.41735(5) -0.27056(3)
loop_
_geom_bond_atom_site_label_1
_geom_bond_atom_site_label_2
_geom_bond_site_symmetry_1
_geom_bond_site_symmetry_2
N1 C29 1_555 1_555
O1 C1 1_555 1_555
C1 C2 1_555 1_555
O2 C7 1_555 1_555
C2 H1 1_555 1_555
O3 C8 1_555 1_555
C3 C2 1_555 1_555
H2 C3 1_555 1_555
O4 C14 1_555 1_555
C4 C3 1_555 1_555
H3 C4 1_555 1_555
O5 C15 1_555 1_555
C5 C4 1_555 1_555
H4 C5 1_555 1_555
O6 C21 1_555 1_555
C6 C5 1_555 1_555
H5 C6 1_555 1_555
O7 C22 1_555 1_555
C7 C1 1_555 1_555
O8 C28 1_555 1_555
O9 C29 1_555 1_555
C8 C9 1_555 1_555
C9 H6 1_555 1_555
C10 C9 1_555 1_555
H7 C10 1_555 1_555
C11 C10 1_555 1_555
H8 C11 1_555 1_555
C12 C11 1_555 1_555
H9 C12 1_555 1_555
C13 C12 1_555 1_555
H10 C13 1_555 1_555
C14 C8 1_555 1_555
C15 C16 1_555 1_555
C16 H11 1_555 1_555
C17 C16 1_555 1_555
H12 C17 1_555 1_555
C18 C17 1_555 1_555
H13 C18 1_555 1_555
C19 C18 1_555 1_555
H14 C19 1_555 1_555
C20 C19 1_555 1_555
H15 C20 1_555 1_555
C21 C15 1_555 1_555
C22 C23 1_555 1_555
C23 H16 1_555 1_555
C24 C23 1_555 1_555
H17 C24 1_555 1_555
C25 C24 1_555 1_555
H18 C25 1_555 1_555
C26 C25 1_555 1_555
H19 C26 1_555 1_555
C27 C26 1_555 1_555
H20 C27 1_555 1_555
C28 C22 1_555 1_555
C29 H21 1_555 1_555
C30 N1 1_555 1_555
H22 C30 1_555 1_555
H23 C30 1_555 1_555
H24 C30 1_555 1_555
C31 N1 1_555 1_555
H25 C31 1_555 1_555
H26 C31 1_555 1_555
H27 C31 1_555 1_555
Tm1 O1 1_555 1_555
K1 O1 1_555 1_555
O2_2 K1 1_555 1_555
O5_2 Tm1 1_555 1_555
O6_2 Tm1 1_555 1_555
O7_2 Tm1 1_555 1_555
O8_2 Tm1 1_555 1_555
Tm1_2 O5 1_555 1_555
K1_2 O2 1_555 1_555
K1_3 O8 1_555 1_555
O2 Tm1 1_555 1_555
O3 Tm1 1_555 1_555
O3 K1 1_555 1_555
O4 Tm1 1_555 1_555
O6 K1 1_555 1_555
O6 Tm1_2 1_555 1_555
C6 C7 1_555 1_555
O7 K1 1_555 1_555
O7 Tm1_2 1_555 1_555
O8 Tm1_2 1_555 1_555
O9 K1 1_555 1_555
C13 C14 1_555 1_555
C20 C21 1_555 1_555
C27 C28 1_555 1_555
K1 O8_2 1_555 1_555
O2_2 Tm1_2 1_555 1_555
O6_2 K1_2 1_555 1_555
O7_2 K1_2 1_555 1_555

#END
