
#######################################################################
#
#                 Cambridge Crystallographic Data Centre
#                                CCDC 
#
#######################################################################
#
# If this CIF has been generated from an entry in the Cambridge 
# Structural Database, then it will include bibliographic, chemical, 
# crystal, experimental, refinement or atomic coordinate data resulting 
# from the CCDC's data processing and validation procedures.
#
#######################################################################

data_LANCEK
_symmetry_cell_setting           monoclinic
_symmetry_space_group_name_H-M   'P 21/n'
_symmetry_Int_Tables_number      14
_space_group_name_Hall           '-P 2yn'
loop_
_symmetry_equiv_pos_site_id
_symmetry_equiv_pos_as_xyz
1 x,y,z
2 1/2-x,1/2+y,1/2-z
3 -x,-y,-z
4 1/2+x,1/2-y,1/2+z
_cell_length_a                   14.3852(7)
_cell_length_b                   9.6487(5)
_cell_length_c                   17.4280(9)
_cell_angle_alpha                90
_cell_angle_beta                 105.7700(10)
_cell_angle_gamma                90
_cell_volume                     2327.93
loop_
_atom_site_label
_atom_site_type_symbol
_atom_site_fract_x
_atom_site_fract_y
_atom_site_fract_z
Dy1 Dy 0.604921(17) 0.47289(2) 0.259769(14)
S1 S 0.36749(10) 0.32357(16) 0.16213(8)
O1 O 0.4682(3) 0.3307(4) 0.2104(2)
O2 O 0.3258(3) 0.4612(5) 0.1434(3)
O3 O 0.3103(4) 0.2348(6) 0.1978(3)
O4 O 0.4063(4) 0.4842(4) -0.1216(3)
O5 O 0.3528(3) 0.3141(4) -0.2043(2)
O6 O 0.2670(3) 0.0319(4) -0.1959(2)
O7 O 0.4245(3) -0.0030(5) -0.1685(3)
O8 O 0.6545(3) 0.2479(4) 0.2389(3)
H1 H 0.7126(15) 0.224(6) 0.256(4)
H2 H 0.622(4) 0.180(4) 0.217(4)
O9 O 0.4682(3) 0.6129(5) 0.2456(3)
H3 H 0.422(4) 0.589(7) 0.207(3)
H4 H 0.465(5) 0.6988(19) 0.253(4)
N1 N 0.5893(4) 0.3636(5) 0.3864(3)
N2 N 0.6436(4) 0.6324(5) 0.3796(3)
C1 C 0.5629(5) 0.2329(7) 0.3899(4)
H9 H 0.5472 0.1816 0.3430
C2 C 0.5574(6) 0.1671(8) 0.4602(5)
H10 H 0.5386 0.0749 0.4598
C3 C 0.5804(5) 0.2422(9) 0.5294(4)
H11 H 0.5777 0.2006 0.5769
C4 C 0.6079(4) 0.3812(8) 0.5291(4)
C5 C 0.6328(5) 0.4680(10) 0.5983(4)
H12 H 0.6293 0.4317 0.6469
C6 C 0.6607(5) 0.5984(10) 0.5956(4)
H13 H 0.6764 0.6508 0.6421
C7 C 0.6673(5) 0.6603(8) 0.5226(4)
C8 C 0.6981(6) 0.7960(9) 0.5163(5)
H14 H 0.7165 0.8514 0.5616
C9 C 0.7016(6) 0.8474(9) 0.4453(5)
H15 H 0.7225 0.9377 0.4414
C10 C 0.6732(5) 0.7635(7) 0.3775(4)
H16 H 0.6751 0.8004 0.3286
C11 C 0.6409(4) 0.5806(7) 0.4521(3)
C12 C 0.6114(4) 0.4385(7) 0.4552(3)
C13 C 0.3692(4) 0.2467(6) 0.0699(3)
C14 C 0.3764(4) 0.3288(6) 0.0069(3)
H17 H 0.3835 0.4242 0.0136
C15 C 0.3730(4) 0.2696(6) -0.0663(3)
C16 C 0.3638(4) 0.1247(6) -0.0757(3)
C17 C 0.3649(4) 0.0425(6) -0.0092(3)
H18 H 0.3652 -0.0535 -0.0134
C18 C 0.3655(4) 0.1044(7) 0.0627(3)
H19 H 0.3635 0.0498 0.1061
C19 C 0.3777(4) 0.3615(6) -0.1346(3)
C20 C 0.3526(4) 0.0487(6) -0.1538(3)
Dy1B Dy 0.395079(17) 0.52711(2) -0.259769(14)
Dy1C Dy 0.104921(17) 0.02711(2) -0.240231(14)
O4B O 0.5937(4) 0.5158(4) 0.1216(3)
O5B O 0.6472(3) 0.6859(4) 0.2043(2)
O6C O 0.7670(3) 0.4681(4) 0.3041(2)
O10 O 0.4836(11) 0.8837(11) 0.2752(11)
H5 H 0.492(4) 0.911(11) 0.2318(17)
H6 H 0.523(10) 0.923(16) 0.313(2)
O11 O 0.3507(5) 1.0315(7) 0.3158(4)
H7 H 0.304(5) 0.986(11) 0.323(6)
H8 H 0.335(7) 1.064(12) 0.269(3)
H20? H 0.492(4) 0.911(11) 0.2318(17)
H21? H 0.417(10) 0.85(3) 0.174(3)
O12? O 0.4379(15) 0.8711(16) 0.2234(15)
loop_
_geom_bond_atom_site_label_1
_geom_bond_atom_site_label_2
_geom_bond_site_symmetry_1
_geom_bond_site_symmetry_2
Dy1 O1 1_555 1_555
S1 O1 1_555 1_555
O2 S1 1_555 1_555
O3 S1 1_555 1_555
O4 C19 1_555 1_555
O5 C19 1_555 1_555
O6 C20 1_555 1_555
O7 C20 1_555 1_555
O8 Dy1 1_555 1_555
H1 O8 1_555 1_555
H2 O8 1_555 1_555
O9 Dy1 1_555 1_555
H3 O9 1_555 1_555
H4 O9 1_555 1_555
O10 H5 1_555 1_555
H6 O10 1_555 1_555
O11 H7 1_555 1_555
H8 O11 1_555 1_555
N1 Dy1 1_555 1_555
N2 Dy1 1_555 1_555
C1 N1 1_555 1_555
H9 C1 1_555 1_555
C2 C1 1_555 1_555
H10 C2 1_555 1_555
C3 C2 1_555 1_555
H11 C3 1_555 1_555
C4 C3 1_555 1_555
C5 C4 1_555 1_555
H12 C5 1_555 1_555
C6 C5 1_555 1_555
H13 C6 1_555 1_555
C7 C6 1_555 1_555
C8 C7 1_555 1_555
H14 C8 1_555 1_555
C9 C8 1_555 1_555
H15 C9 1_555 1_555
C10 N2 1_555 1_555
H16 C10 1_555 1_555
C11 N2 1_555 1_555
C12 N1 1_555 1_555
C13 S1 1_555 1_555
C14 C13 1_555 1_555
H17 C14 1_555 1_555
C15 C14 1_555 1_555
C16 C15 1_555 1_555
C17 C16 1_555 1_555
H18 C17 1_555 1_555
C18 C13 1_555 1_555
H19 C18 1_555 1_555
C19 C15 1_555 1_555
C20 C16 1_555 1_555
Dy1B O4 1_555 1_555
Dy1C O6 1_555 1_555
O4B Dy1 1_555 1_555
O5B Dy1 1_555 1_555
O6C Dy1 1_555 1_555
O5 Dy1B 1_555 1_555
C4 C12 1_555 1_555
C7 C11 1_555 1_555
C9 C10 1_555 1_555
C11 C12 1_555 1_555
C17 C18 1_555 1_555

#END
