
#######################################################################
#
#                 Cambridge Crystallographic Data Centre
#                                CCDC 
#
#######################################################################
#
# If this CIF has been generated from an entry in the Cambridge 
# Structural Database, then it will include bibliographic, chemical, 
# crystal, experimental, refinement or atomic coordinate data resulting 
# from the CCDC's data processing and validation procedures.
#
#######################################################################

data_LANCIO
_symmetry_cell_setting           monoclinic
_symmetry_space_group_name_H-M   'P 21/c'
_symmetry_Int_Tables_number      14
_space_group_name_Hall           '-P 2ybc'
loop_
_symmetry_equiv_pos_site_id
_symmetry_equiv_pos_as_xyz
1 x,y,z
2 -x,1/2+y,1/2-z
3 -x,-y,-z
4 x,1/2-y,1/2+z
_cell_length_a                   6.4565(14)
_cell_length_b                   18.874(4)
_cell_length_c                   10.449(2)
_cell_angle_alpha                90
_cell_angle_beta                 90.485(5)
_cell_angle_gamma                90
_cell_volume                     1273.27
loop_
_atom_site_label
_atom_site_type_symbol
_atom_site_fract_x
_atom_site_fract_y
_atom_site_fract_z
Cd1 Cd 0.25318(3) 0.538064(9) 0.443664(17)
N1 N 0.6247(3) 0.60924(12) 0.1163(2)
N2 N 0.4047(3) 0.56039(12) 0.2487(2)
N3 N 0.9231(4) 0.75635(12) -0.0341(2)
N4 N 1.1350(4) 0.84573(12) -0.0646(2)
N5 N 0.5555(3) 0.57080(12) 0.5537(2)
N6 N 0.5556(4) 0.61004(12) 0.6435(2)
N7 N 0.5618(5) 0.64938(15) 0.7285(3)
N8 N -0.0515(3) 0.48306(13) 0.3709(2)
N9 N -0.0800(3) 0.46469(11) 0.2657(2)
N10 N -0.1107(4) 0.44775(15) 0.1588(3)
C1 C 0.8087(4) 0.64601(16) 0.0693(3)
H1 H 0.8769 0.6170 0.0030
H2 H 0.9085 0.6534 0.1405
C2 C 0.7448(4) 0.71673(15) 0.0134(3)
H3 H 0.6452 0.7088 -0.0578
H4 H 0.6742 0.7450 0.0798
C3 C 0.5867(4) 0.59166(14) 0.2384(3)
H5 H 0.6786 0.6005 0.3081
C4 C 0.3236(4) 0.55828(15) 0.1267(3)
H6 H 0.1927 0.5388 0.1039
C5 C 0.4581(4) 0.58817(15) 0.0439(3)
H7 H 0.4405 0.5934 -0.0460
C6 C 0.9741(4) 0.82267(14) -0.0004(3)
H8 H 0.9028 0.8497 0.0621
C7 C 1.1899(5) 0.79080(16) -0.1438(3)
H9 H 1.3012 0.7917 -0.2027
C8 C 1.0618(5) 0.73543(17) -0.1252(3)
H10 H 1.0667 0.6908 -0.1669
Cd1C Cd 1.25318(3) 0.961936(9) -0.056336(17)
Cd1B Cd 0.74682(3) 0.461936(9) 0.556336(17)
Cd1B_2 Cd -0.25318(3) 0.461936(9) 0.556336(17)
N4C N 0.1350(4) 0.65427(12) 0.4354(2)
N5B N 0.4445(3) 0.42920(12) 0.4463(2)
N8B N 0.0515(3) 0.51694(13) 0.6291(2)
loop_
_geom_bond_atom_site_label_1
_geom_bond_atom_site_label_2
_geom_bond_site_symmetry_1
_geom_bond_site_symmetry_2
Cd1 N2 1_555 1_555
N1 C1 1_555 1_555
N2 C3 1_555 1_555
N3 C2 1_555 1_555
N4 C6 1_555 1_555
N5 Cd1 1_555 1_555
N6 N5 1_555 1_555
N7 N6 1_555 1_555
N8 Cd1 1_555 1_555
N9 N8 1_555 1_555
N10 N9 1_555 1_555
C1 H1 1_555 1_555
H2 C1 1_555 1_555
C2 C1 1_555 1_555
H3 C2 1_555 1_555
H4 C2 1_555 1_555
C3 N1 1_555 1_555
H5 C3 1_555 1_555
C4 N2 1_555 1_555
H6 C4 1_555 1_555
C5 N1 1_555 1_555
H7 C5 1_555 1_555
C6 N3 1_555 1_555
H8 C6 1_555 1_555
C7 N4 1_555 1_555
H9 C7 1_555 1_555
C8 N3 1_555 1_555
H10 C8 1_555 1_555
Cd1C N4 1_555 1_555
Cd1B N5 1_555 1_555
Cd1B_2 N8 1_555 1_555
N4C Cd1 1_555 1_555
N5B Cd1 1_555 1_555
N8B Cd1 1_555 1_555
C4 C5 1_555 1_555
C7 C8 1_555 1_555
Cd1B N5B 1_555 1_555
Cd1B_2 N8B 1_555 1_555

#END
