
#######################################################################
#
#                 Cambridge Crystallographic Data Centre
#                                CCDC 
#
#######################################################################
#
# If this CIF has been generated from an entry in the Cambridge 
# Structural Database, then it will include bibliographic, chemical, 
# crystal, experimental, refinement or atomic coordinate data resulting 
# from the CCDC's data processing and validation procedures.
#
#######################################################################

data_LANCOU
_symmetry_cell_setting           monoclinic
_symmetry_space_group_name_H-M   'P 21/n'
_symmetry_Int_Tables_number      14
_space_group_name_Hall           '-P 2yn'
loop_
_symmetry_equiv_pos_site_id
_symmetry_equiv_pos_as_xyz
1 x,y,z
2 1/2-x,1/2+y,1/2-z
3 -x,-y,-z
4 1/2+x,1/2-y,1/2+z
_cell_length_a                   18.426(4)
_cell_length_b                   6.9082(14)
_cell_length_c                   18.583(4)
_cell_angle_alpha                90
_cell_angle_beta                 111.98(3)
_cell_angle_gamma                90
_cell_volume                     2193.51
loop_
_atom_site_label
_atom_site_type_symbol
_atom_site_fract_x
_atom_site_fract_y
_atom_site_fract_z
Sm1 Sm 0.373309(7) 0.222784(18) 0.378119(7)
Sm2 Sm 0.374970(8) 0.250030(17) -0.103280(7)
N1 N 0.42996(13) 0.3322(3) 0.27802(12)
C1 C 0.38355(15) 0.4105(3) 0.21147(15)
C2 C 0.40694(15) 0.4323(3) 0.14877(15)
H1 H 0.3735 0.4861 0.1023
C3 C 0.48176(15) 0.3710(3) 0.15774(15)
C4 C 0.53246(15) 0.3029(4) 0.22948(15)
H2 H 0.5840 0.2707 0.2377
C5 C 0.50357(15) 0.2846(3) 0.28859(15)
C6 C 0.30319(15) 0.4640(4) 0.20964(15)
O1 O 0.26044(11) 0.5719(3) 0.15807(11)
O2 O 0.28618(11) 0.3912(3) 0.26427(11)
C7 C 0.50797(15) 0.3719(3) 0.08959(14)
O3 O 0.45938(12) 0.3160(3) 0.02671(11)
O4 O 0.57737(11) 0.4236(3) 0.10278(11)
C8 C 0.55086(16) 0.2082(4) 0.36836(16)
O5 O 0.62134(12) 0.1852(3) 0.38807(12)
O6 O 0.51110(11) 0.1716(3) 0.41069(11)
O7 O 0.36682(12) -0.0503(3) 0.29113(11)
H3 H 0.3178 -0.0743 0.2654
H4 H 0.3869 -0.0502 0.2585
O8 O 0.40849(13) 0.5640(3) 0.39790(13)
H5 H 0.4563 0.6135 0.4218
H6 H 0.3682 0.5986 0.4083
O9 O 0.37653(13) -0.0753(3) 0.45208(12)
H7 H 0.4159 -0.0992 0.4946
H8 H 0.3363 -0.1166 0.4672
N2 N 0.38147(13) 0.2822(3) 0.76366(13)
C9 C 0.31935(15) 0.3494(3) 0.70511(15)
C10 C 0.31717(16) 0.3588(4) 0.62931(15)
H9 H 0.2726 0.4017 0.5888
C11 C 0.38335(16) 0.3023(4) 0.61614(15)
C12 C 0.44856(17) 0.2360(3) 0.67751(16)
H10 H 0.4938 0.2004 0.6699
C13 C 0.44461(16) 0.2242(3) 0.75073(16)
C14 C 0.25231(16) 0.4146(4) 0.72805(15)
O10 O 0.19320(12) 0.4815(3) 0.67583(11)
O11 O 0.26175(12) 0.3950(3) 0.79795(11)
C15 C 0.38312(17) 0.3038(4) 0.53467(15)
O12 O 0.44658(13) 0.2832(3) 0.52504(12)
O13 O 0.31898(12) 0.3173(3) 0.47848(11)
C16 C 0.50960(15) 0.1461(3) 0.82233(15)
O14 O 0.57112(12) 0.0880(3) 0.81788(11)
O15 O 0.49458(12) 0.1467(3) 0.88390(11)
O16 O 0.39568(13) -0.0498(3) -0.02647(11)
H11 H 0.4251 -0.0676 0.0162
H12 H 0.3898 -0.1564 -0.0470
O17 O 0.28096(12) 0.3100(3) -0.04540(13)
H13 H 0.2358 0.3132 -0.0739
H14 H 0.2806 0.2465 -0.0071
Sm1A Sm 0.126691(7) 0.722784(18) 0.121881(7)
Sm2B Sm 0.625030(8) 0.749970(17) 0.103280(7)
Sm2_2 Sm 0.374970(8) 0.250030(17) 0.896720(7)
Sm2A Sm 0.125030(8) 0.750030(17) 0.603280(7)
O1A O 0.23956(11) 0.0719(3) 0.34193(11)
O4B O 0.42263(11) 0.5764(3) -0.10278(11)
N2_2 N 0.38147(13) 0.2822(3) -0.23634(13)
O10A O 0.30680(12) -0.0185(3) -0.17583(11)
O11_2 O 0.26175(12) 0.3950(3) -0.20205(11)
O15_2 O 0.49458(12) 0.1467(3) -0.11610(11)
O18 O 0.21204(15) 0.6072(3) 0.41898(14)
H15 H 0.2389 0.5106 0.4367
H16 H 0.1688 0.5550 0.3908
loop_
_geom_bond_atom_site_label_1
_geom_bond_atom_site_label_2
_geom_bond_site_symmetry_1
_geom_bond_site_symmetry_2
Sm1 N1 1_555 1_555
Sm2 O3 1_555 1_555
N1 C1 1_555 1_555
C1 C2 1_555 1_555
C2 H1 1_555 1_555
C3 C2 1_555 1_555
C4 C3 1_555 1_555
H2 C4 1_555 1_555
C5 N1 1_555 1_555
C6 C1 1_555 1_555
O1 C6 1_555 1_555
O2 Sm1 1_555 1_555
C7 C3 1_555 1_555
O3 C7 1_555 1_555
O4 C7 1_555 1_555
C8 C5 1_555 1_555
O5 C8 1_555 1_555
O6 Sm1 1_555 1_555
O7 Sm1 1_555 1_555
H3 O7 1_555 1_555
H4 O7 1_555 1_555
O8 Sm1 1_555 1_555
H5 O8 1_555 1_555
H6 O8 1_555 1_555
O9 Sm1 1_555 1_555
H7 O9 1_555 1_555
H8 O9 1_555 1_555
N2 C9 1_555 1_555
C9 C10 1_555 1_555
C10 H9 1_555 1_555
C11 C10 1_555 1_555
C12 C11 1_555 1_555
H10 C12 1_555 1_555
C13 N2 1_555 1_555
C14 C9 1_555 1_555
O10 C14 1_555 1_555
O11 C14 1_555 1_555
C15 C11 1_555 1_555
O12 Sm1 1_555 1_555
O13 Sm1 1_555 1_555
C16 C13 1_555 1_555
O14 C16 1_555 1_555
O15 C16 1_555 1_555
O16 Sm2 1_555 1_555
H11 O16 1_555 1_555
H12 O16 1_555 1_555
O17 Sm2 1_555 1_555
H13 O17 1_555 1_555
H14 O17 1_555 1_555
O18 H15 1_555 1_555
H16 O18 1_555 1_555
Sm1A O1 1_555 1_555
Sm2B O4 1_555 1_555
Sm2_2 N2 1_555 1_555
Sm2A O10 1_555 1_555
O1A Sm1 1_555 1_555
O4B Sm2 1_555 1_555
N2_2 Sm2 1_555 1_555
O10A Sm2 1_555 1_555
O11_2 Sm2 1_555 1_555
O15_2 Sm2 1_555 1_555
C4 C5 1_555 1_555
C6 O2 1_555 1_555
C8 O6 1_555 1_555
C12 C13 1_555 1_555
O11 Sm2_2 1_555 1_555
C15 O12 1_555 1_555
C15 O13 1_555 1_555
O15 Sm2_2 1_555 1_555

#END
