
#######################################################################
#
#                 Cambridge Crystallographic Data Centre
#                                CCDC 
#
#######################################################################
#
# If this CIF has been generated from an entry in the Cambridge 
# Structural Database, then it will include bibliographic, chemical, 
# crystal, experimental, refinement or atomic coordinate data resulting 
# from the CCDC's data processing and validation procedures.
#
#######################################################################

data_LAPFUE
_symmetry_cell_setting           orthorhombic
_symmetry_space_group_name_H-M   'C m c a'
_symmetry_Int_Tables_number      64
_space_group_name_Hall           '-C 2ac 2'
loop_
_symmetry_equiv_pos_site_id
_symmetry_equiv_pos_as_xyz
1 x,y,z
2 1/2+x,1/2+y,z
3 -x,1/2-y,1/2+z
4 -x,1/2+y,1/2-z
5 x,-y,-z
6 1/2-x,-y,1/2+z
7 1/2-x,y,1/2-z
8 1/2+x,1/2-y,-z
9 -x,-y,-z
10 1/2-x,1/2-y,-z
11 x,1/2+y,1/2-z
12 x,1/2-y,1/2+z
13 -x,y,z
14 1/2+x,y,1/2-z
15 1/2+x,-y,1/2+z
16 1/2-x,1/2+y,z
_cell_length_a                   7.333(2)
_cell_length_b                   18.187(6)
_cell_length_c                   13.579(4)
_cell_angle_alpha                90
_cell_angle_beta                 90
_cell_angle_gamma                90
_cell_volume                     1810.97
loop_
_atom_site_label
_atom_site_type_symbol
_atom_site_fract_x
_atom_site_fract_y
_atom_site_fract_z
Cu1 Cu 0.5000 0.5000 0.0000
N1 N 0.5000 0.56634(14) 0.12099(18)
N2 N 0.5000 0.7405(3) 0.4357(4)
N3 N 0.2904(4) 0.43185(16) 0.0679(2)
N4 N 0.0000 0.3831(2) 0.1291(3)
C1 C 0.5000 0.63964(19) 0.1101(3)
H1 H 0.5000 0.6591 0.0468
C2 C 0.5000 0.6869(2) 0.1881(3)
H2 H 0.5000 0.7375 0.1784
C3 C 0.5000 0.6575(2) 0.2826(3)
C4 C 0.5000 0.5823(2) 0.2948(3)
H3 H 0.5000 0.5615 0.3574
C5 C 0.5000 0.5387(2) 0.2122(2)
H4 H 0.5000 0.4879 0.2200
C6 C 0.5000 0.7049(3) 0.3684(3)
C7 C 0.1534(5) 0.40965(15) 0.09403(19)
Cu1_2 Cu -0.5000 0.5000 0.0000
Cu1_3 Cu 1.5000 0.5000 0.0000
N1H N 0.5000 0.43366(14) -0.12099(18)
N2H N 0.5000 0.2595(3) -0.4357(4)
N3L N -0.2904(4) 0.43185(16) 0.0679(2)
N3L_2 N 0.7096(4) 0.43185(16) 0.0679(2)
N3_2 N 1.2904(4) 0.43185(16) 0.0679(2)
N3H N 0.7096(4) 0.56815(16) -0.0679(2)
N3D N 0.2904(4) 0.56815(16) -0.0679(2)
N4_2 N 1.0000 0.3831(2) 0.1291(3)
C1H C 0.5000 0.36036(19) -0.1101(3)
H1H H 0.5000 0.3409 -0.0468
C2H C 0.5000 0.3131(2) -0.1881(3)
H2H H 0.5000 0.2625 -0.1784
C3H C 0.5000 0.3425(2) -0.2826(3)
C4H C 0.5000 0.4177(2) -0.2948(3)
H3H H 0.5000 0.4385 -0.3574
C5H C 0.5000 0.4613(2) -0.2122(2)
H4H H 0.5000 0.5121 -0.2200
C6H C 0.5000 0.2951(3) -0.3684(3)
C7L C -0.1534(5) 0.40965(15) 0.09403(19)
C7L_2 C 0.8466(5) 0.40965(15) 0.09403(19)
C7_2 C 1.1534(5) 0.40965(15) 0.09403(19)
loop_
_geom_bond_atom_site_label_1
_geom_bond_atom_site_label_2
_geom_bond_site_symmetry_1
_geom_bond_site_symmetry_2
Cu1 N1 1_555 1_555
N1 C1 1_555 1_555
N2 C6 1_555 1_555
N3 Cu1 1_555 1_555
N4 C7 1_555 1_555
C1 H1 1_555 1_555
C2 C1 1_555 1_555
H2 C2 1_555 1_555
C3 C2 1_555 1_555
C4 C3 1_555 1_555
H3 C4 1_555 1_555
C5 N1 1_555 1_555
H4 C5 1_555 1_555
C6 C3 1_555 1_555
C7 N3 1_555 1_555
Cu1_2 N3L 1_555 1_555
Cu1_3 N3_2 1_555 1_555
N1H Cu1 1_555 1_555
N2H C6H 1_555 1_555
N3L C7L 1_555 1_555
N3L_2 Cu1 1_555 1_555
N3_2 C7_2 1_555 1_555
N3H Cu1 1_555 1_555
N3D Cu1 1_555 1_555
N4_2 C7L_2 1_555 1_555
C1H N1H 1_555 1_555
H1H C1H 1_555 1_555
C2H C1H 1_555 1_555
H2H C2H 1_555 1_555
C3H C2H 1_555 1_555
C4H C3H 1_555 1_555
H3H C4H 1_555 1_555
C5H N1H 1_555 1_555
H4H C5H 1_555 1_555
C6H C3H 1_555 1_555
C7L N4 1_555 1_555
C7L_2 N3L_2 1_555 1_555
C7_2 N4_2 1_555 1_555
C4 C5 1_555 1_555
C4H C5H 1_555 1_555

#END
