
#######################################################################
#
#                 Cambridge Crystallographic Data Centre
#                                CCDC 
#
#######################################################################
#
# If this CIF has been generated from an entry in the Cambridge 
# Structural Database, then it will include bibliographic, chemical, 
# crystal, experimental, refinement or atomic coordinate data resulting 
# from the CCDC's data processing and validation procedures.
#
#######################################################################

data_LAPGEP
_symmetry_cell_setting           monoclinic
_symmetry_space_group_name_H-M   'P 21/n'
_symmetry_Int_Tables_number      14
_space_group_name_Hall           '-P 2yn'
loop_
_symmetry_equiv_pos_site_id
_symmetry_equiv_pos_as_xyz
1 x,y,z
2 1/2-x,1/2+y,1/2-z
3 -x,-y,-z
4 1/2+x,1/2-y,1/2+z
_cell_length_a                   10.187(5)
_cell_length_b                   12.714(7)
_cell_length_c                   10.213(5)
_cell_angle_alpha                90
_cell_angle_beta                 98.122(8)
_cell_angle_gamma                90
_cell_volume                     1309.49
loop_
_atom_site_label
_atom_site_type_symbol
_atom_site_fract_x
_atom_site_fract_y
_atom_site_fract_z
Cu1 Cu 0.44450(3) 0.12959(3) 0.30170(3)
N1 N 0.3716(2) 0.12489(18) 0.46947(19)
H1 H 0.4218 0.1248 0.5446
O1 O 0.17174(18) 0.12156(17) 0.55544(18)
N2 N 0.2501(2) 0.11889(18) 0.2305(2)
N3 N 0.4118(3) 0.3262(2) 0.2630(3)
N4 N 0.3357(2) 0.3717(3) 0.0338(3)
N5 N 0.1250(2) 0.3626(2) -0.1056(2)
N6 N 0.5098(2) 0.1185(2) 0.1301(2)
N7 N 0.6466(2) 0.1276(2) -0.0461(2)
N8 N 0.5684(2) 0.0994(2) -0.2816(2)
C1 C 0.1929(3) 0.1188(2) 0.1041(3)
H2 H 0.2465 0.1195 0.0376
C2 C 0.0576(3) 0.1179(2) 0.0694(3)
H3 H 0.0202 0.1186 -0.0191
C3 C -0.0200(3) 0.1157(3) 0.1662(3)
H4 H -0.1118 0.1147 0.1442
C4 C 0.0365(3) 0.1152(2) 0.2989(3)
H5 H -0.0157 0.1126 0.3666
C5 C 0.1716(3) 0.1186(2) 0.3250(3)
C6 C 0.2479(3) 0.1219(2) 0.4606(2)
C7 C 0.2352(3) 0.1279(3) 0.6900(3)
H6 H 0.2892 0.0666 0.7108
H7 H 0.1690 0.1315 0.7481
H8 H 0.2897 0.1897 0.7011
C8 C 0.3689(3) 0.3469(2) 0.1574(3)
C9 C 0.2197(3) 0.3644(2) -0.0326(3)
C10 C 0.5691(3) 0.1220(2) 0.0434(3)
C11 C 0.6004(3) 0.1122(2) -0.1714(3)
Cu1C Cu -0.05550(3) 0.37041(3) -0.19830(3)
N5C N 0.6250(2) 0.1374(2) 0.3944(2)
loop_
_geom_bond_atom_site_label_1
_geom_bond_atom_site_label_2
_geom_bond_site_symmetry_1
_geom_bond_site_symmetry_2
Cu1 N1 1_555 1_555
N1 H1 1_555 1_555
O1 C6 1_555 1_555
N2 Cu1 1_555 1_555
N3 Cu1 1_555 1_555
N4 C8 1_555 1_555
N5 C9 1_555 1_555
N6 Cu1 1_555 1_555
N7 C10 1_555 1_555
N8 C11 1_555 1_555
C1 N2 1_555 1_555
H2 C1 1_555 1_555
C2 C1 1_555 1_555
H3 C2 1_555 1_555
C3 C2 1_555 1_555
H4 C3 1_555 1_555
C4 C3 1_555 1_555
H5 C4 1_555 1_555
C5 N2 1_555 1_555
C6 N1 1_555 1_555
C7 O1 1_555 1_555
H6 C7 1_555 1_555
H7 C7 1_555 1_555
H8 C7 1_555 1_555
C8 N3 1_555 1_555
C9 N4 1_555 1_555
C10 N6 1_555 1_555
C11 N7 1_555 1_555
Cu1C N5 1_555 1_555
N5C Cu1 1_555 1_555
C4 C5 1_555 1_555
C5 C6 1_555 1_555

#END
