
#######################################################################
#
#                 Cambridge Crystallographic Data Centre
#                                CCDC 
#
#######################################################################
#
# If this CIF has been generated from an entry in the Cambridge 
# Structural Database, then it will include bibliographic, chemical, 
# crystal, experimental, refinement or atomic coordinate data resulting 
# from the CCDC's data processing and validation procedures.
#
#######################################################################

data_LAPGIT
_symmetry_cell_setting           trigonal
_symmetry_space_group_name_H-M   'P -3'
_symmetry_Int_Tables_number      147
_space_group_name_Hall           '-P 3'
loop_
_symmetry_equiv_pos_site_id
_symmetry_equiv_pos_as_xyz
1 x,y,z
2 -y,x-y,z
3 -x+y,-x,z
4 -x,-y,-z
5 y,-x+y,-z
6 x-y,x,-z
_cell_length_a                   13.7913(13)
_cell_length_b                   13.7913(13)
_cell_length_c                   11.728(2)
_cell_angle_alpha                90
_cell_angle_beta                 90
_cell_angle_gamma                120
_cell_volume                     1931.81
loop_
_atom_site_label
_atom_site_type_symbol
_atom_site_fract_x
_atom_site_fract_y
_atom_site_fract_z
Li1 Li 0.6667 0.3333 0.1249(4)
Br1 Br 0.6667 0.3333 -0.09226(3)
P1 P 0.51830(3) 0.46018(3) 0.17808(3)
O1 O 0.59851(7) 0.41834(8) 0.17469(9)
C1 C 0.37562(12) 0.34679(11) 0.18711(13)
C2 C 0.35650(15) 0.24044(15) 0.1868(2)
H1 H 0.4162 0.2270 0.1867
C3 C 0.24918(19) 0.15333(18) 0.1866(3)
H2 H 0.2361 0.0803 0.1883
C4 C 0.16032(19) 0.17154(19) 0.1839(3)
H3 H 0.0875 0.1115 0.1802
C5 C 0.17964(16) 0.27777(17) 0.1867(3)
H4 H 0.1198 0.2910 0.1889
C6 C 0.28601(13) 0.36484(15) 0.18646(17)
H5 H 0.2987 0.4377 0.1858
C7 C 0.54768(11) 0.55318(11) 0.29719(12)
C8 C 0.49656(12) 0.61696(12) 0.31122(13)
H6 H 0.4467 0.6145 0.2564
C9 C 0.51913(14) 0.68396(13) 0.40587(14)
H7 H 0.4835 0.7256 0.4155
C10 C 0.59497(15) 0.68933(14) 0.48674(15)
H8 H 0.6112 0.7354 0.5501
C11 C 0.64524(14) 0.62761(14) 0.47339(14)
H9 H 0.6957 0.6313 0.5282
C12 C 0.62294(12) 0.55913(13) 0.37967(14)
H10 H 0.6582 0.5170 0.3717
C13 C 0.52023(12) 0.53669(11) 0.05307(11)
H11 H 0.4729 0.5692 0.0660
H12 H 0.5960 0.5975 0.0403
Li1C Li 0.3333 0.6667 -0.1249(4)
Li1C_2 Li 0.3333 -0.3333 -0.1249(4)
Li1C_3 Li 1.3333 0.6667 -0.1249(4)
Br1C Br 0.3333 0.6667 0.09226(3)
P1C P 0.48170(3) 0.53982(3) -0.17808(3)
P1A P 0.53982(3) 0.05812(4) 0.17808(3)
P1D P 0.46018(3) -0.05812(4) -0.17808(3)
P1B P 0.94188(4) 0.48170(3) 0.17808(3)
P1E P 1.05812(4) 0.51830(3) -0.17808(3)
O1C O 0.40149(7) 0.58166(8) -0.17469(9)
O1A O 0.58166(8) 0.18017(11) 0.17469(9)
O1D O 0.41834(8) -0.18017(11) -0.17469(9)
O1B O 0.81983(11) 0.40149(7) 0.17469(9)
O1E O 1.18017(11) 0.59851(7) -0.17469(9)
O1D_2 O 0.41834(8) 0.81983(11) -0.17469(9)
O1E_2 O 0.18017(11) 0.59851(7) -0.17469(9)
C1C C 0.62438(12) 0.65321(11) -0.18711(13)
C1A C 0.65321(11) 0.02883(16) 0.18711(13)
C1D C 0.34679(11) -0.02883(16) -0.18711(13)
C1B C 0.97117(16) 0.62438(12) 0.18711(13)
C1E C 1.02883(16) 0.37562(12) -0.18711(13)
C2C C 0.64350(15) 0.75956(15) -0.1868(2)
C2A C 0.75956(15) 0.11606(21) 0.1868(2)
C2D C 0.24044(15) -0.11606(21) -0.1868(2)
C2B C 0.88394(21) 0.64350(15) 0.1868(2)
C2E C 1.11606(21) 0.35650(15) -0.1868(2)
H1C H 0.5838 0.7730 -0.1867
H1A H 0.7730 0.1892 0.1867
H1D H 0.2270 -0.1892 -0.1867
H1B H 0.8108 0.5838 0.1867
H1E H 1.1892 0.4162 -0.1867
C3C C 0.75082(19) 0.84667(18) -0.1866(3)
C3A C 0.84667(18) 0.09585(26) 0.1866(3)
C3D C 0.15333(18) -0.09585(26) -0.1866(3)
C3B C 0.90415(26) 0.75082(19) 0.1866(3)
C3E C 1.09585(26) 0.24918(19) -0.1866(3)
H2C H 0.7639 0.9197 -0.1883
H2A H 0.9197 0.1558 0.1883
H2D H 0.0803 -0.1558 -0.1883
H2B H 0.8442 0.7639 0.1883
H2E H 1.1558 0.2361 -0.1883
C4C C 0.83968(19) 0.82846(19) -0.1839(3)
C4A C 0.82846(19) -0.01122(27) 0.1839(3)
C4D C 0.17154(19) 0.01122(27) -0.1839(3)
C4B C 1.01122(27) 0.83968(19) 0.1839(3)
C4E C 0.98878(27) 0.16032(19) -0.1839(3)
H3C H 0.9125 0.8885 -0.1802
H3A H 0.8885 -0.0240 0.1802
H3D H 0.1115 0.0240 -0.1802
H3B H 1.0240 0.9125 0.1802
H3E H 0.9760 0.0875 -0.1802
C5C C 0.82036(16) 0.72223(17) -0.1867(3)
C5A C 0.72223(17) -0.09813(23) 0.1867(3)
C5D C 0.27777(17) 0.09813(23) -0.1867(3)
C5B C 1.09813(23) 0.82036(16) 0.1867(3)
C5E C 0.90187(23) 0.17964(16) -0.1867(3)
H4C H 0.8802 0.7090 -0.1889
H4A H 0.7090 -0.1712 0.1889
H4D H 0.2910 0.1712 -0.1889
H4B H 1.1712 0.8802 0.1889
H4E H 0.8288 0.1198 -0.1889
C6C C 0.71399(13) 0.63516(15) -0.18646(17)
C6A C 0.63516(15) -0.07883(20) 0.18646(17)
C6D C 0.36484(15) 0.07883(20) -0.18646(17)
C6B C 1.07883(20) 0.71399(13) 0.18646(17)
C6E C 0.92117(20) 0.28601(13) -0.18646(17)
H5C H 0.7013 0.5623 -0.1858
H5A H 0.5623 -0.1390 0.1858
H5D H 0.4377 0.1390 -0.1858
H5B H 1.1390 0.7013 0.1858
H5E H 0.8610 0.2987 -0.1858
C7C C 0.45232(11) 0.44682(11) -0.29719(12)
C7A C 0.44682(11) -0.00550(16) 0.29719(12)
C7D C 0.55318(11) 0.00550(16) -0.29719(12)
C7B C 1.00550(16) 0.45232(11) 0.29719(12)
C7E C 0.99450(16) 0.54768(11) -0.29719(12)
C8C C 0.50344(12) 0.38304(12) -0.31122(13)
C8A C 0.38304(12) -0.12040(17) 0.31122(13)
C8D C 0.61696(12) 0.12040(17) -0.31122(13)
C8B C 1.12040(17) 0.50344(12) 0.31122(13)
C8E C 0.87960(17) 0.49656(12) -0.31122(13)
H6C H 0.5533 0.3855 -0.2564
H6A H 0.3855 -0.1678 0.2564
H6D H 0.6145 0.1678 -0.2564
H6B H 1.1678 0.5533 0.2564
H6E H 0.8322 0.4467 -0.2564
C9C C 0.48087(14) 0.31604(13) -0.40587(14)
C9A C 0.31604(13) -0.16483(19) 0.40587(14)
C9D C 0.68396(13) 0.16483(19) -0.40587(14)
C9B C 1.16483(19) 0.48087(14) 0.40587(14)
C9E C 0.83517(19) 0.51913(14) -0.40587(14)
H7C H 0.5165 0.2744 -0.4155
H7A H 0.2744 -0.2421 0.4155
H7D H 0.7256 0.2421 -0.4155
H7B H 1.2421 0.5165 0.4155
H7E H 0.7579 0.4835 -0.4155
C10C C 0.40503(15) 0.31067(14) -0.48674(15)
C10A C 0.31067(14) -0.09436(21) 0.48674(15)
C10D C 0.68933(14) 0.09436(21) -0.48674(15)
C10B C 1.09436(21) 0.40503(15) 0.48674(15)
C10E C 0.90564(21) 0.59497(15) -0.48674(15)
H8C H 0.3888 0.2646 -0.5501
H8A H 0.2646 -0.1242 0.5501
H8D H 0.7354 0.1242 -0.5501
H8B H 1.1242 0.3888 0.5501
H8E H 0.8758 0.6112 -0.5501
C11C C 0.35476(14) 0.37239(14) -0.47339(14)
C11A C 0.37239(14) 0.01763(20) 0.47339(14)
C11D C 0.62761(14) -0.01763(20) -0.47339(14)
C11B C 0.98237(20) 0.35476(14) 0.47339(14)
C11E C 1.01763(20) 0.64524(14) -0.47339(14)
H9C H 0.3043 0.3687 -0.5282
H9A H 0.3687 0.0644 0.5282
H9D H 0.6313 -0.0644 -0.5282
H9B H 0.9356 0.3043 0.5282
H9E H 1.0644 0.6957 -0.5282
C12C C 0.37706(12) 0.44087(13) -0.37967(14)
C12A C 0.44087(13) 0.06381(18) 0.37967(14)
C12D C 0.55913(13) -0.06381(18) -0.37967(14)
C12B C 0.93619(18) 0.37706(12) 0.37967(14)
C12E C 1.06381(18) 0.62294(12) -0.37967(14)
H10C H 0.3418 0.4830 -0.3717
H10A H 0.4830 0.1412 0.3717
H10D H 0.5170 -0.1412 -0.3717
H10B H 0.8588 0.3418 0.3717
H10E H 1.1412 0.6582 -0.3717
C13C C 0.47977(12) 0.46331(11) -0.05307(11)
C13A C 0.46331(11) -0.01646(16) 0.05307(11)
C13D C 0.53669(11) 0.01646(16) -0.05307(11)
C13B C 1.01646(16) 0.47977(12) 0.05307(11)
C13E C 0.98354(16) 0.52023(12) -0.05307(11)
H11C H 0.5271 0.4308 -0.0660
H11A H 0.4308 -0.0963 0.0660
H11D H 0.5692 0.0963 -0.0660
H11B H 1.0963 0.5271 0.0660
H11E H 0.9037 0.4729 -0.0660
H12C H 0.4040 0.4025 -0.0403
H12A H 0.4025 -0.0015 0.0403
H12D H 0.5975 0.0015 -0.0403
H12B H 1.0015 0.4040 0.0403
H12E H 0.9985 0.5960 -0.0403
loop_
_geom_bond_atom_site_label_1
_geom_bond_atom_site_label_2
_geom_bond_site_symmetry_1
_geom_bond_site_symmetry_2
Li1 Br1 1_555 1_555
P1 O1 1_555 1_555
O1 Li1 1_555 1_555
C1 P1 1_555 1_555
C2 C1 1_555 1_555
H1 C2 1_555 1_555
C3 C2 1_555 1_555
H2 C3 1_555 1_555
C4 C3 1_555 1_555
H3 C4 1_555 1_555
C5 C4 1_555 1_555
H4 C5 1_555 1_555
C6 C1 1_555 1_555
H5 C6 1_555 1_555
C7 P1 1_555 1_555
C8 C7 1_555 1_555
H6 C8 1_555 1_555
C9 C8 1_555 1_555
H7 C9 1_555 1_555
C10 C9 1_555 1_555
H8 C10 1_555 1_555
C11 C10 1_555 1_555
H9 C11 1_555 1_555
C12 C7 1_555 1_555
H10 C12 1_555 1_555
C13 P1 1_555 1_555
H11 C13 1_555 1_555
H12 C13 1_555 1_555
Li1C Br1C 1_555 1_555
Li1C_2 O1D 1_555 1_555
Li1C_3 O1E 1_555 1_555
P1C O1C 1_555 1_555
P1A O1A 1_555 1_555
P1D O1D 1_555 1_555
P1B O1B 1_555 1_555
P1E O1E 1_555 1_555
O1C Li1C 1_555 1_555
O1A Li1 1_555 1_555
O1B Li1 1_555 1_555
O1D_2 Li1C 1_555 1_555
O1E_2 Li1C 1_555 1_555
C1C P1C 1_555 1_555
C1A P1A 1_555 1_555
C1D P1D 1_555 1_555
C1B P1B 1_555 1_555
C1E P1E 1_555 1_555
C2C C1C 1_555 1_555
C2A C1A 1_555 1_555
C2D C1D 1_555 1_555
C2B C1B 1_555 1_555
C2E C1E 1_555 1_555
H1C C2C 1_555 1_555
H1A C2A 1_555 1_555
H1D C2D 1_555 1_555
H1B C2B 1_555 1_555
H1E C2E 1_555 1_555
C3C C2C 1_555 1_555
C3A C2A 1_555 1_555
C3D C2D 1_555 1_555
C3B C2B 1_555 1_555
C3E C2E 1_555 1_555
H2C C3C 1_555 1_555
H2A C3A 1_555 1_555
H2D C3D 1_555 1_555
H2B C3B 1_555 1_555
H2E C3E 1_555 1_555
C4C C3C 1_555 1_555
C4A C3A 1_555 1_555
C4D C3D 1_555 1_555
C4B C3B 1_555 1_555
C4E C3E 1_555 1_555
H3C C4C 1_555 1_555
H3A C4A 1_555 1_555
H3D C4D 1_555 1_555
H3B C4B 1_555 1_555
H3E C4E 1_555 1_555
C5C C4C 1_555 1_555
C5A C4A 1_555 1_555
C5D C4D 1_555 1_555
C5B C4B 1_555 1_555
C5E C4E 1_555 1_555
H4C C5C 1_555 1_555
H4A C5A 1_555 1_555
H4D C5D 1_555 1_555
H4B C5B 1_555 1_555
H4E C5E 1_555 1_555
C6C C1C 1_555 1_555
C6A C1A 1_555 1_555
C6D C1D 1_555 1_555
C6B C1B 1_555 1_555
C6E C1E 1_555 1_555
H5C C6C 1_555 1_555
H5A C6A 1_555 1_555
H5D C6D 1_555 1_555
H5B C6B 1_555 1_555
H5E C6E 1_555 1_555
C7C P1C 1_555 1_555
C7A P1A 1_555 1_555
C7D P1D 1_555 1_555
C7B P1B 1_555 1_555
C7E P1E 1_555 1_555
C8C C7C 1_555 1_555
C8A C7A 1_555 1_555
C8D C7D 1_555 1_555
C8B C7B 1_555 1_555
C8E C7E 1_555 1_555
H6C C8C 1_555 1_555
H6A C8A 1_555 1_555
H6D C8D 1_555 1_555
H6B C8B 1_555 1_555
H6E C8E 1_555 1_555
C9C C8C 1_555 1_555
C9A C8A 1_555 1_555
C9D C8D 1_555 1_555
C9B C8B 1_555 1_555
C9E C8E 1_555 1_555
H7C C9C 1_555 1_555
H7A C9A 1_555 1_555
H7D C9D 1_555 1_555
H7B C9B 1_555 1_555
H7E C9E 1_555 1_555
C10C C9C 1_555 1_555
C10A C9A 1_555 1_555
C10D C9D 1_555 1_555
C10B C9B 1_555 1_555
C10E C9E 1_555 1_555
H8C C10C 1_555 1_555
H8A C10A 1_555 1_555
H8D C10D 1_555 1_555
H8B C10B 1_555 1_555
H8E C10E 1_555 1_555
C11C C10C 1_555 1_555
C11A C10A 1_555 1_555
C11D C10D 1_555 1_555
C11B C10B 1_555 1_555
C11E C10E 1_555 1_555
H9C C11C 1_555 1_555
H9A C11A 1_555 1_555
H9D C11D 1_555 1_555
H9B C11B 1_555 1_555
H9E C11E 1_555 1_555
C12C C7C 1_555 1_555
C12A C7A 1_555 1_555
C12D C7D 1_555 1_555
C12B C7B 1_555 1_555
C12E C7E 1_555 1_555
H10C C12C 1_555 1_555
H10A C12A 1_555 1_555
H10D C12D 1_555 1_555
H10B C12B 1_555 1_555
H10E C12E 1_555 1_555
C13C C13 1_555 1_555
C13A P1A 1_555 1_555
C13D P1D 1_555 1_555
C13B P1B 1_555 1_555
C13E P1E 1_555 1_555
H11C C13C 1_555 1_555
H11A C13A 1_555 1_555
H11D C13D 1_555 1_555
H11B C13B 1_555 1_555
H11E C13E 1_555 1_555
H12C C13C 1_555 1_555
H12A C13A 1_555 1_555
H12D C13D 1_555 1_555
H12B C13B 1_555 1_555
H12E C13E 1_555 1_555
C5 C6 1_555 1_555
C11 C12 1_555 1_555
P1C C13C 1_555 1_555
C5C C6C 1_555 1_555
C5A C6A 1_555 1_555
C5D C6D 1_555 1_555
C5B C6B 1_555 1_555
C5E C6E 1_555 1_555
C11C C12C 1_555 1_555
C11A C12A 1_555 1_555
C11D C12D 1_555 1_555
C11B C12B 1_555 1_555
C11E C12E 1_555 1_555
C13A C13D 1_555 1_555
C13B C13E 1_555 1_555

#END
