
#######################################################################
#
#                 Cambridge Crystallographic Data Centre
#                                CCDC 
#
#######################################################################
#
# If this CIF has been generated from an entry in the Cambridge 
# Structural Database, then it will include bibliographic, chemical, 
# crystal, experimental, refinement or atomic coordinate data resulting 
# from the CCDC's data processing and validation procedures.
#
#######################################################################

data_LAPGAL
_symmetry_cell_setting           monoclinic
_symmetry_space_group_name_H-M   'P 21/n'
_symmetry_Int_Tables_number      14
_space_group_name_Hall           '-P 2yn'
loop_
_symmetry_equiv_pos_site_id
_symmetry_equiv_pos_as_xyz
1 x,y,z
2 1/2-x,1/2+y,1/2-z
3 -x,-y,-z
4 1/2+x,1/2-y,1/2+z
_cell_length_a                   7.3080(6)
_cell_length_b                   16.8212(13)
_cell_length_c                   14.3215(11)
_cell_angle_alpha                90
_cell_angle_beta                 93.355(2)
_cell_angle_gamma                90
_cell_volume                     1757.52
loop_
_atom_site_label
_atom_site_type_symbol
_atom_site_fract_x
_atom_site_fract_y
_atom_site_fract_z
Cu1 Cu 0.20978(6) 0.24869(2) 0.49962(2)
C1 C 0.2101(4) 0.34393(18) 0.6742(2)
H1 H 0.2063 0.2941 0.7021
C2 C 0.2105(5) 0.41037(19) 0.7299(2)
C3 C 0.2133(6) 0.4845(2) 0.6894(3)
H2 H 0.2117 0.5302 0.7259
C4 C 0.2185(6) 0.4893(2) 0.5941(3)
H3 H 0.2217 0.5385 0.5647
C5 C 0.2189(5) 0.4209(2) 0.5427(2)
H4 H 0.2218 0.4250 0.4781
C6 C 0.2051(5) 0.4013(2) 0.8302(2)
N1 N 0.2152(4) 0.34858(15) 0.58071(17)
N2 N 0.2013(6) 0.3953(2) 0.9086(2)
C7 C 0.2081(4) 0.15379(18) 0.3258(2)
H5 H 0.2055 0.2038 0.2981
C8 C 0.2116(5) 0.08704(19) 0.2701(2)
C9 C 0.2151(6) 0.0125(2) 0.3102(3)
H6 H 0.2174 -0.0331 0.2737
C10 C 0.2149(6) 0.0078(2) 0.4056(3)
H7 H 0.2167 -0.0415 0.4350
C11 C 0.2122(5) 0.0763(2) 0.4576(2)
H8 H 0.2131 0.0722 0.5224
C12 C 0.2143(6) 0.0962(2) 0.1694(2)
N3 N 0.2082(4) 0.14817(15) 0.41905(17)
N4 N 0.2171(6) 0.1019(2) 0.0907(2)
C13 C 0.5768(6) 0.18729(19) 0.6364(2)
C14 C 0.8781(5) 0.19968(18) 0.6116(2)
N5 N 0.4227(5) 0.1839(2) 0.6158(2)
N6 N 0.7479(4) 0.18986(18) 0.66771(19)
N7 N 1.0067(4) 0.20704(17) 0.56994(18)
C15 C 0.5407(5) 0.30038(18) 0.3880(2)
C16 C 0.8429(6) 0.31039(18) 0.3654(2)
N8 N 0.4137(4) 0.29014(18) 0.43003(19)
N9 N 0.6725(4) 0.31361(19) 0.33338(19)
N10 N 0.9961(5) 0.31001(19) 0.3860(2)
Cu1_2 Cu 1.20978(6) 0.24869(2) 0.49962(2)
N7_2 N 0.0067(4) 0.20704(17) 0.56994(18)
N10_2 N -0.0039(5) 0.31001(19) 0.3860(2)
loop_
_geom_bond_atom_site_label_1
_geom_bond_atom_site_label_2
_geom_bond_site_symmetry_1
_geom_bond_site_symmetry_2
Cu1 N1 1_555 1_555
C1 H1 1_555 1_555
C2 C1 1_555 1_555
C3 C2 1_555 1_555
H2 C3 1_555 1_555
C4 C3 1_555 1_555
H3 C4 1_555 1_555
C5 C4 1_555 1_555
H4 C5 1_555 1_555
C6 C2 1_555 1_555
N1 C1 1_555 1_555
N2 C6 1_555 1_555
C7 H5 1_555 1_555
C8 C7 1_555 1_555
C9 C8 1_555 1_555
H6 C9 1_555 1_555
C10 C9 1_555 1_555
H7 C10 1_555 1_555
C11 C10 1_555 1_555
H8 C11 1_555 1_555
C12 C8 1_555 1_555
N3 Cu1 1_555 1_555
N4 C12 1_555 1_555
C13 N5 1_555 1_555
C14 N6 1_555 1_555
N5 Cu1 1_555 1_555
N6 C13 1_555 1_555
N7 C14 1_555 1_555
C15 N8 1_555 1_555
C16 N9 1_555 1_555
N8 Cu1 1_555 1_555
N9 C15 1_555 1_555
N10 C16 1_555 1_555
Cu1_2 N7 1_555 1_555
N7_2 Cu1 1_555 1_555
N10_2 Cu1 1_555 1_555
C5 N1 1_555 1_555
C7 N3 1_555 1_555
C11 N3 1_555 1_555
N10 Cu1_2 1_555 1_555

#END
