
#######################################################################
#
#                 Cambridge Crystallographic Data Centre
#                                CCDC 
#
#######################################################################
#
# If this CIF has been generated from an entry in the Cambridge 
# Structural Database, then it will include bibliographic, chemical, 
# crystal, experimental, refinement or atomic coordinate data resulting 
# from the CCDC's data processing and validation procedures.
#
#######################################################################

data_LAPLIX01
_symmetry_cell_setting           monoclinic
_symmetry_space_group_name_H-M   'C 2/c'
_symmetry_Int_Tables_number      15
_space_group_name_Hall           '-C 2yn'
loop_
_symmetry_equiv_pos_site_id
_symmetry_equiv_pos_as_xyz
1 x,y,z
2 -x,y,1/2-z
3 1/2+x,1/2+y,z
4 1/2-x,1/2+y,1/2-z
5 -x,-y,-z
6 x,-y,1/2+z
7 1/2-x,1/2-y,-z
8 1/2+x,1/2-y,1/2+z
_cell_length_a                   14.0353(13)
_cell_length_b                   10.3081(9)
_cell_length_c                   10.2670(9)
_cell_angle_alpha                90
_cell_angle_beta                 111.034(2)
_cell_angle_gamma                90
_cell_volume                     1386.43
loop_
_atom_site_label
_atom_site_type_symbol
_atom_site_fract_x
_atom_site_fract_y
_atom_site_fract_z
Cu1 Cu 0.5000 0.62211(3) 0.2500
N1 N 0.43016(13) 0.49319(16) 0.32227(17)
N2 N 0.56960(11) 0.77181(16) 0.19112(15)
C1 C 0.39033(14) 0.43783(18) 0.38718(19)
C2 C 0.53802(14) 0.88917(17) 0.21873(19)
C3 C 0.64028(15) 0.7684(2) 0.1322(2)
H1 H 0.6632 0.6884 0.1136
C4 C 0.57499(16) 1.0064(2) 0.1877(2)
C5 C 0.64909(17) 0.9994(2) 0.1252(2)
H2 H 0.6761 1.0749 0.1027
C6 C 0.68083(19) 0.8814(2) 0.0979(3)
H3 H 0.7296 0.8759 0.0562
S1 S 0.33300(4) 0.36018(5) 0.47588(6)
C7 C 0.5358(2) 1.12518(19) 0.2202(3)
H4 H 0.5599 1.2038 0.1999
Cu1D Cu 0.5000 0.37789(3) 0.7500
Cu1D_2 Cu 0.5000 0.37789(3) -0.2500
N1A N 0.56984(13) 0.49319(16) 0.17773(17)
N2A N 0.43040(11) 0.77181(16) 0.30888(15)
C1A C 0.60967(14) 0.43783(18) 0.11282(19)
C2A C 0.46198(14) 0.88917(17) 0.28127(19)
C3A C 0.35972(15) 0.7684(2) 0.3678(2)
H1A H 0.3368 0.6884 0.3864
C4A C 0.42501(16) 1.0064(2) 0.3123(2)
C5A C 0.35091(17) 0.9994(2) 0.3748(2)
H2A H 0.3239 1.0749 0.3973
C6A C 0.31917(19) 0.8814(2) 0.4021(3)
H3A H 0.2704 0.8759 0.4438
S1A S 0.66700(4) 0.36018(5) 0.02412(6)
S1D S 0.66700(4) 0.63982(5) 0.52412(6)
S1E S 0.33300(4) 0.63982(5) -0.02412(6)
C7A C 0.4642(2) 1.12518(19) 0.2798(3)
H4A H 0.4401 1.2038 0.3001
loop_
_geom_bond_atom_site_label_1
_geom_bond_atom_site_label_2
_geom_bond_site_symmetry_1
_geom_bond_site_symmetry_2
Cu1 N1 1_555 1_555
N1 C1 1_555 1_555
N2 Cu1 1_555 1_555
C1 S1 1_555 1_555
C2 N2 1_555 1_555
C3 N2 1_555 1_555
H1 C3 1_555 1_555
C4 C2 1_555 1_555
C5 C4 1_555 1_555
H2 C5 1_555 1_555
C6 C3 1_555 1_555
H3 C6 1_555 1_555
S1 Cu1D 1_555 1_555
C7 C4 1_555 1_555
H4 C7 1_555 1_555
Cu1D_2 S1A 1_555 1_555
N1A Cu1 1_555 1_555
N2A Cu1 1_555 1_555
C1A N1A 1_555 1_555
C2A C2 1_555 1_555
C3A N2A 1_555 1_555
H1A C3A 1_555 1_555
C4A C2A 1_555 1_555
C5A C4A 1_555 1_555
H2A C5A 1_555 1_555
C6A C3A 1_555 1_555
H3A C6A 1_555 1_555
S1A C1A 1_555 1_555
S1D Cu1 1_555 1_555
S1E Cu1 1_555 1_555
C7A C7 1_555 1_555
H4A C7A 1_555 1_555
C5 C6 1_555 1_555
N2A C2A 1_555 1_555
C4A C7A 1_555 1_555
C5A C6A 1_555 1_555

#END
