
#######################################################################
#
#                 Cambridge Crystallographic Data Centre
#                                CCDC 
#
#######################################################################
#
# If this CIF has been generated from an entry in the Cambridge 
# Structural Database, then it will include bibliographic, chemical, 
# crystal, experimental, refinement or atomic coordinate data resulting 
# from the CCDC's data processing and validation procedures.
#
#######################################################################

data_LAPMAR
_symmetry_cell_setting           monoclinic
_symmetry_space_group_name_H-M   'P 21/c'
_symmetry_Int_Tables_number      14
_space_group_name_Hall           '-P 2ybc'
loop_
_symmetry_equiv_pos_site_id
_symmetry_equiv_pos_as_xyz
1 x,y,z
2 -x,1/2+y,1/2-z
3 -x,-y,-z
4 x,1/2-y,1/2+z
_cell_length_a                   13.6491(9)
_cell_length_b                   13.3388(9)
_cell_length_c                   11.2567(7)
_cell_angle_alpha                90
_cell_angle_beta                 95.9400(10)
_cell_angle_gamma                90
_cell_volume                     2038.42
loop_
_atom_site_label
_atom_site_type_symbol
_atom_site_fract_x
_atom_site_fract_y
_atom_site_fract_z
Ag1 Ag 0.382349(16) 0.732785(18) 0.676725(19)
C1 C 0.5618(2) 0.6718(2) 0.5322(2)
C2 C 0.6139(2) 0.6150(2) 0.4572(2)
H1 H 0.6837 0.6106 0.4701
C3 C 0.5620(2) 0.5648(2) 0.3628(2)
H2 H 0.5958 0.5241 0.3111
C4 C 0.4608(2) 0.5743(2) 0.3445(2)
H3 H 0.4241 0.5407 0.2801
C5 C 0.4140(2) 0.6342(2) 0.4224(2)
C6 C 0.6130(2) 0.7273(2) 0.6379(3)
H4 H 0.6837 0.7346 0.6270
H5 H 0.5845 0.7953 0.6414
C7 C 0.3045(2) 0.6542(2) 0.4111(2)
H6 H 0.2765 0.6223 0.4794
H7 H 0.2940 0.7274 0.4172
C8 C 0.6742(2) 0.6316(2) 0.8252(3)
H8 H 0.7427 0.6308 0.8166
C9 C 0.6296(2) 0.5886(2) 0.9155(3)
H9 H 0.6601 0.5521 0.9818
C10 C 0.5295(2) 0.6097(2) 0.8894(2)
H10 H 0.4795 0.5891 0.9369
C11 C 0.1749(2) 0.5543(2) 0.2899(3)
H11 H 0.1491 0.5181 0.3524
C12 C 0.1416(2) 0.5500(3) 0.1709(3)
H12 H 0.0887 0.5109 0.1342
C13 C 0.2017(2) 0.6148(2) 0.1160(3)
H13 H 0.1964 0.6269 0.0324
N1 N 0.46326(17) 0.68050(17) 0.51550(19)
N2 N 0.51349(18) 0.66282(18) 0.7883(2)
N3 N 0.60351(18) 0.67529(18) 0.7507(2)
N4 N 0.26765(17) 0.65806(18) 0.1945(2)
N5 N 0.25047(17) 0.61891(19) 0.3021(2)
Ag1C Ag 0.382349(16) 0.767215(18) 0.176725(19)
N4C N 0.26765(17) 0.84194(18) 0.6945(2)
S1 S 0.20249(6) 0.57795(6) 0.76677(7)
O1 O 0.2182(3) 0.5844(2) 0.6443(3)
O2 O 0.2927(2) 0.5750(3) 0.8436(3)
O3 O 0.1285(2) 0.6419(2) 0.8067(2)
C14 C 0.1534(3) 0.4530(3) 0.7796(3)
F1 F 0.1364(2) 0.4348(2) 0.8918(2)
F2 F 0.07008(18) 0.4412(3) 0.7127(3)
F3 F 0.21559(19) 0.38396(17) 0.7473(3)
N6 N 0.1465(3) 0.3281(3) 0.4075(5)
C15 C 0.0765(3) 0.3071(3) 0.4443(4)
C16 C -0.0133(4) 0.2797(5) 0.4918(6)
H14 H -0.0598 0.3359 0.4826
H15 H 0.0006 0.2632 0.5768
H16 H -0.0422 0.2213 0.4486
loop_
_geom_bond_atom_site_label_1
_geom_bond_atom_site_label_2
_geom_bond_site_symmetry_1
_geom_bond_site_symmetry_2
Ag1 N1 1_555 1_555
C1 C2 1_555 1_555
C2 H1 1_555 1_555
C3 C2 1_555 1_555
H2 C3 1_555 1_555
C4 C3 1_555 1_555
H3 C4 1_555 1_555
C5 C4 1_555 1_555
C6 C1 1_555 1_555
H4 C6 1_555 1_555
H5 C6 1_555 1_555
C7 C5 1_555 1_555
H6 C7 1_555 1_555
H7 C7 1_555 1_555
C8 H8 1_555 1_555
C9 C8 1_555 1_555
H9 C9 1_555 1_555
C10 C9 1_555 1_555
H10 C10 1_555 1_555
C11 H11 1_555 1_555
C12 C11 1_555 1_555
H12 C12 1_555 1_555
C13 C12 1_555 1_555
H13 C13 1_555 1_555
N1 C1 1_555 1_555
N2 Ag1 1_555 1_555
N3 C6 1_555 1_555
N4 C13 1_555 1_555
N5 C7 1_555 1_555
S1 O1 1_555 1_555
O2 S1 1_555 1_555
O3 S1 1_555 1_555
C14 S1 1_555 1_555
F1 C14 1_555 1_555
F2 C14 1_555 1_555
F3 C14 1_555 1_555
N6 C15 1_555 1_555
C15 C16 1_555 1_555
C16 H14 1_555 1_555
H15 C16 1_555 1_555
H16 C16 1_555 1_555
Ag1C N4 1_555 1_555
N4C Ag1 1_555 1_555
C5 N1 1_555 1_555
C8 N3 1_555 1_555
C10 N2 1_555 1_555
C11 N5 1_555 1_555
N2 N3 1_555 1_555
N4 N5 1_555 1_555

#END
