
#######################################################################
#
#                 Cambridge Crystallographic Data Centre
#                                CCDC 
#
#######################################################################
#
# If this CIF has been generated from an entry in the Cambridge 
# Structural Database, then it will include bibliographic, chemical, 
# crystal, experimental, refinement or atomic coordinate data resulting 
# from the CCDC's data processing and validation procedures.
#
#######################################################################

data_LAPMOE
_symmetry_cell_setting           tetragonal
_symmetry_space_group_name_H-M   'P -4 21 c'
_symmetry_Int_Tables_number      114
_space_group_name_Hall           'P -4 2n'
loop_
_symmetry_equiv_pos_site_id
_symmetry_equiv_pos_as_xyz
1 x,y,z
2 -y,x,-z
3 -x,-y,z
4 y,-x,-z
5 1/2-x,1/2+y,1/2-z
6 1/2+y,1/2+x,1/2+z
7 1/2+x,1/2-y,1/2-z
8 1/2-y,1/2-x,1/2+z
_cell_length_a                   20.658(3)
_cell_length_b                   20.658(3)
_cell_length_c                   7.293(2)
_cell_angle_alpha                90
_cell_angle_beta                 90
_cell_angle_gamma                90
_cell_volume                     3112.31
loop_
_atom_site_label
_atom_site_type_symbol
_atom_site_fract_x
_atom_site_fract_y
_atom_site_fract_z
Ru1 Ru 0.0000 0.0000 0.15697(9)
Cl1 Cl 0.0000 0.0000 0.50000
O1 O 0.0935(3) 0.0301(3) 0.1550(7)
O2 O -0.0299(3) 0.0936(3) 0.1497(7)
C1 C 0.1213(3) 0.0396(3) 0.004(2)
C2 C 0.1924(4) 0.0620(4) -0.002(1)
C3 C 0.2323(4) -0.0011(4) 0.002(1)
C4 C 0.2238(6) -0.0420(6) 0.164(2)
C5 C 0.2644(7) -0.1001(7) 0.157(2)
C6 C 0.3104(6) -0.1116(6) 0.007(3)
C7 C 0.3156(6) -0.0716(7) -0.121(2)
C8 C 0.2772(6) -0.0154(6) -0.146(1)
C9 C 0.2098(5) 0.1034(5) 0.159(1)
C10 C 0.2683(5) 0.1021(4) 0.242(1)
C11 C 0.2852(6) 0.1464(6) 0.377(2)
C12 C 0.2409(6) 0.1938(7) 0.432(2)
C13 C 0.1816(6) 0.1977(6) 0.357(2)
C14 C 0.1652(6) 0.1512(5) 0.216(2)
C15 C 0.2038(5) 0.0985(5) -0.185(1)
Ru1A Ru 0.0000 0.0000 -0.15697(9)
O1B O -0.0935(3) -0.0301(3) 0.1550(7)
O2B O 0.0299(3) -0.0936(3) 0.1497(7)
Ru1A_2 Ru 0.0000 0.0000 0.84303(9)
C1A C -0.0396(3) 0.1213(3) -0.004(2)
O2C O 0.0936(3) 0.0299(3) -0.1497(7)
Cl1_2 Cl 0.0000 0.0000 -0.50000
O1A O -0.0301(3) 0.0935(3) -0.1550(7)
O1C O 0.0301(3) -0.0935(3) -0.1550(7)
O2A O -0.0936(3) -0.0299(3) -0.1497(7)
C1B C -0.1213(3) -0.0396(3) 0.004(2)
C1C C 0.0396(3) -0.1213(3) -0.004(2)
C2A C -0.0620(4) 0.1924(4) 0.002(1)
C2B C -0.1924(4) -0.0620(4) -0.002(1)
C2C C 0.0620(4) -0.1924(4) 0.002(1)
C3A C 0.0011(4) 0.2323(4) -0.002(1)
C9A C -0.1034(5) 0.2098(5) -0.159(1)
C15A C -0.0985(5) 0.2038(5) 0.185(1)
C3B C -0.2323(4) 0.0011(4) 0.002(1)
C9B C -0.2098(5) -0.1034(5) 0.159(1)
C15B C -0.2038(5) -0.0985(5) -0.185(1)
C3C C -0.0011(4) -0.2323(4) -0.002(1)
C9C C 0.1034(5) -0.2098(5) -0.159(1)
C15C C 0.0985(5) -0.2038(5) 0.185(1)
C4A C 0.0420(6) 0.2238(6) -0.164(2)
C8A C 0.0154(6) 0.2772(6) 0.146(1)
C10A C -0.1021(4) 0.2683(5) -0.242(1)
C14A C -0.1512(5) 0.1652(6) -0.216(2)
C4B C -0.2238(6) 0.0420(6) 0.164(2)
C8B C -0.2772(6) 0.0154(6) -0.146(1)
C10B C -0.2683(5) -0.1021(4) 0.242(1)
C14B C -0.1652(6) -0.1512(5) 0.216(2)
C4C C -0.0420(6) -0.2238(6) -0.164(2)
C8C C -0.0154(6) -0.2772(6) 0.146(1)
C10C C 0.1021(4) -0.2683(5) -0.242(1)
C14C C 0.1512(5) -0.1652(6) -0.216(2)
C5A C 0.1001(7) 0.2644(7) -0.157(2)
C7A C 0.0716(7) 0.3156(6) 0.121(2)
C11A C -0.1464(6) 0.2852(6) -0.377(2)
C13A C -0.1977(6) 0.1816(6) -0.357(2)
C5B C -0.2644(7) 0.1001(7) 0.157(2)
C7B C -0.3156(6) 0.0716(7) -0.121(2)
C11B C -0.2852(6) -0.1464(6) 0.377(2)
C13B C -0.1816(6) -0.1977(6) 0.357(2)
C5C C -0.1001(7) -0.2644(7) -0.157(2)
C7C C -0.0716(7) -0.3156(6) 0.121(2)
C11C C 0.1464(6) -0.2852(6) -0.377(2)
C13C C 0.1977(6) -0.1816(6) -0.357(2)
C6A C 0.1116(6) 0.3104(6) -0.007(3)
C12A C -0.1938(7) 0.2409(6) -0.432(2)
C6B C -0.3104(6) 0.1116(6) 0.007(3)
C12B C -0.2409(6) -0.1938(7) 0.432(2)
C6C C -0.1116(6) -0.3104(6) -0.007(3)
C12C C 0.1938(7) -0.2409(6) -0.432(2)
loop_
_geom_bond_atom_site_label_1
_geom_bond_atom_site_label_2
_geom_bond_site_symmetry_1
_geom_bond_site_symmetry_2
Ru1 Cl1 1_555 1_555
Cl1 Ru1A_2 1_555 1_555
O1 Ru1 1_555 1_555
O2 Ru1 1_555 1_555
C1 O1 1_555 1_555
C2 C1 1_555 1_555
C3 C2 1_555 1_555
C4 C3 1_555 1_555
C5 C4 1_555 1_555
C6 C5 1_555 1_555
C7 C6 1_555 1_555
C8 C3 1_555 1_555
C9 C2 1_555 1_555
C10 C9 1_555 1_555
C11 C10 1_555 1_555
C12 C11 1_555 1_555
C13 C12 1_555 1_555
C14 C9 1_555 1_555
C15 C2 1_555 1_555
Ru1A Ru1 1_555 1_555
O1B Ru1 1_555 1_555
O2B Ru1 1_555 1_555
C1A O2 1_555 1_555
O2C C1 1_555 1_555
Cl1_2 Ru1A 1_555 1_555
O1A Ru1A 1_555 1_555
O1C Ru1A 1_555 1_555
O2A Ru1A 1_555 1_555
C1B O1B 1_555 1_555
C1C O2B 1_555 1_555
C2A C1A 1_555 1_555
C2B C1B 1_555 1_555
C2C C1C 1_555 1_555
C3A C2A 1_555 1_555
C9A C2A 1_555 1_555
C15A C2A 1_555 1_555
C3B C2B 1_555 1_555
C9B C2B 1_555 1_555
C15B C2B 1_555 1_555
C3C C2C 1_555 1_555
C9C C2C 1_555 1_555
C15C C2C 1_555 1_555
C4A C3A 1_555 1_555
C8A C3A 1_555 1_555
C10A C9A 1_555 1_555
C14A C9A 1_555 1_555
C4B C3B 1_555 1_555
C8B C3B 1_555 1_555
C10B C9B 1_555 1_555
C14B C9B 1_555 1_555
C4C C3C 1_555 1_555
C8C C3C 1_555 1_555
C10C C9C 1_555 1_555
C14C C9C 1_555 1_555
C5A C4A 1_555 1_555
C7A C8A 1_555 1_555
C11A C10A 1_555 1_555
C13A C14A 1_555 1_555
C5B C4B 1_555 1_555
C7B C8B 1_555 1_555
C11B C10B 1_555 1_555
C13B C14B 1_555 1_555
C5C C4C 1_555 1_555
C7C C8C 1_555 1_555
C11C C10C 1_555 1_555
C13C C14C 1_555 1_555
C6A C5A 1_555 1_555
C12A C11A 1_555 1_555
C6B C5B 1_555 1_555
C12B C11B 1_555 1_555
C6C C5C 1_555 1_555
C12C C11C 1_555 1_555
C7 C8 1_555 1_555
C13 C14 1_555 1_555
Ru1A O2C 1_555 1_555
C1A O1A 1_555 1_555
O1C C1C 1_555 1_555
O2A C1B 1_555 1_555
C7A C6A 1_555 1_555
C13A C12A 1_555 1_555
C7B C6B 1_555 1_555
C13B C12B 1_555 1_555
C7C C6C 1_555 1_555
C13C C12C 1_555 1_555

#END
