
#######################################################################
#
#                 Cambridge Crystallographic Data Centre
#                                CCDC 
#
#######################################################################
#
# If this CIF has been generated from an entry in the Cambridge 
# Structural Database, then it will include bibliographic, chemical, 
# crystal, experimental, refinement or atomic coordinate data resulting 
# from the CCDC's data processing and validation procedures.
#
#######################################################################

data_LAPNAR
_symmetry_cell_setting           hexagonal
_symmetry_space_group_name_H-M   'P -6 c 2'
_symmetry_Int_Tables_number      188
_space_group_name_Hall           "P -6c 2'"
loop_
_symmetry_equiv_pos_site_id
_symmetry_equiv_pos_as_xyz
1 x,y,z
2 -y,x-y,z
3 -x+y,-x,z
4 x,y,1/2-z
5 -y,x-y,1/2-z
6 -x+y,-x,1/2-z
7 -y,-x,1/2+z
8 -x+y,y,1/2+z
9 x,x-y,1/2+z
10 -y,-x,-z
11 -x+y,y,-z
12 x,x-y,-z
_cell_length_a                   9.465(5)
_cell_length_b                   9.465(5)
_cell_length_c                   26.72(2)
_cell_angle_alpha                90
_cell_angle_beta                 90
_cell_angle_gamma                120
_cell_volume                     2073.04
loop_
_atom_site_label
_atom_site_type_symbol
_atom_site_fract_x
_atom_site_fract_y
_atom_site_fract_z
Fe1 Fe 0.33333 0.66667 0.10023(2)
C1 C 0.1225(4) 0.3371(4) 0.0753(1)
C2 C 0.2024(4) 0.3348(4) 0.1259(1)
O1 O 0.1658(2) 0.4797(2) 0.0583(1)
O2 O 0.0226(3) 0.2037(3) 0.0559(1)
O3 O 0.1681(4) 0.2042(3) 0.1443(1)
O4 O 0.3028(3) 0.4770(3) 0.1428(1)
Li1 Li 0.0000 0.0000 0.1011(3)
Li2 Li -0.1376(6) 0.1376(6) 0.0000
O5 O -0.3355(4) 0.0741(4) 0.0383(1)
C1A C 0.6629(4) 0.7854(6) 0.0753(1)
C2A C 0.6652(4) 0.8676(6) 0.1259(1)
O1A O 0.5203(2) 0.6861(3) 0.0583(1)
O2A O 0.7963(3) 0.8189(4) 0.0559(1)
O3A O 0.7958(3) 0.9639(5) 0.1443(1)
O4A O 0.5230(3) 0.8258(4) 0.1428(1)
C1B C 0.2146(6) 0.8775(4) 0.0753(1)
C2B C 0.1324(6) 0.7976(4) 0.1259(1)
O1B O 0.3139(3) 0.8342(2) 0.0583(1)
O2B O 0.1811(4) 0.9774(3) 0.0559(1)
O3B O 0.0361(5) 0.8319(4) 0.1443(1)
O4B O 0.1742(4) 0.6972(3) 0.1428(1)
Li1A Li 1.0000 1.0000 0.1011(3)
Li2A Li 0.8624(6) 0.7248(8) 0.0000
Li2B Li 0.2752(8) 1.1376(6) 0.0000
C1A_2 C -0.3371(4) -0.2146(6) 0.0753(1)
C2A_2 C -0.3348(4) -0.1324(6) 0.1259(1)
O1A_2 O -0.4797(2) -0.3139(3) 0.0583(1)
O2A_2 O -0.2037(3) -0.1811(4) 0.0559(1)
O3A_2 O -0.2042(3) -0.0361(5) 0.1443(1)
O4A_2 O -0.4770(3) -0.1742(4) 0.1428(1)
C1B_2 C 0.2146(6) -0.1225(4) 0.0753(1)
C2B_2 C 0.1324(6) -0.2024(4) 0.1259(1)
O1B_2 O 0.3139(3) -0.1658(2) 0.0583(1)
O2B_2 O 0.1811(4) -0.0226(3) 0.0559(1)
O3B_2 O 0.0361(5) -0.1681(4) 0.1443(1)
O4B_2 O 0.1742(4) -0.3028(3) 0.1428(1)
C1I C -0.3371(4) -0.1225(4) -0.0753(1)
C2I C -0.3348(4) -0.2024(4) -0.1259(1)
O1I O -0.4797(2) -0.1658(2) -0.0583(1)
O2I O -0.2037(3) -0.0226(3) -0.0559(1)
O3I O -0.2042(3) -0.1681(4) -0.1443(1)
O4I O -0.4770(3) -0.3028(3) -0.1428(1)
O5I O -0.0741(4) 0.3355(4) -0.0383(1)
O5A O 0.9259(4) 0.5904(6) 0.0383(1)
O5K O 0.6645(4) 0.5904(6) -0.0383(1)
O5B O 0.4096(6) 1.3355(4) 0.0383(1)
O5J O 0.4096(6) 1.0741(4) -0.0383(1)
Fe1A Fe -0.66667 -0.33334 0.10023(2)
Li1_2 Li 0.0000 1.0000 0.1011(3)
O2_2 O 1.0226(3) 1.2037(3) 0.0559(1)
O2B_3 O 1.1811(4) 0.9774(3) 0.0559(1)
O3_2 O 1.1681(4) 1.2042(3) 0.1443(1)
O3B_3 O 1.0361(5) 0.8319(4) 0.1443(1)
O2K O 1.0226(3) 0.8189(4) -0.0559(1)
O2J O 0.1811(4) 1.2037(3) -0.0559(1)
Li2A_2 Li -0.1376(6) -0.2752(8) 0.0000
Fe1_2 Fe 0.33333 -0.33333 0.10023(2)
Li2B_2 Li 0.2752(8) 0.1376(6) 0.0000
Fe1I Fe -0.66667 -0.33333 -0.10023(2)
Li1I Li 0.0000 0.0000 -0.1011(3)
O1_2 O -0.8342(2) -0.5203(2) 0.0583(1)
O1B_3 O -0.6861(3) -0.1658(2) 0.0583(1)
O4_2 O -0.6972(3) -0.5230(3) 0.1428(1)
O4B_3 O -0.8258(4) -0.3028(3) 0.1428(1)
Li3 Li -0.0236(10) 0.3379(10) 0.2500
O6 O -0.1275(6) 0.2686(5) 0.1850(2)
O7 O 0.0971(7) 0.2225(7) 0.2500
O8 O 0.1033(7) 0.5688(6) 0.2500
O6C O -0.1275(6) 0.2686(5) 0.3150(2)
Cl1 Cl -0.3333 0.3333 0.1100(1)
loop_
_geom_bond_atom_site_label_1
_geom_bond_atom_site_label_2
_geom_bond_site_symmetry_1
_geom_bond_site_symmetry_2
Fe1 O1 1_555 1_555
C1 C2 1_555 1_555
C2 O3 1_555 1_555
O1 C1 1_555 1_555
O2 C1 1_555 1_555
O3 Li1 1_555 1_555
O4 Fe1 1_555 1_555
Li1 O2 1_555 1_555
Li2 O2 1_555 1_555
Li3 O6 1_555 1_555
O5 Li2 1_555 1_555
O7 Li3 1_555 1_555
O8 Li3 1_555 1_555
C1A C2A 1_555 1_555
C2A O3A 1_555 1_555
O1A Fe1 1_555 1_555
O2A C1A 1_555 1_555
O3A Li1A 1_555 1_555
O4A Fe1 1_555 1_555
C1B C2B 1_555 1_555
C2B O3B 1_555 1_555
O1B Fe1 1_555 1_555
O2B C1B 1_555 1_555
O3B Li1_2 1_555 1_555
O4B Fe1 1_555 1_555
Li1A O2A 1_555 1_555
Li2A O2A 1_555 1_555
Li2B O2B 1_555 1_555
C1A_2 C2A_2 1_555 1_555
C2A_2 O3A_2 1_555 1_555
O1A_2 C1A_2 1_555 1_555
O2A_2 Li1 1_555 1_555
O3A_2 Li1 1_555 1_555
O4A_2 C2A_2 1_555 1_555
C1B_2 C2B_2 1_555 1_555
C2B_2 O3B_2 1_555 1_555
O1B_2 C1B_2 1_555 1_555
O2B_2 Li1 1_555 1_555
O3B_2 Li1 1_555 1_555
O4B_2 C2B_2 1_555 1_555
C1I C2I 1_555 1_555
C2I O3I 1_555 1_555
O1I C1I 1_555 1_555
O2I Li2 1_555 1_555
O3I Li1I 1_555 1_555
O4I C2I 1_555 1_555
O5I Li2 1_555 1_555
O5A Li2A 1_555 1_555
O5K Li2A 1_555 1_555
O5B Li2B 1_555 1_555
O5J Li2B 1_555 1_555
Fe1A O1A_2 1_555 1_555
O6C Li3 1_555 1_555
Li1_2 O2B 1_555 1_555
O2_2 Li1A 1_555 1_555
O2B_3 Li1A 1_555 1_555
O3_2 Li1A 1_555 1_555
O3B_3 Li1A 1_555 1_555
O2K Li2A 1_555 1_555
O2J Li2B 1_555 1_555
Li2A_2 O2A_2 1_555 1_555
Fe1_2 O1B_2 1_555 1_555
Li2B_2 O2B_2 1_555 1_555
Fe1I O1I 1_555 1_555
Li1I O2I 1_555 1_555
O1_2 Fe1A 1_555 1_555
O1B_3 Fe1A 1_555 1_555
O4_2 Fe1A 1_555 1_555
O4B_3 Fe1A 1_555 1_555
C2 O4 1_555 1_555
C1A O1A 1_555 1_555
C2A O4A 1_555 1_555
C1B O1B 1_555 1_555
C2B O4B 1_555 1_555
C1A_2 O2A_2 1_555 1_555
O4A_2 Fe1A 1_555 1_555
C1B_2 O2B_2 1_555 1_555
O4B_2 Fe1_2 1_555 1_555
C1I O2I 1_555 1_555
O4I Fe1I 1_555 1_555

#END
