
#######################################################################
#
#                 Cambridge Crystallographic Data Centre
#                                CCDC 
#
#######################################################################
#
# If this CIF has been generated from an entry in the Cambridge 
# Structural Database, then it will include bibliographic, chemical, 
# crystal, experimental, refinement or atomic coordinate data resulting 
# from the CCDC's data processing and validation procedures.
#
#######################################################################

data_LAPQEZ
_symmetry_cell_setting           triclinic
_symmetry_space_group_name_H-M   'P -1'
_symmetry_Int_Tables_number      2
_space_group_name_Hall           '-P 1'
loop_
_symmetry_equiv_pos_site_id
_symmetry_equiv_pos_as_xyz
1 x,y,z
2 -x,-y,-z
_cell_length_a                   8.9231(2)
_cell_length_b                   11.2023(2)
_cell_length_c                   12.7643(2)
_cell_angle_alpha                101.4771(11)
_cell_angle_beta                 97.0069(9)
_cell_angle_gamma                98.7719(9)
_cell_volume                     1220.39
loop_
_atom_site_label
_atom_site_type_symbol
_atom_site_fract_x
_atom_site_fract_y
_atom_site_fract_z
Mn1 Mn 0.0000 0.0000 0.0000
C1 C 0.1984(2) -0.0243(2) 0.21975(16)
H1 H 0.2773 -0.0030 0.1818
C2 C 0.2375(2) -0.0413(2) 0.32384(15)
C3 C 0.1185(3) -0.0738(3) 0.37837(18)
H2 H 0.1396 -0.0855 0.4484
C4 C -0.0313(3) -0.0887(3) 0.3290(2)
H3 H -0.1122 -0.1116 0.3648
C5 C -0.0592(3) -0.0692(2) 0.22570(18)
H4 H -0.1605 -0.0787 0.1928
C6 C 0.4007(2) -0.0247(2) 0.37420(16)
C7 C 0.5215(3) -0.0330(4) 0.3058(2)
H5 H 0.6095 -0.0536 0.3447
H6 H 0.5501 0.0453 0.2870
H7 H 0.4838 -0.0960 0.2411
N1 N 0.0530(2) -0.03711(17) 0.17094(13)
N2 N 0.4227(2) -0.0066(2) 0.47731(15)
O1 O 0.0832(2) 0.19407(15) 0.06299(12)
O2 O 0.22458(18) -0.02842(19) -0.03436(16)
H22 H 0.309(3) 0.035(2) -0.021(4)
H23 H 0.110(4) 0.224(3) 0.1341(13)
H24 H 0.086(4) 0.258(2) 0.025(2)
H25 H 0.254(4) -0.1055(18) -0.048(3)
Mn1_2 Mn 1.0000 0.0000 1.0000
C1A C 0.8016(2) 0.0243(2) 0.78025(16)
H1A H 0.7227 0.0030 0.8182
C2A C 0.7625(2) 0.0413(2) 0.67616(15)
C3A C 0.8815(3) 0.0738(3) 0.62163(18)
H2A H 0.8604 0.0855 0.5516
C4A C 1.0313(3) 0.0887(3) 0.6710(2)
H3A H 1.1122 0.1116 0.6352
C5A C 1.0592(3) 0.0692(2) 0.77430(18)
H4A H 1.1605 0.0787 0.8072
C6A C 0.5993(2) 0.0247(2) 0.62580(16)
C7A C 0.4785(3) 0.0330(4) 0.6942(2)
H5A H 0.3905 0.0536 0.6553
H6A H 0.4499 -0.0453 0.7130
H7A H 0.5162 0.0960 0.7589
N1A N 0.9470(2) 0.03711(17) 0.82906(13)
N1A_2 N -0.0530(2) 0.03711(17) -0.17094(13)
N2A N 0.5773(2) 0.0066(2) 0.52269(15)
O1A O -0.0832(2) -0.19407(15) -0.06299(12)
O2A O -0.22458(18) 0.02842(19) 0.03436(16)
H22A H -0.309(3) -0.035(2) 0.021(4)
H23A H -0.110(4) -0.224(3) -0.1341(13)
H24A H -0.086(4) -0.258(2) -0.025(2)
H25A H -0.254(4) 0.1055(18) 0.048(3)
C8 C 1.1940(3) 0.4074(2) 0.8816(2)
H8 H 1.2944 0.4106 0.9135
C9 C 1.1706(3) 0.4519(3) 0.7896(2)
H9 H 1.2534 0.4867 0.7611
C10 C 1.0226(3) 0.4443(2) 0.7401(2)
H10 H 1.0045 0.4718 0.6764
C11 C 0.9005(3) 0.3954(2) 0.78560(18)
C12 C 0.9363(3) 0.3558(2) 0.88062(19)
H11 H 0.8560 0.3249 0.9135
C13 C 0.7382(3) 0.3842(2) 0.73610(18)
C14 C 0.6198(4) 0.3938(4) 0.8074(2)
H12 H 0.5293 0.4113 0.7689
H13 H 0.6583 0.4594 0.8702
H14 H 0.5949 0.3170 0.8294
C15 C 0.6458(4) 0.3397(4) 0.4168(2)
H15 H 0.7422 0.3844 0.4581
H16 H 0.6161 0.3798 0.3597
H17 H 0.6561 0.2564 0.3862
C16 C 0.5276(3) 0.3375(2) 0.48807(18)
C17 C 0.3622(3) 0.3164(2) 0.44154(17)
C18 C 0.3135(3) 0.3035(2) 0.33167(18)
H18 H 0.3880 0.3107 0.2872
C19 C 0.0606(3) 0.2746(3) 0.3495(2)
H19 H -0.0422 0.2606 0.3185
C20 C 0.0961(3) 0.2873(3) 0.4598(2)
H20 H 0.0191 0.2824 0.5026
C21 C 0.2480(3) 0.3072(3) 0.5051(2)
H21 H 0.2743 0.3146 0.5792
N3 N 1.0798(3) 0.3597(2) 0.92722(16)
N4 N 0.7132(2) 0.3660(2) 0.63265(16)
N5 N 0.5569(3) 0.3527(2) 0.59123(17)
N6 N 0.1665(3) 0.2816(2) 0.28605(16)
O3 O 0.4882(3) 0.3551(2) 0.0955(3)
O4 O 0.4873(3) 0.1587(3) 0.1235(2)
O5 O 0.4425(4) 0.1851(3) -0.0469(2)
O6 O 0.6862(3) 0.2581(2) 0.0508(3)
Cl1 Cl 0.52798(7) 0.24206(6) 0.05785(5)
loop_
_geom_bond_atom_site_label_1
_geom_bond_atom_site_label_2
_geom_bond_site_symmetry_1
_geom_bond_site_symmetry_2
Mn1 N1 1_555 1_555
C1 H1 1_555 1_555
C2 C1 1_555 1_555
C3 C2 1_555 1_555
H2 C3 1_555 1_555
C4 C3 1_555 1_555
H3 C4 1_555 1_555
C5 C4 1_555 1_555
H4 C5 1_555 1_555
C6 C2 1_555 1_555
C7 C6 1_555 1_555
H5 C7 1_555 1_555
H6 C7 1_555 1_555
H7 C7 1_555 1_555
C8 H8 1_555 1_555
C9 C8 1_555 1_555
H9 C9 1_555 1_555
C10 C9 1_555 1_555
H10 C10 1_555 1_555
C11 C10 1_555 1_555
C12 C11 1_555 1_555
H11 C12 1_555 1_555
C13 C11 1_555 1_555
C14 C13 1_555 1_555
H12 C14 1_555 1_555
H13 C14 1_555 1_555
H14 C14 1_555 1_555
C15 H15 1_555 1_555
H16 C15 1_555 1_555
H17 C15 1_555 1_555
C16 C15 1_555 1_555
C17 C16 1_555 1_555
C18 C17 1_555 1_555
H18 C18 1_555 1_555
C19 H19 1_555 1_555
C20 C19 1_555 1_555
H20 C20 1_555 1_555
C21 C17 1_555 1_555
H21 C21 1_555 1_555
N1 C1 1_555 1_555
N2 C6 1_555 1_555
N3 C8 1_555 1_555
N4 C13 1_555 1_555
N5 C16 1_555 1_555
N6 C18 1_555 1_555
O1 Mn1 1_555 1_555
O2 Mn1 1_555 1_555
O3 Cl1 1_555 1_555
O4 Cl1 1_555 1_555
O5 Cl1 1_555 1_555
O6 Cl1 1_555 1_555
H22 O2 1_555 1_555
H23 O1 1_555 1_555
H24 O1 1_555 1_555
H25 O2 1_555 1_555
Mn1_2 N1A 1_555 1_555
C1A H1A 1_555 1_555
C2A C1A 1_555 1_555
C3A C2A 1_555 1_555
H2A C3A 1_555 1_555
C4A C3A 1_555 1_555
H3A C4A 1_555 1_555
C5A C4A 1_555 1_555
H4A C5A 1_555 1_555
C6A C2A 1_555 1_555
C7A C6A 1_555 1_555
H5A C7A 1_555 1_555
H6A C7A 1_555 1_555
H7A C7A 1_555 1_555
N1A C1A 1_555 1_555
N1A_2 Mn1 1_555 1_555
N2A N2 1_555 1_555
O1A Mn1 1_555 1_555
O2A Mn1 1_555 1_555
H22A O2A 1_555 1_555
H23A O1A 1_555 1_555
H24A O1A 1_555 1_555
H25A O2A 1_555 1_555
C5 N1 1_555 1_555
C12 N3 1_555 1_555
C19 N6 1_555 1_555
C20 C21 1_555 1_555
N4 N5 1_555 1_555
C5A N1A 1_555 1_555
C6A N2A 1_555 1_555

#END
