
#######################################################################
#
#                 Cambridge Crystallographic Data Centre
#                                CCDC 
#
#######################################################################
#
# If this CIF has been generated from an entry in the Cambridge 
# Structural Database, then it will include bibliographic, chemical, 
# crystal, experimental, refinement or atomic coordinate data resulting 
# from the CCDC's data processing and validation procedures.
#
#######################################################################

data_LAQFEO
_symmetry_cell_setting           triclinic
_symmetry_space_group_name_H-M   'P -1'
_symmetry_Int_Tables_number      2
_space_group_name_Hall           '-P 1'
loop_
_symmetry_equiv_pos_site_id
_symmetry_equiv_pos_as_xyz
1 x,y,z
2 -x,-y,-z
_cell_length_a                   9.1844(6)
_cell_length_b                   10.8938(7)
_cell_length_c                   14.0191(9)
_cell_angle_alpha                73.8706(10)
_cell_angle_beta                 73.5019(12)
_cell_angle_gamma                68.7047(11)
_cell_volume                     1228.89
loop_
_atom_site_label
_atom_site_type_symbol
_atom_site_fract_x
_atom_site_fract_y
_atom_site_fract_z
Cd1 Cd 0.45446(6) 0.23168(5) 0.48536(5)
S1 S 0.3358(2) -0.01126(17) 0.66144(15)
S2 S 0.6430(2) 0.49488(18) 0.35121(16)
O1 O 0.2451(6) -0.0916(6) 0.6554(5)
O2 O 0.2800(6) 0.1303(5) 0.6129(4)
O3 O 0.5931(7) 0.6334(5) 0.3648(4)
O4 O 0.7756(6) 0.4026(6) 0.3946(5)
N1 N 0.5142(7) -0.0861(6) 0.6195(5)
N2 N 0.6368(7) 0.0880(6) 0.5746(5)
N3 N 0.5023(7) 0.4295(6) 0.3931(5)
N4 N 0.2604(7) 0.4091(6) 0.4128(5)
C1 C 0.7632(9) 0.1276(8) 0.5709(6)
H1 H 0.7595 0.2163 0.5422
C2 C 0.8956(9) 0.0423(8) 0.6077(6)
H2 H 0.9810 0.0718 0.6029
C3 C 0.8991(9) -0.0887(9) 0.6520(7)
H3 H 0.9880 -0.1491 0.6768
C4 C 0.7717(9) -0.1287(8) 0.6591(7)
H4 H 0.7720 -0.2160 0.6908
C5 C 0.6413(9) -0.0398(7) 0.6192(6)
C6 C 0.3110(9) -0.0104(8) 0.7925(6)
C7 C 0.2226(17) 0.0987(12) 0.8286(9)
H5 H 0.1788 0.1775 0.7853
C8 C 0.196(2) 0.0959(16) 0.9281(12)
H6 H 0.1335 0.1745 0.9518
C9 C 0.2550(19) -0.0161(14) 0.9971(9)
C10 C 0.349(2) -0.1241(16) 0.9535(12)
H7 H 0.3996 -0.2016 0.9953
C11 C 0.3756(16) -0.1266(12) 0.8539(8)
H8 H 0.4351 -0.2046 0.8288
C12 C 0.217(3) -0.0195(17) 1.1155(9)
H9 H 0.1488 0.0670 1.1292
H10 H 0.3149 -0.0418 1.1377
H11 H 0.1645 -0.0859 1.1512
C13 C 0.1087(9) 0.4499(7) 0.4018(6)
H12 H 0.0473 0.3923 0.4319
C14 C 0.0414(10) 0.5738(8) 0.3475(7)
H13 H -0.0632 0.5998 0.3392
C15 C 0.1352(11) 0.6609(8) 0.3048(7)
H14 H 0.0916 0.7468 0.2693
C16 C 0.2877(10) 0.6201(8) 0.3153(7)
H15 H 0.3513 0.6759 0.2847
C17 C 0.3504(9) 0.4917(7) 0.3731(6)
C18 C 0.6971(10) 0.5023(8) 0.2185(7)
C19 C 0.7574(15) 0.3894(12) 0.1803(8)
H16 H 0.7737 0.3070 0.2251
C20 C 0.794(2) 0.3901(15) 0.0824(10)
H17 H 0.8318 0.3084 0.0613
C21 C 0.7806(17) 0.5042(16) 0.0109(10)
C22 C 0.713(2) 0.6220(16) 0.0525(11)
H18 H 0.6941 0.7042 0.0076
C23 C 0.6747(17) 0.6235(12) 0.1513(8)
H19 H 0.6340 0.7041 0.1743
C24 C 0.822(2) 0.5170(18) -0.1083(10)
H20 H 0.8008 0.6101 -0.1404
H21 H 0.7586 0.4784 -0.1272
H22 H 0.9335 0.4702 -0.1294
N1A N 0.4858(7) 0.0861(6) 0.3805(5)
Cd1A Cd 0.54554(6) -0.23168(5) 0.51464(5)
Cd1A_2 Cd 0.54554(6) 0.76832(5) 0.51464(5)
O3A O 0.4069(7) 0.3666(5) 0.6352(4)
loop_
_geom_bond_atom_site_label_1
_geom_bond_atom_site_label_2
_geom_bond_site_symmetry_1
_geom_bond_site_symmetry_2
Cd1 O2 1_555 1_555
S1 O1 1_555 1_555
S2 O3 1_555 1_555
O2 S1 1_555 1_555
O3 Cd1A_2 1_555 1_555
O4 S2 1_555 1_555
N1 S1 1_555 1_555
N2 Cd1 1_555 1_555
N3 Cd1 1_555 1_555
N4 Cd1 1_555 1_555
C1 N2 1_555 1_555
H1 C1 1_555 1_555
C2 C1 1_555 1_555
H2 C2 1_555 1_555
C3 C2 1_555 1_555
H3 C3 1_555 1_555
C4 C3 1_555 1_555
H4 C4 1_555 1_555
C5 N1 1_555 1_555
C6 S1 1_555 1_555
C7 C6 1_555 1_555
H5 C7 1_555 1_555
C8 C7 1_555 1_555
H6 C8 1_555 1_555
C9 C8 1_555 1_555
C10 C9 1_555 1_555
H7 C10 1_555 1_555
C11 C6 1_555 1_555
H8 C11 1_555 1_555
C12 C9 1_555 1_555
H9 C12 1_555 1_555
H10 C12 1_555 1_555
H11 C12 1_555 1_555
C13 N4 1_555 1_555
H12 C13 1_555 1_555
C14 C13 1_555 1_555
H13 C14 1_555 1_555
C15 C14 1_555 1_555
H14 C15 1_555 1_555
C16 C15 1_555 1_555
H15 C16 1_555 1_555
C17 N3 1_555 1_555
C18 S2 1_555 1_555
C19 C18 1_555 1_555
H16 C19 1_555 1_555
C20 C19 1_555 1_555
H17 C20 1_555 1_555
C21 C20 1_555 1_555
C22 C21 1_555 1_555
H18 C22 1_555 1_555
C23 C18 1_555 1_555
H19 C23 1_555 1_555
C24 C21 1_555 1_555
H20 C24 1_555 1_555
H21 C24 1_555 1_555
H22 C24 1_555 1_555
N1A Cd1 1_555 1_555
Cd1A N1 1_555 1_555
O3A Cd1 1_555 1_555
S2 N3 1_555 1_555
N2 C5 1_555 1_555
N4 C17 1_555 1_555
C4 C5 1_555 1_555
C10 C11 1_555 1_555
C16 C17 1_555 1_555
C22 C23 1_555 1_555

#END
