
#######################################################################
#
#                 Cambridge Crystallographic Data Centre
#                                CCDC 
#
#######################################################################
#
# If this CIF has been generated from an entry in the Cambridge 
# Structural Database, then it will include bibliographic, chemical, 
# crystal, experimental, refinement or atomic coordinate data resulting 
# from the CCDC's data processing and validation procedures.
#
#######################################################################

data_LAQGAL
_symmetry_cell_setting           monoclinic
_symmetry_space_group_name_H-M   'C 2/c'
_symmetry_Int_Tables_number      15
_space_group_name_Hall           '-C 2yn'
loop_
_symmetry_equiv_pos_site_id
_symmetry_equiv_pos_as_xyz
1 x,y,z
2 1/2+x,1/2+y,z
3 x,-y,1/2+z
4 1/2+x,1/2-y,1/2+z
5 -x,-y,-z
6 1/2-x,1/2-y,-z
7 -x,y,1/2-z
8 1/2-x,1/2+y,1/2-z
_cell_length_a                   11.2168(24)
_cell_length_b                   11.5430(10)
_cell_length_c                   8.8281(8)
_cell_angle_alpha                90
_cell_angle_beta                 94.047(14)
_cell_angle_gamma                90
_cell_volume                     1140.17
loop_
_atom_site_label
_atom_site_type_symbol
_atom_site_fract_x
_atom_site_fract_y
_atom_site_fract_z
Hg1 Hg 0.0000 -0.051480(18) -0.2500
S1 S 0.16262(10) -0.01507(9) 0.10413(13)
N1 N 0.0720(3) -0.1977(3) -0.0642(4)
N2 N 0.1430(3) -0.2463(3) 0.1670(4)
C1 C 0.1217(3) -0.1588(3) 0.0663(4)
C2 C 0.0609(4) 0.3164(4) -0.5451(6)
H1 H 0.0282 0.3672 -0.6185
C3 C 0.1045(4) -0.3476(4) 0.0955(5)
H2 H 0.1080 -0.4220 0.1360
C4 C 0.1966(5) -0.2371(5) 0.3201(5)
H3 H 0.2009 -0.3125 0.3659
H4 H 0.1488 -0.1871 0.3781
H5 H 0.2756 -0.2055 0.3179
Hg1B Hg 0.0000 0.051480(18) 0.2500
S1B S 0.16262(10) 0.01507(9) -0.39587(13)
C1B C 0.1217(3) 0.1588(3) -0.4337(4)
N1B N 0.0720(3) 0.1977(3) -0.5642(4)
Hg1B_2 Hg 0.0000 0.051480(18) -0.7500
N1F N -0.0720(3) -0.1977(3) -0.4358(4)
S1D S -0.16262(10) 0.01507(9) -0.10413(13)
C3B C 0.1045(4) 0.3476(4) -0.4045(5)
N2B N 0.1430(3) 0.2463(3) -0.3330(4)
C4B C 0.1966(5) 0.2371(5) -0.1799(5)
H3B H 0.2009 0.3125 -0.1341
H4B H 0.1488 0.1871 -0.1219
H5B H 0.2756 0.2055 -0.1821
H2B H 0.1080 0.4220 -0.3640
C2B C 0.0609(4) -0.3164(4) -0.0451(6)
H1B H 0.0282 -0.3672 -0.1185
loop_
_geom_bond_atom_site_label_1
_geom_bond_atom_site_label_2
_geom_bond_site_symmetry_1
_geom_bond_site_symmetry_2
Hg1 N1 1_555 1_555
S1 C1 1_555 1_555
N1 C1 1_555 1_555
N2 C1 1_555 1_555
C2 H1 1_555 1_555
C3 N2 1_555 1_555
H2 C3 1_555 1_555
C4 N2 1_555 1_555
H3 C4 1_555 1_555
H4 C4 1_555 1_555
H5 C4 1_555 1_555
Hg1B S1 1_555 1_555
S1B Hg1 1_555 1_555
C1B S1B 1_555 1_555
N1B C2 1_555 1_555
Hg1B_2 N1B 1_555 1_555
N1F Hg1 1_555 1_555
S1D Hg1 1_555 1_555
C3B C2 1_555 1_555
N2B C1B 1_555 1_555
C4B N2B 1_555 1_555
H3B C4B 1_555 1_555
H4B C4B 1_555 1_555
H5B C4B 1_555 1_555
H2B C3B 1_555 1_555
C2B N1 1_555 1_555
H1B C2B 1_555 1_555
C3 C2B 1_555 1_555
C1B N1B 1_555 1_555
C3B N2B 1_555 1_555

#END
