
#######################################################################
#
#                 Cambridge Crystallographic Data Centre
#                                CCDC 
#
#######################################################################
#
# If this CIF has been generated from an entry in the Cambridge 
# Structural Database, then it will include bibliographic, chemical, 
# crystal, experimental, refinement or atomic coordinate data resulting 
# from the CCDC's data processing and validation procedures.
#
#######################################################################

data_LAQJUI
_symmetry_cell_setting           monoclinic
_symmetry_space_group_name_H-M   'P 21/n'
_symmetry_Int_Tables_number      14
_space_group_name_Hall           '-P 2yn'
loop_
_symmetry_equiv_pos_site_id
_symmetry_equiv_pos_as_xyz
1 x,y,z
2 1/2+x,1/2-y,1/2+z
3 -x,-y,-z
4 1/2-x,1/2+y,1/2-z
_cell_length_a                   5.7580(10)
_cell_length_b                   14.679(3)
_cell_length_c                   8.312(3)
_cell_angle_alpha                90
_cell_angle_beta                 94.27(2)
_cell_angle_gamma                90
_cell_volume                     700.594
loop_
_atom_site_label
_atom_site_type_symbol
_atom_site_fract_x
_atom_site_fract_y
_atom_site_fract_z
Ag1 Ag 0.10182(7) 0.39188(3) -0.35709(5)
Ag2 Ag -0.24378(7) 0.41360(3) 0.03906(5)
C1 C 0.1747(9) 0.2710(3) 0.1188(6)
H1 H 0.1169 0.2525 0.2151
N1 N 0.0708(7) 0.3308(3) 0.0200(5)
N2 N 0.2134(7) 0.3391(3) -0.1025(5)
N3 N 0.3915(7) 0.2852(3) -0.0735(5)
N4 N 0.3710(7) 0.2401(3) 0.0657(5)
C2 C -0.4713(9) 0.5954(3) -0.3587(6)
H2 H -0.5675 0.6408 -0.4046
N5 N -0.5074(7) 0.5535(3) -0.2220(5)
N6 N -0.3319(8) 0.4932(3) -0.2000(5)
N7 N -0.1973(7) 0.5003(3) -0.3198(5)
N8 N -0.2816(8) 0.5650(3) -0.4224(5)
N4A N -0.1290(7) 0.2599(3) -0.4343(5)
Ag2B Ag -0.75622(7) 0.58640(3) -0.03906(5)
N5B N -0.4926(7) 0.4465(3) 0.2220(5)
N8B N 0.2816(8) 0.4350(3) -0.5776(5)
Ag1B Ag -0.10182(7) 0.60812(3) -0.64291(5)
Ag1A Ag 0.60182(7) 0.10812(3) 0.14291(5)
loop_
_geom_bond_atom_site_label_1
_geom_bond_atom_site_label_2
_geom_bond_site_symmetry_1
_geom_bond_site_symmetry_2
Ag1 N2 1_555 1_555
Ag2 N1 1_555 1_555
C1 H1 1_555 1_555
N1 C1 1_555 1_555
N2 N1 1_555 1_555
N3 N2 1_555 1_555
N4 C1 1_555 1_555
C2 H2 1_555 1_555
N5 C2 1_555 1_555
N6 Ag2 1_555 1_555
N7 Ag1 1_555 1_555
N8 C2 1_555 1_555
N4A Ag1 1_555 1_555
Ag2B N5 1_555 1_555
N5B Ag2 1_555 1_555
N8B Ag1 1_555 1_555
Ag1B N8 1_555 1_555
Ag1A N4 1_555 1_555
N3 N4 1_555 1_555
N5 N6 1_555 1_555
N6 N7 1_555 1_555
N7 N8 1_555 1_555

#END
