
#######################################################################
#
#                 Cambridge Crystallographic Data Centre
#                                CCDC 
#
#######################################################################
#
# If this CIF has been generated from an entry in the Cambridge 
# Structural Database, then it will include bibliographic, chemical, 
# crystal, experimental, refinement or atomic coordinate data resulting 
# from the CCDC's data processing and validation procedures.
#
#######################################################################

data_LAQKAP
_symmetry_cell_setting           monoclinic
_symmetry_space_group_name_H-M   'C 2/c'
_symmetry_Int_Tables_number      15
_space_group_name_Hall           '-C 2yn'
loop_
_symmetry_equiv_pos_site_id
_symmetry_equiv_pos_as_xyz
1 x,y,z
2 1/2+x,1/2+y,z
3 x,-y,1/2+z
4 1/2+x,1/2-y,1/2+z
5 -x,-y,-z
6 1/2-x,1/2-y,-z
7 -x,y,1/2-z
8 1/2-x,1/2+y,1/2-z
_cell_length_a                   11.1290(10)
_cell_length_b                   8.0000(10)
_cell_length_c                   10.9560(10)
_cell_angle_alpha                90
_cell_angle_beta                 98.070(10)
_cell_angle_gamma                90
_cell_volume                     965.775
loop_
_atom_site_label
_atom_site_type_symbol
_atom_site_fract_x
_atom_site_fract_y
_atom_site_fract_z
Ag1 Ag 0.27521(4) -0.23223(4) -0.31144(3)
Ag2 Ag 0.5000 0.11815(6) -0.2500
N1 N 0.1789(4) -0.6158(4) -0.3751(3)
N2 N 0.2144(3) -0.4677(4) -0.4174(3)
N3 N 0.3289(3) -0.0473(5) -0.4654(3)
N4 N 0.3929(3) 0.0901(4) -0.4292(3)
C1 C 0.3859(4) 0.1885(5) -0.5282(4)
H1 H 0.4214 0.2936 -0.5295
Ag1G Ag 0.22479(4) -0.73223(4) -0.18856(3)
N1G N 0.3211(4) -0.1158(4) -0.1249(3)
N2E N 0.2856(3) -0.0323(4) -0.5826(3)
Ag1E Ag 0.22479(4) -0.26777(4) -0.68856(3)
N1E N 0.3211(4) 0.1158(4) -0.6249(3)
N4F N 0.6071(3) 0.0901(4) -0.0708(3)
Ag1B Ag 0.27521(4) 0.23223(4) -0.81144(3)
N3E N 0.1711(3) -0.4527(5) -0.5346(3)
C1E C 0.1141(4) -0.6885(5) -0.4718(4)
N4E N 0.1071(3) -0.5901(4) -0.5708(3)
N1B N 0.1789(4) -0.3842(4) -0.8751(3)
Ag2C Ag 0.0000 -0.61815(6) -0.7500
H1E H 0.0786 -0.7936 -0.4705
N5 N 0.5000 0.4958(7) 0.2500
O1 O 0.4516(4) 0.5748(5) 0.3294(4)
O2 O 0.5000 0.3399(6) 0.2500
O1F O 0.5484(4) 0.5748(5) 0.1706(4)
loop_
_geom_bond_atom_site_label_1
_geom_bond_atom_site_label_2
_geom_bond_site_symmetry_1
_geom_bond_site_symmetry_2
Ag1 N2 1_555 1_555
Ag2 N4 1_555 1_555
N1 N2 1_555 1_555
N2 N3E 1_555 1_555
N3 Ag1 1_555 1_555
N4 N3 1_555 1_555
C1 N4 1_555 1_555
H1 C1 1_555 1_555
N5 O1 1_555 1_555
O2 N5 1_555 1_555
Ag1G N1 1_555 1_555
N1G Ag1 1_555 1_555
N2E N3 1_555 1_555
Ag1E N2E 1_555 1_555
N1E C1 1_555 1_555
N4F Ag2 1_555 1_555
Ag1B N1E 1_555 1_555
N3E Ag1E 1_555 1_555
C1E N1 1_555 1_555
O1F N5 1_555 1_555
N4E N3E 1_555 1_555
N1B Ag1E 1_555 1_555
Ag2C N4E 1_555 1_555
H1E C1E 1_555 1_555
N2E N1E 1_555 1_555
C1E N4E 1_555 1_555

#END
