
#######################################################################
#
#                 Cambridge Crystallographic Data Centre
#                                CCDC 
#
#######################################################################
#
# If this CIF has been generated from an entry in the Cambridge 
# Structural Database, then it will include bibliographic, chemical, 
# crystal, experimental, refinement or atomic coordinate data resulting 
# from the CCDC's data processing and validation procedures.
#
#######################################################################

data_LAQKET
_symmetry_cell_setting           orthorhombic
_symmetry_space_group_name_H-M   'P 21 21 21'
_symmetry_Int_Tables_number      19
_space_group_name_Hall           'P 2ac 2ab'
loop_
_symmetry_equiv_pos_site_id
_symmetry_equiv_pos_as_xyz
1 x,y,z
2 1/2-x,-y,1/2+z
3 -x,1/2+y,1/2-z
4 1/2+x,1/2-y,-z
_cell_length_a                   7.3850(2)
_cell_length_b                   10.0669(2)
_cell_length_c                   28.6676(8)
_cell_angle_alpha                90
_cell_angle_beta                 90
_cell_angle_gamma                90
_cell_volume                     2131.27
loop_
_atom_site_label
_atom_site_type_symbol
_atom_site_fract_x
_atom_site_fract_y
_atom_site_fract_z
Cu1 Cu 0.45861(8) 0.10085(5) 0.341656(15)
Cu2 Cu 0.45235(8) 0.14638(5) 0.443284(15)
O1 O 0.3527(4) 0.2255(3) 0.38735(9)
C1 C 0.3413(6) 0.3575(5) 0.37511(14)
C2 C 0.4016(6) 0.4573(5) 0.40368(15)
H1 H 0.4487 0.4370 0.4329
C3 C 0.3923(7) 0.5874(5) 0.38910(19)
H2 H 0.4330 0.6544 0.4088
C4 C 0.3252(8) 0.6201(6) 0.3466(2)
H3 H 0.3213 0.7084 0.3370
C5 C 0.2626(8) 0.5204(6) 0.31755(18)
H4 H 0.2167 0.5423 0.2883
C6 C 0.2672(7) 0.3880(5) 0.33137(15)
C7 C 0.1893(7) 0.2815(5) 0.30146(16)
H5 H 0.1385 0.3210 0.2735
H6 H 0.0919 0.2376 0.3182
C8 C 0.2581(7) 0.0687(5) 0.25985(15)
H7 H 0.1400 0.0455 0.2731
N1 N 0.3288(6) 0.1807(4) 0.28793(13)
H8 H 0.397(6) 0.217(4) 0.2735(14)
C9 C 0.3790(7) -0.0520(5) 0.26633(15)
O2 O 0.4904(5) -0.0482(3) 0.30023(9)
O3 O 0.3618(5) -0.1476(3) 0.24018(11)
C10 C 0.2244(8) 0.1069(6) 0.20862(16)
H9 H 0.1479 0.1838 0.2073
H10 H 0.1665 0.0343 0.1928
H11 H 0.3379 0.1262 0.1938
O4 O 0.7188(5) 0.2237(4) 0.33794(11)
H12 H 0.736(8) 0.244(5) 0.3623(12)
H13 H 0.719(8) 0.289(4) 0.3265(17)
O5 O 0.5408(4) 0.0108(3) 0.39892(8)
C11 C 0.7098(7) -0.0376(4) 0.40693(14)
C12 C 0.8380(7) -0.0480(5) 0.37158(16)
H14 H 0.8063 -0.0279 0.3410
C13 C 1.0110(7) -0.0879(5) 0.38178(16)
H15 H 1.0956 -0.0935 0.3579
C14 C 1.0632(8) -0.1202(5) 0.42707(17)
H16 H 1.1820 -0.1439 0.4339
C15 C 0.9316(7) -0.1157(4) 0.46171(15)
H17 H 0.9636 -0.1378 0.4921
C16 C 0.7539(7) -0.0791(4) 0.45234(15)
C17 C 0.6120(7) -0.0847(4) 0.48876(14)
H18 H 0.6630 -0.1225 0.5170
H19 H 0.5152 -0.1426 0.4784
N2 N 0.5359(6) 0.0491(3) 0.49950(10)
H20 H 0.623(5) 0.108(4) 0.5102(12)
C18 C 0.3816(6) 0.0498(4) 0.53258(14)
H21 H 0.2936 -0.0147 0.5207
C19 C 0.2923(6) 0.1860(4) 0.52857(15)
O6 O 0.3036(5) 0.2426(3) 0.48861(9)
O7 O 0.2085(4) 0.2322(3) 0.56220(9)
C20 C 0.4232(8) 0.0090(5) 0.58237(15)
H22 H 0.4791 -0.0771 0.5824
H23 H 0.3128 0.0057 0.6000
H24 H 0.5040 0.0725 0.5962
O7C O 0.7085(4) 0.2678(3) 0.43780(9)
Cu2C Cu -0.04765(8) 0.35362(5) 0.556716(15)
loop_
_geom_bond_atom_site_label_1
_geom_bond_atom_site_label_2
_geom_bond_site_symmetry_1
_geom_bond_site_symmetry_2
Cu1 O1 1_555 1_555
Cu2 O1 1_555 1_555
O1 C1 1_555 1_555
C1 C2 1_555 1_555
C2 H1 1_555 1_555
C3 C2 1_555 1_555
H2 C3 1_555 1_555
C4 C3 1_555 1_555
H3 C4 1_555 1_555
C5 C4 1_555 1_555
H4 C5 1_555 1_555
C6 C1 1_555 1_555
C7 C6 1_555 1_555
H5 C7 1_555 1_555
H6 C7 1_555 1_555
C8 H7 1_555 1_555
N1 Cu1 1_555 1_555
H8 N1 1_555 1_555
C9 C8 1_555 1_555
O2 Cu1 1_555 1_555
O3 C9 1_555 1_555
C10 C8 1_555 1_555
H9 C10 1_555 1_555
H10 C10 1_555 1_555
H11 C10 1_555 1_555
O4 Cu1 1_555 1_555
H12 O4 1_555 1_555
H13 O4 1_555 1_555
O5 Cu1 1_555 1_555
C11 O5 1_555 1_555
C12 C11 1_555 1_555
H14 C12 1_555 1_555
C13 C12 1_555 1_555
H15 C13 1_555 1_555
C14 C13 1_555 1_555
H16 C14 1_555 1_555
C15 C14 1_555 1_555
H17 C15 1_555 1_555
C16 C11 1_555 1_555
C17 C16 1_555 1_555
H18 C17 1_555 1_555
H19 C17 1_555 1_555
N2 Cu2 1_555 1_555
H20 N2 1_555 1_555
C18 N2 1_555 1_555
H21 C18 1_555 1_555
C19 C18 1_555 1_555
O6 Cu2 1_555 1_555
O7 C19 1_555 1_555
C20 C18 1_555 1_555
H22 C20 1_555 1_555
H23 C20 1_555 1_555
H24 C20 1_555 1_555
O7C Cu2 1_555 1_555
Cu2C O7 1_555 1_555
Cu2 O5 1_555 1_555
C5 C6 1_555 1_555
C7 N1 1_555 1_555
C8 N1 1_555 1_555
C9 O2 1_555 1_555
C15 C16 1_555 1_555
C17 N2 1_555 1_555
C19 O6 1_555 1_555

#END
