
#######################################################################
#
#                 Cambridge Crystallographic Data Centre
#                                CCDC 
#
#######################################################################
#
# If this CIF has been generated from an entry in the Cambridge 
# Structural Database, then it will include bibliographic, chemical, 
# crystal, experimental, refinement or atomic coordinate data resulting 
# from the CCDC's data processing and validation procedures.
#
#######################################################################

data_LAQNUN
_symmetry_cell_setting           triclinic
_symmetry_space_group_name_H-M   'P -1'
_symmetry_Int_Tables_number      2
_space_group_name_Hall           '-P 1'
loop_
_symmetry_equiv_pos_site_id
_symmetry_equiv_pos_as_xyz
1 x,y,z
2 -x,-y,-z
_cell_length_a                   9.084
_cell_length_b                   10.063(10)
_cell_length_c                   11.533(8)
_cell_angle_alpha                90.21(11)
_cell_angle_beta                 99.48(6)
_cell_angle_gamma                98.34(9)
_cell_volume                     1028.45
loop_
_atom_site_label
_atom_site_type_symbol
_atom_site_fract_x
_atom_site_fract_y
_atom_site_fract_z
Cd1 Cd 0.544654(18) 0.603485(17) 0.736479(14)
O1 O 0.4903(2) 0.37274(18) 0.77945(16)
O2 O 0.3372(2) 0.5486(2) 0.57900(17)
O3 O 1.1868(2) 0.6943(2) 0.69050(16)
O4 O 0.6404(2) 0.42543(17) 0.64904(15)
C1 C 0.5805(3) 0.1928(2) 0.6929(2)
N1 N 0.7157(2) 0.6455(2) 0.90379(18)
O5 O 1.3642(2) 0.64990(19) 0.83819(16)
C2 C 0.6550(3) 0.1503(2) 0.6062(2)
H1 H 0.6980 0.2120 0.5546
N2 N 0.6252(2) -0.2073(2) 0.64467(18)
N3 N 0.7278(3) -0.0615(2) 0.52505(19)
C3 C 0.5691(3) 0.3387(2) 0.7081(2)
N4 N 0.8029(2) 0.6662(2) 1.09598(19)
C4 C 0.6635(3) 0.0132(2) 0.5987(2)
C5 C 0.5247(3) -0.0357(3) 0.7605(2)
H2 H 0.4814 -0.0975 0.8120
C6 C 0.9707(3) 0.6641(3) 0.8394(2)
H3 H 0.9337 0.6574 0.7573
C7 C 0.9287(3) 0.6746(3) 1.0416(2)
C8 C 0.8728(3) 0.6617(2) 0.9208(2)
C9 C 1.2332(3) 0.6735(2) 0.7976(2)
C10 C 0.5996(3) -0.0786(2) 0.6737(2)
C11 C 0.6809(3) 0.6482(3) 1.0105(2)
H4 H 0.5801 0.6385 1.0254
C12 C 0.7019(3) -0.1899(3) 0.5561(2)
H5 H 0.7352 -0.2614 0.5184
C13 C 0.5162(3) 0.1000(3) 0.7686(2)
H6 H 0.4657 0.1316 0.8267
C14 C 1.1244(3) 0.6766(2) 0.8825(2)
C15 C 1.0831(3) 0.6887(3) 1.0858(2)
H7 H 1.1203 0.6981 1.1678
C16 C 1.1789(3) 0.6883(3) 1.0045(2)
H8 H 1.2844 0.6960 1.0315
H17 H 0.783(5) -0.029(4) 0.480(3)
H18 H 0.803(4) 0.673(4) 1.171(3)
H19 H 0.345(4) 0.560(4) 0.514(4)
H20 H 0.289(5) 0.611(5) 0.607(4)
Cd1_2 Cd 1.544654(18) 0.603485(17) 0.736479(14)
Cd1_3 Cd 0.544654(18) -0.396515(17) 0.736479(14)
O5_2 O 0.3642(2) 0.64990(19) 0.83819(16)
N2_2 N 0.6252(2) 0.7927(2) 0.64467(18)
O6 O 0.9010(3) 0.0631(2) 0.3665(2)
H9 H 0.8788 0.1397 0.3500
C17 C 0.9295(5) -0.0006(4) 0.2640(3)
H11 H 1.0224 0.0462 0.2412
H12 H 0.8449 0.0025 0.1997
H13 H 0.9410 -0.0944 0.2802
O7 O 0.8368(2) 0.6697(2) 0.34316(18)
H10 H 0.7736 0.6055 0.3585
C18 C 0.9815(4) 0.6536(5) 0.4016(4)
H14 H 1.0532 0.7336 0.3914
H15 H 1.0130 0.5745 0.3686
H16 H 0.9790 0.6415 0.4856
loop_
_geom_bond_atom_site_label_1
_geom_bond_atom_site_label_2
_geom_bond_site_symmetry_1
_geom_bond_site_symmetry_2
Cd1 O1 1_555 1_555
O1 C3 1_555 1_555
O2 Cd1 1_555 1_555
O3 C9 1_555 1_555
O4 Cd1 1_555 1_555
C1 C2 1_555 1_555
N1 Cd1 1_555 1_555
O5 C9 1_555 1_555
C2 H1 1_555 1_555
N2 C10 1_555 1_555
N3 C4 1_555 1_555
C3 O4 1_555 1_555
N4 C7 1_555 1_555
C4 C2 1_555 1_555
C5 H2 1_555 1_555
C6 H3 1_555 1_555
C7 C8 1_555 1_555
C8 N1 1_555 1_555
C9 C14 1_555 1_555
C10 C4 1_555 1_555
C11 N1 1_555 1_555
H4 C11 1_555 1_555
C12 N2 1_555 1_555
H5 C12 1_555 1_555
C13 C1 1_555 1_555
H6 C13 1_555 1_555
C14 C6 1_555 1_555
C15 C7 1_555 1_555
H7 C15 1_555 1_555
C16 C14 1_555 1_555
H8 C16 1_555 1_555
O6 H9 1_555 1_555
O7 H10 1_555 1_555
C17 O6 1_555 1_555
H11 C17 1_555 1_555
H12 C17 1_555 1_555
H13 C17 1_555 1_555
C18 O7 1_555 1_555
H14 C18 1_555 1_555
H15 C18 1_555 1_555
H16 C18 1_555 1_555
H17 N3 1_555 1_555
H18 N4 1_555 1_555
H19 O2 1_555 1_555
H20 O2 1_555 1_555
Cd1_2 O5 1_555 1_555
Cd1_3 N2 1_555 1_555
O5_2 Cd1 1_555 1_555
N2_2 Cd1 1_555 1_555
C1 C3 1_555 1_555
N3 C12 1_555 1_555
N4 C11 1_555 1_555
C5 C10 1_555 1_555
C5 C13 1_555 1_555
C6 C8 1_555 1_555
C15 C16 1_555 1_555

#END
