
#######################################################################
#
#                 Cambridge Crystallographic Data Centre
#                                CCDC 
#
#######################################################################
#
# If this CIF has been generated from an entry in the Cambridge 
# Structural Database, then it will include bibliographic, chemical, 
# crystal, experimental, refinement or atomic coordinate data resulting 
# from the CCDC's data processing and validation procedures.
#
#######################################################################

data_LAQPUP
_symmetry_cell_setting           monoclinic
_symmetry_space_group_name_H-M   'P 21/c'
_symmetry_Int_Tables_number      14
_space_group_name_Hall           '-P 2ybc'
loop_
_symmetry_equiv_pos_site_id
_symmetry_equiv_pos_as_xyz
1 x,y,z
2 -x,1/2+y,1/2-z
3 -x,-y,-z
4 x,1/2-y,1/2+z
_cell_length_a                   10.3777(1)
_cell_length_b                   16.5849(2)
_cell_length_c                   17.9530(2)
_cell_angle_alpha                90
_cell_angle_beta                 95.596(1)
_cell_angle_gamma                90
_cell_volume                     3075.22
loop_
_atom_site_label
_atom_site_type_symbol
_atom_site_fract_x
_atom_site_fract_y
_atom_site_fract_z
Na1 Na 0.66193(3) 0.51287(2) 0.016076(18)
Na2 Na 0.49668(4) 0.37683(2) 0.113973(19)
Na3 Na 0.45368(4) 0.65375(2) 0.052529(19)
O1 O 0.48125(6) 0.52186(4) 0.09020(3)
O2 O 0.67624(6) 0.37719(4) 0.05100(4)
O3 O 0.63598(7) 0.65198(4) -0.01029(4)
O4 O 0.86802(7) 0.50867(5) -0.02705(4)
O5 O 0.51595(7) 0.29479(4) 0.21841(4)
O6 O 0.59752(7) 0.25558(4) 0.36925(4)
C1 C 0.47289(8) 0.52594(5) 0.16368(4)
C2 C 0.58246(9) 0.53874(6) 0.21512(5)
H1 H 0.6644 0.5472 0.1970
C3 C 0.57321(9) 0.53918(6) 0.29203(5)
H2 H 0.6492 0.5476 0.3251
C4 C 0.45553(9) 0.52756(5) 0.32178(5)
C5 C 0.34673(9) 0.51607(6) 0.27115(5)
H3 H 0.2650 0.5087 0.2898
C6 C 0.35352(9) 0.51503(6) 0.19423(5)
H4 H 0.2768 0.5069 0.1617
C7 C 0.44543(11) 0.52682(6) 0.40550(5)
H5 H 0.5338 0.5267 0.4319
H6 H 0.4020 0.4764 0.4188
C8 C 0.37085(11) 0.59859(7) 0.43275(5)
H7 H 0.3677 0.5946 0.4870
H8 H 0.2825 0.5985 0.4078
H9 H 0.4144 0.6487 0.4209
C9 C 0.77347(9) 0.33539(6) 0.08459(5)
C10 C 0.83184(9) 0.35592(6) 0.15623(5)
H10 H 0.8009 0.4014 0.1813
C11 C 0.93363(9) 0.31119(6) 0.19113(5)
H11 H 0.9703 0.3268 0.2395
C12 C 0.98345(9) 0.24395(6) 0.15713(5)
C13 C 0.92764(10) 0.22413(6) 0.08570(5)
H12 H 0.9607 0.1794 0.0605
C14 C 0.82543(9) 0.26767(6) 0.05041(5)
H13 H 0.7894 0.2516 0.0020
C15 C 1.08840(10) 0.19120(7) 0.19596(6)
H14 H 1.1448 0.2245 0.2314
H15 H 1.1424 0.1692 0.1582
C16 C 1.03378(13) 0.12190(8) 0.23821(8)
H16 H 1.1050 0.0894 0.2621
H17 H 0.9789 0.0882 0.2032
H18 H 0.9821 0.1433 0.2766
C17 C 0.70215(9) 0.71632(5) 0.01361(5)
C18 C 0.78032(11) 0.71653(6) 0.08241(5)
H19 H 0.7866 0.6688 0.1118
C19 C 0.84829(11) 0.78452(7) 0.10829(6)
H20 H 0.9005 0.7818 0.1547
C20 C 0.84261(10) 0.85663(6) 0.06857(6)
C21 C 0.76643(10) 0.85691(6) 0.00040(6)
H21 H 0.7606 0.9050 -0.0285
C22 C 0.69864(9) 0.78921(6) -0.02678(5)
H22 H 0.6485 0.7921 -0.0739
C23 C 0.91814(11) 0.92971(7) 0.09867(7)
H23 H 0.9104 0.9341 0.1530
H24 H 0.8788 0.9786 0.0744
C24 C 1.06066(12) 0.92738(8) 0.08612(7)
H25 H 1.1034 0.9762 0.1070
H26 H 1.0695 0.9246 0.0323
H27 H 1.1011 0.8798 0.1109
C25 C 0.95477(9) 0.57638(6) -0.02204(6)
H28 H 0.9064 0.6261 -0.0121
H29 H 0.9928 0.5833 -0.0701
C26 C 0.93875(10) 0.43698(7) -0.04014(6)
H30 H 0.9767 0.4416 -0.0885
H31 H 0.8793 0.3902 -0.0432
C27 C 0.42964(11) 0.29971(7) 0.27637(6)
H32 H 0.3828 0.2480 0.2794
H33 H 0.3649 0.3427 0.2640
C28 C 0.61022(10) 0.23295(6) 0.23706(5)
H34 H 0.6712 0.2302 0.1980
H35 H 0.5663 0.1801 0.2389
C29 C 0.68389(10) 0.25035(7) 0.31169(5)
H36 H 0.7479 0.2070 0.3242
H37 H 0.7315 0.3018 0.3089
C30 C 0.50382(12) 0.31767(6) 0.35057(6)
H38 H 0.5481 0.3703 0.3482
H39 H 0.4433 0.3210 0.3898
Na1B Na 0.33807(3) 0.48713(2) -0.016076(18)
Na1B_2 Na 1.33807(3) 0.48713(2) -0.016076(18)
Na2B Na 0.50332(4) 0.62317(2) -0.113973(19)
Na2A Na 0.50332(4) 0.87683(2) 0.386027(19)
Na3B Na 0.54632(4) 0.34625(2) -0.052529(19)
Na3A Na 0.54632(4) 0.15375(2) 0.447471(19)
O1B O 0.51875(6) 0.47814(4) -0.09020(3)
O2B O 0.32376(6) 0.62281(4) -0.05100(4)
O3B O 0.36402(7) 0.34802(4) 0.01029(4)
O4B O 1.13198(7) 0.49133(5) 0.02705(4)
O4B_2 O 0.13198(7) 0.49133(5) 0.02705(4)
O5A O 0.48405(7) 0.79479(4) 0.28159(4)
O5B O 0.48405(7) 0.70521(4) -0.21841(4)
O6A O 0.40248(7) 0.75558(4) 0.13075(4)
O6C O 0.59752(7) 0.24442(4) -0.13075(4)
C1B C 0.52711(8) 0.47406(5) -0.16368(4)
C2B C 0.41754(9) 0.46126(6) -0.21512(5)
H1B H 0.3356 0.4528 -0.1970
C3B C 0.42679(9) 0.46082(6) -0.29203(5)
H2B H 0.3508 0.4524 -0.3251
C4B C 0.54447(9) 0.47244(5) -0.32178(5)
C5B C 0.65327(9) 0.48393(6) -0.27115(5)
H3B H 0.7350 0.4913 -0.2898
C6B C 0.64648(9) 0.48497(6) -0.19423(5)
H4B H 0.7232 0.4931 -0.1617
C7B C 0.55457(11) 0.47318(6) -0.40550(5)
H5B H 0.4662 0.4733 -0.4319
H6B H 0.5980 0.5236 -0.4188
C8B C 0.62915(11) 0.40141(7) -0.43275(5)
H7B H 0.6323 0.4054 -0.4870
H8B H 0.7175 0.4015 -0.4078
H9B H 0.5856 0.3513 -0.4209
C9B C 0.22653(9) 0.66461(6) -0.08459(5)
C10B C 0.16816(9) 0.64408(6) -0.15623(5)
H10B H 0.1991 0.5986 -0.1813
C11B C 0.06637(9) 0.68881(6) -0.19113(5)
H11B H 0.0297 0.6732 -0.2395
C12B C 0.01655(9) 0.75605(6) -0.15713(5)
C13B C 0.07236(10) 0.77587(6) -0.08570(5)
H12B H 0.0393 0.8206 -0.0605
C14B C 0.17457(9) 0.73233(6) -0.05041(5)
H13B H 0.2106 0.7484 -0.0020
C15B C -0.08840(10) 0.80880(7) -0.19596(6)
H14B H -0.1448 0.7755 -0.2314
H15B H -0.1424 0.8308 -0.1582
C16B C -0.03378(13) 0.87810(8) -0.23821(8)
H16B H -0.1050 0.9106 -0.2621
H17B H 0.0211 0.9118 -0.2032
H18B H 0.0179 0.8567 -0.2766
C17B C 0.29785(9) 0.28368(5) -0.01361(5)
C18B C 0.21968(11) 0.28347(6) -0.08241(5)
H19B H 0.2134 0.3312 -0.1118
C19B C 0.15171(11) 0.21548(7) -0.10829(6)
H20B H 0.0995 0.2182 -0.1547
C20B C 0.15739(10) 0.14337(6) -0.06857(6)
C21B C 0.23357(10) 0.14309(6) -0.00040(6)
H21B H 0.2394 0.0950 0.0285
C22B C 0.30136(9) 0.21079(6) 0.02678(5)
H22B H 0.3515 0.2079 0.0739
C23B C 0.08186(11) 0.07029(7) -0.09867(7)
H23B H 0.0896 0.0659 -0.1530
H24B H 0.1212 0.0214 -0.0744
C24B C -0.06066(12) 0.07262(8) -0.08612(7)
H25B H -0.1034 0.0238 -0.1070
H26B H -0.0695 0.0754 -0.0323
H27B H -0.1011 0.1202 -0.1109
C25B C 1.04523(9) 0.42362(6) 0.02204(6)
H28B H 1.0936 0.3739 0.0121
H29B H 1.0072 0.4167 0.0701
C26B C 1.06125(10) 0.56302(7) 0.04014(6)
H30B H 1.0233 0.5584 0.0885
H31B H 1.1207 0.6098 0.0432
C27A C 0.57036(11) 0.79971(7) 0.22363(6)
H32A H 0.6172 0.7480 0.2206
H33A H 0.6351 0.8427 0.2360
C28A C 0.38978(10) 0.73295(6) 0.26294(5)
H34A H 0.3288 0.7302 0.3020
H35A H 0.4337 0.6801 0.2611
C29A C 0.31611(10) 0.75035(7) 0.18831(5)
H36A H 0.2521 0.7070 0.1758
H37A H 0.2685 0.8018 0.1911
C30A C 0.49618(12) 0.81767(6) 0.14943(6)
H38A H 0.4519 0.8703 0.1518
H39A H 0.5567 0.8210 0.1102
loop_
_geom_bond_atom_site_label_1
_geom_bond_atom_site_label_2
_geom_bond_site_symmetry_1
_geom_bond_site_symmetry_2
Na1 O1 1_555 1_555
Na2 O1 1_555 1_555
Na3 O1 1_555 1_555
O1 C1 1_555 1_555
O2 Na1 1_555 1_555
O3 Na1 1_555 1_555
O4 Na1 1_555 1_555
O5 Na2 1_555 1_555
O6 C29 1_555 1_555
C1 C2 1_555 1_555
C2 H1 1_555 1_555
C3 C2 1_555 1_555
H2 C3 1_555 1_555
C4 C3 1_555 1_555
C5 C4 1_555 1_555
H3 C5 1_555 1_555
C6 C1 1_555 1_555
H4 C6 1_555 1_555
C7 C4 1_555 1_555
H5 C7 1_555 1_555
H6 C7 1_555 1_555
C8 C7 1_555 1_555
H7 C8 1_555 1_555
H8 C8 1_555 1_555
H9 C8 1_555 1_555
C9 O2 1_555 1_555
C10 C9 1_555 1_555
H10 C10 1_555 1_555
C11 C10 1_555 1_555
H11 C11 1_555 1_555
C12 C11 1_555 1_555
C13 C12 1_555 1_555
H12 C13 1_555 1_555
C14 C9 1_555 1_555
H13 C14 1_555 1_555
C15 C12 1_555 1_555
H14 C15 1_555 1_555
H15 C15 1_555 1_555
C16 C15 1_555 1_555
H16 C16 1_555 1_555
H17 C16 1_555 1_555
H18 C16 1_555 1_555
C17 O3 1_555 1_555
C18 C17 1_555 1_555
H19 C18 1_555 1_555
C19 C18 1_555 1_555
H20 C19 1_555 1_555
C20 C19 1_555 1_555
C21 C20 1_555 1_555
H21 C21 1_555 1_555
C22 C17 1_555 1_555
H22 C22 1_555 1_555
C23 C20 1_555 1_555
H23 C23 1_555 1_555
H24 C23 1_555 1_555
C24 C23 1_555 1_555
H25 C24 1_555 1_555
H26 C24 1_555 1_555
H27 C24 1_555 1_555
C25 O4 1_555 1_555
H28 C25 1_555 1_555
H29 C25 1_555 1_555
C26 O4 1_555 1_555
H30 C26 1_555 1_555
H31 C26 1_555 1_555
C27 O5 1_555 1_555
H32 C27 1_555 1_555
H33 C27 1_555 1_555
C28 O5 1_555 1_555
H34 C28 1_555 1_555
H35 C28 1_555 1_555
C29 C28 1_555 1_555
H36 C29 1_555 1_555
H37 C29 1_555 1_555
C30 O6 1_555 1_555
H38 C30 1_555 1_555
H39 C30 1_555 1_555
Na1B O1 1_555 1_555
Na1B_2 O4B 1_555 1_555
Na2B O3 1_555 1_555
Na2A O5A 1_555 1_555
Na3B O2 1_555 1_555
Na3A O6 1_555 1_555
O1B Na1 1_555 1_555
O2B Na3 1_555 1_555
O3B Na2 1_555 1_555
O4B C25B 1_555 1_555
O4B_2 Na1B 1_555 1_555
O5A C27A 1_555 1_555
O5B Na2B 1_555 1_555
O6A Na3 1_555 1_555
O6C Na3B 1_555 1_555
C1B O1B 1_555 1_555
C2B C1B 1_555 1_555
H1B C2B 1_555 1_555
C3B C2B 1_555 1_555
H2B C3B 1_555 1_555
C4B C3B 1_555 1_555
C5B C4B 1_555 1_555
H3B C5B 1_555 1_555
C6B C1B 1_555 1_555
H4B C6B 1_555 1_555
C7B C4B 1_555 1_555
H5B C7B 1_555 1_555
H6B C7B 1_555 1_555
C8B C7B 1_555 1_555
H7B C8B 1_555 1_555
H8B C8B 1_555 1_555
H9B C8B 1_555 1_555
C9B O2B 1_555 1_555
C10B C9B 1_555 1_555
H10B C10B 1_555 1_555
C11B C10B 1_555 1_555
H11B C11B 1_555 1_555
C12B C11B 1_555 1_555
C13B C12B 1_555 1_555
H12B C13B 1_555 1_555
C14B C9B 1_555 1_555
H13B C14B 1_555 1_555
C15B C12B 1_555 1_555
H14B C15B 1_555 1_555
H15B C15B 1_555 1_555
C16B C15B 1_555 1_555
H16B C16B 1_555 1_555
H17B C16B 1_555 1_555
H18B C16B 1_555 1_555
C17B O3B 1_555 1_555
C18B C17B 1_555 1_555
H19B C18B 1_555 1_555
C19B C18B 1_555 1_555
H20B C19B 1_555 1_555
C20B C19B 1_555 1_555
C21B C20B 1_555 1_555
H21B C21B 1_555 1_555
C22B C17B 1_555 1_555
H22B C22B 1_555 1_555
C23B C20B 1_555 1_555
H23B C23B 1_555 1_555
H24B C23B 1_555 1_555
C24B C23B 1_555 1_555
H25B C24B 1_555 1_555
H26B C24B 1_555 1_555
H27B C24B 1_555 1_555
C25B C26 1_555 1_555
H28B C25B 1_555 1_555
H29B C25B 1_555 1_555
C26B C25 1_555 1_555
H30B C26B 1_555 1_555
H31B C26B 1_555 1_555
C27A H32A 1_555 1_555
H33A C27A 1_555 1_555
C28A O5A 1_555 1_555
H34A C28A 1_555 1_555
H35A C28A 1_555 1_555
C29A O6A 1_555 1_555
H36A C29A 1_555 1_555
H37A C29A 1_555 1_555
C30A O6A 1_555 1_555
H38A C30A 1_555 1_555
H39A C30A 1_555 1_555
Na2 O2 1_555 1_555
Na3 O3 1_555 1_555
C5 C6 1_555 1_555
C13 C14 1_555 1_555
C21 C22 1_555 1_555
C27 C30 1_555 1_555
Na1B O1B 1_555 1_555
Na1B O2B 1_555 1_555
Na1B O3B 1_555 1_555
Na2B O1B 1_555 1_555
Na2B O2B 1_555 1_555
Na3B O1B 1_555 1_555
Na3B O3B 1_555 1_555
O4B C26B 1_555 1_555
C5B C6B 1_555 1_555
C13B C14B 1_555 1_555
C21B C22B 1_555 1_555
C27A C30A 1_555 1_555
C28A C29A 1_555 1_555

#END
