
#######################################################################
#
#                 Cambridge Crystallographic Data Centre
#                                CCDC 
#
#######################################################################
#
# If this CIF has been generated from an entry in the Cambridge 
# Structural Database, then it will include bibliographic, chemical, 
# crystal, experimental, refinement or atomic coordinate data resulting 
# from the CCDC's data processing and validation procedures.
#
#######################################################################

data_LAQQAW
_symmetry_cell_setting           triclinic
_symmetry_space_group_name_H-M   'P -1'
_symmetry_Int_Tables_number      2
_space_group_name_Hall           '-P 1'
loop_
_symmetry_equiv_pos_site_id
_symmetry_equiv_pos_as_xyz
1 x,y,z
2 -x,-y,-z
_cell_length_a                   10.3782(2)
_cell_length_b                   11.1745(2)
_cell_length_c                   12.9564(2)
_cell_angle_alpha                65.384(1)
_cell_angle_beta                 77.787(1)
_cell_angle_gamma                64.896(1)
_cell_volume                     1235.87
loop_
_atom_site_label
_atom_site_type_symbol
_atom_site_fract_x
_atom_site_fract_y
_atom_site_fract_z
Na1 Na 0.47524(4) 0.29915(4) 0.22174(3)
Na2 Na 0.51146(4) 0.58181(4) 0.18642(3)
Na3 Na 0.67283(4) 0.43511(4) -0.00565(3)
O1 O 0.66273(7) 0.35926(7) 0.19387(5)
O2 O 0.32084(7) 0.52098(7) 0.19798(5)
O3 O 0.49176(7) 0.34019(6) 0.01661(5)
O4 O 0.88213(7) 0.47305(7) -0.00926(6)
O5 O 0.50328(9) 0.54661(8) 0.37988(6)
O6 O 0.48559(8) 0.12083(7) 0.39885(6)
F1 F 1.18092(7) -0.03732(8) 0.36667(7)
F2 F -0.20417(8) 0.67826(9) 0.41459(8)
F3 F 0.59785(8) -0.23155(6) 0.17616(5)
C1 C 0.78564(9) 0.26260(9) 0.23709(7)
C2 C 0.87339(10) 0.15940(10) 0.19005(8)
H1 H 0.8410 0.1572 0.1278
C3 C 1.00629(11) 0.06055(10) 0.23225(9)
H2 H 1.0648 -0.0066 0.1982
C4 C 1.05102(10) 0.06200(11) 0.32383(9)
C5 C 0.96897(11) 0.15779(11) 0.37540(9)
H3 H 1.0018 0.1560 0.4393
C6 C 0.83692(10) 0.25739(10) 0.33211(8)
H4 H 0.7799 0.3235 0.3675
C7 C 0.19526(9) 0.55750(9) 0.25146(7)
C8 C 0.13910(12) 0.68064(11) 0.27813(11)
H5 H 0.1936 0.7379 0.2580
C9 C 0.00621(14) 0.72095(13) 0.33311(13)
H6 H -0.0295 0.8043 0.3505
C10 C -0.07259(12) 0.63780(12) 0.36185(10)
C11 C -0.02235(11) 0.51469(11) 0.34055(9)
H7 H -0.0774 0.4577 0.3628
C12 C 0.11084(10) 0.47513(10) 0.28579(8)
H8 H 0.1460 0.3900 0.2711
C13 C 0.51733(9) 0.20258(8) 0.05498(7)
C14 C 0.64863(10) 0.10396(9) 0.03096(7)
H9 H 0.7199 0.1375 -0.0147
C15 C 0.67642(11) -0.04094(10) 0.07235(8)
H10 H 0.7655 -0.1057 0.0557
C16 C 0.57223(11) -0.08859(9) 0.13794(8)
C17 C 0.44292(11) 0.00131(10) 0.16543(7)
H11 H 0.3735 -0.0347 0.2118
C18 C 0.41553(10) 0.14640(9) 0.12389(7)
H12 H 0.3262 0.2092 0.1423
C19 C 0.87582(10) 0.54089(10) 0.06545(8)
H13 H 0.7771 0.6077 0.0717
H14 H 0.9035 0.4683 0.1422
C20 C 1.02535(10) 0.37907(10) -0.02109(8)
H15 H 1.0567 0.3026 0.0536
H16 H 1.0294 0.3344 -0.0742
C21 C 0.45143(18) 0.43722(15) 0.45269(9)
H17 H 0.4714 0.3694 0.4154
H18 H 0.3469 0.4804 0.4646
C22 C 0.48060(14) 0.64114(11) 0.43483(8)
H19 H 0.3770 0.6910 0.4461
H20 H 0.5210 0.7135 0.3860
C23 C 0.36431(12) 0.09068(12) 0.45979(9)
H21 H 0.3421 0.0345 0.4289
H22 H 0.2809 0.1809 0.4497
C24 C 0.60820(13) -0.00899(12) 0.41583(9)
H23 H 0.6924 0.0130 0.3754
H24 H 0.5927 -0.0679 0.3837
Na1A Na 0.52476(4) -0.29915(4) 0.77826(3)
Na1A_2 Na 0.52476(4) 0.70085(4) -0.22174(3)
Na2A Na 0.48854(4) 0.41819(4) -0.18642(3)
Na2A_2 Na 0.48854(4) 0.41819(4) 0.81358(3)
Na2A_3 Na 0.48854(4) -0.58181(4) 0.81358(3)
Na3A Na 0.32717(4) 0.56489(4) 0.00565(3)
Na3A_2 Na 1.32717(4) 0.56489(4) 0.00565(3)
Na3A_3 Na 0.32717(4) -0.43511(4) 1.00565(3)
O1A O 0.33727(7) -0.35926(7) 0.80613(5)
O1A_2 O 0.33727(7) 0.64074(7) -0.19387(5)
O2A O 0.67916(7) 0.47902(7) -0.19798(5)
O2A_2 O 0.67916(7) -0.52098(7) 0.80202(5)
O3A O 0.50824(7) 0.65981(6) -0.01661(5)
O3A_2 O 0.50824(7) -0.34019(6) 0.98339(5)
O4A O 1.11787(7) 0.52695(7) 0.00926(6)
O4A_2 O 0.11787(7) 0.52695(7) 0.00926(6)
O5A O 0.49672(9) 0.45339(8) 0.62012(6)
O5A_2 O 0.49672(9) 0.45339(8) -0.37988(6)
O6A O 0.51441(8) -0.12083(7) 0.60115(6)
F1A F -0.18092(7) 0.03732(8) 0.63333(7)
F2A F 1.20417(8) 0.32174(9) -0.41459(8)
F3A F 0.40215(8) 1.23155(6) -0.17616(5)
C1A C 0.21436(9) -0.26260(9) 0.76291(7)
C2A C 0.12661(10) -0.15940(10) 0.80995(8)
H1A H 0.1590 -0.1572 0.8722
C3A C -0.00629(11) -0.06055(10) 0.76775(9)
H2A H -0.0648 0.0066 0.8018
C4A C -0.05102(10) -0.06200(11) 0.67617(9)
C5A C 0.03103(11) -0.15779(11) 0.62460(9)
H3A H -0.0018 -0.1560 0.5607
C6A C 0.16308(10) -0.25739(10) 0.66789(8)
H4A H 0.2201 -0.3235 0.6325
C7A C 0.80474(9) 0.44250(9) -0.25146(7)
C8A C 0.86090(12) 0.31936(11) -0.27813(11)
H5A H 0.8064 0.2621 -0.2580
C9A C 0.99379(14) 0.27905(13) -0.33311(13)
H6A H 1.0295 0.1957 -0.3505
C10A C 1.07259(12) 0.36220(12) -0.36185(10)
C11A C 1.02235(11) 0.48531(11) -0.34055(9)
H7A H 1.0774 0.5423 -0.3628
C12A C 0.88916(10) 0.52487(10) -0.28579(8)
H8A H 0.8540 0.6100 -0.2711
C13A C 0.48267(9) 0.79742(8) -0.05498(7)
C14A C 0.35137(10) 0.89604(9) -0.03096(7)
H9A H 0.2801 0.8625 0.0147
C15A C 0.32358(11) 1.04094(10) -0.07235(8)
H10A H 0.2345 1.1057 -0.0557
C16A C 0.42777(11) 1.08859(9) -0.13794(8)
C17A C 0.55708(11) 0.99869(10) -0.16543(7)
H11A H 0.6265 1.0347 -0.2118
C18A C 0.58447(10) 0.85360(9) -0.12389(7)
H12A H 0.6738 0.7908 -0.1423
C19A C 1.12418(10) 0.45911(10) -0.06545(8)
H13A H 1.2229 0.3923 -0.0717
H14A H 1.0965 0.5317 -0.1422
C20A C 0.97465(10) 0.62093(10) 0.02109(8)
H15A H 0.9433 0.6974 -0.0536
H16A H 0.9706 0.6656 0.0742
C21A C 0.54857(18) 0.56278(15) 0.54731(9)
H17A H 0.5286 0.6306 0.5846
H18A H 0.6531 0.5196 0.5354
C22A C 0.51940(14) 0.35886(11) 0.56517(8)
H19A H 0.6230 0.3090 0.5539
H20A H 0.4790 0.2865 0.6140
C23A C 0.63569(12) -0.09068(12) 0.54021(9)
H21A H 0.6579 -0.0345 0.5711
H22A H 0.7191 -0.1809 0.5503
C24A C 0.39180(13) 0.00899(12) 0.58417(9)
H23A H 0.3076 -0.0130 0.6246
H24A H 0.4073 0.0679 0.6163
loop_
_geom_bond_atom_site_label_1
_geom_bond_atom_site_label_2
_geom_bond_site_symmetry_1
_geom_bond_site_symmetry_2
Na1 O1 1_555 1_555
Na2 O1 1_555 1_555
Na3 O1 1_555 1_555
O1 C1 1_555 1_555
O2 Na1 1_555 1_555
O3 Na1 1_555 1_555
O4 Na3 1_555 1_555
O5 Na2 1_555 1_555
O6 Na1 1_555 1_555
F1 C4 1_555 1_555
F2 C10 1_555 1_555
F3 C16 1_555 1_555
C1 C2 1_555 1_555
C2 H1 1_555 1_555
C3 C2 1_555 1_555
H2 C3 1_555 1_555
C4 C3 1_555 1_555
C5 C4 1_555 1_555
H3 C5 1_555 1_555
C6 C1 1_555 1_555
H4 C6 1_555 1_555
C7 O2 1_555 1_555
C8 C7 1_555 1_555
H5 C8 1_555 1_555
C9 C8 1_555 1_555
H6 C9 1_555 1_555
C10 C9 1_555 1_555
C11 C10 1_555 1_555
H7 C11 1_555 1_555
C12 C7 1_555 1_555
H8 C12 1_555 1_555
C13 O3 1_555 1_555
C14 C13 1_555 1_555
H9 C14 1_555 1_555
C15 C14 1_555 1_555
H10 C15 1_555 1_555
C16 C15 1_555 1_555
C17 C16 1_555 1_555
H11 C17 1_555 1_555
C18 C13 1_555 1_555
H12 C18 1_555 1_555
C19 O4 1_555 1_555
H13 C19 1_555 1_555
H14 C19 1_555 1_555
C20 O4 1_555 1_555
H15 C20 1_555 1_555
H16 C20 1_555 1_555
C21 O5 1_555 1_555
H17 C21 1_555 1_555
H18 C21 1_555 1_555
C22 O5 1_555 1_555
H19 C22 1_555 1_555
H20 C22 1_555 1_555
C23 O6 1_555 1_555
H21 C23 1_555 1_555
H22 C23 1_555 1_555
C24 O6 1_555 1_555
H23 C24 1_555 1_555
H24 C24 1_555 1_555
Na1A O1A 1_555 1_555
Na1A_2 O1A_2 1_555 1_555
Na2A O3 1_555 1_555
Na2A_2 O5A 1_555 1_555
Na2A_3 O1A 1_555 1_555
Na3A O2 1_555 1_555
Na3A_2 O4A 1_555 1_555
Na3A_3 O1A 1_555 1_555
O1A C1A 1_555 1_555
O1A_2 Na2A 1_555 1_555
O2A Na3 1_555 1_555
O2A_2 Na1A 1_555 1_555
O3A Na2 1_555 1_555
O3A_2 Na1A 1_555 1_555
O4A C19A 1_555 1_555
O4A_2 Na3A 1_555 1_555
O5A C21A 1_555 1_555
O5A_2 Na2A 1_555 1_555
O6A Na1A 1_555 1_555
F1A C4A 1_555 1_555
F2A C10A 1_555 1_555
F3A C16A 1_555 1_555
C1A C2A 1_555 1_555
C2A H1A 1_555 1_555
C3A C2A 1_555 1_555
H2A C3A 1_555 1_555
C4A C3A 1_555 1_555
C5A C4A 1_555 1_555
H3A C5A 1_555 1_555
C6A C1A 1_555 1_555
H4A C6A 1_555 1_555
C7A O2A 1_555 1_555
C8A C7A 1_555 1_555
H5A C8A 1_555 1_555
C9A C8A 1_555 1_555
H6A C9A 1_555 1_555
C10A C9A 1_555 1_555
C11A C10A 1_555 1_555
H7A C11A 1_555 1_555
C12A C7A 1_555 1_555
H8A C12A 1_555 1_555
C13A O3A 1_555 1_555
C14A C13A 1_555 1_555
H9A C14A 1_555 1_555
C15A C14A 1_555 1_555
H10A C15A 1_555 1_555
C16A C15A 1_555 1_555
C17A C16A 1_555 1_555
H11A C17A 1_555 1_555
C18A C13A 1_555 1_555
H12A C18A 1_555 1_555
C19A C20 1_555 1_555
H13A C19A 1_555 1_555
H14A C19A 1_555 1_555
C20A C19 1_555 1_555
H15A C20A 1_555 1_555
H16A C20A 1_555 1_555
C21A C22 1_555 1_555
H17A C21A 1_555 1_555
H18A C21A 1_555 1_555
C22A C21 1_555 1_555
H19A C22A 1_555 1_555
H20A C22A 1_555 1_555
C23A C24 1_555 1_555
H21A C23A 1_555 1_555
H22A C23A 1_555 1_555
C24A C23 1_555 1_555
H23A C24A 1_555 1_555
H24A C24A 1_555 1_555
Na2 O2 1_555 1_555
Na3 O3 1_555 1_555
Na3 O3A 1_555 1_555
O3 Na3A 1_555 1_555
C5 C6 1_555 1_555
C11 C12 1_555 1_555
C17 C18 1_555 1_555
Na1A_2 O2A 1_555 1_555
Na1A_2 O3A 1_555 1_555
Na2A O2A 1_555 1_555
Na2A_3 O2A_2 1_555 1_555
Na3A O1A_2 1_555 1_555
Na3A O3A 1_555 1_555
Na3A_3 O3A_2 1_555 1_555
O4A C20A 1_555 1_555
O5A C22A 1_555 1_555
O6A C23A 1_555 1_555
O6A C24A 1_555 1_555
C5A C6A 1_555 1_555
C11A C12A 1_555 1_555
C17A C18A 1_555 1_555

#END
