
#######################################################################
#
#                 Cambridge Crystallographic Data Centre
#                                CCDC 
#
#######################################################################
#
# If this CIF has been generated from an entry in the Cambridge 
# Structural Database, then it will include bibliographic, chemical, 
# crystal, experimental, refinement or atomic coordinate data resulting 
# from the CCDC's data processing and validation procedures.
#
#######################################################################

data_LAQREB
_symmetry_cell_setting           monoclinic
_symmetry_space_group_name_H-M   'P 21/c'
_symmetry_Int_Tables_number      14
_space_group_name_Hall           '-P 2ybc'
loop_
_symmetry_equiv_pos_site_id
_symmetry_equiv_pos_as_xyz
1 x,y,z
2 -x,1/2+y,1/2-z
3 -x,-y,-z
4 x,1/2-y,1/2+z
_cell_length_a                   15.530(3)
_cell_length_b                   15.127(3)
_cell_length_c                   29.923(6)
_cell_angle_alpha                90
_cell_angle_beta                 103.773(3)
_cell_angle_gamma                90
_cell_volume                     6827.46
loop_
_atom_site_label
_atom_site_type_symbol
_atom_site_fract_x
_atom_site_fract_y
_atom_site_fract_z
W1 W -0.36542(3) 1.36280(3) 0.289034(18)
W2 W -0.14090(3) 1.37592(3) 0.328130(18)
W3 W -0.23026(3) 1.22670(3) 0.248736(18)
W4 W -0.34158(3) 1.02887(3) 0.280148(18)
W5 W -0.40162(3) 1.33550(3) 0.403228(19)
W6 W -0.14001(4) 1.02577(4) 0.42868(2)
W7 W -0.02461(3) 1.20320(3) 0.407879(19)
W8 W -0.17947(3) 1.35602(3) 0.445370(18)
W9 W -0.28636(4) 1.17765(4) 0.472253(19)
W10 W -0.38493(3) 1.01134(3) 0.383775(19)
W11 W -0.09959(3) 1.05467(4) 0.325083(19)
Si1 Si -0.2566(2) 1.1929(2) 0.35993(11)
Ni1 Ni -0.17897(11) 1.19500(11) 0.13249(6)
Ni2 Ni -0.47556(9) 1.16835(9) 0.31793(5)
O1 O -0.2534(6) 0.9894(6) 0.4023(3)
O2 O -0.1848(7) 1.3323(7) 0.1237(4)
O3 O -0.0318(6) 1.0999(6) 0.4428(3)
O4 O -0.1300(7) 1.1736(7) 0.0752(3)
O6 O -0.4614(6) 1.0829(6) 0.2680(3)
O7 O -0.0846(5) 1.2738(6) 0.4425(3)
O9 O -0.2216(6) 1.0102(6) 0.3027(3)
O11 O -0.1630(5) 1.1388(5) 0.3748(3)
O13 O -0.2032(6) 1.2735(6) 0.4914(3)
O15 O -0.2176(6) 1.2138(6) 0.1934(3)
O16 O -0.3783(6) 1.2636(6) 0.4578(3)
O17 O -0.2728(5) 1.2462(5) 0.4050(3)
O18 O -0.3713(6) 1.3881(6) 0.3498(3)
O19 O -0.0608(6) 1.2870(6) 0.3587(3)
O20 O -0.1445(5) 1.3186(6) 0.2700(3)
O21 O -0.1439(5) 1.1471(6) 0.2830(3)
O22 O -0.2497(5) 1.4287(6) 0.3018(3)
O23 O -0.3199(6) 1.3127(6) 0.2368(3)
O24 O -0.3137(6) 1.1365(5) 0.2503(3)
O25 O -0.2500(5) 1.2631(5) 0.3195(3)
O26 O -0.3372(5) 1.1235(5) 0.3411(3)
O27 O -0.1660(6) 1.3940(6) 0.3876(3)
O28 O -0.1028(7) 0.9421(7) 0.4687(4)
O29 O -0.0456(7) 0.9889(7) 0.2938(4)
O30 O -0.0698(7) 1.4615(7) 0.3259(4)
O31 O -0.2957(7) 1.1437(7) 0.5253(4)
O32 O -0.1891(6) 1.1067(6) 0.4662(3)
O33 O -0.2914(6) 1.4031(6) 0.4374(3)
O34 O -0.3656(6) 0.9589(6) 0.2341(3)
O35 O -0.0949(6) 0.9832(6) 0.3764(3)
O36 O -0.4896(6) 1.0617(6) 0.3569(3)
O37 O -0.1186(6) 1.4323(7) 0.4814(3)
O38 O -0.4314(6) 1.4449(6) 0.2570(4)
O39 O 0.0833(6) 1.2339(7) 0.4307(3)
O40 O -0.4388(5) 1.2701(6) 0.2838(3)
O41 O -0.3576(6) 1.0950(6) 0.4335(3)
O42 O -0.0066(6) 1.1228(6) 0.3578(3)
O43 O -0.3746(6) 0.9577(6) 0.3254(3)
O44 O -0.4675(6) 1.2528(6) 0.3690(3)
O45 O -0.4792(6) 1.4095(7) 0.4150(4)
O46 O -0.4182(7) 0.9196(6) 0.4096(4)
C1 C -0.6556(9) 1.1112(10) 0.2790(6)
H1 H -0.6314 1.0556 0.2874
C2 C -0.7428(11) 1.1176(11) 0.2561(7)
H2 H -0.7764 1.0665 0.2483
C3 C -0.7812(10) 1.1990(10) 0.2443(5)
C4 C -0.7297(9) 1.2736(10) 0.2550(6)
H3 H -0.7536 1.3296 0.2475
C5 C -0.6402(9) 1.2628(9) 0.2773(5)
H4 H -0.6046 1.3128 0.2837
C6 C -0.9361(9) 1.1450(11) 0.2313(6)
H5 H -0.9178 1.1027 0.2541
C7 C -1.0236(10) 1.1475(11) 0.2063(5)
H6 H -1.0638 1.1086 0.2143
C8 C -0.9933(11) 1.2644(10) 0.1646(5)
H7 H -1.0132 1.3068 0.1421
C9 C -0.9090(10) 1.2682(11) 0.1879(6)
H8 H -0.8724 1.3125 0.1814
C10 C -0.8752(9) 1.2067(10) 0.2220(5)
C11 C -0.1356(10) 0.9999(11) 0.1289(6)
H9 H -0.0862 1.0213 0.1198
C12 C -0.1487(10) 0.9094(10) 0.1276(5)
H10 H -0.1060 0.8715 0.1212
C13 C -0.2268(10) 0.8758(10) 0.1360(6)
C14 C -0.2822(11) 0.9360(11) 0.1503(6)
H11 H -0.3338 0.9167 0.1578
C15 C -0.2609(10) 1.0235(10) 0.1532(5)
H12 H -0.2984 1.0624 0.1636
C16 C -0.2545(12) 0.7832(10) 0.1278(6)
C17 C -0.1887(16) 0.7157(12) 0.1395(8)
C18 C -0.221(2) 0.6307(15) 0.1310(8)
H13 H -0.1819 0.5838 0.1393
C19 C -0.3664(14) 0.6725(12) 0.1026(8)
H14 H -0.4259 0.6585 0.0914
C20 C -0.3388(11) 0.7592(12) 0.1108(6)
H15 H -0.3815 0.8035 0.1040
C21 C -0.3422(10) 1.1319(10) 0.0614(6)
H16 H -0.3017 1.0932 0.0535
C22 C -0.4300(9) 1.1233(11) 0.0394(5)
H17 H -0.4482 1.0789 0.0177
C23 C -0.4909(9) 1.1815(9) 0.0499(5)
C24 C -0.4595(9) 1.2439(10) 0.0819(6)
H18 H -0.4979 1.2855 0.0895
C25 C -0.3695(9) 1.2460(9) 0.1038(5)
H19 H -0.3495 1.2876 0.1268
C26 C -0.5881(9) 1.1737(10) 0.0289(5)
C27 C -0.6288(9) 1.0905(10) 0.0261(6)
H20 H -0.5965 1.0402 0.0375
C28 C -0.7175(11) 1.0858(12) 0.0061(6)
H21 H -0.7453 1.0309 0.0031
C29 C -0.7292(10) 1.2377(11) -0.0060(6)
H22 H -0.7640 1.2870 -0.0165
C30 C -0.6386(9) 1.2456(10) 0.0134(6)
H23 H -0.6123 1.3012 0.0157
N1 N -0.6034(7) 1.1838(7) 0.2899(4)
N2 N -1.0525(7) 1.2024(8) 0.1716(4)
N3 N -0.1870(7) 1.0574(7) 0.1418(4)
N4 N -0.3068(13) 0.6123(12) 0.1111(7)
H32 H -0.3217 0.5584 0.1040
N5 N -0.3122(7) 1.1915(7) 0.0929(4)
N6 N -0.7646(8) 1.1559(10) -0.0089(5)
H33 H -0.8202 1.1496 -0.0212
Ni1_2 Ni -1.17897(11) 1.19500(11) 0.13249(6)
N2_2 N -0.0525(7) 1.2024(8) 0.1716(4)
O5 O 0.1296(7) 0.9371(8) 0.3015(4)
O8 O -0.753(3) 1.4375(15) -0.0240(12)
O10 O -0.0965(16) 1.423(2) 0.0651(7)
O12 O 0.6151(17) 0.4609(13) 0.0807(10)
O14 O 0.0698(7) 1.0857(8) -0.0329(5)
C31 C 0.0985(11) 0.2422(12) 0.0720(7)
H24 H 0.0683 0.2916 0.0577
C32 C 0.1889(11) 0.2498(11) 0.0899(7)
H25 H 0.2187 0.3016 0.0862
C33 C 0.2339(10) 0.1785(9) 0.1135(6)
C34 C 0.1860(11) 0.1016(10) 0.1140(6)
H26 H 0.2145 0.0509 0.1278
C35 C 0.0986(10) 0.0997(10) 0.0948(6)
H27 H 0.0678 0.0474 0.0959
C36 C 0.3284(10) 0.1836(9) 0.1369(5)
C37 C 0.3655(10) 0.2638(10) 0.1577(6)
H28 H 0.3317 0.3152 0.1542
C38 C 0.4486(13) 0.2648(10) 0.1819(6)
H29 H 0.4739 0.3179 0.1942
C39 C 0.4663(12) 0.1138(12) 0.1699(6)
H30 H 0.5027 0.0641 0.1746
C40 C 0.3842(11) 0.1076(10) 0.1439(5)
H31 H 0.3632 0.0540 0.1304
N7 N 0.0533(9) 0.1708(9) 0.0737(5)
H34 H -0.0029 0.1687 0.0621
N8 N 0.4969(9) 0.1906(10) 0.1892(5)
H35 H 0.5494 0.1925 0.2068
O47 O 0.610(4) 0.421(4) 0.1613(16)
loop_
_geom_bond_atom_site_label_1
_geom_bond_atom_site_label_2
_geom_bond_site_symmetry_1
_geom_bond_site_symmetry_2
W1 O18 1_555 1_555
W2 O19 1_555 1_555
W3 O15 1_555 1_555
W4 O6 1_555 1_555
W5 O16 1_555 1_555
W6 O1 1_555 1_555
W7 O3 1_555 1_555
W8 O7 1_555 1_555
W9 O13 1_555 1_555
W10 O1 1_555 1_555
W11 O9 1_555 1_555
Si1 O11 1_555 1_555
Ni1 O2 1_555 1_555
Ni2 O6 1_555 1_555
O3 W6 1_555 1_555
O4 Ni1 1_555 1_555
O7 W7 1_555 1_555
O9 W4 1_555 1_555
O11 W6 1_555 1_555
O13 W8 1_555 1_555
O15 Ni1 1_555 1_555
O16 W9 1_555 1_555
O17 W5 1_555 1_555
O18 W5 1_555 1_555
O19 W7 1_555 1_555
O20 W2 1_555 1_555
O21 W3 1_555 1_555
O22 W1 1_555 1_555
O23 W1 1_555 1_555
O24 W3 1_555 1_555
O25 W1 1_555 1_555
O26 W4 1_555 1_555
O27 W2 1_555 1_555
O28 W6 1_555 1_555
O29 W11 1_555 1_555
O30 W2 1_555 1_555
O31 W9 1_555 1_555
O32 W6 1_555 1_555
O33 W5 1_555 1_555
O34 W4 1_555 1_555
O35 W6 1_555 1_555
O36 W10 1_555 1_555
O37 W8 1_555 1_555
O38 W1 1_555 1_555
O39 W7 1_555 1_555
O40 W1 1_555 1_555
O41 W9 1_555 1_555
O42 W7 1_555 1_555
O43 W4 1_555 1_555
O44 W5 1_555 1_555
O45 W5 1_555 1_555
O46 W10 1_555 1_555
C1 H1 1_555 1_555
C2 C1 1_555 1_555
H2 C2 1_555 1_555
C3 C2 1_555 1_555
C4 C3 1_555 1_555
H3 C4 1_555 1_555
C5 C4 1_555 1_555
H4 C5 1_555 1_555
C6 H5 1_555 1_555
C7 C6 1_555 1_555
H6 C7 1_555 1_555
C8 H7 1_555 1_555
C9 C8 1_555 1_555
H8 C9 1_555 1_555
C10 C3 1_555 1_555
C11 H9 1_555 1_555
C12 C11 1_555 1_555
H10 C12 1_555 1_555
C13 C12 1_555 1_555
C14 C13 1_555 1_555
H11 C14 1_555 1_555
C15 C14 1_555 1_555
H12 C15 1_555 1_555
C16 C13 1_555 1_555
C17 C16 1_555 1_555
C18 C17 1_555 1_555
H13 C18 1_555 1_555
C19 H14 1_555 1_555
C20 C16 1_555 1_555
H15 C20 1_555 1_555
C21 H16 1_555 1_555
C22 C21 1_555 1_555
H17 C22 1_555 1_555
C23 C22 1_555 1_555
C24 C23 1_555 1_555
H18 C24 1_555 1_555
C25 C24 1_555 1_555
H19 C25 1_555 1_555
C26 C23 1_555 1_555
C27 C26 1_555 1_555
H20 C27 1_555 1_555
C28 C27 1_555 1_555
H21 C28 1_555 1_555
C29 H22 1_555 1_555
C30 C26 1_555 1_555
H23 C30 1_555 1_555
C31 H24 1_555 1_555
C32 C31 1_555 1_555
H25 C32 1_555 1_555
C33 C32 1_555 1_555
C34 C33 1_555 1_555
H26 C34 1_555 1_555
C35 C34 1_555 1_555
H27 C35 1_555 1_555
C36 C33 1_555 1_555
C37 C36 1_555 1_555
H28 C37 1_555 1_555
C38 C37 1_555 1_555
H29 C38 1_555 1_555
C39 H30 1_555 1_555
C40 C36 1_555 1_555
H31 C40 1_555 1_555
N1 Ni2 1_555 1_555
N2 C7 1_555 1_555
N3 Ni1 1_555 1_555
N4 C18 1_555 1_555
H32 N4 1_555 1_555
N5 Ni1 1_555 1_555
N6 C28 1_555 1_555
H33 N6 1_555 1_555
N7 C31 1_555 1_555
H34 N7 1_555 1_555
N8 C38 1_555 1_555
H35 N8 1_555 1_555
Ni1_2 N2 1_555 1_555
N2_2 Ni1 1_555 1_555
W2 O22 1_555 1_555
W2 O25 1_555 1_555
W3 O20 1_555 1_555
W3 O23 1_555 1_555
W3 O25 1_555 1_555
W4 O24 1_555 1_555
W7 O11 1_555 1_555
W8 O17 1_555 1_555
W8 O27 1_555 1_555
W8 O33 1_555 1_555
W9 O17 1_555 1_555
W9 O32 1_555 1_555
W10 O26 1_555 1_555
W10 O41 1_555 1_555
W10 O43 1_555 1_555
W11 O11 1_555 1_555
W11 O21 1_555 1_555
W11 O35 1_555 1_555
W11 O42 1_555 1_555
Si1 O17 1_555 1_555
Si1 O25 1_555 1_555
Si1 O26 1_555 1_555
Ni2 O26 1_555 1_555
Ni2 O36 1_555 1_555
Ni2 O40 1_555 1_555
Ni2 O44 1_555 1_555
C1 N1 1_555 1_555
C5 N1 1_555 1_555
C6 C10 1_555 1_555
C8 N2 1_555 1_555
C9 C10 1_555 1_555
C11 N3 1_555 1_555
C15 N3 1_555 1_555
C19 C20 1_555 1_555
C19 N4 1_555 1_555
C21 N5 1_555 1_555
C25 N5 1_555 1_555
C29 C30 1_555 1_555
C29 N6 1_555 1_555
C35 N7 1_555 1_555
C39 C40 1_555 1_555
C39 N8 1_555 1_555

#END
