
#######################################################################
#
#                 Cambridge Crystallographic Data Centre
#                                CCDC 
#
#######################################################################
#
# If this CIF has been generated from an entry in the Cambridge 
# Structural Database, then it will include bibliographic, chemical, 
# crystal, experimental, refinement or atomic coordinate data resulting 
# from the CCDC's data processing and validation procedures.
#
#######################################################################

data_LAQRAX
_symmetry_cell_setting           monoclinic
_symmetry_space_group_name_H-M   'C 2/c'
_symmetry_Int_Tables_number      15
_space_group_name_Hall           '-C 2yn'
loop_
_symmetry_equiv_pos_site_id
_symmetry_equiv_pos_as_xyz
1 x,y,z
2 1/2+x,1/2+y,z
3 -x,y,1/2-z
4 1/2-x,1/2+y,1/2-z
5 -x,-y,-z
6 1/2-x,1/2-y,-z
7 x,-y,1/2+z
8 1/2+x,1/2-y,1/2+z
_cell_length_a                   24.642(5)
_cell_length_b                   11.399(2)
_cell_length_c                   22.597(5)
_cell_angle_alpha                90
_cell_angle_beta                 101.346(4)
_cell_angle_gamma                90
_cell_volume                     6223.32
loop_
_atom_site_label
_atom_site_type_symbol
_atom_site_fract_x
_atom_site_fract_y
_atom_site_fract_z
Ni1 Ni 0.0000 -0.7067(2) 0.2500
N1 N 0.0299(5) -0.7180(11) 0.3463(6)
C1 C -0.0057(9) -0.735(2) 0.3826(10)
H1 H -0.0434 -0.7323 0.3659
C2 C 0.0104(8) -0.757(2) 0.4452(9)
H2 H -0.0153 -0.7683 0.4698
C3 C 0.0690(6) -0.7616(15) 0.4682(7)
C4 C 0.1024(6) -0.7410(16) 0.4301(10)
H3 H 0.1405 -0.7384 0.4442
C5 C 0.0816(6) -0.7238(14) 0.3711(6)
H4 H 0.1069 -0.7153 0.3458
C6 C 0.0862(3) -0.7915(11) 0.5315(4)
C7 C 0.0526(4) -0.8483(10) 0.5647(3)
H5 H 0.0161 -0.8661 0.5471
C8 C 0.0731(3) -0.8787(13) 0.6241(4)
H6 H 0.0521 -0.9243 0.6453
C9 C 0.1612(4) -0.8011(16) 0.6161(4)
H7 H 0.1988 -0.7934 0.6325
C10 C 0.1414(3) -0.7735(19) 0.5563(4)
H8 H 0.1650 -0.7429 0.5328
N2 N 0.1253(4) -0.8402(17) 0.6515(4)
H9 H 0.1353 -0.8407 0.6902
N3 N 0.0000 -0.5194(14) 0.2500
C11 C 0.0379(6) -0.4572(14) 0.2869(6)
H10 H 0.0660 -0.4976 0.3123
C12 C 0.0381(6) -0.3363(15) 0.2899(6)
H11 H 0.0640 -0.2982 0.3191
C13 C 0.0000 -0.2715(19) 0.2500
C14 C 0.0000 -0.1415(19) 0.2500
C15 C 0.0485(9) -0.0772(16) 0.2658(10)
H12 H 0.0825 -0.1154 0.2748
C16 C 0.0462(7) 0.0435(14) 0.2679(10)
H13 H 0.0788 0.0841 0.2828
N4 N 0.0000 0.1058(15) 0.2500
O24 O 0.0803(4) -0.6949(10) 0.2374(5)
H14 H 0.0980 -0.6554 0.2669
H15 H 0.0972 -0.7595 0.2362
Ni1_2 Ni 0.0000 0.2933(2) 0.2500
N1B N -0.0299(5) -0.7180(11) 0.1537(6)
C1B C 0.0057(9) -0.735(2) 0.1174(10)
H1B H 0.0434 -0.7323 0.1341
C2B C -0.0104(8) -0.757(2) 0.0548(9)
H2B H 0.0153 -0.7683 0.0302
C3B C -0.0690(6) -0.7616(15) 0.0318(7)
C4B C -0.1024(6) -0.7410(16) 0.0699(10)
H3B H -0.1405 -0.7384 0.0558
C5B C -0.0816(6) -0.7238(14) 0.1289(6)
H4B H -0.1069 -0.7153 0.1542
C6B C -0.0862(3) -0.7915(11) -0.0315(4)
C7B C -0.0526(4) -0.8483(10) -0.0647(3)
H5B H -0.0161 -0.8661 -0.0471
C8B C -0.0731(3) -0.8787(13) -0.1241(4)
H6B H -0.0521 -0.9243 -0.1453
C9B C -0.1612(4) -0.8011(16) -0.1161(4)
H7B H -0.1988 -0.7934 -0.1325
C10B C -0.1414(3) -0.7735(19) -0.0563(4)
H8B H -0.1650 -0.7429 -0.0328
N2B N -0.1253(4) -0.8402(17) -0.1515(4)
H9B H -0.1353 -0.8407 -0.1902
C11B C -0.0379(6) -0.4572(14) 0.2131(6)
H10B H -0.0660 -0.4976 0.1877
C12B C -0.0381(6) -0.3363(15) 0.2101(6)
H11B H -0.0640 -0.2982 0.1809
C15B C -0.0485(9) -0.0772(16) 0.2342(10)
H12B H -0.0825 -0.1154 0.2252
C16B C -0.0462(7) 0.0435(14) 0.2321(10)
H13B H -0.0788 0.0841 0.2172
N4_2 N 0.0000 -0.8942(15) 0.2500
O24B O -0.0803(4) -0.6949(10) 0.2626(5)
H14B H -0.0980 -0.6554 0.2331
H15B H -0.0972 -0.7595 0.2638
O25 O 0.1272(11) -0.5215(19) 0.1869(11)
H16 H 0.1449 -0.5708 0.1697
H17 H 0.1079 -0.4795 0.1595
O26 O 0.1764(11) -0.821(3) 0.2826(8)
H18 H 0.1901 -0.7862 0.3155
H19 H 0.1950 -0.8832 0.2809
O27 O 0.2179(17) -0.441(4) 0.225(2)
H20 H 0.2465 -0.4066 0.2172
H21 H 0.2112 -0.4113 0.2572
W1 W 0.37917(3) 0.61344(6) 0.55012(4)
W2 W 0.37308(3) 0.90468(7) 0.49728(4)
W3 W 0.24490(4) 1.04055(7) 0.44626(4)
W4 W 0.29584(4) 0.69375(8) 0.65495(5)
W5 W 0.16764(3) 0.82874(8) 0.60464(6)
W6 W 0.29035(3) 0.98364(8) 0.60076(6)
Si1 Si 0.2500 0.7500 0.5000
O1 O 0.2496(6) 0.7986(12) 0.5630(3)
O2 O 0.2767(5) 0.8388(10) 0.4658(6)
O4 O 0.2837(4) 0.6387(7) 0.5092(9)
O5 O 0.1906(3) 0.7281(15) 0.4711(8)
O6 O 0.3714(6) 0.5948(12) 0.4655(6)
O7 O 0.1297(7) 0.8687(13) 0.6529(7)
O8 O 0.4005(5) 0.7713(10) 0.5385(6)
O9 O 0.3545(7) 0.6676(14) 0.6243(6)
O10 O 0.3200(6) 0.6630(16) 0.7305(7)
O11 O 0.3668(5) 0.8123(12) 0.4250(5)
O12 O 0.3091(5) 1.0915(12) 0.6498(7)
O13 O 0.2398(6) 1.1780(13) 0.4211(10)
O14 O 0.3301(6) 0.4867(14) 0.5489(7)
O15 O 0.2330(7) 0.9500(15) 0.3722(6)
O16 O 0.4409(6) 0.5464(13) 0.5718(11)
O17 O 0.3186(8) 1.0050(18) 0.4527(7)
O18 O 0.2235(7) 0.7407(15) 0.6527(17)
O19 O 0.3526(6) 0.9616(14) 0.5674(6)
O20 O 0.2187(6) 0.9565(14) 0.6162(14)
O21 O 0.2586(7) 1.0664(17) 0.5313(8)
O22 O 0.4298(6) 0.9824(14) 0.4952(9)
O23 O 0.3145(6) 0.8539(14) 0.6537(13)
W1E W 0.12083(3) 0.88656(6) 0.44988(4)
W2E W 0.12692(3) 0.59532(7) 0.50272(4)
W3E W 0.25510(4) 0.45945(7) 0.55374(4)
W4E W 0.20416(4) 0.80625(8) 0.34505(5)
W5E W 0.33236(3) 0.67126(8) 0.39536(6)
W6E W 0.20965(3) 0.51636(8) 0.39924(6)
O1E O 0.2504(6) 0.7014(12) 0.4370(3)
O2E O 0.2233(5) 0.6612(10) 0.5342(6)
O4E O 0.2163(4) 0.8613(7) 0.4908(9)
O5E O 0.3094(3) 0.7719(15) 0.5289(8)
O6E O 0.1286(6) 0.9052(12) 0.5345(6)
O7E O 0.3703(7) 0.6313(13) 0.3471(7)
O8E O 0.0995(5) 0.7287(10) 0.4615(6)
O9E O 0.1455(7) 0.8324(14) 0.3757(6)
O10E O 0.1800(6) 0.8370(16) 0.2695(7)
O11E O 0.1332(5) 0.6877(12) 0.5750(5)
O12E O 0.1909(5) 0.4085(12) 0.3502(7)
O13E O 0.2602(6) 0.3220(13) 0.5789(10)
O14E O 0.1699(6) 1.0133(14) 0.4511(7)
O15E O 0.2670(7) 0.5500(15) 0.6278(6)
O16E O 0.0591(6) 0.9536(13) 0.4282(11)
O17E O 0.1814(8) 0.4950(18) 0.5473(7)
O18E O 0.2765(7) 0.7593(15) 0.3473(17)
O19E O 0.1474(6) 0.5384(14) 0.4326(6)
O20E O 0.2813(6) 0.5435(14) 0.3838(14)
O21E O 0.2414(7) 0.4336(17) 0.4687(8)
O22E O 0.0702(6) 0.5176(14) 0.5048(9)
O23E O 0.1855(6) 0.6461(14) 0.3463(13)
O3? O 0.212(2) 0.622(5) 0.497(5)
loop_
_geom_bond_atom_site_label_1
_geom_bond_atom_site_label_2
_geom_bond_site_symmetry_1
_geom_bond_site_symmetry_2
W1 O4 1_555 1_555
W2 O2 1_555 1_555
W3 O2 1_555 1_555
W4 O1 1_555 1_555
W5 O1 1_555 1_555
W6 O1 1_555 1_555
Ni1 N1 1_555 1_555
Si1 O1 1_555 1_555
O1 O2E 1_555 1_555
O2 Si1 1_555 1_555
O4 Si1 1_555 1_555
O5 Si1 1_555 1_555
O6 W1 1_555 1_555
O7 W5 1_555 1_555
O8 W1 1_555 1_555
O9 W1 1_555 1_555
O10 W4 1_555 1_555
O11 W2 1_555 1_555
O12 W6 1_555 1_555
O13 W3 1_555 1_555
O14 W1 1_555 1_555
O15 W3 1_555 1_555
O16 W1 1_555 1_555
O17 W2 1_555 1_555
O18 W4 1_555 1_555
O19 W2 1_555 1_555
O20 W5 1_555 1_555
O21 W3 1_555 1_555
O22 W2 1_555 1_555
O23 W4 1_555 1_555
N1 C1 1_555 1_555
C1 H1 1_555 1_555
C2 C1 1_555 1_555
H2 C2 1_555 1_555
C3 C2 1_555 1_555
C4 C3 1_555 1_555
H3 C4 1_555 1_555
C5 N1 1_555 1_555
H4 C5 1_555 1_555
C6 C3 1_555 1_555
C7 C6 1_555 1_555
H5 C7 1_555 1_555
C8 C7 1_555 1_555
H6 C8 1_555 1_555
C9 H7 1_555 1_555
C10 C6 1_555 1_555
H8 C10 1_555 1_555
N2 C8 1_555 1_555
H9 N2 1_555 1_555
N3 Ni1 1_555 1_555
C11 N3 1_555 1_555
H10 C11 1_555 1_555
C12 C11 1_555 1_555
H11 C12 1_555 1_555
C13 C12 1_555 1_555
C14 C13 1_555 1_555
C15 C14 1_555 1_555
H12 C15 1_555 1_555
C16 C15 1_555 1_555
H13 C16 1_555 1_555
N4 C16 1_555 1_555
O24 Ni1 1_555 1_555
H14 O24 1_555 1_555
H15 O24 1_555 1_555
O25 H16 1_555 1_555
H17 O25 1_555 1_555
O26 H18 1_555 1_555
H19 O26 1_555 1_555
O27 H20 1_555 1_555
H21 O27 1_555 1_555
W1E O5 1_555 1_555
W2E O5 1_555 1_555
W3E O4 1_555 1_555
W4E O15 1_555 1_555
W5E O6 1_555 1_555
W6E O1E 1_555 1_555
Ni1_2 N4 1_555 1_555
O1E Si1 1_555 1_555
O2E Si1 1_555 1_555
O4E W3 1_555 1_555
O5E W1 1_555 1_555
O6E W5 1_555 1_555
O7E W5E 1_555 1_555
O8E W1E 1_555 1_555
O9E W1E 1_555 1_555
O10E W4E 1_555 1_555
O11E W5 1_555 1_555
O12E W6E 1_555 1_555
O13E W3E 1_555 1_555
O14E W3 1_555 1_555
O15E W4 1_555 1_555
O16E W1E 1_555 1_555
O17E W2E 1_555 1_555
O18E W4E 1_555 1_555
O19E W2E 1_555 1_555
O20E W5E 1_555 1_555
O21E W3E 1_555 1_555
O22E W2E 1_555 1_555
O23E W4E 1_555 1_555
N1B Ni1 1_555 1_555
C1B N1B 1_555 1_555
H1B C1B 1_555 1_555
C2B C1B 1_555 1_555
H2B C2B 1_555 1_555
C3B C2B 1_555 1_555
C4B C3B 1_555 1_555
H3B C4B 1_555 1_555
C5B N1B 1_555 1_555
H4B C5B 1_555 1_555
C6B C3B 1_555 1_555
C7B C6B 1_555 1_555
H5B C7B 1_555 1_555
C8B C7B 1_555 1_555
H6B C8B 1_555 1_555
C9B H7B 1_555 1_555
C10B C6B 1_555 1_555
H8B C10B 1_555 1_555
N2B C8B 1_555 1_555
H9B N2B 1_555 1_555
C11B N3 1_555 1_555
H10B C11B 1_555 1_555
C12B C13 1_555 1_555
H11B C12B 1_555 1_555
C15B C14 1_555 1_555
H12B C15B 1_555 1_555
C16B N4 1_555 1_555
H13B C16B 1_555 1_555
N4_2 Ni1 1_555 1_555
O24B Ni1 1_555 1_555
H14B O24B 1_555 1_555
H15B O24B 1_555 1_555
W2 O8 1_555 1_555
W2 O5E 1_555 1_555
W3 O17 1_555 1_555
W4 O9 1_555 1_555
W5 O18 1_555 1_555
W6 O19 1_555 1_555
W6 O20 1_555 1_555
W6 O21 1_555 1_555
W6 O23 1_555 1_555
Si1 O4E 1_555 1_555
Si1 O5E 1_555 1_555
O2 O1E 1_555 1_555
O2 O4E 1_555 1_555
O2 O5E 1_555 1_555
O4 O2E 1_555 1_555
O4 O5E 1_555 1_555
O5 O2E 1_555 1_555
O5 O4E 1_555 1_555
O11 W5E 1_555 1_555
O14 W3E 1_555 1_555
C4 C5 1_555 1_555
C9 C10 1_555 1_555
C9 N2 1_555 1_555
W1E O4E 1_555 1_555
W1E O6E 1_555 1_555
W1E O14E 1_555 1_555
W2E O2E 1_555 1_555
W2E O8E 1_555 1_555
W2E O11E 1_555 1_555
W3E O2E 1_555 1_555
W3E O15E 1_555 1_555
W3E O17E 1_555 1_555
W4E O1E 1_555 1_555
W4E O9E 1_555 1_555
W5E O1E 1_555 1_555
W5E O18E 1_555 1_555
W6E O19E 1_555 1_555
W6E O20E 1_555 1_555
W6E O21E 1_555 1_555
W6E O23E 1_555 1_555
C4B C5B 1_555 1_555
C9B C10B 1_555 1_555
C9B N2B 1_555 1_555
C11B C12B 1_555 1_555
C15B C16B 1_555 1_555

#END
