
#######################################################################
#
#                 Cambridge Crystallographic Data Centre
#                                CCDC 
#
#######################################################################
#
# If this CIF has been generated from an entry in the Cambridge 
# Structural Database, then it will include bibliographic, chemical, 
# crystal, experimental, refinement or atomic coordinate data resulting 
# from the CCDC's data processing and validation procedures.
#
#######################################################################

data_LAQZOT
_symmetry_cell_setting           monoclinic
_symmetry_space_group_name_H-M   'C c'
_symmetry_Int_Tables_number      9
_space_group_name_Hall           'C -2yc'
loop_
_symmetry_equiv_pos_site_id
_symmetry_equiv_pos_as_xyz
1 x,y,z
2 x,-y,1/2+z
3 1/2+x,1/2+y,z
4 1/2+x,1/2-y,1/2+z
_cell_length_a                   15.029(3)
_cell_length_b                   12.281(3)
_cell_length_c                   8.7238(17)
_cell_angle_alpha                90
_cell_angle_beta                 92.85(3)
_cell_angle_gamma                90
_cell_volume                     1608.17
loop_
_atom_site_label
_atom_site_type_symbol
_atom_site_fract_x
_atom_site_fract_y
_atom_site_fract_z
Ga1 Ga 0.08565(11) -0.24799(4) 0.39037(13)
Na1 Na -0.15208(19) -0.1314(2) 0.6310(3)
N1 N 0.0473(4) -0.4022(3) 0.4010(6)
N2 N 0.1171(4) -0.0921(4) 0.4081(6)
O1 O -0.0133(4) -0.2381(3) 0.5425(6)
O2 O -0.1256(3) -0.3324(3) 0.6373(6)
O3 O 0.1657(3) -0.3168(3) 0.2412(5)
O4 O 0.2176(3) -0.4794(3) 0.1682(6)
O5 O 0.1851(4) -0.2532(3) 0.5552(7)
O6 O 0.2892(3) -0.1506(4) 0.6806(6)
O7 O 0.0032(3) -0.1836(3) 0.2232(5)
O8 O -0.0522(3) -0.0238(3) 0.1382(6)
O9 O -0.1432(5) -0.1443(5) 0.9041(6)
O10 O -0.2007(4) -0.1541(4) 0.3728(6)
C1 C -0.0572(4) -0.3265(4) 0.5626(7)
C2 C -0.0201(4) -0.4267(4) 0.4900(6)
C3 C -0.0443(4) -0.5354(4) 0.5077(8)
H1 H -0.0913 -0.5550 0.5675
C4 C 0.0046(5) -0.6135(4) 0.4321(8)
H2 H -0.0102 -0.6866 0.4419
C5 C 0.0742(4) -0.5854(5) 0.3435(7)
H3 H 0.1068 -0.6385 0.2947
C6 C 0.0947(4) -0.4748(4) 0.3288(7)
C7 C 0.1657(4) -0.4229(4) 0.2368(7)
C8 C 0.2241(4) -0.1622(5) 0.5899(7)
C9 C 0.1823(4) -0.0640(4) 0.5095(7)
C10 C 0.2020(4) 0.0461(5) 0.5340(7)
H4 H 0.2477 0.0682 0.6028
C11 C 0.1491(5) 0.1221(4) 0.4491(7)
H5 H 0.1602 0.1961 0.4623
C12 C 0.0812(5) 0.0894(5) 0.3469(7)
H6 H 0.0461 0.1399 0.2925
C13 C 0.0674(4) -0.0217(4) 0.3284(7)
C14 C -0.0017(4) -0.0776(4) 0.2208(7)
Na1A Na -0.15208(19) 0.1314(2) 0.1310(3)
Na1C Na 0.34792(19) -0.3686(2) 0.1310(3)
O3C O -0.3343(3) -0.1832(3) 0.7412(5)
O4C O -0.2824(3) -0.0206(3) 0.6682(6)
O8A O -0.0522(3) 0.0238(3) 0.6382(6)
loop_
_geom_bond_atom_site_label_1
_geom_bond_atom_site_label_2
_geom_bond_site_symmetry_1
_geom_bond_site_symmetry_2
Ga1 N1 1_555 1_555
Na1 O1 1_555 1_555
N1 C2 1_555 1_555
N2 Ga1 1_555 1_555
O1 Ga1 1_555 1_555
O2 Na1 1_555 1_555
O3 Ga1 1_555 1_555
O4 C7 1_555 1_555
O5 Ga1 1_555 1_555
O6 C8 1_555 1_555
O7 Ga1 1_555 1_555
O8 C14 1_555 1_555
O9 Na1 1_555 1_555
O10 Na1 1_555 1_555
C1 O1 1_555 1_555
C2 C1 1_555 1_555
C3 C2 1_555 1_555
H1 C3 1_555 1_555
C4 C3 1_555 1_555
H2 C4 1_555 1_555
C5 C4 1_555 1_555
H3 C5 1_555 1_555
C6 N1 1_555 1_555
C7 O3 1_555 1_555
C8 O5 1_555 1_555
C9 N2 1_555 1_555
C10 C9 1_555 1_555
H4 C10 1_555 1_555
C11 C10 1_555 1_555
H5 C11 1_555 1_555
C12 C11 1_555 1_555
H6 C12 1_555 1_555
C13 N2 1_555 1_555
C14 O7 1_555 1_555
Na1A O8 1_555 1_555
Na1C O3 1_555 1_555
O3C Na1 1_555 1_555
O4C Na1 1_555 1_555
O8A Na1 1_555 1_555
O2 C1 1_555 1_555
O4 Na1C 1_555 1_555
C5 C6 1_555 1_555
C6 C7 1_555 1_555
C8 C9 1_555 1_555
C12 C13 1_555 1_555
C13 C14 1_555 1_555

#END
