
#######################################################################
#
#                 Cambridge Crystallographic Data Centre
#                                CCDC 
#
#######################################################################
#
# If this CIF has been generated from an entry in the Cambridge 
# Structural Database, then it will include bibliographic, chemical, 
# crystal, experimental, refinement or atomic coordinate data resulting 
# from the CCDC's data processing and validation procedures.
#
#######################################################################

data_LARBOW
_symmetry_cell_setting           monoclinic
_symmetry_space_group_name_H-M   'P 21/c'
_symmetry_Int_Tables_number      14
_space_group_name_Hall           '-P 2ybc'
loop_
_symmetry_equiv_pos_site_id
_symmetry_equiv_pos_as_xyz
1 x,y,z
2 -x,1/2+y,1/2-z
3 -x,-y,-z
4 x,1/2-y,1/2+z
_cell_length_a                   12.4626(8)
_cell_length_b                   7.3438(5)
_cell_length_c                   10.7662(7)
_cell_angle_alpha                90
_cell_angle_beta                 107.0830(10)
_cell_angle_gamma                90
_cell_volume                     941.88
loop_
_atom_site_label
_atom_site_type_symbol
_atom_site_fract_x
_atom_site_fract_y
_atom_site_fract_z
Cd1 Cd -0.341670(12) 0.02551(3) -0.361580(15)
C1 C 0.01837(17) -0.1523(3) 0.1300(2)
C2 C -0.20486(17) -0.1970(3) -0.0124(2)
C3 C -0.32308(18) -0.2307(3) -0.0856(2)
C4 C -0.12118(19) -0.2812(4) -0.0516(2)
H1 H -0.1400 -0.3532 -0.1259
C5 C -0.06586(19) -0.0655(4) 0.1682(2)
H2 H -0.0471 0.0086 0.2414
C6 C -0.17756(18) -0.0884(3) 0.0980(2)
H3 H -0.2337 -0.0315 0.1246
C7 C 0.13780(18) -0.1258(3) 0.2110(2)
N1 N -0.37413(15) -0.1840(3) -0.20881(19)
N2 N -0.47799(17) -0.2520(3) -0.23814(19)
N3 N -0.48998(15) -0.3363(3) -0.13621(19)
O1 O 0.15565(17) -0.0222(3) 0.3080(2)
O2 O 0.21644(14) -0.2041(3) 0.18139(19)
N4 N -0.39392(16) -0.3261(3) -0.03813(18)
O3 O -0.34558(19) 0.2448(3) -0.5182(2)
C8 C -0.00901(17) -0.2592(4) 0.0191(2)
H4 H 0.0471 -0.3158 -0.0077
H5 H -0.402(3) 0.246(5) -0.582(4)
H6 H -0.300(4) 0.258(7) -0.540(5)
Cd1B Cd 0.341670(12) -0.02551(3) 0.361580(15)
Cd1A Cd -0.658330(12) -0.47449(3) -0.138420(15)
Cd1C Cd -0.341670(12) -0.52551(3) 0.138420(15)
N3A N -0.51002(15) 0.1637(3) -0.36379(19)
O1B O -0.15565(17) 0.0222(3) -0.3080(2)
O2B O -0.21644(14) 0.2041(3) -0.18139(19)
N4C N -0.39392(16) -0.1739(3) -0.53813(18)
loop_
_geom_bond_atom_site_label_1
_geom_bond_atom_site_label_2
_geom_bond_site_symmetry_1
_geom_bond_site_symmetry_2
Cd1 N1 1_555 1_555
C1 C5 1_555 1_555
C2 C3 1_555 1_555
C3 N1 1_555 1_555
C4 C2 1_555 1_555
H1 C4 1_555 1_555
C5 H2 1_555 1_555
C6 C2 1_555 1_555
H3 C6 1_555 1_555
C7 C1 1_555 1_555
N1 N2 1_555 1_555
N2 N3 1_555 1_555
N3 N4 1_555 1_555
O1 C7 1_555 1_555
O2 C7 1_555 1_555
N4 C3 1_555 1_555
O3 Cd1 1_555 1_555
C8 C1 1_555 1_555
H4 C8 1_555 1_555
H5 O3 1_555 1_555
H6 O3 1_555 1_555
Cd1B O1 1_555 1_555
Cd1A N3 1_555 1_555
Cd1C N4 1_555 1_555
N3A Cd1 1_555 1_555
O1B Cd1 1_555 1_555
O2B Cd1 1_555 1_555
N4C Cd1 1_555 1_555
C4 C8 1_555 1_555
C5 C6 1_555 1_555
O2 Cd1B 1_555 1_555

#END
