
#######################################################################
#
#                 Cambridge Crystallographic Data Centre
#                                CCDC 
#
#######################################################################
#
# If this CIF has been generated from an entry in the Cambridge 
# Structural Database, then it will include bibliographic, chemical, 
# crystal, experimental, refinement or atomic coordinate data resulting 
# from the CCDC's data processing and validation procedures.
#
#######################################################################

data_LARCUE
_symmetry_cell_setting           monoclinic
_symmetry_space_group_name_H-M   'P 21'
_symmetry_Int_Tables_number      4
_space_group_name_Hall           'P 2yb'
loop_
_symmetry_equiv_pos_site_id
_symmetry_equiv_pos_as_xyz
1 x,y,z
2 -x,1/2+y,-z
_cell_length_a                   11.2309(6)
_cell_length_b                   23.8183(12)
_cell_length_c                   20.3932(11)
_cell_angle_alpha                90
_cell_angle_beta                 102.308(5)
_cell_angle_gamma                90
_cell_volume                     5329.82
loop_
_atom_site_label
_atom_site_type_symbol
_atom_site_fract_x
_atom_site_fract_y
_atom_site_fract_z
Dy1 Dy -0.02048(5) -0.35990(5) 0.09494(3)
Dy2 Dy -0.12302(5) -0.41197(5) -0.07013(3)
Dy3 Dy -0.09497(5) -0.26715(5) -0.04146(3)
Cu1 Cu 0.42671(14) -0.35652(9) 0.00220(9)
C1 C -0.1722(14) -0.1262(7) -0.0108(8)
O1 O -0.0929(9) -0.1710(5) 0.0128(5)
C2 C -0.0280(14) -0.1667(6) 0.0813(8)
C3 C -0.0001(14) -0.1164(9) 0.1148(9)
C4 C 0.0601(16) -0.1200(9) 0.1827(10)
C5 C 0.0871(16) -0.1698(9) 0.2131(9)
C6 C 0.0548(12) -0.2212(6) 0.1795(7)
C7 C -0.0012(12) -0.2189(6) 0.1131(7)
O2 O -0.0336(8) -0.2650(4) 0.0748(5)
C8 C 0.0698(15) -0.2708(7) 0.2178(10)
O3 O 0.0433(10) -0.3177(6) 0.2026(5)
C9 C -0.151(2) -0.4687(9) -0.2325(11)
O4 O -0.1826(10) -0.4218(5) -0.1963(6)
C10 C -0.2178(12) -0.3728(6) -0.2340(7)
C11 C -0.2687(16) -0.3717(8) -0.3035(9)
C12 C -0.2939(14) -0.3178(8) -0.3351(8)
C13 C -0.2724(13) -0.2697(8) -0.2977(8)
C14 C -0.2256(12) -0.2730(7) -0.2288(8)
C15 C -0.1943(9) -0.3244(6) -0.1955(6)
O5 O -0.1574(8) -0.3288(4) -0.1283(5)
C16 C -0.1975(12) -0.2168(8) -0.1974(7)
O6 O -0.1554(10) -0.2102(4) -0.1357(5)
C17 C 0.195(2) -0.4545(12) 0.2040(11)
O7 O 0.0912(13) -0.4489(7) 0.1517(7)
C18 C 0.0274(15) -0.5018(8) 0.1248(9)
C19 C 0.050(3) -0.5547(9) 0.1585(13)
C20 C -0.021(3) -0.6026(9) 0.1253(15)
C21 C -0.097(2) -0.5964(9) 0.0677(18)
C22 C -0.1061(18) -0.5445(8) 0.0317(10)
C23 C -0.0435(12) -0.4980(6) 0.0664(8)
O8 O -0.0617(10) -0.4448(4) 0.0389(6)
C24 C -0.1848(18) -0.5428(9) -0.0332(13)
O9 O -0.1999(13) -0.5068(5) -0.0713(9)
N1 N -0.2200(9) -0.3803(5) 0.1664(5)
O10 O -0.1399(10) -0.4153(5) 0.1616(6)
O11 O -0.2136(10) -0.3330(5) 0.1386(6)
O12 O -0.3032(11) -0.3895(6) 0.1940(6)
N2 N 0.1051(11) -0.4532(5) -0.1101(7)
O13 O 0.0353(10) -0.4804(5) -0.0806(6)
O14 O 0.0738(10) -0.4048(5) -0.1275(7)
O15 O 0.2000(10) -0.4726(5) -0.1200(6)
N3 N 0.1463(10) -0.2425(5) -0.0690(6)
O16 O 0.1122(8) -0.2276(5) -0.0181(5)
O17 O 0.0625(11) -0.2659(6) -0.1112(5)
O18 O 0.2482(9) -0.2364(5) -0.0779(7)
N4 N -0.3722(12) -0.2439(5) -0.0137(8)
O19 O -0.3081(10) -0.2438(5) -0.0578(6)
O20 O -0.3242(11) -0.2433(5) 0.0446(6)
O21 O -0.4881(11) -0.2465(8) -0.0362(8)
O22 O -0.1765(6) -0.3461(4) 0.0033(4)
O23 O 0.0226(7) -0.3501(4) -0.0123(4)
O24 O -0.3358(8) -0.4125(5) -0.0986(6)
C25 C -0.4233(13) -0.3924(6) -0.0785(8)
O25 O -0.4182(8) -0.3737(5) -0.0200(5)
C26 C -0.5517(12) -0.3942(6) -0.1280(7)
C27 C -0.5399(15) -0.3736(7) -0.1937(8)
C28 C -0.5127(15) -0.3118(10) -0.1954(9)
C29 C -0.6526(17) -0.3910(10) -0.2478(11)
N5 N -0.6366(10) -0.3655(5) -0.0952(6)
O26 O 0.2703(9) -0.3440(5) 0.0249(5)
C30 C 0.2753(13) -0.3393(7) 0.0891(8)
O27 O 0.1887(9) -0.3443(6) 0.1163(5)
C31 C 0.3987(14) -0.3289(9) 0.1352(8)
C32 C 0.3903(16) -0.2753(16) 0.1766(11)
C33 C 0.364(3) -0.2233(14) 0.1283(14)
C34 C 0.5073(18) -0.2708(13) 0.2282(12)
N6 N 0.4931(11) -0.3222(8) 0.0933(7)
O28 O 0.4191(12) -0.4487(6) 0.0382(9)
C35 C 0.3198(19) -0.4807(9) 0.0497(10)
H1 H -0.2139 -0.1341 -0.0563
H2 H -0.2313 -0.1217 0.0169
H3 H -0.1261 -0.0922 -0.0102
H4 H -0.0207 -0.0815 0.0936
H5 H 0.0830 -0.0874 0.2076
H6 H 0.1280 -0.1702 0.2582
H7 H 0.1099 -0.2658 0.2632
H8 H -0.1028 -0.4949 -0.2021
H9 H -0.2235 -0.4861 -0.2584
H10 H -0.1015 -0.4546 -0.2641
H11 H -0.2871 -0.4043 -0.3281
H12 H -0.3249 -0.3151 -0.3811
H13 H -0.2888 -0.2354 -0.3188
H14 H -0.2133 -0.1848 -0.2251
H15 H 0.2368 -0.4181 0.2134
H16 H 0.1723 -0.4666 0.2449
H17 H 0.2517 -0.4807 0.1926
H18 H -0.0120 -0.6380 0.1459
H19 H -0.1512 -0.6260 0.0472
H20 H -0.5781 -0.4338 -0.1331
H21 H -0.4691 -0.3926 -0.2049
H22 H -0.4861 -0.3024 -0.2361
H23 H -0.5866 -0.2901 -0.1947
H24 H -0.4505 -0.3012 -0.1573
H25 H -0.6383 -0.3834 -0.2922
H26 H -0.6687 -0.4303 -0.2441
H27 H -0.7223 -0.3697 -0.2420
H28 H 0.4210 -0.3613 0.1662
H29 H 0.3216 -0.2794 0.1992
H30 H 0.4051 -0.1894 0.1482
H31 H 0.2771 -0.2140 0.1157
H32 H 0.3907 -0.2294 0.0863
H33 H 0.5038 -0.2410 0.2600
H34 H 0.5214 -0.3062 0.2537
H35 H 0.5756 -0.2650 0.2077
H73 H -0.2325 -0.5767 -0.0475
H74 H 0.3458 -0.5174 0.0647
H75 H 0.2597 -0.4835 0.0090
H76 H 0.2841 -0.4629 0.0828
H77 H 0.4992 -0.4608 0.0596
H78 H 0.1046 -0.3518 -0.0181
H79 H -0.2584 -0.3451 0.0094
H85 H 0.1077 -0.5587 0.1997
H90 H -0.7106 -0.3865 -0.1022
H91 H -0.6531 -0.3294 -0.1150
H92 H 0.5669 -0.3403 0.1143
H93 H 0.5094 -0.2830 0.0884
Cu1_2 Cu -0.57329(14) -0.35652(9) 0.00220(9)
O25_2 O 0.5818(8) -0.3737(5) -0.0200(5)
N5_2 N 0.3634(10) -0.3655(5) -0.0952(6)
H90_2 H 0.2894 -0.3865 -0.1022
H91_2 H 0.3469 -0.3294 -0.1150
Dy4 Dy 0.06984(5) -0.55058(5) -0.44170(3)
Dy5 Dy -0.01755(6) -0.61175(5) -0.60222(3)
Dy6 Dy 0.06519(7) -0.69738(5) -0.45793(4)
Cu2 Cu 0.52984(17) -0.57389(12) -0.50849(9)
C36 C 0.163(2) -0.7855(11) -0.3203(11)
O29 O 0.1294(17) -0.7309(5) -0.3360(7)
C37 C 0.1695(15) -0.6919(8) -0.2856(7)
C38 C 0.2253(18) -0.7020(8) -0.2194(8)
C39 C 0.2584(18) -0.6569(9) -0.1766(8)
C40 C 0.2309(16) -0.6035(8) -0.1979(8)
C41 C 0.1803(14) -0.5926(7) -0.2656(8)
C42 C 0.1519(12) -0.6360(7) -0.3080(7)
O30 O 0.0982(10) -0.6311(6) -0.3746(5)
C43 C 0.1551(15) -0.5328(9) -0.2771(9)
O31 O 0.1111(11) -0.5131(6) -0.3323(6)
C44 C -0.191(2) -0.6699(9) -0.7544(9)
O32 O -0.1101(11) -0.6814(5) -0.6919(6)
C45 C -0.0710(14) -0.7376(7) -0.6830(8)
C46 C -0.0803(14) -0.7813(9) -0.7290(7)
C47 C -0.0435(17) -0.8355(9) -0.7115(11)
C48 C 0.0023(17) -0.8486(6) -0.6453(9)
C49 C 0.0150(13) -0.8048(6) -0.5957(8)
C50 C -0.0201(11) -0.7501(5) -0.6169(7)
O33 O -0.0014(11) -0.7059(5) -0.5715(6)
C51 C 0.0676(19) -0.8202(10) -0.5292(9)
O34 O 0.0785(17) -0.7942(6) -0.4789(8)
C52 C 0.232(2) -0.4230(9) -0.4251(10)
O35 O 0.1400(12) -0.4556(5) -0.4703(5)
C53 C 0.1124(13) -0.4358(6) -0.5361(7)
C54 C 0.1385(18) -0.3848(7) -0.5594(10)
C55 C 0.104(2) -0.3716(7) -0.6269(10)
C56 C 0.0368(18) -0.4066(7) -0.6701(9)
C57 C 0.0057(13) -0.4604(6) -0.6466(7)
C58 C 0.0375(15) -0.4768(6) -0.5764(8)
O36 O 0.0120(8) -0.5231(5) -0.5529(5)
C59 C -0.0553(14) -0.4991(7) -0.6994(8)
O37 O -0.0726(10) -0.5488(5) -0.6924(5)
N7 N -0.1629(13) -0.5045(6) -0.4146(7)
O38 O -0.1276(11) -0.5520(6) -0.3894(6)
O39 O -0.0955(11) -0.4796(5) -0.4473(6)
O40 O -0.2596(12) -0.4849(6) -0.4077(7)
N8 N 0.1970(11) -0.6036(5) -0.6672(5)
O41 O 0.1240(10) -0.6459(5) -0.6712(6)
O42 O 0.1831(10) -0.5649(4) -0.6288(5)
O43 O 0.2777(10) -0.6023(6) -0.6984(7)
N9 N -0.1672(12) -0.7170(5) -0.4198(6)
O44 O -0.1414(16) -0.7393(5) -0.4683(8)
O45 O -0.0917(16) -0.6923(5) -0.3817(8)
O46 O -0.2781(15) -0.7208(5) -0.4091(8)
O47 O 0.2791(14) -0.7156(7) -0.4456(10)
O48 O -0.0636(8) -0.6199(4) -0.4955(5)
O49 O 0.1416(7) -0.6201(4) -0.5082(4)
O50 O -0.2275(9) -0.5992(4) -0.6220(5)
C60 C -0.3152(13) -0.5842(6) -0.5956(7)
O51 O -0.3155(9) -0.5900(5) -0.5333(5)
C61 C -0.4264(11) -0.5587(7) -0.6390(7)
C62 C -0.3922(17) -0.5102(9) -0.6852(9)
C63 C -0.503(2) -0.4880(11) -0.7311(10)
C64 C -0.3229(15) -0.4656(8) -0.6428(12)
N10 N -0.5113(12) -0.5395(7) -0.5966(8)
O52 O 0.3816(10) -0.5499(8) -0.4813(6)
C65 C 0.3737(14) -0.5597(11) -0.4217(9)
O53 O 0.2823(10) -0.5513(6) -0.4012(6)
C66 C 0.4772(13) -0.5923(8) -0.3797(8)
C67 C 0.5082(18) -0.5668(11) -0.3070(9)
C68 C 0.5249(18) -0.5041(9) -0.3074(11)
C69 C 0.613(2) -0.5977(11) -0.2655(11)
N11 N 0.5796(13) -0.5942(10) -0.4113(8)
O54 O 0.4466(15) -0.6755(11) -0.5587(9)
H36 H 0.1265 -0.8104 -0.3563
H37 H 0.2519 -0.7890 -0.3140
H38 H 0.1397 -0.7966 -0.2797
H39 H 0.2402 -0.7392 -0.2038
H40 H 0.3014 -0.6635 -0.1327
H41 H 0.2452 -0.5737 -0.1671
H42 H 0.1728 -0.5082 -0.2401
H43 H -0.2267 -0.6327 -0.7528
H44 H -0.1455 -0.6701 -0.7895
H45 H -0.2541 -0.6970 -0.7638
H46 H -0.1127 -0.7730 -0.7744
H47 H -0.0496 -0.8627 -0.7456
H48 H 0.0258 -0.8857 -0.6329
H49 H 0.1002 -0.8574 -0.5233
H50 H 0.2472 -0.4391 -0.3813
H51 H 0.3054 -0.4210 -0.4413
H52 H 0.1993 -0.3854 -0.4231
H53 H 0.1789 -0.3579 -0.5291
H54 H 0.1305 -0.3378 -0.6431
H55 H 0.0084 -0.3966 -0.7157
H56 H -0.0845 -0.4838 -0.7418
H57 H -0.4686 -0.5885 -0.6689
H58 H -0.3383 -0.5269 -0.7130
H59 H -0.4829 -0.4727 -0.7713
H60 H -0.5601 -0.5197 -0.7448
H61 H -0.5424 -0.4606 -0.7093
H62 H -0.3035 -0.4355 -0.6706
H63 H -0.2478 -0.4796 -0.6154
H64 H -0.3714 -0.4500 -0.6134
H65 H 0.4481 -0.6315 -0.3765
H66 H 0.4390 -0.5740 -0.2850
H67 H 0.5566 -0.4910 -0.2620
H68 H 0.4479 -0.4859 -0.3248
H69 H 0.5819 -0.4947 -0.3348
H70 H 0.6180 -0.5912 -0.2182
H71 H 0.6070 -0.6372 -0.2739
H72 H 0.6881 -0.5841 -0.2764
H80 H -0.1462 -0.6202 -0.4908
H81 H 0.2241 -0.6196 -0.5131
H82 H 0.3853 -0.6994 -0.5845
H83 H 0.5146 -0.7004 -0.5385
H84 H 0.2961 -0.7189 -0.4905
H86 H 0.6126 -0.6318 -0.4073
H87 H 0.6411 -0.5693 -0.3891
H88 H -0.5928 -0.5492 -0.6178
H89 H -0.5062 -0.4995 -0.5919
Cu2_2 Cu -0.47016(17) -0.57389(12) -0.50849(9)
O51_2 O 0.6845(9) -0.5900(5) -0.5333(5)
N10_2 N 0.4887(12) -0.5395(7) -0.5966(8)
H88_2 H 0.4072 -0.5492 -0.6178
H89_2 H 0.4938 -0.4995 -0.5919
loop_
_geom_bond_atom_site_label_1
_geom_bond_atom_site_label_2
_geom_bond_site_symmetry_1
_geom_bond_site_symmetry_2
Dy1 O2 1_555 1_555
Dy2 O4 1_555 1_555
Dy3 O1 1_555 1_555
Dy4 O30 1_555 1_555
Dy5 O32 1_555 1_555
Dy6 O29 1_555 1_555
Cu1 O26 1_555 1_555
Cu2 O52 1_555 1_555
C1 O1 1_555 1_555
O1 C2 1_555 1_555
C2 C3 1_555 1_555
C3 C4 1_555 1_555
C4 C5 1_555 1_555
C5 C6 1_555 1_555
C6 C7 1_555 1_555
C7 C2 1_555 1_555
O2 Dy3 1_555 1_555
C8 C6 1_555 1_555
O3 Dy1 1_555 1_555
C9 O4 1_555 1_555
O4 C10 1_555 1_555
C10 C11 1_555 1_555
C11 C12 1_555 1_555
C12 C13 1_555 1_555
C13 C14 1_555 1_555
C14 C15 1_555 1_555
C15 C10 1_555 1_555
O5 Dy2 1_555 1_555
C16 C14 1_555 1_555
O6 Dy3 1_555 1_555
C17 O7 1_555 1_555
O7 Dy1 1_555 1_555
C18 O7 1_555 1_555
C19 C18 1_555 1_555
C20 C19 1_555 1_555
C21 C20 1_555 1_555
C22 C21 1_555 1_555
C23 C18 1_555 1_555
O8 Dy1 1_555 1_555
C24 C22 1_555 1_555
O9 Dy2 1_555 1_555
N1 O10 1_555 1_555
O10 Dy1 1_555 1_555
O11 Dy1 1_555 1_555
O12 N1 1_555 1_555
N2 O13 1_555 1_555
O13 Dy2 1_555 1_555
O14 Dy2 1_555 1_555
O15 N2 1_555 1_555
N3 O16 1_555 1_555
O16 Dy3 1_555 1_555
O17 Dy3 1_555 1_555
O18 N3 1_555 1_555
N4 O19 1_555 1_555
O19 Dy3 1_555 1_555
O20 N4 1_555 1_555
O21 N4 1_555 1_555
O22 Dy1 1_555 1_555
O23 Dy1 1_555 1_555
O24 Dy2 1_555 1_555
C25 O24 1_555 1_555
O25 C25 1_555 1_555
C26 C25 1_555 1_555
C27 C26 1_555 1_555
C28 C27 1_555 1_555
C29 C27 1_555 1_555
N5 C26 1_555 1_555
O26 C30 1_555 1_555
C30 O27 1_555 1_555
O27 Dy1 1_555 1_555
C31 C30 1_555 1_555
C32 C31 1_555 1_555
C33 C32 1_555 1_555
C34 C32 1_555 1_555
N6 Cu1 1_555 1_555
O28 Cu1 1_555 1_555
C35 O28 1_555 1_555
C36 O29 1_555 1_555
O29 C37 1_555 1_555
C37 C38 1_555 1_555
C38 C39 1_555 1_555
C39 C40 1_555 1_555
C40 C41 1_555 1_555
C41 C42 1_555 1_555
C42 C37 1_555 1_555
O30 Dy6 1_555 1_555
C43 C41 1_555 1_555
O31 Dy4 1_555 1_555
C44 O32 1_555 1_555
O32 C45 1_555 1_555
C45 C46 1_555 1_555
C46 C47 1_555 1_555
C47 C48 1_555 1_555
C48 C49 1_555 1_555
C49 C50 1_555 1_555
C50 C45 1_555 1_555
O33 Dy5 1_555 1_555
C51 C49 1_555 1_555
O34 Dy6 1_555 1_555
C52 O35 1_555 1_555
O35 Dy4 1_555 1_555
C53 O35 1_555 1_555
C54 C53 1_555 1_555
C55 C54 1_555 1_555
C56 C55 1_555 1_555
C57 C56 1_555 1_555
C58 C53 1_555 1_555
O36 Dy4 1_555 1_555
C59 C57 1_555 1_555
O37 Dy5 1_555 1_555
N7 O38 1_555 1_555
O38 Dy4 1_555 1_555
O39 Dy4 1_555 1_555
O40 N7 1_555 1_555
N8 O41 1_555 1_555
O41 Dy5 1_555 1_555
O42 Dy5 1_555 1_555
O43 N8 1_555 1_555
N9 O44 1_555 1_555
O44 Dy6 1_555 1_555
O45 Dy6 1_555 1_555
O46 N9 1_555 1_555
O47 Dy6 1_555 1_555
O48 Dy4 1_555 1_555
O49 Dy4 1_555 1_555
O50 Dy5 1_555 1_555
C60 O50 1_555 1_555
O51 C60 1_555 1_555
C61 C60 1_555 1_555
C62 C61 1_555 1_555
C63 C62 1_555 1_555
C64 C62 1_555 1_555
N10 C61 1_555 1_555
O52 C65 1_555 1_555
C65 O53 1_555 1_555
O53 Dy4 1_555 1_555
C66 C65 1_555 1_555
C67 C66 1_555 1_555
C68 C67 1_555 1_555
C69 C67 1_555 1_555
N11 Cu2 1_555 1_555
O54 Cu2 1_555 1_555
H1 C1 1_555 1_555
H2 C1 1_555 1_555
H3 C1 1_555 1_555
H4 C3 1_555 1_555
H5 C4 1_555 1_555
H6 C5 1_555 1_555
H7 C8 1_555 1_555
H8 C9 1_555 1_555
H9 C9 1_555 1_555
H10 C9 1_555 1_555
H11 C11 1_555 1_555
H12 C12 1_555 1_555
H13 C13 1_555 1_555
H14 C16 1_555 1_555
H15 C17 1_555 1_555
H16 C17 1_555 1_555
H17 C17 1_555 1_555
H18 C20 1_555 1_555
H19 C21 1_555 1_555
H20 C26 1_555 1_555
H21 C27 1_555 1_555
H22 C28 1_555 1_555
H23 C28 1_555 1_555
H24 C28 1_555 1_555
H25 C29 1_555 1_555
H26 C29 1_555 1_555
H27 C29 1_555 1_555
H28 C31 1_555 1_555
H29 C32 1_555 1_555
H30 C33 1_555 1_555
H31 C33 1_555 1_555
H32 C33 1_555 1_555
H33 C34 1_555 1_555
H34 C34 1_555 1_555
H35 C34 1_555 1_555
H36 C36 1_555 1_555
H37 C36 1_555 1_555
H38 C36 1_555 1_555
H39 C38 1_555 1_555
H40 C39 1_555 1_555
H41 C40 1_555 1_555
H42 C43 1_555 1_555
H43 C44 1_555 1_555
H44 C44 1_555 1_555
H45 C44 1_555 1_555
H46 C46 1_555 1_555
H47 C47 1_555 1_555
H48 C48 1_555 1_555
H49 C51 1_555 1_555
H50 C52 1_555 1_555
H51 C52 1_555 1_555
H52 C52 1_555 1_555
H53 C54 1_555 1_555
H54 C55 1_555 1_555
H55 C56 1_555 1_555
H56 C59 1_555 1_555
H57 C61 1_555 1_555
H58 C62 1_555 1_555
H59 C63 1_555 1_555
H60 C63 1_555 1_555
H61 C63 1_555 1_555
H62 C64 1_555 1_555
H63 C64 1_555 1_555
H64 C64 1_555 1_555
H65 C66 1_555 1_555
H66 C67 1_555 1_555
H67 C68 1_555 1_555
H68 C68 1_555 1_555
H69 C68 1_555 1_555
H70 C69 1_555 1_555
H71 C69 1_555 1_555
H72 C69 1_555 1_555
H73 C24 1_555 1_555
H74 C35 1_555 1_555
H75 C35 1_555 1_555
H76 C35 1_555 1_555
H77 O28 1_555 1_555
H78 O23 1_555 1_555
H79 O22 1_555 1_555
H80 O48 1_555 1_555
H81 O49 1_555 1_555
H82 O54 1_555 1_555
H83 O54 1_555 1_555
H84 O47 1_555 1_555
H85 C19 1_555 1_555
H86 N11 1_555 1_555
H87 N11 1_555 1_555
H88 N10 1_555 1_555
H89 N10 1_555 1_555
H90 N5 1_555 1_555
H91 N5 1_555 1_555
H92 N6 1_555 1_555
H93 N6 1_555 1_555
Cu1_2 O25 1_555 1_555
Cu2_2 O51 1_555 1_555
O25_2 Cu1 1_555 1_555
N5_2 Cu1 1_555 1_555
O51_2 Cu2 1_555 1_555
N10_2 Cu2 1_555 1_555
H88_2 N10_2 1_555 1_555
H89_2 N10_2 1_555 1_555
H90_2 N5_2 1_555 1_555
H91_2 N5_2 1_555 1_555
Dy2 O8 1_555 1_555
Dy2 O22 1_555 1_555
Dy2 O23 1_555 1_555
Dy3 O5 1_555 1_555
Dy3 O22 1_555 1_555
Dy3 O23 1_555 1_555
Dy5 O36 1_555 1_555
Dy5 O48 1_555 1_555
Dy5 O49 1_555 1_555
Dy6 O33 1_555 1_555
Dy6 O48 1_555 1_555
Dy6 O49 1_555 1_555
C7 O2 1_555 1_555
C8 O3 1_555 1_555
C15 O5 1_555 1_555
C16 O6 1_555 1_555
C22 C23 1_555 1_555
C23 O8 1_555 1_555
C24 O9 1_555 1_555
N1 O11 1_555 1_555
N2 O14 1_555 1_555
N3 O17 1_555 1_555
N5 Cu1_2 1_555 1_555
C31 N6 1_555 1_555
C42 O30 1_555 1_555
C43 O31 1_555 1_555
C50 O33 1_555 1_555
C51 O34 1_555 1_555
C57 C58 1_555 1_555
C58 O36 1_555 1_555
C59 O37 1_555 1_555
N7 O39 1_555 1_555
N8 O42 1_555 1_555
N9 O45 1_555 1_555
N10 Cu2_2 1_555 1_555
C66 N11 1_555 1_555

#END
