
#######################################################################
#
#                 Cambridge Crystallographic Data Centre
#                                CCDC 
#
#######################################################################
#
# If this CIF has been generated from an entry in the Cambridge 
# Structural Database, then it will include bibliographic, chemical, 
# crystal, experimental, refinement or atomic coordinate data resulting 
# from the CCDC's data processing and validation procedures.
#
#######################################################################

data_LARCIR01
_symmetry_cell_setting           triclinic
_symmetry_space_group_name_H-M   'P -1'
_symmetry_Int_Tables_number      2
_space_group_name_Hall           '-P 1'
loop_
_symmetry_equiv_pos_site_id
_symmetry_equiv_pos_as_xyz
1 x,y,z
2 -x,-y,-z
_cell_length_a                   6.2687(8)
_cell_length_b                   7.8594(11)
_cell_length_c                   8.0612(11)
_cell_angle_alpha                75.166(2)
_cell_angle_beta                 76.621(2)
_cell_angle_gamma                68.327(2)
_cell_volume                     352.62
loop_
_atom_site_label
_atom_site_type_symbol
_atom_site_fract_x
_atom_site_fract_y
_atom_site_fract_z
Ag1 Ag 0.21956(5) 0.64660(4) 0.39556(4)
N1 N 0.6488(5) 0.7281(4) 0.1152(4)
N2 N 0.5966(5) 0.6313(4) 0.2732(4)
N3 N 0.7858(5) 0.5469(4) 0.3470(4)
N4 N 0.9654(5) 0.5876(4) 0.2398(4)
N5 N 0.9847(5) 1.0367(4) -0.3009(4)
C1 C 0.8748(6) 0.6986(4) 0.0996(4)
C2 C 1.0039(6) 0.7869(4) -0.0534(4)
C3 C 1.2426(6) 0.7261(5) -0.0891(5)
H1 H 1.3297 0.6234 -0.0176
C4 C 1.3517(7) 0.8197(6) -0.2328(5)
H2 H 1.5128 0.7804 -0.2600
C5 C 1.2170(7) 0.9717(5) -0.3343(5)
H3 H 1.2910 1.0328 -0.4316
C6 C 0.8813(6) 0.9441(5) -0.1627(4)
H4 H 0.7199 0.9864 -0.1384
Ag1A Ag 0.78044(5) 0.35340(4) 0.60444(4)
Ag1_2 Ag 1.21956(5) 0.64660(4) 0.39556(4)
Ag1A_2 Ag 0.78044(5) 1.35340(4) -0.39556(4)
N3A N 0.2142(5) 0.4531(4) 0.6530(4)
N4_2 N -0.0346(5) 0.5876(4) 0.2398(4)
N5A N 0.0153(5) 0.9633(4) 0.3009(4)
loop_
_geom_bond_atom_site_label_1
_geom_bond_atom_site_label_2
_geom_bond_site_symmetry_1
_geom_bond_site_symmetry_2
Ag1 N2 1_555 1_555
N1 N2 1_555 1_555
N2 N3 1_555 1_555
N3 N4 1_555 1_555
N4 C1 1_555 1_555
N5 C5 1_555 1_555
C1 N1 1_555 1_555
C2 C1 1_555 1_555
C3 C2 1_555 1_555
H1 C3 1_555 1_555
C4 C3 1_555 1_555
H2 C4 1_555 1_555
C5 C4 1_555 1_555
H3 C5 1_555 1_555
C6 N5 1_555 1_555
H4 C6 1_555 1_555
Ag1A N3 1_555 1_555
Ag1_2 N4 1_555 1_555
Ag1A_2 N5 1_555 1_555
N3A Ag1 1_555 1_555
N4_2 Ag1 1_555 1_555
N5A Ag1 1_555 1_555
C2 C6 1_555 1_555

#END
