
#######################################################################
#
#                 Cambridge Crystallographic Data Centre
#                                CCDC 
#
#######################################################################
#
# If this CIF has been generated from an entry in the Cambridge 
# Structural Database, then it will include bibliographic, chemical, 
# crystal, experimental, refinement or atomic coordinate data resulting 
# from the CCDC's data processing and validation procedures.
#
#######################################################################

data_LARCIR
_symmetry_cell_setting           triclinic
_symmetry_space_group_name_H-M   'P -1'
_symmetry_Int_Tables_number      2
_space_group_name_Hall           '-P 1'
loop_
_symmetry_equiv_pos_site_id
_symmetry_equiv_pos_as_xyz
1 x,y,z
2 -x,-y,-z
_cell_length_a                   6.2608(10)
_cell_length_b                   7.8498(13)
_cell_length_c                   8.0584(12)
_cell_angle_alpha                75.171(4)
_cell_angle_beta                 76.653(3)
_cell_angle_gamma                68.332(3)
_cell_volume                     351.674
loop_
_atom_site_label
_atom_site_type_symbol
_atom_site_fract_x
_atom_site_fract_y
_atom_site_fract_z
Ag1 Ag 0.21949(7) -0.35330(7) 0.39561(6)
C1 C -0.1256(8) -0.3013(7) 0.1001(6)
N1 N -0.3518(8) -0.2705(7) 0.1163(6)
C2 C 0.0029(8) -0.2121(6) -0.0535(6)
N2 N -0.0337(7) -0.4130(6) 0.2395(6)
C3 C 0.2430(8) -0.2737(7) -0.0886(7)
H1 H 0.3303 -0.3755 -0.0160
C4 C -0.1187(9) -0.0575(7) -0.1615(7)
H2 H -0.2802 -0.0159 -0.1374
C5 C 0.3511(9) -0.1811(9) -0.2335(8)
H3 H 0.5122 -0.2226 -0.2622
N3 N -0.0152(8) 0.0365(7) -0.3006(6)
C6 C 0.2179(10) -0.0279(8) -0.3341(7)
H4 H 0.2924 0.0345 -0.4302
N4 N -0.4025(7) -0.3688(7) 0.2735(6)
N5 N -0.2132(7) -0.4526(6) 0.3476(5)
Ag1_2 Ag -0.78051(7) -0.35330(7) 0.39561(6)
Ag1A Ag -0.21949(7) 0.35330(7) -0.39561(6)
Ag1A_2 Ag -0.21949(7) -0.64670(7) 0.60439(6)
N3A N 0.0152(8) -0.0365(7) 0.3006(6)
N4_2 N 0.5975(7) -0.3688(7) 0.2735(6)
N5A N 0.2132(7) -0.5474(6) 0.6524(5)
loop_
_geom_bond_atom_site_label_1
_geom_bond_atom_site_label_2
_geom_bond_site_symmetry_1
_geom_bond_site_symmetry_2
Ag1 N2 1_555 1_555
C1 N1 1_555 1_555
N1 N4 1_555 1_555
C2 C1 1_555 1_555
N2 C1 1_555 1_555
C3 C2 1_555 1_555
H1 C3 1_555 1_555
C4 C2 1_555 1_555
H2 C4 1_555 1_555
C5 C3 1_555 1_555
H3 C5 1_555 1_555
N3 C4 1_555 1_555
C6 C5 1_555 1_555
H4 C6 1_555 1_555
N4 N5 1_555 1_555
N5 N2 1_555 1_555
Ag1_2 N4 1_555 1_555
Ag1A N3 1_555 1_555
Ag1A_2 N5 1_555 1_555
N3A Ag1 1_555 1_555
N4_2 Ag1 1_555 1_555
N5A Ag1 1_555 1_555
N3 C6 1_555 1_555

#END
