
#######################################################################
#
#                 Cambridge Crystallographic Data Centre
#                                CCDC 
#
#######################################################################
#
# If this CIF has been generated from an entry in the Cambridge 
# Structural Database, then it will include bibliographic, chemical, 
# crystal, experimental, refinement or atomic coordinate data resulting 
# from the CCDC's data processing and validation procedures.
#
#######################################################################

data_LARDEP
_symmetry_cell_setting           monoclinic
_symmetry_space_group_name_H-M   'P 21'
_symmetry_Int_Tables_number      4
_space_group_name_Hall           'P 2yb'
loop_
_symmetry_equiv_pos_site_id
_symmetry_equiv_pos_as_xyz
1 x,y,z
2 -x,1/2+y,-z
_cell_length_a                   11.259(5)
_cell_length_b                   24.017(5)
_cell_length_c                   20.506(5)
_cell_angle_alpha                90
_cell_angle_beta                 101.793(5)
_cell_angle_gamma                90
_cell_volume                     5427.93
loop_
_atom_site_label
_atom_site_type_symbol
_atom_site_fract_x
_atom_site_fract_y
_atom_site_fract_z
Dy1 Dy -0.01640(5) -0.35706(7) 0.09618(3)
Dy2 Dy -0.11737(6) -0.41214(7) -0.06533(3)
Dy3 Dy -0.09206(5) -0.26753(7) -0.04108(3)
Cu1 Cu 0.42914(13) -0.35497(11) 0.00257(9)
C1 C -0.1737(17) -0.1267(7) -0.0119(9)
O1 O -0.0947(10) -0.1695(6) 0.0139(6)
C2 C -0.0284(14) -0.1668(7) 0.0782(9)
C3 C -0.0001(15) -0.1165(7) 0.1151(9)
C4 C 0.0599(18) -0.1201(10) 0.1806(10)
C5 C 0.0813(17) -0.1694(10) 0.2117(10)
C6 C 0.0499(14) -0.2224(9) 0.1784(8)
C7 C -0.0041(10) -0.2176(6) 0.1090(7)
O2 O -0.0316(7) -0.2633(5) 0.0735(4)
C8 C 0.0682(14) -0.2691(10) 0.2174(9)
O3 O 0.0425(10) -0.3146(6) 0.2015(5)
C9 C -0.173(2) -0.4680(10) -0.2258(12)
O4 O -0.1758(12) -0.4209(7) -0.1898(7)
C10 C -0.2097(11) -0.3743(7) -0.2290(8)
C11 C -0.2553(17) -0.3735(10) -0.2956(9)
C12 C -0.2797(18) -0.3199(10) -0.3279(9)
C13 C -0.2585(15) -0.2739(9) -0.2920(8)
C14 C -0.2135(11) -0.2761(7) -0.2222(7)
C15 C -0.1905(10) -0.3267(6) -0.1920(7)
O5 O -0.1513(8) -0.3304(4) -0.1256(5)
C16 C -0.1904(13) -0.2245(9) -0.1916(9)
O6 O -0.1465(12) -0.2109(5) -0.1352(5)
C17 C 0.201(3) -0.4461(16) 0.2089(14)
O7 O 0.0990(13) -0.4443(7) 0.1550(7)
C18 C 0.032(2) -0.5001(11) 0.1308(11)
C19 C 0.055(2) -0.5522(11) 0.1594(12)
C20 C -0.022(2) -0.5975(10) 0.1242(13)
C21 C -0.096(2) -0.5910(10) 0.0683(13)
C22 C -0.100(2) -0.5421(9) 0.0376(12)
C23 C -0.0365(16) -0.4943(8) 0.0719(9)
O8 O -0.0513(11) -0.4429(5) 0.0432(6)
C24 C -0.172(2) -0.5385(11) -0.0242(15)
O9 O -0.1906(15) -0.5048(7) -0.0618(10)
N1 N -0.2145(11) -0.3764(7) 0.1683(7)
O10 O -0.1312(10) -0.4088(6) 0.1667(6)
O11 O -0.2129(9) -0.3312(4) 0.1368(5)
O12 O -0.2981(12) -0.3862(6) 0.1972(6)
N2 N 0.1074(11) -0.4534(6) -0.1079(7)
O13 O 0.0371(9) -0.4798(5) -0.0800(6)
O14 O 0.0810(10) -0.4061(5) -0.1215(6)
O15 O 0.1996(9) -0.4765(6) -0.1205(6)
N3 N 0.1499(11) -0.2413(5) -0.0706(7)
O16 O 0.1105(9) -0.2247(5) -0.0211(5)
O17 O 0.0715(12) -0.2693(7) -0.1102(6)
O18 O 0.2484(11) -0.2334(6) -0.0809(7)
N4 N -0.3702(11) -0.2433(6) -0.0170(7)
O19 O -0.3042(9) -0.2457(5) -0.0613(6)
O20 O -0.3221(10) -0.2427(5) 0.0433(6)
O21 O -0.4847(10) -0.2469(8) -0.0373(7)
O22 O -0.1729(6) -0.3456(4) 0.0056(4)
O23 O 0.0249(7) -0.3479(5) -0.0108(4)
O24 O -0.3304(8) -0.4126(5) -0.0948(6)
C25 C -0.4188(13) -0.3939(8) -0.0770(9)
O25 O -0.4150(7) -0.3732(5) -0.0173(5)
C26 C -0.5431(12) -0.3954(8) -0.1231(9)
C27 C -0.5343(13) -0.3782(10) -0.1946(9)
C28 C -0.5074(16) -0.3191(10) -0.1975(9)
C29 C -0.6472(19) -0.3940(14) -0.2416(12)
N5 N -0.6307(9) -0.3657(6) -0.0929(6)
O26 O 0.2740(7) -0.3411(4) 0.0255(5)
C30 C 0.2776(12) -0.3360(7) 0.0883(7)
O27 O 0.1919(8) -0.3393(6) 0.1148(5)
C31 C 0.4005(15) -0.3215(12) 0.1316(11)
C32 C 0.3979(19) -0.2655(14) 0.1681(12)
C33 C 0.356(2) -0.2172(14) 0.1234(13)
C34 C 0.503(2) -0.2575(15) 0.2166(13)
N6 N 0.4942(11) -0.3210(8) 0.0921(7)
O28 O 0.4144(14) -0.4494(6) 0.0345(7)
C35 C 0.315(2) -0.4773(10) 0.0509(11)
H1 H -0.1971 -0.1316 -0.0593
H2 H -0.2439 -0.1273 0.0074
H3 H -0.1317 -0.0917 -0.0025
H4 H -0.0237 -0.0825 0.0952
H5 H 0.0891 -0.0864 0.2019
H6 H 0.1154 -0.1682 0.2566
H7 H -0.2713 -0.4064 -0.3194
H8 H -0.3087 -0.3176 -0.3738
H9 H -0.2733 -0.2397 -0.3121
H10 H -0.2159 -0.1939 -0.2203
H11 H 0.2180 -0.4085 0.2256
H12 H 0.1859 -0.4692 0.2444
H13 H 0.2712 -0.4599 0.1939
H14 H 0.1126 -0.5604 0.1977
H15 H -0.0122 -0.6323 0.1418
H16 H -0.1468 -0.6199 0.0511
H17 H -0.5691 -0.4341 -0.1246
H18 H -0.4660 -0.3979 -0.2066
H19 H -0.6387 -0.3872 -0.2861
H20 H -0.6631 -0.4323 -0.2351
H21 H -0.7148 -0.3719 -0.2324
H22 H 0.4207 -0.3508 0.1662
H23 H 0.3727 -0.1848 0.1494
H24 H 0.2719 -0.2218 0.1070
H25 H 0.3998 -0.2178 0.0886
H26 H 0.4806 -0.2378 0.2548
H27 H 0.5395 -0.2919 0.2322
H28 H 0.5585 -0.2340 0.1995
H54 H 0.1060 -0.2641 0.2622
H55 H -0.2163 -0.5677 -0.0349
H56 H -0.1500 -0.4988 -0.1956
H57 H -0.2517 -0.4748 -0.2531
H58 H -0.1142 -0.4636 -0.2536
H59 H -0.4551 -0.3079 -0.1554
H60 H -0.4656 -0.3125 -0.2333
H61 H -0.5819 -0.2986 -0.2041
H62 H 0.3340 -0.2704 0.1931
H63 H 0.3294 -0.5167 0.0520
H64 H 0.2434 -0.4695 0.0179
H65 H 0.3024 -0.4656 0.0937
H78 H 0.4857 -0.4457 0.0586
H81 H -0.2438 -0.3459 0.0101
H84 H 0.1060 -0.3493 -0.0170
H90 H -0.7054 -0.3856 -0.1003
H91 H -0.6459 -0.3297 -0.1141
H92 H 0.5637 -0.3412 0.1146
H93 H 0.5188 -0.2831 0.0867
Cu1_2 Cu -0.57086(13) -0.35497(11) 0.00257(9)
O25_2 O 0.5850(7) -0.3732(5) -0.0173(5)
N5_2 N 0.3693(9) -0.3657(6) -0.0929(6)
H90_2 H 0.2946 -0.3856 -0.1003
H91_2 H 0.3541 -0.3297 -0.1141
Dy4 Dy 0.07722(7) -0.55465(7) -0.44213(4)
Dy5 Dy -0.01319(6) -0.61135(7) -0.60287(3)
Dy6 Dy 0.06510(8) -0.69961(7) -0.46221(5)
Cu2 Cu 0.53625(18) -0.57344(16) -0.50931(10)
C36 C 0.160(2) -0.7819(13) -0.3191(12)
O29 O 0.1341(16) -0.7345(10) -0.3443(8)
C37 C 0.168(2) -0.6947(12) -0.2895(10)
C38 C 0.2181(18) -0.7047(12) -0.2225(10)
C39 C 0.2469(19) -0.6609(12) -0.1804(10)
C40 C 0.2276(17) -0.6078(11) -0.2008(9)
C41 C 0.1790(14) -0.5964(9) -0.2694(8)
C42 C 0.1525(14) -0.6422(10) -0.3127(8)
O30 O 0.1039(11) -0.6350(7) -0.3783(5)
C43 C 0.1573(19) -0.5348(10) -0.2820(10)
O31 O 0.1205(12) -0.5163(7) -0.3334(6)
C44 C -0.173(3) -0.6697(13) -0.7549(11)
O32 O -0.1061(15) -0.6791(8) -0.6934(7)
C45 C -0.0707(18) -0.7420(10) -0.6827(11)
C46 C -0.0829(15) -0.7801(11) -0.7289(10)
C47 C -0.0541(19) -0.8351(12) -0.7124(14)
C48 C -0.0053(17) -0.8487(12) -0.6483(13)
C49 C 0.0140(17) -0.8054(9) -0.5948(10)
C50 C -0.0187(14) -0.7493(8) -0.6175(10)
O33 O -0.0005(11) -0.7056(6) -0.5759(6)
C51 C 0.061(3) -0.8175(13) -0.5294(13)
O34 O 0.0845(17) -0.7943(7) -0.4828(8)
C52 C 0.228(2) -0.4218(12) -0.4312(12)
O35 O 0.1481(11) -0.4572(7) -0.4705(7)
C53 C 0.1142(14) -0.4357(8) -0.5344(9)
C54 C 0.1421(18) -0.3854(9) -0.5561(12)
C55 C 0.103(2) -0.3719(9) -0.6280(10)
C56 C 0.0364(19) -0.4074(9) -0.6664(10)
C57 C 0.0108(18) -0.4622(9) -0.6452(9)
C58 C 0.0442(16) -0.4754(8) -0.5750(9)
O36 O 0.0171(10) -0.5252(5) -0.5518(6)
C59 C -0.059(2) -0.4989(8) -0.6976(12)
O37 O -0.0670(13) -0.5462(7) -0.6894(7)
N7 N -0.1511(18) -0.5067(11) -0.4089(10)
O38 O -0.1128(13) -0.5579(8) -0.3886(7)
O39 O -0.0836(14) -0.4838(8) -0.4406(8)
O40 O -0.2427(14) -0.4884(8) -0.3995(9)
N8 N 0.2030(11) -0.6044(6) -0.6682(6)
O41 O 0.1278(13) -0.6454(6) -0.6715(7)
O42 O 0.1862(12) -0.5642(6) -0.6312(6)
O43 O 0.2835(11) -0.6028(6) -0.6972(7)
N9 N -0.1669(16) -0.7167(13) -0.4224(12)
O44 O -0.1400(18) -0.7402(11) -0.4755(13)
O45 O -0.091(2) -0.6936(12) -0.3839(14)
O46 O -0.281(2) -0.7215(12) -0.4104(14)
O47 O 0.2827(16) -0.7166(10) -0.4468(13)
O48 O -0.0561(8) -0.6203(5) -0.4974(5)
O49 O 0.1457(8) -0.6227(5) -0.5105(4)
O50 O -0.2245(9) -0.5957(6) -0.6220(5)
C60 C -0.3065(14) -0.5832(8) -0.5936(8)
O51 O -0.3083(10) -0.5873(7) -0.5340(5)
C61 C -0.4211(15) -0.5563(10) -0.6384(8)
C62 C -0.386(2) -0.5079(11) -0.6836(10)
C63 C -0.497(2) -0.4882(13) -0.7290(10)
C64 C -0.328(3) -0.4585(11) -0.6431(14)
N10 N -0.5078(13) -0.5385(8) -0.5961(8)
O52 O 0.3899(12) -0.5486(9) -0.4791(7)
C65 C 0.3805(16) -0.5649(13) -0.4269(10)
O53 O 0.2876(10) -0.5566(8) -0.4037(6)
C66 C 0.4824(15) -0.5947(11) -0.3848(9)
C67 C 0.5133(17) -0.5718(12) -0.3124(9)
C68 C 0.522(2) -0.5124(14) -0.3063(13)
C69 C 0.620(2) -0.6016(16) -0.2677(13)
N11 N 0.5883(19) -0.5941(13) -0.4160(12)
O54 O 0.4397(19) -0.6638(8) -0.5530(11)
H29 H 0.2302 -0.7403 -0.2057
H30 H 0.2812 -0.6677 -0.1358
H31 H 0.2436 -0.5779 -0.1710
H32 H -0.1108 -0.7720 -0.7735
H33 H -0.0667 -0.8636 -0.7439
H34 H 0.0174 -0.8843 -0.6389
H35 H 0.2394 -0.4319 -0.3860
H36 H 0.3057 -0.4233 -0.4453
H37 H 0.1973 -0.3844 -0.4381
H38 H 0.1856 -0.3586 -0.5264
H39 H 0.1225 -0.3394 -0.6461
H40 H 0.0035 -0.3983 -0.7102
H41 H -0.4618 -0.5856 -0.6685
H42 H -0.3284 -0.5229 -0.7101
H43 H -0.4772 -0.4718 -0.7672
H44 H -0.5502 -0.5202 -0.7424
H45 H -0.5385 -0.4626 -0.7059
H46 H -0.3309 -0.4269 -0.6732
H47 H -0.2441 -0.4666 -0.6242
H48 H -0.3709 -0.4501 -0.6091
H49 H 0.4590 -0.6334 -0.3819
H50 H 0.4428 -0.5827 -0.2926
H51 H 0.6199 -0.5899 -0.2209
H52 H 0.6145 -0.6404 -0.2731
H53 H 0.6939 -0.5858 -0.2802
H66 H 0.4502 -0.4957 -0.3306
H67 H 0.5913 -0.5006 -0.3234
H68 H 0.5338 -0.5029 -0.2599
H69 H 0.1271 -0.8101 -0.3573
H70 H 0.2478 -0.7888 -0.3101
H71 H 0.1253 -0.7919 -0.2834
H72 H -0.2207 -0.6345 -0.7554
H73 H -0.1251 -0.6674 -0.7878
H74 H -0.2340 -0.6998 -0.7669
H75 H 0.0782 -0.8558 -0.5212
H76 H 0.1757 -0.5108 -0.2460
H77 H -0.0950 -0.4836 -0.7390
H79 H 0.3526 -0.7102 -0.4232
H80 H -0.1248 -0.6201 -0.4812
H82 H 0.5047 -0.6763 -0.5262
H83 H 0.3608 -0.6737 -0.5663
H85 H 0.2270 -0.6229 -0.5161
H86 H -0.5889 -0.5481 -0.6171
H87 H -0.5048 -0.4983 -0.5911
H88 H 0.6257 -0.6306 -0.4125
H89 H 0.6481 -0.5684 -0.3934
Cu2_2 Cu -0.46375(18) -0.57344(16) -0.50931(10)
O51_2 O 0.6917(10) -0.5873(7) -0.5340(5)
N10_2 N 0.4922(13) -0.5385(8) -0.5961(8)
H86_2 H 0.4111 -0.5481 -0.6171
H87_2 H 0.4952 -0.4983 -0.5911
loop_
_geom_bond_atom_site_label_1
_geom_bond_atom_site_label_2
_geom_bond_site_symmetry_1
_geom_bond_site_symmetry_2
Dy1 O2 1_555 1_555
Dy2 O4 1_555 1_555
Dy3 O1 1_555 1_555
Dy4 O30 1_555 1_555
Dy5 O32 1_555 1_555
Dy6 O29 1_555 1_555
Cu1 O26 1_555 1_555
Cu2 O52 1_555 1_555
C1 O1 1_555 1_555
O1 C2 1_555 1_555
C2 C3 1_555 1_555
C3 C4 1_555 1_555
C4 C5 1_555 1_555
C5 C6 1_555 1_555
C6 C7 1_555 1_555
C7 C2 1_555 1_555
O2 Dy3 1_555 1_555
C8 C6 1_555 1_555
O3 Dy1 1_555 1_555
C9 O4 1_555 1_555
O4 C10 1_555 1_555
C10 C11 1_555 1_555
C11 C12 1_555 1_555
C12 C13 1_555 1_555
C13 C14 1_555 1_555
C14 C15 1_555 1_555
C15 C10 1_555 1_555
O5 Dy2 1_555 1_555
C16 C14 1_555 1_555
O6 Dy3 1_555 1_555
C17 O7 1_555 1_555
O7 Dy1 1_555 1_555
C18 O7 1_555 1_555
C19 C18 1_555 1_555
C20 C19 1_555 1_555
C21 C20 1_555 1_555
C22 C21 1_555 1_555
C23 C18 1_555 1_555
O8 Dy1 1_555 1_555
C24 C22 1_555 1_555
O9 Dy2 1_555 1_555
N1 O10 1_555 1_555
O10 Dy1 1_555 1_555
O11 Dy1 1_555 1_555
O12 N1 1_555 1_555
N2 O13 1_555 1_555
O13 Dy2 1_555 1_555
O14 Dy2 1_555 1_555
O15 N2 1_555 1_555
N3 O16 1_555 1_555
O16 Dy3 1_555 1_555
O17 Dy3 1_555 1_555
O18 N3 1_555 1_555
N4 O19 1_555 1_555
O19 Dy3 1_555 1_555
O20 N4 1_555 1_555
O21 N4 1_555 1_555
O22 Dy1 1_555 1_555
O23 Dy1 1_555 1_555
O24 Dy2 1_555 1_555
C25 O24 1_555 1_555
O25 C25 1_555 1_555
C26 C25 1_555 1_555
C27 C26 1_555 1_555
C28 C27 1_555 1_555
C29 C27 1_555 1_555
N5 C26 1_555 1_555
O26 C30 1_555 1_555
C30 O27 1_555 1_555
O27 Dy1 1_555 1_555
C31 C30 1_555 1_555
C32 C31 1_555 1_555
C33 C32 1_555 1_555
C34 C32 1_555 1_555
N6 Cu1 1_555 1_555
O28 Cu1 1_555 1_555
C35 O28 1_555 1_555
C36 O29 1_555 1_555
O29 C37 1_555 1_555
C37 C38 1_555 1_555
C38 C39 1_555 1_555
C39 C40 1_555 1_555
C40 C41 1_555 1_555
C41 C42 1_555 1_555
C42 C37 1_555 1_555
O30 Dy6 1_555 1_555
C43 C41 1_555 1_555
O31 Dy4 1_555 1_555
C44 O32 1_555 1_555
O32 C45 1_555 1_555
C45 C46 1_555 1_555
C46 C47 1_555 1_555
C47 C48 1_555 1_555
C48 C49 1_555 1_555
C49 C50 1_555 1_555
C50 C45 1_555 1_555
O33 Dy5 1_555 1_555
C51 C49 1_555 1_555
O34 Dy6 1_555 1_555
C52 O35 1_555 1_555
O35 Dy4 1_555 1_555
C53 O35 1_555 1_555
C54 C53 1_555 1_555
C55 C54 1_555 1_555
C56 C55 1_555 1_555
C57 C56 1_555 1_555
C58 C53 1_555 1_555
O36 Dy4 1_555 1_555
C59 C57 1_555 1_555
O37 Dy5 1_555 1_555
N7 O38 1_555 1_555
O38 Dy4 1_555 1_555
O39 Dy4 1_555 1_555
O40 N7 1_555 1_555
N8 O41 1_555 1_555
O41 Dy5 1_555 1_555
O42 Dy5 1_555 1_555
O43 N8 1_555 1_555
N9 O44 1_555 1_555
O44 Dy6 1_555 1_555
O45 Dy6 1_555 1_555
O46 N9 1_555 1_555
O47 Dy6 1_555 1_555
O48 Dy4 1_555 1_555
O49 Dy4 1_555 1_555
O50 Dy5 1_555 1_555
C60 O50 1_555 1_555
O51 C60 1_555 1_555
C61 C60 1_555 1_555
C62 C61 1_555 1_555
C63 C62 1_555 1_555
C64 C62 1_555 1_555
N10 C61 1_555 1_555
O52 C65 1_555 1_555
C65 O53 1_555 1_555
O53 Dy4 1_555 1_555
C66 C65 1_555 1_555
C67 C66 1_555 1_555
C68 C67 1_555 1_555
C69 C67 1_555 1_555
N11 Cu2 1_555 1_555
O54 Cu2 1_555 1_555
H1 C1 1_555 1_555
H2 C1 1_555 1_555
H3 C1 1_555 1_555
H4 C3 1_555 1_555
H5 C4 1_555 1_555
H6 C5 1_555 1_555
H7 C11 1_555 1_555
H8 C12 1_555 1_555
H9 C13 1_555 1_555
H10 C16 1_555 1_555
H11 C17 1_555 1_555
H12 C17 1_555 1_555
H13 C17 1_555 1_555
H14 C19 1_555 1_555
H15 C20 1_555 1_555
H16 C21 1_555 1_555
H17 C26 1_555 1_555
H18 C27 1_555 1_555
H19 C29 1_555 1_555
H20 C29 1_555 1_555
H21 C29 1_555 1_555
H22 C31 1_555 1_555
H23 C33 1_555 1_555
H24 C33 1_555 1_555
H25 C33 1_555 1_555
H26 C34 1_555 1_555
H27 C34 1_555 1_555
H28 C34 1_555 1_555
H29 C38 1_555 1_555
H30 C39 1_555 1_555
H31 C40 1_555 1_555
H32 C46 1_555 1_555
H33 C47 1_555 1_555
H34 C48 1_555 1_555
H35 C52 1_555 1_555
H36 C52 1_555 1_555
H37 C52 1_555 1_555
H38 C54 1_555 1_555
H39 C55 1_555 1_555
H40 C56 1_555 1_555
H41 C61 1_555 1_555
H42 C62 1_555 1_555
H43 C63 1_555 1_555
H44 C63 1_555 1_555
H45 C63 1_555 1_555
H46 C64 1_555 1_555
H47 C64 1_555 1_555
H48 C64 1_555 1_555
H49 C66 1_555 1_555
H50 C67 1_555 1_555
H51 C69 1_555 1_555
H52 C69 1_555 1_555
H53 C69 1_555 1_555
H54 C8 1_555 1_555
H55 C24 1_555 1_555
H56 C9 1_555 1_555
H57 C9 1_555 1_555
H58 C9 1_555 1_555
H59 C28 1_555 1_555
H60 C28 1_555 1_555
H61 C28 1_555 1_555
H62 C32 1_555 1_555
H63 C35 1_555 1_555
H64 C35 1_555 1_555
H65 C35 1_555 1_555
H66 C68 1_555 1_555
H67 C68 1_555 1_555
H68 C68 1_555 1_555
H69 C36 1_555 1_555
H70 C36 1_555 1_555
H71 C36 1_555 1_555
H72 C44 1_555 1_555
H73 C44 1_555 1_555
H74 C44 1_555 1_555
H75 C51 1_555 1_555
H76 C43 1_555 1_555
H77 C59 1_555 1_555
H78 O28 1_555 1_555
H79 O47 1_555 1_555
H80 O48 1_555 1_555
H81 O22 1_555 1_555
H82 O54 1_555 1_555
H83 O54 1_555 1_555
H84 O23 1_555 1_555
H85 O49 1_555 1_555
H86 N10 1_555 1_555
H87 N10 1_555 1_555
H88 N11 1_555 1_555
H89 N11 1_555 1_555
H90 N5 1_555 1_555
H91 N5 1_555 1_555
H92 N6 1_555 1_555
H93 N6 1_555 1_555
Cu1_2 O25 1_555 1_555
Cu2_2 O51 1_555 1_555
O25_2 Cu1 1_555 1_555
N5_2 Cu1 1_555 1_555
O51_2 Cu2 1_555 1_555
N10_2 Cu2 1_555 1_555
H86_2 N10_2 1_555 1_555
H87_2 N10_2 1_555 1_555
H90_2 N5_2 1_555 1_555
H91_2 N5_2 1_555 1_555
Dy2 O8 1_555 1_555
Dy2 O22 1_555 1_555
Dy2 O23 1_555 1_555
Dy3 O5 1_555 1_555
Dy3 O22 1_555 1_555
Dy3 O23 1_555 1_555
Dy5 O36 1_555 1_555
Dy5 O48 1_555 1_555
Dy5 O49 1_555 1_555
Dy6 O33 1_555 1_555
Dy6 O48 1_555 1_555
Dy6 O49 1_555 1_555
C7 O2 1_555 1_555
C8 O3 1_555 1_555
C15 O5 1_555 1_555
C16 O6 1_555 1_555
C22 C23 1_555 1_555
C23 O8 1_555 1_555
C24 O9 1_555 1_555
N1 O11 1_555 1_555
N2 O14 1_555 1_555
N3 O17 1_555 1_555
N5 Cu1_2 1_555 1_555
C31 N6 1_555 1_555
C42 O30 1_555 1_555
C43 O31 1_555 1_555
C50 O33 1_555 1_555
C51 O34 1_555 1_555
C57 C58 1_555 1_555
C58 O36 1_555 1_555
C59 O37 1_555 1_555
N7 O39 1_555 1_555
N8 O42 1_555 1_555
N9 O45 1_555 1_555
N10 Cu2_2 1_555 1_555
C66 N11 1_555 1_555

#END
