
#######################################################################
#
#                 Cambridge Crystallographic Data Centre
#                                CCDC 
#
#######################################################################
#
# If this CIF has been generated from an entry in the Cambridge 
# Structural Database, then it will include bibliographic, chemical, 
# crystal, experimental, refinement or atomic coordinate data resulting 
# from the CCDC's data processing and validation procedures.
#
#######################################################################

data_LARDIT
_symmetry_cell_setting           monoclinic
_symmetry_space_group_name_H-M   'P 21'
_symmetry_Int_Tables_number      4
_space_group_name_Hall           'P 2yb'
loop_
_symmetry_equiv_pos_site_id
_symmetry_equiv_pos_as_xyz
1 x,y,z
2 -x,1/2+y,-z
_cell_length_a                   11.36
_cell_length_b                   24.00
_cell_length_c                   20.66
_cell_angle_alpha                90
_cell_angle_beta                 101.98799(10)
_cell_angle_gamma                90
_cell_volume                     5509.9
loop_
_atom_site_label
_atom_site_type_symbol
_atom_site_fract_x
_atom_site_fract_y
_atom_site_fract_z
Y1 Y 0.0201(2) 0.35860(16) -0.09475(14)
Y2 Y 0.1242(2) 0.41212(16) 0.06744(14)
Y3 Y 0.0961(2) 0.26742(15) 0.04107(14)
Cu1 Cu -0.4255(3) 0.35653(18) -0.00221(17)
C1 C 0.165(3) 0.1272(14) 0.0149(15)
O1 O 0.0990(18) 0.1712(9) -0.0099(10)
C2 C 0.034(2) 0.1652(13) -0.0823(14)
C3 C -0.001(2) 0.1155(15) -0.1159(14)
C4 C -0.064(3) 0.1212(17) -0.1837(17)
C5 C -0.084(3) 0.1696(14) -0.2107(16)
C6 C -0.049(2) 0.2215(12) -0.1784(14)
C7 C 0.006(2) 0.2190(12) -0.1090(14)
O2 O 0.0343(15) 0.2620(9) -0.0741(9)
C8 C -0.060(3) 0.2720(15) -0.2091(17)
O3 O -0.0450(19) 0.3198(11) -0.2013(11)
C9 C 0.165(4) 0.467(2) 0.230(2)
O4 O 0.1833(19) 0.4232(10) 0.1926(11)
C10 C 0.217(2) 0.3733(13) 0.2306(15)
C11 C 0.261(3) 0.3700(16) 0.2985(17)
C12 C 0.292(3) 0.3182(14) 0.3294(16)
C13 C 0.271(3) 0.2716(16) 0.2975(15)
C14 C 0.222(2) 0.2730(14) 0.2237(14)
C15 C 0.200(2) 0.3251(13) 0.1936(15)
O5 O 0.1593(15) 0.3283(8) 0.1259(9)
C16 C 0.200(3) 0.2225(15) 0.1963(17)
O6 O 0.1548(18) 0.2111(10) 0.1342(11)
C17 C -0.188(4) 0.447(2) -0.203(2)
O7 O -0.0849(18) 0.4510(9) -0.1533(10)
C18 C -0.036(3) 0.5003(14) -0.1274(16)
C19 C -0.045(3) 0.5568(17) -0.1562(19)
C20 C 0.031(3) 0.6032(17) -0.1235(19)
C21 C 0.102(4) 0.5929(18) -0.064(2)
C22 C 0.109(3) 0.5405(16) -0.0316(17)
C23 C 0.040(3) 0.4968(14) -0.0698(16)
O8 O 0.0562(16) 0.4449(9) -0.0401(10)
C24 C 0.185(3) 0.537(2) 0.032(2)
O9 O 0.199(2) 0.5049(11) 0.0692(13)
N1 N 0.212(2) 0.3790(12) -0.1651(14)
O10 O 0.1343(19) 0.4152(11) -0.1614(11)
O11 O 0.2144(17) 0.3326(9) -0.1362(10)
O12 O 0.2990(18) 0.3905(9) -0.1962(11)
N2 N -0.101(2) 0.4490(12) 0.1104(12)
O13 O -0.0323(17) 0.4783(9) 0.0810(10)
O14 O -0.0779(17) 0.4036(9) 0.1283(10)
O15 O -0.1929(18) 0.4766(9) 0.1211(10)
N3 N -0.141(2) 0.2414(10) 0.0680(12)
O16 O -0.1071(16) 0.2277(8) 0.0184(10)
O17 O -0.0613(18) 0.2676(10) 0.1094(10)
O18 O -0.2410(19) 0.2336(10) 0.0797(11)
N4 N 0.369(2) 0.2421(10) 0.0138(13)
O19 O 0.3068(16) 0.2445(8) 0.0565(9)
O20 O 0.324(2) 0.2413(10) -0.0441(12)
O21 O 0.489(2) 0.2473(12) 0.0339(14)
O22 O 0.1759(14) 0.3458(8) -0.0058(9)
O23 O -0.0171(13) 0.3494(7) 0.0122(8)
O24 O 0.3371(18) 0.4111(10) 0.0981(10)
C25 C 0.423(2) 0.3941(12) 0.0736(14)
O25 O 0.4214(16) 0.3747(7) 0.0190(9)
C26 C 0.552(2) 0.3936(13) 0.1236(13)
C27 C 0.538(3) 0.3731(15) 0.1927(18)
C28 C 0.508(3) 0.3147(14) 0.1941(16)
C29 C 0.650(3) 0.3928(19) 0.245(2)
N5 N 0.6352(17) 0.3649(10) 0.0944(11)
O26 O -0.2711(13) 0.3444(7) -0.0248(8)
C30 C -0.273(2) 0.3367(12) -0.0868(14)
O27 O -0.1857(15) 0.3437(8) -0.1143(9)
C31 C -0.396(3) 0.3277(14) -0.1347(16)
C32 C -0.396(3) 0.2733(16) -0.1726(16)
C33 C -0.358(4) 0.2209(19) -0.129(2)
C34 C -0.506(3) 0.261(2) -0.220(2)
N6 N -0.490(2) 0.3232(10) -0.0911(11)
O28 O -0.416(2) 0.4516(11) -0.0360(12)
C35 C -0.316(3) 0.4840(16) -0.0469(17)
H1 H 0.2063 0.1351 0.0604
H2 H 0.2238 0.1228 -0.0127
H3 H 0.1185 0.0932 0.0144
H4 H 0.0192 0.0805 -0.0947
H5 H -0.0870 0.0885 -0.2086
H6 H -0.1248 0.1699 -0.2558
H7 H -0.1003 0.2669 -0.2545
H8 H 0.2797 0.4027 0.3231
H9 H 0.3229 0.3156 0.3753
H10 H 0.2874 0.2373 0.3186
H11 H 0.2154 0.1905 0.2240
H12 H -0.2299 0.4101 -0.2126
H13 H -0.1654 0.4586 -0.2441
H14 H -0.2447 0.4727 -0.1918
H15 H 0.0222 0.6385 -0.1441
H16 H 0.1561 0.6225 -0.0432
H17 H 0.5788 0.4332 0.1287
H18 H 0.4673 0.3921 0.2039
H19 H 0.4818 0.3053 0.2347
H20 H 0.5823 0.2930 0.1933
H21 H 0.4462 0.3042 0.1559
H22 H 0.6359 0.3853 0.2897
H23 H 0.6663 0.4322 0.2416
H24 H 0.7200 0.3716 0.2395
H25 H -0.4182 0.3600 -0.1656
H26 H -0.3272 0.2773 -0.1952
H27 H -0.5025 0.2312 -0.2523
H28 H -0.5201 0.2964 -0.2460
H29 H -0.5743 0.2552 -0.2000
H67 H 0.2325 0.5714 0.0466
H68 H -0.3417 0.5206 -0.0619
H69 H -0.2556 0.4867 -0.0062
H70 H -0.2800 0.4662 -0.0800
H71 H -0.4959 0.4638 -0.0574
H72 H -0.0991 0.3511 0.0179
H73 H 0.2578 0.3448 -0.0118
H79 H -0.1022 0.5608 -0.1974
H80 H -0.3638 0.1877 -0.1543
H81 H -0.2765 0.2281 -0.1093
H82 H -0.4034 0.2168 -0.0953
H83 H 0.1422 0.4974 0.2013
H84 H 0.2431 0.4731 0.2564
H85 H 0.1091 0.4632 0.2588
H86 H -0.5611 0.3434 -0.1150
H87 H -0.5155 0.2853 -0.0878
H88 H 0.7101 0.3860 0.0971
H89 H 0.6513 0.3304 0.1120
Cu1_2 Cu 0.5745(3) 0.35653(18) -0.00221(17)
O25_2 O -0.5786(16) 0.3747(7) 0.0190(9)
N5_2 N -0.3648(17) 0.3649(10) 0.0944(11)
H88_2 H -0.2899 0.3860 0.0971
H89_2 H -0.3487 0.3304 0.1120
Y4 Y -0.0722(2) 0.55324(16) 0.44275(14)
Y5 Y 0.0198(2) 0.61107(16) 0.60297(14)
Y6 Y -0.0636(3) 0.69888(17) 0.46277(17)
Cu2 Cu -0.5313(3) 0.5724(2) 0.50881(19)
C36 C -0.168(4) 0.7883(16) 0.315(2)
O29 O -0.132(3) 0.7360(14) 0.3420(16)
C37 C -0.163(3) 0.6938(16) 0.2904(17)
C38 C -0.220(3) 0.7061(15) 0.2242(15)
C39 C -0.248(3) 0.6616(14) 0.1831(17)
C40 C -0.229(3) 0.6088(17) 0.2010(17)
C41 C -0.168(3) 0.5978(14) 0.2688(16)
C42 C -0.144(3) 0.6422(16) 0.3120(19)
O30 O -0.0942(17) 0.6326(9) 0.3787(10)
C43 C -0.148(3) 0.5419(17) 0.286(2)
O31 O -0.120(2) 0.5134(13) 0.3333(15)
C44 C 0.184(4) 0.6721(19) 0.754(2)
O32 O 0.112(2) 0.6820(10) 0.6952(12)
C45 C 0.074(3) 0.7391(15) 0.6834(17)
C46 C 0.079(3) 0.7790(15) 0.7303(18)
C47 C 0.045(2) 0.8347(14) 0.7144(16)
C48 C -0.001(3) 0.8452(17) 0.6527(18)
C49 C -0.016(3) 0.8047(17) 0.5970(19)
C50 C 0.021(3) 0.7470(14) 0.6198(16)
O33 O 0.0089(18) 0.7068(10) 0.5748(12)
C51 C -0.062(3) 0.8150(18) 0.531(2)
O34 O -0.083(2) 0.7933(12) 0.4812(14)
C52 C -0.217(3) 0.4205(19) 0.427(2)
O35 O -0.1397(19) 0.4571(10) 0.4707(11)
C53 C -0.113(2) 0.4338(12) 0.5366(13)
C54 C -0.144(3) 0.3865(16) 0.5576(18)
C55 C -0.104(3) 0.3734(16) 0.6279(18)
C56 C -0.034(3) 0.4117(15) 0.6696(16)
C57 C -0.008(3) 0.4631(14) 0.6480(16)
C58 C -0.044(3) 0.4724(15) 0.5750(17)
O36 O -0.0095(16) 0.5223(9) 0.5534(10)
C59 C 0.061(2) 0.4998(14) 0.6965(15)
O37 O 0.069(2) 0.5469(11) 0.6883(11)
N7 N 0.158(2) 0.5071(12) 0.4116(14)
O38 O 0.1294(18) 0.5551(10) 0.3910(10)
O39 O 0.0908(19) 0.4824(10) 0.4457(11)
O40 O 0.253(2) 0.4855(11) 0.4059(12)
N8 N -0.202(2) 0.6039(12) 0.6653(13)
O41 O -0.1261(18) 0.6431(9) 0.6715(10)
O42 O -0.1813(18) 0.5631(10) 0.6312(11)
O43 O -0.2793(16) 0.6030(8) 0.6968(10)
N9 N 0.151(2) 0.7120(7) 0.4102(13)
O44 O 0.140(3) 0.7385(8) 0.4624(14)
O45 O 0.061(3) 0.6903(9) 0.3745(15)
O46 O 0.257(3) 0.7079(9) 0.3942(16)
O47 O -0.279(3) 0.7171(15) 0.4409(18)
O48 O 0.0599(13) 0.6196(7) 0.4951(8)
O49 O -0.1392(15) 0.6209(9) 0.5100(9)
O50 O 0.2311(16) 0.5961(8) 0.6214(9)
C60 C 0.314(2) 0.5821(12) 0.5950(14)
O51 O 0.3130(17) 0.5862(8) 0.5317(10)
C61 C 0.423(3) 0.5528(15) 0.6374(16)
C62 C 0.388(3) 0.5064(16) 0.6837(18)
C63 C 0.497(3) 0.4860(18) 0.7297(17)
C64 C 0.326(3) 0.4599(15) 0.6457(16)
N10 N 0.511(2) 0.5390(10) 0.5967(11)
O52 O -0.386(2) 0.5458(11) 0.4828(12)
C65 C -0.372(3) 0.5610(14) 0.4241(16)
O53 O -0.2780(19) 0.5530(10) 0.4044(11)
C66 C -0.481(3) 0.5927(13) 0.3810(15)
C67 C -0.511(3) 0.5700(13) 0.3078(15)
C68 C -0.517(4) 0.5087(19) 0.311(2)
C69 C -0.606(3) 0.5974(18) 0.267(2)
N11 N -0.581(3) 0.5920(15) 0.4149(19)
H30 H -0.1316 0.8132 0.3511
H31 H -0.2570 0.7918 0.3087
H32 H -0.1448 0.7994 0.2744
H33 H -0.2352 0.7433 0.2085
H34 H -0.2913 0.6682 0.1392
H35 H -0.2436 0.5790 0.1702
H36 H -0.1658 0.5173 0.2488
H37 H 0.2206 0.6350 0.7529
H38 H 0.1395 0.6724 0.7895
H39 H 0.2481 0.6993 0.7638
H40 H 0.1118 0.7707 0.7757
H41 H 0.0508 0.8619 0.7486
H42 H -0.0245 0.8823 0.6403
H43 H -0.0943 0.8522 0.5249
H44 H -0.2326 0.4365 0.3832
H45 H -0.2908 0.4185 0.4431
H46 H -0.1847 0.3828 0.4249
H47 H -0.1847 0.3596 0.5273
H48 H -0.1304 0.3397 0.6441
H49 H -0.0056 0.4018 0.7151
H50 H 0.0904 0.4845 0.7389
H51 H 0.4654 0.5826 0.6674
H52 H 0.3346 0.5230 0.7115
H53 H 0.4769 0.4707 0.7699
H54 H 0.5541 0.5176 0.7434
H55 H 0.5364 0.4585 0.7079
H56 H 0.3069 0.4298 0.6735
H57 H 0.2512 0.4739 0.6183
H58 H 0.3748 0.4443 0.6163
H59 H -0.4519 0.6320 0.3777
H60 H -0.4413 0.5773 0.2859
H61 H -0.5486 0.4957 0.2656
H62 H -0.4399 0.4905 0.3284
H63 H -0.5739 0.4993 0.3384
H64 H -0.6115 0.5909 0.2196
H65 H -0.6005 0.6368 0.2753
H66 H -0.6816 0.5838 0.2779
H74 H 0.1425 0.6199 0.4904
H75 H -0.2217 0.6204 0.5149
H78 H -0.2959 0.7204 0.4858
H90 H 0.5887 0.5476 0.6188
H91 H 0.5050 0.4979 0.5927
H92 H -0.6210 0.6289 0.4089
H93 H -0.6369 0.5662 0.3912
Cu2_2 Cu 0.4687(3) 0.5724(2) 0.50881(19)
O51_2 O -0.6870(17) 0.5862(8) 0.5317(10)
N10_2 N -0.489(2) 0.5390(10) 0.5967(11)
H90_2 H -0.4113 0.5476 0.6188
H91_2 H -0.4950 0.4979 0.5927
O54 O 0.540(2) 0.6853(12) 0.5547(14)
H76 H 0.6009 0.7093 0.5805
H77 H 0.4716 0.7102 0.5345
loop_
_geom_bond_atom_site_label_1
_geom_bond_atom_site_label_2
_geom_bond_site_symmetry_1
_geom_bond_site_symmetry_2
Y1 O2 1_555 1_555
Y2 O4 1_555 1_555
Y3 O1 1_555 1_555
Y4 O30 1_555 1_555
Y5 O32 1_555 1_555
Y6 O29 1_555 1_555
Cu1 O26 1_555 1_555
Cu2 O52 1_555 1_555
C1 O1 1_555 1_555
O1 C2 1_555 1_555
C2 C3 1_555 1_555
C3 C4 1_555 1_555
C4 C5 1_555 1_555
C5 C6 1_555 1_555
C6 C7 1_555 1_555
C7 C2 1_555 1_555
O2 Y3 1_555 1_555
C8 C6 1_555 1_555
O3 Y1 1_555 1_555
C9 O4 1_555 1_555
O4 C10 1_555 1_555
C10 C11 1_555 1_555
C11 C12 1_555 1_555
C12 C13 1_555 1_555
C13 C14 1_555 1_555
C14 C15 1_555 1_555
C15 C10 1_555 1_555
O5 Y2 1_555 1_555
C16 C14 1_555 1_555
O6 Y3 1_555 1_555
C17 O7 1_555 1_555
O7 Y1 1_555 1_555
C18 O7 1_555 1_555
C19 C18 1_555 1_555
C20 C19 1_555 1_555
C21 C20 1_555 1_555
C22 C21 1_555 1_555
C23 C18 1_555 1_555
O8 Y1 1_555 1_555
C24 C22 1_555 1_555
O9 Y2 1_555 1_555
N1 O10 1_555 1_555
O10 Y1 1_555 1_555
O11 Y1 1_555 1_555
O12 N1 1_555 1_555
N2 O13 1_555 1_555
O13 Y2 1_555 1_555
O14 Y2 1_555 1_555
O15 N2 1_555 1_555
N3 O16 1_555 1_555
O16 Y3 1_555 1_555
O17 Y3 1_555 1_555
O18 N3 1_555 1_555
N4 O19 1_555 1_555
O19 Y3 1_555 1_555
O20 N4 1_555 1_555
O21 N4 1_555 1_555
O22 Y1 1_555 1_555
O23 Y1 1_555 1_555
O24 Y2 1_555 1_555
C25 O24 1_555 1_555
O25 C25 1_555 1_555
C26 C25 1_555 1_555
C27 C26 1_555 1_555
C28 C27 1_555 1_555
C29 C27 1_555 1_555
N5 C26 1_555 1_555
O26 C30 1_555 1_555
C30 O27 1_555 1_555
O27 Y1 1_555 1_555
C31 C30 1_555 1_555
C32 C31 1_555 1_555
C33 C32 1_555 1_555
C34 C32 1_555 1_555
N6 Cu1 1_555 1_555
O28 Cu1 1_555 1_555
C35 O28 1_555 1_555
C36 O29 1_555 1_555
O29 C37 1_555 1_555
C37 C38 1_555 1_555
C38 C39 1_555 1_555
C39 C40 1_555 1_555
C40 C41 1_555 1_555
C41 C42 1_555 1_555
C42 C37 1_555 1_555
O30 Y6 1_555 1_555
C43 C41 1_555 1_555
O31 Y4 1_555 1_555
C44 O32 1_555 1_555
O32 C45 1_555 1_555
C45 C46 1_555 1_555
C46 C47 1_555 1_555
C47 C48 1_555 1_555
C48 C49 1_555 1_555
C49 C50 1_555 1_555
C50 C45 1_555 1_555
O33 Y5 1_555 1_555
C51 C49 1_555 1_555
O34 Y6 1_555 1_555
C52 O35 1_555 1_555
O35 Y4 1_555 1_555
C53 O35 1_555 1_555
C54 C53 1_555 1_555
C55 C54 1_555 1_555
C56 C55 1_555 1_555
C57 C56 1_555 1_555
C58 C53 1_555 1_555
O36 Y4 1_555 1_555
C59 C57 1_555 1_555
O37 Y5 1_555 1_555
N7 O38 1_555 1_555
O38 Y4 1_555 1_555
O39 Y4 1_555 1_555
O40 N7 1_555 1_555
N8 O41 1_555 1_555
O41 Y5 1_555 1_555
O42 Y5 1_555 1_555
O43 N8 1_555 1_555
N9 O44 1_555 1_555
O44 Y6 1_555 1_555
O45 Y6 1_555 1_555
O46 N9 1_555 1_555
O47 Y6 1_555 1_555
O48 Y4 1_555 1_555
O49 Y4 1_555 1_555
O50 Y5 1_555 1_555
C60 O50 1_555 1_555
O51 C60 1_555 1_555
C61 C60 1_555 1_555
C62 C61 1_555 1_555
C63 C62 1_555 1_555
C64 C62 1_555 1_555
N10 C61 1_555 1_555
O52 C65 1_555 1_555
C65 O53 1_555 1_555
O53 Y4 1_555 1_555
C66 C65 1_555 1_555
C67 C66 1_555 1_555
C68 C67 1_555 1_555
C69 C67 1_555 1_555
N11 Cu2 1_555 1_555
O54 H76 1_555 1_555
H1 C1 1_555 1_555
H2 C1 1_555 1_555
H3 C1 1_555 1_555
H4 C3 1_555 1_555
H5 C4 1_555 1_555
H6 C5 1_555 1_555
H7 C8 1_555 1_555
H8 C11 1_555 1_555
H9 C12 1_555 1_555
H10 C13 1_555 1_555
H11 C16 1_555 1_555
H12 C17 1_555 1_555
H13 C17 1_555 1_555
H14 C17 1_555 1_555
H15 C20 1_555 1_555
H16 C21 1_555 1_555
H17 C26 1_555 1_555
H18 C27 1_555 1_555
H19 C28 1_555 1_555
H20 C28 1_555 1_555
H21 C28 1_555 1_555
H22 C29 1_555 1_555
H23 C29 1_555 1_555
H24 C29 1_555 1_555
H25 C31 1_555 1_555
H26 C32 1_555 1_555
H27 C34 1_555 1_555
H28 C34 1_555 1_555
H29 C34 1_555 1_555
H30 C36 1_555 1_555
H31 C36 1_555 1_555
H32 C36 1_555 1_555
H33 C38 1_555 1_555
H34 C39 1_555 1_555
H35 C40 1_555 1_555
H36 C43 1_555 1_555
H37 C44 1_555 1_555
H38 C44 1_555 1_555
H39 C44 1_555 1_555
H40 C46 1_555 1_555
H41 C47 1_555 1_555
H42 C48 1_555 1_555
H43 C51 1_555 1_555
H44 C52 1_555 1_555
H45 C52 1_555 1_555
H46 C52 1_555 1_555
H47 C54 1_555 1_555
H48 C55 1_555 1_555
H49 C56 1_555 1_555
H50 C59 1_555 1_555
H51 C61 1_555 1_555
H52 C62 1_555 1_555
H53 C63 1_555 1_555
H54 C63 1_555 1_555
H55 C63 1_555 1_555
H56 C64 1_555 1_555
H57 C64 1_555 1_555
H58 C64 1_555 1_555
H59 C66 1_555 1_555
H60 C67 1_555 1_555
H61 C68 1_555 1_555
H62 C68 1_555 1_555
H63 C68 1_555 1_555
H64 C69 1_555 1_555
H65 C69 1_555 1_555
H66 C69 1_555 1_555
H67 C24 1_555 1_555
H68 C35 1_555 1_555
H69 C35 1_555 1_555
H70 C35 1_555 1_555
H71 O28 1_555 1_555
H72 O23 1_555 1_555
H73 O22 1_555 1_555
H74 O48 1_555 1_555
H75 O49 1_555 1_555
H77 O54 1_555 1_555
H78 O47 1_555 1_555
H79 C19 1_555 1_555
H80 C33 1_555 1_555
H81 C33 1_555 1_555
H82 C33 1_555 1_555
H83 C9 1_555 1_555
H84 C9 1_555 1_555
H85 C9 1_555 1_555
H86 N6 1_555 1_555
H87 N6 1_555 1_555
H88 N5 1_555 1_555
H89 N5 1_555 1_555
H90 N10 1_555 1_555
H91 N10 1_555 1_555
H92 N11 1_555 1_555
H93 N11 1_555 1_555
Cu1_2 O25 1_555 1_555
Cu2_2 O51 1_555 1_555
O25_2 Cu1 1_555 1_555
N5_2 Cu1 1_555 1_555
O51_2 Cu2 1_555 1_555
N10_2 Cu2 1_555 1_555
H88_2 N5_2 1_555 1_555
H89_2 N5_2 1_555 1_555
H90_2 N10_2 1_555 1_555
H91_2 N10_2 1_555 1_555
Y2 O8 1_555 1_555
Y2 O22 1_555 1_555
Y2 O23 1_555 1_555
Y3 O5 1_555 1_555
Y3 O22 1_555 1_555
Y3 O23 1_555 1_555
Y5 O36 1_555 1_555
Y5 O48 1_555 1_555
Y5 O49 1_555 1_555
Y6 O33 1_555 1_555
Y6 O48 1_555 1_555
Y6 O49 1_555 1_555
C7 O2 1_555 1_555
C8 O3 1_555 1_555
C15 O5 1_555 1_555
C16 O6 1_555 1_555
C22 C23 1_555 1_555
C23 O8 1_555 1_555
C24 O9 1_555 1_555
N1 O11 1_555 1_555
N2 O14 1_555 1_555
N3 O17 1_555 1_555
N5 Cu1_2 1_555 1_555
C31 N6 1_555 1_555
C42 O30 1_555 1_555
C43 O31 1_555 1_555
C50 O33 1_555 1_555
C51 O34 1_555 1_555
C57 C58 1_555 1_555
C58 O36 1_555 1_555
C59 O37 1_555 1_555
N7 O39 1_555 1_555
N8 O42 1_555 1_555
N9 O45 1_555 1_555
N10 Cu2_2 1_555 1_555
C66 N11 1_555 1_555

#END
