
#######################################################################
#
#                 Cambridge Crystallographic Data Centre
#                                CCDC 
#
#######################################################################
#
# If this CIF has been generated from an entry in the Cambridge 
# Structural Database, then it will include bibliographic, chemical, 
# crystal, experimental, refinement or atomic coordinate data resulting 
# from the CCDC's data processing and validation procedures.
#
#######################################################################

data_LARLAT
_symmetry_cell_setting           monoclinic
_symmetry_space_group_name_H-M   'P 21/n'
_symmetry_Int_Tables_number      14
_space_group_name_Hall           '-P 2yn'
loop_
_symmetry_equiv_pos_site_id
_symmetry_equiv_pos_as_xyz
1 x,y,z
2 1/2-x,1/2+y,1/2-z
3 -x,-y,-z
4 1/2+x,1/2-y,1/2+z
_cell_length_a                   9.2046(18)
_cell_length_b                   13.473(3)
_cell_length_c                   12.987(3)
_cell_angle_alpha                90
_cell_angle_beta                 102.99(3)
_cell_angle_gamma                90
_cell_volume                     1569.35
loop_
_atom_site_label
_atom_site_type_symbol
_atom_site_fract_x
_atom_site_fract_y
_atom_site_fract_z
Hg1 Hg 0.160152(19) 0.799192(13) 0.453410(12)
N1 N 0.1289(4) 0.6289(2) 0.4145(3)
Cl1 Cl 0.17877(13) 0.81839(8) 0.63888(8)
Cl2 Cl -0.00437(15) 0.85414(10) 0.29302(9)
C1 C -0.0215(4) 0.3612(3) 0.0180(3)
N2 N -0.0385(4) 0.4017(3) 0.1797(3)
C2 C -0.1174(4) 0.4026(3) 0.0756(3)
C3 C 0.2004(5) 0.5475(3) 0.4673(3)
C4 C 0.3237(5) 0.5433(4) 0.5522(3)
H1 H 0.3752 0.6000 0.5802
C5 C -0.3027(5) 0.4209(4) -0.0801(4)
H2 H -0.3972 0.4414 -0.1156
N3 N 0.1129(4) 0.3366(3) 0.0864(3)
N4 N 0.0110(4) 0.4933(2) 0.3436(2)
C6 C -0.2087(5) 0.3787(4) -0.1378(4)
H3 H -0.2425 0.3709 -0.2104
C7 C 0.1271(5) 0.4611(3) 0.4244(3)
C8 C 0.0970(5) 0.3620(3) 0.1807(3)
H4 H 0.1711 0.3537 0.2419
C9 C 0.0170(5) 0.5934(3) 0.3424(3)
H5 H -0.0503 0.6329 0.2958
C10 C -0.0953(5) 0.4320(3) 0.2721(3)
H6 H -0.1875 0.4686 0.2485
H7 H -0.1170 0.3734 0.3093
C11 C 0.1708(6) 0.3673(4) 0.4644(4)
H8 H 0.1222 0.3099 0.4352
C12 C -0.0682(5) 0.3483(3) -0.0909(3)
H9 H -0.0058 0.3200 -0.1300
C13 C 0.2897(7) 0.3648(4) 0.5494(4)
H10 H 0.3213 0.3036 0.5795
C14 C 0.3652(6) 0.4495(4) 0.5924(4)
H11 H 0.4458 0.4433 0.6498
C15 C -0.2615(5) 0.4337(3) 0.0278(4)
H12 H -0.3254 0.4612 0.0663
Hg1A Hg 0.339848(19) 0.299192(13) 0.046590(12)
N3A N 0.3871(4) 0.8366(3) 0.4136(3)
loop_
_geom_bond_atom_site_label_1
_geom_bond_atom_site_label_2
_geom_bond_site_symmetry_1
_geom_bond_site_symmetry_2
Hg1 N1 1_555 1_555
N1 C3 1_555 1_555
Cl1 Hg1 1_555 1_555
Cl2 Hg1 1_555 1_555
C1 C2 1_555 1_555
N2 C2 1_555 1_555
C2 C15 1_555 1_555
C3 C4 1_555 1_555
C4 H1 1_555 1_555
C5 H2 1_555 1_555
N3 C1 1_555 1_555
N4 C7 1_555 1_555
C6 C5 1_555 1_555
H3 C6 1_555 1_555
C7 C3 1_555 1_555
C8 N2 1_555 1_555
H4 C8 1_555 1_555
C9 N1 1_555 1_555
H5 C9 1_555 1_555
C10 N2 1_555 1_555
H6 C10 1_555 1_555
H7 C10 1_555 1_555
C11 C7 1_555 1_555
H8 C11 1_555 1_555
C12 C1 1_555 1_555
H9 C12 1_555 1_555
C13 C11 1_555 1_555
H10 C13 1_555 1_555
C14 C4 1_555 1_555
H11 C14 1_555 1_555
C15 C5 1_555 1_555
H12 C15 1_555 1_555
Hg1A N3 1_555 1_555
N3A Hg1 1_555 1_555
N3 C8 1_555 1_555
N4 C9 1_555 1_555
N4 C10 1_555 1_555
C6 C12 1_555 1_555
C13 C14 1_555 1_555

#END
