
#######################################################################
#
#                 Cambridge Crystallographic Data Centre
#                                CCDC 
#
#######################################################################
#
# If this CIF has been generated from an entry in the Cambridge 
# Structural Database, then it will include bibliographic, chemical, 
# crystal, experimental, refinement or atomic coordinate data resulting 
# from the CCDC's data processing and validation procedures.
#
#######################################################################

data_LARMOH
_symmetry_cell_setting           triclinic
_symmetry_space_group_name_H-M   'P -1'
_symmetry_Int_Tables_number      2
_space_group_name_Hall           '-P 1'
loop_
_symmetry_equiv_pos_site_id
_symmetry_equiv_pos_as_xyz
1 x,y,z
2 -x,-y,-z
_cell_length_a                   9.342(4)
_cell_length_b                   9.889(4)
_cell_length_c                   10.512(4)
_cell_angle_alpha                68.978(6)
_cell_angle_beta                 78.217(6)
_cell_angle_gamma                81.851(7)
_cell_volume                     884.897
loop_
_atom_site_label
_atom_site_type_symbol
_atom_site_fract_x
_atom_site_fract_y
_atom_site_fract_z
Ag1 Ag 0.62038(4) -0.13939(4) 0.57970(4)
N1 N 0.6637(4) -0.0459(4) 0.3400(4)
N2 N 0.5656(4) 0.0650(4) 0.2694(4)
N3 N 1.2985(5) -0.6239(5) 0.3386(5)
N4 N 0.3356(7) 0.5571(10) -0.4220(6)
C1 C 1.2145(6) -0.5261(5) 0.3178(5)
C2 C 1.1045(5) -0.4064(5) 0.2949(5)
C3 C 1.0426(6) -0.3618(5) 0.1750(5)
H1 H 1.0759 -0.4045 0.1076
C4 C 1.0602(5) -0.3396(5) 0.3935(5)
H2 H 1.1062 -0.3673 0.4706
C5 C 0.9471(5) -0.2315(5) 0.3765(4)
H3 H 0.9157 -0.1866 0.4425
C6 C 0.8810(5) -0.1904(5) 0.2606(4)
C7 C 0.9298(6) -0.2518(6) 0.1586(5)
H4 H 0.8873 -0.2196 0.0791
C8 C 0.7566(5) -0.0819(5) 0.2462(4)
C9 C 0.6070(5) 0.0848(5) 0.1404(5)
C10 C 0.5470(5) 0.1854(5) 0.0197(4)
C11 C 0.5993(5) 0.1736(5) -0.1094(5)
H5 H 0.6723 0.1020 -0.1194
C12 C 0.5422(6) 0.2694(6) -0.2240(5)
H6 H 0.5762 0.2617 -0.3109
C13 C 0.4353(5) 0.3755(6) -0.2081(5)
C14 C 0.3818(6) 0.3876(7) -0.0795(6)
H7 H 0.3087 0.4593 -0.0701
C15 C 0.4376(7) 0.2928(7) 0.0343(5)
H8 H 0.4023 0.3004 0.1211
C16 C 0.3781(7) 0.4784(9) -0.3280(6)
O1 O 0.7266(3) -0.0045(3) 0.1171(3)
O6 O 0.7557(7) 0.0495(7) 0.5934(7)
H9 H 0.712(3) 0.122(2) 0.543(3)
H10 H 0.821(3) 0.053(3) 0.635(3)
Ag1A Ag 0.37962(4) 0.13939(4) 0.42030(4)
Ag1A_2 Ag 1.37962(4) -0.86061(4) 0.42030(4)
N2A N 0.4344(4) -0.0650(4) 0.7306(4)
N3A N 0.7015(5) -0.3761(5) 0.6614(5)
O2 O 0.0330(9) 0.7854(11) 0.6471(6)
O3 O -0.0683(8) 0.6657(7) 0.8705(7)
O4 O -0.0542(13) 0.9063(8) 0.8028(8)
O5 O 0.1545(9) 0.7572(11) 0.8274(8)
Cl1 Cl 0.0176(2) 0.77780(19) 0.78361(15)
loop_
_geom_bond_atom_site_label_1
_geom_bond_atom_site_label_2
_geom_bond_site_symmetry_1
_geom_bond_site_symmetry_2
Ag1 N1 1_555 1_555
N1 N2 1_555 1_555
N2 C9 1_555 1_555
N3 C1 1_555 1_555
N4 C16 1_555 1_555
C1 C2 1_555 1_555
C2 C3 1_555 1_555
C3 H1 1_555 1_555
C4 C2 1_555 1_555
H2 C4 1_555 1_555
C5 C4 1_555 1_555
H3 C5 1_555 1_555
C6 C5 1_555 1_555
C7 C3 1_555 1_555
H4 C7 1_555 1_555
C8 N1 1_555 1_555
C9 C10 1_555 1_555
C10 C11 1_555 1_555
C11 H5 1_555 1_555
C12 C11 1_555 1_555
H6 C12 1_555 1_555
C13 C12 1_555 1_555
C14 C13 1_555 1_555
H7 C14 1_555 1_555
C15 C10 1_555 1_555
H8 C15 1_555 1_555
C16 C13 1_555 1_555
O1 C8 1_555 1_555
O2 Cl1 1_555 1_555
O3 Cl1 1_555 1_555
O4 Cl1 1_555 1_555
O5 Cl1 1_555 1_555
O6 Ag1 1_555 1_555
H9 O6 1_555 1_555
H10 O6 1_555 1_555
Ag1A N2 1_555 1_555
Ag1A_2 N3 1_555 1_555
N2A Ag1 1_555 1_555
N3A Ag1 1_555 1_555
C6 C7 1_555 1_555
C6 C8 1_555 1_555
C9 O1 1_555 1_555
C14 C15 1_555 1_555

#END
