
#######################################################################
#
#                 Cambridge Crystallographic Data Centre
#                                CCDC 
#
#######################################################################
#
# If this CIF has been generated from an entry in the Cambridge 
# Structural Database, then it will include bibliographic, chemical, 
# crystal, experimental, refinement or atomic coordinate data resulting 
# from the CCDC's data processing and validation procedures.
#
#######################################################################

data_LARMUN
_symmetry_cell_setting           monoclinic
_symmetry_space_group_name_H-M   'P 21/n'
_symmetry_Int_Tables_number      14
_space_group_name_Hall           '-P 2yn'
loop_
_symmetry_equiv_pos_site_id
_symmetry_equiv_pos_as_xyz
1 x,y,z
2 1/2-x,1/2+y,1/2-z
3 -x,-y,-z
4 1/2+x,1/2-y,1/2+z
_cell_length_a                   7.559(2)
_cell_length_b                   23.739(6)
_cell_length_c                   10.426(3)
_cell_angle_alpha                90
_cell_angle_beta                 108.071(4)
_cell_angle_gamma                90
_cell_volume                     1778.59
loop_
_atom_site_label
_atom_site_type_symbol
_atom_site_fract_x
_atom_site_fract_y
_atom_site_fract_z
Ag1 Ag 0.93487(8) 0.93557(2) 0.54563(5)
N1 N 1.0757(12) 0.7913(3) 1.2977(8)
N2 N 1.0943(7) 0.99334(19) 0.7232(5)
N3 N 1.1575(7) 1.04432(19) 0.6848(5)
N4 N 1.5611(8) 1.3372(2) 0.9096(6)
C1 C 1.3670(9) 1.1551(3) 0.7112(6)
H1 H 1.3376 1.1397 0.6250
C2 C 1.4290(9) 1.2096(3) 0.7351(7)
H2 H 1.4399 1.2315 0.6641
C3 C 1.4757(8) 1.2324(2) 0.8643(7)
C4 C 1.5282(9) 1.2905(3) 0.8876(7)
C5 C 1.4672(10) 1.1995(3) 0.9715(7)
H3 H 1.5032 1.2143 1.0584
C6 C 1.4046(10) 1.1442(3) 0.9490(7)
H4 H 1.4002 1.1215 1.0207
C7 C 1.3490(8) 1.1232(2) 0.8187(6)
C8 C 1.2613(8) 1.0674(2) 0.7951(6)
C9 C 1.1660(8) 0.9902(2) 0.8517(6)
C10 C 1.1467(8) 0.9472(2) 0.9478(6)
C11 C 1.2237(9) 0.9563(3) 1.0855(7)
H5 H 1.2874 0.9896 1.1164
C12 C 1.2060(9) 0.9162(3) 1.1772(7)
H6 H 1.2585 0.9222 1.2694
C13 C 1.1101(9) 0.8675(3) 1.1302(7)
C14 C 1.0914(10) 0.8248(3) 1.2251(8)
C15 C 1.0303(10) 0.8577(3) 0.9921(8)
H7 H 0.9665 0.8244 0.9617
C16 C 1.0471(10) 0.8980(3) 0.9011(7)
H8 H 0.9921 0.8924 0.8090
C17 C 0.4793(11) 0.8512(4) 0.6550(8)
O1 O 1.2735(6) 1.03504(16) 0.9041(4)
O2 O 0.5996(9) 0.9315(3) 0.5414(9)
O3 O 0.4930(9) 0.9521(3) 0.7366(8)
O4 O 0.2743(8) 0.9309(3) 0.5177(6)
F1 F 0.4566(10) 0.8186(3) 0.5487(6)
F2 F 0.6458(7) 0.8393(2) 0.7410(6)
F3 F 0.3549(7) 0.8368(3) 0.7141(6)
S1 S 0.4598(2) 0.92544(8) 0.6079(2)
Ag1B Ag 1.06513(8) 1.06443(2) 0.45437(5)
Ag1A Ag 1.56513(8) 1.43557(2) 0.95437(5)
N3B N 0.8425(7) 0.95568(19) 0.3152(5)
N4A N 0.9389(8) 0.8372(2) 0.5904(6)
loop_
_geom_bond_atom_site_label_1
_geom_bond_atom_site_label_2
_geom_bond_site_symmetry_1
_geom_bond_site_symmetry_2
Ag1 N2 1_555 1_555
N1 C14 1_555 1_555
N2 N3 1_555 1_555
N3 C8 1_555 1_555
N4 C4 1_555 1_555
C1 H1 1_555 1_555
C2 C1 1_555 1_555
H2 C2 1_555 1_555
C3 C2 1_555 1_555
C4 C3 1_555 1_555
C5 C3 1_555 1_555
H3 C5 1_555 1_555
C6 C5 1_555 1_555
H4 C6 1_555 1_555
C7 C1 1_555 1_555
C8 C7 1_555 1_555
C9 N2 1_555 1_555
C10 C9 1_555 1_555
C11 C10 1_555 1_555
H5 C11 1_555 1_555
C12 C11 1_555 1_555
H6 C12 1_555 1_555
C13 C12 1_555 1_555
C14 C13 1_555 1_555
C15 C13 1_555 1_555
H7 C15 1_555 1_555
C16 C10 1_555 1_555
H8 C16 1_555 1_555
C17 F1 1_555 1_555
O1 C8 1_555 1_555
O2 Ag1 1_555 1_555
O3 S1 1_555 1_555
O4 S1 1_555 1_555
F2 C17 1_555 1_555
F3 C17 1_555 1_555
S1 C17 1_555 1_555
Ag1B N3 1_555 1_555
Ag1A N4 1_555 1_555
N3B Ag1 1_555 1_555
N4A Ag1 1_555 1_555
C6 C7 1_555 1_555
C9 O1 1_555 1_555
C15 C16 1_555 1_555
O2 S1 1_555 1_555

#END
