
#######################################################################
#
#                 Cambridge Crystallographic Data Centre
#                                CCDC 
#
#######################################################################
#
# If this CIF has been generated from an entry in the Cambridge 
# Structural Database, then it will include bibliographic, chemical, 
# crystal, experimental, refinement or atomic coordinate data resulting 
# from the CCDC's data processing and validation procedures.
#
#######################################################################

data_LARMAU
_symmetry_cell_setting           monoclinic
_symmetry_space_group_name_H-M   'P 21/c'
_symmetry_Int_Tables_number      14
_space_group_name_Hall           '-P 2ybc'
loop_
_symmetry_equiv_pos_site_id
_symmetry_equiv_pos_as_xyz
1 x,y,z
2 -x,1/2+y,1/2-z
3 -x,-y,-z
4 x,1/2-y,1/2+z
_cell_length_a                   11.488(1)
_cell_length_b                   11.014(4)
_cell_length_c                   16.222(4)
_cell_angle_alpha                90
_cell_angle_beta                 107.22(5)
_cell_angle_gamma                90
_cell_volume                     1960.55
loop_
_atom_site_label
_atom_site_type_symbol
_atom_site_fract_x
_atom_site_fract_y
_atom_site_fract_z
C1 C 0.7176(4) -0.0587(4) 0.5950(3)
C2 C 0.7373(4) -0.1369(4) 0.6746(3)
C3 C 0.6447(4) -0.1566(4) 0.7121(3)
H1 H 0.5709 -0.1120 0.6919
C4 C 0.6575(4) -0.2386(4) 0.7771(3)
C5 C 0.5558(4) -0.2533(4) 0.8171(3)
C6 C 0.7651(4) -0.3031(4) 0.8065(3)
H2 H 0.7734 -0.3627 0.8502
C7 C 0.8609(4) -0.2814(4) 0.7729(3)
C8 C 0.9794(4) -0.3440(5) 0.8049(3)
C9 C 0.8479(4) -0.1976(4) 0.7089(3)
H3 H 0.9146 -0.1802 0.6875
C10 C 0.3198(4) 0.3695(4) 0.4602(3)
C11 C 0.2235(4) 0.3351(5) 0.4908(3)
H4 H 0.2302 0.2681 0.5287
C12 C 0.1190(5) 0.4021(6) 0.4637(4)
H5 H 0.0527 0.3821 0.4849
C13 C 0.1060(5) 0.4988(5) 0.4061(4)
H6 H 0.0314 0.5425 0.3893
C14 C 0.1996(5) 0.5331(5) 0.3726(4)
H7 H 0.1908 0.5977 0.3324
C15 C 0.3068(4) 0.4664(4) 0.4020(3)
C16 C 0.4849(4) 0.3774(4) 0.4230(3)
C17 C 0.6010(4) 0.3412(4) 0.4110(3)
C18 C 0.6627(5) 0.4082(5) 0.3648(3)
H8 H 0.6341 0.4863 0.3433
C19 C 0.7661(5) 0.3605(5) 0.3504(4)
H9 H 0.8097 0.4048 0.3188
C20 C 0.8047(5) 0.2463(6) 0.3832(4)
H10 H 0.8749 0.2104 0.3737
C21 C 0.7391(5) 0.1841(6) 0.4304(4)
H11 H 0.7673 0.1068 0.4539
Mn1 Mn 0.53050(6) 0.14923(6) 0.53248(4)
N1 N 0.4328(3) 0.3152(3) 0.4715(2)
N2 N 0.4139(4) 0.4713(4) 0.3797(3)
H12 H 0.4318 0.5220 0.3450
N3 N 0.6384(3) 0.2297(4) 0.4436(3)
O1 O 0.6070(2) -0.0333(3) 0.55259(18)
O2 O 0.8061(3) -0.0232(3) 0.5728(2)
O3 O 0.5670(3) -0.3390(3) 0.8721(2)
O4 O 0.4687(3) -0.1797(3) 0.7959(2)
O5 O 0.9775(3) -0.4368(4) 0.8561(3)
H13 H 1.0481 -0.4656 0.8754
O6 O 1.0687(3) -0.3157(4) 0.7845(2)
O7 O 0.6848(3) 0.2002(3) 0.6400(2)
H14 H 0.6578 0.2348 0.6774
H15 H 0.7601 0.1805 0.6558
Mn1B Mn 0.46950(6) -0.14923(6) 0.46752(4)
Mn1A Mn 0.46950(6) -0.35077(6) 0.96752(4)
O1B O 0.3930(2) 0.0333(3) 0.44741(18)
O3A O 0.4330(3) 0.1610(3) 0.6279(2)
loop_
_geom_bond_atom_site_label_1
_geom_bond_atom_site_label_2
_geom_bond_site_symmetry_1
_geom_bond_site_symmetry_2
C1 C2 1_555 1_555
C2 C3 1_555 1_555
C3 H1 1_555 1_555
C4 C3 1_555 1_555
C5 C4 1_555 1_555
C6 C4 1_555 1_555
H2 C6 1_555 1_555
C7 C6 1_555 1_555
C8 C7 1_555 1_555
C9 C2 1_555 1_555
H3 C9 1_555 1_555
C10 C11 1_555 1_555
C11 H4 1_555 1_555
C12 C11 1_555 1_555
H5 C12 1_555 1_555
C13 C12 1_555 1_555
H6 C13 1_555 1_555
C14 C13 1_555 1_555
H7 C14 1_555 1_555
C15 C10 1_555 1_555
C16 C17 1_555 1_555
C17 C18 1_555 1_555
C18 H8 1_555 1_555
C19 C18 1_555 1_555
H9 C19 1_555 1_555
C20 C19 1_555 1_555
H10 C20 1_555 1_555
C21 C20 1_555 1_555
H11 C21 1_555 1_555
Mn1 N1 1_555 1_555
N1 C10 1_555 1_555
N2 C15 1_555 1_555
H12 N2 1_555 1_555
N3 C17 1_555 1_555
O1 C1 1_555 1_555
O2 C1 1_555 1_555
O3 C5 1_555 1_555
O4 C5 1_555 1_555
O5 C8 1_555 1_555
H13 O5 1_555 1_555
O6 C8 1_555 1_555
O7 Mn1 1_555 1_555
H14 O7 1_555 1_555
H15 O7 1_555 1_555
Mn1B O1 1_555 1_555
Mn1A O3 1_555 1_555
O1B Mn1 1_555 1_555
O3A Mn1 1_555 1_555
C7 C9 1_555 1_555
C14 C15 1_555 1_555
C16 N1 1_555 1_555
C16 N2 1_555 1_555
C21 N3 1_555 1_555
Mn1 N3 1_555 1_555
Mn1 O1 1_555 1_555
Mn1B O1B 1_555 1_555

#END
