
#######################################################################
#
#                 Cambridge Crystallographic Data Centre
#                                CCDC 
#
#######################################################################
#
# If this CIF has been generated from an entry in the Cambridge 
# Structural Database, then it will include bibliographic, chemical, 
# crystal, experimental, refinement or atomic coordinate data resulting 
# from the CCDC's data processing and validation procedures.
#
#######################################################################

data_LARNUO
_symmetry_cell_setting           triclinic
_symmetry_space_group_name_H-M   'P -1'
_symmetry_Int_Tables_number      2
_space_group_name_Hall           '-P 1'
loop_
_symmetry_equiv_pos_site_id
_symmetry_equiv_pos_as_xyz
1 x,y,z
2 -x,-y,-z
_cell_length_a                   8.2621(9)
_cell_length_b                   10.6127(12)
_cell_length_c                   13.3685(15)
_cell_angle_alpha                98.012(2)
_cell_angle_beta                 106.259(2)
_cell_angle_gamma                112.362(2)
_cell_volume                     999.972
loop_
_atom_site_label
_atom_site_type_symbol
_atom_site_fract_x
_atom_site_fract_y
_atom_site_fract_z
Ag1 Ag 0.90419(7) 0.31385(5) -0.00104(4)
N1 N 1.0128(6) 0.3798(4) -0.1352(4)
N2 N 1.0820(6) 0.5227(4) -0.1350(4)
N3 N 0.9542(10) -0.1905(7) -0.0940(6)
N4 N 1.6134(9) 1.1178(7) -0.0981(6)
C1 C 1.4905(9) 1.0209(7) -0.1580(6)
C2 C 1.3322(8) 0.8962(6) -0.2338(5)
C3 C 1.2348(10) 0.8982(7) -0.3350(6)
H1 H 1.2696 0.9820 -0.3554
C4 C 1.0851(10) 0.7753(7) -0.4061(5)
H2 H 1.0206 0.7762 -0.4751
C5 C 1.0292(8) 0.6488(6) -0.3754(5)
H3 H 0.9278 0.5661 -0.4233
C6 C 1.1273(8) 0.6490(6) -0.2730(5)
C7 C 1.2808(8) 0.7715(6) -0.2022(5)
H4 H 1.3490 0.7703 -0.1342
C8 C 1.0702(7) 0.5248(5) -0.2324(4)
C9 C 0.9644(7) 0.3063(6) -0.2323(4)
C10 C 0.8876(7) 0.1537(5) -0.2731(4)
C11 C 0.7647(9) 0.0800(6) -0.3792(5)
H5 H 0.7326 0.1285 -0.4282
C12 C 0.6910(10) -0.0660(7) -0.4108(5)
H6 H 0.6102 -0.1152 -0.4821
C13 C 0.7338(10) -0.1404(6) -0.3398(6)
H7 H 0.6820 -0.2388 -0.3621
C14 C 0.8562(9) -0.0657(6) -0.2339(5)
C15 C 0.9083(10) -0.1384(6) -0.1572(6)
C16 C 0.9347(8) 0.0807(6) -0.2009(5)
H8 H 1.0188 0.1299 -0.1303
O1 O 0.9942(5) 0.3913(4) -0.3008(3)
Ag1A Ag 1.09581(7) 0.68615(5) 0.00104(4)
Ag1A_2 Ag 1.09581(7) -0.31385(5) 0.00104(4)
Ag1_2 Ag 1.90419(7) 1.31385(5) -0.00104(4)
N2A N 0.9180(6) 0.4773(4) 0.1350(4)
N3A N 1.0458(10) 0.1905(7) 0.0940(6)
N4_2 N 0.6134(9) 0.1178(7) -0.0981(6)
O2 O 0.659(17) 0.790(6) 0.041(4)
H9 H 0.676(9) 0.852(5) 0.007(5)
H10 H 0.602(9) 0.707(5) -0.001(5)
Sb1 Sb 0.50589(6) 0.59894(5) 0.27854(4)
F1 F 0.3284(8) 0.5552(7) 0.1384(4)
F2 F 0.6899(10) 0.7207(9) 0.2391(9)
F3 F 0.4479(9) 0.7470(6) 0.3188(5)
F4 F 0.6791(11) 0.6434(10) 0.4131(6)
F5 F 0.3138(8) 0.4747(7) 0.3089(6)
F6 F 0.5600(10) 0.4541(8) 0.2316(7)
loop_
_geom_bond_atom_site_label_1
_geom_bond_atom_site_label_2
_geom_bond_site_symmetry_1
_geom_bond_site_symmetry_2
Ag1 N1 1_555 1_555
N1 N2 1_555 1_555
N2 C8 1_555 1_555
N3 C15 1_555 1_555
N4 C1 1_555 1_555
C1 C2 1_555 1_555
C2 C3 1_555 1_555
C3 H1 1_555 1_555
C4 C3 1_555 1_555
H2 C4 1_555 1_555
C5 C4 1_555 1_555
H3 C5 1_555 1_555
C6 C5 1_555 1_555
C7 C2 1_555 1_555
H4 C7 1_555 1_555
C8 C6 1_555 1_555
C9 N1 1_555 1_555
C10 C9 1_555 1_555
C11 C10 1_555 1_555
H5 C11 1_555 1_555
C12 C11 1_555 1_555
H6 C12 1_555 1_555
C13 C12 1_555 1_555
H7 C13 1_555 1_555
C14 C13 1_555 1_555
C15 C14 1_555 1_555
C16 C10 1_555 1_555
H8 C16 1_555 1_555
O1 C8 1_555 1_555
O2 H9 1_555 1_555
Sb1 F1 1_555 1_555
F2 Sb1 1_555 1_555
F3 Sb1 1_555 1_555
F4 Sb1 1_555 1_555
F5 Sb1 1_555 1_555
F6 Sb1 1_555 1_555
H10 O2 1_555 1_555
Ag1A N2 1_555 1_555
Ag1A_2 N3 1_555 1_555
Ag1_2 N4 1_555 1_555
N2A Ag1 1_555 1_555
N3A Ag1 1_555 1_555
N4_2 Ag1 1_555 1_555
C6 C7 1_555 1_555
C9 O1 1_555 1_555
C14 C16 1_555 1_555

#END
