
#######################################################################
#
#                 Cambridge Crystallographic Data Centre
#                                CCDC 
#
#######################################################################
#
# If this CIF has been generated from an entry in the Cambridge 
# Structural Database, then it will include bibliographic, chemical, 
# crystal, experimental, refinement or atomic coordinate data resulting 
# from the CCDC's data processing and validation procedures.
#
#######################################################################

data_LARNEY
_symmetry_cell_setting           triclinic
_symmetry_space_group_name_H-M   'P -1'
_symmetry_Int_Tables_number      2
_space_group_name_Hall           '-P 1'
loop_
_symmetry_equiv_pos_site_id
_symmetry_equiv_pos_as_xyz
1 x,y,z
2 -x,-y,-z
_cell_length_a                   10.713(4)
_cell_length_b                   13.449(5)
_cell_length_c                   15.423(5)
_cell_angle_alpha                65.908(5)
_cell_angle_beta                 74.231(5)
_cell_angle_gamma                83.255(5)
_cell_volume                     1952.17
loop_
_atom_site_label
_atom_site_type_symbol
_atom_site_fract_x
_atom_site_fract_y
_atom_site_fract_z
Ag1 Ag 0.36544(4) 0.01714(3) 0.30296(3)
Ag2 Ag 1.08990(4) 0.02096(3) 0.20853(3)
N1 N 0.5738(5) -0.0746(4) 0.2885(4)
N2 N 1.2286(4) -0.1273(3) 0.3770(3)
N3 N 1.1216(4) -0.1235(3) 0.3404(3)
N4 N 0.2507(4) 0.1462(3) 0.1124(3)
N5 N 0.3551(4) 0.1488(3) 0.1496(3)
N6 N -0.0818(6) 0.0805(5) -0.1098(4)
N7 N 0.8960(5) 0.1057(4) 0.1999(4)
N8 N 1.5764(5) -0.1173(5) 0.6250(4)
C1 C 0.8165(6) 0.1677(5) 0.1833(4)
C2 C 0.7134(5) 0.2455(4) 0.1606(4)
C3 C 0.7169(5) 0.3490(5) 0.1602(4)
H1 H 0.7865 0.3691 0.1746
C4 C 0.6173(5) 0.4207(4) 0.1385(4)
H2 H 0.6192 0.4899 0.1381
C5 C 0.5127(5) 0.3906(4) 0.1171(4)
H3 H 0.4456 0.4398 0.1015
C6 C 0.5091(4) 0.2872(4) 0.1192(3)
C7 C 0.6097(5) 0.2152(4) 0.1406(3)
H4 H 0.6074 0.1459 0.1416
C8 C 0.3976(5) 0.2462(4) 0.1062(3)
C9 C 0.2386(5) 0.2442(4) 0.0497(3)
C10 C 0.1439(5) 0.2804(4) -0.0086(3)
C11 C 0.0966(5) 0.3858(4) -0.0402(4)
H5 H 0.1298 0.4379 -0.0274
C12 C 0.0012(6) 0.4148(5) -0.0903(4)
H6 H -0.0291 0.4863 -0.1119
C13 C -0.0503(6) 0.3372(4) -0.1087(4)
H7 H -0.1165 0.3557 -0.1411
C14 C -0.0017(5) 0.2329(4) -0.0783(4)
C15 C 0.0953(5) 0.2037(4) -0.0298(3)
H8 H 0.1283 0.1330 -0.0111
C16 C -0.0501(6) 0.1491(5) -0.0970(4)
C17 C 0.6544(6) -0.1370(5) 0.3060(4)
C18 C 0.7573(5) -0.2145(4) 0.3267(4)
C19 C 0.7521(5) -0.3152(5) 0.3254(4)
H9 H 0.6816 -0.3344 0.3113
C20 C 0.8533(6) -0.3877(5) 0.3454(4)
H10 H 0.8509 -0.4563 0.3448
C21 C 0.9582(5) -0.3591(4) 0.3662(4)
H11 H 1.0253 -0.4088 0.3807
C22 C 0.9630(5) -0.2561(4) 0.3654(3)
C23 C 0.8609(5) -0.1842(4) 0.3479(3)
H12 H 0.8617 -0.1163 0.3503
C24 C 1.0757(4) -0.2204(4) 0.3804(3)
C25 C 1.2385(5) -0.2267(4) 0.4362(3)
C26 C 1.3330(5) -0.2730(4) 0.4955(3)
C27 C 1.3870(5) -0.2042(4) 0.5223(3)
H13 H 1.3626 -0.1312 0.5036
C28 C 1.4776(5) -0.2462(4) 0.5771(4)
C29 C 1.5334(5) -0.1742(5) 0.6045(4)
C30 C 1.5138(6) -0.3559(4) 0.6069(4)
H14 H 1.5752 -0.3835 0.6437
C31 C 1.4563(6) -0.4231(4) 0.5803(4)
H15 H 1.4776 -0.4967 0.6005
C32 C 1.3681(5) -0.3806(4) 0.5243(4)
H16 H 1.3315 -0.4257 0.5055
O1 O 0.3275(3) 0.3128(2) 0.0425(2)
O2 O 1.1463(3) -0.2913(2) 0.4418(2)
Ag1_2 Ag 1.36544(4) 0.01714(3) 0.30296(3)
Ag1A Ag 1.63456(4) -0.01714(3) 0.69704(3)
Ag2_2 Ag 0.08990(4) 0.02096(3) 0.20853(3)
Ag2A Ag -0.08990(4) -0.02096(3) -0.20853(3)
N2_2 N 0.2286(4) -0.1273(3) 0.3770(3)
N4_2 N 1.2507(4) 0.1462(3) 0.1124(3)
N6A N 1.0818(6) -0.0805(5) 0.1098(4)
N8A N 0.4236(5) 0.1173(5) 0.3750(4)
C33 C 0.1332(6) 0.3363(6) 0.3261(5)
O6 O -0.0794(6) 0.2442(8) 0.3654(6)
O7 O 0.0529(6) 0.3089(4) 0.1983(3)
O8 O 0.1123(6) 0.1510(4) 0.3216(4)
F1 F 0.1479(5) 0.2906(4) 0.4170(3)
F2 F 0.2491(5) 0.3508(5) 0.2712(4)
F3 F 0.0794(7) 0.4275(4) 0.3188(5)
S1 S 0.04026(16) 0.25285(15) 0.30190(12)
C34 C 0.4350(7) 0.8142(6) 0.1280(5)
O3 O 0.4367(6) 0.6705(5) 0.2944(4)
O4 O 0.4355(8) 0.6169(5) 0.1614(6)
O5 O 0.2485(5) 0.6904(4) 0.2378(4)
F4 F 0.4000(6) 0.8419(5) 0.0448(3)
F5 F 0.3878(5) 0.8911(3) 0.1595(3)
F6 F 0.5630(5) 0.8270(5) 0.0994(4)
S2 S 0.38664(18) 0.68145(14) 0.21369(13)
O9 O 0.1572(6) 0.0074(5) 0.5392(4)
H17 H 0.156(3) 0.036(2) 0.4774(9)
H18 H 0.0770(14) 0.012(3) 0.5670(18)
loop_
_geom_bond_atom_site_label_1
_geom_bond_atom_site_label_2
_geom_bond_site_symmetry_1
_geom_bond_site_symmetry_2
Ag1 N1 1_555 1_555
Ag2 N3 1_555 1_555
N1 C17 1_555 1_555
N2 N3 1_555 1_555
N3 C24 1_555 1_555
N4 N5 1_555 1_555
N5 Ag1 1_555 1_555
N6 C16 1_555 1_555
N7 Ag2 1_555 1_555
N8 C29 1_555 1_555
C1 N7 1_555 1_555
C2 C1 1_555 1_555
C3 C2 1_555 1_555
H1 C3 1_555 1_555
C4 C3 1_555 1_555
H2 C4 1_555 1_555
C5 C4 1_555 1_555
H3 C5 1_555 1_555
C6 C5 1_555 1_555
C7 C2 1_555 1_555
H4 C7 1_555 1_555
C8 N5 1_555 1_555
C9 N4 1_555 1_555
C10 C9 1_555 1_555
C11 C10 1_555 1_555
H5 C11 1_555 1_555
C12 C11 1_555 1_555
H6 C12 1_555 1_555
C13 C12 1_555 1_555
H7 C13 1_555 1_555
C14 C13 1_555 1_555
C15 C10 1_555 1_555
H8 C15 1_555 1_555
C16 C14 1_555 1_555
C17 C18 1_555 1_555
C18 C19 1_555 1_555
C19 H9 1_555 1_555
C20 C19 1_555 1_555
H10 C20 1_555 1_555
C21 C20 1_555 1_555
H11 C21 1_555 1_555
C22 C21 1_555 1_555
C23 C18 1_555 1_555
H12 C23 1_555 1_555
C24 C22 1_555 1_555
C25 N2 1_555 1_555
C26 C25 1_555 1_555
C27 C26 1_555 1_555
H13 C27 1_555 1_555
C28 C27 1_555 1_555
C29 C28 1_555 1_555
C30 C28 1_555 1_555
H14 C30 1_555 1_555
C31 C30 1_555 1_555
H15 C31 1_555 1_555
C32 C26 1_555 1_555
H16 C32 1_555 1_555
C33 F1 1_555 1_555
C34 F4 1_555 1_555
O1 C8 1_555 1_555
O2 C24 1_555 1_555
O3 S2 1_555 1_555
O4 S2 1_555 1_555
O5 S2 1_555 1_555
O6 S1 1_555 1_555
O7 S1 1_555 1_555
O8 S1 1_555 1_555
O9 H17 1_555 1_555
F2 C33 1_555 1_555
F3 C33 1_555 1_555
F5 C34 1_555 1_555
F6 C34 1_555 1_555
S1 C33 1_555 1_555
S2 C34 1_555 1_555
H18 O9 1_555 1_555
Ag1_2 N2 1_555 1_555
Ag1A N8 1_555 1_555
Ag2_2 N4 1_555 1_555
Ag2A N6 1_555 1_555
N2_2 Ag1 1_555 1_555
N4_2 Ag2 1_555 1_555
N6A Ag2 1_555 1_555
N8A Ag1 1_555 1_555
C6 C7 1_555 1_555
C6 C8 1_555 1_555
C9 O1 1_555 1_555
C14 C15 1_555 1_555
C22 C23 1_555 1_555
C25 O2 1_555 1_555
C31 C32 1_555 1_555

#END
