
#######################################################################
#
#                 Cambridge Crystallographic Data Centre
#                                CCDC 
#
#######################################################################
#
# If this CIF has been generated from an entry in the Cambridge 
# Structural Database, then it will include bibliographic, chemical, 
# crystal, experimental, refinement or atomic coordinate data resulting 
# from the CCDC's data processing and validation procedures.
#
#######################################################################

data_LARNIC
_symmetry_cell_setting           monoclinic
_symmetry_space_group_name_H-M   'P 21/n'
_symmetry_Int_Tables_number      14
_space_group_name_Hall           '-P 2yn'
loop_
_symmetry_equiv_pos_site_id
_symmetry_equiv_pos_as_xyz
1 x,y,z
2 1/2-x,1/2+y,1/2-z
3 -x,-y,-z
4 1/2+x,1/2-y,1/2+z
_cell_length_a                   6.9681(17)
_cell_length_b                   20.627(5)
_cell_length_c                   17.437(4)
_cell_angle_alpha                90
_cell_angle_beta                 95.880(4)
_cell_angle_gamma                90
_cell_volume                     2493.05
loop_
_atom_site_label
_atom_site_type_symbol
_atom_site_fract_x
_atom_site_fract_y
_atom_site_fract_z
Ag1 Ag 0.23640(11) 0.36762(3) 0.78210(3)
Ag2 Ag 0.01919(10) 0.20736(3) 0.74879(3)
N1 N 0.2017(9) 0.2545(3) 0.6575(3)
N2 N 0.2171(9) 0.3219(3) 0.6625(3)
N3 N 0.2474(11) -0.0418(3) 0.6516(4)
N4 N 0.3796(11) 0.6112(3) 0.6932(4)
C1 C 0.3411(12) 0.5727(4) 0.6486(5)
C2 C 0.2998(11) 0.5221(3) 0.5928(4)
C3 C 0.2680(11) 0.5354(4) 0.5144(5)
H1 H 0.2676 0.5781 0.4974
C4 C 0.2375(13) 0.4862(4) 0.4624(4)
H2 H 0.2193 0.4955 0.4099
C5 C 0.2337(11) 0.4226(4) 0.4872(4)
H3 H 0.2125 0.3892 0.4515
C6 C 0.2617(10) 0.4084(3) 0.5663(4)
C7 C 0.2926(11) 0.4589(3) 0.6183(4)
H4 H 0.3086 0.4501 0.6709
C8 C 0.2454(11) 0.3424(3) 0.5939(4)
C9 C 0.2300(11) 0.2397(3) 0.5873(4)
C10 C 0.2374(11) 0.1749(3) 0.5527(4)
C11 C 0.2458(14) 0.1679(4) 0.4749(4)
H5 H 0.2478 0.2042 0.4434
C12 C 0.2513(17) 0.1070(4) 0.4441(5)
H6 H 0.2556 0.1022 0.3912
C13 C 0.2506(14) 0.0531(4) 0.4892(5)
H7 H 0.2535 0.0120 0.4675
C14 C 0.2453(11) 0.0605(3) 0.5681(4)
C15 C 0.2392(11) 0.1210(3) 0.5996(4)
H8 H 0.2363 0.1259 0.6525
C16 C 0.2475(12) 0.0035(4) 0.6171(4)
C17 C -0.2851(13) 0.1815(4) 0.6588(5)
H9 H -0.3197 0.2126 0.6172
C18 C -0.3598(13) 0.1930(4) 0.7267(6)
H10 H -0.4375 0.2324 0.7293
C19 C -0.4026(13) 0.1422(5) 0.7733(5)
H11 H -0.4555 0.1500 0.8192
C20 C -0.3661(14) 0.0800(5) 0.7509(5)
H12 H -0.3953 0.0457 0.7823
C21 C -0.2879(14) 0.0672(4) 0.6835(5)
H13 H -0.2602 0.0248 0.6700
C22 C -0.2514(13) 0.1181(5) 0.6363(5)
H14 H -0.2039 0.1103 0.5893
Cl2 Cl 0.2448(4) 0.25236(12) 0.92259(13)
O1 O 0.2590(7) 0.2926(2) 0.5447(2)
O6 O 0.3045(13) 0.2643(3) 0.8498(4)
O7 O 0.2520(15) 0.3103(4) 0.9639(5)
O8 O 0.3669(13) 0.2050(4) 0.9575(5)
O9 O 0.0529(11) 0.2298(4) 0.9091(6)
Ag1A Ag 0.26360(11) -0.13238(3) 0.71790(3)
Ag2A Ag 0.48081(10) 0.70736(3) 0.75121(3)
N3A N 0.2526(11) 0.4582(3) 0.8484(4)
N4A N 0.1204(11) 0.1112(3) 0.8068(4)
Cl1 Cl 0.7623(3) 0.37641(9) 0.71371(12)
O2 O 0.6845(10) 0.3442(3) 0.6459(3)
O3 O 0.6103(9) 0.4049(3) 0.7504(3)
O4 O 0.8922(9) 0.4260(3) 0.6962(4)
O5 O 0.8635(8) 0.3308(2) 0.7658(3)
loop_
_geom_bond_atom_site_label_1
_geom_bond_atom_site_label_2
_geom_bond_site_symmetry_1
_geom_bond_site_symmetry_2
Ag1 N2 1_555 1_555
Ag2 N1 1_555 1_555
N1 N2 1_555 1_555
N2 C8 1_555 1_555
N3 C16 1_555 1_555
N4 C1 1_555 1_555
C1 C2 1_555 1_555
C2 C3 1_555 1_555
C3 H1 1_555 1_555
C4 C3 1_555 1_555
H2 C4 1_555 1_555
C5 C4 1_555 1_555
H3 C5 1_555 1_555
C6 C5 1_555 1_555
C7 C2 1_555 1_555
H4 C7 1_555 1_555
C8 C6 1_555 1_555
C9 N1 1_555 1_555
C10 C9 1_555 1_555
C11 C10 1_555 1_555
H5 C11 1_555 1_555
C12 C11 1_555 1_555
H6 C12 1_555 1_555
C13 C12 1_555 1_555
H7 C13 1_555 1_555
C14 C13 1_555 1_555
C15 C10 1_555 1_555
H8 C15 1_555 1_555
C16 C14 1_555 1_555
C17 Ag2 1_555 1_555
H9 C17 1_555 1_555
C18 Ag2 1_555 1_555
H10 C18 1_555 1_555
C19 C18 1_555 1_555
H11 C19 1_555 1_555
C20 C19 1_555 1_555
H12 C20 1_555 1_555
C21 C20 1_555 1_555
H13 C21 1_555 1_555
C22 C17 1_555 1_555
H14 C22 1_555 1_555
Cl1 O2 1_555 1_555
Cl2 O6 1_555 1_555
O1 C8 1_555 1_555
O3 Cl1 1_555 1_555
O4 Cl1 1_555 1_555
O5 Cl1 1_555 1_555
O6 Ag1 1_555 1_555
O7 Cl2 1_555 1_555
O8 Cl2 1_555 1_555
O9 Cl2 1_555 1_555
Ag1A N3 1_555 1_555
Ag2A N4 1_555 1_555
N3A Ag1 1_555 1_555
N4A Ag2 1_555 1_555
C6 C7 1_555 1_555
C9 O1 1_555 1_555
C14 C15 1_555 1_555
C17 C18 1_555 1_555
C21 C22 1_555 1_555

#END
