
#######################################################################
#
#                 Cambridge Crystallographic Data Centre
#                                CCDC 
#
#######################################################################
#
# If this CIF has been generated from an entry in the Cambridge 
# Structural Database, then it will include bibliographic, chemical, 
# crystal, experimental, refinement or atomic coordinate data resulting 
# from the CCDC's data processing and validation procedures.
#
#######################################################################

data_LARNAV
_symmetry_cell_setting           monoclinic
_symmetry_space_group_name_H-M   'P 21/n'
_symmetry_Int_Tables_number      14
_space_group_name_Hall           '-P 2yn'
loop_
_symmetry_equiv_pos_site_id
_symmetry_equiv_pos_as_xyz
1 x,y,z
2 1/2-x,1/2+y,1/2-z
3 -x,-y,-z
4 1/2+x,1/2-y,1/2+z
_cell_length_a                   11.691(4)
_cell_length_b                   7.321(2)
_cell_length_c                   29.609(9)
_cell_angle_alpha                90
_cell_angle_beta                 95.737(6)
_cell_angle_gamma                90
_cell_volume                     2521.54
loop_
_atom_site_label
_atom_site_type_symbol
_atom_site_fract_x
_atom_site_fract_y
_atom_site_fract_z
Dy1 Dy 0.99732(6) 0.76064(11) 0.73876(3)
Dy2 Dy 0.82366(6) 0.31550(10) 0.75233(2)
C1 C 1.0524(16) 0.454(3) 0.8188(6)
C2 C 1.130(2) 0.479(3) 0.8621(7)
H1 H 1.1993 0.5399 0.8605
C3 C 1.1078(19) 0.422(3) 0.9006(7)
H2 H 1.0420 0.3505 0.9010
C4 C 1.1746(17) 0.456(3) 0.9452(7)
C5 C 1.283(2) 0.541(3) 0.9500(7)
H3 H 1.3186 0.5720 0.9244
C6 C 1.3363(18) 0.580(3) 0.9938(6)
H4 H 1.4086 0.6338 0.9967
C7 C 1.1270(18) 0.411(3) 0.9836(7)
H5 H 1.0568 0.3502 0.9811
C8 C 1.1784(17) 0.452(3) 1.0258(7)
H6 H 1.1414 0.4198 1.0511
C9 C 1.2845(15) 0.539(3) 1.0323(6)
C10 C 1.3432(15) 0.583(2) 1.0771(6)
H7 H 1.4202 0.6168 1.0782
C11 C 1.2979(15) 0.580(2) 1.1154(6)
H8 H 1.2207 0.5500 1.1156
C12 C 1.3682(15) 0.624(2) 1.1595(5)
C13 C 0.9095(15) 0.971(2) 0.8231(5)
C14 C 0.9016(15) 1.008(2) 0.8717(6)
H9 H 0.8406 1.0776 0.8802
C15 C 0.9799(15) 0.945(2) 0.9036(6)
H10 H 1.0377 0.8734 0.8932
C16 C 0.9871(16) 0.972(2) 0.9525(6)
C17 C 1.0869(16) 0.924(3) 0.9793(6)
H11 H 1.1469 0.8715 0.9654
C18 C 0.8997(15) 1.050(2) 0.9750(6)
H12 H 0.8313 1.0846 0.9584
C19 C 0.8994(14) 0.398(2) 0.6654(5)
C20 C 0.9530(17) 0.451(3) 0.6251(7)
H13 H 1.0192 0.5226 0.6285
C21 C 0.9105(16) 0.402(3) 0.5836(6)
H14 H 0.8452 0.3284 0.5812
C22 C 0.9582(16) 0.452(3) 0.5415(6)
C23 C 0.8971(17) 0.410(3) 0.4999(6)
H15 H 0.8274 0.3487 0.4994
C24 C 1.0616(16) 0.542(3) 0.5404(7)
H16 H 1.1045 0.5715 0.5676
C25 C 1.0869(16) 1.136(3) 0.7396(6)
H17 H 1.1196 1.2516 0.7389
O1 O 0.9643(10) 0.3559(17) 0.8163(4)
O2 O 1.0859(10) 0.5450(17) 0.7865(4)
O3 O 1.3153(10) 0.6449(16) 1.1951(4)
O4 O 1.4731(10) 0.6446(16) 1.1607(4)
O5 O 0.8256(11) 1.0217(18) 0.7944(4)
O6 O 0.9926(10) 0.8812(17) 0.8128(4)
O7 O 0.9347(10) 0.4840(16) 0.7031(4)
O8 O 0.8248(10) 0.2791(15) 0.6663(4)
O9 O 1.1634(11) 0.6510(19) 0.7046(5)
H18 H 1.1968 0.5967 0.6842
H19 H 1.1996 0.6250 0.7302
O10 O 0.8333(9) 0.6321(15) 0.7711(4)
H20 H 0.8456 0.6408 0.7998
O11 O 0.9784(10) 1.1173(17) 0.7355(4)
O12 O 1.1494(10) 0.9971(18) 0.7445(5)
Dy1C Dy 0.49732(6) 0.73936(11) 0.23876(3)
Dy1C_2 Dy 1.49732(6) 0.73936(11) 1.23876(3)
Dy1B Dy 1.00268(6) 1.23936(11) 1.26124(3)
Dy1B_2 Dy 1.00268(6) 0.23936(11) 0.26124(3)
Dy1A Dy 0.50268(6) 0.26064(11) 0.76124(3)
Dy1_2 Dy 0.99732(6) -0.23936(11) 0.73876(3)
Dy2C Dy 0.32366(6) 1.18450(10) 0.25233(2)
Dy2B Dy 1.17634(6) 0.68450(10) 1.24767(2)
Dy2A Dy 0.67634(6) 0.81550(10) 0.74767(2)
Dy2_2 Dy 0.82366(6) 1.31550(10) 0.75233(2)
Dy2C_2 Dy 1.32366(6) 1.18450(10) 1.25233(2)
Dy2B_2 Dy 1.17634(6) 0.68450(10) 0.24767(2)
Dy2A_2 Dy 0.67634(6) -0.18450(10) 0.74767(2)
C1C C 0.5524(16) 1.046(3) 0.3188(6)
C2C C 0.630(2) 1.021(3) 0.3621(7)
H1C H 0.6993 0.9601 0.3605
C3C C 0.6078(19) 1.078(3) 0.4006(7)
H2C H 0.5420 1.1495 0.4010
C4C C 0.6746(17) 1.044(3) 0.4452(7)
C5C C 0.783(2) 0.959(3) 0.4500(7)
H3C H 0.8186 0.9280 0.4244
C6C C 0.8363(18) 0.920(3) 0.4938(6)
H4C H 0.9086 0.8662 0.4967
C7C C 0.6270(18) 1.089(3) 0.4836(7)
H5C H 0.5568 1.1498 0.4811
C8C C 0.6784(17) 1.048(3) 0.5258(7)
H6C H 0.6414 1.0802 0.5511
C9C C 0.7845(15) 0.961(3) 0.5323(6)
C10C C 0.8432(15) 0.917(2) 0.5771(6)
H7C H 0.9202 0.8832 0.5782
C11C C 0.7979(15) 0.920(2) 0.6154(6)
H8C H 0.7207 0.9500 0.6156
C12C C 0.8682(15) 0.876(2) 0.6595(5)
C13B C 1.0905(15) 1.029(2) 1.1769(5)
C14B C 1.0984(15) 0.992(2) 1.1283(6)
H9B H 1.1594 0.9224 1.1198
C15B C 1.0201(15) 1.055(2) 1.0964(6)
H10B H 0.9623 1.1266 1.1068
C16B C 1.0129(16) 1.028(2) 1.0475(6)
C17B C 0.9131(16) 1.076(3) 1.0207(6)
H11B H 0.8531 1.1285 1.0346
C18B C 1.1003(15) 0.950(2) 1.0250(6)
H12B H 1.1687 0.9154 1.0416
C19B C 1.1006(14) 0.602(2) 0.3346(5)
C20B C 1.0470(17) 0.549(3) 0.3749(7)
H13B H 0.9808 0.4774 0.3715
C21B C 1.0895(16) 0.598(3) 0.4164(6)
H14B H 1.1548 0.6716 0.4188
C22B C 1.0418(16) 0.548(3) 0.4585(6)
C23B C 1.1029(17) 0.590(3) 0.5001(6)
H15B H 1.1726 0.6513 0.5006
C24B C 0.9384(16) 0.458(3) 0.4596(7)
H16B H 0.8955 0.4285 0.4324
C25_2 C 1.0869(16) 0.136(3) 0.7396(6)
H17_2 H 1.1196 0.2516 0.7389
O1C O 0.4643(10) 1.1441(17) 0.3163(4)
O2C O 0.5859(10) 0.9550(17) 0.2865(4)
O3C O 0.8153(10) 0.8551(16) 0.6951(4)
O3B O 0.6847(10) 0.3551(16) 0.8049(4)
O3_2 O 0.3153(10) 0.6449(16) 0.1951(4)
O3A O 0.1847(10) 1.1449(16) 0.3049(4)
O4C O 0.9731(10) 0.8554(16) 0.6607(4)
O4_2 O 0.4731(10) 0.6446(16) 0.1607(4)
O5B O 1.1744(11) 0.9783(18) 1.2056(4)
O5A O 0.6744(11) 0.5217(18) 0.7056(4)
O5_2 O 0.8256(11) 0.0217(18) 0.7944(4)
O5B_2 O 0.1744(11) 0.9783(18) 0.2056(4)
O5C O 0.3256(11) 1.4783(18) 0.2944(4)
O6B O 1.0074(10) 1.1188(17) 1.1872(4)
O6C O 0.4926(10) 0.6188(17) 0.3128(4)
O7B O 1.0653(10) 0.5160(16) 0.2969(4)
O7C O 0.4347(10) 1.0160(16) 0.2031(4)
O8B O 1.1752(10) 0.7209(15) 0.3337(4)
O8C O 0.3248(10) 1.2209(15) 0.1663(4)
O9C O 0.6634(11) 0.8490(19) 0.2046(5)
H18C H 0.6968 0.9033 0.1842
H19C H 0.6996 0.8750 0.2302
O10A O 0.6667(9) 0.1321(15) 0.7289(4)
O10C O 0.3333(9) 0.8679(15) 0.2711(4)
O10B O 0.1667(9) 1.3679(15) 0.2289(4)
H20A H 0.6544 0.1408 0.7002
H20C H 0.3456 0.8592 0.2998
H20B H 0.1544 1.3592 0.2002
O11_2 O 0.9784(10) 0.1173(17) 0.7355(4)
O11C O 0.4784(10) 0.3827(17) 0.2355(4)
O11C_2 O 0.4784(10) 1.3827(17) 0.2355(4)
O12_2 O 1.1494(10) -0.0029(18) 0.7445(5)
O12C O 0.6494(10) 0.5029(18) 0.2445(5)
loop_
_geom_bond_atom_site_label_1
_geom_bond_atom_site_label_2
_geom_bond_site_symmetry_1
_geom_bond_site_symmetry_2
Dy1 O2 1_555 1_555
Dy2 O1 1_555 1_555
C1 C2 1_555 1_555
C2 H1 1_555 1_555
C3 C2 1_555 1_555
H2 C3 1_555 1_555
C4 C3 1_555 1_555
C5 C4 1_555 1_555
H3 C5 1_555 1_555
C6 C5 1_555 1_555
H4 C6 1_555 1_555
C7 C4 1_555 1_555
H5 C7 1_555 1_555
C8 C7 1_555 1_555
H6 C8 1_555 1_555
C9 C6 1_555 1_555
C10 C9 1_555 1_555
H7 C10 1_555 1_555
C11 C10 1_555 1_555
H8 C11 1_555 1_555
C12 C11 1_555 1_555
C13 C14 1_555 1_555
C14 H9 1_555 1_555
C15 C14 1_555 1_555
H10 C15 1_555 1_555
C16 C15 1_555 1_555
C17 C16 1_555 1_555
H11 C17 1_555 1_555
C18 C16 1_555 1_555
H12 C18 1_555 1_555
C19 C20 1_555 1_555
C20 H13 1_555 1_555
C21 C20 1_555 1_555
H14 C21 1_555 1_555
C22 C21 1_555 1_555
C23 C22 1_555 1_555
H15 C23 1_555 1_555
C24 C22 1_555 1_555
H16 C24 1_555 1_555
C25 H17 1_555 1_555
O1 C1 1_555 1_555
O2 C1 1_555 1_555
O3 C12 1_555 1_555
O4 C12 1_555 1_555
O5 C13 1_555 1_555
O6 Dy1 1_555 1_555
O7 Dy1 1_555 1_555
O8 Dy2 1_555 1_555
O9 Dy1 1_555 1_555
H18 O9 1_555 1_555
H19 O9 1_555 1_555
O10 Dy1 1_555 1_555
H20 O10 1_555 1_555
O11 Dy1 1_555 1_555
O12 Dy1 1_555 1_555
Dy1C O2C 1_555 1_555
Dy1C_2 O3 1_555 1_555
Dy1B O6B 1_555 1_555
Dy1B_2 O7B 1_555 1_555
Dy1A O3B 1_555 1_555
Dy1_2 O11_2 1_555 1_555
Dy2C O1C 1_555 1_555
Dy2B O3 1_555 1_555
Dy2A O5 1_555 1_555
Dy2_2 O5 1_555 1_555
Dy2C_2 O5B 1_555 1_555
Dy2B_2 O7B 1_555 1_555
Dy2A_2 O5_2 1_555 1_555
C1C C2C 1_555 1_555
C2C H1C 1_555 1_555
C3C C2C 1_555 1_555
H2C C3C 1_555 1_555
C4C C3C 1_555 1_555
C5C C4C 1_555 1_555
H3C C5C 1_555 1_555
C6C C5C 1_555 1_555
H4C C6C 1_555 1_555
C7C C4C 1_555 1_555
H5C C7C 1_555 1_555
C8C C7C 1_555 1_555
H6C C8C 1_555 1_555
C9C C6C 1_555 1_555
C10C C9C 1_555 1_555
H7C C10C 1_555 1_555
C11C C10C 1_555 1_555
H8C C11C 1_555 1_555
C12C C11C 1_555 1_555
C13B C14B 1_555 1_555
C14B H9B 1_555 1_555
C15B C14B 1_555 1_555
H10B C15B 1_555 1_555
C16B C15B 1_555 1_555
C17B C18 1_555 1_555
H11B C17B 1_555 1_555
C18B C17 1_555 1_555
H12B C18B 1_555 1_555
C19B C20B 1_555 1_555
C20B H13B 1_555 1_555
C21B C20B 1_555 1_555
H14B C21B 1_555 1_555
C22B C21B 1_555 1_555
C23B C24 1_555 1_555
H15B C23B 1_555 1_555
C24B C23 1_555 1_555
H16B C24B 1_555 1_555
C25_2 H17_2 1_555 1_555
O1C C1C 1_555 1_555
O2C C1C 1_555 1_555
O3C Dy1 1_555 1_555
O3B Dy2 1_555 1_555
O3_2 Dy1C 1_555 1_555
O3A Dy2C 1_555 1_555
O4C Dy1 1_555 1_555
O4_2 Dy1C 1_555 1_555
O5B Dy2B 1_555 1_555
O5A Dy2 1_555 1_555
O5_2 Dy2 1_555 1_555
O5B_2 Dy2C 1_555 1_555
O5C Dy2C 1_555 1_555
O6B C13B 1_555 1_555
O6C Dy1C 1_555 1_555
O7B C19B 1_555 1_555
O7C Dy1C 1_555 1_555
O8B Dy2B_2 1_555 1_555
O8C Dy2C 1_555 1_555
O9C Dy1C 1_555 1_555
H18C O9C 1_555 1_555
H19C O9C 1_555 1_555
O10A Dy2 1_555 1_555
O10C Dy1C 1_555 1_555
O10B Dy2C 1_555 1_555
H20A O10A 1_555 1_555
H20C O10C 1_555 1_555
H20B O10B 1_555 1_555
O11_2 Dy2 1_555 1_555
O11C Dy1C 1_555 1_555
O11C_2 Dy2C 1_555 1_555
O12_2 Dy1_2 1_555 1_555
O12C Dy1C 1_555 1_555
Dy2 O7 1_555 1_555
Dy2 O10 1_555 1_555
C8 C9 1_555 1_555
C13 O6 1_555 1_555
C19 O7 1_555 1_555
C19 O8 1_555 1_555
C25 O11 1_555 1_555
C25 O12 1_555 1_555
O4 Dy1C_2 1_555 1_555
O10 Dy2A 1_555 1_555
O11 Dy2_2 1_555 1_555
Dy1A O10A 1_555 1_555
Dy2C O7C 1_555 1_555
Dy2C O10C 1_555 1_555
Dy2A O3C 1_555 1_555
Dy2A O5A 1_555 1_555
Dy2A_2 O10A 1_555 1_555
C8C C9C 1_555 1_555
C12C O3C 1_555 1_555
C12C O4C 1_555 1_555
C13B O5B 1_555 1_555
C16B C17B 1_555 1_555
C16B C18B 1_555 1_555
C19B O8B 1_555 1_555
C22B C23B 1_555 1_555
C22B C24B 1_555 1_555
C25_2 O11_2 1_555 1_555
C25_2 O12_2 1_555 1_555

#END
