
#######################################################################
#
#                 Cambridge Crystallographic Data Centre
#                                CCDC 
#
#######################################################################
#
# If this CIF has been generated from an entry in the Cambridge 
# Structural Database, then it will include bibliographic, chemical, 
# crystal, experimental, refinement or atomic coordinate data resulting 
# from the CCDC's data processing and validation procedures.
#
#######################################################################

data_LARQIF
_symmetry_cell_setting           orthorhombic
_symmetry_space_group_name_H-M   'I m m 2'
_symmetry_Int_Tables_number      44
_space_group_name_Hall           'I 2 -2'
loop_
_symmetry_equiv_pos_site_id
_symmetry_equiv_pos_as_xyz
1 x,y,z
2 -x,-y,z
3 x,-y,z
4 -x,y,z
5 1/2+x,1/2+y,1/2+z
6 1/2-x,1/2-y,1/2+z
7 1/2+x,1/2-y,1/2+z
8 1/2-x,1/2+y,1/2+z
_cell_length_a                   9.4920(5)
_cell_length_b                   10.3825(3)
_cell_length_c                   7.2533(3)
_cell_angle_alpha                90
_cell_angle_beta                 90
_cell_angle_gamma                90
_cell_volume                     714.818
loop_
_atom_site_label
_atom_site_type_symbol
_atom_site_fract_x
_atom_site_fract_y
_atom_site_fract_z
Zn1 Zn 0.0000 0.5000 0.39279(3)
O1 O 0.15119(17) 0.35564(16) 0.3819(4)
H1 H 0.2096 0.3673 0.4634
H2 H 0.1604 0.2734 0.3200
N1 N 0.0000 0.5000 0.0831(9)
N2 N 0.0000 0.5000 -0.3031(9)
C1 C 0.1203(6) 0.5000 -0.0122(6)
H3 H 0.2059 0.5000 0.0503
C2 C 0.1193(7) 0.5000 -0.2027(6)
H4 H 0.2051 0.5000 -0.2646
Zn1_2 Zn 0.0000 0.5000 -0.60721(3)
O1A O -0.15119(17) 0.64436(16) 0.3819(4)
O1B O 0.15119(17) 0.64436(16) 0.3819(4)
O1C O -0.15119(17) 0.35564(16) 0.3819(4)
H1A H -0.2096 0.6327 0.4634
H1B H 0.2096 0.6327 0.4634
H1C H -0.2096 0.3673 0.4634
H2A H -0.1604 0.7266 0.3200
H2B H 0.1604 0.7266 0.3200
H2C H -0.1604 0.2734 0.3200
N2_2 N 0.0000 0.5000 0.6969(9)
C1A C -0.1203(6) 0.5000 -0.0122(6)
H3A H -0.2059 0.5000 0.0503
C2A C -0.1193(7) 0.5000 -0.2027(6)
H4A H -0.2051 0.5000 -0.2646
O2 O 0.6175(2) 0.67821(19) 0.6037(3)
C3 C 0.5000 0.5669(4) 0.0282(5)
H5 H 0.5000 0.6120 -0.0826
C4 C 0.5000 0.6330(6) 0.1956(7)
H6 H 0.5000 0.7226 0.1952
C5 C 0.5000 0.5680(3) 0.3621(5)
C6 C 0.5000 0.6460(5) 0.5382(7)
O2C O 0.3825(2) 0.67821(19) 0.6037(3)
O2A O 0.3825(2) 0.32179(19) 0.6037(3)
O2B O 0.6175(2) 0.32179(19) 0.6037(3)
C3A C 0.5000 0.4331(4) 0.0282(5)
H5A H 0.5000 0.3880 -0.0826
C4A C 0.5000 0.3670(6) 0.1956(7)
H6A H 0.5000 0.2774 0.1952
C5A C 0.5000 0.4320(3) 0.3621(5)
C6A C 0.5000 0.3540(5) 0.5382(7)
loop_
_geom_bond_atom_site_label_1
_geom_bond_atom_site_label_2
_geom_bond_site_symmetry_1
_geom_bond_site_symmetry_2
Zn1 O1 1_555 1_555
O1 H1 1_555 1_555
H2 O1 1_555 1_555
O2 C6 1_555 1_555
N1 Zn1 1_555 1_555
N2 C2 1_555 1_555
C1 N1 1_555 1_555
H3 C1 1_555 1_555
C2 C1 1_555 1_555
H4 C2 1_555 1_555
C3 H5 1_555 1_555
C4 C3 1_555 1_555
H6 C4 1_555 1_555
C5 C4 1_555 1_555
C6 C5 1_555 1_555
Zn1_2 N2 1_555 1_555
O1A Zn1 1_555 1_555
O1B Zn1 1_555 1_555
O1C Zn1 1_555 1_555
H1A O1A 1_555 1_555
H1B O1B 1_555 1_555
H1C O1C 1_555 1_555
H2A O1A 1_555 1_555
H2B O1B 1_555 1_555
H2C O1C 1_555 1_555
O2C C6 1_555 1_555
O2A C6A 1_555 1_555
O2B C6A 1_555 1_555
N2_2 Zn1 1_555 1_555
C1A N1 1_555 1_555
H3A C1A 1_555 1_555
C2A N2 1_555 1_555
H4A C2A 1_555 1_555
C3A C3 1_555 1_555
H5A C3A 1_555 1_555
C4A C3A 1_555 1_555
H6A C4A 1_555 1_555
C5A C5 1_555 1_555
C6A C5A 1_555 1_555
C1A C2A 1_555 1_555
C4A C5A 1_555 1_555

#END
