
#######################################################################
#
#                 Cambridge Crystallographic Data Centre
#                                CCDC 
#
#######################################################################
#
# If this CIF has been generated from an entry in the Cambridge 
# Structural Database, then it will include bibliographic, chemical, 
# crystal, experimental, refinement or atomic coordinate data resulting 
# from the CCDC's data processing and validation procedures.
#
#######################################################################

data_LARRED
_symmetry_cell_setting           triclinic
_symmetry_space_group_name_H-M   'P -1'
_symmetry_Int_Tables_number      2
_space_group_name_Hall           '-P 1'
loop_
_symmetry_equiv_pos_site_id
_symmetry_equiv_pos_as_xyz
1 x,y,z
2 -x,-y,-z
_cell_length_a                   10.6096(5)
_cell_length_b                   10.7752(5)
_cell_length_c                   16.4584(8)
_cell_angle_alpha                71.4554(18)
_cell_angle_beta                 82.638(2)
_cell_angle_gamma                81.271(2)
_cell_volume                     1756.76
loop_
_atom_site_label
_atom_site_type_symbol
_atom_site_fract_x
_atom_site_fract_y
_atom_site_fract_z
Ag1 Ag 0.56936(3) 0.44513(4) -0.06372(2)
C1 C 0.7035(4) 0.4740(5) 0.0110(3)
N1 N 0.7826(3) 0.3721(4) 0.0592(2)
C2 C 0.8731(4) 0.4196(5) 0.0910(3)
C3 C 0.9743(5) 0.3558(5) 0.1396(3)
H1 H 0.9911 0.2644 0.1581
C4 C 1.0488(5) 0.4345(6) 0.1591(3)
H2 H 1.1182 0.3947 0.1912
C5 C 1.0247(5) 0.5713(6) 0.1327(3)
H3 H 1.0770 0.6205 0.1482
C6 C 0.9239(5) 0.6351(5) 0.0838(3)
H4 H 0.9068 0.7265 0.0663
C7 C 0.8496(4) 0.5582(4) 0.0617(3)
N2 N 0.7440(3) 0.5853(4) 0.0146(2)
C8 C 0.7766(5) 0.2337(5) 0.0711(4)
H5 H 0.6921 0.2218 0.0622
H6 H 0.7960 0.1828 0.1285
H7 H 0.8376 0.2050 0.0305
C9 C 0.6819(5) 0.7191(5) -0.0237(3)
H8 H 0.6216 0.7174 -0.0629
H9 H 0.7458 0.7755 -0.0564
C10 C 0.6129(4) 0.7735(5) 0.0453(3)
N3 N 0.5188(3) 0.7089(4) 0.0942(3)
C11 C 0.4601(5) 0.7511(7) 0.1595(4)
H10 H 0.3937 0.7069 0.1933
C12 C 0.4928(7) 0.8555(8) 0.1786(6)
H11 H 0.4515 0.8795 0.2257
C13 C 0.5870(7) 0.9246(8) 0.1277(6)
H12 H 0.6092 0.9977 0.1386
C14 C 0.6490(6) 0.8836(6) 0.0596(5)
H13 H 0.7135 0.9287 0.0240
Ag2 Ag 0.47762(4) 0.86903(4) -0.48842(3)
N4 N 0.2434(4) 1.0297(4) -0.5819(3)
C15 C 0.3039(4) 0.9983(5) -0.5091(3)
C16 C 0.1279(4) 1.1059(5) -0.5758(3)
C17 C 0.0325(6) 1.1576(6) -0.6326(4)
H14 H 0.0399 1.1445 -0.6863
C18 C -0.0730(6) 1.2289(6) -0.6047(5)
H15 H -0.1376 1.2669 -0.6413
C19 C -0.0866(5) 1.2462(6) -0.5241(5)
H16 H -0.1604 1.2944 -0.5079
C20 C 0.0059(5) 1.1941(5) -0.4676(4)
H17 H -0.0033 1.2056 -0.4134
C21 C 0.1154(4) 1.1223(4) -0.4956(3)
N5 N 0.2251(3) 1.0564(4) -0.4563(2)
C22 C 0.2928(7) 0.9851(7) -0.6551(4)
H18 H 0.3673 0.9223 -0.6408
H19 H 0.3154 1.0590 -0.7029
H20 H 0.2286 0.9444 -0.6702
C23 C 0.2549(5) 1.0574(5) -0.3728(3)
H21 H 0.3272 0.9917 -0.3543
H22 H 0.1823 1.0333 -0.3312
C24 C 0.2860(4) 1.1885(5) -0.3739(3)
N6 N 0.3806(4) 1.2388(4) -0.4308(3)
C25 C 0.4091(6) 1.3561(6) -0.4326(4)
H23 H 0.4746 1.3923 -0.4723
C26 C 0.3480(7) 1.4271(7) -0.3797(5)
H24 H 0.3720 1.5083 -0.3832
C27 C 0.2523(7) 1.3755(8) -0.3224(5)
H25 H 0.2092 1.4207 -0.2855
C28 C 0.2192(6) 1.2553(7) -0.3193(4)
H26 H 0.1526 1.2191 -0.2809
P2 P 0.50234(19) 0.68078(17) -0.26881(10)
F7 F 0.3698(6) 0.6318(9) -0.2502(5)
F8 F 0.4654(7) 0.8025(6) -0.2400(4)
O1 O 0.5803(7) 0.5881(6) -0.2094(3)
O2 O 0.5348(7) 0.7164(6) -0.3591(3)
Ag1A Ag 0.43064(3) 0.55487(4) 0.06372(2)
Ag1A_2 Ag 0.43064(3) 1.55487(4) -0.93628(2)
C1A C 0.2965(4) 0.5260(5) -0.0110(3)
N1A N 0.2174(3) 0.6279(4) -0.0592(2)
C2A C 0.1269(4) 0.5804(5) -0.0910(3)
C3A C 0.0257(5) 0.6442(5) -0.1396(3)
H1A H 0.0089 0.7356 -0.1581
C4A C -0.0488(5) 0.5655(6) -0.1591(3)
H2A H -0.1182 0.6053 -0.1912
C5A C -0.0247(5) 0.4287(6) -0.1327(3)
H3A H -0.0770 0.3795 -0.1482
C6A C 0.0761(5) 0.3649(5) -0.0838(3)
H4A H 0.0932 0.2735 -0.0663
C7A C 0.1504(4) 0.4418(4) -0.0617(3)
N2A N 0.2560(3) 0.4147(4) -0.0146(2)
C8A C 0.2234(5) 0.7663(5) -0.0711(4)
H5A H 0.3079 0.7782 -0.0622
H6A H 0.2040 0.8172 -0.1285
H7A H 0.1624 0.7950 -0.0305
C9A C 0.3181(5) 0.2809(5) 0.0237(3)
H8A H 0.3784 0.2826 0.0629
H9A H 0.2542 0.2245 0.0564
C10A C 0.3871(4) 0.2265(5) -0.0453(3)
N3A N 0.4812(3) 0.2911(4) -0.0942(3)
C11A C 0.5399(5) 0.2489(7) -0.1595(4)
H10A H 0.6063 0.2931 -0.1933
C12A C 0.5072(7) 0.1445(8) -0.1786(6)
H11A H 0.5485 0.1205 -0.2257
C13A C 0.4130(7) 0.0754(8) -0.1277(6)
H12A H 0.3908 0.0023 -0.1386
C14A C 0.3510(6) 0.1164(6) -0.0596(5)
H13A H 0.2865 0.0713 -0.0240
Ag2A Ag 0.52238(4) 1.13097(4) -0.51158(3)
N4A N 0.7566(4) 0.9703(4) -0.4181(3)
C15A C 0.6961(4) 1.0017(5) -0.4909(3)
C16A C 0.8721(4) 0.8941(5) -0.4242(3)
C17A C 0.9675(6) 0.8424(6) -0.3674(4)
H14A H 0.9601 0.8555 -0.3137
C18A C 1.0730(6) 0.7711(6) -0.3953(5)
H15A H 1.1376 0.7331 -0.3587
C19A C 1.0866(5) 0.7538(6) -0.4759(5)
H16A H 1.1604 0.7056 -0.4921
C20A C 0.9941(5) 0.8059(5) -0.5324(4)
H17A H 1.0033 0.7944 -0.5866
C21A C 0.8846(4) 0.8777(4) -0.5044(3)
N5A N 0.7749(3) 0.9436(4) -0.5437(2)
C22A C 0.7072(7) 1.0149(7) -0.3449(4)
H18A H 0.6327 1.0777 -0.3592
H19A H 0.6846 0.9410 -0.2971
H20A H 0.7714 1.0556 -0.3298
C23A C 0.7451(5) 0.9426(5) -0.6272(3)
H21A H 0.6728 1.0083 -0.6457
H22A H 0.8177 0.9667 -0.6688
C24A C 0.7140(4) 0.8115(5) -0.6261(3)
N6A N 0.6194(4) 0.7612(4) -0.5692(3)
C25A C 0.5909(6) 0.6439(6) -0.5674(4)
H23A H 0.5254 0.6077 -0.5277
C26A C 0.6520(7) 0.5729(7) -0.6203(5)
H24A H 0.6280 0.4917 -0.6168
C27A C 0.7477(7) 0.6245(8) -0.6776(5)
H25A H 0.7908 0.5793 -0.7145
C28A C 0.7808(6) 0.7447(7) -0.6807(4)
H26A H 0.8474 0.7809 -0.7191
P2A P 0.49766(19) 1.31922(17) -0.73119(10)
F7A F 0.6302(6) 1.3682(9) -0.7498(5)
F8A F 0.5346(7) 1.1975(6) -0.7600(4)
O1A O 0.4197(7) 0.4119(6) 0.2094(3)
O1A_2 O 0.4197(7) 1.4119(6) -0.7906(3)
O2A O 0.4652(7) 1.2836(6) -0.6409(3)
P1 P 0.07954(14) 0.94222(14) 0.15718(9)
F1 F 0.0678(5) 1.0681(5) 0.0757(3)
F2 F 0.0990(6) 0.8187(5) 0.2354(3)
F3 F 0.2001(6) 0.9954(7) 0.1714(4)
F4 F -0.0066(5) 1.0134(5) 0.2163(3)
F5 F 0.1661(6) 0.8661(6) 0.0984(4)
F6 F -0.0409(5) 0.8991(6) 0.1343(4)
N7 N 0.3072(8) 0.6322(9) 0.3827(6)
C29 C 0.2459(8) 0.5618(8) 0.3750(5)
C30 C 0.1655(11) 0.4816(12) 0.3605(8)
H27 H 0.0780 0.5179 0.3682
H28 H 0.1791 0.3947 0.4004
H29 H 0.1839 0.4771 0.3028
loop_
_geom_bond_atom_site_label_1
_geom_bond_atom_site_label_2
_geom_bond_site_symmetry_1
_geom_bond_site_symmetry_2
Ag1 C1 1_555 1_555
C1 N1 1_555 1_555
N1 C2 1_555 1_555
C2 C3 1_555 1_555
C3 H1 1_555 1_555
C4 C3 1_555 1_555
H2 C4 1_555 1_555
C5 C4 1_555 1_555
H3 C5 1_555 1_555
C6 C5 1_555 1_555
H4 C6 1_555 1_555
C7 C2 1_555 1_555
N2 C1 1_555 1_555
C8 N1 1_555 1_555
H5 C8 1_555 1_555
H6 C8 1_555 1_555
H7 C8 1_555 1_555
C9 N2 1_555 1_555
H8 C9 1_555 1_555
H9 C9 1_555 1_555
C10 C9 1_555 1_555
N3 C10 1_555 1_555
C11 N3 1_555 1_555
H10 C11 1_555 1_555
C12 C11 1_555 1_555
H11 C12 1_555 1_555
C13 C12 1_555 1_555
H12 C13 1_555 1_555
C14 C10 1_555 1_555
H13 C14 1_555 1_555
Ag2 C15 1_555 1_555
N4 C15 1_555 1_555
C15 N5 1_555 1_555
C16 N4 1_555 1_555
C17 C16 1_555 1_555
H14 C17 1_555 1_555
C18 C17 1_555 1_555
H15 C18 1_555 1_555
C19 C18 1_555 1_555
H16 C19 1_555 1_555
C20 C19 1_555 1_555
H17 C20 1_555 1_555
C21 C16 1_555 1_555
N5 C21 1_555 1_555
C22 N4 1_555 1_555
H18 C22 1_555 1_555
H19 C22 1_555 1_555
H20 C22 1_555 1_555
C23 N5 1_555 1_555
H21 C23 1_555 1_555
H22 C23 1_555 1_555
C24 C23 1_555 1_555
N6 C24 1_555 1_555
C25 N6 1_555 1_555
H23 C25 1_555 1_555
C26 C25 1_555 1_555
H24 C26 1_555 1_555
C27 C26 1_555 1_555
H25 C27 1_555 1_555
C28 C24 1_555 1_555
H26 C28 1_555 1_555
P1 F1 1_555 1_555
F2 P1 1_555 1_555
F3 P1 1_555 1_555
F4 P1 1_555 1_555
F5 P1 1_555 1_555
F6 P1 1_555 1_555
P2 F7 1_555 1_555
F8 P2 1_555 1_555
O1 Ag1 1_555 1_555
O2 Ag2 1_555 1_555
N7 C29 1_555 1_555
C29 C30 1_555 1_555
C30 H27 1_555 1_555
H28 C30 1_555 1_555
H29 C30 1_555 1_555
Ag1A Ag1 1_555 1_555
Ag1A_2 O1A_2 1_555 1_555
C1A Ag1A 1_555 1_555
N1A C1A 1_555 1_555
C2A N1A 1_555 1_555
C3A C2A 1_555 1_555
H1A C3A 1_555 1_555
C4A C3A 1_555 1_555
H2A C4A 1_555 1_555
C5A C4A 1_555 1_555
H3A C5A 1_555 1_555
C6A C5A 1_555 1_555
H4A C6A 1_555 1_555
C7A C2A 1_555 1_555
N2A C1A 1_555 1_555
C8A N1A 1_555 1_555
H5A C8A 1_555 1_555
H6A C8A 1_555 1_555
H7A C8A 1_555 1_555
C9A N2A 1_555 1_555
H8A C9A 1_555 1_555
H9A C9A 1_555 1_555
C10A C9A 1_555 1_555
N3A Ag1 1_555 1_555
C11A N3A 1_555 1_555
H10A C11A 1_555 1_555
C12A C11A 1_555 1_555
H11A C12A 1_555 1_555
C13A C12A 1_555 1_555
H12A C13A 1_555 1_555
C14A C10A 1_555 1_555
H13A C14A 1_555 1_555
Ag2A Ag2 1_555 1_555
N4A C15A 1_555 1_555
C15A Ag2A 1_555 1_555
C16A N4A 1_555 1_555
C17A C16A 1_555 1_555
H14A C17A 1_555 1_555
C18A C17A 1_555 1_555
H15A C18A 1_555 1_555
C19A C18A 1_555 1_555
H16A C19A 1_555 1_555
C20A C19A 1_555 1_555
H17A C20A 1_555 1_555
C21A C16A 1_555 1_555
N5A C15A 1_555 1_555
C22A N4A 1_555 1_555
H18A C22A 1_555 1_555
H19A C22A 1_555 1_555
H20A C22A 1_555 1_555
C23A N5A 1_555 1_555
H21A C23A 1_555 1_555
H22A C23A 1_555 1_555
C24A C23A 1_555 1_555
N6A Ag2 1_555 1_555
C25A N6A 1_555 1_555
H23A C25A 1_555 1_555
C26A C25A 1_555 1_555
H24A C26A 1_555 1_555
C27A C26A 1_555 1_555
H25A C27A 1_555 1_555
C28A C24A 1_555 1_555
H26A C28A 1_555 1_555
P2A F7A 1_555 1_555
F8A P2A 1_555 1_555
O1A Ag1A 1_555 1_555
O1A_2 P2A 1_555 1_555
O2A Ag2A 1_555 1_555
C6 C7 1_555 1_555
C7 N2 1_555 1_555
N3 Ag1A 1_555 1_555
C13 C14 1_555 1_555
C20 C21 1_555 1_555
N6 Ag2A 1_555 1_555
C27 C28 1_555 1_555
P2 O1 1_555 1_555
P2 O2 1_555 1_555
C6A C7A 1_555 1_555
C7A N2A 1_555 1_555
C10A N3A 1_555 1_555
C13A C14A 1_555 1_555
C20A C21A 1_555 1_555
C21A N5A 1_555 1_555
C24A N6A 1_555 1_555
C27A C28A 1_555 1_555
P2A O2A 1_555 1_555

#END
