
#######################################################################
#
#                 Cambridge Crystallographic Data Centre
#                                CCDC 
#
#######################################################################
#
# If this CIF has been generated from an entry in the Cambridge 
# Structural Database, then it will include bibliographic, chemical, 
# crystal, experimental, refinement or atomic coordinate data resulting 
# from the CCDC's data processing and validation procedures.
#
#######################################################################

data_LARRUS
_symmetry_cell_setting           triclinic
_symmetry_space_group_name_H-M   'P -1'
_symmetry_Int_Tables_number      2
_space_group_name_Hall           '-P 1'
loop_
_symmetry_equiv_pos_site_id
_symmetry_equiv_pos_as_xyz
1 x,y,z
2 -x,-y,-z
_cell_length_a                   7.912(2)
_cell_length_b                   9.746(3)
_cell_length_c                   10.522(3)
_cell_angle_alpha                98.818(2)
_cell_angle_beta                 102.893(3)
_cell_angle_gamma                106.245(2)
_cell_volume                     738.876
loop_
_atom_site_label
_atom_site_type_symbol
_atom_site_fract_x
_atom_site_fract_y
_atom_site_fract_z
Cu1 Cu 0.47372(4) 0.75924(3) 0.05376(3)
V1 V 0.76944(6) 0.98999(5) -0.06530(4)
V2 V 0.77365(6) 0.90963(5) -0.38138(4)
V3 V 0.75924(6) 1.05118(5) 0.33686(4)
N1 N 0.3339(3) 0.6415(2) 0.1582(2)
N2 N 0.3460(3) 0.5751(2) -0.0879(2)
C1 C 0.3417(4) 0.6859(3) 0.2872(2)
H1 H 0.4137 0.7812 0.3332
C2 C 0.2455(4) 0.5940(3) 0.3540(3)
H2 H 0.2534 0.6270 0.4436
C3 C 0.1375(4) 0.4524(3) 0.2849(3)
H3 H 0.0717 0.3889 0.3276
C4 C 0.1285(4) 0.4060(3) 0.1512(3)
H4 H 0.0559 0.3115 0.1031
C5 C 0.2293(3) 0.5025(3) 0.0907(3)
C6 C 0.2339(4) 0.4662(3) -0.0512(2)
C7 C 0.1310(4) 0.3326(3) -0.1407(3)
H5 H 0.0543 0.2581 -0.1142
C8 C 0.1458(4) 0.3133(3) -0.2711(3)
H6 H 0.0775 0.2255 -0.3334
C9 C 0.2629(4) 0.4255(3) -0.3076(3)
H7 H 0.2748 0.4135 -0.3942
C10 C 0.3619(4) 0.5555(3) -0.2133(2)
H8 H 0.4410 0.6308 -0.2373
O1 O 0.6337(3) 0.8327(2) -0.05098(18)
O2 O 0.2686(3) 0.8705(2) -0.01420(18)
O3 O 0.7421(3) 1.0040(2) -0.23729(17)
O4 O 1.0000 1.0000 0.0000
O5 O 0.6402(3) 0.7436(2) -0.4239(2)
O6 O 1.0006(3) 1.0909(3) 0.3470(2)
O7 O 0.7294(3) 1.0013(2) 0.49100(19)
O8 O 0.7054(3) 1.1962(2) 0.3289(2)
O9 O 0.6272(3) 0.9136(2) 0.20822(17)
Cu1A Cu 0.52628(4) 1.24076(3) -0.05376(3)
V1A V 0.23056(6) 1.01001(5) 0.06530(4)
V1A_2 V 1.23056(6) 1.01001(5) 0.06530(4)
V2A V 0.22635(6) 1.09037(5) 0.38138(4)
V2A_2 V 1.22635(6) 1.09037(5) 0.38138(4)
V2_2 V 0.77365(6) 0.90963(5) 0.61862(4)
V3A V 1.24076(6) 0.94882(5) -0.33686(4)
V3_2 V 0.75924(6) 1.05118(5) -0.66314(4)
V3A_2 V 0.24076(6) 0.94882(5) -0.33686(4)
N1A N 0.6661(3) 1.3585(2) -0.1582(2)
N2A N 0.6540(3) 1.4249(2) 0.0879(2)
C1A C 0.6583(4) 1.3141(3) -0.2872(2)
H1A H 0.5863 1.2188 -0.3332
C2A C 0.7545(4) 1.4060(3) -0.3540(3)
H2A H 0.7466 1.3730 -0.4436
C3A C 0.8625(4) 1.5476(3) -0.2849(3)
H3A H 0.9283 1.6111 -0.3276
C4A C 0.8715(4) 1.5940(3) -0.1512(3)
H4A H 0.9441 1.6885 -0.1031
C5A C 0.7707(3) 1.4975(3) -0.0907(3)
C6A C 0.7661(4) 1.5338(3) 0.0512(2)
C7A C 0.8690(4) 1.6674(3) 0.1407(3)
H5A H 0.9457 1.7419 0.1142
C8A C 0.8542(4) 1.6867(3) 0.2711(3)
H6A H 0.9225 1.7745 0.3334
C9A C 0.7371(4) 1.5745(3) 0.3076(3)
H7A H 0.7252 1.5865 0.3942
C10A C 0.6381(4) 1.4445(3) 0.2133(2)
H8A H 0.5590 1.3692 0.2373
O1A O 0.3663(3) 1.1673(2) 0.05098(18)
O2A O 0.7314(3) 1.1295(2) 0.01420(18)
O3A O 0.2579(3) 0.9960(2) 0.23729(17)
O4_2 O 0.0000 1.0000 0.0000
O5A O 0.3598(3) 1.2564(2) 0.4239(2)
O6A O 0.9994(3) 0.9091(3) -0.3470(2)
O6_2 O 0.0006(3) 1.0909(3) 0.3470(2)
O7_2 O 0.7294(3) 1.0013(2) -0.50900(19)
O7A O 0.2706(3) 0.9987(2) 0.50900(19)
O7A_2 O 1.2706(3) 0.9987(2) -0.49100(19)
O8A O 1.2946(3) 0.8038(2) -0.3289(2)
O9A O 0.3728(3) 1.0864(2) -0.20822(17)
O9A_2 O 1.3728(3) 1.0864(2) -0.20822(17)
loop_
_geom_bond_atom_site_label_1
_geom_bond_atom_site_label_2
_geom_bond_site_symmetry_1
_geom_bond_site_symmetry_2
Cu1 N1 1_555 1_555
V1 O1 1_555 1_555
V2 O3 1_555 1_555
V3 O6 1_555 1_555
N1 C1 1_555 1_555
N2 Cu1 1_555 1_555
C1 H1 1_555 1_555
C2 C1 1_555 1_555
H2 C2 1_555 1_555
C3 C2 1_555 1_555
H3 C3 1_555 1_555
C4 C3 1_555 1_555
H4 C4 1_555 1_555
C5 N1 1_555 1_555
C6 N2 1_555 1_555
C7 C6 1_555 1_555
H5 C7 1_555 1_555
C8 C7 1_555 1_555
H6 C8 1_555 1_555
C9 C8 1_555 1_555
H7 C9 1_555 1_555
C10 N2 1_555 1_555
H8 C10 1_555 1_555
O1 Cu1 1_555 1_555
O2 Cu1 1_555 1_555
O3 V1 1_555 1_555
O4 V1 1_555 1_555
O5 V2 1_555 1_555
O6 V2A_2 1_555 1_555
O7 V3 1_555 1_555
O8 V3 1_555 1_555
O9 Cu1 1_555 1_555
Cu1A N1A 1_555 1_555
V1A O2 1_555 1_555
V1A_2 O4 1_555 1_555
V2A O3A 1_555 1_555
V2_2 O7 1_555 1_555
V3A O6A 1_555 1_555
V3_2 O7_2 1_555 1_555
V3A_2 O9A 1_555 1_555
N1A C1A 1_555 1_555
N2A Cu1A 1_555 1_555
C1A H1A 1_555 1_555
C2A C1A 1_555 1_555
H2A C2A 1_555 1_555
C3A C2A 1_555 1_555
H3A C3A 1_555 1_555
C4A C3A 1_555 1_555
H4A C4A 1_555 1_555
C5A N1A 1_555 1_555
C6A N2A 1_555 1_555
C7A C6A 1_555 1_555
H5A C7A 1_555 1_555
C8A C7A 1_555 1_555
H6A C8A 1_555 1_555
C9A C8A 1_555 1_555
H7A C9A 1_555 1_555
C10A N2A 1_555 1_555
H8A C10A 1_555 1_555
O1A Cu1A 1_555 1_555
O2A V1 1_555 1_555
O3A V1A 1_555 1_555
O4_2 V1A 1_555 1_555
O5A V2A 1_555 1_555
O6A V2 1_555 1_555
O6_2 V2A 1_555 1_555
O7_2 V2 1_555 1_555
O7A V2A 1_555 1_555
O7A_2 V3A 1_555 1_555
O8A V3A 1_555 1_555
O9A Cu1A 1_555 1_555
O9A_2 V3A 1_555 1_555
V3 O9 1_555 1_555
C4 C5 1_555 1_555
C5 C6 1_555 1_555
C9 C10 1_555 1_555
Cu1A O2A 1_555 1_555
V1A O1A 1_555 1_555
C4A C5A 1_555 1_555
C5A C6A 1_555 1_555
C9A C10A 1_555 1_555

#END
