
#######################################################################
#
#                 Cambridge Crystallographic Data Centre
#                                CCDC 
#
#######################################################################
#
# If this CIF has been generated from an entry in the Cambridge 
# Structural Database, then it will include bibliographic, chemical, 
# crystal, experimental, refinement or atomic coordinate data resulting 
# from the CCDC's data processing and validation procedures.
#
#######################################################################

data_LARRUS01
_symmetry_cell_setting           triclinic
_symmetry_space_group_name_H-M   'P -1'
_symmetry_Int_Tables_number      2
_space_group_name_Hall           '-P 1'
loop_
_symmetry_equiv_pos_site_id
_symmetry_equiv_pos_as_xyz
1 x,y,z
2 -x,-y,-z
_cell_length_a                   7.9491(8)
_cell_length_b                   9.8631(10)
_cell_length_c                   10.5208(10)
_cell_angle_alpha                98.607(2)
_cell_angle_beta                 102.905(2)
_cell_angle_gamma                106.866(2)
_cell_volume                     748.831
loop_
_atom_site_label
_atom_site_type_symbol
_atom_site_fract_x
_atom_site_fract_y
_atom_site_fract_z
Cu1 Cu 0.47348(6) 0.76363(4) 0.55597(4)
V1 V 0.22802(7) 1.00857(6) 0.56505(6)
V2 V 0.76024(8) 1.05019(6) 0.83866(6)
V3 V 0.22250(8) 1.08899(7) 0.88091(6)
N1 N 0.3487(4) 0.5811(3) 0.4141(3)
O1 O 0.2621(4) 0.8683(3) 0.4889(3)
O2 O 0.2563(4) 1.0000(3) 0.7375(2)
O3 O 0.6341(4) 0.8397(3) 0.4527(3)
N2 N 0.3344(4) 0.6441(3) 0.6594(3)
O4 O 0.6240(4) 0.9171(3) 0.7108(3)
C1 C 0.2385(5) 0.4713(4) 0.4512(4)
C2 C 0.3376(5) 0.6858(4) 0.7867(4)
H1 H 0.4074 0.7809 0.8330
C3 C 0.1323(5) 0.4097(4) 0.6519(4)
H2 H 0.0616 0.3152 0.6043
C4 C 0.2322(5) 0.5057(4) 0.5906(4)
C5 C 0.1381(6) 0.4546(5) 0.7835(5)
H3 H 0.0719 0.3908 0.8257
C6 C 0.3647(5) 0.5619(4) 0.2890(4)
H4 H 0.4419 0.6379 0.2647
C7 C 0.2428(6) 0.5948(5) 0.8521(4)
H5 H 0.2489 0.6272 0.9413
C8 C 0.2701(6) 0.4328(5) 0.1958(4)
H6 H 0.2822 0.4219 0.1093
C9 C 0.1576(6) 0.3204(4) 0.2321(4)
H7 H 0.0926 0.2324 0.1701
O5 O 0.0000 1.0000 0.5000
O6 O 0.2682(4) 0.9984(4) 1.0078(3)
O7 O 0.7141(5) 1.1952(3) 0.8322(3)
O8 O 0.3515(4) 1.2530(3) 0.9240(3)
O9 O -0.0024(4) 1.0840(4) 0.8463(3)
C10 C 0.1410(5) 0.3381(4) 0.3615(4)
H8 H 0.0661 0.2624 0.3876
Cu1A Cu 0.52652(6) 1.23637(4) 0.44403(4)
V1A V 0.77198(7) 0.99143(6) 0.43495(6)
V1A_2 V -0.22802(7) 0.99143(6) 0.43495(6)
V2A V 0.23976(8) 0.94981(6) 1.16134(6)
V2_2 V -0.23976(8) 1.05019(6) 0.83866(6)
V2A_2 V 0.23976(8) 0.94981(6) 0.16134(6)
V3A V 0.77750(8) 0.91101(7) 1.11909(6)
V3_2 V 1.22250(8) 1.08899(7) 0.88091(6)
V3A_2 V 0.77750(8) 0.91101(7) 0.11909(6)
N1A N 0.6513(4) 1.4189(3) 0.5859(3)
O1A O 0.7379(4) 1.1317(3) 0.5111(3)
O2A O 0.7437(4) 1.0000(3) 0.2625(2)
O3A O 0.3659(4) 1.1603(3) 0.5473(3)
N2A N 0.6656(4) 1.3559(3) 0.3406(3)
O4A O 0.3760(4) 1.0829(3) 1.2892(3)
O4A_2 O 0.3760(4) 1.0829(3) 0.2892(3)
C1A C 0.7615(5) 1.5287(4) 0.5488(4)
C2A C 0.6624(5) 1.3142(4) 0.2133(4)
H1A H 0.5926 1.2191 0.1670
C3A C 0.8677(5) 1.5903(4) 0.3481(4)
H2A H 0.9384 1.6848 0.3957
C4A C 0.7678(5) 1.4943(4) 0.4094(4)
C5A C 0.8619(6) 1.5454(5) 0.2165(5)
H3A H 0.9281 1.6092 0.1743
C6A C 0.6353(5) 1.4381(4) 0.7110(4)
H4A H 0.5581 1.3621 0.7353
C7A C 0.7572(6) 1.4052(5) 0.1479(4)
H5A H 0.7511 1.3728 0.0587
C8A C 0.7299(6) 1.5672(5) 0.8042(4)
H6A H 0.7178 1.5781 0.8907
C9A C 0.8424(6) 1.6796(4) 0.7679(4)
H7A H 0.9074 1.7676 0.8299
O5_2 O 1.0000 1.0000 0.5000
O6A O 0.7318(4) 1.0016(4) 0.9922(3)
O6A_2 O 0.7318(4) 1.0016(4) -0.0078(3)
O7A O 0.2859(5) 0.8048(3) 1.1678(3)
O8A O 0.6485(4) 0.7470(3) 0.0760(3)
O9_2 O 0.9976(4) 1.0840(4) 0.8463(3)
O9A O 0.0024(4) 0.9160(4) 1.1537(3)
O9A_2 O 1.0024(4) 0.9160(4) 0.1537(3)
C10A C 0.8590(5) 1.6619(4) 0.6385(4)
H8A H 0.9339 1.7376 0.6124
loop_
_geom_bond_atom_site_label_1
_geom_bond_atom_site_label_2
_geom_bond_site_symmetry_1
_geom_bond_site_symmetry_2
Cu1 N1 1_555 1_555
V1 O1 1_555 1_555
V2 O4 1_555 1_555
V3 O2 1_555 1_555
N1 C1 1_555 1_555
O1 Cu1 1_555 1_555
O2 V1 1_555 1_555
O3 Cu1 1_555 1_555
N2 Cu1 1_555 1_555
O4 Cu1 1_555 1_555
C1 C4 1_555 1_555
C2 N2 1_555 1_555
H1 C2 1_555 1_555
C3 H2 1_555 1_555
C4 N2 1_555 1_555
C5 C3 1_555 1_555
H3 C5 1_555 1_555
C6 N1 1_555 1_555
H4 C6 1_555 1_555
C7 C2 1_555 1_555
H5 C7 1_555 1_555
C8 C6 1_555 1_555
H6 C8 1_555 1_555
C9 C8 1_555 1_555
H7 C9 1_555 1_555
O5 V1 1_555 1_555
O6 V3 1_555 1_555
O7 V2 1_555 1_555
O8 V3 1_555 1_555
O9 V3 1_555 1_555
C10 C1 1_555 1_555
H8 C10 1_555 1_555
Cu1A N1A 1_555 1_555
V1A O3 1_555 1_555
V1A_2 O5 1_555 1_555
V2A O6 1_555 1_555
V2_2 O9 1_555 1_555
V2A_2 O4A_2 1_555 1_555
V3A O6A 1_555 1_555
V3_2 O9_2 1_555 1_555
V3A_2 O2A 1_555 1_555
N1A C1A 1_555 1_555
O1A Cu1A 1_555 1_555
O2A V1A 1_555 1_555
O3A V1 1_555 1_555
N2A Cu1A 1_555 1_555
O4A V2A 1_555 1_555
O4A_2 Cu1A 1_555 1_555
C1A C4A 1_555 1_555
C2A N2A 1_555 1_555
H1A C2A 1_555 1_555
C3A H2A 1_555 1_555
C4A N2A 1_555 1_555
C5A C3A 1_555 1_555
H3A C5A 1_555 1_555
C6A N1A 1_555 1_555
H4A C6A 1_555 1_555
C7A C2A 1_555 1_555
H5A C7A 1_555 1_555
C8A C6A 1_555 1_555
H6A C8A 1_555 1_555
C9A C8A 1_555 1_555
H7A C9A 1_555 1_555
O5_2 V1A 1_555 1_555
O6A V2 1_555 1_555
O6A_2 V3A_2 1_555 1_555
O7A V2A 1_555 1_555
O8A V3A_2 1_555 1_555
O9_2 V2 1_555 1_555
O9A V2A 1_555 1_555
O9A_2 V3A_2 1_555 1_555
C10A C1A 1_555 1_555
H8A C10A 1_555 1_555
C3 C4 1_555 1_555
C5 C7 1_555 1_555
C9 C10 1_555 1_555
Cu1A O3A 1_555 1_555
V1A O1A 1_555 1_555
C3A C4A 1_555 1_555
C5A C7A 1_555 1_555
C9A C10A 1_555 1_555

#END
