
#######################################################################
#
#                 Cambridge Crystallographic Data Centre
#                                CCDC 
#
#######################################################################
#
# If this CIF has been generated from an entry in the Cambridge 
# Structural Database, then it will include bibliographic, chemical, 
# crystal, experimental, refinement or atomic coordinate data resulting 
# from the CCDC's data processing and validation procedures.
#
#######################################################################

data_LARYEK
_symmetry_cell_setting           monoclinic
_symmetry_space_group_name_H-M   'P 21/c'
_symmetry_Int_Tables_number      14
_space_group_name_Hall           '-P 2ybc'
loop_
_symmetry_equiv_pos_site_id
_symmetry_equiv_pos_as_xyz
1 x,y,z
2 -x,1/2+y,1/2-z
3 -x,-y,-z
4 x,1/2-y,1/2+z
_cell_length_a                   10.6699(13)
_cell_length_b                   12.9403(16)
_cell_length_c                   6.7635(8)
_cell_angle_alpha                90
_cell_angle_beta                 95.445(1)
_cell_angle_gamma                90
_cell_volume                     929.634
loop_
_atom_site_label
_atom_site_type_symbol
_atom_site_fract_x
_atom_site_fract_y
_atom_site_fract_z
C1 C 0.1057(4) 0.8591(3) 0.3868(6)
C2 C 0.0798(4) 0.9524(3) 0.2896(6)
H1 H 0.1456 0.9957 0.2623
C3 C -0.0428(4) 0.9813(3) 0.2335(6)
H2 H -0.0592 1.0441 0.1695
C4 C -0.1423(4) 0.9172(3) 0.2717(6)
C5 C -0.1169(4) 0.8244(3) 0.3717(6)
H3 H -0.1827 0.7815 0.4001
C6 C 0.0057(4) 0.7960(3) 0.4288(6)
H4 H 0.0219 0.7340 0.4960
C7 C 0.2383(4) 0.8255(3) 0.4387(6)
C8 C -0.2731(4) 0.9493(3) 0.2028(6)
C9 C 0.5441(4) 0.6306(3) 0.2210(6)
Eu1 Eu 0.426310(17) 0.628780(13) 0.59862(3)
O1 O 0.2579(2) 0.7424(2) 0.5292(4)
O2 O 0.3258(2) 0.8827(2) 0.3815(4)
O3 O -0.2874(3) 1.0368(2) 0.1204(5)
O4 O -0.3617(3) 0.8871(2) 0.2270(5)
O5 O 0.4919(3) 0.7107(2) 0.2772(4)
O6 O 0.5508(3) 0.5510(2) 0.3239(4)
H5 H 0.582(4) 0.632(3) 0.104(7)
Eu1C Eu 0.426310(17) 0.871220(13) 0.09862(3)
Eu1A Eu -0.426310(17) 1.128780(13) -0.09862(3)
Eu1C_2 Eu -0.573690(17) 0.871220(13) 0.09862(3)
Eu1B Eu 0.573690(17) 0.371220(13) 0.40138(3)
O2C O 0.3258(2) 0.6173(2) 0.8815(4)
O3A O 0.2874(3) 0.5368(2) 0.3796(5)
O4C O 0.6383(3) 0.6129(2) 0.7270(5)
O5C O 0.4919(3) 0.7893(2) 0.7772(4)
O6B O 0.4492(3) 0.4490(2) 0.6761(4)
loop_
_geom_bond_atom_site_label_1
_geom_bond_atom_site_label_2
_geom_bond_site_symmetry_1
_geom_bond_site_symmetry_2
C1 C2 1_555 1_555
C2 H1 1_555 1_555
C3 C2 1_555 1_555
H2 C3 1_555 1_555
C4 C3 1_555 1_555
C5 C4 1_555 1_555
H3 C5 1_555 1_555
C6 C1 1_555 1_555
H4 C6 1_555 1_555
C7 C1 1_555 1_555
C8 C4 1_555 1_555
C9 O5 1_555 1_555
Eu1 O1 1_555 1_555
O1 C7 1_555 1_555
O2 C7 1_555 1_555
O3 C8 1_555 1_555
O4 C8 1_555 1_555
O5 Eu1 1_555 1_555
O6 C9 1_555 1_555
H5 C9 1_555 1_555
Eu1C O2 1_555 1_555
Eu1A O3 1_555 1_555
Eu1C_2 O4 1_555 1_555
Eu1B O6 1_555 1_555
O2C Eu1 1_555 1_555
O3A Eu1 1_555 1_555
O4C Eu1 1_555 1_555
O5C Eu1 1_555 1_555
O6B Eu1 1_555 1_555
C5 C6 1_555 1_555
Eu1 O6 1_555 1_555
O5 Eu1C 1_555 1_555
Eu1B O6B 1_555 1_555

#END
