
#######################################################################
#
#                 Cambridge Crystallographic Data Centre
#                                CCDC 
#
#######################################################################
#
# If this CIF has been generated from an entry in the Cambridge 
# Structural Database, then it will include bibliographic, chemical, 
# crystal, experimental, refinement or atomic coordinate data resulting 
# from the CCDC's data processing and validation procedures.
#
#######################################################################

data_LARYIO
_symmetry_cell_setting           monoclinic
_symmetry_space_group_name_H-M   'P 21/c'
_symmetry_Int_Tables_number      14
_space_group_name_Hall           '-P 2ybc'
loop_
_symmetry_equiv_pos_site_id
_symmetry_equiv_pos_as_xyz
1 x,y,z
2 -x,1/2+y,1/2-z
3 -x,-y,-z
4 x,1/2-y,1/2+z
_cell_length_a                   10.6678(8)
_cell_length_b                   12.9319(9)
_cell_length_c                   6.7191(5)
_cell_angle_alpha                90
_cell_angle_beta                 95.2900(10)
_cell_angle_gamma                90
_cell_volume                     922.985
loop_
_atom_site_label
_atom_site_type_symbol
_atom_site_fract_x
_atom_site_fract_y
_atom_site_fract_z
C1 C 0.1051(4) 0.8594(3) 0.3886(6)
C2 C 0.0792(4) 0.9526(3) 0.2895(6)
H1 H 0.1451 0.9957 0.2609
C3 C -0.0432(4) 0.9816(3) 0.2334(6)
H2 H -0.0594 1.0444 0.1690
C4 C -0.1423(4) 0.9177(3) 0.2725(6)
C5 C -0.1178(4) 0.8243(3) 0.3728(6)
H3 H -0.1839 0.7814 0.4007
C6 C 0.0058(4) 0.7956(3) 0.4307(6)
H4 H 0.0222 0.7335 0.4979
C7 C 0.2387(4) 0.8261(3) 0.4396(6)
C8 C -0.2736(4) 0.9490(3) 0.2010(6)
C9 C 0.5429(4) 0.6308(3) 0.2199(7)
Gd1 Gd 0.425750(16) 0.628210(12) 0.59878(2)
H5 H 0.582(6) 0.635(4) 0.116(9)
O1 O 0.2576(3) 0.7420(2) 0.5309(4)
O2 O 0.3250(3) 0.8831(2) 0.3827(4)
O3 O -0.2872(3) 1.0366(2) 0.1196(4)
O4 O -0.3626(3) 0.8865(2) 0.2256(5)
O5 O 0.4909(3) 0.71138(19) 0.2793(4)
O6 O 0.5499(3) 0.5508(2) 0.3228(4)
Gd1C Gd 0.425750(16) 0.871790(12) 0.09878(2)
Gd1A Gd -0.425750(16) 1.128210(12) -0.09878(2)
Gd1C_2 Gd -0.574250(16) 0.871790(12) 0.09878(2)
Gd1B Gd 0.574250(16) 0.371790(12) 0.40122(2)
O2C O 0.3250(3) 0.6169(2) 0.8827(4)
O3A O 0.2872(3) 0.5366(2) 0.3804(4)
O4C O 0.6374(3) 0.6135(2) 0.7256(5)
O5C O 0.4909(3) 0.78862(19) 0.7793(4)
O6B O 0.4501(3) 0.4492(2) 0.6772(4)
loop_
_geom_bond_atom_site_label_1
_geom_bond_atom_site_label_2
_geom_bond_site_symmetry_1
_geom_bond_site_symmetry_2
C1 C2 1_555 1_555
C2 H1 1_555 1_555
C3 C2 1_555 1_555
H2 C3 1_555 1_555
C4 C3 1_555 1_555
C5 C4 1_555 1_555
H3 C5 1_555 1_555
C6 C1 1_555 1_555
H4 C6 1_555 1_555
C7 C1 1_555 1_555
C8 C4 1_555 1_555
C9 H5 1_555 1_555
Gd1 O1 1_555 1_555
O1 C7 1_555 1_555
O2 C7 1_555 1_555
O3 C8 1_555 1_555
O4 C8 1_555 1_555
O5 C9 1_555 1_555
O6 C9 1_555 1_555
Gd1C O2 1_555 1_555
Gd1A O3 1_555 1_555
Gd1C_2 O4 1_555 1_555
Gd1B O6 1_555 1_555
O2C Gd1 1_555 1_555
O3A Gd1 1_555 1_555
O4C Gd1 1_555 1_555
O5C Gd1 1_555 1_555
O6B Gd1 1_555 1_555
C5 C6 1_555 1_555
Gd1 O5 1_555 1_555
Gd1 O6 1_555 1_555
O5 Gd1C 1_555 1_555
Gd1B O6B 1_555 1_555

#END
