
#######################################################################
#
#                 Cambridge Crystallographic Data Centre
#                                CCDC 
#
#######################################################################
#
# If this CIF has been generated from an entry in the Cambridge 
# Structural Database, then it will include bibliographic, chemical, 
# crystal, experimental, refinement or atomic coordinate data resulting 
# from the CCDC's data processing and validation procedures.
#
#######################################################################

data_LARYIO01
_symmetry_cell_setting           monoclinic
_symmetry_space_group_name_H-M   'P 21/c'
_symmetry_Int_Tables_number      14
_space_group_name_Hall           '-P 2ybc'
loop_
_symmetry_equiv_pos_site_id
_symmetry_equiv_pos_as_xyz
1 x,y,z
2 -x,1/2+y,1/2-z
3 -x,-y,-z
4 x,1/2-y,1/2+z
_cell_length_a                   10.6681(5)
_cell_length_b                   12.9404(5)
_cell_length_c                   6.6476(3)
_cell_angle_alpha                90
_cell_angle_beta                 95.084(2)
_cell_angle_gamma                90
_cell_volume                     914.087
loop_
_atom_site_label
_atom_site_type_symbol
_atom_site_fract_x
_atom_site_fract_y
_atom_site_fract_z
Gd1 Gd 0.574230(5) 0.372371(3) 0.899217(7)
O1 O 0.36263(9) 0.38738(7) 0.77006(16)
O2 O -0.32639(8) 0.38356(6) 0.61080(14)
O3 O -0.25771(8) 0.24176(6) 0.46412(14)
O4 O 0.50917(9) 0.28799(6) 1.21831(14)
O5 O 0.28668(9) 0.53751(7) 0.87812(15)
O6 O 0.44965(9) 0.44897(6) 1.17702(14)
C1 C 0.27388(11) 0.45004(8) 0.79517(18)
C2 C -0.23880(10) 0.32575(8) 0.55536(17)
C3 C -0.10540(11) 0.35926(8) 0.60790(17)
C4 C -0.00545(11) 0.29550(9) 0.56347(19)
H1 H -0.0216 0.2337 0.4945
C5 C 0.11801(11) 0.32439(9) 0.62234(19)
H2 H 0.1843 0.2817 0.5937
C6 C 0.14225(11) 0.41762(8) 0.72462(18)
C7 C 0.04238(11) 0.48201(8) 0.76583(18)
H3 H 0.0585 0.5447 0.8314
C8 C -0.08081(11) 0.45253(8) 0.70906(19)
H4 H -0.1471 0.4950 0.7385
C9 C 0.45655(11) 0.36797(8) 1.28101(18)
H5 H 0.4227 0.3667 1.4052
Gd1_2 Gd -0.425770(5) 0.372371(3) 0.899217(7)
Gd1C Gd -0.425770(5) 0.127629(3) 0.399217(7)
Gd1C_2 Gd 0.574230(5) 0.127629(3) 1.399217(7)
Gd1B Gd 0.425770(5) 0.627629(3) 1.100783(7)
O2_2 O 0.67361(8) 0.38356(6) 0.61080(14)
O3C O 0.74229(8) 0.25824(6) 0.96412(14)
O4C O 0.50917(9) 0.21201(6) 0.71831(14)
O5B O 0.71332(9) 0.46249(7) 1.12188(15)
O6B O 0.55035(9) 0.55103(6) 0.82298(14)
loop_
_geom_bond_atom_site_label_1
_geom_bond_atom_site_label_2
_geom_bond_site_symmetry_1
_geom_bond_site_symmetry_2
Gd1 O1 1_555 1_555
O1 C1 1_555 1_555
O2 C2 1_555 1_555
O3 C2 1_555 1_555
O4 Gd1 1_555 1_555
O5 C1 1_555 1_555
O6 Gd1 1_555 1_555
C1 C6 1_555 1_555
C2 C3 1_555 1_555
C3 C4 1_555 1_555
C4 H1 1_555 1_555
C5 C4 1_555 1_555
H2 C5 1_555 1_555
C6 C5 1_555 1_555
C7 C6 1_555 1_555
H3 C7 1_555 1_555
C8 C3 1_555 1_555
H4 C8 1_555 1_555
C9 O4 1_555 1_555
H5 C9 1_555 1_555
Gd1_2 O2 1_555 1_555
Gd1C O3 1_555 1_555
Gd1C_2 O4 1_555 1_555
Gd1B O5 1_555 1_555
O2_2 Gd1 1_555 1_555
O3C Gd1 1_555 1_555
O4C Gd1 1_555 1_555
O5B Gd1 1_555 1_555
O6B Gd1 1_555 1_555
O6 C9 1_555 1_555
O6 Gd1B 1_555 1_555
C7 C8 1_555 1_555
Gd1B O6B 1_555 1_555

#END
