
#######################################################################
#
#                 Cambridge Crystallographic Data Centre
#                                CCDC 
#
#######################################################################
#
# If this CIF has been generated from an entry in the Cambridge 
# Structural Database, then it will include bibliographic, chemical, 
# crystal, experimental, refinement or atomic coordinate data resulting 
# from the CCDC's data processing and validation procedures.
#
#######################################################################

data_LARZIP
_symmetry_cell_setting           orthorhombic
_symmetry_space_group_name_H-M   'P b c a'
_symmetry_Int_Tables_number      61
_space_group_name_Hall           '-P 2ac 2ab'
loop_
_symmetry_equiv_pos_site_id
_symmetry_equiv_pos_as_xyz
1 x,y,z
2 1/2-x,-y,1/2+z
3 -x,1/2+y,1/2-z
4 1/2+x,1/2-y,-z
5 -x,-y,-z
6 1/2+x,y,1/2-z
7 x,1/2-y,1/2+z
8 1/2-x,1/2+y,z
_cell_length_a                   10.5268(6)
_cell_length_b                   15.2780(9)
_cell_length_c                   19.7361(11)
_cell_angle_alpha                90
_cell_angle_beta                 90
_cell_angle_gamma                90
_cell_volume                     3174.13
loop_
_atom_site_label
_atom_site_type_symbol
_atom_site_fract_x
_atom_site_fract_y
_atom_site_fract_z
Cd1 Cd 0.353235(16) 0.211426(12) 0.400335(9)
O1 O 0.31699(18) 0.06928(11) 0.44666(11)
O2 O 0.20032(17) -0.00308(11) 0.52085(9)
H1 H 0.1365 0.0056 0.5437
O3 O 0.01358(18) 0.02506(11) 0.59111(8)
O4 O -0.11386(18) 0.13590(12) 0.61817(9)
N1 N 0.4922(2) 0.12475(14) 0.33539(10)
N2 N 0.3048(2) 0.22481(15) 0.28434(12)
N3 N 0.16254(18) 0.21551(12) 0.45293(11)
N4 N -0.00321(18) 0.24258(12) 0.52070(9)
C1 C 0.5771(3) 0.07066(19) 0.36282(15)
H2 H 0.5886 0.0722 0.4095
C2 C 0.6487(3) 0.0128(2) 0.32566(19)
H3 H 0.7073 -0.0238 0.3467
C3 C 0.6317(4) 0.0102(3) 0.2570(2)
H4 H 0.6781 -0.0286 0.2304
C4 C 0.5451(4) 0.0657(2) 0.22787(16)
H5 H 0.5330 0.0651 0.1812
C5 C 0.4755(3) 0.12267(18) 0.26794(13)
C6 C 0.3801(3) 0.18418(19) 0.23960(14)
C7 C 0.3683(4) 0.1992(3) 0.17011(18)
H6 H 0.4221 0.1715 0.1395
C8 C 0.2765(5) 0.2554(3) 0.14775(19)
H7 H 0.2666 0.2655 0.1016
C9 C 0.1992(4) 0.2966(3) 0.1932(2)
H8 H 0.1364 0.3350 0.1786
C10 C 0.2166(3) 0.2801(2) 0.26159(18)
H9 H 0.1649 0.3087 0.2928
C11 C 0.1385(2) 0.14124(15) 0.49055(12)
C12 C 0.0362(2) 0.15808(14) 0.53185(11)
C13 C 0.0754(2) 0.27375(14) 0.47269(12)
C14 C 0.2240(2) 0.06519(15) 0.48472(12)
C15 C -0.0269(2) 0.10330(16) 0.58351(12)
C16 C 0.0650(3) 0.36371(16) 0.44328(14)
H10 H 0.1480 0.3893 0.4401
H11 H 0.0123 0.3992 0.4719
H12 H 0.0279 0.3603 0.3989
Cd1C Cd -0.146765(16) 0.288574(12) 0.599665(9)
O4C O 0.38614(18) 0.36410(12) 0.38183(9)
N4C N 0.49679(18) 0.25742(12) 0.47930(9)
loop_
_geom_bond_atom_site_label_1
_geom_bond_atom_site_label_2
_geom_bond_site_symmetry_1
_geom_bond_site_symmetry_2
Cd1 O1 1_555 1_555
O1 C14 1_555 1_555
O2 H1 1_555 1_555
O3 C15 1_555 1_555
O4 C15 1_555 1_555
N1 Cd1 1_555 1_555
N2 Cd1 1_555 1_555
N3 Cd1 1_555 1_555
N4 C12 1_555 1_555
C1 N1 1_555 1_555
H2 C1 1_555 1_555
C2 C1 1_555 1_555
H3 C2 1_555 1_555
C3 C2 1_555 1_555
H4 C3 1_555 1_555
C4 C3 1_555 1_555
H5 C4 1_555 1_555
C5 N1 1_555 1_555
C6 N2 1_555 1_555
C7 C6 1_555 1_555
H6 C7 1_555 1_555
C8 C7 1_555 1_555
H7 C8 1_555 1_555
C9 C8 1_555 1_555
H8 C9 1_555 1_555
C10 N2 1_555 1_555
H9 C10 1_555 1_555
C11 N3 1_555 1_555
C12 C11 1_555 1_555
C13 N3 1_555 1_555
C14 O2 1_555 1_555
C15 C12 1_555 1_555
C16 C13 1_555 1_555
H10 C16 1_555 1_555
H11 C16 1_555 1_555
H12 C16 1_555 1_555
Cd1C O4 1_555 1_555
O4C Cd1 1_555 1_555
N4C Cd1 1_555 1_555
N4 C13 1_555 1_555
N4 Cd1C 1_555 1_555
C4 C5 1_555 1_555
C5 C6 1_555 1_555
C9 C10 1_555 1_555
C11 C14 1_555 1_555

#END
