
#######################################################################
#
#                 Cambridge Crystallographic Data Centre
#                                CCDC 
#
#######################################################################
#
# If this CIF has been generated from an entry in the Cambridge 
# Structural Database, then it will include bibliographic, chemical, 
# crystal, experimental, refinement or atomic coordinate data resulting 
# from the CCDC's data processing and validation procedures.
#
#######################################################################

data_LARZUB
_symmetry_cell_setting           triclinic
_symmetry_space_group_name_H-M   'P -1'
_symmetry_Int_Tables_number      2
_space_group_name_Hall           '-P 1'
loop_
_symmetry_equiv_pos_site_id
_symmetry_equiv_pos_as_xyz
1 x,y,z
2 -x,-y,-z
_cell_length_a                   7.0438(16)
_cell_length_b                   9.116(2)
_cell_length_c                   10.158(2)
_cell_angle_alpha                78.240(4)
_cell_angle_beta                 80.288(4)
_cell_angle_gamma                83.077(4)
_cell_volume                     626.902
loop_
_atom_site_label
_atom_site_type_symbol
_atom_site_fract_x
_atom_site_fract_y
_atom_site_fract_z
Co1 Co 0.5000 0.5000 0.5000
S1 S 0.18953(8) 1.17815(7) 0.23323(6)
N1 N 0.5547(2) 0.73662(19) 0.40853(18)
O1 O -0.3581(2) 1.43607(18) 0.32270(15)
O2 O -0.0529(2) 1.3776(2) 0.36088(16)
O3 O 0.7641(2) 0.45741(17) 0.58537(16)
H1 H 0.7902 0.5349 0.6048
C1 C -0.1837(3) 1.3918(2) 0.2877(2)
C2 C -0.1320(3) 1.3517(2) 0.1487(2)
C3 C 0.0334(3) 1.2565(2) 0.1122(2)
C4 C 0.0662(3) 1.2238(3) -0.0188(2)
H2 H 0.1740 1.1604 -0.0440
C5 C -0.2197(3) 1.3776(3) -0.0765(2)
H3 H -0.3036 1.4182 -0.1389
C6 C -0.0582(4) 1.2837(3) -0.1116(2)
H4 H -0.0330 1.2607 -0.1983
C7 C -0.2545(3) 1.4101(3) 0.0533(2)
H5 H -0.3634 1.4731 0.0774
C8 C 0.3570(3) 1.0470(3) 0.1476(2)
H6 H 0.2868 0.9778 0.1174
H7 H 0.4356 1.1008 0.0691
C9 C 0.4527(3) 0.8169(2) 0.3132(2)
H8 H 0.3566 0.7710 0.2885
C10 C 0.4817(3) 0.9631(2) 0.2499(2)
C11 C 0.6247(4) 1.0299(3) 0.2876(3)
H9 H 0.6481 1.1286 0.2481
C12 C 0.7319(4) 0.9502(3) 0.3835(3)
H10 H 0.8295 0.9937 0.4090
C13 C 0.6931(3) 0.8044(3) 0.4417(3)
H11 H 0.7664 0.7510 0.5069
H12 H 0.837(4) 0.434(3) 0.519(3)
Co1_2 Co -0.5000 1.5000 0.5000
Co1_3 Co 1.5000 -0.5000 0.5000
S1A S 0.81047(8) -0.17815(7) 0.76677(6)
N1A N 0.4453(2) 0.26338(19) 0.59147(18)
O1A O 1.3581(2) -0.43607(18) 0.67730(15)
O1_2 O 0.6419(2) 0.43607(18) 0.32270(15)
O1A_2 O 0.3581(2) 0.56393(18) 0.67730(15)
O2A O 1.0529(2) -0.3776(2) 0.63912(16)
O3A O 0.2359(2) 0.54259(17) 0.41463(16)
H1A H 0.2098 0.4651 0.3952
C1A C 1.1837(3) -0.3918(2) 0.7123(2)
C2A C 1.1320(3) -0.3517(2) 0.8513(2)
C3A C 0.9666(3) -0.2565(2) 0.8878(2)
C4A C 0.9338(3) -0.2238(3) 1.0188(2)
H2A H 0.8260 -0.1604 1.0440
C5A C 1.2197(3) -0.3776(3) 1.0765(2)
H3A H 1.3036 -0.4182 1.1389
C6A C 1.0582(4) -0.2837(3) 1.1116(2)
H4A H 1.0330 -0.2607 1.1983
C7A C 1.2545(3) -0.4101(3) 0.9467(2)
H5A H 1.3634 -0.4731 0.9226
C8A C 0.6430(3) -0.0470(3) 0.8524(2)
H6A H 0.7132 0.0222 0.8826
H7A H 0.5644 -0.1008 0.9309
C9A C 0.5473(3) 0.1831(2) 0.6868(2)
H8A H 0.6434 0.2290 0.7115
C10A C 0.5183(3) 0.0369(2) 0.7501(2)
C11A C 0.3753(4) -0.0299(3) 0.7124(3)
H9A H 0.3519 -0.1286 0.7519
C12A C 0.2681(4) 0.0498(3) 0.6165(3)
H10A H 0.1705 0.0063 0.5910
C13A C 0.3069(3) 0.1956(3) 0.5583(3)
H11A H 0.2336 0.2490 0.4931
H12A H 0.163(4) 0.566(3) 0.481(3)
loop_
_geom_bond_atom_site_label_1
_geom_bond_atom_site_label_2
_geom_bond_site_symmetry_1
_geom_bond_site_symmetry_2
Co1 N1 1_555 1_555
S1 C3 1_555 1_555
N1 C9 1_555 1_555
O1 C1 1_555 1_555
O2 C1 1_555 1_555
O3 Co1 1_555 1_555
H1 O3 1_555 1_555
C1 C2 1_555 1_555
C2 C3 1_555 1_555
C3 C4 1_555 1_555
C4 H2 1_555 1_555
C5 H3 1_555 1_555
C6 C4 1_555 1_555
H4 C6 1_555 1_555
C7 C2 1_555 1_555
H5 C7 1_555 1_555
C8 S1 1_555 1_555
H6 C8 1_555 1_555
H7 C8 1_555 1_555
C9 H8 1_555 1_555
C10 C8 1_555 1_555
C11 C10 1_555 1_555
H9 C11 1_555 1_555
C12 C11 1_555 1_555
H10 C12 1_555 1_555
C13 N1 1_555 1_555
H11 C13 1_555 1_555
H12 O3 1_555 1_555
Co1_2 O1 1_555 1_555
Co1_3 O1A 1_555 1_555
S1A C3A 1_555 1_555
N1A Co1 1_555 1_555
O1A C1A 1_555 1_555
O1_2 Co1 1_555 1_555
O1A_2 Co1 1_555 1_555
O2A C1A 1_555 1_555
O3A Co1 1_555 1_555
H1A O3A 1_555 1_555
C1A C2A 1_555 1_555
C2A C3A 1_555 1_555
C3A C4A 1_555 1_555
C4A H2A 1_555 1_555
C5A H3A 1_555 1_555
C6A C4A 1_555 1_555
H4A C6A 1_555 1_555
C7A C2A 1_555 1_555
H5A C7A 1_555 1_555
C8A S1A 1_555 1_555
H6A C8A 1_555 1_555
H7A C8A 1_555 1_555
C9A N1A 1_555 1_555
H8A C9A 1_555 1_555
C10A C8A 1_555 1_555
C11A C10A 1_555 1_555
H9A C11A 1_555 1_555
C12A C11A 1_555 1_555
H10A C12A 1_555 1_555
C13A N1A 1_555 1_555
H11A C13A 1_555 1_555
H12A O3A 1_555 1_555
C5 C6 1_555 1_555
C5 C7 1_555 1_555
C9 C10 1_555 1_555
C12 C13 1_555 1_555
C5A C6A 1_555 1_555
C5A C7A 1_555 1_555
C9A C10A 1_555 1_555
C12A C13A 1_555 1_555

#END
