
#######################################################################
#
#                 Cambridge Crystallographic Data Centre
#                                CCDC 
#
#######################################################################
#
# If this CIF has been generated from an entry in the Cambridge 
# Structural Database, then it will include bibliographic, chemical, 
# crystal, experimental, refinement or atomic coordinate data resulting 
# from the CCDC's data processing and validation procedures.
#
#######################################################################

data_LASBOY
_symmetry_cell_setting           monoclinic
_symmetry_space_group_name_H-M   'P 21'
_symmetry_Int_Tables_number      4
_space_group_name_Hall           'P 2yb'
loop_
_symmetry_equiv_pos_site_id
_symmetry_equiv_pos_as_xyz
1 x,y,z
2 -x,1/2+y,-z
_cell_length_a                   11.466(2)
_cell_length_b                   5.7653(12)
_cell_length_c                   24.315(5)
_cell_angle_alpha                90
_cell_angle_beta                 94.00(3)
_cell_angle_gamma                90
_cell_volume                     1603.43
loop_
_atom_site_label
_atom_site_type_symbol
_atom_site_fract_x
_atom_site_fract_y
_atom_site_fract_z
Co1 Co 0.54428(9) 0.32955(18) 0.25217(3)
S1 S 0.30432(18) 0.3254(4) -0.09061(7)
N1 N 0.3541(5) 0.3230(15) 0.2509(2)
S2 S 0.6838(2) -0.1388(5) 0.58547(8)
N2 N -0.2666(6) 0.3071(15) 0.2519(2)
O1 O 0.5298(5) 0.2385(11) 0.1723(2)
C1 C 0.5743(9) 0.1838(18) 0.3497(4)
O2 O 0.5472(5) 0.0392(11) 0.3117(2)
O3 O 0.5806(6) 0.4004(11) 0.3388(2)
C2 C -0.2130(8) 0.1331(17) 0.2255(3)
H1 H -0.2584 0.0160 0.2086
C3 C 0.2856(8) 0.4945(17) 0.2284(3)
H2 H 0.3223 0.6227 0.2141
C4 C 0.3368(8) 0.2523(15) -0.0200(3)
C5 C 0.4563(8) 0.0995(15) 0.1477(3)
C6 C 0.5969(7) -0.1858(18) 0.4800(3)
H3 H 0.5747 -0.3315 0.4919
C7 C -0.1984(8) 0.4720(16) 0.2755(3)
H4 H -0.2343 0.5892 0.2944
C8 C 0.3490(7) -0.0071(16) 0.0576(3)
H5 H 0.3297 -0.1484 0.0730
C9 C -0.0443(8) -0.165(2) -0.0595(3)
H6 H -0.0702 -0.2988 -0.0428
N3 N 0.9328(7) 0.3427(17) 0.6223(3)
C10 C 0.6568(8) -0.0339(16) 0.5170(3)
C11 C 0.1056(7) 0.3049(16) 0.2460(3)
O4 O 0.4200(5) -0.0837(10) 0.1691(2)
C12 C 0.6032(7) 0.1038(16) 0.4082(3)
C13 C 0.2947(8) 0.1408(17) 0.2709(3)
H7 H 0.3379 0.0186 0.2868
C14 C 0.4029(8) 0.4146(15) 0.0115(3)
H8 H 0.4217 0.5555 -0.0043
C15 C 0.1639(8) 0.4920(16) 0.2254(3)
H9 H 0.1220 0.6159 0.2095
C16 C 0.6630(8) 0.2528(15) 0.4456(3)
H10 H 0.6848 0.3996 0.4343
C17 C 0.4156(8) 0.1584(16) 0.0906(3)
C18 C -0.0805(7) 0.4810(16) 0.2738(3)
H11 H -0.0385 0.6029 0.2906
C19 C -0.0926(9) 0.1255(16) 0.2229(3)
H12 H -0.0581 0.0020 0.2056
C20 C 0.6902(7) 0.1827(15) 0.5000(3)
H13 H 0.7308 0.2820 0.5246
C21 C 0.1059(8) 0.0477(15) -0.1011(3)
C22 C 0.3135(8) 0.0390(15) 0.0040(3)
H14 H 0.2729 -0.0738 -0.0169
C23 C 0.1754(8) 0.1259(16) 0.2690(3)
H15 H 0.1403 -0.0045 0.2831
C24 C 0.2273(8) 0.0751(17) -0.1203(3)
H16 H 0.2221 0.0892 -0.1601
H17 H 0.2721 -0.0636 -0.1106
C25 C 0.4412(7) 0.3691(16) 0.0663(3)
H18 H 0.4840 0.4806 0.0866
C26 C 1.1070(10) 0.255(2) 0.5761(4)
H19 H 1.1812 0.2989 0.5667
C27 C -0.0223(7) 0.3054(18) 0.2467(3)
C28 C 1.0427(9) 0.3919(19) 0.6095(4)
H20 H 1.0774 0.5262 0.6241
C29 C 0.8850(9) 0.1395(18) 0.6030(3)
C30 C 0.0678(8) -0.154(2) -0.0764(3)
H21 H 0.1178 -0.2800 -0.0714
C31 C 1.0560(9) 0.053(2) 0.5573(5)
H22 H 1.0967 -0.0448 0.5349
C32 C 0.9464(9) -0.009(2) 0.5709(4)
H23 H 0.9137 -0.1495 0.5587
C33 C -0.0749(10) 0.2116(18) -0.0947(4)
H24 H -0.1255 0.3361 -0.1014
N4 N 0.0323(7) 0.2303(15) -0.1122(3)
C34 C 0.5708(8) -0.1200(16) 0.4258(3)
H25 H 0.5322 -0.2220 0.4011
C35 C -0.1171(10) 0.021(2) -0.0674(4)
H26 H -0.1920 0.0200 -0.0550
O5 O 0.5591(6) 0.6837(11) 0.2398(2)
H27 H 0.5055 0.7278 0.2182
C36 C 0.7653(8) 0.098(2) 0.6195(3)
H28 H 0.7207 0.2393 0.6131
H29 H 0.7699 0.0686 0.6589
Co1_2 Co -0.45572(9) 0.32955(18) 0.25217(3)
N2_2 N 0.7334(6) 0.3071(15) 0.2519(2)
loop_
_geom_bond_atom_site_label_1
_geom_bond_atom_site_label_2
_geom_bond_site_symmetry_1
_geom_bond_site_symmetry_2
Co1 N1 1_555 1_555
S1 C4 1_555 1_555
N1 C3 1_555 1_555
S2 C10 1_555 1_555
N2 C2 1_555 1_555
O1 Co1 1_555 1_555
C1 O2 1_555 1_555
O2 Co1 1_555 1_555
O3 Co1 1_555 1_555
C2 H1 1_555 1_555
C3 H2 1_555 1_555
C4 C14 1_555 1_555
C5 O1 1_555 1_555
C6 H3 1_555 1_555
C7 N2 1_555 1_555
H4 C7 1_555 1_555
C8 H5 1_555 1_555
C9 H6 1_555 1_555
N3 C28 1_555 1_555
C10 C6 1_555 1_555
C11 C15 1_555 1_555
O4 C5 1_555 1_555
C12 C1 1_555 1_555
C13 N1 1_555 1_555
H7 C13 1_555 1_555
C14 H8 1_555 1_555
C15 C3 1_555 1_555
H9 C15 1_555 1_555
C16 C12 1_555 1_555
H10 C16 1_555 1_555
C17 C5 1_555 1_555
C18 C7 1_555 1_555
H11 C18 1_555 1_555
C19 C2 1_555 1_555
H12 C19 1_555 1_555
C20 C10 1_555 1_555
H13 C20 1_555 1_555
C21 C24 1_555 1_555
C22 C4 1_555 1_555
H14 C22 1_555 1_555
C23 C11 1_555 1_555
H15 C23 1_555 1_555
C24 S1 1_555 1_555
H16 C24 1_555 1_555
H17 C24 1_555 1_555
C25 C14 1_555 1_555
H18 C25 1_555 1_555
C26 H19 1_555 1_555
C27 C11 1_555 1_555
C28 C26 1_555 1_555
H20 C28 1_555 1_555
C29 N3 1_555 1_555
C30 C9 1_555 1_555
H21 C30 1_555 1_555
C31 C26 1_555 1_555
H22 C31 1_555 1_555
C32 C29 1_555 1_555
H23 C32 1_555 1_555
C33 H24 1_555 1_555
N4 C21 1_555 1_555
C34 C6 1_555 1_555
H25 C34 1_555 1_555
C35 C9 1_555 1_555
H26 C35 1_555 1_555
O5 Co1 1_555 1_555
H27 O5 1_555 1_555
C36 S2 1_555 1_555
H28 C36 1_555 1_555
H29 C36 1_555 1_555
Co1_2 N2 1_555 1_555
N2_2 Co1 1_555 1_555
C1 O3 1_555 1_555
C8 C17 1_555 1_555
C8 C22 1_555 1_555
C12 C34 1_555 1_555
C13 C23 1_555 1_555
C16 C20 1_555 1_555
C17 C25 1_555 1_555
C18 C27 1_555 1_555
C19 C27 1_555 1_555
C21 C30 1_555 1_555
C29 C36 1_555 1_555
C31 C32 1_555 1_555
C33 N4 1_555 1_555
C33 C35 1_555 1_555

#END
