
#######################################################################
#
#                 Cambridge Crystallographic Data Centre
#                                CCDC 
#
#######################################################################
#
# If this CIF has been generated from an entry in the Cambridge 
# Structural Database, then it will include bibliographic, chemical, 
# crystal, experimental, refinement or atomic coordinate data resulting 
# from the CCDC's data processing and validation procedures.
#
#######################################################################

data_LASBEO
_symmetry_cell_setting           monoclinic
_symmetry_space_group_name_H-M   'P 21/c'
_symmetry_Int_Tables_number      14
_space_group_name_Hall           '-P 2ybc'
loop_
_symmetry_equiv_pos_site_id
_symmetry_equiv_pos_as_xyz
1 x,y,z
2 -x,1/2+y,1/2-z
3 -x,-y,-z
4 x,1/2-y,1/2+z
_cell_length_a                   13.442(3)
_cell_length_b                   11.609(2)
_cell_length_c                   7.8280(16)
_cell_angle_alpha                90
_cell_angle_beta                 92.43(3)
_cell_angle_gamma                90
_cell_volume                     1220.45
loop_
_atom_site_label
_atom_site_type_symbol
_atom_site_fract_x
_atom_site_fract_y
_atom_site_fract_z
Co1 Co 0.0000 1.0000 0.0000
N1 N 0.1440(3) 1.0788(3) 0.0397(5)
S1 S 0.49630(9) 1.08236(12) 0.30470(19)
O1 O 0.9259(3) 1.3471(3) 0.4903(5)
O2 O 0.9837(3) 1.1694(3) 0.4901(4)
O3 O -0.0174(3) 0.9921(3) 0.2638(5)
H1 H -0.0134 1.0571 0.3043
C1 C 0.2218(3) 1.0335(4) -0.0342(6)
H2 H 0.2106 0.9764 -0.1160
C2 C 0.3185(4) 1.0670(4) 0.0045(7)
H3 H 0.3710 1.0315 -0.0485
C3 C 0.3366(4) 1.1526(4) 0.1212(7)
C4 C 0.2549(4) 1.2005(5) 0.1963(8)
H4 H 0.2637 1.2590 0.2766
C5 C 0.1626(4) 1.1624(5) 0.1530(7)
H5 H 0.1089 1.1963 0.2051
C6 C 0.4396(4) 1.1907(5) 0.1696(8)
H6 H 0.4380 1.2637 0.2298
H7 H 0.4776 1.2009 0.0680
C7 C 0.9156(3) 1.2419(4) 0.4720(6)
C8 C 0.8127(3) 1.2012(4) 0.4250(5)
C9 C 0.7458(3) 1.2751(4) 0.3454(6)
H8 H 0.7664 1.3493 0.3192
C10 C 0.6495(3) 1.2428(4) 0.3030(6)
H9 H 0.6060 1.2939 0.2469
C11 C 0.6181(3) 1.1324(4) 0.3453(6)
C12 C 0.6847(3) 1.0572(4) 0.4250(6)
H10 H 0.6642 0.9833 0.4527
C13 C 0.7812(3) 1.0910(4) 0.4638(6)
H11 H 0.8256 1.0393 0.5164
Co1A Co 1.0000 1.5000 0.5000
Co1A_2 Co -1.0000 0.5000 -0.5000
N1B N -0.1440(3) 0.9212(3) -0.0397(5)
S1B S -0.49630(9) 0.91764(12) -0.30470(19)
O1A O 0.0741(3) 0.8471(3) 0.0097(5)
O1B O -0.9259(3) 0.6529(3) -0.4903(5)
O1C O -0.0741(3) 1.1529(3) -0.0097(5)
O2B O -0.9837(3) 0.8306(3) -0.4901(4)
O3B O 0.0174(3) 1.0079(3) -0.2638(5)
H1B H 0.0134 0.9429 -0.3043
C1B C -0.2218(3) 0.9665(4) 0.0342(6)
H2B H -0.2106 1.0236 0.1160
C2B C -0.3185(4) 0.9330(4) -0.0045(7)
H3B H -0.3710 0.9685 0.0485
C3B C -0.3366(4) 0.8474(4) -0.1212(7)
C4B C -0.2549(4) 0.7995(5) -0.1963(8)
H4B H -0.2637 0.7410 -0.2766
C5B C -0.1626(4) 0.8376(5) -0.1530(7)
H5B H -0.1089 0.8037 -0.2051
C6B C -0.4396(4) 0.8093(5) -0.1696(8)
H6B H -0.4380 0.7363 -0.2298
H7B H -0.4776 0.7991 -0.0680
C7B C -0.9156(3) 0.7581(4) -0.4720(6)
C8B C -0.8127(3) 0.7988(4) -0.4250(5)
C9B C -0.7458(3) 0.7249(4) -0.3454(6)
H8B H -0.7664 0.6507 -0.3192
C10B C -0.6495(3) 0.7572(4) -0.3030(6)
H9B H -0.6060 0.7061 -0.2469
C11B C -0.6181(3) 0.8676(4) -0.3453(6)
C12B C -0.6847(3) 0.9428(4) -0.4250(6)
H10B H -0.6642 1.0167 -0.4527
C13B C -0.7812(3) 0.9090(4) -0.4638(6)
H11B H -0.8256 0.9607 -0.5164
loop_
_geom_bond_atom_site_label_1
_geom_bond_atom_site_label_2
_geom_bond_site_symmetry_1
_geom_bond_site_symmetry_2
Co1 N1 1_555 1_555
N1 C1 1_555 1_555
S1 C6 1_555 1_555
O1 C7 1_555 1_555
O2 C7 1_555 1_555
O3 Co1 1_555 1_555
H1 O3 1_555 1_555
C1 H2 1_555 1_555
C2 C1 1_555 1_555
H3 C2 1_555 1_555
C3 C2 1_555 1_555
C4 C3 1_555 1_555
H4 C4 1_555 1_555
C5 N1 1_555 1_555
H5 C5 1_555 1_555
C6 C3 1_555 1_555
H6 C6 1_555 1_555
H7 C6 1_555 1_555
C7 C8 1_555 1_555
C8 C9 1_555 1_555
C9 H8 1_555 1_555
C10 C9 1_555 1_555
H9 C10 1_555 1_555
C11 S1 1_555 1_555
C12 C11 1_555 1_555
H10 C12 1_555 1_555
C13 C8 1_555 1_555
H11 C13 1_555 1_555
Co1A O1 1_555 1_555
Co1A_2 O1B 1_555 1_555
N1B Co1 1_555 1_555
S1B C6B 1_555 1_555
O1A Co1 1_555 1_555
O1B C7B 1_555 1_555
O1C Co1 1_555 1_555
O2B C7B 1_555 1_555
O3B Co1 1_555 1_555
H1B O3B 1_555 1_555
C1B N1B 1_555 1_555
H2B C1B 1_555 1_555
C2B C1B 1_555 1_555
H3B C2B 1_555 1_555
C3B C2B 1_555 1_555
C4B C3B 1_555 1_555
H4B C4B 1_555 1_555
C5B N1B 1_555 1_555
H5B C5B 1_555 1_555
C6B C3B 1_555 1_555
H6B C6B 1_555 1_555
H7B C6B 1_555 1_555
C7B C8B 1_555 1_555
C8B C9B 1_555 1_555
C9B H8B 1_555 1_555
C10B C9B 1_555 1_555
H9B C10B 1_555 1_555
C11B S1B 1_555 1_555
C12B C11B 1_555 1_555
H10B C12B 1_555 1_555
C13B C8B 1_555 1_555
H11B C13B 1_555 1_555
C4 C5 1_555 1_555
C10 C11 1_555 1_555
C12 C13 1_555 1_555
C4B C5B 1_555 1_555
C10B C11B 1_555 1_555
C12B C13B 1_555 1_555

#END
