
#######################################################################
#
#                 Cambridge Crystallographic Data Centre
#                                CCDC 
#
#######################################################################
#
# If this CIF has been generated from an entry in the Cambridge 
# Structural Database, then it will include bibliographic, chemical, 
# crystal, experimental, refinement or atomic coordinate data resulting 
# from the CCDC's data processing and validation procedures.
#
#######################################################################

data_LASCUF
_symmetry_cell_setting           orthorhombic
_symmetry_space_group_name_H-M   'P b c a'
_symmetry_Int_Tables_number      61
_space_group_name_Hall           '-P 2ac 2ab'
loop_
_symmetry_equiv_pos_site_id
_symmetry_equiv_pos_as_xyz
1 x,y,z
2 1/2-x,-y,1/2+z
3 1/2+x,1/2-y,-z
4 -x,1/2+y,1/2-z
5 -x,-y,-z
6 1/2+x,y,1/2-z
7 1/2-x,1/2+y,z
8 x,1/2-y,1/2+z
_cell_length_a                   9.6327(1)
_cell_length_b                   14.0345(2)
_cell_length_c                   18.3967(2)
_cell_angle_alpha                90
_cell_angle_beta                 90
_cell_angle_gamma                90
_cell_volume                     2487.05
loop_
_atom_site_label
_atom_site_type_symbol
_atom_site_fract_x
_atom_site_fract_y
_atom_site_fract_z
Cu1 Cu 0.60313(3) 0.463477(18) 0.605424(15)
N1 N 0.70610(19) 0.51882(13) 0.51992(10)
N2 N 0.5447(2) 0.59347(13) 0.61544(10)
O1 O 0.4137(2) 0.69815(12) 0.68331(10)
N3 N 0.4666(2) 0.44759(12) 0.69038(10)
N4 N 0.6373(2) 0.33090(14) 0.57900(11)
N5 N 0.5768(2) 0.26059(15) 0.59447(11)
C1 C 0.4287(3) 0.37094(17) 0.72793(14)
H1 H 0.4644 0.3117 0.7153
N6 N 0.2826(2) 0.46070(13) 0.80607(11)
C2 C 0.4586(2) 0.61802(16) 0.66744(12)
C3 C 0.5960(2) 0.66266(16) 0.56425(13)
H2 H 0.6481 0.7116 0.5896
H3 H 0.5189 0.6928 0.5393
C4 C 0.6879(2) 0.61315(15) 0.51030(12)
C5 C 0.7528(2) 0.66079(17) 0.45376(12)
H4 H 0.7377 0.7256 0.4469
C6 C 0.3222(3) 0.53753(16) 0.76869(13)
H5 H 0.2873 0.5967 0.7821
C7 C 0.3370(3) 0.37796(17) 0.78549(14)
H6 H 0.3126 0.3230 0.8106
N7 N 0.5226(3) 0.19026(18) 0.60650(15)
C8 C 0.4132(2) 0.53241(15) 0.71077(13)
C9 C 0.8582(3) 0.5150(2) 0.41815(15)
H7 H 0.9158 0.4802 0.3874
C10 C 0.7907(3) 0.47148(17) 0.47434(14)
H8 H 0.8038 0.4065 0.4814
C11 C 0.8397(3) 0.61154(18) 0.40773(13)
H9 H 0.8852 0.6429 0.3701
Cu1E Cu 0.10313(3) 0.463477(18) 0.894576(15)
N6E N 0.7826(2) 0.46070(13) 0.69393(11)
loop_
_geom_bond_atom_site_label_1
_geom_bond_atom_site_label_2
_geom_bond_site_symmetry_1
_geom_bond_site_symmetry_2
Cu1 N1 1_555 1_555
N1 C4 1_555 1_555
N2 Cu1 1_555 1_555
O1 C2 1_555 1_555
N3 Cu1 1_555 1_555
N4 Cu1 1_555 1_555
N5 N4 1_555 1_555
C1 N3 1_555 1_555
H1 C1 1_555 1_555
N6 C6 1_555 1_555
C2 N2 1_555 1_555
C3 N2 1_555 1_555
H2 C3 1_555 1_555
H3 C3 1_555 1_555
C4 C3 1_555 1_555
C5 C4 1_555 1_555
H4 C5 1_555 1_555
C6 H5 1_555 1_555
C7 C1 1_555 1_555
H6 C7 1_555 1_555
N7 N5 1_555 1_555
C8 N3 1_555 1_555
C9 H7 1_555 1_555
C10 N1 1_555 1_555
H8 C10 1_555 1_555
C11 C5 1_555 1_555
H9 C11 1_555 1_555
Cu1E N6 1_555 1_555
N6E Cu1 1_555 1_555
N6 C7 1_555 1_555
C2 C8 1_555 1_555
C6 C8 1_555 1_555
C9 C10 1_555 1_555
C9 C11 1_555 1_555

#END
