
#######################################################################
#
#                 Cambridge Crystallographic Data Centre
#                                CCDC 
#
#######################################################################
#
# If this CIF has been generated from an entry in the Cambridge 
# Structural Database, then it will include bibliographic, chemical, 
# crystal, experimental, refinement or atomic coordinate data resulting 
# from the CCDC's data processing and validation procedures.
#
#######################################################################

data_LASCEP
_symmetry_cell_setting           monoclinic
_symmetry_space_group_name_H-M   'P 21/c'
_symmetry_Int_Tables_number      14
_space_group_name_Hall           '-P 2ybc'
loop_
_symmetry_equiv_pos_site_id
_symmetry_equiv_pos_as_xyz
1 x,y,z
2 -x,1/2+y,1/2-z
3 -x,-y,-z
4 x,1/2-y,1/2+z
_cell_length_a                   5.1845(4)
_cell_length_b                   22.8596(16)
_cell_length_c                   14.7738(12)
_cell_angle_alpha                90
_cell_angle_beta                 109.784(7)
_cell_angle_gamma                90
_cell_volume                     1647.58
loop_
_atom_site_label
_atom_site_type_symbol
_atom_site_fract_x
_atom_site_fract_y
_atom_site_fract_z
Cu1 Cu -0.20354(9) -0.31665(2) 0.35524(3)
Cu2 Cu -0.56192(8) -0.445789(18) 0.04439(3)
O1 O -0.1133(5) -0.40475(10) 0.31649(18)
O2 O -0.3926(5) -0.41346(10) 0.16757(17)
O3 O -0.1135(5) -0.59830(10) -0.01914(19)
O4 O 0.3300(5) -0.61477(11) 0.04267(19)
O5 O -0.2785(4) -0.50399(9) 0.06535(17)
O6 O 0.6962(6) -0.51568(14) 0.4532(2)
O7 O 0.8408(6) -0.57612(12) 0.3684(2)
N1 N 0.1517(6) -0.30185(12) 0.4522(2)
N2 N 1.4395(6) -0.21436(12) 0.7834(2)
N3 N 0.6726(7) -0.54100(14) 0.3785(2)
C1 C 0.2079(7) -0.24678(16) 0.4852(3)
H1 H 0.0738 -0.2182 0.4621
C2 C 0.4559(7) -0.23103(15) 0.5518(3)
H2 H 0.4861 -0.1924 0.5723
C3 C 0.3496(7) -0.34177(15) 0.4875(3)
H3 H 0.3142 -0.3802 0.4664
C4 C 0.6041(7) -0.32863(15) 0.5537(3)
H4 H 0.7369 -0.3576 0.5748
C5 C 0.6603(7) -0.27203(14) 0.5886(2)
C6 C 0.9295(7) -0.25336(15) 0.6589(3)
C7 C 1.1144(7) -0.29157(15) 0.7209(3)
H5 H 1.0703 -0.3309 0.7222
C8 C 1.2571(7) -0.17765(16) 0.7250(3)
H6 H 1.3027 -0.1382 0.7264
C9 C 1.3644(7) -0.27077(16) 0.7806(3)
H7 H 1.4868 -0.2972 0.8209
C10 C 1.0066(7) -0.19514(14) 0.6633(3)
H8 H 0.8876 -0.1678 0.6242
C11 C -0.1804(7) -0.42934(14) 0.2379(3)
C12 C 0.1206(7) -0.59110(14) 0.0473(3)
C13 C 0.1448(7) -0.55409(14) 0.1344(2)
C14 C -0.0493(7) -0.51219(14) 0.1399(2)
C15 C 0.0012(7) -0.47775(14) 0.2248(2)
C16 C 0.2394(7) -0.48883(15) 0.3023(3)
H9 H 0.2736 -0.4679 0.3592
C17 C 0.3837(7) -0.56163(15) 0.2130(3)
H10 H 0.5165 -0.5880 0.2094
C18 C 0.4232(7) -0.53010(15) 0.2956(3)
Cu1C Cu 1.79646(9) -0.18335(2) 0.85524(3)
Cu2B Cu -0.43808(8) -0.554211(18) -0.04439(3)
Cu2B_2 Cu 0.56192(8) -0.554211(18) -0.04439(3)
O3B O -0.8865(5) -0.40170(10) 0.01914(19)
O4B O -0.3300(5) -0.38523(11) -0.04267(19)
O5B O -0.7215(4) -0.49601(9) -0.06535(17)
N2C N -0.5605(6) -0.28564(12) 0.2834(2)
loop_
_geom_bond_atom_site_label_1
_geom_bond_atom_site_label_2
_geom_bond_site_symmetry_1
_geom_bond_site_symmetry_2
Cu1 O1 1_555 1_555
Cu2 O2 1_555 1_555
O1 C11 1_555 1_555
O2 C11 1_555 1_555
O3 C12 1_555 1_555
O4 C12 1_555 1_555
O5 Cu2 1_555 1_555
O6 N3 1_555 1_555
O7 N3 1_555 1_555
N1 Cu1 1_555 1_555
N2 C8 1_555 1_555
N3 C18 1_555 1_555
C1 N1 1_555 1_555
H1 C1 1_555 1_555
C2 C1 1_555 1_555
H2 C2 1_555 1_555
C3 N1 1_555 1_555
H3 C3 1_555 1_555
C4 C3 1_555 1_555
H4 C4 1_555 1_555
C5 C2 1_555 1_555
C6 C5 1_555 1_555
C7 C6 1_555 1_555
H5 C7 1_555 1_555
C8 H6 1_555 1_555
C9 N2 1_555 1_555
H7 C9 1_555 1_555
C10 C6 1_555 1_555
H8 C10 1_555 1_555
C11 C15 1_555 1_555
C12 C13 1_555 1_555
C13 C14 1_555 1_555
C14 O5 1_555 1_555
C15 C14 1_555 1_555
C16 C15 1_555 1_555
H9 C16 1_555 1_555
C17 C13 1_555 1_555
H10 C17 1_555 1_555
C18 C16 1_555 1_555
Cu1C N2 1_555 1_555
Cu2B O3 1_555 1_555
Cu2B_2 O4 1_555 1_555
O3B Cu2 1_555 1_555
O4B Cu2 1_555 1_555
O5B Cu2 1_555 1_555
N2C Cu1 1_555 1_555
O5 Cu2B 1_555 1_555
C4 C5 1_555 1_555
C7 C9 1_555 1_555
C8 C10 1_555 1_555
C17 C18 1_555 1_555
Cu2B O5B 1_555 1_555

#END
