
#######################################################################
#
#                 Cambridge Crystallographic Data Centre
#                                CCDC 
#
#######################################################################
#
# If this CIF has been generated from an entry in the Cambridge 
# Structural Database, then it will include bibliographic, chemical, 
# crystal, experimental, refinement or atomic coordinate data resulting 
# from the CCDC's data processing and validation procedures.
#
#######################################################################

data_LASMEZ
_symmetry_cell_setting           triclinic
_symmetry_space_group_name_H-M   'P -1'
_symmetry_Int_Tables_number      2
_space_group_name_Hall           '-P 1'
loop_
_symmetry_equiv_pos_site_id
_symmetry_equiv_pos_as_xyz
1 x,y,z
2 -x,-y,-z
_cell_length_a                   10.8218(11)
_cell_length_b                   15.0383(16)
_cell_length_c                   16.8360(17)
_cell_angle_alpha                87.608(2)
_cell_angle_beta                 87.621(2)
_cell_angle_gamma                72.264(2)
_cell_volume                     2606.22
loop_
_atom_site_label
_atom_site_type_symbol
_atom_site_fract_x
_atom_site_fract_y
_atom_site_fract_z
Zn1 Zn 0.72500(7) 0.60964(6) 0.44109(4)
Zn2 Zn 1.14716(7) 0.64794(6) 0.93208(4)
C1 C 0.4948(6) 0.6370(4) 0.7085(4)
H1 H 0.4312 0.6290 0.6764
C2 C 0.6143(6) 0.6344(4) 0.6752(4)
C3 C 0.7081(7) 0.6495(4) 0.7225(4)
H2 H 0.7883 0.6496 0.7004
C4 C 0.6810(6) 0.6641(4) 0.8017(4)
C5 C 0.5628(6) 0.6639(5) 0.8372(4)
H3 H 0.5475 0.6718 0.8916
C6 C 0.4677(6) 0.6514(4) 0.7892(4)
C7 C 0.9065(6) 0.6454(5) 0.8449(4)
H4 H 0.9507 0.5991 0.8101
C8 C 0.7579(7) 0.7470(5) 0.9060(5)
H5 H 0.6768 0.7857 0.9222
C9 C 0.6437(7) 0.6178(5) 0.5887(4)
C10 C 0.3371(7) 0.6542(5) 0.8243(4)
C11 C 0.0486(6) 0.6036(4) 0.2416(4)
H6 H -0.0342 0.6032 0.2290
C12 C 0.1427(6) 0.5961(4) 0.1808(4)
C13 C 0.2669(6) 0.5929(4) 0.2010(4)
H7 H 0.3323 0.5846 0.1618
C14 C 0.2934(6) 0.6021(4) 0.2794(4)
C15 C 0.1998(6) 0.6113(5) 0.3386(4)
H8 H 0.2191 0.6175 0.3910
C16 C 0.0756(6) 0.6114(4) 0.3198(4)
C17 C 0.4983(7) 0.6402(6) 0.2479(4)
H9 H 0.4787 0.6627 0.1961
C18 C 0.4843(6) 0.5827(5) 0.3651(4)
H10 H 0.4541 0.5575 0.4105
C19 C 0.1092(6) 0.5966(5) 0.0952(4)
C20 C -0.0278(6) 0.6212(5) 0.3850(4)
N1 N 0.7764(5) 0.6835(4) 0.8495(3)
N2 N 0.9612(5) 0.6827(4) 0.8961(3)
N3 N 0.8655(6) 0.7482(4) 0.9352(4)
N4 N 0.4207(5) 0.6052(4) 0.2965(3)
N5 N 0.6038(6) 0.6385(5) 0.2829(4)
N6 N 0.5942(5) 0.6013(4) 0.3587(3)
O1 O 0.5598(5) 0.6016(4) 0.5466(3)
O2 O 0.7500(5) 0.6222(4) 0.5588(3)
O3 O 0.2426(5) 0.6710(5) 0.7818(4)
O4 O 0.3291(5) 0.6405(4) 0.8982(3)
O5 O 0.0084(5) 0.5816(4) 0.0772(3)
O6 O 0.1887(5) 0.6171(4) 0.0452(3)
O7 O -0.1379(4) 0.6221(4) 0.3632(3)
O8 O -0.0005(5) 0.6304(4) 0.4540(3)
O17 O 0.8057(6) 0.4663(4) 0.4532(3)
H21 H 0.8731 0.4392 0.4777
H22 H 0.8037 0.4376 0.4116
O18 O 0.6246(5) 0.7594(3) 0.4374(3)
H23 H 0.5452 0.7686 0.4481
H24 H 0.6577 0.7858 0.4701
O19 O 1.1762(5) 0.5068(4) 0.8951(3)
H25 H 1.2295 0.4733 0.8627
H26 H 1.1220 0.4796 0.9111
O20 O 1.1183(5) 0.7941(4) 0.9512(3)
H27 H 1.1052 0.8047 1.0000
H28 H 1.1833 0.8082 0.9332
Zn1_2 Zn -0.27500(7) 0.60964(6) 0.44109(4)
Zn2_2 Zn 0.14716(7) 0.64794(6) 0.93208(4)
Zn2_3 Zn 0.14716(7) 0.64794(6) -0.06792(4)
O4_2 O 1.3291(5) 0.6405(4) 0.8982(3)
O6_2 O 1.1887(5) 0.6171(4) 1.0452(3)
O7_2 O 0.8621(4) 0.6221(4) 0.3632(3)
Zn3 Zn 0.77103(7) 0.88825(6) 0.57822(4)
Zn4 Zn 0.35588(7) 0.85982(6) 0.08337(4)
C21 C 1.4462(6) 0.8965(4) 0.7705(4)
H11 H 1.5310 0.8935 0.7813
C22 C 1.4137(6) 0.8898(5) 0.6930(4)
C23 C 1.2864(6) 0.8939(5) 0.6764(4)
H12 H 1.2638 0.8876 0.6247
C24 C 1.1956(6) 0.9074(4) 0.7374(4)
C25 C 1.2275(6) 0.9154(5) 0.8150(4)
H13 H 1.1639 0.9259 0.8554
C26 C 1.3553(6) 0.9075(4) 0.8323(4)
C27 C 1.0045(6) 0.9211(5) 0.6528(4)
H14 H 1.0428 0.9300 0.6039
C28 C 0.9733(8) 0.9013(7) 0.7760(4)
H15 H 0.9860 0.8925 0.8304
C29 C 1.5143(6) 0.8757(5) 0.6267(4)
C30 C 1.3946(6) 0.9061(4) 0.9177(4)
C31 C 1.0163(6) 0.8605(4) 0.3062(3)
H16 H 1.0814 0.8675 0.3375
C32 C 1.0404(6) 0.8479(5) 0.2254(4)
C33 C 0.9429(6) 0.8365(4) 0.1783(4)
H17 H 0.9564 0.8296 0.1237
C34 C 0.8259(6) 0.8357(4) 0.2147(4)
C35 C 0.8021(6) 0.8493(4) 0.2944(4)
H18 H 0.7224 0.8495 0.3174
C36 C 0.8981(6) 0.8629(5) 0.3411(4)
C37 C 0.7434(7) 0.7491(5) 0.1151(4)
H19 H 0.8229 0.7059 0.1022
C38 C 0.5992(6) 0.8627(5) 0.1678(4)
H20 H 0.5573 0.9135 0.1988
C39 C 1.1679(7) 0.8495(5) 0.1879(4)
C40 C 0.8726(7) 0.8799(5) 0.4286(4)
N7 N 1.0644(5) 0.9100(4) 0.7225(3)
N8 N 0.8861(5) 0.9177(4) 0.6623(3)
N9 N 0.8650(6) 0.9066(6) 0.7427(4)
N10 N 0.7275(5) 0.8175(4) 0.1671(3)
N11 N 0.6346(6) 0.7510(4) 0.0852(4)
N12 N 0.5427(5) 0.8244(4) 0.1187(3)
O9 O 1.6261(5) 0.8715(4) 0.6468(3)
O10 O 1.4831(5) 0.8664(4) 0.5581(3)
O11 O 1.5008(4) 0.9139(4) 0.9324(3)
O12 O 1.3131(5) 0.8934(4) 0.9695(2)
O13 O 1.2640(5) 0.8334(4) 0.2294(3)
O14 O 1.1715(5) 0.8676(4) 0.1142(3)
O15 O 0.9500(6) 0.9047(4) 0.4669(3)
O16 O 0.7678(5) 0.8702(4) 0.4595(3)
O21 O 0.8888(5) 0.7483(4) 0.5910(3)
H29 H 0.9045 0.7000 0.5635
H30 H 0.9433 0.7402 0.6257
O22 O 0.6777(6) 1.0277(4) 0.5557(3)
H31 H 0.6386 1.0487 0.5138
H32 H 0.6891 1.0720 0.5805
O23 O 0.3803(5) 0.7156(4) 0.0636(3)
H33 H 0.3243 0.6886 0.0560
H34 H 0.4514 0.6855 0.0424
O24 O 0.3258(5) 1.0000(3) 0.1218(3)
H35 H 0.2855 1.0234 0.1632
H36 H 0.3609 1.0378 0.0993
Zn3_2 Zn 1.77103(7) 0.88825(6) 0.57822(4)
Zn4_2 Zn 1.35588(7) 0.85982(6) 1.08337(4)
Zn4_3 Zn 1.35588(7) 0.85982(6) 0.08337(4)
O9_2 O 0.6261(5) 0.8715(4) 0.6468(3)
O12_2 O 0.3131(5) 0.8934(4) -0.0305(2)
O14_2 O 0.1715(5) 0.8676(4) 0.1142(3)
O25 O 0.5555(7) 0.1330(5) 0.6752(4)
O26 O 0.5761(7) 0.5594(5) 0.0320(5)
O27 O 0.1319(7) 0.5308(5) 0.7377(4)
O28 O 0.9070(9) 0.9366(6) 0.9900(6)
O29 O 0.8488(12) 0.2935(8) 0.3645(8)
O30 O 0.740(4) 0.241(4) 0.503(2)
O31? O 0.8031(17) 0.1598(14) 0.5054(11)
loop_
_geom_bond_atom_site_label_1
_geom_bond_atom_site_label_2
_geom_bond_site_symmetry_1
_geom_bond_site_symmetry_2
Zn1 N6 1_555 1_555
Zn2 N2 1_555 1_555
Zn3 N8 1_555 1_555
Zn4 N12 1_555 1_555
C1 H1 1_555 1_555
C2 C1 1_555 1_555
C3 C2 1_555 1_555
H2 C3 1_555 1_555
C4 C3 1_555 1_555
C5 C4 1_555 1_555
H3 C5 1_555 1_555
C6 C1 1_555 1_555
C7 H4 1_555 1_555
C8 H5 1_555 1_555
C9 C2 1_555 1_555
C10 C6 1_555 1_555
C11 H6 1_555 1_555
C12 C11 1_555 1_555
C13 C12 1_555 1_555
H7 C13 1_555 1_555
C14 C13 1_555 1_555
C15 C14 1_555 1_555
H8 C15 1_555 1_555
C16 C11 1_555 1_555
C17 H9 1_555 1_555
C18 H10 1_555 1_555
C19 C12 1_555 1_555
C20 C16 1_555 1_555
C21 H11 1_555 1_555
C22 C21 1_555 1_555
C23 C22 1_555 1_555
H12 C23 1_555 1_555
C24 C23 1_555 1_555
C25 C24 1_555 1_555
H13 C25 1_555 1_555
C26 C21 1_555 1_555
C27 H14 1_555 1_555
C28 H15 1_555 1_555
C29 C22 1_555 1_555
C30 C26 1_555 1_555
C31 H16 1_555 1_555
C32 C31 1_555 1_555
C33 C32 1_555 1_555
H17 C33 1_555 1_555
C34 C33 1_555 1_555
C35 C34 1_555 1_555
H18 C35 1_555 1_555
C36 C31 1_555 1_555
C37 H19 1_555 1_555
C38 H20 1_555 1_555
C39 C32 1_555 1_555
C40 C36 1_555 1_555
N1 C4 1_555 1_555
N2 C7 1_555 1_555
N3 C8 1_555 1_555
N4 C14 1_555 1_555
N5 C17 1_555 1_555
N6 C18 1_555 1_555
N7 C24 1_555 1_555
N8 C27 1_555 1_555
N9 C28 1_555 1_555
N10 C34 1_555 1_555
N11 C37 1_555 1_555
N12 C38 1_555 1_555
O1 C9 1_555 1_555
O2 Zn1 1_555 1_555
O3 C10 1_555 1_555
O4 C10 1_555 1_555
O5 C19 1_555 1_555
O6 C19 1_555 1_555
O7 C20 1_555 1_555
O8 C20 1_555 1_555
O9 C29 1_555 1_555
O10 C29 1_555 1_555
O11 C30 1_555 1_555
O12 C30 1_555 1_555
O13 C39 1_555 1_555
O14 C39 1_555 1_555
O15 C40 1_555 1_555
O16 Zn3 1_555 1_555
O17 Zn1 1_555 1_555
H21 O17 1_555 1_555
H22 O17 1_555 1_555
O18 Zn1 1_555 1_555
H23 O18 1_555 1_555
H24 O18 1_555 1_555
O19 Zn2 1_555 1_555
H25 O19 1_555 1_555
H26 O19 1_555 1_555
O20 Zn2 1_555 1_555
H27 O20 1_555 1_555
H28 O20 1_555 1_555
O21 Zn3 1_555 1_555
H29 O21 1_555 1_555
H30 O21 1_555 1_555
O22 Zn3 1_555 1_555
H31 O22 1_555 1_555
H32 O22 1_555 1_555
O23 Zn4 1_555 1_555
H33 O23 1_555 1_555
H34 O23 1_555 1_555
O24 Zn4 1_555 1_555
H35 O24 1_555 1_555
H36 O24 1_555 1_555
Zn1_2 O7 1_555 1_555
Zn2_2 O4 1_555 1_555
Zn2_3 O6 1_555 1_555
Zn3_2 O9 1_555 1_555
Zn4_2 O12 1_555 1_555
Zn4_3 O14 1_555 1_555
O4_2 Zn2 1_555 1_555
O6_2 Zn2 1_555 1_555
O7_2 Zn1 1_555 1_555
O9_2 Zn3 1_555 1_555
O12_2 Zn4 1_555 1_555
O14_2 Zn4 1_555 1_555
C5 C6 1_555 1_555
C7 N1 1_555 1_555
C8 N1 1_555 1_555
C9 O2 1_555 1_555
C15 C16 1_555 1_555
C17 N4 1_555 1_555
C18 N4 1_555 1_555
C25 C26 1_555 1_555
C27 N7 1_555 1_555
C28 N7 1_555 1_555
C35 C36 1_555 1_555
C37 N10 1_555 1_555
C38 N10 1_555 1_555
C40 O16 1_555 1_555
N2 N3 1_555 1_555
N5 N6 1_555 1_555
N8 N9 1_555 1_555
N11 N12 1_555 1_555

#END
