
#######################################################################
#
#                 Cambridge Crystallographic Data Centre
#                                CCDC 
#
#######################################################################
#
# If this CIF has been generated from an entry in the Cambridge 
# Structural Database, then it will include bibliographic, chemical, 
# crystal, experimental, refinement or atomic coordinate data resulting 
# from the CCDC's data processing and validation procedures.
#
#######################################################################

data_LASMID
_symmetry_cell_setting           monoclinic
_symmetry_space_group_name_H-M   'C 2/c'
_symmetry_Int_Tables_number      15
_space_group_name_Hall           '-C 2yn'
loop_
_symmetry_equiv_pos_site_id
_symmetry_equiv_pos_as_xyz
1 x,y,z
2 -x,y,1/2-z
3 1/2+x,1/2+y,z
4 1/2-x,1/2+y,1/2-z
5 -x,-y,-z
6 x,-y,1/2+z
7 1/2-x,1/2-y,-z
8 1/2+x,1/2-y,1/2+z
_cell_length_a                   20.592(4)
_cell_length_b                   7.4868(12)
_cell_length_c                   17.275(3)
_cell_angle_alpha                90
_cell_angle_beta                 123.440(6)
_cell_angle_gamma                90
_cell_volume                     2222.39
loop_
_atom_site_label
_atom_site_type_symbol
_atom_site_fract_x
_atom_site_fract_y
_atom_site_fract_z
Zn1 Zn 1.008639(17) 0.73793(4) 0.495581(19)
C1 C 1.26426(14) 0.9839(3) 1.04678(18)
H1 H 1.2977 0.9818 1.1111
C2 C 1.18886(13) 0.9175(3) 1.00465(16)
C3 C 1.13929(14) 0.9210(3) 0.90920(17)
H2 H 1.0889 0.8768 0.8802
C4 C 1.16569(14) 0.9912(3) 0.85754(17)
C5 C 1.23957(14) 1.0578(4) 0.89778(16)
H3 H 1.2557 1.1054 0.8613
C6 C 1.28994(14) 1.0533(3) 0.99366(17)
C7 C 1.11003(14) 0.8655(3) 0.69899(17)
H4 H 1.1385 0.7599 0.7171
C8 C 1.06509(14) 1.1201(4) 0.70291(17)
H5 H 1.0560 1.2252 0.7241
C9 C 1.16048(14) 0.8367(3) 1.06082(17)
C10 C 1.37157(14) 1.1183(3) 1.03660(17)
N1 N 1.11487(12) 0.9919(3) 0.75772(15)
N2 N 1.05973(12) 0.9126(3) 0.61327(14)
N3 N 1.03124(11) 1.0770(3) 0.61575(14)
O1 O 1.09512(12) 0.7604(2) 1.01508(15)
O2 O 1.20317(10) 0.8459(3) 1.14752(12)
O3 O 1.38697(10) 1.1844(3) 0.98103(12)
O4 O 1.41951(11) 1.0999(3) 1.12185(13)
O5 O 0.96426(11) 0.4963(2) 0.40581(13)
H6 H 0.9169 0.5087 0.3633
H7 H 0.9883 0.4973 0.3826
Zn1D Zn 0.991361(17) 1.26207(4) 0.504419(19)
Zn1A Zn 0.991361(17) 0.73793(4) 1.004419(19)
Zn1C Zn 1.491361(17) 1.23793(4) 1.004419(19)
Zn1D_2 Zn 0.991361(17) 0.26207(4) 0.504419(19)
Zn1E Zn 1.008639(17) 1.26207(4) -0.004419(19)
Zn1G Zn 0.508639(17) 0.76207(4) -0.004419(19)
C1D C 0.73574(14) 1.0161(3) -0.04678(18)
H1D H 0.7023 1.0182 -0.1111
C2D C 0.81114(13) 1.0825(3) -0.00465(16)
C3D C 0.86071(14) 1.0790(3) 0.09080(17)
H2D H 0.9111 1.1232 0.1198
C4D C 0.83431(14) 1.0088(3) 0.14246(17)
C5D C 0.76043(14) 0.9422(4) 0.10222(16)
H3D H 0.7443 0.8946 0.1387
C6D C 0.71006(14) 0.9467(3) 0.00634(17)
C7D C 0.88997(14) 1.1345(3) 0.30101(17)
H4D H 0.8615 1.2401 0.2829
C8D C 0.93491(14) 0.8799(4) 0.29709(17)
H5D H 0.9440 0.7748 0.2759
C9D C 0.83952(14) 1.1633(3) -0.06082(17)
C10D C 0.62843(14) 0.8817(3) -0.03660(17)
N1D N 0.88513(12) 1.0081(3) 0.24228(15)
N2D N 0.94027(12) 1.0874(3) 0.38673(14)
N3D N 0.96876(11) 0.9230(3) 0.38425(14)
O1D O 0.90488(12) 1.2396(2) -0.01508(15)
O1A O 0.90488(12) 0.7604(2) 0.48492(15)
O1E O 1.09512(12) 1.2396(2) 0.51508(15)
O2D O 0.79683(10) 1.1541(3) -0.14752(12)
O3D O 0.61303(10) 0.8156(3) 0.01897(12)
O3C O 1.11303(10) 0.6844(3) 0.51897(12)
O3G O 0.88697(10) 1.3156(3) 0.48103(12)
O4D O 0.58049(11) 0.9001(3) -0.12185(13)
O5D O 1.03574(11) 0.5037(2) 0.59419(13)
O5D_2 O 1.03574(11) 1.5037(2) 0.59419(13)
O5_2 O 0.96426(11) 1.4963(2) 0.40581(13)
H6D H 1.0831 0.4913 0.6367
H6D_2 H 1.0831 1.4913 0.6367
H6_2 H 0.9169 1.5087 0.3633
H7D H 1.0117 0.5027 0.6174
H7D_2 H 1.0117 1.5027 0.6174
H7_2 H 0.9883 1.4973 0.3826
O6 O 0.82084(10) 0.5716(3) 0.26938(13)
H8 H 0.7798 0.5138 0.2307
H9 H 0.8101 0.6643 0.2896
O7 O 0.5000 0.8391(6) 0.2500
H10 H 0.5292 0.9058 0.2964
H10A H 0.4708 0.9058 0.2036
loop_
_geom_bond_atom_site_label_1
_geom_bond_atom_site_label_2
_geom_bond_site_symmetry_1
_geom_bond_site_symmetry_2
Zn1 N2 1_555 1_555
C1 H1 1_555 1_555
C2 C1 1_555 1_555
C3 C2 1_555 1_555
H2 C3 1_555 1_555
C4 C3 1_555 1_555
C5 C4 1_555 1_555
H3 C5 1_555 1_555
C6 C1 1_555 1_555
C7 H4 1_555 1_555
C8 H5 1_555 1_555
C9 C2 1_555 1_555
C10 C6 1_555 1_555
N1 C4 1_555 1_555
N2 C7 1_555 1_555
N3 C8 1_555 1_555
O1 C9 1_555 1_555
O2 C9 1_555 1_555
O3 C10 1_555 1_555
O4 C10 1_555 1_555
O5 Zn1 1_555 1_555
H6 O5 1_555 1_555
H7 O5 1_555 1_555
O6 H8 1_555 1_555
H9 O6 1_555 1_555
O7 H10 1_555 1_555
Zn1D N3 1_555 1_555
Zn1A O1 1_555 1_555
Zn1C O3 1_555 1_555
Zn1D_2 O5 1_555 1_555
Zn1E O1D 1_555 1_555
Zn1G O3D 1_555 1_555
C1D H1D 1_555 1_555
C2D C1D 1_555 1_555
C3D C2D 1_555 1_555
H2D C3D 1_555 1_555
C4D C3D 1_555 1_555
C5D C4D 1_555 1_555
H3D C5D 1_555 1_555
C6D C1D 1_555 1_555
C7D H4D 1_555 1_555
C8D H5D 1_555 1_555
C9D C2D 1_555 1_555
C10D C6D 1_555 1_555
N1D C4D 1_555 1_555
N2D Zn1D 1_555 1_555
N3D Zn1 1_555 1_555
O1D C9D 1_555 1_555
O1A Zn1 1_555 1_555
O1E Zn1D 1_555 1_555
O2D C9D 1_555 1_555
O3D C10D 1_555 1_555
O3C Zn1 1_555 1_555
O3G Zn1D 1_555 1_555
O4D C10D 1_555 1_555
O5D Zn1 1_555 1_555
O5D_2 Zn1D 1_555 1_555
O5_2 Zn1D 1_555 1_555
H6D O5D 1_555 1_555
H6D_2 O5D_2 1_555 1_555
H6_2 O5_2 1_555 1_555
H7D O5D 1_555 1_555
H7D_2 O5D_2 1_555 1_555
H7_2 O5_2 1_555 1_555
H10A O7 1_555 1_555
C5 C6 1_555 1_555
C7 N1 1_555 1_555
C8 N1 1_555 1_555
N2 N3 1_555 1_555
Zn1D_2 O5D 1_555 1_555
C5D C6D 1_555 1_555
C7D N1D 1_555 1_555
C7D N2D 1_555 1_555
C8D N1D 1_555 1_555
C8D N3D 1_555 1_555
N2D N3D 1_555 1_555

#END
