
#######################################################################
#
#                 Cambridge Crystallographic Data Centre
#                                CCDC 
#
#######################################################################
#
# If this CIF has been generated from an entry in the Cambridge 
# Structural Database, then it will include bibliographic, chemical, 
# crystal, experimental, refinement or atomic coordinate data resulting 
# from the CCDC's data processing and validation procedures.
#
#######################################################################

data_LASMOJ
_symmetry_cell_setting           monoclinic
_symmetry_space_group_name_H-M   'P 21/c'
_symmetry_Int_Tables_number      14
_space_group_name_Hall           '-P 2ybc'
loop_
_symmetry_equiv_pos_site_id
_symmetry_equiv_pos_as_xyz
1 x,y,z
2 -x,1/2+y,1/2-z
3 -x,-y,-z
4 x,1/2-y,1/2+z
_cell_length_a                   10.3253(18)
_cell_length_b                   10.6116(17)
_cell_length_c                   11.0121(19)
_cell_angle_alpha                90
_cell_angle_beta                 115.701(3)
_cell_angle_gamma                90
_cell_volume                     1087.21
loop_
_atom_site_label
_atom_site_type_symbol
_atom_site_fract_x
_atom_site_fract_y
_atom_site_fract_z
Zn1 Zn 0.80018(4) 0.61056(3) 1.17869(3)
C1 C 0.6257(4) 0.4004(3) 0.4262(3)
H1 H 0.5913 0.3979 0.3330
C2 C 0.5544(3) 0.3322(3) 0.4861(3)
C3 C 0.6040(4) 0.3368(3) 0.6261(3)
H2 H 0.5573 0.2927 0.6685
C4 C 0.7235(4) 0.4081(3) 0.6991(3)
C5 C 0.7956(4) 0.4754(3) 0.6402(3)
C6 C 0.7458(4) 0.4716(3) 0.5003(3)
C7 C 0.8475(4) 0.3280(3) 0.9383(3)
H3 H 0.8712 0.2482 0.9192
H4 H 0.8763 0.5232 0.6928
C8 C 0.7640(4) 0.5162(3) 0.9137(3)
H5 H 0.7190 0.5917 0.8756
C9 C 0.4253(4) 0.2557(3) 0.4017(4)
C10 C 0.8212(4) 0.5431(3) 0.4327(3)
N1 N 0.7760(3) 0.4161(2) 0.8449(2)
N2 N 0.8788(3) 0.3696(2) 1.0583(3)
N3 N 0.8256(3) 0.4909(2) 1.0435(3)
O1 O 0.3746(3) 0.2601(2) 0.2778(2)
O2 O 0.3709(3) 0.1889(2) 0.4633(2)
O3 O 0.7943(3) 0.5026(2) 0.3143(2)
O4 O 0.9003(3) 0.6325(2) 0.4880(2)
O5 O 0.9539(3) 0.7333(2) 1.2074(2)
H6 H 1.0046 0.7762 1.2771
H7 H 0.9378 0.7779 1.1382
Zn1A Zn 0.19982(4) 0.11056(3) 0.32131(3)
Zn1_2 Zn 0.80018(4) 0.61056(3) 0.17869(3)
O2A O 0.6291(3) 0.6889(2) 1.0367(2)
O3_2 O 0.7943(3) 0.5026(2) 1.3143(2)
loop_
_geom_bond_atom_site_label_1
_geom_bond_atom_site_label_2
_geom_bond_site_symmetry_1
_geom_bond_site_symmetry_2
Zn1 N3 1_555 1_555
C1 H1 1_555 1_555
C2 C1 1_555 1_555
C3 C2 1_555 1_555
H2 C3 1_555 1_555
C4 C3 1_555 1_555
C5 C4 1_555 1_555
C6 C1 1_555 1_555
C7 H3 1_555 1_555
H4 C5 1_555 1_555
C8 H5 1_555 1_555
C9 C2 1_555 1_555
C10 C6 1_555 1_555
N1 C4 1_555 1_555
N2 C7 1_555 1_555
N3 C8 1_555 1_555
O1 C9 1_555 1_555
O2 C9 1_555 1_555
O3 C10 1_555 1_555
O4 C10 1_555 1_555
O5 Zn1 1_555 1_555
H6 O5 1_555 1_555
H7 O5 1_555 1_555
Zn1A O2 1_555 1_555
Zn1_2 O3 1_555 1_555
O2A Zn1 1_555 1_555
O3_2 Zn1 1_555 1_555
C5 C6 1_555 1_555
C7 N1 1_555 1_555
C8 N1 1_555 1_555
N2 N3 1_555 1_555

#END
