
#######################################################################
#
#                 Cambridge Crystallographic Data Centre
#                                CCDC 
#
#######################################################################
#
# If this CIF has been generated from an entry in the Cambridge 
# Structural Database, then it will include bibliographic, chemical, 
# crystal, experimental, refinement or atomic coordinate data resulting 
# from the CCDC's data processing and validation procedures.
#
#######################################################################

data_LASNUQ
_symmetry_cell_setting           orthorhombic
_symmetry_space_group_name_H-M   'P n a 21'
_symmetry_Int_Tables_number      33
_space_group_name_Hall           'P 2c -2n'
loop_
_symmetry_equiv_pos_site_id
_symmetry_equiv_pos_as_xyz
1 x,y,z
2 -x,-y,1/2+z
3 1/2-x,1/2+y,1/2+z
4 1/2+x,1/2-y,z
_cell_length_a                   18.2592(6)
_cell_length_b                   12.6726(4)
_cell_length_c                   12.0365(5)
_cell_angle_alpha                90
_cell_angle_beta                 90
_cell_angle_gamma                90
_cell_volume                     2785.14
loop_
_atom_site_label
_atom_site_type_symbol
_atom_site_fract_x
_atom_site_fract_y
_atom_site_fract_z
N1 N 0.19483(18) 0.7758(3) -0.0533(3)
C1 C 0.1392(2) 0.7497(3) 0.0127(4)
H1 H 0.1018 0.7032 -0.0062
C2 C 0.2339(2) 0.8447(3) 0.0098(4)
H2 H 0.2767 0.8767 -0.0150
N2 N 0.20607(19) 0.8623(3) 0.1087(3)
N3 N 0.14460(18) 0.7991(3) 0.1086(3)
C3 C 0.0911(2) 0.8040(4) 0.1982(4)
H3 H 0.0551 0.7487 0.1871
H4 H 0.0657 0.8711 0.1941
C4 C 0.1233(2) 0.7924(4) 0.3116(4)
H5 H 0.0861 0.8095 0.3663
H6 H 0.1628 0.8429 0.3199
N4 N 0.19130(18) 1.5862(3) -0.1792(3)
C5 C 0.2210(3) 1.5266(3) -0.0959(5)
H7 H 0.2559 1.5522 -0.0466
C6 C 0.1448(2) 1.5206(3) -0.2279(5)
H8 H 0.1154 1.5372 -0.2885
N5 N 0.1955(2) 1.4297(3) -0.0921(4)
N6 N 0.14653(18) 1.4282(2) -0.1774(3)
C7 C 0.1037(2) 1.3332(3) -0.2002(5)
H9 H 0.0728 1.3451 -0.2645
H10 H 0.0722 1.3181 -0.1372
C8 C 0.1534(2) 1.2393(3) -0.2217(6)
H11 H 0.1792 1.2211 -0.1540
H12 H 0.1894 1.2579 -0.2777
Cu1 Cu 0.20698(2) 0.73858(3) -0.21572(6)
C9 C 0.2372(2) 0.9508(3) -0.3301(4)
H13 H 0.2773 0.9245 -0.3687
C10 C 0.1467(2) 0.9590(3) -0.2210(5)
H14 H 0.1105 0.9433 -0.1693
C11 C 0.1090(2) 1.1449(3) -0.2613(4)
H15 H 0.0693 1.1316 -0.2095
H16 H 0.0876 1.1606 -0.3332
C12 C 0.1697(3) 0.7305(3) 0.5401(4)
H17 H 0.1343 0.7831 0.5454
C13 C 0.2539(2) 0.6230(3) 0.5744(4)
H18 H 0.2897 0.5863 0.6136
C14 C 0.1529(2) 0.6818(3) 0.3359(4)
H19 H 0.1132 0.6311 0.3311
H20 H 0.1893 0.6633 0.2806
N7 N 0.19769(18) 0.8916(3) -0.2558(3)
N8 N 0.21361(19) 1.0472(3) -0.3417(3)
N9 N 0.15502(18) 1.0505(2) -0.2701(3)
N10 N 0.21084(18) 0.6980(3) 0.6220(3)
N11 N 0.2407(2) 0.6069(3) 0.4684(3)
N12 N 0.18592(18) 0.6770(3) 0.4472(3)
O1 O 0.0535(2) 0.7481(3) -0.2239(7)
H21 H 0.0301 0.7921 -0.2632
H22 H 0.0326 0.6882 -0.2175
O2 O 0.32802(18) 0.7401(2) -0.1984(4)
H23 H 0.3446 0.7129 -0.1392
H24 H 0.3601 0.7535 -0.2474
N4_2 N 0.19130(18) 0.5862(3) -0.1792(3)
Cu1_2 Cu 0.20698(2) 1.73858(3) -0.21572(6)
Cu1_3 Cu 0.20698(2) 0.73858(3) 0.78428(6)
N10_2 N 0.21084(18) 0.6980(3) -0.3780(3)
Cl1 Cl 0.02461(7) 0.46812(12) 0.49941(14)
O3 O -0.0190(4) 0.4429(5) 0.5945(7)
O4 O 0.0224(5) 0.5872(4) 0.4941(8)
O5 O -0.0039(5) 0.4291(8) 0.4029(7)
O6 O 0.0992(3) 0.4462(6) 0.5189(6)
Cl2 Cl 0.01369(7) 0.07004(10) 0.05035(13)
O7 O 0.0251(3) 0.0725(4) 0.1687(4)
O8 O -0.0632(2) 0.0523(4) 0.0376(5)
O9 O 0.0536(3) -0.0123(4) 0.0055(5)
O10 O 0.0333(3) 0.1681(3) 0.0012(5)
O11 O 0.4111(3) 0.8365(4) 0.6431(5)
H25 H 0.4331 0.8501 0.5822
H26 H 0.4381 0.8442 0.6999
O12 O 0.4214(4) 0.6749(6) 0.9622(7)
H27 H 0.4592 0.7119 0.9498
H28 H 0.4123 0.6298 0.9121
O13? O -0.0517(5) 0.4729(12) 0.5369(12)
O14? O 0.0624(7) 0.5537(9) 0.5361(10)
O15? O 0.0199(7) 0.4650(10) 0.3782(7)
O16? O 0.0530(9) 0.3694(9) 0.5354(12)
loop_
_geom_bond_atom_site_label_1
_geom_bond_atom_site_label_2
_geom_bond_site_symmetry_1
_geom_bond_site_symmetry_2
N1 C1 1_555 1_555
C1 H1 1_555 1_555
C2 N1 1_555 1_555
H2 C2 1_555 1_555
N2 C2 1_555 1_555
N3 C1 1_555 1_555
C3 N3 1_555 1_555
H3 C3 1_555 1_555
H4 C3 1_555 1_555
C4 C3 1_555 1_555
H5 C4 1_555 1_555
H6 C4 1_555 1_555
N4 C5 1_555 1_555
C5 H7 1_555 1_555
C6 N4 1_555 1_555
H8 C6 1_555 1_555
N5 C5 1_555 1_555
N6 C6 1_555 1_555
C7 N6 1_555 1_555
H9 C7 1_555 1_555
H10 C7 1_555 1_555
C8 C7 1_555 1_555
H11 C8 1_555 1_555
H12 C8 1_555 1_555
Cu1 N1 1_555 1_555
C9 H13 1_555 1_555
C10 H14 1_555 1_555
C11 C8 1_555 1_555
H15 C11 1_555 1_555
H16 C11 1_555 1_555
C12 H17 1_555 1_555
C13 H18 1_555 1_555
C14 C4 1_555 1_555
H19 C14 1_555 1_555
H20 C14 1_555 1_555
Cl1 O3 1_555 1_555
Cl2 O7 1_555 1_555
N7 Cu1 1_555 1_555
N8 C9 1_555 1_555
N9 C10 1_555 1_555
N10 C12 1_555 1_555
N11 C13 1_555 1_555
N12 C12 1_555 1_555
O1 Cu1 1_555 1_555
H21 O1 1_555 1_555
H22 O1 1_555 1_555
O2 Cu1 1_555 1_555
H23 O2 1_555 1_555
H24 O2 1_555 1_555
O4 Cl1 1_555 1_555
O5 Cl1 1_555 1_555
O6 Cl1 1_555 1_555
O8 Cl2 1_555 1_555
O9 Cl2 1_555 1_555
O10 Cl2 1_555 1_555
O11 H25 1_555 1_555
H26 O11 1_555 1_555
O12 H27 1_555 1_555
H28 O12 1_555 1_555
N4_2 Cu1 1_555 1_555
Cu1_2 N4 1_555 1_555
Cu1_3 N10 1_555 1_555
N10_2 Cu1 1_555 1_555
N2 N3 1_555 1_555
N5 N6 1_555 1_555
C9 N7 1_555 1_555
C10 N7 1_555 1_555
C11 N9 1_555 1_555
C13 N10 1_555 1_555
C14 N12 1_555 1_555
N8 N9 1_555 1_555
N11 N12 1_555 1_555

#END
