
#######################################################################
#
#                 Cambridge Crystallographic Data Centre
#                                CCDC 
#
#######################################################################
#
# If this CIF has been generated from an entry in the Cambridge 
# Structural Database, then it will include bibliographic, chemical, 
# crystal, experimental, refinement or atomic coordinate data resulting 
# from the CCDC's data processing and validation procedures.
#
#######################################################################

data_LASNAW
_symmetry_cell_setting           triclinic
_symmetry_space_group_name_H-M   'P -1'
_symmetry_Int_Tables_number      2
_space_group_name_Hall           '-P 1'
loop_
_symmetry_equiv_pos_site_id
_symmetry_equiv_pos_as_xyz
1 x,y,z
2 -x,-y,-z
_cell_length_a                   10.9277(12)
_cell_length_b                   21.320(2)
_cell_length_c                   21.320(2)
_cell_angle_alpha                82.64
_cell_angle_beta                 75.341(2)
_cell_angle_gamma                75.341(2)
_cell_volume                     4638.1
loop_
_atom_site_label
_atom_site_type_symbol
_atom_site_fract_x
_atom_site_fract_y
_atom_site_fract_z
Zn1 Zn -0.7097(2) 0.77684(9) 1.10768(9)
Zn2 Zn -1.26906(19) 0.39499(9) 1.23043(9)
Zn3 Zn -1.27911(18) 0.88539(9) 0.72066(9)
Zn4 Zn -0.2429(2) 0.60923(10) 1.28679(10)
Zn5 Zn -0.7714(2) 0.89910(10) 1.21488(10)
Zn6 Zn -0.73182(18) 0.27199(9) 1.61175(9)
Zn7 Zn -0.20844(19) 0.77840(9) 1.59957(9)
Zn8 Zn -1.73847(19) 0.70524(9) 0.88696(9)
Zn9 Zn -0.94760(19) 0.76181(10) 0.79515(9)
Zn10 Zn -1.04236(19) 0.70178(10) 1.23278(10)
C1 C -0.6396(16) 1.0375(8) 0.6632(8)
H1 H -0.5679 1.0526 0.6650
C2 C -0.7503(16) 1.0814(8) 0.6477(8)
C3 C -0.8572(16) 1.0567(8) 0.6460(8)
H2 H -0.9321 1.0844 0.6368
C4 C -0.8495(16) 0.9916(8) 0.6580(8)
C5 C -0.7463(16) 0.9500(8) 0.6742(8)
H3 H -0.7474 0.9064 0.6843
C6 C -0.6379(16) 0.9715(8) 0.6759(8)
C7 C -1.027(2) 0.9836(10) 0.6061(10)
H4 H -1.0000 1.0075 0.5676
C8 C -1.0370(15) 0.9398(8) 0.7005(8)
H5 H -1.0217 0.9252 0.7415
C9 C -0.7587(18) 1.1531(9) 0.6361(9)
C10 C -0.5221(16) 0.9253(8) 0.6957(8)
C11 C -0.8564(17) 0.8441(8) 1.4482(8)
H6 H -0.9298 0.8449 1.4332
C12 C -0.8567(16) 0.8288(8) 1.5131(8)
C13 C -0.7483(16) 0.8293(8) 1.5362(8)
H7 H -0.7483 0.8198 1.5800
C14 C -0.6387(15) 0.8446(8) 1.4914(8)
C15 C -0.6402(16) 0.8600(8) 1.4271(8)
H8 H -0.5685 0.8715 1.3985
C16 C -0.7447(16) 0.8585(8) 1.4045(8)
C17 C -0.4531(17) 0.8033(8) 1.5465(8)
H9 H -0.4676 0.7622 1.5605
C18 C -0.474(2) 0.9009(11) 1.5060(12)
H10 H -0.5053 0.9409 1.4858
C19 C -0.9709(16) 0.8089(8) 1.5593(8)
C20 C -0.7377(18) 0.8716(8) 1.3322(8)
C21 C -1.3481(18) 0.8313(9) 0.9556(8)
H11 H -1.4181 0.8278 0.9400
C22 C -1.3549(18) 0.8224(9) 1.0209(8)
C23 C -1.2466(17) 0.8247(8) 1.0438(8)
H12 H -1.2479 0.8158 1.0878
C24 C -1.1404(17) 0.8397(8) 1.0024(8)
C25 C -1.1349(17) 0.8494(8) 0.9354(8)
H13 H -1.0610 0.8585 0.9066
C26 C -1.2395(16) 0.8452(8) 0.9123(8)
C27 C -0.9541(17) 0.7973(8) 1.0547(8)
H14 H -0.9700 0.7564 1.0688
C28 C -0.9678(19) 0.8935(9) 1.0102(11)
H15 H -0.9956 0.9320 0.9866
C29 C -1.4708(19) 0.8040(9) 1.0680(8)
C30 C -1.2232(15) 0.8541(8) 0.8399(7)
C31 C -0.1315(16) 1.0504(8) 1.1613(8)
H16 H -0.0571 1.0632 1.1628
C32 C -0.2402(17) 1.0970(8) 1.1479(8)
C33 C -0.3490(17) 1.0776(8) 1.1447(8)
H17 H -0.4225 1.1082 1.1376
C34 C -0.3482(16) 1.0128(8) 1.1520(8)
C35 C -0.2434(16) 0.9653(8) 1.1641(8)
H18 H -0.2435 0.9214 1.1669
C36 C -0.1354(16) 0.9864(8) 1.1719(8)
C37 C -0.5156(18) 1.0008(9) 1.0951(9)
H19 H -0.4800 1.0185 1.0544
C38 C -0.5345(16) 0.9604(8) 1.1944(8)
H20 H -0.5208 0.9466 1.2358
C39 C -0.2331(18) 1.1680(9) 1.1447(8)
C40 C -0.0171(16) 0.9370(8) 1.1888(8)
C41 C -0.6260(16) 0.5425(8) 1.1617(7)
H21 H -0.5533 0.5585 1.1600
C42 C -0.7382(16) 0.5847(8) 1.1506(8)
C43 C -0.8403(17) 0.5602(8) 1.1468(8)
H22 H -0.9152 0.5883 1.1380
C44 C -0.8333(16) 0.4943(8) 1.1561(8)
C45 C -0.7201(16) 0.4505(8) 1.1712(8)
H23 H -0.7140 0.4060 1.1780
C46 C -0.6204(16) 0.4773(8) 1.1753(8)
C47 C -1.0038(18) 0.4818(10) 1.1024(9)
H24 H -0.9723 0.5012 1.0619
C48 C -1.0198(18) 0.4415(9) 1.1999(9)
H25 H -1.0034 0.4276 1.2407
C49 C -0.7577(16) 0.6566(9) 1.1399(8)
C50 C -0.5010(18) 0.4295(9) 1.1927(9)
C51 C -1.1099(16) 0.6591(8) 1.0417(7)
H26 H -1.0343 0.6593 1.0541
C52 C -1.1151(16) 0.6725(8) 0.9766(8)
C53 C -1.2274(15) 0.6672(8) 0.9594(8)
H27 H -1.2323 0.6746 0.9160
C54 C -1.3282(15) 0.6518(8) 1.0042(8)
C55 C -1.3271(17) 0.6420(8) 1.0679(8)
H28 H -1.3994 0.6329 1.0982
C56 C -1.2166(16) 0.6455(8) 1.0885(8)
C57 C -1.5186(17) 0.6896(9) 0.9517(9)
H29 H -1.5064 0.7309 0.9365
C58 C -1.4979(18) 0.5924(9) 0.9980(8)
H30 H -1.4656 0.5535 1.0199
C59 C -1.0070(16) 0.6916(8) 0.9270(8)
C60 C -1.2082(18) 0.6384(8) 1.1577(8)
C61 C -1.3767(14) 0.3393(7) 1.4637(7)
H31 H -1.4474 0.3369 1.4481
C62 C -1.3789(15) 0.3251(7) 1.5302(8)
C63 C -1.2726(14) 0.3270(7) 1.5549(8)
H32 H -1.2722 0.3169 1.5986
C64 C -1.1661(15) 0.3452(8) 1.5099(8)
C65 C -1.1642(16) 0.3577(8) 1.4451(8)
H33 H -1.0903 0.3670 1.4165
C66 C -1.2705(16) 0.3567(7) 1.4216(8)
C67 C -0.9777(17) 0.2981(9) 1.5615(8)
H34 H -0.9920 0.2567 1.5745
C68 C -1.0026(16) 0.3987(8) 1.5214(7)
H35 H -1.0355 0.4387 1.5016
C69 C -1.4943(15) 0.3053(8) 1.5770(8)
C70 C -1.2655(18) 0.3717(8) 1.3518(9)
C71 C -0.8750(17) 0.4549(8) 1.3433(8)
H36 H -0.9480 0.4398 1.3436
C72 C -0.7685(17) 0.4127(8) 1.3585(8)
C73 C -0.6600(17) 0.4344(8) 1.3603(8)
H37 H -0.5866 0.4055 1.3699
C74 C -0.6636(16) 0.5013(8) 1.3472(8)
C75 C -0.7663(16) 0.5429(8) 1.3265(8)
H38 H -0.7625 0.5856 1.3122
C76 C -0.8756(16) 0.5209(8) 1.3272(8)
C77 C -0.4964(19) 0.5071(10) 1.4025(9)
H39 H -0.5231 0.4809 1.4392
C78 C -0.4785(17) 0.5561(9) 1.3099(8)
H40 H -0.4930 0.5724 1.2692
C79 C -0.7579(18) 0.3397(8) 1.3749(8)
C80 C -0.9833(16) 0.5684(9) 1.3038(8)
N1 N -0.9616(15) 0.9692(6) 0.6554(7)
N2 N -1.1266(15) 0.9607(8) 0.6193(7)
N3 N -1.1360(13) 0.9334(7) 0.6808(6)
N4 N -0.5309(13) 0.8486(7) 1.5155(7)
N5 N -0.3554(15) 0.8228(7) 1.5550(7)
N6 N -0.3697(16) 0.8866(8) 1.5288(9)
N7 N -1.0313(13) 0.8441(7) 1.0253(7)
N8 N -0.8552(14) 0.8159(7) 1.0612(7)
N9 N -0.8643(16) 0.8801(7) 1.0328(7)
N10 N -0.4621(14) 0.9923(7) 1.1501(7)
N11 N -0.6213(15) 0.9803(8) 1.1096(7)
N12 N -0.6312(13) 0.9505(6) 1.1717(7)
N13 N -0.9435(14) 0.4716(7) 1.1512(7)
N14 N -1.1107(17) 0.4620(8) 1.1175(7)
N15 N -1.1189(14) 0.4352(7) 1.1806(7)
N16 N -1.4439(13) 0.6449(7) 0.9857(7)
N17 N -1.6107(14) 0.6648(7) 0.9438(7)
N18 N -1.6009(14) 0.6043(7) 0.9748(7)
N19 N -1.0544(13) 0.3469(7) 1.5324(6)
N20 N -0.8777(13) 0.3199(7) 1.5683(6)
N21 N -0.8925(15) 0.3819(7) 1.5444(8)
N22 N -0.5545(13) 0.5231(7) 1.3544(6)
N23 N -0.3963(15) 0.5326(7) 1.3925(7)
N24 N -0.3826(14) 0.5620(7) 1.3321(7)
O1 O -0.6624(12) 1.1741(6) 0.6287(7)
O2 O -0.8678(13) 1.1886(7) 0.6294(8)
O3 O -0.4268(11) 0.9486(5) 0.6977(6)
O4 O -0.5274(12) 0.8670(5) 0.7110(7)
O5 O -1.0651(11) 0.8068(6) 1.5362(6)
O6 O -0.9693(13) 0.7947(8) 1.6167(6)
O7 O -0.8404(12) 0.8916(7) 1.3132(6)
O8 O -0.6308(12) 0.8663(6) 1.2949(6)
O9 O -1.5622(12) 0.7998(7) 1.0427(6)
O10 O -1.4697(14) 0.7887(8) 1.1265(6)
O11 O -1.3239(11) 0.8765(6) 0.8176(5)
O12 O -1.1136(11) 0.8383(6) 0.8049(5)
O13 O -0.1319(12) 1.1776(7) 1.1559(7)
O14 O -0.3233(15) 1.2117(6) 1.1264(7)
O15 O 0.0764(11) 0.9590(6) 1.1889(6)
O16 O -0.0235(13) 0.8801(6) 1.2004(8)
O17 O -0.6568(12) 0.6795(5) 1.1175(6)
O18 O -0.8697(12) 0.6921(5) 1.1561(6)
O19 O -0.4156(12) 0.4554(6) 1.2014(6)
O20 O -0.4956(16) 0.3723(7) 1.1973(10)
O21 O -0.9052(11) 0.6894(6) 0.9465(5)
O22 O -1.0310(11) 0.7119(6) 0.8732(5)
O23 O -1.1104(13) 0.6540(7) 1.1701(7)
O24 O -1.2954(13) 0.6176(7) 1.2017(6)
O25 O -1.5860(11) 0.3012(6) 1.5521(5)
O26 O -1.4921(13) 0.2942(8) 1.6342(6)
O27 O -1.3605(12) 0.3776(7) 1.3292(6)
O28 O -1.1564(15) 0.3760(8) 1.3137(6)
O29 O -0.8582(13) 0.3195(6) 1.3919(6)
O30 O -0.6497(15) 0.3042(6) 1.3676(7)
O31 O -1.0868(12) 0.5482(6) 1.3036(6)
O32 O -0.9658(10) 0.6227(5) 1.2843(5)
O33 O -1.2432(11) 0.8007(5) 0.6889(5)
O34 O -0.7495(11) 0.8109(5) 1.1920(5)
O35 O -1.0416(12) 0.7188(6) 0.7403(7)
H41 H -1.1234 0.7311 0.7541
H42 H -1.0206 0.7309 0.7003
O36 O -0.8564(11) 0.8024(6) 0.7100(5)
H43 H -0.8707 0.7868 0.6785
H44 H -0.7750 0.7938 0.7075
O37 O -1.2349(10) 0.3058(5) 1.2003(5)
O38 O -1.2268(11) 0.6958(5) 1.2998(5)
O39 O -1.1380(12) 0.7873(6) 1.1945(6)
H45 H -1.0841 0.8025 1.1641
H46 H -1.1699 0.8141 1.2240
O40 O -0.9474(13) 0.7569(7) 1.2735(7)
Zn1_2 Zn -1.7097(2) 0.77684(9) 1.10768(9)
Zn2_2 Zn -0.26906(19) 0.39499(9) 1.23043(9)
Zn3_2 Zn -0.27911(18) 0.88539(9) 0.72066(9)
Zn4_2 Zn -1.2429(2) 0.60923(10) 1.28679(10)
Zn5_2 Zn 0.2286(2) 0.89910(10) 1.21488(10)
Zn6_2 Zn -0.73182(18) 1.27199(9) 0.61175(9)
Zn6_3 Zn -1.73182(18) 0.27199(9) 1.61175(9)
Zn6A Zn -1.26818(18) 0.72801(9) 1.38825(9)
Zn7_2 Zn -1.20844(19) 0.77840(9) 1.59957(9)
Zn7A Zn -0.79156(19) 0.22160(9) 1.40043(9)
Zn7_3 Zn -1.20844(19) 0.77840(9) 0.59957(9)
Zn8A Zn -0.26153(19) 1.29476(9) 1.11304(9)
Zn8_2 Zn -0.73847(19) 0.70524(9) 0.88696(9)
Zn8A_2 Zn -1.26153(19) 0.29476(9) 1.11304(9)
Zn9A Zn -0.05240(19) 1.23819(10) 1.20485(9)
Zn9A_2 Zn -1.05240(19) 0.23819(10) 1.20485(9)
O1_2 O -0.6624(12) 0.1741(6) 1.6287(7)
O3_2 O -1.4268(11) 0.9486(5) 0.6977(6)
O5_2 O -0.0651(11) 0.8068(6) 1.5362(6)
O9_2 O -0.5622(12) 0.7998(7) 1.0427(6)
O13A O -0.8681(12) 0.8224(7) 0.8441(7)
O14A O -1.6767(15) 0.7883(6) 0.8736(7)
O15_2 O -0.9236(11) 0.9590(6) 1.1889(6)
O19_2 O -1.4156(12) 0.4554(6) 1.2014(6)
O21_2 O -1.9052(11) 0.6894(6) 0.9465(5)
O24_2 O -0.2954(13) 0.6176(7) 1.2017(6)
O25_2 O -0.5860(11) 0.3012(6) 1.5521(5)
O29A O -0.1418(13) 0.6805(6) 1.6081(6)
O31_2 O -0.0868(12) 0.5482(6) 1.3036(6)
O33_2 O -0.2432(11) 0.8007(5) 1.6889(5)
O37A O -1.7651(10) 0.6942(5) 0.7997(5)
O37A_2 O -0.7651(10) 0.6942(5) 0.7997(5)
O38_2 O -0.2268(11) 0.6958(5) 1.2998(5)
O38A O -0.7732(11) 0.3042(5) 1.7002(5)
O41 O 0.3982(12) 0.7578(6) 0.7025(7)
O42 O 0.6074(13) 0.7968(6) 0.2348(7)
O43 O 0.2386(16) 0.4884(8) 0.5107(8)
O44 O 0.2427(18) 0.0070(7) 0.4939(8)
O45 O 0.7707(17) 0.4842(9) 0.0108(8)
O46 O 0.234(2) 0.9950(9) 0.0104(9)
O47 O 0.616(2) 0.7322(10) 0.8003(9)
O48 O 0.373(3) 0.7025(12) 0.2647(12)
loop_
_geom_bond_atom_site_label_1
_geom_bond_atom_site_label_2
_geom_bond_site_symmetry_1
_geom_bond_site_symmetry_2
Zn1 N8 1_555 1_555
Zn2 N15 1_555 1_555
Zn3 N3 1_555 1_555
Zn4 N24 1_555 1_555
Zn5 N12 1_555 1_555
Zn6 N20 1_555 1_555
Zn7 N5 1_555 1_555
Zn8 N17 1_555 1_555
Zn9 O12 1_555 1_555
Zn10 O18 1_555 1_555
C1 H1 1_555 1_555
C2 C1 1_555 1_555
C3 C2 1_555 1_555
H2 C3 1_555 1_555
C4 C3 1_555 1_555
C5 C4 1_555 1_555
H3 C5 1_555 1_555
C6 C1 1_555 1_555
C7 H4 1_555 1_555
C8 H5 1_555 1_555
C9 C2 1_555 1_555
C10 C6 1_555 1_555
C11 H6 1_555 1_555
C12 C11 1_555 1_555
C13 C12 1_555 1_555
H7 C13 1_555 1_555
C14 C13 1_555 1_555
C15 C14 1_555 1_555
H8 C15 1_555 1_555
C16 C11 1_555 1_555
C17 H9 1_555 1_555
C18 H10 1_555 1_555
C19 C12 1_555 1_555
C20 C16 1_555 1_555
C21 H11 1_555 1_555
C22 C21 1_555 1_555
C23 C22 1_555 1_555
H12 C23 1_555 1_555
C24 C23 1_555 1_555
C25 C24 1_555 1_555
H13 C25 1_555 1_555
C26 C21 1_555 1_555
C27 H14 1_555 1_555
C28 H15 1_555 1_555
C29 C22 1_555 1_555
C30 C26 1_555 1_555
C31 H16 1_555 1_555
C32 C31 1_555 1_555
C33 C32 1_555 1_555
H17 C33 1_555 1_555
C34 C33 1_555 1_555
C35 C34 1_555 1_555
H18 C35 1_555 1_555
C36 C31 1_555 1_555
C37 H19 1_555 1_555
C38 H20 1_555 1_555
C39 C32 1_555 1_555
C40 C36 1_555 1_555
C41 H21 1_555 1_555
C42 C41 1_555 1_555
C43 C42 1_555 1_555
H22 C43 1_555 1_555
C44 C43 1_555 1_555
C45 C44 1_555 1_555
H23 C45 1_555 1_555
C46 C41 1_555 1_555
C47 H24 1_555 1_555
C48 H25 1_555 1_555
C49 C42 1_555 1_555
C50 C46 1_555 1_555
C51 H26 1_555 1_555
C52 C51 1_555 1_555
C53 C52 1_555 1_555
H27 C53 1_555 1_555
C54 C53 1_555 1_555
C55 C54 1_555 1_555
H28 C55 1_555 1_555
C56 C51 1_555 1_555
C57 H29 1_555 1_555
C58 H30 1_555 1_555
C59 C52 1_555 1_555
C60 C56 1_555 1_555
C61 H31 1_555 1_555
C62 C61 1_555 1_555
C63 C62 1_555 1_555
H32 C63 1_555 1_555
C64 C63 1_555 1_555
C65 C64 1_555 1_555
H33 C65 1_555 1_555
C66 C61 1_555 1_555
C67 H34 1_555 1_555
C68 H35 1_555 1_555
C69 C62 1_555 1_555
C70 C66 1_555 1_555
C71 H36 1_555 1_555
C72 C71 1_555 1_555
C73 C72 1_555 1_555
H37 C73 1_555 1_555
C74 C73 1_555 1_555
C75 C74 1_555 1_555
H38 C75 1_555 1_555
C76 C71 1_555 1_555
C77 H39 1_555 1_555
C78 H40 1_555 1_555
C79 C72 1_555 1_555
C80 C76 1_555 1_555
N1 C4 1_555 1_555
N2 C7 1_555 1_555
N3 C8 1_555 1_555
N4 C14 1_555 1_555
N5 C17 1_555 1_555
N6 C18 1_555 1_555
N7 C24 1_555 1_555
N8 C27 1_555 1_555
N9 C28 1_555 1_555
N10 C34 1_555 1_555
N11 C37 1_555 1_555
N12 C38 1_555 1_555
N13 C44 1_555 1_555
N14 C47 1_555 1_555
N15 C48 1_555 1_555
N16 C54 1_555 1_555
N17 C57 1_555 1_555
N18 C58 1_555 1_555
N19 C64 1_555 1_555
N20 C67 1_555 1_555
N21 C68 1_555 1_555
N22 C74 1_555 1_555
N23 C77 1_555 1_555
N24 C78 1_555 1_555
O1 C9 1_555 1_555
O2 C9 1_555 1_555
O3 C10 1_555 1_555
O4 C10 1_555 1_555
O5 C19 1_555 1_555
O6 C19 1_555 1_555
O7 Zn5 1_555 1_555
O8 C20 1_555 1_555
O9 C29 1_555 1_555
O10 C29 1_555 1_555
O11 Zn3 1_555 1_555
O12 C30 1_555 1_555
O13 C39 1_555 1_555
O14 C39 1_555 1_555
O15 C40 1_555 1_555
O16 C40 1_555 1_555
O17 Zn1 1_555 1_555
O18 C49 1_555 1_555
O19 C50 1_555 1_555
O20 C50 1_555 1_555
O21 C59 1_555 1_555
O22 Zn9 1_555 1_555
O23 Zn10 1_555 1_555
O24 C60 1_555 1_555
O25 C69 1_555 1_555
O26 C69 1_555 1_555
O27 Zn2 1_555 1_555
O28 C70 1_555 1_555
O29 C79 1_555 1_555
O30 C79 1_555 1_555
O31 C80 1_555 1_555
O32 Zn10 1_555 1_555
O33 Zn3 1_555 1_555
O34 Zn1 1_555 1_555
O35 Zn9 1_555 1_555
H41 O35 1_555 1_555
H42 O35 1_555 1_555
O36 Zn9 1_555 1_555
H43 O36 1_555 1_555
H44 O36 1_555 1_555
O37 Zn2 1_555 1_555
O38 Zn10 1_555 1_555
O39 Zn10 1_555 1_555
H45 O39 1_555 1_555
H46 O39 1_555 1_555
O40 Zn10 1_555 1_555
Zn1_2 O9 1_555 1_555
Zn2_2 O19 1_555 1_555
Zn3_2 O3 1_555 1_555
Zn4_2 O24 1_555 1_555
Zn5_2 O15 1_555 1_555
Zn6_2 O1 1_555 1_555
Zn6_3 O25 1_555 1_555
Zn6A O38 1_555 1_555
Zn7_2 O5 1_555 1_555
Zn7A O29 1_555 1_555
Zn7_3 O33 1_555 1_555
Zn8A O14 1_555 1_555
Zn8_2 O21 1_555 1_555
Zn8A_2 O37 1_555 1_555
Zn9A O13 1_555 1_555
Zn9A_2 O37 1_555 1_555
O1_2 Zn6 1_555 1_555
O3_2 Zn3 1_555 1_555
O5_2 Zn7 1_555 1_555
O9_2 Zn1 1_555 1_555
O13A Zn9 1_555 1_555
O14A Zn8 1_555 1_555
O15_2 Zn5 1_555 1_555
O19_2 Zn2 1_555 1_555
O21_2 Zn8 1_555 1_555
O24_2 Zn4 1_555 1_555
O25_2 Zn6 1_555 1_555
O29A Zn7 1_555 1_555
O31_2 Zn4 1_555 1_555
O33_2 Zn7 1_555 1_555
O37A Zn8 1_555 1_555
O37A_2 Zn9 1_555 1_555
O38_2 Zn4 1_555 1_555
O38A Zn6 1_555 1_555
Zn5 O34 1_555 1_555
C5 C6 1_555 1_555
C7 N1 1_555 1_555
C8 N1 1_555 1_555
C15 C16 1_555 1_555
C17 N4 1_555 1_555
C18 N4 1_555 1_555
C20 O7 1_555 1_555
C25 C26 1_555 1_555
C27 N7 1_555 1_555
C28 N7 1_555 1_555
C30 O11 1_555 1_555
C35 C36 1_555 1_555
C37 N10 1_555 1_555
C38 N10 1_555 1_555
C45 C46 1_555 1_555
C47 N13 1_555 1_555
C48 N13 1_555 1_555
C49 O17 1_555 1_555
C55 C56 1_555 1_555
C57 N16 1_555 1_555
C58 N16 1_555 1_555
C59 O22 1_555 1_555
C60 O23 1_555 1_555
C65 C66 1_555 1_555
C67 N19 1_555 1_555
C68 N19 1_555 1_555
C70 O27 1_555 1_555
C75 C76 1_555 1_555
C77 N22 1_555 1_555
C78 N22 1_555 1_555
C80 O32 1_555 1_555
N2 N3 1_555 1_555
N5 N6 1_555 1_555
N8 N9 1_555 1_555
N11 N12 1_555 1_555
N14 N15 1_555 1_555
N17 N18 1_555 1_555
N20 N21 1_555 1_555
N23 N24 1_555 1_555
O31 Zn4_2 1_555 1_555
O38 Zn4_2 1_555 1_555
Zn8_2 O37A_2 1_555 1_555

#END
