
#######################################################################
#
#                 Cambridge Crystallographic Data Centre
#                                CCDC 
#
#######################################################################
#
# If this CIF has been generated from an entry in the Cambridge 
# Structural Database, then it will include bibliographic, chemical, 
# crystal, experimental, refinement or atomic coordinate data resulting 
# from the CCDC's data processing and validation procedures.
#
#######################################################################

data_LASPIG
_symmetry_cell_setting           monoclinic
_symmetry_space_group_name_H-M   'C 2/c'
_symmetry_Int_Tables_number      15
_space_group_name_Hall           '-C 2yn'
loop_
_symmetry_equiv_pos_site_id
_symmetry_equiv_pos_as_xyz
1 x,y,z
2 -x,y,1/2-z
3 1/2+x,1/2+y,z
4 1/2-x,1/2+y,1/2-z
5 -x,-y,-z
6 x,-y,1/2+z
7 1/2-x,1/2-y,-z
8 1/2+x,1/2-y,1/2+z
_cell_length_a                   13.974(5)
_cell_length_b                   19.181(7)
_cell_length_c                   12.840(5)
_cell_angle_alpha                90
_cell_angle_beta                 117.009(3)
_cell_angle_gamma                90
_cell_volume                     3066.22
loop_
_atom_site_label
_atom_site_type_symbol
_atom_site_fract_x
_atom_site_fract_y
_atom_site_fract_z
C1 C 0.6135(5) 0.4325(4) 0.1302(6)
H1 H 0.6334 0.3897 0.1119
C2 C 0.6434(5) 0.4928(4) 0.0925(6)
H2 H 0.6816 0.4901 0.0493
C3 C 0.6162(5) 0.5560(4) 0.1196(6)
H3 H 0.6363 0.5967 0.0955
C4 C 0.5580(5) 0.5595(3) 0.1836(6)
C5 C 0.5304(5) 0.4961(3) 0.2175(5)
C6 C 0.5267(6) 0.6231(3) 0.2178(6)
H4 H 0.5438 0.6654 0.1949
C7 C 0.2895(5) 0.1994(3) 0.4489(6)
C8 C 0.2209(5) 0.2526(3) 0.3823(6)
H5 H 0.2009 0.2549 0.3027
C9 C 0.3180(5) 0.1982(3) 0.5681(6)
H6 H 0.3641 0.1637 0.6150
C10 C 0.3270(4) 0.1434(3) 0.3958(5)
C11 C 0.3560(4) 0.1555(3) 0.3057(5)
C12 C 0.3606(5) 0.2260(3) 0.2552(6)
C13 C 0.3850(5) 0.1004(3) 0.2561(6)
H7 H 0.4018 0.1090 0.1950
C14 C 0.3896(5) 0.0329(3) 0.2958(6)
H8 H 0.4120 -0.0034 0.2640
C15 C 0.3605(5) 0.0200(3) 0.3835(5)
C16 C 0.3286(5) 0.0752(3) 0.4308(5)
H9 H 0.3075 0.0657 0.4885
C17 C 0.3559(5) -0.0525(3) 0.4230(6)
N1 N 0.5582(4) 0.4328(2) 0.1909(4)
Co1 Co 0.5000 0.34727(6) 0.2500
O1 O 0.4359(3) 0.2668(2) 0.3168(3)
O2 O 0.2929(4) 0.2358(2) 0.1516(4)
O3 O 0.3646(3) 0.3436(3) 0.0881(4)
O4 O 0.3123(4) -0.0670(2) 0.4829(4)
O5 O 0.4034(4) -0.0983(2) 0.3856(5)
H10 H 0.4000 -0.1371 0.4106
H11 H 0.321(3) 0.3759(17) 0.070(5)
H12 H 0.343(4) 0.3066(15) 0.101(7)
C1A C 0.3865(5) 0.4325(4) 0.3698(6)
H1A H 0.3666 0.3897 0.3881
C2A C 0.3566(5) 0.4928(4) 0.4075(6)
H2A H 0.3184 0.4901 0.4507
C3A C 0.3838(5) 0.5560(4) 0.3804(6)
H3A H 0.3637 0.5967 0.4045
C4A C 0.4420(5) 0.5595(3) 0.3164(6)
C5A C 0.4696(5) 0.4961(3) 0.2825(5)
C6A C 0.4733(6) 0.6231(3) 0.2822(6)
H4A H 0.4562 0.6654 0.3051
C7F C 0.2105(5) 0.3006(3) 0.5511(6)
C8F C 0.2791(5) 0.2474(3) 0.6177(6)
H5F H 0.2991 0.2451 0.6973
C9F C 0.1820(5) 0.3018(3) 0.4319(6)
H6F H 0.1359 0.3363 0.3850
C10F C 0.1730(4) 0.3566(3) 0.6042(5)
C11F C 0.1440(4) 0.3445(3) 0.6943(5)
C12F C 0.1394(5) 0.2740(3) 0.7448(6)
C13F C 0.1150(5) 0.3996(3) 0.7439(6)
H7F H 0.0982 0.3910 0.8050
C14F C 0.1104(5) 0.4671(3) 0.7042(6)
H8F H 0.0880 0.5034 0.7360
C15F C 0.1395(5) 0.4800(3) 0.6165(5)
C16F C 0.1714(5) 0.4248(3) 0.5692(5)
H9F H 0.1925 0.4343 0.5115
C17F C 0.1441(5) 0.5525(3) 0.5770(6)
N1A N 0.4418(4) 0.4328(2) 0.3091(4)
Co1F Co 0.0000 0.15273(6) 0.7500
O1F O 0.0641(3) 0.2332(2) 0.6832(3)
O1A O 0.5641(3) 0.2668(2) 0.1832(3)
O2F O 0.2071(4) 0.2642(2) 0.8484(4)
O3A O 0.6354(3) 0.3436(3) 0.4119(4)
O4F O 0.1877(4) 0.5670(2) 0.5171(4)
O5F O 0.0966(4) 0.5983(2) 0.6144(5)
H10F H 0.1000 0.6371 0.5894
H11A H 0.679(3) 0.3759(17) 0.430(5)
H12A H 0.657(4) 0.3066(15) 0.399(7)
O6 O 0.0783(5) 0.2723(3) 0.0500(5)
H13 H 0.151(4) 0.261(8) 0.074(8)
H14 H 0.036(5) 0.260(4) -0.017(4)
loop_
_geom_bond_atom_site_label_1
_geom_bond_atom_site_label_2
_geom_bond_site_symmetry_1
_geom_bond_site_symmetry_2
C1 H1 1_555 1_555
C2 C1 1_555 1_555
H2 C2 1_555 1_555
C3 C2 1_555 1_555
H3 C3 1_555 1_555
C4 C3 1_555 1_555
C5 C4 1_555 1_555
C6 C4 1_555 1_555
H4 C6 1_555 1_555
C7 C8 1_555 1_555
C8 H5 1_555 1_555
C9 C7 1_555 1_555
H6 C9 1_555 1_555
C10 C7 1_555 1_555
C11 C10 1_555 1_555
C12 C11 1_555 1_555
C13 C11 1_555 1_555
H7 C13 1_555 1_555
C14 C13 1_555 1_555
H8 C14 1_555 1_555
C15 C14 1_555 1_555
C16 C10 1_555 1_555
H9 C16 1_555 1_555
C17 C15 1_555 1_555
N1 C1 1_555 1_555
Co1 N1 1_555 1_555
O1 C12 1_555 1_555
O2 C12 1_555 1_555
O3 Co1 1_555 1_555
O4 C17 1_555 1_555
O5 C17 1_555 1_555
H10 O5 1_555 1_555
O6 H13 1_555 1_555
H11 O3 1_555 1_555
H12 O3 1_555 1_555
H14 O6 1_555 1_555
C1A H1A 1_555 1_555
C2A C1A 1_555 1_555
H2A C2A 1_555 1_555
C3A C2A 1_555 1_555
H3A C3A 1_555 1_555
C4A C3A 1_555 1_555
C5A C5 1_555 1_555
C6A C6 1_555 1_555
H4A C6A 1_555 1_555
C7F C8F 1_555 1_555
C8F C9 1_555 1_555
H5F C8F 1_555 1_555
C9F C8 1_555 1_555
H6F C9F 1_555 1_555
C10F C7F 1_555 1_555
C11F C10F 1_555 1_555
C12F C11F 1_555 1_555
C13F C11F 1_555 1_555
H7F C13F 1_555 1_555
C14F C13F 1_555 1_555
H8F C14F 1_555 1_555
C15F C14F 1_555 1_555
C16F C10F 1_555 1_555
H9F C16F 1_555 1_555
C17F C15F 1_555 1_555
N1A Co1 1_555 1_555
Co1F O1F 1_555 1_555
O1F C12F 1_555 1_555
O1A Co1 1_555 1_555
O2F C12F 1_555 1_555
O3A Co1 1_555 1_555
O4F C17F 1_555 1_555
O5F C17F 1_555 1_555
H10F O5F 1_555 1_555
H11A O3A 1_555 1_555
H12A O3A 1_555 1_555
C5 N1 1_555 1_555
C15 C16 1_555 1_555
Co1 O1 1_555 1_555
C1A N1A 1_555 1_555
C4A C5A 1_555 1_555
C4A C6A 1_555 1_555
C5A N1A 1_555 1_555
C7F C9F 1_555 1_555
C15F C16F 1_555 1_555

#END
