
#######################################################################
#
#                 Cambridge Crystallographic Data Centre
#                                CCDC 
#
#######################################################################
#
# If this CIF has been generated from an entry in the Cambridge 
# Structural Database, then it will include bibliographic, chemical, 
# crystal, experimental, refinement or atomic coordinate data resulting 
# from the CCDC's data processing and validation procedures.
#
#######################################################################

data_LASPEB
_symmetry_cell_setting           monoclinic
_symmetry_space_group_name_H-M   'P 21/c'
_symmetry_Int_Tables_number      14
_space_group_name_Hall           '-P 2ybc'
loop_
_symmetry_equiv_pos_site_id
_symmetry_equiv_pos_as_xyz
1 x,y,z
2 -x,1/2+y,1/2-z
3 -x,-y,-z
4 x,1/2-y,1/2+z
_cell_length_a                   11.961(1)
_cell_length_b                   9.829(1)
_cell_length_c                   22.025(1)
_cell_angle_alpha                90
_cell_angle_beta                 100.63(1)
_cell_angle_gamma                90
_cell_volume                     2544.93
loop_
_atom_site_label
_atom_site_type_symbol
_atom_site_fract_x
_atom_site_fract_y
_atom_site_fract_z
Ni1 Ni 0.02879(3) 0.39419(4) 0.224981(17)
N1 N -0.1162(2) 0.3420(3) 0.13025(13)
O1 O -0.1866(3) 0.3155(4) 0.08425(13)
O2 O -0.0288(2) 0.4147(2) 0.12862(11)
O3 O -0.1259(2) 0.2984(2) 0.18386(11)
N2 N 0.1116(2) 0.1045(2) 0.22879(13)
O4 O 0.1687(2) 0.0111(2) 0.21333(15)
O5 O 0.1192(2) 0.2220(2) 0.20624(11)
O6 O 0.0447(2) 0.0869(2) 0.26627(11)
N3 N 0.0399(2) 0.3609(3) 0.31407(12)
H1 H -0.027(3) 0.330(4) 0.3332(18)
C1 C 0.1212(3) 0.3912(3) 0.35845(15)
C2 C 0.1156(3) 0.3661(3) 0.42411(14)
C3 C 0.1568(4) 0.4622(4) 0.46932(17)
H2 H 0.1937 0.5421 0.4588
C4 C 0.1437(4) 0.4405(5) 0.52952(18)
H3 H 0.1698 0.5070 0.5602
C5 C 0.0931(4) 0.3232(4) 0.54559(17)
H4 H 0.0861 0.3084 0.5873
C6 C 0.0528(4) 0.2278(4) 0.50147(17)
H5 H 0.0171 0.1477 0.5127
C7 C 0.0638(3) 0.2479(3) 0.44054(16)
H6 H 0.0363 0.1814 0.4101
N4 N 0.2210(2) 0.4494(3) 0.34769(13)
H7 H 0.283(4) 0.435(4) 0.377(2)
C8 C 0.2492(2) 0.4980(3) 0.29359(15)
C9 C 0.3684(3) 0.5518(4) 0.30309(16)
C10 C 0.4019(3) 0.6615(4) 0.3414(2)
H8 H 0.3494 0.7060 0.3622
C11 C 0.5149(4) 0.7059(5) 0.3489(2)
H9 H 0.5382 0.7831 0.3740
C12 C 0.5917(3) 0.6407(5) 0.3210(3)
H10 H 0.6684 0.6709 0.3276
C13 C 0.5584(3) 0.5305(5) 0.2831(2)
H11 H 0.6122 0.4850 0.2636
C14 C 0.4464(3) 0.4863(4) 0.2734(2)
H12 H 0.4231 0.4116 0.2467
N5 N 0.1817(2) 0.4917(2) 0.24100(12)
C15 C 0.2131(2) 0.5579(3) 0.18850(14)
C16 C 0.2318(3) 0.6979(3) 0.18899(16)
H13 H 0.2275 0.7499 0.2249
C17 C 0.2568(4) 0.7610(4) 0.13651(19)
H14 H 0.2713 0.8561 0.1368
C18 C 0.2605(4) 0.6858(5) 0.08402(19)
H15 H 0.2757 0.7296 0.0479
C19 C 0.2422(4) 0.5467(4) 0.08378(18)
H16 H 0.2459 0.4950 0.0478
C20 C 0.2185(3) 0.4829(4) 0.13605(16)
H17 H 0.2059 0.3874 0.1358
Ni1A Ni -0.02879(3) -0.10581(4) 0.275019(17)
O6A O -0.0447(2) 0.5869(2) 0.23373(11)
O7 O 0.4019(6) 0.2893(8) 0.4268(3)
H18 H 0.4528 0.3491 0.4295
C21 C 0.4232(15) 0.1817(17) 0.3805(9)
H19 H 0.4381 0.2269 0.3427
H20 H 0.4915 0.1282 0.3984
C22 C 0.3325(15) 0.0964(14) 0.3655(8)
H21 H 0.2895 0.0946 0.3993
H22 H 0.3596 0.0046 0.3588
H23 H 0.2832 0.1288 0.3277
O8? O 0.4019(6) 0.2893(8) 0.4268(3)
H24? H 0.4651 0.3070 0.4490
C23? C 0.383(2) 0.1365(15) 0.4246(8)
H25? H 0.4572 0.0895 0.4367
H26? H 0.3342 0.1106 0.4543
C24? C 0.3325(15) 0.0964(14) 0.3655(8)
H27? H 0.3020 0.1764 0.3415
H28? H 0.2705 0.0327 0.3681
H29? H 0.3891 0.0518 0.3453
loop_
_geom_bond_atom_site_label_1
_geom_bond_atom_site_label_2
_geom_bond_site_symmetry_1
_geom_bond_site_symmetry_2
Ni1 O2 1_555 1_555
N1 O1 1_555 1_555
O2 N1 1_555 1_555
O3 Ni1 1_555 1_555
N2 O4 1_555 1_555
O5 Ni1 1_555 1_555
O6 N2 1_555 1_555
N3 Ni1 1_555 1_555
H1 N3 1_555 1_555
C1 N3 1_555 1_555
C2 C1 1_555 1_555
C3 C2 1_555 1_555
H2 C3 1_555 1_555
C4 C3 1_555 1_555
H3 C4 1_555 1_555
C5 C4 1_555 1_555
H4 C5 1_555 1_555
C6 C5 1_555 1_555
H5 C6 1_555 1_555
C7 C2 1_555 1_555
H6 C7 1_555 1_555
N4 C1 1_555 1_555
H7 N4 1_555 1_555
C8 N4 1_555 1_555
C9 C8 1_555 1_555
C10 C9 1_555 1_555
H8 C10 1_555 1_555
C11 C10 1_555 1_555
H9 C11 1_555 1_555
C12 C11 1_555 1_555
H10 C12 1_555 1_555
C13 C12 1_555 1_555
H11 C13 1_555 1_555
C14 C9 1_555 1_555
H12 C14 1_555 1_555
N5 Ni1 1_555 1_555
C15 N5 1_555 1_555
C16 C15 1_555 1_555
H13 C16 1_555 1_555
C17 C16 1_555 1_555
H14 C17 1_555 1_555
C18 C17 1_555 1_555
H15 C18 1_555 1_555
C19 C18 1_555 1_555
H16 C19 1_555 1_555
C20 C15 1_555 1_555
H17 C20 1_555 1_555
O7 H18 1_555 1_555
C21 O7 1_555 1_555
H19 C21 1_555 1_555
H20 C21 1_555 1_555
C22 C21 1_555 1_555
H21 C22 1_555 1_555
H22 C22 1_555 1_555
H23 C22 1_555 1_555
Ni1A O6 1_555 1_555
O6A Ni1 1_555 1_555
N1 O3 1_555 1_555
N2 O5 1_555 1_555
C6 C7 1_555 1_555
C8 N5 1_555 1_555
C13 C14 1_555 1_555
C19 C20 1_555 1_555

#END
