
#######################################################################
#
#                 Cambridge Crystallographic Data Centre
#                                CCDC 
#
#######################################################################
#
# If this CIF has been generated from an entry in the Cambridge 
# Structural Database, then it will include bibliographic, chemical, 
# crystal, experimental, refinement or atomic coordinate data resulting 
# from the CCDC's data processing and validation procedures.
#
#######################################################################

data_LASPCU01
_symmetry_cell_setting           monoclinic
_symmetry_space_group_name_H-M   'P 21'
_symmetry_Int_Tables_number      4
_space_group_name_Hall           'P 2yb'
loop_
_symmetry_equiv_pos_site_id
_symmetry_equiv_pos_as_xyz
1 x,y,z
2 -x,1/2+y,-z
_cell_length_a                   5.036(2)
_cell_length_b                   18.915(2)
_cell_length_c                   6.1520(10)
_cell_angle_alpha                90
_cell_angle_beta                 96.21(2)
_cell_angle_gamma                90
_cell_volume                     582.576
loop_
_atom_site_label
_atom_site_type_symbol
_atom_site_fract_x
_atom_site_fract_y
_atom_site_fract_z
Cu1 Cu 0.78210(12) 0.62217(4) 0.22094(10)
O1 O 0.5925(6) 0.71513(17) 0.2267(5)
O2 O 0.5780(9) 0.8239(2) 0.0992(7)
O3 O 1.1285(9) 0.6765(2) -0.4130(6)
N1 N 1.0333(8) 0.6784(2) 0.0508(6)
H1 H 1.176(10) 0.680(3) 0.158(8)
H2 H 1.081(11) 0.659(3) -0.056(8)
N2 N 1.1722(9) 0.7923(3) -0.4892(7)
H3 H 1.088(13) 0.830(3) -0.512(12)
H4 H 1.276(12) 0.787(4) -0.583(9)
C1 C 0.6800(9) 0.7654(2) 0.1141(7)
C2 C 0.9237(8) 0.7494(2) -0.0097(7)
H5 H 1.0620 0.7848 0.0319
C3 C 0.8352(9) 0.7567(3) -0.2569(7)
H6 H 0.6861 0.7251 -0.2971
H7 H 0.7748 0.8046 -0.2881
C4 C 1.0608(9) 0.7393(3) -0.3938(7)
O4 O 1.0112(7) 0.53481(19) 0.2708(6)
O5 O 1.0387(9) 0.4344(2) 0.4533(7)
O6 O 0.5274(8) 0.57414(19) 0.9404(5)
N3 N 0.5907(8) 0.5780(2) 0.4653(6)
H8 H 0.564(11) 0.611(3) 0.565(8)
H9 H 0.452(11) 0.555(3) 0.391(9)
N4 N 0.3578(11) 0.4669(3) 1.0040(9)
H10 H 0.367(15) 0.422(2) 0.996(13)
H11 H 0.274(14) 0.479(4) 1.112(9)
C5 C 0.9529(9) 0.4945(2) 0.4243(7)
C6 C 0.7815(8) 0.5280(2) 0.5880(7)
H12 H 0.9018 0.5566 0.6883
C7 C 0.6522(9) 0.4753(2) 0.7254(7)
H13 H 0.7882 0.4437 0.7939
H14 H 0.5263 0.4471 0.6315
C8 C 0.5075(9) 0.5095(2) 0.9008(7)
O3_2 O 1.1285(9) 0.6765(2) 0.5870(6)
O6_2 O 0.5274(8) 0.57414(19) -0.0596(5)
Cu1_2 Cu 0.78210(12) 0.62217(4) -0.77906(10)
Cu1_3 Cu 0.78210(12) 0.62217(4) 1.22094(10)
loop_
_geom_bond_atom_site_label_1
_geom_bond_atom_site_label_2
_geom_bond_site_symmetry_1
_geom_bond_site_symmetry_2
Cu1 O1 1_555 1_555
O1 C1 1_555 1_555
O2 C1 1_555 1_555
O3 C4 1_555 1_555
N1 Cu1 1_555 1_555
H1 N1 1_555 1_555
H2 N1 1_555 1_555
N2 H3 1_555 1_555
H4 N2 1_555 1_555
C1 C2 1_555 1_555
C2 N1 1_555 1_555
H5 C2 1_555 1_555
C3 C2 1_555 1_555
H6 C3 1_555 1_555
H7 C3 1_555 1_555
C4 N2 1_555 1_555
O4 Cu1 1_555 1_555
O5 C5 1_555 1_555
O6 C8 1_555 1_555
N3 Cu1 1_555 1_555
H8 N3 1_555 1_555
H9 N3 1_555 1_555
N4 H10 1_555 1_555
H11 N4 1_555 1_555
C5 O4 1_555 1_555
C6 N3 1_555 1_555
H12 C6 1_555 1_555
C7 C6 1_555 1_555
H13 C7 1_555 1_555
H14 C7 1_555 1_555
C8 N4 1_555 1_555
O3_2 Cu1 1_555 1_555
O6_2 Cu1 1_555 1_555
Cu1_2 O3 1_555 1_555
Cu1_3 O6 1_555 1_555
C3 C4 1_555 1_555
C5 C6 1_555 1_555
C7 C8 1_555 1_555

#END
