
#######################################################################
#
#                 Cambridge Crystallographic Data Centre
#                                CCDC 
#
#######################################################################
#
# If this CIF has been generated from an entry in the Cambridge 
# Structural Database, then it will include bibliographic, chemical, 
# crystal, experimental, refinement or atomic coordinate data resulting 
# from the CCDC's data processing and validation procedures.
#
#######################################################################

data_LASQIH
_symmetry_cell_setting           monoclinic
_symmetry_space_group_name_H-M   'P 21/c'
_symmetry_Int_Tables_number      14
_space_group_name_Hall           '-P 2ybc'
loop_
_symmetry_equiv_pos_site_id
_symmetry_equiv_pos_as_xyz
1 x,y,z
2 -x,1/2+y,1/2-z
3 -x,-y,-z
4 x,1/2-y,1/2+z
_cell_length_a                   7.8961(16)
_cell_length_b                   18.240(4)
_cell_length_c                   17.618(3)
_cell_angle_alpha                90
_cell_angle_beta                 96.23(3)
_cell_angle_gamma                90
_cell_volume                     2522.44
loop_
_atom_site_label
_atom_site_type_symbol
_atom_site_fract_x
_atom_site_fract_y
_atom_site_fract_z
Ni1 Ni 0.29884(5) 0.24466(2) 0.25961(2)
N1 N 0.1118(3) 0.18529(15) 0.30814(15)
N2 N 0.0033(3) 0.10440(15) 0.38298(16)
N3 N 0.3940(3) 0.14501(15) 0.22525(15)
N4 N 0.4617(4) 0.06132(15) 0.14354(16)
N5 N 0.2046(3) 0.34246(14) 0.29930(14)
N6 N 0.0926(3) 0.42534(14) 0.37047(14)
O1 O 0.4493(3) 0.23155(12) 0.36554(11)
O2 O 0.6918(3) 0.28738(16) 0.34633(12)
H1 H 0.6437 0.2911 0.3028
O3 O 0.4156(3) 0.11559(15) 0.63431(14)
O4 O 0.5125(3) 0.20416(13) 0.71577(11)
O5 O 1.1330(3) 0.24318(13) 0.66399(11)
O6 O 1.1923(3) 0.26099(12) 0.54344(12)
C1 C 0.1356(4) 0.1490(2) 0.37249(19)
H2 H 0.2327 0.1533 0.4071
C2 C -0.0461(4) 0.1636(2) 0.2756(2)
H3 H -0.0990 0.1809 0.2293
C3 C -0.1132(5) 0.1140(2) 0.3200(2)
H4 H -0.2181 0.0907 0.3100
C4 C -0.0020(4) 0.05220(19) 0.4432(2)
C5 C -0.1041(5) -0.0090(2) 0.4321(2)
H5 H -0.1743 -0.0148 0.3866
C6 C 0.1018(5) 0.0617(2) 0.5113(2)
H6 H 0.1695 0.1033 0.5189
C7 C 0.4154(4) 0.13197(18) 0.15342(19)
H7 H 0.4006 0.1666 0.1146
C8 C 0.4275(5) 0.0796(2) 0.2630(2)
H8 H 0.4219 0.0724 0.3149
C9 C 0.4696(5) 0.0273(2) 0.2139(2)
H9 H 0.4979 -0.0213 0.2251
C10 C 0.4844(4) 0.02924(18) 0.07089(19)
C11 C 0.4324(5) -0.04197(19) 0.0549(2)
H10 H 0.3882 -0.0702 0.0921
C12 C 0.5536(4) 0.07103(19) 0.0168(2)
H11 H 0.5906 0.1185 0.0284
C13 C 0.1804(4) 0.36155(17) 0.36922(18)
H12 H 0.2188 0.3346 0.4125
C14 C 0.1276(5) 0.3957(2) 0.2529(2)
H13 H 0.1244 0.3966 0.2000
C15 C 0.0570(6) 0.4465(2) 0.2953(2)
H14 H -0.0039 0.4878 0.2773
C16 C 0.0456(4) 0.46305(17) 0.43661(17)
C17 C 0.0526(4) 0.42753(18) 0.50579(19)
H15 H 0.0878 0.3789 0.5098
C18 C -0.0074(4) 0.53578(18) 0.43053(19)
H16 H -0.0124 0.5598 0.3838
C19 C 0.6702(4) 0.23433(17) 0.46796(16)
C20 C 0.5642(4) 0.20740(17) 0.51992(16)
H17 H 0.4506 0.1973 0.5037
C21 C 0.6268(4) 0.19542(17) 0.59591(16)
C22 C 0.7980(4) 0.20897(17) 0.61829(17)
H18 H 0.8405 0.2019 0.6691
C23 C 0.9080(4) 0.23291(16) 0.56643(16)
C24 C 0.8426(4) 0.24615(17) 0.49102(15)
H19 H 0.9139 0.2629 0.4561
C25 C 0.5950(4) 0.25062(17) 0.38840(16)
C26 C 0.5080(4) 0.16823(19) 0.65212(17)
C27 C 1.0954(4) 0.24676(17) 0.59239(16)
Ni1B Ni -0.29884(5) -0.24466(2) 0.74039(2)
Ni1C Ni 0.29884(5) 0.25534(2) 0.75961(2)
Ni1C_2 Ni 1.29884(5) 0.25534(2) 0.75961(2)
Ni1B_2 Ni 0.70116(5) -0.24466(2) -0.25961(2)
Ni1B_3 Ni -0.29884(5) 0.75534(2) 0.74039(2)
Ni1C_3 Ni 0.29884(5) 0.25534(2) -0.24039(2)
Ni1_2 Ni 1.29884(5) 0.24466(2) 0.25961(2)
N1B N -0.1118(3) -0.18529(15) 0.69186(15)
N2B N -0.0033(3) -0.10440(15) 0.61702(16)
N3B N 0.6060(3) -0.14501(15) -0.22525(15)
N3B_2 N -0.3940(3) -0.14501(15) 0.77475(15)
N4B N 0.5383(4) -0.06132(15) -0.14354(16)
N5B N -0.2046(3) 0.65754(14) 0.70070(14)
N5B_2 N -0.2046(3) -0.34246(14) 0.70070(14)
N6B N -0.0926(3) 0.57466(14) 0.62953(14)
O1C O 0.4493(3) 0.26845(12) -0.13446(11)
O1B O -0.4493(3) -0.23155(12) 0.63446(11)
O2C O 0.6918(3) 0.21262(16) -0.15367(12)
H1C H 0.6437 0.2089 -0.1972
O3C O 0.4156(3) 0.38441(15) 0.13431(14)
O4C O 0.5125(3) 0.29584(13) 0.21577(11)
O4A O -0.5125(3) -0.29584(13) 0.78423(11)
O5C O 1.1330(3) 0.25682(13) 0.16399(11)
O5C_2 O 0.1330(3) 0.25682(13) 0.16399(11)
O5A O -0.1330(3) -0.25682(13) 0.83601(11)
O6C O 1.1923(3) 0.23901(12) 0.04344(12)
C1B C -0.1356(4) -0.1490(2) 0.62751(19)
H2B H -0.2327 -0.1533 0.5929
C2B C 0.0461(4) -0.1636(2) 0.7244(2)
H3B H 0.0990 -0.1809 0.7707
C3B C 0.1132(5) -0.1140(2) 0.6800(2)
H4B H 0.2181 -0.0907 0.6900
C4B C 0.0020(4) -0.05220(19) 0.5568(2)
C5B C 0.1041(5) 0.0090(2) 0.5679(2)
H5B H 0.1743 0.0148 0.6134
C6B C -0.1018(5) -0.0617(2) 0.4887(2)
H6B H -0.1695 -0.1033 0.4811
C7B C 0.5846(4) -0.13197(18) -0.15342(19)
H7B H 0.5994 -0.1666 -0.1146
C8B C 0.5725(5) -0.0796(2) -0.2630(2)
H8B H 0.5781 -0.0724 -0.3149
C9B C 0.5304(5) -0.0273(2) -0.2139(2)
H9B H 0.5021 0.0213 -0.2251
C10B C 0.5156(4) -0.02924(18) -0.07089(19)
C11B C 0.5676(5) 0.04197(19) -0.0549(2)
H10B H 0.6118 0.0702 -0.0921
C12B C 0.4464(4) -0.07103(19) -0.0168(2)
H11B H 0.4094 -0.1185 -0.0284
C13B C -0.1804(4) 0.63845(17) 0.63078(18)
H12B H -0.2188 0.6654 0.5875
C14B C -0.1276(5) 0.6043(2) 0.7471(2)
H13B H -0.1244 0.6034 0.8000
C15B C -0.0570(6) 0.5535(2) 0.7047(2)
H14B H 0.0039 0.5122 0.7227
C16B C -0.0456(4) 0.53695(17) 0.56339(17)
C17B C -0.0526(4) 0.57247(18) 0.49421(19)
H15B H -0.0878 0.6211 0.4902
C18B C 0.0074(4) 0.46422(18) 0.56947(19)
H16B H 0.0124 0.4402 0.6162
C19C C 0.6702(4) 0.26567(17) -0.03204(16)
C20C C 0.5642(4) 0.29260(17) 0.01992(16)
H17C H 0.4506 0.3027 0.0037
C21C C 0.6268(4) 0.30458(17) 0.09591(16)
C22C C 0.7980(4) 0.29103(17) 0.11829(17)
H18C H 0.8405 0.2981 0.1691
C23C C 0.9080(4) 0.26709(16) 0.06643(16)
C24C C 0.8426(4) 0.25385(17) -0.00898(15)
H19C H 0.9139 0.2371 -0.0439
C25C C 0.5950(4) 0.24938(17) -0.11160(16)
C26C C 0.5080(4) 0.33177(19) 0.15212(17)
C27C C 1.0954(4) 0.25324(17) 0.09239(16)
O7 O 0.5336(11) 0.9898(5) 0.5581(5)
H20 H 0.6273 1.0079 0.5780
H21 H 0.5226 0.9545 0.5265
loop_
_geom_bond_atom_site_label_1
_geom_bond_atom_site_label_2
_geom_bond_site_symmetry_1
_geom_bond_site_symmetry_2
Ni1 N1 1_555 1_555
N1 C1 1_555 1_555
N2 C1 1_555 1_555
N3 Ni1 1_555 1_555
N4 C7 1_555 1_555
N5 Ni1 1_555 1_555
N6 C13 1_555 1_555
O1 Ni1 1_555 1_555
O2 H1 1_555 1_555
O3 C26 1_555 1_555
O4 C26 1_555 1_555
O5 C27 1_555 1_555
O6 C27 1_555 1_555
C1 H2 1_555 1_555
C2 N1 1_555 1_555
H3 C2 1_555 1_555
C3 N2 1_555 1_555
H4 C3 1_555 1_555
C4 N2 1_555 1_555
C5 C4 1_555 1_555
H5 C5 1_555 1_555
C6 C4 1_555 1_555
H6 C6 1_555 1_555
C7 N3 1_555 1_555
H7 C7 1_555 1_555
C8 N3 1_555 1_555
H8 C8 1_555 1_555
C9 N4 1_555 1_555
H9 C9 1_555 1_555
C10 N4 1_555 1_555
C11 C10 1_555 1_555
H10 C11 1_555 1_555
C12 C10 1_555 1_555
H11 C12 1_555 1_555
C13 N5 1_555 1_555
H12 C13 1_555 1_555
C14 N5 1_555 1_555
H13 C14 1_555 1_555
C15 N6 1_555 1_555
H14 C15 1_555 1_555
C16 N6 1_555 1_555
C17 C16 1_555 1_555
H15 C17 1_555 1_555
C18 C16 1_555 1_555
H16 C18 1_555 1_555
C19 C20 1_555 1_555
C20 H17 1_555 1_555
C21 C20 1_555 1_555
C22 C21 1_555 1_555
H18 C22 1_555 1_555
C23 C22 1_555 1_555
C24 C19 1_555 1_555
H19 C24 1_555 1_555
C25 O1 1_555 1_555
C26 C21 1_555 1_555
C27 C23 1_555 1_555
O7 H20 1_555 1_555
H21 O7 1_555 1_555
Ni1B N1B 1_555 1_555
Ni1C O4 1_555 1_555
Ni1C_2 O5 1_555 1_555
Ni1B_2 N3B 1_555 1_555
Ni1B_3 N5B 1_555 1_555
Ni1C_3 O1C 1_555 1_555
Ni1_2 O5C 1_555 1_555
N1B C1B 1_555 1_555
N2B C1B 1_555 1_555
N3B C7B 1_555 1_555
N3B_2 Ni1B 1_555 1_555
N4B C7B 1_555 1_555
N5B C13B 1_555 1_555
N5B_2 Ni1B 1_555 1_555
N6B C13B 1_555 1_555
O1C C25C 1_555 1_555
O1B Ni1B 1_555 1_555
O2C H1C 1_555 1_555
O3C C26C 1_555 1_555
O4C Ni1 1_555 1_555
O4A Ni1B 1_555 1_555
O5C C27C 1_555 1_555
O5C_2 Ni1 1_555 1_555
O5A Ni1B 1_555 1_555
O6C C27C 1_555 1_555
C1B H2B 1_555 1_555
C2B N1B 1_555 1_555
H3B C2B 1_555 1_555
C3B N2B 1_555 1_555
H4B C3B 1_555 1_555
C4B N2B 1_555 1_555
C5B C6 1_555 1_555
H5B C5B 1_555 1_555
C6B C5 1_555 1_555
H6B C6B 1_555 1_555
C7B H7B 1_555 1_555
C8B N3B 1_555 1_555
H8B C8B 1_555 1_555
C9B N4B 1_555 1_555
H9B C9B 1_555 1_555
C10B N4B 1_555 1_555
C11B C12 1_555 1_555
H10B C11B 1_555 1_555
C12B C11 1_555 1_555
H11B C12B 1_555 1_555
C13B H12B 1_555 1_555
C14B N5B 1_555 1_555
H13B C14B 1_555 1_555
C15B N6B 1_555 1_555
H14B C15B 1_555 1_555
C16B N6B 1_555 1_555
C17B C18 1_555 1_555
H15B C17B 1_555 1_555
C18B C17 1_555 1_555
H16B C18B 1_555 1_555
C19C C20C 1_555 1_555
C20C H17C 1_555 1_555
C21C C20C 1_555 1_555
C22C C21C 1_555 1_555
H18C C22C 1_555 1_555
C23C C22C 1_555 1_555
C24C C19C 1_555 1_555
H19C C24C 1_555 1_555
C25C O2C 1_555 1_555
C26C O4C 1_555 1_555
C27C C23C 1_555 1_555
O2 C25 1_555 1_555
C2 C3 1_555 1_555
C8 C9 1_555 1_555
C14 C15 1_555 1_555
C19 C25 1_555 1_555
C23 C24 1_555 1_555
C2B C3B 1_555 1_555
C4B C5B 1_555 1_555
C4B C6B 1_555 1_555
C8B C9B 1_555 1_555
C10B C11B 1_555 1_555
C10B C12B 1_555 1_555
C14B C15B 1_555 1_555
C16B C17B 1_555 1_555
C16B C18B 1_555 1_555
C19C C25C 1_555 1_555
C21C C26C 1_555 1_555
C23C C24C 1_555 1_555

#END
