
#######################################################################
#
#                 Cambridge Crystallographic Data Centre
#                                CCDC 
#
#######################################################################
#
# If this CIF has been generated from an entry in the Cambridge 
# Structural Database, then it will include bibliographic, chemical, 
# crystal, experimental, refinement or atomic coordinate data resulting 
# from the CCDC's data processing and validation procedures.
#
#######################################################################

data_LASQAZ
_symmetry_cell_setting           monoclinic
_symmetry_space_group_name_H-M   'C 2/c'
_symmetry_Int_Tables_number      15
_space_group_name_Hall           '-C 2yn'
loop_
_symmetry_equiv_pos_site_id
_symmetry_equiv_pos_as_xyz
1 x,y,z
2 -x,y,1/2-z
3 1/2+x,1/2+y,z
4 1/2-x,1/2+y,1/2-z
5 -x,-y,-z
6 x,-y,1/2+z
7 1/2-x,1/2-y,-z
8 1/2+x,1/2-y,1/2+z
_cell_length_a                   14.050(2)
_cell_length_b                   19.069(3)
_cell_length_c                   12.814(3)
_cell_angle_alpha                90
_cell_angle_beta                 117.154(1)
_cell_angle_gamma                90
_cell_volume                     3054.73
loop_
_atom_site_label
_atom_site_type_symbol
_atom_site_fract_x
_atom_site_fract_y
_atom_site_fract_z
C1 C 0.6136(5) 0.4326(4) 0.1302(6)
H1 H 0.6333 0.3895 0.1119
C2 C 0.6435(5) 0.4928(4) 0.0925(6)
H2 H 0.6815 0.4900 0.0493
C3 C 0.6164(5) 0.5560(4) 0.1197(6)
H3 H 0.6366 0.5970 0.0958
C4 C 0.5580(5) 0.5595(3) 0.1837(6)
C5 C 0.5307(5) 0.4960(3) 0.2172(5)
C6 C 0.5268(6) 0.6232(4) 0.2177(7)
H4 H 0.5438 0.6658 0.1949
C7 C 0.7105(5) 0.1993(3) 0.0512(6)
C8 C 0.7792(5) 0.2527(3) 0.1179(6)
H5 H 0.7991 0.2553 0.1976
C9 C 0.6820(5) 0.1984(3) -0.0682(6)
H6 H 0.6355 0.1639 -0.1154
C10 C 0.6730(5) 0.1435(3) 0.1042(5)
C11 C 0.6438(4) 0.1555(3) 0.1945(5)
C12 C 0.6393(5) 0.2259(3) 0.2447(6)
C13 C 0.6151(5) 0.1005(3) 0.2439(6)
H7 H 0.5985 0.1092 0.3052
C14 C 0.6104(5) 0.0329(3) 0.2041(6)
H8 H 0.5880 -0.0036 0.2358
C15 C 0.6395(5) 0.0202(3) 0.1165(6)
C16 C 0.6713(5) 0.0751(3) 0.0692(6)
H9 H 0.6923 0.0655 0.0116
C17 C 0.6440(5) -0.0527(3) 0.0769(6)
N1 N 0.5582(4) 0.4329(2) 0.1909(4)
Ni1 Ni 0.5000 0.34726(6) 0.2500
O1 O 0.5641(3) 0.2668(2) 0.1833(4)
O2 O 0.7071(4) 0.2357(2) 0.3484(4)
O3 O 0.3646(3) 0.3437(2) 0.0880(4)
O4 O 0.6876(4) -0.0671(2) 0.0173(4)
O5 O 0.5966(4) -0.0983(2) 0.1143(5)
H10 H 0.5993 -0.1373 0.0889
H11 H 0.323(3) 0.3769(16) 0.072(6)
H12 H 0.343(4) 0.3073(16) 0.104(7)
C1A C 0.3864(5) 0.4326(4) 0.3698(6)
H1A H 0.3667 0.3895 0.3881
C2A C 0.3565(5) 0.4928(4) 0.4075(6)
H2A H 0.3185 0.4900 0.4507
C3A C 0.3836(5) 0.5560(4) 0.3803(6)
H3A H 0.3634 0.5970 0.4042
C4A C 0.4420(5) 0.5595(3) 0.3163(6)
C5A C 0.4693(5) 0.4960(3) 0.2828(5)
C6A C 0.4732(6) 0.6232(4) 0.2823(7)
H4A H 0.4562 0.6658 0.3051
C7F C 0.7895(5) 0.3007(3) -0.0512(6)
C8F C 0.7208(5) 0.2473(3) -0.1179(6)
H5F H 0.7009 0.2447 -0.1976
C9F C 0.8180(5) 0.3016(3) 0.0682(6)
H6F H 0.8645 0.3361 0.1154
C10F C 0.8270(5) 0.3565(3) -0.1042(5)
C11F C 0.8562(4) 0.3445(3) -0.1945(5)
C12F C 0.8607(5) 0.2741(3) -0.2447(6)
C13F C 0.8849(5) 0.3995(3) -0.2439(6)
H7F H 0.9015 0.3908 -0.3052
C14F C 0.8896(5) 0.4671(3) -0.2041(6)
H8F H 0.9120 0.5036 -0.2358
C15F C 0.8605(5) 0.4798(3) -0.1165(6)
C16F C 0.8287(5) 0.4249(3) -0.0692(6)
H9F H 0.8077 0.4345 -0.0116
C17F C 0.8560(5) 0.5527(3) -0.0769(6)
N1A N 0.4418(4) 0.4329(2) 0.3091(4)
Ni1F Ni 1.0000 0.15274(6) -0.2500
O1F O 0.9359(3) 0.2332(2) -0.1833(4)
O1A O 0.4359(3) 0.2668(2) 0.3167(4)
O2F O 0.7929(4) 0.2643(2) -0.3484(4)
O3A O 0.6354(3) 0.3437(2) 0.4120(4)
O4F O 0.8124(4) 0.5671(2) -0.0173(4)
O5F O 0.9034(4) 0.5983(2) -0.1143(5)
H10F H 0.9007 0.6373 -0.0889
H11A H 0.677(3) 0.3769(16) 0.428(6)
H12A H 0.657(4) 0.3073(16) 0.396(7)
O6 O 0.0782(5) 0.2723(3) 0.0500(5)
H13 H 0.150(4) 0.269(7) 0.070(7)
H14 H 0.037(5) 0.259(4) -0.017(4)
loop_
_geom_bond_atom_site_label_1
_geom_bond_atom_site_label_2
_geom_bond_site_symmetry_1
_geom_bond_site_symmetry_2
C1 H1 1_555 1_555
C2 C1 1_555 1_555
H2 C2 1_555 1_555
C3 C2 1_555 1_555
H3 C3 1_555 1_555
C4 C3 1_555 1_555
C5 C4 1_555 1_555
C6 C4 1_555 1_555
H4 C6 1_555 1_555
C7 C8 1_555 1_555
C8 H5 1_555 1_555
C9 C7 1_555 1_555
H6 C9 1_555 1_555
C10 C7 1_555 1_555
C11 C10 1_555 1_555
C12 C11 1_555 1_555
C13 C11 1_555 1_555
H7 C13 1_555 1_555
C14 C13 1_555 1_555
H8 C14 1_555 1_555
C15 C14 1_555 1_555
C16 C10 1_555 1_555
H9 C16 1_555 1_555
C17 C15 1_555 1_555
N1 C1 1_555 1_555
Ni1 N1 1_555 1_555
O1 C12 1_555 1_555
O2 C12 1_555 1_555
O3 Ni1 1_555 1_555
O4 C17 1_555 1_555
O5 C17 1_555 1_555
H10 O5 1_555 1_555
O6 H13 1_555 1_555
H11 O3 1_555 1_555
H12 O3 1_555 1_555
H14 O6 1_555 1_555
C1A H1A 1_555 1_555
C2A C1A 1_555 1_555
H2A C2A 1_555 1_555
C3A C2A 1_555 1_555
H3A C3A 1_555 1_555
C4A C3A 1_555 1_555
C5A C5 1_555 1_555
C6A C6 1_555 1_555
H4A C6A 1_555 1_555
C7F C8F 1_555 1_555
C8F C9 1_555 1_555
H5F C8F 1_555 1_555
C9F C8 1_555 1_555
H6F C9F 1_555 1_555
C10F C7F 1_555 1_555
C11F C10F 1_555 1_555
C12F C11F 1_555 1_555
C13F C11F 1_555 1_555
H7F C13F 1_555 1_555
C14F C13F 1_555 1_555
H8F C14F 1_555 1_555
C15F C14F 1_555 1_555
C16F C10F 1_555 1_555
H9F C16F 1_555 1_555
C17F C15F 1_555 1_555
N1A Ni1 1_555 1_555
Ni1F O1F 1_555 1_555
O1F C12F 1_555 1_555
O1A Ni1 1_555 1_555
O2F C12F 1_555 1_555
O3A Ni1 1_555 1_555
O4F C17F 1_555 1_555
O5F C17F 1_555 1_555
H10F O5F 1_555 1_555
H11A O3A 1_555 1_555
H12A O3A 1_555 1_555
C5 N1 1_555 1_555
C15 C16 1_555 1_555
Ni1 O1 1_555 1_555
C1A N1A 1_555 1_555
C4A C5A 1_555 1_555
C4A C6A 1_555 1_555
C5A N1A 1_555 1_555
C7F C9F 1_555 1_555
C15F C16F 1_555 1_555

#END
