
#######################################################################
#
#                 Cambridge Crystallographic Data Centre
#                                CCDC 
#
#######################################################################
#
# If this CIF has been generated from an entry in the Cambridge 
# Structural Database, then it will include bibliographic, chemical, 
# crystal, experimental, refinement or atomic coordinate data resulting 
# from the CCDC's data processing and validation procedures.
#
#######################################################################

data_LASRII
_symmetry_cell_setting           orthorhombic
_symmetry_space_group_name_H-M   'P c c n'
_symmetry_Int_Tables_number      56
_space_group_name_Hall           '-P 2ab 2ac'
loop_
_symmetry_equiv_pos_site_id
_symmetry_equiv_pos_as_xyz
1 x,y,z
2 1/2-x,1/2-y,z
3 -x,1/2+y,1/2-z
4 1/2+x,-y,1/2-z
5 -x,-y,-z
6 1/2+x,1/2+y,-z
7 x,1/2-y,1/2+z
8 1/2-x,y,1/2+z
_cell_length_a                   8.8179(3)
_cell_length_b                   13.7604(3)
_cell_length_c                   18.6600(4)
_cell_angle_alpha                90
_cell_angle_beta                 90
_cell_angle_gamma                90
_cell_volume                     2264.16
loop_
_atom_site_label
_atom_site_type_symbol
_atom_site_fract_x
_atom_site_fract_y
_atom_site_fract_z
Tb1 Tb 0.2500 0.2500 0.058011(6)
Na1 Na 0.7500 0.2500 0.32216(7)
O1 O 0.41126(15) 0.29962(10) 0.14950(7)
O2 O 0.5739(2) 0.26904(12) 0.23743(9)
O3 O 0.05711(18) 0.24366(9) -0.02852(9)
O4 O -0.07680(16) 0.16536(11) -0.11220(7)
N1 N 0.39874(16) 0.11437(10) 0.11175(7)
N2 N 0.21209(17) 0.08524(11) 0.00436(8)
C1 C 0.4801(2) 0.13549(14) 0.17060(10)
C2 C 0.5511(2) 0.06375(15) 0.21073(11)
H1 H 0.6047 0.0796 0.2521
C3 C 0.5408(3) -0.03179(16) 0.18804(11)
H2 H 0.5873 -0.0811 0.2141
C4 C 0.4604(2) -0.05347(14) 0.12608(11)
H3 H 0.4549 -0.1170 0.1093
C5 C 0.3884(2) 0.02130(12) 0.08967(9)
C6 C 0.2934(2) 0.00673(13) 0.02434(10)
C7 C 0.2847(2) -0.08055(14) -0.01303(11)
H4 H 0.3419 -0.1340 0.0012
C8 C 0.1890(3) -0.08627(15) -0.07199(11)
H5 H 0.1827 -0.1435 -0.0983
C9 C 0.1029(2) -0.00617(15) -0.09138(10)
H6 H 0.0367 -0.0093 -0.1301
C10 C 0.1174(2) 0.07841(14) -0.05200(9)
C11 C 0.4896(3) 0.24337(13) 0.18869(9)
C12 C 0.0241(2) 0.16956(15) -0.06668(9)
Na1_2 Na -0.2500 0.2500 0.32216(7)
Na1F Na -0.2500 0.2500 -0.17784(7)
Na1F_2 Na 0.7500 0.2500 -0.17784(7)
O1A O 0.08874(15) 0.20038(10) 0.14950(7)
O2A O -0.0739(2) 0.23096(12) 0.23743(9)
O2A_2 O 0.9261(2) 0.23096(12) 0.23743(9)
O3A O 0.44289(18) 0.25634(9) -0.02852(9)
O4A O 0.57680(16) 0.33464(11) -0.11220(7)
O4F O 0.92320(16) 0.33464(11) 0.38780(7)
O4G O 0.57680(16) 0.16536(11) 0.38780(7)
N1A N 0.10126(16) 0.38563(10) 0.11175(7)
N2A N 0.28791(17) 0.41476(11) 0.00436(8)
C1A C 0.0199(2) 0.36451(14) 0.17060(10)
C2A C -0.0511(2) 0.43625(15) 0.21073(11)
H1A H -0.1047 0.4204 0.2521
C3A C -0.0408(3) 0.53179(16) 0.18804(11)
H2A H -0.0873 0.5811 0.2141
C4A C 0.0396(2) 0.55347(14) 0.12608(11)
H3A H 0.0451 0.6170 0.1093
C5A C 0.1116(2) 0.47870(12) 0.08967(9)
C6A C 0.2066(2) 0.49327(13) 0.02434(10)
C7A C 0.2153(2) 0.58055(14) -0.01303(11)
H4A H 0.1581 0.6340 0.0012
C8A C 0.3110(3) 0.58627(15) -0.07199(11)
H5A H 0.3173 0.6435 -0.0983
C9A C 0.3971(2) 0.50617(15) -0.09138(10)
H6A H 0.4633 0.5093 -0.1301
C10A C 0.3826(2) 0.42159(14) -0.05200(9)
C11A C 0.0104(3) 0.25663(13) 0.18869(9)
C12A C 0.4759(2) 0.33044(15) -0.06668(9)
loop_
_geom_bond_atom_site_label_1
_geom_bond_atom_site_label_2
_geom_bond_site_symmetry_1
_geom_bond_site_symmetry_2
Tb1 O1 1_555 1_555
Na1 O2 1_555 1_555
O1 C11 1_555 1_555
O2 C11 1_555 1_555
O3 Tb1 1_555 1_555
O4 C12 1_555 1_555
N1 Tb1 1_555 1_555
N2 Tb1 1_555 1_555
C1 N1 1_555 1_555
C2 C1 1_555 1_555
H1 C2 1_555 1_555
C3 C2 1_555 1_555
H2 C3 1_555 1_555
C4 C3 1_555 1_555
H3 C4 1_555 1_555
C5 N1 1_555 1_555
C6 N2 1_555 1_555
C7 C6 1_555 1_555
H4 C7 1_555 1_555
C8 C7 1_555 1_555
H5 C8 1_555 1_555
C9 C8 1_555 1_555
H6 C9 1_555 1_555
C10 N2 1_555 1_555
C11 C1 1_555 1_555
C12 O3 1_555 1_555
Na1_2 O2A 1_555 1_555
Na1F O4 1_555 1_555
Na1F_2 O4A 1_555 1_555
O1A Tb1 1_555 1_555
O2A C11A 1_555 1_555
O2A_2 Na1 1_555 1_555
O3A Tb1 1_555 1_555
O4A C12A 1_555 1_555
O4F Na1 1_555 1_555
O4G Na1 1_555 1_555
N1A Tb1 1_555 1_555
N2A Tb1 1_555 1_555
C1A N1A 1_555 1_555
C2A C1A 1_555 1_555
H1A C2A 1_555 1_555
C3A C2A 1_555 1_555
H2A C3A 1_555 1_555
C4A C3A 1_555 1_555
H3A C4A 1_555 1_555
C5A N1A 1_555 1_555
C6A N2A 1_555 1_555
C7A C6A 1_555 1_555
H4A C7A 1_555 1_555
C8A C7A 1_555 1_555
H5A C8A 1_555 1_555
C9A C8A 1_555 1_555
H6A C9A 1_555 1_555
C10A N2A 1_555 1_555
C11A O1A 1_555 1_555
C12A O3A 1_555 1_555
C4 C5 1_555 1_555
C5 C6 1_555 1_555
C9 C10 1_555 1_555
C10 C12 1_555 1_555
C1A C11A 1_555 1_555
C4A C5A 1_555 1_555
C5A C6A 1_555 1_555
C9A C10A 1_555 1_555
C10A C12A 1_555 1_555

#END
