
#######################################################################
#
#                 Cambridge Crystallographic Data Centre
#                                CCDC 
#
#######################################################################
#
# If this CIF has been generated from an entry in the Cambridge 
# Structural Database, then it will include bibliographic, chemical, 
# crystal, experimental, refinement or atomic coordinate data resulting 
# from the CCDC's data processing and validation procedures.
#
#######################################################################

data_LASROO
_symmetry_cell_setting           monoclinic
_symmetry_space_group_name_H-M   'P 21/c'
_symmetry_Int_Tables_number      14
_space_group_name_Hall           '-P 2ybc'
loop_
_symmetry_equiv_pos_site_id
_symmetry_equiv_pos_as_xyz
1 x,y,z
2 -x,1/2+y,1/2-z
3 -x,-y,-z
4 x,1/2-y,1/2+z
_cell_length_a                   8.7617(8)
_cell_length_b                   21.2393(18)
_cell_length_c                   15.8856(11)
_cell_angle_alpha                90
_cell_angle_beta                 121.147(4)
_cell_angle_gamma                90
_cell_volume                     2530.03
loop_
_atom_site_label
_atom_site_type_symbol
_atom_site_fract_x
_atom_site_fract_y
_atom_site_fract_z
Eu1 Eu 0.51587(3) 0.938348(10) 0.251914(15)
K1 K 0.95847(13) 1.18179(5) 0.21256(9)
O1 O 0.7059(4) 1.01772(14) 0.2549(2)
O2 O 0.8808(4) 1.10193(15) 0.3216(2)
O3 O 0.3089(4) 0.85465(14) 0.2093(2)
O4 O 0.2219(5) 0.76825(17) 0.2551(3)
O5 O 0.7274(4) 0.85822(15) 0.2903(2)
O6 O 0.8233(5) 0.77478(18) 0.2449(3)
O7 O 0.3193(4) 1.01373(15) 0.2511(2)
O8 O 0.1428(4) 1.09748(16) 0.1870(2)
O9 O 0.8279(5) 1.20218(17) -0.0129(3)
H1 H 0.7841 1.1840 -0.0683
N1 N 0.7095(4) 0.99097(17) 0.4175(3)
N2 N 0.5030(4) 0.89385(17) 0.3950(3)
N3 N 0.5179(4) 0.89469(17) 0.1043(3)
N4 N 0.3082(4) 0.98910(17) 0.0858(3)
C1 C 0.8049(5) 1.0419(2) 0.4207(3)
C2 C 0.9012(5) 1.0776(2) 0.5046(3)
H2 H 0.9680 1.1130 0.5054
C3 C 0.8981(5) 1.0604(2) 0.5884(3)
H3 H 0.9628 1.0844 0.6470
C4 C 0.8011(5) 1.0085(2) 0.5863(3)
H4 H 0.7982 0.9963 0.6430
C5 C 0.7072(5) 0.9743(2) 0.4985(3)
C6 C 0.5993(5) 0.9177(2) 0.4869(3)
C7 C 0.5919(6) 0.8900(2) 0.5648(3)
H5 H 0.6595 0.9069 0.6293
C8 C 0.4854(6) 0.8380(2) 0.5466(3)
H6 H 0.4790 0.8187 0.5986
C9 C 0.3874(6) 0.8140(2) 0.4518(3)
H7 H 0.3122 0.7784 0.4380
C10 C 0.4009(5) 0.8425(2) 0.3781(3)
C11 C 0.7992(5) 1.0560(2) 0.3258(3)
C12 C 0.3010(6) 0.8186(2) 0.2729(4)
C13 C 0.6253(5) 0.8453(2) 0.1210(3)
C14 C 0.6369(6) 0.8162(2) 0.0466(4)
H8 H 0.7126 0.7809 0.0600
C15 C 0.5348(6) 0.8400(2) -0.0487(3)
H9 H 0.5403 0.8210 -0.1012
C16 C 0.4251(6) 0.8917(2) -0.0664(3)
H10 H 0.3568 0.9092 -0.1305
C17 C 0.4174(5) 0.9175(2) 0.0125(3)
C18 C 0.3029(5) 0.9720(2) 0.0026(3)
C19 C 0.1957(5) 1.0045(2) -0.0854(3)
H11 H 0.1921 0.9919 -0.1438
C20 C 0.0944(5) 1.0553(2) -0.0868(3)
H12 H 0.0215 1.0780 -0.1460
C21 C 0.1015(5) 1.0724(2) -0.0003(3)
H13 H 0.0336 1.1069 0.0009
C22 C 0.2107(5) 1.0377(2) 0.0842(3)
C23 C 0.7346(6) 0.8228(2) 0.2274(4)
C24 C 0.2239(5) 1.0524(2) 0.1818(3)
C25 C 0.9653(8) 1.2452(3) -0.0024(4)
H14 H 0.9232 1.2677 -0.0646
H15 H 1.0734 1.2215 0.0144
H16 H 0.9922 1.2756 0.0499
K1A K 0.04153(13) 0.68179(5) 0.28744(9)
K1A_2 K 1.04153(13) 0.68179(5) 0.28744(9)
K1_2 K -0.04153(13) 1.18179(5) 0.21256(9)
O4A O 0.7781(5) 1.26825(17) 0.2449(3)
O6A O 1.1767(5) 1.27478(18) 0.2551(3)
O8_2 O 1.1428(4) 1.09748(16) 0.1870(2)
loop_
_geom_bond_atom_site_label_1
_geom_bond_atom_site_label_2
_geom_bond_site_symmetry_1
_geom_bond_site_symmetry_2
Eu1 O1 1_555 1_555
K1 O2 1_555 1_555
O1 C11 1_555 1_555
O2 C11 1_555 1_555
O3 Eu1 1_555 1_555
O4 C12 1_555 1_555
O5 Eu1 1_555 1_555
O6 C23 1_555 1_555
O7 Eu1 1_555 1_555
O8 C24 1_555 1_555
O9 K1 1_555 1_555
H1 O9 1_555 1_555
N1 Eu1 1_555 1_555
N2 Eu1 1_555 1_555
N3 Eu1 1_555 1_555
N4 Eu1 1_555 1_555
C1 N1 1_555 1_555
C2 C1 1_555 1_555
H2 C2 1_555 1_555
C3 C2 1_555 1_555
H3 C3 1_555 1_555
C4 C3 1_555 1_555
H4 C4 1_555 1_555
C5 N1 1_555 1_555
C6 N2 1_555 1_555
C7 C6 1_555 1_555
H5 C7 1_555 1_555
C8 C7 1_555 1_555
H6 C8 1_555 1_555
C9 C8 1_555 1_555
H7 C9 1_555 1_555
C10 N2 1_555 1_555
C11 C1 1_555 1_555
C12 O3 1_555 1_555
C13 N3 1_555 1_555
C14 C13 1_555 1_555
H8 C14 1_555 1_555
C15 C14 1_555 1_555
H9 C15 1_555 1_555
C16 C15 1_555 1_555
H10 C16 1_555 1_555
C17 N3 1_555 1_555
C18 N4 1_555 1_555
C19 C18 1_555 1_555
H11 C19 1_555 1_555
C20 C19 1_555 1_555
H12 C20 1_555 1_555
C21 C20 1_555 1_555
H13 C21 1_555 1_555
C22 N4 1_555 1_555
C23 O5 1_555 1_555
C24 O7 1_555 1_555
C25 O9 1_555 1_555
H14 C25 1_555 1_555
H15 C25 1_555 1_555
H16 C25 1_555 1_555
K1A O4 1_555 1_555
K1A_2 O6 1_555 1_555
K1_2 O8 1_555 1_555
O4A K1 1_555 1_555
O6A K1 1_555 1_555
O8_2 K1 1_555 1_555
C4 C5 1_555 1_555
C5 C6 1_555 1_555
C9 C10 1_555 1_555
C10 C12 1_555 1_555
C13 C23 1_555 1_555
C16 C17 1_555 1_555
C17 C18 1_555 1_555
C21 C22 1_555 1_555
C22 C24 1_555 1_555

#END
