
#######################################################################
#
#                 Cambridge Crystallographic Data Centre
#                                CCDC 
#
#######################################################################
#
# If this CIF has been generated from an entry in the Cambridge 
# Structural Database, then it will include bibliographic, chemical, 
# crystal, experimental, refinement or atomic coordinate data resulting 
# from the CCDC's data processing and validation procedures.
#
#######################################################################

data_LASREE
_symmetry_cell_setting           orthorhombic
_symmetry_space_group_name_H-M   'P c c n'
_symmetry_Int_Tables_number      56
_space_group_name_Hall           '-P 2ab 2ac'
loop_
_symmetry_equiv_pos_site_id
_symmetry_equiv_pos_as_xyz
1 x,y,z
2 1/2-x,1/2-y,z
3 -x,1/2+y,1/2-z
4 1/2+x,-y,1/2-z
5 -x,-y,-z
6 1/2+x,1/2+y,-z
7 x,1/2-y,1/2+z
8 1/2-x,y,1/2+z
_cell_length_a                   8.8209(3)
_cell_length_b                   13.7896(5)
_cell_length_c                   18.6855(6)
_cell_angle_alpha                90
_cell_angle_beta                 90
_cell_angle_gamma                90
_cell_volume                     2272.84
loop_
_atom_site_label
_atom_site_type_symbol
_atom_site_fract_x
_atom_site_fract_y
_atom_site_fract_z
Eu1 Eu 0.2500 0.2500 0.057042(6)
Na1 Na 0.7500 0.2500 0.32244(8)
O1 O 0.41364(14) 0.29706(10) 0.14986(7)
O2 O 0.5732(2) 0.26456(12) 0.23823(11)
O3 O 0.05514(19) 0.24121(9) -0.03031(10)
O4 O -0.07895(15) 0.16164(11) -0.11281(7)
N1 N 0.39828(14) 0.11210(10) 0.11141(7)
N2 N 0.21180(17) 0.08335(11) 0.00342(8)
C1 C 0.47910(19) 0.13278(13) 0.17041(9)
C2 C 0.5492(2) 0.06058(15) 0.21031(11)
H1 H 0.6023 0.0759 0.2518
C3 C 0.5386(2) -0.03431(16) 0.18727(10)
H2 H 0.5846 -0.0837 0.2133
C4 C 0.4593(2) -0.05554(14) 0.12530(10)
H3 H 0.4540 -0.1188 0.1083
C5 C 0.38761(17) 0.01957(12) 0.08884(9)
C6 C 0.2930(2) 0.00538(12) 0.02352(9)
C7 C 0.2850(2) -0.08184(14) -0.01388(11)
H4 H 0.3423 -0.1351 0.0004
C8 C 0.1900(2) -0.08769(15) -0.07276(10)
H5 H 0.1846 -0.1448 -0.0991
C9 C 0.10304(19) -0.00828(14) -0.09223(9)
H6 H 0.0371 -0.0117 -0.1310
C10 C 0.11653(18) 0.07616(14) -0.05281(8)
C11 C 0.4899(4) 0.23983(14) 0.18884(10)
C12 C 0.0225(2) 0.16659(14) -0.06786(9)
Na1F Na -0.2500 0.2500 -0.17756(8)
Na1_2 Na -0.2500 0.2500 0.32244(8)
Na1F_2 Na 0.7500 0.2500 -0.17756(8)
O1A O 0.08636(14) 0.20294(10) 0.14986(7)
O2A O -0.0732(2) 0.23544(12) 0.23823(11)
O2A_2 O 0.9268(2) 0.23544(12) 0.23823(11)
O3A O 0.44486(19) 0.25879(9) -0.03031(10)
O4A O 0.57895(15) 0.33836(11) -0.11281(7)
O4F O 0.92105(15) 0.33836(11) 0.38719(7)
O4G O 0.57895(15) 0.16164(11) 0.38719(7)
N1A N 0.10172(14) 0.38790(10) 0.11141(7)
N2A N 0.28820(17) 0.41665(11) 0.00342(8)
C1A C 0.02090(19) 0.36722(13) 0.17041(9)
C2A C -0.0492(2) 0.43942(15) 0.21031(11)
H1A H -0.1023 0.4241 0.2518
C3A C -0.0386(2) 0.53431(16) 0.18727(10)
H2A H -0.0846 0.5837 0.2133
C4A C 0.0407(2) 0.55554(14) 0.12530(10)
H3A H 0.0460 0.6188 0.1083
C5A C 0.11239(17) 0.48043(12) 0.08884(9)
C6A C 0.2070(2) 0.49462(12) 0.02352(9)
C7A C 0.2150(2) 0.58184(14) -0.01388(11)
H4A H 0.1577 0.6351 0.0004
C8A C 0.3100(2) 0.58769(15) -0.07276(10)
H5A H 0.3154 0.6448 -0.0991
C9A C 0.39696(19) 0.50828(14) -0.09223(9)
H6A H 0.4629 0.5117 -0.1310
C10A C 0.38347(18) 0.42384(14) -0.05281(8)
C11A C 0.0101(4) 0.26017(14) 0.18884(10)
C12A C 0.4775(2) 0.33341(14) -0.06786(9)
loop_
_geom_bond_atom_site_label_1
_geom_bond_atom_site_label_2
_geom_bond_site_symmetry_1
_geom_bond_site_symmetry_2
Eu1 O1 1_555 1_555
Na1 O2 1_555 1_555
O1 C11 1_555 1_555
O2 C11 1_555 1_555
O3 Eu1 1_555 1_555
O4 C12 1_555 1_555
N1 Eu1 1_555 1_555
N2 Eu1 1_555 1_555
C1 N1 1_555 1_555
C2 C1 1_555 1_555
H1 C2 1_555 1_555
C3 C2 1_555 1_555
H2 C3 1_555 1_555
C4 C3 1_555 1_555
H3 C4 1_555 1_555
C5 N1 1_555 1_555
C6 N2 1_555 1_555
C7 C6 1_555 1_555
H4 C7 1_555 1_555
C8 C7 1_555 1_555
H5 C8 1_555 1_555
C9 C8 1_555 1_555
H6 C9 1_555 1_555
C10 N2 1_555 1_555
C11 C1 1_555 1_555
C12 O3 1_555 1_555
Na1F O4 1_555 1_555
Na1_2 O2A 1_555 1_555
Na1F_2 O4A 1_555 1_555
O1A Eu1 1_555 1_555
O2A C11A 1_555 1_555
O2A_2 Na1 1_555 1_555
O3A Eu1 1_555 1_555
O4A C12A 1_555 1_555
O4F Na1 1_555 1_555
O4G Na1 1_555 1_555
N1A Eu1 1_555 1_555
N2A Eu1 1_555 1_555
C1A N1A 1_555 1_555
C2A C1A 1_555 1_555
H1A C2A 1_555 1_555
C3A C2A 1_555 1_555
H2A C3A 1_555 1_555
C4A C3A 1_555 1_555
H3A C4A 1_555 1_555
C5A N1A 1_555 1_555
C6A N2A 1_555 1_555
C7A C6A 1_555 1_555
H4A C7A 1_555 1_555
C8A C7A 1_555 1_555
H5A C8A 1_555 1_555
C9A C8A 1_555 1_555
H6A C9A 1_555 1_555
C10A N2A 1_555 1_555
C11A O1A 1_555 1_555
C12A O3A 1_555 1_555
C4 C5 1_555 1_555
C5 C6 1_555 1_555
C9 C10 1_555 1_555
C10 C12 1_555 1_555
C1A C11A 1_555 1_555
C4A C5A 1_555 1_555
C5A C6A 1_555 1_555
C9A C10A 1_555 1_555
C10A C12A 1_555 1_555

#END
