
#######################################################################
#
#                 Cambridge Crystallographic Data Centre
#                                CCDC 
#
#######################################################################
#
# If this CIF has been generated from an entry in the Cambridge 
# Structural Database, then it will include bibliographic, chemical, 
# crystal, experimental, refinement or atomic coordinate data resulting 
# from the CCDC's data processing and validation procedures.
#
#######################################################################

data_LASSAB
_symmetry_cell_setting           monoclinic
_symmetry_space_group_name_H-M   'P 21/n'
_symmetry_Int_Tables_number      14
_space_group_name_Hall           '-P 2yn'
loop_
_symmetry_equiv_pos_site_id
_symmetry_equiv_pos_as_xyz
1 x,y,z
2 1/2-x,1/2+y,1/2-z
3 -x,-y,-z
4 1/2+x,1/2-y,1/2+z
_cell_length_a                   14.0366(5)
_cell_length_b                   8.0126(3)
_cell_length_c                   17.4970(7)
_cell_angle_alpha                90
_cell_angle_beta                 98.200(4)
_cell_angle_gamma                90
_cell_volume                     1947.76
loop_
_atom_site_label
_atom_site_type_symbol
_atom_site_fract_x
_atom_site_fract_y
_atom_site_fract_z
C1 C 0.4532(4) -0.0791(7) 0.1606(3)
H1 H 0.5067 -0.0118 0.1750
C2 C 0.4129(4) -0.1560(6) 0.2173(3)
H2 H 0.4384 -0.1399 0.2688
C3 C 0.3331(3) -0.2590(6) 0.1981(3)
C4 C 0.2971(4) -0.2704(7) 0.1195(3)
H3 H 0.2428 -0.3347 0.1034
C5 C 0.3415(4) -0.1875(7) 0.0668(3)
H4 H 0.3157 -0.1959 0.0150
C6 C 0.2863(4) -0.3536(7) 0.2572(3)
H5 H 0.2329 -0.2882 0.2705
H6 H 0.2603 -0.4570 0.2342
C7 C 0.3586(4) -0.2765(6) 0.3888(3)
C8 C 0.4221(4) -0.3240(6) 0.4603(3)
C9 C 0.4346(4) -0.2141(7) 0.5223(3)
H7 H 0.4047 -0.1104 0.5180
C10 C 0.4618(3) -0.5890(6) 0.4022(3)
C11 C 0.4049(4) -0.5391(7) 0.3285(3)
C12 C 0.4702(4) -0.4774(6) 0.4652(3)
C13 C 0.5314(4) 0.3528(9) 0.0970(4)
C14 C 0.5484(6) 0.5027(8) 0.1436(6)
C15 C 0.6968(5) -0.1248(8) 0.1116(4)
C16 C 0.7764(6) -0.1684(12) 0.1671(6)
C17 C 0.4917(4) -0.2586(7) 0.5906(3)
H8 H 0.4987 -0.1849 0.6321
O1 O 0.3137(3) -0.1470(5) 0.3812(2)
O2 O 0.4029(3) -0.6216(5) 0.2696(2)
N1 N 0.4209(3) -0.0939(5) 0.0856(2)
N2 N 0.3511(3) -0.3926(5) 0.3279(2)
N3 N 0.5181(4) 0.2357(6) 0.0613(3)
N4 N 0.6322(4) -0.0897(7) 0.0672(3)
Zn1 Zn 0.5000 0.0000 0.0000
H9 H 0.540(5) 0.606(6) 0.117(4)
H10 H 0.521(6) 0.507(9) 0.191(3)
H11 H 0.617(2) 0.482(10) 0.158(5)
H12 H 0.834(3) -0.101(7) 0.179(5)
H13 H 0.798(5) -0.279(5) 0.153(5)
H14 H 0.750(7) -0.183(11) 0.215(3)
C1B C 0.5468(4) -0.9209(7) 0.8394(3)
H1B H 0.4933 -0.9882 0.8250
C2B C 0.5871(4) -0.8440(6) 0.7827(3)
H2B H 0.5616 -0.8601 0.7312
C3B C 0.6669(3) -0.7410(6) 0.8019(3)
C4B C 0.7029(4) -0.7296(7) 0.8805(3)
H3B H 0.7572 -0.6653 0.8966
C5B C 0.6585(4) -0.8125(7) 0.9332(3)
H4B H 0.6843 -0.8041 0.9850
C6B C 0.7137(4) -0.6464(7) 0.7428(3)
H5B H 0.7671 -0.7118 0.7295
H6B H 0.7397 -0.5430 0.7658
C7B C 0.6414(4) -0.7235(6) 0.6112(3)
C8B C 0.5779(4) -0.6760(6) 0.5397(3)
C9B C 0.5654(4) -0.7859(7) 0.4777(3)
H7B H 0.5953 -0.8896 0.4820
C10B C 0.5382(3) -0.4110(6) 0.5978(3)
C11B C 0.5951(4) -0.4609(7) 0.6715(3)
C12B C 0.5298(4) -0.5226(6) 0.5348(3)
C13B C 0.4686(4) -0.3528(9) -0.0970(4)
C14B C 0.4516(6) -0.5027(8) -0.1436(6)
C15B C 0.3032(5) 0.1248(8) -0.1116(4)
C16B C 0.2236(6) 0.1684(12) -0.1671(6)
C17B C 0.5083(4) -0.7414(7) 0.4094(3)
H8B H 0.5013 -0.8151 0.3679
O1B O 0.6863(3) -0.8530(5) 0.6188(2)
O2B O 0.5971(3) -0.3784(5) 0.7304(2)
N1B N 0.5791(3) -0.9061(5) 0.9144(2)
N1B_2 N 0.5791(3) 0.0939(5) -0.0856(2)
N2B N 0.6489(3) -0.6074(5) 0.6721(2)
N3B N 0.4819(4) -0.2357(6) -0.0613(3)
N4B N 0.3678(4) 0.0897(7) -0.0672(3)
Zn1_2 Zn 0.5000 -1.0000 1.0000
H9B H 0.460(5) -0.606(6) -0.117(4)
H10B H 0.479(6) -0.507(9) -0.191(3)
H11B H 0.383(2) -0.482(10) -0.158(5)
H12B H 0.166(3) 0.101(7) -0.179(5)
H13B H 0.202(5) 0.279(5) -0.153(5)
H14B H 0.250(7) 0.183(11) -0.215(3)
O3 O 0.8497(7) 0.2975(16) 0.0569(5)
O4 O 0.8989(6) 0.1738(8) 0.1755(6)
O5 O 0.8828(7) 0.4479(9) 0.1720(7)
O6 O 0.7509(5) 0.2913(17) 0.1424(6)
Cl1 Cl 0.84512(11) 0.30340(19) 0.13717(10)
loop_
_geom_bond_atom_site_label_1
_geom_bond_atom_site_label_2
_geom_bond_site_symmetry_1
_geom_bond_site_symmetry_2
C1 H1 1_555 1_555
C2 C1 1_555 1_555
H2 C2 1_555 1_555
C3 C2 1_555 1_555
C4 C3 1_555 1_555
H3 C4 1_555 1_555
C5 C4 1_555 1_555
H4 C5 1_555 1_555
C6 C3 1_555 1_555
H5 C6 1_555 1_555
H6 C6 1_555 1_555
C7 C8 1_555 1_555
C8 C9 1_555 1_555
C9 H7 1_555 1_555
C10 C11 1_555 1_555
C11 O2 1_555 1_555
C12 C8 1_555 1_555
C13 C14 1_555 1_555
C14 H9 1_555 1_555
C15 C16 1_555 1_555
C16 H12 1_555 1_555
C17 C9 1_555 1_555
H8 C17 1_555 1_555
O1 C7 1_555 1_555
O3 Cl1 1_555 1_555
O4 Cl1 1_555 1_555
O5 Cl1 1_555 1_555
O6 Cl1 1_555 1_555
N1 C1 1_555 1_555
N2 C6 1_555 1_555
N3 C13 1_555 1_555
N4 C15 1_555 1_555
Zn1 N1 1_555 1_555
H10 C14 1_555 1_555
H11 C14 1_555 1_555
H13 C16 1_555 1_555
H14 C16 1_555 1_555
C1B H1B 1_555 1_555
C2B C1B 1_555 1_555
H2B C2B 1_555 1_555
C3B C2B 1_555 1_555
C4B C3B 1_555 1_555
H3B C4B 1_555 1_555
C5B C4B 1_555 1_555
H4B C5B 1_555 1_555
C6B C3B 1_555 1_555
H5B C6B 1_555 1_555
H6B C6B 1_555 1_555
C7B C8B 1_555 1_555
C8B C9B 1_555 1_555
C9B H7B 1_555 1_555
C10B C17 1_555 1_555
C11B C10B 1_555 1_555
C12B C12 1_555 1_555
C13B C14B 1_555 1_555
C14B H9B 1_555 1_555
C15B C16B 1_555 1_555
C16B H12B 1_555 1_555
C17B C10 1_555 1_555
H8B C17B 1_555 1_555
O1B C7B 1_555 1_555
O2B C11B 1_555 1_555
N1B C1B 1_555 1_555
N1B_2 Zn1 1_555 1_555
N2B C6B 1_555 1_555
N3B Zn1 1_555 1_555
N4B Zn1 1_555 1_555
Zn1_2 N1B 1_555 1_555
H10B C14B 1_555 1_555
H11B C14B 1_555 1_555
H13B C16B 1_555 1_555
H14B C16B 1_555 1_555
C5 N1 1_555 1_555
C7 N2 1_555 1_555
C10 C12 1_555 1_555
C11 N2 1_555 1_555
N3 Zn1 1_555 1_555
N4 Zn1 1_555 1_555
C5B N1B 1_555 1_555
C7B N2B 1_555 1_555
C8B C12B 1_555 1_555
C9B C17B 1_555 1_555
C10B C12B 1_555 1_555
C11B N2B 1_555 1_555
C13B N3B 1_555 1_555
C15B N4B 1_555 1_555

#END
