
#######################################################################
#
#                 Cambridge Crystallographic Data Centre
#                                CCDC 
#
#######################################################################
#
# If this CIF has been generated from an entry in the Cambridge 
# Structural Database, then it will include bibliographic, chemical, 
# crystal, experimental, refinement or atomic coordinate data resulting 
# from the CCDC's data processing and validation procedures.
#
#######################################################################

data_LASSUV
_symmetry_cell_setting           orthorhombic
_symmetry_space_group_name_H-M   'P b c a'
_symmetry_Int_Tables_number      61
_space_group_name_Hall           '-P 2ac 2ab'
loop_
_symmetry_equiv_pos_site_id
_symmetry_equiv_pos_as_xyz
1 x,y,z
2 1/2-x,-y,1/2+z
3 -x,1/2+y,1/2-z
4 1/2+x,1/2-y,-z
5 -x,-y,-z
6 1/2+x,y,1/2-z
7 x,1/2-y,1/2+z
8 1/2-x,1/2+y,z
_cell_length_a                   11.3702(14)
_cell_length_b                   17.100(2)
_cell_length_c                   17.374(2)
_cell_angle_alpha                90
_cell_angle_beta                 90
_cell_angle_gamma                90
_cell_volume                     3378.03
loop_
_atom_site_label
_atom_site_type_symbol
_atom_site_fract_x
_atom_site_fract_y
_atom_site_fract_z
C1 C 0.6029(3) 0.1324(2) 0.3434(2)
C2 C 0.5629(4) 0.1737(2) 0.2807(2)
H1 H 0.4927 0.2015 0.2831
C3 C 0.6295(4) 0.1731(2) 0.2142(2)
H2 H 0.6043 0.2000 0.1707
C4 C 0.7325(4) 0.1325(3) 0.2130(2)
H3 H 0.7785 0.1317 0.1687
C5 C 0.7679(4) 0.0925(2) 0.2778(2)
H4 H 0.8383 0.0649 0.2766
C6 C 0.5385(3) 0.13098(19) 0.4170(2)
C7 C 0.5402(3) 0.0667(2) 0.6059(2)
C8 C 0.4514(3) 0.0921(2) 0.6646(2)
C9 C 0.4578(4) 0.0718(3) 0.7402(2)
H5 H 0.5191 0.0403 0.7574
C10 C 0.3740(4) 0.0977(3) 0.7911(3)
H6 H 0.3776 0.0836 0.8427
C11 C 0.2853(4) 0.1444(3) 0.7645(3)
H7 H 0.2284 0.1635 0.7981
C12 C 0.2813(4) 0.1629(2) 0.6877(3)
H8 H 0.2198 0.1936 0.6695
Cu1 Cu 0.73860(4) 0.03746(2) 0.44099(3)
Cu2 Cu 0.38654(4) 0.16688(3) 0.52814(3)
N1 N 0.7042(3) 0.09232(17) 0.34258(17)
N2 N 0.5884(3) 0.09041(17) 0.47330(16)
N3 N 0.5196(3) 0.09844(17) 0.53940(16)
N4 N 0.3629(3) 0.13806(17) 0.63835(18)
O1 O 1.0370(2) 0.08268(14) 0.43524(15)
O2 O 1.0514(3) 0.15226(16) 0.55416(17)
O3 O 0.9892(3) 0.21939(14) 0.44091(17)
O4 O 0.2509(2) 0.23462(16) 0.5106(2)
H9 H 0.2091 0.2363 0.5512
H10 H 0.2093 0.2157 0.4745
O5 O 0.8755(2) -0.01399(14) 0.39161(14)
H11 H 0.9275 -0.0227 0.4257
H12 H 0.8538 -0.0571 0.3717
O6 O 0.7422(2) -0.03971(14) 0.52241(15)
H13 H 0.8028 -0.0683 0.5173
H14 H 0.7446 -0.0167 0.5658
O7 O 0.8607(2) 0.12521(15) 0.49927(16)
O8 O 0.4428(2) 0.16882(14) 0.42211(15)
O9 O 0.6201(2) 0.02059(17) 0.62692(15)
S1 S 0.98399(8) 0.14571(5) 0.48239(5)
Cu2C Cu 0.88654(4) 0.33312(3) 0.47186(3)
O3C O 0.4892(3) 0.28061(14) 0.55909(17)
loop_
_geom_bond_atom_site_label_1
_geom_bond_atom_site_label_2
_geom_bond_site_symmetry_1
_geom_bond_site_symmetry_2
C1 C2 1_555 1_555
C2 H1 1_555 1_555
C3 C2 1_555 1_555
H2 C3 1_555 1_555
C4 C3 1_555 1_555
H3 C4 1_555 1_555
C5 C4 1_555 1_555
H4 C5 1_555 1_555
C6 C1 1_555 1_555
C7 C8 1_555 1_555
C8 C9 1_555 1_555
C9 H5 1_555 1_555
C10 C9 1_555 1_555
H6 C10 1_555 1_555
C11 C10 1_555 1_555
H7 C11 1_555 1_555
C12 C11 1_555 1_555
H8 C12 1_555 1_555
Cu1 N1 1_555 1_555
Cu2 N3 1_555 1_555
N1 C1 1_555 1_555
N2 C6 1_555 1_555
N3 C7 1_555 1_555
N4 C8 1_555 1_555
O1 S1 1_555 1_555
O2 S1 1_555 1_555
O3 S1 1_555 1_555
O4 Cu2 1_555 1_555
H9 O4 1_555 1_555
H10 O4 1_555 1_555
O5 Cu1 1_555 1_555
H11 O5 1_555 1_555
H12 O5 1_555 1_555
O6 Cu1 1_555 1_555
H13 O6 1_555 1_555
H14 O6 1_555 1_555
O7 Cu1 1_555 1_555
O8 C6 1_555 1_555
O9 C7 1_555 1_555
S1 O7 1_555 1_555
Cu2C O3 1_555 1_555
O3C Cu2 1_555 1_555
C5 N1 1_555 1_555
C12 N4 1_555 1_555
Cu1 N2 1_555 1_555
Cu2 N4 1_555 1_555
Cu2 O8 1_555 1_555
N2 N3 1_555 1_555

#END
