
#######################################################################
#
#                 Cambridge Crystallographic Data Centre
#                                CCDC 
#
#######################################################################
#
# If this CIF has been generated from an entry in the Cambridge 
# Structural Database, then it will include bibliographic, chemical, 
# crystal, experimental, refinement or atomic coordinate data resulting 
# from the CCDC's data processing and validation procedures.
#
#######################################################################

data_LASSEE
_symmetry_cell_setting           monoclinic
_symmetry_space_group_name_H-M   'P 21/c'
_symmetry_Int_Tables_number      14
_space_group_name_Hall           '-P 2ybc'
loop_
_symmetry_equiv_pos_site_id
_symmetry_equiv_pos_as_xyz
1 x,y,z
2 -x,1/2+y,1/2-z
3 -x,-y,-z
4 x,1/2-y,1/2+z
_cell_length_a                   10.4517(8)
_cell_length_b                   10.1014(7)
_cell_length_c                   13.7713(10)
_cell_angle_alpha                90
_cell_angle_beta                 92.7230(10)
_cell_angle_gamma                90
_cell_volume                     1452.29
loop_
_atom_site_label
_atom_site_type_symbol
_atom_site_fract_x
_atom_site_fract_y
_atom_site_fract_z
Zn1 Zn -0.16914(3) 0.11449(3) -0.30814(2)
N1 N -0.3527(2) 0.1889(2) -0.35809(16)
C1 C -0.3797(3) 0.3156(3) -0.3743(2)
H1 H -0.3139 0.3775 -0.3683
C2 C -0.5032(3) 0.3593(3) -0.4002(2)
H2 H -0.5189 0.4490 -0.4103
C3 C -0.6007(3) 0.2708(3) -0.4105(2)
H3 H -0.6834 0.2995 -0.4271
C4 C -0.5759(3) 0.1362(3) -0.3960(2)
C5 C -0.6725(3) 0.0356(3) -0.4070(2)
H4 H -0.7562 0.0597 -0.4248
C6 C -0.6443(3) -0.0929(3) -0.3921(2)
H5 H -0.7088 -0.1562 -0.3984
C7 C -0.5154(3) -0.1333(3) -0.36644(19)
C8 C -0.4796(3) -0.2664(3) -0.3539(2)
H6 H -0.5411 -0.3330 -0.3584
C9 C -0.3541(3) -0.2971(3) -0.3351(2)
H7 H -0.3289 -0.3849 -0.3271
C10 C -0.2637(3) -0.1955(3) -0.3278(2)
H8 H -0.1781 -0.2181 -0.3157
C11 C -0.4181(2) -0.0378(3) -0.35676(18)
C12 C -0.4490(3) 0.0999(3) -0.36997(18)
N2 N -0.2935(2) -0.0687(2) -0.33718(16)
N3 N 0.0337(2) 0.4814(2) -0.24764(15)
C13 C 0.1600(2) 0.5167(3) -0.39185(19)
C14 C 0.0605(2) 0.4449(2) -0.34063(18)
C15 C -0.0096(2) 0.3327(2) -0.36370(18)
N4 N -0.0796(2) 0.2989(2) -0.28621(15)
C16 C -0.0498(3) 0.3903(2) -0.2187(2)
H9 H -0.0837 0.3908 -0.1575
C17 C -0.0182(3) 0.2489(3) -0.4510(2)
O1 O 0.22413(18) 0.60232(17) -0.34588(14)
O2 O 0.04912(19) 0.2838(2) -0.52374(13)
O3 O 0.17720(18) 0.48391(18) -0.48051(13)
O4 O -0.08590(19) 0.1482(2) -0.45154(14)
Zn1A Zn 0.16914(3) 0.61449(3) -0.19186(2)
N3A N -0.0337(2) -0.0186(2) -0.25236(15)
O1A O -0.22413(18) 0.10232(17) -0.15412(14)
loop_
_geom_bond_atom_site_label_1
_geom_bond_atom_site_label_2
_geom_bond_site_symmetry_1
_geom_bond_site_symmetry_2
Zn1 N1 1_555 1_555
N1 C1 1_555 1_555
C1 H1 1_555 1_555
C2 C1 1_555 1_555
H2 C2 1_555 1_555
C3 C2 1_555 1_555
H3 C3 1_555 1_555
C4 C3 1_555 1_555
C5 C4 1_555 1_555
H4 C5 1_555 1_555
C6 C5 1_555 1_555
H5 C6 1_555 1_555
C7 C6 1_555 1_555
C8 C7 1_555 1_555
H6 C8 1_555 1_555
C9 C8 1_555 1_555
H7 C9 1_555 1_555
C10 C9 1_555 1_555
H8 C10 1_555 1_555
C11 C7 1_555 1_555
C12 N1 1_555 1_555
N2 Zn1 1_555 1_555
N3 C14 1_555 1_555
C13 C14 1_555 1_555
C14 C15 1_555 1_555
C15 N4 1_555 1_555
N4 Zn1 1_555 1_555
C16 N3 1_555 1_555
H9 C16 1_555 1_555
C17 C15 1_555 1_555
O1 C13 1_555 1_555
O2 C17 1_555 1_555
O3 C13 1_555 1_555
O4 Zn1 1_555 1_555
Zn1A N3 1_555 1_555
N3A Zn1 1_555 1_555
O1A Zn1 1_555 1_555
C4 C12 1_555 1_555
C10 N2 1_555 1_555
C11 C12 1_555 1_555
C11 N2 1_555 1_555
N4 C16 1_555 1_555
C17 O4 1_555 1_555
O1 Zn1A 1_555 1_555

#END
