
#######################################################################
#
#                 Cambridge Crystallographic Data Centre
#                                CCDC 
#
#######################################################################
#
# If this CIF has been generated from an entry in the Cambridge 
# Structural Database, then it will include bibliographic, chemical, 
# crystal, experimental, refinement or atomic coordinate data resulting 
# from the CCDC's data processing and validation procedures.
#
#######################################################################

data_LASSEF
_symmetry_cell_setting           monoclinic
_symmetry_space_group_name_H-M   'C 2/c'
_symmetry_Int_Tables_number      15
_space_group_name_Hall           '-C 2yn'
loop_
_symmetry_equiv_pos_site_id
_symmetry_equiv_pos_as_xyz
1 x,y,z
2 -x,y,1/2-z
3 1/2+x,1/2+y,z
4 1/2-x,1/2+y,1/2-z
5 -x,-y,-z
6 x,-y,1/2+z
7 1/2-x,1/2-y,-z
8 1/2+x,1/2-y,1/2+z
_cell_length_a                   13.440(5)
_cell_length_b                   18.453(5)
_cell_length_c                   11.221(5)
_cell_angle_alpha                90
_cell_angle_beta                 107.950(5)
_cell_angle_gamma                90
_cell_volume                     2647.45
loop_
_atom_site_label
_atom_site_type_symbol
_atom_site_fract_x
_atom_site_fract_y
_atom_site_fract_z
Zn1 Zn 0.5000 0.71791(3) 0.2500
Cl1 Cl 0.47631(11) 0.77599(7) 0.07154(11)
O1 O 0.2663(3) 0.37508(16) 0.3167(3)
O2 O 0.0853(3) 0.44582(15) -0.0767(3)
N1 N 0.3796(3) 0.64442(17) 0.2219(3)
N2 N 0.1760(3) 0.41060(16) 0.1199(3)
C1 C 0.3044(4) 0.6347(2) 0.1127(4)
H1 H 0.3037 0.6649 0.0461
C2 C 0.2279(4) 0.5825(2) 0.0935(4)
H2 H 0.1769 0.5788 0.0159
C3 C 0.2262(3) 0.5356(2) 0.1884(4)
C4 C 0.3044(4) 0.5454(2) 0.3026(4)
H3 H 0.3073 0.5152 0.3701
C5 C 0.3768(4) 0.5994(2) 0.3152(4)
H4 H 0.4271 0.6053 0.3929
C6 C 0.1451(3) 0.4770(2) 0.1719(4)
H5 H 0.1356 0.4661 0.2522
H6 H 0.0788 0.4941 0.1161
C7 C 0.2388(3) 0.3613(2) 0.2058(3)
C8 C 0.2700(3) 0.29459(19) 0.1539(3)
C9 C 0.2345(3) 0.28170(18) 0.0236(3)
C10 C 0.1693(3) 0.33204(19) -0.0588(3)
C11 C 0.1382(3) 0.4000(2) -0.0097(3)
C12 C 0.3338(3) 0.2449(2) 0.2336(3)
H7 H 0.3562 0.2533 0.3196
C13 C 0.1354(3) 0.3180(2) -0.1855(3)
H8 H 0.0914 0.3508 -0.2396
Zn1F Zn 0.0000 -0.21791(3) -0.2500
Cl1A Cl 0.52369(11) 0.77599(7) 0.42846(11)
O1F O 0.2337(3) 0.12492(16) -0.3167(3)
O2F O 0.4147(3) 0.05418(15) 0.0767(3)
N1F N 0.1204(3) -0.14442(17) -0.2219(3)
N1A N 0.6204(3) 0.64442(17) 0.2781(3)
N2F N 0.3240(3) 0.08940(16) -0.1199(3)
C1F C 0.1956(4) -0.1347(2) -0.1127(4)
H1F H 0.1963 -0.1649 -0.0461
C2F C 0.2721(4) -0.0825(2) -0.0935(4)
H2F H 0.3231 -0.0788 -0.0159
C3F C 0.2738(3) -0.0356(2) -0.1884(4)
C4F C 0.1956(4) -0.0454(2) -0.3026(4)
H3F H 0.1927 -0.0152 -0.3701
C5F C 0.1232(4) -0.0994(2) -0.3152(4)
H4F H 0.0729 -0.1053 -0.3929
C6F C 0.3549(3) 0.0230(2) -0.1719(4)
H5F H 0.3644 0.0339 -0.2522
H6F H 0.4212 0.0059 -0.1161
C7F C 0.2612(3) 0.1387(2) -0.2058(3)
C8F C 0.2300(3) 0.20541(19) -0.1539(3)
C9F C 0.2655(3) 0.21830(18) -0.0236(3)
C10F C 0.3307(3) 0.16796(19) 0.0588(3)
C11F C 0.3618(3) 0.1000(2) 0.0097(3)
C12F C 0.1662(3) 0.2551(2) -0.2336(3)
H7F H 0.1438 0.2467 -0.3196
C13F C 0.3646(3) 0.1820(2) 0.1855(3)
H8F H 0.4086 0.1492 0.2396
O3 O 0.0322(7) 0.0678(4) 0.8452(9)
loop_
_geom_bond_atom_site_label_1
_geom_bond_atom_site_label_2
_geom_bond_site_symmetry_1
_geom_bond_site_symmetry_2
Zn1 Cl1 1_555 1_555
O1 C7 1_555 1_555
O2 C11 1_555 1_555
N1 Zn1 1_555 1_555
N2 C6 1_555 1_555
C1 N1 1_555 1_555
H1 C1 1_555 1_555
C2 C1 1_555 1_555
H2 C2 1_555 1_555
C3 C2 1_555 1_555
C4 C3 1_555 1_555
H3 C4 1_555 1_555
C5 N1 1_555 1_555
H4 C5 1_555 1_555
C6 C3 1_555 1_555
H5 C6 1_555 1_555
H6 C6 1_555 1_555
C7 N2 1_555 1_555
C8 C7 1_555 1_555
C9 C8 1_555 1_555
C10 C9 1_555 1_555
C11 N2 1_555 1_555
C12 C8 1_555 1_555
H7 C12 1_555 1_555
C13 C10 1_555 1_555
H8 C13 1_555 1_555
Zn1F N1F 1_555 1_555
Cl1A Zn1 1_555 1_555
O1F C7F 1_555 1_555
O2F C11F 1_555 1_555
N1F C1F 1_555 1_555
N1A Zn1 1_555 1_555
N2F C6F 1_555 1_555
C1F H1F 1_555 1_555
C2F C1F 1_555 1_555
H2F C2F 1_555 1_555
C3F C2F 1_555 1_555
C4F C3F 1_555 1_555
H3F C4F 1_555 1_555
C5F N1F 1_555 1_555
H4F C5F 1_555 1_555
C6F C3F 1_555 1_555
H5F C6F 1_555 1_555
H6F C6F 1_555 1_555
C7F N2F 1_555 1_555
C8F C7F 1_555 1_555
C9F C9 1_555 1_555
C10F C9F 1_555 1_555
C11F N2F 1_555 1_555
C12F C13 1_555 1_555
H7F C12F 1_555 1_555
C13F C12 1_555 1_555
H8F C13F 1_555 1_555
C4 C5 1_555 1_555
C10 C11 1_555 1_555
C4F C5F 1_555 1_555
C8F C9F 1_555 1_555
C8F C12F 1_555 1_555
C10F C11F 1_555 1_555
C10F C13F 1_555 1_555

#END
