
#######################################################################
#
#                 Cambridge Crystallographic Data Centre
#                                CCDC 
#
#######################################################################
#
# If this CIF has been generated from an entry in the Cambridge 
# Structural Database, then it will include bibliographic, chemical, 
# crystal, experimental, refinement or atomic coordinate data resulting 
# from the CCDC's data processing and validation procedures.
#
#######################################################################

data_LASTAB
_symmetry_cell_setting           triclinic
_symmetry_space_group_name_H-M   'P -1'
_symmetry_Int_Tables_number      2
_space_group_name_Hall           '-P 1'
loop_
_symmetry_equiv_pos_site_id
_symmetry_equiv_pos_as_xyz
1 x,y,z
2 -x,-y,-z
_cell_length_a                   7.4983(8)
_cell_length_b                   7.9730(6)
_cell_length_c                   10.8652(13)
_cell_angle_alpha                84.071(8)
_cell_angle_beta                 89.669(8)
_cell_angle_gamma                70.382(6)
_cell_volume                     608.296
loop_
_atom_site_label
_atom_site_type_symbol
_atom_site_fract_x
_atom_site_fract_y
_atom_site_fract_z
Cu1 Cu 0.02203(3) 0.98179(3) 0.133942(19)
N1 N -0.1049(2) 1.1781(2) 0.24538(14)
O1 O -0.14858(17) 1.14247(16) 0.00434(11)
O2 O 0.24375(19) 1.14481(17) 0.13740(12)
H1 H 0.3094 1.1771 0.0771
O3 O 0.19273(18) 0.81293(17) 0.26100(12)
O4 O -0.24570(19) 0.87958(17) 0.21823(13)
H2 H -0.1476 0.7951 0.2609
O5 O 0.03038(18) 0.64313(18) 0.34849(13)
C1 C 0.1714(3) 1.2831(2) 0.21529(17)
H3 H 0.0981 1.3963 0.1654
H4 H 0.2768 1.3027 0.2594
C2 C 0.0452(3) 1.2262(3) 0.30713(17)
H5 H 0.1236 1.1217 0.3631
H6 H -0.0150 1.3250 0.3581
C3 C -0.2119(3) 1.1087(2) 0.34170(17)
H7 H -0.2894 1.2093 0.3863
H8 H -0.1206 1.0212 0.4024
C4 C -0.3406(3) 1.0195(3) 0.2904(2)
H9 H -0.4003 0.9705 0.3602
H10 H -0.4430 1.1111 0.2388
C5 C -0.2334(3) 1.3344(2) 0.16387(17)
H11 H -0.2248 1.4469 0.1898
H12 H -0.3660 1.3377 0.1728
C6 C -0.1790(3) 1.3206(2) 0.02818(17)
H13 H -0.0624 1.3508 0.0134
H14 H -0.2821 1.4047 -0.0270
C7 C 0.1756(2) 0.6864(2) 0.33561(16)
C8 C 0.3461(2) 0.5860(2) 0.41860(16)
C9 C 0.3349(2) 0.4555(2) 0.51195(16)
H15 H 0.2230 0.4250 0.5196
C10 C 0.5117(2) 0.6290(2) 0.40685(16)
H16 H 0.5194 0.7167 0.3428
Cu1A Cu -0.02203(3) 1.01821(3) -0.133942(19)
Cu1A_2 Cu 0.97797(3) 0.01821(3) 0.866058(19)
N1A N 0.1049(2) 0.8219(2) -0.24538(14)
O1A O 0.14858(17) 0.85753(16) -0.00434(11)
O2A O -0.24375(19) 0.85519(17) -0.13740(12)
H1A H -0.3094 0.8229 -0.0771
O3A O 0.80727(18) 0.18707(17) 0.73900(12)
O3A_2 O -0.19273(18) 1.18707(17) -0.26100(12)
O4A O 0.24570(19) 1.12042(17) -0.21823(13)
H2A H 0.1476 1.2049 -0.2609
O5A O 0.96962(18) 0.35687(18) 0.65151(13)
C1A C -0.1714(3) 0.7169(2) -0.21529(17)
H3A H -0.0981 0.6037 -0.1654
H4A H -0.2768 0.6973 -0.2594
C2A C -0.0452(3) 0.7738(3) -0.30713(17)
H5A H -0.1236 0.8783 -0.3631
H6A H 0.0150 0.6750 -0.3581
C3A C 0.2119(3) 0.8913(2) -0.34170(17)
H7A H 0.2894 0.7907 -0.3863
H8A H 0.1206 0.9788 -0.4024
C4A C 0.3406(3) 0.9805(3) -0.2904(2)
H9A H 0.4003 1.0295 -0.3602
H10A H 0.4430 0.8889 -0.2388
C5A C 0.2334(3) 0.6656(2) -0.16387(17)
H11A H 0.2248 0.5531 -0.1898
H12A H 0.3660 0.6623 -0.1728
C6A C 0.1790(3) 0.6794(2) -0.02818(17)
H13A H 0.0624 0.6492 -0.0134
H14A H 0.2821 0.5953 0.0270
C7A C 0.8244(2) 0.3136(2) 0.66439(16)
C8A C 0.6539(2) 0.4140(2) 0.58140(16)
C9A C 0.6651(2) 0.5445(2) 0.48805(16)
H15A H 0.7770 0.5750 0.4804
C10A C 0.4883(2) 0.3710(2) 0.59315(16)
H16A H 0.4806 0.2833 0.6572
O6 O 0.45119(19) 0.22837(18) 0.95517(13)
H17 H 0.5763 0.1764 0.9547
H18 H 0.4054 0.1819 0.8941
loop_
_geom_bond_atom_site_label_1
_geom_bond_atom_site_label_2
_geom_bond_site_symmetry_1
_geom_bond_site_symmetry_2
Cu1 N1 1_555 1_555
N1 C2 1_555 1_555
O1 Cu1 1_555 1_555
O2 Cu1 1_555 1_555
H1 O2 1_555 1_555
O3 Cu1 1_555 1_555
O4 Cu1 1_555 1_555
H2 O4 1_555 1_555
O5 C7 1_555 1_555
C1 O2 1_555 1_555
H3 C1 1_555 1_555
H4 C1 1_555 1_555
C2 C1 1_555 1_555
H5 C2 1_555 1_555
H6 C2 1_555 1_555
C3 N1 1_555 1_555
H7 C3 1_555 1_555
H8 C3 1_555 1_555
C4 O4 1_555 1_555
H9 C4 1_555 1_555
H10 C4 1_555 1_555
C5 N1 1_555 1_555
H11 C5 1_555 1_555
H12 C5 1_555 1_555
C6 O1 1_555 1_555
H13 C6 1_555 1_555
H14 C6 1_555 1_555
C7 O3 1_555 1_555
C8 C7 1_555 1_555
C9 C8 1_555 1_555
H15 C9 1_555 1_555
C10 C8 1_555 1_555
H16 C10 1_555 1_555
O6 H17 1_555 1_555
H18 O6 1_555 1_555
Cu1A O1 1_555 1_555
Cu1A_2 O3A 1_555 1_555
N1A Cu1A 1_555 1_555
O1A Cu1 1_555 1_555
O2A Cu1A 1_555 1_555
H1A O2A 1_555 1_555
O3A C7A 1_555 1_555
O3A_2 Cu1A 1_555 1_555
O4A Cu1A 1_555 1_555
H2A O4A 1_555 1_555
O5A C7A 1_555 1_555
C1A O2A 1_555 1_555
H3A C1A 1_555 1_555
H4A C1A 1_555 1_555
C2A N1A 1_555 1_555
H5A C2A 1_555 1_555
H6A C2A 1_555 1_555
C3A N1A 1_555 1_555
H7A C3A 1_555 1_555
H8A C3A 1_555 1_555
C4A O4A 1_555 1_555
H9A C4A 1_555 1_555
H10A C4A 1_555 1_555
C5A N1A 1_555 1_555
H11A C5A 1_555 1_555
H12A C5A 1_555 1_555
C6A O1A 1_555 1_555
H13A C6A 1_555 1_555
H14A C6A 1_555 1_555
C7A C8A 1_555 1_555
C8A C9A 1_555 1_555
C9A C10 1_555 1_555
H15A C9A 1_555 1_555
C10A C9 1_555 1_555
H16A C10A 1_555 1_555
C3 C4 1_555 1_555
C5 C6 1_555 1_555
Cu1A O1A 1_555 1_555
C1A C2A 1_555 1_555
C3A C4A 1_555 1_555
C5A C6A 1_555 1_555
C8A C10A 1_555 1_555

#END
