
#######################################################################
#
#                 Cambridge Crystallographic Data Centre
#                                CCDC 
#
#######################################################################
#
# If this CIF has been generated from an entry in the Cambridge 
# Structural Database, then it will include bibliographic, chemical, 
# crystal, experimental, refinement or atomic coordinate data resulting 
# from the CCDC's data processing and validation procedures.
#
#######################################################################

data_LASTAC
_symmetry_cell_setting           monoclinic
_symmetry_space_group_name_H-M   'C 2/c'
_symmetry_Int_Tables_number      15
_space_group_name_Hall           '-C 2yn'
loop_
_symmetry_equiv_pos_site_id
_symmetry_equiv_pos_as_xyz
1 x,y,z
2 -x,y,1/2-z
3 1/2+x,1/2+y,z
4 1/2-x,1/2+y,1/2-z
5 -x,-y,-z
6 x,-y,1/2+z
7 1/2-x,1/2-y,-z
8 1/2+x,1/2-y,1/2+z
_cell_length_a                   9.763(2)
_cell_length_b                   15.902(4)
_cell_length_c                   9.503(2)
_cell_angle_alpha                90
_cell_angle_beta                 109.733(4)
_cell_angle_gamma                90
_cell_volume                     1388.71
loop_
_atom_site_label
_atom_site_type_symbol
_atom_site_fract_x
_atom_site_fract_y
_atom_site_fract_z
C1 C 1.0015(4) 0.7985(2) 0.9215(4)
H1 H 1.0752 0.8385 0.9494
C2 C 1.0408(4) 0.7152(2) 0.9358(4)
H2 H 1.1383 0.6998 0.9738
C3 C 0.9346(4) 0.6551(2) 0.8936(4)
H3 H 0.9586 0.5983 0.9013
C4 C 0.7912(4) 0.6804(2) 0.8394(4)
H4 H 0.7164 0.6412 0.8089
C5 C 0.7618(4) 0.7644(2) 0.8316(3)
C6 C 0.6148(4) 0.7972(2) 0.7844(3)
C7 C 0.7950(4) 1.0039(2) 1.0156(4)
Cu1 Cu 0.78832(6) 0.95874(3) 0.82925(5)
N1 N 0.8648(3) 0.82524(17) 0.8704(3)
N2 N 0.5762(3) 0.87519(19) 0.7726(3)
N3 N 0.7944(4) 1.02056(19) 1.1318(3)
O1 O 0.5000 0.7441(2) 0.7500
C1A C -0.0015(4) 0.7985(2) 0.5785(4)
H1A H -0.0752 0.8385 0.5506
C2A C -0.0408(4) 0.7152(2) 0.5642(4)
H2A H -0.1383 0.6998 0.5262
C3A C 0.0654(4) 0.6551(2) 0.6064(4)
H3A H 0.0414 0.5983 0.5987
C4A C 0.2088(4) 0.6804(2) 0.6606(4)
H4A H 0.2836 0.6412 0.6911
C5A C 0.2382(4) 0.7644(2) 0.6684(3)
C6A C 0.3852(4) 0.7972(2) 0.7156(3)
C7E C 0.7950(4) 0.9961(2) 0.5156(4)
Cu1E Cu 0.78832(6) 1.04126(3) 0.32925(5)
Cu1E_2 Cu 0.78832(6) 1.04126(3) 1.32925(5)
Cu1A Cu 0.21168(6) 0.95874(3) 0.67075(5)
N1A N 0.1352(3) 0.82524(17) 0.6296(3)
N1E N 0.8648(3) 1.17476(17) 0.3704(3)
N2A N 0.4238(3) 0.87519(19) 0.7274(3)
N2E N 0.5762(3) 1.12481(19) 0.2726(3)
N3E N 0.7944(4) 0.97944(19) 0.6318(3)
N3_2 N 0.7944(4) 1.02056(19) 0.1318(3)
loop_
_geom_bond_atom_site_label_1
_geom_bond_atom_site_label_2
_geom_bond_site_symmetry_1
_geom_bond_site_symmetry_2
C1 H1 1_555 1_555
C2 C1 1_555 1_555
H2 C2 1_555 1_555
C3 C2 1_555 1_555
H3 C3 1_555 1_555
C4 C3 1_555 1_555
H4 C4 1_555 1_555
C5 C4 1_555 1_555
C6 C5 1_555 1_555
C7 Cu1 1_555 1_555
Cu1 N1 1_555 1_555
N1 C1 1_555 1_555
N2 C6 1_555 1_555
N3 C7 1_555 1_555
O1 C6 1_555 1_555
C1A H1A 1_555 1_555
C2A C1A 1_555 1_555
H2A C2A 1_555 1_555
C3A C2A 1_555 1_555
H3A C3A 1_555 1_555
C4A C3A 1_555 1_555
H4A C4A 1_555 1_555
C5A C4A 1_555 1_555
C6A O1 1_555 1_555
C7E Cu1E 1_555 1_555
Cu1E N1E 1_555 1_555
Cu1E_2 N3 1_555 1_555
Cu1A N1A 1_555 1_555
N1A C1A 1_555 1_555
N2A N2 1_555 1_555
N2E Cu1E 1_555 1_555
N3E Cu1 1_555 1_555
N3_2 Cu1E 1_555 1_555
C5 N1 1_555 1_555
Cu1 N2 1_555 1_555
C5A C6A 1_555 1_555
C5A N1A 1_555 1_555
C6A N2A 1_555 1_555
C7E N3E 1_555 1_555
Cu1A N2A 1_555 1_555

#END
