
#######################################################################
#
#                 Cambridge Crystallographic Data Centre
#                                CCDC 
#
#######################################################################
#
# If this CIF has been generated from an entry in the Cambridge 
# Structural Database, then it will include bibliographic, chemical, 
# crystal, experimental, refinement or atomic coordinate data resulting 
# from the CCDC's data processing and validation procedures.
#
#######################################################################

data_LASVAE
_symmetry_cell_setting           monoclinic
_symmetry_space_group_name_H-M   'P 21/c'
_symmetry_Int_Tables_number      14
_space_group_name_Hall           '-P 2ybc'
loop_
_symmetry_equiv_pos_site_id
_symmetry_equiv_pos_as_xyz
1 x,y,z
2 -x,1/2+y,1/2-z
3 -x,-y,-z
4 x,1/2-y,1/2+z
_cell_length_a                   13.647(1)
_cell_length_b                   12.2255(5)
_cell_length_c                   10.0282(4)
_cell_angle_alpha                90
_cell_angle_beta                 97.675(5)
_cell_angle_gamma                90
_cell_volume                     1658.13
loop_
_atom_site_label
_atom_site_type_symbol
_atom_site_fract_x
_atom_site_fract_y
_atom_site_fract_z
Cu1 Cu 0.40238(7) 0.76811(7) 0.53014(8)
Cu2 Cu 0.39504(8) 0.91086(7) 0.78335(8)
Cu3 Cu 0.5000 0.5000 1.0000
P1 P 0.54883(16) 0.65662(14) 0.77111(17)
C1 C 0.6671(7) 0.7112(7) 0.8487(9)
H1 H 0.7068 0.7281 0.7780
H2 H 0.6550 0.7793 0.8933
C2 C 0.7269(7) 0.6366(7) 0.9503(8)
C3 C 0.8094(7) 0.5812(8) 0.9189(9)
H3 H 0.8307 0.5929 0.8358
C4 C 0.8613(7) 0.5085(7) 1.0091(8)
H4 H 0.9156 0.4705 0.9858
C5 C 0.8307(7) 0.4939(6) 1.1339(7)
C6 C 0.7508(7) 0.5489(6) 1.1704(7)
H5 H 0.7309 0.5382 1.2546
C7 C 0.6997(7) 0.6216(6) 1.0773(8)
H6 H 0.6464 0.6607 1.1015
C8 C 0.8869(7) 0.4147(6) 1.2334(8)
C9 C 0.9785(8) 0.4477(7) 1.2968(9)
H7 H 1.0039 0.5149 1.2748
C10 C 1.0317(8) 0.3839(9) 1.3901(11)
H8 H 1.0956 0.4043 1.4251
C11 C 0.9920(9) 0.2896(9) 1.4331(12)
H9 H 1.0261 0.2489 1.5028
C12 C 0.9008(8) 0.2557(9) 1.3719(10)
H10 H 0.8744 0.1903 1.3983
C13 C 0.8473(6) 0.3183(7) 1.2706(7)
C14 C 0.7522(6) 0.2695(6) 1.2033(8)
O1 O 0.4986(4) 0.7525(4) 0.6911(5)
O2 O 0.5639(5) 0.5604(4) 0.6810(5)
O3 O 0.4937(4) 0.6264(4) 0.8879(4)
O4 O 0.7196(4) 0.3008(4) 1.0883(5)
O5 O 0.7116(5) 0.1959(5) 1.2669(5)
O6 O 0.4137(4) 0.6239(4) 0.4685(4)
O7 O 0.3974(4) 0.5760(3) 1.0887(4)
Cu1B Cu 0.59762(7) 0.23189(7) 1.46986(8)
Cu1C Cu 0.40238(7) 0.73189(7) 1.03014(8)
Cu1A Cu 0.59762(7) 0.26811(7) 0.96986(8)
Cu2B Cu 0.60496(8) 0.08914(7) 1.21665(8)
Cu2A Cu 0.60496(8) 0.41086(7) 0.71665(8)
Cu2C Cu 0.39504(8) 0.58914(7) 0.28335(8)
Cu2C_2 Cu 0.39504(8) 0.58914(7) 1.28335(8)
P1B P 0.45117(16) 0.34338(14) 1.22889(17)
C1B C 0.3329(7) 0.2888(7) 1.1513(9)
H1B H 0.2932 0.2719 1.2220
H2B H 0.3450 0.2207 1.1067
C2B C 0.2731(7) 0.3634(7) 1.0497(8)
C3B C 0.1906(7) 0.4188(8) 1.0811(9)
H3B H 0.1693 0.4071 1.1642
C4B C 0.1387(7) 0.4915(7) 0.9909(8)
H4B H 0.0844 0.5295 1.0142
C5B C 0.1693(7) 0.5061(6) 0.8661(7)
C6B C 0.2492(7) 0.4511(6) 0.8296(7)
H5B H 0.2691 0.4618 0.7454
C7B C 0.3003(7) 0.3784(6) 0.9227(8)
H6B H 0.3536 0.3393 0.8985
C8B C 0.1131(7) 0.5853(6) 0.7666(8)
C9B C 0.0215(8) 0.5523(7) 0.7032(9)
H7B H -0.0039 0.4851 0.7252
C10B C -0.0317(8) 0.6161(9) 0.6099(11)
H8B H -0.0956 0.5957 0.5749
C11B C 0.0080(9) 0.7104(9) 0.5669(12)
H9B H -0.0261 0.7511 0.4972
C12B C 0.0992(8) 0.7443(9) 0.6281(10)
H10B H 0.1256 0.8097 0.6017
C13B C 0.1527(6) 0.6817(7) 0.7294(7)
C14B C 0.2478(6) 0.7305(6) 0.7967(8)
O1B O 0.5014(4) 0.2475(4) 1.3089(5)
O2B O 0.4361(5) 0.4396(4) 1.3190(5)
O2A O 0.4361(5) 1.0604(4) 0.8190(5)
O2C O 0.5639(5) -0.0604(4) 1.1810(5)
O3B O 0.5063(4) 0.3736(4) 1.1121(4)
O3C O 0.4937(4) 0.8736(4) 0.3879(4)
O3A O 0.5063(4) 0.1264(4) 1.6121(4)
O4B O 0.2804(4) 0.6992(4) 0.9117(5)
O4A O 0.2804(4) 0.8008(4) 0.4117(5)
O4C O 0.7196(4) 0.1992(4) 1.5883(5)
O5B O 0.2884(5) 0.8041(5) 0.7331(5)
O6C O 0.4137(4) 0.8761(4) 0.9685(4)
O6B O 0.5863(4) 0.3761(4) 1.5315(4)
O6A O 0.5863(4) 0.1239(4) 1.0315(4)
O7B O 0.6026(4) 0.4240(3) 0.9113(4)
O7C O 0.3974(4) 0.9240(3) 0.5887(4)
O7A O 0.6026(4) 0.0760(3) 1.4113(4)
O8 O 1.242(3) 0.503(3) 1.481(3)
loop_
_geom_bond_atom_site_label_1
_geom_bond_atom_site_label_2
_geom_bond_site_symmetry_1
_geom_bond_site_symmetry_2
Cu1 O1 1_555 1_555
Cu2 O1 1_555 1_555
Cu3 O3 1_555 1_555
P1 C1 1_555 1_555
C1 H1 1_555 1_555
H2 C1 1_555 1_555
C2 C1 1_555 1_555
C3 C2 1_555 1_555
H3 C3 1_555 1_555
C4 C3 1_555 1_555
H4 C4 1_555 1_555
C5 C4 1_555 1_555
C6 C5 1_555 1_555
H5 C6 1_555 1_555
C7 C2 1_555 1_555
H6 C7 1_555 1_555
C8 C5 1_555 1_555
C9 C8 1_555 1_555
H7 C9 1_555 1_555
C10 C9 1_555 1_555
H8 C10 1_555 1_555
C11 C10 1_555 1_555
H9 C11 1_555 1_555
C12 C11 1_555 1_555
H10 C12 1_555 1_555
C13 C8 1_555 1_555
C14 C13 1_555 1_555
O1 P1 1_555 1_555
O2 P1 1_555 1_555
O3 P1 1_555 1_555
O4 C14 1_555 1_555
O5 C14 1_555 1_555
O6 Cu1 1_555 1_555
O7 Cu3 1_555 1_555
Cu1B O5 1_555 1_555
Cu1C O3 1_555 1_555
Cu1A O4 1_555 1_555
Cu2B O5 1_555 1_555
Cu2A O2 1_555 1_555
Cu2C O6 1_555 1_555
Cu2C_2 O7 1_555 1_555
P1B C1B 1_555 1_555
C1B H1B 1_555 1_555
H2B C1B 1_555 1_555
C2B C1B 1_555 1_555
C3B C2B 1_555 1_555
H3B C3B 1_555 1_555
C4B C3B 1_555 1_555
H4B C4B 1_555 1_555
C5B C4B 1_555 1_555
C6B C5B 1_555 1_555
H5B C6B 1_555 1_555
C7B C2B 1_555 1_555
H6B C7B 1_555 1_555
C8B C5B 1_555 1_555
C9B C8B 1_555 1_555
H7B C9B 1_555 1_555
C10B C9B 1_555 1_555
H8B C10B 1_555 1_555
C11B C10B 1_555 1_555
H9B C11B 1_555 1_555
C12B C11B 1_555 1_555
H10B C12B 1_555 1_555
C13B C8B 1_555 1_555
C14B C13B 1_555 1_555
O1B Cu1B 1_555 1_555
O2B Cu2C_2 1_555 1_555
O2A Cu2 1_555 1_555
O2C Cu2B 1_555 1_555
O3B Cu3 1_555 1_555
O3C Cu1 1_555 1_555
O3A Cu1B 1_555 1_555
O4B Cu1C 1_555 1_555
O4A Cu1 1_555 1_555
O4C Cu1B 1_555 1_555
O5B Cu1 1_555 1_555
O6C Cu2 1_555 1_555
O6B Cu1B 1_555 1_555
O6A Cu1A 1_555 1_555
O7B Cu3 1_555 1_555
O7C Cu1 1_555 1_555
O7A Cu1B 1_555 1_555
Cu2 O5B 1_555 1_555
Cu2 O7C 1_555 1_555
C6 C7 1_555 1_555
C12 C13 1_555 1_555
O7 Cu1C 1_555 1_555
Cu1C O6C 1_555 1_555
Cu1A O3B 1_555 1_555
Cu1A O7B 1_555 1_555
Cu2B O1B 1_555 1_555
Cu2B O6A 1_555 1_555
Cu2B O7A 1_555 1_555
Cu2A O7B 1_555 1_555
P1B O1B 1_555 1_555
P1B O2B 1_555 1_555
P1B O3B 1_555 1_555
C6B C7B 1_555 1_555
C12B C13B 1_555 1_555
C14B O4B 1_555 1_555
C14B O5B 1_555 1_555

#END
