
#######################################################################
#
#                 Cambridge Crystallographic Data Centre
#                                CCDC 
#
#######################################################################
#
# If this CIF has been generated from an entry in the Cambridge 
# Structural Database, then it will include bibliographic, chemical, 
# crystal, experimental, refinement or atomic coordinate data resulting 
# from the CCDC's data processing and validation procedures.
#
#######################################################################

data_LASVIM
_symmetry_cell_setting           orthorhombic
_symmetry_space_group_name_H-M   'P 21 21 21'
_symmetry_Int_Tables_number      19
_space_group_name_Hall           'P 2ac 2ab'
loop_
_symmetry_equiv_pos_site_id
_symmetry_equiv_pos_as_xyz
1 x,y,z
2 1/2-x,-y,1/2+z
3 1/2+x,1/2-y,-z
4 -x,1/2+y,1/2-z
_cell_length_a                   10.5652(2)
_cell_length_b                   17.5422(4)
_cell_length_c                   25.6946(6)
_cell_angle_alpha                90
_cell_angle_beta                 90
_cell_angle_gamma                90
_cell_volume                     4762.16
loop_
_atom_site_label
_atom_site_type_symbol
_atom_site_fract_x
_atom_site_fract_y
_atom_site_fract_z
Zn1 Zn 0.12473(4) 0.34421(2) 0.604945(16)
Zn2 Zn 0.49003(3) 0.33062(2) 0.511566(15)
Zn3 Zn 0.32103(4) 0.54218(3) 0.621390(17)
P1 P 0.40723(8) 0.36677(6) 0.63025(4)
P2 P 0.20531(8) 0.30837(6) 0.48759(4)
C1 C 0.5246(3) 0.3268(2) 0.67408(14)
H1 H 0.5506 0.2778 0.6603
H2 H 0.5983 0.3598 0.6735
C2 C 0.4865(3) 0.3155(2) 0.73002(15)
C3 C 0.4869(4) 0.3752(2) 0.76468(15)
H3 H 0.5100 0.4234 0.7530
C4 C 0.4539(4) 0.3656(2) 0.81665(15)
H4 H 0.4519 0.4076 0.8388
C5 C 0.4238(3) 0.2936(2) 0.83584(15)
C6 C 0.4218(4) 0.2336(2) 0.80049(16)
H5 H 0.4008 0.1849 0.8121
C7 C 0.4503(4) 0.2446(2) 0.74858(16)
H6 H 0.4450 0.2037 0.7257
C8 C 0.3918(3) 0.2820(2) 0.89162(15)
C9 C 0.3061(3) 0.3303(2) 0.91607(15)
H7 H 0.2744 0.3720 0.8979
C10 C 0.2668(4) 0.3181(3) 0.96662(17)
H8 H 0.2111 0.3521 0.9823
C11 C 0.3098(4) 0.2559(3) 0.99372(17)
H9 H 0.2814 0.2464 1.0274
C12 C 0.3956(4) 0.2076(2) 0.97034(15)
H10 H 0.4250 0.1655 0.9888
C13 C 0.4396(3) 0.2200(2) 0.91988(15)
C14 C 0.5461(3) 0.1714(2) 0.90012(14)
C15 C 0.0673(4) 0.5876(2) 0.56859(16)
H11 H 0.0993 0.5647 0.5388
C16 C -0.0489(4) 0.6240(3) 0.56561(18)
H12 H -0.0937 0.6245 0.5345
C17 C -0.0970(4) 0.6588(2) 0.60832(18)
H13 H -0.1746 0.6836 0.6066
C18 C -0.0292(3) 0.6572(2) 0.65502(16)
C19 C -0.0720(4) 0.6924(3) 0.7022(2)
H14 H -0.1488 0.7183 0.7024
C20 C -0.0028(5) 0.6887(3) 0.7461(2)
H15 H -0.0332 0.7116 0.7763
C21 C 0.1160(4) 0.6504(3) 0.74732(17)
C22 C 0.1914(5) 0.6433(3) 0.79170(18)
H16 H 0.1645 0.6639 0.8232
C23 C 0.3036(5) 0.6065(3) 0.78877(18)
H17 H 0.3538 0.6012 0.8183
C24 C 0.3436(4) 0.5766(3) 0.74155(17)
H18 H 0.4215 0.5521 0.7400
C25 C 0.1615(4) 0.6174(2) 0.70140(15)
C26 C 0.0873(3) 0.6196(2) 0.65484(16)
C27 C 0.1758(4) 0.3560(3) 0.42610(15)
H19 H 0.2458 0.3905 0.4196
H20 H 0.1771 0.3178 0.3988
C28 C 0.0545(4) 0.4008(3) 0.42081(15)
C29 C 0.0524(4) 0.4778(3) 0.43357(15)
H21 H 0.1255 0.5007 0.4462
C30 C -0.0555(3) 0.5209(2) 0.42791(15)
H22 H -0.0541 0.5719 0.4377
C31 C -0.1674(3) 0.4898(2) 0.40775(15)
C32 C -0.1645(4) 0.4127(2) 0.39520(16)
H23 H -0.2368 0.3898 0.3818
C33 C -0.0558(4) 0.3692(3) 0.40230(16)
H24 H -0.0577 0.3175 0.3943
C34 C -0.2798(3) 0.5398(2) 0.40085(14)
C35 C -0.2611(4) 0.6148(2) 0.38461(16)
H25 H -0.1792 0.6307 0.3770
C36 C -0.3590(3) 0.6663(2) 0.37931(16)
H26 H -0.3432 0.7155 0.3674
C37 C -0.4802(4) 0.6442(2) 0.39182(16)
H27 H -0.5468 0.6787 0.3895
C38 C -0.5017(4) 0.5710(2) 0.40772(15)
H28 H -0.5838 0.5566 0.4163
C39 C -0.4059(3) 0.5175(2) 0.41154(13)
C40 C -0.4461(3) 0.4382(2) 0.42552(15)
C41 C -0.1086(4) 0.4142(3) 0.54655(16)
H29 H -0.0734 0.3921 0.5170
C42 C -0.2254(4) 0.4500(3) 0.54215(18)
H30 H -0.2663 0.4519 0.5101
C43 C -0.2799(4) 0.4821(3) 0.58477(18)
H31 H -0.3579 0.5064 0.5823
C44 C -0.2164(3) 0.4779(2) 0.63256(17)
C45 C -0.2647(4) 0.5097(3) 0.6804(2)
H32 H -0.3431 0.5338 0.6802
C46 C -0.2001(4) 0.5055(3) 0.72447(19)
H33 H -0.2335 0.5275 0.7544
C47 C -0.0798(4) 0.4676(3) 0.72706(16)
C48 C -0.0071(5) 0.4611(3) 0.77205(17)
H34 H -0.0350 0.4830 0.8029
C49 C 0.1041(5) 0.4230(3) 0.77084(18)
H35 H 0.1529 0.4187 0.8008
C50 C 0.1452(4) 0.3901(3) 0.72421(17)
H36 H 0.2211 0.3633 0.7240
C51 C -0.0309(3) 0.4347(2) 0.68168(15)
C52 C -0.0986(3) 0.4414(2) 0.63369(14)
O1 O 0.2942(2) 0.31342(14) 0.62969(10)
O2 O 0.3722(3) 0.44492(15) 0.65074(10)
O3 O 0.4760(2) 0.37345(17) 0.57879(9)
O4 O 0.6464(2) 0.20149(17) 0.88854(13)
O5 O 0.5264(2) 0.09964(15) 0.89772(11)
O6 O 0.1189(3) 0.24219(18) 0.49371(14)
O7 O 0.3418(2) 0.28228(14) 0.48241(10)
O8 O 0.1853(2) 0.36643(14) 0.53101(9)
O9 O -0.4588(3) 0.39137(16) 0.39014(11)
O10 O -0.4720(3) 0.42647(15) 0.47300(10)
N1 N 0.2752(3) 0.5816(2) 0.69890(13)
N2 N 0.1344(3) 0.58407(17) 0.61168(12)
N3 N -0.0454(3) 0.41003(18) 0.59070(12)
N4 N 0.0803(3) 0.39580(19) 0.68042(12)
O11 O 0.3109(2) 0.50167(15) 0.53920(10)
O12 O 0.0023(2) 0.25338(14) 0.60665(10)
Zn2B Zn -0.00997(3) 0.16938(2) 0.488434(15)
Zn2_2 Zn -0.50997(3) 0.33062(2) 0.511566(15)
Zn3C Zn 0.67897(4) 0.04218(3) 0.878610(17)
O5C O 0.4736(2) 0.59964(15) 0.60228(11)
O6B O 0.6189(3) 0.25781(18) 0.50629(14)
O10_2 O 0.5280(3) 0.42647(15) 0.47300(10)
loop_
_geom_bond_atom_site_label_1
_geom_bond_atom_site_label_2
_geom_bond_site_symmetry_1
_geom_bond_site_symmetry_2
Zn1 O1 1_555 1_555
Zn2 O3 1_555 1_555
Zn3 O2 1_555 1_555
P1 C1 1_555 1_555
P2 C27 1_555 1_555
C1 H1 1_555 1_555
H2 C1 1_555 1_555
C2 C1 1_555 1_555
C3 C2 1_555 1_555
H3 C3 1_555 1_555
C4 C3 1_555 1_555
H4 C4 1_555 1_555
C5 C4 1_555 1_555
C6 C5 1_555 1_555
H5 C6 1_555 1_555
C7 C2 1_555 1_555
H6 C7 1_555 1_555
C8 C5 1_555 1_555
C9 C8 1_555 1_555
H7 C9 1_555 1_555
C10 C9 1_555 1_555
H8 C10 1_555 1_555
C11 C10 1_555 1_555
H9 C11 1_555 1_555
C12 C11 1_555 1_555
H10 C12 1_555 1_555
C13 C8 1_555 1_555
C14 C13 1_555 1_555
C15 H11 1_555 1_555
C16 C15 1_555 1_555
H12 C16 1_555 1_555
C17 C16 1_555 1_555
H13 C17 1_555 1_555
C18 C17 1_555 1_555
C19 C18 1_555 1_555
H14 C19 1_555 1_555
C20 C19 1_555 1_555
H15 C20 1_555 1_555
C21 C20 1_555 1_555
C22 C21 1_555 1_555
H16 C22 1_555 1_555
C23 C22 1_555 1_555
H17 C23 1_555 1_555
C24 C23 1_555 1_555
H18 C24 1_555 1_555
C25 C21 1_555 1_555
C26 C18 1_555 1_555
C27 H19 1_555 1_555
H20 C27 1_555 1_555
C28 C27 1_555 1_555
C29 C28 1_555 1_555
H21 C29 1_555 1_555
C30 C29 1_555 1_555
H22 C30 1_555 1_555
C31 C30 1_555 1_555
C32 C31 1_555 1_555
H23 C32 1_555 1_555
C33 C28 1_555 1_555
H24 C33 1_555 1_555
C34 C31 1_555 1_555
C35 C34 1_555 1_555
H25 C35 1_555 1_555
C36 C35 1_555 1_555
H26 C36 1_555 1_555
C37 C36 1_555 1_555
H27 C37 1_555 1_555
C38 C37 1_555 1_555
H28 C38 1_555 1_555
C39 C34 1_555 1_555
C40 C39 1_555 1_555
C41 H29 1_555 1_555
C42 C41 1_555 1_555
H30 C42 1_555 1_555
C43 C42 1_555 1_555
H31 C43 1_555 1_555
C44 C43 1_555 1_555
C45 C44 1_555 1_555
H32 C45 1_555 1_555
C46 C45 1_555 1_555
H33 C46 1_555 1_555
C47 C46 1_555 1_555
C48 C47 1_555 1_555
H34 C48 1_555 1_555
C49 C48 1_555 1_555
H35 C49 1_555 1_555
C50 C49 1_555 1_555
H36 C50 1_555 1_555
C51 C47 1_555 1_555
C52 C44 1_555 1_555
O1 P1 1_555 1_555
O2 P1 1_555 1_555
O3 P1 1_555 1_555
O4 C14 1_555 1_555
O5 C14 1_555 1_555
O6 P2 1_555 1_555
O7 Zn2 1_555 1_555
O8 Zn1 1_555 1_555
O9 C40 1_555 1_555
O10 C40 1_555 1_555
N1 Zn3 1_555 1_555
N2 Zn3 1_555 1_555
N3 Zn1 1_555 1_555
N4 Zn1 1_555 1_555
O11 Zn3 1_555 1_555
O12 Zn1 1_555 1_555
Zn2B O6 1_555 1_555
Zn2_2 O10 1_555 1_555
Zn3C O5 1_555 1_555
O5C Zn3 1_555 1_555
O6B Zn2 1_555 1_555
O10_2 Zn2 1_555 1_555
P2 O7 1_555 1_555
P2 O8 1_555 1_555
C6 C7 1_555 1_555
C12 C13 1_555 1_555
C15 N2 1_555 1_555
C24 N1 1_555 1_555
C25 C26 1_555 1_555
C25 N1 1_555 1_555
C26 N2 1_555 1_555
C32 C33 1_555 1_555
C38 C39 1_555 1_555
C41 N3 1_555 1_555
C50 N4 1_555 1_555
C51 C52 1_555 1_555
C51 N4 1_555 1_555
C52 N3 1_555 1_555

#END
