
#######################################################################
#
#                 Cambridge Crystallographic Data Centre
#                                CCDC 
#
#######################################################################
#
# If this CIF has been generated from an entry in the Cambridge 
# Structural Database, then it will include bibliographic, chemical, 
# crystal, experimental, refinement or atomic coordinate data resulting 
# from the CCDC's data processing and validation procedures.
#
#######################################################################

data_LASVEI
_symmetry_cell_setting           monoclinic
_symmetry_space_group_name_H-M   'P 21/c'
_symmetry_Int_Tables_number      14
_space_group_name_Hall           '-P 2ybc'
loop_
_symmetry_equiv_pos_site_id
_symmetry_equiv_pos_as_xyz
1 x,y,z
2 -x,1/2+y,1/2-z
3 -x,-y,-z
4 x,1/2-y,1/2+z
_cell_length_a                   15.076(5)
_cell_length_b                   10.156(5)
_cell_length_c                   19.074(5)
_cell_angle_alpha                90
_cell_angle_beta                 99.099(5)
_cell_angle_gamma                90
_cell_volume                     2883.71
loop_
_atom_site_label
_atom_site_type_symbol
_atom_site_fract_x
_atom_site_fract_y
_atom_site_fract_z
Zn1 Zn 0.63043(4) 0.03299(6) 0.94740(3)
Zn2 Zn 0.46806(4) -0.32506(6) 1.07948(3)
Zn3 Zn 0.58842(4) -0.18808(5) 0.80544(3)
P1 P 0.59719(9) -0.26328(13) 0.96835(6)
P2 P 0.47456(8) 0.08608(13) 0.82095(6)
C1 C 0.7092(3) -0.3282(5) 0.9862(2)
H1 H 0.7485 -0.2689 0.9656
H2 H 0.7099 -0.4119 0.9618
C2 C 0.7485(3) -0.3492(5) 1.0634(2)
C3 C 0.8158(3) -0.2684(6) 1.0968(3)
H3 H 0.8325 -0.1947 1.0730
C4 C 0.8590(3) -0.2945(6) 1.1648(3)
H4 H 0.9053 -0.2396 1.1854
C5 C 0.8346(3) -0.4008(5) 1.2028(3)
C6 C 0.7640(4) -0.4808(5) 1.1703(3)
H5 H 0.7449 -0.5518 1.1949
C7 C 0.7227(4) -0.4539(5) 1.1017(3)
H6 H 0.6762 -0.5080 1.0809
C8 C 0.8880(3) -0.4371(5) 1.2730(2)
C9 C 0.9811(4) -0.4476(6) 1.2765(3)
H7 H 1.0063 -0.4268 1.2364
C10 C 1.0367(4) -0.4871(6) 1.3366(3)
H8 H 1.0985 -0.4905 1.3375
C11 C 1.0001(4) -0.5220(6) 1.3960(3)
H9 H 1.0367 -0.5534 1.4363
C12 C 0.9095(4) -0.5101(5) 1.3949(3)
H10 H 0.8852 -0.5334 1.4351
C13 C 0.8528(3) -0.4638(5) 1.3352(2)
C14 C 0.7568(3) -0.4382(5) 1.3431(2)
C15 C 0.3735(3) 0.0148(5) 0.8425(2)
H11 H 0.3888 -0.0594 0.8742
H12 H 0.3426 0.0795 0.8673
C16 C 0.3115(3) -0.0311(5) 0.7770(3)
C17 C 0.2526(3) 0.0556(5) 0.7379(3)
H13 H 0.2483 0.1412 0.7543
C18 C 0.1997(3) 0.0180(5) 0.6749(3)
H14 H 0.1598 0.0781 0.6502
C19 C 0.2057(3) -0.1086(5) 0.6483(3)
C20 C 0.2642(4) -0.1963(5) 0.6883(3)
H15 H 0.2686 -0.2822 0.6723
C21 C 0.3157(4) -0.1580(6) 0.7512(3)
H16 H 0.3541 -0.2187 0.7768
C22 C 0.1507(3) -0.1461(5) 0.5790(3)
C23 C 0.0586(4) -0.1286(6) 0.5700(3)
H17 H 0.0331 -0.0942 0.6074
C24 C 0.0035(4) -0.1602(6) 0.5077(3)
H18 H -0.0582 -0.1478 0.5039
C25 C 0.0388(4) -0.2098(6) 0.4513(3)
H19 H 0.0019 -0.2285 0.4086
C26 C 0.1301(4) -0.2316(6) 0.4590(3)
H20 H 0.1543 -0.2686 0.4216
C27 C 0.1869(4) -0.1993(5) 0.5215(3)
C28 C 0.2843(4) -0.2242(6) 0.5242(2)
O1 O 0.5390(2) -0.3473(3) 1.00772(15)
O2 O 0.5653(2) -0.2785(3) 0.88853(15)
O3 O 0.5980(2) -0.1202(3) 0.99105(16)
O4 O 0.7139(2) -0.3532(4) 1.30431(18)
O5 O 0.7266(2) -0.5016(4) 1.39067(18)
O6 O 0.5331(2) 0.1347(3) 0.89103(15)
O7 O 0.5249(2) -0.0193(3) 0.78742(15)
O8 O 0.4527(2) 0.2038(3) 0.77477(16)
O9 O 0.3082(2) -0.3267(3) 0.49422(16)
O10 O 0.3394(2) -0.1422(4) 0.55532(17)
O11 O 0.5024(2) -0.4748(3) 1.14387(16)
Zn1C Zn 0.63043(4) -0.53299(6) 1.44740(3)
Zn1A Zn 0.36957(4) -0.46701(6) 0.55260(3)
Zn2B Zn 0.53194(4) 0.32506(6) 0.92052(3)
Zn2C Zn 0.46806(4) -0.17494(6) 0.57948(3)
Zn3C Zn 0.58842(4) -0.31192(5) 1.30544(3)
Zn3A Zn 0.41158(4) 0.31192(5) 0.69456(3)
O4C O 0.7139(2) -0.1468(4) 0.80431(18)
O5C O 0.7266(2) 0.0016(4) 0.89067(18)
O6B O 0.4669(2) -0.1347(3) 1.10897(15)
O8A O 0.5473(2) -0.2962(3) 0.72523(16)
O9A O 0.6918(2) 0.1733(3) 1.00578(16)
O10C O 0.3394(2) -0.3578(4) 1.05532(17)
loop_
_geom_bond_atom_site_label_1
_geom_bond_atom_site_label_2
_geom_bond_site_symmetry_1
_geom_bond_site_symmetry_2
Zn1 O3 1_555 1_555
Zn2 O1 1_555 1_555
Zn3 O2 1_555 1_555
P1 C1 1_555 1_555
P2 C15 1_555 1_555
C1 H1 1_555 1_555
H2 C1 1_555 1_555
C2 C1 1_555 1_555
C3 C2 1_555 1_555
H3 C3 1_555 1_555
C4 C3 1_555 1_555
H4 C4 1_555 1_555
C5 C4 1_555 1_555
C6 C5 1_555 1_555
H5 C6 1_555 1_555
C7 C2 1_555 1_555
H6 C7 1_555 1_555
C8 C5 1_555 1_555
C9 C8 1_555 1_555
H7 C9 1_555 1_555
C10 C9 1_555 1_555
H8 C10 1_555 1_555
C11 C10 1_555 1_555
H9 C11 1_555 1_555
C12 C11 1_555 1_555
H10 C12 1_555 1_555
C13 C8 1_555 1_555
C14 C13 1_555 1_555
C15 H11 1_555 1_555
H12 C15 1_555 1_555
C16 C15 1_555 1_555
C17 C16 1_555 1_555
H13 C17 1_555 1_555
C18 C17 1_555 1_555
H14 C18 1_555 1_555
C19 C18 1_555 1_555
C20 C19 1_555 1_555
H15 C20 1_555 1_555
C21 C16 1_555 1_555
H16 C21 1_555 1_555
C22 C19 1_555 1_555
C23 C22 1_555 1_555
H17 C23 1_555 1_555
C24 C23 1_555 1_555
H18 C24 1_555 1_555
C25 C24 1_555 1_555
H19 C25 1_555 1_555
C26 C25 1_555 1_555
H20 C26 1_555 1_555
C27 C22 1_555 1_555
C28 C27 1_555 1_555
O1 P1 1_555 1_555
O2 P1 1_555 1_555
O3 P1 1_555 1_555
O4 C14 1_555 1_555
O5 C14 1_555 1_555
O6 Zn1 1_555 1_555
O7 Zn3 1_555 1_555
O8 P2 1_555 1_555
O9 C28 1_555 1_555
O10 C28 1_555 1_555
O11 Zn2 1_555 1_555
Zn1C O5 1_555 1_555
Zn1A O9 1_555 1_555
Zn2B O6 1_555 1_555
Zn2C O10 1_555 1_555
Zn3C O4 1_555 1_555
Zn3A O8 1_555 1_555
O4C Zn3 1_555 1_555
O5C Zn1 1_555 1_555
O6B Zn2 1_555 1_555
O8A Zn3 1_555 1_555
O9A Zn1 1_555 1_555
O10C Zn2 1_555 1_555
P2 O6 1_555 1_555
P2 O7 1_555 1_555
C6 C7 1_555 1_555
C12 C13 1_555 1_555
C20 C21 1_555 1_555
C26 C27 1_555 1_555

#END
