
#######################################################################
#
#                 Cambridge Crystallographic Data Centre
#                                CCDC 
#
#######################################################################
#
# If this CIF has been generated from an entry in the Cambridge 
# Structural Database, then it will include bibliographic, chemical, 
# crystal, experimental, refinement or atomic coordinate data resulting 
# from the CCDC's data processing and validation procedures.
#
#######################################################################

data_LASWIN
_symmetry_cell_setting           monoclinic
_symmetry_space_group_name_H-M   'P 21/c'
_symmetry_Int_Tables_number      14
_space_group_name_Hall           '-P 2ybc'
loop_
_symmetry_equiv_pos_site_id
_symmetry_equiv_pos_as_xyz
1 x,y,z
2 -x,1/2+y,1/2-z
3 -x,-y,-z
4 x,1/2-y,1/2+z
_cell_length_a                   10.2537(2)
_cell_length_b                   13.3383(3)
_cell_length_c                   11.6839(3)
_cell_angle_alpha                90
_cell_angle_beta                 120.648(1)
_cell_angle_gamma                90
_cell_volume                     1374.76
loop_
_atom_site_label
_atom_site_type_symbol
_atom_site_fract_x
_atom_site_fract_y
_atom_site_fract_z
Co1 Co 0.22358(4) 0.83677(3) 0.51223(3)
O1 O 0.2227(2) 0.69370(14) 0.43199(19)
O2 O 0.4384(2) 0.77254(15) 0.53491(18)
O3 O 0.3336(2) 0.68903(14) 0.23163(17)
O4 O 0.2988(2) 0.54160(14) 0.13975(17)
O5 O 0.0126(2) 0.81681(15) 0.48794(19)
N1 N 0.1438(3) 0.90603(17) 0.3280(2)
N2 N -0.1527(3) 0.7955(2) 0.5596(2)
C1 C 0.3635(3) 0.6957(2) 0.4811(2)
C2 C 0.4402(3) 0.59677(19) 0.4880(2)
C3 C 0.4233(3) 0.54669(19) 0.3757(2)
C4 C 0.3468(3) 0.5957(2) 0.2413(2)
C5 C 0.5171(3) 0.54915(19) 0.6097(2)
H1 H 0.5294 0.5824 0.6846
C6 C 0.2262(3) 0.9066(3) 0.2690(3)
H2 H 0.3240 0.8807 0.3156
C7 C 0.1743(3) 0.9435(3) 0.1436(3)
H3 H 0.2380 0.9431 0.1087
C8 C 0.0298(3) 0.9809(2) 0.0684(2)
C9 C -0.0564(3) 0.9794(3) 0.1291(3)
H4 H -0.1558 1.0025 0.0832
C10 C 0.0044(3) 0.9438(2) 0.2566(3)
H5 H -0.0553 0.9463 0.2955
C11 C -0.0177(3) 0.8120(2) 0.5791(3)
H6 H 0.0613 0.8207 0.6661
C12 C -0.2813(4) 0.7801(4) 0.4274(4)
H7 H -0.3597 0.7453 0.4331
H8 H -0.2506 0.7410 0.3761
H9 H -0.3190 0.8438 0.3850
C13 C -0.1793(4) 0.7941(3) 0.6711(3)
H10 H -0.2296 0.7329 0.6693
H11 H -0.2417 0.8502 0.6641
H12 H -0.0841 0.7984 0.7532
Co1B Co 0.77642(4) 0.16323(3) 0.48777(3)
Co1C Co 0.22358(4) 0.66323(3) 0.01223(3)
Co1A Co 0.77642(4) 0.33677(3) 0.98777(3)
Co1B_2 Co -0.22358(4) 1.16323(3) -0.51223(3)
O1B O 0.7773(2) 0.30630(14) 0.56801(19)
O2B O 0.5616(2) 0.22746(15) 0.46509(18)
O3B O 0.6664(2) 0.31097(14) 0.76837(17)
O3C O 0.3336(2) 0.81097(14) 0.73163(17)
O3A O 0.6664(2) 0.18903(14) 0.26837(17)
O4B O 0.7012(2) 0.45840(14) 0.86025(17)
O4C O 0.2988(2) 0.95840(14) 0.63975(17)
O4A O 0.7012(2) 0.04160(14) 0.36025(17)
O5B O 0.9874(2) 0.18319(15) 0.51206(19)
N1B N -0.1438(3) 1.09397(17) -0.3280(2)
N1B_2 N 0.8562(3) 0.09397(17) 0.6720(2)
N2B N 1.1527(3) 0.2045(2) 0.4404(2)
C1B C 0.6365(3) 0.3043(2) 0.5189(2)
C2B C 0.5598(3) 0.40323(19) 0.5120(2)
C3B C 0.5767(3) 0.45331(19) 0.6243(2)
C4B C 0.6532(3) 0.4043(2) 0.7587(2)
C5B C 0.4829(3) 0.45085(19) 0.3903(2)
H1B H 0.4706 0.4176 0.3154
C6B C -0.2262(3) 1.0934(3) -0.2690(3)
H2B H -0.3240 1.1193 -0.3156
C7B C -0.1743(3) 1.0565(3) -0.1436(3)
H3B H -0.2380 1.0569 -0.1087
C8B C -0.0298(3) 1.0191(2) -0.0684(2)
C9B C 0.0564(3) 1.0206(3) -0.1291(3)
H4B H 0.1558 0.9975 -0.0832
C10B C -0.0044(3) 1.0562(2) -0.2566(3)
H5B H 0.0553 1.0537 -0.2955
C11B C 1.0177(3) 0.1880(2) 0.4209(3)
H6B H 0.9387 0.1793 0.3339
C12B C 1.2813(4) 0.2199(4) 0.5726(4)
H7B H 1.3597 0.2547 0.5669
H8B H 1.2506 0.2590 0.6239
H9B H 1.3190 0.1562 0.6150
C13B C 1.1793(4) 0.2059(3) 0.3289(3)
H10B H 1.2296 0.2671 0.3307
H11B H 1.2417 0.1498 0.3359
H12B H 1.0841 0.2016 0.2468
loop_
_geom_bond_atom_site_label_1
_geom_bond_atom_site_label_2
_geom_bond_site_symmetry_1
_geom_bond_site_symmetry_2
Co1 O1 1_555 1_555
O1 C1 1_555 1_555
O2 Co1 1_555 1_555
O3 C4 1_555 1_555
O4 C4 1_555 1_555
O5 Co1 1_555 1_555
N1 Co1 1_555 1_555
N2 C11 1_555 1_555
C1 O2 1_555 1_555
C2 C1 1_555 1_555
C3 C2 1_555 1_555
C4 C3 1_555 1_555
C5 C2 1_555 1_555
H1 C5 1_555 1_555
C6 N1 1_555 1_555
H2 C6 1_555 1_555
C7 C6 1_555 1_555
H3 C7 1_555 1_555
C8 C7 1_555 1_555
C9 C8 1_555 1_555
H4 C9 1_555 1_555
C10 N1 1_555 1_555
H5 C10 1_555 1_555
C11 O5 1_555 1_555
H6 C11 1_555 1_555
C12 N2 1_555 1_555
H7 C12 1_555 1_555
H8 C12 1_555 1_555
H9 C12 1_555 1_555
C13 N2 1_555 1_555
H10 C13 1_555 1_555
H11 C13 1_555 1_555
H12 C13 1_555 1_555
Co1B O1B 1_555 1_555
Co1C O3 1_555 1_555
Co1A O3B 1_555 1_555
Co1B_2 N1B 1_555 1_555
O1B C1B 1_555 1_555
O2B Co1B 1_555 1_555
O3B C4B 1_555 1_555
O3C Co1 1_555 1_555
O3A Co1B 1_555 1_555
O4B Co1A 1_555 1_555
O4C Co1 1_555 1_555
O4A Co1B 1_555 1_555
O5B Co1B 1_555 1_555
N1B C6B 1_555 1_555
N1B_2 Co1B 1_555 1_555
N2B C11B 1_555 1_555
C1B O2B 1_555 1_555
C2B C1B 1_555 1_555
C3B C5 1_555 1_555
C4B O4B 1_555 1_555
C5B C3 1_555 1_555
H1B C5B 1_555 1_555
C6B H2B 1_555 1_555
C7B C6B 1_555 1_555
H3B C7B 1_555 1_555
C8B C8 1_555 1_555
C9B C8B 1_555 1_555
H4B C9B 1_555 1_555
C10B N1B 1_555 1_555
H5B C10B 1_555 1_555
C11B O5B 1_555 1_555
H6B C11B 1_555 1_555
C12B N2B 1_555 1_555
H7B C12B 1_555 1_555
H8B C12B 1_555 1_555
H9B C12B 1_555 1_555
C13B N2B 1_555 1_555
H10B C13B 1_555 1_555
H11B C13B 1_555 1_555
H12B C13B 1_555 1_555
O4 Co1C 1_555 1_555
C9 C10 1_555 1_555
C2B C3B 1_555 1_555
C2B C5B 1_555 1_555
C3B C4B 1_555 1_555
C7B C8B 1_555 1_555
C9B C10B 1_555 1_555

#END
