
#######################################################################
#
#                 Cambridge Crystallographic Data Centre
#                                CCDC 
#
#######################################################################
#
# If this CIF has been generated from an entry in the Cambridge 
# Structural Database, then it will include bibliographic, chemical, 
# crystal, experimental, refinement or atomic coordinate data resulting 
# from the CCDC's data processing and validation procedures.
#
#######################################################################

data_LASXUA
_symmetry_cell_setting           triclinic
_symmetry_space_group_name_H-M   'P -1'
_symmetry_Int_Tables_number      2
_space_group_name_Hall           '-P 1'
loop_
_symmetry_equiv_pos_site_id
_symmetry_equiv_pos_as_xyz
1 x,y,z
2 -x,-y,-z
_cell_length_a                   9.6973(6)
_cell_length_b                   11.1543(7)
_cell_length_c                   11.5573(7)
_cell_angle_alpha                92.228(5)
_cell_angle_beta                 94.339(5)
_cell_angle_gamma                95.885(5)
_cell_volume                     1238.59
loop_
_atom_site_label
_atom_site_type_symbol
_atom_site_fract_x
_atom_site_fract_y
_atom_site_fract_z
Co1 Co 0.30655(4) 0.11116(4) 0.29146(4)
O1 O -0.1049(2) 0.2558(2) 0.7354(2)
O2 O -0.5311(2) 0.2185(2) 0.4587(2)
O3 O 0.1710(2) 0.1101(2) 0.4102(2)
O4 O 0.0184(3) 0.0919(3) 0.2575(2)
O5 O -0.4960(2) 0.0743(2) 0.3329(2)
N1 N 0.3215(3) -0.1118(3) -0.0044(2)
O6 O 0.3376(3) 0.2101(3) 0.8615(3)
C1 C -0.0643(3) 0.1339(3) 0.4404(3)
O7 O 0.3683(4) 0.1557(3) 0.6771(3)
H1 H 0.3575 0.1846 0.6133
N2 N 0.2792(3) 0.0027(3) 0.1443(2)
C2 C 0.1303(3) 0.3583(3) 0.7286(3)
C3 C 0.1710(4) -0.0026(4) 0.0613(3)
H2 H 0.0914 0.0364 0.0675
C4 C -0.3050(3) 0.1547(3) 0.4654(3)
C5 C 0.2683(3) 0.3403(3) 0.7136(3)
C6 C -0.1304(3) 0.2093(3) 0.6235(3)
C7 C 0.0361(3) 0.2652(4) 0.7850(3)
H3 H 0.0713 0.1873 0.7769
H4 H 0.0380 0.2865 0.8674
C8 C -0.4533(3) 0.1494(3) 0.4175(3)
C9 C -0.2023(3) 0.1220(3) 0.3958(3)
H5 H -0.2261 0.0924 0.3198
C10 C 0.3925(4) -0.1921(3) -0.0777(3)
H6 H 0.4871 -0.1942 -0.0445
H7 H 0.3969 -0.1600 -0.1543
C11 C 0.3282(3) 0.2304(3) 0.7586(3)
C12 C 0.1631(5) 0.5437(4) 0.6280(5)
H8 H 0.1268 0.6115 0.5989
C13 C 0.3202(5) -0.3186(4) -0.0892(4)
H9 H 0.3620 -0.3650 -0.1473
H10 H 0.2231 -0.3161 -0.1150
C14 C -0.2681(3) 0.1992(3) 0.5782(3)
H11 H -0.3363 0.2227 0.6241
C15 C 0.0806(4) 0.4606(4) 0.6847(4)
H12 H -0.0113 0.4738 0.6937
C16 C -0.0286(3) 0.1752(3) 0.5541(3)
H13 H 0.0636 0.1803 0.5842
C17 C 0.3000(5) 0.5256(4) 0.6145(4)
H14 H 0.3568 0.5817 0.5774
C18 C 0.1958(4) -0.0723(4) -0.0308(3)
H15 H 0.1384 -0.0899 -0.0988
C19 C 0.3682(3) -0.0648(3) 0.1002(3)
H16 H 0.4532 -0.0778 0.1378
C20 C 0.0480(3) 0.1091(3) 0.3619(3)
C21 C 0.3512(4) 0.4241(4) 0.6563(4)
H17 H 0.4429 0.4112 0.6461
N3 N 0.2702(3) -0.5671(3) 0.1238(3)
C22 C 0.3307(5) -0.3810(4) 0.0274(4)
H18 H 0.4273 -0.3909 0.0494
H19 H 0.2975 -0.3305 0.0874
C23 C 0.2482(5) -0.4999(4) 0.0195(4)
H20 H 0.1503 -0.4889 0.0070
H21 H 0.2732 -0.5464 -0.0470
C24 C 0.2866(4) -0.6848(3) 0.1252(3)
H22 H 0.2880 -0.7349 0.0592
C25 C 0.2921(4) -0.6187(4) 0.3025(4)
H23 H 0.2979 -0.6164 0.3833
C26 C 0.2746(4) -0.5249(4) 0.2365(4)
H24 H 0.2669 -0.4460 0.2624
N4 N 0.3002(3) -0.7195(3) 0.2311(3)
Co1_2 Co -0.69345(4) 0.11116(4) 0.29146(4)
Co1_3 Co 0.30655(4) -0.88884(4) 0.29146(4)
O5_2 O 0.5040(2) 0.0743(2) 0.3329(2)
N4_2 N 0.3002(3) 0.2805(3) 0.2311(3)
loop_
_geom_bond_atom_site_label_1
_geom_bond_atom_site_label_2
_geom_bond_site_symmetry_1
_geom_bond_site_symmetry_2
Co1 O3 1_555 1_555
O1 C6 1_555 1_555
O2 C8 1_555 1_555
O3 C20 1_555 1_555
O4 C20 1_555 1_555
O5 C8 1_555 1_555
N1 C10 1_555 1_555
O6 C11 1_555 1_555
C1 C9 1_555 1_555
O7 H1 1_555 1_555
N2 Co1 1_555 1_555
C2 C5 1_555 1_555
C3 N2 1_555 1_555
H2 C3 1_555 1_555
C4 C8 1_555 1_555
C5 C11 1_555 1_555
C6 C14 1_555 1_555
C7 O1 1_555 1_555
H3 C7 1_555 1_555
H4 C7 1_555 1_555
C9 C4 1_555 1_555
H5 C9 1_555 1_555
C10 H6 1_555 1_555
H7 C10 1_555 1_555
C11 O7 1_555 1_555
C12 H8 1_555 1_555
C13 C10 1_555 1_555
H9 C13 1_555 1_555
H10 C13 1_555 1_555
C14 C4 1_555 1_555
H11 C14 1_555 1_555
C15 C2 1_555 1_555
H12 C15 1_555 1_555
C16 C1 1_555 1_555
H13 C16 1_555 1_555
C17 C12 1_555 1_555
H14 C17 1_555 1_555
C18 N1 1_555 1_555
H15 C18 1_555 1_555
C19 N1 1_555 1_555
H16 C19 1_555 1_555
C20 C1 1_555 1_555
C21 C5 1_555 1_555
H17 C21 1_555 1_555
N3 C23 1_555 1_555
C22 C13 1_555 1_555
H18 C22 1_555 1_555
H19 C22 1_555 1_555
C23 C22 1_555 1_555
H20 C23 1_555 1_555
H21 C23 1_555 1_555
C24 N3 1_555 1_555
H22 C24 1_555 1_555
C25 H23 1_555 1_555
C26 N3 1_555 1_555
H24 C26 1_555 1_555
N4 C24 1_555 1_555
Co1_2 O5 1_555 1_555
Co1_3 N4 1_555 1_555
O5_2 Co1 1_555 1_555
N4_2 Co1 1_555 1_555
N2 C19 1_555 1_555
C2 C7 1_555 1_555
C3 C18 1_555 1_555
C6 C16 1_555 1_555
C12 C15 1_555 1_555
C17 C21 1_555 1_555
C25 C26 1_555 1_555
C25 N4 1_555 1_555

#END
