
#######################################################################
#
#                 Cambridge Crystallographic Data Centre
#                                CCDC 
#
#######################################################################
#
# If this CIF has been generated from an entry in the Cambridge 
# Structural Database, then it will include bibliographic, chemical, 
# crystal, experimental, refinement or atomic coordinate data resulting 
# from the CCDC's data processing and validation procedures.
#
#######################################################################

data_LASXAG
_symmetry_cell_setting           triclinic
_symmetry_space_group_name_H-M   'P -1'
_symmetry_Int_Tables_number      2
_space_group_name_Hall           '-P 1'
loop_
_symmetry_equiv_pos_site_id
_symmetry_equiv_pos_as_xyz
1 x,y,z
2 -x,-y,-z
_cell_length_a                   6.3478(17)
_cell_length_b                   7.609(2)
_cell_length_c                   17.406(5)
_cell_angle_alpha                84.001(3)
_cell_angle_beta                 89.051(3)
_cell_angle_gamma                66.246(3)
_cell_volume                     764.979
loop_
_atom_site_label
_atom_site_type_symbol
_atom_site_fract_x
_atom_site_fract_y
_atom_site_fract_z
Cd1 Cd 0.14378(13) 0.00219(11) 0.19315(4)
Cd2 Cd -0.30847(13) -0.11374(11) 0.32127(4)
C1 C 0.6035(19) 0.0526(16) 0.1454(7)
C2 C 0.4335(19) 0.1456(16) 0.0809(6)
C3 C 0.455(2) 0.2440(17) 0.0118(7)
H1 H 0.5802 0.2706 -0.0043
C4 C 0.119(2) 0.2266(19) 0.0158(7)
H2 H -0.0273 0.2399 0.0007
C5 C 0.188(2) -0.1533(17) 0.3688(7)
C6 C 0.0873(19) -0.2086(17) 0.4401(6)
C7 C 0.181(2) -0.283(2) 0.5128(7)
H3 H 0.3306 -0.3122 0.5297
C8 C -0.177(2) -0.243(2) 0.5108(7)
H4 H -0.3169 -0.2426 0.5274
N1 N 0.2190(16) 0.1404(14) 0.0821(5)
N2 N 0.2509(17) 0.2934(15) -0.0276(6)
H5 H 0.2143 0.3568 -0.0727
N3 N -0.1416(17) -0.1810(14) 0.4408(6)
N4 N 0.012(2) -0.306(2) 0.5547(6)
H6 H 0.0248 -0.3538 0.6023
O1 O 0.5342(13) -0.0297(12) 0.2027(5)
O2 O 0.2818(16) -0.3030(13) 0.1541(5)
H7 H 0.4114 -0.3986 0.1606
H8 H 0.1803 -0.3467 0.1475
O3 O -0.4983(15) 0.2230(12) 0.3289(5)
H9 H -0.4614 0.3109 0.3065
H10 H -0.6404 0.2548 0.3190
O4 O 0.7961(14) 0.0571(14) 0.1401(5)
O5 O 0.0603(14) -0.1049(13) 0.3086(4)
O6 O 0.3836(15) -0.1589(16) 0.3737(6)
O7 O 0.0826(15) 0.2688(12) 0.2589(5)
O8 O -0.0598(16) 0.5624(14) 0.1714(5)
O9 O -0.1286(19) 0.5656(12) 0.3077(5)
O10 O -0.3196(16) 0.4334(15) 0.2271(6)
S1 S -0.1092(5) 0.4594(4) 0.23982(16)
Cd1_2 Cd 1.14378(13) 0.00219(11) 0.19315(4)
Cd2_2 Cd 0.69153(13) -0.11374(11) 0.32127(4)
Cd2_3 Cd -0.30847(13) 0.88626(11) 0.32127(4)
O1_2 O -0.4658(13) -0.0297(12) 0.2027(5)
O4_2 O -0.2039(14) 0.0571(14) 0.1401(5)
O6_2 O -0.6164(15) -0.1589(16) 0.3737(6)
O9_2 O -0.1286(19) -0.4344(12) 0.3077(5)
loop_
_geom_bond_atom_site_label_1
_geom_bond_atom_site_label_2
_geom_bond_site_symmetry_1
_geom_bond_site_symmetry_2
Cd1 N1 1_555 1_555
Cd2 N3 1_555 1_555
C1 C2 1_555 1_555
C2 C3 1_555 1_555
C3 H1 1_555 1_555
C4 H2 1_555 1_555
C5 C6 1_555 1_555
C6 C7 1_555 1_555
C7 H3 1_555 1_555
C8 H4 1_555 1_555
N1 C2 1_555 1_555
N2 C3 1_555 1_555
H5 N2 1_555 1_555
N3 C6 1_555 1_555
N4 C7 1_555 1_555
H6 N4 1_555 1_555
O1 Cd1 1_555 1_555
O2 Cd1 1_555 1_555
H7 O2 1_555 1_555
H8 O2 1_555 1_555
O3 Cd2 1_555 1_555
H9 O3 1_555 1_555
H10 O3 1_555 1_555
O4 C1 1_555 1_555
O5 Cd1 1_555 1_555
O6 C5 1_555 1_555
O7 Cd1 1_555 1_555
O8 S1 1_555 1_555
O9 S1 1_555 1_555
O10 S1 1_555 1_555
S1 O7 1_555 1_555
Cd1_2 O4 1_555 1_555
Cd2_2 O1 1_555 1_555
Cd2_3 O9 1_555 1_555
O1_2 Cd2 1_555 1_555
O4_2 Cd1 1_555 1_555
O6_2 Cd2 1_555 1_555
O9_2 Cd2 1_555 1_555
Cd2 O5 1_555 1_555
C1 O1 1_555 1_555
C4 N1 1_555 1_555
C4 N2 1_555 1_555
C5 O5 1_555 1_555
C8 N3 1_555 1_555
C8 N4 1_555 1_555
O6 Cd2_2 1_555 1_555

#END
