
#######################################################################
#
#                 Cambridge Crystallographic Data Centre
#                                CCDC 
#
#######################################################################
#
# If this CIF has been generated from an entry in the Cambridge 
# Structural Database, then it will include bibliographic, chemical, 
# crystal, experimental, refinement or atomic coordinate data resulting 
# from the CCDC's data processing and validation procedures.
#
#######################################################################

data_LASXOU
_symmetry_cell_setting           orthorhombic
_symmetry_space_group_name_H-M   'P n a 21'
_symmetry_Int_Tables_number      33
_space_group_name_Hall           'P 2c -2n'
loop_
_symmetry_equiv_pos_site_id
_symmetry_equiv_pos_as_xyz
1 x,y,z
2 -x,-y,1/2+z
3 1/2-x,1/2+y,1/2+z
4 1/2+x,1/2-y,z
_cell_length_a                   20.322(5)
_cell_length_b                   7.679(5)
_cell_length_c                   16.703(5)
_cell_angle_alpha                90
_cell_angle_beta                 90
_cell_angle_gamma                90
_cell_volume                     2606.55
loop_
_atom_site_label
_atom_site_type_symbol
_atom_site_fract_x
_atom_site_fract_y
_atom_site_fract_z
Zn1 Zn 0.31237(2) 0.86361(6) 1.31864(4)
C1 C 0.1647(2) 0.7879(6) 0.9753(3)
N1 N 0.40568(19) 0.7883(5) 1.3041(2)
O1 O 0.12939(19) 0.7244(4) 0.8429(2)
O2 O 0.26417(16) 0.9413(4) 1.2241(2)
C2 C 0.1229(3) 0.9299(7) 0.9832(3)
H1 H 0.0934 0.9552 0.9423
O3 O 0.0827(2) 1.1702(6) 1.0645(3)
O4 O 0.2862(2) 0.6792(5) 1.1752(2)
N2 N 0.7547(2) -0.1744(5) 1.3630(3)
C3 C -0.0647(3) 1.3409(6) 1.0830(3)
C4 C 0.1615(2) 0.6754(6) 0.9017(3)
C5 C 0.2081(2) 0.7506(6) 1.0375(3)
H2 H 0.2353 0.6535 1.0344
C6 C 0.2107(2) 0.8598(6) 1.1047(3)
O5 O 0.19296(16) 0.5337(4) 0.9057(2)
C7 C 0.1700(3) 1.0004(7) 1.1097(3)
H3 H 0.1730 1.0749 1.1534
C8 C 0.1241(3) 1.0335(7) 1.0499(3)
C9 C -0.0067(3) 1.3570(7) 1.0414(4)
N3 N 0.6954(2) 0.0618(6) 1.3762(3)
N4 N 0.4884(2) 0.6147(6) 1.2837(3)
C10 C 0.2572(2) 0.8217(7) 1.1719(3)
C11 C 0.4239(3) 0.6277(7) 1.2931(3)
H4 H 0.3951 0.5335 1.2921
C12 C 0.6061(3) 0.2445(7) 1.3237(6)
H5 H 0.5753 0.1676 1.3506
H6 H 0.6110 0.2047 1.2689
C13 C 0.4619(2) 0.8845(7) 1.3009(4)
H7 H 0.4640 1.0049 1.3064
O6 O -0.0999(3) 1.0608(7) 1.0329(4)
C14 C -0.0964(3) 1.4887(8) 1.1129(4)
H8 H -0.1352 1.4769 1.1420
C15 C -0.0706(4) 1.6504(7) 1.0995(4)
H9 H -0.0921 1.7493 1.1181
C16 C 0.5137(3) 0.7795(9) 1.2888(4)
H10 H 0.5577 0.8120 1.2848
C17 C 0.0331(3) 1.2059(8) 1.0094(4)
H11 H 0.0520 1.2358 0.9579
H12 H 0.0051 1.1046 1.0025
C18 C 0.5246(4) 0.4500(9) 1.2718(4)
H13 H 0.4944 0.3536 1.2796
H14 H 0.5400 0.4451 1.2169
C19 C 0.7410(3) -0.0162(6) 1.3354(3)
H15 H 0.7619 0.0333 1.2915
C20 C -0.0134(4) 1.6649(8) 1.0591(6)
H16 H 0.0040 1.7751 1.0499
C21 C 0.6700(3) 0.2374(8) 1.3643(5)
H17 H 0.7016 0.3033 1.3332
H18 H 0.6659 0.2936 1.4161
C22 C 0.0199(3) 1.5213(8) 1.0309(5)
H19 H 0.0601 1.5347 1.0049
C23 C -0.0997(4) 1.1696(8) 1.0903(4)
C24 C 0.5793(3) 0.4282(8) 1.3240(6)
H20 H 0.5660 0.4583 1.3781
H21 H 0.6139 0.5079 1.3081
C25 C 0.6781(4) -0.0465(11) 1.4347(5)
H22 H 0.6467 -0.0257 1.4740
O7 O -0.1399(4) 1.1491(8) 1.1509(4)
H23 H -0.1562 1.0516 1.1491
C26 C 0.7148(4) -0.1931(10) 1.4261(5)
H24 H 0.7126 -0.2909 1.4588
Zn1C Zn 0.81237(2) -0.36361(6) 1.31864(4)
Zn1B Zn 0.18763(2) 0.36361(6) 0.81864(4)
N2C N 0.2547(2) 0.6744(5) 1.3630(3)
O5B O 0.30704(16) 1.0337(4) 1.4057(2)
loop_
_geom_bond_atom_site_label_1
_geom_bond_atom_site_label_2
_geom_bond_site_symmetry_1
_geom_bond_site_symmetry_2
Zn1 N1 1_555 1_555
C1 C2 1_555 1_555
N1 C11 1_555 1_555
O1 C4 1_555 1_555
O2 Zn1 1_555 1_555
C2 H1 1_555 1_555
O3 C8 1_555 1_555
O4 C10 1_555 1_555
N2 C19 1_555 1_555
C3 C9 1_555 1_555
C4 C1 1_555 1_555
C5 C1 1_555 1_555
H2 C5 1_555 1_555
C6 C5 1_555 1_555
O5 C4 1_555 1_555
C7 C6 1_555 1_555
H3 C7 1_555 1_555
C8 C2 1_555 1_555
C9 C17 1_555 1_555
N3 C19 1_555 1_555
N4 C11 1_555 1_555
C10 O2 1_555 1_555
C11 H4 1_555 1_555
C12 H5 1_555 1_555
H6 C12 1_555 1_555
C13 N1 1_555 1_555
H7 C13 1_555 1_555
O6 C23 1_555 1_555
C14 C3 1_555 1_555
H8 C14 1_555 1_555
C15 C14 1_555 1_555
H9 C15 1_555 1_555
C16 N4 1_555 1_555
H10 C16 1_555 1_555
C17 O3 1_555 1_555
H11 C17 1_555 1_555
H12 C17 1_555 1_555
C18 N4 1_555 1_555
H13 C18 1_555 1_555
H14 C18 1_555 1_555
C19 H15 1_555 1_555
C20 C15 1_555 1_555
H16 C20 1_555 1_555
C21 N3 1_555 1_555
H17 C21 1_555 1_555
H18 C21 1_555 1_555
C22 C9 1_555 1_555
H19 C22 1_555 1_555
C23 C3 1_555 1_555
C24 C12 1_555 1_555
H20 C24 1_555 1_555
H21 C24 1_555 1_555
C25 N3 1_555 1_555
H22 C25 1_555 1_555
O7 C23 1_555 1_555
H23 O7 1_555 1_555
C26 N2 1_555 1_555
H24 C26 1_555 1_555
Zn1C N2 1_555 1_555
Zn1B O5 1_555 1_555
N2C Zn1 1_555 1_555
O5B Zn1 1_555 1_555
C6 C10 1_555 1_555
C7 C8 1_555 1_555
C12 C21 1_555 1_555
C13 C16 1_555 1_555
C18 C24 1_555 1_555
C20 C22 1_555 1_555
C25 C26 1_555 1_555

#END
