
#######################################################################
#
#                 Cambridge Crystallographic Data Centre
#                                CCDC 
#
#######################################################################
#
# If this CIF has been generated from an entry in the Cambridge 
# Structural Database, then it will include bibliographic, chemical, 
# crystal, experimental, refinement or atomic coordinate data resulting 
# from the CCDC's data processing and validation procedures.
#
#######################################################################

data_LASYIP
_symmetry_cell_setting           orthorhombic
_symmetry_space_group_name_H-M   'P 21 21 2'
_symmetry_Int_Tables_number      18
_space_group_name_Hall           'P 2 2ab'
loop_
_symmetry_equiv_pos_site_id
_symmetry_equiv_pos_as_xyz
1 x,y,z
2 -x,-y,z
3 1/2+x,1/2-y,-z
4 1/2-x,1/2+y,-z
_cell_length_a                   15.9321(7)
_cell_length_b                   17.2033(6)
_cell_length_c                   9.9871(4)
_cell_angle_alpha                90
_cell_angle_beta                 90
_cell_angle_gamma                90
_cell_volume                     2737.31
loop_
_atom_site_label
_atom_site_type_symbol
_atom_site_fract_x
_atom_site_fract_y
_atom_site_fract_z
Cu1 Cu 0.02349(4) 0.67875(3) 0.94733(6)
O1 O 0.1047(3) 0.95372(19) 1.5021(3)
O2 O 0.0285(2) 0.68135(18) 1.1476(3)
O3 O 0.0086(3) 0.63097(19) 1.6378(4)
O4 O 0.0332(3) 0.80282(18) 1.0756(3)
O5 O 0.0194(3) 0.73200(19) 1.7768(3)
N1 N -0.2766(3) 0.3563(2) 1.0053(6)
N2 N -0.2241(3) 0.6444(2) 1.0448(6)
N3 N -0.0987(2) 0.6592(2) 0.9571(5)
C1 C 0.0380(3) 0.7812(3) 1.3108(5)
C2 C 0.0589(3) 0.8312(3) 1.5713(5)
H1 H 0.0652 0.8482 1.6591
N4 N -0.1466(3) 0.3403(2) 0.9359(5)
C3 C 0.2717(3) 1.0565(3) 1.5168(6)
C4 C 0.1915(3) 1.0642(3) 1.4651(6)
C5 C 0.0326(3) 0.7546(3) 1.1675(5)
C6 C -0.3484(4) 0.3693(3) 1.0969(7)
H2 H -0.3271 0.3782 1.1866
H3 H -0.3827 0.3227 1.0993
C7 C 0.1459(4) 0.9988(3) 1.3978(5)
H4 H 0.1047 1.0192 1.3355
H5 H 0.1850 0.9665 1.3486
C8 C -0.2003(4) 0.3334(4) 0.8300(7)
H6 H -0.1844 0.3234 0.7421
C9 C 0.1534(3) 1.1367(3) 1.4711(6)
H7 H 0.0997 1.1428 1.4361
C10 C 0.1932(3) 1.2000(3) 1.5279(6)
H8 H 0.1668 1.2482 1.5303
C11 C 0.0662(3) 0.8571(3) 1.3355(5)
H9 H 0.0770 0.8908 1.2647
C12 C 0.0200(3) 0.7316(2) 1.4153(4)
H10 H 0.0004 0.6816 1.3983
C13 C 0.0183(3) 0.7009(3) 1.6614(5)
C14 C 0.0314(3) 0.7568(2) 1.5460(5)
C15 C 0.0775(3) 0.8811(2) 1.4647(6)
C16 C -0.1422(3) 0.6467(3) 1.0677(6)
H11 H -0.1181 0.6402 1.1518
C17 C 0.3108(3) 1.1206(3) 1.5745(7)
H12 H 0.3646 1.1154 1.6097
C18 C -0.3557(4) 0.5143(3) 1.0324(8)
H13 H -0.3136 0.5068 0.9634
H14 H -0.3953 0.5528 1.0005
O6 O 0.2902(4) 0.9180(3) 1.5290(8)
C19 C -0.3141(5) 0.5439(4) 1.1569(8)
H15 H -0.2640 0.5134 1.1742
H16 H -0.3519 0.5370 1.2322
C20 C -0.2900(4) 0.6297(4) 1.1461(7)
H17 H -0.3395 0.6597 1.1232
H18 H -0.2702 0.6476 1.2327
C21 C -0.1955(3) 0.3542(3) 1.0409(8)
H19 H -0.1760 0.3615 1.1278
O7 O 0.3956(4) 0.9887(3) 1.4534(8)
H20 H 0.4177 0.9457 1.4490
C22 C -0.2352(4) 0.6551(4) 0.9113(7)
H21 H -0.2862 0.6562 0.8658
C23 C 0.2715(3) 1.1910(3) 1.5802(7)
H22 H 0.2984 1.2331 1.6200
C24 C -0.2801(4) 0.3433(4) 0.8724(7)
H23 H -0.3282 0.3415 0.8199
C25 C -0.1583(4) 0.6639(3) 0.8574(6)
H24 H -0.1472 0.6719 0.7670
C26 C 0.3193(4) 0.9815(3) 1.5034(8)
C27 C -0.4022(3) 0.4370(3) 1.0563(9)
H25 H -0.4441 0.4452 1.1254
H26 H -0.4317 0.4232 0.9748
Cu1_2 Cu 0.02349(4) 0.67875(3) 1.94733(6)
Cu1A Cu -0.02349(4) 0.32125(3) 0.94733(6)
O5_2 O 0.0194(3) 0.73200(19) 0.7768(3)
N4A N 0.1466(3) 0.6597(2) 0.9359(5)
loop_
_geom_bond_atom_site_label_1
_geom_bond_atom_site_label_2
_geom_bond_site_symmetry_1
_geom_bond_site_symmetry_2
Cu1 O2 1_555 1_555
O1 C7 1_555 1_555
O2 C5 1_555 1_555
O3 C13 1_555 1_555
O4 C5 1_555 1_555
O5 C13 1_555 1_555
N1 C6 1_555 1_555
N2 C16 1_555 1_555
N3 Cu1 1_555 1_555
C1 C5 1_555 1_555
C2 H1 1_555 1_555
N4 C8 1_555 1_555
C3 C4 1_555 1_555
C4 C7 1_555 1_555
C6 H2 1_555 1_555
H3 C6 1_555 1_555
C7 H4 1_555 1_555
H5 C7 1_555 1_555
C8 H6 1_555 1_555
C9 C4 1_555 1_555
H7 C9 1_555 1_555
C10 C9 1_555 1_555
H8 C10 1_555 1_555
C11 C1 1_555 1_555
H9 C11 1_555 1_555
C12 C1 1_555 1_555
H10 C12 1_555 1_555
C13 C14 1_555 1_555
C14 C2 1_555 1_555
C15 O1 1_555 1_555
C16 N3 1_555 1_555
H11 C16 1_555 1_555
C17 C3 1_555 1_555
H12 C17 1_555 1_555
C18 H13 1_555 1_555
H14 C18 1_555 1_555
O6 C26 1_555 1_555
C19 C18 1_555 1_555
H15 C19 1_555 1_555
H16 C19 1_555 1_555
C20 N2 1_555 1_555
H17 C20 1_555 1_555
H18 C20 1_555 1_555
C21 N1 1_555 1_555
H19 C21 1_555 1_555
O7 H20 1_555 1_555
C22 N2 1_555 1_555
H21 C22 1_555 1_555
C23 C10 1_555 1_555
H22 C23 1_555 1_555
C24 N1 1_555 1_555
H23 C24 1_555 1_555
C25 N3 1_555 1_555
H24 C25 1_555 1_555
C26 C3 1_555 1_555
C27 C6 1_555 1_555
H25 C27 1_555 1_555
H26 C27 1_555 1_555
Cu1_2 O5 1_555 1_555
Cu1A N4 1_555 1_555
O5_2 Cu1 1_555 1_555
N4A Cu1 1_555 1_555
C2 C15 1_555 1_555
N4 C21 1_555 1_555
C8 C24 1_555 1_555
C11 C15 1_555 1_555
C12 C14 1_555 1_555
C17 C23 1_555 1_555
C18 C27 1_555 1_555
C19 C20 1_555 1_555
O7 C26 1_555 1_555
C22 C25 1_555 1_555

#END
