
#######################################################################
#
#                 Cambridge Crystallographic Data Centre
#                                CCDC 
#
#######################################################################
#
# If this CIF has been generated from an entry in the Cambridge 
# Structural Database, then it will include bibliographic, chemical, 
# crystal, experimental, refinement or atomic coordinate data resulting 
# from the CCDC's data processing and validation procedures.
#
#######################################################################

data_LASYAH
_symmetry_cell_setting           triclinic
_symmetry_space_group_name_H-M   'P -1'
_symmetry_Int_Tables_number      2
_space_group_name_Hall           '-P 1'
loop_
_symmetry_equiv_pos_site_id
_symmetry_equiv_pos_as_xyz
1 x,y,z
2 -x,-y,-z
_cell_length_a                   12.846(5)
_cell_length_b                   12.858(5)
_cell_length_c                   13.629(5)
_cell_angle_alpha                89.363(5)
_cell_angle_beta                 84.024(5)
_cell_angle_gamma                76.580(5)
_cell_volume                     2177.59
loop_
_atom_site_label
_atom_site_type_symbol
_atom_site_fract_x
_atom_site_fract_y
_atom_site_fract_z
Co1 Co 0.49653(5) 0.23737(5) 0.75024(4)
N1 N 0.1591(3) 0.3523(4) 0.7989(3)
N2 N 0.3334(3) 0.3287(3) 0.7699(3)
N3 N -0.3608(3) 0.3954(4) 0.9580(3)
N4 N 0.6563(3) 0.1359(3) 0.7286(3)
N5 N -0.4470(3) 0.3401(3) 0.8455(3)
C7 C 0.1772(4) 0.4459(5) 0.7610(4)
H3 H 0.1260 0.5078 0.7498
N6 N 0.8318(3) 0.0836(4) 0.7261(3)
C11 C -0.2946(4) 0.3921(5) 1.0398(4)
H6 H -0.2763 0.3197 1.0641
H7 H -0.3357 0.4378 1.0932
C12 C 0.7474(4) 0.1661(4) 0.7195(4)
H8 H 0.7528 0.2364 0.7096
C16 C -0.4536(4) 0.4465(4) 0.8358(4)
H11 H -0.4892 0.4891 0.7883
C18 C -0.0132(5) 0.3943(5) 0.9029(4)
H13 H -0.0273 0.4675 0.8802
H14 H 0.0239 0.3910 0.9618
C19 C -0.3899(4) 0.3118(4) 0.9202(4)
H15 H -0.3719 0.2425 0.9438
C20 C 0.2849(4) 0.4299(4) 0.7431(3)
H16 H 0.3211 0.4802 0.7165
C21 C 1.1997(4) -0.0304(4) 0.5533(4)
H17 H 1.1895 0.0149 0.4960
H18 H 1.1747 -0.0941 0.5407
C22 C 0.6841(4) 0.0274(4) 0.7399(3)
H19 H 0.6362 -0.0171 0.7469
C25 C 1.1326(4) 0.0276(5) 0.6407(4)
H22 H 1.1469 0.0981 0.6454
H23 H 1.1530 -0.0108 0.7000
C26 C 0.0548(5) 0.3242(5) 0.8269(4)
H24 H 0.0166 0.3272 0.7687
H25 H 0.0682 0.2513 0.8502
C27 C -0.4019(4) 0.4818(4) 0.9040(4)
H26 H -0.3954 0.5515 0.9127
C28 C 1.0132(4) 0.0392(5) 0.6353(4)
H27 H 0.9920 0.0827 0.5789
H28 H 1.0003 -0.0310 0.6242
C29 C 0.7912(5) -0.0047(5) 0.7392(4)
H29 H 0.8303 -0.0744 0.7464
C30 C 0.2538(4) 0.2858(4) 0.8033(4)
H30 H 0.2629 0.2166 0.8273
C31 C -0.1921(5) 0.4284(5) 1.0086(4)
H31 H -0.2109 0.5016 0.9863
H32 H -0.1523 0.4273 1.0655
C33 C 1.3184(4) -0.0626(5) 0.5652(4)
H34 H 1.3291 -0.1082 0.6222
H35 H 1.3559 -0.1037 0.5075
C34 C 0.9446(5) 0.0876(6) 0.7243(5)
H36 H 0.9732 0.0512 0.7818
H37 H 0.9486 0.1618 0.7293
C35 C -0.1213(5) 0.3605(5) 0.9282(4)
H38 H -0.1589 0.3659 0.8695
H39 H -0.1065 0.2864 0.9484
N7 N 1.3646(3) 0.0295(3) 0.5777(3)
N8 N 1.4396(3) 0.1438(3) 0.6465(3)
C36 C 1.4184(4) 0.1764(5) 0.5526(4)
H40 H 1.4335 0.2374 0.5228
C37 C 1.4062(4) 0.0545(4) 0.6574(4)
H41 H 1.4111 0.0137 0.7142
C38 C 1.3725(4) 0.1065(5) 0.5104(4)
H42 H 1.3505 0.1103 0.4473
O11 O 0.4671(3) 0.1353(3) 0.8682(2)
H43 H 0.406(4) 0.152(4) 0.912(4)
H44 H 0.521(4) 0.114(5) 0.903(4)
O12 O 0.5336(3) 0.3333(3) 0.6316(2)
H45 H 0.5961(19) 0.316(4) 0.598(3)
H46 H 0.493(3) 0.390(3) 0.610(3)
Co1_2 Co -0.50347(5) 0.23737(5) 0.75024(4)
Co1_3 Co 1.49653(5) 0.23737(5) 0.75024(4)
N5_2 N 0.5530(3) 0.3401(3) 0.8455(3)
N8_2 N 0.4396(3) 0.1438(3) 0.6465(3)
O1 O 0.1657(3) 0.4549(3) 0.3253(2)
O2 O 0.2872(3) 0.1428(3) -0.0064(2)
O3 O 0.2950(3) 0.6524(3) 0.4954(2)
O4 O 0.5911(3) 0.1574(3) 0.1841(3)
O5 O 0.2137(3) 0.6972(3) 0.6485(3)
H1 H 0.2752 0.6980 0.6588
C1 C 0.3753(4) 0.2220(4) 0.1500(3)
H2 H 0.4208 0.1698 0.1088
C2 C 0.1080(4) 0.6641(4) 0.5207(3)
C3 C 0.2221(5) 0.1977(4) 0.0587(3)
C4 C 0.2411(4) 0.3773(4) 0.2708(3)
O6 O 0.1230(3) 0.2117(3) 0.0615(3)
C5 C 0.1038(4) 0.5951(4) 0.4431(3)
C6 C 0.2670(4) 0.2506(4) 0.1377(3)
O7 O 0.5759(3) 0.2907(3) 0.2876(3)
C8 C 0.2000(4) 0.3289(4) 0.1999(3)
H4 H 0.1268 0.3484 0.1932
C9 C 0.4173(4) 0.2692(4) 0.2224(3)
C10 C 0.3489(4) 0.3476(4) 0.2834(3)
H5 H 0.3760 0.3800 0.3326
C13 C 0.2014(4) 0.5188(4) 0.3937(3)
H9 H 0.2499 0.5580 0.3595
H10 H 0.2393 0.4738 0.4424
C14 C 0.2126(4) 0.6699(4) 0.5538(3)
C15 C 0.5369(4) 0.2368(4) 0.2325(4)
C17 C 0.0022(5) 0.5962(4) 0.4135(4)
H12 H -0.0029 0.5501 0.3630
C23 C 0.0121(4) 0.7285(4) 0.5655(3)
H20 H 0.0150 0.7722 0.6186
C24 C -0.0844(5) 0.7295(4) 0.5341(4)
H21 H -0.1465 0.7745 0.5645
C32 C -0.0904(4) 0.6637(4) 0.4570(4)
H33 H -0.1565 0.6647 0.4343
O8 O 0.8080(4) 0.1294(4) 0.1400(4)
O9 O 0.0670(7) 0.0684(7) -0.0586(6)
O13 O 0.4746(4) 0.5410(3) 0.5978(3)
H47 H 0.462(5) 0.595(3) 0.637(4)
H48 H 0.450(5) 0.561(5) 0.543(2)
O14 O 0.6198(4) 0.0707(3) 0.9944(3)
H49 H 0.607(6) 0.091(5) 1.052(4)
H50 H 0.639(6) 0.013(6) 0.992(5)
O15 O -0.0488(4) 0.2317(6) 0.1982(4)
H51 H -0.050(7) 0.295(2) 0.181(7)
H52 H 0.012(3) 0.190(5) 0.201(7)
O10? O 0.1156(15) -0.0022(15) 0.0149(13)
loop_
_geom_bond_atom_site_label_1
_geom_bond_atom_site_label_2
_geom_bond_site_symmetry_1
_geom_bond_site_symmetry_2
Co1 N2 1_555 1_555
O1 C4 1_555 1_555
O2 C3 1_555 1_555
O3 C14 1_555 1_555
O4 C15 1_555 1_555
N1 C7 1_555 1_555
N2 C20 1_555 1_555
O5 H1 1_555 1_555
C1 H2 1_555 1_555
C2 C5 1_555 1_555
C3 O6 1_555 1_555
C4 C8 1_555 1_555
N3 C11 1_555 1_555
C5 C13 1_555 1_555
C6 C1 1_555 1_555
N4 Co1 1_555 1_555
O7 C15 1_555 1_555
N5 C16 1_555 1_555
C7 H3 1_555 1_555
N6 C12 1_555 1_555
C8 C6 1_555 1_555
H4 C8 1_555 1_555
C9 C1 1_555 1_555
C10 C4 1_555 1_555
H5 C10 1_555 1_555
C11 H6 1_555 1_555
H7 C11 1_555 1_555
C12 N4 1_555 1_555
H8 C12 1_555 1_555
C13 O1 1_555 1_555
H9 C13 1_555 1_555
H10 C13 1_555 1_555
C14 O5 1_555 1_555
C15 C9 1_555 1_555
C16 H11 1_555 1_555
C17 C5 1_555 1_555
H12 C17 1_555 1_555
C18 H13 1_555 1_555
H14 C18 1_555 1_555
C19 N3 1_555 1_555
H15 C19 1_555 1_555
C20 C7 1_555 1_555
H16 C20 1_555 1_555
C21 H17 1_555 1_555
H18 C21 1_555 1_555
C22 N4 1_555 1_555
H19 C22 1_555 1_555
C23 C2 1_555 1_555
H20 C23 1_555 1_555
C24 C23 1_555 1_555
H21 C24 1_555 1_555
C25 C21 1_555 1_555
H22 C25 1_555 1_555
H23 C25 1_555 1_555
C26 N1 1_555 1_555
H24 C26 1_555 1_555
H25 C26 1_555 1_555
C27 N3 1_555 1_555
H26 C27 1_555 1_555
C28 C25 1_555 1_555
H27 C28 1_555 1_555
H28 C28 1_555 1_555
C29 N6 1_555 1_555
H29 C29 1_555 1_555
C30 N1 1_555 1_555
H30 C30 1_555 1_555
C31 C11 1_555 1_555
H31 C31 1_555 1_555
H32 C31 1_555 1_555
C32 C17 1_555 1_555
H33 C32 1_555 1_555
C33 C21 1_555 1_555
H34 C33 1_555 1_555
H35 C33 1_555 1_555
C34 N6 1_555 1_555
H36 C34 1_555 1_555
H37 C34 1_555 1_555
C35 C18 1_555 1_555
H38 C35 1_555 1_555
H39 C35 1_555 1_555
N7 C33 1_555 1_555
N8 C36 1_555 1_555
C36 H40 1_555 1_555
C37 N7 1_555 1_555
H41 C37 1_555 1_555
C38 N7 1_555 1_555
H42 C38 1_555 1_555
O11 Co1 1_555 1_555
H43 O11 1_555 1_555
H44 O11 1_555 1_555
O12 Co1 1_555 1_555
H45 O12 1_555 1_555
H46 O12 1_555 1_555
O13 H47 1_555 1_555
H48 O13 1_555 1_555
O14 H49 1_555 1_555
H50 O14 1_555 1_555
O15 H51 1_555 1_555
H52 O15 1_555 1_555
Co1_2 N5 1_555 1_555
Co1_3 N8 1_555 1_555
N5_2 Co1 1_555 1_555
N8_2 Co1 1_555 1_555
N2 C30 1_555 1_555
C2 C14 1_555 1_555
C3 C6 1_555 1_555
N5 C19 1_555 1_555
C9 C10 1_555 1_555
C16 C27 1_555 1_555
C18 C26 1_555 1_555
C22 C29 1_555 1_555
C24 C32 1_555 1_555
C28 C34 1_555 1_555
C31 C35 1_555 1_555
N8 C37 1_555 1_555
C36 C38 1_555 1_555

#END
