
#######################################################################
#
#                 Cambridge Crystallographic Data Centre
#                                CCDC 
#
#######################################################################
#
# If this CIF has been generated from an entry in the Cambridge 
# Structural Database, then it will include bibliographic, chemical, 
# crystal, experimental, refinement or atomic coordinate data resulting 
# from the CCDC's data processing and validation procedures.
#
#######################################################################

data_LASYEL
_symmetry_cell_setting           triclinic
_symmetry_space_group_name_H-M   'P -1'
_symmetry_Int_Tables_number      2
_space_group_name_Hall           '-P 1'
loop_
_symmetry_equiv_pos_site_id
_symmetry_equiv_pos_as_xyz
1 x,y,z
2 -x,-y,-z
_cell_length_a                   8.9508(4)
_cell_length_b                   9.0335(3)
_cell_length_c                   18.2518(7)
_cell_angle_alpha                76.907(3)
_cell_angle_beta                 79.085(4)
_cell_angle_gamma                65.248(4)
_cell_volume                     1297.89
loop_
_atom_site_label
_atom_site_type_symbol
_atom_site_fract_x
_atom_site_fract_y
_atom_site_fract_z
Cu1 Cu 1.0000 0.0000 0.5000
Cu2 Cu 1.0000 0.0000 1.0000
O1 O 1.0385(5) -0.6591(4) 0.80544(19)
O2 O 1.0296(5) 0.0025(5) 0.6396(2)
O3 O 1.0381(4) -0.1936(4) 0.58244(18)
O4 O 1.0326(7) -0.2980(6) 0.9819(2)
C1 C 1.0302(6) -0.4029(6) 0.7226(3)
H1 H 1.0340 -0.4426 0.6792
C2 C 1.0193(6) -0.1872(6) 0.7810(3)
H2 H 1.0165 -0.0816 0.7770
C3 C 1.0278(6) -0.2463(6) 0.7170(2)
O5 O 0.9687(5) -0.0550(5) 0.9085(2)
C4 C 1.0270(6) -0.5001(6) 0.7933(3)
O6 O 0.8067(6) -0.3949(5) 0.5591(3)
O7 O 0.9638(7) -0.6691(6) 0.5762(3)
H3 H 1.0088 -0.6441 0.5346
C5 C 1.0148(6) -0.2819(6) 0.8514(3)
N1 N 0.5268(6) 0.0646(7) 0.5903(3)
N2 N 0.7601(5) 0.0711(6) 0.5293(2)
C6 C 1.0210(6) -0.4386(6) 0.8575(3)
H4 H 1.0212 -0.5040 0.9049
C7 C 0.8131(7) -0.6331(7) 0.7405(3)
N3 N 0.4560(8) -0.0463(9) 0.8897(3)
C8 C 0.9947(7) -0.7124(6) 0.7475(3)
H5 H 1.0288 -0.8315 0.7587
H6 H 1.0539 -0.6859 0.6995
C9 C 0.7444(8) -0.5544(7) 0.6727(4)
C10 C 1.0334(6) -0.1375(7) 0.6418(3)
C11 C 1.0050(8) -0.2091(8) 0.9205(3)
C12 C 0.8406(8) -0.5324(8) 0.5981(4)
N4 N 0.2393(7) -0.0611(9) 0.9626(3)
C13 C 0.6401(8) 0.2260(8) 0.5203(4)
H7 H 0.6551 0.3196 0.4927
C14 C 0.6871(7) -0.0243(7) 0.5721(3)
H8 H 0.7400 -0.1376 0.5874
C15 C 0.4737(10) -0.4850(11) 0.7423(7)
H9 H 0.3592 -0.4360 0.7426
C16 C 0.5721(10) -0.4801(9) 0.6747(5)
H10 H 0.5236 -0.4268 0.6301
C17 C 0.5403(11) -0.5597(11) 0.8082(6)
H11 H 0.4721 -0.5613 0.8534
C18 C 0.4954(9) 0.2232(9) 0.5576(4)
H12 H 0.3942 0.3128 0.5603
C19 C 0.5615(10) 0.0123(13) 0.8340(5)
H13 H 0.6730 -0.0395 0.8487
H14 H 0.5243 0.1306 0.8313
C20 C 0.4169(8) -0.0004(10) 0.6469(5)
H15 H 0.3048 0.0548 0.6329
H16 H 0.4527 -0.1175 0.6464
C21 C 0.3699(13) -0.2255(13) 0.9693(6)
H17 H 0.3655 -0.3234 0.9976
C22 C 0.7105(9) -0.6340(9) 0.8080(4)
H18 H 0.7566 -0.6848 0.8534
C23 C 0.5032(12) -0.2014(16) 0.9234(6)
H19 H 0.6094 -0.2823 0.9175
C24 C 0.5640(13) -0.0237(16) 0.7566(5)
H20 H 0.6324 0.0262 0.7215
H21 H 0.6211 -0.1424 0.7587
C25 C 0.3030(10) 0.0260(11) 0.9192(5)
H22 H 0.2451 0.1396 0.9074
C26 C 0.4177(11) 0.0243(15) 0.7243(5)
H23 H 0.3574 0.1415 0.7255
H24 H 0.3527 -0.0314 0.7581
Cu2_2 Cu 0.0000 0.0000 1.0000
Cu2_3 Cu 1.0000 0.0000 0.0000
Cu2_4 Cu 2.0000 0.0000 0.0000
O1A O 0.9615(5) 0.6591(4) 0.19456(19)
O2A O 0.9704(5) -0.0025(5) 0.3604(2)
O3A O 0.9619(4) 0.1936(4) 0.41756(18)
O4A O 0.9674(7) 0.2980(6) 0.0181(2)
C1A C 0.9698(6) 0.4029(6) 0.2774(3)
H1A H 0.9660 0.4426 0.3208
C2A C 0.9807(6) 0.1872(6) 0.2190(3)
H2A H 0.9835 0.0816 0.2230
C3A C 0.9722(6) 0.2463(6) 0.2830(2)
O5A O 1.0313(5) 0.0550(5) 0.0915(2)
O5A_2 O 1.0313(5) 0.0550(5) 1.0915(2)
C4A C 0.9730(6) 0.5001(6) 0.2067(3)
O6A O 1.1933(6) 0.3949(5) 0.4409(3)
O7A O 1.0362(7) 0.6691(6) 0.4238(3)
H3A H 0.9912 0.6441 0.4654
C5A C 0.9852(6) 0.2819(6) 0.1486(3)
N1A N 1.4732(6) -0.0646(7) 0.4097(3)
N2A N 1.2399(5) -0.0711(6) 0.4707(2)
C6A C 0.9790(6) 0.4386(6) 0.1425(3)
H4A H 0.9788 0.5040 0.0951
C7A C 1.1869(7) 0.6331(7) 0.2595(3)
N3A N 1.5440(8) 0.0463(9) 0.1103(3)
C8A C 1.0053(7) 0.7124(6) 0.2525(3)
H5A H 0.9712 0.8315 0.2413
H6A H 0.9461 0.6859 0.3005
C9A C 1.2556(8) 0.5544(7) 0.3273(4)
C10A C 0.9666(6) 0.1375(7) 0.3582(3)
C11A C 0.9950(8) 0.2091(8) 0.0795(3)
C12A C 1.1594(8) 0.5324(8) 0.4019(4)
N4A N 1.7607(7) 0.0611(9) 0.0374(3)
N4_2 N 1.2393(7) -0.0611(9) 0.9626(3)
N4A_2 N 0.7607(7) 0.0611(9) 1.0374(3)
C13A C 1.3599(8) -0.2260(8) 0.4797(4)
H7A H 1.3449 -0.3196 0.5073
C14A C 1.3129(7) 0.0243(7) 0.4279(3)
H8A H 1.2600 0.1376 0.4126
C15A C 1.5263(10) 0.4850(11) 0.2577(7)
H9A H 1.6408 0.4360 0.2574
C16A C 1.4279(10) 0.4801(9) 0.3253(5)
H10A H 1.4764 0.4268 0.3699
C17A C 1.4597(11) 0.5597(11) 0.1918(6)
H11A H 1.5279 0.5613 0.1466
C18A C 1.5046(9) -0.2232(9) 0.4424(4)
H12A H 1.6058 -0.3128 0.4397
C19A C 1.4385(10) -0.0123(13) 0.1660(5)
H13A H 1.3270 0.0395 0.1513
H14A H 1.4757 -0.1306 0.1687
C20A C 1.5831(8) 0.0004(10) 0.3531(5)
H15A H 1.6952 -0.0548 0.3671
H16A H 1.5473 0.1175 0.3536
C21A C 1.6301(13) 0.2255(13) 0.0307(6)
H17A H 1.6345 0.3234 0.0024
C22A C 1.2895(9) 0.6340(9) 0.1920(4)
H18A H 1.2434 0.6848 0.1466
C23A C 1.4968(12) 0.2014(16) 0.0766(6)
H19A H 1.3906 0.2823 0.0825
C24A C 1.4360(13) 0.0237(16) 0.2434(5)
H20A H 1.3676 -0.0262 0.2785
H21A H 1.3789 0.1424 0.2413
C25A C 1.6970(10) -0.0260(11) 0.0808(5)
H22A H 1.7549 -0.1396 0.0926
C26A C 1.5823(11) -0.0243(15) 0.2757(5)
H23A H 1.6426 -0.1415 0.2745
H24A H 1.6473 0.0314 0.2419
loop_
_geom_bond_atom_site_label_1
_geom_bond_atom_site_label_2
_geom_bond_site_symmetry_1
_geom_bond_site_symmetry_2
Cu1 O3 1_555 1_555
Cu2 O5 1_555 1_555
O1 C4 1_555 1_555
O2 C10 1_555 1_555
O3 C10 1_555 1_555
O4 C11 1_555 1_555
C1 H1 1_555 1_555
C2 H2 1_555 1_555
C3 C1 1_555 1_555
O5 C11 1_555 1_555
C4 C1 1_555 1_555
O6 C12 1_555 1_555
O7 H3 1_555 1_555
C5 C2 1_555 1_555
N1 C14 1_555 1_555
N2 Cu1 1_555 1_555
C6 C4 1_555 1_555
H4 C6 1_555 1_555
C7 C8 1_555 1_555
N3 C19 1_555 1_555
C8 O1 1_555 1_555
H5 C8 1_555 1_555
H6 C8 1_555 1_555
C9 C7 1_555 1_555
C10 C3 1_555 1_555
C11 C5 1_555 1_555
C12 O7 1_555 1_555
N4 C21 1_555 1_555
C13 N2 1_555 1_555
H7 C13 1_555 1_555
C14 N2 1_555 1_555
H8 C14 1_555 1_555
C15 H9 1_555 1_555
C16 C9 1_555 1_555
H10 C16 1_555 1_555
C17 C15 1_555 1_555
H11 C17 1_555 1_555
C18 N1 1_555 1_555
H12 C18 1_555 1_555
C19 H13 1_555 1_555
H14 C19 1_555 1_555
C20 N1 1_555 1_555
H15 C20 1_555 1_555
H16 C20 1_555 1_555
C21 H17 1_555 1_555
C22 C7 1_555 1_555
H18 C22 1_555 1_555
C23 N3 1_555 1_555
H19 C23 1_555 1_555
C24 C19 1_555 1_555
H20 C24 1_555 1_555
H21 C24 1_555 1_555
C25 N3 1_555 1_555
H22 C25 1_555 1_555
C26 C20 1_555 1_555
H23 C26 1_555 1_555
H24 C26 1_555 1_555
Cu2_2 N4 1_555 1_555
Cu2_3 O5A 1_555 1_555
Cu2_4 N4A 1_555 1_555
O1A C4A 1_555 1_555
O2A C10A 1_555 1_555
O3A Cu1 1_555 1_555
O4A C11A 1_555 1_555
C1A H1A 1_555 1_555
C2A H2A 1_555 1_555
C3A C1A 1_555 1_555
O5A C11A 1_555 1_555
O5A_2 Cu2 1_555 1_555
C4A C1A 1_555 1_555
O6A C12A 1_555 1_555
O7A H3A 1_555 1_555
C5A C2A 1_555 1_555
N1A C14A 1_555 1_555
N2A Cu1 1_555 1_555
C6A C4A 1_555 1_555
H4A C6A 1_555 1_555
C7A C8A 1_555 1_555
N3A C19A 1_555 1_555
C8A O1A 1_555 1_555
H5A C8A 1_555 1_555
H6A C8A 1_555 1_555
C9A C7A 1_555 1_555
C10A O3A 1_555 1_555
C11A C5A 1_555 1_555
C12A O7A 1_555 1_555
N4A C21A 1_555 1_555
N4_2 Cu2 1_555 1_555
N4A_2 Cu2 1_555 1_555
C13A N2A 1_555 1_555
H7A C13A 1_555 1_555
C14A N2A 1_555 1_555
H8A C14A 1_555 1_555
C15A H9A 1_555 1_555
C16A C9A 1_555 1_555
H10A C16A 1_555 1_555
C17A C15A 1_555 1_555
H11A C17A 1_555 1_555
C18A N1A 1_555 1_555
H12A C18A 1_555 1_555
C19A H13A 1_555 1_555
H14A C19A 1_555 1_555
C20A N1A 1_555 1_555
H15A C20A 1_555 1_555
H16A C20A 1_555 1_555
C21A H17A 1_555 1_555
C22A C7A 1_555 1_555
H18A C22A 1_555 1_555
C23A N3A 1_555 1_555
H19A C23A 1_555 1_555
C24A C19A 1_555 1_555
H20A C24A 1_555 1_555
H21A C24A 1_555 1_555
C25A N3A 1_555 1_555
H22A C25A 1_555 1_555
C26A C20A 1_555 1_555
H23A C26A 1_555 1_555
H24A C26A 1_555 1_555
C2 C3 1_555 1_555
C5 C6 1_555 1_555
C9 C12 1_555 1_555
N4 C25 1_555 1_555
C13 C18 1_555 1_555
C15 C16 1_555 1_555
C17 C22 1_555 1_555
C21 C23 1_555 1_555
C24 C26 1_555 1_555
C2A C3A 1_555 1_555
C3A C10A 1_555 1_555
C5A C6A 1_555 1_555
C9A C12A 1_555 1_555
N4A C25A 1_555 1_555
C13A C18A 1_555 1_555
C15A C16A 1_555 1_555
C17A C22A 1_555 1_555
C21A C23A 1_555 1_555
C24A C26A 1_555 1_555

#END
