
#######################################################################
#
#                 Cambridge Crystallographic Data Centre
#                                CCDC 
#
#######################################################################
#
# If this CIF has been generated from an entry in the Cambridge 
# Structural Database, then it will include bibliographic, chemical, 
# crystal, experimental, refinement or atomic coordinate data resulting 
# from the CCDC's data processing and validation procedures.
#
#######################################################################

data_LATCEQ
_symmetry_cell_setting           monoclinic
_symmetry_space_group_name_H-M   'C 2/c'
_symmetry_Int_Tables_number      15
_space_group_name_Hall           '-C 2yn'
loop_
_symmetry_equiv_pos_site_id
_symmetry_equiv_pos_as_xyz
1 x,y,z
2 1/2+x,1/2+y,z
3 -x,y,1/2-z
4 1/2-x,1/2+y,1/2-z
5 -x,-y,-z
6 1/2-x,1/2-y,-z
7 x,-y,1/2+z
8 1/2+x,1/2-y,1/2+z
_cell_length_a                   45.797(2)
_cell_length_b                   5.4342(3)
_cell_length_c                   17.5936(9)
_cell_angle_alpha                90
_cell_angle_beta                 102.160(3)
_cell_angle_gamma                90
_cell_volume                     4280.28
loop_
_atom_site_label
_atom_site_type_symbol
_atom_site_fract_x
_atom_site_fract_y
_atom_site_fract_z
K1 K 0.717754(6) 1.51957(5) 0.653401(14)
S1 S 0.643962(6) 1.07299(5) 0.573529(14)
O1 O 0.66394(2) 1.26826(17) 0.60703(5)
O2 O 0.612903(19) 1.10168(18) 0.57524(5)
N1 N 0.65817(2) 0.82051(19) 0.61363(5)
C1 C 0.64679(2) 1.0291(2) 0.47601(6)
C2 C 0.66532(2) 1.1809(2) 0.44310(6)
C3 C 0.66740(2) 1.1366(2) 0.36619(6)
C4 C 0.68791(2) 1.2939(2) 0.32969(6)
O3 O 0.70061(2) 1.47432(18) 0.36816(5)
O4 O 0.691768(19) 1.23471(17) 0.26298(5)
C5 C 0.65148(2) 0.9443(2) 0.32404(6)
C6 C 0.63257(2) 0.7919(2) 0.35647(6)
C7 C 0.63048(2) 0.8395(2) 0.43388(6)
O5 O 0.613636(18) 0.68373(16) 0.46993(5)
C8 C 0.58251(2) 0.7073(2) 0.44911(6)
C9 C 0.56845(3) 0.8996(3) 0.40415(8)
C10 C 0.53731(3) 0.9064(3) 0.38579(9)
C11 C 0.52075(3) 0.7248(3) 0.41237(10)
C12 C 0.53530(3) 0.5338(3) 0.45761(10)
C13 C 0.56639(3) 0.5231(3) 0.47638(8)
N2 N 0.61598(2) 0.6050(2) 0.31717(5)
C14 C 0.61567(3) 0.5454(2) 0.23650(6)
C15 C 0.59268(3) 0.3456(2) 0.20796(7)
C16 C 0.56058(3) 0.4245(3) 0.20487(10)
C17 C 0.53827(4) 0.2208(4) 0.17478(12)
O6 O 0.77324(2) 1.70213(18) 0.71977(5)
O7 O 0.74007(3) 1.1790(3) 0.56822(8)
O8 O 0.71933(3) 1.7249(2) 0.50909(6)
H1 H 0.6537 0.9062 0.2741
H2 H 0.6766 1.3064 0.4712
H3 H 0.5786 1.0142 0.3893
H4 H 0.5272 1.0410 0.3507
H5 H 0.5003 0.7164 0.3983
H6 H 0.5235 0.4095 0.4748
H7 H 0.5768 0.3937 0.5103
H8 H 0.6352 0.4863 0.2293
H9 H 0.6122 0.6967 0.2076
H10 H 0.5945 0.2893 0.1570
H11 H 0.5974 0.2000 0.2429
H12 H 0.5576 0.5721 0.1691
H13 H 0.5579 0.4908 0.2514
H14 H 0.5179 0.2786 0.1745
H15 H 0.5393 0.1662 0.1231
H16 H 0.5415 0.0638 0.2034
H17 H 0.6476 0.6959 0.6005
H18 H 0.6086 0.5092 0.3418
H19 H 0.7822 1.7962 0.6909
H20 H 0.6664 0.8387 0.6641
H21 H 0.7832 1.5735 0.7284
H22 H 0.7578 1.1108 0.5948
H23 H 0.7340 1.0511 0.5948
H24 H 0.7178 1.8869 0.5159
H25 H 0.7073 1.6835 0.4649
K1_2 K 0.717754(6) 0.51957(5) 0.653401(14)
K1F K 0.717754(6) 1.48043(5) 0.153401(14)
K1C K 0.782246(6) 2.01957(5) 0.846599(14)
N1_2 N 0.65817(2) 1.82051(19) 0.61363(5)
O4F O 0.691768(19) 1.76529(17) 0.76298(5)
O6C O 0.72676(2) 1.20213(18) 0.78023(5)
H17_2 H 0.6476 1.6959 0.6005
H19C H 0.7178 1.2962 0.8091
H20_2 H 0.6664 1.8387 0.6641
H21C H 0.7168 1.0735 0.7716
loop_
_geom_bond_atom_site_label_1
_geom_bond_atom_site_label_2
_geom_bond_site_symmetry_1
_geom_bond_site_symmetry_2
K1 O1 1_555 1_555
S1 O1 1_555 1_555
O2 S1 1_555 1_555
N1 S1 1_555 1_555
C1 S1 1_555 1_555
C2 C1 1_555 1_555
C3 C2 1_555 1_555
C4 C3 1_555 1_555
O3 C4 1_555 1_555
O4 C4 1_555 1_555
C5 C3 1_555 1_555
C6 C5 1_555 1_555
C7 C1 1_555 1_555
O5 C7 1_555 1_555
C8 O5 1_555 1_555
C9 C8 1_555 1_555
C10 C9 1_555 1_555
C11 C10 1_555 1_555
C12 C11 1_555 1_555
C13 C8 1_555 1_555
N2 C6 1_555 1_555
C14 N2 1_555 1_555
C15 C14 1_555 1_555
C16 C15 1_555 1_555
C17 C16 1_555 1_555
O6 K1 1_555 1_555
O7 K1 1_555 1_555
O8 K1 1_555 1_555
H1 C5 1_555 1_555
H2 C2 1_555 1_555
H3 C9 1_555 1_555
H4 C10 1_555 1_555
H5 C11 1_555 1_555
H6 C12 1_555 1_555
H7 C13 1_555 1_555
H8 C14 1_555 1_555
H9 C14 1_555 1_555
H10 C15 1_555 1_555
H11 C15 1_555 1_555
H12 C16 1_555 1_555
H13 C16 1_555 1_555
H14 C17 1_555 1_555
H15 C17 1_555 1_555
H16 C17 1_555 1_555
H17 N1 1_555 1_555
H18 N2 1_555 1_555
H19 O6 1_555 1_555
H20 N1 1_555 1_555
H21 O6 1_555 1_555
H22 O7 1_555 1_555
H23 O7 1_555 1_555
H24 O8 1_555 1_555
H25 O8 1_555 1_555
K1_2 N1 1_555 1_555
K1F O4 1_555 1_555
K1C O6 1_555 1_555
N1_2 K1 1_555 1_555
O4F K1 1_555 1_555
O6C K1 1_555 1_555
H17_2 N1_2 1_555 1_555
H19C O6C 1_555 1_555
H20_2 N1_2 1_555 1_555
H21C O6C 1_555 1_555
C6 C7 1_555 1_555
C12 C13 1_555 1_555

#END
