
#######################################################################
#
#                 Cambridge Crystallographic Data Centre
#                                CCDC 
#
#######################################################################
#
# If this CIF has been generated from an entry in the Cambridge 
# Structural Database, then it will include bibliographic, chemical, 
# crystal, experimental, refinement or atomic coordinate data resulting 
# from the CCDC's data processing and validation procedures.
#
#######################################################################

data_LATHOD
_symmetry_cell_setting           orthorhombic
_symmetry_space_group_name_H-M   'P 21 21 21'
_symmetry_Int_Tables_number      19
_space_group_name_Hall           'P 2ac 2ab'
loop_
_symmetry_equiv_pos_site_id
_symmetry_equiv_pos_as_xyz
1 x,y,z
2 1/2+x,1/2-y,-z
3 -x,1/2+y,1/2-z
4 1/2-x,-y,1/2+z
_cell_length_a                   13.504(4)
_cell_length_b                   9.799(3)
_cell_length_c                   5.965(2)
_cell_angle_alpha                90
_cell_angle_beta                 90
_cell_angle_gamma                90
_cell_volume                     789.323
loop_
_atom_site_label
_atom_site_type_symbol
_atom_site_fract_x
_atom_site_fract_y
_atom_site_fract_z
Al1 Al 0.8528(4) 0.741(1) 0.132(1)
C1 C 0.680(1) 0.771(3) 0.437(3)
N1 N 0.696(1) 0.763(3) 0.187(2)
C2 C 0.654(3) 0.632(3) 0.078(5)
C3 C 0.539(2) 0.641(2) 0.088(4)
O1 O 1.0117(7) 0.733(2) 0.059(2)
C4 C 1.044(2) 0.616(2) -0.036(4)
C5 C 0.657(4) 0.883(3) 0.091(6)
O1A O 0.5117(7) 0.767(2) -0.059(2)
C3A C 1.039(2) 0.859(2) -0.088(4)
C5A C 1.157(4) 0.617(3) -0.091(6)
C4A C 0.544(2) 0.884(2) 0.036(4)
Al1A Al 0.3528(4) 0.759(1) -0.132(1)
C2A C 1.154(3) 0.868(3) -0.078(5)
N1A N 1.196(1) 0.737(3) -0.187(2)
N1A_2 N 0.196(1) 0.737(3) -0.187(2)
Al1A_2 Al 1.3528(4) 0.759(1) -0.132(1)
C1A C 1.180(1) 0.729(3) -0.437(3)
loop_
_geom_bond_atom_site_label_1
_geom_bond_atom_site_label_2
_geom_bond_site_symmetry_1
_geom_bond_site_symmetry_2
Al1 N1 1_555 1_555
C1 N1 1_555 1_555
N1 C2 1_555 1_555
C2 C3 1_555 1_555
C3 O1A 1_555 1_555
O1 Al1 1_555 1_555
C4 O1 1_555 1_555
C5 N1 1_555 1_555
O1A C4A 1_555 1_555
C3A O1 1_555 1_555
C5A C4 1_555 1_555
C4A C5 1_555 1_555
Al1A O1A 1_555 1_555
C2A C3A 1_555 1_555
N1A C5A 1_555 1_555
N1A_2 Al1A 1_555 1_555
Al1A_2 N1A 1_555 1_555
C1A N1A 1_555 1_555
C2A N1A 1_555 1_555

#END
