
#######################################################################
#
#                 Cambridge Crystallographic Data Centre
#                                CCDC 
#
#######################################################################
#
# If this CIF has been generated from an entry in the Cambridge 
# Structural Database, then it will include bibliographic, chemical, 
# crystal, experimental, refinement or atomic coordinate data resulting 
# from the CCDC's data processing and validation procedures.
#
#######################################################################

data_LATPIG
_symmetry_cell_setting           rhombohedral
_symmetry_space_group_name_H-M   'R -3 c'
_symmetry_Int_Tables_number      167
_space_group_name_Hall           '-R 3 2"c'
loop_
_symmetry_equiv_pos_site_id
_symmetry_equiv_pos_as_xyz
1 x,y,z
2 -y,x-y,z
3 -x+y,-x,z
4 y,x,1/2-z
5 2/3+x,1/3+y,1/3+z
6 2/3-y,1/3+x-y,1/3+z
7 2/3-x+y,1/3-x,1/3+z
8 2/3+y,1/3+x,5/6-z
9 1/3+x,2/3+y,2/3+z
10 1/3+y,2/3+x,1/6-z
11 x-y,-y,1/2-z
12 -x,-x+y,1/2-z
13 1/3-y,2/3+x-y,2/3+z
14 1/3-x+y,2/3-x,2/3+z
15 1/3+x-y,2/3-y,1/6-z
16 1/3-x,2/3-x+y,1/6-z
17 2/3+x-y,1/3-y,5/6-z
18 2/3-x,1/3-x+y,5/6-z
19 -x,-y,-z
20 y,-x+y,-z
21 x-y,x,-z
22 -y,-x,1/2+z
23 1/3-x,2/3-y,2/3-z
24 1/3+y,2/3-x+y,2/3-z
25 1/3+x-y,2/3+x,2/3-z
26 1/3-y,2/3-x,1/6+z
27 2/3-x,1/3-y,1/3-z
28 2/3-y,1/3-x,5/6+z
29 -x+y,y,1/2+z
30 x,x-y,1/2+z
31 2/3+y,1/3-x+y,1/3-z
32 2/3+x-y,1/3+x,1/3-z
33 2/3-x+y,1/3+y,5/6+z
34 2/3+x,1/3+x-y,5/6+z
35 1/3-x+y,2/3+y,1/6+z
36 1/3+x,2/3+x-y,1/6+z
_cell_length_a                   18.6011(7)
_cell_length_b                   18.6011(7)
_cell_length_c                   9.9000(8)
_cell_angle_alpha                90
_cell_angle_beta                 90
_cell_angle_gamma                120.00
_cell_volume                     2966.49
loop_
_atom_site_label
_atom_site_type_symbol
_atom_site_fract_x
_atom_site_fract_y
_atom_site_fract_z
Zn1 Zn 0.37485(2) 0.37485(2) 0.2500
F1 F 0.33330(11) 0.4094 0.4167
C1 C 0.36806(16) 0.21208(15) 0.3272(2)
H1 H 0.3974 0.2116 0.2514
N1 N 0.35624(13) 0.27398(12) 0.3581(2)
N2 N 0.3333 0.14933(14) 0.4167
Zn1HA Zn 0.33333(3) 0.04152(2) 0.4167
Zn1E Zn 0.29182(2) 0.33333(3) 0.5833
F1C F 0.4094 0.33330(11) 0.0833
C1Q C 0.29861(16) 0.17735(22) 0.5061(2)
H1Q H 0.2693 0.1475 0.5819
N1Q N 0.31043(13) 0.25107(18) 0.4752(2)
N1C N 0.27398(12) 0.35624(13) 0.1419(2)
N2FA N 0.48270(14) 0.48266(14) 0.2500
O1 O 0.550(2) 0.348(2) 0.452(4)
O2? O 0.5932(9) 0.3349(10) 0.3716(14)
O3? O 0.580(3) 0.400(4) 0.096(6)
O4? O 0.6667 0.490(2) 0.0833
O5? O 0.5468(19) 0.3333 0.0833
O6? O 0.540(2) 0.316(3) -0.004(4)
O7? O 0.563(3) 0.367(5) 0.062(4)
loop_
_geom_bond_atom_site_label_1
_geom_bond_atom_site_label_2
_geom_bond_site_symmetry_1
_geom_bond_site_symmetry_2
Zn1 F1 1_555 1_555
F1 Zn1E 1_555 1_555
C1 H1 1_555 1_555
N1 Zn1 1_555 1_555
N2 C1 1_555 1_555
Zn1HA N2 1_555 1_555
Zn1E N1Q 1_555 1_555
F1C Zn1 1_555 1_555
C1Q N2 1_555 1_555
H1Q C1Q 1_555 1_555
N1Q N1 1_555 1_555
N1C Zn1 1_555 1_555
N2FA Zn1 1_555 1_555
C1 N1 1_555 1_555
C1Q N1Q 1_555 1_555

#END
