
#######################################################################
#
#                 Cambridge Crystallographic Data Centre
#                                CCDC 
#
#######################################################################
#
# If this CIF has been generated from an entry in the Cambridge 
# Structural Database, then it will include bibliographic, chemical, 
# crystal, experimental, refinement or atomic coordinate data resulting 
# from the CCDC's data processing and validation procedures.
#
#######################################################################

data_LATQED
_symmetry_cell_setting           orthorhombic
_symmetry_space_group_name_H-M   'P n a 21'
_symmetry_Int_Tables_number      33
_space_group_name_Hall           'P 2c -2n'
loop_
_symmetry_equiv_pos_site_id
_symmetry_equiv_pos_as_xyz
1 x,y,z
2 -x,-y,1/2+z
3 1/2+x,1/2-y,z
4 1/2-x,1/2+y,1/2+z
_cell_length_a                   10.077(2)
_cell_length_b                   19.098(4)
_cell_length_c                   8.432(2)
_cell_angle_alpha                90
_cell_angle_beta                 90
_cell_angle_gamma                90
_cell_volume                     1622.74
loop_
_atom_site_label
_atom_site_type_symbol
_atom_site_fract_x
_atom_site_fract_y
_atom_site_fract_z
Co1 Co 0.86421(8) 0.56139(4) 0.09389(15)
C1 C 0.8579(7) 0.4334(4) 0.0220(9)
C2 C 0.7077(7) 0.2593(4) 0.1132(12)
H1 H 0.6690 0.2371 0.2043
O1 O 0.9608(5) 0.6076(3) -0.0996(6)
H2 H 0.9730 0.5894 -0.2021
H3 H 1.0227 0.6128 -0.0250
O2 O 0.7956(5) 0.4767(3) -0.0619(6)
C3 C 0.8251(7) 0.3568(4) 0.0015(9)
C4 C 0.7101(7) 0.2243(4) -0.0330(10)
H4 H 0.6668 0.1799 -0.0457
O3 O 0.9345(5) 0.4548(3) 0.1329(6)
C5 C 0.7638(7) 0.3242(4) 0.1302(9)
H5 H 0.7583 0.3477 0.2306
C6 C 0.8336(7) 0.3227(4) -0.1431(9)
C7 C 0.9048(7) 0.3515(4) -0.2849(9)
C8 C 0.7742(8) 0.2567(4) -0.1588(10)
H6 H 0.7780 0.2339 -0.2602
O4 O 0.8631(5) 0.3362(2) -0.4195(8)
O5 O 1.0043(5) 0.3899(3) -0.2562(6)
N1 N 0.7441(6) 0.5473(3) 0.3023(8)
C9 C 0.5890(8) 0.6122(4) 0.1474(9)
C10 C 0.6642(8) 0.6470(4) -0.0966(10)
H7 H 0.7331 0.6470 -0.1752
C11 C 0.7853(8) 0.5173(4) 0.4383(9)
H8 H 0.8732 0.4980 0.4423
C12 C 0.6202(8) 0.5765(4) 0.2983(9)
N2 N 0.6861(6) 0.6141(3) 0.0394(7)
C13 C 0.4672(7) 0.6455(4) 0.1196(11)
H9 H 0.3971 0.6413 0.1962
C14 C 0.5473(8) 0.6819(5) -0.1323(10)
H10 H 0.5346 0.7053 -0.2320
C15 C 0.7073(7) 0.5146(4) 0.5733(10)
H11 H 0.7382 0.4917 0.6677
C16 C 0.5825(8) 0.5434(4) 0.5682(12)
H12 H 0.5284 0.5457 0.6617
C17 C 0.5376(8) 0.5753(5) 0.4316(10)
H13 H 0.4470 0.5904 0.4243
C18 C 0.4471(8) 0.6810(5) -0.0191(11)
H14 H 0.3653 0.7058 -0.0357
Co1A Co 1.13579(8) 0.43861(4) -0.40611(15)
O5A O 0.9957(5) 0.6101(3) 0.2438(6)
loop_
_geom_bond_atom_site_label_1
_geom_bond_atom_site_label_2
_geom_bond_site_symmetry_1
_geom_bond_site_symmetry_2
Co1 O1 1_555 1_555
C1 O2 1_555 1_555
C2 H1 1_555 1_555
O1 H2 1_555 1_555
H3 O1 1_555 1_555
O2 Co1 1_555 1_555
C3 C1 1_555 1_555
C4 C2 1_555 1_555
H4 C4 1_555 1_555
O3 Co1 1_555 1_555
C5 C2 1_555 1_555
H5 C5 1_555 1_555
C6 C3 1_555 1_555
C7 C6 1_555 1_555
C8 C4 1_555 1_555
H6 C8 1_555 1_555
O4 C7 1_555 1_555
O5 C7 1_555 1_555
N1 Co1 1_555 1_555
C9 C12 1_555 1_555
C10 H7 1_555 1_555
C11 N1 1_555 1_555
H8 C11 1_555 1_555
C12 N1 1_555 1_555
N2 Co1 1_555 1_555
C13 C9 1_555 1_555
H9 C13 1_555 1_555
C14 C10 1_555 1_555
H10 C14 1_555 1_555
C15 C11 1_555 1_555
H11 C15 1_555 1_555
C16 C15 1_555 1_555
H12 C16 1_555 1_555
C17 C12 1_555 1_555
H13 C17 1_555 1_555
C18 C13 1_555 1_555
H14 C18 1_555 1_555
Co1A O5 1_555 1_555
O5A Co1 1_555 1_555
C1 O3 1_555 1_555
C3 C5 1_555 1_555
C6 C8 1_555 1_555
C9 N2 1_555 1_555
C10 N2 1_555 1_555
C14 C18 1_555 1_555
C16 C17 1_555 1_555

#END
