
#######################################################################
#
#                 Cambridge Crystallographic Data Centre
#                                CCDC 
#
#######################################################################
#
# If this CIF has been generated from an entry in the Cambridge 
# Structural Database, then it will include bibliographic, chemical, 
# crystal, experimental, refinement or atomic coordinate data resulting 
# from the CCDC's data processing and validation procedures.
#
#######################################################################

data_LATREE
_symmetry_cell_setting           monoclinic
_symmetry_space_group_name_H-M   'P 21/n'
_symmetry_Int_Tables_number      14
_space_group_name_Hall           '-P 2yn'
loop_
_symmetry_equiv_pos_site_id
_symmetry_equiv_pos_as_xyz
1 x,y,z
2 1/2-x,1/2+y,1/2-z
3 -x,-y,-z
4 1/2+x,1/2-y,1/2+z
_cell_length_a                   10.1357(13)
_cell_length_b                   13.013(3)
_cell_length_c                   18.227(4)
_cell_angle_alpha                90
_cell_angle_beta                 90.160(4)
_cell_angle_gamma                90
_cell_volume                     2404.06
loop_
_atom_site_label
_atom_site_type_symbol
_atom_site_fract_x
_atom_site_fract_y
_atom_site_fract_z
Sn1 Sn 1.06150(4) 0.71730(3) 0.23840(2)
Sn2 Sn 0.56511(4) 0.75401(3) 0.30657(2)
O1 O 0.8801(4) 0.6667(4) 0.3251(2)
O2 O 0.7006(4) 0.7089(4) 0.3900(2)
O3 O 0.6920(4) 0.7228(4) 0.6522(3)
O4 O 0.8749(4) 0.7020(4) 0.7186(2)
O5 O 1.2735(4) 0.5747(4) 0.5889(3)
H1 H 1.3500 0.5546 0.5857
O6 O 1.2825(4) 0.5667(4) 0.4679(3)
C1 C 0.8902(5) 0.6667(5) 0.4562(3)
C2 C 0.8251(5) 0.6874(5) 0.5213(3)
H2 H 0.7377 0.7090 0.5197
C3 C 0.8870(5) 0.6767(5) 0.5888(3)
C4 C 1.0178(5) 0.6440(5) 0.5902(3)
H3 H 1.0619 0.6373 0.6348
C5 C 1.0832(5) 0.6212(5) 0.5242(3)
C6 C 1.0200(5) 0.6332(5) 0.4582(3)
H4 H 1.0643 0.6189 0.4148
C7 C 0.8203(5) 0.6827(5) 0.3841(3)
C8 C 0.8170(5) 0.7022(5) 0.6594(3)
C9 C 1.2234(5) 0.5846(5) 0.5238(4)
C10 C 1.1695(7) 0.5840(6) 0.2651(4)
H5 H 1.2337 0.6002 0.3022
H6 H 1.2136 0.5591 0.2221
H7 H 1.1105 0.5322 0.2831
C11 C 0.9166(6) 0.6927(7) 0.1577(4)
H8 H 0.9319 0.6279 0.1341
H9 H 0.9205 0.7468 0.1219
H10 H 0.8310 0.6923 0.1801
C12 C 1.0659(7) 0.8509(6) 0.3048(4)
H11 H 1.1393 0.8470 0.3381
H12 H 0.9854 0.8556 0.3322
H13 H 1.0750 0.9105 0.2742
C13 C 0.5730(7) 0.6200(6) 0.2420(5)
H14 H 0.6466 0.6241 0.2091
H15 H 0.4928 0.6135 0.2143
H16 H 0.5833 0.5611 0.2733
C14 C 0.6679(7) 0.8885(6) 0.2757(4)
H17 H 0.6526 0.9414 0.3114
H18 H 0.6371 0.9111 0.2285
H19 H 0.7606 0.8739 0.2732
C15 C 0.4183(7) 0.7776(8) 0.3865(4)
H20 H 0.4317 0.8431 0.4096
H21 H 0.4236 0.7242 0.4228
H22 H 0.3330 0.7761 0.3636
Sn1C Sn 0.56150(4) 0.78270(3) 0.73840(2)
O3C O 1.1920(4) 0.7772(4) 0.1522(3)
O7 O 0.5278(5) 0.5504(6) 0.5960(4)
H23 H 0.583(6) 0.591(5) 0.622(3)
H24 H 0.561(6) 0.539(6) 0.5508(18)
loop_
_geom_bond_atom_site_label_1
_geom_bond_atom_site_label_2
_geom_bond_site_symmetry_1
_geom_bond_site_symmetry_2
Sn1 O1 1_555 1_555
Sn2 O2 1_555 1_555
O1 C7 1_555 1_555
O2 C7 1_555 1_555
O3 C8 1_555 1_555
O4 C8 1_555 1_555
O5 H1 1_555 1_555
O6 C9 1_555 1_555
O7 H23 1_555 1_555
C1 C2 1_555 1_555
C2 H2 1_555 1_555
C3 C2 1_555 1_555
C4 C3 1_555 1_555
H3 C4 1_555 1_555
C5 C4 1_555 1_555
C6 C1 1_555 1_555
H4 C6 1_555 1_555
C7 C1 1_555 1_555
C8 C3 1_555 1_555
C9 O5 1_555 1_555
C10 Sn1 1_555 1_555
H5 C10 1_555 1_555
H6 C10 1_555 1_555
H7 C10 1_555 1_555
C11 Sn1 1_555 1_555
H8 C11 1_555 1_555
H9 C11 1_555 1_555
H10 C11 1_555 1_555
C12 Sn1 1_555 1_555
H11 C12 1_555 1_555
H12 C12 1_555 1_555
H13 C12 1_555 1_555
C13 Sn2 1_555 1_555
H14 C13 1_555 1_555
H15 C13 1_555 1_555
H16 C13 1_555 1_555
C14 Sn2 1_555 1_555
H17 C14 1_555 1_555
H18 C14 1_555 1_555
H19 C14 1_555 1_555
C15 Sn2 1_555 1_555
H20 C15 1_555 1_555
H21 C15 1_555 1_555
H22 C15 1_555 1_555
H24 O7 1_555 1_555
Sn1C O3 1_555 1_555
O3C Sn1 1_555 1_555
C5 C6 1_555 1_555
C5 C9 1_555 1_555

#END
