
#######################################################################
#
#                 Cambridge Crystallographic Data Centre
#                                CCDC 
#
#######################################################################
#
# If this CIF has been generated from an entry in the Cambridge 
# Structural Database, then it will include bibliographic, chemical, 
# crystal, experimental, refinement or atomic coordinate data resulting 
# from the CCDC's data processing and validation procedures.
#
#######################################################################

data_LATTIK
_symmetry_cell_setting           triclinic
_symmetry_space_group_name_H-M   'P -1'
_symmetry_Int_Tables_number      2
_space_group_name_Hall           '-P 1'
loop_
_symmetry_equiv_pos_site_id
_symmetry_equiv_pos_as_xyz
1 x,y,z
2 -x,-y,-z
_cell_length_a                   13.0842(7)
_cell_length_b                   14.0065(11)
_cell_length_c                   14.3344(10)
_cell_angle_alpha                64.445(3)
_cell_angle_beta                 88.805(3)
_cell_angle_gamma                74.099(3)
_cell_volume                     2264.91
loop_
_atom_site_label
_atom_site_type_symbol
_atom_site_fract_x
_atom_site_fract_y
_atom_site_fract_z
Mo1 Mo 0.61917(2) 0.39765(3) -0.19518(2)
Mo2 Mo 0.41610(2) 0.41662(2) -0.19876(2)
Mo3 Mo 0.29454(2) 0.34334(3) 0.03182(2)
Mo4 Mo 0.41720(2) 0.25735(2) 0.20568(2)
Mo5 Mo 0.69047(2) 0.23102(3) 0.21837(2)
Mo6 Mo 0.77405(2) 0.28951(2) 0.04438(2)
Zn1 Zn 0.5000 0.5000 0.0000
Zn2 Zn 0.60970(4) -0.05613(4) 0.16375(4)
Zn3 Zn 0.19435(5) 0.04812(4) -0.00107(5)
Zn4 Zn -0.00461(4) 0.33523(4) -0.26209(4)
Zn5 Zn 0.38549(4) 0.02121(4) 0.42010(4)
P1 P 0.55876(7) 0.20111(7) 0.02844(7)
P2 P 0.60395(8) 0.01209(8) 0.35272(7)
P3 P 0.24214(7) 0.27098(8) -0.15298(7)
P4 P 0.84637(8) 0.19347(8) -0.13180(8)
O1 O 0.6441(2) 0.2555(2) -0.0285(2)
O2 O 0.5053(2) 0.4688(2) -0.1322(2)
O3 O 0.7272(2) 0.4224(2) -0.1068(2)
O4 O 0.5354(2) 0.3167(2) -0.2248(2)
O5 O 0.7534(2) 0.2907(3) -0.2056(2)
O6 O 0.6201(2) 0.5040(3) -0.3093(2)
O7 O 0.4480(2) 0.2744(2) -0.0329(2)
O8 O 0.2939(2) 0.4664(2) -0.1161(2)
O9 O 0.3304(2) 0.3187(2) -0.2102(2)
O10 O 0.3689(2) 0.5263(2) -0.3142(2)
O11 O 0.3981(2) 0.3980(2) 0.0797(2)
O12 O 0.3439(2) 0.1937(2) 0.1419(2)
O13 O 0.2267(2) 0.2853(2) -0.0521(2)
O14 O 0.1801(2) 0.4037(3) 0.0653(2)
O15 O 0.5601(2) 0.1975(2) 0.1380(2)
O16 O 0.4843(2) 0.0900(2) 0.3216(2)
O17 O 0.5425(2) 0.2929(2) 0.2608(2)
O18 O 0.3313(2) 0.2895(2) 0.2836(2)
O19 O 0.6488(2) 0.3709(2) 0.0873(2)
O20 O 0.7862(2) 0.1457(2) 0.1580(2)
O21 O 0.6796(2) 0.0831(2) 0.3328(2)
O22 O 0.7709(2) 0.2561(3) 0.2885(2)
O23 O 0.8636(2) 0.2046(2) -0.0299(2)
O24 O 0.8731(2) 0.3310(2) 0.0733(2)
O25 O 0.5825(2) 0.0838(2) 0.0386(2)
O26 O 0.6267(3) -0.0597(2) 0.2964(2)
O27 O 0.6103(2) -0.0617(2) 0.4695(2)
O28 O 0.2775(2) 0.1447(2) -0.1177(3)
O29 O 0.1392(2) 0.3259(3) -0.2237(2)
O30 O 0.9483(2) 0.2006(2) -0.1870(2)
O31 O 0.8269(3) 0.0845(3) -0.1068(3)
O32 O 0.4858(3) -0.1139(3) 0.1649(4)
O33 O 0.0768(3) 0.1680(3) 0.0141(3)
O34 O 0.2938(3) 0.0378(3) 0.1144(3)
O35 O 0.1293(3) 0.0371(3) -0.1230(3)
O36 O -0.0572(3) 0.4060(3) -0.1583(3)
C1 C 0.0822(4) 0.1913(5) -0.3825(4)
H1 H 0.1406 0.1526 -0.3315
C2 C 0.0655(6) 0.1485(5) -0.4482(5)
H2 H 0.1117 0.0821 -0.4423
C3 C -0.0222(6) 0.2063(6) -0.5242(5)
H3 H -0.0367 0.1776 -0.5683
C4 C -0.0869(5) 0.3061(5) -0.5333(4)
H4 H -0.1450 0.3465 -0.5844
C5 C -0.2013(4) 0.5344(5) -0.5527(4)
H5 H -0.2160 0.5210 -0.6084
C6 C -0.2524(4) 0.6345(5) -0.5521(4)
H6 H -0.3006 0.6900 -0.6084
C7 C -0.2316(4) 0.6514(4) -0.4680(4)
H7 H -0.2653 0.7183 -0.4664
C8 C -0.1600(4) 0.5674(4) -0.3861(4)
H8 H -0.1471 0.5787 -0.3286
C9 C -0.0641(4) 0.3461(4) -0.4645(3)
C10 C -0.1273(3) 0.4538(4) -0.4685(3)
C11 C 0.4717(4) -0.2261(4) 0.4850(4)
H9 H 0.5316 -0.2250 0.5179
C12 C 0.4695(5) -0.3236(4) 0.4854(4)
H10 H 0.5261 -0.3878 0.5191
C13 C 0.3814(5) -0.3243(4) 0.4345(4)
H11 H 0.3790 -0.3887 0.4317
C14 C 0.2977(4) -0.2299(4) 0.3885(4)
H12 H 0.2376 -0.2296 0.3549
C15 C 0.1173(4) -0.0176(5) 0.3004(4)
H13 H 0.1032 -0.0786 0.2991
C16 C 0.0413(4) 0.0840(5) 0.2588(4)
H14 H -0.0252 0.0919 0.2298
C17 C 0.0632(4) 0.1737(5) 0.2597(5)
H15 H 0.0124 0.2429 0.2308
C18 C 0.1621(4) 0.1593(4) 0.3042(4)
H16 H 0.1773 0.2203 0.3045
C19 C 0.3038(4) -0.1339(4) 0.3925(3)
C20 C 0.2164(4) -0.0276(4) 0.3450(3)
N1 N 0.0178(3) 0.2873(3) -0.3885(3)
N2 N -0.1077(3) 0.4701(3) -0.3851(3)
N3 N 0.3909(3) -0.1322(3) 0.4391(3)
N4 N 0.2373(3) 0.0606(3) 0.3472(3)
Mo1A Mo 0.38083(2) 0.60235(3) 0.19518(2)
Mo2A Mo 0.58390(2) 0.58338(2) 0.19876(2)
Mo3A Mo 0.70546(2) 0.65666(3) -0.03182(2)
Mo4A Mo 0.58280(2) 0.74265(2) -0.20568(2)
Mo5A Mo 0.30953(2) 0.76898(3) -0.21837(2)
Mo6A Mo 0.22595(2) 0.71049(2) -0.04438(2)
Zn2A Zn 0.39030(4) 1.05613(4) -0.16375(4)
Zn2A_2 Zn 0.39030(4) 0.05613(4) -0.16375(4)
Zn2_2 Zn 0.60970(4) 0.94387(4) 0.16375(4)
Zn3A Zn 0.80565(5) 0.95188(4) 0.00107(5)
Zn3A_2 Zn 0.80565(5) -0.04812(4) 0.00107(5)
Zn3_2 Zn 0.19435(5) 1.04812(4) -0.00107(5)
Zn4A Zn 1.00461(4) 0.66477(4) 0.26209(4)
Zn4_2 Zn 0.99539(4) 0.33523(4) -0.26209(4)
Zn4A_2 Zn 0.00461(4) 0.66477(4) 0.26209(4)
Zn5A Zn 0.61451(4) 0.97879(4) -0.42010(4)
Zn5A_2 Zn 0.61451(4) -0.02121(4) 0.57990(4)
Zn5_2 Zn 0.38549(4) 1.02121(4) -0.57990(4)
P1A P 0.44124(7) 0.79889(7) -0.02844(7)
P2A P 0.39605(8) 0.98791(8) -0.35272(7)
P3A P 0.75786(7) 0.72902(8) 0.15298(7)
P4A P 0.15363(8) 0.80653(8) 0.13180(8)
O1A O 0.3559(2) 0.7445(2) 0.0285(2)
O2A O 0.4947(2) 0.5312(2) 0.1322(2)
O3A O 0.2728(2) 0.5776(2) 0.1068(2)
O4A O 0.4646(2) 0.6833(2) 0.2248(2)
O5A O 0.2466(2) 0.7093(3) 0.2056(2)
O6A O 0.3799(2) 0.4960(3) 0.3093(2)
O7A O 0.5520(2) 0.7256(2) 0.0329(2)
O8A O 0.7061(2) 0.5336(2) 0.1161(2)
O9A O 0.6696(2) 0.6813(2) 0.2102(2)
O10A O 0.6311(2) 0.4737(2) 0.3142(2)
O11A O 0.6019(2) 0.6020(2) -0.0797(2)
O12A O 0.6561(2) 0.8063(2) -0.1419(2)
O13A O 0.7733(2) 0.7147(2) 0.0521(2)
O14A O 0.8199(2) 0.5963(3) -0.0653(2)
O15A O 0.4399(2) 0.8025(2) -0.1380(2)
O16A O 0.5157(2) 0.9100(2) -0.3216(2)
O17A O 0.4575(2) 0.7071(2) -0.2608(2)
O18A O 0.6687(2) 0.7105(2) -0.2836(2)
O19A O 0.3512(2) 0.6291(2) -0.0873(2)
O20A O 0.2138(2) 0.8543(2) -0.1580(2)
O21A O 0.3204(2) 0.9169(2) -0.3328(2)
O22A O 0.2291(2) 0.7439(3) -0.2885(2)
O23A O 0.1364(2) 0.7954(2) 0.0299(2)
O24A O 0.1269(2) 0.6690(2) -0.0733(2)
O25A O 0.4175(2) 0.9162(2) -0.0386(2)
O26A O 0.3733(3) 1.0597(2) -0.2964(2)
O27A O 0.3897(2) 1.0617(2) -0.4695(2)
O27A_2 O 0.3897(2) 0.0617(2) 0.5305(2)
O27_2 O 0.6103(2) 0.9383(2) -0.5305(2)
O28A O 0.7225(2) 0.8553(2) 0.1177(3)
O28A_2 O 0.7225(2) -0.1447(2) 0.1177(3)
O28_2 O 0.2775(2) 1.1447(2) -0.1177(3)
O29A O 0.8608(2) 0.6741(3) 0.2237(2)
O30A O 0.0517(2) 0.7994(2) 0.1870(2)
O30_2 O -0.0517(2) 0.2006(2) -0.1870(2)
O30A_2 O 1.0517(2) 0.7994(2) 0.1870(2)
O31A O 0.1731(3) 0.9155(3) 0.1068(3)
O31A_2 O 0.1731(3) -0.0845(3) 0.1068(3)
O31_2 O 0.8269(3) 1.0845(3) -0.1068(3)
O32A O 0.5142(3) 1.1139(3) -0.1649(4)
O33A O 0.9232(3) 0.8320(3) -0.0141(3)
O34A O 0.7062(3) 0.9622(3) -0.1144(3)
O35A O 0.8707(3) 0.9629(3) 0.1230(3)
O36A O 1.0572(3) 0.5940(3) 0.1583(3)
C1A C 0.9178(4) 0.8087(5) 0.3825(4)
H1A H 0.8594 0.8474 0.3315
C2A C 0.9345(6) 0.8515(5) 0.4482(5)
H2A H 0.8883 0.9179 0.4423
C3A C 1.0222(6) 0.7937(6) 0.5242(5)
H3A H 1.0367 0.8224 0.5683
C4A C 1.0869(5) 0.6939(5) 0.5333(4)
H4A H 1.1450 0.6535 0.5844
C5A C 1.2013(4) 0.4656(5) 0.5527(4)
H5A H 1.2160 0.4790 0.6084
C6A C 1.2524(4) 0.3655(5) 0.5521(4)
H6A H 1.3006 0.3100 0.6084
C7A C 1.2316(4) 0.3486(4) 0.4680(4)
H7A H 1.2653 0.2817 0.4664
C8A C 1.1600(4) 0.4326(4) 0.3861(4)
H8A H 1.1471 0.4213 0.3286
C9A C 1.0641(4) 0.6539(4) 0.4645(3)
C10A C 1.1273(3) 0.5462(4) 0.4685(3)
C11A C 0.5283(4) 1.2261(4) -0.4850(4)
H9A H 0.4684 1.2250 -0.5179
C12A C 0.5305(5) 1.3236(4) -0.4854(4)
H10A H 0.4739 1.3878 -0.5191
C13A C 0.6186(5) 1.3243(4) -0.4345(4)
H11A H 0.6210 1.3887 -0.4317
C14A C 0.7023(4) 1.2299(4) -0.3885(4)
H12A H 0.7624 1.2296 -0.3549
C15A C 0.8827(4) 1.0176(5) -0.3004(4)
H13A H 0.8968 1.0786 -0.2991
C16A C 0.9587(4) 0.9160(5) -0.2588(4)
H14A H 1.0252 0.9081 -0.2298
C17A C 0.9368(4) 0.8263(5) -0.2597(5)
H15A H 0.9876 0.7571 -0.2308
C18A C 0.8379(4) 0.8407(4) -0.3042(4)
H16A H 0.8227 0.7797 -0.3045
C19A C 0.6962(4) 1.1339(4) -0.3925(3)
C20A C 0.7836(4) 1.0276(4) -0.3450(3)
N1A N 0.9822(3) 0.7127(3) 0.3885(3)
N2A N 1.1077(3) 0.5299(3) 0.3851(3)
N3A N 0.6091(3) 1.1322(3) -0.4391(3)
N4A N 0.7627(3) 0.9394(3) -0.3472(3)
O37 O 1.0509(4) 0.5471(4) -0.1700(4)
loop_
_geom_bond_atom_site_label_1
_geom_bond_atom_site_label_2
_geom_bond_site_symmetry_1
_geom_bond_site_symmetry_2
Mo1 O1 1_555 1_555
Mo2 O2 1_555 1_555
Mo3 O7 1_555 1_555
Mo4 O11 1_555 1_555
Mo5 O15 1_555 1_555
Mo6 O1 1_555 1_555
Zn1 O2 1_555 1_555
Zn2 O25 1_555 1_555
Zn3 O28 1_555 1_555
Zn4 O29 1_555 1_555
Zn5 O16 1_555 1_555
P1 O1 1_555 1_555
P2 O16 1_555 1_555
P3 O9 1_555 1_555
P4 O5 1_555 1_555
O2 Mo1 1_555 1_555
O3 Mo1 1_555 1_555
O4 Mo1 1_555 1_555
O5 Mo1 1_555 1_555
O6 Mo1 1_555 1_555
O7 Mo2 1_555 1_555
O8 Mo2 1_555 1_555
O9 Mo2 1_555 1_555
O10 Mo2 1_555 1_555
O11 Mo3 1_555 1_555
O12 Mo3 1_555 1_555
O13 Mo3 1_555 1_555
O14 Mo3 1_555 1_555
O15 Mo4 1_555 1_555
O16 Mo4 1_555 1_555
O17 Mo4 1_555 1_555
O18 Mo4 1_555 1_555
O19 Mo5 1_555 1_555
O20 Mo5 1_555 1_555
O21 Mo5 1_555 1_555
O22 Mo5 1_555 1_555
O23 Mo6 1_555 1_555
O24 Mo6 1_555 1_555
O25 P1 1_555 1_555
O26 Zn2 1_555 1_555
O27 P2 1_555 1_555
O28 P3 1_555 1_555
O29 P3 1_555 1_555
O30 P4 1_555 1_555
O31 P4 1_555 1_555
O32 Zn2 1_555 1_555
O33 Zn3 1_555 1_555
O34 Zn3 1_555 1_555
O35 Zn3 1_555 1_555
O36 Zn4 1_555 1_555
C1 H1 1_555 1_555
C2 C1 1_555 1_555
H2 C2 1_555 1_555
C3 C2 1_555 1_555
H3 C3 1_555 1_555
C4 C3 1_555 1_555
H4 C4 1_555 1_555
C5 H5 1_555 1_555
C6 C5 1_555 1_555
H6 C6 1_555 1_555
C7 C6 1_555 1_555
H7 C7 1_555 1_555
C8 C7 1_555 1_555
H8 C8 1_555 1_555
C9 C4 1_555 1_555
C10 C5 1_555 1_555
C11 H9 1_555 1_555
C12 C11 1_555 1_555
H10 C12 1_555 1_555
C13 C12 1_555 1_555
H11 C13 1_555 1_555
C14 C13 1_555 1_555
H12 C14 1_555 1_555
C15 H13 1_555 1_555
C16 C15 1_555 1_555
H14 C16 1_555 1_555
C17 C16 1_555 1_555
H15 C17 1_555 1_555
C18 C17 1_555 1_555
H16 C18 1_555 1_555
C19 C14 1_555 1_555
C20 C15 1_555 1_555
N1 Zn4 1_555 1_555
N2 Zn4 1_555 1_555
N3 Zn5 1_555 1_555
N4 Zn5 1_555 1_555
Mo1A O1A 1_555 1_555
Mo2A O2A 1_555 1_555
Mo3A O7A 1_555 1_555
Mo4A O11A 1_555 1_555
Mo5A O15A 1_555 1_555
Mo6A O1A 1_555 1_555
Zn2A O25A 1_555 1_555
Zn2A_2 O28 1_555 1_555
Zn2_2 O28A 1_555 1_555
Zn3A O28A 1_555 1_555
Zn3A_2 O31 1_555 1_555
Zn3_2 O28_2 1_555 1_555
Zn4A O29A 1_555 1_555
Zn4_2 O30 1_555 1_555
Zn4A_2 O30A 1_555 1_555
Zn5A O16A 1_555 1_555
Zn5A_2 O27 1_555 1_555
Zn5_2 O27A 1_555 1_555
P1A O1A 1_555 1_555
P2A O16A 1_555 1_555
P3A O9A 1_555 1_555
P4A O5A 1_555 1_555
O2A Zn1 1_555 1_555
O3A Mo1A 1_555 1_555
O4A Mo1A 1_555 1_555
O5A Mo1A 1_555 1_555
O6A Mo1A 1_555 1_555
O7A Mo2A 1_555 1_555
O8A Mo2A 1_555 1_555
O9A Mo2A 1_555 1_555
O10A Mo2A 1_555 1_555
O11A Zn1 1_555 1_555
O12A Mo3A 1_555 1_555
O13A Mo3A 1_555 1_555
O14A Mo3A 1_555 1_555
O15A Mo4A 1_555 1_555
O16A Mo4A 1_555 1_555
O17A Mo4A 1_555 1_555
O18A Mo4A 1_555 1_555
O19A Zn1 1_555 1_555
O20A Mo5A 1_555 1_555
O21A Mo5A 1_555 1_555
O22A Mo5A 1_555 1_555
O23A Mo6A 1_555 1_555
O24A Mo6A 1_555 1_555
O25A P1A 1_555 1_555
O26A Zn2A 1_555 1_555
O27A P2A 1_555 1_555
O27A_2 Zn5 1_555 1_555
O27_2 Zn5A 1_555 1_555
O28A P3A 1_555 1_555
O28A_2 Zn2 1_555 1_555
O28_2 Zn2A 1_555 1_555
O29A P3A 1_555 1_555
O30A P4A 1_555 1_555
O30_2 Zn4 1_555 1_555
O30A_2 Zn4A 1_555 1_555
O31A Zn3_2 1_555 1_555
O31A_2 Zn3 1_555 1_555
O31_2 Zn3A 1_555 1_555
O32A Zn2A 1_555 1_555
O33A Zn3A 1_555 1_555
O34A Zn3A 1_555 1_555
O35A Zn3A 1_555 1_555
O36A Zn4A 1_555 1_555
C1A H1A 1_555 1_555
C2A C1A 1_555 1_555
H2A C2A 1_555 1_555
C3A C2A 1_555 1_555
H3A C3A 1_555 1_555
C4A C3A 1_555 1_555
H4A C4A 1_555 1_555
C5A H5A 1_555 1_555
C6A C5A 1_555 1_555
H6A C6A 1_555 1_555
C7A C6A 1_555 1_555
H7A C7A 1_555 1_555
C8A C7A 1_555 1_555
H8A C8A 1_555 1_555
C9A C4A 1_555 1_555
C10A C5A 1_555 1_555
C11A H9A 1_555 1_555
C12A C11A 1_555 1_555
H10A C12A 1_555 1_555
C13A C12A 1_555 1_555
H11A C13A 1_555 1_555
C14A C13A 1_555 1_555
H12A C14A 1_555 1_555
C15A H13A 1_555 1_555
C16A C15A 1_555 1_555
H14A C16A 1_555 1_555
C17A C16A 1_555 1_555
H15A C17A 1_555 1_555
C18A C17A 1_555 1_555
H16A C18A 1_555 1_555
C19A C14A 1_555 1_555
C20A C15A 1_555 1_555
N1A Zn4A 1_555 1_555
N2A Zn4A 1_555 1_555
N3A Zn5A 1_555 1_555
N4A Zn5A 1_555 1_555
Mo2 O4 1_555 1_555
Mo3 O8 1_555 1_555
Mo4 O12 1_555 1_555
Mo5 O17 1_555 1_555
Mo6 O3 1_555 1_555
Mo6 O19 1_555 1_555
Mo6 O20 1_555 1_555
Zn1 O11 1_555 1_555
Zn1 O19 1_555 1_555
P1 O7 1_555 1_555
P1 O15 1_555 1_555
P2 O21 1_555 1_555
P2 O26 1_555 1_555
P3 O13 1_555 1_555
P4 O23 1_555 1_555
C1 N1 1_555 1_555
C8 N2 1_555 1_555
C9 C10 1_555 1_555
C9 N1 1_555 1_555
C10 N2 1_555 1_555
C11 N3 1_555 1_555
C18 N4 1_555 1_555
C19 C20 1_555 1_555
C19 N3 1_555 1_555
C20 N4 1_555 1_555
Mo1A O2A 1_555 1_555
Mo2A O4A 1_555 1_555
Mo3A O8A 1_555 1_555
Mo3A O11A 1_555 1_555
Mo4A O12A 1_555 1_555
Mo5A O17A 1_555 1_555
Mo5A O19A 1_555 1_555
Mo6A O3A 1_555 1_555
Mo6A O19A 1_555 1_555
Mo6A O20A 1_555 1_555
Zn3A_2 O28A_2 1_555 1_555
P1A O7A 1_555 1_555
P1A O15A 1_555 1_555
P2A O21A 1_555 1_555
P2A O26A 1_555 1_555
P3A O13A 1_555 1_555
P4A O23A 1_555 1_555
P4A O31A 1_555 1_555
C1A N1A 1_555 1_555
C8A N2A 1_555 1_555
C9A C10A 1_555 1_555
C9A N1A 1_555 1_555
C10A N2A 1_555 1_555
C11A N3A 1_555 1_555
C18A N4A 1_555 1_555
C19A C20A 1_555 1_555
C19A N3A 1_555 1_555
C20A N4A 1_555 1_555

#END
