
#######################################################################
#
#                 Cambridge Crystallographic Data Centre
#                                CCDC 
#
#######################################################################
#
# If this CIF has been generated from an entry in the Cambridge 
# Structural Database, then it will include bibliographic, chemical, 
# crystal, experimental, refinement or atomic coordinate data resulting 
# from the CCDC's data processing and validation procedures.
#
#######################################################################

data_LATYOV
_symmetry_cell_setting           trigonal
_symmetry_space_group_name_H-M   'P -3'
_symmetry_Int_Tables_number      147
_space_group_name_Hall           '-P 3'
loop_
_symmetry_equiv_pos_site_id
_symmetry_equiv_pos_as_xyz
1 x,y,z
2 -y,x-y,z
3 -x+y,-x,z
4 -x,-y,-z
5 y,-x+y,-z
6 x-y,x,-z
_cell_length_a                   19.0136(3)
_cell_length_b                   19.0136(3)
_cell_length_c                   8.5131(2)
_cell_angle_alpha                90
_cell_angle_beta                 90
_cell_angle_gamma                120
_cell_volume                     2665.31
loop_
_atom_site_label
_atom_site_type_symbol
_atom_site_fract_x
_atom_site_fract_y
_atom_site_fract_z
O10 O 1.4937(5) 0.9765(5) 0.1758(11)
H4 H 1.4592 0.9738 0.2480
H5 H 1.4921 0.9964 0.0876
Cs1 Cs 1.0000 1.0000 0.0000
Ni1 Ni 1.10085(3) 0.89340(3) 0.47883(7)
Ni2 Ni 1.35175(3) 0.77919(3) -0.09650(8)
S1 S 1.12017(6) 1.01177(6) 0.31952(13)
S2 S 1.21152(6) 0.98192(7) 0.65200(13)
N1 N 1.1731(2) 0.9115(2) 0.2897(4)
N2 N 1.3076(2) 1.0961(2) 0.4642(4)
O1 O 1.2792(2) 0.7910(2) 0.0847(5)
O2 O 1.3496(2) 0.8914(2) -0.0801(5)
O3 O 1.5133(2) 1.2558(2) 0.2396(5)
O4 O 1.5732(2) 1.1831(2) 0.2819(5)
O5 O 1.3333 0.6667 -0.0456(6)
H1 H 1.3333 0.6667 0.052(3)
O6 O 1.4512(3) 0.8292(3) 0.0545(8)
H2 H 1.4840 0.8159 0.0143
H3 H 1.4369 0.8088 0.1453
C1 C 1.2112(3) 0.8751(3) 0.2268(5)
H6 H 1.2032 0.8259 0.2719
C2 C 1.2620(3) 0.9070(3) 0.0974(6)
C3 C 1.2729(3) 0.9786(3) 0.0329(6)
H7 H 1.3078 1.0018 -0.0550
C4 C 1.2330(3) 1.0166(3) 0.0959(6)
H8 H 1.2408 1.0662 0.0532
C5 C 1.1813(3) 0.9800(3) 0.2234(5)
C6 C 1.2993(3) 0.8609(3) 0.0284(6)
C7 C 1.3751(3) 1.1465(3) 0.3861(6)
H9 H 1.3773 1.1907 0.3301
C8 C 1.4423(3) 1.1359(3) 0.3845(7)
C9 C 1.4374(4) 1.0715(4) 0.4687(10)
H10 H 1.4827 1.0631 0.4705
C10 C 1.3680(3) 1.0192(4) 0.5501(8)
H11 H 1.3645 0.9745 0.6066
C11 C 1.3030(3) 1.0336(3) 0.5472(5)
C12 C 1.5150(3) 1.1962(3) 0.2953(6)
Ni1A Ni 1.10660(3) 1.20745(4) 0.47883(7)
Ni1B Ni 0.79255(4) 0.89915(3) 0.47883(7)
Ni1C Ni 0.89915(3) 1.10660(3) -0.47883(7)
Ni1D Ni 0.89340(3) 0.79255(4) -0.47883(7)
Ni1E Ni 1.20745(4) 1.10085(3) -0.47883(7)
Ni1E_2 Ni 1.20745(4) 1.10085(3) 0.52117(7)
Ni1C_2 Ni 0.89915(3) 1.10660(3) 0.52117(7)
Ni1D_2 Ni 0.89340(3) 0.79255(4) 0.52117(7)
Ni1B_2 Ni 0.79255(4) 0.89915(3) -0.52117(7)
Ni1_2 Ni 1.10085(3) 0.89340(3) -0.52117(7)
Ni1A_2 Ni 1.10660(3) 1.20745(4) -0.52117(7)
Ni1B_3 Ni 1.79255(4) 0.89915(3) -0.52117(7)
Ni1C_3 Ni 1.89915(3) 1.10660(3) -0.47883(7)
Ni2A Ni 1.22081(3) 1.57256(4) -0.09650(8)
Ni2B Ni 0.42744(4) 0.64825(3) -0.09650(8)
Ni2C Ni 0.64825(3) 1.22081(3) 0.09650(8)
Ni2D Ni 0.77919(3) 0.42744(4) 0.09650(8)
Ni2E Ni 1.57256(4) 1.35175(3) 0.09650(8)
Ni2C_2 Ni 1.64825(3) 1.22081(3) 0.09650(8)
Ni2A_2 Ni 1.22081(3) 0.57256(4) -0.09650(8)
Ni2B_2 Ni 1.42744(4) 0.64825(3) -0.09650(8)
Ni2_2 Ni 1.35175(3) 0.77919(3) 0.90350(8)
Ni2A_3 Ni 1.22081(3) 0.57256(4) 0.90350(8)
Ni2D_2 Ni 0.77919(3) 1.42744(4) 0.09650(8)
Ni2A_4 Ni 1.22081(3) 1.57256(4) 0.90350(8)
Ni2B_3 Ni 1.42744(4) 1.64825(3) 0.90350(8)
Ni2_3 Ni 1.35175(3) 1.77919(3) -0.09650(8)
Ni2B_4 Ni 1.42744(4) 1.64825(3) -0.09650(8)
S1A S 0.98823(6) 1.10840(8) 0.31952(13)
S1B S 0.89160(8) 0.87983(6) 0.31952(13)
S1C S 0.87983(6) 0.98823(6) -0.31952(13)
S1D S 1.01177(6) 0.89160(8) -0.31952(13)
S1E S 1.10840(8) 1.12017(6) -0.31952(13)
S1D_2 S 1.01177(6) 0.89160(8) 0.68048(13)
S1E_2 S 1.10840(8) 1.12017(6) 0.68048(13)
S1C_2 S 0.87983(6) 0.98823(6) 0.68048(13)
S1A_2 S 0.98823(6) 1.10840(8) -0.68048(13)
S1B_2 S 0.89160(8) 0.87983(6) -0.68048(13)
S1_2 S 1.12017(6) 1.01177(6) -0.68048(13)
S2D S 0.98192(7) 0.77040(9) 0.34800(13)
S2D_2 S 0.98192(7) 0.77040(9) -0.65200(13)
S2C S 1.78848(6) 1.01808(7) -0.65200(13)
S2A S 1.01808(7) 1.22960(9) 0.65200(13)
S2E S 1.22960(9) 1.21152(6) 0.34800(13)
S2B S 0.77040(9) 0.78848(6) 0.65200(13)
S2C_2 S 0.78848(6) 1.01808(7) 0.34800(13)
S2A_2 S 1.01808(7) 1.22960(9) -0.34800(13)
S2C_3 S 0.78848(6) 1.01808(7) -0.65200(13)
S2B_2 S 0.77040(9) 0.78848(6) -0.34800(13)
S2_2 S 1.21152(6) 0.98192(7) -0.34800(13)
S2E_2 S 1.22960(9) 1.21152(6) -0.65200(13)
N1A N 1.0885(2) 1.2616(3) 0.2897(4)
N1B N 0.7384(3) 0.8269(2) 0.2897(4)
N1C N 0.8269(2) 1.0885(2) -0.2897(4)
N1D N 0.9115(2) 0.7384(3) -0.2897(4)
N1E N 1.2616(3) 1.1731(2) -0.2897(4)
N2D N 1.0961(2) 0.7885(3) 0.5358(4)
N2D_2 N 1.0961(2) 0.7885(3) -0.4642(4)
N2C N 1.6924(2) 0.9039(2) -0.4642(4)
N2A N 0.9039(2) 1.2115(3) 0.4642(4)
N2E N 1.2115(3) 1.3076(2) 0.5358(4)
N2C_2 N 0.6924(2) 0.9039(2) 0.5358(4)
N2A_2 N 0.9039(2) 1.2115(3) -0.5358(4)
N2B N 0.7885(3) 0.6924(2) -0.5358(4)
N2_2 N 1.3076(2) 1.0961(2) -0.5358(4)
O1A O 1.2090(2) 1.4882(3) 0.0847(5)
O1B O 0.5118(3) 0.7208(2) 0.0847(5)
O1C O 0.7208(2) 1.2090(2) -0.0847(5)
O1D O 0.7910(2) 0.5118(3) -0.0847(5)
O1E O 1.4882(3) 1.2792(2) -0.0847(5)
O2A O 1.1086(2) 1.4582(3) -0.0801(5)
O2B O 0.5418(3) 0.6504(2) -0.0801(5)
O2C O 0.6504(2) 1.1086(2) 0.0801(5)
O2D O 0.8914(2) 0.5418(3) 0.0801(5)
O2E O 1.4582(3) 1.3496(2) 0.0801(5)
O3D O 1.2558(2) 0.7425(3) 0.7604(5)
O3D_2 O 1.2558(2) 0.7425(3) -0.2396(5)
O3C O 1.4867(2) 0.7442(2) -0.2396(5)
O3A O 0.7442(2) 1.2575(3) 0.2396(5)
O3E O 1.2575(3) 1.5133(2) 0.7604(5)
O3E_2 O 1.2575(3) 1.5133(2) -0.2396(5)
O3C_2 O 0.4867(2) 0.7442(2) -0.2396(5)
O3B O 0.7425(3) 0.4867(2) 0.2396(5)
O4D O 1.1831(2) 0.6099(3) 0.7181(5)
O4D_2 O 1.1831(2) 0.6099(3) -0.2819(5)
O4C O 1.4268(2) 0.8169(2) -0.2819(5)
O4A O 0.8169(2) 1.3901(3) 0.2819(5)
O4E O 1.3901(3) 1.5732(2) 0.7181(5)
O4D_3 O 1.1831(2) 1.6099(3) -0.2819(5)
O4E_2 O 0.3901(3) 0.5732(2) -0.2819(5)
O4_2 O 0.5732(2) 1.1831(2) 0.2819(5)
O4A_2 O 0.8169(2) 0.3901(3) 0.2819(5)
O4B O 1.6099(3) 1.4268(2) 0.2819(5)
O5A O 1.3333 1.6666 -0.0456(6)
O5_2 O 0.3333 0.6667 -0.0456(6)
O5C O 0.6667 1.3333 0.0456(6)
O5C_2 O 0.6667 0.3333 0.0456(6)
O5C_3 O 1.6667 1.3333 0.0456(6)
H1A H 1.3333 1.6666 0.052(3)
H1_2 H 0.3333 0.6667 0.052(3)
H1C H 0.6667 1.3333 -0.052(3)
H1C_2 H 0.6667 0.3333 -0.052(3)
H1C_3 H 1.6667 1.3333 -0.052(3)
O6A O 1.1708(3) 1.6220(4) 0.0545(8)
O6B O 0.3780(4) 0.5488(3) 0.0545(8)
O6C O 0.5488(3) 1.1708(3) -0.0545(8)
O6D O 0.8292(3) 0.3780(4) -0.0545(8)
O6E O 1.6220(4) 1.4512(3) -0.0545(8)
H2A H 1.1841 1.6681 0.0143
H2B H 0.3319 0.5160 0.0143
H2C H 0.5160 1.1841 -0.0143
H2D H 0.8159 0.3319 -0.0143
H2E H 1.6681 1.4840 -0.0143
H3A H 1.1912 1.6281 0.1453
H3B H 0.3719 0.5631 0.1453
H3C H 0.5631 1.1912 -0.1453
H3D H 0.8088 0.3719 -0.1453
H3E H 1.6281 1.4369 -0.1453
C1A C 1.1249(3) 1.3361(4) 0.2268(5)
C1B C 0.6639(4) 0.7888(3) 0.2268(5)
C1C C 0.7888(3) 1.1249(3) -0.2268(5)
C1D C 0.8751(3) 0.6639(4) -0.2268(5)
C1E C 1.3361(4) 1.2112(3) -0.2268(5)
H6A H 1.1741 1.3773 0.2719
H6B H 0.6227 0.7968 0.2719
H6C H 0.7968 1.1741 -0.2719
H6D H 0.8259 0.6227 -0.2719
H6E H 1.3773 1.2032 -0.2719
C2A C 1.0930(3) 1.3550(4) 0.0974(6)
C2B C 0.6450(4) 0.7380(3) 0.0974(6)
C2C C 0.7380(3) 1.0930(3) -0.0974(6)
C2D C 0.9070(3) 0.6450(4) -0.0974(6)
C2E C 1.3550(4) 1.2620(3) -0.0974(6)
C3A C 1.0214(3) 1.2943(4) 0.0329(6)
C3B C 0.7057(4) 0.7271(3) 0.0329(6)
C3C C 0.7271(3) 1.0214(3) -0.0329(6)
C3D C 0.9786(3) 0.7057(4) -0.0329(6)
C3E C 1.2943(4) 1.2729(3) -0.0329(6)
H7A H 0.9982 1.3060 -0.0550
H7B H 0.6940 0.6922 -0.0550
H7C H 0.6922 0.9982 0.0550
H7D H 1.0018 0.6940 0.0550
H7E H 1.3060 1.3078 0.0550
C4A C 0.9834(3) 1.2164(4) 0.0959(6)
C4B C 0.7836(4) 0.7670(3) 0.0959(6)
C4C C 0.7670(3) 0.9834(3) -0.0959(6)
C4D C 1.0166(3) 0.7836(4) -0.0959(6)
C4E C 1.2164(4) 1.2330(3) -0.0959(6)
H8A H 0.9338 1.1746 0.0532
H8B H 0.8254 0.7592 0.0532
H8C H 0.7592 0.9338 -0.0532
H8D H 1.0662 0.8254 -0.0532
H8E H 1.1746 1.2408 -0.0532
C5A C 1.0200(3) 1.2013(4) 0.2234(5)
C5B C 0.7987(4) 0.8187(3) 0.2234(5)
C5C C 0.8187(3) 1.0200(3) -0.2234(5)
C5D C 0.9800(3) 0.7987(4) -0.2234(5)
C5E C 1.2013(4) 1.1813(3) -0.2234(5)
C6A C 1.1391(3) 1.4384(4) 0.0284(6)
C6B C 0.5616(4) 0.7007(3) 0.0284(6)
C6C C 0.7007(3) 1.1391(3) -0.0284(6)
C6D C 0.8609(3) 0.5616(4) -0.0284(6)
C6E C 1.4384(4) 1.2993(3) -0.0284(6)
C7D C 1.1465(3) 0.7714(4) 0.6139(6)
C7D_2 C 1.1465(3) 0.7714(4) -0.3861(6)
C7C C 1.6249(3) 0.8535(3) -0.3861(6)
C7A C 0.8535(3) 1.2286(4) 0.3861(6)
C7E C 1.2286(4) 1.3751(3) 0.6139(6)
H9D H 1.1907 0.8134 0.6699
H9D_2 H 1.1907 0.8134 -0.3301
H9C H 1.6227 0.8093 -0.3301
H9A H 0.8093 1.1866 0.3301
H9E H 1.1866 1.3773 0.6699
C8D C 1.1359(3) 0.6936(4) 0.6155(7)
C8D_2 C 1.1359(3) 0.6936(4) -0.3845(7)
C8C C 1.5577(3) 0.8641(3) -0.3845(7)
C8A C 0.8641(3) 1.3064(4) 0.3845(7)
C8E C 1.3064(4) 1.4423(3) 0.6155(7)
C9D C 1.0715(4) 0.6341(6) 0.5313(10)
C9D_2 C 1.0715(4) 0.6341(6) -0.4687(10)
C9C C 1.5626(4) 0.9285(4) -0.4687(10)
C9A C 0.9285(4) 1.3659(6) 0.4687(10)
C9E C 1.3659(6) 1.4374(4) 0.5313(10)
H10D H 1.0631 0.5804 0.5295
H10D_2 H 1.0631 0.5804 -0.4705
H10C H 1.5173 0.9369 -0.4705
H10A H 0.9369 1.4196 0.4705
H10E H 1.4196 1.4827 0.5295
C10D C 1.0192(4) 0.6512(5) 0.4499(8)
C10D_2 C 1.0192(4) 0.6512(5) -0.5501(8)
C10C C 1.6320(3) 0.9808(4) -0.5501(8)
C10A C 0.9808(4) 1.3488(5) 0.5501(8)
C10E C 1.3488(5) 1.3680(3) 0.4499(8)
H11D H 0.9745 0.6100 0.3934
H11D_2 H 0.9745 0.6100 -0.6066
H11C H 1.6355 1.0255 -0.6066
H11A H 1.0255 1.3900 0.6066
H11E H 1.3900 1.3645 0.3934
C11D C 1.0336(3) 0.7306(4) 0.4528(5)
C11D_2 C 1.0336(3) 0.7306(4) -0.5472(5)
C11C C 1.6970(3) 0.9664(3) -0.5472(5)
C11A C 0.9664(3) 1.2694(4) 0.5472(5)
C11E C 1.2694(4) 1.3030(3) 0.4528(5)
C12D C 1.1962(3) 0.6812(4) 0.7047(6)
C12D_2 C 1.1962(3) 0.6812(4) -0.2953(6)
C12C C 1.4850(3) 0.8038(3) -0.2953(6)
C12A C 0.8038(3) 1.3188(4) 0.2953(6)
C12E C 1.3188(4) 1.5150(3) 0.7047(6)
Cs2? Cs 1.6419(2) 1.1871(3) 0.5908(5)
Cs3? Cs 1.6540(5) 1.2170(5) 0.5903(11)
O7? O 1.6456(10) 1.2929(8) 0.7082(18)
O8? O 1.6370(13) 1.1502(15) 0.561(3)
O9? O 1.5665(14) 1.3186(15) 0.590(3)
loop_
_geom_bond_atom_site_label_1
_geom_bond_atom_site_label_2
_geom_bond_site_symmetry_1
_geom_bond_site_symmetry_2
Cs1 S1 1_555 1_555
Ni1 S1 1_555 1_555
Ni2 O1 1_555 1_555
S1 C5 1_555 1_555
S2 Ni1 1_555 1_555
N1 Ni1 1_555 1_555
N2 C7 1_555 1_555
O1 C6 1_555 1_555
O2 Ni2 1_555 1_555
O3 C12 1_555 1_555
O4 C12 1_555 1_555
O5 Ni2 1_555 1_555
H1 O5 1_555 1_555
O6 Ni2 1_555 1_555
H2 O6 1_555 1_555
H3 O6 1_555 1_555
O10 H4 1_555 1_555
H5 O10 1_555 1_555
C1 N1 1_555 1_555
H6 C1 1_555 1_555
C2 C1 1_555 1_555
C3 C2 1_555 1_555
H7 C3 1_555 1_555
C4 C3 1_555 1_555
H8 C4 1_555 1_555
C5 N1 1_555 1_555
C6 O2 1_555 1_555
C7 H9 1_555 1_555
C8 C7 1_555 1_555
C9 C8 1_555 1_555
H10 C9 1_555 1_555
C10 C9 1_555 1_555
H11 C10 1_555 1_555
C11 S2 1_555 1_555
C12 C8 1_555 1_555
Ni1A S1A 1_555 1_555
Ni1B S1B 1_555 1_555
Ni1C S1C 1_555 1_555
Ni1D S1D 1_555 1_555
Ni1E S1E 1_555 1_555
Ni1E_2 S1 1_555 1_555
Ni1C_2 S1A 1_555 1_555
Ni1D_2 S1B 1_555 1_555
Ni1B_2 S1C 1_555 1_555
Ni1_2 S1D 1_555 1_555
Ni1A_2 S1E 1_555 1_555
Ni1B_3 S2C 1_555 1_555
Ni1C_3 S2C 1_555 1_555
Ni2A O1A 1_555 1_555
Ni2B O1B 1_555 1_555
Ni2C O1C 1_555 1_555
Ni2D O1D 1_555 1_555
Ni2E O3 1_555 1_555
Ni2C_2 O4 1_555 1_555
Ni2A_2 O5 1_555 1_555
Ni2B_2 O5 1_555 1_555
Ni2_2 O3D 1_555 1_555
Ni2A_3 O4D 1_555 1_555
Ni2D_2 O4A 1_555 1_555
Ni2A_4 O3E 1_555 1_555
Ni2B_3 O4E 1_555 1_555
Ni2_3 O5A 1_555 1_555
Ni2B_4 O5A 1_555 1_555
S1A Cs1 1_555 1_555
S1B Cs1 1_555 1_555
S1C Cs1 1_555 1_555
S1D Cs1 1_555 1_555
S1E Cs1 1_555 1_555
S1D_2 Ni1 1_555 1_555
S1E_2 Ni1A 1_555 1_555
S1C_2 Ni1B 1_555 1_555
S1A_2 Ni1C 1_555 1_555
S1B_2 Ni1D 1_555 1_555
S1_2 Ni1E 1_555 1_555
S2D Ni1 1_555 1_555
S2D_2 Ni1D 1_555 1_555
S2C C11C 1_555 1_555
S2A Ni1A 1_555 1_555
S2E Ni1A 1_555 1_555
S2B Ni1B 1_555 1_555
S2C_2 Ni1B 1_555 1_555
S2A_2 Ni1C 1_555 1_555
S2C_3 Ni1C 1_555 1_555
S2B_2 Ni1D 1_555 1_555
S2_2 Ni1E 1_555 1_555
S2E_2 Ni1E 1_555 1_555
N1A Ni1A 1_555 1_555
N1B Ni1B 1_555 1_555
N1C Ni1C 1_555 1_555
N1D Ni1D 1_555 1_555
N1E Ni1E 1_555 1_555
N2D Ni1 1_555 1_555
N2D_2 Ni1_2 1_555 1_555
N2C Ni1B_3 1_555 1_555
N2A Ni1C_2 1_555 1_555
N2E Ni1A 1_555 1_555
N2C_2 Ni1B 1_555 1_555
N2A_2 Ni1C 1_555 1_555
N2B Ni1D 1_555 1_555
N2_2 Ni1E 1_555 1_555
O1A C6A 1_555 1_555
O1B C6B 1_555 1_555
O1C C6C 1_555 1_555
O1D C6D 1_555 1_555
O1E Ni2E 1_555 1_555
O2A Ni2A 1_555 1_555
O2B Ni2B 1_555 1_555
O2C Ni2C 1_555 1_555
O2D Ni2D 1_555 1_555
O2E Ni2E 1_555 1_555
O3D C12D 1_555 1_555
O3D_2 Ni2 1_555 1_555
O3C Ni2B_2 1_555 1_555
O3A Ni2C 1_555 1_555
O3E C12E 1_555 1_555
O3E_2 Ni2A 1_555 1_555
O3C_2 Ni2B 1_555 1_555
O3B Ni2D 1_555 1_555
O4D C12D 1_555 1_555
O4D_2 Ni2A_2 1_555 1_555
O4C Ni2 1_555 1_555
O4A C12A 1_555 1_555
O4E C12E 1_555 1_555
O4D_3 Ni2A 1_555 1_555
O4E_2 Ni2B 1_555 1_555
O4_2 Ni2C 1_555 1_555
O4A_2 Ni2D 1_555 1_555
O4B Ni2E 1_555 1_555
O5A Ni2A 1_555 1_555
O5_2 Ni2B 1_555 1_555
O5C Ni2C 1_555 1_555
O5C_2 Ni2D 1_555 1_555
O5C_3 Ni2E 1_555 1_555
H1A O5A 1_555 1_555
H1_2 O5_2 1_555 1_555
H1C O5C 1_555 1_555
H1C_2 O5C_2 1_555 1_555
H1C_3 O5C_3 1_555 1_555
O6A Ni2A 1_555 1_555
O6B Ni2B 1_555 1_555
O6C Ni2C 1_555 1_555
O6D Ni2D 1_555 1_555
O6E Ni2E 1_555 1_555
H2A O6A 1_555 1_555
H2B O6B 1_555 1_555
H2C O6C 1_555 1_555
H2D O6D 1_555 1_555
H2E O6E 1_555 1_555
H3A O6A 1_555 1_555
H3B O6B 1_555 1_555
H3C O6C 1_555 1_555
H3D O6D 1_555 1_555
H3E O6E 1_555 1_555
C1A N1A 1_555 1_555
C1B N1B 1_555 1_555
C1C N1C 1_555 1_555
C1D N1D 1_555 1_555
C1E N1E 1_555 1_555
H6A C1A 1_555 1_555
H6B C1B 1_555 1_555
H6C C1C 1_555 1_555
H6D C1D 1_555 1_555
H6E C1E 1_555 1_555
C2A C1A 1_555 1_555
C2B C1B 1_555 1_555
C2C C1C 1_555 1_555
C2D C1D 1_555 1_555
C2E C1E 1_555 1_555
C3A C2A 1_555 1_555
C3B C2B 1_555 1_555
C3C C2C 1_555 1_555
C3D C2D 1_555 1_555
C3E C2E 1_555 1_555
H7A C3A 1_555 1_555
H7B C3B 1_555 1_555
H7C C3C 1_555 1_555
H7D C3D 1_555 1_555
H7E C3E 1_555 1_555
C4A C3A 1_555 1_555
C4B C3B 1_555 1_555
C4C C3C 1_555 1_555
C4D C3D 1_555 1_555
C4E C3E 1_555 1_555
H8A C4A 1_555 1_555
H8B C4B 1_555 1_555
H8C C4C 1_555 1_555
H8D C4D 1_555 1_555
H8E C4E 1_555 1_555
C5A S1A 1_555 1_555
C5B S1B 1_555 1_555
C5C S1C 1_555 1_555
C5D S1D 1_555 1_555
C5E S1E 1_555 1_555
C6A O2A 1_555 1_555
C6B O2B 1_555 1_555
C6C O2C 1_555 1_555
C6D O2D 1_555 1_555
C6E O1E 1_555 1_555
C7D N2D 1_555 1_555
C7D_2 N2D_2 1_555 1_555
C7C N2C 1_555 1_555
C7A N2A 1_555 1_555
C7E N2E 1_555 1_555
H9D C7D 1_555 1_555
H9D_2 C7D_2 1_555 1_555
H9C C7C 1_555 1_555
H9A C7A 1_555 1_555
H9E C7E 1_555 1_555
C8D C7D 1_555 1_555
C8D_2 C7D_2 1_555 1_555
C8C C7C 1_555 1_555
C8A C7A 1_555 1_555
C8E C7E 1_555 1_555
C9D C8D 1_555 1_555
C9D_2 C8D_2 1_555 1_555
C9C C8C 1_555 1_555
C9A C8A 1_555 1_555
C9E C8E 1_555 1_555
H10D C9D 1_555 1_555
H10D_2 C9D_2 1_555 1_555
H10C C9C 1_555 1_555
H10A C9A 1_555 1_555
H10E C9E 1_555 1_555
C10D C9D 1_555 1_555
C10D_2 C9D_2 1_555 1_555
C10C C9C 1_555 1_555
C10A C9A 1_555 1_555
C10E C9E 1_555 1_555
H11D C10D 1_555 1_555
H11D_2 C10D_2 1_555 1_555
H11C C10C 1_555 1_555
H11A C10A 1_555 1_555
H11E C10E 1_555 1_555
C11D S2D 1_555 1_555
C11D_2 S2D_2 1_555 1_555
C11C N2C 1_555 1_555
C11A S2A 1_555 1_555
C11E S2E 1_555 1_555
C12D C8D 1_555 1_555
C12D_2 O3D_2 1_555 1_555
C12C O3C 1_555 1_555
C12A O3A 1_555 1_555
C12E C8E 1_555 1_555
S2 Ni1E_2 1_555 1_555
N2 C11 1_555 1_555
N2 Ni1E_2 1_555 1_555
C2 C6 1_555 1_555
C4 C5 1_555 1_555
C10 C11 1_555 1_555
Ni1E_2 S1E_2 1_555 1_555
Ni1E_2 S2E 1_555 1_555
Ni1C_2 S1C_2 1_555 1_555
Ni1C_2 S2A 1_555 1_555
Ni1C_2 S2C_2 1_555 1_555
Ni1D_2 S1D_2 1_555 1_555
Ni1D_2 S2D 1_555 1_555
Ni1D_2 S2B 1_555 1_555
Ni1B_2 S1B_2 1_555 1_555
Ni1B_2 S2C_3 1_555 1_555
Ni1B_2 S2B_2 1_555 1_555
Ni1_2 S1_2 1_555 1_555
Ni1_2 S2D_2 1_555 1_555
Ni1_2 S2_2 1_555 1_555
Ni1A_2 S1A_2 1_555 1_555
Ni1A_2 S2A_2 1_555 1_555
Ni1A_2 S2E_2 1_555 1_555
Ni2C_2 O5C_3 1_555 1_555
Ni2D_2 O5C 1_555 1_555
N1A C5A 1_555 1_555
N1B C5B 1_555 1_555
N1C C5C 1_555 1_555
N1D C5D 1_555 1_555
N1E C5E 1_555 1_555
N2D C11D 1_555 1_555
N2D_2 C11D_2 1_555 1_555
N2A C11A 1_555 1_555
N2E C11E 1_555 1_555
O2E C6E 1_555 1_555
O4D_2 C12D_2 1_555 1_555
O4C C12C 1_555 1_555
C2A C6A 1_555 1_555
C2B C6B 1_555 1_555
C2C C6C 1_555 1_555
C2D C6D 1_555 1_555
C2E C6E 1_555 1_555
C4A C5A 1_555 1_555
C4B C5B 1_555 1_555
C4C C5C 1_555 1_555
C4D C5D 1_555 1_555
C4E C5E 1_555 1_555
C8D_2 C12D_2 1_555 1_555
C8C C12C 1_555 1_555
C8A C12A 1_555 1_555
C10D C11D 1_555 1_555
C10D_2 C11D_2 1_555 1_555
C10C C11C 1_555 1_555
C10A C11A 1_555 1_555
C10E C11E 1_555 1_555

#END
