
#######################################################################
#
#                 Cambridge Crystallographic Data Centre
#                                CCDC 
#
#######################################################################
#
# If this CIF has been generated from an entry in the Cambridge 
# Structural Database, then it will include bibliographic, chemical, 
# crystal, experimental, refinement or atomic coordinate data resulting 
# from the CCDC's data processing and validation procedures.
#
#######################################################################

data_LATYEM
_symmetry_cell_setting           monoclinic
_symmetry_space_group_name_H-M   'P 21/c'
_symmetry_Int_Tables_number      14
_space_group_name_Hall           '-P 2ybc'
loop_
_symmetry_equiv_pos_site_id
_symmetry_equiv_pos_as_xyz
1 x,y,z
2 -x,1/2+y,1/2-z
3 -x,-y,-z
4 x,1/2-y,1/2+z
_cell_length_a                   7.800(2)
_cell_length_b                   22.576(6)
_cell_length_c                   7.721(2)
_cell_angle_alpha                90
_cell_angle_beta                 104.94(3)
_cell_angle_gamma                90
_cell_volume                     1313.65
loop_
_atom_site_label
_atom_site_type_symbol
_atom_site_fract_x
_atom_site_fract_y
_atom_site_fract_z
Cd1 Cd 0.22377(4) 0.107947(14) 0.52943(4)
N1 N 0.0009(6) 0.1648(2) 0.6124(6)
H1 H -0.078(6) 0.185(2) 0.512(5)
H2 H -0.068(7) 0.135(2) 0.654(8)
C1 C 0.0845(7) 0.2014(2) 0.7700(7)
H3 H -0.0058 0.2128 0.8333
H4 H 0.1326 0.2381 0.7302
C2 C 0.2335(7) 0.1674(2) 0.8974(6)
H5 H 0.2891 0.1927 1.0015
H6 H 0.1846 0.1318 0.9422
N2 N 0.3686(5) 0.14956(17) 0.8036(5)
H7 H 0.439(6) 0.1826(17) 0.781(7)
C3 C 0.5031(7) 0.1075(2) 0.8983(6)
H8 H 0.4447 0.0732 0.9394
H9 H 0.5812 0.1268 1.0049
C4 C 0.6119(6) 0.0865(2) 0.7751(6)
H10 H 0.6632 0.1214 0.7289
H11 H 0.7115 0.0621 0.8447
N3 N 0.5078(5) 0.05087(16) 0.6195(4)
C5 C 0.4894(6) -0.0103(2) 0.6767(5)
H12 H 0.4229 -0.0103 0.7700
H13 H 0.6086 -0.0271 0.7301
C6 C 0.6073(6) 0.0490(2) 0.4797(6)
H14 H 0.7277 0.0329 0.5316
H15 H 0.6198 0.0896 0.4363
S1 S 0.02627(17) 0.07391(6) 0.21306(15)
C7 C -0.0521(6) 0.0108(2) 0.2681(6)
N4 N -0.1063(5) -0.03395(18) 0.3056(5)
N5 N 0.3636(6) 0.17483(18) 0.3898(5)
C8 C 0.4822(7) 0.1958(2) 0.3479(6)
S2 S 0.64493(18) 0.22643(6) 0.28091(17)
Cd1B Cd 0.77623(4) -0.107947(14) 0.47057(4)
Cd1B_2 Cd -0.22377(4) -0.107947(14) 0.47057(4)
N1B N 0.9991(6) -0.1648(2) 0.3876(6)
H1B H 1.078(6) -0.185(2) 0.488(5)
H2B H 1.068(7) -0.135(2) 0.346(8)
C1B C 0.9155(7) -0.2014(2) 0.2300(7)
H3B H 1.0058 -0.2128 0.1667
H4B H 0.8674 -0.2381 0.2698
C2B C 0.7665(7) -0.1674(2) 0.1026(6)
H5B H 0.7109 -0.1927 -0.0015
H6B H 0.8154 -0.1318 0.0578
N2B N 0.6314(5) -0.14956(17) 0.1964(5)
H7B H 0.561(6) -0.1826(17) 0.219(7)
C3B C 0.4969(7) -0.1075(2) 0.1017(6)
H8B H 0.5553 -0.0732 0.0606
H9B H 0.4188 -0.1268 -0.0049
C4B C 0.3881(6) -0.0865(2) 0.2249(6)
H10B H 0.3368 -0.1214 0.2711
H11B H 0.2885 -0.0621 0.1553
N3B N 0.4922(5) -0.05087(16) 0.3805(4)
C5B C 0.5106(6) 0.0103(2) 0.3233(5)
H12B H 0.5771 0.0103 0.2300
H13B H 0.3914 0.0271 0.2699
C6B C 0.3927(6) -0.0490(2) 0.5203(6)
H14B H 0.2723 -0.0329 0.4684
H15B H 0.3802 -0.0896 0.5637
S1B S -0.02627(17) -0.07391(6) 0.78694(15)
S1B_2 S 0.97373(17) -0.07391(6) 0.78694(15)
C7B C 0.0521(6) -0.0108(2) 0.7319(6)
N4B N 0.1063(5) 0.03395(18) 0.6944(5)
N4_2 N 0.8937(5) -0.03395(18) 0.3056(5)
N5B N 0.6364(6) -0.17483(18) 0.6102(5)
C8B C 0.5178(7) -0.1958(2) 0.6521(6)
S2B S 0.35507(18) -0.22643(6) 0.71909(17)
loop_
_geom_bond_atom_site_label_1
_geom_bond_atom_site_label_2
_geom_bond_site_symmetry_1
_geom_bond_site_symmetry_2
Cd1 N1 1_555 1_555
N1 H1 1_555 1_555
H2 N1 1_555 1_555
C1 N1 1_555 1_555
H3 C1 1_555 1_555
H4 C1 1_555 1_555
C2 C1 1_555 1_555
H5 C2 1_555 1_555
H6 C2 1_555 1_555
N2 Cd1 1_555 1_555
H7 N2 1_555 1_555
C3 N2 1_555 1_555
H8 C3 1_555 1_555
H9 C3 1_555 1_555
C4 C3 1_555 1_555
H10 C4 1_555 1_555
H11 C4 1_555 1_555
N3 Cd1 1_555 1_555
C5 N3 1_555 1_555
H12 C5 1_555 1_555
H13 C5 1_555 1_555
C6 N3 1_555 1_555
H14 C6 1_555 1_555
H15 C6 1_555 1_555
S1 Cd1 1_555 1_555
C7 S1 1_555 1_555
N4 C7 1_555 1_555
N5 Cd1 1_555 1_555
C8 N5 1_555 1_555
S2 C8 1_555 1_555
Cd1B N1B 1_555 1_555
Cd1B_2 N4 1_555 1_555
N1B H1B 1_555 1_555
H2B N1B 1_555 1_555
C1B N1B 1_555 1_555
H3B C1B 1_555 1_555
H4B C1B 1_555 1_555
C2B C1B 1_555 1_555
H5B C2B 1_555 1_555
H6B C2B 1_555 1_555
N2B Cd1B 1_555 1_555
H7B N2B 1_555 1_555
C3B N2B 1_555 1_555
H8B C3B 1_555 1_555
H9B C3B 1_555 1_555
C4B C3B 1_555 1_555
H10B C4B 1_555 1_555
H11B C4B 1_555 1_555
N3B Cd1B 1_555 1_555
C5B C6 1_555 1_555
H12B C5B 1_555 1_555
H13B C5B 1_555 1_555
C6B C5 1_555 1_555
H14B C6B 1_555 1_555
H15B C6B 1_555 1_555
S1B Cd1B_2 1_555 1_555
S1B_2 Cd1B 1_555 1_555
C7B S1B 1_555 1_555
N4B Cd1 1_555 1_555
N4_2 Cd1B 1_555 1_555
N5B Cd1B 1_555 1_555
C8B N5B 1_555 1_555
S2B C8B 1_555 1_555
C2 N2 1_555 1_555
C4 N3 1_555 1_555
C2B N2B 1_555 1_555
C4B N3B 1_555 1_555
N3B C5B 1_555 1_555
N3B C6B 1_555 1_555
C7B N4B 1_555 1_555

#END
