
#######################################################################
#
#                 Cambridge Crystallographic Data Centre
#                                CCDC 
#
#######################################################################
#
# If this CIF has been generated from an entry in the Cambridge 
# Structural Database, then it will include bibliographic, chemical, 
# crystal, experimental, refinement or atomic coordinate data resulting 
# from the CCDC's data processing and validation procedures.
#
#######################################################################

data_LATYAI
_symmetry_cell_setting           triclinic
_symmetry_space_group_name_H-M   'P -1'
_symmetry_Int_Tables_number      2
_space_group_name_Hall           '-P 1'
loop_
_symmetry_equiv_pos_site_id
_symmetry_equiv_pos_as_xyz
1 x,y,z
2 -x,-y,-z
_cell_length_a                   8.6430(6)
_cell_length_b                   9.4324(7)
_cell_length_c                   12.1411(9)
_cell_angle_alpha                87.7070(13)
_cell_angle_beta                 83.5060(13)
_cell_angle_gamma                78.4720(13)
_cell_volume                     963.45
loop_
_atom_site_label
_atom_site_type_symbol
_atom_site_fract_x
_atom_site_fract_y
_atom_site_fract_z
Cd1 Cd 1.41546(3) 0.11679(2) 0.392800(18)
Cd2 Cd 1.0000 0.0000 0.0000
N1 N 1.2100(3) 0.2025(3) 0.5342(2)
H1 H 1.116(3) 0.164(4) 0.535(3)
H2 H 1.255(4) 0.170(4) 0.600(2)
C1 C 1.3220(4) 0.4235(4) 0.4939(3)
H3 H 1.2925 0.5304 0.4893
H4 H 1.3991 0.3976 0.5493
C2 C 1.1742(4) 0.3620(3) 0.5317(3)
H5 H 1.1304 0.3975 0.6066
H6 H 1.0926 0.3966 0.4806
N2 N 1.3975(3) 0.3674(3) 0.3842(2)
H7 H 1.502(3) 0.387(4) 0.371(3)
C3 C 1.3115(4) 0.4320(3) 0.2898(3)
H8 H 1.3458 0.5234 0.2655
H9 H 1.1960 0.4549 0.3137
C4 C 1.3438(4) 0.3284(3) 0.1932(3)
H10 H 1.2869 0.3748 0.1308
H11 H 1.4589 0.3087 0.1679
N3 N 1.2928(3) 0.1891(3) 0.2234(2)
C5 C 1.1176(3) 0.2075(3) 0.2426(3)
H12 H 1.0702 0.2528 0.1761
H13 H 1.0770 0.2726 0.3058
C6 C 1.0689(4) 0.0634(3) 0.2670(2)
H14 H 1.1100 0.0222 0.3367
H15 H 0.9515 0.0789 0.2784
N4 N 1.1282(3) -0.0425(3) 0.1767(2)
C7 C 1.3030(3) -0.0575(3) 0.1572(3)
H16 H 1.3453 -0.1244 0.0953
H17 H 1.3514 -0.0990 0.2244
C8 C 1.3466(4) 0.0883(3) 0.1293(3)
H18 H 1.4632 0.0758 0.1120
H19 H 1.2967 0.1303 0.0628
C9 C 1.0857(4) -0.1825(3) 0.2146(3)
H20 H 0.9719 -0.1654 0.2436
H21 H 1.1481 -0.2223 0.2762
C10 C 1.1159(4) -0.2933(3) 0.1230(3)
H22 H 1.2290 -0.3095 0.0924
H23 H 1.0930 -0.3865 0.1540
N5 N 1.0144(3) -0.2422(3) 0.0335(2)
H24 H 0.915(3) -0.265(4) 0.057(3)
H25 H 1.061(4) -0.300(4) -0.028(2)
N6 N 0.6574(3) 0.0328(3) 0.2918(2)
N7 N 0.7048(3) 0.0486(3) 0.1985(2)
N8 N 0.7524(3) 0.0647(3) 0.1049(2)
N9 N 1.4051(3) -0.1150(3) 0.4576(2)
N10 N 1.2791(3) -0.1508(3) 0.4829(2)
N11 N 1.1588(3) -0.1873(3) 0.5051(2)
Cd1A Cd 0.58454(3) -0.11679(2) -0.392800(18)
Cd1_2 Cd 0.41546(3) 0.11679(2) 0.392800(18)
Cd1A_2 Cd 1.58454(3) -0.11679(2) 0.607200(18)
Cd1A_3 Cd 1.58454(3) -0.11679(2) -0.392800(18)
N1A N 0.7900(3) -0.2025(3) -0.5342(2)
H1A H 0.884(3) -0.164(4) -0.535(3)
H2A H 0.745(4) -0.170(4) -0.600(2)
C1A C 0.6780(4) -0.4235(4) -0.4939(3)
H3A H 0.7075 -0.5304 -0.4893
H4A H 0.6009 -0.3976 -0.5493
C2A C 0.8258(4) -0.3620(3) -0.5317(3)
H5A H 0.8696 -0.3975 -0.6066
H6A H 0.9074 -0.3966 -0.4806
N2A N 0.6025(3) -0.3674(3) -0.3842(2)
H7A H 0.498(3) -0.387(4) -0.371(3)
C3A C 0.6885(4) -0.4320(3) -0.2898(3)
H8A H 0.6542 -0.5234 -0.2655
H9A H 0.8040 -0.4549 -0.3137
C4A C 0.6562(4) -0.3284(3) -0.1932(3)
H10A H 0.7131 -0.3748 -0.1308
H11A H 0.5411 -0.3087 -0.1679
N3A N 0.7072(3) -0.1891(3) -0.2234(2)
C5A C 0.8824(3) -0.2075(3) -0.2426(3)
H12A H 0.9298 -0.2528 -0.1761
H13A H 0.9230 -0.2726 -0.3058
C6A C 0.9311(4) -0.0634(3) -0.2670(2)
H14A H 0.8900 -0.0222 -0.3367
H15A H 1.0485 -0.0789 -0.2784
N4A N 0.8718(3) 0.0425(3) -0.1767(2)
C7A C 0.6970(3) 0.0575(3) -0.1572(3)
H16A H 0.6547 0.1244 -0.0953
H17A H 0.6486 0.0990 -0.2244
C8A C 0.6534(4) -0.0883(3) -0.1293(3)
H18A H 0.5368 -0.0758 -0.1120
H19A H 0.7033 -0.1303 -0.0628
C9A C 0.9143(4) 0.1825(3) -0.2146(3)
H20A H 1.0281 0.1654 -0.2436
H21A H 0.8519 0.2223 -0.2762
C10A C 0.8841(4) 0.2933(3) -0.1230(3)
H22A H 0.7710 0.3095 -0.0924
H23A H 0.9070 0.3865 -0.1540
N5A N 0.9856(3) 0.2422(3) -0.0335(2)
H24A H 1.085(3) 0.265(4) -0.057(3)
H25A H 0.939(4) 0.300(4) 0.028(2)
N6A N 1.3426(3) -0.0328(3) -0.2918(2)
N6_2 N 1.6574(3) 0.0328(3) 0.2918(2)
N6A_2 N 0.3426(3) -0.0328(3) -0.2918(2)
N7A N 1.2952(3) -0.0486(3) -0.1985(2)
N8A N 1.2476(3) -0.0647(3) -0.1049(2)
N9A N 1.5949(3) 0.1150(3) 0.5424(2)
N9A_2 N 0.5949(3) 0.1150(3) -0.4576(2)
N9_2 N 0.4051(3) -0.1150(3) -0.5424(2)
N10A N 1.7209(3) 0.1508(3) 0.5171(2)
N11A N 1.8412(3) 0.1873(3) 0.4949(2)
Cl1 Cl -0.30303(10) -0.43461(9) 0.16662(7)
O1 O -0.4528(4) -0.4008(4) 0.1202(3)
O2 O -0.3081(3) -0.5425(3) 0.2522(2)
O3 O -0.1803(4) -0.4854(3) 0.0805(2)
O4 O -0.2711(4) -0.3056(3) 0.2104(2)
loop_
_geom_bond_atom_site_label_1
_geom_bond_atom_site_label_2
_geom_bond_site_symmetry_1
_geom_bond_site_symmetry_2
Cd1 N1 1_555 1_555
Cd2 N4 1_555 1_555
N1 H1 1_555 1_555
H2 N1 1_555 1_555
C1 H3 1_555 1_555
H4 C1 1_555 1_555
C2 N1 1_555 1_555
H5 C2 1_555 1_555
H6 C2 1_555 1_555
N2 Cd1 1_555 1_555
H7 N2 1_555 1_555
C3 N2 1_555 1_555
H8 C3 1_555 1_555
H9 C3 1_555 1_555
C4 C3 1_555 1_555
H10 C4 1_555 1_555
H11 C4 1_555 1_555
N3 Cd1 1_555 1_555
C5 N3 1_555 1_555
H12 C5 1_555 1_555
H13 C5 1_555 1_555
C6 C5 1_555 1_555
H14 C6 1_555 1_555
H15 C6 1_555 1_555
N4 C6 1_555 1_555
C7 N4 1_555 1_555
H16 C7 1_555 1_555
H17 C7 1_555 1_555
C8 N3 1_555 1_555
H18 C8 1_555 1_555
H19 C8 1_555 1_555
C9 N4 1_555 1_555
H20 C9 1_555 1_555
H21 C9 1_555 1_555
C10 C9 1_555 1_555
H22 C10 1_555 1_555
H23 C10 1_555 1_555
N5 Cd2 1_555 1_555
H24 N5 1_555 1_555
H25 N5 1_555 1_555
N6 N7 1_555 1_555
N7 N8 1_555 1_555
N8 Cd2 1_555 1_555
N9 Cd1 1_555 1_555
N10 N9 1_555 1_555
N11 N10 1_555 1_555
Cl1 O1 1_555 1_555
O2 Cl1 1_555 1_555
O3 Cl1 1_555 1_555
O4 Cl1 1_555 1_555
Cd1A N1A 1_555 1_555
Cd1_2 N6 1_555 1_555
Cd1A_2 N9 1_555 1_555
Cd1A_3 N6A 1_555 1_555
N1A H1A 1_555 1_555
H2A N1A 1_555 1_555
C1A H3A 1_555 1_555
H4A C1A 1_555 1_555
C2A N1A 1_555 1_555
H5A C2A 1_555 1_555
H6A C2A 1_555 1_555
N2A Cd1A 1_555 1_555
H7A N2A 1_555 1_555
C3A N2A 1_555 1_555
H8A C3A 1_555 1_555
H9A C3A 1_555 1_555
C4A C3A 1_555 1_555
H10A C4A 1_555 1_555
H11A C4A 1_555 1_555
N3A Cd1A 1_555 1_555
C5A N3A 1_555 1_555
H12A C5A 1_555 1_555
H13A C5A 1_555 1_555
C6A C5A 1_555 1_555
H14A C6A 1_555 1_555
H15A C6A 1_555 1_555
N4A Cd2 1_555 1_555
C7A N4A 1_555 1_555
H16A C7A 1_555 1_555
H17A C7A 1_555 1_555
C8A N3A 1_555 1_555
H18A C8A 1_555 1_555
H19A C8A 1_555 1_555
C9A N4A 1_555 1_555
H20A C9A 1_555 1_555
H21A C9A 1_555 1_555
C10A C9A 1_555 1_555
H22A C10A 1_555 1_555
H23A C10A 1_555 1_555
N5A Cd2 1_555 1_555
H24A N5A 1_555 1_555
H25A N5A 1_555 1_555
N6A N7A 1_555 1_555
N6_2 Cd1 1_555 1_555
N6A_2 Cd1A 1_555 1_555
N7A N8A 1_555 1_555
N8A Cd2 1_555 1_555
N9A Cd1 1_555 1_555
N9A_2 Cd1A 1_555 1_555
N9_2 Cd1A 1_555 1_555
N10A N9A 1_555 1_555
N11A N10A 1_555 1_555
C1 C2 1_555 1_555
C1 N2 1_555 1_555
C4 N3 1_555 1_555
C7 C8 1_555 1_555
C10 N5 1_555 1_555
Cd1A_2 N9A 1_555 1_555
C1A C2A 1_555 1_555
C1A N2A 1_555 1_555
C4A N3A 1_555 1_555
C6A N4A 1_555 1_555
C7A C8A 1_555 1_555
C10A N5A 1_555 1_555

#END
