
#######################################################################
#
#                 Cambridge Crystallographic Data Centre
#                                CCDC 
#
#######################################################################
#
# If this CIF has been generated from an entry in the Cambridge 
# Structural Database, then it will include bibliographic, chemical, 
# crystal, experimental, refinement or atomic coordinate data resulting 
# from the CCDC's data processing and validation procedures.
#
#######################################################################

data_LATYEL
_symmetry_cell_setting           orthorhombic
_symmetry_space_group_name_H-M   'P 21 21 21'
_symmetry_Int_Tables_number      19
_space_group_name_Hall           'P 2ac 2ab'
loop_
_symmetry_equiv_pos_site_id
_symmetry_equiv_pos_as_xyz
1 x,y,z
2 1/2-x,-y,1/2+z
3 -x,1/2+y,1/2-z
4 1/2+x,1/2-y,-z
_cell_length_a                   6.6289(13)
_cell_length_b                   14.266(3)
_cell_length_c                   19.151(4)
_cell_angle_alpha                90
_cell_angle_beta                 90
_cell_angle_gamma                90
_cell_volume                     1811.07
loop_
_atom_site_label
_atom_site_type_symbol
_atom_site_fract_x
_atom_site_fract_y
_atom_site_fract_z
Co1 Co 0.00765(8) 0.61991(3) 0.14676(2)
N1 N 0.0171(6) 0.7658(2) 0.12760(16)
N2 N -0.0129(6) 0.6300(2) 0.03724(16)
O1 O -0.3280(5) 0.3860(2) 0.1791(2)
O2 O -0.0972(5) 0.4871(2) 0.14531(19)
O3 O -0.3019(4) 0.6336(2) 0.18703(17)
H1 H -0.326(9) 0.672(4) 0.214(3)
O4 O -0.6378(6) 0.6018(3) 0.31948(16)
O5 O -0.8789(5) 0.6365(2) 0.24385(15)
O6 O -0.6820(4) 0.5625(2) 0.13863(16)
H2 H -0.677(8) 0.523(4) 0.114(3)
C1 C 0.0223(8) 0.8316(3) 0.1774(2)
H3 H 0.037(7) 0.811(3) 0.222(2)
C2 C 0.0076(9) 0.9259(3) 0.1625(2)
H4 H -0.013(10) 0.969(3) 0.196(3)
C3 C -0.0085(10) 0.9543(3) 0.0944(3)
H5 H -0.023(11) 1.021(4) 0.082(3)
C4 C -0.0105(8) 0.8874(3) 0.0423(2)
H6 H -0.021(8) 0.906(3) -0.003(2)
C5 C 0.0028(8) 0.7933(3) 0.0603(2)
C6 C -0.0019(7) 0.7160(3) 0.00880(19)
C7 C 0.0032(9) 0.7296(3) -0.0623(2)
H7 H -0.002(9) 0.781(3) -0.079(2)
C8 C -0.0021(9) 0.6530(4) -0.1059(2)
H8 H 0.001(9) 0.663(3) -0.152(3)
C9 C -0.0134(9) 0.5653(4) -0.0774(2)
H9 H -0.015(10) 0.512(4) -0.105(3)
C10 C -0.0213(8) 0.5564(3) -0.0062(2)
H10 H -0.045(7) 0.504(3) 0.012(2)
C11 C -0.2610(7) 0.4663(3) 0.1746(2)
C12 C -0.7128(6) 0.5974(3) 0.2611(2)
C13 C -0.6064(7) 0.5380(3) 0.2058(2)
H11 H -0.650(7) 0.485(3) 0.213(2)
C14 C -0.3774(7) 0.5461(3) 0.2116(3)
H12 H -0.353(8) 0.539(3) 0.259(3)
Co1_2 Co -0.99235(8) 0.61991(3) 0.14676(2)
O5_2 O 0.1211(5) 0.6365(2) 0.24385(15)
O6_2 O 0.3180(4) 0.5625(2) 0.13863(16)
H2_2 H 0.323(8) 0.523(4) 0.114(3)
O7 O 0.4122(7) 0.6632(3) 0.4543(2)
H13 H 0.373(9) 0.655(4) 0.415(3)
H14 H 0.371(12) 0.718(5) 0.460(4)
O8 O 0.0106(8) 0.7536(3) 0.3600(2)
H15 H 0.063(11) 0.715(5) 0.332(4)
H16 H 0.067(12) 0.798(5) 0.363(4)
O9 O -0.3449(8) 0.7758(3) 0.2771(3)
H17 H -0.268(12) 0.769(5) 0.304(4)
H18 H -0.450(16) 0.805(6) 0.297(5)
O10 O -0.6493(9) 0.4147(4) 0.0576(3)
H19 H -0.554(10) 0.399(4) 0.047(3)
H20 H -0.723(9) 0.403(4) 0.028(3)
O11 O -0.3315(9) 0.3291(4) -0.0227(3)
H21 H -0.247(19) 0.332(10) -0.022(7)
H22 H -0.45(4) 0.283(14) -0.064(12)
loop_
_geom_bond_atom_site_label_1
_geom_bond_atom_site_label_2
_geom_bond_site_symmetry_1
_geom_bond_site_symmetry_2
Co1 N1 1_555 1_555
N1 C1 1_555 1_555
N2 Co1 1_555 1_555
O1 C11 1_555 1_555
O2 Co1 1_555 1_555
O3 Co1 1_555 1_555
H1 O3 1_555 1_555
O4 C12 1_555 1_555
O5 C12 1_555 1_555
O6 H2 1_555 1_555
C1 H3 1_555 1_555
C2 C1 1_555 1_555
H4 C2 1_555 1_555
C3 C2 1_555 1_555
H5 C3 1_555 1_555
C4 C3 1_555 1_555
H6 C4 1_555 1_555
C5 N1 1_555 1_555
C6 N2 1_555 1_555
C7 C6 1_555 1_555
H7 C7 1_555 1_555
C8 C7 1_555 1_555
H8 C8 1_555 1_555
C9 C8 1_555 1_555
H9 C9 1_555 1_555
C10 N2 1_555 1_555
H10 C10 1_555 1_555
C11 O2 1_555 1_555
C12 C13 1_555 1_555
C13 O6 1_555 1_555
H11 C13 1_555 1_555
C14 O3 1_555 1_555
H12 C14 1_555 1_555
O7 H13 1_555 1_555
H14 O7 1_555 1_555
O8 H15 1_555 1_555
H16 O8 1_555 1_555
O9 H17 1_555 1_555
H18 O9 1_555 1_555
O10 H19 1_555 1_555
H20 O10 1_555 1_555
O11 H21 1_555 1_555
H22 O11 1_555 1_555
Co1_2 O5 1_555 1_555
O5_2 Co1 1_555 1_555
O6_2 Co1 1_555 1_555
H2_2 O6_2 1_555 1_555
O6 Co1_2 1_555 1_555
C4 C5 1_555 1_555
C5 C6 1_555 1_555
C9 C10 1_555 1_555
C11 C14 1_555 1_555
C13 C14 1_555 1_555

#END
