
#######################################################################
#
#                 Cambridge Crystallographic Data Centre
#                                CCDC 
#
#######################################################################
#
# If this CIF has been generated from an entry in the Cambridge 
# Structural Database, then it will include bibliographic, chemical, 
# crystal, experimental, refinement or atomic coordinate data resulting 
# from the CCDC's data processing and validation procedures.
#
#######################################################################

data_LAVBUH
_symmetry_cell_setting           triclinic
_symmetry_space_group_name_H-M   'P -1'
_symmetry_Int_Tables_number      2
_space_group_name_Hall           '-P 1'
loop_
_symmetry_equiv_pos_site_id
_symmetry_equiv_pos_as_xyz
1 x,y,z
2 -x,-y,-z
_cell_length_a                   11.9972(14)
_cell_length_b                   12.6118(15)
_cell_length_c                   13.7326(16)
_cell_angle_alpha                106.531(2)
_cell_angle_beta                 102.094(2)
_cell_angle_gamma                110.400(2)
_cell_volume                     1753.37
loop_
_atom_site_label
_atom_site_type_symbol
_atom_site_fract_x
_atom_site_fract_y
_atom_site_fract_z
Cu1 Cu 0.5000 0.5000 0.0000
S1 S 0.7471(9) 0.2167(10) 0.1110(10)
S2 S 0.5473(15) 0.2512(12) 0.4552(14)
S3 S 0.9765(9) 0.7529(10) -0.0331(9)
N1 N 0.661(2) 0.385(2) 0.077(2)
N2 N 0.575(3) 0.378(2) -0.007(2)
N3 N 0.527(3) 0.276(2) -0.087(2)
N4 N 0.576(2) 0.209(3) -0.050(2)
N5 N 0.539(3) 0.467(3) 0.572(3)
N6 N 0.582(5) 0.534(4) 0.676(4)
N7 N 0.622(4) 0.486(5) 0.738(4)
N8 N 0.622(4) 0.382(3) 0.672(3)
N9 N 0.758(2) 0.618(2) -0.0046(18)
N10 N 0.640(2) 0.614(2) -0.0239(17)
N11 N 0.629(2) 0.690(2) -0.069(2)
N12 N 0.742(2) 0.748(2) -0.0737(18)
C1 C 0.662(3) 0.276(3) 0.051(3)
C2 C 0.842(6) 0.332(6) 0.216(6)
H1 H 0.9143 0.3175 0.2445
H2 H 0.8732 0.4019 0.1964
C3 C 0.798(5) 0.361(4) 0.293(5)
H3 H 0.7820 0.4293 0.2861
H4 H 0.8717 0.3976 0.3580
C4 C 0.700(6) 0.301(6) 0.325(4)
H5 H 0.6293 0.2479 0.2577
H6 H 0.7256 0.2457 0.3504
C5 C 0.647(9) 0.341(9) 0.393(8)
H7 H 0.5957 0.3732 0.3574
H8 H 0.7159 0.4120 0.4536
C6 C 0.565(4) 0.369(4) 0.564(3)
C7 C 0.528(4) 0.071(3) -0.120(3)
H9 H 0.4803 0.0536 -0.1930
H10 H 0.4748 0.0227 -0.0908
H11 H 0.5989 0.0525 -0.1197
C8 C 0.658(4) 0.306(6) 0.707(4)
H12 H 0.6623 0.3237 0.7807
H13 H 0.7403 0.3183 0.7026
H14 H 0.5982 0.2229 0.6627
C9 C 0.821(3) 0.702(3) -0.034(2)
C10 C 1.023(4) 0.667(4) 0.034(3)
H15 H 1.1147 0.7036 0.0616
H16 H 0.9947 0.6752 0.0955
C11 C 0.976(4) 0.530(4) -0.031(3)
H17 H 0.8845 0.4904 -0.0559
H18 H 1.0022 0.5193 -0.0938
C12 C 0.765(3) 0.835(3) -0.126(2)
H19 H 0.6897 0.8461 -0.1488
H20 H 0.7868 0.8045 -0.1883
H21 H 0.8331 0.9128 -0.0762
Cu1_2 Cu 1.5000 0.5000 0.0000
S1A S 0.2529(9) 0.7833(10) -0.1110(10)
S2A S 0.4527(15) 0.7488(12) -0.4552(14)
S3A S 1.0235(9) 0.2471(10) 0.0331(9)
N1A N 0.339(2) 0.615(2) -0.077(2)
N2A N 0.425(3) 0.622(2) 0.007(2)
N3A N 0.473(3) 0.724(2) 0.087(2)
N4A N 0.424(2) 0.791(3) 0.050(2)
N5A N 0.461(3) 0.533(3) -0.572(3)
N6A N 0.418(5) 0.466(4) -0.676(4)
N7A N 0.378(4) 0.514(5) -0.738(4)
N8A N 0.378(4) 0.618(3) -0.672(3)
N9A N 1.242(2) 0.382(2) 0.0046(18)
N10A N 1.360(2) 0.386(2) 0.0239(17)
N10A_2 N 0.360(2) 0.386(2) 0.0239(17)
N11A N 1.371(2) 0.310(2) 0.069(2)
N12A N 1.258(2) 0.252(2) 0.0737(18)
C1A C 0.338(3) 0.724(3) -0.051(3)
C2A C 0.158(6) 0.668(6) -0.216(6)
H1A H 0.0857 0.6825 -0.2445
H2A H 0.1268 0.5981 -0.1964
C3A C 0.202(5) 0.639(4) -0.293(5)
H3A H 0.2180 0.5707 -0.2861
H4A H 0.1283 0.6024 -0.3580
C4A C 0.300(6) 0.699(6) -0.325(4)
H5A H 0.3707 0.7521 -0.2577
H6A H 0.2744 0.7543 -0.3504
C5A C 0.353(9) 0.659(9) -0.393(8)
H7A H 0.4043 0.6268 -0.3574
H8A H 0.2841 0.5880 -0.4536
C6A C 0.435(4) 0.631(4) -0.564(3)
C7A C 0.472(4) 0.929(3) 0.120(3)
H9A H 0.5197 0.9464 0.1930
H10A H 0.5252 0.9773 0.0908
H11A H 0.4011 0.9475 0.1197
C8A C 0.342(4) 0.694(6) -0.707(4)
H12A H 0.3377 0.6763 -0.7807
H13A H 0.2597 0.6817 -0.7026
H14A H 0.4018 0.7771 -0.6627
C9A C 1.179(3) 0.298(3) 0.034(2)
C10A C 0.977(4) 0.333(4) -0.034(3)
H15A H 0.8853 0.2964 -0.0616
H16A H 1.0053 0.3248 -0.0955
C11A C 1.024(4) 0.470(4) 0.031(3)
H17A H 1.1155 0.5096 0.0559
H18A H 0.9978 0.4807 0.0938
C12A C 1.235(3) 0.165(3) 0.126(2)
H19A H 1.3103 0.1539 0.1488
H20A H 1.2132 0.1955 0.1883
H21A H 1.1669 0.0872 0.0762
W1 W 0.87114(11) 0.99070(10) 0.23826(9)
W2 W 1.13436(12) 1.26097(10) 0.43773(10)
W3 W 0.95469(12) 1.26629(10) 0.61239(10)
W4 W 0.74155(10) 0.72585(10) 0.29792(9)
W5 W 0.69518(11) 0.99002(11) 0.41727(10)
W6 W 1.17355(12) 0.99095(11) 0.31911(10)
P1 P 1.0000 1.0000 0.5000
O1 O 0.884(3) 0.948(3) 0.403(3)
O3 O 1.029(3) 1.045(3) 0.412(3)
O5 O 0.705(3) 0.968(2) 0.547(2)
O6 O 1.028(2) 1.304(3) 0.5106(17)
O7 O 0.751(3) 1.016(2) 0.303(2)
O8 O 0.799(3) 1.163(2) 0.5005(19)
O9 O 1.205(2) 1.1614(18) 0.375(2)
O10 O 1.105(3) 0.8298(18) 0.3069(17)
O11 O 1.017(2) 0.9622(18) 0.232(2)
O12 O 0.877(2) 0.683(3) 0.2944(18)
O13 O 1.191(2) 1.381(2) 0.405(2)
O14 O 0.6195(18) 0.5986(18) 0.2000(15)
O15 O 0.982(2) 1.158(2) 0.3139(19)
O16 O 0.552(2) 0.9865(19) 0.3760(19)
O17 O 0.788(2) 0.8240(18) 0.219(2)
O18 O 1.254(2) 0.989(2) 0.2323(19)
O19 O 0.808(3) 0.987(3) 0.1157(18)
O20 O 0.658(2) 0.8231(19) 0.349(2)
O21 O 0.9337(19) 1.3915(17) 0.6649(16)
O22 O 1.252(2) 1.314(3) 0.575(2)
W1A W 1.12886(11) 1.00930(10) 0.76174(9)
W2A W 0.86564(12) 0.73903(10) 0.56227(10)
W3A W 1.04531(12) 0.73371(10) 0.38761(10)
W4A W 1.25845(10) 1.27415(10) 0.70208(9)
W5A W 1.30482(11) 1.00998(11) 0.58273(10)
W6A W 0.82645(12) 1.00905(11) 0.68089(10)
O1A O 1.116(3) 1.052(3) 0.597(3)
O3A O 0.971(3) 0.955(3) 0.588(3)
O5A O 1.295(3) 1.032(2) 0.453(2)
O6A O 0.972(2) 0.696(3) 0.4894(17)
O7A O 1.249(3) 0.984(2) 0.697(2)
O8A O 1.201(3) 0.837(2) 0.4995(19)
O9A O 0.795(2) 0.8386(18) 0.625(2)
O10A O 0.895(3) 1.1702(18) 0.6931(17)
O11A O 0.983(2) 1.0378(18) 0.768(2)
O12A O 1.123(2) 1.317(3) 0.7056(18)
O13A O 0.809(2) 0.619(2) 0.595(2)
O14A O 1.3805(18) 1.4014(18) 0.8000(15)
O15A O 1.018(2) 0.842(2) 0.6861(19)
O16A O 1.448(2) 1.0135(19) 0.6240(19)
O17A O 1.212(2) 1.1760(18) 0.781(2)
O18A O 0.746(2) 1.011(2) 0.7677(19)
O19A O 1.192(3) 1.013(3) 0.8843(18)
O20A O 1.342(2) 1.1769(19) 0.651(2)
O21A O 1.0663(19) 0.6085(17) 0.3351(16)
O22A O 0.748(2) 0.686(3) 0.425(2)
O2? O 0.933(3) 0.858(3) 0.456(3)
O4? O 0.907(3) 1.046(3) 0.537(3)
loop_
_geom_bond_atom_site_label_1
_geom_bond_atom_site_label_2
_geom_bond_site_symmetry_1
_geom_bond_site_symmetry_2
W1 O1 1_555 1_555
W2 O3 1_555 1_555
W3 O6 1_555 1_555
W4 O1 1_555 1_555
W5 O5 1_555 1_555
W6 O9 1_555 1_555
Cu1 N2 1_555 1_555
S1 C1 1_555 1_555
S2 C5 1_555 1_555
S3 C9 1_555 1_555
P1 O1 1_555 1_555
O1 O3 1_555 1_555
O3 W1 1_555 1_555
O5 W6A 1_555 1_555
O6 W2 1_555 1_555
O7 W1 1_555 1_555
O8 W3 1_555 1_555
O9 W2 1_555 1_555
O10 W6 1_555 1_555
O11 W1 1_555 1_555
O12 W4 1_555 1_555
O13 W2 1_555 1_555
O14 W4 1_555 1_555
O15 W1 1_555 1_555
O16 W5 1_555 1_555
O17 W1 1_555 1_555
O18 W6 1_555 1_555
O19 W1 1_555 1_555
O20 W4 1_555 1_555
O21 W3 1_555 1_555
O22 W2 1_555 1_555
N1 N2 1_555 1_555
N2 N3 1_555 1_555
N3 N4 1_555 1_555
N4 C1 1_555 1_555
N5 N6 1_555 1_555
N6 N7 1_555 1_555
N7 N8 1_555 1_555
N8 C6 1_555 1_555
N9 N10 1_555 1_555
N10 Cu1 1_555 1_555
N11 N10 1_555 1_555
N12 N11 1_555 1_555
C1 N1 1_555 1_555
C2 S1 1_555 1_555
H1 C2 1_555 1_555
H2 C2 1_555 1_555
C3 C2 1_555 1_555
H3 C3 1_555 1_555
H4 C3 1_555 1_555
C4 C3 1_555 1_555
H5 C4 1_555 1_555
H6 C4 1_555 1_555
C5 C4 1_555 1_555
H7 C5 1_555 1_555
H8 C5 1_555 1_555
C6 S2 1_555 1_555
C7 N4 1_555 1_555
H9 C7 1_555 1_555
H10 C7 1_555 1_555
H11 C7 1_555 1_555
C8 N8 1_555 1_555
H12 C8 1_555 1_555
H13 C8 1_555 1_555
H14 C8 1_555 1_555
C9 N9 1_555 1_555
C10 S3 1_555 1_555
H15 C10 1_555 1_555
H16 C10 1_555 1_555
C11 C10 1_555 1_555
H17 C11 1_555 1_555
H18 C11 1_555 1_555
C12 N12 1_555 1_555
H19 C12 1_555 1_555
H20 C12 1_555 1_555
H21 C12 1_555 1_555
W1A O1A 1_555 1_555
W2A O3A 1_555 1_555
W3A O10 1_555 1_555
W4A O22 1_555 1_555
W5A O5A 1_555 1_555
W6A O9A 1_555 1_555
Cu1_2 N10A 1_555 1_555
S1A C1A 1_555 1_555
S2A C5A 1_555 1_555
S3A C9A 1_555 1_555
O1A P1 1_555 1_555
O3A P1 1_555 1_555
O5A W6 1_555 1_555
O6A W2A 1_555 1_555
O7A W1A 1_555 1_555
O8A W3A 1_555 1_555
O9A W2A 1_555 1_555
O10A W3 1_555 1_555
O11A W1A 1_555 1_555
O12A W3 1_555 1_555
O13A W2A 1_555 1_555
O14A W4A 1_555 1_555
O15A W1A 1_555 1_555
O16A W5A 1_555 1_555
O17A W1A 1_555 1_555
O18A W6A 1_555 1_555
O19A W1A 1_555 1_555
O20A W4A 1_555 1_555
O21A W3A 1_555 1_555
O22A W4 1_555 1_555
N1A N2A 1_555 1_555
N2A Cu1 1_555 1_555
N3A N2A 1_555 1_555
N4A N3A 1_555 1_555
N5A N6A 1_555 1_555
N6A N7A 1_555 1_555
N7A N8A 1_555 1_555
N8A C6A 1_555 1_555
N9A N10A 1_555 1_555
N10A N11A 1_555 1_555
N10A_2 Cu1 1_555 1_555
N11A N12A 1_555 1_555
N12A C9A 1_555 1_555
C1A N1A 1_555 1_555
C2A S1A 1_555 1_555
H1A C2A 1_555 1_555
H2A C2A 1_555 1_555
C3A C2A 1_555 1_555
H3A C3A 1_555 1_555
H4A C3A 1_555 1_555
C4A C3A 1_555 1_555
H5A C4A 1_555 1_555
H6A C4A 1_555 1_555
C5A C4A 1_555 1_555
H7A C5A 1_555 1_555
H8A C5A 1_555 1_555
C6A S2A 1_555 1_555
C7A N4A 1_555 1_555
H9A C7A 1_555 1_555
H10A C7A 1_555 1_555
H11A C7A 1_555 1_555
C8A N8A 1_555 1_555
H12A C8A 1_555 1_555
H13A C8A 1_555 1_555
H14A C8A 1_555 1_555
C9A N9A 1_555 1_555
C10A S3A 1_555 1_555
H15A C10A 1_555 1_555
H16A C10A 1_555 1_555
C11A C11 1_555 1_555
H17A C11A 1_555 1_555
H18A C11A 1_555 1_555
C12A N12A 1_555 1_555
H19A C12A 1_555 1_555
H20A C12A 1_555 1_555
H21A C12A 1_555 1_555
W2 O15 1_555 1_555
W4 O17 1_555 1_555
W5 O7 1_555 1_555
W5 O8 1_555 1_555
W5 O20 1_555 1_555
W6 O11 1_555 1_555
P1 O3 1_555 1_555
O12 W3A 1_555 1_555
N5 C6 1_555 1_555
N12 C9 1_555 1_555
W1A O3A 1_555 1_555
W2A O15A 1_555 1_555
W2A O22A 1_555 1_555
W3A O6A 1_555 1_555
W4A O1A 1_555 1_555
W4A O12A 1_555 1_555
W4A O17A 1_555 1_555
W5A O7A 1_555 1_555
W5A O8A 1_555 1_555
W5A O20A 1_555 1_555
W6A O10A 1_555 1_555
W6A O11A 1_555 1_555
O1A O3A 1_555 1_555
N4A C1A 1_555 1_555
N5A C6A 1_555 1_555
C10A C11A 1_555 1_555

#END
