
#######################################################################
#
#                 Cambridge Crystallographic Data Centre
#                                CCDC 
#
#######################################################################
#
# If this CIF has been generated from an entry in the Cambridge 
# Structural Database, then it will include bibliographic, chemical, 
# crystal, experimental, refinement or atomic coordinate data resulting 
# from the CCDC's data processing and validation procedures.
#
#######################################################################

data_LAVCAO
_symmetry_cell_setting           triclinic
_symmetry_space_group_name_H-M   'P -1'
_symmetry_Int_Tables_number      2
_space_group_name_Hall           '-P 1'
loop_
_symmetry_equiv_pos_site_id
_symmetry_equiv_pos_as_xyz
1 x,y,z
2 -x,-y,-z
_cell_length_a                   12.012(2)
_cell_length_b                   12.536(2)
_cell_length_c                   13.734(4)
_cell_angle_alpha                106.637(3)
_cell_angle_beta                 101.958(3)
_cell_angle_gamma                110.130(2)
_cell_volume                     1749.75
loop_
_atom_site_label
_atom_site_type_symbol
_atom_site_fract_x
_atom_site_fract_y
_atom_site_fract_z
Mo1 Mo 0.74828(12) 0.22394(12) 1.29488(10)
Mo2 Mo 1.14466(13) 0.75820(12) 1.43569(11)
Mo3 Mo 0.84023(14) 0.52677(12) 1.69098(11)
Mo4 Mo 0.86836(13) 0.49656(12) 1.24157(10)
Mo5 Mo 0.69267(12) 0.48159(12) 1.42163(11)
Mo6 Mo 0.95138(14) 0.76898(12) 1.59868(11)
P1 P 1.0000 0.5000 1.5000
O1 O 0.6268(10) 0.0968(9) 1.2018(9)
O2 O 1.2012(12) 0.8780(11) 1.4007(11)
O3 O 0.7603(12) 0.5327(12) 1.7761(10)
O4 O 0.8046(15) 0.4853(13) 1.1182(9)
O5 O 0.5510(11) 0.4780(11) 1.3798(10)
O6 O 0.9267(12) 0.8919(10) 1.6496(9)
O7 O 0.9051(15) 0.5454(15) 1.5381(14)
O8 O 1.0264(15) 0.5375(16) 1.4071(13)
O9 O 0.8826(15) 0.4496(15) 1.4043(13)
O10 O 0.9352(17) 0.3573(15) 1.4577(14)
O11 O 0.9925(12) 0.5464(10) 1.7732(13)
O12 O 0.7061(15) 0.4743(11) 1.5532(10)
O13 O 1.2037(11) 0.6530(11) 1.3670(12)
O14 O 0.7510(14) 0.5127(11) 1.3043(12)
O15 O 0.7481(13) 0.1903(16) 1.4286(10)
O16 O 1.0269(13) 0.8041(17) 1.5036(10)
O17 O 0.7958(14) 0.6596(11) 1.4966(10)
O18 O 0.7900(14) 0.3206(11) 1.2211(12)
O19 O 0.8804(12) 0.1812(16) 1.2998(10)
O20 O 0.8981(14) 0.6812(12) 1.6923(10)
O21 O 0.9819(12) 0.6568(11) 1.3114(12)
O22 O 0.6605(14) 0.3207(11) 1.3522(12)
Mo1A Mo 1.25172(12) 0.77606(12) 1.70512(10)
Mo2A Mo 0.85534(13) 0.24180(12) 1.56431(11)
Mo3A Mo 1.15977(14) 0.47323(12) 1.30902(11)
Mo4A Mo 1.13164(13) 0.50344(12) 1.75843(10)
Mo5A Mo 1.30733(12) 0.51841(12) 1.57837(11)
Mo6A Mo 1.04862(14) 0.23102(12) 1.40132(11)
O1A O 1.3732(10) 0.9032(9) 1.7982(9)
O2A O 0.7988(12) 0.1220(11) 1.5993(11)
O3A O 1.2397(12) 0.4673(12) 1.2239(10)
O4A O 1.1954(15) 0.5147(13) 1.8818(9)
O5A O 1.4490(11) 0.5220(11) 1.6202(10)
O6A O 1.0733(12) 0.1081(10) 1.3504(9)
O7A O 1.0949(15) 0.4546(15) 1.4619(14)
O8A O 0.9736(15) 0.4625(16) 1.5929(13)
O9A O 1.1174(15) 0.5504(15) 1.5957(13)
O10A O 1.0648(17) 0.6427(15) 1.5423(14)
O11A O 1.0075(12) 0.4536(10) 1.2268(13)
O12A O 1.2939(15) 0.5257(11) 1.4468(10)
O13A O 0.7963(11) 0.3470(11) 1.6330(12)
O14A O 1.2490(14) 0.4873(11) 1.6957(12)
O15A O 1.2519(13) 0.8097(16) 1.5714(10)
O16A O 0.9731(13) 0.1959(17) 1.4964(10)
O17A O 1.2042(14) 0.3404(11) 1.5034(10)
O18A O 1.2100(14) 0.6794(11) 1.7789(12)
O19A O 1.1196(12) 0.8188(16) 1.7002(10)
O20A O 1.1019(14) 0.3188(12) 1.3077(10)
O21A O 1.0181(12) 0.3432(11) 1.6886(12)
O22A O 1.3395(14) 0.6793(11) 1.6478(12)
Cu1 Cu 0.5000 0.0000 1.0000
S1 S 0.0264(4) -0.2534(5) 1.0358(4)
S2 S 0.2536(5) 0.2896(5) 0.8977(5)
S3 S 0.4522(8) 0.2484(6) 0.5477(7)
N1 N 0.2450(12) -0.1172(11) 1.0073(11)
N2 N 0.3583(12) -0.1162(10) 1.0246(9)
N3 N 0.3721(12) -0.1932(10) 1.0670(10)
N4 N 0.2593(13) -0.2496(11) 1.0745(10)
N5 N 0.3345(13) 0.1166(13) 0.9285(13)
N6 N 0.4253(12) 0.1228(11) 1.0133(11)
N7 N 0.4804(13) 0.2291(12) 1.0895(11)
N8 N 0.4282(14) 0.2988(13) 1.0597(12)
N9 N 0.4624(16) 0.0366(16) 0.4276(14)
N10 N 0.430(2) -0.030(2) 0.3214(19)
N11 N 0.381(2) 0.016(2) 0.2639(17)
N12 N 0.3813(17) 0.1206(18) 0.3323(16)
C1 C 0.1807(14) -0.2039(13) 1.0367(12)
C2 C -0.0256(16) -0.1668(17) 0.9630(14)
H1 H 0.0020 -0.1751 0.9009
H2 H -0.1170 -0.2027 0.9367
C3 C 0.0241(17) -0.0335(18) 1.0315(14)
H3 H 0.1155 0.0036 1.0562
H4 H -0.0020 -0.0245 1.0945
C4 C 0.235(2) -0.3377(17) 1.1254(15)
H5 H 0.3075 -0.3536 1.1439
H6 H 0.1636 -0.4132 1.0763
H7 H 0.2175 -0.3047 1.1896
C5 C 0.3407(15) 0.2303(15) 0.9606(14)
C6 C 0.161(3) 0.169(3) 0.777(3)
H8 H 0.1196 0.0980 0.7923
H9 H 0.0957 0.1892 0.7434
C7 C 0.209(3) 0.135(3) 0.705(2)
H10 H 0.1390 0.0919 0.6370
H11 H 0.2309 0.0721 0.7193
C8 C 0.307(3) 0.201(2) 0.679(2)
H12 H 0.3808 0.2334 0.7430
H13 H 0.2928 0.2710 0.6750
C9 C 0.345(4) 0.161(3) 0.593(3)
H14 H 0.2674 0.1138 0.5313
H15 H 0.3748 0.1024 0.6057
C10 C 0.432(2) 0.132(2) 0.4312(19)
C11 C 0.468(2) 0.4287(18) 1.1260(15)
H16 H 0.5315 0.4526 1.1932
H17 H 0.3964 0.4398 1.1399
H18 H 0.5007 0.4789 1.0883
C12 C 0.339(3) 0.197(3) 0.293(3)
H19 H 0.3469 0.2658 0.3523
H20 H 0.2517 0.1508 0.2473
H21 H 0.3882 0.2273 0.2516
Cu1_2 Cu -0.5000 0.0000 1.0000
S1A S -0.0264(4) 0.2534(5) 0.9642(4)
S2A S 0.7464(5) -0.2896(5) 1.1023(5)
S3A S 0.5478(8) -0.2484(6) 1.4523(7)
N1A N -0.2450(12) 0.1172(11) 0.9927(11)
N2A N -0.3583(12) 0.1162(10) 0.9754(9)
N2A_2 N 0.6417(12) 0.1162(10) 0.9754(9)
N3A N -0.3721(12) 0.1932(10) 0.9330(10)
N4A N -0.2593(13) 0.2496(11) 0.9255(10)
N5A N 0.6655(13) -0.1166(13) 1.0715(13)
N6A N 0.5747(12) -0.1228(11) 0.9867(11)
N7A N 0.5196(13) -0.2291(12) 0.9105(11)
N8A N 0.5718(14) -0.2988(13) 0.9403(12)
N9A N 0.5376(16) -0.0366(16) 1.5724(14)
N10A N 0.570(2) 0.030(2) 1.6786(19)
N11A N 0.619(2) -0.016(2) 1.7361(17)
N12A N 0.6187(17) -0.1206(18) 1.6677(16)
C1A C -0.1807(14) 0.2039(13) 0.9633(12)
C2A C 0.0256(16) 0.1668(17) 1.0370(14)
H1A H -0.0020 0.1751 1.0991
H2A H 0.1170 0.2027 1.0633
C3A C -0.0241(17) 0.0335(18) 0.9685(14)
H3A H -0.1155 -0.0036 0.9438
H4A H 0.0020 0.0245 0.9055
C4A C -0.235(2) 0.3377(17) 0.8746(15)
H5A H -0.3075 0.3536 0.8561
H6A H -0.1636 0.4132 0.9237
H7A H -0.2175 0.3047 0.8104
C5A C 0.6593(15) -0.2303(15) 1.0394(14)
C6A C 0.839(3) -0.169(3) 1.223(3)
H8A H 0.8804 -0.0980 1.2077
H9A H 0.9043 -0.1892 1.2566
C7A C 0.791(3) -0.135(3) 1.295(2)
H10A H 0.8610 -0.0919 1.3630
H11A H 0.7691 -0.0721 1.2807
C8A C 0.693(3) -0.201(2) 1.321(2)
H12A H 0.6192 -0.2334 1.2570
H13A H 0.7072 -0.2710 1.3250
C9A C 0.655(4) -0.161(3) 1.407(3)
H14A H 0.7326 -0.1138 1.4687
H15A H 0.6252 -0.1024 1.3943
C10A C 0.568(2) -0.132(2) 1.5688(19)
C11A C 0.532(2) -0.4287(18) 0.8740(15)
H16A H 0.4685 -0.4526 0.8068
H17A H 0.6036 -0.4398 0.8601
H18A H 0.4993 -0.4789 0.9117
C12A C 0.661(3) -0.197(3) 1.707(3)
H19A H 0.6531 -0.2658 1.6477
H20A H 0.7483 -0.1508 1.7527
H21A H 0.6118 -0.2273 1.7484
loop_
_geom_bond_atom_site_label_1
_geom_bond_atom_site_label_2
_geom_bond_site_symmetry_1
_geom_bond_site_symmetry_2
Cu1 N2 1_555 1_555
Mo1 O1 1_555 1_555
Mo2 O2 1_555 1_555
Mo3 O3 1_555 1_555
Mo4 O4 1_555 1_555
Mo5 O5 1_555 1_555
Mo6 O6 1_555 1_555
P1 O7 1_555 1_555
S1 C1 1_555 1_555
S2 C5 1_555 1_555
S3 C9 1_555 1_555
O7 Mo3 1_555 1_555
O8 Mo2 1_555 1_555
O9 Mo1 1_555 1_555
O10 Mo1 1_555 1_555
O11 Mo3 1_555 1_555
O12 Mo3 1_555 1_555
O13 Mo2 1_555 1_555
O14 Mo4 1_555 1_555
O15 Mo1 1_555 1_555
O16 Mo2 1_555 1_555
O17 Mo5 1_555 1_555
O18 Mo1 1_555 1_555
O19 Mo1 1_555 1_555
O20 Mo3 1_555 1_555
O21 Mo2 1_555 1_555
O22 Mo1 1_555 1_555
N1 N2 1_555 1_555
N2 N3 1_555 1_555
N3 N4 1_555 1_555
N4 C1 1_555 1_555
N5 N6 1_555 1_555
N6 Cu1 1_555 1_555
N7 N6 1_555 1_555
N8 N7 1_555 1_555
N9 N10 1_555 1_555
N10 N11 1_555 1_555
N11 N12 1_555 1_555
N12 C10 1_555 1_555
C1 N1 1_555 1_555
C2 S1 1_555 1_555
H1 C2 1_555 1_555
H2 C2 1_555 1_555
C3 C2 1_555 1_555
H3 C3 1_555 1_555
H4 C3 1_555 1_555
C4 N4 1_555 1_555
H5 C4 1_555 1_555
H6 C4 1_555 1_555
H7 C4 1_555 1_555
C5 N5 1_555 1_555
C6 S2 1_555 1_555
H8 C6 1_555 1_555
H9 C6 1_555 1_555
C7 C6 1_555 1_555
H10 C7 1_555 1_555
H11 C7 1_555 1_555
C8 C7 1_555 1_555
H12 C8 1_555 1_555
H13 C8 1_555 1_555
C9 C8 1_555 1_555
H14 C9 1_555 1_555
H15 C9 1_555 1_555
C10 S3 1_555 1_555
C11 N8 1_555 1_555
H16 C11 1_555 1_555
H17 C11 1_555 1_555
H18 C11 1_555 1_555
C12 N12 1_555 1_555
H19 C12 1_555 1_555
H20 C12 1_555 1_555
H21 C12 1_555 1_555
Cu1_2 N2A 1_555 1_555
Mo1A O1A 1_555 1_555
Mo2A O10 1_555 1_555
Mo3A O8 1_555 1_555
Mo4A O11 1_555 1_555
Mo5A O5A 1_555 1_555
Mo6A O10 1_555 1_555
S1A C1A 1_555 1_555
S2A C5A 1_555 1_555
S3A C9A 1_555 1_555
O2A Mo2A 1_555 1_555
O3A Mo3A 1_555 1_555
O4A Mo4A 1_555 1_555
O6A Mo6A 1_555 1_555
O7A P1 1_555 1_555
O8A Mo3 1_555 1_555
O9A P1 1_555 1_555
O10A Mo2 1_555 1_555
O11A Mo4 1_555 1_555
O12A Mo3A 1_555 1_555
O13A Mo3 1_555 1_555
O14A Mo4A 1_555 1_555
O15A Mo2 1_555 1_555
O16A Mo2A 1_555 1_555
O17A Mo5A 1_555 1_555
O18A Mo1A 1_555 1_555
O19A Mo6 1_555 1_555
O20A Mo3A 1_555 1_555
O21A Mo2A 1_555 1_555
O22A Mo1A 1_555 1_555
N1A N2A 1_555 1_555
N2A N3A 1_555 1_555
N2A_2 Cu1 1_555 1_555
N3A N4A 1_555 1_555
N4A C1A 1_555 1_555
N5A N6A 1_555 1_555
N6A Cu1 1_555 1_555
N7A N6A 1_555 1_555
N8A N7A 1_555 1_555
N9A N10A 1_555 1_555
N10A N11A 1_555 1_555
N11A N12A 1_555 1_555
N12A C10A 1_555 1_555
C1A N1A 1_555 1_555
C2A S1A 1_555 1_555
H1A C2A 1_555 1_555
H2A C2A 1_555 1_555
C3A C3 1_555 1_555
H3A C3A 1_555 1_555
H4A C3A 1_555 1_555
C4A N4A 1_555 1_555
H5A C4A 1_555 1_555
H6A C4A 1_555 1_555
H7A C4A 1_555 1_555
C5A N5A 1_555 1_555
C6A S2A 1_555 1_555
H8A C6A 1_555 1_555
H9A C6A 1_555 1_555
C7A C6A 1_555 1_555
H10A C7A 1_555 1_555
H11A C7A 1_555 1_555
C8A C7A 1_555 1_555
H12A C8A 1_555 1_555
H13A C8A 1_555 1_555
C9A C8A 1_555 1_555
H14A C9A 1_555 1_555
H15A C9A 1_555 1_555
C10A S3A 1_555 1_555
C11A N8A 1_555 1_555
H16A C11A 1_555 1_555
H17A C11A 1_555 1_555
H18A C11A 1_555 1_555
C12A N12A 1_555 1_555
H19A C12A 1_555 1_555
H20A C12A 1_555 1_555
H21A C12A 1_555 1_555
Mo4 O8 1_555 1_555
Mo4 O9 1_555 1_555
Mo4 O18 1_555 1_555
Mo4 O21 1_555 1_555
Mo5 O7 1_555 1_555
Mo5 O9 1_555 1_555
Mo5 O12 1_555 1_555
Mo5 O14 1_555 1_555
Mo5 O22 1_555 1_555
Mo6 O7 1_555 1_555
Mo6 O16 1_555 1_555
Mo6 O17 1_555 1_555
Mo6 O20 1_555 1_555
Mo6 O10A 1_555 1_555
P1 O8 1_555 1_555
P1 O9 1_555 1_555
P1 O10 1_555 1_555
P1 O8A 1_555 1_555
P1 O10A 1_555 1_555
O7 O9 1_555 1_555
O7 O8A 1_555 1_555
O8 O9 1_555 1_555
O8 O7A 1_555 1_555
O8 O10A 1_555 1_555
O9 O10 1_555 1_555
O10 O8A 1_555 1_555
O13 Mo3A 1_555 1_555
O15 Mo2A 1_555 1_555
O19 Mo6A 1_555 1_555
N8 C5 1_555 1_555
N9 C10 1_555 1_555
Mo1A O9A 1_555 1_555
Mo1A O10A 1_555 1_555
Mo1A O15A 1_555 1_555
Mo1A O19A 1_555 1_555
Mo2A O8A 1_555 1_555
Mo2A O13A 1_555 1_555
Mo3A O7A 1_555 1_555
Mo3A O11A 1_555 1_555
Mo4A O8A 1_555 1_555
Mo4A O9A 1_555 1_555
Mo4A O18A 1_555 1_555
Mo4A O21A 1_555 1_555
Mo5A O7A 1_555 1_555
Mo5A O9A 1_555 1_555
Mo5A O12A 1_555 1_555
Mo5A O14A 1_555 1_555
Mo5A O22A 1_555 1_555
Mo6A O7A 1_555 1_555
Mo6A O16A 1_555 1_555
Mo6A O17A 1_555 1_555
Mo6A O20A 1_555 1_555
O7A O9A 1_555 1_555
O8A O9A 1_555 1_555
O9A O10A 1_555 1_555
N8A C5A 1_555 1_555
N9A C10A 1_555 1_555
C2A C3A 1_555 1_555

#END
