
#######################################################################
#
#                 Cambridge Crystallographic Data Centre
#                                CCDC 
#
#######################################################################
#
# If this CIF has been generated from an entry in the Cambridge 
# Structural Database, then it will include bibliographic, chemical, 
# crystal, experimental, refinement or atomic coordinate data resulting 
# from the CCDC's data processing and validation procedures.
#
#######################################################################

data_LAVDIW
_symmetry_cell_setting           triclinic
_symmetry_space_group_name_H-M   'P -1'
_symmetry_Int_Tables_number      2
_space_group_name_Hall           '-P 1'
loop_
_symmetry_equiv_pos_site_id
_symmetry_equiv_pos_as_xyz
1 x,y,z
2 -x,-y,-z
_cell_length_a                   8.3944(8)
_cell_length_b                   12.8134(13)
_cell_length_c                   14.4304(14)
_cell_angle_alpha                110.186(2)
_cell_angle_beta                 98.626(2)
_cell_angle_gamma                99.674(2)
_cell_volume                     1399.34
loop_
_atom_site_label
_atom_site_type_symbol
_atom_site_fract_x
_atom_site_fract_y
_atom_site_fract_z
La1 La 0.777115(17) 0.566371(12) 0.526944(11)
O1 O 0.8574(2) 0.45578(18) 0.64716(15)
O2 O 0.6915(2) 0.57195(17) 0.69225(14)
O3 O 0.5352(2) 0.39388(15) 0.47373(14)
O4 O 0.3182(2) 0.24753(16) 0.42359(16)
O5 O 0.8912(2) 0.41237(16) 0.41671(14)
O6 O 0.9998(2) 0.28623(17) 0.31629(15)
O8 O 0.6300(2) 0.53949(18) 0.35120(14)
H2 H 0.5313(18) 0.498(2) 0.3319(19)
H3 H 0.668(3) 0.536(3) 0.2991(14)
O9 O 0.9527(2) 0.68795(17) 0.44882(15)
H4 H 1.011(3) 0.652(2) 0.4131(19)
H5 H 0.916(4) 0.733(2) 0.424(2)
N1 N 0.7148(4) 0.5456(3) 1.1725(2)
N2 N 0.8132(4) -0.1547(2) 0.3821(2)
N3 N 0.2683(4) 0.0722(3) -0.0754(3)
C1 C 0.7795(3) 0.5058(2) 0.7096(2)
C2 C 0.7887(4) 0.4896(3) 0.8072(2)
H8 H 0.8384 0.4318 0.8170
C3 C 0.7294(4) 0.5538(3) 0.8806(2)
H9 H 0.6806 0.6101 0.8668
C4 C 0.7293(4) 0.5493(3) 0.9809(2)
C5 C 0.6616(4) 0.6261(3) 1.0475(2)
H10 H 0.6190 0.6821 1.0291
C6 C 0.6563(5) 0.6207(3) 1.1412(3)
H11 H 0.6081 0.6737 1.1855
C7 C 0.7821(5) 0.4730(4) 1.1087(3)
H12 H 0.8257 0.4189 1.1298
C8 C 0.7920(4) 0.4717(3) 1.0137(3)
H13 H 0.8415 0.4180 0.9712
C9 C 0.4723(3) 0.2863(2) 0.44353(19)
C10 C 0.5858(4) 0.2084(2) 0.4338(2)
H14 H 0.7021 0.2399 0.4548
C11 C 0.5295(4) 0.0960(3) 0.3967(2)
H15 H 0.4128 0.0675 0.3735
C12 C 0.6295(4) 0.0109(3) 0.3876(2)
C13 C 0.5538(5) -0.0978(3) 0.3793(2)
H16 H 0.4377 -0.1184 0.3741
C14 C 0.6504(5) -0.1766(3) 0.3786(2)
H17 H 0.5976 -0.2497 0.3756
C15 C 0.8830(5) -0.0509(3) 0.3862(3)
H18 H 0.9977 -0.0344 0.3864
C16 C 0.7988(4) 0.0341(3) 0.3902(3)
H19 H 0.8554 0.1070 0.3946
C17 C 0.8793(3) 0.3285(2) 0.3340(2)
C18 C 0.7183(3) 0.2839(2) 0.2579(2)
H20 H 0.6220 0.3051 0.2782
C19 C 0.7056(4) 0.2157(3) 0.1629(2)
H21 H 0.8035 0.1951 0.1449
C20 C 0.5527(4) 0.1694(3) 0.0830(2)
C21 C 0.5628(5) 0.1312(3) -0.0190(2)
H22 H 0.6677 0.1380 -0.0364
C22 C 0.4186(5) 0.0838(3) -0.0937(3)
H23 H 0.4280 0.0580 -0.1624
C23 C 0.2584(5) 0.1097(3) 0.0219(3)
H24 H 0.1514 0.1023 0.0366
C24 C 0.3959(4) 0.1588(3) 0.1028(3)
H25 H 0.3823 0.1847 0.1706
La1A La 0.222885(17) 0.433629(12) 0.473056(11)
La1A_2 La 1.222885(17) 0.433629(12) 0.473056(11)
O3A O 0.4648(2) 0.60612(15) 0.52627(14)
O4A O 0.6818(2) 0.75247(16) 0.57641(16)
O5A O 1.1088(2) 0.58763(16) 0.58329(14)
O6A O 1.0002(2) 0.71377(17) 0.68371(15)
O7 O 0.2147(5) 0.9066(4) 0.2087(4)
H1 H 0.142(7) 0.935(6) 0.180(5)
C25 C 0.0955(10) 0.8068(5) 0.1777(6)
H26 H 0.1487 0.7437 0.1751
H27 H 0.0298 0.7912 0.1102
H28 H 0.0228 0.8142 0.2256
O10 O 0.0505(4) 1.0660(3) 0.1964(3)
H6 H 0.053(5) 1.124(3) 0.248(3)
H7 H -0.046(3) 1.021(3) 0.176(3)
loop_
_geom_bond_atom_site_label_1
_geom_bond_atom_site_label_2
_geom_bond_site_symmetry_1
_geom_bond_site_symmetry_2
La1 O1 1_555 1_555
O1 C1 1_555 1_555
O2 La1 1_555 1_555
O3 La1 1_555 1_555
O4 C9 1_555 1_555
O5 La1 1_555 1_555
O6 C17 1_555 1_555
O7 H1 1_555 1_555
O8 La1 1_555 1_555
H2 O8 1_555 1_555
H3 O8 1_555 1_555
O9 La1 1_555 1_555
H4 O9 1_555 1_555
H5 O9 1_555 1_555
O10 H6 1_555 1_555
H7 O10 1_555 1_555
N1 C6 1_555 1_555
N2 C14 1_555 1_555
N3 C22 1_555 1_555
C1 O2 1_555 1_555
C2 C1 1_555 1_555
H8 C2 1_555 1_555
C3 C2 1_555 1_555
H9 C3 1_555 1_555
C4 C3 1_555 1_555
C5 C4 1_555 1_555
H10 C5 1_555 1_555
C6 C5 1_555 1_555
H11 C6 1_555 1_555
C7 N1 1_555 1_555
H12 C7 1_555 1_555
C8 C4 1_555 1_555
H13 C8 1_555 1_555
C9 O3 1_555 1_555
C10 C9 1_555 1_555
H14 C10 1_555 1_555
C11 C10 1_555 1_555
H15 C11 1_555 1_555
C12 C11 1_555 1_555
C13 C12 1_555 1_555
H16 C13 1_555 1_555
C14 C13 1_555 1_555
H17 C14 1_555 1_555
C15 N2 1_555 1_555
H18 C15 1_555 1_555
C16 C12 1_555 1_555
H19 C16 1_555 1_555
C17 O5 1_555 1_555
C18 C17 1_555 1_555
H20 C18 1_555 1_555
C19 C18 1_555 1_555
H21 C19 1_555 1_555
C20 C19 1_555 1_555
C21 C20 1_555 1_555
H22 C21 1_555 1_555
C22 C21 1_555 1_555
H23 C22 1_555 1_555
C23 N3 1_555 1_555
H24 C23 1_555 1_555
C24 C20 1_555 1_555
H25 C24 1_555 1_555
C25 O7 1_555 1_555
H26 C25 1_555 1_555
H27 C25 1_555 1_555
H28 C25 1_555 1_555
La1A O3 1_555 1_555
La1A_2 O5 1_555 1_555
O3A La1 1_555 1_555
O4A La1 1_555 1_555
O5A La1 1_555 1_555
O6A La1 1_555 1_555
O4 La1A 1_555 1_555
O6 La1A_2 1_555 1_555
C7 C8 1_555 1_555
C15 C16 1_555 1_555
C23 C24 1_555 1_555
La1A O3A 1_555 1_555
La1A_2 O5A 1_555 1_555

#END
