
#######################################################################
#
#                 Cambridge Crystallographic Data Centre
#                                CCDC 
#
#######################################################################
#
# If this CIF has been generated from an entry in the Cambridge 
# Structural Database, then it will include bibliographic, chemical, 
# crystal, experimental, refinement or atomic coordinate data resulting 
# from the CCDC's data processing and validation procedures.
#
#######################################################################

data_LAVDES
_symmetry_cell_setting           triclinic
_symmetry_space_group_name_H-M   'P -1'
_symmetry_Int_Tables_number      2
_space_group_name_Hall           '-P 1'
loop_
_symmetry_equiv_pos_site_id
_symmetry_equiv_pos_as_xyz
1 x,y,z
2 -x,-y,-z
_cell_length_a                   8.6928(8)
_cell_length_b                   12.5682(12)
_cell_length_c                   14.0904(14)
_cell_angle_alpha                108.736(2)
_cell_angle_beta                 101.665(2)
_cell_angle_gamma                99.205(2)
_cell_volume                     1385.11
loop_
_atom_site_label
_atom_site_type_symbol
_atom_site_fract_x
_atom_site_fract_y
_atom_site_fract_z
Eu1 Eu 0.78566(3) 0.55554(2) 0.523058(18)
O1 O 0.8721(4) 0.4568(3) 0.6523(3)
O2 O 0.7009(4) 0.5669(3) 0.6824(3)
O3 O 0.5715(5) 0.3887(4) 0.4733(3)
O4 O 0.3271(4) 0.2814(3) 0.4402(3)
O5 O 0.8967(4) 0.4152(3) 0.4172(3)
O6 O 1.0061(4) 0.2915(3) 0.3219(3)
O8 O 0.6190(4) 0.5290(3) 0.3534(3)
H2 H 0.523(3) 0.489(4) 0.336(3)
H3 H 0.647(5) 0.532(5) 0.300(2)
O9 O 0.9303(4) 0.6743(3) 0.4421(3)
H4 H 0.983(6) 0.641(4) 0.402(3)
H5 H 0.891(6) 0.722(4) 0.420(4)
N1 N 0.7016(6) 0.5473(5) 1.1754(4)
N2 N 0.8057(8) -0.1566(5) 0.3753(4)
N3 N 0.2552(6) 0.0670(4) -0.0779(4)
C1 C 0.7881(6) 0.5048(4) 0.7085(4)
C2 C 0.7942(6) 0.4897(5) 0.8100(4)
H8 H 0.8434 0.4327 0.8253
C3 C 0.7319(6) 0.5548(5) 0.8790(4)
H9 H 0.6840 0.6103 0.8598
C4 C 0.7278(6) 0.5514(5) 0.9816(4)
C5 C 0.6522(7) 0.6252(5) 1.0412(4)
H10 H 0.6078 0.6790 1.0169
C6 C 0.6419(7) 0.6200(5) 1.1366(4)
H11 H 0.5892 0.6712 1.1763
C7 C 0.7780(7) 0.4782(6) 1.1187(5)
H12 H 0.8247 0.4274 1.1464
C8 C 0.7930(7) 0.4759(5) 1.0227(4)
H13 H 0.8469 0.4239 0.9851
C9 C 0.4774(6) 0.2943(5) 0.4486(4)
C10 C 0.5260(10) 0.1740(10) 0.4208(5)
H14 H 0.4410 0.1055 0.3939
C11 C 0.6613(10) 0.1631(7) 0.4313(6)
H15 H 0.7469 0.2312 0.4582
C12 C 0.7059(15) 0.0446(6) 0.4036(5)
C13 C 0.5933(13) -0.0593(9) 0.3950(6)
H16 H 0.4851 -0.0601 0.3985
C14 C 0.6556(11) -0.1592(6) 0.3811(5)
H17 H 0.5880 -0.2293 0.3760
C15 C 0.8946(12) -0.0561(6) 0.3807(6)
H18 H 1.0012 -0.0567 0.3744
C16 C 0.8540(14) 0.0434(7) 0.3935(6)
H19 H 0.9263 0.1098 0.3955
C17 C 0.8841(6) 0.3296(4) 0.3354(4)
C18 C 0.7218(7) 0.2801(4) 0.2584(4)
H20 H 0.6290 0.2973 0.2800
C19 C 0.7035(7) 0.2140(5) 0.1622(4)
H21 H 0.7973 0.1951 0.1431
C20 C 0.5463(7) 0.1660(5) 0.0800(4)
C21 C 0.5439(8) 0.1287(5) -0.0233(5)
H22 H 0.6424 0.1359 -0.0428
C22 C 0.3975(8) 0.0806(5) -0.0988(5)
H23 H 0.3989 0.0559 -0.1698
C23 C 0.2551(8) 0.1040(5) 0.0219(5)
H24 H 0.1542 0.0958 0.0384
C24 C 0.3971(8) 0.1542(5) 0.1033(5)
H25 H 0.3924 0.1800 0.1736
Eu1A Eu 0.21434(3) 0.44446(2) 0.476942(18)
Eu1A_2 Eu 1.21434(3) 0.44446(2) 0.476942(18)
O4A O 0.6729(4) 0.7186(3) 0.5598(3)
O5A O 1.1033(4) 0.5848(3) 0.5828(3)
O6A O 0.9939(4) 0.7085(3) 0.6781(3)
O7 O 0.2684(11) 0.9330(8) 0.2070(9)
H1 H 0.2019 0.9747 0.2070
C25 C 0.2041(18) 0.8352(12) 0.2336(16)
H26 H 0.2750 0.7805 0.2282
H27 H 0.1891 0.8612 0.3046
C26 C 0.0591(16) 0.7872(12) 0.1594(15)
H28 H 0.0077 0.7144 0.1640
H29 H 0.0770 0.7718 0.0902
H30 H -0.0116 0.8409 0.1705
O10 O 0.0623(6) 0.0709(5) 0.2048(5)
H6 H 0.080(8) 0.142(2) 0.243(6)
H7 H -0.038(3) 0.039(5) 0.187(7)
loop_
_geom_bond_atom_site_label_1
_geom_bond_atom_site_label_2
_geom_bond_site_symmetry_1
_geom_bond_site_symmetry_2
Eu1 O1 1_555 1_555
O1 C1 1_555 1_555
O2 Eu1 1_555 1_555
O3 Eu1 1_555 1_555
O4 C9 1_555 1_555
O5 Eu1 1_555 1_555
O6 C17 1_555 1_555
O7 H1 1_555 1_555
O8 Eu1 1_555 1_555
H2 O8 1_555 1_555
H3 O8 1_555 1_555
O9 Eu1 1_555 1_555
H4 O9 1_555 1_555
H5 O9 1_555 1_555
O10 H6 1_555 1_555
H7 O10 1_555 1_555
N1 C6 1_555 1_555
N2 C14 1_555 1_555
N3 C22 1_555 1_555
C1 O2 1_555 1_555
C2 C1 1_555 1_555
H8 C2 1_555 1_555
C3 C2 1_555 1_555
H9 C3 1_555 1_555
C4 C3 1_555 1_555
C5 C4 1_555 1_555
H10 C5 1_555 1_555
C6 C5 1_555 1_555
H11 C6 1_555 1_555
C7 N1 1_555 1_555
H12 C7 1_555 1_555
C8 C4 1_555 1_555
H13 C8 1_555 1_555
C9 O3 1_555 1_555
C10 C9 1_555 1_555
H14 C10 1_555 1_555
C11 C10 1_555 1_555
H15 C11 1_555 1_555
C12 C11 1_555 1_555
C13 C12 1_555 1_555
H16 C13 1_555 1_555
C14 C13 1_555 1_555
H17 C14 1_555 1_555
C15 N2 1_555 1_555
H18 C15 1_555 1_555
C16 C12 1_555 1_555
H19 C16 1_555 1_555
C17 O5 1_555 1_555
C18 C17 1_555 1_555
H20 C18 1_555 1_555
C19 C18 1_555 1_555
H21 C19 1_555 1_555
C20 C19 1_555 1_555
C21 C20 1_555 1_555
H22 C21 1_555 1_555
C22 C21 1_555 1_555
H23 C22 1_555 1_555
C23 N3 1_555 1_555
H24 C23 1_555 1_555
C24 C20 1_555 1_555
H25 C24 1_555 1_555
C25 O7 1_555 1_555
H26 C25 1_555 1_555
H27 C25 1_555 1_555
C26 C25 1_555 1_555
H28 C26 1_555 1_555
H29 C26 1_555 1_555
H30 C26 1_555 1_555
Eu1A O4 1_555 1_555
Eu1A_2 O5 1_555 1_555
O4A Eu1 1_555 1_555
O5A Eu1 1_555 1_555
O6A Eu1 1_555 1_555
O6 Eu1A_2 1_555 1_555
C7 C8 1_555 1_555
C15 C16 1_555 1_555
C23 C24 1_555 1_555
Eu1A_2 O5A 1_555 1_555

#END
