
#######################################################################
#
#                 Cambridge Crystallographic Data Centre
#                                CCDC 
#
#######################################################################
#
# If this CIF has been generated from an entry in the Cambridge 
# Structural Database, then it will include bibliographic, chemical, 
# crystal, experimental, refinement or atomic coordinate data resulting 
# from the CCDC's data processing and validation procedures.
#
#######################################################################

data_LAVFUL
_symmetry_cell_setting           monoclinic
_symmetry_space_group_name_H-M   'P 21/c'
_symmetry_Int_Tables_number      14
_space_group_name_Hall           '-P 2ybc'
loop_
_symmetry_equiv_pos_site_id
_symmetry_equiv_pos_as_xyz
1 x,y,z
2 -x,1/2+y,1/2-z
3 -x,-y,-z
4 x,1/2-y,1/2+z
_cell_length_a                   13.142(3)
_cell_length_b                   9.5639(19)
_cell_length_c                   6.7477(13)
_cell_angle_alpha                90
_cell_angle_beta                 99.59(3)
_cell_angle_gamma                90
_cell_volume                     836.258
loop_
_atom_site_label
_atom_site_type_symbol
_atom_site_fract_x
_atom_site_fract_y
_atom_site_fract_z
O1 O 0.5399(3) 1.0320(3) 0.8184(5)
O2 O 0.5922(3) 1.1024(3) 0.5384(5)
C1 C 0.6009(4) 1.0271(4) 0.6923(6)
C2 C 0.8126(4) 1.1320(4) 0.8216(7)
O3 O 0.8954(3) 1.1825(4) 0.7946(6)
O4 O 0.7407(3) 1.2007(3) 0.8875(5)
C3 C 0.8575(4) 0.5157(5) 0.7915(7)
H1 H 0.8824 0.4245 0.7990
Pb1 Pb 0.376330(13) 0.871930(16) 0.82212(2)
N1 N 0.9190(4) 0.6299(4) 0.8174(6)
H2 H 0.9854 0.6305 0.8435
N2 N 0.7591(3) 0.5470(4) 0.7546(6)
C4 C 0.8765(4) 0.8877(5) 0.8099(7)
H3 H 0.9438 0.9212 0.8380
C5 C 0.7535(4) 0.6930(4) 0.7537(7)
C6 C 0.7920(4) 0.9776(4) 0.7817(7)
C7 C 0.6702(4) 0.7840(5) 0.7219(7)
H4 H 0.6028 0.7507 0.6937
C8 C 0.8552(4) 0.7451(5) 0.7941(7)
C9 C 0.6908(4) 0.9259(4) 0.7335(7)
O1B O 0.4601(3) 0.9680(3) 1.1816(5)
O2A O 0.4078(3) 0.6024(3) 0.9616(5)
O2B O 0.4078(3) 0.8976(3) 0.4616(5)
O4A O 0.2593(3) 0.7007(3) 0.6125(5)
Pb1B Pb 0.623670(13) 1.128070(16) 1.17788(2)
Pb1A Pb 0.623670(13) 1.371930(16) 0.67788(2)
Pb1B_2 Pb 0.623670(13) 1.128070(16) 0.17788(2)
Pb1A_2 Pb 0.623670(13) 0.371930(16) 0.67788(2)
N2A N 0.2409(3) 1.0470(4) 0.7454(6)
loop_
_geom_bond_atom_site_label_1
_geom_bond_atom_site_label_2
_geom_bond_site_symmetry_1
_geom_bond_site_symmetry_2
O1 C1 1_555 1_555
O2 C1 1_555 1_555
C1 C9 1_555 1_555
C2 O3 1_555 1_555
O4 C2 1_555 1_555
C3 H1 1_555 1_555
Pb1 O1 1_555 1_555
N1 C3 1_555 1_555
H2 N1 1_555 1_555
N2 C3 1_555 1_555
C4 H3 1_555 1_555
C5 N2 1_555 1_555
C6 C2 1_555 1_555
C7 C5 1_555 1_555
H4 C7 1_555 1_555
C8 N1 1_555 1_555
C9 C6 1_555 1_555
O1B Pb1 1_555 1_555
O2A Pb1 1_555 1_555
O2B Pb1 1_555 1_555
O4A Pb1 1_555 1_555
Pb1B O1 1_555 1_555
Pb1A O2 1_555 1_555
Pb1B_2 O2 1_555 1_555
Pb1A_2 N2 1_555 1_555
N2A Pb1 1_555 1_555
O4 Pb1A 1_555 1_555
C4 C6 1_555 1_555
C4 C8 1_555 1_555
C5 C8 1_555 1_555
C7 C9 1_555 1_555
O1B Pb1B 1_555 1_555

#END
