
#######################################################################
#
#                 Cambridge Crystallographic Data Centre
#                                CCDC 
#
#######################################################################
#
# If this CIF has been generated from an entry in the Cambridge 
# Structural Database, then it will include bibliographic, chemical, 
# crystal, experimental, refinement or atomic coordinate data resulting 
# from the CCDC's data processing and validation procedures.
#
#######################################################################

data_LAVHIB
_symmetry_cell_setting           monoclinic
_symmetry_space_group_name_H-M   'P 21/n'
_symmetry_Int_Tables_number      14
_space_group_name_Hall           '-P 2yn'
loop_
_symmetry_equiv_pos_site_id
_symmetry_equiv_pos_as_xyz
1 x,y,z
2 1/2-x,1/2+y,1/2-z
3 -x,-y,-z
4 1/2+x,1/2-y,1/2+z
_cell_length_a                   8.6489(6)
_cell_length_b                   24.6555(17)
_cell_length_c                   8.7963(6)
_cell_angle_alpha                90
_cell_angle_beta                 103.9490(10)
_cell_angle_gamma                90
_cell_volume                     1820.43
loop_
_atom_site_label
_atom_site_type_symbol
_atom_site_fract_x
_atom_site_fract_y
_atom_site_fract_z
Ba1 Ba 1.56952(2) 0.245790(7) 0.644882(19)
S1 S 1.26151(9) 0.36402(3) 0.47587(8)
O1 O 1.3995(3) 0.33487(9) 0.5667(2)
C1 C 0.9984(4) 0.40823(12) 0.5576(3)
O2 O 1.3044(3) 0.41461(9) 0.4144(3)
C2 C 1.1440(4) 0.38027(12) 0.6103(3)
C3 C 1.1974(4) 0.36453(11) 0.7647(3)
H1 H 1.2921 0.3452 0.7955
C4 C 0.9138(4) 0.41962(14) 0.6693(4)
H2 H 0.8169 0.4377 0.6388
C5 C 0.9359(4) 0.42406(13) 0.3925(3)
H3 H 1.0023 0.4434 0.3434
C6 C 1.1118(4) 0.37715(11) 0.8746(3)
C7 C 0.9694(4) 0.40482(13) 0.8251(3)
H4 H 0.9103 0.4136 0.8970
C8 C 0.7901(4) 0.41221(12) 0.3101(3)
H5 H 0.7243 0.3923 0.3587
C9 C 0.7264(4) 0.42887(12) 0.1456(3)
C10 C 0.6456(3) 0.39404(11) 0.0264(3)
C11 C 0.7446(4) 0.48242(12) 0.1010(3)
H6 H 0.7992 0.5067 0.1757
S2 S 0.62718(9) 0.32405(3) 0.06675(8)
C12 C 0.5863(3) 0.41148(11) -0.1250(3)
H7 H 0.5354 0.3870 -0.2012
C13 C 0.6017(4) 0.46556(12) -0.1653(3)
N1 N 0.5408(3) 0.48299(11) -0.3164(3)
H8 H 0.5535 0.5161 -0.3412
H9 H 0.4899 0.4608 -0.3860
C14 C 0.6844(4) 0.50036(12) -0.0501(4)
H10 H 0.6993 0.5363 -0.0751
O3 O 1.1616(3) 0.33030(9) 0.3571(2)
O4 O 0.7860(3) 0.30365(9) 0.1381(2)
O5 O 0.5224(3) 0.32023(9) 0.1741(2)
O6 O 0.5556(3) 0.29769(8) -0.0824(2)
N2 N 1.1657(3) 0.36012(10) 1.0310(3)
H11 H 1.1098 0.3669 1.0975
H12 H 1.2544 0.3429 1.0602
O7 O 1.9050(3) 0.26556(10) 0.8138(3)
H13 H 1.9753 0.2740 0.7633
H14 H 1.9341 0.2634 0.9135
O8 O 1.7795(3) 0.27182(12) 0.4647(3)
H15 H 1.8780 0.2781 0.5077
H16 H 1.7481 0.2741 0.3651
Ba1C Ba 1.06952(2) 0.254210(7) 0.144882(19)
Ba1_2 Ba 0.56952(2) 0.245790(7) -0.355118(19)
Ba1C_2 Ba 1.06952(2) 0.254210(7) 1.144882(19)
Ba1C_3 Ba 2.06952(2) 0.254210(7) 1.144882(19)
O3C O 1.6616(3) 0.16970(9) 0.8571(2)
O4C O 1.2860(3) 0.19635(9) 0.6381(2)
O6_2 O 1.5556(3) 0.29769(8) 0.9176(2)
N2C N 1.6657(3) 0.13988(10) 0.5310(3)
H11C H 1.6098 0.1331 0.5975
H12C H 1.7544 0.1571 0.5602
O7C O 1.4050(3) 0.23444(10) 0.3138(3)
H13C H 1.4753 0.2260 0.2633
H14C H 1.4341 0.2366 0.4135
loop_
_geom_bond_atom_site_label_1
_geom_bond_atom_site_label_2
_geom_bond_site_symmetry_1
_geom_bond_site_symmetry_2
Ba1 O1 1_555 1_555
S1 O1 1_555 1_555
C1 C2 1_555 1_555
O2 S1 1_555 1_555
C2 S1 1_555 1_555
C3 C2 1_555 1_555
H1 C3 1_555 1_555
C4 C1 1_555 1_555
H2 C4 1_555 1_555
C5 C1 1_555 1_555
H3 C5 1_555 1_555
C6 C3 1_555 1_555
C7 C4 1_555 1_555
H4 C7 1_555 1_555
C8 C5 1_555 1_555
H5 C8 1_555 1_555
C9 C8 1_555 1_555
C10 C9 1_555 1_555
C11 C9 1_555 1_555
H6 C11 1_555 1_555
S2 C10 1_555 1_555
C12 C10 1_555 1_555
H7 C12 1_555 1_555
C13 C12 1_555 1_555
N1 C13 1_555 1_555
H8 N1 1_555 1_555
H9 N1 1_555 1_555
C14 C11 1_555 1_555
H10 C14 1_555 1_555
O3 S1 1_555 1_555
O4 S2 1_555 1_555
O5 S2 1_555 1_555
O6 S2 1_555 1_555
N2 C6 1_555 1_555
H11 N2 1_555 1_555
H12 N2 1_555 1_555
O7 Ba1 1_555 1_555
H13 O7 1_555 1_555
H14 O7 1_555 1_555
O8 Ba1 1_555 1_555
H15 O8 1_555 1_555
H16 O8 1_555 1_555
Ba1C O3 1_555 1_555
Ba1_2 O6 1_555 1_555
Ba1C_2 N2 1_555 1_555
Ba1C_3 O7 1_555 1_555
O3C Ba1 1_555 1_555
O4C Ba1 1_555 1_555
O6_2 Ba1 1_555 1_555
N2C Ba1 1_555 1_555
H11C N2C 1_555 1_555
H12C N2C 1_555 1_555
O7C Ba1 1_555 1_555
H13C O7C 1_555 1_555
H14C O7C 1_555 1_555
C6 C7 1_555 1_555
C13 C14 1_555 1_555
O4 Ba1C 1_555 1_555
Ba1C O7C 1_555 1_555

#END
