
#######################################################################
#
#                 Cambridge Crystallographic Data Centre
#                                CCDC 
#
#######################################################################
#
# If this CIF has been generated from an entry in the Cambridge 
# Structural Database, then it will include bibliographic, chemical, 
# crystal, experimental, refinement or atomic coordinate data resulting 
# from the CCDC's data processing and validation procedures.
#
#######################################################################

data_LAVHEX
_symmetry_cell_setting           orthorhombic
_symmetry_space_group_name_H-M   'P n m a'
_symmetry_Int_Tables_number      62
_space_group_name_Hall           '-P 2ac 2n'
loop_
_symmetry_equiv_pos_site_id
_symmetry_equiv_pos_as_xyz
1 x,y,z
2 1/2-x,-y,1/2+z
3 -x,1/2+y,-z
4 1/2+x,1/2-y,1/2-z
5 -x,-y,-z
6 1/2+x,y,1/2-z
7 x,1/2-y,z
8 1/2-x,1/2+y,1/2+z
_cell_length_a                   14.924(5)
_cell_length_b                   24.247(8)
_cell_length_c                   6.366(2)
_cell_angle_alpha                90
_cell_angle_beta                 90
_cell_angle_gamma                90
_cell_volume                     2303.61
loop_
_atom_site_label
_atom_site_type_symbol
_atom_site_fract_x
_atom_site_fract_y
_atom_site_fract_z
Sr1 Sr 0.33556(2) 0.2500 1.01903(6)
S1 S 0.47325(5) 0.35539(3) 0.70140(11)
O1 O 0.46019(12) 0.31124(8) 0.8519(3)
C1 C 0.53643(17) 0.40768(11) 0.8291(4)
O2 O 0.52850(14) 0.33823(8) 0.5232(3)
N1 N 0.67157(15) 0.41685(10) 1.3117(4)
H1 H 0.6637 0.3844 1.3629
H2 H 0.7050 0.4402 1.3765
O3 O 0.38949(13) 0.37964(8) 0.6321(3)
C2 C 0.54822(18) 0.45980(11) 0.7355(5)
C3 C 0.50592(19) 0.47458(11) 0.5346(4)
H3 H 0.4860 0.4459 0.4497
C4 C 0.60293(19) 0.49644(12) 0.8442(5)
H4 H 0.6129 0.5313 0.7876
C5 C 0.62991(18) 0.43170(11) 1.1225(4)
C6 C 0.57622(18) 0.39409(11) 1.0185(4)
H5 H 0.5667 0.3594 1.0764
C7 C 0.64285(19) 0.48307(13) 1.0328(5)
H6 H 0.6788 0.5088 1.1004
O4 O 0.1590(2) 0.2500 1.0952(5)
O6 O 0.4544(2) 0.2500 1.2959(6)
O7 O 0.24631(17) 0.31849(13) 0.7869(5)
O8 O 0.3117(2) 0.33579(13) 1.2462(5)
H7 H 0.475(2) 0.2762(12) 1.354(5)
H9 H 0.282(3) 0.344(2) 0.732(8)
H10 H 0.135(3) 0.2784(15) 1.037(6)
H11 H 0.274(3) 0.3613(16) 1.220(6)
H12 H 0.334(3) 0.3473(16) 1.319(6)
H13 H 0.222(3) 0.3042(18) 0.691(7)
Sr1B Sr 0.66444(2) 0.7500 -0.01903(6)
S1D S 0.52675(5) 0.64461(3) 0.29860(11)
O1D O 0.53981(12) 0.68876(8) 0.1481(3)
O1F O 0.46019(12) 0.18876(8) 0.8519(3)
C1D C 0.46357(17) 0.59232(11) 0.1709(4)
O2D O 0.47150(14) 0.66177(8) 0.4768(3)
N1D N 0.32843(15) 0.58315(10) -0.3117(4)
H1D H 0.3363 0.6156 -0.3629
H2D H 0.2950 0.5598 -0.3765
O3D O 0.61051(13) 0.62036(8) 0.3679(3)
C2D C 0.45178(18) 0.54020(11) 0.2645(5)
C3D C 0.49408(19) 0.52542(11) 0.4654(4)
H3D H 0.5140 0.5541 0.5503
C4D C 0.39707(19) 0.50356(12) 0.1558(5)
H4D H 0.3871 0.4687 0.2124
C5D C 0.37009(18) 0.56830(11) -0.1225(4)
C6D C 0.42378(18) 0.60591(11) -0.0185(4)
H5D H 0.4333 0.6406 -0.0764
C7D C 0.35715(19) 0.51693(13) -0.0328(5)
H6D H 0.3212 0.4912 -0.1004
O7F O 0.24631(17) 0.18151(13) 0.7869(5)
O8F O 0.3117(2) 0.16421(13) 1.2462(5)
H7F H 0.475(2) 0.2238(12) 1.354(5)
H9F H 0.282(3) 0.156(2) 0.732(8)
H10F H 0.135(3) 0.2216(15) 1.037(6)
H11F H 0.274(3) 0.1387(16) 1.220(6)
H12F H 0.334(3) 0.1527(16) 1.319(6)
H13F H 0.222(3) 0.1958(18) 0.691(7)
O5 O 0.6355(3) 0.2500 0.9603(7)
H8 H 0.585(3) 0.2500 0.941(7)
H14 H 0.640(4) 0.2500 1.083(11)
loop_
_geom_bond_atom_site_label_1
_geom_bond_atom_site_label_2
_geom_bond_site_symmetry_1
_geom_bond_site_symmetry_2
Sr1 O1 1_555 1_555
S1 O1 1_555 1_555
C1 S1 1_555 1_555
O2 S1 1_555 1_555
N1 H1 1_555 1_555
H2 N1 1_555 1_555
O3 S1 1_555 1_555
C2 C1 1_555 1_555
C3 C2 1_555 1_555
H3 C3 1_555 1_555
C4 C2 1_555 1_555
H4 C4 1_555 1_555
C5 N1 1_555 1_555
C6 C1 1_555 1_555
H5 C6 1_555 1_555
C7 C4 1_555 1_555
H6 C7 1_555 1_555
O4 Sr1 1_555 1_555
O5 H8 1_555 1_555
O6 Sr1 1_555 1_555
O7 Sr1 1_555 1_555
O8 Sr1 1_555 1_555
H7 O6 1_555 1_555
H9 O7 1_555 1_555
H10 O4 1_555 1_555
H11 O8 1_555 1_555
H12 O8 1_555 1_555
H13 O7 1_555 1_555
H14 O5 1_555 1_555
Sr1B O1D 1_555 1_555
S1D O1D 1_555 1_555
O1F Sr1 1_555 1_555
C1D S1D 1_555 1_555
O2D S1D 1_555 1_555
N1D H1D 1_555 1_555
H2D N1D 1_555 1_555
O3D S1D 1_555 1_555
C2D C1D 1_555 1_555
C3D C3 1_555 1_555
H3D C3D 1_555 1_555
C4D C2D 1_555 1_555
H4D C4D 1_555 1_555
C5D N1D 1_555 1_555
C6D C1D 1_555 1_555
H5D C6D 1_555 1_555
C7D C4D 1_555 1_555
H6D C7D 1_555 1_555
O7F Sr1 1_555 1_555
O8F Sr1 1_555 1_555
H7F O6 1_555 1_555
H9F O7F 1_555 1_555
H10F O4 1_555 1_555
H11F O8F 1_555 1_555
H12F O8F 1_555 1_555
H13F O7F 1_555 1_555
C5 C6 1_555 1_555
C5 C7 1_555 1_555
C2D C3D 1_555 1_555
C5D C6D 1_555 1_555
C5D C7D 1_555 1_555

#END
