
#######################################################################
#
#                 Cambridge Crystallographic Data Centre
#                                CCDC 
#
#######################################################################
#
# If this CIF has been generated from an entry in the Cambridge 
# Structural Database, then it will include bibliographic, chemical, 
# crystal, experimental, refinement or atomic coordinate data resulting 
# from the CCDC's data processing and validation procedures.
#
#######################################################################

data_LAVHOH
_symmetry_cell_setting           monoclinic
_symmetry_space_group_name_H-M   'C 2/c'
_symmetry_Int_Tables_number      15
_space_group_name_Hall           '-C 2yn'
loop_
_symmetry_equiv_pos_site_id
_symmetry_equiv_pos_as_xyz
1 x,y,z
2 -x,y,1/2-z
3 1/2+x,1/2+y,z
4 1/2-x,1/2+y,1/2-z
5 -x,-y,-z
6 x,-y,1/2+z
7 1/2-x,1/2-y,-z
8 1/2+x,1/2-y,1/2+z
_cell_length_a                   27.211(9)
_cell_length_b                   10.618(4)
_cell_length_c                   14.599(5)
_cell_angle_alpha                90
_cell_angle_beta                 114.563(4)
_cell_angle_gamma                90
_cell_volume                     3836.32
loop_
_atom_site_label
_atom_site_type_symbol
_atom_site_fract_x
_atom_site_fract_y
_atom_site_fract_z
Ca1 Ca -0.255619(17) 0.65473(4) -0.26156(3)
S1 S -0.16577(2) 0.41735(5) -0.07955(4)
S2 S -0.14570(2) -0.10660(5) -0.17502(4)
O1 O -0.15171(7) 0.42645(18) 0.02734(12)
O2 O -0.19774(6) 0.52409(16) -0.13476(13)
O3 O -0.23129(9) 0.5687(2) -0.38541(17)
H1 H -0.2012 0.5789 -0.3892
H2 H -0.2508 0.5228 -0.4349
O4 O -0.19092(6) 0.29813(16) -0.12066(14)
O5 O -0.27762(9) 0.7581(3) -0.14012(19)
H3 H -0.2877 0.6821 -0.1415
H4 H -0.3089 0.7827 -0.1479
O6 O -0.10433(7) -0.10934(17) -0.21218(13)
O7 O -0.17556(7) 0.01075(16) -0.19810(13)
O8 O -0.18120(7) -0.21525(16) -0.20808(12)
N1 N -0.03605(9) 0.6509(2) -0.19235(17)
H5 H -0.0578 0.7219 -0.1994
H6 H -0.0003 0.6701 -0.1760
N2 N -0.11890(8) -0.3264(2) 0.15558(15)
H7 H -0.1269 -0.4012 0.1189
H8 H -0.0947 -0.3446 0.2251
C1 C -0.10416(8) 0.4237(2) -0.09443(15)
C2 C -0.09437(8) 0.5302(2) -0.13872(16)
H9 H -0.1200 0.5941 -0.1608
C3 C -0.04621(9) 0.5425(2) -0.15056(16)
C4 C -0.01015(9) 0.4422(2) -0.12169(18)
H10 H 0.0214 0.4468 -0.1316
C5 C -0.02058(9) 0.3357(2) -0.07846(17)
H11 H 0.0044 0.2703 -0.0596
C6 C -0.06736(8) 0.3228(2) -0.06207(16)
C7 C -0.07667(9) 0.2094(2) -0.01298(17)
H12 H -0.0896 0.2208 0.0362
C8 C -0.06791(9) 0.0931(2) -0.03411(17)
H13 H -0.0539 0.0808 -0.0816
C9 C -0.07936(9) -0.0187(2) 0.01418(16)
C10 C -0.05852(10) -0.0288(2) 0.11878(17)
H14 H -0.0358 0.0342 0.1581
C11 C -0.07054(10) -0.1295(2) 0.16582(17)
H15 H -0.0563 -0.1326 0.2358
C12 C -0.10370(9) -0.2260(2) 0.10946(16)
C13 C -0.12549(8) -0.2180(2) 0.00486(16)
H16 H -0.1483 -0.2812 -0.0341
C14 C -0.11343(8) -0.1166(2) -0.04125(15)
Ca1C Ca -0.244381(17) 0.15473(4) -0.23844(3)
Ca1_2 Ca -0.255619(17) -0.34527(4) -0.26156(3)
O4C O -0.30908(6) 0.79813(16) -0.37934(14)
O7C O -0.32444(7) 0.51075(16) -0.30190(13)
O8_2 O -0.18120(7) 0.78475(16) -0.20808(12)
O9 O -0.31088(19) 0.4165(7) -0.0643(3)
H17 H -0.3374 0.4209 -0.1218
H18 H -0.2873 0.3784 -0.0782
loop_
_geom_bond_atom_site_label_1
_geom_bond_atom_site_label_2
_geom_bond_site_symmetry_1
_geom_bond_site_symmetry_2
Ca1 O2 1_555 1_555
S1 O1 1_555 1_555
S2 O6 1_555 1_555
O2 S1 1_555 1_555
O3 Ca1 1_555 1_555
H1 O3 1_555 1_555
H2 O3 1_555 1_555
O4 S1 1_555 1_555
O5 Ca1 1_555 1_555
H3 O5 1_555 1_555
H4 O5 1_555 1_555
O7 S2 1_555 1_555
O8 S2 1_555 1_555
N1 H5 1_555 1_555
H6 N1 1_555 1_555
N2 H7 1_555 1_555
H8 N2 1_555 1_555
C1 S1 1_555 1_555
C2 C1 1_555 1_555
H9 C2 1_555 1_555
C3 N1 1_555 1_555
C4 C3 1_555 1_555
H10 C4 1_555 1_555
C5 C4 1_555 1_555
H11 C5 1_555 1_555
C6 C1 1_555 1_555
C7 C6 1_555 1_555
H12 C7 1_555 1_555
C8 C7 1_555 1_555
H13 C8 1_555 1_555
C9 C8 1_555 1_555
C10 C9 1_555 1_555
H14 C10 1_555 1_555
C11 C10 1_555 1_555
H15 C11 1_555 1_555
C12 N2 1_555 1_555
C13 C12 1_555 1_555
H16 C13 1_555 1_555
C14 S2 1_555 1_555
O9 H17 1_555 1_555
H18 O9 1_555 1_555
Ca1C O4 1_555 1_555
Ca1_2 O8 1_555 1_555
O4C Ca1 1_555 1_555
O7C Ca1 1_555 1_555
O8_2 Ca1 1_555 1_555
O7 Ca1C 1_555 1_555
C2 C3 1_555 1_555
C5 C6 1_555 1_555
C9 C14 1_555 1_555
C11 C12 1_555 1_555
C13 C14 1_555 1_555

#END
