
#######################################################################
#
#                 Cambridge Crystallographic Data Centre
#                                CCDC 
#
#######################################################################
#
# If this CIF has been generated from an entry in the Cambridge 
# Structural Database, then it will include bibliographic, chemical, 
# crystal, experimental, refinement or atomic coordinate data resulting 
# from the CCDC's data processing and validation procedures.
#
#######################################################################

data_LAVHAT
_symmetry_cell_setting           monoclinic
_symmetry_space_group_name_H-M   'P 21/n'
_symmetry_Int_Tables_number      14
_space_group_name_Hall           '-P 2yn'
loop_
_symmetry_equiv_pos_site_id
_symmetry_equiv_pos_as_xyz
1 x,y,z
2 1/2-x,1/2+y,1/2-z
3 -x,-y,-z
4 1/2+x,1/2-y,1/2+z
_cell_length_a                   6.3198(5)
_cell_length_b                   13.2471(11)
_cell_length_c                   11.5670(10)
_cell_angle_alpha                90
_cell_angle_beta                 93.1160(10)
_cell_angle_gamma                90
_cell_volume                     966.946
loop_
_atom_site_label
_atom_site_type_symbol
_atom_site_fract_x
_atom_site_fract_y
_atom_site_fract_z
S1 S 0.17211(9) 0.94060(5) 0.69990(5)
Mg1 Mg 0.5000 1.0000 0.5000
O1 O 0.3078(3) 0.91541(13) 0.60575(13)
C1 C 0.3122(4) 0.90396(18) 0.8307(2)
C2 C 0.6171(4) 0.81813(18) 0.9173(2)
C3 C 0.4991(4) 0.85139(18) 0.8195(2)
H1 H 0.5462 0.8382 0.7462
N1 N 0.8076(3) 0.76494(16) 0.9039(2)
H2 H 0.8803 0.7433 0.9639
H3 H 0.8510 0.7542 0.8358
O2 O 0.1283(3) 1.04803(15) 0.70520(16)
C4 C 0.5406(4) 0.8374(2) 1.0255(2)
H4 H 0.6160 0.8148 1.0918
C5 C 0.2335(4) 0.92638(18) 0.9394(2)
C6 C 0.0374(4) 0.9844(2) 0.9515(2)
H5 H -0.0410 1.0005 0.8836
C7 C 0.3534(4) 0.8897(2) 1.0356(2)
H6 H 0.3054 0.9010 1.1090
O3 O 0.3354(3) 0.93989(13) 0.35734(14)
H7 H 0.2356 0.9769 0.3381
H8 H 0.3760 0.8848 0.3282
O4 O 0.2984(3) 1.12418(13) 0.50598(15)
H9 H 0.1990 1.1106 0.5460
H10 H 0.3264 1.1781 0.4699
O5 O -0.0223(3) 0.88080(17) 0.69352(16)
S1B S -0.17211(9) 1.05940(5) 1.30010(5)
Mg1_2 Mg -0.5000 1.0000 1.5000
O1B O -0.3078(3) 1.08459(13) 1.39425(13)
O1B_2 O 0.6922(3) 1.08459(13) 0.39425(13)
C1B C -0.3122(4) 1.09604(18) 1.1693(2)
C2B C -0.6171(4) 1.18187(18) 1.0827(2)
C3B C -0.4991(4) 1.14861(18) 1.1805(2)
H1B H -0.5462 1.1618 1.2538
N1B N -0.8076(3) 1.23506(16) 1.0961(2)
H2B H -0.8803 1.2567 1.0361
H3B H -0.8510 1.2458 1.1642
O2B O -0.1283(3) 0.95197(15) 1.29480(16)
C4B C -0.5406(4) 1.1626(2) 0.9745(2)
H4B H -0.6160 1.1852 0.9082
C5B C -0.2335(4) 1.07362(18) 1.0606(2)
C6B C -0.0374(4) 1.0156(2) 1.0485(2)
H5B H 0.0410 0.9995 1.1164
C7B C -0.3534(4) 1.1103(2) 0.9644(2)
H6B H -0.3054 1.0990 0.8910
O3B O 0.6646(3) 1.06011(13) 0.64266(14)
H7B H 0.7644 1.0231 0.6619
H8B H 0.6240 1.1152 0.6718
O4B O 0.7016(3) 0.87582(13) 0.49402(15)
H9B H 0.8010 0.8894 0.4540
H10B H 0.6736 0.8219 0.5301
O5B O 0.0223(3) 1.11920(17) 1.30648(16)
loop_
_geom_bond_atom_site_label_1
_geom_bond_atom_site_label_2
_geom_bond_site_symmetry_1
_geom_bond_site_symmetry_2
S1 O1 1_555 1_555
Mg1 O1 1_555 1_555
C1 S1 1_555 1_555
C2 C3 1_555 1_555
C3 C1 1_555 1_555
H1 C3 1_555 1_555
N1 C2 1_555 1_555
H2 N1 1_555 1_555
H3 N1 1_555 1_555
O2 S1 1_555 1_555
C4 C2 1_555 1_555
H4 C4 1_555 1_555
C5 C1 1_555 1_555
C6 C5 1_555 1_555
H5 C6 1_555 1_555
C7 C4 1_555 1_555
H6 C7 1_555 1_555
O3 Mg1 1_555 1_555
H7 O3 1_555 1_555
H8 O3 1_555 1_555
O4 Mg1 1_555 1_555
H9 O4 1_555 1_555
H10 O4 1_555 1_555
O5 S1 1_555 1_555
S1B O1B 1_555 1_555
Mg1_2 O1B 1_555 1_555
O1B_2 Mg1 1_555 1_555
C1B S1B 1_555 1_555
C2B C3B 1_555 1_555
C3B C1B 1_555 1_555
H1B C3B 1_555 1_555
N1B C2B 1_555 1_555
H2B N1B 1_555 1_555
H3B N1B 1_555 1_555
O2B S1B 1_555 1_555
C4B C2B 1_555 1_555
H4B C4B 1_555 1_555
C5B C1B 1_555 1_555
C6B C6 1_555 1_555
H5B C6B 1_555 1_555
C7B C4B 1_555 1_555
H6B C7B 1_555 1_555
O3B Mg1 1_555 1_555
H7B O3B 1_555 1_555
H8B O3B 1_555 1_555
O4B Mg1 1_555 1_555
H9B O4B 1_555 1_555
H10B O4B 1_555 1_555
O5B S1B 1_555 1_555
C5 C7 1_555 1_555
C5B C6B 1_555 1_555
C5B C7B 1_555 1_555

#END
