
#######################################################################
#
#                 Cambridge Crystallographic Data Centre
#                                CCDC 
#
#######################################################################
#
# If this CIF has been generated from an entry in the Cambridge 
# Structural Database, then it will include bibliographic, chemical, 
# crystal, experimental, refinement or atomic coordinate data resulting 
# from the CCDC's data processing and validation procedures.
#
#######################################################################

data_LAVSIK
_symmetry_cell_setting           monoclinic
_symmetry_space_group_name_H-M   'P 21/n'
_symmetry_Int_Tables_number      14
_space_group_name_Hall           '-P 2yn'
loop_
_symmetry_equiv_pos_site_id
_symmetry_equiv_pos_as_xyz
1 x,y,z
2 1/2-x,1/2+y,1/2-z
3 -x,-y,-z
4 1/2+x,1/2-y,1/2+z
_cell_length_a                   16.071(1)
_cell_length_b                   11.504(1)
_cell_length_c                   16.698(1)
_cell_angle_alpha                90
_cell_angle_beta                 98.91(1)
_cell_angle_gamma                90
_cell_volume                     3049.89
loop_
_atom_site_label
_atom_site_type_symbol
_atom_site_fract_x
_atom_site_fract_y
_atom_site_fract_z
Si1 Si 0.6167(2) 0.0938(2) 0.8986(2)
Si2 Si 0.6703(2) -0.1601(2) 0.9325(2)
O1 O 0.5500(3) 0.0887(4) 0.9605(3)
O2 O 0.6657(4) -0.0284(5) 0.8932(4)
O3 O 0.6063(4) -0.1731(5) 0.9948(3)
O4 O 0.3575(5) 0.0138(6) 0.8495(4)
O5 O 0.2322(7) -0.0038(9) 0.7168(6)
O6 O 0.5093(4) 0.3856(5) 0.9764(5)
Li1 Li 0.4331(11) 0.0379(13) 0.9581(9)
Li2 Li 0.4973(11) 0.2240(15) 0.9916(10)
C1 C 0.3026(9) 0.1125(11) 0.8207(8)
C2 C 0.2196(10) 0.0647(14) 0.7871(10)
C3 C 0.3712(9) -0.0602(12) 0.7849(8)
C4 C 0.2850(11) -0.1004(13) 0.7389(9)
C5 C 0.4329(7) 0.4530(9) 0.9490(9)
C6 C 0.5789(7) 0.4676(10) 0.9854(10)
C7 C 0.7285(4) 0.2121(5) 1.0181(3)
C8 C 0.7873(4) 0.2963(5) 1.0488(3)
C9 C 0.8150(4) 0.3775(5) 0.9967(3)
C10 C 0.7838(4) 0.3744(5) 0.9139(3)
C11 C 0.7250(4) 0.2901(5) 0.8833(3)
C12 C 0.6973(4) 0.2090(5) 0.9354(3)
C13 C 0.5765(4) 0.0569(5) 0.7272(4)
C14 C 0.5440(4) 0.0894(5) 0.6480(4)
C15 C 0.5024(4) 0.1955(5) 0.6334(4)
C16 C 0.4934(4) 0.2691(5) 0.6979(4)
C17 C 0.5259(4) 0.2366(5) 0.7770(4)
C18 C 0.5675(4) 0.1305(5) 0.7916(4)
C19 C 0.8081(4) -0.2884(5) 1.0154(4)
C20 C 0.8889(4) -0.3041(5) 1.0586(4)
C21 C 0.9450(4) -0.2109(5) 1.0696(4)
C22 C 0.9205(4) -0.1021(5) 1.0374(4)
C23 C 0.8397(4) -0.0864(5) 0.9942(4)
C24 C 0.7836(4) -0.1796(5) 0.9832(4)
C25 C 0.7120(3) -0.3216(5) 0.8115(3)
C26 C 0.6925(3) -0.4060(5) 0.7515(3)
C27 C 0.6090(3) -0.4395(5) 0.7274(3)
C28 C 0.5450(3) -0.3887(5) 0.7631(3)
C29 C 0.5645(3) -0.3043(5) 0.8231(3)
C30 C 0.6480(3) -0.2707(5) 0.8472(3)
H1 H 0.7094(4) 0.1562(5) 1.0540(3)
H2 H 0.8088(4) 0.2985(5) 1.1057(3)
H3 H 0.8555(4) 0.4355(5) 1.0177(3)
H4 H 0.8029(4) 0.4303(5) 0.8781(3)
H5 H 0.7035(4) 0.2880(5) 0.8264(3)
H6 H 0.6052(4) -0.0161(5) 0.7372(4)
H7 H 0.5502(4) 0.0388(5) 0.6036(4)
H8 H 0.4800(4) 0.2179(5) 0.5789(4)
H9 H 0.4647(4) 0.3421(5) 0.6878(4)
H10 H 0.5197(4) 0.2872(5) 0.8214(4)
H11 H 0.7695(4) -0.3526(5) 1.0078(4)
H12 H 0.9058(4) -0.3790(5) 1.0807(4)
H13 H 1.0006(4) -0.2217(5) 1.0993(4)
H14 H 0.9591(4) -0.0380(5) 1.0450(4)
H15 H 0.8228(4) -0.0116(5) 0.9721(4)
H16 H 0.7695(3) -0.2985(5) 0.8281(3)
H17 H 0.7365(3) -0.4410(5) 0.7269(3)
H18 H 0.5955(3) -0.4976(5) 0.6861(3)
H19 H 0.4875(3) -0.4118(5) 0.7465(3)
H20 H 0.5205(3) -0.2693(5) 0.8477(3)
H21 H 0.4001(39) -0.0384(43) 0.7494(37)
H22 H 0.2705(39) -0.1385(44) 0.7743(37)
H23 H 0.4005(36) 0.3998(41) 0.9446(35)
H24 H 0.6193(36) 0.4281(41) 0.9946(35)
Li1B Li 0.5669(11) -0.0379(13) 1.0419(9)
Li2B Li 0.5027(11) -0.2240(15) 1.0084(10)
O1B O 0.4500(3) -0.0887(4) 1.0395(3)
O3B O 0.3937(4) 0.1731(5) 1.0052(3)
C6B C 0.4211(7) 0.5324(10) 1.0146(10)
C5B C 0.5671(7) 0.5470(9) 1.0510(9)
O4B O 0.6425(5) -0.0138(6) 1.1505(4)
O6B O 0.4907(4) -0.3856(5) 1.0236(5)
Si1B Si 0.3833(2) -0.0938(2) 1.1014(2)
Si2B Si 0.3297(2) 0.1601(2) 1.0675(2)
O6B_2 O 0.4907(4) 0.6144(5) 1.0236(5)
H24B H 0.3807(36) 0.5719(41) 1.0054(35)
H23B H 0.5995(36) 0.6002(41) 1.0554(35)
C1B C 0.6974(9) -0.1125(11) 1.1793(8)
C3B C 0.6288(9) 0.0602(12) 1.2151(8)
O2B O 0.3343(4) 0.0284(5) 1.1068(4)
C12B C 0.3027(4) -0.2090(5) 1.0646(3)
C18B C 0.4325(4) -0.1305(5) 1.2084(4)
C24B C 0.2164(4) 0.1796(5) 1.0168(4)
C30B C 0.3520(3) 0.2707(5) 1.1528(3)
C2B C 0.7804(10) -0.0647(14) 1.2129(10)
C4B C 0.7150(11) 0.1004(13) 1.2611(9)
H21B H 0.5999(39) 0.0384(43) 1.2506(37)
C7B C 0.2715(4) -0.2121(5) 0.9819(3)
C11B C 0.2750(4) -0.2901(5) 1.1167(3)
C13B C 0.4235(4) -0.0569(5) 1.2728(4)
C17B C 0.4741(4) -0.2366(5) 1.2230(4)
C19B C 0.1919(4) 0.2884(5) 0.9846(4)
C23B C 0.1603(4) 0.0864(5) 1.0058(4)
C25B C 0.2880(3) 0.3216(5) 1.1885(3)
C29B C 0.4355(3) 0.3043(5) 1.1769(3)
O5B O 0.7678(7) 0.0038(9) 1.2832(6)
H22B H 0.7295(39) 0.1385(44) 1.2257(37)
C8B C 0.2127(4) -0.2963(5) 0.9512(3)
H1B H 0.2906(4) -0.1562(5) 0.9460(3)
C10B C 0.2162(4) -0.3744(5) 1.0861(3)
H5B H 0.2965(4) -0.2880(5) 1.1736(3)
C14B C 0.4560(4) -0.0894(5) 1.3520(4)
H6B H 0.3948(4) 0.0161(5) 1.2628(4)
C16B C 0.5066(4) -0.2691(5) 1.3021(4)
H10B H 0.4803(4) -0.2872(5) 1.1786(4)
C20B C 0.1111(4) 0.3041(5) 0.9414(4)
H11B H 0.2305(4) 0.3526(5) 0.9922(4)
C22B C 0.0795(4) 0.1021(5) 0.9626(4)
H15B H 0.1772(4) 0.0116(5) 1.0279(4)
C26B C 0.3075(3) 0.4060(5) 1.2485(3)
H16B H 0.2305(3) 0.2985(5) 1.1719(3)
C28B C 0.4550(3) 0.3887(5) 1.2369(3)
H20B H 0.4795(3) 0.2693(5) 1.1523(3)
C9B C 0.1850(4) -0.3775(5) 1.0033(3)
H2B H 0.1912(4) -0.2985(5) 0.8943(3)
H4B H 0.1971(4) -0.4303(5) 1.1219(3)
C15B C 0.4976(4) -0.1955(5) 1.3666(4)
H7B H 0.4498(4) -0.0388(5) 1.3964(4)
H9B H 0.5353(4) -0.3421(5) 1.3122(4)
C21B C 0.0550(4) 0.2109(5) 0.9304(4)
H12B H 0.0942(4) 0.3790(5) 0.9193(4)
H14B H 0.0409(4) 0.0380(5) 0.9550(4)
C27B C 0.3910(3) 0.4395(5) 1.2726(3)
H17B H 0.2635(3) 0.4410(5) 1.2731(3)
H19B H 0.5125(3) 0.4118(5) 1.2535(3)
H3B H 0.1445(4) -0.4355(5) 0.9823(3)
H8B H 0.5200(4) -0.2179(5) 1.4211(4)
H13B H -0.0006(4) 0.2217(5) 0.9007(4)
H18B H 0.4045(3) 0.4976(5) 1.3139(3)
Li2B_2 Li 0.5027(11) 0.7760(15) 1.0084(10)
loop_
_geom_bond_atom_site_label_1
_geom_bond_atom_site_label_2
_geom_bond_site_symmetry_1
_geom_bond_site_symmetry_2
Si1 O1 1_555 1_555
Si2 O2 1_555 1_555
O1 Li1 1_555 1_555
O2 Si1 1_555 1_555
O3 Si2 1_555 1_555
O4 Li1 1_555 1_555
O5 C2 1_555 1_555
O6 Li2 1_555 1_555
Li1 Li2 1_555 1_555
Li2 O1 1_555 1_555
C1 O4 1_555 1_555
C2 C1 1_555 1_555
C3 O4 1_555 1_555
C4 O5 1_555 1_555
C5 O6 1_555 1_555
C6 O6 1_555 1_555
C7 C8 1_555 1_555
C8 C9 1_555 1_555
C9 C10 1_555 1_555
C10 C11 1_555 1_555
C11 C12 1_555 1_555
C12 Si1 1_555 1_555
C13 C14 1_555 1_555
C14 C15 1_555 1_555
C15 C16 1_555 1_555
C16 C17 1_555 1_555
C17 C18 1_555 1_555
C18 Si1 1_555 1_555
C19 C20 1_555 1_555
C20 C21 1_555 1_555
C21 C22 1_555 1_555
C22 C23 1_555 1_555
C23 C24 1_555 1_555
C24 Si2 1_555 1_555
C25 C26 1_555 1_555
C26 C27 1_555 1_555
C27 C28 1_555 1_555
C28 C29 1_555 1_555
C29 C30 1_555 1_555
C30 Si2 1_555 1_555
H1 C7 1_555 1_555
H2 C8 1_555 1_555
H3 C9 1_555 1_555
H4 C10 1_555 1_555
H5 C11 1_555 1_555
H6 C13 1_555 1_555
H7 C14 1_555 1_555
H8 C15 1_555 1_555
H9 C16 1_555 1_555
H10 C17 1_555 1_555
H11 C19 1_555 1_555
H12 C20 1_555 1_555
H13 C21 1_555 1_555
H14 C22 1_555 1_555
H15 C23 1_555 1_555
H16 C25 1_555 1_555
H17 C26 1_555 1_555
H18 C27 1_555 1_555
H19 C28 1_555 1_555
H20 C29 1_555 1_555
H21 C3 1_555 1_555
H22 C4 1_555 1_555
H23 C5 1_555 1_555
H24 C6 1_555 1_555
Li1B O1 1_555 1_555
Li2B O3 1_555 1_555
O1B Li1 1_555 1_555
O3B Li1 1_555 1_555
C6B C5 1_555 1_555
C5B C6 1_555 1_555
O4B Li1B 1_555 1_555
O6B Li2B 1_555 1_555
Si1B O1B 1_555 1_555
Si2B O3B 1_555 1_555
O6B_2 C6B 1_555 1_555
H24B C6B 1_555 1_555
H23B C5B 1_555 1_555
C1B O4B 1_555 1_555
C3B O4B 1_555 1_555
O2B Si1B 1_555 1_555
C12B Si1B 1_555 1_555
C18B Si1B 1_555 1_555
C24B Si2B 1_555 1_555
C30B Si2B 1_555 1_555
C2B C1B 1_555 1_555
C4B C3B 1_555 1_555
H21B C3B 1_555 1_555
C7B C12B 1_555 1_555
C11B C12B 1_555 1_555
C13B C18B 1_555 1_555
C17B C18B 1_555 1_555
C19B C24B 1_555 1_555
C23B C24B 1_555 1_555
C25B C30B 1_555 1_555
C29B C30B 1_555 1_555
O5B C2B 1_555 1_555
H22B C4B 1_555 1_555
C8B C7B 1_555 1_555
H1B C7B 1_555 1_555
C10B C11B 1_555 1_555
H5B C11B 1_555 1_555
C14B C13B 1_555 1_555
H6B C13B 1_555 1_555
C16B C17B 1_555 1_555
H10B C17B 1_555 1_555
C20B C19B 1_555 1_555
H11B C19B 1_555 1_555
C22B C23B 1_555 1_555
H15B C23B 1_555 1_555
C26B C25B 1_555 1_555
H16B C25B 1_555 1_555
C28B C29B 1_555 1_555
H20B C29B 1_555 1_555
C9B C8B 1_555 1_555
H2B C8B 1_555 1_555
H4B C10B 1_555 1_555
C15B C14B 1_555 1_555
H7B C14B 1_555 1_555
H9B C16B 1_555 1_555
C21B C20B 1_555 1_555
H12B C20B 1_555 1_555
H14B C22B 1_555 1_555
C27B C26B 1_555 1_555
H17B C26B 1_555 1_555
H19B C28B 1_555 1_555
H3B C9B 1_555 1_555
H8B C15B 1_555 1_555
H13B C21B 1_555 1_555
H18B C27B 1_555 1_555
Li2B_2 O6B_2 1_555 1_555
O3 Li1B 1_555 1_555
Li1 Li1B 1_555 1_555
Li2 O3B 1_555 1_555
C3 C4 1_555 1_555
C7 C12 1_555 1_555
C13 C18 1_555 1_555
C19 C24 1_555 1_555
C25 C30 1_555 1_555
Li1B O1B 1_555 1_555
Li1B Li2B 1_555 1_555
Li2B O1B 1_555 1_555
C5B O6B_2 1_555 1_555
Si2B O2B 1_555 1_555
C4B O5B 1_555 1_555
C10B C9B 1_555 1_555
C16B C15B 1_555 1_555
C22B C21B 1_555 1_555
C28B C27B 1_555 1_555

#END
