
#######################################################################
#
#                 Cambridge Crystallographic Data Centre
#                                CCDC 
#
#######################################################################
#
# If this CIF has been generated from an entry in the Cambridge 
# Structural Database, then it will include bibliographic, chemical, 
# crystal, experimental, refinement or atomic coordinate data resulting 
# from the CCDC's data processing and validation procedures.
#
#######################################################################

data_LAVSAE
_symmetry_cell_setting           monoclinic
_symmetry_space_group_name_H-M   'P 21/n'
_symmetry_Int_Tables_number      14
_space_group_name_Hall           '-P 2yn'
loop_
_symmetry_equiv_pos_site_id
_symmetry_equiv_pos_as_xyz
1 x,y,z
2 1/2-x,1/2+y,1/2-z
3 -x,-y,-z
4 1/2+x,1/2-y,1/2+z
_cell_length_a                   12.6543(6)
_cell_length_b                   7.7128(4)
_cell_length_c                   17.3089(9)
_cell_angle_alpha                90
_cell_angle_beta                 109.3980(10)
_cell_angle_gamma                90
_cell_volume                     1593.45
loop_
_atom_site_label
_atom_site_type_symbol
_atom_site_fract_x
_atom_site_fract_y
_atom_site_fract_z
Cd1 Cd 0.377368(19) 0.27946(3) 0.194842(13)
C1 C 0.9237(3) -0.1131(4) 0.38390(17)
C2 C 0.9467(3) 0.1680(5) 0.4084(2)
H1 H 0.9380 0.2812 0.4238
C3 C 1.0253(3) 0.1089(5) 0.37861(19)
H2 H 1.0812 0.1763 0.3699
C4 C 0.8771(3) -0.2904(5) 0.3786(2)
H3 H 0.8085 -0.2970 0.3331
H4 H 0.8627 -0.3171 0.4283
H5 H 0.9300 -0.3721 0.3708
C5 C 0.7863(3) 0.0298(5) 0.44102(18)
H6 H 0.7910 0.1325 0.4743
H7 H 0.7902 -0.0707 0.4755
C6 C 0.6240(3) 0.1680(5) 0.33204(19)
C7 C -0.8889(3) 0.6138(4) -0.15132(19)
H8 H -0.8734 0.7269 -0.1324
C8 C -0.9816(3) 0.5570(5) -0.20961(19)
H9 H -1.0419 0.6263 -0.2387
C9 C 0.6708(3) 0.3470(5) 0.3427(2)
H10 H 0.6153 0.4260 0.3099
H11 H 0.7357 0.3505 0.3257
H12 H 0.6914 0.3799 0.3992
C10 C 0.1415(3) 0.3954(5) 0.06676(19)
C11 C 0.0525(3) 0.5315(4) 0.03334(18)
H13 H -0.0846 0.3739 -0.0115
H14 H -0.0311 0.4226 -0.0782
N1 N 1.0111(2) -0.0651(4) 0.36297(15)
N2 N 0.8817(2) 0.0271(4) 0.41165(15)
N3 N 0.6790(2) 0.0295(4) 0.37486(15)
N4 N 0.5256(2) 0.1199(4) 0.27998(15)
N5 N 0.3035(2) -0.0151(4) 0.07155(17)
O1 O 0.4204(3) 0.5265(4) 0.2915(2)
H15 H 0.365(5) 0.591(8) 0.278(3)
H16 H 0.437(4) 0.503(7) 0.341(3)
O2 O 0.2730(2) 0.2197(4) 0.28396(16)
H17 H 0.291(4) 0.136(6) 0.314(3)
H18 H 0.260(4) 0.304(6) 0.309(3)
O3 O 0.2999(2) 0.0040(3) 0.14427(13)
O4 O 0.3615(2) 0.0885(4) 0.04827(17)
O5 O 0.2517(2) -0.1328(4) 0.02867(16)
O6 O 0.22649(19) 0.4417(3) 0.12770(13)
O7 O -0.1347(3) 0.7448(4) -0.0334(2)
Cd1A Cd 1.122632(19) -0.22054(3) 0.305158(13)
Cd1B Cd -0.377368(19) 0.72054(3) -0.194842(13)
Cd1C Cd -1.122632(19) 0.22054(3) -0.305158(13)
C1C C -0.5763(3) 0.6131(4) -0.11610(17)
C2C C -0.5533(3) 0.3320(5) -0.0916(2)
H1C H -0.5620 0.2188 -0.0762
C3C C -0.4747(3) 0.3911(5) -0.12139(19)
H2C H -0.4188 0.3237 -0.1301
C4C C -0.6229(3) 0.7904(5) -0.1214(2)
H3C H -0.6915 0.7970 -0.1669
H4C H -0.6373 0.8171 -0.0717
H5C H -0.5700 0.8721 -0.1292
C5C C -0.7137(3) 0.4702(5) -0.05898(18)
H6C H -0.7090 0.3675 -0.0257
H7C H -0.7098 0.5707 -0.0245
C6C C -0.8760(3) 0.3320(5) -0.16796(19)
C7C C 0.6111(3) -0.1138(4) 0.34868(19)
H8C H 0.6266 -0.2269 0.3676
C8C C 0.5184(3) -0.0570(5) 0.29039(19)
H9C H 0.4581 -0.1263 0.2613
C9C C -0.8292(3) 0.1530(5) -0.1573(2)
H10C H -0.8847 0.0740 -0.1901
H11C H -0.7643 0.1495 -0.1743
H12C H -0.8086 0.1201 -0.1008
C10B C -0.1415(3) 0.6046(5) -0.06676(19)
C11B C -0.0525(3) 0.4685(4) -0.03334(18)
H13B H 0.0846 0.6261 0.0115
H14B H 0.0311 0.5774 0.0782
N1A N 0.4889(2) 0.4349(4) 0.13703(15)
N1C N -0.4889(2) 0.5651(4) -0.13703(15)
N2C N -0.6183(2) 0.4729(4) -0.08835(15)
N3C N -0.8210(2) 0.4705(4) -0.12514(15)
N4C N -0.9744(2) 0.3801(4) -0.22002(15)
N4B N -0.5256(2) 0.8801(4) -0.27998(15)
N5B N -0.3035(2) 1.0151(4) -0.07155(17)
O1B O -0.4204(3) 0.4735(4) -0.2915(2)
H15B H -0.365(5) 0.409(8) -0.278(3)
H16B H -0.437(4) 0.497(7) -0.341(3)
O2B O -0.2730(2) 0.7803(4) -0.28396(16)
H17B H -0.291(4) 0.864(6) -0.314(3)
H18B H -0.260(4) 0.696(6) -0.309(3)
O3B O -0.2999(2) 0.9960(3) -0.14427(13)
O4B O -0.3615(2) 0.9115(4) -0.04827(17)
O5B O -0.2517(2) 1.1328(4) -0.02867(16)
O6B O -0.22649(19) 0.5583(3) -0.12770(13)
O7B O 0.1347(3) 0.2552(4) 0.0334(2)
O8 O 0.5007(7) -0.4922(13) 0.4448(4)
H19 H 0.510(6) -0.588(10) 0.466(6)
H20 H 0.468(6) -0.426(10) 0.466(5)
loop_
_geom_bond_atom_site_label_1
_geom_bond_atom_site_label_2
_geom_bond_site_symmetry_1
_geom_bond_site_symmetry_2
Cd1 N4 1_555 1_555
C1 C4 1_555 1_555
C2 H1 1_555 1_555
C3 C2 1_555 1_555
H2 C3 1_555 1_555
C4 H3 1_555 1_555
H4 C4 1_555 1_555
H5 C4 1_555 1_555
C5 H6 1_555 1_555
H7 C5 1_555 1_555
C6 C9 1_555 1_555
C7 H8 1_555 1_555
C8 C7 1_555 1_555
H9 C8 1_555 1_555
C9 H10 1_555 1_555
H11 C9 1_555 1_555
H12 C9 1_555 1_555
C10 C11 1_555 1_555
C11 C11B 1_555 1_555
H13 C11B 1_555 1_555
H14 C11B 1_555 1_555
N1 C1 1_555 1_555
N2 C1 1_555 1_555
N3 C5 1_555 1_555
N4 C6 1_555 1_555
N5 O3 1_555 1_555
O1 Cd1 1_555 1_555
H15 O1 1_555 1_555
H16 O1 1_555 1_555
O2 Cd1 1_555 1_555
H17 O2 1_555 1_555
H18 O2 1_555 1_555
O3 Cd1 1_555 1_555
O4 N5 1_555 1_555
O5 N5 1_555 1_555
O6 Cd1 1_555 1_555
O7 C10B 1_555 1_555
O8 H19 1_555 1_555
H20 O8 1_555 1_555
Cd1A N1 1_555 1_555
Cd1B N1C 1_555 1_555
Cd1C N4C 1_555 1_555
C1C C4C 1_555 1_555
C2C H1C 1_555 1_555
C3C C2C 1_555 1_555
H2C C3C 1_555 1_555
C4C H3C 1_555 1_555
H4C C4C 1_555 1_555
H5C C4C 1_555 1_555
C5C H6C 1_555 1_555
H7C C5C 1_555 1_555
C6C C9C 1_555 1_555
C7C N3 1_555 1_555
H8C C7C 1_555 1_555
C8C N4 1_555 1_555
H9C C8C 1_555 1_555
C9C H10C 1_555 1_555
H11C C9C 1_555 1_555
H12C C9C 1_555 1_555
C10B C11B 1_555 1_555
H13B C11 1_555 1_555
H14B C11 1_555 1_555
N1A Cd1 1_555 1_555
N1C C1C 1_555 1_555
N2C C1C 1_555 1_555
N3C C7 1_555 1_555
N4C C8 1_555 1_555
N4B Cd1B 1_555 1_555
N5B O3B 1_555 1_555
O1B Cd1B 1_555 1_555
H15B O1B 1_555 1_555
H16B O1B 1_555 1_555
O2B Cd1B 1_555 1_555
H17B O2B 1_555 1_555
H18B O2B 1_555 1_555
O3B Cd1B 1_555 1_555
O4B N5B 1_555 1_555
O5B N5B 1_555 1_555
O6B Cd1B 1_555 1_555
O7B C10 1_555 1_555
C2 N2 1_555 1_555
C3 N1 1_555 1_555
C5 N2 1_555 1_555
C6 N3 1_555 1_555
C10 O6 1_555 1_555
C2C N2C 1_555 1_555
C3C N1C 1_555 1_555
C5C N2C 1_555 1_555
C5C N3C 1_555 1_555
C6C N3C 1_555 1_555
C6C N4C 1_555 1_555
C7C C8C 1_555 1_555
C10B O6B 1_555 1_555

#END
