
#######################################################################
#
#                 Cambridge Crystallographic Data Centre
#                                CCDC 
#
#######################################################################
#
# If this CIF has been generated from an entry in the Cambridge 
# Structural Database, then it will include bibliographic, chemical, 
# crystal, experimental, refinement or atomic coordinate data resulting 
# from the CCDC's data processing and validation procedures.
#
#######################################################################

data_LAVSOS01
_symmetry_cell_setting           monoclinic
_symmetry_space_group_name_H-M   'C 2/c'
_symmetry_Int_Tables_number      15
_space_group_name_Hall           '-C 2yn'
loop_
_symmetry_equiv_pos_site_id
_symmetry_equiv_pos_as_xyz
1 x,y,z
2 -x,y,1/2-z
3 1/2+x,1/2+y,z
4 1/2-x,1/2+y,1/2-z
5 -x,-y,-z
6 x,-y,1/2+z
7 1/2-x,1/2-y,-z
8 1/2+x,1/2-y,1/2+z
_cell_length_a                   17.112(3)
_cell_length_b                   11.135(2)
_cell_length_c                   12.126(2)
_cell_angle_alpha                90
_cell_angle_beta                 104.85(3)
_cell_angle_gamma                90
_cell_volume                     2233.34
loop_
_atom_site_label
_atom_site_type_symbol
_atom_site_fract_x
_atom_site_fract_y
_atom_site_fract_z
Cu1 Cu 0.5000 0.87438(3) 0.7500
O1 O 0.43960(11) 0.87146(15) 0.58758(13)
H1 H 0.4154 0.8089 0.5664
H2 H 0.4087 0.9285 0.5680
O4 O 0.36711(11) 0.88591(16) 0.79355(15)
H3 H 0.3579 0.8968 0.8561
H4 H 0.3448 0.9399 0.7503
N1 N 0.5000 0.6931(2) 0.7500
N2 N 0.5000 0.0563(2) 0.7500
C1 C 0.45882(16) 0.6311(2) 0.8111(2)
H9 H 0.4301 0.6731 0.8541
C2 C 0.45722(17) 0.5067(2) 0.8129(2)
H10 H 0.4276 0.4668 0.8561
C3 C 0.5000 0.4417(3) 0.7500
C4 C 0.5000 0.3076(3) 0.7500
C5 C 0.48432(17) 0.2427(2) 0.8399(2)
H11 H 0.4737 0.2827 0.9019
C6 C 0.48451(16) 0.1187(2) 0.8369(2)
H12 H 0.4735 0.0766 0.8975
Cu1_2 Cu 0.5000 -0.12562(3) 0.7500
O1A O 0.56040(11) 0.87146(15) 0.91242(13)
H1A H 0.5846 0.8089 0.9336
H2A H 0.5913 0.9285 0.9320
O4A O 0.63289(11) 0.88591(16) 0.70645(15)
H3A H 0.6421 0.8968 0.6439
H4A H 0.6552 0.9399 0.7497
N2_2 N 0.5000 1.0563(2) 0.7500
C1A C 0.54118(16) 0.6311(2) 0.6889(2)
H9A H 0.5699 0.6731 0.6459
C2A C 0.54278(17) 0.5067(2) 0.6871(2)
H10A H 0.5724 0.4668 0.6439
C5A C 0.51568(17) 0.2427(2) 0.6601(2)
H11A H 0.5263 0.2827 0.5981
C6A C 0.51549(16) 0.1187(2) 0.6631(2)
H12A H 0.5265 0.0766 0.6025
F1 F 0.33513(10) 0.31057(16) 0.46607(16)
F2 F 0.29291(11) 0.33959(16) 0.61875(14)
O2 O 0.16201(13) 0.45430(18) 0.49626(16)
O3 O 0.20898(16) 0.4317(2) 0.34192(18)
C7 C 0.26765(16) 0.3133(2) 0.5056(2)
C8 C 0.20728(18) 0.4103(2) 0.4409(2)
F1F F 0.16487(10) 0.18943(16) 0.53393(16)
F2F F 0.20709(11) 0.16041(16) 0.38125(14)
O2F O 0.33799(13) 0.04570(18) 0.50374(16)
O3F O 0.29102(16) 0.0683(2) 0.65808(18)
C7F C 0.23235(16) 0.1867(2) 0.4944(2)
C8F C 0.29272(18) 0.0897(2) 0.5591(2)
O5 O 0.35115(14) 0.6752(2) 0.5062(2)
H5 H 0.3262 0.6610 0.5542
H6 H 0.3197 0.7005 0.4479
O6 O 0.23890(14) 0.7923(2) 0.32616(18)
H7 H 0.2530 0.8407 0.2843
H8 H 0.2113 0.7397 0.2874
loop_
_geom_bond_atom_site_label_1
_geom_bond_atom_site_label_2
_geom_bond_site_symmetry_1
_geom_bond_site_symmetry_2
Cu1 O1 1_555 1_555
F1 C7 1_555 1_555
F2 C7 1_555 1_555
O1 H1 1_555 1_555
H2 O1 1_555 1_555
O2 C8 1_555 1_555
O3 C8 1_555 1_555
O4 Cu1 1_555 1_555
H3 O4 1_555 1_555
H4 O4 1_555 1_555
O5 H5 1_555 1_555
H6 O5 1_555 1_555
O6 H7 1_555 1_555
H8 O6 1_555 1_555
N1 Cu1 1_555 1_555
N2 C6 1_555 1_555
C1 N1 1_555 1_555
H9 C1 1_555 1_555
C2 C1 1_555 1_555
H10 C2 1_555 1_555
C3 C2 1_555 1_555
C4 C3 1_555 1_555
C5 C4 1_555 1_555
H11 C5 1_555 1_555
C6 C5 1_555 1_555
H12 C6 1_555 1_555
C7 C8 1_555 1_555
Cu1_2 N2 1_555 1_555
F1F C7F 1_555 1_555
F2F C7F 1_555 1_555
O1A Cu1 1_555 1_555
H1A O1A 1_555 1_555
H2A O1A 1_555 1_555
O2F C8F 1_555 1_555
O3F C8F 1_555 1_555
O4A Cu1 1_555 1_555
H3A O4A 1_555 1_555
H4A O4A 1_555 1_555
N2_2 Cu1 1_555 1_555
C1A N1 1_555 1_555
H9A C1A 1_555 1_555
C2A C3 1_555 1_555
H10A C2A 1_555 1_555
C5A C4 1_555 1_555
H11A C5A 1_555 1_555
C6A N2 1_555 1_555
H12A C6A 1_555 1_555
C7F C7 1_555 1_555
C8F C7F 1_555 1_555
C1A C2A 1_555 1_555
C5A C6A 1_555 1_555

#END
