
#######################################################################
#
#                 Cambridge Crystallographic Data Centre
#                                CCDC 
#
#######################################################################
#
# If this CIF has been generated from an entry in the Cambridge 
# Structural Database, then it will include bibliographic, chemical, 
# crystal, experimental, refinement or atomic coordinate data resulting 
# from the CCDC's data processing and validation procedures.
#
#######################################################################

data_LAVVAF
_symmetry_cell_setting           monoclinic
_symmetry_space_group_name_H-M   'P 21/m'
_symmetry_Int_Tables_number      11
_space_group_name_Hall           '-P 2yb'
loop_
_symmetry_equiv_pos_site_id
_symmetry_equiv_pos_as_xyz
1 x,y,z
2 x,1/2-y,z
3 -x,-y,-z
4 -x,1/2+y,-z
_cell_length_a                   9.162(4)
_cell_length_b                   18.442(3)
_cell_length_c                   9.573(7)
_cell_angle_alpha                90
_cell_angle_beta                 108.79(5)
_cell_angle_gamma                90
_cell_volume                     1531.3
loop_
_atom_site_label
_atom_site_type_symbol
_atom_site_fract_x
_atom_site_fract_y
_atom_site_fract_z
Rh1 Rh 0.25268(5) 0.2500 0.95039(6)
N1 N 0.4236(4) 0.3286(2) 0.9647(4)
C1 C 0.5075(6) 0.3584(3) 1.0911(6)
C2 C 0.6320(6) 0.4032(3) 1.1033(6)
C3 C 0.6732(5) 0.4173(2) 0.9799(6)
C4 C 0.5850(6) 0.3872(3) 0.8481(6)
C5 C 0.4621(6) 0.3436(3) 0.8437(6)
C6 C 0.8107(6) 0.4574(3) 0.9890(6)
C7 C 0.9310(5) 0.4844(3) 0.9965(6)
C8 C 0.1067(6) 0.3254(3) 1.0082(8)
C9 C 0.0115(9) 0.2878(4) 1.0899(10)
C10 C 0.0738(6) 0.1741(3) 0.8586(8)
C11 C -0.0623(8) 0.2108(4) 0.749(1)
H1 H 0.4822 0.3473 1.1796
H2 H 0.6893 0.4251 1.1975
H3 H 0.6093 0.3966 0.7582
H4 H 0.4006 0.3230 0.7494
H5 H 0.1618 0.3687 1.0585
H6 H 0.0498 0.3042 1.1939
H7 H -0.0915 0.3042 1.0510
H8 H 0.1081 0.1307 0.8226
H9 H -0.0703 0.1945 0.6508
H10 H -0.1562 0.1945 0.7665
C7B C 1.0690(5) 0.5156(3) 1.0035(6)
C6B C 1.1893(6) 0.5426(3) 1.0110(6)
C3B C 1.3268(5) 0.5827(2) 1.0201(6)
C2B C 1.3680(6) 0.5968(3) 0.8967(6)
C1B C 1.4925(6) 0.6416(3) 0.9089(6)
N1B N 1.5764(4) 0.6714(2) 1.0353(4)
Rh1B Rh 1.74732(5) 0.7500 1.04961(6)
C5B C 1.5379(6) 0.6564(3) 1.1563(6)
C4B C 1.4150(6) 0.6128(3) 1.1519(6)
H3B H 1.3907 0.6034 1.2418
H4B H 1.5994 0.6770 1.2506
H1B H 1.5178 0.6527 0.8204
H2B H 1.3107 0.5749 0.8025
N1A N 0.4236(4) 0.1714(2) 0.9647(4)
C8A C 0.1067(6) 0.1746(3) 1.0082(8)
C10A C 0.0738(6) 0.3259(3) 0.8586(8)
C9A C 0.0115(9) 0.2122(4) 1.0899(10)
H6A H 0.0498 0.1958 1.1939
H7A H -0.0915 0.1958 1.0510
C11A C -0.0623(8) 0.2892(4) 0.749(1)
H9A H -0.0703 0.3055 0.6508
H10A H -0.1562 0.3055 0.7665
H5A H 0.1618 0.1313 1.0585
H8A H 0.1081 0.3693 0.8226
F1 F 0.4086(10) 0.2500 0.3347(9)
F2 F 0.347(2) 0.2500 0.522(1)
F3 F 0.547(2) 0.3119(8) 0.486(2)
B1 B 0.472(2) 0.2500 0.466(2)
F3A F 0.547(2) 0.1881(8) 0.486(2)
O1 O 0.1956(10) 0.0292(4) 0.6389(8)
C12 C 0.102(2) 0.1018(8) 0.437(2)
C13 C 0.192(1) 0.0404(7) 0.516(1)
C14 C 0.269(2) 0.002(1) 0.437(2)
H11 H 0.1406 0.1476 0.4846
H12 H 0.1083 0.1067 0.3361
H13 H -0.0039 0.0985 0.4267
H14 H 0.2174 -0.0471 0.4214
H15 H 0.2382 0.0213 0.3356
H16 H 0.3666 -0.0011 0.4793
F4? F 0.556(2) 0.2500 0.589(1)
loop_
_geom_bond_atom_site_label_1
_geom_bond_atom_site_label_2
_geom_bond_site_symmetry_1
_geom_bond_site_symmetry_2
Rh1 N1 1_555 1_555
F1 B1 1_555 1_555
F2 B1 1_555 1_555
F3 B1 1_555 1_555
O1 C13 1_555 1_555
N1 C1 1_555 1_555
C1 C2 1_555 1_555
C2 C3 1_555 1_555
C3 C4 1_555 1_555
C4 C5 1_555 1_555
C5 N1 1_555 1_555
C6 C3 1_555 1_555
C7 C6 1_555 1_555
C8 Rh1 1_555 1_555
C9 C8 1_555 1_555
C10 Rh1 1_555 1_555
C11 C10 1_555 1_555
C12 C13 1_555 1_555
C13 C14 1_555 1_555
C14 H14 1_555 1_555
B1 F3A 1_555 1_555
H1 C1 1_555 1_555
H2 C2 1_555 1_555
H3 C4 1_555 1_555
H4 C5 1_555 1_555
H5 C8 1_555 1_555
H6 C9 1_555 1_555
H7 C9 1_555 1_555
H8 C10 1_555 1_555
H9 C11 1_555 1_555
H10 C11 1_555 1_555
H11 C12 1_555 1_555
H12 C12 1_555 1_555
H13 C12 1_555 1_555
H15 C14 1_555 1_555
H16 C14 1_555 1_555
C7B C7 1_555 1_555
C6B C7B 1_555 1_555
C3B C6B 1_555 1_555
C2B C3B 1_555 1_555
C1B C2B 1_555 1_555
N1B C1B 1_555 1_555
Rh1B N1B 1_555 1_555
C5B N1B 1_555 1_555
C4B C3B 1_555 1_555
H3B C4B 1_555 1_555
H4B C5B 1_555 1_555
H1B C1B 1_555 1_555
H2B C2B 1_555 1_555
N1A Rh1 1_555 1_555
C8A Rh1 1_555 1_555
C10A Rh1 1_555 1_555
C9A C9 1_555 1_555
H6A C9A 1_555 1_555
H7A C9A 1_555 1_555
C11A C11 1_555 1_555
H9A C11A 1_555 1_555
H10A C11A 1_555 1_555
H5A C8A 1_555 1_555
H8A C10A 1_555 1_555
C8 C10A 1_555 1_555
C10 C8A 1_555 1_555
C5B C4B 1_555 1_555
C8A C9A 1_555 1_555
C10A C11A 1_555 1_555

#END
