
#######################################################################
#
#                 Cambridge Crystallographic Data Centre
#                                CCDC 
#
#######################################################################
#
# If this CIF has been generated from an entry in the Cambridge 
# Structural Database, then it will include bibliographic, chemical, 
# crystal, experimental, refinement or atomic coordinate data resulting 
# from the CCDC's data processing and validation procedures.
#
#######################################################################

data_LAVWUB
_symmetry_cell_setting           triclinic
_symmetry_space_group_name_H-M   'P -1'
_symmetry_Int_Tables_number      2
_space_group_name_Hall           '-P 1'
loop_
_symmetry_equiv_pos_site_id
_symmetry_equiv_pos_as_xyz
1 x,y,z
2 -x,-y,-z
_cell_length_a                   7.2910(9)
_cell_length_b                   7.4810(9)
_cell_length_c                   9.0070(13)
_cell_angle_alpha                104.444(2)
_cell_angle_beta                 96.971(2)
_cell_angle_gamma                102.618(2)
_cell_volume                     456.15
loop_
_atom_site_label
_atom_site_type_symbol
_atom_site_fract_x
_atom_site_fract_y
_atom_site_fract_z
Co1 Co 0.5000 0.5000 0.5000
Cl1 Cl -0.3261(3) 0.1451(4) -0.1605(3)
N1 N 0.6712(7) 0.7140(7) 0.4213(6)
N2 N 0.8059(7) 1.0352(7) 0.4023(7)
N3 N 0.6629(7) 1.3038(6) 0.4231(6)
N4 N 0.3064(7) 0.3950(6) 0.2785(5)
C1 C 0.7272(8) 0.8680(8) 0.4160(6)
C2 C 0.7201(8) 1.1707(8) 0.4149(6)
C3 C 0.3662(9) 0.3585(10) 0.1426(7)
H1 H 0.4970 0.3800 0.1440
C4 C 0.2438(9) 0.2905(10) 0.0001(8)
H2 H 0.2925 0.2675 -0.0916
C5 C 0.0485(9) 0.2565(8) -0.0061(7)
C6 C -0.0159(9) 0.2922(10) 0.1332(8)
H3 H -0.1461 0.2704 0.1345
C7 C 0.1168(9) 0.3611(10) 0.2712(8)
H4 H 0.0716 0.3852 0.3645
C8 C -0.0827(10) 0.1803(11) -0.1655(8)
H5 H -0.0606 0.0597 -0.2196
H6 H -0.0480 0.2692 -0.2258
Co1_2 Co 0.5000 1.5000 0.5000
Co1_3 Co 0.5000 -0.5000 0.5000
Cl1A Cl 1.3261(3) 0.8549(4) 1.1605(3)
N1A N 0.3288(7) 0.2860(7) 0.5787(6)
N2A N 0.1941(7) -0.0352(7) 0.5977(7)
N3A N 0.3371(7) -0.3038(6) 0.5769(6)
N3_2 N 0.6629(7) 0.3038(6) 0.4231(6)
N3A_2 N 0.3371(7) 0.6962(6) 0.5769(6)
N4A N 0.6936(7) 0.6050(6) 0.7215(5)
C1A C 0.2728(8) 0.1320(8) 0.5840(6)
C2A C 0.2799(8) -0.1707(8) 0.5851(6)
C3A C 0.6338(9) 0.6415(10) 0.8574(7)
H1A H 0.5030 0.6200 0.8560
C4A C 0.7562(9) 0.7095(10) 0.9999(8)
H2A H 0.7075 0.7325 1.0916
C5A C 0.9515(9) 0.7435(8) 1.0061(7)
C6A C 1.0159(9) 0.7078(10) 0.8668(8)
H3A H 1.1461 0.7296 0.8655
C7A C 0.8832(9) 0.6389(10) 0.7288(8)
H4A H 0.9284 0.6148 0.6355
C8A C 1.0827(10) 0.8197(11) 1.1655(8)
H5A H 1.0606 0.9403 1.2196
H6A H 1.0480 0.7308 1.2258
loop_
_geom_bond_atom_site_label_1
_geom_bond_atom_site_label_2
_geom_bond_site_symmetry_1
_geom_bond_site_symmetry_2
Co1 N1 1_555 1_555
Cl1 C8 1_555 1_555
N1 C1 1_555 1_555
N2 C1 1_555 1_555
N3 C2 1_555 1_555
N4 Co1 1_555 1_555
C2 N2 1_555 1_555
C3 N4 1_555 1_555
H1 C3 1_555 1_555
C4 C3 1_555 1_555
H2 C4 1_555 1_555
C5 C4 1_555 1_555
C6 C5 1_555 1_555
H3 C6 1_555 1_555
C7 N4 1_555 1_555
H4 C7 1_555 1_555
C8 C5 1_555 1_555
H5 C8 1_555 1_555
H6 C8 1_555 1_555
Co1_2 N3 1_555 1_555
Co1_3 N3A 1_555 1_555
Cl1A C8A 1_555 1_555
N1A Co1 1_555 1_555
N2A C1A 1_555 1_555
N3A C2A 1_555 1_555
N3_2 Co1 1_555 1_555
N3A_2 Co1 1_555 1_555
N4A Co1 1_555 1_555
C1A N1A 1_555 1_555
C2A N2A 1_555 1_555
C3A N4A 1_555 1_555
H1A C3A 1_555 1_555
C4A C3A 1_555 1_555
H2A C4A 1_555 1_555
C5A C4A 1_555 1_555
C6A C5A 1_555 1_555
H3A C6A 1_555 1_555
C7A N4A 1_555 1_555
H4A C7A 1_555 1_555
C8A C5A 1_555 1_555
H5A C8A 1_555 1_555
H6A C8A 1_555 1_555
C6 C7 1_555 1_555
C6A C7A 1_555 1_555

#END
