
#######################################################################
#
#                 Cambridge Crystallographic Data Centre
#                                CCDC 
#
#######################################################################
#
# If this CIF has been generated from an entry in the Cambridge 
# Structural Database, then it will include bibliographic, chemical, 
# crystal, experimental, refinement or atomic coordinate data resulting 
# from the CCDC's data processing and validation procedures.
#
#######################################################################

data_LAVYOX01
_symmetry_cell_setting           monoclinic
_symmetry_space_group_name_H-M   'C 2/c'
_symmetry_Int_Tables_number      15
_space_group_name_Hall           '-C 2yn'
loop_
_symmetry_equiv_pos_site_id
_symmetry_equiv_pos_as_xyz
1 x,y,z
2 -x,y,1/2-z
3 1/2+x,1/2+y,z
4 1/2-x,1/2+y,1/2-z
5 -x,-y,-z
6 x,-y,1/2+z
7 1/2-x,1/2-y,-z
8 1/2+x,1/2-y,1/2+z
_cell_length_a                   12.1244(16)
_cell_length_b                   8.1353(11)
_cell_length_c                   23.267(3)
_cell_angle_alpha                90
_cell_angle_beta                 91.654(2)
_cell_angle_gamma                90
_cell_volume                     2294
loop_
_atom_site_label
_atom_site_type_symbol
_atom_site_fract_x
_atom_site_fract_y
_atom_site_fract_z
Cs1 Cs 0.69061(2) -0.30528(4) 0.917618(12)
O1 O 0.8404(3) -0.0961(5) 0.83409(16)
O2 O 0.8860(3) 0.2939(6) 0.70033(16)
O3 O 0.8878(3) 0.4636(5) 0.88516(17)
O4 O 0.7836(3) 0.0344(4) 0.98136(15)
O5 O 0.4318(3) 0.2246(5) 0.97422(15)
O6 O 0.6450(3) 0.3386(5) 0.82163(15)
O7 O 0.9269(3) 0.1364(5) 0.91048(15)
H1 H 0.896(5) 0.085(8) 0.938(3)
N1 N 0.8440(4) 0.1048(5) 0.76762(18)
H3 H 0.843(5) 0.031(6) 0.742(2)
N2 N 0.8803(4) 0.3796(5) 0.79307(18)
H4 H 0.903(5) 0.473(5) 0.781(2)
N3 N 0.6087(3) 0.1294(5) 0.97575(17)
H5 H 0.603(5) 0.089(7) 1.0081(15)
N4 N 0.5413(3) 0.2792(5) 0.89897(18)
H6 H 0.488(4) 0.328(7) 0.883(2)
C1 C 0.8411(4) 0.0502(6) 0.8229(2)
C2 C 0.8711(4) 0.2631(6) 0.7504(2)
C3 C 0.8710(4) 0.3536(6) 0.8503(2)
C4 C 0.8408(4) 0.1805(6) 0.8707(2)
C5 C 0.7280(4) 0.1863(6) 0.8985(2)
C6 C 0.7122(4) 0.1135(6) 0.9523(2)
C7 C 0.5211(4) 0.2129(6) 0.9513(2)
C8 C 0.6408(4) 0.2701(5) 0.8705(2)
O1C O 0.6596(3) -0.5961(5) 0.66591(16)
O2C O 0.6140(3) -0.2061(6) 0.79967(16)
O3C O 0.6122(3) -0.0364(5) 0.61484(17)
O4C O 0.7164(3) -0.4656(4) 0.51864(15)
O5C O 1.0682(3) -0.2754(5) 0.52578(15)
O6C O 0.8550(3) -0.1614(5) 0.67837(15)
O7C O 0.5731(3) -0.3636(5) 0.58952(15)
H1C H 0.604(5) -0.415(8) 0.562(3)
N1C N 0.6560(4) -0.3952(5) 0.73238(18)
H3C H 0.657(5) -0.469(6) 0.758(2)
N2C N 0.6197(4) -0.1204(5) 0.70693(18)
H4C H 0.597(5) -0.027(5) 0.719(2)
N3C N 0.8913(3) -0.3706(5) 0.52425(17)
H5C H 0.897(5) -0.411(7) 0.4919(15)
N4C N 0.9587(3) -0.2208(5) 0.60103(18)
H6C H 1.012(4) -0.172(7) 0.617(2)
C1C C 0.6589(4) -0.4498(6) 0.6771(2)
C2C C 0.6289(4) -0.2369(6) 0.7496(2)
C3C C 0.6290(4) -0.1464(6) 0.6497(2)
C4C C 0.6592(4) -0.3195(6) 0.6293(2)
C5C C 0.7720(4) -0.3137(6) 0.6015(2)
C6C C 0.7878(4) -0.3865(6) 0.5477(2)
C7C C 0.9789(4) -0.2871(6) 0.5487(2)
C8C C 0.8592(4) -0.2299(5) 0.6295(2)
Cs1C Cs 0.80939(2) -0.80528(4) 0.582382(12)
Cs1F Cs 0.80939(2) -0.19472(4) 1.082382(12)
O3_2 O 0.8878(3) -0.5364(5) 0.88516(17)
O4F O 0.7164(3) -0.5344(4) 1.01864(15)
O5B O 0.9318(3) -0.2754(5) 0.97422(15)
O5D O 0.5682(3) -0.2246(5) 1.02578(15)
O6_2 O 0.6450(3) -0.6614(5) 0.82163(15)
O7B O 0.4269(3) -0.3636(5) 0.91048(15)
Cs1C_2 Cs 0.80939(2) 0.19472(4) 0.582382(12)
Cs1_2 Cs 0.69061(2) 0.69472(4) 0.917618(12)
Cs1B Cs 0.19061(2) 0.19472(4) 0.917618(12)
Cs1D Cs 0.30939(2) 0.30528(4) 1.082382(12)
Cs1B_2 Cs 1.19061(2) 0.19472(4) 0.917618(12)
Cs1E Cs 0.69061(2) -0.69472(4) 0.417618(12)
Cs1A Cs 1.30939(2) -0.30528(4) 0.582382(12)
Cs1G Cs 1.19061(2) -0.19472(4) 0.417618(12)
Cs1A_2 Cs 0.30939(2) -0.30528(4) 0.582382(12)
O2_2 O 0.8860(3) -0.7061(6) 0.70033(16)
O3C_2 O 0.6122(3) -1.0364(5) 0.61484(17)
O4E O 0.7836(3) -1.0344(4) 0.48136(15)
O5A O 0.5682(3) -0.7754(5) 0.52578(15)
O5G O 0.9318(3) -0.7246(5) 0.47422(15)
O6C_2 O 0.8550(3) -1.1614(5) 0.67837(15)
O7A O 1.0731(3) -0.8636(5) 0.58952(15)
H1B H 0.396(5) -0.415(8) 0.938(3)
H1A H 1.104(5) -0.915(8) 0.562(3)
O8 O 0.5000 0.1546(6) 0.7500
H2 H 0.539(5) 0.210(8) 0.769(3)
H2A H 0.461(5) 0.210(8) 0.731(3)
loop_
_geom_bond_atom_site_label_1
_geom_bond_atom_site_label_2
_geom_bond_site_symmetry_1
_geom_bond_site_symmetry_2
Cs1 O1 1_555 1_555
O1 C1 1_555 1_555
O2 C2 1_555 1_555
O3 C3 1_555 1_555
O4 Cs1 1_555 1_555
O5 C7 1_555 1_555
O6 C8 1_555 1_555
O7 H1 1_555 1_555
O8 H2 1_555 1_555
N1 H3 1_555 1_555
N2 H4 1_555 1_555
N3 H5 1_555 1_555
N4 H6 1_555 1_555
C1 N1 1_555 1_555
C2 N1 1_555 1_555
C3 N2 1_555 1_555
C4 O7 1_555 1_555
C5 C4 1_555 1_555
C6 O4 1_555 1_555
C7 N3 1_555 1_555
C8 N4 1_555 1_555
H2A O8 1_555 1_555
O1C C1C 1_555 1_555
O2C Cs1 1_555 1_555
O3C C3C 1_555 1_555
O4C C6C 1_555 1_555
O5C C7C 1_555 1_555
O6C C8C 1_555 1_555
O7C H1C 1_555 1_555
N1C H3C 1_555 1_555
N2C H4C 1_555 1_555
N3C H5C 1_555 1_555
N4C H6C 1_555 1_555
C1C N1C 1_555 1_555
C2C O2C 1_555 1_555
C3C N2C 1_555 1_555
C4C O7C 1_555 1_555
C5C C4C 1_555 1_555
C6C N3C 1_555 1_555
C7C N3C 1_555 1_555
C8C N4C 1_555 1_555
Cs1C O1C 1_555 1_555
Cs1F O4 1_555 1_555
O3_2 Cs1 1_555 1_555
O4F Cs1 1_555 1_555
O5B Cs1 1_555 1_555
O5D Cs1 1_555 1_555
O6_2 Cs1 1_555 1_555
O7B Cs1 1_555 1_555
Cs1C_2 O2 1_555 1_555
Cs1_2 O3 1_555 1_555
Cs1B O5 1_555 1_555
Cs1D O5 1_555 1_555
Cs1B_2 O7 1_555 1_555
Cs1E O4C 1_555 1_555
Cs1A O5C 1_555 1_555
Cs1G O5C 1_555 1_555
Cs1A_2 O7C 1_555 1_555
O2_2 Cs1C 1_555 1_555
O3C_2 Cs1C 1_555 1_555
O4E Cs1C 1_555 1_555
O5A Cs1C 1_555 1_555
O5G Cs1C 1_555 1_555
O6C_2 Cs1C 1_555 1_555
O7A Cs1C 1_555 1_555
H1B O7B 1_555 1_555
H1A O7A 1_555 1_555
O6 Cs1_2 1_555 1_555
N2 C2 1_555 1_555
N3 C6 1_555 1_555
N4 C7 1_555 1_555
C1 C4 1_555 1_555
C3 C4 1_555 1_555
C5 C6 1_555 1_555
C5 C8 1_555 1_555
O3C Cs1C_2 1_555 1_555
O4C Cs1C 1_555 1_555
O6C Cs1C_2 1_555 1_555
N1C C2C 1_555 1_555
N2C C2C 1_555 1_555
N4C C7C 1_555 1_555
C1C C4C 1_555 1_555
C3C C4C 1_555 1_555
C5C C6C 1_555 1_555
C5C C8C 1_555 1_555
Cs1F O4F 1_555 1_555
Cs1F O5B 1_555 1_555
Cs1F O5D 1_555 1_555
Cs1E O4E 1_555 1_555
Cs1E O5A 1_555 1_555
Cs1E O5G 1_555 1_555

#END
