
#######################################################################
#
#                 Cambridge Crystallographic Data Centre
#                                CCDC 
#
#######################################################################
#
# If this CIF has been generated from an entry in the Cambridge 
# Structural Database, then it will include bibliographic, chemical, 
# crystal, experimental, refinement or atomic coordinate data resulting 
# from the CCDC's data processing and validation procedures.
#
#######################################################################

data_LAVYIQ
_symmetry_cell_setting           monoclinic
_symmetry_space_group_name_H-M   'P 21/m'
_symmetry_Int_Tables_number      11
_space_group_name_Hall           '-P 2yb'
loop_
_symmetry_equiv_pos_site_id
_symmetry_equiv_pos_as_xyz
1 x,y,z
2 x,1/2-y,z
3 -x,-y,-z
4 -x,1/2+y,-z
_cell_length_a                   9.347(2)
_cell_length_b                   18.114(3)
_cell_length_c                   9.917(3)
_cell_angle_alpha                90
_cell_angle_beta                 108.53(2)
_cell_angle_gamma                90
_cell_volume                     1592.02
loop_
_atom_site_label
_atom_site_type_symbol
_atom_site_fract_x
_atom_site_fract_y
_atom_site_fract_z
Rh1 Rh 0.26239(5) 0.2500 0.95406(6)
N1 N 0.4306(4) 0.1696(2) 0.9675(5)
C1 C 0.4653(6) 0.1526(4) 0.8511(6)
C2 C 0.5886(6) 0.1097(4) 0.8562(6)
C3 C 0.6791(5) 0.0817(3) 0.9827(6)
C4 C 0.6387(7) 0.0975(4) 1.1023(7)
C5 C 0.5148(6) 0.1410(4) 1.0899(6)
C6 C 0.8136(6) 0.0425(3) 0.9920(7)
C7 C 0.9322(6) 0.0154(3) 0.9965(7)
C8 C 0.0860(6) 0.1719(3) 0.8647(8)
C9 C -0.0457(8) 0.2104(5) 0.760(1)
C10 C 0.1198(6) 0.1734(3) 1.0100(8)
C11 C 0.0246(10) 0.2119(4) 1.086(1)
H1 H 0.4032 0.1708 0.7614
H2 H 0.6115 0.0999 0.7711
H3 H 0.6978 0.0793 1.1932
H4 H 0.4882 0.1505 1.1733
H5 H 0.1178 0.1283 0.8292
H6 H -0.0441 0.1929 0.6665
H7 H -0.1332 0.1929 0.7744
H8 H 0.1699 0.1304 1.0572
H9 H 0.0594 0.1930 1.1832
H10 H -0.0769 0.1930 1.0443
C7B C 1.0678(6) -0.0154(3) 1.0035(7)
C6B C 1.1864(6) -0.0425(3) 1.0080(7)
C3B C 1.3209(5) -0.0817(3) 1.0173(6)
C2B C 1.4114(6) -0.1097(4) 1.1438(6)
C1B C 1.5347(6) -0.1526(4) 1.1489(6)
N1B N 1.5694(4) -0.1696(2) 1.0325(5)
Rh1B Rh 1.73761(5) -0.2500 1.04594(6)
C5B C 1.4852(6) -0.1410(4) 0.9101(6)
C4B C 1.3613(7) -0.0975(4) 0.8977(7)
H3B H 1.3022 -0.0793 0.8068
H4B H 1.5118 -0.1505 0.8267
H1B H 1.5968 -0.1708 1.2386
H2B H 1.3885 -0.0999 1.2289
N1A N 0.4306(4) 0.3304(2) 0.9675(5)
C8A C 0.0860(6) 0.3281(3) 0.8647(8)
C10A C 0.1198(6) 0.3266(3) 1.0100(8)
C9A C -0.0457(8) 0.2896(5) 0.760(1)
H6A H -0.0441 0.3071 0.6665
H7A H -0.1332 0.3071 0.7744
C11A C 0.0246(10) 0.2881(4) 1.086(1)
H8A H 0.1699 0.3696 1.0572
H5A H 0.1178 0.3717 0.8292
H9A H 0.0594 0.3070 1.1832
H10A H -0.0769 0.3070 1.0443
P1 P 0.4922(3) 0.2500 1.4712(3)
F1 F 0.495(1) 0.1697(5) 1.481(2)
F2 F 0.3526(7) 0.2500 1.5271(7)
F3 F 0.5940(9) 0.2500 1.6231(8)
F4 F 0.6277(9) 0.2500 1.4145(9)
F5 F 0.3933(9) 0.2500 1.3257(7)
F1A F 0.495(1) 0.3303(5) 1.481(2)
O1 O 0.1955(10) 0.0314(4) 0.6353(8)
C12 C 0.255(3) -0.001(1) 0.438(2)
C13 C 0.187(1) 0.0407(7) 0.517(1)
C14 C 0.094(2) 0.1006(8) 0.440(2)
H11 H 0.2158 -0.0537 0.4307
H12 H 0.2310 0.0136 0.3395
H13 H 0.3602 -0.0053 0.4779
H14 H 0.1299 0.1478 0.4813
H15 H 0.0952 0.1034 0.3408
H16 H -0.0089 0.0957 0.4346
loop_
_geom_bond_atom_site_label_1
_geom_bond_atom_site_label_2
_geom_bond_site_symmetry_1
_geom_bond_site_symmetry_2
Rh1 N1 1_555 1_555
P1 F1 1_555 1_555
F2 P1 1_555 1_555
F3 P1 1_555 1_555
F4 P1 1_555 1_555
F5 P1 1_555 1_555
O1 C13 1_555 1_555
N1 C1 1_555 1_555
C1 C2 1_555 1_555
C2 C3 1_555 1_555
C3 C4 1_555 1_555
C4 C5 1_555 1_555
C5 N1 1_555 1_555
C6 C3 1_555 1_555
C7 C6 1_555 1_555
C8 Rh1 1_555 1_555
C9 C8 1_555 1_555
C10 Rh1 1_555 1_555
C11 C10 1_555 1_555
C12 C13 1_555 1_555
C13 C14 1_555 1_555
C14 H14 1_555 1_555
H1 C1 1_555 1_555
H2 C2 1_555 1_555
H3 C4 1_555 1_555
H4 C5 1_555 1_555
H5 C8 1_555 1_555
H6 C9 1_555 1_555
H7 C9 1_555 1_555
H8 C10 1_555 1_555
H9 C11 1_555 1_555
H10 C11 1_555 1_555
H11 C12 1_555 1_555
H12 C12 1_555 1_555
H13 C12 1_555 1_555
H15 C14 1_555 1_555
H16 C14 1_555 1_555
C7B C7 1_555 1_555
C6B C7B 1_555 1_555
C3B C6B 1_555 1_555
C2B C3B 1_555 1_555
C1B C2B 1_555 1_555
N1B C1B 1_555 1_555
Rh1B N1B 1_555 1_555
C5B N1B 1_555 1_555
C4B C3B 1_555 1_555
H3B C4B 1_555 1_555
H4B C5B 1_555 1_555
H1B C1B 1_555 1_555
H2B C2B 1_555 1_555
N1A Rh1 1_555 1_555
C8A Rh1 1_555 1_555
C10A Rh1 1_555 1_555
F1A P1 1_555 1_555
C9A C9 1_555 1_555
H6A C9A 1_555 1_555
H7A C9A 1_555 1_555
C11A C11 1_555 1_555
H8A C10A 1_555 1_555
H5A C8A 1_555 1_555
H9A C11A 1_555 1_555
H10A C11A 1_555 1_555
C8 C10 1_555 1_555
C5B C4B 1_555 1_555
C8A C9A 1_555 1_555
C8A C10A 1_555 1_555
C10A C11A 1_555 1_555

#END
