
#######################################################################
#
#                 Cambridge Crystallographic Data Centre
#                                CCDC 
#
#######################################################################
#
# If this CIF has been generated from an entry in the Cambridge 
# Structural Database, then it will include bibliographic, chemical, 
# crystal, experimental, refinement or atomic coordinate data resulting 
# from the CCDC's data processing and validation procedures.
#
#######################################################################

data_LAVYEN01
_symmetry_cell_setting           monoclinic
_symmetry_space_group_name_H-M   'P 21/c'
_symmetry_Int_Tables_number      14
_space_group_name_Hall           '-P 2ybc'
loop_
_symmetry_equiv_pos_site_id
_symmetry_equiv_pos_as_xyz
1 x,y,z
2 -x,1/2+y,1/2-z
3 -x,-y,-z
4 x,1/2-y,1/2+z
_cell_length_a                   7.456(3)
_cell_length_b                   9.972(3)
_cell_length_c                   10.391(3)
_cell_angle_alpha                90
_cell_angle_beta                 106.435(2)
_cell_angle_gamma                90
_cell_volume                     741.017
loop_
_atom_site_label
_atom_site_type_symbol
_atom_site_fract_x
_atom_site_fract_y
_atom_site_fract_z
Co1 Co 0.0000 -0.5000 -0.5000
N1 N 0.0977(2) -0.29464(16) -0.52260(15)
H1 H 0.1672 -0.3497 -0.5506
H2 H -0.0206 -0.2918 -0.5613
N2 N 0.0367(2) 0.05163(16) -0.20210(15)
H3 H -0.0886 -0.3999 -0.3668
H4 H 0.0823 -0.4442 -0.2621
O1 O 0.7530(2) -0.21829(18) -0.22497(18)
O2 O 0.72721(18) -0.05137(15) -0.08758(14)
C1 C 0.0662(2) -0.11960(19) -0.36561(18)
H5 H -0.0620 -0.1162 -0.4063
C2 C 0.1782(3) -0.20855(18) -0.41267(18)
C3 C 0.3697(3) -0.2143(2) -0.3511(2)
H6 H 0.4437 -0.2746 -0.3816
C4 C 0.6607(3) -0.1352(2) -0.1802(2)
C5 C 0.1481(3) -0.03599(19) -0.25718(18)
C6 C 0.4506(2) -0.12960(19) -0.24378(19)
C7 C -0.3404(3) -0.54013(19) -0.30345(18)
H7 H -0.3947 -0.4835 -0.3750
Co1C Co 0.0000 0.0000 0.0000
Co1C_2 Co 0.0000 -1.0000 0.0000
Co1_2 Co -1.0000 -0.5000 -0.5000
Co1C_3 Co 1.0000 0.0000 0.0000
N1A N -0.0977(2) -0.79464(16) 0.02260(15)
N1B N -0.0977(2) -0.70536(16) -0.47740(15)
H1A H -0.1672 -0.8497 0.0506
H1B H -0.1672 -0.6503 -0.4494
H2A H 0.0206 -0.7918 0.0613
H2B H 0.0206 -0.7082 -0.4387
N2C N 0.0367(2) -0.55163(16) -0.70210(15)
N2A N -0.0367(2) -0.44837(16) -0.29790(15)
H3B H 0.0886 -0.6001 -0.6332
H3A H 0.0886 0.1001 -0.1332
H4B H -0.0823 -0.5558 -0.7379
H4A H -0.0823 0.0558 -0.2379
O1A O -0.7530(2) -0.71829(18) -0.27503(18)
O2A O 0.27279(18) -0.55137(15) -0.41242(14)
O2C O -0.27279(18) -0.44863(15) -0.58758(14)
O2A_2 O -0.72721(18) -0.55137(15) -0.41242(14)
C1A C -0.0662(2) -0.61960(19) -0.13439(18)
H5A H 0.0620 -0.6162 -0.0937
C2A C -0.1782(3) -0.70855(18) -0.08733(18)
C3A C -0.3697(3) -0.7143(2) -0.1489(2)
H6A H -0.4437 -0.7746 -0.1184
C4A C -0.6607(3) -0.6352(2) -0.3198(2)
C5A C -0.1481(3) -0.53599(19) -0.24282(18)
C6A C -0.4506(2) -0.62960(19) -0.25622(19)
C7A C 0.3404(3) -0.04013(19) -0.19655(18)
H7A H 0.3947 0.0165 -0.1250
O3 O -0.6326(10) -0.0846(8) -0.6141(6)
H8 H -0.519(4) -0.094(8) -0.569(7)
loop_
_geom_bond_atom_site_label_1
_geom_bond_atom_site_label_2
_geom_bond_site_symmetry_1
_geom_bond_site_symmetry_2
Co1 N1 1_555 1_555
N1 H1 1_555 1_555
H2 N1 1_555 1_555
N2 C5 1_555 1_555
H3 N2A 1_555 1_555
H4 N2A 1_555 1_555
O1 C4 1_555 1_555
O2 C4 1_555 1_555
C1 H5 1_555 1_555
C2 N1 1_555 1_555
C3 C2 1_555 1_555
H6 C3 1_555 1_555
C4 C6 1_555 1_555
C5 C1 1_555 1_555
C6 C3 1_555 1_555
C7 H7 1_555 1_555
O3 H8 1_555 1_555
Co1C N2 1_555 1_555
Co1C_2 N1A 1_555 1_555
Co1_2 O2A_2 1_555 1_555
Co1C_3 O2 1_555 1_555
N1A H1A 1_555 1_555
N1B Co1 1_555 1_555
H1B N1B 1_555 1_555
H2A N1A 1_555 1_555
H2B N1B 1_555 1_555
N2C Co1 1_555 1_555
N2A Co1 1_555 1_555
H3B N2C 1_555 1_555
H3A N2 1_555 1_555
H4B N2C 1_555 1_555
H4A N2 1_555 1_555
O1A C4A 1_555 1_555
O2A Co1 1_555 1_555
O2C Co1 1_555 1_555
O2A_2 C4A 1_555 1_555
C1A H5A 1_555 1_555
C2A N1A 1_555 1_555
C3A C2A 1_555 1_555
H6A C3A 1_555 1_555
C4A C6A 1_555 1_555
C5A C7 1_555 1_555
C6A C7 1_555 1_555
C7A C5 1_555 1_555
H7A C7A 1_555 1_555
C1 C2 1_555 1_555
C6 C7A 1_555 1_555
N2A C5A 1_555 1_555
C1A C2A 1_555 1_555
C1A C5A 1_555 1_555
C3A C6A 1_555 1_555

#END
