
#######################################################################
#
#                 Cambridge Crystallographic Data Centre
#                                CCDC 
#
#######################################################################
#
# If this CIF has been generated from an entry in the Cambridge 
# Structural Database, then it will include bibliographic, chemical, 
# crystal, experimental, refinement or atomic coordinate data resulting 
# from the CCDC's data processing and validation procedures.
#
#######################################################################

data_LAVYEN
_symmetry_cell_setting           monoclinic
_symmetry_space_group_name_H-M   'P 21/c'
_symmetry_Int_Tables_number      14
_space_group_name_Hall           '-P 2ybc'
loop_
_symmetry_equiv_pos_site_id
_symmetry_equiv_pos_as_xyz
1 x,y,z
2 -x,1/2+y,1/2-z
3 -x,-y,-z
4 x,1/2-y,1/2+z
_cell_length_a                   7.4666(6)
_cell_length_b                   10.0219(8)
_cell_length_c                   10.3856(8)
_cell_angle_alpha                90
_cell_angle_beta                 106.4440(10)
_cell_angle_gamma                90
_cell_volume                     745.362
loop_
_atom_site_label
_atom_site_type_symbol
_atom_site_fract_x
_atom_site_fract_y
_atom_site_fract_z
Co1 Co -1.0000 0.0000 0.0000
O1 O -0.72785(16) 0.05111(14) 0.08842(13)
O2 O -0.75250(19) 0.21828(18) 0.22328(18)
N1 N -0.09902(19) 0.29567(14) 0.52129(13)
H1 H -0.0010 0.2517 0.5749
H2 H -0.1837 0.3034 0.5677
N2 N -0.03855(19) -0.05083(14) 0.20216(14)
H3 H -0.0894 -0.1328 0.1962
H4 H 0.0755 -0.0559 0.2615
C1 C -0.6606(2) 0.13543(18) 0.18033(17)
C2 C -0.4515(2) 0.13008(17) 0.24332(17)
C3 C -0.3707(2) 0.21441(18) 0.35034(18)
H5 H -0.4444 0.2745 0.3808
C4 C -0.1794(2) 0.20865(16) 0.41162(16)
C5 C -0.0683(2) 0.12022(16) 0.36489(15)
H6 H 0.0598 0.1170 0.4054
C6 C -0.1498(2) 0.03658(16) 0.25718(16)
C7 C -0.3417(2) 0.04102(17) 0.19662(16)
H7 H -0.3961 -0.0154 0.1252
Co1C Co 0.0000 0.5000 0.5000
Co1_2 Co 0.0000 0.0000 0.0000
Co1_3 Co -2.0000 0.0000 0.0000
Co1C_2 Co -2.0000 -0.5000 -0.5000
O1B O -1.27215(16) -0.05111(14) -0.08842(13)
O2B O -1.24750(19) -0.21828(18) -0.22328(18)
N1C N -1.09902(19) 0.20433(14) 0.02129(13)
N1A N -0.90098(19) -0.20433(14) -0.02129(13)
N1B N -1.90098(19) -0.29567(14) -0.52129(13)
H1A H -0.9990 -0.2483 -0.0749
H1C H -1.0010 0.2483 0.0749
H1B H -1.9990 -0.2517 -0.5749
H2A H -0.8163 -0.1966 -0.0677
H2C H -1.1837 0.1966 0.0677
H2B H -1.8163 -0.3034 -0.5677
N2B N -0.96145(19) 0.05083(14) -0.20216(14)
N2_2 N -1.03855(19) -0.05083(14) 0.20216(14)
N2B_2 N -1.96145(19) 0.05083(14) -0.20216(14)
H3B H -0.9106 0.1328 -0.1962
H3_2 H -1.0894 -0.1328 0.1962
H3B_2 H -1.9106 0.1328 -0.1962
H4B H -1.0755 0.0559 -0.2615
H4_2 H -0.9245 -0.0559 0.2615
H4B_2 H -2.0755 0.0559 -0.2615
C1B C -1.3394(2) -0.13543(18) -0.18033(17)
C2B C -1.5485(2) -0.13008(17) -0.24332(17)
C3B C -1.6293(2) -0.21441(18) -0.35034(18)
H5B H -1.5556 -0.2745 -0.3808
C4B C -1.8206(2) -0.20865(16) -0.41162(16)
C5B C -1.9317(2) -0.12022(16) -0.36489(15)
H6B H -2.0598 -0.1170 -0.4054
C6B C -1.8502(2) -0.03658(16) -0.25718(16)
C7B C -1.6583(2) -0.04102(17) -0.19662(16)
H7B H -1.6039 0.0154 -0.1252
O3 O -0.6255(11) 0.9194(9) 0.3907(7)
H8 H -0.5359 0.9080 0.4638
H9 H -0.5791 0.9342 0.3261
loop_
_geom_bond_atom_site_label_1
_geom_bond_atom_site_label_2
_geom_bond_site_symmetry_1
_geom_bond_site_symmetry_2
Co1 O1 1_555 1_555
O1 C1 1_555 1_555
O2 C1 1_555 1_555
N1 H1 1_555 1_555
H2 N1 1_555 1_555
N2 H3 1_555 1_555
H4 N2 1_555 1_555
C1 C2 1_555 1_555
C2 C3 1_555 1_555
C3 H5 1_555 1_555
C4 N1 1_555 1_555
C5 C4 1_555 1_555
H6 C5 1_555 1_555
C6 N2 1_555 1_555
C7 C2 1_555 1_555
H7 C7 1_555 1_555
O3 H8 1_555 1_555
H9 O3 1_555 1_555
Co1C N1 1_555 1_555
Co1_2 N2 1_555 1_555
Co1_3 N2B_2 1_555 1_555
Co1C_2 N1B 1_555 1_555
O1B Co1 1_555 1_555
O2B C1B 1_555 1_555
N1C Co1 1_555 1_555
N1A Co1 1_555 1_555
N1B H1B 1_555 1_555
H1A N1A 1_555 1_555
H1C N1C 1_555 1_555
H2A N1A 1_555 1_555
H2C N1C 1_555 1_555
H2B N1B 1_555 1_555
N2B Co1 1_555 1_555
N2_2 Co1 1_555 1_555
N2B_2 H3B_2 1_555 1_555
H3B N2B 1_555 1_555
H3_2 N2_2 1_555 1_555
H4B N2B 1_555 1_555
H4_2 N2_2 1_555 1_555
H4B_2 N2B_2 1_555 1_555
C1B O1B 1_555 1_555
C2B C1B 1_555 1_555
C3B C2B 1_555 1_555
H5B C3B 1_555 1_555
C4B N1B 1_555 1_555
C5B C4B 1_555 1_555
H6B C5B 1_555 1_555
C6B N2B_2 1_555 1_555
C7B C2B 1_555 1_555
H7B C7B 1_555 1_555
C3 C4 1_555 1_555
C5 C6 1_555 1_555
C6 C7 1_555 1_555
C3B C4B 1_555 1_555
C5B C6B 1_555 1_555
C6B C7B 1_555 1_555

#END
