
#######################################################################
#
#                 Cambridge Crystallographic Data Centre
#                                CCDC 
#
#######################################################################
#
# If this CIF has been generated from an entry in the Cambridge 
# Structural Database, then it will include bibliographic, chemical, 
# crystal, experimental, refinement or atomic coordinate data resulting 
# from the CCDC's data processing and validation procedures.
#
#######################################################################

data_LAVYIR
_symmetry_cell_setting           orthorhombic
_symmetry_space_group_name_H-M   'P b c a'
_symmetry_Int_Tables_number      61
_space_group_name_Hall           '-P 2ac 2ab'
loop_
_symmetry_equiv_pos_site_id
_symmetry_equiv_pos_as_xyz
1 x,y,z
2 1/2-x,-y,1/2+z
3 1/2+x,1/2-y,-z
4 -x,1/2+y,1/2-z
5 -x,-y,-z
6 1/2+x,y,1/2-z
7 1/2-x,1/2+y,z
8 x,1/2-y,1/2+z
_cell_length_a                   7.9240(10)
_cell_length_b                   13.578(2)
_cell_length_c                   25.003(3)
_cell_angle_alpha                90
_cell_angle_beta                 90
_cell_angle_gamma                90
_cell_volume                     2690.12
loop_
_atom_site_label
_atom_site_type_symbol
_atom_site_fract_x
_atom_site_fract_y
_atom_site_fract_z
Zn1 Zn 0.60168(8) 0.46439(5) 0.25357(3)
Br1 Br 0.96450(10) 0.13674(5) 0.04699(3)
Cl1 Cl 0.39733(17) 0.57988(10) 0.24143(6)
O1 O 0.6148(5) 0.4460(3) 0.17850(15)
N1 N 0.7257(6) 0.3425(3) 0.26823(17)
N2 N 0.5993(6) 0.4755(3) 0.33357(19)
C1 C 0.7756(6) 0.2948(4) 0.1770(2)
C2 C 0.6916(7) 0.3762(4) 0.1526(2)
C3 C 0.6902(8) 0.3789(5) 0.0965(3)
H1 H 0.6353 0.4306 0.0794
C4 C 0.7667(8) 0.3085(5) 0.0664(3)
H2 H 0.7641 0.3130 0.0293
C5 C 0.8486(7) 0.2298(4) 0.0907(2)
C6 C 0.8523(7) 0.2222(4) 0.1443(2)
H3 H 0.9059 0.1687 0.1601
C7 C 0.7897(6) 0.2847(4) 0.2335(2)
H4 H 0.8511 0.2312 0.2462
C8 C 0.7512(7) 0.3211(4) 0.3247(2)
H5 H 0.8706 0.3118 0.3316
H6 H 0.6934 0.2604 0.3338
C9 C 0.6859(7) 0.4028(4) 0.3589(2)
C10 C 0.7116(8) 0.4059(5) 0.4140(2)
H7 H 0.7718 0.3562 0.4310
C11 C 0.6475(9) 0.4829(6) 0.4429(3)
H8 H 0.6636 0.4857 0.4797
C12 C 0.5594(9) 0.5558(5) 0.4172(3)
H9 H 0.5149 0.6087 0.4362
C13 C 0.5384(8) 0.5491(4) 0.3632(3)
H10 H 0.4782 0.5987 0.3461
Zn1E Zn 0.10168(8) 0.46439(5) 0.24643(3)
Cl1E Cl 0.89733(17) 0.57988(10) 0.25857(6)
loop_
_geom_bond_atom_site_label_1
_geom_bond_atom_site_label_2
_geom_bond_site_symmetry_1
_geom_bond_site_symmetry_2
Zn1 Cl1 1_555 1_555
Br1 C5 1_555 1_555
Cl1 Zn1E 1_555 1_555
O1 Zn1 1_555 1_555
N1 Zn1 1_555 1_555
N2 Zn1 1_555 1_555
C1 C2 1_555 1_555
C2 O1 1_555 1_555
C3 C2 1_555 1_555
H1 C3 1_555 1_555
C4 C3 1_555 1_555
H2 C4 1_555 1_555
C5 C4 1_555 1_555
C6 C1 1_555 1_555
H3 C6 1_555 1_555
C7 N1 1_555 1_555
H4 C7 1_555 1_555
C8 N1 1_555 1_555
H5 C8 1_555 1_555
H6 C8 1_555 1_555
C9 N2 1_555 1_555
C10 C9 1_555 1_555
H7 C10 1_555 1_555
C11 C10 1_555 1_555
H8 C11 1_555 1_555
C12 C11 1_555 1_555
H9 C12 1_555 1_555
C13 N2 1_555 1_555
H10 C13 1_555 1_555
Cl1E Zn1 1_555 1_555
C1 C7 1_555 1_555
C5 C6 1_555 1_555
C8 C9 1_555 1_555
C12 C13 1_555 1_555

#END
