
#######################################################################
#
#                 Cambridge Crystallographic Data Centre
#                                CCDC 
#
#######################################################################
#
# If this CIF has been generated from an entry in the Cambridge 
# Structural Database, then it will include bibliographic, chemical, 
# crystal, experimental, refinement or atomic coordinate data resulting 
# from the CCDC's data processing and validation procedures.
#
#######################################################################

data_LAWFAR
_symmetry_cell_setting           monoclinic
_symmetry_space_group_name_H-M   'P 21/n'
_symmetry_Int_Tables_number      14
_space_group_name_Hall           '-P 2yn'
loop_
_symmetry_equiv_pos_site_id
_symmetry_equiv_pos_as_xyz
1 x,y,z
2 1/2-x,1/2+y,1/2-z
3 -x,-y,-z
4 1/2+x,1/2-y,1/2+z
_cell_length_a                   11.021(4)
_cell_length_b                   13.262(5)
_cell_length_c                   12.243(4)
_cell_angle_alpha                90
_cell_angle_beta                 94.190(5)
_cell_angle_gamma                90
_cell_volume                     1784.66
loop_
_atom_site_label
_atom_site_type_symbol
_atom_site_fract_x
_atom_site_fract_y
_atom_site_fract_z
Rb1 Rb -0.15716(2) 0.016370(18) -0.894620(17)
N1 N -0.46472(16) 0.28259(14) -0.40920(14)
C1 C -0.37252(18) 0.20735(16) -0.12035(15)
N2 N -0.38844(17) 0.17073(16) -0.21784(14)
C2 C -0.18044(19) 0.07206(17) -0.41530(18)
C3 C -0.4538(2) 0.22182(18) 0.06388(17)
N3 N -0.55409(18) 0.11030(16) -0.06560(15)
C4 C -0.22801(18) 0.09340(17) -0.31710(16)
C5 C -0.45762(19) 0.18287(17) -0.03965(16)
N4 N -0.18417(18) 0.09456(16) -0.61359(16)
N5 N -0.18760(18) 0.31520(15) -0.14638(16)
C6 C -0.2724(2) 0.31333(18) 0.02694(18)
C7 C -0.28003(19) 0.27710(17) -0.07787(16)
C8 C -0.32852(18) 0.15954(16) -0.30605(16)
O1 O -0.25936(19) 0.37081(18) 0.23872(16)
O2 O -0.0993(2) -0.02489(19) -0.23676(19)
N6 N -0.16789(18) 0.04436(16) -0.22167(16)
O3 O -0.2088(2) 0.31941(18) -0.24490(15)
O4 O -0.09252(19) 0.3438(2) -0.10186(19)
C9 C -0.3599(2) 0.28628(18) 0.09697(17)
O5 O -0.46174(19) 0.34976(14) -0.47759(14)
O6 O -0.43932(19) 0.31698(17) 0.26153(14)
O7 O -0.0999(2) 0.0357(2) -0.61561(19)
O8 O -0.54288(17) 0.27773(15) -0.34480(16)
O9 O -0.53648(19) 0.03909(15) -0.12473(16)
N7 N -0.35247(19) 0.32686(17) 0.20573(15)
O10 O -0.2335(2) 0.13233(17) -0.69568(14)
O11 O -0.64947(17) 0.12244(19) -0.02234(18)
C10 C -0.23022(19) 0.11843(17) -0.50879(16)
O12 O -0.1849(2) 0.07505(18) -0.13187(15)
C11 C -0.32307(19) 0.18760(16) -0.50547(16)
C12 C -0.36975(18) 0.20602(15) -0.40741(16)
H1 H -0.352(2) 0.219(2) -0.562(2)
H2 H -0.511(3) 0.203(2) 0.111(2)
H3 H -0.108(3) 0.025(2) -0.417(3)
H4 H -0.213(2) 0.355(2) 0.050(2)
Rb1B Rb 0.15716(2) -0.016370(18) -0.105380(17)
Rb1_2 Rb -0.15716(2) 0.016370(18) 0.105380(17)
Rb1C Rb -0.65716(2) 0.483630(18) -0.394620(17)
Rb1A Rb -0.34284(2) 0.516370(18) -0.605380(17)
Rb1B_2 Rb -0.84284(2) -0.016370(18) -0.105380(17)
Rb1A_2 Rb -0.34284(2) 0.516370(18) 0.394620(17)
O1A O -0.24064(19) -0.12919(18) -0.73872(16)
O2B O 0.0993(2) 0.02489(19) -0.76324(19)
O5A O -0.03826(19) -0.15024(14) -1.02241(14)
O5C O 0.03826(19) 0.15024(14) -0.97759(14)
O8C O -0.04288(17) 0.22227(15) -0.84480(16)
O11B O -0.35053(17) -0.12244(19) -0.97766(18)
O12_2 O -0.1849(2) 0.07505(18) -1.13187(15)
O13 O -0.0624(3) -0.5200(3) -0.8809(3)
loop_
_geom_bond_atom_site_label_1
_geom_bond_atom_site_label_2
_geom_bond_site_symmetry_1
_geom_bond_site_symmetry_2
Rb1 O10 1_555 1_555
N1 O5 1_555 1_555
C1 N2 1_555 1_555
N2 C8 1_555 1_555
C2 C4 1_555 1_555
C3 C5 1_555 1_555
N3 C5 1_555 1_555
C4 C8 1_555 1_555
C5 C1 1_555 1_555
N4 O7 1_555 1_555
N5 C7 1_555 1_555
C6 C7 1_555 1_555
C7 C1 1_555 1_555
C8 C12 1_555 1_555
O1 N7 1_555 1_555
O2 N6 1_555 1_555
N6 C4 1_555 1_555
O3 N5 1_555 1_555
O4 N5 1_555 1_555
C9 C3 1_555 1_555
O5 Rb1C 1_555 1_555
O6 N7 1_555 1_555
O8 N1 1_555 1_555
O9 N3 1_555 1_555
N7 C9 1_555 1_555
O10 N4 1_555 1_555
O11 N3 1_555 1_555
C10 C2 1_555 1_555
O12 N6 1_555 1_555
C11 C10 1_555 1_555
C12 N1 1_555 1_555
H1 C11 1_555 1_555
H2 C3 1_555 1_555
H3 C2 1_555 1_555
H4 C6 1_555 1_555
Rb1B O2 1_555 1_555
Rb1_2 O12 1_555 1_555
Rb1C O8 1_555 1_555
Rb1A O5 1_555 1_555
Rb1B_2 O11 1_555 1_555
Rb1A_2 O1 1_555 1_555
O1A Rb1 1_555 1_555
O2B Rb1 1_555 1_555
O5A Rb1 1_555 1_555
O5C Rb1 1_555 1_555
O8C Rb1 1_555 1_555
O11B Rb1 1_555 1_555
O12_2 Rb1 1_555 1_555
N4 C10 1_555 1_555
C6 C9 1_555 1_555
C11 C12 1_555 1_555

#END
