
#######################################################################
#
#                 Cambridge Crystallographic Data Centre
#                                CCDC 
#
#######################################################################
#
# If this CIF has been generated from an entry in the Cambridge 
# Structural Database, then it will include bibliographic, chemical, 
# crystal, experimental, refinement or atomic coordinate data resulting 
# from the CCDC's data processing and validation procedures.
#
#######################################################################

data_LAWJID
_symmetry_cell_setting           monoclinic
_symmetry_space_group_name_H-M   'P 21/c'
_symmetry_Int_Tables_number      14
_space_group_name_Hall           '-P 2ybc'
loop_
_symmetry_equiv_pos_site_id
_symmetry_equiv_pos_as_xyz
1 x,y,z
2 -x,1/2+y,1/2-z
3 -x,-y,-z
4 x,1/2-y,1/2+z
_cell_length_a                   8.5646(5)
_cell_length_b                   23.7881(13)
_cell_length_c                   10.3148(6)
_cell_angle_alpha                90
_cell_angle_beta                 90.7960(10)
_cell_angle_gamma                90
_cell_volume                     2101.29
loop_
_atom_site_label
_atom_site_type_symbol
_atom_site_fract_x
_atom_site_fract_y
_atom_site_fract_z
Cd1 Cd 0.0000 0.0000 0.5000
C1 C 0.2686(2) 0.04395(8) 0.29893(18)
H1 H 0.3395 0.0457 0.3704
C2 C 0.1727(2) 0.04885(9) 0.1006(2)
H2 H 0.1615 0.0543 0.0097
C3 C 0.0621(2) 0.03095(9) 0.18335(19)
H3 H -0.0422 0.0218 0.1591
C4 C 0.4528(2) 0.07772(8) 0.13214(18)
C5 C 0.5533(2) 0.10525(10) 0.21764(19)
H4 H 0.5248 0.1104 0.3055
C6 C 0.6947(2) 0.12519(10) 0.17470(19)
H5 H 0.7636 0.1435 0.2340
C7 C 0.7385(2) 0.11892(8) 0.04530(18)
C8 C 0.6366(2) 0.09065(8) -0.03804(17)
H6 H 0.6651 0.0851 -0.1258
C9 C 0.4947(2) 0.07038(9) 0.00408(17)
H7 H 0.4262 0.0515 -0.0546
C10 C 0.8882(2) 0.14298(8) -0.00053(18)
C11 C 0.9341(3) 0.13439(12) -0.1384(2)
H8 H 1.0415 0.1474 -0.1500
H9 H 0.8637 0.1558 -0.1955
H10 H 0.9270 0.0943 -0.1600
C12 C 1.1514(4) 0.20651(15) 0.2751(2)
H11 H 1.0840 0.2371 0.3042
H12 H 1.2485 0.2065 0.3265
H13 H 1.0976 0.1705 0.2862
C13 C 1.1883(2) 0.21466(8) 0.13544(18)
C14 C 1.3306(2) 0.24732(8) 0.10553(17)
C15 C 1.3594(2) 0.29739(9) 0.1714(2)
H14 H 1.2863 0.3104 0.2330
C16 C 1.4928(2) 0.32863(8) 0.14858(19)
H15 H 1.5108 0.3629 0.1937
C17 C 1.5992(2) 0.30946(8) 0.05961(18)
C18 C 1.5720(2) 0.26004(9) -0.0088(2)
H16 H 1.6447 0.2474 -0.0711
C19 C 1.4377(2) 0.22923(8) 0.01456(19)
H17 H 1.4188 0.1954 -0.0321
C20 C 1.7577(2) 0.39656(8) 0.04061(18)
H18 H 1.6741 0.4226 0.0475
C21 C 1.9873(2) 0.36141(9) 0.02358(19)
H19 H 2.0975 0.3586 0.0160
C22 C 1.8884(2) 0.31723(9) 0.0308(2)
H20 H 1.9148 0.2785 0.0289
N1 N 0.12192(18) 0.02787(7) 0.30727(15)
N2 N 0.30551(18) 0.05762(7) 0.17589(15)
N3 N 0.96746(19) 0.17027(7) 0.08458(15)
N4 N 1.10669(19) 0.19530(7) 0.04119(15)
N5 N 1.74100(18) 0.34008(7) 0.04161(15)
N6 N 1.90558(19) 0.41081(7) 0.02879(15)
N7 N 0.31342(18) 0.03608(7) 0.67758(15)
O1 O 0.2590(2) 0.01458(9) 0.57717(17)
O2 O 0.2230(2) 0.05685(9) 0.75654(17)
O3 O 0.45661(16) 0.03737(6) 0.69505(15)
Cd1C Cd 2.0000 0.5000 0.0000
Cd1C_2 Cd -2.0000 -0.5000 1.0000
C1B C -0.2686(2) -0.04395(8) 0.70107(18)
H1B H -0.3395 -0.0457 0.6296
C2B C -0.1727(2) -0.04885(9) 0.8994(2)
H2B H -0.1615 -0.0543 0.9903
C3B C -0.0621(2) -0.03095(9) 0.81665(19)
H3B H 0.0422 -0.0218 0.8409
C4B C -0.4528(2) -0.07772(8) 0.86786(18)
C5B C -0.5533(2) -0.10525(10) 0.78236(19)
H4B H -0.5248 -0.1104 0.6945
C6B C -0.6947(2) -0.12519(10) 0.82530(19)
H5B H -0.7636 -0.1435 0.7660
C7B C -0.7385(2) -0.11892(8) 0.95470(18)
C8B C -0.6366(2) -0.09065(8) 1.03804(17)
H6B H -0.6651 -0.0851 1.1258
C9B C -0.4947(2) -0.07038(9) 0.99592(17)
H7B H -0.4262 -0.0515 1.0546
C10B C -0.8882(2) -0.14298(8) 1.00053(18)
C11B C -0.9341(3) -0.13439(12) 1.1384(2)
H8B H -1.0415 -0.1474 1.1500
H9B H -0.8637 -0.1558 1.1955
H10B H -0.9270 -0.0943 1.1600
C12B C -1.1514(4) -0.20651(15) 0.7249(2)
H11B H -1.0840 -0.2371 0.6958
H12B H -1.2485 -0.2065 0.6735
H13B H -1.0976 -0.1705 0.7138
C13B C -1.1883(2) -0.21466(8) 0.86456(18)
C14B C -1.3306(2) -0.24732(8) 0.89447(17)
C15B C -1.3594(2) -0.29739(9) 0.8286(2)
H14B H -1.2863 -0.3104 0.7670
C16B C -1.4928(2) -0.32863(8) 0.85142(19)
H15B H -1.5108 -0.3629 0.8063
C17B C -1.5992(2) -0.30946(8) 0.94039(18)
C18B C -1.5720(2) -0.26004(9) 1.0088(2)
H16B H -1.6447 -0.2474 1.0711
C19B C -1.4377(2) -0.22923(8) 0.98544(19)
H17B H -1.4188 -0.1954 1.0321
C20B C -1.7577(2) -0.39656(8) 0.95939(18)
H18B H -1.6741 -0.4226 0.9525
C21B C -1.9873(2) -0.36141(9) 0.97642(19)
H19B H -2.0975 -0.3586 0.9840
C22B C -1.8884(2) -0.31723(9) 0.9692(2)
H20B H -1.9148 -0.2785 0.9711
N1B N -0.12192(18) -0.02787(7) 0.69273(15)
N2B N -0.30551(18) -0.05762(7) 0.82411(15)
N3B N -0.96746(19) -0.17027(7) 0.91542(15)
N4B N -1.10669(19) -0.19530(7) 0.95881(15)
N5B N -1.74100(18) -0.34008(7) 0.95839(15)
N6B N -1.90558(19) -0.41081(7) 0.97121(15)
N6C N -0.09442(19) 0.08919(7) 0.52879(15)
N6A N 0.09442(19) -0.08919(7) 0.47121(15)
N7B N -0.31342(18) -0.03608(7) 0.32242(15)
O1B O -0.2590(2) -0.01458(9) 0.42283(17)
O2B O -0.2230(2) -0.05685(9) 0.24346(17)
O3B O -0.45661(16) -0.03737(6) 0.30495(15)
loop_
_geom_bond_atom_site_label_1
_geom_bond_atom_site_label_2
_geom_bond_site_symmetry_1
_geom_bond_site_symmetry_2
Cd1 N1 1_555 1_555
C1 H1 1_555 1_555
C2 H2 1_555 1_555
C3 C2 1_555 1_555
H3 C3 1_555 1_555
C4 C5 1_555 1_555
C5 H4 1_555 1_555
C6 C5 1_555 1_555
H5 C6 1_555 1_555
C7 C6 1_555 1_555
C8 C7 1_555 1_555
H6 C8 1_555 1_555
C9 C4 1_555 1_555
H7 C9 1_555 1_555
C10 C7 1_555 1_555
C11 C10 1_555 1_555
H8 C11 1_555 1_555
H9 C11 1_555 1_555
H10 C11 1_555 1_555
C12 H11 1_555 1_555
H12 C12 1_555 1_555
H13 C12 1_555 1_555
C13 C12 1_555 1_555
C14 C13 1_555 1_555
C15 C14 1_555 1_555
H14 C15 1_555 1_555
C16 C15 1_555 1_555
H15 C16 1_555 1_555
C17 C16 1_555 1_555
C18 C17 1_555 1_555
H16 C18 1_555 1_555
C19 C14 1_555 1_555
H17 C19 1_555 1_555
C20 H18 1_555 1_555
C21 H19 1_555 1_555
C22 C21 1_555 1_555
H20 C22 1_555 1_555
N1 C1 1_555 1_555
N2 C1 1_555 1_555
N3 C10 1_555 1_555
N4 C13 1_555 1_555
N5 C17 1_555 1_555
N6 C20 1_555 1_555
N7 O1 1_555 1_555
O1 Cd1 1_555 1_555
O2 N7 1_555 1_555
O3 N7 1_555 1_555
Cd1C N6 1_555 1_555
Cd1C_2 N6B 1_555 1_555
C1B H1B 1_555 1_555
C2B H2B 1_555 1_555
C3B C2B 1_555 1_555
H3B C3B 1_555 1_555
C4B C5B 1_555 1_555
C5B H4B 1_555 1_555
C6B C5B 1_555 1_555
H5B C6B 1_555 1_555
C7B C6B 1_555 1_555
C8B C7B 1_555 1_555
H6B C8B 1_555 1_555
C9B C4B 1_555 1_555
H7B C9B 1_555 1_555
C10B C7B 1_555 1_555
C11B C10B 1_555 1_555
H8B C11B 1_555 1_555
H9B C11B 1_555 1_555
H10B C11B 1_555 1_555
C12B H11B 1_555 1_555
H12B C12B 1_555 1_555
H13B C12B 1_555 1_555
C13B C12B 1_555 1_555
C14B C13B 1_555 1_555
C15B C14B 1_555 1_555
H14B C15B 1_555 1_555
C16B C15B 1_555 1_555
H15B C16B 1_555 1_555
C17B C16B 1_555 1_555
C18B C17B 1_555 1_555
H16B C18B 1_555 1_555
C19B C14B 1_555 1_555
H17B C19B 1_555 1_555
C20B H18B 1_555 1_555
C21B H19B 1_555 1_555
C22B C21B 1_555 1_555
H20B C22B 1_555 1_555
N1B Cd1 1_555 1_555
N2B C1B 1_555 1_555
N3B C10B 1_555 1_555
N4B C13B 1_555 1_555
N5B C17B 1_555 1_555
N6B C20B 1_555 1_555
N6C Cd1 1_555 1_555
N6A Cd1 1_555 1_555
N7B O1B 1_555 1_555
O1B Cd1 1_555 1_555
O2B N7B 1_555 1_555
O3B N7B 1_555 1_555
C2 N2 1_555 1_555
C3 N1 1_555 1_555
C4 N2 1_555 1_555
C8 C9 1_555 1_555
C18 C19 1_555 1_555
C20 N5 1_555 1_555
C21 N6 1_555 1_555
C22 N5 1_555 1_555
N3 N4 1_555 1_555
C1B N1B 1_555 1_555
C2B N2B 1_555 1_555
C3B N1B 1_555 1_555
C4B N2B 1_555 1_555
C8B C9B 1_555 1_555
C18B C19B 1_555 1_555
C20B N5B 1_555 1_555
C21B N6B 1_555 1_555
C22B N5B 1_555 1_555
N3B N4B 1_555 1_555

#END
