
#######################################################################
#
#                 Cambridge Crystallographic Data Centre
#                                CCDC 
#
#######################################################################
#
# If this CIF has been generated from an entry in the Cambridge 
# Structural Database, then it will include bibliographic, chemical, 
# crystal, experimental, refinement or atomic coordinate data resulting 
# from the CCDC's data processing and validation procedures.
#
#######################################################################

data_LAWLAW
_symmetry_cell_setting           triclinic
_symmetry_space_group_name_H-M   'P -1'
_symmetry_Int_Tables_number      2
_space_group_name_Hall           '-P 1'
loop_
_symmetry_equiv_pos_site_id
_symmetry_equiv_pos_as_xyz
1 x,y,z
2 -x,-y,-z
_cell_length_a                   6.599(1)
_cell_length_b                   7.349(1)
_cell_length_c                   15.986(1)
_cell_angle_alpha                97.52(5)
_cell_angle_beta                 91.37(5)
_cell_angle_gamma                102.77(6)
_cell_volume                     748.459
loop_
_atom_site_label
_atom_site_type_symbol
_atom_site_fract_x
_atom_site_fract_y
_atom_site_fract_z
K1 K 0.71251(6) 0.31089(6) 0.50454(3)
F1 F 0.7666(2) 0.1850(1) 0.66162(7)
F2 F 0.7582(2) 0.2743(2) 0.82663(7)
F3 F 0.7848(2) 0.0201(2) 0.93221(7)
F4 F 0.8247(2) -0.3303(2) 0.86827(8)
F5 F 0.8455(2) -0.4238(1) 0.70337(7)
F6 F 0.6935(2) 0.8884(1) 0.22688(7)
F7 F 0.7225(3) 0.7828(2) 0.06314(8)
F8 F 0.7334(3) 0.4229(2) 0.00454(7)
F9 F 0.7135(2) 0.1668(2) 0.11308(8)
F10 F 0.6908(2) 0.2679(1) 0.27795(7)
O1 O 0.9236(2) -0.2909(2) 0.55490(8)
O2 O 0.7144(2) -0.1004(2) 0.53273(7)
O3 O 0.5725(2) 0.5272(2) 0.39474(8)
O4 O 0.7645(2) 0.8100(2) 0.38022(8)
C1 C 0.8193(3) -0.1777(2) 0.57975(11)
C2 C 0.8087(2) -0.1238(2) 0.67394(10)
C3 C 0.7829(3) 0.0519(2) 0.70968(11)
C4 C 0.7778(3) 0.1014(2) 0.79530(11)
C5 C 0.7933(3) -0.0260(3) 0.84898(11)
C6 C 0.8148(3) -0.2031(2) 0.81618(12)
C7 C 0.8243(3) -0.2491(2) 0.73061(11)
C8 C 0.6715(3) 0.6378(2) 0.35232(10)
C9 C 0.6919(3) 0.5831(2) 0.25944(10)
C10 C 0.7024(3) 0.7093(2) 0.20210(11)
C11 C 0.7154(3) 0.6576(3) 0.11674(11)
C12 C 0.7199(3) 0.4744(3) 0.08691(11)
C13 C 0.7090(3) 0.3452(2) 0.14169(12)
C14 C 0.6954(3) 0.3987(2) 0.22677(11)
H1 H 0.744(3) 0.840(3) 0.4440(13)
O1_2 O 0.9236(2) 0.7091(2) 0.55490(8)
O1A O 1.0764(2) 0.2909(2) 0.44510(8)
O2A O 0.2856(2) 0.1004(2) 0.46727(7)
O3A O 0.4275(2) 0.4728(2) 0.60526(8)
K1_2 K 0.71251(6) -0.68911(6) 0.50454(3)
K1A K 1.28749(6) -0.31089(6) 0.49546(3)
K1A_2 K 0.28749(6) -0.31089(6) 0.49546(3)
K1A_3 K 0.28749(6) 0.68911(6) 0.49546(3)
loop_
_geom_bond_atom_site_label_1
_geom_bond_atom_site_label_2
_geom_bond_site_symmetry_1
_geom_bond_site_symmetry_2
K1 F1 1_555 1_555
F1 C3 1_555 1_555
F2 C4 1_555 1_555
F3 C5 1_555 1_555
F4 C6 1_555 1_555
F5 C7 1_555 1_555
F6 C10 1_555 1_555
F7 C11 1_555 1_555
F8 C12 1_555 1_555
F9 C13 1_555 1_555
F10 C14 1_555 1_555
O1 C1 1_555 1_555
O2 K1 1_555 1_555
O3 K1 1_555 1_555
O4 C8 1_555 1_555
C1 O2 1_555 1_555
C2 C1 1_555 1_555
C3 C2 1_555 1_555
C4 C3 1_555 1_555
C5 C4 1_555 1_555
C6 C5 1_555 1_555
C7 C2 1_555 1_555
C8 O3 1_555 1_555
C9 C8 1_555 1_555
C10 C9 1_555 1_555
C11 C10 1_555 1_555
C12 C11 1_555 1_555
C13 C12 1_555 1_555
C14 C9 1_555 1_555
H1 O4 1_555 1_555
O1_2 K1 1_555 1_555
O1A K1 1_555 1_555
O2A K1 1_555 1_555
O3A K1 1_555 1_555
K1_2 O1 1_555 1_555
K1A O1 1_555 1_555
K1A_2 O2 1_555 1_555
K1A_3 O3 1_555 1_555
C6 C7 1_555 1_555
C13 C14 1_555 1_555
O2A K1A_2 1_555 1_555
O3A K1A_3 1_555 1_555

#END
