
#######################################################################
#
#                 Cambridge Crystallographic Data Centre
#                                CCDC 
#
#######################################################################
#
# If this CIF has been generated from an entry in the Cambridge 
# Structural Database, then it will include bibliographic, chemical, 
# crystal, experimental, refinement or atomic coordinate data resulting 
# from the CCDC's data processing and validation procedures.
#
#######################################################################

data_LAWLEC
_symmetry_cell_setting           triclinic
_symmetry_space_group_name_H-M   'P -1'
_symmetry_Int_Tables_number      2
_space_group_name_Hall           '-P 1'
loop_
_symmetry_equiv_pos_site_id
_symmetry_equiv_pos_as_xyz
1 x,y,z
2 -x,-y,-z
_cell_length_a                   8.8691(16)
_cell_length_b                   11.104(2)
_cell_length_c                   11.616(2)
_cell_angle_alpha                101.759(16)
_cell_angle_beta                 111.496(18)
_cell_angle_gamma                107.787(17)
_cell_volume                     946.978
loop_
_atom_site_label
_atom_site_type_symbol
_atom_site_fract_x
_atom_site_fract_y
_atom_site_fract_z
Zn1 Zn 0.85070(7) 0.65392(5) 0.03098(5)
C1 C 0.8234(6) 0.4984(4) 0.1702(4)
C2 C 1.0761(6) 0.3719(4) 0.1980(4)
C3 C 0.8313(5) 0.4024(4) 0.2430(4)
C4 C 0.9384(6) 0.3393(4) 0.2482(4)
C5 C 0.8129(11) 0.1957(8) 0.3880(8)
H1 H 0.7015 0.1193 0.3239
H2 H 0.8626 0.1706 0.4640
C6 C 0.7699(11) 0.3111(7) 0.4320(6)
H3 H 0.8770 0.3812 0.5079
H4 H 0.6820 0.2800 0.4625
C7 C 1.1192(7) 0.9126(5) 0.2878(5)
H5 H 1.0247 0.9381 0.2676
C8 C 1.2723(6) 0.9934(5) 0.4035(5)
H6 H 1.2793 1.0705 0.4590
C9 C 1.4164(5) 0.9591(4) 0.4370(4)
C10 C 1.3959(6) 0.8455(5) 0.3479(4)
H7 H 1.4897 0.8194 0.3642
C11 C 1.2368(6) 0.7700(4) 0.2343(4)
H8 H 1.2261 0.6930 0.1761
C12 C 0.7653(6) 0.8830(5) -0.0202(5)
H9 H 0.8534 0.8936 -0.0474
C13 C 0.6827(6) 0.9707(5) -0.0289(5)
H10 H 0.7200 1.0413 -0.0577
C14 C 0.5470(5) 0.9546(4) 0.0043(4)
C15 C 0.5007(6) 0.8484(4) 0.0465(5)
H11 H 0.4075 0.8314 0.0685
C16 C 0.5906(6) 0.7674(5) 0.0564(5)
H12 H 0.5567 0.6970 0.0863
N1 N 1.0966(5) 0.8021(3) 0.2036(3)
N2 N 0.7225(4) 0.7840(3) 0.0258(3)
O1 O 0.9087(4) 0.5122(3) 0.1044(3)
O2 O 0.7288(4) 0.5630(3) 0.1743(3)
O3 O 1.0287(4) 0.2995(3) 0.0811(3)
O4 O 1.2255(4) 0.4607(4) 0.2784(3)
O5 O 0.6188(4) 0.4929(3) -0.1296(3)
H13 H 0.5147 0.4900 -0.1523
H14 H 0.6505 0.5041 -0.1888
S1 S 0.68889(17) 0.38683(13) 0.31712(13)
S2 S 0.9557(2) 0.21694(15) 0.31926(15)
Zn1A Zn 2.14930(7) 1.34608(5) 0.96902(5)
Zn1A_2 Zn 1.14930(7) 0.34608(5) -0.03098(5)
Zn1A_3 Zn 0.14930(7) 1.34608(5) -0.03098(5)
C1A C 1.1766(6) 0.5016(4) -0.1702(4)
C2A C 0.9239(6) 0.6281(4) -0.1980(4)
C3A C 1.1687(5) 0.5976(4) -0.2430(4)
C4A C 1.0616(6) 0.6607(4) -0.2482(4)
C5A C 1.1871(11) 0.8043(8) -0.3880(8)
H1A H 1.2985 0.8807 -0.3239
H2A H 1.1374 0.8294 -0.4640
C6A C 1.2301(11) 0.6889(7) -0.4320(6)
H3A H 1.1230 0.6188 -0.5079
H4A H 1.3180 0.7200 -0.4625
C7A C 1.8808(7) 1.0874(5) 0.7122(5)
H5A H 1.9753 1.0619 0.7324
C8A C 1.7277(6) 1.0066(5) 0.5965(5)
H6A H 1.7207 0.9295 0.5410
C9A C 1.5836(5) 1.0409(4) 0.5630(4)
C10A C 1.6041(6) 1.1545(5) 0.6521(4)
H7A H 1.5103 1.1806 0.6358
C11A C 1.7632(6) 1.2300(4) 0.7657(4)
H8A H 1.7739 1.3070 0.8239
C12A C 0.2347(6) 1.1170(5) 0.0202(5)
H9A H 0.1466 1.1064 0.0474
C13A C 0.3173(6) 1.0293(5) 0.0289(5)
H10A H 0.2800 0.9587 0.0577
C14A C 0.4530(5) 1.0454(4) -0.0043(4)
C15A C 0.4993(6) 1.1516(4) -0.0465(5)
H11A H 0.5925 1.1686 -0.0685
C16A C 0.4094(6) 1.2326(5) -0.0564(5)
H12A H 0.4433 1.3030 -0.0863
N1A N 1.9034(5) 1.1979(3) 0.7964(3)
N2A N 0.2775(4) 1.2160(3) -0.0258(3)
N2A_2 N 2.2775(4) 1.2160(3) 0.9742(3)
O1A O 1.0913(4) 0.4878(3) -0.1044(3)
O1A_2 O 2.0913(4) 1.4878(3) 0.8956(3)
O2A O 1.2712(4) 0.4370(3) -0.1743(3)
O2A_2 O 2.2712(4) 1.4370(3) 0.8257(3)
O3A O 0.9713(4) 0.7005(3) -0.0811(3)
O3_2 O 2.0287(4) 1.2995(3) 1.0811(3)
O4A O 0.7745(4) 0.5393(4) -0.2784(3)
O5A O 2.3812(4) 1.5071(3) 1.1296(3)
H13A H 2.4853 1.5100 1.1523
H14A H 2.3495 1.4959 1.1888
S1A S 1.31111(17) 0.61317(13) -0.31712(13)
S2A S 1.0443(2) 0.78306(15) -0.31926(15)
O6 O 0.7612(8) 0.7634(6) 0.3871(5)
H15 H 0.8660 0.8251 0.4366
H16 H 0.7216 0.7187 0.4289
O7 O 0.5630(9) 0.6343(8) 0.5093(7)
H17 H 0.5948 0.5751 0.5339
H18 H 0.6182 0.6663 0.4685
loop_
_geom_bond_atom_site_label_1
_geom_bond_atom_site_label_2
_geom_bond_site_symmetry_1
_geom_bond_site_symmetry_2
Zn1 N1 1_555 1_555
C1 C3 1_555 1_555
C2 C4 1_555 1_555
C3 C4 1_555 1_555
C4 S2 1_555 1_555
C5 H1 1_555 1_555
H2 C5 1_555 1_555
C6 C5 1_555 1_555
H3 C6 1_555 1_555
H4 C6 1_555 1_555
C7 H5 1_555 1_555
C8 C7 1_555 1_555
H6 C8 1_555 1_555
C9 C8 1_555 1_555
C10 C9 1_555 1_555
H7 C10 1_555 1_555
C11 C10 1_555 1_555
H8 C11 1_555 1_555
C12 H9 1_555 1_555
C13 C12 1_555 1_555
H10 C13 1_555 1_555
C14 C13 1_555 1_555
C15 C14 1_555 1_555
H11 C15 1_555 1_555
C16 C15 1_555 1_555
H12 C16 1_555 1_555
N1 C7 1_555 1_555
N2 Zn1 1_555 1_555
O1 Zn1 1_555 1_555
O2 Zn1 1_555 1_555
O3 C2 1_555 1_555
O4 C2 1_555 1_555
O5 Zn1 1_555 1_555
H13 O5 1_555 1_555
H14 O5 1_555 1_555
O6 H15 1_555 1_555
H16 O6 1_555 1_555
O7 H17 1_555 1_555
H18 O7 1_555 1_555
S1 C3 1_555 1_555
S2 C5 1_555 1_555
Zn1A N1A 1_555 1_555
Zn1A_2 O3 1_555 1_555
Zn1A_3 N2A 1_555 1_555
C1A C3A 1_555 1_555
C2A C4A 1_555 1_555
C3A C4A 1_555 1_555
C4A S2A 1_555 1_555
C5A H1A 1_555 1_555
H2A C5A 1_555 1_555
C6A C5A 1_555 1_555
H3A C6A 1_555 1_555
H4A C6A 1_555 1_555
C7A H5A 1_555 1_555
C8A C7A 1_555 1_555
H6A C8A 1_555 1_555
C9A C9 1_555 1_555
C10A C9A 1_555 1_555
H7A C10A 1_555 1_555
C11A C10A 1_555 1_555
H8A C11A 1_555 1_555
C12A H9A 1_555 1_555
C13A C12A 1_555 1_555
H10A C13A 1_555 1_555
C14A C14 1_555 1_555
C15A C14A 1_555 1_555
H11A C15A 1_555 1_555
C16A C15A 1_555 1_555
H12A C16A 1_555 1_555
N1A C7A 1_555 1_555
N2A C12A 1_555 1_555
N2A_2 Zn1A 1_555 1_555
O1A Zn1A_2 1_555 1_555
O1A_2 Zn1A 1_555 1_555
O2A Zn1A_2 1_555 1_555
O2A_2 Zn1A 1_555 1_555
O3A Zn1 1_555 1_555
O3_2 Zn1A 1_555 1_555
O4A C2A 1_555 1_555
O5A Zn1A 1_555 1_555
H13A O5A 1_555 1_555
H14A O5A 1_555 1_555
S1A C3A 1_555 1_555
S2A C5A 1_555 1_555
C1 O1 1_555 1_555
C1 O2 1_555 1_555
C6 S1 1_555 1_555
C11 N1 1_555 1_555
C12 N2 1_555 1_555
C16 N2 1_555 1_555
C1A O1A 1_555 1_555
C1A O2A 1_555 1_555
C2A O3A 1_555 1_555
C6A S1A 1_555 1_555
C8A C9A 1_555 1_555
C11A N1A 1_555 1_555
C13A C14A 1_555 1_555
C16A N2A 1_555 1_555

#END
