
#######################################################################
#
#                 Cambridge Crystallographic Data Centre
#                                CCDC 
#
#######################################################################
#
# If this CIF has been generated from an entry in the Cambridge 
# Structural Database, then it will include bibliographic, chemical, 
# crystal, experimental, refinement or atomic coordinate data resulting 
# from the CCDC's data processing and validation procedures.
#
#######################################################################

data_LAWLIG01
_symmetry_cell_setting           triclinic
_symmetry_space_group_name_H-M   'P -1'
_symmetry_Int_Tables_number      2
_space_group_name_Hall           '-P 1'
loop_
_symmetry_equiv_pos_site_id
_symmetry_equiv_pos_as_xyz
1 x,y,z
2 -x,-y,-z
_cell_length_a                   6.5938(6)
_cell_length_b                   7.3333(7)
_cell_length_c                   25.306(2)
_cell_angle_alpha                88.223(1)
_cell_angle_beta                 89.712(2)
_cell_angle_gamma                89.770(2)
_cell_volume                     1223.04
loop_
_atom_site_label
_atom_site_type_symbol
_atom_site_fract_x
_atom_site_fract_y
_atom_site_fract_z
Co1 Co 0.5000 0.0000 0.0000
Co2 Co 0.0000 0.5000 0.0000
O1 O 0.1184(3) -0.3412(3) -0.06292(7)
O2 O 0.4221(3) -0.2469(2) -0.03567(7)
O3 O 0.2559(3) -0.5284(3) -0.48992(8)
O4 O 0.3803(3) -0.7601(3) -0.43997(8)
H1 H 0.349(7) -0.824(6) -0.4651(17)
O5 O 0.5099(3) -0.1139(3) -0.28444(7)
O6 O 0.3841(3) 0.1589(2) -0.06331(7)
O7 O 0.0780(3) 0.2515(2) -0.03582(7)
O8 O -0.1298(3) -0.2592(3) -0.43611(8)
H2 H -0.155(7) -0.322(6) -0.4597(17)
O9 O -0.2426(3) -0.0273(3) -0.48758(7)
O10 O -0.0045(3) 0.3980(2) -0.28368(7)
O11 O 0.7783(3) -0.0099(3) -0.03798(7)
H3 H 0.859(6) -0.096(5) -0.0179(14)
H4 H 0.847(6) 0.098(5) -0.0405(14)
O12 O -0.2769(3) 0.4914(2) -0.03777(7)
H5 H -0.351(6) 0.605(5) -0.0418(14)
H6 H -0.353(6) 0.408(5) -0.0204(14)
C1 C 0.3498(4) -0.2334(3) -0.12853(9)
C2 C 0.2099(4) -0.2606(3) -0.16868(10)
H7 H 0.0772 -0.3021 -0.1600
C3 C 0.2627(4) -0.2277(4) -0.22112(10)
H8 H 0.1678 -0.2474 -0.2485
C4 C 0.4585(4) -0.1649(3) -0.23320(9)
C5 C 0.5985(4) -0.1382(4) -0.19394(10)
H9 H 0.7308 -0.0961 -0.2027
C6 C 0.5444(4) -0.1736(3) -0.14121(10)
H10 H 0.6406 -0.1568 -0.1140
C7 C 0.2903(4) -0.2756(3) -0.07221(9)
C8 C 0.3885(4) -0.4660(3) -0.40539(9)
C9 C 0.3684(4) -0.2770(3) -0.41336(10)
H11 H 0.3271 -0.2283 -0.4468
C10 C 0.4087(4) -0.1607(3) -0.37247(10)
H12 H 0.3958 -0.0323 -0.3777
C11 C 0.4679(4) -0.2347(3) -0.32380(9)
C12 C 0.4923(4) -0.4221(3) -0.31558(10)
H13 H 0.5359 -0.4703 -0.2822
C13 C 0.4522(4) -0.5376(4) -0.35661(10)
H14 H 0.4682 -0.6657 -0.3514
C14 C 0.3372(4) -0.5884(3) -0.44870(10)
C15 C 0.1521(4) 0.2650(3) -0.12853(9)
C16 C 0.2940(4) 0.2430(3) -0.16898(10)
H15 H 0.4275 0.2027 -0.1606
C17 C 0.2412(4) 0.2796(4) -0.22135(10)
H16 H 0.3371 0.2629 -0.2489
C18 C 0.0465(4) 0.3408(3) -0.23276(10)
C19 C -0.0980(4) 0.3603(4) -0.19324(10)
H17 H -0.2318 0.3993 -0.2017
C20 C -0.0438(4) 0.3215(4) -0.14086(10)
H18 H -0.1415 0.3339 -0.1135
C21 C 0.2114(4) 0.2232(3) -0.07241(9)
C22 C -0.1139(4) 0.0365(3) -0.40275(9)
C23 C -0.0678(4) -0.0337(3) -0.35239(10)
H19 H -0.0631 -0.1619 -0.3459
C24 C -0.0286(4) 0.0839(3) -0.31149(9)
H20 H 0.0012 0.0368 -0.2770
C25 C -0.0336(4) 0.2709(3) -0.32191(9)
C26 C -0.0747(4) 0.3429(3) -0.37234(9)
H21 H -0.0733 0.4710 -0.3791
C27 C -0.1174(4) 0.2252(3) -0.41242(9)
H22 H -0.1494 0.2729 -0.4467
C28 C -0.1669(4) -0.0870(3) -0.44561(10)
Co1_2 Co -0.5000 0.0000 0.0000
Co2_2 Co 0.0000 -0.5000 0.0000
Co2_3 Co 1.0000 -0.5000 0.0000
O1A O -0.1184(3) 0.3412(3) 0.06292(7)
O1_2 O 0.1184(3) 0.6588(3) -0.06292(7)
O2A O -0.4221(3) 0.2469(2) 0.03567(7)
O2A_2 O 0.5779(3) 0.2469(2) 0.03567(7)
O3A O -0.2559(3) 0.5284(3) 0.48992(8)
O4A O -0.3803(3) 0.7601(3) 0.43997(8)
H1A H -0.349(7) 0.824(6) 0.4651(17)
O5A O -0.5099(3) 0.1139(3) 0.28444(7)
O6A O 0.6159(3) -0.1589(2) 0.06331(7)
O7A O 0.9220(3) -0.2515(2) 0.03582(7)
O7A_2 O -0.0780(3) 0.7485(2) 0.03582(7)
O8A O 1.1298(3) 0.2592(3) 0.43611(8)
H2A H 1.155(7) 0.322(6) 0.4597(17)
O9A O 1.2426(3) 0.0273(3) 0.48758(7)
O10A O 1.0045(3) -0.3980(2) 0.28368(7)
O11A O 0.2217(3) 0.0099(3) 0.03798(7)
H3A H 0.141(6) 0.096(5) 0.0179(14)
H4A H 0.153(6) -0.098(5) 0.0405(14)
O12A O 0.2769(3) 0.5086(2) 0.03777(7)
H5A H 0.351(6) 0.395(5) 0.0418(14)
H6A H 0.353(6) 0.592(5) 0.0204(14)
C1A C -0.3498(4) 0.2334(3) 0.12853(9)
C2A C -0.2099(4) 0.2606(3) 0.16868(10)
H7A H -0.0772 0.3021 0.1600
C3A C -0.2627(4) 0.2277(4) 0.22112(10)
H8A H -0.1678 0.2474 0.2485
C4A C -0.4585(4) 0.1649(3) 0.23320(9)
C5A C -0.5985(4) 0.1382(4) 0.19394(10)
H9A H -0.7308 0.0961 0.2027
C6A C -0.5444(4) 0.1736(3) 0.14121(10)
H10A H -0.6406 0.1568 0.1140
C7A C -0.2903(4) 0.2756(3) 0.07221(9)
C8A C -0.3885(4) 0.4660(3) 0.40539(9)
C9A C -0.3684(4) 0.2770(3) 0.41336(10)
H11A H -0.3271 0.2283 0.4468
C10A C -0.4087(4) 0.1607(3) 0.37247(10)
H12A H -0.3958 0.0323 0.3777
C11A C -0.4679(4) 0.2347(3) 0.32380(9)
C12A C -0.4923(4) 0.4221(3) 0.31558(10)
H13A H -0.5359 0.4703 0.2822
C13A C -0.4522(4) 0.5376(4) 0.35661(10)
H14A H -0.4682 0.6657 0.3514
C14A C -0.3372(4) 0.5884(3) 0.44870(10)
C15A C 0.8479(4) -0.2650(3) 0.12853(9)
C16A C 0.7060(4) -0.2430(3) 0.16898(10)
H15A H 0.5725 -0.2027 0.1606
C17A C 0.7588(4) -0.2796(4) 0.22135(10)
H16A H 0.6629 -0.2629 0.2489
C18A C 0.9535(4) -0.3408(3) 0.23276(10)
C19A C 1.0980(4) -0.3603(4) 0.19324(10)
H17A H 1.2318 -0.3993 0.2017
C20A C 1.0438(4) -0.3215(4) 0.14086(10)
H18A H 1.1415 -0.3339 0.1135
C21A C 0.7886(4) -0.2232(3) 0.07241(9)
C22A C 1.1139(4) -0.0365(3) 0.40275(9)
C23A C 1.0678(4) 0.0337(3) 0.35239(10)
H19A H 1.0631 0.1619 0.3459
C24A C 1.0286(4) -0.0839(3) 0.31149(9)
H20A H 0.9988 -0.0368 0.2770
C25A C 1.0336(4) -0.2709(3) 0.32191(9)
C26A C 1.0747(4) -0.3429(3) 0.37234(9)
H21A H 1.0733 -0.4710 0.3791
C27A C 1.1174(4) -0.2252(3) 0.41242(9)
H22A H 1.1494 -0.2729 0.4467
C28A C 1.1669(4) 0.0870(3) 0.44561(10)
loop_
_geom_bond_atom_site_label_1
_geom_bond_atom_site_label_2
_geom_bond_site_symmetry_1
_geom_bond_site_symmetry_2
Co1 O2 1_555 1_555
Co2 O7 1_555 1_555
O1 C7 1_555 1_555
O2 C7 1_555 1_555
O3 C14 1_555 1_555
O4 H1 1_555 1_555
O5 C4 1_555 1_555
O6 Co1 1_555 1_555
O7 C21 1_555 1_555
O8 H2 1_555 1_555
O9 C28 1_555 1_555
O10 C18 1_555 1_555
O11 Co1 1_555 1_555
H3 O11 1_555 1_555
H4 O11 1_555 1_555
O12 Co2 1_555 1_555
H5 O12 1_555 1_555
H6 O12 1_555 1_555
C1 C2 1_555 1_555
C2 H7 1_555 1_555
C3 C2 1_555 1_555
H8 C3 1_555 1_555
C4 C3 1_555 1_555
C5 C4 1_555 1_555
H9 C5 1_555 1_555
C6 C1 1_555 1_555
H10 C6 1_555 1_555
C7 C1 1_555 1_555
C8 C9 1_555 1_555
C9 H11 1_555 1_555
C10 C9 1_555 1_555
H12 C10 1_555 1_555
C11 O5 1_555 1_555
C12 C11 1_555 1_555
H13 C12 1_555 1_555
C13 C8 1_555 1_555
H14 C13 1_555 1_555
C14 O4 1_555 1_555
C15 C16 1_555 1_555
C16 H15 1_555 1_555
C17 C16 1_555 1_555
H16 C17 1_555 1_555
C18 C17 1_555 1_555
C19 C18 1_555 1_555
H17 C19 1_555 1_555
C20 C15 1_555 1_555
H18 C20 1_555 1_555
C21 O6 1_555 1_555
C22 C23 1_555 1_555
C23 H19 1_555 1_555
C24 C23 1_555 1_555
H20 C24 1_555 1_555
C25 O10 1_555 1_555
C26 C25 1_555 1_555
H21 C26 1_555 1_555
C27 C22 1_555 1_555
H22 C27 1_555 1_555
C28 O8 1_555 1_555
Co1_2 O2A 1_555 1_555
Co2_2 O1 1_555 1_555
Co2_3 O7A 1_555 1_555
O1A Co2 1_555 1_555
O1_2 Co2 1_555 1_555
O2A C7A 1_555 1_555
O2A_2 Co1 1_555 1_555
O3A C14A 1_555 1_555
O4A H1A 1_555 1_555
O5A C4A 1_555 1_555
O6A Co1 1_555 1_555
O7A C21A 1_555 1_555
O7A_2 Co2 1_555 1_555
O8A H2A 1_555 1_555
O9A C28A 1_555 1_555
O10A C18A 1_555 1_555
O11A Co1 1_555 1_555
H3A O11A 1_555 1_555
H4A O11A 1_555 1_555
O12A Co2 1_555 1_555
H5A O12A 1_555 1_555
H6A O12A 1_555 1_555
C1A C2A 1_555 1_555
C2A H7A 1_555 1_555
C3A C2A 1_555 1_555
H8A C3A 1_555 1_555
C4A C3A 1_555 1_555
C5A C4A 1_555 1_555
H9A C5A 1_555 1_555
C6A C1A 1_555 1_555
H10A C6A 1_555 1_555
C7A O1A 1_555 1_555
C8A C9A 1_555 1_555
C9A H11A 1_555 1_555
C10A C9A 1_555 1_555
H12A C10A 1_555 1_555
C11A O5A 1_555 1_555
C12A C11A 1_555 1_555
H13A C12A 1_555 1_555
C13A C8A 1_555 1_555
H14A C13A 1_555 1_555
C14A O4A 1_555 1_555
C15A C16A 1_555 1_555
C16A H15A 1_555 1_555
C17A C16A 1_555 1_555
H16A C17A 1_555 1_555
C18A C17A 1_555 1_555
C19A C18A 1_555 1_555
H17A C19A 1_555 1_555
C20A C15A 1_555 1_555
H18A C20A 1_555 1_555
C21A O6A 1_555 1_555
C22A C23A 1_555 1_555
C23A H19A 1_555 1_555
C24A C23A 1_555 1_555
H20A C24A 1_555 1_555
C25A O10A 1_555 1_555
C26A C25A 1_555 1_555
H21A C26A 1_555 1_555
C27A C22A 1_555 1_555
H22A C27A 1_555 1_555
C28A O8A 1_555 1_555
C5 C6 1_555 1_555
C8 C14 1_555 1_555
C10 C11 1_555 1_555
C12 C13 1_555 1_555
C15 C21 1_555 1_555
C19 C20 1_555 1_555
C22 C28 1_555 1_555
C24 C25 1_555 1_555
C26 C27 1_555 1_555
C1A C7A 1_555 1_555
C5A C6A 1_555 1_555
C8A C14A 1_555 1_555
C10A C11A 1_555 1_555
C12A C13A 1_555 1_555
C15A C21A 1_555 1_555
C19A C20A 1_555 1_555
C22A C28A 1_555 1_555
C24A C25A 1_555 1_555
C26A C27A 1_555 1_555

#END
