
#######################################################################
#
#                 Cambridge Crystallographic Data Centre
#                                CCDC 
#
#######################################################################
#
# If this CIF has been generated from an entry in the Cambridge 
# Structural Database, then it will include bibliographic, chemical, 
# crystal, experimental, refinement or atomic coordinate data resulting 
# from the CCDC's data processing and validation procedures.
#
#######################################################################

data_LAWLIG
_symmetry_cell_setting           triclinic
_symmetry_space_group_name_H-M   'P -1'
_symmetry_Int_Tables_number      2
_space_group_name_Hall           '-P 1'
loop_
_symmetry_equiv_pos_site_id
_symmetry_equiv_pos_as_xyz
1 x,y,z
2 -x,-y,-z
_cell_length_a                   6.6354(3)
_cell_length_b                   7.3611(3)
_cell_length_c                   25.5389(13)
_cell_angle_alpha                91.708(4)
_cell_angle_beta                 91.207(4)
_cell_angle_gamma                90.251(4)
_cell_volume                     1246.57
loop_
_atom_site_label
_atom_site_type_symbol
_atom_site_fract_x
_atom_site_fract_y
_atom_site_fract_z
Co1 Co 0.0000 1.0000 0.0000
Co2 Co -0.5000 1.5000 0.0000
C1 C 0.1799(8) 0.4105(7) 0.44390(19)
C2 C 0.1326(7) 0.5350(7) 0.40057(18)
C3 C 0.0923(8) 0.4650(7) 0.3510(2)
H1 H 0.0904 0.3398 0.3450
C4 C 0.0543(8) 0.5803(7) 0.30975(18)
H2 H 0.0276 0.5332 0.2761
C5 C 0.0570(7) 0.7655(6) 0.31969(18)
C6 C 0.0959(8) 0.8385(7) 0.36970(19)
H3 H 0.0964 0.9637 0.3758
C7 C 0.1338(8) 0.7226(7) 0.40997(19)
H4 H 0.1604 0.7695 0.4436
C8 C -0.0235(8) 0.8352(6) 0.23078(18)
C9 C -0.2189(8) 0.7765(6) 0.21938(18)
H5 H -0.3105 0.7621 0.2460
C10 C -0.2753(7) 0.7396(6) 0.16743(17)
H6 H -0.4057 0.6993 0.1594
C11 C -0.1402(6) 0.7621(6) 0.12742(17)
C12 C 0.0544(7) 0.8190(7) 0.14016(18)
H7 H 0.1466 0.8330 0.1136
C13 C 0.1144(8) 0.8557(7) 0.19195(19)
H8 H 0.2455 0.8935 0.2001
C14 C -0.2040(6) 0.7228(5) 0.07148(16)
C15 C -0.3256(8) 0.9087(7) 0.44663(19)
C16 C -0.3714(7) 1.0321(7) 0.40283(19)
C17 C -0.4277(8) 0.9598(7) 0.3544(2)
H9 H -0.4401 0.8347 0.3492
C18 C -0.4658(8) 1.0745(7) 0.31340(19)
H10 H -0.5059 1.0268 0.2807
C19 C -0.4441(7) 1.2609(7) 0.32128(18)
C20 C -0.3892(8) 1.3350(7) 0.37006(19)
H11 H -0.3772 1.4602 0.3752
C21 C -0.3526(8) 1.2200(7) 0.4109(2)
H12 H -0.3154 1.2677 0.4438
C22 C -0.4350(8) 1.3300(6) 0.23098(18)
C23 C -0.5785(8) 1.3555(7) 0.19244(19)
H13 H -0.7072 1.3946 0.2008
C24 C -0.5273(7) 1.3218(6) 0.14071(18)
H14 H -0.6234 1.3391 0.1143
C25 C -0.3383(6) 1.2634(5) 0.12752(16)
C26 C -0.1961(7) 1.2376(6) 0.16759(17)
H15 H -0.0669 1.1991 0.1594
C27 C -0.2457(7) 1.2688(6) 0.21933(18)
H16 H -0.1516 1.2486 0.2460
C28 C -0.2832(6) 1.2242(5) 0.07166(16)
O1 O -0.4818(6) 1.3815(5) 0.28210(13)
O2 O 0.0308(6) 0.8926(5) 0.28140(13)
O3 O -0.4159(4) 1.2532(4) 0.03551(11)
O4 O -0.1146(4) 1.1592(4) 0.06228(11)
O5 O -0.2531(7) 0.9774(6) 0.48960(16)
O6 O -0.3589(7) 0.7395(5) 0.43907(15)
O7 O 0.1515(7) 0.2414(5) 0.43553(15)
O8 O 0.2465(7) 0.4783(6) 0.48720(16)
O9 O -0.3759(4) 0.6593(4) 0.06267(11)
O10 O -0.0764(4) 0.7516(4) 0.03559(11)
O11 O 0.2799(4) 0.9906(4) 0.03711(11)
H17 H 0.3489 1.0830 0.0292
H18 H 0.2646 0.9910 0.0701
O12 O -0.7733(4) 1.4901(4) 0.03753(11)
H19 H -0.8433 1.5819 0.0295
H20 H -0.7521 1.4912 0.0705
Co1_2 Co -1.0000 1.0000 0.0000
Co2_2 Co -0.5000 0.5000 0.0000
Co2_3 Co 0.5000 0.5000 0.0000
C1A C -1.1799(8) 1.5895(7) -0.44390(19)
C2A C -1.1326(7) 1.4650(7) -0.40057(18)
C3A C -1.0923(8) 1.5350(7) -0.3510(2)
H1A H -1.0904 1.6602 -0.3450
C4A C -1.0543(8) 1.4197(7) -0.30975(18)
H2A H -1.0276 1.4668 -0.2761
C5A C -1.0570(7) 1.2345(6) -0.31969(18)
C6A C -1.0959(8) 1.1615(7) -0.36970(19)
H3A H -1.0964 1.0363 -0.3758
C7A C -1.1338(8) 1.2774(7) -0.40997(19)
H4A H -1.1604 1.2305 -0.4436
C8A C -0.9765(8) 1.1648(6) -0.23078(18)
C9A C -0.7811(8) 1.2235(6) -0.21938(18)
H5A H -0.6895 1.2379 -0.2460
C10A C -0.7247(7) 1.2604(6) -0.16743(17)
H6A H -0.5943 1.3007 -0.1594
C11A C -0.8598(6) 1.2379(6) -0.12742(17)
C12A C -1.0544(7) 1.1810(7) -0.14016(18)
H7A H -1.1466 1.1670 -0.1136
C13A C -1.1144(8) 1.1443(7) -0.19195(19)
H8A H -1.2455 1.1065 -0.2001
C14A C -0.7960(6) 1.2772(5) -0.07148(16)
C15A C 0.3256(8) 1.0913(7) -0.44663(19)
C16A C 0.3714(7) 0.9679(7) -0.40283(19)
C17A C 0.4277(8) 1.0402(7) -0.3544(2)
H9A H 0.4401 1.1653 -0.3492
C18A C 0.4658(8) 0.9255(7) -0.31340(19)
H10A H 0.5059 0.9732 -0.2807
C19A C 0.4441(7) 0.7391(7) -0.32128(18)
C20A C 0.3892(8) 0.6650(7) -0.37006(19)
H11A H 0.3772 0.5398 -0.3752
C21A C 0.3526(8) 0.7800(7) -0.4109(2)
H12A H 0.3154 0.7323 -0.4438
C22A C 0.4350(8) 0.6700(6) -0.23098(18)
C23A C 0.5785(8) 0.6445(7) -0.19244(19)
H13A H 0.7072 0.6054 -0.2008
C24A C 0.5273(7) 0.6782(6) -0.14071(18)
H14A H 0.6234 0.6609 -0.1143
C25A C 0.3383(6) 0.7366(5) -0.12752(16)
C26A C 0.1961(7) 0.7624(6) -0.16759(17)
H15A H 0.0669 0.8009 -0.1594
C27A C 0.2457(7) 0.7312(6) -0.21933(18)
H16A H 0.1516 0.7514 -0.2460
C28A C 0.2832(6) 0.7758(5) -0.07166(16)
O1A O 0.4818(6) 0.6185(5) -0.28210(13)
O2A O -1.0308(6) 1.1074(5) -0.28140(13)
O3A O 0.4159(4) 0.7468(4) -0.03551(11)
O3A_2 O -0.5841(4) 1.7468(4) -0.03551(11)
O4A O 0.1146(4) 0.8408(4) -0.06228(11)
O5A O 0.2531(7) 1.0226(6) -0.48960(16)
O6A O 0.3589(7) 1.2605(5) -0.43907(15)
O7A O -1.1515(7) 1.7586(5) -0.43553(15)
O8A O -1.2465(7) 1.5217(6) -0.48720(16)
O9A O -0.6241(4) 1.3407(4) -0.06267(11)
O9_2 O -0.3759(4) 1.6593(4) 0.06267(11)
O10A O -0.9236(4) 1.2484(4) -0.03559(11)
O10A_2 O 0.0764(4) 1.2484(4) -0.03559(11)
O11A O -0.2799(4) 1.0094(4) -0.03711(11)
H17A H -0.3489 0.9170 -0.0292
H18A H -0.2646 1.0090 -0.0701
O12A O -0.2267(4) 1.5099(4) -0.03753(11)
H19A H -0.1567 1.4181 -0.0295
H20A H -0.2479 1.5088 -0.0705
loop_
_geom_bond_atom_site_label_1
_geom_bond_atom_site_label_2
_geom_bond_site_symmetry_1
_geom_bond_site_symmetry_2
Co1 O4 1_555 1_555
Co2 O3 1_555 1_555
C1 C2 1_555 1_555
C2 C3 1_555 1_555
C3 H1 1_555 1_555
C4 C3 1_555 1_555
H2 C4 1_555 1_555
C5 C4 1_555 1_555
C6 C5 1_555 1_555
H3 C6 1_555 1_555
C7 C2 1_555 1_555
H4 C7 1_555 1_555
C8 C9 1_555 1_555
C9 H5 1_555 1_555
C10 C9 1_555 1_555
H6 C10 1_555 1_555
C11 C10 1_555 1_555
C12 C11 1_555 1_555
H7 C12 1_555 1_555
C13 C8 1_555 1_555
H8 C13 1_555 1_555
C14 C11 1_555 1_555
C15 C16 1_555 1_555
C16 C17 1_555 1_555
C17 H9 1_555 1_555
C18 C17 1_555 1_555
H10 C18 1_555 1_555
C19 C18 1_555 1_555
C20 C19 1_555 1_555
H11 C20 1_555 1_555
C21 C16 1_555 1_555
H12 C21 1_555 1_555
C22 C23 1_555 1_555
C23 H13 1_555 1_555
C24 C23 1_555 1_555
H14 C24 1_555 1_555
C25 C24 1_555 1_555
C26 C25 1_555 1_555
H15 C26 1_555 1_555
C27 C22 1_555 1_555
H16 C27 1_555 1_555
C28 C25 1_555 1_555
O1 C19 1_555 1_555
O2 C5 1_555 1_555
O3 C28 1_555 1_555
O4 C28 1_555 1_555
O5 C15 1_555 1_555
O6 C15 1_555 1_555
O7 C1 1_555 1_555
O8 C1 1_555 1_555
O9 C14 1_555 1_555
O10 Co1 1_555 1_555
O11 Co1 1_555 1_555
H17 O11 1_555 1_555
H18 O11 1_555 1_555
O12 Co2 1_555 1_555
H19 O12 1_555 1_555
H20 O12 1_555 1_555
Co1_2 O10A 1_555 1_555
Co2_2 O9 1_555 1_555
Co2_3 O3A 1_555 1_555
C1A C2A 1_555 1_555
C2A C3A 1_555 1_555
C3A H1A 1_555 1_555
C4A C3A 1_555 1_555
H2A C4A 1_555 1_555
C5A C4A 1_555 1_555
C6A C5A 1_555 1_555
H3A C6A 1_555 1_555
C7A C2A 1_555 1_555
H4A C7A 1_555 1_555
C8A C9A 1_555 1_555
C9A H5A 1_555 1_555
C10A C9A 1_555 1_555
H6A C10A 1_555 1_555
C11A C10A 1_555 1_555
C12A C11A 1_555 1_555
H7A C12A 1_555 1_555
C13A C8A 1_555 1_555
H8A C13A 1_555 1_555
C14A C11A 1_555 1_555
C15A C16A 1_555 1_555
C16A C17A 1_555 1_555
C17A H9A 1_555 1_555
C18A C17A 1_555 1_555
H10A C18A 1_555 1_555
C19A C18A 1_555 1_555
C20A C19A 1_555 1_555
H11A C20A 1_555 1_555
C21A C16A 1_555 1_555
H12A C21A 1_555 1_555
C22A C23A 1_555 1_555
C23A H13A 1_555 1_555
C24A C23A 1_555 1_555
H14A C24A 1_555 1_555
C25A C24A 1_555 1_555
C26A C25A 1_555 1_555
H15A C26A 1_555 1_555
C27A C22A 1_555 1_555
H16A C27A 1_555 1_555
C28A C25A 1_555 1_555
O1A C19A 1_555 1_555
O2A C5A 1_555 1_555
O3A C28A 1_555 1_555
O3A_2 Co2 1_555 1_555
O4A Co1 1_555 1_555
O5A C15A 1_555 1_555
O6A C15A 1_555 1_555
O7A C1A 1_555 1_555
O8A C1A 1_555 1_555
O9A Co2 1_555 1_555
O9_2 Co2 1_555 1_555
O10A C14A 1_555 1_555
O10A_2 Co1 1_555 1_555
O11A Co1 1_555 1_555
H17A O11A 1_555 1_555
H18A O11A 1_555 1_555
O12A Co2 1_555 1_555
H19A O12A 1_555 1_555
H20A O12A 1_555 1_555
C6 C7 1_555 1_555
C8 O2 1_555 1_555
C12 C13 1_555 1_555
C14 O10 1_555 1_555
C20 C21 1_555 1_555
C22 O1 1_555 1_555
C26 C27 1_555 1_555
C6A C7A 1_555 1_555
C8A O2A 1_555 1_555
C12A C13A 1_555 1_555
C14A O9A 1_555 1_555
C20A C21A 1_555 1_555
C22A O1A 1_555 1_555
C26A C27A 1_555 1_555
C28A O4A 1_555 1_555

#END
