
#######################################################################
#
#                 Cambridge Crystallographic Data Centre
#                                CCDC 
#
#######################################################################
#
# If this CIF has been generated from an entry in the Cambridge 
# Structural Database, then it will include bibliographic, chemical, 
# crystal, experimental, refinement or atomic coordinate data resulting 
# from the CCDC's data processing and validation procedures.
#
#######################################################################

data_LAWMED
_symmetry_cell_setting           monoclinic
_symmetry_space_group_name_H-M   'P 21/c'
_symmetry_Int_Tables_number      14
_space_group_name_Hall           '-P 2ybc'
loop_
_symmetry_equiv_pos_site_id
_symmetry_equiv_pos_as_xyz
1 x,y,z
2 -x,1/2+y,1/2-z
3 -x,-y,-z
4 x,1/2-y,1/2+z
_cell_length_a                   12.831(3)
_cell_length_b                   6.0875(12)
_cell_length_c                   17.284(4)
_cell_angle_alpha                90
_cell_angle_beta                 104.08(3)
_cell_angle_gamma                90
_cell_volume                     1309.47
loop_
_atom_site_label
_atom_site_type_symbol
_atom_site_fract_x
_atom_site_fract_y
_atom_site_fract_z
Zn1 Zn 0.55904(2) 0.02511(5) 0.110408(17)
O1 O 0.67710(16) 0.2348(3) 0.13105(12)
O2 O 0.54373(18) -0.1370(4) 0.20632(12)
O3 O 0.60427(19) 0.4360(4) 0.21241(15)
C1 C 0.6755(2) 0.4019(5) 0.17563(15)
C2 C 0.8165(2) 0.6124(4) 0.12438(14)
C3 C 0.7645(2) 0.5706(5) 0.18542(16)
C4 C 0.7901(2) 0.4961(4) 0.04566(18)
N1 N 0.8987(2) 0.7722(5) 0.13710(18)
C5 C 0.8732(3) 0.8533(6) 0.26710(18)
H1 H 0.8911 0.9327 0.3145
N2 N 0.8599(2) 0.3283(6) 0.03324(18)
C6 C 0.7931(2) 0.6957(5) 0.25566(16)
H2 H 0.7572 0.6719 0.2956
C7 C 0.9264(3) 0.8923(6) 0.2077(2)
H3 H 0.9803 0.9979 0.2149
C8 C 0.8420(3) 0.2153(6) -0.0391(2)
H4 H 0.8866 0.0997 -0.0454
C9 C 0.7576(3) 0.2774(6) -0.10089(19)
H5 H 0.7459 0.2052 -0.1497
C10 C 0.6896(3) 0.4480(5) -0.0908(2)
H6 H 0.6336 0.4898 -0.1333
C11 C 0.7042(2) 0.5576(4) -0.01742(16)
C12 C 0.62410(19) 0.7361(4) -0.01084(15)
O4 O 0.60519(16) 0.7719(4) 0.05515(11)
O5 O 0.57962(17) 0.8354(4) -0.07456(12)
H7 H 0.567(3) -0.267(3) 0.216(2)
H8 H 0.487(2) -0.126(6) 0.224(3)
Zn1B Zn 0.44096(2) 0.97489(5) -0.110408(17)
Zn1_2 Zn 0.55904(2) 1.02511(5) 0.110408(17)
Zn1B_2 Zn 0.44096(2) -0.02511(5) -0.110408(17)
O1B O 0.32290(16) 0.7652(3) -0.13105(12)
O2B O 0.45627(18) 1.1370(4) -0.20632(12)
O3B O 0.39573(19) 0.5640(4) -0.21241(15)
C1B C 0.3245(2) 0.5981(5) -0.17563(15)
C2B C 0.1835(2) 0.3876(4) -0.12438(14)
C3B C 0.2355(2) 0.4294(5) -0.18542(16)
C4B C 0.2099(2) 0.5039(4) -0.04566(18)
N1B N 0.1013(2) 0.2278(5) -0.13710(18)
C5B C 0.1268(3) 0.1467(6) -0.26710(18)
H1B H 0.1089 0.0673 -0.3145
N2B N 0.1401(2) 0.6717(6) -0.03324(18)
C6B C 0.2069(2) 0.3043(5) -0.25566(16)
H2B H 0.2428 0.3281 -0.2956
C7B C 0.0736(3) 0.1077(6) -0.2077(2)
H3B H 0.0197 0.0021 -0.2149
C8B C 0.1580(3) 0.7847(6) 0.0391(2)
H4B H 0.1134 0.9003 0.0454
C9B C 0.2424(3) 0.7226(6) 0.10089(19)
H5B H 0.2541 0.7948 0.1497
C10B C 0.3104(3) 0.5520(5) 0.0908(2)
H6B H 0.3664 0.5102 0.1333
C11B C 0.2958(2) 0.4424(4) 0.01742(16)
C12B C 0.37590(19) 0.2639(4) 0.01084(15)
O4B O 0.39481(16) 0.2281(4) -0.05515(11)
O4_2 O 0.60519(16) -0.2281(4) 0.05515(11)
O4B_2 O 0.39481(16) 1.2281(4) -0.05515(11)
O5B O 0.42038(17) 0.1646(4) 0.07456(12)
H7B H 0.433(3) 1.267(3) -0.216(2)
H8B H 0.513(2) 1.126(6) -0.224(3)
loop_
_geom_bond_atom_site_label_1
_geom_bond_atom_site_label_2
_geom_bond_site_symmetry_1
_geom_bond_site_symmetry_2
Zn1 O1 1_555 1_555
O1 C1 1_555 1_555
O2 Zn1 1_555 1_555
O3 C1 1_555 1_555
C1 C3 1_555 1_555
C2 C3 1_555 1_555
C3 C6 1_555 1_555
C4 C2 1_555 1_555
N1 C2 1_555 1_555
C5 H1 1_555 1_555
N2 C4 1_555 1_555
C6 C5 1_555 1_555
H2 C6 1_555 1_555
C7 N1 1_555 1_555
H3 C7 1_555 1_555
C8 N2 1_555 1_555
H4 C8 1_555 1_555
C9 C8 1_555 1_555
H5 C9 1_555 1_555
C10 C9 1_555 1_555
H6 C10 1_555 1_555
C11 C4 1_555 1_555
C12 C11 1_555 1_555
O4 C12 1_555 1_555
O5 C12 1_555 1_555
H7 O2 1_555 1_555
H8 O2 1_555 1_555
Zn1B O5 1_555 1_555
Zn1_2 O4 1_555 1_555
Zn1B_2 O4B 1_555 1_555
O1B Zn1B 1_555 1_555
O2B Zn1B 1_555 1_555
O3B C1B 1_555 1_555
C1B O1B 1_555 1_555
C2B C3B 1_555 1_555
C3B C1B 1_555 1_555
C4B C2B 1_555 1_555
N1B C2B 1_555 1_555
C5B H1B 1_555 1_555
N2B C4B 1_555 1_555
C6B C3B 1_555 1_555
H2B C6B 1_555 1_555
C7B N1B 1_555 1_555
H3B C7B 1_555 1_555
C8B N2B 1_555 1_555
H4B C8B 1_555 1_555
C9B C8B 1_555 1_555
H5B C9B 1_555 1_555
C10B C9B 1_555 1_555
H6B C10B 1_555 1_555
C11B C4B 1_555 1_555
C12B C11B 1_555 1_555
O4B C12B 1_555 1_555
O4_2 Zn1 1_555 1_555
O4B_2 Zn1B 1_555 1_555
O5B Zn1 1_555 1_555
H7B O2B 1_555 1_555
H8B O2B 1_555 1_555
C5 C7 1_555 1_555
C10 C11 1_555 1_555
C5B C6B 1_555 1_555
C5B C7B 1_555 1_555
C10B C11B 1_555 1_555
C12B O5B 1_555 1_555

#END
