
#######################################################################
#
#                 Cambridge Crystallographic Data Centre
#                                CCDC 
#
#######################################################################
#
# If this CIF has been generated from an entry in the Cambridge 
# Structural Database, then it will include bibliographic, chemical, 
# crystal, experimental, refinement or atomic coordinate data resulting 
# from the CCDC's data processing and validation procedures.
#
#######################################################################

data_LAWNUU
_symmetry_cell_setting           monoclinic
_symmetry_space_group_name_H-M   'C 2/c'
_symmetry_Int_Tables_number      15
_space_group_name_Hall           '-C 2yn'
loop_
_symmetry_equiv_pos_site_id
_symmetry_equiv_pos_as_xyz
1 x,y,z
2 -x,y,1/2-z
3 1/2+x,1/2+y,z
4 1/2-x,1/2+y,1/2-z
5 -x,-y,-z
6 x,-y,1/2+z
7 1/2-x,1/2-y,-z
8 1/2+x,1/2-y,1/2+z
_cell_length_a                   10.8522(2)
_cell_length_b                   5.44270(10)
_cell_length_c                   23.8306(5)
_cell_angle_alpha                90
_cell_angle_beta                 95.0760(10)
_cell_angle_gamma                90
_cell_volume                     1402.04
loop_
_atom_site_label
_atom_site_type_symbol
_atom_site_fract_x
_atom_site_fract_y
_atom_site_fract_z
Zn1 Zn 0.0000 0.25943(8) 0.7500
Zn2 Zn -0.27255(3) -0.48516(6) 0.703720(15)
S1 S 0.12631(7) -0.27719(15) 0.56433(3)
P1 P -0.02279(7) -0.26394(13) 0.66734(3)
C1 C -0.0203(3) -0.2512(6) 0.59136(13)
H1 H -0.0728 -0.3819 0.5751
H2 H -0.0572 -0.0968 0.5783
C2 C 0.1560(3) -0.5933(7) 0.56367(16)
H3 H 0.2349 -0.6220 0.5495
H4 H 0.0925 -0.6743 0.5398
H5 H 0.1568 -0.6571 0.6013
O1 O -0.15970(19) -0.2424(4) 0.67628(9)
O2 O 0.04614(18) -0.0323(4) 0.68949(9)
O3 O 0.0384(2) -0.4987(4) 0.68840(10)
O4 O 0.1129(2) -0.1881(5) 0.50711(10)
O5 O 0.2185(2) -0.1595(5) 0.60297(10)
O6 O -0.18600(19) 0.2133(4) 0.72728(9)
H6 H -0.179(3) 0.108(7) 0.6976(15)
Zn1_2 Zn 0.0000 -0.74057(8) 0.7500
Zn2A Zn 0.27255(3) -0.48516(6) 0.796280(15)
Zn2B Zn 0.22745(3) 0.01484(6) 0.703720(15)
Zn2C Zn -0.22745(3) 0.01484(6) 0.796280(15)
Zn2_2 Zn -0.27255(3) 0.51484(6) 0.703720(15)
Zn2A_2 Zn 0.27255(3) 0.51484(6) 0.796280(15)
S1A S -0.12631(7) -0.27719(15) 0.93567(3)
P1A P 0.02279(7) -0.26394(13) 0.83266(3)
C1A C 0.0203(3) -0.2512(6) 0.90864(13)
H1A H 0.0728 -0.3819 0.9249
H2A H 0.0572 -0.0968 0.9217
C2A C -0.1560(3) -0.5933(7) 0.93633(16)
H3A H -0.2349 -0.6220 0.9505
H4A H -0.0925 -0.6743 0.9602
H5A H -0.1568 -0.6571 0.8987
O1A O 0.15970(19) -0.2424(4) 0.82372(9)
O2A O -0.04614(18) -0.0323(4) 0.81051(9)
O2B O -0.45386(18) -0.5323(4) 0.68949(9)
O2C O 0.45386(18) -0.5323(4) 0.81051(9)
O3A O -0.0384(2) -0.4987(4) 0.81160(10)
O3_2 O 0.0384(2) 0.5013(4) 0.68840(10)
O3A_2 O -0.0384(2) 0.5013(4) 0.81160(10)
O4A O -0.1129(2) -0.1881(5) 0.99289(10)
O5A O -0.2185(2) -0.1595(5) 0.89703(10)
O6A O 0.18600(19) 0.2133(4) 0.77272(9)
O6C O -0.31400(19) -0.2867(4) 0.77272(9)
O6_2 O -0.18600(19) -0.7867(4) 0.72728(9)
O6B O 0.31400(19) -0.2867(4) 0.72728(9)
O6A_2 O 0.18600(19) -0.7867(4) 0.77272(9)
H6A H 0.179(3) 0.108(7) 0.8024(15)
H6C H -0.321(3) -0.392(7) 0.8024(15)
H6_2 H -0.179(3) -0.892(7) 0.6976(15)
H6B H 0.321(3) -0.392(7) 0.6976(15)
H6A_2 H 0.179(3) -0.892(7) 0.8024(15)
loop_
_geom_bond_atom_site_label_1
_geom_bond_atom_site_label_2
_geom_bond_site_symmetry_1
_geom_bond_site_symmetry_2
Zn1 O2 1_555 1_555
Zn2 O1 1_555 1_555
S1 C1 1_555 1_555
P1 C1 1_555 1_555
C1 H1 1_555 1_555
H2 C1 1_555 1_555
C2 S1 1_555 1_555
H3 C2 1_555 1_555
H4 C2 1_555 1_555
H5 C2 1_555 1_555
O1 P1 1_555 1_555
O2 P1 1_555 1_555
O3 P1 1_555 1_555
O4 S1 1_555 1_555
O5 S1 1_555 1_555
O6 Zn1 1_555 1_555
H6 O6 1_555 1_555
Zn1_2 O3 1_555 1_555
Zn2A O1A 1_555 1_555
Zn2B O2 1_555 1_555
Zn2C O6 1_555 1_555
Zn2_2 O6 1_555 1_555
Zn2A_2 O6A 1_555 1_555
S1A C1A 1_555 1_555
P1A C1A 1_555 1_555
C1A H1A 1_555 1_555
H2A C1A 1_555 1_555
C2A S1A 1_555 1_555
H3A C2A 1_555 1_555
H4A C2A 1_555 1_555
H5A C2A 1_555 1_555
O1A P1A 1_555 1_555
O2A Zn1 1_555 1_555
O2B Zn2 1_555 1_555
O2C Zn2A 1_555 1_555
O3A Zn1_2 1_555 1_555
O3_2 Zn1 1_555 1_555
O3A_2 Zn1 1_555 1_555
O4A S1A 1_555 1_555
O5A S1A 1_555 1_555
O6A Zn1 1_555 1_555
O6C Zn2 1_555 1_555
O6_2 Zn2 1_555 1_555
O6B Zn2A 1_555 1_555
O6A_2 Zn1_2 1_555 1_555
H6A O6A 1_555 1_555
H6C O6C 1_555 1_555
H6_2 O6_2 1_555 1_555
H6B O6B 1_555 1_555
H6A_2 O6A_2 1_555 1_555
Zn1_2 O6_2 1_555 1_555
Zn2A O6A_2 1_555 1_555
Zn2B O6A 1_555 1_555
Zn2B O6B 1_555 1_555
Zn2C O2A 1_555 1_555
Zn2C O6C 1_555 1_555
P1A O2A 1_555 1_555
P1A O3A 1_555 1_555

#END
