
#######################################################################
#
#                 Cambridge Crystallographic Data Centre
#                                CCDC 
#
#######################################################################
#
# If this CIF has been generated from an entry in the Cambridge 
# Structural Database, then it will include bibliographic, chemical, 
# crystal, experimental, refinement or atomic coordinate data resulting 
# from the CCDC's data processing and validation procedures.
#
#######################################################################

data_LAWPUU
_symmetry_cell_setting           monoclinic
_symmetry_space_group_name_H-M   'P 21/c'
_symmetry_Int_Tables_number      14
_space_group_name_Hall           '-P 2ybc'
loop_
_symmetry_equiv_pos_site_id
_symmetry_equiv_pos_as_xyz
1 x,y,z
2 -x,1/2+y,1/2-z
3 -x,-y,-z
4 x,1/2-y,1/2+z
_cell_length_a                   7.511(3)
_cell_length_b                   10.655(4)
_cell_length_c                   14.939(5)
_cell_angle_alpha                90
_cell_angle_beta                 100.99(3)
_cell_angle_gamma                90
_cell_volume                     1173.64
loop_
_atom_site_label
_atom_site_type_symbol
_atom_site_fract_x
_atom_site_fract_y
_atom_site_fract_z
Pb1 Pb 0.71120(4) 0.14165(3) 0.37416(2)
N1 N 0.3870(8) 0.1936(6) 0.3690(4)
S1 S 0.3371(3) 0.3412(2) 0.3706(2)
C1 C 0.2946(13) 0.3686(9) 0.4797(7)
O1 O 0.5006(8) 0.4074(5) 0.3631(4)
O2 O 0.1771(8) 0.3729(6) 0.3065(5)
S2 S 0.2234(3) 0.0907(2) 0.3442(1)
C2 C 0.1648(12) 0.0843(10) 0.2251(6)
O3 O 0.0658(7) 0.1321(5) 0.3790(4)
O4 O 0.2985(8) -0.0282(5) 0.3757(4)
C3 C 0.7129(12) -0.0616(8) 0.3962(6)
C4 C 0.8053(11) 0.2582(8) 0.4936(5)
C5 C 0.6940(13) 0.2063(9) 0.2332(5)
H1 H 0.2632 0.4553 0.4851
H2 H 0.1960 0.3165 0.4898
H3 H 0.4011 0.3494 0.5243
H4 H 0.0690 0.0243 0.2080
H5 H 0.1242 0.1654 0.2016
H6 H 0.2683 0.0593 0.2003
H7 H 0.8336 -0.0933 0.3995
H8 H 0.6735 -0.0788 0.4524
H9 H 0.6323 -0.1016 0.3468
H10 H 0.9350 0.2526 0.5100
H11 H 0.7706 0.3439 0.4801
H12 H 0.7523 0.2292 0.5435
H13 H 0.8093 0.1957 0.2154
H14 H 0.6039 0.1578 0.1936
H15 H 0.6605 0.2934 0.2288
O3_2 O 1.0658(7) 0.1321(5) 0.3790(4)
Pb1_2 Pb -0.28880(4) 0.14165(3) 0.37416(2)
loop_
_geom_bond_atom_site_label_1
_geom_bond_atom_site_label_2
_geom_bond_site_symmetry_1
_geom_bond_site_symmetry_2
Pb1 N1 1_555 1_555
N1 S1 1_555 1_555
S1 C1 1_555 1_555
C1 H1 1_555 1_555
O1 S1 1_555 1_555
O2 S1 1_555 1_555
S2 N1 1_555 1_555
C2 S2 1_555 1_555
O3 S2 1_555 1_555
O4 S2 1_555 1_555
C3 Pb1 1_555 1_555
C4 Pb1 1_555 1_555
C5 Pb1 1_555 1_555
H2 C1 1_555 1_555
H3 C1 1_555 1_555
H4 C2 1_555 1_555
H5 C2 1_555 1_555
H6 C2 1_555 1_555
H7 C3 1_555 1_555
H8 C3 1_555 1_555
H9 C3 1_555 1_555
H10 C4 1_555 1_555
H11 C4 1_555 1_555
H12 C4 1_555 1_555
H13 C5 1_555 1_555
H14 C5 1_555 1_555
H15 C5 1_555 1_555
O3_2 Pb1 1_555 1_555
Pb1_2 O3 1_555 1_555

#END
