
#######################################################################
#
#                 Cambridge Crystallographic Data Centre
#                                CCDC 
#
#######################################################################
#
# If this CIF has been generated from an entry in the Cambridge 
# Structural Database, then it will include bibliographic, chemical, 
# crystal, experimental, refinement or atomic coordinate data resulting 
# from the CCDC's data processing and validation procedures.
#
#######################################################################

data_LAWPIJ
_symmetry_cell_setting           monoclinic
_symmetry_space_group_name_H-M   'C 2/c'
_symmetry_Int_Tables_number      15
_space_group_name_Hall           '-C 2yn'
loop_
_symmetry_equiv_pos_site_id
_symmetry_equiv_pos_as_xyz
1 x,y,z
2 1/2+x,1/2+y,z
3 -x,y,1/2-z
4 1/2-x,1/2+y,1/2-z
5 -x,-y,-z
6 1/2-x,1/2-y,-z
7 x,-y,1/2+z
8 1/2+x,1/2-y,1/2+z
_cell_length_a                   12.2972(3)
_cell_length_b                   10.3781(3)
_cell_length_c                   19.1675(4)
_cell_angle_alpha                90
_cell_angle_beta                 103.598(2)
_cell_angle_gamma                90
_cell_volume                     2377.62
loop_
_atom_site_label
_atom_site_type_symbol
_atom_site_fract_x
_atom_site_fract_y
_atom_site_fract_z
Ag1 Ag 0.275634(13) 0.886057(15) 0.636249(8)
N1 N 0.34612(15) 0.99989(17) 0.72861(9)
C1 C 0.37342(19) 0.9398(2) 0.79263(12)
H1 H 0.3736 0.8482 0.7937
C2 C 0.40121(18) 1.0062(2) 0.85688(11)
H2 H 0.4210 0.9605 0.9010
C3 C 0.40014(16) 1.14017(19) 0.85674(11)
C4 C 0.37541(18) 1.2016(2) 0.79060(11)
H3 H 0.3769 1.2930 0.7882
C5 C 0.34851(19) 1.1294(2) 0.72780(12)
H4 H 0.3313 1.1729 0.6829
N2 N 0.31832(13) 1.25602(15) 0.94670(8)
C6 C 0.25091(16) 1.14011(17) 0.95563(10)
H5 H 0.2978 1.0799 0.9901
H6 H 0.2268 1.0952 0.9090
C7 C 0.35110(16) 1.32261(18) 1.01737(10)
H7 H 0.3994 1.2650 1.0527
H8 H 0.3947 1.4009 1.0125
C8 C 0.42317(16) 1.2153(2) 0.92631(11)
H9 H 0.4681 1.1613 0.9652
H10 H 0.4678 1.2927 0.9214
Ag1E Ag 0.224366(13) 1.613943(15) 1.363751(8)
Ag1C Ag 0.224366(13) 1.386057(15) 0.863751(8)
Ag1F Ag 0.275634(13) 1.113943(15) 1.136249(8)
N1E N 0.15388(15) 1.50011(17) 1.27139(9)
C1E C 0.12658(19) 1.5602(2) 1.20737(12)
H1E H 0.1264 1.6518 1.2063
C2E C 0.09879(18) 1.4938(2) 1.14312(11)
H2E H 0.0790 1.5395 1.0990
C3E C 0.09986(16) 1.35983(19) 1.14326(11)
C4E C 0.12459(18) 1.2984(2) 1.20940(11)
H3E H 0.1231 1.2070 1.2118
C5E C 0.15149(19) 1.3706(2) 1.27220(12)
H4E H 0.1687 1.3271 1.3171
N2E N 0.18168(13) 1.24398(15) 1.05330(8)
N2C N 0.18168(13) 0.75602(15) 0.55330(8)
N2F N 0.31832(13) 1.74398(15) 1.44670(8)
C6E C 0.24909(16) 1.35989(17) 1.04437(10)
H5E H 0.2022 1.4201 1.0099
H6E H 0.2732 1.4048 1.0910
C7E C 0.14890(16) 1.17739(18) 0.98263(10)
H7E H 0.1006 1.2350 0.9473
H8E H 0.1053 1.0991 0.9875
C8E C 0.07683(16) 1.2847(2) 1.07369(11)
H9E H 0.0319 1.3387 1.0348
H10E H 0.0322 1.2073 1.0786
As1 As 0.7500 0.2500 1.0000
F1 F 0.66615(15) 0.36274(16) 0.94943(11)
F2 F 0.67193(13) 0.12958(13) 0.94933(8)
F3 F 0.66250(16) 0.2449(2) 1.05690(10)
F1E F 0.83385(15) 0.13726(16) 1.05057(11)
F2E F 0.82807(13) 0.37042(13) 1.05067(8)
F3E F 0.83750(16) 0.2551(2) 0.94310(10)
As2 As 0.0000 0.92887(3) 0.2500
F4 F 0.1080(4) 0.8315(5) 0.2884(3)
F5 F 0.1118(4) 1.0242(5) 0.2915(3)
F6 F 0.0689(5) 0.8865(5) 0.1864(2)
F4B F -0.1080(4) 0.8315(5) 0.2116(3)
F5B F -0.1118(4) 1.0242(5) 0.2085(3)
F6B F -0.0689(5) 0.8865(5) 0.3136(2)
F7? F 0.0661(4) 0.9672(4) 0.1829(2)
F8? F 0.0606(4) 1.0542(4) 0.2999(2)
F9? F 0.0615(4) 0.8005(4) 0.3033(2)
loop_
_geom_bond_atom_site_label_1
_geom_bond_atom_site_label_2
_geom_bond_site_symmetry_1
_geom_bond_site_symmetry_2
Ag1 N1 1_555 1_555
N1 C1 1_555 1_555
C1 H1 1_555 1_555
C2 C1 1_555 1_555
H2 C2 1_555 1_555
C3 C2 1_555 1_555
C4 C3 1_555 1_555
H3 C4 1_555 1_555
C5 N1 1_555 1_555
H4 C5 1_555 1_555
N2 C6 1_555 1_555
C6 H5 1_555 1_555
H6 C6 1_555 1_555
C7 N2 1_555 1_555
H7 C7 1_555 1_555
H8 C7 1_555 1_555
C8 C3 1_555 1_555
H9 C8 1_555 1_555
H10 C8 1_555 1_555
As1 F1 1_555 1_555
F2 As1 1_555 1_555
F3 As1 1_555 1_555
As2 F4 1_555 1_555
F5 As2 1_555 1_555
F6 As2 1_555 1_555
Ag1E N1E 1_555 1_555
Ag1C N2 1_555 1_555
Ag1F N2E 1_555 1_555
N1E C1E 1_555 1_555
C1E H1E 1_555 1_555
C2E C1E 1_555 1_555
H2E C2E 1_555 1_555
C3E C2E 1_555 1_555
C4E C3E 1_555 1_555
H3E C4E 1_555 1_555
C5E N1E 1_555 1_555
H4E C5E 1_555 1_555
N2E C6E 1_555 1_555
N2C Ag1 1_555 1_555
N2F Ag1E 1_555 1_555
C6E C7 1_555 1_555
H5E C6E 1_555 1_555
H6E C6E 1_555 1_555
C7E C6 1_555 1_555
H7E C7E 1_555 1_555
H8E C7E 1_555 1_555
C8E C3E 1_555 1_555
H9E C8E 1_555 1_555
H10E C8E 1_555 1_555
F1E As1 1_555 1_555
F2E As1 1_555 1_555
F3E As1 1_555 1_555
F4B As2 1_555 1_555
F5B As2 1_555 1_555
F6B As2 1_555 1_555
C4 C5 1_555 1_555
N2 C8 1_555 1_555
C4E C5E 1_555 1_555
N2E C7E 1_555 1_555
N2E C8E 1_555 1_555

#END
