
#######################################################################
#
#                 Cambridge Crystallographic Data Centre
#                                CCDC 
#
#######################################################################
#
# If this CIF has been generated from an entry in the Cambridge 
# Structural Database, then it will include bibliographic, chemical, 
# crystal, experimental, refinement or atomic coordinate data resulting 
# from the CCDC's data processing and validation procedures.
#
#######################################################################

data_LAWPOP
_symmetry_cell_setting           monoclinic
_symmetry_space_group_name_H-M   'C 2/c'
_symmetry_Int_Tables_number      15
_space_group_name_Hall           '-C 2yn'
loop_
_symmetry_equiv_pos_site_id
_symmetry_equiv_pos_as_xyz
1 x,y,z
2 1/2+x,1/2+y,z
3 -x,y,1/2-z
4 1/2-x,1/2+y,1/2-z
5 -x,-y,-z
6 1/2-x,1/2-y,-z
7 x,-y,1/2+z
8 1/2+x,1/2-y,1/2+z
_cell_length_a                   12.3792(5)
_cell_length_b                   10.6135(3)
_cell_length_c                   19.1059(7)
_cell_angle_alpha                90
_cell_angle_beta                 101.732(2)
_cell_angle_gamma                90
_cell_volume                     2457.82
loop_
_atom_site_label
_atom_site_type_symbol
_atom_site_fract_x
_atom_site_fract_y
_atom_site_fract_z
Ag1 Ag 0.277173(19) 0.87725(2) 0.638607(10)
N1 N 0.3461(2) 0.9912(2) 0.72919(12)
C1 C 0.3754(3) 0.9368(3) 0.79351(15)
H1 H 0.3777 0.8474 0.7961
C2 C 0.4025(3) 1.0051(3) 0.85614(14)
H2 H 0.4240 0.9626 0.9005
C3 C 0.3983(2) 1.1349(3) 0.85440(14)
C4 C 0.3710(3) 1.1920(3) 0.78746(14)
H3 H 0.3700 1.2813 0.7836
C5 C 0.3452(3) 1.1177(3) 0.72633(15)
H4 H 0.3264 1.1577 0.6810
N2 N 0.31669(19) 1.2533(2) 0.94442(11)
C6 C 0.2512(2) 1.1406(2) 0.95751(13)
H5 H 0.2983 1.0840 0.9920
H6 H 0.2273 1.0938 0.9122
C7 C 0.3490(2) 1.3223(3) 1.01343(13)
H7 H 0.3976 1.2680 1.0486
H8 H 0.3911 1.3988 1.0061
C8 C 0.4205(2) 1.2125(3) 0.92222(14)
H9 H 0.4655 1.1622 0.9612
H10 H 0.4638 1.2880 0.9148
Ag1E Ag 0.222827(19) 1.62275(2) 1.361393(10)
Ag1C Ag 0.222827(19) 1.37725(2) 0.861393(10)
Ag1F Ag 0.277173(19) 1.12275(2) 1.138607(10)
N1E N 0.1539(2) 1.5088(2) 1.27081(12)
C1E C 0.1246(3) 1.5632(3) 1.20649(15)
H1E H 0.1223 1.6526 1.2039
C2E C 0.0975(3) 1.4949(3) 1.14386(14)
H2E H 0.0760 1.5374 1.0995
C3E C 0.1017(2) 1.3651(3) 1.14560(14)
C4E C 0.1290(3) 1.3080(3) 1.21254(14)
H3E H 0.1300 1.2187 1.2164
C5E C 0.1548(3) 1.3823(3) 1.27367(15)
H4E H 0.1736 1.3423 1.3190
N2E N 0.18331(19) 1.2467(2) 1.05558(11)
N2C N 0.18331(19) 0.7533(2) 0.55558(11)
N2F N 0.31669(19) 1.7467(2) 1.44442(11)
C6E C 0.2488(2) 1.3594(2) 1.04249(13)
H5E H 0.2017 1.4160 1.0080
H6E H 0.2727 1.4062 1.0878
C7E C 0.1510(2) 1.1777(3) 0.98657(13)
H7E H 0.1024 1.2320 0.9514
H8E H 0.1089 1.1012 0.9939
C8E C 0.0795(2) 1.2875(3) 1.07778(14)
H9E H 0.0345 1.3378 1.0388
H10E H 0.0362 1.2120 1.0852
Sb1 Sb 0.7500 0.2500 1.0000
F1 F 0.6523(2) 0.3706(2) 0.95389(17)
F2 F 0.66613(18) 0.12140(17) 0.94705(10)
F3 F 0.6653(3) 0.2336(3) 1.06883(14)
F1E F 0.8477(2) 0.1294(2) 1.04611(17)
F2E F 0.83387(18) 0.37860(17) 1.05295(10)
F3E F 0.8347(3) 0.2664(3) 0.93117(14)
Sb2 Sb 0.0000 0.93914(2) 0.2500
F4 F 0.1169(6) 0.8368(6) 0.2884(3)
F5 F 0.1230(6) 1.0374(6) 0.2949(3)
F6 F 0.0755(5) 0.8887(8) 0.1816(3)
F4B F -0.1169(6) 0.8368(6) 0.2116(3)
F5B F -0.1230(6) 1.0374(6) 0.2051(3)
F6B F -0.0755(5) 0.8887(8) 0.3184(3)
F7? F 0.0725(4) 0.9874(7) 0.1751(2)
F8? F 0.0607(7) 1.0750(4) 0.3029(3)
F9? F 0.0619(6) 0.8012(5) 0.3100(3)
loop_
_geom_bond_atom_site_label_1
_geom_bond_atom_site_label_2
_geom_bond_site_symmetry_1
_geom_bond_site_symmetry_2
Ag1 N1 1_555 1_555
N1 C1 1_555 1_555
C1 H1 1_555 1_555
C2 C1 1_555 1_555
H2 C2 1_555 1_555
C3 C2 1_555 1_555
C4 C3 1_555 1_555
H3 C4 1_555 1_555
C5 N1 1_555 1_555
H4 C5 1_555 1_555
N2 C6 1_555 1_555
C6 H5 1_555 1_555
H6 C6 1_555 1_555
C7 N2 1_555 1_555
H7 C7 1_555 1_555
H8 C7 1_555 1_555
C8 C3 1_555 1_555
H9 C8 1_555 1_555
H10 C8 1_555 1_555
Sb1 F1 1_555 1_555
F2 Sb1 1_555 1_555
F3 Sb1 1_555 1_555
Sb2 F4 1_555 1_555
F5 Sb2 1_555 1_555
F6 Sb2 1_555 1_555
Ag1E N1E 1_555 1_555
Ag1C N2 1_555 1_555
Ag1F N2E 1_555 1_555
N1E C1E 1_555 1_555
C1E H1E 1_555 1_555
C2E C1E 1_555 1_555
H2E C2E 1_555 1_555
C3E C2E 1_555 1_555
C4E C3E 1_555 1_555
H3E C4E 1_555 1_555
C5E N1E 1_555 1_555
H4E C5E 1_555 1_555
N2E C6E 1_555 1_555
N2C Ag1 1_555 1_555
N2F Ag1E 1_555 1_555
C6E C7 1_555 1_555
H5E C6E 1_555 1_555
H6E C6E 1_555 1_555
C7E C6 1_555 1_555
H7E C7E 1_555 1_555
H8E C7E 1_555 1_555
C8E C3E 1_555 1_555
H9E C8E 1_555 1_555
H10E C8E 1_555 1_555
F1E Sb1 1_555 1_555
F2E Sb1 1_555 1_555
F3E Sb1 1_555 1_555
F4B Sb2 1_555 1_555
F5B Sb2 1_555 1_555
F6B Sb2 1_555 1_555
C4 C5 1_555 1_555
N2 C8 1_555 1_555
C4E C5E 1_555 1_555
N2E C7E 1_555 1_555
N2E C8E 1_555 1_555

#END
