
#######################################################################
#
#                 Cambridge Crystallographic Data Centre
#                                CCDC 
#
#######################################################################
#
# If this CIF has been generated from an entry in the Cambridge 
# Structural Database, then it will include bibliographic, chemical, 
# crystal, experimental, refinement or atomic coordinate data resulting 
# from the CCDC's data processing and validation procedures.
#
#######################################################################

data_LAWPIK
_symmetry_cell_setting           triclinic
_symmetry_space_group_name_H-M   'P -1'
_symmetry_Int_Tables_number      2
_space_group_name_Hall           '-P 1'
loop_
_symmetry_equiv_pos_site_id
_symmetry_equiv_pos_as_xyz
1 x,y,z
2 -x,-y,-z
_cell_length_a                   11.497(9)
_cell_length_b                   11.516(8)
_cell_length_c                   13.410(9)
_cell_angle_alpha                72.647(17)
_cell_angle_beta                 88.166(18)
_cell_angle_gamma                88.029(16)
_cell_volume                     1693.22
loop_
_atom_site_label
_atom_site_type_symbol
_atom_site_fract_x
_atom_site_fract_y
_atom_site_fract_z
Eu1 Eu 0.755984(18) 0.061766(19) 0.163811(18)
C1 C 0.7325(4) 0.1338(4) -0.1474(4)
H1 H 0.6581 0.1066 -0.1250
C2 C 0.7478(4) 0.2232(4) -0.2404(4)
H2 H 0.6839 0.2569 -0.2809
C3 C 0.8593(4) 0.2637(4) -0.2743(3)
H3 H 0.8706 0.3264 -0.3359
C4 C 0.9536(4) 0.2079(4) -0.2136(3)
C5 C 0.9344(4) 0.1192(4) -0.1203(3)
H4 H 0.9970 0.0827 -0.0793
C6 C 1.0746(3) 0.2441(4) -0.2432(3)
C7 C 1.2227(4) 0.3592(4) -0.3108(3)
C8 C 1.2621(4) 0.2440(4) -0.2561(3)
C9 C 1.2808(4) 0.4739(4) -0.3702(4)
C10 C 1.3832(4) 0.1915(4) -0.2385(4)
C11 C 1.4200(4) -0.0116(5) 0.3757(4)
H5 H 1.4947 0.0154 0.3547
C12 C 1.4042(4) -0.1144(5) 0.4564(4)
H6 H 1.4685 -0.1572 0.4910
C13 C 1.2941(4) -0.1561(4) 0.4878(4)
H7 H 1.2840 -0.2260 0.5438
C14 C 1.1983(4) -0.0930(4) 0.4352(3)
C15 C 1.2173(4) 0.0139(4) 0.3545(4)
H8 H 1.1543 0.0596 0.3201
C16 C 1.0791(4) -0.1360(4) 0.4589(3)
C17 C 0.9335(4) -0.2559(4) 0.5265(3)
C18 C 0.8919(4) -0.1484(4) 0.4582(3)
C19 C 0.8783(4) -0.3704(4) 0.5871(4)
C20 C 0.7700(4) -0.1116(4) 0.4266(3)
C21 C 0.7257(4) 0.4064(4) 0.1728(4)
H9 H 0.8045 0.3871 0.1833
C22 C 0.6895(4) 0.5266(4) 0.1253(4)
H10 H 0.7438 0.5876 0.1036
C23 C 0.5723(4) 0.5542(4) 0.1109(3)
H11 H 0.5467 0.6340 0.0797
C24 C 0.4927(4) 0.4611(4) 0.1437(3)
C25 C 0.5335(4) 0.3434(4) 0.1903(3)
H12 H 0.4810 0.2807 0.2130
C26 C 0.3678(4) 0.4868(4) 0.1278(3)
C27 C 0.2041(4) 0.5750(4) 0.0764(3)
C28 C 0.1804(4) 0.4568(4) 0.1356(3)
C29 C 0.1230(4) 0.6731(4) 0.0181(3)
C30 C 0.0717(4) 0.3897(4) 0.1680(4)
N1 N 0.8247(3) 0.0851(3) -0.0882(3)
N2 N 1.1040(3) 0.3572(3) -0.3011(3)
H13 H 1.0615 0.4386 -0.3222
N3 N 1.1689(3) 0.1716(3) -0.2151(3)
N4 N 1.3264(3) 0.0516(3) 0.3259(3)
N5 N 0.9835(3) -0.0747(3) 0.4155(3)
N6 N 1.0517(3) -0.2461(3) 0.5250(3)
H14 H 1.1074 -0.3077 0.5572
N7 N 0.6474(3) 0.3191(3) 0.2030(3)
N8 N 0.3218(3) 0.5918(3) 0.0721(3)
N9 N 0.2850(3) 0.4021(3) 0.1663(3)
H15 H 0.3000 0.3251 0.2063
O1 O 0.8089(3) 0.0034(3) 0.0065(2)
O2 O 1.2228(3) 0.5651(3) -0.4089(3)
O3 O 1.3934(3) 0.4708(3) -0.3754(3)
H16 H 1.4177 0.4029 -0.3423
O4 O 1.4661(3) 0.2619(3) -0.2726(3)
O5 O 1.3933(3) 0.0806(3) -0.1894(3)
O6 O 1.3409(3) 0.1531(3) 0.2471(3)
O7 O 0.9379(3) -0.4591(3) 0.6306(3)
O8 O 0.7656(3) -0.3712(3) 0.5926(3)
H17 H 0.7393 -0.3040 0.5599
O9 O 0.7528(3) -0.0203(3) 0.3483(2)
O10 O 0.6899(3) -0.1743(3) 0.4810(3)
O11 O 0.6841(3) 0.2043(3) 0.2480(3)
O12 O 0.0757(3) 0.2813(3) 0.2159(3)
O13 O -0.0246(3) 0.4524(3) 0.1449(3)
H18 H -0.0103 0.5212 0.1075
O14 O 0.0139(3) 0.6597(3) 0.0370(3)
O15 O 0.1651(3) 0.7646(3) -0.0459(2)
O16 O 0.9504(3) 0.0790(3) 0.2162(2)
H19 H 0.9568 0.0362 0.2875
H20 H 0.9791 0.1467 0.2021
O17 O 0.6032(3) 0.1685(3) 0.0496(2)
H21 H 0.6161 0.2577 0.0059
H22 H 0.5412 0.1513 0.0396
Eu1A Eu 0.244016(18) 0.938234(19) -0.163811(18)
Eu1_2 Eu -0.244016(18) 1.061766(19) 0.163811(18)
Eu1A_2 Eu 1.244016(18) -0.061766(19) -0.163811(18)
C1A C 0.2675(4) 0.8662(4) 0.1474(4)
H1A H 0.3419 0.8934 0.1250
C2A C 0.2522(4) 0.7768(4) 0.2404(4)
H2A H 0.3161 0.7431 0.2809
C3A C 0.1407(4) 0.7363(4) 0.2743(3)
H3A H 0.1294 0.6736 0.3359
C4A C 0.0464(4) 0.7921(4) 0.2136(3)
C5A C 0.0656(4) 0.8808(4) 0.1203(3)
H4A H 0.0030 0.9173 0.0793
C6A C -0.0746(3) 0.7559(4) 0.2432(3)
C7A C -0.2227(4) 0.6408(4) 0.3108(3)
C8A C -0.2621(4) 0.7560(4) 0.2561(3)
C9A C -0.2808(4) 0.5261(4) 0.3702(4)
C10A C -0.3832(4) 0.8085(4) 0.2385(4)
C11A C -0.4200(4) 1.0116(5) -0.3757(4)
H5A H -0.4947 0.9846 -0.3547
C12A C -0.4042(4) 1.1144(5) -0.4564(4)
H6A H -0.4685 1.1572 -0.4910
C13A C -0.2941(4) 1.1561(4) -0.4878(4)
H7A H -0.2840 1.2260 -0.5438
C14A C -0.1983(4) 1.0930(4) -0.4352(3)
C15A C -0.2173(4) 0.9861(4) -0.3545(4)
H8A H -0.1543 0.9404 -0.3201
C16A C -0.0791(4) 1.1360(4) -0.4589(3)
C17A C 0.0665(4) 1.2559(4) -0.5265(3)
C18A C 0.1081(4) 1.1484(4) -0.4582(3)
C19A C 0.1217(4) 1.3704(4) -0.5871(4)
C20A C 0.2300(4) 1.1116(4) -0.4266(3)
C21A C 0.2743(4) 0.5936(4) -0.1728(4)
H9A H 0.1955 0.6129 -0.1833
C22A C 0.3105(4) 0.4734(4) -0.1253(4)
H10A H 0.2562 0.4124 -0.1036
C23A C 0.4277(4) 0.4458(4) -0.1109(3)
H11A H 0.4533 0.3660 -0.0797
C24A C 0.5073(4) 0.5389(4) -0.1437(3)
C25A C 0.4665(4) 0.6566(4) -0.1903(3)
H12A H 0.5190 0.7193 -0.2130
C26A C 0.6322(4) 0.5132(4) -0.1278(3)
C27A C 0.7959(4) 0.4250(4) -0.0764(3)
C28A C 0.8196(4) 0.5432(4) -0.1356(3)
C29A C 0.8770(4) 0.3269(4) -0.0181(3)
C30A C 0.9283(4) 0.6103(4) -0.1680(4)
N1A N 0.1753(3) 0.9149(3) 0.0882(3)
N2A N -0.1040(3) 0.6428(3) 0.3011(3)
H13A H -0.0615 0.5614 0.3222
N3A N -0.1689(3) 0.8284(3) 0.2151(3)
N3_2 N 0.1689(3) 1.1716(3) -0.2151(3)
N3A_2 N 0.8311(3) -0.1716(3) 0.2151(3)
N4A N -0.3264(3) 0.9484(3) -0.3259(3)
N5A N 0.0165(3) 1.0747(3) -0.4155(3)
N6A N -0.0517(3) 1.2461(3) -0.5250(3)
H14A H -0.1074 1.3077 -0.5572
N7A N 0.3526(3) 0.6809(3) -0.2030(3)
N8A N 0.6782(3) 0.4082(3) -0.0721(3)
N9A N 0.7150(3) 0.5979(3) -0.1663(3)
H15A H 0.7000 0.6749 -0.2063
O1A O 0.1911(3) 0.9966(3) -0.0065(2)
O2A O -0.2228(3) 0.4349(3) 0.4089(3)
O3A O -0.3934(3) 0.5292(3) 0.3754(3)
H16A H -0.4177 0.5971 0.3423
O4A O -0.4661(3) 0.7381(3) 0.2726(3)
O5A O -0.3933(3) 0.9194(3) 0.1894(3)
O5_2 O 0.3933(3) 1.0806(3) -0.1894(3)
O5A_2 O 0.6067(3) -0.0806(3) 0.1894(3)
O6A O -0.3409(3) 0.8469(3) -0.2471(3)
O7A O 0.0621(3) 1.4591(3) -0.6306(3)
O8A O 0.2344(3) 1.3712(3) -0.5926(3)
H17A H 0.2607 1.3040 -0.5599
O9A O 0.2472(3) 1.0203(3) -0.3483(2)
O10A O 0.3101(3) 1.1743(3) -0.4810(3)
O11A O 0.3159(3) 0.7957(3) -0.2480(3)
O12A O 0.9243(3) 0.7187(3) -0.2159(3)
O13A O 1.0246(3) 0.5476(3) -0.1449(3)
H18A H 1.0103 0.4788 -0.1075
O14A O 0.9861(3) 0.3403(3) -0.0370(3)
O15A O 0.8349(3) 0.2354(3) 0.0459(2)
O16A O 0.0496(3) 0.9210(3) -0.2162(2)
H19A H 0.0432 0.9638 -0.2875
H20A H 0.0209 0.8533 -0.2021
O17A O 0.3968(3) 0.8315(3) -0.0496(2)
H21A H 0.3839 0.7423 -0.0059
H22A H 0.4588 0.8487 -0.0396
O18 O 0.3648(4) 0.1601(4) 0.0383(4)
H23 H 0.3673 0.1640 0.1203
H24 H 0.3228 0.1074 0.0157
loop_
_geom_bond_atom_site_label_1
_geom_bond_atom_site_label_2
_geom_bond_site_symmetry_1
_geom_bond_site_symmetry_2
Eu1 O1 1_555 1_555
C1 H1 1_555 1_555
C2 C1 1_555 1_555
H2 C2 1_555 1_555
C3 C2 1_555 1_555
H3 C3 1_555 1_555
C4 C3 1_555 1_555
C5 C4 1_555 1_555
H4 C5 1_555 1_555
C6 C4 1_555 1_555
C7 C8 1_555 1_555
C8 C10 1_555 1_555
C9 C7 1_555 1_555
C10 O4 1_555 1_555
C11 H5 1_555 1_555
C12 C11 1_555 1_555
H6 C12 1_555 1_555
C13 C12 1_555 1_555
H7 C13 1_555 1_555
C14 C13 1_555 1_555
C15 C14 1_555 1_555
H8 C15 1_555 1_555
C16 C14 1_555 1_555
C17 C18 1_555 1_555
C18 C20 1_555 1_555
C19 C17 1_555 1_555
C20 O9 1_555 1_555
C21 H9 1_555 1_555
C22 C21 1_555 1_555
H10 C22 1_555 1_555
C23 C22 1_555 1_555
H11 C23 1_555 1_555
C24 C23 1_555 1_555
C25 C24 1_555 1_555
H12 C25 1_555 1_555
C26 C24 1_555 1_555
C27 C28 1_555 1_555
C28 C30 1_555 1_555
C29 C27 1_555 1_555
C30 O12 1_555 1_555
N1 C1 1_555 1_555
N2 C6 1_555 1_555
H13 N2 1_555 1_555
N3 C6 1_555 1_555
N4 C11 1_555 1_555
N5 C16 1_555 1_555
N6 C16 1_555 1_555
H14 N6 1_555 1_555
N7 C21 1_555 1_555
N8 C26 1_555 1_555
N9 C26 1_555 1_555
H15 N9 1_555 1_555
O1 N1 1_555 1_555
O2 C9 1_555 1_555
O3 C9 1_555 1_555
H16 O3 1_555 1_555
O5 C10 1_555 1_555
O6 N4 1_555 1_555
O7 C19 1_555 1_555
O8 C19 1_555 1_555
H17 O8 1_555 1_555
O9 Eu1 1_555 1_555
O10 C20 1_555 1_555
O11 Eu1 1_555 1_555
O13 C30 1_555 1_555
H18 O13 1_555 1_555
O14 C29 1_555 1_555
O15 C29 1_555 1_555
O16 Eu1 1_555 1_555
H19 O16 1_555 1_555
H20 O16 1_555 1_555
O17 Eu1 1_555 1_555
H21 O17 1_555 1_555
H22 O17 1_555 1_555
O18 H23 1_555 1_555
H24 O18 1_555 1_555
Eu1A O15 1_555 1_555
Eu1_2 N3A 1_555 1_555
Eu1A_2 N3 1_555 1_555
C1A H1A 1_555 1_555
C2A C1A 1_555 1_555
H2A C2A 1_555 1_555
C3A C2A 1_555 1_555
H3A C3A 1_555 1_555
C4A C3A 1_555 1_555
C5A C4A 1_555 1_555
H4A C5A 1_555 1_555
C6A C4A 1_555 1_555
C7A C8A 1_555 1_555
C8A C10A 1_555 1_555
C9A C7A 1_555 1_555
C10A O4A 1_555 1_555
C11A H5A 1_555 1_555
C12A C11A 1_555 1_555
H6A C12A 1_555 1_555
C13A C12A 1_555 1_555
H7A C13A 1_555 1_555
C14A C13A 1_555 1_555
C15A C14A 1_555 1_555
H8A C15A 1_555 1_555
C16A C14A 1_555 1_555
C17A C18A 1_555 1_555
C18A C20A 1_555 1_555
C19A C17A 1_555 1_555
C20A O9A 1_555 1_555
C21A H9A 1_555 1_555
C22A C21A 1_555 1_555
H10A C22A 1_555 1_555
C23A C22A 1_555 1_555
H11A C23A 1_555 1_555
C24A C23A 1_555 1_555
C25A C24A 1_555 1_555
H12A C25A 1_555 1_555
C26A C24A 1_555 1_555
C27A C28A 1_555 1_555
C28A C30A 1_555 1_555
C29A C27A 1_555 1_555
C30A O12A 1_555 1_555
N1A C1A 1_555 1_555
N2A C6A 1_555 1_555
H13A N2A 1_555 1_555
N3A C6A 1_555 1_555
N3_2 Eu1A 1_555 1_555
N3A_2 Eu1 1_555 1_555
N4A C11A 1_555 1_555
N5A C16A 1_555 1_555
N6A C16A 1_555 1_555
H14A N6A 1_555 1_555
N7A C21A 1_555 1_555
N8A C26A 1_555 1_555
N9A C26A 1_555 1_555
H15A N9A 1_555 1_555
O1A Eu1A 1_555 1_555
O2A C9A 1_555 1_555
O3A C9A 1_555 1_555
H16A O3A 1_555 1_555
O5A Eu1_2 1_555 1_555
O5_2 Eu1A 1_555 1_555
O5A_2 Eu1 1_555 1_555
O6A N4A 1_555 1_555
O7A C19A 1_555 1_555
O8A C19A 1_555 1_555
H17A O8A 1_555 1_555
O9A Eu1A 1_555 1_555
O10A C20A 1_555 1_555
O11A Eu1A 1_555 1_555
O13A C30A 1_555 1_555
H18A O13A 1_555 1_555
O14A C29A 1_555 1_555
O15A Eu1 1_555 1_555
O16A Eu1A 1_555 1_555
H19A O16A 1_555 1_555
H20A O16A 1_555 1_555
O17A Eu1A 1_555 1_555
H21A O17A 1_555 1_555
H22A O17A 1_555 1_555
C5 N1 1_555 1_555
C7 N2 1_555 1_555
C8 N3 1_555 1_555
C15 N4 1_555 1_555
C17 N6 1_555 1_555
C18 N5 1_555 1_555
C25 N7 1_555 1_555
C27 N8 1_555 1_555
C28 N9 1_555 1_555
N7 O11 1_555 1_555
O5 Eu1A_2 1_555 1_555
C5A N1A 1_555 1_555
C7A N2A 1_555 1_555
C8A N3A 1_555 1_555
C10A O5A 1_555 1_555
C15A N4A 1_555 1_555
C17A N6A 1_555 1_555
C18A N5A 1_555 1_555
C25A N7A 1_555 1_555
C27A N8A 1_555 1_555
C28A N9A 1_555 1_555
C29A O15A 1_555 1_555
N1A O1A 1_555 1_555
N7A O11A 1_555 1_555

#END
