
#######################################################################
#
#                 Cambridge Crystallographic Data Centre
#                                CCDC 
#
#######################################################################
#
# If this CIF has been generated from an entry in the Cambridge 
# Structural Database, then it will include bibliographic, chemical, 
# crystal, experimental, refinement or atomic coordinate data resulting 
# from the CCDC's data processing and validation procedures.
#
#######################################################################

data_LAWQEH
_symmetry_cell_setting           orthorhombic
_symmetry_space_group_name_H-M   'P b c a'
_symmetry_Int_Tables_number      61
_space_group_name_Hall           '-P 2ac 2ab'
loop_
_symmetry_equiv_pos_site_id
_symmetry_equiv_pos_as_xyz
1 x,y,z
2 1/2-x,-y,1/2+z
3 -x,1/2+y,1/2-z
4 1/2+x,1/2-y,-z
5 -x,-y,-z
6 1/2+x,y,1/2-z
7 x,1/2-y,1/2+z
8 1/2-x,1/2+y,z
_cell_length_a                   10.2117(14)
_cell_length_b                   7.7402(10)
_cell_length_c                   19.112(3)
_cell_angle_alpha                90
_cell_angle_beta                 90
_cell_angle_gamma                90
_cell_volume                     1510.62
loop_
_atom_site_label
_atom_site_type_symbol
_atom_site_fract_x
_atom_site_fract_y
_atom_site_fract_z
Ag1 Ag -0.92603(4) 0.08006(6) 0.29200(2)
Ag2 Ag -1.29899(5) 0.39148(6) 0.32499(2)
Br1 Br -1.10638(5) 0.18243(6) 0.38937(3)
S1 S -0.73165(12) -0.12596(14) 0.30587(7)
N1 N -0.4631(4) 0.1992(5) 0.3649(2)
N2 N -0.5217(4) 0.0956(5) 0.3142(2)
N3 N -0.6277(4) 0.0632(5) 0.4126(2)
C1 C -0.6213(4) 0.0161(5) 0.3434(2)
C2 C -0.5293(5) 0.1777(7) 0.4227(3)
H1 H -0.5114 0.2331 0.4648
C3 C -0.7255(6) 0.0081(8) 0.4635(3)
H2 H -0.7069 0.0600 0.5080
H3 H -0.7232 -0.1154 0.4679
H4 H -0.8109 0.0434 0.4480
Ag1G Ag -0.57397(4) -0.41994(6) 0.29200(2)
Ag1E Ag -0.42603(4) 0.08006(6) 0.20800(2)
Ag2G Ag -1.20101(5) -0.10852(6) 0.32499(2)
Ag2B Ag -0.70101(5) -0.10852(6) 0.17501(2)
Ag2_2 Ag -0.29899(5) 0.39148(6) 0.32499(2)
Br1G Br -1.39362(5) 0.68243(6) 0.38937(3)
S1G S -0.76835(12) 0.37404(14) 0.30587(7)
S1B S -1.26835(12) 0.37404(14) 0.19413(7)
N1_2 N -1.4631(4) 0.1992(5) 0.3649(2)
N2E N -1.0217(4) 0.0956(5) 0.1858(2)
loop_
_geom_bond_atom_site_label_1
_geom_bond_atom_site_label_2
_geom_bond_site_symmetry_1
_geom_bond_site_symmetry_2
Ag1 Br1 1_555 1_555
Ag2 Br1 1_555 1_555
Br1 Ag2G 1_555 1_555
S1 Ag1 1_555 1_555
N1 N2 1_555 1_555
N2 C1 1_555 1_555
N3 C1 1_555 1_555
C1 S1 1_555 1_555
C2 N1 1_555 1_555
H1 C2 1_555 1_555
C3 N3 1_555 1_555
H2 C3 1_555 1_555
H3 C3 1_555 1_555
H4 C3 1_555 1_555
Ag1G S1 1_555 1_555
Ag1E N2 1_555 1_555
Ag2B S1 1_555 1_555
Ag2_2 N1 1_555 1_555
Br1G Ag2 1_555 1_555
S1G Ag1 1_555 1_555
S1B Ag2 1_555 1_555
N1_2 Ag2 1_555 1_555
N2E Ag1 1_555 1_555
N3 C2 1_555 1_555

#END
