
#######################################################################
#
#                 Cambridge Crystallographic Data Centre
#                                CCDC 
#
#######################################################################
#
# If this CIF has been generated from an entry in the Cambridge 
# Structural Database, then it will include bibliographic, chemical, 
# crystal, experimental, refinement or atomic coordinate data resulting 
# from the CCDC's data processing and validation procedures.
#
#######################################################################

data_LAWRAD
_symmetry_cell_setting           triclinic
_symmetry_space_group_name_H-M   'P -1'
_symmetry_Int_Tables_number      2
_space_group_name_Hall           '-P 1'
loop_
_symmetry_equiv_pos_site_id
_symmetry_equiv_pos_as_xyz
1 x,y,z
2 -x,-y,-z
_cell_length_a                   10.146(2)
_cell_length_b                   16.320(3)
_cell_length_c                   19.274(4)
_cell_angle_alpha                97.74(3)
_cell_angle_beta                 95.75(3)
_cell_angle_gamma                95.05(3)
_cell_volume                     3129.73
loop_
_atom_site_label
_atom_site_type_symbol
_atom_site_fract_x
_atom_site_fract_y
_atom_site_fract_z
Sr1 Sr 0.03962(4) 0.57600(2) 0.412995(18)
Sr2 Sr -0.05743(4) 0.73941(2) 0.257710(19)
Sr3 Sr 1.01331(4) 0.89327(2) 0.086850(19)
F1 F -0.3998(3) 1.09128(16) 0.34790(13)
F2 F 0.4128(3) 0.23330(17) 0.31030(13)
F3 F 0.5937(3) 1.43151(15) 0.01606(12)
O1 O 1.0078(4) 1.04477(18) 0.13643(17)
O2 O 0.2632(3) 0.64111(19) 0.37422(17)
O3 O 0.7553(3) 0.8766(3) 0.0753(2)
O4 O -0.2801(3) 0.68000(18) 0.30054(16)
O5 O 0.2045(3) 0.7585(2) 0.26931(18)
O6 O 1.2302(3) 0.96418(17) 0.04821(17)
O7 O 0.0106(3) 0.72917(17) 0.38374(15)
O9 O -0.0424(4) 0.59759(19) 0.17503(16)
O11 O -0.2230(3) 0.5655(2) 0.40535(18)
O13 O -0.1041(3) 0.86551(17) 0.33988(15)
O14 O 0.0325(4) 0.72271(19) 0.49679(16)
O15 O 0.8375(3) 0.8153(2) 0.16155(18)
O16 O 0.9057(3) 1.21490(16) -0.00197(15)
O17 O 1.0604(3) 1.09079(19) 0.03887(15)
O18 O 0.1192(3) 0.8214(2) 0.18405(17)
O19 O -0.0302(3) 0.58425(19) 0.28651(15)
O20 O -0.1401(3) 0.5006(2) 0.48994(16)
O21 O 0.1036(3) 0.45308(16) 0.32853(14)
N1 N -0.5203(4) 1.2938(2) 0.55176(19)
H1 H -0.5062 1.3396 0.5805
N2 N -0.4290(4) 1.1449(2) 0.48727(18)
N3 N -0.1437(4) 0.9340(2) 0.54891(18)
C1 C -0.1403(6) 0.9648(4) 0.6234(3)
H2 H -0.0840 1.0170 0.6402
C2 C -0.2651(7) 0.9554(5) 0.6538(4)
H3 H -0.3418 0.9256 0.6240
H4 H -0.2851 1.0007 0.6878
C3 C -0.1503(7) 0.9061(4) 0.6749(3)
H5 H -0.1015 0.9223 0.7213
H6 H -0.1583 0.8471 0.6574
N4 N 0.5081(4) 0.0255(2) 0.10337(18)
H7 H 0.4925 -0.0218 0.0768
N5 N 0.4239(4) 0.17744(19) 0.16924(17)
N6 N 0.1338(3) 0.3895(2) 0.11733(17)
N7 N 0.4644(3) 1.61766(19) 0.22721(17)
H8 H 0.4773 1.6623 0.2574
N8 N 0.5548(4) 1.47158(19) 0.15654(17)
N9 N 0.8298(4) 1.2503(2) 0.20434(19)
C4 C 0.7763(8) 1.2518(4) 0.2751(3)
H9 H 0.6825 1.2307 0.2737
C5 C 0.8197(10) 1.3183(4) 0.3238(4)
H10 H 0.8843 1.3598 0.3116
H11 H 0.7571 1.3398 0.3547
C6 C 0.8637(7) 1.2321(4) 0.3314(3)
H12 H 0.8261 1.2018 0.3659
H13 H 0.9538 1.2218 0.3227
C7 C -0.0024(4) 0.7585(2) 0.4458(2)
C8 C -0.0634(4) 0.8392(2) 0.4590(2)
C9 C -0.1159(4) 0.8829(2) 0.4037(2)
C10 C -0.1889(4) 0.9531(2) 0.4276(2)
C11 C -0.2540(5) 0.9957(2) 0.3775(2)
H14 H -0.2444 0.9822 0.3300
C12 C -0.3309(5) 1.0563(2) 0.3985(2)
C13 C -0.3455(5) 1.0832(2) 0.4694(2)
C14 C -0.2786(5) 1.0424(3) 0.5185(2)
H15 H -0.2840 1.0589 0.5662
C15 C -0.2035(4) 0.9773(2) 0.4986(2)
C16 C -0.0782(5) 0.8679(3) 0.5271(2)
H16 H -0.0402 0.8398 0.5617
C17 C -0.3941(5) 1.2261(2) 0.4643(2)
H17 H -0.3837 1.2178 0.4144
H18 H -0.3099 1.2515 0.4897
C18 C -0.5012(5) 1.2838(3) 0.4775(2)
H19 H -0.4751 1.3375 0.4640
H20 H -0.5841 1.2607 0.4494
C19 C -0.5675(5) 1.2126(3) 0.5693(2)
H21 H -0.6474 1.1897 0.5384
H22 H -0.5890 1.2185 0.6175
C20 C -0.4600(5) 1.1549(2) 0.5606(2)
H23 H -0.3805 1.1775 0.5919
H24 H -0.4898 1.1011 0.5729
C21 C -0.0127(4) 0.5584(2) 0.2247(2)
C22 C 0.0532(4) 0.4797(2) 0.2095(2)
C23 C 0.1113(4) 0.4367(2) 0.2638(2)
C24 C 0.1866(4) 0.3683(2) 0.2376(2)
C25 C 0.2592(5) 0.3267(2) 0.2856(2)
H25 H 0.2553 0.3405 0.3337
C26 C 0.3355(5) 0.2663(2) 0.2620(2)
C27 C 0.3423(4) 0.2394(2) 0.1893(2)
C28 C 0.2699(4) 0.2796(2) 0.1425(2)
H26 H 0.2693 0.2628 0.0944
C29 C 0.1967(4) 0.3455(2) 0.1658(2)
C30 C 0.0664(4) 0.4535(2) 0.1408(2)
H27 H 0.0259 0.4820 0.1072
C31 C 0.1401(4) 0.3658(3) 0.0415(2)
H28 H 0.0834 0.3158 0.0187
C32 C 0.2705(5) 0.3815(3) 0.0142(3)
H29 H 0.2926 0.3415 -0.0237
H30 H 0.3456 0.4068 0.0477
C33 C 0.1599(5) 0.4341(3) -0.0021(2)
H31 H 0.1684 0.4909 0.0216
H32 H 0.1153 0.4256 -0.0498
C34 C 0.3958(5) 0.0976(2) 0.1955(2)
H33 H 0.3094 0.0712 0.1738
H34 H 0.3929 0.1078 0.2461
C35 C 0.5004(5) 0.0400(3) 0.1794(2)
H35 H 0.5862 0.0644 0.2036
H36 H 0.4783 -0.0125 0.1960
C36 C 0.5470(5) 0.1050(3) 0.0802(2)
H37 H 0.5565 0.0961 0.0302
H38 H 0.6322 0.1289 0.1053
C37 C 0.4422(5) 0.1648(2) 0.0940(2)
H39 H 0.4698 0.2177 0.0795
H40 H 0.3583 0.1424 0.0665
C38 C 1.0040(4) 1.0972(2) 0.0942(2)
C39 C 0.9286(4) 1.1711(2) 0.1115(2)
C40 C 0.8821(4) 1.2221(2) 0.0609(2)
C41 C 0.7997(4) 1.2857(2) 0.0870(2)
C42 C 0.7387(4) 1.3339(2) 0.0405(2)
H41 H 0.7530 1.3261 -0.0068
C43 C 0.6590(4) 1.3917(2) 0.0639(2)
C44 C 0.6371(4) 1.4100(2) 0.1353(2)
C45 C 0.6963(5) 1.3622(3) 0.1812(2)
H42 H 0.6836 1.3715 0.2287
C46 C 0.7754(5) 1.2998(2) 0.1576(2)
C47 C 0.9004(5) 1.1882(3) 0.1792(2)
H43 H 0.9322 1.1543 0.2109
C48 C 0.5928(5) 1.5548(2) 0.1383(2)
H44 H 0.6761 1.5784 0.1657
H45 H 0.6057 1.5500 0.0888
C49 C 0.4858(5) 1.6113(2) 0.1531(2)
H46 H 0.4036 1.5893 0.1238
H47 H 0.5124 1.6660 0.1417
C50 C 0.4169(4) 1.5345(2) 0.2414(2)
H48 H 0.3964 1.5376 0.2897
H49 H 0.3363 1.5134 0.2104
C51 C 0.5239(4) 1.4769(2) 0.2292(2)
H50 H 0.4936 1.4221 0.2390
H51 H 0.6036 1.4976 0.2611
C52 C 0.6053(4) 0.8322(2) 0.1523(2)
C53 C 0.4940(4) 0.8244(2) 0.1034(2)
H52 H 0.5042 0.8259 0.0562
C54 C 0.3669(4) 0.8146(2) 0.1242(2)
H53 H 0.2923 0.8103 0.0912
C55 C 0.3523(4) 0.8112(2) 0.1951(2)
C56 C 0.4652(4) 0.8203(2) 0.2438(2)
H54 H 0.4559 0.8195 0.2912
C57 C 0.5914(4) 0.8303(2) 0.2225(2)
H55 H 0.6663 0.8358 0.2554
C58 C 0.7427(4) 0.8413(3) 0.1275(2)
C59 C 0.2159(4) 0.7970(3) 0.2180(2)
C60 C -0.2350(4) 0.5276(2) 0.4571(2)
C61 C -0.3722(4) 0.5133(2) 0.4799(2)
C62 C -0.3886(4) 0.5086(2) 0.5498(2)
H56 H -0.3146 0.5140 0.5834
C63 C -0.4836(4) 0.5041(2) 0.4302(2)
H57 H -0.4728 0.5065 0.3831
Sr1A Sr -1.03962(4) 0.42400(2) 0.587005(18)
Sr1A_2 Sr -0.03962(4) 0.42400(2) 0.587005(18)
Sr1_2 Sr -0.96038(4) 0.57600(2) 0.412995(18)
Sr2_2 Sr -1.05743(4) 0.73941(2) 0.257710(19)
Sr2_3 Sr 0.94257(4) 0.73941(2) 0.257710(19)
Sr2A Sr -0.94257(4) 0.26059(2) 0.742290(19)
Sr3_2 Sr 0.01331(4) 0.89327(2) 0.086850(19)
Sr3A Sr 0.98669(4) 1.10673(2) -0.086850(19)
Sr3_3 Sr -0.98669(4) 0.89327(2) 0.086850(19)
F1A F -0.6002(3) -0.09128(16) 0.65210(13)
F2A F -1.4128(3) 0.76670(17) 0.68970(13)
F3A F 1.4063(3) 0.56849(15) -0.01606(12)
O1A O 0.9922(4) 0.95523(18) -0.13643(17)
O1_2 O 0.0078(4) 1.04477(18) 0.13643(17)
O2A O -1.2632(3) 0.35889(19) 0.62578(17)
O3_2 O -0.2447(3) 0.8766(3) 0.0753(2)
O4_2 O -1.2801(3) 0.68000(18) 0.30054(16)
O5_2 O -0.7955(3) 0.7585(2) 0.26931(18)
O6_2 O 0.2302(3) 0.96418(17) 0.04821(17)
O7A O -1.0106(3) 0.27083(17) 0.61626(15)
O7_2 O -0.9894(3) 0.72917(17) 0.38374(15)
O9A O -0.9576(4) 0.40241(19) 0.82497(16)
O9_2 O -1.0424(4) 0.59759(19) 0.17503(16)
O11A O -0.7770(3) 0.4345(2) 0.59465(18)
O13A O -0.8959(3) 0.13449(17) 0.66012(15)
O13_2 O -1.1041(3) 0.86551(17) 0.33988(15)
O14A O -1.0325(4) 0.27729(19) 0.50321(16)
O15_2 O -0.1625(3) 0.8153(2) 0.16155(18)
O15_3 O -1.1625(3) 0.8153(2) 0.16155(18)
O16A O 1.0943(3) 0.78510(16) 0.00197(15)
O16A_2 O 0.0943(3) 0.78510(16) 0.00197(15)
O17A O 0.9396(3) 0.90921(19) -0.03887(15)
O17A_2 O -0.0604(3) 0.90921(19) -0.03887(15)
O18_2 O -0.8808(3) 0.8214(2) 0.18405(17)
O18_3 O 1.1192(3) 0.8214(2) 0.18405(17)
O19A O -0.9698(3) 0.41575(19) 0.71349(15)
O19_2 O -1.0302(3) 0.58425(19) 0.28651(15)
O20A O -0.8599(3) 0.4994(2) 0.51006(16)
O20A_2 O 0.1401(3) 0.4994(2) 0.51006(16)
O20_2 O -1.1401(3) 0.5006(2) 0.48994(16)
O21A O -1.1036(3) 0.54692(16) 0.67147(14)
N1A N -0.4797(4) -0.2938(2) 0.44824(19)
H1A H -0.4938 -0.3396 0.4195
N2A N -0.5710(4) -0.1449(2) 0.51273(18)
N3A N -0.8563(4) 0.0660(2) 0.45109(18)
C1A C -0.8597(6) 0.0352(4) 0.3766(3)
H2A H -0.9160 -0.0170 0.3598
C2A C -0.7349(7) 0.0446(5) 0.3462(4)
H3A H -0.6582 0.0744 0.3760
H4A H -0.7149 -0.0007 0.3122
C3A C -0.8497(7) 0.0939(4) 0.3251(3)
H5A H -0.8985 0.0777 0.2787
H6A H -0.8417 0.1529 0.3426
N4A N -1.5081(4) 0.9745(2) 0.89663(18)
H7A H -1.4925 1.0218 0.9232
N5A N -1.4239(4) 0.82256(19) 0.83076(17)
N6A N -1.1338(3) 0.6105(2) 0.88267(17)
N7A N 1.5356(3) 0.38234(19) -0.22721(17)
H8A H 1.5227 0.3377 -0.2574
N8A N 1.4452(4) 0.52842(19) -0.15654(17)
N9A N 1.1702(4) 0.7497(2) -0.20434(19)
C4A C 1.2237(8) 0.7482(4) -0.2751(3)
H9A H 1.3175 0.7693 -0.2737
C5A C 1.1803(10) 0.6817(4) -0.3238(4)
H10A H 1.1157 0.6402 -0.3116
H11A H 1.2429 0.6602 -0.3547
C6A C 1.1363(7) 0.7679(4) -0.3314(3)
H12A H 1.1739 0.7982 -0.3659
H13A H 1.0462 0.7782 -0.3227
C7A C -0.9976(4) 0.2415(2) 0.5542(2)
C8A C -0.9366(4) 0.1608(2) 0.5410(2)
C9A C -0.8841(4) 0.1171(2) 0.5963(2)
C10A C -0.8111(4) 0.0469(2) 0.5724(2)
C11A C -0.7460(5) 0.0043(2) 0.6225(2)
H14A H -0.7556 0.0178 0.6700
C12A C -0.6691(5) -0.0563(2) 0.6015(2)
C13A C -0.6545(5) -0.0832(2) 0.5306(2)
C14A C -0.7214(5) -0.0424(3) 0.4815(2)
H15A H -0.7160 -0.0589 0.4338
C15A C -0.7965(4) 0.0227(2) 0.5014(2)
C16A C -0.9218(5) 0.1321(3) 0.4729(2)
H16A H -0.9598 0.1602 0.4383
C17A C -0.6059(5) -0.2261(2) 0.5357(2)
H17A H -0.6163 -0.2178 0.5856
H18A H -0.6901 -0.2515 0.5103
C18A C -0.4988(5) -0.2838(3) 0.5225(2)
H19A H -0.5249 -0.3375 0.5360
H20A H -0.4159 -0.2607 0.5506
C19A C -0.4325(5) -0.2126(3) 0.4307(2)
H21A H -0.3526 -0.1897 0.4616
H22A H -0.4110 -0.2185 0.3825
C20A C -0.5400(5) -0.1549(2) 0.4394(2)
H23A H -0.6195 -0.1775 0.4081
H24A H -0.5102 -0.1011 0.4271
C21A C -0.9873(4) 0.4416(2) 0.7753(2)
C22A C -1.0532(4) 0.5203(2) 0.7905(2)
C23A C -1.1113(4) 0.5633(2) 0.7362(2)
C24A C -1.1866(4) 0.6317(2) 0.7624(2)
C25A C -1.2592(5) 0.6733(2) 0.7144(2)
H25A H -1.2553 0.6595 0.6663
C26A C -1.3355(5) 0.7337(2) 0.7380(2)
C27A C -1.3423(4) 0.7606(2) 0.8107(2)
C28A C -1.2699(4) 0.7204(2) 0.8575(2)
H26A H -1.2693 0.7372 0.9056
C29A C -1.1967(4) 0.6545(2) 0.8342(2)
C30A C -1.0664(4) 0.5465(2) 0.8592(2)
H27A H -1.0259 0.5180 0.8928
C31A C -1.1401(4) 0.6342(3) 0.9585(2)
H28A H -1.0834 0.6842 0.9813
C32A C -1.2705(5) 0.6185(3) 0.9858(3)
H29A H -1.2926 0.6585 1.0237
H30A H -1.3456 0.5932 0.9523
C33A C -1.1599(5) 0.5659(3) 1.0021(2)
H31A H -1.1684 0.5091 0.9784
H32A H -1.1153 0.5744 1.0498
C34A C -1.3958(5) 0.9024(2) 0.8045(2)
H33A H -1.3094 0.9288 0.8262
H34A H -1.3929 0.8922 0.7539
C35A C -1.5004(5) 0.9600(3) 0.8206(2)
H35A H -1.5862 0.9356 0.7964
H36A H -1.4783 1.0125 0.8040
C36A C -1.5470(5) 0.8950(3) 0.9198(2)
H37A H -1.5565 0.9039 0.9698
H38A H -1.6322 0.8711 0.8947
C37A C -1.4422(5) 0.8352(2) 0.9060(2)
H39A H -1.4698 0.7823 0.9205
H40A H -1.3583 0.8576 0.9335
C38A C 0.9960(4) 0.9028(2) -0.0942(2)
C39A C 1.0714(4) 0.8289(2) -0.1115(2)
C40A C 1.1179(4) 0.7779(2) -0.0609(2)
C41A C 1.2003(4) 0.7143(2) -0.0870(2)
C42A C 1.2613(4) 0.6661(2) -0.0405(2)
H41A H 1.2470 0.6739 0.0068
C43A C 1.3410(4) 0.6083(2) -0.0639(2)
C44A C 1.3629(4) 0.5900(2) -0.1353(2)
C45A C 1.3037(5) 0.6378(3) -0.1812(2)
H42A H 1.3164 0.6285 -0.2287
C46A C 1.2246(5) 0.7002(2) -0.1576(2)
C47A C 1.0996(5) 0.8118(3) -0.1792(2)
H43A H 1.0678 0.8457 -0.2109
C48A C 1.4072(5) 0.4452(2) -0.1383(2)
H44A H 1.3239 0.4216 -0.1657
H45A H 1.3943 0.4500 -0.0888
C49A C 1.5142(5) 0.3887(2) -0.1531(2)
H46A H 1.5964 0.4107 -0.1238
H47A H 1.4876 0.3340 -0.1417
C50A C 1.5831(4) 0.4655(2) -0.2414(2)
H48A H 1.6036 0.4624 -0.2897
H49A H 1.6637 0.4866 -0.2104
C51A C 1.4761(4) 0.5231(2) -0.2292(2)
H50A H 1.5064 0.5779 -0.2390
H51A H 1.3964 0.5024 -0.2611
C52_2 C -0.3947(4) 0.8322(2) 0.1523(2)
C53_2 C -0.5060(4) 0.8244(2) 0.1034(2)
H52_2 H -0.4958 0.8259 0.0562
C54_2 C -0.6331(4) 0.8146(2) 0.1242(2)
H53_2 H -0.7077 0.8103 0.0912
C55_2 C -0.6477(4) 0.8112(2) 0.1951(2)
C56_2 C -0.5348(4) 0.8203(2) 0.2438(2)
H54_2 H -0.5441 0.8195 0.2912
C57_2 C -0.4086(4) 0.8303(2) 0.2225(2)
H55_2 H -0.3337 0.8358 0.2554
C58_2 C -0.2573(4) 0.8413(3) 0.1275(2)
C59_2 C -0.7841(4) 0.7970(3) 0.2180(2)
C60A C -0.7650(4) 0.4724(2) 0.5429(2)
C61A C -0.6278(4) 0.4867(2) 0.5201(2)
C62A C -0.6114(4) 0.4914(2) 0.4502(2)
H56A H -0.6854 0.4860 0.4166
C63A C -0.5164(4) 0.4959(2) 0.5698(2)
H57A H -0.5272 0.4935 0.6169
O8 O 0.1519(13) 0.3143(6) 0.4233(6)
O10 O 0.139(3) 0.6370(15) 0.0958(14)
O12 O -0.143(3) 1.0046(15) 0.2353(13)
loop_
_geom_bond_atom_site_label_1
_geom_bond_atom_site_label_2
_geom_bond_site_symmetry_1
_geom_bond_site_symmetry_2
Sr1 O2 1_555 1_555
Sr2 O4 1_555 1_555
Sr3 O1 1_555 1_555
F1 C12 1_555 1_555
F2 C26 1_555 1_555
F3 C43 1_555 1_555
O1 C38 1_555 1_555
O3 Sr3 1_555 1_555
O5 Sr2 1_555 1_555
O6 Sr3 1_555 1_555
O7 Sr1 1_555 1_555
O9 Sr2 1_555 1_555
O11 Sr1 1_555 1_555
O13 Sr2 1_555 1_555
O14 Sr1 1_555 1_555
O15 Sr3 1_555 1_555
O16 C40 1_555 1_555
O17 C38 1_555 1_555
O18 Sr2 1_555 1_555
O19 Sr1 1_555 1_555
O20 Sr1 1_555 1_555
O21 Sr1 1_555 1_555
N1 H1 1_555 1_555
N2 C13 1_555 1_555
N3 C1 1_555 1_555
C1 H2 1_555 1_555
C2 C1 1_555 1_555
H3 C2 1_555 1_555
H4 C2 1_555 1_555
C3 C1 1_555 1_555
H5 C3 1_555 1_555
H6 C3 1_555 1_555
N4 H7 1_555 1_555
N5 C27 1_555 1_555
N6 C29 1_555 1_555
N7 H8 1_555 1_555
N8 C44 1_555 1_555
N9 C4 1_555 1_555
C4 H9 1_555 1_555
C5 C4 1_555 1_555
H10 C5 1_555 1_555
H11 C5 1_555 1_555
C6 C4 1_555 1_555
H12 C6 1_555 1_555
H13 C6 1_555 1_555
C7 O7 1_555 1_555
C8 C7 1_555 1_555
C9 O13 1_555 1_555
C10 C9 1_555 1_555
C11 C10 1_555 1_555
H14 C11 1_555 1_555
C12 C11 1_555 1_555
C13 C12 1_555 1_555
C14 C13 1_555 1_555
H15 C14 1_555 1_555
C15 N3 1_555 1_555
C16 N3 1_555 1_555
H16 C16 1_555 1_555
C17 N2 1_555 1_555
H17 C17 1_555 1_555
H18 C17 1_555 1_555
C18 N1 1_555 1_555
H19 C18 1_555 1_555
H20 C18 1_555 1_555
C19 N1 1_555 1_555
H21 C19 1_555 1_555
H22 C19 1_555 1_555
C20 N2 1_555 1_555
H23 C20 1_555 1_555
H24 C20 1_555 1_555
C21 O9 1_555 1_555
C22 C21 1_555 1_555
C23 O21 1_555 1_555
C24 C23 1_555 1_555
C25 C24 1_555 1_555
H25 C25 1_555 1_555
C26 C25 1_555 1_555
C27 C26 1_555 1_555
C28 C27 1_555 1_555
H26 C28 1_555 1_555
C29 C24 1_555 1_555
C30 N6 1_555 1_555
H27 C30 1_555 1_555
C31 N6 1_555 1_555
H28 C31 1_555 1_555
C32 C31 1_555 1_555
H29 C32 1_555 1_555
H30 C32 1_555 1_555
C33 C31 1_555 1_555
H31 C33 1_555 1_555
H32 C33 1_555 1_555
C34 N5 1_555 1_555
H33 C34 1_555 1_555
H34 C34 1_555 1_555
C35 N4 1_555 1_555
H35 C35 1_555 1_555
H36 C35 1_555 1_555
C36 N4 1_555 1_555
H37 C36 1_555 1_555
H38 C36 1_555 1_555
C37 N5 1_555 1_555
H39 C37 1_555 1_555
H40 C37 1_555 1_555
C38 C39 1_555 1_555
C39 C40 1_555 1_555
C40 C41 1_555 1_555
C41 C42 1_555 1_555
C42 H41 1_555 1_555
C43 C42 1_555 1_555
C44 C43 1_555 1_555
C45 C44 1_555 1_555
H42 C45 1_555 1_555
C46 N9 1_555 1_555
C47 N9 1_555 1_555
H43 C47 1_555 1_555
C48 N8 1_555 1_555
H44 C48 1_555 1_555
H45 C48 1_555 1_555
C49 N7 1_555 1_555
H46 C49 1_555 1_555
H47 C49 1_555 1_555
C50 N7 1_555 1_555
H48 C50 1_555 1_555
H49 C50 1_555 1_555
C51 N8 1_555 1_555
H50 C51 1_555 1_555
H51 C51 1_555 1_555
C52 C53 1_555 1_555
C53 H52 1_555 1_555
C54 C53 1_555 1_555
H53 C54 1_555 1_555
C55 C54 1_555 1_555
C56 C55 1_555 1_555
H54 C56 1_555 1_555
C57 C52 1_555 1_555
H55 C57 1_555 1_555
C58 O3 1_555 1_555
C59 O5 1_555 1_555
C60 O11 1_555 1_555
C61 C60 1_555 1_555
C62 C61 1_555 1_555
H56 C62 1_555 1_555
C63 C61 1_555 1_555
H57 C63 1_555 1_555
Sr1A O2A 1_555 1_555
Sr1A_2 O20 1_555 1_555
Sr1_2 O7_2 1_555 1_555
Sr2_2 O4_2 1_555 1_555
Sr2_3 O15 1_555 1_555
Sr2A O7A 1_555 1_555
Sr3_2 O18 1_555 1_555
Sr3A O16 1_555 1_555
Sr3_3 O15_3 1_555 1_555
F1A C12A 1_555 1_555
F2A C26A 1_555 1_555
F3A C43A 1_555 1_555
O1A Sr3A 1_555 1_555
O1_2 Sr3_2 1_555 1_555
O3_2 Sr3_2 1_555 1_555
O5_2 Sr2_2 1_555 1_555
O6_2 Sr3_2 1_555 1_555
O7A Sr1A 1_555 1_555
O7_2 Sr2_2 1_555 1_555
O9A Sr2A 1_555 1_555
O9_2 Sr2_2 1_555 1_555
O11A Sr1A 1_555 1_555
O13A Sr2A 1_555 1_555
O13_2 Sr2_2 1_555 1_555
O14A Sr1A 1_555 1_555
O15_2 Sr2 1_555 1_555
O15_3 Sr2_2 1_555 1_555
O16A Sr3 1_555 1_555
O16A_2 Sr3_2 1_555 1_555
O17A Sr3 1_555 1_555
O17A_2 Sr3_2 1_555 1_555
O18_2 Sr2_2 1_555 1_555
O18_3 Sr3 1_555 1_555
O19A Sr1A 1_555 1_555
O19_2 Sr1_2 1_555 1_555
O20A Sr1A 1_555 1_555
O20A_2 Sr1 1_555 1_555
O20_2 Sr1A 1_555 1_555
O21A Sr1A 1_555 1_555
N1A H1A 1_555 1_555
N2A C13A 1_555 1_555
N3A C1A 1_555 1_555
C1A H2A 1_555 1_555
C2A C1A 1_555 1_555
H3A C2A 1_555 1_555
H4A C2A 1_555 1_555
C3A C1A 1_555 1_555
H5A C3A 1_555 1_555
H6A C3A 1_555 1_555
N4A H7A 1_555 1_555
N5A C27A 1_555 1_555
N6A C29A 1_555 1_555
N7A H8A 1_555 1_555
N8A C44A 1_555 1_555
N9A C4A 1_555 1_555
C4A H9A 1_555 1_555
C5A C4A 1_555 1_555
H10A C5A 1_555 1_555
H11A C5A 1_555 1_555
C6A C4A 1_555 1_555
H12A C6A 1_555 1_555
H13A C6A 1_555 1_555
C7A O7A 1_555 1_555
C8A C7A 1_555 1_555
C9A O13A 1_555 1_555
C10A C9A 1_555 1_555
C11A C10A 1_555 1_555
H14A C11A 1_555 1_555
C12A C11A 1_555 1_555
C13A C12A 1_555 1_555
C14A C13A 1_555 1_555
H15A C14A 1_555 1_555
C15A N3A 1_555 1_555
C16A N3A 1_555 1_555
H16A C16A 1_555 1_555
C17A N2A 1_555 1_555
H17A C17A 1_555 1_555
H18A C17A 1_555 1_555
C18A N1A 1_555 1_555
H19A C18A 1_555 1_555
H20A C18A 1_555 1_555
C19A N1A 1_555 1_555
H21A C19A 1_555 1_555
H22A C19A 1_555 1_555
C20A N2A 1_555 1_555
H23A C20A 1_555 1_555
H24A C20A 1_555 1_555
C21A O9A 1_555 1_555
C22A C21A 1_555 1_555
C23A O21A 1_555 1_555
C24A C23A 1_555 1_555
C25A C24A 1_555 1_555
H25A C25A 1_555 1_555
C26A C25A 1_555 1_555
C27A C26A 1_555 1_555
C28A C27A 1_555 1_555
H26A C28A 1_555 1_555
C29A C24A 1_555 1_555
C30A N6A 1_555 1_555
H27A C30A 1_555 1_555
C31A N6A 1_555 1_555
H28A C31A 1_555 1_555
C32A C31A 1_555 1_555
H29A C32A 1_555 1_555
H30A C32A 1_555 1_555
C33A C31A 1_555 1_555
H31A C33A 1_555 1_555
H32A C33A 1_555 1_555
C34A N5A 1_555 1_555
H33A C34A 1_555 1_555
H34A C34A 1_555 1_555
C35A N4A 1_555 1_555
H35A C35A 1_555 1_555
H36A C35A 1_555 1_555
C36A N4A 1_555 1_555
H37A C36A 1_555 1_555
H38A C36A 1_555 1_555
C37A N5A 1_555 1_555
H39A C37A 1_555 1_555
H40A C37A 1_555 1_555
C38A O1A 1_555 1_555
C39A C38A 1_555 1_555
C40A O16A 1_555 1_555
C41A C40A 1_555 1_555
C42A C41A 1_555 1_555
H41A C42A 1_555 1_555
C43A C42A 1_555 1_555
C44A C43A 1_555 1_555
C45A C44A 1_555 1_555
H42A C45A 1_555 1_555
C46A N9A 1_555 1_555
C47A N9A 1_555 1_555
H43A C47A 1_555 1_555
C48A N8A 1_555 1_555
H44A C48A 1_555 1_555
H45A C48A 1_555 1_555
C49A N7A 1_555 1_555
H46A C49A 1_555 1_555
H47A C49A 1_555 1_555
C50A N7A 1_555 1_555
H48A C50A 1_555 1_555
H49A C50A 1_555 1_555
C51A N8A 1_555 1_555
H50A C51A 1_555 1_555
H51A C51A 1_555 1_555
C52_2 C53_2 1_555 1_555
C53_2 H52_2 1_555 1_555
C54_2 C53_2 1_555 1_555
H53_2 C54_2 1_555 1_555
C55_2 C54_2 1_555 1_555
C56_2 C55_2 1_555 1_555
H54_2 C56_2 1_555 1_555
C57_2 C52_2 1_555 1_555
H55_2 C57_2 1_555 1_555
C58_2 O3_2 1_555 1_555
C59_2 O5_2 1_555 1_555
C60A O11A 1_555 1_555
C61A C60A 1_555 1_555
C62A C63 1_555 1_555
H56A C62A 1_555 1_555
C63A C62 1_555 1_555
H57A C63A 1_555 1_555
Sr2 O7 1_555 1_555
Sr2 O19 1_555 1_555
O14 C7 1_555 1_555
O15 C58 1_555 1_555
O17 Sr3A 1_555 1_555
O18 C59 1_555 1_555
O19 C21 1_555 1_555
O20 C60 1_555 1_555
C2 C3 1_555 1_555
C5 C6 1_555 1_555
C8 C9 1_555 1_555
C8 C16 1_555 1_555
C10 C15 1_555 1_555
C14 C15 1_555 1_555
C17 C18 1_555 1_555
C19 C20 1_555 1_555
C22 C23 1_555 1_555
C22 C30 1_555 1_555
C28 C29 1_555 1_555
C32 C33 1_555 1_555
C34 C35 1_555 1_555
C36 C37 1_555 1_555
C39 C47 1_555 1_555
C41 C46 1_555 1_555
C45 C46 1_555 1_555
C48 C49 1_555 1_555
C50 C51 1_555 1_555
C52 C58 1_555 1_555
C55 C59 1_555 1_555
C56 C57 1_555 1_555
Sr1A_2 O20A_2 1_555 1_555
Sr1_2 O20A 1_555 1_555
Sr1_2 O20_2 1_555 1_555
Sr2_2 O19_2 1_555 1_555
Sr2_3 O18_3 1_555 1_555
Sr2A O19A 1_555 1_555
Sr3_2 O15_2 1_555 1_555
Sr3_3 O18_2 1_555 1_555
O14A C7A 1_555 1_555
O15_2 C58_2 1_555 1_555
O17A C38A 1_555 1_555
O18_2 C59_2 1_555 1_555
O19A C21A 1_555 1_555
O20A C60A 1_555 1_555
C2A C3A 1_555 1_555
C5A C6A 1_555 1_555
C8A C9A 1_555 1_555
C8A C16A 1_555 1_555
C10A C15A 1_555 1_555
C14A C15A 1_555 1_555
C17A C18A 1_555 1_555
C19A C20A 1_555 1_555
C22A C23A 1_555 1_555
C22A C30A 1_555 1_555
C28A C29A 1_555 1_555
C32A C33A 1_555 1_555
C34A C35A 1_555 1_555
C36A C37A 1_555 1_555
C39A C40A 1_555 1_555
C39A C47A 1_555 1_555
C41A C46A 1_555 1_555
C45A C46A 1_555 1_555
C48A C49A 1_555 1_555
C50A C51A 1_555 1_555
C52_2 C58_2 1_555 1_555
C55_2 C59_2 1_555 1_555
C56_2 C57_2 1_555 1_555
C61A C62A 1_555 1_555
C61A C63A 1_555 1_555

#END
