
#######################################################################
#
#                 Cambridge Crystallographic Data Centre
#                                CCDC 
#
#######################################################################
#
# If this CIF has been generated from an entry in the Cambridge 
# Structural Database, then it will include bibliographic, chemical, 
# crystal, experimental, refinement or atomic coordinate data resulting 
# from the CCDC's data processing and validation procedures.
#
#######################################################################

data_LAWREH
_symmetry_cell_setting           triclinic
_symmetry_space_group_name_H-M   'P -1'
_symmetry_Int_Tables_number      2
_space_group_name_Hall           '-P 1'
loop_
_symmetry_equiv_pos_site_id
_symmetry_equiv_pos_as_xyz
1 x,y,z
2 -x,-y,-z
_cell_length_a                   9.0295(18)
_cell_length_b                   10.213(2)
_cell_length_c                   12.034(2)
_cell_angle_alpha                98.22(3)
_cell_angle_beta                 101.58(3)
_cell_angle_gamma                91.45(3)
_cell_volume                     1074.33
loop_
_atom_site_label
_atom_site_type_symbol
_atom_site_fract_x
_atom_site_fract_y
_atom_site_fract_z
Ba1 Ba -0.245771(14) -0.047656(14) 0.002761(11)
F1 F -0.3914(2) -0.4062(2) 0.45073(17)
O1 O -0.2561(3) -0.0410(3) -0.2326(2)
O2 O -0.0875(3) -0.2803(3) -0.0132(2)
O3 O -0.0249(2) -0.0242(3) -0.13056(19)
O5 O -0.1949(2) -0.1054(2) 0.21925(18)
O6 O -0.4672(3) 0.1455(2) 0.0092(3)
O7 O -0.2379(3) 0.2325(2) 0.0239(3)
N1 N 0.1567(3) -0.1445(3) 0.4856(2)
N2 N -0.1643(3) -0.4335(3) 0.6366(2)
N3 N -0.1809(3) -0.5280(3) 0.8457(2)
H1 H -0.1684 -0.5159 0.9192
C1 C -0.1177(3) -0.0071(3) -0.2174(2)
C2 C -0.0667(3) 0.0611(3) -0.3074(2)
C3 C -0.0845(3) -0.1173(3) 0.2969(2)
C4 C -0.1020(3) -0.1930(3) 0.3895(2)
C5 C -0.2417(3) -0.2603(3) 0.3834(2)
H2 H -0.3229 -0.2526 0.3239
C6 C -0.2583(3) -0.3358(3) 0.4635(3)
C7 C -0.1410(3) -0.3506(3) 0.5590(2)
C8 C -0.0054(3) -0.2821(3) 0.5647(3)
H3 H 0.0741 -0.2857 0.6265
C9 C 0.0155(3) -0.2075(3) 0.4802(2)
C10 C -0.1750(3) 0.0762(3) -0.4011(3)
H4 H -0.2702 0.0355 -0.4071
C11 C 0.2802(4) -0.1464(4) 0.5844(3)
H5 H 0.2704 -0.0907 0.6557
C12 C 0.3487(5) -0.2722(5) 0.5968(4)
H6 H 0.3793 -0.2939 0.6737
H7 H 0.3118 -0.3472 0.5377
C13 C 0.4349(4) -0.1610(5) 0.5654(4)
H8 H 0.4498 -0.1685 0.4872
H9 H 0.5174 -0.1151 0.6233
C14 C -0.2887(3) -0.3994(3) 0.6979(3)
H10 H -0.2610 -0.3167 0.7498
H11 H -0.3797 -0.3871 0.6428
C15 C -0.3197(3) -0.5073(3) 0.7649(3)
H12 H -0.3540 -0.5887 0.7128
H13 H -0.3988 -0.4822 0.8064
C16 C -0.0671(4) -0.5732(3) 0.7795(3)
H14 H 0.0232 -0.5948 0.8308
H15 H -0.1064 -0.6523 0.7258
C17 C -0.0285(3) -0.4651(3) 0.7152(3)
H16 H 0.0479 -0.4940 0.6722
H17 H 0.0125 -0.3866 0.7692
C18 C -0.3774(3) 0.2417(3) 0.0149(3)
C19 C -0.4405(3) 0.3757(3) 0.0075(3)
C20 C -0.5863(3) 0.3866(3) -0.0573(2)
H18 H -0.6441 0.3110 -0.0962
C21 C -0.3565(3) 0.4898(3) 0.0630(3)
H19 H -0.2594 0.4832 0.1052
Ba1A Ba 0.245771(14) 0.047656(14) -0.002761(11)
Ba1A_2 Ba -0.754229(14) 0.047656(14) -0.002761(11)
Ba1A_3 Ba -0.754229(14) 1.047656(14) -0.002761(11)
Ba1_2 Ba -0.245771(14) 0.952344(14) 0.002761(11)
F1A F 0.3914(2) 0.4062(2) -0.45073(17)
O1A O 0.2561(3) 0.0410(3) 0.2326(2)
O2A O 0.0875(3) 0.2803(3) 0.0132(2)
O3A O 0.0249(2) 0.0242(3) 0.13056(19)
O5A O 0.1949(2) 0.1054(2) -0.21925(18)
O6A O -0.5328(3) -0.1455(2) -0.0092(3)
O6A_2 O -0.5328(3) 0.8545(2) -0.0092(3)
O6A_3 O 0.4672(3) -0.1455(2) -0.0092(3)
O6_2 O 0.5328(3) 0.1455(2) 0.0092(3)
O7A O -0.7621(3) 0.7675(2) -0.0239(3)
O7A_2 O 0.2379(3) -0.2325(2) -0.0239(3)
N1A N -0.1567(3) 0.1445(3) -0.4856(2)
N2A N 0.1643(3) 0.4335(3) -0.6366(2)
N3A N 0.1809(3) 0.5280(3) -0.8457(2)
H1A H 0.1684 0.5159 -0.9192
C1A C 0.1177(3) 0.0071(3) 0.2174(2)
C2A C 0.0667(3) -0.0611(3) 0.3074(2)
C3A C 0.0845(3) 0.1173(3) -0.2969(2)
C4A C 0.1020(3) 0.1930(3) -0.3895(2)
C5A C 0.2417(3) 0.2603(3) -0.3834(2)
H2A H 0.3229 0.2526 -0.3239
C6A C 0.2583(3) 0.3358(3) -0.4635(3)
C7A C 0.1410(3) 0.3506(3) -0.5590(2)
C8A C 0.0054(3) 0.2821(3) -0.5647(3)
H3A H -0.0741 0.2857 -0.6265
C9A C -0.0155(3) 0.2075(3) -0.4802(2)
C10A C 0.1750(3) -0.0762(3) 0.4011(3)
H4A H 0.2702 -0.0355 0.4071
C11A C -0.2802(4) 0.1464(4) -0.5844(3)
H5A H -0.2704 0.0907 -0.6557
C12A C -0.3487(5) 0.2722(5) -0.5968(4)
H6A H -0.3793 0.2939 -0.6737
H7A H -0.3118 0.3472 -0.5377
C13A C -0.4349(4) 0.1610(5) -0.5654(4)
H8A H -0.4498 0.1685 -0.4872
H9A H -0.5174 0.1151 -0.6233
C14A C 0.2887(3) 0.3994(3) -0.6979(3)
H10A H 0.2610 0.3167 -0.7498
H11A H 0.3797 0.3871 -0.6428
C15A C 0.3197(3) 0.5073(3) -0.7649(3)
H12A H 0.3540 0.5887 -0.7128
H13A H 0.3988 0.4822 -0.8064
C16A C 0.0671(4) 0.5732(3) -0.7795(3)
H14A H -0.0232 0.5948 -0.8308
H15A H 0.1064 0.6523 -0.7258
C17A C 0.0285(3) 0.4651(3) -0.7152(3)
H16A H -0.0479 0.4940 -0.6722
H17A H -0.0125 0.3866 -0.7692
C18A C -0.6226(3) 0.7583(3) -0.0149(3)
C19A C -0.5595(3) 0.6243(3) -0.0075(3)
C20A C -0.4137(3) 0.6134(3) 0.0573(2)
H18A H -0.3559 0.6890 0.0962
C21A C -0.6435(3) 0.5102(3) -0.0630(3)
H19A H -0.7406 0.5168 -0.1052
O4 O -0.4630(13) 0.1466(13) -0.2593(10)
loop_
_geom_bond_atom_site_label_1
_geom_bond_atom_site_label_2
_geom_bond_site_symmetry_1
_geom_bond_site_symmetry_2
Ba1 O1 1_555 1_555
F1 C6 1_555 1_555
O1 C1 1_555 1_555
O2 Ba1 1_555 1_555
O3 Ba1 1_555 1_555
O5 Ba1 1_555 1_555
O6 Ba1 1_555 1_555
O7 Ba1 1_555 1_555
N1 C9 1_555 1_555
N2 C7 1_555 1_555
N3 H1 1_555 1_555
C1 O3 1_555 1_555
C2 C1 1_555 1_555
C3 O5 1_555 1_555
C4 C3 1_555 1_555
C5 C4 1_555 1_555
H2 C5 1_555 1_555
C6 C5 1_555 1_555
C7 C6 1_555 1_555
C8 C7 1_555 1_555
H3 C8 1_555 1_555
C9 C4 1_555 1_555
C10 C2 1_555 1_555
H4 C10 1_555 1_555
C11 N1 1_555 1_555
H5 C11 1_555 1_555
C12 C11 1_555 1_555
H6 C12 1_555 1_555
H7 C12 1_555 1_555
C13 C11 1_555 1_555
H8 C13 1_555 1_555
H9 C13 1_555 1_555
C14 N2 1_555 1_555
H10 C14 1_555 1_555
H11 C14 1_555 1_555
C15 N3 1_555 1_555
H12 C15 1_555 1_555
H13 C15 1_555 1_555
C16 N3 1_555 1_555
H14 C16 1_555 1_555
H15 C16 1_555 1_555
C17 N2 1_555 1_555
H16 C17 1_555 1_555
H17 C17 1_555 1_555
C18 O6 1_555 1_555
C19 C18 1_555 1_555
C20 C19 1_555 1_555
H18 C20 1_555 1_555
C21 C19 1_555 1_555
H19 C21 1_555 1_555
Ba1A O3 1_555 1_555
Ba1A_2 O6 1_555 1_555
Ba1A_3 O6A_2 1_555 1_555
Ba1_2 O6A_2 1_555 1_555
F1A C6A 1_555 1_555
O1A Ba1A 1_555 1_555
O2A Ba1A 1_555 1_555
O3A Ba1 1_555 1_555
O5A Ba1A 1_555 1_555
O6A Ba1 1_555 1_555
O6A_2 C18A 1_555 1_555
O6A_3 Ba1A 1_555 1_555
O6_2 Ba1A 1_555 1_555
O7A Ba1A_3 1_555 1_555
O7A_2 Ba1A 1_555 1_555
N1A C10 1_555 1_555
N2A C7A 1_555 1_555
N3A H1A 1_555 1_555
C1A O1A 1_555 1_555
C2A C3 1_555 1_555
C3A C2 1_555 1_555
C4A C3A 1_555 1_555
C5A C4A 1_555 1_555
H2A C5A 1_555 1_555
C6A C5A 1_555 1_555
C7A C6A 1_555 1_555
C8A C7A 1_555 1_555
H3A C8A 1_555 1_555
C9A N1A 1_555 1_555
C10A N1 1_555 1_555
H4A C10A 1_555 1_555
C11A N1A 1_555 1_555
H5A C11A 1_555 1_555
C12A C11A 1_555 1_555
H6A C12A 1_555 1_555
H7A C12A 1_555 1_555
C13A C11A 1_555 1_555
H8A C13A 1_555 1_555
H9A C13A 1_555 1_555
C14A N2A 1_555 1_555
H10A C14A 1_555 1_555
H11A C14A 1_555 1_555
C15A N3A 1_555 1_555
H12A C15A 1_555 1_555
H13A C15A 1_555 1_555
C16A N3A 1_555 1_555
H14A C16A 1_555 1_555
H15A C16A 1_555 1_555
C17A N2A 1_555 1_555
H16A C17A 1_555 1_555
H17A C17A 1_555 1_555
C18A O7A 1_555 1_555
C19A C18A 1_555 1_555
C20A C21 1_555 1_555
H18A C20A 1_555 1_555
C21A C20 1_555 1_555
H19A C21A 1_555 1_555
O7 C18 1_555 1_555
C8 C9 1_555 1_555
C12 C13 1_555 1_555
C14 C15 1_555 1_555
C16 C17 1_555 1_555
Ba1A O3A 1_555 1_555
Ba1A_2 O6A 1_555 1_555
O3A C1A 1_555 1_555
O5A C3A 1_555 1_555
C1A C2A 1_555 1_555
C2A C10A 1_555 1_555
C4A C9A 1_555 1_555
C8A C9A 1_555 1_555
C12A C13A 1_555 1_555
C14A C15A 1_555 1_555
C16A C17A 1_555 1_555
C19A C20A 1_555 1_555
C19A C21A 1_555 1_555

#END
