
#######################################################################
#
#                 Cambridge Crystallographic Data Centre
#                                CCDC 
#
#######################################################################
#
# If this CIF has been generated from an entry in the Cambridge 
# Structural Database, then it will include bibliographic, chemical, 
# crystal, experimental, refinement or atomic coordinate data resulting 
# from the CCDC's data processing and validation procedures.
#
#######################################################################

data_LAWRUX
_symmetry_cell_setting           triclinic
_symmetry_space_group_name_H-M   'P -1'
_symmetry_Int_Tables_number      2
_space_group_name_Hall           '-P 1'
loop_
_symmetry_equiv_pos_site_id
_symmetry_equiv_pos_as_xyz
1 x,y,z
2 -x,-y,-z
_cell_length_a                   9.953(2)
_cell_length_b                   10.131(2)
_cell_length_c                   12.793(3)
_cell_angle_alpha                107.23(3)
_cell_angle_beta                 107.81(3)
_cell_angle_gamma                96.87(3)
_cell_volume                     1141.26
loop_
_atom_site_label
_atom_site_type_symbol
_atom_site_fract_x
_atom_site_fract_y
_atom_site_fract_z
Mn1 Mn 0.15865(2) 0.17877(2) 0.034609(19)
F1 F -0.27918(11) -0.25161(15) -0.52447(11)
O1 O 0.54864(15) 0.18006(17) -0.04435(14)
O2 O 0.37327(13) 0.20529(15) 0.02539(11)
O3 O 0.09752(12) 0.07243(13) -0.15030(10)
O4 O 0.21730(15) 0.37976(13) 0.19018(12)
O5 O 0.16734(14) 0.40791(13) 0.01962(11)
O6 O 0.21926(14) 1.06218(13) 0.14719(12)
O7 O 0.07129(12) 0.86532(12) 0.00455(10)
N1 N -0.27800(16) -0.56796(16) -0.90581(12)
H1 H -0.2314 -0.5273 -0.9426
H2 H -0.3464 -0.6441 -0.9604
N2 N -0.14082(15) -0.39614(15) -0.66326(12)
N3 N 0.31401(14) -0.16443(14) -0.33102(12)
C1 C 0.42135(17) 0.14468(18) -0.05043(14)
C2 C 0.32318(17) 0.02418(17) -0.15999(13)
C3 C 0.16812(16) 0.00335(16) -0.20246(13)
C4 C 0.09114(16) -0.10457(17) -0.31903(14)
C5 C -0.06019(18) -0.1293(2) -0.36946(16)
H3 H -0.1115 -0.0807 -0.3274
C6 C -0.13129(18) -0.2239(2) -0.47953(16)
C7 C -0.06014(17) -0.29828(18) -0.54995(14)
C8 C 0.08895(17) -0.27691(18) -0.49893(14)
H4 H 0.1397 -0.3253 -0.5417
C9 C 0.16436(16) -0.18267(17) -0.38290(14)
C10 C 0.38732(16) -0.06139(17) -0.22460(14)
H5 H 0.4876 -0.0481 -0.1936
C11 C 0.39218(17) -0.24378(18) -0.39623(14)
H6 H 0.4094 -0.2097 -0.4562
C12 C 0.36924(19) -0.40069(19) -0.42431(17)
H7 H 0.3703 -0.4583 -0.4995
H8 H 0.3028 -0.4453 -0.3962
C13 C 0.50937(19) -0.3030(2) -0.33501(18)
H9 H 0.5274 -0.2889 -0.2531
H10 H 0.5949 -0.3019 -0.3564
C14 C -0.2346(2) -0.34276(19) -0.74617(16)
H11 H -0.1766 -0.2921 -0.7771
H12 H -0.2813 -0.2770 -0.7061
C15 C -0.3486(2) -0.4653(2) -0.84593(16)
H13 H -0.4102 -0.5125 -0.8155
H14 H -0.4090 -0.4296 -0.9015
C16 C -0.17280(19) -0.61524(19) -0.82195(15)
H15 H -0.1213 -0.6738 -0.8629
H16 H -0.2252 -0.6728 -0.7920
C17 C -0.06477(18) -0.49084(19) -0.72068(15)
H17 H -0.0027 -0.5249 -0.6647
H18 H -0.0041 -0.4394 -0.7492
C18 C 0.25547(17) 0.61593(16) 0.18886(14)
C19 C 0.36903(19) 0.68042(18) 0.29654(15)
H19 H 0.4158 0.6254 0.3358
C20 C 0.4118(2) 0.82791(19) 0.34483(15)
H20 H 0.4882 0.8716 0.4163
C21 C 0.34145(18) 0.90982(17) 0.28718(15)
H21 H 0.3684 1.0083 0.3214
C22 C 0.22992(16) 0.84530(16) 0.17773(14)
C23 C 0.18655(16) 0.69848(16) 0.13054(14)
H22 H 0.1103 0.6548 0.0589
C24 C 0.21040(17) 0.45711(17) 0.13003(15)
C25 C 0.16718(16) 0.93031(16) 0.10508(14)
Mn1A Mn -0.15865(2) 0.82123(2) -0.034609(19)
Mn1_2 Mn 0.15865(2) 1.17877(2) 0.034609(19)
O6_2 O 0.21926(14) 0.06218(13) 0.14719(12)
O7A O -0.07129(12) 0.13468(12) -0.00455(10)
loop_
_geom_bond_atom_site_label_1
_geom_bond_atom_site_label_2
_geom_bond_site_symmetry_1
_geom_bond_site_symmetry_2
Mn1 O2 1_555 1_555
F1 C6 1_555 1_555
O1 C1 1_555 1_555
O2 C1 1_555 1_555
O3 Mn1 1_555 1_555
O4 Mn1 1_555 1_555
O5 Mn1 1_555 1_555
O6 C25 1_555 1_555
O7 C25 1_555 1_555
N1 H1 1_555 1_555
H2 N1 1_555 1_555
N2 C7 1_555 1_555
N3 C9 1_555 1_555
C1 C2 1_555 1_555
C2 C3 1_555 1_555
C3 O3 1_555 1_555
C4 C3 1_555 1_555
C5 C4 1_555 1_555
H3 C5 1_555 1_555
C6 C5 1_555 1_555
C7 C6 1_555 1_555
C8 C7 1_555 1_555
H4 C8 1_555 1_555
C9 C4 1_555 1_555
C10 N3 1_555 1_555
H5 C10 1_555 1_555
C11 N3 1_555 1_555
H6 C11 1_555 1_555
C12 C11 1_555 1_555
H7 C12 1_555 1_555
H8 C12 1_555 1_555
C13 C11 1_555 1_555
H9 C13 1_555 1_555
H10 C13 1_555 1_555
C14 N2 1_555 1_555
H11 C14 1_555 1_555
H12 C14 1_555 1_555
C15 N1 1_555 1_555
H13 C15 1_555 1_555
H14 C15 1_555 1_555
C16 N1 1_555 1_555
H15 C16 1_555 1_555
H16 C16 1_555 1_555
C17 N2 1_555 1_555
H17 C17 1_555 1_555
H18 C17 1_555 1_555
C18 C19 1_555 1_555
C19 H19 1_555 1_555
C20 C19 1_555 1_555
H20 C20 1_555 1_555
C21 C20 1_555 1_555
H21 C21 1_555 1_555
C22 C21 1_555 1_555
C23 C18 1_555 1_555
H22 C23 1_555 1_555
C24 O4 1_555 1_555
C25 C22 1_555 1_555
Mn1A O7 1_555 1_555
Mn1_2 O6 1_555 1_555
O6_2 Mn1 1_555 1_555
O7A Mn1 1_555 1_555
O5 C24 1_555 1_555
C2 C10 1_555 1_555
C8 C9 1_555 1_555
C12 C13 1_555 1_555
C14 C15 1_555 1_555
C16 C17 1_555 1_555
C18 C24 1_555 1_555
C22 C23 1_555 1_555

#END
