
#######################################################################
#
#                 Cambridge Crystallographic Data Centre
#                                CCDC 
#
#######################################################################
#
# If this CIF has been generated from an entry in the Cambridge 
# Structural Database, then it will include bibliographic, chemical, 
# crystal, experimental, refinement or atomic coordinate data resulting 
# from the CCDC's data processing and validation procedures.
#
#######################################################################

data_LAWRUY
_symmetry_cell_setting           triclinic
_symmetry_space_group_name_H-M   'P -1'
_symmetry_Int_Tables_number      2
_space_group_name_Hall           '-P 1'
loop_
_symmetry_equiv_pos_site_id
_symmetry_equiv_pos_as_xyz
1 x,y,z
2 -x,-y,-z
_cell_length_a                   8.5171(17)
_cell_length_b                   11.999(2)
_cell_length_c                   15.214(3)
_cell_angle_alpha                68.13(3)
_cell_angle_beta                 79.48(3)
_cell_angle_gamma                82.32(3)
_cell_volume                     1414.99
loop_
_atom_site_label
_atom_site_type_symbol
_atom_site_fract_x
_atom_site_fract_y
_atom_site_fract_z
C1 C 0.6879(8) 0.7491(6) 0.3333(5)
H1 H 0.7494 0.8039 0.3455
C2 C 0.8046(7) 0.6486(6) 0.3175(5)
C3 C 1.0393(11) 0.2527(7) 0.4608(6)
C4 C 1.0133(12) 0.1188(6) 0.5029(6)
H2 H 0.9959 0.0951 0.5727
C5 C 1.1561(14) 0.0442(10) 0.4771(9)
H3 H 1.1782 0.0665 0.4081
H4 H 1.2488 0.0594 0.4986
C6 C 0.8737(15) 0.0911(11) 0.4759(10)
H5 H 0.7808 0.1378 0.4948
H6 H 0.8871 0.1144 0.4069
O1 O 0.8247(6) 0.5511(4) 0.3873(3)
O2 O 0.8792(6) 0.6624(5) 0.2359(4)
O3 O 1.0012(7) 0.3085(4) 0.5170(4)
O4 O 1.0924(9) 0.2958(5) 0.3733(4)
C7 C 1.2488(9) 0.4678(7) 0.0778(5)
H7 H 1.3138 0.5143 0.0910
C8 C 1.2993(8) 0.4341(7) -0.0011(5)
H8 H 1.3967 0.4570 -0.0392
C9 C 1.2036(8) 0.3661(7) -0.0229(5)
H9 H 1.2337 0.3435 -0.0762
C10 C 1.0604(7) 0.3326(6) 0.0378(5)
C11 C 1.0185(8) 0.3707(6) 0.1156(5)
C12 C 0.8655(8) 0.3404(6) 0.1789(5)
C13 C 0.6871(10) 0.3649(8) 0.3039(6)
H10 H 0.6604 0.3969 0.3522
C14 C 0.5763(10) 0.2955(9) 0.2935(7)
H11 H 0.4788 0.2827 0.3337
C15 C 0.6138(9) 0.2470(8) 0.2234(6)
H12 H 0.5424 0.2012 0.2146
C16 C 0.7620(8) 0.2679(6) 0.1653(5)
C17 C 0.8153(8) 0.2254(6) 0.0864(5)
C18 C 0.9524(8) 0.2584(6) 0.0264(5)
C19 C 0.8387(8) 0.1404(6) -0.0162(5)
C20 C 0.8180(8) 0.0672(6) -0.0707(5)
C21 C 0.6971(8) -0.0117(6) -0.0359(5)
H13 H 0.6334 -0.0199 0.0224
C22 C 0.6719(9) -0.0787(7) -0.0892(6)
H14 H 0.5900 -0.1308 -0.0678
C23 C 0.7693(11) -0.0662(8) -0.1731(7)
C24 C 0.8932(11) 0.0050(8) -0.2074(6)
H15 H 0.9614 0.0068 -0.2631
C25 C 0.9154(9) 0.0760(7) -0.1563(5)
H16 H 0.9959 0.1294 -0.1798
C26 C 0.2703(8) 0.6114(6) 0.2921(5)
C27 C 0.3717(7) 0.6926(6) 0.3099(5)
H17 H 0.3006 0.7608 0.3173
C28 C 0.4431(8) 0.6297(6) 0.4034(5)
H18 H 0.3566 0.6109 0.4567
H19 H 0.4998 0.5544 0.4025
C29 C 0.5575(8) 0.7053(7) 0.4193(5)
H20 H 0.6070 0.6577 0.4756
H21 H 0.4976 0.7743 0.4310
C30 C 0.6105(9) 0.8221(6) 0.2430(6)
H22 H 0.6933 0.8489 0.1882
H23 H 0.5493 0.8926 0.2511
C31 C 0.4998(8) 0.7438(6) 0.2251(5)
H24 H 0.4485 0.7919 0.1696
H25 H 0.5639 0.6779 0.2108
N1 N 1.1136(6) 0.4374(5) 0.1349(4)
N2 N 0.8268(7) 0.3875(6) 0.2492(4)
N3 N 0.7394(7) 0.1499(5) 0.0595(4)
N4 N 0.9683(6) 0.2045(5) -0.0384(4)
H26 H 1.0455 0.2097 -0.0847
O5 O 0.1825(6) 0.5422(4) 0.3640(4)
O6 O 0.2664(7) 0.6121(5) 0.2108(4)
Cd1 Cd 1.03981(6) 0.48229(4) 0.27330(3)
Cd2 Cd 1.0000 0.5000 0.5000
F1 F 0.7449(7) -0.1358(5) -0.2226(4)
C1_2 C 1.6879(8) 0.7491(6) 0.3333(5)
H1_2 H 1.7494 0.8039 0.3455
C2_2 C 1.8046(7) 0.6486(6) 0.3175(5)
C3A C 0.9607(11) -0.2527(7) 0.5392(6)
C4A C 0.9867(12) -0.1188(6) 0.4971(6)
H2A H 1.0041 -0.0951 0.4273
C5A C 0.8439(14) -0.0442(10) 0.5229(9)
H3A H 0.8218 -0.0665 0.5919
H4A H 0.7512 -0.0594 0.5014
C6A C 1.1263(15) -0.0911(11) 0.5241(10)
H5A H 1.2192 -0.1378 0.5052
H6A H 1.1129 -0.1144 0.5931
O1_2 O 1.8247(6) 0.5511(4) 0.3873(3)
O1A O 1.1753(6) 0.4489(4) 0.6127(3)
O2_2 O 1.8792(6) 0.6624(5) 0.2359(4)
O3A O 0.9988(7) -0.3085(4) 0.4830(4)
O3A_2 O 0.9988(7) 0.6915(4) 0.4830(4)
O4A O 0.9076(9) -0.2958(5) 0.6267(4)
O4_2 O 2.0924(9) 0.2958(5) 0.3733(4)
C7_2 C 2.2488(9) 0.4678(7) 0.0778(5)
H7_2 H 2.3138 0.5143 0.0910
C8_2 C 2.2993(8) 0.4341(7) -0.0011(5)
H8_2 H 2.3967 0.4570 -0.0392
C9_2 C 2.2036(8) 0.3661(7) -0.0229(5)
H9_2 H 2.2337 0.3435 -0.0762
C10_2 C 2.0604(7) 0.3326(6) 0.0378(5)
C11_2 C 2.0185(8) 0.3707(6) 0.1156(5)
C12_2 C 1.8655(8) 0.3404(6) 0.1789(5)
C13_2 C 1.6871(10) 0.3649(8) 0.3039(6)
H10_2 H 1.6604 0.3969 0.3522
C14_2 C 1.5763(10) 0.2955(9) 0.2935(7)
H11_2 H 1.4788 0.2827 0.3337
C15_2 C 1.6138(9) 0.2470(8) 0.2234(6)
H12_2 H 1.5424 0.2012 0.2146
C16_2 C 1.7620(8) 0.2679(6) 0.1653(5)
C17_2 C 1.8153(8) 0.2254(6) 0.0864(5)
C18_2 C 1.9524(8) 0.2584(6) 0.0264(5)
C19_2 C 1.8387(8) 0.1404(6) -0.0162(5)
C20_2 C 1.8180(8) 0.0672(6) -0.0707(5)
C21_2 C 1.6971(8) -0.0117(6) -0.0359(5)
H13_2 H 1.6334 -0.0199 0.0224
C22_2 C 1.6719(9) -0.0787(7) -0.0892(6)
H14_2 H 1.5900 -0.1308 -0.0678
C23_2 C 1.7693(11) -0.0662(8) -0.1731(7)
C24_2 C 1.8932(11) 0.0050(8) -0.2074(6)
H15_2 H 1.9614 0.0068 -0.2631
C25_2 C 1.9154(9) 0.0760(7) -0.1563(5)
H16_2 H 1.9959 0.1294 -0.1798
C26_2 C 1.2703(8) 0.6114(6) 0.2921(5)
C27_2 C 1.3717(7) 0.6926(6) 0.3099(5)
H17_2 H 1.3006 0.7608 0.3173
C28_2 C 1.4431(8) 0.6297(6) 0.4034(5)
H18_2 H 1.3566 0.6109 0.4567
H19_2 H 1.4998 0.5544 0.4025
C29_2 C 1.5575(8) 0.7053(7) 0.4193(5)
H20_2 H 1.6070 0.6577 0.4756
H21_2 H 1.4976 0.7743 0.4310
C30_2 C 1.6105(9) 0.8221(6) 0.2430(6)
H22_2 H 1.6933 0.8489 0.1882
H23_2 H 1.5493 0.8926 0.2511
C31_2 C 1.4998(8) 0.7438(6) 0.2251(5)
H24_2 H 1.4485 0.7919 0.1696
H25_2 H 1.5639 0.6779 0.2108
N1_2 N 2.1136(6) 0.4374(5) 0.1349(4)
N2_2 N 1.8268(7) 0.3875(6) 0.2492(4)
N3_2 N 1.7394(7) 0.1499(5) 0.0595(4)
N4_2 N 1.9683(6) 0.2045(5) -0.0384(4)
H26_2 H 2.0455 0.2097 -0.0847
O5_2 O 1.1825(6) 0.5422(4) 0.3640(4)
O5A O 0.8175(6) 0.4578(4) 0.6360(4)
O5_3 O 2.1825(6) 0.5422(4) 0.3640(4)
O6_2 O 1.2664(7) 0.6121(5) 0.2108(4)
O6_3 O 2.2664(7) 0.6121(5) 0.2108(4)
Cd1_2 Cd 2.03981(6) 0.48229(4) 0.27330(3)
Cd1_3 Cd 0.03981(6) 0.48229(4) 0.27330(3)
Cd1A Cd 0.96019(6) -0.48229(4) 0.72670(3)
Cd2_2 Cd 0.0000 0.5000 0.5000
Cd2_3 Cd 1.0000 -0.5000 0.5000
Cd2_4 Cd 2.0000 0.5000 0.5000
F1_2 F 1.7449(7) -0.1358(5) -0.2226(4)
loop_
_geom_bond_atom_site_label_1
_geom_bond_atom_site_label_2
_geom_bond_site_symmetry_1
_geom_bond_site_symmetry_2
C1 H1 1_555 1_555
C2 C1 1_555 1_555
C3 C4 1_555 1_555
C4 H2 1_555 1_555
C5 C4 1_555 1_555
H3 C5 1_555 1_555
H4 C5 1_555 1_555
C6 C4 1_555 1_555
H5 C6 1_555 1_555
H6 C6 1_555 1_555
O1 C2 1_555 1_555
O2 C2 1_555 1_555
O3 C3 1_555 1_555
O4 C3 1_555 1_555
C7 H7 1_555 1_555
C8 C7 1_555 1_555
H8 C8 1_555 1_555
C9 C8 1_555 1_555
H9 C9 1_555 1_555
C10 C9 1_555 1_555
C11 C10 1_555 1_555
C12 C11 1_555 1_555
C13 H10 1_555 1_555
C14 C13 1_555 1_555
H11 C14 1_555 1_555
C15 C14 1_555 1_555
H12 C15 1_555 1_555
C16 C12 1_555 1_555
C17 C16 1_555 1_555
C18 C10 1_555 1_555
C19 C20 1_555 1_555
C20 C21 1_555 1_555
C21 H13 1_555 1_555
C22 C21 1_555 1_555
H14 C22 1_555 1_555
C23 C22 1_555 1_555
C24 C23 1_555 1_555
H15 C24 1_555 1_555
C25 C20 1_555 1_555
H16 C25 1_555 1_555
C26 C27 1_555 1_555
C27 H17 1_555 1_555
C28 C27 1_555 1_555
H18 C28 1_555 1_555
H19 C28 1_555 1_555
C29 C1 1_555 1_555
H20 C29 1_555 1_555
H21 C29 1_555 1_555
C30 C1 1_555 1_555
H22 C30 1_555 1_555
H23 C30 1_555 1_555
C31 C27 1_555 1_555
H24 C31 1_555 1_555
H25 C31 1_555 1_555
N1 C7 1_555 1_555
N2 C12 1_555 1_555
N3 C17 1_555 1_555
N4 C18 1_555 1_555
H26 N4 1_555 1_555
O5 C26 1_555 1_555
O6 C26 1_555 1_555
Cd1 O1 1_555 1_555
Cd2 O1 1_555 1_555
F1 C23 1_555 1_555
C1_2 H1_2 1_555 1_555
C2_2 C1_2 1_555 1_555
C3A C4A 1_555 1_555
C4A H2A 1_555 1_555
C5A C6 1_555 1_555
H3A C5A 1_555 1_555
H4A C5A 1_555 1_555
C6A C5 1_555 1_555
H5A C6A 1_555 1_555
H6A C6A 1_555 1_555
O1_2 C2_2 1_555 1_555
O1A Cd2 1_555 1_555
O2_2 C2_2 1_555 1_555
O3A C3A 1_555 1_555
O3A_2 Cd2 1_555 1_555
O4A C3A 1_555 1_555
O4_2 Cd1_2 1_555 1_555
C7_2 H7_2 1_555 1_555
C8_2 C7_2 1_555 1_555
H8_2 C8_2 1_555 1_555
C9_2 C8_2 1_555 1_555
H9_2 C9_2 1_555 1_555
C10_2 C9_2 1_555 1_555
C11_2 C10_2 1_555 1_555
C12_2 C11_2 1_555 1_555
C13_2 H10_2 1_555 1_555
C14_2 C13_2 1_555 1_555
H11_2 C14_2 1_555 1_555
C15_2 C14_2 1_555 1_555
H12_2 C15_2 1_555 1_555
C16_2 C12_2 1_555 1_555
C17_2 C16_2 1_555 1_555
C18_2 C10_2 1_555 1_555
C19_2 C20_2 1_555 1_555
C20_2 C21_2 1_555 1_555
C21_2 H13_2 1_555 1_555
C22_2 C21_2 1_555 1_555
H14_2 C22_2 1_555 1_555
C23_2 C22_2 1_555 1_555
C24_2 C23_2 1_555 1_555
H15_2 C24_2 1_555 1_555
C25_2 C20_2 1_555 1_555
H16_2 C25_2 1_555 1_555
C26_2 C27_2 1_555 1_555
C27_2 H17_2 1_555 1_555
C28_2 C27_2 1_555 1_555
H18_2 C28_2 1_555 1_555
H19_2 C28_2 1_555 1_555
C29_2 C1_2 1_555 1_555
H20_2 C29_2 1_555 1_555
H21_2 C29_2 1_555 1_555
C30_2 C1_2 1_555 1_555
H22_2 C30_2 1_555 1_555
H23_2 C30_2 1_555 1_555
C31_2 C27_2 1_555 1_555
H24_2 C31_2 1_555 1_555
H25_2 C31_2 1_555 1_555
N1_2 C7_2 1_555 1_555
N2_2 C12_2 1_555 1_555
N3_2 C17_2 1_555 1_555
N4_2 C18_2 1_555 1_555
H26_2 N4_2 1_555 1_555
O5_2 Cd1 1_555 1_555
O5A Cd2 1_555 1_555
O5_3 Cd1_2 1_555 1_555
O6_2 Cd1 1_555 1_555
O6_3 Cd1_2 1_555 1_555
Cd1_2 O1_2 1_555 1_555
Cd1_3 O5 1_555 1_555
Cd1A O4A 1_555 1_555
Cd2_2 O5 1_555 1_555
Cd2_3 O3A 1_555 1_555
Cd2_4 O1_2 1_555 1_555
F1_2 C23_2 1_555 1_555
O2 Cd1 1_555 1_555
O3 Cd2 1_555 1_555
O4 Cd1 1_555 1_555
C11 N1 1_555 1_555
C13 N2 1_555 1_555
C15 C16 1_555 1_555
C17 C18 1_555 1_555
C19 N3 1_555 1_555
C19 N4 1_555 1_555
C24 C25 1_555 1_555
C28 C29 1_555 1_555
C30 C31 1_555 1_555
N1 Cd1 1_555 1_555
N2 Cd1 1_555 1_555
O6 Cd1_3 1_555 1_555
Cd2 O5_2 1_555 1_555
C4A C5A 1_555 1_555
C4A C6A 1_555 1_555
O2_2 Cd1_2 1_555 1_555
C11_2 N1_2 1_555 1_555
C13_2 N2_2 1_555 1_555
C15_2 C16_2 1_555 1_555
C17_2 C18_2 1_555 1_555
C19_2 N3_2 1_555 1_555
C19_2 N4_2 1_555 1_555
C24_2 C25_2 1_555 1_555
C26_2 O5_2 1_555 1_555
C26_2 O6_2 1_555 1_555
C28_2 C29_2 1_555 1_555
C30_2 C31_2 1_555 1_555
N1_2 Cd1_2 1_555 1_555
N2_2 Cd1_2 1_555 1_555
O5_3 Cd2_4 1_555 1_555

#END
