
#######################################################################
#
#                 Cambridge Crystallographic Data Centre
#                                CCDC 
#
#######################################################################
#
# If this CIF has been generated from an entry in the Cambridge 
# Structural Database, then it will include bibliographic, chemical, 
# crystal, experimental, refinement or atomic coordinate data resulting 
# from the CCDC's data processing and validation procedures.
#
#######################################################################

data_LAWSAE
_symmetry_cell_setting           triclinic
_symmetry_space_group_name_H-M   'P -1'
_symmetry_Int_Tables_number      2
_space_group_name_Hall           '-P 1'
loop_
_symmetry_equiv_pos_site_id
_symmetry_equiv_pos_as_xyz
1 x,y,z
2 -x,-y,-z
_cell_length_a                   9.939(2)
_cell_length_b                   10.043(2)
_cell_length_c                   12.674(3)
_cell_angle_alpha                106.63(3)
_cell_angle_beta                 107.79(3)
_cell_angle_gamma                97.09(3)
_cell_volume                     1122.96
loop_
_atom_site_label
_atom_site_type_symbol
_atom_site_fract_x
_atom_site_fract_y
_atom_site_fract_z
Co1 Co -0.16135(3) -0.18379(2) -0.032028(18)
F1 F 0.27998(15) 0.24955(15) 0.51897(10)
O1 O -0.54994(19) -0.18215(16) 0.03770(13)
O2 O -0.37132(17) -0.21672(13) -0.02841(11)
O3 O -0.09561(16) -0.07178(12) 0.14338(10)
O4 O -0.22182(18) -0.37392(12) -0.19007(11)
O5 O -0.16724(17) -0.40082(11) -0.01757(10)
O6 O -0.21588(16) -1.05359(11) -0.12642(11)
O7 O -0.05792(15) -0.85401(11) 0.00734(10)
N1 N 0.2788(2) 0.56298(15) 0.90227(12)
H1 H 0.3470 0.6396 0.9569
H2 H 0.2329 0.5211 0.9397
N2 N 0.14105(19) 0.39178(14) 0.65930(12)
N3 N -0.31399(18) 0.15853(14) 0.32688(12)
C1 C -0.4212(2) -0.15017(16) 0.04503(14)
C2 C -0.3216(2) -0.02723(16) 0.15454(14)
C3 C -0.1681(2) -0.00492(16) 0.19559(14)
C4 C -0.0908(2) 0.10226(17) 0.31380(14)
C5 C 0.0617(2) 0.12741(19) 0.36335(16)
H3 H 0.1132 0.0803 0.3204
C6 C 0.1324(2) 0.2215(2) 0.47491(16)
C7 C 0.0607(2) 0.29327(17) 0.54534(14)
C8 C -0.0887(2) 0.27133(17) 0.49526(14)
H4 H -0.1395 0.3185 0.5389
C9 C -0.1641(2) 0.17756(16) 0.37819(14)
C10 C -0.3871(2) 0.05570(16) 0.21957(14)
H5 H -0.4877 0.0410 0.1887
C11 C -0.3930(2) 0.23544(17) 0.39316(15)
H6 H -0.4091 0.1994 0.4535
C12 C -0.3709(2) 0.39445(18) 0.42218(16)
H7 H -0.3053 0.4409 0.3935
H8 H -0.3716 0.4509 0.4981
C13 C -0.5115(3) 0.29541(18) 0.33257(17)
H9 H -0.5968 0.2927 0.3547
H10 H -0.5305 0.2827 0.2501
C14 C 0.2368(3) 0.33720(18) 0.74282(16)
H11 H 0.2839 0.2721 0.7022
H12 H 0.1799 0.2853 0.7746
C15 C 0.3504(3) 0.46092(19) 0.84209(15)
H13 H 0.4119 0.4255 0.8983
H14 H 0.4110 0.5092 0.8107
C16 C 0.1725(2) 0.61083(18) 0.81852(15)
H15 H 0.2239 0.6694 0.7876
H16 H 0.1211 0.6689 0.8601
C17 C 0.0635(2) 0.48474(19) 0.71681(15)
H17 H 0.0040 0.4318 0.7462
H18 H 0.0003 0.5188 0.6604
C18 C -0.2521(2) -0.61176(15) -0.18515(14)
C19 C -0.3652(2) -0.67958(17) -0.29418(15)
H19 H -0.4130 -0.6263 -0.3360
C20 C -0.4047(2) -0.82787(17) -0.33883(15)
H20 H -0.4797 -0.8740 -0.4112
C21 C -0.3339(2) -0.90770(16) -0.27715(15)
H21 H -0.3601 -1.0069 -0.3091
C22 C -0.2234(2) -0.84028(15) -0.16723(14)
C23 C -0.1828(2) -0.69225(15) -0.12411(14)
H22 H -0.1069 -0.6463 -0.0523
C24 C -0.2117(2) -0.45205(16) -0.12932(15)
C25 C -0.1597(2) -0.92247(16) -0.09037(15)
Co1_2 Co -0.16135(3) -1.18379(2) -0.032028(18)
Co1A Co 0.16135(3) -0.81621(2) 0.032028(18)
O6_2 O -0.21588(16) -0.05359(11) -0.12642(11)
O7A O 0.05792(15) -0.14599(11) -0.00734(10)
loop_
_geom_bond_atom_site_label_1
_geom_bond_atom_site_label_2
_geom_bond_site_symmetry_1
_geom_bond_site_symmetry_2
Co1 O2 1_555 1_555
F1 C6 1_555 1_555
O1 C1 1_555 1_555
O2 C1 1_555 1_555
O3 Co1 1_555 1_555
O4 Co1 1_555 1_555
O5 Co1 1_555 1_555
O6 C25 1_555 1_555
O7 C25 1_555 1_555
N1 H1 1_555 1_555
H2 N1 1_555 1_555
N2 C7 1_555 1_555
N3 C9 1_555 1_555
C1 C2 1_555 1_555
C2 C3 1_555 1_555
C3 O3 1_555 1_555
C4 C3 1_555 1_555
C5 C4 1_555 1_555
H3 C5 1_555 1_555
C6 C5 1_555 1_555
C7 C6 1_555 1_555
C8 C7 1_555 1_555
H4 C8 1_555 1_555
C9 C4 1_555 1_555
C10 N3 1_555 1_555
H5 C10 1_555 1_555
C11 N3 1_555 1_555
H6 C11 1_555 1_555
C12 C11 1_555 1_555
H7 C12 1_555 1_555
H8 C12 1_555 1_555
C13 C11 1_555 1_555
H9 C13 1_555 1_555
H10 C13 1_555 1_555
C14 N2 1_555 1_555
H11 C14 1_555 1_555
H12 C14 1_555 1_555
C15 N1 1_555 1_555
H13 C15 1_555 1_555
H14 C15 1_555 1_555
C16 N1 1_555 1_555
H15 C16 1_555 1_555
H16 C16 1_555 1_555
C17 N2 1_555 1_555
H17 C17 1_555 1_555
H18 C17 1_555 1_555
C18 C19 1_555 1_555
C19 H19 1_555 1_555
C20 C19 1_555 1_555
H20 C20 1_555 1_555
C21 C20 1_555 1_555
H21 C21 1_555 1_555
C22 C21 1_555 1_555
C23 C18 1_555 1_555
H22 C23 1_555 1_555
C24 O4 1_555 1_555
C25 C22 1_555 1_555
Co1_2 O6 1_555 1_555
Co1A O7 1_555 1_555
O6_2 Co1 1_555 1_555
O7A Co1 1_555 1_555
O5 C24 1_555 1_555
C2 C10 1_555 1_555
C8 C9 1_555 1_555
C12 C13 1_555 1_555
C14 C15 1_555 1_555
C16 C17 1_555 1_555
C18 C24 1_555 1_555
C22 C23 1_555 1_555

#END
