
#######################################################################
#
#                 Cambridge Crystallographic Data Centre
#                                CCDC 
#
#######################################################################
#
# If this CIF has been generated from an entry in the Cambridge 
# Structural Database, then it will include bibliographic, chemical, 
# crystal, experimental, refinement or atomic coordinate data resulting 
# from the CCDC's data processing and validation procedures.
#
#######################################################################

data_LAWSUY
_symmetry_cell_setting           monoclinic
_symmetry_space_group_name_H-M   'P 21/c'
_symmetry_Int_Tables_number      14
_space_group_name_Hall           '-P 2ybc'
loop_
_symmetry_equiv_pos_site_id
_symmetry_equiv_pos_as_xyz
1 x,y,z
2 -x,1/2+y,1/2-z
3 -x,-y,-z
4 x,1/2-y,1/2+z
_cell_length_a                   5.9038(12)
_cell_length_b                   21.855(4)
_cell_length_c                   13.479(3)
_cell_angle_alpha                90
_cell_angle_beta                 100.59(3)
_cell_angle_gamma                90
_cell_volume                     1709.54
loop_
_atom_site_label
_atom_site_type_symbol
_atom_site_fract_x
_atom_site_fract_y
_atom_site_fract_z
Mn1 Mn 0.5000 0.0000 0.0000
F1 F -0.1912(2) 0.24451(5) -0.17795(10)
O1 O 0.8455(4) -0.00397(7) -0.25425(15)
O4 O 0.7217(2) -0.00766(6) -0.10888(11)
O6 O 0.3348(2) 0.06969(6) -0.10139(10)
N1 N -0.2363(3) 0.43085(7) -0.40914(12)
H1 H -0.120(4) 0.4504(11) -0.3973(19)
N2 N -0.0590(3) 0.31182(7) -0.33477(12)
N3 N 0.5174(3) 0.15385(7) -0.34839(12)
C1 C 0.7235(3) 0.01539(8) -0.19468(15)
C2 C 0.5755(3) 0.07088(8) -0.22770(14)
C3 C 0.3959(3) 0.09284(7) -0.17818(13)
C4 C 0.2802(3) 0.14827(7) -0.22153(13)
C5 C 0.0994(3) 0.17304(8) -0.17979(14)
H2 H 0.9489 -0.1532 0.1263
C6 C -0.0052(3) 0.22550(8) -0.21668(14)
C7 C 0.0616(3) 0.25948(8) -0.29637(13)
C8 C 0.2377(3) 0.23439(8) -0.33876(14)
H3 H 0.2869 0.2548 -0.3915
C9 C 0.3438(3) 0.17876(8) -0.30382(14)
C10 C 0.6253(3) 0.10269(8) -0.30913(14)
H4 H 0.7431 0.0876 -0.3395
C11 C 0.5917(3) 0.18547(9) -0.43218(16)
H5 H 0.6623 0.2256 -0.4153
C12 C 0.4532(5) 0.18047(13) -0.5366(2)
H6 H 0.4387 0.2167 -0.5789
H7 H 0.3192 0.1540 -0.5467
C13 C 0.6853(6) 0.15124(13) -0.5101(2)
H8 H 0.8111 0.1697 -0.5368
H9 H 0.6917 0.1070 -0.5047
C14 C -0.0919(4) 0.36110(9) -0.26375(15)
H10 H 1.1341 -0.3435 0.2036
H11 H 0.9491 -0.3836 0.2438
C15 C -0.2818(4) 0.40456(9) -0.31430(15)
H12 H -0.2978 0.4375 -0.2679
H13 H -0.4267 0.3825 -0.3280
C16 C -0.1906(4) 0.38120(9) -0.47555(16)
H14 H -0.3320 0.3584 -0.4972
H15 H -0.1465 0.3989 -0.5352
C17 C 1.0026(4) -0.33682(10) 0.42746(17)
H16 H 0.8559 -0.3580 0.4125
H17 H 0.9891 -0.3038 0.4742
Mn1C Mn -0.5000 0.5000 -0.5000
Mn1C_2 Mn 1.5000 -0.5000 0.5000
F1B F 1.1912(2) -0.24451(5) 0.17795(10)
O1B O 0.1545(4) 0.00397(7) 0.25425(15)
O4B O 0.2783(2) 0.00766(6) 0.10888(11)
O6B O 0.6652(2) -0.06969(6) 0.10139(10)
N1C N 0.7637(3) 0.06915(7) 0.09086(12)
N1A N 0.2363(3) -0.06915(7) -0.09086(12)
N1B N 1.2363(3) -0.43085(7) 0.40914(12)
H1C H 0.880(4) 0.0496(11) 0.1027(19)
H1A H 0.120(4) -0.0496(11) -0.1027(19)
H1B H 1.120(4) -0.4504(11) 0.3973(19)
N2B N 1.0590(3) -0.31182(7) 0.33477(12)
N3B N 0.4826(3) -0.15385(7) 0.34839(12)
C1B C 0.2765(3) -0.01539(8) 0.19468(15)
C2B C 0.4245(3) -0.07088(8) 0.22770(14)
C3B C 0.6041(3) -0.09284(7) 0.17818(13)
C4B C 0.7198(3) -0.14827(7) 0.22153(13)
C5B C 0.9006(3) -0.17304(8) 0.17979(14)
H2B H 0.0511 0.1532 -0.1263
C6B C 1.0052(3) -0.22550(8) 0.21668(14)
C7B C 0.9384(3) -0.25948(8) 0.29637(13)
C8B C 0.7623(3) -0.23439(8) 0.33876(14)
H3B H 0.7131 -0.2548 0.3915
C9B C 0.6562(3) -0.17876(8) 0.30382(14)
C10B C 0.3747(3) -0.10269(8) 0.30913(14)
H4B H 0.2569 -0.0876 0.3395
C11B C 0.4083(3) -0.18547(9) 0.43218(16)
H5B H 0.3377 -0.2256 0.4153
C12B C 0.5468(5) -0.18047(13) 0.5366(2)
H6B H 0.5613 -0.2167 0.5789
H7B H 0.6808 -0.1540 0.5467
C13B C 0.3147(6) -0.15124(13) 0.5101(2)
H8B H 0.1889 -0.1697 0.5368
H9B H 0.3083 -0.1070 0.5047
C14B C 1.0919(4) -0.36110(9) 0.26375(15)
H10B H -0.1341 0.3435 -0.2036
H11B H 0.0509 0.3836 -0.2438
C15B C 1.2818(4) -0.40456(9) 0.31430(15)
H12B H 1.2978 -0.4375 0.2679
H13B H 1.4267 -0.3825 0.3280
C16B C 1.1906(4) -0.38120(9) 0.47555(16)
H14B H 1.3320 -0.3584 0.4972
H15B H 1.1465 -0.3989 0.5352
C17B C -0.0026(4) 0.33682(10) -0.42746(17)
H16B H 0.1441 0.3580 -0.4125
H17B H 0.0109 0.3038 -0.4742
O3 O -0.155(2) 0.5222(4) -0.9558(6)
O5 O 0.0994(14) 0.4670(5) -0.9101(7)
O2? O -0.404(2) 0.5182(4) -0.9667(6)
loop_
_geom_bond_atom_site_label_1
_geom_bond_atom_site_label_2
_geom_bond_site_symmetry_1
_geom_bond_site_symmetry_2
Mn1 O4 1_555 1_555
F1 C6 1_555 1_555
O1 C1 1_555 1_555
O4 C1 1_555 1_555
O6 Mn1 1_555 1_555
N1 H1 1_555 1_555
N2 C7 1_555 1_555
N3 C9 1_555 1_555
C1 C2 1_555 1_555
C2 C3 1_555 1_555
C3 O6 1_555 1_555
C4 C3 1_555 1_555
C5 C4 1_555 1_555
H2 C5B 1_555 1_555
C6 C5 1_555 1_555
C7 C6 1_555 1_555
C8 C7 1_555 1_555
H3 C8 1_555 1_555
C9 C4 1_555 1_555
C10 N3 1_555 1_555
H4 C10 1_555 1_555
C11 N3 1_555 1_555
H5 C11 1_555 1_555
C12 C11 1_555 1_555
H6 C12 1_555 1_555
H7 C12 1_555 1_555
C13 C11 1_555 1_555
H8 C13 1_555 1_555
H9 C13 1_555 1_555
C14 N2 1_555 1_555
H10 C14B 1_555 1_555
H11 C14B 1_555 1_555
C15 N1 1_555 1_555
H12 C15 1_555 1_555
H13 C15 1_555 1_555
C16 N1 1_555 1_555
H14 C16 1_555 1_555
H15 C16 1_555 1_555
C17 H16 1_555 1_555
H17 C17 1_555 1_555
Mn1C N1 1_555 1_555
Mn1C_2 N1B 1_555 1_555
F1B C6B 1_555 1_555
O1B C1B 1_555 1_555
O4B Mn1 1_555 1_555
O6B Mn1 1_555 1_555
N1C Mn1 1_555 1_555
N1A Mn1 1_555 1_555
N1B H1B 1_555 1_555
H1C N1C 1_555 1_555
H1A N1A 1_555 1_555
N2B C17 1_555 1_555
N3B C9B 1_555 1_555
C1B O4B 1_555 1_555
C2B C1B 1_555 1_555
C3B O6B 1_555 1_555
C4B C3B 1_555 1_555
C5B C4B 1_555 1_555
H2B C5 1_555 1_555
C6B C5B 1_555 1_555
C7B N2B 1_555 1_555
C8B C7B 1_555 1_555
H3B C8B 1_555 1_555
C9B C4B 1_555 1_555
C10B N3B 1_555 1_555
H4B C10B 1_555 1_555
C11B N3B 1_555 1_555
H5B C11B 1_555 1_555
C12B C11B 1_555 1_555
H6B C12B 1_555 1_555
H7B C12B 1_555 1_555
C13B C11B 1_555 1_555
H8B C13B 1_555 1_555
H9B C13B 1_555 1_555
C14B N2B 1_555 1_555
H10B C14 1_555 1_555
H11B C14 1_555 1_555
C15B N1B 1_555 1_555
H12B C15B 1_555 1_555
H13B C15B 1_555 1_555
C16B C17 1_555 1_555
H14B C16B 1_555 1_555
H15B C16B 1_555 1_555
C17B N2 1_555 1_555
H16B C17B 1_555 1_555
H17B C17B 1_555 1_555
C2 C10 1_555 1_555
C8 C9 1_555 1_555
C12 C13 1_555 1_555
C14 C15 1_555 1_555
C16 C17B 1_555 1_555
N1B C16B 1_555 1_555
C2B C3B 1_555 1_555
C2B C10B 1_555 1_555
C6B C7B 1_555 1_555
C8B C9B 1_555 1_555
C12B C13B 1_555 1_555
C14B C15B 1_555 1_555

#END
