
#######################################################################
#
#                 Cambridge Crystallographic Data Centre
#                                CCDC 
#
#######################################################################
#
# If this CIF has been generated from an entry in the Cambridge 
# Structural Database, then it will include bibliographic, chemical, 
# crystal, experimental, refinement or atomic coordinate data resulting 
# from the CCDC's data processing and validation procedures.
#
#######################################################################

data_LAWSAF
_symmetry_cell_setting           rhombohedral
_symmetry_space_group_name_H-M   'R -3'
_symmetry_Int_Tables_number      148
_space_group_name_Hall           '-R 3'
loop_
_symmetry_equiv_pos_site_id
_symmetry_equiv_pos_as_xyz
1 x,y,z
2 -y,x-y,z
3 -x+y,-x,z
4 2/3+x,1/3+y,1/3+z
5 2/3-y,1/3+x-y,1/3+z
6 2/3-x+y,1/3-x,1/3+z
7 1/3+x,2/3+y,2/3+z
8 1/3-y,2/3+x-y,2/3+z
9 1/3-x+y,2/3-x,2/3+z
10 -x,-y,-z
11 y,-x+y,-z
12 x-y,x,-z
13 1/3-x,2/3-y,2/3-z
14 1/3+y,2/3-x+y,2/3-z
15 1/3+x-y,2/3+x,2/3-z
16 2/3-x,1/3-y,1/3-z
17 2/3+y,1/3-x+y,1/3-z
18 2/3+x-y,1/3+x,1/3-z
_cell_length_a                   14.393(2)
_cell_length_b                   14.393(2)
_cell_length_c                   14.597(4)
_cell_angle_alpha                90
_cell_angle_beta                 90
_cell_angle_gamma                120
_cell_volume                     2618.77
loop_
_atom_site_label
_atom_site_type_symbol
_atom_site_fract_x
_atom_site_fract_y
_atom_site_fract_z
Mg1 Mg 0.05204(6) 0.31977(6) 0.10855(5)
O1 O 0.16644(13) 0.42528(12) 0.01888(11)
O2 O 0.09711(12) 0.37558(12) -0.12071(11)
O3 O 0.07043(12) 0.55123(12) -0.17322(10)
O4 O 0.05931(11) 0.64336(12) -0.05573(11)
O5 O 0.13402(12) 0.44850(13) 0.19895(11)
H1 H 0.1115 0.4355 0.2539
H2 H 0.1291 0.5013 0.1788
O6 O 0.01279(13) 0.20622(13) 0.00303(11)
H3 H 0.0208 0.2443 -0.0441
H4 H -0.0433 0.1447 -0.0002
C1 C 0.16637(17) 0.44240(17) -0.06527(16)
C2 C 0.25094(17) 0.55232(17) -0.10214(16)
H5 H 0.2495 0.5505 -0.1706
C3 C 0.21980(16) 0.63448(17) -0.06854(16)
H6 H 0.2199 0.6344 0.0000
C4 C 0.10731(17) 0.60588(17) -0.10157(15)
Mg1B Mg 0.26773(8) 0.94796(6) 0.10855(5)
Mg1A Mg 0.68023(6) 0.73227(8) 0.10855(5)
Mg1G Mg 0.01356(6) 0.39894(8) -0.22478(5)
Mg1I Mg -0.05204(6) 0.68023(6) -0.10855(5)
Mg1F Mg 0.38537(6) 0.98644(6) -0.22478(5)
Mg1H Mg 0.60106(8) 0.61463(6) -0.22478(5)
Mg1J Mg 0.31977(6) 0.26773(8) -0.10855(5)
Mg1K Mg 0.73227(8) 1.05204(6) -0.10855(5)
O1B O 0.25884(18) 0.83356(13) 0.01888(11)
O1A O 0.57472(12) 0.74116(18) 0.01888(11)
O2B O 0.27847(17) 0.90289(12) -0.12071(11)
O2A O 0.62442(12) 0.72153(17) -0.12071(11)
O2E O -0.05486(17) 0.23622(12) 0.21262(11)
O2D O 0.29109(12) 1.05486(17) 0.21262(11)
O2C O 0.76378(12) 0.70891(12) 0.21262(11)
O3A O 0.44877(12) 0.51920(17) -0.17322(10)
O3B O 0.48080(17) 0.92957(12) -0.17322(10)
O3E O 0.14747(17) 0.26290(12) 0.16011(10)
O3D O 0.11544(12) 0.85253(17) 0.16011(10)
O3C O 0.73710(12) 0.88456(12) 0.16011(10)
O4A O 0.35664(12) 0.41595(16) -0.05573(11)
O4B O 0.58405(16) 0.94069(11) -0.05573(11)
O4I O -0.05931(11) 0.35664(12) 0.05573(11)
O4K O 0.41595(16) 1.05931(11) 0.05573(11)
O4J O 0.64336(12) 0.58405(16) 0.05573(11)
O5B O 0.31448(18) 0.86598(12) 0.19895(11)
O5A O 0.55150(13) 0.68552(18) 0.19895(11)
H1B H 0.3240 0.8885 0.2539
H1A H 0.5645 0.6760 0.2539
H2B H 0.3722 0.8709 0.1788
H2A H 0.4987 0.6278 0.1788
O6B O 0.19343(18) 0.98721(13) 0.00303(11)
O6A O 0.79378(13) 0.80657(18) 0.00303(11)
H3B H 0.2235 0.9792 -0.0441
H3A H 0.7557 0.7765 -0.0441
H4B H 0.1880 1.0433 -0.0002
H4A H 0.8553 0.8120 -0.0002
C1B C 0.27603(24) 0.83363(17) -0.06527(16)
C1A C 0.55760(17) 0.72397(24) -0.06527(16)
C2B C 0.30138(24) 0.74906(17) -0.10214(16)
C2A C 0.44768(17) 0.69862(24) -0.10214(16)
H5B H 0.3010 0.7505 -0.1706
H5A H 0.4495 0.6990 -0.1706
C3B C 0.41468(23) 0.78020(16) -0.06854(16)
C3A C 0.36552(17) 0.58532(23) -0.06854(16)
H6A H 0.3656 0.5855 0.0000
H6B H 0.4145 0.7801 0.0000
C4A C 0.39412(17) 0.50143(24) -0.10157(15)
C4B C 0.49857(24) 0.89269(17) -0.10157(15)
loop_
_geom_bond_atom_site_label_1
_geom_bond_atom_site_label_2
_geom_bond_site_symmetry_1
_geom_bond_site_symmetry_2
Mg1 O1 1_555 1_555
O1 C1 1_555 1_555
O2 C1 1_555 1_555
O3 C4 1_555 1_555
O4 C4 1_555 1_555
O5 Mg1 1_555 1_555
H1 O5 1_555 1_555
H2 O5 1_555 1_555
O6 Mg1 1_555 1_555
H3 O6 1_555 1_555
H4 O6 1_555 1_555
C1 C2 1_555 1_555
C2 H5 1_555 1_555
C3 C2 1_555 1_555
H6 C3 1_555 1_555
C4 C3 1_555 1_555
Mg1B O1B 1_555 1_555
Mg1A O1A 1_555 1_555
Mg1G O2 1_555 1_555
Mg1I O4 1_555 1_555
Mg1F O2B 1_555 1_555
Mg1H O2A 1_555 1_555
Mg1J O4A 1_555 1_555
Mg1K O4B 1_555 1_555
O1B C1B 1_555 1_555
O1A C1A 1_555 1_555
O2B C1B 1_555 1_555
O2A C1A 1_555 1_555
O2E Mg1 1_555 1_555
O2D Mg1B 1_555 1_555
O2C Mg1A 1_555 1_555
O3A Mg1H 1_555 1_555
O3B Mg1F 1_555 1_555
O3E Mg1 1_555 1_555
O3D Mg1B 1_555 1_555
O3C Mg1A 1_555 1_555
O4A C4A 1_555 1_555
O4B C4B 1_555 1_555
O4I Mg1 1_555 1_555
O4K Mg1B 1_555 1_555
O4J Mg1A 1_555 1_555
O5B Mg1B 1_555 1_555
O5A Mg1A 1_555 1_555
H1B O5B 1_555 1_555
H1A O5A 1_555 1_555
H2B O5B 1_555 1_555
H2A O5A 1_555 1_555
O6B Mg1B 1_555 1_555
O6A Mg1A 1_555 1_555
H3B O6B 1_555 1_555
H3A O6A 1_555 1_555
H4B O6B 1_555 1_555
H4A O6A 1_555 1_555
C1B C2B 1_555 1_555
C1A C2A 1_555 1_555
C2B C3 1_555 1_555
C2A H5A 1_555 1_555
H5B C2B 1_555 1_555
C3B C2B 1_555 1_555
C3A C2 1_555 1_555
H6A C3A 1_555 1_555
H6B C3B 1_555 1_555
C4A O3A 1_555 1_555
C4B O3B 1_555 1_555
O3 Mg1G 1_555 1_555
C2A C3B 1_555 1_555
C2A C3A 1_555 1_555
C3B C4B 1_555 1_555
C3A C4A 1_555 1_555

#END
