
#######################################################################
#
#                 Cambridge Crystallographic Data Centre
#                                CCDC 
#
#######################################################################
#
# If this CIF has been generated from an entry in the Cambridge 
# Structural Database, then it will include bibliographic, chemical, 
# crystal, experimental, refinement or atomic coordinate data resulting 
# from the CCDC's data processing and validation procedures.
#
#######################################################################

data_LAWSEI
_symmetry_cell_setting           triclinic
_symmetry_space_group_name_H-M   'P -1'
_symmetry_Int_Tables_number      2
_space_group_name_Hall           '-P 1'
loop_
_symmetry_equiv_pos_site_id
_symmetry_equiv_pos_as_xyz
1 x,y,z
2 -x,-y,-z
_cell_length_a                   9.817(2)
_cell_length_b                   10.057(2)
_cell_length_c                   12.858(3)
_cell_angle_alpha                107.49(3)
_cell_angle_beta                 108.28(3)
_cell_angle_gamma                96.19(3)
_cell_volume                     1120.68
loop_
_atom_site_label
_atom_site_type_symbol
_atom_site_fract_x
_atom_site_fract_y
_atom_site_fract_z
Zn1 Zn -0.16245(5) -0.17343(4) -0.03498(3)
F1 F 0.2820(3) 0.2494(3) 0.51711(18)
O1 O -0.5525(4) -0.1811(3) 0.0373(2)
O2 O -0.3743(3) -0.2051(2) -0.03190(19)
O3 O -0.0970(3) -0.0698(2) 0.14105(19)
O4 O -0.2137(3) -0.3682(2) -0.1733(2)
O5 O -0.1691(3) -0.4037(2) -0.0063(2)
O6 O -0.2160(3) -1.0560(2) -0.1362(2)
O7 O -0.0621(3) -0.8597(2) 0.00350(19)
N1 N 0.2797(4) 0.5656(3) 0.8982(2)
H1 H 0.2339 0.5245 0.9351
H2 H 0.3487 0.6423 0.9527
N2 N 0.1410(4) 0.3916(3) 0.6574(2)
N3 N -0.3168(3) 0.1601(3) 0.3275(2)
C1 C -0.4235(4) -0.1452(3) 0.0448(3)
C2 C -0.3241(4) -0.0246(3) 0.1545(3)
C3 C -0.1699(4) -0.0031(3) 0.1956(3)
C4 C -0.0911(4) 0.1024(3) 0.3124(3)
C5 C 0.0610(5) 0.1280(4) 0.3624(3)
H3 H 0.1137 0.0812 0.3198
C6 C 0.1325(5) 0.2210(4) 0.4731(3)
C7 C 0.0601(4) 0.2941(4) 0.5447(3)
C8 C -0.0897(4) 0.2710(3) 0.4940(3)
H4 H -0.1416 0.3172 0.5377
C9 C -0.1661(4) 0.1797(3) 0.3788(3)
C10 C -0.3897(4) 0.0596(3) 0.2218(3)
H5 H -0.4917 0.0455 0.1916
C11 C -0.3973(4) 0.2383(3) 0.3943(3)
H6 H -0.4147 0.2022 0.4529
C12 C -0.3743(5) 0.3965(3) 0.4238(3)
H7 H -0.3761 0.4539 0.4987
H8 H -0.3065 0.4418 0.3970
C13 C -0.5155(5) 0.2994(4) 0.3334(3)
H9 H -0.6027 0.2983 0.3537
H10 H -0.5332 0.2862 0.2520
C14 C 0.2392(5) 0.3395(4) 0.7396(3)
H11 H 0.2879 0.2746 0.6993
H12 H 0.1826 0.2874 0.7704
C15 C 0.3521(5) 0.4624(4) 0.8382(3)
H13 H 0.4148 0.4270 0.8938
H14 H 0.4134 0.5102 0.8080
C16 C 0.1716(5) 0.6129(4) 0.8157(3)
H15 H 0.2228 0.6703 0.7850
H16 H 0.1196 0.6720 0.8570
C17 C 0.0626(5) 0.4872(4) 0.7160(3)
H17 H 0.0037 0.4352 0.7454
H18 H -0.0028 0.5205 0.6602
C18 C -0.2505(4) -0.6082(3) -0.1785(3)
C19 C -0.3592(4) -0.6726(3) -0.2881(3)
H19 H -0.4039 -0.6167 -0.3285
C20 C -0.4019(4) -0.8208(3) -0.3380(3)
H20 H -0.4768 -0.8642 -0.4111
C21 C -0.3330(4) -0.9027(3) -0.2790(3)
H21 H -0.3600 -1.0019 -0.3134
C22 C -0.2243(4) -0.8396(3) -0.1694(3)
C23 C -0.1824(4) -0.6927(3) -0.1214(3)
H22 H -0.1064 -0.6495 -0.0489
C24 C -0.2069(4) -0.4484(3) -0.1157(3)
C25 C -0.1594(4) -0.9232(3) -0.0949(3)
Zn1_2 Zn -0.16245(5) -1.17343(4) -0.03498(3)
Zn1A Zn 0.16245(5) -0.82657(4) 0.03498(3)
O6_2 O -0.2160(3) -0.0560(2) -0.1362(2)
O7A O 0.0621(3) -0.1403(2) -0.00350(19)
loop_
_geom_bond_atom_site_label_1
_geom_bond_atom_site_label_2
_geom_bond_site_symmetry_1
_geom_bond_site_symmetry_2
Zn1 O2 1_555 1_555
F1 C6 1_555 1_555
O1 C1 1_555 1_555
O2 C1 1_555 1_555
O3 Zn1 1_555 1_555
O4 Zn1 1_555 1_555
O5 Zn1 1_555 1_555
O6 C25 1_555 1_555
O7 C25 1_555 1_555
N1 H1 1_555 1_555
H2 N1 1_555 1_555
N2 C7 1_555 1_555
N3 C9 1_555 1_555
C1 C2 1_555 1_555
C2 C3 1_555 1_555
C3 O3 1_555 1_555
C4 C3 1_555 1_555
C5 C4 1_555 1_555
H3 C5 1_555 1_555
C6 C5 1_555 1_555
C7 C6 1_555 1_555
C8 C7 1_555 1_555
H4 C8 1_555 1_555
C9 C4 1_555 1_555
C10 N3 1_555 1_555
H5 C10 1_555 1_555
C11 N3 1_555 1_555
H6 C11 1_555 1_555
C12 C11 1_555 1_555
H7 C12 1_555 1_555
H8 C12 1_555 1_555
C13 C11 1_555 1_555
H9 C13 1_555 1_555
H10 C13 1_555 1_555
C14 N2 1_555 1_555
H11 C14 1_555 1_555
H12 C14 1_555 1_555
C15 N1 1_555 1_555
H13 C15 1_555 1_555
H14 C15 1_555 1_555
C16 N1 1_555 1_555
H15 C16 1_555 1_555
H16 C16 1_555 1_555
C17 N2 1_555 1_555
H17 C17 1_555 1_555
H18 C17 1_555 1_555
C18 C19 1_555 1_555
C19 H19 1_555 1_555
C20 C19 1_555 1_555
H20 C20 1_555 1_555
C21 C20 1_555 1_555
H21 C21 1_555 1_555
C22 C21 1_555 1_555
C23 C18 1_555 1_555
H22 C23 1_555 1_555
C24 O4 1_555 1_555
C25 C22 1_555 1_555
Zn1_2 O6 1_555 1_555
Zn1A O7 1_555 1_555
O6_2 Zn1 1_555 1_555
O7A Zn1 1_555 1_555
O5 C24 1_555 1_555
C2 C10 1_555 1_555
C8 C9 1_555 1_555
C12 C13 1_555 1_555
C14 C15 1_555 1_555
C16 C17 1_555 1_555
C18 C24 1_555 1_555
C22 C23 1_555 1_555

#END
