
#######################################################################
#
#                 Cambridge Crystallographic Data Centre
#                                CCDC 
#
#######################################################################
#
# If this CIF has been generated from an entry in the Cambridge 
# Structural Database, then it will include bibliographic, chemical, 
# crystal, experimental, refinement or atomic coordinate data resulting 
# from the CCDC's data processing and validation procedures.
#
#######################################################################

data_LAWTOT01
_symmetry_cell_setting           monoclinic
_symmetry_space_group_name_H-M   'P 21/c'
_symmetry_Int_Tables_number      14
_space_group_name_Hall           '-P 2ybc'
loop_
_symmetry_equiv_pos_site_id
_symmetry_equiv_pos_as_xyz
1 x,y,z
2 -x,1/2+y,1/2-z
3 -x,-y,-z
4 x,1/2-y,1/2+z
_cell_length_a                   5.9791(4)
_cell_length_b                   21.7166(18)
_cell_length_c                   13.2913(8)
_cell_angle_alpha                90
_cell_angle_beta                 101.624(8)
_cell_angle_gamma                90
_cell_volume                     1690.42
loop_
_atom_site_label
_atom_site_type_symbol
_atom_site_fract_x
_atom_site_fract_y
_atom_site_fract_z
Mg1 Mg -0.5000 0.5000 0.5000
F1 F 0.1929(2) 0.25756(6) 0.67604(11)
O1 O -0.3373(2) 0.43271(6) 0.59616(10)
O2 O -0.7102(2) 0.50961(6) 0.60240(11)
O3 O -0.8402(3) 0.50584(8) 0.74685(13)
N1 N -0.5075(3) 0.34724(8) 0.84619(12)
N2 N 0.0643(3) 0.18878(7) 0.83303(12)
N3 N 0.2444(3) 0.06876(7) 0.90901(13)
C1 C -0.7164(3) 0.48656(9) 0.68886(15)
C2 C -0.6157(3) 0.39883(9) 0.80638(15)
H1 H -0.7342 0.4141 0.8375
C3 C -0.5680(3) 0.43110(9) 0.72430(14)
C4 C -0.3920(3) 0.40919(8) 0.67456(14)
C5 C -0.0958(3) 0.32938(9) 0.67719(15)
H2 H -0.0480 0.3502 0.6222
C6 C 0.0091(3) 0.27643(9) 0.71442(15)
C7 C -0.0555(3) 0.24151(9) 0.79417(15)
C8 C -0.2300(3) 0.26642(9) 0.83639(15)
H3 H -0.2795 0.2449 0.8902
C9 C -0.3353(3) 0.32254(9) 0.80175(15)
C10 C -0.2742(3) 0.35384(9) 0.71896(14)
C11 C -0.5798(4) 0.31427(10) 0.92980(17)
H4 H -0.6506 0.2731 0.9108
C12 C -0.6739(6) 0.34829(14) 1.0084(2)
H5 H -0.8008 0.3290 1.0347
H6 H -0.6807 0.3938 1.0033
C13 C -0.4431(5) 0.31881(15) 1.0361(2)
H7 H -0.3076 0.3461 1.0480
H8 H -0.4277 0.2813 1.0794
C14 C 0.0075(5) 0.16228(11) 0.92549(18)
H9 H -0.1390 0.1397 0.9075
H10 H -0.0103 0.1956 0.9742
C15 C 0.1953(5) 0.11867(11) 0.97548(17)
H11 H 0.3368 0.1428 0.9990
H12 H 0.1518 0.1003 1.0370
C16 C 0.2869(4) 0.09577(10) 0.81367(16)
H13 H 0.3028 0.0621 0.7653
H14 H 0.4334 0.1185 0.8289
C17 C 0.0997(4) 0.13940(10) 0.76170(16)
H15 H 0.1428 0.1577 0.7001
H16 H -0.0443 0.1162 0.7393
H17 H 0.116(5) 0.0453(13) 0.891(2)
Mg1C Mg 0.5000 0.0000 1.0000
Mg1C_2 Mg -1.5000 1.0000 0.0000
F1B F -1.1929(2) 0.74244(6) 0.32396(11)
O1B O -0.6627(2) 0.56729(6) 0.40384(10)
O2B O -0.2898(2) 0.49039(6) 0.39760(11)
O3B O -0.1598(3) 0.49416(8) 0.25315(13)
N1B N -0.4925(3) 0.65276(8) 0.15381(12)
N2B N -1.0643(3) 0.81122(7) 0.16697(12)
N3B N -1.2444(3) 0.93124(7) 0.09099(13)
N3C N -0.7556(3) 0.43124(7) 0.40901(13)
N3A N -0.2444(3) 0.56876(7) 0.59099(13)
C1B C -0.2836(3) 0.51344(9) 0.31114(15)
C2B C -0.3843(3) 0.60117(9) 0.19362(15)
H1B H -0.2658 0.5859 0.1625
C3B C -0.4320(3) 0.56890(9) 0.27570(14)
C4B C -0.6080(3) 0.59081(8) 0.32544(14)
C5B C -0.9042(3) 0.67062(9) 0.32281(15)
H2B H -0.9520 0.6498 0.3778
C6B C -1.0091(3) 0.72357(9) 0.28558(15)
C7B C -0.9445(3) 0.75849(9) 0.20583(15)
C8B C -0.7700(3) 0.73358(9) 0.16361(15)
H3B H -0.7205 0.7551 0.1098
C9B C -0.6647(3) 0.67746(9) 0.19825(15)
C10B C -0.7258(3) 0.64616(9) 0.28104(14)
C11B C -0.4202(4) 0.68573(10) 0.07020(17)
H4B H -0.3494 0.7269 0.0892
C12B C -0.3261(6) 0.65171(14) -0.0084(2)
H5B H -0.1992 0.6710 -0.0347
H6B H -0.3193 0.6062 -0.0033
C13B C -0.5569(5) 0.68119(15) -0.0361(2)
H7B H -0.6924 0.6539 -0.0480
H8B H -0.5723 0.7187 -0.0794
C14B C -1.0075(5) 0.83772(11) 0.07451(18)
H9B H -0.8610 0.8603 0.0925
H10B H -0.9897 0.8044 0.0258
C15B C -1.1953(5) 0.88133(11) 0.02452(17)
H11B H -1.3368 0.8572 0.0010
H12B H -1.1518 0.8997 -0.0370
C16B C -1.2869(4) 0.90423(10) 0.18633(16)
H13B H -1.3028 0.9379 0.2347
H14B H -1.4334 0.8815 0.1711
C17B C -1.0997(4) 0.86060(10) 0.23830(16)
H15B H -1.1428 0.8423 0.2999
H16B H -0.9557 0.8838 0.2607
H17B H -1.116(5) 0.9547(13) 0.109(2)
H17C H -0.884(5) 0.4547(13) 0.391(2)
H17A H -0.116(5) 0.5453(13) 0.609(2)
O4 O -0.291(5) 0.0198(4) 0.5374(6)
H18 H -0.438(4) 0.0099(16) 0.529(3)
H19 H -0.149(5) 0.0276(17) 0.549(3)
O5? O 0.031(14) -0.003(2) 0.428(4)
H20? H -0.079(4) 0.0365(12) 0.412(2)
loop_
_geom_bond_atom_site_label_1
_geom_bond_atom_site_label_2
_geom_bond_site_symmetry_1
_geom_bond_site_symmetry_2
Mg1 O1 1_555 1_555
F1 C6 1_555 1_555
O1 C4 1_555 1_555
O2 Mg1 1_555 1_555
O3 C1 1_555 1_555
N1 C2 1_555 1_555
N2 C7 1_555 1_555
N3 C15 1_555 1_555
C1 O2 1_555 1_555
C2 H1 1_555 1_555
C3 C1 1_555 1_555
C4 C3 1_555 1_555
C5 H2 1_555 1_555
C6 C5 1_555 1_555
C7 C6 1_555 1_555
C8 C7 1_555 1_555
H3 C8 1_555 1_555
C9 N1 1_555 1_555
C10 C4 1_555 1_555
C11 N1 1_555 1_555
H4 C11 1_555 1_555
C12 C11 1_555 1_555
H5 C12 1_555 1_555
H6 C12 1_555 1_555
C13 C11 1_555 1_555
H7 C13 1_555 1_555
H8 C13 1_555 1_555
C14 N2 1_555 1_555
H9 C14 1_555 1_555
H10 C14 1_555 1_555
C15 C14 1_555 1_555
H11 C15 1_555 1_555
H12 C15 1_555 1_555
C16 N3 1_555 1_555
H13 C16 1_555 1_555
H14 C16 1_555 1_555
C17 N2 1_555 1_555
H15 C17 1_555 1_555
H16 C17 1_555 1_555
H17 N3 1_555 1_555
O4 H18 1_555 1_555
H19 O4 1_555 1_555
Mg1C N3 1_555 1_555
Mg1C_2 N3B 1_555 1_555
F1B C6B 1_555 1_555
O1B Mg1 1_555 1_555
O2B Mg1 1_555 1_555
O3B C1B 1_555 1_555
N1B C2B 1_555 1_555
N2B C7B 1_555 1_555
N3B C15B 1_555 1_555
N3C Mg1 1_555 1_555
N3A Mg1 1_555 1_555
C1B O2B 1_555 1_555
C2B H1B 1_555 1_555
C3B C1B 1_555 1_555
C4B O1B 1_555 1_555
C5B H2B 1_555 1_555
C6B C5B 1_555 1_555
C7B C6B 1_555 1_555
C8B C7B 1_555 1_555
H3B C8B 1_555 1_555
C9B N1B 1_555 1_555
C10B C4B 1_555 1_555
C11B N1B 1_555 1_555
H4B C11B 1_555 1_555
C12B C11B 1_555 1_555
H5B C12B 1_555 1_555
H6B C12B 1_555 1_555
C13B C11B 1_555 1_555
H7B C13B 1_555 1_555
H8B C13B 1_555 1_555
C14B N2B 1_555 1_555
H9B C14B 1_555 1_555
H10B C14B 1_555 1_555
C15B C14B 1_555 1_555
H11B C15B 1_555 1_555
H12B C15B 1_555 1_555
C16B N3B 1_555 1_555
H13B C16B 1_555 1_555
H14B C16B 1_555 1_555
C17B N2B 1_555 1_555
H15B C17B 1_555 1_555
H16B C17B 1_555 1_555
H17B N3B 1_555 1_555
H17C N3C 1_555 1_555
H17A N3A 1_555 1_555
C2 C3 1_555 1_555
C5 C10 1_555 1_555
C8 C9 1_555 1_555
C9 C10 1_555 1_555
C12 C13 1_555 1_555
C16 C17 1_555 1_555
C2B C3B 1_555 1_555
C3B C4B 1_555 1_555
C5B C10B 1_555 1_555
C8B C9B 1_555 1_555
C9B C10B 1_555 1_555
C12B C13B 1_555 1_555
C16B C17B 1_555 1_555

#END
