
#######################################################################
#
#                 Cambridge Crystallographic Data Centre
#                                CCDC 
#
#######################################################################
#
# If this CIF has been generated from an entry in the Cambridge 
# Structural Database, then it will include bibliographic, chemical, 
# crystal, experimental, refinement or atomic coordinate data resulting 
# from the CCDC's data processing and validation procedures.
#
#######################################################################

data_LAWTIN
_symmetry_cell_setting           monoclinic
_symmetry_space_group_name_H-M   'P 21/c'
_symmetry_Int_Tables_number      14
_space_group_name_Hall           '-P 2ybc'
loop_
_symmetry_equiv_pos_site_id
_symmetry_equiv_pos_as_xyz
1 x,y,z
2 -x,1/2+y,1/2-z
3 -x,-y,-z
4 x,1/2-y,1/2+z
_cell_length_a                   5.7035(11)
_cell_length_b                   22.230(4)
_cell_length_c                   13.644(3)
_cell_angle_alpha                90
_cell_angle_beta                 100.61(3)
_cell_angle_gamma                90
_cell_volume                     1700.33
loop_
_atom_site_label
_atom_site_type_symbol
_atom_site_fract_x
_atom_site_fract_y
_atom_site_fract_z
Cd1 Cd 0.5000 0.0000 0.5000
F1 F -0.1920(3) 0.24890(6) 0.31934(11)
O1 O 0.8393(5) -0.00532(8) 0.23642(16)
O4 O 0.7391(3) -0.00526(6) 0.38448(13)
O6 O 0.3235(3) 0.07167(7) 0.39036(11)
N1 N -0.2292(3) 0.43001(8) 0.08807(13)
N2 N -0.0595(3) 0.31195(8) 0.16111(12)
N3 N 0.5190(3) 0.15208(8) 0.14622(12)
C1 C 0.7273(4) 0.01555(10) 0.29777(16)
C2 C 0.5757(3) 0.07103(9) 0.26679(14)
C3 C 0.3912(3) 0.09391(9) 0.31547(14)
C4 C 0.2785(3) 0.14943(9) 0.27305(14)
C5 C 0.0972(4) 0.17580(9) 0.31583(15)
H1 H 0.9520 -0.1573 0.6303
C6 C -0.0063(4) 0.22793(9) 0.27925(15)
C7 C 0.0614(4) 0.25999(9) 0.19934(14)
C8 C 0.2387(4) 0.23348(10) 0.15663(15)
H2 H 0.2896 0.2528 0.1038
C9 C 0.3435(3) 0.17832(9) 0.19091(14)
C10 C 0.6266(4) 0.10139(9) 0.18553(15)
H3 H 0.7458 0.0855 0.1550
C11 C 0.5942(4) 0.18225(11) 0.06197(16)
H4 H 0.6716 0.2213 0.0774
C12 C 0.4472(5) 0.17718(15) -0.0393(2)
H5 H 0.3057 0.1521 -0.0475
H6 H 0.4339 0.2124 -0.0820
C13 C 0.6856(6) 0.14665(14) -0.0147(2)
H7 H 0.8160 0.1634 -0.0426
H8 H 0.6878 0.1032 -0.0081
C14 C -0.0825(4) 0.36173(9) 0.23058(15)
H9 H 1.1236 -0.3456 0.7087
H10 H 0.9311 -0.3825 0.7519
C15 C -0.2735(4) 0.40570(10) 0.18324(15)
H11 H -0.2811 0.4387 0.2291
H12 H -0.4270 0.3855 0.1720
C16 C -0.1939(4) 0.37970(10) 0.02192(15)
H13 H -0.3440 0.3585 0.0027
H14 H -0.1504 0.3959 -0.0382
C17 C 1.0045(4) -0.33511(10) 0.93202(16)
H15 H 0.8499 -0.3547 0.9193
H16 H 0.9979 -0.3021 0.9780
H17 H -0.108(5) 0.4475(13) 0.098(2)
Cd1C Cd -0.5000 0.5000 0.0000
Cd1C_2 Cd 1.5000 -0.5000 1.0000
F1B F 1.1920(3) -0.24890(6) 0.68066(11)
O1B O 0.1607(5) 0.00532(8) 0.76358(16)
O4B O 0.2609(3) 0.00526(6) 0.61552(13)
O6B O 0.6765(3) -0.07167(7) 0.60964(11)
N1C N 0.7708(3) 0.06999(8) 0.58807(13)
N1A N 0.2292(3) -0.06999(8) 0.41193(13)
N1B N 1.2292(3) -0.43001(8) 0.91193(13)
N2B N 1.0595(3) -0.31195(8) 0.83889(12)
N3B N 0.4810(3) -0.15208(8) 0.85378(12)
C1B C 0.2727(4) -0.01555(10) 0.70223(16)
C2B C 0.4243(3) -0.07103(9) 0.73321(14)
C3B C 0.6088(3) -0.09391(9) 0.68453(14)
C4B C 0.7215(3) -0.14943(9) 0.72695(14)
C5B C 0.9028(4) -0.17580(9) 0.68417(15)
H1B H 0.0480 0.1573 0.3697
C6B C 1.0063(4) -0.22793(9) 0.72075(15)
C7B C 0.9386(4) -0.25999(9) 0.80066(14)
C8B C 0.7613(4) -0.23348(10) 0.84337(15)
H2B H 0.7104 -0.2528 0.8962
C9B C 0.6565(3) -0.17832(9) 0.80909(14)
C10B C 0.3734(4) -0.10139(9) 0.81447(15)
H3B H 0.2542 -0.0855 0.8450
C11B C 0.4058(4) -0.18225(11) 0.93803(16)
H4B H 0.3284 -0.2213 0.9226
C12B C 0.5528(5) -0.17718(15) 1.0393(2)
H5B H 0.6943 -0.1521 1.0475
H6B H 0.5661 -0.2124 1.0820
C13B C 0.3144(6) -0.14665(14) 1.0147(2)
H7B H 0.1840 -0.1634 1.0426
H8B H 0.3122 -0.1032 1.0081
C14B C 1.0825(4) -0.36173(9) 0.76942(15)
H9B H -0.1236 0.3456 0.2913
H10B H 0.0689 0.3825 0.2481
C15B C 1.2735(4) -0.40570(10) 0.81676(15)
H11B H 1.2811 -0.4387 0.7709
H12B H 1.4270 -0.3855 0.8280
C16B C 1.1939(4) -0.37970(10) 0.97808(15)
H13B H 1.3440 -0.3585 0.9973
H14B H 1.1504 -0.3959 1.0382
C17B C -0.0045(4) 0.33511(10) 0.06798(16)
H15B H 0.1501 0.3547 0.0807
H16B H 0.0021 0.3021 0.0220
H17C H 0.892(5) 0.0525(13) 0.598(2)
H17A H 0.108(5) -0.0525(13) 0.402(2)
H17B H 1.108(5) -0.4475(13) 0.902(2)
O2 O -0.781(2) 0.4769(3) 0.4650(4)
O5 O -0.901(2) 0.4722(9) 0.5823(10)
O3? O -0.5000 0.5000 0.5000
loop_
_geom_bond_atom_site_label_1
_geom_bond_atom_site_label_2
_geom_bond_site_symmetry_1
_geom_bond_site_symmetry_2
Cd1 O4 1_555 1_555
F1 C6 1_555 1_555
O1 C1 1_555 1_555
O4 C1 1_555 1_555
O6 Cd1 1_555 1_555
N1 C15 1_555 1_555
N2 C7 1_555 1_555
N3 C9 1_555 1_555
C1 C2 1_555 1_555
C2 C3 1_555 1_555
C3 O6 1_555 1_555
C4 C3 1_555 1_555
C5 C4 1_555 1_555
H1 C5B 1_555 1_555
C6 C5 1_555 1_555
C7 C6 1_555 1_555
C8 C7 1_555 1_555
H2 C8 1_555 1_555
C9 C4 1_555 1_555
C10 N3 1_555 1_555
H3 C10 1_555 1_555
C11 N3 1_555 1_555
H4 C11 1_555 1_555
C12 C11 1_555 1_555
H5 C12 1_555 1_555
H6 C12 1_555 1_555
C13 C11 1_555 1_555
H7 C13 1_555 1_555
H8 C13 1_555 1_555
C14 N2 1_555 1_555
H9 C14B 1_555 1_555
H10 C14B 1_555 1_555
C15 C14 1_555 1_555
H11 C15 1_555 1_555
H12 C15 1_555 1_555
C16 N1 1_555 1_555
H13 C16 1_555 1_555
H14 C16 1_555 1_555
C17 H15 1_555 1_555
H16 C17 1_555 1_555
H17 N1 1_555 1_555
Cd1C N1 1_555 1_555
Cd1C_2 N1B 1_555 1_555
F1B C6B 1_555 1_555
O1B C1B 1_555 1_555
O4B Cd1 1_555 1_555
O6B Cd1 1_555 1_555
N1C Cd1 1_555 1_555
N1A Cd1 1_555 1_555
N1B C15B 1_555 1_555
N2B C17 1_555 1_555
N3B C9B 1_555 1_555
C1B O4B 1_555 1_555
C2B C1B 1_555 1_555
C3B O6B 1_555 1_555
C4B C3B 1_555 1_555
C5B C4B 1_555 1_555
H1B C5 1_555 1_555
C6B C5B 1_555 1_555
C7B N2B 1_555 1_555
C8B C7B 1_555 1_555
H2B C8B 1_555 1_555
C9B C4B 1_555 1_555
C10B N3B 1_555 1_555
H3B C10B 1_555 1_555
C11B N3B 1_555 1_555
H4B C11B 1_555 1_555
C12B C11B 1_555 1_555
H5B C12B 1_555 1_555
H6B C12B 1_555 1_555
C13B C11B 1_555 1_555
H7B C13B 1_555 1_555
H8B C13B 1_555 1_555
C14B N2B 1_555 1_555
H9B C14 1_555 1_555
H10B C14 1_555 1_555
C15B C14B 1_555 1_555
H11B C15B 1_555 1_555
H12B C15B 1_555 1_555
C16B C17 1_555 1_555
H13B C16B 1_555 1_555
H14B C16B 1_555 1_555
C17B N2 1_555 1_555
H15B C17B 1_555 1_555
H16B C17B 1_555 1_555
H17C N1C 1_555 1_555
H17A N1A 1_555 1_555
H17B N1B 1_555 1_555
C2 C10 1_555 1_555
C8 C9 1_555 1_555
C12 C13 1_555 1_555
C16 C17B 1_555 1_555
N1B C16B 1_555 1_555
C2B C3B 1_555 1_555
C2B C10B 1_555 1_555
C6B C7B 1_555 1_555
C8B C9B 1_555 1_555
C12B C13B 1_555 1_555

#END
