
#######################################################################
#
#                 Cambridge Crystallographic Data Centre
#                                CCDC 
#
#######################################################################
#
# If this CIF has been generated from an entry in the Cambridge 
# Structural Database, then it will include bibliographic, chemical, 
# crystal, experimental, refinement or atomic coordinate data resulting 
# from the CCDC's data processing and validation procedures.
#
#######################################################################

data_LAWTEJ
_symmetry_cell_setting           monoclinic
_symmetry_space_group_name_H-M   'P 21/c'
_symmetry_Int_Tables_number      14
_space_group_name_Hall           '-P 2ybc'
loop_
_symmetry_equiv_pos_site_id
_symmetry_equiv_pos_as_xyz
1 x,y,z
2 -x,1/2+y,1/2-z
3 -x,-y,-z
4 x,1/2-y,1/2+z
_cell_length_a                   5.9352(12)
_cell_length_b                   21.626(4)
_cell_length_c                   13.339(3)
_cell_angle_alpha                90
_cell_angle_beta                 101.45(3)
_cell_angle_gamma                90
_cell_volume                     1678.05
loop_
_atom_site_label
_atom_site_type_symbol
_atom_site_fract_x
_atom_site_fract_y
_atom_site_fract_z
Zn1 Zn 0.0000 0.0000 0.0000
F1 F 0.6986(3) 0.24428(8) 0.17678(13)
O1 O -0.3408(5) -0.00514(11) 0.24863(18)
O4 O -0.2186(3) -0.00967(8) 0.10288(14)
O6 O 0.1708(3) 0.06815(8) 0.09715(13)
N1 N 0.7487(4) 0.43247(10) 0.41200(16)
N2 N 0.5708(4) 0.31224(10) 0.33469(15)
N3 N -0.0046(4) 0.15286(10) 0.34657(15)
C1 C -0.2177(5) 0.01391(11) 0.18987(19)
C2 C -0.0663(4) 0.06914(12) 0.22410(17)
C3 C 0.1121(4) 0.09126(11) 0.17527(17)
C4 C 0.2304(4) 0.14676(11) 0.21960(17)
C5 C 0.4087(5) 0.17193(12) 0.17810(18)
H1 H 0.4549 0.1519 0.1239
C6 C 0.5152(4) 0.22485(12) 0.21535(18)
C7 C 0.4495(5) 0.25940(11) 0.29557(18)
C8 C 0.2744(5) 0.23404(12) 0.33751(18)
H2 H 0.2259 0.2549 0.3904
C9 C 0.1680(4) 0.17798(12) 0.30270(18)
C10 C -0.1137(4) 0.10131(12) 0.30633(19)
H3 H -0.2307 0.0862 0.3367
C11 C -0.0774(5) 0.18563(14) 0.4304(2)
H4 H -0.1467 0.2263 0.4128
C12 C 0.0610(7) 0.18006(19) 0.5362(3)
H5 H 0.0768 0.2165 0.5794
H6 H 0.1941 0.1531 0.5468
C13 C -0.1717(7) 0.15088(19) 0.5080(3)
H7 H -0.1793 0.1062 0.5020
H8 H -0.2965 0.1696 0.5345
C14 C 0.6045(6) 0.36225(13) 0.2639(2)
H9 H 0.4620 0.3849 0.2426
H10 H 0.6472 0.3446 0.2034
C15 C 0.7926(5) 0.40624(13) 0.3160(2)
H11 H 0.9378 0.3842 0.3302
H12 H 0.8070 0.4398 0.2693
C16 C 0.7029(6) 0.38179(15) 0.4777(2)
H13 H 0.6605 0.3992 0.5384
H14 H 0.8436 0.3584 0.4996
C17 C 0.5149(6) 0.33776(15) 0.4278(2)
H15 H 0.4995 0.3045 0.4748
H16 H 0.3695 0.3596 0.4115
H17 H 0.633(5) 0.4537(15) 0.396(2)
Zn1C Zn 1.0000 0.5000 0.5000
Zn1C_2 Zn -1.0000 -0.5000 -0.5000
F1B F -0.6986(3) -0.24428(8) -0.17678(13)
O1B O 0.3408(5) 0.00514(11) -0.24863(18)
O4B O 0.2186(3) 0.00967(8) -0.10288(14)
O6B O -0.1708(3) -0.06815(8) -0.09715(13)
N1A N 0.2513(4) -0.06753(10) 0.08800(16)
N1C N -0.2513(4) 0.06753(10) -0.08800(16)
N1B N -0.7487(4) -0.43247(10) -0.41200(16)
N2B N -0.5708(4) -0.31224(10) -0.33469(15)
N3B N 0.0046(4) -0.15286(10) -0.34657(15)
C1B C 0.2177(5) -0.01391(11) -0.18987(19)
C2B C 0.0663(4) -0.06914(12) -0.22410(17)
C3B C -0.1121(4) -0.09126(11) -0.17527(17)
C4B C -0.2304(4) -0.14676(11) -0.21960(17)
C5B C -0.4087(5) -0.17193(12) -0.17810(18)
H1B H -0.4549 -0.1519 -0.1239
C6B C -0.5152(4) -0.22485(12) -0.21535(18)
C7B C -0.4495(5) -0.25940(11) -0.29557(18)
C8B C -0.2744(5) -0.23404(12) -0.33751(18)
H2B H -0.2259 -0.2549 -0.3904
C9B C -0.1680(4) -0.17798(12) -0.30270(18)
C10B C 0.1137(4) -0.10131(12) -0.30633(19)
H3B H 0.2307 -0.0862 -0.3367
C11B C 0.0774(5) -0.18563(14) -0.4304(2)
H4B H 0.1467 -0.2263 -0.4128
C12B C -0.0610(7) -0.18006(19) -0.5362(3)
H5B H -0.0768 -0.2165 -0.5794
H6B H -0.1941 -0.1531 -0.5468
C13B C 0.1717(7) -0.15088(19) -0.5080(3)
H7B H 0.1793 -0.1062 -0.5020
H8B H 0.2965 -0.1696 -0.5345
C14B C -0.6045(6) -0.36225(13) -0.2639(2)
H9B H -0.4620 -0.3849 -0.2426
H10B H -0.6472 -0.3446 -0.2034
C15B C -0.7926(5) -0.40624(13) -0.3160(2)
H11B H -0.9378 -0.3842 -0.3302
H12B H -0.8070 -0.4398 -0.2693
C16B C -0.7029(6) -0.38179(15) -0.4777(2)
H13B H -0.6605 -0.3992 -0.5384
H14B H -0.8436 -0.3584 -0.4996
C17B C -0.5149(6) -0.33776(15) -0.4278(2)
H15B H -0.4995 -0.3045 -0.4748
H16B H -0.3695 -0.3596 -0.4115
H17A H 0.367(5) -0.0463(15) 0.104(2)
H17C H -0.367(5) 0.0463(15) -0.104(2)
H17B H -0.633(5) -0.4537(15) -0.396(2)
O3 O -0.129(3) -0.0173(5) 0.4648(8)
O5 O -0.416(3) -0.0254(13) 0.5875(14)
O2? O -0.336(3) -0.0195(6) 0.4560(9)
loop_
_geom_bond_atom_site_label_1
_geom_bond_atom_site_label_2
_geom_bond_site_symmetry_1
_geom_bond_site_symmetry_2
Zn1 O4 1_555 1_555
F1 C6 1_555 1_555
O1 C1 1_555 1_555
O4 C1 1_555 1_555
O6 Zn1 1_555 1_555
N1 C15 1_555 1_555
N2 C7 1_555 1_555
N3 C9 1_555 1_555
C1 C2 1_555 1_555
C2 C3 1_555 1_555
C3 O6 1_555 1_555
C4 C3 1_555 1_555
C5 C4 1_555 1_555
H1 C5 1_555 1_555
C6 C5 1_555 1_555
C7 C6 1_555 1_555
C8 C7 1_555 1_555
H2 C8 1_555 1_555
C9 C4 1_555 1_555
C10 N3 1_555 1_555
H3 C10 1_555 1_555
C11 N3 1_555 1_555
H4 C11 1_555 1_555
C12 C11 1_555 1_555
H5 C12 1_555 1_555
H6 C12 1_555 1_555
C13 C11 1_555 1_555
H7 C13 1_555 1_555
H8 C13 1_555 1_555
C14 N2 1_555 1_555
H9 C14 1_555 1_555
H10 C14 1_555 1_555
C15 C14 1_555 1_555
H11 C15 1_555 1_555
H12 C15 1_555 1_555
C16 N1 1_555 1_555
H13 C16 1_555 1_555
H14 C16 1_555 1_555
C17 N2 1_555 1_555
H15 C17 1_555 1_555
H16 C17 1_555 1_555
H17 N1 1_555 1_555
Zn1C N1 1_555 1_555
Zn1C_2 N1B 1_555 1_555
F1B C6B 1_555 1_555
O1B C1B 1_555 1_555
O4B Zn1 1_555 1_555
O6B Zn1 1_555 1_555
N1A Zn1 1_555 1_555
N1C Zn1 1_555 1_555
N1B C15B 1_555 1_555
N2B C7B 1_555 1_555
N3B C9B 1_555 1_555
C1B O4B 1_555 1_555
C2B C1B 1_555 1_555
C3B O6B 1_555 1_555
C4B C3B 1_555 1_555
C5B C4B 1_555 1_555
H1B C5B 1_555 1_555
C6B C5B 1_555 1_555
C7B C6B 1_555 1_555
C8B C7B 1_555 1_555
H2B C8B 1_555 1_555
C9B C4B 1_555 1_555
C10B N3B 1_555 1_555
H3B C10B 1_555 1_555
C11B N3B 1_555 1_555
H4B C11B 1_555 1_555
C12B C11B 1_555 1_555
H5B C12B 1_555 1_555
H6B C12B 1_555 1_555
C13B C11B 1_555 1_555
H7B C13B 1_555 1_555
H8B C13B 1_555 1_555
C14B N2B 1_555 1_555
H9B C14B 1_555 1_555
H10B C14B 1_555 1_555
C15B C14B 1_555 1_555
H11B C15B 1_555 1_555
H12B C15B 1_555 1_555
C16B N1B 1_555 1_555
H13B C16B 1_555 1_555
H14B C16B 1_555 1_555
C17B N2B 1_555 1_555
H15B C17B 1_555 1_555
H16B C17B 1_555 1_555
H17A N1A 1_555 1_555
H17C N1C 1_555 1_555
H17B N1B 1_555 1_555
C2 C10 1_555 1_555
C8 C9 1_555 1_555
C12 C13 1_555 1_555
C16 C17 1_555 1_555
C2B C3B 1_555 1_555
C2B C10B 1_555 1_555
C8B C9B 1_555 1_555
C12B C13B 1_555 1_555
C16B C17B 1_555 1_555

#END
