
#######################################################################
#
#                 Cambridge Crystallographic Data Centre
#                                CCDC 
#
#######################################################################
#
# If this CIF has been generated from an entry in the Cambridge 
# Structural Database, then it will include bibliographic, chemical, 
# crystal, experimental, refinement or atomic coordinate data resulting 
# from the CCDC's data processing and validation procedures.
#
#######################################################################

data_LAWTOT
_symmetry_cell_setting           monoclinic
_symmetry_space_group_name_H-M   'P 21/c'
_symmetry_Int_Tables_number      14
_space_group_name_Hall           '-P 2ybc'
loop_
_symmetry_equiv_pos_site_id
_symmetry_equiv_pos_as_xyz
1 x,y,z
2 -x,1/2+y,1/2-z
3 -x,-y,-z
4 x,1/2-y,1/2+z
_cell_length_a                   6.0115(12)
_cell_length_b                   21.616(4)
_cell_length_c                   13.281(3)
_cell_angle_alpha                90
_cell_angle_beta                 101.20(3)
_cell_angle_gamma                90
_cell_volume                     1692.93
loop_
_atom_site_label
_atom_site_type_symbol
_atom_site_fract_x
_atom_site_fract_y
_atom_site_fract_z
Mg1 Mg 0.5000 0.0000 0.0000
F1 F -0.1917(2) 0.24207(6) -0.17599(11)
O1 O 0.8446(3) -0.00450(8) -0.24598(14)
O4 O 0.7096(2) -0.00951(6) -0.10270(11)
O6 O 0.3411(2) 0.06792(6) -0.09506(11)
N1 N -0.2455(3) 0.43168(8) -0.40874(14)
H1 H -0.132(4) 0.4543(12) -0.394(2)
N2 N -0.0628(3) 0.31167(8) -0.33241(13)
N3 N 0.5106(3) 0.15414(8) -0.34497(13)
C1 C 0.7187(4) 0.01419(9) -0.18833(16)
C2 C 0.5716(3) 0.06981(9) -0.22342(15)
C3 C 0.3956(3) 0.09149(8) -0.17344(15)
C4 C 0.2775(3) 0.14680(9) -0.21805(15)
C5 C 0.0980(3) 0.17077(9) -0.17692(15)
H2 H 0.9495 -0.1501 0.1234
C6 C -0.0072(4) 0.22383(9) -0.21424(16)
C7 C 0.0577(4) 0.25914(9) -0.29340(15)
C8 C 0.2326(4) 0.23461(9) -0.33557(16)
H3 H 0.2807 0.2559 -0.3883
C9 C 0.3395(3) 0.17837(9) -0.30068(15)
C10 C 0.6187(4) 0.10252(9) -0.30567(16)
H4 H 0.7344 0.0878 -0.3365
C11 C 0.5839(4) 0.18731(11) -0.42863(17)
H5 H 0.6526 0.2279 -0.4101
C12 C 0.4493(6) 0.18277(15) -0.5350(2)
H6 H 0.3176 0.1559 -0.5466
H7 H 0.4348 0.2197 -0.5773
C13 C 0.6780(6) 0.15330(15) -0.5075(2)
H8 H 0.8018 0.1723 -0.5334
H9 H 0.6847 0.1085 -0.5027
C14 C -0.1026(5) 0.36071(10) -0.26100(17)
H10 H 1.1463 -0.3423 0.2011
H11 H 0.9640 -0.3840 0.2383
C15 C -0.2896(4) 0.40411(10) -0.31372(17)
H12 H -0.3083 0.4370 -0.2664
H13 H -0.4311 0.3813 -0.3292
C16 C -0.1924(5) 0.38193(11) -0.47480(18)
H14 H -0.3287 0.3579 -0.4983
H15 H -0.1487 0.4002 -0.5348
C17 C 1.0049(5) -0.33844(12) 0.42444(19)
H16 H 0.8632 -0.3610 0.4066
H17 H 0.9853 -0.3058 0.4720
Mg1C Mg -0.5000 0.5000 -0.5000
Mg1C_2 Mg 1.5000 -0.5000 0.5000
F1B F 1.1917(2) -0.24207(6) 0.17599(11)
O1B O 0.1554(3) 0.00450(8) 0.24598(14)
O4B O 0.2904(2) 0.00951(6) 0.10270(11)
O6B O 0.6589(2) -0.06792(6) 0.09506(11)
N1C N 0.7545(3) 0.06832(8) 0.09126(14)
N1A N 0.2455(3) -0.06832(8) -0.09126(14)
N1B N 1.2455(3) -0.43168(8) 0.40874(14)
H1C H 0.868(4) 0.0457(12) 0.106(2)
H1A H 0.132(4) -0.0457(12) -0.106(2)
H1B H 1.132(4) -0.4543(12) 0.394(2)
N2B N 1.0628(3) -0.31167(8) 0.33241(13)
N3B N 0.4894(3) -0.15414(8) 0.34497(13)
C1B C 0.2813(4) -0.01419(9) 0.18833(16)
C2B C 0.4284(3) -0.06981(9) 0.22342(15)
C3B C 0.6044(3) -0.09149(8) 0.17344(15)
C4B C 0.7225(3) -0.14680(9) 0.21805(15)
C5B C 0.9020(3) -0.17077(9) 0.17692(15)
H2B H 0.0505 0.1501 -0.1234
C6B C 1.0072(4) -0.22383(9) 0.21424(16)
C7B C 0.9423(4) -0.25914(9) 0.29340(15)
C8B C 0.7674(4) -0.23461(9) 0.33557(16)
H3B H 0.7193 -0.2559 0.3883
C9B C 0.6605(3) -0.17837(9) 0.30068(15)
C10B C 0.3813(4) -0.10252(9) 0.30567(16)
H4B H 0.2656 -0.0878 0.3365
C11B C 0.4161(4) -0.18731(11) 0.42863(17)
H5B H 0.3474 -0.2279 0.4101
C12B C 0.5507(6) -0.18277(15) 0.5350(2)
H6B H 0.6824 -0.1559 0.5466
H7B H 0.5652 -0.2197 0.5773
C13B C 0.3220(6) -0.15330(15) 0.5075(2)
H8B H 0.1982 -0.1723 0.5334
H9B H 0.3153 -0.1085 0.5027
C14B C 1.1026(5) -0.36071(10) 0.26100(17)
H10B H -0.1463 0.3423 -0.2011
H11B H 0.0360 0.3840 -0.2383
C15B C 1.2896(4) -0.40411(10) 0.31372(17)
H12B H 1.3083 -0.4370 0.2664
H13B H 1.4311 -0.3813 0.3292
C16B C 1.1924(5) -0.38193(11) 0.47480(18)
H14B H 1.3287 -0.3579 0.4983
H15B H 1.1487 -0.4002 0.5348
C17B C -0.0049(5) 0.33844(12) -0.42444(19)
H16B H 0.1368 0.3610 -0.4066
H17B H 0.0147 0.3058 -0.4720
O3 O -0.1539(19) 0.5201(5) -0.9531(6)
O5 O 0.0908(18) 0.4696(7) -0.9068(7)
O2? O -0.3914(19) 0.5189(4) -0.9653(6)
loop_
_geom_bond_atom_site_label_1
_geom_bond_atom_site_label_2
_geom_bond_site_symmetry_1
_geom_bond_site_symmetry_2
Mg1 O4 1_555 1_555
F1 C6 1_555 1_555
O1 C1 1_555 1_555
O4 C1 1_555 1_555
O6 Mg1 1_555 1_555
N1 H1 1_555 1_555
N2 C7 1_555 1_555
N3 C9 1_555 1_555
C1 C2 1_555 1_555
C2 C3 1_555 1_555
C3 O6 1_555 1_555
C4 C3 1_555 1_555
C5 C4 1_555 1_555
H2 C5B 1_555 1_555
C6 C5 1_555 1_555
C7 C6 1_555 1_555
C8 C7 1_555 1_555
H3 C8 1_555 1_555
C9 C4 1_555 1_555
C10 N3 1_555 1_555
H4 C10 1_555 1_555
C11 N3 1_555 1_555
H5 C11 1_555 1_555
C12 C11 1_555 1_555
H6 C12 1_555 1_555
H7 C12 1_555 1_555
C13 C11 1_555 1_555
H8 C13 1_555 1_555
H9 C13 1_555 1_555
C14 N2 1_555 1_555
H10 C14B 1_555 1_555
H11 C14B 1_555 1_555
C15 N1 1_555 1_555
H12 C15 1_555 1_555
H13 C15 1_555 1_555
C16 N1 1_555 1_555
H14 C16 1_555 1_555
H15 C16 1_555 1_555
C17 H16 1_555 1_555
H17 C17 1_555 1_555
Mg1C N1 1_555 1_555
Mg1C_2 N1B 1_555 1_555
F1B C6B 1_555 1_555
O1B C1B 1_555 1_555
O4B Mg1 1_555 1_555
O6B Mg1 1_555 1_555
N1C Mg1 1_555 1_555
N1A Mg1 1_555 1_555
N1B H1B 1_555 1_555
H1C N1C 1_555 1_555
H1A N1A 1_555 1_555
N2B C17 1_555 1_555
N3B C9B 1_555 1_555
C1B O4B 1_555 1_555
C2B C1B 1_555 1_555
C3B O6B 1_555 1_555
C4B C3B 1_555 1_555
C5B C4B 1_555 1_555
H2B C5 1_555 1_555
C6B C5B 1_555 1_555
C7B N2B 1_555 1_555
C8B C7B 1_555 1_555
H3B C8B 1_555 1_555
C9B C4B 1_555 1_555
C10B N3B 1_555 1_555
H4B C10B 1_555 1_555
C11B N3B 1_555 1_555
H5B C11B 1_555 1_555
C12B C11B 1_555 1_555
H6B C12B 1_555 1_555
H7B C12B 1_555 1_555
C13B C11B 1_555 1_555
H8B C13B 1_555 1_555
H9B C13B 1_555 1_555
C14B N2B 1_555 1_555
H10B C14 1_555 1_555
H11B C14 1_555 1_555
C15B N1B 1_555 1_555
H12B C15B 1_555 1_555
H13B C15B 1_555 1_555
C16B C17 1_555 1_555
H14B C16B 1_555 1_555
H15B C16B 1_555 1_555
C17B N2 1_555 1_555
H16B C17B 1_555 1_555
H17B C17B 1_555 1_555
C2 C10 1_555 1_555
C8 C9 1_555 1_555
C12 C13 1_555 1_555
C14 C15 1_555 1_555
C16 C17B 1_555 1_555
N1B C16B 1_555 1_555
C2B C3B 1_555 1_555
C2B C10B 1_555 1_555
C6B C7B 1_555 1_555
C8B C9B 1_555 1_555
C12B C13B 1_555 1_555
C14B C15B 1_555 1_555

#END
