
#######################################################################
#
#                 Cambridge Crystallographic Data Centre
#                                CCDC 
#
#######################################################################
#
# If this CIF has been generated from an entry in the Cambridge 
# Structural Database, then it will include bibliographic, chemical, 
# crystal, experimental, refinement or atomic coordinate data resulting 
# from the CCDC's data processing and validation procedures.
#
#######################################################################

data_LAXGOH01
_symmetry_cell_setting           monoclinic
_symmetry_space_group_name_H-M   'P 21/n'
_symmetry_Int_Tables_number      14
_space_group_name_Hall           '-P 2yn'
loop_
_symmetry_equiv_pos_site_id
_symmetry_equiv_pos_as_xyz
1 x,y,z
2 1/2-x,1/2+y,1/2-z
3 -x,-y,-z
4 1/2+x,1/2-y,1/2+z
_cell_length_a                   8.4856(12)
_cell_length_b                   13.1281(17)
_cell_length_c                   9.5225(13)
_cell_angle_alpha                90
_cell_angle_beta                 94.620(3)
_cell_angle_gamma                90
_cell_volume                     1057.36
loop_
_atom_site_label
_atom_site_type_symbol
_atom_site_fract_x
_atom_site_fract_y
_atom_site_fract_z
Gd1 Gd 0.03919(2) 0.231220(14) -0.008107(19)
C1 C -0.4750(5) 0.4507(3) -0.1251(4)
C2 C -0.3818(5) 0.4253(3) -0.0032(4)
C3 C -0.5910(5) 0.5260(3) -0.1243(4)
C4 C -0.4610(5) 0.3894(3) -0.2568(4)
C5 C -0.2463(5) 0.3523(3) -0.0099(4)
C6 C -0.7006(5) 0.5524(3) -0.2573(4)
O1 O -0.1584(4) 0.3611(3) -0.1114(4)
O2 O -0.2178(4) 0.2879(3) 0.0833(4)
O3 O -0.4517(5) 0.4323(3) -0.3737(3)
O4 O -0.8339(4) 0.5110(3) -0.2677(4)
O5 O -0.6504(4) 0.6140(2) -0.3421(3)
O6 O -0.1703(4) 0.1241(3) -0.1148(4)
O7 O 0.1495(5) 0.3150(3) -0.1968(4)
O8 O 0.3087(5) 0.2247(3) 0.0978(5)
O9 O 0.1115(6) 0.3976(3) 0.1004(4)
O10 O -0.4629(4) 0.2935(3) -0.2484(3)
Gd1B Gd -1.03919(2) 0.768780(14) 0.008107(19)
Gd1C Gd -0.46081(2) 0.268780(14) -0.508107(19)
Gd1A Gd -0.53919(2) 0.731220(14) -0.491893(19)
Gd1A_2 Gd -0.53919(2) 0.731220(14) 0.508107(19)
Gd1C_2 Gd -0.46081(2) 0.268780(14) 0.491893(19)
C1B C -0.5250(5) 0.5493(3) 0.1251(4)
C2B C -0.6182(5) 0.5747(3) 0.0032(4)
C3B C -0.4090(5) 0.4740(3) 0.1243(4)
C4B C -0.5390(5) 0.6106(3) 0.2568(4)
C5B C -0.7537(5) 0.6477(3) 0.0099(4)
C6B C -0.2994(5) 0.4476(3) 0.2573(4)
O1B O -0.8416(4) 0.6389(3) 0.1114(4)
O2B O -0.7822(4) 0.7121(3) -0.0833(4)
O3B O -0.5483(5) 0.5677(3) 0.3737(3)
O3C O 0.0483(5) 0.0677(3) 0.1263(3)
O3A O -1.0483(5) 0.9323(3) -0.1263(3)
O4B O -0.1661(4) 0.4890(3) 0.2677(4)
O5B O -0.3496(4) 0.3860(2) 0.3421(3)
O5A O 0.1504(4) 0.1140(2) -0.1579(3)
O5C O -1.1504(4) 0.8860(2) 0.1579(3)
O6B O -0.8297(4) 0.8759(3) 0.1148(4)
O7B O -1.1495(5) 0.6850(3) 0.1968(4)
O8B O -1.3087(5) 0.7753(3) -0.0978(5)
O9B O -1.1115(6) 0.6024(3) -0.1004(4)
O10B O -0.5371(4) 0.7065(3) 0.2484(3)
O10C O 0.0371(4) 0.2065(3) 0.2516(3)
O10A O -1.0371(4) 0.7935(3) -0.2516(3)
O11 O 0.0197(5) 0.3631(4) 0.4409(4)
loop_
_geom_bond_atom_site_label_1
_geom_bond_atom_site_label_2
_geom_bond_site_symmetry_1
_geom_bond_site_symmetry_2
Gd1 O1 1_555 1_555
C1 C2 1_555 1_555
C2 C5 1_555 1_555
C3 C1 1_555 1_555
C4 C1 1_555 1_555
C5 O1 1_555 1_555
C6 C3 1_555 1_555
O2 Gd1 1_555 1_555
O3 C4 1_555 1_555
O4 C6 1_555 1_555
O5 C6 1_555 1_555
O6 Gd1 1_555 1_555
O7 Gd1 1_555 1_555
O8 Gd1 1_555 1_555
O9 Gd1 1_555 1_555
O10 C4 1_555 1_555
Gd1B O1B 1_555 1_555
Gd1C O3 1_555 1_555
Gd1A O5 1_555 1_555
Gd1A_2 O3B 1_555 1_555
Gd1C_2 O5B 1_555 1_555
C1B C2B 1_555 1_555
C2B C3 1_555 1_555
C3B C2 1_555 1_555
C4B C1B 1_555 1_555
C5B C2B 1_555 1_555
C6B C3B 1_555 1_555
O1B C5B 1_555 1_555
O2B Gd1B 1_555 1_555
O3B C4B 1_555 1_555
O3C Gd1 1_555 1_555
O3A Gd1B 1_555 1_555
O4B C6B 1_555 1_555
O5B C6B 1_555 1_555
O5A Gd1 1_555 1_555
O5C Gd1B 1_555 1_555
O6B Gd1B 1_555 1_555
O7B Gd1B 1_555 1_555
O8B Gd1B 1_555 1_555
O9B Gd1B 1_555 1_555
O10B Gd1A_2 1_555 1_555
O10C Gd1 1_555 1_555
O10A Gd1B 1_555 1_555
C5 O2 1_555 1_555
O10 Gd1C 1_555 1_555
C1B C3B 1_555 1_555
C4B O10B 1_555 1_555
C5B O2B 1_555 1_555

#END
