
#######################################################################
#
#                 Cambridge Crystallographic Data Centre
#                                CCDC 
#
#######################################################################
#
# If this CIF has been generated from an entry in the Cambridge 
# Structural Database, then it will include bibliographic, chemical, 
# crystal, experimental, refinement or atomic coordinate data resulting 
# from the CCDC's data processing and validation procedures.
#
#######################################################################

data_LAXNAA
_symmetry_cell_setting           triclinic
_symmetry_space_group_name_H-M   'P -1'
_symmetry_Int_Tables_number      2
_space_group_name_Hall           '-P 1'
loop_
_symmetry_equiv_pos_site_id
_symmetry_equiv_pos_as_xyz
1 x,y,z
2 -x,-y,-z
_cell_length_a                   10.7627(3)
_cell_length_b                   11.4014(2)
_cell_length_c                   14.1535(3)
_cell_angle_alpha                67.0620(10)
_cell_angle_beta                 75.6750(10)
_cell_angle_gamma                62.1140(10)
_cell_volume                     1409.18
loop_
_atom_site_label
_atom_site_type_symbol
_atom_site_fract_x
_atom_site_fract_y
_atom_site_fract_z
Mn1 Mn 0.27058(5) -0.18787(5) 1.45287(3)
N1 N 0.5003(3) -0.2433(3) 1.4576(2)
N2 N 0.2935(3) 0.0164(3) 1.3916(2)
O1 O 0.3181(2) -0.2907(3) 1.34370(18)
O2 O 0.1121(3) -0.2377(5) 1.2947(3)
O3 O 0.2703(3) -0.3715(3) 1.58969(18)
O4 O 0.1705(2) -0.1653(2) 1.61095(17)
O5 O 0.0541(3) -0.0900(3) 1.4139(3)
H1 H -0.015(4) -0.011(3) 1.406(4)
H2 H 0.041(6) -0.104(6) 1.364(3)
C1 C 0.2430(4) -0.2906(4) 1.2877(3)
C2 C 0.3200(4) -0.3606(4) 1.2066(3)
C3 C 0.2465(4) -0.3562(6) 1.1367(4)
H5 H 0.1484 -0.3165 1.1437
C4 C 0.3157(5) -0.4093(6) 1.0572(4)
H6 H 0.2632 -0.4022 1.0104
C5 C 0.4618(4) -0.4734(4) 1.0446(3)
C6 C 0.5346(4) -0.4850(4) 1.1186(3)
H7 H 0.6325 -0.5312 1.1150
C7 C 0.4643(4) -0.4291(4) 1.1975(3)
H8 H 0.5161 -0.4382 1.2456
C8 C 0.1982(3) -0.2950(3) 1.6449(2)
C9 C 0.1427(3) -0.3562(3) 1.7507(2)
C10 C 0.1531(4) -0.4917(4) 1.7825(3)
H9 H 0.1972 -0.5452 1.7385
C11 C 0.0975(5) -0.5477(4) 1.8801(3)
H10 H 0.1058 -0.6390 1.9008
C12 C 0.0296(4) -0.4695(4) 1.9474(2)
C13 C 0.0225(4) -0.3350(4) 1.9144(3)
H11 H -0.0199 -0.2816 1.9585
C14 C 0.0770(4) -0.2785(4) 1.8172(3)
H12 H 0.0694 -0.1874 1.7966
C15 C 0.6012(4) -0.3717(4) 1.4892(3)
H13 H 0.5760 -0.4469 1.5191
C16 C 0.7438(4) -0.3982(5) 1.4792(4)
H14 H 0.8121 -0.4894 1.5017
C17 C 0.7810(4) -0.2881(5) 1.4358(4)
H15 H 0.8754 -0.3042 1.4282
C18 C 0.6780(4) -0.1513(4) 1.4029(3)
C19 C 0.7067(5) -0.0286(5) 1.3583(4)
H16 H 0.7993 -0.0392 1.3510
C20 C 0.6050(5) 0.0992(5) 1.3274(4)
H17 H 0.6279 0.1759 1.2984
C21 C 0.4607(4) 0.1213(4) 1.3380(3)
C22 C 0.3494(5) 0.2536(4) 1.3057(4)
H18 H 0.3672 0.3333 1.2762
C23 C 0.2164(5) 0.2650(4) 1.3175(4)
H19 H 0.1418 0.3525 1.2970
C24 C 0.1914(4) 0.1440(4) 1.3610(3)
H20 H 0.0992 0.1535 1.3688
C25 C 0.5375(3) -0.1337(4) 1.4148(2)
C26 C 0.4275(4) 0.0036(4) 1.3812(2)
Mn1A Mn 0.72942(5) -0.81213(5) 0.54713(3)
Mn1A_2 Mn -0.27058(5) -0.81213(5) 2.54713(3)
N1A N 0.4997(3) -0.7567(3) 0.5424(2)
N2A N 0.7065(3) -1.0164(3) 0.6084(2)
O1A O 0.6819(2) -0.7093(3) 0.65630(18)
O2A O 0.8879(3) -0.7623(5) 0.7053(3)
O3A O -0.2703(3) -0.6285(3) 2.41031(18)
O3A_2 O 0.7297(3) -0.6285(3) 0.41031(18)
O4A O -0.1705(2) -0.8347(2) 2.38905(17)
O4A_2 O 0.8295(2) -0.8347(2) 0.38905(17)
O5A O 0.9459(3) -0.9100(3) 0.5861(3)
H1A H 1.015(4) -0.989(3) 0.594(4)
H2A H 0.959(6) -0.896(6) 0.636(3)
C1A C 0.7570(4) -0.7094(4) 0.7123(3)
C2A C 0.6800(4) -0.6394(4) 0.7934(3)
C3A C 0.7535(4) -0.6438(6) 0.8633(4)
H5A H 0.8516 -0.6835 0.8563
C4A C 0.6843(5) -0.5907(6) 0.9428(4)
H6A H 0.7368 -0.5978 0.9896
C5A C 0.5382(4) -0.5266(4) 0.9554(3)
C6A C 0.4654(4) -0.5150(4) 0.8814(3)
H7A H 0.3675 -0.4688 0.8850
C7A C 0.5357(4) -0.5709(4) 0.8025(3)
H8A H 0.4839 -0.5618 0.7544
C8A C -0.1982(3) -0.7050(3) 2.3551(2)
C9A C -0.1427(3) -0.6438(3) 2.2493(2)
C10A C -0.1531(4) -0.5083(4) 2.2175(3)
H9A H -0.1972 -0.4548 2.2615
C11A C -0.0975(5) -0.4523(4) 2.1199(3)
H10A H -0.1058 -0.3610 2.0992
C12A C -0.0296(4) -0.5305(4) 2.0526(2)
C13A C -0.0225(4) -0.6650(4) 2.0856(3)
H11A H 0.0199 -0.7184 2.0415
C14A C -0.0770(4) -0.7215(4) 2.1828(3)
H12A H -0.0694 -0.8126 2.2034
C15A C 0.3988(4) -0.6283(4) 0.5108(3)
H13A H 0.4240 -0.5531 0.4809
C16A C 0.2562(4) -0.6018(5) 0.5208(4)
H14A H 0.1879 -0.5106 0.4983
C17A C 0.2190(4) -0.7119(5) 0.5642(4)
H15A H 0.1246 -0.6958 0.5718
C18A C 0.3220(4) -0.8487(4) 0.5971(3)
C19A C 0.2933(5) -0.9714(5) 0.6417(4)
H16A H 0.2007 -0.9608 0.6490
C20A C 0.3950(5) -1.0992(5) 0.6726(4)
H17A H 0.3721 -1.1759 0.7016
C21A C 0.5393(4) -1.1213(4) 0.6620(3)
C22A C 0.6506(5) -1.2536(4) 0.6943(4)
H18A H 0.6328 -1.3333 0.7238
C23A C 0.7836(5) -1.2650(4) 0.6825(4)
H19A H 0.8582 -1.3525 0.7030
C24A C 0.8086(4) -1.1440(4) 0.6390(3)
H20A H 0.9008 -1.1535 0.6312
C25A C 0.4625(3) -0.8663(4) 0.5852(2)
C26A C 0.5725(4) -1.0036(4) 0.6188(2)
N3 N 0.6438(11) 0.0005(14) 1.1094(7)
C27 C 0.6177(17) -0.1042(11) 1.1561(7)
H21 H 0.6906 -0.1908 1.1829
C28 C 0.490(3) -0.0940(19) 1.1678(10)
H22 H 0.4701 -0.1724 1.2023
C29 C 0.383(2) 0.036(3) 1.1277(13)
H23 H 0.2900 0.0476 1.1341
C30 C 0.417(2) 0.1476(19) 1.0789(11)
H24 H 0.3493 0.2375 1.0509
C31 C 0.5477(18) 0.1216(12) 1.0735(8)
H25 H 0.5736 0.1962 1.0413
O6 O 0.9526(17) -0.013(2) 1.1068(14)
H3 H 0.876(4) 0.056(6) 1.116(7)
H4 H 1.021(5) 0.008(8) 1.094(8)
loop_
_geom_bond_atom_site_label_1
_geom_bond_atom_site_label_2
_geom_bond_site_symmetry_1
_geom_bond_site_symmetry_2
Mn1 N1 1_555 1_555
N1 C15 1_555 1_555
N2 Mn1 1_555 1_555
N3 C27 1_555 1_555
O1 Mn1 1_555 1_555
O2 C1 1_555 1_555
O3 Mn1 1_555 1_555
O4 Mn1 1_555 1_555
O5 Mn1 1_555 1_555
H1 O5 1_555 1_555
H2 O5 1_555 1_555
O6 H3 1_555 1_555
H4 O6 1_555 1_555
C1 O1 1_555 1_555
C2 C1 1_555 1_555
C3 C2 1_555 1_555
H5 C3 1_555 1_555
C4 C3 1_555 1_555
H6 C4 1_555 1_555
C5 C4 1_555 1_555
C6 C5 1_555 1_555
H7 C6 1_555 1_555
C7 C2 1_555 1_555
H8 C7 1_555 1_555
C8 O3 1_555 1_555
C9 C8 1_555 1_555
C10 C9 1_555 1_555
H9 C10 1_555 1_555
C11 C10 1_555 1_555
H10 C11 1_555 1_555
C12 C11 1_555 1_555
C13 C12 1_555 1_555
H11 C13 1_555 1_555
C14 C9 1_555 1_555
H12 C14 1_555 1_555
C15 H13 1_555 1_555
C16 C15 1_555 1_555
H14 C16 1_555 1_555
C17 C16 1_555 1_555
H15 C17 1_555 1_555
C18 C17 1_555 1_555
C19 C18 1_555 1_555
H16 C19 1_555 1_555
C20 C19 1_555 1_555
H17 C20 1_555 1_555
C21 C20 1_555 1_555
C22 C21 1_555 1_555
H18 C22 1_555 1_555
C23 C22 1_555 1_555
H19 C23 1_555 1_555
C24 N2 1_555 1_555
H20 C24 1_555 1_555
C25 N1 1_555 1_555
C26 N2 1_555 1_555
C27 H21 1_555 1_555
C28 C27 1_555 1_555
H22 C28 1_555 1_555
C29 C28 1_555 1_555
H23 C29 1_555 1_555
C30 C29 1_555 1_555
H24 C30 1_555 1_555
C31 N3 1_555 1_555
H25 C31 1_555 1_555
Mn1A N1A 1_555 1_555
Mn1A_2 O3A 1_555 1_555
N1A C15A 1_555 1_555
N2A Mn1A 1_555 1_555
O1A Mn1A 1_555 1_555
O2A C1A 1_555 1_555
O3A C8A 1_555 1_555
O3A_2 Mn1A 1_555 1_555
O4A Mn1A_2 1_555 1_555
O4A_2 Mn1A 1_555 1_555
O5A Mn1A 1_555 1_555
H1A O5A 1_555 1_555
H2A O5A 1_555 1_555
C1A O1A 1_555 1_555
C2A C1A 1_555 1_555
C3A C2A 1_555 1_555
H5A C3A 1_555 1_555
C4A C3A 1_555 1_555
H6A C4A 1_555 1_555
C5A C5 1_555 1_555
C6A C5A 1_555 1_555
H7A C6A 1_555 1_555
C7A C2A 1_555 1_555
H8A C7A 1_555 1_555
C8A O4A 1_555 1_555
C9A C8A 1_555 1_555
C10A C9A 1_555 1_555
H9A C10A 1_555 1_555
C11A C10A 1_555 1_555
H10A C11A 1_555 1_555
C12A C12 1_555 1_555
C13A C12A 1_555 1_555
H11A C13A 1_555 1_555
C14A C9A 1_555 1_555
H12A C14A 1_555 1_555
C15A H13A 1_555 1_555
C16A C15A 1_555 1_555
H14A C16A 1_555 1_555
C17A C16A 1_555 1_555
H15A C17A 1_555 1_555
C18A C17A 1_555 1_555
C19A C18A 1_555 1_555
H16A C19A 1_555 1_555
C20A C19A 1_555 1_555
H17A C20A 1_555 1_555
C21A C20A 1_555 1_555
C22A C21A 1_555 1_555
H18A C22A 1_555 1_555
C23A C22A 1_555 1_555
H19A C23A 1_555 1_555
C24A N2A 1_555 1_555
H20A C24A 1_555 1_555
C25A N1A 1_555 1_555
C26A N2A 1_555 1_555
O4 C8 1_555 1_555
C6 C7 1_555 1_555
C13 C14 1_555 1_555
C18 C25 1_555 1_555
C21 C26 1_555 1_555
C23 C24 1_555 1_555
C25 C26 1_555 1_555
C30 C31 1_555 1_555
C4A C5A 1_555 1_555
C6A C7A 1_555 1_555
C11A C12A 1_555 1_555
C13A C14A 1_555 1_555
C18A C25A 1_555 1_555
C21A C26A 1_555 1_555
C23A C24A 1_555 1_555
C25A C26A 1_555 1_555

#END
