
#######################################################################
#
#                 Cambridge Crystallographic Data Centre
#                                CCDC 
#
#######################################################################
#
# If this CIF has been generated from an entry in the Cambridge 
# Structural Database, then it will include bibliographic, chemical, 
# crystal, experimental, refinement or atomic coordinate data resulting 
# from the CCDC's data processing and validation procedures.
#
#######################################################################

data_LAXNEE
_symmetry_cell_setting           monoclinic
_symmetry_space_group_name_H-M   'P 21/c'
_symmetry_Int_Tables_number      14
_space_group_name_Hall           '-P 2ybc'
loop_
_symmetry_equiv_pos_site_id
_symmetry_equiv_pos_as_xyz
1 x,y,z
2 -x,1/2+y,1/2-z
3 -x,-y,-z
4 x,1/2-y,1/2+z
_cell_length_a                   14.7030(11)
_cell_length_b                   19.5247(13)
_cell_length_c                   10.4621(8)
_cell_angle_alpha                90
_cell_angle_beta                 100.899(3)
_cell_angle_gamma                90
_cell_volume                     2949.2
loop_
_atom_site_label
_atom_site_type_symbol
_atom_site_fract_x
_atom_site_fract_y
_atom_site_fract_z
Mn1 Mn 0.12498(3) 0.31978(2) 0.34498(4)
N1 N 0.1190(2) 0.38553(13) 0.5248(2)
N2 N 0.1073(2) 0.43103(13) 0.2775(3)
O1 O 0.27675(18) 0.31902(14) 0.3964(2)
O2 O 0.21848(18) 0.30377(15) 0.1917(3)
O3 O 0.96216(17) 0.31877(13) 0.0200(2)
O4 O 1.00468(16) 0.28680(13) 0.2270(2)
O5 O 0.12013(18) 0.22658(12) 0.4534(2)
H1 H 0.1620(19) 0.2167(17) 0.516(3)
H2 H 0.069(2) 0.214(2) 0.472(4)
C1 C 0.1256(3) 0.3630(2) 0.6452(3)
H3 H 0.1240 0.3161 0.6592
C2 C 0.1350(4) 0.4070(2) 0.7526(4)
H4 H 0.1399 0.3893 0.8362
C3 C 0.1370(4) 0.4753(2) 0.7333(4)
H5 H 0.1436 0.5050 0.8040
C4 C 0.1292(3) 0.50138(19) 0.6074(4)
C5 C 0.1287(4) 0.5725(2) 0.5777(5)
H6 H 0.1350 0.6041 0.6454
C6 C 0.1195(4) 0.5955(2) 0.4550(5)
H7 H 0.1181 0.6424 0.4393
C7 C 0.1116(3) 0.54910(18) 0.3487(4)
C8 C 0.1022(3) 0.5699(2) 0.2188(4)
H8 H 0.0999 0.6163 0.1981
C9 C 0.0965(3) 0.5223(2) 0.1234(4)
H9 H 0.0906 0.5356 0.0369
C10 C 0.0994(3) 0.4530(2) 0.1563(3)
H10 H 0.0956 0.4208 0.0900
C11 C 0.1129(3) 0.47838(16) 0.3732(3)
C12 C 0.1207(3) 0.45388(16) 0.5051(3)
C13 C 0.2885(3) 0.31085(16) 0.2818(4)
C14 C 0.3829(3) 0.31086(17) 0.2529(3)
C15 C 0.4005(3) 0.3060(2) 0.1282(4)
H11 H 0.3511 0.3021 0.0585
C16 C 0.4901(3) 0.3068(2) 0.1047(4)
H12 H 0.4998 0.3054 0.0194
C17 C 0.5658(3) 0.30969(17) 0.2068(3)
C18 C 0.5473(3) 0.3147(2) 0.3324(4)
H13 H 0.5965 0.3170 0.4026
C19 C 0.4583(3) 0.3162(2) 0.3553(4)
H14 H 0.4484 0.3208 0.4400
C20 C 0.9441(2) 0.30331(15) 0.1276(3)
C21 C 0.8456(2) 0.30302(15) 0.1451(3)
C22 C 0.7772(3) 0.33555(18) 0.0566(3)
H15 H 0.7923 0.3558 -0.0171
C23 C 0.6876(3) 0.3383(2) 0.0763(3)
H16 H 0.6433 0.3612 0.0163
C24 C 0.6613(2) 0.30757(17) 0.1837(3)
C25 C 0.7303(3) 0.27418(17) 0.2719(3)
H17 H 0.7149 0.2531 0.3446
C26 C 0.8207(3) 0.27180(16) 0.2535(3)
H18 H 0.8653 0.2493 0.3137
Mn1_2 Mn 1.12498(3) 0.31978(2) 0.34498(4)
O4_2 O 0.00468(16) 0.28680(13) 0.2270(2)
loop_
_geom_bond_atom_site_label_1
_geom_bond_atom_site_label_2
_geom_bond_site_symmetry_1
_geom_bond_site_symmetry_2
Mn1 N1 1_555 1_555
N1 C1 1_555 1_555
N2 Mn1 1_555 1_555
O1 Mn1 1_555 1_555
O2 Mn1 1_555 1_555
O3 C20 1_555 1_555
O4 C20 1_555 1_555
O5 Mn1 1_555 1_555
H1 O5 1_555 1_555
H2 O5 1_555 1_555
C1 H3 1_555 1_555
C2 C1 1_555 1_555
H4 C2 1_555 1_555
C3 C2 1_555 1_555
H5 C3 1_555 1_555
C4 C3 1_555 1_555
C5 C4 1_555 1_555
H6 C5 1_555 1_555
C6 C5 1_555 1_555
H7 C6 1_555 1_555
C7 C6 1_555 1_555
C8 C7 1_555 1_555
H8 C8 1_555 1_555
C9 C8 1_555 1_555
H9 C9 1_555 1_555
C10 N2 1_555 1_555
H10 C10 1_555 1_555
C11 N2 1_555 1_555
C12 N1 1_555 1_555
C13 O1 1_555 1_555
C14 C13 1_555 1_555
C15 C14 1_555 1_555
H11 C15 1_555 1_555
C16 C15 1_555 1_555
H12 C16 1_555 1_555
C17 C16 1_555 1_555
C18 C17 1_555 1_555
H13 C18 1_555 1_555
C19 C14 1_555 1_555
H14 C19 1_555 1_555
C20 C21 1_555 1_555
C21 C22 1_555 1_555
C22 H15 1_555 1_555
C23 C22 1_555 1_555
H16 C23 1_555 1_555
C24 C17 1_555 1_555
C25 C24 1_555 1_555
H17 C25 1_555 1_555
C26 C21 1_555 1_555
H18 C26 1_555 1_555
Mn1_2 O4 1_555 1_555
O4_2 Mn1 1_555 1_555
O2 C13 1_555 1_555
C4 C12 1_555 1_555
C7 C11 1_555 1_555
C9 C10 1_555 1_555
C11 C12 1_555 1_555
C18 C19 1_555 1_555
C23 C24 1_555 1_555
C25 C26 1_555 1_555

#END
