
#######################################################################
#
#                 Cambridge Crystallographic Data Centre
#                                CCDC 
#
#######################################################################
#
# If this CIF has been generated from an entry in the Cambridge 
# Structural Database, then it will include bibliographic, chemical, 
# crystal, experimental, refinement or atomic coordinate data resulting 
# from the CCDC's data processing and validation procedures.
#
#######################################################################

data_LAXNII
_symmetry_cell_setting           monoclinic
_symmetry_space_group_name_H-M   'C 2/c'
_symmetry_Int_Tables_number      15
_space_group_name_Hall           '-C 2yn'
loop_
_symmetry_equiv_pos_site_id
_symmetry_equiv_pos_as_xyz
1 x,y,z
2 1/2+x,1/2+y,z
3 -x,y,1/2-z
4 1/2-x,1/2+y,1/2-z
5 -x,-y,-z
6 1/2-x,1/2-y,-z
7 x,-y,1/2+z
8 1/2+x,1/2-y,1/2+z
_cell_length_a                   26.467(3)
_cell_length_b                   11.7435(10)
_cell_length_c                   7.3557(8)
_cell_angle_alpha                90
_cell_angle_beta                 103.913(2)
_cell_angle_gamma                90
_cell_volume                     2219.19
loop_
_atom_site_label
_atom_site_type_symbol
_atom_site_fract_x
_atom_site_fract_y
_atom_site_fract_z
Mn1 Mn 0.0000 0.38350(11) 1.2500
O1 O -0.06359(15) 0.4817(4) 1.1144(7)
O2 O -0.04001(14) 0.6352(3) 0.9771(6)
N1 N -0.04666(17) 0.2231(4) 1.1237(7)
C1 C -0.0928(2) 0.2245(6) 1.0066(10)
H1 H -0.1079 0.2946 0.9672
C2 C -0.1200(3) 0.1263(7) 0.9392(11)
H2 H -0.1522 0.1303 0.8541
C3 C -0.0985(3) 0.0240(7) 1.0004(11)
H3 H -0.1169 -0.0424 0.9603
C4 C -0.0488(3) 0.0169(5) 1.1231(10)
C5 C -0.0254(2) 0.1204(5) 1.1833(8)
C6 C -0.0236(3) -0.0871(5) 1.1887(9)
H4 H -0.0397 -0.1559 1.1470
C7 C -0.07154(19) 0.5774(5) 1.0401(9)
C8 C -0.12563(19) 0.6263(5) 1.0254(8)
C9 C -0.1581(2) 0.5835(6) 1.1238(11)
H5 H -0.1476 0.5210 1.2013
C10 C -0.2066(2) 0.6299(6) 1.1128(12)
H6 H -0.2283 0.5969 1.1805
C11 C -0.22355(18) 0.7236(5) 1.0040(8)
C12 C -0.1907(2) 0.7658(5) 0.9032(10)
H7 H -0.2011 0.8284 0.8260
C13 C -0.1420(2) 0.7180(6) 0.9123(10)
H8 H -0.1205 0.7486 0.8414
Mn1F Mn 0.0000 0.61650(11) 0.7500
Mn1G Mn -0.5000 1.11650(11) 0.7500
Mn1A Mn -0.5000 0.88350(11) 1.2500
O1E O -0.43641(15) 1.0183(4) 0.8856(7)
O1B O 0.06359(15) 0.4817(4) 1.3856(7)
O2E O -0.45999(14) 0.8648(3) 1.0229(6)
O2F O -0.04001(14) 0.3648(3) 1.4771(6)
O2D O 0.04001(14) 0.3648(3) 1.0229(6)
N1B N 0.04666(17) 0.2231(4) 1.3763(7)
C1B C 0.0928(2) 0.2245(6) 1.4934(10)
H1B H 0.1079 0.2946 1.5328
C2B C 0.1200(3) 0.1263(7) 1.5608(11)
H2B H 0.1522 0.1303 1.6459
C3B C 0.0985(3) 0.0240(7) 1.4996(11)
H3B H 0.1169 -0.0424 1.5397
C4B C 0.0488(3) 0.0169(5) 1.3769(10)
C5B C 0.0254(2) 0.1204(5) 1.3167(8)
C6B C 0.0236(3) -0.0871(5) 1.3113(9)
H4B H 0.0397 -0.1559 1.3530
C7E C -0.42846(19) 0.9226(5) 0.9599(9)
C8E C -0.37437(19) 0.8737(5) 0.9746(8)
C9E C -0.3419(2) 0.9165(6) 0.8762(11)
H5E H -0.3524 0.9790 0.7987
C10E C -0.2934(2) 0.8701(6) 0.8872(12)
H6E H -0.2717 0.9031 0.8195
C11E C -0.27645(18) 0.7764(5) 0.9960(8)
C12E C -0.3093(2) 0.7342(5) 1.0968(10)
H7E H -0.2989 0.6716 1.1740
C13E C -0.3580(2) 0.7820(6) 1.0877(10)
H8E H -0.3795 0.7514 1.1586
loop_
_geom_bond_atom_site_label_1
_geom_bond_atom_site_label_2
_geom_bond_site_symmetry_1
_geom_bond_site_symmetry_2
Mn1 O1 1_555 1_555
O1 C7 1_555 1_555
O2 C7 1_555 1_555
N1 Mn1 1_555 1_555
C1 N1 1_555 1_555
H1 C1 1_555 1_555
C2 C1 1_555 1_555
H2 C2 1_555 1_555
C3 C2 1_555 1_555
H3 C3 1_555 1_555
C4 C3 1_555 1_555
C5 N1 1_555 1_555
C6 C4 1_555 1_555
H4 C6 1_555 1_555
C7 C8 1_555 1_555
C8 C9 1_555 1_555
C9 H5 1_555 1_555
C10 C9 1_555 1_555
H6 C10 1_555 1_555
C11 C10 1_555 1_555
C12 C11 1_555 1_555
H7 C12 1_555 1_555
C13 C8 1_555 1_555
H8 C13 1_555 1_555
Mn1F O2 1_555 1_555
Mn1G O1E 1_555 1_555
Mn1A O2E 1_555 1_555
O1E C7E 1_555 1_555
O1B Mn1 1_555 1_555
O2E C7E 1_555 1_555
O2F Mn1 1_555 1_555
O2D Mn1 1_555 1_555
N1B Mn1 1_555 1_555
C1B N1B 1_555 1_555
H1B C1B 1_555 1_555
C2B C1B 1_555 1_555
H2B C2B 1_555 1_555
C3B C2B 1_555 1_555
H3B C3B 1_555 1_555
C4B C3B 1_555 1_555
C5B C5 1_555 1_555
C6B C6 1_555 1_555
H4B C6B 1_555 1_555
C7E C8E 1_555 1_555
C8E C9E 1_555 1_555
C9E H5E 1_555 1_555
C10E C9E 1_555 1_555
H6E C10E 1_555 1_555
C11E C11 1_555 1_555
C12E C11E 1_555 1_555
H7E C12E 1_555 1_555
C13E C8E 1_555 1_555
H8E C13E 1_555 1_555
C4 C5 1_555 1_555
C12 C13 1_555 1_555
N1B C5B 1_555 1_555
C4B C5B 1_555 1_555
C4B C6B 1_555 1_555
C10E C11E 1_555 1_555
C12E C13E 1_555 1_555

#END
