
#######################################################################
#
#                 Cambridge Crystallographic Data Centre
#                                CCDC 
#
#######################################################################
#
# If this CIF has been generated from an entry in the Cambridge 
# Structural Database, then it will include bibliographic, chemical, 
# crystal, experimental, refinement or atomic coordinate data resulting 
# from the CCDC's data processing and validation procedures.
#
#######################################################################

data_LAXPUW
_symmetry_cell_setting           monoclinic
_symmetry_space_group_name_H-M   'C 2/c'
_symmetry_Int_Tables_number      15
_space_group_name_Hall           '-C 2yn'
loop_
_symmetry_equiv_pos_site_id
_symmetry_equiv_pos_as_xyz
1 x,y,z
2 1/2+x,1/2+y,z
3 -x,y,1/2-z
4 1/2-x,1/2+y,1/2-z
5 -x,-y,-z
6 1/2-x,1/2-y,-z
7 x,-y,1/2+z
8 1/2+x,1/2-y,1/2+z
_cell_length_a                   21.978(3)
_cell_length_b                   7.5837(12)
_cell_length_c                   13.064(2)
_cell_angle_alpha                90
_cell_angle_beta                 115.347(2)
_cell_angle_gamma                90
_cell_volume                     1967.82
loop_
_atom_site_label
_atom_site_type_symbol
_atom_site_fract_x
_atom_site_fract_y
_atom_site_fract_z
Mn1 Mn 0.5000 1.22839(6) 0.2500
N1 N 0.53695(10) 1.0159(3) 0.17336(16)
N2 N 0.55557(12) 0.7277(3) 0.10529(18)
N3 N 0.53387(10) 0.4392(3) 0.16934(16)
N4 N 0.40069(10) 1.2236(3) 0.09086(17)
H1 H 0.4068(15) 1.185(4) 0.039(3)
H2 H 0.3863(14) 1.331(4) 0.071(2)
N5 N 0.34729(9) 1.1287(2) 0.09830(15)
H3 H 0.3517(14) 1.096(4) 0.165(2)
O1 O 0.28834(8) 1.1189(2) -0.08979(13)
O2 O 0.29459(9) 0.9832(2) 0.22231(13)
H4 H 0.2901(16) 0.954(4) 0.274(3)
C1 C 0.54456(11) 0.8760(3) 0.14484(18)
C2 C 0.54313(11) 0.5776(3) 0.14183(18)
C3 C 0.29339(11) 1.0781(3) 0.00513(17)
C4 C 0.24032(10) 0.9766(3) 0.02098(17)
C5 C 0.18543(11) 0.9181(3) -0.07745(18)
H5 H 0.1860(14) 0.945(4) -0.150(2)
C6 C 0.13238(11) 0.8259(3) -0.07158(19)
H6 H 0.0960(15) 0.788(4) -0.137(3)
C7 C 0.13297(12) 0.7924(3) 0.0337(2)
H7 H 0.0991(16) 0.732(4) 0.041(3)
C8 C 0.18658(11) 0.8460(3) 0.13136(18)
H8 H 0.1881(14) 0.824(4) 0.205(2)
C9 C 0.24078(11) 0.9358(3) 0.12640(17)
Mn1_2 Mn 0.5000 0.22839(6) 0.2500
N1B N 0.46305(10) 1.0159(3) 0.32664(16)
N2B N 0.44443(12) 0.7277(3) 0.39471(18)
N3B N 0.46613(10) 0.4392(3) 0.33066(16)
N3_2 N 0.53387(10) 1.4392(3) 0.16934(16)
N3B_2 N 0.46613(10) 1.4392(3) 0.33066(16)
N4B N 0.59931(10) 1.2236(3) 0.40914(17)
H1B H 0.5932(15) 1.185(4) 0.461(3)
H2B H 0.6137(14) 1.331(4) 0.429(2)
N5B N 0.65271(9) 1.1287(2) 0.40170(15)
H3B H 0.6483(14) 1.096(4) 0.335(2)
O1B O 0.71166(8) 1.1189(2) 0.58979(13)
O2B O 0.70541(9) 0.9832(2) 0.27769(13)
H4B H 0.7099(16) 0.954(4) 0.226(3)
C1B C 0.45544(11) 0.8760(3) 0.35516(18)
C2B C 0.45687(11) 0.5776(3) 0.35817(18)
C3B C 0.70661(11) 1.0781(3) 0.49487(17)
C4B C 0.75968(10) 0.9766(3) 0.47902(17)
C5B C 0.81457(11) 0.9181(3) 0.57745(18)
H5B H 0.8140(14) 0.945(4) 0.650(2)
C6B C 0.86762(11) 0.8259(3) 0.57158(19)
H6B H 0.9040(15) 0.788(4) 0.637(3)
C7B C 0.86703(12) 0.7924(3) 0.4663(2)
H7B H 0.9009(16) 0.732(4) 0.459(3)
C8B C 0.81342(11) 0.8460(3) 0.36864(18)
H8B H 0.8119(14) 0.824(4) 0.295(2)
C9B C 0.75922(11) 0.9358(3) 0.37360(17)
loop_
_geom_bond_atom_site_label_1
_geom_bond_atom_site_label_2
_geom_bond_site_symmetry_1
_geom_bond_site_symmetry_2
Mn1 N1 1_555 1_555
N1 C1 1_555 1_555
N2 C1 1_555 1_555
N3 C2 1_555 1_555
N4 Mn1 1_555 1_555
H1 N4 1_555 1_555
H2 N4 1_555 1_555
N5 N4 1_555 1_555
H3 N5 1_555 1_555
O1 C3 1_555 1_555
O2 H4 1_555 1_555
C2 N2 1_555 1_555
C3 N5 1_555 1_555
C4 C3 1_555 1_555
C5 C4 1_555 1_555
H5 C5 1_555 1_555
C6 C5 1_555 1_555
H6 C6 1_555 1_555
C7 C6 1_555 1_555
H7 C7 1_555 1_555
C8 C7 1_555 1_555
H8 C8 1_555 1_555
C9 O2 1_555 1_555
Mn1_2 N3 1_555 1_555
N1B Mn1 1_555 1_555
N2B C1B 1_555 1_555
N3B Mn1_2 1_555 1_555
N3_2 Mn1 1_555 1_555
N3B_2 Mn1 1_555 1_555
N4B Mn1 1_555 1_555
H1B N4B 1_555 1_555
H2B N4B 1_555 1_555
N5B N4B 1_555 1_555
H3B N5B 1_555 1_555
O1B C3B 1_555 1_555
O2B H4B 1_555 1_555
C1B N1B 1_555 1_555
C2B N2B 1_555 1_555
C3B N5B 1_555 1_555
C4B C3B 1_555 1_555
C5B C4B 1_555 1_555
H5B C5B 1_555 1_555
C6B C5B 1_555 1_555
H6B C6B 1_555 1_555
C7B C6B 1_555 1_555
H7B C7B 1_555 1_555
C8B C7B 1_555 1_555
H8B C8B 1_555 1_555
C9B O2B 1_555 1_555
C4 C9 1_555 1_555
C8 C9 1_555 1_555
N3B C2B 1_555 1_555
C4B C9B 1_555 1_555
C8B C9B 1_555 1_555

#END
