
#######################################################################
#
#                 Cambridge Crystallographic Data Centre
#                                CCDC 
#
#######################################################################
#
# If this CIF has been generated from an entry in the Cambridge 
# Structural Database, then it will include bibliographic, chemical, 
# crystal, experimental, refinement or atomic coordinate data resulting 
# from the CCDC's data processing and validation procedures.
#
#######################################################################

data_LAXTEL
_symmetry_cell_setting           monoclinic
_symmetry_space_group_name_H-M   'P 21/n'
_symmetry_Int_Tables_number      14
_space_group_name_Hall           '-P 2yn'
loop_
_symmetry_equiv_pos_site_id
_symmetry_equiv_pos_as_xyz
1 x,y,z
2 1/2-x,1/2+y,1/2-z
3 -x,-y,-z
4 1/2+x,1/2-y,1/2+z
_cell_length_a                   8.5970(4)
_cell_length_b                   9.5708(4)
_cell_length_c                   15.5239(6)
_cell_angle_alpha                90
_cell_angle_beta                 97.554(3)
_cell_angle_gamma                90
_cell_volume                     1266.22
loop_
_atom_site_label
_atom_site_type_symbol
_atom_site_fract_x
_atom_site_fract_y
_atom_site_fract_z
O1 O -0.6184(3) -0.0299(2) -0.22897(18)
C1 C -0.5954(4) -0.1582(3) -0.2149(2)
Cd1 Cd -0.62785(3) -0.48518(2) -0.23860(2)
Br1 Br -0.52709(7) -0.47872(5) -0.38455(3)
C2 C -0.1740(5) -0.5392(4) 0.0551(3)
H1 H -0.1180 -0.5848 0.1022
N1 N -0.4829(3) -0.6077(3) -0.13051(19)
C3 C -0.3716(4) -0.5414(3) -0.0734(2)
C4 C -0.4284(4) -0.1966(3) -0.1762(3)
H2 H -0.3984 -0.1426 -0.1229
C5 C -0.3416(4) -0.3970(3) -0.0851(2)
O2 O -0.4310(3) -0.3419(2) -0.15560(17)
C6 C -0.5041(5) -0.7445(3) -0.1209(3)
H3 H -0.5808 -0.7895 -0.1589
C7 C -0.3087(5) -0.7586(4) 0.0019(3)
H4 H -0.2516 -0.8106 0.0458
C8 C -0.4164(5) -0.8221(4) -0.0566(3)
H5 H -0.4316 -0.9181 -0.0537
C9 C -0.2828(4) -0.6134(4) -0.0039(2)
C10 C -0.2328(4) -0.3285(4) -0.0288(2)
H6 H -0.2122 -0.2345 -0.0373
C11 C -0.1517(4) -0.4008(4) 0.0423(3)
H7 H -0.0807 -0.3523 0.0818
O3 O -0.6984(3) -0.2510(2) -0.22811(16)
C12 C -0.3121(5) -0.1692(4) -0.2397(3)
H8 H -0.2092 -0.1978 -0.2142
H9 H -0.3112 -0.0713 -0.2530
H10 H -0.3422 -0.2213 -0.2921
O1A O -0.8816(3) -0.5299(2) -0.27103(18)
Cd1A Cd -0.87215(3) 0.01482(2) -0.26140(2)
loop_
_geom_bond_atom_site_label_1
_geom_bond_atom_site_label_2
_geom_bond_site_symmetry_1
_geom_bond_site_symmetry_2
O1 C1 1_555 1_555
C1 C4 1_555 1_555
Cd1 Br1 1_555 1_555
C2 H1 1_555 1_555
N1 Cd1 1_555 1_555
C3 N1 1_555 1_555
C4 H2 1_555 1_555
C5 C3 1_555 1_555
O2 Cd1 1_555 1_555
C6 N1 1_555 1_555
H3 C6 1_555 1_555
C7 H4 1_555 1_555
C8 C6 1_555 1_555
H5 C8 1_555 1_555
C9 C2 1_555 1_555
C10 C5 1_555 1_555
H6 C10 1_555 1_555
C11 C2 1_555 1_555
H7 C11 1_555 1_555
O3 C1 1_555 1_555
C12 C4 1_555 1_555
H8 C12 1_555 1_555
H9 C12 1_555 1_555
H10 C12 1_555 1_555
O1A Cd1 1_555 1_555
Cd1A O1 1_555 1_555
Cd1 O3 1_555 1_555
C3 C9 1_555 1_555
C4 O2 1_555 1_555
C5 O2 1_555 1_555
C7 C8 1_555 1_555
C7 C9 1_555 1_555
C10 C11 1_555 1_555

#END
