
#######################################################################
#
#                 Cambridge Crystallographic Data Centre
#                                CCDC 
#
#######################################################################
#
# If this CIF has been generated from an entry in the Cambridge 
# Structural Database, then it will include bibliographic, chemical, 
# crystal, experimental, refinement or atomic coordinate data resulting 
# from the CCDC's data processing and validation procedures.
#
#######################################################################

data_LAXVOX
_symmetry_cell_setting           monoclinic
_symmetry_space_group_name_H-M   'P 21/c'
_symmetry_Int_Tables_number      14
_space_group_name_Hall           '-P 2ybc'
loop_
_symmetry_equiv_pos_site_id
_symmetry_equiv_pos_as_xyz
1 x,y,z
2 -x,1/2+y,1/2-z
3 -x,-y,-z
4 x,1/2-y,1/2+z
_cell_length_a                   12.3666(5)
_cell_length_b                   7.7740(2)
_cell_length_c                   15.6142(5)
_cell_angle_alpha                90
_cell_angle_beta                 105.460(4)
_cell_angle_gamma                90
_cell_volume                     1446.8
loop_
_atom_site_label
_atom_site_type_symbol
_atom_site_fract_x
_atom_site_fract_y
_atom_site_fract_z
Cu1 Cu 0.66233(3) 0.65036(5) 0.21162(2)
N1 N 0.5902(2) 0.7683(4) 0.28782(17)
S1 S 0.53891(7) 1.00904(11) 0.40221(5)
C1 C 0.5688(2) 0.8706(4) 0.33442(19)
O1 O 0.69568(18) 0.4239(3) 0.27683(13)
N2 N 0.6631(2) 0.8370(3) 0.12251(15)
N3 N 0.75592(19) 0.5439(3) 0.14558(14)
N4 N 0.7987(2) 0.3888(3) 0.17854(16)
H1 H 0.8431 0.3293 0.1562
C2 C 0.6124(3) 0.9895(4) 0.1144(2)
H2 H 0.5703 1.0179 0.1536
C3 C 0.6199(3) 1.1065(4) 0.0502(2)
H3 H 0.5841 1.2125 0.0466
C4 C 0.6808(3) 1.0645(4) -0.0081(2)
H4 H 0.6864 1.1420 -0.0521
C5 C 0.7344(3) 0.9056(4) -0.0015(2)
H5 H 0.7761 0.8751 -0.0407
C6 C 0.7238(2) 0.7943(4) 0.06494(18)
C7 C 0.7790(2) 0.6237(4) 0.08068(18)
C8 C 0.7646(3) 0.3373(4) 0.2500(2)
C9 C 0.8537(3) 0.5615(5) 0.0274(2)
H6 H 0.9238 0.6220 0.0447
H7 H 0.8188 0.5815 -0.0345
H8 H 0.8669 0.4405 0.0373
C10 C 0.8121(3) 0.1734(4) 0.2938(2)
H9 H 0.8641 0.1983 0.3500
H10 H 0.8503 0.1138 0.2566
H11 H 0.7525 0.1026 0.3028
N5 N 0.9392(2) 0.7481(4) 0.30999(19)
O3 O 0.8479(2) 0.7179(5) 0.32595(18)
O4 O 1.0296(2) 0.7159(4) 0.36909(18)
O5 O 0.9432(2) 0.8089(4) 0.23879(19)
Cu1A Cu 0.33767(3) 1.15036(5) 0.28838(2)
S1A S 0.46109(7) 0.50904(11) 0.09779(5)
O2 O 1.0319(10) 0.8960(10) 0.0401(5)
H12 H 1.032(15) 0.887(17) -0.021(6)
H13 H 1.030(15) 0.785(10) 0.058(8)
loop_
_geom_bond_atom_site_label_1
_geom_bond_atom_site_label_2
_geom_bond_site_symmetry_1
_geom_bond_site_symmetry_2
Cu1 N1 1_555 1_555
N1 C1 1_555 1_555
S1 C1 1_555 1_555
O1 Cu1 1_555 1_555
N2 Cu1 1_555 1_555
N3 Cu1 1_555 1_555
N4 N3 1_555 1_555
H1 N4 1_555 1_555
C2 N2 1_555 1_555
H2 C2 1_555 1_555
C3 C2 1_555 1_555
H3 C3 1_555 1_555
C4 C3 1_555 1_555
H4 C4 1_555 1_555
C5 C4 1_555 1_555
H5 C5 1_555 1_555
C6 N2 1_555 1_555
C7 N3 1_555 1_555
C8 O1 1_555 1_555
C9 C7 1_555 1_555
H6 C9 1_555 1_555
H7 C9 1_555 1_555
H8 C9 1_555 1_555
C10 C8 1_555 1_555
H9 C10 1_555 1_555
H10 C10 1_555 1_555
H11 C10 1_555 1_555
O2 H12 1_555 1_555
H13 O2 1_555 1_555
N5 O3 1_555 1_555
O3 Cu1 1_555 1_555
O4 N5 1_555 1_555
O5 N5 1_555 1_555
Cu1A S1 1_555 1_555
S1A Cu1 1_555 1_555
N4 C8 1_555 1_555
C5 C6 1_555 1_555
C6 C7 1_555 1_555

#END
