
#######################################################################
#
#                 Cambridge Crystallographic Data Centre
#                                CCDC 
#
#######################################################################
#
# If this CIF has been generated from an entry in the Cambridge 
# Structural Database, then it will include bibliographic, chemical, 
# crystal, experimental, refinement or atomic coordinate data resulting 
# from the CCDC's data processing and validation procedures.
#
#######################################################################

data_LAXVUD
_symmetry_cell_setting           monoclinic
_symmetry_space_group_name_H-M   'P 21/c'
_symmetry_Int_Tables_number      14
_space_group_name_Hall           '-P 2ybc'
loop_
_symmetry_equiv_pos_site_id
_symmetry_equiv_pos_as_xyz
1 x,y,z
2 -x,1/2+y,1/2-z
3 -x,-y,-z
4 x,1/2-y,1/2+z
_cell_length_a                   12.4831(6)
_cell_length_b                   7.9038(3)
_cell_length_c                   16.0923(8)
_cell_angle_alpha                90
_cell_angle_beta                 110.056(5)
_cell_angle_gamma                90
_cell_volume                     1491.45
loop_
_atom_site_label
_atom_site_type_symbol
_atom_site_fract_x
_atom_site_fract_y
_atom_site_fract_z
Co1 Co 0.32235(3) -0.18757(4) 0.13306(2)
N1 N 0.33160(16) -0.3550(2) 0.03278(13)
N2 N 0.23742(16) -0.0649(2) 0.01446(12)
N3 N 0.19170(17) 0.0892(3) 0.02427(14)
N4 N 0.4117(2) -0.3131(3) 0.24196(15)
N5 N 0.1659(2) -0.2709(3) 0.13513(15)
C1 C 0.4459(2) -0.4096(3) 0.29890(16)
C2 C 0.0750(2) -0.3117(3) 0.12927(17)
S1 S 0.49011(6) -0.54080(10) 0.38109(5)
S2 S -0.05145(6) -0.37645(11) 0.12458(6)
O1 O 0.28011(15) 0.0526(2) 0.17153(11)
C3 C 0.3775(2) -0.5089(3) 0.04599(18)
H1 H 0.4111 -0.5473 0.1038
C4 C 0.3772(2) -0.6137(3) -0.0226(2)
H2 H 0.4086 -0.7216 -0.0113
C5 C 0.3301(2) -0.5563(4) -0.1074(2)
H3 H 0.3305 -0.6240 -0.1546
C6 C 0.2817(2) -0.3965(3) -0.12254(17)
H4 H 0.2495 -0.3552 -0.1799
C7 C 0.28211(19) -0.2997(3) -0.05122(16)
C8 C 0.2275(2) -0.1305(3) -0.06006(15)
C9 C 0.2174(2) 0.1384(3) 0.10997(18)
C10 C 0.1668(3) -0.0548(5) -0.14867(18)
H5 H 0.0962 -0.1138 -0.1763
H6 H 0.2136 -0.0643 -0.1849
H7 H 0.1513 0.0623 -0.1418
C11 C 0.1659(3) 0.2993(4) 0.1250(2)
H8 H 0.1072 0.2756 0.1493
H9 H 0.1334 0.3580 0.0698
H10 H 0.2236 0.3685 0.1655
Co1A Co 0.67765(3) -0.68757(4) 0.36694(2)
S1A S 0.50989(6) -0.04080(10) 0.11891(5)
loop_
_geom_bond_atom_site_label_1
_geom_bond_atom_site_label_2
_geom_bond_site_symmetry_1
_geom_bond_site_symmetry_2
Co1 N1 1_555 1_555
N1 C3 1_555 1_555
N2 Co1 1_555 1_555
N3 N2 1_555 1_555
N4 Co1 1_555 1_555
N5 Co1 1_555 1_555
C1 N4 1_555 1_555
C2 N5 1_555 1_555
S1 C1 1_555 1_555
S2 C2 1_555 1_555
O1 Co1 1_555 1_555
C3 H1 1_555 1_555
C4 C3 1_555 1_555
H2 C4 1_555 1_555
C5 C4 1_555 1_555
H3 C5 1_555 1_555
C6 C5 1_555 1_555
H4 C6 1_555 1_555
C7 N1 1_555 1_555
C8 N2 1_555 1_555
C9 N3 1_555 1_555
C10 C8 1_555 1_555
H5 C10 1_555 1_555
H6 C10 1_555 1_555
H7 C10 1_555 1_555
C11 C9 1_555 1_555
H8 C11 1_555 1_555
H9 C11 1_555 1_555
H10 C11 1_555 1_555
Co1A S1 1_555 1_555
S1A Co1 1_555 1_555
O1 C9 1_555 1_555
C6 C7 1_555 1_555
C7 C8 1_555 1_555

#END
