
#######################################################################
#
#                 Cambridge Crystallographic Data Centre
#                                CCDC 
#
#######################################################################
#
# If this CIF has been generated from an entry in the Cambridge 
# Structural Database, then it will include bibliographic, chemical, 
# crystal, experimental, refinement or atomic coordinate data resulting 
# from the CCDC's data processing and validation procedures.
#
#######################################################################

data_LAXWOX
_symmetry_cell_setting           triclinic
_symmetry_space_group_name_H-M   'P -1'
_symmetry_Int_Tables_number      2
_space_group_name_Hall           '-P 1'
loop_
_symmetry_equiv_pos_site_id
_symmetry_equiv_pos_as_xyz
1 x,y,z
2 -x,-y,-z
_cell_length_a                   12.75640(10)
_cell_length_b                   13.13000(10)
_cell_length_c                   17.5490(3)
_cell_angle_alpha                89.4760(10)
_cell_angle_beta                 79.51
_cell_angle_gamma                65.9120(10)
_cell_volume                     2631.54
loop_
_atom_site_label
_atom_site_type_symbol
_atom_site_fract_x
_atom_site_fract_y
_atom_site_fract_z
Pr1 Pr 0.33710(3) 0.28763(3) 0.243489(19)
Pr2 Pr 0.10440(3) 0.33774(3) 0.44805(2)
Pr3 Pr 0.32995(3) 0.09447(3) 0.069657(19)
O1 O 0.2791(3) 0.3743(3) 0.3914(2)
O2 O 0.3645(4) 0.4473(4) 0.3006(2)
O3 O 0.4158(3) 0.2346(4) 0.0953(2)
O4 O 0.1250(4) 0.4095(4) 0.2936(2)
O5 O 0.1966(3) 0.2516(3) 0.1723(2)
O6 O 0.4157(3) 0.0858(3) 0.1963(2)
O7 O 0.2523(3) 0.1824(3) 0.3405(2)
O8 O 0.3241(4) 0.4150(4) 0.1328(2)
O9 O 0.5006(4) 0.1924(4) 0.3199(3)
O10 O 0.5579(4) 0.2450(5) 0.2088(3)
O11 O 0.2621(4) 0.1549(4) 0.4645(2)
O12 O 0.0931(3) 0.5142(4) 0.5088(2)
O13 O -0.0163(4) 0.3597(4) 0.3449(2)
O14 O 0.2257(4) 0.3845(4) 0.5627(3)
O15 O 0.6497(4) 0.1017(4) -0.0380(2)
O16 O 0.1896(3) 0.2895(4) 0.0495(2)
O17 O 0.3133(4) -0.0154(4) 0.1974(2)
O18 O 0.4785(3) 0.1011(3) -0.0434(2)
N1 N 0.0152(5) 0.2908(5) 0.5889(3)
N2 N 0.0048(5) 0.1939(5) 0.4553(3)
C1 C 0.0216(7) 0.3339(7) 0.6549(4)
H1 H 0.0764 0.3642 0.6528
C2 C -0.0464(8) 0.3375(7) 0.7270(4)
H2 H -0.0377 0.3695 0.7712
C3 C -0.1245(8) 0.2937(8) 0.7309(5)
H3 H -0.1739 0.2982 0.7780
C4 C -0.1327(7) 0.2415(8) 0.6655(6)
C5 C -0.2065(9) 0.1846(11) 0.6649(6)
H4 H -0.2529 0.1818 0.7116
C6 C -0.2129(9) 0.1352(10) 0.6010(7)
H5 H -0.2650 0.1018 0.6034
C7 C -0.1381(8) 0.1337(8) 0.5277(6)
C8 C -0.1396(9) 0.0823(9) 0.4606(7)
H6 H -0.1904 0.0475 0.4619
C9 C -0.0678(8) 0.0808(8) 0.3913(6)
H7 H -0.0657 0.0425 0.3463
C10 C 0.0024(7) 0.1406(7) 0.3924(5)
H8 H 0.0500 0.1426 0.3460
C11 C -0.0646(6) 0.1885(6) 0.5237(5)
C12 C -0.0601(6) 0.2403(6) 0.5930(5)
N3 N 0.1100(4) 0.1128(4) 0.0941(3)
N4 N 0.2355(4) 0.0888(5) -0.0527(3)
C13 C 0.0463(6) 0.1276(6) 0.1662(4)
H9 H 0.0849 0.1176 0.2076
C14 C -0.0739(6) 0.1568(7) 0.1829(4)
H10 H -0.1139 0.1668 0.2341
C15 C -0.1320(6) 0.1705(6) 0.1226(5)
H11 H -0.2125 0.1914 0.1326
C16 C -0.0694(6) 0.1529(6) 0.0455(4)
C17 C -0.1219(6) 0.1601(7) -0.0209(5)
H12 H -0.2018 0.1787 -0.0137
C18 C -0.0594(7) 0.1410(7) -0.0924(5)
H13 H -0.0957 0.1437 -0.1342
C19 C 0.0636(6) 0.1161(6) -0.1068(4)
C20 C 0.1336(7) 0.0955(7) -0.1819(4)
H14 H 0.1004 0.0985 -0.2254
C21 C 0.2502(7) 0.0711(7) -0.1909(4)
H15 H 0.2973 0.0563 -0.2401
C22 C 0.2967(6) 0.0689(6) -0.1254(4)
H16 H 0.3762 0.0524 -0.1324
C23 C 0.1192(5) 0.1105(5) -0.0442(4)
C24 C 0.0528(5) 0.1264(5) 0.0340(4)
C25 C 0.3246(5) 0.4437(5) 0.3708(4)
C26 C 0.3329(5) 0.5171(6) 0.4308(3)
C27 C 0.4074(6) 0.5721(6) 0.4120(4)
H17 H 0.4483 0.5647 0.3612
C28 C 0.4210(7) 0.6369(7) 0.4674(5)
H18 H 0.4703 0.6729 0.4537
C29 C 0.3620(6) 0.6487(6) 0.5432(4)
H19 H 0.3731 0.6907 0.5808
C30 C 0.2860(5) 0.5974(6) 0.5627(4)
H20 H 0.2435 0.6080 0.6132
C31 C 0.2724(5) 0.5305(5) 0.5082(4)
C32 C 0.1934(6) 0.4722(6) 0.5303(4)
C33 C 0.2989(5) 0.1212(5) 0.3938(4)
C34 C 0.3966(5) 0.0074(5) 0.3713(3)
C35 C 0.4518(5) -0.0513(5) 0.4296(4)
H21 H 0.4278 -0.0190 0.4802
C36 C 0.5422(6) -0.1573(6) 0.4132(4)
H22 H 0.5805 -0.1953 0.4519
C37 C 0.5738(6) -0.2051(6) 0.3384(4)
H23 H 0.6342 -0.2761 0.3268
C38 C 0.5184(5) -0.1504(5) 0.2809(4)
H24 H 0.5403 -0.1856 0.2312
C39 C 0.4300(5) -0.0430(5) 0.2956(3)
C40 C 0.3793(5) 0.0131(5) 0.2274(3)
C41 C 0.0333(6) 0.3976(5) 0.2894(4)
C42 C -0.0288(5) 0.4387(6) 0.2232(3)
C43 C -0.1439(6) 0.5151(6) 0.2407(4)
H25 H -0.1812 0.5366 0.2923
C44 C -0.2049(7) 0.5606(7) 0.1814(5)
H26 H -0.2824 0.6126 0.1938
C45 C -0.1514(7) 0.5293(8) 0.1049(4)
H27 H -0.1910 0.5624 0.0655
C46 C -0.0383(6) 0.4484(7) 0.0871(4)
H28 H -0.0038 0.4233 0.0355
C47 C 0.0249(5) 0.4039(5) 0.1451(3)
C48 C 0.1450(5) 0.3125(6) 0.1209(4)
C49 C 0.3831(5) 0.3373(6) 0.0808(4)
C50 C 0.4216(5) 0.3640(6) -0.0005(3)
C51 C 0.3876(6) 0.4735(6) -0.0189(4)
H29 H 0.3362 0.5307 0.0179
C52 C 0.4291(7) 0.4999(7) -0.0921(4)
H30 H 0.4032 0.5740 -0.1047
C53 C 0.5085(7) 0.4155(7) -0.1455(4)
H31 H 0.5388 0.4327 -0.1937
C54 C 0.5429(6) 0.3068(6) -0.1280(4)
H32 H 0.5967 0.2507 -0.1648
C55 C 0.4994(5) 0.2769(5) -0.0558(3)
N5 N 0.5824(5) 0.2038(6) 0.2723(4)
O19 O 0.6799(5) 0.1754(6) 0.2880(3)
C56 C 0.5445(6) 0.1555(6) -0.0422(3)
Pr2A Pr -0.10440(3) 0.66226(3) 0.55195(2)
Pr3A Pr 0.67005(3) -0.09447(3) -0.069657(19)
O12A O -0.0931(3) 0.4858(4) 0.4912(2)
O15A O 0.3503(4) -0.1017(4) 0.0380(2)
O18A O 0.5215(3) -0.1011(3) 0.0434(2)
O20 O -0.2404(19) -0.0572(19) 0.3726(9)
loop_
_geom_bond_atom_site_label_1
_geom_bond_atom_site_label_2
_geom_bond_site_symmetry_1
_geom_bond_site_symmetry_2
Pr1 O1 1_555 1_555
Pr2 O1 1_555 1_555
Pr3 O3 1_555 1_555
O1 C25 1_555 1_555
O2 Pr1 1_555 1_555
O3 Pr1 1_555 1_555
O4 Pr1 1_555 1_555
O5 Pr1 1_555 1_555
O6 Pr1 1_555 1_555
O7 Pr1 1_555 1_555
O8 Pr1 1_555 1_555
O9 Pr1 1_555 1_555
O10 Pr1 1_555 1_555
O11 Pr2 1_555 1_555
O12 Pr2 1_555 1_555
O13 Pr2 1_555 1_555
O14 C32 1_555 1_555
O15 C56 1_555 1_555
O16 Pr3 1_555 1_555
O17 Pr3 1_555 1_555
O18 Pr3 1_555 1_555
N1 Pr2 1_555 1_555
N2 Pr2 1_555 1_555
C1 N1 1_555 1_555
H1 C1 1_555 1_555
C2 C1 1_555 1_555
H2 C2 1_555 1_555
C3 C2 1_555 1_555
H3 C3 1_555 1_555
C4 C3 1_555 1_555
C5 C4 1_555 1_555
H4 C5 1_555 1_555
C6 C5 1_555 1_555
H5 C6 1_555 1_555
C7 C6 1_555 1_555
C8 C7 1_555 1_555
H6 C8 1_555 1_555
C9 C8 1_555 1_555
H7 C9 1_555 1_555
C10 N2 1_555 1_555
H8 C10 1_555 1_555
C11 N2 1_555 1_555
C12 N1 1_555 1_555
N3 Pr3 1_555 1_555
N4 Pr3 1_555 1_555
C13 N3 1_555 1_555
H9 C13 1_555 1_555
C14 C13 1_555 1_555
H10 C14 1_555 1_555
C15 C14 1_555 1_555
H11 C15 1_555 1_555
C16 C15 1_555 1_555
C17 C16 1_555 1_555
H12 C17 1_555 1_555
C18 C17 1_555 1_555
H13 C18 1_555 1_555
C19 C18 1_555 1_555
C20 C19 1_555 1_555
H14 C20 1_555 1_555
C21 C20 1_555 1_555
H15 C21 1_555 1_555
C22 N4 1_555 1_555
H16 C22 1_555 1_555
C23 N4 1_555 1_555
C24 N3 1_555 1_555
C25 O2 1_555 1_555
C26 C25 1_555 1_555
C27 C26 1_555 1_555
H17 C27 1_555 1_555
C28 C27 1_555 1_555
H18 C28 1_555 1_555
C29 C28 1_555 1_555
H19 C29 1_555 1_555
C30 C29 1_555 1_555
H20 C30 1_555 1_555
C31 C26 1_555 1_555
C32 O12 1_555 1_555
C33 O7 1_555 1_555
C34 C33 1_555 1_555
C35 C34 1_555 1_555
H21 C35 1_555 1_555
C36 C35 1_555 1_555
H22 C36 1_555 1_555
C37 C36 1_555 1_555
H23 C37 1_555 1_555
C38 C37 1_555 1_555
H24 C38 1_555 1_555
C39 C34 1_555 1_555
C40 O6 1_555 1_555
C41 O4 1_555 1_555
C42 C41 1_555 1_555
C43 C42 1_555 1_555
H25 C43 1_555 1_555
C44 C43 1_555 1_555
H26 C44 1_555 1_555
C45 C44 1_555 1_555
H27 C45 1_555 1_555
C46 C45 1_555 1_555
H28 C46 1_555 1_555
C47 C42 1_555 1_555
C48 O5 1_555 1_555
C49 O3 1_555 1_555
C50 C49 1_555 1_555
C51 C50 1_555 1_555
H29 C51 1_555 1_555
C52 C51 1_555 1_555
H30 C52 1_555 1_555
C53 C52 1_555 1_555
H31 C53 1_555 1_555
C54 C53 1_555 1_555
H32 C54 1_555 1_555
C55 C50 1_555 1_555
N5 O9 1_555 1_555
O19 N5 1_555 1_555
C56 O18 1_555 1_555
Pr2A O12 1_555 1_555
Pr3A O15 1_555 1_555
O12A Pr2 1_555 1_555
O15A Pr3 1_555 1_555
O18A Pr3 1_555 1_555
Pr2 O7 1_555 1_555
Pr3 O5 1_555 1_555
Pr3 O6 1_555 1_555
O8 C49 1_555 1_555
O10 N5 1_555 1_555
O11 C33 1_555 1_555
O13 C41 1_555 1_555
O16 C48 1_555 1_555
O17 C40 1_555 1_555
O18 Pr3A 1_555 1_555
C4 C12 1_555 1_555
C7 C11 1_555 1_555
C9 C10 1_555 1_555
C11 C12 1_555 1_555
C16 C24 1_555 1_555
C19 C23 1_555 1_555
C21 C22 1_555 1_555
C23 C24 1_555 1_555
C30 C31 1_555 1_555
C31 C32 1_555 1_555
C38 C39 1_555 1_555
C39 C40 1_555 1_555
C46 C47 1_555 1_555
C47 C48 1_555 1_555
C54 C55 1_555 1_555
C55 C56 1_555 1_555
Pr2A O12A 1_555 1_555
Pr3A O18A 1_555 1_555

#END
