
#######################################################################
#
#                 Cambridge Crystallographic Data Centre
#                                CCDC 
#
#######################################################################
#
# If this CIF has been generated from an entry in the Cambridge 
# Structural Database, then it will include bibliographic, chemical, 
# crystal, experimental, refinement or atomic coordinate data resulting 
# from the CCDC's data processing and validation procedures.
#
#######################################################################

data_LAXWAK
_symmetry_cell_setting           monoclinic
_symmetry_space_group_name_H-M   'P 21/c'
_symmetry_Int_Tables_number      14
_space_group_name_Hall           '-P 2ybc'
loop_
_symmetry_equiv_pos_site_id
_symmetry_equiv_pos_as_xyz
1 x,y,z
2 -x,1/2+y,1/2-z
3 -x,-y,-z
4 x,1/2-y,1/2+z
_cell_length_a                   12.3345(3)
_cell_length_b                   7.9271(1)
_cell_length_c                   16.0048(4)
_cell_angle_alpha                90
_cell_angle_beta                 110.5672(11)
_cell_angle_gamma                90
_cell_volume                     1465.15
loop_
_atom_site_label
_atom_site_type_symbol
_atom_site_fract_x
_atom_site_fract_y
_atom_site_fract_z
Ni1 Ni 0.173910(18) 0.18433(3) -0.131840(13)
S1 S 0.00945(4) 0.54590(6) -0.37946(3)
S2 S 0.55070(4) 0.37433(7) -0.12199(4)
N1 N 0.16577(12) 0.35729(17) -0.03685(9)
N2 N 0.25943(12) 0.06506(16) -0.01734(9)
N3 N 0.30508(14) -0.08698(19) -0.02885(10)
H1 H 0.3425(17) -0.149(3) 0.0144(12)
N4 N 0.08470(15) 0.3075(2) -0.24290(11)
N5 N 0.32869(14) 0.2737(2) -0.13386(11)
O1 O 0.21856(12) -0.04703(15) -0.17727(8)
C1 C 0.12030(15) 0.5116(2) -0.05098(13)
H2 H 0.0865 0.5497 -0.1094
C2 C 0.12158(17) 0.6177(2) 0.01855(14)
H3 H 0.0912 0.7261 0.0070
C3 C 0.16853(17) 0.5594(2) 0.10449(14)
H4 H 0.1683 0.6269 0.1520
C4 C 0.21633(16) 0.3989(2) 0.12005(12)
H5 H 0.2484 0.3574 0.1779
C5 C 0.21558(14) 0.3016(2) 0.04817(11)
C6 C 0.27048(15) 0.1319(2) 0.05793(11)
C7 C 0.3331(2) 0.0574(3) 0.14730(13)
H6 H 0.3536 -0.0572 0.1404
H7 H 0.2841 0.0600 0.1825
H8 H 0.4021 0.1214 0.1767
C8 C 0.28056(16) -0.1341(2) -0.11513(12)
C9 C 0.3333(3) -0.2953(3) -0.13030(17)
H9 H 0.2737 -0.3680 -0.1677
H10 H 0.3719 -0.3498 -0.0741
H11 H 0.3883 -0.2719 -0.1589
C10 C 0.42121(16) 0.3124(2) -0.12783(12)
C11 C 0.05152(15) 0.4074(2) -0.29840(11)
Ni1A Ni -0.173910(18) 0.68433(3) -0.368160(13)
S1A S -0.00945(4) 0.04590(6) -0.12054(3)
loop_
_geom_bond_atom_site_label_1
_geom_bond_atom_site_label_2
_geom_bond_site_symmetry_1
_geom_bond_site_symmetry_2
Ni1 N1 1_555 1_555
S1 C11 1_555 1_555
S2 C10 1_555 1_555
N1 C1 1_555 1_555
N2 Ni1 1_555 1_555
N3 N2 1_555 1_555
H1 N3 1_555 1_555
N4 Ni1 1_555 1_555
N5 Ni1 1_555 1_555
O1 Ni1 1_555 1_555
C1 H2 1_555 1_555
C2 C1 1_555 1_555
H3 C2 1_555 1_555
C3 C2 1_555 1_555
H4 C3 1_555 1_555
C4 C3 1_555 1_555
H5 C4 1_555 1_555
C5 N1 1_555 1_555
C6 N2 1_555 1_555
C7 C6 1_555 1_555
H6 C7 1_555 1_555
H7 C7 1_555 1_555
H8 C7 1_555 1_555
C8 N3 1_555 1_555
C9 C8 1_555 1_555
H9 C9 1_555 1_555
H10 C9 1_555 1_555
H11 C9 1_555 1_555
C10 N5 1_555 1_555
C11 N4 1_555 1_555
Ni1A S1 1_555 1_555
S1A Ni1 1_555 1_555
O1 C8 1_555 1_555
C4 C5 1_555 1_555
C5 C6 1_555 1_555

#END
