
#######################################################################
#
#                 Cambridge Crystallographic Data Centre
#                                CCDC 
#
#######################################################################
#
# If this CIF has been generated from an entry in the Cambridge 
# Structural Database, then it will include bibliographic, chemical, 
# crystal, experimental, refinement or atomic coordinate data resulting 
# from the CCDC's data processing and validation procedures.
#
#######################################################################

data_LAXXOZ
_symmetry_cell_setting           triclinic
_symmetry_space_group_name_H-M   'P -1'
_symmetry_Int_Tables_number      2
_space_group_name_Hall           '-P 1'
loop_
_symmetry_equiv_pos_site_id
_symmetry_equiv_pos_as_xyz
1 x,y,z
2 -x,-y,-z
_cell_length_a                   9.5228(2)
_cell_length_b                   11.2472(2)
_cell_length_c                   11.5323(2)
_cell_angle_alpha                117.1637(10)
_cell_angle_beta                 104.0758(9)
_cell_angle_gamma                100.5167(10)
_cell_volume                     1002.37
loop_
_atom_site_label
_atom_site_type_symbol
_atom_site_fract_x
_atom_site_fract_y
_atom_site_fract_z
Cd1 Cd 0.188926(17) 0.827494(16) 0.438716(15)
O1 O 0.02012(19) 0.62906(16) 0.24195(17)
C1 C -0.0322(2) 0.4989(2) 0.2065(2)
C2 C 0.0235(3) 0.4448(2) 0.2922(2)
C3 C -0.0388(3) 0.3005(3) 0.2412(3)
H1 H -0.0024 0.2674 0.2990
C4 C -0.1524(3) 0.2028(3) 0.1087(3)
C5 C -0.2073(3) 0.2549(2) 0.0260(2)
H2 H -0.2840 0.1924 -0.0625
C6 C -0.1510(2) 0.3987(2) 0.0713(2)
C7 C -0.2136(5) 0.0461(3) 0.0573(4)
H3 H -0.1530 0.0279 0.1230
H4 H -0.2075 -0.0090 -0.0329
H5 H -0.3189 0.0204 0.0491
C8 C 0.1489(3) 0.5293(3) 0.4304(2)
H6 H 0.1743 0.4802 0.4744
N1 N 0.2275(2) 0.6605(2) 0.49805(19)
C9 C 0.3570(3) 0.7114(3) 0.6282(3)
H7 H 0.3479 0.6390 0.6524
H8 H 0.3528 0.7958 0.7041
C10 C 0.5111(4) 0.7460(4) 0.6130(4)
H9 H 0.5214 0.8196 0.5904
H10 H 0.5940 0.7817 0.7013
O2 O 0.5223(3) 0.6226(3) 0.5050(4)
H11 H 0.607(5) 0.654(7) 0.490(8)
C11 C -0.2144(3) 0.4433(2) -0.0208(2)
H12 H -0.2882 0.3737 -0.1089
N2 N -0.1775(2) 0.5728(2) 0.0084(2)
H13 H -0.106(3) 0.637(3) 0.098(3)
C12 C -0.2492(3) 0.6165(3) -0.0854(3)
H14 H -0.2833 0.5390 -0.1820
H15 H -0.1738 0.6966 -0.0729
C13 C -0.3845(3) 0.6580(3) -0.0573(3)
H16 H -0.3518 0.7309 0.0410
H17 H -0.4215 0.6974 -0.1130
O3 O -0.5042(3) 0.5415(4) -0.0898(3)
H18 H -0.494(12) 0.470(7) -0.078(9)
S1 S 0.35063(9) 1.06899(8) 0.68401(7)
C14 C 0.5006(3) 1.1271(2) 0.6545(2)
N3 N 0.6063(2) 1.1727(2) 0.6375(2)
S2 S 0.10106(10) 0.94295(8) 0.27918(8)
C15 C 0.0418(3) 1.0576(3) 0.3877(3)
N4 N 0.0026(3) 1.1411(2) 0.4641(3)
Cd1A Cd 0.811074(17) 1.172506(16) 0.561284(15)
Cd1A_2 Cd -0.188926(17) 1.172506(16) 0.561284(15)
N3A N 0.3937(2) 0.8273(2) 0.3625(2)
N4A N -0.0026(3) 0.8589(2) 0.5359(3)
O4 O -0.7016(3) 0.3910(3) -0.3567(3)
H19 H -0.641(6) 0.393(7) -0.281(5)
H20 H -0.785(4) 0.312(4) -0.394(6)
loop_
_geom_bond_atom_site_label_1
_geom_bond_atom_site_label_2
_geom_bond_site_symmetry_1
_geom_bond_site_symmetry_2
Cd1 O1 1_555 1_555
O1 C1 1_555 1_555
C1 C2 1_555 1_555
C2 C3 1_555 1_555
C3 H1 1_555 1_555
C4 C3 1_555 1_555
C5 C4 1_555 1_555
H2 C5 1_555 1_555
C6 C1 1_555 1_555
C7 C4 1_555 1_555
H3 C7 1_555 1_555
H4 C7 1_555 1_555
H5 C7 1_555 1_555
C8 C2 1_555 1_555
H6 C8 1_555 1_555
N1 Cd1 1_555 1_555
C9 N1 1_555 1_555
H7 C9 1_555 1_555
H8 C9 1_555 1_555
C10 C9 1_555 1_555
H9 C10 1_555 1_555
H10 C10 1_555 1_555
O2 C10 1_555 1_555
H11 O2 1_555 1_555
C11 C6 1_555 1_555
H12 C11 1_555 1_555
N2 C11 1_555 1_555
H13 N2 1_555 1_555
C12 N2 1_555 1_555
H14 C12 1_555 1_555
H15 C12 1_555 1_555
C13 C12 1_555 1_555
H16 C13 1_555 1_555
H17 C13 1_555 1_555
O3 C13 1_555 1_555
H18 O3 1_555 1_555
S1 Cd1 1_555 1_555
C14 S1 1_555 1_555
N3 C14 1_555 1_555
S2 Cd1 1_555 1_555
C15 S2 1_555 1_555
N4 C15 1_555 1_555
O4 H19 1_555 1_555
H20 O4 1_555 1_555
Cd1A N3 1_555 1_555
Cd1A_2 N4 1_555 1_555
N3A Cd1 1_555 1_555
N4A Cd1 1_555 1_555
C5 C6 1_555 1_555
C8 N1 1_555 1_555

#END
