
#######################################################################
#
#                 Cambridge Crystallographic Data Centre
#                                CCDC 
#
#######################################################################
#
# If this CIF has been generated from an entry in the Cambridge 
# Structural Database, then it will include bibliographic, chemical, 
# crystal, experimental, refinement or atomic coordinate data resulting 
# from the CCDC's data processing and validation procedures.
#
#######################################################################

data_LAYFUO
_symmetry_cell_setting           triclinic
_symmetry_space_group_name_H-M   'P -1'
_symmetry_Int_Tables_number      2
_space_group_name_Hall           '-P 1'
loop_
_symmetry_equiv_pos_site_id
_symmetry_equiv_pos_as_xyz
1 x,y,z
2 -x,-y,-z
_cell_length_a                   11.825(2)
_cell_length_b                   12.158(2)
_cell_length_c                   12.764(3)
_cell_angle_alpha                68.57(3)
_cell_angle_beta                 81.97(3)
_cell_angle_gamma                67.12(3)
_cell_volume                     1573.79
loop_
_atom_site_label
_atom_site_type_symbol
_atom_site_fract_x
_atom_site_fract_y
_atom_site_fract_z
Co1 Co 0.26249(6) 0.12335(6) 0.39460(5)
N1 N 0.2998(3) 0.1553(3) 0.5298(3)
N2 N 0.3185(3) 0.2415(3) 0.6481(3)
N3 N -0.0805(3) 0.8032(3) 0.6335(3)
N4 N 0.1089(3) 0.6643(4) 0.6701(3)
O1 O 0.3161(3) -0.0618(3) 0.4702(3)
O2 O 0.2657(4) -0.0720(4) 0.3166(4)
O3 O 0.3786(3) 0.1636(3) 0.2717(3)
O4 O 0.2528(3) 0.3481(3) 0.2832(3)
C1 C 0.3170(5) -0.1235(5) 0.4091(5)
C2 C 0.3871(5) -0.2650(5) 0.4530(5)
C3 C 0.4690(5) -0.3158(5) 0.5463(6)
H1 H 0.4727 -0.2591 0.5774
C4 C 0.5418(6) -0.4400(7) 0.5930(6)
H2 H 0.5919 -0.4675 0.6546
C5 C 0.5380(5) -0.5212(5) 0.5460(4)
C6 C 0.3846(6) -0.3467(5) 0.4083(6)
H3 H 0.3331 -0.3190 0.3477
C7 C 0.3444(5) 0.2829(5) 0.2415(4)
C8 C 0.4189(4) 0.3469(4) 0.1534(4)
C9 C 0.5363(4) 0.2742(5) 0.1241(4)
H4 H 0.5672 0.1866 0.1598
C10 C 0.6049(4) 0.3301(4) 0.0446(4)
H5 H 0.6828 0.2811 0.0274
C11 C 0.5578(4) 0.4629(4) -0.0119(3)
C12 C 0.3740(4) 0.4745(5) 0.0984(4)
H6 H 0.2967 0.5229 0.1175
C13 C 0.2705(4) 0.2625(4) 0.5490(4)
H7 H 0.2232 0.3420 0.5010
C14 C 0.3693(5) 0.0633(5) 0.6180(4)
H8 H 0.4024 -0.0227 0.6272
C15 C 0.3839(5) 0.1140(5) 0.6915(5)
H9 H 0.4292 0.0707 0.7579
C16 C 0.3065(4) 0.3367(4) 0.6936(4)
C17 C 0.3910(4) 0.3086(5) 0.7736(4)
H10 H 0.4519 0.2282 0.7987
C18 C 0.2147(4) 0.4533(4) 0.6577(4)
H11 H 0.1588 0.4719 0.6035
C19 C -0.0039(5) 0.8668(5) 0.6257(5)
H12 H -0.0284 0.9541 0.6081
C20 C 0.1115(5) 0.7833(5) 0.6475(5)
H13 H 0.1807 0.8021 0.6475
C21 C -0.0096(4) 0.6824(4) 0.6595(4)
H14 H -0.0377 0.6177 0.6693
C22 C 0.2062(4) 0.5437(4) 0.7038(4)
C23 C 0.2926(5) 0.5177(5) 0.7817(5)
H15 H 0.2881 0.5794 0.8105
C24 C 0.3844(5) 0.4001(6) 0.8157(5)
H16 H 0.4425 0.3821 0.8676
Co1A Co -0.26249(6) 0.87665(6) 0.60540(5)
Co1A_2 Co 0.73751(6) -1.12335(6) 0.60540(5)
Co1A_3 Co 0.73751(6) 0.87665(6) -0.39460(5)
N1A N -0.2998(3) 0.8447(3) 0.4702(3)
N2A N -0.3185(3) 0.7585(3) 0.3519(3)
N3A N 0.0805(3) 0.1968(3) 0.3665(3)
N4A N -0.1089(3) 0.3357(4) 0.3299(3)
O1A O 0.6839(3) -0.9382(3) 0.5298(3)
O1A_2 O -0.3161(3) 1.0618(3) 0.5298(3)
O2A O 0.7343(4) -0.9280(4) 0.6834(4)
O3A O 0.6214(3) 0.8364(3) -0.2717(3)
O3A_2 O -0.3786(3) 0.8364(3) 0.7283(3)
O4A O 0.7472(3) 0.6519(3) -0.2832(3)
C1A C 0.6830(5) -0.8765(5) 0.5909(5)
C2A C 0.6129(5) -0.7350(5) 0.5470(5)
C3A C 0.5310(5) -0.6842(5) 0.4537(6)
H1A H 0.5273 -0.7409 0.4226
C4A C 0.4582(6) -0.5600(7) 0.4070(6)
H2A H 0.4081 -0.5325 0.3454
C5A C 0.4620(5) -0.4788(5) 0.4540(4)
C6A C 0.6154(6) -0.6533(5) 0.5917(6)
H3A H 0.6669 -0.6810 0.6523
C7A C 0.6556(5) 0.7171(5) -0.2415(4)
C8A C 0.5811(4) 0.6531(4) -0.1534(4)
C9A C 0.4637(4) 0.7258(5) -0.1241(4)
H4A H 0.4328 0.8134 -0.1598
C10A C 0.3951(4) 0.6699(4) -0.0446(4)
H5A H 0.3172 0.7189 -0.0274
C11A C 0.4422(4) 0.5371(4) 0.0119(3)
C12A C 0.6260(4) 0.5255(5) -0.0984(4)
H6A H 0.7033 0.4771 -0.1175
C13A C -0.2705(4) 0.7375(4) 0.4510(4)
H7A H -0.2232 0.6580 0.4990
C14A C -0.3693(5) 0.9367(5) 0.3820(4)
H8A H -0.4024 1.0227 0.3728
C15A C -0.3839(5) 0.8860(5) 0.3085(5)
H9A H -0.4292 0.9293 0.2421
C16A C -0.3065(4) 0.6633(4) 0.3064(4)
C17A C -0.3910(4) 0.6914(5) 0.2264(4)
H10A H -0.4519 0.7718 0.2013
C18A C -0.2147(4) 0.5467(4) 0.3423(4)
H11A H -0.1588 0.5281 0.3965
C19A C 0.0039(5) 0.1332(5) 0.3743(5)
H12A H 0.0284 0.0459 0.3919
C20A C -0.1115(5) 0.2167(5) 0.3525(5)
H13A H -0.1807 0.1979 0.3525
C21A C 0.0096(4) 0.3176(4) 0.3405(4)
H14A H 0.0377 0.3823 0.3307
C22A C -0.2062(4) 0.4563(4) 0.2962(4)
C23A C -0.2926(5) 0.4823(5) 0.2183(5)
H15A H -0.2881 0.4206 0.1895
C24A C -0.3844(5) 0.5999(6) 0.1843(5)
H16A H -0.4425 0.6179 0.1324
loop_
_geom_bond_atom_site_label_1
_geom_bond_atom_site_label_2
_geom_bond_site_symmetry_1
_geom_bond_site_symmetry_2
Co1 N1 1_555 1_555
N1 C13 1_555 1_555
N2 C13 1_555 1_555
N3 C19 1_555 1_555
N4 C20 1_555 1_555
O1 Co1 1_555 1_555
O2 C1 1_555 1_555
O3 Co1 1_555 1_555
O4 C7 1_555 1_555
C1 O1 1_555 1_555
C2 C1 1_555 1_555
C3 C2 1_555 1_555
H1 C3 1_555 1_555
C4 C3 1_555 1_555
H2 C4 1_555 1_555
C5 C4 1_555 1_555
C6 C2 1_555 1_555
H3 C6 1_555 1_555
C7 O3 1_555 1_555
C8 C7 1_555 1_555
C9 C8 1_555 1_555
H4 C9 1_555 1_555
C10 C9 1_555 1_555
H5 C10 1_555 1_555
C11 C10 1_555 1_555
C12 C8 1_555 1_555
H6 C12 1_555 1_555
C13 H7 1_555 1_555
C14 N1 1_555 1_555
H8 C14 1_555 1_555
C15 N2 1_555 1_555
H9 C15 1_555 1_555
C16 N2 1_555 1_555
C17 C16 1_555 1_555
H10 C17 1_555 1_555
C18 C16 1_555 1_555
H11 C18 1_555 1_555
C19 H12 1_555 1_555
C20 C19 1_555 1_555
H13 C20 1_555 1_555
C21 N3 1_555 1_555
H14 C21 1_555 1_555
C22 N4 1_555 1_555
C23 C22 1_555 1_555
H15 C23 1_555 1_555
C24 C17 1_555 1_555
H16 C24 1_555 1_555
Co1A N3 1_555 1_555
Co1A_2 O1A 1_555 1_555
Co1A_3 O3A 1_555 1_555
N1A Co1A 1_555 1_555
N2A C13A 1_555 1_555
N3A Co1 1_555 1_555
N4A C20A 1_555 1_555
O1A C1A 1_555 1_555
O1A_2 Co1A 1_555 1_555
O2A C1A 1_555 1_555
O3A C7A 1_555 1_555
O3A_2 Co1A 1_555 1_555
O4A C7A 1_555 1_555
C1A C2A 1_555 1_555
C2A C3A 1_555 1_555
C3A H1A 1_555 1_555
C4A C3A 1_555 1_555
H2A C4A 1_555 1_555
C5A C5 1_555 1_555
C6A C5 1_555 1_555
H3A C6A 1_555 1_555
C7A C8A 1_555 1_555
C8A C9A 1_555 1_555
C9A H4A 1_555 1_555
C10A C9A 1_555 1_555
H5A C10A 1_555 1_555
C11A C11 1_555 1_555
C12A C11 1_555 1_555
H6A C12A 1_555 1_555
C13A N1A 1_555 1_555
H7A C13A 1_555 1_555
C14A N1A 1_555 1_555
H8A C14A 1_555 1_555
C15A N2A 1_555 1_555
H9A C15A 1_555 1_555
C16A N2A 1_555 1_555
C17A C16A 1_555 1_555
H10A C17A 1_555 1_555
C18A C16A 1_555 1_555
H11A C18A 1_555 1_555
C19A N3A 1_555 1_555
H12A C19A 1_555 1_555
C20A C19A 1_555 1_555
H13A C20A 1_555 1_555
C21A N3A 1_555 1_555
H14A C21A 1_555 1_555
C22A N4A 1_555 1_555
C23A C22A 1_555 1_555
H15A C23A 1_555 1_555
C24A C17A 1_555 1_555
H16A C24A 1_555 1_555
N4 C21 1_555 1_555
C6 C5A 1_555 1_555
C12 C11A 1_555 1_555
C14 C15 1_555 1_555
C18 C22 1_555 1_555
C23 C24 1_555 1_555
N4A C21A 1_555 1_555
C2A C6A 1_555 1_555
C4A C5A 1_555 1_555
C8A C12A 1_555 1_555
C10A C11A 1_555 1_555
C14A C15A 1_555 1_555
C18A C22A 1_555 1_555
C23A C24A 1_555 1_555

#END
