
#######################################################################
#
#                 Cambridge Crystallographic Data Centre
#                                CCDC 
#
#######################################################################
#
# If this CIF has been generated from an entry in the Cambridge 
# Structural Database, then it will include bibliographic, chemical, 
# crystal, experimental, refinement or atomic coordinate data resulting 
# from the CCDC's data processing and validation procedures.
#
#######################################################################

data_LAYFOI
_symmetry_cell_setting           monoclinic
_symmetry_space_group_name_H-M   'C 2/c'
_symmetry_Int_Tables_number      15
_space_group_name_Hall           '-C 2yn'
loop_
_symmetry_equiv_pos_site_id
_symmetry_equiv_pos_as_xyz
1 x,y,z
2 -x,y,1/2-z
3 1/2+x,1/2+y,z
4 1/2-x,1/2+y,1/2-z
5 -x,-y,-z
6 x,-y,1/2+z
7 1/2-x,1/2-y,-z
8 1/2+x,1/2-y,1/2+z
_cell_length_a                   21.745(5)
_cell_length_b                   14.720(6)
_cell_length_c                   15.091(3)
_cell_angle_alpha                90
_cell_angle_beta                 119.52(3)
_cell_angle_gamma                90
_cell_volume                     4203.36
loop_
_atom_site_label
_atom_site_type_symbol
_atom_site_fract_x
_atom_site_fract_y
_atom_site_fract_z
Co1 Co 0.23872(3) 0.25874(5) 0.63243(4)
N1 N 0.18871(17) 0.1294(3) 0.6004(3)
N2 N 0.11623(16) 0.0148(3) 0.5172(3)
N3 N -0.12342(16) 0.0117(3) 0.2284(3)
N4 N -0.20568(17) 0.1177(3) 0.1568(3)
O1 O 0.30165(17) 0.2286(3) 0.8026(2)
O2 O 0.19677(17) 0.2906(3) 0.7315(2)
O3 O 0.15075(13) 0.3038(2) 0.5075(2)
O4 O 0.19297(14) 0.3041(2) 0.4005(2)
C1 C 0.2497(3) 0.2581(4) 0.8080(4)
C2 C 0.2498(2) 0.2544(4) 0.9077(3)
C3 C 0.1965(2) 0.2941(3) 0.9175(3)
H1 H 0.1602 0.3244 0.8625
C4 C 0.3036(2) 0.2106(3) 0.9905(4)
H2 H 0.3402 0.1840 0.9848
C5 C 0.1435(2) 0.3055(3) 0.4219(3)
C6 C 0.06861(18) 0.3092(3) 0.3306(3)
C7 C 0.01166(19) 0.3101(3) 0.3492(3)
H3 H 0.0196 0.3104 0.4157
C8 C 0.05652(19) 0.3105(3) 0.2321(3)
H4 H 0.0946 0.3116 0.2201
C9 C 0.1260(2) 0.1051(4) 0.5231(4)
H5 H 0.0927 0.1462 0.4783
C10 C 0.0553(2) -0.0334(4) 0.4455(3)
C11 C -0.00216(19) 0.0132(3) 0.3696(3)
H6 H -0.0005 0.0758 0.3631
C12 C -0.0623(2) -0.0358(3) 0.3034(3)
C13 C -0.1788(2) -0.0254(4) 0.1405(4)
H7 H -0.1814 -0.0839 0.1155
C14 C -0.0646(2) -0.1292(4) 0.3104(4)
H8 H -0.1048 -0.1615 0.2655
C15 C -0.0060(3) -0.1738(4) 0.3855(4)
H9 H -0.0066 -0.2367 0.3906
C16 C 0.0534(2) -0.1258(4) 0.4530(4)
H10 H 0.0923 -0.1564 0.5036
C17 C 0.1785(2) -0.0207(4) 0.5949(4)
H11 H 0.1888 -0.0819 0.6101
C18 C 0.2209(2) 0.0483(4) 0.6438(4)
H12 H 0.2660 0.0427 0.6995
C19 C -0.1428(2) 0.0967(4) 0.2351(3)
H13 H -0.1155 0.1363 0.2881
C20 C -0.2275(2) 0.0398(4) 0.0995(4)
H14 H -0.2706 0.0333 0.0399
Co1G Co 0.73872(3) 0.24126(5) 1.13243(4)
Co1G_2 Co -0.26128(3) 0.24126(5) 0.13243(4)
Co1F Co 0.26128(3) 0.24126(5) 0.36757(4)
Co1F_2 Co 0.26128(3) 0.24126(5) 1.36757(4)
Co1A Co -0.23872(3) 0.25874(5) -0.13243(4)
N1G N 0.68871(17) 0.3706(3) 1.1004(3)
N1G_2 N -0.31129(17) 0.3706(3) 0.1004(3)
N2G N 0.61623(16) 0.4852(3) 1.0172(3)
N3G N 0.37658(16) 0.4883(3) 0.7284(3)
N4G N 0.29432(17) 0.3823(3) 0.6568(3)
O1F O 0.19835(17) 0.2714(3) 1.1974(2)
O1G O -0.19835(17) 0.2714(3) 0.3026(2)
O2F O 0.30323(17) 0.2094(3) 1.2685(2)
O2G O -0.30323(17) 0.2094(3) 0.2315(2)
O3A O -0.15075(13) 0.3038(2) -0.0075(2)
O3G O -0.34925(13) 0.1962(2) 0.0075(2)
O4A O -0.19297(14) 0.3041(2) 0.0995(2)
O4F O 0.30703(14) 0.1959(2) 0.5995(2)
C1F C 0.2503(3) 0.2419(4) 1.1920(4)
C2F C 0.2502(2) 0.2456(4) 1.0923(3)
C3F C 0.3035(2) 0.2059(3) 1.0825(3)
H1F H 0.3398 0.1756 1.1375
C4F C 0.1964(2) 0.2894(3) 1.0095(4)
H2F H 0.1598 0.3160 1.0152
C5A C -0.1435(2) 0.3055(3) 0.0781(3)
C6A C -0.06861(18) 0.3092(3) 0.1694(3)
C7A C -0.01166(19) 0.3101(3) 0.1508(3)
H3A H -0.0196 0.3104 0.0843
C8A C -0.05652(19) 0.3105(3) 0.2679(3)
H4A H -0.0946 0.3116 0.2799
C9G C 0.6260(2) 0.3949(4) 1.0231(4)
H5G H 0.5927 0.3538 0.9783
C10G C 0.5553(2) 0.5334(4) 0.9455(3)
C11G C 0.49784(19) 0.4868(3) 0.8696(3)
H6G H 0.4995 0.4242 0.8631
C12G C 0.4377(2) 0.5358(3) 0.8034(3)
C13G C 0.3212(2) 0.5254(4) 0.6405(4)
H7G H 0.3186 0.5839 0.6155
C14G C 0.4354(2) 0.6292(4) 0.8104(4)
H8G H 0.3952 0.6615 0.7655
C15G C 0.4940(3) 0.6738(4) 0.8855(4)
H9G H 0.4934 0.7367 0.8906
C16G C 0.5534(2) 0.6258(4) 0.9530(4)
H10G H 0.5923 0.6564 1.0036
C17G C 0.6785(2) 0.5207(4) 1.0949(4)
H11G H 0.6888 0.5819 1.1101
C18G C 0.7209(2) 0.4517(4) 1.1438(4)
H12G H 0.7660 0.4573 1.1995
C19G C 0.3572(2) 0.4033(4) 0.7351(3)
H13G H 0.3845 0.3637 0.7881
C20G C 0.2725(2) 0.4602(4) 0.5995(4)
H14G H 0.2294 0.4667 0.5399
loop_
_geom_bond_atom_site_label_1
_geom_bond_atom_site_label_2
_geom_bond_site_symmetry_1
_geom_bond_site_symmetry_2
Co1 N1 1_555 1_555
N1 C9 1_555 1_555
N2 C9 1_555 1_555
N3 C12 1_555 1_555
N4 C19 1_555 1_555
O1 Co1 1_555 1_555
O2 Co1 1_555 1_555
O3 Co1 1_555 1_555
O4 C5 1_555 1_555
C1 O1 1_555 1_555
C2 C1 1_555 1_555
C3 C2 1_555 1_555
H1 C3 1_555 1_555
C4 C2 1_555 1_555
H2 C4 1_555 1_555
C5 O3 1_555 1_555
C6 C5 1_555 1_555
C7 C6 1_555 1_555
H3 C7 1_555 1_555
C8 C6 1_555 1_555
H4 C8 1_555 1_555
C9 H5 1_555 1_555
C10 N2 1_555 1_555
C11 C10 1_555 1_555
H6 C11 1_555 1_555
C12 C11 1_555 1_555
C13 N3 1_555 1_555
H7 C13 1_555 1_555
C14 C12 1_555 1_555
H8 C14 1_555 1_555
C15 C14 1_555 1_555
H9 C15 1_555 1_555
C16 C10 1_555 1_555
H10 C16 1_555 1_555
C17 N2 1_555 1_555
H11 C17 1_555 1_555
C18 N1 1_555 1_555
H12 C18 1_555 1_555
C19 N3 1_555 1_555
H13 C19 1_555 1_555
C20 N4 1_555 1_555
H14 C20 1_555 1_555
Co1G N1G 1_555 1_555
Co1G_2 N4 1_555 1_555
Co1F O4 1_555 1_555
Co1F_2 O1F 1_555 1_555
Co1A O3A 1_555 1_555
N1G C9G 1_555 1_555
N1G_2 Co1G_2 1_555 1_555
N2G C9G 1_555 1_555
N3G C12G 1_555 1_555
N4G Co1 1_555 1_555
O1F C1F 1_555 1_555
O1G Co1G_2 1_555 1_555
O2F Co1F_2 1_555 1_555
O2G Co1G_2 1_555 1_555
O3A C5A 1_555 1_555
O3G Co1G_2 1_555 1_555
O4A Co1G_2 1_555 1_555
O4F Co1 1_555 1_555
C1F O2F 1_555 1_555
C2F C1F 1_555 1_555
C3F C4 1_555 1_555
H1F C3F 1_555 1_555
C4F C3 1_555 1_555
H2F C4F 1_555 1_555
C5A O4A 1_555 1_555
C6A C5A 1_555 1_555
C7A C8 1_555 1_555
H3A C7A 1_555 1_555
C8A C7 1_555 1_555
H4A C8A 1_555 1_555
C9G H5G 1_555 1_555
C10G N2G 1_555 1_555
C11G C10G 1_555 1_555
H6G C11G 1_555 1_555
C12G C11G 1_555 1_555
C13G N3G 1_555 1_555
H7G C13G 1_555 1_555
C14G C12G 1_555 1_555
H8G C14G 1_555 1_555
C15G C14G 1_555 1_555
H9G C15G 1_555 1_555
C16G C10G 1_555 1_555
H10G C16G 1_555 1_555
C17G N2G 1_555 1_555
H11G C17G 1_555 1_555
C18G N1G 1_555 1_555
H12G C18G 1_555 1_555
C19G N3G 1_555 1_555
H13G C19G 1_555 1_555
C20G N4G 1_555 1_555
H14G C20G 1_555 1_555
O2 C1 1_555 1_555
C13 C20 1_555 1_555
C15 C16 1_555 1_555
C17 C18 1_555 1_555
N4G C19G 1_555 1_555
C2F C3F 1_555 1_555
C2F C4F 1_555 1_555
C6A C7A 1_555 1_555
C6A C8A 1_555 1_555
C13G C20G 1_555 1_555
C15G C16G 1_555 1_555
C17G C18G 1_555 1_555

#END
