
#######################################################################
#
#                 Cambridge Crystallographic Data Centre
#                                CCDC 
#
#######################################################################
#
# If this CIF has been generated from an entry in the Cambridge 
# Structural Database, then it will include bibliographic, chemical, 
# crystal, experimental, refinement or atomic coordinate data resulting 
# from the CCDC's data processing and validation procedures.
#
#######################################################################

data_LAYHIE
_symmetry_cell_setting           monoclinic
_symmetry_space_group_name_H-M   'P 21/c'
_symmetry_Int_Tables_number      14
_space_group_name_Hall           '-P 2ybc'
loop_
_symmetry_equiv_pos_site_id
_symmetry_equiv_pos_as_xyz
1 x,y,z
2 -x,1/2+y,1/2-z
3 -x,-y,-z
4 x,1/2-y,1/2+z
_cell_length_a                   10.7687(13)
_cell_length_b                   8.4798(10)
_cell_length_c                   28.658(4)
_cell_angle_alpha                90
_cell_angle_beta                 92.166(2)
_cell_angle_gamma                90
_cell_volume                     2615.08
loop_
_atom_site_label
_atom_site_type_symbol
_atom_site_fract_x
_atom_site_fract_y
_atom_site_fract_z
Ag1 Ag 0.84221(5) 0.96511(6) 0.125930(16)
Ag2 Ag 0.92045(6) -0.00828(7) -0.058066(17)
S1 S 0.59395(17) 1.2860(2) 0.10451(6)
S2 S 1.09110(17) 0.6121(2) 0.15955(6)
F1 F 0.5978(10) 1.4939(10) 0.1706(4)
F2 F 0.7703(8) 1.4562(12) 0.1422(3)
F3 F 0.6845(9) 1.2986(12) 0.1886(2)
F4 F 1.2235(8) 0.8159(8) 0.2053(3)
F5 F 1.2840(7) 0.7736(9) 0.1392(3)
F6 F 1.3165(6) 0.6035(8) 0.1926(3)
O1 O 0.6829(8) 1.1720(11) 0.0956(3)
O2 O 0.5867(10) 1.3926(13) 0.0674(3)
O3 O 0.4822(6) 1.2313(11) 0.1206(2)
O4 O 1.1210(7) 0.4971(6) 0.12577(19)
O5 O 1.0532(6) 0.5476(8) 0.20231(19)
O6 O 1.0183(5) 0.7395(7) 0.1407(2)
N1 N 0.8912(5) 0.2005(7) -0.01577(17)
N2 N 0.9460(5) 0.2101(7) 0.02861(17)
N3 N 0.8510(5) 0.4322(6) 0.01217(16)
N4 N 0.7977(5) 0.8289(6) 0.05805(16)
N5 N 1.0095(5) 1.1071(6) 0.15566(17)
N6 N 1.1096(5) 1.1155(6) 0.12728(16)
N7 N 1.1696(4) 1.1941(6) 0.19692(15)
N8 N 1.2591(5) 1.3760(7) 0.30930(17)
C1 C 0.8362(7) 0.3321(9) -0.0241(2)
H1 H 0.7917 0.3555 -0.0517
C2 C 0.9201(7) 0.3498(8) 0.0441(2)
H2 H 0.9458 0.3881 0.0733
C3 C 0.8046(6) 0.5901(7) 0.01546(19)
C4 C 0.8371(6) 0.6808(7) 0.05341(19)
H3 H 0.8886 0.6377 0.0769
C5 C 0.7271(7) 0.8925(9) 0.0238(2)
H4 H 0.7011 0.9966 0.0263
C6 C 0.6922(8) 0.8071(10) -0.0152(3)
H5 H 0.6412 0.8528 -0.0384
C7 C 0.7324(8) 0.6537(9) -0.0202(2)
H6 H 0.7113 0.5955 -0.0469
C8 C 1.0479(6) 1.1542(8) 0.1969(2)
H7 H 0.9985 1.1597 0.2228
C9 C 1.2043(6) 1.1680(7) 0.15265(19)
H8 H 1.2836 1.1849 0.1419
C10 C 1.2461(6) 1.2562(7) 0.23434(19)
C11 C 1.1924(6) 1.3126(8) 0.27373(19)
H9 H 1.1066 1.3065 0.2757
C12 C 1.3816(6) 1.3847(9) 0.3055(2)
H10 H 1.4287 1.4309 0.3297
C13 C 1.4418(7) 1.3287(10) 0.2675(2)
H11 H 1.5279 1.3340 0.2665
C14 C 1.3722(6) 1.2645(9) 0.2312(2)
H12 H 1.4103 1.2273 0.2048
C15 C 0.6653(11) 1.3957(14) 0.1514(4)
C16 C 1.2353(10) 0.7036(12) 0.1752(4)
Ag1B Ag 1.15779(5) 0.03489(6) -0.125930(16)
Ag1A Ag 1.15779(5) 1.46511(6) 0.374070(16)
Ag2B Ag 1.07955(6) 1.00828(7) 0.058066(17)
Ag2B_2 Ag 1.07955(6) 0.00828(7) 0.058066(17)
N2B N 1.0540(5) -0.2101(7) -0.02861(17)
N6B N 0.8904(5) -0.1155(6) -0.12728(16)
N8A N 0.7409(5) 0.8760(7) 0.19070(17)
O7 O 0.5598(16) 0.322(3) 0.9607(8)
loop_
_geom_bond_atom_site_label_1
_geom_bond_atom_site_label_2
_geom_bond_site_symmetry_1
_geom_bond_site_symmetry_2
Ag1 O1 1_555 1_555
Ag2 N1 1_555 1_555
S1 O1 1_555 1_555
S2 O4 1_555 1_555
F1 C15 1_555 1_555
F2 C15 1_555 1_555
F3 C15 1_555 1_555
F4 C16 1_555 1_555
F5 C16 1_555 1_555
F6 C16 1_555 1_555
O2 S1 1_555 1_555
O3 S1 1_555 1_555
O5 S2 1_555 1_555
O6 Ag1 1_555 1_555
N1 N2 1_555 1_555
N2 C2 1_555 1_555
N3 C1 1_555 1_555
N4 Ag1 1_555 1_555
N5 Ag1 1_555 1_555
N6 N5 1_555 1_555
N7 C8 1_555 1_555
N8 C11 1_555 1_555
C1 N1 1_555 1_555
H1 C1 1_555 1_555
C2 N3 1_555 1_555
H2 C2 1_555 1_555
C3 N3 1_555 1_555
C4 N4 1_555 1_555
H3 C4 1_555 1_555
C5 N4 1_555 1_555
H4 C5 1_555 1_555
C6 C5 1_555 1_555
H5 C6 1_555 1_555
C7 C3 1_555 1_555
H6 C7 1_555 1_555
C8 N5 1_555 1_555
H7 C8 1_555 1_555
C9 N6 1_555 1_555
H8 C9 1_555 1_555
C10 N7 1_555 1_555
C11 C10 1_555 1_555
H9 C11 1_555 1_555
C12 N8 1_555 1_555
H10 C12 1_555 1_555
C13 C12 1_555 1_555
H11 C13 1_555 1_555
C14 C10 1_555 1_555
H12 C14 1_555 1_555
C15 S1 1_555 1_555
C16 S2 1_555 1_555
Ag1B Ag2 1_555 1_555
Ag1A N8 1_555 1_555
Ag2B Ag1 1_555 1_555
Ag2B_2 N2 1_555 1_555
N2B Ag2 1_555 1_555
N6B Ag2 1_555 1_555
N8A Ag1 1_555 1_555
S2 O6 1_555 1_555
N6 Ag2B 1_555 1_555
N7 C9 1_555 1_555
C3 C4 1_555 1_555
C6 C7 1_555 1_555
C13 C14 1_555 1_555

#END
