
#######################################################################
#
#                 Cambridge Crystallographic Data Centre
#                                CCDC 
#
#######################################################################
#
# If this CIF has been generated from an entry in the Cambridge 
# Structural Database, then it will include bibliographic, chemical, 
# crystal, experimental, refinement or atomic coordinate data resulting 
# from the CCDC's data processing and validation procedures.
#
#######################################################################

data_LAYHOK
_symmetry_cell_setting           monoclinic
_symmetry_space_group_name_H-M   'C 2/c'
_symmetry_Int_Tables_number      15
_space_group_name_Hall           '-C 2yn'
loop_
_symmetry_equiv_pos_site_id
_symmetry_equiv_pos_as_xyz
1 x,y,z
2 -x,y,1/2-z
3 1/2+x,1/2+y,z
4 1/2-x,1/2+y,1/2-z
5 -x,-y,-z
6 x,-y,1/2+z
7 1/2-x,1/2-y,-z
8 1/2+x,1/2-y,1/2+z
_cell_length_a                   10.575(7)
_cell_length_b                   13.739(9)
_cell_length_c                   14.794(10)
_cell_angle_alpha                90
_cell_angle_beta                 103.101(9)
_cell_angle_gamma                90
_cell_volume                     2093.47
loop_
_atom_site_label
_atom_site_type_symbol
_atom_site_fract_x
_atom_site_fract_y
_atom_site_fract_z
Ag1 Ag -0.46498(6) 0.13315(4) 0.52992(4)
N1 N -0.8719(6) 0.2182(4) 0.0516(4)
N2 N -0.6791(5) 0.0730(4) 0.2425(4)
N3 N -0.5687(6) 0.0835(4) 0.3872(4)
N4 N -0.5883(6) -0.0135(4) 0.3645(4)
C1 C -0.7992(7) 0.1914(5) 0.1352(4)
H1 H -0.7818 0.2371 0.1828
C2 C -0.7497(7) 0.0982(5) 0.1524(4)
C3 C -0.7722(8) 0.0307(5) 0.0817(5)
H2 H -0.7378 -0.0317 0.0910
C4 C -0.8471(9) 0.0583(6) -0.0029(5)
H3 H -0.8660 0.0142 -0.0517
C5 C -0.8945(8) 0.1532(5) -0.0147(5)
H4 H -0.9444 0.1712 -0.0724
C6 C -0.6238(10) 0.1330(5) 0.3135(6)
H5 H -0.6251 0.2006 0.3099
C7 C -0.6543(8) -0.0174(5) 0.2781(5)
H6 H -0.6804 -0.0747 0.2457
Ag1G Ag -0.96498(6) 0.36685(4) 0.02992(4)
Ag1C Ag -0.03502(6) -0.36685(4) 0.97008(4)
Ag1D Ag -0.53502(6) -0.13315(4) 0.47008(4)
N1G N -0.3719(6) 0.2818(4) 0.5516(4)
N1D N -0.1281(6) -0.2182(4) 0.9484(4)
N1C N -0.6281(6) -0.2818(4) 0.4484(4)
N2D N -0.3209(5) -0.0730(4) 0.7575(4)
N3D N -0.4313(6) -0.0835(4) 0.6128(4)
N4D N -0.4117(6) 0.0135(4) 0.6355(4)
C1D C -0.2008(7) -0.1914(5) 0.8648(4)
H1D H -0.2182 -0.2371 0.8172
C2D C -0.2503(7) -0.0982(5) 0.8476(4)
C3D C -0.2278(8) -0.0307(5) 0.9183(5)
H2D H -0.2622 0.0317 0.9090
C4D C -0.1529(9) -0.0583(6) 1.0029(5)
H3D H -0.1340 -0.0142 1.0517
C5D C -0.1055(8) -0.1532(5) 1.0147(5)
H4D H -0.0556 -0.1712 1.0724
C6D C -0.3762(10) -0.1330(5) 0.6865(6)
H5D H -0.3749 -0.2006 0.6901
C7D C -0.3457(8) 0.0174(5) 0.7219(5)
H6D H -0.3196 0.0747 0.7543
O1 O 0.0000 -0.1638(15) 0.7500
O4 O -0.121(3) -0.3004(17) 0.6579(19)
O5 O -0.230(4) -0.3022(17) 0.5168(18)
C10 C -0.179(2) -0.2589(14) 0.5880(17)
C11 C -0.187(3) -0.1515(13) 0.590(2)
H10 H -0.1485 -0.1239 0.6491
H11 H -0.1431 -0.1266 0.5441
H12 H -0.2770 -0.1344 0.5723
O2? O 0.0000 -0.0204(10) 0.2500
O3? O 0.0950(18) -0.1572(16) 0.2432(16)
C8? C 0.0000 -0.1098(10) 0.2500
C9? C -0.1193(18) -0.1603(18) 0.2586(19)
H7? H -0.1053 -0.2294 0.2585
H8? H -0.1481 -0.1424 0.3134
H9? H -0.1843 -0.1424 0.2046
O6? O -0.0601(17) -0.1871(12) 0.2441(15)
O7? O 0.1018(12) -0.1010(15) 0.2255(14)
C12? C 0.0000 -0.1069(12) 0.2500
C13? C -0.058(2) -0.0253(11) 0.2868(14)
H13? H -0.0086 0.0328 0.2831
H14? H -0.1423 -0.0193 0.2465
H15? H -0.0661 -0.0344 0.3495
O8? O -0.157(4) -0.299(4) 0.621(4)
O9? O -0.327(3) -0.294(2) 0.509(3)
C14? C -0.226(2) -0.259(2) 0.553(3)
C15? C -0.184(5) -0.164(2) 0.523(5)
H16? H -0.1011 -0.1519 0.5632
H17? H -0.1766 -0.1599 0.4593
H18? H -0.2452 -0.1157 0.5334
loop_
_geom_bond_atom_site_label_1
_geom_bond_atom_site_label_2
_geom_bond_site_symmetry_1
_geom_bond_site_symmetry_2
Ag1 N3 1_555 1_555
N1 C1 1_555 1_555
N2 C2 1_555 1_555
N3 N4 1_555 1_555
N4 C7 1_555 1_555
C1 H1 1_555 1_555
C2 C1 1_555 1_555
C3 C2 1_555 1_555
H2 C3 1_555 1_555
C4 C3 1_555 1_555
H3 C4 1_555 1_555
C5 N1 1_555 1_555
H4 C5 1_555 1_555
C6 N2 1_555 1_555
H5 C6 1_555 1_555
C7 N2 1_555 1_555
H6 C7 1_555 1_555
O4 C10 1_555 1_555
O5 C10 1_555 1_555
C10 C11 1_555 1_555
C11 H10 1_555 1_555
H11 C11 1_555 1_555
H12 C11 1_555 1_555
Ag1G N1 1_555 1_555
Ag1C N1D 1_555 1_555
Ag1D N4 1_555 1_555
N1G Ag1 1_555 1_555
N1D C1D 1_555 1_555
N1C Ag1D 1_555 1_555
N2D C2D 1_555 1_555
N3D Ag1D 1_555 1_555
N4D Ag1 1_555 1_555
C1D H1D 1_555 1_555
C2D C1D 1_555 1_555
C3D C2D 1_555 1_555
H2D C3D 1_555 1_555
C4D C3D 1_555 1_555
H3D C4D 1_555 1_555
C5D N1D 1_555 1_555
H4D C5D 1_555 1_555
C6D N2D 1_555 1_555
H5D C6D 1_555 1_555
C7D N2D 1_555 1_555
H6D C7D 1_555 1_555
N3 C6 1_555 1_555
C4 C5 1_555 1_555
N3D N4D 1_555 1_555
N3D C6D 1_555 1_555
N4D C7D 1_555 1_555
C4D C5D 1_555 1_555

#END
