
#######################################################################
#
#                 Cambridge Crystallographic Data Centre
#                                CCDC 
#
#######################################################################
#
# If this CIF has been generated from an entry in the Cambridge 
# Structural Database, then it will include bibliographic, chemical, 
# crystal, experimental, refinement or atomic coordinate data resulting 
# from the CCDC's data processing and validation procedures.
#
#######################################################################

data_LAYKOM
_symmetry_cell_setting           orthorhombic
_symmetry_space_group_name_H-M   'P n n a'
_symmetry_Int_Tables_number      52
_space_group_name_Hall           '-P 2a 2bc'
loop_
_symmetry_equiv_pos_site_id
_symmetry_equiv_pos_as_xyz
1 x,y,z
2 1/2-x,-y,z
3 1/2-x,1/2+y,1/2-z
4 x,1/2-y,1/2-z
5 -x,-y,-z
6 1/2+x,y,-z
7 1/2+x,1/2-y,1/2+z
8 -x,1/2+y,1/2+z
_cell_length_a                   16.8886(19)
_cell_length_b                   13.9336(16)
_cell_length_c                   17.941(2)
_cell_angle_alpha                90
_cell_angle_beta                 90
_cell_angle_gamma                90
_cell_volume                     4221.86
loop_
_atom_site_label
_atom_site_type_symbol
_atom_site_fract_x
_atom_site_fract_y
_atom_site_fract_z
Ni1 Ni 0.06948(5) 0.86234(7) 0.57527(5)
O1 O -0.0152(3) 0.8639(4) 0.6599(3)
O2 O -0.0632(3) 0.8643(5) 0.5467(3)
O3 O -0.3579(3) 0.8718(4) 0.5145(3)
O4 O -0.4340(3) 0.8940(6) 0.6142(3)
O5 O -0.3158(5) 0.8772(8) 0.8595(4)
O6 O -0.1911(5) 0.8763(7) 0.8737(4)
O7 O 0.0631(3) 1.0111(4) 0.5731(3)
H1 H 0.0777 1.0307 0.5323
N1 N 0.1648(4) 0.8660(5) 0.6485(3)
N2 N 0.4302(4) 1.2119(5) 0.9304(4)
N3 N -0.2499(5) 0.8773(6) 0.8350(4)
C1 C -0.0726(5) 0.8664(6) 0.6158(4)
C2 C -0.1547(4) 0.8701(5) 0.6473(4)
C3 C -0.2214(4) 0.8711(6) 0.6038(4)
H2 H -0.2156 0.8680 0.5523
C4 C -0.2968(5) 0.8764(6) 0.6330(4)
C5 C -0.3063(4) 0.8790(5) 0.7087(4)
H3 H -0.3565 0.8825 0.7297
C6 C -0.2384(4) 0.8760(5) 0.7541(4)
C7 C -0.1634(4) 0.8720(5) 0.7246(4)
H4 H -0.1193 0.8706 0.7555
C8 C -0.3697(4) 0.8828(6) 0.5838(4)
C9 C 0.1499(5) 0.8634(6) 0.7224(4)
H5 H 0.0978 0.8587 0.7389
C10 C 0.2104(5) 0.8673(7) 0.7741(4)
H6 H 0.1979 0.8631 0.8245
C11 C 0.2886(5) 0.8773(5) 0.7538(4)
C12 C 0.3013(5) 0.8789(6) 0.6775(4)
H7 H 0.3529 0.8832 0.6596
C13 C 0.2400(4) 0.8744(6) 0.6281(4)
H8 H 0.2515 0.8774 0.5774
C14 C 0.3590(5) 0.8858(7) 0.8057(5)
H9 H 0.3985 0.8396 0.7899
H10 H 0.3818 0.9492 0.7991
C15 C 0.3447(6) 0.8713(7) 0.8871(5)
H11 H 0.3329 0.8040 0.8955
H12 H 0.2982 0.9078 0.9013
C16 C 0.4118(6) 0.8995(7) 0.9369(6)
H13 H 0.4598 0.8676 0.9207
H14 H 0.4005 0.8792 0.9875
C17 C 0.4244(6) 1.0099(6) 0.9353(5)
C18 C 0.3760(6) 1.0656(7) 0.9779(5)
H15 H 0.3397 1.0366 1.0097
C19 C 0.3799(5) 1.1636(6) 0.9746(4)
H16 H 0.3458 1.1988 1.0047
C20 C 0.4793(5) 1.1574(6) 0.8886(5)
H17 H 0.5156 1.1877 0.8575
C21 C 0.4775(5) 1.0580(7) 0.8902(5)
H18 H 0.5124 1.0233 0.8606
H19 H 0.022(3) 1.036(7) 0.587(6)
Ni1E Ni -0.43052(5) 0.86234(7) 0.42473(5)
Ni1B Ni 0.43052(5) 1.36234(7) 0.92473(5)
O3E O 0.1421(3) 0.8718(4) 0.4855(3)
N2B N 0.0698(4) 0.7119(5) 0.5696(4)
loop_
_geom_bond_atom_site_label_1
_geom_bond_atom_site_label_2
_geom_bond_site_symmetry_1
_geom_bond_site_symmetry_2
Ni1 O1 1_555 1_555
O1 C1 1_555 1_555
O2 Ni1 1_555 1_555
O3 C8 1_555 1_555
O4 C8 1_555 1_555
O5 N3 1_555 1_555
O6 N3 1_555 1_555
O7 Ni1 1_555 1_555
H1 O7 1_555 1_555
N1 Ni1 1_555 1_555
N2 C19 1_555 1_555
N3 C6 1_555 1_555
C1 O2 1_555 1_555
C2 C1 1_555 1_555
C3 C2 1_555 1_555
H2 C3 1_555 1_555
C4 C3 1_555 1_555
C5 C4 1_555 1_555
H3 C5 1_555 1_555
C6 C5 1_555 1_555
C7 C2 1_555 1_555
H4 C7 1_555 1_555
C8 C4 1_555 1_555
C9 N1 1_555 1_555
H5 C9 1_555 1_555
C10 C9 1_555 1_555
H6 C10 1_555 1_555
C11 C10 1_555 1_555
C12 C11 1_555 1_555
H7 C12 1_555 1_555
C13 N1 1_555 1_555
H8 C13 1_555 1_555
C14 C11 1_555 1_555
H9 C14 1_555 1_555
H10 C14 1_555 1_555
C15 C14 1_555 1_555
H11 C15 1_555 1_555
H12 C15 1_555 1_555
C16 C15 1_555 1_555
H13 C16 1_555 1_555
H14 C16 1_555 1_555
C17 C16 1_555 1_555
C18 C17 1_555 1_555
H15 C18 1_555 1_555
C19 C18 1_555 1_555
H16 C19 1_555 1_555
C20 N2 1_555 1_555
H17 C20 1_555 1_555
C21 C17 1_555 1_555
H18 C21 1_555 1_555
H19 O7 1_555 1_555
Ni1E O3 1_555 1_555
Ni1B N2 1_555 1_555
O3E Ni1 1_555 1_555
N2B Ni1 1_555 1_555
C6 C7 1_555 1_555
C12 C13 1_555 1_555
C20 C21 1_555 1_555

#END
