
#######################################################################
#
#                 Cambridge Crystallographic Data Centre
#                                CCDC 
#
#######################################################################
#
# If this CIF has been generated from an entry in the Cambridge 
# Structural Database, then it will include bibliographic, chemical, 
# crystal, experimental, refinement or atomic coordinate data resulting 
# from the CCDC's data processing and validation procedures.
#
#######################################################################

data_LAYLIH
_symmetry_cell_setting           triclinic
_symmetry_space_group_name_H-M   'P -1'
_symmetry_Int_Tables_number      2
_space_group_name_Hall           '-P 1'
loop_
_symmetry_equiv_pos_site_id
_symmetry_equiv_pos_as_xyz
1 x,y,z
2 -x,-y,-z
_cell_length_a                   8.8652(4)
_cell_length_b                   8.9429(4)
_cell_length_c                   10.6390(4)
_cell_angle_alpha                89.520(2)
_cell_angle_beta                 69.123(2)
_cell_angle_gamma                75.2440(10)
_cell_volume                     758.924
loop_
_atom_site_label
_atom_site_type_symbol
_atom_site_fract_x
_atom_site_fract_y
_atom_site_fract_z
Cu1 Cu 0.49050(7) 0.33763(7) 0.36697(6)
N1 N 0.3056(5) 0.3245(5) 0.5430(4)
N2 N -0.3236(5) 0.3392(5) 1.1857(4)
O1 O 0.6657(4) 0.2561(5) 0.4387(4)
O2 O 0.5922(5) 0.4053(4) 0.6287(4)
O3 O 0.3420(4) 0.3219(4) 0.2653(4)
O4 O 0.4757(6) 0.0801(5) 0.2752(5)
C1 C 0.1563(6) 0.4313(7) 0.5821(5)
H1 H 0.1377 0.5059 0.5239
C2 C 0.0307(6) 0.4349(6) 0.7034(5)
H2 H -0.0708 0.5107 0.7260
C3 C 0.0545(6) 0.3244(6) 0.7940(5)
C4 C 0.2081(7) 0.2118(7) 0.7487(5)
H3 H 0.2289 0.1331 0.8029
C5 C 0.3285(6) 0.2149(6) 0.6260(5)
H4 H 0.4299 0.1383 0.5992
C6 C -0.0780(6) 0.3283(6) 0.9286(5)
C7 C -0.2341(7) 0.4346(8) 0.9684(6)
H5 H -0.2609 0.5038 0.9089
C8 C -0.3496(7) 0.4374(7) 1.0963(6)
H6 H -0.4519 0.5126 1.1217
C9 C -0.1744(7) 0.2330(7) 1.1468(5)
H7 H -0.1533 0.1616 1.2067
C10 C -0.0517(7) 0.2258(7) 1.0224(5)
H8 H 0.0506 0.1512 1.0005
C11 C 0.6775(6) 0.2890(6) 0.5495(5)
C12 C 0.8044(9) 0.1685(8) 0.5880(7)
H9 H 0.8585 0.2230 0.6298
H10 H 0.7437 0.1107 0.6561
C13 C 0.9356(8) 0.0567(8) 0.4805(6)
H11 H 0.9933 0.1143 0.4102
H12 H 0.8820 -0.0016 0.4415
C14 C 0.3793(7) 0.1755(7) 0.2347(6)
C15 C 0.3035(9) 0.1225(8) 0.1438(7)
H13 H 0.2008 0.0976 0.1985
H14 H 0.2747 0.2066 0.0912
C16 C 0.4191(10) -0.0168(9) 0.0497(7)
H15 H 0.3608 -0.0511 -0.0014
H16 H 0.4493 -0.1004 0.1023
Cu1_2 Cu 1.49050(7) 0.33763(7) -0.63303(6)
Cu1_3 Cu -0.50950(7) 0.33763(7) 1.36697(6)
Cu1A Cu 0.50950(7) 0.66237(7) 0.63303(6)
Cu1A_2 Cu 1.50950(7) -0.33763(7) 0.63303(6)
Cu1_4 Cu 1.49050(7) -0.66237(7) 0.36697(6)
Cu1A_3 Cu 0.50950(7) -0.33763(7) -0.36697(6)
N1_2 N 1.3056(5) 0.3245(5) -0.4570(4)
N2_2 N 0.6764(5) 0.3392(5) 0.1857(4)
N2_3 N 1.6764(5) 0.3392(5) -0.8143(4)
O1A O 1.3343(4) -0.2561(5) 0.5613(4)
O1_2 O 1.6657(4) 0.2561(5) -0.5613(4)
O2A O 1.4078(5) -0.4053(4) 0.3713(4)
O2A_2 O 0.4078(5) 0.5947(4) 0.3713(4)
O2A_3 O 1.4078(5) 0.5947(4) -0.6287(4)
O3A O 0.6580(4) -0.3219(4) -0.2653(4)
O3_2 O 1.3420(4) 0.3219(4) -0.7347(4)
O4A O 0.5243(6) -0.0801(5) -0.2752(5)
C1_2 C 1.1563(6) 0.4313(7) -0.4179(5)
H1_2 H 1.1377 0.5059 -0.4761
C2_2 C 1.0307(6) 0.4349(6) -0.2966(5)
H2_2 H 0.9292 0.5107 -0.2740
C3_2 C 1.0545(6) 0.3244(6) -0.2060(5)
C4_2 C 1.2081(7) 0.2118(7) -0.2513(5)
H3_2 H 1.2289 0.1331 -0.1971
C5_2 C 1.3285(6) 0.2149(6) -0.3740(5)
H4_2 H 1.4299 0.1383 -0.4008
C6_2 C 0.9220(6) 0.3283(6) -0.0714(5)
C7_2 C 0.7659(7) 0.4346(8) -0.0316(6)
H5_2 H 0.7391 0.5038 -0.0911
C8_2 C 0.6504(7) 0.4374(7) 0.0963(6)
H6_2 H 0.5481 0.5126 0.1217
C9_2 C 0.8256(7) 0.2330(7) 0.1468(5)
H7_2 H 0.8467 0.1616 0.2067
C10_2 C 0.9483(7) 0.2258(7) 0.0224(5)
H8_2 H 1.0506 0.1512 0.0005
C11A C 1.3225(6) -0.2890(6) 0.4505(5)
C12A C 1.1956(9) -0.1685(8) 0.4120(7)
H9A H 1.1415 -0.2230 0.3702
H10A H 1.2563 -0.1107 0.3439
C13A C 1.0644(8) -0.0567(8) 0.5195(6)
H11A H 1.0067 -0.1143 0.5898
H12A H 1.1180 0.0016 0.5585
C14A C 0.6207(7) -0.1755(7) -0.2347(6)
C15A C 0.6965(9) -0.1225(8) -0.1438(7)
H13A H 0.7992 -0.0976 -0.1985
H14A H 0.7253 -0.2066 -0.0912
C16A C 0.5809(10) 0.0168(9) -0.0497(7)
H15A H 0.6392 0.0511 0.0014
H16A H 0.5507 0.1004 -0.1023
loop_
_geom_bond_atom_site_label_1
_geom_bond_atom_site_label_2
_geom_bond_site_symmetry_1
_geom_bond_site_symmetry_2
Cu1 N1 1_555 1_555
N1 C1 1_555 1_555
N2 C8 1_555 1_555
O1 Cu1 1_555 1_555
O2 C11 1_555 1_555
O3 Cu1 1_555 1_555
O4 C14 1_555 1_555
C1 H1 1_555 1_555
C2 C1 1_555 1_555
H2 C2 1_555 1_555
C3 C2 1_555 1_555
C4 C3 1_555 1_555
H3 C4 1_555 1_555
C5 N1 1_555 1_555
H4 C5 1_555 1_555
C6 C3 1_555 1_555
C7 C6 1_555 1_555
H5 C7 1_555 1_555
C8 C7 1_555 1_555
H6 C8 1_555 1_555
C9 N2 1_555 1_555
H7 C9 1_555 1_555
C10 C6 1_555 1_555
H8 C10 1_555 1_555
C11 O1 1_555 1_555
C12 C11 1_555 1_555
H9 C12 1_555 1_555
H10 C12 1_555 1_555
C13 C12 1_555 1_555
H11 C13 1_555 1_555
H12 C13 1_555 1_555
C14 O3 1_555 1_555
C15 C14 1_555 1_555
H13 C15 1_555 1_555
H14 C15 1_555 1_555
C16 C15 1_555 1_555
H15 C16 1_555 1_555
H16 C16 1_555 1_555
Cu1_2 N1_2 1_555 1_555
Cu1_3 N2 1_555 1_555
Cu1A O2 1_555 1_555
Cu1A_2 O1A 1_555 1_555
Cu1_4 O2A 1_555 1_555
Cu1A_3 O3A 1_555 1_555
N1_2 C1_2 1_555 1_555
N2_2 Cu1 1_555 1_555
N2_3 Cu1_2 1_555 1_555
O1A C11A 1_555 1_555
O1_2 Cu1_2 1_555 1_555
O2A C11A 1_555 1_555
O2A_2 Cu1 1_555 1_555
O2A_3 Cu1_2 1_555 1_555
O3A C14A 1_555 1_555
O3_2 Cu1_2 1_555 1_555
O4A C14A 1_555 1_555
C1_2 H1_2 1_555 1_555
C2_2 C1_2 1_555 1_555
H2_2 C2_2 1_555 1_555
C3_2 C2_2 1_555 1_555
C4_2 C3_2 1_555 1_555
H3_2 C4_2 1_555 1_555
C5_2 N1_2 1_555 1_555
H4_2 C5_2 1_555 1_555
C6_2 C3_2 1_555 1_555
C7_2 C6_2 1_555 1_555
H5_2 C7_2 1_555 1_555
C8_2 N2_2 1_555 1_555
H6_2 C8_2 1_555 1_555
C9_2 N2_2 1_555 1_555
H7_2 C9_2 1_555 1_555
C10_2 C6_2 1_555 1_555
H8_2 C10_2 1_555 1_555
C11A C12A 1_555 1_555
C12A H9A 1_555 1_555
H10A C12A 1_555 1_555
C13A C13 1_555 1_555
H11A C13A 1_555 1_555
H12A C13A 1_555 1_555
C14A C15A 1_555 1_555
C15A H13A 1_555 1_555
H14A C15A 1_555 1_555
C16A C16 1_555 1_555
H15A C16A 1_555 1_555
H16A C16A 1_555 1_555
C4 C5 1_555 1_555
C9 C10 1_555 1_555
C4_2 C5_2 1_555 1_555
C7_2 C8_2 1_555 1_555
C9_2 C10_2 1_555 1_555
C12A C13A 1_555 1_555
C15A C16A 1_555 1_555

#END
