
#######################################################################
#
#                 Cambridge Crystallographic Data Centre
#                                CCDC 
#
#######################################################################
#
# If this CIF has been generated from an entry in the Cambridge 
# Structural Database, then it will include bibliographic, chemical, 
# crystal, experimental, refinement or atomic coordinate data resulting 
# from the CCDC's data processing and validation procedures.
#
#######################################################################

data_LAYNIJ
_symmetry_cell_setting           monoclinic
_symmetry_space_group_name_H-M   'C 2/m'
_symmetry_Int_Tables_number      12
_space_group_name_Hall           '-C 2y'
loop_
_symmetry_equiv_pos_site_id
_symmetry_equiv_pos_as_xyz
1 x,y,z
2 1/2+x,1/2+y,z
3 -x,y,-z
4 1/2-x,1/2+y,-z
5 -x,-y,-z
6 1/2-x,1/2-y,-z
7 x,-y,z
8 1/2+x,1/2-y,z
_cell_length_a                   29.507(13)
_cell_length_b                   17.804(8)
_cell_length_c                   14.709(7)
_cell_angle_alpha                90
_cell_angle_beta                 119.916(7)
_cell_angle_gamma                90
_cell_volume                     6697.66
loop_
_atom_site_label
_atom_site_type_symbol
_atom_site_fract_x
_atom_site_fract_y
_atom_site_fract_z
Cl1 Cl 0.16955(12) 0.5000 0.1630(2)
O1 O 0.2144(4) 0.5000 0.2609(8)
O2 O 0.1689(5) 0.4454(7) 0.0923(9)
O3 O 0.1202(4) 0.5000 0.1569(13)
O2F O 0.1689(5) 0.5546(7) 0.0923(9)
Cl2 Cl 0.5000 0.5000 0.5000
O6 O 0.5003(8) 0.4422(9) 0.4309(14)
O6F O 0.5003(8) 0.5578(9) 0.4309(14)
O6D O 0.4997(8) 0.5578(9) 0.5691(14)
O6B O 0.4997(8) 0.4422(9) 0.5691(14)
Cl3 Cl 0.16381(12) 0.0000 0.1565(3)
O7 O 0.2126(4) 0.0000 0.2536(9)
O8 O 0.1211(4) 0.0000 0.1735(12)
O9 O 0.1659(5) 0.0546(6) 0.0874(8)
O9F O 0.1659(5) -0.0546(6) 0.0874(8)
Cl4 Cl 1.0000 0.5000 0.5000
O11 O 0.9969(10) 0.5482(11) 0.4197(14)
O11F O 0.9969(10) 0.4518(11) 0.4197(14)
O11D O 1.0031(10) 0.4518(11) 0.5803(14)
O11B O 1.0031(10) 0.5482(11) 0.5803(14)
Co1 Co 0.83326(3) 0.75022(5) 0.34749(6)
Co2 Co 0.5000 0.74940(7) 0.0000
N1 N 0.83697(19) 0.6651(3) 0.4547(4)
N2 N 0.8564(2) 0.5675(3) 0.5543(4)
N3 N 0.8116(3) 0.5928(4) 0.5455(5)
N4 N 0.8310(2) 0.6645(3) 0.2431(4)
N5 N 0.8576(3) 0.5928(4) 0.1536(7)
N6 N 0.8129(2) 0.5665(3) 0.1436(4)
N7 N 0.8353(2) 0.8353(3) 0.4528(4)
N8 N 0.8190(2) 0.9322(3) 0.5190(4)
N9 N 0.8661(3) 0.9071(3) 0.5974(4)
N10 N 0.82918(19) 0.8357(3) 0.2414(4)
N11 N 0.7976(2) 0.9065(4) 0.0959(5)
N12 N 0.8447(2) 0.9327(3) 0.1717(5)
N13 N 0.50657(19) 0.6642(3) -0.0950(5)
N14 N 0.5393(2) 0.5944(4) -0.1769(6)
N15 N 0.49194(17) 0.5671(3) -0.1955(5)
N16 N 0.5065(2) 0.8345(3) -0.0973(5)
N17 N 0.4821(2) 0.9061(4) -0.2394(5)
N18 N 0.52655(18) 0.9329(3) -0.1542(5)
N19 N 0.9146(2) 0.7527(4) 0.4241(7)
N20 N 1.0019(5) 0.7543(10) 0.5939(11)
N21 N 0.75239(18) 0.7480(3) 0.2744(4)
N22 N 0.6660(3) 0.7480(5) 0.2600(6)
N23 N 0.5807(2) 0.7488(3) 0.1006(5)
C1 C 0.8016(3) 0.6516(4) 0.4858(6)
H1 H 0.7725 0.6819 0.4661
C2 C 0.8710(2) 0.6109(3) 0.5006(5)
H2 H 0.9011 0.6040 0.4961
C3 C 0.8825(4) 0.5000 0.6137(7)
H3 H 0.9186 0.5000 0.6298
H4 H 0.8822 0.5000 0.6794
C4 C 0.7981(2) 0.6104(4) 0.1976(5)
H5 H 0.7681 0.6031 0.2020
C5 C 0.8667(3) 0.6521(5) 0.2123(8)
H6 H 0.8954 0.6833 0.2316
C6 C 0.7878(4) 0.5000 0.0827(7)
H7 H 0.7901 0.5000 0.0192
H8 H 0.7511 0.5000 0.0627
C7 C 0.8732(3) 0.8493(5) 0.5527(6)
H9 H 0.9027 0.8190 0.5872
C8 C 0.8018(3) 0.8898(3) 0.4353(5)
H10 H 0.7706 0.8972 0.3729
C9 C 0.7950(5) 1.0000 0.5324(8)
H11 H 0.7580 1.0000 0.4814
H12 H 0.7989 1.0000 0.6018
C10 C 0.8620(3) 0.8899(4) 0.2589(6)
H13 H 0.8928 0.8981 0.3219
C11 C 0.7903(3) 0.8481(4) 0.1420(6)
H14 H 0.7609 0.8177 0.1088
C12 C 0.8685(4) 1.0000 0.1585(9)
H15 H 0.8647 1.0000 0.0890
H16 H 0.9056 1.0000 0.2095
C13 C 0.5455(3) 0.6510(4) -0.1160(7)
H17 H 0.5753 0.6810 -0.0883
C14 C 0.4742(2) 0.6105(4) -0.1468(6)
H18 H 0.4423 0.6033 -0.1496
C15 C 0.4695(3) 0.5000 -0.2596(8)
H19 H 0.4767 0.5000 -0.3171
H20 H 0.4319 0.5000 -0.2889
C16 C 0.4723(3) 0.8488(5) -0.1997(7)
H21 H 0.4433 0.8185 -0.2390
C17 C 0.5402(2) 0.8889(4) -0.0724(5)
H22 H 0.5696 0.8958 -0.0067
C18 C 0.5517(3) 1.0000 -0.1632(8)
H23 H 0.5504 1.0000 -0.2304
H24 H 0.5882 1.0000 -0.1085
C19 C 0.9558(4) 0.7540(9) 0.5068(11)
C20 C 0.9555(5) 0.7550(9) 0.4140(14)
C21 C 0.7106(2) 0.7496(5) 0.2630(6)
C22 C 0.6223(2) 0.7487(5) 0.1739(7)
Co1B Co 0.16674(3) 0.75022(5) -0.34749(6)
Co1F Co 0.83326(3) 0.24978(5) 0.34749(6)
Co1D Co 0.16674(3) 0.24978(5) -0.34749(6)
Co1F_2 Co 0.83326(3) 1.24978(5) 0.34749(6)
Co1B_2 Co 1.16674(3) 0.75022(5) 0.65251(6)
Co1D_2 Co 0.16674(3) 1.24978(5) -0.34749(6)
Co1_2 Co -0.16674(3) 0.75022(5) -0.65251(6)
Co2F Co 0.5000 0.25060(7) 0.0000
Co2F_2 Co 0.5000 1.25060(7) 0.0000
N1F N 0.83697(19) 0.3349(3) 0.4547(4)
N1B N 0.16303(19) 0.6651(3) -0.4547(4)
N1D N 0.16303(19) 0.3349(3) -0.4547(4)
N2F N 0.8564(2) 0.4325(3) 0.5543(4)
N2B N 0.1436(2) 0.5675(3) -0.5543(4)
N2D N 0.1436(2) 0.4325(3) -0.5543(4)
N3F N 0.8116(3) 0.4072(4) 0.5455(5)
N3B N 0.1884(3) 0.5928(4) -0.5455(5)
N3D N 0.1884(3) 0.4072(4) -0.5455(5)
N4F N 0.8310(2) 0.3355(3) 0.2431(4)
N4B N 0.1690(2) 0.6645(3) -0.2431(4)
N4D N 0.1690(2) 0.3355(3) -0.2431(4)
N5F N 0.8576(3) 0.4072(4) 0.1536(7)
N5B N 0.1424(3) 0.5928(4) -0.1536(7)
N5D N 0.1424(3) 0.4072(4) -0.1536(7)
N6F N 0.8129(2) 0.4335(3) 0.1436(4)
N6B N 0.1871(2) 0.5665(3) -0.1436(4)
N6D N 0.1871(2) 0.4335(3) -0.1436(4)
N7F N 0.8353(2) 1.1647(3) 0.4528(4)
N7B N 0.1647(2) 0.8353(3) -0.4528(4)
N7D N 0.1647(2) 1.1647(3) -0.4528(4)
N7F_2 N 0.8353(2) 0.1647(3) 0.4528(4)
N7D_2 N 0.1647(2) 0.1647(3) -0.4528(4)
N8F N 0.8190(2) 1.0678(3) 0.5190(4)
N8B N 0.1810(2) 0.9322(3) -0.5190(4)
N8D N 0.1810(2) 1.0678(3) -0.5190(4)
N9F N 0.8661(3) 1.0929(3) 0.5974(4)
N9B N 0.1339(3) 0.9071(3) -0.5974(4)
N9D N 0.1339(3) 1.0929(3) -0.5974(4)
N10F N 0.82918(19) 1.1643(3) 0.2414(4)
N10B N 0.17082(19) 0.8357(3) -0.2414(4)
N10D N 0.17082(19) 1.1643(3) -0.2414(4)
N10F_2 N 0.82918(19) 0.1643(3) 0.2414(4)
N10D_2 N 0.17082(19) 0.1643(3) -0.2414(4)
N11F N 0.7976(2) 1.0935(4) 0.0959(5)
N11B N 0.2024(2) 0.9065(4) -0.0959(5)
N11D N 0.2024(2) 1.0935(4) -0.0959(5)
N12F N 0.8447(2) 1.0673(3) 0.1717(5)
N12B N 0.1553(2) 0.9327(3) -0.1717(5)
N12D N 0.1553(2) 1.0673(3) -0.1717(5)
N13F N 0.50657(19) 0.3358(3) -0.0950(5)
N13B N 0.49343(19) 0.6642(3) 0.0950(5)
N13D N 0.49343(19) 0.3358(3) 0.0950(5)
N14F N 0.5393(2) 0.4056(4) -0.1769(6)
N14B N 0.4607(2) 0.5944(4) 0.1769(6)
N14D N 0.4607(2) 0.4056(4) 0.1769(6)
N15F N 0.49194(17) 0.4329(3) -0.1955(5)
N15B N 0.50806(17) 0.5671(3) 0.1955(5)
N15D N 0.50806(17) 0.4329(3) 0.1955(5)
N16F N 0.5065(2) 1.1655(3) -0.0973(5)
N16B N 0.4935(2) 0.8345(3) 0.0973(5)
N16D N 0.4935(2) 1.1655(3) 0.0973(5)
N16F_2 N 0.5065(2) 0.1655(3) -0.0973(5)
N16D_2 N 0.4935(2) 0.1655(3) 0.0973(5)
N17F N 0.4821(2) 1.0939(4) -0.2394(5)
N17B N 0.5179(2) 0.9061(4) 0.2394(5)
N17D N 0.5179(2) 1.0939(4) 0.2394(5)
N18F N 0.52655(18) 1.0671(3) -0.1542(5)
N18B N 0.47345(18) 0.9329(3) 0.1542(5)
N18D N 0.47345(18) 1.0671(3) 0.1542(5)
N19B N 1.0854(2) 0.7527(4) 0.5759(7)
N19B_2 N 0.0854(2) 0.7527(4) -0.4241(7)
N19_2 N -0.0854(2) 0.7527(4) -0.5759(7)
N19F N 0.9146(2) 0.2473(4) 0.4241(7)
N19D N 0.0854(2) 0.2473(4) -0.4241(7)
N20B N 0.9981(5) 0.7543(10) 0.4061(11)
N20B_2 N -0.0019(5) 0.7543(10) -0.5939(11)
N20_2 N 0.0019(5) 0.7543(10) -0.4061(11)
N21B N 0.24761(18) 0.7480(3) -0.2744(4)
N21F N 0.75239(18) 0.2520(3) 0.2744(4)
N21D N 0.24761(18) 0.2520(3) -0.2744(4)
N22B N 0.3340(3) 0.7480(5) -0.2600(6)
N22F N 0.6660(3) 0.2520(5) 0.2600(6)
N22D N 0.3340(3) 0.2520(5) -0.2600(6)
N23B N 0.4193(2) 0.7488(3) -0.1006(5)
N23F N 0.5807(2) 0.2512(3) 0.1006(5)
N23D N 0.4193(2) 0.2512(3) -0.1006(5)
C1F C 0.8016(3) 0.3484(4) 0.4858(6)
C1B C 0.1984(3) 0.6516(4) -0.4858(6)
C1D C 0.1984(3) 0.3484(4) -0.4858(6)
H1F H 0.7725 0.3181 0.4661
H1B H 0.2275 0.6819 -0.4661
H1D H 0.2275 0.3181 -0.4661
C2F C 0.8710(2) 0.3891(3) 0.5006(5)
C2B C 0.1290(2) 0.6109(3) -0.5006(5)
C2D C 0.1290(2) 0.3891(3) -0.5006(5)
H2F H 0.9011 0.3960 0.4961
H2B H 0.0989 0.6040 -0.4961
H2D H 0.0989 0.3960 -0.4961
C3D C 0.1175(4) 0.5000 -0.6137(7)
H3D H 0.0814 0.5000 -0.6298
H4D H 0.1178 0.5000 -0.6794
C4F C 0.7981(2) 0.3896(4) 0.1976(5)
C4B C 0.2019(2) 0.6104(4) -0.1976(5)
C4D C 0.2019(2) 0.3896(4) -0.1976(5)
H5F H 0.7681 0.3969 0.2020
H5B H 0.2319 0.6031 -0.2020
H5D H 0.2319 0.3969 -0.2020
C5F C 0.8667(3) 0.3479(5) 0.2123(8)
C5B C 0.1333(3) 0.6521(5) -0.2123(8)
C5D C 0.1333(3) 0.3479(5) -0.2123(8)
H6F H 0.8954 0.3167 0.2316
H6B H 0.1046 0.6833 -0.2316
H6D H 0.1046 0.3167 -0.2316
C6D C 0.2122(4) 0.5000 -0.0827(7)
H7D H 0.2099 0.5000 -0.0192
H8D H 0.2489 0.5000 -0.0627
C7F C 0.8732(3) 1.1507(5) 0.5527(6)
C7B C 0.1268(3) 0.8493(5) -0.5527(6)
C7D C 0.1268(3) 1.1507(5) -0.5527(6)
H9F H 0.9027 1.1810 0.5872
H9B H 0.0973 0.8190 -0.5872
H9D H 0.0973 1.1810 -0.5872
C8F C 0.8018(3) 1.1102(3) 0.4353(5)
C8B C 0.1982(3) 0.8898(3) -0.4353(5)
C8D C 0.1982(3) 1.1102(3) -0.4353(5)
H10F H 0.7706 1.1028 0.3729
H10B H 0.2294 0.8972 -0.3729
H10D H 0.2294 1.1028 -0.3729
C9D C 0.2050(5) 1.0000 -0.5324(8)
H11D H 0.2420 1.0000 -0.4814
H12D H 0.2011 1.0000 -0.6018
C10F C 0.8620(3) 1.1101(4) 0.2589(6)
C10B C 0.1380(3) 0.8899(4) -0.2589(6)
C10D C 0.1380(3) 1.1101(4) -0.2589(6)
H13F H 0.8928 1.1019 0.3219
H13B H 0.1072 0.8981 -0.3219
H13D H 0.1072 1.1019 -0.3219
C11F C 0.7903(3) 1.1519(4) 0.1420(6)
C11B C 0.2097(3) 0.8481(4) -0.1420(6)
C11D C 0.2097(3) 1.1519(4) -0.1420(6)
H14F H 0.7609 1.1823 0.1088
H14B H 0.2391 0.8177 -0.1088
H14D H 0.2391 1.1823 -0.1088
C12D C 0.1315(4) 1.0000 -0.1585(9)
H15D H 0.1353 1.0000 -0.0890
H16D H 0.0944 1.0000 -0.2095
C13F C 0.5455(3) 0.3490(4) -0.1160(7)
C13B C 0.4545(3) 0.6510(4) 0.1160(7)
C13D C 0.4545(3) 0.3490(4) 0.1160(7)
H17F H 0.5753 0.3190 -0.0883
H17B H 0.4247 0.6810 0.0883
H17D H 0.4247 0.3190 0.0883
C14F C 0.4742(2) 0.3895(4) -0.1468(6)
C14B C 0.5258(2) 0.6105(4) 0.1468(6)
C14D C 0.5258(2) 0.3895(4) 0.1468(6)
H18F H 0.4423 0.3967 -0.1496
H18B H 0.5577 0.6033 0.1496
H18D H 0.5577 0.3967 0.1496
C15D C 0.5305(3) 0.5000 0.2596(8)
H19D H 0.5233 0.5000 0.3171
H20D H 0.5681 0.5000 0.2889
C16F C 0.4723(3) 1.1512(5) -0.1997(7)
C16B C 0.5277(3) 0.8488(5) 0.1997(7)
C16D C 0.5277(3) 1.1512(5) 0.1997(7)
H21F H 0.4433 1.1815 -0.2390
H21B H 0.5567 0.8185 0.2390
H21D H 0.5567 1.1815 0.2390
C17F C 0.5402(2) 1.1111(4) -0.0724(5)
C17B C 0.4598(2) 0.8889(4) 0.0724(5)
C17D C 0.4598(2) 1.1111(4) 0.0724(5)
H22F H 0.5696 1.1042 -0.0067
H22B H 0.4304 0.8958 0.0067
H22D H 0.4304 1.1042 0.0067
C18D C 0.4483(3) 1.0000 0.1632(8)
H23D H 0.4496 1.0000 0.2304
H24D H 0.4118 1.0000 0.1085
C19B C 1.0442(4) 0.7540(9) 0.4932(11)
C19B_2 C 0.0442(4) 0.7540(9) -0.5068(11)
C19_2 C -0.0442(4) 0.7540(9) -0.4932(11)
C20B C 1.0445(5) 0.7550(9) 0.5860(14)
C20B_2 C 0.0445(5) 0.7550(9) -0.4140(14)
C20_2 C -0.0445(5) 0.7550(9) -0.5860(14)
C21B C 0.2894(2) 0.7496(5) -0.2630(6)
C21F C 0.7106(2) 0.2504(5) 0.2630(6)
C21D C 0.2894(2) 0.2504(5) -0.2630(6)
C22B C 0.3777(2) 0.7487(5) -0.1739(7)
C22F C 0.6223(2) 0.2513(5) 0.1739(7)
C22D C 0.3777(2) 0.2513(5) -0.1739(7)
O4? O 0.4485(6) 0.5000 0.487(3)
O5? O 0.4563(8) 0.5000 0.3961(12)
O10? O 1.0435(10) 0.5000 0.483(3)
O12? O 0.9472(6) 0.5000 0.414(2)
loop_
_geom_bond_atom_site_label_1
_geom_bond_atom_site_label_2
_geom_bond_site_symmetry_1
_geom_bond_site_symmetry_2
Co1 N1 1_555 1_555
Co2 N13 1_555 1_555
N1 C1 1_555 1_555
N2 N3 1_555 1_555
N3 C1 1_555 1_555
N4 Co1 1_555 1_555
N5 N6 1_555 1_555
N6 C4 1_555 1_555
N7 Co1 1_555 1_555
N8 N9 1_555 1_555
N9 C7 1_555 1_555
N10 Co1 1_555 1_555
N11 N12 1_555 1_555
N12 C10 1_555 1_555
N13 C13 1_555 1_555
N14 N15 1_555 1_555
N15 C14 1_555 1_555
N16 Co2 1_555 1_555
N17 N18 1_555 1_555
N18 C17 1_555 1_555
N19 Co1 1_555 1_555
N20 C19 1_555 1_555
N21 Co1 1_555 1_555
N22 C21 1_555 1_555
N23 Co2 1_555 1_555
C1 H1 1_555 1_555
C2 N1 1_555 1_555
H2 C2 1_555 1_555
C3 N2 1_555 1_555
H3 C3 1_555 1_555
H4 C3 1_555 1_555
C4 N4 1_555 1_555
H5 C4 1_555 1_555
C5 N4 1_555 1_555
H6 C5 1_555 1_555
C6 N6 1_555 1_555
H7 C6 1_555 1_555
H8 C6 1_555 1_555
C7 N7 1_555 1_555
H9 C7 1_555 1_555
C8 N7 1_555 1_555
H10 C8 1_555 1_555
C9 N8 1_555 1_555
H11 C9 1_555 1_555
H12 C9 1_555 1_555
C10 N10 1_555 1_555
H13 C10 1_555 1_555
C11 N10 1_555 1_555
H14 C11 1_555 1_555
C12 N12 1_555 1_555
H15 C12 1_555 1_555
H16 C12 1_555 1_555
C13 N14 1_555 1_555
H17 C13 1_555 1_555
C14 N13 1_555 1_555
H18 C14 1_555 1_555
C15 N15 1_555 1_555
H19 C15 1_555 1_555
H20 C15 1_555 1_555
C16 N16 1_555 1_555
H21 C16 1_555 1_555
C17 N16 1_555 1_555
H22 C17 1_555 1_555
C18 N18 1_555 1_555
H23 C18 1_555 1_555
H24 C18 1_555 1_555
C19 N19 1_555 1_555
C20 N19 1_555 1_555
C21 N21 1_555 1_555
C22 N22 1_555 1_555
Cl1 O1 1_555 1_555
Cl2 O6 1_555 1_555
Cl3 O7 1_555 1_555
Cl4 O11 1_555 1_555
O2 Cl1 1_555 1_555
O3 Cl1 1_555 1_555
O8 Cl3 1_555 1_555
O9 Cl3 1_555 1_555
O11 O11F 1_555 1_555
Co1B N1B 1_555 1_555
Co1F N1F 1_555 1_555
Co1D N1D 1_555 1_555
Co1F_2 N7F 1_555 1_555
Co1B_2 N19B 1_555 1_555
Co1D_2 N7D 1_555 1_555
Co1_2 N19_2 1_555 1_555
Co2F N13F 1_555 1_555
Co2F_2 N16F 1_555 1_555
N1F C1F 1_555 1_555
N1B C1B 1_555 1_555
N1D C1D 1_555 1_555
N2F C3 1_555 1_555
N2B N3B 1_555 1_555
N2D N3D 1_555 1_555
N3F N2F 1_555 1_555
N3B C1B 1_555 1_555
N3D C1D 1_555 1_555
N4F Co1F 1_555 1_555
N4B Co1B 1_555 1_555
N4D Co1D 1_555 1_555
N5F N6F 1_555 1_555
N5B N6B 1_555 1_555
N5D N6D 1_555 1_555
N6F C6 1_555 1_555
N6B C4B 1_555 1_555
N6D C4D 1_555 1_555
N7F C7F 1_555 1_555
N7B Co1B 1_555 1_555
N7D C7D 1_555 1_555
N7F_2 Co1F 1_555 1_555
N7D_2 Co1D 1_555 1_555
N8F C9 1_555 1_555
N8B N9B 1_555 1_555
N8D N9D 1_555 1_555
N9F N8F 1_555 1_555
N9B C7B 1_555 1_555
N9D C7D 1_555 1_555
N10F Co1F_2 1_555 1_555
N10B Co1B 1_555 1_555
N10D Co1D_2 1_555 1_555
N10F_2 Co1F 1_555 1_555
N10D_2 Co1D 1_555 1_555
N11F N12F 1_555 1_555
N11B N12B 1_555 1_555
N11D N12D 1_555 1_555
N12F C12 1_555 1_555
N12B C10B 1_555 1_555
N12D C10D 1_555 1_555
N13F C13F 1_555 1_555
N13B Co2 1_555 1_555
N13D Co2F 1_555 1_555
N14F N15F 1_555 1_555
N14B N15B 1_555 1_555
N14D N15D 1_555 1_555
N15F C15 1_555 1_555
N15B C14B 1_555 1_555
N15D C14D 1_555 1_555
N16F C16F 1_555 1_555
N16B Co2 1_555 1_555
N16D Co2F_2 1_555 1_555
N16F_2 Co2F 1_555 1_555
N16D_2 Co2F 1_555 1_555
N17F N18F 1_555 1_555
N17B N18B 1_555 1_555
N17D N18D 1_555 1_555
N18F C18 1_555 1_555
N18B C17B 1_555 1_555
N18D C17D 1_555 1_555
N19B C19B 1_555 1_555
N19B_2 Co1B 1_555 1_555
N19_2 C19_2 1_555 1_555
N19F Co1F 1_555 1_555
N19D Co1D 1_555 1_555
N20B C20 1_555 1_555
N20B_2 C19B_2 1_555 1_555
N20_2 C19_2 1_555 1_555
N21B Co1B 1_555 1_555
N21F Co1F 1_555 1_555
N21D Co1D 1_555 1_555
N22B C21B 1_555 1_555
N22F C21F 1_555 1_555
N22D C21D 1_555 1_555
N23B Co2 1_555 1_555
N23F Co2F 1_555 1_555
N23D Co2F 1_555 1_555
C1F N3F 1_555 1_555
C1B H1B 1_555 1_555
C1D H1D 1_555 1_555
H1F C1F 1_555 1_555
C2F N1F 1_555 1_555
C2B N1B 1_555 1_555
C2D N1D 1_555 1_555
H2F C2F 1_555 1_555
H2B C2B 1_555 1_555
H2D C2D 1_555 1_555
C3D N2B 1_555 1_555
H3D C3D 1_555 1_555
H4D C3D 1_555 1_555
C4F N4F 1_555 1_555
C4B N4B 1_555 1_555
C4D N4D 1_555 1_555
H5F C4F 1_555 1_555
H5B C4B 1_555 1_555
H5D C4D 1_555 1_555
C5F N4F 1_555 1_555
C5B N4B 1_555 1_555
C5D N4D 1_555 1_555
H6F C5F 1_555 1_555
H6B C5B 1_555 1_555
H6D C5D 1_555 1_555
C6D N6B 1_555 1_555
H7D C6D 1_555 1_555
H8D C6D 1_555 1_555
C7F N9F 1_555 1_555
C7B N7B 1_555 1_555
C7D H9D 1_555 1_555
H9F C7F 1_555 1_555
H9B C7B 1_555 1_555
C8F N7F 1_555 1_555
C8B N7B 1_555 1_555
C8D N7D 1_555 1_555
H10F C8F 1_555 1_555
H10B C8B 1_555 1_555
H10D C8D 1_555 1_555
C9D N8B 1_555 1_555
H11D C9D 1_555 1_555
H12D C9D 1_555 1_555
C10F N10F 1_555 1_555
C10B N10B 1_555 1_555
C10D N10D 1_555 1_555
H13F C10F 1_555 1_555
H13B C10B 1_555 1_555
H13D C10D 1_555 1_555
C11F N10F 1_555 1_555
C11B N10B 1_555 1_555
C11D N10D 1_555 1_555
H14F C11F 1_555 1_555
H14B C11B 1_555 1_555
H14D C11D 1_555 1_555
C12D N12B 1_555 1_555
H15D C12D 1_555 1_555
H16D C12D 1_555 1_555
C13F N14F 1_555 1_555
C13B N13B 1_555 1_555
C13D N13D 1_555 1_555
H17F C13F 1_555 1_555
H17B C13B 1_555 1_555
H17D C13D 1_555 1_555
C14F N13F 1_555 1_555
C14B N13B 1_555 1_555
C14D N13D 1_555 1_555
H18F C14F 1_555 1_555
H18B C14B 1_555 1_555
H18D C14D 1_555 1_555
C15D N15B 1_555 1_555
H19D C15D 1_555 1_555
H20D C15D 1_555 1_555
C16F N17F 1_555 1_555
C16B N16B 1_555 1_555
C16D N16D 1_555 1_555
H21F C16F 1_555 1_555
H21B C16B 1_555 1_555
H21D C16D 1_555 1_555
C17F N16F 1_555 1_555
C17B N16B 1_555 1_555
C17D N16D 1_555 1_555
H22F C17F 1_555 1_555
H22B C17B 1_555 1_555
H22D C17D 1_555 1_555
C18D N18B 1_555 1_555
H23D C18D 1_555 1_555
H24D C18D 1_555 1_555
C19B N20B 1_555 1_555
C19B_2 N19B_2 1_555 1_555
C20B N20 1_555 1_555
C20B_2 N19B_2 1_555 1_555
C20_2 N19_2 1_555 1_555
C21B N21B 1_555 1_555
C21F N21F 1_555 1_555
C21D N21D 1_555 1_555
C22B N22B 1_555 1_555
C22F N22F 1_555 1_555
C22D N22D 1_555 1_555
O2F Cl1 1_555 1_555
O6F Cl2 1_555 1_555
O6D Cl2 1_555 1_555
O6B Cl2 1_555 1_555
O9F Cl3 1_555 1_555
O11F Cl4 1_555 1_555
O11D Cl4 1_555 1_555
O11B Cl4 1_555 1_555
N2 C2 1_555 1_555
N5 C5 1_555 1_555
N8 C8 1_555 1_555
N11 C11 1_555 1_555
N17 C16 1_555 1_555
N23 C22 1_555 1_555
N2F C2F 1_555 1_555
N2B C2B 1_555 1_555
N2D C2D 1_555 1_555
N2D C3D 1_555 1_555
N5F C5F 1_555 1_555
N5B C5B 1_555 1_555
N5D C5D 1_555 1_555
N6F C4F 1_555 1_555
N6D C6D 1_555 1_555
N8F C8F 1_555 1_555
N8B C8B 1_555 1_555
N8D C8D 1_555 1_555
N8D C9D 1_555 1_555
N11F C11F 1_555 1_555
N11B C11B 1_555 1_555
N11D C11D 1_555 1_555
N12F C10F 1_555 1_555
N12D C12D 1_555 1_555
N14B C13B 1_555 1_555
N14D C13D 1_555 1_555
N15F C14F 1_555 1_555
N15D C15D 1_555 1_555
N17B C16B 1_555 1_555
N17D C16D 1_555 1_555
N18F C17F 1_555 1_555
N18D C18D 1_555 1_555
N19B C20B 1_555 1_555
N20B_2 C20_2 1_555 1_555
N20_2 C20B_2 1_555 1_555
N23B C22B 1_555 1_555
N23F C22F 1_555 1_555
N23D C22D 1_555 1_555
O11D O11B 1_555 1_555

#END
