
#######################################################################
#
#                 Cambridge Crystallographic Data Centre
#                                CCDC 
#
#######################################################################
#
# If this CIF has been generated from an entry in the Cambridge 
# Structural Database, then it will include bibliographic, chemical, 
# crystal, experimental, refinement or atomic coordinate data resulting 
# from the CCDC's data processing and validation procedures.
#
#######################################################################

data_LAYRIM
_symmetry_cell_setting           monoclinic
_symmetry_space_group_name_H-M   'P 21/n'
_symmetry_Int_Tables_number      14
_space_group_name_Hall           '-P 2yn'
loop_
_symmetry_equiv_pos_site_id
_symmetry_equiv_pos_as_xyz
1 x,y,z
2 1/2-x,1/2+y,1/2-z
3 -x,-y,-z
4 1/2+x,1/2-y,1/2+z
_cell_length_a                   9.309(2)
_cell_length_b                   11.059(4)
_cell_length_c                   22.274(7)
_cell_angle_alpha                90
_cell_angle_beta                 92.27(2)
_cell_angle_gamma                90
_cell_volume                     2291.27
loop_
_atom_site_label
_atom_site_type_symbol
_atom_site_fract_x
_atom_site_fract_y
_atom_site_fract_z
Sn1 Sn -0.43097(2) 0.22537(2) -0.42939(1)
N1 N -0.3408(3) 0.2214(2) -0.3260(1)
C1 C -0.3876(3) 0.1508(2) -0.2821(1)
C2 C -0.3305(3) 0.1540(2) -0.2237(1)
C3 C -0.2178(3) 0.2340(2) -0.2088(1)
C4 C -0.1697(3) 0.3074(3) -0.2551(1)
C5 C -0.2327(3) 0.2995(3) -0.3120(1)
N2 N -0.0255(3) 0.2593(2) -0.0314(1)
C6 C 0.0508(3) 0.2781(2) -0.0803(1)
C7 C -0.0068(3) 0.2699(2) -0.1383(1)
C8 C -0.1518(3) 0.2405(2) -0.1475(1)
C9 C -0.2303(3) 0.2195(2) -0.0969(1)
C10 C -0.1648(3) 0.2295(3) -0.0401(1)
C11 C -0.4522(3) 0.4155(3) -0.4212(1)
C12 C -0.2334(3) 0.1488(3) -0.4559(1)
C13 C -0.5992(3) 0.1011(3) -0.4145(1)
H1 H -0.4648 0.0956 -0.2916
H2 H -0.3674 0.1020 -0.1935
H3 H -0.0924 0.3633 -0.2471
H4 H -0.1979 0.3506 -0.3431
H5 H 0.1507 0.2982 -0.0746
H6 H 0.0516 0.2844 -0.1721
H7 H -0.3299 0.1976 -0.1015
H8 H -0.2211 0.2155 -0.0056
H9 H -0.5191 0.4479 -0.4509
H10 H -0.4883 0.4281 -0.3819
H11 H -0.3612 0.4556 -0.4239
H12 H -0.2280 0.1292 -0.4978
H13 H -0.1492 0.1933 -0.4430
H14 H -0.2391 0.0757 -0.4329
H15 H -0.5958 0.0429 -0.4464
H16 H -0.5979 0.0599 -0.3766
H17 H -0.6858 0.1479 -0.4193
N2C N -0.5255(3) 0.2407(2) -0.5314(1)
Sn1C Sn 0.06903(2) 0.27463(2) 0.07061(1)
S1 S -0.92288(8) 0.43856(6) -0.39969(3)
S2 S -0.78731(7) 0.45113(6) -0.28555(3)
N3 N -0.9267(2) 0.4569(2) -0.3288(1)
O1 O -1.0711(2) 0.4426(2) -0.4211(1)
O2 O -0.8417(3) 0.3331(2) -0.4159(1)
O3 O -0.6692(2) 0.5224(2) -0.3062(1)
O4 O -0.8344(2) 0.4799(2) -0.2263(1)
C14 C -0.7273(4) 0.3000(3) -0.2816(2)
C15 C -0.8364(3) 0.5640(3) -0.4305(1)
H18 H -0.6425 0.2923 -0.2560
H19 H -0.8025 0.2506 -0.2664
H20 H -0.7067 0.2741 -0.3215
H21 H -0.8426 0.5517 -0.4732
H22 H -0.8817 0.6392 -0.4209
H23 H -0.7372 0.5663 -0.4170
N4 N -0.9201(4) 0.8593(4) -0.3892(2)
C16 C -0.9513(4) 0.9427(4) -0.3643(2)
C17 C -0.9935(6) 1.0516(5) -0.3322(2)
loop_
_geom_bond_atom_site_label_1
_geom_bond_atom_site_label_2
_geom_bond_site_symmetry_1
_geom_bond_site_symmetry_2
Sn1 N1 1_555 1_555
N1 C1 1_555 1_555
C1 C2 1_555 1_555
C2 C3 1_555 1_555
C3 C4 1_555 1_555
C4 C5 1_555 1_555
C5 N1 1_555 1_555
N2 C6 1_555 1_555
C6 C7 1_555 1_555
C7 C8 1_555 1_555
C8 C3 1_555 1_555
C9 C8 1_555 1_555
C10 N2 1_555 1_555
C11 Sn1 1_555 1_555
C12 Sn1 1_555 1_555
C13 Sn1 1_555 1_555
S1 N3 1_555 1_555
S2 N3 1_555 1_555
O1 S1 1_555 1_555
O2 S1 1_555 1_555
O3 S2 1_555 1_555
O4 S2 1_555 1_555
C14 S2 1_555 1_555
C15 S1 1_555 1_555
N4 C16 1_555 1_555
C16 C17 1_555 1_555
H1 C1 1_555 1_555
H2 C2 1_555 1_555
H3 C4 1_555 1_555
H4 C5 1_555 1_555
H5 C6 1_555 1_555
H6 C7 1_555 1_555
H7 C9 1_555 1_555
H8 C10 1_555 1_555
H9 C11 1_555 1_555
H10 C11 1_555 1_555
H11 C11 1_555 1_555
H12 C12 1_555 1_555
H13 C12 1_555 1_555
H14 C12 1_555 1_555
H15 C13 1_555 1_555
H16 C13 1_555 1_555
H17 C13 1_555 1_555
H18 C14 1_555 1_555
H19 C14 1_555 1_555
H20 C14 1_555 1_555
H21 C15 1_555 1_555
H22 C15 1_555 1_555
H23 C15 1_555 1_555
N2C Sn1 1_555 1_555
Sn1C N2 1_555 1_555
C9 C10 1_555 1_555

#END
