
#######################################################################
#
#                 Cambridge Crystallographic Data Centre
#                                CCDC 
#
#######################################################################
#
# If this CIF has been generated from an entry in the Cambridge 
# Structural Database, then it will include bibliographic, chemical, 
# crystal, experimental, refinement or atomic coordinate data resulting 
# from the CCDC's data processing and validation procedures.
#
#######################################################################

data_LAYXAM
_symmetry_cell_setting           monoclinic
_symmetry_space_group_name_H-M   'C 2/c'
_symmetry_Int_Tables_number      15
_space_group_name_Hall           '-C 2yn'
loop_
_symmetry_equiv_pos_site_id
_symmetry_equiv_pos_as_xyz
1 x,y,z
2 -x,y,1/2-z
3 1/2+x,1/2+y,z
4 1/2-x,1/2+y,1/2-z
5 -x,-y,-z
6 x,-y,1/2+z
7 1/2-x,1/2-y,-z
8 1/2+x,1/2-y,1/2+z
_cell_length_a                   18.326(3)
_cell_length_b                   5.9882(9)
_cell_length_c                   21.995(3)
_cell_angle_alpha                90
_cell_angle_beta                 110.910(2)
_cell_angle_gamma                90
_cell_volume                     2254.76
loop_
_atom_site_label
_atom_site_type_symbol
_atom_site_fract_x
_atom_site_fract_y
_atom_site_fract_z
Zn1 Zn 0.5000 0.34112(7) 0.2500
N1 N 0.37392(15) 0.3812(4) 0.20786(12)
O1 O 0.5000 0.0032(5) 0.2500
O2 O 0.50634(13) 0.4021(4) 0.16359(10)
O3 O 0.52105(16) 0.7682(5) 0.15509(12)
O4 O 0.28587(12) 0.8906(4) 0.08414(12)
C1 C 0.3268(2) 0.2348(6) 0.22219(16)
H1 H 0.3491 0.1181 0.2506
C2 C 0.2470(2) 0.2515(6) 0.19635(16)
H2 H 0.2160 0.1484 0.2076
C3 C 0.21292(19) 0.4225(5) 0.15348(16)
H3 H 0.1589 0.4350 0.1350
C4 C 0.26066(17) 0.5749(5) 0.13844(15)
C5 C 0.34022(18) 0.5482(5) 0.16680(14)
H4 H 0.3723 0.6513 0.1570
C6 C 0.22477(18) 0.7596(5) 0.09099(16)
H5 H 0.1929 0.6976 0.0492
H6 H 0.1917 0.8514 0.1068
C7 C 0.26486(17) 1.0685(5) 0.04171(15)
C8 C 0.32571(18) 1.1946(5) 0.03783(16)
H7 H 0.3768 1.1576 0.0633
C9 C 0.18835(18) 1.1243(5) 0.00353(16)
H8 H 0.1469 1.0397 0.0059
C10 C 0.51304(17) 0.5755(6) 0.13387(15)
C11 C 0.50819(15) 0.5380(5) 0.06468(13)
C12 C 0.51838(16) 0.3260(5) 0.04393(14)
H9 H 0.5305 0.2079 0.0733
C13 C 0.48927(17) 0.7113(5) 0.01977(14)
H10 H 0.4817 0.8543 0.0329
Zn1F Zn 0.0000 2.15888(7) -0.2500
Zn1D Zn 0.5000 0.65888(7) -0.2500
N1F N 0.12608(15) 2.1188(4) -0.20786(12)
N1A N 0.62608(15) 0.3812(4) 0.29214(12)
O2D O 0.49366(13) 0.5979(4) -0.16359(10)
O2A O 0.49366(13) 0.4021(4) 0.33641(10)
O3D O 0.47895(16) 0.2318(5) -0.15509(12)
O4F O 0.21413(12) 1.6094(4) -0.08414(12)
C1F C 0.1732(2) 2.2652(6) -0.22219(16)
H1F H 0.1509 2.3819 -0.2506
C2F C 0.2530(2) 2.2485(6) -0.19635(16)
H2F H 0.2840 2.3516 -0.2076
C3F C 0.28708(19) 2.0775(5) -0.15348(16)
H3F H 0.3411 2.0650 -0.1350
C4F C 0.23934(17) 1.9251(5) -0.13844(15)
C5F C 0.15978(18) 1.9518(5) -0.16680(14)
H4F H 0.1277 1.8487 -0.1570
C6F C 0.27523(18) 1.7404(5) -0.09099(16)
H5F H 0.3071 1.8024 -0.0492
H6F H 0.3083 1.6486 -0.1068
C7F C 0.23514(17) 1.4315(5) -0.04171(15)
C8F C 0.17429(18) 1.3054(5) -0.03783(16)
H7F H 0.1232 1.3424 -0.0633
C9F C 0.31165(18) 1.3757(5) -0.00353(16)
H8F H 0.3531 1.4603 -0.0059
C10D C 0.48696(17) 0.4245(6) -0.13387(15)
C11D C 0.49181(15) 0.4620(5) -0.06468(13)
C12D C 0.48162(16) 0.6740(5) -0.04393(14)
H9D H 0.4695 0.7921 -0.0733
C13D C 0.51073(17) 0.2887(5) -0.01977(14)
H10D H 0.5183 0.1457 -0.0329
loop_
_geom_bond_atom_site_label_1
_geom_bond_atom_site_label_2
_geom_bond_site_symmetry_1
_geom_bond_site_symmetry_2
Zn1 N1 1_555 1_555
N1 C1 1_555 1_555
O1 Zn1 1_555 1_555
O2 Zn1 1_555 1_555
O3 C10 1_555 1_555
O4 C6 1_555 1_555
C1 H1 1_555 1_555
C2 C1 1_555 1_555
H2 C2 1_555 1_555
C3 C2 1_555 1_555
H3 C3 1_555 1_555
C4 C3 1_555 1_555
C5 N1 1_555 1_555
H4 C5 1_555 1_555
C6 C4 1_555 1_555
H5 C6 1_555 1_555
H6 C6 1_555 1_555
C7 O4 1_555 1_555
C8 C7 1_555 1_555
H7 C8 1_555 1_555
C9 C7 1_555 1_555
H8 C9 1_555 1_555
C10 O2 1_555 1_555
C11 C10 1_555 1_555
C12 C11 1_555 1_555
H9 C12 1_555 1_555
C13 C11 1_555 1_555
H10 C13 1_555 1_555
Zn1F N1F 1_555 1_555
Zn1D O2D 1_555 1_555
N1F C1F 1_555 1_555
N1A Zn1 1_555 1_555
O2D C10D 1_555 1_555
O2A Zn1 1_555 1_555
O3D C10D 1_555 1_555
O4F C6F 1_555 1_555
C1F H1F 1_555 1_555
C2F C1F 1_555 1_555
H2F C2F 1_555 1_555
C3F C2F 1_555 1_555
H3F C3F 1_555 1_555
C4F C3F 1_555 1_555
C5F N1F 1_555 1_555
H4F C5F 1_555 1_555
C6F C4F 1_555 1_555
H5F C6F 1_555 1_555
H6F C6F 1_555 1_555
C7F O4F 1_555 1_555
C8F C9 1_555 1_555
H7F C8F 1_555 1_555
C9F C8 1_555 1_555
H8F C9F 1_555 1_555
C10D C11D 1_555 1_555
C11D C12D 1_555 1_555
C12D C13 1_555 1_555
H9D C12D 1_555 1_555
C13D C12 1_555 1_555
H10D C13D 1_555 1_555
C4 C5 1_555 1_555
C4F C5F 1_555 1_555
C7F C8F 1_555 1_555
C7F C9F 1_555 1_555
C11D C13D 1_555 1_555

#END
