
#######################################################################
#
#                 Cambridge Crystallographic Data Centre
#                                CCDC 
#
#######################################################################
#
# If this CIF has been generated from an entry in the Cambridge 
# Structural Database, then it will include bibliographic, chemical, 
# crystal, experimental, refinement or atomic coordinate data resulting 
# from the CCDC's data processing and validation procedures.
#
#######################################################################

data_LAYYUG
_symmetry_cell_setting           orthorhombic
_symmetry_space_group_name_H-M   'P n a 21'
_symmetry_Int_Tables_number      33
_space_group_name_Hall           'P 2c -2n'
loop_
_symmetry_equiv_pos_site_id
_symmetry_equiv_pos_as_xyz
1 x,y,z
2 -x,-y,1/2+z
3 1/2+x,1/2-y,z
4 1/2-x,1/2+y,1/2+z
_cell_length_a                   27.084(11)
_cell_length_b                   15.626(6)
_cell_length_c                   12.320(5)
_cell_angle_alpha                90
_cell_angle_beta                 90
_cell_angle_gamma                90
_cell_volume                     5214
loop_
_atom_site_label
_atom_site_type_symbol
_atom_site_fract_x
_atom_site_fract_y
_atom_site_fract_z
Sn1 Sn 0.12051(3) 0.60719(6) 0.02101(9)
Sn2 Sn -0.22166(3) 0.75120(8) 0.06971(10)
N1 N 0.1737(5) 0.4977(7) -0.0312(8)
N2 N 0.1526(5) 0.4209(6) -0.0662(9)
N3 N 0.0163(7) 0.2209(12) -0.1860(16)
N4 N -0.1935(4) 0.6224(8) 0.1229(9)
N5 N -0.1440(4) 0.6048(8) 0.1227(9)
N6 N 0.0351(3) 0.6394(7) 0.0499(8)
O1 O 0.2057(3) 0.6460(5) 0.0266(9)
O2 O 0.2827(3) 0.6034(6) 0.0110(11)
O3 O 0.0778(4) 0.4902(7) -0.0197(8)
O4 O -0.2868(3) 0.6709(6) 0.1042(8)
O5 O -0.3125(4) 0.5390(7) 0.1542(10)
O6 O -0.1401(2) 0.7491(7) 0.0681(10)
O7 O 0.1230(2) 0.7533(6) 0.0723(10)
C1 C 0.2371(6) 0.5894(9) 0.0026(12)
C2 C 0.2195(5) 0.5024(8) -0.0337(10)
C3 C 0.2576(6) 0.4402(10) -0.0641(14)
H1 H 0.2422 0.3876 -0.0859
H2 H 0.2788 0.4297 -0.0031
H3 H 0.2768 0.4625 -0.1233
C4 C 0.1015(6) 0.4283(10) -0.0576(10)
C5 C 0.0729(6) 0.3507(10) -0.0995(11)
C6 C 0.0230(7) 0.3575(11) -0.0966(13)
H4 H 0.0077 0.4055 -0.0676
C7 C -0.0046(7) 0.2895(17) -0.1390(15)
H5 H -0.0388 0.2919 -0.1344
C8 C 0.0669(8) 0.2139(15) -0.1792(18)
H6 H 0.0822 0.1640 -0.2033
C9 C 0.0959(6) 0.2802(10) -0.1367(13)
H7 H 0.1301 0.2756 -0.1342
C10 C -0.2798(5) 0.5955(10) 0.1326(14)
C11 C -0.2260(5) 0.5639(9) 0.1472(11)
C12 C -0.2107(6) 0.4737(10) 0.1736(15)
H8 H -0.1753 0.4706 0.1773
H9 H -0.2245 0.4573 0.2423
H10 H -0.2224 0.4358 0.1180
C13 C -0.1204(4) 0.6748(10) 0.0886(11)
C14 C -0.0673(4) 0.6647(9) 0.0768(12)
C15 C -0.0373(4) 0.7260(9) 0.0217(15)
H11 H -0.0508 0.7770 -0.0035
C16 C 0.0118(5) 0.7083(9) 0.0067(15)
H12 H 0.0303 0.7458 -0.0356
C17 C 0.0076(5) 0.5892(10) 0.1034(13)
H13 H 0.0230 0.5410 0.1322
C18 C -0.0439(6) 0.5973(10) 0.1248(12)
H14 H -0.0607 0.5588 0.1690
C19 C 0.1244(4) 0.5717(10) 0.1843(11)
C20 C 0.1312(8) 0.6290(15) 0.2640(14)
H15 H 0.1368 0.6862 0.2471
C21 C 0.1300(11) 0.6030(17) 0.3713(17)
H16 H 0.1322 0.6454 0.4242
C22 C 0.1259(7) 0.5232(15) 0.4048(15)
H17 H 0.1287 0.5090 0.4779
C23 C 0.1177(9) 0.4637(14) 0.3294(19)
H18 H 0.1122 0.4069 0.3481
C24 C 0.1177(8) 0.4903(11) 0.2204(13)
H19 H 0.1126 0.4483 0.1680
C25 C 0.1158(5) 0.6505(9) -0.1430(11)
C26 C 0.0784(8) 0.6192(11) -0.2081(15)
H20 H 0.0560 0.5795 -0.1809
C27 C 0.0744(9) 0.6479(17) -0.3160(15)
H21 H 0.0498 0.6275 -0.3619
C28 C 0.1092(12) 0.7089(17) -0.3519(17)
H22 H 0.1090 0.7276 -0.4235
C29 C 0.1415(9) 0.7385(15) -0.2836(19)
H23 H 0.1619 0.7821 -0.3087
C30 C 0.1485(7) 0.7136(12) -0.1826(15)
H24 H 0.1736 0.7363 -0.1398
C31 C -0.2216(5) 0.8059(12) 0.2268(13)
C32 C -0.2465(8) 0.7776(12) 0.3083(12)
H25 H -0.2683 0.7326 0.2971
C33 C -0.2420(10) 0.8124(19) 0.4153(16)
H26 H -0.2588 0.7879 0.4733
C34 C -0.2147(11) 0.8770(17) 0.430(2)
H27 H -0.2133 0.9018 0.4981
C35 C -0.1857(9) 0.9136(15) 0.343(3)
H28 H -0.1653 0.9608 0.3534
C36 C -0.1902(8) 0.8747(15) 0.2451(18)
H29 H -0.1713 0.8950 0.1875
C37 C -0.2228(5) 0.7186(9) -0.0987(11)
C38 C -0.2427(9) 0.6459(12) -0.1382(15)
H30 H -0.2594 0.6097 -0.0910
C39 C -0.2393(9) 0.6236(14) -0.245(2)
H31 H -0.2533 0.5728 -0.2693
C40 C -0.2151(8) 0.6764(16) -0.3164(18)
H32 H -0.2122 0.6607 -0.3890
C41 C -0.1961(8) 0.7492(14) -0.2824(16)
H33 H -0.1812 0.7856 -0.3323
C42 C -0.1978(6) 0.7725(13) -0.1755(14)
H34 H -0.1828 0.8230 -0.1526
H36 H 0.114(3) 0.7863(13) 0.015(3)
H38 H 0.1535(10) 0.7670(19) 0.095(6)
Sn2B Sn 0.27834(3) 0.74880(8) 0.06971(10)
O1B O -0.2943(3) 0.8540(5) 0.0266(9)
O2B O -0.2173(3) 0.8966(6) 0.0110(11)
O8 O 0.0613(9) 0.8452(13) 0.1866(19)
H35 H 0.057(6) 0.889(6) 0.234(8)
H37 H 0.048(6) 0.860(8) 0.122(5)
loop_
_geom_bond_atom_site_label_1
_geom_bond_atom_site_label_2
_geom_bond_site_symmetry_1
_geom_bond_site_symmetry_2
Sn1 N1 1_555 1_555
Sn2 N4 1_555 1_555
N1 N2 1_555 1_555
N2 C4 1_555 1_555
N3 C7 1_555 1_555
N4 N5 1_555 1_555
N5 C13 1_555 1_555
N6 Sn1 1_555 1_555
O1 Sn1 1_555 1_555
O2 C1 1_555 1_555
O3 Sn1 1_555 1_555
O4 Sn2 1_555 1_555
O5 C10 1_555 1_555
O6 Sn2 1_555 1_555
O7 Sn1 1_555 1_555
O8 H35 1_555 1_555
C1 O1 1_555 1_555
C2 N1 1_555 1_555
C3 C2 1_555 1_555
H1 C3 1_555 1_555
H2 C3 1_555 1_555
H3 C3 1_555 1_555
C4 O3 1_555 1_555
C5 C4 1_555 1_555
C6 C5 1_555 1_555
H4 C6 1_555 1_555
C7 C6 1_555 1_555
H5 C7 1_555 1_555
C8 N3 1_555 1_555
H6 C8 1_555 1_555
C9 C5 1_555 1_555
H7 C9 1_555 1_555
C10 O4 1_555 1_555
C11 N4 1_555 1_555
C12 C11 1_555 1_555
H8 C12 1_555 1_555
H9 C12 1_555 1_555
H10 C12 1_555 1_555
C13 O6 1_555 1_555
C14 C13 1_555 1_555
C15 C14 1_555 1_555
H11 C15 1_555 1_555
C16 N6 1_555 1_555
H12 C16 1_555 1_555
C17 N6 1_555 1_555
H13 C17 1_555 1_555
C18 C14 1_555 1_555
H14 C18 1_555 1_555
C19 Sn1 1_555 1_555
C20 C19 1_555 1_555
H15 C20 1_555 1_555
C21 C20 1_555 1_555
H16 C21 1_555 1_555
C22 C21 1_555 1_555
H17 C22 1_555 1_555
C23 C22 1_555 1_555
H18 C23 1_555 1_555
C24 C19 1_555 1_555
H19 C24 1_555 1_555
C25 Sn1 1_555 1_555
C26 C25 1_555 1_555
H20 C26 1_555 1_555
C27 C26 1_555 1_555
H21 C27 1_555 1_555
C28 C27 1_555 1_555
H22 C28 1_555 1_555
C29 C28 1_555 1_555
H23 C29 1_555 1_555
C30 C25 1_555 1_555
H24 C30 1_555 1_555
C31 Sn2 1_555 1_555
C32 C31 1_555 1_555
H25 C32 1_555 1_555
C33 C32 1_555 1_555
H26 C33 1_555 1_555
C34 C33 1_555 1_555
H27 C34 1_555 1_555
C35 C34 1_555 1_555
H28 C35 1_555 1_555
C36 C31 1_555 1_555
H29 C36 1_555 1_555
C37 Sn2 1_555 1_555
C38 C37 1_555 1_555
H30 C38 1_555 1_555
C39 C38 1_555 1_555
H31 C39 1_555 1_555
C40 C39 1_555 1_555
H32 C40 1_555 1_555
C41 C40 1_555 1_555
H33 C41 1_555 1_555
C42 C37 1_555 1_555
H34 C42 1_555 1_555
H36 O7 1_555 1_555
H37 O8 1_555 1_555
H38 O7 1_555 1_555
Sn2B O1 1_555 1_555
O1B Sn2 1_555 1_555
O2B Sn2 1_555 1_555
O2 Sn2B 1_555 1_555
C1 C2 1_555 1_555
C8 C9 1_555 1_555
C10 C11 1_555 1_555
C15 C16 1_555 1_555
C17 C18 1_555 1_555
C23 C24 1_555 1_555
C29 C30 1_555 1_555
C35 C36 1_555 1_555
C41 C42 1_555 1_555

#END
