
#######################################################################
#
#                 Cambridge Crystallographic Data Centre
#                                CCDC 
#
#######################################################################
#
# If this CIF has been generated from an entry in the Cambridge 
# Structural Database, then it will include bibliographic, chemical, 
# crystal, experimental, refinement or atomic coordinate data resulting 
# from the CCDC's data processing and validation procedures.
#
#######################################################################

data_LAYZOC
_symmetry_cell_setting           orthorhombic
_symmetry_space_group_name_H-M   'P n m a'
_symmetry_Int_Tables_number      62
_space_group_name_Hall           '-P 2ac 2n'
loop_
_symmetry_equiv_pos_site_id
_symmetry_equiv_pos_as_xyz
1 x,y,z
2 1/2-x,-y,1/2+z
3 1/2+x,1/2-y,1/2-z
4 -x,1/2+y,-z
5 -x,-y,-z
6 1/2+x,y,1/2-z
7 1/2-x,1/2+y,1/2+z
8 x,1/2-y,z
_cell_length_a                   8.112(3)
_cell_length_b                   8.5868(15)
_cell_length_c                   11.1003(12)
_cell_angle_alpha                90
_cell_angle_beta                 90
_cell_angle_gamma                90
_cell_volume                     773.204
loop_
_atom_site_label
_atom_site_type_symbol
_atom_site_fract_x
_atom_site_fract_y
_atom_site_fract_z
Ca1 Ca -0.02182(12) 0.7500 0.70661(9)
O1 O 0.0988(4) 0.7500 0.5138(3)
O2 O 0.2700(4) 0.7500 0.6588(3)
O3 O -0.0205(3) 0.4625(3) 0.6945(2)
H1 H -0.0964 0.4268 0.7395
H2 H -0.0378 0.4342 0.6222
N1 N 0.5957(5) 0.7500 0.5871(4)
N2 N 0.7480(5) 0.7500 0.5622(4)
N3 N 0.7663(5) 0.7500 0.4480(4)
N4 N 0.6251(5) 0.7500 0.3925(4)
C1 C 0.2359(6) 0.7500 0.5479(5)
C2 C 0.3572(6) 0.7500 0.4523(4)
H3 H 0.3364 0.6592 0.4026
C3 C 0.5261(6) 0.7500 0.4809(5)
Ca1B Ca 0.47818(12) 0.7500 0.79339(9)
Ca1_2 Ca 0.97818(12) 0.7500 0.70661(9)
O2B O -0.2300(4) 0.7500 0.8412(3)
O3G O -0.0205(3) 1.0375(3) 0.6945(2)
H1G H -0.0964 1.0732 0.7395
H2G H -0.0378 1.0658 0.6222
N1B N 0.0957(5) 0.7500 0.9129(4)
N2_2 N -0.2520(5) 0.7500 0.5622(4)
H3G H 0.3364 0.8408 0.4026
loop_
_geom_bond_atom_site_label_1
_geom_bond_atom_site_label_2
_geom_bond_site_symmetry_1
_geom_bond_site_symmetry_2
Ca1 O1 1_555 1_555
O1 C1 1_555 1_555
O2 Ca1 1_555 1_555
O3 Ca1 1_555 1_555
H1 O3 1_555 1_555
H2 O3 1_555 1_555
N1 N2 1_555 1_555
N2 N3 1_555 1_555
N3 N4 1_555 1_555
N4 C3 1_555 1_555
C1 O2 1_555 1_555
C2 C1 1_555 1_555
H3 C2 1_555 1_555
C3 N1 1_555 1_555
Ca1B O2 1_555 1_555
Ca1_2 N2 1_555 1_555
O2B Ca1 1_555 1_555
O3G Ca1 1_555 1_555
H1G O3G 1_555 1_555
H2G O3G 1_555 1_555
N1B Ca1 1_555 1_555
N2_2 Ca1 1_555 1_555
H3G C2 1_555 1_555
N1 Ca1B 1_555 1_555
C2 C3 1_555 1_555

#END
