
#######################################################################
#
#                 Cambridge Crystallographic Data Centre
#                                CCDC 
#
#######################################################################
#
# If this CIF has been generated from an entry in the Cambridge 
# Structural Database, then it will include bibliographic, chemical, 
# crystal, experimental, refinement or atomic coordinate data resulting 
# from the CCDC's data processing and validation procedures.
#
#######################################################################

data_LAYZUI
_symmetry_cell_setting           monoclinic
_symmetry_space_group_name_H-M   'C 2/c'
_symmetry_Int_Tables_number      15
_space_group_name_Hall           '-C 2yn'
loop_
_symmetry_equiv_pos_site_id
_symmetry_equiv_pos_as_xyz
1 x,y,z
2 -x,y,1/2-z
3 1/2+x,1/2+y,z
4 1/2-x,1/2+y,1/2-z
5 -x,-y,-z
6 x,-y,1/2+z
7 1/2-x,1/2-y,-z
8 1/2+x,1/2-y,1/2+z
_cell_length_a                   13.724(3)
_cell_length_b                   7.4131(15)
_cell_length_c                   15.120(3)
_cell_angle_alpha                90
_cell_angle_beta                 94.73(3)
_cell_angle_gamma                90
_cell_volume                     1533.03
loop_
_atom_site_label
_atom_site_type_symbol
_atom_site_fract_x
_atom_site_fract_y
_atom_site_fract_z
Ba1 Ba 0.667990(17) 0.15096(3) 0.300930(15)
N1 N 0.5143(3) 0.4045(5) 0.3646(3)
N2 N 0.4188(3) 0.3966(5) 0.3369(2)
N3 N 0.3758(3) 0.5509(5) 0.3537(2)
N4 N 0.4429(3) 0.6615(4) 0.3933(3)
O1 O 0.6957(2) 0.7837(4) 0.31696(19)
O2 O 0.74088(14) 0.5038(2) 0.35182(12)
O3 O 0.52766(14) 0.0199(2) 0.15925(12)
H1 H 0.4975 -0.0685 0.1802
H2 H 0.5110 0.0416 0.1049
O4 O 0.65664(14) 0.1147(2) 0.48503(12)
H3 H 0.6949 0.0874 0.5302
H4 H 0.6213 0.1861 0.5126
C1 C 0.6925(3) 0.6460(5) 0.3630(3)
C2 C 0.6220(3) 0.6435(5) 0.4359(3)
H5 H 0.6487 0.5702 0.4852
H6 H 0.6127 0.7650 0.4575
C3 C 0.5270(3) 0.5682(5) 0.3995(3)
Ba1A Ba 0.332010(17) 0.15096(3) 0.199070(15)
Ba1B Ba 0.167990(17) 0.65096(3) 0.300930(15)
Ba1_2 Ba 0.667990(17) 1.15096(3) 0.300930(15)
Ba1C Ba 0.832010(17) 0.65096(3) 0.199070(15)
N2A N 0.5812(3) 0.3966(5) 0.1631(2)
N3B N 0.8758(3) 0.0509(5) 0.3537(2)
O1_2 O 0.6957(2) -0.2163(4) 0.31696(19)
O1C O 0.8043(2) 0.2837(4) 0.18304(19)
O2C O 0.75912(14) 0.0038(2) 0.14818(12)
O3A O 0.47234(14) 0.0199(2) 0.34075(12)
H1A H 0.5025 -0.0685 0.3198
H2A H 0.4890 0.0416 0.3951
loop_
_geom_bond_atom_site_label_1
_geom_bond_atom_site_label_2
_geom_bond_site_symmetry_1
_geom_bond_site_symmetry_2
Ba1 N1 1_555 1_555
N1 N2 1_555 1_555
N2 N3 1_555 1_555
N3 N4 1_555 1_555
N4 C3 1_555 1_555
O1 C1 1_555 1_555
O2 Ba1 1_555 1_555
O3 Ba1 1_555 1_555
H1 O3 1_555 1_555
H2 O3 1_555 1_555
O4 Ba1 1_555 1_555
H3 O4 1_555 1_555
H4 O4 1_555 1_555
C1 O2 1_555 1_555
C2 C1 1_555 1_555
H5 C2 1_555 1_555
H6 C2 1_555 1_555
C3 N1 1_555 1_555
Ba1A N2 1_555 1_555
Ba1B N3 1_555 1_555
Ba1_2 O1 1_555 1_555
Ba1C O1 1_555 1_555
N2A Ba1 1_555 1_555
N3B Ba1 1_555 1_555
O1_2 Ba1 1_555 1_555
O1C Ba1 1_555 1_555
O2C Ba1 1_555 1_555
O3A Ba1 1_555 1_555
H1A O3A 1_555 1_555
H2A O3A 1_555 1_555
O2 Ba1C 1_555 1_555
O3 Ba1A 1_555 1_555
C2 C3 1_555 1_555
Ba1A O3A 1_555 1_555
Ba1C O1C 1_555 1_555

#END
