
#######################################################################
#
#                 Cambridge Crystallographic Data Centre
#                                CCDC 
#
#######################################################################
#
# If this CIF has been generated from an entry in the Cambridge 
# Structural Database, then it will include bibliographic, chemical, 
# crystal, experimental, refinement or atomic coordinate data resulting 
# from the CCDC's data processing and validation procedures.
#
#######################################################################

data_LAYZUH
_symmetry_cell_setting           triclinic
_symmetry_space_group_name_H-M   'P -1'
_symmetry_Int_Tables_number      2
_space_group_name_Hall           '-P 1'
loop_
_symmetry_equiv_pos_site_id
_symmetry_equiv_pos_as_xyz
1 x,y,z
2 -x,-y,-z
_cell_length_a                   9.22740(10)
_cell_length_b                   11.0681(2)
_cell_length_c                   11.06780(10)
_cell_angle_alpha                119.5250(10)
_cell_angle_beta                 91.5900(10)
_cell_angle_gamma                104.6890(10)
_cell_volume                     935.629
loop_
_atom_site_label
_atom_site_type_symbol
_atom_site_fract_x
_atom_site_fract_y
_atom_site_fract_z
Zn1 Zn -0.46571(9) -0.39244(9) -0.06046(9)
N1 N -0.6448(6) -0.3008(6) -0.0008(6)
N2 N -0.3482(7) -0.1599(7) 0.0431(7)
O1 O -0.4426(6) -0.4339(6) -0.2716(6)
O2 O -0.2650(6) -0.4415(6) -0.1418(5)
O3 O 0.8266(7) -0.2845(6) -0.7572(6)
O4 O 0.5868(6) -0.3945(5) -0.8770(5)
C1 C -0.7906(9) -0.3715(9) -0.0185(9)
H1 H -0.8241 -0.4725 -0.0772
C2 C -0.8958(9) -0.3005(10) 0.0474(10)
H2 H -0.9974 -0.3535 0.0316
C3 C -0.8479(10) -0.1524(10) 0.1352(9)
H3 H -0.9162 -0.1047 0.1824
C4 C -0.6965(9) -0.0724(9) 0.1543(8)
C5 C -0.6356(12) 0.0831(10) 0.2430(10)
H4 H -0.7003 0.1362 0.2899
C6 C -0.4907(13) 0.1535(10) 0.2601(11)
H5 H -0.4563 0.2547 0.3160
C7 C -0.3855(10) 0.0760(8) 0.1937(9)
C8 C -0.2276(12) 0.1414(11) 0.2110(11)
H6 H -0.1862 0.2422 0.2670
C9 C -0.1359(11) 0.0596(11) 0.1472(11)
H7 H -0.0322 0.1033 0.1585
C10 C -0.2002(10) -0.0931(10) 0.0634(10)
H8 H -0.1367 -0.1493 0.0206
C11 C -0.4377(9) -0.0769(8) 0.1057(8)
C12 C -0.5977(8) -0.1527(8) 0.0850(8)
C13 C -0.3127(8) -0.4462(8) -0.2515(8)
C14 C -0.2138(8) -0.4647(8) -0.3594(7)
C15 C -0.2447(9) -0.4354(9) -0.4675(8)
H9 H -0.3330 -0.4121 -0.4759
C16 C -0.1475(9) -0.4408(9) -0.5585(8)
H10 H -0.1675 -0.4172 -0.6257
C17 C -0.0155(8) -0.4822(8) -0.5515(7)
C18 C -0.0854(8) -0.5045(8) -0.3509(8)
H11 H -0.0644 -0.5230 -0.2799
C19 C 0.6920(8) -0.2897(8) -0.7689(8)
C20 C 0.6425(8) -0.1683(8) -0.6584(7)
C21 C 0.4918(9) -0.1839(8) -0.6485(7)
H12 H 0.4192 -0.2730 -0.7104
C22 C 0.4440(8) -0.0684(8) -0.5470(7)
C23 C 0.7114(9) 0.0824(8) -0.4647(8)
H13 H 0.7854 0.1712 -0.4046
C24 C 0.7538(9) -0.0323(8) -0.5625(8)
H14 H 0.8565 -0.0216 -0.5667
Zn1A Zn 0.46571(9) -0.60756(9) -0.93954(9)
Zn1_2 Zn 0.53429(9) -0.39244(9) -1.06046(9)
Zn1_3 Zn 0.53429(9) 0.60756(9) -0.06046(9)
Zn1A_2 Zn 0.46571(9) 0.39244(9) 0.06046(9)
N1A N 0.6448(6) -0.6992(6) -0.9992(6)
N2A N 0.3482(7) -0.8401(7) -1.0431(7)
O1A O 0.4426(6) -0.5661(6) -0.7284(6)
O2A O 0.2650(6) -0.5585(6) -0.8582(5)
O3A O 0.1734(7) 0.2845(6) -0.2428(6)
O4A O -0.5868(6) -0.6055(5) -0.1230(5)
O4_2 O -0.4132(6) -0.3945(5) 0.1230(5)
O4A_2 O 0.4132(6) -0.6055(5) -1.1230(5)
O4A_3 O 0.4132(6) 0.3945(5) -0.1230(5)
C1A C 0.7906(9) -0.6285(9) -0.9815(9)
H1A H 0.8241 -0.5275 -0.9228
C2A C 0.8958(9) -0.6995(10) -1.0474(10)
H2A H 0.9974 -0.6465 -1.0316
C3A C 0.8479(10) -0.8476(10) -1.1352(9)
H3A H 0.9162 -0.8953 -1.1824
C4A C 0.6965(9) -0.9276(9) -1.1543(8)
C5A C 0.6356(12) -1.0831(10) -1.2430(10)
H4A H 0.7003 -1.1362 -1.2899
C6A C 0.4907(13) -1.1535(10) -1.2601(11)
H5A H 0.4563 -1.2547 -1.3160
C7A C 0.3855(10) -1.0760(8) -1.1937(9)
C8A C 0.2276(12) -1.1414(11) -1.2110(11)
H6A H 0.1862 -1.2422 -1.2670
C9A C 0.1359(11) -1.0596(11) -1.1472(11)
H7A H 0.0322 -1.1033 -1.1585
C10A C 0.2002(10) -0.9069(10) -1.0634(10)
H8A H 0.1367 -0.8507 -1.0206
C11A C 0.4377(9) -0.9231(8) -1.1057(8)
C12A C 0.5977(8) -0.8473(8) -1.0850(8)
C13A C 0.3127(8) -0.5538(8) -0.7485(8)
C14A C 0.2138(8) -0.5353(8) -0.6406(7)
C15A C 0.2447(9) -0.5646(9) -0.5325(8)
H9A H 0.3330 -0.5879 -0.5241
C16A C 0.1475(9) -0.5592(9) -0.4415(8)
H10A H 0.1675 -0.5828 -0.3743
C17A C 0.0155(8) -0.5178(8) -0.4485(7)
C18A C 0.0854(8) -0.4955(8) -0.6491(8)
H11A H 0.0644 -0.4770 -0.7201
C19A C 0.3080(8) 0.2897(8) -0.2311(8)
C20A C 0.3575(8) 0.1683(8) -0.3416(7)
C21A C 0.5082(9) 0.1839(8) -0.3515(7)
H12A H 0.5808 0.2730 -0.2896
C22A C 0.5560(8) 0.0684(8) -0.4530(7)
C23A C 0.2886(9) -0.0824(8) -0.5353(8)
H13A H 0.2146 -0.1712 -0.5954
C24A C 0.2462(9) 0.0323(8) -0.4375(8)
H14A H 0.1435 0.0216 -0.4333
loop_
_geom_bond_atom_site_label_1
_geom_bond_atom_site_label_2
_geom_bond_site_symmetry_1
_geom_bond_site_symmetry_2
Zn1 N1 1_555 1_555
N1 C1 1_555 1_555
N2 Zn1 1_555 1_555
O1 Zn1 1_555 1_555
O2 Zn1 1_555 1_555
O3 C19 1_555 1_555
O4 C19 1_555 1_555
C1 H1 1_555 1_555
C2 C1 1_555 1_555
H2 C2 1_555 1_555
C3 C2 1_555 1_555
H3 C3 1_555 1_555
C4 C3 1_555 1_555
C5 C4 1_555 1_555
H4 C5 1_555 1_555
C6 C5 1_555 1_555
H5 C6 1_555 1_555
C7 C6 1_555 1_555
C8 C7 1_555 1_555
H6 C8 1_555 1_555
C9 C8 1_555 1_555
H7 C9 1_555 1_555
C10 N2 1_555 1_555
H8 C10 1_555 1_555
C11 N2 1_555 1_555
C12 N1 1_555 1_555
C13 O1 1_555 1_555
C14 C13 1_555 1_555
C15 C14 1_555 1_555
H9 C15 1_555 1_555
C16 C15 1_555 1_555
H10 C16 1_555 1_555
C17 C16 1_555 1_555
C18 C14 1_555 1_555
H11 C18 1_555 1_555
C19 C20 1_555 1_555
C20 C21 1_555 1_555
C21 H12 1_555 1_555
C22 C21 1_555 1_555
C23 H13 1_555 1_555
C24 C20 1_555 1_555
H14 C24 1_555 1_555
Zn1A O4 1_555 1_555
Zn1_2 O4 1_555 1_555
Zn1_3 O4A_3 1_555 1_555
Zn1A_2 O4A_3 1_555 1_555
N1A Zn1A 1_555 1_555
N2A Zn1A 1_555 1_555
O1A Zn1A 1_555 1_555
O2A Zn1A 1_555 1_555
O3A C19A 1_555 1_555
O4A Zn1 1_555 1_555
O4_2 Zn1 1_555 1_555
O4A_2 Zn1A 1_555 1_555
O4A_3 C19A 1_555 1_555
C1A N1A 1_555 1_555
H1A C1A 1_555 1_555
C2A C1A 1_555 1_555
H2A C2A 1_555 1_555
C3A C2A 1_555 1_555
H3A C3A 1_555 1_555
C4A C3A 1_555 1_555
C5A C4A 1_555 1_555
H4A C5A 1_555 1_555
C6A C5A 1_555 1_555
H5A C6A 1_555 1_555
C7A C6A 1_555 1_555
C8A C7A 1_555 1_555
H6A C8A 1_555 1_555
C9A C8A 1_555 1_555
H7A C9A 1_555 1_555
C10A N2A 1_555 1_555
H8A C10A 1_555 1_555
C11A N2A 1_555 1_555
C12A N1A 1_555 1_555
C13A O1A 1_555 1_555
C14A C13A 1_555 1_555
C15A C14A 1_555 1_555
H9A C15A 1_555 1_555
C16A C15A 1_555 1_555
H10A C16A 1_555 1_555
C17A C17 1_555 1_555
C18A C17 1_555 1_555
H11A C18A 1_555 1_555
C19A C20A 1_555 1_555
C20A C21A 1_555 1_555
C21A H12A 1_555 1_555
C22A C22 1_555 1_555
C23A C22 1_555 1_555
H13A C23A 1_555 1_555
C24A C20A 1_555 1_555
H14A C24A 1_555 1_555
O2 C13 1_555 1_555
C4 C12 1_555 1_555
C7 C11 1_555 1_555
C9 C10 1_555 1_555
C11 C12 1_555 1_555
C18 C17A 1_555 1_555
C23 C24 1_555 1_555
C23 C22A 1_555 1_555
Zn1_2 O4A_2 1_555 1_555
O2A C13A 1_555 1_555
C4A C12A 1_555 1_555
C7A C11A 1_555 1_555
C9A C10A 1_555 1_555
C11A C12A 1_555 1_555
C14A C18A 1_555 1_555
C16A C17A 1_555 1_555
C21A C22A 1_555 1_555
C23A C24A 1_555 1_555

#END
