
#######################################################################
#
#                 Cambridge Crystallographic Data Centre
#                                CCDC 
#
#######################################################################
#
# If this CIF has been generated from an entry in the Cambridge 
# Structural Database, then it will include bibliographic, chemical, 
# crystal, experimental, refinement or atomic coordinate data resulting 
# from the CCDC's data processing and validation procedures.
#
#######################################################################

data_LAYZIW
_symmetry_cell_setting           orthorhombic
_symmetry_space_group_name_H-M   'P c a 21'
_symmetry_Int_Tables_number      29
_space_group_name_Hall           'P 2c -2ac'
loop_
_symmetry_equiv_pos_site_id
_symmetry_equiv_pos_as_xyz
1 x,y,z
2 -x,-y,1/2+z
3 1/2+x,-y,z
4 1/2-x,y,1/2+z
_cell_length_a                   9.4668(19)
_cell_length_b                   8.3320(17)
_cell_length_c                   8.3760(17)
_cell_angle_alpha                90
_cell_angle_beta                 90
_cell_angle_gamma                90
_cell_volume                     660.677
loop_
_atom_site_label
_atom_site_type_symbol
_atom_site_fract_x
_atom_site_fract_y
_atom_site_fract_z
Mg1 Mg 0.06712(9) 0.75833(11) 0.3164(2)
N1 N 0.1920(3) 0.5352(3) 0.2966(3)
N2 N 0.1458(3) 0.3996(3) 0.2254(3)
N3 N 0.3217(3) 0.5149(3) 0.3489(3)
N4 N 0.3643(2) 0.3657(3) 0.3098(4)
C1 C 0.2537(3) 0.2991(4) 0.2360(4)
C2 C 0.2497(3) 0.1308(4) 0.1733(4)
H1 H 0.1520 0.0999 0.1563
H2 H 0.2971 0.1277 0.0707
C3 C 0.3183(3) 0.0106(3) 0.2833(4)
O1 O 0.4407(2) 0.0378(2) 0.3337(3)
O2 O 0.25090(13) -0.11568(15) 0.3188(2)
O3 O 0.07808(13) 0.73230(15) 0.5585(2)
H3 H 0.0098 0.7026 0.6173
H4 H 0.1445 0.7633 0.6194
O4 O 0.06112(13) 0.75576(15) 0.0646(2)
H5 H 0.0727 0.6631 0.0243
H6 H 0.0869 0.8353 0.0082
Mg1B Mg 0.56712(9) 0.24167(11) 0.3164(2)
Mg1_2 Mg 0.06712(9) -0.24167(11) 0.3164(2)
N4B N -0.1357(2) 0.6343(3) 0.3098(4)
O1B O -0.0593(2) 0.9622(2) 0.3337(3)
O2_2 O 0.25090(13) 0.88432(15) 0.3188(2)
loop_
_geom_bond_atom_site_label_1
_geom_bond_atom_site_label_2
_geom_bond_site_symmetry_1
_geom_bond_site_symmetry_2
Mg1 N1 1_555 1_555
N1 N2 1_555 1_555
N2 C1 1_555 1_555
N3 N1 1_555 1_555
N4 N3 1_555 1_555
C1 N4 1_555 1_555
C2 C1 1_555 1_555
H1 C2 1_555 1_555
H2 C2 1_555 1_555
C3 C2 1_555 1_555
O1 C3 1_555 1_555
O2 C3 1_555 1_555
O3 Mg1 1_555 1_555
H3 O3 1_555 1_555
H4 O3 1_555 1_555
O4 Mg1 1_555 1_555
H5 O4 1_555 1_555
H6 O4 1_555 1_555
Mg1B N4 1_555 1_555
Mg1_2 O2 1_555 1_555
N4B Mg1 1_555 1_555
O1B Mg1 1_555 1_555
O2_2 Mg1 1_555 1_555
O1 Mg1B 1_555 1_555

#END
