
#######################################################################
#
#                 Cambridge Crystallographic Data Centre
#                                CCDC 
#
#######################################################################
#
# If this CIF has been generated from an entry in the Cambridge 
# Structural Database, then it will include bibliographic, chemical, 
# crystal, experimental, refinement or atomic coordinate data resulting 
# from the CCDC's data processing and validation procedures.
#
#######################################################################

data_LAZBUL
_symmetry_cell_setting           monoclinic
_symmetry_space_group_name_H-M   'P 21/n'
_symmetry_Int_Tables_number      14
_space_group_name_Hall           '-P 2yn'
loop_
_symmetry_equiv_pos_site_id
_symmetry_equiv_pos_as_xyz
1 x,y,z
2 1/2-x,1/2+y,1/2-z
3 -x,-y,-z
4 1/2+x,1/2-y,1/2+z
_cell_length_a                   11.363(3)
_cell_length_b                   18.829(4)
_cell_length_c                   11.976(3)
_cell_angle_alpha                90
_cell_angle_beta                 110.736(3)
_cell_angle_gamma                90
_cell_volume                     2396.33
loop_
_atom_site_label
_atom_site_type_symbol
_atom_site_fract_x
_atom_site_fract_y
_atom_site_fract_z
Sr1 Sr 0.93386(5) 0.78012(3) 0.89936(5)
B1 B 1.0158(6) 0.6410(4) 1.1253(6)
C1 C 0.9281(5) 0.6904(3) 1.2589(5)
C2 C 1.3093(5) 0.6986(3) 1.0833(5)
C3 C 1.1188(5) 0.6210(3) 0.9888(5)
C4 C 0.9967(5) 0.6197(3) 0.7604(5)
C5 C 1.0216(6) 0.5845(3) 1.3955(5)
C6 C 1.0453(6) 0.5788(3) 0.8769(5)
H1 H 1.0991 0.5408 0.8679
H2 H 0.9740 0.5568 0.8898
C7 C 1.2292(5) 0.6605(3) 0.9738(5)
H3 H 1.1971 0.6945 0.9093
H4 H 1.2811 0.6267 0.9508
C8 C 0.8154(6) 0.8021(3) 1.1486(6)
C9 C 0.8769(6) 0.7643(3) 1.2661(6)
H5 H 0.8159 0.7605 1.3055
H6 H 0.9456 0.7935 1.3161
C10 C 0.9669(6) 0.6577(3) 1.3855(5)
H7 H 1.0282 0.6887 1.4412
H8 H 0.8935 0.6560 1.4089
C11 C 0.8312(5) 0.6455(3) 1.1648(5)
C12 C 1.1618(6) 0.5685(3) 1.0917(5)
O1 O 0.8281(5) 0.7847(3) 1.0561(4)
O2 O 1.0395(3) 0.66959(19) 1.0228(3)
O3 O 0.9787(4) 0.6849(2) 0.7633(3)
O4 O 1.3090(4) 0.6855(2) 1.1820(3)
O5 O 0.7219(4) 0.7113(2) 0.8160(4)
O6 O 1.1081(5) 0.8297(3) 0.8296(4)
O7 O 1.0994(4) 0.5787(2) 1.1642(3)
O8 O 1.0319(4) 0.6920(2) 1.2205(3)
O9 O 0.8802(4) 0.6175(2) 1.0923(3)
O10 O 0.7462(5) 0.8547(3) 1.1572(4)
O11 O 0.8626(5) 0.9129(3) 0.8923(5)
O12 O 1.1031(5) 0.8434(3) 1.0779(4)
O13 O 0.9733(4) 0.5858(2) 0.6647(4)
O14 O 1.3776(5) 0.7492(3) 1.0623(4)
H9 H 1.4077 0.7737 1.1223
O15 O 0.7220(4) 0.6384(3) 1.1547(4)
O16 O 1.2398(4) 0.5221(2) 1.1050(4)
O17 O 0.9444(4) 0.5381(2) 1.3271(4)
H10 H 0.9822 0.5009 1.3275
O18 O 1.1275(4) 0.5700(2) 1.4630(4)
H17 H 0.7178 0.6843 0.8707
H18 H 0.6468 0.7338 0.8016
H19 H 1.1580 0.8123 1.0847
H20 H 1.1397 0.8142 1.1573
H21 H 1.1555 0.8311 0.7857
H22 H 1.0423 0.8347 0.7748
H23 H 0.8279 0.8721 0.8719
H24 H 0.9094 0.9378 0.8695
Sr1C Sr 1.43386(5) 0.71988(3) 1.39936(5)
O4C O 0.8090(4) 0.8145(2) 0.6820(3)
O19 O 0.5188(8) 0.4724(4) 0.3480(7)
H13 H 0.490(7) 0.441(5) 0.398(4)
H14 H 0.4500(15) 0.4638(9) 0.2691(15)
O20 O 0.3855(6) 0.4021(4) 0.0981(6)
H15 H 0.4394 0.4073 0.1966
H16 H 0.3874 0.4326 0.0852
O21 O 0.2259(7) 0.9371(5) 0.9802(8)
H11 H 0.169(8) 0.971(4) 0.994(11)
H12 H 0.174(8) 0.895(3) 0.955(10)
loop_
_geom_bond_atom_site_label_1
_geom_bond_atom_site_label_2
_geom_bond_site_symmetry_1
_geom_bond_site_symmetry_2
Sr1 O1 1_555 1_555
B1 O2 1_555 1_555
C1 C9 1_555 1_555
C2 C7 1_555 1_555
C3 C6 1_555 1_555
C4 C6 1_555 1_555
C5 C10 1_555 1_555
C6 H1 1_555 1_555
H2 C6 1_555 1_555
C7 C3 1_555 1_555
H3 C7 1_555 1_555
H4 C7 1_555 1_555
C8 C9 1_555 1_555
C9 H5 1_555 1_555
H6 C9 1_555 1_555
C10 C1 1_555 1_555
H7 C10 1_555 1_555
H8 C10 1_555 1_555
C11 C1 1_555 1_555
C12 C3 1_555 1_555
O1 C8 1_555 1_555
O2 Sr1 1_555 1_555
O3 Sr1 1_555 1_555
O4 C2 1_555 1_555
O5 Sr1 1_555 1_555
O6 Sr1 1_555 1_555
O7 B1 1_555 1_555
O8 B1 1_555 1_555
O9 B1 1_555 1_555
O10 C8 1_555 1_555
O11 Sr1 1_555 1_555
O12 Sr1 1_555 1_555
O13 C4 1_555 1_555
O14 C2 1_555 1_555
H9 O14 1_555 1_555
O15 C11 1_555 1_555
O16 C12 1_555 1_555
O17 C5 1_555 1_555
H10 O17 1_555 1_555
O18 C5 1_555 1_555
O19 H13 1_555 1_555
O20 H15 1_555 1_555
O21 H11 1_555 1_555
H12 O21 1_555 1_555
H14 O19 1_555 1_555
H16 O20 1_555 1_555
H17 O5 1_555 1_555
H18 O5 1_555 1_555
H19 O12 1_555 1_555
H20 O12 1_555 1_555
H21 O6 1_555 1_555
H22 O6 1_555 1_555
H23 O11 1_555 1_555
H24 O11 1_555 1_555
Sr1C O4 1_555 1_555
O4C Sr1 1_555 1_555
C1 O8 1_555 1_555
C3 O2 1_555 1_555
C4 O3 1_555 1_555
C11 O9 1_555 1_555
C12 O7 1_555 1_555

#END
