
#######################################################################
#
#                 Cambridge Crystallographic Data Centre
#                                CCDC 
#
#######################################################################
#
# If this CIF has been generated from an entry in the Cambridge 
# Structural Database, then it will include bibliographic, chemical, 
# crystal, experimental, refinement or atomic coordinate data resulting 
# from the CCDC's data processing and validation procedures.
#
#######################################################################

data_LAZBIY
_symmetry_cell_setting           monoclinic
_symmetry_space_group_name_H-M   'P 21/n'
_symmetry_Int_Tables_number      14
_space_group_name_Hall           '-P 2yn'
loop_
_symmetry_equiv_pos_site_id
_symmetry_equiv_pos_as_xyz
1 x,y,z
2 1/2-x,1/2+y,1/2-z
3 -x,-y,-z
4 1/2+x,1/2-y,1/2+z
_cell_length_a                   12.0819(11)
_cell_length_b                   13.8007(11)
_cell_length_c                   12.1050(10)
_cell_angle_alpha                90.00
_cell_angle_beta                 103.563(4)
_cell_angle_gamma                90.00
_cell_volume                     1962.08
loop_
_atom_site_label
_atom_site_type_symbol
_atom_site_fract_x
_atom_site_fract_y
_atom_site_fract_z
Cu1 Cu 0.03354(2) 0.04179(2) 0.17666(2)
N1 N -0.08468(18) 0.06584(16) 0.27057(18)
O1 O 0.1187(2) 0.24110(17) 0.23834(19)
C1 C -0.1589(2) 0.1375(2) 0.2627(3)
H1 H -0.1564 0.1882 0.2127
N2 N 0.06368(16) -0.07667(15) 0.27852(16)
O2 O -0.00400(17) 0.16304(13) 0.10034(17)
C2 C -0.2409(3) 0.1395(3) 0.3273(3)
H2 H -0.2914 0.1912 0.3201
O3 O -0.09407(14) -0.05230(13) 0.06037(15)
C3 C -0.2468(3) 0.0662(3) 0.4004(3)
H3 H -0.3007 0.0677 0.4440
C4 C -0.1706(3) -0.0122(3) 0.4097(2)
O4 O -0.17108(14) -0.01942(14) -0.12327(14)
C5 C -0.1701(3) -0.0954(3) 0.4808(3)
H4 H -0.2222 -0.0986 0.5264
C6 C -0.0972(3) -0.1685(3) 0.4834(3)
H5 H -0.0991 -0.2212 0.5309
C7 C -0.0154(3) -0.1670(2) 0.4137(2)
C8 C 0.0641(3) -0.2414(2) 0.4106(3)
H6 H 0.0649 -0.2969 0.4542
C9 C 0.1394(3) -0.2316(2) 0.3437(3)
H7 H 0.1920 -0.2802 0.3415
C10 C 0.1370(2) -0.14783(19) 0.2783(2)
H8 H 0.1890 -0.1419 0.2330
C11 C -0.0906(2) -0.0084(2) 0.3420(2)
C12 C -0.0116(2) -0.08568(19) 0.34566(19)
C13 C 0.0505(2) 0.23797(19) 0.1448(2)
C14 C 0.0235(2) 0.32846(17) 0.07391(19)
C15 C 0.0638(2) 0.41555(19) 0.11693(19)
H9 H 0.1118 0.4179 0.1892
C16 C 0.0356(2) 0.50304(18) 0.05593(17)
C17 C -0.0464(2) 0.3236(2) -0.0381(2)
H10 H -0.0728 0.2638 -0.0688
C18 C -0.17502(19) -0.03326(15) -0.0194(2)
C19 C -0.29211(19) -0.02729(15) 0.00358(18)
C20 C -0.38062(19) 0.01687(18) -0.07064(18)
H11 H -0.3677 0.0449 -0.1363
C21 C -0.49063(19) 0.02109(16) -0.05059(17)
C22 C -0.31077(19) -0.06819(19) 0.10473(18)
H12 H -0.2506 -0.0972 0.1563
C23 C -0.5833(2) 0.0656(2) -0.1275(2)
C24 C 0.0750(3) 0.59485(19) 0.1009(2)
H13 H -0.566(3) 0.093(2) -0.197(3)
H14 H 0.128(2) 0.590(2) 0.175(3)
Cu1B Cu -0.03354(2) 0.95821(2) -0.17666(2)
Cu1B_2 Cu -0.03354(2) -0.04179(2) -0.17666(2)
Cu1B_3 Cu -1.03354(2) -0.04179(2) -0.17666(2)
Cu1_2 Cu -0.96646(2) 0.04179(2) 0.17666(2)
N1B N 0.08468(18) 0.93416(16) -0.27057(18)
O1B O -0.1187(2) 0.75890(17) -0.23834(19)
C1B C 0.1589(2) 0.8625(2) -0.2627(3)
H1B H 0.1564 0.8118 -0.2127
N2B N -0.06368(16) 1.07667(15) -0.27852(16)
O2B O 0.00400(17) 0.83696(13) -0.10034(17)
C2B C 0.2409(3) 0.8605(3) -0.3273(3)
H2B H 0.2914 0.8088 -0.3201
O3B O -0.90593(14) 0.05230(13) -0.06037(15)
O3B_2 O 0.09407(14) 1.05230(13) -0.06037(15)
C3B C 0.2468(3) 0.9338(3) -0.4004(3)
H3B H 0.3007 0.9323 -0.4440
C4B C 0.1706(3) 1.0122(3) -0.4097(2)
O4B O -0.82892(14) 0.01942(14) 0.12327(14)
O4B_2 O 0.17108(14) 0.01942(14) 0.12327(14)
O4_2 O -0.17108(14) 0.98058(14) -0.12327(14)
C5B C 0.1701(3) 1.0954(3) -0.4808(3)
H4B H 0.2222 1.0986 -0.5264
C6B C 0.0972(3) 1.1685(3) -0.4834(3)
H5B H 0.0991 1.2212 -0.5309
C7B C 0.0154(3) 1.1670(2) -0.4137(2)
C8B C -0.0641(3) 1.2414(2) -0.4106(3)
H6B H -0.0649 1.2969 -0.4542
C9B C -0.1394(3) 1.2316(2) -0.3437(3)
H7B H -0.1920 1.2802 -0.3415
C10B C -0.1370(2) 1.14783(19) -0.2783(2)
H8B H -0.1890 1.1419 -0.2330
C11B C 0.0906(2) 1.0084(2) -0.3420(2)
C12B C 0.0116(2) 1.08568(19) -0.34566(19)
C13B C -0.0505(2) 0.76203(19) -0.1448(2)
C14B C -0.0235(2) 0.67154(17) -0.07391(19)
C15B C -0.0638(2) 0.58445(19) -0.11693(19)
H9B H -0.1118 0.5821 -0.1892
C16B C -0.0356(2) 0.49696(18) -0.05593(17)
C17B C 0.0464(2) 0.6764(2) 0.0381(2)
H10B H 0.0728 0.7362 0.0688
C18B C -0.82498(19) 0.03326(15) 0.0194(2)
C19B C -0.70789(19) 0.02729(15) -0.00358(18)
C20B C -0.61938(19) -0.01687(18) 0.07064(18)
H11B H -0.6323 -0.0449 0.1363
C21B C -0.50937(19) -0.02109(16) 0.05059(17)
C22B C -0.68923(19) 0.06819(19) -0.10473(18)
H12B H -0.7494 0.0972 -0.1563
C23B C -0.4167(2) -0.0656(2) 0.1275(2)
C24B C -0.0750(3) 0.40515(19) -0.1009(2)
H13B H -0.434(3) -0.093(2) 0.197(3)
H14B H -0.128(2) 0.410(2) -0.175(3)
loop_
_geom_bond_atom_site_label_1
_geom_bond_atom_site_label_2
_geom_bond_site_symmetry_1
_geom_bond_site_symmetry_2
Cu1 N1 1_555 1_555
N1 C1 1_555 1_555
O1 C13 1_555 1_555
C1 H1 1_555 1_555
N2 Cu1 1_555 1_555
O2 Cu1 1_555 1_555
C2 C1 1_555 1_555
H2 C2 1_555 1_555
O3 Cu1 1_555 1_555
C3 C2 1_555 1_555
H3 C3 1_555 1_555
C4 C3 1_555 1_555
O4 C18 1_555 1_555
C5 C4 1_555 1_555
H4 C5 1_555 1_555
C6 C5 1_555 1_555
H5 C6 1_555 1_555
C7 C6 1_555 1_555
C8 C7 1_555 1_555
H6 C8 1_555 1_555
C9 C8 1_555 1_555
H7 C9 1_555 1_555
C10 N2 1_555 1_555
H8 C10 1_555 1_555
C11 N1 1_555 1_555
C12 N2 1_555 1_555
C13 O2 1_555 1_555
C14 C13 1_555 1_555
C15 C14 1_555 1_555
H9 C15 1_555 1_555
C16 C15 1_555 1_555
C17 C14 1_555 1_555
H10 C17 1_555 1_555
C18 O3 1_555 1_555
C19 C18 1_555 1_555
C20 C19 1_555 1_555
H11 C20 1_555 1_555
C21 C20 1_555 1_555
C22 C19 1_555 1_555
H12 C22 1_555 1_555
C23 C21 1_555 1_555
C24 C16 1_555 1_555
H13 C23 1_555 1_555
H14 C24 1_555 1_555
Cu1B N1B 1_555 1_555
Cu1B_2 O4 1_555 1_555
Cu1B_3 O3B 1_555 1_555
Cu1_2 O4B 1_555 1_555
N1B C1B 1_555 1_555
O1B C13B 1_555 1_555
C1B H1B 1_555 1_555
N2B Cu1B 1_555 1_555
O2B Cu1B 1_555 1_555
C2B C1B 1_555 1_555
H2B C2B 1_555 1_555
O3B C18B 1_555 1_555
O3B_2 Cu1B 1_555 1_555
C3B C2B 1_555 1_555
H3B C3B 1_555 1_555
C4B C3B 1_555 1_555
O4B C18B 1_555 1_555
O4B_2 Cu1 1_555 1_555
O4_2 Cu1B 1_555 1_555
C5B C4B 1_555 1_555
H4B C5B 1_555 1_555
C6B C5B 1_555 1_555
H5B C6B 1_555 1_555
C7B C6B 1_555 1_555
C8B C7B 1_555 1_555
H6B C8B 1_555 1_555
C9B C8B 1_555 1_555
H7B C9B 1_555 1_555
C10B N2B 1_555 1_555
H8B C10B 1_555 1_555
C11B N1B 1_555 1_555
C12B N2B 1_555 1_555
C13B O2B 1_555 1_555
C14B C13B 1_555 1_555
C15B C14B 1_555 1_555
H9B C15B 1_555 1_555
C16B C16 1_555 1_555
C17B C24 1_555 1_555
H10B C17B 1_555 1_555
C18B C19B 1_555 1_555
C19B C20B 1_555 1_555
C20B H11B 1_555 1_555
C21B C21 1_555 1_555
C22B C23 1_555 1_555
H12B C22B 1_555 1_555
C23B C22 1_555 1_555
C24B C17 1_555 1_555
H13B C23B 1_555 1_555
H14B C24B 1_555 1_555
C4 C11 1_555 1_555
C7 C12 1_555 1_555
C9 C10 1_555 1_555
C11 C12 1_555 1_555
C4B C11B 1_555 1_555
C7B C12B 1_555 1_555
C9B C10B 1_555 1_555
C11B C12B 1_555 1_555
C14B C17B 1_555 1_555
C15B C16B 1_555 1_555
C16B C24B 1_555 1_555
C19B C22B 1_555 1_555
C20B C21B 1_555 1_555
C21B C23B 1_555 1_555

#END
