
#######################################################################
#
#                 Cambridge Crystallographic Data Centre
#                                CCDC 
#
#######################################################################
#
# If this CIF has been generated from an entry in the Cambridge 
# Structural Database, then it will include bibliographic, chemical, 
# crystal, experimental, refinement or atomic coordinate data resulting 
# from the CCDC's data processing and validation procedures.
#
#######################################################################

data_LAZBAQ
_symmetry_cell_setting           monoclinic
_symmetry_space_group_name_H-M   'C 2/c'
_symmetry_Int_Tables_number      15
_space_group_name_Hall           '-C 2yn'
loop_
_symmetry_equiv_pos_site_id
_symmetry_equiv_pos_as_xyz
1 x,y,z
2 1/2+x,1/2+y,z
3 -x,y,1/2-z
4 1/2-x,1/2+y,1/2-z
5 -x,-y,-z
6 1/2-x,1/2-y,-z
7 x,-y,1/2+z
8 1/2+x,1/2-y,1/2+z
_cell_length_a                   21.3745(6)
_cell_length_b                   13.0065(2)
_cell_length_c                   15.5522(2)
_cell_angle_alpha                90
_cell_angle_beta                 115.452(2)
_cell_angle_gamma                90
_cell_volume                     3904
loop_
_atom_site_label
_atom_site_type_symbol
_atom_site_fract_x
_atom_site_fract_y
_atom_site_fract_z
N1 N 0.0280(3) -0.0163(4) 0.1899(5)
Cu1 Cu 0.0000 0.09846(9) 0.2500
Cu2 Cu 0.14110(5) 0.24397(7) 0.38019(7)
O1 O 0.1338(3) 0.0969(4) 0.3915(4)
O3 O 0.2370(3) 0.0864(4) 0.3878(4)
O4 O 0.1415(3) -0.6078(4) 0.3726(4)
O5 O 0.2424(3) -0.6200(4) 0.3605(4)
O6 O -0.0067(3) 0.2061(4) 0.1577(4)
O7 O 0.1071(3) 0.2352(4) 0.2391(4)
O8 O 0.1790(3) 0.2582(4) 0.5195(4)
C1 C 0.0593(4) -0.0078(7) 0.1314(6)
H1 H 0.0666 0.0572 0.1125
C2 C 0.0810(5) -0.0926(8) 0.0988(7)
H2 H 0.1020 -0.0849 0.0578
C3 C 0.0711(5) -0.1892(7) 0.1273(7)
H3 H 0.0861 -0.2472 0.1067
C4 C 0.0386(4) -0.1987(6) 0.1871(6)
H4 H 0.0310 -0.2633 0.2065
C5 C 0.0173(4) -0.1105(6) 0.2178(5)
C6 C 0.1851(4) 0.0450(6) 0.3909(6)
C7 C 0.1808(4) -0.0696(6) 0.3934(5)
C8 C 0.1445(4) -0.1170(6) 0.4417(6)
H5 H 0.1232 -0.0761 0.4704
C9 C 0.1406(4) -0.2216(6) 0.4462(6)
H6 H 0.1183 -0.2513 0.4799
C10 C 0.1703(4) -0.2847(6) 0.3998(5)
C11 C 0.1651(4) -0.3940(6) 0.4001(6)
H7 H 0.1407 -0.4250 0.4303
C12 C 0.1954(4) -0.4532(6) 0.3568(6)
C13 C 0.1939(5) -0.5685(6) 0.3635(6)
C14 C 0.2318(4) -0.4068(6) 0.3088(6)
H8 H 0.2527 -0.4481 0.2798
C15 C 0.2362(4) -0.3020(6) 0.3049(6)
H9 H 0.2593 -0.2726 0.2721
C16 C 0.2062(4) -0.2388(5) 0.3500(5)
C17 C 0.2107(4) -0.1291(6) 0.3501(6)
H10 H 0.2348 -0.0978 0.3197
C18 C 0.0480(4) 0.2572(5) 0.1749(6)
C19 C 0.0411(4) 0.3493(5) 0.1133(5)
C20 C -0.0233(4) 0.3824(6) 0.0479(5)
H11 H -0.0625 0.3449 0.0398
C21 C -0.0306(4) 0.4711(6) -0.0060(5)
C22 C -0.0961(4) 0.5071(6) -0.0745(6)
H12 H -0.1359 0.4703 -0.0840
C23 C 0.1019(4) 0.4067(6) 0.1257(6)
H13 H 0.1453 0.3844 0.1693
N1B N -0.0280(3) -0.0163(4) 0.3101(5)
Cu1F Cu 0.0000 0.90154(9) -0.2500
Cu2D Cu -0.14110(5) 0.75603(7) -0.38019(7)
Cu2_2 Cu 0.14110(5) -0.75603(7) 0.38019(7)
Cu2_3 Cu 0.14110(5) 1.24397(7) 0.38019(7)
O1_2 O 0.1338(3) 1.0969(4) 0.3915(4)
O1D O -0.1338(3) 0.9031(4) -0.3915(4)
O3_2 O 0.2370(3) 1.0864(4) 0.3878(4)
O4_2 O 0.1415(3) 0.3922(4) 0.3726(4)
O4D O -0.1415(3) 0.6078(4) -0.3726(4)
O5_2 O 0.2424(3) 0.3800(4) 0.3605(4)
O6D O 0.0067(3) 0.7939(4) -0.1577(4)
O6B O 0.0067(3) 0.2061(4) 0.3423(4)
O7D O -0.1071(3) 0.7648(4) -0.2391(4)
O8D O -0.1790(3) 0.7418(4) -0.5195(4)
C1B C -0.0593(4) -0.0078(7) 0.3686(6)
H1B H -0.0666 0.0572 0.3875
C2B C -0.0810(5) -0.0926(8) 0.4012(7)
H2B H -0.1020 -0.0849 0.4422
C3B C -0.0711(5) -0.1892(7) 0.3727(7)
H3B H -0.0861 -0.2472 0.3933
C4B C -0.0386(4) -0.1987(6) 0.3129(6)
H4B H -0.0310 -0.2633 0.2935
C5B C -0.0173(4) -0.1105(6) 0.2822(5)
C6_2 C 0.1851(4) 1.0450(6) 0.3909(6)
C7_2 C 0.1808(4) 0.9304(6) 0.3934(5)
C8_2 C 0.1445(4) 0.8830(6) 0.4417(6)
H5_2 H 0.1232 0.9239 0.4704
C9_2 C 0.1406(4) 0.7784(6) 0.4462(6)
H6_2 H 0.1183 0.7487 0.4799
C10_2 C 0.1703(4) 0.7153(6) 0.3998(5)
C11_2 C 0.1651(4) 0.6060(6) 0.4001(6)
H7_2 H 0.1407 0.5750 0.4303
C12_2 C 0.1954(4) 0.5468(6) 0.3568(6)
C13_2 C 0.1939(5) 0.4315(6) 0.3635(6)
C14_2 C 0.2318(4) 0.5932(6) 0.3088(6)
H8_2 H 0.2527 0.5519 0.2798
C15_2 C 0.2362(4) 0.6980(6) 0.3049(6)
H9_2 H 0.2593 0.7274 0.2721
C16_2 C 0.2062(4) 0.7612(5) 0.3500(5)
C17_2 C 0.2107(4) 0.8709(6) 0.3501(6)
H10_2 H 0.2348 0.9022 0.3197
C18D C -0.0480(4) 0.7428(5) -0.1749(6)
C19D C -0.0411(4) 0.6507(5) -0.1133(5)
C20D C 0.0233(4) 0.6176(6) -0.0479(5)
H11D H 0.0625 0.6551 -0.0398
C21D C 0.0306(4) 0.5289(6) 0.0060(5)
C22D C 0.0961(4) 0.4929(6) 0.0745(6)
H12D H 0.1359 0.5297 0.0840
C23D C -0.1019(4) 0.5933(6) -0.1257(6)
H13D H -0.1453 0.6156 -0.1693
O2 O 0.0000 -0.4521(9) 0.2500
loop_
_geom_bond_atom_site_label_1
_geom_bond_atom_site_label_2
_geom_bond_site_symmetry_1
_geom_bond_site_symmetry_2
N1 Cu1 1_555 1_555
Cu1 O6 1_555 1_555
Cu2 O1 1_555 1_555
O1 C6 1_555 1_555
O3 C6 1_555 1_555
O4 C13 1_555 1_555
O5 C13 1_555 1_555
O6 C18 1_555 1_555
O7 Cu2 1_555 1_555
O8 Cu2 1_555 1_555
C1 N1 1_555 1_555
H1 C1 1_555 1_555
C2 C1 1_555 1_555
H2 C2 1_555 1_555
C3 C2 1_555 1_555
H3 C3 1_555 1_555
C4 C3 1_555 1_555
H4 C4 1_555 1_555
C5 N1 1_555 1_555
C6 C7 1_555 1_555
C7 C8 1_555 1_555
C8 H5 1_555 1_555
C9 C8 1_555 1_555
H6 C9 1_555 1_555
C10 C9 1_555 1_555
C11 C10 1_555 1_555
H7 C11 1_555 1_555
C12 C11 1_555 1_555
C13 C12 1_555 1_555
C14 C12 1_555 1_555
H8 C14 1_555 1_555
C15 C14 1_555 1_555
H9 C15 1_555 1_555
C16 C10 1_555 1_555
C17 C7 1_555 1_555
H10 C17 1_555 1_555
C18 O7 1_555 1_555
C19 C18 1_555 1_555
C20 C19 1_555 1_555
H11 C20 1_555 1_555
C21 C20 1_555 1_555
C22 C21 1_555 1_555
H12 C22 1_555 1_555
C23 C19 1_555 1_555
H13 C23 1_555 1_555
N1B Cu1 1_555 1_555
Cu1F O6D 1_555 1_555
Cu2D O1D 1_555 1_555
Cu2_2 O4 1_555 1_555
Cu2_3 O1_2 1_555 1_555
O1_2 C6_2 1_555 1_555
O3_2 C6_2 1_555 1_555
O4_2 Cu2 1_555 1_555
O4D Cu2D 1_555 1_555
O5_2 C13_2 1_555 1_555
O6D C18D 1_555 1_555
O6B Cu1 1_555 1_555
O7D Cu2D 1_555 1_555
O8D Cu2D 1_555 1_555
C1B N1B 1_555 1_555
H1B C1B 1_555 1_555
C2B C1B 1_555 1_555
H2B C2B 1_555 1_555
C3B C2B 1_555 1_555
H3B C3B 1_555 1_555
C4B C3B 1_555 1_555
H4B C4B 1_555 1_555
C5B C5 1_555 1_555
C6_2 C7_2 1_555 1_555
C7_2 C8_2 1_555 1_555
C8_2 H5_2 1_555 1_555
C9_2 C8_2 1_555 1_555
H6_2 C9_2 1_555 1_555
C10_2 C9_2 1_555 1_555
C11_2 C10_2 1_555 1_555
H7_2 C11_2 1_555 1_555
C12_2 C11_2 1_555 1_555
C13_2 O4_2 1_555 1_555
C14_2 C12_2 1_555 1_555
H8_2 C14_2 1_555 1_555
C15_2 C14_2 1_555 1_555
H9_2 C15_2 1_555 1_555
C16_2 C10_2 1_555 1_555
C17_2 C7_2 1_555 1_555
H10_2 C17_2 1_555 1_555
C18D O7D 1_555 1_555
C19D C18D 1_555 1_555
C20D C19D 1_555 1_555
H11D C20D 1_555 1_555
C21D C21 1_555 1_555
C22D C23 1_555 1_555
H12D C22D 1_555 1_555
C23D C22 1_555 1_555
H13D C23D 1_555 1_555
C4 C5 1_555 1_555
C15 C16 1_555 1_555
C16 C17 1_555 1_555
N1B C5B 1_555 1_555
C4B C5B 1_555 1_555
C12_2 C13_2 1_555 1_555
C15_2 C16_2 1_555 1_555
C16_2 C17_2 1_555 1_555
C19D C23D 1_555 1_555
C20D C21D 1_555 1_555
C21D C22D 1_555 1_555

#END
