
#######################################################################
#
#                 Cambridge Crystallographic Data Centre
#                                CCDC 
#
#######################################################################
#
# If this CIF has been generated from an entry in the Cambridge 
# Structural Database, then it will include bibliographic, chemical, 
# crystal, experimental, refinement or atomic coordinate data resulting 
# from the CCDC's data processing and validation procedures.
#
#######################################################################

data_LAZBEV
_symmetry_cell_setting           triclinic
_symmetry_space_group_name_H-M   'P -1'
_symmetry_Int_Tables_number      2
_space_group_name_Hall           '-P 1'
loop_
_symmetry_equiv_pos_site_id
_symmetry_equiv_pos_as_xyz
1 x,y,z
2 -x,-y,-z
_cell_length_a                   6.9838(7)
_cell_length_b                   12.0288(11)
_cell_length_c                   12.3939(12)
_cell_angle_alpha                77.0470(10)
_cell_angle_beta                 88.6920(10)
_cell_angle_gamma                87.5630(10)
_cell_volume                     1013.67
loop_
_atom_site_label
_atom_site_type_symbol
_atom_site_fract_x
_atom_site_fract_y
_atom_site_fract_z
Pb1 Pb 0.86353(8) 0.28730(5) 0.45274(5)
Pb2 Pb 0.43082(9) 0.37591(6) 0.67199(6)
Pb3 Pb 0.69822(8) -0.02461(6) 0.39162(5)
O1 O 0.5825(17) 0.1305(11) 0.2285(11)
O2 O 0.5741(17) 0.1792(11) 0.3916(10)
O3 O 0.2274(16) 0.2818(11) 0.4921(9)
O4 O 0.4863(17) 0.3844(11) 0.4741(10)
O5 O 0.2278(16) 0.6123(11) 0.3675(11)
O6 O -0.0420(17) 0.5223(12) 0.3677(13)
O7 O 0.181(2) 0.5664(15) -0.0684(13)
O8 O 0.337(3) 0.4169(14) -0.0908(12)
O9 O 0.583(2) 0.2379(12) 0.8521(11)
O10 O 0.5304(16) 0.1834(10) 0.6979(11)
O11 O 0.9124(16) 0.1220(10) 0.6051(10)
O12 O 0.6726(16) 0.0103(11) 0.5830(10)
O13 O 1.0334(15) -0.1118(10) 0.6246(9)
O14 O 1.0318(18) -0.2739(11) 0.7534(12)
O15 O 0.904(2) -0.2319(14) 1.1402(11)
O16 O 0.7907(19) -0.0714(13) 1.1632(12)
N1 N 0.266(2) 0.4770(15) -0.0348(12)
N2 N 0.8422(19) -0.1356(13) 1.1070(11)
C1 C 0.423(2) 0.3063(16) 0.2426(16)
C2 C 0.336(2) 0.3719(15) 0.3103(14)
C3 C 0.222(2) 0.4716(13) 0.2660(12)
C4 C 0.204(2) 0.5071(14) 0.1528(13)
H1 H 0.1373 0.5749 0.1219
C5 C 0.288(3) 0.4383(16) 0.0849(15)
C6 C 0.399(2) 0.3412(15) 0.1275(15)
H2 H 0.4576 0.2992 0.0805
C7 C 0.531(2) 0.1993(13) 0.2876(12)
C8 C 0.350(2) 0.3397(14) 0.4350(15)
C9 C 0.126(2) 0.5402(16) 0.3422(14)
C10 C 0.713(2) 0.0555(15) 0.8356(15)
C11 C 0.800(2) -0.0044(13) 0.7632(13)
C12 C 0.899(2) -0.1078(17) 0.8020(14)
C13 C 0.912(2) -0.1550(15) 0.9164(14)
H3 H 0.9732 -0.2254 0.9434
C14 C 0.826(2) -0.0909(16) 0.9882(14)
C15 C 0.733(2) 0.0100(14) 0.9486(13)
H4 H 0.6807 0.0507 0.9985
C16 C 0.606(2) 0.1652(16) 0.7943(13)
C17 C 0.791(2) 0.0472(16) 0.6397(17)
C18 C 0.995(2) -0.1727(13) 0.7231(14)
Pb1_2 Pb -0.13647(8) 0.28730(5) 0.45274(5)
Pb1A Pb 0.13647(8) 0.71270(5) 0.54726(5)
Pb1A_2 Pb 1.13647(8) -0.28730(5) 0.54726(5)
Pb2A Pb 0.56918(9) 0.62409(6) 0.32801(6)
Pb3A Pb 0.30178(8) 0.02461(6) 0.60838(5)
Pb3A_2 Pb 1.30178(8) 0.02461(6) 0.60838(5)
O3_2 O 1.2274(16) 0.2818(11) 0.4921(9)
O5A O 0.7722(16) 0.3877(11) 0.6325(11)
O6_2 O 0.9580(17) 0.5223(12) 0.3677(13)
O11A O 1.0876(16) -0.1220(10) 0.3949(10)
O12A O 0.3274(16) -0.0103(11) 0.4170(10)
O13A O 0.9666(15) 0.1118(10) 0.3754(9)
O14A O 0.9682(18) 0.2739(11) 0.2466(12)
loop_
_geom_bond_atom_site_label_1
_geom_bond_atom_site_label_2
_geom_bond_site_symmetry_1
_geom_bond_site_symmetry_2
Pb1 O2 1_555 1_555
Pb2 O4 1_555 1_555
Pb3 O1 1_555 1_555
O1 C7 1_555 1_555
O2 Pb3 1_555 1_555
O3 C8 1_555 1_555
O4 Pb1 1_555 1_555
O5 C9 1_555 1_555
O6 C9 1_555 1_555
O7 N1 1_555 1_555
O8 N1 1_555 1_555
O9 Pb2 1_555 1_555
O10 Pb2 1_555 1_555
O11 Pb1 1_555 1_555
O12 Pb3 1_555 1_555
O13 C18 1_555 1_555
O14 C18 1_555 1_555
O15 N2 1_555 1_555
O16 N2 1_555 1_555
N1 C5 1_555 1_555
N2 C14 1_555 1_555
C1 C2 1_555 1_555
C2 C3 1_555 1_555
C3 C4 1_555 1_555
C4 H1 1_555 1_555
C5 C4 1_555 1_555
C6 C1 1_555 1_555
H2 C6 1_555 1_555
C7 O2 1_555 1_555
C8 O4 1_555 1_555
C9 C3 1_555 1_555
C10 C11 1_555 1_555
C11 C12 1_555 1_555
C12 C13 1_555 1_555
C13 H3 1_555 1_555
C14 C13 1_555 1_555
C15 C10 1_555 1_555
H4 C15 1_555 1_555
C16 O9 1_555 1_555
C17 O11 1_555 1_555
C18 C12 1_555 1_555
Pb1_2 O3 1_555 1_555
Pb1A O5 1_555 1_555
Pb1A_2 O13 1_555 1_555
Pb2A O5 1_555 1_555
Pb3A O12 1_555 1_555
Pb3A_2 O11 1_555 1_555
O3_2 Pb1 1_555 1_555
O5A Pb1 1_555 1_555
O6_2 Pb1 1_555 1_555
O11A Pb3 1_555 1_555
O12A Pb3 1_555 1_555
O13A Pb1 1_555 1_555
O14A Pb1 1_555 1_555
Pb2 O5A 1_555 1_555
Pb3 O13A 1_555 1_555
O6 Pb1_2 1_555 1_555
O10 C16 1_555 1_555
O12 C17 1_555 1_555
O13 Pb3A_2 1_555 1_555
O14 Pb1A_2 1_555 1_555
C1 C7 1_555 1_555
C2 C8 1_555 1_555
C5 C6 1_555 1_555
C10 C16 1_555 1_555
C11 C17 1_555 1_555
C14 C15 1_555 1_555
Pb1A_2 O11A 1_555 1_555
Pb3A O12A 1_555 1_555

#END
