
#######################################################################
#
#                 Cambridge Crystallographic Data Centre
#                                CCDC 
#
#######################################################################
#
# If this CIF has been generated from an entry in the Cambridge 
# Structural Database, then it will include bibliographic, chemical, 
# crystal, experimental, refinement or atomic coordinate data resulting 
# from the CCDC's data processing and validation procedures.
#
#######################################################################

data_LAZBAR
_symmetry_cell_setting           monoclinic
_symmetry_space_group_name_H-M   'P 21/n'
_symmetry_Int_Tables_number      14
_space_group_name_Hall           '-P 2yn'
loop_
_symmetry_equiv_pos_site_id
_symmetry_equiv_pos_as_xyz
1 x,y,z
2 1/2-x,1/2+y,1/2-z
3 -x,-y,-z
4 1/2+x,1/2-y,1/2+z
_cell_length_a                   11.9131(8)
_cell_length_b                   7.5453(5)
_cell_length_c                   22.1896(16)
_cell_angle_alpha                90
_cell_angle_beta                 92.9210(10)
_cell_angle_gamma                90
_cell_volume                     1991.99
loop_
_atom_site_label
_atom_site_type_symbol
_atom_site_fract_x
_atom_site_fract_y
_atom_site_fract_z
Cu1 Cu 0.44533(3) 0.29152(4) 0.513843(15)
Cu2 Cu 0.30478(3) -0.32495(4) 0.479030(15)
Cu3 Cu 1.02113(3) 0.22955(5) 0.399640(17)
O1 O 0.34483(16) 0.1477(2) 0.46698(9)
O2 O 0.29773(15) -0.0810(2) 0.40911(9)
O3 O 0.80664(16) 0.2337(3) 0.47201(9)
O4 O 0.87589(16) 0.1178(3) 0.39142(9)
O5 O 0.6819(2) -0.2281(3) 0.24478(11)
O6 O 0.5009(2) -0.2165(3) 0.23417(11)
O7 O 0.57497(15) 0.2062(2) 0.47450(9)
O8 O 0.83602(16) 0.6951(3) 0.62937(9)
O9 O 0.79438(16) 0.4770(3) 0.56609(9)
O10 O 0.33240(16) 0.3895(3) 0.55954(9)
O11 O 0.26007(17) 0.5075(3) 0.63931(9)
O12 O 0.4622(2) 0.7680(4) 0.80335(12)
O13 O 0.6400(2) 0.8034(4) 0.80498(12)
O14 O 0.56291(15) 0.4254(2) 0.55651(8)
O15 O 0.95570(17) 0.4696(3) 0.39632(9)
H1 H 0.9883 0.5359 0.3737
H2 H 0.8877 0.4653 0.3885
O16 O 1.07861(18) -0.0124(3) 0.40754(12)
H3 H 1.0440 -0.0676 0.4325
H4 H 1.1458 -0.0363 0.4088
O17 O 1.0673(3) 0.2448(4) 0.51006(12)
H5 H 1.0336 0.3376 0.5212
H6 H 1.0918 0.2597 0.4751
N1 N 0.5907(2) -0.1831(3) 0.26130(11)
N2 N 0.5531(3) 0.7474(4) 0.78155(12)
C1 C 0.4806(2) 0.0267(3) 0.39945(12)
C2 C 0.5796(2) 0.1061(3) 0.42508(12)
C3 C 0.6838(2) 0.0776(4) 0.39823(12)
C4 C 0.6850(2) -0.0177(4) 0.34488(13)
H7 H 0.7527 -0.0364 0.3267
C5 C 0.5870(2) -0.0846(4) 0.31867(12)
C6 C 0.4858(2) -0.0668(4) 0.34566(13)
H8 H 0.4211 -0.1174 0.3279
C7 C 0.3677(2) 0.0324(3) 0.42695(12)
C8 C 0.7940(2) 0.1487(4) 0.42298(13)
C9 C 0.6599(2) 0.5669(4) 0.63949(12)
C10 C 0.5599(2) 0.4978(3) 0.61161(12)
C11 C 0.4568(2) 0.5145(3) 0.63997(12)
C12 C 0.4563(2) 0.5942(4) 0.69614(13)
H9 H 0.3891 0.6067 0.7153
C13 C 0.5557(3) 0.6553(4) 0.72386(13)
C14 C 0.6565(3) 0.6444(4) 0.69603(13)
H10 H 0.7218 0.6890 0.7151
C15 C 0.7702(2) 0.5766(4) 0.60899(12)
C16 C 0.3426(2) 0.4655(4) 0.61148(13)
Cu1B Cu 0.55467(3) -0.29152(4) 0.486157(15)
Cu1B_2 Cu 0.55467(3) 0.70848(4) 0.486157(15)
Cu2B Cu 0.69522(3) 0.32495(4) 0.520970(15)
Cu3B Cu 0.97887(3) 0.77045(5) 0.600360(17)
O3B O 0.19336(16) -0.2337(3) 0.52799(9)
O7B O 0.42503(15) -0.2062(2) 0.52550(9)
O8B O 1.16398(16) 0.3049(3) 0.37063(9)
O9B O 0.20562(16) -0.4770(3) 0.43391(9)
O14B O 0.43709(15) 0.5746(2) 0.44349(8)
O14B_2 O 0.43709(15) -0.4254(2) 0.44349(8)
loop_
_geom_bond_atom_site_label_1
_geom_bond_atom_site_label_2
_geom_bond_site_symmetry_1
_geom_bond_site_symmetry_2
Cu1 O1 1_555 1_555
Cu2 O2 1_555 1_555
Cu3 O4 1_555 1_555
O1 C7 1_555 1_555
O2 C7 1_555 1_555
O3 C8 1_555 1_555
O4 C8 1_555 1_555
O5 N1 1_555 1_555
O6 N1 1_555 1_555
O7 Cu1 1_555 1_555
O8 C15 1_555 1_555
O9 C15 1_555 1_555
O10 Cu1 1_555 1_555
O11 C16 1_555 1_555
O12 N2 1_555 1_555
O13 N2 1_555 1_555
O14 Cu1 1_555 1_555
O15 Cu3 1_555 1_555
H1 O15 1_555 1_555
H2 O15 1_555 1_555
O16 Cu3 1_555 1_555
H3 O16 1_555 1_555
H4 O16 1_555 1_555
O17 Cu3 1_555 1_555
H5 O17 1_555 1_555
H6 O17 1_555 1_555
N1 C5 1_555 1_555
N2 C13 1_555 1_555
C1 C2 1_555 1_555
C2 O7 1_555 1_555
C3 C2 1_555 1_555
C4 C3 1_555 1_555
H7 C4 1_555 1_555
C5 C4 1_555 1_555
C6 C1 1_555 1_555
H8 C6 1_555 1_555
C7 C1 1_555 1_555
C8 C3 1_555 1_555
C9 C10 1_555 1_555
C10 O14 1_555 1_555
C11 C10 1_555 1_555
C12 C11 1_555 1_555
H9 C12 1_555 1_555
C13 C12 1_555 1_555
C14 C9 1_555 1_555
H10 C14 1_555 1_555
C15 C9 1_555 1_555
C16 O10 1_555 1_555
Cu1B O7B 1_555 1_555
Cu1B_2 O14 1_555 1_555
Cu2B O3 1_555 1_555
Cu3B O8 1_555 1_555
O3B Cu2 1_555 1_555
O7B Cu2 1_555 1_555
O8B Cu3 1_555 1_555
O9B Cu2 1_555 1_555
O14B Cu1 1_555 1_555
O14B_2 Cu2 1_555 1_555
O7 Cu2B 1_555 1_555
O9 Cu2B 1_555 1_555
O14 Cu2B 1_555 1_555
C5 C6 1_555 1_555
C11 C16 1_555 1_555
C13 C14 1_555 1_555
Cu1B O14B_2 1_555 1_555
Cu1B_2 O14B 1_555 1_555

#END
