
#######################################################################
#
#                 Cambridge Crystallographic Data Centre
#                                CCDC 
#
#######################################################################
#
# If this CIF has been generated from an entry in the Cambridge 
# Structural Database, then it will include bibliographic, chemical, 
# crystal, experimental, refinement or atomic coordinate data resulting 
# from the CCDC's data processing and validation procedures.
#
#######################################################################

data_LAZCIA
_symmetry_cell_setting           triclinic
_symmetry_space_group_name_H-M   'P -1'
_symmetry_Int_Tables_number      2
_space_group_name_Hall           '-P 1'
loop_
_symmetry_equiv_pos_site_id
_symmetry_equiv_pos_as_xyz
1 x,y,z
2 -x,-y,-z
_cell_length_a                   9.2209(18)
_cell_length_b                   11.649(2)
_cell_length_c                   12.385(3)
_cell_angle_alpha                101.87(3)
_cell_angle_beta                 99.79(3)
_cell_angle_gamma                97.16(3)
_cell_volume                     1265.23
loop_
_atom_site_label
_atom_site_type_symbol
_atom_site_fract_x
_atom_site_fract_y
_atom_site_fract_z
O1 O 0.6682(3) 0.7271(2) 0.46221(19)
H1 H 0.7155 0.7660 0.4277
O3 O 0.6122(2) 0.4498(2) 0.32956(19)
O4 O 0.6891(3) 0.27867(19) 0.32131(19)
Zn1 Zn 0.52910(3) 0.59560(3) 0.35513(2)
N1 N 0.5186(2) 0.64099(19) 0.20560(18)
N3 N 0.4516(2) 0.69046(19) 0.04260(18)
C1 C 0.4143(3) 0.6803(2) 0.1424(2)
C2 C 0.5882(3) 0.6527(2) 0.0402(2)
C3 C 0.6317(3) 0.6245(2) 0.1440(2)
C4 C 0.3754(3) 0.7472(2) -0.0420(2)
H4 H 0.2699 0.7385 -0.0403
H5 H 0.3856 0.7068 -0.1164
C7 C 0.3780(3) 0.9649(3) 0.0434(2)
H6 H 0.2954 0.9422 0.0727
C8 C 0.6728(3) 0.6369(2) -0.0429(2)
H7 H 0.6415 0.6529 -0.1130
C12 C 0.2720(3) 0.7074(3) 0.1736(3)
H10 H 0.2582 0.6769 0.2382
H11 H 0.1907 0.6708 0.1117
H12 H 0.2748 0.7919 0.1912
C14 C 0.5613(3) 0.9152(3) -0.0653(2)
H14 H 0.6029 0.8590 -0.1096
C16 C 0.7676(3) 0.5869(3) 0.1707(3)
H16 H 0.8000 0.5716 0.2409
C17 C 0.8048(4) 0.5965(3) -0.0162(3)
H17 H 0.8642 0.5844 -0.0699
C18 C 0.8525(3) 0.5731(3) 0.0887(3)
H18 H 0.9439 0.5476 0.1039
O5 O 0.6338(2) 0.41689(19) 0.56628(18)
O6 O 0.7663(3) 0.5582(2) 0.70958(18)
C24 C 0.4384(3) 0.8786(2) -0.0213(2)
C25 C 0.8562(3) 0.4474(2) 0.4363(2)
C26 C 0.8765(3) 0.4974(2) 0.5516(2)
C27 C 0.7507(3) 0.4928(3) 0.6154(2)
C28 C 0.9816(3) 0.4506(2) 0.3874(2)
H26 H 0.9697 0.4166 0.3110
C29 C 0.7076(3) 0.3869(3) 0.3591(2)
O1A O 1.3318(3) 0.2729(2) 0.53779(19)
H1A H 1.2845 0.2340 0.5723
O3A O 1.3878(2) 0.5502(2) 0.67044(19)
O4A O 1.3109(3) 0.72133(19) 0.67869(19)
Zn1A Zn 1.47090(3) 0.40440(3) 0.64487(2)
Zn1A_2 Zn 0.47090(3) 0.40440(3) 0.64487(2)
Zn1_2 Zn 1.52910(3) 0.59560(3) 0.35513(2)
Zn1A_3 Zn 0.47090(3) 1.40440(3) -0.35513(2)
N1A N 0.4814(2) 1.35901(19) -0.20560(18)
N1A_2 N 1.4814(2) 0.35901(19) 0.79440(18)
N3A N 0.5484(2) 1.30954(19) -0.04260(18)
C1A C 0.5857(3) 1.3197(2) -0.1424(2)
C2A C 0.4118(3) 1.3473(2) -0.0402(2)
C3A C 0.3683(3) 1.3755(2) -0.1440(2)
C4A C 0.6246(3) 1.2528(2) 0.0420(2)
H4A H 0.7301 1.2615 0.0403
H5A H 0.6144 1.2932 0.1164
C7A C 0.6220(3) 1.0351(3) -0.0434(2)
H6A H 0.7046 1.0578 -0.0727
C8A C 0.3272(3) 1.3631(2) 0.0429(2)
H7A H 0.3585 1.3471 0.1130
C12A C 0.7280(3) 1.2926(3) -0.1736(3)
H10A H 0.7418 1.3231 -0.2382
H11A H 0.8093 1.3292 -0.1117
H12A H 0.7252 1.2081 -0.1912
C14A C 0.4387(3) 1.0848(3) 0.0653(2)
H14A H 0.3971 1.1410 0.1096
C16A C 0.2324(3) 1.4131(3) -0.1707(3)
H16A H 0.2000 1.4284 -0.2409
C17A C 0.1952(4) 1.4035(3) 0.0162(3)
H17A H 0.1358 1.4156 0.0699
C18A C 0.1475(3) 1.4269(3) -0.0887(3)
H18A H 0.0561 1.4524 -0.1039
O5A O 1.3662(2) 0.58311(19) 0.43372(18)
O5A_2 O 0.3662(2) 0.58311(19) 0.43372(18)
O5_2 O 1.6338(2) 0.41689(19) 0.56628(18)
O6A O 1.2337(3) 0.4418(2) 0.29042(18)
C24A C 0.5616(3) 1.1214(2) 0.0213(2)
C25A C 1.1438(3) 0.5526(2) 0.5637(2)
C26A C 1.1235(3) 0.5026(2) 0.4484(2)
C27A C 1.2493(3) 0.5072(3) 0.3846(2)
C28A C 1.0184(3) 0.5494(2) 0.6126(2)
H26A H 1.0303 0.5834 0.6890
C29A C 1.2924(3) 0.6131(3) 0.6409(2)
O2 O 0.3700(3) 0.2420(2) 0.31858(19)
H2 H 0.4029 0.3152 0.3259
H3 H 0.3763 0.2266 0.3832
N2 N 0.0592(3) -0.0003(2) 0.70693(18)
N4 N 0.1520(3) 0.1344(2) 0.6220(2)
C5 C -0.0028(3) 0.1250(2) 0.6018(2)
C6 C -0.0616(3) 0.0407(2) 0.6553(2)
C9 C 0.1835(3) 0.0587(2) 0.6844(2)
C10 C 0.0218(3) -0.0402(2) 0.8900(2)
C11 C 0.0505(4) -0.0889(3) 0.7739(2)
H8 H 0.1434 -0.1203 0.7817
H9 H -0.0289 -0.1542 0.7343
C13 C 0.0553(3) 0.0797(2) 0.9423(2)
H13 H 0.0925 0.1340 0.9042
C15 C -0.0339(3) -0.1199(2) 0.9483(2)
H15 H -0.0570 -0.2007 0.9142
C19 C -0.0974(4) 0.1824(3) 0.5399(3)
H19 H -0.0602 0.2386 0.5036
C20 C -0.2494(4) 0.1529(3) 0.5341(3)
H20 H -0.3153 0.1902 0.4933
C21 C 0.3365(3) 0.0405(3) 0.7295(3)
H21 H 0.4077 0.0907 0.7043
H22 H 0.3457 -0.0412 0.7030
H23 H 0.3548 0.0600 0.8103
C22 C -0.2133(3) 0.0109(3) 0.6496(3)
H24 H -0.2513 -0.0453 0.6855
C23 C -0.3049(4) 0.0693(3) 0.5878(3)
H25 H -0.4075 0.0519 0.5821
N2A N -0.0592(3) 0.0003(2) 1.29307(18)
N4A N -0.1520(3) -0.1344(2) 1.3780(2)
C5A C 0.0028(3) -0.1250(2) 1.3982(2)
C6A C 0.0616(3) -0.0407(2) 1.3447(2)
C9A C -0.1835(3) -0.0587(2) 1.3156(2)
C10A C -0.0218(3) 0.0402(2) 1.1100(2)
C11A C -0.0505(4) 0.0889(3) 1.2261(2)
H8A H -0.1434 0.1203 1.2183
H9A H 0.0289 0.1542 1.2657
C13A C -0.0553(3) -0.0797(2) 1.0577(2)
H13A H -0.0925 -0.1340 1.0958
C15A C 0.0339(3) 0.1199(2) 1.0517(2)
H15A H 0.0570 0.2007 1.0858
C19A C 0.0974(4) -0.1824(3) 1.4601(3)
H19A H 0.0602 -0.2386 1.4964
C20A C 0.2494(4) -0.1529(3) 1.4659(3)
H20A H 0.3153 -0.1902 1.5067
C21A C -0.3365(3) -0.0405(3) 1.2705(3)
H21A H -0.4077 -0.0907 1.2957
H22A H -0.3457 0.0412 1.2970
H23A H -0.3548 -0.0600 1.1897
C22A C 0.2133(3) -0.0109(3) 1.3504(3)
H24A H 0.2513 0.0453 1.3145
C23A C 0.3049(4) -0.0693(3) 1.4122(3)
H25A H 0.4075 -0.0519 1.4179
loop_
_geom_bond_atom_site_label_1
_geom_bond_atom_site_label_2
_geom_bond_site_symmetry_1
_geom_bond_site_symmetry_2
O1 H1 1_555 1_555
O2 H2 1_555 1_555
H3 O2 1_555 1_555
O3 Zn1 1_555 1_555
O4 C29 1_555 1_555
Zn1 O1 1_555 1_555
N1 Zn1 1_555 1_555
N2 C6 1_555 1_555
N3 C1 1_555 1_555
N4 C5 1_555 1_555
C1 N1 1_555 1_555
C2 N3 1_555 1_555
C3 N1 1_555 1_555
C4 N3 1_555 1_555
H4 C4 1_555 1_555
H5 C4 1_555 1_555
C5 C6 1_555 1_555
C6 C22 1_555 1_555
C7 H6 1_555 1_555
C8 C2 1_555 1_555
H7 C8 1_555 1_555
C9 N2 1_555 1_555
C10 C11 1_555 1_555
C11 N2 1_555 1_555
H8 C11 1_555 1_555
H9 C11 1_555 1_555
C12 C1 1_555 1_555
H10 C12 1_555 1_555
H11 C12 1_555 1_555
H12 C12 1_555 1_555
C13 C10 1_555 1_555
H13 C13 1_555 1_555
C14 H14 1_555 1_555
C15 C10 1_555 1_555
H15 C15 1_555 1_555
C16 C3 1_555 1_555
H16 C16 1_555 1_555
C17 C8 1_555 1_555
H17 C17 1_555 1_555
C18 C16 1_555 1_555
H18 C18 1_555 1_555
C19 C5 1_555 1_555
H19 C19 1_555 1_555
C20 C19 1_555 1_555
H20 C20 1_555 1_555
C21 C9 1_555 1_555
H21 C21 1_555 1_555
H22 C21 1_555 1_555
H23 C21 1_555 1_555
C22 H24 1_555 1_555
C23 C20 1_555 1_555
H25 C23 1_555 1_555
O5 C27 1_555 1_555
O6 C27 1_555 1_555
C24 C4 1_555 1_555
C25 C26 1_555 1_555
C26 C27 1_555 1_555
C28 C25 1_555 1_555
H26 C28 1_555 1_555
C29 O3 1_555 1_555
O1A H1A 1_555 1_555
O3A Zn1A 1_555 1_555
O4A C29A 1_555 1_555
Zn1A O1A 1_555 1_555
Zn1A_2 O5 1_555 1_555
Zn1_2 O5A 1_555 1_555
Zn1A_3 N1A 1_555 1_555
N1A C1A 1_555 1_555
N1A_2 Zn1A 1_555 1_555
N2A C6A 1_555 1_555
N3A C1A 1_555 1_555
N4A C5A 1_555 1_555
C1A C12A 1_555 1_555
C2A N3A 1_555 1_555
C3A N1A 1_555 1_555
C4A N3A 1_555 1_555
H4A C4A 1_555 1_555
H5A C4A 1_555 1_555
C5A C6A 1_555 1_555
C6A C22A 1_555 1_555
C7A C14 1_555 1_555
H6A C7A 1_555 1_555
C8A C2A 1_555 1_555
H7A C8A 1_555 1_555
C9A N2A 1_555 1_555
C10A C11A 1_555 1_555
C11A N2A 1_555 1_555
H8A C11A 1_555 1_555
H9A C11A 1_555 1_555
C12A H10A 1_555 1_555
H11A C12A 1_555 1_555
H12A C12A 1_555 1_555
C13A C15 1_555 1_555
H13A C13A 1_555 1_555
C14A C7 1_555 1_555
H14A C14A 1_555 1_555
C15A C13 1_555 1_555
H15A C15A 1_555 1_555
C16A C3A 1_555 1_555
H16A C16A 1_555 1_555
C17A C8A 1_555 1_555
H17A C17A 1_555 1_555
C18A C16A 1_555 1_555
H18A C18A 1_555 1_555
C19A C5A 1_555 1_555
H19A C19A 1_555 1_555
C20A C19A 1_555 1_555
H20A C20A 1_555 1_555
C21A C9A 1_555 1_555
H21A C21A 1_555 1_555
H22A C21A 1_555 1_555
H23A C21A 1_555 1_555
C22A H24A 1_555 1_555
C23A C20A 1_555 1_555
H25A C23A 1_555 1_555
O5A C27A 1_555 1_555
O5A_2 Zn1 1_555 1_555
O5_2 Zn1A 1_555 1_555
O6A C27A 1_555 1_555
C24A C4A 1_555 1_555
C25A C26A 1_555 1_555
C26A C28 1_555 1_555
C27A C26A 1_555 1_555
C28A C26 1_555 1_555
H26A C28A 1_555 1_555
C29A O3A 1_555 1_555
N4 C9 1_555 1_555
C2 C3 1_555 1_555
C7 C24 1_555 1_555
C14 C24 1_555 1_555
C17 C18 1_555 1_555
C22 C23 1_555 1_555
C25 C29 1_555 1_555
N4A C9A 1_555 1_555
C2A C3A 1_555 1_555
C7A C24A 1_555 1_555
C10A C13A 1_555 1_555
C10A C15A 1_555 1_555
C14A C24A 1_555 1_555
C17A C18A 1_555 1_555
C22A C23A 1_555 1_555
C25A C28A 1_555 1_555
C25A C29A 1_555 1_555

#END
