
#######################################################################
#
#                 Cambridge Crystallographic Data Centre
#                                CCDC 
#
#######################################################################
#
# If this CIF has been generated from an entry in the Cambridge 
# Structural Database, then it will include bibliographic, chemical, 
# crystal, experimental, refinement or atomic coordinate data resulting 
# from the CCDC's data processing and validation procedures.
#
#######################################################################

data_LAZCUL
_symmetry_cell_setting           orthorhombic
_symmetry_space_group_name_H-M   'F d d d'
_symmetry_Int_Tables_number      70
_space_group_name_Hall           '-F 2uv 2vw'
loop_
_symmetry_equiv_pos_site_id
_symmetry_equiv_pos_as_xyz
1 x,y,z
2 1/4-x,1/4-y,z
3 x,1/4-y,1/4-z
4 1/4-x,y,1/4-z
5 x,1/2+y,1/2+z
6 1/2+x,y,1/2+z
7 1/2+x,1/2+y,z
8 1/4-x,3/4-y,1/2+z
9 x,3/4-y,3/4-z
10 1/4-x,1/2+y,3/4-z
11 3/4-x,1/4-y,1/2+z
12 1/2+x,1/4-y,3/4-z
13 3/4-x,y,3/4-z
14 3/4-x,3/4-y,z
15 1/2+x,3/4-y,1/4-z
16 3/4-x,1/2+y,1/4-z
17 -x,-y,-z
18 3/4+x,3/4+y,-z
19 -x,3/4+y,3/4+z
20 3/4+x,-y,3/4+z
21 -x,1/2-y,1/2-z
22 1/2-x,-y,1/2-z
23 1/2-x,1/2-y,-z
24 3/4+x,1/4+y,1/2-z
25 -x,1/4+y,1/4+z
26 3/4+x,1/2-y,1/4+z
27 1/4+x,3/4+y,1/2-z
28 1/2-x,3/4+y,1/4+z
29 1/4+x,-y,1/4+z
30 1/4+x,1/4+y,-z
31 1/2-x,1/4+y,3/4+z
32 1/4+x,1/2-y,3/4+z
_cell_length_a                   15.635(7)
_cell_length_b                   16.663(8)
_cell_length_c                   45.74(2)
_cell_angle_alpha                90
_cell_angle_beta                 90
_cell_angle_gamma                90
_cell_volume                     11916.5
loop_
_atom_site_label
_atom_site_type_symbol
_atom_site_fract_x
_atom_site_fract_y
_atom_site_fract_z
Mn1 Mn 0.1250 0.1250 0.350640(17)
S1 S 0.38947(6) -0.06562(5) 0.44868(2)
O1 O 0.19871(19) 0.06121(16) 0.31677(6)
H1 H 0.209(3) 0.079(2) 0.2997(6)
H2 H 0.176(3) 0.0154(15) 0.3146(8)
O2 O 0.21811(14) 0.21831(13) 0.34902(5)
O3 O 0.15005(15) 0.31926(14) 0.32741(6)
N1 N 0.20982(17) 0.05944(16) 0.38438(6)
C1 C 0.2154(2) 0.2874(2) 0.33762(8)
C2 C 0.2980(2) 0.33288(19) 0.33605(8)
C3 C 0.3747(2) 0.2931(2) 0.33582(9)
H3 H 0.3752 0.2372 0.3360
C4 C 0.2984(2) 0.4157(2) 0.33525(9)
H4 H 0.2471 0.4438 0.3343
C5 C 0.1996(3) -0.0170(2) 0.39103(10)
H5 H 0.1543 -0.0443 0.3824
C6 C 0.2516(3) -0.0592(2) 0.40987(10)
H6 H 0.2407 -0.1130 0.4137
C7 C 0.3191(2) -0.0214(2) 0.42285(7)
C8 C 0.3310(3) 0.0581(2) 0.41591(9)
H7 H 0.3764 0.0866 0.4240
C9 C 0.2753(3) 0.0949(2) 0.39701(9)
H8 H 0.2845 0.1488 0.3928
Mn1F Mn 0.6250 -0.3750 0.350640(17)
Mn1F_2 Mn 0.6250 0.6250 0.350640(17)
S1M S 0.36053(6) -0.18438(5) 0.44868(2)
O1A O 0.05129(19) 0.18879(16) 0.31677(6)
H1A H 0.041(3) 0.171(2) 0.2997(6)
H2A H 0.074(3) 0.2346(15) 0.3146(8)
O2M O 0.53189(14) 0.53169(13) 0.34902(5)
O2A O 0.03189(14) 0.03169(13) 0.34902(5)
O3M O 0.59995(15) 0.43074(14) 0.32741(6)
N1M N 0.54018(17) -0.30944(16) 0.38438(6)
N1A N 0.04018(17) 0.19056(16) 0.38438(6)
C1M C 0.5346(2) 0.4626(2) 0.33762(8)
C2M C 0.4520(2) 0.41712(19) 0.33605(8)
C3M C 0.3753(2) 0.4569(2) 0.33582(9)
H3M H 0.3748 0.5128 0.3360
C4M C 0.4516(2) 0.3343(2) 0.33525(9)
H4M H 0.5029 0.3062 0.3343
C5M C 0.5504(3) -0.2330(2) 0.39103(10)
H5M H 0.5957 -0.2057 0.3824
C6M C 0.4984(3) -0.1908(2) 0.40987(10)
H6M H 0.5093 -0.1370 0.4137
C7M C 0.4309(2) -0.2286(2) 0.42285(7)
C8M C 0.4190(3) -0.3081(2) 0.41591(9)
H7M H 0.3736 -0.3366 0.4240
C9M C 0.4747(3) -0.3449(2) 0.39701(9)
H8M H 0.4655 -0.3988 0.3928
S2 S 0.40793(9) 0.32282(7) 0.20978(3)
N2 N 0.2695(3) 0.1401(3) 0.26735(8)
C10 C 0.2547(3) 0.2183(3) 0.27011(11)
H9 H 0.2145 0.2343 0.2839
C11 C 0.2945(3) 0.2775(3) 0.25403(10)
H10 H 0.2824 0.3313 0.2574
C12 C 0.3516(3) 0.2558(3) 0.23317(8)
C13 C 0.3643(3) 0.1761(3) 0.22892(10)
H11 H 0.4007 0.1587 0.2141
C14 C 0.3238(3) 0.1213(3) 0.24634(11)
H12 H 0.3353 0.0673 0.2432
S2M S 0.34207(9) 0.42718(7) 0.20978(3)
N2M N 0.4805(3) 0.6099(3) 0.26735(8)
C10M C 0.4953(3) 0.5317(3) 0.27011(11)
H9M H 0.5355 0.5157 0.2839
C11M C 0.4555(3) 0.4725(3) 0.25403(10)
H10M H 0.4676 0.4187 0.2574
C12M C 0.3984(3) 0.4942(3) 0.23317(8)
C13M C 0.3857(3) 0.5739(3) 0.22892(10)
H11M H 0.3493 0.5913 0.2141
C14M C 0.4262(3) 0.6287(3) 0.24634(11)
H12M H 0.4147 0.6827 0.2432
loop_
_geom_bond_atom_site_label_1
_geom_bond_atom_site_label_2
_geom_bond_site_symmetry_1
_geom_bond_site_symmetry_2
Mn1 O1 1_555 1_555
S1 C7 1_555 1_555
S2 C12 1_555 1_555
O1 H1 1_555 1_555
H2 O1 1_555 1_555
O2 Mn1 1_555 1_555
O3 C1 1_555 1_555
N1 Mn1 1_555 1_555
N2 C10 1_555 1_555
C1 O2 1_555 1_555
C2 C1 1_555 1_555
C3 C2 1_555 1_555
H3 C3 1_555 1_555
C4 C2 1_555 1_555
H4 C4 1_555 1_555
C5 N1 1_555 1_555
H5 C5 1_555 1_555
C6 C5 1_555 1_555
H6 C6 1_555 1_555
C7 C6 1_555 1_555
C8 C7 1_555 1_555
H7 C8 1_555 1_555
C9 N1 1_555 1_555
H8 C9 1_555 1_555
C10 H9 1_555 1_555
C11 C10 1_555 1_555
H10 C11 1_555 1_555
C12 C11 1_555 1_555
C13 C12 1_555 1_555
H11 C13 1_555 1_555
C14 N2 1_555 1_555
H12 C14 1_555 1_555
Mn1F N1M 1_555 1_555
Mn1F_2 O2M 1_555 1_555
S1M S1 1_555 1_555
S2M S2 1_555 1_555
O1A Mn1 1_555 1_555
H1A O1A 1_555 1_555
H2A O1A 1_555 1_555
O2M C1M 1_555 1_555
O2A Mn1 1_555 1_555
O3M C1M 1_555 1_555
N1M C5M 1_555 1_555
N1A Mn1 1_555 1_555
N2M C10M 1_555 1_555
C1M C2M 1_555 1_555
C2M C3M 1_555 1_555
C3M C4 1_555 1_555
H3M C3M 1_555 1_555
C4M C3 1_555 1_555
H4M C4M 1_555 1_555
C5M H5M 1_555 1_555
C6M C5M 1_555 1_555
H6M C6M 1_555 1_555
C7M S1M 1_555 1_555
C8M C7M 1_555 1_555
H7M C8M 1_555 1_555
C9M N1M 1_555 1_555
H8M C9M 1_555 1_555
C10M H9M 1_555 1_555
C11M C10M 1_555 1_555
H10M C11M 1_555 1_555
C12M S2M 1_555 1_555
C13M C12M 1_555 1_555
H11M C13M 1_555 1_555
C14M N2M 1_555 1_555
H12M C14M 1_555 1_555
C8 C9 1_555 1_555
C13 C14 1_555 1_555
C2M C4M 1_555 1_555
C6M C7M 1_555 1_555
C8M C9M 1_555 1_555
C11M C12M 1_555 1_555
C13M C14M 1_555 1_555

#END
