
#######################################################################
#
#                 Cambridge Crystallographic Data Centre
#                                CCDC 
#
#######################################################################
#
# If this CIF has been generated from an entry in the Cambridge 
# Structural Database, then it will include bibliographic, chemical, 
# crystal, experimental, refinement or atomic coordinate data resulting 
# from the CCDC's data processing and validation procedures.
#
#######################################################################

data_LAZDEW
_symmetry_cell_setting           monoclinic
_symmetry_space_group_name_H-M   'C 2/c'
_symmetry_Int_Tables_number      15
_space_group_name_Hall           '-C 2yn'
loop_
_symmetry_equiv_pos_site_id
_symmetry_equiv_pos_as_xyz
1 x,y,z
2 1/2+x,1/2+y,z
3 -x,y,1/2-z
4 1/2-x,1/2+y,1/2-z
5 -x,-y,-z
6 1/2-x,1/2-y,-z
7 x,-y,1/2+z
8 1/2+x,1/2-y,1/2+z
_cell_length_a                   18.4779(2)
_cell_length_b                   6.8045(1)
_cell_length_c                   12.8417(1)
_cell_angle_alpha                90
_cell_angle_beta                 99.920(1)
_cell_angle_gamma                90
_cell_volume                     1590.48
loop_
_atom_site_label
_atom_site_type_symbol
_atom_site_fract_x
_atom_site_fract_y
_atom_site_fract_z
Mn1 Mn 0.0000 0.07048(5) 0.2500
N1 N 0.12439(7) 0.08607(18) 0.30318(10)
C1 C 0.16601(9) 0.1804(2) 0.23999(12)
H1 H 0.1404 0.2305 0.1749
N2 N 0.23722(7) 0.2092(2) 0.25926(10)
C2 C 0.27438(8) 0.1382(2) 0.35339(12)
C3 C 0.35153(8) 0.1618(2) 0.37859(14)
H2 H 0.3774 0.2270 0.3308
C4 C 0.38858(9) 0.0896(2) 0.47284(15)
H3 H 0.4404 0.1036 0.4894
C5 C 0.35088(9) -0.0052(2) 0.54557(14)
H4 H 0.3776 -0.0535 0.6103
C6 C 0.27599(9) -0.0281(2) 0.52354(13)
H5 H 0.2508 -0.0903 0.5730
C7 C 0.23663(8) 0.0423(2) 0.42592(11)
C8 C 0.16011(8) 0.0197(2) 0.39493(12)
H6 H 0.1332 -0.0454 0.4414
N3 N 0.01872(8) 0.0699(2) 0.08361(11)
N4 N 0.0000 0.0000 0.0000
N5 N 0.0000 0.4017(3) 0.2500
N6 N 0.0000 0.5720(3) 0.2500
N7 N 0.0000 0.7447(3) 0.2500
Mn1_2 Mn 0.0000 1.07048(5) 0.2500
Mn1F Mn 0.0000 -0.07048(5) -0.2500
N1B N -0.12439(7) 0.08607(18) 0.19682(10)
C1B C -0.16601(9) 0.1804(2) 0.26001(12)
H1B H -0.1404 0.2305 0.3251
N2B N -0.23722(7) 0.2092(2) 0.24074(10)
C2B C -0.27438(8) 0.1382(2) 0.14661(12)
C3B C -0.35153(8) 0.1618(2) 0.12141(14)
H2B H -0.3774 0.2270 0.1692
C4B C -0.38858(9) 0.0896(2) 0.02716(15)
H3B H -0.4404 0.1036 0.0106
C5B C -0.35088(9) -0.0052(2) -0.04557(14)
H4B H -0.3776 -0.0535 -0.1103
C6B C -0.27599(9) -0.0281(2) -0.02354(13)
H5B H -0.2508 -0.0903 -0.0730
C7B C -0.23663(8) 0.0423(2) 0.07408(11)
C8B C -0.16011(8) 0.0197(2) 0.10507(12)
H6B H -0.1332 -0.0454 0.0586
N3D N -0.01872(8) -0.0699(2) -0.08361(11)
N3B N -0.01872(8) 0.0699(2) 0.41639(11)
N7_2 N 0.0000 -0.2553(3) 0.2500
loop_
_geom_bond_atom_site_label_1
_geom_bond_atom_site_label_2
_geom_bond_site_symmetry_1
_geom_bond_site_symmetry_2
Mn1 N1 1_555 1_555
N1 C1 1_555 1_555
C1 H1 1_555 1_555
N2 C1 1_555 1_555
C2 N2 1_555 1_555
C3 C2 1_555 1_555
H2 C3 1_555 1_555
C4 C3 1_555 1_555
H3 C4 1_555 1_555
C5 C4 1_555 1_555
H4 C5 1_555 1_555
C6 C5 1_555 1_555
H5 C6 1_555 1_555
C7 C2 1_555 1_555
C8 N1 1_555 1_555
H6 C8 1_555 1_555
N3 Mn1 1_555 1_555
N4 N3 1_555 1_555
N5 Mn1 1_555 1_555
N6 N5 1_555 1_555
N7 N6 1_555 1_555
Mn1_2 N7 1_555 1_555
Mn1F N3D 1_555 1_555
N1B Mn1 1_555 1_555
C1B N1B 1_555 1_555
H1B C1B 1_555 1_555
N2B C1B 1_555 1_555
C2B N2B 1_555 1_555
C3B C2B 1_555 1_555
H2B C3B 1_555 1_555
C4B C3B 1_555 1_555
H3B C4B 1_555 1_555
C5B C4B 1_555 1_555
H4B C5B 1_555 1_555
C6B C5B 1_555 1_555
H5B C6B 1_555 1_555
C7B C2B 1_555 1_555
C8B N1B 1_555 1_555
H6B C8B 1_555 1_555
N3D N4 1_555 1_555
N3B Mn1 1_555 1_555
N7_2 Mn1 1_555 1_555
C6 C7 1_555 1_555
C7 C8 1_555 1_555
C6B C7B 1_555 1_555
C7B C8B 1_555 1_555

#END
