
#######################################################################
#
#                 Cambridge Crystallographic Data Centre
#                                CCDC 
#
#######################################################################
#
# If this CIF has been generated from an entry in the Cambridge 
# Structural Database, then it will include bibliographic, chemical, 
# crystal, experimental, refinement or atomic coordinate data resulting 
# from the CCDC's data processing and validation procedures.
#
#######################################################################

data_LAZHOL
_symmetry_cell_setting           orthorhombic
_symmetry_space_group_name_H-M   'F d d d'
_symmetry_Int_Tables_number      70
_space_group_name_Hall           '-F 2uv 2vw'
loop_
_symmetry_equiv_pos_site_id
_symmetry_equiv_pos_as_xyz
1 x,y,z
2 3/4-x,3/4-y,z
3 3/4-x,y,3/4-z
4 x,3/4-y,3/4-z
5 x,1/2+y,1/2+z
6 3/4-x,1/4-y,1/2+z
7 3/4-x,1/2+y,1/4-z
8 x,1/4-y,1/4-z
9 1/2+x,y,1/2+z
10 1/4-x,3/4-y,1/2+z
11 1/4-x,y,1/4-z
12 1/2+x,3/4-y,1/4-z
13 1/2+x,1/2+y,z
14 1/4-x,1/4-y,z
15 1/4-x,1/2+y,3/4-z
16 1/2+x,1/4-y,3/4-z
17 -x,-y,-z
18 1/4+x,1/4+y,-z
19 1/4+x,-y,1/4+z
20 -x,1/4+y,1/4+z
21 -x,1/2-y,1/2-z
22 1/4+x,3/4+y,1/2-z
23 1/4+x,1/2-y,3/4+z
24 -x,3/4+y,3/4+z
25 1/2-x,-y,1/2-z
26 3/4+x,1/4+y,1/2-z
27 3/4+x,-y,3/4+z
28 1/2-x,1/4+y,3/4+z
29 1/2-x,1/2-y,-z
30 3/4+x,3/4+y,-z
31 3/4+x,1/2-y,1/4+z
32 1/2-x,3/4+y,1/4+z
_cell_length_a                   17.2160(6)
_cell_length_b                   28.9876(12)
_cell_length_c                   30.7307(11)
_cell_angle_alpha                90
_cell_angle_beta                 90
_cell_angle_gamma                90
_cell_volume                     15336.2
loop_
_atom_site_label
_atom_site_type_symbol
_atom_site_fract_x
_atom_site_fract_y
_atom_site_fract_z
C1 C 0.79795(19) 0.32652(13) 0.05399(10)
C2 C 0.77296(19) 0.28697(12) 0.02586(10)
C3 C 0.7868(3) 0.42827(17) 0.17770(15)
H1 H 0.8301 0.4474 0.1762
C4 C 0.4076(2) 0.45022(17) 0.35958(12)
C5 C 0.8095(2) 0.24470(13) 0.02896(11)
H2 H 0.8501 0.2409 0.0485
C6 C 0.6637(3) 0.37547(16) 0.18438(14)
H3 H 0.6211 0.3558 0.1852
C7 C 0.7135(2) 0.29176(13) -0.00348(12)
H4 H 0.6885 0.3200 -0.0062
C8 C 0.6652(2) 0.41367(13) 0.20979(11)
C9 C 0.7249(2) 0.36571(16) 0.15742(14)
H5 H 0.7227 0.3388 0.1409
C10 C 0.5328(3) 0.44872(16) 0.30125(13)
C11 C 0.6036(3) 0.44920(18) 0.27306(17)
C12 C 0.7281(3) 0.44078(17) 0.20549(17)
H6 H 0.7319 0.4680 0.2214
C13 C 0.4637(3) 0.4367(2) 0.28977(14)
H7 H 0.4555 0.4266 0.2614
C14 C 0.4777(4) 0.4624(4) 0.3708(2)
H8 H 0.4856 0.4721 0.3993
C15 C 0.4015(3) 0.4382(2) 0.31786(14)
H9 H 0.3526 0.4305 0.3072
C16 C 0.5411(4) 0.4621(4) 0.3432(2)
H10 H 0.5896 0.4710 0.3535
N1 N 0.78620(16) 0.39192(11) 0.15349(8)
N2 N 0.60304(17) 0.42188(11) 0.23743(9)
H11 H 0.5600 0.4083 0.2313
O1 O 0.77217(15) 0.36569(9) 0.04719(8)
O2 O 0.84489(13) 0.31703(8) 0.08467(7)
O3 O 0.6601(3) 0.47131(19) 0.28350(15)
Zn1 Zn 0.8750 0.3750 0.112200(16)
C1BA C 0.70205(19) 0.17348(13) -0.05399(10)
C2BA C 0.72704(19) 0.21303(12) -0.02586(10)
C3B C -0.0368(3) 0.42827(17) 0.57230(15)
H1B H -0.0801 0.4474 0.5738
C4B C 0.3424(2) 0.45022(17) 0.39042(12)
C5BA C 0.6905(2) 0.25530(13) -0.02896(11)
H2BA H 0.6499 0.2591 -0.0485
C6B C 0.0863(3) 0.37547(16) 0.56562(14)
H3B H 0.1289 0.3558 0.5648
C7BA C 0.7865(2) 0.20824(13) 0.00348(12)
H4BA H 0.8115 0.1800 0.0062
C8B C 0.0848(2) 0.41367(13) 0.54021(11)
C9B C 0.0251(2) 0.36571(16) 0.59258(14)
H5B H 0.0273 0.3388 0.6091
C10B C 0.2172(3) 0.44872(16) 0.44875(13)
C11B C 0.1464(3) 0.44920(18) 0.47694(17)
C12B C 0.0219(3) 0.44078(17) 0.54451(17)
H6B H 0.0181 0.4680 0.5286
C13B C 0.2863(3) 0.4367(2) 0.46023(14)
H7B H 0.2945 0.4266 0.4886
C14B C 0.2723(4) 0.4624(4) 0.3792(2)
H8B H 0.2644 0.4721 0.3507
C15B C 0.3485(3) 0.4382(2) 0.43214(14)
H9B H 0.3974 0.4305 0.4428
C16B C 0.2089(4) 0.4621(4) 0.4068(2)
H10B H 0.1604 0.4710 0.3965
N1B N -0.03620(16) 0.39192(11) 0.59651(8)
N1A N 0.96380(16) 0.35808(11) 0.15349(8)
N2B N 0.14696(17) 0.42188(11) 0.51257(9)
H11B H 0.1900 0.4083 0.5187
O1BA O 0.72783(15) 0.13431(9) -0.04719(8)
O2BA O 0.65511(13) 0.18297(8) -0.08467(7)
O2A O 0.90511(13) 0.43297(8) 0.08467(7)
O3B O 0.0899(3) 0.47131(19) 0.46650(15)
Zn1BA Zn 0.6250 0.1250 -0.112200(16)
Zn1B Zn -0.1250 0.3750 0.637800(16)
loop_
_geom_bond_atom_site_label_1
_geom_bond_atom_site_label_2
_geom_bond_site_symmetry_1
_geom_bond_site_symmetry_2
C1 C2 1_555 1_555
C2 C5 1_555 1_555
C3 H1 1_555 1_555
C4 C14 1_555 1_555
C5 H2 1_555 1_555
C6 H3 1_555 1_555
C7 C2 1_555 1_555
H4 C7 1_555 1_555
C8 C6 1_555 1_555
C9 C6 1_555 1_555
H5 C9 1_555 1_555
C10 C11 1_555 1_555
C11 N2 1_555 1_555
C12 C3 1_555 1_555
H6 C12 1_555 1_555
C13 C10 1_555 1_555
H7 C13 1_555 1_555
C14 H8 1_555 1_555
C15 C4 1_555 1_555
H9 C15 1_555 1_555
C16 C10 1_555 1_555
H10 C16 1_555 1_555
N1 C3 1_555 1_555
N2 C8 1_555 1_555
H11 N2 1_555 1_555
O1 C1 1_555 1_555
O2 C1 1_555 1_555
O3 C11 1_555 1_555
Zn1 N1 1_555 1_555
C1BA C2BA 1_555 1_555
C2BA C5BA 1_555 1_555
C3B H1B 1_555 1_555
C4B C4 1_555 1_555
C5BA C7 1_555 1_555
H2BA C5BA 1_555 1_555
C6B H3B 1_555 1_555
C7BA C5 1_555 1_555
H4BA C7BA 1_555 1_555
C8B C6B 1_555 1_555
C9B C6B 1_555 1_555
H5B C9B 1_555 1_555
C10B C11B 1_555 1_555
C11B N2B 1_555 1_555
C12B C3B 1_555 1_555
H6B C12B 1_555 1_555
C13B C10B 1_555 1_555
H7B C13B 1_555 1_555
C14B C4B 1_555 1_555
H8B C14B 1_555 1_555
C15B C4B 1_555 1_555
H9B C15B 1_555 1_555
C16B C10B 1_555 1_555
H10B C16B 1_555 1_555
N1B C3B 1_555 1_555
N1A Zn1 1_555 1_555
N2B C8B 1_555 1_555
H11B N2B 1_555 1_555
O1BA C1BA 1_555 1_555
O2BA C1BA 1_555 1_555
O2A Zn1 1_555 1_555
O3B C11B 1_555 1_555
Zn1BA O2BA 1_555 1_555
Zn1B N1B 1_555 1_555
C8 C12 1_555 1_555
C9 N1 1_555 1_555
C13 C15 1_555 1_555
C14 C16 1_555 1_555
O2 Zn1 1_555 1_555
C2BA C7BA 1_555 1_555
C8B C12B 1_555 1_555
C9B N1B 1_555 1_555
C13B C15B 1_555 1_555
C14B C16B 1_555 1_555

#END
