
#######################################################################
#
#                 Cambridge Crystallographic Data Centre
#                                CCDC 
#
#######################################################################
#
# If this CIF has been generated from an entry in the Cambridge 
# Structural Database, then it will include bibliographic, chemical, 
# crystal, experimental, refinement or atomic coordinate data resulting 
# from the CCDC's data processing and validation procedures.
#
#######################################################################

data_LAZJAY
_symmetry_cell_setting           triclinic
_symmetry_space_group_name_H-M   'P -1'
_symmetry_Int_Tables_number      2
_space_group_name_Hall           '-P 1'
loop_
_symmetry_equiv_pos_site_id
_symmetry_equiv_pos_as_xyz
1 x,y,z
2 -x,-y,-z
_cell_length_a                   10.7126(4)
_cell_length_b                   13.0719(4)
_cell_length_c                   4.9272(3)
_cell_angle_alpha                92.067(5)
_cell_angle_beta                 95.902(7)
_cell_angle_gamma                87.847(4)
_cell_volume                     685.474
loop_
_atom_site_label
_atom_site_type_symbol
_atom_site_fract_x
_atom_site_fract_y
_atom_site_fract_z
P1 P 0.1048(8) 0.2940(7) -0.4040(20)
P2 P -0.1503(8) 0.3979(6) -0.6342(19)
O1 O 0.0935(15) 0.3204(9) -0.1072(24)
O2 O 0.1745(13) 0.3564(9) -0.5651(26)
C1 C 0.1676(8) 0.1639(6) -0.4286(21)
C2 C -0.2991(8) 0.3574(7) -0.7741(20)
C3 C -0.0549(10) 0.2790(9) -0.5757(33)
C4 C 0.2621(17) 0.1388(10) -0.6064(33)
C5 C 0.3197(15) 0.0434(12) -0.603(4)
C6 C 0.2900(18) -0.0283(11) -0.410(4)
C7 C 0.1912(12) -0.0054(9) -0.2462(30)
C8 C 0.1287(10) 0.0891(9) -0.2609(31)
C9 C -0.3090(9) 0.2912(13) -0.997(4)
C10 C -0.4286(12) 0.2663(15) -1.1238(34)
C11 C -0.5376(10) 0.3134(11) -1.0298(31)
C12 C -0.5280(10) 0.3751(10) -0.7981(34)
C13 C -0.4091(12) 0.3981(13) -0.666(4)
O3 O -0.0919(13) 0.4658(9) -0.8042(26)
O4 O -0.1661(13) 0.4395(9) -0.3478(24)
Cu1 Cu 0.1243(6) 0.4415(4) 0.1046(10)
O2_2 O 0.1745(13) 0.3564(9) 0.4349(26)
O3_2 O -0.0919(13) 0.4658(9) 0.1958(26)
O3A O 0.0919(13) 0.5342(9) -0.1958(26)
O4A O 0.1661(13) 0.5605(9) 0.3478(24)
Cu1_2 Cu 0.1243(6) 0.4415(4) -0.8954(10)
Cu1A Cu -0.1243(6) 0.5585(4) -1.1046(10)
Cu1A_2 Cu -0.1243(6) 0.5585(4) -0.1046(10)
loop_
_geom_bond_atom_site_label_1
_geom_bond_atom_site_label_2
_geom_bond_site_symmetry_1
_geom_bond_site_symmetry_2
P1 O1 1_555 1_555
P2 C2 1_555 1_555
O1 Cu1 1_555 1_555
O2 P1 1_555 1_555
C1 P1 1_555 1_555
C2 C9 1_555 1_555
C3 P1 1_555 1_555
C4 C1 1_555 1_555
C5 C4 1_555 1_555
C6 C5 1_555 1_555
C7 C6 1_555 1_555
C8 C1 1_555 1_555
C9 C10 1_555 1_555
C10 C11 1_555 1_555
C11 C12 1_555 1_555
C12 C13 1_555 1_555
C13 C2 1_555 1_555
O3 P2 1_555 1_555
O4 P2 1_555 1_555
Cu1 O2_2 1_555 1_555
O3_2 Cu1 1_555 1_555
O3A Cu1 1_555 1_555
O4A Cu1 1_555 1_555
Cu1_2 O2 1_555 1_555
Cu1A O3 1_555 1_555
Cu1A_2 O4 1_555 1_555
P2 C3 1_555 1_555
C7 C8 1_555 1_555
O3 Cu1_2 1_555 1_555
O3_2 Cu1A_2 1_555 1_555
O3A Cu1A_2 1_555 1_555

#END
