
#######################################################################
#
#                 Cambridge Crystallographic Data Centre
#                                CCDC 
#
#######################################################################
#
# If this CIF has been generated from an entry in the Cambridge 
# Structural Database, then it will include bibliographic, chemical, 
# crystal, experimental, refinement or atomic coordinate data resulting 
# from the CCDC's data processing and validation procedures.
#
#######################################################################

data_LAZJED
_symmetry_cell_setting           monoclinic
_symmetry_space_group_name_H-M   'P 21/c'
_symmetry_Int_Tables_number      14
_space_group_name_Hall           '-P 2ybc'
loop_
_symmetry_equiv_pos_site_id
_symmetry_equiv_pos_as_xyz
1 x,y,z
2 -x,1/2+y,1/2-z
3 -x,-y,-z
4 x,1/2-y,1/2+z
_cell_length_a                   9.5307(14)
_cell_length_b                   14.028(2)
_cell_length_c                   36.112(5)
_cell_angle_alpha                90
_cell_angle_beta                 95.256(3)
_cell_angle_gamma                90
_cell_volume                     4807.75
loop_
_atom_site_label
_atom_site_type_symbol
_atom_site_fract_x
_atom_site_fract_y
_atom_site_fract_z
O1 O 1.0946(2) -0.22550(16) 0.02360(7)
C1 C 0.9742(3) -0.1850(2) 0.02406(9)
C2 C 0.8449(3) -0.2455(2) 0.01548(9)
C3 C 0.8610(3) -0.3369(3) 0.00230(9)
H1 H 0.9506 -0.3597 -0.0010
C4 C 0.7438(4) -0.3951(2) -0.00602(9)
C5 C 0.7117(3) -0.2107(2) 0.02055(9)
H2 H 0.7009 -0.1487 0.0290
C6 C 0.6115(3) -0.3594(2) -0.00092(10)
H3 H 0.5325 -0.3972 -0.0069
C7 C 0.5945(3) -0.2688(2) 0.01292(9)
C8 C 0.4481(4) -0.2372(3) 0.01931(10)
O2 O 0.3540(2) -0.2985(2) 0.01288(8)
O3 O 0.4271(2) -0.15386(17) 0.03004(7)
Co1 Co 1.21077(5) -0.34521(3) 0.048090(13)
O4 O 0.8474(2) -0.54977(18) -0.00395(7)
O5 O 0.6932(3) -0.5179(2) -0.05017(7)
C9 C 0.7621(3) -0.4930(3) -0.02040(10)
O6 O 0.9681(2) -0.09925(17) 0.03179(7)
Co2 Co 1.22518(5) -0.10539(3) 0.035720(13)
N1 N 0.2943(3) -0.9702(2) 0.05270(9)
O7 O 1.1835(3) 0.0381(2) 0.20594(8)
O8 O 1.3232(3) 0.0085(2) 0.25519(7)
C10 C 1.2818(4) -0.0096(3) 0.22246(10)
N2 N 1.0268(3) -0.7832(2) 0.22135(9)
C11 C 0.9096(5) -0.7486(3) 0.23374(12)
H4 H 0.8974 -0.7568 0.2588
C12 C 1.0417(5) -0.7684(4) 0.18555(12)
H5 H 1.1232 -0.7903 0.1760
C13 C 0.9429(5) -0.7226(4) 0.16202(13)
H6 H 0.9586 -0.7132 0.1372
C14 C 0.8062(5) -0.7021(3) 0.21221(12)
H7 H 0.7274 -0.6786 0.2226
C15 C 0.8204(5) -0.6905(3) 0.17513(11)
O9 O 0.7230(3) -0.6521(3) 0.15041(8)
N3 N 1.0432(3) -0.3871(2) 0.07888(8)
C16 C 0.9652(4) -0.3247(3) 0.09656(11)
H8 H 0.9997 -0.2629 0.0999
C17 C 0.9902(4) -0.4747(3) 0.07597(12)
H9 H 1.0428 -0.5199 0.0645
Co3 Co 1.16949(5) 0.12774(4) 0.252480(13)
O10 O 1.2275(3) -0.14074(19) 0.09074(7)
O11 O 1.3176(3) -0.28739(19) 0.09525(7)
O12 O 0.3368(3) -0.5503(2) 0.17734(7)
O13 O 0.6598(3) -0.4551(2) 0.11837(9)
O14 O 1.6547(3) -0.2716(2) 0.25426(7)
N4 N -0.0131(3) -0.4401(2) 0.22096(8)
C18 C 1.3569(4) -0.1834(3) 0.14670(10)
O15 O 1.7295(3) -0.3055(2) 0.20066(7)
C19 C 0.4996(4) -0.5789(3) 0.13244(10)
C20 C 1.4582(4) -0.1405(3) 0.21942(10)
H10 H 1.4903 -0.1274 0.2440
O16 O 0.4821(3) -0.7243(2) 0.09750(9)
C21 C 1.5211(4) -0.2126(3) 0.20046(10)
C22 C 0.4004(5) -0.6565(3) 0.11452(13)
H11 H 0.3495 -0.6869 0.1334
H12 H 0.3324 -0.6280 0.0961
C23 C 0.7848(4) -0.4376(3) 0.10536(11)
C24 C 1.2971(4) -0.2062(3) 0.10774(10)
C25 C 1.3474(4) -0.0875(3) 0.20204(10)
C26 C 0.2229(4) -0.5095(3) 0.19015(10)
C27 C 1.2986(4) -0.1091(3) 0.16579(10)
H13 H 1.2255 -0.0734 0.1539
C28 C 0.8380(5) -0.3455(3) 0.11015(11)
H14 H 0.7890 -0.2992 0.1222
C29 C 1.6423(4) -0.2660(3) 0.21959(11)
C30 C 0.1525(4) -0.4320(3) 0.17481(11)
H15 H 0.1823 -0.4018 0.1540
C31 C 1.4702(4) -0.2341(3) 0.16391(10)
H16 H 1.5121 -0.2823 0.1511
C32 C 0.5763(4) -0.5329(3) 0.10163(12)
H17 H 0.6367 -0.5792 0.0910
H18 H 0.5089 -0.5092 0.0820
C33 C 0.0359(5) -0.4000(3) 0.19115(11)
H19 H -0.0117 -0.3471 0.1807
C34 C 0.1733(5) -0.5524(3) 0.22081(12)
H20 H 0.2181 -0.6057 0.2317
C35 C 0.3988(4) -0.5067(3) 0.14711(11)
H21 H 0.4494 -0.4496 0.1555
H22 H 0.3264 -0.4893 0.1277
C36 C 0.4126(5) -0.8032(3) 0.08270(12)
C37 C 0.0572(4) -0.5149(3) 0.23489(11)
H23 H 0.0255 -0.5440 0.2557
C38 C 0.2710(6) -0.8214(3) 0.08387(14)
H24 H 0.2131 -0.7783 0.0948
C39 C 0.8669(4) -0.5050(3) 0.08810(12)
H25 H 0.8377 -0.5680 0.0851
C40 C 0.4921(5) -0.8646(3) 0.06520(14)
H26 H 0.5864 -0.8513 0.0628
O17 O 1.2002(3) -0.0552(2) -0.01907(7)
C41 C 0.5992(4) -0.6115(4) 0.16455(11)
H27 H 0.6258 -0.5580 0.1807
H28 H 0.5536 -0.6589 0.1789
C42 C 0.4323(5) -0.9472(3) 0.05089(14)
H29 H 0.4890 -0.9898 0.0393
C43 C 0.2163(5) -0.9074(3) 0.06806(13)
H30 H 0.1207 -0.9199 0.0686
O2_2 O 1.3540(2) -0.2985(2) 0.01288(8)
O3_2 O 1.4271(2) -0.15386(17) 0.03004(7)
Co1_2 Co 0.21077(5) -0.34521(3) 0.048090(13)
Co1B Co 0.78923(5) -0.65479(3) -0.048090(13)
O4B O 1.1526(2) -0.45023(18) 0.00395(7)
O5B O 1.3068(3) -0.4821(2) 0.05017(7)
Co2_2 Co 0.22518(5) -0.10539(3) 0.035720(13)
Co2_3 Co 0.22518(5) -1.10539(3) 0.035720(13)
N1_2 N 1.2943(3) 0.0298(2) 0.05270(9)
N2_2 N 1.0268(3) 0.2168(2) 0.22135(9)
Co3_2 Co 1.16949(5) -0.87226(4) 0.252480(13)
Co3A Co 1.83051(5) -0.37226(4) 0.247520(13)
Co3A_2 Co -0.16949(5) -0.37226(4) 0.247520(13)
O14A O 1.3453(3) 0.2284(2) 0.24574(7)
N4A N 1.0131(3) 0.0599(2) 0.27904(8)
O15A O 1.2705(3) 0.1945(2) 0.29934(7)
loop_
_geom_bond_atom_site_label_1
_geom_bond_atom_site_label_2
_geom_bond_site_symmetry_1
_geom_bond_site_symmetry_2
O1 C1 1_555 1_555
C1 C2 1_555 1_555
C2 C3 1_555 1_555
C3 H1 1_555 1_555
C4 C3 1_555 1_555
C5 C2 1_555 1_555
H2 C5 1_555 1_555
C6 C4 1_555 1_555
H3 C6 1_555 1_555
C7 C5 1_555 1_555
C8 C7 1_555 1_555
O2 C8 1_555 1_555
O3 C8 1_555 1_555
Co1 O1 1_555 1_555
O4 C9 1_555 1_555
O5 C9 1_555 1_555
C9 C4 1_555 1_555
O6 C1 1_555 1_555
Co2 O1 1_555 1_555
N1 C42 1_555 1_555
O7 C10 1_555 1_555
O8 C10 1_555 1_555
C10 C25 1_555 1_555
N2 C11 1_555 1_555
C11 H4 1_555 1_555
C12 N2 1_555 1_555
H5 C12 1_555 1_555
C13 C12 1_555 1_555
H6 C13 1_555 1_555
C14 C11 1_555 1_555
H7 C14 1_555 1_555
C15 C13 1_555 1_555
O9 C15 1_555 1_555
N3 Co1 1_555 1_555
C16 N3 1_555 1_555
H8 C16 1_555 1_555
C17 N3 1_555 1_555
H9 C17 1_555 1_555
Co3 O7 1_555 1_555
O10 Co2 1_555 1_555
O11 Co1 1_555 1_555
O12 C26 1_555 1_555
O13 C23 1_555 1_555
O14 C29 1_555 1_555
N4 C33 1_555 1_555
C18 C24 1_555 1_555
O15 C29 1_555 1_555
C19 C22 1_555 1_555
C20 H10 1_555 1_555
O16 C22 1_555 1_555
C21 C20 1_555 1_555
C22 H11 1_555 1_555
H12 C22 1_555 1_555
C23 C28 1_555 1_555
C24 O10 1_555 1_555
C25 C20 1_555 1_555
C26 C30 1_555 1_555
C27 C18 1_555 1_555
H13 C27 1_555 1_555
C28 C16 1_555 1_555
H14 C28 1_555 1_555
C29 C21 1_555 1_555
C30 H15 1_555 1_555
C31 C18 1_555 1_555
H16 C31 1_555 1_555
C32 O13 1_555 1_555
H17 C32 1_555 1_555
H18 C32 1_555 1_555
C33 C30 1_555 1_555
H19 C33 1_555 1_555
C34 C26 1_555 1_555
H20 C34 1_555 1_555
C35 O12 1_555 1_555
H21 C35 1_555 1_555
H22 C35 1_555 1_555
C36 O16 1_555 1_555
C37 N4 1_555 1_555
H23 C37 1_555 1_555
C38 C36 1_555 1_555
H24 C38 1_555 1_555
C39 C17 1_555 1_555
H25 C39 1_555 1_555
C40 C36 1_555 1_555
H26 C40 1_555 1_555
O17 Co2 1_555 1_555
C41 O9 1_555 1_555
H27 C41 1_555 1_555
H28 C41 1_555 1_555
C42 C40 1_555 1_555
H29 C42 1_555 1_555
C43 N1 1_555 1_555
H30 C43 1_555 1_555
O2_2 Co1 1_555 1_555
O3_2 Co2 1_555 1_555
Co1_2 O2 1_555 1_555
Co1B O4 1_555 1_555
O4B Co1 1_555 1_555
O5B Co1 1_555 1_555
Co2_2 O3 1_555 1_555
Co2_3 N1 1_555 1_555
N1_2 Co2 1_555 1_555
N2_2 Co3 1_555 1_555
Co3_2 N2 1_555 1_555
Co3A O14 1_555 1_555
Co3A_2 N4 1_555 1_555
O14A Co3 1_555 1_555
N4A Co3 1_555 1_555
O15A Co3 1_555 1_555
C6 C7 1_555 1_555
O5 Co1B 1_555 1_555
O8 Co3 1_555 1_555
C14 C15 1_555 1_555
O11 C24 1_555 1_555
O15 Co3A 1_555 1_555
C19 C32 1_555 1_555
C19 C35 1_555 1_555
C19 C41 1_555 1_555
C21 C31 1_555 1_555
C23 C39 1_555 1_555
C25 C27 1_555 1_555
C34 C37 1_555 1_555
C38 C43 1_555 1_555

#END
