
#######################################################################
#
#                 Cambridge Crystallographic Data Centre
#                                CCDC 
#
#######################################################################
#
# If this CIF has been generated from an entry in the Cambridge 
# Structural Database, then it will include bibliographic, chemical, 
# crystal, experimental, refinement or atomic coordinate data resulting 
# from the CCDC's data processing and validation procedures.
#
#######################################################################

data_LAZJAZ
_symmetry_cell_setting           monoclinic
_symmetry_space_group_name_H-M   'P 2'
_symmetry_Int_Tables_number      3
_space_group_name_Hall           'P 2y'
loop_
_symmetry_equiv_pos_site_id
_symmetry_equiv_pos_as_xyz
1 x,y,z
2 -x,y,-z
_cell_length_a                   10.7263(16)
_cell_length_b                   9.0056(13)
_cell_length_c                   12.9899(19)
_cell_angle_alpha                90
_cell_angle_beta                 104.047(3)
_cell_angle_gamma                90
_cell_volume                     1217.26
loop_
_atom_site_label
_atom_site_type_symbol
_atom_site_fract_x
_atom_site_fract_y
_atom_site_fract_z
C1 C -0.0993(4) -0.7422(6) 0.6506(4)
H1 H -0.1795 -0.7758 0.6132
C2 C -0.0949(4) -0.6408(5) 0.7302(3)
H2 H -0.1700 -0.6028 0.7437
C3 C 0.0253(4) -0.5963(5) 0.7904(3)
C4 C 0.1308(4) -0.6487(6) 0.7616(4)
H3 H 0.2125 -0.6195 0.7987
C5 C 0.1164(4) -0.7432(6) 0.6791(4)
H4 H 0.1899 -0.7745 0.6593
C6 C -0.0589(4) -0.4376(6) 0.9042(3)
H5 H -0.1153 -0.5117 0.9227
H6 H -0.1081 -0.3773 0.8466
C7 C 0.0000 -0.3410(7) 1.0000
C8 C 0.1032(4) -0.2433(5) 0.9715(3)
H7 H 0.1784 -0.3026 0.9703
H8 H 0.0709 -0.2003 0.9017
C9 C 0.2116(4) -0.0183(5) 1.0303(3)
C10 C 0.2304(4) 0.0989(5) 1.0996(4)
H9 H 0.1912 0.0997 1.1561
C11 C 0.3068(4) 0.2143(5) 1.0857(4)
H10 H 0.3192 0.2923 1.1340
C12 C 0.3431(5) 0.1086(6) 0.9389(4)
H11 H 0.3810 0.1121 0.8817
C13 C 0.2687(5) -0.0125(6) 0.9475(4)
H12 H 0.2576 -0.0890 0.8979
C14 C 0.4765(4) 0.5783(5) 1.1433(3)
C15 C 0.5124(4) 0.7043(5) 1.2202(3)
C16 C 0.6390(4) 0.7409(5) 1.2639(3)
H13 H 0.7043 0.6885 1.2443
C17 C 0.6692(4) 0.8546(5) 1.3363(3)
C18 C 0.5725(4) 0.9317(5) 1.3671(4)
H14 H 0.5930 1.0076 1.4169
C19 C 0.4178(4) 0.7841(5) 1.2491(4)
H15 H 0.3324 0.7623 1.2174
C20 C 0.8086(4) 0.8959(6) 1.3832(4)
N1 N 0.0024(3) -0.7948(4) 0.6238(3)
N2 N 0.3644(3) 0.2205(4) 1.0062(3)
O1 O 0.3649(3) 0.5560(4) 1.0987(3)
O2 O 0.5668(3) 0.4965(3) 1.1280(2)
O3 O 0.8279(3) 0.9861(4) 1.4598(2)
O4 O 0.8909(3) 0.8465(5) 1.3454(3)
O5 O 0.1367(3) -0.1289(4) 1.0487(2)
O6 O 0.0455(3) -0.5062(4) 0.8742(3)
Zn1 Zn 0.5000 0.38074(7) 1.0000
Zn2 Zn 1.0000 1.06554(7) 1.5000
C21 C 0.4451(4) 0.8953(6) 1.3235(3)
O7 O 0.3500(3) 0.9706(4) 1.3527(3)
C1A C 0.0993(4) -0.7422(6) 1.3494(4)
H1A H 0.1795 -0.7758 1.3868
C2A C 0.0949(4) -0.6408(5) 1.2698(3)
H2A H 0.1700 -0.6028 1.2563
C3A C -0.0253(4) -0.5963(5) 1.2096(3)
C4A C -0.1308(4) -0.6487(6) 1.2384(4)
H3A H -0.2125 -0.6195 1.2013
C5A C -0.1164(4) -0.7432(6) 1.3209(4)
H4A H -0.1899 -0.7745 1.3407
C6A C 0.0589(4) -0.4376(6) 1.0958(3)
H5A H 0.1153 -0.5117 1.0773
H6A H 0.1081 -0.3773 1.1534
C8A C -0.1032(4) -0.2433(5) 1.0285(3)
H7A H -0.1784 -0.3026 1.0297
H8A H -0.0709 -0.2003 1.0983
C9A C -0.2116(4) -0.0183(5) 0.9697(3)
C10A C -0.2304(4) 0.0989(5) 0.9004(4)
H9A H -0.1912 0.0997 0.8439
C11A C -0.3068(4) 0.2143(5) 0.9143(4)
H10A H -0.3192 0.2923 0.8660
C12A C -0.3431(5) 0.1086(6) 1.0611(4)
H11A H -0.3810 0.1121 1.1183
C13A C -0.2687(5) -0.0125(6) 1.0525(4)
H12A H -0.2576 -0.0890 1.1021
C14A C 0.5235(4) 0.5783(5) 0.8567(3)
C15A C 0.4876(4) 0.7043(5) 0.7798(3)
C16A C 0.3610(4) 0.7409(5) 0.7361(3)
H13A H 0.2957 0.6885 0.7557
C17A C 0.3308(4) 0.8546(5) 0.6637(3)
C18A C 0.4275(4) 0.9317(5) 0.6329(4)
H14A H 0.4070 1.0076 0.5831
C19A C 0.5822(4) 0.7841(5) 0.7509(4)
H15A H 0.6676 0.7623 0.7826
C20A C 0.1914(4) 0.8959(6) 0.6168(4)
N1A N -0.0024(3) -0.7948(4) 1.3762(3)
N1A_2 N 0.9976(3) 1.2052(4) 1.3762(3)
N1_2 N 1.0024(3) 1.2052(4) 1.6238(3)
N2A N -0.3644(3) 0.2205(4) 0.9938(3)
N2A_2 N 0.6356(3) 0.2205(4) 0.9938(3)
O1A O 0.6351(3) 0.5560(4) 0.9013(3)
O2A O 0.4332(3) 0.4965(3) 0.8720(2)
O3A O 0.1721(3) 0.9861(4) 0.5402(2)
O3A_2 O 1.1721(3) 0.9861(4) 1.5402(2)
O4A O 0.1091(3) 0.8465(5) 0.6546(3)
O5A O -0.1367(3) -0.1289(4) 0.9513(2)
O6A O -0.0455(3) -0.5062(4) 1.1258(3)
Zn1_2 Zn -0.5000 0.38074(7) 1.0000
Zn2_2 Zn 0.0000 -0.93446(7) 0.5000
Zn2_3 Zn 0.0000 -0.93446(7) 1.5000
Zn2_4 Zn 0.0000 1.06554(7) 0.5000
C21A C 0.5549(4) 0.8953(6) 0.6765(3)
O7A O 0.6500(3) 0.9706(4) 0.6473(3)
loop_
_geom_bond_atom_site_label_1
_geom_bond_atom_site_label_2
_geom_bond_site_symmetry_1
_geom_bond_site_symmetry_2
C1 H1 1_555 1_555
C2 C1 1_555 1_555
H2 C2 1_555 1_555
C3 C2 1_555 1_555
C4 C3 1_555 1_555
H3 C4 1_555 1_555
C5 C4 1_555 1_555
H4 C5 1_555 1_555
C6 H5 1_555 1_555
H6 C6 1_555 1_555
C7 C6 1_555 1_555
C8 C7 1_555 1_555
H7 C8 1_555 1_555
H8 C8 1_555 1_555
C9 C10 1_555 1_555
C10 H9 1_555 1_555
C11 C10 1_555 1_555
H10 C11 1_555 1_555
C12 H11 1_555 1_555
C13 C9 1_555 1_555
H12 C13 1_555 1_555
C14 C15 1_555 1_555
C15 C16 1_555 1_555
C16 H13 1_555 1_555
C17 C16 1_555 1_555
C18 C17 1_555 1_555
H14 C18 1_555 1_555
C19 C15 1_555 1_555
H15 C19 1_555 1_555
C20 C17 1_555 1_555
N1 C1 1_555 1_555
N2 C11 1_555 1_555
O1 C14 1_555 1_555
O2 C14 1_555 1_555
O3 C20 1_555 1_555
O4 C20 1_555 1_555
O5 C8 1_555 1_555
O6 C3 1_555 1_555
Zn1 N2 1_555 1_555
Zn2 O3 1_555 1_555
C21 C18 1_555 1_555
O7 C21 1_555 1_555
C1A H1A 1_555 1_555
C2A C1A 1_555 1_555
H2A C2A 1_555 1_555
C3A C2A 1_555 1_555
C4A C3A 1_555 1_555
H3A C4A 1_555 1_555
C5A C4A 1_555 1_555
H4A C5A 1_555 1_555
C6A C7 1_555 1_555
H5A C6A 1_555 1_555
H6A C6A 1_555 1_555
C8A C7 1_555 1_555
H7A C8A 1_555 1_555
H8A C8A 1_555 1_555
C9A C10A 1_555 1_555
C10A H9A 1_555 1_555
C11A C10A 1_555 1_555
H10A C11A 1_555 1_555
C12A H11A 1_555 1_555
C13A C9A 1_555 1_555
H12A C13A 1_555 1_555
C14A C15A 1_555 1_555
C15A C16A 1_555 1_555
C16A H13A 1_555 1_555
C17A C16A 1_555 1_555
C18A C17A 1_555 1_555
H14A C18A 1_555 1_555
C19A C15A 1_555 1_555
H15A C19A 1_555 1_555
C20A C17A 1_555 1_555
N1A C1A 1_555 1_555
N1A_2 Zn2 1_555 1_555
N1_2 Zn2 1_555 1_555
N2A C11A 1_555 1_555
N2A_2 Zn1 1_555 1_555
O1A C14A 1_555 1_555
O2A Zn1 1_555 1_555
O3A C20A 1_555 1_555
O3A_2 Zn2 1_555 1_555
O4A C20A 1_555 1_555
O5A C8A 1_555 1_555
O6A C3A 1_555 1_555
Zn1_2 N2A 1_555 1_555
Zn2_2 N1 1_555 1_555
Zn2_3 N1A 1_555 1_555
Zn2_4 O3A 1_555 1_555
C21A C18A 1_555 1_555
O7A C21A 1_555 1_555
C5 N1 1_555 1_555
C6 O6 1_555 1_555
C9 O5 1_555 1_555
C12 C13 1_555 1_555
C12 N2 1_555 1_555
C19 C21 1_555 1_555
O2 Zn1 1_555 1_555
C5A N1A 1_555 1_555
C6A O6A 1_555 1_555
C9A O5A 1_555 1_555
C12A C13A 1_555 1_555
C12A N2A 1_555 1_555
C14A O2A 1_555 1_555
C19A C21A 1_555 1_555

#END
