
#######################################################################
#
#                 Cambridge Crystallographic Data Centre
#                                CCDC 
#
#######################################################################
#
# If this CIF has been generated from an entry in the Cambridge 
# Structural Database, then it will include bibliographic, chemical, 
# crystal, experimental, refinement or atomic coordinate data resulting 
# from the CCDC's data processing and validation procedures.
#
#######################################################################

data_LAZKOO
_symmetry_cell_setting           triclinic
_symmetry_space_group_name_H-M   'P -1'
_symmetry_Int_Tables_number      2
_space_group_name_Hall           '-P 1'
loop_
_symmetry_equiv_pos_site_id
_symmetry_equiv_pos_as_xyz
1 x,y,z
2 -x,-y,-z
_cell_length_a                   12.6800(12)
_cell_length_b                   12.7101(13)
_cell_length_c                   15.9598(15)
_cell_angle_alpha                74.4200(10)
_cell_angle_beta                 80.029(2)
_cell_angle_gamma                81.581(2)
_cell_volume                     2426.64
loop_
_atom_site_label
_atom_site_type_symbol
_atom_site_fract_x
_atom_site_fract_y
_atom_site_fract_z
Zn1 Zn 1.07241(16) 0.64297(16) 0.04667(14)
Zn2 Zn 0.69102(17) -0.09684(15) 0.33588(18)
N1 N 0.6808(12) 0.4126(11) 0.2813(9)
N2 N -0.2167(12) 1.0780(10) 0.7327(9)
N3 N 0.9430(12) 0.5781(12) 0.1247(10)
N4 N 0.6930(11) 0.0669(11) 0.3195(10)
N5 N -0.1193(10) 1.2644(11) 0.8852(9)
N6 N -0.5363(11) 1.1033(10) 0.6852(11)
O1 O 1.0537(12) 0.6985(13) -0.0699(9)
O2 O 0.9357(13) 0.8193(12) -0.0411(10)
O3 O 1.1871(13) 0.5029(14) 0.0656(12)
O4 O 1.289(2) 0.609(2) -0.0271(16)
O5 O 0.7535(16) -0.1874(15) 0.4314(14)
O6 O 0.6269(13) -0.1266(13) 0.5102(13)
O7 O 0.7960(9) -0.1347(11) 0.2201(9)
H1 H 0.8378 -0.1818 0.2510
C1 C 0.3187(14) 0.6449(13) 0.4446(11)
C2 C 0.2458(14) 0.6898(13) 0.4834(11)
C3 C 0.1669(14) 0.7546(13) 0.5234(11)
C4 C 0.1009(14) 0.8044(14) 0.5628(11)
C5 C 0.4113(15) 0.5868(13) 0.4024(11)
C6 C 0.5173(15) 0.6077(11) 0.4040(10)
H2 H 0.5286 0.6588 0.4328
C7 C 0.6071(12) 0.5503(12) 0.3614(10)
H3 H 0.6767 0.5654 0.3611
C8 C 0.5897(15) 0.4708(12) 0.3197(11)
C9 C 0.4877(15) 0.4508(11) 0.3174(10)
H4 H 0.4776 0.4002 0.2876
C10 C 0.3961(13) 0.5055(12) 0.3596(10)
H5 H 0.3272 0.4887 0.3593
C11 C 0.0215(14) 0.8758(14) 0.6073(11)
C12 C 0.0402(12) 0.9775(14) 0.6075(10)
H6 H 0.1056 1.0030 0.5796
C13 C -0.0350(14) 1.0448(12) 0.6480(11)
H7 H -0.0197 1.1150 0.6455
C14 C -0.1314(14) 1.0108(13) 0.6914(10)
C15 C -0.1554(12) 0.9004(13) 0.6969(10)
H8 H -0.2189 0.8722 0.7268
C16 C -0.0723(14) 0.8403(12) 0.6520(11)
H9 H -0.0835 0.7691 0.6535
C17 C 0.8419(17) 0.6129(13) 0.1198(12)
H10 H 0.8294 0.6758 0.0753
C18 C 0.7502(13) 0.5711(13) 0.1705(11)
H11 H 0.6820 0.6077 0.1632
C19 C 0.7653(15) 0.4677(14) 0.2352(12)
C20 C 0.8720(15) 0.4273(12) 0.2424(11)
H12 H 0.8869 0.3648 0.2866
C21 C 0.9609(13) 0.4786(15) 0.1841(12)
H13 H 1.0306 0.4441 0.1867
C22 C 0.7499(14) 0.1299(15) 0.2491(12)
H14 H 0.7951 0.0962 0.2092
C23 C 0.7429(12) 0.2453(13) 0.2341(11)
H15 H 0.7802 0.2863 0.1833
C24 C 0.6850(13) 0.2943(14) 0.2903(12)
C25 C 0.6272(12) 0.2322(13) 0.3692(11)
H16 H 0.5864 0.2640 0.4121
C26 C 0.6379(12) 0.1186(13) 0.3757(11)
H17 H 0.6013 0.0756 0.4258
C27 C -0.1823(14) 1.3097(14) 0.8216(12)
H18 H -0.2004 1.3854 0.8092
C28 C -0.2222(12) 1.2518(13) 0.7733(10)
H19 H -0.2726 1.2860 0.7359
C29 C -0.1841(13) 1.1403(14) 0.7826(12)
C30 C -0.1156(13) 1.0931(13) 0.8468(12)
H20 H -0.0901 1.0190 0.8562
C31 C -0.0873(12) 1.1530(15) 0.8936(11)
H21 H -0.0425 1.1179 0.9355
C32 C -0.5156(15) 1.1227(13) 0.7583(13)
H22 H -0.5723 1.1377 0.8003
C33 C -0.4083(16) 1.1209(12) 0.7728(11)
H23 H -0.3954 1.1430 0.8208
C34 C -0.3250(16) 1.0879(12) 0.7184(13)
C35 C -0.3473(15) 1.0647(11) 0.6406(11)
H24 H -0.2924 1.0429 0.5999
C36 C -0.4561(15) 1.0765(11) 0.6284(11)
H25 H -0.4720 1.0645 0.5772
C37 C 0.9938(18) 0.7860(18) -0.0923(14)
H26 H 0.9974 0.8236 -0.1512
C38 C 1.269(3) 0.511(3) 0.015(2)
H27 H 1.3153 0.4500 0.0071
C39 C 0.696(3) -0.193(3) 0.515(3)
H28 H 0.7113 -0.2444 0.5664
Zn1A Zn -0.07241(16) 1.35703(16) 0.95333(14)
Zn2A Zn -0.69102(17) 1.09684(15) 0.66412(18)
N5A N 1.1193(10) 0.7356(11) 0.1148(9)
N6A N 0.5363(11) -0.1033(10) 0.3148(11)
loop_
_geom_bond_atom_site_label_1
_geom_bond_atom_site_label_2
_geom_bond_site_symmetry_1
_geom_bond_site_symmetry_2
Zn1 N3 1_555 1_555
Zn2 N4 1_555 1_555
N1 C8 1_555 1_555
N2 C14 1_555 1_555
N3 C17 1_555 1_555
N4 C22 1_555 1_555
N5 C27 1_555 1_555
N6 C32 1_555 1_555
O1 Zn1 1_555 1_555
O2 C37 1_555 1_555
O3 Zn1 1_555 1_555
O4 C38 1_555 1_555
O5 Zn2 1_555 1_555
O6 C39 1_555 1_555
O7 Zn2 1_555 1_555
H1 O7 1_555 1_555
C1 C2 1_555 1_555
C2 C3 1_555 1_555
C3 C4 1_555 1_555
C4 C11 1_555 1_555
C5 C1 1_555 1_555
C6 C5 1_555 1_555
H2 C6 1_555 1_555
C7 C6 1_555 1_555
H3 C7 1_555 1_555
C8 C7 1_555 1_555
C9 C8 1_555 1_555
H4 C9 1_555 1_555
C10 C5 1_555 1_555
H5 C10 1_555 1_555
C11 C12 1_555 1_555
C12 H6 1_555 1_555
C13 C12 1_555 1_555
H7 C13 1_555 1_555
C14 C13 1_555 1_555
C15 C14 1_555 1_555
H8 C15 1_555 1_555
C16 C11 1_555 1_555
H9 C16 1_555 1_555
C17 H10 1_555 1_555
C18 C17 1_555 1_555
H11 C18 1_555 1_555
C19 N1 1_555 1_555
C20 C19 1_555 1_555
H12 C20 1_555 1_555
C21 N3 1_555 1_555
H13 C21 1_555 1_555
C22 H14 1_555 1_555
C23 C22 1_555 1_555
H15 C23 1_555 1_555
C24 N1 1_555 1_555
C25 C24 1_555 1_555
H16 C25 1_555 1_555
C26 N4 1_555 1_555
H17 C26 1_555 1_555
C27 H18 1_555 1_555
C28 C27 1_555 1_555
H19 C28 1_555 1_555
C29 N2 1_555 1_555
C30 C29 1_555 1_555
H20 C30 1_555 1_555
C31 N5 1_555 1_555
H21 C31 1_555 1_555
C32 H22 1_555 1_555
C33 C32 1_555 1_555
H23 C33 1_555 1_555
C34 N2 1_555 1_555
C35 C34 1_555 1_555
H24 C35 1_555 1_555
C36 N6 1_555 1_555
H25 C36 1_555 1_555
C37 O1 1_555 1_555
H26 C37 1_555 1_555
C38 O3 1_555 1_555
H27 C38 1_555 1_555
C39 O5 1_555 1_555
H28 C39 1_555 1_555
Zn1A N5 1_555 1_555
Zn2A N6 1_555 1_555
N5A Zn1 1_555 1_555
N6A Zn2 1_555 1_555
C9 C10 1_555 1_555
C15 C16 1_555 1_555
C18 C19 1_555 1_555
C20 C21 1_555 1_555
C23 C24 1_555 1_555
C25 C26 1_555 1_555
C28 C29 1_555 1_555
C30 C31 1_555 1_555
C33 C34 1_555 1_555
C35 C36 1_555 1_555

#END
