
#######################################################################
#
#                 Cambridge Crystallographic Data Centre
#                                CCDC 
#
#######################################################################
#
# If this CIF has been generated from an entry in the Cambridge 
# Structural Database, then it will include bibliographic, chemical, 
# crystal, experimental, refinement or atomic coordinate data resulting 
# from the CCDC's data processing and validation procedures.
#
#######################################################################

data_LAZKEE
_symmetry_cell_setting           monoclinic
_symmetry_space_group_name_H-M   'P 21/c'
_symmetry_Int_Tables_number      14
_space_group_name_Hall           '-P 2ybc'
loop_
_symmetry_equiv_pos_site_id
_symmetry_equiv_pos_as_xyz
1 x,y,z
2 -x,1/2+y,1/2-z
3 -x,-y,-z
4 x,1/2-y,1/2+z
_cell_length_a                   12.279(3)
_cell_length_b                   11.242(2)
_cell_length_c                   12.789(3)
_cell_angle_alpha                90
_cell_angle_beta                 111.26(3)
_cell_angle_gamma                90
_cell_volume                     1645.26
loop_
_atom_site_label
_atom_site_type_symbol
_atom_site_fract_x
_atom_site_fract_y
_atom_site_fract_z
Cu1 Cu -0.14105(8) -0.49658(8) -0.06411(6)
Cu2 Cu -0.01218(7) -0.25740(7) 0.07388(6)
Cu3 Cu 0.0000 0.0000 0.0000
Cl1 Cl -0.3247(3) -0.4116(4) -0.2694(3)
C1 C -0.2800(8) -0.6709(8) 0.0001(7)
H1 H -0.2063 -0.7004 0.0421
C2 C -0.3770(9) -0.7293(9) 0.0046(8)
H2 H -0.3682 -0.7966 0.0493
C3 C -0.4848(9) -0.6882(10) -0.0563(8)
H3 H -0.5513 -0.7257 -0.0536
C4 C -0.4936(8) -0.5913(10) -0.1209(8)
H4 H -0.5671 -0.5628 -0.1651
C5 C -0.3950(8) -0.5342(8) -0.1223(7)
C6 C -0.4033(9) -0.4156(11) -0.1849(8)
H5 H -0.3767 -0.3521 -0.1301
H6 H -0.4847 -0.4003 -0.2298
N1 N -0.1453(5) -0.3718(5) 0.0470(5)
N2 N -0.1805(6) -0.3952(6) 0.1199(6)
N3 N -0.2143(9) -0.4167(9) 0.1897(7)
N4 N 0.1036(5) -0.1306(5) 0.0828(5)
N5 N 0.2036(7) -0.1302(5) 0.1459(6)
N6 N 0.2971(7) -0.1363(7) 0.2045(7)
N7 N 0.1127(5) -0.3747(5) 0.1601(4)
N8 N 0.1230(6) -0.3954(5) 0.2554(6)
N9 N 0.1358(9) -0.4147(8) 0.3476(7)
N10 N -0.0141(5) -0.1058(5) 0.4183(5)
N11 N -0.0233(5) -0.1465(5) 0.3354(6)
N12 N -0.0340(7) -0.1916(8) 0.2480(6)
N13 N 0.1134(6) 0.1303(5) 0.0232(5)
N14 N 0.2160(7) 0.1245(6) 0.0449(5)
N15 N 0.3156(8) 0.1192(8) 0.0660(8)
N16 N -0.2875(6) -0.5742(6) -0.0618(5)
Cu1B Cu 0.14105(8) 0.49658(8) 0.06411(6)
Cu1B_2 Cu 0.14105(8) -0.50342(8) 0.06411(6)
Cu1C Cu -0.14105(8) -0.00342(8) 0.43589(6)
Cu1A Cu 0.14105(8) 0.00342(8) 0.56411(6)
Cu1_2 Cu -0.14105(8) 0.50342(8) -0.06411(6)
Cu2B Cu 0.01218(7) 0.25740(7) -0.07388(6)
Cu2C Cu -0.01218(7) -0.24260(7) 0.57388(6)
Cu2C_2 Cu -0.01218(7) -0.24260(7) -0.42612(6)
Cl1B Cl 0.3247(3) 0.4116(4) 0.2694(3)
C1B C 0.2800(8) 0.6709(8) -0.0001(7)
H1B H 0.2063 0.7004 -0.0421
C2B C 0.3770(9) 0.7293(9) -0.0046(8)
H2B H 0.3682 0.7966 -0.0493
C3B C 0.4848(9) 0.6882(10) 0.0563(8)
H3B H 0.5513 0.7257 0.0536
C4B C 0.4936(8) 0.5913(10) 0.1209(8)
H4B H 0.5671 0.5628 0.1651
C5B C 0.3950(8) 0.5342(8) 0.1223(7)
C6B C 0.4033(9) 0.4156(11) 0.1849(8)
H5B H 0.3767 0.3521 0.1301
H6B H 0.4847 0.4003 0.2298
N1B N 0.1453(5) 0.3718(5) -0.0470(5)
N2B N 0.1805(6) 0.3952(6) -0.1199(6)
N3B N 0.2143(9) 0.4167(9) -0.1897(7)
N4B N -0.1036(5) 0.1306(5) -0.0828(5)
N5B N -0.2036(7) 0.1302(5) -0.1459(6)
N6B N -0.2971(7) 0.1363(7) -0.2045(7)
N7B N -0.1127(5) 0.3747(5) -0.1601(4)
N7B_2 N -0.1127(5) -0.6253(5) -0.1601(4)
N7_2 N 0.1127(5) 0.6253(5) 0.1601(4)
N8B N -0.1230(6) 0.3954(5) -0.2554(6)
N9B N -0.1358(9) 0.4147(8) -0.3476(7)
N10C N -0.0141(5) -0.3942(5) -0.0817(5)
N10A N 0.0141(5) -0.6058(5) 0.0817(5)
N10A_2 N 0.0141(5) 0.3942(5) 0.0817(5)
N10C_2 N -0.0141(5) 0.6058(5) -0.0817(5)
N11C N -0.0233(5) -0.3535(5) -0.1646(6)
N12C N -0.0340(7) -0.3084(8) -0.2520(6)
N12B N 0.0340(7) 0.1916(8) -0.2480(6)
N13B N -0.1134(6) -0.1303(5) -0.0232(5)
N14B N -0.2160(7) -0.1245(6) -0.0449(5)
N15B N -0.3156(8) -0.1192(8) -0.0660(8)
N16B N 0.2875(6) 0.5742(6) 0.0618(5)
loop_
_geom_bond_atom_site_label_1
_geom_bond_atom_site_label_2
_geom_bond_site_symmetry_1
_geom_bond_site_symmetry_2
Cu1 Cl1 1_555 1_555
Cu2 N1 1_555 1_555
Cu3 N4 1_555 1_555
Cl1 C6 1_555 1_555
C1 H1 1_555 1_555
C2 C1 1_555 1_555
H2 C2 1_555 1_555
C3 C2 1_555 1_555
H3 C3 1_555 1_555
C4 C3 1_555 1_555
H4 C4 1_555 1_555
C5 C4 1_555 1_555
C6 C5 1_555 1_555
H5 C6 1_555 1_555
H6 C6 1_555 1_555
N1 Cu1 1_555 1_555
N2 N1 1_555 1_555
N3 N2 1_555 1_555
N4 Cu2 1_555 1_555
N5 N4 1_555 1_555
N6 N5 1_555 1_555
N7 Cu2 1_555 1_555
N8 N7 1_555 1_555
N9 N8 1_555 1_555
N10 N11 1_555 1_555
N11 N12 1_555 1_555
N12 Cu2 1_555 1_555
N13 Cu3 1_555 1_555
N14 N13 1_555 1_555
N15 N14 1_555 1_555
N16 Cu1 1_555 1_555
Cu1B Cl1B 1_555 1_555
Cu1B_2 N7 1_555 1_555
Cu1C N10 1_555 1_555
Cu1A N10 1_555 1_555
Cu1_2 N7B 1_555 1_555
Cu2B N13 1_555 1_555
Cu2C N10 1_555 1_555
Cu2C_2 N12C 1_555 1_555
Cl1B C6B 1_555 1_555
C1B H1B 1_555 1_555
C2B C1B 1_555 1_555
H2B C2B 1_555 1_555
C3B C2B 1_555 1_555
H3B C3B 1_555 1_555
C4B C3B 1_555 1_555
H4B C4B 1_555 1_555
C5B C4B 1_555 1_555
C6B C5B 1_555 1_555
H5B C6B 1_555 1_555
H6B C6B 1_555 1_555
N1B Cu1B 1_555 1_555
N2B N1B 1_555 1_555
N3B N2B 1_555 1_555
N4B Cu3 1_555 1_555
N5B N4B 1_555 1_555
N6B N5B 1_555 1_555
N7B Cu2B 1_555 1_555
N7B_2 Cu1 1_555 1_555
N7_2 Cu1B 1_555 1_555
N8B N7B 1_555 1_555
N9B N8B 1_555 1_555
N10C Cu1 1_555 1_555
N10A Cu1 1_555 1_555
N10A_2 Cu1B 1_555 1_555
N10C_2 Cu1B 1_555 1_555
N11C N10C 1_555 1_555
N12C N11C 1_555 1_555
N12B Cu2B 1_555 1_555
N13B Cu2 1_555 1_555
N14B N13B 1_555 1_555
N15B N14B 1_555 1_555
N16B Cu1B 1_555 1_555
Cu2 N10C 1_555 1_555
Cu3 N13B 1_555 1_555
C1 N16 1_555 1_555
C5 N16 1_555 1_555
Cu1B_2 N10C 1_555 1_555
Cu1B_2 N10A 1_555 1_555
Cu1_2 N10A_2 1_555 1_555
Cu1_2 N10C_2 1_555 1_555
Cu2B N1B 1_555 1_555
Cu2B N4B 1_555 1_555
Cu2B N10A_2 1_555 1_555
C1B N16B 1_555 1_555
C5B N16B 1_555 1_555

#END
