
#######################################################################
#
#                 Cambridge Crystallographic Data Centre
#                                CCDC 
#
#######################################################################
#
# If this CIF has been generated from an entry in the Cambridge 
# Structural Database, then it will include bibliographic, chemical, 
# crystal, experimental, refinement or atomic coordinate data resulting 
# from the CCDC's data processing and validation procedures.
#
#######################################################################

data_LAZLIJ
_symmetry_cell_setting           triclinic
_symmetry_space_group_name_H-M   'P -1'
_symmetry_Int_Tables_number      2
_space_group_name_Hall           '-P 1'
loop_
_symmetry_equiv_pos_site_id
_symmetry_equiv_pos_as_xyz
1 x,y,z
2 -x,-y,-z
_cell_length_a                   8.4628(12)
_cell_length_b                   10.6640(15)
_cell_length_c                   11.8808(19)
_cell_angle_alpha                80.5110(10)
_cell_angle_beta                 70.4030(10)
_cell_angle_gamma                86.894(2)
_cell_volume                     996.281
loop_
_atom_site_label
_atom_site_type_symbol
_atom_site_fract_x
_atom_site_fract_y
_atom_site_fract_z
Cu1 Cu 0.84909(14) -0.02676(11) 0.57998(13)
I1 I 0.89409(9) 0.04367(7) 0.34113(8)
N1 N 0.4379(8) 0.4652(7) 0.7057(7)
N2 N 0.6943(9) 0.1182(7) 0.6498(8)
N3 N 0.7190(9) 0.8067(7) 0.6239(8)
C1 C -0.4146(12) 0.4953(10) 0.9743(9)
C2 C -0.2691(13) 0.4889(11) 0.9302(10)
C3 C -0.0878(11) 0.4816(10) 0.8695(10)
C4 C 0.0055(11) 0.3821(10) 0.9069(9)
H1 H -0.0484 0.3179 0.9693
C5 C 0.1794(11) 0.3776(9) 0.8516(9)
H2 H 0.2414 0.3122 0.8787
C6 C 0.2565(10) 0.4682(8) 0.7594(9)
C7 C 0.1677(12) 0.5669(10) 0.7172(9)
H3 H 0.2227 0.6283 0.6524
C8 C -0.0019(12) 0.5729(10) 0.7721(10)
H4 H -0.0617 0.6393 0.7441
C9 C 0.7553(11) 0.2114(9) 0.6870(9)
H5 H 0.8595 0.1989 0.6974
C10 C 0.6749(10) 0.3230(8) 0.7106(9)
H6 H 0.7209 0.3820 0.7405
C11 C 0.5228(11) 0.3482(8) 0.6896(9)
C12 C 0.4560(11) 0.2528(8) 0.6514(9)
H7 H 0.3538 0.2642 0.6378
C13 C 0.5461(12) 0.1395(9) 0.6341(10)
H8 H 0.4999 0.0756 0.6102
C14 C 0.7711(11) 0.7101(9) 0.5603(9)
H9 H 0.8715 0.7205 0.4959
C15 C 0.6872(11) 0.5982(9) 0.5836(9)
H10 H 0.7326 0.5338 0.5382
C16 C 0.5326(11) 0.5809(8) 0.6762(9)
C17 C 0.4760(11) 0.6807(9) 0.7439(9)
H11 H 0.3760 0.6733 0.8087
C18 C 0.5705(12) 0.7886(9) 0.7128(10)
H12 H 0.5287 0.8547 0.7566
Cu1A Cu 1.15091(14) 0.02676(11) 0.42002(13)
Cu1_2 Cu 0.84909(14) 0.97324(11) 0.57998(13)
Cu1A_2 Cu -1.84909(14) 1.02676(11) 1.42002(13)
Cu1A_3 Cu -1.84909(14) 0.02676(11) 1.42002(13)
I1A I 1.10591(9) -0.04367(7) 0.65887(8)
N1A N -1.4379(8) 0.5348(7) 1.2943(7)
N2A N -1.6943(9) 0.8818(7) 1.3502(8)
N2A_2 N 1.3057(9) -0.1182(7) 0.3502(8)
N3A N -1.7190(9) 0.1933(7) 1.3761(8)
N3_2 N 0.7190(9) -0.1933(7) 0.6239(8)
N3A_2 N 1.2810(9) 0.1933(7) 0.3761(8)
C1A C -0.5854(12) 0.5047(10) 1.0257(9)
C2A C -0.7309(13) 0.5111(11) 1.0698(10)
C3A C -0.9122(11) 0.5184(10) 1.1305(10)
C4A C -1.0055(11) 0.6179(10) 1.0931(9)
H1A H -0.9516 0.6821 1.0307
C5A C -1.1794(11) 0.6224(9) 1.1484(9)
H2A H -1.2414 0.6878 1.1213
C6A C -1.2565(10) 0.5318(8) 1.2406(9)
C7A C -1.1677(12) 0.4331(10) 1.2828(9)
H3A H -1.2227 0.3717 1.3476
C8A C -0.9981(12) 0.4271(10) 1.2279(10)
H4A H -0.9383 0.3607 1.2559
C9A C -1.7553(11) 0.7886(9) 1.3130(9)
H5A H -1.8595 0.8011 1.3026
C10A C -1.6749(10) 0.6770(8) 1.2894(9)
H6A H -1.7209 0.6180 1.2595
C11A C -1.5228(11) 0.6518(8) 1.3104(9)
C12A C -1.4560(11) 0.7472(8) 1.3486(9)
H7A H -1.3538 0.7358 1.3622
C13A C -1.5461(12) 0.8605(9) 1.3659(10)
H8A H -1.4999 0.9244 1.3898
C14A C -1.7711(11) 0.2899(9) 1.4397(9)
H9A H -1.8715 0.2795 1.5041
C15A C -1.6872(11) 0.4018(9) 1.4164(9)
H10A H -1.7326 0.4662 1.4618
C16A C -1.5326(11) 0.4191(8) 1.3238(9)
C17A C -1.4760(11) 0.3193(9) 1.2561(9)
H11A H -1.3760 0.3267 1.1913
C18A C -1.5705(12) 0.2114(9) 1.2872(10)
H12A H -1.5287 0.1453 1.2434
Cl1 Cl 0.387(7) 1.095(5) 1.031(4)
Cl2 Cl 0.149(6) 0.988(5) 0.964(4)
C19 C 0.32(2) 0.955(18) 1.008(14)
H13 H 0.4104 0.9190 0.9460
H14 H 0.2936 0.8941 1.0822
loop_
_geom_bond_atom_site_label_1
_geom_bond_atom_site_label_2
_geom_bond_site_symmetry_1
_geom_bond_site_symmetry_2
Cu1 I1 1_555 1_555
I1 Cu1A 1_555 1_555
Cl1 C19 1_555 1_555
Cl2 C19 1_555 1_555
N1 C6 1_555 1_555
N2 Cu1 1_555 1_555
N3 C14 1_555 1_555
C1 C2 1_555 1_555
C2 C3 1_555 1_555
C3 C4 1_555 1_555
C4 H1 1_555 1_555
C5 C4 1_555 1_555
H2 C5 1_555 1_555
C6 C5 1_555 1_555
C7 C6 1_555 1_555
H3 C7 1_555 1_555
C8 C3 1_555 1_555
H4 C8 1_555 1_555
C9 N2 1_555 1_555
H5 C9 1_555 1_555
C10 C9 1_555 1_555
H6 C10 1_555 1_555
C11 N1 1_555 1_555
C12 C11 1_555 1_555
H7 C12 1_555 1_555
C13 N2 1_555 1_555
H8 C13 1_555 1_555
C14 H9 1_555 1_555
C15 C14 1_555 1_555
H10 C15 1_555 1_555
C16 N1 1_555 1_555
C17 C16 1_555 1_555
H11 C17 1_555 1_555
C18 N3 1_555 1_555
H12 C18 1_555 1_555
C19 H13 1_555 1_555
H14 C19 1_555 1_555
Cu1A I1A 1_555 1_555
Cu1_2 N3 1_555 1_555
Cu1A_2 N2A 1_555 1_555
Cu1A_3 N3A 1_555 1_555
I1A Cu1 1_555 1_555
N1A C6A 1_555 1_555
N2A C9A 1_555 1_555
N2A_2 Cu1A 1_555 1_555
N3A C14A 1_555 1_555
N3_2 Cu1 1_555 1_555
N3A_2 Cu1A 1_555 1_555
C1A C1 1_555 1_555
C2A C1A 1_555 1_555
C3A C2A 1_555 1_555
C4A C3A 1_555 1_555
H1A C4A 1_555 1_555
C5A C4A 1_555 1_555
H2A C5A 1_555 1_555
C6A C5A 1_555 1_555
C7A C6A 1_555 1_555
H3A C7A 1_555 1_555
C8A C3A 1_555 1_555
H4A C8A 1_555 1_555
C9A H5A 1_555 1_555
C10A C9A 1_555 1_555
H6A C10A 1_555 1_555
C11A N1A 1_555 1_555
C12A C11A 1_555 1_555
H7A C12A 1_555 1_555
C13A N2A 1_555 1_555
H8A C13A 1_555 1_555
C14A H9A 1_555 1_555
C15A C14A 1_555 1_555
H10A C15A 1_555 1_555
C16A N1A 1_555 1_555
C17A C16A 1_555 1_555
H11A C17A 1_555 1_555
C18A N3A 1_555 1_555
H12A C18A 1_555 1_555
C7 C8 1_555 1_555
C10 C11 1_555 1_555
C12 C13 1_555 1_555
C15 C16 1_555 1_555
C17 C18 1_555 1_555
C7A C8A 1_555 1_555
C10A C11A 1_555 1_555
C12A C13A 1_555 1_555
C15A C16A 1_555 1_555
C17A C18A 1_555 1_555

#END
