
#######################################################################
#
#                 Cambridge Crystallographic Data Centre
#                                CCDC 
#
#######################################################################
#
# If this CIF has been generated from an entry in the Cambridge 
# Structural Database, then it will include bibliographic, chemical, 
# crystal, experimental, refinement or atomic coordinate data resulting 
# from the CCDC's data processing and validation procedures.
#
#######################################################################

data_LAZLOP
_symmetry_cell_setting           monoclinic
_symmetry_space_group_name_H-M   'P 2/n'
_symmetry_Int_Tables_number      13
_space_group_name_Hall           '-P 2yac'
loop_
_symmetry_equiv_pos_site_id
_symmetry_equiv_pos_as_xyz
1 x,y,z
2 1/2-x,y,1/2-z
3 -x,-y,-z
4 1/2+x,-y,1/2+z
_cell_length_a                   13.0282(13)
_cell_length_b                   9.5994(8)
_cell_length_c                   17.9846(17)
_cell_angle_alpha                90
_cell_angle_beta                 90.2160(10)
_cell_angle_gamma                90
_cell_volume                     2249.19
loop_
_atom_site_label
_atom_site_type_symbol
_atom_site_fract_x
_atom_site_fract_y
_atom_site_fract_z
Ag1 Ag 0.42222(7) 0.40075(9) 0.55978(5)
N1 N 0.6429(5) 0.2127(6) 0.8579(3)
N2 N 0.4987(5) 0.3330(8) 0.6599(4)
N3 N 0.8298(6) 0.4742(8) 0.9874(4)
O1 O 0.4455(12) 0.1623(16) 0.4834(10)
H1 H 0.4072 0.1825 0.4467
H2 H 0.4973 0.1576 0.4547
C1 C 0.5146(8) -0.4364(10) 0.9858(5)
C2 C 0.5404(8) -0.3256(10) 0.9594(5)
C3 C 0.5652(8) -0.1907(9) 0.9324(5)
C4 C 0.4927(8) -0.1018(9) 0.9096(5)
H5 H 0.4242 -0.1293 0.9109
C5 C 0.5170(7) 0.0318(9) 0.8838(5)
H6 H 0.4655 0.0914 0.8671
C6 C 0.6187(7) 0.0740(8) 0.8833(5)
C7 C 0.6939(7) -0.0185(9) 0.9058(5)
H7 H 0.7624 0.0086 0.9032
C8 C 0.6713(8) -0.1457(9) 0.9311(6)
H8 H 0.7232 -0.2046 0.9478
C9 C 0.5404(6) 0.2091(9) 0.6684(5)
H9 H 0.5352 0.1463 0.6292
C10 C 0.5907(6) 0.1671(8) 0.7311(4)
H10 H 0.6216 0.0798 0.7332
C11 C 0.5953(6) 0.2567(8) 0.7919(4)
C12 C 0.5503(6) 0.3859(8) 0.7846(5)
H11 H 0.5508 0.4486 0.8240
C13 C 0.5044(7) 0.4209(10) 0.7177(6)
H12 H 0.4762 0.5094 0.7126
C14 C 0.8084(6) 0.5010(8) 0.9163(4)
H13 H 0.8374 0.5804 0.8955
C15 C 0.7481(6) 0.4224(8) 0.8723(4)
H14 H 0.7362 0.4486 0.8232
C16 C 0.7031(6) 0.3004(8) 0.9006(4)
C17 C 0.7246(6) 0.2694(9) 0.9758(4)
H15 H 0.6966 0.1910 0.9984
C18 C 0.7885(8) 0.3592(11) 1.0154(5)
H16 H 0.8033 0.3372 1.0647
Ag1B Ag 0.57778(7) -1.40075(9) 1.44022(5)
Ag1C Ag 0.92222(7) 0.59925(9) 1.05978(5)
Ag1A Ag 0.07778(7) -1.59925(9) 0.94022(5)
N1B N 0.3571(5) -1.2127(6) 1.1421(3)
N2B N 0.5013(5) -1.3330(8) 1.3401(4)
N3B N 0.1702(6) -1.4742(8) 1.0126(4)
N3C N 0.3298(6) 0.5258(8) 0.4874(4)
N3A N 0.6702(6) -1.5258(8) 1.5126(4)
O1B O 0.5545(12) -1.1623(16) 1.5166(10)
H1B H 0.5928 -1.1825 1.5533
H2B H 0.5027 -1.1576 1.5453
C1B C 0.4854(8) -0.5636(10) 1.0142(5)
C2B C 0.4596(8) -0.6744(10) 1.0406(5)
C3B C 0.4348(8) -0.8093(9) 1.0676(5)
C4B C 0.5073(8) -0.8982(9) 1.0904(5)
H5B H 0.5758 -0.8707 1.0891
C5B C 0.4830(7) -1.0318(9) 1.1162(5)
H6B H 0.5345 -1.0914 1.1329
C6B C 0.3813(7) -1.0740(8) 1.1167(5)
C7B C 0.3061(7) -0.9815(9) 1.0942(5)
H7B H 0.2376 -1.0086 1.0968
C8B C 0.3287(8) -0.8543(9) 1.0689(6)
H8B H 0.2768 -0.7954 1.0522
C9B C 0.4596(6) -1.2091(9) 1.3316(5)
H9B H 0.4648 -1.1463 1.3708
C10B C 0.4093(6) -1.1671(8) 1.2689(4)
H10B H 0.3784 -1.0798 1.2668
C11B C 0.4047(6) -1.2567(8) 1.2081(4)
C12B C 0.4497(6) -1.3859(8) 1.2154(5)
H11B H 0.4492 -1.4486 1.1760
C13B C 0.4956(7) -1.4209(10) 1.2823(6)
H12B H 0.5238 -1.5094 1.2874
C14B C 0.1916(6) -1.5010(8) 1.0837(4)
H13B H 0.1626 -1.5804 1.1045
C15B C 0.2519(6) -1.4224(8) 1.1277(4)
H14B H 0.2638 -1.4486 1.1768
C16B C 0.2969(6) -1.3004(8) 1.0994(4)
C17B C 0.2754(6) -1.2694(9) 1.0242(4)
H15B H 0.3034 -1.1910 1.0016
C18B C 0.2115(8) -1.3592(11) 0.9846(5)
H16B H 0.1967 -1.3372 0.9353
N4 N 0.2500 0.534(6) 0.7500
O2 O 0.266(2) 0.584(3) 0.6887(15)
O3 O 0.2500 0.407(5) 0.7500
O2A O 0.234(2) 0.584(3) 0.8113(15)
N5 N 0.2500 0.262(5) 0.2500
O4 O 0.331(2) 0.317(3) 0.2553(12)
O5 O 0.2500 0.133(5) 0.2500
O4A O 0.169(2) 0.317(3) 0.2447(12)
O6 O 0.4566(14) 0.1715(19) 0.3468(9)
H3 H 0.4475 0.2528 0.3293
H4 H 0.4001 0.1392 0.3306
loop_
_geom_bond_atom_site_label_1
_geom_bond_atom_site_label_2
_geom_bond_site_symmetry_1
_geom_bond_site_symmetry_2
Ag1 N2 1_555 1_555
N1 C6 1_555 1_555
N2 C9 1_555 1_555
N3 C14 1_555 1_555
N4 O2 1_555 1_555
N5 O4 1_555 1_555
O1 Ag1 1_555 1_555
H1 O1 1_555 1_555
H2 O1 1_555 1_555
O3 N4 1_555 1_555
O5 N5 1_555 1_555
O6 H3 1_555 1_555
H4 O6 1_555 1_555
C1 C2 1_555 1_555
C2 C3 1_555 1_555
C3 C4 1_555 1_555
C4 H5 1_555 1_555
C5 C4 1_555 1_555
H6 C5 1_555 1_555
C6 C5 1_555 1_555
C7 C6 1_555 1_555
H7 C7 1_555 1_555
C8 C3 1_555 1_555
H8 C8 1_555 1_555
C9 H9 1_555 1_555
C10 C9 1_555 1_555
H10 C10 1_555 1_555
C11 N1 1_555 1_555
C12 C11 1_555 1_555
H11 C12 1_555 1_555
C13 N2 1_555 1_555
H12 C13 1_555 1_555
C14 H13 1_555 1_555
C15 C14 1_555 1_555
H14 C15 1_555 1_555
C16 N1 1_555 1_555
C17 C16 1_555 1_555
H15 C17 1_555 1_555
C18 N3 1_555 1_555
H16 C18 1_555 1_555
Ag1B N2B 1_555 1_555
Ag1C N3 1_555 1_555
Ag1A N3B 1_555 1_555
N1B C6B 1_555 1_555
N2B C9B 1_555 1_555
N3B C14B 1_555 1_555
N3C Ag1 1_555 1_555
N3A Ag1B 1_555 1_555
O1B Ag1B 1_555 1_555
H1B O1B 1_555 1_555
H2B O1B 1_555 1_555
O2A N4 1_555 1_555
O4A N5 1_555 1_555
C1B C1 1_555 1_555
C2B C1B 1_555 1_555
C3B C2B 1_555 1_555
C4B C3B 1_555 1_555
H5B C4B 1_555 1_555
C5B C4B 1_555 1_555
H6B C5B 1_555 1_555
C6B C5B 1_555 1_555
C7B C6B 1_555 1_555
H7B C7B 1_555 1_555
C8B C3B 1_555 1_555
H8B C8B 1_555 1_555
C9B H9B 1_555 1_555
C10B C9B 1_555 1_555
H10B C10B 1_555 1_555
C11B N1B 1_555 1_555
C12B C11B 1_555 1_555
H11B C12B 1_555 1_555
C13B N2B 1_555 1_555
H12B C13B 1_555 1_555
C14B H13B 1_555 1_555
C15B C14B 1_555 1_555
H14B C15B 1_555 1_555
C16B N1B 1_555 1_555
C17B C16B 1_555 1_555
H15B C17B 1_555 1_555
C18B N3B 1_555 1_555
H16B C18B 1_555 1_555
C7 C8 1_555 1_555
C10 C11 1_555 1_555
C12 C13 1_555 1_555
C15 C16 1_555 1_555
C17 C18 1_555 1_555
C7B C8B 1_555 1_555
C10B C11B 1_555 1_555
C12B C13B 1_555 1_555
C15B C16B 1_555 1_555
C17B C18B 1_555 1_555

#END
