
#######################################################################
#
#                 Cambridge Crystallographic Data Centre
#                                CCDC 
#
#######################################################################
#
# If this CIF has been generated from an entry in the Cambridge 
# Structural Database, then it will include bibliographic, chemical, 
# crystal, experimental, refinement or atomic coordinate data resulting 
# from the CCDC's data processing and validation procedures.
#
#######################################################################

data_LAZMIK02
_symmetry_cell_setting           triclinic
_symmetry_space_group_name_H-M   'P -1'
_symmetry_Int_Tables_number      2
_space_group_name_Hall           '-P 1'
loop_
_symmetry_equiv_pos_site_id
_symmetry_equiv_pos_as_xyz
1 x,y,z
2 -x,-y,-z
_cell_length_a                   7.2188(7)
_cell_length_b                   10.0835(8)
_cell_length_c                   10.2069(7)
_cell_angle_alpha                113.713(7)
_cell_angle_beta                 99.490(7)
_cell_angle_gamma                104.516(8)
_cell_volume                     628.246
loop_
_atom_site_label
_atom_site_type_symbol
_atom_site_fract_x
_atom_site_fract_y
_atom_site_fract_z
Co1 Co 0.41140(6) 1.62192(5) 1.11679(5)
O1 O 0.3836(3) 1.3953(2) 1.0276(2)
O2 O 0.3927(4) 1.3618(3) 1.2323(2)
O3 O 0.3905(3) 0.8345(2) 1.1434(2)
O4 O 0.1962(3) 0.6293(2) 0.9351(2)
O5 O 0.1830(3) 1.6002(3) 1.2222(3)
H1 H 0.2200 1.5934 1.3135
H2 H 0.0653 1.5104 1.1617
N1 N -0.3604(4) 0.7282(3) 0.3196(3)
C1 C 0.3522(4) 1.3100(4) 1.0956(3)
C2 C 0.2595(4) 1.1395(3) 0.9962(3)
C3 C 0.2957(4) 1.0385(4) 1.0496(3)
H3 H 0.3730 1.0773 1.1481
C4 C 0.2167(4) 0.8801(3) 0.9563(3)
C5 C 0.2675(4) 0.7745(4) 1.0146(3)
C6 C 0.0980(4) 0.8208(4) 0.8101(3)
H4 H 0.0477 0.7146 0.7476
C7 C 0.0536(4) 0.9204(4) 0.7563(3)
C8 C 0.1370(4) 1.0791(4) 0.8497(3)
H5 H 0.1108 1.1462 0.8141
C9 C -0.0848(4) 0.8569(4) 0.6039(3)
C10 C -0.0911(5) 0.7229(4) 0.4857(4)
H6 H -0.0015 0.6742 0.4996
C11 C -0.2302(5) 0.6619(4) 0.3475(4)
H7 H -0.2337 0.5708 0.2704
C12 C -0.3493(5) 0.8606(4) 0.4311(4)
H8 H -0.4349 0.9103 0.4121
C13 C -0.2175(5) 0.9275(4) 0.5732(4)
H9 H -0.2170 1.0190 0.6480
Co1_2 Co -0.58860(6) 0.62192(5) 0.11679(5)
Co1_3 Co 0.41140(6) 0.62192(5) 1.11679(5)
Co1A Co 0.58860(6) 1.37808(5) 0.88321(5)
O1A O 0.6164(3) 1.6047(2) 0.9724(2)
O3_2 O 0.3905(3) 1.8345(2) 1.1434(2)
O4_2 O 0.1962(3) 1.6293(2) 0.9351(2)
N1_2 N 0.6396(4) 1.7282(3) 1.3196(3)
O6 O 0.3222(5) 0.5884(4) 0.4858(4)
H10 H 0.3907 0.5661 0.5446
H11 H 0.3530 0.5124 0.4115
loop_
_geom_bond_atom_site_label_1
_geom_bond_atom_site_label_2
_geom_bond_site_symmetry_1
_geom_bond_site_symmetry_2
Co1 O1 1_555 1_555
O1 C1 1_555 1_555
O2 C1 1_555 1_555
O3 C5 1_555 1_555
O4 C5 1_555 1_555
O5 Co1 1_555 1_555
H1 O5 1_555 1_555
H2 O5 1_555 1_555
N1 C11 1_555 1_555
C1 C2 1_555 1_555
C2 C3 1_555 1_555
C3 H3 1_555 1_555
C4 C3 1_555 1_555
C5 C4 1_555 1_555
C6 C4 1_555 1_555
H4 C6 1_555 1_555
C7 C6 1_555 1_555
C8 C2 1_555 1_555
H5 C8 1_555 1_555
C9 C7 1_555 1_555
C10 C9 1_555 1_555
H6 C10 1_555 1_555
C11 C10 1_555 1_555
H7 C11 1_555 1_555
C12 N1 1_555 1_555
H8 C12 1_555 1_555
C13 C9 1_555 1_555
H9 C13 1_555 1_555
O6 H10 1_555 1_555
H11 O6 1_555 1_555
Co1_2 N1 1_555 1_555
Co1_3 O3 1_555 1_555
Co1A O1 1_555 1_555
O1A Co1 1_555 1_555
O3_2 Co1 1_555 1_555
O4_2 Co1 1_555 1_555
N1_2 Co1 1_555 1_555
O4 Co1_3 1_555 1_555
C7 C8 1_555 1_555
C12 C13 1_555 1_555
Co1A O1A 1_555 1_555

#END
