
#######################################################################
#
#                 Cambridge Crystallographic Data Centre
#                                CCDC 
#
#######################################################################
#
# If this CIF has been generated from an entry in the Cambridge 
# Structural Database, then it will include bibliographic, chemical, 
# crystal, experimental, refinement or atomic coordinate data resulting 
# from the CCDC's data processing and validation procedures.
#
#######################################################################

data_LAZMIK
_symmetry_cell_setting           triclinic
_symmetry_space_group_name_H-M   'P -1'
_symmetry_Int_Tables_number      2
_space_group_name_Hall           '-P 1'
loop_
_symmetry_equiv_pos_site_id
_symmetry_equiv_pos_as_xyz
1 x,y,z
2 -x,-y,-z
_cell_length_a                   7.2133(14)
_cell_length_b                   10.076(2)
_cell_length_c                   10.213(2)
_cell_angle_alpha                113.83(3)
_cell_angle_beta                 99.51(3)
_cell_angle_gamma                104.30(3)
_cell_volume                     627.878
loop_
_atom_site_label
_atom_site_type_symbol
_atom_site_fract_x
_atom_site_fract_y
_atom_site_fract_z
N1 N 0.8620(6) 0.7730(5) 1.1818(4)
C1 C 0.8512(8) 0.6401(6) 1.0688(5)
H1 H 0.9389 0.5912 1.0869
C2 C 0.7315(8) 0.8403(6) 1.1532(5)
H2 H 0.7352 0.9323 1.2296
O1 O 0.1159(6) 0.1051(4) 0.4725(4)
C3 C 0.1475(8) 0.1896(6) 0.4050(5)
Co1 Co 1.08883(9) 0.87823(6) 1.38314(6)
O2 O 0.1095(6) 0.6655(4) 0.3564(4)
O3 O 0.1071(7) 0.1385(4) 0.2682(4)
O4 O 1.3169(7) 0.8983(5) 1.2776(5)
O5 O 0.3049(6) 0.8705(4) 0.5652(4)
C4 C 0.2337(7) 0.7259(5) 0.4853(5)
C5 C 0.2042(6) 0.4622(5) 0.4511(5)
H3 H 0.1261 0.4235 0.3528
C6 C 0.3645(7) 0.4218(5) 0.6514(5)
H4 H 0.3919 0.3551 0.6872
C7 C 0.4457(7) 0.5779(6) 0.7429(5)
C8 C 0.2830(7) 0.6189(5) 0.5426(5)
C9 C 0.5852(7) 0.6432(6) 0.8968(5)
C10 C 0.2402(7) 0.3602(5) 0.5040(5)
C11 C 0.4045(7) 0.6797(5) 0.6905(5)
H5 H 0.4570 0.7860 0.7529
C12 C 0.5915(8) 0.7771(6) 1.0137(5)
H6 H 0.5015 0.8255 0.9990
C13 C 0.7170(9) 0.5720(6) 0.9273(6)
H7 H 0.7146 0.4792 0.8529
H8 H 1.421(9) 0.978(7) 1.333(5)
H9 H 1.277(8) 0.899(11) 1.195(6)
O1_2 O 1.1159(6) 1.1051(4) 1.4725(4)
O1A O 0.8841(6) 0.8949(4) 1.5275(4)
Co1_2 Co 0.08883(9) -0.12177(6) 0.38314(6)
Co1A Co -0.08883(9) 0.12177(6) 0.61686(6)
Co1_3 Co 0.08883(9) 0.87823(6) 0.38314(6)
O2_2 O 1.1095(6) 0.6655(4) 1.3564(4)
O5_2 O 1.3049(6) 0.8705(4) 1.5652(4)
O6 O 0.1791(10) 0.9143(8) 0.0148(7)
H10 H 0.149(14) 0.823(5) -0.056(8)
H11 H 0.077(9) 0.923(11) 0.044(10)
loop_
_geom_bond_atom_site_label_1
_geom_bond_atom_site_label_2
_geom_bond_site_symmetry_1
_geom_bond_site_symmetry_2
N1 C1 1_555 1_555
C1 H1 1_555 1_555
C2 N1 1_555 1_555
H2 C2 1_555 1_555
O1 C3 1_555 1_555
C3 O3 1_555 1_555
Co1 N1 1_555 1_555
O2 C4 1_555 1_555
O4 Co1 1_555 1_555
O5 C4 1_555 1_555
C4 C8 1_555 1_555
C5 H3 1_555 1_555
C6 H4 1_555 1_555
C7 C6 1_555 1_555
C8 C5 1_555 1_555
C9 C7 1_555 1_555
C10 C3 1_555 1_555
C11 C7 1_555 1_555
H5 C11 1_555 1_555
C12 C2 1_555 1_555
H6 C12 1_555 1_555
C13 C1 1_555 1_555
H7 C13 1_555 1_555
H8 O4 1_555 1_555
H9 O4 1_555 1_555
O6 H10 1_555 1_555
H11 O6 1_555 1_555
O1_2 Co1 1_555 1_555
O1A Co1 1_555 1_555
Co1_2 O1 1_555 1_555
Co1A O1 1_555 1_555
Co1_3 O2 1_555 1_555
O2_2 Co1 1_555 1_555
O5_2 Co1 1_555 1_555
O5 Co1_3 1_555 1_555
C5 C10 1_555 1_555
C6 C10 1_555 1_555
C8 C11 1_555 1_555
C9 C12 1_555 1_555
C9 C13 1_555 1_555

#END
