
#######################################################################
#
#                 Cambridge Crystallographic Data Centre
#                                CCDC 
#
#######################################################################
#
# If this CIF has been generated from an entry in the Cambridge 
# Structural Database, then it will include bibliographic, chemical, 
# crystal, experimental, refinement or atomic coordinate data resulting 
# from the CCDC's data processing and validation procedures.
#
#######################################################################

data_LAZMOQ01
_symmetry_cell_setting           triclinic
_symmetry_space_group_name_H-M   'P -1'
_symmetry_Int_Tables_number      2
_space_group_name_Hall           '-P 1'
loop_
_symmetry_equiv_pos_site_id
_symmetry_equiv_pos_as_xyz
1 x,y,z
2 -x,-y,-z
_cell_length_a                   10.9974(9)
_cell_length_b                   11.4628(7)
_cell_length_c                   13.3129(9)
_cell_angle_alpha                104.406(6)
_cell_angle_beta                 96.680(6)
_cell_angle_gamma                108.214(7)
_cell_volume                     1509.28
loop_
_atom_site_label
_atom_site_type_symbol
_atom_site_fract_x
_atom_site_fract_y
_atom_site_fract_z
Mn1 Mn 0.67080(5) -0.09749(5) 0.07600(4)
Mn2 Mn 0.17402(5) 0.24522(5) 0.58034(4)
N1 N -0.2723(3) 0.7270(3) 1.0153(2)
N2 N 0.2278(3) -0.5813(3) 0.5163(2)
O1 O 0.0647(2) 0.3543(2) 0.68661(19)
O2 O 0.0565(2) 0.1639(2) 0.69539(18)
O3 O 0.2138(2) 0.0639(2) 0.54890(18)
O4 O 0.3010(3) 0.1736(2) 0.44586(19)
O5 O 0.5459(3) -0.0182(2) 0.18592(19)
O6 O 0.5602(2) -0.2042(2) 0.18522(18)
O7 O -0.2177(3) -0.0316(2) 0.93744(19)
O8 O -0.2886(2) 0.0939(2) 1.04846(19)
O9 O -0.0053(2) 0.1604(2) 0.45827(19)
H1 H 0.0111 0.1732 0.4026
H2 H -0.0372 0.0795 0.4485
O10 O 0.3529(2) 0.3438(2) 0.7009(2)
H3 H 0.3615 0.3158 0.7537
H4 H 0.3738 0.4219 0.7119
O11 O 0.4922(3) -0.1908(3) -0.0476(2)
H5 H 0.4490 -0.1556 -0.0093
H6 H 0.4916 -0.1469 -0.0877
O12 O 0.8486(3) -0.0236(2) 0.1938(2)
H7 H 0.8849 0.0533 0.2016
H8 H 0.8681 -0.0857 0.2061
C1 C 0.0245(3) 0.2612(3) 0.7237(2)
C2 C -0.0612(3) 0.2683(3) 0.8030(2)
C3 C -0.0938(3) 0.3778(3) 0.8353(2)
H9 H -0.0644 0.4438 0.8053
C4 C -0.1691(3) 0.3909(3) 0.9115(2)
C5 C -0.2114(3) 0.2905(3) 0.9552(2)
H10 H -0.2593 0.2987 1.0080
C6 C -0.1838(3) 0.1786(3) 0.9217(2)
C7 C -0.1086(3) 0.1674(3) 0.8452(2)
H11 H -0.0900 0.0926 0.8223
C8 C -0.2036(3) 0.5077(3) 0.9467(2)
C9 C -0.1334(3) 0.6244(3) 0.9331(3)
H12 H -0.0624 0.6317 0.9003
C10 C -0.3091(4) 0.5050(3) 0.9953(3)
H13 H -0.3597 0.4290 1.0059
C11 C -0.1704(3) 0.7300(3) 0.9691(3)
H14 H -0.1210 0.8077 0.9606
C12 C -0.3384(4) 0.6143(3) 1.0276(3)
H15 H -0.4093 0.6093 1.0603
C13 C -0.2326(3) 0.0730(3) 0.9709(3)
C14 C 0.5197(3) -0.1131(3) 0.2205(3)
C15 C 0.4386(3) -0.1220(3) 0.3032(2)
C16 C 0.3988(3) -0.0205(3) 0.3500(2)
H16 H 0.4222 0.0539 0.3293
C17 C 0.3246(3) -0.0301(3) 0.4274(2)
C18 C 0.2922(3) -0.1405(3) 0.4589(3)
H17 H 0.2449 -0.1460 0.5122
C19 C 0.3294(3) -0.2433(3) 0.4121(3)
C20 C 0.4021(3) -0.2321(3) 0.3347(3)
H18 H 0.4271 -0.3004 0.3029
C21 C 0.2775(3) 0.0763(3) 0.4764(2)
C22 C 0.3622(5) -0.4420(4) 0.4354(3)
H19 H 0.4348 -0.4243 0.4044
C23 C 0.2920(4) -0.3619(3) 0.4456(3)
C24 C 0.1799(5) -0.4021(4) 0.4839(4)
H20 H 0.1227 -0.3569 0.4861
C25 C 0.3266(5) -0.5485(4) 0.4706(3)
H21 H 0.3766 -0.6010 0.4612
C26 C 0.1525(5) -0.5094(4) 0.5192(4)
H22 H 0.0774 -0.5328 0.5464
Mn1_2 Mn -0.32920(5) -0.09749(5) 1.07600(4)
Mn1_3 Mn -0.32920(5) 0.90251(5) 1.07600(4)
Mn2_2 Mn 0.17402(5) -0.75478(5) 0.58034(4)
N1_2 N 0.7277(3) -0.2730(3) 0.0153(2)
N2_2 N 0.2278(3) 0.4187(3) 0.5163(2)
O7_2 O 0.7823(3) -0.0316(2) -0.06256(19)
O8_2 O 0.7114(2) 0.0939(2) 0.04846(19)
O13 O 1.0222(3) 0.2205(3) 0.2715(2)
H23 H 1.0995 0.2335 0.2612
H24 H 0.9956 0.2767 0.2549
O14 O 0.7289(3) 0.7808(3) 0.7469(2)
H25 H 0.7216 0.8047 0.6917
H26 H 0.7454 0.8454 0.8011
O15 O 0.1133(3) 0.6257(3) 0.7697(2)
H27 H 0.1240 0.5608 0.7838
H28 H 0.0728 0.5931 0.7052
O16 O 0.4882(3) 0.6124(3) 0.7655(3)
H29 H 0.4774 0.6611 0.8207
H30 H 0.5595 0.6530 0.7509
O17 O 0.6496(4) 0.2334(3) 0.2881(3)
H31 H 0.7231 0.2683 0.2738
H32 H 0.5997 0.2734 0.2740
loop_
_geom_bond_atom_site_label_1
_geom_bond_atom_site_label_2
_geom_bond_site_symmetry_1
_geom_bond_site_symmetry_2
Mn1 O5 1_555 1_555
Mn2 O1 1_555 1_555
N1 C11 1_555 1_555
N2 C25 1_555 1_555
O1 C1 1_555 1_555
O2 Mn2 1_555 1_555
O3 Mn2 1_555 1_555
O4 C21 1_555 1_555
O5 C14 1_555 1_555
O6 Mn1 1_555 1_555
O7 C13 1_555 1_555
O8 C13 1_555 1_555
O9 Mn2 1_555 1_555
H1 O9 1_555 1_555
H2 O9 1_555 1_555
O10 Mn2 1_555 1_555
H3 O10 1_555 1_555
H4 O10 1_555 1_555
O11 Mn1 1_555 1_555
H5 O11 1_555 1_555
H6 O11 1_555 1_555
O12 Mn1 1_555 1_555
H7 O12 1_555 1_555
H8 O12 1_555 1_555
C1 O2 1_555 1_555
C2 C1 1_555 1_555
C3 C2 1_555 1_555
H9 C3 1_555 1_555
C4 C3 1_555 1_555
C5 C4 1_555 1_555
H10 C5 1_555 1_555
C6 C5 1_555 1_555
C7 C2 1_555 1_555
H11 C7 1_555 1_555
C8 C4 1_555 1_555
C9 C8 1_555 1_555
H12 C9 1_555 1_555
C10 C8 1_555 1_555
H13 C10 1_555 1_555
C11 C9 1_555 1_555
H14 C11 1_555 1_555
C12 N1 1_555 1_555
H15 C12 1_555 1_555
C13 C6 1_555 1_555
C14 O6 1_555 1_555
C15 C14 1_555 1_555
C16 C15 1_555 1_555
H16 C16 1_555 1_555
C17 C16 1_555 1_555
C18 C17 1_555 1_555
H17 C18 1_555 1_555
C19 C18 1_555 1_555
C20 C15 1_555 1_555
H18 C20 1_555 1_555
C21 O3 1_555 1_555
C22 H19 1_555 1_555
C23 C19 1_555 1_555
C24 C23 1_555 1_555
H20 C24 1_555 1_555
C25 C22 1_555 1_555
H21 C25 1_555 1_555
C26 N2 1_555 1_555
H22 C26 1_555 1_555
O13 H23 1_555 1_555
H24 O13 1_555 1_555
O14 H25 1_555 1_555
H26 O14 1_555 1_555
O15 H27 1_555 1_555
H28 O15 1_555 1_555
O16 H29 1_555 1_555
H30 O16 1_555 1_555
O17 H31 1_555 1_555
H32 O17 1_555 1_555
Mn1_2 O7 1_555 1_555
Mn1_3 N1 1_555 1_555
Mn2_2 N2 1_555 1_555
N1_2 Mn1 1_555 1_555
N2_2 Mn2 1_555 1_555
O7_2 Mn1 1_555 1_555
O8_2 Mn1 1_555 1_555
O8 Mn1_2 1_555 1_555
C6 C7 1_555 1_555
C10 C12 1_555 1_555
C17 C21 1_555 1_555
C19 C20 1_555 1_555
C22 C23 1_555 1_555
C24 C26 1_555 1_555

#END
