
#######################################################################
#
#                 Cambridge Crystallographic Data Centre
#                                CCDC 
#
#######################################################################
#
# If this CIF has been generated from an entry in the Cambridge 
# Structural Database, then it will include bibliographic, chemical, 
# crystal, experimental, refinement or atomic coordinate data resulting 
# from the CCDC's data processing and validation procedures.
#
#######################################################################

data_LAZMIK01
_symmetry_cell_setting           triclinic
_symmetry_space_group_name_H-M   'P -1'
_symmetry_Int_Tables_number      2
_space_group_name_Hall           '-P 1'
loop_
_symmetry_equiv_pos_site_id
_symmetry_equiv_pos_as_xyz
1 x,y,z
2 -x,-y,-z
_cell_length_a                   7.2332(14)
_cell_length_b                   10.101(2)
_cell_length_c                   10.244(2)
_cell_angle_alpha                113.69(3)
_cell_angle_beta                 99.59(3)
_cell_angle_gamma                104.37(3)
_cell_volume                     633.313
loop_
_atom_site_label
_atom_site_type_symbol
_atom_site_fract_x
_atom_site_fract_y
_atom_site_fract_z
Co1 Co 1.08854(6) 1.37837(5) 0.88301(5)
O1 O 0.8828(3) 1.3942(2) 1.0266(2)
O2 O 0.8887(3) 0.8341(2) 1.1437(2)
N1 N 0.1394(4) 0.7266(3) 0.3189(3)
O3 O 1.3155(5) 1.4007(4) 0.7786(4)
O4 O 0.8917(4) 1.3614(3) 1.2308(2)
O5 O 0.6970(3) 0.6293(2) 0.9355(2)
C1 C 0.6380(5) 1.0788(3) 0.8494(3)
H1 H 0.6132 1.1459 0.8135
C2 C 0.4150(5) 0.8565(3) 0.6036(3)
C3 C 0.5533(5) 0.9195(4) 0.7559(3)
C4 C 0.7957(4) 1.0383(3) 1.0490(3)
H2 H 0.8730 1.0775 1.1473
C5 C 0.5984(4) 0.8213(3) 0.8103(3)
H3 H 0.5482 0.7154 0.7480
C6 C 0.7171(4) 0.8793(3) 0.9559(3)
C7 C 0.7582(4) 1.1385(3) 0.9948(3)
C8 C 0.8514(5) 1.3099(3) 1.0950(3)
C9 C 0.4088(5) 0.7218(4) 0.4855(3)
H4 H 0.4977 0.6727 0.4995
C10 C 0.2827(5) 0.9264(4) 0.5727(4)
H5 H 0.2836 1.0179 0.6470
C11 C 0.1503(5) 0.8597(4) 0.4316(4)
H6 H 0.0640 0.9091 0.4131
C12 C 0.2700(5) 0.6617(4) 0.3477(4)
H7 H 0.2673 0.5711 0.2709
C13 C 0.7676(4) 0.7754(3) 1.0156(3)
H8 H 1.422(7) 1.471(5) 0.826(5)
H9 H 1.293(7) 1.406(5) 0.716(5)
Co1A Co -0.08854(6) 0.62163(5) 0.11699(5)
Co1A_2 Co 0.91146(6) 0.62163(5) 1.11699(5)
Co1A_3 Co 0.91146(6) 1.62163(5) 1.11699(5)
O1A O 1.1172(3) 1.6058(2) 0.9734(2)
O2A O 1.1113(3) 1.1659(2) 0.8563(2)
N1A N 0.8606(4) 1.2734(3) 0.6811(3)
O5A O 1.3030(3) 1.3707(2) 1.0645(2)
O6 O 0.8213(6) 0.5868(5) 0.4854(4)
H10 H 0.8889 0.6038 0.5704
H11 H 0.9181 0.5681 0.4539
loop_
_geom_bond_atom_site_label_1
_geom_bond_atom_site_label_2
_geom_bond_site_symmetry_1
_geom_bond_site_symmetry_2
Co1 O1 1_555 1_555
O1 C8 1_555 1_555
O2 C13 1_555 1_555
N1 C11 1_555 1_555
O3 Co1 1_555 1_555
O4 C8 1_555 1_555
O5 C13 1_555 1_555
C1 H1 1_555 1_555
C2 C3 1_555 1_555
C3 C1 1_555 1_555
C4 H2 1_555 1_555
C5 C3 1_555 1_555
H3 C5 1_555 1_555
C6 C4 1_555 1_555
C7 C1 1_555 1_555
C8 C7 1_555 1_555
C9 C2 1_555 1_555
H4 C9 1_555 1_555
C10 C2 1_555 1_555
H5 C10 1_555 1_555
C11 C10 1_555 1_555
H6 C11 1_555 1_555
C12 N1 1_555 1_555
H7 C12 1_555 1_555
C13 C6 1_555 1_555
H8 O3 1_555 1_555
H9 O3 1_555 1_555
O6 H10 1_555 1_555
H11 O6 1_555 1_555
Co1A N1 1_555 1_555
Co1A_2 O2 1_555 1_555
Co1A_3 O1 1_555 1_555
O1A Co1 1_555 1_555
O2A Co1 1_555 1_555
N1A Co1 1_555 1_555
O5A Co1 1_555 1_555
O5 Co1A_2 1_555 1_555
C4 C7 1_555 1_555
C5 C6 1_555 1_555
C9 C12 1_555 1_555
Co1A_3 O1A 1_555 1_555

#END
