
#######################################################################
#
#                 Cambridge Crystallographic Data Centre
#                                CCDC 
#
#######################################################################
#
# If this CIF has been generated from an entry in the Cambridge 
# Structural Database, then it will include bibliographic, chemical, 
# crystal, experimental, refinement or atomic coordinate data resulting 
# from the CCDC's data processing and validation procedures.
#
#######################################################################

data_LAZNIL
_symmetry_cell_setting           monoclinic
_symmetry_space_group_name_H-M   'C 2/c'
_symmetry_Int_Tables_number      15
_space_group_name_Hall           '-C 2yn'
loop_
_symmetry_equiv_pos_site_id
_symmetry_equiv_pos_as_xyz
1 x,y,z
2 -x,y,1/2-z
3 1/2+x,1/2+y,z
4 1/2-x,1/2+y,1/2-z
5 -x,-y,-z
6 x,-y,1/2+z
7 1/2-x,1/2-y,-z
8 1/2+x,1/2-y,1/2+z
_cell_length_a                   15.2485(5)
_cell_length_b                   31.4732(10)
_cell_length_c                   16.8546(5)
_cell_angle_alpha                90
_cell_angle_beta                 107.647(4)
_cell_angle_gamma                90
_cell_volume                     7708.2
loop_
_atom_site_label
_atom_site_type_symbol
_atom_site_fract_x
_atom_site_fract_y
_atom_site_fract_z
La1 La -0.358453(16) 0.237740(8) 0.134971(15)
La2 La -0.146796(16) 0.265867(8) 0.357902(15)
I1 I -0.16951(3) 0.004993(12) 0.64739(3)
Cu1 Cu -0.32439(7) 0.01429(2) 0.52380(5)
Cu2 Cu -0.35058(7) 0.50305(2) 0.01773(6)
O1 O -0.1842(2) 0.22453(10) 0.2263(2)
O2 O -0.2337(2) 0.18079(11) 0.1207(2)
O3 O -0.0031(2) 0.26061(10) 0.3148(2)
O4 O -0.3177(2) 0.27998(10) 0.2655(2)
O5 O -0.2667(2) 0.32328(12) 0.3710(2)
O6 O -0.4982(2) 0.24512(10) 0.1841(2)
O7 O -0.3428(2) 0.17982(11) 0.2463(2)
O8 O -0.2588(2) 0.20775(11) 0.3684(2)
O9 O -0.2470(2) 0.29538(10) 0.1197(2)
O10 O -0.1638(2) 0.32317(11) 0.2420(2)
O11 O -0.5429(2) 0.28964(11) -0.0642(2)
O12 O -0.4489(3) 0.30082(11) 0.0638(2)
O13 O -0.4751(2) 0.18809(10) 0.0590(2)
O14 O -0.5545(2) 0.17373(11) -0.0726(2)
O15 O -0.3558(3) 0.23671(12) -0.0185(2)
H1 H -0.4086 0.2320 -0.0528
H2 H -0.3168 0.2191 -0.0262
O16 O -0.1517(2) 0.26116(11) 0.5133(2)
H3 H -0.1897 0.2786 0.5231
H4 H -0.0989 0.2646 0.5485
N1 N -0.3328(3) 0.06571(14) 0.4577(3)
N2 N -0.2972(3) 0.44959(13) 0.0652(3)
N3 N -0.5858(3) 0.44398(13) -0.0208(3)
N4 N -0.3955(4) 0.03730(14) 0.0246(3)
C1 C -0.1721(3) 0.19304(14) 0.1835(3)
C2 C 0.0000 0.2423(2) 0.2500
C3 C 0.0000 0.1937(2) 0.2500
C4 C -0.0814(3) 0.17082(15) 0.2135(3)
C5 C -0.0797(3) 0.12670(15) 0.2119(3)
H5 H -0.1332 0.1119 0.1847
C6 C 0.0000 0.1045(2) 0.2500
H6 H 0.0000 0.0749 0.2500
C7 C -0.3287(3) 0.31143(14) 0.3088(3)
C8 C -0.5000 0.2630(2) 0.2500
C9 C -0.5000 0.3114(2) 0.2500
C10 C -0.4179(3) 0.33441(15) 0.2802(3)
C11 C -0.4185(3) 0.37843(15) 0.2818(3)
H7 H -0.3637 0.3932 0.3044
C12 C -0.5000 0.4006(2) 0.2500
H8 H -0.5000 0.4302 0.2500
C13 C -0.3080(3) 0.17927(15) 0.3234(3)
C14 C -0.3228(3) 0.14015(15) 0.3702(3)
C15 C -0.2849(4) 0.13777(16) 0.4553(3)
H9 H -0.2544 0.1612 0.4846
C16 C -0.2917(4) 0.10118(16) 0.4970(3)
H10 H -0.2672 0.1007 0.5547
C17 C -0.3721(4) 0.06850(19) 0.3747(4)
H11 H -0.4024 0.0448 0.3463
C18 C -0.3693(4) 0.10482(18) 0.3302(3)
H12 H -0.3989 0.1056 0.2732
C19 C -0.2127(3) 0.32572(14) 0.1681(3)
C20 C -0.2379(3) 0.36990(15) 0.1315(3)
C21 C -0.2352(4) 0.40448(16) 0.1821(3)
H13 H -0.2120 0.4017 0.2396
C22 C -0.2669(4) 0.44333(17) 0.1473(4)
H14 H -0.2672 0.4661 0.1825
C23 C -0.2969(4) 0.41623(17) 0.0162(3)
H15 H -0.3166 0.4202 -0.0412
C24 C -0.2685(4) 0.37606(16) 0.0466(3)
H16 H -0.2700 0.3536 0.0104
C25 C -0.5042(3) 0.31288(16) -0.0031(3)
C26 C -0.5287(3) 0.35956(15) -0.0115(3)
C27 C -0.5851(4) 0.37644(17) -0.0851(3)
H17 H -0.6050 0.3596 -0.1325
C28 C -0.6114(4) 0.41812(18) -0.0875(4)
H18 H -0.6486 0.4291 -0.1376
C29 C -0.5276(4) 0.42782(17) 0.0492(4)
H19 H -0.5063 0.4454 0.0953
C30 C -0.4981(4) 0.38629(15) 0.0555(3)
H20 H -0.4575 0.3764 0.1051
C31 C -0.5020(3) 0.16395(15) -0.0027(3)
C32 C -0.4667(3) 0.11865(15) 0.0084(3)
C33 C -0.4094(4) 0.10486(16) 0.0833(3)
H21 H -0.3937 0.1228 0.1293
C34 C -0.3754(4) 0.06428(17) 0.0896(3)
H22 H -0.3371 0.0550 0.1407
C35 C -0.4542(5) 0.05031(19) -0.0465(4)
H23 H -0.4719 0.0313 -0.0907
C36 C -0.4905(4) 0.09086(17) -0.0579(4)
H24 H -0.5301 0.0992 -0.1091
La1A La 0.358453(16) 0.237740(8) 0.365029(15)
La1A_2 La -0.641547(16) 0.237740(8) 0.365029(15)
La1G La 0.141547(16) 0.262260(8) 0.634971(15)
La2A La 0.146796(16) 0.265867(8) 0.142098(15)
La2G La -0.646796(16) 0.234133(8) -0.142098(15)
La2A_2 La -0.853204(16) 0.265867(8) 0.142098(15)
I1C I -0.33049(3) 0.504993(12) -0.14739(3)
I1E I -0.16951(3) -0.004993(12) 0.14739(3)
I1G I -0.66951(3) 0.495007(12) 0.14739(3)
Cu1E Cu -0.32439(7) -0.01429(2) 0.02380(5)
Cu1B Cu 0.17561(7) 0.51429(2) 0.52380(5)
Cu1C Cu -0.17561(7) 0.51429(2) -0.02380(5)
Cu1A Cu 0.32439(7) 0.01429(2) -0.02380(5)
Cu2D Cu -0.64942(7) 0.49695(2) -0.01773(6)
Cu2C Cu -0.14942(7) 0.00305(2) 0.48227(6)
Cu2A Cu 0.35058(7) 0.50305(2) 0.48227(6)
O1A O 0.1842(2) 0.22453(10) 0.2737(2)
O2A O 0.2337(2) 0.18079(11) 0.3793(2)
O3A O 0.0031(2) 0.26061(10) 0.1852(2)
O4A O -0.6823(2) 0.27998(10) 0.2345(2)
O4A_2 O 0.3177(2) 0.27998(10) 0.2345(2)
O5A O -0.7333(2) 0.32328(12) 0.1290(2)
O5A_2 O 0.2667(2) 0.32328(12) 0.1290(2)
O6A O -0.5018(2) 0.24512(10) 0.3159(2)
O6A_2 O 0.4982(2) 0.24512(10) 0.3159(2)
O7A O 0.3428(2) 0.17982(11) 0.2537(2)
O8A O 0.2588(2) 0.20775(11) 0.1316(2)
O9A O 0.2470(2) 0.29538(10) 0.3803(2)
O10A O 0.1638(2) 0.32317(11) 0.2580(2)
O11G O -0.0429(2) 0.21036(11) 0.4358(2)
O11F O 0.0429(2) 0.21036(11) 0.0642(2)
O12G O 0.0511(3) 0.19918(11) 0.5638(2)
O12A O 0.4489(3) 0.30082(11) 0.4362(2)
O13G O 0.0249(2) 0.31191(10) 0.5590(2)
O13A O 0.4751(2) 0.18809(10) 0.4410(2)
O14G O -0.0545(2) 0.32627(11) 0.4274(2)
O14F O 0.0545(2) 0.32627(11) 0.0726(2)
O15A O 0.3558(3) 0.23671(12) 0.5185(2)
H1A H 0.4086 0.2320 0.5528
H2A H 0.3168 0.2191 0.5262
O16A O 0.1517(2) 0.26116(11) -0.0133(2)
H3A H 0.1897 0.2786 -0.0231
H4A H 0.0989 0.2646 -0.0485
N1A N 0.3328(3) 0.06571(14) 0.0423(3)
N1E N -0.3328(3) -0.06571(14) -0.0423(3)
N2A N 0.2972(3) 0.44959(13) 0.4348(3)
N2D N -0.7028(3) 0.55041(13) -0.0652(3)
N3G N -0.0858(3) 0.05602(13) 0.4792(3)
N3D N -0.4142(3) 0.55602(13) 0.0208(3)
N4G N 0.1045(4) 0.46270(14) 0.5246(3)
N4E N -0.3955(4) -0.03730(14) 0.5246(3)
C1A C 0.1721(3) 0.19304(14) 0.3165(3)
C4A C 0.0814(3) 0.17082(15) 0.2865(3)
C5A C 0.0797(3) 0.12670(15) 0.2881(3)
H5A H 0.1332 0.1119 0.3153
C7A C -0.6713(3) 0.31143(14) 0.1912(3)
C10A C -0.5821(3) 0.33441(15) 0.2198(3)
C11A C -0.5815(3) 0.37843(15) 0.2182(3)
H7A H -0.6363 0.3932 0.1956
C13A C 0.3080(3) 0.17927(15) 0.1766(3)
C14A C 0.3228(3) 0.14015(15) 0.1298(3)
C15A C 0.2849(4) 0.13777(16) 0.0447(3)
H9A H 0.2544 0.1612 0.0154
C16A C 0.2917(4) 0.10118(16) 0.0030(3)
H10A H 0.2672 0.1007 -0.0547
C17A C 0.3721(4) 0.06850(19) 0.1253(4)
H11A H 0.4024 0.0448 0.1537
C18A C 0.3693(4) 0.10482(18) 0.1698(3)
H12A H 0.3989 0.1056 0.2268
C19A C 0.2127(3) 0.32572(14) 0.3319(3)
C20A C 0.2379(3) 0.36990(15) 0.3685(3)
C21A C 0.2352(4) 0.40448(16) 0.3179(3)
H13A H 0.2120 0.4017 0.2604
C22A C 0.2669(4) 0.44333(17) 0.3527(4)
H14A H 0.2672 0.4661 0.3175
C23A C 0.2969(4) 0.41623(17) 0.4838(3)
H15A H 0.3166 0.4202 0.5412
C24A C 0.2685(4) 0.37606(16) 0.4534(3)
H16A H 0.2700 0.3536 0.4896
C25G C -0.0042(3) 0.18712(16) 0.4969(3)
C26G C -0.0287(3) 0.14044(15) 0.4885(3)
C27G C -0.0851(4) 0.12356(17) 0.4149(3)
H17G H -0.1050 0.1404 0.3675
C28G C -0.1114(4) 0.08188(18) 0.4125(4)
H18G H -0.1486 0.0709 0.3624
C29G C -0.0276(4) 0.07218(17) 0.5492(4)
H19G H -0.0063 0.0546 0.5953
C30G C 0.0019(4) 0.11371(15) 0.5555(3)
H20G H 0.0425 0.1236 0.6051
C31G C -0.0020(3) 0.33605(15) 0.4973(3)
C32G C 0.0333(3) 0.38135(15) 0.5084(3)
C33G C 0.0906(4) 0.39514(16) 0.5833(3)
H21G H 0.1063 0.3772 0.6293
C34G C 0.1246(4) 0.43572(17) 0.5896(3)
H22G H 0.1629 0.4450 0.6407
C35G C 0.0458(5) 0.44969(19) 0.4535(4)
H23G H 0.0281 0.4687 0.4093
C36G C 0.0095(4) 0.40914(17) 0.4421(4)
H24G H -0.0301 0.4008 0.3909
O17 O 0.0000 0.3722(2) 0.2500
O18? O -0.0270(8) 0.4606(4) 0.2475(11)
loop_
_geom_bond_atom_site_label_1
_geom_bond_atom_site_label_2
_geom_bond_site_symmetry_1
_geom_bond_site_symmetry_2
La1 O1 1_555 1_555
La2 O1 1_555 1_555
I1 Cu1 1_555 1_555
Cu1 N1 1_555 1_555
Cu2 N2 1_555 1_555
O1 C1 1_555 1_555
O2 La1 1_555 1_555
O3 La2 1_555 1_555
O4 La1 1_555 1_555
O5 La2 1_555 1_555
O6 La1 1_555 1_555
O7 La1 1_555 1_555
O8 La2 1_555 1_555
O9 La1 1_555 1_555
O10 La2 1_555 1_555
O11 C25 1_555 1_555
O12 La1 1_555 1_555
O13 La1 1_555 1_555
O14 C31 1_555 1_555
O15 La1 1_555 1_555
H1 O15 1_555 1_555
H2 O15 1_555 1_555
O16 La2 1_555 1_555
H3 O16 1_555 1_555
H4 O16 1_555 1_555
N1 C16 1_555 1_555
N2 C22 1_555 1_555
N3 C28 1_555 1_555
N4 C34 1_555 1_555
C1 O2 1_555 1_555
C2 O3 1_555 1_555
C3 C2 1_555 1_555
C4 C1 1_555 1_555
C5 C4 1_555 1_555
H5 C5 1_555 1_555
C6 C5 1_555 1_555
H6 C6 1_555 1_555
C7 O4 1_555 1_555
C8 O6 1_555 1_555
C9 C8 1_555 1_555
C10 C7 1_555 1_555
C11 C10 1_555 1_555
H7 C11 1_555 1_555
C12 C11 1_555 1_555
H8 C12 1_555 1_555
C13 O7 1_555 1_555
C14 C13 1_555 1_555
C15 C14 1_555 1_555
H9 C15 1_555 1_555
C16 C15 1_555 1_555
H10 C16 1_555 1_555
C17 N1 1_555 1_555
H11 C17 1_555 1_555
C18 C14 1_555 1_555
H12 C18 1_555 1_555
C19 O9 1_555 1_555
C20 C19 1_555 1_555
C21 C20 1_555 1_555
H13 C21 1_555 1_555
C22 C21 1_555 1_555
H14 C22 1_555 1_555
C23 N2 1_555 1_555
H15 C23 1_555 1_555
C24 C20 1_555 1_555
H16 C24 1_555 1_555
C25 O12 1_555 1_555
C26 C25 1_555 1_555
C27 C26 1_555 1_555
H17 C27 1_555 1_555
C28 C27 1_555 1_555
H18 C28 1_555 1_555
C29 N3 1_555 1_555
H19 C29 1_555 1_555
C30 C26 1_555 1_555
H20 C30 1_555 1_555
C31 O13 1_555 1_555
C32 C31 1_555 1_555
C33 C32 1_555 1_555
H21 C33 1_555 1_555
C34 C33 1_555 1_555
H22 C34 1_555 1_555
C35 N4 1_555 1_555
H23 C35 1_555 1_555
C36 C32 1_555 1_555
H24 C36 1_555 1_555
La1A O1A 1_555 1_555
La1A_2 O4A 1_555 1_555
La1G O12G 1_555 1_555
La2A O1A 1_555 1_555
La2G O11 1_555 1_555
La2A_2 O4A 1_555 1_555
I1C Cu2 1_555 1_555
I1E Cu1E 1_555 1_555
I1G Cu2D 1_555 1_555
Cu1E N4 1_555 1_555
Cu1B N4G 1_555 1_555
Cu1C I1C 1_555 1_555
Cu1A N1A 1_555 1_555
Cu2D N3 1_555 1_555
Cu2C I1 1_555 1_555
Cu2A N2A 1_555 1_555
O1A C1A 1_555 1_555
O2A La1A 1_555 1_555
O3A C2 1_555 1_555
O4A C7A 1_555 1_555
O4A_2 La1A 1_555 1_555
O5A La2A_2 1_555 1_555
O5A_2 La2A 1_555 1_555
O6A C8 1_555 1_555
O6A_2 La1A 1_555 1_555
O7A La1A 1_555 1_555
O8A La2A 1_555 1_555
O9A La1A 1_555 1_555
O10A La2A 1_555 1_555
O11G La2 1_555 1_555
O11F La2A 1_555 1_555
O12G C25G 1_555 1_555
O12A La1A 1_555 1_555
O13G La1G 1_555 1_555
O13A La1A 1_555 1_555
O14G La2 1_555 1_555
O14F La2A 1_555 1_555
O15A La1A 1_555 1_555
H1A O15A 1_555 1_555
H2A O15A 1_555 1_555
O16A La2A 1_555 1_555
H3A O16A 1_555 1_555
H4A O16A 1_555 1_555
N1A C16A 1_555 1_555
N1E Cu1E 1_555 1_555
N2A C22A 1_555 1_555
N2D Cu2D 1_555 1_555
N3G Cu2C 1_555 1_555
N3D Cu2 1_555 1_555
N4G C34G 1_555 1_555
N4E Cu1 1_555 1_555
C1A O2A 1_555 1_555
C4A C3 1_555 1_555
C5A C6 1_555 1_555
H5A C5A 1_555 1_555
C7A O5A 1_555 1_555
C10A C9 1_555 1_555
C11A C12 1_555 1_555
H7A C11A 1_555 1_555
C13A O7A 1_555 1_555
C14A C13A 1_555 1_555
C15A C14A 1_555 1_555
H9A C15A 1_555 1_555
C16A C15A 1_555 1_555
H10A C16A 1_555 1_555
C17A N1A 1_555 1_555
H11A C17A 1_555 1_555
C18A C14A 1_555 1_555
H12A C18A 1_555 1_555
C19A O9A 1_555 1_555
C20A C19A 1_555 1_555
C21A C20A 1_555 1_555
H13A C21A 1_555 1_555
C22A C21A 1_555 1_555
H14A C22A 1_555 1_555
C23A N2A 1_555 1_555
H15A C23A 1_555 1_555
C24A C20A 1_555 1_555
H16A C24A 1_555 1_555
C25G O11G 1_555 1_555
C26G C25G 1_555 1_555
C27G C26G 1_555 1_555
H17G C27G 1_555 1_555
C28G N3G 1_555 1_555
H18G C28G 1_555 1_555
C29G N3G 1_555 1_555
H19G C29G 1_555 1_555
C30G C26G 1_555 1_555
H20G C30G 1_555 1_555
C31G O13G 1_555 1_555
C32G C31G 1_555 1_555
C33G C32G 1_555 1_555
H21G C33G 1_555 1_555
C34G C33G 1_555 1_555
H22G C34G 1_555 1_555
C35G N4G 1_555 1_555
H23G C35G 1_555 1_555
C36G C32G 1_555 1_555
H24G C36G 1_555 1_555
La2 O4 1_555 1_555
O5 C7 1_555 1_555
O8 C13 1_555 1_555
O10 C19 1_555 1_555
O14 La2G 1_555 1_555
C3 C4 1_555 1_555
C9 C10 1_555 1_555
C17 C18 1_555 1_555
C23 C24 1_555 1_555
C29 C30 1_555 1_555
C35 C36 1_555 1_555
La1A_2 O6A 1_555 1_555
La2A O3A 1_555 1_555
La2A O4A_2 1_555 1_555
O8A C13A 1_555 1_555
O10A C19A 1_555 1_555
O14G C31G 1_555 1_555
C1A C4A 1_555 1_555
C4A C5A 1_555 1_555
C7A C10A 1_555 1_555
C10A C11A 1_555 1_555
C17A C18A 1_555 1_555
C23A C24A 1_555 1_555
C27G C28G 1_555 1_555
C29G C30G 1_555 1_555
C35G C36G 1_555 1_555

#END
