
#######################################################################
#
#                 Cambridge Crystallographic Data Centre
#                                CCDC 
#
#######################################################################
#
# If this CIF has been generated from an entry in the Cambridge 
# Structural Database, then it will include bibliographic, chemical, 
# crystal, experimental, refinement or atomic coordinate data resulting 
# from the CCDC's data processing and validation procedures.
#
#######################################################################

data_LAZNAD
_symmetry_cell_setting           monoclinic
_symmetry_space_group_name_H-M   'C 2/c'
_symmetry_Int_Tables_number      15
_space_group_name_Hall           '-C 2yn'
loop_
_symmetry_equiv_pos_site_id
_symmetry_equiv_pos_as_xyz
1 x,y,z
2 -x,y,1/2-z
3 1/2+x,1/2+y,z
4 1/2-x,1/2+y,1/2-z
5 -x,-y,-z
6 x,-y,1/2+z
7 1/2-x,1/2-y,-z
8 1/2+x,1/2-y,1/2+z
_cell_length_a                   15.2594(5)
_cell_length_b                   31.5686(7)
_cell_length_c                   16.8770(5)
_cell_angle_alpha                90
_cell_angle_beta                 107.906(3)
_cell_angle_gamma                90
_cell_volume                     7736.16
loop_
_atom_site_label
_atom_site_type_symbol
_atom_site_fract_x
_atom_site_fract_y
_atom_site_fract_z
La1 La 0.35350(2) 0.232812(9) 0.357816(17)
La2 La 0.141115(19) 0.261387(9) 0.134896(16)
Cu1 Cu 0.14879(9) -0.00404(3) 0.02623(8)
Cu2 Cu 0.17121(11) 0.48453(3) 0.51553(7)
Cl1 Cl 0.1783(2) -0.00792(8) -0.11952(17)
O1 O 0.1826(2) 0.21858(12) 0.2647(2)
O2 O 0.2344(3) 0.17502(14) 0.3697(2)
O3 O 0.0014(3) 0.25307(12) 0.1842(2)
O4 O 0.3155(3) 0.27387(12) 0.2257(2)
O5 O 0.2658(3) 0.31746(13) 0.1201(2)
O6 O 0.4970(3) 0.23813(12) 0.3149(2)
O7 O 0.3369(3) 0.17651(12) 0.2409(2)
O8 O 0.2524(3) 0.20368(12) 0.1183(2)
O9 O 0.2417(3) 0.29071(13) 0.3683(2)
O10 O 0.1582(3) 0.31839(13) 0.2463(2)
O11 O 0.4478(3) 0.17349(13) 0.4299(2)
O12 O 0.5279(3) 0.18688(12) 0.5615(2)
O13 O 0.5493(3) 0.30064(13) 0.5631(2)
O14 O 0.4578(3) 0.28871(13) 0.4349(3)
O15 O 0.3490(3) 0.23800(14) 0.5129(2)
H1 H 0.4019 0.2348 0.5484
H2 H 0.3111 0.2206 0.5228
O16 O 0.1431(3) 0.26349(14) -0.0184(2)
H3 H 0.1822 0.2811 -0.0256
H4 H 0.0902 0.2684 -0.0527
N1 N 0.2002(5) 0.04956(17) 0.0695(4)
N2 N 0.1632(5) 0.43244(17) 0.4538(3)
N3 N 0.6075(5) 0.03734(18) 0.5205(4)
N4 N 0.4103(4) 0.44195(17) 0.4740(3)
C1 C 0.1718(4) 0.18670(17) 0.3076(3)
C2 C 0.0000 0.2349(2) 0.2500
C3 C 0.0000 0.1867(2) 0.2500
C4 C 0.0824(4) 0.16388(17) 0.2794(3)
C5 C 0.0813(4) 0.12010(18) 0.2818(3)
H5 H 0.1360 0.1054 0.3051
C6 C 0.0000 0.0979(3) 0.2500
H6 H 0.0000 0.0685 0.2500
C7 C 0.3284(4) 0.30554(17) 0.1828(3)
C8 C 0.5000 0.2565(2) 0.2500
C9 C 0.5000 0.3047(2) 0.2500
C10 C 0.4181(4) 0.32757(17) 0.2131(3)
C11 C 0.4203(4) 0.37149(18) 0.2112(4)
H7 H 0.3671 0.3864 0.1832
C12 C 0.5000 0.3934(3) 0.2500
H8 H 0.5000 0.4229 0.2500
C13 C 0.2865(4) 0.17374(17) 0.1668(3)
C14 C 0.2613(4) 0.12961(17) 0.1321(4)
C15 C 0.2647(5) 0.0959(2) 0.1854(4)
H9 H 0.2879 0.0995 0.2428
C16 C 0.2330(6) 0.0570(2) 0.1517(5)
H10 H 0.2343 0.0346 0.1879
C17 C 0.1988(6) 0.0822(2) 0.0192(4)
H11 H 0.1773 0.0777 -0.0380
C18 C 0.2274(5) 0.1224(2) 0.0477(4)
H12 H 0.2239 0.1445 0.0103
C19 C 0.1922(4) 0.31893(18) 0.3239(3)
C20 C 0.1764(4) 0.35816(18) 0.3691(3)
C21 C 0.1276(5) 0.3926(2) 0.3277(4)
H13 H 0.0981 0.3913 0.2707
C22 C 0.1231(6) 0.4287(2) 0.3714(4)
H14 H 0.0906 0.4518 0.3425
C23 C 0.2070(5) 0.39849(19) 0.4936(4)
H15 H 0.2330 0.4000 0.5511
C24 C 0.2156(4) 0.36132(18) 0.4542(3)
H16 H 0.2475 0.3385 0.4846
C25 C 0.5016(3) 0.16342(18) 0.4993(3)
C26 C 0.5369(4) 0.11853(17) 0.5087(3)
C27 C 0.5998(5) 0.10462(19) 0.5808(3)
H17 H 0.6198 0.1224 0.6268
C28 C 0.6331(6) 0.0639(2) 0.5842(4)
H18 H 0.6754 0.0546 0.6335
C29 C 0.5435(7) 0.0502(2) 0.4522(5)
H19 H 0.5221 0.0311 0.4086
C30 C 0.5071(6) 0.0907(2) 0.4427(4)
H20 H 0.4637 0.0990 0.3932
C31 C 0.4946(4) 0.31194(18) 0.4959(3)
C32 C 0.4686(4) 0.35811(17) 0.4867(3)
C33 C 0.4965(5) 0.3850(2) 0.5535(4)
H21 H 0.5364 0.3756 0.6039
C34 C 0.4650(5) 0.4261(2) 0.5451(4)
H22 H 0.4828 0.4436 0.5916
C35 C 0.3874(5) 0.4164(2) 0.4079(4)
H23 H 0.3522 0.4273 0.3568
C36 C 0.4138(5) 0.3747(2) 0.4121(4)
H24 H 0.3949 0.3577 0.3649
La1A La -0.35350(2) 0.232812(9) 0.142184(17)
La1A_2 La 0.64650(2) 0.232812(9) 0.142184(17)
La1G La -0.14650(2) 0.267188(9) -0.142184(17)
La2A La -0.141115(19) 0.261387(9) 0.365104(16)
La2G La 0.641115(19) 0.238613(9) 0.634896(16)
La2A_2 La 0.858885(19) 0.261387(9) 0.365104(16)
Cu1C Cu 0.35121(9) 0.49596(3) 0.47377(8)
Cu1D Cu -0.14879(9) 0.00404(3) -0.02623(8)
Cu1A Cu -0.14879(9) -0.00404(3) 0.47377(8)
Cu2B Cu 0.67121(11) -0.01547(3) 0.51553(7)
Cu2C Cu 0.32879(11) -0.01547(3) -0.01553(7)
Cu2E Cu 0.17121(11) 0.51547(3) 0.01553(7)
Cu2A Cu -0.17121(11) 0.48453(3) -0.01553(7)
Cl1C Cl 0.3217(2) 0.49208(8) 0.61952(17)
Cl1A Cl 0.8217(2) -0.00792(8) 0.61952(17)
O1A O -0.1826(2) 0.21858(12) 0.2353(2)
O2A O -0.2344(3) 0.17502(14) 0.1303(2)
O3A O -0.0014(3) 0.25307(12) 0.3158(2)
O4A O 0.6845(3) 0.27387(12) 0.2743(2)
O4A_2 O -0.3155(3) 0.27387(12) 0.2743(2)
O5A O 0.7342(3) 0.31746(13) 0.3799(2)
O5A_2 O -0.2658(3) 0.31746(13) 0.3799(2)
O6A O 0.5030(3) 0.23813(12) 0.1851(2)
O6A_2 O -0.4970(3) 0.23813(12) 0.1851(2)
O7A O -0.3369(3) 0.17651(12) 0.2591(2)
O8A O -0.2524(3) 0.20368(12) 0.3817(2)
O9A O -0.2417(3) 0.29071(13) 0.1317(2)
O10A O -0.1582(3) 0.31839(13) 0.2537(2)
O11G O -0.0522(3) 0.32651(13) -0.0701(2)
O11A O -0.4478(3) 0.17349(13) 0.0701(2)
O12G O 0.0279(3) 0.31312(12) 0.0615(2)
O12F O -0.0279(3) 0.31312(12) 0.4385(2)
O13G O 0.0493(3) 0.19936(13) 0.0631(2)
O13F O -0.0493(3) 0.19936(13) 0.4369(2)
O14G O -0.0422(3) 0.21129(13) -0.0651(3)
O14A O -0.4578(3) 0.28871(13) 0.0651(3)
O15A O -0.3490(3) 0.23800(14) -0.0129(2)
H1A H -0.4019 0.2348 -0.0484
H2A H -0.3111 0.2206 -0.0228
O16A O -0.1431(3) 0.26349(14) 0.5184(2)
H3A H -0.1822 0.2811 0.5256
H4A H -0.0902 0.2684 0.5527
N1A N -0.2002(5) 0.04956(17) 0.4305(4)
N1C N 0.2998(5) 0.54956(17) 0.4305(4)
N2A N -0.1632(5) 0.43244(17) 0.0462(3)
N2B N 0.6632(5) -0.06756(17) 0.4538(3)
N3G N 0.1075(5) 0.46266(18) 0.0205(4)
N3B N 0.1075(5) 0.53734(18) 0.5205(4)
N4G N -0.0897(4) 0.05805(17) -0.0260(3)
N4C N 0.0897(4) -0.05805(17) 0.0260(3)
C1A C -0.1718(4) 0.18670(17) 0.1924(3)
C4A C -0.0824(4) 0.16388(17) 0.2206(3)
C5A C -0.0813(4) 0.12010(18) 0.2182(3)
H5A H -0.1360 0.1054 0.1949
C7A C 0.6716(4) 0.30554(17) 0.3172(3)
C10A C 0.5819(4) 0.32757(17) 0.2869(3)
C11A C 0.5797(4) 0.37149(18) 0.2888(4)
H7A H 0.6329 0.3864 0.3168
C13A C -0.2865(4) 0.17374(17) 0.3332(3)
C14A C -0.2613(4) 0.12961(17) 0.3679(4)
C15A C -0.2647(5) 0.0959(2) 0.3146(4)
H9A H -0.2879 0.0995 0.2572
C16A C -0.2330(6) 0.0570(2) 0.3483(5)
H10A H -0.2343 0.0346 0.3121
C17A C -0.1988(6) 0.0822(2) 0.4808(4)
H11A H -0.1773 0.0777 0.5380
C18A C -0.2274(5) 0.1224(2) 0.4523(4)
H12A H -0.2239 0.1445 0.4897
C19A C -0.1922(4) 0.31893(18) 0.1761(3)
C20A C -0.1764(4) 0.35816(18) 0.1309(3)
C21A C -0.1276(5) 0.3926(2) 0.1723(4)
H13A H -0.0981 0.3913 0.2293
C22A C -0.1231(6) 0.4287(2) 0.1286(4)
H14A H -0.0906 0.4518 0.1575
C23A C -0.2070(5) 0.39849(19) 0.0064(4)
H15A H -0.2330 0.4000 -0.0511
C24A C -0.2156(4) 0.36132(18) 0.0458(3)
H16A H -0.2475 0.3385 0.0154
C25G C 0.0016(3) 0.33658(18) -0.0007(3)
C26G C 0.0369(4) 0.38147(17) 0.0087(3)
C27G C 0.0998(5) 0.39538(19) 0.0808(3)
H17G H 0.1198 0.3776 0.1268
C28G C 0.1331(6) 0.4361(2) 0.0842(4)
H18G H 0.1754 0.4454 0.1335
C29G C 0.0435(7) 0.4498(2) -0.0478(5)
H19G H 0.0221 0.4689 -0.0914
C30G C 0.0071(6) 0.4093(2) -0.0573(4)
H20G H -0.0363 0.4010 -0.1068
C31G C -0.0054(4) 0.18806(18) -0.0041(3)
C32G C -0.0314(4) 0.14189(17) -0.0133(3)
C33G C -0.0035(5) 0.1150(2) 0.0535(4)
H21G H 0.0364 0.1244 0.1039
C34G C -0.0350(5) 0.0739(2) 0.0451(4)
H22G H -0.0172 0.0564 0.0916
C35G C -0.1126(5) 0.0836(2) -0.0921(4)
H23G H -0.1478 0.0727 -0.1432
C36G C -0.0862(5) 0.1253(2) -0.0879(4)
H24G H -0.1051 0.1423 -0.1351
O17 O 0.5000 0.1272(3) 0.2500
O18 O 0.5000 0.0377(5) 0.2500
loop_
_geom_bond_atom_site_label_1
_geom_bond_atom_site_label_2
_geom_bond_site_symmetry_1
_geom_bond_site_symmetry_2
La1 O1 1_555 1_555
La2 O1 1_555 1_555
Cu1 Cl1 1_555 1_555
Cu2 N2 1_555 1_555
Cl1 Cu2C 1_555 1_555
O1 C1 1_555 1_555
O2 La1 1_555 1_555
O3 La2 1_555 1_555
O4 La1 1_555 1_555
O5 La2 1_555 1_555
O6 La1 1_555 1_555
O7 La1 1_555 1_555
O8 La2 1_555 1_555
O9 La1 1_555 1_555
O10 La2 1_555 1_555
O11 La1 1_555 1_555
O12 C25 1_555 1_555
O13 C31 1_555 1_555
O14 La1 1_555 1_555
O15 La1 1_555 1_555
H1 O15 1_555 1_555
H2 O15 1_555 1_555
O16 La2 1_555 1_555
H3 O16 1_555 1_555
H4 O16 1_555 1_555
N1 Cu1 1_555 1_555
N2 C22 1_555 1_555
N3 C28 1_555 1_555
N4 C34 1_555 1_555
C1 O2 1_555 1_555
C2 O3 1_555 1_555
C3 C2 1_555 1_555
C4 C1 1_555 1_555
C5 C4 1_555 1_555
H5 C5 1_555 1_555
C6 C5 1_555 1_555
H6 C6 1_555 1_555
C7 O4 1_555 1_555
C8 O6 1_555 1_555
C9 C8 1_555 1_555
C10 C7 1_555 1_555
C11 C10 1_555 1_555
H7 C11 1_555 1_555
C12 C11 1_555 1_555
H8 C12 1_555 1_555
C13 O7 1_555 1_555
C14 C13 1_555 1_555
C15 C14 1_555 1_555
H9 C15 1_555 1_555
C16 N1 1_555 1_555
H10 C16 1_555 1_555
C17 N1 1_555 1_555
H11 C17 1_555 1_555
C18 C14 1_555 1_555
H12 C18 1_555 1_555
C19 O9 1_555 1_555
C20 C19 1_555 1_555
C21 C20 1_555 1_555
H13 C21 1_555 1_555
C22 C21 1_555 1_555
H14 C22 1_555 1_555
C23 N2 1_555 1_555
H15 C23 1_555 1_555
C24 C20 1_555 1_555
H16 C24 1_555 1_555
C25 O11 1_555 1_555
C26 C25 1_555 1_555
C27 C26 1_555 1_555
H17 C27 1_555 1_555
C28 C27 1_555 1_555
H18 C28 1_555 1_555
C29 N3 1_555 1_555
H19 C29 1_555 1_555
C30 C26 1_555 1_555
H20 C30 1_555 1_555
C31 O14 1_555 1_555
C32 C31 1_555 1_555
C33 C32 1_555 1_555
H21 C33 1_555 1_555
C34 C33 1_555 1_555
H22 C34 1_555 1_555
C35 N4 1_555 1_555
H23 C35 1_555 1_555
C36 C32 1_555 1_555
H24 C36 1_555 1_555
La1A O1A 1_555 1_555
La1A_2 O4A 1_555 1_555
La1G O11G 1_555 1_555
La2A O1A 1_555 1_555
La2G O12 1_555 1_555
La2A_2 O4A 1_555 1_555
Cu1C N4 1_555 1_555
Cu1D N4G 1_555 1_555
Cu1A N1A 1_555 1_555
Cu2B N3 1_555 1_555
Cu2E N3G 1_555 1_555
Cu2A N2A 1_555 1_555
Cl1C Cu2 1_555 1_555
Cl1A Cu2B 1_555 1_555
O1A C1A 1_555 1_555
O2A La1A 1_555 1_555
O3A C2 1_555 1_555
O4A C7A 1_555 1_555
O4A_2 La1A 1_555 1_555
O5A La2A_2 1_555 1_555
O5A_2 La2A 1_555 1_555
O6A C8 1_555 1_555
O6A_2 La1A 1_555 1_555
O7A La1A 1_555 1_555
O8A La2A 1_555 1_555
O9A La1A 1_555 1_555
O10A La2A 1_555 1_555
O11G C25G 1_555 1_555
O11A La1A 1_555 1_555
O12G La2 1_555 1_555
O12F La2A 1_555 1_555
O13G La2 1_555 1_555
O13F La2A 1_555 1_555
O14G La1G 1_555 1_555
O14A La1A 1_555 1_555
O15A La1A 1_555 1_555
H1A O15A 1_555 1_555
H2A O15A 1_555 1_555
O16A La2A 1_555 1_555
H3A O16A 1_555 1_555
H4A O16A 1_555 1_555
N1A C16A 1_555 1_555
N1C Cu1C 1_555 1_555
N2A C22A 1_555 1_555
N2B Cu2B 1_555 1_555
N3G C28G 1_555 1_555
N3B Cu2 1_555 1_555
N4G C34G 1_555 1_555
N4C Cu1 1_555 1_555
C1A O2A 1_555 1_555
C4A C3 1_555 1_555
C5A C6 1_555 1_555
H5A C5A 1_555 1_555
C7A O5A 1_555 1_555
C10A C9 1_555 1_555
C11A C12 1_555 1_555
H7A C11A 1_555 1_555
C13A O7A 1_555 1_555
C14A C13A 1_555 1_555
C15A C14A 1_555 1_555
H9A C15A 1_555 1_555
C16A C15A 1_555 1_555
H10A C16A 1_555 1_555
C17A N1A 1_555 1_555
H11A C17A 1_555 1_555
C18A C14A 1_555 1_555
H12A C18A 1_555 1_555
C19A O9A 1_555 1_555
C20A C19A 1_555 1_555
C21A C20A 1_555 1_555
H13A C21A 1_555 1_555
C22A C21A 1_555 1_555
H14A C22A 1_555 1_555
C23A N2A 1_555 1_555
H15A C23A 1_555 1_555
C24A C20A 1_555 1_555
H16A C24A 1_555 1_555
C25G O12G 1_555 1_555
C26G C25G 1_555 1_555
C27G C26G 1_555 1_555
H17G C27G 1_555 1_555
C28G C27G 1_555 1_555
H18G C28G 1_555 1_555
C29G N3G 1_555 1_555
H19G C29G 1_555 1_555
C30G C26G 1_555 1_555
H20G C30G 1_555 1_555
C31G O13G 1_555 1_555
C32G C31G 1_555 1_555
C33G C32G 1_555 1_555
H21G C33G 1_555 1_555
C34G C33G 1_555 1_555
H22G C34G 1_555 1_555
C35G N4G 1_555 1_555
H23G C35G 1_555 1_555
C36G C32G 1_555 1_555
H24G C36G 1_555 1_555
La2 O4 1_555 1_555
O5 C7 1_555 1_555
O8 C13 1_555 1_555
O10 C19 1_555 1_555
O13 La2G 1_555 1_555
C3 C4 1_555 1_555
C9 C10 1_555 1_555
C15 C16 1_555 1_555
C17 C18 1_555 1_555
C23 C24 1_555 1_555
C29 C30 1_555 1_555
C35 C36 1_555 1_555
La1A_2 O6A 1_555 1_555
La2A O3A 1_555 1_555
La2A O4A_2 1_555 1_555
Cu1C Cl1C 1_555 1_555
O8A C13A 1_555 1_555
O10A C19A 1_555 1_555
O14G C31G 1_555 1_555
C1A C4A 1_555 1_555
C4A C5A 1_555 1_555
C7A C10A 1_555 1_555
C10A C11A 1_555 1_555
C17A C18A 1_555 1_555
C23A C24A 1_555 1_555
C29G C30G 1_555 1_555
C35G C36G 1_555 1_555

#END
