
#######################################################################
#
#                 Cambridge Crystallographic Data Centre
#                                CCDC 
#
#######################################################################
#
# If this CIF has been generated from an entry in the Cambridge 
# Structural Database, then it will include bibliographic, chemical, 
# crystal, experimental, refinement or atomic coordinate data resulting 
# from the CCDC's data processing and validation procedures.
#
#######################################################################

data_LAZNEH
_symmetry_cell_setting           monoclinic
_symmetry_space_group_name_H-M   'C 2/c'
_symmetry_Int_Tables_number      15
_space_group_name_Hall           '-C 2yn'
loop_
_symmetry_equiv_pos_site_id
_symmetry_equiv_pos_as_xyz
1 x,y,z
2 -x,y,1/2-z
3 1/2+x,1/2+y,z
4 1/2-x,1/2+y,1/2-z
5 -x,-y,-z
6 x,-y,1/2+z
7 1/2-x,1/2-y,-z
8 1/2+x,1/2-y,1/2+z
_cell_length_a                   15.2400(7)
_cell_length_b                   31.4564(11)
_cell_length_c                   16.8503(8)
_cell_angle_alpha                90
_cell_angle_beta                 107.784(5)
_cell_angle_gamma                90
_cell_volume                     7691.95
loop_
_atom_site_label
_atom_site_type_symbol
_atom_site_fract_x
_atom_site_fract_y
_atom_site_fract_z
Cu1 Cu 0.17460(9) 0.01485(3) 1.02015(7)
Cu2 Cu 0.34924(8) 0.00367(3) 0.97882(8)
O1 O 0.3163(3) 0.22458(13) 0.7266(3)
O2 O 0.2659(3) 0.18108(15) 0.6205(3)
O3 O 0.4968(3) 0.26093(14) 0.8149(3)
O4 O 0.1820(3) 0.28129(13) 0.7649(3)
O5 O 0.2341(3) 0.32483(15) 0.8701(3)
O6 O 0.0013(3) 0.24681(14) 0.6841(3)
O7 O 0.1566(3) 0.18094(14) 0.7466(3)
O8 O 0.2404(3) 0.20931(14) 0.8684(3)
O9 O 0.2467(3) -0.20404(14) 0.8814(3)
O10 O 0.1627(3) -0.17676(14) 0.7582(3)
O11 O 0.4572(3) 0.21093(15) 0.9363(3)
O12 O 0.5512(3) 0.19887(14) 1.0630(3)
O13 O 0.0262(3) -0.18788(13) 1.0607(3)
O14 O -0.0529(3) -0.17353(14) 0.9292(3)
O15 O 0.1438(3) 0.23675(16) 0.4817(3)
H1 H 0.0909 0.2320 0.4474
H2 H 0.1827 0.2191 0.4743
O16 O 0.3484(3) 0.26139(15) 1.0134(3)
H3 H 0.3105 0.2788 1.0233
H4 H 0.4013 0.2646 1.0489
N1 N 0.1658(5) 0.06642(19) 0.9563(4)
N2 N 0.2968(5) -0.04961(18) 0.9323(4)
N3 N 0.4114(4) 0.05673(19) 0.9763(4)
N4 N 0.1070(5) -0.03680(19) 1.0232(4)
C1 C 0.3275(4) 0.19333(19) 0.6831(4)
C2 C 0.5000 0.2427(3) 0.7500
C3 C 0.5000 0.1939(3) 0.7500
C4 C 0.4187(4) 0.1709(2) 0.7139(4)
C5 C 0.4191(4) 0.1269(2) 0.7109(4)
H5 H 0.3657 0.1122 0.6829
C6 C 0.5000 0.1049(3) 0.7500
H6 H 0.5000 0.0754 0.7500
C7 C 0.1715(4) 0.31290(19) 0.8076(4)
C8 C 0.0000 0.2645(3) 0.7500
C9 C 0.0000 0.3131(3) 0.7500
C10 C 0.0818(4) 0.33608(19) 0.7792(4)
C11 C 0.0816(4) 0.3801(2) 0.7815(4)
H7 H 0.1365 0.3948 0.8043
C12 C 0.0000 0.4021(3) 0.7500
H8 H 0.0000 0.4317 0.7500
C13 C 0.1915(4) 0.1808(2) 0.8237(4)
C14 C 0.1771(5) 0.1412(2) 0.8694(4)
C15 C 0.2168(5) 0.1385(2) 0.9556(4)
H9 H 0.2487 0.1615 0.9857
C16 C 0.2080(6) 0.1016(2) 0.9951(5)
H10 H 0.2330 0.1007 1.0528
C17 C 0.1254(6) 0.0695(3) 0.8733(5)
H11 H 0.0937 0.0461 0.8445
C18 C 0.1295(6) 0.1061(2) 0.8298(5)
H12 H 0.0997 0.1071 0.7728
C19 C 0.2129(4) -0.17395(19) 0.8327(4)
C20 C 0.2376(4) -0.1297(2) 0.8681(4)
C21 C 0.2700(5) -0.1229(2) 0.9528(4)
H13 H 0.2734 -0.1451 0.9899
C22 C 0.2970(6) -0.0829(2) 0.9812(5)
H14 H 0.3169 -0.0786 1.0386
C23 C 0.2662(6) -0.0571(2) 0.8500(5)
H15 H 0.2663 -0.0347 0.8139
C24 C 0.2350(5) -0.0957(2) 0.8167(5)
H16 H 0.2121 -0.0990 0.7592
C25 C 0.4952(4) 0.1875(2) 0.9963(4)
C26 C 0.4707(4) 0.1412(2) 0.9881(4)
C27 C 0.4999(5) 0.1144(2) 1.0547(4)
H17 H 0.5405 0.1240 1.1047
C28 C 0.4688(5) 0.0731(2) 1.0476(5)
H18 H 0.4882 0.0555 1.0941
C29 C 0.3887(6) 0.0826(2) 0.9101(5)
H19 H 0.3537 0.0716 0.8590
C30 C 0.4146(5) 0.1247(2) 0.9136(4)
H20 H 0.3946 0.1419 0.8666
C31 C 0.0001(4) -0.1635(2) 0.9994(4)
C32 C 0.0355(5) -0.1185(2) 1.0093(4)
C33 C 0.0972(5) -0.1048(2) 1.0827(4)
H21 H 0.1156 -0.1226 1.1289
C34 C 0.1309(6) -0.0645(2) 1.0864(5)
H22 H 0.1732 -0.0557 1.1361
C35 C 0.0458(6) -0.0503(2) 0.9535(5)
H23 H 0.0267 -0.0314 0.9090
C36 C 0.0093(6) -0.0905(2) 0.9434(5)
H24 H -0.0325 -0.0987 0.8930
La1 La 0.14140(2) 0.238370(11) 0.63512(2)
La2 La 0.35333(2) 0.266670(11) 0.85787(2)
Br1 Br 0.32501(7) 0.00691(3) 1.13155(6)
Cu1E Cu 0.17460(9) -0.01485(3) 1.52015(7)
Cu1E_2 Cu 0.17460(9) -0.01485(3) 0.52015(7)
Cu2C Cu 0.15076(8) 0.50367(3) 0.52118(8)
Cu2G Cu -0.15076(8) 0.49633(3) 0.47882(8)
Cu2E Cu 0.34924(8) -0.00367(3) 1.47882(8)
O1A O 0.6837(3) 0.22458(13) 0.7734(3)
O1E O 0.3163(3) -0.22458(13) 1.2266(3)
O1B O -0.1837(3) -0.27542(13) 0.7266(3)
O2A O 0.7341(3) 0.18108(15) 0.8795(3)
O2E O 0.2659(3) -0.18108(15) 1.1205(3)
O3A O 0.5032(3) 0.26093(14) 0.6851(3)
O3B O -0.0032(3) -0.23907(14) 0.8149(3)
O4A O -0.1820(3) 0.28129(13) 0.7351(3)
O4E O 0.1820(3) -0.28129(13) 1.2649(3)
O4B O -0.3180(3) -0.21871(13) 0.7649(3)
O5A O -0.2341(3) 0.32483(15) 0.6299(3)
O5B O -0.2659(3) -0.17517(15) 0.8701(3)
O6A O -0.0013(3) 0.24681(14) 0.8159(3)
O6E O 0.0013(3) -0.24681(14) 1.1841(3)
O7E O 0.1566(3) -0.18094(14) 1.2466(3)
O8E O 0.2404(3) -0.20931(14) 1.3684(3)
O8B O -0.2596(3) -0.29069(14) 0.8684(3)
O9C O 0.2533(3) 0.29596(14) 0.6186(3)
O9F O 0.2533(3) -0.29596(14) 1.1186(3)
O10C O 0.3373(3) 0.32324(14) 0.7418(3)
O10A O -0.1627(3) -0.17676(14) 0.7418(3)
O11G O -0.0428(3) 0.28907(15) 0.4363(3)
O11B O -0.0428(3) -0.28907(15) 0.9363(3)
O12G O 0.0512(3) 0.30113(14) 0.5630(3)
O12B O 0.0512(3) -0.30113(14) 1.0630(3)
O13E O 0.0262(3) 0.18788(13) 0.5607(3)
O14E O -0.0529(3) 0.17353(14) 0.4292(3)
O14B O 0.4471(3) 0.32647(14) 0.9292(3)
O15E O 0.1438(3) -0.23675(16) 0.9817(3)
H1E H 0.0909 -0.2320 0.9474
H2E H 0.1827 -0.2191 0.9743
O16B O -0.1516(3) -0.23861(15) 1.0134(3)
H3B H -0.1895 -0.2212 1.0233
H4B H -0.0987 -0.2354 1.0489
N1E N 0.1658(5) -0.06642(19) 1.4563(4)
N2C N 0.2032(5) 0.45039(18) 0.5677(4)
N3G N -0.0886(4) 0.44327(19) 0.4763(4)
N3C N 0.0886(4) 0.55673(19) 0.5237(4)
N4E N 0.1070(5) 0.03680(19) 0.5232(4)
N4E_2 N 0.1070(5) 0.03680(19) 1.5232(4)
C1A C 0.6725(4) 0.19333(19) 0.8169(4)
C4A C 0.5813(4) 0.1709(2) 0.7861(4)
C5A C 0.5809(4) 0.1269(2) 0.7891(4)
H5A H 0.6343 0.1122 0.8171
C7A C -0.1715(4) 0.31290(19) 0.6924(4)
C10A C -0.0818(4) 0.33608(19) 0.7208(4)
C11A C -0.0816(4) 0.3801(2) 0.7185(4)
H7A H -0.1365 0.3948 0.6957
C13E C 0.1915(4) -0.1808(2) 1.3237(4)
C14E C 0.1771(5) -0.1412(2) 1.3694(4)
C15E C 0.2168(5) -0.1385(2) 1.4556(4)
H9E H 0.2487 -0.1615 1.4857
C16E C 0.2080(6) -0.1016(2) 1.4951(5)
H10E H 0.2330 -0.1007 1.5528
C17E C 0.1254(6) -0.0695(3) 1.3733(5)
H11E H 0.0937 -0.0461 1.3445
C18E C 0.1295(6) -0.1061(2) 1.3298(5)
H12E H 0.0997 -0.1071 1.2728
C19C C 0.2871(4) 0.32605(19) 0.6673(4)
C20C C 0.2624(4) 0.3703(2) 0.6319(4)
C21C C 0.2300(5) 0.3771(2) 0.5472(4)
H13C H 0.2266 0.3549 0.5101
C22C C 0.2030(6) 0.4171(2) 0.5188(5)
H14C H 0.1831 0.4214 0.4614
C23C C 0.2338(6) 0.4429(2) 0.6500(5)
H15C H 0.2337 0.4653 0.6861
C24C C 0.2650(5) 0.4043(2) 0.6833(5)
H16C H 0.2879 0.4010 0.7408
C25G C -0.0048(4) 0.3125(2) 0.4963(4)
C26G C -0.0293(4) 0.3588(2) 0.4881(4)
C27G C -0.0001(5) 0.3856(2) 0.5547(4)
H17G H 0.0405 0.3760 0.6047
C28G C -0.0312(5) 0.4269(2) 0.5476(5)
H18G H -0.0118 0.4445 0.5941
C29G C -0.1113(6) 0.4174(2) 0.4101(5)
H19G H -0.1463 0.4284 0.3590
C30G C -0.0854(5) 0.3753(2) 0.4136(4)
H20G H -0.1054 0.3581 0.3666
C31E C 0.0001(4) 0.1635(2) 0.4994(4)
C32E C 0.0355(5) 0.1185(2) 0.5093(4)
C33E C 0.0972(5) 0.1048(2) 0.5827(4)
H21E H 0.1156 0.1226 0.6289
C34E C 0.1309(6) 0.0645(2) 0.5864(5)
H22E H 0.1732 0.0557 0.6361
C35E C 0.0458(6) 0.0503(2) 0.4535(5)
H23E H 0.0267 0.0314 0.4090
C36E C 0.0093(6) 0.0905(2) 0.4434(5)
H24E H -0.0325 0.0987 0.3930
La1E La 0.14140(2) -0.238370(11) 1.13512(2)
La1C La 0.35860(2) -0.261630(11) 0.86488(2)
La1G La 0.64140(2) 0.261630(11) 1.13512(2)
La1A La 0.85860(2) 0.238370(11) 0.86488(2)
La1A_2 La -0.14140(2) 0.238370(11) 0.86488(2)
La2B La -0.14667(2) -0.233330(11) 0.85787(2)
La2C La 0.14667(2) -0.233330(11) 0.64213(2)
La2A La 0.64667(2) 0.266670(11) 0.64213(2)
La2A_2 La -0.35333(2) 0.266670(11) 0.64213(2)
La2G La -0.14667(2) 0.233330(11) 0.35787(2)
La2E La 0.35333(2) -0.266670(11) 1.35787(2)
Br1E Br 0.32501(7) -0.00691(3) 1.63155(6)
Br1C Br 0.17499(7) 0.50691(3) 0.36845(6)
O17 O 0.5000 0.3735(3) 0.7500
O18 O 0.0000 0.0373(5) 0.2500
loop_
_geom_bond_atom_site_label_1
_geom_bond_atom_site_label_2
_geom_bond_site_symmetry_1
_geom_bond_site_symmetry_2
Cu1 N1 1_555 1_555
Cu2 N2 1_555 1_555
O1 C1 1_555 1_555
O2 C1 1_555 1_555
O3 C2 1_555 1_555
O4 C7 1_555 1_555
O5 C7 1_555 1_555
O6 C8 1_555 1_555
O7 C13 1_555 1_555
O8 C13 1_555 1_555
O9 C19 1_555 1_555
O10 C19 1_555 1_555
O11 C25 1_555 1_555
O12 C25 1_555 1_555
O13 C31 1_555 1_555
O14 C31 1_555 1_555
O15 H1 1_555 1_555
H2 O15 1_555 1_555
O16 H3 1_555 1_555
H4 O16 1_555 1_555
N1 C16 1_555 1_555
N2 C22 1_555 1_555
N3 Cu2 1_555 1_555
N4 Cu1 1_555 1_555
C1 C4 1_555 1_555
C2 C3 1_555 1_555
C3 C4 1_555 1_555
C4 C5 1_555 1_555
C5 H5 1_555 1_555
C6 C5 1_555 1_555
H6 C6 1_555 1_555
C7 C10 1_555 1_555
C8 C9 1_555 1_555
C9 C10 1_555 1_555
C10 C11 1_555 1_555
C11 H7 1_555 1_555
C12 C11 1_555 1_555
H8 C12 1_555 1_555
C13 C14 1_555 1_555
C14 C15 1_555 1_555
C15 H9 1_555 1_555
C16 C15 1_555 1_555
H10 C16 1_555 1_555
C17 N1 1_555 1_555
H11 C17 1_555 1_555
C18 C14 1_555 1_555
H12 C18 1_555 1_555
C19 C20 1_555 1_555
C20 C21 1_555 1_555
C21 H13 1_555 1_555
C22 C21 1_555 1_555
H14 C22 1_555 1_555
C23 N2 1_555 1_555
H15 C23 1_555 1_555
C24 C20 1_555 1_555
H16 C24 1_555 1_555
C25 C26 1_555 1_555
C26 C27 1_555 1_555
C27 H17 1_555 1_555
C28 N3 1_555 1_555
H18 C28 1_555 1_555
C29 N3 1_555 1_555
H19 C29 1_555 1_555
C30 C26 1_555 1_555
H20 C30 1_555 1_555
C31 C32 1_555 1_555
C32 C33 1_555 1_555
C33 H21 1_555 1_555
C34 N4 1_555 1_555
H22 C34 1_555 1_555
C35 N4 1_555 1_555
H23 C35 1_555 1_555
C36 C32 1_555 1_555
H24 C36 1_555 1_555
La1 O1 1_555 1_555
La2 O1 1_555 1_555
Br1 Cu1 1_555 1_555
Cu1E N1E 1_555 1_555
Cu1E_2 N4E 1_555 1_555
Cu2C N2C 1_555 1_555
Cu2G N3G 1_555 1_555
Cu2E Br1E 1_555 1_555
O1A C1A 1_555 1_555
O1E La1E 1_555 1_555
O1B La2B 1_555 1_555
O2A C1A 1_555 1_555
O2E La1E 1_555 1_555
O3A C2 1_555 1_555
O3B La2B 1_555 1_555
O4A C7A 1_555 1_555
O4E La1E 1_555 1_555
O4B La2B 1_555 1_555
O5A C7A 1_555 1_555
O5B La2B 1_555 1_555
O6A C8 1_555 1_555
O6E La1E 1_555 1_555
O7E C13E 1_555 1_555
O8E C13E 1_555 1_555
O8B La2B 1_555 1_555
O9C La1 1_555 1_555
O9F La1E 1_555 1_555
O10C La2 1_555 1_555
O10A La2B 1_555 1_555
O11G C25G 1_555 1_555
O11B La2B 1_555 1_555
O12G La1 1_555 1_555
O12B La1E 1_555 1_555
O13E La1 1_555 1_555
O14E C31E 1_555 1_555
O14B La2 1_555 1_555
O15E H1E 1_555 1_555
H2E O15E 1_555 1_555
O16B H3B 1_555 1_555
H4B O16B 1_555 1_555
N1E C16E 1_555 1_555
N2C C22C 1_555 1_555
N3G C28G 1_555 1_555
N3C Cu2C 1_555 1_555
N4E C34E 1_555 1_555
N4E_2 Cu1E 1_555 1_555
C1A C4A 1_555 1_555
C4A C3 1_555 1_555
C5A C6 1_555 1_555
H5A C5A 1_555 1_555
C7A C10A 1_555 1_555
C10A C9 1_555 1_555
C11A C12 1_555 1_555
H7A C11A 1_555 1_555
C13E C14E 1_555 1_555
C14E C15E 1_555 1_555
C15E H9E 1_555 1_555
C16E C15E 1_555 1_555
H10E C16E 1_555 1_555
C17E N1E 1_555 1_555
H11E C17E 1_555 1_555
C18E C14E 1_555 1_555
H12E C18E 1_555 1_555
C19C O9C 1_555 1_555
C20C C19C 1_555 1_555
C21C C20C 1_555 1_555
H13C C21C 1_555 1_555
C22C C21C 1_555 1_555
H14C C22C 1_555 1_555
C23C N2C 1_555 1_555
H15C C23C 1_555 1_555
C24C C20C 1_555 1_555
H16C C24C 1_555 1_555
C25G O12G 1_555 1_555
C26G C25G 1_555 1_555
C27G C26G 1_555 1_555
H17G C27G 1_555 1_555
C28G C27G 1_555 1_555
H18G C28G 1_555 1_555
C29G N3G 1_555 1_555
H19G C29G 1_555 1_555
C30G C26G 1_555 1_555
H20G C30G 1_555 1_555
C31E O13E 1_555 1_555
C32E C31E 1_555 1_555
C33E C32E 1_555 1_555
H21E C33E 1_555 1_555
C34E C33E 1_555 1_555
H22E C34E 1_555 1_555
C35E N4E 1_555 1_555
H23E C35E 1_555 1_555
C36E C32E 1_555 1_555
H24E C36E 1_555 1_555
La1E O13 1_555 1_555
La1C O9 1_555 1_555
La1G O12 1_555 1_555
La1A O1A 1_555 1_555
La1A_2 O4A 1_555 1_555
La2B O14 1_555 1_555
La2C O10 1_555 1_555
La2A O1A 1_555 1_555
La2A_2 O4A 1_555 1_555
La2G O11G 1_555 1_555
La2E O1E 1_555 1_555
Br1E Cu1E 1_555 1_555
Br1C Cu2C 1_555 1_555
Cu2 Br1 1_555 1_555
O2 La1 1_555 1_555
O3 La2 1_555 1_555
O4 La1 1_555 1_555
O4 La2 1_555 1_555
O5 La2 1_555 1_555
O6 La1 1_555 1_555
O7 La1 1_555 1_555
O8 La2 1_555 1_555
O11 La2 1_555 1_555
O15 La1 1_555 1_555
O16 La2 1_555 1_555
C17 C18 1_555 1_555
C23 C24 1_555 1_555
C27 C28 1_555 1_555
C29 C30 1_555 1_555
C33 C34 1_555 1_555
C35 C36 1_555 1_555
O2A La1A 1_555 1_555
O3A La2A 1_555 1_555
O4E La2E 1_555 1_555
O5A La2A_2 1_555 1_555
O6A La1A_2 1_555 1_555
O7E La1E 1_555 1_555
O8E La2E 1_555 1_555
O10C C19C 1_555 1_555
O14E La2G 1_555 1_555
O15E La1E 1_555 1_555
O16B La2B 1_555 1_555
C4A C5A 1_555 1_555
C10A C11A 1_555 1_555
C17E C18E 1_555 1_555
C23C C24C 1_555 1_555
C29G C30G 1_555 1_555
C35E C36E 1_555 1_555

#END
