
#######################################################################
#
#                 Cambridge Crystallographic Data Centre
#                                CCDC 
#
#######################################################################
#
# If this CIF has been generated from an entry in the Cambridge 
# Structural Database, then it will include bibliographic, chemical, 
# crystal, experimental, refinement or atomic coordinate data resulting 
# from the CCDC's data processing and validation procedures.
#
#######################################################################

data_LAZNAB
_symmetry_cell_setting           trigonal
_symmetry_space_group_name_H-M   'P 32'
_symmetry_Int_Tables_number      145
_space_group_name_Hall           'P 32'
loop_
_symmetry_equiv_pos_site_id
_symmetry_equiv_pos_as_xyz
1 x,y,z
2 -y,x-y,2/3+z
3 -x+y,-x,1/3+z
_cell_length_a                   12.598(5)
_cell_length_b                   12.598(5)
_cell_length_c                   25.071(10)
_cell_angle_alpha                90
_cell_angle_beta                 90
_cell_angle_gamma                120
_cell_volume                     3445.92
loop_
_atom_site_label
_atom_site_type_symbol
_atom_site_fract_x
_atom_site_fract_y
_atom_site_fract_z
Ba1 Ba 0.4876(1) 0.7343(1) 0.0000
S1 S 0.5105(7) 0.5640(7) -0.1947(3)
S2 S 0.0791(7) 0.7207(7) 0.0321(3)
S3 S 0.8650(10) 0.8196(11) 0.1205(4)
S4 S 0.6058(7) 1.1756(6) -0.0664(3)
O1 O 0.5573(15) 0.5614(14) -0.0164(9)
C1 C 0.5267(18) 0.4582(19) -0.0176(8)
C2 C 0.4420(22) 0.3689(22) -0.0613(8)
C3 C 0.3154(23) 0.3599(24) -0.0641(8)
C4 C 0.2429(23) 0.2863(22) -0.1093(10)
O2 O 0.2507(14) 0.2987(13) -0.0152(6)
C5 C 0.2481(18) 0.3711(18) 0.0251(8)
O3 O 0.3033(17) 0.4780(13) 0.0240(6)
C6 C 0.1726(21) 0.2907(19) 0.0710(8)
C7 C 0.2481(21) 0.3306(20) 0.1228(8)
C8 C 0.1738(26) 0.2516(27) 0.1706(9)
O4 O 0.3522(14) 0.3164(14) 0.1142(6)
C9 C 0.4626(17) 0.4154(16) 0.1247(7)
O5 O 0.4761(14) 0.5138(13) 0.1399(7)
C10 C 0.5676(21) 0.3948(21) 0.1124(9)
C11 C 0.6370(21) 0.4693(20) 0.0634(10)
C12 C 0.7557(25) 0.4777(27) 0.0521(12)
O6 O 0.5501(14) 0.3988(13) 0.0181(6)
Ba2 Ba 0.4740(1) 0.6935(1) 0.1946(1)
O7 O 0.5071(15) 0.9362(14) 0.0486(6)
C13 C 0.5480(18) 1.0447(18) 0.0654(7)
C14 C 0.6789(22) 1.1273(20) 0.0767(10)
C15 C 0.7151(23) 1.0836(20) 0.1253(9)
C16 C 0.8523(31) 1.1427(31) 0.1345(12)
O8 O 0.6625(14) 1.1134(13) 0.1710(6)
C17 C 0.6176(19) 1.0299(18) 0.2082(8)
O9 O 0.6191(15) 0.9381(15) 0.2119(6)
C18 C 0.5651(22) 1.0718(22) 0.2540(8)
C19 C 0.4262(20) 0.9928(20) 0.2595(8)
C20 C 0.3797(30) 1.0289(29) 0.3089(12)
O10 O 0.3675(15) 1.0225(14) 0.2148(6)
C21 C 0.3449(22) 0.9560(21) 0.1693(10)
O11 O 0.3725(14) 0.8786(15) 0.1638(6)
C22 C 0.2836(24) 0.9965(24) 0.1277(9)
C23 C 0.3402(21) 1.0036(21) 0.0720(8)
C24 C 0.2995(24) 1.0640(25) 0.0317(9)
O12 O 0.4744(13) 1.0857(13) 0.0793(6)
C25 C 0.4721(21) 0.6213(21) -0.1438(9)
N1 N 0.4377(19) 0.6582(23) -0.1103(7)
C26 C 0.1804(20) 0.7125(20) -0.0022(10)
N2 N 0.2568(18) 0.7075(17) -0.0290(8)
C27 C 0.7316(26) 0.7988(26) 0.1048(9)
N3 N 0.6327(20) 0.7805(19) 0.0967(7)
C28 C 0.5588(19) 1.0282(19) -0.0704(8)
N4 N 0.5247(17) 0.9274(14) -0.0728(8)
O13 O 0.7395(14) 0.8484(16) -0.0301(7)
C29 C 0.8073(21) 0.7895(22) -0.0394(11)
C30 C 0.9374(25) 0.8909(25) -0.0543(15)
C31 C 0.9478(35) 0.9949(35) -0.0194(17)
C32 C 0.8243(25) 0.9743(26) -0.0163(10)
O14 O 0.3433(14) 0.6841(14) 0.0972(6)
O15 O 0.6853(19) 0.6918(19) 0.2250(8)
Ba2A Ba 0.3065(1) 0.7805(1) -0.1387(1)
N1B N 0.2205(30) 0.5623(19) 0.2230(7)
N2B N 0.4507(25) 0.7432(18) 0.3043(8)
N4B N 0.4027(22) 0.4753(17) 0.2605(8)
loop_
_geom_bond_atom_site_label_1
_geom_bond_atom_site_label_2
_geom_bond_site_symmetry_1
_geom_bond_site_symmetry_2
Ba1 O1 1_555 1_555
S1 C25 1_555 1_555
S2 C26 1_555 1_555
S3 C27 1_555 1_555
S4 C28 1_555 1_555
O1 C1 1_555 1_555
C1 C2 1_555 1_555
C2 C3 1_555 1_555
C3 C4 1_555 1_555
O2 C3 1_555 1_555
C5 O2 1_555 1_555
O3 Ba1 1_555 1_555
C6 C5 1_555 1_555
C7 C6 1_555 1_555
C8 C7 1_555 1_555
O4 C7 1_555 1_555
C9 O4 1_555 1_555
O5 C9 1_555 1_555
C10 C9 1_555 1_555
C11 C10 1_555 1_555
C12 C11 1_555 1_555
O6 C1 1_555 1_555
Ba2 O5 1_555 1_555
O7 Ba1 1_555 1_555
C13 O7 1_555 1_555
C14 C13 1_555 1_555
C15 C14 1_555 1_555
C16 C15 1_555 1_555
O8 C15 1_555 1_555
C17 O8 1_555 1_555
O9 Ba2 1_555 1_555
C18 C17 1_555 1_555
C19 C18 1_555 1_555
C20 C19 1_555 1_555
O10 C19 1_555 1_555
C21 O10 1_555 1_555
O11 Ba2 1_555 1_555
C22 C21 1_555 1_555
C23 C22 1_555 1_555
C24 C23 1_555 1_555
O12 C13 1_555 1_555
C25 N1 1_555 1_555
N1 Ba1 1_555 1_555
C26 N2 1_555 1_555
N2 Ba1 1_555 1_555
C27 N3 1_555 1_555
N3 Ba1 1_555 1_555
C28 N4 1_555 1_555
N4 Ba1 1_555 1_555
O13 Ba1 1_555 1_555
C29 O13 1_555 1_555
C30 C29 1_555 1_555
C31 C30 1_555 1_555
C32 O13 1_555 1_555
O14 Ba1 1_555 1_555
O15 Ba2 1_555 1_555
Ba2A N1 1_555 1_555
N1B Ba2 1_555 1_555
N2B Ba2 1_555 1_555
N4B Ba2 1_555 1_555
C5 O3 1_555 1_555
C11 O6 1_555 1_555
Ba2 N3 1_555 1_555
Ba2 O14 1_555 1_555
C17 O9 1_555 1_555
C21 O11 1_555 1_555
C23 O12 1_555 1_555
N2 Ba2A 1_555 1_555
N4 Ba2A 1_555 1_555
C31 C32 1_555 1_555

#END
