
#######################################################################
#
#                 Cambridge Crystallographic Data Centre
#                                CCDC 
#
#######################################################################
#
# If this CIF has been generated from an entry in the Cambridge 
# Structural Database, then it will include bibliographic, chemical, 
# crystal, experimental, refinement or atomic coordinate data resulting 
# from the CCDC's data processing and validation procedures.
#
#######################################################################

data_LAZNUX
_symmetry_cell_setting           monoclinic
_symmetry_space_group_name_H-M   'C 2/c'
_symmetry_Int_Tables_number      15
_space_group_name_Hall           '-C 2yn'
loop_
_symmetry_equiv_pos_site_id
_symmetry_equiv_pos_as_xyz
1 x,y,z
2 -x,y,1/2-z
3 1/2+x,1/2+y,z
4 1/2-x,1/2+y,1/2-z
5 -x,-y,-z
6 x,-y,1/2+z
7 1/2-x,1/2-y,-z
8 1/2+x,1/2-y,1/2+z
_cell_length_a                   15.149(4)
_cell_length_b                   31.394(8)
_cell_length_c                   16.763(5)
_cell_angle_alpha                90
_cell_angle_beta                 108.193(4)
_cell_angle_gamma                90
_cell_volume                     7573.74
loop_
_atom_site_label
_atom_site_type_symbol
_atom_site_fract_x
_atom_site_fract_y
_atom_site_fract_z
Nd1 Nd 0.647029(16) 0.266254(8) 0.143188(15)
Nd2 Nd 0.858512(16) 0.238597(8) 0.364318(15)
Br1 Br 0.82448(6) 0.50734(2) 0.63162(5)
Cu1 Cu 0.84881(7) 0.50394(2) 0.47840(7)
Cu2 Cu 0.82832(8) 0.01479(3) -0.01831(6)
O1 O 0.8169(2) 0.28046(11) 0.2360(2)
O2 O 0.7628(3) 0.32345(13) 0.1289(2)
O3 O 0.9973(3) 0.24581(11) 0.3157(2)
O4 O 0.6855(2) 0.22548(11) 0.2729(2)
O5 O 0.7370(2) 0.18208(12) 0.3803(2)
O6 O 0.5044(2) 0.26183(11) 0.1848(2)
O7 O 0.6628(2) 0.32221(11) 0.2567(2)
O8 O 0.7488(3) 0.29487(11) 0.3814(2)
O9 O 0.7565(3) 0.20950(12) 0.1314(2)
O10 O 0.8432(2) 0.18227(11) 0.2552(2)
O11 O 0.4723(2) 0.31082(11) -0.0612(2)
O12 O 0.5526(2) 0.32425(11) 0.0715(2)
O13 O 0.4492(3) 0.20057(11) -0.0641(2)
O14 O 0.5430(3) 0.21211(12) 0.0654(2)
O15 O 0.6516(3) 0.26164(12) -0.0106(2)
H1 H 0.6904 0.2789 -0.0199
H2 H 0.5983 0.2653 -0.0465
O16 O 0.8561(3) 0.23683(12) 0.5159(2)
H3 H 0.9092 0.2316 0.5507
H4 H 0.8160 0.2195 0.5228
N1 N 0.7964(4) 0.45039(15) 0.4315(3)
N2 N 0.8366(4) 0.06700(14) 0.0456(3)
N3 N 0.3959(4) 0.46262(15) -0.0226(3)
N4 N 0.5877(4) 0.05719(15) 0.0237(3)
C1 C 0.8269(3) 0.31201(15) 0.1919(3)
C2 C 1.0000 0.26384(19) 0.2500
C3 C 1.0000 0.3124(2) 0.2500
C4 C 0.9168(3) 0.33511(15) 0.2199(3)
C5 C 0.9177(3) 0.37948(16) 0.2184(3)
H5 H 0.8622 0.3942 0.1957
C6 C 1.0000 0.4020(2) 0.2500
H6 H 1.0000 0.4316 0.2500
C7 C 0.6735(3) 0.19416(15) 0.3167(3)
C8 C 0.5000 0.2436(2) 0.2500
C9 C 0.5000 0.1947(2) 0.2500
C10 C 0.5816(3) 0.17167(15) 0.2866(3)
C11 C 0.5809(3) 0.12742(16) 0.2894(3)
H7 H 0.6348 0.1127 0.3179
C12 C 0.5000 0.1052(2) 0.2500
H8 H 0.5000 0.0756 0.2500
C13 C 0.7133(3) 0.32491(15) 0.3323(3)
C14 C 0.7370(3) 0.36920(15) 0.3673(3)
C15 C 0.7338(4) 0.40376(17) 0.3142(3)
H9 H 0.7110 0.4004 0.2563
C16 C 0.7651(5) 0.44314(19) 0.3490(4)
H10 H 0.7642 0.4657 0.3129
C17 C 0.7963(4) 0.41714(19) 0.4821(4)
H11 H 0.8159 0.4217 0.5398
C18 C 0.7688(4) 0.37671(17) 0.4530(3)
H12 H 0.7716 0.3546 0.4906
C19 C 0.8078(3) 0.18153(16) 0.1769(3)
C20 C 0.8238(4) 0.14198(16) 0.1313(3)
C21 C 0.8727(4) 0.10687(19) 0.1734(4)
H13 H 0.9022 0.1080 0.2311
C22 C 0.8770(5) 0.0703(2) 0.1289(4)
H14 H 0.9093 0.0469 0.1579
C23 C 0.7921(5) 0.10146(18) 0.0047(3)
H15 H 0.7654 0.1001 -0.0533
C24 C 0.7846(4) 0.13878(17) 0.0455(3)
H16 H 0.7530 0.1619 0.0150
C25 C 0.4996(3) 0.33470(16) 0.0014(3)
C26 C 0.4656(4) 0.38005(15) -0.0082(3)
C27 C 0.4948(5) 0.40833(18) 0.0583(4)
H17 H 0.5381 0.4000 0.1087
C28 C 0.4586(5) 0.4490(2) 0.0487(4)
H18 H 0.4786 0.4678 0.0936
C29 C 0.3705(4) 0.43540(18) -0.0868(4)
H19 H 0.3287 0.4447 -0.1371
C30 C 0.4027(4) 0.39430(17) -0.0826(3)
H20 H 0.3827 0.3764 -0.1290
C31 C 0.5052(3) 0.18865(16) 0.0038(3)
C32 C 0.5298(3) 0.14197(15) 0.0127(3)
C33 C 0.4995(4) 0.11500(17) -0.0551(3)
H21 H 0.4585 0.1247 -0.1055
C34 C 0.5304(4) 0.07344(18) -0.0477(4)
H22 H 0.5105 0.0558 -0.0945
C35 C 0.6125(5) 0.08281(19) 0.0905(4)
H23 H 0.6490 0.0717 0.1416
C36 C 0.5864(4) 0.12486(17) 0.0873(3)
H24 H 0.6066 0.1418 0.1351
Nd1A Nd 1.352971(16) 0.266254(8) 0.356812(15)
Nd1A_2 Nd 0.352971(16) 0.266254(8) 0.356812(15)
Nd1G Nd 1.147029(16) 0.233746(8) 0.643188(15)
Nd2A Nd 1.141488(16) 0.238597(8) 0.135682(15)
Nd2G Nd 0.358512(16) 0.261403(8) -0.135682(15)
Nd2A_2 Nd 0.141488(16) 0.238597(8) 0.135682(15)
Br1C Br 0.67552(6) 0.00734(2) -0.13162(5)
Br1A Br 0.17552(6) 0.50734(2) -0.13162(5)
Cu1C Cu 0.65119(7) 0.00394(2) 0.02160(7)
Cu1D Cu 1.15119(7) 0.49606(2) 0.52160(7)
Cu1A Cu 1.15119(7) 0.50394(2) 0.02160(7)
Cu2B Cu 0.32832(8) 0.51479(3) -0.01831(6)
Cu2C Cu 0.67168(8) 0.51479(3) 0.51831(6)
Cu2E Cu 0.82832(8) -0.01479(3) 0.48169(6)
Cu2A Cu 1.17168(8) 0.01479(3) 0.51831(6)
O1A O 1.1831(2) 0.28046(11) 0.2640(2)
O2A O 1.2372(3) 0.32345(13) 0.3711(2)
O3A O 1.0027(3) 0.24581(11) 0.1843(2)
O4A O 0.3145(2) 0.22548(11) 0.2271(2)
O4A_2 O 1.3145(2) 0.22548(11) 0.2271(2)
O5A O 0.2630(2) 0.18208(12) 0.1197(2)
O5A_2 O 1.2630(2) 0.18208(12) 0.1197(2)
O6A O 0.4956(2) 0.26183(11) 0.3152(2)
O6A_2 O 1.4956(2) 0.26183(11) 0.3152(2)
O7A O 1.3372(2) 0.32221(11) 0.2433(2)
O8A O 1.2512(3) 0.29487(11) 0.1186(2)
O9A O 1.2435(3) 0.20950(12) 0.3686(2)
O10A O 1.1568(2) 0.18227(11) 0.2448(2)
O11G O 0.9723(2) 0.18918(11) 0.4388(2)
O11F O 1.0277(2) 0.18918(11) 0.0612(2)
O12G O 1.0526(2) 0.17575(11) 0.5715(2)
O12A O 1.4474(2) 0.32425(11) 0.4285(2)
O13G O 0.9492(3) 0.29943(11) 0.4359(2)
O13F O 1.0508(3) 0.29943(11) 0.0641(2)
O14G O 1.0430(3) 0.28789(12) 0.5654(2)
O14A O 1.4570(3) 0.21211(12) 0.4346(2)
O15A O 1.3484(3) 0.26164(12) 0.5106(2)
H1A H 1.3096 0.2789 0.5199
H2A H 1.4017 0.2653 0.5465
O16A O 1.1439(3) 0.23683(12) -0.0159(2)
H3A H 1.0908 0.2316 -0.0507
H4A H 1.1840 0.2195 -0.0228
N1A N 1.2036(4) 0.45039(15) 0.0685(3)
N1C N 0.7036(4) -0.04961(15) 0.0685(3)
N2A N 1.1634(4) 0.06700(14) 0.4544(3)
N2B N 0.3366(4) 0.56700(14) 0.0456(3)
N3G N 0.8959(4) 0.03738(15) 0.4774(3)
N3B N 0.8959(4) -0.03738(15) -0.0226(3)
N4G N 1.0877(4) 0.44281(15) 0.5237(3)
N4C N 0.9123(4) 0.55719(15) 0.4763(3)
C1A C 1.1731(3) 0.31201(15) 0.3081(3)
C4A C 1.0832(3) 0.33511(15) 0.2801(3)
C5A C 1.0823(3) 0.37948(16) 0.2816(3)
H5A H 1.1378 0.3942 0.3043
C7A C 0.3265(3) 0.19416(15) 0.1833(3)
C10A C 0.4184(3) 0.17167(15) 0.2134(3)
C11A C 0.4191(3) 0.12742(16) 0.2106(3)
H7A H 0.3652 0.1127 0.1821
C13A C 1.2867(3) 0.32491(15) 0.1677(3)
C14A C 1.2630(3) 0.36920(15) 0.1327(3)
C15A C 1.2662(4) 0.40376(17) 0.1858(3)
H9A H 1.2890 0.4004 0.2437
C16A C 1.2349(5) 0.44314(19) 0.1510(4)
H10A H 1.2358 0.4657 0.1871
C17A C 1.2037(4) 0.41714(19) 0.0179(4)
H11A H 1.1841 0.4217 -0.0398
C18A C 1.2312(4) 0.37671(17) 0.0470(3)
H12A H 1.2284 0.3546 0.0094
C19A C 1.1922(3) 0.18153(16) 0.3231(3)
C20A C 1.1762(4) 0.14198(16) 0.3687(3)
C21A C 1.1273(4) 0.10687(19) 0.3266(4)
H13A H 1.0978 0.1080 0.2689
C22A C 1.1230(5) 0.0703(2) 0.3711(4)
H14A H 1.0907 0.0469 0.3421
C23A C 1.2079(5) 0.10146(18) 0.4953(3)
H15A H 1.2346 0.1001 0.5533
C24A C 1.2154(4) 0.13878(17) 0.4545(3)
H16A H 1.2470 0.1619 0.4850
C25G C 0.9996(3) 0.16530(16) 0.5014(3)
C26G C 0.9656(4) 0.11995(15) 0.4918(3)
C27G C 0.9948(5) 0.09167(18) 0.5583(4)
H17G H 1.0381 0.1000 0.6087
C28G C 0.9586(5) 0.0510(2) 0.5487(4)
H18G H 0.9786 0.0322 0.5936
C29G C 0.8705(4) 0.06460(18) 0.4132(4)
H19G H 0.8287 0.0553 0.3629
C30G C 0.9027(4) 0.10570(17) 0.4174(3)
H20G H 0.8827 0.1236 0.3710
C31G C 1.0052(3) 0.31135(16) 0.5038(3)
C32G C 1.0298(3) 0.35803(15) 0.5127(3)
C33G C 0.9995(4) 0.38500(17) 0.4449(3)
H21G H 0.9585 0.3753 0.3945
C34G C 1.0304(4) 0.42656(18) 0.4523(4)
H22G H 1.0105 0.4442 0.4055
C35G C 1.1125(5) 0.41719(19) 0.5905(4)
H23G H 1.1490 0.4283 0.6416
C36G C 1.0864(4) 0.37514(17) 0.5873(3)
H24G H 1.1066 0.3582 0.6351
O17 O 0.5000 0.3720(2) 0.2500
O18 O 0.5000 0.4613(4) 0.2500
loop_
_geom_bond_atom_site_label_1
_geom_bond_atom_site_label_2
_geom_bond_site_symmetry_1
_geom_bond_site_symmetry_2
Nd1 O1 1_555 1_555
Nd2 O1 1_555 1_555
Br1 Cu1 1_555 1_555
Cu1 N1 1_555 1_555
Cu2 N2 1_555 1_555
O1 C1 1_555 1_555
O2 Nd1 1_555 1_555
O3 Nd2 1_555 1_555
O4 Nd1 1_555 1_555
O5 Nd2 1_555 1_555
O6 Nd1 1_555 1_555
O7 Nd1 1_555 1_555
O8 Nd2 1_555 1_555
O9 Nd1 1_555 1_555
O10 Nd2 1_555 1_555
O11 C25 1_555 1_555
O12 Nd1 1_555 1_555
O13 C31 1_555 1_555
O14 Nd1 1_555 1_555
O15 Nd1 1_555 1_555
H1 O15 1_555 1_555
H2 O15 1_555 1_555
O16 Nd2 1_555 1_555
H3 O16 1_555 1_555
H4 O16 1_555 1_555
N1 C16 1_555 1_555
N2 C22 1_555 1_555
N3 C28 1_555 1_555
N4 C34 1_555 1_555
C1 O2 1_555 1_555
C2 O3 1_555 1_555
C3 C2 1_555 1_555
C4 C1 1_555 1_555
C5 C4 1_555 1_555
H5 C5 1_555 1_555
C6 C5 1_555 1_555
H6 C6 1_555 1_555
C7 O4 1_555 1_555
C8 O6 1_555 1_555
C9 C8 1_555 1_555
C10 C7 1_555 1_555
C11 C10 1_555 1_555
H7 C11 1_555 1_555
C12 C11 1_555 1_555
H8 C12 1_555 1_555
C13 O7 1_555 1_555
C14 C13 1_555 1_555
C15 C14 1_555 1_555
H9 C15 1_555 1_555
C16 C15 1_555 1_555
H10 C16 1_555 1_555
C17 N1 1_555 1_555
H11 C17 1_555 1_555
C18 C14 1_555 1_555
H12 C18 1_555 1_555
C19 O9 1_555 1_555
C20 C19 1_555 1_555
C21 C20 1_555 1_555
H13 C21 1_555 1_555
C22 C21 1_555 1_555
H14 C22 1_555 1_555
C23 N2 1_555 1_555
H15 C23 1_555 1_555
C24 C20 1_555 1_555
H16 C24 1_555 1_555
C25 O12 1_555 1_555
C26 C25 1_555 1_555
C27 C26 1_555 1_555
H17 C27 1_555 1_555
C28 C27 1_555 1_555
H18 C28 1_555 1_555
C29 N3 1_555 1_555
H19 C29 1_555 1_555
C30 C26 1_555 1_555
H20 C30 1_555 1_555
C31 O14 1_555 1_555
C32 C31 1_555 1_555
C33 C32 1_555 1_555
H21 C33 1_555 1_555
C34 C33 1_555 1_555
H22 C34 1_555 1_555
C35 N4 1_555 1_555
H23 C35 1_555 1_555
C36 C32 1_555 1_555
H24 C36 1_555 1_555
Nd1A O1A 1_555 1_555
Nd1A_2 O4A 1_555 1_555
Nd1G O12G 1_555 1_555
Nd2A O1A 1_555 1_555
Nd2G O11 1_555 1_555
Nd2A_2 O4A 1_555 1_555
Br1C Cu2 1_555 1_555
Br1A Cu2B 1_555 1_555
Cu1C N4 1_555 1_555
Cu1D N4G 1_555 1_555
Cu1A N1A 1_555 1_555
Cu2B N3 1_555 1_555
Cu2C Br1 1_555 1_555
Cu2E N3G 1_555 1_555
Cu2A N2A 1_555 1_555
O1A C1A 1_555 1_555
O2A Nd1A 1_555 1_555
O3A C2 1_555 1_555
O4A C7A 1_555 1_555
O4A_2 Nd1A 1_555 1_555
O5A Nd2A_2 1_555 1_555
O5A_2 Nd2A 1_555 1_555
O6A C8 1_555 1_555
O6A_2 Nd1A 1_555 1_555
O7A Nd1A 1_555 1_555
O8A Nd2A 1_555 1_555
O9A Nd1A 1_555 1_555
O10A Nd2A 1_555 1_555
O11G Nd2 1_555 1_555
O11F Nd2A 1_555 1_555
O12G C25G 1_555 1_555
O12A Nd1A 1_555 1_555
O13G Nd2 1_555 1_555
O13F Nd2A 1_555 1_555
O14G Nd1G 1_555 1_555
O14A Nd1A 1_555 1_555
O15A Nd1A 1_555 1_555
H1A O15A 1_555 1_555
H2A O15A 1_555 1_555
O16A Nd2A 1_555 1_555
H3A O16A 1_555 1_555
H4A O16A 1_555 1_555
N1A C16A 1_555 1_555
N1C Cu1C 1_555 1_555
N2A C22A 1_555 1_555
N2B Cu2B 1_555 1_555
N3G C28G 1_555 1_555
N3B Cu2 1_555 1_555
N4G C34G 1_555 1_555
N4C Cu1 1_555 1_555
C1A O2A 1_555 1_555
C4A C3 1_555 1_555
C5A C6 1_555 1_555
H5A C5A 1_555 1_555
C7A O5A 1_555 1_555
C10A C9 1_555 1_555
C11A C12 1_555 1_555
H7A C11A 1_555 1_555
C13A O7A 1_555 1_555
C14A C13A 1_555 1_555
C15A C14A 1_555 1_555
H9A C15A 1_555 1_555
C16A C15A 1_555 1_555
H10A C16A 1_555 1_555
C17A N1A 1_555 1_555
H11A C17A 1_555 1_555
C18A C14A 1_555 1_555
H12A C18A 1_555 1_555
C19A O9A 1_555 1_555
C20A C19A 1_555 1_555
C21A C20A 1_555 1_555
H13A C21A 1_555 1_555
C22A C21A 1_555 1_555
H14A C22A 1_555 1_555
C23A N2A 1_555 1_555
H15A C23A 1_555 1_555
C24A C20A 1_555 1_555
H16A C24A 1_555 1_555
C25G O11G 1_555 1_555
C26G C25G 1_555 1_555
C27G C26G 1_555 1_555
H17G C27G 1_555 1_555
C28G C27G 1_555 1_555
H18G C28G 1_555 1_555
C29G N3G 1_555 1_555
H19G C29G 1_555 1_555
C30G C26G 1_555 1_555
H20G C30G 1_555 1_555
C31G O13G 1_555 1_555
C32G C31G 1_555 1_555
C33G C32G 1_555 1_555
H21G C33G 1_555 1_555
C34G C33G 1_555 1_555
H22G C34G 1_555 1_555
C35G N4G 1_555 1_555
H23G C35G 1_555 1_555
C36G C32G 1_555 1_555
H24G C36G 1_555 1_555
Nd2 O4 1_555 1_555
O5 C7 1_555 1_555
O8 C13 1_555 1_555
O10 C19 1_555 1_555
O13 Nd2G 1_555 1_555
C3 C4 1_555 1_555
C9 C10 1_555 1_555
C17 C18 1_555 1_555
C23 C24 1_555 1_555
C29 C30 1_555 1_555
C35 C36 1_555 1_555
Nd1A_2 O6A 1_555 1_555
Nd2A O3A 1_555 1_555
Nd2A O4A_2 1_555 1_555
Br1C Cu1C 1_555 1_555
O8A C13A 1_555 1_555
O10A C19A 1_555 1_555
O14G C31G 1_555 1_555
C1A C4A 1_555 1_555
C4A C5A 1_555 1_555
C7A C10A 1_555 1_555
C10A C11A 1_555 1_555
C17A C18A 1_555 1_555
C23A C24A 1_555 1_555
C29G C30G 1_555 1_555
C35G C36G 1_555 1_555

#END
