
#######################################################################
#
#                 Cambridge Crystallographic Data Centre
#                                CCDC 
#
#######################################################################
#
# If this CIF has been generated from an entry in the Cambridge 
# Structural Database, then it will include bibliographic, chemical, 
# crystal, experimental, refinement or atomic coordinate data resulting 
# from the CCDC's data processing and validation procedures.
#
#######################################################################

data_LAZNOR
_symmetry_cell_setting           monoclinic
_symmetry_space_group_name_H-M   'C 2/c'
_symmetry_Int_Tables_number      15
_space_group_name_Hall           '-C 2yn'
loop_
_symmetry_equiv_pos_site_id
_symmetry_equiv_pos_as_xyz
1 x,y,z
2 -x,y,1/2-z
3 1/2+x,1/2+y,z
4 1/2-x,1/2+y,1/2-z
5 -x,-y,-z
6 x,-y,1/2+z
7 1/2-x,1/2-y,-z
8 1/2+x,1/2-y,1/2+z
_cell_length_a                   15.1392(3)
_cell_length_b                   31.4410(6)
_cell_length_c                   16.7589(4)
_cell_angle_alpha                90
_cell_angle_beta                 108.327(2)
_cell_angle_gamma                90
_cell_volume                     7572.48
loop_
_atom_site_label
_atom_site_type_symbol
_atom_site_fract_x
_atom_site_fract_y
_atom_site_fract_z
Nd1 Nd 0.146854(15) 0.266841(7) 0.143098(14)
Nd2 Nd 0.358671(15) 0.238823(7) 0.364357(14)
Cu1 Cu 0.34913(7) 0.50458(2) 0.47478(7)
Cu2 Cu 0.32947(8) 0.01524(2) -0.01503(5)
Cl1 Cl 0.32022(16) 0.50854(6) 0.61884(13)
O1 O 0.3167(2) 0.28063(10) 0.2362(2)
O2 O 0.2627(2) 0.32379(12) 0.1296(2)
O3 O 0.4968(2) 0.24607(10) 0.3152(2)
O4 O 0.1857(2) 0.22628(10) 0.2733(2)
O5 O 0.2370(2) 0.18339(11) 0.3805(2)
O6 O 0.0046(2) 0.26284(10) 0.1854(2)
O7 O 0.1633(2) 0.32250(10) 0.2570(2)
O8 O 0.2490(2) 0.29538(10) 0.3815(2)
O9 O 0.2570(3) 0.21013(11) 0.1316(2)
O10 O 0.3423(2) 0.18272(10) 0.2552(2)
O11 O 0.0521(2) 0.32465(10) 0.0708(2)
O12 O -0.0287(2) 0.31147(10) -0.0620(2)
O13 O -0.0493(3) 0.20102(11) -0.0639(2)
O14 O 0.0424(3) 0.21253(11) 0.0665(2)
O15 O 0.1511(3) 0.26205(11) -0.0100(2)
H1 H 0.1901 0.2792 -0.0194
H2 H 0.0979 0.2656 -0.0461
O16 O 0.3560(3) 0.23674(12) 0.5155(2)
H3 H 0.4091 0.2313 0.5505
H4 H 0.3157 0.2195 0.5222
N1 N 0.2979(4) 0.45049(14) 0.4295(3)
N2 N 0.3375(4) 0.06769(14) 0.0475(3)
N3 N -0.1057(4) 0.46240(14) -0.0210(3)
N4 N 0.0894(4) 0.05825(14) 0.0255(3)
C1 C 0.3270(3) 0.31232(14) 0.1925(3)
C2 C 0.5000 0.26403(19) 0.2500
C3 C 0.5000 0.31229(19) 0.2500
C4 C 0.4168(3) 0.33548(14) 0.2202(3)
C5 C 0.4175(3) 0.37982(15) 0.2182(3)
H5 H 0.3622 0.3947 0.1954
C6 C 0.5000 0.4016(2) 0.2500
H6 H 0.5000 0.4312 0.2500
C7 C 0.1734(3) 0.19525(13) 0.3172(3)
C8 C 0.0000 0.24439(19) 0.2500
C9 C 0.0000 0.19593(19) 0.2500
C10 C 0.0825(3) 0.17283(14) 0.2869(3)
C11 C 0.0807(3) 0.12861(15) 0.2892(3)
H7 H 0.1346 0.1137 0.3175
C12 C 0.0000 0.1067(2) 0.2500
H8 H 0.0000 0.0771 0.2500
C13 C 0.2139(3) 0.32529(14) 0.3327(3)
C14 C 0.2384(3) 0.36976(14) 0.3669(3)
C15 C 0.2340(4) 0.40381(17) 0.3135(3)
H9 H 0.2098 0.4002 0.2556
C16 C 0.2654(5) 0.44279(18) 0.3462(4)
H10 H 0.2643 0.4650 0.3094
C17 C 0.2988(5) 0.41755(18) 0.4811(4)
H11 H 0.3192 0.4224 0.5388
C18 C 0.2712(4) 0.37720(16) 0.4530(3)
H12 H 0.2743 0.3552 0.4908
C19 C 0.3072(3) 0.18222(14) 0.1772(3)
C20 C 0.3245(3) 0.14257(15) 0.1320(3)
C21 C 0.3742(4) 0.10825(18) 0.1745(3)
H13 H 0.4044 0.1098 0.2321
C22 C 0.3785(5) 0.07145(19) 0.1303(4)
H14 H 0.4115 0.0483 0.1596
C23 C 0.2928(5) 0.10177(16) 0.0060(3)
H15 H 0.2666 0.1002 -0.0521
C24 C 0.2841(4) 0.13906(15) 0.0460(3)
H16 H 0.2512 0.1618 0.0152
C25 C -0.0013(3) 0.33509(15) 0.0009(3)
C26 C -0.0362(4) 0.38031(15) -0.0084(3)
C27 C -0.0045(5) 0.40865(17) 0.0572(4)
H17 H 0.0404 0.4004 0.1068
C28 C -0.0398(5) 0.4490(2) 0.0484(4)
H18 H -0.0170 0.4681 0.0925
C29 C -0.1345(5) 0.43514(17) -0.0853(4)
H19 H -0.1788 0.4442 -0.1345
C30 C -0.1014(4) 0.39441(16) -0.0815(3)
H20 H -0.1225 0.3764 -0.1277
C31 C 0.0059(3) 0.18926(15) 0.0047(3)
C32 C 0.0314(3) 0.14267(14) 0.0136(3)
C33 C 0.0871(4) 0.12601(16) 0.0889(3)
H21 H 0.1063 0.1430 0.1367
C34 C 0.1136(5) 0.08431(18) 0.0926(4)
H22 H 0.1503 0.0734 0.1439
C35 C 0.0330(4) 0.07426(16) -0.0465(4)
H23 H 0.0140 0.0566 -0.0933
C36 C 0.0018(4) 0.11583(16) -0.0545(3)
H24 H -0.0387 0.1255 -0.1053
Nd1A Nd 0.853146(15) 0.266841(7) 0.356902(14)
Nd1A_2 Nd -0.146854(15) 0.266841(7) 0.356902(14)
Nd1G Nd 0.646854(15) 0.233159(7) 0.643098(14)
Nd2A Nd 0.641329(15) 0.238823(7) 0.135643(14)
Nd2G Nd -0.141329(15) 0.261177(7) -0.135643(14)
Nd2A_2 Nd -0.358671(15) 0.238823(7) 0.135643(14)
Cu1C Cu 0.15087(7) 0.00458(2) 0.02522(7)
Cu1D Cu 0.65087(7) 0.49542(2) 0.52522(7)
Cu1A Cu 0.65087(7) 0.50458(2) 0.02522(7)
Cu2B Cu -0.17053(8) 0.51524(2) -0.01503(5)
Cu2C Cu 0.17053(8) 0.51524(2) 0.51503(5)
Cu2E Cu 0.32947(8) -0.01524(2) 0.48497(5)
Cu2A Cu 0.67053(8) 0.01524(2) 0.51503(5)
Cl1C Cl 0.17978(16) 0.00854(6) -0.11884(13)
Cl1A Cl -0.32022(16) 0.50854(6) -0.11884(13)
O1A O 0.6833(2) 0.28063(10) 0.2638(2)
O2A O 0.7373(2) 0.32379(12) 0.3704(2)
O3A O 0.5032(2) 0.24607(10) 0.1848(2)
O4A O -0.1857(2) 0.22628(10) 0.2267(2)
O4A_2 O 0.8143(2) 0.22628(10) 0.2267(2)
O5A O -0.2370(2) 0.18339(11) 0.1195(2)
O5A_2 O 0.7630(2) 0.18339(11) 0.1195(2)
O6A O -0.0046(2) 0.26284(10) 0.3146(2)
O6A_2 O 0.9954(2) 0.26284(10) 0.3146(2)
O7A O 0.8367(2) 0.32250(10) 0.2430(2)
O8A O 0.7510(2) 0.29538(10) 0.1185(2)
O9A O 0.7430(3) 0.21013(11) 0.3684(2)
O10A O 0.6577(2) 0.18272(10) 0.2448(2)
O11G O 0.5521(2) 0.17535(10) 0.5708(2)
O11A O 0.9479(2) 0.32465(10) 0.4292(2)
O12G O 0.4713(2) 0.18853(10) 0.4380(2)
O12F O 0.5287(2) 0.18853(10) 0.0620(2)
O13G O 0.4507(3) 0.29898(11) 0.4361(2)
O13F O 0.5493(3) 0.29898(11) 0.0639(2)
O14G O 0.5424(3) 0.28747(11) 0.5665(2)
O14A O 0.9576(3) 0.21253(11) 0.4335(2)
O15A O 0.8489(3) 0.26205(11) 0.5100(2)
H1A H 0.8099 0.2792 0.5194
H2A H 0.9021 0.2656 0.5461
O16A O 0.6440(3) 0.23674(12) -0.0155(2)
H3A H 0.5909 0.2313 -0.0505
H4A H 0.6843 0.2195 -0.0222
N1A N 0.7021(4) 0.45049(14) 0.0705(3)
N1C N 0.2021(4) -0.04951(14) 0.0705(3)
N2A N 0.6625(4) 0.06769(14) 0.4525(3)
N2B N -0.1625(4) 0.56769(14) 0.0475(3)
N3G N 0.3943(4) 0.03760(14) 0.4790(3)
N3B N 0.3943(4) -0.03760(14) -0.0210(3)
N4G N 0.5894(4) 0.44175(14) 0.5255(3)
N4C N 0.4106(4) 0.55825(14) 0.4745(3)
C1A C 0.6730(3) 0.31232(14) 0.3075(3)
C4A C 0.5832(3) 0.33548(14) 0.2798(3)
C5A C 0.5825(3) 0.37982(15) 0.2818(3)
H5A H 0.6378 0.3947 0.3046
C7A C -0.1734(3) 0.19525(13) 0.1828(3)
C10A C -0.0825(3) 0.17283(14) 0.2131(3)
C11A C -0.0807(3) 0.12861(15) 0.2108(3)
H7A H -0.1346 0.1137 0.1825
C13A C 0.7861(3) 0.32529(14) 0.1673(3)
C14A C 0.7616(3) 0.36976(14) 0.1331(3)
C15A C 0.7660(4) 0.40381(17) 0.1865(3)
H9A H 0.7902 0.4002 0.2444
C16A C 0.7346(5) 0.44279(18) 0.1538(4)
H10A H 0.7357 0.4650 0.1906
C17A C 0.7012(5) 0.41755(18) 0.0189(4)
H11A H 0.6808 0.4224 -0.0388
C18A C 0.7288(4) 0.37720(16) 0.0470(3)
H12A H 0.7257 0.3552 0.0092
C19A C 0.6928(3) 0.18222(14) 0.3228(3)
C20A C 0.6755(3) 0.14257(15) 0.3680(3)
C21A C 0.6258(4) 0.10825(18) 0.3255(3)
H13A H 0.5956 0.1098 0.2679
C22A C 0.6215(5) 0.07145(19) 0.3697(4)
H14A H 0.5885 0.0483 0.3404
C23A C 0.7072(5) 0.10177(16) 0.4940(3)
H15A H 0.7334 0.1002 0.5521
C24A C 0.7159(4) 0.13906(15) 0.4540(3)
H16A H 0.7488 0.1618 0.4848
C25G C 0.4987(3) 0.16491(15) 0.5009(3)
C26G C 0.4638(4) 0.11969(15) 0.4916(3)
C27G C 0.4955(5) 0.09135(17) 0.5572(4)
H17G H 0.5404 0.0996 0.6068
C28G C 0.4602(5) 0.0510(2) 0.5484(4)
H18G H 0.4830 0.0319 0.5925
C29G C 0.3655(5) 0.06486(17) 0.4147(4)
H19G H 0.3212 0.0558 0.3655
C30G C 0.3986(4) 0.10559(16) 0.4185(3)
H20G H 0.3775 0.1236 0.3723
C31G C 0.5059(3) 0.31074(15) 0.5047(3)
C32G C 0.5314(3) 0.35733(14) 0.5136(3)
C33G C 0.5871(4) 0.37399(16) 0.5889(3)
H21G H 0.6063 0.3570 0.6367
C34G C 0.6136(5) 0.41569(18) 0.5926(4)
H22G H 0.6503 0.4266 0.6439
C35G C 0.5330(4) 0.42574(16) 0.4535(4)
H23G H 0.5140 0.4434 0.4067
C36G C 0.5018(4) 0.38417(16) 0.4455(3)
H24G H 0.4613 0.3745 0.3947
O17 O 0.0000 0.3706(2) 0.2500
O18 O 0.0000 0.4650(5) 0.2500
O19? O 0.0000 0.4190(3) 0.2500
loop_
_geom_bond_atom_site_label_1
_geom_bond_atom_site_label_2
_geom_bond_site_symmetry_1
_geom_bond_site_symmetry_2
Nd1 O1 1_555 1_555
Nd2 O1 1_555 1_555
Cu1 Cl1 1_555 1_555
Cu2 N2 1_555 1_555
Cl1 Cu2C 1_555 1_555
O1 C1 1_555 1_555
O2 Nd1 1_555 1_555
O3 Nd2 1_555 1_555
O4 Nd1 1_555 1_555
O5 Nd2 1_555 1_555
O6 Nd1 1_555 1_555
O7 Nd1 1_555 1_555
O8 Nd2 1_555 1_555
O9 Nd1 1_555 1_555
O10 Nd2 1_555 1_555
O11 Nd1 1_555 1_555
O12 C25 1_555 1_555
O13 C31 1_555 1_555
O14 Nd1 1_555 1_555
O15 Nd1 1_555 1_555
H1 O15 1_555 1_555
H2 O15 1_555 1_555
O16 Nd2 1_555 1_555
H3 O16 1_555 1_555
H4 O16 1_555 1_555
N1 Cu1 1_555 1_555
N2 C22 1_555 1_555
N3 C28 1_555 1_555
N4 C34 1_555 1_555
C1 O2 1_555 1_555
C2 O3 1_555 1_555
C3 C2 1_555 1_555
C4 C1 1_555 1_555
C5 C4 1_555 1_555
H5 C5 1_555 1_555
C6 C5 1_555 1_555
H6 C6 1_555 1_555
C7 O4 1_555 1_555
C8 O6 1_555 1_555
C9 C8 1_555 1_555
C10 C7 1_555 1_555
C11 C10 1_555 1_555
H7 C11 1_555 1_555
C12 C11 1_555 1_555
H8 C12 1_555 1_555
C13 O7 1_555 1_555
C14 C13 1_555 1_555
C15 C14 1_555 1_555
H9 C15 1_555 1_555
C16 N1 1_555 1_555
H10 C16 1_555 1_555
C17 N1 1_555 1_555
H11 C17 1_555 1_555
C18 C14 1_555 1_555
H12 C18 1_555 1_555
C19 O9 1_555 1_555
C20 C19 1_555 1_555
C21 C20 1_555 1_555
H13 C21 1_555 1_555
C22 C21 1_555 1_555
H14 C22 1_555 1_555
C23 N2 1_555 1_555
H15 C23 1_555 1_555
C24 C20 1_555 1_555
H16 C24 1_555 1_555
C25 O11 1_555 1_555
C26 C25 1_555 1_555
C27 C26 1_555 1_555
H17 C27 1_555 1_555
C28 C27 1_555 1_555
H18 C28 1_555 1_555
C29 N3 1_555 1_555
H19 C29 1_555 1_555
C30 C26 1_555 1_555
H20 C30 1_555 1_555
C31 O14 1_555 1_555
C32 C31 1_555 1_555
C33 C32 1_555 1_555
H21 C33 1_555 1_555
C34 C33 1_555 1_555
H22 C34 1_555 1_555
C35 N4 1_555 1_555
H23 C35 1_555 1_555
C36 C32 1_555 1_555
H24 C36 1_555 1_555
Nd1A O1A 1_555 1_555
Nd1A_2 O4A 1_555 1_555
Nd1G O11G 1_555 1_555
Nd2A O1A 1_555 1_555
Nd2G O12 1_555 1_555
Nd2A_2 O4A 1_555 1_555
Cu1C N4 1_555 1_555
Cu1D N4G 1_555 1_555
Cu1A N1A 1_555 1_555
Cu2B N3 1_555 1_555
Cu2E N3G 1_555 1_555
Cu2A N2A 1_555 1_555
Cl1C Cu2 1_555 1_555
Cl1A Cu2B 1_555 1_555
O1A C1A 1_555 1_555
O2A Nd1A 1_555 1_555
O3A C2 1_555 1_555
O4A C7A 1_555 1_555
O4A_2 Nd1A 1_555 1_555
O5A Nd2A_2 1_555 1_555
O5A_2 Nd2A 1_555 1_555
O6A C8 1_555 1_555
O6A_2 Nd1A 1_555 1_555
O7A Nd1A 1_555 1_555
O8A Nd2A 1_555 1_555
O9A Nd1A 1_555 1_555
O10A Nd2A 1_555 1_555
O11G C25G 1_555 1_555
O11A Nd1A 1_555 1_555
O12G Nd2 1_555 1_555
O12F Nd2A 1_555 1_555
O13G Nd2 1_555 1_555
O13F Nd2A 1_555 1_555
O14G Nd1G 1_555 1_555
O14A Nd1A 1_555 1_555
O15A Nd1A 1_555 1_555
H1A O15A 1_555 1_555
H2A O15A 1_555 1_555
O16A Nd2A 1_555 1_555
H3A O16A 1_555 1_555
H4A O16A 1_555 1_555
N1A C16A 1_555 1_555
N1C Cu1C 1_555 1_555
N2A C22A 1_555 1_555
N2B Cu2B 1_555 1_555
N3G C28G 1_555 1_555
N3B Cu2 1_555 1_555
N4G C34G 1_555 1_555
N4C Cu1 1_555 1_555
C1A O2A 1_555 1_555
C4A C3 1_555 1_555
C5A C6 1_555 1_555
H5A C5A 1_555 1_555
C7A O5A 1_555 1_555
C10A C9 1_555 1_555
C11A C12 1_555 1_555
H7A C11A 1_555 1_555
C13A O7A 1_555 1_555
C14A C13A 1_555 1_555
C15A C14A 1_555 1_555
H9A C15A 1_555 1_555
C16A C15A 1_555 1_555
H10A C16A 1_555 1_555
C17A N1A 1_555 1_555
H11A C17A 1_555 1_555
C18A C14A 1_555 1_555
H12A C18A 1_555 1_555
C19A O9A 1_555 1_555
C20A C19A 1_555 1_555
C21A C20A 1_555 1_555
H13A C21A 1_555 1_555
C22A C21A 1_555 1_555
H14A C22A 1_555 1_555
C23A N2A 1_555 1_555
H15A C23A 1_555 1_555
C24A C20A 1_555 1_555
H16A C24A 1_555 1_555
C25G O12G 1_555 1_555
C26G C25G 1_555 1_555
C27G C26G 1_555 1_555
H17G C27G 1_555 1_555
C28G C27G 1_555 1_555
H18G C28G 1_555 1_555
C29G N3G 1_555 1_555
H19G C29G 1_555 1_555
C30G C26G 1_555 1_555
H20G C30G 1_555 1_555
C31G O13G 1_555 1_555
C32G C31G 1_555 1_555
C33G C32G 1_555 1_555
H21G C33G 1_555 1_555
C34G C33G 1_555 1_555
H22G C34G 1_555 1_555
C35G N4G 1_555 1_555
H23G C35G 1_555 1_555
C36G C32G 1_555 1_555
H24G C36G 1_555 1_555
Nd2 O4 1_555 1_555
O5 C7 1_555 1_555
O8 C13 1_555 1_555
O10 C19 1_555 1_555
O13 Nd2G 1_555 1_555
C3 C4 1_555 1_555
C9 C10 1_555 1_555
C15 C16 1_555 1_555
C17 C18 1_555 1_555
C23 C24 1_555 1_555
C29 C30 1_555 1_555
C35 C36 1_555 1_555
Nd1A_2 O6A 1_555 1_555
Nd2A O3A 1_555 1_555
Nd2A O4A_2 1_555 1_555
Cu1C Cl1C 1_555 1_555
O8A C13A 1_555 1_555
O10A C19A 1_555 1_555
O14G C31G 1_555 1_555
C1A C4A 1_555 1_555
C4A C5A 1_555 1_555
C7A C10A 1_555 1_555
C10A C11A 1_555 1_555
C17A C18A 1_555 1_555
C23A C24A 1_555 1_555
C29G C30G 1_555 1_555
C35G C36G 1_555 1_555

#END
