
#######################################################################
#
#                 Cambridge Crystallographic Data Centre
#                                CCDC 
#
#######################################################################
#
# If this CIF has been generated from an entry in the Cambridge 
# Structural Database, then it will include bibliographic, chemical, 
# crystal, experimental, refinement or atomic coordinate data resulting 
# from the CCDC's data processing and validation procedures.
#
#######################################################################

data_LAZPAF
_symmetry_cell_setting           triclinic
_symmetry_space_group_name_H-M   'P -1'
_symmetry_Int_Tables_number      2
_space_group_name_Hall           '-P 1'
loop_
_symmetry_equiv_pos_site_id
_symmetry_equiv_pos_as_xyz
1 x,y,z
2 -x,-y,-z
_cell_length_a                   11.4105(7)
_cell_length_b                   15.4575(12)
_cell_length_c                   18.0044(9)
_cell_angle_alpha                69.975(6)
_cell_angle_beta                 80.507(5)
_cell_angle_gamma                68.549(6)
_cell_volume                     2774.06
loop_
_atom_site_label
_atom_site_type_symbol
_atom_site_fract_x
_atom_site_fract_y
_atom_site_fract_z
Pr1 Pr 0.82123(3) 0.40875(2) 0.552150(18)
Pr2 Pr 0.46817(3) 0.62982(2) 0.516018(17)
Pr3 Pr 0.58503(3) 0.85498(2) 0.512767(17)
I1 I -0.30006(4) 0.78074(3) 0.95874(3)
I2 I 0.10944(5) 0.72713(4) 1.01114(3)
I3 I 0.0000 0.5000 1.0000
I4 I 0.80773(4) 1.01620(3) -0.02553(3)
Cu1 Cu -0.14637(10) 0.82357(8) 1.02739(5)
Cu2 Cu -0.05461(11) 0.70798(10) 0.93560(6)
Cu3 Cu 0.28808(14) 0.41762(9) 1.02197(6)
Cu4 Cu 0.95457(10) 1.07774(9) 0.03799(6)
Cu5 Cu 0.5000 1.0000 0.0000
O1 O 0.6302(3) 0.4937(3) 0.4810(2)
H1 H 0.6560 0.5200 0.4256
O2 O 0.2939(4) 0.7090(3) 0.4266(2)
O3 O 0.1179(4) 0.7712(3) 0.3640(3)
O4 O 0.4049(4) 0.8053(3) 0.4962(2)
O5 O 0.2035(4) 0.8897(3) 0.5179(2)
O6 O 0.4191(4) 1.0001(3) 0.4445(2)
O7 O 0.3142(4) 1.1450(3) 0.3683(3)
O8 O 0.9643(4) 0.6209(3) 0.4294(2)
O9 O 0.8554(4) 0.5299(3) 0.4237(3)
O10 O 0.1051(4) 0.6720(3) 0.5526(3)
O11 O 0.2834(4) 0.6543(3) 0.6003(3)
O12 O 0.7099(5) 0.3836(3) 0.6955(3)
O13 O 0.5411(5) 0.4995(3) 0.6372(3)
O14 O 0.5751(4) 1.1219(3) 0.3788(2)
O15 O 0.6880(4) 0.9614(3) 0.4177(3)
O16 O 0.6139(4) 0.6762(3) 0.5822(2)
O17 O 0.7904(4) 0.5486(3) 0.5963(2)
O18 O 0.5601(4) 0.6906(3) 0.3826(2)
O19 O 0.6274(4) 0.8030(3) 0.3939(2)
O20 O 0.8188(4) 0.7630(3) 0.5161(3)
H2 H 0.8601 0.7222 0.4914
H3 H 0.8555 0.8036 0.5116
N1 N 0.8495(5) 0.7569(4) 0.1467(3)
N2 N -0.0064(6) 0.7294(4) 0.8187(3)
N3 N 0.3894(6) 0.4345(5) 0.9201(3)
N4 N 0.8627(5) 1.0649(5) 0.1464(3)
N5 N 0.7091(6) 0.5831(4) 0.8681(3)
N6 N 0.5249(5) 0.9279(4) 0.1091(3)
C1 C 0.2142(5) 0.7803(4) 0.3794(3)
C2 C 0.2964(5) 0.8685(4) 0.4733(3)
C3 C 0.3462(5) 1.0545(4) 0.3881(3)
C4 C 0.2417(5) 0.8737(4) 0.3411(3)
C5 C 0.2825(5) 0.9163(4) 0.3846(3)
C6 C 0.3003(5) 1.0058(4) 0.3460(3)
C7 C 0.2789(6) 1.0507(4) 0.2653(4)
H6 H 0.2890 1.1113 0.2403
C8 C 0.2430(7) 1.0067(5) 0.2221(4)
H7 H 0.2314 1.0361 0.1681
C9 C 0.2247(6) 0.9187(4) 0.2604(4)
H8 H 0.2004 0.8886 0.2318
C10 C 0.9016(5) 0.5956(4) 0.3939(3)
C11 C 0.8838(5) 0.6519(4) 0.3063(3)
C12 C 0.9106(7) 0.7375(5) 0.2735(4)
H9 H 0.9410 0.7616 0.3042
C13 C 0.8914(8) 0.7876(5) 0.1931(4)
H10 H 0.9092 0.8456 0.1714
C14 C 0.8244(7) 0.6731(5) 0.1791(4)
H11 H 0.7955 0.6503 0.1467
C15 C 0.8393(6) 0.6191(5) 0.2578(4)
H12 H 0.8199 0.5617 0.2779
C16 C 0.1649(6) 0.6767(4) 0.6014(4)
C17 C 0.0977(6) 0.7054(4) 0.6729(4)
C18 C -0.0203(6) 0.7000(5) 0.6979(4)
H13 H -0.0673 0.6891 0.6666
C19 C -0.0676(7) 0.7115(6) 0.7716(4)
H14 H -0.1468 0.7063 0.7891
C20 C 0.1033(7) 0.7424(6) 0.7902(5)
H15 H 0.1449 0.7598 0.8200
C21 C 0.1577(7) 0.7312(6) 0.7188(4)
H16 H 0.2346 0.7408 0.7012
C22 C 0.5991(6) 0.4383(4) 0.6977(4)
C23 C 0.5270(7) 0.4365(5) 0.7767(3)
C24 C 0.4020(7) 0.4922(5) 0.7792(4)
H17 H 0.3615 0.5317 0.7325
C25 C 0.3369(8) 0.4894(6) 0.8508(4)
H18 H 0.2522 0.5276 0.8511
C26 C 0.5128(8) 0.3810(6) 0.9170(4)
H19 H 0.5521 0.3430 0.9644
C27 C 0.5830(7) 0.3798(6) 0.8476(4)
H20 H 0.6676 0.3411 0.8484
C28 C 0.6600(6) 1.0461(4) 0.3708(3)
C29 C 0.7346(6) 1.0564(5) 0.2926(4)
C30 C 0.8586(6) 0.9964(5) 0.2876(4)
H21 H 0.9007 0.9519 0.3326
C31 C 0.9172(6) 1.0056(6) 0.2130(4)
H22 H 1.0012 0.9670 0.2095
C32 C 0.7430(7) 1.1206(5) 0.1522(4)
H23 H 0.7023 1.1620 0.1059
C33 C 0.6768(6) 1.1197(5) 0.2236(4)
H24 H 0.5941 1.1613 0.2252
C34 C 0.7049(5) 0.6093(4) 0.6224(3)
C35 C 0.7074(5) 0.6024(4) 0.7076(3)
C36 C 0.6103(7) 0.6623(5) 0.7428(4)
H25 H 0.5429 0.7100 0.7136
C37 C 0.6148(7) 0.6502(6) 0.8222(4)
H26 H 0.5487 0.6910 0.8452
C38 C 0.8024(7) 0.5247(5) 0.8337(4)
H27 H 0.8689 0.4771 0.8638
C39 C 0.8028(6) 0.5331(5) 0.7550(4)
H28 H 0.8690 0.4908 0.7334
C40 C 0.5866(5) 0.7674(4) 0.3561(3)
C41 C 0.5655(6) 0.8234(4) 0.2688(3)
C42 C 0.5900(7) 0.9097(5) 0.2346(4)
H29 H 0.6212 0.9345 0.2644
C43 C 0.5679(7) 0.9591(5) 0.1554(4)
H30 H 0.5842 1.0177 0.1334
C44 C 0.5022(7) 0.8434(5) 0.1422(4)
H31 H 0.4728 0.8197 0.1106
C45 C 0.5202(6) 0.7896(5) 0.2209(4)
H32 H 0.5024 0.7316 0.2416
Pr1A Pr 0.17877(3) 0.59125(2) 0.447850(18)
Pr1A_2 Pr 1.17877(3) 0.59125(2) 0.447850(18)
Pr1_2 Pr 0.82123(3) 1.40875(2) 0.552150(18)
Pr1_3 Pr 0.82123(3) 1.40875(2) -0.447850(18)
Pr1A_3 Pr 0.17877(3) 1.59125(2) -0.552150(18)
Pr2A Pr 0.53183(3) 1.37018(2) -0.516018(17)
Pr2A_2 Pr 0.53183(3) 0.37018(2) 0.483982(17)
Pr2A_3 Pr 0.53183(3) 1.37018(2) 0.483982(17)
Pr3A Pr 0.41497(3) 1.14502(2) -0.512767(17)
Pr3A_2 Pr 0.41497(3) 1.14502(2) 0.487233(17)
I1A I 0.30006(4) 0.21926(3) 1.04126(3)
I1A_2 I 1.30006(4) 1.21926(3) -0.95874(3)
I1_2 I 0.69994(4) 1.78074(3) -1.04126(3)
I2A I 0.89056(5) 1.27287(4) -0.01114(3)
I2A_2 I 0.89056(5) 1.27287(4) -1.01114(3)
I2A_3 I -0.10944(5) 0.27287(4) 0.98886(3)
I3_2 I 1.0000 1.5000 -1.0000
I4A I 1.19227(4) 0.98380(3) 0.02553(3)
I4_2 I -0.19227(4) 1.01620(3) 0.97447(3)
I4A_2 I 0.19227(4) 0.98380(3) 1.02553(3)
I4A_3 I 0.19227(4) -0.01620(3) 1.02553(3)
Cu1A Cu 0.14637(10) 0.17643(8) 0.97261(5)
Cu1_2 Cu 0.85363(10) 0.82357(8) 0.02739(5)
Cu1A_2 Cu 1.14637(10) 0.17643(8) 0.97261(5)
Cu1A_3 Cu 1.14637(10) 1.17643(8) -0.02739(5)
Cu2A Cu 1.05461(11) 1.29202(10) -0.93560(6)
Cu2A_2 Cu 0.05461(11) 0.29202(10) 1.06440(6)
Cu2A_3 Cu 1.05461(11) 1.29202(10) 0.06440(6)
Cu3A Cu 0.71192(14) 1.58238(9) -1.02197(6)
Cu3A_2 Cu -0.28808(14) 0.58238(9) 0.97803(6)
Cu3A_3 Cu 0.71192(14) 0.58238(9) 0.97803(6)
Cu3_2 Cu 0.28808(14) 1.41762(9) -0.97803(6)
Cu4A Cu 0.04543(10) 0.92226(9) 0.96201(6)
Cu4A_2 Cu 1.04543(10) 0.92226(9) -0.03799(6)
O1A O 0.3698(3) 0.5063(3) 0.5190(2)
O1A_2 O 0.3698(3) 1.5063(3) -0.4810(2)
O1_2 O 0.6302(3) 1.4937(3) -0.5190(2)
H1A H 0.3440 0.4800 0.5744
H1A_2 H 0.3440 1.4800 -0.4256
H1_2 H 0.6560 1.5200 -0.5744
O2A O 0.7061(4) 1.2910(3) 0.5734(2)
O2A_2 O 0.7061(4) 0.2910(3) 0.5734(2)
O2A_3 O 0.7061(4) 1.2910(3) -0.4266(2)
O3A O 0.8821(4) 1.2288(3) 0.6360(3)
O3A_2 O 0.8821(4) 0.2288(3) 0.6360(3)
O4A O 0.5951(4) 1.1947(3) 0.5038(2)
O4A_2 O 0.5951(4) 1.1947(3) -0.4962(2)
O5A O 0.7965(4) 1.1103(3) 0.4821(2)
O6A O 0.5809(4) 0.9999(3) 0.5555(2)
O6_2 O 0.4191(4) 1.0001(3) -0.5555(2)
O6A_2 O 0.5809(4) 0.9999(3) -0.4445(2)
O7A O 0.6858(4) 0.8550(3) 0.6317(3)
O7_2 O 0.3142(4) 1.1450(3) -0.6317(3)
O8A O 1.0357(4) 0.3791(3) 0.5706(2)
O8_2 O -0.0357(4) 0.6209(3) 0.4294(2)
O9A O 1.1446(4) 0.4701(3) 0.5763(3)
O9A_2 O 0.1446(4) 0.4701(3) 0.5763(3)
O10A O 0.8949(4) 1.3280(3) -0.5526(3)
O10A_2 O 0.8949(4) 0.3280(3) 0.4474(3)
O11A O 0.7166(4) 1.3457(3) -0.6003(3)
O12A O 0.2901(5) 1.6164(3) -0.6955(3)
O12A_2 O 0.2901(5) 0.6164(3) 0.3045(3)
O13A O 0.4589(5) 1.5005(3) -0.6372(3)
O14A O 0.4249(4) 0.8781(3) 0.6212(2)
O14_2 O 0.5751(4) 1.1219(3) -0.6212(2)
O15A O 0.3120(4) 1.0386(3) 0.5823(3)
O15A_2 O 0.3120(4) 1.0386(3) -0.4177(3)
O16A O 0.3861(4) 1.3238(3) -0.5822(2)
O17A O 0.2096(4) 1.4514(3) -0.5963(2)
O17A_2 O 0.2096(4) 0.4514(3) 0.4037(2)
O18A O 0.4399(4) 1.3094(3) -0.3826(2)
O19A O 0.3726(4) 1.1970(3) -0.3939(2)
O20A O 0.1812(4) 1.2370(3) -0.5161(3)
H2A H 0.1399 1.2778 -0.4914
H3A H 0.1445 1.1964 -0.5116
N1A N 1.1505(5) 0.2431(4) 0.8533(3)
N1_2 N -0.1505(5) 0.7569(4) 1.1467(3)
N1A_2 N 0.1505(5) 0.2431(4) 0.8533(3)
N2A N 1.0064(6) 1.2706(4) -0.8187(3)
N3A N 0.6106(6) 1.5655(5) -0.9201(3)
N4A N 0.1373(5) 0.9351(5) 0.8536(3)
N5A N 0.2909(6) 1.4169(4) -0.8681(3)
N5A_2 N 0.2909(6) 0.4169(4) 1.1319(3)
N5_2 N 0.7091(6) 1.5831(4) -1.1319(3)
N6A N 0.4751(5) 1.0721(4) -0.1091(3)
C1A C 0.7858(5) 1.2197(4) 0.6206(3)
C2A C 0.7036(5) 1.1315(4) 0.5267(3)
C3A C 0.6538(5) 0.9455(4) 0.6119(3)
C4A C 0.7583(5) 1.1263(4) 0.6589(3)
C5A C 0.7175(5) 1.0837(4) 0.6154(3)
C6A C 0.6997(5) 0.9942(4) 0.6540(3)
C7A C 0.7211(6) 0.9493(4) 0.7347(4)
H6A H 0.7110 0.8887 0.7597
C8A C 0.7570(7) 0.9933(5) 0.7779(4)
H7A H 0.7686 0.9639 0.8319
C9A C 0.7753(6) 1.0813(4) 0.7396(4)
H8A H 0.7996 1.1114 0.7682
C10A C 1.0984(5) 0.4044(4) 0.6061(3)
C11A C 1.1162(5) 0.3481(4) 0.6937(3)
C12A C 1.0894(7) 0.2625(5) 0.7265(4)
H9A H 1.0590 0.2384 0.6958
C13A C 1.1086(8) 0.2124(5) 0.8069(4)
H10A H 1.0908 0.1544 0.8286
C14A C 1.1756(7) 0.3269(5) 0.8209(4)
H11A H 1.2045 0.3497 0.8533
C15A C 1.1607(6) 0.3809(5) 0.7422(4)
H12A H 1.1801 0.4383 0.7221
C16A C 0.8351(6) 1.3233(4) -0.6014(4)
C17A C 0.9023(6) 1.2946(4) -0.6729(4)
C18A C 1.0203(6) 1.3000(5) -0.6979(4)
H13A H 1.0673 1.3109 -0.6666
C19A C 1.0676(7) 1.2885(6) -0.7716(4)
H14A H 1.1468 1.2937 -0.7891
C20A C 0.8967(7) 1.2576(6) -0.7902(5)
H15A H 0.8551 1.2402 -0.8200
C21A C 0.8423(7) 1.2688(6) -0.7188(4)
H16A H 0.7654 1.2592 -0.7012
C22A C 0.4009(6) 1.5617(4) -0.6977(4)
C23A C 0.4730(7) 1.5635(5) -0.7767(3)
C24A C 0.5980(7) 1.5078(5) -0.7792(4)
H17A H 0.6385 1.4683 -0.7325
C25A C 0.6631(8) 1.5106(6) -0.8508(4)
H18A H 0.7478 1.4724 -0.8511
C26A C 0.4872(8) 1.6190(6) -0.9170(4)
H19A H 0.4479 1.6570 -0.9644
C27A C 0.4170(7) 1.6202(6) -0.8476(4)
H20A H 0.3324 1.6589 -0.8484
C28A C 0.3400(6) 0.9539(4) 0.6292(3)
C29A C 0.2654(6) 0.9436(5) 0.7074(4)
C30A C 0.1414(6) 1.0036(5) 0.7124(4)
H21A H 0.0993 1.0481 0.6674
C31A C 0.0828(6) 0.9944(6) 0.7870(4)
H22A H -0.0012 1.0330 0.7905
C32A C 0.2570(7) 0.8794(5) 0.8478(4)
H23A H 0.2977 0.8380 0.8941
C33A C 0.3232(6) 0.8803(5) 0.7764(4)
H24A H 0.4059 0.8387 0.7748
C34A C 0.2951(5) 1.3907(4) -0.6224(3)
C35A C 0.2926(5) 1.3976(4) -0.7076(3)
C36A C 0.3897(7) 1.3377(5) -0.7428(4)
H25A H 0.4571 1.2900 -0.7136
C37A C 0.3852(7) 1.3498(6) -0.8222(4)
H26A H 0.4513 1.3090 -0.8452
C38A C 0.1976(7) 1.4753(5) -0.8337(4)
H27A H 0.1311 1.5229 -0.8638
C39A C 0.1972(6) 1.4669(5) -0.7550(4)
H28A H 0.1310 1.5092 -0.7334
C40A C 0.4134(5) 1.2326(4) -0.3561(3)
C41A C 0.4345(6) 1.1766(4) -0.2688(3)
C42A C 0.4100(7) 1.0903(5) -0.2346(4)
H29A H 0.3788 1.0655 -0.2644
C43A C 0.4321(7) 1.0409(5) -0.1554(4)
H30A H 0.4158 0.9823 -0.1334
C44A C 0.4978(7) 1.1566(5) -0.1422(4)
H31A H 0.5272 1.1803 -0.1106
C45A C 0.4798(6) 1.2104(5) -0.2209(4)
H32A H 0.4976 1.2684 -0.2416
O21 O 0.9409(5) 0.8981(4) 0.5011(4)
H4 H 1.0150 0.8956 0.5060
H5 H 0.8999 0.9580 0.4959
loop_
_geom_bond_atom_site_label_1
_geom_bond_atom_site_label_2
_geom_bond_site_symmetry_1
_geom_bond_site_symmetry_2
Pr1 O1 1_555 1_555
Pr2 O1 1_555 1_555
Pr3 O4 1_555 1_555
I1 Cu1 1_555 1_555
I2 Cu1 1_555 1_555
I3 Cu2 1_555 1_555
I4 Cu4 1_555 1_555
Cu1 I4_2 1_555 1_555
Cu2 I1 1_555 1_555
Cu3 I3 1_555 1_555
Cu4 N4 1_555 1_555
Cu5 N6 1_555 1_555
O1 H1 1_555 1_555
O2 Pr2 1_555 1_555
O3 C1 1_555 1_555
O4 Pr2 1_555 1_555
O5 C2 1_555 1_555
O6 Pr3 1_555 1_555
O7 C3 1_555 1_555
O8 C10 1_555 1_555
O9 Pr1 1_555 1_555
O10 C16 1_555 1_555
O11 Pr2 1_555 1_555
O12 Pr1 1_555 1_555
O13 Pr2 1_555 1_555
O14 C28 1_555 1_555
O15 Pr3 1_555 1_555
O16 Pr2 1_555 1_555
O17 Pr1 1_555 1_555
O18 Pr2 1_555 1_555
O19 Pr3 1_555 1_555
O20 Pr3 1_555 1_555
H2 O20 1_555 1_555
H3 O20 1_555 1_555
O21 H4 1_555 1_555
H5 O21 1_555 1_555
N1 C13 1_555 1_555
N2 Cu2 1_555 1_555
N3 Cu3 1_555 1_555
N4 C31 1_555 1_555
N5 C37 1_555 1_555
N6 C43 1_555 1_555
C1 O2 1_555 1_555
C2 O4 1_555 1_555
C3 O6 1_555 1_555
C4 C1 1_555 1_555
C5 C2 1_555 1_555
C6 C3 1_555 1_555
C7 C6 1_555 1_555
H6 C7 1_555 1_555
C8 C7 1_555 1_555
H7 C8 1_555 1_555
C9 C4 1_555 1_555
H8 C9 1_555 1_555
C10 O9 1_555 1_555
C11 C10 1_555 1_555
C12 C11 1_555 1_555
H9 C12 1_555 1_555
C13 C12 1_555 1_555
H10 C13 1_555 1_555
C14 N1 1_555 1_555
H11 C14 1_555 1_555
C15 C11 1_555 1_555
H12 C15 1_555 1_555
C16 O11 1_555 1_555
C17 C16 1_555 1_555
C18 C17 1_555 1_555
H13 C18 1_555 1_555
C19 N2 1_555 1_555
H14 C19 1_555 1_555
C20 N2 1_555 1_555
H15 C20 1_555 1_555
C21 C17 1_555 1_555
H16 C21 1_555 1_555
C22 O12 1_555 1_555
C23 C22 1_555 1_555
C24 C23 1_555 1_555
H17 C24 1_555 1_555
C25 N3 1_555 1_555
H18 C25 1_555 1_555
C26 N3 1_555 1_555
H19 C26 1_555 1_555
C27 C23 1_555 1_555
H20 C27 1_555 1_555
C28 O15 1_555 1_555
C29 C28 1_555 1_555
C30 C29 1_555 1_555
H21 C30 1_555 1_555
C31 C30 1_555 1_555
H22 C31 1_555 1_555
C32 N4 1_555 1_555
H23 C32 1_555 1_555
C33 C29 1_555 1_555
H24 C33 1_555 1_555
C34 O16 1_555 1_555
C35 C34 1_555 1_555
C36 C35 1_555 1_555
H25 C36 1_555 1_555
C37 C36 1_555 1_555
H26 C37 1_555 1_555
C38 N5 1_555 1_555
H27 C38 1_555 1_555
C39 C35 1_555 1_555
H28 C39 1_555 1_555
C40 O18 1_555 1_555
C41 C40 1_555 1_555
C42 C41 1_555 1_555
H29 C42 1_555 1_555
C43 C42 1_555 1_555
H30 C43 1_555 1_555
C44 N6 1_555 1_555
H31 C44 1_555 1_555
C45 C41 1_555 1_555
H32 C45 1_555 1_555
Pr1A O2 1_555 1_555
Pr1A_2 O8 1_555 1_555
Pr1_2 O2A 1_555 1_555
Pr1_3 O1_2 1_555 1_555
Pr1A_3 O1A_2 1_555 1_555
Pr2A O1A_2 1_555 1_555
Pr2A_2 O1 1_555 1_555
Pr2A_3 O2A 1_555 1_555
Pr3A O4A_2 1_555 1_555
Pr3A_2 O6 1_555 1_555
I1A Cu3 1_555 1_555
I1A_2 Cu2A 1_555 1_555
I1_2 Cu3A 1_555 1_555
I2A Cu4 1_555 1_555
I2A_2 Cu2A 1_555 1_555
I2A_3 Cu1A 1_555 1_555
I3_2 Cu2A 1_555 1_555
I4A Cu4 1_555 1_555
I4_2 Cu4A 1_555 1_555
I4A_2 Cu4A 1_555 1_555
I4A_3 Cu1A 1_555 1_555
Cu1A I1A 1_555 1_555
Cu1_2 I4 1_555 1_555
Cu1A_2 N1A 1_555 1_555
Cu1A_3 I2A 1_555 1_555
Cu2A N2A 1_555 1_555
Cu2A_2 I3 1_555 1_555
Cu2A_3 I2A 1_555 1_555
Cu3A I3_2 1_555 1_555
Cu3A_2 I1 1_555 1_555
Cu3A_3 N5 1_555 1_555
Cu3_2 N5A 1_555 1_555
Cu4A I2 1_555 1_555
Cu4A_2 I4 1_555 1_555
O1A Pr2 1_555 1_555
O1A_2 H1A_2 1_555 1_555
O1_2 Pr2A 1_555 1_555
H1A O1A 1_555 1_555
H1_2 O1_2 1_555 1_555
O2A C1A 1_555 1_555
O2A_2 Pr1 1_555 1_555
O2A_3 Pr1_3 1_555 1_555
O3A Pr1_2 1_555 1_555
O3A_2 Pr1 1_555 1_555
O4A Pr2A_3 1_555 1_555
O4A_2 Pr2A 1_555 1_555
O5A C2A 1_555 1_555
O6A Pr3 1_555 1_555
O6_2 Pr3A 1_555 1_555
O6A_2 Pr3A 1_555 1_555
O7A Pr3 1_555 1_555
O7_2 Pr3A 1_555 1_555
O8A Pr1 1_555 1_555
O8_2 Pr1A 1_555 1_555
O9A Pr1A_2 1_555 1_555
O9A_2 Pr1A 1_555 1_555
O10A Pr1_3 1_555 1_555
O10A_2 Pr1 1_555 1_555
O11A Pr2A 1_555 1_555
O12A Pr1A_3 1_555 1_555
O12A_2 Pr1A 1_555 1_555
O13A Pr2A 1_555 1_555
O14A Pr3 1_555 1_555
O14_2 Pr3A 1_555 1_555
O15A Pr3A_2 1_555 1_555
O15A_2 Pr3A 1_555 1_555
O16A Pr2A 1_555 1_555
O17A Pr1A_3 1_555 1_555
O17A_2 Pr1A 1_555 1_555
O18A Pr2A 1_555 1_555
O19A Pr3A 1_555 1_555
O20A Pr3A 1_555 1_555
H2A O20A 1_555 1_555
H3A O20A 1_555 1_555
N1A C13A 1_555 1_555
N1_2 Cu1 1_555 1_555
N1A_2 Cu1A 1_555 1_555
N2A C19A 1_555 1_555
N3A Cu3A 1_555 1_555
N4A Cu4A 1_555 1_555
N5A C37A 1_555 1_555
N5A_2 Cu3 1_555 1_555
N5_2 Cu3A 1_555 1_555
N6A Cu5 1_555 1_555
C1A O3A 1_555 1_555
C2A O4A 1_555 1_555
C3A O6A 1_555 1_555
C4A C1A 1_555 1_555
C5A C2A 1_555 1_555
C6A C3A 1_555 1_555
C7A C6A 1_555 1_555
H6A C7A 1_555 1_555
C8A C7A 1_555 1_555
H7A C8A 1_555 1_555
C9A C4A 1_555 1_555
H8A C9A 1_555 1_555
C10A O8A 1_555 1_555
C11A C10A 1_555 1_555
C12A C11A 1_555 1_555
H9A C12A 1_555 1_555
C13A C12A 1_555 1_555
H10A C13A 1_555 1_555
C14A N1A 1_555 1_555
H11A C14A 1_555 1_555
C15A C11A 1_555 1_555
H12A C15A 1_555 1_555
C16A O10A 1_555 1_555
C17A C16A 1_555 1_555
C18A C17A 1_555 1_555
H13A C18A 1_555 1_555
C19A C18A 1_555 1_555
H14A C19A 1_555 1_555
C20A N2A 1_555 1_555
H15A C20A 1_555 1_555
C21A C17A 1_555 1_555
H16A C21A 1_555 1_555
C22A O12A 1_555 1_555
C23A C22A 1_555 1_555
C24A C23A 1_555 1_555
H17A C24A 1_555 1_555
C25A N3A 1_555 1_555
H18A C25A 1_555 1_555
C26A N3A 1_555 1_555
H19A C26A 1_555 1_555
C27A C23A 1_555 1_555
H20A C27A 1_555 1_555
C28A O14A 1_555 1_555
C29A C28A 1_555 1_555
C30A C29A 1_555 1_555
H21A C30A 1_555 1_555
C31A N4A 1_555 1_555
H22A C31A 1_555 1_555
C32A N4A 1_555 1_555
H23A C32A 1_555 1_555
C33A C29A 1_555 1_555
H24A C33A 1_555 1_555
C34A O16A 1_555 1_555
C35A C34A 1_555 1_555
C36A C35A 1_555 1_555
H25A C36A 1_555 1_555
C37A C36A 1_555 1_555
H26A C37A 1_555 1_555
C38A N5A 1_555 1_555
H27A C38A 1_555 1_555
C39A C35A 1_555 1_555
H28A C39A 1_555 1_555
C40A O18A 1_555 1_555
C41A C40A 1_555 1_555
C42A C41A 1_555 1_555
H29A C42A 1_555 1_555
C43A N6A 1_555 1_555
H30A C43A 1_555 1_555
C44A N6A 1_555 1_555
H31A C44A 1_555 1_555
C45A C41A 1_555 1_555
H32A C45A 1_555 1_555
Pr3 O16 1_555 1_555
I2 Cu2 1_555 1_555
I3 Cu3A_2 1_555 1_555
O3 Pr1A 1_555 1_555
O7 Pr3A_2 1_555 1_555
O10 Pr1A 1_555 1_555
O13 C22 1_555 1_555
O14 Pr3A_2 1_555 1_555
O17 C34 1_555 1_555
O19 C40 1_555 1_555
N1 Cu1_2 1_555 1_555
C4 C5 1_555 1_555
C5 C6 1_555 1_555
C8 C9 1_555 1_555
C14 C15 1_555 1_555
C18 C19 1_555 1_555
C20 C21 1_555 1_555
C24 C25 1_555 1_555
C26 C27 1_555 1_555
C32 C33 1_555 1_555
C38 C39 1_555 1_555
C44 C45 1_555 1_555
Pr1A O1A 1_555 1_555
Pr2A O2A_3 1_555 1_555
Pr2A_2 O1A 1_555 1_555
Pr2A_2 O2A_2 1_555 1_555
Pr3A O16A 1_555 1_555
Pr3A_2 O4A 1_555 1_555
Pr3A_2 O6A 1_555 1_555
I1A Cu2A_2 1_555 1_555
I2A_3 Cu2A_2 1_555 1_555
I4A Cu1A_3 1_555 1_555
I4A Cu4A_2 1_555 1_555
O7A C3A 1_555 1_555
O9A C10A 1_555 1_555
O11A C16A 1_555 1_555
O13A C22A 1_555 1_555
O15A C28A 1_555 1_555
O17A C34A 1_555 1_555
O19A C40A 1_555 1_555
C4A C5A 1_555 1_555
C5A C6A 1_555 1_555
C8A C9A 1_555 1_555
C14A C15A 1_555 1_555
C20A C21A 1_555 1_555
C24A C25A 1_555 1_555
C26A C27A 1_555 1_555
C30A C31A 1_555 1_555
C32A C33A 1_555 1_555
C38A C39A 1_555 1_555
C42A C43A 1_555 1_555
C44A C45A 1_555 1_555

#END
