
#######################################################################
#
#                 Cambridge Crystallographic Data Centre
#                                CCDC 
#
#######################################################################
#
# If this CIF has been generated from an entry in the Cambridge 
# Structural Database, then it will include bibliographic, chemical, 
# crystal, experimental, refinement or atomic coordinate data resulting 
# from the CCDC's data processing and validation procedures.
#
#######################################################################

data_LAZPIN
_symmetry_cell_setting           orthorhombic
_symmetry_space_group_name_H-M   'P b c a'
_symmetry_Int_Tables_number      61
_space_group_name_Hall           '-P 2ac 2ab'
loop_
_symmetry_equiv_pos_site_id
_symmetry_equiv_pos_as_xyz
1 x,y,z
2 1/2-x,-y,1/2+z
3 1/2+x,1/2-y,-z
4 -x,1/2+y,1/2-z
5 -x,-y,-z
6 1/2+x,y,1/2-z
7 1/2-x,1/2+y,z
8 x,1/2-y,1/2+z
_cell_length_a                   8.0191(2)
_cell_length_b                   17.3050(5)
_cell_length_c                   23.3034(5)
_cell_angle_alpha                90
_cell_angle_beta                 90
_cell_angle_gamma                90
_cell_volume                     3233.83
loop_
_atom_site_label
_atom_site_type_symbol
_atom_site_fract_x
_atom_site_fract_y
_atom_site_fract_z
La1 La 0.36298(2) 0.103290(10) 0.217590(7)
Cu1 Cu 1.0000 0.0000 0.5000
O1 O 0.1879(3) 0.09135(13) 0.30768(9)
O2 O 0.0505(3) 0.18312(15) 0.35289(11)
O3 O 0.5492(3) 0.05822(13) 0.29867(9)
O4 O 0.4717(3) -0.02954(13) 0.36399(10)
O5 O 0.8160(3) 0.06328(15) 0.38653(10)
O6 O 0.7907(3) 0.04577(15) 0.48075(10)
O7 O 0.8019(3) -0.28571(14) 0.30670(11)
O8 O 1.0677(3) -0.27655(13) 0.28049(10)
O9 O 0.3542(3) -0.04035(15) 0.22042(11)
H1 H 0.2665 -0.0679 0.2190
H2 H 0.4209 -0.0680 0.2400
N1 N 0.9873(3) -0.07746(16) 0.43614(12)
C1 C 0.1743(4) 0.14032(19) 0.34886(14)
C2 C 0.4923(4) 0.03738(18) 0.34778(13)
C3 C 0.7403(4) 0.06948(18) 0.43230(13)
C4 C 0.3088(4) 0.14414(19) 0.39367(13)
C5 C 0.4553(4) 0.10034(18) 0.39125(13)
C6 C 0.5750(4) 0.11086(18) 0.43436(14)
C7 C 0.5478(4) 0.1627(2) 0.47892(15)
H5 H 0.6272 0.1681 0.5077
C8 C 0.4026(4) 0.2066(2) 0.48073(14)
H6 H 0.3853 0.2422 0.5101
C9 C 0.2848(4) 0.19662(19) 0.43831(14)
H7 H 0.1871 0.2255 0.4395
C10 C 0.9445(4) -0.25691(18) 0.31004(14)
C11 C 0.9637(4) -0.19319(18) 0.35394(14)
C12 C 1.1104(4) -0.15236(19) 0.36138(15)
H8 H 1.2027 -0.1629 0.3385
C13 C 1.1186(4) -0.0955(2) 0.40329(15)
H9 H 1.2184 -0.0690 0.4087
C14 C 0.8434(4) -0.11519(19) 0.42765(15)
H10 H 0.7504 -0.1011 0.4491
C15 C 0.8286(4) -0.1743(2) 0.38824(14)
H11 H 0.7287 -0.2012 0.3847
La1D La 1.63702(2) -0.103290(10) 0.782410(7)
La1E La -0.13702(2) 0.103290(10) 0.282410(7)
La1E_2 La 0.86298(2) 0.103290(10) 0.282410(7)
La1C La 0.63702(2) -0.396710(10) 0.282410(7)
La1F La 1.13702(2) -0.396710(10) 0.217590(7)
La1A La 2.13702(2) -0.103290(10) 0.717590(7)
La1A_2 La 1.13702(2) -0.103290(10) 0.717590(7)
La1G La 1.36298(2) 0.396710(10) 0.717590(7)
La1B La 0.86298(2) 0.396710(10) 0.782410(7)
O1D O 1.8121(3) -0.09135(13) 0.69232(9)
O1E O 0.6879(3) 0.09135(13) 0.19232(9)
O1A O 1.3121(3) -0.09135(13) 0.80768(9)
O2D O 1.9495(3) -0.18312(15) 0.64711(11)
O2E O 0.5505(3) 0.18312(15) 0.14711(11)
O2A O 1.4495(3) -0.18312(15) 0.85289(11)
O3D O 1.4508(3) -0.05822(13) 0.70133(9)
O3E O 0.0492(3) 0.05822(13) 0.20133(9)
O3A O 1.9508(3) -0.05822(13) 0.79867(9)
O4D O 1.5283(3) 0.02954(13) 0.63601(10)
O5D O 1.1840(3) -0.06328(15) 0.61347(10)
O5E O 0.3160(3) 0.06328(15) 0.11347(10)
O5A O 1.6840(3) -0.06328(15) 0.88653(10)
O6D O 1.2093(3) -0.04577(15) 0.51925(10)
O7D O 1.1981(3) 0.28571(14) 0.69330(11)
O7C O 0.1981(3) 0.21429(14) 0.19330(11)
O7G O 1.8019(3) -0.21429(14) 0.80670(11)
O8D O 0.9323(3) 0.27655(13) 0.71951(10)
O8F O 0.4323(3) 0.22345(13) 0.28049(10)
O8B O 1.5677(3) -0.22345(13) 0.71951(10)
O9D O 1.6458(3) 0.04035(15) 0.77958(11)
H1D H 1.7335 0.0679 0.7810
H2D H 1.5791 0.0680 0.7600
N1D N 1.0127(3) 0.07746(16) 0.56386(12)
C1D C 1.8257(4) -0.14032(19) 0.65114(14)
C2D C 1.5077(4) -0.03738(18) 0.65222(13)
C3D C 1.2597(4) -0.06948(18) 0.56770(13)
C4D C 1.6912(4) -0.14414(19) 0.60633(13)
C5D C 1.5447(4) -0.10034(18) 0.60875(13)
C6D C 1.4250(4) -0.11086(18) 0.56564(14)
C7D C 1.4522(4) -0.1627(2) 0.52108(15)
H5D H 1.3728 -0.1681 0.4923
C8D C 1.5974(4) -0.2066(2) 0.51927(14)
H6D H 1.6147 -0.2422 0.4899
C9D C 1.7152(4) -0.19662(19) 0.56169(14)
H7D H 1.8129 -0.2255 0.5605
C10D C 1.0555(4) 0.25691(18) 0.68996(14)
C11D C 1.0363(4) 0.19319(18) 0.64606(14)
C12D C 0.8896(4) 0.15236(19) 0.63862(15)
H8D H 0.7973 0.1629 0.6615
C13D C 0.8814(4) 0.0955(2) 0.59671(15)
H9D H 0.7816 0.0690 0.5913
C14D C 1.1566(4) 0.11519(19) 0.57235(15)
H10D H 1.2496 0.1011 0.5509
C15D C 1.1714(4) 0.1743(2) 0.61176(14)
H11D H 1.2713 0.2012 0.6153
O10 O 0.4312(4) 0.12999(16) 0.71647(12)
H3 H 0.4161 0.1740 0.7318
H4 H 0.4653 0.1359 0.6822
loop_
_geom_bond_atom_site_label_1
_geom_bond_atom_site_label_2
_geom_bond_site_symmetry_1
_geom_bond_site_symmetry_2
La1 O1 1_555 1_555
Cu1 O6 1_555 1_555
O1 C1 1_555 1_555
O2 C1 1_555 1_555
O3 La1 1_555 1_555
O4 C2 1_555 1_555
O5 C3 1_555 1_555
O6 C3 1_555 1_555
O7 C10 1_555 1_555
O8 C10 1_555 1_555
O9 La1 1_555 1_555
H1 O9 1_555 1_555
H2 O9 1_555 1_555
O10 H3 1_555 1_555
H4 O10 1_555 1_555
N1 Cu1 1_555 1_555
C1 C4 1_555 1_555
C2 O3 1_555 1_555
C3 C6 1_555 1_555
C4 C5 1_555 1_555
C5 C2 1_555 1_555
C6 C5 1_555 1_555
C7 C6 1_555 1_555
H5 C7 1_555 1_555
C8 C7 1_555 1_555
H6 C8 1_555 1_555
C9 C4 1_555 1_555
H7 C9 1_555 1_555
C10 C11 1_555 1_555
C11 C12 1_555 1_555
C12 H8 1_555 1_555
C13 N1 1_555 1_555
H9 C13 1_555 1_555
C14 N1 1_555 1_555
H10 C14 1_555 1_555
C15 C11 1_555 1_555
H11 C15 1_555 1_555
La1D O1D 1_555 1_555
La1E O1 1_555 1_555
La1E_2 O3 1_555 1_555
La1C O7 1_555 1_555
La1F O8 1_555 1_555
La1A O1D 1_555 1_555
La1A_2 O1A 1_555 1_555
La1G O7D 1_555 1_555
La1B O8D 1_555 1_555
O1D C1D 1_555 1_555
O1E La1 1_555 1_555
O1A La1D 1_555 1_555
O2D La1A 1_555 1_555
O2E La1 1_555 1_555
O2A La1D 1_555 1_555
O3D La1D 1_555 1_555
O3E La1 1_555 1_555
O3A La1D 1_555 1_555
O4D C2D 1_555 1_555
O5D La1A_2 1_555 1_555
O5E La1 1_555 1_555
O5A La1D 1_555 1_555
O6D Cu1 1_555 1_555
O7D C10D 1_555 1_555
O7C La1 1_555 1_555
O7G La1D 1_555 1_555
O8D C10D 1_555 1_555
O8F La1 1_555 1_555
O8B La1D 1_555 1_555
O9D La1D 1_555 1_555
H1D O9D 1_555 1_555
H2D O9D 1_555 1_555
N1D Cu1 1_555 1_555
C1D O2D 1_555 1_555
C2D O3D 1_555 1_555
C3D O5D 1_555 1_555
C4D C1D 1_555 1_555
C5D C2D 1_555 1_555
C6D C3D 1_555 1_555
C7D C6D 1_555 1_555
H5D C7D 1_555 1_555
C8D C7D 1_555 1_555
H6D C8D 1_555 1_555
C9D C4D 1_555 1_555
H7D C9D 1_555 1_555
C10D C11D 1_555 1_555
C11D C12D 1_555 1_555
C12D H8D 1_555 1_555
C13D N1D 1_555 1_555
H9D C13D 1_555 1_555
C14D N1D 1_555 1_555
H10D C14D 1_555 1_555
C15D C11D 1_555 1_555
H11D C15D 1_555 1_555
O2 La1E 1_555 1_555
O5 La1E_2 1_555 1_555
C8 C9 1_555 1_555
C12 C13 1_555 1_555
C14 C15 1_555 1_555
La1E O3E 1_555 1_555
La1E_2 O1E 1_555 1_555
La1A O3A 1_555 1_555
La1A_2 O3D 1_555 1_555
O6D C3D 1_555 1_555
C4D C5D 1_555 1_555
C5D C6D 1_555 1_555
C8D C9D 1_555 1_555
C12D C13D 1_555 1_555
C14D C15D 1_555 1_555

#END
