
#######################################################################
#
#                 Cambridge Crystallographic Data Centre
#                                CCDC 
#
#######################################################################
#
# If this CIF has been generated from an entry in the Cambridge 
# Structural Database, then it will include bibliographic, chemical, 
# crystal, experimental, refinement or atomic coordinate data resulting 
# from the CCDC's data processing and validation procedures.
#
#######################################################################

data_LAZPEJ
_symmetry_cell_setting           triclinic
_symmetry_space_group_name_H-M   'P -1'
_symmetry_Int_Tables_number      2
_space_group_name_Hall           '-P 1'
loop_
_symmetry_equiv_pos_site_id
_symmetry_equiv_pos_as_xyz
1 x,y,z
2 -x,-y,-z
_cell_length_a                   11.3895(3)
_cell_length_b                   15.3887(6)
_cell_length_c                   17.9731(6)
_cell_angle_alpha                70.025(3)
_cell_angle_beta                 80.612(2)
_cell_angle_gamma                68.612(3)
_cell_volume                     2754.06
loop_
_atom_site_label
_atom_site_type_symbol
_atom_site_fract_x
_atom_site_fract_y
_atom_site_fract_z
Nd1 Nd 0.82108(3) 0.40872(2) 0.551710(19)
Nd2 Nd 0.46776(3) 0.62972(2) 0.515730(18)
Nd3 Nd 0.58458(3) 0.85496(2) 0.512621(19)
Cu1 Cu -0.14647(11) 0.82293(8) 1.02734(6)
Cu2 Cu -0.05470(11) 0.70766(11) 0.93524(6)
Cu3 Cu 0.29062(15) 0.41819(11) 1.02278(6)
Cu4 Cu 0.95389(10) 1.07742(10) 0.03804(6)
Cu5 Cu 0.5000 1.0000 0.0000
I1 I -0.30076(5) 0.78033(4) 0.95859(3)
I2 I 0.10997(5) 0.72682(4) 1.01081(3)
I3 I 0.0000 0.5000 1.0000
I4 I 1.19263(5) 0.98384(4) 0.02574(3)
O1 O 0.6303(4) 0.4932(3) 0.4818(2)
H1 H 0.6560 0.5195 0.4263
O2 O 0.2945(4) 0.7083(3) 0.4268(3)
O3 O 0.1177(4) 0.7701(3) 0.3642(3)
O4 O 0.4057(4) 0.8050(3) 0.4961(2)
O5 O 0.2042(4) 0.8890(4) 0.5177(3)
O6 O 0.4201(4) 0.9995(3) 0.4448(3)
O7 O 0.3147(4) 1.1454(3) 0.3690(3)
O8 O 0.9661(4) 0.6203(3) 0.4299(3)
O9 O 0.8553(4) 0.5294(4) 0.4240(3)
O10 O 0.1050(4) 0.6713(4) 0.5526(3)
O11 O 0.2837(4) 0.6546(4) 0.5995(3)
O12 O 0.7080(5) 0.3850(4) 0.6940(3)
O13 O 0.5380(5) 0.5016(4) 0.6363(3)
O14 O 0.5750(4) 1.1213(3) 0.3800(3)
O15 O 0.6886(5) 0.9609(4) 0.4183(3)
O16 O 0.6135(4) 0.6762(3) 0.5808(3)
O17 O 0.7904(4) 0.5484(3) 0.5952(3)
O18 O 0.5599(5) 0.6910(4) 0.3835(3)
O19 O 0.6269(4) 0.8041(4) 0.3939(3)
O20 O 0.8169(4) 0.7625(4) 0.5167(3)
H2 H 0.8539 0.8032 0.5119
H3 H 0.8592 0.7218 0.4919
C1 C 0.2141(5) 0.7806(5) 0.3793(4)
C2 C 0.2959(6) 0.8683(4) 0.4738(4)
C3 C 0.3467(6) 1.0548(5) 0.3881(4)
C4 C 0.2416(5) 0.8730(4) 0.3417(4)
C5 C 0.2839(5) 0.9165(5) 0.3841(4)
C6 C 0.3007(6) 1.0055(5) 0.3458(4)
C7 C 0.2798(7) 1.0510(5) 0.2664(4)
H6 H 0.2898 1.1120 0.2418
C8 C 0.2438(7) 1.0063(5) 0.2226(4)
H7 H 0.2333 1.0355 0.1684
C9 C 0.2242(6) 0.9186(5) 0.2608(4)
H8 H 0.1988 0.8889 0.2321
C10 C 0.9028(5) 0.5953(5) 0.3943(4)
C11 C 0.8834(6) 0.6512(5) 0.3070(4)
C12 C 0.9113(8) 0.7366(6) 0.2739(4)
H9 H 0.9429 0.7602 0.3046
C13 C 0.8916(8) 0.7873(6) 0.1940(4)
H10 H 0.9087 0.8459 0.1726
N1 N 0.8495(6) 0.7557(5) 0.1468(3)
C14 C 0.8242(8) 0.6726(6) 0.1793(4)
H11 H 0.7950 0.6495 0.1470
C15 C 0.8389(7) 0.6183(6) 0.2587(4)
H12 H 0.8192 0.5608 0.2789
C16 C 0.1662(6) 0.6767(5) 0.6008(4)
C17 C 0.0962(6) 0.7057(5) 0.6723(4)
C18 C -0.0206(7) 0.7001(6) 0.6978(5)
H13 H -0.0675 0.6887 0.6665
C19 C -0.0688(7) 0.7116(6) 0.7711(4)
H14 H -0.1484 0.7068 0.7884
N2 N -0.0064(6) 0.7292(5) 0.8182(3)
C20 C 0.1031(8) 0.7427(7) 0.7891(5)
H15 H 0.1445 0.7606 0.8190
C21 C 0.1581(7) 0.7319(6) 0.7184(5)
H16 H 0.2351 0.7418 0.7009
C22 C 0.5983(7) 0.4402(5) 0.6964(4)
C23 C 0.5262(7) 0.4374(5) 0.7765(4)
C24 C 0.4008(8) 0.4945(6) 0.7795(4)
H17 H 0.3594 0.5346 0.7330
C25 C 0.3376(8) 0.4913(7) 0.8519(5)
H18 H 0.2534 0.5305 0.8528
N3 N 0.3905(7) 0.4351(5) 0.9209(4)
C26 C 0.5136(9) 0.3828(7) 0.9169(5)
H19 H 0.5538 0.3458 0.9643
C27 C 0.5842(8) 0.3800(6) 0.8473(4)
H20 H 0.6686 0.3407 0.8479
C28 C 0.6601(6) 1.0457(5) 0.3714(4)
C29 C 0.7351(6) 1.0557(5) 0.2934(4)
C30 C 0.8588(7) 0.9955(6) 0.2884(4)
H21 H 0.9006 0.9508 0.3336
C31 C 0.9182(7) 1.0042(6) 0.2136(5)
H22 H 1.0021 0.9651 0.2101
N4 N 0.8630(6) 1.0646(5) 0.1467(3)
C32 C 0.7421(7) 1.1208(6) 0.1525(4)
H23 H 0.7012 1.1627 0.1063
C33 C 0.6763(7) 1.1191(5) 0.2237(4)
H24 H 0.5930 1.1600 0.2254
C34 C 0.7050(6) 0.6098(5) 0.6210(4)
C35 C 0.7061(6) 0.6033(5) 0.7067(4)
C36 C 0.6093(7) 0.6628(6) 0.7428(4)
H25 H 0.5419 0.7112 0.7137
C37 C 0.6133(8) 0.6500(6) 0.8221(5)
H26 H 0.5470 0.6904 0.8455
N5 N 0.7078(6) 0.5825(5) 0.8673(3)
C38 C 0.8015(7) 0.5256(6) 0.8326(4)
H27 H 0.8685 0.4787 0.8629
C39 C 0.8039(6) 0.5329(6) 0.7535(4)
H28 H 0.8707 0.4909 0.7318
C40 C 0.5857(6) 0.7677(5) 0.3557(4)
C41 C 0.5662(6) 0.8234(5) 0.2688(4)
C42 C 0.5899(7) 0.9092(5) 0.2353(4)
H29 H 0.6207 0.9339 0.2656
C43 C 0.5681(7) 0.9601(6) 0.1561(4)
H30 H 0.5838 1.0193 0.1344
N6 N 0.5254(6) 0.9272(5) 0.1096(3)
C44 C 0.5010(7) 0.8436(6) 0.1430(4)
H31 H 0.4689 0.8209 0.1118
C45 C 0.5210(7) 0.7887(5) 0.2214(4)
H32 H 0.5045 0.7298 0.2421
Nd1A Nd 0.17892(3) 0.59128(2) 0.448290(19)
Nd1A_2 Nd 1.17892(3) 0.59128(2) 0.448290(19)
Nd1_2 Nd 0.82108(3) 1.40872(2) 0.551710(19)
Nd1_3 Nd 0.82108(3) 1.40872(2) -0.448290(19)
Nd1A_3 Nd 0.17892(3) 1.59128(2) -0.551710(19)
Nd2A Nd 0.53224(3) 1.37028(2) -0.515730(18)
Nd2A_2 Nd 0.53224(3) 0.37028(2) 0.484270(18)
Nd2A_3 Nd 0.53224(3) 1.37028(2) 0.484270(18)
Nd3A Nd 0.41542(3) 1.14504(2) -0.512621(19)
Nd3A_2 Nd 0.41542(3) 1.14504(2) 0.487379(19)
Cu1A Cu 0.14647(11) 0.17707(8) 0.97266(6)
Cu1A_2 Cu 1.14647(11) 1.17707(8) -0.02734(6)
Cu1_2 Cu 0.85353(11) 0.82293(8) 0.02734(6)
Cu1A_3 Cu 1.14647(11) 0.17707(8) 0.97266(6)
Cu2A Cu 1.05470(11) 1.29234(11) -0.93524(6)
Cu2A_2 Cu 0.05470(11) 0.29234(11) 1.06476(6)
Cu2A_3 Cu 1.05470(11) 1.29234(11) 0.06476(6)
Cu3A Cu 0.70938(15) 1.58181(11) -1.02278(6)
Cu3A_2 Cu -0.29062(15) 0.58181(11) 0.97722(6)
Cu3A_3 Cu 0.70938(15) 0.58181(11) 0.97722(6)
Cu3_2 Cu 0.29062(15) 1.41819(11) -0.97722(6)
Cu4A Cu 0.04611(10) 0.92258(10) 0.96196(6)
Cu4A_2 Cu 1.04611(10) 0.92258(10) -0.03804(6)
I1A I 0.30076(5) 0.21967(4) 1.04141(3)
I1A_2 I 1.30076(5) 1.21967(4) -0.95859(3)
I1_2 I 0.69924(5) 1.78033(4) -1.04141(3)
I2A I 0.89003(5) 1.27318(4) -0.01081(3)
I2A_2 I 0.89003(5) 1.27318(4) -1.01081(3)
I2A_3 I -0.10997(5) 0.27318(4) 0.98919(3)
I3_2 I 1.0000 1.5000 -1.0000
I4A I 0.80737(5) 1.01616(4) -0.02574(3)
I4A_2 I -0.19263(5) 1.01616(4) 0.97426(3)
I4_2 I 0.19263(5) 0.98384(4) 1.02574(3)
I4_3 I 0.19263(5) -0.01616(4) 1.02574(3)
O1A O 0.3697(4) 0.5068(3) 0.5182(2)
O1A_2 O 0.3697(4) 1.5068(3) -0.4818(2)
O1_2 O 0.6303(4) 1.4932(3) -0.5182(2)
H1A H 0.3440 0.4805 0.5737
H1A_2 H 0.3440 1.4805 -0.4263
H1_2 H 0.6560 1.5195 -0.5737
O2A O 0.7055(4) 1.2917(3) 0.5732(3)
O2A_2 O 0.7055(4) 0.2917(3) 0.5732(3)
O2A_3 O 0.7055(4) 1.2917(3) -0.4268(3)
O3A O 0.8823(4) 1.2299(3) 0.6358(3)
O3A_2 O 0.8823(4) 0.2299(3) 0.6358(3)
O4A O 0.5943(4) 1.1950(3) 0.5039(2)
O4A_2 O 0.5943(4) 1.1950(3) -0.4961(2)
O5A O 0.7958(4) 1.1110(4) 0.4823(3)
O6A O 0.5799(4) 1.0005(3) 0.5552(3)
O6_2 O 0.4201(4) 0.9995(3) -0.5552(3)
O6A_2 O 0.5799(4) 1.0005(3) -0.4448(3)
O7A O 0.6853(4) 0.8546(3) 0.6310(3)
O7_2 O 0.3147(4) 1.1454(3) -0.6310(3)
O8A O 1.0339(4) 0.3797(3) 0.5701(3)
O8_2 O -0.0339(4) 0.6203(3) 0.4299(3)
O9A O 1.1447(4) 0.4706(4) 0.5760(3)
O9A_2 O 0.1447(4) 0.4706(4) 0.5760(3)
O10A O 0.8950(4) 1.3287(4) -0.5526(3)
O10A_2 O 0.8950(4) 0.3287(4) 0.4474(3)
O11A O 0.7163(4) 1.3454(4) -0.5995(3)
O12A O 0.2920(5) 1.6150(4) -0.6940(3)
O12A_2 O 0.2920(5) 0.6150(4) 0.3060(3)
O13A O 0.4620(5) 1.4984(4) -0.6363(3)
O14A O 0.4250(4) 0.8787(3) 0.6200(3)
O14_2 O 0.5750(4) 1.1213(3) -0.6200(3)
O15A O 0.3114(5) 1.0391(4) 0.5817(3)
O15A_2 O 0.3114(5) 1.0391(4) -0.4183(3)
O16A O 0.3865(4) 1.3238(3) -0.5808(3)
O17A O 0.2096(4) 1.4516(3) -0.5952(3)
O17A_2 O 0.2096(4) 0.4516(3) 0.4048(3)
O18A O 0.4401(5) 1.3090(4) -0.3835(3)
O19A O 0.3731(4) 1.1959(4) -0.3939(3)
O20A O 0.1831(4) 1.2375(4) -0.5167(3)
H2A H 0.1461 1.1968 -0.5119
H3A H 0.1408 1.2782 -0.4919
C1A C 0.7859(5) 1.2194(5) 0.6207(4)
C2A C 0.7041(6) 1.1317(4) 0.5262(4)
C3A C 0.6533(6) 0.9452(5) 0.6119(4)
C4A C 0.7584(5) 1.1270(4) 0.6583(4)
C5A C 0.7161(5) 1.0835(5) 0.6159(4)
C6A C 0.6993(6) 0.9945(5) 0.6542(4)
C7A C 0.7202(7) 0.9490(5) 0.7336(4)
H6A H 0.7102 0.8880 0.7582
C8A C 0.7562(7) 0.9937(5) 0.7774(4)
H7A H 0.7667 0.9645 0.8316
C9A C 0.7758(6) 1.0814(5) 0.7392(4)
H8A H 0.8012 1.1111 0.7679
C10A C 1.0972(5) 0.4047(5) 0.6057(4)
C11A C 1.1166(6) 0.3488(5) 0.6930(4)
C12A C 1.0887(8) 0.2634(6) 0.7261(4)
H9A H 1.0571 0.2398 0.6954
C13A C 1.1084(8) 0.2127(6) 0.8060(4)
H10A H 1.0913 0.1541 0.8274
N1A N 1.1505(6) 0.2443(5) 0.8532(3)
N1_2 N -0.1505(6) 0.7557(5) 1.1468(3)
N1A_2 N 0.1505(6) 0.2443(5) 0.8532(3)
C14A C 1.1758(8) 0.3274(6) 0.8207(4)
H11A H 1.2050 0.3505 0.8530
C15A C 1.1611(7) 0.3817(6) 0.7413(4)
H12A H 1.1808 0.4392 0.7211
C16A C 0.8338(6) 1.3233(5) -0.6008(4)
C17A C 0.9038(6) 1.2943(5) -0.6723(4)
C18A C 1.0206(7) 1.2999(6) -0.6978(5)
H13A H 1.0675 1.3113 -0.6665
C19A C 1.0688(7) 1.2884(6) -0.7711(4)
H14A H 1.1484 1.2932 -0.7884
N2A N 1.0064(6) 1.2708(5) -0.8182(3)
C20A C 0.8969(8) 1.2573(7) -0.7891(5)
H15A H 0.8555 1.2394 -0.8190
C21A C 0.8419(7) 1.2681(6) -0.7184(5)
H16A H 0.7649 1.2582 -0.7009
C22A C 0.4017(7) 1.5598(5) -0.6964(4)
C23A C 0.4738(7) 1.5626(5) -0.7765(4)
C24A C 0.5992(8) 1.5055(6) -0.7795(4)
H17A H 0.6406 1.4654 -0.7330
C25A C 0.6624(8) 1.5087(7) -0.8519(5)
H18A H 0.7466 1.4695 -0.8528
N3A N 0.6095(7) 1.5649(5) -0.9209(4)
C26A C 0.4864(9) 1.6172(7) -0.9169(5)
H19A H 0.4462 1.6542 -0.9643
C27A C 0.4158(8) 1.6200(6) -0.8473(4)
H20A H 0.3314 1.6593 -0.8479
C28A C 0.3399(6) 0.9543(5) 0.6286(4)
C29A C 0.2649(6) 0.9443(5) 0.7066(4)
C30A C 0.1412(7) 1.0045(6) 0.7116(4)
H21A H 0.0994 1.0492 0.6664
C31A C 0.0818(7) 0.9958(6) 0.7864(5)
H22A H -0.0021 1.0349 0.7899
N4A N 0.1370(6) 0.9354(5) 0.8533(3)
C32A C 0.2579(7) 0.8792(6) 0.8475(4)
H23A H 0.2988 0.8373 0.8937
C33A C 0.3237(7) 0.8809(5) 0.7763(4)
H24A H 0.4070 0.8400 0.7746
C34A C 0.2950(6) 1.3902(5) -0.6210(4)
C35A C 0.2939(6) 1.3967(5) -0.7067(4)
C36A C 0.3907(7) 1.3372(6) -0.7428(4)
H25A H 0.4581 1.2888 -0.7137
C37A C 0.3867(8) 1.3500(6) -0.8221(5)
H26A H 0.4530 1.3096 -0.8455
N5A N 0.2922(6) 1.4175(5) -0.8673(3)
N5A_2 N 0.2922(6) 0.4175(5) 1.1327(3)
N5_2 N 0.7078(6) 1.5825(5) -1.1327(3)
C38A C 0.1985(7) 1.4744(6) -0.8326(4)
H27A H 0.1315 1.5213 -0.8629
C39A C 0.1961(6) 1.4671(6) -0.7535(4)
H28A H 0.1293 1.5091 -0.7318
C40A C 0.4143(6) 1.2323(5) -0.3557(4)
C41A C 0.4338(6) 1.1766(5) -0.2688(4)
C42A C 0.4101(7) 1.0908(5) -0.2353(4)
H29A H 0.3793 1.0661 -0.2656
C43A C 0.4319(7) 1.0399(6) -0.1561(4)
H30A H 0.4162 0.9807 -0.1344
N6A N 0.4746(6) 1.0728(5) -0.1096(3)
C44A C 0.4990(7) 1.1564(6) -0.1430(4)
H31A H 0.5311 1.1791 -0.1118
C45A C 0.4790(7) 1.2113(5) -0.2214(4)
H32A H 0.4955 1.2702 -0.2421
O21 O 0.9408(6) 0.8980(5) 0.5011(5)
H4 H 0.8996 0.9581 0.4960
H5 H 1.0152 0.8953 0.5060
loop_
_geom_bond_atom_site_label_1
_geom_bond_atom_site_label_2
_geom_bond_site_symmetry_1
_geom_bond_site_symmetry_2
Nd1 O1 1_555 1_555
Nd2 O1 1_555 1_555
Nd3 O4 1_555 1_555
Cu1 I1 1_555 1_555
Cu2 I1 1_555 1_555
Cu3 I3 1_555 1_555
Cu4 I4 1_555 1_555
Cu5 N6 1_555 1_555
I1 Cu3A_2 1_555 1_555
I2 Cu1 1_555 1_555
I3 Cu2 1_555 1_555
I4 Cu1A_2 1_555 1_555
O1 H1 1_555 1_555
O2 Nd2 1_555 1_555
O3 C1 1_555 1_555
O4 Nd2 1_555 1_555
O5 C2 1_555 1_555
O6 Nd3 1_555 1_555
O7 C3 1_555 1_555
O8 C10 1_555 1_555
O9 Nd1 1_555 1_555
O10 C16 1_555 1_555
O11 Nd2 1_555 1_555
O12 Nd1 1_555 1_555
O13 Nd2 1_555 1_555
O14 C28 1_555 1_555
O15 Nd3 1_555 1_555
O16 Nd2 1_555 1_555
O17 Nd1 1_555 1_555
O18 Nd2 1_555 1_555
O19 Nd3 1_555 1_555
O20 Nd3 1_555 1_555
H2 O20 1_555 1_555
H3 O20 1_555 1_555
O21 H4 1_555 1_555
H5 O21 1_555 1_555
C1 O2 1_555 1_555
C2 O4 1_555 1_555
C3 O6 1_555 1_555
C4 C1 1_555 1_555
C5 C2 1_555 1_555
C6 C3 1_555 1_555
C7 C6 1_555 1_555
H6 C7 1_555 1_555
C8 C7 1_555 1_555
H7 C8 1_555 1_555
C9 C4 1_555 1_555
H8 C9 1_555 1_555
C10 O9 1_555 1_555
C11 C10 1_555 1_555
C12 C11 1_555 1_555
H9 C12 1_555 1_555
C13 C12 1_555 1_555
H10 C13 1_555 1_555
N1 C13 1_555 1_555
C14 N1 1_555 1_555
H11 C14 1_555 1_555
C15 C11 1_555 1_555
H12 C15 1_555 1_555
C16 O11 1_555 1_555
C17 C16 1_555 1_555
C18 C17 1_555 1_555
H13 C18 1_555 1_555
C19 C18 1_555 1_555
H14 C19 1_555 1_555
N2 Cu2 1_555 1_555
C20 N2 1_555 1_555
H15 C20 1_555 1_555
C21 C17 1_555 1_555
H16 C21 1_555 1_555
C22 O12 1_555 1_555
C23 C22 1_555 1_555
C24 C23 1_555 1_555
H17 C24 1_555 1_555
C25 C24 1_555 1_555
H18 C25 1_555 1_555
N3 Cu3 1_555 1_555
C26 N3 1_555 1_555
H19 C26 1_555 1_555
C27 C23 1_555 1_555
H20 C27 1_555 1_555
C28 O15 1_555 1_555
C29 C28 1_555 1_555
C30 C29 1_555 1_555
H21 C30 1_555 1_555
C31 C30 1_555 1_555
H22 C31 1_555 1_555
N4 Cu4 1_555 1_555
C32 N4 1_555 1_555
H23 C32 1_555 1_555
C33 C29 1_555 1_555
H24 C33 1_555 1_555
C34 O16 1_555 1_555
C35 C34 1_555 1_555
C36 C35 1_555 1_555
H25 C36 1_555 1_555
C37 C36 1_555 1_555
H26 C37 1_555 1_555
N5 C37 1_555 1_555
C38 N5 1_555 1_555
H27 C38 1_555 1_555
C39 C35 1_555 1_555
H28 C39 1_555 1_555
C40 O18 1_555 1_555
C41 C40 1_555 1_555
C42 C41 1_555 1_555
H29 C42 1_555 1_555
C43 C42 1_555 1_555
H30 C43 1_555 1_555
N6 C43 1_555 1_555
C44 N6 1_555 1_555
H31 C44 1_555 1_555
C45 C41 1_555 1_555
H32 C45 1_555 1_555
Nd1A O2 1_555 1_555
Nd1A_2 O8 1_555 1_555
Nd1_2 O2A 1_555 1_555
Nd1_3 O1_2 1_555 1_555
Nd1A_3 O1A_2 1_555 1_555
Nd2A O1A_2 1_555 1_555
Nd2A_2 O1 1_555 1_555
Nd2A_3 O2A 1_555 1_555
Nd3A O4A_2 1_555 1_555
Nd3A_2 O6 1_555 1_555
Cu1A I1A 1_555 1_555
Cu1A_2 I2A 1_555 1_555
Cu1_2 N1 1_555 1_555
Cu1A_3 N1A 1_555 1_555
Cu2A I1A_2 1_555 1_555
Cu2A_2 I3 1_555 1_555
Cu2A_3 I2A 1_555 1_555
Cu3A I1_2 1_555 1_555
Cu3A_2 I3 1_555 1_555
Cu3A_3 N5 1_555 1_555
Cu3_2 N5A 1_555 1_555
Cu4A I2 1_555 1_555
Cu4A_2 I4 1_555 1_555
I1A Cu3 1_555 1_555
I2A Cu4 1_555 1_555
I2A_2 Cu2A 1_555 1_555
I2A_3 Cu1A 1_555 1_555
I3_2 Cu2A 1_555 1_555
I4A Cu4 1_555 1_555
I4A_2 Cu1 1_555 1_555
I4_2 Cu4A 1_555 1_555
I4_3 Cu1A 1_555 1_555
O1A Nd2 1_555 1_555
O1A_2 H1A_2 1_555 1_555
O1_2 Nd2A 1_555 1_555
H1A O1A 1_555 1_555
H1_2 O1_2 1_555 1_555
O2A C1A 1_555 1_555
O2A_2 Nd1 1_555 1_555
O2A_3 Nd1_3 1_555 1_555
O3A Nd1_2 1_555 1_555
O3A_2 Nd1 1_555 1_555
O4A Nd2A_3 1_555 1_555
O4A_2 Nd2A 1_555 1_555
O5A C2A 1_555 1_555
O6A Nd3 1_555 1_555
O6_2 Nd3A 1_555 1_555
O6A_2 Nd3A 1_555 1_555
O7A Nd3 1_555 1_555
O7_2 Nd3A 1_555 1_555
O8A Nd1 1_555 1_555
O8_2 Nd1A 1_555 1_555
O9A Nd1A_2 1_555 1_555
O9A_2 Nd1A 1_555 1_555
O10A Nd1_3 1_555 1_555
O10A_2 Nd1 1_555 1_555
O11A Nd2A 1_555 1_555
O12A Nd1A_3 1_555 1_555
O12A_2 Nd1A 1_555 1_555
O13A Nd2A 1_555 1_555
O14A Nd3 1_555 1_555
O14_2 Nd3A 1_555 1_555
O15A Nd3A_2 1_555 1_555
O15A_2 Nd3A 1_555 1_555
O16A Nd2A 1_555 1_555
O17A Nd1A_3 1_555 1_555
O17A_2 Nd1A 1_555 1_555
O18A Nd2A 1_555 1_555
O19A Nd3A 1_555 1_555
O20A Nd3A 1_555 1_555
H2A O20A 1_555 1_555
H3A O20A 1_555 1_555
C1A O3A 1_555 1_555
C2A O4A 1_555 1_555
C3A O6A 1_555 1_555
C4A C1A 1_555 1_555
C5A C2A 1_555 1_555
C6A C3A 1_555 1_555
C7A C6A 1_555 1_555
H6A C7A 1_555 1_555
C8A C7A 1_555 1_555
H7A C8A 1_555 1_555
C9A C4A 1_555 1_555
H8A C9A 1_555 1_555
C10A O8A 1_555 1_555
C11A C10A 1_555 1_555
C12A C11A 1_555 1_555
H9A C12A 1_555 1_555
C13A C12A 1_555 1_555
H10A C13A 1_555 1_555
N1A C13A 1_555 1_555
N1_2 Cu1 1_555 1_555
N1A_2 Cu1A 1_555 1_555
C14A N1A 1_555 1_555
H11A C14A 1_555 1_555
C15A C11A 1_555 1_555
H12A C15A 1_555 1_555
C16A O10A 1_555 1_555
C17A C16A 1_555 1_555
C18A C17A 1_555 1_555
H13A C18A 1_555 1_555
C19A C18A 1_555 1_555
H14A C19A 1_555 1_555
N2A Cu2A 1_555 1_555
C20A N2A 1_555 1_555
H15A C20A 1_555 1_555
C21A C17A 1_555 1_555
H16A C21A 1_555 1_555
C22A O12A 1_555 1_555
C23A C22A 1_555 1_555
C24A C23A 1_555 1_555
H17A C24A 1_555 1_555
C25A C24A 1_555 1_555
H18A C25A 1_555 1_555
N3A Cu3A 1_555 1_555
C26A N3A 1_555 1_555
H19A C26A 1_555 1_555
C27A C23A 1_555 1_555
H20A C27A 1_555 1_555
C28A O14A 1_555 1_555
C29A C28A 1_555 1_555
C30A C29A 1_555 1_555
H21A C30A 1_555 1_555
C31A C30A 1_555 1_555
H22A C31A 1_555 1_555
N4A Cu4A 1_555 1_555
C32A N4A 1_555 1_555
H23A C32A 1_555 1_555
C33A C29A 1_555 1_555
H24A C33A 1_555 1_555
C34A O16A 1_555 1_555
C35A C34A 1_555 1_555
C36A C35A 1_555 1_555
H25A C36A 1_555 1_555
C37A C36A 1_555 1_555
H26A C37A 1_555 1_555
N5A C37A 1_555 1_555
N5A_2 Cu3 1_555 1_555
N5_2 Cu3A 1_555 1_555
C38A N5A 1_555 1_555
H27A C38A 1_555 1_555
C39A C35A 1_555 1_555
H28A C39A 1_555 1_555
C40A O18A 1_555 1_555
C41A C40A 1_555 1_555
C42A C41A 1_555 1_555
H29A C42A 1_555 1_555
C43A C42A 1_555 1_555
H30A C43A 1_555 1_555
N6A Cu5 1_555 1_555
C44A N6A 1_555 1_555
H31A C44A 1_555 1_555
C45A C41A 1_555 1_555
H32A C45A 1_555 1_555
Nd3 O16 1_555 1_555
Cu2 I2 1_555 1_555
O3 Nd1A 1_555 1_555
O7 Nd3A_2 1_555 1_555
O10 Nd1A 1_555 1_555
O13 C22 1_555 1_555
O14 Nd3A_2 1_555 1_555
O17 C34 1_555 1_555
O19 C40 1_555 1_555
C4 C5 1_555 1_555
C5 C6 1_555 1_555
C8 C9 1_555 1_555
C14 C15 1_555 1_555
C19 N2 1_555 1_555
C20 C21 1_555 1_555
C25 N3 1_555 1_555
C26 C27 1_555 1_555
C31 N4 1_555 1_555
C32 C33 1_555 1_555
C38 C39 1_555 1_555
C44 C45 1_555 1_555
Nd1A O1A 1_555 1_555
Nd2A O2A_3 1_555 1_555
Nd2A_2 O1A 1_555 1_555
Nd2A_2 O2A_2 1_555 1_555
Nd3A O16A 1_555 1_555
Nd3A_2 O4A 1_555 1_555
Nd3A_2 O6A 1_555 1_555
Cu1_2 I4A 1_555 1_555
Cu2A_2 I1A 1_555 1_555
Cu2A_2 I2A_3 1_555 1_555
Cu3A I3_2 1_555 1_555
Cu4A I4A_2 1_555 1_555
Cu4A_2 I4A 1_555 1_555
O7A C3A 1_555 1_555
O9A C10A 1_555 1_555
O11A C16A 1_555 1_555
O13A C22A 1_555 1_555
O15A C28A 1_555 1_555
O17A C34A 1_555 1_555
O19A C40A 1_555 1_555
C4A C5A 1_555 1_555
C5A C6A 1_555 1_555
C8A C9A 1_555 1_555
C14A C15A 1_555 1_555
C19A N2A 1_555 1_555
C20A C21A 1_555 1_555
C25A N3A 1_555 1_555
C26A C27A 1_555 1_555
C31A N4A 1_555 1_555
C32A C33A 1_555 1_555
C38A C39A 1_555 1_555
C43A N6A 1_555 1_555
C44A C45A 1_555 1_555

#END
