
#######################################################################
#
#                 Cambridge Crystallographic Data Centre
#                                CCDC 
#
#######################################################################
#
# If this CIF has been generated from an entry in the Cambridge 
# Structural Database, then it will include bibliographic, chemical, 
# crystal, experimental, refinement or atomic coordinate data resulting 
# from the CCDC's data processing and validation procedures.
#
#######################################################################

data_LAZPUZ
_symmetry_cell_setting           orthorhombic
_symmetry_space_group_name_H-M   'P b c a'
_symmetry_Int_Tables_number      61
_space_group_name_Hall           '-P 2ac 2ab'
loop_
_symmetry_equiv_pos_site_id
_symmetry_equiv_pos_as_xyz
1 x,y,z
2 1/2-x,-y,1/2+z
3 1/2+x,1/2-y,-z
4 -x,1/2+y,1/2-z
5 -x,-y,-z
6 1/2+x,y,1/2-z
7 1/2-x,1/2+y,z
8 x,1/2-y,1/2+z
_cell_length_a                   7.9529(2)
_cell_length_b                   17.2466(7)
_cell_length_c                   23.2702(7)
_cell_angle_alpha                90
_cell_angle_beta                 90
_cell_angle_gamma                90
_cell_volume                     3191.75
loop_
_atom_site_label
_atom_site_type_symbol
_atom_site_fract_x
_atom_site_fract_y
_atom_site_fract_z
Pr1 Pr 1.13915(3) 0.104040(14) 0.718380(10)
Cu1 Cu 0.5000 0.0000 1.0000
O1 O 1.3159(4) 0.0921(2) 0.80656(14)
O2 O 1.4551(4) 0.1844(2) 0.85115(15)
O3 O 0.9530(4) 0.05876(19) 0.79759(13)
O4 O 1.0291(5) -0.0291(2) 0.86329(15)
O5 O 0.6843(4) 0.0644(2) 0.88501(14)
O6 O 0.7070(4) 0.0483(2) 0.97931(14)
O7 O 0.3020(4) 0.2869(2) 1.19343(16)
O8 O 0.5701(4) 0.27719(19) 1.21977(14)
O9 O 1.1450(5) -0.0379(2) 0.71984(16)
H1 H 1.2326 -0.0661 0.7190
H2 H 1.0784 -0.0663 0.7391
N1 N 0.4868(5) 0.0773(2) 1.06411(16)
C1 C 1.3302(6) 0.1417(3) 0.84776(19)
C2 C 1.0096(5) 0.0383(3) 0.84713(19)
C3 C 0.7591(6) 0.0719(3) 0.93074(19)
C4 C 1.1962(5) 0.1451(3) 0.89270(19)
C5 C 1.0465(6) 0.1016(3) 0.89059(18)
C6 C 0.9260(6) 0.1127(3) 0.93327(19)
C7 C 0.9547(6) 0.1643(3) 0.9780(2)
H5 H 0.8745 0.1700 1.0067
C8 C 1.1011(6) 0.2072(3) 0.9801(2)
H6 H 1.1193 0.2422 1.0098
C9 C 1.2206(6) 0.1972(3) 0.9374(2)
H7 H 1.3192 0.2262 0.9387
C10 C 0.4451(6) 0.2575(3) 1.19034(19)
C11 C 0.4637(6) 0.1937(3) 1.14662(19)
C12 C 0.6120(6) 0.1527(3) 1.1389(2)
H8 H 0.7055 0.1633 1.1616
C13 C 0.6191(6) 0.0958(3) 1.0971(2)
H9 H 0.7197 0.0693 1.0916
C14 C 0.3424(6) 0.1161(3) 1.0729(2)
H10 H 0.2488 0.1028 1.0510
C15 C 0.3270(6) 0.1742(3) 1.1126(2)
H11 H 0.2255 0.2004 1.1167
Pr1D Pr -0.13915(3) -0.104040(14) 1.281620(10)
Pr1E Pr 1.63915(3) 0.104040(14) 0.781620(10)
Pr1E_2 Pr 0.63915(3) 0.104040(14) 0.781620(10)
Pr1G Pr 0.13915(3) 0.395960(14) 1.218380(10)
Pr1B Pr 0.63915(3) 0.395960(14) 1.281620(10)
Pr1A Pr -0.63915(3) -0.104040(14) 1.218380(10)
Pr1A_2 Pr 0.36085(3) -0.104040(14) 1.218380(10)
Pr1C Pr 0.86085(3) -0.395960(14) 0.781620(10)
Pr1F Pr 0.36085(3) -0.395960(14) 0.718380(10)
O1D O -0.3159(4) -0.0921(2) 1.19344(14)
O1E O 0.8159(4) 0.0921(2) 0.69344(14)
O1A O 0.1841(4) -0.0921(2) 1.30656(14)
O2D O -0.4551(4) -0.1844(2) 1.14885(15)
O2E O 0.9551(4) 0.1844(2) 0.64885(15)
O2A O 0.0449(4) -0.1844(2) 1.35115(15)
O3D O 0.0470(4) -0.05876(19) 1.20241(13)
O3E O 1.4530(4) 0.05876(19) 0.70241(13)
O3A O -0.4530(4) -0.05876(19) 1.29759(13)
O4D O -0.0291(5) 0.0291(2) 1.13671(15)
O5D O 0.3157(4) -0.0644(2) 1.11499(14)
O5E O 1.1843(4) 0.0644(2) 0.61499(14)
O5A O -0.1843(4) -0.0644(2) 1.38501(14)
O6D O 0.2930(4) -0.0483(2) 1.02069(14)
O7D O 0.6980(4) -0.2869(2) 0.80657(16)
O7G O 1.3020(4) 0.2131(2) 0.69343(16)
O7C O -0.3020(4) -0.2131(2) 1.30657(16)
O8D O 0.4299(4) -0.27719(19) 0.78023(14)
O8B O 1.0701(4) 0.22281(19) 0.78023(14)
O8F O -0.0701(4) -0.22281(19) 1.21977(14)
O9D O -0.1450(5) 0.0379(2) 1.28016(16)
H1D H -0.2326 0.0661 1.2810
H2D H -0.0784 0.0663 1.2609
N1D N 0.5132(5) -0.0773(2) 0.93589(16)
C1D C -0.3302(6) -0.1417(3) 1.15224(19)
C2D C -0.0096(5) -0.0383(3) 1.15287(19)
C3D C 0.2409(6) -0.0719(3) 1.06926(19)
C4D C -0.1962(5) -0.1451(3) 1.10730(19)
C5D C -0.0465(6) -0.1016(3) 1.10941(18)
C6D C 0.0740(6) -0.1127(3) 1.06673(19)
C7D C 0.0453(6) -0.1643(3) 1.0220(2)
H5D H 0.1255 -0.1700 0.9933
C8D C -0.1011(6) -0.2072(3) 1.0199(2)
H6D H -0.1193 -0.2422 0.9902
C9D C -0.2206(6) -0.1972(3) 1.0626(2)
H7D H -0.3192 -0.2262 1.0613
C10D C 0.5549(6) -0.2575(3) 0.80966(19)
C11D C 0.5363(6) -0.1937(3) 0.85338(19)
C12D C 0.3880(6) -0.1527(3) 0.8611(2)
H8D H 0.2945 -0.1633 0.8384
C13D C 0.3809(6) -0.0958(3) 0.9029(2)
H9D H 0.2803 -0.0693 0.9084
C14D C 0.6576(6) -0.1161(3) 0.9271(2)
H10D H 0.7512 -0.1028 0.9490
C15D C 0.6730(6) -0.1742(3) 0.8874(2)
H11D H 0.7745 -0.2004 0.8833
O10 O 0.4307(6) -0.1298(2) 0.71751(16)
H3 H 0.4657 -0.1369 0.6834
H4 H 0.4144 -0.1734 0.7336
loop_
_geom_bond_atom_site_label_1
_geom_bond_atom_site_label_2
_geom_bond_site_symmetry_1
_geom_bond_site_symmetry_2
Pr1 O1 1_555 1_555
Cu1 O6 1_555 1_555
O1 C1 1_555 1_555
O2 C1 1_555 1_555
O3 Pr1 1_555 1_555
O4 C2 1_555 1_555
O5 C3 1_555 1_555
O6 C3 1_555 1_555
O7 C10 1_555 1_555
O8 C10 1_555 1_555
O9 Pr1 1_555 1_555
H1 O9 1_555 1_555
H2 O9 1_555 1_555
O10 H3 1_555 1_555
H4 O10 1_555 1_555
N1 Cu1 1_555 1_555
C1 C4 1_555 1_555
C2 O3 1_555 1_555
C3 C6 1_555 1_555
C4 C5 1_555 1_555
C5 C2 1_555 1_555
C6 C5 1_555 1_555
C7 C6 1_555 1_555
H5 C7 1_555 1_555
C8 C7 1_555 1_555
H6 C8 1_555 1_555
C9 C4 1_555 1_555
H7 C9 1_555 1_555
C10 C11 1_555 1_555
C11 C12 1_555 1_555
C12 H8 1_555 1_555
C13 N1 1_555 1_555
H9 C13 1_555 1_555
C14 N1 1_555 1_555
H10 C14 1_555 1_555
C15 C11 1_555 1_555
H11 C15 1_555 1_555
Pr1D O1D 1_555 1_555
Pr1E O1 1_555 1_555
Pr1E_2 O3 1_555 1_555
Pr1G O7 1_555 1_555
Pr1B O8 1_555 1_555
Pr1A O1D 1_555 1_555
Pr1A_2 O1A 1_555 1_555
Pr1C O7D 1_555 1_555
Pr1F O8D 1_555 1_555
O1D C1D 1_555 1_555
O1E Pr1 1_555 1_555
O1A Pr1D 1_555 1_555
O2D Pr1A 1_555 1_555
O2E Pr1 1_555 1_555
O2A Pr1D 1_555 1_555
O3D Pr1D 1_555 1_555
O3E Pr1 1_555 1_555
O3A Pr1D 1_555 1_555
O4D C2D 1_555 1_555
O5D Pr1A_2 1_555 1_555
O5E Pr1 1_555 1_555
O5A Pr1D 1_555 1_555
O6D Cu1 1_555 1_555
O7D C10D 1_555 1_555
O7G Pr1 1_555 1_555
O7C Pr1D 1_555 1_555
O8D C10D 1_555 1_555
O8B Pr1 1_555 1_555
O8F Pr1D 1_555 1_555
O9D Pr1D 1_555 1_555
H1D O9D 1_555 1_555
H2D O9D 1_555 1_555
N1D Cu1 1_555 1_555
C1D O2D 1_555 1_555
C2D O3D 1_555 1_555
C3D O5D 1_555 1_555
C4D C1D 1_555 1_555
C5D C2D 1_555 1_555
C6D C3D 1_555 1_555
C7D C6D 1_555 1_555
H5D C7D 1_555 1_555
C8D C7D 1_555 1_555
H6D C8D 1_555 1_555
C9D C4D 1_555 1_555
H7D C9D 1_555 1_555
C10D C11D 1_555 1_555
C11D C12D 1_555 1_555
C12D H8D 1_555 1_555
C13D N1D 1_555 1_555
H9D C13D 1_555 1_555
C14D N1D 1_555 1_555
H10D C14D 1_555 1_555
C15D C11D 1_555 1_555
H11D C15D 1_555 1_555
O2 Pr1E 1_555 1_555
O5 Pr1E_2 1_555 1_555
C8 C9 1_555 1_555
C12 C13 1_555 1_555
C14 C15 1_555 1_555
Pr1E O3E 1_555 1_555
Pr1E_2 O1E 1_555 1_555
Pr1A O3A 1_555 1_555
Pr1A_2 O3D 1_555 1_555
O6D C3D 1_555 1_555
C4D C5D 1_555 1_555
C5D C6D 1_555 1_555
C8D C9D 1_555 1_555
C12D C13D 1_555 1_555
C14D C15D 1_555 1_555

#END
