
#######################################################################
#
#                 Cambridge Crystallographic Data Centre
#                                CCDC 
#
#######################################################################
#
# If this CIF has been generated from an entry in the Cambridge 
# Structural Database, then it will include bibliographic, chemical, 
# crystal, experimental, refinement or atomic coordinate data resulting 
# from the CCDC's data processing and validation procedures.
#
#######################################################################

data_LAZPOT
_symmetry_cell_setting           orthorhombic
_symmetry_space_group_name_H-M   'P b c a'
_symmetry_Int_Tables_number      61
_space_group_name_Hall           '-P 2ac 2ab'
loop_
_symmetry_equiv_pos_site_id
_symmetry_equiv_pos_as_xyz
1 x,y,z
2 1/2-x,-y,1/2+z
3 1/2+x,1/2-y,-z
4 -x,1/2+y,1/2-z
5 -x,-y,-z
6 1/2+x,y,1/2-z
7 1/2-x,1/2+y,z
8 x,1/2-y,1/2+z
_cell_length_a                   7.9905(3)
_cell_length_b                   17.2450(5)
_cell_length_c                   23.2987(7)
_cell_angle_alpha                90
_cell_angle_beta                 90
_cell_angle_gamma                90
_cell_volume                     3210.47
loop_
_atom_site_label
_atom_site_type_symbol
_atom_site_fract_x
_atom_site_fract_y
_atom_site_fract_z
Ce1 Ce -0.13837(2) 0.103390(11) -0.218030(8)
Cu1 Cu 0.5000 0.0000 -0.5000
O1 O -0.3142(3) 0.09096(15) -0.30702(11)
O2 O -0.4530(3) 0.18360(17) -0.35178(13)
O3 O 0.0475(3) 0.05789(15) -0.29805(10)
O4 O -0.0284(4) -0.02960(16) -0.36349(12)
O5 O 0.3155(3) 0.06349(17) -0.38555(12)
O6 O 0.2913(4) 0.04688(18) -0.48034(11)
O7 O 0.6986(4) 0.28665(16) -0.69302(13)
O8 O 0.4319(4) 0.27700(16) -0.71981(11)
O9 O -0.1457(4) -0.03937(18) -0.22007(13)
H1 H -0.0787 -0.0673 -0.2394
H2 H -0.2334 -0.0672 -0.2191
C1 C -0.3284(5) 0.1401(2) -0.34833(16)
C2 C -0.0101(4) 0.0377(2) -0.34725(15)
C3 C 0.2396(5) 0.0703(2) -0.43180(16)
C4 C -0.1943(5) 0.1445(2) -0.39341(15)
C5 C -0.0468(5) 0.1003(2) -0.39103(14)
C6 C 0.0738(5) 0.1117(2) -0.43393(16)
C7 C 0.0456(5) 0.1634(2) -0.47853(16)
H5 H 0.1251 0.1690 -0.5074
C8 C -0.0998(5) 0.2065(2) -0.48026(17)
H6 H -0.1177 0.2418 -0.5098
C9 C -0.2186(5) 0.1967(2) -0.43777(16)
H7 H -0.3166 0.2257 -0.4390
C10 C 0.5546(5) 0.2576(2) -0.69022(16)
C11 C 0.5369(5) 0.1937(2) -0.64652(15)
C12 C 0.3891(5) 0.1525(2) -0.63856(17)
H8 H 0.2963 0.1632 -0.6613
C13 C 0.3803(5) 0.0958(2) -0.59709(17)
H9 H 0.2799 0.0695 -0.5917
N1 N 0.5126(4) 0.07722(19) -0.56404(13)
C14 C 0.6573(5) 0.1156(2) -0.57268(17)
H10 H 0.7503 0.1019 -0.5509
C15 C 0.6728(5) 0.1738(2) -0.61225(16)
H11 H 0.7740 0.1999 -0.6162
Ce1A Ce 1.63837(2) -0.103390(11) -0.718030(8)
Ce1E Ce -0.63837(2) 0.103390(11) -0.281970(8)
Ce1E_2 Ce 0.36163(2) 0.103390(11) -0.281970(8)
Ce1G Ce 0.86163(2) 0.396610(11) -0.718030(8)
Ce1B Ce 0.36163(2) 0.396610(11) -0.781970(8)
Ce1D Ce 1.13837(2) -0.103390(11) -0.781970(8)
Ce1A_2 Ce 0.63837(2) -0.103390(11) -0.718030(8)
Ce1C Ce 0.13837(2) -0.396610(11) -0.281970(8)
Ce1F Ce 0.63837(2) -0.396610(11) -0.218030(8)
O1D O 1.3142(3) -0.09096(15) -0.69298(11)
O1E O 0.1858(3) 0.09096(15) -0.19298(11)
O1A O 0.8142(3) -0.09096(15) -0.80702(11)
O2D O 1.4530(3) -0.18360(17) -0.64822(13)
O2E O 0.0470(3) 0.18360(17) -0.14822(13)
O2A O 0.9530(3) -0.18360(17) -0.85178(13)
O3D O 0.9525(3) -0.05789(15) -0.70195(10)
O3E O -0.4525(3) 0.05789(15) -0.20195(10)
O3A O 1.4525(3) -0.05789(15) -0.79805(10)
O4D O 1.0284(4) 0.02960(16) -0.63651(12)
O5D O 0.6845(3) -0.06349(17) -0.61445(12)
O5E O -0.1845(3) 0.06349(17) -0.11445(12)
O5A O 1.1845(3) -0.06349(17) -0.88555(12)
O6D O 0.7087(4) -0.04688(18) -0.51966(11)
O7D O 0.3014(4) -0.28665(16) -0.30698(13)
O7G O -0.3014(4) 0.21335(16) -0.19302(13)
O7C O 1.3014(4) -0.21335(16) -0.80698(13)
O8D O 0.5681(4) -0.27700(16) -0.28019(11)
O8B O -0.0681(4) 0.22300(16) -0.28019(11)
O8F O 1.0681(4) -0.22300(16) -0.71981(11)
O9D O 1.1457(4) 0.03937(18) -0.77993(13)
H1D H 1.0787 0.0673 -0.7606
H2D H 1.2334 0.0672 -0.7809
C1D C 1.3284(5) -0.1401(2) -0.65167(16)
C2D C 1.0101(4) -0.0377(2) -0.65275(15)
C3D C 0.7604(5) -0.0703(2) -0.56820(16)
C4D C 1.1943(5) -0.1445(2) -0.60659(15)
C5D C 1.0468(5) -0.1003(2) -0.60897(14)
C6D C 0.9262(5) -0.1117(2) -0.56607(16)
C7D C 0.9544(5) -0.1634(2) -0.52147(16)
H5D H 0.8749 -0.1690 -0.4926
C8D C 1.0998(5) -0.2065(2) -0.51974(17)
H6D H 1.1177 -0.2418 -0.4902
C9D C 1.2186(5) -0.1967(2) -0.56223(16)
H7D H 1.3166 -0.2257 -0.5610
C10D C 0.4454(5) -0.2576(2) -0.30978(16)
C11D C 0.4631(5) -0.1937(2) -0.35348(15)
C12D C 0.6109(5) -0.1525(2) -0.36144(17)
H8D H 0.7037 -0.1632 -0.3387
C13D C 0.6197(5) -0.0958(2) -0.40291(17)
H9D H 0.7201 -0.0695 -0.4083
N1D N 0.4874(4) -0.07722(19) -0.43596(13)
C14D C 0.3427(5) -0.1156(2) -0.42732(17)
H10D H 0.2497 -0.1019 -0.4491
C15D C 0.3272(5) -0.1738(2) -0.38775(16)
H11D H 0.2260 -0.1999 -0.3838
O10 O 0.0695(5) -0.1296(2) -0.28286(13)
H3 H 0.0344 -0.1356 -0.3170
H4 H 0.0691 -0.1723 -0.2645
loop_
_geom_bond_atom_site_label_1
_geom_bond_atom_site_label_2
_geom_bond_site_symmetry_1
_geom_bond_site_symmetry_2
Ce1 O1 1_555 1_555
Cu1 O6 1_555 1_555
O1 C1 1_555 1_555
O2 C1 1_555 1_555
O3 Ce1 1_555 1_555
O4 C2 1_555 1_555
O5 C3 1_555 1_555
O6 C3 1_555 1_555
O7 C10 1_555 1_555
O8 C10 1_555 1_555
O9 Ce1 1_555 1_555
H1 O9 1_555 1_555
H2 O9 1_555 1_555
O10 H3 1_555 1_555
H4 O10 1_555 1_555
C1 C4 1_555 1_555
C2 O3 1_555 1_555
C3 C6 1_555 1_555
C4 C5 1_555 1_555
C5 C2 1_555 1_555
C6 C5 1_555 1_555
C7 C6 1_555 1_555
H5 C7 1_555 1_555
C8 C7 1_555 1_555
H6 C8 1_555 1_555
C9 C4 1_555 1_555
H7 C9 1_555 1_555
C10 C11 1_555 1_555
C11 C12 1_555 1_555
C12 H8 1_555 1_555
C13 C12 1_555 1_555
H9 C13 1_555 1_555
N1 Cu1 1_555 1_555
C14 N1 1_555 1_555
H10 C14 1_555 1_555
C15 C11 1_555 1_555
H11 C15 1_555 1_555
Ce1A O1D 1_555 1_555
Ce1E O1 1_555 1_555
Ce1E_2 O3 1_555 1_555
Ce1G O7 1_555 1_555
Ce1B O8 1_555 1_555
Ce1D O1D 1_555 1_555
Ce1A_2 O1A 1_555 1_555
Ce1C O7D 1_555 1_555
Ce1F O8D 1_555 1_555
O1D C1D 1_555 1_555
O1E Ce1 1_555 1_555
O1A Ce1D 1_555 1_555
O2D Ce1A 1_555 1_555
O2E Ce1 1_555 1_555
O2A Ce1D 1_555 1_555
O3D Ce1D 1_555 1_555
O3E Ce1 1_555 1_555
O3A Ce1A 1_555 1_555
O4D C2D 1_555 1_555
O5D Ce1A_2 1_555 1_555
O5E Ce1 1_555 1_555
O5A Ce1D 1_555 1_555
O6D Cu1 1_555 1_555
O7D C10D 1_555 1_555
O7G Ce1 1_555 1_555
O7C Ce1D 1_555 1_555
O8D C10D 1_555 1_555
O8B Ce1 1_555 1_555
O8F Ce1D 1_555 1_555
O9D Ce1D 1_555 1_555
H1D O9D 1_555 1_555
H2D O9D 1_555 1_555
C1D O2D 1_555 1_555
C2D O3D 1_555 1_555
C3D O5D 1_555 1_555
C4D C1D 1_555 1_555
C5D C2D 1_555 1_555
C6D C3D 1_555 1_555
C7D C6D 1_555 1_555
H5D C7D 1_555 1_555
C8D C7D 1_555 1_555
H6D C8D 1_555 1_555
C9D C4D 1_555 1_555
H7D C9D 1_555 1_555
C10D C11D 1_555 1_555
C11D C12D 1_555 1_555
C12D H8D 1_555 1_555
C13D C12D 1_555 1_555
H9D C13D 1_555 1_555
N1D Cu1 1_555 1_555
C14D N1D 1_555 1_555
H10D C14D 1_555 1_555
C15D C11D 1_555 1_555
H11D C15D 1_555 1_555
O2 Ce1E 1_555 1_555
O5 Ce1E_2 1_555 1_555
C8 C9 1_555 1_555
C13 N1 1_555 1_555
C14 C15 1_555 1_555
Ce1E O3E 1_555 1_555
Ce1E_2 O1E 1_555 1_555
Ce1D O3A 1_555 1_555
Ce1A_2 O3D 1_555 1_555
O6D C3D 1_555 1_555
C4D C5D 1_555 1_555
C5D C6D 1_555 1_555
C8D C9D 1_555 1_555
C13D N1D 1_555 1_555
C14D C15D 1_555 1_555

#END
