
#######################################################################
#
#                 Cambridge Crystallographic Data Centre
#                                CCDC 
#
#######################################################################
#
# If this CIF has been generated from an entry in the Cambridge 
# Structural Database, then it will include bibliographic, chemical, 
# crystal, experimental, refinement or atomic coordinate data resulting 
# from the CCDC's data processing and validation procedures.
#
#######################################################################

data_LAZQUA
_symmetry_cell_setting           monoclinic
_symmetry_space_group_name_H-M   'P 21/n'
_symmetry_Int_Tables_number      14
_space_group_name_Hall           '-P 2yn'
loop_
_symmetry_equiv_pos_site_id
_symmetry_equiv_pos_as_xyz
1 x,y,z
2 1/2-x,1/2+y,1/2-z
3 -x,-y,-z
4 1/2+x,1/2-y,1/2+z
_cell_length_a                   17.4870(19)
_cell_length_b                   10.8823(11)
_cell_length_c                   18.0449(19)
_cell_angle_alpha                90
_cell_angle_beta                 116.170(2)
_cell_angle_gamma                90
_cell_volume                     3081.91
loop_
_atom_site_label
_atom_site_type_symbol
_atom_site_fract_x
_atom_site_fract_y
_atom_site_fract_z
C1 C 1.03153(18) 0.9748(3) 0.27324(17)
C2 C 0.97303(18) 0.9800(3) 0.31515(17)
C3 C 0.9467(2) 0.8729(3) 0.3387(2)
H1 H 0.9683 0.7945 0.3324
C4 C 0.8886(2) 0.8813(3) 0.3716(2)
C5 C 0.8579(2) 0.9929(3) 0.3833(2)
H2 H 0.8176 0.9970 0.4061
C6 C 0.8865(2) 1.0986(3) 0.3602(2)
C7 C 0.9439(2) 1.0933(3) 0.3267(2)
H3 H 0.9642 1.1673 0.3126
C8 C 0.8064(3) 0.7626(4) 0.4240(3)
H4 H 0.6354 1.3818 0.3745
C9 C 0.7266(3) 0.7160(4) 0.3771(3)
H5 H 0.7090 0.6977 0.3198
C10 C 0.6717(2) 0.6961(4) 0.4121(2)
H6 H 0.6174 0.6654 0.3801
C11 C 0.69748(19) 0.7216(3) 0.49500(18)
C12 C 0.7776(2) 0.7718(4) 0.5406(2)
C13 C 0.8325(3) 0.7915(4) 0.5055(3)
H7 H 0.8885 0.8241 0.5379
C14 C 0.63942(18) 0.6928(2) 0.53461(17)
C15 C 0.8103(3) 1.2417(3) 0.4072(3)
C16 C 0.8427(3) 1.2229(4) 0.4902(3)
H8 H 0.8957 1.1803 0.5193
C17 C 0.7976(2) 1.2663(3) 0.5322(2)
H9 H 0.8194 1.2553 0.5890
H10 H 0.7939 0.7934 0.5947
C18 C 0.72021(19) 1.3259(3) 0.48914(18)
C19 C 0.6892(2) 1.3426(4) 0.4047(2)
C20 C 0.7343(3) 1.3003(4) 0.3634(2)
H11 H 0.7125 1.3121 0.3049
C21 C 0.67071(18) 1.3758(3) 0.53228(17)
C22 C 1.25629(19) 0.9495(3) 0.34274(19)
H12 H 1.2078 0.9882 0.3445
C23 C 1.33574(19) 0.9757(3) 0.40521(19)
H13 H 1.3414 1.0306 0.4490
C24 C 1.40728(18) 0.9237(3) 0.40526(17)
C25 C 1.3945(2) 0.8432(3) 0.3407(2)
H14 H 1.4422 0.8033 0.3382
C26 C 1.3132(2) 0.8217(3) 0.2805(2)
H15 H 1.3058 0.7656 0.2367
C27 C 1.49715(19) 0.9505(3) 0.46896(19)
Co1 Co 1.11987(2) 0.81689(3) 0.19384(2)
Co2 Co 0.5000 1.5000 0.5000
N1 N 1.24323(15) 0.8735(2) 0.28025(15)
O1 O 1.06194(13) 0.8709(2) 0.26923(13)
O2 O 1.04412(17) 1.0732(2) 0.24536(16)
O3 O 0.8634(2) 0.7692(3) 0.3889(2)
O4 O 0.8567(2) 1.2138(3) 0.3629(2)
O5 O 0.59087(12) 1.3879(2) 0.48782(12)
O6 O 0.70771(13) 1.4049(2) 0.60663(12)
O7 O 0.56863(13) 0.64591(19) 0.48938(12)
O8 O 0.66696(13) 0.71983(19) 0.60947(12)
O9 O 1.00590(14) 0.7264(2) 0.12115(13)
H16 H 0.9606 0.7692 0.1019
H17 H 0.9998 0.6541 0.1356
O10 O 1.15289(15) 0.6423(2) 0.25088(14)
H18 H 1.1130 0.5919 0.2434
H19 H 1.1964 0.6372 0.2973
O11 O 0.41699(12) 1.49517(16) 0.36809(11)
C1B C -0.03153(18) 2.0252(3) 0.72676(17)
C2B C 0.02697(18) 2.0200(3) 0.68485(17)
C3B C 0.0533(2) 2.1271(3) 0.6613(2)
H1B H 0.0317 2.2055 0.6676
C4B C 0.1114(2) 2.1187(3) 0.6284(2)
C5B C 0.1421(2) 2.0071(3) 0.6167(2)
H2B H 0.1824 2.0030 0.5939
C6B C 0.1135(2) 1.9014(3) 0.6398(2)
C7B C 0.0561(2) 1.9067(3) 0.6733(2)
H3B H 0.0358 1.8327 0.6874
C8B C 0.1936(3) 2.2374(4) 0.5760(3)
H4B H 0.3646 1.6182 0.6255
C9B C 0.2734(3) 2.2840(4) 0.6229(3)
H5B H 0.2910 2.3023 0.6802
C10B C 0.3283(2) 2.3039(4) 0.5879(2)
H6B H 0.3826 2.3346 0.6199
C11B C 0.30252(19) 2.2784(3) 0.50500(18)
C12B C 0.2224(2) 2.2282(4) 0.4594(2)
C13B C 0.1675(3) 2.2085(4) 0.4945(3)
H7B H 0.1115 2.1759 0.4621
C14B C 0.36058(18) 2.3072(2) 0.46539(17)
C15B C 0.1897(3) 1.7583(3) 0.5928(3)
C16B C 0.1573(3) 1.7771(4) 0.5098(3)
H8B H 0.1043 1.8197 0.4807
C17B C 0.2024(2) 1.7337(3) 0.4678(2)
H9B H 0.1806 1.7447 0.4110
H10B H 0.2061 2.2066 0.4053
C18B C 0.27979(19) 1.6741(3) 0.51086(18)
C19B C 0.3108(2) 1.6574(4) 0.5953(2)
C20B C 0.2657(3) 1.6997(4) 0.6366(2)
H11B H 0.2875 1.6879 0.6951
C21B C 0.32929(18) 1.6242(3) 0.46772(17)
C22B C 1.74371(19) 1.0505(3) 0.65726(19)
H12B H 1.7922 1.0118 0.6555
C23B C 1.66426(19) 1.0243(3) 0.59479(19)
H13B H 1.6586 0.9694 0.5510
C24B C 1.59272(18) 1.0763(3) 0.59474(17)
C25B C 1.6055(2) 1.1568(3) 0.6593(2)
H14B H 1.5578 1.1967 0.6618
C26B C 1.6868(2) 1.1783(3) 0.7195(2)
H15B H 1.6942 1.2344 0.7633
C27B C 1.50285(19) 1.0495(3) 0.53104(19)
Co1B Co -0.11987(2) 2.18311(3) 0.80616(2)
Co1C Co 0.61987(2) 0.68311(3) 0.69384(2)
Co1A Co 0.38013(2) 1.31689(3) 0.30616(2)
Co1B_2 Co 1.88013(2) 1.18311(3) 0.80616(2)
Co1A_2 Co 0.38013(2) 2.31689(3) 0.30616(2)
Co1C_2 Co 0.61987(2) 1.68311(3) 0.69384(2)
Co2_2 Co 0.5000 0.5000 0.5000
Co2_3 Co 0.5000 2.5000 0.5000
N1B N 1.75677(15) 1.1265(2) 0.71975(15)
N1B_2 N -0.24323(15) 2.1265(2) 0.71975(15)
O1B O -0.06194(13) 2.1291(2) 0.73077(13)
O2B O -0.04412(17) 1.9268(2) 0.75464(16)
O3B O 0.1366(2) 2.2308(3) 0.6111(2)
O4B O 0.1433(2) 1.7862(3) 0.6371(2)
O5B O 0.40913(12) 1.6121(2) 0.51218(12)
O6B O 0.29229(13) 1.5951(2) 0.39337(12)
O7B O 0.43137(13) 2.35409(19) 0.51062(12)
O7_2 O 0.56863(13) 1.64591(19) 0.48938(12)
O7B_2 O 0.43137(13) 1.35409(19) 0.51062(12)
O8B O 0.33304(13) 2.28017(19) 0.39053(12)
O8C O 1.16696(13) 0.78017(19) 0.10947(12)
O8A O -0.16696(13) 2.21983(19) 0.89053(12)
O9B O -0.00590(14) 2.2736(2) 0.87885(13)
H16B H 0.0394 2.2308 0.8981
H17B H 0.0002 2.3459 0.8644
O10B O -0.15289(15) 2.3577(2) 0.74912(14)
H18B H -0.1130 2.4081 0.7566
H19B H -0.1964 2.3628 0.7027
O11B O 0.58301(12) 1.50483(16) 0.63191(11)
O11A O 1.08301(12) 0.99517(16) 0.13191(11)
O11C O -0.08301(12) 2.00483(16) 0.86809(11)
loop_
_geom_bond_atom_site_label_1
_geom_bond_atom_site_label_2
_geom_bond_site_symmetry_1
_geom_bond_site_symmetry_2
C1 C2 1_555 1_555
C2 C3 1_555 1_555
C3 H1 1_555 1_555
C4 C3 1_555 1_555
C5 C4 1_555 1_555
H2 C5 1_555 1_555
C6 C5 1_555 1_555
C7 C2 1_555 1_555
H3 C7 1_555 1_555
C8 C9 1_555 1_555
H4 C19 1_555 1_555
C9 H5 1_555 1_555
C10 C9 1_555 1_555
H6 C10 1_555 1_555
C11 C10 1_555 1_555
C12 C11 1_555 1_555
C13 C8 1_555 1_555
H7 C13 1_555 1_555
C14 C11 1_555 1_555
C15 C16 1_555 1_555
C16 H8 1_555 1_555
C17 C16 1_555 1_555
H9 C17 1_555 1_555
H10 C12 1_555 1_555
C18 C17 1_555 1_555
C19 C18 1_555 1_555
C20 C15 1_555 1_555
H11 C20 1_555 1_555
C21 C18 1_555 1_555
C22 H12 1_555 1_555
C23 C22 1_555 1_555
H13 C23 1_555 1_555
C24 C23 1_555 1_555
C25 C24 1_555 1_555
H14 C25 1_555 1_555
C26 C25 1_555 1_555
H15 C26 1_555 1_555
C27 C24 1_555 1_555
Co1 N1 1_555 1_555
Co2 O5 1_555 1_555
N1 C22 1_555 1_555
O1 C1 1_555 1_555
O2 C1 1_555 1_555
O3 C4 1_555 1_555
O4 C6 1_555 1_555
O5 C21 1_555 1_555
O6 C21 1_555 1_555
O7 C14 1_555 1_555
O8 C14 1_555 1_555
O9 Co1 1_555 1_555
H16 O9 1_555 1_555
H17 O9 1_555 1_555
O10 Co1 1_555 1_555
H18 O10 1_555 1_555
H19 O10 1_555 1_555
O11 Co2 1_555 1_555
C1B C2B 1_555 1_555
C2B C3B 1_555 1_555
C3B H1B 1_555 1_555
C4B C3B 1_555 1_555
C5B C4B 1_555 1_555
H2B C5B 1_555 1_555
C6B C5B 1_555 1_555
C7B C2B 1_555 1_555
H3B C7B 1_555 1_555
C8B C9B 1_555 1_555
H4B C19B 1_555 1_555
C9B H5B 1_555 1_555
C10B C9B 1_555 1_555
H6B C10B 1_555 1_555
C11B C10B 1_555 1_555
C12B C11B 1_555 1_555
C13B C8B 1_555 1_555
H7B C13B 1_555 1_555
C14B C11B 1_555 1_555
C15B C16B 1_555 1_555
C16B H8B 1_555 1_555
C17B C16B 1_555 1_555
H9B C17B 1_555 1_555
H10B C12B 1_555 1_555
C18B C17B 1_555 1_555
C19B C18B 1_555 1_555
C20B C15B 1_555 1_555
H11B C20B 1_555 1_555
C21B C18B 1_555 1_555
C22B H12B 1_555 1_555
C23B C22B 1_555 1_555
H13B C23B 1_555 1_555
C24B C23B 1_555 1_555
C25B C24B 1_555 1_555
H14B C25B 1_555 1_555
C26B C25B 1_555 1_555
H15B C26B 1_555 1_555
C27B C27 1_555 1_555
Co1B N1B_2 1_555 1_555
Co1C O8 1_555 1_555
Co1A O11 1_555 1_555
Co1B_2 N1B 1_555 1_555
Co1A_2 O8B 1_555 1_555
Co1C_2 O11B 1_555 1_555
Co2_2 O7 1_555 1_555
Co2_3 O7B 1_555 1_555
N1B C22B 1_555 1_555
O1B C1B 1_555 1_555
O2B C1B 1_555 1_555
O3B C4B 1_555 1_555
O4B C6B 1_555 1_555
O5B Co2 1_555 1_555
O6B C21B 1_555 1_555
O7B C14B 1_555 1_555
O7_2 Co2 1_555 1_555
O7B_2 Co2 1_555 1_555
O8B C14B 1_555 1_555
O8C Co1 1_555 1_555
O8A Co1B 1_555 1_555
O9B Co1B 1_555 1_555
H16B O9B 1_555 1_555
H17B O9B 1_555 1_555
O10B Co1B 1_555 1_555
H18B O10B 1_555 1_555
H19B O10B 1_555 1_555
O11B Co2 1_555 1_555
O11A Co1 1_555 1_555
O11C Co1B 1_555 1_555
C6 C7 1_555 1_555
C8 O3 1_555 1_555
C12 C13 1_555 1_555
C15 O4 1_555 1_555
C19 C20 1_555 1_555
C26 N1 1_555 1_555
Co1 O1 1_555 1_555
C6B C7B 1_555 1_555
C8B O3B 1_555 1_555
C12B C13B 1_555 1_555
C15B O4B 1_555 1_555
C19B C20B 1_555 1_555
C21B O5B 1_555 1_555
C24B C27B 1_555 1_555
C26B N1B 1_555 1_555
Co1B O1B 1_555 1_555

#END
