
#######################################################################
#
#                 Cambridge Crystallographic Data Centre
#                                CCDC 
#
#######################################################################
#
# If this CIF has been generated from an entry in the Cambridge 
# Structural Database, then it will include bibliographic, chemical, 
# crystal, experimental, refinement or atomic coordinate data resulting 
# from the CCDC's data processing and validation procedures.
#
#######################################################################

data_LAZQIO
_symmetry_cell_setting           monoclinic
_symmetry_space_group_name_H-M   'P 21/n'
_symmetry_Int_Tables_number      14
_space_group_name_Hall           '-P 2yn'
loop_
_symmetry_equiv_pos_site_id
_symmetry_equiv_pos_as_xyz
1 x,y,z
2 1/2-x,1/2+y,1/2-z
3 -x,-y,-z
4 1/2+x,1/2-y,1/2+z
_cell_length_a                   17.403(3)
_cell_length_b                   10.834(2)
_cell_length_c                   17.981(3)
_cell_angle_alpha                90
_cell_angle_beta                 116.758(4)
_cell_angle_gamma                90
_cell_volume                     3027.17
loop_
_atom_site_label
_atom_site_type_symbol
_atom_site_fract_x
_atom_site_fract_y
_atom_site_fract_z
C1 C 1.0292(3) 0.0265(5) 0.2717(3)
C2 C 0.9711(3) 0.0183(5) 0.3139(3)
C3 C 0.9473(4) -0.0963(6) 0.3296(4)
H1 H 0.9695 -0.1696 0.3163
C4 C 0.8915(4) -0.1053(6) 0.3646(4)
C5 C 0.8576(4) -0.0007(6) 0.3839(4)
H2 H 0.8184 -0.0073 0.4079
C6 C 0.8831(4) 0.1126(6) 0.3684(4)
C7 C 0.9398(4) 0.1235(6) 0.3338(4)
H3 H 0.9572 0.2037 0.3242
C8 C 0.8191(5) -0.2495(7) 0.4138(5)
C9 C 0.8507(5) -0.2339(7) 0.4973(5)
H4 H 0.9034 -0.1949 0.5274
C10 C 0.8036(4) -0.2767(6) 0.5378(4)
H5 H 0.8259 -0.2676 0.5970
C11 C 0.7258(4) -0.3336(5) 0.4925(4)
C12 C 0.6936(4) -0.3467(7) 0.4076(4)
H6 H 0.6387 -0.3853 0.3759
C13 C 0.7417(5) -0.3033(8) 0.3689(5)
H7 H 0.7198 -0.3114 0.3097
C14 C 0.6742(3) -0.3847(5) 0.5346(3)
C15 C 0.7971(5) 0.2290(7) 0.4174(5)
C16 C 0.8266(5) 0.2021(8) 0.5009(5)
H8 H 0.8834 0.1690 0.5325
C17 C 0.7741(4) 0.2238(7) 0.5379(4)
H9 H 0.7936 0.2032 0.5955
C18 C 0.6932(4) 0.2727(5) 0.4929(4)
C19 C 0.6641(4) 0.2971(6) 0.4088(4)
H10 H 0.6070 0.3286 0.3766
C20 C 0.7169(5) 0.2759(7) 0.3716(5)
H11 H 0.6976 0.2943 0.3137
C21 C 0.6357(3) 0.3018(5) 0.5343(3)
C22 C 0.7525(4) 0.4439(6) 0.8444(4)
H12 H 0.7042 0.4812 0.8441
C23 C 0.8310(4) 0.4720(6) 0.9083(4)
H13 H 0.8352 0.5256 0.9525
C24 C 0.9038(3) 0.4230(5) 0.9088(3)
C25 C 0.8933(4) 0.3389(5) 0.8475(4)
H14 H 0.9423 0.2980 0.8475
C26 C 0.8112(4) 0.3157(6) 0.7856(4)
H15 H 0.8052 0.2609 0.7435
C27 C 0.9908(4) 0.4559(6) 0.9712(4)
Co1 Co 0.61684(4) 0.31117(6) 0.69316(4)
Co2 Co 0.5000 -0.5000 0.5000
H16 H 0.5967(18) 0.109(8) 0.737(4)
H17 H 0.682(2) 0.117(6) 0.7973(15)
N1 N 0.7403(3) 0.3668(4) 0.7825(3)
O1 O 1.0563(2) 0.1314(3) 0.2654(2)
O2 O 1.0444(3) -0.0718(4) 0.2453(3)
O3 O 0.8691(4) -0.2216(5) 0.3735(4)
O4 O 0.5941(2) -0.3958(4) 0.4879(2)
O5 O 0.7115(2) -0.4134(4) 0.6091(2)
O6 O 0.8519(4) 0.2226(5) 0.3802(4)
O7 O 0.5635(2) 0.3470(3) 0.4886(2)
O8 O 0.6661(2) 0.2755(4) 0.6099(2)
O9 O 0.4169(2) -0.4915(3) 0.3679(2)
H18 H 0.4405 -0.5333 0.3437
H19 H 0.3702 -0.5279 0.3588
O10 O 0.4995(2) 0.2269(4) 0.6166(2)
H20 H 0.5081 0.1657 0.5917
H21 H 0.4763 0.2004 0.6462
O11 O 0.6465(3) 0.1361(4) 0.7478(3)
C1_2 C 1.0292(3) -0.9735(5) 0.2717(3)
C2_2 C 0.9711(3) -0.9817(5) 0.3139(3)
C3_2 C 0.9473(4) -1.0963(6) 0.3296(4)
H1_2 H 0.9695 -1.1696 0.3163
C4_2 C 0.8915(4) -1.1053(6) 0.3646(4)
C5_2 C 0.8576(4) -1.0007(6) 0.3839(4)
H2_2 H 0.8184 -1.0073 0.4079
C6_2 C 0.8831(4) -0.8874(6) 0.3684(4)
C7_2 C 0.9398(4) -0.8765(6) 0.3338(4)
H3_2 H 0.9572 -0.7963 0.3242
C8_2 C 0.8191(5) -1.2495(7) 0.4138(5)
C9_2 C 0.8507(5) -1.2339(7) 0.4973(5)
H4_2 H 0.9034 -1.1949 0.5274
C10_2 C 0.8036(4) -1.2767(6) 0.5378(4)
H5_2 H 0.8259 -1.2676 0.5970
C11_2 C 0.7258(4) -1.3336(5) 0.4925(4)
C12_2 C 0.6936(4) -1.3467(7) 0.4076(4)
H6_2 H 0.6387 -1.3853 0.3759
C13_2 C 0.7417(5) -1.3033(8) 0.3689(5)
H7_2 H 0.7198 -1.3114 0.3097
C14_2 C 0.6742(3) -1.3847(5) 0.5346(3)
C15_2 C 0.7971(5) -0.7710(7) 0.4174(5)
C16_2 C 0.8266(5) -0.7979(8) 0.5009(5)
H8_2 H 0.8834 -0.8310 0.5325
C17_2 C 0.7741(4) -0.7762(7) 0.5379(4)
H9_2 H 0.7936 -0.7968 0.5955
C18_2 C 0.6932(4) -0.7273(5) 0.4929(4)
C19_2 C 0.6641(4) -0.7029(6) 0.4088(4)
H10_2 H 0.6070 -0.6714 0.3766
C20_2 C 0.7169(5) -0.7241(7) 0.3716(5)
H11_2 H 0.6976 -0.7057 0.3137
C21_2 C 0.6357(3) -0.6982(5) 0.5343(3)
C22B C 1.2475(4) 0.5561(6) 1.1556(4)
H12B H 1.2958 0.5188 1.1559
C23B C 1.1690(4) 0.5280(6) 1.0917(4)
H13B H 1.1648 0.4744 1.0475
C24B C 1.0962(3) 0.5770(5) 1.0912(3)
C25B C 1.1067(4) 0.6611(5) 1.1525(4)
H14B H 1.0577 0.7020 1.1525
C26B C 1.1888(4) 0.6843(6) 1.2144(4)
H15B H 1.1948 0.7391 1.2565
C27B C 1.0092(4) 0.5441(6) 1.0288(4)
Co1_2 Co 0.61684(4) -0.68883(6) 0.69316(4)
Co1C Co 1.11684(4) 0.18883(6) 0.19316(4)
Co1B Co 0.38316(4) -0.31117(6) 0.30684(4)
Co1B_2 Co 1.38316(4) 0.68883(6) 1.30684(4)
Co1C_2 Co 1.11684(4) -0.81117(6) 0.19316(4)
Co2_2 Co 0.5000 0.5000 0.5000
Co2_3 Co 0.5000 -1.5000 0.5000
H16_2 H 0.5967(18) -0.891(8) 0.737(4)
H17_2 H 0.682(2) -0.883(6) 0.7973(15)
N1B N 1.2597(3) 0.6332(4) 1.2175(3)
N1_2 N 0.7403(3) -0.6332(4) 0.7825(3)
O1_2 O 1.0563(2) -0.8686(3) 0.2654(2)
O1C O 0.5563(2) 0.3686(3) 0.7654(2)
O1C_2 O 0.5563(2) -0.6314(3) 0.7654(2)
O2_2 O 1.0444(3) -1.0718(4) 0.2453(3)
O3_2 O 0.8691(4) -1.2216(5) 0.3735(4)
O4_2 O 0.5941(2) -1.3958(4) 0.4879(2)
O4B O 0.4059(2) -0.6042(4) 0.5121(2)
O5_2 O 0.7115(2) -1.4134(4) 0.6091(2)
O6_2 O 0.8519(4) -0.7774(5) 0.3802(4)
O7_2 O 0.5635(2) -0.6530(3) 0.4886(2)
O7B O 0.4365(2) -0.3470(3) 0.5114(2)
O8_2 O 0.6661(2) -0.7245(4) 0.6099(2)
O9B O 0.5831(2) -0.5085(3) 0.6321(2)
O9B_2 O 0.5831(2) 0.4915(3) 0.6321(2)
H18B H 0.5595 -0.4667 0.6563
H18B_2 H 0.5595 0.5333 0.6563
H19B H 0.6298 -0.4721 0.6412
H19B_2 H 0.6298 0.5279 0.6412
O10_2 O 0.4995(2) -0.7731(4) 0.6166(2)
H20_2 H 0.5081 -0.8343 0.5917
H21_2 H 0.4763 -0.7996 0.6462
O11_2 O 0.6465(3) -0.8639(4) 0.7478(3)
loop_
_geom_bond_atom_site_label_1
_geom_bond_atom_site_label_2
_geom_bond_site_symmetry_1
_geom_bond_site_symmetry_2
C1 C2 1_555 1_555
C2 C3 1_555 1_555
C3 H1 1_555 1_555
C4 C3 1_555 1_555
C5 C4 1_555 1_555
H2 C5 1_555 1_555
C6 C5 1_555 1_555
C7 C2 1_555 1_555
H3 C7 1_555 1_555
C8 C9 1_555 1_555
C9 H4 1_555 1_555
C10 C9 1_555 1_555
H5 C10 1_555 1_555
C11 C10 1_555 1_555
C12 C11 1_555 1_555
H6 C12 1_555 1_555
C13 C8 1_555 1_555
H7 C13 1_555 1_555
C14 C11 1_555 1_555
C15 C16 1_555 1_555
C16 H8 1_555 1_555
C17 C16 1_555 1_555
H9 C17 1_555 1_555
C18 C17 1_555 1_555
C19 C18 1_555 1_555
H10 C19 1_555 1_555
C20 C15 1_555 1_555
H11 C20 1_555 1_555
C21 C18 1_555 1_555
C22 H12 1_555 1_555
C23 C22 1_555 1_555
H13 C23 1_555 1_555
C24 C23 1_555 1_555
C25 C24 1_555 1_555
H14 C25 1_555 1_555
C26 C25 1_555 1_555
H15 C26 1_555 1_555
C27 C24 1_555 1_555
Co1 N1 1_555 1_555
Co2 O4 1_555 1_555
H16 O11 1_555 1_555
H17 O11 1_555 1_555
N1 C22 1_555 1_555
O1 C1 1_555 1_555
O2 C1 1_555 1_555
O3 C4 1_555 1_555
O4 C14 1_555 1_555
O5 C14 1_555 1_555
O6 C6 1_555 1_555
O7 C21 1_555 1_555
O8 C21 1_555 1_555
O9 Co2 1_555 1_555
H18 O9 1_555 1_555
H19 O9 1_555 1_555
O10 Co1 1_555 1_555
H20 O10 1_555 1_555
H21 O10 1_555 1_555
O11 Co1 1_555 1_555
C1_2 C2_2 1_555 1_555
C2_2 C3_2 1_555 1_555
C3_2 H1_2 1_555 1_555
C4_2 C3_2 1_555 1_555
C5_2 C4_2 1_555 1_555
H2_2 C5_2 1_555 1_555
C6_2 C5_2 1_555 1_555
C7_2 C2_2 1_555 1_555
H3_2 C7_2 1_555 1_555
C8_2 C9_2 1_555 1_555
C9_2 H4_2 1_555 1_555
C10_2 C9_2 1_555 1_555
H5_2 C10_2 1_555 1_555
C11_2 C10_2 1_555 1_555
C12_2 C11_2 1_555 1_555
H6_2 C12_2 1_555 1_555
C13_2 C8_2 1_555 1_555
H7_2 C13_2 1_555 1_555
C14_2 C11_2 1_555 1_555
C15_2 C16_2 1_555 1_555
C16_2 H8_2 1_555 1_555
C17_2 C16_2 1_555 1_555
H9_2 C17_2 1_555 1_555
C18_2 C17_2 1_555 1_555
C19_2 C18_2 1_555 1_555
H10_2 C19_2 1_555 1_555
C20_2 C15_2 1_555 1_555
H11_2 C20_2 1_555 1_555
C21_2 C18_2 1_555 1_555
C22B H12B 1_555 1_555
C23B C22B 1_555 1_555
H13B C23B 1_555 1_555
C24B C23B 1_555 1_555
C25B C24B 1_555 1_555
H14B C25B 1_555 1_555
C26B C25B 1_555 1_555
H15B C26B 1_555 1_555
C27B C27 1_555 1_555
Co1_2 N1_2 1_555 1_555
Co1C O1 1_555 1_555
Co1B O9 1_555 1_555
Co1B_2 N1B 1_555 1_555
Co1C_2 O1_2 1_555 1_555
Co2_2 O7 1_555 1_555
Co2_3 O4_2 1_555 1_555
H16_2 O11_2 1_555 1_555
H17_2 O11_2 1_555 1_555
N1B C22B 1_555 1_555
O1_2 C1_2 1_555 1_555
O1C Co1 1_555 1_555
O1C_2 Co1_2 1_555 1_555
O2_2 C1_2 1_555 1_555
O3_2 C4_2 1_555 1_555
O4_2 C14_2 1_555 1_555
O4B Co2 1_555 1_555
O5_2 C14_2 1_555 1_555
O6_2 C6_2 1_555 1_555
O7_2 Co2 1_555 1_555
O7B Co2 1_555 1_555
O8_2 C21_2 1_555 1_555
O9B Co2 1_555 1_555
O9B_2 Co1 1_555 1_555
H18B O9B 1_555 1_555
H18B_2 O9B_2 1_555 1_555
H19B O9B 1_555 1_555
H19B_2 O9B_2 1_555 1_555
O10_2 Co1_2 1_555 1_555
H20_2 O10_2 1_555 1_555
H21_2 O10_2 1_555 1_555
O11_2 Co1_2 1_555 1_555
C6 C7 1_555 1_555
C8 O3 1_555 1_555
C12 C13 1_555 1_555
C15 O6 1_555 1_555
C19 C20 1_555 1_555
C26 N1 1_555 1_555
Co1 O8 1_555 1_555
C6_2 C7_2 1_555 1_555
C8_2 O3_2 1_555 1_555
C12_2 C13_2 1_555 1_555
C15_2 O6_2 1_555 1_555
C19_2 C20_2 1_555 1_555
C21_2 O7_2 1_555 1_555
C24B C27B 1_555 1_555
C26B N1B 1_555 1_555
Co1_2 O8_2 1_555 1_555
Co1_2 O9B 1_555 1_555
Co2_2 O9B_2 1_555 1_555

#END
