
#######################################################################
#
#                 Cambridge Crystallographic Data Centre
#                                CCDC 
#
#######################################################################
#
# If this CIF has been generated from an entry in the Cambridge 
# Structural Database, then it will include bibliographic, chemical, 
# crystal, experimental, refinement or atomic coordinate data resulting 
# from the CCDC's data processing and validation procedures.
#
#######################################################################

data_LAZQOU
_symmetry_cell_setting           monoclinic
_symmetry_space_group_name_H-M   'P 21/c'
_symmetry_Int_Tables_number      14
_space_group_name_Hall           '-P 2ybc'
loop_
_symmetry_equiv_pos_site_id
_symmetry_equiv_pos_as_xyz
1 x,y,z
2 -x,1/2+y,1/2-z
3 -x,-y,-z
4 x,1/2-y,1/2+z
_cell_length_a                   17.283(3)
_cell_length_b                   10.835(2)
_cell_length_c                   18.443(2)
_cell_angle_alpha                90
_cell_angle_beta                 119.250(11)
_cell_angle_gamma                90
_cell_volume                     3013.3
loop_
_atom_site_label
_atom_site_type_symbol
_atom_site_fract_x
_atom_site_fract_y
_atom_site_fract_z
C1 C -0.2608(2) 0.9736(3) -0.2293(2)
C2 C -0.1607(2) 0.9795(3) -0.1874(2)
C3 C -0.1104(2) 0.8735(4) -0.1648(3)
H1 H -0.1373 0.7967 -0.1724
C4 C -0.0192(2) 0.8825(4) -0.1305(3)
C5 C 0.0230(2) 0.9956(4) -0.1161(3)
H2 H 0.0843 1.0011 -0.0920
C6 C -0.0292(2) 1.0996(4) -0.1387(3)
C7 C -0.1199(2) 1.0931(4) -0.1733(2)
H3 H -0.1536 1.1649 -0.1872
C8 C 0.0938(3) 1.2437(4) -0.0910(3)
C9 C 0.1265(3) 1.2991(5) -0.1359(3)
H4 H 0.0912 1.3086 -0.1930
C10 C 0.2132(3) 1.3417(4) -0.0959(3)
H5 H 0.2362 1.3798 -0.1265
C11 C 0.2657(2) 1.3279(4) -0.0108(2)
C12 C 0.2305(3) 1.2691(4) 0.0331(3)
H6 H 0.2649 1.2582 0.0902
C13 C 0.1446(3) 1.2269(5) -0.0078(3)
H7 H 0.1211 1.1867 0.0217
C14 C 0.3577(2) 1.3787(3) 0.0312(2)
C15 C 0.1166(2) 0.7639(5) -0.0782(4)
C16 C 0.1701(3) 0.7931(6) 0.0043(4)
H8 H 0.1458 0.8265 0.0351
C17 C 0.2599(3) 0.7726(5) 0.0408(3)
H9 H 0.2961 0.7912 0.0967
C18 C 0.2973(2) 0.7241(4) -0.0053(2)
C19 C 0.2424(3) 0.6973(4) -0.0886(3)
H10 H 0.2662 0.6655 -0.1204
C20 C 0.1517(3) 0.7181(5) -0.1245(3)
H11 H 0.1149 0.7007 -0.1805
C21 C 0.3950(2) 0.6956(3) 0.0363(2)
C22 C 0.5888(3) 0.5505(4) 0.3471(3)
H12 H 0.6370 0.5146 0.3458
C23 C 0.5742(3) 0.5212(4) 0.4128(3)
H13 H 0.6124 0.4683 0.4549
C24 C 0.5034(3) 0.5711(4) 0.4143(2)
C25 C 0.4497(3) 0.6523(4) 0.3535(3)
H14 H 0.4021 0.6900 0.3547
C26 C 0.4687(3) 0.6765(4) 0.2899(3)
H15 H 0.4316 0.7301 0.2478
Co1 Co 0.57102(3) 0.68611(4) 0.19391(3)
Co2 Co 0.5000 0.5000 0.0000
N1 N 0.53763(19) 0.6269(3) 0.28602(19)
N2 N 0.4792(2) 0.5436(4) 0.4774(2)
O1 O -0.29578(14) 0.8692(2) -0.23662(16)
O2 O -0.30189(15) 1.0729(3) -0.25536(18)
O3 O 0.00346(19) 1.2174(3) -0.1319(3)
O4 O 0.39552(16) 1.4069(3) 0.10597(16)
O5 O 0.39330(16) 1.3934(2) -0.01497(16)
O6 O 0.02478(18) 0.7718(3) -0.1147(3)
O7 O 0.43942(15) 0.7192(2) 0.11243(16)
O8 O 0.42343(15) 0.6508(2) -0.00926(15)
O9 O 0.59574(18) 0.8603(2) 0.24983(18)
H16 H 0.6320 0.8970 0.2412
O10 O 0.60907(17) 0.7770(3) 0.11497(17)
H17 H 0.6603 0.8081 0.1439
H18 H 0.5728 0.8352 0.0895
O11 O 0.54656(14) 0.5063(2) 0.13205(14)
H19 H 0.5088 0.4682 0.1408
H20 H 0.5946 0.4655 0.1560
C1_2 C -0.2608(2) -0.0264(3) -0.2293(2)
C2_2 C -0.1607(2) -0.0205(3) -0.1874(2)
C3_2 C -0.1104(2) -0.1265(4) -0.1648(3)
H1_2 H -0.1373 -0.2033 -0.1724
C4_2 C -0.0192(2) -0.1175(4) -0.1305(3)
C5_2 C 0.0230(2) -0.0044(4) -0.1161(3)
H2_2 H 0.0843 0.0011 -0.0920
C6_2 C -0.0292(2) 0.0996(4) -0.1387(3)
C7_2 C -0.1199(2) 0.0931(4) -0.1733(2)
H3_2 H -0.1536 0.1649 -0.1872
C8_2 C 0.0938(3) 0.2437(4) -0.0910(3)
C9_2 C 0.1265(3) 0.2991(5) -0.1359(3)
H4_2 H 0.0912 0.3086 -0.1930
C10_2 C 0.2132(3) 0.3417(4) -0.0959(3)
H5_2 H 0.2362 0.3798 -0.1265
C11_2 C 0.2657(2) 0.3279(4) -0.0108(2)
C12_2 C 0.2305(3) 0.2691(4) 0.0331(3)
H6_2 H 0.2649 0.2582 0.0902
C13_2 C 0.1446(3) 0.2269(5) -0.0078(3)
H7_2 H 0.1211 0.1867 0.0217
C14_2 C 0.3577(2) 0.3787(3) 0.0312(2)
C15_2 C 0.1166(2) -0.2361(5) -0.0782(4)
C16_2 C 0.1701(3) -0.2069(6) 0.0043(4)
H8_2 H 0.1458 -0.1735 0.0351
C17_2 C 0.2599(3) -0.2274(5) 0.0408(3)
H9_2 H 0.2961 -0.2088 0.0967
C18_2 C 0.2973(2) -0.2759(4) -0.0053(2)
C19_2 C 0.2424(3) -0.3027(4) -0.0886(3)
H10_2 H 0.2662 -0.3345 -0.1204
C20_2 C 0.1517(3) -0.2819(5) -0.1245(3)
H11_2 H 0.1149 -0.2993 -0.1805
C21_2 C 0.3950(2) -0.3044(3) 0.0363(2)
C22B C 0.4112(3) 0.4495(4) 0.6529(3)
H12B H 0.3630 0.4854 0.6542
C23B C 0.4258(3) 0.4788(4) 0.5872(3)
H13B H 0.3876 0.5317 0.5451
C24B C 0.4966(3) 0.4289(4) 0.5857(2)
C25B C 0.5503(3) 0.3477(4) 0.6465(3)
H14B H 0.5979 0.3100 0.6453
C26B C 0.5313(3) 0.3235(4) 0.7101(3)
H15B H 0.5684 0.2699 0.7522
Co1B Co 0.42898(3) 0.31389(4) -0.19391(3)
Co1C Co -0.42898(3) 0.81389(4) -0.30609(3)
Co1B_2 Co 0.42898(3) 0.31389(4) 0.80609(3)
Co1C_2 Co -0.42898(3) -0.18611(4) -0.30609(3)
Co1_2 Co 0.57102(3) -0.31389(4) 0.19391(3)
Co2_2 Co 0.5000 1.5000 0.0000
Co2_3 Co 0.5000 -0.5000 0.0000
N1B N 0.46237(19) 0.3731(3) 0.71398(19)
N1B_2 N 0.46237(19) 0.3731(3) -0.28602(19)
N2B N 0.5208(2) 0.4564(4) 0.5226(2)
O1_2 O -0.29578(14) -0.1308(2) -0.23662(16)
O1C O 0.70422(14) 0.6308(2) 0.26338(16)
O1A O 0.29578(14) 0.3692(2) -0.26338(16)
O2_2 O -0.30189(15) 0.0729(3) -0.25536(18)
O3_2 O 0.00346(19) 0.2174(3) -0.1319(3)
O4_2 O 0.39552(16) 0.4069(3) 0.10597(16)
O5_2 O 0.39330(16) 0.3934(2) -0.01497(16)
O5B O 0.60670(16) 0.6066(2) 0.01497(16)
O6_2 O 0.02478(18) -0.2282(3) -0.1147(3)
O7_2 O 0.43942(15) -0.2808(2) 0.11243(16)
O7B O 0.56058(15) 0.2808(2) -0.11243(16)
O8_2 O 0.42343(15) -0.3492(2) -0.00926(15)
O8B O 0.57657(15) 0.3492(2) 0.00926(15)
O9B O 0.40426(18) 0.1397(2) -0.24983(18)
H16B H 0.3680 0.1030 -0.2412
O10B O 0.39093(17) 0.2230(3) -0.11497(17)
H17B H 0.3397 0.1919 -0.1439
H18B H 0.4272 0.1648 -0.0895
O11B O 0.45344(14) 0.4937(2) -0.13205(14)
H19B H 0.4912 0.5318 -0.1408
H20B H 0.4054 0.5345 -0.1560
loop_
_geom_bond_atom_site_label_1
_geom_bond_atom_site_label_2
_geom_bond_site_symmetry_1
_geom_bond_site_symmetry_2
C1 C2 1_555 1_555
C2 C3 1_555 1_555
C3 H1 1_555 1_555
C4 C3 1_555 1_555
C5 C4 1_555 1_555
H2 C5 1_555 1_555
C6 C5 1_555 1_555
C7 C2 1_555 1_555
H3 C7 1_555 1_555
C8 C9 1_555 1_555
C9 H4 1_555 1_555
C10 C9 1_555 1_555
H5 C10 1_555 1_555
C11 C10 1_555 1_555
C12 C11 1_555 1_555
H6 C12 1_555 1_555
C13 C8 1_555 1_555
H7 C13 1_555 1_555
C14 C11 1_555 1_555
C15 C16 1_555 1_555
C16 H8 1_555 1_555
C17 C16 1_555 1_555
H9 C17 1_555 1_555
C18 C17 1_555 1_555
C19 C18 1_555 1_555
H10 C19 1_555 1_555
C20 C15 1_555 1_555
H11 C20 1_555 1_555
C21 C18 1_555 1_555
C22 H12 1_555 1_555
C23 C22 1_555 1_555
H13 C23 1_555 1_555
C24 C23 1_555 1_555
C25 C24 1_555 1_555
H14 C25 1_555 1_555
C26 C25 1_555 1_555
H15 C26 1_555 1_555
Co1 N1 1_555 1_555
Co2 O8 1_555 1_555
N1 C22 1_555 1_555
N2 C24 1_555 1_555
O1 C1 1_555 1_555
O2 C1 1_555 1_555
O3 C6 1_555 1_555
O4 C14 1_555 1_555
O5 C14 1_555 1_555
O6 C4 1_555 1_555
O7 C21 1_555 1_555
O8 C21 1_555 1_555
O9 Co1 1_555 1_555
H16 O9 1_555 1_555
O10 Co1 1_555 1_555
H17 O10 1_555 1_555
H18 O10 1_555 1_555
O11 Co1 1_555 1_555
H19 O11 1_555 1_555
H20 O11 1_555 1_555
C1_2 C2_2 1_555 1_555
C2_2 C3_2 1_555 1_555
C3_2 H1_2 1_555 1_555
C4_2 C3_2 1_555 1_555
C5_2 C4_2 1_555 1_555
H2_2 C5_2 1_555 1_555
C6_2 C5_2 1_555 1_555
C7_2 C2_2 1_555 1_555
H3_2 C7_2 1_555 1_555
C8_2 C9_2 1_555 1_555
C9_2 H4_2 1_555 1_555
C10_2 C9_2 1_555 1_555
H5_2 C10_2 1_555 1_555
C11_2 C10_2 1_555 1_555
C12_2 C11_2 1_555 1_555
H6_2 C12_2 1_555 1_555
C13_2 C8_2 1_555 1_555
H7_2 C13_2 1_555 1_555
C14_2 C11_2 1_555 1_555
C15_2 C16_2 1_555 1_555
C16_2 H8_2 1_555 1_555
C17_2 C16_2 1_555 1_555
H9_2 C17_2 1_555 1_555
C18_2 C17_2 1_555 1_555
C19_2 C18_2 1_555 1_555
H10_2 C19_2 1_555 1_555
C20_2 C15_2 1_555 1_555
H11_2 C20_2 1_555 1_555
C21_2 C18_2 1_555 1_555
C22B H12B 1_555 1_555
C23B C22B 1_555 1_555
H13B C23B 1_555 1_555
C24B C23B 1_555 1_555
C25B C24B 1_555 1_555
H14B C25B 1_555 1_555
C26B C25B 1_555 1_555
H15B C26B 1_555 1_555
Co1B N1B_2 1_555 1_555
Co1C O1 1_555 1_555
Co1B_2 N1B 1_555 1_555
Co1C_2 O1_2 1_555 1_555
Co1_2 O7_2 1_555 1_555
Co2_2 O5 1_555 1_555
Co2_3 O8_2 1_555 1_555
N1B C22B 1_555 1_555
N2B N2 1_555 1_555
O1_2 C1_2 1_555 1_555
O1C Co1 1_555 1_555
O1A Co1B 1_555 1_555
O2_2 C1_2 1_555 1_555
O3_2 C6_2 1_555 1_555
O4_2 C14_2 1_555 1_555
O5_2 Co2 1_555 1_555
O5B Co2 1_555 1_555
O6_2 C4_2 1_555 1_555
O7_2 C21_2 1_555 1_555
O7B Co1B 1_555 1_555
O8_2 C21_2 1_555 1_555
O8B Co2 1_555 1_555
O9B Co1B 1_555 1_555
H16B O9B 1_555 1_555
O10B Co1B 1_555 1_555
H17B O10B 1_555 1_555
H18B O10B 1_555 1_555
O11B Co2 1_555 1_555
H19B O11B 1_555 1_555
H20B O11B 1_555 1_555
C6 C7 1_555 1_555
C8 O3 1_555 1_555
C12 C13 1_555 1_555
C15 O6 1_555 1_555
C19 C20 1_555 1_555
C26 N1 1_555 1_555
Co1 O7 1_555 1_555
Co2 O11 1_555 1_555
C6_2 C7_2 1_555 1_555
C8_2 O3_2 1_555 1_555
C12_2 C13_2 1_555 1_555
C14_2 O5_2 1_555 1_555
C15_2 O6_2 1_555 1_555
C19_2 C20_2 1_555 1_555
C24B N2B 1_555 1_555
C26B N1B 1_555 1_555
Co1B O11B 1_555 1_555

#END
