
#######################################################################
#
#                 Cambridge Crystallographic Data Centre
#                                CCDC 
#
#######################################################################
#
# If this CIF has been generated from an entry in the Cambridge 
# Structural Database, then it will include bibliographic, chemical, 
# crystal, experimental, refinement or atomic coordinate data resulting 
# from the CCDC's data processing and validation procedures.
#
#######################################################################

data_LAZROV
_symmetry_cell_setting           monoclinic
_symmetry_space_group_name_H-M   'C 2/c'
_symmetry_Int_Tables_number      15
_space_group_name_Hall           '-C 2yn'
loop_
_symmetry_equiv_pos_site_id
_symmetry_equiv_pos_as_xyz
1 x,y,z
2 -x,y,1/2-z
3 1/2+x,1/2+y,z
4 1/2-x,1/2+y,1/2-z
5 -x,-y,-z
6 x,-y,1/2+z
7 1/2-x,1/2-y,-z
8 1/2+x,1/2-y,1/2+z
_cell_length_a                   31.924(5)
_cell_length_b                   10.290(5)
_cell_length_c                   16.544(5)
_cell_angle_alpha                90
_cell_angle_beta                 112.007(5)
_cell_angle_gamma                90
_cell_volume                     5038.69
loop_
_atom_site_label
_atom_site_type_symbol
_atom_site_fract_x
_atom_site_fract_y
_atom_site_fract_z
C1 C 0.84188(17) 0.2620(5) 0.4926(4)
C2 C 0.88998(18) 0.2210(6) 0.5315(4)
C3 C 0.90492(19) 0.1280(7) 0.5961(5)
H1 H 0.8843 0.0872 0.6153
C4 C 0.9496(2) 0.0949(8) 0.6323(5)
H2 H 0.9593 0.0347 0.6775
C5 C 0.97990(19) 0.1492(7) 0.6028(5)
C6 C 0.9655(2) 0.2393(8) 0.5365(5)
H3 H 0.9858 0.2761 0.5148
C7 C 0.92036(19) 0.2740(7) 0.5029(5)
H4 H 0.9107 0.3360 0.4589
C8 C 1.05624(19) 0.1701(8) 0.6186(5)
C9 C 1.0708(2) 0.1196(8) 0.5596(6)
H5 H 1.0583 0.0435 0.5302
C10 C 1.1053(2) 0.1831(7) 0.5429(5)
H6 H 1.1155 0.1498 0.5012
C11 C 1.12427(18) 0.2935(6) 0.5871(4)
C12 C 1.10918(19) 0.3397(7) 0.6482(5)
H7 H 1.1223 0.4140 0.6793
C13 C 1.0745(2) 0.2786(7) 0.6655(5)
H8 H 1.0643 0.3106 0.7075
C14 C 1.16238(19) 0.3604(6) 0.5719(5)
C15 C 0.69895(17) 0.2842(5) 0.3121(4)
H9 H 0.6780 0.2252 0.3232
H10 H 0.7022 0.2572 0.2586
C16 C 0.68041(16) 0.4211(5) 0.3019(4)
H11 H 0.6570 0.4310 0.2444
H12 H 0.6669 0.4365 0.3447
C17 C 0.7142(2) 0.5743(6) 0.2294(4)
H13 H 0.6842 0.6098 0.1991
H14 H 0.7357 0.6454 0.2410
C18 C 0.7241(2) 0.4790(7) 0.1720(4)
H15 H 0.6992 0.4181 0.1501
H16 H 0.7265 0.5241 0.1225
C19 C 0.7226(2) 0.5829(6) 0.4632(4)
H17 H 0.7233 0.6594 0.4979
H18 H 0.6979 0.5282 0.4635
C20 C 0.7136(2) 0.6246(6) 0.3707(4)
H19 H 0.6837 0.6626 0.3462
H20 H 0.7352 0.6915 0.3716
N1 N 0.71661(14) 0.5181(4) 0.3134(3)
O1 O 0.83212(12) 0.3390(4) 0.4311(3)
O2 O 0.81538(12) 0.2186(4) 0.5262(3)
O3 O 1.02346(13) 0.1032(5) 0.6394(4)
O4 O 1.18812(12) 0.4260(4) 0.6347(3)
O5 O 1.16599(14) 0.3478(5) 0.5005(3)
O6 O 0.74091(12) 0.2787(3) 0.3811(2)
O7 O 0.76468(17) 0.4095(4) 0.2162(3)
O8 O 0.76351(13) 0.5147(4) 0.5019(3)
Cu1 Cu 0.7500 0.2500 0.5000
Cu2 Cu 0.77580(2) 0.42619(7) 0.37330(4)
H29 H 0.784(3) 0.465(9) 0.199(7)
H30 H 0.7896(5) 0.5155(12) 0.5541(6)
C1F C 0.65812(17) 0.2380(5) 0.5074(4)
C2F C 0.61002(18) 0.2790(6) 0.4685(4)
C3F C 0.59508(19) 0.3720(7) 0.4039(5)
H1F H 0.6157 0.4128 0.3847
C4F C 0.5504(2) 0.4051(8) 0.3677(5)
H2F H 0.5407 0.4653 0.3225
C5F C 0.52010(19) 0.3508(7) 0.3972(5)
C6F C 0.5345(2) 0.2607(8) 0.4635(5)
H3F H 0.5142 0.2239 0.4852
C7F C 0.57964(19) 0.2260(7) 0.4971(5)
H4F H 0.5893 0.1640 0.5411
C8F C 0.44376(19) 0.3299(8) 0.3814(5)
C9F C 0.4292(2) 0.3804(8) 0.4404(6)
H5F H 0.4417 0.4565 0.4698
C10F C 0.3947(2) 0.3169(7) 0.4571(5)
H6F H 0.3845 0.3502 0.4988
C11F C 0.37573(18) 0.2065(6) 0.4129(4)
C12F C 0.39082(19) 0.1603(7) 0.3518(5)
H7F H 0.3777 0.0860 0.3207
C13F C 0.4255(2) 0.2214(7) 0.3345(5)
H8F H 0.4357 0.1894 0.2925
C14F C 0.33762(19) 0.1396(6) 0.4281(5)
C15F C 0.80105(17) 0.2158(5) 0.6879(4)
H9F H 0.8220 0.2748 0.6768
H10F H 0.7978 0.2428 0.7414
C16F C 0.81959(16) 0.0789(5) 0.6981(4)
H11F H 0.8430 0.0690 0.7556
H12F H 0.8331 0.0635 0.6553
C17F C 0.7858(2) -0.0743(6) 0.7706(4)
H13F H 0.8158 -0.1098 0.8009
H14F H 0.7643 -0.1454 0.7590
C18F C 0.7759(2) 0.0210(7) 0.8280(4)
H15F H 0.8008 0.0819 0.8499
H16F H 0.7735 -0.0241 0.8775
C19F C 0.7774(2) -0.0829(6) 0.5368(4)
H17F H 0.7767 -0.1594 0.5021
H18F H 0.8021 -0.0282 0.5365
C20F C 0.7864(2) -0.1246(6) 0.6293(4)
H19F H 0.8163 -0.1626 0.6538
H20F H 0.7648 -0.1915 0.6284
N1F N 0.78339(14) -0.0181(4) 0.6866(3)
O1F O 0.66788(12) 0.1610(4) 0.5689(3)
O2F O 0.68462(12) 0.2814(4) 0.4738(3)
O3F O 0.47654(13) 0.3968(5) 0.3606(4)
O4F O 0.31188(12) 0.0740(4) 0.3653(3)
O4D O 0.81188(12) 0.5740(4) 0.3653(3)
O4B O 0.68812(12) -0.0740(4) 0.6347(3)
O5F O 0.33401(14) 0.1522(5) 0.4995(3)
O6F O 0.75909(12) 0.2213(3) 0.6189(2)
O7F O 0.73532(17) 0.0905(4) 0.7838(3)
O8F O 0.73649(13) -0.0147(4) 0.4981(3)
Cu2F Cu 0.72420(2) 0.07381(7) 0.62670(4)
Cu2D Cu 1.22420(2) 0.57381(7) 0.62670(4)
Cu2B Cu 0.27580(2) -0.07381(7) 0.37330(4)
H29F H 0.716(3) 0.035(9) 0.801(7)
H30F H 0.7104(5) -0.0155(12) 0.4459(6)
O9 O 0.5164(13) 0.794(7) 0.196(5)
H21 H 0.5050 0.8295 0.2277
C21 C 0.5664(10) 0.782(4) 0.245(4)
H22 H 0.5703 0.7011 0.2775
H23 H 0.5788 0.7662 0.2006
C22 C 0.5982(8) 0.874(3) 0.306(2)
H24 H 0.6005 0.8443 0.3636
H25 H 0.5815 0.9552 0.2969
C23 C 0.6448(7) 0.914(2) 0.3188(14)
H26 H 0.6521 0.9935 0.3514
H27 H 0.6469 0.9266 0.2630
H28 H 0.6656 0.8472 0.3502
loop_
_geom_bond_atom_site_label_1
_geom_bond_atom_site_label_2
_geom_bond_site_symmetry_1
_geom_bond_site_symmetry_2
C1 C2 1_555 1_555
C2 C3 1_555 1_555
C3 H1 1_555 1_555
C4 C3 1_555 1_555
H2 C4 1_555 1_555
C5 C4 1_555 1_555
C6 C5 1_555 1_555
H3 C6 1_555 1_555
C7 C2 1_555 1_555
H4 C7 1_555 1_555
C8 C9 1_555 1_555
C9 H5 1_555 1_555
C10 C9 1_555 1_555
H6 C10 1_555 1_555
C11 C10 1_555 1_555
C12 C11 1_555 1_555
H7 C12 1_555 1_555
C13 C8 1_555 1_555
H8 C13 1_555 1_555
C14 C11 1_555 1_555
C15 H9 1_555 1_555
H10 C15 1_555 1_555
C16 C15 1_555 1_555
H11 C16 1_555 1_555
H12 C16 1_555 1_555
C17 H13 1_555 1_555
H14 C17 1_555 1_555
C18 C17 1_555 1_555
H15 C18 1_555 1_555
H16 C18 1_555 1_555
C19 H17 1_555 1_555
H18 C19 1_555 1_555
C20 C19 1_555 1_555
H19 C20 1_555 1_555
H20 C20 1_555 1_555
N1 C16 1_555 1_555
O1 C1 1_555 1_555
O2 C1 1_555 1_555
O3 C5 1_555 1_555
O4 C14 1_555 1_555
O5 C14 1_555 1_555
O6 C15 1_555 1_555
O7 C18 1_555 1_555
O8 C19 1_555 1_555
Cu1 O2 1_555 1_555
Cu2 N1 1_555 1_555
O9 H21 1_555 1_555
C21 O9 1_555 1_555
H22 C21 1_555 1_555
H23 C21 1_555 1_555
C22 C21 1_555 1_555
H24 C22 1_555 1_555
H25 C22 1_555 1_555
C23 C22 1_555 1_555
H26 C23 1_555 1_555
H27 C23 1_555 1_555
H28 C23 1_555 1_555
H29 O7 1_555 1_555
H30 O8 1_555 1_555
C1F C2F 1_555 1_555
C2F C3F 1_555 1_555
C3F H1F 1_555 1_555
C4F C3F 1_555 1_555
H2F C4F 1_555 1_555
C5F C4F 1_555 1_555
C6F C5F 1_555 1_555
H3F C6F 1_555 1_555
C7F C2F 1_555 1_555
H4F C7F 1_555 1_555
C8F C9F 1_555 1_555
C9F H5F 1_555 1_555
C10F C9F 1_555 1_555
H6F C10F 1_555 1_555
C11F C10F 1_555 1_555
C12F C11F 1_555 1_555
H7F C12F 1_555 1_555
C13F C8F 1_555 1_555
H8F C13F 1_555 1_555
C14F C11F 1_555 1_555
C15F H9F 1_555 1_555
H10F C15F 1_555 1_555
C16F C15F 1_555 1_555
H11F C16F 1_555 1_555
H12F C16F 1_555 1_555
C17F H13F 1_555 1_555
H14F C17F 1_555 1_555
C18F C17F 1_555 1_555
H15F C18F 1_555 1_555
H16F C18F 1_555 1_555
C19F H17F 1_555 1_555
H18F C19F 1_555 1_555
C20F C19F 1_555 1_555
H19F C20F 1_555 1_555
H20F C20F 1_555 1_555
N1F C16F 1_555 1_555
O1F C1F 1_555 1_555
O2F Cu1 1_555 1_555
O3F C5F 1_555 1_555
O4F C14F 1_555 1_555
O4D Cu2 1_555 1_555
O4B Cu2F 1_555 1_555
O5F C14F 1_555 1_555
O6F Cu1 1_555 1_555
O7F C18F 1_555 1_555
O8F Cu1 1_555 1_555
Cu2F N1F 1_555 1_555
Cu2D O4 1_555 1_555
Cu2B O4F 1_555 1_555
H29F O7F 1_555 1_555
H30F O8F 1_555 1_555
C6 C7 1_555 1_555
C8 O3 1_555 1_555
C12 C13 1_555 1_555
C17 N1 1_555 1_555
C20 N1 1_555 1_555
O1 Cu2 1_555 1_555
O6 Cu1 1_555 1_555
O6 Cu2 1_555 1_555
O7 Cu2 1_555 1_555
O8 Cu1 1_555 1_555
O8 Cu2 1_555 1_555
C1F O2F 1_555 1_555
C6F C7F 1_555 1_555
C8F O3F 1_555 1_555
C12F C13F 1_555 1_555
C15F O6F 1_555 1_555
C17F N1F 1_555 1_555
C19F O8F 1_555 1_555
C20F N1F 1_555 1_555
O1F Cu2F 1_555 1_555
O6F Cu2F 1_555 1_555
O7F Cu2F 1_555 1_555
O8F Cu2F 1_555 1_555

#END
