
#######################################################################
#
#                 Cambridge Crystallographic Data Centre
#                                CCDC 
#
#######################################################################
#
# If this CIF has been generated from an entry in the Cambridge 
# Structural Database, then it will include bibliographic, chemical, 
# crystal, experimental, refinement or atomic coordinate data resulting 
# from the CCDC's data processing and validation procedures.
#
#######################################################################

data_LAZSIQ
_symmetry_cell_setting           monoclinic
_symmetry_space_group_name_H-M   'C 2/c'
_symmetry_Int_Tables_number      15
_space_group_name_Hall           '-C 2yn'
loop_
_symmetry_equiv_pos_site_id
_symmetry_equiv_pos_as_xyz
1 x,y,z
2 -x,y,1/2-z
3 1/2+x,1/2+y,z
4 1/2-x,1/2+y,1/2-z
5 -x,-y,-z
6 x,-y,1/2+z
7 1/2-x,1/2-y,-z
8 1/2+x,1/2-y,1/2+z
_cell_length_a                   14.253
_cell_length_b                   14.279
_cell_length_c                   26.903
_cell_angle_alpha                90
_cell_angle_beta                 97.90
_cell_angle_gamma                90
_cell_volume                     5423.3
loop_
_atom_site_label
_atom_site_type_symbol
_atom_site_fract_x
_atom_site_fract_y
_atom_site_fract_z
C1 C 0.8937(5) 0.1135(5) 0.4199(2)
C2 C 0.8570(5) 0.1273(5) 0.3659(2)
C3 C 0.8714(7) 0.0600(6) 0.3309(3)
H1 H 0.9029 0.0048 0.3412
C4 C 0.8395(7) 0.0738(6) 0.2805(3)
H2 H 0.8526 0.0295 0.2571
C5 C 0.7900(6) 0.1502(6) 0.2653(2)
C6 C 0.7718(6) 0.2160(6) 0.2990(2)
H3 H 0.7358 0.2684 0.2882
C7 C 0.8064(5) 0.2057(5) 0.3494(2)
H4 H 0.7953 0.2522 0.3722
C8 C 0.7699(8) 0.1031(6) 0.1788(3)
C9 C 0.7044(8) 0.0343(7) 0.1671(3)
H5 H 0.6522 0.0297 0.1842
C10 C 0.7168(6) -0.0288(6) 0.1294(3)
H6 H 0.6714 -0.0749 0.1206
C11 C 0.7946(5) -0.0242(5) 0.1047(2)
C12 C 0.8569(7) 0.0474(7) 0.1181(4)
H7 H 0.9101 0.0528 0.1017
C13 C 0.8442(8) 0.1112(8) 0.1543(4)
H8 H 0.8872 0.1598 0.1617
C14 C 0.8115(5) -0.0921(5) 0.0648(2)
C15 C 0.8997(9) 0.3398(8) 0.5779(4)
H9 H 0.8743 0.3040 0.6036
H10 H 0.8755 0.4032 0.5784
C16 C 1.0042(9) 0.3411(10) 0.5883(8)
H11 H 1.0236 0.3586 0.6230
H12 H 1.0287 0.3876 0.5672
C17 C 1.1507(7) 0.1445(11) 0.5371(6)
H13 H 1.2008 0.1489 0.5162
H14 H 1.1675 0.0963 0.5621
C18 C 1.1380(8) 0.2387(15) 0.5626(7)
H15 H 1.1861 0.2451 0.5917
H16 H 1.1468 0.2890 0.5395
C19 C 1.0361(13) 0.1882(13) 0.6240(5)
H17 H 0.9721 0.1902 0.6314
H18 H 1.0782 0.2116 0.6522
H19 H 1.0527 0.1247 0.6174
N1 N 1.0442(8) 0.2477(6) 0.5786(3)
O1 O 0.8867(4) 0.1845(4) 0.44836(16)
O2 O 0.9347(4) 0.0387(3) 0.43367(16)
O3 O 0.7536(5) 0.1701(4) 0.21591(17)
O4 O 0.8854(4) -0.0850(4) 0.0463(2)
O5 O 0.7511(4) -0.1532(4) 0.05313(17)
O6 O 0.8704(4) 0.2982(3) 0.52948(17)
O7 O 1.0616(3) 0.1222(4) 0.50690(18)
Cu1 Cu 1.0000 0.0000 0.5000
Cu2 Cu 0.95969(6) 0.20346(6) 0.51740(3)
Cu3 Cu 0.7500 0.2500 0.5000
C1A C 1.1063(5) 0.1135(5) 0.0801(2)
C2A C 1.1430(5) 0.1273(5) 0.1341(2)
C3A C 1.1286(7) 0.0600(6) 0.1691(3)
H1A H 1.0971 0.0048 0.1588
C4A C 1.1605(7) 0.0738(6) 0.2195(3)
H2A H 1.1474 0.0295 0.2429
C5A C 1.2100(6) 0.1502(6) 0.2347(2)
C6A C 1.2282(6) 0.2160(6) 0.2010(2)
H3A H 1.2642 0.2684 0.2118
C7A C 1.1936(5) 0.2057(5) 0.1506(2)
H4A H 1.2047 0.2522 0.1278
C8A C 1.2301(8) 0.1031(6) 0.3212(3)
C9A C 1.2956(8) 0.0343(7) 0.3329(3)
H5A H 1.3478 0.0297 0.3158
C10A C 1.2832(6) -0.0288(6) 0.3706(3)
H6A H 1.3286 -0.0749 0.3794
C11A C 1.2054(5) -0.0242(5) 0.3953(2)
C12A C 1.1431(7) 0.0474(7) 0.3819(4)
H7A H 1.0899 0.0528 0.3983
C13A C 1.1558(8) 0.1112(8) 0.3457(4)
H8A H 1.1128 0.1598 0.3383
C14A C 1.1885(5) -0.0921(5) 0.4352(2)
C15D C 1.1003(9) -0.3398(8) 0.4221(4)
H9D H 1.1257 -0.3040 0.3964
H10D H 1.1245 -0.4032 0.4216
C16D C 0.9958(9) -0.3411(10) 0.4117(8)
H11D H 0.9764 -0.3586 0.3770
H12D H 0.9713 -0.3876 0.4328
C17D C 0.8493(7) -0.1445(11) 0.4629(6)
H13D H 0.7992 -0.1489 0.4838
H14D H 0.8325 -0.0963 0.4379
C18D C 0.8620(8) -0.2387(15) 0.4374(7)
H15D H 0.8139 -0.2451 0.4083
H16D H 0.8532 -0.2890 0.4605
C19D C 0.9639(13) -0.1882(13) 0.3760(5)
H17D H 1.0279 -0.1902 0.3686
H18D H 0.9218 -0.2116 0.3478
H19D H 0.9473 -0.1247 0.3826
N1D N 0.9558(8) -0.2477(6) 0.4214(3)
O1A O 1.1133(4) 0.1845(4) 0.05164(16)
O1F O 0.6133(4) 0.3155(4) 0.55164(16)
O1D O 1.1133(4) -0.1845(4) 0.55164(16)
O2A O 1.0653(4) 0.0387(3) 0.06633(16)
O2D O 1.0653(4) -0.0387(3) 0.56633(16)
O3A O 1.2464(5) 0.1701(4) 0.28409(17)
O4A O 1.1146(4) -0.0850(4) 0.4537(2)
O4E O 0.8854(4) 0.0850(4) 0.5463(2)
O5A O 1.2489(4) -0.1532(4) 0.44687(17)
O5C O 0.7489(4) 0.3468(4) 0.44687(17)
O5E O 0.7511(4) 0.1532(4) 0.55313(17)
O6D O 1.1296(4) -0.2982(3) 0.47052(17)
O6F O 0.6296(4) 0.2018(3) 0.47052(17)
O7D O 0.9384(3) -0.1222(4) 0.49310(18)
Cu1A Cu 1.0000 0.0000 0.0000
Cu2D Cu 1.04031(6) -0.20346(6) 0.48260(3)
Cu2E Cu 0.95969(6) -0.20346(6) 0.01740(3)
Cu2F Cu 0.54031(6) 0.29654(6) 0.48260(3)
Cu2A Cu 1.04031(6) 0.20346(6) -0.01740(3)
Cu3C Cu 0.7500 -0.2500 0.0000
Cu3A Cu 1.2500 0.2500 0.0000
Cu3B Cu 1.2500 -0.2500 0.5000
loop_
_geom_bond_atom_site_label_1
_geom_bond_atom_site_label_2
_geom_bond_site_symmetry_1
_geom_bond_site_symmetry_2
C1 C2 1_555 1_555
C2 C3 1_555 1_555
C3 H1 1_555 1_555
C4 C3 1_555 1_555
H2 C4 1_555 1_555
C5 C4 1_555 1_555
C6 C5 1_555 1_555
H3 C6 1_555 1_555
C7 C2 1_555 1_555
H4 C7 1_555 1_555
C8 C9 1_555 1_555
C9 H5 1_555 1_555
C10 C9 1_555 1_555
H6 C10 1_555 1_555
C11 C10 1_555 1_555
C12 C11 1_555 1_555
H7 C12 1_555 1_555
C13 C8 1_555 1_555
H8 C13 1_555 1_555
C14 C11 1_555 1_555
C15 H9 1_555 1_555
H10 C15 1_555 1_555
C16 C15 1_555 1_555
H11 C16 1_555 1_555
H12 C16 1_555 1_555
C17 H13 1_555 1_555
H14 C17 1_555 1_555
C18 C17 1_555 1_555
H15 C18 1_555 1_555
H16 C18 1_555 1_555
C19 H17 1_555 1_555
H18 C19 1_555 1_555
H19 C19 1_555 1_555
N1 C16 1_555 1_555
O1 C1 1_555 1_555
O2 C1 1_555 1_555
O3 C5 1_555 1_555
O4 C14 1_555 1_555
O5 C14 1_555 1_555
O6 C15 1_555 1_555
O7 C17 1_555 1_555
Cu1 O2 1_555 1_555
Cu2 N1 1_555 1_555
Cu3 O1 1_555 1_555
C1A C2A 1_555 1_555
C2A C3A 1_555 1_555
C3A H1A 1_555 1_555
C4A C3A 1_555 1_555
H2A C4A 1_555 1_555
C5A C4A 1_555 1_555
C6A C5A 1_555 1_555
H3A C6A 1_555 1_555
C7A C2A 1_555 1_555
H4A C7A 1_555 1_555
C8A C9A 1_555 1_555
C9A H5A 1_555 1_555
C10A C9A 1_555 1_555
H6A C10A 1_555 1_555
C11A C10A 1_555 1_555
C12A C11A 1_555 1_555
H7A C12A 1_555 1_555
C13A C8A 1_555 1_555
H8A C13A 1_555 1_555
C14A C11A 1_555 1_555
C15D H9D 1_555 1_555
H10D C15D 1_555 1_555
C16D C15D 1_555 1_555
H11D C16D 1_555 1_555
H12D C16D 1_555 1_555
C17D H13D 1_555 1_555
H14D C17D 1_555 1_555
C18D C17D 1_555 1_555
H15D C18D 1_555 1_555
H16D C18D 1_555 1_555
C19D H17D 1_555 1_555
H18D C19D 1_555 1_555
H19D C19D 1_555 1_555
N1D C16D 1_555 1_555
O1A C1A 1_555 1_555
O1F Cu3 1_555 1_555
O1D Cu2D 1_555 1_555
O2A C1A 1_555 1_555
O2D Cu1 1_555 1_555
O3A C5A 1_555 1_555
O4A Cu1 1_555 1_555
O4E Cu1 1_555 1_555
O5A C14A 1_555 1_555
O5C Cu3 1_555 1_555
O5E Cu3 1_555 1_555
O6D C15D 1_555 1_555
O6F Cu3 1_555 1_555
O7D Cu1 1_555 1_555
Cu1A O4 1_555 1_555
Cu2D N1D 1_555 1_555
Cu2E O4 1_555 1_555
Cu2F O1F 1_555 1_555
Cu2A O1A 1_555 1_555
Cu3C O5 1_555 1_555
Cu3A O1A 1_555 1_555
Cu3B O1D 1_555 1_555
C6 C7 1_555 1_555
C8 O3 1_555 1_555
C12 C13 1_555 1_555
C18 N1 1_555 1_555
C19 N1 1_555 1_555
O1 Cu2 1_555 1_555
O6 Cu2 1_555 1_555
O6 Cu3 1_555 1_555
O7 Cu1 1_555 1_555
O7 Cu2 1_555 1_555
Cu2 O4E 1_555 1_555
C6A C7A 1_555 1_555
C8A O3A 1_555 1_555
C12A C13A 1_555 1_555
C14A O4A 1_555 1_555
C17D O7D 1_555 1_555
C18D N1D 1_555 1_555
C19D N1D 1_555 1_555
O2A Cu1A 1_555 1_555
O4A Cu2D 1_555 1_555
O5A Cu3B 1_555 1_555
O6D Cu2D 1_555 1_555
O6D Cu3B 1_555 1_555
O6F Cu2F 1_555 1_555
O7D Cu2D 1_555 1_555

#END
