
#######################################################################
#
#                 Cambridge Crystallographic Data Centre
#                                CCDC 
#
#######################################################################
#
# If this CIF has been generated from an entry in the Cambridge 
# Structural Database, then it will include bibliographic, chemical, 
# crystal, experimental, refinement or atomic coordinate data resulting 
# from the CCDC's data processing and validation procedures.
#
#######################################################################

data_LAZSUC
_symmetry_cell_setting           monoclinic
_symmetry_space_group_name_H-M   'P 21/c'
_symmetry_Int_Tables_number      14
_space_group_name_Hall           '-P 2ybc'
loop_
_symmetry_equiv_pos_site_id
_symmetry_equiv_pos_as_xyz
1 x,y,z
2 -x,1/2+y,1/2-z
3 -x,-y,-z
4 x,1/2-y,1/2+z
_cell_length_a                   6.4022(2)
_cell_length_b                   21.3894(7)
_cell_length_c                   14.1932(5)
_cell_angle_alpha                90
_cell_angle_beta                 93.172(3)
_cell_angle_gamma                90
_cell_volume                     1940.63
loop_
_atom_site_label
_atom_site_type_symbol
_atom_site_fract_x
_atom_site_fract_y
_atom_site_fract_z
Sm1 Sm 0.72210(4) 0.609034(10) 0.602308(16)
Sm2 Sm 0.24929(4) 0.622500(10) 0.173430(16)
S1 S 0.50581(19) 0.53751(5) 0.37784(8)
O1 O 0.5241(5) 0.60220(14) 0.9067(2)
O2 O 0.5928(5) 0.60023(14) 0.7547(2)
O3 O 0.5409(5) 0.58268(14) 0.4558(2)
O4 O 0.3061(5) 0.50475(14) 0.3875(2)
O5 O 0.6758(6) 0.49187(17) 0.3797(2)
N1 N 0.4136(6) 0.72492(16) 0.9016(2)
H1 H 0.4257 0.7097 0.9593
O6 O 0.4976(5) 0.57192(14) 0.2873(2)
C1 C 0.5270(7) 0.6271(2) 0.8270(3)
C2 C 0.3594(7) 0.7834(2) 0.8781(3)
H2 H 0.3278 0.8148 0.9223
C3 C 0.4476(7) 0.6923(2) 0.8194(3)
O7 O 0.4394(5) 0.67936(13) 0.6025(2)
N2 N 0.3550(6) 0.79205(16) 0.7864(3)
O8 O 0.5693(6) 0.60436(15) 0.0989(2)
O9 O 0.2219(6) 0.51041(14) 0.1279(2)
C4 C 0.4072(7) 0.7307(2) 0.6431(3)
C5 C 0.4092(7) 0.7346(2) 0.7488(3)
O10 O 0.8660(5) 0.70541(13) 0.6780(2)
O11 O 0.3711(5) 0.78169(13) 0.6001(2)
O12 O 1.0200(5) 0.88069(14) 0.3720(2)
N3 N 0.8939(6) 0.76011(16) 0.3766(2)
H3 H 0.9058 0.7745 0.3190
C6 C 1.0191(7) 0.8575(2) 0.4522(3)
N4 N 0.8288(6) 0.69518(16) 0.4917(2)
C7 C 0.8939(7) 0.75175(19) 0.5300(3)
C8 C 0.9110(7) 0.7556(2) 0.6352(3)
C9 C 0.9360(7) 0.7927(2) 0.4586(3)
C10 C 0.8313(7) 0.7024(2) 0.3996(3)
H4 H 0.7935 0.6708 0.3550
O13 O 0.9608(5) 0.80530(13) 0.6775(2)
O14 O 1.0122(6) 0.57182(15) 0.5067(2)
O15 O 1.0844(5) 0.88473(13) 0.5274(2)
O16 O 1.0211(5) 0.57325(17) 0.7022(2)
O17 O -0.0115(6) 0.57387(15) 0.2741(3)
H6 H 0.558(9) 0.615(2) 0.0407(12)
H7 H 0.932(6) 0.554(2) 0.465(3)
H9 H 0.635(8) 0.5694(14) 0.104(3)
H10 H -0.141(3) 0.574(2) 0.256(4)
H11 H 1.112(6) 0.5468(19) 0.523(4)
H12 H 0.282(8) 0.4802(18) 0.159(3)
H13 H 0.245(9) 0.505(2) 0.0693(10)
H14 H 1.138(4) 0.559(2) 0.685(3)
H15 H 1.041(7) 0.589(2) 0.7575(18)
H16 H 0.031(7) 0.5359(9) 0.278(4)
Sm1B Sm 0.27790(4) 0.390966(10) 0.397692(16)
Sm2C Sm 0.24929(4) 0.877500(10) 0.673430(16)
Sm2C_2 Sm 1.24929(4) 0.877500(10) 0.673430(16)
O4B O 0.6939(5) 0.49525(14) 0.6125(2)
N2C N 0.3550(6) 0.70795(16) 0.2864(3)
O11C O 0.3711(5) 0.71831(13) 0.1001(2)
O13C O -0.0392(5) 0.69470(13) 0.1775(2)
O15C O 0.0844(5) 0.61527(13) 0.0274(2)
O18 O 0.2459(6) 0.50319(16) 0.9281(3)
H5 H 0.122(3) 0.514(2) 0.909(4)
H8 H 0.329(5) 0.5339(16) 0.920(4)
loop_
_geom_bond_atom_site_label_1
_geom_bond_atom_site_label_2
_geom_bond_site_symmetry_1
_geom_bond_site_symmetry_2
Sm1 O2 1_555 1_555
Sm2 O6 1_555 1_555
S1 O3 1_555 1_555
O1 C1 1_555 1_555
O2 C1 1_555 1_555
O3 Sm1 1_555 1_555
O4 S1 1_555 1_555
O5 S1 1_555 1_555
N1 H1 1_555 1_555
O6 S1 1_555 1_555
C1 C3 1_555 1_555
C2 N1 1_555 1_555
H2 C2 1_555 1_555
C3 N1 1_555 1_555
O7 Sm1 1_555 1_555
N2 C2 1_555 1_555
O8 Sm2 1_555 1_555
O9 Sm2 1_555 1_555
C4 O7 1_555 1_555
C5 C3 1_555 1_555
O10 Sm1 1_555 1_555
O11 C4 1_555 1_555
O12 C6 1_555 1_555
N3 H3 1_555 1_555
C6 C9 1_555 1_555
N4 Sm1 1_555 1_555
C7 N4 1_555 1_555
C8 O10 1_555 1_555
C9 N3 1_555 1_555
C10 N3 1_555 1_555
H4 C10 1_555 1_555
O13 C8 1_555 1_555
O14 Sm1 1_555 1_555
O15 C6 1_555 1_555
O16 Sm1 1_555 1_555
O17 Sm2 1_555 1_555
O18 H5 1_555 1_555
H6 O8 1_555 1_555
H7 O14 1_555 1_555
H8 O18 1_555 1_555
H9 O8 1_555 1_555
H10 O17 1_555 1_555
H11 O14 1_555 1_555
H12 O9 1_555 1_555
H13 O9 1_555 1_555
H14 O16 1_555 1_555
H15 O16 1_555 1_555
H16 O17 1_555 1_555
Sm1B O4 1_555 1_555
Sm2C N2 1_555 1_555
Sm2C_2 O13 1_555 1_555
O4B Sm1 1_555 1_555
N2C Sm2 1_555 1_555
O11C Sm2 1_555 1_555
O13C Sm2 1_555 1_555
O15C Sm2 1_555 1_555
N2 C5 1_555 1_555
C4 C5 1_555 1_555
O11 Sm2C 1_555 1_555
N4 C10 1_555 1_555
C7 C8 1_555 1_555
C7 C9 1_555 1_555
O15 Sm2C_2 1_555 1_555

#END
