
#######################################################################
#
#                 Cambridge Crystallographic Data Centre
#                                CCDC 
#
#######################################################################
#
# If this CIF has been generated from an entry in the Cambridge 
# Structural Database, then it will include bibliographic, chemical, 
# crystal, experimental, refinement or atomic coordinate data resulting 
# from the CCDC's data processing and validation procedures.
#
#######################################################################

data_LAZSEM
_symmetry_cell_setting           monoclinic
_symmetry_space_group_name_H-M   'P 21/n'
_symmetry_Int_Tables_number      14
_space_group_name_Hall           '-P 2yn'
loop_
_symmetry_equiv_pos_site_id
_symmetry_equiv_pos_as_xyz
1 x,y,z
2 1/2-x,1/2+y,1/2-z
3 -x,-y,-z
4 1/2+x,1/2-y,1/2+z
_cell_length_a                   7.849(5)
_cell_length_b                   14.739(5)
_cell_length_c                   18.495(5)
_cell_angle_alpha                90
_cell_angle_beta                 101.446(5)
_cell_angle_gamma                90
_cell_volume                     2097.07
loop_
_atom_site_label
_atom_site_type_symbol
_atom_site_fract_x
_atom_site_fract_y
_atom_site_fract_z
C1 C -0.2583(3) 0.58418(18) 0.79566(14)
C2 C -0.1079(3) 0.53942(17) 0.84578(14)
C3 C -0.0634(4) 0.44889(19) 0.83736(15)
H1 H -0.1292 0.4144 0.7999
C4 C 0.0768(4) 0.40975(19) 0.88383(16)
H2 H 0.1049 0.3493 0.8780
C5 C 0.1745(3) 0.46150(19) 0.93900(14)
C6 C 0.1332(3) 0.55152(19) 0.94878(15)
H3 H 0.2001 0.5860 0.9860
C7 C -0.0087(4) 0.58930(18) 0.90242(15)
H4 H -0.0382 0.6493 0.9093
C8 C 0.4226(3) 0.36294(18) 0.97551(15)
C9 C 0.4855(4) 0.30276(18) 1.03093(15)
H5 H 0.4452 0.3046 1.0749
C10 C 0.6087(4) 0.23934(18) 1.02129(15)
H6 H 0.6528 0.1995 1.0594
C11 C 0.6678(3) 0.23433(17) 0.95500(14)
C12 C 0.6036(4) 0.29580(19) 0.89961(15)
H7 H 0.6425 0.2937 0.8553
C13 C 0.4812(4) 0.3610(2) 0.90962(16)
H8 H 0.4394 0.4025 0.8725
C14 C 0.7936(3) 0.16193(17) 0.94305(15)
C15 C 1.3146(4) 0.0446(2) 0.94381(17)
H9 H 1.3321 -0.0202 0.9507
H10 H 1.3894 0.0756 0.9844
C16 C 1.3602(4) 0.0735(3) 0.8710(2)
H11 H 1.3770 0.1387 0.8706
H12 H 1.4675 0.0445 0.8650
C17 C 1.2188(5) 0.1943(3) 0.7444(2)
H13 H 1.3267 0.2182 0.7728
H14 H 1.2022 0.2199 0.6952
C18 C 1.2324(5) 0.0923(3) 0.7396(2)
H15 H 1.1405 0.0700 0.7006
H16 H 1.3428 0.0765 0.7268
C19 C 1.2125(5) -0.0514(3) 0.7986(2)
H17 H 1.1180 -0.0660 0.7588
H18 H 1.1956 -0.0811 0.8428
H19 H 1.3199 -0.0714 0.7865
C20 C 1.2216(7) 0.1476(3) 1.1257(3)
H20 H 1.3043 0.1610 1.1700
H21 H 1.1094 0.1702 1.1301
H22 H 1.2574 0.1762 1.0845
N1 N 1.2189(3) 0.04735(17) 0.81029(13)
O1 O 0.8507(3) 0.11004(13) 0.99605(11)
O2 O 0.8274(3) 0.15810(15) 0.87913(11)
O3 O 0.3091(3) 0.42769(15) 0.99181(11)
O4 O -0.2994(3) 0.66214(14) 0.81077(12)
O5 O -0.3362(2) 0.53916(13) 0.73996(10)
O6 O 1.1380(2) 0.06671(13) 0.94299(10)
O7 O 1.0793(3) 0.22153(15) 0.77788(13)
O8 O 1.2124(4) 0.05446(17) 1.11480(14)
Cu1 Cu 1.0000 0.0000 1.0000
Cu2 Cu 1.00765(4) 0.09105(2) 0.845478(17)
H23 H 0.980(2) 0.213(2) 0.7455(14)
H24 H 1.211(4) 0.0182(9) 1.1545(9)
C1B C 2.2583(3) -0.58418(18) 1.20434(14)
C2B C 2.1079(3) -0.53942(17) 1.15422(14)
C3B C 2.0634(4) -0.44889(19) 1.16264(15)
H1B H 2.1292 -0.4144 1.2001
C4B C 1.9232(4) -0.40975(19) 1.11617(16)
H2B H 1.8951 -0.3493 1.1220
C5B C 1.8255(3) -0.46150(19) 1.06100(14)
C6B C 1.8668(3) -0.55152(19) 1.05122(15)
H3B H 1.7999 -0.5860 1.0140
C7B C 2.0087(4) -0.58930(18) 1.09758(15)
H4B H 2.0382 -0.6493 1.0907
C8B C 1.5774(3) -0.36294(18) 1.02449(15)
C9B C 1.5145(4) -0.30276(18) 0.96907(15)
H5B H 1.5548 -0.3046 0.9251
C10B C 1.3913(4) -0.23934(18) 0.97871(15)
H6B H 1.3472 -0.1995 0.9406
C11B C 1.3322(3) -0.23433(17) 1.04500(14)
C12B C 1.3964(4) -0.29580(19) 1.10039(15)
H7B H 1.3575 -0.2937 1.1447
C13B C 1.5188(4) -0.3610(2) 1.09038(16)
H8B H 1.5606 -0.4025 1.1275
C14B C 1.2064(3) -0.16193(17) 1.05695(15)
C15B C 0.6854(4) -0.0446(2) 1.05619(17)
H9B H 0.6679 0.0202 1.0493
H10B H 0.6106 -0.0756 1.0156
C16B C 0.6398(4) -0.0735(3) 1.1290(2)
H11B H 0.6230 -0.1387 1.1294
H12B H 0.5325 -0.0445 1.1350
C17B C 0.7812(5) -0.1943(3) 1.2556(2)
H13B H 0.6733 -0.2182 1.2272
H14B H 0.7978 -0.2199 1.3048
C18B C 0.7676(5) -0.0923(3) 1.2604(2)
H15B H 0.8595 -0.0700 1.2994
H16B H 0.6572 -0.0765 1.2732
C19B C 0.7875(5) 0.0514(3) 1.2014(2)
H17B H 0.8820 0.0660 1.2412
H18B H 0.8044 0.0811 1.1572
H19B H 0.6801 0.0714 1.2135
C20B C 0.7784(7) -0.1476(3) 0.8743(3)
H20B H 0.6957 -0.1610 0.8300
H21B H 0.8906 -0.1702 0.8699
H22B H 0.7426 -0.1762 0.9155
N1B N 0.7811(3) -0.04735(17) 1.18971(13)
O1B O 1.1493(3) -0.11004(13) 1.00395(11)
O2B O 1.1726(3) -0.15810(15) 1.12087(11)
O3B O 1.6909(3) -0.42769(15) 1.00819(11)
O4B O 2.2994(3) -0.66214(14) 1.18923(12)
O5B O 2.3362(2) -0.53916(13) 1.26004(10)
O5A O 0.8362(2) 0.03916(13) 0.76004(10)
O5C O 1.1638(2) -0.03916(13) 1.23996(10)
O6B O 0.8620(2) -0.06671(13) 1.05701(10)
O7B O 0.9207(3) -0.22153(15) 1.22212(13)
O8B O 0.7876(4) -0.05446(17) 0.88520(14)
Cu2B Cu 0.99235(4) -0.09105(2) 1.154522(17)
Cu2A Cu -0.50765(4) 0.59105(2) 0.654522(17)
Cu2C Cu 2.50765(4) -0.59105(2) 1.345478(17)
H23B H 1.020(2) -0.213(2) 1.2545(14)
H24B H 0.789(4) -0.0182(9) 0.8455(9)
loop_
_geom_bond_atom_site_label_1
_geom_bond_atom_site_label_2
_geom_bond_site_symmetry_1
_geom_bond_site_symmetry_2
C1 C2 1_555 1_555
C2 C3 1_555 1_555
C3 H1 1_555 1_555
C4 C3 1_555 1_555
H2 C4 1_555 1_555
C5 C4 1_555 1_555
C6 C5 1_555 1_555
H3 C6 1_555 1_555
C7 C2 1_555 1_555
H4 C7 1_555 1_555
C8 C9 1_555 1_555
C9 H5 1_555 1_555
C10 C9 1_555 1_555
H6 C10 1_555 1_555
C11 C10 1_555 1_555
C12 C11 1_555 1_555
H7 C12 1_555 1_555
C13 C8 1_555 1_555
H8 C13 1_555 1_555
C14 C11 1_555 1_555
C15 H9 1_555 1_555
H10 C15 1_555 1_555
C16 C15 1_555 1_555
H11 C16 1_555 1_555
H12 C16 1_555 1_555
C17 H13 1_555 1_555
H14 C17 1_555 1_555
C18 C17 1_555 1_555
H15 C18 1_555 1_555
H16 C18 1_555 1_555
C19 H17 1_555 1_555
H18 C19 1_555 1_555
H19 C19 1_555 1_555
C20 H20 1_555 1_555
H21 C20 1_555 1_555
H22 C20 1_555 1_555
N1 C16 1_555 1_555
O1 C14 1_555 1_555
O2 C14 1_555 1_555
O3 C5 1_555 1_555
O4 C1 1_555 1_555
O5 C1 1_555 1_555
O6 C15 1_555 1_555
O7 C17 1_555 1_555
O8 C20 1_555 1_555
Cu1 O1 1_555 1_555
Cu2 N1 1_555 1_555
H23 O7 1_555 1_555
H24 O8 1_555 1_555
C1B C2B 1_555 1_555
C2B C3B 1_555 1_555
C3B H1B 1_555 1_555
C4B C3B 1_555 1_555
H2B C4B 1_555 1_555
C5B C4B 1_555 1_555
C6B C5B 1_555 1_555
H3B C6B 1_555 1_555
C7B C2B 1_555 1_555
H4B C7B 1_555 1_555
C8B C9B 1_555 1_555
C9B H5B 1_555 1_555
C10B C9B 1_555 1_555
H6B C10B 1_555 1_555
C11B C10B 1_555 1_555
C12B C11B 1_555 1_555
H7B C12B 1_555 1_555
C13B C8B 1_555 1_555
H8B C13B 1_555 1_555
C14B C11B 1_555 1_555
C15B H9B 1_555 1_555
H10B C15B 1_555 1_555
C16B C15B 1_555 1_555
H11B C16B 1_555 1_555
H12B C16B 1_555 1_555
C17B H13B 1_555 1_555
H14B C17B 1_555 1_555
C18B C17B 1_555 1_555
H15B C18B 1_555 1_555
H16B C18B 1_555 1_555
C19B H17B 1_555 1_555
H18B C19B 1_555 1_555
H19B C19B 1_555 1_555
C20B H20B 1_555 1_555
H21B C20B 1_555 1_555
H22B C20B 1_555 1_555
N1B C16B 1_555 1_555
O1B Cu1 1_555 1_555
O2B C14B 1_555 1_555
O3B C5B 1_555 1_555
O4B C1B 1_555 1_555
O5B C1B 1_555 1_555
O5A Cu2 1_555 1_555
O5C Cu2B 1_555 1_555
O6B Cu1 1_555 1_555
O7B C17B 1_555 1_555
O8B Cu1 1_555 1_555
Cu2B N1B 1_555 1_555
Cu2A O5 1_555 1_555
Cu2C O5B 1_555 1_555
H23B O7B 1_555 1_555
H24B O8B 1_555 1_555
C6 C7 1_555 1_555
C8 O3 1_555 1_555
C12 C13 1_555 1_555
C18 N1 1_555 1_555
C19 N1 1_555 1_555
O2 Cu2 1_555 1_555
O6 Cu1 1_555 1_555
O6 Cu2 1_555 1_555
O7 Cu2 1_555 1_555
O8 Cu1 1_555 1_555
C6B C7B 1_555 1_555
C8B O3B 1_555 1_555
C12B C13B 1_555 1_555
C14B O1B 1_555 1_555
C15B O6B 1_555 1_555
C18B N1B 1_555 1_555
C19B N1B 1_555 1_555
C20B O8B 1_555 1_555
O2B Cu2B 1_555 1_555
O6B Cu2B 1_555 1_555
O7B Cu2B 1_555 1_555

#END
