
#######################################################################
#
#                 Cambridge Crystallographic Data Centre
#                                CCDC 
#
#######################################################################
#
# If this CIF has been generated from an entry in the Cambridge 
# Structural Database, then it will include bibliographic, chemical, 
# crystal, experimental, refinement or atomic coordinate data resulting 
# from the CCDC's data processing and validation procedures.
#
#######################################################################

data_LAZSOW
_symmetry_cell_setting           monoclinic
_symmetry_space_group_name_H-M   'C 2/c'
_symmetry_Int_Tables_number      15
_space_group_name_Hall           '-C 2yn'
loop_
_symmetry_equiv_pos_site_id
_symmetry_equiv_pos_as_xyz
1 x,y,z
2 -x,y,1/2-z
3 1/2+x,1/2+y,z
4 1/2-x,1/2+y,1/2-z
5 -x,-y,-z
6 x,-y,1/2+z
7 1/2-x,1/2-y,-z
8 1/2+x,1/2-y,1/2+z
_cell_length_a                   14.355(5)
_cell_length_b                   11.343(5)
_cell_length_c                   31.602(5)
_cell_angle_alpha                90
_cell_angle_beta                 102.611(5)
_cell_angle_gamma                90
_cell_volume                     5021.57
loop_
_atom_site_label
_atom_site_type_symbol
_atom_site_fract_x
_atom_site_fract_y
_atom_site_fract_z
C1 C 0.4110(3) -0.1890(3) -0.16145(11)
C2 C 0.4048(3) -0.2429(3) -0.11897(10)
C3 C 0.4577(3) -0.3396(4) -0.10264(13)
H1 H 0.4975 -0.3745 -0.1187
C4 C 0.4530(4) -0.3864(4) -0.06266(13)
H2 H 0.4892 -0.4523 -0.0520
C5 C 0.3954(3) -0.3357(4) -0.03923(11)
C6 C 0.3405(4) -0.2400(5) -0.05478(14)
H3 H 0.3010 -0.2057 -0.0385
C7 C 0.3445(3) -0.1951(4) -0.09492(13)
H4 H 0.3060 -0.1315 -0.1060
C8 C 0.4212(3) -0.3282(4) 0.03808(10)
C9 C 0.3926(3) -0.3725(4) 0.07384(11)
H5 H 0.3520 -0.4373 0.0711
C10 C 0.4245(3) -0.3204(4) 0.11366(11)
H6 H 0.4053 -0.3503 0.1378
C11 C 0.4848(2) -0.2239(3) 0.11821(10)
C12 C 0.5134(3) -0.1809(4) 0.08184(11)
H7 H 0.5541 -0.1162 0.0845
C13 C 0.4821(3) -0.2332(4) 0.04156(12)
H8 H 0.5019 -0.2046 0.0174
C14 C 0.5177(3) -0.1660(4) 0.16136(11)
C15 C 0.6919(3) -0.0993(3) 0.29809(10)
H9 H 0.6990 -0.1697 0.3159
H10 H 0.6612 -0.0390 0.3121
C16 C 0.7883(3) -0.0569(3) 0.29292(11)
H11 H 0.8249 -0.0284 0.3205
H12 H 0.8231 -0.1216 0.2835
C17 C 0.8600(3) 0.0554(4) 0.24129(13)
H13 H 0.9156 0.0680 0.2645
H14 H 0.8513 0.1254 0.2232
C18 C 0.8783(3) -0.0483(4) 0.21456(15)
H15 H 0.9272 -0.0289 0.1988
H16 H 0.9001 -0.1153 0.2332
C19 C 0.7553(3) 0.1521(4) 0.28029(13)
H17 H 0.7009 0.1425 0.2930
H18 H 0.7424 0.2126 0.2586
H19 H 0.8097 0.1742 0.3024
N1 N 0.7753(2) 0.0398(3) 0.26019(9)
O1 O 0.33812(19) -0.1315(2) -0.18016(8)
O2 O 0.4839(2) -0.2023(3) -0.17599(9)
O3 O 0.5000 0.0777(4) 0.2500
O4 O 0.3872(2) -0.3892(3) -0.00025(8)
O5 O 0.5740(2) -0.0804(3) 0.16393(8)
O6 O 0.48529(18) -0.2081(3) 0.19208(8)
O7 O 0.63552(15) -0.1245(2) 0.25607(7)
O8 O 0.7919(2) -0.0764(3) 0.18514(10)
Cu1 Cu 0.5000 -0.13850(6) 0.2500
Cu2 Cu 0.66172(3) -0.01261(4) 0.213779(13)
H28 H 0.507(3) 0.129(3) 0.2716(9)
H29 H 0.801(3) -0.136(2) 0.1680(11)
C1A C 0.5890(3) -0.1890(3) 0.66145(11)
C2A C 0.5952(3) -0.2429(3) 0.61897(10)
C3A C 0.5423(3) -0.3396(4) 0.60264(13)
H1A H 0.5025 -0.3745 0.6187
C4A C 0.5470(4) -0.3864(4) 0.56266(13)
H2A H 0.5108 -0.4523 0.5520
C5A C 0.6046(3) -0.3357(4) 0.53923(11)
C6A C 0.6595(4) -0.2400(5) 0.55478(14)
H3A H 0.6990 -0.2057 0.5385
C7A C 0.6555(3) -0.1951(4) 0.59492(13)
H4A H 0.6940 -0.1315 0.6060
C8A C 0.5788(3) -0.3282(4) 0.46192(10)
C9A C 0.6074(3) -0.3725(4) 0.42616(11)
H5A H 0.6480 -0.4373 0.4289
C10A C 0.5755(3) -0.3204(4) 0.38634(11)
H6A H 0.5947 -0.3503 0.3622
C11A C 0.5152(2) -0.2239(3) 0.38179(10)
C12A C 0.4866(3) -0.1809(4) 0.41816(11)
H7A H 0.4459 -0.1162 0.4155
C13A C 0.5179(3) -0.2332(4) 0.45844(12)
H8A H 0.4981 -0.2046 0.4826
C14A C 0.4823(3) -0.1660(4) 0.33864(11)
C15A C 0.3081(3) -0.0993(3) 0.20191(10)
H9A H 0.3010 -0.1697 0.1841
H10A H 0.3388 -0.0390 0.1879
C16A C 0.2117(3) -0.0569(3) 0.20708(11)
H11A H 0.1751 -0.0284 0.1795
H12A H 0.1769 -0.1216 0.2165
C17A C 0.1400(3) 0.0554(4) 0.25871(13)
H13A H 0.0844 0.0680 0.2355
H14A H 0.1487 0.1254 0.2768
C18A C 0.1217(3) -0.0483(4) 0.28544(15)
H15A H 0.0728 -0.0289 0.3012
H16A H 0.0999 -0.1153 0.2668
C19A C 0.2447(3) 0.1521(4) 0.21971(13)
H17A H 0.2991 0.1425 0.2070
H18A H 0.2576 0.2126 0.2414
H19A H 0.1903 0.1742 0.1976
N1A N 0.2247(2) 0.0398(3) 0.23981(9)
O1A O 0.66188(19) -0.1315(2) 0.68016(8)
O1D O 0.66188(19) 0.1315(2) 0.18016(8)
O1E O 0.33812(19) 0.1315(2) 0.31984(8)
O2A O 0.5161(2) -0.2023(3) 0.67599(9)
O4A O 0.6128(2) -0.3892(3) 0.50025(8)
O5A O 0.4260(2) -0.0804(3) 0.33607(8)
O6A O 0.51471(18) -0.2081(3) 0.30792(8)
O7A O 0.36448(15) -0.1245(2) 0.24393(7)
O8A O 0.2081(2) -0.0764(3) 0.31486(10)
Cu2A Cu 0.33828(3) -0.01261(4) 0.286221(13)
Cu2D Cu 0.33828(3) 0.01261(4) -0.213779(13)
Cu2E Cu 0.66172(3) 0.01261(4) 0.713779(13)
H28A H 0.493(3) 0.129(3) 0.2284(9)
H29A H 0.199(3) -0.136(2) 0.3320(11)
C20 C 0.7837(9) -0.2942(13) 0.0906(3)
H20 H 0.7996 -0.2470 0.0676
H21 H 0.7152 -0.2907 0.0880
C21 C 0.8142(14) -0.4185(15) 0.0869(6)
H22 H 0.8771 -0.4346 0.1047
H23 H 0.7684 -0.4751 0.0931
C22 C 0.8141(13) -0.411(2) 0.0408(6)
H24 H 0.8335 -0.4855 0.0311
H25 H 0.8577 -0.3508 0.0362
H26 H 0.7510 -0.3923 0.0248
O9 O 0.8337(3) -0.2480(4) 0.13332(13)
H27 H 0.8914 -0.2479 0.1348
loop_
_geom_bond_atom_site_label_1
_geom_bond_atom_site_label_2
_geom_bond_site_symmetry_1
_geom_bond_site_symmetry_2
C1 C2 1_555 1_555
C2 C3 1_555 1_555
C3 H1 1_555 1_555
C4 C3 1_555 1_555
H2 C4 1_555 1_555
C5 C4 1_555 1_555
C6 C5 1_555 1_555
H3 C6 1_555 1_555
C7 C2 1_555 1_555
H4 C7 1_555 1_555
C8 C9 1_555 1_555
C9 H5 1_555 1_555
C10 C9 1_555 1_555
H6 C10 1_555 1_555
C11 C10 1_555 1_555
C12 C11 1_555 1_555
H7 C12 1_555 1_555
C13 C8 1_555 1_555
H8 C13 1_555 1_555
C14 C11 1_555 1_555
C15 H9 1_555 1_555
H10 C15 1_555 1_555
C16 C15 1_555 1_555
H11 C16 1_555 1_555
H12 C16 1_555 1_555
C17 H13 1_555 1_555
H14 C17 1_555 1_555
C18 C17 1_555 1_555
H15 C18 1_555 1_555
H16 C18 1_555 1_555
C19 H17 1_555 1_555
H18 C19 1_555 1_555
H19 C19 1_555 1_555
C20 H20 1_555 1_555
H21 C20 1_555 1_555
C21 C20 1_555 1_555
H22 C21 1_555 1_555
H23 C21 1_555 1_555
C22 C21 1_555 1_555
H24 C22 1_555 1_555
H25 C22 1_555 1_555
H26 C22 1_555 1_555
N1 C16 1_555 1_555
O1 C1 1_555 1_555
O2 C1 1_555 1_555
O3 Cu1 1_555 1_555
O4 C5 1_555 1_555
O5 C14 1_555 1_555
O6 C14 1_555 1_555
O7 C15 1_555 1_555
O8 C18 1_555 1_555
O9 C20 1_555 1_555
H27 O9 1_555 1_555
Cu1 O6 1_555 1_555
Cu2 N1 1_555 1_555
H28 O3 1_555 1_555
H29 O8 1_555 1_555
C1A C2A 1_555 1_555
C2A C3A 1_555 1_555
C3A H1A 1_555 1_555
C4A C3A 1_555 1_555
H2A C4A 1_555 1_555
C5A C4A 1_555 1_555
C6A C5A 1_555 1_555
H3A C6A 1_555 1_555
C7A C2A 1_555 1_555
H4A C7A 1_555 1_555
C8A C9A 1_555 1_555
C9A H5A 1_555 1_555
C10A C9A 1_555 1_555
H6A C10A 1_555 1_555
C11A C10A 1_555 1_555
C12A C11A 1_555 1_555
H7A C12A 1_555 1_555
C13A C8A 1_555 1_555
H8A C13A 1_555 1_555
C14A C11A 1_555 1_555
C15A H9A 1_555 1_555
H10A C15A 1_555 1_555
C16A C15A 1_555 1_555
H11A C16A 1_555 1_555
H12A C16A 1_555 1_555
C17A H13A 1_555 1_555
H14A C17A 1_555 1_555
C18A C17A 1_555 1_555
H15A C18A 1_555 1_555
H16A C18A 1_555 1_555
C19A H17A 1_555 1_555
H18A C19A 1_555 1_555
H19A C19A 1_555 1_555
N1A C16A 1_555 1_555
O1A C1A 1_555 1_555
O1D Cu2 1_555 1_555
O1E Cu2A 1_555 1_555
O2A C1A 1_555 1_555
O4A C5A 1_555 1_555
O5A C14A 1_555 1_555
O6A Cu1 1_555 1_555
O7A Cu1 1_555 1_555
O8A C18A 1_555 1_555
Cu2A N1A 1_555 1_555
Cu2D O1 1_555 1_555
Cu2E O1A 1_555 1_555
H28A O3 1_555 1_555
H29A O8A 1_555 1_555
C6 C7 1_555 1_555
C8 O4 1_555 1_555
C12 C13 1_555 1_555
C17 N1 1_555 1_555
C19 N1 1_555 1_555
O5 Cu2 1_555 1_555
O7 Cu1 1_555 1_555
O7 Cu2 1_555 1_555
O8 Cu2 1_555 1_555
C6A C7A 1_555 1_555
C8A O4A 1_555 1_555
C12A C13A 1_555 1_555
C14A O6A 1_555 1_555
C15A O7A 1_555 1_555
C17A N1A 1_555 1_555
C19A N1A 1_555 1_555
O5A Cu2A 1_555 1_555
O7A Cu2A 1_555 1_555
O8A Cu2A 1_555 1_555

#END
