
#######################################################################
#
#                 Cambridge Crystallographic Data Centre
#                                CCDC 
#
#######################################################################
#
# If this CIF has been generated from an entry in the Cambridge 
# Structural Database, then it will include bibliographic, chemical, 
# crystal, experimental, refinement or atomic coordinate data resulting 
# from the CCDC's data processing and validation procedures.
#
#######################################################################

data_LAZTUD
_symmetry_cell_setting           monoclinic
_symmetry_space_group_name_H-M   'P 21/c'
_symmetry_Int_Tables_number      14
_space_group_name_Hall           '-P 2ybc'
loop_
_symmetry_equiv_pos_site_id
_symmetry_equiv_pos_as_xyz
1 x,y,z
2 -x,1/2+y,1/2-z
3 -x,-y,-z
4 x,1/2-y,1/2+z
_cell_length_a                   6.44350(10)
_cell_length_b                   21.1512(5)
_cell_length_c                   14.0950(3)
_cell_angle_alpha                90
_cell_angle_beta                 93.268(2)
_cell_angle_gamma                90
_cell_volume                     1917.85
loop_
_atom_site_label
_atom_site_type_symbol
_atom_site_fract_x
_atom_site_fract_y
_atom_site_fract_z
Er1 Er 0.72215(4) 0.611589(14) 0.598767(18)
Er2 Er 0.25149(4) 0.624900(14) 0.170450(18)
S1 S 0.5075(3) 0.54049(8) 0.37741(10)
O1 O 0.5303(8) 0.5995(2) 0.8992(3)
O2 O 0.5965(7) 0.5996(2) 0.7464(3)
O3 O 0.5294(7) 0.5845(2) 0.4584(3)
O4 O 0.3251(7) 0.4994(2) 0.3886(3)
O5 O 0.6958(8) 0.5020(3) 0.3728(3)
N1 N 0.4144(8) 0.7242(3) 0.8959(3)
H1 H 0.4266 0.7092 0.9526
O6 O 0.4714(8) 0.5771(3) 0.2897(3)
C1 C 0.5291(9) 0.6262(3) 0.8198(4)
C2 C 0.3589(10) 0.7828(3) 0.8728(4)
H2 H 0.3279 0.8140 0.9164
C3 C 0.4496(10) 0.6909(3) 0.8137(4)
O7 O 0.4429(7) 0.6795(2) 0.5950(3)
N2 N 0.3532(8) 0.7914(3) 0.7797(3)
O8 O 0.5588(9) 0.6061(3) 0.0967(4)
O9 O 0.2313(9) 0.5139(3) 0.1308(4)
C4 C 0.4058(9) 0.7298(3) 0.6364(4)
C5 C 0.4070(9) 0.7338(3) 0.7419(4)
O10 O 0.8593(7) 0.7059(2) 0.6766(3)
O11 O 0.3645(7) 0.7818(2) 0.5946(3)
O12 O 1.0254(8) 0.8834(2) 0.3714(3)
N3 N 0.8950(8) 0.7607(3) 0.3743(3)
H3 H 0.9074 0.7747 0.3177
C6 C 1.0227(9) 0.8589(3) 0.4521(4)
N4 N 0.8292(8) 0.6949(3) 0.4900(3)
C7 C 0.8946(9) 0.7515(3) 0.5281(4)
C8 C 0.9103(9) 0.7562(3) 0.6342(4)
C9 C 0.9365(9) 0.7941(3) 0.4565(4)
C10 C 0.8321(10) 0.7029(3) 0.3969(4)
H4 H 0.7947 0.6718 0.3525
O13 O 0.9640(7) 0.8060(2) 0.6767(3)
O14 O 0.9877(8) 0.5703(3) 0.5015(3)
O15 O 1.0888(7) 0.8855(2) 0.5271(3)
O16 O 1.0158(8) 0.5805(3) 0.6931(3)
O17 O 0.0167(9) 0.5777(3) 0.2722(4)
H6 H 0.532(17) 0.611(4) 0.0367(16)
H7 H 0.930(13) 0.553(5) 0.452(5)
H9 H 0.617(16) 0.570(3) 0.105(6)
H10 H -0.107(7) 0.588(4) 0.251(7)
H11 H 1.098(10) 0.549(4) 0.518(6)
H12 H 0.289(15) 0.482(3) 0.159(5)
H13 H 0.261(16) 0.513(4) 0.072(2)
H14 H 1.119(11) 0.558(5) 0.675(6)
H15 H 1.038(14) 0.589(5) 0.752(2)
H16 H 0.021(15) 0.5370(6) 0.273(7)
Er1B Er 0.27785(4) 0.388411(14) 0.401233(18)
Er2C Er 0.25149(4) 0.875100(14) 0.670450(18)
Er2C_2 Er 1.25149(4) 0.875100(14) 0.670450(18)
O4B O 0.6749(7) 0.5006(2) 0.6114(3)
N2C N 0.3532(8) 0.7086(3) 0.2797(3)
O11C O 0.3645(7) 0.7182(2) 0.0946(3)
O13C O -0.0360(7) 0.6940(2) 0.1767(3)
O15C O 0.0888(7) 0.6145(2) 0.0271(3)
O18 O 0.2350(12) 0.4996(3) 0.9207(5)
H5 H 0.210(18) 0.493(5) 0.8606(19)
H8 H 0.310(16) 0.533(3) 0.926(6)
loop_
_geom_bond_atom_site_label_1
_geom_bond_atom_site_label_2
_geom_bond_site_symmetry_1
_geom_bond_site_symmetry_2
Er1 O2 1_555 1_555
Er2 O6 1_555 1_555
S1 O3 1_555 1_555
O1 C1 1_555 1_555
O2 C1 1_555 1_555
O3 Er1 1_555 1_555
O4 S1 1_555 1_555
O5 S1 1_555 1_555
N1 H1 1_555 1_555
O6 S1 1_555 1_555
C1 C3 1_555 1_555
C2 N1 1_555 1_555
H2 C2 1_555 1_555
C3 N1 1_555 1_555
O7 Er1 1_555 1_555
N2 C2 1_555 1_555
O8 Er2 1_555 1_555
O9 Er2 1_555 1_555
C4 O7 1_555 1_555
C5 C3 1_555 1_555
O10 Er1 1_555 1_555
O11 C4 1_555 1_555
O12 C6 1_555 1_555
N3 H3 1_555 1_555
C6 C9 1_555 1_555
N4 Er1 1_555 1_555
C7 N4 1_555 1_555
C8 O10 1_555 1_555
C9 N3 1_555 1_555
C10 N3 1_555 1_555
H4 C10 1_555 1_555
O13 C8 1_555 1_555
O14 Er1 1_555 1_555
O15 C6 1_555 1_555
O16 Er1 1_555 1_555
O17 Er2 1_555 1_555
O18 H5 1_555 1_555
H6 O8 1_555 1_555
H7 O14 1_555 1_555
H8 O18 1_555 1_555
H9 O8 1_555 1_555
H10 O17 1_555 1_555
H11 O14 1_555 1_555
H12 O9 1_555 1_555
H13 O9 1_555 1_555
H14 O16 1_555 1_555
H15 O16 1_555 1_555
H16 O17 1_555 1_555
Er1B O4 1_555 1_555
Er2C N2 1_555 1_555
Er2C_2 O13 1_555 1_555
O4B Er1 1_555 1_555
N2C Er2 1_555 1_555
O11C Er2 1_555 1_555
O13C Er2 1_555 1_555
O15C Er2 1_555 1_555
N2 C5 1_555 1_555
C4 C5 1_555 1_555
O11 Er2C 1_555 1_555
N4 C10 1_555 1_555
C7 C8 1_555 1_555
C7 C9 1_555 1_555
O15 Er2C_2 1_555 1_555

#END
