
#######################################################################
#
#                 Cambridge Crystallographic Data Centre
#                                CCDC 
#
#######################################################################
#
# If this CIF has been generated from an entry in the Cambridge 
# Structural Database, then it will include bibliographic, chemical, 
# crystal, experimental, refinement or atomic coordinate data resulting 
# from the CCDC's data processing and validation procedures.
#
#######################################################################

data_LAZTEN
_symmetry_cell_setting           monoclinic
_symmetry_space_group_name_H-M   'P 21/c'
_symmetry_Int_Tables_number      14
_space_group_name_Hall           '-P 2ybc'
loop_
_symmetry_equiv_pos_site_id
_symmetry_equiv_pos_as_xyz
1 x,y,z
2 -x,1/2+y,1/2-z
3 -x,-y,-z
4 x,1/2-y,1/2+z
_cell_length_a                   6.4504(3)
_cell_length_b                   21.3003(8)
_cell_length_c                   14.1455(5)
_cell_angle_alpha                90
_cell_angle_beta                 93.347(4)
_cell_angle_gamma                90
_cell_volume                     1940.21
loop_
_atom_site_label
_atom_site_type_symbol
_atom_site_fract_x
_atom_site_fract_y
_atom_site_fract_z
Tb1 Tb 0.72338(6) 0.611022(17) 0.59907(2)
Tb2 Tb 0.25134(6) 0.624370(17) 0.17033(2)
S1 S 0.5058(3) 0.54004(9) 0.37751(12)
O1 O 0.5257(10) 0.6002(3) 0.9002(4)
O2 O 0.5951(9) 0.5999(2) 0.7480(4)
O3 O 0.5288(9) 0.5841(2) 0.4576(3)
O4 O 0.3213(9) 0.5001(3) 0.3890(4)
O5 O 0.6918(10) 0.5016(3) 0.3736(4)
N1 N 0.4154(10) 0.7239(3) 0.8963(4)
H1 H 0.4272 0.7090 0.9528
O6 O 0.4740(10) 0.5759(3) 0.2894(4)
C1 C 0.5297(12) 0.6256(4) 0.8212(6)
C2 C 0.3615(12) 0.7828(4) 0.8737(5)
H2 H 0.3329 0.8140 0.9171
C3 C 0.4492(12) 0.6906(4) 0.8151(5)
O7 O 0.4417(9) 0.6790(3) 0.5963(3)
N2 N 0.3547(10) 0.7903(3) 0.7809(4)
O8 O 0.5653(11) 0.6063(3) 0.0974(4)
O9 O 0.2283(11) 0.5132(3) 0.1288(5)
C4 C 0.4103(12) 0.7299(3) 0.6388(5)
C5 C 0.4076(11) 0.7337(4) 0.7432(5)
O10 O 0.8649(9) 0.7059(3) 0.6759(3)
O11 O 0.3680(9) 0.7809(3) 0.5957(3)
O12 O 1.0226(10) 0.8820(3) 0.3704(4)
N3 N 0.8954(10) 0.7600(3) 0.3741(4)
H3 H 0.9072 0.7742 0.3178
C6 C 1.0200(11) 0.8577(4) 0.4507(5)
N4 N 0.8311(10) 0.6956(3) 0.4890(4)
C7 C 0.8972(11) 0.7522(4) 0.5279(5)
C8 C 0.9098(12) 0.7568(4) 0.6331(5)
C9 C 0.9379(11) 0.7929(4) 0.4564(5)
C10 C 0.8328(13) 0.7025(4) 0.3961(5)
H4 H 0.7953 0.6715 0.3521
O13 O 0.9623(8) 0.8056(2) 0.6752(3)
O14 O 0.9943(11) 0.5695(3) 0.5008(4)
O15 O 1.0891(10) 0.8848(2) 0.5262(4)
O16 O 1.0207(10) 0.5789(4) 0.6950(4)
O17 O 0.0080(12) 0.5758(4) 0.2709(6)
H6 H 0.56(2) 0.613(5) 0.0372(16)
H7 H 0.962(16) 0.552(5) 0.447(5)
H9 H 0.61(2) 0.568(2) 0.107(7)
H10 H -0.115(8) 0.582(5) 0.246(9)
H11 H 1.111(11) 0.554(6) 0.522(7)
H12 H 0.309(16) 0.488(5) 0.161(6)
H13 H 0.260(18) 0.511(6) 0.071(2)
H14 H 1.126(11) 0.558(5) 0.678(7)
H15 H 1.048(16) 0.592(6) 0.752(4)
H16 H 0.007(17) 0.540(3) 0.300(8)
Tb1B Tb 0.27662(6) 0.388978(17) 0.40093(2)
Tb2C Tb 0.25134(6) 0.875630(17) 0.67033(2)
Tb2C_2 Tb 1.25134(6) 0.875630(17) 0.67033(2)
O4B O 0.6787(9) 0.4999(3) 0.6110(4)
N2C N 0.3547(10) 0.7097(3) 0.2809(4)
O11C O 0.3680(9) 0.7191(3) 0.0957(3)
O13C O -0.0377(8) 0.6944(2) 0.1752(3)
O15C O 0.0891(10) 0.6152(2) 0.0262(4)
O18 O 0.2378(15) 0.5015(3) 0.9227(6)
H5 H 0.204(19) 0.494(5) 0.864(2)
H8 H 0.312(18) 0.535(4) 0.925(7)
loop_
_geom_bond_atom_site_label_1
_geom_bond_atom_site_label_2
_geom_bond_site_symmetry_1
_geom_bond_site_symmetry_2
Tb1 O2 1_555 1_555
Tb2 O6 1_555 1_555
S1 O3 1_555 1_555
O1 C1 1_555 1_555
O2 C1 1_555 1_555
O3 Tb1 1_555 1_555
O4 S1 1_555 1_555
O5 S1 1_555 1_555
N1 H1 1_555 1_555
O6 S1 1_555 1_555
C1 C3 1_555 1_555
C2 N1 1_555 1_555
H2 C2 1_555 1_555
C3 N1 1_555 1_555
O7 Tb1 1_555 1_555
N2 C2 1_555 1_555
O8 Tb2 1_555 1_555
O9 Tb2 1_555 1_555
C4 O7 1_555 1_555
C5 C3 1_555 1_555
O10 Tb1 1_555 1_555
O11 C4 1_555 1_555
O12 C6 1_555 1_555
N3 H3 1_555 1_555
C6 C9 1_555 1_555
N4 Tb1 1_555 1_555
C7 N4 1_555 1_555
C8 O10 1_555 1_555
C9 N3 1_555 1_555
C10 N3 1_555 1_555
H4 C10 1_555 1_555
O13 C8 1_555 1_555
O14 Tb1 1_555 1_555
O15 C6 1_555 1_555
O16 Tb1 1_555 1_555
O17 Tb2 1_555 1_555
O18 H5 1_555 1_555
H6 O8 1_555 1_555
H7 O14 1_555 1_555
H8 O18 1_555 1_555
H9 O8 1_555 1_555
H10 O17 1_555 1_555
H11 O14 1_555 1_555
H12 O9 1_555 1_555
H13 O9 1_555 1_555
H14 O16 1_555 1_555
H15 O16 1_555 1_555
H16 O17 1_555 1_555
Tb1B O4 1_555 1_555
Tb2C N2 1_555 1_555
Tb2C_2 O13 1_555 1_555
O4B Tb1 1_555 1_555
N2C Tb2 1_555 1_555
O11C Tb2 1_555 1_555
O13C Tb2 1_555 1_555
O15C Tb2 1_555 1_555
N2 C5 1_555 1_555
C4 C5 1_555 1_555
O11 Tb2C 1_555 1_555
N4 C10 1_555 1_555
C7 C8 1_555 1_555
C7 C9 1_555 1_555
O15 Tb2C_2 1_555 1_555

#END
