
#######################################################################
#
#                 Cambridge Crystallographic Data Centre
#                                CCDC 
#
#######################################################################
#
# If this CIF has been generated from an entry in the Cambridge 
# Structural Database, then it will include bibliographic, chemical, 
# crystal, experimental, refinement or atomic coordinate data resulting 
# from the CCDC's data processing and validation procedures.
#
#######################################################################

data_LAZTIR
_symmetry_cell_setting           monoclinic
_symmetry_space_group_name_H-M   'P 21/c'
_symmetry_Int_Tables_number      14
_space_group_name_Hall           '-P 2ybc'
loop_
_symmetry_equiv_pos_site_id
_symmetry_equiv_pos_as_xyz
1 x,y,z
2 -x,1/2+y,1/2-z
3 -x,-y,-z
4 x,1/2-y,1/2+z
_cell_length_a                   6.4417(2)
_cell_length_b                   21.2712(5)
_cell_length_c                   14.1377(4)
_cell_angle_alpha                90
_cell_angle_beta                 93.272(2)
_cell_angle_gamma                90
_cell_volume                     1934.03
loop_
_atom_site_label
_atom_site_type_symbol
_atom_site_fract_x
_atom_site_fract_y
_atom_site_fract_z
Dy1 Dy 0.72320(5) 0.611223(14) 0.59892(2)
Dy2 Dy 0.25154(5) 0.624570(14) 0.17032(2)
S1 S 0.5064(3) 0.54014(8) 0.37746(11)
O1 O 0.5288(8) 0.6004(2) 0.8997(3)
O2 O 0.5946(7) 0.6002(2) 0.7472(3)
O3 O 0.5289(8) 0.5846(2) 0.4577(3)
O4 O 0.3226(7) 0.4998(2) 0.3889(3)
O5 O 0.6938(8) 0.5022(3) 0.3730(4)
N1 N 0.4163(8) 0.7238(2) 0.8962(4)
H1 H 0.4279 0.7086 0.9527
O6 O 0.4726(8) 0.5766(2) 0.2893(3)
C1 C 0.5285(10) 0.6251(3) 0.8201(5)
C2 C 0.3629(10) 0.7828(3) 0.8734(4)
H2 H 0.3339 0.8138 0.9170
C3 C 0.4497(10) 0.6912(3) 0.8142(4)
O7 O 0.4428(7) 0.6794(2) 0.5962(3)
N2 N 0.3567(8) 0.7910(3) 0.7814(4)
O8 O 0.5629(9) 0.6052(3) 0.0970(4)
O9 O 0.2307(9) 0.5134(2) 0.1289(4)
C4 C 0.4071(10) 0.7303(3) 0.6371(4)
C5 C 0.4085(10) 0.7337(3) 0.7424(4)
O10 O 0.8627(7) 0.7062(2) 0.6762(3)
O11 O 0.3676(7) 0.7814(2) 0.5955(3)
O12 O 1.0235(8) 0.8823(2) 0.3715(3)
N3 N 0.8944(8) 0.7601(3) 0.3741(4)
H3 H 0.9053 0.7741 0.3175
C6 C 1.0206(10) 0.8585(3) 0.4510(5)
N4 N 0.8313(8) 0.6955(2) 0.4897(4)
C7 C 0.8958(9) 0.7521(3) 0.5282(4)
C8 C 0.9103(10) 0.7564(3) 0.6333(4)
C9 C 0.9371(10) 0.7934(3) 0.4564(4)
C10 C 0.8327(10) 0.7019(3) 0.3971(4)
H4 H 0.7961 0.6705 0.3535
O13 O 0.9632(7) 0.8058(2) 0.6757(3)
O14 O 0.9911(9) 0.5700(3) 0.5007(4)
O15 O 1.0882(8) 0.8848(2) 0.5266(3)
O16 O 1.0194(8) 0.5793(3) 0.6947(4)
O17 O 0.0093(10) 0.5768(3) 0.2706(5)
H5 H 0.564(15) 0.619(5) 0.040(3)
H6 H 0.916(13) 0.557(4) 0.452(5)
H7 H 0.667(11) 0.580(4) 0.106(6)
H8 H -0.118(6) 0.573(5) 0.249(8)
H9 H 1.088(11) 0.543(3) 0.513(7)
H10 H 0.282(16) 0.485(3) 0.167(5)
H11 H 0.259(17) 0.503(5) 0.072(2)
H12 H 1.133(8) 0.562(5) 0.678(6)
H13 H 1.038(14) 0.589(5) 0.754(2)
H14 H 0.042(14) 0.544(3) 0.303(7)
Dy1B Dy 0.27680(5) 0.388777(14) 0.40108(2)
Dy2C Dy 0.25154(5) 0.875430(14) 0.67032(2)
Dy2C_2 Dy 1.25154(5) 0.875430(14) 0.67032(2)
O4B O 0.6774(7) 0.5002(2) 0.6111(3)
N2C N 0.3567(8) 0.7090(3) 0.2814(4)
O11C O 0.3676(7) 0.7186(2) 0.0955(3)
O13C O -0.0368(7) 0.6942(2) 0.1757(3)
O15C O 0.0882(8) 0.6152(2) 0.0266(3)
O18 O 0.2363(12) 0.5010(3) 0.9224(5)
H15 H 0.200(17) 0.495(5) 0.863(2)
H16 H 0.331(13) 0.530(4) 0.925(7)
loop_
_geom_bond_atom_site_label_1
_geom_bond_atom_site_label_2
_geom_bond_site_symmetry_1
_geom_bond_site_symmetry_2
Dy1 O2 1_555 1_555
Dy2 O6 1_555 1_555
S1 O3 1_555 1_555
O1 C1 1_555 1_555
O2 C1 1_555 1_555
O3 Dy1 1_555 1_555
O4 S1 1_555 1_555
O5 S1 1_555 1_555
N1 H1 1_555 1_555
O6 S1 1_555 1_555
C1 C3 1_555 1_555
C2 N1 1_555 1_555
H2 C2 1_555 1_555
C3 N1 1_555 1_555
O7 Dy1 1_555 1_555
N2 C2 1_555 1_555
O8 Dy2 1_555 1_555
O9 Dy2 1_555 1_555
C4 O7 1_555 1_555
C5 C3 1_555 1_555
O10 Dy1 1_555 1_555
O11 C4 1_555 1_555
O12 C6 1_555 1_555
N3 H3 1_555 1_555
C6 C9 1_555 1_555
N4 Dy1 1_555 1_555
C7 N4 1_555 1_555
C8 O10 1_555 1_555
C9 N3 1_555 1_555
C10 N3 1_555 1_555
H4 C10 1_555 1_555
O13 C8 1_555 1_555
O14 Dy1 1_555 1_555
O15 C6 1_555 1_555
O16 Dy1 1_555 1_555
O17 Dy2 1_555 1_555
H5 O8 1_555 1_555
H6 O14 1_555 1_555
H7 O8 1_555 1_555
H8 O17 1_555 1_555
H9 O14 1_555 1_555
H10 O9 1_555 1_555
H11 O9 1_555 1_555
H12 O16 1_555 1_555
H13 O16 1_555 1_555
H14 O17 1_555 1_555
O18 H15 1_555 1_555
H16 O18 1_555 1_555
Dy1B O4 1_555 1_555
Dy2C N2 1_555 1_555
Dy2C_2 O13 1_555 1_555
O4B Dy1 1_555 1_555
N2C Dy2 1_555 1_555
O11C Dy2 1_555 1_555
O13C Dy2 1_555 1_555
O15C Dy2 1_555 1_555
N2 C5 1_555 1_555
C4 C5 1_555 1_555
O11 Dy2C 1_555 1_555
N4 C10 1_555 1_555
C7 C8 1_555 1_555
C7 C9 1_555 1_555
O15 Dy2C_2 1_555 1_555

#END
