
#######################################################################
#
#                 Cambridge Crystallographic Data Centre
#                                CCDC 
#
#######################################################################
#
# If this CIF has been generated from an entry in the Cambridge 
# Structural Database, then it will include bibliographic, chemical, 
# crystal, experimental, refinement or atomic coordinate data resulting 
# from the CCDC's data processing and validation procedures.
#
#######################################################################

data_LAZTIR01
_symmetry_cell_setting           monoclinic
_symmetry_space_group_name_H-M   'P 21/c'
_symmetry_Int_Tables_number      14
_space_group_name_Hall           '-P 2ybc'
loop_
_symmetry_equiv_pos_site_id
_symmetry_equiv_pos_as_xyz
1 x,y,z
2 -x,1/2+y,1/2-z
3 -x,-y,-z
4 x,1/2-y,1/2+z
_cell_length_a                   6.429(3)
_cell_length_b                   21.189(9)
_cell_length_c                   14.107(6)
_cell_angle_alpha                90
_cell_angle_beta                 93.142(4)
_cell_angle_gamma                90
_cell_volume                     1918.82
loop_
_atom_site_label
_atom_site_type_symbol
_atom_site_fract_x
_atom_site_fract_y
_atom_site_fract_z
Dy1 Dy 0.72324(2) 0.611240(7) 0.098906(10)
Dy2 Dy 0.74853(2) 0.375442(8) 0.329780(10)
O1 O 0.6333(4) 0.28144(12) 0.40517(16)
O2 O 0.5578(4) 0.17948(12) 0.40416(16)
O3 O 0.4050(4) 0.09993(12) 0.25254(17)
O4 O 0.4709(5) 0.09997(15) 0.1003(2)
O5 O 1.0364(4) 0.30582(12) 0.32471(16)
O6 O 1.1377(4) 0.20607(12) 0.32396(17)
O7 O 0.9773(5) 0.38214(14) 0.62850(19)
O8 O 0.9131(4) 0.38481(12) 0.47357(19)
O9 O 0.6771(4) 0.50001(13) 0.11135(19)
O10 O 0.5267(5) 0.42368(14) 0.21103(18)
O11 O 0.4724(4) 0.41597(12) 0.04195(17)
O12 O 0.3063(4) 0.49821(15) 0.1269(2)
O13 O 0.9882(6) 0.42373(18) 0.2283(3)
H1 H 1.091(7) 0.414(3) 0.264(4)
H2 H 1.093(6) 0.445(3) 0.218(4)
O14 O 0.7703(5) 0.48680(15) 0.3707(2)
H3 H 0.745(8) 0.498(3) 0.4253(19)
H4 H 0.706(7) 0.5180(17) 0.349(3)
O15 O 1.0200(5) 0.57943(17) 0.1944(2)
H5 H 1.131(5) 0.563(2) 0.177(3)
H6 H 1.034(8) 0.593(2) 0.2494(19)
O16 O 0.9918(5) 0.57008(16) 0.0015(2)
H7 H 1.119(3) 0.562(3) 0.007(3)
H8 H 0.955(8) 0.549(2) -0.045(2)
O17 O 0.4376(5) 0.39405(15) 0.4029(2)
H9 H 0.373(7) 0.4283(15) 0.402(4)
H10 H 0.439(8) 0.388(2) 0.4629(15)
N1 N 1.1042(5) 0.26000(15) 0.6259(2)
H11 H 1.099(6) 0.2731(19) 0.6845(16)
N2 N 1.1695(4) 0.19521(15) 0.51020(19)
N3 N 0.6453(4) 0.29077(14) 0.2198(2)
N4 N 0.5846(4) 0.22387(15) 0.10371(19)
H12 H 0.562(6) 0.2112(19) 0.0453(16)
S1 S 0.49393(13) 0.45983(4) 0.12248(5)
C1 C 0.5499(5) 0.19106(17) 0.1853(2)
C2 C 0.5912(5) 0.23377(16) 0.2575(2)
C3 C 0.6392(5) 0.28285(18) 0.1266(2)
H13 H 0.672(6) 0.3150(15) 0.081(2)
C4 C 0.5923(5) 0.23018(17) 0.3626(2)
C5 C 0.4718(5) 0.12567(17) 0.1796(3)
C6 C 1.1033(5) 0.25205(16) 0.4721(2)
C7 C 1.0623(5) 0.29358(17) 0.5433(2)
C8 C 1.1669(5) 0.20225(18) 0.6035(2)
H14 H 1.191(6) 0.173(2) 0.648(3)
C9 C 1.0895(5) 0.25601(17) 0.3664(2)
C10 C 0.9793(5) 0.35832(17) 0.5489(2)
Dy1A Dy 0.27676(2) 0.111240(7) 0.401094(10)
Dy1A_2 Dy 1.27676(2) 0.111240(7) 0.401094(10)
Dy1B Dy 0.27676(2) 0.388760(7) -0.098906(10)
O2A O 0.4422(4) 0.67948(12) 0.09584(16)
O3A O 0.5950(4) 0.59993(12) 0.24746(17)
O6A O 0.8623(4) 0.70607(12) 0.17604(17)
O11B O 0.5276(4) 0.58403(12) -0.04195(17)
N2A N 0.8305(4) 0.69521(15) -0.01020(19)
O18 O 0.2379(7) 0.5011(2) 0.4232(3)
H15 H 0.204(9) 0.495(3) 0.3649(18)
H16 H 0.329(7) 0.529(2) 0.418(4)
loop_
_geom_bond_atom_site_label_1
_geom_bond_atom_site_label_2
_geom_bond_site_symmetry_1
_geom_bond_site_symmetry_2
Dy1 O9 1_555 1_555
Dy2 O1 1_555 1_555
O1 C4 1_555 1_555
O2 C4 1_555 1_555
O3 C5 1_555 1_555
O4 C5 1_555 1_555
O5 Dy2 1_555 1_555
O6 C9 1_555 1_555
O7 C10 1_555 1_555
O8 Dy2 1_555 1_555
O9 S1 1_555 1_555
O10 Dy2 1_555 1_555
O11 S1 1_555 1_555
O12 S1 1_555 1_555
O13 Dy2 1_555 1_555
H1 O13 1_555 1_555
H2 O13 1_555 1_555
O14 Dy2 1_555 1_555
H3 O14 1_555 1_555
H4 O14 1_555 1_555
O15 Dy1 1_555 1_555
H5 O15 1_555 1_555
H6 O15 1_555 1_555
O16 Dy1 1_555 1_555
H7 O16 1_555 1_555
H8 O16 1_555 1_555
O17 Dy2 1_555 1_555
H9 O17 1_555 1_555
H10 O17 1_555 1_555
N1 H11 1_555 1_555
N2 C6 1_555 1_555
N3 Dy2 1_555 1_555
N4 H12 1_555 1_555
S1 O10 1_555 1_555
C1 N4 1_555 1_555
C2 N3 1_555 1_555
C3 N3 1_555 1_555
H13 C3 1_555 1_555
C4 C2 1_555 1_555
C5 C1 1_555 1_555
C6 C7 1_555 1_555
C7 N1 1_555 1_555
C8 N1 1_555 1_555
H14 C8 1_555 1_555
C9 O5 1_555 1_555
C10 O8 1_555 1_555
O18 H15 1_555 1_555
H16 O18 1_555 1_555
Dy1A O2 1_555 1_555
Dy1A_2 O6 1_555 1_555
Dy1B O11 1_555 1_555
O2A Dy1 1_555 1_555
O3A Dy1 1_555 1_555
O6A Dy1 1_555 1_555
O11B Dy1 1_555 1_555
N2A Dy1 1_555 1_555
O3 Dy1A 1_555 1_555
N2 C8 1_555 1_555
N2 Dy1A_2 1_555 1_555
N4 C3 1_555 1_555
C1 C2 1_555 1_555
C6 C9 1_555 1_555
C7 C10 1_555 1_555

#END
