
#######################################################################
#
#                 Cambridge Crystallographic Data Centre
#                                CCDC 
#
#######################################################################
#
# If this CIF has been generated from an entry in the Cambridge 
# Structural Database, then it will include bibliographic, chemical, 
# crystal, experimental, refinement or atomic coordinate data resulting 
# from the CCDC's data processing and validation procedures.
#
#######################################################################

data_LAZTOX
_symmetry_cell_setting           monoclinic
_symmetry_space_group_name_H-M   'P 21/c'
_symmetry_Int_Tables_number      14
_space_group_name_Hall           '-P 2ybc'
loop_
_symmetry_equiv_pos_site_id
_symmetry_equiv_pos_as_xyz
1 x,y,z
2 -x,1/2+y,1/2-z
3 -x,-y,-z
4 x,1/2-y,1/2+z
_cell_length_a                   6.4406(2)
_cell_length_b                   21.1952(9)
_cell_length_c                   14.1015(5)
_cell_angle_alpha                90
_cell_angle_beta                 93.350(3)
_cell_angle_gamma                90
_cell_volume                     1921.7
loop_
_atom_site_label
_atom_site_type_symbol
_atom_site_fract_x
_atom_site_fract_y
_atom_site_fract_z
Ho1 Ho 0.72267(4) 0.611479(16) 0.598793(19)
Ho2 Ho 0.25165(4) 0.624710(16) 0.17037(2)
S1 S 0.5067(2) 0.54014(9) 0.37749(11)
O1 O 0.5293(7) 0.5999(3) 0.8996(3)
O2 O 0.5949(6) 0.5998(2) 0.7471(3)
O3 O 0.5291(7) 0.5843(2) 0.4584(3)
O4 O 0.3251(6) 0.4998(2) 0.3889(3)
O5 O 0.6948(7) 0.5023(3) 0.3730(3)
N1 N 0.4148(7) 0.7242(3) 0.8960(4)
H1 H 0.4263 0.7088 0.9525
O6 O 0.4727(8) 0.5765(3) 0.2894(3)
C1 C 0.5286(9) 0.6261(4) 0.8205(4)
C2 C 0.3607(8) 0.7836(4) 0.8736(4)
H2 H 0.3329 0.8151 0.9172
C3 C 0.4493(8) 0.6916(3) 0.8134(4)
O7 O 0.4437(6) 0.6792(2) 0.5953(3)
N2 N 0.3526(7) 0.7910(3) 0.7799(4)
O8 O 0.5603(8) 0.6059(3) 0.0968(4)
O9 O 0.2333(8) 0.5136(3) 0.1308(4)
C4 C 0.4065(9) 0.7301(4) 0.6370(4)
C5 C 0.4078(8) 0.7342(3) 0.7422(4)
O10 O 0.8606(6) 0.7061(2) 0.6766(3)
O11 O 0.3650(6) 0.7815(2) 0.5950(3)
O12 O 1.0242(8) 0.8825(3) 0.3718(3)
N3 N 0.8952(7) 0.7603(3) 0.3746(4)
H3 H 0.9076 0.7742 0.3179
C6 C 1.0196(9) 0.8585(3) 0.4506(4)
N4 N 0.8312(7) 0.6953(3) 0.4906(3)
C7 C 0.8953(9) 0.7522(3) 0.5283(4)
C8 C 0.9106(9) 0.7561(4) 0.6336(4)
C9 C 0.9370(9) 0.7938(4) 0.4570(4)
C10 C 0.8323(8) 0.7026(3) 0.3971(4)
H4 H 0.7941 0.6714 0.3530
O13 O 0.9636(6) 0.8059(2) 0.6759(3)
O14 O 0.9896(8) 0.5697(3) 0.5016(3)
O15 O 1.0886(7) 0.8851(2) 0.5272(3)
O16 O 1.0181(7) 0.5805(3) 0.6938(3)
O17 O 0.0132(9) 0.5769(3) 0.2713(5)
H6 H 0.565(16) 0.618(4) 0.039(2)
H7 H 0.918(11) 0.547(5) 0.461(5)
H9 H 0.615(16) 0.569(2) 0.103(6)
H10 H -0.107(7) 0.578(5) 0.241(6)
H11 H 1.116(5) 0.571(5) 0.485(6)
H12 H 0.270(15) 0.480(3) 0.162(5)
H13 H 0.254(16) 0.507(4) 0.0721(18)
H14 H 1.126(10) 0.558(4) 0.684(6)
H15 H 1.032(13) 0.595(5) 0.751(3)
H16 H 0.018(14) 0.544(3) 0.307(6)
Ho1B Ho 0.27733(4) 0.388521(16) 0.401207(19)
Ho2C Ho 0.25165(4) 0.875290(16) 0.67037(2)
Ho2C_2 Ho 1.25165(4) 0.875290(16) 0.67037(2)
O4B O 0.6749(6) 0.5002(2) 0.6111(3)
N2C N 0.3526(7) 0.7090(3) 0.2799(4)
O11C O 0.3650(6) 0.7185(2) 0.0950(3)
O13C O -0.0364(6) 0.6941(2) 0.1759(3)
O15C O 0.0886(7) 0.6149(2) 0.0272(3)
O18 O 0.2367(10) 0.5006(4) 0.9228(5)
H5 H 0.217(15) 0.495(6) 0.8623(16)
H8 H 0.335(12) 0.528(4) 0.932(6)
loop_
_geom_bond_atom_site_label_1
_geom_bond_atom_site_label_2
_geom_bond_site_symmetry_1
_geom_bond_site_symmetry_2
Ho1 O2 1_555 1_555
Ho2 O6 1_555 1_555
S1 O3 1_555 1_555
O1 C1 1_555 1_555
O2 C1 1_555 1_555
O3 Ho1 1_555 1_555
O4 S1 1_555 1_555
O5 S1 1_555 1_555
N1 H1 1_555 1_555
O6 S1 1_555 1_555
C1 C3 1_555 1_555
C2 N1 1_555 1_555
H2 C2 1_555 1_555
C3 N1 1_555 1_555
O7 Ho1 1_555 1_555
N2 C2 1_555 1_555
O8 Ho2 1_555 1_555
O9 Ho2 1_555 1_555
C4 O7 1_555 1_555
C5 C3 1_555 1_555
O10 Ho1 1_555 1_555
O11 C4 1_555 1_555
O12 C6 1_555 1_555
N3 H3 1_555 1_555
C6 C9 1_555 1_555
N4 Ho1 1_555 1_555
C7 N4 1_555 1_555
C8 O10 1_555 1_555
C9 N3 1_555 1_555
C10 N3 1_555 1_555
H4 C10 1_555 1_555
O13 C8 1_555 1_555
O14 Ho1 1_555 1_555
O15 C6 1_555 1_555
O16 Ho1 1_555 1_555
O17 Ho2 1_555 1_555
O18 H5 1_555 1_555
H6 O8 1_555 1_555
H7 O14 1_555 1_555
H8 O18 1_555 1_555
H9 O8 1_555 1_555
H10 O17 1_555 1_555
H11 O14 1_555 1_555
H12 O9 1_555 1_555
H13 O9 1_555 1_555
H14 O16 1_555 1_555
H15 O16 1_555 1_555
H16 O17 1_555 1_555
Ho1B O4 1_555 1_555
Ho2C N2 1_555 1_555
Ho2C_2 O13 1_555 1_555
O4B Ho1 1_555 1_555
N2C Ho2 1_555 1_555
O11C Ho2 1_555 1_555
O13C Ho2 1_555 1_555
O15C Ho2 1_555 1_555
N2 C5 1_555 1_555
C4 C5 1_555 1_555
O11 Ho2C 1_555 1_555
N4 C10 1_555 1_555
C7 C8 1_555 1_555
C7 C9 1_555 1_555
O15 Ho2C_2 1_555 1_555

#END
