
#######################################################################
#
#                 Cambridge Crystallographic Data Centre
#                                CCDC 
#
#######################################################################
#
# If this CIF has been generated from an entry in the Cambridge 
# Structural Database, then it will include bibliographic, chemical, 
# crystal, experimental, refinement or atomic coordinate data resulting 
# from the CCDC's data processing and validation procedures.
#
#######################################################################

data_LAZTAJ
_symmetry_cell_setting           monoclinic
_symmetry_space_group_name_H-M   'P 21/c'
_symmetry_Int_Tables_number      14
_space_group_name_Hall           '-P 2ybc'
loop_
_symmetry_equiv_pos_site_id
_symmetry_equiv_pos_as_xyz
1 x,y,z
2 -x,1/2+y,1/2-z
3 -x,-y,-z
4 x,1/2-y,1/2+z
_cell_length_a                   6.45920(10)
_cell_length_b                   21.4480(5)
_cell_length_c                   14.2117(3)
_cell_angle_alpha                90
_cell_angle_beta                 93.261(2)
_cell_angle_gamma                90
_cell_volume                     1965.66
loop_
_atom_site_label
_atom_site_type_symbol
_atom_site_fract_x
_atom_site_fract_y
_atom_site_fract_z
Eu1 Eu 0.72393(3) 0.610439(11) 0.599653(13)
Eu2 Eu 0.25126(3) 0.623940(11) 0.170560(13)
S1 S 0.50469(18) 0.53964(6) 0.37748(7)
O1 O 0.5262(6) 0.60088(16) 0.9011(2)
O2 O 0.5931(5) 0.59987(15) 0.74948(18)
O3 O 0.5299(5) 0.58367(16) 0.45691(19)
O4 O 0.3181(5) 0.50156(15) 0.3882(2)
O5 O 0.6875(6) 0.49937(18) 0.3749(2)
N1 N 0.4161(6) 0.72390(18) 0.8968(2)
H1 H 0.4277 0.7090 0.9530
O6 O 0.4786(6) 0.57524(16) 0.2894(2)
C1 C 0.5272(7) 0.6264(2) 0.8216(3)
C2 C 0.3623(7) 0.7819(2) 0.8745(3)
H2 H 0.3336 0.8127 0.9181
C3 C 0.4503(7) 0.6914(2) 0.8157(3)
O7 O 0.4414(5) 0.67968(15) 0.59802(18)
N2 N 0.3550(6) 0.79030(17) 0.7824(2)
O8 O 0.5691(6) 0.60531(18) 0.0972(2)
O9 O 0.2290(6) 0.51170(18) 0.1276(2)
C4 C 0.4079(7) 0.7301(2) 0.6386(3)
C5 C 0.4094(7) 0.7333(2) 0.7449(3)
O10 O 0.8657(5) 0.70600(15) 0.67503(18)
O11 O 0.3708(5) 0.78105(15) 0.59677(19)
O12 O 1.0210(6) 0.88087(17) 0.37047(19)
N3 N 0.8960(6) 0.75987(18) 0.3741(2)
H3 H 0.9067 0.7737 0.3178
C6 C 1.0190(7) 0.8574(2) 0.4496(3)
N4 N 0.8331(6) 0.69536(18) 0.4890(2)
C7 C 0.8976(7) 0.7519(2) 0.5271(3)
C8 C 0.9105(7) 0.7561(2) 0.6326(3)
C9 C 0.9385(6) 0.7933(2) 0.4561(3)
C10 C 0.8355(7) 0.7025(2) 0.3968(3)
H4 H 0.7997 0.6715 0.3531
O13 O 0.9621(5) 0.80578(15) 0.67431(18)
O14 O 0.9995(6) 0.5703(2) 0.5022(2)
O15 O 1.0857(5) 0.88428(15) 0.52535(19)
O16 O 1.0232(5) 0.5773(2) 0.6970(2)
O17 O 0.0022(7) 0.5754(2) 0.2716(3)
H6 H 0.551(10) 0.618(3) 0.0398(15)
H7 H 0.988(9) 0.541(2) 0.462(3)
H9 H 0.633(10) 0.5701(17) 0.097(4)
H10 H -0.120(4) 0.578(3) 0.245(4)
H11 H 1.127(3) 0.575(3) 0.520(4)
H12 H 0.319(8) 0.491(3) 0.161(3)
H13 H 0.258(9) 0.509(3) 0.0698(12)
H14 H 1.141(4) 0.570(3) 0.675(4)
H15 H 1.043(8) 0.591(3) 0.7537(18)
H16 H 0.019(9) 0.5388(13) 0.295(4)
Eu1B Eu 0.27607(3) 0.389561(11) 0.400347(13)
Eu2C Eu 0.25126(3) 0.876060(11) 0.670560(13)
Eu2C_2 Eu 1.25126(3) 0.876060(11) 0.670560(13)
O4B O 0.6819(5) 0.49844(15) 0.6118(2)
N2C N 0.3550(6) 0.70970(17) 0.2824(2)
O11C O 0.3708(5) 0.71895(15) 0.09677(19)
O13C O -0.0379(5) 0.69422(15) 0.17431(18)
O15C O 0.0857(5) 0.61572(15) 0.02535(19)
O18 O 0.2381(8) 0.5024(2) 0.9240(3)
H5 H 0.211(10) 0.494(3) 0.8654(14)
H8 H 0.308(10) 0.5368(19) 0.926(4)
loop_
_geom_bond_atom_site_label_1
_geom_bond_atom_site_label_2
_geom_bond_site_symmetry_1
_geom_bond_site_symmetry_2
Eu1 O2 1_555 1_555
Eu2 O6 1_555 1_555
S1 O3 1_555 1_555
O1 C1 1_555 1_555
O2 C1 1_555 1_555
O3 Eu1 1_555 1_555
O4 S1 1_555 1_555
O5 S1 1_555 1_555
N1 H1 1_555 1_555
O6 S1 1_555 1_555
C1 C3 1_555 1_555
C2 N1 1_555 1_555
H2 C2 1_555 1_555
C3 N1 1_555 1_555
O7 Eu1 1_555 1_555
N2 C2 1_555 1_555
O8 Eu2 1_555 1_555
O9 Eu2 1_555 1_555
C4 O7 1_555 1_555
C5 C3 1_555 1_555
O10 Eu1 1_555 1_555
O11 C4 1_555 1_555
O12 C6 1_555 1_555
N3 H3 1_555 1_555
C6 C9 1_555 1_555
N4 Eu1 1_555 1_555
C7 N4 1_555 1_555
C8 O10 1_555 1_555
C9 N3 1_555 1_555
C10 N3 1_555 1_555
H4 C10 1_555 1_555
O13 C8 1_555 1_555
O14 Eu1 1_555 1_555
O15 C6 1_555 1_555
O16 Eu1 1_555 1_555
O17 Eu2 1_555 1_555
O18 H5 1_555 1_555
H6 O8 1_555 1_555
H7 O14 1_555 1_555
H8 O18 1_555 1_555
H9 O8 1_555 1_555
H10 O17 1_555 1_555
H11 O14 1_555 1_555
H12 O9 1_555 1_555
H13 O9 1_555 1_555
H14 O16 1_555 1_555
H15 O16 1_555 1_555
H16 O17 1_555 1_555
Eu1B O4 1_555 1_555
Eu2C N2 1_555 1_555
Eu2C_2 O13 1_555 1_555
O4B Eu1 1_555 1_555
N2C Eu2 1_555 1_555
O11C Eu2 1_555 1_555
O13C Eu2 1_555 1_555
O15C Eu2 1_555 1_555
N2 C5 1_555 1_555
C4 C5 1_555 1_555
O11 Eu2C 1_555 1_555
N4 C10 1_555 1_555
C7 C8 1_555 1_555
C7 C9 1_555 1_555
O15 Eu2C_2 1_555 1_555

#END
