
#######################################################################
#
#                 Cambridge Crystallographic Data Centre
#                                CCDC 
#
#######################################################################
#
# If this CIF has been generated from an entry in the Cambridge 
# Structural Database, then it will include bibliographic, chemical, 
# crystal, experimental, refinement or atomic coordinate data resulting 
# from the CCDC's data processing and validation procedures.
#
#######################################################################

data_LAZVAL
_symmetry_cell_setting           monoclinic
_symmetry_space_group_name_H-M   'P 21/c'
_symmetry_Int_Tables_number      14
_space_group_name_Hall           '-P 2ybc'
loop_
_symmetry_equiv_pos_site_id
_symmetry_equiv_pos_as_xyz
1 x,y,z
2 -x,1/2+y,1/2-z
3 -x,-y,-z
4 x,1/2-y,1/2+z
_cell_length_a                   6.5550(2)
_cell_length_b                   13.3453(4)
_cell_length_c                   12.6525(4)
_cell_angle_alpha                90
_cell_angle_beta                 101.999(3)
_cell_angle_gamma                90
_cell_volume                     1082.64
loop_
_atom_site_label
_atom_site_type_symbol
_atom_site_fract_x
_atom_site_fract_y
_atom_site_fract_z
O1 O 0.5602(5) 0.4130(2) 0.2891(2)
Sm1 Sm 0.60009(3) 0.240240(15) 0.263890(18)
S1 S 0.58674(17) 0.24837(9) 0.01017(9)
O2 O 0.5930(5) 0.3387(2) 0.0772(2)
O3 O 0.5690(5) 0.1628(2) 0.0822(2)
O4 O 0.4109(5) 0.2524(2) -0.0834(2)
O5 O 0.7773(5) 0.2362(2) -0.0357(2)
O6 O 0.5734(5) 0.5755(2) 0.2512(3)
C1 C 0.4768(7) 0.4920(3) 0.2469(3)
N1 N 0.1700(6) 0.5884(3) 0.1633(3)
C2 C -0.0337(7) 0.5731(3) 0.1243(4)
H1 H -0.1312 0.6238 0.0956
C3 C 0.2538(7) 0.4953(3) 0.1935(3)
N2 N -0.0805(6) 0.4752(3) 0.1315(3)
H2 H -0.2054 0.4486 0.1116
C4 C 0.0988(7) 0.4238(3) 0.1750(4)
C5 C 0.0928(7) 0.3140(3) 0.2021(4)
O7 O 0.2408(4) 0.2604(2) 0.1863(2)
O8 O -0.0579(5) 0.2842(2) 0.2402(3)
O1A O 0.4398(5) -0.0870(2) 0.2109(2)
Sm1A Sm 0.39991(3) -0.259760(15) 0.236110(18)
Sm1C Sm 0.60009(3) 0.259760(15) -0.236110(18)
Sm1A_2 Sm 0.39991(3) 0.740240(15) 0.236110(18)
Sm1_2 Sm -0.39991(3) 0.240240(15) 0.263890(18)
Sm1C_2 Sm 0.60009(3) 0.259760(15) 0.763890(18)
Sm1A_3 Sm 1.39991(3) -0.259760(15) 0.236110(18)
S1C S 0.58674(17) 0.25163(9) 0.51017(9)
O2C O 0.5930(5) 0.1613(2) 0.5772(2)
O2A O 0.4070(5) -0.1613(2) 0.4228(2)
O3C O 0.5690(5) 0.3372(2) 0.5822(2)
O3A O 0.4310(5) -0.3372(2) 0.4178(2)
O4C O 0.4109(5) 0.2476(2) 0.4166(2)
O4B O 0.5891(5) -0.2524(2) 0.0834(2)
O5C O 0.7773(5) 0.2638(2) 0.4643(2)
O5B O 0.2227(5) -0.2362(2) 0.0357(2)
O6A O 0.4266(5) 0.0755(2) 0.2488(3)
O6_2 O 0.5734(5) -0.4245(2) 0.2512(3)
C1A C 0.5232(7) -0.0080(3) 0.2531(3)
N1A N 0.8300(6) 0.0884(3) 0.3367(3)
N1_2 N 0.1700(6) -0.4116(3) 0.1633(3)
C2A C 1.0337(7) 0.0731(3) 0.3757(4)
H1A H 1.1312 0.1238 0.4044
C3A C 0.7462(7) -0.0047(3) 0.3065(3)
N2A N 1.0805(6) -0.0248(3) 0.3685(3)
H2A H 1.2054 -0.0514 0.3884
C4A C 0.9012(7) -0.0762(3) 0.3250(4)
C5A C 0.9072(7) -0.1860(3) 0.2979(4)
O7A O 0.7592(4) -0.2396(2) 0.3137(2)
O8A O 1.0579(5) -0.2158(2) 0.2598(3)
O8_2 O 0.9421(5) 0.2842(2) 0.2402(3)
O8A_2 O 0.0579(5) -0.2158(2) 0.2598(3)
N3 N 0.9026(6) 0.9081(3) 0.9557(3)
H3 H 0.9931 0.8614 0.9930
H4 H 0.7978 0.8745 0.9096
C6 C 0.8119(7) 0.9694(4) 1.0332(4)
H5 H 0.7390 0.9252 1.0762
H6 H 0.7090 1.0173 0.9930
C7 C 1.0156(8) 0.9739(4) 0.8923(4)
H7 H 0.9167 1.0221 0.8496
H8 H 1.0760 0.9328 0.8413
N3B N 1.0974(6) 1.0919(3) 1.0443(3)
H3B H 1.0069 1.1386 1.0070
H4B H 1.2022 1.1255 1.0904
C6B C 1.1881(7) 1.0306(4) 0.9668(4)
H5B H 1.2610 1.0748 0.9238
H6B H 1.2910 0.9827 1.0070
C7B C 0.9844(8) 1.0261(4) 1.1077(4)
H7B H 1.0833 0.9779 1.1504
H8B H 0.9240 1.0672 1.1587
loop_
_geom_bond_atom_site_label_1
_geom_bond_atom_site_label_2
_geom_bond_site_symmetry_1
_geom_bond_site_symmetry_2
O1 Sm1 1_555 1_555
Sm1 O2 1_555 1_555
S1 O2 1_555 1_555
O3 Sm1 1_555 1_555
O4 S1 1_555 1_555
O5 S1 1_555 1_555
O6 C1 1_555 1_555
C1 O1 1_555 1_555
N1 C2 1_555 1_555
C2 H1 1_555 1_555
C3 C1 1_555 1_555
N2 C2 1_555 1_555
H2 N2 1_555 1_555
C4 C3 1_555 1_555
C5 C4 1_555 1_555
O7 Sm1 1_555 1_555
O8 C5 1_555 1_555
N3 H3 1_555 1_555
H4 N3 1_555 1_555
C6 N3 1_555 1_555
H5 C6 1_555 1_555
H6 C6 1_555 1_555
C7 N3 1_555 1_555
H7 C7 1_555 1_555
H8 C7 1_555 1_555
O1A Sm1A 1_555 1_555
Sm1A O2A 1_555 1_555
Sm1C O4 1_555 1_555
Sm1A_2 O6 1_555 1_555
Sm1_2 O8 1_555 1_555
Sm1C_2 O2C 1_555 1_555
Sm1A_3 O8A 1_555 1_555
S1C O2C 1_555 1_555
O3C Sm1C_2 1_555 1_555
O3A Sm1A 1_555 1_555
O4C Sm1 1_555 1_555
O4B Sm1A 1_555 1_555
O5C Sm1 1_555 1_555
O5B Sm1A 1_555 1_555
O6A Sm1 1_555 1_555
O6_2 Sm1A 1_555 1_555
C1A O1A 1_555 1_555
N1A Sm1 1_555 1_555
N1_2 Sm1A 1_555 1_555
C2A N1A 1_555 1_555
H1A C2A 1_555 1_555
C3A C1A 1_555 1_555
N2A C2A 1_555 1_555
H2A N2A 1_555 1_555
C4A C3A 1_555 1_555
C5A C4A 1_555 1_555
O7A Sm1A 1_555 1_555
O8A C5A 1_555 1_555
O8_2 Sm1 1_555 1_555
O8A_2 Sm1A 1_555 1_555
N3B H3B 1_555 1_555
H4B N3B 1_555 1_555
C6B C7 1_555 1_555
H5B C6B 1_555 1_555
H6B C6B 1_555 1_555
C7B C6 1_555 1_555
H7B C7B 1_555 1_555
H8B C7B 1_555 1_555
S1 O3 1_555 1_555
O5 Sm1C 1_555 1_555
N1 C3 1_555 1_555
N1 Sm1A_2 1_555 1_555
N2 C4 1_555 1_555
C5 O7 1_555 1_555
S1C O3C 1_555 1_555
S1C O4C 1_555 1_555
S1C O5C 1_555 1_555
O6A C1A 1_555 1_555
N1A C3A 1_555 1_555
N2A C4A 1_555 1_555
C5A O7A 1_555 1_555
N3B C6B 1_555 1_555
N3B C7B 1_555 1_555

#END
