
#######################################################################
#
#                 Cambridge Crystallographic Data Centre
#                                CCDC 
#
#######################################################################
#
# If this CIF has been generated from an entry in the Cambridge 
# Structural Database, then it will include bibliographic, chemical, 
# crystal, experimental, refinement or atomic coordinate data resulting 
# from the CCDC's data processing and validation procedures.
#
#######################################################################

data_LAZVEP
_symmetry_cell_setting           monoclinic
_symmetry_space_group_name_H-M   'P 21/c'
_symmetry_Int_Tables_number      14
_space_group_name_Hall           '-P 2ybc'
loop_
_symmetry_equiv_pos_site_id
_symmetry_equiv_pos_as_xyz
1 x,y,z
2 -x,1/2+y,1/2-z
3 -x,-y,-z
4 x,1/2-y,1/2+z
_cell_length_a                   6.5432(3)
_cell_length_b                   13.3204(5)
_cell_length_c                   12.6867(5)
_cell_angle_alpha                90
_cell_angle_beta                 101.694(4)
_cell_angle_gamma                90
_cell_volume                     1082.8
loop_
_atom_site_label
_atom_site_type_symbol
_atom_site_fract_x
_atom_site_fract_y
_atom_site_fract_z
O1 O 0.5619(5) 0.4122(2) 0.2871(2)
Eu1 Eu 0.59874(3) 0.239930(13) 0.263000(15)
S1 S 0.58640(17) 0.25022(8) 0.00841(8)
O2 O 0.5923(5) 0.3417(2) 0.0737(2)
O3 O 0.5677(5) 0.1655(2) 0.0820(2)
O4 O 0.4103(5) 0.2530(2) -0.0845(2)
O5 O 0.7768(5) 0.2364(2) -0.0379(2)
O6 O 0.5736(4) 0.5754(2) 0.2526(2)
C1 C 0.4786(6) 0.4929(3) 0.2470(3)
N1 N 0.1709(5) 0.5890(2) 0.1653(3)
C2 C -0.0306(7) 0.5736(3) 0.1254(3)
H1 H -0.1252 0.6236 0.0971
C3 C 0.2548(6) 0.4950(3) 0.1939(3)
N2 N -0.0791(5) 0.4757(3) 0.1313(3)
H2 H -0.2015 0.4501 0.1114
C4 C 0.0993(6) 0.4238(3) 0.1743(3)
C5 C 0.0915(6) 0.3142(3) 0.2006(3)
O7 O 0.2412(4) 0.2611(2) 0.1866(2)
O8 O -0.0618(5) 0.2845(2) 0.2374(2)
O1A O 0.4381(5) -0.0878(2) 0.2129(2)
Eu1A Eu 0.40126(3) -0.260070(13) 0.237000(15)
Eu1C Eu 0.59874(3) 0.260070(13) -0.237000(15)
Eu1A_2 Eu 0.40126(3) 0.739930(13) 0.237000(15)
Eu1_2 Eu -0.40126(3) 0.239930(13) 0.263000(15)
Eu1C_2 Eu 0.59874(3) 0.260070(13) 0.763000(15)
Eu1A_3 Eu 1.40126(3) -0.260070(13) 0.237000(15)
S1C S 0.58640(17) 0.24978(8) 0.50841(8)
O2C O 0.5923(5) 0.1583(2) 0.5737(2)
O2A O 0.4077(5) -0.1583(2) 0.4263(2)
O3C O 0.5677(5) 0.3345(2) 0.5820(2)
O3A O 0.4323(5) -0.3345(2) 0.4180(2)
O4C O 0.4103(5) 0.2470(2) 0.4155(2)
O4B O 0.5897(5) -0.2530(2) 0.0845(2)
O5C O 0.7768(5) 0.2636(2) 0.4621(2)
O5B O 0.2232(5) -0.2364(2) 0.0379(2)
O6A O 0.4264(4) 0.0754(2) 0.2474(2)
O6_2 O 0.5736(4) -0.4246(2) 0.2526(2)
C1A C 0.5214(6) -0.0071(3) 0.2530(3)
N1A N 0.8291(5) 0.0890(2) 0.3347(3)
N1_2 N 0.1709(5) -0.4110(2) 0.1653(3)
C2A C 1.0306(7) 0.0736(3) 0.3746(3)
H1A H 1.1252 0.1236 0.4029
C3A C 0.7452(6) -0.0050(3) 0.3061(3)
N2A N 1.0791(5) -0.0243(3) 0.3687(3)
H2A H 1.2015 -0.0499 0.3886
C4A C 0.9007(6) -0.0762(3) 0.3257(3)
C5A C 0.9085(6) -0.1858(3) 0.2994(3)
O7A O 0.7588(4) -0.2389(2) 0.3134(2)
O8A O 1.0618(5) -0.2155(2) 0.2626(2)
O8_2 O 0.9382(5) 0.2845(2) 0.2374(2)
O8A_2 O 0.0618(5) -0.2155(2) 0.2626(2)
N3 N 0.9011(6) 0.9085(3) 0.9566(3)
H3 H 0.7980 0.8764 0.9114
H4 H 0.9871 0.8619 0.9931
C6 C 0.8109(7) 0.9697(3) 1.0331(3)
H5 H 0.7400 0.9264 1.0756
H6 H 0.7092 1.0162 0.9936
C7 C 1.0191(7) 0.9725(3) 0.8936(3)
H7 H 0.9241 1.0191 0.8498
H8 H 1.0805 0.9305 0.8457
N3B N 1.0989(6) 1.0915(3) 1.0434(3)
H3B H 1.2020 1.1236 1.0886
H4B H 1.0129 1.1381 1.0069
C6B C 1.1891(7) 1.0303(3) 0.9669(3)
H5B H 1.2600 1.0736 0.9244
H6B H 1.2908 0.9838 1.0064
C7B C 0.9809(7) 1.0275(3) 1.1064(3)
H7B H 1.0759 0.9809 1.1502
H8B H 0.9195 1.0695 1.1543
loop_
_geom_bond_atom_site_label_1
_geom_bond_atom_site_label_2
_geom_bond_site_symmetry_1
_geom_bond_site_symmetry_2
O1 Eu1 1_555 1_555
Eu1 O2 1_555 1_555
S1 O2 1_555 1_555
O3 Eu1 1_555 1_555
O4 S1 1_555 1_555
O5 S1 1_555 1_555
O6 C1 1_555 1_555
C1 O1 1_555 1_555
N1 C2 1_555 1_555
C2 H1 1_555 1_555
C3 C1 1_555 1_555
N2 C2 1_555 1_555
H2 N2 1_555 1_555
C4 C3 1_555 1_555
C5 C4 1_555 1_555
O7 Eu1 1_555 1_555
O8 C5 1_555 1_555
N3 H3 1_555 1_555
H4 N3 1_555 1_555
C6 N3 1_555 1_555
H5 C6 1_555 1_555
H6 C6 1_555 1_555
C7 N3 1_555 1_555
H7 C7 1_555 1_555
H8 C7 1_555 1_555
O1A Eu1A 1_555 1_555
Eu1A O2A 1_555 1_555
Eu1C O4 1_555 1_555
Eu1A_2 O6 1_555 1_555
Eu1_2 O8 1_555 1_555
Eu1C_2 O2C 1_555 1_555
Eu1A_3 O8A 1_555 1_555
S1C O2C 1_555 1_555
O3C Eu1C_2 1_555 1_555
O3A Eu1A 1_555 1_555
O4C Eu1 1_555 1_555
O4B Eu1A 1_555 1_555
O5C Eu1 1_555 1_555
O5B Eu1A 1_555 1_555
O6A Eu1 1_555 1_555
O6_2 Eu1A 1_555 1_555
C1A O1A 1_555 1_555
N1A Eu1 1_555 1_555
N1_2 Eu1A 1_555 1_555
C2A N1A 1_555 1_555
H1A C2A 1_555 1_555
C3A C1A 1_555 1_555
N2A C2A 1_555 1_555
H2A N2A 1_555 1_555
C4A C3A 1_555 1_555
C5A C4A 1_555 1_555
O7A Eu1A 1_555 1_555
O8A C5A 1_555 1_555
O8_2 Eu1 1_555 1_555
O8A_2 Eu1A 1_555 1_555
N3B H3B 1_555 1_555
H4B N3B 1_555 1_555
C6B C7 1_555 1_555
H5B C6B 1_555 1_555
H6B C6B 1_555 1_555
C7B C6 1_555 1_555
H7B C7B 1_555 1_555
H8B C7B 1_555 1_555
S1 O3 1_555 1_555
O5 Eu1C 1_555 1_555
N1 C3 1_555 1_555
N1 Eu1A_2 1_555 1_555
N2 C4 1_555 1_555
C5 O7 1_555 1_555
S1C O3C 1_555 1_555
S1C O4C 1_555 1_555
S1C O5C 1_555 1_555
O6A C1A 1_555 1_555
N1A C3A 1_555 1_555
N2A C4A 1_555 1_555
C5A O7A 1_555 1_555
N3B C6B 1_555 1_555
N3B C7B 1_555 1_555

#END
