
#######################################################################
#
#                 Cambridge Crystallographic Data Centre
#                                CCDC 
#
#######################################################################
#
# If this CIF has been generated from an entry in the Cambridge 
# Structural Database, then it will include bibliographic, chemical, 
# crystal, experimental, refinement or atomic coordinate data resulting 
# from the CCDC's data processing and validation procedures.
#
#######################################################################

data_LAZVUF
_symmetry_cell_setting           monoclinic
_symmetry_space_group_name_H-M   'C 2/c'
_symmetry_Int_Tables_number      15
_space_group_name_Hall           '-C 2yn'
loop_
_symmetry_equiv_pos_site_id
_symmetry_equiv_pos_as_xyz
1 x,y,z
2 -x,y,1/2-z
3 1/2+x,1/2+y,z
4 1/2-x,1/2+y,1/2-z
5 -x,-y,-z
6 x,-y,1/2+z
7 1/2-x,1/2-y,-z
8 1/2+x,1/2-y,1/2+z
_cell_length_a                   21.143(5)
_cell_length_b                   6.5928(14)
_cell_length_c                   12.948(3)
_cell_angle_alpha                90
_cell_angle_beta                 106.242(3)
_cell_angle_gamma                90
_cell_volume                     1732.81
loop_
_atom_site_label
_atom_site_type_symbol
_atom_site_fract_x
_atom_site_fract_y
_atom_site_fract_z
Er1 Er 0.145248(12) 0.07823(4) 0.285043(19)
S1 S 0.0000 0.0318(3) 0.2500
O1 O 0.1707(2) -0.0551(6) 0.1358(3)
O2 O 0.0420(2) -0.0907(6) 0.2002(4)
N1 N 0.1063(2) 0.2941(7) 0.1172(4)
O3 O 0.0467(2) 0.1583(8) 0.3294(4)
C1 C 0.1311(3) 0.2325(9) 0.0344(4)
C2 C 0.1618(3) 0.0287(9) 0.0445(5)
C3 C 0.0841(3) 0.4809(10) 0.0916(5)
H1 H 0.0638 0.5624 0.1338
N2 N 0.0941(3) 0.5396(8) -0.0017(4)
O4 O 0.1764(2) -0.0559(6) -0.0314(4)
C4 C 0.1518(3) 0.4133(8) -0.1333(5)
C5 C 0.1247(3) 0.3849(9) -0.0399(5)
O5 O 0.1600(2) 0.5899(6) -0.1606(4)
O6 O 0.1681(2) 0.2588(7) -0.1778(4)
O7 O 0.2581(2) 0.1020(6) 0.3194(4)
H2 H 0.092(4) 0.661(4) -0.026(6)
H3 H 0.280(3) 0.201(7) 0.356(4)
H4 H 0.270(4) 0.092(9) 0.261(3)
Er1E Er 0.145248(12) -0.07823(4) 0.785043(19)
Er1E_2 Er 0.145248(12) -0.07823(4) -0.214957(19)
Er1E_3 Er 0.145248(12) 0.92177(4) -0.214957(19)
Er1A Er -0.145248(12) 0.07823(4) 0.214957(19)
Er1_2 Er 0.145248(12) -0.92177(4) 0.285043(19)
O1E O 0.1707(2) 0.0551(6) 0.6358(3)
O2A O -0.0420(2) -0.0907(6) 0.2998(4)
O2E O 0.0420(2) 0.0907(6) 0.7002(4)
N1E N 0.1063(2) -0.2941(7) 0.6172(4)
O3A O -0.0467(2) 0.1583(8) 0.1706(4)
O3E O 0.0467(2) -0.1583(8) 0.8294(4)
C1E C 0.1311(3) -0.2325(9) 0.5344(4)
C2E C 0.1618(3) -0.0287(9) 0.5445(5)
C3E C 0.0841(3) -0.4809(10) 0.5916(5)
H1E H 0.0638 -0.5624 0.6338
N2E N 0.0941(3) -0.5396(8) 0.4983(4)
O4E O 0.1764(2) 0.0559(6) 0.4686(4)
O4_2 O 0.1764(2) -0.0559(6) 0.9686(4)
C4E C 0.1518(3) -0.4133(8) 0.3667(5)
C5E C 0.1247(3) -0.3849(9) 0.4601(5)
O5E O 0.1600(2) -0.5899(6) 0.3394(4)
O5E_2 O 0.1600(2) 0.4101(6) 0.3394(4)
O5_2 O 0.1600(2) -0.4101(6) 0.8394(4)
O6E O 0.1681(2) -0.2588(7) 0.3222(4)
O6_2 O 0.1681(2) 0.2588(7) 0.8222(4)
O7E O 0.2581(2) -0.1020(6) 0.8194(4)
H2E H 0.092(4) -0.661(4) 0.474(6)
H3E H 0.280(3) -0.201(7) 0.856(4)
H4E H 0.270(4) -0.092(9) 0.761(3)
loop_
_geom_bond_atom_site_label_1
_geom_bond_atom_site_label_2
_geom_bond_site_symmetry_1
_geom_bond_site_symmetry_2
Er1 O1 1_555 1_555
S1 O2 1_555 1_555
O1 C2 1_555 1_555
O2 Er1 1_555 1_555
N1 Er1 1_555 1_555
O3 Er1 1_555 1_555
C1 N1 1_555 1_555
C2 C1 1_555 1_555
C3 N1 1_555 1_555
H1 C3 1_555 1_555
N2 C3 1_555 1_555
O4 C2 1_555 1_555
C4 C5 1_555 1_555
C5 C1 1_555 1_555
O5 C4 1_555 1_555
O6 C4 1_555 1_555
O7 Er1 1_555 1_555
H2 N2 1_555 1_555
H3 O7 1_555 1_555
H4 O7 1_555 1_555
Er1E O1E 1_555 1_555
Er1E_2 O4 1_555 1_555
Er1E_3 O5 1_555 1_555
Er1A O2A 1_555 1_555
Er1_2 O5E 1_555 1_555
O1E C2E 1_555 1_555
O2A S1 1_555 1_555
O2E Er1E 1_555 1_555
N1E Er1E 1_555 1_555
O3A S1 1_555 1_555
O3E Er1E 1_555 1_555
C1E N1E 1_555 1_555
C2E C1E 1_555 1_555
C3E N1E 1_555 1_555
H1E C3E 1_555 1_555
N2E C3E 1_555 1_555
O4E Er1 1_555 1_555
O4_2 Er1E 1_555 1_555
C4E C5E 1_555 1_555
C5E C1E 1_555 1_555
O5E C4E 1_555 1_555
O5E_2 Er1 1_555 1_555
O5_2 Er1E 1_555 1_555
O6E Er1 1_555 1_555
O6_2 Er1E 1_555 1_555
O7E Er1E 1_555 1_555
H2E N2E 1_555 1_555
H3E O7E 1_555 1_555
H4E O7E 1_555 1_555
S1 O3 1_555 1_555
N2 C5 1_555 1_555
O6 Er1E_2 1_555 1_555
Er1A O3A 1_555 1_555
C2E O4E 1_555 1_555
N2E C5E 1_555 1_555
C4E O6E 1_555 1_555

#END
