
#######################################################################
#
#                 Cambridge Crystallographic Data Centre
#                                CCDC 
#
#######################################################################
#
# If this CIF has been generated from an entry in the Cambridge 
# Structural Database, then it will include bibliographic, chemical, 
# crystal, experimental, refinement or atomic coordinate data resulting 
# from the CCDC's data processing and validation procedures.
#
#######################################################################

data_LAZVIT
_symmetry_cell_setting           monoclinic
_symmetry_space_group_name_H-M   'C 2/c'
_symmetry_Int_Tables_number      15
_space_group_name_Hall           '-C 2yn'
loop_
_symmetry_equiv_pos_site_id
_symmetry_equiv_pos_as_xyz
1 x,y,z
2 -x,y,1/2-z
3 1/2+x,1/2+y,z
4 1/2-x,1/2+y,1/2-z
5 -x,-y,-z
6 x,-y,1/2+z
7 1/2-x,1/2-y,-z
8 1/2+x,1/2-y,1/2+z
_cell_length_a                   21.3716(8)
_cell_length_b                   6.6466(3)
_cell_length_c                   13.0805(6)
_cell_angle_alpha                90
_cell_angle_beta                 106.971(4)
_cell_angle_gamma                90
_cell_volume                     1777.15
loop_
_atom_site_label
_atom_site_type_symbol
_atom_site_fract_x
_atom_site_fract_y
_atom_site_fract_z
Tb1 Tb 0.145537(13) 0.07765(5) 0.28455(2)
S1 S 0.0000 0.0304(4) 0.2500
O1 O 0.1702(2) -0.0545(7) 0.1340(3)
O2 O 0.04043(19) -0.0909(7) 0.2000(4)
N1 N 0.1070(2) 0.2948(8) 0.1152(4)
O3 O 0.0472(2) 0.1553(8) 0.3293(5)
C1 C 0.1318(3) 0.2330(10) 0.0334(5)
C2 C 0.1619(3) 0.0281(10) 0.0436(5)
C3 C 0.0844(3) 0.4808(10) 0.0877(6)
H1 H 0.0635 0.5617 0.1279
N2 N 0.0951(2) 0.5380(8) -0.0041(5)
O4 O 0.1784(2) -0.0517(7) -0.0306(4)
C4 C 0.1516(3) 0.4136(10) -0.1343(5)
C5 C 0.1260(3) 0.3841(10) -0.0404(5)
O5 O 0.1590(2) 0.5917(7) -0.1610(4)
O6 O 0.1684(2) 0.2631(7) -0.1771(4)
O7 O 0.25910(19) 0.1057(7) 0.3191(4)
H2 H 0.083(3) 0.653(5) -0.033(5)
H3 H 0.279(2) 0.199(7) 0.361(4)
H4 H 0.282(2) 0.074(10) 0.278(4)
Tb1E Tb 0.145537(13) -0.07765(5) 0.78455(2)
Tb1E_2 Tb 0.145537(13) -0.07765(5) -0.21545(2)
Tb1E_3 Tb 0.145537(13) 0.92235(5) -0.21545(2)
Tb1A Tb -0.145537(13) 0.07765(5) 0.21545(2)
Tb1_2 Tb 0.145537(13) -0.92235(5) 0.28455(2)
O1E O 0.1702(2) 0.0545(7) 0.6340(3)
O2A O -0.04043(19) -0.0909(7) 0.3000(4)
O2E O 0.04043(19) 0.0909(7) 0.7000(4)
N1E N 0.1070(2) -0.2948(8) 0.6152(4)
O3A O -0.0472(2) 0.1553(8) 0.1707(5)
O3E O 0.0472(2) -0.1553(8) 0.8293(5)
C1E C 0.1318(3) -0.2330(10) 0.5334(5)
C2E C 0.1619(3) -0.0281(10) 0.5436(5)
C3E C 0.0844(3) -0.4808(10) 0.5877(6)
H1E H 0.0635 -0.5617 0.6279
N2E N 0.0951(2) -0.5380(8) 0.4959(5)
O4E O 0.1784(2) 0.0517(7) 0.4694(4)
O4_2 O 0.1784(2) -0.0517(7) 0.9694(4)
C4E C 0.1516(3) -0.4136(10) 0.3657(5)
C5E C 0.1260(3) -0.3841(10) 0.4596(5)
O5E O 0.1590(2) -0.5917(7) 0.3390(4)
O5E_2 O 0.1590(2) 0.4083(7) 0.3390(4)
O5_2 O 0.1590(2) -0.4083(7) 0.8390(4)
O6E O 0.1684(2) -0.2631(7) 0.3229(4)
O6_2 O 0.1684(2) 0.2631(7) 0.8229(4)
O7E O 0.25910(19) -0.1057(7) 0.8191(4)
H2E H 0.083(3) -0.653(5) 0.467(5)
H3E H 0.279(2) -0.199(7) 0.861(4)
H4E H 0.282(2) -0.074(10) 0.778(4)
loop_
_geom_bond_atom_site_label_1
_geom_bond_atom_site_label_2
_geom_bond_site_symmetry_1
_geom_bond_site_symmetry_2
Tb1 O1 1_555 1_555
S1 O2 1_555 1_555
O1 C2 1_555 1_555
O2 Tb1 1_555 1_555
N1 Tb1 1_555 1_555
O3 Tb1 1_555 1_555
C1 N1 1_555 1_555
C2 C1 1_555 1_555
C3 N1 1_555 1_555
H1 C3 1_555 1_555
N2 C3 1_555 1_555
O4 C2 1_555 1_555
C4 C5 1_555 1_555
C5 C1 1_555 1_555
O5 C4 1_555 1_555
O6 C4 1_555 1_555
O7 Tb1 1_555 1_555
H2 N2 1_555 1_555
H3 O7 1_555 1_555
H4 O7 1_555 1_555
Tb1E O1E 1_555 1_555
Tb1E_2 O4 1_555 1_555
Tb1E_3 O5 1_555 1_555
Tb1A O2A 1_555 1_555
Tb1_2 O5E 1_555 1_555
O1E C2E 1_555 1_555
O2A S1 1_555 1_555
O2E Tb1E 1_555 1_555
N1E Tb1E 1_555 1_555
O3A S1 1_555 1_555
O3E Tb1E 1_555 1_555
C1E N1E 1_555 1_555
C2E C1E 1_555 1_555
C3E N1E 1_555 1_555
H1E C3E 1_555 1_555
N2E C3E 1_555 1_555
O4E Tb1 1_555 1_555
O4_2 Tb1E 1_555 1_555
C4E C5E 1_555 1_555
C5E C1E 1_555 1_555
O5E C4E 1_555 1_555
O5E_2 Tb1 1_555 1_555
O5_2 Tb1E 1_555 1_555
O6E Tb1 1_555 1_555
O6_2 Tb1E 1_555 1_555
O7E Tb1E 1_555 1_555
H2E N2E 1_555 1_555
H3E O7E 1_555 1_555
H4E O7E 1_555 1_555
S1 O3 1_555 1_555
N2 C5 1_555 1_555
O6 Tb1E_2 1_555 1_555
Tb1A O3A 1_555 1_555
C2E O4E 1_555 1_555
N2E C5E 1_555 1_555
C4E O6E 1_555 1_555

#END
