
#######################################################################
#
#                 Cambridge Crystallographic Data Centre
#                                CCDC 
#
#######################################################################
#
# If this CIF has been generated from an entry in the Cambridge 
# Structural Database, then it will include bibliographic, chemical, 
# crystal, experimental, refinement or atomic coordinate data resulting 
# from the CCDC's data processing and validation procedures.
#
#######################################################################

data_LAZVOZ
_symmetry_cell_setting           monoclinic
_symmetry_space_group_name_H-M   'C 2/c'
_symmetry_Int_Tables_number      15
_space_group_name_Hall           '-C 2yn'
loop_
_symmetry_equiv_pos_site_id
_symmetry_equiv_pos_as_xyz
1 x,y,z
2 -x,y,1/2-z
3 1/2+x,1/2+y,z
4 1/2-x,1/2+y,1/2-z
5 -x,-y,-z
6 x,-y,1/2+z
7 1/2-x,1/2-y,-z
8 1/2+x,1/2-y,1/2+z
_cell_length_a                   21.3070(9)
_cell_length_b                   6.6298(2)
_cell_length_c                   13.0431(6)
_cell_angle_alpha                90
_cell_angle_beta                 106.857(5)
_cell_angle_gamma                90
_cell_volume                     1763.31
loop_
_atom_site_label
_atom_site_type_symbol
_atom_site_fract_x
_atom_site_fract_y
_atom_site_fract_z
Dy1 Dy 0.145446(14) 0.07754(4) 0.28461(2)
S1 S 0.0000 0.0299(4) 0.2500
O1 O 0.1706(2) -0.0550(6) 0.1350(4)
O2 O 0.0409(2) -0.0925(7) 0.2007(4)
N1 N 0.1071(2) 0.2937(8) 0.1150(4)
O3 O 0.0469(2) 0.1552(8) 0.3296(4)
C1 C 0.1318(3) 0.2328(10) 0.0339(5)
C2 C 0.1623(3) 0.0306(10) 0.0444(6)
C3 C 0.0846(3) 0.4803(11) 0.0888(6)
H1 H 0.0641 0.5607 0.1301
N2 N 0.0947(3) 0.5390(8) -0.0028(5)
O4 O 0.1776(3) -0.0514(7) -0.0305(4)
C4 C 0.1522(3) 0.4123(9) -0.1329(5)
C5 C 0.1255(3) 0.3857(10) -0.0400(5)
O5 O 0.1596(2) 0.5909(6) -0.1607(4)
O6 O 0.1683(2) 0.2609(7) -0.1772(4)
O7 O 0.2588(2) 0.1048(7) 0.3193(4)
H2 H 0.092(4) 0.644(7) -0.043(5)
H3 H 0.276(3) 0.212(7) 0.353(5)
H4 H 0.281(3) 0.071(10) 0.277(5)
Dy1E Dy 0.145446(14) -0.07754(4) 0.78461(2)
Dy1E_2 Dy 0.145446(14) -0.07754(4) -0.21539(2)
Dy1E_3 Dy 0.145446(14) 0.92246(4) -0.21539(2)
Dy1A Dy -0.145446(14) 0.07754(4) 0.21539(2)
Dy1_2 Dy 0.145446(14) -0.92246(4) 0.28461(2)
O1E O 0.1706(2) 0.0550(6) 0.6350(4)
O2A O -0.0409(2) -0.0925(7) 0.2993(4)
O2E O 0.0409(2) 0.0925(7) 0.7007(4)
N1E N 0.1071(2) -0.2937(8) 0.6150(4)
O3A O -0.0469(2) 0.1552(8) 0.1704(4)
O3E O 0.0469(2) -0.1552(8) 0.8296(4)
C1E C 0.1318(3) -0.2328(10) 0.5339(5)
C2E C 0.1623(3) -0.0306(10) 0.5444(6)
C3E C 0.0846(3) -0.4803(11) 0.5888(6)
H1E H 0.0641 -0.5607 0.6301
N2E N 0.0947(3) -0.5390(8) 0.4972(5)
O4E O 0.1776(3) 0.0514(7) 0.4695(4)
O4_2 O 0.1776(3) -0.0514(7) 0.9695(4)
C4E C 0.1522(3) -0.4123(9) 0.3671(5)
C5E C 0.1255(3) -0.3857(10) 0.4600(5)
O5E O 0.1596(2) -0.5909(6) 0.3393(4)
O5E_2 O 0.1596(2) 0.4091(6) 0.3393(4)
O5_2 O 0.1596(2) -0.4091(6) 0.8393(4)
O6E O 0.1683(2) -0.2609(7) 0.3228(4)
O6_2 O 0.1683(2) 0.2609(7) 0.8228(4)
O7E O 0.2588(2) -0.1048(7) 0.8193(4)
H2E H 0.092(4) -0.644(7) 0.457(5)
H3E H 0.276(3) -0.212(7) 0.853(5)
H4E H 0.281(3) -0.071(10) 0.777(5)
loop_
_geom_bond_atom_site_label_1
_geom_bond_atom_site_label_2
_geom_bond_site_symmetry_1
_geom_bond_site_symmetry_2
Dy1 O1 1_555 1_555
S1 O2 1_555 1_555
O1 C2 1_555 1_555
O2 Dy1 1_555 1_555
N1 Dy1 1_555 1_555
O3 Dy1 1_555 1_555
C1 N1 1_555 1_555
C2 C1 1_555 1_555
C3 N1 1_555 1_555
H1 C3 1_555 1_555
N2 C3 1_555 1_555
O4 C2 1_555 1_555
C4 C5 1_555 1_555
C5 C1 1_555 1_555
O5 C4 1_555 1_555
O6 C4 1_555 1_555
O7 Dy1 1_555 1_555
H2 N2 1_555 1_555
H3 O7 1_555 1_555
H4 O7 1_555 1_555
Dy1E O1E 1_555 1_555
Dy1E_2 O4 1_555 1_555
Dy1E_3 O5 1_555 1_555
Dy1A O2A 1_555 1_555
Dy1_2 O5E 1_555 1_555
O1E C2E 1_555 1_555
O2A S1 1_555 1_555
O2E Dy1E 1_555 1_555
N1E Dy1E 1_555 1_555
O3A S1 1_555 1_555
O3E Dy1E 1_555 1_555
C1E N1E 1_555 1_555
C2E C1E 1_555 1_555
C3E N1E 1_555 1_555
H1E C3E 1_555 1_555
N2E C3E 1_555 1_555
O4E Dy1 1_555 1_555
O4_2 Dy1E 1_555 1_555
C4E C5E 1_555 1_555
C5E C1E 1_555 1_555
O5E C4E 1_555 1_555
O5E_2 Dy1 1_555 1_555
O5_2 Dy1E 1_555 1_555
O6E Dy1 1_555 1_555
O6_2 Dy1E 1_555 1_555
O7E Dy1E 1_555 1_555
H2E N2E 1_555 1_555
H3E O7E 1_555 1_555
H4E O7E 1_555 1_555
S1 O3 1_555 1_555
N2 C5 1_555 1_555
O6 Dy1E_2 1_555 1_555
Dy1A O3A 1_555 1_555
C2E O4E 1_555 1_555
N2E C5E 1_555 1_555
C4E O6E 1_555 1_555

#END
