
#######################################################################
#
#                 Cambridge Crystallographic Data Centre
#                                CCDC 
#
#######################################################################
#
# If this CIF has been generated from an entry in the Cambridge 
# Structural Database, then it will include bibliographic, chemical, 
# crystal, experimental, refinement or atomic coordinate data resulting 
# from the CCDC's data processing and validation procedures.
#
#######################################################################

data_LAZWOY
_symmetry_cell_setting           monoclinic
_symmetry_space_group_name_H-M   'P 21/c'
_symmetry_Int_Tables_number      14
_space_group_name_Hall           '-P 2ybc'
loop_
_symmetry_equiv_pos_site_id
_symmetry_equiv_pos_as_xyz
1 x,y,z
2 -x,1/2+y,1/2-z
3 -x,-y,-z
4 x,1/2-y,1/2+z
_cell_length_a                   8.687(1)
_cell_length_b                   20.976(3)
_cell_length_c                   7.035(1)
_cell_angle_alpha                90
_cell_angle_beta                 110.80(1)
_cell_angle_gamma                90
_cell_volume                     1198.36
loop_
_atom_site_label
_atom_site_type_symbol
_atom_site_fract_x
_atom_site_fract_y
_atom_site_fract_z
Ag1 Ag 0.81080(5) 0.66273(2) 0.15298(6)
O1 O 0.9673(5) 0.7240(2) 0.7961(6)
N1 N 0.9885(5) 0.6158(2) 0.4339(6)
N2 N 0.6669(5) 0.7512(2) 0.4965(5)
C1 C 1.0920(6) 0.5710(2) 0.4062(9)
C2 C 1.2173(7) 0.5451(2) 0.5637(9)
C3 C 1.2391(7) 0.5634(3) 0.7571(9)
C4 C 1.1387(7) 0.6090(3) 0.7871(8)
C5 C 1.0141(5) 0.6350(2) 0.6231(7)
C6 C 0.9097(6) 0.6877(2) 0.6562(7)
C7 C 0.7319(5) 0.6918(2) 0.5234(7)
C8 C 0.6380(6) 0.6382(2) 0.4451(7)
C9 C 0.4692(7) 0.6458(2) 0.3386(8)
C10 C 0.4038(6) 0.7072(2) 0.3122(8)
C11 C 0.5041(7) 0.7570(2) 0.3895(8)
N3 N 0.6930(6) 0.5530(2) -0.1234(6)
O2 O 0.6171(5) 0.5783(2) -0.0255(7)
O3 O 0.6361(6) 0.5084(2) -0.2332(6)
O4 O 0.8317(5) 0.5765(2) -0.1013(6)
H1 H 1.076(6) 0.554(2) 0.267(7)
H2 H 1.283(6) 0.512(2) 0.528(6)
H3 H 1.307(6) 0.553(2) 0.867(7)
H4 H 1.141(6) 0.616(2) 0.896(7)
H5 H 0.679(6) 0.600(2) 0.433(7)
H6 H 0.392(5) 0.598(2) 0.280(6)
H7 H 0.291(6) 0.708(2) 0.229(6)
H8 H 0.466(6) 0.796(2) 0.363(7)
N2C N 0.6669(5) 0.7488(2) -0.0035(5)
Ag1C Ag 0.81080(5) 0.83727(2) 0.65298(6)
loop_
_geom_bond_atom_site_label_1
_geom_bond_atom_site_label_2
_geom_bond_site_symmetry_1
_geom_bond_site_symmetry_2
Ag1 N1 1_555 1_555
O1 C6 1_555 1_555
N1 C1 1_555 1_555
N2 C7 1_555 1_555
C1 C2 1_555 1_555
C2 C3 1_555 1_555
C3 C4 1_555 1_555
C4 C5 1_555 1_555
C5 N1 1_555 1_555
C6 C5 1_555 1_555
C7 C6 1_555 1_555
C8 C7 1_555 1_555
C9 C8 1_555 1_555
C10 C9 1_555 1_555
C11 N2 1_555 1_555
N3 O2 1_555 1_555
O2 Ag1 1_555 1_555
O3 N3 1_555 1_555
O4 Ag1 1_555 1_555
H1 C1 1_555 1_555
H2 C2 1_555 1_555
H3 C3 1_555 1_555
H4 C4 1_555 1_555
H5 C8 1_555 1_555
H6 C9 1_555 1_555
H7 C10 1_555 1_555
H8 C11 1_555 1_555
N2C Ag1 1_555 1_555
Ag1C N2 1_555 1_555
C10 C11 1_555 1_555
N3 O4 1_555 1_555

#END
