
#######################################################################
#
#                 Cambridge Crystallographic Data Centre
#                                CCDC 
#
#######################################################################
#
# If this CIF has been generated from an entry in the Cambridge 
# Structural Database, then it will include bibliographic, chemical, 
# crystal, experimental, refinement or atomic coordinate data resulting 
# from the CCDC's data processing and validation procedures.
#
#######################################################################

data_LEBCOL
_symmetry_cell_setting           monoclinic
_symmetry_space_group_name_H-M   'P 21/c'
_symmetry_Int_Tables_number      14
_space_group_name_Hall           '-P 2ybc'
loop_
_symmetry_equiv_pos_site_id
_symmetry_equiv_pos_as_xyz
1 x,y,z
2 -x,1/2+y,1/2-z
3 -x,-y,-z
4 x,1/2-y,1/2+z
_cell_length_a                   12.963(3)
_cell_length_b                   12.529(3)
_cell_length_c                   17.935(4)
_cell_angle_alpha                90
_cell_angle_beta                 93.948(4)
_cell_angle_gamma                90
_cell_volume                     2905.97
loop_
_atom_site_label
_atom_site_type_symbol
_atom_site_fract_x
_atom_site_fract_y
_atom_site_fract_z
Ag1 Ag 0.73411(4) 0.31525(4) 0.00847(3)
S1 S 0.76901(13) 0.27411(13) 0.14300(9)
S2 S 0.82060(13) 0.22136(13) -0.10718(9)
N1 N 0.4974(4) 0.1977(4) 0.0179(3)
N2 N 0.6020(4) 0.1857(4) 0.0301(3)
N3 N 0.7322(4) 0.5393(4) -0.0798(3)
N4 N 0.7126(4) 0.4330(4) -0.0846(3)
C1 C 0.5222(5) 0.4225(5) 0.0543(4)
H1 H 0.5375 0.3702 0.0917
C2 C 0.4581(5) 0.4705(5) -0.0697(4)
H2 H 0.4292 0.4504 -0.1177
C3 C 0.4801(5) 0.3921(5) -0.0158(4)
C4 C 0.4560(5) 0.2773(5) -0.0362(4)
H3 H 0.3799 0.2688 -0.0423
H4 H 0.4837 0.2620 -0.0851
C5 C 0.4455(5) 0.1268(6) 0.0565(4)
H5 H 0.3725 0.1203 0.0567
C6 C 0.5176(5) 0.0652(6) 0.0955(4)
H6 H 0.5045 0.0069 0.1274
C7 C 0.6139(5) 0.1046(5) 0.0794(4)
C8 C 0.7162(5) 0.0665(5) 0.1095(3)
C9 C 0.7334(6) -0.0433(6) 0.1122(4)
H7 H 0.6813 -0.0899 0.0913
C10 C 0.8247(7) -0.0869(6) 0.1447(4)
H8 H 0.8353 -0.1619 0.1452
C11 C 0.8977(6) -0.0204(6) 0.1755(4)
H9 H 0.9595 -0.0493 0.1989
C12 C 0.8838(6) 0.0906(6) 0.1736(4)
H10 H 0.9366 0.1362 0.1949
C13 C 0.7938(5) 0.1340(5) 0.1410(4)
C14 C 0.8834(5) 0.3308(6) 0.1894(4)
H11 H 0.8939 0.3006 0.2398
H12 H 0.8753 0.4084 0.1929
H13 H 0.9432 0.3143 0.1610
C15 C 0.9529(5) 0.5400(5) 0.0620(4)
H14 H 0.9213 0.5665 0.1045
C16 C 0.9449(5) 0.4977(5) -0.0680(4)
H15 H 0.9066 0.4954 -0.1151
C17 C 0.8994(5) 0.5376(4) -0.0073(4)
C18 C 0.7887(5) 0.5796(5) -0.0131(3)
H16 H 0.7534 0.5574 0.0316
H17 H 0.7897 0.6586 -0.0146
C19 C 0.7144(5) 0.5870(5) -0.1464(4)
H18 H 0.7243 0.6604 -0.1569
C20 C 0.6789(5) 0.5097(5) -0.1967(4)
H19 H 0.6578 0.5190 -0.2481
C21 C 0.6809(5) 0.4144(5) -0.1556(3)
C22 C 0.6470(5) 0.3072(5) -0.1822(3)
C23 C 0.5572(5) 0.3006(5) -0.2295(4)
H20 H 0.5204 0.3640 -0.2430
C24 C 0.5203(5) 0.2037(5) -0.2570(4)
H21 H 0.4583 0.2002 -0.2884
C25 C 0.5753(5) 0.1124(5) -0.2381(4)
H22 H 0.5507 0.0456 -0.2571
C26 C 0.6648(5) 0.1157(5) -0.1924(4)
H23 H 0.7018 0.0517 -0.1810
C27 C 0.7017(5) 0.2123(5) -0.1627(3)
C28 C 0.8488(6) 0.0839(5) -0.0856(5)
H24 H 0.7919 0.0529 -0.0596
H25 H 0.9129 0.0795 -0.0534
H26 H 0.8572 0.0444 -0.1319
Ag1B Ag 0.26589(4) 0.68475(4) -0.00847(3)
Ag1B_2 Ag 1.26589(4) 0.68475(4) -0.00847(3)
S1B S 0.23099(13) 0.72589(13) -0.14300(9)
S2B S 1.17940(13) 0.77864(13) 0.10718(9)
S2B_2 S 0.17940(13) 0.77864(13) 0.10718(9)
N1B N 0.5026(4) 0.8023(4) -0.0179(3)
N2B N 0.3980(4) 0.8143(4) -0.0301(3)
N3B N 1.2678(4) 0.4607(4) 0.0798(3)
N4B N 1.2874(4) 0.5670(4) 0.0846(3)
N4B_2 N 0.2874(4) 0.5670(4) 0.0846(3)
C1B C 0.4778(5) 0.5775(5) -0.0543(4)
H1B H 0.4625 0.6298 -0.0917
C2B C 0.5419(5) 0.5295(5) 0.0697(4)
H2B H 0.5708 0.5496 0.1177
C3B C 0.5199(5) 0.6079(5) 0.0158(4)
C4B C 0.5440(5) 0.7227(5) 0.0362(4)
H3B H 0.6201 0.7312 0.0423
H4B H 0.5163 0.7380 0.0851
C5B C 0.5545(5) 0.8732(6) -0.0565(4)
H5B H 0.6275 0.8797 -0.0567
C6B C 0.4824(5) 0.9348(6) -0.0955(4)
H6B H 0.4955 0.9931 -0.1274
C7B C 0.3861(5) 0.8954(5) -0.0794(4)
C8B C 0.2838(5) 0.9335(5) -0.1095(3)
C9B C 0.2666(6) 1.0433(6) -0.1122(4)
H7B H 0.3187 1.0899 -0.0913
C10B C 0.1753(7) 1.0869(6) -0.1447(4)
H8B H 0.1647 1.1619 -0.1452
C11B C 0.1023(6) 1.0204(6) -0.1755(4)
H9B H 0.0405 1.0493 -0.1989
C12B C 0.1162(6) 0.9094(6) -0.1736(4)
H10B H 0.0634 0.8638 -0.1949
C13B C 0.2062(5) 0.8660(5) -0.1410(4)
C14B C 0.1166(5) 0.6692(6) -0.1894(4)
H11B H 0.1061 0.6994 -0.2398
H12B H 0.1247 0.5916 -0.1929
H13B H 0.0568 0.6857 -0.1610
C15B C 1.0471(5) 0.4600(5) -0.0620(4)
H14B H 1.0787 0.4335 -0.1045
C16B C 1.0551(5) 0.5023(5) 0.0680(4)
H15B H 1.0934 0.5046 0.1151
C17B C 1.1006(5) 0.4624(4) 0.0073(4)
C18B C 1.2113(5) 0.4204(5) 0.0131(3)
H16B H 1.2466 0.4426 -0.0316
H17B H 1.2103 0.3414 0.0146
C19B C 1.2856(5) 0.4130(5) 0.1464(4)
H18B H 1.2757 0.3396 0.1569
C20B C 1.3211(5) 0.4903(5) 0.1967(4)
H19B H 1.3422 0.4810 0.2481
C21B C 1.3191(5) 0.5856(5) 0.1556(3)
C22B C 1.3530(5) 0.6928(5) 0.1822(3)
C23B C 1.4428(5) 0.6994(5) 0.2295(4)
H20B H 1.4796 0.6360 0.2430
C24B C 1.4797(5) 0.7963(5) 0.2570(4)
H21B H 1.5417 0.7998 0.2884
C25B C 1.4247(5) 0.8876(5) 0.2381(4)
H22B H 1.4493 0.9544 0.2571
C26B C 1.3352(5) 0.8843(5) 0.1924(4)
H23B H 1.2982 0.9483 0.1810
C27B C 1.2983(5) 0.7877(5) 0.1627(3)
C28B C 1.1512(6) 0.9161(5) 0.0856(5)
H24B H 1.2081 0.9471 0.0596
H25B H 1.0871 0.9205 0.0534
H26B H 1.1428 0.9556 0.1319
N5 N 0.7755(5) -0.1307(5) -0.2617(4)
O1 O 0.8635(5) -0.1072(6) -0.2352(4)
O2 O 0.7560(5) -0.1249(6) -0.3296(3)
O3 O 0.7083(5) -0.1546(5) -0.2196(3)
O4 O 0.8073(4) -0.1717(4) -0.0700(3)
H27 H 0.8017(8) -0.165(7) -0.110(5)
C29 C 0.9127(6) -0.1744(6) -0.0465(5)
H28 H 0.9511 -0.1277 -0.0786
H29 H 0.9385 -0.2477 -0.0499
H30 H 0.9221 -0.1498 0.0054
loop_
_geom_bond_atom_site_label_1
_geom_bond_atom_site_label_2
_geom_bond_site_symmetry_1
_geom_bond_site_symmetry_2
Ag1 S1 1_555 1_555
S1 C13 1_555 1_555
S2 Ag1 1_555 1_555
N1 N2 1_555 1_555
N2 Ag1 1_555 1_555
N3 N4 1_555 1_555
N4 Ag1 1_555 1_555
C1 H1 1_555 1_555
C2 H2 1_555 1_555
C3 C1 1_555 1_555
C4 N1 1_555 1_555
H3 C4 1_555 1_555
H4 C4 1_555 1_555
C5 N1 1_555 1_555
H5 C5 1_555 1_555
C6 C5 1_555 1_555
H6 C6 1_555 1_555
C7 N2 1_555 1_555
C8 C7 1_555 1_555
C9 C8 1_555 1_555
H7 C9 1_555 1_555
C10 C9 1_555 1_555
H8 C10 1_555 1_555
C11 C10 1_555 1_555
H9 C11 1_555 1_555
C12 C11 1_555 1_555
H10 C12 1_555 1_555
C13 C8 1_555 1_555
C14 S1 1_555 1_555
H11 C14 1_555 1_555
H12 C14 1_555 1_555
H13 C14 1_555 1_555
C15 H14 1_555 1_555
C16 H15 1_555 1_555
C17 C15 1_555 1_555
C18 N3 1_555 1_555
H16 C18 1_555 1_555
H17 C18 1_555 1_555
C19 N3 1_555 1_555
H18 C19 1_555 1_555
C20 C19 1_555 1_555
H19 C20 1_555 1_555
C21 N4 1_555 1_555
C22 C21 1_555 1_555
C23 C22 1_555 1_555
H20 C23 1_555 1_555
C24 C23 1_555 1_555
H21 C24 1_555 1_555
C25 C24 1_555 1_555
H22 C25 1_555 1_555
C26 C25 1_555 1_555
H23 C26 1_555 1_555
C27 S2 1_555 1_555
C28 S2 1_555 1_555
H24 C28 1_555 1_555
H25 C28 1_555 1_555
H26 C28 1_555 1_555
N5 O1 1_555 1_555
O2 N5 1_555 1_555
O3 N5 1_555 1_555
O4 H27 1_555 1_555
C29 O4 1_555 1_555
H28 C29 1_555 1_555
H29 C29 1_555 1_555
H30 C29 1_555 1_555
Ag1B S1B 1_555 1_555
Ag1B_2 S2B 1_555 1_555
S1B C13B 1_555 1_555
S2B C27B 1_555 1_555
S2B_2 Ag1B 1_555 1_555
N1B N2B 1_555 1_555
N2B Ag1B 1_555 1_555
N3B N4B 1_555 1_555
N4B Ag1B_2 1_555 1_555
N4B_2 Ag1B 1_555 1_555
C1B C2 1_555 1_555
H1B C1B 1_555 1_555
C2B C1 1_555 1_555
H2B C2B 1_555 1_555
C3B C1B 1_555 1_555
C4B N1B 1_555 1_555
H3B C4B 1_555 1_555
H4B C4B 1_555 1_555
C5B N1B 1_555 1_555
H5B C5B 1_555 1_555
C6B C5B 1_555 1_555
H6B C6B 1_555 1_555
C7B N2B 1_555 1_555
C8B C7B 1_555 1_555
C9B C8B 1_555 1_555
H7B C9B 1_555 1_555
C10B C9B 1_555 1_555
H8B C10B 1_555 1_555
C11B C10B 1_555 1_555
H9B C11B 1_555 1_555
C12B C11B 1_555 1_555
H10B C12B 1_555 1_555
C13B C8B 1_555 1_555
C14B S1B 1_555 1_555
H11B C14B 1_555 1_555
H12B C14B 1_555 1_555
H13B C14B 1_555 1_555
C15B C16 1_555 1_555
H14B C15B 1_555 1_555
C16B C15 1_555 1_555
H15B C16B 1_555 1_555
C17B C15B 1_555 1_555
C18B N3B 1_555 1_555
H16B C18B 1_555 1_555
H17B C18B 1_555 1_555
C19B N3B 1_555 1_555
H18B C19B 1_555 1_555
C20B C19B 1_555 1_555
H19B C20B 1_555 1_555
C21B N4B 1_555 1_555
C22B C21B 1_555 1_555
C23B C22B 1_555 1_555
H20B C23B 1_555 1_555
C24B C23B 1_555 1_555
H21B C24B 1_555 1_555
C25B C24B 1_555 1_555
H22B C25B 1_555 1_555
C26B C25B 1_555 1_555
H23B C26B 1_555 1_555
C27B C22B 1_555 1_555
C28B S2B 1_555 1_555
H24B C28B 1_555 1_555
H25B C28B 1_555 1_555
H26B C28B 1_555 1_555
C2 C3 1_555 1_555
C3 C4 1_555 1_555
C6 C7 1_555 1_555
C12 C13 1_555 1_555
C16 C17 1_555 1_555
C17 C18 1_555 1_555
C20 C21 1_555 1_555
C22 C27 1_555 1_555
C26 C27 1_555 1_555
C2B C3B 1_555 1_555
C3B C4B 1_555 1_555
C6B C7B 1_555 1_555
C12B C13B 1_555 1_555
C16B C17B 1_555 1_555
C17B C18B 1_555 1_555
C20B C21B 1_555 1_555
C26B C27B 1_555 1_555

#END
