
#######################################################################
#
#                 Cambridge Crystallographic Data Centre
#                                CCDC 
#
#######################################################################
#
# If this CIF has been generated from an entry in the Cambridge 
# Structural Database, then it will include bibliographic, chemical, 
# crystal, experimental, refinement or atomic coordinate data resulting 
# from the CCDC's data processing and validation procedures.
#
#######################################################################

data_LEBCIF
_symmetry_cell_setting           monoclinic
_symmetry_space_group_name_H-M   'C 2/c'
_symmetry_Int_Tables_number      15
_space_group_name_Hall           '-C 2yn'
loop_
_symmetry_equiv_pos_site_id
_symmetry_equiv_pos_as_xyz
1 x,y,z
2 1/2+x,1/2+y,z
3 -x,y,1/2-z
4 1/2-x,1/2+y,1/2-z
5 -x,-y,-z
6 1/2-x,1/2-y,-z
7 x,-y,1/2+z
8 1/2+x,1/2-y,1/2+z
_cell_length_a                   14.310(3)
_cell_length_b                   21.062(5)
_cell_length_c                   11.250(3)
_cell_angle_alpha                90
_cell_angle_beta                 121.070(4)
_cell_angle_gamma                90
_cell_volume                     2904.28
loop_
_atom_site_label
_atom_site_type_symbol
_atom_site_fract_x
_atom_site_fract_y
_atom_site_fract_z
Cu1 Cu 0.0000 0.07269(2) 0.2500
S1 S 0.09847(6) 0.00931(3) 0.44099(7)
N1 N -0.15076(18) 0.14667(11) 0.3151(2)
N2 N -0.04992(17) 0.12148(10) 0.3613(2)
C1 C -0.2430(2) 0.19873(13) 0.0834(3)
C2 C -0.1538(2) 0.23742(14) 0.1209(3)
H1 H -0.0872 0.2292 0.2049
C3 C -0.3403(2) 0.21226(14) -0.0385(3)
H2 H -0.4029 0.1868 -0.0654
C4 C -0.2365(2) 0.14200(13) 0.1692(3)
H3 H -0.3076 0.1368 0.1632
H4 H -0.2237 0.1035 0.1290
C5 C -0.1544(2) 0.17778(14) 0.4164(3)
H5 H -0.2159 0.1993 0.4080
C6 C -0.0536(2) 0.17291(14) 0.5342(3)
H6 H -0.0313 0.1901 0.6230
C7 C 0.0101(2) 0.13719(12) 0.4966(3)
C8 C 0.1259(2) 0.11966(13) 0.5894(3)
C9 C 0.1891(2) 0.16035(14) 0.7004(3)
H7 H 0.1568 0.1979 0.7099
C10 C 0.2970(2) 0.14780(15) 0.7970(3)
H8 H 0.3378 0.1762 0.8720
C11 C 0.3454(2) 0.09370(16) 0.7838(3)
H9 H 0.4198 0.0849 0.8497
C12 C 0.2853(2) 0.05218(14) 0.6745(3)
H10 H 0.3190 0.0150 0.6659
C13 C 0.1760(2) 0.06453(13) 0.5770(3)
C14 C 0.1998(2) -0.03659(15) 0.4295(3)
H11 H 0.2528 -0.0079 0.4274
H12 H 0.1642 -0.0622 0.3446
H13 H 0.2373 -0.0647 0.5103
Cu1G Cu -0.5000 0.42731(2) -0.2500
S1E S -0.59847(6) 0.49069(3) -0.44099(7)
S1B S -0.09847(6) 0.00931(3) 0.05901(7)
N1E N -0.34924(18) 0.35333(11) -0.3151(2)
N2E N -0.45008(17) 0.37852(10) -0.3613(2)
N2B N 0.04992(17) 0.12148(10) 0.1387(2)
C1E C -0.2570(2) 0.30127(13) -0.0834(3)
C2E C -0.3462(2) 0.26258(14) -0.1209(3)
H1E H -0.4128 0.2708 -0.2049
C3E C -0.1597(2) 0.28774(14) 0.0385(3)
H2E H -0.0971 0.3132 0.0654
C4E C -0.2635(2) 0.35800(13) -0.1692(3)
H3E H -0.1924 0.3632 -0.1632
H4E H -0.2763 0.3965 -0.1290
C5E C -0.3456(2) 0.32222(14) -0.4164(3)
H5E H -0.2841 0.3007 -0.4080
C6E C -0.4464(2) 0.32709(14) -0.5342(3)
H6E H -0.4687 0.3099 -0.6230
C7E C -0.5101(2) 0.36281(12) -0.4966(3)
C8E C -0.6259(2) 0.38034(13) -0.5894(3)
C9E C -0.6891(2) 0.33965(14) -0.7004(3)
H7E H -0.6568 0.3021 -0.7099
C10E C -0.7970(2) 0.35220(15) -0.7970(3)
H8E H -0.8378 0.3238 -0.8720
C11E C -0.8454(2) 0.40630(16) -0.7838(3)
H9E H -0.9198 0.4151 -0.8497
C12E C -0.7853(2) 0.44782(14) -0.6745(3)
H10E H -0.8190 0.4850 -0.6659
C13E C -0.6760(2) 0.43547(13) -0.5770(3)
C14E C -0.6998(2) 0.53659(15) -0.4295(3)
H11E H -0.7528 0.5079 -0.4274
H12E H -0.6642 0.5622 -0.3446
H13E H -0.7373 0.5647 -0.5103
P1 P 0.5000 0.15291(6) 0.2500
F1 F 0.40834(16) 0.20597(10) 0.1883(3)
F2 F 0.50431(18) 0.15363(17) 0.1146(2)
F3 F 0.40749(17) 0.10143(11) 0.1904(3)
F1B F 0.59166(16) 0.20597(10) 0.3117(3)
F2B F 0.49569(18) 0.15363(17) 0.3854(2)
F3B F 0.59251(17) 0.10143(11) 0.3096(3)
loop_
_geom_bond_atom_site_label_1
_geom_bond_atom_site_label_2
_geom_bond_site_symmetry_1
_geom_bond_site_symmetry_2
Cu1 S1 1_555 1_555
S1 C13 1_555 1_555
N1 N2 1_555 1_555
N2 Cu1 1_555 1_555
C1 C2 1_555 1_555
C2 H1 1_555 1_555
C3 C1 1_555 1_555
H2 C3 1_555 1_555
C4 N1 1_555 1_555
H3 C4 1_555 1_555
H4 C4 1_555 1_555
C5 N1 1_555 1_555
H5 C5 1_555 1_555
C6 C5 1_555 1_555
H6 C6 1_555 1_555
C7 N2 1_555 1_555
C8 C7 1_555 1_555
C9 C8 1_555 1_555
H7 C9 1_555 1_555
C10 C9 1_555 1_555
H8 C10 1_555 1_555
C11 C10 1_555 1_555
H9 C11 1_555 1_555
C12 C11 1_555 1_555
H10 C12 1_555 1_555
C13 C8 1_555 1_555
C14 S1 1_555 1_555
H11 C14 1_555 1_555
H12 C14 1_555 1_555
H13 C14 1_555 1_555
P1 F1 1_555 1_555
F2 P1 1_555 1_555
F3 P1 1_555 1_555
Cu1G S1E 1_555 1_555
S1E C13E 1_555 1_555
S1B Cu1 1_555 1_555
N1E N2E 1_555 1_555
N2E Cu1G 1_555 1_555
N2B Cu1 1_555 1_555
C1E C2E 1_555 1_555
C2E C3 1_555 1_555
H1E C2E 1_555 1_555
C3E C2 1_555 1_555
H2E C3E 1_555 1_555
C4E N1E 1_555 1_555
H3E C4E 1_555 1_555
H4E C4E 1_555 1_555
C5E N1E 1_555 1_555
H5E C5E 1_555 1_555
C6E C5E 1_555 1_555
H6E C6E 1_555 1_555
C7E N2E 1_555 1_555
C8E C7E 1_555 1_555
C9E C8E 1_555 1_555
H7E C9E 1_555 1_555
C10E C9E 1_555 1_555
H8E C10E 1_555 1_555
C11E C10E 1_555 1_555
H9E C11E 1_555 1_555
C12E C11E 1_555 1_555
H10E C12E 1_555 1_555
C13E C8E 1_555 1_555
C14E S1E 1_555 1_555
H11E C14E 1_555 1_555
H12E C14E 1_555 1_555
H13E C14E 1_555 1_555
F1B P1 1_555 1_555
F2B P1 1_555 1_555
F3B P1 1_555 1_555
C1 C4 1_555 1_555
C6 C7 1_555 1_555
C12 C13 1_555 1_555
C1E C3E 1_555 1_555
C1E C4E 1_555 1_555
C6E C7E 1_555 1_555
C12E C13E 1_555 1_555

#END
