
#######################################################################
#
#                 Cambridge Crystallographic Data Centre
#                                CCDC 
#
#######################################################################
#
# If this CIF has been generated from an entry in the Cambridge 
# Structural Database, then it will include bibliographic, chemical, 
# crystal, experimental, refinement or atomic coordinate data resulting 
# from the CCDC's data processing and validation procedures.
#
#######################################################################

data_LEBFAA
_symmetry_cell_setting           orthorhombic
_symmetry_space_group_name_H-M   'P m n a'
_symmetry_Int_Tables_number      53
_space_group_name_Hall           '-P 2ac 2'
loop_
_symmetry_equiv_pos_site_id
_symmetry_equiv_pos_as_xyz
1 x,y,z
2 1/2-x,-y,1/2+z
3 1/2-x,y,1/2-z
4 x,-y,-z
5 -x,-y,-z
6 1/2+x,y,1/2-z
7 1/2+x,-y,1/2+z
8 -x,y,z
_cell_length_a                   21.129(2)
_cell_length_b                   13.7026(15)
_cell_length_c                   11.7024(13)
_cell_angle_alpha                90
_cell_angle_beta                 90
_cell_angle_gamma                90
_cell_volume                     3388.11
loop_
_atom_site_label
_atom_site_type_symbol
_atom_site_fract_x
_atom_site_fract_y
_atom_site_fract_z
B1 B 1.0000 -0.7472(3) 0.4719(4)
F1 F 1.0000 -0.6912(2) 0.5702(2)
F2 F 0.94661(9) -0.72706(13) 0.40786(17)
F3 F 1.0000 -0.84657(19) 0.5003(2)
F2G F 1.05339(9) -0.72706(13) 0.40786(17)
C16 C 0.1596(4) -0.5000 0.5000
C17 C 0.0897(3) -0.5000 0.5000
N3 N 0.2128(3) -0.5000 0.5000
C21 C 0.0000 -0.9469(7) 0.0086(5)
N4 N 0.0000 -0.8467(10) 0.0270(9)
C21D C 0.0000 -1.0531(7) -0.0086(5)
N4D N 0.0000 -1.1533(10) -0.0270(9)
Cu1 Cu 0.29659(2) 0.0000 0.5000
S1 S 0.25794(3) -0.12245(5) 0.09138(5)
N1 N 0.12656(10) 0.08363(17) 0.19963(18)
N2 N 0.15032(10) 0.00285(16) 0.14735(18)
C1 C 0.2500 0.3814(3) 0.2500
H1 H 0.2500 0.4507 0.2500
C2 C 0.19834(15) 0.3310(2) 0.2091(3)
H2 H 0.1627 0.3659 0.1814
C3 C 0.19785(13) 0.2296(2) 0.2081(2)
C4 C 0.2500 0.1793(3) 0.2500
H3 H 0.2500 0.1100 0.2500
C5 C 0.13985(13) 0.1810(2) 0.1577(2)
H4 H 0.1026 0.2228 0.1734
H5 H 0.1451 0.1777 0.0737
C6 C 0.09000(13) 0.0592(2) 0.2905(2)
H6 H 0.0685 0.1033 0.3397
C7 C 0.08965(13) -0.0395(2) 0.2983(2)
H7 H 0.0681 -0.0781 0.3533
C8 C 0.12801(12) -0.0728(2) 0.2078(2)
C9 C 0.14203(13) -0.1756(2) 0.1791(2)
C10 C 0.09687(16) -0.2454(2) 0.2104(3)
H8 H 0.0591 -0.2247 0.2471
C11 C 0.10588(19) -0.3439(3) 0.1891(4)
H9 H 0.0744 -0.3899 0.2106
C12 C 0.16101(19) -0.3750(3) 0.1364(3)
H10 H 0.1674 -0.4424 0.1215
C13 C 0.20664(16) -0.3078(2) 0.1057(3)
H11 H 0.2445 -0.3296 0.0701
C14 C 0.19807(13) -0.2086(2) 0.1262(2)
C15 C 0.31778(14) -0.1946(2) 0.0214(2)
H12 H 0.3359 -0.2410 0.0760
H13 H 0.3512 -0.1516 -0.0076
H14 H 0.2987 -0.2304 -0.0425
Cu1A Cu 0.20341(2) 0.0000 0.0000
S1B S 0.24206(3) -0.12245(5) 0.40862(5)
S1A S 0.24206(3) 0.12245(5) 0.59138(5)
N1B N 0.37344(10) 0.08363(17) 0.30037(18)
N2B N 0.34968(10) 0.00285(16) 0.35265(18)
N2A N 0.34968(10) -0.00285(16) 0.64735(18)
C2B C 0.30166(15) 0.3310(2) 0.2909(3)
H2B H 0.3373 0.3659 0.3186
C3B C 0.30215(13) 0.2296(2) 0.2919(2)
C5B C 0.36015(13) 0.1810(2) 0.3423(2)
H4B H 0.3974 0.2228 0.3266
H5B H 0.3549 0.1777 0.4263
C6B C 0.41000(13) 0.0592(2) 0.2095(2)
H6B H 0.4315 0.1033 0.1603
C7B C 0.41035(13) -0.0395(2) 0.2017(2)
H7B H 0.4319 -0.0781 0.1467
C8B C 0.37199(12) -0.0728(2) 0.2922(2)
C9B C 0.35797(13) -0.1756(2) 0.3209(2)
C10B C 0.40313(16) -0.2454(2) 0.2896(3)
H8B H 0.4409 -0.2247 0.2529
C11B C 0.39412(19) -0.3439(3) 0.3109(4)
H9B H 0.4256 -0.3899 0.2894
C12B C 0.33899(19) -0.3750(3) 0.3636(3)
H10B H 0.3326 -0.4424 0.3785
C13B C 0.29336(16) -0.3078(2) 0.3943(3)
H11B H 0.2555 -0.3296 0.4299
C14B C 0.30193(13) -0.2086(2) 0.3738(2)
C15B C 0.18222(14) -0.1946(2) 0.4786(2)
H12B H 0.1641 -0.2410 0.4240
H13B H 0.1488 -0.1516 0.5076
H14B H 0.2013 -0.2304 0.5425
O1? O 1.0000 -0.5173(5) -0.0391(6)
C18? C 0.9816(3) -0.5664(7) 0.0664(6)
C19? C 1.0000 -0.6045(8) 0.1780(10)
C20? C 1.0000 -0.6569(8) 0.0861(12)
loop_
_geom_bond_atom_site_label_1
_geom_bond_atom_site_label_2
_geom_bond_site_symmetry_1
_geom_bond_site_symmetry_2
Cu1 S1B 1_555 1_555
S1 C14 1_555 1_555
N1 N2 1_555 1_555
N2 C8 1_555 1_555
C1 H1 1_555 1_555
C2 C1 1_555 1_555
H2 C2 1_555 1_555
C3 C2 1_555 1_555
C4 C3 1_555 1_555
H3 C4 1_555 1_555
C5 N1 1_555 1_555
H4 C5 1_555 1_555
H5 C5 1_555 1_555
C6 N1 1_555 1_555
H6 C6 1_555 1_555
C7 C6 1_555 1_555
H7 C7 1_555 1_555
C8 C7 1_555 1_555
C9 C8 1_555 1_555
C10 C9 1_555 1_555
H8 C10 1_555 1_555
C11 C10 1_555 1_555
H9 C11 1_555 1_555
C12 C11 1_555 1_555
H10 C12 1_555 1_555
C13 C12 1_555 1_555
H11 C13 1_555 1_555
C14 C9 1_555 1_555
C15 S1 1_555 1_555
H12 C15 1_555 1_555
H13 C15 1_555 1_555
H14 C15 1_555 1_555
B1 F1 1_555 1_555
F2 B1 1_555 1_555
F3 B1 1_555 1_555
C16 C17 1_555 1_555
N3 C16 1_555 1_555
C21 N4 1_555 1_555
Cu1A S1 1_555 1_555
S1B C14B 1_555 1_555
S1A Cu1 1_555 1_555
N1B N2B 1_555 1_555
N2B Cu1 1_555 1_555
N2A Cu1 1_555 1_555
C2B C1 1_555 1_555
H2B C2B 1_555 1_555
C3B C4 1_555 1_555
C5B N1B 1_555 1_555
H4B C5B 1_555 1_555
H5B C5B 1_555 1_555
C6B N1B 1_555 1_555
H6B C6B 1_555 1_555
C7B C6B 1_555 1_555
H7B C7B 1_555 1_555
C8B N2B 1_555 1_555
C9B C8B 1_555 1_555
C10B C9B 1_555 1_555
H8B C10B 1_555 1_555
C11B C10B 1_555 1_555
H9B C11B 1_555 1_555
C12B C11B 1_555 1_555
H10B C12B 1_555 1_555
C13B C12B 1_555 1_555
H11B C13B 1_555 1_555
C14B C9B 1_555 1_555
C15B S1B 1_555 1_555
H12B C15B 1_555 1_555
H13B C15B 1_555 1_555
H14B C15B 1_555 1_555
F2G B1 1_555 1_555
C21D C21 1_555 1_555
N4D C21D 1_555 1_555
N2 Cu1A 1_555 1_555
C3 C5 1_555 1_555
C13 C14 1_555 1_555
C2B C3B 1_555 1_555
C3B C5B 1_555 1_555
C7B C8B 1_555 1_555
C13B C14B 1_555 1_555

#END
