
#######################################################################
#
#                 Cambridge Crystallographic Data Centre
#                                CCDC 
#
#######################################################################
#
# If this CIF has been generated from an entry in the Cambridge 
# Structural Database, then it will include bibliographic, chemical, 
# crystal, experimental, refinement or atomic coordinate data resulting 
# from the CCDC's data processing and validation procedures.
#
#######################################################################

data_LEBGEG
_symmetry_cell_setting           triclinic
_symmetry_space_group_name_H-M   'P -1'
_symmetry_Int_Tables_number      2
_space_group_name_Hall           '-P 1'
loop_
_symmetry_equiv_pos_site_id
_symmetry_equiv_pos_as_xyz
1 x,y,z
2 -x,-y,-z
_cell_length_a                   8.643(2)
_cell_length_b                   9.917(5)
_cell_length_c                   10.422(3)
_cell_angle_alpha                104.611(3)
_cell_angle_beta                 109.623(2)
_cell_angle_gamma                96.097(3)
_cell_volume                     796.142
loop_
_atom_site_label
_atom_site_type_symbol
_atom_site_fract_x
_atom_site_fract_y
_atom_site_fract_z
Gd1 Gd 0.57172(2) 0.121823(17) 0.231813(16)
Cl1 Cl 0.61041(10) -0.12109(8) 0.04590(8)
O1 O 0.8653(3) 0.1371(2) 0.3103(2)
O2 O 0.6680(3) -0.0101(2) 0.3915(2)
O3 O 0.6967(3) 0.3524(2) 0.2163(3)
O4 O 0.3261(3) -0.0473(3) 0.1988(3)
O5 O 0.3773(3) 0.2668(3) 0.2681(3)
O6 O 0.6662(3) 0.2870(3) 0.4696(2)
C1 C 0.9387(4) 0.0752(3) 0.3993(3)
C2 C 0.8225(4) -0.0099(3) 0.4480(3)
C3 C 0.5960(4) 0.3908(4) 0.4929(4)
C4 C 0.4260(4) 0.3795(4) 0.3732(3)
C5 C 0.3286(5) -0.1842(4) 0.2279(5)
H1 H 0.3304 -0.1751 0.3233
H2 H 0.4260 -0.2200 0.2193
C6 C 0.1540(4) -0.0476(4) 0.1094(4)
H3 H 0.1496 -0.0348 0.0191
H4 H 0.1123 0.0285 0.1579
C7 C 1.1109(4) 0.0800(4) 0.4515(4)
H5 H 1.1809 0.1292 0.4198
C8 C 0.8675(5) 0.4306(4) 0.3091(5)
H6 H 0.9489 0.3845 0.2797
H7 H 0.8889 0.4348 0.4077
C9 C 0.8791(6) 0.5752(5) 0.2946(6)
H8 H 0.9383 0.6460 0.3875
H9 H 0.9396 0.5852 0.2330
C10 C 0.7083(7) 0.5945(5) 0.2324(6)
H10 H 0.7022 0.6553 0.1719
H11 H 0.6681 0.6365 0.3067
C11 C 0.1686(6) -0.2811(5) 0.1156(7)
H12 H 0.1871 -0.3288 0.0302
H13 H 0.1267 -0.3526 0.1514
C12 C 0.0519(6) -0.1895(5) 0.0852(7)
H14 H -0.0100 -0.1813 0.1481
H15 H -0.0275 -0.2273 -0.0131
C13 C 0.6076(5) 0.4473(4) 0.1462(4)
H16 H 0.4946 0.4378 0.1459
H17 H 0.6010 0.4255 0.0482
C14 C 0.3392(4) 0.4892(4) 0.3857(4)
H18 H 0.2376 0.4827 0.3131
Gd1A Gd 0.42828(2) -0.121823(17) -0.231813(16)
Gd1A_2 Gd 1.42828(2) -0.121823(17) 0.768187(16)
Gd1A_3 Gd 0.42828(2) 0.878177(17) 0.768187(16)
Cl1A Cl 0.38959(10) 0.12109(8) -0.04590(8)
O1A O 1.1347(3) -0.1371(2) 0.6897(2)
O1A_2 O 0.1347(3) -0.1371(2) -0.3103(2)
O2A O 1.3320(3) 0.0101(2) 0.6085(2)
O2A_2 O 0.3320(3) 0.0101(2) -0.3915(2)
O3A O 0.3033(3) -0.3524(2) -0.2163(3)
O4A O 0.6739(3) 0.0473(3) -0.1988(3)
O5A O 0.6227(3) 0.7332(3) 0.7319(3)
O5A_2 O 0.6227(3) -0.2668(3) -0.2681(3)
O6A O 0.3338(3) 0.7130(3) 0.5304(2)
O6A_2 O 0.3338(3) -0.2870(3) -0.4696(2)
C1A C 1.0613(4) -0.0752(3) 0.6007(3)
C2A C 1.1775(4) 0.0099(3) 0.5520(3)
C3A C 0.4040(4) 0.6092(4) 0.5071(4)
C4A C 0.5740(4) 0.6205(4) 0.6268(3)
C5A C 0.6714(5) 0.1842(4) -0.2279(5)
H1A H 0.6696 0.1751 -0.3233
H2A H 0.5740 0.2200 -0.2193
C6A C 0.8460(4) 0.0476(4) -0.1094(4)
H3A H 0.8504 0.0348 -0.0191
H4A H 0.8877 -0.0285 -0.1579
C7A C 0.8891(4) -0.0800(4) 0.5485(4)
H5A H 0.8191 -0.1292 0.5802
C8A C 0.1325(5) -0.4306(4) -0.3091(5)
H6A H 0.0511 -0.3845 -0.2797
H7A H 0.1111 -0.4348 -0.4077
C9A C 0.1209(6) -0.5752(5) -0.2946(6)
H8A H 0.0617 -0.6460 -0.3875
H9A H 0.0604 -0.5852 -0.2330
C10A C 0.2917(7) -0.5945(5) -0.2324(6)
H10A H 0.2978 -0.6553 -0.1719
H11A H 0.3319 -0.6365 -0.3067
C11A C 0.8314(6) 0.2811(5) -0.1156(7)
H12A H 0.8129 0.3288 -0.0302
H13A H 0.8733 0.3526 -0.1514
C12A C 0.9481(6) 0.1895(5) -0.0852(7)
H14A H 1.0100 0.1813 -0.1481
H15A H 1.0275 0.2273 0.0131
C13A C 0.3924(5) -0.4473(4) -0.1462(4)
H16A H 0.5054 -0.4378 -0.1459
H17A H 0.3990 -0.4255 -0.0482
C14A C 0.6608(4) 0.5108(4) 0.6143(4)
H18A H 0.7624 0.5173 0.6869
loop_
_geom_bond_atom_site_label_1
_geom_bond_atom_site_label_2
_geom_bond_site_symmetry_1
_geom_bond_site_symmetry_2
Gd1 Cl1 1_555 1_555
Cl1 Gd1A 1_555 1_555
O1 Gd1 1_555 1_555
O2 Gd1 1_555 1_555
O3 Gd1 1_555 1_555
O4 Gd1 1_555 1_555
O5 Gd1 1_555 1_555
O6 Gd1 1_555 1_555
C1 O1 1_555 1_555
C2 O2 1_555 1_555
C3 O6 1_555 1_555
C4 O5 1_555 1_555
C5 O4 1_555 1_555
H1 C5 1_555 1_555
H2 C5 1_555 1_555
C6 O4 1_555 1_555
H3 C6 1_555 1_555
H4 C6 1_555 1_555
C7 C1 1_555 1_555
H5 C7 1_555 1_555
C8 O3 1_555 1_555
H6 C8 1_555 1_555
H7 C8 1_555 1_555
C9 C8 1_555 1_555
H8 C9 1_555 1_555
H9 C9 1_555 1_555
C10 C9 1_555 1_555
H10 C10 1_555 1_555
H11 C10 1_555 1_555
C11 C5 1_555 1_555
H12 C11 1_555 1_555
H13 C11 1_555 1_555
C12 C6 1_555 1_555
H14 C12 1_555 1_555
H15 C12 1_555 1_555
C13 O3 1_555 1_555
H16 C13 1_555 1_555
H17 C13 1_555 1_555
C14 C4 1_555 1_555
H18 C14 1_555 1_555
Gd1A Cl1A 1_555 1_555
Gd1A_2 O1A 1_555 1_555
Gd1A_3 O5A 1_555 1_555
Cl1A Gd1 1_555 1_555
O1A C1A 1_555 1_555
O1A_2 Gd1A 1_555 1_555
O2A Gd1A_2 1_555 1_555
O2A_2 Gd1A 1_555 1_555
O3A Gd1A 1_555 1_555
O4A Gd1A 1_555 1_555
O5A C4A 1_555 1_555
O5A_2 Gd1A 1_555 1_555
O6A Gd1A_3 1_555 1_555
O6A_2 Gd1A 1_555 1_555
C1A C2A 1_555 1_555
C2A C7 1_555 1_555
C3A C14 1_555 1_555
C4A C3A 1_555 1_555
C5A O4A 1_555 1_555
H1A C5A 1_555 1_555
H2A C5A 1_555 1_555
C6A O4A 1_555 1_555
H3A C6A 1_555 1_555
H4A C6A 1_555 1_555
C7A C2 1_555 1_555
H5A C7A 1_555 1_555
C8A O3A 1_555 1_555
H6A C8A 1_555 1_555
H7A C8A 1_555 1_555
C9A C8A 1_555 1_555
H8A C9A 1_555 1_555
H9A C9A 1_555 1_555
C10A C9A 1_555 1_555
H10A C10A 1_555 1_555
H11A C10A 1_555 1_555
C11A C5A 1_555 1_555
H12A C11A 1_555 1_555
H13A C11A 1_555 1_555
C12A C6A 1_555 1_555
H14A C12A 1_555 1_555
H15A C12A 1_555 1_555
C13A O3A 1_555 1_555
H16A C13A 1_555 1_555
H17A C13A 1_555 1_555
C14A C3 1_555 1_555
H18A C14A 1_555 1_555
C1 C2 1_555 1_555
C3 C4 1_555 1_555
C10 C13 1_555 1_555
C11 C12 1_555 1_555
O2A C2A 1_555 1_555
O6A C3A 1_555 1_555
C1A C7A 1_555 1_555
C4A C14A 1_555 1_555
C10A C13A 1_555 1_555
C11A C12A 1_555 1_555

#END
