
#######################################################################
#
#                 Cambridge Crystallographic Data Centre
#                                CCDC 
#
#######################################################################
#
# If this CIF has been generated from an entry in the Cambridge 
# Structural Database, then it will include bibliographic, chemical, 
# crystal, experimental, refinement or atomic coordinate data resulting 
# from the CCDC's data processing and validation procedures.
#
#######################################################################

data_LEBNIQ
_symmetry_cell_setting           triclinic
_symmetry_space_group_name_H-M   'P -1'
_symmetry_Int_Tables_number      2
_space_group_name_Hall           '-P 1'
loop_
_symmetry_equiv_pos_site_id
_symmetry_equiv_pos_as_xyz
1 x,y,z
2 -x,-y,-z
_cell_length_a                   9.2061(18)
_cell_length_b                   10.701(2)
_cell_length_c                   8.0832(16)
_cell_angle_alpha                99.94(3)
_cell_angle_beta                 101.49(3)
_cell_angle_gamma                109.76(3)
_cell_volume                     709.109
loop_
_atom_site_label
_atom_site_type_symbol
_atom_site_fract_x
_atom_site_fract_y
_atom_site_fract_z
Zn1 Zn 0.97892(14) 0.64867(12) 0.66665(17)
N1 N 0.7909(11) 0.4619(12) 0.6770(14)
N2 N 0.1719(11) -0.1741(12) 0.6489(13)
N3 N 0.8857(17) 0.7913(12) 0.8855(19)
C1 C 0.8189(14) 0.3758(12) 0.7711(16)
H1 H 0.9228 0.4011 0.8411
C2 C 0.7055(14) 0.2544(13) 0.7708(15)
H2 H 0.7326 0.2005 0.8405
C3 C 0.5455(14) 0.2103(12) 0.6630(15)
C4 C 0.5190(15) 0.2978(13) 0.5601(17)
H3 H 0.4174 0.2743 0.4857
C5 C 0.6381(13) 0.4142(13) 0.5679(18)
H4 H 0.6158 0.4670 0.4939
C6 C 0.3247(16) -0.1225(14) 0.7555(19)
H5 H 0.3495 -0.1732 0.8313
C7 C 0.4428(14) -0.0050(12) 0.7612(17)
H6 H 0.5443 0.0203 0.8369
C8 C 0.4161(13) 0.0812(11) 0.6542(14)
C9 C 0.2605(14) 0.0331(14) 0.5466(19)
H7 H 0.2322 0.0842 0.4733
C10 C 0.1481(16) -0.0894(12) 0.5479(19)
H8 H 0.0458 -0.1174 0.4725
C11 C 1.1885(14) 0.4809(12) 0.7261(16)
C12 C 1.320(2) 0.4748(19) 0.864(2)
H9 H 1.3612 0.5564 0.9586
H10 H 1.4047 0.4687 0.8147
H11 H 1.2778 0.3955 0.9066
O1 O 0.9936(13) 0.7500(11) 0.9444(14)
O2 O 0.8327(12) 0.7659(10) 0.7238(13)
O3 O 0.817(3) 0.8687(19) 1.006(3)
O4 O 1.1561(10) 0.5860(9) 0.7588(13)
O5 O 1.1229(11) 0.3813(9) 0.5932(11)
Zn1_2 Zn -0.02108(14) -0.35133(12) 0.66665(17)
Zn1A Zn 1.02108(14) 0.35133(12) 0.33335(17)
N2_2 N 1.1719(11) 0.8259(12) 0.6489(13)
O5A O 0.8771(11) 0.6187(9) 0.4068(11)
loop_
_geom_bond_atom_site_label_1
_geom_bond_atom_site_label_2
_geom_bond_site_symmetry_1
_geom_bond_site_symmetry_2
Zn1 N1 1_555 1_555
N1 C1 1_555 1_555
N2 C6 1_555 1_555
N3 O1 1_555 1_555
C1 H1 1_555 1_555
C2 C1 1_555 1_555
H2 C2 1_555 1_555
C3 C2 1_555 1_555
C4 C3 1_555 1_555
H3 C4 1_555 1_555
C5 N1 1_555 1_555
H4 C5 1_555 1_555
C6 H5 1_555 1_555
C7 C6 1_555 1_555
H6 C7 1_555 1_555
C8 C3 1_555 1_555
C9 C8 1_555 1_555
H7 C9 1_555 1_555
C10 N2 1_555 1_555
H8 C10 1_555 1_555
C11 C12 1_555 1_555
C12 H9 1_555 1_555
H10 C12 1_555 1_555
H11 C12 1_555 1_555
O1 Zn1 1_555 1_555
O2 Zn1 1_555 1_555
O3 N3 1_555 1_555
O4 Zn1 1_555 1_555
O5 C11 1_555 1_555
Zn1_2 N2 1_555 1_555
Zn1A O5 1_555 1_555
N2_2 Zn1 1_555 1_555
O5A Zn1 1_555 1_555
N3 O2 1_555 1_555
C4 C5 1_555 1_555
C7 C8 1_555 1_555
C9 C10 1_555 1_555
C11 O4 1_555 1_555

#END
