
#######################################################################
#
#                 Cambridge Crystallographic Data Centre
#                                CCDC 
#
#######################################################################
#
# If this CIF has been generated from an entry in the Cambridge 
# Structural Database, then it will include bibliographic, chemical, 
# crystal, experimental, refinement or atomic coordinate data resulting 
# from the CCDC's data processing and validation procedures.
#
#######################################################################

data_LEBSIV
_symmetry_cell_setting           orthorhombic
_symmetry_space_group_name_H-M   'P 21 21 21'
_symmetry_Int_Tables_number      19
_space_group_name_Hall           'P 2ac 2ab'
loop_
_symmetry_equiv_pos_site_id
_symmetry_equiv_pos_as_xyz
1 x,y,z
2 1/2-x,-y,1/2+z
3 -x,1/2+y,1/2-z
4 1/2+x,1/2-y,-z
_cell_length_a                   7.662(2)
_cell_length_b                   14.581(4)
_cell_length_c                   19.747(6)
_cell_angle_alpha                90
_cell_angle_beta                 90
_cell_angle_gamma                90
_cell_volume                     2206.13
loop_
_atom_site_label
_atom_site_type_symbol
_atom_site_fract_x
_atom_site_fract_y
_atom_site_fract_z
Mn1 Mn 0.00082(11) 0.25830(3) 0.70106(2)
Cr1 Cr 0.49881(18) 0.50481(3) 0.76399(3)
N1 N -0.2070(6) 0.3609(4) 0.7194(3)
N2 N 0.2060(6) 0.1502(4) 0.6912(3)
N3 N -0.2023(6) 0.1483(4) 0.6933(3)
N4 N 0.1992(7) 0.3642(4) 0.7165(3)
C1 C 0.3085(9) 0.4139(5) 0.7320(4)
C2 C -0.3078(7) 0.4120(4) 0.7362(4)
C3 C 0.3106(7) 0.0979(5) 0.7053(4)
C4 C -0.3095(8) 0.0974(5) 0.7075(4)
C5 C 0.4964(12) 0.5627(3) 0.6677(2)
O1 O -0.0013(8) 0.27542(18) 0.59133(12)
N5 N 0.0200(10) 0.2281(3) 0.8163(2)
H1 H 0.1251 0.2478 0.8306
H2 H -0.0609 0.2626 0.8373
C6 C -0.0009(14) 0.1359(4) 0.8394(3)
H3 H 0.0739 0.0972 0.8120
H4 H -0.1203 0.1177 0.8301
N6 N -0.0019(11) 0.2190(3) 0.48557(18)
C7 C 0.0041(13) 0.2123(3) 0.5508(2)
H5 H 0.0136 0.1535 0.5686
C8 C 0.0359(8) 0.1142(4) 0.9123(3)
H6 H 0.1541 0.1348 0.9238
N7 N -0.0919(9) 0.1605(4) 0.9576(3)
H7 H -0.0383 0.2046 0.9808
H8 H -0.1366 0.1197 0.9863
H9 H -0.1772 0.1848 0.9329
C9 C -0.002(2) 0.1403(6) 0.4397(4)
H10 H 0.1062 0.1387 0.4151
H11 H -0.0973 0.1458 0.4084
H12 H -0.0144 0.0849 0.4654
C10 C 0.4893(12) 0.4462(3) 0.8585(2)
N8 N 0.4920(15) 0.5940(3) 0.6155(2)
N9 N 0.4804(17) 0.4136(4) 0.9107(3)
C11 C 0.0233(15) 0.0122(4) 0.9226(4)
H13 H 0.0743 -0.0038 0.9654
H14 H 0.0846 -0.0187 0.8868
H15 H -0.0972 -0.0059 0.9221
C12 C -0.005(2) 0.3067(6) 0.4544(3)
H16 H -0.1221 0.3210 0.4406
H17 H 0.0699 0.3064 0.4154
H18 H 0.0350 0.3521 0.4860
Cr1_2 Cr -0.50119(18) 0.50481(3) 0.76399(3)
Cr1B Cr 0.50119(18) 0.00481(3) 0.73601(3)
Cr1B_2 Cr -0.49881(18) 0.00481(3) 0.73601(3)
C2_2 C 0.6922(7) 0.4120(4) 0.7362(4)
C3B C 0.6894(7) 0.5979(5) 0.7947(4)
C4B C 0.3095(8) 0.5974(5) 0.7925(4)
O2 O 0.0062(13) 0.9602(5) 0.6198(4)
O3 O 0.996(2) 0.3469(5) 0.9813(3)
loop_
_geom_bond_atom_site_label_1
_geom_bond_atom_site_label_2
_geom_bond_site_symmetry_1
_geom_bond_site_symmetry_2
Mn1 N1 1_555 1_555
Cr1 C1 1_555 1_555
N1 C2 1_555 1_555
N2 Mn1 1_555 1_555
N3 Mn1 1_555 1_555
N4 Mn1 1_555 1_555
C1 N4 1_555 1_555
C2 Cr1_2 1_555 1_555
C3 N2 1_555 1_555
C4 N3 1_555 1_555
C5 Cr1 1_555 1_555
O1 Mn1 1_555 1_555
N5 Mn1 1_555 1_555
H1 N5 1_555 1_555
H2 N5 1_555 1_555
C6 N5 1_555 1_555
H3 C6 1_555 1_555
H4 C6 1_555 1_555
N6 C7 1_555 1_555
C7 O1 1_555 1_555
H5 C7 1_555 1_555
C8 C6 1_555 1_555
H6 C8 1_555 1_555
N7 C8 1_555 1_555
H7 N7 1_555 1_555
H8 N7 1_555 1_555
H9 N7 1_555 1_555
C9 N6 1_555 1_555
H10 C9 1_555 1_555
H11 C9 1_555 1_555
H12 C9 1_555 1_555
C10 Cr1 1_555 1_555
N8 C5 1_555 1_555
N9 C10 1_555 1_555
C11 C8 1_555 1_555
H13 C11 1_555 1_555
H14 C11 1_555 1_555
H15 C11 1_555 1_555
C12 N6 1_555 1_555
H16 C12 1_555 1_555
H17 C12 1_555 1_555
H18 C12 1_555 1_555
Cr1B C3 1_555 1_555
Cr1B_2 C4 1_555 1_555
C2_2 Cr1 1_555 1_555
C3B Cr1 1_555 1_555
C4B Cr1 1_555 1_555

#END
