
#######################################################################
#
#                 Cambridge Crystallographic Data Centre
#                                CCDC 
#
#######################################################################
#
# If this CIF has been generated from an entry in the Cambridge 
# Structural Database, then it will include bibliographic, chemical, 
# crystal, experimental, refinement or atomic coordinate data resulting 
# from the CCDC's data processing and validation procedures.
#
#######################################################################

data_LEBSUH02
_symmetry_cell_setting           monoclinic
_symmetry_space_group_name_H-M   'C 2'
_symmetry_Int_Tables_number      5
_space_group_name_Hall           'C 2y'
loop_
_symmetry_equiv_pos_site_id
_symmetry_equiv_pos_as_xyz
1 x,y,z
2 -x,y,-z
3 1/2+x,1/2+y,z
4 1/2-x,1/2+y,-z
_cell_length_a                   30.032(16)
_cell_length_b                   5.718(3)
_cell_length_c                   9.294(5)
_cell_angle_alpha                90
_cell_angle_beta                 103.177(8)
_cell_angle_gamma                90
_cell_volume                     1553.97
loop_
_atom_site_label
_atom_site_type_symbol
_atom_site_fract_x
_atom_site_fract_y
_atom_site_fract_z
Cu1 Cu 0.24026(3) 0.3822(3) 0.17037(7)
O1 O 0.20250(19) 0.5398(9) 0.3203(5)
O2 O 0.23054(18) 0.1155(8) 0.2851(4)
O3 O 0.19670(18) -0.0439(8) 0.4482(4)
O4 O 0.25662(19) 0.6256(9) 0.0541(4)
O5 O 0.31388(17) 0.8084(8) -0.0106(4)
O6 O 0.30592(16) 0.4166(11) 0.2817(4)
C1 C 0.1875(2) 0.3649(17) 0.4117(5)
C2 C 0.2067(2) 0.1329(14) 0.3792(7)
C3 C 0.1364(2) 0.3695(19) 0.3856(6)
C4 C 0.2986(2) 0.6808(13) 0.0778(6)
C5 C 0.3310(2) 0.5864(13) 0.2134(7)
C6 C 0.1099(3) 0.2404(17) 0.2751(8)
C7 C 0.1144(3) 0.5038(14) 0.4698(10)
C8 C 0.3722(3) 0.4683(14) 0.1766(8)
C9 C 0.4037(4) 0.195(2) 0.0319(12)
C10 C 0.0418(3) 0.383(2) 0.3321(12)
C11 C 0.3677(3) 0.3079(16) 0.0672(10)
C12 C 0.4159(3) 0.5142(18) 0.2613(12)
C13 C 0.0666(4) 0.5174(17) 0.4437(13)
C14 C 0.4462(4) 0.243(2) 0.1071(13)
C15 C 0.0622(3) 0.247(2) 0.2467(12)
C16 C 0.4536(3) 0.393(2) 0.2239(12)
H1 H 0.1242 0.1452 0.2150
H2 H 0.1322 0.5921 0.5489
H3 H 0.3986 0.0817 -0.0447
H4 H 0.0093 0.3817 0.3148
H5 H 0.3378 0.2732 0.0112
H6 H 0.4206 0.6208 0.3418
H7 H 0.0519 0.6167 0.5004
H8 H 0.4714 0.1715 0.0785
H9 H 0.0445 0.1574 0.1680
H10 H 0.4838 0.4186 0.2799
H11 H 0.1997 0.4014 0.5127
H12 H 0.3411 0.7114 0.2802
H13 H 0.2078 0.6384 0.3810
H14 H 0.3148 0.5220 0.3626
Cu1C Cu 0.25974(3) 0.8822(3) -0.17037(7)
O5C O 0.18612(17) 0.3084(8) 0.0106(4)
loop_
_geom_bond_atom_site_label_1
_geom_bond_atom_site_label_2
_geom_bond_site_symmetry_1
_geom_bond_site_symmetry_2
Cu1 O1 1_555 1_555
O1 C1 1_555 1_555
O2 Cu1 1_555 1_555
O3 C2 1_555 1_555
O4 Cu1 1_555 1_555
O5 C4 1_555 1_555
O6 Cu1 1_555 1_555
C1 C2 1_555 1_555
C2 O2 1_555 1_555
C3 C1 1_555 1_555
C4 O4 1_555 1_555
C5 O6 1_555 1_555
C6 C3 1_555 1_555
C7 C3 1_555 1_555
C8 C5 1_555 1_555
C9 C11 1_555 1_555
C10 C13 1_555 1_555
C11 C8 1_555 1_555
C12 C8 1_555 1_555
C13 C7 1_555 1_555
C14 C9 1_555 1_555
C15 C6 1_555 1_555
C16 C12 1_555 1_555
H1 C6 1_555 1_555
H2 C7 1_555 1_555
H3 C9 1_555 1_555
H4 C10 1_555 1_555
H5 C11 1_555 1_555
H6 C12 1_555 1_555
H7 C13 1_555 1_555
H8 C14 1_555 1_555
H9 C15 1_555 1_555
H10 C16 1_555 1_555
H11 C1 1_555 1_555
H12 C5 1_555 1_555
H13 O1 1_555 1_555
H14 O6 1_555 1_555
Cu1C O5 1_555 1_555
O5C Cu1 1_555 1_555
C4 C5 1_555 1_555
C10 C15 1_555 1_555
C14 C16 1_555 1_555

#END
