
#######################################################################
#
#                 Cambridge Crystallographic Data Centre
#                                CCDC 
#
#######################################################################
#
# If this CIF has been generated from an entry in the Cambridge 
# Structural Database, then it will include bibliographic, chemical, 
# crystal, experimental, refinement or atomic coordinate data resulting 
# from the CCDC's data processing and validation procedures.
#
#######################################################################

data_LEBSUH
_symmetry_cell_setting           monoclinic
_symmetry_space_group_name_H-M   'P 21/a'
_symmetry_Int_Tables_number      14
_space_group_name_Hall           '-P 2yab'
loop_
_symmetry_equiv_pos_site_id
_symmetry_equiv_pos_as_xyz
1 x,y,z
2 1/2-x,1/2+y,-z
3 -x,-y,-z
4 1/2+x,1/2-y,z
_cell_length_a                   9.454(5)
_cell_length_b                   4.905(5)
_cell_length_c                   15.495(5)
_cell_angle_alpha                90
_cell_angle_beta                 102.564(5)
_cell_angle_gamma                90
_cell_volume                     701.326
loop_
_atom_site_label
_atom_site_type_symbol
_atom_site_fract_x
_atom_site_fract_y
_atom_site_fract_z
Cu1 Cu 0.5000 0.0000 0.5000
O1 O 0.3434(2) -0.2533(4) 0.46203(14)
O2 O 0.3871(2) 0.2301(4) 0.40366(14)
O3 O 0.1110(2) -0.2704(5) 0.39350(14)
C1 C 0.2290(3) -0.1554(6) 0.4091(2)
C2 C 0.2458(3) 0.1135(6) 0.3624(2)
H1 H 0.1675 0.2420 0.3703
C3 C 0.2351(3) 0.0664(6) 0.2652(2)
C4 C 0.1348(4) 0.2154(8) 0.2046(2)
H2 H 0.0752 0.3460 0.2248
C5 C 0.1217(5) 0.1735(9) 0.1148(3)
H3 H 0.0530 0.2755 0.0734
C6 C 0.2082(5) -0.0158(9) 0.0853(2)
H4 H 0.1995 -0.0442 0.0237
C7 C 0.3079(4) -0.1643(9) 0.1460(3)
H5 H 0.3678 -0.2942 0.1257
C8 C 0.3211(4) -0.1256(8) 0.2351(2)
H6 H 0.3889 -0.2301 0.2763
H7 H 0.3681 0.3900 0.4155
Cu1A Cu 0.0000 -0.5000 0.5000
Cu1A_2 Cu 1.0000 0.5000 0.5000
O1B O 0.6566(2) 0.2533(4) 0.53797(14)
O2B O 0.6129(2) -0.2301(4) 0.59634(14)
O3B O 0.8890(2) 0.2704(5) 0.60650(14)
O3C O 0.6110(2) -0.2296(5) 0.39350(14)
O3A O 0.3890(2) 0.2296(5) 0.60650(14)
C1B C 0.7710(3) 0.1554(6) 0.5909(2)
C2B C 0.7542(3) -0.1135(6) 0.6376(2)
H1B H 0.8325 -0.2420 0.6297
C3B C 0.7649(3) -0.0664(6) 0.7348(2)
C4B C 0.8652(4) -0.2154(8) 0.7954(2)
H2B H 0.9248 -0.3460 0.7752
C5B C 0.8783(5) -0.1735(9) 0.8852(3)
H3B H 0.9470 -0.2755 0.9266
C6B C 0.7918(5) 0.0158(9) 0.9147(2)
H4B H 0.8005 0.0442 0.9763
C7B C 0.6921(4) 0.1643(9) 0.8540(3)
H5B H 0.6322 0.2942 0.8743
C8B C 0.6789(4) 0.1256(8) 0.7649(2)
H6B H 0.6111 0.2301 0.7237
H7B H 0.6319 -0.3900 0.5845
loop_
_geom_bond_atom_site_label_1
_geom_bond_atom_site_label_2
_geom_bond_site_symmetry_1
_geom_bond_site_symmetry_2
Cu1 O1 1_555 1_555
O1 C1 1_555 1_555
O2 Cu1 1_555 1_555
O3 C1 1_555 1_555
C1 C2 1_555 1_555
C2 O2 1_555 1_555
H1 C2 1_555 1_555
C3 C2 1_555 1_555
C4 C3 1_555 1_555
H2 C4 1_555 1_555
C5 C4 1_555 1_555
H3 C5 1_555 1_555
C6 C5 1_555 1_555
H4 C6 1_555 1_555
C7 C6 1_555 1_555
H5 C7 1_555 1_555
C8 C3 1_555 1_555
H6 C8 1_555 1_555
H7 O2 1_555 1_555
Cu1A O3 1_555 1_555
Cu1A_2 O3B 1_555 1_555
O1B Cu1 1_555 1_555
O2B Cu1 1_555 1_555
O3B C1B 1_555 1_555
O3C Cu1 1_555 1_555
O3A Cu1 1_555 1_555
C1B O1B 1_555 1_555
C2B O2B 1_555 1_555
H1B C2B 1_555 1_555
C3B C2B 1_555 1_555
C4B C3B 1_555 1_555
H2B C4B 1_555 1_555
C5B C4B 1_555 1_555
H3B C5B 1_555 1_555
C6B C5B 1_555 1_555
H4B C6B 1_555 1_555
C7B C6B 1_555 1_555
H5B C7B 1_555 1_555
C8B C3B 1_555 1_555
H6B C8B 1_555 1_555
H7B O2B 1_555 1_555
C7 C8 1_555 1_555
C1B C2B 1_555 1_555
C7B C8B 1_555 1_555

#END
