
#######################################################################
#
#                 Cambridge Crystallographic Data Centre
#                                CCDC 
#
#######################################################################
#
# If this CIF has been generated from an entry in the Cambridge 
# Structural Database, then it will include bibliographic, chemical, 
# crystal, experimental, refinement or atomic coordinate data resulting 
# from the CCDC's data processing and validation procedures.
#
#######################################################################

data_LEBTUI
_symmetry_cell_setting           triclinic
_symmetry_space_group_name_H-M   'P -1'
_symmetry_Int_Tables_number      2
_space_group_name_Hall           '-P 1'
loop_
_symmetry_equiv_pos_site_id
_symmetry_equiv_pos_as_xyz
1 x,y,z
2 -x,-y,-z
_cell_length_a                   6.7560(10)
_cell_length_b                   10.430(2)
_cell_length_c                   11.111(2)
_cell_angle_alpha                89.651(7)
_cell_angle_beta                 84.178(11)
_cell_angle_gamma                82.699(11)
_cell_volume                     772.566
loop_
_atom_site_label
_atom_site_type_symbol
_atom_site_fract_x
_atom_site_fract_y
_atom_site_fract_z
Cd1 Cd 1.01556(6) 0.32760(4) 0.08265(4)
Cl1 Cl 0.9899(2) 0.20610(16) 0.28426(15)
Cl2 Cl 0.9805(2) 0.56008(14) 0.15527(15)
S1 S 1.2156(2) 0.08476(17) -0.43884(17)
O1 O 1.2058(6) 0.1473(4) -0.0553(4)
O2 O 1.2900(8) 0.4711(5) -0.4153(5)
N1 N 1.3612(6) 0.2850(4) 0.0444(4)
N2 N 1.7169(7) 0.2703(5) 0.0315(4)
N3 N 1.4703(7) 0.0718(5) -0.2916(5)
C1 C 1.3691(8) 0.1847(5) -0.0367(5)
C2 C 1.5323(8) 0.3241(6) 0.0757(5)
C3 C 1.7262(8) 0.1762(6) -0.0538(5)
H1 H 1.8522 0.1394 -0.0873
C4 C 1.5625(8) 0.1327(5) -0.0931(5)
C5 C 1.5148(8) 0.4344(6) 0.1616(6)
H2 H 1.3762 0.4590 0.1899
H3 H 1.5680 0.5062 0.1214
H4 H 1.5889 0.4092 0.2291
C6 C 1.5777(9) 0.0289(6) -0.1863(5)
H5 H 1.7179 0.0023 -0.2133
H6 H 1.5222 -0.0454 -0.1503
C7 C 1.3140(9) 0.0199(6) -0.3173(6)
H7 H 1.2627 -0.0462 -0.2726
C8 C 1.3943(9) 0.1899(6) -0.4566(6)
C9 C 1.5206(8) 0.1695(6) -0.3699(5)
C10 C 1.6985(9) 0.2393(7) -0.3565(6)
H8 H 1.8040 0.1804 -0.3275
H9 H 1.6604 0.3093 -0.2998
H10 H 1.7448 0.2727 -0.4335
C11 C 1.3892(10) 0.2906(6) -0.5531(6)
H11 H 1.3546 0.2540 -0.6270
H12 H 1.5211 0.3182 -0.5694
C12 C 1.2377(11) 0.4061(7) -0.5149(7)
H13 H 1.2270 0.4654 -0.5822
H14 H 1.1073 0.3775 -0.4946
Cd1A Cd 0.98444(6) 0.67240(4) -0.08265(4)
Cd1_2 Cd 2.01556(6) 0.32760(4) 0.08265(4)
Cl2A Cl 1.0195(2) 0.43992(14) -0.15527(15)
N2_2 N 0.7169(7) 0.2703(5) 0.0315(4)
loop_
_geom_bond_atom_site_label_1
_geom_bond_atom_site_label_2
_geom_bond_site_symmetry_1
_geom_bond_site_symmetry_2
Cd1 Cl1 1_555 1_555
Cl2 Cd1 1_555 1_555
S1 C7 1_555 1_555
O1 Cd1 1_555 1_555
O2 C12 1_555 1_555
N1 Cd1 1_555 1_555
N2 C2 1_555 1_555
N3 C6 1_555 1_555
C1 O1 1_555 1_555
C2 N1 1_555 1_555
C3 N2 1_555 1_555
H1 C3 1_555 1_555
C4 C1 1_555 1_555
C5 C2 1_555 1_555
H2 C5 1_555 1_555
H3 C5 1_555 1_555
H4 C5 1_555 1_555
C6 C4 1_555 1_555
H5 C6 1_555 1_555
H6 C6 1_555 1_555
C7 N3 1_555 1_555
H7 C7 1_555 1_555
C8 S1 1_555 1_555
C9 N3 1_555 1_555
C10 C9 1_555 1_555
H8 C10 1_555 1_555
H9 C10 1_555 1_555
H10 C10 1_555 1_555
C11 C8 1_555 1_555
H11 C11 1_555 1_555
H12 C11 1_555 1_555
C12 C11 1_555 1_555
H13 C12 1_555 1_555
H14 C12 1_555 1_555
Cd1A Cl2 1_555 1_555
Cd1_2 N2 1_555 1_555
Cl2A Cd1 1_555 1_555
N2_2 Cd1 1_555 1_555
N1 C1 1_555 1_555
C3 C4 1_555 1_555
C8 C9 1_555 1_555
Cd1A Cl2A 1_555 1_555

#END
