
#######################################################################
#
#                 Cambridge Crystallographic Data Centre
#                                CCDC 
#
#######################################################################
#
# If this CIF has been generated from an entry in the Cambridge 
# Structural Database, then it will include bibliographic, chemical, 
# crystal, experimental, refinement or atomic coordinate data resulting 
# from the CCDC's data processing and validation procedures.
#
#######################################################################

data_LEBXOH
_symmetry_cell_setting           monoclinic
_symmetry_space_group_name_H-M   'P 21/n'
_symmetry_Int_Tables_number      14
_space_group_name_Hall           '-P 2yn'
loop_
_symmetry_equiv_pos_site_id
_symmetry_equiv_pos_as_xyz
1 x,y,z
2 1/2-x,1/2+y,1/2-z
3 -x,-y,-z
4 1/2+x,1/2-y,1/2+z
_cell_length_a                   13.3449(4)
_cell_length_b                   11.1102(3)
_cell_length_c                   19.5865(8)
_cell_angle_alpha                90
_cell_angle_beta                 102.270(3)
_cell_angle_gamma                90
_cell_volume                     2837.65
loop_
_atom_site_label
_atom_site_type_symbol
_atom_site_fract_x
_atom_site_fract_y
_atom_site_fract_z
Cd1 Cd 0.245315(18) 0.18969(2) 0.687178(15)
C1 C -0.5873(3) 0.3947(3) 0.6934(2)
H1 H -0.6330 0.4482 0.7070
C2 C -0.5234(3) 0.2376(3) 0.65740(19)
H2 H -0.5168 0.1600 0.6411
C3 C -0.4483(3) 0.3203(3) 0.66971(19)
H3 H -0.3815 0.3109 0.6637
C4 C -0.4388(2) 0.5364(3) 0.7157(2)
H4 H -0.4341 0.5462 0.7655
H5 H -0.4799 0.6020 0.6919
C5 C -0.3329(3) 0.5422(3) 0.7004(2)
C6 C -0.3191(3) 0.5846(3) 0.6361(2)
C7 C -0.4030(3) 0.6135(3) 0.5798(3)
H6 H -0.4696 0.6050 0.5864
C8 C -0.3887(3) 0.6524(4) 0.5175(3)
H7 H -0.4448 0.6685 0.4816
C9 C -0.2897(4) 0.6686(4) 0.5069(2)
H8 H -0.2805 0.6974 0.4641
C10 C -0.2078(3) 0.6436(3) 0.5568(2)
H9 H -0.1426 0.6562 0.5482
C11 C -0.2180(3) 0.5979(3) 0.6232(2)
C12 C -0.1336(2) 0.5619(3) 0.6747(2)
C13 C -0.1478(2) 0.5077(3) 0.7367(2)
C14 C -0.0668(3) 0.4596(3) 0.7885(2)
H10 H -0.0005 0.4636 0.7808
C15 C -0.0806(3) 0.4091(3) 0.8475(2)
H11 H -0.0247 0.3787 0.8796
C16 C -0.1793(4) 0.4020(3) 0.8613(2)
H12 H -0.1890 0.3663 0.9024
C17 C -0.2594(3) 0.4464(3) 0.8154(3)
H13 H -0.3241 0.4421 0.8260
C18 C -0.2499(3) 0.5005(3) 0.7508(2)
C19 C -0.0248(2) 0.5796(3) 0.6637(2)
H14 H -0.0249 0.6423 0.6293
H15 H 0.0191 0.6057 0.7072
C20 C -0.0263(3) 0.3962(4) 0.5842(2)
H16 H -0.0878 0.4089 0.5524
C21 C 0.0390(3) 0.3037(4) 0.5852(2)
H17 H 0.0294 0.2402 0.5536
C22 C 0.1052(3) 0.4172(3) 0.6700(2)
H18 H 0.1505 0.4492 0.7085
C23 C 0.2520(3) -0.0185(3) 0.6174(2)
C24 C 0.2640(3) -0.2692(3) 0.6768(2)
C25 C 0.2657(2) -0.1293(3) 0.5756(2)
C26 C 0.2733(3) -0.1120(3) 0.5069(2)
H19 H 0.2644 -0.0354 0.4875
C27 C 0.2940(3) -0.2078(4) 0.4670(2)
H20 H 0.2996 -0.1954 0.4210
C28 C 0.3060(3) -0.3201(4) 0.4952(2)
H21 H 0.3194 -0.3847 0.4682
C29 C 0.2984(3) -0.3386(3) 0.5630(2)
H22 H 0.3072 -0.4158 0.5818
C30 C 0.2777(2) -0.2440(3) 0.6041(2)
N1 N -0.61033(19) 0.2837(2) 0.67231(15)
N2 N -0.48955(19) 0.4208(2) 0.69273(15)
N3 N 0.0168(2) 0.4682(3) 0.64011(18)
N4 N 0.12123(19) 0.3166(3) 0.63922(16)
O1 O 0.1780(2) 0.0486(2) 0.59498(15)
O2 O 0.31635(19) 0.0072(2) 0.66983(15)
O4 O 0.2042(2) -0.2074(2) 0.70158(14)
O5 O 0.3128(2) -0.3521(2) 0.71120(15)
Cd1_2 Cd -0.754685(18) 0.18969(2) 0.687178(15)
Cd1A Cd 0.254685(18) -0.31031(2) 0.812822(15)
N1_2 N 0.38967(19) 0.2837(2) 0.67231(15)
O4A O 0.2958(2) 0.2926(2) 0.79842(14)
O5A O 0.1872(2) 0.1479(2) 0.78880(15)
O3 O 0.0008(3) 0.8852(4) 0.6311(3)
O6 O 0.0000 0.0000 0.5000
loop_
_geom_bond_atom_site_label_1
_geom_bond_atom_site_label_2
_geom_bond_site_symmetry_1
_geom_bond_site_symmetry_2
Cd1 N4 1_555 1_555
C1 H1 1_555 1_555
C2 H2 1_555 1_555
C3 C2 1_555 1_555
H3 C3 1_555 1_555
C4 H4 1_555 1_555
H5 C4 1_555 1_555
C5 C4 1_555 1_555
C6 C5 1_555 1_555
C7 C6 1_555 1_555
H6 C7 1_555 1_555
C8 C7 1_555 1_555
H7 C8 1_555 1_555
C9 C8 1_555 1_555
H8 C9 1_555 1_555
C10 C9 1_555 1_555
H9 C10 1_555 1_555
C11 C6 1_555 1_555
C12 C11 1_555 1_555
C13 C12 1_555 1_555
C14 C13 1_555 1_555
H10 C14 1_555 1_555
C15 C14 1_555 1_555
H11 C15 1_555 1_555
C16 C15 1_555 1_555
H12 C16 1_555 1_555
C17 C16 1_555 1_555
H13 C17 1_555 1_555
C18 C5 1_555 1_555
C19 C12 1_555 1_555
H14 C19 1_555 1_555
H15 C19 1_555 1_555
C20 H16 1_555 1_555
C21 C20 1_555 1_555
H17 C21 1_555 1_555
C22 H18 1_555 1_555
C23 C25 1_555 1_555
C24 C30 1_555 1_555
C25 C26 1_555 1_555
C26 H19 1_555 1_555
C27 C26 1_555 1_555
H20 C27 1_555 1_555
C28 C27 1_555 1_555
H21 C28 1_555 1_555
C29 C28 1_555 1_555
H22 C29 1_555 1_555
C30 C25 1_555 1_555
N1 C1 1_555 1_555
N2 C1 1_555 1_555
N3 C19 1_555 1_555
N4 C21 1_555 1_555
O1 Cd1 1_555 1_555
O2 Cd1 1_555 1_555
O4 C24 1_555 1_555
O5 C24 1_555 1_555
Cd1_2 N1 1_555 1_555
Cd1A O4 1_555 1_555
N1_2 Cd1 1_555 1_555
O4A Cd1 1_555 1_555
O5A Cd1 1_555 1_555
C2 N1 1_555 1_555
C3 N2 1_555 1_555
C4 N2 1_555 1_555
C10 C11 1_555 1_555
C13 C18 1_555 1_555
C17 C18 1_555 1_555
C20 N3 1_555 1_555
C22 N3 1_555 1_555
C22 N4 1_555 1_555
C23 O1 1_555 1_555
C23 O2 1_555 1_555
C29 C30 1_555 1_555
O5 Cd1A 1_555 1_555

#END
