
#######################################################################
#
#                 Cambridge Crystallographic Data Centre
#                                CCDC 
#
#######################################################################
#
# If this CIF has been generated from an entry in the Cambridge 
# Structural Database, then it will include bibliographic, chemical, 
# crystal, experimental, refinement or atomic coordinate data resulting 
# from the CCDC's data processing and validation procedures.
#
#######################################################################

data_LEBXUN
_symmetry_cell_setting           triclinic
_symmetry_space_group_name_H-M   'P -1'
_symmetry_Int_Tables_number      2
_space_group_name_Hall           '-P 1'
loop_
_symmetry_equiv_pos_site_id
_symmetry_equiv_pos_as_xyz
1 x,y,z
2 -x,-y,-z
_cell_length_a                   7.7152(3)
_cell_length_b                   9.9532(3)
_cell_length_c                   16.4812(7)
_cell_angle_alpha                85.454(3)
_cell_angle_beta                 82.510(4)
_cell_angle_gamma                81.485(3)
_cell_volume                     1238.65
loop_
_atom_site_label
_atom_site_type_symbol
_atom_site_fract_x
_atom_site_fract_y
_atom_site_fract_z
Cd1 Cd 0.657499(17) 0.450522(15) 0.246266(9)
C1 C 0.6359(3) 0.5533(2) 0.05940(13)
H1 H 0.5317 0.5162 0.0605
O1 O 0.11914(17) 0.41393(17) 0.20622(9)
N1 N 0.86712(19) 0.65098(15) 0.01735(9)
O2 O 0.41125(16) 0.39612(16) 0.19281(8)
C2 C 0.8612(2) 0.61877(19) 0.09807(12)
H2 H 0.9444 0.6367 0.1303
N2 N 0.72291(19) 0.55861(16) 0.12581(10)
N3 N 0.40579(18) 0.52008(16) 0.33211(10)
C3 C 1.0026(2) 0.86241(19) -0.01674(12)
C4 C 0.6687(3) 1.0372(2) -0.14816(15)
H3 H 0.5962 1.0158 -0.1848
C5 C 1.1125(2) 0.89497(19) 0.03748(12)
C6 C 0.2495(2) 0.50350(18) 0.30803(11)
C7 C 0.0970(2) 0.60415(19) 0.42828(12)
H4 H -0.0072 0.6323 0.4613
C8 C 1.0041(2) 0.71605(19) -0.03607(13)
H5 H 0.9848 0.7132 -0.0929
H6 H 1.1192 0.6652 -0.0292
C9 C 0.0902(2) 0.54784(18) 0.35491(12)
C10 C 0.8891(2) 0.96560(19) -0.05520(12)
C11 C 0.2571(3) 0.6190(2) 0.45299(13)
H7 H 0.2626 0.6561 0.5025
C12 C 0.4082(2) 0.5770(2) 0.40206(13)
H8 H 0.5165 0.5891 0.4173
C13 C 0.7759(3) 0.9371(2) -0.11165(13)
H9 H 0.7758 0.8474 -0.1236
C14 C 0.2597(2) 0.4321(2) 0.22911(12)
C15 C 0.7231(3) 0.6095(2) -0.00808(13)
H10 H 0.6916 0.6183 -0.0610
C16 C 1.2290(3) 0.7936(2) 0.07837(14)
H11 H 1.2324 0.7025 0.0683
C17 C 0.6667(3) 1.1733(2) -0.13087(15)
H12 H 0.5922 1.2415 -0.1561
C18 C -0.0884(2) 0.5406(2) 0.32742(12)
O3 O -0.16068(17) 0.43715(15) 0.35056(9)
O4 O -0.15561(18) 0.64012(16) 0.28701(9)
N4 N 0.7619(2) 0.22687(16) 0.23830(10)
C19 C 0.8710(2) 0.1634(2) 0.28868(13)
H13 H 0.9287 0.2068 0.3230
C20 C 0.7080(3) 0.1270(2) 0.19949(13)
H14 H 0.6301 0.1413 0.1601
N5 N 0.8879(2) 0.02831(16) 0.28395(10)
C21 C 0.9993(2) -0.03420(19) 0.41802(12)
C22 C 0.9998(3) -0.0736(2) 0.33160(13)
H15 H 1.1199 -0.0836 0.3044
H16 H 0.9575 -0.1609 0.3331
C23 C 0.7853(3) 0.0041(2) 0.22708(13)
H17 H 0.7711 -0.0804 0.2105
C24 C 1.1325(2) 0.03536(19) 0.43789(13)
C25 C 1.2664(3) 0.0786(2) 0.37716(15)
H18 H 1.2656 0.0606 0.3227
C26 C 0.8649(2) -0.06819(19) 0.47951(13)
C27 C 0.7243(3) -0.1360(2) 0.46156(15)
H19 H 0.7186 -0.1558 0.4078
C28 C 0.5998(3) -0.1717(2) 0.52164(17)
H20 H 0.5088 -0.2147 0.5086
C29 C 1.3939(3) 0.1449(3) 0.39709(17)
H21 H 1.4783 0.1729 0.3563
Cd1_2 Cd -0.342501(17) 0.450522(15) 0.246266(9)
Cd1A Cd 1.342501(17) 1.549478(15) -0.246266(9)
Cd1A_2 Cd 1.342501(17) -0.450522(15) 0.753734(9)
Cd1A_3 Cd 2.342501(17) -0.450522(15) 0.753734(9)
C1A C 1.3641(3) 1.4467(2) -0.05940(13)
H1A H 1.4683 1.4838 -0.0605
O1A O 1.88086(17) -0.41393(17) 0.79378(9)
N1A N 1.13288(19) 1.34902(15) -0.01735(9)
O2A O 1.58875(16) -0.39612(16) 0.80719(8)
C2A C 1.1388(2) 1.38123(19) -0.09807(12)
H2A H 1.0556 1.3633 -0.1303
N2A N 1.27709(19) 1.44139(16) -0.12581(10)
N2A_2 N 1.27709(19) -0.55861(16) 0.87419(10)
N3A N 1.59421(18) -0.52008(16) 0.66789(10)
C3A C 0.9974(2) 1.13759(19) 0.01674(12)
C4A C 1.3313(3) 0.9628(2) 0.14816(15)
H3A H 1.4038 0.9842 0.1848
C5A C 0.8875(2) 1.10503(19) -0.03748(12)
C6A C 1.7505(2) -0.50350(18) 0.69197(11)
C7A C 1.9030(2) -0.60415(19) 0.57172(12)
H4A H 2.0072 -0.6323 0.5387
C8A C 0.9959(2) 1.28395(19) 0.03607(13)
H5A H 1.0152 1.2868 0.0929
H6A H 0.8808 1.3348 0.0292
C9A C 1.9098(2) -0.54784(18) 0.64509(12)
C10A C 1.1109(2) 1.03440(19) 0.05520(12)
C11A C 1.7429(3) -0.6190(2) 0.54701(13)
H7A H 1.7374 -0.6561 0.4975
C12A C 1.5918(2) -0.5770(2) 0.59794(13)
H8A H 1.4835 -0.5891 0.5827
C13A C 1.2241(3) 1.0629(2) 0.11165(13)
H9A H 1.2242 1.1526 0.1236
C14A C 1.7403(2) -0.4321(2) 0.77089(12)
C15A C 1.2769(3) 1.3905(2) 0.00808(13)
H10A H 1.3084 1.3817 0.0610
C16A C 0.7710(3) 1.2064(2) -0.07837(14)
H11A H 0.7676 1.2975 -0.0683
C17A C 1.3333(3) 0.8267(2) 0.13087(15)
H12A H 1.4078 0.7585 0.1561
C18A C 2.0884(2) -0.5406(2) 0.67258(12)
O3_2 O 0.83932(17) 0.43715(15) 0.35056(9)
O3A O 1.16068(17) -0.43715(15) 0.64944(9)
O3A_2 O 2.16068(17) -0.43715(15) 0.64944(9)
O4_2 O 0.84439(18) 0.64012(16) 0.28701(9)
O4A O 1.15561(18) -0.64012(16) 0.71299(9)
O4A_2 O 2.15561(18) -0.64012(16) 0.71299(9)
N4A N 1.2381(2) -0.22687(16) 0.76170(10)
C19A C 1.1290(2) -0.1634(2) 0.71132(13)
H13A H 1.0713 -0.2068 0.6770
C20A C 1.2920(3) -0.1270(2) 0.80051(13)
H14A H 1.3699 -0.1413 0.8399
N5A N 1.1121(2) -0.02831(16) 0.71605(10)
C21A C 1.0007(2) 0.03420(19) 0.58198(12)
C22A C 1.0002(3) 0.0736(2) 0.66840(13)
H15A H 0.8801 0.0836 0.6956
H16A H 1.0425 0.1609 0.6669
C23A C 1.2147(3) -0.0041(2) 0.77292(13)
H17A H 1.2289 0.0804 0.7895
C24A C 0.8675(2) -0.03536(19) 0.56211(13)
C25A C 0.7336(3) -0.0786(2) 0.62284(15)
H18A H 0.7344 -0.0606 0.6773
C26A C 1.1351(2) 0.06819(19) 0.52049(13)
C27A C 1.2757(3) 0.1360(2) 0.53844(15)
H19A H 1.2814 0.1558 0.5922
C28A C 1.4002(3) 0.1717(2) 0.47836(17)
H20A H 1.4912 0.2147 0.4914
C29A C 0.6061(3) -0.1449(3) 0.60291(17)
H21A H 0.5217 -0.1729 0.6437
loop_
_geom_bond_atom_site_label_1
_geom_bond_atom_site_label_2
_geom_bond_site_symmetry_1
_geom_bond_site_symmetry_2
Cd1 O2 1_555 1_555
C1 H1 1_555 1_555
O1 C14 1_555 1_555
N1 C2 1_555 1_555
O2 C14 1_555 1_555
C2 H2 1_555 1_555
N2 Cd1 1_555 1_555
N3 Cd1 1_555 1_555
C3 C5 1_555 1_555
C4 H3 1_555 1_555
C5 C16 1_555 1_555
C6 N3 1_555 1_555
C7 H4 1_555 1_555
C8 N1 1_555 1_555
H5 C8 1_555 1_555
H6 C8 1_555 1_555
C9 C6 1_555 1_555
C10 C3 1_555 1_555
C11 C7 1_555 1_555
H7 C11 1_555 1_555
C12 N3 1_555 1_555
H8 C12 1_555 1_555
C13 C4 1_555 1_555
H9 C13 1_555 1_555
C14 C6 1_555 1_555
C15 C1 1_555 1_555
H10 C15 1_555 1_555
C16 H11 1_555 1_555
C17 C4 1_555 1_555
H12 C17 1_555 1_555
C18 C9 1_555 1_555
O3 C18 1_555 1_555
O4 C18 1_555 1_555
N4 Cd1 1_555 1_555
C19 N4 1_555 1_555
H13 C19 1_555 1_555
C20 N4 1_555 1_555
H14 C20 1_555 1_555
N5 C19 1_555 1_555
C21 C22 1_555 1_555
C22 N5 1_555 1_555
H15 C22 1_555 1_555
H16 C22 1_555 1_555
C23 C20 1_555 1_555
H17 C23 1_555 1_555
C24 C21 1_555 1_555
C25 C24 1_555 1_555
H18 C25 1_555 1_555
C26 C21 1_555 1_555
C27 C26 1_555 1_555
H19 C27 1_555 1_555
C28 C27 1_555 1_555
H20 C28 1_555 1_555
C29 C25 1_555 1_555
H21 C29 1_555 1_555
Cd1_2 O3 1_555 1_555
Cd1A N2A 1_555 1_555
Cd1A_2 O2A 1_555 1_555
Cd1A_3 O3A_2 1_555 1_555
C1A H1A 1_555 1_555
O1A C14A 1_555 1_555
N1A C2A 1_555 1_555
O2A C14A 1_555 1_555
C2A H2A 1_555 1_555
N2A C1A 1_555 1_555
N2A_2 Cd1A_2 1_555 1_555
N3A Cd1A_2 1_555 1_555
C3A C5A 1_555 1_555
C4A H3A 1_555 1_555
C5A C10 1_555 1_555
C6A N3A 1_555 1_555
C7A H4A 1_555 1_555
C8A N1A 1_555 1_555
H5A C8A 1_555 1_555
H6A C8A 1_555 1_555
C9A C6A 1_555 1_555
C10A C5 1_555 1_555
C11A C7A 1_555 1_555
H7A C11A 1_555 1_555
C12A N3A 1_555 1_555
H8A C12A 1_555 1_555
C13A C4A 1_555 1_555
H9A C13A 1_555 1_555
C14A C6A 1_555 1_555
C15A C1A 1_555 1_555
H10A C15A 1_555 1_555
C16A C17 1_555 1_555
H11A C16A 1_555 1_555
C17A C16 1_555 1_555
H12A C17A 1_555 1_555
C18A C9A 1_555 1_555
O3_2 Cd1 1_555 1_555
O3A Cd1A_2 1_555 1_555
O3A_2 C18A 1_555 1_555
O4_2 Cd1 1_555 1_555
O4A Cd1A_2 1_555 1_555
O4A_2 Cd1A_3 1_555 1_555
N4A Cd1A_2 1_555 1_555
C19A N4A 1_555 1_555
H13A C19A 1_555 1_555
C20A N4A 1_555 1_555
H14A C20A 1_555 1_555
N5A C19A 1_555 1_555
C21A C22A 1_555 1_555
C22A N5A 1_555 1_555
H15A C22A 1_555 1_555
H16A C22A 1_555 1_555
C23A C20A 1_555 1_555
H17A C23A 1_555 1_555
C24A C26 1_555 1_555
C25A C24A 1_555 1_555
H18A C25A 1_555 1_555
C26A C24 1_555 1_555
C27A C26A 1_555 1_555
H19A C27A 1_555 1_555
C28A C29 1_555 1_555
H20A C28A 1_555 1_555
C29A C28 1_555 1_555
H21A C29A 1_555 1_555
C1 N2 1_555 1_555
N1 C15 1_555 1_555
C2 N2 1_555 1_555
C3 C8 1_555 1_555
C7 C9 1_555 1_555
C10 C13 1_555 1_555
C11 C12 1_555 1_555
O4 Cd1_2 1_555 1_555
N5 C23 1_555 1_555
N1A C15A 1_555 1_555
C2A N2A 1_555 1_555
C3A C8A 1_555 1_555
C3A C10A 1_555 1_555
C4A C17A 1_555 1_555
C5A C16A 1_555 1_555
C7A C9A 1_555 1_555
C10A C13A 1_555 1_555
C11A C12A 1_555 1_555
C18A O4A_2 1_555 1_555
N5A C23A 1_555 1_555
C21A C24A 1_555 1_555
C21A C26A 1_555 1_555
C25A C29A 1_555 1_555
C27A C28A 1_555 1_555

#END
