
#######################################################################
#
#                 Cambridge Crystallographic Data Centre
#                                CCDC 
#
#######################################################################
#
# If this CIF has been generated from an entry in the Cambridge 
# Structural Database, then it will include bibliographic, chemical, 
# crystal, experimental, refinement or atomic coordinate data resulting 
# from the CCDC's data processing and validation procedures.
#
#######################################################################

data_LEBYIC
_symmetry_cell_setting           monoclinic
_symmetry_space_group_name_H-M   'C 2/c'
_symmetry_Int_Tables_number      15
_space_group_name_Hall           '-C 2yn'
loop_
_symmetry_equiv_pos_site_id
_symmetry_equiv_pos_as_xyz
1 x,y,z
2 -x,y,1/2-z
3 1/2+x,1/2+y,z
4 1/2-x,1/2+y,1/2-z
5 -x,-y,-z
6 x,-y,1/2+z
7 1/2-x,1/2-y,-z
8 1/2+x,1/2-y,1/2+z
_cell_length_a                   19.839
_cell_length_b                   13.803
_cell_length_c                   11.929
_cell_angle_alpha                90
_cell_angle_beta                 118.42
_cell_angle_gamma                90
_cell_volume                     2872.93
loop_
_atom_site_label
_atom_site_type_symbol
_atom_site_fract_x
_atom_site_fract_y
_atom_site_fract_z
Cd1 Cd 0.0000 0.000202(19) 0.2500
O1 O -0.08495(11) -0.12647(14) 0.25574(19)
O2 O -0.10662(10) -0.05735(14) 0.07622(18)
C1 C -0.18928(13) -0.18610(18) 0.0660(2)
C2 C -0.12323(14) -0.11891(18) 0.1376(3)
N1 N 0.05391(13) 0.23981(14) 0.0688(2)
N2 N 0.05173(13) 0.11529(16) 0.1810(2)
C3 C -0.21151(15) -0.2509(2) 0.1309(3)
H1 H -0.1856 -0.2515 0.2196
C4 C 0.01700(16) 0.40428(18) -0.0203(3)
C5 C -0.05231(15) 0.42407(18) -0.0202(3)
C6 C -0.22850(14) -0.18537(19) -0.0663(3)
H2 H -0.2145 -0.1421 -0.1114
C7 C 0.03338(17) 0.30077(18) -0.0442(3)
C8 C 0.06992(16) 0.47813(18) 0.0003(3)
C9 C 0.02458(15) 0.15246(18) 0.0680(3)
H3 H -0.0114 0.1217 -0.0057
C10 C -0.10680(16) 0.3505(2) -0.0376(3)
H4 H -0.0955 0.2867 -0.0477
C11 C 0.14198(19) 0.4620(2) 0.0050(4)
H5 H 0.1554 0.3994 -0.0056
C12 C 0.10261(18) 0.1832(2) 0.2617(3)
H6 H 0.1313 0.1772 0.3498
C13 C 0.10429(18) 0.2601(2) 0.1928(3)
H7 H 0.1339 0.3157 0.2238
C14 C -0.17395(19) 0.3695(2) -0.0400(4)
H8 H -0.2083 0.3196 -0.0520
C15 C 0.1917(2) 0.5356(3) 0.0245(5)
H9 H 0.2385 0.5223 0.0276
Cd1D Cd 0.0000 0.999798(19) -0.2500
Cd1F Cd -0.5000 -0.500202(19) -0.2500
O1F O -0.41505(11) -0.37353(14) -0.25574(19)
O1A O 0.08495(11) -0.12647(14) 0.24426(19)
O2F O -0.39338(10) -0.44265(14) -0.07622(18)
O2A O 0.10662(10) -0.05735(14) 0.42378(18)
C1F C -0.31072(13) -0.31390(18) -0.0660(2)
C2F C -0.37677(14) -0.38109(18) -0.1376(3)
N1D N -0.05391(13) 0.76019(14) -0.0688(2)
N2D N -0.05173(13) 0.88471(16) -0.1810(2)
N2A N -0.05173(13) 0.11529(16) 0.3190(2)
C3F C -0.28849(15) -0.2491(2) -0.1309(3)
H1F H -0.3144 -0.2485 -0.2196
C4D C -0.01700(16) 0.59572(18) 0.0203(3)
C5D C 0.05231(15) 0.57593(18) 0.0202(3)
C6F C -0.27150(14) -0.31463(19) 0.0663(3)
H2F H -0.2855 -0.3579 0.1114
C7D C -0.03338(17) 0.69923(18) 0.0442(3)
C8D C -0.06992(16) 0.52187(18) -0.0003(3)
C9D C -0.02458(15) 0.84754(18) -0.0680(3)
H3D H 0.0114 0.8783 0.0057
C10D C 0.10680(16) 0.6495(2) 0.0376(3)
H4D H 0.0955 0.7133 0.0477
C11D C -0.14198(19) 0.5380(2) -0.0050(4)
H5D H -0.1554 0.6006 0.0056
C12D C -0.10261(18) 0.8168(2) -0.2617(3)
H6D H -0.1313 0.8228 -0.3498
C13D C -0.10429(18) 0.7399(2) -0.1928(3)
H7D H -0.1339 0.6843 -0.2238
C14D C 0.17395(19) 0.6305(2) 0.0400(4)
H8D H 0.2083 0.6804 0.0520
C15D C -0.1917(2) 0.4644(3) -0.0245(5)
H9D H -0.2385 0.4777 -0.0276
O3 O -0.17600(18) 0.1004(2) -0.0974(3)
loop_
_geom_bond_atom_site_label_1
_geom_bond_atom_site_label_2
_geom_bond_site_symmetry_1
_geom_bond_site_symmetry_2
Cd1 O1 1_555 1_555
O1 C2 1_555 1_555
O2 Cd1 1_555 1_555
C1 C2 1_555 1_555
C2 O2 1_555 1_555
N1 C7 1_555 1_555
N2 Cd1 1_555 1_555
C3 C1 1_555 1_555
H1 C3 1_555 1_555
C4 C5 1_555 1_555
C5 C10 1_555 1_555
C6 C1 1_555 1_555
H2 C6 1_555 1_555
C7 C4 1_555 1_555
C8 C4 1_555 1_555
C9 N1 1_555 1_555
H3 C9 1_555 1_555
C10 H4 1_555 1_555
C11 C8 1_555 1_555
H5 C11 1_555 1_555
C12 N2 1_555 1_555
H6 C12 1_555 1_555
C13 N1 1_555 1_555
H7 C13 1_555 1_555
C14 C10 1_555 1_555
H8 C14 1_555 1_555
C15 C11 1_555 1_555
H9 C15 1_555 1_555
Cd1D N2D 1_555 1_555
Cd1F O1F 1_555 1_555
O1F C2F 1_555 1_555
O1A Cd1 1_555 1_555
O2F Cd1F 1_555 1_555
O2A Cd1 1_555 1_555
C1F C2F 1_555 1_555
C2F O2F 1_555 1_555
N1D C7D 1_555 1_555
N2D C9D 1_555 1_555
N2A Cd1 1_555 1_555
C3F C6 1_555 1_555
H1F C3F 1_555 1_555
C4D C5D 1_555 1_555
C5D C8 1_555 1_555
C6F C3 1_555 1_555
H2F C6F 1_555 1_555
C7D C4D 1_555 1_555
C8D C5 1_555 1_555
C9D N1D 1_555 1_555
H3D C9D 1_555 1_555
C10D C5D 1_555 1_555
H4D C10D 1_555 1_555
C11D C8D 1_555 1_555
H5D C11D 1_555 1_555
C12D N2D 1_555 1_555
H6D C12D 1_555 1_555
C13D N1D 1_555 1_555
H7D C13D 1_555 1_555
C14D C15 1_555 1_555
H8D C14D 1_555 1_555
C15D C14 1_555 1_555
H9D C15D 1_555 1_555
N2 C9 1_555 1_555
C12 C13 1_555 1_555
C1F C3F 1_555 1_555
C1F C6F 1_555 1_555
C4D C8D 1_555 1_555
C10D C14D 1_555 1_555
C11D C15D 1_555 1_555
C12D C13D 1_555 1_555

#END
