
#######################################################################
#
#                 Cambridge Crystallographic Data Centre
#                                CCDC 
#
#######################################################################
#
# If this CIF has been generated from an entry in the Cambridge 
# Structural Database, then it will include bibliographic, chemical, 
# crystal, experimental, refinement or atomic coordinate data resulting 
# from the CCDC's data processing and validation procedures.
#
#######################################################################

data_LEBYEY
_symmetry_cell_setting           monoclinic
_symmetry_space_group_name_H-M   'C 2/c'
_symmetry_Int_Tables_number      15
_space_group_name_Hall           '-C 2yn'
loop_
_symmetry_equiv_pos_site_id
_symmetry_equiv_pos_as_xyz
1 x,y,z
2 -x,y,1/2-z
3 1/2+x,1/2+y,z
4 1/2-x,1/2+y,1/2-z
5 -x,-y,-z
6 x,-y,1/2+z
7 1/2-x,1/2-y,-z
8 1/2+x,1/2-y,1/2+z
_cell_length_a                   10.3056(3)
_cell_length_b                   25.2096(9)
_cell_length_c                   22.6546(6)
_cell_angle_alpha                90
_cell_angle_beta                 92.645(2)
_cell_angle_gamma                90
_cell_volume                     5879.4
loop_
_atom_site_label
_atom_site_type_symbol
_atom_site_fract_x
_atom_site_fract_y
_atom_site_fract_z
Cd1 Cd 1.21782(3) 0.222990(13) 0.139840(13)
Cd2 Cd 0.5000 0.283344(19) 0.2500
O1 O 0.9803(3) 0.21840(12) 0.14527(14)
O2 O 0.7566(3) 0.27303(13) 0.27225(14)
O3 O 1.0726(2) 0.28016(11) 0.09334(14)
O4 O 0.3822(3) 0.26292(15) 0.09398(15)
N1 N 1.2136(3) 0.16349(15) 0.06212(16)
N2 N 1.2213(4) 0.12615(15) -0.02585(18)
C1 C 1.0000 0.3232(2) 0.2500
H1 H 1.0000 0.2863 0.2500
O5 O 0.5018(3) 0.23358(12) 0.17085(13)
C2 C 0.8426(3) 0.27689(17) 0.08851(18)
O6 O 0.6545(3) 0.34556(14) 0.24573(19)
C3 C 0.6091(3) 0.27490(18) 0.09173(18)
C4 C 1.1225(5) -0.0154(2) -0.1433(2)
C5 C 0.7315(3) 0.25996(17) 0.11508(18)
H2 H 0.7385 0.2386 0.1485
C6 C 0.8837(4) 0.35032(18) 0.25457(18)
C7 C 1.1281(5) 0.0395(2) -0.1287(2)
C8 C 1.1380(5) 0.1191(2) 0.0597(2)
H3 H 1.0913 0.1067 0.0910
C9 C 0.5994(4) 0.3069(2) 0.0423(2)
H4 H 0.5180 0.3158 0.0258
C10 C 0.8848(4) 0.40524(19) 0.2550(2)
H5 H 0.8078 0.4240 0.2586
C11 C 1.3447(6) -0.0274(3) -0.1081(3)
C12 C 0.8313(4) 0.3101(2) 0.0403(2)
H6 H 0.9058 0.3223 0.0231
C13 C 1.1389(5) 0.0956(2) 0.0068(2)
H7 H 1.0939 0.0653 -0.0055
C14 C 0.7101(4) 0.3256(2) 0.0172(2)
H8 H 0.7035 0.3485 -0.0150
C15 C 1.0000 0.4320(3) 0.2500
H9 H 1.0000 0.4689 0.2500
C16 C 1.2614(5) 0.16646(19) 0.0091(2)
H10 H 1.3163 0.1933 -0.0027
C17 C 0.9732(4) 0.25772(18) 0.11116(19)
C18 C 1.2288(6) -0.0481(2) -0.1311(2)
C19 C 1.5689(7) -0.0340(4) -0.0754(4)
H11 H 1.6421 -0.0547 -0.0669
C20 C 1.2429(5) 0.0611(2) -0.1052(2)
C21 C 1.4577(7) -0.0595(3) -0.0957(3)
H12 H 1.4558 -0.0961 -0.1011
C22 C 0.4891(4) 0.25599(18) 0.1205(2)
C23 C 0.8993(7) -0.0053(3) -0.1767(3)
H13 H 0.8230 -0.0198 -0.1932
C24 C 0.7575(4) 0.3209(2) 0.2583(2)
C25 C 1.3520(5) 0.0288(3) -0.0963(3)
C26 C 1.5800(8) 0.0197(4) -0.0668(3)
H14 H 1.6596 0.0345 -0.0550
C27 C 1.0034(6) -0.0359(3) -0.1695(3)
H15 H 0.9992 -0.0711 -0.1817
C28 C 0.9005(7) 0.0455(3) -0.1613(3)
H16 H 0.8244 0.0651 -0.1667
C29 C 1.2451(6) 0.1194(2) -0.0890(2)
H17 H 1.3288 0.1344 -0.0974
H18 H 1.1788 0.1380 -0.1126
C30 C 1.0095(6) 0.0702(3) -0.1378(3)
H19 H 1.0076 0.1060 -0.1278
C31 C 1.4723(7) 0.0514(3) -0.0759(3)
H20 H 1.4782 0.0876 -0.0687
N3 N 1.2452(4) -0.11735(16) -0.20719(17)
C32 C 1.2188(6) -0.1069(2) -0.1452(2)
H21 H 1.2805 -0.1263 -0.1198
H22 H 1.1323 -0.1193 -0.1373
N4 N 1.2417(3) -0.15743(15) -0.29299(15)
C33 C 1.1932(5) -0.15658(19) -0.2404(2)
H23 H 1.1308 -0.1802 -0.2279
C34 C 1.3290(6) -0.1182(2) -0.2922(2)
H24 H 1.3808 -0.1099 -0.3234
C35 C 1.3322(6) -0.0923(2) -0.2401(3)
H25 H 1.3836 -0.0633 -0.2292
Cd1A Cd -0.21782(3) 0.222990(13) 0.360160(13)
Cd1A_2 Cd 0.78218(3) 0.222990(13) 0.360160(13)
Cd1_2 Cd 0.21782(3) 0.222990(13) 0.139840(13)
Cd1E Cd 1.21782(3) -0.222990(13) -0.360160(13)
Cd1E_2 Cd 1.21782(3) -0.222990(13) 0.639840(13)
Cd2_2 Cd 1.5000 0.283344(19) 0.2500
O1A O 0.0197(3) 0.21840(12) 0.35473(14)
O2A O 1.2434(3) 0.27303(13) 0.22775(14)
O2A_2 O 0.2434(3) 0.27303(13) 0.22775(14)
O2_2 O -0.2434(3) 0.27303(13) 0.27225(14)
O3A O -0.0726(2) 0.28016(11) 0.40666(14)
O4A O 0.6178(3) 0.26292(15) 0.40602(15)
O4_2 O 1.3822(3) 0.26292(15) 0.09398(15)
O4A_2 O -0.3822(3) 0.26292(15) 0.40602(15)
N1E N 1.2136(3) -0.16349(15) 0.56212(16)
N1A N -0.2136(3) 0.16349(15) 0.43788(16)
N2E N 1.2213(4) -0.12615(15) 0.47415(18)
O5A O 0.4982(3) 0.23358(12) 0.32915(13)
C2A C 0.1574(3) 0.27689(17) 0.41149(18)
O6A O 1.3455(3) 0.34556(14) 0.25427(19)
O6A_2 O 0.3455(3) 0.34556(14) 0.25427(19)
C3A C 0.3909(3) 0.27490(18) 0.40827(18)
C4E C 1.1225(5) 0.0154(2) 0.3567(2)
C5A C 0.2685(3) 0.25996(17) 0.38492(18)
H2A H 0.2615 0.2386 0.3515
C6A C 1.1163(4) 0.35032(18) 0.24543(18)
C7E C 1.1281(5) -0.0395(2) 0.3713(2)
C8E C 1.1380(5) -0.1191(2) 0.5597(2)
H3E H 1.0913 -0.1067 0.5910
C9A C 0.4006(4) 0.3069(2) 0.4577(2)
H4A H 0.4820 0.3158 0.4742
C10A C 1.1152(4) 0.40524(19) 0.2450(2)
H5A H 1.1922 0.4240 0.2414
C11E C 1.3447(6) 0.0274(3) 0.3919(3)
C12A C 0.1687(4) 0.3101(2) 0.4597(2)
H6A H 0.0942 0.3223 0.4769
C13E C 1.1389(5) -0.0956(2) 0.5068(2)
H7E H 1.0939 -0.0653 0.4945
C14A C 0.2899(4) 0.3256(2) 0.4828(2)
H8A H 0.2965 0.3485 0.5150
C16E C 1.2614(5) -0.16646(19) 0.5091(2)
H10E H 1.3163 -0.1933 0.4973
C17A C 0.0268(4) 0.25772(18) 0.38884(19)
C18E C 1.2288(6) 0.0481(2) 0.3689(2)
C19E C 1.5689(7) 0.0340(4) 0.4246(4)
H11E H 1.6421 0.0547 0.4331
C20E C 1.2429(5) -0.0611(2) 0.3948(2)
C21E C 1.4577(7) 0.0595(3) 0.4043(3)
H12E H 1.4558 0.0961 0.3989
C22A C 0.5109(4) 0.25599(18) 0.3795(2)
C23E C 0.8993(7) 0.0053(3) 0.3233(3)
H13E H 0.8230 0.0198 0.3068
C24A C 1.2425(4) 0.3209(2) 0.2417(2)
C25E C 1.3520(5) -0.0288(3) 0.4037(3)
C26E C 1.5800(8) -0.0197(4) 0.4332(3)
H14E H 1.6596 -0.0345 0.4450
C27E C 1.0034(6) 0.0359(3) 0.3305(3)
H15E H 0.9992 0.0711 0.3183
C28E C 0.9005(7) -0.0455(3) 0.3387(3)
H16E H 0.8244 -0.0651 0.3333
C29E C 1.2451(6) -0.1194(2) 0.4110(2)
H17E H 1.3288 -0.1344 0.4026
H18E H 1.1788 -0.1380 0.3874
C30E C 1.0095(6) -0.0702(3) 0.3622(3)
H19E H 1.0076 -0.1060 0.3722
C31E C 1.4723(7) -0.0514(3) 0.4241(3)
H20E H 1.4782 -0.0876 0.4313
N3E N 1.2452(4) 0.11735(16) 0.29281(17)
C32E C 1.2188(6) 0.1069(2) 0.3548(2)
H21E H 1.2805 0.1263 0.3802
H22E H 1.1323 0.1193 0.3627
N4E N 1.2417(3) 0.15743(15) 0.20701(15)
N4D N -0.2417(3) 0.15743(15) 0.29299(15)
C33E C 1.1932(5) 0.15658(19) 0.2596(2)
H23E H 1.1308 0.1802 0.2721
C34E C 1.3290(6) 0.1182(2) 0.2078(2)
H24E H 1.3808 0.1099 0.1766
C35E C 1.3322(6) 0.0923(2) 0.2599(3)
H25E H 1.3836 0.0633 0.2708
loop_
_geom_bond_atom_site_label_1
_geom_bond_atom_site_label_2
_geom_bond_site_symmetry_1
_geom_bond_site_symmetry_2
Cd1 O1 1_555 1_555
Cd2 O2 1_555 1_555
O1 C17 1_555 1_555
O2 C24 1_555 1_555
O3 Cd1 1_555 1_555
O4 C22 1_555 1_555
N1 Cd1 1_555 1_555
N2 C13 1_555 1_555
C1 H1 1_555 1_555
O5 Cd2 1_555 1_555
C2 C5 1_555 1_555
O6 Cd2 1_555 1_555
C3 C5 1_555 1_555
C4 C7 1_555 1_555
C5 H2 1_555 1_555
C6 C1 1_555 1_555
C7 C20 1_555 1_555
C8 N1 1_555 1_555
H3 C8 1_555 1_555
C9 C3 1_555 1_555
H4 C9 1_555 1_555
C10 C6 1_555 1_555
H5 C10 1_555 1_555
C11 C18 1_555 1_555
C12 C2 1_555 1_555
H6 C12 1_555 1_555
C13 C8 1_555 1_555
H7 C13 1_555 1_555
C14 C9 1_555 1_555
H8 C14 1_555 1_555
C15 C10 1_555 1_555
H9 C15 1_555 1_555
C16 N1 1_555 1_555
H10 C16 1_555 1_555
C17 O3 1_555 1_555
C18 C4 1_555 1_555
C19 H11 1_555 1_555
C20 C25 1_555 1_555
C21 C11 1_555 1_555
H12 C21 1_555 1_555
C22 O5 1_555 1_555
C23 H13 1_555 1_555
C24 O6 1_555 1_555
C25 C11 1_555 1_555
C26 C19 1_555 1_555
H14 C26 1_555 1_555
C27 C4 1_555 1_555
H15 C27 1_555 1_555
C28 C23 1_555 1_555
H16 C28 1_555 1_555
C29 N2 1_555 1_555
H17 C29 1_555 1_555
H18 C29 1_555 1_555
C30 C7 1_555 1_555
H19 C30 1_555 1_555
C31 C25 1_555 1_555
H20 C31 1_555 1_555
N3 C32 1_555 1_555
C32 C18 1_555 1_555
H21 C32 1_555 1_555
H22 C32 1_555 1_555
N4 C33 1_555 1_555
C33 N3 1_555 1_555
H23 C33 1_555 1_555
C34 N4 1_555 1_555
H24 C34 1_555 1_555
C35 N3 1_555 1_555
H25 C35 1_555 1_555
Cd1A O1A 1_555 1_555
Cd1A_2 O2 1_555 1_555
Cd1_2 O4 1_555 1_555
Cd1E N4 1_555 1_555
Cd1E_2 N1E 1_555 1_555
Cd2_2 O2A 1_555 1_555
O1A C17A 1_555 1_555
O2A Cd1 1_555 1_555
O2A_2 Cd2 1_555 1_555
O2_2 Cd1A 1_555 1_555
O3A Cd1A 1_555 1_555
O4A Cd1A_2 1_555 1_555
O4_2 Cd1 1_555 1_555
O4A_2 Cd1A 1_555 1_555
N1E C8E 1_555 1_555
N1A Cd1A 1_555 1_555
N2E C13E 1_555 1_555
O5A Cd2 1_555 1_555
C2A C5A 1_555 1_555
O6A Cd2_2 1_555 1_555
O6A_2 Cd2 1_555 1_555
C3A C5A 1_555 1_555
C4E C7E 1_555 1_555
C5A H2A 1_555 1_555
C6A C1 1_555 1_555
C7E C20E 1_555 1_555
C8E H3E 1_555 1_555
C9A C3A 1_555 1_555
H4A C9A 1_555 1_555
C10A C15 1_555 1_555
H5A C10A 1_555 1_555
C11E C18E 1_555 1_555
C12A C2A 1_555 1_555
H6A C12A 1_555 1_555
C13E C8E 1_555 1_555
H7E C13E 1_555 1_555
C14A C9A 1_555 1_555
H8A C14A 1_555 1_555
C16E N1E 1_555 1_555
H10E C16E 1_555 1_555
C17A O3A 1_555 1_555
C18E C4E 1_555 1_555
C19E H11E 1_555 1_555
C20E C25E 1_555 1_555
C21E C11E 1_555 1_555
H12E C21E 1_555 1_555
C22A O4A 1_555 1_555
C23E H13E 1_555 1_555
C24A O2A 1_555 1_555
C25E C11E 1_555 1_555
C26E C19E 1_555 1_555
H14E C26E 1_555 1_555
C27E C4E 1_555 1_555
H15E C27E 1_555 1_555
C28E C23E 1_555 1_555
H16E C28E 1_555 1_555
C29E N2E 1_555 1_555
H17E C29E 1_555 1_555
H18E C29E 1_555 1_555
C30E C7E 1_555 1_555
H19E C30E 1_555 1_555
C31E C25E 1_555 1_555
H20E C31E 1_555 1_555
N3E C32E 1_555 1_555
C32E C18E 1_555 1_555
H21E C32E 1_555 1_555
H22E C32E 1_555 1_555
N4E Cd1 1_555 1_555
N4D Cd1A 1_555 1_555
C33E N3E 1_555 1_555
H23E C33E 1_555 1_555
C34E N4E 1_555 1_555
H24E C34E 1_555 1_555
C35E N3E 1_555 1_555
H25E C35E 1_555 1_555
N2 C16 1_555 1_555
C2 C17 1_555 1_555
C3 C22 1_555 1_555
C6 C24 1_555 1_555
C12 C14 1_555 1_555
C19 C21 1_555 1_555
C20 C29 1_555 1_555
C23 C27 1_555 1_555
C26 C31 1_555 1_555
C28 C30 1_555 1_555
C34 C35 1_555 1_555
Cd1_2 O2A_2 1_555 1_555
N2E C16E 1_555 1_555
O5A C22A 1_555 1_555
C2A C17A 1_555 1_555
O6A C24A 1_555 1_555
C3A C22A 1_555 1_555
C6A C10A 1_555 1_555
C6A C24A 1_555 1_555
C12A C14A 1_555 1_555
C19E C21E 1_555 1_555
C20E C29E 1_555 1_555
C23E C27E 1_555 1_555
C26E C31E 1_555 1_555
C28E C30E 1_555 1_555
N4E C33E 1_555 1_555
C34E C35E 1_555 1_555

#END
