
#######################################################################
#
#                 Cambridge Crystallographic Data Centre
#                                CCDC 
#
#######################################################################
#
# If this CIF has been generated from an entry in the Cambridge 
# Structural Database, then it will include bibliographic, chemical, 
# crystal, experimental, refinement or atomic coordinate data resulting 
# from the CCDC's data processing and validation procedures.
#
#######################################################################

data_LECBOL
_symmetry_cell_setting           monoclinic
_symmetry_space_group_name_H-M   'C c'
_symmetry_Int_Tables_number      9
_space_group_name_Hall           'C -2yc'
loop_
_symmetry_equiv_pos_site_id
_symmetry_equiv_pos_as_xyz
1 x,y,z
2 x,-y,1/2+z
3 1/2+x,1/2+y,z
4 1/2+x,1/2-y,1/2+z
_cell_length_a                   11.1521(10)
_cell_length_b                   15.3961(14)
_cell_length_c                   17.7419(16)
_cell_angle_alpha                90
_cell_angle_beta                 105.715(3)
_cell_angle_gamma                90
_cell_volume                     2932.4
loop_
_atom_site_label
_atom_site_type_symbol
_atom_site_fract_x
_atom_site_fract_y
_atom_site_fract_z
Cu1 Cu -0.26732(17) 0.31032(12) 0.04819(12)
Cu2 Cu -0.20807(17) -0.15817(13) -0.30267(12)
O1 O -0.2030(15) -0.0313(6) -0.2953(8)
O2 O -0.1680(16) 0.0908(8) -0.2284(8)
O3 O -0.3202(14) 0.1852(9) -0.0725(9)
O4 O -0.2662(15) 0.1810(7) 0.0590(8)
O5 O -0.2053(14) 0.2884(7) 0.1903(9)
O6 O -0.1586(12) 0.2704(8) 0.3177(8)
O7 O -0.2622(16) 0.5588(7) 0.5460(10)
O8 O -0.3124(14) 0.6039(8) 0.4222(8)
N1 N -0.0862(16) 0.3114(7) 0.0443(10)
N2 N -0.0254(16) -0.1545(8) -0.2978(10)
N3 N 0.5524(18) 0.3152(8) 0.0440(11)
N4 N 0.6107(18) -0.1561(8) -0.2994(11)
C1 C -0.0488(15) 0.2767(11) -0.0128(11)
H1 H -0.1072 0.2486 -0.0528
C2 C 0.0710(16) 0.2798(11) -0.0164(11)
H2 H 0.0907 0.2581 -0.0605
C3 C 0.165(2) 0.3144(10) 0.0437(13)
C4 C 0.1274(17) 0.3506(11) 0.1032(11)
H3 H 0.1863 0.3759 0.1448
C5 C 0.0010(16) 0.3506(11) 0.1031(10)
H4 H -0.0230 0.3776 0.1436
C6 C 0.5113(17) 0.3574(11) 0.1007(11)
H5 H 0.5692 0.3866 0.1402
C7 C 0.390(2) 0.3584(12) 0.1014(12)
H6 H 0.3670 0.3867 0.1418
C8 C 0.299(2) 0.3179(9) 0.0429(12)
C9 C 0.3411(16) 0.2794(11) -0.0151(10)
H7 H 0.2848 0.2529 -0.0573
C10 C 0.4639(16) 0.2800(12) -0.0111(11)
H8 H 0.4875 0.2526 -0.0516
C11 C 0.0150(18) -0.1103(10) -0.3521(12)
H9 H -0.0430 -0.0817 -0.3920
C12 C 0.1399(16) -0.1062(11) -0.3504(11)
H10 H 0.1641 -0.0734 -0.3878
C13 C 0.230(2) -0.1507(12) -0.2932(14)
C14 C 0.1877(19) -0.1956(11) -0.2379(10)
H11 H 0.2436 -0.2270 -0.1990
C15 C 0.0608(17) -0.1939(12) -0.2400(11)
H12 H 0.0356 -0.2209 -0.1999
C16 C 0.568(2) -0.2077(11) -0.2501(12)
H13 H 0.6235 -0.2446 -0.2166
C17 C 0.4464(19) -0.2077(11) -0.2477(13)
H14 H 0.4202 -0.2451 -0.2141
C18 C 0.363(2) -0.1514(11) -0.2959(13)
C19 C 0.4085(17) -0.0955(11) -0.3418(11)
H15 H 0.3562 -0.0552 -0.3736
C20 C 0.5313(18) -0.0995(11) -0.3402(10)
H16 H 0.5608 -0.0594 -0.3701
C21 C -0.1717(18) 0.0116(12) -0.2297(11)
C22 C -0.1345(19) -0.0400(13) -0.1559(11)
H17 H -0.0460 -0.0525 -0.1439
H18 H -0.1786 -0.0949 -0.1641
C23 C -0.161(2) 0.0060(12) -0.0856(12)
H19 H -0.1111 -0.0208 -0.0379
H20 H -0.1352 0.0662 -0.0854
C24 C -0.295(2) 0.0036(11) -0.0848(13)
H21 H -0.3221 -0.0564 -0.0871
H22 H -0.3447 0.0330 -0.1310
C25 C -0.3168(18) 0.0468(12) -0.0116(12)
H23 H -0.4008 0.0337 -0.0092
H24 H -0.2595 0.0220 0.0346
C26 C -0.300(2) 0.1448(11) -0.0098(12)
C27 C -0.1721(18) 0.3198(12) 0.2618(15)
C28 C -0.1601(19) 0.4171(9) 0.2696(12)
H25 H -0.0794 0.4345 0.2639
H26 H -0.2236 0.4441 0.2277
C29 C -0.173(2) 0.4495(12) 0.3475(11)
H27 H -0.1147 0.4186 0.3892
H28 H -0.1516 0.5107 0.3527
C30 C -0.3050(19) 0.4381(12) 0.3576(12)
H29 H -0.3610 0.4791 0.3242
H30 H -0.3346 0.3799 0.3415
C31 C -0.306(3) 0.4529(13) 0.4448(14)
H31 H -0.2405 0.4181 0.4782
H32 H -0.3848 0.4317 0.4511
C32 C -0.2896(18) 0.5447(10) 0.4725(12)
Cu1A Cu -0.26732(17) 0.68968(12) 0.54819(12)
Cu1_2 Cu 0.73268(17) 0.31032(12) 0.04819(12)
Cu2A Cu -0.20807(17) 0.15817(13) 0.19733(12)
Cu2_2 Cu 0.79193(17) -0.15817(13) -0.30267(12)
O4A O -0.2662(15) -0.1810(7) -0.4410(8)
O5A O -0.2053(14) -0.2884(7) -0.3097(9)
O7A O -0.2622(16) 0.4412(7) 0.0460(10)
N3_2 N -0.4476(18) 0.3152(8) 0.0440(11)
N4_2 N -0.3893(18) -0.1561(8) -0.2994(11)
loop_
_geom_bond_atom_site_label_1
_geom_bond_atom_site_label_2
_geom_bond_site_symmetry_1
_geom_bond_site_symmetry_2
Cu1 O4 1_555 1_555
Cu2 O1 1_555 1_555
O1 C21 1_555 1_555
O2 C21 1_555 1_555
O3 C26 1_555 1_555
O4 C26 1_555 1_555
O5 Cu1 1_555 1_555
O6 C27 1_555 1_555
O7 C32 1_555 1_555
O8 C32 1_555 1_555
N1 Cu1 1_555 1_555
N2 Cu2 1_555 1_555
N3 C6 1_555 1_555
N4 C16 1_555 1_555
C1 N1 1_555 1_555
H1 C1 1_555 1_555
C2 C1 1_555 1_555
H2 C2 1_555 1_555
C3 C2 1_555 1_555
C4 C3 1_555 1_555
H3 C4 1_555 1_555
C5 N1 1_555 1_555
H4 C5 1_555 1_555
C6 H5 1_555 1_555
C7 C6 1_555 1_555
H6 C7 1_555 1_555
C8 C3 1_555 1_555
C9 C8 1_555 1_555
H7 C9 1_555 1_555
C10 N3 1_555 1_555
H8 C10 1_555 1_555
C11 N2 1_555 1_555
H9 C11 1_555 1_555
C12 C11 1_555 1_555
H10 C12 1_555 1_555
C13 C12 1_555 1_555
C14 C13 1_555 1_555
H11 C14 1_555 1_555
C15 N2 1_555 1_555
H12 C15 1_555 1_555
C16 H13 1_555 1_555
C17 C16 1_555 1_555
H14 C17 1_555 1_555
C18 C13 1_555 1_555
C19 C18 1_555 1_555
H15 C19 1_555 1_555
C20 N4 1_555 1_555
H16 C20 1_555 1_555
C21 C22 1_555 1_555
C22 H17 1_555 1_555
H18 C22 1_555 1_555
C23 C22 1_555 1_555
H19 C23 1_555 1_555
H20 C23 1_555 1_555
C24 C23 1_555 1_555
H21 C24 1_555 1_555
H22 C24 1_555 1_555
C25 C24 1_555 1_555
H23 C25 1_555 1_555
H24 C25 1_555 1_555
C26 C25 1_555 1_555
C27 O5 1_555 1_555
C28 C27 1_555 1_555
H25 C28 1_555 1_555
H26 C28 1_555 1_555
C29 C28 1_555 1_555
H27 C29 1_555 1_555
H28 C29 1_555 1_555
C30 C29 1_555 1_555
H29 C30 1_555 1_555
H30 C30 1_555 1_555
C31 C30 1_555 1_555
H31 C31 1_555 1_555
H32 C31 1_555 1_555
C32 C31 1_555 1_555
Cu1A O7 1_555 1_555
Cu1_2 N3 1_555 1_555
Cu2A O4 1_555 1_555
Cu2_2 N4 1_555 1_555
O4A Cu2 1_555 1_555
O5A Cu2 1_555 1_555
O7A Cu1 1_555 1_555
N3_2 Cu1 1_555 1_555
N4_2 Cu2 1_555 1_555
O5 Cu2A 1_555 1_555
C4 C5 1_555 1_555
C7 C8 1_555 1_555
C9 C10 1_555 1_555
C14 C15 1_555 1_555
C17 C18 1_555 1_555
C19 C20 1_555 1_555

#END
