
#######################################################################
#
#                 Cambridge Crystallographic Data Centre
#                                CCDC 
#
#######################################################################
#
# If this CIF has been generated from an entry in the Cambridge 
# Structural Database, then it will include bibliographic, chemical, 
# crystal, experimental, refinement or atomic coordinate data resulting 
# from the CCDC's data processing and validation procedures.
#
#######################################################################

data_LECBEC
_symmetry_cell_setting           monoclinic
_symmetry_space_group_name_H-M   'P 21/c'
_symmetry_Int_Tables_number      14
_space_group_name_Hall           '-P 2ybc'
loop_
_symmetry_equiv_pos_site_id
_symmetry_equiv_pos_as_xyz
1 x,y,z
2 -x,1/2+y,1/2-z
3 -x,-y,-z
4 x,1/2-y,1/2+z
_cell_length_a                   13.2479(7)
_cell_length_b                   25.7382(15)
_cell_length_c                   14.8186(9)
_cell_angle_alpha                90
_cell_angle_beta                 115.296(6)
_cell_angle_gamma                90
_cell_volume                     4568.3
loop_
_atom_site_label
_atom_site_type_symbol
_atom_site_fract_x
_atom_site_fract_y
_atom_site_fract_z
Ho1 Ho 0.00433(3) -0.510700(13) -0.12912(3)
Co1 Co -0.25057(8) -0.38511(4) 0.01785(7)
Co2 Co -0.23555(8) -0.37692(4) -0.25338(7)
O1 O -0.1751(4) -0.5456(2) -0.2322(4)
O2 O -0.0690(4) -0.59312(19) -0.1025(4)
O3 O 0.1396(4) -0.44835(19) -0.0882(4)
O4 O 0.0983(4) -0.4005(2) -0.2263(4)
O5 O -0.2029(4) -0.40129(18) -0.0955(3)
O6 O -0.1180(4) -0.43464(18) -0.1807(3)
O7 O -0.0968(4) -0.47310(18) -0.0421(3)
O8 O 0.1587(5) -0.5561(2) -0.2736(4)
O9 O 0.1385(4) -0.56719(18) -0.1307(4)
O10 O 0.2752(4) -0.6061(2) -0.1499(4)
O11 O -0.2360(7) -0.4329(3) -0.5111(6)
O12 O -0.2329(6) -0.3832(2) -0.3887(5)
O13 O -0.0036(5) -0.4932(2) -0.2864(4)
H1 H 0.050(5) -0.511(2) -0.288(5)
H2 H 0.012(6) -0.4609(9) -0.284(5)
N1 N -0.8436(5) -0.8138(2) -0.5699(4)
N2 N -0.6396(5) -0.8279(2) -0.4364(4)
N3 N -0.5958(5) -0.9261(2) -0.4323(5)
N4 N 0.8493(5) -0.1934(2) 0.3106(4)
N5 N 0.6440(5) -0.1797(2) 0.1894(4)
N6 N 0.6066(5) -0.0810(2) 0.1886(5)
C1 C -0.9475(6) -0.8096(3) -0.6429(6)
H5 H -0.9863 -0.8398 -0.6721
C2 C -0.9990(6) -0.7625(3) -0.6762(6)
H6 H -1.0705 -0.7611 -0.7278
C3 C -0.9431(6) -0.7172(3) -0.6319(6)
H7 H -0.9765 -0.6849 -0.6523
C4 C -0.8358(6) -0.7216(3) -0.5563(6)
H8 H -0.7956 -0.6920 -0.5258
C5 C -0.7888(6) -0.7701(3) -0.5264(5)
C6 C -0.6715(6) -0.7774(3) -0.4489(5)
C7 C -0.6001(6) -0.7386(3) -0.3993(5)
H9 H -0.6252 -0.7044 -0.4085
C8 C -0.4890(6) -0.7494(3) -0.3346(5)
C9 C -0.4578(6) -0.8024(3) -0.3206(6)
H10 H -0.3857 -0.8119 -0.2766
C10 C -0.5347(6) -0.8400(3) -0.3727(5)
C11 C -0.5100(6) -0.8967(3) -0.3683(5)
C12 C -0.4084(6) -0.9192(3) -0.3088(6)
H11 H -0.3496 -0.8985 -0.2668
C13 C -0.3938(7) -0.9721(3) -0.3115(6)
H12 H -0.3256 -0.9873 -0.2713
C14 C -0.4821(7) -1.0020(3) -0.3748(6)
H13 H -0.4750 -1.0379 -0.3775
C15 C -0.5815(7) -0.9774(3) -0.4342(6)
H14 H -0.6409 -0.9975 -0.4773
C16 C -0.4049(6) -0.7080(3) -0.2907(5)
C17 C -0.3047(6) -0.7159(3) -0.2054(5)
H15 H -0.2905 -0.7479 -0.1730
C18 C -0.2273(6) -0.6766(3) -0.1695(6)
H16 H -0.1622 -0.6821 -0.1118
C19 C -0.2441(6) -0.6289(3) -0.2172(6)
C20 C -0.3430(6) -0.6208(3) -0.3018(6)
H17 H -0.3557 -0.5890 -0.3346
C21 C -0.4223(6) -0.6592(3) -0.3378(5)
H18 H -0.4884 -0.6528 -0.3941
C22 C -0.1580(6) -0.5870(3) -0.1804(6)
C23 C 0.5943(6) -0.0293(3) 0.1926(6)
H19 H 0.6548 -0.0094 0.2344
C24 C 0.4935(7) -0.0048(3) 0.1360(7)
H20 H 0.4866 0.0309 0.1407
C25 C 0.4045(7) -0.0336(3) 0.0733(7)
H21 H 0.3365 -0.0177 0.0348
C26 C 0.4168(7) -0.0866(3) 0.0679(6)
H22 H 0.3576 -0.1068 0.0249
C27 C 0.5177(6) -0.1090(3) 0.1269(6)
C28 C 0.5381(6) -0.1665(3) 0.1293(5)
C29 C 0.4583(6) -0.2034(3) 0.0801(5)
H23 H 0.3848 -0.1934 0.0415
C30 C 0.4874(6) -0.2561(3) 0.0880(5)
C31 C 0.5978(6) -0.2691(3) 0.1507(5)
H24 H 0.6205 -0.3036 0.1589
C32 C 0.6738(6) -0.2299(3) 0.2010(5)
C33 C 0.7922(6) -0.2377(3) 0.2760(5)
C34 C 0.8351(6) -0.2862(3) 0.3116(5)
H25 H 0.7922 -0.3160 0.2873
C35 C 0.9447(7) -0.2893(3) 0.3851(5)
H26 H 0.9767 -0.3215 0.4094
C36 C 1.0055(6) -0.2441(3) 0.4214(5)
H27 H 1.0781 -0.2453 0.4712
C37 C 0.9551(6) -0.1972(3) 0.3816(5)
H28 H 0.9961 -0.1668 0.4048
C38 C 0.4028(6) -0.2958(3) 0.0329(5)
C39 C 0.3133(6) -0.2822(3) -0.0566(5)
H29 H 0.3063 -0.2483 -0.0803
C40 C 0.2346(6) -0.3196(3) -0.1103(6)
H30 H 0.1770 -0.3106 -0.1714
C41 C 0.2397(6) -0.3698(3) -0.0754(5)
C42 C 0.3274(6) -0.3828(3) 0.0163(5)
H31 H 0.3310 -0.4160 0.0420
C43 C 0.4092(6) -0.3467(3) 0.0694(5)
H32 H 0.4682 -0.3562 0.1292
C44 C 0.1516(6) -0.4094(3) -0.1356(6)
C45 C -0.1397(6) -0.4356(3) -0.1044(5)
C46 C -0.2266(9) -0.4222(5) -0.4238(8)
H33 H -0.2122 -0.4507 -0.3815
C47 C 0.1909(6) -0.5755(3) -0.1901(6)
Ho1B Ho -0.00433(3) -0.489300(13) 0.12912(3)
Co1B Co 0.25057(8) -0.61489(4) -0.01785(7)
Co1A Co -0.74943(8) -0.88511(4) -0.51785(7)
Co2C Co 0.76445(8) -0.12308(4) 0.24662(7)
O7B O 0.0968(4) -0.52690(18) 0.0421(3)
O9B O -0.1385(4) -0.43281(18) 0.1307(4)
O10B O -0.2752(4) -0.3939(2) 0.1499(4)
N1A N -0.1564(5) -0.3138(2) 0.0699(4)
N2A N -0.3604(5) -0.3279(2) -0.0636(4)
N3A N -0.4042(5) -0.4261(2) -0.0677(5)
N4C N -0.1507(5) -0.3066(2) -0.1894(4)
N5C N -0.3560(5) -0.3203(2) -0.3106(4)
N6C N -0.3934(5) -0.4190(2) -0.3114(5)
O14 O -0.7825(5) -0.3251(3) -0.4292(5)
N7 N -0.8784(7) -0.3984(3) -0.4961(6)
C48 C -0.8700(8) -0.3950(4) -0.5921(6)
H34 H -0.8312 -0.3638 -0.5935
H35 H -0.9435 -0.3946 -0.6459
H36 H -0.8297 -0.4246 -0.5992
C49 C -0.9401(10) -0.4429(5) -0.4837(9)
H37 H -0.8981 -0.4742 -0.4778
H38 H -1.0110 -0.4455 -0.5407
H39 H -0.9518 -0.4383 -0.4246
C50 C -0.8324(7) -0.3619(4) -0.4202(8)
H40 H -0.8407 -0.3662 -0.3614
O15 O -0.3600(7) -0.3849(3) -0.6988(6)
H3 H -0.314(8) -0.390(4) -0.638(3)
H4 H -0.357(9) -0.3543(17) -0.716(7)
loop_
_geom_bond_atom_site_label_1
_geom_bond_atom_site_label_2
_geom_bond_site_symmetry_1
_geom_bond_site_symmetry_2
Ho1 O1 1_555 1_555
Co1 O5 1_555 1_555
Co2 O5 1_555 1_555
O1 C22 1_555 1_555
O2 Ho1 1_555 1_555
O3 Ho1 1_555 1_555
O4 C44 1_555 1_555
O5 C45 1_555 1_555
O6 Ho1 1_555 1_555
O7 Ho1 1_555 1_555
O8 C47 1_555 1_555
O9 Ho1 1_555 1_555
O10 C47 1_555 1_555
O11 C46 1_555 1_555
O12 Co2 1_555 1_555
O13 Ho1 1_555 1_555
H1 O13 1_555 1_555
H2 O13 1_555 1_555
O14 C50 1_555 1_555
O15 H3 1_555 1_555
H4 O15 1_555 1_555
N1 C1 1_555 1_555
N2 C6 1_555 1_555
N3 C11 1_555 1_555
N4 C33 1_555 1_555
N5 C28 1_555 1_555
N6 C23 1_555 1_555
N7 C48 1_555 1_555
C1 H5 1_555 1_555
C2 C1 1_555 1_555
H6 C2 1_555 1_555
C3 C2 1_555 1_555
H7 C3 1_555 1_555
C4 C3 1_555 1_555
H8 C4 1_555 1_555
C5 N1 1_555 1_555
C6 C5 1_555 1_555
C7 C6 1_555 1_555
H9 C7 1_555 1_555
C8 C7 1_555 1_555
C9 C8 1_555 1_555
H10 C9 1_555 1_555
C10 N2 1_555 1_555
C11 C10 1_555 1_555
C12 C11 1_555 1_555
H11 C12 1_555 1_555
C13 C12 1_555 1_555
H12 C13 1_555 1_555
C14 C13 1_555 1_555
H13 C14 1_555 1_555
C15 N3 1_555 1_555
H14 C15 1_555 1_555
C16 C8 1_555 1_555
C17 C16 1_555 1_555
H15 C17 1_555 1_555
C18 C17 1_555 1_555
H16 C18 1_555 1_555
C19 C18 1_555 1_555
C20 C19 1_555 1_555
H17 C20 1_555 1_555
C21 C16 1_555 1_555
H18 C21 1_555 1_555
C22 O2 1_555 1_555
C23 H19 1_555 1_555
C24 C23 1_555 1_555
H20 C24 1_555 1_555
C25 C24 1_555 1_555
H21 C25 1_555 1_555
C26 C25 1_555 1_555
H22 C26 1_555 1_555
C27 N6 1_555 1_555
C28 C27 1_555 1_555
C29 C28 1_555 1_555
H23 C29 1_555 1_555
C30 C29 1_555 1_555
C31 C30 1_555 1_555
H24 C31 1_555 1_555
C32 N5 1_555 1_555
C33 C32 1_555 1_555
C34 C33 1_555 1_555
H25 C34 1_555 1_555
C35 C34 1_555 1_555
H26 C35 1_555 1_555
C36 C35 1_555 1_555
H27 C36 1_555 1_555
C37 N4 1_555 1_555
H28 C37 1_555 1_555
C38 C30 1_555 1_555
C39 C38 1_555 1_555
H29 C39 1_555 1_555
C40 C39 1_555 1_555
H30 C40 1_555 1_555
C41 C40 1_555 1_555
C42 C41 1_555 1_555
H31 C42 1_555 1_555
C43 C38 1_555 1_555
H32 C43 1_555 1_555
C44 O3 1_555 1_555
C45 O6 1_555 1_555
C46 O12 1_555 1_555
H33 C46 1_555 1_555
C47 O9 1_555 1_555
C48 H34 1_555 1_555
H35 C48 1_555 1_555
H36 C48 1_555 1_555
C49 N7 1_555 1_555
H37 C49 1_555 1_555
H38 C49 1_555 1_555
H39 C49 1_555 1_555
C50 N7 1_555 1_555
H40 C50 1_555 1_555
Ho1B O7 1_555 1_555
Co1B O9 1_555 1_555
Co1A N1 1_555 1_555
Co2C N4 1_555 1_555
O7B Ho1 1_555 1_555
O9B Co1 1_555 1_555
O10B Co1 1_555 1_555
N1A Co1 1_555 1_555
N2A Co1 1_555 1_555
N3A Co1 1_555 1_555
N4C Co2 1_555 1_555
N5C Co2 1_555 1_555
N6C Co2 1_555 1_555
Co2 O6 1_555 1_555
O7 C45 1_555 1_555
O10 Co1B 1_555 1_555
N2 Co1A 1_555 1_555
N3 Co1A 1_555 1_555
N5 Co2C 1_555 1_555
N6 Co2C 1_555 1_555
C4 C5 1_555 1_555
C9 C10 1_555 1_555
C14 C15 1_555 1_555
C19 C22 1_555 1_555
C20 C21 1_555 1_555
C26 C27 1_555 1_555
C31 C32 1_555 1_555
C36 C37 1_555 1_555
C41 C44 1_555 1_555
C42 C43 1_555 1_555
Ho1B O7B 1_555 1_555
Ho1B O9B 1_555 1_555

#END
