
#######################################################################
#
#                 Cambridge Crystallographic Data Centre
#                                CCDC 
#
#######################################################################
#
# If this CIF has been generated from an entry in the Cambridge 
# Structural Database, then it will include bibliographic, chemical, 
# crystal, experimental, refinement or atomic coordinate data resulting 
# from the CCDC's data processing and validation procedures.
#
#######################################################################

data_LECFUW
_symmetry_cell_setting           rhombohedral
_symmetry_space_group_name_H-M   'R -3'
_symmetry_Int_Tables_number      148
_space_group_name_Hall           '-R 3'
loop_
_symmetry_equiv_pos_site_id
_symmetry_equiv_pos_as_xyz
1 x,y,z
2 -y,x-y,z
3 -x+y,-x,z
4 2/3+x,1/3+y,1/3+z
5 2/3-y,1/3+x-y,1/3+z
6 2/3-x+y,1/3-x,1/3+z
7 1/3+x,2/3+y,2/3+z
8 1/3-y,2/3+x-y,2/3+z
9 1/3-x+y,2/3-x,2/3+z
10 -x,-y,-z
11 y,-x+y,-z
12 x-y,x,-z
13 1/3-x,2/3-y,2/3-z
14 1/3+y,2/3-x+y,2/3-z
15 1/3+x-y,2/3+x,2/3-z
16 2/3-x,1/3-y,1/3-z
17 2/3+y,1/3-x+y,1/3-z
18 2/3+x-y,1/3+x,1/3-z
_cell_length_a                   32.2173(17)
_cell_length_b                   32.2173(17)
_cell_length_c                   16.9905(8)
_cell_angle_alpha                90
_cell_angle_beta                 90
_cell_angle_gamma                120
_cell_volume                     15272.7
loop_
_atom_site_label
_atom_site_type_symbol
_atom_site_fract_x
_atom_site_fract_y
_atom_site_fract_z
C1 C 0.49954(9) 0.29753(9) 0.6001(2)
C2 C 0.53718(10) 0.34820(10) 0.6213(2)
C3 C 0.57768(10) 0.37331(10) 0.5735(2)
H1 H 0.5822 0.3581 0.5291
C4 C 0.61154(11) 0.42103(11) 0.5913(2)
C5 C 0.60517(10) 0.44353(10) 0.6567(2)
H2 H 0.6283 0.4756 0.6698
C6 C 0.56416(10) 0.41789(9) 0.7023(2)
C7 C 0.52997(10) 0.37047(10) 0.6861(2)
H3 H 0.5024 0.3537 0.7184
C8 C 0.65463(11) 0.44911(12) 0.5375(3)
C9 C 0.56902(18) 0.39917(17) 0.8812(4)
H4 H 0.5709 0.4024 0.9386
H5 H 0.5997 0.4044 0.8606
H6 H 0.5435 0.3669 0.8669
C10 C 0.55822(11) 0.43548(10) 0.8466(2)
C11 C 0.54452(9) 0.47756(10) 0.7602(2)
H7 H 0.5406 0.4901 0.7119
C12 C 0.74566(9) 0.79441(9) 1.0727(2)
C13 C 0.74364(9) 0.75642(9) 1.0179(2)
C14 C 0.78498(9) 0.76297(9) 0.9793(2)
H8 H 0.8144 0.7921 0.9861
C15 C 0.78323(8) 0.72690(9) 0.93087(19)
C16 C 0.74028(9) 0.68333(9) 0.9224(2)
H9 H 0.7388 0.6585 0.8904
C17 C 0.69969(9) 0.67743(9) 0.96197(19)
C18 C 0.70050(9) 0.71356(10) 1.0086(2)
H10 H 0.6721 0.7090 1.0336
C19 C 0.82761(8) 0.73481(9) 0.88718(18)
C20 C 0.67089(15) 0.59259(16) 1.0687(3)
H11 H 0.6520 0.5640 1.1010
H12 H 0.6804 0.6213 1.1007
H13 H 0.6996 0.5928 1.0493
C21 C 0.64156(9) 0.59227(9) 1.0009(2)
C22 C 0.61827(9) 0.62100(10) 0.9058(2)
H14 H 0.6176 0.6419 0.8669
Cu1 Cu 0.554900(10) 0.489410(10) 1.01274(2)
Cu2 Cu 0.518670(10) 0.537210(10) 0.86706(2)
Cu3 Cu 0.546340(9) 0.409510(10) 1.16639(2)
N1 N 0.53979(8) 0.49128(8) 0.83039(16)
N2 N 0.54862(9) 0.46531(8) 0.88591(17)
N3 N 0.55599(8) 0.44227(8) 0.76758(17)
N4 N 0.59862(7) 0.55887(8) 0.97898(17)
N5 N 0.58364(7) 0.57734(8) 0.91912(17)
N6 N 0.65528(7) 0.63222(8) 0.95548(16)
O1 O 0.5000 0.5001 1.0000
O2 O 0.51281(6) 0.43258(6) 1.07622(12)
O3 O 0.46126(8) 0.28002(8) 0.63976(19)
O4 O 0.50919(8) 0.27774(7) 0.54553(16)
O5 O 0.68366(7) 0.49126(7) 0.56041(16)
O6 O 0.65832(11) 0.43078(11) 0.4765(2)
O7 O 0.70654(7) 0.79009(7) 1.09538(16)
O8 O 0.78727(7) 0.82729(7) 1.09210(16)
O9 O 0.82198(6) 0.70239(7) 0.83894(14)
O10 O 0.86619(6) 0.77320(7) 0.90121(15)
C1M C 0.63086(9) 0.46466(13) 1.0666(2)
C1N C 0.53534(13) 0.16621(9) 1.0666(2)
C1B C 0.79799(13) 0.50046(9) 0.6001(2)
C1I C 0.50046(9) 0.70247(9) 1.3999(2)
C1D C 0.36914(9) 0.53534(13) 0.9334(2)
C2M C 0.68153(10) 0.47769(14) 1.0454(2)
C2N C 0.52231(14) 0.20385(10) 1.0454(2)
C2B C 0.81102(14) 0.46282(10) 0.6213(2)
C2I C 0.46282(10) 0.65180(10) 1.3787(2)
C2D C 0.31847(10) 0.52231(14) 0.9546(2)
C3M C 0.70664(10) 0.46230(14) 1.0932(2)
C3N C 0.53770(14) 0.24435(10) 1.0932(2)
C3B C 0.79563(14) 0.42232(10) 0.5735(2)
C3I C 0.42232(10) 0.62669(10) 1.4265(2)
C3D C 0.29336(10) 0.53770(14) 0.9068(2)
H1M H 0.6914 0.4426 1.1376
H1N H 0.5574 0.2489 1.1376
H1B H 0.7759 0.4178 0.5291
H1I H 0.4178 0.6419 1.4709
H1D H 0.3086 0.5574 0.8624
C4M C 0.75436(11) 0.47616(16) 1.0754(2)
C4N C 0.52384(16) 0.27821(11) 1.0754(2)
C4B C 0.80949(16) 0.38846(11) 0.5913(2)
C4I C 0.38846(11) 0.57897(11) 1.4087(2)
C4D C 0.24564(11) 0.52384(16) 0.9246(2)
C5M C 0.77686(10) 0.50503(14) 1.0100(2)
C5N C 0.49497(14) 0.27184(10) 1.0100(2)
C5B C 0.83836(14) 0.39483(10) 0.6567(2)
C5I C 0.39483(10) 0.55647(10) 1.3433(2)
C5D C 0.22314(10) 0.49497(14) 0.9900(2)
H2M H 0.8089 0.5140 0.9969
H2N H 0.4860 0.2950 0.9969
H2B H 0.8473 0.3717 0.6698
H2I H 0.3717 0.5244 1.3302
H2D H 0.1911 0.4860 1.0031
C6M C 0.75122(9) 0.52040(13) 0.9644(2)
C6N C 0.47960(13) 0.23083(10) 0.9644(2)
C6B C 0.85373(13) 0.43584(10) 0.7023(2)
C6I C 0.43584(10) 0.58211(9) 1.2977(2)
C6D C 0.24878(9) 0.47960(13) 1.0356(2)
C7M C 0.70380(10) 0.50717(14) 0.9806(2)
C7N C 0.49283(14) 0.19664(10) 0.9806(2)
C7B C 0.84050(14) 0.47003(10) 0.6861(2)
C7I C 0.47003(10) 0.62953(10) 1.3139(2)
C7D C 0.29620(10) 0.49283(14) 1.0194(2)
H3M H 0.6870 0.5180 0.9483
H3N H 0.4820 0.1691 0.9483
H3B H 0.8513 0.4976 0.7184
H3I H 0.4976 0.6463 1.2816
H3D H 0.3130 0.4820 1.0517
C8M C 0.78244(12) 0.46115(16) 1.1292(3)
C8N C 0.53885(16) 0.32130(11) 1.1292(3)
C8B C 0.79448(16) 0.34537(11) 0.5375(3)
C8I C 0.34537(11) 0.55089(12) 1.4625(3)
C8D C 0.21756(12) 0.53885(16) 0.8708(3)
C9M C 0.73250(17) 0.49682(25) 0.7855(4)
C9N C 0.50318(25) 0.23569(18) 0.7855(4)
C9B C 0.83015(25) 0.43098(18) 0.8812(4)
C9I C 0.43098(18) 0.60083(17) 1.1188(4)
C9D C 0.26750(17) 0.50318(25) 1.2145(4)
H4M H 0.7357 0.4982 0.7281
H4N H 0.5018 0.2376 0.7281
H4B H 0.8315 0.4291 0.9386
H4I H 0.4291 0.5976 1.0614
H4D H 0.2643 0.5018 1.2719
H5M H 0.7377 0.4714 0.8061
H5N H 0.5286 0.2664 0.8061
H5B H 0.8047 0.4003 0.8606
H5I H 0.4003 0.5956 1.1394
H5D H 0.2623 0.5286 1.1939
H6M H 0.7002 0.4901 0.7998
H6N H 0.5099 0.2102 0.7998
H6B H 0.8234 0.4565 0.8669
H6I H 0.4565 0.6331 1.1331
H6D H 0.2998 0.5099 1.2002
C10M C 0.76881(10) 0.54393(15) 0.8201(2)
C10N C 0.45607(15) 0.22489(11) 0.8201(2)
C10B C 0.87726(15) 0.44178(11) 0.8466(2)
C10I C 0.44178(11) 0.56452(10) 1.1534(2)
C10D C 0.23119(10) 0.45607(15) 1.1799(2)
C11M C 0.81089(10) 0.59971(13) 0.9065(2)
C11N C 0.40029(13) 0.21119(9) 0.9065(2)
C11B C 0.93304(13) 0.45548(9) 0.7602(2)
C11I C 0.45548(9) 0.52244(10) 1.2398(2)
C11D C 0.18911(10) 0.40029(13) 1.0935(2)
H7M H 0.8234 0.6162 0.9548
H7N H 0.3838 0.2073 0.9548
H7B H 0.9495 0.4594 0.7119
H7I H 0.4594 0.5099 1.2881
H7D H 0.1766 0.3838 1.0452
C12G C 0.53892(9) 0.61792(13) 0.7394(2)
C12N C 0.28458(13) 0.41233(9) 0.5940(2)
C12P C 0.46108(9) 0.38208(13) 1.2606(2)
C12E C 0.71542(13) 0.58767(9) 1.4060(2)
C12M C 1.12774(9) 0.71542(13) 0.5940(2)
C13G C 0.57691(9) 0.65389(13) 0.6846(2)
C13N C 0.32055(13) 0.41031(9) 0.6488(2)
C13P C 0.42309(9) 0.34611(13) 1.3154(2)
C13E C 0.67945(13) 0.58969(9) 1.3512(2)
C13M C 1.08975(9) 0.67945(13) 0.6488(2)
C14G C 0.57036(9) 0.68868(13) 0.6460(2)
C14N C 0.35534(13) 0.45165(9) 0.6874(2)
C14P C 0.42964(9) 0.31132(13) 1.3540(2)
C14E C 0.64466(13) 0.54835(9) 1.3126(2)
C14M C 1.09630(9) 0.64466(13) 0.6874(2)
H8G H 0.5412 0.6890 0.6528
H8N H 0.3556 0.4811 0.6806
H8P H 0.4588 0.3110 1.3472
H8E H 0.6444 0.5189 1.3194
H8M H 1.1254 0.6444 0.6806
C15G C 0.60643(9) 0.72300(12) 0.59754(19)
C15N C 0.38966(12) 0.44990(8) 0.73580(19)
C15P C 0.39357(9) 0.27700(12) 1.40246(19)
C15E C 0.61034(12) 0.55010(8) 1.26420(19)
C15M C 1.06023(9) 0.61034(12) 0.73580(19)
C16G C 0.65000(9) 0.72362(13) 0.5891(2)
C16N C 0.39028(13) 0.40695(9) 0.7443(2)
C16P C 0.35000(9) 0.27638(13) 1.4109(2)
C16E C 0.60972(13) 0.59305(9) 1.2557(2)
C16M C 1.01666(9) 0.60972(13) 0.7443(2)
H9G H 0.6748 0.7470 0.5571
H9N H 0.4136 0.4055 0.7763
H9P H 0.3252 0.2530 1.4429
H9E H 0.5864 0.5945 1.2237
H9M H 0.9918 0.5864 0.7763
C17G C 0.65590(9) 0.68893(13) 0.62864(19)
C17N C 0.35559(13) 0.36636(9) 0.70470(19)
C17P C 0.34410(9) 0.31107(13) 1.37136(19)
C17E C 0.64441(13) 0.63364(9) 1.29530(19)
C17M C 1.01076(9) 0.64441(13) 0.70470(19)
C18G C 0.61977(10) 0.65361(13) 0.6753(2)
C18N C 0.32027(13) 0.36717(9) 0.6581(2)
C18P C 0.38023(10) 0.34639(13) 1.3247(2)
C18E C 0.67973(13) 0.63283(9) 1.3419(2)
C18M C 1.04689(10) 0.67973(13) 0.6581(2)
H10G H 0.6243 0.6298 0.7003
H10N H 0.2964 0.3388 0.6331
H10P H 0.3757 0.3702 1.2997
H10E H 0.7036 0.6612 1.3669
H10M H 1.0423 0.7036 0.6331
C19G C 0.59852(9) 0.75947(12) 0.55385(18)
C19N C 0.42613(12) 0.49428(8) 0.77949(18)
C19P C 0.40148(9) 0.24053(12) 1.44615(18)
C19E C 0.57387(12) 0.50572(8) 1.22051(18)
C19M C 1.06814(9) 0.57387(12) 0.77949(18)
C20G C 0.74074(16) 0.74497(22) 0.7354(3)
C20N C 0.41163(22) 0.33756(15) 0.5980(3)
C20P C 0.25926(16) 0.25503(22) 1.2646(3)
C20E C 0.58837(22) 0.66244(15) 1.4020(3)
C20M C 0.92592(16) 0.58837(22) 0.5980(3)
H11G H 0.7693 0.7547 0.7677
H11N H 0.4213 0.3187 0.5657
H11P H 0.2307 0.2453 1.2323
H11E H 0.5787 0.6813 1.4343
H11M H 0.8973 0.5787 0.5657
H12G H 0.7120 0.7258 0.7674
H12N H 0.3924 0.3471 0.5660
H12P H 0.2880 0.2742 1.2326
H12E H 0.6076 0.6529 1.4340
H12M H 0.9546 0.6076 0.5660
H13G H 0.7405 0.7735 0.7160
H13N H 0.4401 0.3663 0.6174
H13P H 0.2595 0.2265 1.2840
H13E H 0.5599 0.6337 1.3826
H13M H 0.9261 0.5599 0.6174
C21G C 0.74106(9) 0.71596(13) 0.6676(2)
C21N C 0.38262(13) 0.30823(9) 0.6658(2)
C21P C 0.25894(9) 0.28404(13) 1.3324(2)
C21E C 0.61738(13) 0.69177(9) 1.3342(2)
C21M C 0.92560(9) 0.61738(13) 0.6658(2)
C22G C 0.71233(10) 0.66394(13) 0.5725(2)
C22N C 0.33060(13) 0.28494(9) 0.7609(2)
C22P C 0.28767(10) 0.33606(13) 1.4275(2)
C22E C 0.66940(13) 0.71506(9) 1.2391(2)
C22M C 0.95433(10) 0.66940(13) 0.7609(2)
H14G H 0.6914 0.6424 0.5336
H14N H 0.3090 0.2843 0.7998
H14P H 0.3086 0.3576 1.4664
H14E H 0.6910 0.7157 1.2002
H14M H 0.9752 0.6910 0.7998
Cu1M Cu 0.822743(10) 0.601177(14) 0.65393(2)
Cu1N Cu 0.398823(14) 0.221567(10) 0.65393(2)
Cu1I Cu 0.445100(10) 0.510590(10) 0.98726(2)
Cu1B Cu 0.934510(14) 0.445100(10) 1.01274(2)
Cu1D Cu 0.177257(10) 0.398823(14) 1.34607(2)
Cu1G Cu 0.843923(10) 0.732157(14) 0.67941(2)
Cu1A Cu 0.510590(10) 0.065490(14) 1.01274(2)
Cu1P Cu 0.156077(10) 0.267843(14) 1.32059(2)
Cu1E Cu 0.601177(14) 0.778433(10) 1.34607(2)
Cu1H Cu 0.267843(14) 0.111767(10) 0.67941(2)
Cu1Q Cu 0.732157(14) 0.888233(10) 1.32059(2)
Cu1K Cu 1.065490(14) 0.554900(10) 0.98726(2)
Cu2M Cu 0.870543(10) 0.685207(14) 0.79961(2)
Cu2I Cu 0.481330(10) 0.462790(10) 1.13294(2)
Cu2E Cu 0.685207(14) 0.814663(10) 1.20039(2)
Cu2N Cu 0.314793(14) 0.185337(10) 0.79961(2)
Cu2B Cu 1.018540(14) 0.481330(10) 0.86706(2)
Cu2G Cu 0.796123(10) 0.648127(14) 0.53373(2)
Cu2Q Cu 0.648127(14) 0.852003(10) 0.46627(2)
Cu2P Cu 0.203877(10) 0.351873(14) 0.46627(2)
Cu2P_2 Cu 0.203877(10) 0.351873(14) 1.46627(2)
Cu2H Cu 0.351873(14) 0.147997(10) 1.53373(2)
Cu2G_2 Cu 0.796123(10) 0.648127(14) 1.53373(2)
Cu2O Cu 1.147997(10) 0.796123(10) 0.46627(2)
Cu2H_2 Cu 0.351873(14) 0.147997(10) 0.53373(2)
Cu2D Cu 0.129457(10) 0.314793(14) 1.20039(2)
Cu3N Cu 0.470163(13) 0.213007(9) 0.50028(2)
Cu3M Cu 0.742843(10) 0.529837(13) 0.50028(2)
Cu3B Cu 0.863170(13) 0.453660(9) 1.16639(2)
Cu3Q Cu 0.803497(13) 0.879673(9) 1.16694(2)
Cu3G Cu 0.923823(10) 0.803497(13) 0.83306(2)
Cu3I Cu 0.453660(9) 0.590490(10) 0.83361(2)
Cu3E Cu 0.529837(13) 0.786993(9) 0.49972(2)
Cu3D Cu 0.257157(10) 0.470163(13) 0.49972(2)
Cu3A Cu 0.590490(10) 0.136830(13) 1.16639(2)
Cu3N_2 Cu 0.470163(13) 0.213007(9) 1.50028(2)
Cu3M_2 Cu 0.742843(10) 0.529837(13) 1.50028(2)
Cu3C Cu 1.213007(9) 0.742843(10) 0.49972(2)
Cu3K Cu 1.136830(13) 0.546340(9) 0.83361(2)
Cu3L Cu 0.786993(9) 0.257157(10) 0.50028(2)
Cu3E_2 Cu 0.529837(13) 0.786993(9) 1.49972(2)
Cu3D_2 Cu 0.257157(10) 0.470163(13) 1.49972(2)
Cu3K_2 Cu 0.136830(13) 0.546340(9) 0.83361(2)
N1M N 0.82461(8) 0.61816(11) 0.83628(16)
N1N N 0.38184(11) 0.20646(8) 0.83628(16)
N1B N 0.95149(11) 0.46021(8) 0.83039(16)
N1I N 0.46021(8) 0.50872(8) 1.16961(16)
N1D N 0.17539(8) 0.38184(11) 1.16372(16)
N1E N 0.61816(11) 0.79354(8) 1.16372(16)
N2M N 0.79864(8) 0.58336(12) 0.78076(17)
N2N N 0.41664(12) 0.21529(9) 0.78076(17)
N2B N 0.91669(12) 0.45138(9) 0.88591(17)
N2I N 0.45138(9) 0.53469(8) 1.11409(17)
N2D N 0.20136(8) 0.41664(12) 1.21924(17)
N3M N 0.77560(8) 0.55295(11) 0.89909(17)
N3N N 0.44705(11) 0.22266(8) 0.89909(17)
N3B N 0.88628(11) 0.44401(8) 0.76758(17)
N3I N 0.44401(8) 0.55773(8) 1.23242(17)
N3D N 0.22440(8) 0.44705(11) 1.10091(17)
N4G N 0.77446(8) 0.70642(11) 0.64565(17)
N4N N 0.37308(11) 0.26529(7) 0.68769(17)
N4P N 0.22554(8) 0.29358(11) 1.35435(17)
N4E N 0.62692(11) 0.73471(7) 1.31231(17)
N4M N 0.89220(8) 0.62692(11) 0.68769(17)
N4I N 0.40138(7) 0.44113(8) 1.02102(17)
N4B N 0.96025(11) 0.40138(7) 0.97898(17)
N4D N 0.10780(8) 0.37308(11) 1.31231(17)
N5G N 0.75599(8) 0.67297(11) 0.58579(17)
N5N N 0.33963(11) 0.25031(7) 0.74755(17)
N5P N 0.24401(8) 0.32703(11) 1.41421(17)
N5E N 0.66037(11) 0.74969(7) 1.25245(17)
N5M N 0.91067(8) 0.66037(11) 0.74755(17)
N5I N 0.41636(7) 0.42266(8) 1.08088(17)
N5B N 0.99370(11) 0.41636(7) 0.91912(17)
N6G N 0.70111(8) 0.68973(11) 0.62215(16)
N6N N 0.35639(11) 0.32195(7) 0.71119(16)
N6P N 0.29889(8) 0.31027(11) 1.37785(16)
N6E N 0.64361(11) 0.67805(7) 1.28881(16)
N6M N 0.96555(8) 0.64361(11) 0.71119(16)
O1M O 0.8334 0.6668 0.6667
O1N O 0.3332 0.1667 0.6667
O1B O 1.0001 0.5000 1.0000
O1D O 0.1666 0.3332 1.3333
O2I O 0.48719(6) 0.56742(6) 0.92378(12)
O2M O 0.76591(6) 0.58644(8) 0.59045(12)
O2N O 0.41356(8) 0.17948(6) 0.59045(12)
O2G O 0.90075(6) 0.74690(8) 0.74289(12)
O2Q O 0.74690(8) 0.84614(6) 1.25711(12)
O2B O 0.91977(8) 0.48719(6) 1.07622(12)
O2D O 0.23409(6) 0.41356(8) 1.40955(12)
O2H O 0.25310(8) 0.15386(6) 0.74289(12)
O2K O 1.08023(8) 0.51281(6) 0.92378(12)
O3M O 0.61335(8) 0.48543(11) 1.02691(19)
O3N O 0.51457(11) 0.12793(8) 1.02691(19)
O3B O 0.81876(11) 0.53874(8) 0.63976(19)
O3I O 0.53874(8) 0.71998(8) 1.36024(19)
O3D O 0.38665(8) 0.51457(11) 0.97309(19)
O3L O 0.87207(8) 0.38665(8) 1.02691(19)
O3K O 0.18124(11) 0.46126(8) 1.36024(19)
O4M O 0.61107(7) 0.43522(11) 1.12114(16)
O4N O 0.56478(11) 0.17586(8) 1.12114(16)
O4B O 0.76855(11) 0.49081(8) 0.54553(16)
O4I O 0.49081(8) 0.72226(7) 1.45447(16)
O4D O 0.38893(7) 0.56478(11) 0.87886(16)
O4L O 0.82414(8) 0.38893(7) 1.12114(16)
O4F O 0.84252(8) 0.94441(7) 1.21220(16)
O4Q O 0.89812(11) 0.84252(8) 0.78780(16)
O5M O 0.82459(7) 0.47427(10) 1.10626(16)
O5N O 0.52573(10) 0.35033(7) 1.10626(16)
O5B O 0.80760(10) 0.31634(7) 0.56041(16)
O5I O 0.31634(7) 0.50874(7) 1.43959(16)
O5D O 0.17541(7) 0.52573(10) 0.89374(16)
O5A O 0.50874(7) 0.19240(10) 0.56041(16)
O5G O 0.84207(7) 0.85907(10) 1.22708(16)
O5O O 0.98301(7) 0.84207(7) 0.77292(16)
O6M O 0.76411(11) 0.43913(16) 1.1902(2)
O6N O 0.56087(16) 0.32499(11) 1.1902(2)
O6B O 0.77246(16) 0.34168(11) 0.4765(2)
O6I O 0.34168(11) 0.56922(11) 1.5235(2)
O6D O 0.23589(11) 0.56087(16) 0.8098(2)
O7G O 0.54324(7) 0.58312(10) 0.76205(16)
O7N O 0.24978(10) 0.37321(7) 0.57129(16)
O7P O 0.45676(7) 0.41688(10) 1.23795(16)
O7E O 0.75022(10) 0.62679(7) 1.42871(16)
O7M O 1.12342(7) 0.75022(10) 0.57129(16)
O7K O 0.91645(10) 0.70654(7) 0.90462(16)
O7I O 0.29346(7) 0.20991(7) 0.90462(16)
O7F O 1.03987(7) 0.45676(7) 0.76205(16)
O8G O 0.50604(7) 0.62665(10) 0.75877(16)
O8N O 0.29331(10) 0.45394(7) 0.57457(16)
O8P O 0.49396(7) 0.37335(10) 1.24123(16)
O8E O 0.70669(10) 0.54606(7) 1.42543(16)
O8M O 1.16062(7) 0.70669(10) 0.57457(16)
O8C O 0.45394(7) 0.16062(7) 0.42543(16)
O8E_2 O 0.70669(10) 0.54606(7) 0.42543(16)
O8O O 0.87940(7) 0.50604(7) 1.24123(16)
O8K O 0.95998(10) 0.78727(7) 0.90790(16)
O9G O 0.63094(7) 0.78626(9) 0.50561(14)
O9N O 0.45292(9) 0.48865(6) 0.82773(14)
O9P O 0.36906(7) 0.21374(9) 1.49439(14)
O9E O 0.54708(9) 0.51135(6) 1.17227(14)
O9M O 1.03572(7) 0.54708(9) 0.82773(14)
O9J O 0.70239(7) 0.88041(9) 1.16106(14)
O9A O 0.29761(7) 0.11959(9) 0.83894(14)
O10G O 0.56013(7) 0.75966(9) 0.56788(15)
O10N O 0.42632(9) 0.53286(6) 0.76546(15)
O10P O 0.43987(7) 0.24034(9) 1.43212(15)
O10E O 0.57368(9) 0.46714(6) 1.23454(15)
O10M O 1.10653(7) 0.57368(9) 0.76546(15)
O10P_2 O 0.43987(7) 0.24034(9) 0.43212(15)
O10O O 0.80048(6) 0.56013(7) 0.43212(15)
O10D O 0.89347(7) 0.42632(9) 1.23454(15)
O10J O 0.77320(7) 0.90701(9) 1.09879(15)
Cu4 Cu 0.0000 0.0000 0.0000
O11 O 0.03693(16) 0.05563(17) 0.0754(3)
O11A O -0.05563(17) -0.01870(23) 0.0754(3)
O11B O 0.01870(23) -0.03693(16) 0.0754(3)
O11I O -0.03693(16) -0.05563(17) -0.0754(3)
O11J O 0.05563(17) 0.01870(23) -0.0754(3)
O11K O -0.01870(23) 0.03693(16) -0.0754(3)
N7 N 0.2481(2) 0.2273(2) 0.5693(4)
O12 O 0.23915(19) 0.2144(2) 0.4965(4)
O13 O 0.22521(19) 0.2062(2) 0.6320(4)
O14 O 0.28700(19) 0.2675(2) 0.5699(4)
O15 O 0.22200(18) 0.24962(19) 0.7716(5)
O16 O 0.0358(5) 0.1454(5) -0.0369(11)
O17? O -0.0119(4) 0.1152(4) -0.0243(8)
O18? O 0.22688(17) 0.22135(19) 0.5094(4)
O19? O 0.0545(6) 0.0787(6) 0.0576(12)
O20? O 0.2914(2) 0.2317(3) 0.5804(6)
loop_
_geom_bond_atom_site_label_1
_geom_bond_atom_site_label_2
_geom_bond_site_symmetry_1
_geom_bond_site_symmetry_2
C1 C2 1_555 1_555
C2 C3 1_555 1_555
C3 H1 1_555 1_555
C4 C3 1_555 1_555
C5 C4 1_555 1_555
H2 C5 1_555 1_555
C6 C5 1_555 1_555
C7 C2 1_555 1_555
H3 C7 1_555 1_555
C8 C4 1_555 1_555
C9 H4 1_555 1_555
H5 C9 1_555 1_555
H6 C9 1_555 1_555
C10 C9 1_555 1_555
C11 H7 1_555 1_555
C12 C13 1_555 1_555
C13 C14 1_555 1_555
C14 H8 1_555 1_555
C15 C14 1_555 1_555
C16 C15 1_555 1_555
H9 C16 1_555 1_555
C17 C16 1_555 1_555
C18 C13 1_555 1_555
H10 C18 1_555 1_555
C19 C15 1_555 1_555
C20 H11 1_555 1_555
H12 C20 1_555 1_555
H13 C20 1_555 1_555
C21 C20 1_555 1_555
C22 H14 1_555 1_555
Cu1 N2 1_555 1_555
Cu2 N1 1_555 1_555
Cu3 O2 1_555 1_555
N1 C11 1_555 1_555
N2 C10 1_555 1_555
N3 C6 1_555 1_555
N4 C21 1_555 1_555
N5 C22 1_555 1_555
N6 C17 1_555 1_555
O1 Cu1 1_555 1_555
O2 Cu1 1_555 1_555
O3 C1 1_555 1_555
O4 C1 1_555 1_555
O5 C8 1_555 1_555
O6 C8 1_555 1_555
O7 C12 1_555 1_555
O8 C12 1_555 1_555
O9 C19 1_555 1_555
O10 C19 1_555 1_555
Cu4 O11 1_555 1_555
N7 O12 1_555 1_555
O13 N7 1_555 1_555
O14 N7 1_555 1_555
C1M C2M 1_555 1_555
C1N C2N 1_555 1_555
C1B C2B 1_555 1_555
C1I C2I 1_555 1_555
C1D C2D 1_555 1_555
C2M C3M 1_555 1_555
C2N C3N 1_555 1_555
C2B C3B 1_555 1_555
C2I C3I 1_555 1_555
C2D C3D 1_555 1_555
C3M H1M 1_555 1_555
C3N H1N 1_555 1_555
C3B H1B 1_555 1_555
C3I H1I 1_555 1_555
C3D H1D 1_555 1_555
C4M C3M 1_555 1_555
C4N C3N 1_555 1_555
C4B C3B 1_555 1_555
C4I C3I 1_555 1_555
C4D C3D 1_555 1_555
C5M C4M 1_555 1_555
C5N C4N 1_555 1_555
C5B C4B 1_555 1_555
C5I C4I 1_555 1_555
C5D C4D 1_555 1_555
H2M C5M 1_555 1_555
H2N C5N 1_555 1_555
H2B C5B 1_555 1_555
H2I C5I 1_555 1_555
H2D C5D 1_555 1_555
C6M C5M 1_555 1_555
C6N C5N 1_555 1_555
C6B C5B 1_555 1_555
C6I C5I 1_555 1_555
C6D C5D 1_555 1_555
C7M C2M 1_555 1_555
C7N C2N 1_555 1_555
C7B C2B 1_555 1_555
C7I C2I 1_555 1_555
C7D C2D 1_555 1_555
H3M C7M 1_555 1_555
H3N C7N 1_555 1_555
H3B C7B 1_555 1_555
H3I C7I 1_555 1_555
H3D C7D 1_555 1_555
C8M C4M 1_555 1_555
C8N C4N 1_555 1_555
C8B C4B 1_555 1_555
C8I C4I 1_555 1_555
C8D C4D 1_555 1_555
C9M H4M 1_555 1_555
C9N H4N 1_555 1_555
C9B H4B 1_555 1_555
C9I H4I 1_555 1_555
C9D H4D 1_555 1_555
H5M C9M 1_555 1_555
H5N C9N 1_555 1_555
H5B C9B 1_555 1_555
H5I C9I 1_555 1_555
H5D C9D 1_555 1_555
H6M C9M 1_555 1_555
H6N C9N 1_555 1_555
H6B C9B 1_555 1_555
H6I C9I 1_555 1_555
H6D C9D 1_555 1_555
C10M C9M 1_555 1_555
C10N C9N 1_555 1_555
C10B C9B 1_555 1_555
C10I C9I 1_555 1_555
C10D C9D 1_555 1_555
C11M H7M 1_555 1_555
C11N H7N 1_555 1_555
C11B H7B 1_555 1_555
C11I H7I 1_555 1_555
C11D H7D 1_555 1_555
C12G C13G 1_555 1_555
C12N C13N 1_555 1_555
C12P C13P 1_555 1_555
C12E C13E 1_555 1_555
C12M C13M 1_555 1_555
C13G C14G 1_555 1_555
C13N C14N 1_555 1_555
C13P C14P 1_555 1_555
C13E C14E 1_555 1_555
C13M C14M 1_555 1_555
C14G H8G 1_555 1_555
C14N H8N 1_555 1_555
C14P H8P 1_555 1_555
C14E H8E 1_555 1_555
C14M H8M 1_555 1_555
C15G C14G 1_555 1_555
C15N C14N 1_555 1_555
C15P C14P 1_555 1_555
C15E C14E 1_555 1_555
C15M C14M 1_555 1_555
C16G C15G 1_555 1_555
C16N C15N 1_555 1_555
C16P C15P 1_555 1_555
C16E C15E 1_555 1_555
C16M C15M 1_555 1_555
H9G C16G 1_555 1_555
H9N C16N 1_555 1_555
H9P C16P 1_555 1_555
H9E C16E 1_555 1_555
H9M C16M 1_555 1_555
C17G C16G 1_555 1_555
C17N C16N 1_555 1_555
C17P C16P 1_555 1_555
C17E C16E 1_555 1_555
C17M C16M 1_555 1_555
C18G C13G 1_555 1_555
C18N C13N 1_555 1_555
C18P C13P 1_555 1_555
C18E C13E 1_555 1_555
C18M C13M 1_555 1_555
H10G C18G 1_555 1_555
H10N C18N 1_555 1_555
H10P C18P 1_555 1_555
H10E C18E 1_555 1_555
H10M C18M 1_555 1_555
C19G C15G 1_555 1_555
C19N C15N 1_555 1_555
C19P C15P 1_555 1_555
C19E C15E 1_555 1_555
C19M C15M 1_555 1_555
C20G H11G 1_555 1_555
C20N H11N 1_555 1_555
C20P H11P 1_555 1_555
C20E H11E 1_555 1_555
C20M H11M 1_555 1_555
H12G C20G 1_555 1_555
H12N C20N 1_555 1_555
H12P C20P 1_555 1_555
H12E C20E 1_555 1_555
H12M C20M 1_555 1_555
H13G C20G 1_555 1_555
H13N C20N 1_555 1_555
H13P C20P 1_555 1_555
H13E C20E 1_555 1_555
H13M C20M 1_555 1_555
C21G C20G 1_555 1_555
C21N C20N 1_555 1_555
C21P C20P 1_555 1_555
C21E C20E 1_555 1_555
C21M C20M 1_555 1_555
C22G H14G 1_555 1_555
C22N H14N 1_555 1_555
C22P H14P 1_555 1_555
C22E H14E 1_555 1_555
C22M H14M 1_555 1_555
Cu1M N2M 1_555 1_555
Cu1N O3 1_555 1_555
Cu1I O1 1_555 1_555
Cu1B N2B 1_555 1_555
Cu1D N2D 1_555 1_555
Cu1G N4G 1_555 1_555
Cu1A O3N 1_555 1_555
Cu1P N4P 1_555 1_555
Cu1E N4E 1_555 1_555
Cu1H O1N 1_555 1_555
Cu1Q O2Q 1_555 1_555
Cu1K O1B 1_555 1_555
Cu2M O9 1_555 1_555
Cu2I O2 1_555 1_555
Cu2E O7 1_555 1_555
Cu2N N1N 1_555 1_555
Cu2B N1B 1_555 1_555
Cu2G N5G 1_555 1_555
Cu2Q O9G 1_555 1_555
Cu2P O7N 1_555 1_555
Cu2P_2 N5P 1_555 1_555
Cu2H O9P 1_555 1_555
Cu2G_2 O7E 1_555 1_555
Cu2O O7M 1_555 1_555
Cu2H_2 O2N 1_555 1_555
Cu2D N1D 1_555 1_555
Cu3N O4 1_555 1_555
Cu3M O5 1_555 1_555
Cu3B O2B 1_555 1_555
Cu3Q O8 1_555 1_555
Cu3G O10 1_555 1_555
Cu3I O2I 1_555 1_555
Cu3E O10G 1_555 1_555
Cu3D O8N 1_555 1_555
Cu3A O4N 1_555 1_555
Cu3N_2 O10P 1_555 1_555
Cu3M_2 O8E 1_555 1_555
Cu3C O8M 1_555 1_555
Cu3K O2K 1_555 1_555
Cu3L O5B 1_555 1_555
Cu3E_2 O4I 1_555 1_555
Cu3D_2 O2D 1_555 1_555
Cu3K_2 O5D 1_555 1_555
N1M C11M 1_555 1_555
N1N C11N 1_555 1_555
N1B C11B 1_555 1_555
N1I C11I 1_555 1_555
N1D C11D 1_555 1_555
N1E Cu2E 1_555 1_555
N2M C10M 1_555 1_555
N2N C10N 1_555 1_555
N2B C10B 1_555 1_555
N2I C10I 1_555 1_555
N2D C10D 1_555 1_555
N3M C6M 1_555 1_555
N3N C6N 1_555 1_555
N3B C6B 1_555 1_555
N3I C6I 1_555 1_555
N3D C6D 1_555 1_555
N4G C21G 1_555 1_555
N4N C21N 1_555 1_555
N4P C21P 1_555 1_555
N4E C21E 1_555 1_555
N4M C21M 1_555 1_555
N4I Cu1I 1_555 1_555
N4B Cu1B 1_555 1_555
N4D Cu1D 1_555 1_555
N5G C22G 1_555 1_555
N5N C22N 1_555 1_555
N5P C22P 1_555 1_555
N5E C22E 1_555 1_555
N5M C22M 1_555 1_555
N5I Cu2I 1_555 1_555
N5B Cu2B 1_555 1_555
N6G C17G 1_555 1_555
N6N C17N 1_555 1_555
N6P C17P 1_555 1_555
N6E C17E 1_555 1_555
N6M C17M 1_555 1_555
O1M Cu1M 1_555 1_555
O1N Cu1N 1_555 1_555
O1B Cu1B 1_555 1_555
O1D Cu1D 1_555 1_555
O2I Cu2 1_555 1_555
O2M Cu1M 1_555 1_555
O2N Cu1N 1_555 1_555
O2G Cu1G 1_555 1_555
O2Q Cu2E 1_555 1_555
O2B Cu1B 1_555 1_555
O2D Cu1D 1_555 1_555
O2H Cu1H 1_555 1_555
O2K Cu1K 1_555 1_555
O3M Cu1 1_555 1_555
O3N C1N 1_555 1_555
O3B C1B 1_555 1_555
O3I C1I 1_555 1_555
O3D C1D 1_555 1_555
O3L Cu1B 1_555 1_555
O3K Cu1D 1_555 1_555
O4M Cu3 1_555 1_555
O4N C1N 1_555 1_555
O4B C1B 1_555 1_555
O4I C1I 1_555 1_555
O4D C1D 1_555 1_555
O4L Cu3B 1_555 1_555
O4F Cu3Q 1_555 1_555
O4Q Cu3G 1_555 1_555
O5M C8M 1_555 1_555
O5N Cu3 1_555 1_555
O5B C8B 1_555 1_555
O5I C8I 1_555 1_555
O5D C8D 1_555 1_555
O5A Cu3N 1_555 1_555
O5G Cu3Q 1_555 1_555
O5O Cu3G 1_555 1_555
O6M C8M 1_555 1_555
O6N C8N 1_555 1_555
O6B C8B 1_555 1_555
O6I C8I 1_555 1_555
O6D C8D 1_555 1_555
O7G Cu2 1_555 1_555
O7N C12N 1_555 1_555
O7P C12P 1_555 1_555
O7E C12E 1_555 1_555
O7M C12M 1_555 1_555
O7K Cu2M 1_555 1_555
O7I Cu2N 1_555 1_555
O7F Cu2B 1_555 1_555
O8G C12G 1_555 1_555
O8N C12N 1_555 1_555
O8P Cu3 1_555 1_555
O8E C12E 1_555 1_555
O8M C12M 1_555 1_555
O8C Cu3N 1_555 1_555
O8E_2 Cu3M 1_555 1_555
O8O Cu3B 1_555 1_555
O8K Cu3G 1_555 1_555
O9G C19G 1_555 1_555
O9N Cu2 1_555 1_555
O9P C19P 1_555 1_555
O9E C19E 1_555 1_555
O9M C19M 1_555 1_555
O9J Cu2E 1_555 1_555
O9A Cu2N 1_555 1_555
O10G C19G 1_555 1_555
O10N C19N 1_555 1_555
O10P C19P 1_555 1_555
O10E Cu3 1_555 1_555
O10M C19M 1_555 1_555
O10P_2 Cu3N 1_555 1_555
O10O Cu3M 1_555 1_555
O10D Cu3B 1_555 1_555
O10J Cu3Q 1_555 1_555
O11A Cu4 1_555 1_555
O11B Cu4 1_555 1_555
O11I Cu4 1_555 1_555
O11J Cu4 1_555 1_555
O11K Cu4 1_555 1_555
C6 C7 1_555 1_555
C10 N3 1_555 1_555
C11 N3 1_555 1_555
C17 C18 1_555 1_555
C21 N6 1_555 1_555
C22 N6 1_555 1_555
Cu1 N4 1_555 1_555
Cu2 N5 1_555 1_555
N1 N2 1_555 1_555
N4 N5 1_555 1_555
C1M O3M 1_555 1_555
C1M O4M 1_555 1_555
C6M C7M 1_555 1_555
C6N C7N 1_555 1_555
C6B C7B 1_555 1_555
C6I C7I 1_555 1_555
C6D C7D 1_555 1_555
C8N O5N 1_555 1_555
C10M N3M 1_555 1_555
C10N N3N 1_555 1_555
C10B N3B 1_555 1_555
C10I N3I 1_555 1_555
C10D N3D 1_555 1_555
C11M N3M 1_555 1_555
C11N N3N 1_555 1_555
C11B N3B 1_555 1_555
C11I N3I 1_555 1_555
C11D N3D 1_555 1_555
C12G O7G 1_555 1_555
C12P O8P 1_555 1_555
C17G C18G 1_555 1_555
C17N C18N 1_555 1_555
C17P C18P 1_555 1_555
C17E C18E 1_555 1_555
C17M C18M 1_555 1_555
C19N O9N 1_555 1_555
C19E O10E 1_555 1_555
C21G N6G 1_555 1_555
C21N N6N 1_555 1_555
C21P N6P 1_555 1_555
C21E N6E 1_555 1_555
C21M N6M 1_555 1_555
C22G N6G 1_555 1_555
C22N N6N 1_555 1_555
C22P N6P 1_555 1_555
C22E N6E 1_555 1_555
C22M N6M 1_555 1_555
Cu1M N4M 1_555 1_555
Cu1M O3B 1_555 1_555
Cu1N N2N 1_555 1_555
Cu1N N4N 1_555 1_555
Cu1I N2I 1_555 1_555
Cu1I O2I 1_555 1_555
Cu1I O3D 1_555 1_555
Cu1G O1M 1_555 1_555
Cu1P O1D 1_555 1_555
Cu1E O3I 1_555 1_555
Cu2M N1M 1_555 1_555
Cu2M N5M 1_555 1_555
Cu2M O2G 1_555 1_555
Cu2I N1I 1_555 1_555
Cu2I O7P 1_555 1_555
Cu2I O9E 1_555 1_555
Cu2E N5E 1_555 1_555
Cu2N N5N 1_555 1_555
Cu2N O2H 1_555 1_555
Cu2B O2K 1_555 1_555
Cu2B O9M 1_555 1_555
Cu2G O2M 1_555 1_555
Cu2P_2 O2D 1_555 1_555
Cu3N O2N 1_555 1_555
Cu3M O2M 1_555 1_555
Cu3M O4B 1_555 1_555
Cu3B O5M 1_555 1_555
Cu3Q O2Q 1_555 1_555
Cu3G O2G 1_555 1_555
Cu3I O4D 1_555 1_555
Cu3I O8G 1_555 1_555
Cu3I O10N 1_555 1_555
Cu3K O10M 1_555 1_555
Cu3D_2 O5I 1_555 1_555
N1M N2M 1_555 1_555
N1N N2N 1_555 1_555
N1B N2B 1_555 1_555
N1I N2I 1_555 1_555
N1D N2D 1_555 1_555
N4G N5G 1_555 1_555
N4N N5N 1_555 1_555
N4P N5P 1_555 1_555
N4E N5E 1_555 1_555
N4M N5M 1_555 1_555
N4I N5I 1_555 1_555
N4B N5B 1_555 1_555

#END
