
#######################################################################
#
#                 Cambridge Crystallographic Data Centre
#                                CCDC 
#
#######################################################################
#
# If this CIF has been generated from an entry in the Cambridge 
# Structural Database, then it will include bibliographic, chemical, 
# crystal, experimental, refinement or atomic coordinate data resulting 
# from the CCDC's data processing and validation procedures.
#
#######################################################################

data_LECGIL
_symmetry_cell_setting           triclinic
_symmetry_space_group_name_H-M   'P -1'
_symmetry_Int_Tables_number      2
_space_group_name_Hall           '-P 1'
loop_
_symmetry_equiv_pos_site_id
_symmetry_equiv_pos_as_xyz
1 x,y,z
2 -x,-y,-z
_cell_length_a                   15.325(6)
_cell_length_b                   16.472(6)
_cell_length_c                   17.072(6)
_cell_angle_alpha                70.144(7)
_cell_angle_beta                 64.567(7)
_cell_angle_gamma                67.516(7)
_cell_volume                     3515.7
loop_
_atom_site_label
_atom_site_type_symbol
_atom_site_fract_x
_atom_site_fract_y
_atom_site_fract_z
Cu1 Cu 1.5000 0.5000 0.0000
Cu2 Cu 1.56919(8) 0.68442(7) -0.12237(8)
Cu3 Cu 1.85872(9) 0.87955(8) -0.33330(8)
Cu4 Cu 2.0000 1.0000 -1.0000
Cu5 Cu 2.12705(8) 0.93023(7) -0.68996(7)
Cu6 Cu 2.21084(7) 0.91790(7) -0.91655(7)
Cu7 Cu 2.35586(8) 0.69296(7) -0.93371(7)
Cu8 Cu 2.0000 1.0000 -0.5000
N1 N 1.7578(5) 0.8208(5) -0.3119(5)
N2 N 1.7197(6) 0.7711(5) -0.2323(5)
N3 N 1.6527(6) 0.7471(5) -0.2361(5)
N4 N 2.0480(6) 0.8577(5) -0.5833(5)
N5 N 1.9955(5) 0.8932(5) -0.5113(5)
N6 N 1.9386(6) 0.8405(6) -0.4493(5)
N7 N 1.7923(5) 0.9162(5) -0.2156(5)
N8 N 2.1985(5) 1.0119(5) -0.7934(4)
N9 N 2.2334(5) 1.0074(5) -0.8761(5)
N10 N 2.0274(5) 0.9547(5) -0.7614(5)
N11 N 2.0618(5) 0.9618(5) -0.8483(5)
N12 N 1.9847(5) 0.9895(5) -0.8767(5)
N13 N 2.1003(5) 0.8787(5) -1.0010(4)
N14 N 2.1743(5) 0.8497(5) -0.9700(4)
N15 N 2.2217(5) 0.7645(5) -0.9751(5)
N16 N 2.2316(5) 0.8205(5) -0.7310(5)
N17 N 2.2526(6) 0.8098(5) -0.8109(5)
N18 N 2.3129(5) 0.7314(5) -0.8221(5)
N19 N 2.3562(5) 0.8850(5) -1.0001(5)
N20 N 2.4056(5) 0.8011(4) -1.0099(5)
N21 N 1.4900(5) 0.7964(5) -0.0760(5)
N22 N 1.6498(5) 0.5663(5) -0.1571(5)
N23 N 1.6202(5) 0.4950(5) -0.1013(5)
N24 N 1.6776(5) 0.4221(5) -0.1357(5)
O1 O 1.6643(5) 0.6422(5) -0.0289(5)
O2 O 1.5851(9) 0.5038(11) 0.0919(8)
O3 O 1.9586(6) 0.7419(6) -0.2647(6)
O44 O 1.9438(5) 0.9621(4) -0.3692(4)
H1 H 2.0024 0.9264 -0.3488
O45 O 1.4571(4) 0.6321(4) -0.0335(4)
H2 H 1.4158 0.6423 -0.0699
C1 C 1.6417(7) 0.7811(8) -0.3165(8)
H3 H 1.5964 0.7728 -0.3355
C2 C 1.7097(8) 0.8300(7) -0.3644(7)
H4 H 1.7205 0.8638 -0.4236
C3 C 1.9578(7) 0.7705(7) -0.4814(7)
H5 H 1.9285 0.7220 -0.4509
C4 C 2.0260(7) 0.7789(7) -0.5650(7)
H6 H 2.0531 0.7380 -0.6032
C5 C 1.7504(7) 0.8704(7) -0.1359(6)
H7 H 1.7355 0.8152 -0.1221
C6 C 2.2667(7) 1.0806(6) -0.9222(6)
H8 H 2.2971 1.0957 -0.9848
C7 C 1.9015(7) 0.9992(8) -0.8079(7)
H9 H 1.8349 1.0177 -0.8084
C8 C 1.9287(7) 0.9777(7) -0.7357(6)
H10 H 1.8838 0.9791 -0.6765
C9 C 2.1741(7) 0.7366(7) -1.0076(6)
H11 H 2.1893 0.6779 -1.0161
C10 C 2.0979(7) 0.8120(7) -1.0260(7)
H12 H 2.0525 0.8150 -1.0518
C11 C 2.2831(8) 0.7428(7) -0.6893(7)
H13 H 2.2834 0.7307 -0.6309
C12 C 2.3334(7) 0.6865(7) -0.7458(6)
H14 H 2.3751 0.6270 -0.7348
C13 C 2.4156(7) 0.9353(7) -1.0643(7)
H15 H 2.4015 0.9986 -1.0739
C14 C 1.4972(7) 0.8819(6) -0.1118(7)
H16 H 1.5507 0.9001 -0.1617
C15 C 1.7266(6) 0.5391(6) -0.2266(6)
H17 H 1.7621 0.5757 -0.2774
C16 C 1.7449(6) 0.4486(6) -0.2113(6)
H18 H 1.7978 0.4104 -0.2490
Cu1_2 Cu 2.5000 0.5000 -1.0000
Cu2A Cu 1.43081(8) 0.31558(7) 0.12237(8)
Cu2_2 Cu 2.56919(8) 0.68442(7) -1.12237(8)
Cu3A Cu 2.14128(9) 1.12045(8) -0.66670(8)
Cu5A Cu 1.87295(8) 1.06977(7) -0.31004(7)
Cu7A Cu 1.64414(8) 0.30704(7) -0.06629(7)
Cu7_2 Cu 1.35586(8) 0.69296(7) 0.06629(7)
N4A N 1.9520(6) 1.1423(5) -0.4167(5)
N5A N 2.0045(5) 1.1068(5) -0.4887(5)
N6A N 2.0614(6) 1.1595(6) -0.5507(5)
N7A N 2.2077(5) 1.0838(5) -0.7844(5)
N8A N 1.8015(5) 0.9881(5) -0.2066(4)
N9A N 1.7666(5) 0.9926(5) -0.1239(5)
N10A N 1.9726(5) 1.0453(5) -0.2386(5)
N11A N 1.9382(5) 1.0382(5) -1.1517(5)
N12A N 2.0153(5) 1.0105(5) -1.1233(5)
N13A N 1.8997(5) 1.1213(5) -0.9990(4)
N14A N 1.8257(5) 1.1503(5) -1.0300(4)
N15A N 1.7783(5) 0.2355(5) -0.0249(5)
N15_2 N 1.2217(5) 0.7645(5) 0.0249(5)
N16A N 1.7684(5) 1.1795(5) -0.2690(5)
N18A N 1.6871(5) 0.2686(5) -0.1779(5)
N18_2 N 1.3129(5) 0.7314(5) 0.1779(5)
N19_2 N 1.3562(5) 0.8850(5) -0.0001(5)
N20_2 N 1.4056(5) 0.8011(4) -0.0099(5)
N20A N 1.5944(5) 0.1989(4) 0.0099(5)
N21_2 N 2.4900(5) 0.7964(5) -1.0760(5)
N22A N 1.3502(5) 0.4337(5) 0.1571(5)
N23A N 1.3798(5) 0.5050(5) 0.1013(5)
N23A_2 N 2.3798(5) 0.5050(5) -0.8987(5)
N24A N 2.3224(5) 0.5779(5) -0.8643(5)
N24A_2 N 1.3224(5) 0.5779(5) 0.1357(5)
O2A O 1.4149(9) 0.4962(11) -0.0919(8)
O44A O 2.0562(5) 1.0379(4) -0.6308(4)
H1A H 1.9976 1.0736 -0.6512
O45A O 1.5429(4) 0.3679(4) 0.0335(4)
O45_2 O 2.4571(4) 0.6321(4) -1.0335(4)
H2A H 1.5842 0.3577 0.0699
H2_2 H 2.4158 0.6423 -1.0699
C5A C 2.2496(7) 1.1296(7) -0.8641(6)
H7A H 2.2645 1.1848 -0.8779
C6A C 1.7333(7) 0.9194(6) -0.0778(6)
H8A H 1.7029 0.9043 -0.0152
C7A C 2.0985(7) 1.0008(8) -1.1921(7)
H9A H 2.1651 0.9823 -1.1916
C10A C 1.9021(7) 1.1880(7) -0.9740(7)
H12A H 1.9475 1.1850 -0.9482
C13_2 C 1.4156(7) 0.9353(7) -0.0643(7)
H15_2 H 1.4015 0.9986 -0.0739
C14_2 C 2.4972(7) 0.8819(6) -1.1118(7)
H16_2 H 2.5507 0.9001 -1.1617
C16A C 2.2551(6) 0.5514(6) -0.7887(6)
H18A H 2.2022 0.5896 -0.7510
O46 O 1.2984(13) 0.8753(13) 0.6363(14)
O47 O 1.3558(13) 0.9058(15) 0.7658(15)
O48 O 1.4019(11) 0.6958(9) 0.6696(8)
O49 O 1.4219(9) 0.7202(10) -0.1895(7)
O50 O 1.558(2) 1.039(2) -0.481(2)
O51 O 1.500(2) 1.012(2) -0.307(2)
O52 O 1.160(3) 0.886(3) 0.567(3)
O53 O 0.8996(14) 1.1619(13) 0.3168(13)
O54 O 1.2363(14) 0.9577(13) 0.4026(13)
Mo1 Mo 1.41486(6) 1.46130(7) -0.31982(7)
Mo2 Mo 1.46676(7) 1.26776(7) -0.40716(6)
Mo3 Mo 1.26729(7) 1.20415(6) -0.38866(6)
Mo4 Mo 1.01515(6) 1.29528(6) -0.23980(6)
Mo5 Mo 1.03560(6) 1.49845(6) -0.38126(6)
Mo6 Mo 0.96711(6) 1.47690(6) -0.15650(6)
Mo7 Mo 1.17727(7) 1.54493(6) -0.17601(6)
Mo8 Mo 1.21250(6) 1.15379(6) -0.14836(6)
Mo9 Mo 1.22645(6) 1.59443(6) -0.40257(6)
Mo10 Mo 1.29870(6) 1.41202(6) -0.51238(6)
Mo11 Mo 1.14383(6) 1.32552(6) -0.04347(5)
Mo12 Mo 1.39510(6) 1.24299(6) -0.16885(6)
P1 P 1.21932(16) 1.37217(16) -0.27837(15)
O4 O 1.2845(5) 1.3313(5) -0.3610(5)
O5 O 1.2481(5) 1.4568(5) -0.2903(5)
O6 O 1.1079(5) 1.4004(5) -0.2682(5)
O7 O 1.2348(5) 1.3046(5) -0.1952(5)
O8 O 1.4094(5) 1.1867(6) -0.4104(6)
O9 O 1.1949(5) 1.0526(5) -0.0903(5)
O10 O 1.4911(5) 1.1855(6) -0.1340(5)
O11 O 1.2244(6) 1.6950(5) -0.4702(5)
O12 O 0.8549(6) 1.5231(6) -0.0877(5)
O13 O 0.9513(6) 1.5328(5) -0.2660(5)
O14 O 1.3192(6) 1.4433(6) -0.6213(5)
O15 O 1.5175(6) 1.4847(5) -0.3315(6)
O16 O 1.3194(6) 1.5258(6) -0.2238(5)
O17 O 1.2790(6) 1.1166(5) -0.4227(5)
O18 O 1.1293(5) 1.2491(6) -0.3363(4)
O19 O 1.0845(5) 1.2175(6) -0.1679(5)
O20 O 1.0310(5) 1.3864(5) -0.0744(5)
O21 O 1.2657(5) 1.1465(6) -0.2655(4)
O22 O 0.9858(5) 1.3994(5) -0.3352(5)
O23 O 1.2942(5) 1.5093(5) -0.4826(5)
O24 O 1.1084(4) 1.5785(5) -0.3892(5)
O25 O 1.2912(5) 1.2751(5) -0.0650(5)
O26 O 1.0483(5) 1.5414(5) -0.1706(5)
O27 O 1.1532(5) 1.4489(5) -0.4646(5)
O28 O 1.1794(5) 1.4389(5) -0.0925(5)
O29 O 1.3356(5) 1.1454(5) -0.1435(5)
O30 O 1.5898(6) 1.2220(6) -0.4581(5)
O31 O 1.4133(5) 1.3558(5) -0.2194(5)
O32 O 1.4626(6) 1.3785(5) -0.3878(5)
O33 O 1.2787(6) 1.2926(6) -0.4897(6)
O34 O 1.3632(5) 1.5588(6) -0.3958(5)
O35 O 1.1482(5) 1.2123(5) -0.0484(5)
O36 O 1.1047(5) 1.3198(5) 0.0642(5)
O37 O 1.1767(5) 1.6269(6) -0.2929(5)
O38 O 1.4514(6) 1.2230(5) -0.2886(5)
O39 O 0.9612(5) 1.5676(5) -0.4386(5)
O40 O 0.9314(5) 1.2474(5) -0.2283(5)
O41 O 1.1424(5) 1.6237(5) -0.1185(5)
O42 O 0.9370(6) 1.3746(5) -0.1634(5)
O43 O 1.4284(6) 1.3467(6) -0.5086(6)
loop_
_geom_bond_atom_site_label_1
_geom_bond_atom_site_label_2
_geom_bond_site_symmetry_1
_geom_bond_site_symmetry_2
Mo1 O5 1_555 1_555
Mo2 O4 1_555 1_555
Mo3 O4 1_555 1_555
Mo4 O6 1_555 1_555
Mo5 O6 1_555 1_555
Mo6 O6 1_555 1_555
Mo7 O5 1_555 1_555
Mo8 O7 1_555 1_555
Mo9 O5 1_555 1_555
Mo10 O4 1_555 1_555
Mo11 O7 1_555 1_555
Mo12 O7 1_555 1_555
P1 O4 1_555 1_555
Cu1 N23 1_555 1_555
Cu2 N3 1_555 1_555
Cu3 N1 1_555 1_555
Cu4 N12 1_555 1_555
Cu5 N4 1_555 1_555
Cu6 N9 1_555 1_555
Cu7 N15 1_555 1_555
Cu8 N5 1_555 1_555
N1 N2 1_555 1_555
N2 N3 1_555 1_555
N3 C1 1_555 1_555
N4 N5 1_555 1_555
N5 N6 1_555 1_555
N6 Cu3 1_555 1_555
N7 Cu3 1_555 1_555
N8 Cu5 1_555 1_555
N9 N8 1_555 1_555
N10 Cu5 1_555 1_555
N11 Cu6 1_555 1_555
N12 N11 1_555 1_555
N13 Cu4 1_555 1_555
N14 Cu6 1_555 1_555
N15 N14 1_555 1_555
N16 Cu5 1_555 1_555
N17 Cu6 1_555 1_555
N18 Cu7 1_555 1_555
N19 Cu6 1_555 1_555
N20 Cu7 1_555 1_555
N21 Cu2 1_555 1_555
N22 Cu2 1_555 1_555
N23 N22 1_555 1_555
N24 N23 1_555 1_555
O1 Cu2 1_555 1_555
O2 Cu1 1_555 1_555
O3 Cu3 1_555 1_555
O5 P1 1_555 1_555
O6 P1 1_555 1_555
O7 P1 1_555 1_555
O8 Mo2 1_555 1_555
O9 Mo8 1_555 1_555
O10 Mo12 1_555 1_555
O11 Mo9 1_555 1_555
O12 Mo6 1_555 1_555
O13 Mo5 1_555 1_555
O14 Mo10 1_555 1_555
O15 Mo1 1_555 1_555
O16 Mo1 1_555 1_555
O17 Mo3 1_555 1_555
O18 Mo3 1_555 1_555
O19 Mo4 1_555 1_555
O20 Mo6 1_555 1_555
O21 Mo3 1_555 1_555
O22 Mo4 1_555 1_555
O23 Mo9 1_555 1_555
O24 Mo5 1_555 1_555
O25 Mo11 1_555 1_555
O26 Mo6 1_555 1_555
O27 Mo5 1_555 1_555
O28 Mo7 1_555 1_555
O29 Mo8 1_555 1_555
O30 Mo2 1_555 1_555
O31 Mo1 1_555 1_555
O32 Mo1 1_555 1_555
O33 Mo3 1_555 1_555
O34 Mo1 1_555 1_555
O35 Mo8 1_555 1_555
O36 Mo11 1_555 1_555
O37 Mo7 1_555 1_555
O38 Mo2 1_555 1_555
O39 Mo5 1_555 1_555
O40 Mo4 1_555 1_555
O41 Mo7 1_555 1_555
O42 Mo4 1_555 1_555
O43 Mo2 1_555 1_555
O44 Cu3 1_555 1_555
H1 O44 1_555 1_555
O45 Cu1 1_555 1_555
H2 O45 1_555 1_555
C1 H3 1_555 1_555
C2 N1 1_555 1_555
H4 C2 1_555 1_555
C3 N6 1_555 1_555
H5 C3 1_555 1_555
C4 N4 1_555 1_555
H6 C4 1_555 1_555
C5 N7 1_555 1_555
H7 C5 1_555 1_555
C6 N9 1_555 1_555
H8 C6 1_555 1_555
C7 N12 1_555 1_555
H9 C7 1_555 1_555
C8 N10 1_555 1_555
H10 C8 1_555 1_555
C9 N15 1_555 1_555
H11 C9 1_555 1_555
C10 N13 1_555 1_555
H12 C10 1_555 1_555
C11 N16 1_555 1_555
H13 C11 1_555 1_555
C12 N18 1_555 1_555
H14 C12 1_555 1_555
C13 N19 1_555 1_555
H15 C13 1_555 1_555
C14 N21 1_555 1_555
H16 C14 1_555 1_555
C15 N22 1_555 1_555
H17 C15 1_555 1_555
C16 N24 1_555 1_555
H18 C16 1_555 1_555
Cu1_2 N23A_2 1_555 1_555
Cu2A N22A 1_555 1_555
Cu2_2 N21_2 1_555 1_555
Cu3A N6A 1_555 1_555
Cu5A O44 1_555 1_555
Cu7A N24 1_555 1_555
Cu7_2 O45 1_555 1_555
N4A Cu5A 1_555 1_555
N5A Cu8 1_555 1_555
N6A N5A 1_555 1_555
N7A N8 1_555 1_555
N8A N7 1_555 1_555
N9A N8A 1_555 1_555
N10A Cu5A 1_555 1_555
N11A N12A 1_555 1_555
N12A Cu4 1_555 1_555
N13A Cu4 1_555 1_555
N14A N13A 1_555 1_555
N15A Cu7A 1_555 1_555
N15_2 Cu7_2 1_555 1_555
N16A Cu5A 1_555 1_555
N18A Cu7A 1_555 1_555
N18_2 Cu7_2 1_555 1_555
N19_2 N20_2 1_555 1_555
N20_2 N21 1_555 1_555
N20A Cu7A 1_555 1_555
N21_2 N20 1_555 1_555
N22A N23A 1_555 1_555
N23A Cu1 1_555 1_555
N23A_2 N24A 1_555 1_555
N24A Cu7 1_555 1_555
N24A_2 Cu7_2 1_555 1_555
O2A Cu1 1_555 1_555
O44A Cu5 1_555 1_555
H1A O44A 1_555 1_555
O45A Cu1 1_555 1_555
O45_2 Cu7 1_555 1_555
H2A O45A 1_555 1_555
H2_2 O45_2 1_555 1_555
C5A C6 1_555 1_555
H7A C5A 1_555 1_555
C6A C5 1_555 1_555
H8A C6A 1_555 1_555
C7A N12A 1_555 1_555
H9A C7A 1_555 1_555
C10A N13A 1_555 1_555
H12A C10A 1_555 1_555
C13_2 C14 1_555 1_555
H15_2 C13_2 1_555 1_555
C14_2 C13 1_555 1_555
H16_2 C14_2 1_555 1_555
C16A N24A 1_555 1_555
H18A C16A 1_555 1_555
Mo2 O32 1_555 1_555
Mo3 O8 1_555 1_555
Mo4 O18 1_555 1_555
Mo5 O22 1_555 1_555
Mo6 O13 1_555 1_555
Mo6 O42 1_555 1_555
Mo7 O16 1_555 1_555
Mo7 O26 1_555 1_555
Mo8 O19 1_555 1_555
Mo8 O21 1_555 1_555
Mo9 O24 1_555 1_555
Mo9 O34 1_555 1_555
Mo9 O37 1_555 1_555
Mo10 O23 1_555 1_555
Mo10 O27 1_555 1_555
Mo10 O33 1_555 1_555
Mo10 O43 1_555 1_555
Mo11 O20 1_555 1_555
Mo11 O28 1_555 1_555
Mo11 O35 1_555 1_555
Mo12 O25 1_555 1_555
Mo12 O29 1_555 1_555
Mo12 O31 1_555 1_555
Mo12 O38 1_555 1_555
Cu2 O45 1_555 1_555
Cu8 O44 1_555 1_555
Cu8 O44A 1_555 1_555
N10 N11 1_555 1_555
N13 N14 1_555 1_555
N16 N17 1_555 1_555
N17 N18 1_555 1_555
N19 N20 1_555 1_555
C1 C2 1_555 1_555
C3 C4 1_555 1_555
C7 C8 1_555 1_555
C9 C10 1_555 1_555
C11 C12 1_555 1_555
C15 C16 1_555 1_555
Cu1_2 O45_2 1_555 1_555
Cu2A O45A 1_555 1_555
Cu2_2 O45_2 1_555 1_555
Cu3A N7A 1_555 1_555
Cu3A O44A 1_555 1_555
Cu5A N8A 1_555 1_555
Cu7A O45A 1_555 1_555
Cu7_2 N20_2 1_555 1_555
N4A N5A 1_555 1_555
N7A C5A 1_555 1_555
N9A C6A 1_555 1_555
N19_2 C13_2 1_555 1_555
N21_2 C14_2 1_555 1_555
N23A N24A_2 1_555 1_555

#END
