
#######################################################################
#
#                 Cambridge Crystallographic Data Centre
#                                CCDC 
#
#######################################################################
#
# If this CIF has been generated from an entry in the Cambridge 
# Structural Database, then it will include bibliographic, chemical, 
# crystal, experimental, refinement or atomic coordinate data resulting 
# from the CCDC's data processing and validation procedures.
#
#######################################################################

data_LECGOR
_symmetry_cell_setting           rhombohedral
_symmetry_space_group_name_H-M   'R -3 c'
_symmetry_Int_Tables_number      167
_space_group_name_Hall           '-R 3 2"c'
loop_
_symmetry_equiv_pos_site_id
_symmetry_equiv_pos_as_xyz
1 x,y,z
2 -y,x-y,z
3 -x+y,-x,z
4 y,x,1/2-z
5 x-y,-y,1/2-z
6 -x,-x+y,1/2-z
7 2/3+x,1/3+y,1/3+z
8 2/3-y,1/3+x-y,1/3+z
9 2/3-x+y,1/3-x,1/3+z
10 2/3+y,1/3+x,5/6-z
11 2/3+x-y,1/3-y,5/6-z
12 2/3-x,1/3-x+y,5/6-z
13 1/3+x,2/3+y,2/3+z
14 1/3-y,2/3+x-y,2/3+z
15 1/3-x+y,2/3-x,2/3+z
16 1/3+y,2/3+x,1/6-z
17 1/3+x-y,2/3-y,1/6-z
18 1/3-x,2/3-x+y,1/6-z
19 -x,-y,-z
20 y,-x+y,-z
21 x-y,x,-z
22 -y,-x,1/2+z
23 -x+y,y,1/2+z
24 x,x-y,1/2+z
25 1/3-x,2/3-y,2/3-z
26 1/3+y,2/3-x+y,2/3-z
27 1/3+x-y,2/3+x,2/3-z
28 1/3-y,2/3-x,1/6+z
29 1/3-x+y,2/3+y,1/6+z
30 1/3+x,2/3+x-y,1/6+z
31 2/3-x,1/3-y,1/3-z
32 2/3+y,1/3-x+y,1/3-z
33 2/3+x-y,1/3+x,1/3-z
34 2/3-y,1/3-x,5/6+z
35 2/3-x+y,1/3+y,5/6+z
36 2/3+x,1/3+x-y,5/6+z
_cell_length_a                   20.758(12)
_cell_length_b                   20.758(12)
_cell_length_c                   158.36(13)
_cell_angle_alpha                90
_cell_angle_beta                 90
_cell_angle_gamma                120
_cell_volume                     59094.5
loop_
_atom_site_label
_atom_site_type_symbol
_atom_site_fract_x
_atom_site_fract_y
_atom_site_fract_z
Mo5 Mo 0.65510(13) 0.23241(12) -0.054060(13)
Mo6 Mo 0.47028(11) 0.26666(13) -0.074105(15)
Mo7 Mo 0.52983(12) 0.13801(11) -0.072535(14)
Mo8 Mo 0.55644(11) 0.23554(12) -0.090802(13)
P2 P 0.6667 0.3333 -0.07293(6)
O15 O 0.7349(10) 0.3218(10) -0.04966(11)
O16 O 0.6429(11) 0.1674(10) -0.04645(12)
O17 O 0.5202(10) 0.2071(9) -0.10048(11)
O18 O 0.3823(11) 0.2484(11) -0.07286(13)
O19 O 0.4552(8) 0.1648(8) -0.07140(10)
O20 O 0.5682(9) 0.1690(9) -0.06190(9)
O21 O 0.5215(9) 0.1461(9) -0.08510(9)
O22 O 0.4817(11) 0.0456(10) -0.07158(12)
O23 O 0.4717(9) 0.2433(9) -0.08529(10)
O24 O 0.7124(9) 0.2201(9) -0.06223(9)
O25 O 0.6298(8) 0.1532(8) -0.07554(9)
O26 O 0.6667 0.3333 -0.06353(16)
O27 O 0.5886(8) 0.2690(8) -0.07618(9)
O28 O 0.6536(9) 0.2546(9) -0.09218(10)
Mo5A Mo 0.76759(12) 0.42269(18) -0.054060(13)
Mo5B Mo 0.57731(18) 0.34490(13) -0.054060(13)
Mo6A Mo 0.73334(13) 0.20362(17) -0.074105(15)
Mo8A Mo 0.76446(12) 0.32090(16) -0.090802(13)
O15B O 0.5869(14) 0.2651(10) -0.04966(11)
O24B O 0.5077(13) 0.2876(9) -0.06223(9)
O25B O 0.5234(11) 0.3702(8) -0.07554(9)
O27A O 0.7310(8) 0.3196(11) -0.07618(9)
O27B O 0.6804(11) 0.4114(8) -0.07618(9)
O28B O 0.6010(13) 0.3464(9) -0.09218(10)
O29 O 0.5722(15) 0.0680(17) -0.0316(2)
O30 O 0.5770(14) 1.0196(17) 0.02935(17)
O31 O 0.7003(14) 0.9732(15) 0.0672(2)
O32 O 1.0000 1.0000 0.0552(3)
O33 O 0.5828(15) 0.8732(13) 0.05058(15)
O34 O 0.6627(13) 1.0466(12) 0.01299(15)
O35 O 0.411(2) 1.078(2) 0.0833
O36 O 0.6667 0.926(3) 0.0833
O37 O 0.6667 1.3333 0.0295(3)
Mo9 Mo 0.93748(10) 0.88294(10) 0.018175(10)
Mo10 Mo 0.99383(13) 0.82355(12) 0.000072(13)
Mo11 Mo 0.8398 0.50645(14) 0.0833
Mo12 Mo 0.72582(11) 0.45063(11) 0.065250(14)
Cu1 Cu 0.72064(13) 0.43976(13) 0.042220(19)
Cu2 Cu 0.89306(12) 0.59467(12) 0.048840(14)
Cu3 Cu 0.96288(12) 0.73740(12) 0.034490(14)
Cu4 Cu 0.94571(12) 0.89239(12) 0.041169(14)
P3 P 1.0000 1.0000 0.0000
P4 P 0.6667 0.3334 0.0833
O38 O 1.0000 1.0000 0.03772(12)
H1 H 1.0000 1.0000 0.0315
O39 O 0.9357(8) 0.5992(8) 0.06026(8)
O40 O 1.0033(9) 0.7383(8) 0.02295(9)
O41 O 0.6667 0.3334 0.04554(19)
H2 H 0.6667 0.3334 0.0517
O42 O 1.0010(7) 0.6614(8) 0.04118(9)
H3 H 1.0445 0.6590 0.0409
O43 O 0.9575(14) 0.9175(14) 0.00352(15)
O44 O 0.8943(10) 0.7926(13) -0.00193(10)
O45 O 0.8503(10) 0.8329(11) 0.01180(12)
O46 O 1.0000 1.0000 0.0093(3)
O47 O 0.9800(9) 0.8352(9) 0.01188(10)
O48 O 0.9161(9) 0.9584(9) 0.02126(10)
O49 O 0.9918(12) 0.7418(11) 0.00011(11)
O50 O 0.9159(7) 0.8317(8) 0.02718(8)
O51 O 0.8740(13) 0.4367(13) 0.08129(14)
O52 O 0.6667 0.3334 0.0736(2)
O53 O 0.7105(14) 0.4131(14) 0.08053(15)
O54 O 0.6857(12) 0.4980(12) 0.07173(13)
O55 O 0.6269(13) 0.3771(13) 0.06205(14)
O56 O 0.8171(8) 0.4993(10) 0.07144(9)
O57 O 0.7549(8) 0.5019(7) 0.05623(8)
N1 N 0.8156(9) 0.3723(9) 0.04367(10)
N2 N 0.8140(9) 0.4367(9) 0.04376(10)
N3 N 0.8790(9) 0.4925(9) 0.04703(10)
N4 N 0.7693(8) 0.5351(8) 0.03602(9)
N5 N 0.8393(8) 0.5895(8) 0.03768(9)
N6 N 0.8656(8) 0.6434(8) 0.03207(9)
N7 N 0.8913(7) 0.6902(7) 0.05138(8)
N8 N 0.9158(8) 0.7415(8) 0.04557(9)
N9 N 0.9015(9) 0.7968(9) 0.04739(10)
N10 N 0.8492(8) 0.8920(8) 0.04004(9)
N11 N 1.0420(8) 0.8945(8) 0.03956(9)
N12 N 1.0514(8) 0.8385(8) 0.03690(9)
C1 C 0.8802(10) 0.3848(10) 0.04694(11)
C2 C 0.9084(12) 0.3368(12) 0.04887(13)
H4 H 0.8822 0.2868 0.0474
C3 C 0.9756(12) 0.3666(12) 0.05299(13)
H5 H 0.9959 0.3362 0.0540
C4 C 1.0150(13) 0.4410(13) 0.05574(15)
H6 H 1.0569 0.4571 0.0591
C5 C 0.9907(13) 0.4924(13) 0.05333(13)
H7 H 1.0188 0.5430 0.0545
C6 C 0.9236(11) 0.4624(11) 0.04920(12)
C7 C 0.7479(10) 0.5578(10) 0.02916(11)
C8 C 0.6786(13) 0.5270(12) 0.02505(14)
H8 H 0.6372 0.4844 0.0271
C9 C 0.6749(14) 0.5625(13) 0.01798(16)
H9 H 0.6308 0.5424 0.0149
C10 C 0.7369(16) 0.6289(16) 0.01523(18)
H10 H 0.7312 0.6527 0.0106
C11 C 0.8057(15) 0.6608(16) 0.01907(14)
H11 H 0.8468 0.7027 0.0168
C12 C 0.8106(11) 0.6266(11) 0.02659(11)
C13 C 0.8570(11) 0.7092(11) 0.05749(11)
C14 C 0.8214(11) 0.6720(11) 0.06515(12)
H12 H 0.8170 0.6270 0.0668
C15 C 0.7941(13) 0.7090(13) 0.06990(15)
H13 H 0.7742 0.6902 0.0752
C16 C 0.7949(13) 0.7744(12) 0.06703(14)
H14 H 0.7706 0.7936 0.0702
C17 C 0.8306(12) 0.8099(11) 0.05973(13)
H15 H 0.8331 0.8540 0.0580
C18 C 0.8631(10) 0.7769(10) 0.05493(11)
C19 C 0.7814(10) 0.8380(10) 0.03729(12)
C20 C 0.7480(12) 0.7591(12) 0.03644(13)
H16 H 0.7731 0.7343 0.0380
C21 C 0.6781(16) 0.7221(16) 0.03323(17)
H17 H 0.6563 0.6711 0.0324
C22 C 0.6375(18) 0.7564(17) 0.03116(19)
H18 H 0.5891 0.7275 0.0292
C23 C 0.6668(15) 0.8326(15) 0.03196(16)
H19 H 0.6405 0.8561 0.0304
C24 C 1.1273(12) 0.8677(12) 0.03542(13)
Mo9B Mo 0.94546(14) 1.06252(10) 0.018175(10)
Mo10S Mo 0.82355(12) 0.82972(18) -0.000072(13)
Mo12B Mo 0.72481(16) 0.27418(11) 0.065250(14)
Mo12A Mo 0.54937(11) 0.27519(16) 0.065250(14)
Cu1B Cu 0.71912(18) 0.27936(13) 0.042220(19)
Cu1A Cu 0.56024(13) 0.28088(18) 0.042220(19)
Cu4B Cu 0.94668(17) 1.05429(12) 0.041169(14)
Cu4A Cu 1.10761(12) 1.05332(17) 0.041169(14)
O43A O 1.0825(14) 1.0400(20) 0.00352(15)
O43B O 0.9600(20) 1.0425(14) 0.00352(15)
O43R O 1.0425(14) 1.0825(14) -0.00352(15)
O43S O 0.9175(14) 0.9600(20) -0.00352(15)
O43T O 1.0400(20) 0.9575(14) -0.00352(15)
O44T O 1.1017(16) 0.8943(10) 0.00193(10)
O45T O 1.0174(15) 0.8503(10) -0.01180(12)
O46R O 1.0000 1.0000 -0.0093(3)
O48A O 1.0416(9) 0.9577(13) 0.02126(10)
O51O O 0.7700(13) 0.5407(13) 0.08538(14)
O52P O 0.6666 0.3333 0.0931(2)
O53O O 0.7464(14) 0.3772(14) 0.08614(15)
O53A O 0.5869(14) 0.2974(20) 0.08053(15)
O53B O 0.7026(20) 0.2895(14) 0.08053(15)
O53P O 0.6307(20) 0.2536(14) 0.08614(15)
O53Q O 0.6228(14) 0.3693(20) 0.08614(15)
O55B O 0.7502(18) 0.3731(13) 0.06205(14)
O56O O 0.8326(10) 0.4838(8) 0.09523(9)
N1A N 0.6277(9) 0.4433(13) 0.04367(10)
N10A N 1.1080(8) 0.9572(11) 0.04004(9)
N11B N 0.8525(11) 0.9580(8) 0.03956(9)
C19A C 1.1620(10) 0.9434(14) 0.03729(12)
C23A C 1.1674(15) 0.8342(21) 0.03196(16)
C24B C 0.7404(17) 0.8727(12) 0.03542(13)
Mo1 Mo 0.46758(15) 0.2441(2) -0.00681(2)
Mo2 Mo 0.56574(12) 0.24336(12) -0.026437(14)
Mo3 Mo 0.65582(13) 0.22420(13) 0.010180(15)
Mo4 Mo 0.5648(2) 0.1331(2) -0.00777(2)
P1 P 0.6667 0.3333 -0.00765(8)
O1 O 0.5680(10) 0.1714(10) -0.01865(11)
O2 O 0.504(2) 0.043(2) -0.0091(2)
O3 O 0.5002(11) 0.1765(11) -0.00510(15)
O4 O 0.3771(14) 0.191(2) -0.00794(16)
O5 O 0.5800(12) 0.1382(11) 0.00451(14)
O6 O 0.4765(11) 0.2712(11) 0.00499(13)
O7 O 0.4797(12) 0.3437(16) -0.00915(13)
O8 O 0.6521(10) 0.1902(10) 0.01982(12)
O9 O 0.5963(8) 0.3418(9) -0.03071(10)
O10 O 0.5054(11) 0.1871(12) -0.03375(12)
O11 O 0.5918(10) 0.2636(9) 0.01130(11)
O12 O 0.5021(10) 0.2508(11) -0.01832(10)
O13 O 0.5976(8) 0.3375(9) -0.00451(11)
O14 O 0.6667 0.3333 -0.01743(16)
Mo2B Mo 0.67762(17) 0.43426(12) -0.026437(14)
Mo2A Mo 0.75664(12) 0.32238(17) -0.026437(14)
Mo3B Mo 0.56838(18) 0.34418(13) 0.010180(15)
Mo4B Mo 0.5683(3) 0.4352(2) -0.00777(2)
O6A O 0.7288(11) 0.2053(16) 0.00499(13)
O7A O 0.6563(16) 0.1360(20) -0.00915(13)
O9A O 0.6582(9) 0.2545(12) -0.03071(10)
O11A O 0.7364(9) 0.3282(13) 0.01130(11)
O13A O 0.6625(9) 0.2601(12) -0.00451(11)
O13B O 0.7399(12) 0.4024(8) -0.00451(11)
Mo13? Mo 0.5049(2) 1.1485(2) 0.08208(2)
O58? O 0.6954(18) 1.0904(19) 0.0821(2)
loop_
_geom_bond_atom_site_label_1
_geom_bond_atom_site_label_2
_geom_bond_site_symmetry_1
_geom_bond_site_symmetry_2
Mo1 O3 1_555 1_555
Mo2 O1 1_555 1_555
Mo3 O5 1_555 1_555
Mo4 O1 1_555 1_555
P1 O13 1_555 1_555
O2 Mo4 1_555 1_555
O3 Mo4 1_555 1_555
O4 Mo1 1_555 1_555
O5 Mo4 1_555 1_555
O6 Mo1 1_555 1_555
O7 Mo1 1_555 1_555
O8 Mo3 1_555 1_555
O9 Mo2 1_555 1_555
O10 Mo2 1_555 1_555
O11 Mo3 1_555 1_555
O12 Mo1 1_555 1_555
O13 Mo1 1_555 1_555
O14 Mo2 1_555 1_555
Mo5 O15 1_555 1_555
Mo6 O18 1_555 1_555
Mo7 O19 1_555 1_555
Mo8 O17 1_555 1_555
P2 O26 1_555 1_555
O15 Mo5A 1_555 1_555
O16 Mo5 1_555 1_555
O19 Mo6 1_555 1_555
O20 Mo5 1_555 1_555
O21 Mo7 1_555 1_555
O22 Mo7 1_555 1_555
O23 Mo6 1_555 1_555
O24 Mo5 1_555 1_555
O25 Mo7 1_555 1_555
O26 Mo5 1_555 1_555
O27 Mo6 1_555 1_555
O28 Mo8 1_555 1_555
Mo9 O43 1_555 1_555
Mo10 O43 1_555 1_555
Mo11 O51 1_555 1_555
Mo12 O52 1_555 1_555
Cu1 O41 1_555 1_555
Cu2 O39 1_555 1_555
Cu3 O40 1_555 1_555
Cu4 O38 1_555 1_555
P3 O43 1_555 1_555
P4 O52 1_555 1_555
O38 H1 1_555 1_555
O41 H2 1_555 1_555
O42 Cu2 1_555 1_555
H3 O42 1_555 1_555
O43 O46 1_555 1_555
O44 Mo10 1_555 1_555
O45 Mo9 1_555 1_555
O46 P3 1_555 1_555
O47 Mo9 1_555 1_555
O48 Mo9 1_555 1_555
O49 Mo10 1_555 1_555
O50 Mo9 1_555 1_555
O52 O53 1_555 1_555
O53 Mo11 1_555 1_555
O54 Mo12 1_555 1_555
O55 Mo12 1_555 1_555
O56 Mo11 1_555 1_555
O57 Mo12 1_555 1_555
N1 N2 1_555 1_555
N2 Cu1 1_555 1_555
N3 Cu2 1_555 1_555
N4 Cu1 1_555 1_555
N5 Cu2 1_555 1_555
N6 Cu3 1_555 1_555
N7 Cu2 1_555 1_555
N8 Cu3 1_555 1_555
N9 Cu4 1_555 1_555
N10 Cu4 1_555 1_555
N11 Cu4 1_555 1_555
N12 Cu3 1_555 1_555
C1 N1 1_555 1_555
C2 C1 1_555 1_555
H4 C2 1_555 1_555
C3 C2 1_555 1_555
H5 C3 1_555 1_555
C4 C3 1_555 1_555
H6 C4 1_555 1_555
C5 C4 1_555 1_555
H7 C5 1_555 1_555
C6 N3 1_555 1_555
C7 N4 1_555 1_555
C8 C7 1_555 1_555
H8 C8 1_555 1_555
C9 C8 1_555 1_555
H9 C9 1_555 1_555
C10 C9 1_555 1_555
H10 C10 1_555 1_555
C11 C10 1_555 1_555
H11 C11 1_555 1_555
C12 N6 1_555 1_555
C13 N7 1_555 1_555
C14 C13 1_555 1_555
H12 C14 1_555 1_555
C15 C14 1_555 1_555
H13 C15 1_555 1_555
C16 C15 1_555 1_555
H14 C16 1_555 1_555
C17 C16 1_555 1_555
H15 C17 1_555 1_555
C18 N9 1_555 1_555
C19 N10 1_555 1_555
C20 C19 1_555 1_555
H16 C20 1_555 1_555
C21 C20 1_555 1_555
H17 C21 1_555 1_555
C22 C21 1_555 1_555
H18 C22 1_555 1_555
C23 C22 1_555 1_555
H19 C23 1_555 1_555
C24 N12 1_555 1_555
Mo2B O9 1_555 1_555
Mo2A O14 1_555 1_555
Mo3B O6 1_555 1_555
Mo4B O7 1_555 1_555
O6A Mo3 1_555 1_555
O7A Mo4 1_555 1_555
O9A Mo2 1_555 1_555
O11A Mo3 1_555 1_555
O13A Mo3 1_555 1_555
O13B P1 1_555 1_555
Mo5A O26 1_555 1_555
Mo5B O26 1_555 1_555
Mo6A O24 1_555 1_555
Mo8A O28 1_555 1_555
O15B Mo5 1_555 1_555
O24B Mo6 1_555 1_555
O25B Mo6 1_555 1_555
O27A P2 1_555 1_555
O27B P2 1_555 1_555
O28B Mo8 1_555 1_555
Mo9B O48 1_555 1_555
Mo10S O44 1_555 1_555
Mo12B O52 1_555 1_555
Mo12A O52 1_555 1_555
Cu1B O41 1_555 1_555
Cu1A O41 1_555 1_555
Cu4B O38 1_555 1_555
Cu4A O38 1_555 1_555
O43A P3 1_555 1_555
O43B P3 1_555 1_555
O43R P3 1_555 1_555
O43S P3 1_555 1_555
O43T P3 1_555 1_555
O44T Mo10 1_555 1_555
O45T Mo10 1_555 1_555
O46R P3 1_555 1_555
O48A Mo9 1_555 1_555
O51O Mo11 1_555 1_555
O52P P4 1_555 1_555
O53O Mo11 1_555 1_555
O53A P4 1_555 1_555
O53B P4 1_555 1_555
O53P P4 1_555 1_555
O53Q P4 1_555 1_555
O55B Mo12 1_555 1_555
O56O Mo11 1_555 1_555
N1A Cu1 1_555 1_555
N10A N11 1_555 1_555
N11B N10 1_555 1_555
C19A C24 1_555 1_555
C23A C24 1_555 1_555
C24B C19 1_555 1_555
Mo2 O12 1_555 1_555
Mo4 O13A 1_555 1_555
P1 O14 1_555 1_555
P1 O13A 1_555 1_555
O11 Mo3B 1_555 1_555
O13 Mo3B 1_555 1_555
O13 Mo4B 1_555 1_555
O14 Mo2B 1_555 1_555
Mo7 O20 1_555 1_555
Mo7 O27 1_555 1_555
Mo8 O21 1_555 1_555
Mo8 O23 1_555 1_555
Mo8 O27 1_555 1_555
P2 O27 1_555 1_555
O25 Mo6A 1_555 1_555
Mo10 O47 1_555 1_555
Mo12 O56 1_555 1_555
Cu1 O57 1_555 1_555
Cu3 O42 1_555 1_555
Cu4 O50 1_555 1_555
P4 O53 1_555 1_555
P4 O53O 1_555 1_555
O43 O43S 1_555 1_555
O43 O43T 1_555 1_555
O45 Mo10S 1_555 1_555
O46 O43A 1_555 1_555
O46 O43B 1_555 1_555
O52 O53A 1_555 1_555
O52 O53B 1_555 1_555
O53 O53O 1_555 1_555
O53 O53Q 1_555 1_555
O55 Mo12A 1_555 1_555
N1 Cu1B 1_555 1_555
N2 N3 1_555 1_555
N4 N5 1_555 1_555
N5 N6 1_555 1_555
N7 N8 1_555 1_555
N8 N9 1_555 1_555
N11 N12 1_555 1_555
C1 C6 1_555 1_555
C5 C6 1_555 1_555
C7 C12 1_555 1_555
C11 C12 1_555 1_555
C13 C18 1_555 1_555
C17 C18 1_555 1_555
C23 C24B 1_555 1_555
Mo2A O9A 1_555 1_555
Mo5B O15B 1_555 1_555
Mo5B O24B 1_555 1_555
Mo6A O27A 1_555 1_555
Mo8A O27A 1_555 1_555
Mo9B O43B 1_555 1_555
Mo10S O43S 1_555 1_555
Mo12B O55B 1_555 1_555
Cu4B N11B 1_555 1_555
Cu4A N10A 1_555 1_555
O43A O43R 1_555 1_555
O43A O43T 1_555 1_555
O43B O43R 1_555 1_555
O43B O43S 1_555 1_555
O43R O46R 1_555 1_555
O43S O46R 1_555 1_555
O43T O46R 1_555 1_555
O52P O53O 1_555 1_555
O52P O53P 1_555 1_555
O52P O53Q 1_555 1_555
O53O O53B 1_555 1_555
O53A O53P 1_555 1_555
O53A O53Q 1_555 1_555
O53B O53P 1_555 1_555
N10A C19A 1_555 1_555

#END
