
#######################################################################
#
#                 Cambridge Crystallographic Data Centre
#                                CCDC 
#
#######################################################################
#
# If this CIF has been generated from an entry in the Cambridge 
# Structural Database, then it will include bibliographic, chemical, 
# crystal, experimental, refinement or atomic coordinate data resulting 
# from the CCDC's data processing and validation procedures.
#
#######################################################################

data_LECHUX
_symmetry_cell_setting           orthorhombic
_symmetry_space_group_name_H-M   'P 21 21 21'
_symmetry_Int_Tables_number      19
_space_group_name_Hall           'P 2ac 2ab'
loop_
_symmetry_equiv_pos_site_id
_symmetry_equiv_pos_as_xyz
1 x,y,z
2 1/2-x,-y,1/2+z
3 -x,1/2+y,1/2-z
4 1/2+x,1/2-y,-z
_cell_length_a                   8.2331(4)
_cell_length_b                   10.8651(7)
_cell_length_c                   28.5582(18)
_cell_angle_alpha                90
_cell_angle_beta                 90
_cell_angle_gamma                90
_cell_volume                     2554.63
loop_
_atom_site_label
_atom_site_type_symbol
_atom_site_fract_x
_atom_site_fract_y
_atom_site_fract_z
U1 U -0.64761(4) 0.33349(4) 0.072210(13)
U2 U -0.39659(4) -0.16786(4) 0.070250(12)
U3 U -0.28146(4) 0.44294(3) 0.249140(13)
O1 O -0.7346(8) 0.2020(6) 0.0994(2)
O2 O -0.5610(9) 0.4639(7) 0.0453(2)
O3 O -0.3102(8) -0.2987(6) 0.0963(2)
O4 O -0.4863(8) -0.0384(6) 0.0433(2)
O5 O -0.0911(8) 0.5171(6) 0.2457(2)
O6 O -0.4755(8) 0.3734(6) 0.2520(3)
O7 O -0.3735(8) 0.2402(6) 0.0662(2)
H1 H -0.3340 0.2134 0.0382
O8 O -0.4692(8) 0.3573(6) 0.1375(2)
O9 O -0.2267(9) 0.3713(6) 0.1713(2)
O10 O -0.2529(8) -0.0384(6) 0.1189(2)
O11 O -0.3130(9) 0.1032(7) 0.1725(2)
O12 O 0.1068(8) 0.3531(7) 0.0272(2)
O13 O -0.1219(8) 0.2766(8) -0.0007(3)
O14 O -0.6726(9) 0.7358(6) 0.0676(2)
H2 H -0.7069 0.7479 0.0365
O15 O -0.5654(9) 0.8556(6) 0.1371(2)
O16 O -0.8034(8) 0.8698(6) 0.1741(2)
O17 O -0.7968(8) 0.4606(6) 0.1225(2)
O18 O -0.7222(10) 0.5996(7) 0.1742(2)
O19 O -0.9188(9) 0.7733(7) 0.0015(3)
O20 O -1.1474(8) 0.8545(7) 0.0284(2)
O21 O -0.1696(9) 0.2298(6) 0.2459(3)
H3 H -0.2284 0.1761 0.2238
H4 H -0.0704 0.2278 0.2401
O22 O -0.3688(9) 0.5990(7) 0.3019(3)
H5 H -0.3113 0.6680 0.3062
H6 H -0.4686 0.5958 0.3156
O23 O -0.3948(9) 0.5914(7) 0.1989(2)
H7 H -0.4858 0.5925 0.1880
H8 H -0.3343 0.6572 0.1999
C1 C -0.2440(12) 0.2778(9) 0.0954(3)
C2 C -0.3194(12) 0.3407(9) 0.1388(3)
C3 C -0.1378(11) 0.1610(10) 0.1096(4)
H11 H -0.0934 0.1225 0.0817
H12 H -0.0482 0.1860 0.1295
C4 C -0.2449(11) 0.0713(9) 0.1352(3)
C5 C -0.1348(10) 0.3778(9) 0.0722(3)
H13 H -0.2024 0.4464 0.0626
H14 H -0.0578 0.4081 0.0951
C6 C -0.0433(11) 0.3309(11) 0.0304(3)
C7 C -0.8021(12) 0.7769(9) 0.0987(3)
C8 C -0.7159(12) 0.8369(10) 0.1402(3)
C9 C -0.9004(12) 0.6686(10) 0.1141(3)
H15 H -0.9537 0.6329 0.0871
H16 H -0.9842 0.6965 0.1355
C10 C -0.7980(12) 0.5687(9) 0.1385(3)
C11 C -0.9085(12) 0.8761(10) 0.0754(4)
H17 H -0.9868 0.9058 0.0981
H18 H -0.8400 0.9449 0.0666
C12 C -0.9987(11) 0.8321(11) 0.0325(4)
U1C U -0.14761(4) 0.16651(4) -0.072210(13)
U1_2 U 0.35239(4) 0.33349(4) 0.072210(13)
U2_2 U -1.39659(4) 0.83214(4) 0.070250(12)
U2C U -0.89659(4) 0.66786(4) -0.070250(12)
U2_3 U -0.39659(4) 0.83214(4) 0.070250(12)
U3B U -0.71854(4) 0.94294(3) 0.250860(13)
O12_2 O -0.8932(8) 0.3531(7) 0.0272(2)
O13C O -0.6219(8) 0.2234(8) 0.0007(3)
O14_2 O -0.6726(9) -0.2642(6) 0.0676(2)
H2_2 H -0.7069 -0.2521 0.0365
O15_2 O -0.5654(9) -0.1444(6) 0.1371(2)
O16B O -0.1966(8) 0.3698(6) 0.3259(2)
O19C O -0.4188(9) -0.2733(7) -0.0015(3)
O20_2 O -0.1474(8) -0.1455(7) 0.0284(2)
O24 O -0.2127(10) 0.7904(7) 0.1959(3)
H9 H -0.2171 0.8420 0.1702
H10 H -0.1329 0.8323 0.2164
O25 O -0.1707(12) 0.7987(7) 0.2942(3)
loop_
_geom_bond_atom_site_label_1
_geom_bond_atom_site_label_2
_geom_bond_site_symmetry_1
_geom_bond_site_symmetry_2
U1 O1 1_555 1_555
U2 O3 1_555 1_555
U3 O5 1_555 1_555
O2 U1 1_555 1_555
O4 U2 1_555 1_555
O6 U3 1_555 1_555
O7 U1 1_555 1_555
H1 O7 1_555 1_555
O8 U1 1_555 1_555
O9 U3 1_555 1_555
O10 U2 1_555 1_555
O11 C4 1_555 1_555
O12 C6 1_555 1_555
O13 C6 1_555 1_555
O14 H2 1_555 1_555
O15 C8 1_555 1_555
O16 C8 1_555 1_555
O17 U1 1_555 1_555
O18 C10 1_555 1_555
O19 C12 1_555 1_555
O20 C12 1_555 1_555
O21 U3 1_555 1_555
H3 O21 1_555 1_555
H4 O21 1_555 1_555
O22 U3 1_555 1_555
H5 O22 1_555 1_555
H6 O22 1_555 1_555
O23 U3 1_555 1_555
H7 O23 1_555 1_555
H8 O23 1_555 1_555
O24 H9 1_555 1_555
H10 O24 1_555 1_555
C1 O7 1_555 1_555
C2 O8 1_555 1_555
C3 C1 1_555 1_555
H11 C3 1_555 1_555
H12 C3 1_555 1_555
C4 O10 1_555 1_555
C5 C1 1_555 1_555
H13 C5 1_555 1_555
H14 C5 1_555 1_555
C6 C5 1_555 1_555
C7 O14 1_555 1_555
C8 C7 1_555 1_555
C9 C7 1_555 1_555
H15 C9 1_555 1_555
H16 C9 1_555 1_555
C10 O17 1_555 1_555
C11 C7 1_555 1_555
H17 C11 1_555 1_555
H18 C11 1_555 1_555
C12 C11 1_555 1_555
U1C O13 1_555 1_555
U1_2 O12 1_555 1_555
U2_2 O20 1_555 1_555
U2C O19 1_555 1_555
U2_3 O14 1_555 1_555
U3B O16 1_555 1_555
O12_2 U1 1_555 1_555
O13C U1 1_555 1_555
O14_2 U2 1_555 1_555
H2_2 O14_2 1_555 1_555
O15_2 U2 1_555 1_555
O16B U3 1_555 1_555
O19C U2 1_555 1_555
O20_2 U2 1_555 1_555
O9 C2 1_555 1_555
O15 U2_3 1_555 1_555
C1 C2 1_555 1_555
C3 C4 1_555 1_555
C9 C10 1_555 1_555

#END
