
#######################################################################
#
#                 Cambridge Crystallographic Data Centre
#                                CCDC 
#
#######################################################################
#
# If this CIF has been generated from an entry in the Cambridge 
# Structural Database, then it will include bibliographic, chemical, 
# crystal, experimental, refinement or atomic coordinate data resulting 
# from the CCDC's data processing and validation procedures.
#
#######################################################################

data_LECLUC
_symmetry_cell_setting           triclinic
_symmetry_space_group_name_H-M   'P -1'
_symmetry_Int_Tables_number      2
_space_group_name_Hall           '-P 1'
loop_
_symmetry_equiv_pos_site_id
_symmetry_equiv_pos_as_xyz
1 x,y,z
2 -x,-y,-z
_cell_length_a                   5.7704(2)
_cell_length_b                   15.4651(8)
_cell_length_c                   16.8331(6)
_cell_angle_alpha                89.439(3)
_cell_angle_beta                 88.309(3)
_cell_angle_gamma                83.633(2)
_cell_volume                     1492.23
loop_
_atom_site_label
_atom_site_type_symbol
_atom_site_fract_x
_atom_site_fract_y
_atom_site_fract_z
Ca2 Ca 0.5000 0.5000 0.0000
S2 S 0.59544(15) 0.64396(6) 0.15905(5)
P2 P 1.01785(13) 0.37031(5) 0.07338(4)
O4 O 0.7735(3) 0.38651(14) 0.04447(12)
O5 O 1.2046(3) 0.41982(14) 0.03745(12)
O6 O 0.5128(4) 0.56347(17) 0.12635(12)
C15 C 1.0151(5) 0.3842(2) 0.18046(18)
C16 C 0.8303(6) 0.3581(2) 0.22787(19)
H17 H 0.6997 0.3380 0.2037
C17 C 0.8388(6) 0.3617(3) 0.3097(2)
H18 H 0.7149 0.3430 0.3416
C18 C 1.0264(7) 0.3921(3) 0.3454(2)
H19 H 1.0316 0.3940 0.4017
C19 C 1.2057(6) 0.4198(2) 0.2995(2)
H20 H 1.3332 0.4417 0.3240
C20 C 1.1998(6) 0.4156(2) 0.21715(19)
H21 H 1.3242 0.4346 0.1857
C21 C 1.1159(5) 0.2551(2) 0.06431(16)
C22 C 1.3446(5) 0.2262(2) 0.03838(18)
H22 H 1.4478 0.2671 0.0219
C23 C 1.4201(6) 0.1376(2) 0.0369(2)
H23 H 1.5739 0.1185 0.0181
C24 C 1.2748(6) 0.0771(2) 0.0624(2)
H24 H 1.3297 0.0169 0.0621
C25 C 1.0480(6) 0.1046(2) 0.0883(2)
H25 H 0.9473 0.0634 0.1061
C26 C 0.9699(6) 0.1927(2) 0.08813(19)
H26 H 0.8134 0.2111 0.1046
C27 C 0.9044(6) 0.6279(3) 0.1585(2)
H27 H 0.9646 0.6190 0.1038
H28 H 0.9553 0.5765 0.1907
H29 H 0.9641 0.6791 0.1807
C28 C 0.5454(8) 0.6352(4) 0.2631(2)
H30 H 0.3772 0.6387 0.2748
H31 H 0.6102 0.6827 0.2898
H32 H 0.6210 0.5793 0.2822
Ca2_2 Ca 1.5000 0.5000 0.0000
S2A S 0.40456(15) 0.35604(6) -0.15905(5)
P2A P 0.98215(13) 0.62969(5) -0.07338(4)
O4A O 1.2265(3) 0.61349(14) -0.04447(12)
O4A_2 O 0.2265(3) 0.61349(14) -0.04447(12)
O5A O 0.7954(3) 0.58018(14) -0.03745(12)
O5_2 O 0.2046(3) 0.41982(14) 0.03745(12)
O6A O 0.4872(4) 0.43653(17) -0.12635(12)
C15A C 0.9849(5) 0.6158(2) -0.18046(18)
C16A C 1.1697(6) 0.6419(2) -0.22787(19)
H17A H 1.3003 0.6620 -0.2037
C17A C 1.1612(6) 0.6383(3) -0.3097(2)
H18A H 1.2851 0.6570 -0.3416
C18A C 0.9736(7) 0.6079(3) -0.3454(2)
H19A H 0.9684 0.6060 -0.4017
C19A C 0.7943(6) 0.5802(2) -0.2995(2)
H20A H 0.6668 0.5583 -0.3240
C20A C 0.8002(6) 0.5844(2) -0.21715(19)
H21A H 0.6758 0.5654 -0.1857
C21A C 0.8841(5) 0.7449(2) -0.06431(16)
C22A C 0.6554(5) 0.7738(2) -0.03838(18)
H22A H 0.5522 0.7329 -0.0219
C23A C 0.5799(6) 0.8624(2) -0.0369(2)
H23A H 0.4261 0.8815 -0.0181
C24A C 0.7252(6) 0.9229(2) -0.0624(2)
H24A H 0.6703 0.9831 -0.0621
C25A C 0.9520(6) 0.8954(2) -0.0883(2)
H25A H 1.0527 0.9366 -0.1061
C26A C 1.0301(6) 0.8073(2) -0.08813(19)
H26A H 1.1866 0.7889 -0.1046
C27A C 0.0956(6) 0.3721(3) -0.1585(2)
H27A H 0.0354 0.3810 -0.1038
H28A H 0.0447 0.4235 -0.1907
H29A H 0.0359 0.3209 -0.1807
C28A C 0.4546(8) 0.3648(4) -0.2631(2)
H30A H 0.6228 0.3613 -0.2748
H31A H 0.3898 0.3173 -0.2898
H32A H 0.3790 0.4207 -0.2822
Ca1 Ca 0.5000 0.0000 0.5000
S1 S 0.6682(3) -0.16473(10) 0.63937(9)
P1 P -0.03996(13) 0.12130(5) 0.58622(5)
O1 O 0.1945(4) 0.09675(16) 0.54756(13)
O2 O -0.2392(4) 0.07183(15) 0.56747(14)
O3 O 0.4919(4) -0.09159(16) 0.61279(13)
C1 C -0.0024(5) 0.1194(2) 0.69306(18)
C2 C 0.2101(6) 0.0917(3) 0.7259(2)
H1 H 0.3391 0.0713 0.6921
C3 C 0.2375(7) 0.0932(3) 0.8075(2)
H2 H 0.3844 0.0735 0.8291
C4 C 0.0534(7) 0.1231(3) 0.8571(2)
H3 H 0.0731 0.1248 0.9129
C5 C -0.1588(7) 0.1503(3) 0.8256(2)
H4 H -0.2870 0.1707 0.8598
C6 C -0.1871(6) 0.1483(3) 0.7447(2)
H5 H -0.3356 0.1670 0.7237
C7 C -0.1291(5) 0.2355(2) 0.56562(17)
C8 C -0.3442(5) 0.2626(2) 0.53188(19)
H6 H -0.4446 0.2209 0.5177
C9 C -0.4105(6) 0.3507(2) 0.5193(2)
H7 H -0.5562 0.3689 0.4962
C10 C -0.2668(6) 0.4121(2) 0.5399(2)
H8 H -0.3144 0.4722 0.5314
C11 C -0.0543(6) 0.3861(2) 0.5728(2)
H9 H 0.0449 0.4281 0.5873
C12 C 0.0138(6) 0.2981(2) 0.58460(19)
H10 H 0.1619 0.2804 0.6062
C13 C 0.9334(6) -0.1238(3) 0.6529(2)
H11 H 1.0134 -0.1544 0.6973
H12 H 0.9052 -0.0615 0.6646
H13 H 1.0309 -0.1325 0.6043
C14 C 0.5899(7) -0.1810(3) 0.7420(2)
H14 H 0.7249 -0.1754 0.7748
H15 H 0.5404 -0.2392 0.7492
H16 H 0.4616 -0.1372 0.7581
Ca1_2 Ca -0.5000 0.0000 0.5000
Ca1_3 Ca 1.5000 0.0000 0.5000
S1A S 0.3318(3) 0.16473(10) 0.36063(9)
P1_2 P 0.96004(13) 0.12130(5) 0.58622(5)
O1_2 O 1.1945(4) 0.09675(16) 0.54756(13)
O1A O 0.8055(4) -0.09675(16) 0.45244(13)
O2_2 O 0.7608(4) 0.07183(15) 0.56747(14)
O2A O 0.2392(4) -0.07183(15) 0.43253(14)
O3A O 0.5081(4) 0.09159(16) 0.38721(13)
C1_2 C 0.9976(5) 0.1194(2) 0.69306(18)
C2_2 C 1.2101(6) 0.0917(3) 0.7259(2)
H1_2 H 1.3391 0.0713 0.6921
C3_2 C 1.2375(7) 0.0932(3) 0.8075(2)
H2_2 H 1.3844 0.0735 0.8291
C4_2 C 1.0534(7) 0.1231(3) 0.8571(2)
H3_2 H 1.0731 0.1248 0.9129
C5_2 C 0.8412(7) 0.1503(3) 0.8256(2)
H4_2 H 0.7130 0.1707 0.8598
C6_2 C 0.8129(6) 0.1483(3) 0.7447(2)
H5_2 H 0.6644 0.1670 0.7237
C7_2 C 0.8709(5) 0.2355(2) 0.56562(17)
C8_2 C 0.6558(5) 0.2626(2) 0.53188(19)
H6_2 H 0.5554 0.2209 0.5177
C9_2 C 0.5895(6) 0.3507(2) 0.5193(2)
H7_2 H 0.4438 0.3689 0.4962
C10_2 C 0.7332(6) 0.4121(2) 0.5399(2)
H8_2 H 0.6856 0.4722 0.5314
C11_2 C 0.9457(6) 0.3861(2) 0.5728(2)
H9_2 H 1.0449 0.4281 0.5873
C12_2 C 1.0138(6) 0.2981(2) 0.58460(19)
H10_2 H 1.1619 0.2804 0.6062
C13A C 0.0666(6) 0.1238(3) 0.3471(2)
H11A H -0.0134 0.1544 0.3027
H12A H 0.0948 0.0615 0.3354
H13A H -0.0309 0.1325 0.3957
C14A C 0.4101(7) 0.1810(3) 0.2580(2)
H14A H 0.2751 0.1754 0.2252
H15A H 0.4596 0.2392 0.2508
H16A H 0.5384 0.1372 0.2419
H33? H 1.0183 -0.1528 0.6971
H34? H 1.0119 -0.0739 0.6347
H35? H 0.9299 -0.1648 0.6090
H36? H 0.6701 -0.1810 0.7925
H37? H 0.6458 -0.2340 0.7126
H38? H 0.4215 -0.1792 0.7525
S3? S 0.6486(3) -0.08803(13) 0.68462(11)
loop_
_geom_bond_atom_site_label_1
_geom_bond_atom_site_label_2
_geom_bond_site_symmetry_1
_geom_bond_site_symmetry_2
Ca1 O1 1_555 1_555
S1 O3 1_555 1_555
P1 O1 1_555 1_555
O2 P1 1_555 1_555
O3 Ca1 1_555 1_555
C1 P1 1_555 1_555
C2 C1 1_555 1_555
H1 C2 1_555 1_555
C3 C2 1_555 1_555
H2 C3 1_555 1_555
C4 C3 1_555 1_555
H3 C4 1_555 1_555
C5 C4 1_555 1_555
H4 C5 1_555 1_555
C6 C1 1_555 1_555
H5 C6 1_555 1_555
C7 P1 1_555 1_555
C8 C7 1_555 1_555
H6 C8 1_555 1_555
C9 C8 1_555 1_555
H7 C9 1_555 1_555
C10 C9 1_555 1_555
H8 C10 1_555 1_555
C11 C10 1_555 1_555
H9 C11 1_555 1_555
C12 C7 1_555 1_555
H10 C12 1_555 1_555
C13 S1 1_555 1_555
H11 C13 1_555 1_555
H12 C13 1_555 1_555
H13 C13 1_555 1_555
C14 S1 1_555 1_555
H14 C14 1_555 1_555
H15 C14 1_555 1_555
H16 C14 1_555 1_555
Ca2 O4 1_555 1_555
S2 O6 1_555 1_555
P2 O4 1_555 1_555
O5 P2 1_555 1_555
O6 Ca2 1_555 1_555
C15 P2 1_555 1_555
C16 C15 1_555 1_555
H17 C16 1_555 1_555
C17 C16 1_555 1_555
H18 C17 1_555 1_555
C18 C17 1_555 1_555
H19 C18 1_555 1_555
C19 C18 1_555 1_555
H20 C19 1_555 1_555
C20 C15 1_555 1_555
H21 C20 1_555 1_555
C21 P2 1_555 1_555
C22 C21 1_555 1_555
H22 C22 1_555 1_555
C23 C22 1_555 1_555
H23 C23 1_555 1_555
C24 C23 1_555 1_555
H24 C24 1_555 1_555
C25 C24 1_555 1_555
H25 C25 1_555 1_555
C26 C21 1_555 1_555
H26 C26 1_555 1_555
C27 S2 1_555 1_555
H27 C27 1_555 1_555
H28 C27 1_555 1_555
H29 C27 1_555 1_555
C28 S2 1_555 1_555
H30 C28 1_555 1_555
H31 C28 1_555 1_555
H32 C28 1_555 1_555
Ca1_2 O2 1_555 1_555
Ca1_3 O1_2 1_555 1_555
S1A O3A 1_555 1_555
P1_2 O1_2 1_555 1_555
O1A Ca1 1_555 1_555
O2_2 Ca1 1_555 1_555
O2A Ca1 1_555 1_555
O3A Ca1 1_555 1_555
C1_2 P1_2 1_555 1_555
C2_2 C1_2 1_555 1_555
H1_2 C2_2 1_555 1_555
C3_2 C2_2 1_555 1_555
H2_2 C3_2 1_555 1_555
C4_2 C3_2 1_555 1_555
H3_2 C4_2 1_555 1_555
C5_2 C4_2 1_555 1_555
H4_2 C5_2 1_555 1_555
C6_2 C1_2 1_555 1_555
H5_2 C6_2 1_555 1_555
C7_2 P1_2 1_555 1_555
C8_2 C7_2 1_555 1_555
H6_2 C8_2 1_555 1_555
C9_2 C8_2 1_555 1_555
H7_2 C9_2 1_555 1_555
C10_2 C9_2 1_555 1_555
H8_2 C10_2 1_555 1_555
C11_2 C10_2 1_555 1_555
H9_2 C11_2 1_555 1_555
C12_2 C7_2 1_555 1_555
H10_2 C12_2 1_555 1_555
C13A S1A 1_555 1_555
H11A C13A 1_555 1_555
H12A C13A 1_555 1_555
H13A C13A 1_555 1_555
C14A S1A 1_555 1_555
H14A C14A 1_555 1_555
H15A C14A 1_555 1_555
H16A C14A 1_555 1_555
Ca2_2 O5 1_555 1_555
S2A O6A 1_555 1_555
P2A O4A 1_555 1_555
O4A Ca2_2 1_555 1_555
O4A_2 Ca2 1_555 1_555
O5A Ca2 1_555 1_555
O5_2 Ca2 1_555 1_555
O6A Ca2 1_555 1_555
C15A P2A 1_555 1_555
C16A C15A 1_555 1_555
H17A C16A 1_555 1_555
C17A C16A 1_555 1_555
H18A C17A 1_555 1_555
C18A C17A 1_555 1_555
H19A C18A 1_555 1_555
C19A C18A 1_555 1_555
H20A C19A 1_555 1_555
C20A C15A 1_555 1_555
H21A C20A 1_555 1_555
C21A P2A 1_555 1_555
C22A C21A 1_555 1_555
H22A C22A 1_555 1_555
C23A C22A 1_555 1_555
H23A C23A 1_555 1_555
C24A C23A 1_555 1_555
H24A C24A 1_555 1_555
C25A C24A 1_555 1_555
H25A C25A 1_555 1_555
C26A C21A 1_555 1_555
H26A C26A 1_555 1_555
C27A S2A 1_555 1_555
H27A C27A 1_555 1_555
H28A C27A 1_555 1_555
H29A C27A 1_555 1_555
C28A S2A 1_555 1_555
H30A C28A 1_555 1_555
H31A C28A 1_555 1_555
H32A C28A 1_555 1_555
C5 C6 1_555 1_555
C11 C12 1_555 1_555
C19 C20 1_555 1_555
C25 C26 1_555 1_555
P1_2 O2_2 1_555 1_555
C5_2 C6_2 1_555 1_555
C11_2 C12_2 1_555 1_555
P2A O5A 1_555 1_555
C19A C20A 1_555 1_555
C25A C26A 1_555 1_555

#END
