
#######################################################################
#
#                 Cambridge Crystallographic Data Centre
#                                CCDC 
#
#######################################################################
#
# If this CIF has been generated from an entry in the Cambridge 
# Structural Database, then it will include bibliographic, chemical, 
# crystal, experimental, refinement or atomic coordinate data resulting 
# from the CCDC's data processing and validation procedures.
#
#######################################################################

data_LECRIV
_symmetry_cell_setting           monoclinic
_symmetry_space_group_name_H-M   'C 2/c'
_symmetry_Int_Tables_number      15
_space_group_name_Hall           '-C 2yn'
loop_
_symmetry_equiv_pos_site_id
_symmetry_equiv_pos_as_xyz
1 x,y,z
2 1/2+x,1/2+y,z
3 -x,y,1/2-z
4 1/2-x,1/2+y,1/2-z
5 -x,-y,-z
6 1/2-x,1/2-y,-z
7 x,-y,1/2+z
8 1/2+x,1/2-y,1/2+z
_cell_length_a                   34.927(7)
_cell_length_b                   10.663(2)
_cell_length_c                   13.479(3)
_cell_angle_alpha                90
_cell_angle_beta                 98.82(3)
_cell_angle_gamma                90
_cell_volume                     4960.58
loop_
_atom_site_label
_atom_site_type_symbol
_atom_site_fract_x
_atom_site_fract_y
_atom_site_fract_z
Pt1 Pt 0.391390(5) 0.764640(15) 0.536460(13)
Ag1 Ag 0.25000 0.25000 0.50000
N1 N 0.34951(11) 0.6317(3) 0.5116(3)
N2 N 0.34918(10) -0.1028(3) 0.5186(3)
N3 N 0.29342(11) 0.0850(3) 0.5017(3)
N4 N 0.29556(12) 0.4380(4) 0.4854(3)
N5 N 0.43500(12) 0.6328(4) 0.5558(3)
N6 N 0.43568(12) 0.8944(4) 0.5698(3)
C1 C 0.34047(13) 0.5756(4) 0.4232(4)
H1 H 0.3522 0.6026 0.3679
C2 C 0.31375(14) 0.4771(5) 0.4111(4)
H2 H 0.3084 0.4366 0.3477
C3 C 0.30379(16) 0.5001(4) 0.5723(4)
H3 H 0.2906 0.4775 0.6262
C4 C 0.33073(15) 0.5957(4) 0.5866(4)
H4 H 0.336 0.6363 0.6499
C5 C 0.32850(14) -0.0807(4) 0.5933(4)
H5 H 0.3332 -0.1288 0.6533
C6 C 0.30052(15) 0.0118(4) 0.5828(4)
H6 H 0.2857 0.0238 0.6355
C7 C 0.31366(13) 0.0594(4) 0.4279(4)
H7 H 0.3091 0.1082 0.3683
C8 C 0.34088(13) -0.0348(4) 0.4345(4)
H8 H 0.3539 -0.0517 0.3789
C9 C 0.46868(17) 0.6931(6) 0.6151(5)
H9 H 0.4652 0.696 0.6866
H10 H 0.4923 0.6438 0.61
C10 C 0.47306(15) 0.8205(6) 0.5782(5)
H11 H 0.4815 0.8163 0.5114
H12 H 0.4935 0.8645 0.6243
C11 C 0.44391(16) 0.5891(6) 0.4564(5)
H13 H 0.4647 0.5266 0.4669
H14 H 0.4522 0.6606 0.4192
H15 H 0.4207 0.5515 0.4178
C12 C 0.42577(19) 0.5167(6) 0.6112(5)
H16 H 0.4478 0.459 0.6174
H17 H 0.4028 0.4758 0.5741
H18 H 0.4206 0.54 0.6783
C13 C 0.43658(17) 0.9921(5) 0.4925(5)
H19 H 0.4582 1.0494 0.5136
H20 H 0.4122 1.0391 0.4838
H21 H 0.4399 0.9525 0.4287
C14 C 0.43320(19) 0.9531(6) 0.6681(5)
H22 H 0.4541 1.0144 0.6839
H23 H 0.4357 0.8883 0.7202
H24 H 0.4081 0.9954 0.6651
Pt1E Pt 0.108610(5) -0.264640(15) 0.463540(13)
Pt1_2 Pt 0.391390(5) -0.235360(15) 0.536460(13)
Pt1E_2 Pt 0.108610(5) 0.735360(15) 0.463540(13)
N1E N 0.15049(11) -0.1317(3) 0.4884(3)
N2E N 0.15082(10) 0.6028(3) 0.4814(3)
N2_2 N 0.34918(10) 0.8972(3) 0.5186(3)
N2E_2 N 0.15082(10) -0.3972(3) 0.4814(3)
N3E N 0.20658(11) 0.4150(3) 0.4983(3)
N4E N 0.20444(12) 0.0620(4) 0.5146(3)
N5E N 0.06500(12) -0.1328(4) 0.4442(3)
N6E N 0.06432(12) -0.3944(4) 0.4302(3)
C1E C 0.15953(13) -0.0756(4) 0.5768(4)
H1E H 0.1478 -0.1026 0.6321
C2E C 0.18625(14) 0.0229(5) 0.5889(4)
H2E H 0.1916 0.0634 0.6523
C3E C 0.19621(16) -0.0001(4) 0.4277(4)
H3E H 0.2094 0.0225 0.3738
C4E C 0.16927(15) -0.0957(4) 0.4134(4)
H4E H 0.164 -0.1363 0.3501
C5E C 0.17150(14) 0.5807(4) 0.4067(4)
H5E H 0.1668 0.6288 0.3467
C6E C 0.19948(15) 0.4882(4) 0.4172(4)
H6E H 0.2143 0.4762 0.3645
C7E C 0.18634(13) 0.4406(4) 0.5721(4)
H7E H 0.1909 0.3918 0.6317
C8E C 0.15912(13) 0.5348(4) 0.5655(4)
H8E H 0.1461 0.5517 0.6211
C9E C 0.03132(17) -0.1931(6) 0.3849(5)
H9E H 0.0348 -0.196 0.3134
H10E H 0.0077 -0.1438 0.39
C10E C 0.02694(15) -0.3205(6) 0.4218(5)
H11E H 0.0185 -0.3163 0.4886
H12E H 0.0065 -0.3645 0.3757
C11E C 0.05609(16) -0.0891(6) 0.5436(5)
H13E H 0.0353 -0.0266 0.5331
H14E H 0.0478 -0.1606 0.5808
H15E H 0.0793 -0.0515 0.5822
C12E C 0.07423(19) -0.0167(6) 0.3888(5)
H16E H 0.0522 0.041 0.3826
H17E H 0.0972 0.0242 0.4259
H18E H 0.0794 -0.04 0.3217
C13E C 0.06342(17) -0.4921(5) 0.5075(5)
H19E H 0.0418 -0.5494 0.4864
H20E H 0.0878 -0.5391 0.5162
H21E H 0.0601 -0.4525 0.5713
C14E C 0.06680(19) -0.4531(6) 0.3319(5)
H22E H 0.0459 -0.5144 0.3161
H23E H 0.0643 -0.3883 0.2798
H24E H 0.0919 -0.4954 0.3349
Cl1 Cl 0.25728(3) -0.21717(10) 0.28471(8)
O1 O 0.21788(10) -0.2584(3) 0.2615(3)
O6 O 0.25795(10) -0.0830(3) 0.2746(3)
O7 O 0.27979(11) -0.2723(3) 0.2138(3)
O8 O 0.27288(11) -0.2516(4) 0.3847(3)
Cl2 Cl 0.39536(3) 0.27301(11) 0.36055(9)
O2 O 0.43669(10) 0.2615(4) 0.3694(3)
O3 O 0.37738(11) 0.1681(3) 0.3050(3)
O4 O 0.38329(12) 0.3867(3) 0.3077(3)
O5 O 0.38409(11) 0.2760(4) 0.4586(3)
O12 O 0.3672(2) -0.2177(7) 0.2533(6)
Cl3? Cl 0.48897(7) 0.2464(2) 0.7431(2)
O9? O 0.49239(15) 0.1761(5) 0.8290(4)
O10? O 0.50000 0.3711(6) 0.75000
O11? O 0.4486(2) 0.2507(8) 0.7078(9)
loop_
_geom_bond_atom_site_label_1
_geom_bond_atom_site_label_2
_geom_bond_site_symmetry_1
_geom_bond_site_symmetry_2
Pt1 N1 1_555 1_555
Ag1 N3 1_555 1_555
Cl1 O1 1_555 1_555
Cl2 O2 1_555 1_555
N1 C1 1_555 1_555
N2 C5 1_555 1_555
N3 C6 1_555 1_555
N4 Ag1 1_555 1_555
N5 Pt1 1_555 1_555
N6 Pt1 1_555 1_555
C1 H1 1_555 1_555
C2 N4 1_555 1_555
H2 C2 1_555 1_555
C3 N4 1_555 1_555
H3 C3 1_555 1_555
C4 N1 1_555 1_555
H4 C4 1_555 1_555
C5 H5 1_555 1_555
C6 C5 1_555 1_555
H6 C6 1_555 1_555
C7 N3 1_555 1_555
H7 C7 1_555 1_555
C8 N2 1_555 1_555
H8 C8 1_555 1_555
C9 N5 1_555 1_555
H9 C9 1_555 1_555
H10 C9 1_555 1_555
C10 N6 1_555 1_555
H11 C10 1_555 1_555
H12 C10 1_555 1_555
C11 N5 1_555 1_555
H13 C11 1_555 1_555
H14 C11 1_555 1_555
H15 C11 1_555 1_555
C12 N5 1_555 1_555
H16 C12 1_555 1_555
H17 C12 1_555 1_555
H18 C12 1_555 1_555
C13 N6 1_555 1_555
H19 C13 1_555 1_555
H20 C13 1_555 1_555
H21 C13 1_555 1_555
C14 N6 1_555 1_555
H22 C14 1_555 1_555
H23 C14 1_555 1_555
H24 C14 1_555 1_555
O3 Cl2 1_555 1_555
O4 Cl2 1_555 1_555
O5 Cl2 1_555 1_555
O6 Cl1 1_555 1_555
O7 Cl1 1_555 1_555
O8 Cl1 1_555 1_555
Pt1E N1E 1_555 1_555
Pt1_2 N2 1_555 1_555
Pt1E_2 N2E 1_555 1_555
N1E C1E 1_555 1_555
N2E C5E 1_555 1_555
N2_2 Pt1 1_555 1_555
N2E_2 Pt1E 1_555 1_555
N3E Ag1 1_555 1_555
N4E Ag1 1_555 1_555
N5E Pt1E 1_555 1_555
N6E Pt1E 1_555 1_555
C1E H1E 1_555 1_555
C2E N4E 1_555 1_555
H2E C2E 1_555 1_555
C3E N4E 1_555 1_555
H3E C3E 1_555 1_555
C4E N1E 1_555 1_555
H4E C4E 1_555 1_555
C5E H5E 1_555 1_555
C6E N3E 1_555 1_555
H6E C6E 1_555 1_555
C7E N3E 1_555 1_555
H7E C7E 1_555 1_555
C8E N2E 1_555 1_555
H8E C8E 1_555 1_555
C9E N5E 1_555 1_555
H9E C9E 1_555 1_555
H10E C9E 1_555 1_555
C10E N6E 1_555 1_555
H11E C10E 1_555 1_555
H12E C10E 1_555 1_555
C11E N5E 1_555 1_555
H13E C11E 1_555 1_555
H14E C11E 1_555 1_555
H15E C11E 1_555 1_555
C12E N5E 1_555 1_555
H16E C12E 1_555 1_555
H17E C12E 1_555 1_555
H18E C12E 1_555 1_555
C13E N6E 1_555 1_555
H19E C13E 1_555 1_555
H20E C13E 1_555 1_555
H21E C13E 1_555 1_555
C14E N6E 1_555 1_555
H22E C14E 1_555 1_555
H23E C14E 1_555 1_555
H24E C14E 1_555 1_555
C1 C2 1_555 1_555
C3 C4 1_555 1_555
C7 C8 1_555 1_555
C9 C10 1_555 1_555
C1E C2E 1_555 1_555
C3E C4E 1_555 1_555
C5E C6E 1_555 1_555
C7E C8E 1_555 1_555
C9E C10E 1_555 1_555

#END
