
#######################################################################
#
#                 Cambridge Crystallographic Data Centre
#                                CCDC 
#
#######################################################################
#
# If this CIF has been generated from an entry in the Cambridge 
# Structural Database, then it will include bibliographic, chemical, 
# crystal, experimental, refinement or atomic coordinate data resulting 
# from the CCDC's data processing and validation procedures.
#
#######################################################################

data_LECXOI
_symmetry_cell_setting           triclinic
_symmetry_space_group_name_H-M   'P -1'
_symmetry_Int_Tables_number      2
_space_group_name_Hall           '-P 1'
loop_
_symmetry_equiv_pos_site_id
_symmetry_equiv_pos_as_xyz
1 x,y,z
2 -x,-y,-z
_cell_length_a                   7.4022(3)
_cell_length_b                   8.5156(4)
_cell_length_c                   11.2499(5)
_cell_angle_alpha                99.0733(15)
_cell_angle_beta                 93.715(4)
_cell_angle_gamma                97.954(3)
_cell_volume                     690.793
loop_
_atom_site_label
_atom_site_type_symbol
_atom_site_fract_x
_atom_site_fract_y
_atom_site_fract_z
Mo1 Mo 0.3997(10) 0.0689(6) 0.6230(5)
Mo2 Mo 0.0938(10) -0.1113(7) 0.3920(5)
O1 O 0.354(5) -0.085(4) 0.421(3)
O2 O 0.417(4) -0.090(2) 0.6984(20)
O3 O 0.440(5) 0.201(3) 0.7535(17)
O4 O 0.032(4) -0.2923(19) 0.433(2)
O5 O 0.097(5) -0.168(4) 0.2424(10)
O6 O 0.135(5) 0.027(4) 0.585(3)
O7 O 0.384(5) 0.252(4) 0.520(3)
O8 O 0.180(5) 0.139(4) 0.371(3)
C1 C 0.303(8) 0.250(5) 0.420(5)
C2 C 0.353(8) 0.382(7) 0.345(4)
H1 H 0.48333 0.41428 0.36038
H2 H 0.29739 0.47178 0.37873
N1 N 0.312(6) 0.359(6) 0.216(4)
N2 N 0.262(7) 0.485(5) 0.169(5)
N3 N 0.184(6) 0.701(6) 0.005(4)
H3 H 0.18825 0.73910 0.08462
C3 C 0.349(8) 0.238(7) 0.133(5)
H4 H 0.38130 0.13669 0.14684
C4 C 0.331(8) 0.287(7) 0.022(5)
H5 H 0.35907 0.23495 -0.05476
C5 C 0.263(8) 0.436(8) 0.050(6)
C6 C 0.217(8) 0.543(8) -0.034(6)
C7 C 0.144(8) 0.798(6) -0.078(5)
H6 H 0.12186 0.90576 -0.05147
C8 C 0.137(7) 0.738(7) -0.200(5)
H7 H 0.11014 0.80359 -0.25870
C9 C 0.170(9) 0.580(7) -0.239(5)
H8 H 0.16487 0.53880 -0.32410
C10 C 0.209(8) 0.483(6) -0.156(6)
H9 H 0.23157 0.37469 -0.18270
Mo1A Mo 0.6003(10) -0.0689(6) 0.3770(5)
Mo2A Mo -0.0938(10) 0.1113(7) 0.6080(5)
O1A O 0.646(5) 0.085(4) 0.579(3)
O6A O -0.135(5) -0.027(4) 0.415(3)
loop_
_geom_bond_atom_site_label_1
_geom_bond_atom_site_label_2
_geom_bond_site_symmetry_1
_geom_bond_site_symmetry_2
Mo1 O1 1_555 1_555
Mo2 O1 1_555 1_555
O1 Mo1A 1_555 1_555
O2 Mo1 1_555 1_555
O3 Mo1 1_555 1_555
O4 Mo2 1_555 1_555
O5 Mo2 1_555 1_555
O6 Mo1 1_555 1_555
O7 Mo1 1_555 1_555
O8 Mo2 1_555 1_555
C1 O7 1_555 1_555
C2 C1 1_555 1_555
H1 C2 1_555 1_555
H2 C2 1_555 1_555
N1 C2 1_555 1_555
N2 N1 1_555 1_555
N3 H3 1_555 1_555
C3 N1 1_555 1_555
H4 C3 1_555 1_555
C4 C3 1_555 1_555
H5 C4 1_555 1_555
C5 N2 1_555 1_555
C6 N3 1_555 1_555
C7 N3 1_555 1_555
H6 C7 1_555 1_555
C8 C7 1_555 1_555
H7 C8 1_555 1_555
C9 C8 1_555 1_555
H8 C9 1_555 1_555
C10 C6 1_555 1_555
H9 C10 1_555 1_555
Mo1A O1A 1_555 1_555
Mo2A O6 1_555 1_555
O1A Mo1 1_555 1_555
O6A Mo2 1_555 1_555
Mo2 O6 1_555 1_555
O8 C1 1_555 1_555
C4 C5 1_555 1_555
C5 C6 1_555 1_555
C9 C10 1_555 1_555
Mo2A O6A 1_555 1_555

#END
