
#######################################################################
#
#                 Cambridge Crystallographic Data Centre
#                                CCDC 
#
#######################################################################
#
# If this CIF has been generated from an entry in the Cambridge 
# Structural Database, then it will include bibliographic, chemical, 
# crystal, experimental, refinement or atomic coordinate data resulting 
# from the CCDC's data processing and validation procedures.
#
#######################################################################

data_LECYUP
_symmetry_cell_setting           triclinic
_symmetry_space_group_name_H-M   'P -1'
_symmetry_Int_Tables_number      2
_space_group_name_Hall           '-P 1'
loop_
_symmetry_equiv_pos_site_id
_symmetry_equiv_pos_as_xyz
1 x,y,z
2 -x,-y,-z
_cell_length_a                   6.065(2)
_cell_length_b                   10.225(4)
_cell_length_c                   11.628(5)
_cell_angle_alpha                105.675(5)
_cell_angle_beta                 101.941(5)
_cell_angle_gamma                106.503(5)
_cell_volume                     633.483
loop_
_atom_site_label
_atom_site_type_symbol
_atom_site_fract_x
_atom_site_fract_y
_atom_site_fract_z
Dy1 Dy 0.84982(8) -0.18205(5) 0.55740(4)
O1 O 0.6562(11) -0.0121(6) 0.6276(5)
O2 O 0.8631(12) -0.0674(7) 0.7735(6)
O3 O 0.1716(11) 0.0422(7) 0.6096(6)
O4 O 0.4643(11) 0.2432(7) 0.6383(6)
O5 O 0.4846(12) -0.3327(7) 0.5789(6)
O6 O 0.2418(12) -0.5610(7) 0.5429(6)
O7 O 1.1266(16) -0.2410(10) 0.6859(6)
H1 H 1.229(16) -0.268(14) 0.656(9)
H2 H 1.156(19) -0.216(13) 0.765(3)
O8 O 1.1045(12) -0.2268(7) 0.4322(7)
H3 H 1.204(13) -0.152(6) 0.429(10)
H4 H 1.144(16) -0.301(6) 0.423(10)
N1 N 0.6874(14) 0.1858(9) 1.0596(7)
C1 C 0.7428(18) 0.1091(10) 0.9680(9)
H5 H 0.8533 0.0657 0.9892
C2 C 0.6468(17) 0.0860(10) 0.8367(8)
C3 C 0.7263(17) -0.0028(10) 0.7415(9)
C4 C 0.4880(17) 0.1537(10) 0.8065(9)
C5 C 0.3715(18) 0.1431(10) 0.6755(9)
C6 C 0.4190(18) 0.2360(11) 0.9030(9)
C7 C 0.2513(19) 0.3062(11) 0.8784(10)
H6 H 0.1822 0.2987 0.7966
C8 C 0.1931(19) 0.3828(11) 0.9728(10)
H7 H 0.0832 0.4278 0.9556
C9 C 0.2941(19) 0.3960(12) 1.0953(10)
H8 H 0.2522 0.4506 1.1594
C10 C 0.4534(19) 0.3304(11) 1.1237(10)
H9 H 0.5171 0.3394 1.2066
C11 C 0.5229(18) 0.2493(11) 1.0290(9)
C12 C 0.4207(18) -0.4708(10) 0.5345(8)
Dy1_2 Dy 1.84982(8) -0.18205(5) 0.55740(4)
Dy1_3 Dy -0.15018(8) -0.18205(5) 0.55740(4)
Dy1A Dy 0.15018(8) 0.18205(5) 0.44260(4)
Dy1A_2 Dy 0.15018(8) -0.81795(5) 0.44260(4)
Dy1A_3 Dy 1.15018(8) 0.18205(5) 0.44260(4)
O1_2 O 1.6562(11) -0.0121(6) 0.6276(5)
O2_2 O 1.8631(12) -0.0674(7) 0.7735(6)
O3_2 O 1.1716(11) 0.0422(7) 0.6096(6)
O3A O 0.8284(11) -0.0422(7) 0.3904(6)
O3_3 O 2.1716(11) 0.0422(7) 0.6096(6)
O3A_2 O 1.8284(11) -0.0422(7) 0.3904(6)
O4_2 O 1.4643(11) 0.2432(7) 0.6383(6)
O4A O 0.5357(11) -0.2432(7) 0.3617(6)
O4A_2 O 1.5357(11) -0.2432(7) 0.3617(6)
O5A O 0.5154(12) -0.6673(7) 0.4211(6)
O5_2 O 1.4846(12) -0.3327(7) 0.5789(6)
O6A O 0.7582(12) -0.4390(7) 0.4571(6)
O6A_2 O 1.7582(12) -0.4390(7) 0.4571(6)
O7_2 O 2.1266(16) -0.2410(10) 0.6859(6)
H1_2 H 2.229(16) -0.268(14) 0.656(9)
H2_2 H 2.156(19) -0.216(13) 0.765(3)
O8_2 O 2.1045(12) -0.2268(7) 0.4322(7)
H3_2 H 2.204(13) -0.152(6) 0.429(10)
H4_2 H 2.144(16) -0.301(6) 0.423(10)
N1_2 N 1.6874(14) 0.1858(9) 1.0596(7)
C1_2 C 1.7428(18) 0.1091(10) 0.9680(9)
H5_2 H 1.8533 0.0657 0.9892
C2_2 C 1.6468(17) 0.0860(10) 0.8367(8)
C3_2 C 1.7263(17) -0.0028(10) 0.7415(9)
C4_2 C 1.4880(17) 0.1537(10) 0.8065(9)
C5_2 C 1.3715(18) 0.1431(10) 0.6755(9)
C6_2 C 1.4190(18) 0.2360(11) 0.9030(9)
C7_2 C 1.2513(19) 0.3062(11) 0.8784(10)
H6_2 H 1.1822 0.2987 0.7966
C8_2 C 1.1931(19) 0.3828(11) 0.9728(10)
H7_2 H 1.0832 0.4278 0.9556
C9_2 C 1.2941(19) 0.3960(12) 1.0953(10)
H8_2 H 1.2522 0.4506 1.1594
C10_2 C 1.4534(19) 0.3304(11) 1.1237(10)
H9_2 H 1.5171 0.3394 1.2066
C11_2 C 1.5229(18) 0.2493(11) 1.0290(9)
C12A C 0.5793(18) -0.5292(10) 0.4655(8)
loop_
_geom_bond_atom_site_label_1
_geom_bond_atom_site_label_2
_geom_bond_site_symmetry_1
_geom_bond_site_symmetry_2
Dy1 O1 1_555 1_555
O1 C3 1_555 1_555
O2 Dy1 1_555 1_555
O3 C5 1_555 1_555
O4 C5 1_555 1_555
O5 Dy1 1_555 1_555
O6 C12 1_555 1_555
O7 Dy1 1_555 1_555
H1 O7 1_555 1_555
H2 O7 1_555 1_555
O8 Dy1 1_555 1_555
H3 O8 1_555 1_555
H4 O8 1_555 1_555
N1 C1 1_555 1_555
C1 H5 1_555 1_555
C2 C1 1_555 1_555
C3 O2 1_555 1_555
C4 C2 1_555 1_555
C5 C4 1_555 1_555
C6 C4 1_555 1_555
C7 C6 1_555 1_555
H6 C7 1_555 1_555
C8 C7 1_555 1_555
H7 C8 1_555 1_555
C9 C8 1_555 1_555
H8 C9 1_555 1_555
C10 C9 1_555 1_555
H9 C10 1_555 1_555
C11 N1 1_555 1_555
C12 O5 1_555 1_555
Dy1_2 O1_2 1_555 1_555
Dy1_3 O3 1_555 1_555
Dy1A O3 1_555 1_555
Dy1A_2 O6 1_555 1_555
Dy1A_3 O3_2 1_555 1_555
O1_2 C3_2 1_555 1_555
O2_2 Dy1_2 1_555 1_555
O3_2 Dy1 1_555 1_555
O3A Dy1 1_555 1_555
O3_3 Dy1_2 1_555 1_555
O3A_2 Dy1_2 1_555 1_555
O4_2 Dy1A_3 1_555 1_555
O4A Dy1 1_555 1_555
O4A_2 Dy1_2 1_555 1_555
O5A Dy1A_2 1_555 1_555
O5_2 Dy1_2 1_555 1_555
O6A Dy1 1_555 1_555
O6A_2 Dy1_2 1_555 1_555
O7_2 Dy1_2 1_555 1_555
H1_2 O7_2 1_555 1_555
H2_2 O7_2 1_555 1_555
O8_2 Dy1_2 1_555 1_555
H3_2 O8_2 1_555 1_555
H4_2 O8_2 1_555 1_555
N1_2 C1_2 1_555 1_555
C1_2 H5_2 1_555 1_555
C2_2 C1_2 1_555 1_555
C3_2 O2_2 1_555 1_555
C4_2 C2_2 1_555 1_555
C5_2 O3_2 1_555 1_555
C6_2 C4_2 1_555 1_555
C7_2 C6_2 1_555 1_555
H6_2 C7_2 1_555 1_555
C8_2 C7_2 1_555 1_555
H7_2 C8_2 1_555 1_555
C9_2 C8_2 1_555 1_555
H8_2 C9_2 1_555 1_555
C10_2 C9_2 1_555 1_555
H9_2 C10_2 1_555 1_555
C11_2 N1_2 1_555 1_555
C12A C12 1_555 1_555
O4 Dy1A 1_555 1_555
C2 C3 1_555 1_555
C6 C11 1_555 1_555
C10 C11 1_555 1_555
Dy1A_3 O3A 1_555 1_555
O4_2 C5_2 1_555 1_555
O5A C12A 1_555 1_555
O6A C12A 1_555 1_555
C2_2 C3_2 1_555 1_555
C4_2 C5_2 1_555 1_555
C6_2 C11_2 1_555 1_555
C10_2 C11_2 1_555 1_555

#END
