
#######################################################################
#
#                 Cambridge Crystallographic Data Centre
#                                CCDC 
#
#######################################################################
#
# If this CIF has been generated from an entry in the Cambridge 
# Structural Database, then it will include bibliographic, chemical, 
# crystal, experimental, refinement or atomic coordinate data resulting 
# from the CCDC's data processing and validation procedures.
#
#######################################################################

data_LECZAW
_symmetry_cell_setting           monoclinic
_symmetry_space_group_name_H-M   'C 2/c'
_symmetry_Int_Tables_number      15
_space_group_name_Hall           '-C 2yn'
loop_
_symmetry_equiv_pos_site_id
_symmetry_equiv_pos_as_xyz
1 x,y,z
2 -x,y,1/2-z
3 1/2+x,1/2+y,z
4 1/2-x,1/2+y,1/2-z
5 -x,-y,-z
6 x,-y,1/2+z
7 1/2-x,1/2-y,-z
8 1/2+x,1/2-y,1/2+z
_cell_length_a                   29.910(6)
_cell_length_b                   9.3178(19)
_cell_length_c                   23.607(5)
_cell_angle_alpha                90
_cell_angle_beta                 127.21(3)
_cell_angle_gamma                90
_cell_volume                     5239.81
loop_
_atom_site_label
_atom_site_type_symbol
_atom_site_fract_x
_atom_site_fract_y
_atom_site_fract_z
Cu1 Cu 0.186510(18) 0.13402(4) 0.22949(2)
S1 S 0.20352(4) -0.19247(9) 0.25640(5)
O1 O 0.10596(13) 0.0218(3) 0.23041(16)
H1 H 0.1205 -0.0439 0.2525
O2 O 0.14337(11) 0.0458(3) 0.13259(13)
H2 H 0.1435 -0.0266 0.1337
O3 O 0.22764(11) -0.0443(2) 0.27274(14)
O4 O 0.17313(13) -0.2113(3) 0.28634(18)
O5 O 0.16561(12) -0.2097(3) 0.17922(15)
O6 O 0.24995(11) -0.2929(3) 0.28942(15)
C1 C 0.08286(16) 0.2917(4) 0.1759(2)
H3 H 0.0626 0.2146 0.1418
H4 H 0.0610 0.3788 0.1546
N1 N 0.13813(12) 0.3113(3) 0.18905(16)
N2 N 0.22087(13) 0.2309(3) 0.32173(17)
C2 C 0.10090(16) 0.0998(4) 0.0669(2)
C3 C 0.20781(16) 0.3688(4) 0.3161(2)
C4 C 0.09257(16) 0.2481(4) 0.0608(2)
C5 C 0.12912(17) 0.3503(4) 0.1217(2)
H5 H 0.1654 0.3561 0.1309
H6 H 0.1123 0.4450 0.1073
C6 C 0.06858(16) 0.0089(4) 0.0088(2)
C7 C 0.17147(17) 0.4274(4) 0.2413(2)
H7 H 0.1463 0.4997 0.2372
H8 H 0.1950 0.4727 0.2309
C8 C 0.02752(18) 0.0723(5) -0.0572(2)
H9 H 0.0059 0.0132 -0.0969
C9 C 0.09736(17) 0.1166(4) 0.2662(2)
C10 C 0.05012(17) 0.3024(4) -0.0071(2)
H10 H 0.0438 0.4009 -0.0121
C11 C 0.01767(17) 0.2178(5) -0.0661(2)
C12 C -0.0278(2) 0.2821(6) -0.1376(3)
H11 H -0.0639 0.2506 -0.1520
H12 H -0.0226 0.2517 -0.1722
H13 H -0.0258 0.3849 -0.1342
C13 C 0.08707(16) 0.2580(4) 0.2411(2)
C14 C 0.07824(19) 0.3610(5) 0.2759(3)
H14 H 0.0704 0.4548 0.2589
C15 C 0.25454(18) 0.1696(5) 0.3860(2)
H15 H 0.2639 0.0730 0.3902
C16 C 0.0770(2) -0.1508(5) 0.0155(2)
H16 H 0.1143 -0.1728 0.0316
H17 H 0.0502 -0.1949 -0.0299
H18 H 0.0717 -0.1867 0.0492
C17 C 0.2273(2) 0.4524(5) 0.3755(2)
H19 H 0.2171 0.5484 0.3708
C18 C 0.2619(2) 0.3899(5) 0.4416(3)
H20 H 0.2758 0.4434 0.4824
C19 C 0.1053(3) -0.0737(7) 0.3473(4)
H21 H 0.1446 -0.0952 0.3805
H22 H 0.0885 -0.1356 0.3067
H23 H 0.0876 -0.0883 0.3698
C20 C 0.2754(2) 0.2523(5) 0.4464(2)
H24 H 0.2993 0.2102 0.4911
C21 C 0.0980(2) 0.0802(5) 0.3238(3)
C22 C 0.0906(2) 0.1876(6) 0.3572(3)
H25 H 0.0923 0.1643 0.3968
C23 C 0.0807(2) 0.3289(6) 0.3346(3)
C24 C 0.0728(3) 0.4444(7) 0.3736(3)
H26 H 0.1011 0.4339 0.4239
H27 H 0.0363 0.4347 0.3625
H28 H 0.0760 0.5375 0.3589
Cu1C Cu 0.313490(18) -0.36598(4) 0.27051(2)
O6C O 0.25005(11) 0.2071(3) 0.21058(15)
C25 C 0.2413(7) 0.3417(13) 0.0438(10)
H29 H 0.2665 0.2614 0.0616
H30 H 0.2569 0.4149 0.0796
H31 H 0.2359 0.3792 0.0022
O7 O 0.1958(4) 0.3025(8) 0.0283(4)
H32 H 0.1743 0.3711 0.0131
loop_
_geom_bond_atom_site_label_1
_geom_bond_atom_site_label_2
_geom_bond_site_symmetry_1
_geom_bond_site_symmetry_2
Cu1 O2 1_555 1_555
S1 O3 1_555 1_555
O1 H1 1_555 1_555
O2 H2 1_555 1_555
O3 Cu1 1_555 1_555
O4 S1 1_555 1_555
O5 S1 1_555 1_555
O6 S1 1_555 1_555
C1 H3 1_555 1_555
H4 C1 1_555 1_555
N1 Cu1 1_555 1_555
N2 Cu1 1_555 1_555
C2 O2 1_555 1_555
C3 N2 1_555 1_555
C4 C2 1_555 1_555
C5 N1 1_555 1_555
H5 C5 1_555 1_555
H6 C5 1_555 1_555
C6 C2 1_555 1_555
C7 N1 1_555 1_555
H7 C7 1_555 1_555
H8 C7 1_555 1_555
C8 C6 1_555 1_555
H9 C8 1_555 1_555
C9 O1 1_555 1_555
C10 C4 1_555 1_555
H10 C10 1_555 1_555
C11 C8 1_555 1_555
C12 C11 1_555 1_555
H11 C12 1_555 1_555
H12 C12 1_555 1_555
H13 C12 1_555 1_555
C13 C1 1_555 1_555
C14 C13 1_555 1_555
H14 C14 1_555 1_555
C15 N2 1_555 1_555
H15 C15 1_555 1_555
C16 C6 1_555 1_555
H16 C16 1_555 1_555
H17 C16 1_555 1_555
H18 C16 1_555 1_555
C17 C3 1_555 1_555
H19 C17 1_555 1_555
C18 C17 1_555 1_555
H20 C18 1_555 1_555
C19 H21 1_555 1_555
H22 C19 1_555 1_555
H23 C19 1_555 1_555
C20 C15 1_555 1_555
H24 C20 1_555 1_555
C21 C9 1_555 1_555
C22 C21 1_555 1_555
H25 C22 1_555 1_555
C23 C14 1_555 1_555
C24 C23 1_555 1_555
H26 C24 1_555 1_555
H27 C24 1_555 1_555
H28 C24 1_555 1_555
C25 H29 1_555 1_555
H30 C25 1_555 1_555
H31 C25 1_555 1_555
O7 C25 1_555 1_555
H32 O7 1_555 1_555
Cu1C O6 1_555 1_555
O6C Cu1 1_555 1_555
C1 N1 1_555 1_555
C3 C7 1_555 1_555
C4 C5 1_555 1_555
C9 C13 1_555 1_555
C10 C11 1_555 1_555
C18 C20 1_555 1_555
C19 C21 1_555 1_555
C22 C23 1_555 1_555

#END
