
#######################################################################
#
#                 Cambridge Crystallographic Data Centre
#                                CCDC 
#
#######################################################################
#
# If this CIF has been generated from an entry in the Cambridge 
# Structural Database, then it will include bibliographic, chemical, 
# crystal, experimental, refinement or atomic coordinate data resulting 
# from the CCDC's data processing and validation procedures.
#
#######################################################################

data_LEDCAA
_symmetry_cell_setting           orthorhombic
_symmetry_space_group_name_H-M   'P b c n'
_symmetry_Int_Tables_number      60
_space_group_name_Hall           '-P 2n 2ab'
loop_
_symmetry_equiv_pos_site_id
_symmetry_equiv_pos_as_xyz
1 x,y,z
2 1/2-x,1/2-y,1/2+z
3 1/2+x,1/2-y,-z
4 -x,y,1/2-z
5 -x,-y,-z
6 1/2+x,1/2+y,1/2-z
7 1/2-x,1/2+y,z
8 x,-y,1/2+z
_cell_length_a                   24.390(7)
_cell_length_b                   13.168(4)
_cell_length_c                   15.891(5)
_cell_angle_alpha                90
_cell_angle_beta                 90
_cell_angle_gamma                90
_cell_volume                     5103.67
loop_
_atom_site_label
_atom_site_type_symbol
_atom_site_fract_x
_atom_site_fract_y
_atom_site_fract_z
Cd1 Cd 0.272460(13) 0.10184(2) 0.01377(3)
Cd2 Cd 0.524710(13) 0.21401(2) -0.11054(2)
N1 N 0.24270(17) 0.2680(3) 0.0181(3)
C1 C 0.2830(3) 0.1201(6) 0.2273(4)
H1 H 0.2467 0.0986 0.2264
C2 C 0.18781(17) 0.2811(3) 0.0306(3)
N2 N 0.44233(17) 0.1900(3) 0.0648(2)
C3 C 0.40018(17) 0.1540(4) -0.1470(3)
N3 N 0.45134(15) 0.1884(3) -0.0204(2)
C4 C 0.40393(17) 0.1622(4) -0.0560(3)
N4 N 0.36382(15) 0.1471(3) 0.0006(2)
O1 O 0.25261(19) 0.0956(4) -0.1317(3)
N5 N 0.30993(19) 0.1278(3) 0.1537(3)
C5 C 0.39022(19) 0.1651(3) 0.0745(3)
C6 C 0.3622(2) 0.1567(4) 0.1568(3)
N6 N 0.22006(15) 0.4324(3) 0.0177(3)
O2 O 0.56174(15) 0.0743(3) -0.0355(3)
N7 N 0.17274(16) 0.3779(3) 0.0301(3)
N8 N 0.17825(18) 0.1003(3) 0.0486(3)
N9 N 0.42692(17) 0.1602(4) -0.2757(3)
N10 N 0.10015(15) 0.1874(3) 0.0656(3)
N11 N 0.44338(15) 0.1739(3) -0.1940(3)
C7 C 0.2605(2) 0.3642(4) 0.0108(3)
H2 H 0.2970 0.3816 0.0019
N12 N 0.00099(17) 0.1100(3) 0.1256(3)
C8 C 0.0398(2) 0.0423(4) 0.1034(3)
C9 C 0.15366(18) 0.1915(3) 0.0468(3)
N13 N 0.13822(17) 0.0312(3) 0.0687(3)
C10 C 0.09312(19) 0.0865(3) 0.0783(3)
N14 N 0.35591(18) 0.1253(5) -0.1915(3)
C11 C -0.0477(2) 0.0722(5) 0.1491(4)
H3 H -0.0747 0.1178 0.1656
C12 C 0.3754(2) 0.1293(6) -0.2711(4)
H4 H 0.3546 0.1120 -0.3180
C13 C -0.0604(3) -0.0296(5) 0.1503(5)
H5 H -0.0950 -0.0517 0.1665
C14 C 0.0309(2) -0.0624(4) 0.1025(4)
H6 H 0.0585 -0.1067 0.0860
C15 C -0.0198(3) -0.0988(5) 0.1268(5)
H7 H -0.0268 -0.1682 0.1273
C16 C 0.3885(3) 0.1791(6) 0.2313(4)
H8 H 0.4249 0.2000 0.2313
C17 C 0.3064(3) 0.1424(7) 0.3033(4)
H9 H 0.2859 0.1388 0.3525
C18 C 0.3600(3) 0.1699(7) 0.3058(4)
H10 H 0.3772 0.1824 0.3570
H11 H 0.229(4) 0.076(11) -0.166(6)
H12 H 0.284(3) 0.104(11) -0.155(7)
H13 H 0.5967(9) 0.075(10) -0.037(8)
H14 H 0.552(5) 0.061(11) 0.014(3)
Cd1F Cd 0.227540(13) 0.60184(2) 0.01377(3)
Cd2C Cd 0.475290(13) 0.21401(2) -0.38946(2)
Cd2B Cd 0.024710(13) 0.28599(2) 0.11054(2)
N6F N 0.27994(15) -0.0676(3) 0.0177(3)
N9C N 0.57308(17) 0.1602(4) -0.2243(3)
N10B N 0.60015(15) 0.3126(3) -0.0656(3)
N12B N 0.50099(17) 0.3900(3) -0.1256(3)
O3 O 0.5234(3) 0.0650(7) 0.1387(5)
O4 O 0.1816(4) 0.0907(6) -0.2831(6)
loop_
_geom_bond_atom_site_label_1
_geom_bond_atom_site_label_2
_geom_bond_site_symmetry_1
_geom_bond_site_symmetry_2
Cd1 N1 1_555 1_555
Cd2 N3 1_555 1_555
N1 C2 1_555 1_555
C1 H1 1_555 1_555
C2 N7 1_555 1_555
N2 N3 1_555 1_555
C3 C4 1_555 1_555
N3 C4 1_555 1_555
C4 N4 1_555 1_555
N4 Cd1 1_555 1_555
O1 Cd1 1_555 1_555
N5 Cd1 1_555 1_555
C5 N2 1_555 1_555
C6 N5 1_555 1_555
N6 N7 1_555 1_555
O2 Cd2 1_555 1_555
N8 Cd1 1_555 1_555
N9 N11 1_555 1_555
N10 C9 1_555 1_555
N11 Cd2 1_555 1_555
C7 N1 1_555 1_555
H2 C7 1_555 1_555
N12 C8 1_555 1_555
C8 C10 1_555 1_555
C9 C2 1_555 1_555
N13 N8 1_555 1_555
C10 N10 1_555 1_555
N14 C3 1_555 1_555
C11 N12 1_555 1_555
H3 C11 1_555 1_555
C12 N9 1_555 1_555
H4 C12 1_555 1_555
C13 C11 1_555 1_555
H5 C13 1_555 1_555
C14 C8 1_555 1_555
H6 C14 1_555 1_555
C15 C13 1_555 1_555
H7 C15 1_555 1_555
C16 C6 1_555 1_555
H8 C16 1_555 1_555
C17 C1 1_555 1_555
H9 C17 1_555 1_555
C18 C16 1_555 1_555
H10 C18 1_555 1_555
H11 O1 1_555 1_555
H12 O1 1_555 1_555
H13 O2 1_555 1_555
H14 O2 1_555 1_555
Cd1F N6 1_555 1_555
Cd2C N9 1_555 1_555
Cd2B N10 1_555 1_555
N6F Cd1 1_555 1_555
N9C Cd2 1_555 1_555
N10B Cd2 1_555 1_555
N12B Cd2 1_555 1_555
C1 N5 1_555 1_555
C3 N11 1_555 1_555
N4 C5 1_555 1_555
C5 C6 1_555 1_555
N6 C7 1_555 1_555
N8 C9 1_555 1_555
N12 Cd2B 1_555 1_555
N13 C10 1_555 1_555
N14 C12 1_555 1_555
C14 C15 1_555 1_555
C17 C18 1_555 1_555

#END
