
#######################################################################
#
#                 Cambridge Crystallographic Data Centre
#                                CCDC 
#
#######################################################################
#
# If this CIF has been generated from an entry in the Cambridge 
# Structural Database, then it will include bibliographic, chemical, 
# crystal, experimental, refinement or atomic coordinate data resulting 
# from the CCDC's data processing and validation procedures.
#
#######################################################################

data_LEDCOO
_symmetry_cell_setting           monoclinic
_symmetry_space_group_name_H-M   'C c'
_symmetry_Int_Tables_number      9
_space_group_name_Hall           'C -2yc'
loop_
_symmetry_equiv_pos_site_id
_symmetry_equiv_pos_as_xyz
1 x,y,z
2 x,-y,1/2+z
3 1/2+x,1/2+y,z
4 1/2+x,1/2-y,1/2+z
_cell_length_a                   17.915(4)
_cell_length_b                   11.898(2)
_cell_length_c                   17.083(3)
_cell_angle_alpha                90
_cell_angle_beta                 107.76(3)
_cell_angle_gamma                90
_cell_volume                     3467.75
loop_
_atom_site_label
_atom_site_type_symbol
_atom_site_fract_x
_atom_site_fract_y
_atom_site_fract_z
C1 C 0.5076(4) 0.4748(7) 0.4199(5)
C2 C 0.4435(4) 0.4776(7) 0.4468(4)
C3 C 0.5402(4) 0.3619(7) 0.4029(4)
H1 H 0.4973 0.3087 0.3855
H2 H 0.5618 0.3713 0.3576
C4 C 1.3468(5) 1.2349(8) 0.7122(5)
H3 H 1.3289 1.2958 0.7357
C5 C 0.9573(5) 1.0320(8) 0.6702(6)
H4 H 0.9256 0.9688 0.6656
C6 C 0.4082(4) 0.5815(7) 0.4528(4)
C7 C 0.4415(4) 0.6815(6) 0.4380(5)
C8 C 0.5428(4) 0.5749(7) 0.4030(4)
C9 C 0.8526(5) 1.1446(8) 0.7024(5)
C10 C 0.5991(4) 0.9077(6) 0.5220(5)
H5 H 0.5505 0.9348 0.5222
C11 C 0.9301(4) 1.1352(7) 0.6867(4)
C12 C 0.5098(4) 0.6803(6) 0.4149(4)
C13 C 1.0300(5) 1.0213(9) 0.6606(6)
H6 H 1.0465 0.9507 0.6494
C14 C 0.5471(4) 0.7877(6) 0.3969(5)
H7 H 0.5697 0.7733 0.3529
H8 H 0.5065 0.8440 0.3775
C15 C 1.3254(6) 1.0590(9) 0.6459(7)
H9 H 1.2926 0.9983 0.6254
C16 C 0.1877(4) 0.5765(7) 0.3887(5)
H10 H 0.1662 0.6006 0.4288
C17 C 0.7219(4) 0.8823(7) 0.5538(5)
H11 H 0.7754 0.8858 0.5811
C18 C 0.3318(4) 0.5828(7) 0.4721(5)
H12 H 0.3316 0.5233 0.5108
H13 H 0.3260 0.6540 0.4973
C19 C 0.6127(4) 0.5728(7) 0.3707(5)
H14 H 0.6014 0.6171 0.3215
H15 H 0.6233 0.4967 0.3587
H16 H 0.6576 0.6032 0.4114
C20 C 1.0789(5) 1.1098(10) 0.6669(6)
C21 C 1.0494(4) 1.2177(8) 0.6793(5)
H17 H 1.0798 1.2813 0.6801
C22 C 0.1486(4) 0.5444(7) 0.3122(5)
H18 H 0.0943 0.5454 0.2899
C23 C 0.5946(4) 0.2252(7) 0.5166(5)
H19 H 0.5488 0.1834 0.5069
C24 C 0.2688(4) 0.5239(7) 0.3247(5)
H20 H 0.3155 0.5061 0.3144
C25 C 1.4019(5) 1.0572(8) 0.6419(7)
H21 H 1.4190 0.9974 0.6168
C26 C 1.1590(5) 1.0941(9) 0.6605(6)
H22 H 1.1689 1.0265 0.6381
C27 C 1.5354(5) 1.1467(9) 0.6761(5)
C28 C 1.4517(4) 1.1444(7) 0.6751(5)
C29 C 0.6770(5) 0.3547(7) 0.5053(6)
H23 H 0.6984 0.4170 0.4871
C30 C 0.9760(4) 1.2288(7) 0.6901(5)
H24 H 0.9579 1.2992 0.6997
C31 C 0.6868(4) 0.8188(7) 0.4851(6)
H25 H 0.7120 0.7744 0.4561
C32 C 0.4017(4) 0.7921(8) 0.4460(6)
H26 H 0.4189 0.8497 0.4161
H27 H 0.4151 0.8128 0.5030
H28 H 0.3459 0.7835 0.4241
C33 C 0.7127(4) 0.2844(7) 0.5682(5)
H29 H 0.7645 0.2904 0.6014
C34 C 1.4237(5) 1.2343(7) 0.7115(5)
H30 H 1.4569 1.2934 0.7352
C35 C 0.4074(5) 0.3700(8) 0.4675(6)
H31 H 0.3776 0.3336 0.4176
H32 H 0.3736 0.3879 0.4998
H33 H 0.4483 0.3206 0.4981
C36 C 1.2967(5) 1.1504(9) 0.6802(6)
C37 C 1.2147(5) 1.1623(10) 0.6823(7)
H34 H 1.2031 1.2304 0.7027
Co1 Co 0.67888(6) 1.06854(8) 0.65912(6)
N1 N 0.6653(3) 0.9389(5) 0.5748(4)
N2 N 0.6086(3) 0.8335(5) 0.4680(4)
N3 N 0.6023(3) 0.3132(5) 0.4745(4)
N4 N 0.2655(3) 0.5669(5) 0.3963(4)
N5 N 0.6610(3) 0.2034(5) 0.5753(3)
N6 N 0.1997(3) 0.5096(6) 0.2708(4)
O1 O 0.8013(3) 1.0706(5) 0.6733(4)
O2 O 0.8444(3) 1.2267(6) 0.7440(4)
O3 O 1.5592(3) 1.0659(5) 0.6426(4)
O4 O 1.5780(4) 1.2227(6) 0.7113(4)
Co1_2 Co 0.67888(6) 0.06854(8) 0.65912(6)
Co1C Co 0.17888(6) 0.43146(8) 0.15912(6)
Co1_3 Co 1.67888(6) 1.06854(8) 0.65912(6)
N5_2 N 0.6610(3) 1.2034(5) 0.5753(3)
N6C N 0.6997(3) 0.9904(6) 0.7708(4)
O3_2 O 0.5592(3) 1.0659(5) 0.6426(4)
O5 O 0.7263(5) 0.2747(10) 0.7992(7)
H35 H 0.7381 0.2603 0.8555
H36 H 0.7643 0.2646 0.7778
O6 O 0.4395(5) 0.0965(11) 0.3614(6)
H37 H 0.397(4) 0.104(12) 0.373(7)
H38 H 0.478(4) 0.067(12) 0.398(6)
O7 O 0.3024(8) 0.0324(18) 0.3898(14)
H39 H 0.323(10) -0.030(6) 0.383(17)
H40 H 0.318(10) 0.061(19) 0.438(7)
loop_
_geom_bond_atom_site_label_1
_geom_bond_atom_site_label_2
_geom_bond_site_symmetry_1
_geom_bond_site_symmetry_2
C1 C2 1_555 1_555
C2 C6 1_555 1_555
C3 C1 1_555 1_555
H1 C3 1_555 1_555
H2 C3 1_555 1_555
C4 H3 1_555 1_555
C5 H4 1_555 1_555
C6 C7 1_555 1_555
C7 C12 1_555 1_555
C8 C1 1_555 1_555
C9 C11 1_555 1_555
C10 H5 1_555 1_555
C11 C5 1_555 1_555
C12 C8 1_555 1_555
C13 C5 1_555 1_555
H6 C13 1_555 1_555
C14 C12 1_555 1_555
H7 C14 1_555 1_555
H8 C14 1_555 1_555
C15 H9 1_555 1_555
C16 H10 1_555 1_555
C17 H11 1_555 1_555
C18 C6 1_555 1_555
H12 C18 1_555 1_555
H13 C18 1_555 1_555
C19 C8 1_555 1_555
H14 C19 1_555 1_555
H15 C19 1_555 1_555
H16 C19 1_555 1_555
C20 C13 1_555 1_555
C21 C20 1_555 1_555
H17 C21 1_555 1_555
C22 C16 1_555 1_555
H18 C22 1_555 1_555
C23 H19 1_555 1_555
C24 H20 1_555 1_555
C25 C15 1_555 1_555
H21 C25 1_555 1_555
C26 C20 1_555 1_555
H22 C26 1_555 1_555
C27 C28 1_555 1_555
C28 C25 1_555 1_555
C29 H23 1_555 1_555
C30 C11 1_555 1_555
H24 C30 1_555 1_555
C31 C17 1_555 1_555
H25 C31 1_555 1_555
C32 C7 1_555 1_555
H26 C32 1_555 1_555
H27 C32 1_555 1_555
H28 C32 1_555 1_555
C33 C29 1_555 1_555
H29 C33 1_555 1_555
C34 C4 1_555 1_555
H30 C34 1_555 1_555
C35 C2 1_555 1_555
H31 C35 1_555 1_555
H32 C35 1_555 1_555
H33 C35 1_555 1_555
C36 C4 1_555 1_555
C37 C26 1_555 1_555
H34 C37 1_555 1_555
Co1 N1 1_555 1_555
N1 C10 1_555 1_555
N2 C10 1_555 1_555
N3 C3 1_555 1_555
N4 C16 1_555 1_555
N5 C23 1_555 1_555
N6 C22 1_555 1_555
O1 C9 1_555 1_555
O2 C9 1_555 1_555
O3 C27 1_555 1_555
O4 C27 1_555 1_555
O5 H35 1_555 1_555
H36 O5 1_555 1_555
O6 H37 1_555 1_555
H38 O6 1_555 1_555
O7 H39 1_555 1_555
H40 O7 1_555 1_555
Co1_2 N5 1_555 1_555
Co1C N6 1_555 1_555
Co1_3 O3 1_555 1_555
N5_2 Co1 1_555 1_555
N6C Co1 1_555 1_555
O3_2 Co1 1_555 1_555
C14 N2 1_555 1_555
C15 C36 1_555 1_555
C17 N1 1_555 1_555
C18 N4 1_555 1_555
C21 C30 1_555 1_555
C23 N3 1_555 1_555
C24 N4 1_555 1_555
C24 N6 1_555 1_555
C28 C34 1_555 1_555
C29 N3 1_555 1_555
C31 N2 1_555 1_555
C33 N5 1_555 1_555
C36 C37 1_555 1_555
Co1 O1 1_555 1_555

#END
