
#######################################################################
#
#                 Cambridge Crystallographic Data Centre
#                                CCDC 
#
#######################################################################
#
# If this CIF has been generated from an entry in the Cambridge 
# Structural Database, then it will include bibliographic, chemical, 
# crystal, experimental, refinement or atomic coordinate data resulting 
# from the CCDC's data processing and validation procedures.
#
#######################################################################

data_LEDDAB
_symmetry_cell_setting           triclinic
_symmetry_space_group_name_H-M   'P -1'
_symmetry_Int_Tables_number      2
_space_group_name_Hall           '-P 1'
loop_
_symmetry_equiv_pos_site_id
_symmetry_equiv_pos_as_xyz
1 x,y,z
2 -x,-y,-z
_cell_length_a                   12.723(3)
_cell_length_b                   14.012(3)
_cell_length_c                   14.486(4)
_cell_angle_alpha                109.872(4)
_cell_angle_beta                 100.605(5)
_cell_angle_gamma                95.246(5)
_cell_volume                     2353.87
loop_
_atom_site_label
_atom_site_type_symbol
_atom_site_fract_x
_atom_site_fract_y
_atom_site_fract_z
Mn1 Mn 0.23803(3) 0.73452(3) 0.24775(3)
Mn2 Mn 0.75527(3) 0.25679(3) 0.25029(3)
O1 O 0.12929(15) 0.80232(14) 0.34250(15)
O2 O 0.02720(17) 0.86621(16) 0.24205(16)
O3 O 0.35379(16) 0.67889(15) 0.15591(15)
O4 O 0.46514(18) 0.62399(18) 0.25736(17)
O5 O 0.12980(18) 0.74563(16) 0.11865(16)
H1 H 0.156(3) 0.779(3) 0.086(3)
H2 H 0.087(3) 0.786(3) 0.153(3)
O6 O 0.34796(17) 0.72419(16) 0.37648(16)
H3 H 0.326(4) 0.697(3) 0.410(4)
H4 H 0.404(4) 0.691(3) 0.347(3)
O7 O 0.82629(15) 0.14894(14) 0.14631(14)
O8 O 0.78737(15) 0.16070(15) -0.00587(15)
O9 O 0.67897(16) 0.36013(14) 0.35292(14)
O10 O 0.73456(16) 0.36655(16) 0.51055(15)
N1 N 0.13276(19) 0.40529(17) 0.10183(18)
N2 N 0.1208(2) 0.40482(19) 0.1932(2)
N3 N 0.1630(2) 0.56687(18) 0.19993(18)
N4 N 0.41506(18) 0.15790(18) 0.08994(18)
N5 N 0.4503(2) 0.1514(2) 0.00537(19)
N6 N 0.58978(18) 0.20929(17) 0.14107(17)
N7 N 0.38623(18) 1.05683(17) 0.38780(18)
N8 N 0.4028(2) 1.04907(19) 0.2958(2)
N9 N 0.32282(19) 0.89782(17) 0.29178(18)
N10 N 0.09647(18) 1.31732(18) 0.40545(18)
N11 N 0.0609(2) 1.3492(2) 0.49215(19)
N12 N -0.07914(18) 1.29597(17) 0.35753(17)
N13 N 0.84040(19) 0.55389(16) 0.22562(17)
N14 N 0.8493(2) 0.50107(18) 0.13017(19)
N15 N 0.80514(18) 0.39224(16) 0.20620(17)
N16 N 0.65956(19) 0.96294(16) 0.28255(17)
N17 N 0.6672(2) 1.01911(18) 0.38154(18)
N18 N 0.70271(18) 1.12249(16) 0.29749(17)
C1 C 0.1201(3) 0.3104(2) 0.0145(2)
H5 H 0.1090 0.3272 -0.0473
H6 H 0.0541 0.2640 0.0098
C2 C 0.2176(3) 0.2526(2) 0.0179(3)
H7 H 0.2069 0.1948 -0.0474
H8 H 0.2841 0.3000 0.0260
C3 C 0.2338(2) 0.2111(2) 0.1014(3)
H9 H 0.1619 0.1851 0.1084
H10 H 0.2695 0.2683 0.1653
C4 C 0.3010(2) 0.1256(2) 0.0862(3)
H11 H 0.2977 0.0960 0.1389
H12 H 0.2683 0.0705 0.0200
C5 C 0.1400(3) 0.5035(2) 0.2486(2)
H13 H 0.1378 0.5285 0.3178
C6 C 0.1574(2) 0.5019(2) 0.1078(2)
H14 H 0.1693 0.5213 0.0533
C7 C 0.5558(2) 0.1828(2) 0.0408(2)
H15 H 0.6039 0.1864 -0.0013
C8 C 0.4982(2) 0.1919(2) 0.1688(2)
H16 H 0.4932 0.2026 0.2361
C9 C 0.4205(2) 1.1530(2) 0.4751(2)
H17 H 0.5006 1.1695 0.4932
H18 H 0.3964 1.1438 0.5332
C10 C 0.3746(2) 1.2418(2) 0.4550(3)
H19 H 0.3973 1.2493 0.3957
H20 H 0.4060 1.3059 0.5137
C11 C 0.2519(2) 1.2291(2) 0.4358(3)
H21 H 0.2195 1.1632 0.3796
H22 H 0.2285 1.2271 0.4967
C12 C 0.2120(2) 1.3175(2) 0.4094(3)
H23 H 0.2536 1.3833 0.4603
H24 H 0.2259 1.3128 0.3431
C13 C 0.3630(3) 0.9522(2) 0.2414(2)
H25 H 0.3625 0.9226 0.1717
C14 C 0.3390(2) 0.9674(2) 0.3837(2)
H26 H 0.3194 0.9546 0.4391
C15 C -0.0450(2) 1.3350(2) 0.4587(2)
H27 H -0.0934 1.3509 0.5025
C16 C 0.0130(2) 1.2862(2) 0.3276(2)
H28 H 0.0181 1.2603 0.2591
C17 C 0.0656(2) 0.8624(2) 0.3265(2)
C18 C 0.0325(2) 0.9340(2) 0.4170(2)
C19 C 0.0467(2) 0.9166(2) 0.5071(2)
H29 H 0.0786 0.8594 0.5123
C20 C -0.0149(2) 1.0182(2) 0.4107(2)
H30 H -0.0255 1.0310 0.3496
C21 C 0.4247(2) 0.6257(2) 0.1727(2)
C22 C 0.4636(2) 0.5604(2) 0.0833(2)
C23 C 0.4385(2) 0.5738(2) -0.0085(2)
H31 H 0.3963 0.6248 -0.0149
C24 C 0.5260(2) 0.4857(2) 0.0908(2)
H32 H 0.5444 0.4756 0.1530
C25 C 0.8498(2) 0.6658(2) 0.2640(2)
H33 H 0.9039 0.6954 0.2356
H34 H 0.8759 0.6930 0.3383
C26 C 0.7413(2) 0.6989(2) 0.2361(2)
H35 H 0.7147 0.6709 0.1619
H36 H 0.6875 0.6703 0.2654
C27 C 0.7520(2) 0.8155(2) 0.2749(2)
H37 H 0.8075 0.8439 0.2472
H38 H 0.7770 0.8430 0.3493
C28 C 0.6451(2) 0.8506(2) 0.2456(2)
H39 H 0.6191 0.8225 0.1713
H40 H 0.5898 0.8240 0.2748
C29 C 0.8282(2) 0.4045(2) 0.1232(2)
H41 H 0.8293 0.3480 0.0642
C30 C 0.8144(2) 0.4884(2) 0.2686(2)
H42 H 0.8038 0.5078 0.3353
C31 C 0.6923(2) 1.1139(2) 0.3859(2)
H43 H 0.7024 1.1720 0.4465
C32 C 0.6808(2) 1.0251(2) 0.2343(2)
H44 H 0.6805 1.0031 0.1646
C33 C 0.8382(2) 0.12938(19) 0.0574(2)
C34 C 0.9219(2) 0.06220(19) 0.0273(2)
C35 C 0.9420(2) 0.0354(2) -0.0690(2)
H45 H 0.9024 0.0594 -0.1166
C36 C 0.9806(2) 0.0259(2) 0.0961(2)
H46 H 0.9675 0.0433 0.1619
C37 C 0.6733(2) 0.38649(19) 0.4441(2)
C38 C 0.5836(2) 0.44609(19) 0.4732(2)
C39 C 0.5756(2) 0.48504(19) 0.5734(2)
H47 H 0.6278 0.4752 0.6240
C40 C 0.5076(2) 0.46213(19) 0.4001(2)
H48 H 0.5128 0.4368 0.3316
Mn1A Mn -0.23803(3) 1.26548(3) 0.75225(3)
Mn1A_2 Mn 0.76197(3) 0.26548(3) -0.24775(3)
Mn1_2 Mn 1.23803(3) -0.26548(3) 0.24775(3)
Mn2_2 Mn -0.24473(3) 1.25679(3) 0.25029(3)
Mn2_3 Mn 0.75527(3) 1.25679(3) 0.25029(3)
Mn2A Mn 1.24473(3) -0.25679(3) -0.25029(3)
Mn2A_2 Mn 0.24473(3) 0.74321(3) 0.74971(3)
Mn2_4 Mn 0.75527(3) -0.74321(3) 0.25029(3)
Mn2A_3 Mn -0.75527(3) 1.74321(3) 0.74971(3)
O1A O -0.12929(15) 1.19768(14) 0.65750(15)
O2A O -0.02720(17) 1.13379(16) 0.75795(16)
O3A O 0.64621(16) 0.32111(15) -0.15591(15)
O3A_2 O -0.35379(16) 1.32111(15) 0.84409(15)
O4A O 0.53486(18) 0.37601(18) -0.25736(17)
O5A O -0.12980(18) 1.25437(16) 0.88135(16)
H1A H -0.156(3) 1.221(3) 0.914(3)
H2A H -0.087(3) 1.214(3) 0.847(3)
O6A O -0.34796(17) 1.27581(16) 0.62352(16)
H3A H -0.326(4) 1.303(3) 0.590(4)
H4A H -0.404(4) 1.309(3) 0.653(3)
O7A O 1.17371(15) -0.14894(14) -0.14631(14)
O7_2 O -0.17371(15) 1.14894(14) 0.14631(14)
O8A O 1.21263(15) -0.16070(15) 0.00587(15)
O9A O 0.32103(16) 0.63987(14) 0.64708(14)
O9_2 O -0.32103(16) 1.36013(14) 0.35292(14)
O10A O 0.26544(16) 0.63345(16) 0.48945(15)
N1A N -0.13276(19) 1.59471(17) 0.89817(18)
N2A N -0.1208(2) 1.59518(19) 0.8068(2)
N3A N -0.1630(2) 1.43313(18) 0.80007(18)
N4A N -0.41506(18) 1.84210(18) 0.91006(18)
N5A N -0.4503(2) 1.8486(2) 0.99463(19)
N6A N -0.58978(18) 1.79071(17) 0.85893(17)
N6_2 N -0.41022(18) 1.20929(17) 0.14107(17)
N7_2 N 1.38623(18) 0.05683(17) 0.38780(18)
N8_2 N 1.4028(2) 0.04907(19) 0.2958(2)
N9_2 N 1.32282(19) -0.10218(17) 0.29178(18)
N9A N -0.32282(19) 1.10218(17) 0.70822(18)
N10_2 N 1.09647(18) 0.31732(18) 0.40545(18)
N11_2 N 1.0609(2) 0.3492(2) 0.49215(19)
N12_2 N 0.92086(18) 0.29597(17) 0.35753(17)
N13_2 N 0.84040(19) -0.44611(16) 0.22562(17)
N14_2 N 0.8493(2) -0.49893(18) 0.13017(19)
N15_2 N 0.80514(18) -0.60776(16) 0.20620(17)
N15_3 N -0.19486(18) 1.39224(16) 0.20620(17)
N16_2 N 0.65956(19) -0.03706(16) 0.28255(17)
N17_2 N 0.6672(2) 0.01911(18) 0.38154(18)
N18_2 N 0.70271(18) 0.12249(16) 0.29749(17)
N18_3 N -0.29729(18) 1.12249(16) 0.29749(17)
C1A C -0.1201(3) 1.6896(2) 0.9855(2)
H5A H -0.1090 1.6728 1.0473
H6A H -0.0541 1.7360 0.9902
C2A C -0.2176(3) 1.7474(2) 0.9821(3)
H7A H -0.2069 1.8052 1.0474
H8A H -0.2841 1.7000 0.9740
C3A C -0.2338(2) 1.7889(2) 0.8986(3)
H9A H -0.1619 1.8149 0.8916
H10A H -0.2695 1.7317 0.8347
C4A C -0.3010(2) 1.8744(2) 0.9138(3)
H11A H -0.2977 1.9040 0.8611
H12A H -0.2683 1.9295 0.9800
C5A C -0.1400(3) 1.4965(2) 0.7514(2)
H13A H -0.1378 1.4715 0.6822
C6A C -0.1574(2) 1.4981(2) 0.8922(2)
H14A H -0.1693 1.4787 0.9467
C7A C -0.5558(2) 1.8172(2) 0.9592(2)
H15A H -0.6039 1.8136 1.0013
C8A C -0.4982(2) 1.8081(2) 0.8312(2)
H16A H -0.4932 1.7974 0.7639
C9_2 C 1.4205(2) 0.1530(2) 0.4751(2)
H17_2 H 1.5006 0.1695 0.4932
H18_2 H 1.3964 0.1438 0.5332
C10_2 C 1.3746(2) 0.2418(2) 0.4550(3)
H19_2 H 1.3973 0.2493 0.3957
H20_2 H 1.4060 0.3059 0.5137
C11_2 C 1.2519(2) 0.2291(2) 0.4358(3)
H21_2 H 1.2195 0.1632 0.3796
H22_2 H 1.2285 0.2271 0.4967
C12_2 C 1.2120(2) 0.3175(2) 0.4094(3)
H23_2 H 1.2536 0.3833 0.4603
H24_2 H 1.2259 0.3128 0.3431
C13_2 C 1.3630(3) -0.0478(2) 0.2414(2)
H25_2 H 1.3625 -0.0774 0.1717
C14_2 C 1.3390(2) -0.0326(2) 0.3837(2)
H26_2 H 1.3194 -0.0454 0.4391
C15_2 C 0.9550(2) 0.3350(2) 0.4587(2)
H27_2 H 0.9066 0.3509 0.5025
C16_2 C 1.0130(2) 0.2862(2) 0.3276(2)
H28_2 H 1.0181 0.2603 0.2591
C17A C -0.0656(2) 1.1376(2) 0.6735(2)
C18A C -0.0325(2) 1.0660(2) 0.5830(2)
C19A C -0.0467(2) 1.0834(2) 0.4929(2)
H29A H -0.0786 1.1406 0.4877
C20A C 0.0149(2) 0.9818(2) 0.5893(2)
H30A H 0.0255 0.9690 0.6504
C21A C 0.5753(2) 0.3743(2) -0.1727(2)
C22A C 0.5364(2) 0.4396(2) -0.0833(2)
C23A C 0.5615(2) 0.4262(2) 0.0085(2)
H31A H 0.6037 0.3752 0.0149
C24A C 0.4740(2) 0.5143(2) -0.0908(2)
H32A H 0.4556 0.5244 -0.1530
C25_2 C 0.8498(2) -0.3342(2) 0.2640(2)
H33_2 H 0.9039 -0.3046 0.2356
H34_2 H 0.8759 -0.3070 0.3383
C26_2 C 0.7413(2) -0.3011(2) 0.2361(2)
H35_2 H 0.7147 -0.3291 0.1619
H36_2 H 0.6875 -0.3297 0.2654
C27_2 C 0.7520(2) -0.1845(2) 0.2749(2)
H37_2 H 0.8075 -0.1561 0.2472
H38_2 H 0.7770 -0.1570 0.3493
C28_2 C 0.6451(2) -0.1494(2) 0.2456(2)
H39_2 H 0.6191 -0.1775 0.1713
H40_2 H 0.5898 -0.1760 0.2748
C29_2 C 0.8282(2) -0.5955(2) 0.1232(2)
H41_2 H 0.8293 -0.6520 0.0642
C30_2 C 0.8144(2) -0.5116(2) 0.2686(2)
H42_2 H 0.8038 -0.4922 0.3353
C31_2 C 0.6923(2) 0.1139(2) 0.3859(2)
H43_2 H 0.7024 0.1720 0.4465
C32_2 C 0.6808(2) 0.0251(2) 0.2343(2)
H44_2 H 0.6805 0.0031 0.1646
C33A C 1.1618(2) -0.12938(19) -0.0574(2)
C34A C 1.0781(2) -0.06220(19) -0.0273(2)
C35A C 1.0580(2) -0.0354(2) 0.0690(2)
H45A H 1.0976 -0.0594 0.1166
C36A C 1.0194(2) -0.0259(2) -0.0961(2)
H46A H 1.0325 -0.0433 -0.1619
C37A C 0.3267(2) 0.61351(19) 0.5559(2)
C38A C 0.4164(2) 0.55391(19) 0.5268(2)
C39A C 0.4244(2) 0.51496(19) 0.4266(2)
H47A H 0.3722 0.5248 0.3760
C40A C 0.4924(2) 0.53787(19) 0.5999(2)
H48A H 0.4872 0.5632 0.6684
loop_
_geom_bond_atom_site_label_1
_geom_bond_atom_site_label_2
_geom_bond_site_symmetry_1
_geom_bond_site_symmetry_2
Mn1 O1 1_555 1_555
Mn2 O7 1_555 1_555
O1 C17 1_555 1_555
O2 C17 1_555 1_555
O3 Mn1 1_555 1_555
O4 C21 1_555 1_555
O5 Mn1 1_555 1_555
H1 O5 1_555 1_555
H2 O5 1_555 1_555
O6 Mn1 1_555 1_555
H3 O6 1_555 1_555
H4 O6 1_555 1_555
O7 C33 1_555 1_555
O8 C33 1_555 1_555
O9 Mn2 1_555 1_555
O10 C37 1_555 1_555
N1 N2 1_555 1_555
N2 C5 1_555 1_555
N3 Mn1 1_555 1_555
N4 N5 1_555 1_555
N5 C7 1_555 1_555
N6 Mn2 1_555 1_555
N7 N8 1_555 1_555
N8 C13 1_555 1_555
N9 Mn1 1_555 1_555
N10 N11 1_555 1_555
N11 C15 1_555 1_555
N12 C15 1_555 1_555
N13 N14 1_555 1_555
N14 C29 1_555 1_555
N15 Mn2 1_555 1_555
N16 N17 1_555 1_555
N17 C31 1_555 1_555
N18 C31 1_555 1_555
C1 N1 1_555 1_555
H5 C1 1_555 1_555
H6 C1 1_555 1_555
C2 C1 1_555 1_555
H7 C2 1_555 1_555
H8 C2 1_555 1_555
C3 C2 1_555 1_555
H9 C3 1_555 1_555
H10 C3 1_555 1_555
C4 N4 1_555 1_555
H11 C4 1_555 1_555
H12 C4 1_555 1_555
C5 N3 1_555 1_555
H13 C5 1_555 1_555
C6 N1 1_555 1_555
H14 C6 1_555 1_555
C7 N6 1_555 1_555
H15 C7 1_555 1_555
C8 N4 1_555 1_555
H16 C8 1_555 1_555
C9 N7 1_555 1_555
H17 C9 1_555 1_555
H18 C9 1_555 1_555
C10 C9 1_555 1_555
H19 C10 1_555 1_555
H20 C10 1_555 1_555
C11 C10 1_555 1_555
H21 C11 1_555 1_555
H22 C11 1_555 1_555
C12 N10 1_555 1_555
H23 C12 1_555 1_555
H24 C12 1_555 1_555
C13 N9 1_555 1_555
H25 C13 1_555 1_555
C14 N7 1_555 1_555
H26 C14 1_555 1_555
C15 H27 1_555 1_555
C16 N10 1_555 1_555
H28 C16 1_555 1_555
C17 C18 1_555 1_555
C18 C19 1_555 1_555
C19 H29 1_555 1_555
C20 C18 1_555 1_555
H30 C20 1_555 1_555
C21 O3 1_555 1_555
C22 C21 1_555 1_555
C23 C22 1_555 1_555
H31 C23 1_555 1_555
C24 C22 1_555 1_555
H32 C24 1_555 1_555
C25 N13 1_555 1_555
H33 C25 1_555 1_555
H34 C25 1_555 1_555
C26 C25 1_555 1_555
H35 C26 1_555 1_555
H36 C26 1_555 1_555
C27 C26 1_555 1_555
H37 C27 1_555 1_555
H38 C27 1_555 1_555
C28 N16 1_555 1_555
H39 C28 1_555 1_555
H40 C28 1_555 1_555
C29 N15 1_555 1_555
H41 C29 1_555 1_555
C30 N13 1_555 1_555
H42 C30 1_555 1_555
C31 H43 1_555 1_555
C32 N16 1_555 1_555
H44 C32 1_555 1_555
C33 C34 1_555 1_555
C34 C35 1_555 1_555
C35 H45 1_555 1_555
C36 C34 1_555 1_555
H46 C36 1_555 1_555
C37 O9 1_555 1_555
C38 C37 1_555 1_555
C39 C38 1_555 1_555
H47 C39 1_555 1_555
C40 C38 1_555 1_555
H48 C40 1_555 1_555
Mn1A O1A 1_555 1_555
Mn1A_2 O3A 1_555 1_555
Mn1_2 N9_2 1_555 1_555
Mn2_2 N12 1_555 1_555
Mn2_3 N18 1_555 1_555
Mn2A O7A 1_555 1_555
Mn2A_2 O9A 1_555 1_555
Mn2_4 N15_2 1_555 1_555
Mn2A_3 N6A 1_555 1_555
O1A C17A 1_555 1_555
O2A C17A 1_555 1_555
O3A C21A 1_555 1_555
O3A_2 Mn1A 1_555 1_555
O4A C21A 1_555 1_555
O5A Mn1A 1_555 1_555
H1A O5A 1_555 1_555
H2A O5A 1_555 1_555
O6A Mn1A 1_555 1_555
H3A O6A 1_555 1_555
H4A O6A 1_555 1_555
O7A C33A 1_555 1_555
O7_2 Mn2_2 1_555 1_555
O8A C33A 1_555 1_555
O9A C37A 1_555 1_555
O9_2 Mn2_2 1_555 1_555
O10A C37A 1_555 1_555
N1A N2A 1_555 1_555
N2A C5A 1_555 1_555
N3A Mn1A 1_555 1_555
N4A N5A 1_555 1_555
N5A C7A 1_555 1_555
N6A C7A 1_555 1_555
N6_2 Mn2_2 1_555 1_555
N7_2 N8_2 1_555 1_555
N8_2 C13_2 1_555 1_555
N9_2 C13_2 1_555 1_555
N9A Mn1A 1_555 1_555
N10_2 N11_2 1_555 1_555
N11_2 C15_2 1_555 1_555
N12_2 Mn2 1_555 1_555
N13_2 N14_2 1_555 1_555
N14_2 C29_2 1_555 1_555
N15_2 C29_2 1_555 1_555
N15_3 Mn2_2 1_555 1_555
N16_2 N17_2 1_555 1_555
N17_2 C31_2 1_555 1_555
N18_2 Mn2 1_555 1_555
N18_3 Mn2_2 1_555 1_555
C1A N1A 1_555 1_555
H5A C1A 1_555 1_555
H6A C1A 1_555 1_555
C2A C1A 1_555 1_555
H7A C2A 1_555 1_555
H8A C2A 1_555 1_555
C3A C2A 1_555 1_555
H9A C3A 1_555 1_555
H10A C3A 1_555 1_555
C4A N4A 1_555 1_555
H11A C4A 1_555 1_555
H12A C4A 1_555 1_555
C5A N3A 1_555 1_555
H13A C5A 1_555 1_555
C6A N1A 1_555 1_555
H14A C6A 1_555 1_555
C7A H15A 1_555 1_555
C8A N4A 1_555 1_555
H16A C8A 1_555 1_555
C9_2 N7_2 1_555 1_555
H17_2 C9_2 1_555 1_555
H18_2 C9_2 1_555 1_555
C10_2 C9_2 1_555 1_555
H19_2 C10_2 1_555 1_555
H20_2 C10_2 1_555 1_555
C11_2 C10_2 1_555 1_555
H21_2 C11_2 1_555 1_555
H22_2 C11_2 1_555 1_555
C12_2 N10_2 1_555 1_555
H23_2 C12_2 1_555 1_555
H24_2 C12_2 1_555 1_555
C13_2 H25_2 1_555 1_555
C14_2 N7_2 1_555 1_555
H26_2 C14_2 1_555 1_555
C15_2 N12_2 1_555 1_555
H27_2 C15_2 1_555 1_555
C16_2 N10_2 1_555 1_555
H28_2 C16_2 1_555 1_555
C17A C18A 1_555 1_555
C18A C19A 1_555 1_555
C19A C20 1_555 1_555
H29A C19A 1_555 1_555
C20A C19 1_555 1_555
H30A C20A 1_555 1_555
C21A C22A 1_555 1_555
C22A C23A 1_555 1_555
C23A C24 1_555 1_555
H31A C23A 1_555 1_555
C24A C23 1_555 1_555
H32A C24A 1_555 1_555
C25_2 N13_2 1_555 1_555
H33_2 C25_2 1_555 1_555
H34_2 C25_2 1_555 1_555
C26_2 C25_2 1_555 1_555
H35_2 C26_2 1_555 1_555
H36_2 C26_2 1_555 1_555
C27_2 C26_2 1_555 1_555
H37_2 C27_2 1_555 1_555
H38_2 C27_2 1_555 1_555
C28_2 N16_2 1_555 1_555
H39_2 C28_2 1_555 1_555
H40_2 C28_2 1_555 1_555
C29_2 H41_2 1_555 1_555
C30_2 N13_2 1_555 1_555
H42_2 C30_2 1_555 1_555
C31_2 N18_2 1_555 1_555
H43_2 C31_2 1_555 1_555
C32_2 N16_2 1_555 1_555
H44_2 C32_2 1_555 1_555
C33A C34A 1_555 1_555
C34A C35A 1_555 1_555
C35A C36 1_555 1_555
H45A C35A 1_555 1_555
C36A C35 1_555 1_555
H46A C36A 1_555 1_555
C37A C38A 1_555 1_555
C38A C39A 1_555 1_555
C39A C40 1_555 1_555
H47A C39A 1_555 1_555
C40A C39 1_555 1_555
H48A C40A 1_555 1_555
N3 C6 1_555 1_555
N6 C8 1_555 1_555
N9 C14 1_555 1_555
N12 C16 1_555 1_555
N15 C30 1_555 1_555
N18 C32 1_555 1_555
C3 C4 1_555 1_555
C11 C12 1_555 1_555
C27 C28 1_555 1_555
N3A C6A 1_555 1_555
N6A C8A 1_555 1_555
N9_2 C14_2 1_555 1_555
N12_2 C16_2 1_555 1_555
N15_2 C30_2 1_555 1_555
N18_2 C32_2 1_555 1_555
C3A C4A 1_555 1_555
C11_2 C12_2 1_555 1_555
C18A C20A 1_555 1_555
C22A C24A 1_555 1_555
C27_2 C28_2 1_555 1_555
C34A C36A 1_555 1_555
C38A C40A 1_555 1_555

#END
