
#######################################################################
#
#                 Cambridge Crystallographic Data Centre
#                                CCDC 
#
#######################################################################
#
# If this CIF has been generated from an entry in the Cambridge 
# Structural Database, then it will include bibliographic, chemical, 
# crystal, experimental, refinement or atomic coordinate data resulting 
# from the CCDC's data processing and validation procedures.
#
#######################################################################

data_LEDGAE
_symmetry_cell_setting           monoclinic
_symmetry_space_group_name_H-M   'C 2/c'
_symmetry_Int_Tables_number      15
_space_group_name_Hall           '-C 2yn'
loop_
_symmetry_equiv_pos_site_id
_symmetry_equiv_pos_as_xyz
1 x,y,z
2 -x,y,1/2-z
3 1/2+x,1/2+y,z
4 1/2-x,1/2+y,1/2-z
5 -x,-y,-z
6 x,-y,1/2+z
7 1/2-x,1/2-y,-z
8 1/2+x,1/2-y,1/2+z
_cell_length_a                   31.177(7)
_cell_length_b                   9.635(2)
_cell_length_c                   29.183(6)
_cell_angle_alpha                90
_cell_angle_beta                 112.216(3)
_cell_angle_gamma                90
_cell_volume                     8115.53
loop_
_atom_site_label
_atom_site_type_symbol
_atom_site_fract_x
_atom_site_fract_y
_atom_site_fract_z
Cd1 Cd 0.0000 1.0000 0.0000
Cd2 Cd 0.11640(2) 0.83240(7) 0.07176(2)
Cd3 Cd 0.21112(2) 0.94377(7) 0.17343(2)
N1 N -0.0079(2) 1.1207(8) 0.0632(2)
C1 C -0.0317(3) 1.0796(9) 0.0933(3)
C2 C -0.0242(3) 1.1782(10) 0.1305(3)
N2 N 0.0044(3) 1.2787(8) 0.1218(3)
H1 H 0.0145 1.3528 0.1389
C3 C 0.0129(3) 1.2394(9) 0.0826(3)
O1 O 0.14748(19) 0.8058(7) 0.1608(2)
N3 N 0.1250(2) 0.7736(8) 0.0023(3)
N4 N 0.2869(2) 0.6159(8) 0.2784(2)
O2 O 0.07623(19) 1.0815(7) 0.0295(2)
C4 C 0.0433(3) 1.3229(10) 0.0641(3)
H2 H 0.0418 1.4197 0.0726
H3 H 0.0319 1.3160 0.0283
C5 C -0.0438(4) 1.1658(11) 0.1644(3)
H4 H -0.0383 1.2324 0.1891
C6 C 0.0941(3) 1.2739(10) 0.0861(3)
H5 H 0.1128 1.3362 0.0752
H6 H 0.1052 1.2794 0.1219
O3 O 0.1388(2) 0.6157(7) 0.1167(2)
O4 O 0.1996(2) 0.8677(8) 0.0960(2)
N5 N 0.2578(3) 0.7782(8) 0.2189(3)
O5 O 0.2510(3) 1.0339(8) 0.1214(3)
C7 C 0.1510(3) 0.6749(12) 0.1575(4)
C8 C 0.1524(3) 0.8364(10) -0.0166(3)
C9 C 0.1110(3) 0.6491(10) -0.0232(3)
N6 N 0.1569(3) 0.7567(9) -0.0528(3)
H7 H 0.1731 0.7775 -0.0700
C10 C 0.1319(4) 0.6396(11) -0.0576(4)
C11 C 0.3045(3) 0.7630(10) 0.2290(3)
C12 C 0.3324(4) 0.8320(10) 0.2085(4)
H8 H 0.3200 0.8969 0.1834
C13 C 0.3785(4) 0.8004(12) 0.2269(4)
H9 H 0.3983 0.8455 0.2146
C14 C 0.1006(3) 1.1289(10) 0.0716(3)
O6 O 0.1304(2) 1.0539(7) 0.1027(2)
C15 C -0.0591(3) 0.9670(10) 0.0904(3)
H10 H -0.0645 0.9004 0.0658
C16 C -0.0721(4) 1.0539(12) 0.1623(4)
H11 H -0.0864 1.0444 0.1849
C17 C -0.0786(4) 0.9562(12) 0.1256(4)
H12 H -0.0969 0.8793 0.1245
C18 C 0.3697(3) 0.6329(10) 0.2842(4)
H13 H 0.3823 0.5682 0.3093
C19 C 0.3962(4) 0.6997(12) 0.2643(4)
H14 H 0.4277 0.6786 0.2758
C20 C 0.2012(3) 0.6638(10) 0.2491(3)
H15 H 0.2044 0.6106 0.2785
H16 H 0.1877 0.7528 0.2517
C21 C 0.2483(3) 0.6880(10) 0.2486(3)
C22 C 0.1751(4) 0.9731(10) -0.0022(4)
H17 H 0.1566 1.0292 0.0111
H18 H 0.1753 1.0192 -0.0316
C23 C 0.2245(3) 0.9666(12) 0.0359(4)
H19 H 0.2401 0.8871 0.0290
H20 H 0.2410 1.0495 0.0333
C24 C 0.2255(3) 0.9552(11) 0.0875(4)
C25 C 0.0811(3) 0.5458(10) -0.0201(4)
H21 H 0.0668 0.5519 0.0026
C26 C 0.0736(5) 0.4376(13) -0.0507(5)
H22 H 0.0547 0.3660 -0.0479
C27 C 0.0932(5) 0.4272(14) -0.0869(5)
H23 H 0.0855 0.3526 -0.1088
C28 C 0.1238(5) 0.5280(13) -0.0902(5)
H24 H 0.1382 0.5212 -0.1128
C29 C 0.3218(3) 0.6641(10) 0.2656(3)
C30 C 0.1686(3) 0.5893(11) 0.2048(3)
H25 H 0.1422 0.5583 0.2120
H26 H 0.1840 0.5073 0.1992
Cl1 Cl 0.03329(7) 0.7851(3) 0.06111(8)
Cd2D Cd -0.11640(2) 1.16760(7) -0.07176(2)
Cd2C Cd 0.38360(2) 1.33240(7) 0.42824(2)
Cd3D Cd -0.21112(2) 1.05623(7) -0.17343(2)
Cd3C Cd 0.28888(2) 0.44377(7) 0.32657(2)
Cd3C_2 Cd 0.28888(2) 1.44377(7) 0.32657(2)
N1D N 0.0079(2) 0.8793(8) -0.0632(2)
C1D C 0.0317(3) 0.9204(9) -0.0933(3)
C2D C 0.0242(3) 0.8218(10) -0.1305(3)
N2D N -0.0044(3) 0.7213(8) -0.1218(3)
H1D H -0.0145 0.6472 -0.1389
C3D C -0.0129(3) 0.7606(9) -0.0826(3)
O1C O 0.35252(19) 1.3058(7) 0.3392(2)
O1D O -0.14748(19) 1.1942(7) -0.1608(2)
N3D N -0.1250(2) 1.2264(8) -0.0023(3)
N4C N 0.2131(2) 1.1159(8) 0.2216(2)
N4G N -0.2131(2) 0.8841(8) -0.2216(2)
O2D O -0.07623(19) 0.9185(7) -0.0295(2)
C4D C -0.0433(3) 0.6771(10) -0.0641(3)
H2D H -0.0418 0.5803 -0.0726
H3D H -0.0319 0.6840 -0.0283
C5D C 0.0438(4) 0.8342(11) -0.1644(3)
H4D H 0.0383 0.7676 -0.1891
C6D C -0.0941(3) 0.7261(10) -0.0861(3)
H5D H -0.1128 0.6638 -0.0752
H6D H -0.1052 0.7206 -0.1219
O3C O 0.3612(2) 1.1157(7) 0.3833(2)
O3D O -0.1388(2) 1.3843(7) -0.1167(2)
O4D O -0.1996(2) 1.1323(8) -0.0960(2)
N5C N 0.2422(3) 1.2782(8) 0.2811(3)
N5D N -0.2578(3) 1.2218(8) -0.2189(3)
O5D O -0.2510(3) 0.9661(8) -0.1214(3)
C7C C 0.3490(3) 1.1749(12) 0.3425(4)
C8D C -0.1524(3) 1.1636(10) 0.0166(3)
C9D C -0.1110(3) 1.3509(10) 0.0232(3)
N6D N -0.1569(3) 1.2433(9) 0.0528(3)
H7D H -0.1731 1.2225 0.0700
C10D C -0.1319(4) 1.3604(11) 0.0576(4)
C11C C 0.1955(3) 1.2630(10) 0.2710(3)
C12C C 0.1676(4) 1.3320(10) 0.2915(4)
H8C H 0.1800 1.3969 0.3166
C13C C 0.1215(4) 1.3004(12) 0.2731(4)
H9C H 0.1017 1.3455 0.2854
C14D C -0.1006(3) 0.8711(10) -0.0716(3)
O6D O -0.1304(2) 0.9461(7) -0.1027(2)
C15D C 0.0591(3) 1.0330(10) -0.0904(3)
H10D H 0.0645 1.0996 -0.0658
C16D C 0.0721(4) 0.9461(12) -0.1623(4)
H11D H 0.0864 0.9556 -0.1849
C17D C 0.0786(4) 1.0438(12) -0.1256(4)
H12D H 0.0969 1.1207 -0.1245
C18C C 0.1303(3) 1.1329(10) 0.2158(4)
H13C H 0.1177 1.0682 0.1907
C19C C 0.1038(4) 1.1997(12) 0.2357(4)
H14C H 0.0723 1.1786 0.2242
C20C C 0.2988(3) 1.1638(10) 0.2509(3)
H15C H 0.2956 1.1106 0.2215
H16C H 0.3123 1.2528 0.2483
C21C C 0.2517(3) 1.1880(10) 0.2514(3)
C22D C -0.1751(4) 1.0269(10) 0.0022(4)
H17D H -0.1566 0.9708 -0.0111
H18D H -0.1753 0.9808 0.0316
C23D C -0.2245(3) 1.0334(12) -0.0359(4)
H19D H -0.2401 1.1129 -0.0290
H20D H -0.2410 0.9505 -0.0333
C24D C -0.2255(3) 1.0448(11) -0.0875(4)
C25D C -0.0811(3) 1.4542(10) 0.0201(4)
H21D H -0.0668 1.4481 -0.0026
C26D C -0.0736(5) 1.5624(13) 0.0507(5)
H22D H -0.0547 1.6340 0.0479
C27D C -0.0932(5) 1.5728(14) 0.0869(5)
H23D H -0.0855 1.6474 0.1088
C28D C -0.1238(5) 1.4720(13) 0.0902(5)
H24D H -0.1382 1.4788 0.1128
C29C C 0.1782(3) 1.1641(10) 0.2344(3)
C30C C 0.3314(3) 1.0893(11) 0.2952(3)
H25C H 0.3578 1.0583 0.2880
H26C H 0.3160 1.0073 0.3008
Cl1D Cl -0.03329(7) 1.2149(3) -0.06111(8)
O7 O 0.0320(4) 0.4985(10) 0.1874(3)
N7 N 0.0488(3) 0.7102(10) 0.2147(3)
C31 C 0.0346(4) 0.6204(13) 0.1811(4)
H27 H 0.0252 0.6513 0.1486
C32 C 0.0652(5) 0.6785(14) 0.2657(4)
H28 H 0.0622 0.5807 0.2699
H29 H 0.0474 0.7287 0.2808
H30 H 0.0972 0.7048 0.2811
C33 C 0.0516(6) 0.8498(15) 0.2053(5)
H31 H 0.0405 0.8647 0.1701
H32 H 0.0833 0.8797 0.2201
H33 H 0.0330 0.9018 0.2189
O8 O 0.2800(4) 0.6401(12) 0.0858(4)
N8 N 0.2533(5) 0.4768(17) 0.1127(4)
C34 C 0.2498(7) 0.582(2) 0.0916(7)
H34 H 0.2206 0.6220 0.0785
C35 C 0.2958(7) 0.406(3) 0.1330(9)
H35 H 0.3187 0.4534 0.1241
H36 H 0.2921 0.3131 0.1204
H37 H 0.3057 0.4038 0.1684
C36 C 0.2235(7) 0.3986(18) 0.1229(7)
H38 H 0.1954 0.4496 0.1164
H39 H 0.2364 0.3724 0.1572
H40 H 0.2170 0.3168 0.1027
loop_
_geom_bond_atom_site_label_1
_geom_bond_atom_site_label_2
_geom_bond_site_symmetry_1
_geom_bond_site_symmetry_2
Cd1 N1 1_555 1_555
Cd2 O1 1_555 1_555
Cd3 O1 1_555 1_555
N1 C1 1_555 1_555
C1 C2 1_555 1_555
C2 N2 1_555 1_555
N2 H1 1_555 1_555
C3 N1 1_555 1_555
O1 C7 1_555 1_555
N3 Cd2 1_555 1_555
N4 C21 1_555 1_555
O2 Cd1 1_555 1_555
C4 C3 1_555 1_555
H2 C4 1_555 1_555
H3 C4 1_555 1_555
C5 C2 1_555 1_555
H4 C5 1_555 1_555
C6 C4 1_555 1_555
H5 C6 1_555 1_555
H6 C6 1_555 1_555
O3 Cd2 1_555 1_555
O4 Cd2 1_555 1_555
N5 Cd3 1_555 1_555
O5 Cd3 1_555 1_555
C7 O3 1_555 1_555
C8 N3 1_555 1_555
C9 N3 1_555 1_555
N6 C8 1_555 1_555
H7 N6 1_555 1_555
C10 C9 1_555 1_555
C11 N5 1_555 1_555
C12 C11 1_555 1_555
H8 C12 1_555 1_555
C13 C12 1_555 1_555
H9 C13 1_555 1_555
C14 O2 1_555 1_555
O6 Cd2 1_555 1_555
C15 C1 1_555 1_555
H10 C15 1_555 1_555
C16 C5 1_555 1_555
H11 C16 1_555 1_555
C17 C15 1_555 1_555
H12 C17 1_555 1_555
C18 H13 1_555 1_555
C19 C13 1_555 1_555
H14 C19 1_555 1_555
C20 H15 1_555 1_555
H16 C20 1_555 1_555
C21 N5 1_555 1_555
C22 C8 1_555 1_555
H17 C22 1_555 1_555
H18 C22 1_555 1_555
C23 C22 1_555 1_555
H19 C23 1_555 1_555
H20 C23 1_555 1_555
C24 O4 1_555 1_555
C25 C9 1_555 1_555
H21 C25 1_555 1_555
C26 C25 1_555 1_555
H22 C26 1_555 1_555
C27 C26 1_555 1_555
H23 C27 1_555 1_555
C28 C10 1_555 1_555
H24 C28 1_555 1_555
C29 N4 1_555 1_555
C30 C7 1_555 1_555
H25 C30 1_555 1_555
H26 C30 1_555 1_555
Cl1 Cd1 1_555 1_555
O7 C31 1_555 1_555
N7 C31 1_555 1_555
C31 H27 1_555 1_555
C32 N7 1_555 1_555
H28 C32 1_555 1_555
H29 C32 1_555 1_555
H30 C32 1_555 1_555
C33 N7 1_555 1_555
H31 C33 1_555 1_555
H32 C33 1_555 1_555
H33 C33 1_555 1_555
O8 C34 1_555 1_555
N8 C34 1_555 1_555
C34 H34 1_555 1_555
C35 N8 1_555 1_555
H35 C35 1_555 1_555
H36 C35 1_555 1_555
H37 C35 1_555 1_555
C36 N8 1_555 1_555
H38 C36 1_555 1_555
H39 C36 1_555 1_555
H40 C36 1_555 1_555
Cd2D O1D 1_555 1_555
Cd2C O1C 1_555 1_555
Cd3D O1D 1_555 1_555
Cd3C N4 1_555 1_555
Cd3C_2 O1C 1_555 1_555
N1D Cd1 1_555 1_555
C1D N1D 1_555 1_555
C2D C1D 1_555 1_555
N2D C2D 1_555 1_555
H1D N2D 1_555 1_555
C3D N1D 1_555 1_555
O1C C7C 1_555 1_555
N3D Cd2D 1_555 1_555
N4C Cd3 1_555 1_555
N4G Cd3D 1_555 1_555
O2D Cd1 1_555 1_555
C4D C3D 1_555 1_555
H2D C4D 1_555 1_555
H3D C4D 1_555 1_555
C5D C2D 1_555 1_555
H4D C5D 1_555 1_555
C6D C4D 1_555 1_555
H5D C6D 1_555 1_555
H6D C6D 1_555 1_555
O3C Cd2C 1_555 1_555
O3D Cd2D 1_555 1_555
O4D Cd2D 1_555 1_555
N5C Cd3C_2 1_555 1_555
N5D Cd3D 1_555 1_555
O5D Cd3D 1_555 1_555
C7C O3C 1_555 1_555
C8D N3D 1_555 1_555
C9D N3D 1_555 1_555
N6D C8D 1_555 1_555
H7D N6D 1_555 1_555
C10D C9D 1_555 1_555
C11C N5C 1_555 1_555
C12C C11C 1_555 1_555
H8C C12C 1_555 1_555
C13C C12C 1_555 1_555
H9C C13C 1_555 1_555
C14D O2D 1_555 1_555
O6D Cd2D 1_555 1_555
C15D C1D 1_555 1_555
H10D C15D 1_555 1_555
C16D C5D 1_555 1_555
H11D C16D 1_555 1_555
C17D C15D 1_555 1_555
H12D C17D 1_555 1_555
C18C H13C 1_555 1_555
C19C C13C 1_555 1_555
H14C C19C 1_555 1_555
C20C H15C 1_555 1_555
H16C C20C 1_555 1_555
C21C N4C 1_555 1_555
C22D C8D 1_555 1_555
H17D C22D 1_555 1_555
H18D C22D 1_555 1_555
C23D C22D 1_555 1_555
H19D C23D 1_555 1_555
H20D C23D 1_555 1_555
C24D O4D 1_555 1_555
C25D C9D 1_555 1_555
H21D C25D 1_555 1_555
C26D C25D 1_555 1_555
H22D C26D 1_555 1_555
C27D C26D 1_555 1_555
H23D C27D 1_555 1_555
C28D C10D 1_555 1_555
H24D C28D 1_555 1_555
C29C N4C 1_555 1_555
C30C C7C 1_555 1_555
H25C C30C 1_555 1_555
H26C C30C 1_555 1_555
Cl1D Cd1 1_555 1_555
Cd2 O2 1_555 1_555
Cd2 Cl1 1_555 1_555
Cd3 O4 1_555 1_555
Cd3 O6 1_555 1_555
N2 C3 1_555 1_555
C6 C14 1_555 1_555
O5 C24 1_555 1_555
N6 C10 1_555 1_555
C11 C29 1_555 1_555
C14 O6 1_555 1_555
C16 C17 1_555 1_555
C18 C19 1_555 1_555
C18 C29 1_555 1_555
C20 C21 1_555 1_555
C20 C30 1_555 1_555
C23 C24 1_555 1_555
C27 C28 1_555 1_555
Cd2D O2D 1_555 1_555
Cd2D Cl1D 1_555 1_555
Cd3D O4D 1_555 1_555
Cd3D O6D 1_555 1_555
N2D C3D 1_555 1_555
C6D C14D 1_555 1_555
N5C C21C 1_555 1_555
O5D C24D 1_555 1_555
N6D C10D 1_555 1_555
C11C C29C 1_555 1_555
C14D O6D 1_555 1_555
C16D C17D 1_555 1_555
C18C C19C 1_555 1_555
C18C C29C 1_555 1_555
C20C C21C 1_555 1_555
C20C C30C 1_555 1_555
C23D C24D 1_555 1_555
C27D C28D 1_555 1_555

#END
