
#######################################################################
#
#                 Cambridge Crystallographic Data Centre
#                                CCDC 
#
#######################################################################
#
# If this CIF has been generated from an entry in the Cambridge 
# Structural Database, then it will include bibliographic, chemical, 
# crystal, experimental, refinement or atomic coordinate data resulting 
# from the CCDC's data processing and validation procedures.
#
#######################################################################

data_LEDGEI
_symmetry_cell_setting           tetragonal
_symmetry_space_group_name_H-M   'P -4 21 c'
_symmetry_Int_Tables_number      114
_space_group_name_Hall           'P -4 2n'
loop_
_symmetry_equiv_pos_site_id
_symmetry_equiv_pos_as_xyz
1 x,y,z
2 -x,-y,z
3 y,-x,-z
4 -y,x,-z
5 1/2-x,1/2+y,1/2-z
6 1/2+x,1/2-y,1/2-z
7 1/2-y,1/2-x,1/2+z
8 1/2+y,1/2+x,1/2+z
_cell_length_a                   20.600(3)
_cell_length_b                   20.600(3)
_cell_length_c                   8.7456(13)
_cell_angle_alpha                90
_cell_angle_beta                 90
_cell_angle_gamma                90
_cell_volume                     3711.28
loop_
_atom_site_label
_atom_site_type_symbol
_atom_site_fract_x
_atom_site_fract_y
_atom_site_fract_z
Cd1 Cd 0.15362(2) 0.49498(2) 0.24336(6)
Cd2 Cd 0.0000 0.5000 0.42526(11)
O1 O 0.0614(3) 0.5596(2) 0.1968(8)
O2 O 0.0673(3) 0.4241(3) 0.2942(8)
C1 C 0.2871(3) 0.6403(3) 0.0540(9)
C2 C 0.2699(3) 0.5778(3) 0.0969(9)
C3 C 0.1981(4) 0.6445(3) 0.1919(9)
O3 O 0.0221(3) 0.6053(3) -0.0117(6)
C4 C 0.1401(4) 0.6715(4) 0.2648(11)
H1 H 0.1495 0.7152 0.2998
H2 H 0.1292 0.6454 0.3535
C5 C 0.0551(3) 0.6095(4) 0.1136(10)
C6 C 0.0820(4) 0.6735(4) 0.1578(10)
H3 H 0.0479 0.6986 0.2063
H4 H 0.0946 0.6964 0.0655
C7 C 0.3402(4) 0.6519(4) -0.0440(10)
H5 H 0.3515 0.6935 -0.0756
C8 C 0.3064(4) 0.5247(4) 0.0487(11)
H6 H 0.2958 0.4830 0.0805
C9 C 0.3739(4) 0.5988(4) -0.0892(11)
H7 H 0.4096 0.6051 -0.1526
C10 C 0.3586(5) 0.5353(5) -0.0474(12)
H8 H 0.3831 0.5007 -0.0835
O4 O 0.0240(3) 0.3737(4) 0.4916(7)
C11 C 0.1526(3) 0.3205(3) 0.2312(12)
H9 H 0.1653 0.2783 0.1923
H10 H 0.1402 0.3471 0.1446
C12 C 0.2088(4) 0.3506(3) 0.3078(9)
C13 C 0.0943(4) 0.3122(4) 0.3352(10)
H11 H 0.0632 0.2841 0.2848
H12 H 0.1083 0.2904 0.4279
C14 C 0.0607(3) 0.3741(4) 0.3788(10)
C15 C 0.2738(3) 0.4211(3) 0.4120(9)
C16 C 0.3477(4) 0.3498(4) 0.5512(10)
H13 H 0.3613 0.3088 0.5816
C17 C 0.3578(5) 0.4665(4) 0.5573(12)
H14 H 0.3802 0.5022 0.5953
C18 C 0.3064(4) 0.4755(4) 0.4608(11)
H15 H 0.2939 0.5168 0.4295
C19 C 0.3770(4) 0.4042(4) 0.5992(12)
H16 H 0.4124 0.4000 0.6646
C20 C 0.2939(3) 0.3592(4) 0.4502(9)
N1 N 0.2134(3) 0.5814(3) 0.1850(8)
N2 N 0.2419(3) 0.6819(3) 0.1188(8)
H17 H 0.2419 0.7236 0.1135
N3 N 0.2183(3) 0.4148(3) 0.3177(7)
N4 N 0.2535(3) 0.3145(3) 0.3824(8)
Cd1A Cd -0.15362(2) 0.50502(2) 0.24336(6)
Cd1G Cd -0.00502(2) 0.65362(2) -0.25664(6)
Cd1F Cd 0.00502(2) 0.34638(2) 0.74336(6)
Cd1F_2 Cd 0.00502(2) 0.34638(2) -0.25664(6)
Cd1G_2 Cd -0.00502(2) 0.65362(2) 0.74336(6)
Cd2F Cd 0.0000 0.5000 -0.07474(11)
O1A O -0.0614(3) 0.4404(2) 0.1968(8)
O2A O -0.0673(3) 0.5759(3) 0.2942(8)
C1A C -0.2871(3) 0.3597(3) 0.0540(9)
C2A C -0.2699(3) 0.4222(3) 0.0969(9)
C3A C -0.1981(4) 0.3555(3) 0.1919(9)
O3A O -0.0221(3) 0.3947(3) -0.0117(6)
O3G O 0.1053(3) 0.5221(3) 0.4883(6)
O3F O -0.1053(3) 0.4779(3) 0.4883(6)
C4A C -0.1401(4) 0.3285(4) 0.2648(11)
H1A H -0.1495 0.2848 0.2998
H2A H -0.1292 0.3546 0.3535
C5A C -0.0551(3) 0.3905(4) 0.1136(10)
C6A C -0.0820(4) 0.3265(4) 0.1578(10)
H3A H -0.0479 0.3014 0.2063
H4A H -0.0946 0.3036 0.0655
C7A C -0.3402(4) 0.3481(4) -0.0440(10)
H5A H -0.3515 0.3065 -0.0756
C8A C -0.3064(4) 0.4753(4) 0.0487(11)
H6A H -0.2958 0.5170 0.0805
C9A C -0.3739(4) 0.4012(4) -0.0892(11)
H7A H -0.4096 0.3949 -0.1526
C10A C -0.3586(5) 0.4647(5) -0.0474(12)
H8A H -0.3831 0.4993 -0.0835
O4A O -0.0240(3) 0.6263(4) 0.4916(7)
O4F O 0.1263(4) 0.4760(3) -0.0084(7)
O4G O -0.1263(4) 0.5240(3) -0.0084(7)
C11A C -0.1526(3) 0.6795(3) 0.2312(12)
H9A H -0.1653 0.7217 0.1923
H10A H -0.1402 0.6529 0.1446
C12A C -0.2088(4) 0.6494(3) 0.3078(9)
C13A C -0.0943(4) 0.6878(4) 0.3352(10)
H11A H -0.0632 0.7159 0.2848
H12A H -0.1083 0.7096 0.4279
C14A C -0.0607(3) 0.6259(4) 0.3788(10)
C15A C -0.2738(3) 0.5789(3) 0.4120(9)
C16A C -0.3477(4) 0.6502(4) 0.5512(10)
H13A H -0.3613 0.6912 0.5816
C17A C -0.3578(5) 0.5335(4) 0.5573(12)
H14A H -0.3802 0.4978 0.5953
C18A C -0.3064(4) 0.5245(4) 0.4608(11)
H15A H -0.2939 0.4832 0.4295
C19A C -0.3770(4) 0.5958(4) 0.5992(12)
H16A H -0.4124 0.6000 0.6646
C20A C -0.2939(3) 0.6408(4) 0.4502(9)
N1A N -0.2134(3) 0.4186(3) 0.1850(8)
N2A N -0.2419(3) 0.3181(3) 0.1188(8)
H17A H -0.2419 0.2764 0.1135
N3A N -0.2183(3) 0.5852(3) 0.3177(7)
N4A N -0.2535(3) 0.6855(3) 0.3824(8)
loop_
_geom_bond_atom_site_label_1
_geom_bond_atom_site_label_2
_geom_bond_site_symmetry_1
_geom_bond_site_symmetry_2
Cd1 O1 1_555 1_555
Cd2 O1 1_555 1_555
O1 C5 1_555 1_555
O2 Cd1 1_555 1_555
C1 C2 1_555 1_555
C2 C8 1_555 1_555
C3 C4 1_555 1_555
O3 C5 1_555 1_555
C4 H1 1_555 1_555
H2 C4 1_555 1_555
C5 C6 1_555 1_555
C6 C4 1_555 1_555
H3 C6 1_555 1_555
H4 C6 1_555 1_555
C7 C1 1_555 1_555
H5 C7 1_555 1_555
C8 H6 1_555 1_555
C9 C7 1_555 1_555
H7 C9 1_555 1_555
C10 C8 1_555 1_555
H8 C10 1_555 1_555
O4 Cd2 1_555 1_555
C11 H9 1_555 1_555
H10 C11 1_555 1_555
C12 C11 1_555 1_555
C13 C11 1_555 1_555
H11 C13 1_555 1_555
H12 C13 1_555 1_555
C14 O2 1_555 1_555
C15 C18 1_555 1_555
C16 H13 1_555 1_555
C17 H14 1_555 1_555
C18 C17 1_555 1_555
H15 C18 1_555 1_555
C19 C16 1_555 1_555
H16 C19 1_555 1_555
C20 C15 1_555 1_555
N1 Cd1 1_555 1_555
N2 C1 1_555 1_555
H17 N2 1_555 1_555
N3 Cd1 1_555 1_555
N4 C12 1_555 1_555
Cd1A O1A 1_555 1_555
Cd1G O3 1_555 1_555
Cd1F O4 1_555 1_555
Cd1F_2 O3A 1_555 1_555
Cd1G_2 O4A 1_555 1_555
Cd2F O3 1_555 1_555
O1A Cd2 1_555 1_555
O2A Cd2 1_555 1_555
C1A C2A 1_555 1_555
C2A C8A 1_555 1_555
C3A C4A 1_555 1_555
O3A Cd2F 1_555 1_555
O3G Cd1 1_555 1_555
O3F Cd2 1_555 1_555
C4A H1A 1_555 1_555
H2A C4A 1_555 1_555
C5A O1A 1_555 1_555
C6A C4A 1_555 1_555
H3A C6A 1_555 1_555
H4A C6A 1_555 1_555
C7A C1A 1_555 1_555
H5A C7A 1_555 1_555
C8A H6A 1_555 1_555
C9A C7A 1_555 1_555
H7A C9A 1_555 1_555
C10A C8A 1_555 1_555
H8A C10A 1_555 1_555
O4A Cd2 1_555 1_555
O4F Cd1 1_555 1_555
O4G Cd1A 1_555 1_555
C11A H9A 1_555 1_555
H10A C11A 1_555 1_555
C12A C11A 1_555 1_555
C13A C11A 1_555 1_555
H11A C13A 1_555 1_555
H12A C13A 1_555 1_555
C14A O2A 1_555 1_555
C15A C18A 1_555 1_555
C16A H13A 1_555 1_555
C17A H14A 1_555 1_555
C18A C17A 1_555 1_555
H15A C18A 1_555 1_555
C19A C16A 1_555 1_555
H16A C19A 1_555 1_555
C20A C15A 1_555 1_555
N1A Cd1A 1_555 1_555
N2A C1A 1_555 1_555
H17A N2A 1_555 1_555
N3A Cd1A 1_555 1_555
N4A C12A 1_555 1_555
Cd2 O2 1_555 1_555
Cd2 O3G 1_555 1_555
C2 N1 1_555 1_555
C3 N1 1_555 1_555
C3 N2 1_555 1_555
C9 C10 1_555 1_555
O4 C14 1_555 1_555
C12 N3 1_555 1_555
C13 C14 1_555 1_555
C15 N3 1_555 1_555
C16 C20 1_555 1_555
C17 C19 1_555 1_555
C20 N4 1_555 1_555
Cd1A O2A 1_555 1_555
Cd1A O3F 1_555 1_555
Cd2F O4F 1_555 1_555
Cd2F O4G 1_555 1_555
C2A N1A 1_555 1_555
C3A N1A 1_555 1_555
C3A N2A 1_555 1_555
O3A C5A 1_555 1_555
C5A C6A 1_555 1_555
C9A C10A 1_555 1_555
O4A C14A 1_555 1_555
C12A N3A 1_555 1_555
C13A C14A 1_555 1_555
C15A N3A 1_555 1_555
C16A C20A 1_555 1_555
C17A C19A 1_555 1_555
C20A N4A 1_555 1_555

#END
