
#######################################################################
#
#                 Cambridge Crystallographic Data Centre
#                                CCDC 
#
#######################################################################
#
# If this CIF has been generated from an entry in the Cambridge 
# Structural Database, then it will include bibliographic, chemical, 
# crystal, experimental, refinement or atomic coordinate data resulting 
# from the CCDC's data processing and validation procedures.
#
#######################################################################

data_LEDHEJ
_symmetry_cell_setting           triclinic
_symmetry_space_group_name_H-M   'P -1'
_symmetry_Int_Tables_number      2
_space_group_name_Hall           '-P 1'
loop_
_symmetry_equiv_pos_site_id
_symmetry_equiv_pos_as_xyz
1 x,y,z
2 -x,-y,-z
_cell_length_a                   8.7486(18)
_cell_length_b                   10.9823(19)
_cell_length_c                   12.307(2)
_cell_angle_alpha                68.658(5)
_cell_angle_beta                 86.191(6)
_cell_angle_gamma                79.532(6)
_cell_volume                     1083.04
loop_
_atom_site_label
_atom_site_type_symbol
_atom_site_fract_x
_atom_site_fract_y
_atom_site_fract_z
Tb1 Tb 0.28685(3) 0.02104(2) 0.55591(2)
C1 C -0.0567(6) 0.2056(5) 0.4222(5)
C2 C -0.0445(6) 0.3467(5) 0.3494(5)
C3 C -0.1406(6) 0.4134(5) 0.2521(5)
H1 H -0.2178 0.3733 0.2375
C4 C -0.1214(6) 0.5400(5) 0.1767(5)
C5 C -0.0120(7) 0.5987(6) 0.2068(5)
H2 H -0.0026 0.6852 0.1600
C6 C 0.0840(6) 0.5353(5) 0.3029(5)
C7 C 0.0685(6) 0.4058(5) 0.3749(5)
H3 H 0.1334 0.3600 0.4391
C8 C 0.1998(6) 0.6061(6) 0.3275(5)
C9 C 0.1508(7) 0.7322(5) 0.3305(5)
H4 H 0.0473 0.7720 0.3151
C10 C 0.2544(7) 0.8001(6) 0.3564(5)
H5 H 0.2197 0.8847 0.3578
C11 C 0.4085(6) 0.7426(5) 0.3800(5)
C12 C 0.4602(7) 0.6170(6) 0.3727(5)
H6 H 0.5646 0.5789 0.3846
C13 C 0.3565(7) 0.5502(6) 0.3480(6)
H7 H 0.3914 0.4663 0.3449
C14 C 0.5154(6) 0.8096(5) 0.4183(5)
C15 C -0.2028(7) 0.6075(5) 0.0630(5)
C16 C -0.1156(7) 0.6725(6) -0.0341(5)
H8 H -0.0101 0.6694 -0.0252
C17 C -0.1830(7) 0.7405(6) -0.1419(5)
H9 H -0.1219 0.7815 -0.2048
C18 C -0.3395(7) 0.7491(6) -0.1586(5)
C19 C -0.4281(7) 0.6830(6) -0.0624(5)
H10 H -0.5334 0.6856 -0.0716
C20 C -0.3596(7) 0.6145(7) 0.0451(6)
H11 H -0.4201 0.5718 0.1076
C21 C -0.4087(6) 0.8260(6) -0.2773(5)
C22 C 0.1664(10) -0.0495(10) 0.8387(7)
H12 H 0.1200 -0.1249 0.8636
C23 C 0.3285(10) 0.0786(9) 0.8837(7)
H13 H 0.4336 0.0417 0.8715
H14 H 0.3267 0.1165 0.9429
H15 H 0.2879 0.1463 0.8123
C24 C 0.2414(11) -0.1145(9) 1.0418(7)
H16 H 0.1749 -0.1789 1.0535
H17 H 0.2081 -0.0643 1.0912
H18 H 0.3465 -0.1592 1.0607
O1 O 0.0450(4) 0.1407(4) 0.4985(3)
O2 O -0.1686(4) 0.1604(4) 0.4027(4)
O3 O 0.6596(4) 0.7836(4) 0.4081(4)
O4 O 0.4568(4) 0.9008(4) 0.4587(4)
O5 O -0.3125(5) 0.8465(4) -0.3605(3)
O6 O -0.5522(4) 0.8647(4) -0.2863(3)
O7 O 0.1584(7) 0.0135(6) 0.7375(5)
N1 N 0.2333(8) -0.0259(7) 0.9207(6)
Tb1A Tb -0.28685(3) -0.02104(2) 0.44409(2)
Tb1A_2 Tb 0.71315(3) 0.97896(2) 0.44409(2)
Tb1_2 Tb 0.28685(3) 1.02104(2) 0.55591(2)
Tb1A_3 Tb -0.28685(3) 0.97896(2) -0.55591(2)
Tb1_3 Tb -0.71315(3) 1.02104(2) -0.44409(2)
O2A O 0.1686(4) -0.1604(4) 0.5973(4)
O3A O 0.3404(4) 0.2164(4) 0.5919(4)
O4_2 O 0.4568(4) -0.0992(4) 0.4587(4)
O4A O 0.5432(4) 0.0992(4) 0.5413(4)
O5A O 0.3125(5) 0.1535(4) 0.3605(3)
O6_2 O 0.4478(4) -0.1353(4) 0.7137(3)
loop_
_geom_bond_atom_site_label_1
_geom_bond_atom_site_label_2
_geom_bond_site_symmetry_1
_geom_bond_site_symmetry_2
Tb1 O1 1_555 1_555
C1 C2 1_555 1_555
C2 C3 1_555 1_555
C3 H1 1_555 1_555
C4 C3 1_555 1_555
C5 C4 1_555 1_555
H2 C5 1_555 1_555
C6 C5 1_555 1_555
C7 C2 1_555 1_555
H3 C7 1_555 1_555
C8 C6 1_555 1_555
C9 C8 1_555 1_555
H4 C9 1_555 1_555
C10 C9 1_555 1_555
H5 C10 1_555 1_555
C11 C10 1_555 1_555
C12 C11 1_555 1_555
H6 C12 1_555 1_555
C13 C8 1_555 1_555
H7 C13 1_555 1_555
C14 C11 1_555 1_555
C15 C4 1_555 1_555
C16 C15 1_555 1_555
H8 C16 1_555 1_555
C17 C16 1_555 1_555
H9 C17 1_555 1_555
C18 C17 1_555 1_555
C19 C18 1_555 1_555
H10 C19 1_555 1_555
C20 C15 1_555 1_555
H11 C20 1_555 1_555
C21 C18 1_555 1_555
C22 H12 1_555 1_555
C23 H13 1_555 1_555
H14 C23 1_555 1_555
H15 C23 1_555 1_555
C24 H16 1_555 1_555
H17 C24 1_555 1_555
H18 C24 1_555 1_555
O1 C1 1_555 1_555
O2 C1 1_555 1_555
O3 C14 1_555 1_555
O4 C14 1_555 1_555
O5 C21 1_555 1_555
O6 C21 1_555 1_555
O7 Tb1 1_555 1_555
N1 C22 1_555 1_555
Tb1A O2 1_555 1_555
Tb1A_2 O3 1_555 1_555
Tb1_2 O4 1_555 1_555
Tb1A_3 O5 1_555 1_555
Tb1_3 O6 1_555 1_555
O2A Tb1 1_555 1_555
O3A Tb1 1_555 1_555
O4_2 Tb1 1_555 1_555
O4A Tb1 1_555 1_555
O5A Tb1 1_555 1_555
O6_2 Tb1 1_555 1_555
C6 C7 1_555 1_555
C12 C13 1_555 1_555
C19 C20 1_555 1_555
C22 O7 1_555 1_555
C23 N1 1_555 1_555
C24 N1 1_555 1_555
O4 Tb1A_2 1_555 1_555

#END
