
#######################################################################
#
#                 Cambridge Crystallographic Data Centre
#                                CCDC 
#
#######################################################################
#
# If this CIF has been generated from an entry in the Cambridge 
# Structural Database, then it will include bibliographic, chemical, 
# crystal, experimental, refinement or atomic coordinate data resulting 
# from the CCDC's data processing and validation procedures.
#
#######################################################################

data_LEDHIN
_symmetry_cell_setting           triclinic
_symmetry_space_group_name_H-M   'P -1'
_symmetry_Int_Tables_number      2
_space_group_name_Hall           '-P 1'
loop_
_symmetry_equiv_pos_site_id
_symmetry_equiv_pos_as_xyz
1 x,y,z
2 -x,-y,-z
_cell_length_a                   8.7159(18)
_cell_length_b                   10.9737(19)
_cell_length_c                   12.323(2)
_cell_angle_alpha                68.448(5)
_cell_angle_beta                 86.196(6)
_cell_angle_gamma                79.605(6)
_cell_volume                     1078.24
loop_
_atom_site_label
_atom_site_type_symbol
_atom_site_fract_x
_atom_site_fract_y
_atom_site_fract_z
Dy1 Dy 0.28711(2) 0.02060(2) 0.555922(18)
C1 C -0.0564(6) 0.2046(5) 0.4230(4)
C2 C -0.0447(6) 0.3458(5) 0.3500(4)
C3 C -0.1407(6) 0.4128(5) 0.2526(5)
H1 H -0.2183 0.3728 0.2379
C4 C -0.1209(7) 0.5396(5) 0.1772(5)
C5 C -0.0117(7) 0.5997(5) 0.2061(5)
H2 H -0.0025 0.6864 0.1588
C6 C 0.0850(6) 0.5357(5) 0.3033(5)
C7 C 0.0688(6) 0.4064(5) 0.3747(4)
H3 H 0.1339 0.3606 0.4389
C8 C 0.1998(6) 0.6061(5) 0.3276(4)
C9 C 0.1509(7) 0.7333(5) 0.3300(5)
H4 H 0.0474 0.7735 0.3132
C10 C 0.2531(6) 0.8008(5) 0.3569(4)
H5 H 0.2177 0.8851 0.3590
C11 C 0.4085(6) 0.7431(5) 0.3808(4)
C12 C 0.4614(7) 0.6189(6) 0.3727(5)
H6 H 0.5666 0.5820 0.3835
C13 C 0.3576(7) 0.5503(5) 0.3486(5)
H7 H 0.3931 0.4661 0.3463
C14 C 0.5157(6) 0.8121(5) 0.4181(4)
C15 C -0.2017(7) 0.6082(5) 0.0625(5)
C16 C -0.1150(7) 0.6725(6) -0.0339(5)
H8 H -0.0089 0.6686 -0.0250
C17 C -0.1824(7) 0.7422(6) -0.1425(5)
H9 H -0.1216 0.7847 -0.2052
C18 C -0.3396(7) 0.7489(5) -0.1583(5)
C19 C -0.4281(7) 0.6840(6) -0.0632(5)
H10 H -0.5341 0.6881 -0.0725
C20 C -0.3596(7) 0.6133(6) 0.0453(5)
H11 H -0.4197 0.5686 0.1074
C21 C -0.4079(7) 0.8274(5) -0.2790(5)
C22 C 0.1669(10) -0.0503(9) 0.8382(6)
H12 H 0.1204 -0.1259 0.8633
C23 C 0.3263(10) 0.0773(9) 0.8846(7)
H13 H 0.4302 0.0426 0.8672
H14 H 0.3297 0.1103 0.9464
H15 H 0.2810 0.1483 0.8163
C24 C 0.2420(10) -0.1125(9) 1.0407(6)
H16 H 0.1749 -0.1771 1.0544
H17 H 0.2099 -0.0608 1.0888
H18 H 0.3476 -0.1572 1.0594
O1 O 0.0452(4) 0.1394(3) 0.4998(3)
O2 O -0.1695(5) 0.1604(4) 0.4038(3)
O3 O 0.6599(4) 0.7861(4) 0.4076(4)
O4 O 0.4577(4) 0.9006(4) 0.4594(3)
O5 O -0.3112(5) 0.8468(4) -0.3606(3)
O6 O -0.5521(4) 0.8657(4) -0.2871(3)
O7 O 0.1590(7) 0.0125(6) 0.7365(4)
N1 N 0.2329(8) -0.0270(7) 0.9206(6)
Dy1A Dy -0.28711(2) -0.02060(2) 0.444078(18)
Dy1A_2 Dy 0.71289(2) 0.97940(2) 0.444078(18)
Dy1_2 Dy 0.28711(2) 1.02060(2) 0.555922(18)
Dy1A_3 Dy -0.28711(2) 0.97940(2) -0.555922(18)
Dy1_3 Dy -0.71289(2) 1.02060(2) -0.444078(18)
O2A O 0.1695(5) -0.1604(4) 0.5962(3)
O3A O 0.3401(4) 0.2139(4) 0.5924(4)
O4_2 O 0.4577(4) -0.0994(4) 0.4594(3)
O4A O 0.5423(4) 0.0994(4) 0.5406(3)
O5A O 0.3112(5) 0.1532(4) 0.3606(3)
O6_2 O 0.4479(4) -0.1343(4) 0.7129(3)
loop_
_geom_bond_atom_site_label_1
_geom_bond_atom_site_label_2
_geom_bond_site_symmetry_1
_geom_bond_site_symmetry_2
Dy1 O1 1_555 1_555
C1 C2 1_555 1_555
C2 C3 1_555 1_555
C3 H1 1_555 1_555
C4 C3 1_555 1_555
C5 C4 1_555 1_555
H2 C5 1_555 1_555
C6 C5 1_555 1_555
C7 C2 1_555 1_555
H3 C7 1_555 1_555
C8 C6 1_555 1_555
C9 C8 1_555 1_555
H4 C9 1_555 1_555
C10 C9 1_555 1_555
H5 C10 1_555 1_555
C11 C10 1_555 1_555
C12 C11 1_555 1_555
H6 C12 1_555 1_555
C13 C8 1_555 1_555
H7 C13 1_555 1_555
C14 C11 1_555 1_555
C15 C4 1_555 1_555
C16 C15 1_555 1_555
H8 C16 1_555 1_555
C17 C16 1_555 1_555
H9 C17 1_555 1_555
C18 C17 1_555 1_555
C19 C18 1_555 1_555
H10 C19 1_555 1_555
C20 C15 1_555 1_555
H11 C20 1_555 1_555
C21 C18 1_555 1_555
C22 H12 1_555 1_555
C23 H13 1_555 1_555
H14 C23 1_555 1_555
H15 C23 1_555 1_555
C24 H16 1_555 1_555
H17 C24 1_555 1_555
H18 C24 1_555 1_555
O1 C1 1_555 1_555
O2 C1 1_555 1_555
O3 C14 1_555 1_555
O4 C14 1_555 1_555
O5 C21 1_555 1_555
O6 C21 1_555 1_555
O7 Dy1 1_555 1_555
N1 C22 1_555 1_555
Dy1A O2 1_555 1_555
Dy1A_2 O3 1_555 1_555
Dy1_2 O4 1_555 1_555
Dy1A_3 O5 1_555 1_555
Dy1_3 O6 1_555 1_555
O2A Dy1 1_555 1_555
O3A Dy1 1_555 1_555
O4_2 Dy1 1_555 1_555
O4A Dy1 1_555 1_555
O5A Dy1 1_555 1_555
O6_2 Dy1 1_555 1_555
C6 C7 1_555 1_555
C12 C13 1_555 1_555
C19 C20 1_555 1_555
C22 O7 1_555 1_555
C23 N1 1_555 1_555
C24 N1 1_555 1_555
O4 Dy1A_2 1_555 1_555

#END
