
#######################################################################
#
#                 Cambridge Crystallographic Data Centre
#                                CCDC 
#
#######################################################################
#
# If this CIF has been generated from an entry in the Cambridge 
# Structural Database, then it will include bibliographic, chemical, 
# crystal, experimental, refinement or atomic coordinate data resulting 
# from the CCDC's data processing and validation procedures.
#
#######################################################################

data_LEDJUB
_symmetry_cell_setting           monoclinic
_symmetry_space_group_name_H-M   'C 2/c'
_symmetry_Int_Tables_number      15
_space_group_name_Hall           '-C 2yn'
loop_
_symmetry_equiv_pos_site_id
_symmetry_equiv_pos_as_xyz
1 x,y,z
2 -x,y,1/2-z
3 1/2+x,1/2+y,z
4 1/2-x,1/2+y,1/2-z
5 -x,-y,-z
6 x,-y,1/2+z
7 1/2-x,1/2-y,-z
8 1/2+x,1/2-y,1/2+z
_cell_length_a                   17.448(13)
_cell_length_b                   11.950(7)
_cell_length_c                   11.898(9)
_cell_angle_alpha                90
_cell_angle_beta                 128.532(7)
_cell_angle_gamma                90
_cell_volume                     1940.61
loop_
_atom_site_label
_atom_site_type_symbol
_atom_site_fract_x
_atom_site_fract_y
_atom_site_fract_z
Cu1 Cu 0.21741(2) 0.01137(3) 0.78580(3)
C1 C 0.10637(19) -0.1871(2) 0.6545(3)
C2 C 0.14043(18) -0.1517(2) 0.5693(3)
C3 C 0.11960(19) -0.2144(2) 0.4554(3)
H1 H 0.0843 -0.2828 0.4264
C4 C 0.15418(19) -0.1699(2) 0.3866(3)
C5 C 0.13734(18) -0.2289(2) 0.2587(3)
C6 C 0.2254(2) -0.0150(2) 0.5428(3)
N2 N 0.36619(18) 0.00751(19) 0.9076(3)
N3 N 0.19152(16) -0.05650(19) 0.6133(2)
N4 N 0.20319(16) -0.07394(19) 0.4259(2)
O2 O 0.06154(14) -0.27652(17) 0.6242(2)
O3 O 0.12748(15) -0.11911(17) 0.7525(2)
O4 O 0.27330(15) 0.07277(17) 0.5834(2)
O5 O 0.15954(15) -0.17151(17) 0.1932(2)
O6 O 0.10696(14) -0.32681(17) 0.2329(2)
Cu1E Cu 0.21741(2) -0.01137(3) 1.28580(3)
Cu1E_2 Cu 0.21741(2) -0.01137(3) 0.28580(3)
C1E C 0.10637(19) 0.1871(2) 1.1545(3)
C2E C 0.14043(18) 0.1517(2) 1.0693(3)
C3E C 0.11960(19) 0.2144(2) 0.9554(3)
H1E H 0.0843 0.2828 0.9264
C4E C 0.15418(19) 0.1699(2) 0.8866(3)
C5E C 0.13734(18) 0.2289(2) 0.7587(3)
C6E C 0.2254(2) 0.0150(2) 1.0428(3)
N2E N 0.36619(18) -0.00751(19) 1.4076(3)
N3E N 0.19152(16) 0.05650(19) 1.1133(2)
N4E N 0.20319(16) 0.07394(19) 0.9259(2)
N4_2 N 0.20319(16) -0.07394(19) 1.4259(2)
O2E O 0.06154(14) 0.27652(17) 1.1242(2)
O3E O 0.12748(15) 0.11911(17) 1.2525(2)
O4E O 0.27330(15) -0.07277(17) 1.0834(2)
O5E O 0.15954(15) 0.17151(17) 0.6932(2)
O5_2 O 0.15954(15) -0.17151(17) 1.1932(2)
O6E O 0.10696(14) 0.32681(17) 0.7329(2)
N1 N -0.12340(16) -0.26443(19) 0.5580(2)
O1 O 0.0000 0.4979(3) 0.7500
loop_
_geom_bond_atom_site_label_1
_geom_bond_atom_site_label_2
_geom_bond_site_symmetry_1
_geom_bond_site_symmetry_2
Cu1 N2 1_555 1_555
C1 C2 1_555 1_555
C2 C3 1_555 1_555
C3 H1 1_555 1_555
C4 C3 1_555 1_555
C5 C4 1_555 1_555
C6 N3 1_555 1_555
N3 Cu1 1_555 1_555
N4 C4 1_555 1_555
O2 C1 1_555 1_555
O3 Cu1 1_555 1_555
O4 C6 1_555 1_555
O5 C5 1_555 1_555
O6 C5 1_555 1_555
Cu1E N2E 1_555 1_555
Cu1E_2 N4 1_555 1_555
C1E C2E 1_555 1_555
C2E C3E 1_555 1_555
C3E H1E 1_555 1_555
C4E C3E 1_555 1_555
C5E C4E 1_555 1_555
C6E N3E 1_555 1_555
N3E Cu1E 1_555 1_555
N4E Cu1 1_555 1_555
N4_2 Cu1E 1_555 1_555
O2E C1E 1_555 1_555
O3E Cu1E 1_555 1_555
O4E C6E 1_555 1_555
O5E Cu1 1_555 1_555
O5_2 Cu1E 1_555 1_555
O6E C5E 1_555 1_555
C1 O3 1_555 1_555
C2 N3 1_555 1_555
C6 N4 1_555 1_555
O5 Cu1E_2 1_555 1_555
C1E O3E 1_555 1_555
C2E N3E 1_555 1_555
C4E N4E 1_555 1_555
C5E O5E 1_555 1_555
C6E N4E 1_555 1_555

#END
