
#######################################################################
#
#                 Cambridge Crystallographic Data Centre
#                                CCDC 
#
#######################################################################
#
# If this CIF has been generated from an entry in the Cambridge 
# Structural Database, then it will include bibliographic, chemical, 
# crystal, experimental, refinement or atomic coordinate data resulting 
# from the CCDC's data processing and validation procedures.
#
#######################################################################

data_LEDJIP
_symmetry_cell_setting           monoclinic
_symmetry_space_group_name_H-M   'P 21/c'
_symmetry_Int_Tables_number      14
_space_group_name_Hall           '-P 2ybc'
loop_
_symmetry_equiv_pos_site_id
_symmetry_equiv_pos_as_xyz
1 x,y,z
2 -x,1/2+y,1/2-z
3 -x,-y,-z
4 x,1/2-y,1/2+z
_cell_length_a                   9.5754(12)
_cell_length_b                   11.1285(14)
_cell_length_c                   8.3243(11)
_cell_angle_alpha                90
_cell_angle_beta                 112.893(2)
_cell_angle_gamma                90
_cell_volume                     817.167
loop_
_atom_site_label
_atom_site_type_symbol
_atom_site_fract_x
_atom_site_fract_y
_atom_site_fract_z
N1 N 0.8691(3) 0.2594(2) 0.5758(4)
N2 N 0.7042(3) 0.1152(2) 0.5204(4)
N3 N 0.8294(4) 0.0810(3) 0.4937(5)
C1 C 0.7343(4) 0.2284(3) 0.5733(5)
H1 H 0.6707 0.2783 0.6039
C2 C 0.9320(3) 0.1656(3) 0.5264(4)
H2 H 1.0258 0.1618 0.5177
O1 O 0.6690(3) -0.1452(2) 0.6535(3)
H3 H 0.6627 -0.1555 0.7479
O2 O 0.4895(3) 0.0870(2) 0.7466(3)
O3 O 0.6487(4) -0.1513(2) 0.9698(4)
C3 C 0.4956(4) 0.0383(3) 0.8839(4)
C4 C 0.5685(4) -0.0687(3) 0.9860(4)
C5 C 0.9609(5) 0.4391(3) 0.4723(4)
H4 H 0.8610 0.4509 0.3815
H5 H 1.0193 0.3896 0.4251
C6 C 0.9464(4) 0.3760(3) 0.6246(5)
H6 H 1.0466 0.3636 0.7143
H7 H 0.8901 0.4268 0.6730
Cd1 Cd 0.5000 0.0000 0.5000
H8 H 0.664(5) -0.2100(18) 0.598(4)
N1B N 1.1309(3) 0.7406(2) 0.4242(4)
N2B N 1.2958(3) 0.8848(2) 0.4796(4)
N2B_2 N 0.2958(3) -0.1152(2) 0.4796(4)
N3B N 1.1706(4) 0.9190(3) 0.5063(5)
C1B C 1.2657(4) 0.7716(3) 0.4267(5)
H1B H 1.3293 0.7217 0.3961
C2B C 1.0680(3) 0.8344(3) 0.4736(4)
H2B H 0.9742 0.8382 0.4823
O1B O 0.3310(3) 0.1452(2) 0.3465(3)
H3B H 0.3373 0.1555 0.2521
O2B O 0.5105(3) -0.0870(2) 1.2534(3)
O2B_2 O 0.5105(3) -0.0870(2) 0.2534(3)
O3B O 0.3513(4) 0.1513(2) 1.0302(4)
C3B C 0.5044(4) -0.0383(3) 1.1161(4)
C4B C 0.4315(4) 0.0687(3) 1.0140(4)
C5B C 1.0391(5) 0.5609(3) 0.5277(4)
H4B H 1.1390 0.5491 0.6185
H5B H 0.9807 0.6104 0.5749
C6B C 1.0536(4) 0.6240(3) 0.3754(5)
H6B H 0.9534 0.6364 0.2857
H7B H 1.1099 0.5732 0.3270
Cd1_2 Cd 1.5000 1.0000 0.5000
Cd1_3 Cd 0.5000 0.0000 1.5000
H8B H 0.336(5) 0.2100(18) 0.402(4)
loop_
_geom_bond_atom_site_label_1
_geom_bond_atom_site_label_2
_geom_bond_site_symmetry_1
_geom_bond_site_symmetry_2
N1 C1 1_555 1_555
N2 N3 1_555 1_555
N3 C2 1_555 1_555
C1 N2 1_555 1_555
H1 C1 1_555 1_555
C2 N1 1_555 1_555
H2 C2 1_555 1_555
O1 H3 1_555 1_555
O2 C3 1_555 1_555
O3 C4 1_555 1_555
C3 C4 1_555 1_555
C4 C3B 1_555 1_555
C5 H4 1_555 1_555
H5 C5 1_555 1_555
C6 N1 1_555 1_555
H6 C6 1_555 1_555
H7 C6 1_555 1_555
Cd1 N2 1_555 1_555
H8 O1 1_555 1_555
N1B C1B 1_555 1_555
N2B N3B 1_555 1_555
N2B_2 Cd1 1_555 1_555
N3B C2B 1_555 1_555
C1B N2B 1_555 1_555
H1B C1B 1_555 1_555
C2B N1B 1_555 1_555
H2B C2B 1_555 1_555
O1B Cd1 1_555 1_555
H3B O1B 1_555 1_555
O2B C3B 1_555 1_555
O2B_2 Cd1 1_555 1_555
O3B C4B 1_555 1_555
C3B C4B 1_555 1_555
C4B C3 1_555 1_555
C5B C5 1_555 1_555
H4B C5B 1_555 1_555
H5B C5B 1_555 1_555
C6B N1B 1_555 1_555
H6B C6B 1_555 1_555
H7B C6B 1_555 1_555
Cd1_2 N2B 1_555 1_555
Cd1_3 O2B 1_555 1_555
H8B O1B 1_555 1_555
O1 Cd1 1_555 1_555
O2 Cd1 1_555 1_555
C5 C6 1_555 1_555
C5B C6B 1_555 1_555

#END
