
#######################################################################
#
#                 Cambridge Crystallographic Data Centre
#                                CCDC 
#
#######################################################################
#
# If this CIF has been generated from an entry in the Cambridge 
# Structural Database, then it will include bibliographic, chemical, 
# crystal, experimental, refinement or atomic coordinate data resulting 
# from the CCDC's data processing and validation procedures.
#
#######################################################################

data_LEDKAI
_symmetry_cell_setting           orthorhombic
_symmetry_space_group_name_H-M   'P n m a'
_symmetry_Int_Tables_number      62
_space_group_name_Hall           '-P 2ac 2n'
loop_
_symmetry_equiv_pos_site_id
_symmetry_equiv_pos_as_xyz
1 x,y,z
2 1/2-x,-y,1/2+z
3 1/2+x,1/2-y,1/2-z
4 -x,1/2+y,-z
5 -x,-y,-z
6 1/2+x,y,1/2-z
7 1/2-x,1/2+y,1/2+z
8 x,1/2-y,z
_cell_length_a                   12.116(6)
_cell_length_b                   15.047(7)
_cell_length_c                   13.262(6)
_cell_angle_alpha                90
_cell_angle_beta                 90
_cell_angle_gamma                90
_cell_volume                     2417.79
loop_
_atom_site_label
_atom_site_type_symbol
_atom_site_fract_x
_atom_site_fract_y
_atom_site_fract_z
Cu1 Cu 0.31447(3) -0.000150(19) 0.73974(3)
O1 O 0.28049(15) 0.07667(14) 0.60178(15)
O3 O 0.37045(16) 0.12849(14) 0.46685(16)
O5 O 0.85739(15) 0.08765(14) 0.65407(16)
O6 O 0.7944(2) 0.1451(2) 0.51093(17)
O7 O 0.55557(16) -0.06372(15) 0.80484(16)
N1 N 0.29268(19) -0.12733(15) 0.70012(19)
N2 N 0.46767(18) 0.01498(14) 0.68193(16)
N3 N 0.66360(17) 0.01897(14) 0.69901(16)
C1 C 0.3659(2) 0.09365(16) 0.55212(19)
C2 C 0.4757(2) 0.06755(16) 0.60099(17)
C3 C 0.5749(2) 0.09791(18) 0.5650(2)
H1 H 0.5798 0.1343 0.5066
C4 C 0.6671(2) 0.07251(16) 0.61851(19)
C5 C 0.7817(2) 0.10540(18) 0.5897(2)
C6 C 0.5621(2) -0.01276(19) 0.7320(2)
Cu1E Cu -0.18553(3) -0.000150(19) 0.76026(3)
Cu1E_2 Cu 0.81447(3) -0.000150(19) 0.76026(3)
O1E O -0.21951(15) 0.07667(14) 0.89822(15)
O3E O -0.12955(16) 0.12849(14) 1.03315(16)
O5E O 0.35739(15) 0.08765(14) 0.84593(16)
O5_2 O -0.14261(15) 0.08765(14) 0.65407(16)
O6E O 0.2944(2) 0.1451(2) 0.98907(17)
O7E O 0.05557(16) -0.06372(15) 0.69516(16)
N1E N -0.20732(19) -0.12733(15) 0.79988(19)
N2E N -0.03233(18) 0.01498(14) 0.81807(16)
N3E N 0.16360(17) 0.01897(14) 0.80099(16)
N3_2 N -0.33640(17) 0.01897(14) 0.69901(16)
C1E C -0.1341(2) 0.09365(16) 0.94788(19)
C2E C -0.0243(2) 0.06755(16) 0.89901(17)
C3E C 0.0749(2) 0.09791(18) 0.9350(2)
H1E H 0.0798 0.1343 0.9934
C4E C 0.1671(2) 0.07251(16) 0.88149(19)
C5E C 0.2817(2) 0.10540(18) 0.9103(2)
C6E C 0.0621(2) -0.01276(19) 0.7680(2)
Cu2 Cu 0.06627(3) 0.2500 0.50046(3)
O8 O 0.2219(2) 0.2500 0.3992(2)
N4 N 0.1494(3) 0.2500 0.6347(3)
N5 N 0.0578(2) 0.11461(18) 0.50624(18)
N6 N -0.0452(3) 0.2500 0.3885(2)
N5G N 0.0578(2) 0.38539(18) 0.50624(18)
O2 O 0.5020(3) 0.2500 0.3528(3)
O4 O 0.9335(3) 0.2500 0.7570(3)
loop_
_geom_bond_atom_site_label_1
_geom_bond_atom_site_label_2
_geom_bond_site_symmetry_1
_geom_bond_site_symmetry_2
Cu1 O1 1_555 1_555
Cu2 O8 1_555 1_555
O1 C1 1_555 1_555
O3 C1 1_555 1_555
O5 C5 1_555 1_555
O6 C5 1_555 1_555
O7 C6 1_555 1_555
N1 Cu1 1_555 1_555
N2 Cu1 1_555 1_555
N3 C4 1_555 1_555
N4 Cu2 1_555 1_555
N5 Cu2 1_555 1_555
N6 Cu2 1_555 1_555
C1 C2 1_555 1_555
C2 N2 1_555 1_555
C3 C2 1_555 1_555
H1 C3 1_555 1_555
C4 C3 1_555 1_555
C5 C4 1_555 1_555
C6 N2 1_555 1_555
Cu1E O1E 1_555 1_555
Cu1E_2 O5 1_555 1_555
O1E C1E 1_555 1_555
O3E C1E 1_555 1_555
O5E Cu1 1_555 1_555
O5_2 Cu1E 1_555 1_555
O6E C5E 1_555 1_555
O7E C6E 1_555 1_555
N1E Cu1E 1_555 1_555
N2E Cu1E 1_555 1_555
N3E Cu1 1_555 1_555
N3_2 Cu1E 1_555 1_555
N5G Cu2 1_555 1_555
C1E C2E 1_555 1_555
C2E N2E 1_555 1_555
C3E C2E 1_555 1_555
H1E C3E 1_555 1_555
C4E N3E 1_555 1_555
C5E O5E 1_555 1_555
C6E N2E 1_555 1_555
N3 C6 1_555 1_555
N3 Cu1E_2 1_555 1_555
N3E C6E 1_555 1_555
C3E C4E 1_555 1_555
C4E C5E 1_555 1_555

#END
