
#######################################################################
#
#                 Cambridge Crystallographic Data Centre
#                                CCDC 
#
#######################################################################
#
# If this CIF has been generated from an entry in the Cambridge 
# Structural Database, then it will include bibliographic, chemical, 
# crystal, experimental, refinement or atomic coordinate data resulting 
# from the CCDC's data processing and validation procedures.
#
#######################################################################

data_LEDKEM
_symmetry_cell_setting           monoclinic
_symmetry_space_group_name_H-M   'C 2/c'
_symmetry_Int_Tables_number      15
_space_group_name_Hall           '-C 2yn'
loop_
_symmetry_equiv_pos_site_id
_symmetry_equiv_pos_as_xyz
1 x,y,z
2 -x,y,1/2-z
3 1/2+x,1/2+y,z
4 1/2-x,1/2+y,1/2-z
5 -x,-y,-z
6 x,-y,1/2+z
7 1/2-x,1/2-y,-z
8 1/2+x,1/2-y,1/2+z
_cell_length_a                   18.015(5)
_cell_length_b                   32.068(8)
_cell_length_c                   7.534(2)
_cell_angle_alpha                90
_cell_angle_beta                 91.334(7)
_cell_angle_gamma                90
_cell_volume                     4351.25
loop_
_atom_site_label
_atom_site_type_symbol
_atom_site_fract_x
_atom_site_fract_y
_atom_site_fract_z
Co1 Co 0.5000 0.40241(2) 0.2500
O1 O 0.4573(4) 0.3926(2) -0.0104(12)
O2 O 0.4021(5) 0.3625(2) 0.1994(11)
C1 C 0.4132(6) 0.3665(3) 0.0344(15)
C2 C 0.3715(6) 0.3405(3) -0.0997(16)
C3 C 0.3850(5) 0.3467(3) -0.2791(16)
H1 H 0.4202 0.3670 -0.3135
C4 C 0.3196(6) 0.3108(4) -0.0512(17)
H2 H 0.3095 0.3067 0.0707
C5 C 0.3479(5) 0.3238(3) -0.4060(14)
H3 H 0.3575 0.3287 -0.5278
C6 C 0.2825(6) 0.2872(3) -0.1797(19)
H4 H 0.2474 0.2667 -0.1454
C7 C 0.2967(5) 0.2935(3) -0.3609(17)
C8 C 0.2611(10) 0.2705(6) -0.507(4)
H5 H 0.2750 0.2778 -0.6241
N1 N 0.5678(3) 0.45231(12) 0.2002(4)
C17 C 0.6386(4) 0.4502(2) 0.1475(7)
H11 H 0.6601 0.4234 0.1344
C18 C 0.5363(3) 0.48989(14) 0.2237(7)
C19 C 0.6832(4) 0.4856(3) 0.1102(9)
H12 H 0.7333 0.4835 0.0746
C20 C 0.5743(5) 0.52715(18) 0.1888(8)
H13 H 0.5518 0.5537 0.2040
C21 C 0.6477(5) 0.5230(3) 0.1299(10)
H14 H 0.6742 0.5477 0.1022
Co1F Co 0.0000 0.09759(2) -1.2500
O1F O 0.0427(4) 0.1074(2) -0.9896(12)
O1A O 0.5427(4) 0.3926(2) 0.5104(12)
O2F O 0.0979(5) 0.1375(2) -1.1994(11)
O2A O 0.5979(5) 0.3625(2) 0.3006(11)
C1F C 0.0868(6) 0.1335(3) -1.0344(15)
C2F C 0.1285(6) 0.1595(3) -0.9003(16)
C3F C 0.1150(5) 0.1533(3) -0.7209(16)
H1F H 0.0798 0.1330 -0.6865
C4F C 0.1804(6) 0.1892(4) -0.9488(17)
H2F H 0.1905 0.1933 -1.0707
C5F C 0.1521(5) 0.1762(3) -0.5940(14)
H3F H 0.1425 0.1713 -0.4722
C6F C 0.2175(6) 0.2128(3) -0.8203(19)
H4F H 0.2526 0.2333 -0.8546
C7F C 0.2033(5) 0.2065(3) -0.6391(17)
C8F C 0.2389(10) 0.2295(6) -0.493(4)
H5F H 0.2250 0.2222 -0.3759
N1A N 0.4322(3) 0.45231(12) 0.2998(4)
C17A C 0.3614(4) 0.4502(2) 0.3525(7)
H11A H 0.3399 0.4234 0.3656
C18A C 0.4637(3) 0.48989(14) 0.2763(7)
C19A C 0.3168(4) 0.4856(3) 0.3898(9)
H12A H 0.2667 0.4835 0.4254
C20A C 0.4257(5) 0.52715(18) 0.3112(8)
H13A H 0.4482 0.5537 0.2960
C21A C 0.3523(5) 0.5230(3) 0.3701(10)
H14A H 0.3258 0.5477 0.3978
O5 O 0.5414(15) 0.2480(7) 0.230(5)
O3? O 0.4235(5) 0.3487(2) 0.2054(13)
O4? O 0.4831(5) 0.3833(3) 0.9890(14)
C9? C 0.2126(11) 0.2412(6) 0.508(4)
H6? H 0.3003 0.2653 0.3738
C10? C 0.1730(6) 0.2156(4) 0.367(2)
C11? C 0.1206(7) 0.1844(4) 0.4096(18)
H7? H 0.3900 0.3210 0.4696
C12? C 0.1866(6) 0.2228(4) 0.190(2)
H8? H 0.2791 0.2561 0.8415
C13? C 0.0858(6) 0.1622(3) 0.280(2)
H9? H 0.4511 0.3575 0.6889
C14? C 0.1509(7) 0.1997(4) 0.0571(19)
H10? H 0.3408 0.2941 0.0642
C15? C 0.1033(8) 0.1678(5) 0.102(2)
C16? C 0.4356(8) 0.3565(4) 0.0409(17)
loop_
_geom_bond_atom_site_label_1
_geom_bond_atom_site_label_2
_geom_bond_site_symmetry_1
_geom_bond_site_symmetry_2
Co1 O1 1_555 1_555
O1 C1 1_555 1_555
O2 Co1 1_555 1_555
C1 O2 1_555 1_555
C2 C1 1_555 1_555
C3 C2 1_555 1_555
H1 C3 1_555 1_555
C4 C2 1_555 1_555
H2 C4 1_555 1_555
C5 C3 1_555 1_555
H3 C5 1_555 1_555
C6 C4 1_555 1_555
H4 C6 1_555 1_555
C7 C5 1_555 1_555
C8 C7 1_555 1_555
H5 C8 1_555 1_555
N1 Co1 1_555 1_555
C17 N1 1_555 1_555
H11 C17 1_555 1_555
C18 N1 1_555 1_555
C19 C17 1_555 1_555
H12 C19 1_555 1_555
C20 C18 1_555 1_555
H13 C20 1_555 1_555
C21 C19 1_555 1_555
H14 C21 1_555 1_555
Co1F O1F 1_555 1_555
O1F C1F 1_555 1_555
O1A Co1 1_555 1_555
O2F Co1F 1_555 1_555
O2A Co1 1_555 1_555
C1F O2F 1_555 1_555
C2F C1F 1_555 1_555
C3F C2F 1_555 1_555
H1F C3F 1_555 1_555
C4F C2F 1_555 1_555
H2F C4F 1_555 1_555
C5F C3F 1_555 1_555
H3F C5F 1_555 1_555
C6F C4F 1_555 1_555
H4F C6F 1_555 1_555
C7F C5F 1_555 1_555
C8F C8 1_555 1_555
H5F C8F 1_555 1_555
N1A Co1 1_555 1_555
C17A N1A 1_555 1_555
H11A C17A 1_555 1_555
C18A C18 1_555 1_555
C19A C17A 1_555 1_555
H12A C19A 1_555 1_555
C20A C18A 1_555 1_555
H13A C20A 1_555 1_555
C21A C19A 1_555 1_555
H14A C21A 1_555 1_555
C6 C7 1_555 1_555
C20 C21 1_555 1_555
C6F C7F 1_555 1_555
C7F C8F 1_555 1_555
N1A C18A 1_555 1_555
C20A C21A 1_555 1_555

#END
