
#######################################################################
#
#                 Cambridge Crystallographic Data Centre
#                                CCDC 
#
#######################################################################
#
# If this CIF has been generated from an entry in the Cambridge 
# Structural Database, then it will include bibliographic, chemical, 
# crystal, experimental, refinement or atomic coordinate data resulting 
# from the CCDC's data processing and validation procedures.
#
#######################################################################

data_LEDLIR
_symmetry_cell_setting           monoclinic
_symmetry_space_group_name_H-M   'P 21/c'
_symmetry_Int_Tables_number      14
_space_group_name_Hall           '-P 2ybc'
loop_
_symmetry_equiv_pos_site_id
_symmetry_equiv_pos_as_xyz
1 x,y,z
2 -x,1/2+y,1/2-z
3 -x,-y,-z
4 x,1/2-y,1/2+z
_cell_length_a                   11.2435(11)
_cell_length_b                   9.1503(10)
_cell_length_c                   21.074(2)
_cell_angle_alpha                90
_cell_angle_beta                 99.580(2)
_cell_angle_gamma                90
_cell_volume                     2137.89
loop_
_atom_site_label
_atom_site_type_symbol
_atom_site_fract_x
_atom_site_fract_y
_atom_site_fract_z
Cd1 Cd 0.61681(3) 1.13468(3) 1.047580(14)
Cd2 Cd 0.5000 0.5000 1.0000
N1 N 0.7941(3) 0.9961(4) 1.06429(18)
O1 O 0.6389(3) 0.3241(3) 0.97693(14)
O2 O 0.6743(3) 0.1261(3) 0.92384(17)
O3 O 0.5570(3) 1.1026(3) 0.59646(14)
O4 O 0.7289(3) 1.2202(3) 0.62632(16)
O5 O 0.8705(3) 0.5985(4) 0.7487(2)
O6 O 0.5754(2) 0.8845(3) 1.01706(13)
O7 O 0.6539(3) 0.6608(3) 1.01504(15)
O8 O 0.5099(3) 1.0503(4) 1.12669(15)
H1 H 0.4599 0.9926 1.1083
C1 C 0.6714(3) 0.2611(4) 0.9288(2)
C2 C 0.7144(4) 0.3544(4) 0.8787(2)
C3 C 0.7445(5) 0.4988(5) 0.8914(2)
H2 H 0.7311 0.5411 0.9297
C4 C 0.7944(5) 0.5812(5) 0.8477(3)
H3 H 0.8162 0.6779 0.8568
C5 C 0.8116(4) 0.5191(5) 0.7909(2)
C6 C 0.7809(4) 0.3772(6) 0.7759(2)
H4 H 0.7923 0.3370 0.7369
C7 C 0.7322(4) 0.2949(5) 0.8206(2)
H5 H 0.7111 0.1981 0.8113
C8 C 0.6649(4) 1.1092(5) 0.6269(2)
C9 C 0.7157(4) 0.9772(5) 0.6644(2)
C10 C 0.6440(4) 0.8568(5) 0.6700(2)
H6 H 0.5619 0.8605 0.6538
C11 C 0.6940(4) 0.7307(5) 0.6998(2)
H7 H 0.6458 0.6496 0.7034
C12 C 0.8155(4) 0.7265(5) 0.7238(2)
C13 C 0.8863(4) 0.8469(6) 0.7203(3)
H8 H 0.9678 0.8441 0.7379
C14 C 0.8370(4) 0.9719(6) 0.6906(3)
H9 H 0.8854 1.0535 0.6882
C15 C 0.6609(3) 0.7953(4) 1.02453(18)
C16 C 0.7856(4) 0.8547(4) 1.0477(2)
C17 C 0.8860(4) 0.7654(6) 1.0521(3)
H10 H 0.8781 0.6670 1.0411
C18 C 0.9974(5) 0.8250(7) 1.0730(4)
H11 H 1.0665 0.7681 1.0750
C19 C 1.0066(5) 0.9679(7) 1.0910(4)
H12 H 1.0816 1.0090 1.1062
C20 C 0.9042(4) 1.0503(6) 1.0863(3)
H13 H 0.9110 1.1477 1.0989
C21 C 0.4603(6) 1.1267(7) 1.1739(3)
H14 H 0.5238 1.1731 1.2031
H15 H 0.4180 1.0597 1.1972
H16 H 0.4053 1.1995 1.1536
Cd1B Cd 0.38319(3) -0.13468(3) 0.952420(14)
Cd1_2 Cd 0.61681(3) 0.13468(3) 1.047580(14)
Cd1C Cd 0.61681(3) 1.36532(3) 0.547580(14)
Cd1B_2 Cd 0.38319(3) 0.86532(3) 0.952420(14)
Cd1A Cd 0.38319(3) -0.36532(3) 1.452420(14)
Cd2A Cd 0.5000 1.0000 0.5000
Cd2A_2 Cd 0.5000 0.0000 1.5000
N1B N 0.2059(3) 0.0039(4) 0.93571(18)
O1B O 0.3611(3) 0.6759(3) 1.02307(14)
O1_2 O 0.6389(3) 1.3241(3) 0.97693(14)
O1B_2 O 0.3611(3) -0.3241(3) 1.02307(14)
O2B O 0.3257(3) 0.8739(3) 1.07616(17)
O3B O 0.4430(3) -0.1026(3) 1.40354(14)
O3A O 0.4430(3) 0.6026(3) 0.90354(14)
O3C O 0.5570(3) 0.3974(3) 1.09646(14)
O4B O 0.2711(3) -0.2202(3) 1.37368(16)
O4C O 0.7289(3) 1.2798(3) 1.12632(16)
O4A O 0.2711(3) -0.2798(3) 0.87368(16)
O5B O 0.1295(3) 0.4015(4) 1.2513(2)
O6B O 0.4246(2) 0.1155(3) 0.98294(13)
O6B_2 O 0.4246(2) 1.1155(3) 0.98294(13)
O6_2 O 0.5754(2) -0.1155(3) 1.01706(13)
O7B O 0.3461(3) 0.3392(3) 0.98496(15)
O8B O 0.4901(3) -0.0503(4) 0.87331(15)
H1B H 0.5401 0.0074 0.8917
C1B C 0.3286(3) 0.7389(4) 1.0712(2)
C2B C 0.2856(4) 0.6456(4) 1.1213(2)
C3B C 0.2555(5) 0.5012(5) 1.1086(2)
H2B H 0.2689 0.4589 1.0703
C4B C 0.2056(5) 0.4188(5) 1.1523(3)
H3B H 0.1838 0.3221 1.1432
C5B C 0.1884(4) 0.4809(5) 1.2091(2)
C6B C 0.2191(4) 0.6228(6) 1.2241(2)
H4B H 0.2077 0.6630 1.2631
C7B C 0.2678(4) 0.7051(5) 1.1794(2)
H5B H 0.2889 0.8019 1.1887
C8B C 0.3351(4) -0.1092(5) 1.3731(2)
C9B C 0.2843(4) 0.0228(5) 1.3356(2)
C10B C 0.3560(4) 0.1432(5) 1.3300(2)
H6B H 0.4381 0.1395 1.3462
C11B C 0.3060(4) 0.2693(5) 1.3002(2)
H7B H 0.3542 0.3504 1.2966
C12B C 0.1845(4) 0.2735(5) 1.2762(2)
C13B C 0.1137(4) 0.1531(6) 1.2797(3)
H8B H 0.0322 0.1559 1.2621
C14B C 0.1630(4) 0.0281(6) 1.3094(3)
H9B H 0.1146 -0.0535 1.3118
C15B C 0.3391(3) 0.2047(4) 0.97547(18)
C16B C 0.2144(4) 0.1453(4) 0.9523(2)
C17B C 0.1140(4) 0.2346(6) 0.9479(3)
H10B H 0.1219 0.3330 0.9589
C18B C 0.0026(5) 0.1750(7) 0.9270(4)
H11B H -0.0665 0.2319 0.9250
C19B C -0.0066(5) 0.0321(7) 0.9090(4)
H12B H -0.0816 -0.0090 0.8938
C20B C 0.0958(4) -0.0503(6) 0.9137(3)
H13B H 0.0890 -0.1477 0.9011
C21B C 0.5397(6) -0.1267(7) 0.8261(3)
H14B H 0.4762 -0.1731 0.7969
H15B H 0.5820 -0.0597 0.8028
H16B H 0.5947 -0.1995 0.8464
loop_
_geom_bond_atom_site_label_1
_geom_bond_atom_site_label_2
_geom_bond_site_symmetry_1
_geom_bond_site_symmetry_2
Cd1 N1 1_555 1_555
Cd2 O1 1_555 1_555
N1 C16 1_555 1_555
O1 C1 1_555 1_555
O2 C1 1_555 1_555
O3 C8 1_555 1_555
O4 C8 1_555 1_555
O5 C5 1_555 1_555
O6 Cd1 1_555 1_555
O7 Cd2 1_555 1_555
O8 Cd1 1_555 1_555
H1 O8 1_555 1_555
C1 C2 1_555 1_555
C2 C3 1_555 1_555
C3 H2 1_555 1_555
C4 C3 1_555 1_555
H3 C4 1_555 1_555
C5 C4 1_555 1_555
C6 C5 1_555 1_555
H4 C6 1_555 1_555
C7 C2 1_555 1_555
H5 C7 1_555 1_555
C8 C9 1_555 1_555
C9 C10 1_555 1_555
C10 H6 1_555 1_555
C11 C10 1_555 1_555
H7 C11 1_555 1_555
C12 O5 1_555 1_555
C13 C12 1_555 1_555
H8 C13 1_555 1_555
C14 C9 1_555 1_555
H9 C14 1_555 1_555
C15 O6 1_555 1_555
C16 C15 1_555 1_555
C17 C16 1_555 1_555
H10 C17 1_555 1_555
C18 C17 1_555 1_555
H11 C18 1_555 1_555
C19 C18 1_555 1_555
H12 C19 1_555 1_555
C20 N1 1_555 1_555
H13 C20 1_555 1_555
C21 O8 1_555 1_555
H14 C21 1_555 1_555
H15 C21 1_555 1_555
H16 C21 1_555 1_555
Cd1B N1B 1_555 1_555
Cd1_2 O1 1_555 1_555
Cd1C O4 1_555 1_555
Cd1B_2 O6 1_555 1_555
Cd1A O4B 1_555 1_555
Cd2A O3 1_555 1_555
Cd2A_2 O3B 1_555 1_555
N1B C16B 1_555 1_555
O1B Cd2 1_555 1_555
O1_2 Cd1 1_555 1_555
O1B_2 Cd1B 1_555 1_555
O2B C1B 1_555 1_555
O3B C8B 1_555 1_555
O3A Cd2 1_555 1_555
O3C Cd2 1_555 1_555
O4B C8B 1_555 1_555
O4C Cd1 1_555 1_555
O4A Cd1B 1_555 1_555
O5B C5B 1_555 1_555
O6B Cd1B 1_555 1_555
O6B_2 Cd1 1_555 1_555
O6_2 Cd1B 1_555 1_555
O7B Cd2 1_555 1_555
O8B Cd1B 1_555 1_555
H1B O8B 1_555 1_555
C1B O1B 1_555 1_555
C2B C1B 1_555 1_555
C3B C2B 1_555 1_555
H2B C3B 1_555 1_555
C4B C3B 1_555 1_555
H3B C4B 1_555 1_555
C5B C4B 1_555 1_555
C6B C5B 1_555 1_555
H4B C6B 1_555 1_555
C7B C2B 1_555 1_555
H5B C7B 1_555 1_555
C8B C9B 1_555 1_555
C9B C10B 1_555 1_555
C10B H6B 1_555 1_555
C11B C10B 1_555 1_555
H7B C11B 1_555 1_555
C12B O5B 1_555 1_555
C13B C12B 1_555 1_555
H8B C13B 1_555 1_555
C14B C9B 1_555 1_555
H9B C14B 1_555 1_555
C15B O6B 1_555 1_555
C16B C15B 1_555 1_555
C17B C16B 1_555 1_555
H10B C17B 1_555 1_555
C18B C17B 1_555 1_555
H11B C18B 1_555 1_555
C19B C18B 1_555 1_555
H12B C19B 1_555 1_555
C20B N1B 1_555 1_555
H13B C20B 1_555 1_555
C21B O8B 1_555 1_555
H14B C21B 1_555 1_555
H15B C21B 1_555 1_555
H16B C21B 1_555 1_555
O7 C15 1_555 1_555
C6 C7 1_555 1_555
C11 C12 1_555 1_555
C13 C14 1_555 1_555
C19 C20 1_555 1_555
Cd1_2 O6B 1_555 1_555
Cd1_2 O6_2 1_555 1_555
Cd1B_2 O1B 1_555 1_555
Cd1B_2 O6B_2 1_555 1_555
O7B C15B 1_555 1_555
C6B C7B 1_555 1_555
C11B C12B 1_555 1_555
C13B C14B 1_555 1_555
C19B C20B 1_555 1_555

#END
