
#######################################################################
#
#                 Cambridge Crystallographic Data Centre
#                                CCDC 
#
#######################################################################
#
# If this CIF has been generated from an entry in the Cambridge 
# Structural Database, then it will include bibliographic, chemical, 
# crystal, experimental, refinement or atomic coordinate data resulting 
# from the CCDC's data processing and validation procedures.
#
#######################################################################

data_LEDLAJ
_symmetry_cell_setting           tetragonal
_symmetry_space_group_name_H-M   'I 41/a'
_symmetry_Int_Tables_number      88
_space_group_name_Hall           '-I 4ad'
loop_
_symmetry_equiv_pos_site_id
_symmetry_equiv_pos_as_xyz
1 x,y,z
2 3/4-y,1/4+x,1/4+z
3 1/2-x,-y,1/2+z
4 3/4+y,3/4-x,3/4+z
5 1/2+x,1/2+y,1/2+z
6 1/4-y,3/4+x,3/4+z
7 -x,1/2-y,z
8 1/4+y,1/4-x,1/4+z
9 -x,-y,-z
10 1/4+y,3/4-x,3/4-z
11 1/2+x,y,1/2-z
12 1/4-y,1/4+x,1/4-z
13 1/2-x,1/2-y,1/2-z
14 3/4+y,1/4-x,1/4-z
15 x,1/2+y,-z
16 3/4-y,3/4+x,3/4-z
_cell_length_a                   27.32(3)
_cell_length_b                   27.32(3)
_cell_length_c                   17.20(2)
_cell_angle_alpha                90
_cell_angle_beta                 90
_cell_angle_gamma                90
_cell_volume                     12837.8
loop_
_atom_site_label
_atom_site_type_symbol
_atom_site_fract_x
_atom_site_fract_y
_atom_site_fract_z
Zn1 Zn 0.14084(4) 0.89485(4) 0.49736(7)
O1 O 0.1070(3) 0.9171(3) 0.4038(5)
O2 O 0.1563(3) 0.8651(3) 0.3549(5)
O3 O 0.0334(3) 0.9129(3) 0.0583(5)
O4 O 0.1217(3) 1.0736(2) -0.1607(4)
O5 O 0.0778(3) 1.0327(3) -0.2438(5)
O6 O 0.0963(3) 0.9412(3) 0.5886(6)
H1 H 0.0840 0.9655 0.5696
H2 H 0.1173 0.9450 0.6251
N1 N 0.1884(3) 0.9485(3) 0.4804(5)
N2 N 0.3463(5) 1.1497(6) 0.4232(10)
N3 N 0.0904(3) 0.8412(3) 0.5039(4)
C1 C 0.1224(5) 0.8939(5) 0.3503(9)
C2 C 0.0980(4) 0.8990(4) 0.2707(7)
C3 C 0.1168(4) 0.8756(4) 0.2073(10)
H9 H 0.1442 0.8557 0.2121
C4 C 0.0940(6) 0.8820(5) 0.1346(9)
H10 H 0.1060 0.8655 0.0912
C5 C 0.0574(6) 0.9100(6) 0.1281(8)
C6 C 0.0394(4) 0.9347(4) 0.1882(11)
H11 H 0.0127 0.9554 0.1813
C7 C 0.0606(4) 0.9296(4) 0.2624(7)
H12 H 0.0486 0.9472 0.3046
C8 C 0.0490(5) 0.9468(4) 0.0026(9)
C9 C 0.0806(4) 0.9832(4) 0.0210(7)
H13 H 0.0928 0.9872 0.0711
C10 C 0.0936(3) 1.0134(4) -0.0382(7)
H14 H 0.1149 1.0391 -0.0277
C11 C 0.0771(3) 1.0079(3) -0.1111(7)
C12 C 0.0459(4) 0.9695(4) -0.1243(7)
H15 H 0.0344 0.9644 -0.1746
C13 C 0.0312(5) 0.9390(4) -0.0681(7)
H16 H 0.0095 0.9135 -0.0781
C14 C 0.0925(4) 1.0396(4) -0.1747(8)
C15 C 0.2342(4) 0.9429(4) 0.4502(6)
H17 H 0.2443 0.9114 0.4378
C16 C 0.2659(4) 0.9800(4) 0.4371(6)
H18 H 0.2962 0.9735 0.4150
C17 C 0.2535(3) 1.0271(3) 0.4563(6)
C18 C 0.2064(4) 1.0330(4) 0.4892(7)
H19 H 0.1958 1.0639 0.5039
C19 C 0.1770(4) 0.9942(4) 0.4994(7)
H20 H 0.1464 0.9997 0.5213
C20 C 0.2856(3) 1.0686(3) 0.4458(7)
C21 C 0.3182(4) 1.0710(4) 0.3874(8)
H21 H 0.3211 1.0448 0.3532
C22 C 0.3477(4) 1.1120(6) 0.3772(10)
H22 H 0.3694 1.1124 0.3356
C23 C 0.3164(6) 1.1479(4) 0.4788(11)
H23 H 0.3149 1.1746 0.5122
C24 C 0.2841(4) 1.1070(5) 0.4944(8)
H24 H 0.2630 1.1073 0.5369
C25 C 0.0998(3) 0.7972(4) 0.4886(6)
H25 H 0.1320 0.7895 0.4765
C26 C 0.0670(4) 0.7599(4) 0.4880(7)
H26 H 0.0774 0.7280 0.4797
C27 C 0.0184(3) 0.7698(3) 0.4999(5)
C28 C 0.0081(4) 0.8178(4) 0.5146(7)
H27 H -0.0240 0.8274 0.5245
C29 C 0.0438(4) 0.8510(4) 0.5148(7)
H28 H 0.0351 0.8835 0.5232
Zn1E Zn 0.35515(4) 0.89084(4) 1.24736(7)
Zn1G Zn 0.14485(4) 1.10916(4) -0.25264(7)
Zn1F Zn -0.14084(4) 0.60515(4) 0.49736(7)
O1E O 0.3329(3) 0.8570(3) 1.1538(5)
O2E O 0.3849(3) 0.9063(3) 1.1049(5)
O3E O 0.3371(3) 0.7834(3) 0.8083(5)
O4E O 0.1764(2) 0.8717(3) 0.5893(4)
O4B O 0.3783(3) 0.9264(2) 1.3393(4)
O5E O 0.2173(3) 0.8278(3) 0.5062(5)
O6E O 0.3088(3) 0.8463(3) 1.3386(6)
H1E H 0.2845 0.8340 1.3196
H2E H 0.3050 0.8673 1.3751
N1E N 0.3015(3) 0.9384(3) 1.2304(5)
N2E N 0.1003(6) 1.0963(5) 1.1732(10)
N3F N -0.0904(3) 0.6588(3) 0.5039(4)
N3E N 0.4088(3) 0.8404(3) 1.2539(4)
C1E C 0.3561(5) 0.8724(5) 1.1003(9)
C2E C 0.3510(4) 0.8480(4) 1.0207(7)
C3E C 0.3744(4) 0.8668(4) 0.9573(10)
H9E H 0.3943 0.8942 0.9621
C4E C 0.3680(5) 0.8440(6) 0.8846(9)
H10E H 0.3845 0.8560 0.8412
C5E C 0.3400(6) 0.8074(6) 0.8781(8)
C6E C 0.3153(4) 0.7894(4) 0.9382(11)
H11E H 0.2946 0.7627 0.9313
C7E C 0.3204(4) 0.8106(4) 1.0124(7)
H12E H 0.3028 0.7986 1.0546
C8E C 0.3032(4) 0.7990(5) 0.7526(9)
C9E C 0.2668(4) 0.8306(4) 0.7710(7)
H13E H 0.2628 0.8428 0.8211
C10E C 0.2366(4) 0.8436(3) 0.7118(7)
H14E H 0.2109 0.8649 0.7223
C11E C 0.2421(3) 0.8271(3) 0.6389(7)
C12E C 0.2805(4) 0.7959(4) 0.6257(7)
H15E H 0.2856 0.7844 0.5754
C13E C 0.3110(4) 0.7812(5) 0.6819(7)
H16E H 0.3365 0.7595 0.6719
C14E C 0.2104(4) 0.8425(4) 0.5753(8)
C15E C 0.3071(4) 0.9842(4) 1.2002(6)
H17E H 0.3386 0.9943 1.1878
C16E C 0.2700(4) 1.0159(4) 1.1871(6)
H18E H 0.2765 1.0462 1.1650
C17E C 0.2229(3) 1.0035(3) 1.2063(6)
C18E C 0.2170(4) 0.9564(4) 1.2392(7)
H19E H 0.1861 0.9458 1.2539
C19E C 0.2558(4) 0.9270(4) 1.2494(7)
H20E H 0.2503 0.8964 1.2713
C20E C 0.1814(3) 1.0356(3) 1.1958(7)
C21E C 0.1790(4) 1.0682(4) 1.1374(8)
H21E H 0.2052 1.0711 1.1032
C22E C 0.1380(6) 1.0977(4) 1.1272(10)
H22E H 0.1376 1.1194 1.0856
C23E C 0.1021(4) 1.0664(6) 1.2288(11)
H23E H 0.0754 1.0649 1.2622
C24E C 0.1430(5) 1.0341(4) 1.2444(8)
H24E H 0.1427 1.0130 1.2869
C25F C -0.0998(3) 0.7028(4) 0.4886(6)
H25F H -0.1320 0.7105 0.4765
C26F C -0.0670(4) 0.7401(4) 0.4880(7)
H26F H -0.0774 0.7720 0.4797
C27F C -0.0184(3) 0.7302(3) 0.4999(5)
C28F C -0.0081(4) 0.6822(4) 0.5146(7)
H27F H 0.0240 0.6726 0.5245
C29F C -0.0438(4) 0.6490(4) 0.5148(7)
H28F H -0.0351 0.6165 0.5232
O7 O 0.0546(5) 0.0128(5) 0.4224(7)
H3 H 0.0743 -0.0134 0.4169
H4 H 0.0268 0.0031 0.4216
O8 O 0.0410(5) 0.0296(8) 0.5868(16)
H5 H 0.0438 0.0214 0.5380
H6 H 0.0640 0.0485 0.5975
O9 O 0.1148(13) 0.9360(14) 0.7219(15)
H7 H 0.1391 0.9451 0.7336
H8 H 0.0923 0.9658 0.7432
N4 N 0.3897(6) 0.3154(6) 0.5275(11)
C30 C 0.3947(7) 0.2656(9) 0.4993(12)
H29 H 0.3660 0.2505 0.4828
C31 C 0.4333(7) 0.2401(6) 0.4942(11)
H30 H 0.4324 0.2073 0.4799
C32 C 0.4771(5) 0.2639(5) 0.5112(7)
C33 C 0.4718(6) 0.3116(6) 0.5304(8)
H31 H 0.4999 0.3286 0.5443
C34 C 0.4321(6) 0.3351(6) 0.5310(11)
H32 H 0.4337 0.3690 0.5343
N4F N 0.6103(6) 0.1846(6) 0.5275(11)
C30F C 0.6053(7) 0.2344(9) 0.4993(12)
H29F H 0.6340 0.2495 0.4828
C31F C 0.5667(7) 0.2599(6) 0.4942(11)
H30F H 0.5676 0.2927 0.4799
C32F C 0.5229(5) 0.2361(5) 0.5112(7)
C33F C 0.5282(6) 0.1884(6) 0.5304(8)
H31F H 0.5001 0.1714 0.5443
C34F C 0.5679(6) 0.1649(6) 0.5310(11)
H32F H 0.5663 0.1310 0.5343
loop_
_geom_bond_atom_site_label_1
_geom_bond_atom_site_label_2
_geom_bond_site_symmetry_1
_geom_bond_site_symmetry_2
Zn1 O1 1_555 1_555
O1 C1 1_555 1_555
O2 C1 1_555 1_555
O3 C5 1_555 1_555
O4 C14 1_555 1_555
O5 C14 1_555 1_555
O6 Zn1 1_555 1_555
H1 O6 1_555 1_555
H2 O6 1_555 1_555
O7 H3 1_555 1_555
H4 O7 1_555 1_555
O8 H5 1_555 1_555
H6 O8 1_555 1_555
O9 H7 1_555 1_555
H8 O9 1_555 1_555
N1 Zn1 1_555 1_555
N2 C22 1_555 1_555
N3 Zn1 1_555 1_555
N4 C30 1_555 1_555
C1 C2 1_555 1_555
C2 C3 1_555 1_555
C3 H9 1_555 1_555
C4 C3 1_555 1_555
H10 C4 1_555 1_555
C5 C4 1_555 1_555
C6 C5 1_555 1_555
H11 C6 1_555 1_555
C7 C2 1_555 1_555
H12 C7 1_555 1_555
C8 O3 1_555 1_555
C9 C8 1_555 1_555
H13 C9 1_555 1_555
C10 C9 1_555 1_555
H14 C10 1_555 1_555
C11 C10 1_555 1_555
C12 C11 1_555 1_555
H15 C12 1_555 1_555
C13 C8 1_555 1_555
H16 C13 1_555 1_555
C14 C11 1_555 1_555
C15 N1 1_555 1_555
H17 C15 1_555 1_555
C16 C15 1_555 1_555
H18 C16 1_555 1_555
C17 C16 1_555 1_555
C18 C17 1_555 1_555
H19 C18 1_555 1_555
C19 N1 1_555 1_555
H20 C19 1_555 1_555
C20 C17 1_555 1_555
C21 C20 1_555 1_555
H21 C21 1_555 1_555
C22 C21 1_555 1_555
H22 C22 1_555 1_555
C23 N2 1_555 1_555
H23 C23 1_555 1_555
C24 C20 1_555 1_555
H24 C24 1_555 1_555
C25 N3 1_555 1_555
H25 C25 1_555 1_555
C26 C25 1_555 1_555
H26 C26 1_555 1_555
C27 C26 1_555 1_555
C28 C27 1_555 1_555
H27 C28 1_555 1_555
C29 N3 1_555 1_555
H28 C29 1_555 1_555
C30 H29 1_555 1_555
C31 C30 1_555 1_555
H30 C31 1_555 1_555
C32 C31 1_555 1_555
C33 C32 1_555 1_555
H31 C33 1_555 1_555
C34 N4 1_555 1_555
H32 C34 1_555 1_555
Zn1E O1E 1_555 1_555
Zn1G O4 1_555 1_555
Zn1F N3F 1_555 1_555
O1E C1E 1_555 1_555
O2E C1E 1_555 1_555
O3E C5E 1_555 1_555
O4E Zn1 1_555 1_555
O4B Zn1E 1_555 1_555
O5E C14E 1_555 1_555
O6E Zn1E 1_555 1_555
H1E O6E 1_555 1_555
H2E O6E 1_555 1_555
N1E Zn1E 1_555 1_555
N2E C22E 1_555 1_555
N3F C25F 1_555 1_555
N3E Zn1E 1_555 1_555
N4F C30F 1_555 1_555
C1E C2E 1_555 1_555
C2E C3E 1_555 1_555
C3E H9E 1_555 1_555
C4E C3E 1_555 1_555
H10E C4E 1_555 1_555
C5E C4E 1_555 1_555
C6E C5E 1_555 1_555
H11E C6E 1_555 1_555
C7E C2E 1_555 1_555
H12E C7E 1_555 1_555
C8E O3E 1_555 1_555
C9E C8E 1_555 1_555
H13E C9E 1_555 1_555
C10E C9E 1_555 1_555
H14E C10E 1_555 1_555
C11E C10E 1_555 1_555
C12E C11E 1_555 1_555
H15E C12E 1_555 1_555
C13E C8E 1_555 1_555
H16E C13E 1_555 1_555
C14E O4E 1_555 1_555
C15E N1E 1_555 1_555
H17E C15E 1_555 1_555
C16E C15E 1_555 1_555
H18E C16E 1_555 1_555
C17E C16E 1_555 1_555
C18E C17E 1_555 1_555
H19E C18E 1_555 1_555
C19E N1E 1_555 1_555
H20E C19E 1_555 1_555
C20E C17E 1_555 1_555
C21E C20E 1_555 1_555
H21E C21E 1_555 1_555
C22E C21E 1_555 1_555
H22E C22E 1_555 1_555
C23E N2E 1_555 1_555
H23E C23E 1_555 1_555
C24E C20E 1_555 1_555
H24E C24E 1_555 1_555
C25F H25F 1_555 1_555
C26F C25F 1_555 1_555
H26F C26F 1_555 1_555
C27F C27 1_555 1_555
C28F C27F 1_555 1_555
H27F C28F 1_555 1_555
C29F N3F 1_555 1_555
H28F C29F 1_555 1_555
C30F H29F 1_555 1_555
C31F C30F 1_555 1_555
H30F C31F 1_555 1_555
C32F C32 1_555 1_555
C33F C32F 1_555 1_555
H31F C33F 1_555 1_555
C34F N4F 1_555 1_555
H32F C34F 1_555 1_555
C6 C7 1_555 1_555
C12 C13 1_555 1_555
C18 C19 1_555 1_555
C23 C24 1_555 1_555
C28 C29 1_555 1_555
C33 C34 1_555 1_555
C6E C7E 1_555 1_555
C11E C14E 1_555 1_555
C12E C13E 1_555 1_555
C18E C19E 1_555 1_555
C23E C24E 1_555 1_555
C26F C27F 1_555 1_555
C28F C29F 1_555 1_555
C31F C32F 1_555 1_555
C33F C34F 1_555 1_555

#END
