
#######################################################################
#
#                 Cambridge Crystallographic Data Centre
#                                CCDC 
#
#######################################################################
#
# If this CIF has been generated from an entry in the Cambridge 
# Structural Database, then it will include bibliographic, chemical, 
# crystal, experimental, refinement or atomic coordinate data resulting 
# from the CCDC's data processing and validation procedures.
#
#######################################################################

data_LEDMOY
_symmetry_cell_setting           triclinic
_symmetry_space_group_name_H-M   'P -1'
_symmetry_Int_Tables_number      2
_space_group_name_Hall           '-P 1'
loop_
_symmetry_equiv_pos_site_id
_symmetry_equiv_pos_as_xyz
1 x,y,z
2 -x,-y,-z
_cell_length_a                   7.818(2)
_cell_length_b                   9.565(3)
_cell_length_c                   10.957(5)
_cell_angle_alpha                112.233(3)
_cell_angle_beta                 92.065(3)
_cell_angle_gamma                107.392(3)
_cell_volume                     713.375
loop_
_atom_site_label
_atom_site_type_symbol
_atom_site_fract_x
_atom_site_fract_y
_atom_site_fract_z
Cd1 Cd 0.17928(5) 0.45850(5) 0.32153(4)
P1 P -0.0168(2) 0.24584(19) 0.49011(16)
P2 P 0.5478(2) 0.3471(2) 0.35759(16)
O1 O 0.3442(6) 0.2843(5) 0.3173(5)
O2 O -0.0427(6) 0.2727(6) 0.3641(5)
O3 O -0.0040(7) 0.3819(6) 0.6199(5)
O4 O 0.1568(7) 0.1955(6) 0.4916(5)
H1 H 0.1347 0.1084 0.4161
O5 O 0.6327(7) 0.2340(6) 0.2543(5)
H2 H 0.5891 0.2111 0.1841
O6 O 0.6160(6) 0.3718(6) 0.4960(4)
N1 N 0.0640(7) 0.3142(7) 0.0918(5)
N2 N 0.3420(8) 0.5990(7) 0.2028(6)
C1 C 0.4756(11) 0.7372(10) 0.2594(8)
H3 H 0.5194 0.7737 0.3500
C2 C 0.5549(13) 0.8313(11) 0.1945(11)
H4 H 0.6471 0.9295 0.2398
C3 C 0.1356(10) 0.3821(8) 0.0102(6)
C4 C -0.0634(10) 0.1687(8) 0.0427(7)
H5 H -0.1103 0.1229 0.1008
C5 C -0.1263(12) 0.0851(10) -0.0929(8)
H6 H -0.2132 -0.0170 -0.1257
C6 C -0.0614(14) 0.1520(11) -0.1783(8)
H7 H -0.1059 0.0979 -0.2696
C7 C 0.0721(12) 0.3020(10) -0.1278(7)
H8 H 0.1192 0.3492 -0.1851
C8 C 0.2808(9) 0.5403(9) 0.0694(7)
C9 C 0.3532(11) 0.6266(10) -0.0045(8)
H9 H 0.3092 0.5861 -0.0955
C10 C 0.4917(12) 0.7739(11) 0.0577(9)
H10 H 0.5414 0.8331 0.0092
Cd1A Cd -0.17928(5) 0.54150(5) 0.67847(4)
Cd1A_2 Cd 0.82072(5) 0.54150(5) 0.67847(4)
O3A O 0.0040(7) 0.6181(6) 0.3801(5)
O6A O 0.3840(6) 0.6282(6) 0.5040(4)
loop_
_geom_bond_atom_site_label_1
_geom_bond_atom_site_label_2
_geom_bond_site_symmetry_1
_geom_bond_site_symmetry_2
Cd1 O1 1_555 1_555
P1 O2 1_555 1_555
P2 O1 1_555 1_555
O2 Cd1 1_555 1_555
O3 P1 1_555 1_555
O4 P1 1_555 1_555
H1 O4 1_555 1_555
O5 P2 1_555 1_555
H2 O5 1_555 1_555
O6 P2 1_555 1_555
N1 Cd1 1_555 1_555
N2 Cd1 1_555 1_555
C1 N2 1_555 1_555
H3 C1 1_555 1_555
C2 C1 1_555 1_555
H4 C2 1_555 1_555
C3 N1 1_555 1_555
C4 N1 1_555 1_555
H5 C4 1_555 1_555
C5 C4 1_555 1_555
H6 C5 1_555 1_555
C6 C5 1_555 1_555
H7 C6 1_555 1_555
C7 C3 1_555 1_555
H8 C7 1_555 1_555
C8 N2 1_555 1_555
C9 C8 1_555 1_555
H9 C9 1_555 1_555
C10 C2 1_555 1_555
H10 C10 1_555 1_555
Cd1A O3 1_555 1_555
Cd1A_2 O6 1_555 1_555
O3A Cd1 1_555 1_555
O6A Cd1 1_555 1_555
C3 C8 1_555 1_555
C6 C7 1_555 1_555
C9 C10 1_555 1_555

#END
