
#######################################################################
#
#                 Cambridge Crystallographic Data Centre
#                                CCDC 
#
#######################################################################
#
# If this CIF has been generated from an entry in the Cambridge 
# Structural Database, then it will include bibliographic, chemical, 
# crystal, experimental, refinement or atomic coordinate data resulting 
# from the CCDC's data processing and validation procedures.
#
#######################################################################

data_LEDNOZ
_symmetry_cell_setting           triclinic
_symmetry_space_group_name_H-M   'P -1'
_symmetry_Int_Tables_number      2
_space_group_name_Hall           '-P 1'
loop_
_symmetry_equiv_pos_site_id
_symmetry_equiv_pos_as_xyz
1 x,y,z
2 -x,-y,-z
_cell_length_a                   10.6833(16)
_cell_length_b                   12.3440(18)
_cell_length_c                   17.338(3)
_cell_angle_alpha                78.569(2)
_cell_angle_beta                 76.272(2)
_cell_angle_gamma                79.651(2)
_cell_volume                     2155.85
loop_
_atom_site_label
_atom_site_type_symbol
_atom_site_fract_x
_atom_site_fract_y
_atom_site_fract_z
Er1 Er -0.72633(3) 0.75880(3) 0.250797(18)
Er2 Er 0.21854(3) 0.42434(3) 0.265490(19)
Er3 Er -0.64356(3) 1.12430(3) 0.13515(2)
O1 O -0.5763(4) 0.8704(4) 0.2275(3)
O2 O -0.4582(5) 0.9945(4) 0.1454(3)
O3 O 0.0287(5) 0.5461(4) 0.2663(3)
O4 O 0.0806(4) 0.6956(4) 0.2986(3)
O5 O -0.8589(5) 0.9184(4) 0.3010(3)
O6 O -0.7865(5) 0.7843(4) 0.3916(3)
O7 O -0.7126(5) 0.4698(4) 0.3684(3)
O8 O -0.6078(4) 0.6140(4) 0.3141(3)
O9 O 0.1700(5) 0.3696(4) 0.1631(3)
O10 O 0.2304(5) 0.2647(4) 0.0676(3)
O11 O -0.5660(4) 0.6992(4) 0.1395(3)
O12 O -0.7202(4) 0.5925(4) 0.1814(3)
O13 O -0.8054(5) 0.8494(4) 0.1426(3)
O14 O -0.7063(5) 0.9958(4) 0.0776(3)
O15 O 0.2683(6) 0.2474(4) 0.3226(3)
O16 O 0.3710(6) 0.0993(5) 0.2655(3)
O17 O 0.4662(5) 0.2624(4) 0.1357(3)
O18 O 0.4374(5) 0.3853(4) 0.2184(3)
C1 C 0.0802(7) 0.4262(6) 0.0462(4)
C2 C 0.0017(7) 0.5188(6) 0.0756(4)
H1 H 0.0017 0.5320 0.1266
C3 C 0.1607(6) 0.3480(5) 0.0966(4)
C4 C -0.6344(7) 0.5249(6) 0.0209(4)
H2 H -0.7242 0.5431 0.0350
C5 C -0.5547(7) 0.5583(6) 0.0627(4)
C6 C -0.4188(7) 0.5337(6) 0.0400(4)
H3 H -0.3656 0.5576 0.0667
C7 C -0.6188(8) 0.6188(7) 0.1326(4)
C8 C -0.9959(7) 0.9007(6) 0.0528(4)
H4 H -0.9930 0.8331 0.0879
C9 C -0.8992(7) 0.9676(6) 0.0432(5)
C10 C -0.9039(7) 1.0675(6) -0.0114(4)
H5 H -0.8394 1.1127 -0.0199
C11 C -0.7988(6) 0.9351(5) 0.0915(4)
C12 C -0.2141(7) 0.6614(6) 0.2438(5)
H6 H -0.2015 0.5842 0.2474
C13 C -0.3276(7) 0.7230(6) 0.2253(4)
H7 H -0.3922 0.6863 0.2188
C14 C -0.3470(6) 0.8385(6) 0.2162(4)
C15 C -0.2529(7) 0.8924(6) 0.2301(5)
H8 H -0.2659 0.9698 0.2257
C16 C -0.1374(7) 0.8302(6) 0.2508(5)
H9 H -0.0744 0.8661 0.2603
C17 C -0.1193(6) 0.7144(6) 0.2568(4)
C18 C 0.0064(8) 0.6476(7) 0.2752(4)
C19 C -0.4689(7) 0.9075(6) 0.1946(4)
C20 C -1.0066(7) 1.0412(6) 0.4214(5)
H10 H -1.0118 1.0690 0.3681
C21 C -0.9285(7) 0.9395(6) 0.4391(4)
C22 C -0.9246(8) 0.8994(6) 0.5199(4)
H11 H -0.8746 0.8315 0.5337
C23 C -0.8501(7) 0.8768(6) 0.3742(4)
C24 C -0.5732(8) 0.4208(8) 0.4946(5)
H12 H -0.6232 0.3676 0.4923
C25 C -0.5624(7) 0.5149(6) 0.4344(4)
C26 C -0.6326(7) 0.5343(6) 0.3670(4)
C27 C -0.4910(8) 0.5933(7) 0.4419(5)
H13 H -0.4853 0.6576 0.4035
C28 C 0.0752(8) 0.4099(6) -0.0290(5)
H14 H 0.1260 0.3480 -0.0490
O19 O -0.5140(5) 1.1430(4) 0.0037(3)
H15 H -0.4502(14) 1.102(2) -0.0150(19)
H16 H -0.5597(16) 1.170(3) -0.0285(13)
O20 O -0.8534(5) 1.1163(5) 0.2065(3)
H17 H -0.878(3) 1.0589(12) 0.2331(15)
H18 H -0.902(2) 1.148(2) 0.1761(13)
C29 C 0.3971(9) -0.0919(8) 0.4910(5)
H19 H 0.4350 -0.1662 0.4945
C30 C 0.3917(9) -0.0287(8) 0.4158(6)
H20 H 0.4255 -0.0625 0.3704
C31 C 0.3376(9) 0.0835(7) 0.4057(5)
C32 C 0.2882(8) 0.1313(8) 0.4765(5)
H21 H 0.2552 0.2067 0.4732
C33 C 0.3285(8) 0.1477(7) 0.3244(5)
C34 C 0.8594(8) 0.1836(8) 0.1469(6)
H22 H 0.9133 0.1305 0.1184
C35 C 0.7311(8) 0.2093(7) 0.1393(5)
H23 H 0.7005 0.1742 0.1061
C36 C 0.6489(7) 0.2873(6) 0.1813(5)
C37 C 0.7016(9) 0.3394(8) 0.2263(6)
H24 H 0.6504 0.3951 0.2535
C38 C 0.8348(8) 0.3085(7) 0.2317(5)
H25 H 0.8696 0.3435 0.2630
C39 C 0.5040(7) 0.3155(6) 0.1793(5)
N1 N 0.3483(8) -0.0479(8) 0.5597(6)
N2 N 0.9092(7) 0.2306(6) 0.1925(5)
C40 C 0.2891(9) 0.0618(8) 0.5543(5)
H26 H 0.2497 0.0912 0.6011
O21 O 0.0426(6) 0.3556(6) 0.3666(4)
H27 H -0.0303(12) 0.396(3) 0.3723(10)
H28 H 0.0736(13) 0.364(3) 0.4053(9)
Er1_2 Er -1.72633(3) 0.75880(3) 0.250797(18)
Er1_3 Er 0.27367(3) 0.75880(3) 0.250797(18)
Er1A Er -1.27367(3) 1.24120(3) 0.749203(18)
Er1A_2 Er -0.27367(3) 0.24120(3) 0.749203(18)
Er1A_3 Er -0.27367(3) 0.24120(3) -0.250797(18)
Er1A_4 Er -1.27367(3) 1.24120(3) -0.250797(18)
Er2_2 Er -0.78146(3) 0.42434(3) 0.265490(19)
Er2A Er -0.21854(3) 0.57566(3) 0.734510(19)
Er2A_2 Er -0.21854(3) 0.57566(3) -0.265490(19)
Er2_3 Er -0.78146(3) 1.42434(3) 0.265490(19)
Er3_2 Er -1.64356(3) 1.12430(3) 0.13515(2)
Er3_3 Er 0.35644(3) 0.12430(3) 0.13515(2)
Er3A Er -0.35644(3) 0.87570(3) -0.13515(2)
Er3A_2 Er -1.35644(3) 0.87570(3) -0.13515(2)
O1_2 O -1.5763(4) 0.8704(4) 0.2275(3)
O2_2 O -1.4582(5) 0.9945(4) 0.1454(3)
O3_2 O -0.9713(5) 0.5461(4) 0.2663(3)
O4_2 O -0.9194(4) 0.6956(4) 0.2986(3)
O4_3 O -1.9194(4) 0.6956(4) 0.2986(3)
O5A O -1.1411(5) 1.0816(4) 0.6990(3)
O5_2 O -1.8589(5) 0.9184(4) 0.3010(3)
O6A O -1.2135(5) 1.2157(4) 0.6084(3)
O6_2 O -1.7865(5) 0.7843(4) 0.3916(3)
O7A O -0.2874(5) 0.5302(4) 0.6316(3)
O7_2 O 0.2874(5) 0.4698(4) 0.3684(3)
O8A O -0.3922(4) 0.3860(4) 0.6859(3)
O8_2 O -1.6078(4) 0.6140(4) 0.3141(3)
O9A O -0.1700(5) 0.6304(4) -0.1631(3)
O9_2 O -0.8300(5) 0.3696(4) 0.1631(3)
O10A O -0.2304(5) 0.7353(4) -0.0676(3)
O10_2 O -0.7696(5) 1.2647(4) 0.0676(3)
O10_3 O -1.7696(5) 1.2647(4) 0.0676(3)
O11A O -0.4340(4) 0.3008(4) -0.1395(3)
O11_2 O -1.5660(4) 0.6992(4) 0.1395(3)
O12A O -0.2798(4) 0.4075(4) -0.1814(3)
O12_2 O 0.2798(4) 0.5925(4) 0.1814(3)
O12_3 O -1.7202(4) 0.5925(4) 0.1814(3)
O13A O -1.1946(5) 1.1506(4) -0.1426(3)
O13_2 O -1.8054(5) 0.8494(4) 0.1426(3)
O14A O -1.2937(5) 1.0042(4) -0.0776(3)
O14_2 O -1.7063(5) 0.9958(4) 0.0776(3)
O15_2 O -0.7317(6) 1.2474(4) 0.3226(3)
O15_3 O -0.7317(6) 0.2474(4) 0.3226(3)
O16_2 O -0.6290(6) 1.0993(5) 0.2655(3)
O16_3 O -1.6290(6) 1.0993(5) 0.2655(3)
O17_2 O -0.5338(5) 1.2624(4) 0.1357(3)
O17_3 O -1.5338(5) 1.2624(4) 0.1357(3)
O18_2 O -0.5626(5) 1.3853(4) 0.2184(3)
O18_3 O -0.5626(5) 0.3853(4) 0.2184(3)
C1A C -0.0802(7) 0.5738(6) -0.0462(4)
C2A C -0.0017(7) 0.4812(6) -0.0756(4)
H1A H -0.0017 0.4680 -0.1266
C3A C -0.1607(6) 0.6520(5) -0.0966(4)
C4A C -0.3656(7) 0.4751(6) -0.0209(4)
H2A H -0.2758 0.4569 -0.0350
C5A C -0.4453(7) 0.4417(6) -0.0627(4)
C6A C -0.5812(7) 0.4663(6) -0.0400(4)
H3A H -0.6344 0.4424 -0.0667
C7A C -0.3812(8) 0.3812(7) -0.1326(4)
C8A C -1.0041(7) 1.0993(6) -0.0528(4)
H4A H -1.0070 1.1669 -0.0879
C9A C -1.1008(7) 1.0324(6) -0.0432(5)
C10A C -1.0961(7) 0.9325(6) 0.0114(4)
H5A H -1.1606 0.8873 0.0199
C11A C -1.2012(6) 1.0649(5) -0.0915(4)
C12_2 C -1.2141(7) 0.6614(6) 0.2438(5)
H6_2 H -1.2015 0.5842 0.2474
C13_2 C -1.3276(7) 0.7230(6) 0.2253(4)
H7_2 H -1.3922 0.6863 0.2188
C14_2 C -1.3470(6) 0.8385(6) 0.2162(4)
C15_2 C -1.2529(7) 0.8924(6) 0.2301(5)
H8_2 H -1.2659 0.9698 0.2257
C16_2 C -1.1374(7) 0.8302(6) 0.2508(5)
H9_2 H -1.0744 0.8661 0.2603
C17_2 C -1.1193(6) 0.7144(6) 0.2568(4)
C18_2 C -0.9936(8) 0.6476(7) 0.2752(4)
C19_2 C -1.4689(7) 0.9075(6) 0.1946(4)
C20A C -0.9934(7) 0.9588(6) 0.5786(5)
H10A H -0.9882 0.9310 0.6319
C21A C -1.0715(7) 1.0605(6) 0.5609(4)
C22A C -1.0754(8) 1.1006(6) 0.4801(4)
H11A H -1.1254 1.1685 0.4663
C23A C -1.1499(7) 1.1232(6) 0.6258(4)
C24A C -0.4268(8) 0.5792(8) 0.5054(5)
H12A H -0.3768 0.6324 0.5077
C25A C -0.4376(7) 0.4851(6) 0.5656(4)
C26A C -0.3674(7) 0.4657(6) 0.6330(4)
C27A C -0.5090(8) 0.4067(7) 0.5581(5)
H13A H -0.5147 0.3424 0.5965
C28A C -0.0752(8) 0.5901(6) 0.0290(5)
H14A H -0.1260 0.6520 0.0490
O19_2 O -1.5140(5) 1.1430(4) 0.0037(3)
H15_2 H -1.4502(14) 1.102(2) -0.0150(19)
H16_2 H -1.5597(16) 1.170(3) -0.0285(13)
O20_2 O -1.8534(5) 1.1163(5) 0.2065(3)
H17_2 H -1.878(3) 1.0589(12) 0.2331(15)
H18_2 H -1.902(2) 1.148(2) 0.1761(13)
C29_2 C -0.6029(9) 0.9081(8) 0.4910(5)
H19_2 H -0.5650 0.8338 0.4945
C30_2 C -0.6083(9) 0.9713(8) 0.4158(6)
H20_2 H -0.5745 0.9375 0.3704
C31_2 C -0.6624(9) 1.0835(7) 0.4057(5)
C32_2 C -0.7118(8) 1.1313(8) 0.4765(5)
H21_2 H -0.7448 1.2067 0.4732
C33_2 C -0.6715(8) 1.1477(7) 0.3244(5)
C34_2 C -0.1406(8) 1.1836(8) 0.1469(6)
H22_2 H -0.0867 1.1305 0.1184
C35_2 C -0.2689(8) 1.2093(7) 0.1393(5)
H23_2 H -0.2995 1.1742 0.1061
C36_2 C -0.3511(7) 1.2873(6) 0.1813(5)
C37_2 C -0.2984(9) 1.3394(8) 0.2263(6)
H24_2 H -0.3496 1.3951 0.2535
C38_2 C -0.1652(8) 1.3085(7) 0.2317(5)
H25_2 H -0.1304 1.3435 0.2630
C39_2 C -0.4960(7) 1.3155(6) 0.1793(5)
N1_2 N -0.6517(8) 0.9521(8) 0.5597(6)
N2_2 N -0.0908(7) 1.2306(6) 0.1925(5)
C40_2 C -0.7109(9) 1.0618(8) 0.5543(5)
H26_2 H -0.7503 1.0912 0.6011
O21_2 O -0.9574(6) 0.3556(6) 0.3666(4)
H27_2 H -1.0303(12) 0.396(3) 0.3723(10)
H28_2 H -0.9264(13) 0.364(3) 0.4053(9)
O22 O -1.0971(13) 0.3953(11) 0.5035(7)
H29 H -1.1741 0.3720 0.5116
H30 H -1.0703 0.3419 0.5408
loop_
_geom_bond_atom_site_label_1
_geom_bond_atom_site_label_2
_geom_bond_site_symmetry_1
_geom_bond_site_symmetry_2
Er1 O1 1_555 1_555
Er2 O3 1_555 1_555
Er3 O2 1_555 1_555
O1 C19 1_555 1_555
O2 C19 1_555 1_555
O3 C18 1_555 1_555
O4 C18 1_555 1_555
O5 Er1 1_555 1_555
O6 Er1 1_555 1_555
O7 C26 1_555 1_555
O8 Er1 1_555 1_555
O9 Er2 1_555 1_555
O10 C3 1_555 1_555
O11 Er1 1_555 1_555
O12 Er1 1_555 1_555
O13 Er1 1_555 1_555
O14 Er3 1_555 1_555
O15 Er2 1_555 1_555
O16 C33 1_555 1_555
O17 C39 1_555 1_555
O18 Er2 1_555 1_555
C1 C2 1_555 1_555
C2 H1 1_555 1_555
C3 O9 1_555 1_555
C4 H2 1_555 1_555
C5 C4 1_555 1_555
C6 C5 1_555 1_555
H3 C6 1_555 1_555
C7 O11 1_555 1_555
C8 H4 1_555 1_555
C9 C8 1_555 1_555
C10 C9 1_555 1_555
H5 C10 1_555 1_555
C11 O13 1_555 1_555
C12 H6 1_555 1_555
C13 C12 1_555 1_555
H7 C13 1_555 1_555
C14 C13 1_555 1_555
C15 C14 1_555 1_555
H8 C15 1_555 1_555
C16 C15 1_555 1_555
H9 C16 1_555 1_555
C17 C12 1_555 1_555
C18 C17 1_555 1_555
C19 C14 1_555 1_555
C20 H10 1_555 1_555
C21 C20 1_555 1_555
C22 C21 1_555 1_555
H11 C22 1_555 1_555
C23 O5 1_555 1_555
C24 H12 1_555 1_555
C25 C24 1_555 1_555
C26 O8 1_555 1_555
C27 C25 1_555 1_555
H13 C27 1_555 1_555
C28 C1 1_555 1_555
H14 C28 1_555 1_555
O19 Er3 1_555 1_555
H15 O19 1_555 1_555
H16 O19 1_555 1_555
O20 Er3 1_555 1_555
H17 O20 1_555 1_555
H18 O20 1_555 1_555
C29 H19 1_555 1_555
C30 C29 1_555 1_555
H20 C30 1_555 1_555
C31 C30 1_555 1_555
C32 C31 1_555 1_555
H21 C32 1_555 1_555
C33 O15 1_555 1_555
C34 H22 1_555 1_555
C35 C34 1_555 1_555
H23 C35 1_555 1_555
C36 C35 1_555 1_555
C37 C36 1_555 1_555
H24 C37 1_555 1_555
C38 C37 1_555 1_555
H25 C38 1_555 1_555
C39 O18 1_555 1_555
N1 C29 1_555 1_555
N2 C34 1_555 1_555
C40 C32 1_555 1_555
H26 C40 1_555 1_555
O21 Er2 1_555 1_555
H27 O21 1_555 1_555
H28 O21 1_555 1_555
O22 H29 1_555 1_555
H30 O22 1_555 1_555
Er1_2 O1_2 1_555 1_555
Er1_3 O4 1_555 1_555
Er1A O5A 1_555 1_555
Er1A_2 O8A 1_555 1_555
Er1A_3 O11A 1_555 1_555
Er1A_4 O13A 1_555 1_555
Er2_2 O7 1_555 1_555
Er2A O7A 1_555 1_555
Er2A_2 O9A 1_555 1_555
Er2_3 O15_2 1_555 1_555
Er3_2 O2_2 1_555 1_555
Er3_3 O10 1_555 1_555
Er3A O10A 1_555 1_555
Er3A_2 O14A 1_555 1_555
O1_2 C19_2 1_555 1_555
O2_2 C19_2 1_555 1_555
O3_2 Er2_2 1_555 1_555
O4_2 Er1 1_555 1_555
O4_3 Er1_2 1_555 1_555
O5A C23A 1_555 1_555
O5_2 Er1_2 1_555 1_555
O6A Er1A 1_555 1_555
O6_2 Er1_2 1_555 1_555
O7A C26A 1_555 1_555
O7_2 Er2 1_555 1_555
O8A C26A 1_555 1_555
O8_2 Er1_2 1_555 1_555
O9A C3A 1_555 1_555
O9_2 Er2_2 1_555 1_555
O10A C3A 1_555 1_555
O10_2 Er3 1_555 1_555
O10_3 Er3_2 1_555 1_555
O11A C7A 1_555 1_555
O11_2 Er1_2 1_555 1_555
O12A Er1A_3 1_555 1_555
O12_2 Er2 1_555 1_555
O12_3 Er1_2 1_555 1_555
O13A C11A 1_555 1_555
O13_2 Er1_2 1_555 1_555
O14A C11A 1_555 1_555
O14_2 Er3_2 1_555 1_555
O15_2 C33_2 1_555 1_555
O15_3 Er2_2 1_555 1_555
O16_2 Er3 1_555 1_555
O16_3 Er3_2 1_555 1_555
O17_2 Er3 1_555 1_555
O17_3 Er3_2 1_555 1_555
O18_2 Er2_3 1_555 1_555
O18_3 Er2_2 1_555 1_555
C1A C2A 1_555 1_555
C2A C28 1_555 1_555
H1A C2A 1_555 1_555
C3A C1A 1_555 1_555
C4A C6 1_555 1_555
H2A C4A 1_555 1_555
C5A C4A 1_555 1_555
C6A C4 1_555 1_555
H3A C6A 1_555 1_555
C7A O12A 1_555 1_555
C8A C10 1_555 1_555
H4A C8A 1_555 1_555
C9A C8A 1_555 1_555
C10A C8 1_555 1_555
H5A C10A 1_555 1_555
C11A C9A 1_555 1_555
C12_2 H6_2 1_555 1_555
C13_2 C12_2 1_555 1_555
H7_2 C13_2 1_555 1_555
C14_2 C13_2 1_555 1_555
C15_2 C14_2 1_555 1_555
H8_2 C15_2 1_555 1_555
C16_2 C15_2 1_555 1_555
H9_2 C16_2 1_555 1_555
C17_2 C12_2 1_555 1_555
C18_2 O3_2 1_555 1_555
C19_2 C14_2 1_555 1_555
C20A C22 1_555 1_555
H10A C20A 1_555 1_555
C21A C20A 1_555 1_555
C22A C20 1_555 1_555
H11A C22A 1_555 1_555
C23A O6A 1_555 1_555
C24A C27 1_555 1_555
H12A C24A 1_555 1_555
C25A C24A 1_555 1_555
C26A C25A 1_555 1_555
C27A C24 1_555 1_555
H13A C27A 1_555 1_555
C28A C2 1_555 1_555
H14A C28A 1_555 1_555
O19_2 Er3_2 1_555 1_555
H15_2 O19_2 1_555 1_555
H16_2 O19_2 1_555 1_555
O20_2 Er3_2 1_555 1_555
H17_2 O20_2 1_555 1_555
H18_2 O20_2 1_555 1_555
C29_2 H19_2 1_555 1_555
C30_2 C29_2 1_555 1_555
H20_2 C30_2 1_555 1_555
C31_2 C30_2 1_555 1_555
C32_2 C31_2 1_555 1_555
H21_2 C32_2 1_555 1_555
C33_2 O16_2 1_555 1_555
C34_2 H22_2 1_555 1_555
C35_2 C34_2 1_555 1_555
H23_2 C35_2 1_555 1_555
C36_2 C35_2 1_555 1_555
C37_2 C36_2 1_555 1_555
H24_2 C37_2 1_555 1_555
C38_2 C37_2 1_555 1_555
H25_2 C38_2 1_555 1_555
C39_2 O17_2 1_555 1_555
N1_2 C29_2 1_555 1_555
N2_2 C34_2 1_555 1_555
C40_2 C32_2 1_555 1_555
H26_2 C40_2 1_555 1_555
O21_2 Er2_2 1_555 1_555
H27_2 O21_2 1_555 1_555
H28_2 O21_2 1_555 1_555
O6 C23 1_555 1_555
O12 C7 1_555 1_555
O12 Er2_2 1_555 1_555
O14 C11 1_555 1_555
O16 Er3_3 1_555 1_555
O17 Er3_3 1_555 1_555
C1 C3 1_555 1_555
C5 C7 1_555 1_555
C9 C11 1_555 1_555
C16 C17 1_555 1_555
C21 C23 1_555 1_555
C25 C26 1_555 1_555
C31 C33 1_555 1_555
C36 C39 1_555 1_555
C38 N2 1_555 1_555
N1 C40 1_555 1_555
Er1_3 O12_2 1_555 1_555
Er2A_2 O12A 1_555 1_555
O4_2 C18_2 1_555 1_555
O18_2 C39_2 1_555 1_555
C1A C28A 1_555 1_555
C5A C6A 1_555 1_555
C5A C7A 1_555 1_555
C9A C10A 1_555 1_555
C16_2 C17_2 1_555 1_555
C17_2 C18_2 1_555 1_555
C21A C22A 1_555 1_555
C21A C23A 1_555 1_555
C25A C27A 1_555 1_555
C31_2 C33_2 1_555 1_555
C36_2 C39_2 1_555 1_555
C38_2 N2_2 1_555 1_555
N1_2 C40_2 1_555 1_555

#END
