
#######################################################################
#
#                 Cambridge Crystallographic Data Centre
#                                CCDC 
#
#######################################################################
#
# If this CIF has been generated from an entry in the Cambridge 
# Structural Database, then it will include bibliographic, chemical, 
# crystal, experimental, refinement or atomic coordinate data resulting 
# from the CCDC's data processing and validation procedures.
#
#######################################################################

data_LEDNUF
_symmetry_cell_setting           triclinic
_symmetry_space_group_name_H-M   'P -1'
_symmetry_Int_Tables_number      2
_space_group_name_Hall           '-P 1'
loop_
_symmetry_equiv_pos_site_id
_symmetry_equiv_pos_as_xyz
1 x,y,z
2 -x,-y,-z
_cell_length_a                   10.729(4)
_cell_length_b                   12.395(5)
_cell_length_c                   17.392(7)
_cell_angle_alpha                78.579(5)
_cell_angle_beta                 76.347(5)
_cell_angle_gamma                79.482(5)
_cell_volume                     2180.53
loop_
_atom_site_label
_atom_site_type_symbol
_atom_site_fract_x
_atom_site_fract_y
_atom_site_fract_z
Ho1 Ho -0.72651(4) 0.75901(4) 0.25042(3)
Ho2 Ho 0.21993(4) 0.42479(4) 0.26517(3)
Ho3 Ho -0.64393(4) 1.12404(4) 0.13529(3)
O1 O -0.5756(6) 0.8702(6) 0.2277(5)
O2 O -0.4580(7) 0.9949(6) 0.1455(4)
O3 O 0.0305(6) 0.5482(5) 0.2654(5)
O4 O 0.0788(6) 0.6965(6) 0.2983(4)
O5 O -0.8585(8) 0.9207(6) 0.3007(4)
O6 O -0.7872(7) 0.7847(6) 0.3907(4)
O7 O -0.7088(8) 0.4698(7) 0.3679(5)
O8 O -0.6047(7) 0.6147(6) 0.3146(4)
O9 O 0.1691(7) 0.3695(6) 0.1638(4)
O10 O 0.2312(7) 0.2648(6) 0.0657(4)
O11 O -0.5638(6) 0.6983(5) 0.1383(4)
O12 O -0.7178(7) 0.5930(6) 0.1802(4)
O13 O -0.8060(7) 0.8478(6) 0.1427(4)
O14 O -0.7094(7) 0.9953(6) 0.0771(4)
O15 O 0.2681(8) 0.2471(6) 0.3233(5)
O16 O 0.3715(8) 0.0990(7) 0.2682(5)
O17 O 0.4659(7) 0.2642(6) 0.1341(5)
O18 O 0.4401(7) 0.3864(6) 0.2168(5)
C1 C 0.0794(10) 0.4257(9) 0.0463(7)
C2 C 0.0027(10) 0.5198(8) 0.0762(7)
H1 H 0.0046 0.5329 0.1267
C3 C 0.1640(9) 0.3500(8) 0.0951(6)
C4 C -0.6302(9) 0.5235(8) 0.0219(6)
H2 H -0.7195 0.5427 0.0361
C5 C -0.5522(11) 0.5563(10) 0.0634(8)
C6 C -0.4202(10) 0.5364(8) 0.0391(6)
H3 H -0.3663 0.5630 0.0636
C7 C -0.6142(10) 0.6179(10) 0.1303(6)
C8 C -0.9949(9) 0.9017(9) 0.0526(6)
H4 H -0.9898 0.8342 0.0872
C9 C -0.9015(10) 0.9686(10) 0.0425(7)
C10 C -0.9022(9) 1.0676(9) -0.0122(6)
H5 H -0.8369 1.1115 -0.0214
C11 C -0.7988(10) 0.9357(8) 0.0911(6)
C12 C -0.2147(9) 0.6620(9) 0.2416(7)
H6 H -0.2014 0.5854 0.2434
C13 C -0.3274(10) 0.7219(9) 0.2241(7)
H7 H -0.3926 0.6864 0.2177
C14 C -0.3428(9) 0.8382(8) 0.2161(7)
C15 C -0.2504(9) 0.8908(8) 0.2291(6)
H8 H -0.2626 0.9680 0.2235
C16 C -0.1382(10) 0.8298(8) 0.2506(6)
H9 H -0.0760 0.8652 0.2609
C17 C -0.1201(10) 0.7117(8) 0.2564(6)
C18 C 0.0058(9) 0.6479(8) 0.2743(6)
C19 C -0.4685(9) 0.9060(8) 0.1954(6)
C20 C -1.0052(9) 1.0413(8) 0.4212(6)
H10 H -1.0079 1.0694 0.3678
C21 C -0.9311(9) 0.9391(9) 0.4407(6)
C22 C -0.9237(10) 0.8971(10) 0.5182(7)
H11 H -0.8731 0.8294 0.5311
C23 C -0.8535(10) 0.8803(8) 0.3708(7)
C24 C -0.5715(13) 0.4200(12) 0.4944(8)
H12 H -0.6183 0.3660 0.4902
C25 C -0.5597(12) 0.5141(10) 0.4353(7)
C26 C -0.6299(11) 0.5328(9) 0.3676(6)
C27 C -0.4886(13) 0.5929(11) 0.4392(8)
H13 H -0.4796 0.6542 0.3988
C28 C 0.0759(9) 0.4072(8) -0.0296(6)
H14 H 0.1267 0.3455 -0.0493
O19 O -0.5110(8) 1.1435(6) 0.0042(4)
H15 H -0.4545 1.0954 -0.0130
H16 H -0.5609 1.1683 -0.0261
O20 O -0.8539(6) 1.1138(7) 0.2084(5)
H17 H -0.8725 1.0543 0.2350
H18 H -0.9057 1.1412 0.1796
C29 C 0.3938(12) -0.0887(11) 0.4943(8)
H19 H 0.4321 -0.1627 0.5003
C30 C 0.3926(11) -0.0279(10) 0.4147(8)
H20 H 0.4292 -0.0617 0.3697
C31 C 0.3352(11) 0.0824(10) 0.4070(8)
C32 C 0.2839(13) 0.1305(13) 0.4771(7)
H21 H 0.2460 0.2045 0.4746
C33 C 0.3265(11) 0.1490(10) 0.3248(7)
C34 C 0.8571(11) 0.1811(11) 0.1468(9)
H22 H 0.9094 0.1265 0.1193
C35 C 0.7284(11) 0.2110(11) 0.1383(8)
H23 H 0.6972 0.1783 0.1042
C36 C 0.6486(9) 0.2883(9) 0.1800(7)
C37 C 0.7054(13) 0.3428(13) 0.2220(9)
H24 H 0.6576 0.4026 0.2457
C38 C 0.8317(11) 0.3089(10) 0.2288(8)
H25 H 0.8662 0.3439 0.2599
C39 C 0.5092(10) 0.3142(9) 0.1785(7)
N1 N 0.3438(10) -0.0440(10) 0.5575(7)
N2 N 0.9071(9) 0.2277(9) 0.1925(8)
C40 C 0.2928(11) 0.0609(10) 0.5510(7)
H26 H 0.2606 0.0914 0.5978
O21 O 0.0431(8) 0.3594(8) 0.3657(5)
H27 H -0.0259(14) 0.404(2) 0.3776(10)
H28 H 0.0732(15) 0.345(4) 0.4079(8)
Ho1_2 Ho -1.72651(4) 0.75901(4) 0.25042(3)
Ho1_3 Ho 0.27349(4) 0.75901(4) 0.25042(3)
Ho1A Ho -1.27349(4) 1.24099(4) 0.74958(3)
Ho1A_2 Ho -0.27349(4) 0.24099(4) 0.74958(3)
Ho1A_3 Ho -0.27349(4) 0.24099(4) -0.25042(3)
Ho1A_4 Ho -1.27349(4) 1.24099(4) -0.25042(3)
Ho2_2 Ho -0.78007(4) 0.42479(4) 0.26517(3)
Ho2A Ho -0.21993(4) 0.57521(4) 0.73483(3)
Ho2A_2 Ho -0.21993(4) 0.57521(4) -0.26517(3)
Ho2_3 Ho -0.78007(4) 1.42479(4) 0.26517(3)
Ho3_2 Ho -1.64393(4) 1.12404(4) 0.13529(3)
Ho3_3 Ho 0.35607(4) 0.12404(4) 0.13529(3)
Ho3A Ho -0.35607(4) 0.87596(4) -0.13529(3)
Ho3A_2 Ho -1.35607(4) 0.87596(4) -0.13529(3)
O1_2 O -1.5756(6) 0.8702(6) 0.2277(5)
O2_2 O -1.4580(7) 0.9949(6) 0.1455(4)
O3_2 O -0.9695(6) 0.5482(5) 0.2654(5)
O4_2 O -0.9212(6) 0.6965(6) 0.2983(4)
O4_3 O -1.9212(6) 0.6965(6) 0.2983(4)
O5A O -1.1415(8) 1.0793(6) 0.6993(4)
O5_2 O -1.8585(8) 0.9207(6) 0.3007(4)
O6A O -1.2128(7) 1.2153(6) 0.6093(4)
O6_2 O -1.7872(7) 0.7847(6) 0.3907(4)
O7A O -0.2912(8) 0.5302(7) 0.6321(5)
O7_2 O 0.2912(8) 0.4698(7) 0.3679(5)
O8A O -0.3953(7) 0.3853(6) 0.6854(4)
O8_2 O -1.6047(7) 0.6147(6) 0.3146(4)
O9A O -0.1691(7) 0.6305(6) -0.1638(4)
O9_2 O -0.8309(7) 0.3695(6) 0.1638(4)
O10A O -0.2312(7) 0.7352(6) -0.0657(4)
O10_2 O -0.7688(7) 1.2648(6) 0.0657(4)
O10_3 O -1.7688(7) 1.2648(6) 0.0657(4)
O11A O -0.4362(6) 0.3017(5) -0.1383(4)
O11_2 O -1.5638(6) 0.6983(5) 0.1383(4)
O12A O -0.2822(7) 0.4070(6) -0.1802(4)
O12_2 O 0.2822(7) 0.5930(6) 0.1802(4)
O12_3 O -1.7178(7) 0.5930(6) 0.1802(4)
O13A O -1.1940(7) 1.1522(6) -0.1427(4)
O13_2 O -1.8060(7) 0.8478(6) 0.1427(4)
O14A O -1.2906(7) 1.0047(6) -0.0771(4)
O14_2 O -1.7094(7) 0.9953(6) 0.0771(4)
O15_2 O -0.7319(8) 1.2471(6) 0.3233(5)
O15_3 O -0.7319(8) 0.2471(6) 0.3233(5)
O16_2 O -0.6285(8) 1.0990(7) 0.2682(5)
O16_3 O -1.6285(8) 1.0990(7) 0.2682(5)
O17_2 O -0.5341(7) 1.2642(6) 0.1341(5)
O17_3 O -1.5341(7) 1.2642(6) 0.1341(5)
O18_2 O -0.5599(7) 1.3864(6) 0.2168(5)
O18_3 O -0.5599(7) 0.3864(6) 0.2168(5)
C1A C -0.0794(10) 0.5743(9) -0.0463(7)
C2A C -0.0027(10) 0.4802(8) -0.0762(7)
H1A H -0.0046 0.4671 -0.1267
C3A C -0.1640(9) 0.6500(8) -0.0951(6)
C4A C -0.3698(9) 0.4765(8) -0.0219(6)
H2A H -0.2805 0.4573 -0.0361
C5A C -0.4478(11) 0.4437(10) -0.0634(8)
C6A C -0.5798(10) 0.4636(8) -0.0391(6)
H3A H -0.6337 0.4370 -0.0636
C7A C -0.3858(10) 0.3821(10) -0.1303(6)
C8A C -1.0051(9) 1.0983(9) -0.0526(6)
H4A H -1.0102 1.1658 -0.0872
C9A C -1.0985(10) 1.0314(10) -0.0425(7)
C10A C -1.0978(9) 0.9324(9) 0.0122(6)
H5A H -1.1631 0.8885 0.0214
C11A C -1.2012(10) 1.0643(8) -0.0911(6)
C12_2 C -1.2147(9) 0.6620(9) 0.2416(7)
H6_2 H -1.2014 0.5854 0.2434
C13_2 C -1.3274(10) 0.7219(9) 0.2241(7)
H7_2 H -1.3926 0.6864 0.2177
C14_2 C -1.3428(9) 0.8382(8) 0.2161(7)
C15_2 C -1.2504(9) 0.8908(8) 0.2291(6)
H8_2 H -1.2626 0.9680 0.2235
C16_2 C -1.1382(10) 0.8298(8) 0.2506(6)
H9_2 H -1.0760 0.8652 0.2609
C17_2 C -1.1201(10) 0.7117(8) 0.2564(6)
C18_2 C -0.9942(9) 0.6479(8) 0.2743(6)
C19_2 C -1.4685(9) 0.9060(8) 0.1954(6)
C20A C -0.9948(9) 0.9587(8) 0.5788(6)
H10A H -0.9921 0.9306 0.6322
C21A C -1.0689(9) 1.0609(9) 0.5593(6)
C22A C -1.0763(10) 1.1029(10) 0.4818(7)
H11A H -1.1269 1.1706 0.4689
C23A C -1.1465(10) 1.1197(8) 0.6292(7)
C24A C -0.4285(13) 0.5800(12) 0.5056(8)
H12A H -0.3817 0.6340 0.5098
C25A C -0.4403(12) 0.4859(10) 0.5647(7)
C26A C -0.3701(11) 0.4672(9) 0.6324(6)
C27A C -0.5114(13) 0.4071(11) 0.5608(8)
H13A H -0.5204 0.3458 0.6012
C28A C -0.0759(9) 0.5928(8) 0.0296(6)
H14A H -0.1267 0.6545 0.0493
O19_2 O -1.5110(8) 1.1435(6) 0.0042(4)
H15_2 H -1.4545 1.0954 -0.0130
H16_2 H -1.5609 1.1683 -0.0261
O20_2 O -1.8539(6) 1.1138(7) 0.2084(5)
H17_2 H -1.8725 1.0543 0.2350
H18_2 H -1.9057 1.1412 0.1796
C29_2 C -0.6062(12) 0.9113(11) 0.4943(8)
H19_2 H -0.5679 0.8373 0.5003
C30_2 C -0.6074(11) 0.9721(10) 0.4147(8)
H20_2 H -0.5708 0.9383 0.3697
C31_2 C -0.6648(11) 1.0824(10) 0.4070(8)
C32_2 C -0.7161(13) 1.1305(13) 0.4771(7)
H21_2 H -0.7540 1.2045 0.4746
C33_2 C -0.6735(11) 1.1490(10) 0.3248(7)
C34_2 C -0.1429(11) 1.1811(11) 0.1468(9)
H22_2 H -0.0906 1.1265 0.1193
C35_2 C -0.2716(11) 1.2110(11) 0.1383(8)
H23_2 H -0.3028 1.1783 0.1042
C36_2 C -0.3514(9) 1.2883(9) 0.1800(7)
C37_2 C -0.2946(13) 1.3428(13) 0.2220(9)
H24_2 H -0.3424 1.4026 0.2457
C38_2 C -0.1683(11) 1.3089(10) 0.2288(8)
H25_2 H -0.1338 1.3439 0.2599
C39_2 C -0.4908(10) 1.3142(9) 0.1785(7)
N1_2 N -0.6562(10) 0.9560(10) 0.5575(7)
N2_2 N -0.0929(9) 1.2277(9) 0.1925(8)
C40_2 C -0.7072(11) 1.0609(10) 0.5510(7)
H26_2 H -0.7394 1.0914 0.5978
O21_2 O -0.9569(8) 0.3594(8) 0.3657(5)
H27_2 H -1.0259(14) 0.404(2) 0.3776(10)
H28_2 H -0.9268(15) 0.345(4) 0.4079(8)
O22 O -1.0880(17) 0.3861(14) 0.5098(9)
H29 H -1.1651 0.3629 0.5179
H30 H -1.0612 0.3328 0.5471
loop_
_geom_bond_atom_site_label_1
_geom_bond_atom_site_label_2
_geom_bond_site_symmetry_1
_geom_bond_site_symmetry_2
Ho1 O1 1_555 1_555
Ho2 O3 1_555 1_555
Ho3 O2 1_555 1_555
O1 C19 1_555 1_555
O2 C19 1_555 1_555
O3 C18 1_555 1_555
O4 C18 1_555 1_555
O5 Ho1 1_555 1_555
O6 Ho1 1_555 1_555
O7 C26 1_555 1_555
O8 Ho1 1_555 1_555
O9 Ho2 1_555 1_555
O10 C3 1_555 1_555
O11 Ho1 1_555 1_555
O12 Ho1 1_555 1_555
O13 Ho1 1_555 1_555
O14 Ho3 1_555 1_555
O15 Ho2 1_555 1_555
O16 C33 1_555 1_555
O17 C39 1_555 1_555
O18 Ho2 1_555 1_555
C1 C2 1_555 1_555
C2 H1 1_555 1_555
C3 O9 1_555 1_555
C4 H2 1_555 1_555
C5 C4 1_555 1_555
C6 C5 1_555 1_555
H3 C6 1_555 1_555
C7 O11 1_555 1_555
C8 H4 1_555 1_555
C9 C8 1_555 1_555
C10 C9 1_555 1_555
H5 C10 1_555 1_555
C11 O13 1_555 1_555
C12 H6 1_555 1_555
C13 C12 1_555 1_555
H7 C13 1_555 1_555
C14 C13 1_555 1_555
C15 C14 1_555 1_555
H8 C15 1_555 1_555
C16 C15 1_555 1_555
H9 C16 1_555 1_555
C17 C12 1_555 1_555
C18 C17 1_555 1_555
C19 C14 1_555 1_555
C20 H10 1_555 1_555
C21 C20 1_555 1_555
C22 C21 1_555 1_555
H11 C22 1_555 1_555
C23 O5 1_555 1_555
C24 H12 1_555 1_555
C25 C24 1_555 1_555
C26 O8 1_555 1_555
C27 C25 1_555 1_555
H13 C27 1_555 1_555
C28 C1 1_555 1_555
H14 C28 1_555 1_555
O19 Ho3 1_555 1_555
H15 O19 1_555 1_555
H16 O19 1_555 1_555
O20 Ho3 1_555 1_555
H17 O20 1_555 1_555
H18 O20 1_555 1_555
C29 H19 1_555 1_555
C30 C29 1_555 1_555
H20 C30 1_555 1_555
C31 C30 1_555 1_555
C32 C31 1_555 1_555
H21 C32 1_555 1_555
C33 O15 1_555 1_555
C34 H22 1_555 1_555
C35 C34 1_555 1_555
H23 C35 1_555 1_555
C36 C35 1_555 1_555
C37 C36 1_555 1_555
H24 C37 1_555 1_555
C38 C37 1_555 1_555
H25 C38 1_555 1_555
C39 O18 1_555 1_555
N1 C29 1_555 1_555
N2 C34 1_555 1_555
C40 C32 1_555 1_555
H26 C40 1_555 1_555
O21 Ho2 1_555 1_555
H27 O21 1_555 1_555
H28 O21 1_555 1_555
O22 H29 1_555 1_555
H30 O22 1_555 1_555
Ho1_2 O1_2 1_555 1_555
Ho1_3 O4 1_555 1_555
Ho1A O5A 1_555 1_555
Ho1A_2 O8A 1_555 1_555
Ho1A_3 O11A 1_555 1_555
Ho1A_4 O13A 1_555 1_555
Ho2_2 O7 1_555 1_555
Ho2A O7A 1_555 1_555
Ho2A_2 O9A 1_555 1_555
Ho2_3 O15_2 1_555 1_555
Ho3_2 O2_2 1_555 1_555
Ho3_3 O10 1_555 1_555
Ho3A O10A 1_555 1_555
Ho3A_2 O14A 1_555 1_555
O1_2 C19_2 1_555 1_555
O2_2 C19_2 1_555 1_555
O3_2 Ho2_2 1_555 1_555
O4_2 Ho1 1_555 1_555
O4_3 Ho1_2 1_555 1_555
O5A C23A 1_555 1_555
O5_2 Ho1_2 1_555 1_555
O6A Ho1A 1_555 1_555
O6_2 Ho1_2 1_555 1_555
O7A C26A 1_555 1_555
O7_2 Ho2 1_555 1_555
O8A C26A 1_555 1_555
O8_2 Ho1_2 1_555 1_555
O9A C3A 1_555 1_555
O9_2 Ho2_2 1_555 1_555
O10A C3A 1_555 1_555
O10_2 Ho3 1_555 1_555
O10_3 Ho3_2 1_555 1_555
O11A C7A 1_555 1_555
O11_2 Ho1_2 1_555 1_555
O12A Ho1A_3 1_555 1_555
O12_2 Ho2 1_555 1_555
O12_3 Ho1_2 1_555 1_555
O13A C11A 1_555 1_555
O13_2 Ho1_2 1_555 1_555
O14A C11A 1_555 1_555
O14_2 Ho3_2 1_555 1_555
O15_2 C33_2 1_555 1_555
O15_3 Ho2_2 1_555 1_555
O16_2 Ho3 1_555 1_555
O16_3 Ho3_2 1_555 1_555
O17_2 Ho3 1_555 1_555
O17_3 Ho3_2 1_555 1_555
O18_2 Ho2_3 1_555 1_555
O18_3 Ho2_2 1_555 1_555
C1A C2A 1_555 1_555
C2A C28 1_555 1_555
H1A C2A 1_555 1_555
C3A C1A 1_555 1_555
C4A C6 1_555 1_555
H2A C4A 1_555 1_555
C5A C4A 1_555 1_555
C6A C4 1_555 1_555
H3A C6A 1_555 1_555
C7A O12A 1_555 1_555
C8A C10 1_555 1_555
H4A C8A 1_555 1_555
C9A C8A 1_555 1_555
C10A C8 1_555 1_555
H5A C10A 1_555 1_555
C11A C9A 1_555 1_555
C12_2 H6_2 1_555 1_555
C13_2 C12_2 1_555 1_555
H7_2 C13_2 1_555 1_555
C14_2 C13_2 1_555 1_555
C15_2 C14_2 1_555 1_555
H8_2 C15_2 1_555 1_555
C16_2 C15_2 1_555 1_555
H9_2 C16_2 1_555 1_555
C17_2 C12_2 1_555 1_555
C18_2 O3_2 1_555 1_555
C19_2 C14_2 1_555 1_555
C20A C22 1_555 1_555
H10A C20A 1_555 1_555
C21A C20A 1_555 1_555
C22A C20 1_555 1_555
H11A C22A 1_555 1_555
C23A O6A 1_555 1_555
C24A C27 1_555 1_555
H12A C24A 1_555 1_555
C25A C24A 1_555 1_555
C26A C25A 1_555 1_555
C27A C24 1_555 1_555
H13A C27A 1_555 1_555
C28A C2 1_555 1_555
H14A C28A 1_555 1_555
O19_2 Ho3_2 1_555 1_555
H15_2 O19_2 1_555 1_555
H16_2 O19_2 1_555 1_555
O20_2 Ho3_2 1_555 1_555
H17_2 O20_2 1_555 1_555
H18_2 O20_2 1_555 1_555
C29_2 H19_2 1_555 1_555
C30_2 C29_2 1_555 1_555
H20_2 C30_2 1_555 1_555
C31_2 C30_2 1_555 1_555
C32_2 C31_2 1_555 1_555
H21_2 C32_2 1_555 1_555
C33_2 O16_2 1_555 1_555
C34_2 H22_2 1_555 1_555
C35_2 C34_2 1_555 1_555
H23_2 C35_2 1_555 1_555
C36_2 C35_2 1_555 1_555
C37_2 C36_2 1_555 1_555
H24_2 C37_2 1_555 1_555
C38_2 C37_2 1_555 1_555
H25_2 C38_2 1_555 1_555
C39_2 O17_2 1_555 1_555
N1_2 C29_2 1_555 1_555
N2_2 C34_2 1_555 1_555
C40_2 C32_2 1_555 1_555
H26_2 C40_2 1_555 1_555
O21_2 Ho2_2 1_555 1_555
H27_2 O21_2 1_555 1_555
H28_2 O21_2 1_555 1_555
O6 C23 1_555 1_555
O12 C7 1_555 1_555
O12 Ho2_2 1_555 1_555
O14 C11 1_555 1_555
O16 Ho3_3 1_555 1_555
O17 Ho3_3 1_555 1_555
C1 C3 1_555 1_555
C5 C7 1_555 1_555
C9 C11 1_555 1_555
C16 C17 1_555 1_555
C21 C23 1_555 1_555
C25 C26 1_555 1_555
C31 C33 1_555 1_555
C36 C39 1_555 1_555
C38 N2 1_555 1_555
N1 C40 1_555 1_555
Ho1_3 O12_2 1_555 1_555
Ho2A_2 O12A 1_555 1_555
O4_2 C18_2 1_555 1_555
O18_2 C39_2 1_555 1_555
C1A C28A 1_555 1_555
C5A C6A 1_555 1_555
C5A C7A 1_555 1_555
C9A C10A 1_555 1_555
C16_2 C17_2 1_555 1_555
C17_2 C18_2 1_555 1_555
C21A C22A 1_555 1_555
C21A C23A 1_555 1_555
C25A C27A 1_555 1_555
C31_2 C33_2 1_555 1_555
C36_2 C39_2 1_555 1_555
C38_2 N2_2 1_555 1_555
N1_2 C40_2 1_555 1_555

#END
