
#######################################################################
#
#                 Cambridge Crystallographic Data Centre
#                                CCDC 
#
#######################################################################
#
# If this CIF has been generated from an entry in the Cambridge 
# Structural Database, then it will include bibliographic, chemical, 
# crystal, experimental, refinement or atomic coordinate data resulting 
# from the CCDC's data processing and validation procedures.
#
#######################################################################

data_LEDNEO
_symmetry_cell_setting           orthorhombic
_symmetry_space_group_name_H-M   'I m a 2'
_symmetry_Int_Tables_number      46
_space_group_name_Hall           'I 2 -2a'
loop_
_symmetry_equiv_pos_site_id
_symmetry_equiv_pos_as_xyz
1 x,y,z
2 -x,-y,z
3 1/2+x,-y,z
4 1/2-x,y,z
5 1/2+x,1/2+y,1/2+z
6 1/2-x,1/2-y,1/2+z
7 x,1/2-y,1/2+z
8 -x,1/2+y,1/2+z
_cell_length_a                   22.9789(12)
_cell_length_b                   15.2606(8)
_cell_length_c                   11.4219(6)
_cell_angle_alpha                90
_cell_angle_beta                 90
_cell_angle_gamma                90
_cell_volume                     4005.34
loop_
_atom_site_label
_atom_site_type_symbol
_atom_site_fract_x
_atom_site_fract_y
_atom_site_fract_z
Ru1 Ru -0.2500 -0.055603(14) 0.04211(2)
P1 P -0.32292(2) -0.13497(4) 0.12297(5)
N1 N -0.39417(9) -0.28083(14) 0.1264(2)
N2 N -0.38651(10) -0.19877(15) 0.3099(2)
N3 N -0.44501(9) -0.13839(13) 0.14681(17)
O1 O -0.51186(8) -0.07646(13) -0.00593(16)
O2 O -0.5000 0.0000 0.1800(2)
B1 B -0.50914(11) -0.08138(18) 0.1206(2)
B2 B -0.5000 0.0000 -0.0637(3)
Cl1 Cl -0.2500 -0.15087(6) -0.12992(8)
C1 C -0.33985(10) -0.24739(16) 0.0750(2)
H1 H -0.3432 -0.2484 -0.0114
H2 H -0.3074 -0.2866 0.0973
C2 C -0.33173(10) -0.15322(16) 0.2819(2)
H3 H -0.2986 -0.1884 0.3111
H4 H -0.3310 -0.0960 0.3227
C3 C -0.39538(9) -0.08721(15) 0.0963(2)
H5 H -0.3962 -0.0273 0.1297
H6 H -0.4013 -0.0819 0.0108
C4 C -0.39037(11) -0.28578(17) 0.2547(2)
H7 H -0.3557 -0.3206 0.2765
H8 H -0.4251 -0.3166 0.2851
C5 C -0.43696(10) -0.14778(16) 0.2775(2)
H9 H -0.4335 -0.0887 0.3125
H10 H -0.4721 -0.1758 0.3110
C6 C -0.44467(10) -0.22932(15) 0.0941(2)
H11 H -0.4802 -0.2607 0.1195
H12 H -0.4461 -0.2241 0.0077
C7 C -0.28118(13) 0.06779(18) 0.1150(3)
H13 H -0.3068 0.0745 0.1852
C8 C -0.30035(13) 0.06430(17) -0.0053(3)
H14 H -0.3416 0.0662 -0.0333
C9 C -0.2500 0.0617(2) -0.0765(4)
H15 H -0.2500 0.0595 -0.1640
C10 C -0.56210(10) -0.13840(15) 0.1760(2)
C11 C -0.59107(10) -0.20360(16) 0.1128(2)
H16 H -0.5798 -0.2147 0.0342
C12 C -0.63604(12) -0.25285(18) 0.1620(3)
H17 H -0.6546 -0.2972 0.1171
C13 C -0.65382(12) -0.23719(19) 0.2770(3)
H18 H -0.6840 -0.2713 0.3112
C14 C -0.62683(12) -0.1710(2) 0.3409(2)
H19 H -0.6392 -0.1587 0.4186
C15 C -0.58165(11) -0.12287(18) 0.2909(2)
H20 H -0.5635 -0.0781 0.3358
C16 C -0.5000 0.0000 -0.2017(3)
C17 C -0.52830(12) -0.06648(17) -0.2648(2)
H21 H -0.5473 -0.1124 -0.2237
C18 C -0.52898(14) -0.06614(18) -0.3868(2)
H22 H -0.5491 -0.1108 -0.4283
C19 C -0.5000 0.0000 -0.4478(3)
H23 H -0.5000 0.0000 -0.5310
Ru1A Ru -0.7500 0.055603(14) 0.04211(2)
P1A P -0.67708(2) 0.13497(4) 0.12297(5)
P1C P -0.17708(2) -0.13497(4) 0.12297(5)
N1A N -0.60583(9) 0.28083(14) 0.1264(2)
N2A N -0.61349(10) 0.19877(15) 0.3099(2)
N3A N -0.55499(9) 0.13839(13) 0.14681(17)
O1A O -0.48814(8) 0.07646(13) -0.00593(16)
B1A B -0.49086(11) 0.08138(18) 0.1206(2)
C1A C -0.66015(10) 0.24739(16) 0.0750(2)
H1A H -0.6568 0.2484 -0.0114
H2A H -0.6926 0.2866 0.0973
C2A C -0.66827(10) 0.15322(16) 0.2819(2)
H3A H -0.7014 0.1884 0.3111
H4A H -0.6690 0.0960 0.3227
C3A C -0.60462(9) 0.08721(15) 0.0963(2)
H5A H -0.6038 0.0273 0.1297
H6A H -0.5987 0.0819 0.0108
C4A C -0.60963(11) 0.28578(17) 0.2547(2)
H7A H -0.6443 0.3206 0.2765
H8A H -0.5749 0.3166 0.2851
C5A C -0.56304(10) 0.14778(16) 0.2775(2)
H9A H -0.5665 0.0887 0.3125
H10A H -0.5279 0.1758 0.3110
C6A C -0.55533(10) 0.22932(15) 0.0941(2)
H11A H -0.5198 0.2607 0.1195
H12A H -0.5539 0.2241 0.0077
C7C C -0.21882(13) 0.06779(18) 0.1150(3)
H13C H -0.1932 0.0745 0.1852
C8C C -0.19965(13) 0.06430(17) -0.0053(3)
H14C H -0.1584 0.0662 -0.0333
C10A C -0.43790(10) 0.13840(15) 0.1760(2)
C11A C -0.40893(10) 0.20360(16) 0.1128(2)
H16A H -0.4202 0.2147 0.0342
C12A C -0.36396(12) 0.25285(18) 0.1620(3)
H17A H -0.3454 0.2972 0.1171
C13A C -0.34618(12) 0.23719(19) 0.2770(3)
H18A H -0.3160 0.2713 0.3112
C14A C -0.37317(12) 0.1710(2) 0.3409(2)
H19A H -0.3608 0.1587 0.4186
C15A C -0.41835(11) 0.12287(18) 0.2909(2)
H20A H -0.4365 0.0781 0.3358
C17A C -0.47170(12) 0.06648(17) -0.2648(2)
H21A H -0.4527 0.1124 -0.2237
C18A C -0.47102(14) 0.06614(18) -0.3868(2)
H22A H -0.4509 0.1108 -0.4283
C20 C -0.7500 -0.5371(6) -0.9220(8)
Cl2 Cl -0.66895(13) -0.50810(19) -0.9003(3)
Cl2C Cl -0.83105(13) -0.50810(19) -0.9003(3)
Cl3? Cl -0.7230(2) -0.4536(3) -1.0064(6)
loop_
_geom_bond_atom_site_label_1
_geom_bond_atom_site_label_2
_geom_bond_site_symmetry_1
_geom_bond_site_symmetry_2
Ru1 P1 1_555 1_555
P1 C1 1_555 1_555
N1 C1 1_555 1_555
N2 C2 1_555 1_555
N3 B1 1_555 1_555
O1 B1 1_555 1_555
O2 B1 1_555 1_555
B1 C10 1_555 1_555
B2 O1 1_555 1_555
Cl1 Ru1 1_555 1_555
C1 H1 1_555 1_555
H2 C1 1_555 1_555
C2 P1 1_555 1_555
H3 C2 1_555 1_555
H4 C2 1_555 1_555
C3 P1 1_555 1_555
H5 C3 1_555 1_555
H6 C3 1_555 1_555
C4 N1 1_555 1_555
H7 C4 1_555 1_555
H8 C4 1_555 1_555
C5 N2 1_555 1_555
H9 C5 1_555 1_555
H10 C5 1_555 1_555
C6 N1 1_555 1_555
H11 C6 1_555 1_555
H12 C6 1_555 1_555
C7 Ru1 1_555 1_555
H13 C7 1_555 1_555
C8 Ru1 1_555 1_555
H14 C8 1_555 1_555
C9 Ru1 1_555 1_555
H15 C9 1_555 1_555
C10 C11 1_555 1_555
C11 H16 1_555 1_555
C12 C11 1_555 1_555
H17 C12 1_555 1_555
C13 C12 1_555 1_555
H18 C13 1_555 1_555
C14 C13 1_555 1_555
H19 C14 1_555 1_555
C15 C10 1_555 1_555
H20 C15 1_555 1_555
C16 B2 1_555 1_555
C17 C16 1_555 1_555
H21 C17 1_555 1_555
C18 C17 1_555 1_555
H22 C18 1_555 1_555
C19 C18 1_555 1_555
H23 C19 1_555 1_555
C20 Cl2 1_555 1_555
Ru1A P1A 1_555 1_555
P1A C1A 1_555 1_555
P1C Ru1 1_555 1_555
N1A C1A 1_555 1_555
N2A C2A 1_555 1_555
N3A B1A 1_555 1_555
O1A B2 1_555 1_555
B1A O2 1_555 1_555
C1A H1A 1_555 1_555
H2A C1A 1_555 1_555
C2A P1A 1_555 1_555
H3A C2A 1_555 1_555
H4A C2A 1_555 1_555
C3A P1A 1_555 1_555
H5A C3A 1_555 1_555
H6A C3A 1_555 1_555
C4A N1A 1_555 1_555
H7A C4A 1_555 1_555
H8A C4A 1_555 1_555
C5A N2A 1_555 1_555
H9A C5A 1_555 1_555
H10A C5A 1_555 1_555
C6A N1A 1_555 1_555
H11A C6A 1_555 1_555
H12A C6A 1_555 1_555
C7C Ru1 1_555 1_555
H13C C7C 1_555 1_555
C8C Ru1 1_555 1_555
H14C C8C 1_555 1_555
C10A B1A 1_555 1_555
C11A C10A 1_555 1_555
H16A C11A 1_555 1_555
C12A C11A 1_555 1_555
H17A C12A 1_555 1_555
C13A C12A 1_555 1_555
H18A C13A 1_555 1_555
C14A C13A 1_555 1_555
H19A C14A 1_555 1_555
C15A C10A 1_555 1_555
H20A C15A 1_555 1_555
C17A C16 1_555 1_555
H21A C17A 1_555 1_555
C18A C19 1_555 1_555
H22A C18A 1_555 1_555
Cl2C C20 1_555 1_555
N2 C4 1_555 1_555
N3 C3 1_555 1_555
N3 C5 1_555 1_555
N3 C6 1_555 1_555
C7 C8 1_555 1_555
C7 C7C 1_555 1_555
C8 C9 1_555 1_555
C9 C8C 1_555 1_555
C14 C15 1_555 1_555
N2A C4A 1_555 1_555
N3A C3A 1_555 1_555
N3A C5A 1_555 1_555
N3A C6A 1_555 1_555
O1A B1A 1_555 1_555
C7C C8C 1_555 1_555
C14A C15A 1_555 1_555
C17A C18A 1_555 1_555

#END
