
#######################################################################
#
#                 Cambridge Crystallographic Data Centre
#                                CCDC 
#
#######################################################################
#
# If this CIF has been generated from an entry in the Cambridge 
# Structural Database, then it will include bibliographic, chemical, 
# crystal, experimental, refinement or atomic coordinate data resulting 
# from the CCDC's data processing and validation procedures.
#
#######################################################################

data_LEDNIT
_symmetry_cell_setting           monoclinic
_symmetry_space_group_name_H-M   'C 2/c'
_symmetry_Int_Tables_number      15
_space_group_name_Hall           '-C 2yn'
loop_
_symmetry_equiv_pos_site_id
_symmetry_equiv_pos_as_xyz
1 x,y,z
2 -x,y,1/2-z
3 1/2+x,1/2+y,z
4 1/2-x,1/2+y,1/2-z
5 -x,-y,-z
6 x,-y,1/2+z
7 1/2-x,1/2-y,-z
8 1/2+x,1/2-y,1/2+z
_cell_length_a                   18.806(2)
_cell_length_b                   20.754(2)
_cell_length_c                   9.7104(12)
_cell_angle_alpha                90
_cell_angle_beta                 110.319(1)
_cell_angle_gamma                90
_cell_volume                     3554.13
loop_
_atom_site_label
_atom_site_type_symbol
_atom_site_fract_x
_atom_site_fract_y
_atom_site_fract_z
Tm1 Tm 0.28861(2) 0.08662(2) 0.34163(4)
Tm2 Tm 0.0000 0.21562(3) 0.2500
O1 O 0.1754(4) 0.1367(4) 0.2508(7)
O2 O 0.0817(4) 0.1428(4) 0.4117(8)
O3 O 0.0629(4) 0.1728(3) 0.1074(7)
O4 O 0.2871(4) 0.1345(4) 0.1289(8)
O5 O 0.2000(4) 0.3358(4) 0.4781(8)
O6 O 0.0929(4) 0.3623(3) 0.5921(7)
O7 O 0.0148(4) 0.2922(4) 0.4355(8)
O8 O 0.1193(4) 0.2693(4) 0.3160(8)
O9 O 0.3660(4) 0.0316(4) 0.5571(7)
O10 O 0.2153(4) 0.0400(4) 0.4661(7)
N1 N 0.2530(6) 0.1644(5) -0.1072(10)
C1 C 0.2341(6) 0.1547(5) 0.0167(10)
C2 C 0.2024(8) 0.1845(7) -0.2351(14)
H1 H 0.2175 0.1880 -0.3164
C3 C 0.1316(9) 0.1993(9) -0.2496(14)
H2 H 0.0982 0.2158 -0.3374
C4 C 0.1085(7) 0.1895(7) -0.1281(12)
H3 H 0.0585 0.1978 -0.1370
C5 C 0.1583(6) 0.1679(5) 0.0026(10)
C6 C 0.1313(5) 0.1579(5) 0.1290(9)
C7 C 0.0761(6) 0.3222(5) 0.4887(10)
C8 C 0.1374(5) 0.3071(5) 0.4213(10)
O11 O 0.3668(4) -0.0191(3) 0.7590(7)
O12 O 0.2156(4) -0.0106(4) 0.6694(8)
C9 C 0.2469(6) 0.0127(5) 0.5886(10)
C10 C 0.3352(5) 0.0078(4) 0.6389(9)
Tm1A Tm -0.28861(2) 0.08662(2) 0.15837(4)
Tm1F Tm 0.21139(2) 0.41338(2) 0.65837(4)
Tm1E Tm 0.28861(2) -0.08662(2) 0.84163(4)
Tm1G Tm -0.21139(2) 0.41338(2) -0.15837(4)
Tm1E_2 Tm 0.28861(2) -0.08662(2) -0.15837(4)
O1A O -0.1754(4) 0.1367(4) 0.2492(7)
O2A O -0.0817(4) 0.1428(4) 0.0883(8)
O3A O -0.0629(4) 0.1728(3) 0.3926(7)
O4A O -0.2871(4) 0.1345(4) 0.3711(8)
O5A O -0.2000(4) 0.3358(4) 0.0219(8)
O5F O 0.3000(4) 0.1642(4) 0.5219(8)
O5G O -0.3000(4) 0.1642(4) -0.0219(8)
O6A O -0.0929(4) 0.3623(3) -0.0921(7)
O6F O 0.4071(4) 0.1377(3) 0.4079(7)
O6G O -0.4071(4) 0.1377(3) 0.0921(7)
O7A O -0.0148(4) 0.2922(4) 0.0645(8)
O8A O -0.1193(4) 0.2693(4) 0.1840(8)
O9E O 0.3660(4) -0.0316(4) 0.0571(7)
O9A O -0.3660(4) 0.0316(4) -0.0571(7)
O10E O 0.2153(4) -0.0400(4) -0.0339(7)
O10A O -0.2153(4) 0.0400(4) 0.0339(7)
N1A N -0.2530(6) 0.1644(5) 0.6072(10)
C1A C -0.2341(6) 0.1547(5) 0.4833(10)
C2A C -0.2024(8) 0.1845(7) 0.7351(14)
H1A H -0.2175 0.1880 0.8164
C3A C -0.1316(9) 0.1993(9) 0.7496(14)
H2A H -0.0982 0.2158 0.8374
C4A C -0.1085(7) 0.1895(7) 0.6281(12)
H3A H -0.0585 0.1978 0.6370
C5A C -0.1583(6) 0.1679(5) 0.4974(10)
C6A C -0.1313(5) 0.1579(5) 0.3710(9)
C7A C -0.0761(6) 0.3222(5) 0.0113(10)
C8A C -0.1374(5) 0.3071(5) 0.0787(10)
O11E O 0.3668(4) 0.0191(3) 0.2590(7)
O11D O -0.3668(4) 0.0191(3) 0.2410(7)
O12E O 0.2156(4) 0.0106(4) 0.1694(8)
O12D O -0.2156(4) 0.0106(4) 0.3306(8)
C9E C 0.2469(6) -0.0127(5) 0.0886(10)
C10E C 0.3352(5) -0.0078(4) 0.1389(9)
O13 O 0.0987(6) 0.3776(5) 0.0494(16)
O14 O 0.5000 0.0990(13) 0.2500
O15 O 0.5000 0.0000 0.5000
O16 O 0.0624(9) 0.0368(8) 0.567(2)
loop_
_geom_bond_atom_site_label_1
_geom_bond_atom_site_label_2
_geom_bond_site_symmetry_1
_geom_bond_site_symmetry_2
Tm1 O1 1_555 1_555
Tm2 O2 1_555 1_555
O1 C6 1_555 1_555
O3 Tm2 1_555 1_555
O4 Tm1 1_555 1_555
O5 C8 1_555 1_555
O6 C7 1_555 1_555
O7 Tm2 1_555 1_555
O8 Tm2 1_555 1_555
O9 Tm1 1_555 1_555
O10 Tm1 1_555 1_555
N1 C1 1_555 1_555
C1 O4 1_555 1_555
C2 N1 1_555 1_555
H1 C2 1_555 1_555
C3 C2 1_555 1_555
H2 C3 1_555 1_555
C4 C3 1_555 1_555
H3 C4 1_555 1_555
C5 C1 1_555 1_555
C6 O3 1_555 1_555
C7 O7 1_555 1_555
C8 O8 1_555 1_555
O11 C10 1_555 1_555
O12 C9 1_555 1_555
C9 O10 1_555 1_555
C10 O9 1_555 1_555
Tm1A O1A 1_555 1_555
Tm1F O5 1_555 1_555
Tm1E O11 1_555 1_555
Tm1G O5A 1_555 1_555
Tm1E_2 O9E 1_555 1_555
O1A C6A 1_555 1_555
O2A Tm2 1_555 1_555
O3A Tm2 1_555 1_555
O4A Tm1A 1_555 1_555
O5A C8A 1_555 1_555
O5F Tm1 1_555 1_555
O5G Tm1A 1_555 1_555
O6A Tm1G 1_555 1_555
O6F Tm1 1_555 1_555
O6G Tm1A 1_555 1_555
O7A Tm2 1_555 1_555
O8A Tm2 1_555 1_555
O9E C10E 1_555 1_555
O9A Tm1A 1_555 1_555
O10E Tm1E_2 1_555 1_555
O10A Tm1A 1_555 1_555
N1A C1A 1_555 1_555
C1A O4A 1_555 1_555
C2A N1A 1_555 1_555
H1A C2A 1_555 1_555
C3A C2A 1_555 1_555
H2A C3A 1_555 1_555
C4A C3A 1_555 1_555
H3A C4A 1_555 1_555
C5A C1A 1_555 1_555
C6A O3A 1_555 1_555
C7A O6A 1_555 1_555
C8A O8A 1_555 1_555
O11E Tm1 1_555 1_555
O11D Tm1A 1_555 1_555
O12E Tm1 1_555 1_555
O12D Tm1A 1_555 1_555
C9E O10E 1_555 1_555
C10E O11E 1_555 1_555
O6 Tm1F 1_555 1_555
C4 C5 1_555 1_555
C5 C6 1_555 1_555
C7 C8 1_555 1_555
O12 Tm1E 1_555 1_555
C9 C10 1_555 1_555
O7A C7A 1_555 1_555
C4A C5A 1_555 1_555
C5A C6A 1_555 1_555
C7A C8A 1_555 1_555
O12E C9E 1_555 1_555
C9E C10E 1_555 1_555

#END
