
#######################################################################
#
#                 Cambridge Crystallographic Data Centre
#                                CCDC 
#
#######################################################################
#
# If this CIF has been generated from an entry in the Cambridge 
# Structural Database, then it will include bibliographic, chemical, 
# crystal, experimental, refinement or atomic coordinate data resulting 
# from the CCDC's data processing and validation procedures.
#
#######################################################################

data_LEDPER
_symmetry_cell_setting           tetragonal
_symmetry_space_group_name_H-M   'P 43 21 2'
_symmetry_Int_Tables_number      96
_space_group_name_Hall           'P 4nw 2abw'
loop_
_symmetry_equiv_pos_site_id
_symmetry_equiv_pos_as_xyz
1 x,y,z
2 -x,-y,1/2+z
3 1/2-y,1/2+x,3/4+z
4 1/2+y,1/2-x,1/4+z
5 1/2-x,1/2+y,3/4-z
6 1/2+x,1/2-y,1/4-z
7 y,x,-z
8 -y,-x,1/2-z
_cell_length_a                   14.1741(3)
_cell_length_b                   14.1741(3)
_cell_length_c                   24.2732(10)
_cell_angle_alpha                90
_cell_angle_beta                 90
_cell_angle_gamma                90
_cell_volume                     4876.61
loop_
_atom_site_label
_atom_site_type_symbol
_atom_site_fract_x
_atom_site_fract_y
_atom_site_fract_z
Cd1 Cd 0.78264(6) 0.47260(7) 0.12373(3)
Cd2 Cd 0.79345(6) 0.71283(5) 0.24943(2)
C1 C 0.7751(7) 0.4883(8) 0.2355(4)
C2 C 0.7574(7) 0.5035(7) 0.2961(5)
C3 C 0.7397(8) 0.4296(8) 0.3308(5)
H1 H 0.7417 0.3681 0.3175
C4 C 0.7188(9) 0.4460(8) 0.3853(4)
C5 C 0.7041(10) 0.3650(9) 0.4247(5)
C6 C 0.7160(9) 0.5368(8) 0.4045(4)
H2 H 0.7048 0.5498 0.4414
C7 C 0.7304(8) 0.6084(8) 0.3668(4)
H3 H 0.7239 0.6704 0.3789
C8 C 0.7920(9) 0.5219(9) 0.0029(5)
C9 C 0.7773(8) 0.5002(8) -0.0572(5)
C10 C 0.7695(9) 0.5712(9) -0.0947(5)
H4 H 0.7761 0.6340 -0.0841
C11 C 0.7512(9) 0.5470(12) -0.1494(5)
C12 C 0.7382(9) 0.6235(10) -0.1924(5)
C13 C 0.7442(10) 0.4554(10) -0.1641(5)
H5 H 0.7302 0.4384 -0.2002
C14 C 0.7586(10) 0.3872(10) -0.1237(6)
H6 H 0.7612 0.3241 -0.1342
C15 C 0.5710(8) 0.5303(10) 0.0775(5)
H7 H 0.6075 0.5419 0.0464
C16 C 0.4760(8) 0.5345(10) 0.0718(4)
H8 H 0.4498 0.5483 0.0376
C17 C 0.4179(9) 0.5184(8) 0.1167(5)
C18 C 0.4649(9) 0.4993(9) 0.1660(6)
H9 H 0.4308 0.4895 0.1983
C19 C 0.5623(8) 0.4950(9) 0.1667(5)
H10 H 0.5918 0.4797 0.1997
C20 C 0.3148(10) 0.5190(10) 0.1070(6)
H11 H 0.2924 0.5386 0.0728
C21 C 0.2541(10) 0.4931(11) 0.1444(6)
H12 H 0.2775 0.4778 0.1791
C22 C 0.1494(9) 0.4861(9) 0.1360(5)
C23 C 0.1020(9) 0.5103(9) 0.0871(6)
H13 H 0.1354 0.5301 0.0562
C24 C 0.0061(9) 0.5042(10) 0.0860(6)
H14 H -0.0236 0.5197 0.0531
C25 C -0.0025(9) 0.4585(13) 0.1743(5)
H15 H -0.0380 0.4418 0.2050
C26 C 0.0936(9) 0.4615(10) 0.1799(5)
H16 H 0.1211 0.4467 0.2135
N1 N 0.7531(6) 0.5939(6) 0.3138(3)
N2 N 0.7689(7) 0.4086(7) -0.0705(3)
N3 N 0.6157(6) 0.5111(6) 0.1236(4)
N4 N -0.0490(6) 0.4781(7) 0.1276(4)
O1 O 0.7885(6) 0.5607(5) 0.2070(3)
O2 O 0.7765(6) 0.4076(5) 0.2164(3)
O3 O 0.6821(8) 0.2853(6) 0.4011(4)
O4 O 0.7069(9) 0.3779(7) 0.4735(3)
O5 O 0.8004(6) 0.4486(6) 0.0343(3)
O6 O 0.7908(10) 0.6000(7) 0.0223(5)
O7 O 0.7628(8) 0.7056(8) -0.1784(4)
O8 O 0.7061(10) 0.6033(7) -0.2373(3)
Cd1_2 Cd 1.78264(6) 0.47260(7) 0.12373(3)
Cd1_3 Cd -0.21736(6) 0.47260(7) 0.12373(3)
Cd1G Cd 0.52740(7) 0.21736(6) 0.37627(3)
Cd1C Cd 0.97260(7) 0.71736(6) 0.37373(3)
Cd2G Cd 0.28717(5) 0.20655(6) 0.25057(2)
Cd2B Cd 0.78717(5) 0.29345(6) -0.00057(2)
Cd2D Cd 0.70655(6) 0.21283(5) 0.50057(2)
Cd2F Cd 0.71283(5) 0.79345(6) -0.24943(2)
Cd2E Cd 1.29345(6) 0.78717(5) 0.00057(2)
C1G C 0.5117(8) 0.2249(7) 0.2645(4)
C2G C 0.4965(7) 0.2426(7) 0.2039(5)
C3G C 0.5704(8) 0.2603(8) 0.1692(5)
H1G H 0.6319 0.2583 0.1825
C4G C 0.5540(8) 0.2812(9) 0.1147(4)
C5G C 0.6350(9) 0.2959(10) 0.0753(5)
C6G C 0.4632(8) 0.2840(9) 0.0955(4)
H2G H 0.4502 0.2952 0.0586
C7G C 0.3916(8) 0.2696(8) 0.1332(4)
H3G H 0.3296 0.2761 0.1211
C8C C 1.0219(9) 0.7080(9) 0.2529(5)
C9C C 1.0002(8) 0.7227(8) 0.1928(5)
C10C C 1.0712(9) 0.7305(9) 0.1553(5)
H4C H 1.1340 0.7239 0.1659
C11C C 1.0470(12) 0.7488(9) 0.1006(5)
C12C C 1.1235(10) 0.7618(9) 0.0576(5)
C13C C 0.9554(10) 0.7558(10) 0.0859(5)
H5C H 0.9384 0.7698 0.0498
C14C C 0.8872(10) 0.7414(10) 0.1263(6)
H6C H 0.8241 0.7388 0.1158
C15_2 C 1.5710(8) 0.5303(10) 0.0775(5)
H7_2 H 1.6075 0.5419 0.0464
C16_2 C 1.4760(8) 0.5345(10) 0.0718(4)
H8_2 H 1.4498 0.5483 0.0376
C17_2 C 1.4179(9) 0.5184(8) 0.1167(5)
C18_2 C 1.4649(9) 0.4993(9) 0.1660(6)
H9_2 H 1.4308 0.4895 0.1983
C19_2 C 1.5623(8) 0.4950(9) 0.1667(5)
H10_2 H 1.5918 0.4797 0.1997
C20_2 C 1.3148(10) 0.5190(10) 0.1070(6)
H11_2 H 1.2924 0.5386 0.0728
C21_2 C 1.2541(10) 0.4931(11) 0.1444(6)
H12_2 H 1.2775 0.4778 0.1791
C22_2 C 1.1494(9) 0.4861(9) 0.1360(5)
C23_2 C 1.1020(9) 0.5103(9) 0.0871(6)
H13_2 H 1.1354 0.5301 0.0562
C24_2 C 1.0061(9) 0.5042(10) 0.0860(6)
H14_2 H 0.9764 0.5197 0.0531
C25_2 C 0.9975(9) 0.4585(13) 0.1743(5)
H15_2 H 0.9620 0.4418 0.2050
C26_2 C 1.0936(9) 0.4615(10) 0.1799(5)
H16_2 H 1.1211 0.4467 0.2135
N1G N 0.4061(6) 0.2469(6) 0.1862(3)
N2C N 0.9086(7) 0.7311(7) 0.1795(3)
N2E N 0.2689(7) 0.0914(7) 0.3205(3)
N3_2 N 1.6157(6) 0.5111(6) 0.1236(4)
N4_2 N 0.9510(6) 0.4781(7) 0.1276(4)
N4_3 N 1.9510(6) 0.4781(7) 0.1276(4)
O1G O 0.4393(5) 0.2115(6) 0.2930(3)
O1_2 O 1.7885(6) 0.5607(5) 0.2070(3)
O2G O 0.5924(5) 0.2235(6) 0.2836(3)
O2_2 O 1.7765(6) 0.4076(5) 0.2164(3)
O3G O 0.7147(6) 0.3179(8) 0.0989(4)
O3D O 0.8179(8) 0.7853(6) 0.3489(4)
O3G_2 O 1.7147(6) 0.3179(8) 0.0989(4)
O3B O 0.2147(6) 0.1821(8) 0.1511(4)
O4G O 0.6221(7) 0.2931(9) 0.0265(3)
O4D O 0.7931(9) 0.8779(7) 0.2765(3)
O4B O 0.1221(7) 0.2069(9) 0.2235(3)
O5C O 0.9486(6) 0.6996(6) 0.2843(3)
O5_2 O 1.8004(6) 0.4486(6) 0.0343(3)
O5E O 0.3004(6) 0.0514(6) 0.2157(3)
O6C O 1.1000(7) 0.7092(10) 0.2723(5)
O7C O 1.2056(8) 0.7372(8) 0.0716(4)
O7F O 0.7056(8) 0.7628(8) 0.1784(4)
O7A O 0.2372(8) 0.2944(8) 0.3216(4)
O8C O 1.1033(7) 0.7939(10) 0.0127(3)
O8F O 0.6033(7) 0.7061(10) 0.2373(3)
O8A O 0.2939(10) 0.3967(7) 0.2627(3)
O9 O 0.7122(11) 0.7122(11) 0.5000
O10 O 0.7128(19) 0.2872(19) 0.7500
loop_
_geom_bond_atom_site_label_1
_geom_bond_atom_site_label_2
_geom_bond_site_symmetry_1
_geom_bond_site_symmetry_2
Cd1 N3 1_555 1_555
Cd2 N1 1_555 1_555
C1 C2 1_555 1_555
C2 C3 1_555 1_555
C3 H1 1_555 1_555
C4 C3 1_555 1_555
C5 C4 1_555 1_555
C6 C4 1_555 1_555
H2 C6 1_555 1_555
C7 C6 1_555 1_555
H3 C7 1_555 1_555
C8 C9 1_555 1_555
C9 C10 1_555 1_555
C10 H4 1_555 1_555
C11 C10 1_555 1_555
C12 C11 1_555 1_555
C13 C11 1_555 1_555
H5 C13 1_555 1_555
C14 C13 1_555 1_555
H6 C14 1_555 1_555
C15 H7 1_555 1_555
C16 C15 1_555 1_555
H8 C16 1_555 1_555
C17 C16 1_555 1_555
C18 C17 1_555 1_555
H9 C18 1_555 1_555
C19 C18 1_555 1_555
H10 C19 1_555 1_555
C20 C17 1_555 1_555
H11 C20 1_555 1_555
C21 C20 1_555 1_555
H12 C21 1_555 1_555
C22 C21 1_555 1_555
C23 C22 1_555 1_555
H13 C23 1_555 1_555
C24 C23 1_555 1_555
H14 C24 1_555 1_555
C25 H15 1_555 1_555
C26 C22 1_555 1_555
H16 C26 1_555 1_555
N1 C2 1_555 1_555
N2 C9 1_555 1_555
N3 C15 1_555 1_555
N4 C24 1_555 1_555
O1 Cd1 1_555 1_555
O2 Cd1 1_555 1_555
O3 C5 1_555 1_555
O4 C5 1_555 1_555
O5 Cd1 1_555 1_555
O6 C8 1_555 1_555
O7 C12 1_555 1_555
O8 C12 1_555 1_555
Cd1_2 N3_2 1_555 1_555
Cd1_3 N4 1_555 1_555
Cd1G O3 1_555 1_555
Cd1C O3D 1_555 1_555
Cd2G N1G 1_555 1_555
Cd2B N2 1_555 1_555
Cd2D O3 1_555 1_555
Cd2F O7 1_555 1_555
Cd2E O7C 1_555 1_555
C1G C2G 1_555 1_555
C2G C3G 1_555 1_555
C3G H1G 1_555 1_555
C4G C3G 1_555 1_555
C5G C4G 1_555 1_555
C6G C4G 1_555 1_555
H2G C6G 1_555 1_555
C7G C6G 1_555 1_555
H3G C7G 1_555 1_555
C8C C9C 1_555 1_555
C9C C10C 1_555 1_555
C10C H4C 1_555 1_555
C11C C10C 1_555 1_555
C12C C11C 1_555 1_555
C13C C11C 1_555 1_555
H5C C13C 1_555 1_555
C14C C13C 1_555 1_555
H6C C14C 1_555 1_555
C15_2 H7_2 1_555 1_555
C16_2 C15_2 1_555 1_555
H8_2 C16_2 1_555 1_555
C17_2 C16_2 1_555 1_555
C18_2 C17_2 1_555 1_555
H9_2 C18_2 1_555 1_555
C19_2 C18_2 1_555 1_555
H10_2 C19_2 1_555 1_555
C20_2 C17_2 1_555 1_555
H11_2 C20_2 1_555 1_555
C21_2 C20_2 1_555 1_555
H12_2 C21_2 1_555 1_555
C22_2 C21_2 1_555 1_555
C23_2 C22_2 1_555 1_555
H13_2 C23_2 1_555 1_555
C24_2 C23_2 1_555 1_555
H14_2 C24_2 1_555 1_555
C25_2 H15_2 1_555 1_555
C26_2 C22_2 1_555 1_555
H16_2 C26_2 1_555 1_555
N1G C2G 1_555 1_555
N2C Cd2 1_555 1_555
N2E Cd2G 1_555 1_555
N3_2 C15_2 1_555 1_555
N4_2 Cd1 1_555 1_555
N4_3 Cd1_2 1_555 1_555
O1G Cd1G 1_555 1_555
O1_2 Cd1_2 1_555 1_555
O2G Cd1G 1_555 1_555
O2_2 Cd1_2 1_555 1_555
O3G Cd1 1_555 1_555
O3D Cd2 1_555 1_555
O3G_2 Cd1_2 1_555 1_555
O3B Cd2G 1_555 1_555
O4G Cd2B 1_555 1_555
O4D Cd2 1_555 1_555
O4B Cd2G 1_555 1_555
O5C Cd2 1_555 1_555
O5_2 Cd1_2 1_555 1_555
O5E Cd2G 1_555 1_555
O6C C8C 1_555 1_555
O7C C12C 1_555 1_555
O7F Cd2 1_555 1_555
O7A Cd2G 1_555 1_555
O8C Cd2E 1_555 1_555
O8F Cd2 1_555 1_555
O8A Cd2G 1_555 1_555
Cd2 O1 1_555 1_555
C1 O1 1_555 1_555
C1 O2 1_555 1_555
C7 N1 1_555 1_555
C8 O5 1_555 1_555
C14 N2 1_555 1_555
C19 N3 1_555 1_555
C25 C26 1_555 1_555
C25 N4 1_555 1_555
O4 Cd2D 1_555 1_555
O5 Cd2B 1_555 1_555
O8 Cd2F 1_555 1_555
Cd1C O5C 1_555 1_555
Cd2G O1G 1_555 1_555
Cd2B O3G 1_555 1_555
C1G O1G 1_555 1_555
C1G O2G 1_555 1_555
C5G O3G 1_555 1_555
C5G O4G 1_555 1_555
C7G N1G 1_555 1_555
C8C O5C 1_555 1_555
C9C N2C 1_555 1_555
C12C O8C 1_555 1_555
C14C N2C 1_555 1_555
C19_2 N3_2 1_555 1_555
C24_2 N4_2 1_555 1_555
C25_2 C26_2 1_555 1_555
C25_2 N4_2 1_555 1_555

#END
