
#######################################################################
#
#                 Cambridge Crystallographic Data Centre
#                                CCDC 
#
#######################################################################
#
# If this CIF has been generated from an entry in the Cambridge 
# Structural Database, then it will include bibliographic, chemical, 
# crystal, experimental, refinement or atomic coordinate data resulting 
# from the CCDC's data processing and validation procedures.
#
#######################################################################

data_LEDWUN
_symmetry_cell_setting           orthorhombic
_symmetry_space_group_name_H-M   'P 21 21 21'
_symmetry_Int_Tables_number      19
_space_group_name_Hall           'P 2ac 2ab'
loop_
_symmetry_equiv_pos_site_id
_symmetry_equiv_pos_as_xyz
1 x,y,z
2 1/2-x,-y,1/2+z
3 -x,1/2+y,1/2-z
4 1/2+x,1/2-y,-z
_cell_length_a                   7.5817(8)
_cell_length_b                   10.4787(13)
_cell_length_c                   21.663(2)
_cell_angle_alpha                90
_cell_angle_beta                 90
_cell_angle_gamma                90
_cell_volume                     1721.05
loop_
_atom_site_label
_atom_site_type_symbol
_atom_site_fract_x
_atom_site_fract_y
_atom_site_fract_z
Ag1 Ag 0.72680(2) 0.770452(15) 0.130996(8)
N1 N 0.8486(2) 0.97209(17) 0.12849(8)
N2 N 1.1634(3) 1.1783(2) 0.27796(8)
H1 H 1.2438 1.1969 0.2474
H2 H 1.1676 1.0914 0.2837
N3 N 0.8471(3) 0.66354(18) 0.04631(8)
N4 N 0.9291(2) 0.75491(18) -0.15418(9)
H3 H 0.8957 0.8350 -0.1413
H4 H 0.9174 0.7530 -0.1964
C2 C 0.9345(3) 1.0197(2) 0.07964(11)
H5 H 0.9270 0.9751 0.0416
C3 C 1.0330(3) 1.1301(2) 0.08177(11)
H6 H 1.0894 1.1618 0.0457
C4 C 0.8639(3) 1.0367(2) 0.18227(11)
H7 H 0.8036 1.0046 0.2174
C5 C 1.0485(3) 1.1946(2) 0.13798(10)
H8 H 1.1172 1.2702 0.1409
C6 C 0.9625(3) 1.1469(2) 0.18901(10)
C7 C 0.8027(3) 0.6619(2) -0.12790(10)
H9 H 0.7978 0.5853 -0.1546
H10 H 0.6835 0.7003 -0.1268
C8 C 0.8568(3) 0.6231(2) -0.06323(10)
C9 C 0.9639(3) 0.5180(2) -0.05324(11)
H11 H 1.0046 0.4682 -0.0870
C10 C 1.0112(3) 0.4866(2) 0.00709(11)
H12 H 1.0838 0.4147 0.0152
C11 C 0.9878(3) 1.2068(2) 0.25211(11)
H13 H 0.9731 1.3004 0.2488
H14 H 0.8959 1.1742 0.2805
C12 C 0.9500(3) 0.5624(2) 0.05496(11)
H15 H 0.9832 0.5410 0.0960
C13 C 0.8030(3) 0.6929(2) -0.01245(10)
H16 H 0.7308 0.7656 -0.0192
Ag1B Ag 1.27320(2) 1.270452(15) 0.369004(8)
Ag1C Ag 1.22680(2) 0.729548(15) -0.130996(8)
N2B N 0.8366(3) 0.6783(2) 0.22204(8)
H1B H 0.7562 0.6969 0.2526
H2B H 0.8324 0.5914 0.2163
N4C N 0.4291(2) 0.74509(18) 0.15418(9)
H3C H 0.3957 0.6650 0.1413
H4C H 0.4174 0.7470 0.1964
S1 S 0.50741(10) 0.36926(6) 0.17689(3)
F1 F 0.67344(18) 0.29012(15) 0.07702(7)
F2 F 0.39240(18) 0.30234(14) 0.06721(6)
F3 F 0.5485(2) 0.47395(14) 0.06823(7)
O1 O 0.6708(3) 0.4259(2) 0.19665(9)
O2 O 0.4836(3) 0.23823(18) 0.19576(8)
O3 O 0.3518(3) 0.44806(17) 0.18225(8)
C1 C 0.5326(3) 0.3574(2) 0.09349(11)
loop_
_geom_bond_atom_site_label_1
_geom_bond_atom_site_label_2
_geom_bond_site_symmetry_1
_geom_bond_site_symmetry_2
Ag1 N1 1_555 1_555
S1 O1 1_555 1_555
F1 C1 1_555 1_555
F2 C1 1_555 1_555
F3 C1 1_555 1_555
O2 S1 1_555 1_555
O3 S1 1_555 1_555
N1 C2 1_555 1_555
N2 H1 1_555 1_555
H2 N2 1_555 1_555
N3 Ag1 1_555 1_555
N4 H3 1_555 1_555
H4 N4 1_555 1_555
C1 S1 1_555 1_555
C2 H5 1_555 1_555
C3 C2 1_555 1_555
H6 C3 1_555 1_555
C4 N1 1_555 1_555
H7 C4 1_555 1_555
C5 C3 1_555 1_555
H8 C5 1_555 1_555
C6 C4 1_555 1_555
C7 N4 1_555 1_555
H9 C7 1_555 1_555
H10 C7 1_555 1_555
C8 C7 1_555 1_555
C9 C8 1_555 1_555
H11 C9 1_555 1_555
C10 C9 1_555 1_555
H12 C10 1_555 1_555
C11 N2 1_555 1_555
H13 C11 1_555 1_555
H14 C11 1_555 1_555
C12 N3 1_555 1_555
H15 C12 1_555 1_555
C13 N3 1_555 1_555
H16 C13 1_555 1_555
Ag1B N2 1_555 1_555
Ag1C N4 1_555 1_555
N2B Ag1 1_555 1_555
H1B N2B 1_555 1_555
H2B N2B 1_555 1_555
N4C Ag1 1_555 1_555
H3C N4C 1_555 1_555
H4C N4C 1_555 1_555
C5 C6 1_555 1_555
C6 C11 1_555 1_555
C8 C13 1_555 1_555
C10 C12 1_555 1_555

#END
