
#######################################################################
#
#                 Cambridge Crystallographic Data Centre
#                                CCDC 
#
#######################################################################
#
# If this CIF has been generated from an entry in the Cambridge 
# Structural Database, then it will include bibliographic, chemical, 
# crystal, experimental, refinement or atomic coordinate data resulting 
# from the CCDC's data processing and validation procedures.
#
#######################################################################

data_LEDWIB
_symmetry_cell_setting           monoclinic
_symmetry_space_group_name_H-M   'P 21/c'
_symmetry_Int_Tables_number      14
_space_group_name_Hall           '-P 2ybc'
loop_
_symmetry_equiv_pos_site_id
_symmetry_equiv_pos_as_xyz
1 x,y,z
2 -x,1/2+y,1/2-z
3 -x,-y,-z
4 x,1/2-y,1/2+z
_cell_length_a                   10.2555(10)
_cell_length_b                   23.941(2)
_cell_length_c                   9.1244(8)
_cell_angle_alpha                90
_cell_angle_beta                 91.743(4)
_cell_angle_gamma                90
_cell_volume                     2239.25
loop_
_atom_site_label
_atom_site_type_symbol
_atom_site_fract_x
_atom_site_fract_y
_atom_site_fract_z
Ag1 Ag -0.388915(18) 0.742857(8) 0.87819(2)
Ag2 Ag 0.121560(17) 0.512087(7) 0.607829(19)
N1 N -0.30060(19) 0.66321(8) 0.8515(2)
H1 H -0.3651 0.6369 0.8623
H2 H -0.2755 0.6611 0.7557
N2 N -0.02551(19) 0.52128(8) 0.7712(2)
N3 N -0.72427(19) 0.97459(8) 0.9543(2)
N4 N -0.4699(2) 0.82367(8) 0.9057(2)
H3 H -0.4020 0.8488 0.9063
H4 H -0.5046 0.8247 0.9975
C1 C -0.1874(2) 0.64506(10) 0.9445(3)
H5 H -0.2091 0.6487 1.0491
H6 H -0.1121 0.6697 0.9263
C2 C -0.1503(2) 0.58535(10) 0.9134(3)
C3 C -0.0582(2) 0.57341(10) 0.8091(2)
H7 H -0.0163 0.6037 0.7624
C4 C -0.0855(2) 0.47862(10) 0.8378(3)
H8 H -0.0638 0.4415 0.8112
C5 C -0.1762(2) 0.48665(10) 0.9418(3)
H9 H -0.2165 0.4556 0.9867
C6 C -0.2089(2) 0.54045(11) 0.9814(3)
H10 H -0.2711 0.5467 1.0547
C7 C -0.6526(2) 1.01467(10) 0.8923(3)
H11 H -0.6708 1.0526 0.9143
C8 C -0.5545(2) 1.00295(11) 0.7988(3)
H12 H -0.5051 1.0322 0.7576
C9 C -0.5284(2) 0.94786(11) 0.7653(3)
H13 H -0.4611 0.9390 0.6999
C10 C -0.6007(2) 0.90565(10) 0.8274(3)
C11 C -0.6976(2) 0.92114(10) 0.9210(3)
H14 H -0.7481 0.8926 0.9640
C12 C -0.5713(2) 0.84484(10) 0.8007(3)
H15 H -0.5410 0.8401 0.6995
H16 H -0.6520 0.8227 0.8104
Ag2C Ag -0.878440(17) 0.987913(7) 1.107829(19)
N3C N 0.27573(19) 0.52541(8) 0.4543(2)
S1 S 0.35481(6) 0.63477(2) 0.81563(6)
F1 F 0.17120(17) 0.66207(8) 0.9927(2)
F2 F 0.16360(19) 0.70526(9) 0.7887(2)
F3 F 0.30739(17) 0.72759(7) 0.9558(2)
O1 O 0.26845(18) 0.59190(8) 0.7613(2)
O2 O 0.43740(17) 0.61836(8) 0.93851(19)
O3 O 0.42128(18) 0.66630(8) 0.70627(19)
C13 C 0.2433(3) 0.68541(11) 0.8920(3)
S2 S 0.87136(6) 0.63309(2) 0.42652(6)
F4 F 1.0426(2) 0.71151(9) 0.4640(2)
F5 F 0.89479(18) 0.73053(7) 0.3006(2)
F6 F 1.04565(17) 0.67297(7) 0.2534(2)
O4 O 0.80407(18) 0.65732(8) 0.54719(19)
O5 O 0.96918(18) 0.59241(8) 0.4654(2)
O6 O 0.78639(18) 0.61750(8) 0.3052(2)
C14 C 0.9687(3) 0.69028(11) 0.3574(3)
loop_
_geom_bond_atom_site_label_1
_geom_bond_atom_site_label_2
_geom_bond_site_symmetry_1
_geom_bond_site_symmetry_2
Ag1 N1 1_555 1_555
Ag2 N2 1_555 1_555
S1 O1 1_555 1_555
S2 O4 1_555 1_555
F1 C13 1_555 1_555
F2 C13 1_555 1_555
F3 C13 1_555 1_555
F4 C14 1_555 1_555
F5 C14 1_555 1_555
F6 C14 1_555 1_555
O2 S1 1_555 1_555
O3 S1 1_555 1_555
O5 S2 1_555 1_555
O6 S2 1_555 1_555
N1 H1 1_555 1_555
H2 N1 1_555 1_555
N2 C3 1_555 1_555
N3 C7 1_555 1_555
N4 Ag1 1_555 1_555
H3 N4 1_555 1_555
H4 N4 1_555 1_555
C1 N1 1_555 1_555
H5 C1 1_555 1_555
H6 C1 1_555 1_555
C2 C1 1_555 1_555
C3 C2 1_555 1_555
H7 C3 1_555 1_555
C4 N2 1_555 1_555
H8 C4 1_555 1_555
C5 C4 1_555 1_555
H9 C5 1_555 1_555
C6 C2 1_555 1_555
H10 C6 1_555 1_555
C7 H11 1_555 1_555
C8 C7 1_555 1_555
H12 C8 1_555 1_555
C9 C8 1_555 1_555
H13 C9 1_555 1_555
C10 C9 1_555 1_555
C11 N3 1_555 1_555
H14 C11 1_555 1_555
C12 N4 1_555 1_555
H15 C12 1_555 1_555
H16 C12 1_555 1_555
C13 S1 1_555 1_555
C14 S2 1_555 1_555
Ag2C N3 1_555 1_555
N3C Ag2 1_555 1_555
C5 C6 1_555 1_555
C10 C11 1_555 1_555
C10 C12 1_555 1_555

#END
