
#######################################################################
#
#                 Cambridge Crystallographic Data Centre
#                                CCDC 
#
#######################################################################
#
# If this CIF has been generated from an entry in the Cambridge 
# Structural Database, then it will include bibliographic, chemical, 
# crystal, experimental, refinement or atomic coordinate data resulting 
# from the CCDC's data processing and validation procedures.
#
#######################################################################

data_LEDXIC
_symmetry_cell_setting           orthorhombic
_symmetry_space_group_name_H-M   'P 21 21 21'
_symmetry_Int_Tables_number      19
_space_group_name_Hall           'P 2ac 2ab'
loop_
_symmetry_equiv_pos_site_id
_symmetry_equiv_pos_as_xyz
1 x,y,z
2 1/2-x,-y,1/2+z
3 -x,1/2+y,1/2-z
4 1/2+x,1/2-y,-z
_cell_length_a                   10.3431(4)
_cell_length_b                   17.0246(5)
_cell_length_c                   23.3149(8)
_cell_angle_alpha                90
_cell_angle_beta                 90
_cell_angle_gamma                90
_cell_volume                     4105.45
loop_
_atom_site_label
_atom_site_type_symbol
_atom_site_fract_x
_atom_site_fract_y
_atom_site_fract_z
Ag1 Ag 0.79577(2) 0.999825(14) 0.200084(8)
Ag2 Ag 0.68382(2) 0.500646(14) 0.216092(8)
F1 F 1.2054(2) 1.15046(13) 0.08180(8)
F2 F 1.0258(3) 1.20857(12) 0.09798(10)
F3 F 1.1655(2) 1.19335(11) 0.16612(8)
F4 F 0.2622(3) 0.64447(17) 0.08557(10)
F5 F 0.4343(4) 0.70805(14) 0.10073(13)
F6 F 0.3039(3) 0.68555(16) 0.17025(9)
F7 F 0.7225(3) 0.40257(19) 0.3674(2)
F8 F 0.5355(5) 0.37545(15) 0.33897(11)
F9 F 0.5688(3) 0.39609(13) 0.42501(9)
O1 O 1.0067(2) 1.07368(12) 0.18507(9)
O2 O 1.0346(2) 1.03461(13) 0.09393(10)
O3 O 0.4719(2) 0.57036(12) 0.18503(9)
O4 O 0.4428(2) 0.53465(13) 0.09298(9)
O5 O 0.6357(3) 0.53744(14) 0.32152(10)
O6 O 0.4852(3) 0.53618(14) 0.39047(10)
N1 N 0.8783(2) 0.88350(14) 0.19821(10)
N2 N 0.8211(2) 0.59738(14) 0.21154(10)
H1 H 0.8591 0.6034 0.2470
H2 H 0.8853 0.5843 0.1859
N3 N 0.6032(2) 1.38467(14) 0.20306(10)
N4 N 0.6675(2) 1.09886(14) 0.20406(11)
H3 H 0.5992 1.0895 0.1797
H4 H 0.6347 1.1018 0.2407
C1 C 1.0068(3) 0.87549(18) 0.19947(12)
H9 H 1.0593 0.9212 0.2007
C2 C 1.0655(3) 0.80228(18) 0.19900(12)
H10 H 1.1571 0.7981 0.1994
C3 C 0.9898(3) 0.73559(18) 0.19792(12)
H11 H 1.0290 0.6851 0.1981
C4 C 0.8566(3) 0.74262(17) 0.19657(12)
C5 C 0.8048(3) 0.81817(17) 0.19625(11)
H12 H 0.7135 0.8239 0.1946
C6 C 0.7648(3) 0.67284(18) 0.19419(13)
H13 H 0.6898 0.6840 0.2193
H14 H 0.7320 0.6677 0.1545
C7 C 0.4737(3) 1.37504(18) 0.20054(12)
H15 H 0.4197 1.4201 0.2028
C8 C 0.4170(3) 1.30186(18) 0.19482(12)
H16 H 0.3256 1.2970 0.1932
C9 C 0.4947(3) 1.23543(17) 0.19144(12)
H17 H 0.4571 1.1848 0.1877
C10 C 0.6286(3) 1.24398(17) 0.19362(11)
C11 C 0.6767(3) 1.31977(17) 0.19915(11)
H18 H 0.7679 1.3262 0.2002
C12 C 0.7229(3) 1.17558(17) 0.18942(13)
H19 H 0.7569 1.1732 0.1498
H20 H 0.7969 1.1860 0.2153
C25 C 1.0453(3) 1.07982(18) 0.13520(12)
C26 C 1.1117(3) 1.15817(19) 0.12057(13)
C27 C 0.4320(3) 0.57773(18) 0.13543(13)
C28 C 0.3573(4) 0.6545(2) 0.12381(14)
C29 C 0.5741(3) 0.5077(2) 0.36103(12)
C30 C 0.6048(4) 0.4209(2) 0.37405(14)
Ag2_2 Ag 0.68382(2) 1.500646(14) 0.216092(8)
N3_2 N 0.6032(2) 0.38467(14) 0.20306(10)
Ag3 Ag 0.68524(2) 0.086720(13) 0.031379(9)
Ag4 Ag 0.28430(2) -0.086290(13) -0.036980(9)
F10 F 0.5207(3) 0.10577(14) -0.16065(11)
F11 F 0.6866(3) 0.10289(15) -0.10555(10)
F12 F 0.6616(3) 0.01421(16) -0.16871(10)
O7 O 0.4550(2) -0.04446(14) -0.11087(10)
O8 O 0.5220(2) 0.02671(17) -0.03782(10)
N5 N 0.6068(2) 0.20315(14) 0.04269(10)
N6 N 0.6633(2) 0.48434(13) 0.02661(10)
H5 H 0.5815 0.4960 0.0396
H6 H 0.6572 0.4726 -0.0118
N7 N 0.8630(2) -0.29624(14) 0.04344(10)
N8 N 0.8125(2) -0.01369(13) 0.02621(10)
H7 H 0.8301 -0.0241 -0.0117
H8 H 0.8893 -0.0018 0.0441
C13 C 0.4770(3) 0.20994(18) 0.04496(13)
H21 H 0.4257 0.1638 0.0419
C14 C 0.4164(3) 0.28102(17) 0.05159(12)
H22 H 0.3247 0.2838 0.0533
C15 C 0.4902(3) 0.34896(17) 0.05573(11)
H23 H 0.4494 0.3986 0.0603
C16 C 0.6236(3) 0.34369(17) 0.05321(11)
C17 C 0.6771(3) 0.26947(17) 0.04675(11)
H24 H 0.7686 0.2652 0.0451
C18 C 0.7115(3) 0.41465(17) 0.05741(12)
H25 H 0.7229 0.4283 0.0984
H26 H 0.7974 0.4005 0.0419
C19 C 0.9915(3) -0.28957(18) 0.04805(13)
H27 H 1.0429 -0.3358 0.0468
C20 C 1.0517(3) -0.21835(18) 0.05448(12)
H28 H 1.1431 -0.2157 0.0578
C21 C 0.9783(3) -0.15032(17) 0.05616(12)
H29 H 1.0187 -0.1006 0.0610
C22 C 0.8451(3) -0.15574(17) 0.05070(11)
C23 C 0.7918(3) -0.23069(17) 0.04538(11)
H30 H 0.7005 -0.2354 0.0430
C24 C 0.7566(3) -0.08467(18) 0.05300(12)
H31 H 0.6745 -0.0977 0.0334
H32 H 0.7362 -0.0730 0.0936
C31 C 0.5184(3) 0.00872(19) -0.08822(12)
C32 C 0.5975(4) 0.0587(2) -0.13085(14)
Ag4C Ag 0.78430(2) 0.586290(13) 0.036980(9)
Ag4C_2 Ag 0.78430(2) -0.413710(13) 0.036980(9)
N6C N 0.1633(2) 0.01566(13) -0.02661(10)
H5C H 0.0815 0.0040 -0.0396
H6C H 0.1572 0.0274 0.0118
N7C N 0.3630(2) -0.20376(14) -0.04344(10)
loop_
_geom_bond_atom_site_label_1
_geom_bond_atom_site_label_2
_geom_bond_site_symmetry_1
_geom_bond_site_symmetry_2
Ag1 O1 1_555 1_555
Ag2 O3 1_555 1_555
Ag3 O8 1_555 1_555
Ag4 O7 1_555 1_555
F1 C26 1_555 1_555
F2 C26 1_555 1_555
F3 C26 1_555 1_555
F4 C28 1_555 1_555
F5 C28 1_555 1_555
F6 C28 1_555 1_555
F7 C30 1_555 1_555
F8 C30 1_555 1_555
F9 C30 1_555 1_555
F10 C32 1_555 1_555
F11 C32 1_555 1_555
F12 C32 1_555 1_555
O1 C25 1_555 1_555
O2 C25 1_555 1_555
O3 C27 1_555 1_555
O4 C27 1_555 1_555
O5 Ag2 1_555 1_555
O6 C29 1_555 1_555
O7 C31 1_555 1_555
O8 C31 1_555 1_555
N1 Ag1 1_555 1_555
N2 Ag2 1_555 1_555
H1 N2 1_555 1_555
H2 N2 1_555 1_555
N3 C7 1_555 1_555
N4 Ag1 1_555 1_555
H3 N4 1_555 1_555
H4 N4 1_555 1_555
N5 Ag3 1_555 1_555
N6 H5 1_555 1_555
H6 N6 1_555 1_555
N7 C19 1_555 1_555
N8 Ag3 1_555 1_555
H7 N8 1_555 1_555
H8 N8 1_555 1_555
C1 N1 1_555 1_555
H9 C1 1_555 1_555
C2 C1 1_555 1_555
H10 C2 1_555 1_555
C3 C2 1_555 1_555
H11 C3 1_555 1_555
C4 C3 1_555 1_555
C5 N1 1_555 1_555
H12 C5 1_555 1_555
C6 N2 1_555 1_555
H13 C6 1_555 1_555
H14 C6 1_555 1_555
C7 H15 1_555 1_555
C8 C7 1_555 1_555
H16 C8 1_555 1_555
C9 C8 1_555 1_555
H17 C9 1_555 1_555
C10 C9 1_555 1_555
C11 N3 1_555 1_555
H18 C11 1_555 1_555
C12 N4 1_555 1_555
H19 C12 1_555 1_555
H20 C12 1_555 1_555
C13 N5 1_555 1_555
H21 C13 1_555 1_555
C14 C13 1_555 1_555
H22 C14 1_555 1_555
C15 C14 1_555 1_555
H23 C15 1_555 1_555
C16 C15 1_555 1_555
C17 N5 1_555 1_555
H24 C17 1_555 1_555
C18 N6 1_555 1_555
H25 C18 1_555 1_555
H26 C18 1_555 1_555
C19 H27 1_555 1_555
C20 C19 1_555 1_555
H28 C20 1_555 1_555
C21 C20 1_555 1_555
H29 C21 1_555 1_555
C22 C21 1_555 1_555
C23 N7 1_555 1_555
H30 C23 1_555 1_555
C24 N8 1_555 1_555
H31 C24 1_555 1_555
H32 C24 1_555 1_555
C25 C26 1_555 1_555
C27 C28 1_555 1_555
C29 O5 1_555 1_555
C30 C29 1_555 1_555
C31 C32 1_555 1_555
Ag2_2 N3 1_555 1_555
Ag4C N6 1_555 1_555
Ag4C_2 N7 1_555 1_555
N3_2 Ag2 1_555 1_555
N6C Ag4 1_555 1_555
H5C N6C 1_555 1_555
H6C N6C 1_555 1_555
N7C Ag4 1_555 1_555
C4 C5 1_555 1_555
C4 C6 1_555 1_555
C10 C11 1_555 1_555
C10 C12 1_555 1_555
C16 C17 1_555 1_555
C16 C18 1_555 1_555
C22 C23 1_555 1_555
C22 C24 1_555 1_555

#END
