
#######################################################################
#
#                 Cambridge Crystallographic Data Centre
#                                CCDC 
#
#######################################################################
#
# If this CIF has been generated from an entry in the Cambridge 
# Structural Database, then it will include bibliographic, chemical, 
# crystal, experimental, refinement or atomic coordinate data resulting 
# from the CCDC's data processing and validation procedures.
#
#######################################################################

data_LEDYAV
_symmetry_cell_setting           orthorhombic
_symmetry_space_group_name_H-M   'P b c a'
_symmetry_Int_Tables_number      61
_space_group_name_Hall           '-P 2ac 2ab'
loop_
_symmetry_equiv_pos_site_id
_symmetry_equiv_pos_as_xyz
1 x,y,z
2 1/2-x,-y,1/2+z
3 -x,1/2+y,1/2-z
4 1/2+x,1/2-y,-z
5 -x,-y,-z
6 1/2+x,y,1/2-z
7 x,1/2-y,1/2+z
8 1/2-x,1/2+y,z
_cell_length_a                   15.3184(13)
_cell_length_b                   10.4897(15)
_cell_length_c                   18.8193(17)
_cell_angle_alpha                90
_cell_angle_beta                 90
_cell_angle_gamma                90
_cell_volume                     3023.99
loop_
_atom_site_label
_atom_site_type_symbol
_atom_site_fract_x
_atom_site_fract_y
_atom_site_fract_z
Ag1 Ag 0.077837(8) 0.870167(12) 0.390122(7)
N1 N 0.15278(9) 1.01848(14) 0.45688(8)
N2 N 0.00158(10) 1.29780(15) 0.56050(9)
H1 H -0.0106(13) 1.3015(18) 0.5147(11)
H2 H -0.0197(13) 1.3680(18) 0.5785(11)
N3 N 0.16608(9) 0.74134(14) 0.31499(8)
N4 N 0.00901(10) 0.50487(16) 0.18098(9)
H3 H -0.0080(13) 0.4870(18) 0.2209(10)
H4 H -0.0045(13) 0.5855(19) 0.1693(10)
C1 C 0.23992(12) 1.01742(18) 0.46435(10)
H5 H 0.2725 0.9529 0.4408
C2 C 0.28404(12) 1.10594(17) 0.50469(10)
H6 H 0.3458 1.1025 0.5086
C3 C 0.23756(12) 1.19963(17) 0.53936(10)
H7 H 0.2670 1.2608 0.5679
C4 C 0.14717(11) 1.20403(16) 0.53233(9)
C5 C 0.10854(12) 1.11160(16) 0.49022(9)
H8 H 0.0469 1.1142 0.4846
C6 C 0.09661(12) 1.30656(17) 0.57035(10)
H9 H 0.1098 1.3016 0.6218
H10 H 0.1167 1.3908 0.5531
C7 C 0.25276(11) 0.73362(18) 0.31164(10)
H11 H 0.2865 0.7891 0.3406
C8 C 0.29587(13) 0.64857(18) 0.26795(11)
H12 H 0.3578 0.6451 0.2676
C9 C 0.24773(11) 0.56876(18) 0.22482(10)
H13 H 0.2762 0.5094 0.1945
C10 C 0.15705(11) 0.57616(17) 0.22626(9)
C11 C 0.12039(12) 0.66289(17) 0.27237(10)
H14 H 0.0585 0.6677 0.2742
C12 C 0.10416(12) 0.49072(18) 0.17811(10)
H15 H 0.1232 0.5061 0.1286
H16 H 0.1186 0.4011 0.1898
Ag1D Ag -0.077837(8) 1.129833(12) 0.609878(7)
Ag1B Ag -0.077837(8) 0.370167(12) 0.109878(7)
N2D N -0.00158(10) 0.70220(15) 0.43950(9)
H1D H 0.0106(13) 0.6985(18) 0.4853(11)
H2D H 0.0197(13) 0.6320(18) 0.4215(11)
N4B N -0.00901(10) 1.00487(16) 0.31902(9)
H3B H 0.0080(13) 0.9870(18) 0.2791(10)
H4B H 0.0045(13) 1.0855(19) 0.3307(10)
F1 F 0.55630(7) 0.96047(10) 0.33678(6)
F2 F 0.44223(7) 0.92125(11) 0.41094(6)
F3 F 0.45735(7) 0.80707(10) 0.30885(6)
F4 F 0.55135(7) 0.77536(10) 0.40050(6)
B1 B 0.50177(14) 0.8662(2) 0.36403(12)
loop_
_geom_bond_atom_site_label_1
_geom_bond_atom_site_label_2
_geom_bond_site_symmetry_1
_geom_bond_site_symmetry_2
Ag1 N1 1_555 1_555
F1 B1 1_555 1_555
F2 B1 1_555 1_555
F3 B1 1_555 1_555
F4 B1 1_555 1_555
N1 C1 1_555 1_555
N2 H1 1_555 1_555
H2 N2 1_555 1_555
N3 Ag1 1_555 1_555
N4 H3 1_555 1_555
H4 N4 1_555 1_555
C1 H5 1_555 1_555
C2 C1 1_555 1_555
H6 C2 1_555 1_555
C3 C2 1_555 1_555
H7 C3 1_555 1_555
C4 C3 1_555 1_555
C5 N1 1_555 1_555
H8 C5 1_555 1_555
C6 N2 1_555 1_555
H9 C6 1_555 1_555
H10 C6 1_555 1_555
C7 N3 1_555 1_555
H11 C7 1_555 1_555
C8 C7 1_555 1_555
H12 C8 1_555 1_555
C9 C8 1_555 1_555
H13 C9 1_555 1_555
C10 C9 1_555 1_555
C11 N3 1_555 1_555
H14 C11 1_555 1_555
C12 N4 1_555 1_555
H15 C12 1_555 1_555
H16 C12 1_555 1_555
Ag1D N2 1_555 1_555
Ag1B N4 1_555 1_555
N2D Ag1 1_555 1_555
H1D N2D 1_555 1_555
H2D N2D 1_555 1_555
N4B Ag1 1_555 1_555
H3B N4B 1_555 1_555
H4B N4B 1_555 1_555
C4 C5 1_555 1_555
C4 C6 1_555 1_555
C10 C11 1_555 1_555
C10 C12 1_555 1_555

#END
