
#######################################################################
#
#                 Cambridge Crystallographic Data Centre
#                                CCDC 
#
#######################################################################
#
# If this CIF has been generated from an entry in the Cambridge 
# Structural Database, then it will include bibliographic, chemical, 
# crystal, experimental, refinement or atomic coordinate data resulting 
# from the CCDC's data processing and validation procedures.
#
#######################################################################

data_LEDYAV01
_symmetry_cell_setting           monoclinic
_symmetry_space_group_name_H-M   'P 21/c'
_symmetry_Int_Tables_number      14
_space_group_name_Hall           '-P 2ybc'
loop_
_symmetry_equiv_pos_site_id
_symmetry_equiv_pos_as_xyz
1 x,y,z
2 -x,1/2+y,1/2-z
3 -x,-y,-z
4 x,1/2-y,1/2+z
_cell_length_a                   8.6991(4)
_cell_length_b                   14.1060(7)
_cell_length_c                   12.9311(7)
_cell_angle_alpha                90
_cell_angle_beta                 109.607(2)
_cell_angle_gamma                90
_cell_volume                     1494.76
loop_
_atom_site_label
_atom_site_type_symbol
_atom_site_fract_x
_atom_site_fract_y
_atom_site_fract_z
Ag1 Ag 0.523003(14) 1.023338(8) 0.787533(10)
N1 N 0.58130(17) 0.86042(10) 0.81406(11)
H1 H 0.6281 0.8412 0.7634
H2 H 0.6583 0.8526 0.8825
N2 N 0.34290(17) 0.89638(10) 1.04771(11)
N3 N 0.69138(16) 1.04363(9) 0.67715(11)
N4 N 1.26136(15) 1.08186(9) 0.71218(11)
H3 H 1.2519 1.1369 0.7478
H4 H 1.2413 1.0961 0.6394
C1 C 0.4439(2) 0.79618(12) 0.80566(13)
H5 H 0.4861 0.7308 0.8231
H6 H 0.3675 0.7965 0.7291
C2 C 0.35207(19) 0.82334(11) 0.88159(12)
C3 C 0.42234(19) 0.87364(11) 0.97795(13)
H7 H 0.5327 0.8932 0.9958
C4 C 0.1869(2) 0.86890(12) 1.02130(14)
H8 H 0.1291 0.8844 1.0697
C5 C 0.1067(2) 0.81907(12) 0.92675(14)
H9 H -0.0043 0.8012 0.9103
C6 C 0.1902(2) 0.79547(11) 0.85635(13)
H10 H 0.1374 0.7605 0.7913
C7 C 0.8514(2) 1.02447(11) 0.72003(13)
H11 H 0.8911 0.9991 0.7922
C8 C 0.96282(19) 1.03928(10) 0.66595(13)
C9 C 0.90249(19) 1.07517(11) 0.56005(13)
H12 H 0.9740 1.0872 0.5199
C10 C 0.7371(2) 1.09333(11) 0.51349(13)
H13 H 0.6935 1.1165 0.4405
C11 C 0.63604(19) 1.07730(11) 0.57464(13)
H14 H 0.5229 1.0908 0.5425
C12 C 1.13963(19) 1.01257(11) 0.72125(13)
H15 H 1.1580 1.0017 0.8001
H16 H 1.1596 0.9517 0.6898
Ag1B Ag 0.476997(14) 0.976662(8) 1.212467(10)
Ag1_2 Ag 1.523003(14) 1.023338(8) 0.787533(10)
N2B N 0.65710(17) 1.10362(10) 0.95229(11)
N4_2 N 0.26136(15) 1.08186(9) 0.71218(11)
H3_2 H 0.2519 1.1369 0.7478
H4_2 H 0.2413 1.0961 0.6394
F1 F 0.98363(12) 0.79916(8) 0.60986(8)
F2 F 0.82579(12) 0.66756(7) 0.56010(9)
F3 F 0.72409(13) 0.81182(8) 0.49420(9)
F4 F 0.77379(15) 0.77442(8) 0.67451(9)
B1 B 0.8270(2) 0.76400(13) 0.58491(15)
loop_
_geom_bond_atom_site_label_1
_geom_bond_atom_site_label_2
_geom_bond_site_symmetry_1
_geom_bond_site_symmetry_2
Ag1 N1 1_555 1_555
F1 B1 1_555 1_555
F2 B1 1_555 1_555
F3 B1 1_555 1_555
F4 B1 1_555 1_555
N1 H1 1_555 1_555
H2 N1 1_555 1_555
N2 C3 1_555 1_555
N3 Ag1 1_555 1_555
N4 H3 1_555 1_555
H4 N4 1_555 1_555
C1 N1 1_555 1_555
H5 C1 1_555 1_555
H6 C1 1_555 1_555
C2 C1 1_555 1_555
C3 C2 1_555 1_555
H7 C3 1_555 1_555
C4 N2 1_555 1_555
H8 C4 1_555 1_555
C5 C4 1_555 1_555
H9 C5 1_555 1_555
C6 C2 1_555 1_555
H10 C6 1_555 1_555
C7 N3 1_555 1_555
H11 C7 1_555 1_555
C8 C7 1_555 1_555
C9 C8 1_555 1_555
H12 C9 1_555 1_555
C10 C9 1_555 1_555
H13 C10 1_555 1_555
C11 N3 1_555 1_555
H14 C11 1_555 1_555
C12 N4 1_555 1_555
H15 C12 1_555 1_555
H16 C12 1_555 1_555
Ag1B N2 1_555 1_555
Ag1_2 N4 1_555 1_555
N2B Ag1 1_555 1_555
N4_2 Ag1 1_555 1_555
H3_2 N4_2 1_555 1_555
H4_2 N4_2 1_555 1_555
C5 C6 1_555 1_555
C8 C12 1_555 1_555
C10 C11 1_555 1_555

#END
