
#######################################################################
#
#                 Cambridge Crystallographic Data Centre
#                                CCDC 
#
#######################################################################
#
# If this CIF has been generated from an entry in the Cambridge 
# Structural Database, then it will include bibliographic, chemical, 
# crystal, experimental, refinement or atomic coordinate data resulting 
# from the CCDC's data processing and validation procedures.
#
#######################################################################

data_LEDYID
_symmetry_cell_setting           monoclinic
_symmetry_space_group_name_H-M   'C 2/m'
_symmetry_Int_Tables_number      12
_space_group_name_Hall           '-C 2y'
loop_
_symmetry_equiv_pos_site_id
_symmetry_equiv_pos_as_xyz
1 x,y,z
2 1/2+x,1/2+y,z
3 -x,y,-z
4 1/2-x,1/2+y,-z
5 -x,-y,-z
6 1/2-x,1/2-y,-z
7 x,-y,z
8 1/2+x,1/2-y,z
_cell_length_a                   13.5924(15)
_cell_length_b                   27.841(3)
_cell_length_c                   13.2811(15)
_cell_angle_alpha                90
_cell_angle_beta                 113.100(2)
_cell_angle_gamma                90
_cell_volume                     4622.94
loop_
_atom_site_label
_atom_site_type_symbol
_atom_site_fract_x
_atom_site_fract_y
_atom_site_fract_z
Ag1 Ag 1.12108(5) 1.26915(3) 1.59705(5)
Ag2 Ag 1.22751(10) 1.5000 1.97876(8)
Ag3 Ag 1.02423(16) 1.0000 1.2944(2)
N1 N 1.0242(12) 1.0773(6) 1.2872(13)
H1 H 1.0190 1.0856 1.2198
H2 H 0.9641 1.0876 1.2935
C1 C 1.1075(11) 1.1026(5) 1.3607(14)
H3 H 1.1719 1.0913 1.3535
H4 H 1.1131 1.0932 1.4330
N4 N 1.1240(5) 1.2880(3) 1.7576(6)
N5 N 1.2258(6) 1.4231(2) 1.9679(6)
H12 H 1.2687 1.4140 1.9342
H13 H 1.2529 1.4108 2.0361
N6 N 1.1153(5) 1.2304(3) 1.4519(6)
N7 N 1.1272(7) 1.3517(3) 1.5230(9)
C5 C 1.1192(8) 1.4028(3) 1.9087(8)
H14 H 1.0849 1.4201 1.8403
H15 H 1.0766 1.4078 1.9518
C6 C 1.1201(7) 1.3497(3) 1.8840(7)
C7 C 1.1234(7) 1.3350(3) 1.7860(7)
H16 H 1.1254 1.3584 1.7368
C8 C 1.1219(7) 1.2549(3) 1.8299(7)
H17 H 1.1226 1.2226 1.8120
C9 C 1.1189(7) 1.2664(3) 1.9303(8)
H18 H 1.1180 1.2425 1.9788
C10 C 1.1171(7) 1.3142(3) 1.9565(7)
H19 H 1.1138 1.3227 2.0228
C11 C 1.1114(7) 1.1557(4) 1.3600(8)
C12 C 1.1057(7) 1.1833(3) 1.4443(7)
H20 H 1.0942 1.1673 1.5001
C13 C 1.1309(6) 1.2533(4) 1.3715(7)
H21 H 1.1373 1.2866 1.3743
C14 C 1.1378(7) 1.2286(5) 1.2827(7)
H22 H 1.1498 1.2454 1.2280
C15 C 1.1269(8) 1.1798(5) 1.2768(8)
H23 H 1.1299 1.1630 1.2175
C16 C 1.1101(7) 1.3858(4) 1.4737(9)
C17 C 1.0915(12) 1.4287(4) 1.4100(11)
H24 H 1.1137 1.4240 1.3505
H25 H 1.1316 1.4546 1.4552
H26 H 1.0166 1.4364 1.3815
Ag1F Ag 1.12108(5) 1.73085(3) 1.59705(5)
Ag1F_2 Ag 1.12108(5) 0.73085(3) 1.59705(5)
Ag1_2 Ag 1.12108(5) 2.26915(3) 1.59705(5)
Ag2_2 Ag 1.22751(10) 0.5000 1.97876(8)
Ag2_3 Ag 1.22751(10) 2.5000 1.97876(8)
Ag3_2 Ag 1.02423(16) 2.0000 1.2944(2)
N1F N 1.0242(12) 1.9227(6) 1.2872(13)
N1F_2 N 1.0242(12) 0.9227(6) 1.2872(13)
N1_2 N 1.0242(12) 2.0773(6) 1.2872(13)
H1F H 1.0190 1.9144 1.2198
H1F_2 H 1.0190 0.9144 1.2198
H1_2 H 1.0190 2.0856 1.2198
H2F H 0.9641 1.9124 1.2935
H2F_2 H 0.9641 0.9124 1.2935
H2_2 H 0.9641 2.0876 1.2935
C1F C 1.1075(11) 1.8974(5) 1.3607(14)
C1F_2 C 1.1075(11) 0.8974(5) 1.3607(14)
C1_2 C 1.1075(11) 2.1026(5) 1.3607(14)
H3F H 1.1719 1.9087 1.3535
H3F_2 H 1.1719 0.9087 1.3535
H3_2 H 1.1719 2.0913 1.3535
H4F H 1.1131 1.9068 1.4330
H4F_2 H 1.1131 0.9068 1.4330
H4_2 H 1.1131 2.0932 1.4330
N4F N 1.1240(5) 1.7120(3) 1.7576(6)
N4F_2 N 1.1240(5) 0.7120(3) 1.7576(6)
N4_2 N 1.1240(5) 2.2880(3) 1.7576(6)
N5F N 1.2258(6) 1.5769(2) 1.9679(6)
N5F_2 N 1.2258(6) 0.5769(2) 1.9679(6)
N5_2 N 1.2258(6) 2.4231(2) 1.9679(6)
N5_3 N 1.2258(6) 0.4231(2) 1.9679(6)
H12F H 1.2687 1.5860 1.9342
H12F_2 H 1.2687 0.5860 1.9342
H12_2 H 1.2687 2.4140 1.9342
H12_3 H 1.2687 0.4140 1.9342
H13F H 1.2529 1.5892 2.0361
H13F_2 H 1.2529 0.5892 2.0361
H13_2 H 1.2529 2.4108 2.0361
H13_3 H 1.2529 0.4108 2.0361
N6F N 1.1153(5) 1.7696(3) 1.4519(6)
N6F_2 N 1.1153(5) 0.7696(3) 1.4519(6)
N6_2 N 1.1153(5) 2.2304(3) 1.4519(6)
N7F N 1.1272(7) 1.6483(3) 1.5230(9)
N7F_2 N 1.1272(7) 0.6483(3) 1.5230(9)
N7_2 N 1.1272(7) 2.3517(3) 1.5230(9)
C5F C 1.1192(8) 1.5972(3) 1.9087(8)
C5F_2 C 1.1192(8) 0.5972(3) 1.9087(8)
C5_2 C 1.1192(8) 2.4028(3) 1.9087(8)
H14F H 1.0849 1.5799 1.8403
H14F_2 H 1.0849 0.5799 1.8403
H14_2 H 1.0849 2.4201 1.8403
H15F H 1.0766 1.5922 1.9518
H15F_2 H 1.0766 0.5922 1.9518
H15_2 H 1.0766 2.4078 1.9518
C6F C 1.1201(7) 1.6503(3) 1.8840(7)
C6F_2 C 1.1201(7) 0.6503(3) 1.8840(7)
C6_2 C 1.1201(7) 2.3497(3) 1.8840(7)
C7F C 1.1234(7) 1.6650(3) 1.7860(7)
C7F_2 C 1.1234(7) 0.6650(3) 1.7860(7)
C7_2 C 1.1234(7) 2.3350(3) 1.7860(7)
H16F H 1.1254 1.6416 1.7368
H16F_2 H 1.1254 0.6416 1.7368
H16_2 H 1.1254 2.3584 1.7368
C8F C 1.1219(7) 1.7451(3) 1.8299(7)
C8F_2 C 1.1219(7) 0.7451(3) 1.8299(7)
C8_2 C 1.1219(7) 2.2549(3) 1.8299(7)
H17F H 1.1226 1.7774 1.8120
H17F_2 H 1.1226 0.7774 1.8120
H17_2 H 1.1226 2.2226 1.8120
C9F C 1.1189(7) 1.7336(3) 1.9303(8)
C9F_2 C 1.1189(7) 0.7336(3) 1.9303(8)
C9_2 C 1.1189(7) 2.2664(3) 1.9303(8)
H18F H 1.1180 1.7575 1.9788
H18F_2 H 1.1180 0.7575 1.9788
H18_2 H 1.1180 2.2425 1.9788
C10F C 1.1171(7) 1.6858(3) 1.9565(7)
C10F_2 C 1.1171(7) 0.6858(3) 1.9565(7)
C10_2 C 1.1171(7) 2.3142(3) 1.9565(7)
H19F H 1.1138 1.6773 2.0228
H19F_2 H 1.1138 0.6773 2.0228
H19_2 H 1.1138 2.3227 2.0228
C11F C 1.1114(7) 1.8443(4) 1.3600(8)
C11F_2 C 1.1114(7) 0.8443(4) 1.3600(8)
C11_2 C 1.1114(7) 2.1557(4) 1.3600(8)
C12F C 1.1057(7) 1.8167(3) 1.4443(7)
C12F_2 C 1.1057(7) 0.8167(3) 1.4443(7)
C12_2 C 1.1057(7) 2.1833(3) 1.4443(7)
H20F H 1.0942 1.8327 1.5001
H20F_2 H 1.0942 0.8327 1.5001
H20_2 H 1.0942 2.1673 1.5001
C13F C 1.1309(6) 1.7467(4) 1.3715(7)
C13F_2 C 1.1309(6) 0.7467(4) 1.3715(7)
C13_2 C 1.1309(6) 2.2533(4) 1.3715(7)
H21F H 1.1373 1.7134 1.3743
H21F_2 H 1.1373 0.7134 1.3743
H21_2 H 1.1373 2.2866 1.3743
C14F C 1.1378(7) 1.7714(5) 1.2827(7)
C14F_2 C 1.1378(7) 0.7714(5) 1.2827(7)
C14_2 C 1.1378(7) 2.2286(5) 1.2827(7)
H22F H 1.1498 1.7546 1.2280
H22F_2 H 1.1498 0.7546 1.2280
H22_2 H 1.1498 2.2454 1.2280
C15F C 1.1269(8) 1.8202(5) 1.2768(8)
C15F_2 C 1.1269(8) 0.8202(5) 1.2768(8)
C15_2 C 1.1269(8) 2.1798(5) 1.2768(8)
H23F H 1.1299 1.8370 1.2175
H23F_2 H 1.1299 0.8370 1.2175
H23_2 H 1.1299 2.1630 1.2175
C16F C 1.1101(7) 1.6142(4) 1.4737(9)
C16F_2 C 1.1101(7) 0.6142(4) 1.4737(9)
C16_2 C 1.1101(7) 2.3858(4) 1.4737(9)
C17F C 1.0915(12) 1.5713(4) 1.4100(11)
C17F_2 C 1.0915(12) 0.5713(4) 1.4100(11)
C17_2 C 1.0915(12) 2.4287(4) 1.4100(11)
H24F H 1.1137 1.5760 1.3505
H24F_2 H 1.1137 0.5760 1.3505
H24_2 H 1.1137 2.4240 1.3505
H25F H 1.1316 1.5454 1.4552
H25F_2 H 1.1316 0.5454 1.4552
H25_2 H 1.1316 2.4546 1.4552
H26F H 1.0166 1.5636 1.3815
H26F_2 H 1.0166 0.5636 1.3815
H26_2 H 1.0166 2.4364 1.3815
B1 B 0.7376(18) 0.6337(9) 0.753(2)
F1 F 0.8329(12) 0.6145(6) 0.8109(11)
F2 F 0.6742(10) 0.6325(5) 0.8166(9)
F3 F 0.6823(13) 0.6071(6) 0.6586(11)
F4 F 0.7439(16) 0.6801(5) 0.7253(17)
B3 B 1.3058(13) 1.0000 1.2962(13)
F9 F 1.3943(11) 1.0000 1.2590(12)
F10 F 1.2502(18) 0.9640(8) 1.2407(15)
F11 F 1.314(5) 1.0000 1.3989(12)
F10F F 1.2502(18) 1.0360(8) 1.2407(15)
O3 O 1.0000 1.0000 1.0000
O1? O 1.389(3) 1.0000 1.823(3)
Ag4? Ag 1.0671(4) 1.0000 1.3852(4)
N2? N 1.060(3) 1.0831(12) 1.399(3)
H5? H 0.9909 1.0926 1.3667
H6? H 1.0833 1.0913 1.4702
N3? N 1.129(3) 1.0000 1.535(3)
C2? C 1.177(3) 1.0000 1.625(3)
C3? C 1.239(2) 1.0000 1.741(2)
H7? H 1.2468 0.9677 1.7677
H8? H 1.2042 1.0191 1.7768
H9? H 1.3086 1.0132 1.7546
O2? O 1.4783(18) 1.0000 1.9648(16)
C4? C 1.1075(11) 1.1026(5) 1.3607(14)
H10? H 1.0821 1.0922 1.2851
H11? H 1.1806 1.0914 1.3963
B2? B 0.749(2) 0.6284(10) 0.727(3)
F5? F 0.8535(14) 0.6359(10) 0.764(3)
F6? F 0.7268(19) 0.5996(8) 0.8035(15)
F7? F 0.720(2) 0.6001(7) 0.6334(15)
F8? F 0.692(3) 0.6691(10) 0.711(2)
B4? B 1.3058(13) 1.0000 1.2962(13)
F12? F 1.398(3) 1.0182(11) 1.352(3)
F13? F 1.326(7) 0.953(4) 1.293(6)
F14? F 1.26(2) 1.0000 1.364(7)
F15? F 1.0781(5) 0.8942(2) 1.0764(5)
F16? F 1.0000 0.8230(3) 1.0000
F17? F 0.9254(11) 0.8627(6) 1.0842(12)
B5? B 0.977(2) 0.8664(11) 1.0147(19)
loop_
_geom_bond_atom_site_label_1
_geom_bond_atom_site_label_2
_geom_bond_site_symmetry_1
_geom_bond_site_symmetry_2
Ag1 N4 1_555 1_555
Ag2 N5 1_555 1_555
Ag3 N1 1_555 1_555
N1 H1 1_555 1_555
H2 N1 1_555 1_555
C1 N1 1_555 1_555
H3 C1 1_555 1_555
H4 C1 1_555 1_555
B1 F1 1_555 1_555
F2 B1 1_555 1_555
F3 B1 1_555 1_555
F4 B1 1_555 1_555
B3 F9 1_555 1_555
F10 B3 1_555 1_555
F11 B3 1_555 1_555
N4 C7 1_555 1_555
N5 H12 1_555 1_555
H13 N5 1_555 1_555
N6 Ag1 1_555 1_555
N7 Ag1 1_555 1_555
C5 N5 1_555 1_555
H14 C5 1_555 1_555
H15 C5 1_555 1_555
C6 C5 1_555 1_555
C7 C6 1_555 1_555
H16 C7 1_555 1_555
C8 N4 1_555 1_555
H17 C8 1_555 1_555
C9 C8 1_555 1_555
H18 C9 1_555 1_555
C10 C6 1_555 1_555
H19 C10 1_555 1_555
C11 C1 1_555 1_555
C12 N6 1_555 1_555
H20 C12 1_555 1_555
C13 N6 1_555 1_555
H21 C13 1_555 1_555
C14 C13 1_555 1_555
H22 C14 1_555 1_555
C15 C11 1_555 1_555
H23 C15 1_555 1_555
C16 N7 1_555 1_555
C17 C16 1_555 1_555
H24 C17 1_555 1_555
H25 C17 1_555 1_555
H26 C17 1_555 1_555
Ag1F N4F 1_555 1_555
Ag1F_2 N4F_2 1_555 1_555
Ag1_2 N4_2 1_555 1_555
Ag2_2 N5F_2 1_555 1_555
Ag2_3 N5_2 1_555 1_555
Ag3_2 N1F 1_555 1_555
N1F H1F 1_555 1_555
N1F_2 Ag3 1_555 1_555
N1_2 Ag3_2 1_555 1_555
H1F_2 N1F_2 1_555 1_555
H1_2 N1_2 1_555 1_555
H2F N1F 1_555 1_555
H2F_2 N1F_2 1_555 1_555
H2_2 N1_2 1_555 1_555
C1F N1F 1_555 1_555
C1F_2 N1F_2 1_555 1_555
C1_2 N1_2 1_555 1_555
H3F C1F 1_555 1_555
H3F_2 C1F_2 1_555 1_555
H3_2 C1_2 1_555 1_555
H4F C1F 1_555 1_555
H4F_2 C1F_2 1_555 1_555
H4_2 C1_2 1_555 1_555
F10F B3 1_555 1_555
N4F C7F 1_555 1_555
N4F_2 C7F_2 1_555 1_555
N4_2 C7_2 1_555 1_555
N5F Ag2 1_555 1_555
N5F_2 H12F_2 1_555 1_555
N5_2 H12_2 1_555 1_555
N5_3 Ag2_2 1_555 1_555
H12F N5F 1_555 1_555
H12_3 N5_3 1_555 1_555
H13F N5F 1_555 1_555
H13F_2 N5F_2 1_555 1_555
H13_2 N5_2 1_555 1_555
H13_3 N5_3 1_555 1_555
N6F Ag1F 1_555 1_555
N6F_2 Ag1F_2 1_555 1_555
N6_2 Ag1_2 1_555 1_555
N7F Ag1F 1_555 1_555
N7F_2 Ag1F_2 1_555 1_555
N7_2 Ag1_2 1_555 1_555
C5F N5F 1_555 1_555
C5F_2 N5F_2 1_555 1_555
C5_2 N5_2 1_555 1_555
H14F C5F 1_555 1_555
H14F_2 C5F_2 1_555 1_555
H14_2 C5_2 1_555 1_555
H15F C5F 1_555 1_555
H15F_2 C5F_2 1_555 1_555
H15_2 C5_2 1_555 1_555
C6F C5F 1_555 1_555
C6F_2 C5F_2 1_555 1_555
C6_2 C5_2 1_555 1_555
C7F C6F 1_555 1_555
C7F_2 C6F_2 1_555 1_555
C7_2 C6_2 1_555 1_555
H16F C7F 1_555 1_555
H16F_2 C7F_2 1_555 1_555
H16_2 C7_2 1_555 1_555
C8F N4F 1_555 1_555
C8F_2 N4F_2 1_555 1_555
C8_2 N4_2 1_555 1_555
H17F C8F 1_555 1_555
H17F_2 C8F_2 1_555 1_555
H17_2 C8_2 1_555 1_555
C9F C8F 1_555 1_555
C9F_2 C8F_2 1_555 1_555
C9_2 C8_2 1_555 1_555
H18F C9F 1_555 1_555
H18F_2 C9F_2 1_555 1_555
H18_2 C9_2 1_555 1_555
C10F C6F 1_555 1_555
C10F_2 C6F_2 1_555 1_555
C10_2 C6_2 1_555 1_555
H19F C10F 1_555 1_555
H19F_2 C10F_2 1_555 1_555
H19_2 C10_2 1_555 1_555
C11F C1F 1_555 1_555
C11F_2 C1F_2 1_555 1_555
C11_2 C1_2 1_555 1_555
C12F N6F 1_555 1_555
C12F_2 N6F_2 1_555 1_555
C12_2 N6_2 1_555 1_555
H20F C12F 1_555 1_555
H20F_2 C12F_2 1_555 1_555
H20_2 C12_2 1_555 1_555
C13F N6F 1_555 1_555
C13F_2 N6F_2 1_555 1_555
C13_2 N6_2 1_555 1_555
H21F C13F 1_555 1_555
H21F_2 C13F_2 1_555 1_555
H21_2 C13_2 1_555 1_555
C14F C13F 1_555 1_555
C14F_2 C13F_2 1_555 1_555
C14_2 C13_2 1_555 1_555
H22F C14F 1_555 1_555
H22F_2 C14F_2 1_555 1_555
H22_2 C14_2 1_555 1_555
C15F C11F 1_555 1_555
C15F_2 C11F_2 1_555 1_555
C15_2 C11_2 1_555 1_555
H23F C15F 1_555 1_555
H23F_2 C15F_2 1_555 1_555
H23_2 C15_2 1_555 1_555
C16F N7F 1_555 1_555
C16F_2 N7F_2 1_555 1_555
C16_2 N7_2 1_555 1_555
C17F C16F 1_555 1_555
C17F_2 C16F_2 1_555 1_555
C17_2 C16_2 1_555 1_555
H24F C17F 1_555 1_555
H24F_2 C17F_2 1_555 1_555
H24_2 C17_2 1_555 1_555
H25F C17F 1_555 1_555
H25F_2 C17F_2 1_555 1_555
H25_2 C17_2 1_555 1_555
H26F C17F 1_555 1_555
H26F_2 C17F_2 1_555 1_555
H26_2 C17_2 1_555 1_555
C9 C10 1_555 1_555
C11 C12 1_555 1_555
C14 C15 1_555 1_555
C9F C10F 1_555 1_555
C9F_2 C10F_2 1_555 1_555
C9_2 C10_2 1_555 1_555
C11F C12F 1_555 1_555
C11F_2 C12F_2 1_555 1_555
C11_2 C12_2 1_555 1_555
C14F C15F 1_555 1_555
C14F_2 C15F_2 1_555 1_555
C14_2 C15_2 1_555 1_555

#END
