
#######################################################################
#
#                 Cambridge Crystallographic Data Centre
#                                CCDC 
#
#######################################################################
#
# If this CIF has been generated from an entry in the Cambridge 
# Structural Database, then it will include bibliographic, chemical, 
# crystal, experimental, refinement or atomic coordinate data resulting 
# from the CCDC's data processing and validation procedures.
#
#######################################################################

data_LEFGAF
_symmetry_cell_setting           tetragonal
_symmetry_space_group_name_H-M   'P -4 21 c'
_symmetry_Int_Tables_number      114
_space_group_name_Hall           'P -4 2n'
loop_
_symmetry_equiv_pos_site_id
_symmetry_equiv_pos_as_xyz
1 x,y,z
2 -x,-y,z
3 y,-x,-z
4 -y,x,-z
5 1/2-x,1/2+y,1/2-z
6 1/2+x,1/2-y,1/2-z
7 1/2-y,1/2-x,1/2+z
8 1/2+y,1/2+x,1/2+z
_cell_length_a                   18.3594(11)
_cell_length_b                   18.3594(11)
_cell_length_c                   7.3337(6)
_cell_angle_alpha                90
_cell_angle_beta                 90
_cell_angle_gamma                90
_cell_volume                     2471.95
loop_
_atom_site_label
_atom_site_type_symbol
_atom_site_fract_x
_atom_site_fract_y
_atom_site_fract_z
Tl1 Tl 0.610541(14) 0.468611(13) 0.20377(4)
O1 O 0.4751(3) 0.4142(3) 0.1764(7)
O2 O 0.5255(3) 0.3780(3) 0.4322(7)
C1 C 0.4769(4) 0.3748(4) 0.3123(13)
C2 C 0.4111(5) 0.3243(5) 0.3696(12)
H1 H 0.3915 0.3416 0.4862
C3 C 0.4452(5) 0.2449(5) 0.3985(13)
C4 C 0.5004(6) 0.2186(7) 0.310(2)
H2 H 0.5220 0.2458 0.2177
C5 C 0.5256(7) 0.1548(8) 0.3489(18)
H3 H 0.5637 0.1374 0.2777
C6 C 0.5011(9) 0.1109(6) 0.485(2)
H4 H 0.5217 0.0656 0.5082
C7 C 0.4398(10) 0.1394(8) 0.5952(19)
H5 H 0.4207 0.1145 0.6947
C8 C 0.4116(5) 0.2103(5) 0.5346(13)
H6 H 0.3709 0.2308 0.5902
C9 C 0.3503(6) 0.3270(6) 0.2259(13)
C10 C 0.3485(5) 0.2813(5) 0.0647(16)
H7 H 0.3855 0.2485 0.0371
C11 C 0.2861(5) 0.2904(5) -0.0483(11)
H8 H 0.2806 0.2627 -0.1536
C12 C 0.2351(5) 0.3397(5) -0.0004(17)
H9 H 0.1931 0.3437 -0.0706
C13 C 0.2428(6) 0.3816(6) 0.140(2)
H10 H 0.2087 0.4185 0.1562
C14 C 0.2932(6) 0.3759(5) 0.2551(14)
H11 H 0.2924 0.4044 0.3600
Tl1A Tl 0.389459(14) 0.531389(13) 0.20377(4)
Tl1B Tl 0.468611(13) 0.389459(14) -0.20377(4)
Tl1B_2 Tl 0.468611(13) 0.389459(14) 0.79623(4)
O1A O 0.5249(3) 0.5858(3) 0.1764(7)
O1C O 0.5858(3) 0.4751(3) -0.1764(7)
O2C O 0.6220(3) 0.5255(3) 0.5678(7)
loop_
_geom_bond_atom_site_label_1
_geom_bond_atom_site_label_2
_geom_bond_site_symmetry_1
_geom_bond_site_symmetry_2
Tl1 O1 1_555 1_555
O1 C1 1_555 1_555
O2 Tl1 1_555 1_555
C1 O2 1_555 1_555
C2 C1 1_555 1_555
H1 C2 1_555 1_555
C3 C2 1_555 1_555
C4 C3 1_555 1_555
H2 C4 1_555 1_555
C5 C4 1_555 1_555
H3 C5 1_555 1_555
C6 C5 1_555 1_555
H4 C6 1_555 1_555
C7 C6 1_555 1_555
H5 C7 1_555 1_555
C8 C3 1_555 1_555
H6 C8 1_555 1_555
C9 C2 1_555 1_555
C10 C9 1_555 1_555
H7 C10 1_555 1_555
C11 C10 1_555 1_555
H8 C11 1_555 1_555
C12 C11 1_555 1_555
H9 C12 1_555 1_555
C13 C12 1_555 1_555
H10 C13 1_555 1_555
C14 C9 1_555 1_555
H11 C14 1_555 1_555
Tl1A O1 1_555 1_555
Tl1B O1 1_555 1_555
Tl1B_2 O2 1_555 1_555
O1A Tl1 1_555 1_555
O1C Tl1 1_555 1_555
O2C Tl1 1_555 1_555
C7 C8 1_555 1_555
C13 C14 1_555 1_555
Tl1A O1A 1_555 1_555
Tl1B O1C 1_555 1_555

#END
