
#######################################################################
#
#                 Cambridge Crystallographic Data Centre
#                                CCDC 
#
#######################################################################
#
# If this CIF has been generated from an entry in the Cambridge 
# Structural Database, then it will include bibliographic, chemical, 
# crystal, experimental, refinement or atomic coordinate data resulting 
# from the CCDC's data processing and validation procedures.
#
#######################################################################

data_LEFJAH
_symmetry_cell_setting           monoclinic
_symmetry_space_group_name_H-M   'C 2'
_symmetry_Int_Tables_number      5
_space_group_name_Hall           'C 2y'
loop_
_symmetry_equiv_pos_site_id
_symmetry_equiv_pos_as_xyz
1 x,y,z
2 1/2+x,1/2+y,z
3 -x,y,-z
4 1/2-x,1/2+y,-z
_cell_length_a                   9.504(1)
_cell_length_b                   10.038(3)
_cell_length_c                   7.555(1)
_cell_angle_alpha                90
_cell_angle_beta                 94.01(2)
_cell_angle_gamma                90
_cell_volume                     718.991
loop_
_atom_site_label
_atom_site_type_symbol
_atom_site_fract_x
_atom_site_fract_y
_atom_site_fract_z
Cu1 Cu 0.2365 1.0000 0.8746(1)
O1 O 0.3291(3) 0.8281(3) 0.8464(4)
O2 O 0.3903(3) 0.6829(3) 0.6450(4)
O3 O 0.3070(3) 1.0085(5) 0.1230(3)
O4 O 0.1185(3) 0.8925(3) 0.1900(4)
O5 O 0.1284(3) 1.1646(3) 0.8764(4)
O6 O 0.4278(3) 1.1139(4) 0.7766(5)
N1 N 0.1449(4) 0.9576(4) 0.6351(5)
C1 C 0.3214(4) 0.7804(4) 0.6872(5)
C2 C 0.2262(4) 0.8526(4) 0.5475(5)
C3 C 0.3149(4) 0.9139(5) 0.4100(5)
C4 C 0.2370(4) 0.9398(4) 0.2294(5)
H1 H 0.0388 1.1631 0.8006
H2 H 0.1329 1.2119 0.9891
H3 H 0.1279 1.0411 0.5573
H4 H 0.0603 0.9071 0.6981
H5 H 0.1471 0.7827 0.4940
H6 H 0.3410 1.0077 0.4503
H7 H 0.3909 0.8328 0.4061
O3_2 O 0.3070(3) 1.0085(5) 1.1230(3)
Cu1_2 Cu 0.2365 1.0000 -0.1254(1)
loop_
_geom_bond_atom_site_label_1
_geom_bond_atom_site_label_2
_geom_bond_site_symmetry_1
_geom_bond_site_symmetry_2
Cu1 O1 1_555 1_555
O1 C1 1_555 1_555
O2 C1 1_555 1_555
O3 C4 1_555 1_555
O4 C4 1_555 1_555
O5 Cu1 1_555 1_555
O6 Cu1 1_555 1_555
N1 Cu1 1_555 1_555
C1 C2 1_555 1_555
C2 N1 1_555 1_555
C3 C2 1_555 1_555
C4 C3 1_555 1_555
H1 O5 1_555 1_555
H2 O5 1_555 1_555
H3 N1 1_555 1_555
H4 N1 1_555 1_555
H5 C2 1_555 1_555
H6 C3 1_555 1_555
H7 C3 1_555 1_555
O3_2 Cu1 1_555 1_555
Cu1_2 O3 1_555 1_555

#END
