
#######################################################################
#
#                 Cambridge Crystallographic Data Centre
#                                CCDC 
#
#######################################################################
#
# If this CIF has been generated from an entry in the Cambridge 
# Structural Database, then it will include bibliographic, chemical, 
# crystal, experimental, refinement or atomic coordinate data resulting 
# from the CCDC's data processing and validation procedures.
#
#######################################################################

data_LEFJAH08
_symmetry_cell_setting           monoclinic
_symmetry_space_group_name_H-M   'C 2'
_symmetry_Int_Tables_number      5
_space_group_name_Hall           'C 2y'
loop_
_symmetry_equiv_pos_site_id
_symmetry_equiv_pos_as_xyz
1 x,y,z
2 1/2+x,1/2+y,z
3 -x,y,-z
4 1/2-x,1/2+y,-z
_cell_length_a                   8.9403(6)
_cell_length_b                   9.5601(8)
_cell_length_c                   7.2112(14)
_cell_angle_alpha                90
_cell_angle_beta                 90.949(12)
_cell_angle_gamma                90
_cell_volume                     616.258
loop_
_atom_site_label
_atom_site_type_symbol
_atom_site_fract_x
_atom_site_fract_y
_atom_site_fract_z
Cu1 Cu 0.24241(11) 1.0069(2) 0.8612(4)
C1 C 0.3248(9) 0.7690(7) 0.6802(15)
C2 C 0.2236(7) 0.8414(7) 0.5395(15)
C3 C 0.3225(8) 0.9127(8) 0.4006(16)
C4 C 0.2511(7) 0.9447(8) 0.2123(15)
O1 O 0.3430(7) 0.8286(6) 0.8379(17)
O2 O 0.3915(7) 0.6609(6) 0.636(2)
O3 O 0.3248(6) 1.0281(6) 0.1121(16)
O4 O 0.1292(6) 0.8921(6) 0.1644(19)
O5 O 0.1270(7) 1.1746(6) 0.868(3)
O6 O 0.4310(8) 1.1288(6) 0.742(2)
N1 N 0.1336(7) 0.9483(7) 0.636(2)
H1 H 0.3549 1.0009 0.4544
H2 H 0.4086 0.8531 0.3816
H3 H 0.1587 0.7726 0.4777
H4 H 0.1174 1.0187 0.5647
H5 H 0.0489 0.9119 0.6667
H6 H 0.4365 1.2148 0.7202
H7 H 0.5038 1.1081 0.8117
H8 H 0.1287 1.2470 0.9338
H9 H 0.0405 1.1541 0.8297
Cu1_2 Cu 0.24241(11) 1.0069(2) -0.1388(4)
O3_2 O 0.3248(6) 1.0281(6) 1.1121(16)
O4_2 O 0.1292(6) 0.8921(6) 1.1644(19)
loop_
_geom_bond_atom_site_label_1
_geom_bond_atom_site_label_2
_geom_bond_site_symmetry_1
_geom_bond_site_symmetry_2
Cu1 O1 1_555 1_555
C1 C2 1_555 1_555
C2 C3 1_555 1_555
C3 C4 1_555 1_555
C4 O3 1_555 1_555
O1 C1 1_555 1_555
O2 C1 1_555 1_555
O3 Cu1_2 1_555 1_555
O4 C4 1_555 1_555
O5 Cu1 1_555 1_555
O6 Cu1 1_555 1_555
N1 Cu1 1_555 1_555
H1 C3 1_555 1_555
H2 C3 1_555 1_555
H3 C2 1_555 1_555
H4 N1 1_555 1_555
H5 N1 1_555 1_555
H6 O6 1_555 1_555
H7 O6 1_555 1_555
H8 O5 1_555 1_555
H9 O5 1_555 1_555
Cu1_2 O4 1_555 1_555
O3_2 Cu1 1_555 1_555
O4_2 Cu1 1_555 1_555
C2 N1 1_555 1_555

#END
