
#######################################################################
#
#                 Cambridge Crystallographic Data Centre
#                                CCDC 
#
#######################################################################
#
# If this CIF has been generated from an entry in the Cambridge 
# Structural Database, then it will include bibliographic, chemical, 
# crystal, experimental, refinement or atomic coordinate data resulting 
# from the CCDC's data processing and validation procedures.
#
#######################################################################

data_LEFJAH02
_symmetry_cell_setting           monoclinic
_symmetry_space_group_name_H-M   'C 2'
_symmetry_Int_Tables_number      5
_space_group_name_Hall           'C 2y'
loop_
_symmetry_equiv_pos_site_id
_symmetry_equiv_pos_as_xyz
1 x,y,z
2 1/2+x,1/2+y,z
3 -x,y,-z
4 1/2-x,1/2+y,-z
_cell_length_a                   9.4817(3)
_cell_length_b                   10.0118(3)
_cell_length_c                   7.5433(7)
_cell_angle_alpha                90
_cell_angle_beta                 93.856(4)
_cell_angle_gamma                90
_cell_volume                     714.456
loop_
_atom_site_label
_atom_site_type_symbol
_atom_site_fract_x
_atom_site_fract_y
_atom_site_fract_z
Cu1 Cu 0.23687(5) 1.00279(15) 0.87375(19)
C1 C 0.3215(5) 0.7814(4) 0.6847(10)
C2 C 0.2257(4) 0.8541(4) 0.5467(10)
C3 C 0.3137(5) 0.9156(5) 0.4096(11)
C4 C 0.2383(4) 0.9416(5) 0.2298(10)
O1 O 0.3301(4) 0.8297(4) 0.8439(11)
O2 O 0.3900(4) 0.6836(4) 0.6421(12)
O3 O 0.3073(3) 1.0113(5) 0.1250(10)
O4 O 0.1186(4) 0.8943(4) 0.1920(12)
O5 O 0.1281(4) 1.1683(4) 0.8768(14)
O6 O 0.4276(4) 1.1177(4) 0.7749(14)
N1 N 0.1450(4) 0.9591(4) 0.6364(14)
H1 H 0.4278 1.1986 0.8044
H2 H 0.5044 1.0833 0.8149
H3 H 0.1217 1.1941 0.9821
H4 H 0.0470 1.1485 0.8342
H5 H 0.3495 1.0003 0.4560
H6 H 0.3923 0.8560 0.3923
H7 H 0.1594 0.7901 0.4886
H8 H 0.1412 1.0299 0.5718
H9 H 0.0607 0.9306 0.6491
Cu1_2 Cu 0.23687(5) 1.00279(15) -0.12625(19)
O3_2 O 0.3073(3) 1.0113(5) 1.1250(10)
loop_
_geom_bond_atom_site_label_1
_geom_bond_atom_site_label_2
_geom_bond_site_symmetry_1
_geom_bond_site_symmetry_2
Cu1 O1 1_555 1_555
C1 C2 1_555 1_555
C2 C3 1_555 1_555
C3 C4 1_555 1_555
C4 O3 1_555 1_555
O1 C1 1_555 1_555
O2 C1 1_555 1_555
O3 Cu1_2 1_555 1_555
O4 C4 1_555 1_555
O5 Cu1 1_555 1_555
O6 Cu1 1_555 1_555
N1 Cu1 1_555 1_555
H1 O6 1_555 1_555
H2 O6 1_555 1_555
H3 O5 1_555 1_555
H4 O5 1_555 1_555
H5 C3 1_555 1_555
H6 C3 1_555 1_555
H7 C2 1_555 1_555
H8 N1 1_555 1_555
H9 N1 1_555 1_555
O3_2 Cu1 1_555 1_555
C2 N1 1_555 1_555

#END
