
#######################################################################
#
#                 Cambridge Crystallographic Data Centre
#                                CCDC 
#
#######################################################################
#
# If this CIF has been generated from an entry in the Cambridge 
# Structural Database, then it will include bibliographic, chemical, 
# crystal, experimental, refinement or atomic coordinate data resulting 
# from the CCDC's data processing and validation procedures.
#
#######################################################################

data_LEFJAH04
_symmetry_cell_setting           monoclinic
_symmetry_space_group_name_H-M   'C 2'
_symmetry_Int_Tables_number      5
_space_group_name_Hall           'C 2y'
loop_
_symmetry_equiv_pos_site_id
_symmetry_equiv_pos_as_xyz
1 x,y,z
2 1/2+x,1/2+y,z
3 -x,y,-z
4 1/2-x,1/2+y,-z
_cell_length_a                   9.2843(3)
_cell_length_b                   9.8358(4)
_cell_length_c                   7.4532(7)
_cell_angle_alpha                90
_cell_angle_beta                 93.071(5)
_cell_angle_gamma                90
_cell_volume                     679.638
loop_
_atom_site_label
_atom_site_type_symbol
_atom_site_fract_x
_atom_site_fract_y
_atom_site_fract_z
Cu1 Cu 0.23885(4) 1.00371(13) 0.8696(2)
C1 C 0.3222(4) 0.7773(4) 0.6839(11)
C2 C 0.2241(4) 0.8502(4) 0.5450(11)
C3 C 0.3161(4) 0.9145(4) 0.4052(11)
C4 C 0.2419(4) 0.9417(5) 0.2217(10)
O1 O 0.3344(3) 0.8279(4) 0.8448(12)
O2 O 0.3903(3) 0.6752(3) 0.6416(12)
O3 O 0.3132(3) 1.0157(4) 0.1180(10)
O4 O 0.1210(3) 0.8924(3) 0.1800(11)
O5 O 0.1266(3) 1.1693(3) 0.8772(13)
O6 O 0.4290(3) 1.1187(3) 0.7629(14)
N1 N 0.1417(3) 0.9561(4) 0.6411(14)
H1 H 0.3517 1.0006 0.4533
H2 H 0.3974 0.8541 0.3888
H3 H 0.1572 0.7850 0.4867
H4 H 0.1335 1.0275 0.5747
H5 H 0.0572 0.9248 0.6596
H6 H 0.4198 1.1993 0.7982
H7 H 0.5134 1.0931 0.7929
H8 H 0.1374 1.2403 0.9381
H9 H 0.0404 1.1645 0.8399
Cu1_2 Cu 0.23885(4) 1.00371(13) -0.1304(2)
O3_2 O 0.3132(3) 1.0157(4) 1.1180(10)
O4_2 O 0.1210(3) 0.8924(3) 1.1800(11)
loop_
_geom_bond_atom_site_label_1
_geom_bond_atom_site_label_2
_geom_bond_site_symmetry_1
_geom_bond_site_symmetry_2
Cu1 O1 1_555 1_555
C1 C2 1_555 1_555
C2 C3 1_555 1_555
C3 C4 1_555 1_555
C4 O3 1_555 1_555
O1 C1 1_555 1_555
O2 C1 1_555 1_555
O3 Cu1_2 1_555 1_555
O4 C4 1_555 1_555
O5 Cu1 1_555 1_555
O6 Cu1 1_555 1_555
N1 Cu1 1_555 1_555
H1 C3 1_555 1_555
H2 C3 1_555 1_555
H3 C2 1_555 1_555
H4 N1 1_555 1_555
H5 N1 1_555 1_555
H6 O6 1_555 1_555
H7 O6 1_555 1_555
H8 O5 1_555 1_555
H9 O5 1_555 1_555
Cu1_2 O4 1_555 1_555
O3_2 Cu1 1_555 1_555
O4_2 Cu1 1_555 1_555
C2 N1 1_555 1_555

#END
