
#######################################################################
#
#                 Cambridge Crystallographic Data Centre
#                                CCDC 
#
#######################################################################
#
# If this CIF has been generated from an entry in the Cambridge 
# Structural Database, then it will include bibliographic, chemical, 
# crystal, experimental, refinement or atomic coordinate data resulting 
# from the CCDC's data processing and validation procedures.
#
#######################################################################

data_LEFJAH06
_symmetry_cell_setting           monoclinic
_symmetry_space_group_name_H-M   'C 2'
_symmetry_Int_Tables_number      5
_space_group_name_Hall           'C 2y'
loop_
_symmetry_equiv_pos_site_id
_symmetry_equiv_pos_as_xyz
1 x,y,z
2 1/2+x,1/2+y,z
3 -x,y,-z
4 1/2-x,1/2+y,-z
_cell_length_a                   9.0447(5)
_cell_length_b                   9.6337(7)
_cell_length_c                   7.3016(14)
_cell_angle_alpha                90
_cell_angle_beta                 91.765(10)
_cell_angle_gamma                90
_cell_volume                     635.915
loop_
_atom_site_label
_atom_site_type_symbol
_atom_site_fract_x
_atom_site_fract_y
_atom_site_fract_z
Cu1 Cu 0.24128(6) 1.00711(14) 0.8642(2)
C1 C 0.3236(5) 0.7724(4) 0.6821(10)
C2 C 0.2237(5) 0.8457(4) 0.5422(11)
C3 C 0.3200(5) 0.9154(5) 0.4027(11)
C4 C 0.2473(5) 0.9453(5) 0.2156(10)
O1 O 0.3403(4) 0.8296(4) 0.8405(11)
O2 O 0.3913(4) 0.6666(3) 0.6374(12)
O3 O 0.3210(3) 1.0242(4) 0.1115(10)
O4 O 0.1255(4) 0.8930(4) 0.1691(12)
O5 O 0.1267(4) 1.1742(4) 0.8709(13)
O6 O 0.4303(4) 1.1261(4) 0.7484(13)
N1 N 0.1359(4) 0.9528(4) 0.6383(14)
H1 H 0.3530 1.0033 0.4544
H2 H 0.4049 0.8562 0.3841
H3 H 0.1576 0.7785 0.4801
H4 H 0.1242 1.0240 0.5682
H5 H 0.0511 0.9189 0.6633
H6 H 0.4141 1.1947 0.8154
H7 H 0.5119 1.0978 0.7919
H8 H 0.1428 1.2452 0.9349
H9 H 0.0381 1.1781 0.8341
Cu1_2 Cu 0.24128(6) 1.00711(14) -0.1358(2)
O3_2 O 0.3210(3) 1.0242(4) 1.1115(10)
O4_2 O 0.1255(4) 0.8930(4) 1.1691(12)
loop_
_geom_bond_atom_site_label_1
_geom_bond_atom_site_label_2
_geom_bond_site_symmetry_1
_geom_bond_site_symmetry_2
Cu1 O1 1_555 1_555
C1 C2 1_555 1_555
C2 C3 1_555 1_555
C3 C4 1_555 1_555
C4 O3 1_555 1_555
O1 C1 1_555 1_555
O2 C1 1_555 1_555
O3 Cu1_2 1_555 1_555
O4 C4 1_555 1_555
O5 Cu1 1_555 1_555
O6 Cu1 1_555 1_555
N1 Cu1 1_555 1_555
H1 C3 1_555 1_555
H2 C3 1_555 1_555
H3 C2 1_555 1_555
H4 N1 1_555 1_555
H5 N1 1_555 1_555
H6 O6 1_555 1_555
H7 O6 1_555 1_555
H8 O5 1_555 1_555
H9 O5 1_555 1_555
Cu1_2 O4 1_555 1_555
O3_2 Cu1 1_555 1_555
O4_2 Cu1 1_555 1_555
C2 N1 1_555 1_555

#END
