
#######################################################################
#
#                 Cambridge Crystallographic Data Centre
#                                CCDC 
#
#######################################################################
#
# If this CIF has been generated from an entry in the Cambridge 
# Structural Database, then it will include bibliographic, chemical, 
# crystal, experimental, refinement or atomic coordinate data resulting 
# from the CCDC's data processing and validation procedures.
#
#######################################################################

data_LEFJAH03
_symmetry_cell_setting           monoclinic
_symmetry_space_group_name_H-M   'C 2'
_symmetry_Int_Tables_number      5
_space_group_name_Hall           'C 2y'
loop_
_symmetry_equiv_pos_site_id
_symmetry_equiv_pos_as_xyz
1 x,y,z
2 1/2+x,1/2+y,z
3 -x,y,-z
4 1/2-x,1/2+y,-z
_cell_length_a                   9.3964(3)
_cell_length_b                   9.9334(4)
_cell_length_c                   7.5076(9)
_cell_angle_alpha                90
_cell_angle_beta                 93.536(6)
_cell_angle_gamma                90
_cell_volume                     699.412
loop_
_atom_site_label
_atom_site_type_symbol
_atom_site_fract_x
_atom_site_fract_y
_atom_site_fract_z
Cu1 Cu 0.23773(4) 1.00347(13) 0.87110(17)
C1 C 0.3222(4) 0.7808(4) 0.6852(9)
C2 C 0.2252(3) 0.8527(4) 0.5484(10)
C3 C 0.3152(4) 0.9151(3) 0.4089(11)
C4 C 0.2390(3) 0.9421(5) 0.2281(10)
O1 O 0.3311(3) 0.8283(3) 0.8453(11)
O2 O 0.3896(2) 0.6799(3) 0.6421(10)
O3 O 0.3099(2) 1.0138(4) 0.1246(10)
O4 O 0.1193(2) 0.8936(3) 0.1851(10)
O5 O 0.1277(3) 1.1681(3) 0.8761(11)
O6 O 0.4268(3) 1.1182(3) 0.7691(13)
N1 N 0.1430(3) 0.9581(3) 0.6406(13)
H1 H 0.3517 1.0021 0.4640
H2 H 0.4006 0.8577 0.4023
H3 H 0.1627 0.7871 0.4920
H4 H 0.1392 1.0282 0.5698
H5 H 0.0585 0.9285 0.6496
H6 H 0.4279 1.2018 0.7843
H7 H 0.5055 1.0874 0.8104
H8 H 0.1304 1.1914 0.9838
H9 H 0.0420 1.1597 0.8398
Cu1_2 Cu 0.23773(4) 1.00347(13) -0.12890(17)
O3_2 O 0.3099(2) 1.0138(4) 1.1246(10)
O4_2 O 0.1193(2) 0.8936(3) 1.1851(10)
loop_
_geom_bond_atom_site_label_1
_geom_bond_atom_site_label_2
_geom_bond_site_symmetry_1
_geom_bond_site_symmetry_2
Cu1 O1 1_555 1_555
C1 C2 1_555 1_555
C2 C3 1_555 1_555
C3 C4 1_555 1_555
C4 O3 1_555 1_555
O1 C1 1_555 1_555
O2 C1 1_555 1_555
O3 Cu1_2 1_555 1_555
O4 C4 1_555 1_555
O5 Cu1 1_555 1_555
O6 Cu1 1_555 1_555
N1 Cu1 1_555 1_555
H1 C3 1_555 1_555
H2 C3 1_555 1_555
H3 C2 1_555 1_555
H4 N1 1_555 1_555
H5 N1 1_555 1_555
H6 O6 1_555 1_555
H7 O6 1_555 1_555
H8 O5 1_555 1_555
H9 O5 1_555 1_555
Cu1_2 O4 1_555 1_555
O3_2 Cu1 1_555 1_555
O4_2 Cu1 1_555 1_555
C2 N1 1_555 1_555

#END
