
#######################################################################
#
#                 Cambridge Crystallographic Data Centre
#                                CCDC 
#
#######################################################################
#
# If this CIF has been generated from an entry in the Cambridge 
# Structural Database, then it will include bibliographic, chemical, 
# crystal, experimental, refinement or atomic coordinate data resulting 
# from the CCDC's data processing and validation procedures.
#
#######################################################################

data_LEFXAW
_symmetry_cell_setting           triclinic
_symmetry_space_group_name_H-M   'P -1'
_symmetry_Int_Tables_number      2
_space_group_name_Hall           '-P 1'
loop_
_symmetry_equiv_pos_site_id
_symmetry_equiv_pos_as_xyz
1 x,y,z
2 -x,-y,-z
_cell_length_a                   10.2959(2)
_cell_length_b                   10.4928(2)
_cell_length_c                   18.2320(3)
_cell_angle_alpha                93.4481(6)
_cell_angle_beta                 94.2305(6)
_cell_angle_gamma                102.2943(7)
_cell_volume                     1913.42
loop_
_atom_site_label
_atom_site_type_symbol
_atom_site_fract_x
_atom_site_fract_y
_atom_site_fract_z
Co1 Co 0.5000 1.0000 0.0000
Co2 Co 0.75305(7) 0.32018(6) 0.27653(4)
O1 O 0.6490(4) 0.3994(3) 0.1993(2)
O2 O 0.9358(4) 0.4034(3) 0.2474(2)
N1 N 0.7501(4) 1.1543(4) 0.1999(2)
O3 O 0.3889(4) 0.8197(3) 0.0191(2)
N2 N 0.6294(4) 1.0146(4) 0.1001(2)
O4 O 0.3696(4) 1.0843(4) 0.0544(2)
O5 O 0.8374(4) 0.2337(4) 0.3588(2)
O6 O 0.7408(4) 0.4722(4) 0.3511(2)
C1 C 0.8168(5) 1.0621(5) 0.2157(3)
C2 C 0.9078(5) 0.6223(5) 0.1791(3)
C3 C 0.7895(5) 0.9386(4) 0.1781(3)
C4 C 0.6585(5) 1.1263(5) 0.1424(3)
C5 C 0.6922(5) 0.9204(4) 0.1194(3)
N3 N 1.0033(4) 0.5154(4) 0.2764(3)
O7 O 0.5697(5) 0.2164(4) 0.3040(3)
C6 C 0.9601(5) 0.6268(4) 0.2521(3)
C7 C 0.8551(5) 0.8338(4) 0.2021(3)
C8 C 0.9093(6) 0.8365(5) 0.2743(3)
C9 C 0.2721(6) 0.8007(5) 0.0363(3)
C10 C 0.5891(5) 0.4897(5) 0.2125(3)
C11 C 0.9624(6) 0.7354(5) 0.2992(3)
C12 C 0.8576(5) 0.7247(5) 0.1543(3)
C13 C 0.2569(6) 1.0252(6) 0.0685(4)
F1 F 0.7640(7) 0.6782(8) 0.4480(4)
C14 C 0.6658(6) 0.5500(6) 0.3412(3)
F2 F 0.3997(9) 0.4432(9) 0.1343(6)
F3 F 0.0521(8) 1.0616(7) 0.1058(7)
C15 C 0.5908(6) 0.5645(6) 0.2774(4)
C16 C 0.7809(8) 0.1564(6) 0.4011(4)
F4 F 0.2633(7) 0.5771(5) 0.0032(4)
C17 C 0.1695(10) 1.1174(8) 0.0954(7)
C18 C 1.0784(9) 0.5167(8) 0.4081(4)
C19 C 0.5018(8) 0.5157(7) 0.1466(4)
C20 C 0.1957(8) 0.6577(7) 0.0261(5)
C21 C 1.1240(6) 0.5173(6) 0.3296(4)
C22 C 0.8848(14) 0.1138(8) 0.4550(4)
C23 C 0.6559(9) 0.6360(8) 0.4101(5)
F5 F 0.9428(15) 0.1934(8) 0.4964(6)
F6 F 0.0854(8) 0.6440(5) -0.0078(7)
F7 F 0.5743(13) 0.5825(10) 0.4499(6)
C24 C 0.2021(7) 0.8920(7) 0.0603(4)
C25 C 1.1739(9) 0.3945(8) 0.3087(6)
F8 F 0.1636(8) 1.2087(8) 0.0505(5)
F9 F 0.9364(13) 0.0396(12) 0.4300(4)
C26 C 1.2294(7) 0.6378(8) 0.3197(6)
F10 F 0.1663(8) 0.6124(5) 0.0901(4)
C27 C 0.5512(8) 0.1391(9) 0.3529(5)
C28 C 0.6474(10) 0.1066(10) 0.4018(6)
F11 F 0.5605(9) 0.5286(13) 0.0900(4)
F12 F 0.6142(11) 0.7397(9) 0.3968(4)
F13 F 0.2249(9) 1.1841(8) 0.1550(5)
F14 F 0.8257(12) 0.045(2) 0.5032(10)
F15 F 0.3443(18) 0.044(3) 0.3008(13)
C29 C 0.4069(15) 0.060(3) 0.3512(18)
F16 F 0.3815(9) -0.0219(12) 0.3925(9)
F17 F 0.4795(9) 0.6343(7) 0.1509(4)
F18 F 0.3442(18) 0.1484(19) 0.374(2)
H1 H 0.8850 1.0813 0.2537
H2 H 0.9068 0.5497 0.1470
H3 H 0.6112 1.1898 0.1310
H4 H 0.6696 0.8396 0.0923
H5 H 0.9098 0.9085 0.3067
H6 H 0.9997 0.7403 0.3476
H7 H 0.8249 0.7217 0.1052
H8 H 0.5394 0.6274 0.2784
H9 H 1.0453 0.5940 0.4189
H10 H 1.1526 0.5152 0.4429
H11 H 1.0089 0.4407 0.4113
H12 H 0.1145 0.8626 0.0713
H13 H 1.1078 0.3185 0.3171
H14 H 1.2552 0.3952 0.3382
H15 H 1.1902 0.3923 0.2575
H16 H 1.1971 0.7146 0.3330
H17 H 1.2494 0.6380 0.2691
H18 H 1.3088 0.6374 0.3507
H19 H 0.6191 0.0480 0.4366
Co2A Co 0.24695(7) 1.67982(6) -0.27653(4)
Co2_2 Co 0.75305(7) 1.32018(6) 0.27653(4)
Co2A_2 Co 0.24695(7) 0.67982(6) -0.27653(4)
O1A O 0.3510(4) 1.6006(3) -0.1993(2)
O2A O 0.0642(4) 1.5966(3) -0.2474(2)
N1A N 0.2499(4) 0.8457(4) -0.1999(2)
N1_2 N 0.7501(4) 0.1543(4) 0.1999(2)
N1A_2 N 0.2499(4) 1.8457(4) -0.1999(2)
O3A O 0.6111(4) 1.1803(3) -0.0191(2)
N2A N 0.3706(4) 0.9854(4) -0.1001(2)
O4A O 0.6304(4) 0.9157(4) -0.0544(2)
O5A O 0.1626(4) 1.7663(4) -0.3588(2)
O6A O 0.2592(4) 1.5278(4) -0.3511(2)
C1A C 0.1832(5) 0.9379(5) -0.2157(3)
C2A C 0.0922(5) 1.3777(5) -0.1791(3)
C3A C 0.2105(5) 1.0614(4) -0.1781(3)
C4A C 0.3415(5) 0.8737(5) -0.1424(3)
C5A C 0.3078(5) 1.0796(4) -0.1194(3)
N3A N -0.0033(4) 1.4846(4) -0.2764(3)
O7A O 0.4303(5) 1.7836(4) -0.3040(3)
C6A C 0.0399(5) 1.3732(4) -0.2521(3)
C7A C 0.1449(5) 1.1662(4) -0.2021(3)
C8A C 0.0907(6) 1.1635(5) -0.2743(3)
C9A C 0.7279(6) 1.1993(5) -0.0363(3)
C10A C 0.4109(5) 1.5103(5) -0.2125(3)
C11A C 0.0376(6) 1.2646(5) -0.2992(3)
C12A C 0.1424(5) 1.2753(5) -0.1543(3)
C13A C 0.7431(6) 0.9748(6) -0.0685(4)
F1A F 0.2360(7) 1.3218(8) -0.4480(4)
C14A C 0.3342(6) 1.4500(6) -0.3412(3)
F2A F 0.6003(9) 1.5568(9) -0.1343(6)
F3A F 0.9479(8) 0.9384(7) -0.1058(7)
C15A C 0.4092(6) 1.4355(6) -0.2774(4)
C16A C 0.2191(8) 1.8436(6) -0.4011(4)
F4A F 0.7367(7) 1.4229(5) -0.0032(4)
C17A C 0.8305(10) 0.8826(8) -0.0954(7)
C18A C -0.0784(9) 1.4833(8) -0.4081(4)
C19A C 0.4982(8) 1.4843(7) -0.1466(4)
C20A C 0.8043(8) 1.3423(7) -0.0261(5)
C21A C -0.1240(6) 1.4827(6) -0.3296(4)
C22A C 0.1152(14) 1.8862(8) -0.4550(4)
C23A C 0.3441(9) 1.3640(8) -0.4101(5)
F5A F 0.0572(15) 1.8066(8) -0.4964(6)
F6A F 0.9146(8) 1.3560(5) 0.0078(7)
F7A F 0.4257(13) 1.4175(10) -0.4499(6)
C24A C 0.7979(7) 1.1080(7) -0.0603(4)
C25A C -0.1739(9) 1.6055(8) -0.3087(6)
F8A F 0.8364(8) 0.7913(8) -0.0505(5)
F9A F 0.0636(13) 1.9604(12) -0.4300(4)
C26A C -0.2294(7) 1.3622(8) -0.3197(6)
F10A F 0.8337(8) 1.3876(5) -0.0901(4)
C27A C 0.4488(8) 1.8609(9) -0.3529(5)
C28A C 0.3526(10) 1.8934(10) -0.4018(6)
F11A F 0.4395(9) 1.4714(13) -0.0900(4)
F12A F 0.3858(11) 1.2603(9) -0.3968(4)
F13A F 0.7751(9) 0.8159(8) -0.1550(5)
F14A F 0.1743(12) 1.955(2) -0.5032(10)
F15A F 0.6557(18) 1.956(3) -0.3008(13)
C29A C 0.5931(15) 1.940(3) -0.3512(18)
F16A F 0.6185(9) 2.0219(12) -0.3925(9)
F17A F 0.5205(9) 1.3657(7) -0.1509(4)
F18A F 0.6558(18) 1.8516(19) -0.374(2)
H1A H 0.1150 0.9187 -0.2537
H2A H 0.0932 1.4503 -0.1470
H3A H 0.3888 0.8102 -0.1310
H4A H 0.3304 1.1604 -0.0923
H5A H 0.0902 1.0915 -0.3067
H6A H 0.0003 1.2597 -0.3476
H7A H 0.1751 1.2783 -0.1052
H8A H 0.4606 1.3726 -0.2784
H9A H -0.0453 1.4060 -0.4189
H10A H -0.1526 1.4848 -0.4429
H11A H -0.0089 1.5593 -0.4113
H12A H 0.8855 1.1374 -0.0713
H13A H -0.1078 1.6815 -0.3171
H14A H -0.2552 1.6048 -0.3382
H15A H -0.1902 1.6077 -0.2575
H16A H -0.1971 1.2854 -0.3330
H17A H -0.2494 1.3620 -0.2691
H18A H -0.3088 1.3626 -0.3507
H19A H 0.3809 1.9520 -0.4366
loop_
_geom_bond_atom_site_label_1
_geom_bond_atom_site_label_2
_geom_bond_site_symmetry_1
_geom_bond_site_symmetry_2
Co1 O3 1_555 1_555
Co2 O1 1_555 1_555
O1 C10 1_555 1_555
O2 Co2 1_555 1_555
N1 C1 1_555 1_555
O3 C9 1_555 1_555
N2 Co1 1_555 1_555
O4 Co1 1_555 1_555
O5 Co2 1_555 1_555
O6 Co2 1_555 1_555
C1 C3 1_555 1_555
C2 C6 1_555 1_555
C3 C5 1_555 1_555
C4 N1 1_555 1_555
C5 N2 1_555 1_555
N3 O2 1_555 1_555
O7 Co2 1_555 1_555
C6 N3 1_555 1_555
C7 C3 1_555 1_555
C8 C7 1_555 1_555
C9 C20 1_555 1_555
C10 C15 1_555 1_555
C11 C6 1_555 1_555
C12 C2 1_555 1_555
C13 O4 1_555 1_555
F1 C23 1_555 1_555
C14 O6 1_555 1_555
F2 C19 1_555 1_555
F3 C17 1_555 1_555
C15 C14 1_555 1_555
C16 O5 1_555 1_555
F4 C20 1_555 1_555
C17 C13 1_555 1_555
C18 C21 1_555 1_555
C19 C10 1_555 1_555
C20 F6 1_555 1_555
C21 N3 1_555 1_555
C22 C16 1_555 1_555
C23 C14 1_555 1_555
F5 C22 1_555 1_555
F7 C23 1_555 1_555
C24 C9 1_555 1_555
C25 C21 1_555 1_555
F8 C17 1_555 1_555
F9 C22 1_555 1_555
C26 C21 1_555 1_555
F10 C20 1_555 1_555
C27 O7 1_555 1_555
C28 C16 1_555 1_555
F11 C19 1_555 1_555
F12 C23 1_555 1_555
F13 C17 1_555 1_555
F14 C22 1_555 1_555
F15 C29 1_555 1_555
C29 C27 1_555 1_555
F16 C29 1_555 1_555
F17 C19 1_555 1_555
F18 C29 1_555 1_555
H1 C1 1_555 1_555
H2 C2 1_555 1_555
H3 C4 1_555 1_555
H4 C5 1_555 1_555
H5 C8 1_555 1_555
H6 C11 1_555 1_555
H7 C12 1_555 1_555
H8 C15 1_555 1_555
H9 C18 1_555 1_555
H10 C18 1_555 1_555
H11 C18 1_555 1_555
H12 C24 1_555 1_555
H13 C25 1_555 1_555
H14 C25 1_555 1_555
H15 C25 1_555 1_555
H16 C26 1_555 1_555
H17 C26 1_555 1_555
H18 C26 1_555 1_555
H19 C28 1_555 1_555
Co2A O1A 1_555 1_555
Co2_2 N1 1_555 1_555
Co2A_2 N1A 1_555 1_555
O1A C10A 1_555 1_555
O2A Co2A 1_555 1_555
N1A C1A 1_555 1_555
N1_2 Co2 1_555 1_555
N1A_2 Co2A 1_555 1_555
O3A Co1 1_555 1_555
N2A Co1 1_555 1_555
O4A Co1 1_555 1_555
O5A Co2A 1_555 1_555
O6A Co2A 1_555 1_555
C1A C3A 1_555 1_555
C2A C6A 1_555 1_555
C3A C5A 1_555 1_555
C4A N1A 1_555 1_555
C5A N2A 1_555 1_555
N3A O2A 1_555 1_555
O7A Co2A 1_555 1_555
C6A N3A 1_555 1_555
C7A C3A 1_555 1_555
C8A C7A 1_555 1_555
C9A O3A 1_555 1_555
C10A C15A 1_555 1_555
C11A C6A 1_555 1_555
C12A C2A 1_555 1_555
C13A O4A 1_555 1_555
F1A C23A 1_555 1_555
C14A O6A 1_555 1_555
F2A C19A 1_555 1_555
F3A C17A 1_555 1_555
C15A C14A 1_555 1_555
C16A O5A 1_555 1_555
F4A C20A 1_555 1_555
C17A C13A 1_555 1_555
C18A C21A 1_555 1_555
C19A C10A 1_555 1_555
C20A C9A 1_555 1_555
C21A N3A 1_555 1_555
C22A C16A 1_555 1_555
C23A C14A 1_555 1_555
F5A C22A 1_555 1_555
F6A C20A 1_555 1_555
F7A C23A 1_555 1_555
C24A C9A 1_555 1_555
C25A C21A 1_555 1_555
F8A C17A 1_555 1_555
F9A C22A 1_555 1_555
C26A C21A 1_555 1_555
F10A C20A 1_555 1_555
C27A O7A 1_555 1_555
C28A C16A 1_555 1_555
F11A C19A 1_555 1_555
F12A C23A 1_555 1_555
F13A C17A 1_555 1_555
F14A C22A 1_555 1_555
F15A C29A 1_555 1_555
C29A C27A 1_555 1_555
F16A C29A 1_555 1_555
F17A C19A 1_555 1_555
F18A C29A 1_555 1_555
H1A C1A 1_555 1_555
H2A C2A 1_555 1_555
H3A C4A 1_555 1_555
H4A C5A 1_555 1_555
H5A C8A 1_555 1_555
H6A C11A 1_555 1_555
H7A C12A 1_555 1_555
H8A C15A 1_555 1_555
H9A C18A 1_555 1_555
H10A C18A 1_555 1_555
H11A C18A 1_555 1_555
H12A C24A 1_555 1_555
H13A C25A 1_555 1_555
H14A C25A 1_555 1_555
H15A C25A 1_555 1_555
H16A C26A 1_555 1_555
H17A C26A 1_555 1_555
H18A C26A 1_555 1_555
H19A C28A 1_555 1_555
N2 C4 1_555 1_555
C7 C12 1_555 1_555
C8 C11 1_555 1_555
C13 C24 1_555 1_555
C27 C28 1_555 1_555
N2A C4A 1_555 1_555
C7A C12A 1_555 1_555
C8A C11A 1_555 1_555
C13A C24A 1_555 1_555
C27A C28A 1_555 1_555

#END
