
#######################################################################
#
#                 Cambridge Crystallographic Data Centre
#                                CCDC 
#
#######################################################################
#
# If this CIF has been generated from an entry in the Cambridge 
# Structural Database, then it will include bibliographic, chemical, 
# crystal, experimental, refinement or atomic coordinate data resulting 
# from the CCDC's data processing and validation procedures.
#
#######################################################################

data_LEGJEN
_symmetry_cell_setting           monoclinic
_symmetry_space_group_name_H-M   'P 21/c'
_symmetry_Int_Tables_number      14
_space_group_name_Hall           '-P 2ybc'
loop_
_symmetry_equiv_pos_site_id
_symmetry_equiv_pos_as_xyz
1 x,y,z
2 -x,1/2+y,1/2-z
3 -x,-y,-z
4 x,1/2-y,1/2+z
_cell_length_a                   12.2831(4)
_cell_length_b                   6.36800(10)
_cell_length_c                   10.2245(3)
_cell_angle_alpha                90
_cell_angle_beta                 105.0640(10)
_cell_angle_gamma                90
_cell_volume                     772.265
loop_
_atom_site_label
_atom_site_type_symbol
_atom_site_fract_x
_atom_site_fract_y
_atom_site_fract_z
Mn1 Mn 0.0000 0.0000 0.5000
N1 N 0.14076(10) -0.23529(17) 0.54178(12)
N2 N 0.21923(12) -0.24501(19) 0.46531(14)
N3 N 0.26910(10) -0.45766(18) 0.63574(13)
N4 N 0.33002(10) -0.6052(2) 0.72334(13)
N5 N 0.40495(16) -0.9028(3) 0.8022(2)
N6 N 0.44593(15) -0.7450(3) 0.89725(18)
N7 N 0.10680(13) 0.2217(2) 0.41813(15)
N8 N 0.08742(10) 0.29893(17) 0.31065(13)
N9 N 0.07072(14) 0.3779(2) 0.20585(15)
C1 C 0.29505(13) -0.3800(2) 0.52461(16)
H1 H 0.3579 -0.4176 0.4951
C2 C 0.17197(12) -0.3645(2) 0.64281(15)
H2 H 0.1339 -0.3888 0.7089
C3 C 0.33528(16) -0.8146(3) 0.7006(2)
H3 H 0.2947 -0.8841 0.6232
C4 C 0.40167(16) -0.5689(4) 0.84633(19)
H4 H 0.4167 -0.4382 0.8877
Mn1C Mn 0.0000 0.5000 0.0000
Mn1C_2 Mn 0.0000 -0.5000 1.0000
N1B N -0.14076(10) 0.23529(17) 0.45822(12)
N2B N -0.21923(12) 0.24501(19) 0.53469(14)
N3B N -0.26910(10) 0.45766(18) 0.36426(13)
N4B N -0.33002(10) 0.6052(2) 0.27666(13)
N5B N -0.40495(16) 0.9028(3) 0.1978(2)
N6B N -0.44593(15) 0.7450(3) 0.10275(18)
N7B N -0.10680(13) -0.2217(2) 0.58187(15)
N8B N -0.08742(10) -0.29893(17) 0.68935(13)
N9B N -0.07072(14) -0.3779(2) 0.79415(15)
N9C N 0.07072(14) 0.1221(2) 0.70585(15)
N9A N -0.07072(14) -0.1221(2) 0.29415(15)
C1B C -0.29505(13) 0.3800(2) 0.47539(16)
H1B H -0.3579 0.4176 0.5049
C2B C -0.17197(12) 0.3645(2) 0.35719(15)
H2B H -0.1339 0.3888 0.2911
C3B C -0.33528(16) 0.8146(3) 0.2994(2)
H3B H -0.2947 0.8841 0.3768
C4B C -0.40167(16) 0.5689(4) 0.15367(19)
H4B H -0.4167 0.4382 0.1123
loop_
_geom_bond_atom_site_label_1
_geom_bond_atom_site_label_2
_geom_bond_site_symmetry_1
_geom_bond_site_symmetry_2
Mn1 N1 1_555 1_555
N1 N2 1_555 1_555
N2 C1 1_555 1_555
N3 N4 1_555 1_555
N4 C3 1_555 1_555
N5 N6 1_555 1_555
N6 C4 1_555 1_555
N7 Mn1 1_555 1_555
N8 N7 1_555 1_555
N9 N8 1_555 1_555
C1 N3 1_555 1_555
H1 C1 1_555 1_555
C2 N1 1_555 1_555
H2 C2 1_555 1_555
C3 N5 1_555 1_555
H3 C3 1_555 1_555
C4 N4 1_555 1_555
H4 C4 1_555 1_555
Mn1C N9 1_555 1_555
Mn1C_2 N9B 1_555 1_555
N1B Mn1 1_555 1_555
N2B N1B 1_555 1_555
N3B N4B 1_555 1_555
N4B C3B 1_555 1_555
N5B N6B 1_555 1_555
N6B C4B 1_555 1_555
N7B Mn1 1_555 1_555
N8B N7B 1_555 1_555
N9B N8B 1_555 1_555
N9C Mn1 1_555 1_555
N9A Mn1 1_555 1_555
C1B N2B 1_555 1_555
H1B C1B 1_555 1_555
C2B N1B 1_555 1_555
H2B C2B 1_555 1_555
C3B N5B 1_555 1_555
H3B C3B 1_555 1_555
C4B N4B 1_555 1_555
H4B C4B 1_555 1_555
N3 C2 1_555 1_555
N3B C1B 1_555 1_555
N3B C2B 1_555 1_555

#END
