
#######################################################################
#
#                 Cambridge Crystallographic Data Centre
#                                CCDC 
#
#######################################################################
#
# If this CIF has been generated from an entry in the Cambridge 
# Structural Database, then it will include bibliographic, chemical, 
# crystal, experimental, refinement or atomic coordinate data resulting 
# from the CCDC's data processing and validation procedures.
#
#######################################################################

data_LEGLAK
_symmetry_cell_setting           monoclinic
_symmetry_space_group_name_H-M   'P 21/c'
_symmetry_Int_Tables_number      14
_space_group_name_Hall           '-P 2ybc'
loop_
_symmetry_equiv_pos_site_id
_symmetry_equiv_pos_as_xyz
1 x,y,z
2 -x,1/2+y,1/2-z
3 -x,-y,-z
4 x,1/2-y,1/2+z
_cell_length_a                   12.846(2)
_cell_length_b                   17.390(5)
_cell_length_c                   17.174(5)
_cell_angle_alpha                90
_cell_angle_beta                 110.53(2)
_cell_angle_gamma                90
_cell_volume                     3592.87
loop_
_atom_site_label
_atom_site_type_symbol
_atom_site_fract_x
_atom_site_fract_y
_atom_site_fract_z
Ce1 Ce 0.06470(3) 0.06121(2) 0.26726(2)
S1 S -0.0918(1) -0.1212(1) 0.2351(1)
S2 S -0.0110(1) 0.2427(1) 0.3691(1)
S3 S -0.1179(1) -0.5260(1) 0.0220(1)
O1 O -0.0832(4) 0.1184(3) 0.1596(3)
O2 O 0.2032(4) -0.0314(3) 0.2694(3)
O3 O 0.2013(4) 0.1488(3) 0.2536(3)
O4 O 0.0418(4) 0.1765(3) 0.3411(3)
O5 O -0.0449(4) -0.0540(3) 0.2044(3)
O6 O -0.0618(4) -0.5113(3) 0.1139(3)
O7 O -0.1377(4) 0.0633(3) 0.2855(3)
O8 O -0.3095(4) 0.0520(3) 0.2696(3)
O9 O -0.5979(5) 0.1503(4) 0.0418(4)
O10 O -0.5638(5) 0.2096(4) -0.0567(4)
O11 O -0.0790(5) 0.2240(4) 0.0392(4)
O12 O -0.1752(5) 0.1555(4) -0.0654(4)
O13 O 0.1069(4) 0.0370(4) 0.1241(3)
O14 O 0.1922(6) 0.0347(5) 0.0377(4)
O15 O 0.5644(5) -0.0433(4) 0.1052(4)
O16 O 0.6433(5) -0.1109(4) 0.2167(5)
O17 O 0.3423(8) -0.0847(6) 0.4124(5)
O18 O 0.4215(9) -0.1805(5) 0.3840(5)
O19 O 0.2475(4) 0.0864(3) 0.4029(3)
O20 O 0.4110(6) 0.0861(7) 0.4848(5)
O21 O 0.6887(4) 0.2246(4) 0.2950(4)
O22 O 0.7173(4) 0.1678(4) 0.4128(4)
O23 O 0.3217(6) 0.2858(4) 0.1171(5)
O24 O 0.1897(7) 0.2313(7) 0.1281(6)
N1 N -0.2360(4) 0.0724(3) 0.2437(3)
N2 N -0.5346(5) 0.1735(4) 0.0090(5)
N3 N -0.1563(5) 0.1816(4) 0.0042(4)
N4 N 0.1901(5) 0.0227(4) 0.1068(4)
N5 N 0.5670(5) -0.0726(4) 0.1712(5)
N6 N 0.3808(6) -0.1195(5) 0.3689(4)
N7 N 0.3439(5) 0.0982(4) 0.4166(4)
N8 N 0.6554(5) 0.1917(4) 0.3448(4)
N9 N 0.2832(5) 0.2441(5) 0.1536(4)
C1 C -0.1852(5) 0.1284(4) 0.1277(4)
C2 C -0.2674(5) 0.1085(4) 0.1630(4)
C3 C -0.3814(5) 0.1224(4) 0.1250(4)
C4 C -0.4178(6) 0.1558(4) 0.0475(4)
C5 C -0.3441(6) 0.1748(4) 0.0069(4)
C6 C -0.2336(5) 0.1616(4) 0.0461(4)
C7 C 0.2825(6) -0.0405(4) 0.2438(4)
C8 C 0.2864(6) -0.0125(4) 0.1667(4)
C9 C 0.3787(6) -0.0217(5) 0.1433(5)
C10 C 0.4710(6) -0.0608(5) 0.1961(5)
C11 C 0.4723(6) -0.0921(5) 0.2702(5)
C12 C 0.3799(6) -0.0820(4) 0.2917(5)
C13 C 0.3032(5) 0.1610(4) 0.2768(4)
C14 C 0.3826(6) 0.1326(4) 0.3538(4)
C15 C 0.4978(6) 0.1417(4) 0.3761(5)
C16 C 0.5378(6) 0.1811(4) 0.3221(4)
C17 C 0.4664(6) 0.2129(5) 0.2488(5)
C18 C 0.3545(6) 0.2047(4) 0.2284(4)
C19 C -0.1657(6) -0.1734(4) 0.1426(6)
C20 C 0.0994(8) 0.3100(4) 0.4119(5)
C21 C -0.0858(6) 0.2958(4) 0.2781(5)
C22 C 0.0205(7) -0.1878(4) 0.2777(5)
C23 C -0.0937(7) -0.4407(5) -0.0279(4)
C24 C -0.0228(6) -0.5877(4) -0.0036(4)
H1 H -0.4328 0.1090 0.1517
H2 H -0.3712 0.1965 -0.0481
H3 H 0.3776 -0.0025 0.0903
H4 H 0.5355 -0.1199 0.3062
H5 H 0.5473 0.1218 0.4282
H6 H 0.4952 0.2411 0.2129
H7 H -0.2305 -0.1442 0.1104
H8 H -0.1900 -0.2212 0.1569
H9 H 0.1486 0.2911 0.4641
H10 H 0.0688 0.3579 0.4216
H11 H -0.1097 0.3431 0.2927
H12 H -0.1506 0.2664 0.2459
H13 H -0.0084 -0.2350 0.2891
H14 H 0.0705 -0.1671 0.3291
H15 H -0.1137 -0.4510 -0.0869
H16 H -0.1415 -0.4005 -0.0222
H17 H -0.0524 -0.5877 -0.0688
H18 H -0.0283 -0.6335 0.0246
C20A C -0.0994(8) -0.1900(4) 0.0881(5)
C19A C 0.1657(6) 0.3266(4) 0.3574(6)
C22A C -0.0205(7) 0.3122(4) 0.2223(5)
C21A C 0.0858(6) -0.2042(4) 0.2219(5)
S2A S 0.0110(1) -0.2573(1) 0.1309(1)
H9A H -0.1486 -0.2089 0.0359
H10A H -0.0688 -0.1421 0.0784
S1A S 0.0918(1) 0.3788(1) 0.2649(1)
H7A H 0.2305 0.3558 0.3896
H8A H 0.1900 0.2788 0.3431
H13A H 0.0084 0.2650 0.2109
H14A H -0.0705 0.3329 0.1709
H11A H 0.1097 -0.1569 0.2073
H12A H 0.1506 -0.2336 0.2541
O4A O -0.0418(4) -0.3235(3) 0.1589(3)
O5A O 0.0449(4) 0.4460(3) 0.2956(3)
Ce1A Ce -0.06470(3) -0.43879(2) 0.23274(2)
Ce1A_2 Ce -0.06470(3) 0.56121(2) 0.23274(2)
O1A O 0.0832(4) -0.3816(3) 0.3404(3)
O2A O -0.2032(4) -0.5314(3) 0.2306(3)
O3A O -0.2013(4) -0.3512(3) 0.2464(3)
O5A_2 O 0.0449(4) -0.5540(3) 0.2956(3)
O6A O 0.0618(4) -0.0113(3) 0.3861(3)
O7A O 0.1377(4) -0.4367(3) 0.2145(3)
O13A O -0.1069(4) -0.4630(4) 0.3759(3)
O19A O -0.2475(4) -0.4136(3) 0.0971(3)
C1A C 0.1852(5) -0.3716(4) 0.3723(4)
C7A C -0.2825(6) -0.5405(4) 0.2562(4)
C13A C -0.3032(5) -0.3390(4) 0.2232(4)
N1A N 0.2360(4) -0.4276(3) 0.2563(3)
N4A N -0.1901(5) -0.4773(4) 0.3932(4)
N7A N -0.3439(5) -0.4018(4) 0.0834(4)
C2A C 0.2674(5) -0.3915(4) 0.3370(4)
C6A C 0.2336(5) -0.3384(4) 0.4539(4)
C8A C -0.2864(6) -0.5125(4) 0.3333(4)
C12A C -0.3799(6) -0.5820(4) 0.2083(5)
C14A C -0.3826(6) -0.3674(4) 0.1462(4)
C18A C -0.3545(6) -0.2953(4) 0.2716(4)
O8A O 0.3095(4) -0.4480(3) 0.2304(3)
O14A O -0.1922(6) -0.4653(5) 0.4623(4)
O20A O -0.4110(6) -0.4139(7) 0.0152(5)
C3A C 0.3814(5) -0.3776(4) 0.3750(4)
N3A N 0.1563(5) -0.3184(4) 0.4958(4)
C5A C 0.3441(6) -0.3252(4) 0.4931(4)
C9A C -0.3787(6) -0.5217(5) 0.3567(5)
N6A N -0.3808(6) -0.6195(5) 0.1311(4)
C11A C -0.4723(6) -0.5921(5) 0.2298(5)
C15A C -0.4978(6) -0.3583(4) 0.1239(5)
N9A N -0.2832(5) -0.2559(5) 0.3464(4)
C17A C -0.4664(6) -0.2871(5) 0.2512(5)
C24B C 0.0228(6) -0.4123(4) 0.0036(4)
C23B C 0.0937(7) -0.5593(5) 0.0279(4)
C4A C 0.4178(6) -0.3442(4) 0.4525(4)
H1A H 0.4328 -0.3910 0.3483
O11A O 0.0790(5) -0.2760(4) 0.4608(4)
O12A O 0.1752(5) -0.3445(4) 0.5654(4)
H2A H 0.3712 -0.3035 0.5481
C10A C -0.4710(6) -0.5608(5) 0.3039(5)
H3A H -0.3776 -0.5025 0.4097
O17A O -0.3423(8) -0.5847(6) 0.0876(5)
O18A O -0.4215(9) -0.6805(5) 0.1160(5)
H4A H -0.5355 -0.6199 0.1938
C16A C -0.5378(6) -0.3189(4) 0.1779(4)
H5A H -0.5473 -0.3782 0.0718
O23A O -0.3217(6) -0.2142(4) 0.3829(5)
O24A O -0.1897(7) -0.2687(7) 0.3719(6)
H6A H -0.4952 -0.2589 0.2871
S3B S 0.1179(1) -0.4740(1) -0.0220(1)
H17B H 0.0524 -0.4123 0.0688
H18B H 0.0283 -0.3665 -0.0246
H15B H 0.1137 -0.5490 0.0869
H16B H 0.1415 -0.5995 0.0222
N2A N 0.5346(5) -0.3265(4) 0.4910(5)
N5A N -0.5670(5) -0.5726(4) 0.3288(5)
N8A N -0.6554(5) -0.3083(4) 0.1552(4)
O6B O 0.0618(4) -0.4887(3) -0.1139(3)
O9A O 0.5979(5) -0.3497(4) 0.4582(4)
O10A O 0.5638(5) -0.2904(4) 0.5567(4)
O15A O -0.5644(5) -0.5433(4) 0.3948(4)
O16A O -0.6433(5) -0.6109(4) 0.2833(5)
O21A O -0.6887(4) -0.2754(4) 0.2050(4)
O22A O -0.7173(4) -0.3322(4) 0.0872(4)
Ce1C Ce 0.06470(3) -0.56121(2) -0.23274(2)
O25 O -0.0605(7) -0.0675(6) 0.3674(6)
loop_
_geom_bond_atom_site_label_1
_geom_bond_atom_site_label_2
_geom_bond_site_symmetry_1
_geom_bond_site_symmetry_2
Ce1 O1 1_555 1_555
S1 O5 1_555 1_555
S2 O4 1_555 1_555
S3 O6 1_555 1_555
O1 C1 1_555 1_555
O2 Ce1 1_555 1_555
O3 Ce1 1_555 1_555
O4 Ce1 1_555 1_555
O5 Ce1 1_555 1_555
O6 Ce1A 1_555 1_555
O7 Ce1 1_555 1_555
O8 N1 1_555 1_555
O9 N2 1_555 1_555
O10 N2 1_555 1_555
O11 N3 1_555 1_555
O12 N3 1_555 1_555
O13 Ce1 1_555 1_555
O14 N4 1_555 1_555
O15 N5 1_555 1_555
O16 N5 1_555 1_555
O17 N6 1_555 1_555
O18 N6 1_555 1_555
O19 Ce1 1_555 1_555
O20 N7 1_555 1_555
O21 N8 1_555 1_555
O22 N8 1_555 1_555
O23 N9 1_555 1_555
O24 N9 1_555 1_555
N1 O7 1_555 1_555
N2 C4 1_555 1_555
N3 C6 1_555 1_555
N4 O13 1_555 1_555
N5 C10 1_555 1_555
N6 C12 1_555 1_555
N7 O19 1_555 1_555
N8 C16 1_555 1_555
N9 C18 1_555 1_555
C1 C2 1_555 1_555
C2 N1 1_555 1_555
C3 C2 1_555 1_555
C4 C3 1_555 1_555
C5 C4 1_555 1_555
C6 C1 1_555 1_555
C7 O2 1_555 1_555
C8 N4 1_555 1_555
C9 C8 1_555 1_555
C10 C9 1_555 1_555
C11 C10 1_555 1_555
C12 C7 1_555 1_555
C13 O3 1_555 1_555
C14 N7 1_555 1_555
C15 C14 1_555 1_555
C16 C15 1_555 1_555
C17 C16 1_555 1_555
C18 C13 1_555 1_555
C19 S1 1_555 1_555
C20 S2 1_555 1_555
C21 S2 1_555 1_555
C22 S1 1_555 1_555
C23 S3 1_555 1_555
C24 S3 1_555 1_555
H1 C3 1_555 1_555
H2 C5 1_555 1_555
H3 C9 1_555 1_555
H4 C11 1_555 1_555
H5 C15 1_555 1_555
H6 C17 1_555 1_555
H7 C19 1_555 1_555
H8 C19 1_555 1_555
H9 C20 1_555 1_555
H10 C20 1_555 1_555
H11 C21 1_555 1_555
H12 C21 1_555 1_555
H13 C22 1_555 1_555
H14 C22 1_555 1_555
H15 C23 1_555 1_555
H16 C23 1_555 1_555
H17 C24 1_555 1_555
H18 C24 1_555 1_555
C20A C19 1_555 1_555
C19A C20 1_555 1_555
C22A C21 1_555 1_555
C21A C22 1_555 1_555
S2A C20A 1_555 1_555
H9A C20A 1_555 1_555
H10A C20A 1_555 1_555
S1A C19A 1_555 1_555
H7A C19A 1_555 1_555
H8A C19A 1_555 1_555
H13A C22A 1_555 1_555
H14A C22A 1_555 1_555
H11A C21A 1_555 1_555
H12A C21A 1_555 1_555
O4A S2A 1_555 1_555
O5A S1A 1_555 1_555
Ce1A O4A 1_555 1_555
Ce1A_2 O5A 1_555 1_555
O1A Ce1A 1_555 1_555
O2A Ce1A 1_555 1_555
O3A Ce1A 1_555 1_555
O5A_2 Ce1A 1_555 1_555
O6A Ce1 1_555 1_555
O7A Ce1A 1_555 1_555
O13A Ce1A 1_555 1_555
O19A Ce1A 1_555 1_555
C1A O1A 1_555 1_555
C7A O2A 1_555 1_555
C13A O3A 1_555 1_555
N1A O7A 1_555 1_555
N4A O13A 1_555 1_555
N7A O19A 1_555 1_555
C2A C1A 1_555 1_555
C6A C1A 1_555 1_555
C8A C7A 1_555 1_555
C12A C7A 1_555 1_555
C14A C13A 1_555 1_555
C18A C13A 1_555 1_555
O8A N1A 1_555 1_555
O14A N4A 1_555 1_555
O20A N7A 1_555 1_555
C3A C2A 1_555 1_555
N3A C6A 1_555 1_555
C5A C6A 1_555 1_555
C9A C8A 1_555 1_555
N6A C12A 1_555 1_555
C11A C12A 1_555 1_555
C15A C14A 1_555 1_555
N9A C18A 1_555 1_555
C17A C18A 1_555 1_555
C24B C23 1_555 1_555
C23B C24 1_555 1_555
C4A C3A 1_555 1_555
H1A C3A 1_555 1_555
O11A N3A 1_555 1_555
O12A N3A 1_555 1_555
H2A C5A 1_555 1_555
C10A C9A 1_555 1_555
H3A C9A 1_555 1_555
O17A N6A 1_555 1_555
O18A N6A 1_555 1_555
H4A C11A 1_555 1_555
C16A C15A 1_555 1_555
H5A C15A 1_555 1_555
O23A N9A 1_555 1_555
O24A N9A 1_555 1_555
H6A C17A 1_555 1_555
S3B C24B 1_555 1_555
H17B C24B 1_555 1_555
H18B C24B 1_555 1_555
H15B C23B 1_555 1_555
H16B C23B 1_555 1_555
N2A C4A 1_555 1_555
N5A C10A 1_555 1_555
N8A C16A 1_555 1_555
O6B S3B 1_555 1_555
O9A N2A 1_555 1_555
O10A N2A 1_555 1_555
O15A N5A 1_555 1_555
O16A N5A 1_555 1_555
O21A N8A 1_555 1_555
O22A N8A 1_555 1_555
Ce1C O6B 1_555 1_555
C5 C6 1_555 1_555
C7 C8 1_555 1_555
C11 C12 1_555 1_555
C13 C14 1_555 1_555
C17 C18 1_555 1_555
C22A S1A 1_555 1_555
C21A S2A 1_555 1_555
N1A C2A 1_555 1_555
N4A C8A 1_555 1_555
N7A C14A 1_555 1_555
C5A C4A 1_555 1_555
C11A C10A 1_555 1_555
C17A C16A 1_555 1_555
C23B S3B 1_555 1_555

#END
