
#######################################################################
#
#                 Cambridge Crystallographic Data Centre
#                                CCDC 
#
#######################################################################
#
# If this CIF has been generated from an entry in the Cambridge 
# Structural Database, then it will include bibliographic, chemical, 
# crystal, experimental, refinement or atomic coordinate data resulting 
# from the CCDC's data processing and validation procedures.
#
#######################################################################

data_LEGLEO
_symmetry_cell_setting           monoclinic
_symmetry_space_group_name_H-M   'P 21/c'
_symmetry_Int_Tables_number      14
_space_group_name_Hall           '-P 2ybc'
loop_
_symmetry_equiv_pos_site_id
_symmetry_equiv_pos_as_xyz
1 x,y,z
2 -x,1/2+y,1/2-z
3 -x,-y,-z
4 x,1/2-y,1/2+z
_cell_length_a                   12.777(2)
_cell_length_b                   17.178(2)
_cell_length_c                   17.274(2)
_cell_angle_alpha                90
_cell_angle_beta                 110.63(1)
_cell_angle_gamma                90
_cell_volume                     3548.23
loop_
_atom_site_label
_atom_site_type_symbol
_atom_site_fract_x
_atom_site_fract_y
_atom_site_fract_z
Eu1 Eu 0.43448(1) 0.06241(1) 0.22873(1)
S1 S 0.59131(8) -0.11725(6) 0.26174(6)
S2 S 0.50363(9) 0.24422(6) 0.12956(6)
S3 S 0.61770(8) -0.52537(6) 0.47632(6)
O1 O 0.5741(2) 0.1208(2) 0.3349(1)
O2 O 0.3005(2) -0.0303(2) 0.2239(2)
O3 O 0.3018(2) 0.1456(2) 0.2476(2)
O4 O 0.4496(2) 0.1770(2) 0.1578(2)
O5 O 0.5437(2) -0.0482(2) 0.2924(2)
O6 O 0.5583(2) -0.5083(1) 0.3849(1)
O7 O 0.6337(2) 0.0691(2) 0.2097(2)
O8 O 0.8069(3) 0.0553(2) 0.2286(2)
O9 O 1.0952(3) 0.1457(2) 0.4641(2)
O10 O 1.0576(3) 0.2067(2) 0.5602(2)
O11 O 0.5687(3) 0.2202(2) 0.4592(2)
O12 O 0.6653(3) 0.1505(2) 0.5623(2)
O13 O 0.4003(2) 0.0332(2) 0.3717(2)
O14 O 0.3091(3) 0.0396(3) 0.4539(2)
O15 O -0.0638(3) -0.0429(2) 0.3869(2)
O16 O -0.1444(3) -0.1103(2) 0.2753(2)
O17 O 0.0752(4) -0.1824(3) 0.1089(3)
O18 O 0.1628(4) -0.0927(4) 0.0846(3)
O19 O 0.2539(2) 0.0876(2) 0.0960(2)
O20 O 0.0868(3) 0.0819(4) 0.0177(2)
O21 O -0.1885(3) 0.2285(2) 0.2038(2)
O22 O -0.2180(2) 0.1707(2) 0.0873(2)
O23 O 0.1805(3) 0.2783(2) 0.3881(2)
O24 O 0.3156(4) 0.2492(3) 0.3598(3)
N1 N 0.7323(3) 0.0756(2) 0.2536(2)
N2 N 1.0298(3) 0.1698(2) 0.4955(2)
N3 N 0.6465(3) 0.1776(2) 0.4938(2)
N4 N 0.3148(3) 0.0239(2) 0.3870(2)
N5 N -0.0658(3) -0.0718(2) 0.3223(3)
N6 N 0.1212(3) -0.1232(3) 0.1267(2)
N7 N 0.1555(3) 0.0969(2) 0.0840(2)
N8 N -0.1559(3) 0.1947(2) 0.1547(2)
N9 N 0.2194(3) 0.2435(2) 0.3464(2)
C1 C 0.6788(3) 0.1286(2) 0.3692(2)
C2 C 0.7621(3) 0.1096(2) 0.3358(2)
C3 C 0.8757(3) 0.1218(2) 0.3761(2)
C4 C 0.9113(3) 0.1532(2) 0.4546(3)
C5 C 0.8355(3) 0.1699(2) 0.4940(2)
C6 C 0.7256(3) 0.1588(2) 0.4529(2)
C7 C 0.2201(3) -0.0400(2) 0.2494(2)
C8 C 0.2152(3) -0.0118(2) 0.3259(2)
C9 C 0.1237(4) -0.0213(2) 0.3495(3)
C10 C 0.0310(4) -0.0601(2) 0.2973(3)
C11 C 0.0293(3) -0.0928(3) 0.2236(3)
C12 C 0.1220(3) -0.0834(3) 0.2015(2)
C13 C 0.1972(3) 0.1587(2) 0.2232(2)
C14 C 0.1174(3) 0.1323(2) 0.1467(2)
C15 C 0.0039(3) 0.1423(2) 0.1240(2)
C16 C -0.0364(3) 0.1816(2) 0.1777(2)
C17 C 0.0355(3) 0.2124(2) 0.2516(2)
C18 C 0.1483(3) 0.2030(2) 0.2715(2)
C19 C 0.6705(4) -0.1692(3) 0.3553(3)
C20 C 0.3937(4) 0.3145(3) 0.0893(3)
C21 C 0.5832(3) 0.2968(2) 0.2213(3)
C22 C 0.4785(4) -0.1855(2) 0.2218(3)
C23 C 0.5970(4) -0.4400(2) 0.5296(3)
C24 C 0.5221(4) -0.5885(2) 0.5006(2)
H1 H 0.9250 0.1060 0.3529
H2 H 0.8619 0.1910 0.5469
H3 H 0.1220 -0.0060 0.3899
H4 H -0.0350 -0.1210 0.1900
H5 H -0.0440 0.1220 0.0720
H6 H 0.0110 0.2380 0.2910
H7 H 0.7331 -0.1330 0.3810
H8 H 0.6961 -0.2171 0.3341
H9 H 0.3450 0.2940 0.0410
H10 H 0.4350 0.3610 0.0800
H11 H 0.6140 0.3400 0.1980
H12 H 0.6439 0.2660 0.2420
H13 H 0.5061 -0.2250 0.2080
H14 H 0.4241 -0.1620 0.1751
H15 H 0.6451 -0.4030 0.5190
H16 H 0.6200 -0.4540 0.5820
H17 H 0.5490 -0.5880 0.5630
H18 H 0.5291 -0.6310 0.4770
C20A C 0.6063(4) -0.1855(3) 0.4107(3)
C19A C 0.3295(4) 0.3308(3) 0.1447(3)
C22A C 0.5215(4) 0.3145(2) 0.2782(3)
C21A C 0.4168(3) -0.2032(2) 0.2787(3)
S2A S 0.49637(9) -0.25578(6) 0.37044(6)
H9A H 0.6550 -0.2060 0.4590
H10A H 0.5650 -0.1390 0.4200
S1A S 0.40869(8) 0.38275(6) 0.23826(6)
H7A H 0.2669 0.3670 0.1190
H8A H 0.3039 0.2829 0.1659
H13A H 0.4939 0.2750 0.2920
H14A H 0.5759 0.3380 0.3249
H11A H 0.3860 -0.1600 0.3020
H12A H 0.3561 -0.2340 0.2580
O4A O 0.5504(2) -0.3230(2) 0.3422(2)
O5A O 0.4563(2) 0.4518(2) 0.2076(2)
Eu1A Eu 0.56552(1) -0.43759(1) 0.27127(1)
Eu1A_2 Eu 0.56552(1) 0.56241(1) 0.27127(1)
O1A O 0.4259(2) -0.3792(2) 0.1651(1)
O2A O 0.6995(2) -0.5303(2) 0.2761(2)
O3A O 0.6982(2) -0.3544(2) 0.2524(2)
O5A_2 O 0.4563(2) -0.5482(2) 0.2076(2)
O6A O 0.4417(2) -0.0083(1) 0.1151(1)
O7A O 0.3663(2) -0.4309(2) 0.2903(2)
O13A O 0.5997(2) -0.4668(2) 0.1283(2)
O19A O 0.7461(2) -0.4124(2) 0.4040(2)
C1A C 0.3212(3) -0.3714(2) 0.1308(2)
C7A C 0.7799(3) -0.5400(2) 0.2506(2)
C13A C 0.8028(3) -0.3413(2) 0.2768(2)
N1A N 0.2677(3) -0.4244(2) 0.2464(2)
N4A N 0.6852(3) -0.4761(2) 0.1130(2)
N7A N 0.8445(3) -0.4031(2) 0.4160(2)
C2A C 0.2379(3) -0.3904(2) 0.1642(2)
C6A C 0.2744(3) -0.3412(2) 0.0471(2)
C8A C 0.7848(3) -0.5118(2) 0.1741(2)
C12A C 0.8780(3) -0.5834(3) 0.2985(2)
C14A C 0.8826(3) -0.3677(2) 0.3533(2)
C18A C 0.8517(3) -0.2970(2) 0.2285(2)
O8A O 0.1931(3) -0.4447(2) 0.2714(2)
O14A O 0.6909(3) -0.4604(3) 0.0461(2)
O20A O 0.9132(3) -0.4181(4) 0.4823(2)
C3A C 0.1243(3) -0.3782(2) 0.1239(2)
N3A N 0.3535(3) -0.3224(2) 0.0062(2)
C5A C 0.1645(3) -0.3301(2) 0.0060(2)
C9A C 0.8763(4) -0.5213(2) 0.1505(3)
N6A N 0.8788(3) -0.6232(3) 0.3733(2)
C11A C 0.9707(3) -0.5928(3) 0.2764(3)
C15A C 0.9961(3) -0.3577(2) 0.3760(2)
N9A N 0.7806(3) -0.2565(2) 0.1536(2)
C17A C 0.9645(3) -0.2876(2) 0.2484(2)
C24B C 0.4779(4) -0.4115(2) 0.4994(2)
C23B C 0.4030(4) -0.5600(2) 0.4704(3)
C4A C 0.0887(3) -0.3468(2) 0.0454(3)
H1A H 0.0750 -0.3940 0.1471
O11A O 0.4313(3) -0.2798(2) 0.0408(2)
O12A O 0.3347(3) -0.3495(2) -0.0623(2)
H2A H 0.1381 -0.3090 -0.0469
C10A C 0.9690(4) -0.5601(2) 0.2027(3)
H3A H 0.8780 -0.5060 0.1101
O17A O 0.9248(4) -0.6824(3) 0.3911(3)
O18A O 0.8372(4) -0.5927(4) 0.4154(3)
H4A H 1.0350 -0.6210 0.3100
C16A C 1.0364(3) -0.3184(2) 0.3223(2)
H5A H 1.0440 -0.3780 0.4280
O23A O 0.8195(3) -0.2217(2) 0.1119(2)
O24A O 0.6844(4) -0.2508(3) 0.1402(3)
H6A H 0.9890 -0.2620 0.2090
S3B S 0.38230(8) -0.47463(6) 0.52368(6)
H17B H 0.4510 -0.4120 0.4370
H18B H 0.4709 -0.3690 0.5230
H15B H 0.3549 -0.5970 0.4810
H16B H 0.3800 -0.5460 0.4180
N2A N -0.0298(3) -0.3302(2) 0.0045(2)
N5A N 1.0658(3) -0.5718(2) 0.1777(3)
N8A N 1.1559(3) -0.3053(2) 0.3453(2)
O6B O 0.4417(2) -0.4917(1) 0.6151(1)
O9A O -0.0952(3) -0.3543(2) 0.0359(2)
O10A O -0.0576(3) -0.2933(2) -0.0602(2)
O15A O 1.0638(3) -0.5429(2) 0.1131(2)
O16A O 1.1444(3) -0.6103(2) 0.2247(2)
O21A O 1.1885(3) -0.2715(2) 0.2962(2)
O22A O 1.2180(2) -0.3293(2) 0.4127(2)
Eu1C Eu 0.43448(1) -0.56241(1) 0.72873(1)
loop_
_geom_bond_atom_site_label_1
_geom_bond_atom_site_label_2
_geom_bond_site_symmetry_1
_geom_bond_site_symmetry_2
Eu1 O1 1_555 1_555
S1 O5 1_555 1_555
S2 O4 1_555 1_555
S3 O6 1_555 1_555
O1 C1 1_555 1_555
O2 Eu1 1_555 1_555
O3 Eu1 1_555 1_555
O4 Eu1 1_555 1_555
O5 Eu1 1_555 1_555
O6 Eu1A 1_555 1_555
O7 Eu1 1_555 1_555
O8 N1 1_555 1_555
O9 N2 1_555 1_555
O10 N2 1_555 1_555
O11 N3 1_555 1_555
O12 N3 1_555 1_555
O13 Eu1 1_555 1_555
O14 N4 1_555 1_555
O15 N5 1_555 1_555
O16 N5 1_555 1_555
O17 N6 1_555 1_555
O18 N6 1_555 1_555
O19 Eu1 1_555 1_555
O20 N7 1_555 1_555
O21 N8 1_555 1_555
O22 N8 1_555 1_555
O23 N9 1_555 1_555
O24 N9 1_555 1_555
N1 O7 1_555 1_555
N2 C4 1_555 1_555
N3 C6 1_555 1_555
N4 O13 1_555 1_555
N5 C10 1_555 1_555
N6 C12 1_555 1_555
N7 O19 1_555 1_555
N8 C16 1_555 1_555
N9 C18 1_555 1_555
C1 C2 1_555 1_555
C2 N1 1_555 1_555
C3 C2 1_555 1_555
C4 C3 1_555 1_555
C5 C4 1_555 1_555
C6 C1 1_555 1_555
C7 O2 1_555 1_555
C8 N4 1_555 1_555
C9 C8 1_555 1_555
C10 C9 1_555 1_555
C11 C10 1_555 1_555
C12 C7 1_555 1_555
C13 O3 1_555 1_555
C14 N7 1_555 1_555
C15 C14 1_555 1_555
C16 C15 1_555 1_555
C17 C16 1_555 1_555
C18 C13 1_555 1_555
C19 S1 1_555 1_555
C20 S2 1_555 1_555
C21 S2 1_555 1_555
C22 S1 1_555 1_555
C23 S3 1_555 1_555
C24 S3 1_555 1_555
H1 C3 1_555 1_555
H2 C5 1_555 1_555
H3 C9 1_555 1_555
H4 C11 1_555 1_555
H5 C15 1_555 1_555
H6 C17 1_555 1_555
H7 C19 1_555 1_555
H8 C19 1_555 1_555
H9 C20 1_555 1_555
H10 C20 1_555 1_555
H11 C21 1_555 1_555
H12 C21 1_555 1_555
H13 C22 1_555 1_555
H14 C22 1_555 1_555
H15 C23 1_555 1_555
H16 C23 1_555 1_555
H17 C24 1_555 1_555
H18 C24 1_555 1_555
C20A C19 1_555 1_555
C19A C20 1_555 1_555
C22A C21 1_555 1_555
C21A C22 1_555 1_555
S2A C20A 1_555 1_555
H9A C20A 1_555 1_555
H10A C20A 1_555 1_555
S1A C19A 1_555 1_555
H7A C19A 1_555 1_555
H8A C19A 1_555 1_555
H13A C22A 1_555 1_555
H14A C22A 1_555 1_555
H11A C21A 1_555 1_555
H12A C21A 1_555 1_555
O4A S2A 1_555 1_555
O5A S1A 1_555 1_555
Eu1A O4A 1_555 1_555
Eu1A_2 O5A 1_555 1_555
O1A Eu1A 1_555 1_555
O2A Eu1A 1_555 1_555
O3A Eu1A 1_555 1_555
O5A_2 Eu1A 1_555 1_555
O6A Eu1 1_555 1_555
O7A Eu1A 1_555 1_555
O13A Eu1A 1_555 1_555
O19A Eu1A 1_555 1_555
C1A O1A 1_555 1_555
C7A O2A 1_555 1_555
C13A O3A 1_555 1_555
N1A O7A 1_555 1_555
N4A O13A 1_555 1_555
N7A O19A 1_555 1_555
C2A C1A 1_555 1_555
C6A C1A 1_555 1_555
C8A C7A 1_555 1_555
C12A C7A 1_555 1_555
C14A C13A 1_555 1_555
C18A C13A 1_555 1_555
O8A N1A 1_555 1_555
O14A N4A 1_555 1_555
O20A N7A 1_555 1_555
C3A C2A 1_555 1_555
N3A C6A 1_555 1_555
C5A C6A 1_555 1_555
C9A C8A 1_555 1_555
N6A C12A 1_555 1_555
C11A C12A 1_555 1_555
C15A C14A 1_555 1_555
N9A C18A 1_555 1_555
C17A C18A 1_555 1_555
C24B C23 1_555 1_555
C23B C24 1_555 1_555
C4A C3A 1_555 1_555
H1A C3A 1_555 1_555
O11A N3A 1_555 1_555
O12A N3A 1_555 1_555
H2A C5A 1_555 1_555
C10A C9A 1_555 1_555
H3A C9A 1_555 1_555
O17A N6A 1_555 1_555
O18A N6A 1_555 1_555
H4A C11A 1_555 1_555
C16A C15A 1_555 1_555
H5A C15A 1_555 1_555
O23A N9A 1_555 1_555
O24A N9A 1_555 1_555
H6A C17A 1_555 1_555
S3B C24B 1_555 1_555
H17B C24B 1_555 1_555
H18B C24B 1_555 1_555
H15B C23B 1_555 1_555
H16B C23B 1_555 1_555
N2A C4A 1_555 1_555
N5A C10A 1_555 1_555
N8A C16A 1_555 1_555
O6B S3B 1_555 1_555
O9A N2A 1_555 1_555
O10A N2A 1_555 1_555
O15A N5A 1_555 1_555
O16A N5A 1_555 1_555
O21A N8A 1_555 1_555
O22A N8A 1_555 1_555
Eu1C O6B 1_555 1_555
C5 C6 1_555 1_555
C7 C8 1_555 1_555
C11 C12 1_555 1_555
C13 C14 1_555 1_555
C17 C18 1_555 1_555
C22A S1A 1_555 1_555
C21A S2A 1_555 1_555
N1A C2A 1_555 1_555
N4A C8A 1_555 1_555
N7A C14A 1_555 1_555
C5A C4A 1_555 1_555
C11A C10A 1_555 1_555
C17A C16A 1_555 1_555
C23B S3B 1_555 1_555

#END
