
#######################################################################
#
#                 Cambridge Crystallographic Data Centre
#                                CCDC 
#
#######################################################################
#
# If this CIF has been generated from an entry in the Cambridge 
# Structural Database, then it will include bibliographic, chemical, 
# crystal, experimental, refinement or atomic coordinate data resulting 
# from the CCDC's data processing and validation procedures.
#
#######################################################################

data_LEHCOR
_symmetry_cell_setting           triclinic
_symmetry_space_group_name_H-M   'P -1'
_symmetry_Int_Tables_number      2
_space_group_name_Hall           '-P 1'
loop_
_symmetry_equiv_pos_site_id
_symmetry_equiv_pos_as_xyz
1 x,y,z
2 -x,-y,-z
_cell_length_a                   11.825(4)
_cell_length_b                   12.742(4)
_cell_length_c                   13.367(4)
_cell_angle_alpha                75.684(6)
_cell_angle_beta                 88.803(6)
_cell_angle_gamma                71.601(6)
_cell_volume                     1848.18
loop_
_atom_site_label
_atom_site_type_symbol
_atom_site_fract_x
_atom_site_fract_y
_atom_site_fract_z
Pr1 Pr -0.42728(4) -0.16966(3) 0.79165(3)
Pr2 Pr -0.37353(4) -0.18766(3) 0.29465(3)
N1 N -0.4352(7) -0.3801(6) 0.8434(5)
N2 N -0.2210(6) -0.3411(6) 0.8329(5)
N3 N -0.1866(7) -0.3834(5) 0.3426(5)
N4 N -0.4186(7) -0.3868(6) 0.3454(5)
O1 O -0.5868(5) -0.1338(5) 0.2849(5)
O2 O -0.6976(5) 0.0498(5) 0.2373(4)
O3 O -1.065(3) -0.053(4) 0.1806(17)
O4 O -1.021(2) -0.113(3) 0.3502(10)
O7 O -0.3958(5) 0.1519(4) 0.3271(4)
O8 O -0.4517(5) -0.0021(4) 0.3541(4)
O9 O -0.3730(5) -0.2447(4) 0.4836(4)
O10 O -0.2159(5) -0.1534(4) 0.3937(4)
H1 H -0.1412 -0.1566 0.3688
O11 O -0.3456(5) -0.2084(4) 0.6339(4)
O12 O -0.4466(5) -0.0043(4) 0.1462(4)
O13 O -0.3927(5) 0.1486(4) 0.0946(4)
O14 O -0.2127(4) -0.1592(4) 0.1747(3)
H2 H -0.1377 -0.1634 0.1986
O15 O -0.3698(5) -0.2512(4) 0.1367(4)
O16 O -0.3525(5) -0.2060(4) -0.0337(4)
C1 C -0.5383(8) -0.4003(7) 0.8485(6)
H3 H -0.6076 -0.3376 0.8325
C2 C -0.5508(10) -0.5092(8) 0.8763(6)
H4 H -0.6258 -0.5187 0.8788
C3 C -0.4486(11) -0.6015(9) 0.8998(7)
H5 H -0.4531 -0.6753 0.9179
C4 C -0.3372(11) -0.5841(8) 0.8962(7)
C5 C -0.2245(13) -0.6781(8) 0.9198(8)
H6 H -0.2255 -0.7530 0.9385
C6 C -0.1199(12) -0.6583(10) 0.9150(10)
H7 H -0.0493 -0.7194 0.9314
C7 C -0.1154(10) -0.5423(8) 0.8844(7)
C8 C -0.0069(10) -0.5206(10) 0.8805(8)
H8 H 0.0644 -0.5809 0.8967
C9 C -0.0056(10) -0.4106(10) 0.8528(8)
H9 H 0.0657 -0.3939 0.8485
C10 C -0.1170(9) -0.3232(8) 0.8308(7)
H10 H -0.1170 -0.2478 0.8137
C11 C -0.2201(9) -0.4522(8) 0.8613(6)
C12 C -0.3337(8) -0.4720(7) 0.8670(5)
C13 C -0.0744(9) -0.3841(7) 0.3415(6)
H11 H -0.0609 -0.3141 0.3199
C14 C 0.0241(9) -0.4814(8) 0.3702(8)
H12 H 0.1007 -0.4758 0.3692
C15 C 0.0078(12) -0.5834(10) 0.3993(9)
H13 H 0.0734 -0.6496 0.4165
C16 C -0.1086(13) -0.5907(8) 0.4039(8)
C17 C -0.1378(14) -0.6945(10) 0.4336(10)
H14 H -0.0758 -0.7632 0.4552
C18 C -0.2484(15) -0.6980(9) 0.4320(9)
H15 H -0.2617 -0.7682 0.4513
C19 C -0.3494(12) -0.5938(9) 0.4006(7)
C20 C -0.4651(13) -0.5951(10) 0.4012(8)
H16 H -0.4809 -0.6642 0.4196
C21 C -0.5578(11) -0.4932(10) 0.3742(7)
H17 H -0.6369 -0.4919 0.3751
C22 C -0.5288(9) -0.3910(8) 0.3453(6)
H18 H -0.5911 -0.3224 0.3249
C23 C -0.3268(10) -0.4902(7) 0.3731(6)
C24 C -0.2077(10) -0.4849(8) 0.3716(7)
C25 C -0.6846(8) -0.0547(8) 0.2649(6)
C26 C -0.7937(9) -0.0883(8) 0.2745(9)
H19 H -0.7834 -0.1657 0.3006
C27 C -0.9002(11) -0.0220(11) 0.2506(9)
H20 H -0.9126 0.0560 0.2257
C28 C -1.0095(9) -0.0631(10) 0.2605(9)
C29 C -0.3896(7) 0.0536(6) 0.3796(6)
C30 C -0.3068(7) 0.0002(6) 0.4765(6)
H21 H -0.3516 0.0139 0.5362
H22 H -0.2450 0.0359 0.4720
C31 C -0.2490(7) -0.1287(6) 0.4907(5)
H23 H -0.1763 -0.1539 0.5361
C32 C -0.3295(7) -0.1979(6) 0.5398(5)
C33 C -0.3824(7) 0.0491(6) 0.0904(5)
C34 C -0.2989(7) -0.0066(6) 0.0200(6)
H24 H -0.2351 0.0269 0.0072
H25 H -0.3413 0.0073 -0.0458
C35 C -0.2453(7) -0.1358(6) 0.0666(5)
H26 H -0.1729 -0.1645 0.0312
C36 C -0.3302(7) -0.2026(6) 0.0560(6)
Pr1A Pr -0.57272(4) 0.16966(3) 0.20835(3)
Pr1_2 Pr -0.42728(4) -0.16966(3) -0.20835(3)
Pr2A Pr -0.62647(4) 0.18766(3) 0.70535(3)
O2A O -0.3024(5) -0.0498(5) 0.7627(4)
O7A O -0.6042(5) -0.1519(4) 0.6729(4)
O8A O -0.5483(5) 0.0021(4) 0.6459(4)
O12A O -0.5534(5) 0.0043(4) 0.8538(4)
O13A O -0.6073(5) -0.1486(4) 0.9054(4)
O16_2 O -0.3525(5) -0.2060(4) 0.9663(4)
C29A C -0.6104(7) -0.0536(6) 0.6204(6)
C33A C -0.6176(7) -0.0491(6) 0.9096(5)
O17 O -0.1680(15) 0.2105(14) 0.1967(14)
O19 O -1.0000 0.0000 0.5000
O5? O -1.022(3) -0.113(3) 0.200(4)
O6? O -1.082(3) -0.034(3) 0.332(3)
O18? O -0.983(2) 0.9347(15) -0.0105(18)
loop_
_geom_bond_atom_site_label_1
_geom_bond_atom_site_label_2
_geom_bond_site_symmetry_1
_geom_bond_site_symmetry_2
Pr1 N1 1_555 1_555
Pr2 N3 1_555 1_555
N1 C1 1_555 1_555
N2 Pr1 1_555 1_555
N3 C13 1_555 1_555
N4 Pr2 1_555 1_555
O1 Pr2 1_555 1_555
O2 C25 1_555 1_555
O3 C28 1_555 1_555
O4 C28 1_555 1_555
O7 C29 1_555 1_555
O8 Pr2 1_555 1_555
O9 Pr2 1_555 1_555
O10 Pr2 1_555 1_555
H1 O10 1_555 1_555
O11 Pr1 1_555 1_555
O12 Pr2 1_555 1_555
O13 C33 1_555 1_555
O14 Pr2 1_555 1_555
H2 O14 1_555 1_555
O15 Pr2 1_555 1_555
O16 C36 1_555 1_555
C1 H3 1_555 1_555
C2 C1 1_555 1_555
H4 C2 1_555 1_555
C3 C2 1_555 1_555
H5 C3 1_555 1_555
C4 C3 1_555 1_555
C5 C4 1_555 1_555
H6 C5 1_555 1_555
C6 C5 1_555 1_555
H7 C6 1_555 1_555
C7 C6 1_555 1_555
C8 C7 1_555 1_555
H8 C8 1_555 1_555
C9 C8 1_555 1_555
H9 C9 1_555 1_555
C10 N2 1_555 1_555
H10 C10 1_555 1_555
C11 N2 1_555 1_555
C12 N1 1_555 1_555
C13 H11 1_555 1_555
C14 C13 1_555 1_555
H12 C14 1_555 1_555
C15 C14 1_555 1_555
H13 C15 1_555 1_555
C16 C15 1_555 1_555
C17 C16 1_555 1_555
H14 C17 1_555 1_555
C18 C17 1_555 1_555
H15 C18 1_555 1_555
C19 C18 1_555 1_555
C20 C19 1_555 1_555
H16 C20 1_555 1_555
C21 C20 1_555 1_555
H17 C21 1_555 1_555
C22 N4 1_555 1_555
H18 C22 1_555 1_555
C23 N4 1_555 1_555
C24 N3 1_555 1_555
C25 O1 1_555 1_555
C26 C25 1_555 1_555
H19 C26 1_555 1_555
C27 C26 1_555 1_555
H20 C27 1_555 1_555
C28 C27 1_555 1_555
C29 O8 1_555 1_555
C30 C29 1_555 1_555
H21 C30 1_555 1_555
H22 C30 1_555 1_555
C31 O10 1_555 1_555
H23 C31 1_555 1_555
C32 O9 1_555 1_555
C33 O12 1_555 1_555
C34 C33 1_555 1_555
H24 C34 1_555 1_555
H25 C34 1_555 1_555
C35 O14 1_555 1_555
H26 C35 1_555 1_555
C36 O15 1_555 1_555
Pr1A Pr2 1_555 1_555
Pr1_2 O16 1_555 1_555
Pr2A Pr1 1_555 1_555
O2A Pr1 1_555 1_555
O7A Pr1 1_555 1_555
O8A Pr1 1_555 1_555
O12A Pr1 1_555 1_555
O13A Pr1 1_555 1_555
O16_2 Pr1 1_555 1_555
C29A O7A 1_555 1_555
C33A O12A 1_555 1_555
O2 Pr1A 1_555 1_555
O7 Pr1A 1_555 1_555
O8 Pr1A 1_555 1_555
O11 C32 1_555 1_555
O12 Pr1A 1_555 1_555
O13 Pr1A 1_555 1_555
C4 C12 1_555 1_555
C7 C11 1_555 1_555
C9 C10 1_555 1_555
C11 C12 1_555 1_555
C16 C24 1_555 1_555
C19 C23 1_555 1_555
C21 C22 1_555 1_555
C23 C24 1_555 1_555
C30 C31 1_555 1_555
C31 C32 1_555 1_555
C34 C35 1_555 1_555
C35 C36 1_555 1_555
Pr2A O8A 1_555 1_555
Pr2A O12A 1_555 1_555
O8A C29A 1_555 1_555
O13A C33A 1_555 1_555

#END
