
#######################################################################
#
#                 Cambridge Crystallographic Data Centre
#                                CCDC 
#
#######################################################################
#
# If this CIF has been generated from an entry in the Cambridge 
# Structural Database, then it will include bibliographic, chemical, 
# crystal, experimental, refinement or atomic coordinate data resulting 
# from the CCDC's data processing and validation procedures.
#
#######################################################################

data_LEHDUZ
_symmetry_cell_setting           orthorhombic
_symmetry_space_group_name_H-M   'P 21 21 21'
_symmetry_Int_Tables_number      19
_space_group_name_Hall           'P 2ac 2ab'
loop_
_symmetry_equiv_pos_site_id
_symmetry_equiv_pos_as_xyz
1 x,y,z
2 1/2-x,-y,1/2+z
3 -x,1/2+y,1/2-z
4 1/2+x,1/2-y,-z
_cell_length_a                   6.052(2)
_cell_length_b                   6.959(2)
_cell_length_c                   25.120(8)
_cell_angle_alpha                90
_cell_angle_beta                 90
_cell_angle_gamma                90
_cell_volume                     1057.95
loop_
_atom_site_label
_atom_site_type_symbol
_atom_site_fract_x
_atom_site_fract_y
_atom_site_fract_z
K1 K 0.19352(19) 0.92096(16) 0.77175(5)
N1 N 0.4374(7) 0.6992(6) 0.85281(14)
N2 N 0.6381(7) 0.7035(6) 0.84172(15)
N3 N 0.8199(7) 0.7267(7) 0.83058(14)
C1 C 0.3397(8) 0.5009(6) 0.86075(17)
H1 H 0.1992 0.5194 0.8811
C2 C 0.4850(8) 0.3714(6) 0.89471(16)
H2 H 0.4156 0.2427 0.8965
H3 H 0.6294 0.3564 0.8766
C3 C 0.5268(8) 0.4407(6) 0.95126(18)
C4 C 0.3648(8) 0.4141(7) 0.99013(17)
H4 H 0.2286 0.3546 0.9811
C5 C 0.4030(8) 0.4748(7) 1.04210(19)
H5 H 0.2922 0.4575 1.0684
C6 C 0.6016(8) 0.5603(7) 1.05561(19)
H6 H 0.6273 0.5998 1.0913
C7 C 0.7647(8) 0.5888(7) 1.01697(18)
H7 H 0.9006 0.6489 1.0260
C8 C 0.7250(8) 0.5283(6) 0.96550(18)
H8 H 0.8356 0.5469 0.9392
F1 F 0.1942(4) 0.5408(3) 0.76697(10)
F2 F 0.0979(4) 0.2693(4) 0.81157(9)
F3 F 0.4491(4) 0.3061(4) 0.78057(9)
B1 B 0.2716(9) 0.4042(8) 0.8047(2)
K1B K -0.19352(19) 0.42096(16) 0.72825(5)
K1_2 K 0.19352(19) -0.07904(16) 0.77175(5)
K1B_2 K 0.80648(19) 0.42096(16) 0.72825(5)
F1B F -0.1942(4) 1.0408(3) 0.73303(10)
F2_2 F 0.0979(4) 1.2693(4) 0.81157(9)
F2B F -0.0979(4) 0.7693(4) 0.68843(9)
F3B F 0.5509(4) 0.8061(4) 0.71943(9)
loop_
_geom_bond_atom_site_label_1
_geom_bond_atom_site_label_2
_geom_bond_site_symmetry_1
_geom_bond_site_symmetry_2
K1 N1 1_555 1_555
N1 N2 1_555 1_555
N2 N3 1_555 1_555
C1 N1 1_555 1_555
H1 C1 1_555 1_555
C2 C1 1_555 1_555
H2 C2 1_555 1_555
H3 C2 1_555 1_555
C3 C2 1_555 1_555
C4 C3 1_555 1_555
H4 C4 1_555 1_555
C5 C4 1_555 1_555
H5 C5 1_555 1_555
C6 C5 1_555 1_555
H6 C6 1_555 1_555
C7 C6 1_555 1_555
H7 C7 1_555 1_555
C8 C3 1_555 1_555
H8 C8 1_555 1_555
F1 K1 1_555 1_555
F2 B1 1_555 1_555
F3 B1 1_555 1_555
B1 C1 1_555 1_555
K1B F1 1_555 1_555
K1_2 F2 1_555 1_555
K1B_2 F3 1_555 1_555
F1B K1 1_555 1_555
F2_2 K1 1_555 1_555
F2B K1 1_555 1_555
F3B K1 1_555 1_555
C7 C8 1_555 1_555
F1 B1 1_555 1_555
F2 K1B 1_555 1_555
K1B F2B 1_555 1_555

#END
