
#######################################################################
#
#                 Cambridge Crystallographic Data Centre
#                                CCDC 
#
#######################################################################
#
# If this CIF has been generated from an entry in the Cambridge 
# Structural Database, then it will include bibliographic, chemical, 
# crystal, experimental, refinement or atomic coordinate data resulting 
# from the CCDC's data processing and validation procedures.
#
#######################################################################

data_LEHGEM
_symmetry_cell_setting           monoclinic
_symmetry_space_group_name_H-M   'P 21/c'
_symmetry_Int_Tables_number      14
_space_group_name_Hall           '-P 2ybc'
loop_
_symmetry_equiv_pos_site_id
_symmetry_equiv_pos_as_xyz
1 x,y,z
2 -x,1/2+y,1/2-z
3 -x,-y,-z
4 x,1/2-y,1/2+z
_cell_length_a                   10.1866(3)
_cell_length_b                   13.6980(3)
_cell_length_c                   21.7030(6)
_cell_angle_alpha                90
_cell_angle_beta                 111.174(2)
_cell_angle_gamma                90
_cell_volume                     2823.9
loop_
_atom_site_label
_atom_site_type_symbol
_atom_site_fract_x
_atom_site_fract_y
_atom_site_fract_z
Ni1 Ni 0.42678(4) 0.81298(3) 0.86654(2)
O1 O 0.2074(2) 0.81261(16) 0.85164(11)
O2 O 0.3689(2) 0.79683(16) 0.95050(11)
O3 O -0.3597(2) 0.81335(18) 0.91252(11)
O4 O -0.2948(2) 0.8308(2) 0.82543(12)
O5 O 0.2692(2) 0.75667(19) 1.15849(12)
O6 O 0.4295(2) 0.82607(17) 0.77310(11)
H1 H 0.3729 0.8019 0.7373
H2 H 0.5171 0.8219 0.7804
N1 N 0.4236(3) 0.9691(2) 0.87333(16)
N2 N 0.4261(3) 1.65746(19) 0.86079(14)
C1 C 0.1303(3) 0.8117(2) 0.94387(16)
C2 C 0.1668(3) 0.7974(2) 1.01139(17)
H3 H 0.2610 0.7912 1.0383
C3 C 0.0630(3) 0.7924(2) 1.03897(16)
C4 C -0.0783(3) 0.8035(2) 0.99786(16)
H4 H -0.1478 0.8007 1.0162
C5 C -0.1164(3) 0.8184(2) 0.93095(16)
C6 C -0.0103(3) 0.8222(2) 0.90399(16)
H5 H -0.0345 0.8318 0.8588
C7 C 0.2423(3) 0.8062(2) 0.91300(17)
C8 C -0.2691(3) 0.8216(2) 0.88494(16)
C9 C 0.0171(3) 0.8171(3) 1.16355(17)
C10 C -0.0222(4) 0.7750(3) 1.2120(2)
H6 H -0.0102 0.7083 1.2199
C11 C -0.0793(5) 0.8311(3) 1.2489(2)
H7 H -0.1076 0.8018 1.2808
C12 C -0.0943(5) 0.9305(3) 1.2386(2)
H8 H -0.1304 0.9686 1.2643
C13 C -0.0560(4) 0.9727(3) 1.1908(2)
H9 H -0.0673 1.0396 1.1835
C14 C -0.0007(4) 0.9168(3) 1.15294(19)
H10 H 0.0247 0.9463 1.1203
C15 C 0.0537(4) 0.6256(3) 1.11215(18)
C16 C -0.0846(5) 0.5991(3) 1.0956(2)
H11 H -0.1515 0.6454 1.0956
C17 C -0.1247(6) 0.5019(4) 1.0788(3)
H12 H -0.2179 0.4829 1.0679
C18 C -0.0238(8) 0.4353(4) 1.0787(3)
H13 H -0.0503 0.3712 1.0662
C19 C 0.1130(7) 0.4611(4) 1.0965(3)
H14 H 0.1799 0.4144 1.0973
C20 C 0.1536(5) 0.5558(3) 1.1132(2)
H15 H 0.2477 0.5734 1.1253
C21 C 0.3952(4) 1.0150(3) 0.92197(19)
H16 H 0.3723 0.9770 0.9522
C22 C 0.3981(4) 1.1145(3) 0.9296(2)
H17 H 0.3784 1.1421 0.9645
C23 C 0.4301(4) 1.1727(3) 0.8860(2)
C24 C 0.4573(4) 1.1272(3) 0.8351(2)
H18 H 0.4776 1.1641 0.8037
C25 C 0.4542(4) 1.0257(3) 0.8312(2)
H19 H 0.4748 0.9963 0.7971
C26 C 0.4401(4) 1.2818(3) 0.8951(2)
H20 H 0.4719 1.3061 0.9380
C27 C 0.4072(4) 1.3439(3) 0.8468(2)
H21 H 0.3746 1.3186 0.8042
C28 C 0.4170(4) 1.4519(3) 0.8536(2)
C29 C 0.5025(4) 1.5007(3) 0.9098(2)
H22 H 0.5582 1.4656 0.9467
C30 C 0.5046(4) 1.6028(3) 0.91086(19)
H23 H 0.5643 1.6339 0.9487
C31 C 0.3449(4) 1.6099(3) 0.8069(2)
H24 H 0.2893 1.6466 0.7709
C32 C 0.3386(4) 1.5088(3) 0.8013(2)
H25 H 0.2810 1.4798 0.7622
P1 P 0.11389(9) 0.75019(7) 1.12316(4)
Ni1_2 Ni -0.57322(4) 0.81298(3) 0.86654(2)
Ni1_3 Ni 0.42678(4) 1.81298(3) 0.86654(2)
O3_2 O 0.6403(2) 0.81335(18) 0.91252(11)
N2_2 N 0.4261(3) 0.65746(19) 0.86079(14)
loop_
_geom_bond_atom_site_label_1
_geom_bond_atom_site_label_2
_geom_bond_site_symmetry_1
_geom_bond_site_symmetry_2
Ni1 O1 1_555 1_555
O1 C7 1_555 1_555
O2 Ni1 1_555 1_555
O3 C8 1_555 1_555
O4 C8 1_555 1_555
O5 P1 1_555 1_555
O6 Ni1 1_555 1_555
H1 O6 1_555 1_555
H2 O6 1_555 1_555
N1 Ni1 1_555 1_555
N2 C30 1_555 1_555
C1 C2 1_555 1_555
C2 H3 1_555 1_555
C3 C2 1_555 1_555
C4 C3 1_555 1_555
H4 C4 1_555 1_555
C5 C4 1_555 1_555
C6 C1 1_555 1_555
H5 C6 1_555 1_555
C7 O2 1_555 1_555
C8 C5 1_555 1_555
C9 C10 1_555 1_555
C10 H6 1_555 1_555
C11 C10 1_555 1_555
H7 C11 1_555 1_555
C12 C11 1_555 1_555
H8 C12 1_555 1_555
C13 C12 1_555 1_555
H9 C13 1_555 1_555
C14 C9 1_555 1_555
H10 C14 1_555 1_555
C15 C16 1_555 1_555
C16 H11 1_555 1_555
C17 C16 1_555 1_555
H12 C17 1_555 1_555
C18 C17 1_555 1_555
H13 C18 1_555 1_555
C19 C18 1_555 1_555
H14 C19 1_555 1_555
C20 C15 1_555 1_555
H15 C20 1_555 1_555
C21 N1 1_555 1_555
H16 C21 1_555 1_555
C22 C21 1_555 1_555
H17 C22 1_555 1_555
C23 C22 1_555 1_555
C24 C23 1_555 1_555
H18 C24 1_555 1_555
C25 N1 1_555 1_555
H19 C25 1_555 1_555
C26 C23 1_555 1_555
H20 C26 1_555 1_555
C27 C26 1_555 1_555
H21 C27 1_555 1_555
C28 C27 1_555 1_555
C29 C28 1_555 1_555
H22 C29 1_555 1_555
C30 C29 1_555 1_555
H23 C30 1_555 1_555
C31 N2 1_555 1_555
H24 C31 1_555 1_555
C32 C28 1_555 1_555
H25 C32 1_555 1_555
P1 C3 1_555 1_555
Ni1_2 O3 1_555 1_555
Ni1_3 N2 1_555 1_555
O3_2 Ni1 1_555 1_555
N2_2 Ni1 1_555 1_555
C1 C7 1_555 1_555
C5 C6 1_555 1_555
C9 P1 1_555 1_555
C13 C14 1_555 1_555
C15 P1 1_555 1_555
C19 C20 1_555 1_555
C24 C25 1_555 1_555
C31 C32 1_555 1_555

#END
