
#######################################################################
#
#                 Cambridge Crystallographic Data Centre
#                                CCDC 
#
#######################################################################
#
# If this CIF has been generated from an entry in the Cambridge 
# Structural Database, then it will include bibliographic, chemical, 
# crystal, experimental, refinement or atomic coordinate data resulting 
# from the CCDC's data processing and validation procedures.
#
#######################################################################

data_LEHJEO
_symmetry_cell_setting           monoclinic
_symmetry_space_group_name_H-M   'P 2/c'
_symmetry_Int_Tables_number      13
_space_group_name_Hall           '-P 2yc'
loop_
_symmetry_equiv_pos_site_id
_symmetry_equiv_pos_as_xyz
1 x,y,z
2 -x,y,1/2-z
3 -x,-y,-z
4 x,-y,1/2+z
_cell_length_a                   10.0581(11)
_cell_length_b                   11.4012(13)
_cell_length_c                   16.107(2)
_cell_angle_alpha                90
_cell_angle_beta                 103.435(3)
_cell_angle_gamma                90
_cell_volume                     1796.51
loop_
_atom_site_label
_atom_site_type_symbol
_atom_site_fract_x
_atom_site_fract_y
_atom_site_fract_z
C1 C -0.1790(6) -0.2039(6) 0.0909(5)
C2 C -0.0538(5) -0.1889(5) 0.0534(4)
C3 C -0.0661(6) -0.1576(7) -0.0294(4)
H1 H -0.1529 -0.1465 -0.0642
C4 C 0.0447(6) -0.1421(8) -0.0624(5)
H2 H 0.0346 -0.1183 -0.1188
C5 C 0.1731(6) -0.1625(7) -0.0109(4)
H3 H 0.2494 -0.1540 -0.0337
C6 C 0.1902(5) -0.1943(5) 0.0714(4)
C7 C 0.0731(5) -0.2060(5) 0.1050(4)
H4 H 0.0824 -0.2253 0.1621
C8 C 0.3294(5) -0.2163(5) 0.1281(4)
C9 C 0.7140(7) -0.9731(7) 0.2254(5)
H5 H 0.7802 -1.0148 0.2641
C10 C 0.7229(7) -0.8533(7) 0.2276(5)
H6 H 0.7937 -0.8157 0.2656
C11 C 0.6253(6) -0.7906(6) 0.1726(4)
C12 C 0.5276(6) -0.8517(6) 0.1180(5)
H7 H 0.4599 -0.8118 0.0791
C13 C 0.5270(7) -0.9681(7) 0.1191(5)
H8 H 0.4582 -1.0065 0.0800
C14 C 0.6270(7) -0.6603(6) 0.1705(5)
C15 C 0.7286(9) -0.5906(9) 0.2146(7)
H9 H 0.8030 -0.6255 0.2515
C16 C 0.7260(8) -0.4737(8) 0.2070(7)
H10 H 0.8032 -0.4332 0.2359
C17 C 0.5240(10) -0.5964(10) 0.1222(8)
H11 H 0.4477 -0.6350 0.0902
C18 C 0.5293(12) -0.4719(8) 0.1190(8)
H12 H 0.4581 -0.4323 0.0826
O1 O 0.4285(3) -0.2206(4) 0.0921(3)
O2 O 0.3410(4) -0.2326(4) 0.2049(3)
O3 O -0.1642(4) -0.2162(4) 0.1692(3)
O4 O -0.2943(4) -0.2066(5) 0.0406(3)
N1 N 0.6274(6) -0.4123(5) 0.1639(4)
N2 N 0.6190(6) -1.0341(5) 0.1728(4)
Zn1 Zn 0.62405(6) -0.22383(7) 0.16416(5)
O2A O 0.6590(4) -0.2326(4) 0.2951(3)
O3_2 O 0.8358(4) -0.2162(4) 0.1692(3)
O4_2 O 0.7057(4) -0.2066(5) 0.0406(3)
N2_2 N 0.6190(6) -0.0341(5) 0.1728(4)
Zn1A Zn 0.37595(6) -0.22383(7) 0.33584(5)
Zn1_2 Zn -0.37595(6) -0.22383(7) 0.16416(5)
Zn1_3 Zn 0.62405(6) -1.22383(7) 0.16416(5)
loop_
_geom_bond_atom_site_label_1
_geom_bond_atom_site_label_2
_geom_bond_site_symmetry_1
_geom_bond_site_symmetry_2
C1 C2 1_555 1_555
C2 C3 1_555 1_555
C3 H1 1_555 1_555
C4 C3 1_555 1_555
H2 C4 1_555 1_555
C5 C4 1_555 1_555
H3 C5 1_555 1_555
C6 C5 1_555 1_555
C7 C2 1_555 1_555
H4 C7 1_555 1_555
C8 C6 1_555 1_555
C9 H5 1_555 1_555
C10 C9 1_555 1_555
H6 C10 1_555 1_555
C11 C10 1_555 1_555
C12 C11 1_555 1_555
H7 C12 1_555 1_555
C13 C12 1_555 1_555
H8 C13 1_555 1_555
C14 C11 1_555 1_555
C15 C14 1_555 1_555
H9 C15 1_555 1_555
C16 C15 1_555 1_555
H10 C16 1_555 1_555
C17 C14 1_555 1_555
H11 C17 1_555 1_555
C18 C17 1_555 1_555
H12 C18 1_555 1_555
O1 C8 1_555 1_555
O2 C8 1_555 1_555
O3 C1 1_555 1_555
O4 C1 1_555 1_555
N1 C16 1_555 1_555
N2 C9 1_555 1_555
Zn1 O1 1_555 1_555
O2A Zn1 1_555 1_555
O3_2 Zn1 1_555 1_555
O4_2 Zn1 1_555 1_555
N2_2 Zn1 1_555 1_555
Zn1A O2 1_555 1_555
Zn1_2 O3 1_555 1_555
Zn1_3 N2 1_555 1_555
C6 C7 1_555 1_555
C13 N2 1_555 1_555
C18 N1 1_555 1_555
O4 Zn1_2 1_555 1_555
N1 Zn1 1_555 1_555

#END
