
#######################################################################
#
#                 Cambridge Crystallographic Data Centre
#                                CCDC 
#
#######################################################################
#
# If this CIF has been generated from an entry in the Cambridge 
# Structural Database, then it will include bibliographic, chemical, 
# crystal, experimental, refinement or atomic coordinate data resulting 
# from the CCDC's data processing and validation procedures.
#
#######################################################################

data_LEHJIS
_symmetry_cell_setting           monoclinic
_symmetry_space_group_name_H-M   'C 2/m'
_symmetry_Int_Tables_number      12
_space_group_name_Hall           '-C 2y'
loop_
_symmetry_equiv_pos_site_id
_symmetry_equiv_pos_as_xyz
1 x,y,z
2 1/2+x,1/2+y,z
3 -x,y,-z
4 1/2-x,1/2+y,-z
5 -x,-y,-z
6 1/2-x,1/2-y,-z
7 x,-y,z
8 1/2+x,1/2-y,z
_cell_length_a                   14.849(3)
_cell_length_b                   7.1407(6)
_cell_length_c                   8.7237(15)
_cell_angle_alpha                90
_cell_angle_beta                 113.751(13)
_cell_angle_gamma                90
_cell_volume                     846.651
loop_
_atom_site_label
_atom_site_type_symbol
_atom_site_fract_x
_atom_site_fract_y
_atom_site_fract_z
O6 O 0.5695(2) 0.5000 0.6635(4)
H4 H 0.624(2) 0.5000 0.655(8)
Cu1 Cu 0.91085(3) 0.5000 1.06457(5)
C1 C 0.8398(3) 0.5000 0.7198(5)
O1 O 0.92114(18) 0.5000 0.8482(3)
O2 O 0.7617(3) 0.5506(8) 0.7315(5)
C2 C 0.8529(3) 0.5000 0.5582(5)
H1 H 0.9174 0.5000 0.5672
C3 C 0.7835(3) 0.5000 0.4043(5)
Cl1 Cl 0.65892(7) 0.5000 0.35671(12)
C4 C 0.8088(3) 0.5000 0.2530(5)
O3 O 0.8999(2) 0.5000 1.2814(3)
O4 O 0.7420(2) 0.5000 0.1107(4)
O5 O 0.91202(18) 0.7759(3) 1.0631(3)
H2 H 0.863(2) 0.825(7) 0.986(4)
H3 H 0.913(5) 0.822(8) 1.154(4)
Cu1D Cu 1.08915(3) 0.5000 0.93543(5)
O1D O 1.07886(18) 0.5000 1.1518(3)
O2F O 0.7617(3) 0.4494(8) 0.7315(5)
C4_2 C 0.8088(3) 0.5000 1.2530(5)
O3_2 O 0.8999(2) 0.5000 0.2814(3)
O5F O 0.91202(18) 0.2241(3) 1.0631(3)
loop_
_geom_bond_atom_site_label_1
_geom_bond_atom_site_label_2
_geom_bond_site_symmetry_1
_geom_bond_site_symmetry_2
Cu1 O1 1_555 1_555
C1 O1 1_555 1_555
O1 Cu1D 1_555 1_555
O2 C1 1_555 1_555
C2 C1 1_555 1_555
H1 C2 1_555 1_555
C3 C2 1_555 1_555
Cl1 C3 1_555 1_555
C4 C3 1_555 1_555
O3 Cu1 1_555 1_555
O4 C4 1_555 1_555
O5 Cu1 1_555 1_555
H2 O5 1_555 1_555
H3 O5 1_555 1_555
O6 H4 1_555 1_555
Cu1D O1D 1_555 1_555
O1D Cu1 1_555 1_555
O2F C1 1_555 1_555
C4_2 O3 1_555 1_555
O3_2 C4 1_555 1_555
O5F Cu1 1_555 1_555
O2 O2F 1_555 1_555

#END
