
#######################################################################
#
#                 Cambridge Crystallographic Data Centre
#                                CCDC 
#
#######################################################################
#
# If this CIF has been generated from an entry in the Cambridge 
# Structural Database, then it will include bibliographic, chemical, 
# crystal, experimental, refinement or atomic coordinate data resulting 
# from the CCDC's data processing and validation procedures.
#
#######################################################################

data_LEHJIT
_symmetry_cell_setting           monoclinic
_symmetry_space_group_name_H-M   'P 21/n'
_symmetry_Int_Tables_number      14
_space_group_name_Hall           '-P 2yn'
loop_
_symmetry_equiv_pos_site_id
_symmetry_equiv_pos_as_xyz
1 x,y,z
2 1/2-x,1/2+y,1/2-z
3 -x,-y,-z
4 1/2+x,1/2-y,1/2+z
_cell_length_a                   7.8524(16)
_cell_length_b                   15.345(3)
_cell_length_c                   18.778(4)
_cell_angle_alpha                90
_cell_angle_beta                 99.72(3)
_cell_angle_gamma                90
_cell_volume                     2230.18
loop_
_atom_site_label
_atom_site_type_symbol
_atom_site_fract_x
_atom_site_fract_y
_atom_site_fract_z
O1 O 0.6161(4) 0.7767(2) 0.64914(18)
O2 O 0.8475(5) 0.7208(2) 0.61748(19)
C1 C 0.6932(7) 0.7120(3) 0.6281(3)
C2 C 0.6083(6) 0.6252(3) 0.6175(2)
C3 C 0.4465(7) 0.6116(3) 0.6354(3)
H1 H 0.3881 0.6578 0.6524
C4 C 0.6901(6) 0.5560(3) 0.5906(2)
H2 H 0.7981 0.5640 0.5776
C5 C 0.3704(7) 0.5299(3) 0.6283(3)
H3 H 0.2624 0.5210 0.6411
Co1 Co 0.83126(8) 0.85628(4) 0.65218(3)
O3 O 0.5626(4) 0.3396(2) 0.73244(17)
C6 C 0.6145(7) 1.1524(3) 0.5206(4)
H4 H 0.5683 1.2083 0.5145
O4 O 0.3900(4) 0.3788(2) 0.59100(17)
N1 N 0.8179(5) 0.9027(2) 0.5475(2)
C7 C 0.0948(7) 0.3431(3) 0.5734(3)
H5 H 0.0913 0.3523 0.5242
C8 C 0.7004(6) 1.0268(3) 0.5982(3)
C9 C 0.4169(6) 0.3533(3) 0.7488(3)
O5 O 0.4041(4) 0.3737(2) 0.81312(18)
C10 C 0.2449(6) 0.3566(3) 0.6210(3)
N2 N 0.7221(5) 0.9804(2) 0.6613(2)
C11 C 0.2544(6) 0.3446(3) 0.6948(2)
C12 C 0.4557(6) 0.4624(3) 0.6022(2)
C13 C 0.6311(6) 1.1116(3) 0.5902(3)
C14 C 0.5839(7) 1.1477(4) 0.6517(4)
H6 H 0.5380 1.2037 0.6496
C15 C 0.8667(6) 0.8639(4) 0.4921(3)
H7 H 0.9128 0.8081 0.4990
C16 C -0.0473(7) 0.3059(4) 0.6720(4)
H8 H -0.1467 0.2898 0.6894
C17 C 0.6133(7) 0.4752(3) 0.5827(3)
H9 H 0.6690 0.4292 0.5641
C18 C 0.8541(7) 0.9005(4) 0.4237(3)
H10 H 0.8902 0.8698 0.3862
C19 C -0.0513(7) 0.3157(4) 0.5990(4)
H11 H -0.1523 0.3039 0.5668
C20 C 0.7882(7) 0.9819(4) 0.4128(3)
H12 H 0.7785 1.0077 0.3675
C21 C 0.6642(7) 1.1121(4) 0.4642(4)
H13 H 0.6517 1.1409 0.4200
C22 C 0.7349(6) 1.0271(4) 0.4696(3)
C23 C 0.6750(7) 1.0179(4) 0.7184(3)
H14 H 0.6894 0.9877 0.7620
C24 C 0.6037(8) 1.1026(4) 0.7150(4)
H15 H 0.5704 1.1274 0.7558
C25 C 0.1048(7) 0.3200(3) 0.7192(3)
H16 H 0.1069 0.3127 0.7685
C26 C 0.7513(6) 0.9845(3) 0.5371(3)
Co1A Co 0.66874(8) 0.35628(4) 0.84782(3)
O3A O 0.9374(4) 0.8396(2) 0.76756(17)
O5A O 1.0959(4) 0.8737(2) 0.68688(18)
loop_
_geom_bond_atom_site_label_1
_geom_bond_atom_site_label_2
_geom_bond_site_symmetry_1
_geom_bond_site_symmetry_2
O1 C1 1_555 1_555
O2 C1 1_555 1_555
C1 C2 1_555 1_555
C2 C3 1_555 1_555
C3 H1 1_555 1_555
C4 C2 1_555 1_555
H2 C4 1_555 1_555
C5 C3 1_555 1_555
H3 C5 1_555 1_555
Co1 O1 1_555 1_555
O3 C9 1_555 1_555
C6 H4 1_555 1_555
O4 C10 1_555 1_555
N1 Co1 1_555 1_555
C7 H5 1_555 1_555
C8 N2 1_555 1_555
C9 O5 1_555 1_555
O5 Co1A 1_555 1_555
C10 C7 1_555 1_555
N2 Co1 1_555 1_555
C11 C9 1_555 1_555
C12 C5 1_555 1_555
C13 C6 1_555 1_555
C14 C13 1_555 1_555
H6 C14 1_555 1_555
C15 N1 1_555 1_555
H7 C15 1_555 1_555
C16 H8 1_555 1_555
C17 C4 1_555 1_555
H9 C17 1_555 1_555
C18 C15 1_555 1_555
H10 C18 1_555 1_555
C19 C7 1_555 1_555
H11 C19 1_555 1_555
C20 C18 1_555 1_555
H12 C20 1_555 1_555
C21 C6 1_555 1_555
H13 C21 1_555 1_555
C22 C20 1_555 1_555
C23 N2 1_555 1_555
H14 C23 1_555 1_555
C24 C14 1_555 1_555
H15 C24 1_555 1_555
C25 C11 1_555 1_555
H16 C25 1_555 1_555
C26 N1 1_555 1_555
Co1A O3 1_555 1_555
O3A Co1 1_555 1_555
O5A Co1 1_555 1_555
O2 Co1 1_555 1_555
O4 C12 1_555 1_555
C8 C13 1_555 1_555
C8 C26 1_555 1_555
C10 C11 1_555 1_555
C12 C17 1_555 1_555
C16 C19 1_555 1_555
C16 C25 1_555 1_555
C21 C22 1_555 1_555
C22 C26 1_555 1_555
C23 C24 1_555 1_555

#END
