
#######################################################################
#
#                 Cambridge Crystallographic Data Centre
#                                CCDC 
#
#######################################################################
#
# If this CIF has been generated from an entry in the Cambridge 
# Structural Database, then it will include bibliographic, chemical, 
# crystal, experimental, refinement or atomic coordinate data resulting 
# from the CCDC's data processing and validation procedures.
#
#######################################################################

data_LEHKAL
_symmetry_cell_setting           monoclinic
_symmetry_space_group_name_H-M   'P 21/n'
_symmetry_Int_Tables_number      14
_space_group_name_Hall           '-P 2yn'
loop_
_symmetry_equiv_pos_site_id
_symmetry_equiv_pos_as_xyz
1 x,y,z
2 1/2-x,1/2+y,1/2-z
3 -x,-y,-z
4 1/2+x,1/2-y,1/2+z
_cell_length_a                   8.5100(10)
_cell_length_b                   9.2770(10)
_cell_length_c                   16.464(2)
_cell_angle_alpha                90
_cell_angle_beta                 100.337(2)
_cell_angle_gamma                90
_cell_volume                     1278.69
loop_
_atom_site_label
_atom_site_type_symbol
_atom_site_fract_x
_atom_site_fract_y
_atom_site_fract_z
Gd1 Gd -0.05324(2) 0.59001(2) 0.667158(12)
O1 O 0.1852(4) 0.5669(4) 0.6178(2)
O2 O 0.4165(5) 0.5717(5) 0.7063(2)
C1 C 0.4206(5) 0.5267(5) 0.5654(3)
C2 C 0.3342(5) 0.5584(5) 0.6365(3)
O3 O 0.4905(4) 0.8469(4) 0.5994(3)
O4 O 0.7180(4) 0.7444(4) 0.6598(2)
C3 C 0.5467(5) 0.6161(5) 0.5529(3)
C4 C 0.5875(5) 0.7462(5) 0.6083(3)
O5 O 0.2478(4) 0.2481(4) 0.5925(2)
O6 O 0.1124(4) 0.3149(4) 0.4704(2)
C5 C 0.3729(5) 0.4114(4) 0.5128(3)
C6 C 0.2348(5) 0.3173(5) 0.5269(3)
O7 O -0.0098(7) 0.6526(9) 0.8096(3)
O8 O 0.0840(6) 0.3877(7) 0.7411(4)
O9 O 0.0609(5) 0.8275(5) 0.6812(3)
O10 O -0.2596(4) 0.4643(5) 0.7233(2)
O11 O -0.1150(5) 0.3868(4) 0.5779(2)
H1 H -0.0793 0.6303 0.8359
H2 H 0.0342 0.7299 0.8229
H3 H 0.0910 0.3116 0.7167
H4 H 0.0384 0.3699 0.7798
H5 H 0.1031 0.8729 0.7221
H6 H 0.1485 0.7932 0.6782
H7 H -0.3426 0.5077 0.7254
H8 H -0.2410 0.4019 0.7590
H9 H -0.1722 0.3169 0.5818
H10 H -0.0983 0.3895 0.5304
Gd1B Gd 1.05324(2) 0.40999(2) 0.332842(12)
Gd1_2 Gd 0.94676(2) 0.59001(2) 0.667158(12)
Gd1B_2 Gd 0.05324(2) 0.40999(2) 0.332842(12)
O1B O 0.8148(4) 0.4331(4) 0.3822(2)
O2B O 0.5835(5) 0.4283(5) 0.2937(2)
C1B C 0.5794(5) 0.4733(5) 0.4346(3)
C2B C 0.6658(5) 0.4416(5) 0.3635(3)
O3B O 0.5095(4) 0.1531(4) 0.4006(3)
O4B O 0.2820(4) 0.2556(4) 0.3402(2)
O4_2 O -0.2820(4) 0.7444(4) 0.6598(2)
O4B_2 O 1.2820(4) 0.2556(4) 0.3402(2)
C3B C 0.4533(5) 0.3839(5) 0.4471(3)
C4B C 0.4125(5) 0.2538(5) 0.3917(3)
O5B O 0.7522(4) 0.7519(4) 0.4075(2)
O6B O 0.8876(4) 0.6851(4) 0.5296(2)
O6B_2 O -0.1124(4) 0.6851(4) 0.5296(2)
O6_2 O 1.1124(4) 0.3149(4) 0.4704(2)
C5B C 0.6271(5) 0.5886(4) 0.4872(3)
C6B C 0.7652(5) 0.6827(5) 0.4731(3)
O7B O 1.0098(7) 0.3474(9) 0.1904(3)
O8B O 0.9160(6) 0.6123(7) 0.2589(4)
O9B O 0.9391(5) 0.1725(5) 0.3188(3)
O10B O 1.2596(4) 0.5357(5) 0.2767(2)
O11B O 1.1150(5) 0.6132(4) 0.4221(2)
H1B H 1.0793 0.3697 0.1641
H2B H 0.9658 0.2701 0.1771
H3B H 0.9090 0.6884 0.2833
H4B H 0.9616 0.6301 0.2202
H5B H 0.8969 0.1271 0.2779
H6B H 0.8515 0.2068 0.3218
H7B H 1.3426 0.4923 0.2746
H8B H 1.2410 0.5981 0.2410
H9B H 1.1722 0.6831 0.4182
H10B H 1.0983 0.6105 0.4696
O12 O 0.038(3) 0.0217(16) 0.5695(8)
H11 H 0.0980 0.0913 0.5789
H12 H 0.0085 0.0306 0.6140
O13 O 0.6993(8) 0.1409(8) 0.5667(4)
H13 H 0.6451 0.1400 0.5202
H14 H 0.7617 0.0794 0.5559
loop_
_geom_bond_atom_site_label_1
_geom_bond_atom_site_label_2
_geom_bond_site_symmetry_1
_geom_bond_site_symmetry_2
Gd1 O1 1_555 1_555
O1 C2 1_555 1_555
O2 C2 1_555 1_555
C1 C2 1_555 1_555
O3 C4 1_555 1_555
O4 C4 1_555 1_555
C3 C1 1_555 1_555
C4 C3 1_555 1_555
O5 C6 1_555 1_555
O6 C6 1_555 1_555
C5 C1 1_555 1_555
C6 C5 1_555 1_555
O7 Gd1 1_555 1_555
O8 Gd1 1_555 1_555
O9 Gd1 1_555 1_555
O10 Gd1 1_555 1_555
O11 Gd1 1_555 1_555
O12 H11 1_555 1_555
O13 H13 1_555 1_555
H1 O7 1_555 1_555
H2 O7 1_555 1_555
H3 O8 1_555 1_555
H4 O8 1_555 1_555
H5 O9 1_555 1_555
H6 O9 1_555 1_555
H7 O10 1_555 1_555
H8 O10 1_555 1_555
H9 O11 1_555 1_555
H10 O11 1_555 1_555
H12 O12 1_555 1_555
H14 O13 1_555 1_555
Gd1B O1B 1_555 1_555
Gd1_2 O4 1_555 1_555
Gd1B_2 O6 1_555 1_555
O1B C2B 1_555 1_555
O2B C2B 1_555 1_555
C1B C2B 1_555 1_555
O3B C4B 1_555 1_555
O4B Gd1B_2 1_555 1_555
O4_2 Gd1 1_555 1_555
O4B_2 Gd1B 1_555 1_555
C3B C5 1_555 1_555
C4B O4B 1_555 1_555
O5B C6B 1_555 1_555
O6B Gd1_2 1_555 1_555
O6B_2 Gd1 1_555 1_555
O6_2 Gd1B 1_555 1_555
C5B C3 1_555 1_555
C6B O6B 1_555 1_555
O7B Gd1B 1_555 1_555
O8B Gd1B 1_555 1_555
O9B Gd1B 1_555 1_555
O10B Gd1B 1_555 1_555
O11B Gd1B 1_555 1_555
H1B O7B 1_555 1_555
H2B O7B 1_555 1_555
H3B O8B 1_555 1_555
H4B O8B 1_555 1_555
H5B O9B 1_555 1_555
H6B O9B 1_555 1_555
H7B O10B 1_555 1_555
H8B O10B 1_555 1_555
H9B O11B 1_555 1_555
H10B O11B 1_555 1_555
C1B C3B 1_555 1_555
C1B C5B 1_555 1_555
C3B C4B 1_555 1_555
C5B C6B 1_555 1_555

#END
