
#######################################################################
#
#                 Cambridge Crystallographic Data Centre
#                                CCDC 
#
#######################################################################
#
# If this CIF has been generated from an entry in the Cambridge 
# Structural Database, then it will include bibliographic, chemical, 
# crystal, experimental, refinement or atomic coordinate data resulting 
# from the CCDC's data processing and validation procedures.
#
#######################################################################

data_LEHQUM
_symmetry_cell_setting           triclinic
_symmetry_space_group_name_H-M   'P -1'
_symmetry_Int_Tables_number      2
_space_group_name_Hall           '-P 1'
loop_
_symmetry_equiv_pos_site_id
_symmetry_equiv_pos_as_xyz
1 x,y,z
2 -x,-y,-z
_cell_length_a                   9.543(2)
_cell_length_b                   11.121(2)
_cell_length_c                   11.381(2)
_cell_angle_alpha                70.03(3)
_cell_angle_beta                 71.27(3)
_cell_angle_gamma                88.03(3)
_cell_volume                     1071.24
loop_
_atom_site_label
_atom_site_type_symbol
_atom_site_fract_x
_atom_site_fract_y
_atom_site_fract_z
Cu1 Cu 0.11865(4) 0.27261(3) 0.20437(3)
O1 O 0.2694(2) 0.32890(16) 0.02845(18)
O2 O 0.4718(3) 0.3200(3) 0.0881(2)
O3 O 0.2324(3) 0.3238(3) -0.4737(2)
O4 O -0.0535(2) 0.22122(16) 0.36609(17)
O5 O -0.1717(3) 0.2636(2) 0.2207(2)
N1 N 0.4365(3) 0.3819(2) -0.2305(2)
N2 N 0.1132(2) 0.09355(19) 0.1985(2)
N3 N 0.1123(2) -0.54349(19) 0.1965(2)
C1 C 0.4073(3) 0.3444(3) 0.0058(3)
C2 C 0.5017(3) 0.4057(3) -0.1394(3)
H1 H 0.5156 0.4976 -0.1608
H2 H 0.5987 0.3726 -0.1526
C3 C 0.3660(4) 0.4747(3) -0.2956(3)
H3 H 0.3653 0.5537 -0.2844
C4 C 0.2970(4) 0.4590(3) -0.3756(3)
H4 H 0.2525 0.5277 -0.4192
C5 C 0.2900(3) 0.3401(3) -0.3956(3)
C6 C 0.3541(3) 0.2366(3) -0.3155(3)
C7 C 0.3422(3) 0.1112(3) -0.3155(3)
H5 H 0.2886 0.0941 -0.3642
C8 C 0.4068(4) 0.0137(3) -0.2466(3)
H6 H 0.3966 -0.0689 -0.2472
C9 C 0.4884(4) 0.0404(3) -0.1749(3)
H7 H 0.5364 -0.0246 -0.1304
C10 C 0.4991(3) 0.1599(3) -0.1692(3)
H8 H 0.5523 0.1751 -0.1193
C11 C 0.4307(3) 0.2601(3) -0.2377(3)
C12 C -0.1719(3) 0.2234(3) 0.3354(3)
C13 C -0.3133(4) 0.1725(3) 0.4495(3)
H9 H -0.3963 0.1882 0.4175
H10 H -0.3225 0.2150 0.5119
H11 H -0.3117 0.0819 0.4919
C14 C 0.0857(3) -0.0086(2) 0.3104(3)
H12 H 0.0704 0.0056 0.3894
C15 C 0.0791(3) -0.1324(2) 0.3141(3)
H13 H 0.0585 -0.1998 0.3946
C16 C 0.1030(3) -0.1582(2) 0.1983(2)
C17 C 0.1312(3) -0.0516(2) 0.0827(3)
H14 H 0.1474 -0.0631 0.0023
C18 C 0.1352(3) 0.0702(2) 0.0862(3)
H15 H 0.1539 0.1395 0.0074
C19 C 0.1027(3) -0.2911(2) 0.1972(2)
C20 C 0.0947(3) -0.3960(2) 0.3098(3)
H16 H 0.0870 -0.3833 0.3882
C21 C 0.1165(3) -0.3182(2) 0.0836(3)
H17 H 0.1219 -0.2519 0.0053
C22 C 0.1220(3) -0.4430(2) 0.0868(3)
H18 H 0.1331 -0.4584 0.0091
C23 C 0.0982(3) -0.5181(2) 0.3063(3)
H19 H 0.0903 -0.5864 0.3838
O6 O 0.2742(3) 0.2058(2) 0.3379(2)
H20 H 0.271(4) 0.232(3) 0.399(2)
H21 H 0.355(2) 0.232(4) 0.278(2)
Cu1_2 Cu 0.11865(4) -0.72739(3) 0.20437(3)
N3_2 N 0.1123(2) 0.45651(19) 0.1965(2)
loop_
_geom_bond_atom_site_label_1
_geom_bond_atom_site_label_2
_geom_bond_site_symmetry_1
_geom_bond_site_symmetry_2
Cu1 O1 1_555 1_555
O1 C1 1_555 1_555
O2 C1 1_555 1_555
O3 C5 1_555 1_555
O4 Cu1 1_555 1_555
O5 Cu1 1_555 1_555
N1 C2 1_555 1_555
N2 Cu1 1_555 1_555
N3 C22 1_555 1_555
C1 C2 1_555 1_555
C2 H1 1_555 1_555
H2 C2 1_555 1_555
C3 N1 1_555 1_555
H3 C3 1_555 1_555
C4 C3 1_555 1_555
H4 C4 1_555 1_555
C5 C4 1_555 1_555
C6 C5 1_555 1_555
C7 C6 1_555 1_555
H5 C7 1_555 1_555
C8 C7 1_555 1_555
H6 C8 1_555 1_555
C9 C8 1_555 1_555
H7 C9 1_555 1_555
C10 C9 1_555 1_555
H8 C10 1_555 1_555
C11 N1 1_555 1_555
C12 O4 1_555 1_555
C13 C12 1_555 1_555
H9 C13 1_555 1_555
H10 C13 1_555 1_555
H11 C13 1_555 1_555
C14 N2 1_555 1_555
H12 C14 1_555 1_555
C15 C14 1_555 1_555
H13 C15 1_555 1_555
C16 C15 1_555 1_555
C17 C16 1_555 1_555
H14 C17 1_555 1_555
C18 N2 1_555 1_555
H15 C18 1_555 1_555
C19 C16 1_555 1_555
C20 C19 1_555 1_555
H16 C20 1_555 1_555
C21 C19 1_555 1_555
H17 C21 1_555 1_555
C22 C21 1_555 1_555
H18 C22 1_555 1_555
C23 N3 1_555 1_555
H19 C23 1_555 1_555
O6 Cu1 1_555 1_555
H20 O6 1_555 1_555
H21 O6 1_555 1_555
Cu1_2 N3 1_555 1_555
N3_2 Cu1 1_555 1_555
O5 C12 1_555 1_555
C6 C11 1_555 1_555
C10 C11 1_555 1_555
C17 C18 1_555 1_555
C20 C23 1_555 1_555

#END
