
#######################################################################
#
#                 Cambridge Crystallographic Data Centre
#                                CCDC 
#
#######################################################################
#
# If this CIF has been generated from an entry in the Cambridge 
# Structural Database, then it will include bibliographic, chemical, 
# crystal, experimental, refinement or atomic coordinate data resulting 
# from the CCDC's data processing and validation procedures.
#
#######################################################################

data_LEHRUN
_symmetry_cell_setting           monoclinic
_symmetry_space_group_name_H-M   'P 21/c'
_symmetry_Int_Tables_number      14
_space_group_name_Hall           '-P 2ybc'
loop_
_symmetry_equiv_pos_site_id
_symmetry_equiv_pos_as_xyz
1 x,y,z
2 -x,1/2+y,1/2-z
3 -x,-y,-z
4 x,1/2-y,1/2+z
_cell_length_a                   6.7235(10)
_cell_length_b                   17.260(4)
_cell_length_c                   8.1904(10)
_cell_angle_alpha                90
_cell_angle_beta                 108.994(10)
_cell_angle_gamma                90
_cell_volume                     898.725
loop_
_atom_site_label
_atom_site_type_symbol
_atom_site_fract_x
_atom_site_fract_y
_atom_site_fract_z
K1 K -0.28085(12) 0.24637(4) 0.48217(9)
S1 S 0.06278(13) 0.33317(4) 0.80745(11)
S2 S -0.36659(13) 0.40147(4) 0.69871(12)
O1 O 0.1501(4) 0.63219(12) 0.7257(3)
O2 O -0.5955(4) 0.27515(16) 0.1617(4)
N1 N -0.0172(4) 0.48486(13) 0.7705(3)
C1 C -0.1003(5) 0.41338(15) 0.7601(4)
C2 C -0.1460(5) 0.55521(16) 0.7417(4)
C3 C -0.0660(5) 0.61438(18) 0.6426(4)
C4 C 0.2719(5) 0.56303(18) 0.7376(5)
C5 C 0.2096(4) 0.50131(17) 0.8419(4)
H1 H -0.682(6) 0.3070(18) 0.093(5)
H2 H -0.14220 0.57690 0.85190
H3 H -0.29080 0.54230 0.67750
H4 H -0.645(7) 0.2294(12) 0.154(6)
H5 H -0.08450 0.59460 0.52770
H6 H -0.14850 0.66140 0.63060
H7 H 0.41980 0.57520 0.79090
H8 H 0.25230 0.54350 0.62230
H9 H 0.28850 0.45430 0.84110
H10 H 0.24380 0.51850 0.96060
K1C K -0.28085(12) 0.25363(4) 0.98217(9)
K1A K 0.28085(12) 0.74637(4) 1.01783(9)
K1B K 0.28085(12) 0.75363(4) 0.51783(9)
K1C_2 K -0.28085(12) 0.25363(4) -0.01783(9)
S1C S 0.06278(13) 0.16683(4) 0.30745(11)
S2C S -0.36659(13) 0.09853(4) 0.19871(12)
O1A O -0.1501(4) 0.13219(12) 0.7743(3)
O1B O -0.1501(4) 0.36781(12) 0.2743(3)
O2C O -0.5955(4) 0.22485(16) 0.6617(4)
H1C H -0.682(6) 0.1930(18) 0.593(5)
H4C H -0.645(7) 0.2706(12) 0.654(6)
loop_
_geom_bond_atom_site_label_1
_geom_bond_atom_site_label_2
_geom_bond_site_symmetry_1
_geom_bond_site_symmetry_2
K1 S1 1_555 1_555
S1 C1 1_555 1_555
S2 K1 1_555 1_555
O1 C3 1_555 1_555
O2 K1 1_555 1_555
N1 C1 1_555 1_555
C1 S2 1_555 1_555
C2 N1 1_555 1_555
C3 C2 1_555 1_555
C4 O1 1_555 1_555
C5 N1 1_555 1_555
H1 O2 1_555 1_555
H2 C2 1_555 1_555
H3 C2 1_555 1_555
H4 O2 1_555 1_555
H5 C3 1_555 1_555
H6 C3 1_555 1_555
H7 C4 1_555 1_555
H8 C4 1_555 1_555
H9 C5 1_555 1_555
H10 C5 1_555 1_555
K1C S1 1_555 1_555
K1A O1 1_555 1_555
K1B O1 1_555 1_555
K1C_2 O2 1_555 1_555
S1C K1 1_555 1_555
S2C K1 1_555 1_555
O1A K1 1_555 1_555
O1B K1 1_555 1_555
O2C K1 1_555 1_555
H1C O2C 1_555 1_555
H4C O2C 1_555 1_555
S2 K1C 1_555 1_555
C4 C5 1_555 1_555
K1C O1A 1_555 1_555
K1C O2C 1_555 1_555
K1C_2 S1C 1_555 1_555
K1C_2 S2C 1_555 1_555
K1C_2 O1B 1_555 1_555

#END
