
#######################################################################
#
#                 Cambridge Crystallographic Data Centre
#                                CCDC 
#
#######################################################################
#
# If this CIF has been generated from an entry in the Cambridge 
# Structural Database, then it will include bibliographic, chemical, 
# crystal, experimental, refinement or atomic coordinate data resulting 
# from the CCDC's data processing and validation procedures.
#
#######################################################################

data_LEHROH
_symmetry_cell_setting           monoclinic
_symmetry_space_group_name_H-M   'C 2/c'
_symmetry_Int_Tables_number      15
_space_group_name_Hall           '-C 2yn'
loop_
_symmetry_equiv_pos_site_id
_symmetry_equiv_pos_as_xyz
1 x,y,z
2 -x,y,1/2-z
3 1/2+x,1/2+y,z
4 1/2-x,1/2+y,1/2-z
5 -x,-y,-z
6 x,-y,1/2+z
7 1/2-x,1/2-y,-z
8 1/2+x,1/2-y,1/2+z
_cell_length_a                   25.366(8)
_cell_length_b                   5.8326(14)
_cell_length_c                   19.008(6)
_cell_angle_alpha                90
_cell_angle_beta                 124.136(4)
_cell_angle_gamma                90
_cell_volume                     2327.7
loop_
_atom_site_label
_atom_site_type_symbol
_atom_site_fract_x
_atom_site_fract_y
_atom_site_fract_z
Eu1 Eu 0.866707(10) 0.33845(4) 0.887181(14)
S1 S 0.80798(6) 0.9941(2) 1.06308(7)
S2 S 1.0000 0.3059(3) 0.7500
O1 O 0.89384(19) 0.6700(5) 0.9736(2)
O2 O 0.84987(18) 1.0175(6) 0.9448(2)
O3 O 0.73304(15) 1.0491(6) 1.1396(2)
O4 O 0.79280(18) 0.8095(6) 1.2483(2)
O5 O 0.92823(17) 0.0273(6) 0.8657(2)
O6 O 0.94444(17) 0.3894(6) 0.8480(2)
O7 O 0.83645(19) 0.6714(5) 0.7928(2)
H1 H 0.7974 0.7025 0.7705
H2 H 0.8592 0.7858 0.8214
O8 O 0.96903(18) 0.2934(7) 1.0254(2)
H3 H 0.9831 0.4248 1.0475
H4 H 0.9956 0.2279 1.0181
C1 C 0.8071(2) 0.8205(8) 1.1351(3)
C2 C 0.8346(2) 0.6106(9) 1.1426(3)
H5 H 0.8382 0.4945 1.1786
C3 C 0.8565(2) 0.5928(9) 1.0900(3)
H6 H 0.8758 0.4617 1.0866
C4 C 0.8467(2) 0.7877(9) 1.0438(3)
C5 C 0.8649(2) 0.8288(7) 0.9835(3)
C6 C 0.7759(2) 0.8985(8) 1.1773(3)
C7 C 0.9866(3) -0.1143(10) 0.7733(4)
C8 C 0.9766(2) 0.1034(9) 0.7912(3)
C9 C 0.9486(2) 0.1754(8) 0.8384(3)
H7 H 0.976(3) -0.227(10) 0.794(3)
Eu1_2 Eu 0.866707(10) -0.66155(4) 0.887181(14)
Eu1_3 Eu 0.866707(10) 1.33845(4) 0.887181(14)
Eu1F Eu 0.633293(10) 1.16155(4) 1.112819(14)
Eu1E Eu 0.866707(10) 0.66155(4) 1.387181(14)
Eu1A Eu 1.133293(10) 0.33845(4) 0.612819(14)
Eu1F_2 Eu 0.633293(10) 0.16155(4) 1.112819(14)
Eu1E_2 Eu 0.866707(10) -0.33845(4) 1.387181(14)
S1_2 S 0.80798(6) -0.0059(2) 1.06308(7)
O1_2 O 0.89384(19) -0.3300(5) 0.9736(2)
O2_2 O 0.84987(18) 0.0175(6) 0.9448(2)
O2_3 O 0.84987(18) -0.9825(6) 0.9448(2)
O3_2 O 0.73304(15) 0.0491(6) 1.1396(2)
O3F O 0.76696(15) 0.4509(6) 0.8604(2)
O3F_2 O 0.76696(15) -0.5491(6) 0.8604(2)
O4_2 O 0.79280(18) -0.1905(6) 1.2483(2)
O4E O 0.79280(18) 0.1905(6) 0.7483(2)
O4E_2 O 0.79280(18) -0.8095(6) 0.7483(2)
O5A O 1.07177(17) 0.0273(6) 0.6343(2)
O5_2 O 0.92823(17) -0.9727(6) 0.8657(2)
O6A O 1.05556(17) 0.3894(6) 0.6520(2)
O6_2 O 0.94444(17) -0.6106(6) 0.8480(2)
O7_2 O 0.83645(19) -0.3286(5) 0.7928(2)
H1_2 H 0.7974 -0.2975 0.7705
H2_2 H 0.8592 -0.2142 0.8214
O8_2 O 0.96903(18) -0.7066(7) 1.0254(2)
H3_2 H 0.9831 -0.5752 1.0475
H4_2 H 0.9956 -0.7721 1.0181
C1_2 C 0.8071(2) -0.1795(8) 1.1351(3)
C2_2 C 0.8346(2) -0.3894(9) 1.1426(3)
H5_2 H 0.8382 -0.5055 1.1786
C3_2 C 0.8565(2) -0.4072(9) 1.0900(3)
H6_2 H 0.8758 -0.5383 1.0866
C4_2 C 0.8467(2) -0.2123(9) 1.0438(3)
C5_2 C 0.8649(2) -0.1712(7) 0.9835(3)
C6_2 C 0.7759(2) -0.1015(8) 1.1773(3)
C7A C 1.0134(3) -0.1143(10) 0.7267(4)
C8A C 1.0234(2) 0.1034(9) 0.7088(3)
C9A C 1.0514(2) 0.1754(8) 0.6616(3)
H7A H 1.024(3) -0.227(10) 0.706(3)
loop_
_geom_bond_atom_site_label_1
_geom_bond_atom_site_label_2
_geom_bond_site_symmetry_1
_geom_bond_site_symmetry_2
Eu1 O1 1_555 1_555
S1 C1 1_555 1_555
S2 C8 1_555 1_555
O1 C5 1_555 1_555
O2 C5 1_555 1_555
O3 C6 1_555 1_555
O4 C6 1_555 1_555
O5 Eu1 1_555 1_555
O6 Eu1 1_555 1_555
O7 Eu1 1_555 1_555
H1 O7 1_555 1_555
H2 O7 1_555 1_555
O8 Eu1 1_555 1_555
H3 O8 1_555 1_555
H4 O8 1_555 1_555
C1 C2 1_555 1_555
C2 H5 1_555 1_555
C3 C2 1_555 1_555
H6 C3 1_555 1_555
C4 S1 1_555 1_555
C5 C4 1_555 1_555
C6 C1 1_555 1_555
C7 C8 1_555 1_555
C8 C9 1_555 1_555
C9 O5 1_555 1_555
H7 C7 1_555 1_555
Eu1_2 O1_2 1_555 1_555
Eu1_3 O2 1_555 1_555
Eu1F O3 1_555 1_555
Eu1E O4 1_555 1_555
Eu1A O5A 1_555 1_555
Eu1F_2 O3_2 1_555 1_555
Eu1E_2 O4_2 1_555 1_555
S1_2 C1_2 1_555 1_555
O1_2 C5_2 1_555 1_555
O2_2 Eu1 1_555 1_555
O2_3 Eu1_2 1_555 1_555
O3_2 C6_2 1_555 1_555
O3F Eu1 1_555 1_555
O3F_2 Eu1_2 1_555 1_555
O4_2 C6_2 1_555 1_555
O4E Eu1 1_555 1_555
O4E_2 Eu1_2 1_555 1_555
O5A C9A 1_555 1_555
O5_2 Eu1_2 1_555 1_555
O6A Eu1A 1_555 1_555
O6_2 Eu1_2 1_555 1_555
O7_2 Eu1_2 1_555 1_555
H1_2 O7_2 1_555 1_555
H2_2 O7_2 1_555 1_555
O8_2 Eu1_2 1_555 1_555
H3_2 O8_2 1_555 1_555
H4_2 O8_2 1_555 1_555
C1_2 C2_2 1_555 1_555
C2_2 H5_2 1_555 1_555
C3_2 C2_2 1_555 1_555
H6_2 C3_2 1_555 1_555
C4_2 S1_2 1_555 1_555
C5_2 O2_2 1_555 1_555
C6_2 C1_2 1_555 1_555
C7A C7 1_555 1_555
C8A S2 1_555 1_555
C9A O6A 1_555 1_555
H7A C7A 1_555 1_555
O6 C9 1_555 1_555
C3 C4 1_555 1_555
C3_2 C4_2 1_555 1_555
C4_2 C5_2 1_555 1_555
C7A C8A 1_555 1_555
C8A C9A 1_555 1_555

#END
