
#######################################################################
#
#                 Cambridge Crystallographic Data Centre
#                                CCDC 
#
#######################################################################
#
# If this CIF has been generated from an entry in the Cambridge 
# Structural Database, then it will include bibliographic, chemical, 
# crystal, experimental, refinement or atomic coordinate data resulting 
# from the CCDC's data processing and validation procedures.
#
#######################################################################

data_LEHTID
_symmetry_cell_setting           monoclinic
_symmetry_space_group_name_H-M   'P 21/n'
_symmetry_Int_Tables_number      14
_space_group_name_Hall           '-P 2yn'
loop_
_symmetry_equiv_pos_site_id
_symmetry_equiv_pos_as_xyz
1 x,y,z
2 1/2-x,1/2+y,1/2-z
3 -x,-y,-z
4 1/2+x,1/2-y,1/2+z
_cell_length_a                   18.426(4)
_cell_length_b                   6.9082(14)
_cell_length_c                   18.583(4)
_cell_angle_alpha                90
_cell_angle_beta                 111.98(3)
_cell_angle_gamma                90
_cell_volume                     2193.51
loop_
_atom_site_label
_atom_site_type_symbol
_atom_site_fract_x
_atom_site_fract_y
_atom_site_fract_z
Tb1 Tb 0.373480(7) 0.223060(19) -0.622770(7)
Tb2 Tb 0.375300(8) 0.251930(17) -0.103910(8)
N1 N 0.42976(13) 0.3322(3) -0.72131(13)
C1 C 0.38349(15) 0.4121(4) -0.78868(16)
C2 C 0.40676(16) 0.4340(4) -0.85157(16)
H1 H 0.3734 0.4880 -0.8980
C3 C 0.48211(16) 0.3717(4) -0.84240(16)
C4 C 0.53247(16) 0.3018(4) -0.77010(16)
H2 H 0.5838 0.2683 -0.7619
C5 C 0.50402(16) 0.2835(4) -0.71089(17)
C6 C 0.30262(16) 0.4654(4) -0.79024(16)
O1 O 0.25948(12) 0.5738(3) -0.84177(12)
O2 O 0.28622(12) 0.3911(3) -0.73477(12)
C7 C 0.50831(16) 0.3728(4) -0.91095(15)
O3 O 0.45963(13) 0.3158(3) -0.97452(12)
O4 O 0.57796(12) 0.4253(3) -0.89760(12)
C8 C 0.55027(16) 0.2057(4) -0.63031(16)
O5 O 0.62146(12) 0.1821(4) -0.60964(13)
O6 O 0.50974(12) 0.1686(3) -0.58862(12)
O7 O 0.36674(12) -0.0446(3) -0.70952(12)
H3 H 0.3178 -0.0743 -0.7346
H4 H 0.3876 -0.0504 -0.7426
O8 O 0.40741(13) 0.5604(3) -0.60237(14)
H5 H 0.4527 0.6096 -0.5800
H6 H 0.3682 0.5986 -0.5917
O9 O 0.37823(13) -0.0719(3) -0.54980(12)
H7 H 0.4149 -0.0984 -0.5066
H8 H 0.3420 -0.1105 -0.5351
N2 N 0.38187(14) 0.2851(3) -0.23569(14)
C9 C 0.31950(16) 0.3532(4) -0.29483(16)
C10 C 0.31708(17) 0.3629(4) -0.37114(16)
H9 H 0.2727 0.4069 -0.4115
C11 C 0.38337(16) 0.3044(4) -0.38448(16)
C12 C 0.44858(17) 0.2370(4) -0.32249(17)
H10 H 0.4938 0.2006 -0.3301
C13 C 0.44498(17) 0.2250(4) -0.24868(17)
C14 C 0.25274(16) 0.4193(4) -0.27122(16)
O10 O 0.19299(12) 0.4879(3) -0.32354(12)
O11 O 0.26267(12) 0.3988(3) -0.20061(12)
C15 C 0.38344(17) 0.3049(4) -0.46627(16)
O12 O 0.44733(13) 0.2845(3) -0.47582(13)
O13 O 0.31908(12) 0.3159(3) -0.52358(12)
C16 C 0.50943(16) 0.1457(4) -0.17660(16)
O14 O 0.57132(12) 0.0860(3) -0.18068(12)
O15 O 0.49393(12) 0.1463(3) -0.11486(11)
O16 O 0.39547(13) -0.0436(3) -0.02796(12)
H11 H 0.4251 -0.0676 0.0162
H12 H 0.3898 -0.1570 -0.0471
O17 O 0.28287(12) 0.3108(4) -0.04654(13)
H13 H 0.2358 0.3132 -0.0739
H14 H 0.2806 0.2465 -0.0071
Tb1A Tb 0.126520(7) 0.723060(19) -0.877230(7)
Tb2B Tb 0.624700(8) 0.748070(17) -0.896090(8)
Tb2_2 Tb 0.375300(8) 0.251930(17) -1.103910(8)
Tb2A Tb 0.124700(8) 0.751930(17) -0.396090(8)
O1A O 0.24052(12) 0.0738(3) -0.65823(12)
O3_2 O 0.45963(13) 0.3158(3) 0.02548(12)
O4B O 0.42204(12) 0.5747(3) -0.10240(12)
O10A O 0.30701(12) -0.0121(3) -0.17646(12)
O18 O 0.21272(15) 0.6101(4) -0.57999(15)
H15 H 0.2389 0.5106 -0.5633
H16 H 0.1688 0.5550 -0.6092
loop_
_geom_bond_atom_site_label_1
_geom_bond_atom_site_label_2
_geom_bond_site_symmetry_1
_geom_bond_site_symmetry_2
Tb1 N1 1_555 1_555
Tb2 N2 1_555 1_555
N1 C1 1_555 1_555
C1 C2 1_555 1_555
C2 H1 1_555 1_555
C3 C2 1_555 1_555
C4 C3 1_555 1_555
H2 C4 1_555 1_555
C5 N1 1_555 1_555
C6 C1 1_555 1_555
O1 C6 1_555 1_555
O2 Tb1 1_555 1_555
C7 C3 1_555 1_555
O3 C7 1_555 1_555
O4 C7 1_555 1_555
C8 C5 1_555 1_555
O5 C8 1_555 1_555
O6 Tb1 1_555 1_555
O7 Tb1 1_555 1_555
H3 O7 1_555 1_555
H4 O7 1_555 1_555
O8 Tb1 1_555 1_555
H5 O8 1_555 1_555
H6 O8 1_555 1_555
O9 Tb1 1_555 1_555
H7 O9 1_555 1_555
H8 O9 1_555 1_555
N2 C9 1_555 1_555
C9 C10 1_555 1_555
C10 H9 1_555 1_555
C11 C10 1_555 1_555
C12 C11 1_555 1_555
H10 C12 1_555 1_555
C13 N2 1_555 1_555
C14 C9 1_555 1_555
O10 C14 1_555 1_555
O11 Tb2 1_555 1_555
C15 C11 1_555 1_555
O12 Tb1 1_555 1_555
O13 Tb1 1_555 1_555
C16 C13 1_555 1_555
O14 C16 1_555 1_555
O15 Tb2 1_555 1_555
O16 Tb2 1_555 1_555
H11 O16 1_555 1_555
H12 O16 1_555 1_555
O17 Tb2 1_555 1_555
H13 O17 1_555 1_555
H14 O17 1_555 1_555
O18 H15 1_555 1_555
H16 O18 1_555 1_555
Tb1A O1 1_555 1_555
Tb2B O4 1_555 1_555
Tb2_2 O3 1_555 1_555
Tb2A O10 1_555 1_555
O1A Tb1 1_555 1_555
O3_2 Tb2 1_555 1_555
O4B Tb2 1_555 1_555
O10A Tb2 1_555 1_555
C4 C5 1_555 1_555
C6 O2 1_555 1_555
C8 O6 1_555 1_555
C12 C13 1_555 1_555
C14 O11 1_555 1_555
C15 O12 1_555 1_555
C15 O13 1_555 1_555
C16 O15 1_555 1_555

#END
