
#######################################################################
#
#                 Cambridge Crystallographic Data Centre
#                                CCDC 
#
#######################################################################
#
# If this CIF has been generated from an entry in the Cambridge 
# Structural Database, then it will include bibliographic, chemical, 
# crystal, experimental, refinement or atomic coordinate data resulting 
# from the CCDC's data processing and validation procedures.
#
#######################################################################

data_LEHVIF
_symmetry_cell_setting           triclinic
_symmetry_space_group_name_H-M   'P -1'
_symmetry_Int_Tables_number      2
_space_group_name_Hall           '-P 1'
loop_
_symmetry_equiv_pos_site_id
_symmetry_equiv_pos_as_xyz
1 x,y,z
2 -x,-y,-z
_cell_length_a                   9.404(3)
_cell_length_b                   9.576(3)
_cell_length_c                   10.975(3)
_cell_angle_alpha                76.518(6)
_cell_angle_beta                 85.603(5)
_cell_angle_gamma                68.331(4)
_cell_volume                     893.127
loop_
_atom_site_label
_atom_site_type_symbol
_atom_site_fract_x
_atom_site_fract_y
_atom_site_fract_z
O1 O 0.3648(6) 0.9920(5) 0.8932(4)
C1 C 0.2832(8) 0.7034(8) 0.7041(6)
Cd1 Cd 0.48514(6) 0.89270(6) 0.70859(5)
Cd2 Cd 0.38151(6) 1.22543(5) 0.87732(4)
Cd3 Cd 0.87108(6) 0.83731(6) 0.54901(5)
C2 C 0.0050(8) 0.7372(8) 0.9757(6)
H1 H -0.0195 0.6513 1.0200
O2 O 0.6303(6) 0.8054(6) 0.5271(5)
C3 C 0.0837(8) 0.9825(8) 0.8406(6)
H2 H 0.1114 1.0658 0.7948
O3 O 0.2682(6) 0.9450(6) 0.5832(5)
C4 C 0.5772(8) 0.7712(8) 0.4397(7)
N1 N 0.4103(7) 0.6944(7) 0.7620(6)
C5 C -0.0458(8) 0.9636(8) 0.8053(6)
H3 H -0.1059 1.0329 0.7353
C6 C 0.2110(8) 0.8410(8) 0.6001(6)
C7 C 0.1728(8) 0.8811(8) 0.9422(7)
C8 C 0.1307(8) 0.7604(8) 1.0109(7)
H4 H 0.1892 0.6935 1.0825
C9 C -0.0868(8) 0.8413(8) 0.8740(6)
C10 C 0.6120(8) 0.5098(7) 0.5692(6)
H5 H 0.6888 0.5170 0.6162
C11 C 0.4260(8) 0.6191(8) 0.4003(6)
H6 H 0.3757 0.7005 0.3321
C12 C 0.5377(8) 0.6316(8) 0.4686(6)
C13 C 0.2533(8) 0.5713(8) 0.7498(6)
O4 O 0.1076(6) 0.8497(6) 0.5313(5)
N2 N 0.3642(7) 0.4765(7) 0.8361(6)
C14 C 0.3107(8) 0.9058(7) 0.9768(6)
C15 C 0.1305(8) 0.5167(8) 0.7241(6)
C16 C 0.4518(8) 0.5557(8) 0.8391(6)
H7 H 0.5389 0.5166 0.8928
O5 O 0.3704(6) 0.8387(6) 1.0839(4)
O6 O 0.1599(6) 0.3734(6) 0.7662(5)
O7 O 0.0084(6) 0.6003(6) 0.6679(5)
C17 C -0.2303(8) 0.8268(8) 0.8386(6)
O8 O -0.2721(6) 0.8762(6) 0.7254(5)
O9 O -0.3043(6) 0.7687(6) 0.9181(5)
O10 O 0.5548(6) 0.8528(5) 0.3290(5)
O11 O 0.9763(7) 0.7064(7) 0.3945(6)
H8 H 0.9234 0.7123 0.3326
H9 H 1.0576 0.6265 0.4012
O1_2 O 1.3648(6) 0.9920(5) 0.8932(4)
C1_2 C 0.2832(8) 1.7034(8) 0.7041(6)
Cd1_2 Cd 1.48514(6) 0.89270(6) 0.70859(5)
Cd1_3 Cd -0.51486(6) 0.89270(6) 0.70859(5)
Cd1A Cd 0.51486(6) 1.10730(6) 0.29141(5)
Cd1A_2 Cd 0.51486(6) 0.10730(6) 0.29141(5)
Cd1_4 Cd 0.48514(6) -0.10730(6) 0.70859(5)
Cd1_5 Cd 0.48514(6) 1.89270(6) 0.70859(5)
Cd2_2 Cd 1.38151(6) 1.22543(5) 0.87732(4)
Cd2_3 Cd 0.38151(6) 0.22543(5) 0.87732(4)
Cd2A Cd 0.61849(6) 0.77457(5) 1.12268(4)
Cd2A_2 Cd -0.38151(6) 0.77457(5) 1.12268(4)
Cd2A_3 Cd 0.61849(6) 0.77457(5) 0.12268(4)
Cd2A_4 Cd 1.61849(6) 0.77457(5) 1.12268(4)
Cd3A Cd 0.12892(6) 0.16269(6) 0.45099(5)
Cd3A_2 Cd 0.12892(6) 1.16269(6) 0.45099(5)
Cd3_2 Cd -0.12892(6) 0.83731(6) 0.54901(5)
Cd3A_3 Cd 0.12892(6) 2.16269(6) 0.45099(5)
Cd3_3 Cd -0.12892(6) 1.83731(6) 0.54901(5)
C2_2 C 1.0050(8) 0.7372(8) 0.9757(6)
H1_2 H 0.9805 0.6513 1.0200
O2A O 0.3697(6) 0.1946(6) 0.4729(5)
O2_2 O 1.6303(6) 0.8054(6) 0.5271(5)
C3_2 C 1.0837(8) 0.9825(8) 0.8406(6)
H2_2 H 1.1114 1.0658 0.7948
O3_2 O 0.2682(6) 1.9450(6) 0.5832(5)
O3A O 0.7318(6) 1.0550(6) 0.4168(5)
O3_3 O 1.2682(6) 0.9450(6) 0.5832(5)
O3_4 O 0.2682(6) -0.0550(6) 0.5832(5)
C4A C 0.4228(8) 0.2288(8) 0.5603(7)
N1_2 N 0.4103(7) 1.6944(7) 0.7620(6)
N1_3 N 1.4103(7) 0.6944(7) 0.7620(6)
C5_2 C 0.9542(8) 0.9636(8) 0.8053(6)
H3_2 H 0.8941 1.0329 0.7353
C6_2 C 0.2110(8) 1.8410(8) 0.6001(6)
C7_2 C 1.1728(8) 0.8811(8) 0.9422(7)
C8_2 C 1.1307(8) 0.7604(8) 1.0109(7)
H4_2 H 1.1892 0.6935 1.0825
C9_2 C 0.9132(8) 0.8413(8) 0.8740(6)
C10A C 0.3880(8) 0.4902(7) 0.4308(6)
H5A H 0.3112 0.4830 0.3838
C11A C 0.5740(8) 0.3809(8) 0.5997(6)
H6A H 0.6243 0.2995 0.6679
C12A C 0.4623(8) 0.3684(8) 0.5314(6)
C13_2 C 0.2533(8) 1.5713(8) 0.7498(6)
O4_2 O 0.1076(6) 1.8497(6) 0.5313(5)
O4_3 O 1.1076(6) 0.8497(6) 0.5313(5)
O4A O -0.1076(6) 0.1503(6) 0.4687(5)
N2_2 N 0.3642(7) 1.4765(7) 0.8361(6)
N2_3 N 1.3642(7) 1.4765(7) 0.8361(6)
C14_2 C 1.3107(8) 0.9058(7) 0.9768(6)
C15_2 C 0.1305(8) 1.5167(8) 0.7241(6)
C16_2 C 0.4518(8) 1.5557(8) 0.8391(6)
H7_2 H 0.5389 1.5166 0.8928
O5_2 O 1.3704(6) 0.8387(6) 1.0839(4)
O5A O 0.6296(6) 1.1613(6) 0.9161(4)
O5A_2 O 1.6296(6) 1.1613(6) 0.9161(4)
O6_2 O 0.1599(6) 1.3734(6) 0.7662(5)
O6_3 O 1.1599(6) 1.3734(6) 0.7662(5)
O7_2 O 0.0084(6) 1.6003(6) 0.6679(5)
O7_3 O 1.0084(6) 0.6003(6) 0.6679(5)
O7A O -0.0084(6) 0.3997(6) 0.3321(5)
C17_2 C 0.7697(8) 0.8268(8) 0.8386(6)
O8_2 O 0.7279(6) 0.8762(6) 0.7254(5)
O8_3 O 1.7279(6) 0.8762(6) 0.7254(5)
O8A O 0.2721(6) 0.1238(6) 0.2746(5)
O9_2 O 0.6957(6) 0.7687(6) 0.9181(5)
O9A O 0.3043(6) 1.2313(6) 1.0819(5)
O9A_2 O 1.3043(6) 1.2313(6) 1.0819(5)
O10A O 0.4452(6) 0.1472(5) 0.6710(5)
O10A_2 O 0.4452(6) 1.1472(5) 0.6710(5)
O10A_3 O 1.4452(6) 1.1472(5) 0.6710(5)
O11A O 0.0237(7) 0.2936(7) 0.6055(6)
H8A H 0.0766 0.2877 0.6674
H9A H -0.0576 0.3735 0.5988
loop_
_geom_bond_atom_site_label_1
_geom_bond_atom_site_label_2
_geom_bond_site_symmetry_1
_geom_bond_site_symmetry_2
O1 Cd1 1_555 1_555
C1 N1 1_555 1_555
Cd1 O2 1_555 1_555
Cd2 O1 1_555 1_555
Cd3 O2 1_555 1_555
C2 H1 1_555 1_555
O2 C4 1_555 1_555
C3 H2 1_555 1_555
O3 Cd1 1_555 1_555
C4 C12 1_555 1_555
N1 Cd1 1_555 1_555
C5 C3 1_555 1_555
H3 C5 1_555 1_555
C6 C1 1_555 1_555
C7 C3 1_555 1_555
C8 C2 1_555 1_555
H4 C8 1_555 1_555
C9 C2 1_555 1_555
C10 H5 1_555 1_555
C11 H6 1_555 1_555
C12 C10 1_555 1_555
C13 C1 1_555 1_555
O4 C6 1_555 1_555
N2 C13 1_555 1_555
C14 O1 1_555 1_555
C15 C13 1_555 1_555
C16 N1 1_555 1_555
H7 C16 1_555 1_555
O5 C14 1_555 1_555
O6 C15 1_555 1_555
O7 C15 1_555 1_555
C17 C9 1_555 1_555
O8 C17 1_555 1_555
O9 C17 1_555 1_555
O10 C4 1_555 1_555
O11 Cd3 1_555 1_555
H8 O11 1_555 1_555
H9 O11 1_555 1_555
O1_2 Cd1_2 1_555 1_555
C1_2 N1_2 1_555 1_555
Cd1_2 O2_2 1_555 1_555
Cd1_3 O8 1_555 1_555
Cd1A O10 1_555 1_555
Cd1A_2 O2A 1_555 1_555
Cd1_4 O3_4 1_555 1_555
Cd1_5 O3_2 1_555 1_555
Cd2_2 O1_2 1_555 1_555
Cd2_3 N2 1_555 1_555
Cd2A O5 1_555 1_555
Cd2A_2 O9 1_555 1_555
Cd2A_3 O10 1_555 1_555
Cd2A_4 O5_2 1_555 1_555
Cd3A O2A 1_555 1_555
Cd3A_2 O3 1_555 1_555
Cd3_2 O4 1_555 1_555
Cd3A_3 O3_2 1_555 1_555
Cd3_3 O4_2 1_555 1_555
C2_2 H1_2 1_555 1_555
O2A C4A 1_555 1_555
C3_2 H2_2 1_555 1_555
O3_2 C6_2 1_555 1_555
O3A Cd3 1_555 1_555
O3_3 Cd1_2 1_555 1_555
O3_4 Cd3A 1_555 1_555
C4A C12A 1_555 1_555
N1_2 Cd1_5 1_555 1_555
N1_3 Cd1_2 1_555 1_555
C5_2 C3_2 1_555 1_555
H3_2 C5_2 1_555 1_555
C6_2 C1_2 1_555 1_555
C7_2 C3_2 1_555 1_555
C8_2 C2_2 1_555 1_555
H4_2 C8_2 1_555 1_555
C9_2 C2_2 1_555 1_555
C10A C11 1_555 1_555
H5A C10A 1_555 1_555
C11A C10 1_555 1_555
H6A C11A 1_555 1_555
C12A C10A 1_555 1_555
C13_2 C1_2 1_555 1_555
O4_2 C6_2 1_555 1_555
O4_3 Cd3 1_555 1_555
O4A Cd3A 1_555 1_555
N2_2 Cd2 1_555 1_555
N2_3 Cd2_2 1_555 1_555
C14_2 O1_2 1_555 1_555
C15_2 C13_2 1_555 1_555
C16_2 N1_2 1_555 1_555
H7_2 C16_2 1_555 1_555
O5_2 C14_2 1_555 1_555
O5A Cd2 1_555 1_555
O5A_2 Cd2_2 1_555 1_555
O6_2 Cd2 1_555 1_555
O6_3 Cd2_2 1_555 1_555
O7_2 Cd3_3 1_555 1_555
O7_3 Cd3 1_555 1_555
O7A Cd3A 1_555 1_555
C17_2 C9_2 1_555 1_555
O8_2 Cd1 1_555 1_555
O8_3 Cd1_2 1_555 1_555
O8A Cd1A_2 1_555 1_555
O9_2 Cd2A 1_555 1_555
O9A Cd2 1_555 1_555
O9A_2 Cd2_2 1_555 1_555
O10A Cd1_4 1_555 1_555
O10A_2 Cd1 1_555 1_555
O10A_3 Cd1_2 1_555 1_555
O11A Cd3A 1_555 1_555
H8A O11A 1_555 1_555
H9A O11A 1_555 1_555
Cd2 O10A_2 1_555 1_555
Cd3 O8_2 1_555 1_555
O3 C6 1_555 1_555
C5 C9 1_555 1_555
C7 C8 1_555 1_555
C7 C14 1_555 1_555
C11 C12 1_555 1_555
N2 C16 1_555 1_555
O6 Cd2_3 1_555 1_555
O7 Cd3_2 1_555 1_555
O8 Cd3_2 1_555 1_555
Cd1A O3A 1_555 1_555
Cd2_2 O10A_3 1_555 1_555
Cd2_3 O10A 1_555 1_555
Cd3A O8A 1_555 1_555
C4A O10A 1_555 1_555
C5_2 C9_2 1_555 1_555
C7_2 C8_2 1_555 1_555
C7_2 C14_2 1_555 1_555
C11A C12A 1_555 1_555
C13_2 N2_2 1_555 1_555
N2_2 C16_2 1_555 1_555
C15_2 O6_2 1_555 1_555
C15_2 O7_2 1_555 1_555
C17_2 O8_2 1_555 1_555
C17_2 O9_2 1_555 1_555

#END
