
#######################################################################
#
#                 Cambridge Crystallographic Data Centre
#                                CCDC 
#
#######################################################################
#
# If this CIF has been generated from an entry in the Cambridge 
# Structural Database, then it will include bibliographic, chemical, 
# crystal, experimental, refinement or atomic coordinate data resulting 
# from the CCDC's data processing and validation procedures.
#
#######################################################################

data_LEHVOL
_symmetry_cell_setting           monoclinic
_symmetry_space_group_name_H-M   'C 2/c'
_symmetry_Int_Tables_number      15
_space_group_name_Hall           '-C 2yn'
loop_
_symmetry_equiv_pos_site_id
_symmetry_equiv_pos_as_xyz
1 x,y,z
2 -x,y,1/2-z
3 1/2+x,1/2+y,z
4 1/2-x,1/2+y,1/2-z
5 -x,-y,-z
6 x,-y,1/2+z
7 1/2-x,1/2-y,-z
8 1/2+x,1/2-y,1/2+z
_cell_length_a                   19.131(3)
_cell_length_b                   13.518(2)
_cell_length_c                   12.4016(19)
_cell_angle_alpha                90
_cell_angle_beta                 118.507(9)
_cell_angle_gamma                90
_cell_volume                     2818.37
loop_
_atom_site_label
_atom_site_type_symbol
_atom_site_fract_x
_atom_site_fract_y
_atom_site_fract_z
Zn1 Zn 0.5000 -0.07689(4) 0.2500
C1 C 0.1283(2) -0.4627(3) 0.3412(4)
C2 C 0.2071(2) -0.4194(2) 0.4333(3)
C3 C 0.2550(2) -0.3734(3) 0.3939(3)
H1 H 0.2376 -0.3678 0.3102
C4 C 0.32886(19) -0.3352(2) 0.4767(3)
C5 C 0.37846(19) -0.2835(2) 0.4324(3)
C6 C 0.3732(2) -0.3047(3) 0.3195(3)
H2 H 0.3414 -0.3568 0.2727
C7 C 0.4144(2) -0.2497(3) 0.2765(3)
H3 H 0.4094 -0.2656 0.2002
C8 C 0.4706(2) -0.1564(3) 0.4499(3)
H4 H 0.5054 -0.1066 0.4966
C9 C 0.4308(2) -0.2082(3) 0.4991(3)
H5 H 0.4389 -0.1929 0.5773
C10 C 0.3530(2) -0.3435(3) 0.6011(3)
H6 H 0.4024 -0.3185 0.6573
C11 C 0.3056(2) -0.3882(3) 0.6442(3)
C12 C 0.2323(2) -0.4272(2) 0.5575(3)
H7 H 0.2000 -0.4588 0.5840
C13 C 0.3300(2) -0.3908(3) 0.7766(3)
C14 C 0.4081(3) -0.4040(4) 0.8648(4)
H8 H 0.4476 -0.4133 0.8424
C15 C 0.4269(4) -0.4030(5) 0.9878(5)
H9 H 0.4797 -0.4141 1.0455
C16 C 0.3013(4) -0.3750(4) 0.9429(5)
H10 H 0.2635 -0.3636 0.9682
C17 C 0.2762(3) -0.3776(3) 0.8191(4)
H11 H 0.2224 -0.3703 0.7637
N1 N 0.46152(16) -0.1743(2) 0.3385(2)
N2 N 0.3762(4) -0.3879(4) 1.0286(4)
O1 O 0.09450(14) -0.51989(19) 0.3833(2)
O2 O 0.1005(2) -0.4432(2) 0.2322(3)
Zn1B Zn 0.0000 -0.57689(4) 0.2500
Zn1B_2 Zn 1.0000 -0.57689(4) 0.2500
C1A C 0.8717(2) -0.4627(3) 0.1588(4)
C2A C 0.7929(2) -0.4194(2) 0.0667(3)
C3A C 0.7450(2) -0.3734(3) 0.1061(3)
H1A H 0.7624 -0.3678 0.1898
C4A C 0.67114(19) -0.3352(2) 0.0233(3)
C5A C 0.62154(19) -0.2835(2) 0.0676(3)
C6A C 0.6268(2) -0.3047(3) 0.1805(3)
H2A H 0.6586 -0.3568 0.2273
C7A C 0.5856(2) -0.2497(3) 0.2235(3)
H3A H 0.5906 -0.2656 0.2998
C8A C 0.5294(2) -0.1564(3) 0.0501(3)
H4A H 0.4946 -0.1066 0.0034
C9A C 0.5692(2) -0.2082(3) 0.0009(3)
H5A H 0.5611 -0.1929 -0.0773
C10A C 0.6470(2) -0.3435(3) -0.1011(3)
H6A H 0.5976 -0.3185 -0.1573
C11A C 0.6944(2) -0.3882(3) -0.1442(3)
C12A C 0.7677(2) -0.4272(2) -0.0575(3)
H7A H 0.8000 -0.4588 -0.0840
C13A C 0.6700(2) -0.3908(3) -0.2766(3)
C14A C 0.5919(3) -0.4040(4) -0.3648(4)
H8A H 0.5524 -0.4133 -0.3424
C15A C 0.5731(4) -0.4030(5) -0.4878(5)
H9A H 0.5203 -0.4141 -0.5455
C16A C 0.6987(4) -0.3750(4) -0.4429(5)
H10A H 0.7365 -0.3636 -0.4682
C17A C 0.7238(3) -0.3776(3) -0.3191(4)
H11A H 0.7776 -0.3703 -0.2637
N1A N 0.53848(16) -0.1743(2) 0.1615(2)
N2A N 0.6238(4) -0.3879(4) -0.5286(4)
O1A O 0.90550(14) -0.51989(19) 0.1167(2)
O1B O 0.59450(14) -0.01989(19) 0.3833(2)
O1C O 0.40550(14) -0.01989(19) 0.1167(2)
O2A O 0.8995(2) -0.4432(2) 0.2678(3)
O3 O 0.6655(9) 0.1497(10) 0.0835(13)
H12 H 0.6325 0.1026 0.0526
H13 H 0.6408 0.2046 0.0648
O4 O 0.5000 0.5006(13) 0.2500
H14 H 0.4642 0.5377 0.1972
H14A H 0.5358 0.5377 0.3028
loop_
_geom_bond_atom_site_label_1
_geom_bond_atom_site_label_2
_geom_bond_site_symmetry_1
_geom_bond_site_symmetry_2
Zn1 N1 1_555 1_555
C1 C2 1_555 1_555
C2 C3 1_555 1_555
C3 H1 1_555 1_555
C4 C3 1_555 1_555
C5 C4 1_555 1_555
C6 C5 1_555 1_555
H2 C6 1_555 1_555
C7 C6 1_555 1_555
H3 C7 1_555 1_555
C8 H4 1_555 1_555
C9 C5 1_555 1_555
H5 C9 1_555 1_555
C10 C4 1_555 1_555
H6 C10 1_555 1_555
C11 C10 1_555 1_555
C12 C2 1_555 1_555
H7 C12 1_555 1_555
C13 C11 1_555 1_555
C14 C13 1_555 1_555
H8 C14 1_555 1_555
C15 C14 1_555 1_555
H9 C15 1_555 1_555
C16 H10 1_555 1_555
C17 C13 1_555 1_555
H11 C17 1_555 1_555
N1 C7 1_555 1_555
N2 C15 1_555 1_555
O1 C1 1_555 1_555
O2 C1 1_555 1_555
O3 H12 1_555 1_555
H13 O3 1_555 1_555
O4 H14 1_555 1_555
Zn1B O1 1_555 1_555
Zn1B_2 O1A 1_555 1_555
C1A C2A 1_555 1_555
C2A C3A 1_555 1_555
C3A H1A 1_555 1_555
C4A C3A 1_555 1_555
C5A C4A 1_555 1_555
C6A C5A 1_555 1_555
H2A C6A 1_555 1_555
C7A C6A 1_555 1_555
H3A C7A 1_555 1_555
C8A H4A 1_555 1_555
C9A C5A 1_555 1_555
H5A C9A 1_555 1_555
C10A C4A 1_555 1_555
H6A C10A 1_555 1_555
C11A C10A 1_555 1_555
C12A C2A 1_555 1_555
H7A C12A 1_555 1_555
C13A C11A 1_555 1_555
C14A C13A 1_555 1_555
H8A C14A 1_555 1_555
C15A C14A 1_555 1_555
H9A C15A 1_555 1_555
C16A H10A 1_555 1_555
C17A C13A 1_555 1_555
H11A C17A 1_555 1_555
N1A Zn1 1_555 1_555
N2A C15A 1_555 1_555
O1A C1A 1_555 1_555
O1B Zn1 1_555 1_555
O1C Zn1 1_555 1_555
O2A C1A 1_555 1_555
H14A O4 1_555 1_555
C8 C9 1_555 1_555
C8 N1 1_555 1_555
C11 C12 1_555 1_555
C16 C17 1_555 1_555
C16 N2 1_555 1_555
C7A N1A 1_555 1_555
C8A C9A 1_555 1_555
C8A N1A 1_555 1_555
C11A C12A 1_555 1_555
C16A C17A 1_555 1_555
C16A N2A 1_555 1_555

#END
