
#######################################################################
#
#                 Cambridge Crystallographic Data Centre
#                                CCDC 
#
#######################################################################
#
# If this CIF has been generated from an entry in the Cambridge 
# Structural Database, then it will include bibliographic, chemical, 
# crystal, experimental, refinement or atomic coordinate data resulting 
# from the CCDC's data processing and validation procedures.
#
#######################################################################

data_LEHWIG
_symmetry_cell_setting           triclinic
_symmetry_space_group_name_H-M   'P -1'
_symmetry_Int_Tables_number      2
_space_group_name_Hall           '-P 1'
loop_
_symmetry_equiv_pos_site_id
_symmetry_equiv_pos_as_xyz
1 x,y,z
2 -x,-y,-z
_cell_length_a                   8.8285(11)
_cell_length_b                   10.1808(12)
_cell_length_c                   11.6881(14)
_cell_angle_alpha                115.333(1)
_cell_angle_beta                 97.842(1)
_cell_angle_gamma                102.782(1)
_cell_volume                     893.591
loop_
_atom_site_label
_atom_site_type_symbol
_atom_site_fract_x
_atom_site_fract_y
_atom_site_fract_z
Mn1 Mn 0.23465(4) 0.23962(4) 0.07296(3)
Br1 Br 0.08555(4) 1.13908(3) 0.35509(3)
O1 O 0.2101(2) 0.45389(19) 0.24752(17)
O2 O 0.2230(2) 0.4477(2) 0.05877(17)
O3 O 0.0247(2) 0.8537(2) -0.03202(17)
O4 O 0.2445(2) 1.0497(2) 0.1042(2)
N1 N 0.4985(2) 0.3375(2) 0.1974(2)
N2 N 0.3066(3) 0.1649(2) -0.1197(2)
C1 C 0.1646(3) 0.6605(3) 0.2153(2)
C2 C 0.1578(3) 0.7243(3) 0.1314(2)
H1 H 0.1684 0.6704 0.0471
C3 C 0.1357(3) 0.8667(3) 0.1702(2)
C4 C 0.1137(3) 0.9420(3) 0.2946(3)
C5 C 0.1082(3) 0.8762(3) 0.3768(2)
H2 H 0.0862 0.9253 0.4575
C6 C 0.1358(3) 0.7367(3) 0.3374(2)
H3 H 0.1351 0.6932 0.3931
C7 C 0.2021(3) 0.5122(3) 0.1717(2)
C8 C 0.1330(3) 0.9294(3) 0.0733(2)
C9 C 0.6276(3) 0.3419(4) 0.1500(3)
H4 H 0.6128 0.3169 0.0619
C10 C 0.7825(3) 0.3817(4) 0.2245(3)
H5 H 0.8676 0.3805 0.1856
C11 C 0.8109(3) 0.4234(3) 0.3568(2)
C12 C 0.6758(3) 0.4201(3) 0.4073(3)
H6 H 0.6873 0.4472 0.4955
C13 C 0.5261(3) 0.3767(3) 0.3257(3)
H7 H 0.4382 0.3741 0.3613
C14 C 0.9755(3) 0.4659(3) 0.4348(2)
H8 H 1.0525 0.4432 0.3890
C15 C 0.3091(4) 0.2479(3) -0.1832(3)
H9 H 0.2709 0.3313 -0.1509
C16 C 0.3652(4) 0.2167(4) -0.2935(3)
H10 H 0.3648 0.2792 -0.3327
C17 C 0.4221(3) 0.0931(3) -0.3464(3)
C18 C 0.4204(4) 0.0071(3) -0.2802(3)
H11 H 0.4590 -0.0762 -0.3100
C19 C 0.3618(4) 0.0452(3) -0.1706(3)
H12 H 0.3604 -0.0157 -0.1296
C20 C 0.4795(3) 0.0609(3) -0.4654(3)
H13 H 0.4877 0.1334 -0.4946
Mn1A Mn -0.23465(4) 0.76038(4) -0.07296(3)
Mn1_2 Mn 0.23465(4) 1.23962(4) 0.07296(3)
Mn1A_2 Mn 1.76535(4) 0.76038(4) 0.92704(3)
Mn1A_3 Mn 0.76535(4) -0.23962(4) -1.07296(3)
Mn1A_4 Mn -0.23465(4) -0.23962(4) -0.07296(3)
Br1A Br -0.08555(4) -0.13908(3) -0.35509(3)
O1A O -0.2101(2) 0.54611(19) -0.24752(17)
O2A O -0.2230(2) 0.5523(2) -0.05877(17)
O3A O -0.0247(2) 0.1463(2) 0.03202(17)
O4A O -0.2445(2) -0.0497(2) -0.1042(2)
O4_2 O 0.2445(2) 0.0497(2) 0.1042(2)
O4A_2 O -0.2445(2) 0.9503(2) -0.1042(2)
N1A N 1.5015(2) 0.6625(2) 0.8026(2)
N1A_2 N -0.4985(2) 0.6625(2) -0.1974(2)
N2A N 0.6934(3) -0.1649(2) -0.8803(2)
N2A_2 N -0.3066(3) 0.8351(2) 0.1197(2)
C1A C -0.1646(3) 0.3395(3) -0.2153(2)
C2A C -0.1578(3) 0.2757(3) -0.1314(2)
H1A H -0.1684 0.3296 -0.0471
C3A C -0.1357(3) 0.1333(3) -0.1702(2)
C4A C -0.1137(3) 0.0580(3) -0.2946(3)
C5A C -0.1082(3) 0.1238(3) -0.3768(2)
H2A H -0.0862 0.0747 -0.4575
C6A C -0.1358(3) 0.2633(3) -0.3374(2)
H3A H -0.1351 0.3068 -0.3931
C7A C -0.2021(3) 0.4878(3) -0.1717(2)
C8A C -0.1330(3) 0.0706(3) -0.0733(2)
C9A C 1.3724(3) 0.6581(4) 0.8500(3)
H4A H 1.3872 0.6831 0.9381
C10A C 1.2175(3) 0.6183(4) 0.7755(3)
H5A H 1.1324 0.6195 0.8144
C11A C 1.1891(3) 0.5766(3) 0.6432(2)
C12A C 1.3242(3) 0.5799(3) 0.5927(3)
H6A H 1.3127 0.5528 0.5045
C13A C 1.4739(3) 0.6233(3) 0.6743(3)
H7A H 1.5618 0.6259 0.6387
C14A C 1.0245(3) 0.5341(3) 0.5652(2)
H8A H 0.9475 0.5568 0.6110
C15A C 0.6909(4) -0.2479(3) -0.8168(3)
H9A H 0.7291 -0.3313 -0.8491
C16A C 0.6348(4) -0.2167(4) -0.7065(3)
H10A H 0.6352 -0.2792 -0.6673
C17A C 0.5779(3) -0.0931(3) -0.6536(3)
C18A C 0.5796(4) -0.0071(3) -0.7198(3)
H11A H 0.5410 0.0762 -0.6900
C19A C 0.6382(4) -0.0452(3) -0.8294(3)
H12A H 0.6396 0.0157 -0.8704
C20A C 0.5205(3) -0.0609(3) -0.5346(3)
H13A H 0.5123 -0.1334 -0.5054
loop_
_geom_bond_atom_site_label_1
_geom_bond_atom_site_label_2
_geom_bond_site_symmetry_1
_geom_bond_site_symmetry_2
Mn1 O1 1_555 1_555
Br1 C4 1_555 1_555
O1 C7 1_555 1_555
O2 Mn1 1_555 1_555
O3 C8 1_555 1_555
O4 C8 1_555 1_555
N1 Mn1 1_555 1_555
N2 Mn1 1_555 1_555
C1 C2 1_555 1_555
C2 H1 1_555 1_555
C3 C2 1_555 1_555
C4 C3 1_555 1_555
C5 C4 1_555 1_555
H2 C5 1_555 1_555
C6 C1 1_555 1_555
H3 C6 1_555 1_555
C7 O2 1_555 1_555
C8 C3 1_555 1_555
C9 N1 1_555 1_555
H4 C9 1_555 1_555
C10 C9 1_555 1_555
H5 C10 1_555 1_555
C11 C10 1_555 1_555
C12 C11 1_555 1_555
H6 C12 1_555 1_555
C13 N1 1_555 1_555
H7 C13 1_555 1_555
C14 C11 1_555 1_555
H8 C14 1_555 1_555
C15 N2 1_555 1_555
H9 C15 1_555 1_555
C16 C15 1_555 1_555
H10 C16 1_555 1_555
C17 C16 1_555 1_555
C18 C17 1_555 1_555
H11 C18 1_555 1_555
C19 N2 1_555 1_555
H12 C19 1_555 1_555
C20 C17 1_555 1_555
H13 C20 1_555 1_555
Mn1A O3 1_555 1_555
Mn1_2 O4 1_555 1_555
Mn1A_2 N1A 1_555 1_555
Mn1A_3 N2A 1_555 1_555
Mn1A_4 O4A 1_555 1_555
Br1A C4A 1_555 1_555
O1A Mn1A 1_555 1_555
O2A Mn1A 1_555 1_555
O3A Mn1 1_555 1_555
O4A C8A 1_555 1_555
O4_2 Mn1 1_555 1_555
O4A_2 Mn1A 1_555 1_555
N1A C9A 1_555 1_555
N1A_2 Mn1A 1_555 1_555
N2A C15A 1_555 1_555
N2A_2 Mn1A 1_555 1_555
C1A C2A 1_555 1_555
C2A H1A 1_555 1_555
C3A C2A 1_555 1_555
C4A C3A 1_555 1_555
C5A C4A 1_555 1_555
H2A C5A 1_555 1_555
C6A C1A 1_555 1_555
H3A C6A 1_555 1_555
C7A O1A 1_555 1_555
C8A O3A 1_555 1_555
C9A H4A 1_555 1_555
C10A C9A 1_555 1_555
H5A C10A 1_555 1_555
C11A C10A 1_555 1_555
C12A C11A 1_555 1_555
H6A C12A 1_555 1_555
C13A N1A 1_555 1_555
H7A C13A 1_555 1_555
C14A C14 1_555 1_555
H8A C14A 1_555 1_555
C15A H9A 1_555 1_555
C16A C15A 1_555 1_555
H10A C16A 1_555 1_555
C17A C16A 1_555 1_555
C18A C17A 1_555 1_555
H11A C18A 1_555 1_555
C19A N2A 1_555 1_555
H12A C19A 1_555 1_555
C20A C20 1_555 1_555
H13A C20A 1_555 1_555
C1 C7 1_555 1_555
C5 C6 1_555 1_555
C12 C13 1_555 1_555
C18 C19 1_555 1_555
O2A C7A 1_555 1_555
C1A C7A 1_555 1_555
C3A C8A 1_555 1_555
C5A C6A 1_555 1_555
C11A C14A 1_555 1_555
C12A C13A 1_555 1_555
C17A C20A 1_555 1_555
C18A C19A 1_555 1_555

#END
