
#######################################################################
#
#                 Cambridge Crystallographic Data Centre
#                                CCDC 
#
#######################################################################
#
# If this CIF has been generated from an entry in the Cambridge 
# Structural Database, then it will include bibliographic, chemical, 
# crystal, experimental, refinement or atomic coordinate data resulting 
# from the CCDC's data processing and validation procedures.
#
#######################################################################

data_LEHYIH
_symmetry_cell_setting           monoclinic
_symmetry_space_group_name_H-M   'P 21/n'
_symmetry_Int_Tables_number      14
_space_group_name_Hall           '-P 2yn'
loop_
_symmetry_equiv_pos_site_id
_symmetry_equiv_pos_as_xyz
1 x,y,z
2 1/2-x,1/2+y,1/2-z
3 -x,-y,-z
4 1/2+x,1/2-y,1/2+z
_cell_length_a                   10.653(3)
_cell_length_b                   17.891(6)
_cell_length_c                   10.743(4)
_cell_angle_alpha                90
_cell_angle_beta                 117.093(5)
_cell_angle_gamma                90
_cell_volume                     1822.86
loop_
_atom_site_label
_atom_site_type_symbol
_atom_site_fract_x
_atom_site_fract_y
_atom_site_fract_z
Zn1 Zn 0.94200(4) 0.11115(2) 0.68578(4)
O1 O 1.0365(2) 0.23401(14) 0.5822(3)
N1 N 0.7812(3) 0.11352(16) 0.4912(3)
O2 O 1.1235(2) 0.12415(13) 0.6793(3)
C1 C 1.2505(4) 0.25145(18) 0.5003(4)
H1 H 1.1784 0.2867 0.4701
C2 C 1.3571(3) 0.25859(19) 0.4610(4)
N2 N 0.9544(3) 0.00409(17) 0.7439(3)
C3 C 1.1274(4) 0.18445(19) 0.6168(4)
C4 C 1.2496(4) 0.19305(18) 0.5835(4)
N3 N 0.8958(4) -0.10456(17) 0.7943(4)
H2 H 0.8548 -0.1375 0.8215
C5 C 1.3587(4) 0.1422(2) 0.6319(4)
H3 H 1.3592 0.1029 0.6887
N4 N 0.6356(3) 0.14427(19) 0.2777(4)
H4 H 0.5958 0.1701 0.2021
C6 C 0.9920(5) -0.1180(2) 0.7472(5)
H5 H 1.0259 -0.1645 0.7377
C7 C 1.4673(4) 0.1495(2) 0.5963(4)
H6 H 1.5418 0.1157 0.6306
C8 C 1.0284(4) -0.0514(2) 0.7170(4)
H7 H 1.0937 -0.0438 0.6831
C9 C 1.4655(4) 0.2067(2) 0.5103(4)
H8 H 1.5378 0.2106 0.4848
C10 C 0.7457(4) 0.1654(2) 0.3963(4)
H9 H 0.7912 0.2112 0.4094
C11 C 0.6872(4) 0.0562(2) 0.4292(5)
H10 H 0.6861 0.0113 0.4723
C12 C 0.8765(4) -0.0309(2) 0.7906(4)
H11 H 0.8152 -0.0072 0.8179
C13 C 0.5978(5) 0.0747(2) 0.2981(5)
H12 H 0.5245 0.0457 0.2336
O3 O 1.2859(3) 0.37843(14) 0.3544(3)
C14 C 1.3558(4) 0.3213(2) 0.3680(4)
O4 O 1.4315(3) 0.31055(15) 0.3047(3)
Zn1C Zn 1.44200(4) 0.38885(2) 0.18578(4)
O4C O 0.9315(3) 0.18945(15) 0.8047(3)
O5 O 1.3470(3) 0.09077(16) 0.9470(3)
O6 O 0.7222(3) -0.18436(16) 0.8777(3)
O7 O 1.6127(3) 0.05805(17) 0.9541(4)
loop_
_geom_bond_atom_site_label_1
_geom_bond_atom_site_label_2
_geom_bond_site_symmetry_1
_geom_bond_site_symmetry_2
Zn1 N1 1_555 1_555
O1 C3 1_555 1_555
N1 C10 1_555 1_555
O2 Zn1 1_555 1_555
C1 H1 1_555 1_555
C2 C1 1_555 1_555
N2 Zn1 1_555 1_555
C3 O2 1_555 1_555
C4 C1 1_555 1_555
N3 H2 1_555 1_555
C5 C4 1_555 1_555
H3 C5 1_555 1_555
N4 H4 1_555 1_555
C6 N3 1_555 1_555
H5 C6 1_555 1_555
C7 C5 1_555 1_555
H6 C7 1_555 1_555
C8 N2 1_555 1_555
H7 C8 1_555 1_555
C9 C2 1_555 1_555
H8 C9 1_555 1_555
C10 N4 1_555 1_555
H9 C10 1_555 1_555
C11 N1 1_555 1_555
H10 C11 1_555 1_555
C12 N2 1_555 1_555
H11 C12 1_555 1_555
C13 N4 1_555 1_555
H12 C13 1_555 1_555
O3 C14 1_555 1_555
C14 C2 1_555 1_555
O4 C14 1_555 1_555
Zn1C O4 1_555 1_555
O4C Zn1 1_555 1_555
C3 C4 1_555 1_555
N3 C12 1_555 1_555
C6 C8 1_555 1_555
C7 C9 1_555 1_555
C11 C13 1_555 1_555

#END
