
#######################################################################
#
#                 Cambridge Crystallographic Data Centre
#                                CCDC 
#
#######################################################################
#
# If this CIF has been generated from an entry in the Cambridge 
# Structural Database, then it will include bibliographic, chemical, 
# crystal, experimental, refinement or atomic coordinate data resulting 
# from the CCDC's data processing and validation procedures.
#
#######################################################################

data_LEHZEF
_symmetry_cell_setting           monoclinic
_symmetry_space_group_name_H-M   'C 2/m'
_symmetry_Int_Tables_number      12
_space_group_name_Hall           '-C 2y'
loop_
_symmetry_equiv_pos_site_id
_symmetry_equiv_pos_as_xyz
1 x,y,z
2 -x,y,-z
3 1/2+x,1/2+y,z
4 1/2-x,1/2+y,-z
5 -x,-y,-z
6 x,-y,z
7 1/2-x,1/2-y,-z
8 1/2+x,1/2-y,z
_cell_length_a                   18.899(3)
_cell_length_b                   14.536(2)
_cell_length_c                   11.4703(16)
_cell_angle_alpha                90
_cell_angle_beta                 111.875(2)
_cell_angle_gamma                90
_cell_volume                     2924.19
loop_
_atom_site_label
_atom_site_type_symbol
_atom_site_fract_x
_atom_site_fract_y
_atom_site_fract_z
Zn1 Zn 0.0000 0.61833(5) 0.0000
S1 S -0.72848(11) 0.5000 -0.4742(2)
O1 O -0.10667(18) 0.5756(3) -0.0642(4)
O2 O -0.7501(10) 0.5000 -0.3674(14)
O4 O -0.7536(5) 0.4381(7) -0.5758(9)
N1 N -0.0013(2) 0.6199(3) -0.1923(4)
N2 N 0.0000 0.7583(4) 0.0000
C1 C -0.1396(3) 0.5000 -0.0856(5)
C2 C -0.2243(3) 0.5000 -0.1412(6)
C3 C -0.2643(3) 0.5802(4) -0.1686(7)
H7 H -0.2385 0.6360 -0.1515
C4 C -0.3431(3) 0.5792(4) -0.2218(8)
H8 H -0.3692 0.6349 -0.2387
C5 C -0.3835(4) 0.5000 -0.2503(7)
C6 C -0.4682(4) 0.5000 -0.3083(7)
C7 C -0.5097(4) 0.4209(5) -0.3378(9)
H9 H -0.4840 0.3649 -0.3228
C8 C -0.5881(4) 0.4203(6) -0.3890(9)
H10 H -0.6143 0.3647 -0.4065
C9 C -0.6271(4) 0.5000 -0.4137(7)
C10 C 0.0615(3) 0.6256(6) -0.2144(6)
H11 H 0.1075 0.6250 -0.1458
C11 C 0.0645(4) 0.6325(5) -0.3312(7)
H12 H 0.1115 0.6383 -0.3393
C12 C -0.0005(3) 0.6309(3) -0.4361(5)
C13 C -0.0654(4) 0.6262(5) -0.4131(7)
H13 H -0.1121 0.6265 -0.4802
C14 C -0.0641(3) 0.6210(6) -0.2930(6)
H14 H -0.1105 0.6181 -0.2822
C15 C -0.0633(3) 0.8047(4) -0.0398(8)
H15 H -0.1092 0.7726 -0.0685
C16 C -0.0652(3) 0.9001(4) -0.0412(8)
H16 H -0.1119 0.9304 -0.0709
C17 C 0.0000 0.9492(4) 0.0000
Zn1D Zn 0.0000 0.38167(5) 0.0000
Zn1_2 Zn 0.0000 0.61833(5) -1.0000
Zn1D_2 Zn 0.0000 1.38167(5) 0.0000
Zn1_3 Zn 0.0000 0.61833(5) 1.0000
S1A S 0.72848(11) 0.5000 0.4742(2)
O1E O -0.10667(18) 0.4244(3) -0.0642(4)
O1A O 0.10667(18) 0.5756(3) 0.0642(4)
O1D O 0.10667(18) 0.4244(3) 0.0642(4)
O2A O 0.7501(10) 0.5000 0.3674(14)
O4E O -0.7536(5) 0.5619(7) -0.5758(9)
O4A O 0.7536(5) 0.4381(7) 0.5758(9)
O4D O 0.7536(5) 0.5619(7) 0.5758(9)
N1A N 0.0013(2) 0.6199(3) -0.8077(4)
N1A_2 N 0.0013(2) 0.6199(3) 0.1923(4)
N1_2 N -0.0013(2) 0.6199(3) 0.8077(4)
N1E N -0.0013(2) 0.3801(3) -0.1923(4)
N1D N 0.0013(2) 0.3801(3) 0.1923(4)
N2D N 0.0000 1.2417(4) 0.0000
N2D_2 N 0.0000 0.2417(4) 0.0000
C1A C 0.1396(3) 0.5000 0.0856(5)
C2A C 0.2243(3) 0.5000 0.1412(6)
C3E C -0.2643(3) 0.4198(4) -0.1686(7)
C3A C 0.2643(3) 0.5802(4) 0.1686(7)
C3D C 0.2643(3) 0.4198(4) 0.1686(7)
H7E H -0.2385 0.3640 -0.1515
H7A H 0.2385 0.6360 0.1515
H7D H 0.2385 0.3640 0.1515
C4E C -0.3431(3) 0.4208(4) -0.2218(8)
C4A C 0.3431(3) 0.5792(4) 0.2218(8)
C4D C 0.3431(3) 0.4208(4) 0.2218(8)
H8E H -0.3692 0.3651 -0.2387
H8A H 0.3692 0.6349 0.2387
H8D H 0.3692 0.3651 0.2387
C5A C 0.3835(4) 0.5000 0.2503(7)
C6A C 0.4682(4) 0.5000 0.3083(7)
C7E C -0.5097(4) 0.5791(5) -0.3378(9)
C7A C 0.5097(4) 0.4209(5) 0.3378(9)
C7D C 0.5097(4) 0.5791(5) 0.3378(9)
H9E H -0.4840 0.6351 -0.3228
H9A H 0.4840 0.3649 0.3228
H9D H 0.4840 0.6351 0.3228
C8E C -0.5881(4) 0.5797(6) -0.3890(9)
C8A C 0.5881(4) 0.4203(6) 0.3890(9)
C8D C 0.5881(4) 0.5797(6) 0.3890(9)
H10E H -0.6143 0.6353 -0.4065
H10A H 0.6143 0.3647 0.4065
H10D H 0.6143 0.6353 0.4065
C9A C 0.6271(4) 0.5000 0.4137(7)
C10A C -0.0615(3) 0.6256(6) -0.7856(6)
C10A_2 C -0.0615(3) 0.6256(6) 0.2144(6)
C10_2 C 0.0615(3) 0.6256(6) 0.7856(6)
H11A H -0.1075 0.6250 -0.8542
H11A_2 H -0.1075 0.6250 0.1458
H11_2 H 0.1075 0.6250 0.8542
C11A C -0.0645(4) 0.6325(5) -0.6688(7)
C11A_2 C -0.0645(4) 0.6325(5) 0.3312(7)
C11_2 C 0.0645(4) 0.6325(5) 0.6688(7)
H12A H -0.1115 0.6383 -0.6607
H12A_2 H -0.1115 0.6383 0.3393
H12_2 H 0.1115 0.6383 0.6607
C12A C 0.0005(3) 0.6309(3) -0.5639(5)
C12A_2 C 0.0005(3) 0.6309(3) 0.4361(5)
C12_2 C -0.0005(3) 0.6309(3) 0.5639(5)
C13A C 0.0654(4) 0.6262(5) -0.5869(7)
C13A_2 C 0.0654(4) 0.6262(5) 0.4131(7)
C13_2 C -0.0654(4) 0.6262(5) 0.5869(7)
H13A H 0.1121 0.6265 -0.5198
H13A_2 H 0.1121 0.6265 0.4802
H13_2 H -0.1121 0.6265 0.5198
C14A C 0.0641(3) 0.6210(6) -0.7070(6)
C14A_2 C 0.0641(3) 0.6210(6) 0.2930(6)
C14_2 C -0.0641(3) 0.6210(6) 0.7070(6)
H14A H 0.1105 0.6181 -0.7178
H14A_2 H 0.1105 0.6181 0.2822
H14_2 H -0.1105 0.6181 0.7178
C15A C 0.0633(3) 0.8047(4) 0.0398(8)
C15D C 0.0633(3) 1.1953(4) 0.0398(8)
C15E C -0.0633(3) 1.1953(4) -0.0398(8)
H15A H 0.1092 0.7726 0.0685
H15E H -0.1092 1.2274 -0.0685
H15D H 0.1092 1.2274 0.0685
C16A C 0.0652(3) 0.9001(4) 0.0412(8)
C16D C 0.0652(3) 1.0999(4) 0.0412(8)
C16E C -0.0652(3) 1.0999(4) -0.0412(8)
H16A H 0.1119 0.9304 0.0709
H16E H -0.1119 1.0696 -0.0709
H16D H 0.1119 1.0696 0.0709
C17D C 0.0000 1.0508(4) 0.0000
O5 O 0.2550(3) 0.1902(3) 0.1017(5)
H1 H 0.2086 0.1744 0.0662
H2 H 0.2785 0.1796 0.0527
O6 O 0.2562(5) 0.2398(5) 0.3401(6)
H3 H 0.2649 0.1890 0.3113
H4 H 0.2488 0.2304 0.4078
O7 O 0.2543(4) 0.0000 0.1388(6)
H6 H 0.2606 0.0000 0.2161
O3? O -0.7506(6) 0.5972(7) -0.5110(10)
H5? H 0.2492 0.0549 0.1115
O8? O -0.7484(9) 0.4564(12) -0.3740(14)
loop_
_geom_bond_atom_site_label_1
_geom_bond_atom_site_label_2
_geom_bond_site_symmetry_1
_geom_bond_site_symmetry_2
Zn1 O1 1_555 1_555
S1 O2 1_555 1_555
O1 C1 1_555 1_555
O4 S1 1_555 1_555
O5 H1 1_555 1_555
H2 O5 1_555 1_555
O6 H3 1_555 1_555
H4 O6 1_555 1_555
O7 H6 1_555 1_555
N1 Zn1 1_555 1_555
N2 Zn1 1_555 1_555
C1 C2 1_555 1_555
C2 C3 1_555 1_555
C3 H7 1_555 1_555
C4 C3 1_555 1_555
H8 C4 1_555 1_555
C5 C4 1_555 1_555
C6 C5 1_555 1_555
C7 C6 1_555 1_555
H9 C7 1_555 1_555
C8 C7 1_555 1_555
H10 C8 1_555 1_555
C9 S1 1_555 1_555
C10 N1 1_555 1_555
H11 C10 1_555 1_555
C11 C10 1_555 1_555
H12 C11 1_555 1_555
C12 C11 1_555 1_555
C13 C12 1_555 1_555
H13 C13 1_555 1_555
C14 N1 1_555 1_555
H14 C14 1_555 1_555
C15 N2 1_555 1_555
H15 C15 1_555 1_555
C16 C15 1_555 1_555
H16 C16 1_555 1_555
C17 C16 1_555 1_555
Zn1D O1E 1_555 1_555
Zn1_2 N1A 1_555 1_555
Zn1D_2 N2D 1_555 1_555
Zn1_3 N1_2 1_555 1_555
S1A O2A 1_555 1_555
O1E C1 1_555 1_555
O1A Zn1 1_555 1_555
O1D Zn1D 1_555 1_555
O4E S1 1_555 1_555
O4A S1A 1_555 1_555
O4D S1A 1_555 1_555
N1A C10A 1_555 1_555
N1A_2 Zn1 1_555 1_555
N1_2 C10_2 1_555 1_555
N1E Zn1D 1_555 1_555
N1D Zn1D 1_555 1_555
N2D C15D 1_555 1_555
N2D_2 Zn1D 1_555 1_555
C1A O1A 1_555 1_555
C2A C1A 1_555 1_555
C3E C2 1_555 1_555
C3A C2A 1_555 1_555
C3D C2A 1_555 1_555
H7E C3E 1_555 1_555
H7A C3A 1_555 1_555
H7D C3D 1_555 1_555
C4E C5 1_555 1_555
C4A C3A 1_555 1_555
C4D C3D 1_555 1_555
H8E C4E 1_555 1_555
H8A C4A 1_555 1_555
H8D C4D 1_555 1_555
C5A C4A 1_555 1_555
C6A C5A 1_555 1_555
C7E C6 1_555 1_555
C7A C6A 1_555 1_555
C7D C6A 1_555 1_555
H9E C7E 1_555 1_555
H9A C7A 1_555 1_555
H9D C7D 1_555 1_555
C8E C9 1_555 1_555
C8A C7A 1_555 1_555
C8D C7D 1_555 1_555
H10E C8E 1_555 1_555
H10A C8A 1_555 1_555
H10D C8D 1_555 1_555
C9A S1A 1_555 1_555
C10A H11A 1_555 1_555
C10A_2 N1A_2 1_555 1_555
C10_2 H11_2 1_555 1_555
H11A_2 C10A_2 1_555 1_555
C11A C10A 1_555 1_555
C11A_2 C10A_2 1_555 1_555
C11_2 C10_2 1_555 1_555
H12A C11A 1_555 1_555
H12A_2 C11A_2 1_555 1_555
H12_2 C11_2 1_555 1_555
C12A C12 1_555 1_555
C12A_2 C11A_2 1_555 1_555
C12_2 C11_2 1_555 1_555
C13A C12A 1_555 1_555
C13A_2 C12A_2 1_555 1_555
C13_2 C12_2 1_555 1_555
H13A C13A 1_555 1_555
H13A_2 C13A_2 1_555 1_555
H13_2 C13_2 1_555 1_555
C14A N1A 1_555 1_555
C14A_2 N1A_2 1_555 1_555
C14_2 N1_2 1_555 1_555
H14A C14A 1_555 1_555
H14A_2 C14A_2 1_555 1_555
H14_2 C14_2 1_555 1_555
C15A N2 1_555 1_555
C15D H15D 1_555 1_555
C15E N2D 1_555 1_555
H15A C15A 1_555 1_555
H15E C15E 1_555 1_555
C16A C17 1_555 1_555
C16D C15D 1_555 1_555
C16E C15E 1_555 1_555
H16A C16A 1_555 1_555
H16E C16E 1_555 1_555
H16D C16D 1_555 1_555
C17D C17 1_555 1_555
C8 C9 1_555 1_555
C13 C14 1_555 1_555
O1D C1A 1_555 1_555
C3E C4E 1_555 1_555
C4D C5A 1_555 1_555
C7E C8E 1_555 1_555
C8A C9A 1_555 1_555
C8D C9A 1_555 1_555
C11A C12A 1_555 1_555
C12A_2 C12_2 1_555 1_555
C13A C14A 1_555 1_555
C13A_2 C14A_2 1_555 1_555
C13_2 C14_2 1_555 1_555
C15A C16A 1_555 1_555
C16D C17D 1_555 1_555
C16E C17D 1_555 1_555

#END
