
#######################################################################
#
#                 Cambridge Crystallographic Data Centre
#                                CCDC 
#
#######################################################################
#
# If this CIF has been generated from an entry in the Cambridge 
# Structural Database, then it will include bibliographic, chemical, 
# crystal, experimental, refinement or atomic coordinate data resulting 
# from the CCDC's data processing and validation procedures.
#
#######################################################################

data_LEHZIJ
_symmetry_cell_setting           monoclinic
_symmetry_space_group_name_H-M   'C 2/c'
_symmetry_Int_Tables_number      15
_space_group_name_Hall           '-C 2yn'
loop_
_symmetry_equiv_pos_site_id
_symmetry_equiv_pos_as_xyz
1 x,y,z
2 -x,y,1/2-z
3 1/2+x,1/2+y,z
4 1/2-x,1/2+y,1/2-z
5 -x,-y,-z
6 x,-y,1/2+z
7 1/2-x,1/2-y,-z
8 1/2+x,1/2-y,1/2+z
_cell_length_a                   16.676(4)
_cell_length_b                   12.750(2)
_cell_length_c                   9.971(2)
_cell_angle_alpha                90
_cell_angle_beta                 117.104(4)
_cell_angle_gamma                90
_cell_volume                     1887.21
loop_
_atom_site_label
_atom_site_type_symbol
_atom_site_fract_x
_atom_site_fract_y
_atom_site_fract_z
Hg1 Hg 0.5000 0.24186(2) 0.7500
I1 I 0.36739(3) 0.17747(3) 0.48995(4)
S1 S 0.36257(11) 0.20232(11) 0.91276(16)
N1 N 0.4057(3) 0.3747(3) 0.8072(5)
N2 N 0.4700(3) 0.2923(3) 1.1772(5)
C1 C 0.3553(4) 0.3391(4) 0.8720(6)
C2 C 0.2995(4) 0.4035(5) 0.9021(7)
H1 H 0.2647 0.3762 0.9463
C3 C 0.2949(5) 0.5075(5) 0.8675(7)
H2 H 0.2579 0.5529 0.8891
C4 C 0.3450(4) 0.5445(5) 0.8009(7)
H3 H 0.3430 0.6159 0.7758
C5 C 0.3976(4) 0.4766(4) 0.7716(7)
H4 H 0.4304 0.5028 0.7233
C6 C 0.4416(4) 0.2023(4) 1.1059(6)
C7 C 0.4697(5) 0.1044(4) 1.1764(6)
H5 H 0.4473 0.0415 1.1233
Hg1_2 Hg 0.5000 0.24186(2) 1.7500
I1A I 0.63261(3) 0.17747(3) 1.01005(4)
S1A S 0.63743(11) 0.20232(11) 1.58724(16)
N1A N 0.5943(3) 0.3747(3) 1.6928(5)
N1A_2 N 0.5943(3) 0.3747(3) 0.6928(5)
N2A N 0.5300(3) 0.2923(3) 1.3228(5)
C1A C 0.6447(4) 0.3391(4) 1.6280(6)
C2A C 0.7005(4) 0.4035(5) 1.5979(7)
H1A H 0.7353 0.3762 1.5537
C3A C 0.7051(5) 0.5075(5) 1.6325(7)
H2A H 0.7421 0.5529 1.6109
C4A C 0.6550(4) 0.5445(5) 1.6991(7)
H3A H 0.6570 0.6159 1.7242
C5A C 0.6024(4) 0.4766(4) 1.7284(7)
H4A H 0.5696 0.5028 1.7767
C6A C 0.5584(4) 0.2023(4) 1.3941(6)
C7A C 0.5303(5) 0.1044(4) 1.3236(6)
H5A H 0.5527 0.0415 1.3767
loop_
_geom_bond_atom_site_label_1
_geom_bond_atom_site_label_2
_geom_bond_site_symmetry_1
_geom_bond_site_symmetry_2
Hg1 I1 1_555 1_555
S1 C1 1_555 1_555
N1 Hg1 1_555 1_555
N2 C6 1_555 1_555
C1 N1 1_555 1_555
C2 C1 1_555 1_555
H1 C2 1_555 1_555
C3 C2 1_555 1_555
H2 C3 1_555 1_555
C4 C3 1_555 1_555
H3 C4 1_555 1_555
C5 N1 1_555 1_555
H4 C5 1_555 1_555
C6 S1 1_555 1_555
C7 C6 1_555 1_555
H5 C7 1_555 1_555
Hg1_2 N1A 1_555 1_555
I1A Hg1 1_555 1_555
S1A C1A 1_555 1_555
N1A C1A 1_555 1_555
N1A_2 Hg1 1_555 1_555
N2A N2 1_555 1_555
C1A C2A 1_555 1_555
C2A H1A 1_555 1_555
C3A C2A 1_555 1_555
H2A C3A 1_555 1_555
C4A C3A 1_555 1_555
H3A C4A 1_555 1_555
C5A N1A 1_555 1_555
H4A C5A 1_555 1_555
C6A S1A 1_555 1_555
C7A C7 1_555 1_555
H5A C7A 1_555 1_555
C4 C5 1_555 1_555
N2A C6A 1_555 1_555
C4A C5A 1_555 1_555
C6A C7A 1_555 1_555

#END
