
#######################################################################
#
#                 Cambridge Crystallographic Data Centre
#                                CCDC 
#
#######################################################################
#
# If this CIF has been generated from an entry in the Cambridge 
# Structural Database, then it will include bibliographic, chemical, 
# crystal, experimental, refinement or atomic coordinate data resulting 
# from the CCDC's data processing and validation procedures.
#
#######################################################################

data_LEJHOZ01
_symmetry_cell_setting           monoclinic
_symmetry_space_group_name_H-M   'P 21/c'
_symmetry_Int_Tables_number      14
_space_group_name_Hall           '-P 2ybc'
loop_
_symmetry_equiv_pos_site_id
_symmetry_equiv_pos_as_xyz
1 x,y,z
2 -x,1/2+y,1/2-z
3 -x,-y,-z
4 x,1/2-y,1/2+z
_cell_length_a                   19.714(5)
_cell_length_b                   18.697(5)
_cell_length_c                   16.196(5)
_cell_angle_alpha                90
_cell_angle_beta                 95.047(5)
_cell_angle_gamma                90
_cell_volume                     5946.58
loop_
_atom_site_label
_atom_site_type_symbol
_atom_site_fract_x
_atom_site_fract_y
_atom_site_fract_z
Fe1 Fe 0.42192(2) 0.28510(2) 0.37281(3)
Fe2 Fe 0.91999(2) 0.20247(2) 0.39805(3)
O1 O 0.45506(10) 0.30404(10) 0.26204(13)
O2 O 0.34880(10) 0.21047(10) 0.35618(13)
O3 O 0.19757(10) 0.14643(11) 0.50483(14)
O4 O 0.21779(10) 0.24483(11) 0.58049(14)
O5 O 0.61917(10) 0.48302(10) 0.31461(13)
O6 O 0.57910(11) 0.46927(12) 0.18243(14)
O7 O 0.93777(10) 0.19150(10) 0.28408(13)
O8 O 0.85207(10) 0.27458(10) 0.36440(13)
O9 O 1.06760(11) 0.04092(12) 0.18592(15)
O10 O 1.10952(10) 0.01511(10) 0.31466(13)
O11 O 0.72647(10) 0.26733(11) 0.59619(14)
O12 O 0.70616(11) 0.35971(11) 0.50988(14)
N1 N 0.39732(12) 0.29039(12) 0.49483(15)
N2 N 0.48937(12) 0.36337(12) 0.41919(16)
N3 N 0.49867(12) 0.19848(13) 0.40100(16)
N4 N 0.33942(13) 0.36920(13) 0.34320(16)
N5 N 0.98613(11) 0.13295(12) 0.43550(16)
N6 N 0.90099(11) 0.20772(12) 0.51138(15)
N7 N 0.84812(12) 0.12751(12) 0.37772(16)
N8 N -0.00940(12) 0.27989(12) 0.41547(15)
C1 C 0.30011(15) 0.19278(16) 0.3985(2)
C2 C 0.29266(14) 0.22023(15) 0.4789(2)
C3 C 0.34092(14) 0.26633(15) 0.5221(2)
H1 H 0.3314 0.2811 0.5760
C4 C 0.44358(15) 0.33262(15) 0.5467(2)
C5 C 0.44582(15) 0.33415(15) 0.6328(2)
H2 H 0.4150 0.3057 0.6605
C6 C 0.49271(15) 0.37687(15) 0.6784(2)
H3 H 0.4934 0.3783 0.7371
C7 C 0.53843(15) 0.41742(15) 0.6385(2)
H4 H 0.5699 0.4476 0.6697
C8 C 0.53862(15) 0.41431(15) 0.5539(2)
H5 H 0.5713 0.4412 0.5272
C9 C 0.49128(14) 0.37203(15) 0.5064(2)
C10 C 0.52589(14) 0.40421(15) 0.3746(2)
H6 H 0.5524 0.4401 0.4038
C11 C 0.53042(15) 0.40107(15) 0.28826(19)
C12 C 0.49422(16) 0.35085(16) 0.2351(2)
C13 C 0.49986(17) 0.34841(17) 0.1432(2)
H7 H 0.4666 0.3143 0.1176
H8 H 0.5459 0.3333 0.1325
H9 H 0.4907 0.3960 0.1195
C14 C 0.25117(16) 0.13896(17) 0.3571(2)
H10 H 0.2590 0.1349 0.2984
H11 H 0.2043 0.1547 0.3621
H12 H 0.2584 0.0923 0.3840
C15 C 0.57645(15) 0.45238(16) 0.2541(2)
C16 C 0.66443(14) 0.53634(16) 0.28810(19)
H13 H 0.6383 0.5764 0.2608
H14 H 0.6943 0.5157 0.2482
C17 C 0.70628(15) 0.56236(16) 0.3645(2)
H15 H 0.6761 0.5821 0.4037
H16 H 0.7378 0.5996 0.3490
H17 H 0.7322 0.5223 0.3905
C18 C 0.23300(16) 0.19881(16) 0.5207(2)
C19 C 0.15698(16) 0.22592(18) 0.6202(2)
H18 H 0.1614 0.1769 0.6431
H19 H 0.1166 0.2275 0.5793
C20 C 0.14890(16) 0.27791(18) 0.6879(2)
H20 H 0.1896 0.2770 0.7272
H21 H 0.1089 0.2650 0.7167
H22 H 0.1428 0.3261 0.6645
C21 C 0.56409(16) 0.21375(17) 0.4226(2)
H23 H 0.5787 0.2619 0.4180
C22 C 0.61175(16) 0.16277(17) 0.4513(2)
H24 H 0.6576 0.1767 0.4660
C23 C 0.59324(15) 0.09211(17) 0.45882(19)
C24 C 0.52585(15) 0.07609(17) 0.4330(2)
H25 H 0.5105 0.0280 0.4342
C25 C 0.48134(16) 0.12899(16) 0.4059(2)
H26 H 0.4355 0.1159 0.3896
C26 C 0.64219(15) 0.03680(17) 0.4961(2)
H27 H 0.6267 0.0213 0.5498
H28 H 0.6874 0.0595 0.5078
C27 C 0.65034(16) -0.02900(17) 0.4428(2)
H29 H 0.6062 -0.0545 0.4358
H30 H 0.6838 -0.0615 0.4726
C28 C 0.67353(15) -0.01349(17) 0.3573(2)
H31 H 0.6828 -0.0593 0.3298
H32 H 0.6363 0.0109 0.3233
C29 C 0.73648(15) 0.03253(16) 0.3608(2)
C30 C 0.79181(15) 0.02124(16) 0.4187(2)
H33 H 0.7931 -0.0199 0.4532
C31 C 0.84478(15) 0.06954(15) 0.4262(2)
H34 H 0.8809 0.0614 0.4679
C32 C 0.79742(15) 0.13546(16) 0.3179(2)
H35 H 0.8000 0.1738 0.2798
C33 C 0.74149(16) 0.09078(17) 0.3086(2)
H36 H 0.7062 0.1000 0.2661
C34 C 0.80701(15) 0.30070(16) 0.4073(2)
C35 C 0.79986(15) 0.28136(15) 0.4910(2)
C36 C 0.84683(14) 0.23738(15) 0.5384(2)
H37 H 0.8385 0.2286 0.5944
C37 C 0.94807(14) 0.16817(14) 0.56501(19)
C38 C 0.95277(15) 0.16794(15) 0.6512(2)
H38 H 0.9234 0.1974 0.6799
C39 C 1.00034(15) 0.12475(15) 0.6954(2)
H39 H 1.0029 0.1241 0.7542
C40 C 1.04412(15) 0.08250(15) 0.6539(2)
H40 H 1.0760 0.0524 0.6844
C41 C 1.04166(14) 0.08401(15) 0.56868(19)
H41 H 1.0727 0.0560 0.5408
C42 C 0.99385(15) 0.12642(15) 0.5231(2)
C43 C 1.02273(14) 0.09433(15) 0.3883(2)
H42 H 1.0539 0.0613 0.4153
C44 C 1.01978(14) 0.09760(15) 0.30079(19)
C45 C 0.97549(15) 0.14514(16) 0.2528(2)
C46 C 0.96979(15) 0.14435(16) 0.15984(19)
H43 H 0.9293 0.1713 0.1386
H44 H 0.9659 0.0948 0.1401
H45 H 1.0105 0.1664 0.1400
C47 C 0.76147(16) 0.35466(16) 0.3611(2)
H46 H 0.7714 0.4025 0.3839
H47 H 0.7138 0.3427 0.3671
H48 H 0.7695 0.3540 0.3023
C48 C 1.06517(15) 0.04960(16) 0.2591(2)
C49 C 1.15626(15) -0.03294(16) 0.27984(19)
H49 H 1.1841 -0.0069 0.2417
H50 H 1.1311 -0.0715 0.2484
C50 C 1.20096(15) -0.06390(16) 0.3508(2)
H51 H 1.2254 -0.0252 0.3815
H52 H 1.2338 -0.0969 0.3293
H53 H 1.1728 -0.0898 0.3878
C51 C 0.74092(16) 0.30798(17) 0.5305(2)
C52 C 0.66542(15) 0.28810(17) 0.6336(2)
H54 H 0.6250 0.2813 0.5936
H55 H 0.6680 0.3392 0.6497
C53 C 0.65993(16) 0.24278(17) 0.7078(2)
H56 H 0.6591 0.1923 0.6915
H57 H 0.6179 0.2546 0.7329
H58 H 0.6992 0.2515 0.7479
C54 C -0.02408(16) 0.34224(16) 0.4500(2)
H59 H -0.0701 0.3518 0.4594
C55 C 0.02425(15) 0.39333(16) 0.4726(2)
H60 H 0.0107 0.4373 0.4955
C56 C 0.09247(15) 0.38137(16) 0.46244(19)
C57 C 0.10698(15) 0.31819(15) 0.4238(2)
H61 H 0.1525 0.3079 0.4127
C58 C 0.05594(15) 0.26979(16) 0.4011(2)
H62 H 0.0676 0.2271 0.3740
C59 C 0.14653(15) 0.43282(15) 0.4963(2)
H63 H 0.1916 0.4100 0.4935
H64 H 0.1405 0.4416 0.5555
C60 C 0.14675(15) 0.50459(16) 0.4518(2)
H65 H 0.1820 0.5355 0.4808
H66 H 0.1021 0.5280 0.4555
C61 C 0.16040(15) 0.49933(16) 0.3604(2)
H67 H 0.1209 0.4763 0.3290
H68 H 0.1653 0.5481 0.3379
C62 C 0.22369(16) 0.45703(16) 0.3485(2)
C63 C 0.22234(16) 0.39495(16) 0.3017(2)
H69 H 0.1815 0.3808 0.2704
C64 C 0.28024(16) 0.35363(16) 0.3005(2)
H70 H 0.2779 0.3117 0.2673
C65 C 0.34123(15) 0.43105(16) 0.3849(2)
H71 H 0.3833 0.4447 0.4137
C66 C 0.28639(15) 0.47640(16) 0.3891(2)
H72 H 0.2912 0.5200 0.4191
Fe2_2 Fe -0.08001(2) 0.20247(2) 0.39805(3)
N8_2 N 0.99060(12) 0.27989(12) 0.41547(15)
loop_
_geom_bond_atom_site_label_1
_geom_bond_atom_site_label_2
_geom_bond_site_symmetry_1
_geom_bond_site_symmetry_2
Fe1 O1 1_555 1_555
Fe2 O7 1_555 1_555
O1 C12 1_555 1_555
O2 Fe1 1_555 1_555
O3 C18 1_555 1_555
O4 C18 1_555 1_555
O5 C15 1_555 1_555
O6 C15 1_555 1_555
O7 C45 1_555 1_555
O8 Fe2 1_555 1_555
O9 C48 1_555 1_555
O10 C48 1_555 1_555
O11 C51 1_555 1_555
O12 C51 1_555 1_555
N1 Fe1 1_555 1_555
N2 Fe1 1_555 1_555
N3 Fe1 1_555 1_555
N4 Fe1 1_555 1_555
N5 Fe2 1_555 1_555
N6 Fe2 1_555 1_555
N7 Fe2 1_555 1_555
N8 C54 1_555 1_555
C1 O2 1_555 1_555
C2 C1 1_555 1_555
C3 N1 1_555 1_555
H1 C3 1_555 1_555
C4 N1 1_555 1_555
C5 C4 1_555 1_555
H2 C5 1_555 1_555
C6 C5 1_555 1_555
H3 C6 1_555 1_555
C7 C6 1_555 1_555
H4 C7 1_555 1_555
C8 C7 1_555 1_555
H5 C8 1_555 1_555
C9 N2 1_555 1_555
C10 N2 1_555 1_555
H6 C10 1_555 1_555
C11 C10 1_555 1_555
C12 C11 1_555 1_555
C13 C12 1_555 1_555
H7 C13 1_555 1_555
H8 C13 1_555 1_555
H9 C13 1_555 1_555
C14 C1 1_555 1_555
H10 C14 1_555 1_555
H11 C14 1_555 1_555
H12 C14 1_555 1_555
C15 C11 1_555 1_555
C16 O5 1_555 1_555
H13 C16 1_555 1_555
H14 C16 1_555 1_555
C17 C16 1_555 1_555
H15 C17 1_555 1_555
H16 C17 1_555 1_555
H17 C17 1_555 1_555
C18 C2 1_555 1_555
C19 O4 1_555 1_555
H18 C19 1_555 1_555
H19 C19 1_555 1_555
C20 C19 1_555 1_555
H20 C20 1_555 1_555
H21 C20 1_555 1_555
H22 C20 1_555 1_555
C21 N3 1_555 1_555
H23 C21 1_555 1_555
C22 C21 1_555 1_555
H24 C22 1_555 1_555
C23 C22 1_555 1_555
C24 C23 1_555 1_555
H25 C24 1_555 1_555
C25 N3 1_555 1_555
H26 C25 1_555 1_555
C26 C23 1_555 1_555
H27 C26 1_555 1_555
H28 C26 1_555 1_555
C27 C26 1_555 1_555
H29 C27 1_555 1_555
H30 C27 1_555 1_555
C28 C27 1_555 1_555
H31 C28 1_555 1_555
H32 C28 1_555 1_555
C29 C28 1_555 1_555
C30 C29 1_555 1_555
H33 C30 1_555 1_555
C31 N7 1_555 1_555
H34 C31 1_555 1_555
C32 N7 1_555 1_555
H35 C32 1_555 1_555
C33 C29 1_555 1_555
H36 C33 1_555 1_555
C34 O8 1_555 1_555
C35 C34 1_555 1_555
C36 N6 1_555 1_555
H37 C36 1_555 1_555
C37 N6 1_555 1_555
C38 C37 1_555 1_555
H38 C38 1_555 1_555
C39 C38 1_555 1_555
H39 C39 1_555 1_555
C40 C39 1_555 1_555
H40 C40 1_555 1_555
C41 C40 1_555 1_555
H41 C41 1_555 1_555
C42 N5 1_555 1_555
C43 N5 1_555 1_555
H42 C43 1_555 1_555
C44 C43 1_555 1_555
C45 C44 1_555 1_555
C46 C45 1_555 1_555
H43 C46 1_555 1_555
H44 C46 1_555 1_555
H45 C46 1_555 1_555
C47 C34 1_555 1_555
H46 C47 1_555 1_555
H47 C47 1_555 1_555
H48 C47 1_555 1_555
C48 C44 1_555 1_555
C49 O10 1_555 1_555
H49 C49 1_555 1_555
H50 C49 1_555 1_555
C50 C49 1_555 1_555
H51 C50 1_555 1_555
H52 C50 1_555 1_555
H53 C50 1_555 1_555
C51 C35 1_555 1_555
C52 O11 1_555 1_555
H54 C52 1_555 1_555
H55 C52 1_555 1_555
C53 C52 1_555 1_555
H56 C53 1_555 1_555
H57 C53 1_555 1_555
H58 C53 1_555 1_555
C54 H59 1_555 1_555
C55 C54 1_555 1_555
H60 C55 1_555 1_555
C56 C55 1_555 1_555
C57 C56 1_555 1_555
H61 C57 1_555 1_555
C58 N8 1_555 1_555
H62 C58 1_555 1_555
C59 C56 1_555 1_555
H63 C59 1_555 1_555
H64 C59 1_555 1_555
C60 C59 1_555 1_555
H65 C60 1_555 1_555
H66 C60 1_555 1_555
C61 C60 1_555 1_555
H67 C61 1_555 1_555
H68 C61 1_555 1_555
C62 C61 1_555 1_555
C63 C62 1_555 1_555
H69 C63 1_555 1_555
C64 N4 1_555 1_555
H70 C64 1_555 1_555
C65 N4 1_555 1_555
H71 C65 1_555 1_555
C66 C62 1_555 1_555
H72 C66 1_555 1_555
Fe2_2 N8 1_555 1_555
N8_2 Fe2 1_555 1_555
C2 C3 1_555 1_555
C4 C9 1_555 1_555
C8 C9 1_555 1_555
C24 C25 1_555 1_555
C30 C31 1_555 1_555
C32 C33 1_555 1_555
C35 C36 1_555 1_555
C37 C42 1_555 1_555
C41 C42 1_555 1_555
C57 C58 1_555 1_555
C63 C64 1_555 1_555
C65 C66 1_555 1_555

#END
