
#######################################################################
#
#                 Cambridge Crystallographic Data Centre
#                                CCDC 
#
#######################################################################
#
# If this CIF has been generated from an entry in the Cambridge 
# Structural Database, then it will include bibliographic, chemical, 
# crystal, experimental, refinement or atomic coordinate data resulting 
# from the CCDC's data processing and validation procedures.
#
#######################################################################

data_LEJHOZ
_symmetry_cell_setting           monoclinic
_symmetry_space_group_name_H-M   'P 21/c'
_symmetry_Int_Tables_number      14
_space_group_name_Hall           '-P 2ybc'
loop_
_symmetry_equiv_pos_site_id
_symmetry_equiv_pos_as_xyz
1 x,y,z
2 -x,1/2+y,1/2-z
3 -x,-y,-z
4 x,1/2-y,1/2+z
_cell_length_a                   12.292(6)
_cell_length_b                   18.983(8)
_cell_length_c                   16.256(5)
_cell_angle_alpha                90
_cell_angle_beta                 126.59(2)
_cell_angle_gamma                90
_cell_volume                     3045.61
loop_
_atom_site_label
_atom_site_type_symbol
_atom_site_fract_x
_atom_site_fract_y
_atom_site_fract_z
Fe1 Fe 0.83806(4) 0.287712(17) 0.54350(3)
O1 O 0.90026(17) 0.30863(9) 0.68592(13)
O2 O 0.69397(17) 0.21299(8) 0.48613(13)
O3 O 0.4052(2) 0.14471(10) 0.18562(15)
O4 O 0.44650(17) 0.24181(9) 0.13173(14)
O5 O 1.22829(17) 0.48517(8) 0.80067(13)
O6 O 1.1476(2) 0.47089(10) 0.89112(15)
N1 N 0.7965(2) 0.29000(9) 0.39865(15)
N2 N 0.97458(19) 0.36463(9) 0.56649(15)
N3 N 0.9938(2) 0.20215(10) 0.59668(15)
N4 N 1.6727(2) 0.12812(10) 0.98593(16)
C1 C 0.9757(2) 0.35533(13) 0.75119(19)
C2 C 1.0511(2) 0.40358(12) 0.73606(18)
C3 C 1.0464(2) 0.40536(12) 0.64718(19)
H1 H 1.1012 0.4398 0.6457
C4 C 0.9834(2) 0.37149(11) 0.48367(18)
C5 C 1.0781(2) 0.41251(12) 0.48453(19)
H2 H 1.1408 0.4401 0.5432
C6 C 1.0824(3) 0.41375(13) 0.4022(2)
H3 H 1.1464 0.4429 0.4037
C7 C 0.9947(3) 0.37297(13) 0.3176(2)
H4 H 0.9990 0.3735 0.2611
C8 C 0.9000(3) 0.33107(12) 0.31431(19)
H5 H 0.8409 0.3021 0.2563
C9 C 0.8910(2) 0.33118(12) 0.39568(19)
C10 C 0.6873(3) 0.26475(12) 0.3148(2)
H6 H 0.6703 0.2787 0.2520
C11 C 0.5913(2) 0.21843(11) 0.3084(2)
C12 C 0.6028(3) 0.19227(12) 0.3950(2)
C13 C 0.9796(3) 0.35474(14) 0.8452(2)
H7 H 0.9014 0.3286 0.8310
H8 H 0.9766 0.4032 0.8644
H9 H 1.0633 0.3320 0.9015
C14 C 0.5086(3) 0.13771(13) 0.3872(2)
H10 H 0.5272 0.0921 0.3697
H11 H 0.4147 0.1514 0.3337
H12 H 0.5225 0.1340 0.4530
C15 C 1.1425(3) 0.45457(13) 0.8163(2)
C16 C 1.3194(3) 0.53713(13) 0.8730(2)
H13 H 1.3788 0.5163 0.9424
H14 H 1.2681 0.5765 0.8749
C17 C 1.4019(3) 0.56298(14) 0.8396(2)
H15 H 1.4555 0.5240 0.8413
H16 H 1.4628 0.6004 0.8859
H17 H 1.3417 0.5815 0.7697
C18 C 0.4754(3) 0.19645(13) 0.2063(2)
C19 C 0.3272(3) 0.22409(15) 0.0300(2)
H18 H 0.2456 0.2250 0.0286
H19 H 0.3366 0.1762 0.0107
C20 C 0.3140(3) 0.27665(16) -0.0428(2)
H20 H 0.3028 0.3237 -0.0239
H21 H 0.2348 0.2653 -0.1123
H22 H 0.3957 0.2758 -0.0402
C21 C 1.1240(3) 0.21725(14) 0.6424(2)
H23 H 1.1524 0.2646 0.6627
C22 C 1.2200(3) 0.16865(14) 0.6620(2)
H24 H 1.3110 0.1832 0.6947
C23 C 1.1850(3) 0.09901(14) 0.63473(19)
C24 C 1.0506(3) 0.08254(14) 0.5900(2)
H25 H 1.0204 0.0352 0.5715
C25 C 0.9609(3) 0.13419(13) 0.57239(19)
H26 H 0.8695 0.1209 0.5409
C26 C 1.2861(3) 0.04618(14) 0.6487(2)
H27 H 1.3766 0.0686 0.6887
H28 H 1.2622 0.0342 0.5805
C27 C 1.2954(3) -0.02160(14) 0.7020(2)
H29 H 1.2081 -0.0470 0.6582
H30 H 1.3664 -0.0518 0.7094
C28 C 1.3280(3) -0.01061(14) 0.8076(2)
H31 H 1.2487 0.0109 0.7994
H32 H 1.3450 -0.0569 0.8412
C29 C 1.4492(3) 0.03570(13) 0.8748(2)
C30 C 1.5755(3) 0.01846(13) 0.8991(2)
H33 H 1.5888 -0.0260 0.8795
C31 C 1.6805(3) 0.06552(13) 0.9513(2)
H34 H 1.7640 0.0531 0.9637
C32 C 1.5531(3) 0.14251(14) 0.9671(2)
H35 H 1.5446 0.1854 0.9929
C33 C 1.4423(3) 0.09921(14) 0.9128(2)
H36 H 1.3599 0.1130 0.9011
Fe1C Fe 1.83806(4) 0.212288(17) 1.04350(3)
N4C N 0.6727(2) 0.37188(10) 0.48593(16)
loop_
_geom_bond_atom_site_label_1
_geom_bond_atom_site_label_2
_geom_bond_site_symmetry_1
_geom_bond_site_symmetry_2
Fe1 O1 1_555 1_555
O1 C1 1_555 1_555
O2 Fe1 1_555 1_555
O3 C18 1_555 1_555
O4 C18 1_555 1_555
O5 C15 1_555 1_555
O6 C15 1_555 1_555
N1 Fe1 1_555 1_555
N2 Fe1 1_555 1_555
N3 Fe1 1_555 1_555
N4 C31 1_555 1_555
C1 C2 1_555 1_555
C2 C3 1_555 1_555
C3 N2 1_555 1_555
H1 C3 1_555 1_555
C4 N2 1_555 1_555
C5 C4 1_555 1_555
H2 C5 1_555 1_555
C6 C5 1_555 1_555
H3 C6 1_555 1_555
C7 C6 1_555 1_555
H4 C7 1_555 1_555
C8 C7 1_555 1_555
H5 C8 1_555 1_555
C9 N1 1_555 1_555
C10 N1 1_555 1_555
H6 C10 1_555 1_555
C11 C10 1_555 1_555
C12 O2 1_555 1_555
C13 C1 1_555 1_555
H7 C13 1_555 1_555
H8 C13 1_555 1_555
H9 C13 1_555 1_555
C14 C12 1_555 1_555
H10 C14 1_555 1_555
H11 C14 1_555 1_555
H12 C14 1_555 1_555
C15 C2 1_555 1_555
C16 O5 1_555 1_555
H13 C16 1_555 1_555
H14 C16 1_555 1_555
C17 C16 1_555 1_555
H15 C17 1_555 1_555
H16 C17 1_555 1_555
H17 C17 1_555 1_555
C18 C11 1_555 1_555
C19 O4 1_555 1_555
H18 C19 1_555 1_555
H19 C19 1_555 1_555
C20 C19 1_555 1_555
H20 C20 1_555 1_555
H21 C20 1_555 1_555
H22 C20 1_555 1_555
C21 N3 1_555 1_555
H23 C21 1_555 1_555
C22 C21 1_555 1_555
H24 C22 1_555 1_555
C23 C22 1_555 1_555
C24 C23 1_555 1_555
H25 C24 1_555 1_555
C25 N3 1_555 1_555
H26 C25 1_555 1_555
C26 C23 1_555 1_555
H27 C26 1_555 1_555
H28 C26 1_555 1_555
C27 C26 1_555 1_555
H29 C27 1_555 1_555
H30 C27 1_555 1_555
C28 C27 1_555 1_555
H31 C28 1_555 1_555
H32 C28 1_555 1_555
C29 C28 1_555 1_555
C30 C29 1_555 1_555
H33 C30 1_555 1_555
C31 C30 1_555 1_555
H34 C31 1_555 1_555
C32 N4 1_555 1_555
H35 C32 1_555 1_555
C33 C29 1_555 1_555
H36 C33 1_555 1_555
Fe1C N4 1_555 1_555
N4C Fe1 1_555 1_555
C4 C9 1_555 1_555
C8 C9 1_555 1_555
C11 C12 1_555 1_555
C24 C25 1_555 1_555
C32 C33 1_555 1_555

#END
