
#######################################################################
#
#                 Cambridge Crystallographic Data Centre
#                                CCDC 
#
#######################################################################
#
# If this CIF has been generated from an entry in the Cambridge 
# Structural Database, then it will include bibliographic, chemical, 
# crystal, experimental, refinement or atomic coordinate data resulting 
# from the CCDC's data processing and validation procedures.
#
#######################################################################

data_LEJHEP01
_symmetry_cell_setting           monoclinic
_symmetry_space_group_name_H-M   'P 21/c'
_symmetry_Int_Tables_number      14
_space_group_name_Hall           '-P 2ybc'
loop_
_symmetry_equiv_pos_site_id
_symmetry_equiv_pos_as_xyz
1 x,y,z
2 -x,1/2+y,1/2-z
3 -x,-y,-z
4 x,1/2-y,1/2+z
_cell_length_a                   17.8570(5)
_cell_length_b                   15.1050(5)
_cell_length_c                   22.2140(6)
_cell_angle_alpha                90
_cell_angle_beta                 98.0770(16)
_cell_angle_gamma                90
_cell_volume                     5932.34
loop_
_atom_site_label
_atom_site_type_symbol
_atom_site_fract_x
_atom_site_fract_y
_atom_site_fract_z
Fe1 Fe 0.49919(3) 0.21830(3) 0.52641(2)
Fe2 Fe 1.02337(3) 0.21976(3) 0.99252(2)
O1 O 0.59596(13) 0.19528(16) 0.49302(11)
O2 O 0.48288(12) 0.11764(15) 0.58213(11)
O3 O 0.71736(16) 0.3453(2) 0.38124(16)
O4 O 0.34769(14) 0.09805(18) 0.71933(11)
O5 O 0.92833(12) 0.18625(15) 1.01990(10)
O6 O 1.02473(12) 0.11259(15) 0.94390(10)
O7 O 0.78907(15) 0.34532(18) 1.11261(15)
O8 O 1.14178(14) 0.08668(18) 0.79491(11)
N1 N 0.49294(15) 0.33474(19) 0.47714(12)
N2 N 0.39893(15) 0.26939(18) 0.54905(13)
N3 N 0.56740(17) 0.27812(19) 0.60858(14)
N4 N 0.43659(15) 0.14220(19) 0.44977(13)
N5 N 1.02634(15) 0.32973(18) 1.03537(12)
N6 N 1.11776(15) 0.25917(18) 0.97003(12)
N7 N 0.96464(16) 0.27280(18) 0.91818(13)
N8 N 0.07816(15) 0.15464(19) 0.06598(13)
C1 C 0.6344(2) 0.2379(2) 0.45833(16)
C2 C 0.61189(19) 0.3237(2) 0.43506(16)
C3 C 0.54413(18) 0.3656(2) 0.44600(15)
H1 H 0.5348 0.4228 0.4287
C4 C 0.42480(19) 0.3822(2) 0.47827(16)
C5 C 0.4029(2) 0.4583(2) 0.44443(18)
H2 H 0.4367 0.4837 0.4198
C6 C 0.3330(2) 0.4974(3) 0.44596(18)
H3 H 0.3200 0.5500 0.4235
C7 C 0.2825(2) 0.4601(3) 0.47996(17)
H4 H 0.2343 0.4863 0.4805
C8 C 0.30211(19) 0.3847(2) 0.51327(17)
H5 H 0.2664 0.3584 0.5358
C9 C 0.37317(19) 0.3461(2) 0.51464(16)
C10 C 0.36253(19) 0.2406(2) 0.59218(16)
H6 H 0.3198 0.2742 0.5994
C11 C 0.37923(19) 0.1650(2) 0.62949(16)
C12 C 0.43909(19) 0.1053(2) 0.62116(16)
C13 C 0.7026(2) 0.1899(3) 0.44351(18)
H7 H 0.7131 0.1392 0.4709
H8 H 0.7461 0.2301 0.4486
H9 H 0.6933 0.1691 0.4014
C14 C 0.6576(2) 0.3721(3) 0.39547(18)
C15 C 0.6291(2) 0.4608(3) 0.36816(19)
H10 H 0.6657 0.4846 0.3433
H11 H 0.6232 0.5025 0.4010
H12 H 0.5802 0.4523 0.3427
C16 C 0.4513(2) 0.0182(3) 0.6547(2)
H13 H 0.4808 -0.0215 0.6322
H14 H 0.4023 -0.0089 0.6581
H15 H 0.4789 0.0287 0.6954
C17 C 0.3301(2) 0.1481(2) 0.67555(17)
C18 C 0.2531(2) 0.1926(3) 0.67097(17)
H16 H 0.2208 0.1594 0.6952
H17 H 0.2296 0.1938 0.6284
H18 H 0.2593 0.2533 0.6864
C19 C 0.4215(2) 0.1758(2) 0.39274(16)
H19 H 0.4414 0.2324 0.3852
C20 C 0.3790(2) 0.1328(2) 0.34527(17)
H20 H 0.3708 0.1597 0.3063
C21 C 0.34834(19) 0.0506(2) 0.35372(16)
C22 C 0.36276(19) 0.0151(2) 0.41188(16)
H21 H 0.3420 -0.0406 0.4205
C23 C 0.40745(19) 0.0614(2) 0.45724(17)
H22 H 0.4182 0.0344 0.4961
C24 C 0.30162(19) -0.0003(2) 0.30314(16)
H23 H 0.2704 -0.0444 0.3213
H24 H 0.3362 -0.0331 0.2800
C25 C 0.24950(19) 0.0579(2) 0.25903(16)
H25 H 0.2238 0.1013 0.2826
H26 H 0.2804 0.0914 0.2331
C26 C 0.18980(19) 0.0041(2) 0.21836(17)
H27 H 0.2143 -0.0481 0.2025
H28 H 0.1516 -0.0177 0.2431
C27 C 0.1190(2) 0.0814(3) 0.05916(17)
H29 H 0.1233 0.0627 0.0190
C28 C 0.1548(2) 0.0320(3) 0.10643(16)
H30 H 0.1824 -0.0194 0.0984
C29 C 0.15059(19) 0.0569(2) 0.16565(16)
C30 C 0.1086(2) 0.1324(2) 0.17359(16)
H31 H 0.1032 0.1519 0.2134
C31 C 0.0749(2) 0.1789(2) 0.12399(16)
H32 H 0.0478 0.2312 0.1309
C32 C 0.88540(19) 0.2317(2) 1.04909(15)
C33 C 0.90064(18) 0.3222(2) 1.06655(15)
C34 C 0.96977(18) 0.3647(2) 1.05976(14)
H33 H 0.9760 0.4238 1.0741
C35 C 1.09557(19) 0.3750(2) 1.03704(16)
C36 C 1.11704(19) 0.4517(2) 1.07026(17)
H34 H 1.0832 0.4789 1.0941
C37 C 1.1877(2) 0.4879(2) 1.06831(17)
H35 H 1.2016 0.5409 1.0902
C38 C 1.2386(2) 0.4483(2) 1.03495(17)
H36 H 1.2871 0.4738 1.0342
C39 C 1.21871(19) 0.3716(2) 1.00278(16)
H37 H 1.2540 0.3436 0.9807
C40 C 1.14694(19) 0.3352(2) 1.00259(15)
C41 C 1.15144(19) 0.2257(2) 0.92617(15)
H38 H 1.1966 0.2539 0.9182
C42 C 1.12676(19) 0.1519(2) 0.88994(16)
C43 C 1.06569(19) 0.0956(2) 0.90308(16)
C44 C 0.8171(2) 0.1830(2) 1.06348(17)
H39 H 0.8153 0.1242 1.0446
H40 H 0.7715 0.2162 1.0476
H41 H 0.8199 0.1766 1.1076
C45 C 0.84669(19) 0.3745(2) 1.09597(17)
C46 C 0.8633(2) 0.4728(2) 1.10745(18)
H42 H 0.8190 0.5015 1.1204
H43 H 0.8747 0.5006 1.0700
H44 H 0.9067 0.4793 1.1394
C47 C 1.0492(2) 0.0075(2) 0.87236(19)
H45 H 1.0263 -0.0322 0.8995
H46 H 1.0965 -0.0186 0.8629
H47 H 1.0142 0.0159 0.8347
C48 C 1.1677(2) 0.1326(2) 0.83898(17)
C49 C 1.2469(2) 0.1715(3) 0.83873(17)
H48 H 1.2741 0.1366 0.8116
H49 H 1.2746 0.1699 0.8800
H50 H 1.2425 0.2329 0.8244
C50 C 0.9029(2) 0.2301(2) 0.89014(16)
H51 H 0.8863 0.1785 0.9089
C51 C 0.8625(2) 0.2574(2) 0.83583(16)
H52 H 0.8194 0.2250 0.8183
C52 C 0.8848(2) 0.3324(2) 0.80661(16)
C53 C 0.9478(2) 0.3769(2) 0.83580(17)
H53 H 0.9651 0.4290 0.8181
C54 C 0.9850(2) 0.3461(2) 0.89012(16)
H54 H 1.0276 0.3784 0.9090
C55 C 0.8432(2) 0.3668(3) 0.74731(17)
H55 H 0.8255 0.3160 0.7210
H56 H 0.8787 0.4016 0.7263
C56 C 0.7754(2) 0.4248(3) 0.75570(18)
H57 H 0.7607 0.4589 0.7178
H58 H 0.7915 0.4680 0.7885
C57 C 0.7055(2) 0.3760(3) 0.77112(17)
H59 H 0.7218 0.3265 0.7991
H60 H 0.6750 0.4171 0.7925
C58 C 0.5490(2) 0.3514(2) 0.63756(18)
H61 H 0.5043 0.3822 0.6215
C59 C 0.5916(2) 0.3842(3) 0.68928(17)
H62 H 0.5765 0.4372 0.7071
C60 C 0.6568(2) 0.3401(2) 0.71571(16)
C61 C 0.6749(2) 0.2634(2) 0.68652(18)
H63 H 0.7178 0.2296 0.7028
C62 C 0.6305(2) 0.2361(3) 0.63386(19)
H64 H 0.6454 0.1844 0.6143
Fe2_2 Fe 0.02337(3) 0.21976(3) -0.00748(2)
N8_2 N 1.07816(15) 0.15464(19) 1.06598(13)
O9 O 0.4692(2) 0.1438(2) 0.80520(14)
H65 H 0.4573 0.0996 0.7830
C63 C 0.5134(3) 0.2028(4) 0.7749(2)
H66 H 0.5398 0.1695 0.7465
H67 H 0.5505 0.2326 0.8049
H68 H 0.4803 0.2471 0.7526
O10 O 0.01730(19) 0.0980(3) -0.29129(16)
H69 H 0.0374 0.0644 -0.2635
C64 C -0.0221(3) 0.1660(3) -0.2660(2)
H70 H -0.0690 0.1790 -0.2931
H71 H 0.0095 0.2193 -0.2609
H72 H -0.0342 0.1471 -0.2263
loop_
_geom_bond_atom_site_label_1
_geom_bond_atom_site_label_2
_geom_bond_site_symmetry_1
_geom_bond_site_symmetry_2
Fe1 O1 1_555 1_555
Fe2 O5 1_555 1_555
O1 C1 1_555 1_555
O2 Fe1 1_555 1_555
O3 C14 1_555 1_555
O4 C17 1_555 1_555
O5 C32 1_555 1_555
O6 Fe2 1_555 1_555
O7 C45 1_555 1_555
O8 C48 1_555 1_555
N1 Fe1 1_555 1_555
N2 Fe1 1_555 1_555
N3 Fe1 1_555 1_555
N4 Fe1 1_555 1_555
N5 Fe2 1_555 1_555
N6 Fe2 1_555 1_555
N7 Fe2 1_555 1_555
N8 C27 1_555 1_555
C1 C2 1_555 1_555
C2 C3 1_555 1_555
C3 N1 1_555 1_555
H1 C3 1_555 1_555
C4 N1 1_555 1_555
C5 C4 1_555 1_555
H2 C5 1_555 1_555
C6 C5 1_555 1_555
H3 C6 1_555 1_555
C7 C6 1_555 1_555
H4 C7 1_555 1_555
C8 C7 1_555 1_555
H5 C8 1_555 1_555
C9 N2 1_555 1_555
C10 N2 1_555 1_555
H6 C10 1_555 1_555
C11 C10 1_555 1_555
C12 O2 1_555 1_555
C13 C1 1_555 1_555
H7 C13 1_555 1_555
H8 C13 1_555 1_555
H9 C13 1_555 1_555
C14 C2 1_555 1_555
C15 C14 1_555 1_555
H10 C15 1_555 1_555
H11 C15 1_555 1_555
H12 C15 1_555 1_555
C16 C12 1_555 1_555
H13 C16 1_555 1_555
H14 C16 1_555 1_555
H15 C16 1_555 1_555
C17 C11 1_555 1_555
C18 C17 1_555 1_555
H16 C18 1_555 1_555
H17 C18 1_555 1_555
H18 C18 1_555 1_555
C19 N4 1_555 1_555
H19 C19 1_555 1_555
C20 C19 1_555 1_555
H20 C20 1_555 1_555
C21 C20 1_555 1_555
C22 C21 1_555 1_555
H21 C22 1_555 1_555
C23 N4 1_555 1_555
H22 C23 1_555 1_555
C24 C21 1_555 1_555
H23 C24 1_555 1_555
H24 C24 1_555 1_555
C25 C24 1_555 1_555
H25 C25 1_555 1_555
H26 C25 1_555 1_555
C26 C25 1_555 1_555
H27 C26 1_555 1_555
H28 C26 1_555 1_555
C27 H29 1_555 1_555
C28 C27 1_555 1_555
H30 C28 1_555 1_555
C29 C26 1_555 1_555
C30 C29 1_555 1_555
H31 C30 1_555 1_555
C31 N8 1_555 1_555
H32 C31 1_555 1_555
C32 C33 1_555 1_555
C33 C34 1_555 1_555
C34 N5 1_555 1_555
H33 C34 1_555 1_555
C35 N5 1_555 1_555
C36 C35 1_555 1_555
H34 C36 1_555 1_555
C37 C36 1_555 1_555
H35 C37 1_555 1_555
C38 C37 1_555 1_555
H36 C38 1_555 1_555
C39 C38 1_555 1_555
H37 C39 1_555 1_555
C40 N6 1_555 1_555
C41 N6 1_555 1_555
H38 C41 1_555 1_555
C42 C41 1_555 1_555
C43 O6 1_555 1_555
C44 C32 1_555 1_555
H39 C44 1_555 1_555
H40 C44 1_555 1_555
H41 C44 1_555 1_555
C45 C33 1_555 1_555
C46 C45 1_555 1_555
H42 C46 1_555 1_555
H43 C46 1_555 1_555
H44 C46 1_555 1_555
C47 C43 1_555 1_555
H45 C47 1_555 1_555
H46 C47 1_555 1_555
H47 C47 1_555 1_555
C48 C42 1_555 1_555
C49 C48 1_555 1_555
H48 C49 1_555 1_555
H49 C49 1_555 1_555
H50 C49 1_555 1_555
C50 N7 1_555 1_555
H51 C50 1_555 1_555
C51 C50 1_555 1_555
H52 C51 1_555 1_555
C52 C51 1_555 1_555
C53 C52 1_555 1_555
H53 C53 1_555 1_555
C54 N7 1_555 1_555
H54 C54 1_555 1_555
C55 C52 1_555 1_555
H55 C55 1_555 1_555
H56 C55 1_555 1_555
C56 C55 1_555 1_555
H57 C56 1_555 1_555
H58 C56 1_555 1_555
C57 C56 1_555 1_555
H59 C57 1_555 1_555
H60 C57 1_555 1_555
C58 N3 1_555 1_555
H61 C58 1_555 1_555
C59 C58 1_555 1_555
H62 C59 1_555 1_555
C60 C57 1_555 1_555
C61 C60 1_555 1_555
H63 C61 1_555 1_555
C62 N3 1_555 1_555
H64 C62 1_555 1_555
O9 H65 1_555 1_555
C63 O9 1_555 1_555
H66 C63 1_555 1_555
H67 C63 1_555 1_555
H68 C63 1_555 1_555
O10 H69 1_555 1_555
C64 O10 1_555 1_555
H70 C64 1_555 1_555
H71 C64 1_555 1_555
H72 C64 1_555 1_555
Fe2_2 N8 1_555 1_555
N8_2 Fe2 1_555 1_555
C4 C9 1_555 1_555
C8 C9 1_555 1_555
C11 C12 1_555 1_555
C22 C23 1_555 1_555
C28 C29 1_555 1_555
C30 C31 1_555 1_555
C35 C40 1_555 1_555
C39 C40 1_555 1_555
C42 C43 1_555 1_555
C53 C54 1_555 1_555
C59 C60 1_555 1_555
C61 C62 1_555 1_555

#END
