
#######################################################################
#
#                 Cambridge Crystallographic Data Centre
#                                CCDC 
#
#######################################################################
#
# If this CIF has been generated from an entry in the Cambridge 
# Structural Database, then it will include bibliographic, chemical, 
# crystal, experimental, refinement or atomic coordinate data resulting 
# from the CCDC's data processing and validation procedures.
#
#######################################################################

data_LEJHEP
_symmetry_cell_setting           monoclinic
_symmetry_space_group_name_H-M   'C 2/c'
_symmetry_Int_Tables_number      15
_space_group_name_Hall           '-C 2yn'
loop_
_symmetry_equiv_pos_site_id
_symmetry_equiv_pos_as_xyz
1 x,y,z
2 -x,y,1/2-z
3 1/2+x,1/2+y,z
4 1/2-x,1/2+y,1/2-z
5 -x,-y,-z
6 x,-y,1/2+z
7 1/2-x,1/2-y,-z
8 1/2+x,1/2-y,1/2+z
_cell_length_a                   17.8610(4)
_cell_length_b                   15.1970(3)
_cell_length_c                   22.7130(5)
_cell_angle_alpha                90
_cell_angle_beta                 97.9180(12)
_cell_angle_gamma                90
_cell_volume                     6106.3
loop_
_atom_site_label
_atom_site_type_symbol
_atom_site_fract_x
_atom_site_fract_y
_atom_site_fract_z
Fe1 Fe 0.239144(16) 0.036919(19) 0.515785(13)
O1 O 0.33720(8) 0.05597(10) 0.48330(7)
O2 O 0.22061(8) 0.13769(9) 0.56933(6)
O3 O 0.46099(11) -0.10071(13) 0.38144(11)
O4 O 0.09716(10) 0.14563(13) 0.71141(7)
N1 N 0.23295(9) -0.08192(11) 0.46982(8)
N2 N 0.13789(9) -0.01460(11) 0.53829(8)
N3 N 0.30576(10) -0.02420(12) 0.59777(8)
N4 N 0.18002(10) 0.11180(12) 0.43809(8)
C1 C 0.37625(11) 0.01050(14) 0.45192(9)
C2 C 0.35529(12) -0.07636(14) 0.43275(9)
C3 C 0.28616(11) -0.11558(14) 0.44294(9)
H1 H 0.2777 -0.1732 0.4285
C4 C 0.16357(12) -0.12759(14) 0.47032(10)
C5 C 0.14225(13) -0.20271(16) 0.43737(12)
H2 H 0.1758 -0.2274 0.4135
C6 C 0.07255(14) -0.24203(16) 0.43898(12)
H3 H 0.0599 -0.2942 0.4177
C7 C 0.02183(13) -0.20421(16) 0.47196(11)
H4 H -0.0259 -0.2300 0.4725
C8 C 0.04106(12) -0.12854(15) 0.50416(10)
H5 H 0.0056 -0.1024 0.5257
C9 C 0.11205(12) -0.09047(14) 0.50516(9)
C10 C 0.10371(12) 0.01173(15) 0.58249(9)
H6 H 0.0628 -0.0228 0.5909
C11 C 0.12127(12) 0.08648(14) 0.61925(10)
C12 C 0.17765(12) 0.14880(15) 0.60870(10)
C13 C 0.44577(14) 0.05644(16) 0.43749(12)
H7 H 0.4385 0.0735 0.3959
H8 H 0.4888 0.0171 0.4451
H9 H 0.4550 0.1085 0.4621
C14 C 0.40313(13) -0.12852(16) 0.39832(11)
C15 C 0.38063(14) -0.22199(16) 0.38040(12)
H10 H 0.3346 -0.2211 0.3522
H11 H 0.3721 -0.2552 0.4153
H12 H 0.4208 -0.2495 0.3622
C16 C 0.18674(17) 0.23634(17) 0.63947(13)
H13 H 0.2224 0.2308 0.6756
H14 H 0.1382 0.2557 0.6494
H15 H 0.2055 0.2791 0.6134
C17 C 0.07607(13) 0.09997(16) 0.66769(11)
C18 C -0.00112(14) 0.05665(19) 0.66455(12)
H16 H 0.0052 -0.0050 0.6751
H17 H -0.0277 0.0617 0.6245
H18 H -0.0301 0.0857 0.6921
C19 C 0.36778(14) 0.01608(16) 0.62416(12)
H19 H 0.3846 0.0665 0.6059
C20 C 0.40848(14) -0.01189(16) 0.67655(11)
H20 H 0.4509 0.0204 0.6937
C21 C 0.38764(14) -0.08689(16) 0.70417(10)
C22 C 0.32363(15) -0.12980(16) 0.67591(11)
H21 H 0.3067 -0.1818 0.6922
C23 C 0.28537(14) -0.09636(15) 0.62437(11)
H22 H 0.2420 -0.1264 0.6067
C24 C 0.43150(18) -0.1234(2) 0.76011(12)
H23 H 0.4475 -0.0745 0.7871
H24 H 0.3980 -0.1611 0.7798
C25 C 0.0000 0.1969(2) 0.2500
H25 H -0.0284 0.1590 0.2739
C26 C 0.05525(13) 0.25296(15) 0.29124(11)
H26 H 0.0911 0.2803 0.2678
H27 H 0.0271 0.3003 0.3076
C27 C 0.14562(13) 0.18863(15) 0.44519(11)
H28 H 0.1498 0.2128 0.4836
C28 C 0.10458(13) 0.23411(16) 0.39940(11)
H29 H 0.0801 0.2867 0.4073
C29 C 0.09897(12) 0.20311(15) 0.34191(10)
C30 C 0.13578(14) 0.12429(16) 0.33411(11)
H30 H 0.1343 0.1004 0.2958
C31 C 0.17438(14) 0.08103(16) 0.38225(11)
H31 H 0.1979 0.0273 0.3757
C32 C 0.5000 -0.1756(3) 0.7500
H32 H 0.4861 -0.2138 0.7155
Fe1A Fe 0.760856(16) 0.036919(19) 0.984215(13)
Fe1A_2 Fe -0.239144(16) 0.036919(19) -0.015785(13)
O1A O 0.66280(8) 0.05597(10) 1.01670(7)
O2A O 0.77939(8) 0.13769(9) 0.93067(6)
O3A O 0.53901(11) -0.10071(13) 1.11856(11)
O4A O 0.90284(10) 0.14563(13) 0.78859(7)
N1A N 0.76705(9) -0.08192(11) 1.03018(8)
N2A N 0.86211(9) -0.01460(11) 0.96171(8)
N3A N 0.69424(10) -0.02420(12) 0.90223(8)
N4A N -0.18002(10) 0.11180(12) 0.06191(8)
N4A_2 N 0.81998(10) 0.11180(12) 1.06191(8)
C1A C 0.62375(11) 0.01050(14) 1.04808(9)
C2A C 0.64471(12) -0.07636(14) 1.06725(9)
C3A C 0.71384(11) -0.11558(14) 1.05706(9)
H1A H 0.7223 -0.1732 1.0715
C4A C 0.83643(12) -0.12759(14) 1.02968(10)
C5A C 0.85775(13) -0.20271(16) 1.06263(12)
H2A H 0.8242 -0.2274 1.0865
C6A C 0.92745(14) -0.24203(16) 1.06102(12)
H3A H 0.9401 -0.2942 1.0823
C7A C 0.97817(13) -0.20421(16) 1.02804(11)
H4A H 1.0259 -0.2300 1.0275
C8A C 0.95894(12) -0.12854(15) 0.99584(10)
H5A H 0.9944 -0.1024 0.9743
C9A C 0.88795(12) -0.09047(14) 0.99484(9)
C10A C 0.89629(12) 0.01173(15) 0.91751(9)
H6A H 0.9372 -0.0228 0.9091
C11A C 0.87873(12) 0.08648(14) 0.88075(10)
C12A C 0.82235(12) 0.14880(15) 0.89130(10)
C13A C 0.55423(14) 0.05644(16) 1.06251(12)
H7A H 0.5615 0.0735 1.1041
H8A H 0.5112 0.0171 1.0549
H9A H 0.5450 0.1085 1.0379
C14A C 0.59687(13) -0.12852(16) 1.10168(11)
C15A C 0.61937(14) -0.22199(16) 1.11960(12)
H10A H 0.6654 -0.2211 1.1478
H11A H 0.6279 -0.2552 1.0847
H12A H 0.5792 -0.2495 1.1378
C16A C 0.81326(17) 0.23634(17) 0.86053(13)
H13A H 0.7776 0.2308 0.8244
H14A H 0.8618 0.2557 0.8506
H15A H 0.7945 0.2791 0.8866
C17A C 0.92393(13) 0.09997(16) 0.83231(11)
C18A C 1.00112(14) 0.05665(19) 0.83545(12)
H16A H 0.9948 -0.0050 0.8249
H17A H 1.0277 0.0617 0.8755
H18A H 1.0301 0.0857 0.8079
C19A C 0.63222(14) 0.01608(16) 0.87584(12)
H19A H 0.6154 0.0665 0.8941
C20A C 0.59152(14) -0.01189(16) 0.82345(11)
H20A H 0.5491 0.0204 0.8063
C21A C 0.61236(14) -0.08689(16) 0.79583(10)
C22A C 0.67637(15) -0.12980(16) 0.82409(11)
H21A H 0.6933 -0.1818 0.8078
C23A C 0.71463(14) -0.09636(15) 0.87563(11)
H22A H 0.7580 -0.1264 0.8933
C24A C 0.56850(18) -0.1234(2) 0.73989(12)
H23A H 0.5525 -0.0745 0.7129
H24A H 0.6020 -0.1611 0.7202
H25A H 0.0284 0.1590 0.2261
C26A C -0.05525(13) 0.25296(15) 0.20876(11)
H26A H -0.0911 0.2803 0.2322
H27A H -0.0271 0.3003 0.1924
C27A C -0.14562(13) 0.18863(15) 0.05481(11)
H28A H -0.1498 0.2128 0.0164
C28A C -0.10458(13) 0.23411(16) 0.10060(11)
H29A H -0.0801 0.2867 0.0927
C29A C -0.09897(12) 0.20311(15) 0.15809(10)
C30A C -0.13578(14) 0.12429(16) 0.16589(11)
H30A H -0.1343 0.1004 0.2042
C31A C -0.17438(14) 0.08103(16) 0.11775(11)
H31A H -0.1979 0.0273 0.1243
H32A H 0.5139 -0.2138 0.7845
O5 O 0.22386(17) 0.1317(3) 0.79476(13)
H33 H 0.1899 0.1505 0.7692
C33 C 0.2672(2) 0.0705(3) 0.76912(16)
H34 H 0.2847 0.0961 0.7343
H35 H 0.2369 0.0188 0.7575
H36 H 0.3104 0.0538 0.7976
loop_
_geom_bond_atom_site_label_1
_geom_bond_atom_site_label_2
_geom_bond_site_symmetry_1
_geom_bond_site_symmetry_2
Fe1 O1 1_555 1_555
O1 C1 1_555 1_555
O2 Fe1 1_555 1_555
O3 C14 1_555 1_555
O4 C17 1_555 1_555
N1 Fe1 1_555 1_555
N2 Fe1 1_555 1_555
N3 Fe1 1_555 1_555
N4 Fe1 1_555 1_555
C1 C2 1_555 1_555
C2 C3 1_555 1_555
C3 N1 1_555 1_555
H1 C3 1_555 1_555
C4 N1 1_555 1_555
C5 C4 1_555 1_555
H2 C5 1_555 1_555
C6 C5 1_555 1_555
H3 C6 1_555 1_555
C7 C6 1_555 1_555
H4 C7 1_555 1_555
C8 C7 1_555 1_555
H5 C8 1_555 1_555
C9 N2 1_555 1_555
C10 N2 1_555 1_555
H6 C10 1_555 1_555
C11 C10 1_555 1_555
C12 O2 1_555 1_555
C13 C1 1_555 1_555
H7 C13 1_555 1_555
H8 C13 1_555 1_555
H9 C13 1_555 1_555
C14 C2 1_555 1_555
C15 C14 1_555 1_555
H10 C15 1_555 1_555
H11 C15 1_555 1_555
H12 C15 1_555 1_555
C16 C12 1_555 1_555
H13 C16 1_555 1_555
H14 C16 1_555 1_555
H15 C16 1_555 1_555
C17 C11 1_555 1_555
C18 C17 1_555 1_555
H16 C18 1_555 1_555
H17 C18 1_555 1_555
H18 C18 1_555 1_555
C19 N3 1_555 1_555
H19 C19 1_555 1_555
C20 C19 1_555 1_555
H20 C20 1_555 1_555
C21 C20 1_555 1_555
C22 C21 1_555 1_555
H21 C22 1_555 1_555
C23 N3 1_555 1_555
H22 C23 1_555 1_555
C24 C21 1_555 1_555
H23 C24 1_555 1_555
H24 C24 1_555 1_555
C25 H25 1_555 1_555
C26 C25 1_555 1_555
H26 C26 1_555 1_555
H27 C26 1_555 1_555
C27 N4 1_555 1_555
H28 C27 1_555 1_555
C28 C27 1_555 1_555
H29 C28 1_555 1_555
C29 C26 1_555 1_555
C30 C29 1_555 1_555
H30 C30 1_555 1_555
C31 N4 1_555 1_555
H31 C31 1_555 1_555
C32 C24 1_555 1_555
H32 C32 1_555 1_555
O5 H33 1_555 1_555
C33 O5 1_555 1_555
H34 C33 1_555 1_555
H35 C33 1_555 1_555
H36 C33 1_555 1_555
Fe1A O1A 1_555 1_555
Fe1A_2 N4A 1_555 1_555
O1A C1A 1_555 1_555
O2A Fe1A 1_555 1_555
O3A C14A 1_555 1_555
O4A C17A 1_555 1_555
N1A Fe1A 1_555 1_555
N2A Fe1A 1_555 1_555
N3A Fe1A 1_555 1_555
N4A C27A 1_555 1_555
N4A_2 Fe1A 1_555 1_555
C1A C2A 1_555 1_555
C2A C3A 1_555 1_555
C3A N1A 1_555 1_555
H1A C3A 1_555 1_555
C4A N1A 1_555 1_555
C5A C4A 1_555 1_555
H2A C5A 1_555 1_555
C6A C5A 1_555 1_555
H3A C6A 1_555 1_555
C7A C6A 1_555 1_555
H4A C7A 1_555 1_555
C8A C7A 1_555 1_555
H5A C8A 1_555 1_555
C9A N2A 1_555 1_555
C10A N2A 1_555 1_555
H6A C10A 1_555 1_555
C11A C10A 1_555 1_555
C12A O2A 1_555 1_555
C13A C1A 1_555 1_555
H7A C13A 1_555 1_555
H8A C13A 1_555 1_555
H9A C13A 1_555 1_555
C14A C2A 1_555 1_555
C15A C14A 1_555 1_555
H10A C15A 1_555 1_555
H11A C15A 1_555 1_555
H12A C15A 1_555 1_555
C16A C12A 1_555 1_555
H13A C16A 1_555 1_555
H14A C16A 1_555 1_555
H15A C16A 1_555 1_555
C17A C11A 1_555 1_555
C18A C17A 1_555 1_555
H16A C18A 1_555 1_555
H17A C18A 1_555 1_555
H18A C18A 1_555 1_555
C19A N3A 1_555 1_555
H19A C19A 1_555 1_555
C20A C19A 1_555 1_555
H20A C20A 1_555 1_555
C21A C20A 1_555 1_555
C22A C21A 1_555 1_555
H21A C22A 1_555 1_555
C23A N3A 1_555 1_555
H22A C23A 1_555 1_555
C24A C32 1_555 1_555
H23A C24A 1_555 1_555
H24A C24A 1_555 1_555
H25A C25 1_555 1_555
C26A C25 1_555 1_555
H26A C26A 1_555 1_555
H27A C26A 1_555 1_555
C27A H28A 1_555 1_555
C28A C27A 1_555 1_555
H29A C28A 1_555 1_555
C29A C26A 1_555 1_555
C30A C29A 1_555 1_555
H30A C30A 1_555 1_555
C31A N4A 1_555 1_555
H31A C31A 1_555 1_555
H32A C32 1_555 1_555
C4 C9 1_555 1_555
C8 C9 1_555 1_555
C11 C12 1_555 1_555
C22 C23 1_555 1_555
C28 C29 1_555 1_555
C30 C31 1_555 1_555
C4A C9A 1_555 1_555
C8A C9A 1_555 1_555
C11A C12A 1_555 1_555
C21A C24A 1_555 1_555
C22A C23A 1_555 1_555
C28A C29A 1_555 1_555
C30A C31A 1_555 1_555

#END
