
#######################################################################
#
#                 Cambridge Crystallographic Data Centre
#                                CCDC 
#
#######################################################################
#
# If this CIF has been generated from an entry in the Cambridge 
# Structural Database, then it will include bibliographic, chemical, 
# crystal, experimental, refinement or atomic coordinate data resulting 
# from the CCDC's data processing and validation procedures.
#
#######################################################################

data_LEJJUH
_symmetry_cell_setting           triclinic
_symmetry_space_group_name_H-M   'P -1'
_symmetry_Int_Tables_number      2
_space_group_name_Hall           '-P 1'
loop_
_symmetry_equiv_pos_site_id
_symmetry_equiv_pos_as_xyz
1 x,y,z
2 -x,-y,-z
_cell_length_a                   11.0987(15)
_cell_length_b                   14.6555(13)
_cell_length_c                   19.575(4)
_cell_angle_alpha                75.432(11)
_cell_angle_beta                 75.985(14)
_cell_angle_gamma                74.820(10)
_cell_volume                     2920.66
loop_
_atom_site_label
_atom_site_type_symbol
_atom_site_fract_x
_atom_site_fract_y
_atom_site_fract_z
Fe1 Fe 0.53458(4) 0.05884(4) 0.68857(3)
O1 O 0.5047(2) 0.19423(18) 0.64534(13)
O2 O 0.4788(2) 0.09549(17) 0.78158(13)
O3 O 0.3957(4) -0.0882(2) 0.97973(17)
O4 O 0.4492(3) -0.21219(19) 0.92457(15)
O5 O 0.6708(3) 0.1776(2) 0.40026(17)
O6 O 0.6080(5) 0.3162(3) 0.43469(18)
N1 N 0.5945(3) 0.0184(2) 0.59896(16)
N2 N 0.5574(3) -0.0762(2) 0.72836(16)
N3 N 0.3545(3) 0.0636(2) 0.68638(17)
N4 N -0.2885(3) 0.0621(2) 0.69222(16)
C1 C 0.5261(3) 0.2329(3) 0.5792(2)
C2 C 0.5860(4) 0.1782(3) 0.5241(2)
C3 C 0.6135(3) 0.0768(3) 0.5365(2)
H1 H 0.6491 0.0479 0.4957
C4 C 0.6261(3) -0.0838(3) 0.6050(2)
C5 C 0.6704(3) -0.1341(3) 0.5491(2)
H2 H 0.6837 -0.0998 0.5008
C6 C 0.6951(4) -0.2335(3) 0.5639(3)
H3 H 0.7249 -0.2676 0.5256
C7 C 0.6765(4) -0.2844(3) 0.6347(3)
H4 H 0.6948 -0.3529 0.6445
C8 C 0.6318(4) -0.2358(3) 0.6900(2)
H5 H 0.6189 -0.2709 0.7382
C9 C 0.6050(3) -0.1351(3) 0.6763(2)
C10 C 0.5234(3) -0.1125(3) 0.7958(2)
H6 H 0.5340 -0.1807 0.8086
C11 C 0.4722(3) -0.0613(3) 0.8527(2)
C12 C 0.4554(3) 0.0415(3) 0.8430(2)
C13 C 0.4826(4) 0.3407(3) 0.5649(2)
H7 H 0.4284 0.3607 0.6085
H8 H 0.4342 0.3613 0.5259
H9 H 0.5567 0.3704 0.5511
C14 C 0.4063(4) 0.0939(3) 0.9045(2)
H10 H 0.4090 0.1622 0.8868
H11 H 0.4595 0.0657 0.9411
H12 H 0.3185 0.0878 0.9256
C15 C 0.6236(5) 0.2220(4) 0.4476(3)
C16 C 0.6570(10) 0.3594(5) 0.3609(3)
H13 H 0.7427 0.3219 0.3441
H14 H 0.6003 0.3594 0.3289
C17 C 0.6628(7) 0.4505(5) 0.3594(3)
H15 H 0.5765 0.4897 0.3684
H16 H 0.7081 0.4775 0.3122
H17 H 0.7081 0.4505 0.3967
C18 C 0.4355(4) -0.1185(3) 0.9250(2)
C19 C 0.4150(4) -0.2727(3) 0.9940(2)
H18 H 0.3242 -0.2507 1.0146
H19 H 0.4671 -0.2701 1.0277
C20 C 0.4394(5) -0.3733(3) 0.9816(3)
H20 H 0.3907 -0.3741 0.9462
H21 H 0.4133 -0.4165 1.0269
H22 H 0.5303 -0.3953 0.9635
C21 C 0.3196(3) 0.0043(3) 0.6578(2)
H23 H 0.3843 -0.0426 0.6365
C22 C 0.1960(3) 0.0061(3) 0.6569(2)
H24 H 0.1775 -0.0379 0.6347
C23 C 0.0975(3) 0.0722(3) 0.6885(2)
C24 C 0.1328(3) 0.1356(3) 0.7176(2)
H25 H 0.0697 0.1831 0.7392
C25 C 0.2593(3) 0.1299(3) 0.7154(2)
H26 H 0.2811 0.1750 0.7352
C26 C -0.0365(3) 0.0702(3) 0.6913(2)
C27 C -0.0683(3) -0.0141(3) 0.6878(2)
H27 H -0.0042 -0.0712 0.6853
C28 C -0.1916(3) -0.0151(3) 0.6879(2)
H28 H -0.2096 -0.0737 0.6848
C29 C -0.2575(3) 0.1425(3) 0.6963(2)
H29 H -0.3236 0.1984 0.6997
C30 C -0.1359(3) 0.1497(3) 0.6959(2)
H30 H -0.1204 0.2092 0.6988
Fe1_2 Fe -0.46542(4) 0.05884(4) 0.68857(3)
N4_2 N 0.7115(3) 0.0621(2) 0.69222(16)
Fe2 Fe 1.04260(4) 0.57524(4) 0.18176(3)
O7 O 1.0119(2) 0.71171(17) 0.13982(13)
O8 O 0.9860(2) 0.60935(17) 0.27564(13)
O9 O 0.9128(3) 0.4218(2) 0.47331(16)
O10 O 0.9750(3) 0.2976(2) 0.41775(15)
O11 O 1.0514(3) 0.8404(2) -0.07796(17)
O12 O 1.1335(3) 0.6958(2) -0.10669(15)
N5 N 1.0996(2) 0.5388(2) 0.09079(16)
N6 N 1.0687(2) 0.4407(2) 0.22046(16)
N7 N 0.8637(3) 0.5792(2) 0.17968(16)
N8 N 0.2207(3) 0.5785(2) 0.18546(16)
C31 C 0.9641(3) 0.5539(3) 0.3361(2)
C32 C 0.9868(3) 0.4512(3) 0.3456(2)
C33 C 1.0390(3) 0.4017(3) 0.2883(2)
H31 H 1.0540 0.3333 0.3003
C34 C 1.1212(3) 0.3827(3) 0.1669(2)
C35 C 1.1571(3) 0.2832(3) 0.1789(2)
H32 H 1.1475 0.2467 0.2267
C36 C 1.2068(4) 0.2365(3) 0.1221(2)
H33 H 1.2314 0.1681 0.1308
C37 C 1.2209(4) 0.2893(3) 0.0523(2)
H34 H 1.2539 0.2568 0.0132
C38 C 1.1874(4) 0.3887(3) 0.0391(2)
H35 H 1.1984 0.4242 -0.0090
C39 C 1.1377(3) 0.4371(3) 0.0958(2)
C40 C 1.1041(3) 0.5984(3) 0.0287(2)
H36 H 1.1337 0.5706 -0.0128
C41 C 1.0693(3) 0.7004(3) 0.0171(2)
C42 C 1.0240(3) 0.7527(3) 0.0738(2)
C43 C 0.9093(4) 0.6063(3) 0.3980(2)
H37 H 0.9081 0.6753 0.3805
H38 H 0.9618 0.5802 0.4350
H39 H 0.8223 0.5975 0.4185
C44 C 0.9871(4) 0.8607(3) 0.0613(2)
H40 H 0.9620 0.8812 0.1076
H41 H 0.9157 0.8836 0.0357
H42 H 1.0596 0.8879 0.0324
C45 C 0.9552(4) 0.3927(3) 0.4174(2)
C46 C 0.9447(5) 0.2356(3) 0.4868(2)
H43 H 0.8540 0.2559 0.5083
H44 H 0.9972 0.2395 0.5199
C47 C 0.9711(5) 0.1352(3) 0.4754(3)
H45 H 1.0608 0.1160 0.4537
H46 H 0.9175 0.1318 0.4434
H47 H 0.9524 0.0915 0.5217
C48 C 1.0829(4) 0.7538(3) -0.0582(2)
C49 C 1.1500(4) 0.7453(4) -0.1819(2)
H48 H 1.0791 0.8019 -0.1886
H49 H 1.1487 0.7012 -0.2125
C50 C 1.2746(4) 0.7778(4) -0.2043(3)
H50 H 1.3431 0.7236 -0.1901
H51 H 1.2695 0.8306 -0.1807
H52 H 1.2920 0.8001 -0.2565
C51 C 0.7695(3) 0.6490(3) 0.2046(2)
H53 H 0.7917 0.6966 0.2215
C52 C 0.6422(3) 0.6550(2) 0.2067(2)
H54 H 0.5794 0.7057 0.2245
C53 C 0.6068(3) 0.5856(3) 0.18245(19)
C54 C 0.7044(3) 0.5151(3) 0.1559(2)
H55 H 0.6851 0.4673 0.1378
C55 C 0.8287(3) 0.5138(3) 0.1556(2)
H56 H 0.8932 0.4641 0.1374
C56 C 0.4729(3) 0.5845(3) 0.18487(18)
C57 C 0.3762(3) 0.6672(3) 0.1837(2)
H57 H 0.3942 0.7274 0.1827
C58 C 0.2536(3) 0.6612(3) 0.1839(2)
H58 H 0.1892 0.7186 0.1829
C59 C 0.3145(3) 0.4988(3) 0.1884(2)
H59 H 0.2942 0.4390 0.1905
C60 C 0.4387(3) 0.4992(3) 0.1887(2)
H60 H 0.5007 0.4404 0.1915
Fe2_2 Fe 0.04260(4) 0.57524(4) 0.18176(3)
N8_2 N 1.2207(3) 0.5785(2) 0.18546(16)
O13 O 0.7086(7) 0.4994(5) 0.5707(4)
H61 H 0.7793 0.5115 0.5484
C61 C 0.7256(11) 0.4280(10) 0.6308(6)
H62 H 0.8148 0.4127 0.6359
H63 H 0.7027 0.3701 0.6258
H64 H 0.6713 0.4505 0.6735
O14 O 0.2592(3) -0.1160(2) 1.11851(18)
H65 H 0.3006 -0.1218 1.0773
C62 C 0.2145(5) -0.0189(3) 1.1205(3)
H66 H 0.2608 -0.0005 1.1499
H67 H 0.1236 -0.0071 1.1415
H68 H 0.2277 0.0196 1.0716
C63? C 0.7316(12) 0.4696(10) 0.6208(9)
H69? H 0.6387 0.4882 0.6329
H70? H 0.7626 0.5116 0.5760
H71? H 0.7684 0.4761 0.6596
H72? H 0.7520 0.3708 0.5730
O15? O 0.7674(8) 0.3740(7) 0.6122(5)
loop_
_geom_bond_atom_site_label_1
_geom_bond_atom_site_label_2
_geom_bond_site_symmetry_1
_geom_bond_site_symmetry_2
Fe1 O1 1_555 1_555
O1 C1 1_555 1_555
O2 Fe1 1_555 1_555
O3 C18 1_555 1_555
O4 C18 1_555 1_555
O5 C15 1_555 1_555
O6 C15 1_555 1_555
N1 Fe1 1_555 1_555
N2 Fe1 1_555 1_555
N3 Fe1 1_555 1_555
N4 C28 1_555 1_555
C1 C2 1_555 1_555
C2 C3 1_555 1_555
C3 N1 1_555 1_555
H1 C3 1_555 1_555
C4 N1 1_555 1_555
C5 C4 1_555 1_555
H2 C5 1_555 1_555
C6 C5 1_555 1_555
H3 C6 1_555 1_555
C7 C6 1_555 1_555
H4 C7 1_555 1_555
C8 C7 1_555 1_555
H5 C8 1_555 1_555
C9 N2 1_555 1_555
C10 N2 1_555 1_555
H6 C10 1_555 1_555
C11 C10 1_555 1_555
C12 O2 1_555 1_555
C13 C1 1_555 1_555
H7 C13 1_555 1_555
H8 C13 1_555 1_555
H9 C13 1_555 1_555
C14 C12 1_555 1_555
H10 C14 1_555 1_555
H11 C14 1_555 1_555
H12 C14 1_555 1_555
C15 C2 1_555 1_555
C16 O6 1_555 1_555
H13 C16 1_555 1_555
H14 C16 1_555 1_555
C17 C16 1_555 1_555
H15 C17 1_555 1_555
H16 C17 1_555 1_555
H17 C17 1_555 1_555
C18 C11 1_555 1_555
C19 O4 1_555 1_555
H18 C19 1_555 1_555
H19 C19 1_555 1_555
C20 C19 1_555 1_555
H20 C20 1_555 1_555
H21 C20 1_555 1_555
H22 C20 1_555 1_555
C21 N3 1_555 1_555
H23 C21 1_555 1_555
C22 C21 1_555 1_555
H24 C22 1_555 1_555
C23 C22 1_555 1_555
C24 C23 1_555 1_555
H25 C24 1_555 1_555
C25 N3 1_555 1_555
H26 C25 1_555 1_555
C26 C23 1_555 1_555
C27 C26 1_555 1_555
H27 C27 1_555 1_555
C28 C27 1_555 1_555
H28 C28 1_555 1_555
C29 N4 1_555 1_555
H29 C29 1_555 1_555
C30 C26 1_555 1_555
H30 C30 1_555 1_555
Fe2 O7 1_555 1_555
O7 C42 1_555 1_555
O8 Fe2 1_555 1_555
O9 C45 1_555 1_555
O10 C45 1_555 1_555
O11 C48 1_555 1_555
O12 C48 1_555 1_555
N5 Fe2 1_555 1_555
N6 Fe2 1_555 1_555
N7 Fe2 1_555 1_555
N8 C58 1_555 1_555
C31 O8 1_555 1_555
C32 C31 1_555 1_555
C33 N6 1_555 1_555
H31 C33 1_555 1_555
C34 N6 1_555 1_555
C35 C34 1_555 1_555
H32 C35 1_555 1_555
C36 C35 1_555 1_555
H33 C36 1_555 1_555
C37 C36 1_555 1_555
H34 C37 1_555 1_555
C38 C37 1_555 1_555
H35 C38 1_555 1_555
C39 N5 1_555 1_555
C40 N5 1_555 1_555
H36 C40 1_555 1_555
C41 C40 1_555 1_555
C42 C41 1_555 1_555
C43 C31 1_555 1_555
H37 C43 1_555 1_555
H38 C43 1_555 1_555
H39 C43 1_555 1_555
C44 C42 1_555 1_555
H40 C44 1_555 1_555
H41 C44 1_555 1_555
H42 C44 1_555 1_555
C45 C32 1_555 1_555
C46 O10 1_555 1_555
H43 C46 1_555 1_555
H44 C46 1_555 1_555
C47 C46 1_555 1_555
H45 C47 1_555 1_555
H46 C47 1_555 1_555
H47 C47 1_555 1_555
C48 C41 1_555 1_555
C49 O12 1_555 1_555
H48 C49 1_555 1_555
H49 C49 1_555 1_555
C50 C49 1_555 1_555
H50 C50 1_555 1_555
H51 C50 1_555 1_555
H52 C50 1_555 1_555
C51 N7 1_555 1_555
H53 C51 1_555 1_555
C52 C51 1_555 1_555
H54 C52 1_555 1_555
C53 C52 1_555 1_555
C54 C53 1_555 1_555
H55 C54 1_555 1_555
C55 N7 1_555 1_555
H56 C55 1_555 1_555
C56 C53 1_555 1_555
C57 C56 1_555 1_555
H57 C57 1_555 1_555
C58 C57 1_555 1_555
H58 C58 1_555 1_555
C59 N8 1_555 1_555
H59 C59 1_555 1_555
C60 C56 1_555 1_555
H60 C60 1_555 1_555
O13 H61 1_555 1_555
C61 O13 1_555 1_555
H62 C61 1_555 1_555
H63 C61 1_555 1_555
H64 C61 1_555 1_555
O14 H65 1_555 1_555
C62 O14 1_555 1_555
H66 C62 1_555 1_555
H67 C62 1_555 1_555
H68 C62 1_555 1_555
Fe1_2 N4 1_555 1_555
N4_2 Fe1 1_555 1_555
Fe2_2 N8 1_555 1_555
N8_2 Fe2 1_555 1_555
C4 C9 1_555 1_555
C8 C9 1_555 1_555
C11 C12 1_555 1_555
C24 C25 1_555 1_555
C29 C30 1_555 1_555
C32 C33 1_555 1_555
C34 C39 1_555 1_555
C38 C39 1_555 1_555
C54 C55 1_555 1_555
C59 C60 1_555 1_555

#END
