
#######################################################################
#
#                 Cambridge Crystallographic Data Centre
#                                CCDC 
#
#######################################################################
#
# If this CIF has been generated from an entry in the Cambridge 
# Structural Database, then it will include bibliographic, chemical, 
# crystal, experimental, refinement or atomic coordinate data resulting 
# from the CCDC's data processing and validation procedures.
#
#######################################################################

data_LEJJIV
_symmetry_cell_setting           triclinic
_symmetry_space_group_name_H-M   'P -1'
_symmetry_Int_Tables_number      2
_space_group_name_Hall           '-P 1'
loop_
_symmetry_equiv_pos_site_id
_symmetry_equiv_pos_as_xyz
1 x,y,z
2 -x,-y,-z
_cell_length_a                   11.559(2)
_cell_length_b                   11.818(3)
_cell_length_c                   11.951(2)
_cell_angle_alpha                76.208(19)
_cell_angle_beta                 67.861(16)
_cell_angle_gamma                72.519(17)
_cell_volume                     1427.8
loop_
_atom_site_label
_atom_site_type_symbol
_atom_site_fract_x
_atom_site_fract_y
_atom_site_fract_z
Fe1 Fe 0.56162(3) 0.30849(3) 0.20694(3)
O1 O 0.48366(16) 0.24010(15) 0.12076(15)
O2 O 0.67891(15) 0.40796(14) 0.08548(14)
O3 O 0.2191(3) 0.0303(3) 0.2423(3)
O4 O 0.8436(2) 0.65908(19) 0.1195(2)
N1 N 0.46077(17) 0.21226(16) 0.36514(17)
N2 N 0.60903(17) 0.35872(16) 0.33713(16)
N3 N 0.73253(18) 0.14995(17) 0.17917(17)
N4 N 1.39379(18) -0.52551(17) 0.22300(17)
C1 C 0.4025(2) 0.1765(2) 0.1546(2)
C2 C 0.3471(2) 0.1310(2) 0.2783(2)
C3 C 0.3811(2) 0.1503(2) 0.3736(2)
C4 C 0.4834(2) 0.2205(2) 0.4711(2)
C5 C 0.4385(3) 0.1558(3) 0.5853(2)
C6 C 0.4618(3) 0.1718(3) 0.6842(3)
C7 C 0.5308(3) 0.2529(3) 0.6711(3)
C8 C 0.5799(3) 0.3153(3) 0.5589(3)
C9 C 0.5584(2) 0.3014(2) 0.4567(2)
C10 C 0.6751(2) 0.4382(2) 0.3164(2)
C11 C 0.7402(2) 0.4977(2) 0.2028(2)
C12 C 0.7432(2) 0.47518(19) 0.0902(2)
C13 C 0.3733(4) 0.1519(4) 0.0513(4)
C14 C 0.2537(3) 0.0564(3) 0.3147(3)
C15 C 0.1997(5) 0.0043(5) 0.4477(4)
C16 C 0.8249(4) 0.5241(3) -0.0319(3)
C17 C 0.8068(3) 0.5847(2) 0.2055(3)
C18 C 0.8295(6) 0.5861(5) 0.3210(4)
C19 C 0.7292(2) 0.0460(2) 0.1565(3)
C20 C 0.8279(3) -0.0539(2) 0.1460(3)
C21 C 0.9400(2) -0.0515(2) 0.1596(2)
C22 C 0.9450(3) 0.0560(3) 0.1822(3)
C23 C 0.8421(3) 0.1523(2) 0.1907(3)
C24 C 1.0495(3) -0.1594(3) 0.1480(3)
C25 C 1.0855(3) -0.2077(2) 0.2627(2)
C26 C 1.2826(3) -0.5219(2) 0.3145(2)
C27 C 1.1827(3) -0.4229(2) 0.3305(2)
C28 C 1.1931(2) -0.3184(2) 0.2494(2)
C29 C 1.3081(2) -0.3218(2) 0.1548(2)
C30 C 1.4036(2) -0.4251(2) 0.1450(2)
H1 H 0.341(3) 0.112(2) 0.451(2)
H2 H 0.392(3) 0.103(3) 0.596(3)
H3 H 0.426(3) 0.136(3) 0.758(3)
H4 H 0.546(3) 0.264(3) 0.739(3)
H5 H 0.627(3) 0.361(3) 0.553(3)
H6 H 0.684(2) 0.456(2) 0.385(2)
H7 H 0.421(5) 0.185(4) -0.025(4)
H8 H 0.289(4) 0.182(4) 0.062(3)
H9 H 0.394(5) 0.068(4) 0.053(4)
H10 H 0.136(5) 0.094(5) 0.465(5)
H11 H 0.253(6) -0.043(6) 0.490(6)
H12 H 0.144(5) -0.037(4) 0.454(4)
H13 H 0.843(4) 0.480(4) -0.087(4)
H14 H 0.779(6) 0.594(5) -0.066(5)
H15 H 0.901(4) 0.530(4) -0.035(4)
H16 H 0.876(5) 0.637(5) 0.307(4)
H17 H 0.761(5) 0.602(4) 0.390(4)
H18 H 0.880(4) 0.508(4) 0.348(4)
H19 H 0.648(3) 0.048(3) 0.148(3)
H20 H 0.821(3) -0.123(3) 0.131(3)
H21 H 1.017(3) 0.065(3) 0.186(3)
H22 H 0.844(3) 0.226(3) 0.199(2)
H23 H 1.040(4) -0.218(4) 0.115(4)
H24 H 1.120(3) -0.132(3) 0.093(3)
H25 H 1.009(3) -0.221(3) 0.329(3)
H26 H 1.112(3) -0.153(3) 0.280(3)
H27 H 1.273(3) -0.590(3) 0.371(2)
H28 H 1.110(3) -0.425(3) 0.394(3)
H29 H 1.322(3) -0.255(3) 0.095(2)
H30 H 1.477(3) -0.427(2) 0.084(2)
Fe1_2 Fe 1.56162(3) -0.69151(3) 0.20694(3)
N4_2 N 0.39379(18) 0.47449(17) 0.22300(17)
O5 O 0.052(2) 0.3124(19) 0.3971(19)
C31 C -0.026(2) 0.273(2) 0.362(2)
H31 H 0.07090 0.37200 0.35020
H32 H -0.01230 0.29980 0.27680
H33 H -0.11370 0.30350 0.40820
H34 H -0.00610 0.18680 0.37650
loop_
_geom_bond_atom_site_label_1
_geom_bond_atom_site_label_2
_geom_bond_site_symmetry_1
_geom_bond_site_symmetry_2
Fe1 O1 1_555 1_555
O1 C1 1_555 1_555
O2 Fe1 1_555 1_555
O3 C14 1_555 1_555
O4 C17 1_555 1_555
N1 Fe1 1_555 1_555
N2 Fe1 1_555 1_555
N3 Fe1 1_555 1_555
N4 C26 1_555 1_555
C1 C2 1_555 1_555
C2 C3 1_555 1_555
C3 N1 1_555 1_555
C4 N1 1_555 1_555
C5 C4 1_555 1_555
C6 C5 1_555 1_555
C7 C6 1_555 1_555
C8 C7 1_555 1_555
C9 N2 1_555 1_555
C10 N2 1_555 1_555
C11 C10 1_555 1_555
C12 O2 1_555 1_555
C13 C1 1_555 1_555
C14 C2 1_555 1_555
C15 C14 1_555 1_555
C16 C12 1_555 1_555
C17 C11 1_555 1_555
C18 C17 1_555 1_555
C19 N3 1_555 1_555
C20 C19 1_555 1_555
C21 C20 1_555 1_555
C22 C21 1_555 1_555
C23 N3 1_555 1_555
C24 C21 1_555 1_555
C25 C24 1_555 1_555
C26 C27 1_555 1_555
C27 C28 1_555 1_555
C28 C25 1_555 1_555
C29 C28 1_555 1_555
C30 N4 1_555 1_555
H1 C3 1_555 1_555
H2 C5 1_555 1_555
H3 C6 1_555 1_555
H4 C7 1_555 1_555
H5 C8 1_555 1_555
H6 C10 1_555 1_555
H7 C13 1_555 1_555
H8 C13 1_555 1_555
H9 C13 1_555 1_555
H10 C15 1_555 1_555
H11 C15 1_555 1_555
H12 C15 1_555 1_555
H13 C16 1_555 1_555
H14 C16 1_555 1_555
H15 C16 1_555 1_555
H16 C18 1_555 1_555
H17 C18 1_555 1_555
H18 C18 1_555 1_555
H19 C19 1_555 1_555
H20 C20 1_555 1_555
H21 C22 1_555 1_555
H22 C23 1_555 1_555
H23 C24 1_555 1_555
H24 C24 1_555 1_555
H25 C25 1_555 1_555
H26 C25 1_555 1_555
H27 C26 1_555 1_555
H28 C27 1_555 1_555
H29 C29 1_555 1_555
H30 C30 1_555 1_555
O5 C31 1_555 1_555
C31 H32 1_555 1_555
H31 O5 1_555 1_555
H33 C31 1_555 1_555
H34 C31 1_555 1_555
Fe1_2 N4 1_555 1_555
N4_2 Fe1 1_555 1_555
C4 C9 1_555 1_555
C8 C9 1_555 1_555
C11 C12 1_555 1_555
C22 C23 1_555 1_555
C29 C30 1_555 1_555

#END
