
#######################################################################
#
#                 Cambridge Crystallographic Data Centre
#                                CCDC 
#
#######################################################################
#
# If this CIF has been generated from an entry in the Cambridge 
# Structural Database, then it will include bibliographic, chemical, 
# crystal, experimental, refinement or atomic coordinate data resulting 
# from the CCDC's data processing and validation procedures.
#
#######################################################################

data_LEJJER
_symmetry_cell_setting           triclinic
_symmetry_space_group_name_H-M   'P -1'
_symmetry_Int_Tables_number      2
_space_group_name_Hall           '-P 1'
loop_
_symmetry_equiv_pos_site_id
_symmetry_equiv_pos_as_xyz
1 x,y,z
2 -x,-y,-z
_cell_length_a                   11.7025(3)
_cell_length_b                   12.2137(4)
_cell_length_c                   12.4828(2)
_cell_angle_alpha                72.9593(15)
_cell_angle_beta                 80.6512(16)
_cell_angle_gamma                70.5753(11)
_cell_volume                     1604.56
loop_
_atom_site_label
_atom_site_type_symbol
_atom_site_fract_x
_atom_site_fract_y
_atom_site_fract_z
Fe1 Fe 0.81221(3) 0.57329(3) 0.69142(3)
O1 O 0.90416(13) 0.68045(13) 0.58692(12)
O2 O 0.74169(13) 0.50025(13) 0.60167(12)
O3 O 1.15086(19) 0.8368(2) 0.64127(16)
O4 O 1.08168(15) 0.80704(15) 0.82160(14)
O5 O 0.51830(19) 0.27283(19) 0.69793(15)
O6 O 0.54160(16) 0.25878(15) 0.87560(14)
N1 N 0.86881(15) 0.61653(15) 0.82109(15)
N2 N 0.72277(15) 0.48499(15) 0.83170(14)
C1 C 0.97016(19) 0.73855(19) 0.59937(19)
C2 C 0.99897(19) 0.7345(2) 0.70663(19)
C3 C 0.94832(19) 0.67403(19) 0.80969(19)
H1 H 0.9751 0.6757 0.8769
C4 C 0.81923(19) 0.56875(19) 0.93041(18)
C5 C 0.8417(2) 0.5856(2) 1.02993(19)
H2 H 0.8971 0.6282 1.0274
C6 C 0.7855(2) 0.5420(2) 1.1316(2)
H3 H 0.8029 0.5537 1.1985
C7 C 0.7033(2) 0.4808(2) 1.1361(2)
H4 H 0.6634 0.4514 1.2059
C8 C 0.6793(2) 0.4626(2) 1.03874(19)
H5 H 0.6220 0.4216 1.0423
C9 C 0.73811(18) 0.50372(18) 0.93527(17)
C10 C 0.65544(19) 0.41823(19) 0.83147(19)
H6 H 0.6169 0.3880 0.9018
C11 C 0.6332(2) 0.3857(2) 0.73777(19)
C12 C 0.67950(19) 0.42698(19) 0.62630(19)
C13 C 1.0109(2) 0.8150(2) 0.4907(2)
H7 H 0.9787 0.8052 0.4276
H8 H 1.0999 0.7900 0.4814
H9 H 0.9807 0.8996 0.4925
C14 C 1.0840(2) 0.7966(2) 0.7153(2)
C15 C 1.1681(3) 0.8611(3) 0.8380(2)
H10 H 1.1507 0.9448 0.7911
H11 H 1.2516 0.8153 0.8164
C16 C 1.1567(3) 0.8590(3) 0.9595(2)
H12 H 1.0736 0.9043 0.9801
H13 H 1.2140 0.8957 0.9730
H14 H 1.1749 0.7757 1.0051
C17 C 0.6602(2) 0.3876(2) 0.5281(2)
H15 H 0.7033 0.4238 0.4600
H16 H 0.5732 0.4138 0.5172
H17 H 0.6916 0.2999 0.5436
C18 C 0.5598(2) 0.3029(2) 0.7637(2)
C19 C 0.4618(2) 0.1848(2) 0.9133(2)
H18 H 0.4985 0.1081 0.8915
H19 H 0.3828 0.2267 0.8795
C20 C 0.4446(3) 0.1620(2) 1.0390(2)
H20 H 0.5224 0.1148 1.0716
H21 H 0.3854 0.1175 1.0679
H22 H 0.4149 0.2388 1.0594
N3 N 0.98585(16) 0.41587(16) 0.69835(15)
N4 N 1.64824(16) -0.26186(16) 0.66803(15)
C21 C 1.08517(19) 0.41909(19) 0.62796(18)
H23 H 1.0822 0.4903 0.5698
C22 C 1.19138(19) 0.32471(19) 0.63532(18)
H24 H 1.2591 0.3323 0.5835
C23 C 1.19923(19) 0.21879(19) 0.71826(17)
C24 C 1.0979(2) 0.2151(2) 0.7922(2)
H25 H 1.0992 0.1452 0.8515
C25 C 0.9944(2) 0.3138(2) 0.7793(2)
H26 H 0.9258 0.3088 0.8307
C26 C 1.31264(19) 0.11305(19) 0.72629(18)
H27 H 1.3052 0.0513 0.7968
H28 H 1.3829 0.1394 0.7301
C27 C 1.3370(2) 0.0569(2) 0.62745(19)
H29 H 1.2647 0.0351 0.6206
H30 H 1.3499 0.1170 0.5574
C28 C 1.65508(19) -0.1572(2) 0.67687(18)
H31 H 1.7305 -0.1547 0.6933
C29 C 1.5586(2) -0.0533(2) 0.66338(18)
H32 H 1.5686 0.0184 0.6700
C30 C 1.44622(19) -0.05347(19) 0.64000(17)
C31 C 1.4393(2) -0.1611(2) 0.6297(2)
H33 H 1.3652 -0.1659 0.6127
C32 C 1.5404(2) -0.2610(2) 0.6444(2)
H34 H 1.5330 -0.3337 0.6374
Fe1_2 Fe 1.81221(3) -0.42671(3) 0.69142(3)
N4_2 N 0.64824(16) 0.73814(16) 0.66803(15)
O7 O 0.8253(3) 0.9497(3) 0.8794(4)
H35 H 0.8853 0.8897 0.8743
C33 C 0.8225(4) 1.0427(4) 0.7792(5)
H36 H 0.7484 1.1098 0.7822
H37 H 0.8236 1.0121 0.7146
H38 H 0.8937 1.0705 0.7716
loop_
_geom_bond_atom_site_label_1
_geom_bond_atom_site_label_2
_geom_bond_site_symmetry_1
_geom_bond_site_symmetry_2
Fe1 O1 1_555 1_555
O1 C1 1_555 1_555
O2 Fe1 1_555 1_555
O3 C14 1_555 1_555
O4 C14 1_555 1_555
O5 C18 1_555 1_555
O6 C18 1_555 1_555
N1 Fe1 1_555 1_555
N2 Fe1 1_555 1_555
C1 C2 1_555 1_555
C2 C3 1_555 1_555
C3 N1 1_555 1_555
H1 C3 1_555 1_555
C4 N1 1_555 1_555
C5 C4 1_555 1_555
H2 C5 1_555 1_555
C6 C5 1_555 1_555
H3 C6 1_555 1_555
C7 C6 1_555 1_555
H4 C7 1_555 1_555
C8 C7 1_555 1_555
H5 C8 1_555 1_555
C9 N2 1_555 1_555
C10 N2 1_555 1_555
H6 C10 1_555 1_555
C11 C10 1_555 1_555
C12 O2 1_555 1_555
C13 C1 1_555 1_555
H7 C13 1_555 1_555
H8 C13 1_555 1_555
H9 C13 1_555 1_555
C14 C2 1_555 1_555
C15 O4 1_555 1_555
H10 C15 1_555 1_555
H11 C15 1_555 1_555
C16 C15 1_555 1_555
H12 C16 1_555 1_555
H13 C16 1_555 1_555
H14 C16 1_555 1_555
C17 C12 1_555 1_555
H15 C17 1_555 1_555
H16 C17 1_555 1_555
H17 C17 1_555 1_555
C18 C11 1_555 1_555
C19 O6 1_555 1_555
H18 C19 1_555 1_555
H19 C19 1_555 1_555
C20 C19 1_555 1_555
H20 C20 1_555 1_555
H21 C20 1_555 1_555
H22 C20 1_555 1_555
N3 Fe1 1_555 1_555
N4 C28 1_555 1_555
C21 N3 1_555 1_555
H23 C21 1_555 1_555
C22 C21 1_555 1_555
H24 C22 1_555 1_555
C23 C22 1_555 1_555
C24 C23 1_555 1_555
H25 C24 1_555 1_555
C25 N3 1_555 1_555
H26 C25 1_555 1_555
C26 C23 1_555 1_555
H27 C26 1_555 1_555
H28 C26 1_555 1_555
C27 C26 1_555 1_555
H29 C27 1_555 1_555
H30 C27 1_555 1_555
C28 H31 1_555 1_555
C29 C28 1_555 1_555
H32 C29 1_555 1_555
C30 C27 1_555 1_555
C31 C30 1_555 1_555
H33 C31 1_555 1_555
C32 N4 1_555 1_555
H34 C32 1_555 1_555
O7 H35 1_555 1_555
C33 O7 1_555 1_555
H36 C33 1_555 1_555
H37 C33 1_555 1_555
H38 C33 1_555 1_555
Fe1_2 N4 1_555 1_555
N4_2 Fe1 1_555 1_555
C4 C9 1_555 1_555
C8 C9 1_555 1_555
C11 C12 1_555 1_555
C24 C25 1_555 1_555
C29 C30 1_555 1_555
C31 C32 1_555 1_555

#END
