
#######################################################################
#
#                 Cambridge Crystallographic Data Centre
#                                CCDC 
#
#######################################################################
#
# If this CIF has been generated from an entry in the Cambridge 
# Structural Database, then it will include bibliographic, chemical, 
# crystal, experimental, refinement or atomic coordinate data resulting 
# from the CCDC's data processing and validation procedures.
#
#######################################################################

data_LEJJIV01
_symmetry_cell_setting           triclinic
_symmetry_space_group_name_H-M   'P -1'
_symmetry_Int_Tables_number      2
_space_group_name_Hall           '-P 1'
loop_
_symmetry_equiv_pos_site_id
_symmetry_equiv_pos_as_xyz
1 x,y,z
2 -x,-y,-z
_cell_length_a                   11.037(2)
_cell_length_b                   11.633(6)
_cell_length_c                   12.196(2)
_cell_angle_alpha                72.949(36)
_cell_angle_beta                 65.328(16)
_cell_angle_gamma                71.960(23)
_cell_volume                     1328.41
loop_
_atom_site_label
_atom_site_type_symbol
_atom_site_fract_x
_atom_site_fract_y
_atom_site_fract_z
Fe1 Fe 0.56205(5) 0.32140(4) 0.72445(4)
O1 O 0.67391(19) 0.41753(18) 0.58047(19)
O2 O 0.5007(2) 0.26749(18) 0.62413(19)
O3 O 0.8525(2) 0.68944(19) 0.5712(2)
O4 O 0.2434(2) 0.0247(2) 0.7349(2)
N1 N 0.6126(2) 0.3732(2) 0.8303(2)
N2 N 0.4642(2) 0.2228(2) 0.8689(2)
N3 N 0.7272(2) 0.1817(2) 0.6976(2)
N4 N 1.4001(2) -0.5329(2) 0.7419(2)
C1 C 0.7450(3) 0.4881(3) 0.5725(3)
C2 C 0.7472(3) 0.5188(3) 0.6765(3)
C3 C 0.6838(3) 0.4572(3) 0.7974(3)
C4 C 0.5634(3) 0.3125(3) 0.9531(3)
C5 C 0.5867(3) 0.3272(3) 1.0512(3)
C6 C 0.5368(3) 0.2594(3) 1.1665(3)
C7 C 0.4624(3) 0.1738(3) 1.1869(3)
C8 C 0.4373(3) 0.1580(3) 1.0915(3)
C9 C 0.4852(3) 0.2275(3) 0.9746(3)
C10 C 0.3845(3) 0.1549(3) 0.8773(3)
C11 C 0.3574(3) 0.1390(3) 0.7795(3)
C12 C 0.4223(3) 0.1952(3) 0.6546(3)
C13 C 0.8311(4) 0.5355(3) 0.4433(3)
C14 C 0.8202(3) 0.6106(3) 0.6639(3)
C15 C 0.8593(4) 0.6097(3) 0.7693(4)
C16 C 0.4041(4) 0.1701(3) 0.5491(3)
C17 C 0.2672(3) 0.0546(3) 0.8113(3)
C18 C 0.1983(4) 0.0006(3) 0.9452(4)
C19 C 0.8499(3) 0.1938(3) 0.6835(3)
C20 C 0.9651(3) 0.0994(3) 0.6659(3)
C21 C 0.9560(3) -0.0150(3) 0.6610(3)
C22 C 0.8308(3) -0.0276(3) 0.6715(3)
C23 C 0.7203(3) 0.0708(3) 0.6906(3)
C24 C 1.0770(3) -0.1220(3) 0.6454(3)
C25 C 1.0812(3) -0.1998(3) 0.7690(3)
C26 C 1.2901(3) -0.5197(3) 0.8453(3)
C27 C 1.1853(3) -0.4160(3) 0.8569(3)
C28 C 1.1897(3) -0.3177(3) 0.7589(3)
C29 C 1.3005(3) -0.3326(3) 0.6512(3)
C30 C 1.4018(3) -0.4397(3) 0.6462(3)
H1 H 0.693(3) 0.480(3) 0.862(3)
H2 H 0.638(3) 0.385(3) 1.038(3)
H3 H 0.553(3) 0.268(3) 1.227(3)
H4 H 0.430(3) 0.128(3) 1.267(3)
H5 H 0.387(3) 0.097(3) 1.108(3)
H6 H 0.338(3) 0.115(3) 0.953(3)
H7 H 0.853(3) 0.479(3) 0.394(3)
H8 H 0.786(4) 0.606(3) 0.405(3)
H9 H 0.912(4) 0.556(3) 0.438(3)
H10 H 0.922(3) 0.663(3) 0.740(3)
H11 H 0.777(3) 0.641(3) 0.834(3)
H12 H 0.899(3) 0.531(3) 0.806(3)
H13 H 0.309(4) 0.186(3) 0.556(3)
H14 H 0.433(4) 0.082(4) 0.552(3)
H15 H 0.449(3) 0.219(3) 0.474(3)
H16 H 0.268(3) -0.054(3) 0.985(3)
H17 H 0.143(3) 0.062(3) 1.002(3)
H18 H 0.138(4) -0.044(3) 0.955(3)
H19 H 0.858(3) 0.271(3) 0.683(3)
H20 H 1.046(3) 0.113(3) 0.658(3)
H21 H 0.816(3) -0.100(3) 0.668(3)
H22 H 0.633(3) 0.063(2) 0.698(3)
H23 H 1.160(3) -0.090(3) 0.600(3)
H24 H 1.074(3) -0.172(3) 0.592(3)
H25 H 1.101(3) -0.154(3) 0.803(3)
H26 H 0.992(3) -0.217(3) 0.819(3)
H27 H 1.286(3) -0.587(3) 0.913(3)
H28 H 1.115(3) -0.413(3) 0.931(3)
H29 H 1.304(3) -0.272(3) 0.583(3)
H30 H 1.481(3) -0.448(3) 0.572(3)
Fe1_2 Fe 1.56205(5) -0.67860(4) 0.72445(4)
N4_2 N 0.4001(2) 0.4671(2) 0.7419(2)
O5 O 0.0616(9) 0.3152(8) 0.8996(8)
C31 C -0.0204(12) 0.2723(11) 0.8614(12)
H31 H 0.00620 0.18420 0.87060
H32 H -0.00760 0.30840 0.77680
H33 H -0.11490 0.29550 0.91120
H34 H 0.14060 0.30480 0.85070
loop_
_geom_bond_atom_site_label_1
_geom_bond_atom_site_label_2
_geom_bond_site_symmetry_1
_geom_bond_site_symmetry_2
Fe1 O1 1_555 1_555
O1 C1 1_555 1_555
O2 Fe1 1_555 1_555
O3 C14 1_555 1_555
O4 C17 1_555 1_555
N1 Fe1 1_555 1_555
N2 Fe1 1_555 1_555
N3 Fe1 1_555 1_555
N4 C26 1_555 1_555
C1 C2 1_555 1_555
C2 C3 1_555 1_555
C3 N1 1_555 1_555
C4 N1 1_555 1_555
C5 C4 1_555 1_555
C6 C5 1_555 1_555
C7 C6 1_555 1_555
C8 C7 1_555 1_555
C9 N2 1_555 1_555
C10 N2 1_555 1_555
C11 C10 1_555 1_555
C12 O2 1_555 1_555
C13 C1 1_555 1_555
C14 C2 1_555 1_555
C15 C14 1_555 1_555
C16 C12 1_555 1_555
C17 C11 1_555 1_555
C18 C17 1_555 1_555
C19 N3 1_555 1_555
C20 C19 1_555 1_555
C21 C20 1_555 1_555
C22 C21 1_555 1_555
C23 N3 1_555 1_555
C24 C21 1_555 1_555
C25 C24 1_555 1_555
C26 C27 1_555 1_555
C27 C28 1_555 1_555
C28 C25 1_555 1_555
C29 C28 1_555 1_555
C30 N4 1_555 1_555
O5 C31 1_555 1_555
C31 H31 1_555 1_555
H1 C3 1_555 1_555
H2 C5 1_555 1_555
H3 C6 1_555 1_555
H4 C7 1_555 1_555
H5 C8 1_555 1_555
H6 C10 1_555 1_555
H7 C13 1_555 1_555
H8 C13 1_555 1_555
H9 C13 1_555 1_555
H10 C15 1_555 1_555
H11 C15 1_555 1_555
H12 C15 1_555 1_555
H13 C16 1_555 1_555
H14 C16 1_555 1_555
H15 C16 1_555 1_555
H16 C18 1_555 1_555
H17 C18 1_555 1_555
H18 C18 1_555 1_555
H19 C19 1_555 1_555
H20 C20 1_555 1_555
H21 C22 1_555 1_555
H22 C23 1_555 1_555
H23 C24 1_555 1_555
H24 C24 1_555 1_555
H25 C25 1_555 1_555
H26 C25 1_555 1_555
H27 C26 1_555 1_555
H28 C27 1_555 1_555
H29 C29 1_555 1_555
H30 C30 1_555 1_555
H32 C31 1_555 1_555
H33 C31 1_555 1_555
H34 O5 1_555 1_555
Fe1_2 N4 1_555 1_555
N4_2 Fe1 1_555 1_555
C4 C9 1_555 1_555
C8 C9 1_555 1_555
C11 C12 1_555 1_555
C22 C23 1_555 1_555
C29 C30 1_555 1_555

#END
