
#######################################################################
#
#                 Cambridge Crystallographic Data Centre
#                                CCDC 
#
#######################################################################
#
# If this CIF has been generated from an entry in the Cambridge 
# Structural Database, then it will include bibliographic, chemical, 
# crystal, experimental, refinement or atomic coordinate data resulting 
# from the CCDC's data processing and validation procedures.
#
#######################################################################

data_LEJKES
_symmetry_cell_setting           orthorhombic
_symmetry_space_group_name_H-M   'P n n n'
_symmetry_Int_Tables_number      48
_space_group_name_Hall           '-P 2ab 2bc'
loop_
_symmetry_equiv_pos_site_id
_symmetry_equiv_pos_as_xyz
1 x,y,z
2 1/2-x,1/2-y,z
3 1/2-x,y,1/2-z
4 x,1/2-y,1/2-z
5 -x,-y,-z
6 1/2+x,1/2+y,-z
7 1/2+x,-y,1/2+z
8 -x,1/2+y,1/2+z
_cell_length_a                   7.1886(5)
_cell_length_b                   13.6466(10)
_cell_length_c                   21.5816(16)
_cell_angle_alpha                90
_cell_angle_beta                 90
_cell_angle_gamma                90
_cell_volume                     2117.15
loop_
_atom_site_label
_atom_site_type_symbol
_atom_site_fract_x
_atom_site_fract_y
_atom_site_fract_z
O2 O 0.6980(6) 0.8497(3) 0.5860(2)
O3 O 0.5982(15) 0.9233(7) 0.7083(3)
Cu1 Cu 0.2500 -0.7500 0.7500
O1 O 0.5986(6) -0.7500 0.7500
O4 O 0.7500 -0.7500 0.6702(4)
O5 O 0.2311(3) -0.4837(2) 1.01865(11)
N1 N 0.2422(3) -0.6451(2) 0.81611(12)
N2 N 0.1867(4) -0.3482(2) 0.96163(11)
N3 N 0.7500 -0.7500 0.7268(4)
C1 C 0.3776(5) -0.6386(2) 0.85820(14)
H1 H 0.4814 -0.6814 0.8549
C2 C 0.1813(6) -0.2917(2) 0.90363(14)
H2 H 0.0544 -0.2652 0.8976
H3 H 0.2092 -0.3359 0.8685
C3 C 0.3725(5) -0.5721(2) 0.90629(14)
H4 H 0.4702 -0.5701 0.9359
C4 C 0.2240(4) -0.5086(2) 0.91090(15)
C5 C 0.0992(5) -0.5825(2) 0.82000(13)
H5 H 0.0041 -0.5855 0.7895
C6 C 0.2136(5) -0.4442(2) 0.96762(15)
C7 C 0.0847(4) -0.5137(2) 0.86673(13)
H6 H -0.0190 -0.4706 0.8685
C8 C 0.1721(6) -0.2870(3) 1.01795(14)
H7 H 0.1807 -0.3289 1.0553
H8 H 0.0506 -0.2530 1.0186
Cu1_2 Cu 1.2500 -0.7500 0.7500
Cu1_3 Cu 0.2500 0.2500 0.7500
Cu1_4 Cu 0.2500 -1.7500 0.7500
O1A O 0.9014(6) -0.7500 0.7500
O1A_2 O -0.0986(6) -0.7500 0.7500
O4B O 0.7500 -0.7500 0.8298(4)
O5A O 0.2689(3) -0.0163(2) 1.01865(11)
O5A_2 O 0.2689(3) -1.0163(2) 1.01865(11)
O5_2 O 0.2311(3) -1.4837(2) 1.01865(11)
N1A N 0.2578(3) 0.1451(2) 0.81611(12)
N1A_2 N 0.2578(3) -0.8549(2) 0.81611(12)
N1_2 N 0.2422(3) -1.6451(2) 0.81611(12)
N1B N 0.2578(3) -0.6451(2) 0.68389(12)
N1C N 0.2422(3) -0.8549(2) 0.68389(12)
N2A N 0.3133(4) -0.1518(2) 0.96163(11)
N2A_2 N 0.3133(4) -1.1518(2) 0.96163(11)
N2_2 N 0.1867(4) -1.3482(2) 0.96163(11)
N3B N 0.7500 -0.7500 0.7732(4)
C1A C 0.1224(5) 0.1386(2) 0.85820(14)
C1A_2 C 0.1224(5) -0.8614(2) 0.85820(14)
C1_2 C 0.3776(5) -1.6386(2) 0.85820(14)
H1A H 0.0186 0.1814 0.8549
H1A_2 H 0.0186 -0.8186 0.8549
H1_2 H 0.4814 -1.6814 0.8549
C2A C 0.3187(6) -0.2083(2) 0.90363(14)
C2A_2 C 0.3187(6) -1.2083(2) 0.90363(14)
C2_2 C 0.1813(6) -1.2917(2) 0.90363(14)
H2A H 0.4456 -0.2348 0.8976
H2A_2 H 0.4456 -1.2348 0.8976
H2_2 H 0.0544 -1.2652 0.8976
H3A H 0.2908 -0.1641 0.8685
H3A_2 H 0.2908 -1.1641 0.8685
H3_2 H 0.2092 -1.3359 0.8685
C3A C 0.1275(5) 0.0721(2) 0.90629(14)
C3A_2 C 0.1275(5) -0.9279(2) 0.90629(14)
C3_2 C 0.3725(5) -1.5721(2) 0.90629(14)
H4A H 0.0298 0.0701 0.9359
H4A_2 H 0.0298 -0.9299 0.9359
H4_2 H 0.4702 -1.5701 0.9359
C4A C 0.2760(4) 0.0086(2) 0.91090(15)
C4A_2 C 0.2760(4) -0.9914(2) 0.91090(15)
C4_2 C 0.2240(4) -1.5086(2) 0.91090(15)
C5A C 0.4008(5) 0.0825(2) 0.82000(13)
C5A_2 C 0.4008(5) -0.9175(2) 0.82000(13)
C5_2 C 0.0992(5) -1.5825(2) 0.82000(13)
H5A H 0.4959 0.0855 0.7895
H5A_2 H 0.4959 -0.9145 0.7895
H5_2 H 0.0041 -1.5855 0.7895
C6A C 0.2864(5) -0.0558(2) 0.96762(15)
C6A_2 C 0.2864(5) -1.0558(2) 0.96762(15)
C6_2 C 0.2136(5) -1.4442(2) 0.96762(15)
C7A C 0.4153(4) 0.0137(2) 0.86673(13)
C7A_2 C 0.4153(4) -0.9863(2) 0.86673(13)
C7_2 C 0.0847(4) -1.5137(2) 0.86673(13)
H6A H 0.5190 -0.0294 0.8685
H6A_2 H 0.5190 -1.0294 0.8685
H6_2 H -0.0190 -1.4706 0.8685
C8A C 0.3279(6) -0.2130(3) 1.01795(14)
C8A_2 C 0.3279(6) -1.2130(3) 1.01795(14)
C8_2 C 0.1721(6) -1.2870(3) 1.01795(14)
H7A H 0.3193 -0.1711 1.0553
H7A_2 H 0.3193 -1.1711 1.0553
H7_2 H 0.1807 -1.3289 1.0553
H8A H 0.4494 -0.2470 1.0186
H8A_2 H 0.4494 -1.2470 1.0186
H8_2 H 0.0506 -1.2530 1.0186
loop_
_geom_bond_atom_site_label_1
_geom_bond_atom_site_label_2
_geom_bond_site_symmetry_1
_geom_bond_site_symmetry_2
Cu1 O1 1_555 1_555
O1 N3 1_555 1_555
O4 N3 1_555 1_555
O5 C6 1_555 1_555
N1 Cu1 1_555 1_555
N2 C2 1_555 1_555
N3 O1A 1_555 1_555
C1 N1 1_555 1_555
H1 C1 1_555 1_555
C2 H2 1_555 1_555
H3 C2 1_555 1_555
C3 C1 1_555 1_555
H4 C3 1_555 1_555
C4 C3 1_555 1_555
C5 N1 1_555 1_555
H5 C5 1_555 1_555
C6 N2 1_555 1_555
C7 C4 1_555 1_555
H6 C7 1_555 1_555
C8 N2 1_555 1_555
H7 C8 1_555 1_555
H8 C8 1_555 1_555
Cu1_2 O1A 1_555 1_555
Cu1_3 N1A 1_555 1_555
Cu1_4 N1_2 1_555 1_555
O1A N3B 1_555 1_555
O1A_2 Cu1 1_555 1_555
O4B N3B 1_555 1_555
O5A C6A 1_555 1_555
O5A_2 C6A_2 1_555 1_555
O5_2 C6_2 1_555 1_555
N1A C1A 1_555 1_555
N1A_2 Cu1 1_555 1_555
N1_2 C1_2 1_555 1_555
N1B Cu1 1_555 1_555
N1C Cu1 1_555 1_555
N2A C2A 1_555 1_555
N2A_2 C2A_2 1_555 1_555
N2_2 C2_2 1_555 1_555
N3B O1 1_555 1_555
C1A H1A 1_555 1_555
C1A_2 N1A_2 1_555 1_555
C1_2 H1_2 1_555 1_555
H1A_2 C1A_2 1_555 1_555
C2A C2 1_555 1_555
C2A_2 C2_2 1_555 1_555
C2_2 H2_2 1_555 1_555
H2A C2A 1_555 1_555
H2A_2 C2A_2 1_555 1_555
H3A C2A 1_555 1_555
H3A_2 C2A_2 1_555 1_555
H3_2 C2_2 1_555 1_555
C3A C1A 1_555 1_555
C3A_2 C1A_2 1_555 1_555
C3_2 C1_2 1_555 1_555
H4A C3A 1_555 1_555
H4A_2 C3A_2 1_555 1_555
H4_2 C3_2 1_555 1_555
C4A C3A 1_555 1_555
C4A_2 C3A_2 1_555 1_555
C4_2 C3_2 1_555 1_555
C5A N1A 1_555 1_555
C5A_2 N1A_2 1_555 1_555
C5_2 N1_2 1_555 1_555
H5A C5A 1_555 1_555
H5A_2 C5A_2 1_555 1_555
H5_2 C5_2 1_555 1_555
C6A N2A 1_555 1_555
C6A_2 N2A_2 1_555 1_555
C6_2 N2_2 1_555 1_555
C7A C4A 1_555 1_555
C7A_2 C4A_2 1_555 1_555
C7_2 C4_2 1_555 1_555
H6A C7A 1_555 1_555
H6A_2 C7A_2 1_555 1_555
H6_2 C7_2 1_555 1_555
C8A C8 1_555 1_555
C8A_2 N2A_2 1_555 1_555
C8_2 N2_2 1_555 1_555
H7A C8A 1_555 1_555
H7A_2 C8A_2 1_555 1_555
H7_2 C8_2 1_555 1_555
H8A C8A 1_555 1_555
H8A_2 C8A_2 1_555 1_555
H8_2 C8_2 1_555 1_555
N3 N3B 1_555 1_555
C4 C6 1_555 1_555
C5 C7 1_555 1_555
N2A C8A 1_555 1_555
C4A C6A 1_555 1_555
C4A_2 C6A_2 1_555 1_555
C4_2 C6_2 1_555 1_555
C5A C7A 1_555 1_555
C5A_2 C7A_2 1_555 1_555
C5_2 C7_2 1_555 1_555
C8A_2 C8_2 1_555 1_555

#END
