
#######################################################################
#
#                 Cambridge Crystallographic Data Centre
#                                CCDC 
#
#######################################################################
#
# If this CIF has been generated from an entry in the Cambridge 
# Structural Database, then it will include bibliographic, chemical, 
# crystal, experimental, refinement or atomic coordinate data resulting 
# from the CCDC's data processing and validation procedures.
#
#######################################################################

data_LEJVOL
_symmetry_cell_setting           monoclinic
_symmetry_space_group_name_H-M   'P 21/c'
_symmetry_Int_Tables_number      14
_space_group_name_Hall           '-P 2ybc'
loop_
_symmetry_equiv_pos_site_id
_symmetry_equiv_pos_as_xyz
1 x,y,z
2 -x,1/2+y,1/2-z
3 -x,-y,-z
4 x,1/2-y,1/2+z
_cell_length_a                   9.955(5)
_cell_length_b                   14.928(5)
_cell_length_c                   7.745(5)
_cell_angle_alpha                90
_cell_angle_beta                 94.09(5)
_cell_angle_gamma                90
_cell_volume                     1148.04
loop_
_atom_site_label
_atom_site_type_symbol
_atom_site_fract_x
_atom_site_fract_y
_atom_site_fract_z
Bi1 Bi 0.22380(4) 0.21189(2) 0.74855(4)
Cl1 Cl 0.4154(3) 0.2198(2) 1.0419(3)
Cl2 Cl 0.0523(3) 0.1657(2) 0.9828(3)
S1 S 0.1268(3) 0.1117(2) 0.4830(3)
S2 S 0.3360(3) 0.0549(2) 0.7495(3)
C1 C 0.2410(9) 0.0307(6) 0.559(1)
N1 N 0.2570(8) -0.0446(5) 0.477(1)
C2 C 0.181(1) -0.0632(7) 0.309(1)
C3 C 0.266(1) -0.0409(9) 0.161(1)
C4 C 0.346(1) -0.1155(7) 0.546(1)
C5 C 0.272(2) -0.1805(9) 0.653(2)
H1 H 0.1541 -0.1259 0.3002
H2 H 0.0978 -0.0289 0.2992
H3 H 0.2890 0.0222 0.1639
H4 H 0.3453 -0.0748 0.1649
H5 H 0.2159 -0.0513 0.0507
H6 H 0.3850 -0.1475 0.4525
H7 H 0.4200 -0.0909 0.6173
H8 H 0.2369 -0.1516 0.7444
H9 H 0.2019 -0.2082 0.5796
H10 H 0.3319 -0.2283 0.6946
Cl1C Cl 0.4154(3) 0.2802(2) 0.5419(3)
Cl2C Cl 0.0523(3) 0.3343(2) 0.4828(3)
S1C S 0.1268(3) 0.3883(2) 0.9830(3)
Bi1C Bi 0.22380(4) 0.28811(2) 1.24855(4)
Bi1C_2 Bi 0.22380(4) 0.28811(2) 0.24855(4)
C1C C 0.2410(9) 0.4693(6) 1.059(1)
Cl1C_2 Cl 0.4154(3) 0.2802(2) 1.5419(3)
Cl2C_2 Cl 0.0523(3) 0.3343(2) 1.4828(3)
S1_2 S 0.1268(3) 0.1117(2) 1.4830(3)
S2C S 0.3360(3) 0.4451(2) 1.2495(3)
N1C N 0.2570(8) 0.5446(5) 0.977(1)
C2C C 0.181(1) 0.5632(7) 0.809(1)
C4C C 0.346(1) 0.6155(7) 1.046(1)
C3C C 0.266(1) 0.5409(9) 0.661(1)
H1C H 0.1541 0.6259 0.8002
H2C H 0.0978 0.5289 0.7992
C5C C 0.272(2) 0.6805(9) 1.153(2)
H6C H 0.3850 0.6475 0.9525
H7C H 0.4200 0.5909 1.1173
H3C H 0.2890 0.4778 0.6639
H4C H 0.3453 0.5748 0.6649
H5C H 0.2159 0.5513 0.5507
H8C H 0.2369 0.6516 1.2444
H9C H 0.2019 0.7082 1.0796
H10C H 0.3319 0.7283 1.1946
loop_
_geom_bond_atom_site_label_1
_geom_bond_atom_site_label_2
_geom_bond_site_symmetry_1
_geom_bond_site_symmetry_2
Bi1 Cl1 1_555 1_555
Cl1 Bi1C 1_555 1_555
Cl2 Bi1 1_555 1_555
S1 Bi1 1_555 1_555
S2 Bi1 1_555 1_555
C1 S1 1_555 1_555
N1 C1 1_555 1_555
C2 N1 1_555 1_555
C3 C2 1_555 1_555
C4 N1 1_555 1_555
C5 C4 1_555 1_555
H1 C2 1_555 1_555
H2 C2 1_555 1_555
H3 C3 1_555 1_555
H4 C3 1_555 1_555
H5 C3 1_555 1_555
H6 C4 1_555 1_555
H7 C4 1_555 1_555
H8 C5 1_555 1_555
H9 C5 1_555 1_555
H10 C5 1_555 1_555
Cl1C Bi1 1_555 1_555
Cl2C Bi1 1_555 1_555
S1C Bi1 1_555 1_555
Bi1C Cl2 1_555 1_555
Bi1C_2 S1 1_555 1_555
C1C S1C 1_555 1_555
Cl1C_2 Bi1C 1_555 1_555
Cl2C_2 Bi1C 1_555 1_555
S1_2 Bi1C 1_555 1_555
S2C Bi1C 1_555 1_555
N1C C1C 1_555 1_555
C2C N1C 1_555 1_555
C4C N1C 1_555 1_555
C3C C2C 1_555 1_555
H1C C2C 1_555 1_555
H2C C2C 1_555 1_555
C5C C4C 1_555 1_555
H6C C4C 1_555 1_555
H7C C4C 1_555 1_555
H3C C3C 1_555 1_555
H4C C3C 1_555 1_555
H5C C3C 1_555 1_555
H8C C5C 1_555 1_555
H9C C5C 1_555 1_555
H10C C5C 1_555 1_555
S2 C1 1_555 1_555
Cl1C Bi1C_2 1_555 1_555
Cl2C Bi1C_2 1_555 1_555
S1C Bi1C 1_555 1_555
C1C S2C 1_555 1_555

#END
