
#######################################################################
#
#                 Cambridge Crystallographic Data Centre
#                                CCDC 
#
#######################################################################
#
# If this CIF has been generated from an entry in the Cambridge 
# Structural Database, then it will include bibliographic, chemical, 
# crystal, experimental, refinement or atomic coordinate data resulting 
# from the CCDC's data processing and validation procedures.
#
#######################################################################

data_LEJVUR
_symmetry_cell_setting           monoclinic
_symmetry_space_group_name_H-M   'P 21/c'
_symmetry_Int_Tables_number      14
_space_group_name_Hall           '-P 2ybc'
loop_
_symmetry_equiv_pos_site_id
_symmetry_equiv_pos_as_xyz
1 x,y,z
2 -x,1/2+y,1/2-z
3 -x,-y,-z
4 x,1/2-y,1/2+z
_cell_length_a                   10.168(5)
_cell_length_b                   14.935(7)
_cell_length_c                   7.886(6)
_cell_angle_alpha                90
_cell_angle_beta                 91.83(4)
_cell_angle_gamma                90
_cell_volume                     1196.95
loop_
_atom_site_label
_atom_site_type_symbol
_atom_site_fract_x
_atom_site_fract_y
_atom_site_fract_z
Bi1 Bi 0.22090(5) 0.20916(3) 0.76028(5)
Br1 Br 0.4215(1) 0.21280(9) 1.0510(1)
Br2 Br 0.0413(1) 0.15899(9) 1.0085(2)
S1 S 0.1294(3) 0.1132(2) 0.4959(3)
S2 S 0.3302(3) 0.0521(2) 0.7497(4)
C1 C 0.238(1) 0.0321(7) 0.563(1)
N1 N 0.2550(9) -0.0434(6) 0.481(1)
C2 C 0.189(1) -0.0603(8) 0.315(1)
C3 C 0.276(1) -0.041(1) 0.171(2)
C4 C 0.340(1) -0.1157(8) 0.545(2)
C5 C 0.266(2) -0.180(1) 0.653(2)
H1 H 0.1583 -0.1214 0.3072
H2 H 0.1108 -0.0227 0.3030
H3 H 0.3054 0.0199 0.1752
H4 H 0.3529 -0.0789 0.1794
H5 H 0.2338 -0.0515 0.0631
H6 H 0.3777 -0.1475 0.4516
H7 H 0.4134 -0.0908 0.6114
H8 H 0.2308 -0.1501 0.7484
H9 H 0.1952 -0.2068 0.5887
H10 H 0.3217 -0.2281 0.6961
Br1C Br 0.4215(1) 0.28720(9) 0.5510(1)
Br2C Br 0.0413(1) 0.34101(9) 0.5085(2)
Bi1C Bi 0.22090(5) 0.29084(3) 1.26028(5)
Bi1C_2 Bi 0.22090(5) 0.29084(3) 0.26028(5)
Br1C_2 Br 0.4215(1) 0.28720(9) 1.5510(1)
Br2C_2 Br 0.0413(1) 0.34101(9) 1.5085(2)
S1C S 0.1294(3) 0.3868(2) 0.9959(3)
S2C S 0.3302(3) 0.4479(2) 1.2497(4)
C1C C 0.238(1) 0.4679(7) 1.063(1)
N1C N 0.2550(9) 0.5434(6) 0.981(1)
C2C C 0.189(1) 0.5603(8) 0.815(1)
C4C C 0.340(1) 0.6157(8) 1.045(2)
C3C C 0.276(1) 0.541(1) 0.671(2)
H1C H 0.1583 0.6214 0.8072
H2C H 0.1108 0.5227 0.8030
C5C C 0.266(2) 0.680(1) 1.153(2)
H6C H 0.3777 0.6475 0.9516
H7C H 0.4134 0.5908 1.1114
H3C H 0.3054 0.4801 0.6752
H4C H 0.3529 0.5789 0.6794
H5C H 0.2338 0.5515 0.5631
H8C H 0.2308 0.6501 1.2484
H9C H 0.1952 0.7068 1.0887
H10C H 0.3217 0.7281 1.1961
loop_
_geom_bond_atom_site_label_1
_geom_bond_atom_site_label_2
_geom_bond_site_symmetry_1
_geom_bond_site_symmetry_2
Bi1 Br1 1_555 1_555
Br1 Bi1C 1_555 1_555
Br2 Bi1 1_555 1_555
S1 Bi1 1_555 1_555
S2 Bi1 1_555 1_555
C1 S1 1_555 1_555
N1 C1 1_555 1_555
C2 N1 1_555 1_555
C3 C2 1_555 1_555
C4 N1 1_555 1_555
C5 C4 1_555 1_555
H1 C2 1_555 1_555
H2 C2 1_555 1_555
H3 C3 1_555 1_555
H4 C3 1_555 1_555
H5 C3 1_555 1_555
H6 C4 1_555 1_555
H7 C4 1_555 1_555
H8 C5 1_555 1_555
H9 C5 1_555 1_555
H10 C5 1_555 1_555
Br1C Bi1 1_555 1_555
Br2C Bi1 1_555 1_555
Bi1C Br2 1_555 1_555
Bi1C_2 Br1C 1_555 1_555
Br1C_2 Bi1C 1_555 1_555
Br2C_2 Bi1C 1_555 1_555
S1C Bi1C 1_555 1_555
S2C Bi1C 1_555 1_555
C1C S1C 1_555 1_555
N1C C1C 1_555 1_555
C2C N1C 1_555 1_555
C4C N1C 1_555 1_555
C3C C2C 1_555 1_555
H1C C2C 1_555 1_555
H2C C2C 1_555 1_555
C5C C4C 1_555 1_555
H6C C4C 1_555 1_555
H7C C4C 1_555 1_555
H3C C3C 1_555 1_555
H4C C3C 1_555 1_555
H5C C3C 1_555 1_555
H8C C5C 1_555 1_555
H9C C5C 1_555 1_555
H10C C5C 1_555 1_555
S2 C1 1_555 1_555
Br2C Bi1C_2 1_555 1_555
S2C C1C 1_555 1_555

#END
