
#######################################################################
#
#                 Cambridge Crystallographic Data Centre
#                                CCDC 
#
#######################################################################
#
# If this CIF has been generated from an entry in the Cambridge 
# Structural Database, then it will include bibliographic, chemical, 
# crystal, experimental, refinement or atomic coordinate data resulting 
# from the CCDC's data processing and validation procedures.
#
#######################################################################

data_LEJVEC
_symmetry_cell_setting           monoclinic
_symmetry_space_group_name_H-M   'P 2/c'
_symmetry_Int_Tables_number      13
_space_group_name_Hall           '-P 2yc'
loop_
_symmetry_equiv_pos_site_id
_symmetry_equiv_pos_as_xyz
1 x,y,z
2 -x,y,1/2-z
3 -x,-y,-z
4 x,-y,1/2+z
_cell_length_a                   10.2824(15)
_cell_length_b                   11.7164(18)
_cell_length_c                   16.170(2)
_cell_angle_alpha                90
_cell_angle_beta                 103.214(3)
_cell_angle_gamma                90
_cell_volume                     1896.47
loop_
_atom_site_label
_atom_site_type_symbol
_atom_site_fract_x
_atom_site_fract_y
_atom_site_fract_z
C1 C 0.0160(14) 0.1037(10) 0.1185(10)
H1 H -0.0581 0.1392 0.0844
Cd1 Cd 0.11150(5) 0.73412(4) 0.16463(4)
O1 O 0.1533(5) 0.7404(5) 0.3111(3)
N1 N 0.1050(7) 0.5360(5) 0.1758(5)
C2 C 0.1799(7) 0.7251(7) 0.3874(5)
C3 C 0.1103(10) 0.2961(7) 0.1688(6)
C4 C 0.2011(9) 0.3593(8) 0.2300(5)
H2 H 0.2669 0.3218 0.2698
C5 C 0.0210(10) 0.3597(8) 0.1129(6)
H3 H -0.0400 0.3232 0.0696
C6 C 0.4263(7) 0.7124(7) 0.3996(5)
H4 H 0.4126 0.7346 0.3430
C7 C 0.0184(11) 0.4756(8) 0.1184(7)
H5 H -0.0475 0.5149 0.0800
C8 C 0.1930(10) 0.4756(8) 0.2313(6)
H6 H 0.2528 0.5147 0.2737
C9 C 0.3187(8) 0.6980(7) 0.4356(5)
C10 C 0.1125(9) 0.1696(6) 0.1718(5)
C11 C 0.3425(9) 0.6607(9) 0.5191(5)
H7 H 0.2705 0.6497 0.5441
C12 C 0.2071(15) 0.1112(9) 0.2115(10)
H8 H 0.2811 0.1488 0.2439
O2 O 0.0911(5) 0.7268(5) 0.4302(4)
C13 C 0.6777(8) 0.7137(7) 0.4098(6)
C14 C 0.5578(8) 0.6935(7) 0.4478(5)
C15 C 0.5753(8) 0.6558(9) 0.5284(6)
H9 H 0.6613 0.6404 0.5595
C16 C 0.4694(9) 0.6397(11) 0.5657(6)
H10 H 0.4835 0.6149 0.6217
O3 O 0.6569(5) 0.7221(6) 0.3278(4)
O4 O 0.7879(5) 0.7174(6) 0.4550(4)
C17 C 0.0274(14) -0.0057(10) 0.1158(10)
H11 H -0.0315 -0.0427 0.0718
C18 C 0.2080(18) -0.0107(9) 0.2099(11)
H12 H 0.2822 -0.0489 0.2414
N2 N 0.1108(8) -0.0694(6) 0.1668(5)
Cd1A Cd -0.11150(5) 0.73412(4) 0.33537(4)
Cd1A_2 Cd 0.88850(5) 0.73412(4) 0.33537(4)
Cd1_2 Cd 0.11150(5) -0.26588(4) 0.16463(4)
O2A O -0.0911(5) 0.7268(5) 0.0698(4)
O3A O 0.3431(5) 0.7221(6) 0.1722(4)
O4A O 0.2121(5) 0.7174(6) 0.0450(4)
N2_2 N 0.1108(8) 0.9306(6) 0.1668(5)
loop_
_geom_bond_atom_site_label_1
_geom_bond_atom_site_label_2
_geom_bond_site_symmetry_1
_geom_bond_site_symmetry_2
C1 H1 1_555 1_555
Cd1 O1 1_555 1_555
O1 C2 1_555 1_555
N1 Cd1 1_555 1_555
C2 C9 1_555 1_555
C3 C4 1_555 1_555
C4 H2 1_555 1_555
C5 C3 1_555 1_555
H3 C5 1_555 1_555
C6 H4 1_555 1_555
C7 N1 1_555 1_555
H5 C7 1_555 1_555
C8 N1 1_555 1_555
H6 C8 1_555 1_555
C9 C6 1_555 1_555
C10 C1 1_555 1_555
C11 C9 1_555 1_555
H7 C11 1_555 1_555
C12 C10 1_555 1_555
H8 C12 1_555 1_555
O2 C2 1_555 1_555
C13 C14 1_555 1_555
C14 C6 1_555 1_555
C15 C14 1_555 1_555
H9 C15 1_555 1_555
C16 C11 1_555 1_555
H10 C16 1_555 1_555
O3 C13 1_555 1_555
O4 C13 1_555 1_555
C17 C1 1_555 1_555
H11 C17 1_555 1_555
C18 C12 1_555 1_555
H12 C18 1_555 1_555
N2 C17 1_555 1_555
Cd1A O2 1_555 1_555
Cd1A_2 O3 1_555 1_555
Cd1_2 N2 1_555 1_555
O2A Cd1 1_555 1_555
O3A Cd1 1_555 1_555
O4A Cd1 1_555 1_555
N2_2 Cd1 1_555 1_555
C3 C10 1_555 1_555
C4 C8 1_555 1_555
C5 C7 1_555 1_555
C15 C16 1_555 1_555
O4 Cd1A_2 1_555 1_555
C18 N2 1_555 1_555

#END
