
#######################################################################
#
#                 Cambridge Crystallographic Data Centre
#                                CCDC 
#
#######################################################################
#
# If this CIF has been generated from an entry in the Cambridge 
# Structural Database, then it will include bibliographic, chemical, 
# crystal, experimental, refinement or atomic coordinate data resulting 
# from the CCDC's data processing and validation procedures.
#
#######################################################################

data_LEJWOO
_symmetry_cell_setting           triclinic
_symmetry_space_group_name_H-M   'P -1'
_symmetry_Int_Tables_number      2
_space_group_name_Hall           '-P 1'
loop_
_symmetry_equiv_pos_site_id
_symmetry_equiv_pos_as_xyz
1 x,y,z
2 -x,-y,-z
_cell_length_a                   8.7491(3)
_cell_length_b                   12.7363(6)
_cell_length_c                   20.8084(9)
_cell_angle_alpha                95.366(4)
_cell_angle_beta                 91.064(3)
_cell_angle_gamma                108.389(4)
_cell_volume                     2187.82
loop_
_atom_site_label
_atom_site_type_symbol
_atom_site_fract_x
_atom_site_fract_y
_atom_site_fract_z
Au1 Au 0.00000 0.50000 0.00000
Au2 Au -0.30584(7) 0.43377(5) 0.06733(3)
Au3 Au -0.14408(7) 0.25903(5) 0.06426(3)
Au4 Au 0.18639(7) 0.27575(5) 0.02106(3)
Au5 Au 0.35791(7) 0.10272(5) 0.00802(3)
Au6 Au 0.00000 0.00000 0.00000
S1 S -0.1395(5) 0.4518(3) -0.09952(19)
S2 S -0.4520(5) 0.3838(3) -0.0305(2)
S3 S -0.2199(5) 0.4945(3) 0.1737(2)
S4 S -0.0802(5) 0.3044(3) 0.1734(2)
S5 S -0.2418(4) 0.1784(3) -0.0379(2)
S6 S 0.0985(5) 0.2553(3) -0.0855(2)
S7 S 0.2995(5) 0.3275(3) 0.1244(2)
S8 S 0.4210(5) 0.1270(3) 0.1167(2)
S9 S 0.3668(5) 0.0802(3) -0.1021(2)
S10 S 0.0081(5) -0.0466(3) -0.1093(2)
C1 C -0.3381(17) 0.4035(11) -0.0942(8)
C2 C -0.4387(19) 0.3727(13) -0.1604(8)
H1 H -0.4933 0.2913 -0.1649
H2 H -0.5244 0.4081 -0.1569
C3 C -0.361(2) 0.4002(14) -0.2201(8)
H3 H -0.2878 0.3555 -0.2289
H4 H -0.2946 0.4797 -0.2154
C4 C -0.480(2) 0.3787(16) -0.2758(8)
H5 H -0.5449 0.299 -0.28
H6 H -0.5543 0.422 -0.2656
C5 C -0.411(3) 0.4065(19) -0.3394(9)
H7 H -0.3407 0.361 -0.3507
H8 H -0.3434 0.4856 -0.335
C6 C -0.539(3) 0.387(2) -0.3956(10)
H9 H -0.6287 0.3198 -0.391
H10 H -0.4893 0.3787 -0.4368
H11 H -0.5784 0.4512 -0.3946
C7 C -0.1268(17) 0.4132(11) 0.2049(7)
C8 C -0.074(2) 0.4503(14) 0.2764(8)
H12 H 0.0343 0.4428 0.284
H13 H -0.0625 0.5302 0.2852
C9 C -0.181(3) 0.390(2) 0.3229(10)
H14 H -0.194 0.3096 0.3133
H15 H -0.2883 0.3984 0.3156
C10 C -0.130(3) 0.423(2) 0.3948(9)
H16 H -0.0189 0.4211 0.4029
H17 H -0.1304 0.5001 0.4073
C11 C -0.246(3) 0.343(3) 0.4341(11)
H18 H -0.353 0.3542 0.4303
H19 H -0.259 0.2661 0.4156
C12 C -0.196(4) 0.355(3) 0.5032(10)
H20 H -0.0973 0.3351 0.5079
H21 H -0.2816 0.3066 0.5265
H22 H -0.1746 0.4329 0.5212
C13 C -0.1000(17) 0.2001(11) -0.0947(7)
C14 C -0.1711(19) 0.1585(14) -0.1619(8)
H23 H -0.2744 0.1745 -0.1653
H24 H -0.1978 0.0766 -0.1665
C15 C -0.077(2) 0.2006(14) -0.2195(8)
H25 H -0.0583 0.2817 -0.218
H26 H 0.0296 0.1896 -0.2155
C16 C -0.155(2) 0.1469(16) -0.2836(8)
H27 H -0.2648 0.1533 -0.2861
H28 H -0.1668 0.0667 -0.2861
C17 C -0.069(3) 0.193(2) -0.3408(10)
H29 H 0.0435 0.1921 -0.3365
H30 H -0.0654 0.2713 -0.3403
C18 C -0.141(4) 0.132(2) -0.4051(11)
H31 H -0.1709 0.0519 -0.4028
H32 H -0.0625 0.1541 -0.4382
H33 H -0.2379 0.1516 -0.4162
C19 C 0.3819(17) 0.2359(11) 0.1524(7)
C20 C 0.4245(19) 0.2606(14) 0.2246(8)
H34 H 0.5061 0.2253 0.2356
H35 H 0.4738 0.342 0.2351
C21 C 0.2811(19) 0.2198(14) 0.2661(8)
H36 H 0.2005 0.2562 0.2555
H37 H 0.2307 0.1388 0.2547
C22 C 0.319(2) 0.2407(15) 0.3360(8)
H38 H 0.3743 0.3213 0.3472
H39 H 0.3956 0.2013 0.3471
C23 C 0.174(3) 0.2045(19) 0.3767(9)
H40 H 0.0948 0.2405 0.3639
H41 H 0.1229 0.123 0.3676
C24 C 0.215(3) 0.233(2) 0.4490(10)
H42 H 0.2921 0.1969 0.4623
H43 H 0.116 0.2065 0.4725
H44 H 0.2617 0.3137 0.4588
C25 C 0.1894(18) 0.0069(11) -0.1407(8)
C26 C 0.184(2) -0.0112(16) -0.2115(9)
H45 H 0.106 -0.0859 -0.2245
H46 H 0.1387 0.0434 -0.2283
C27 C 0.328(3) -0.005(2) -0.2448(10)
H47 H 0.3819 -0.0515 -0.2241
H48 H 0.4003 0.073 -0.2372
C28 C 0.315(3) -0.038(2) -0.3160(10)
H49 H 0.3945 -0.0771 -0.3263
H50 H 0.2063 -0.0924 -0.3273
C29 C 0.341(4) 0.053(2) -0.3576(12)
H51 H 0.4439 0.1116 -0.3434
H52 H 0.2533 0.0867 -0.3514
C30 C 0.345(4) 0.017(2) -0.4303(12)
H53 H 0.4434 -0.0021 -0.4383
H54 H 0.3437 0.0785 -0.4553
H55 H 0.2505 -0.0477 -0.4436
Au2A Au 0.30584(7) 0.56623(5) -0.06733(3)
Au3A Au 0.14408(7) 0.74097(5) -0.06426(3)
Au4A Au -0.18639(7) 0.72425(5) -0.02106(3)
Au5A Au -0.35791(7) 0.89728(5) -0.00802(3)
Au5A_2 Au -0.35791(7) -0.10272(5) -0.00802(3)
Au6_2 Au 0.00000 1.00000 0.00000
S1A S 0.1395(5) 0.5482(3) 0.09952(19)
S2A S 0.4520(5) 0.6162(3) 0.0305(2)
S3A S 0.2199(5) 0.5055(3) -0.1737(2)
S4A S 0.0802(5) 0.6956(3) -0.1734(2)
S5A S 0.2418(4) 0.8216(3) 0.0379(2)
S6A S -0.0985(5) 0.7447(3) 0.0855(2)
S7A S -0.2995(5) 0.6725(3) -0.1244(2)
S8A S -0.4210(5) 0.8730(3) -0.1167(2)
S9A S -0.3668(5) 0.9198(3) 0.1021(2)
S10A S -0.0081(5) 1.0466(3) 0.1093(2)
S10A_2 S -0.0081(5) 0.0466(3) 0.1093(2)
C1A C 0.3381(17) 0.5965(11) 0.0942(8)
C2A C 0.4387(19) 0.6273(13) 0.1604(8)
H1A H 0.4933 0.7087 0.1649
H2A H 0.5244 0.5919 0.1569
C3A C 0.361(2) 0.5998(14) 0.2201(8)
H3A H 0.2878 0.6445 0.2289
H4A H 0.2946 0.5203 0.2154
C4A C 0.480(2) 0.6213(16) 0.2758(8)
H5A H 0.5449 0.701 0.28
H6A H 0.5543 0.578 0.2656
C5A C 0.411(3) 0.5935(19) 0.3394(9)
H7A H 0.3407 0.639 0.3507
H8A H 0.3434 0.5144 0.335
C6A C 0.539(3) 0.613(2) 0.3956(10)
H9A H 0.6287 0.6802 0.391
H10A H 0.4893 0.6213 0.4368
H11A H 0.5784 0.5488 0.3946
C7A C 0.1268(17) 0.5868(11) -0.2049(7)
C8A C 0.074(2) 0.5497(14) -0.2764(8)
H12A H -0.0343 0.5572 -0.284
H13A H 0.0625 0.4698 -0.2852
C9A C 0.181(3) 0.610(2) -0.3229(10)
H14A H 0.194 0.6904 -0.3133
H15A H 0.2883 0.6016 -0.3156
C10A C 0.130(3) 0.577(2) -0.3948(9)
H16A H 0.0189 0.5789 -0.4029
H17A H 0.1304 0.4999 -0.4073
C11A C 0.246(3) 0.657(3) -0.4341(11)
H18A H 0.353 0.6458 -0.4303
H19A H 0.259 0.7339 -0.4156
C12A C 0.196(4) 0.645(3) -0.5032(10)
H20A H 0.0973 0.6649 -0.5079
H21A H 0.2816 0.6934 -0.5265
H22A H 0.1746 0.5671 -0.5212
C13A C 0.1000(17) 0.7999(11) 0.0947(7)
C14A C 0.1711(19) 0.8415(14) 0.1619(8)
H23A H 0.2744 0.8255 0.1653
H24A H 0.1978 0.9234 0.1665
C15A C 0.077(2) 0.7994(14) 0.2195(8)
H25A H 0.0583 0.7183 0.218
H26A H -0.0296 0.8104 0.2155
C16A C 0.155(2) 0.8531(16) 0.2836(8)
H27A H 0.2648 0.8467 0.2861
H28A H 0.1668 0.9333 0.2861
C17A C 0.069(3) 0.807(2) 0.3408(10)
H29A H -0.0435 0.8079 0.3365
H30A H 0.0654 0.7287 0.3403
C18A C 0.141(4) 0.868(2) 0.4051(11)
H31A H 0.1709 0.9481 0.4028
H32A H 0.0625 0.8459 0.4382
H33A H 0.2379 0.8484 0.4162
C19A C -0.3819(17) 0.7641(11) -0.1524(7)
C20A C -0.4245(19) 0.7394(14) -0.2246(8)
H34A H -0.5061 0.7747 -0.2356
H35A H -0.4738 0.658 -0.2351
C21A C -0.2811(19) 0.7802(14) -0.2661(8)
H36A H -0.2005 0.7438 -0.2555
H37A H -0.2307 0.8612 -0.2547
C22A C -0.319(2) 0.7593(15) -0.3360(8)
H38A H -0.3743 0.6787 -0.3472
H39A H -0.3956 0.7987 -0.3471
C23A C -0.174(3) 0.7955(19) -0.3767(9)
H40A H -0.0948 0.7595 -0.3639
H41A H -0.1229 0.877 -0.3676
C24A C -0.215(3) 0.767(2) -0.4490(10)
H42A H -0.2921 0.8031 -0.4623
H43A H -0.116 0.7935 -0.4725
H44A H -0.2617 0.6863 -0.4588
C25A C -0.1894(18) 0.9931(11) 0.1407(8)
C26A C -0.184(2) 1.0112(16) 0.2115(9)
H45A H -0.106 1.0859 0.2245
H46A H -0.1387 0.9566 0.2283
C27A C -0.328(3) 1.005(2) 0.2448(10)
H47A H -0.3819 1.0515 0.2241
H48A H -0.4003 0.927 0.2372
C28A C -0.315(3) 1.038(2) 0.3160(10)
H49A H -0.3945 1.0771 0.3263
H50A H -0.2063 1.0924 0.3273
C29A C -0.341(4) 0.947(2) 0.3576(12)
H51A H -0.4439 0.8884 0.3434
H52A H -0.2533 0.9133 0.3514
C30A C -0.345(4) 0.983(2) 0.4303(12)
H53A H -0.4434 1.0021 0.4383
H54A H -0.3437 0.9215 0.4553
H55A H -0.2505 1.0477 0.4436
loop_
_geom_bond_atom_site_label_1
_geom_bond_atom_site_label_2
_geom_bond_site_symmetry_1
_geom_bond_site_symmetry_2
Au1 Au2 1_555 1_555
Au2 Au3 1_555 1_555
Au3 Au4 1_555 1_555
Au4 Au5 1_555 1_555
Au5 Au6 1_555 1_555
Au6 S10 1_555 1_555
S1 Au1 1_555 1_555
S2 Au2 1_555 1_555
S3 Au2 1_555 1_555
S4 Au3 1_555 1_555
S5 Au3 1_555 1_555
S6 Au4 1_555 1_555
S7 Au4 1_555 1_555
S8 Au5 1_555 1_555
S9 Au5 1_555 1_555
S10 C25 1_555 1_555
C1 S1 1_555 1_555
C2 C1 1_555 1_555
H1 C2 1_555 1_555
H2 C2 1_555 1_555
C3 C2 1_555 1_555
H3 C3 1_555 1_555
H4 C3 1_555 1_555
C4 C3 1_555 1_555
H5 C4 1_555 1_555
H6 C4 1_555 1_555
C5 C4 1_555 1_555
H7 C5 1_555 1_555
H8 C5 1_555 1_555
C6 C5 1_555 1_555
H9 C6 1_555 1_555
H10 C6 1_555 1_555
H11 C6 1_555 1_555
C7 S3 1_555 1_555
C8 C7 1_555 1_555
H12 C8 1_555 1_555
H13 C8 1_555 1_555
C9 C8 1_555 1_555
H14 C9 1_555 1_555
H15 C9 1_555 1_555
C10 C9 1_555 1_555
H16 C10 1_555 1_555
H17 C10 1_555 1_555
C11 C10 1_555 1_555
H18 C11 1_555 1_555
H19 C11 1_555 1_555
C12 C11 1_555 1_555
H20 C12 1_555 1_555
H21 C12 1_555 1_555
H22 C12 1_555 1_555
C13 S5 1_555 1_555
C14 C13 1_555 1_555
H23 C14 1_555 1_555
H24 C14 1_555 1_555
C15 C14 1_555 1_555
H25 C15 1_555 1_555
H26 C15 1_555 1_555
C16 C15 1_555 1_555
H27 C16 1_555 1_555
H28 C16 1_555 1_555
C17 C16 1_555 1_555
H29 C17 1_555 1_555
H30 C17 1_555 1_555
C18 C17 1_555 1_555
H31 C18 1_555 1_555
H32 C18 1_555 1_555
H33 C18 1_555 1_555
C19 S7 1_555 1_555
C20 C19 1_555 1_555
H34 C20 1_555 1_555
H35 C20 1_555 1_555
C21 C20 1_555 1_555
H36 C21 1_555 1_555
H37 C21 1_555 1_555
C22 C21 1_555 1_555
H38 C22 1_555 1_555
H39 C22 1_555 1_555
C23 C22 1_555 1_555
H40 C23 1_555 1_555
H41 C23 1_555 1_555
C24 C23 1_555 1_555
H42 C24 1_555 1_555
H43 C24 1_555 1_555
H44 C24 1_555 1_555
C25 S9 1_555 1_555
C26 C25 1_555 1_555
H45 C26 1_555 1_555
H46 C26 1_555 1_555
C27 C26 1_555 1_555
H47 C27 1_555 1_555
H48 C27 1_555 1_555
C28 C27 1_555 1_555
H49 C28 1_555 1_555
H50 C28 1_555 1_555
C29 C28 1_555 1_555
H51 C29 1_555 1_555
H52 C29 1_555 1_555
C30 C29 1_555 1_555
H53 C30 1_555 1_555
H54 C30 1_555 1_555
H55 C30 1_555 1_555
Au2A Au1 1_555 1_555
Au3A Au2A 1_555 1_555
Au4A Au3A 1_555 1_555
Au5A Au4A 1_555 1_555
Au5A_2 Au6 1_555 1_555
Au6_2 Au5A 1_555 1_555
S1A Au1 1_555 1_555
S2A Au2A 1_555 1_555
S3A Au2A 1_555 1_555
S4A Au3A 1_555 1_555
S5A Au3A 1_555 1_555
S6A Au4A 1_555 1_555
S7A Au4A 1_555 1_555
S8A Au5A 1_555 1_555
S9A Au5A 1_555 1_555
S10A Au6_2 1_555 1_555
S10A_2 Au6 1_555 1_555
C1A S1A 1_555 1_555
C2A C1A 1_555 1_555
H1A C2A 1_555 1_555
H2A C2A 1_555 1_555
C3A C2A 1_555 1_555
H3A C3A 1_555 1_555
H4A C3A 1_555 1_555
C4A C3A 1_555 1_555
H5A C4A 1_555 1_555
H6A C4A 1_555 1_555
C5A C4A 1_555 1_555
H7A C5A 1_555 1_555
H8A C5A 1_555 1_555
C6A C5A 1_555 1_555
H9A C6A 1_555 1_555
H10A C6A 1_555 1_555
H11A C6A 1_555 1_555
C7A S3A 1_555 1_555
C8A C7A 1_555 1_555
H12A C8A 1_555 1_555
H13A C8A 1_555 1_555
C9A C8A 1_555 1_555
H14A C9A 1_555 1_555
H15A C9A 1_555 1_555
C10A C9A 1_555 1_555
H16A C10A 1_555 1_555
H17A C10A 1_555 1_555
C11A C10A 1_555 1_555
H18A C11A 1_555 1_555
H19A C11A 1_555 1_555
C12A C11A 1_555 1_555
H20A C12A 1_555 1_555
H21A C12A 1_555 1_555
H22A C12A 1_555 1_555
C13A S5A 1_555 1_555
C14A C13A 1_555 1_555
H23A C14A 1_555 1_555
H24A C14A 1_555 1_555
C15A C14A 1_555 1_555
H25A C15A 1_555 1_555
H26A C15A 1_555 1_555
C16A C15A 1_555 1_555
H27A C16A 1_555 1_555
H28A C16A 1_555 1_555
C17A C16A 1_555 1_555
H29A C17A 1_555 1_555
H30A C17A 1_555 1_555
C18A C17A 1_555 1_555
H31A C18A 1_555 1_555
H32A C18A 1_555 1_555
H33A C18A 1_555 1_555
C19A S7A 1_555 1_555
C20A C19A 1_555 1_555
H34A C20A 1_555 1_555
H35A C20A 1_555 1_555
C21A C20A 1_555 1_555
H36A C21A 1_555 1_555
H37A C21A 1_555 1_555
C22A C21A 1_555 1_555
H38A C22A 1_555 1_555
H39A C22A 1_555 1_555
C23A C22A 1_555 1_555
H40A C23A 1_555 1_555
H41A C23A 1_555 1_555
C24A C23A 1_555 1_555
H42A C24A 1_555 1_555
H43A C24A 1_555 1_555
H44A C24A 1_555 1_555
C25A S9A 1_555 1_555
C26A C25A 1_555 1_555
H45A C26A 1_555 1_555
H46A C26A 1_555 1_555
C27A C26A 1_555 1_555
H47A C27A 1_555 1_555
H48A C27A 1_555 1_555
C28A C27A 1_555 1_555
H49A C28A 1_555 1_555
H50A C28A 1_555 1_555
C29A C28A 1_555 1_555
H51A C29A 1_555 1_555
H52A C29A 1_555 1_555
C30A C29A 1_555 1_555
H53A C30A 1_555 1_555
H54A C30A 1_555 1_555
H55A C30A 1_555 1_555
S2 C1 1_555 1_555
S4 C7 1_555 1_555
S6 C13 1_555 1_555
S8 C19 1_555 1_555
S2A C1A 1_555 1_555
S4A C7A 1_555 1_555
S6A C13A 1_555 1_555
S8A C19A 1_555 1_555
S10A C25A 1_555 1_555

#END
