
#######################################################################
#
#                 Cambridge Crystallographic Data Centre
#                                CCDC 
#
#######################################################################
#
# If this CIF has been generated from an entry in the Cambridge 
# Structural Database, then it will include bibliographic, chemical, 
# crystal, experimental, refinement or atomic coordinate data resulting 
# from the CCDC's data processing and validation procedures.
#
#######################################################################

data_LEJZUW
_symmetry_cell_setting           triclinic
_symmetry_space_group_name_H-M   'P -1'
_symmetry_Int_Tables_number      2
_space_group_name_Hall           '-P 1'
loop_
_symmetry_equiv_pos_site_id
_symmetry_equiv_pos_as_xyz
1 x,y,z
2 -x,-y,-z
_cell_length_a                   9.3077(7)
_cell_length_b                   14.7251(7)
_cell_length_c                   21.4745(13)
_cell_angle_alpha                70.380(4)
_cell_angle_beta                 83.161(4)
_cell_angle_gamma                82.350(4)
_cell_volume                     2738.93
loop_
_atom_site_label
_atom_site_type_symbol
_atom_site_fract_x
_atom_site_fract_y
_atom_site_fract_z
Co1 Co -0.05634(7) -0.24290(4) 0.23699(3)
S1 S -0.25220(16) -0.51516(9) 0.40419(6)
S2 S 0.09221(18) 0.06692(9) 0.09658(7)
O1 O -0.6948(3) 0.0292(2) 0.30284(15)
O2 O -0.9592(3) 0.1367(2) 0.46597(15)
O3 O -1.1976(3) 0.16319(19) 0.27642(14)
O4 O 0.6092(3) -0.5235(2) 0.19261(15)
O5 O 0.9556(3) -0.6309(2) 0.05179(15)
O6 O 1.0986(3) -0.64065(18) 0.25995(14)
N1 N -0.1482(4) -0.3686(2) 0.29217(18)
N2 N 0.0330(4) -0.1132(2) 0.18589(18)
N3 N -0.2699(4) -0.1627(2) 0.23699(19)
N4 N -0.9791(4) 0.2257(2) 0.66888(16)
N5 N -1.6065(5) 0.2652(3) 0.1302(2)
N6 N 0.1578(4) -0.3247(2) 0.23596(17)
N7 N 1.0843(4) -0.7374(2) -0.14452(18)
N8 N 1.4132(6) -0.6819(3) 0.4439(2)
C1 C -0.8267(5) 0.0713(3) 0.3211(2)
C2 C -0.1927(5) -0.4293(3) 0.3394(2)
C3 C -0.8351(5) 0.0836(3) 0.3824(2)
H1 H -0.7529 0.0645 0.4079
C4 C 0.0592(5) -0.0404(3) 0.1484(2)
C5 C -0.9625(5) 0.1237(3) 0.4066(2)
C6 C -1.0834(5) 0.1490(3) 0.3701(2)
H2 H -1.1727 0.1751 0.3868
C7 C -1.0715(5) 0.1356(3) 0.3089(2)
C8 C -0.9453(5) 0.0984(3) 0.2822(2)
H3 H -0.9390 0.0915 0.2395
C9 C -0.6828(5) 0.0048(3) 0.2439(2)
H4 H -0.6890 0.0643 0.2047
H5 H -0.7622 -0.0341 0.2445
C10 C -0.3192(5) -0.0961(3) 0.1829(2)
H6 H -0.2613 -0.0861 0.1421
C11 C -0.4526(5) -0.0403(3) 0.1835(2)
H7 H -0.4838 0.0067 0.1437
C12 C -0.5369(5) -0.0531(3) 0.2408(2)
C13 C -0.4892(5) -0.1233(3) 0.2972(2)
H8 H -0.5472 -0.1353 0.3381
C14 C -0.3558(5) -0.1760(3) 0.2935(2)
H9 H -0.3235 -0.2238 0.3328
C15 C -1.0818(5) 0.1862(3) 0.4899(2)
H10 H -1.1070 0.2499 0.4565
H11 H -1.1664 0.1480 0.4999
C16 C -0.9609(5) 0.1405(3) 0.6608(2)
H12 H -0.9264 0.0863 0.6963
C17 C -0.9890(5) 0.1243(3) 0.6033(2)
H13 H -0.9714 0.0611 0.5999
C18 C -1.0415(5) 0.1995(3) 0.5523(2)
C19 C -1.0610(5) 0.2898(3) 0.5598(2)
H14 H -1.0965 0.3449 0.5251
C20 C -1.0288(5) 0.2989(3) 0.6172(2)
H15 H -1.0426 0.3620 0.6211
C21 C -1.1954(5) 0.1521(3) 0.2129(2)
H16 H -1.1752 0.0828 0.2169
H17 H -1.1178 0.1877 0.1826
C22 C -1.5868(6) 0.2558(4) 0.1920(3)
H18 H -1.6671 0.2751 0.2180
C23 C -1.4571(6) 0.2196(4) 0.2219(3)
H19 H -1.4500 0.2147 0.2667
C24 C -1.3407(5) 0.1915(3) 0.1857(2)
C25 C -1.3610(6) 0.1998(3) 0.1210(2)
H20 H -1.2836 0.1791 0.0943
C26 C -1.4916(6) 0.2376(4) 0.0956(3)
H21 H -1.5008 0.2445 0.0506
C27 C 0.7517(5) -0.5631(3) 0.1837(2)
C28 C 0.7885(5) -0.5791(3) 0.1240(2)
H22 H 0.7188 -0.5659 0.0924
C29 C 0.9309(5) -0.6152(3) 0.1113(2)
C30 C 1.0338(5) -0.6362(3) 0.1572(2)
H23 H 1.1302 -0.6616 0.1481
C31 C 0.9921(5) -0.6191(3) 0.2169(2)
C32 C 0.8504(5) -0.5839(3) 0.2324(2)
H24 H 0.8221 -0.5745 0.2740
C33 C 0.5720(5) -0.4978(3) 0.2508(2)
H25 H 0.6472 -0.4604 0.2568
H26 H 0.5653 -0.5567 0.2902
C34 C 0.1765(5) -0.4070(3) 0.2210(2)
H27 H 0.0955 -0.4277 0.2082
C35 C 0.3087(5) -0.4635(3) 0.2232(2)
H28 H 0.3177 -0.5204 0.2111
C36 C 0.4264(5) -0.4367(3) 0.2432(2)
C37 C 0.4091(5) -0.3527(3) 0.2588(2)
H29 H 0.4876 -0.3316 0.2730
C38 C 0.2742(5) -0.2992(3) 0.2531(2)
H30 H 0.2647 -0.2398 0.2623
C39 C 1.0986(5) -0.6595(3) 0.0306(2)
H31 H 1.1597 -0.6053 0.0202
H32 H 1.1415 -0.7150 0.0663
C40 C 0.9808(6) -0.7538(3) -0.0967(2)
H33 H 0.9016 -0.7853 -0.1009
C41 C 0.9791(5) -0.7281(3) -0.0396(2)
H34 H 0.8976 -0.7387 -0.0078
C42 C 1.0943(5) -0.6877(3) -0.0293(2)
C43 C 1.2073(5) -0.6723(3) -0.0789(2)
H35 H 1.2905 -0.6444 -0.0748
C44 C 1.1974(5) -0.6983(3) -0.1348(2)
H36 H 1.2761 -0.6875 -0.1681
C45 C 1.0591(5) -0.6208(3) 0.3209(2)
H37 H 0.9811 -0.6610 0.3464
H38 H 1.0208 -0.5519 0.3112
C46 C 1.2946(7) -0.6204(4) 0.4502(3)
H39 H 1.2899 -0.5899 0.4831
C47 C 1.1795(6) -0.6003(3) 0.4103(2)
H40 H 1.0971 -0.5581 0.4170
C48 C 1.1851(5) -0.6416(3) 0.3611(2)
C49 C 1.3079(5) -0.7033(3) 0.3546(2)
H41 H 1.3174 -0.7333 0.3213
C50 C 1.4175(6) -0.7207(4) 0.3976(3)
H42 H 1.5003 -0.7637 0.3925
Co1A Co -0.94366(7) 0.24290(4) 0.76301(3)
Co1A_2 Co 1.05634(7) -0.75710(4) -0.23699(3)
N4A N -0.0209(4) -0.2257(2) 0.33112(16)
N7A N -0.0843(4) -0.2626(2) 0.14452(18)
O7 O -0.6024(4) -0.2657(3) 0.45909(19)
C51 C -0.5741(6) -0.3409(4) 0.4303(3)
H43 H -0.4696 -0.3503 0.4183
H44 H -0.6273 -0.3232 0.3905
H45 H -0.6061 -0.4012 0.4623
O8 O -0.6366(8) -0.1695(6) 0.0337(4)
C52 C -0.5615(9) -0.1568(7) 0.0716(5)
H46 H -0.4993 -0.1053 0.0474
H47 H -0.5006 -0.2169 0.0920
H48 H -0.6236 -0.1379 0.1063
O9 O -0.4558(11) -0.5847(7) 0.9390(5)
C53 C -0.3540(12) -0.5342(9) 0.9519(6)
H49 H -0.4029 -0.4754 0.9598
H50 H -0.2820 -0.5164 0.9138
H51 H -0.3052 -0.5750 0.9912
O10 O -0.5995(12) -1.0119(9) 0.5769(5)
C54 C -0.5166(13) -0.9316(6) 0.5531(5)
H52 H -0.5818 -0.8716 0.5454
H53 H -0.4609 -0.9320 0.5115
H54 H -0.4496 -0.9356 0.5861
O11 O -0.7935(10) -0.0165(5) 0.9777(3)
loop_
_geom_bond_atom_site_label_1
_geom_bond_atom_site_label_2
_geom_bond_site_symmetry_1
_geom_bond_site_symmetry_2
Co1 N1 1_555 1_555
S1 C2 1_555 1_555
S2 C4 1_555 1_555
O1 C1 1_555 1_555
O2 C5 1_555 1_555
O3 C7 1_555 1_555
O4 C27 1_555 1_555
O5 C29 1_555 1_555
O6 C31 1_555 1_555
O7 C51 1_555 1_555
O8 C52 1_555 1_555
O9 C53 1_555 1_555
O10 C54 1_555 1_555
N1 C2 1_555 1_555
N2 Co1 1_555 1_555
N3 Co1 1_555 1_555
N4 C16 1_555 1_555
N5 C22 1_555 1_555
N6 Co1 1_555 1_555
N7 C40 1_555 1_555
N8 C46 1_555 1_555
C1 C3 1_555 1_555
C3 H1 1_555 1_555
C4 N2 1_555 1_555
C5 C3 1_555 1_555
C6 C5 1_555 1_555
H2 C6 1_555 1_555
C7 C6 1_555 1_555
C8 C1 1_555 1_555
H3 C8 1_555 1_555
C9 O1 1_555 1_555
H4 C9 1_555 1_555
H5 C9 1_555 1_555
C10 N3 1_555 1_555
H6 C10 1_555 1_555
C11 C10 1_555 1_555
H7 C11 1_555 1_555
C12 C9 1_555 1_555
C13 C12 1_555 1_555
H8 C13 1_555 1_555
C14 N3 1_555 1_555
H9 C14 1_555 1_555
C15 O2 1_555 1_555
H10 C15 1_555 1_555
H11 C15 1_555 1_555
C16 H12 1_555 1_555
C17 C16 1_555 1_555
H13 C17 1_555 1_555
C18 C15 1_555 1_555
C19 C18 1_555 1_555
H14 C19 1_555 1_555
C20 N4 1_555 1_555
H15 C20 1_555 1_555
C21 O3 1_555 1_555
H16 C21 1_555 1_555
H17 C21 1_555 1_555
C22 H18 1_555 1_555
C23 C22 1_555 1_555
H19 C23 1_555 1_555
C24 C21 1_555 1_555
C25 C24 1_555 1_555
H20 C25 1_555 1_555
C26 N5 1_555 1_555
H21 C26 1_555 1_555
C27 C28 1_555 1_555
C28 H22 1_555 1_555
C29 C28 1_555 1_555
C30 C29 1_555 1_555
H23 C30 1_555 1_555
C31 C30 1_555 1_555
C32 C27 1_555 1_555
H24 C32 1_555 1_555
C33 O4 1_555 1_555
H25 C33 1_555 1_555
H26 C33 1_555 1_555
C34 N6 1_555 1_555
H27 C34 1_555 1_555
C35 C34 1_555 1_555
H28 C35 1_555 1_555
C36 C33 1_555 1_555
C37 C36 1_555 1_555
H29 C37 1_555 1_555
C38 N6 1_555 1_555
H30 C38 1_555 1_555
C39 O5 1_555 1_555
H31 C39 1_555 1_555
H32 C39 1_555 1_555
C40 H33 1_555 1_555
C41 C40 1_555 1_555
H34 C41 1_555 1_555
C42 C39 1_555 1_555
C43 C42 1_555 1_555
H35 C43 1_555 1_555
C44 N7 1_555 1_555
H36 C44 1_555 1_555
C45 O6 1_555 1_555
H37 C45 1_555 1_555
H38 C45 1_555 1_555
C46 H39 1_555 1_555
C47 C46 1_555 1_555
H40 C47 1_555 1_555
C48 C45 1_555 1_555
C49 C48 1_555 1_555
H41 C49 1_555 1_555
C50 N8 1_555 1_555
H42 C50 1_555 1_555
C51 H43 1_555 1_555
H44 C51 1_555 1_555
H45 C51 1_555 1_555
C52 H46 1_555 1_555
H47 C52 1_555 1_555
H48 C52 1_555 1_555
C53 H49 1_555 1_555
H50 C53 1_555 1_555
H51 C53 1_555 1_555
C54 H52 1_555 1_555
H53 C54 1_555 1_555
H54 C54 1_555 1_555
Co1A N4 1_555 1_555
Co1A_2 N7 1_555 1_555
N4A Co1 1_555 1_555
N7A Co1 1_555 1_555
C7 C8 1_555 1_555
C11 C12 1_555 1_555
C13 C14 1_555 1_555
C17 C18 1_555 1_555
C19 C20 1_555 1_555
C23 C24 1_555 1_555
C25 C26 1_555 1_555
C31 C32 1_555 1_555
C35 C36 1_555 1_555
C37 C38 1_555 1_555
C41 C42 1_555 1_555
C43 C44 1_555 1_555
C47 C48 1_555 1_555
C49 C50 1_555 1_555

#END
