
#######################################################################
#
#                 Cambridge Crystallographic Data Centre
#                                CCDC 
#
#######################################################################
#
# If this CIF has been generated from an entry in the Cambridge 
# Structural Database, then it will include bibliographic, chemical, 
# crystal, experimental, refinement or atomic coordinate data resulting 
# from the CCDC's data processing and validation procedures.
#
#######################################################################

data_LEKGOY
_symmetry_cell_setting           orthorhombic
_symmetry_space_group_name_H-M   'P 21 21 21'
_symmetry_Int_Tables_number      19
_space_group_name_Hall           'P 2ac 2ab'
loop_
_symmetry_equiv_pos_site_id
_symmetry_equiv_pos_as_xyz
1 x,y,z
2 1/2-x,-y,1/2+z
3 1/2+x,1/2-y,-z
4 -x,1/2+y,1/2-z
_cell_length_a                   7.0125(16)
_cell_length_b                   14.076(3)
_cell_length_c                   15.215(4)
_cell_angle_alpha                90
_cell_angle_beta                 90
_cell_angle_gamma                90
_cell_volume                     1501.84
loop_
_atom_site_label
_atom_site_type_symbol
_atom_site_fract_x
_atom_site_fract_y
_atom_site_fract_z
Pb1 Pb 0.13389(3) -0.304680(14) 0.445170(13)
O1 O 0.3892(7) -0.1110(3) 0.4434(3)
O2 O 0.2058(8) -0.1832(3) 0.3447(4)
O3 O 0.4828(5) 0.1716(3) 0.0439(3)
O4 O 0.2199(5) 0.2396(3) 0.0970(3)
O5 O 0.1396(10) -0.4468(5) 0.3290(4)
N1 N 0.1615(8) -0.4506(4) 0.1775(5)
C1 C 0.3065(8) -0.1150(5) 0.3709(5)
C2 C 0.3278(8) -0.0343(4) 0.3059(4)
C3 C 0.3417(9) -0.0566(4) 0.2187(4)
H1 H 0.3393 -0.1202 0.2021
C4 C 0.3596(8) 0.0134(4) 0.1533(4)
H2 H 0.3770 -0.0043 0.0949
C5 C 0.3513(7) 0.1083(3) 0.1757(4)
C6 C 0.3525(8) 0.1789(3) 0.1009(4)
C7 C 0.3360(7) 0.1359(4) 0.2643(4)
C8 C 0.3284(9) 0.2324(4) 0.2911(4)
H3 H 0.3284 0.2797 0.2485
C9 C 0.3210(10) 0.2572(5) 0.3766(5)
H4 H 0.3158 0.3211 0.3921
C10 C 0.3213(10) 0.1872(5) 0.4425(5)
H5 H 0.3188 0.2050 0.5014
C11 C 0.3251(9) 0.0945(5) 0.4207(4)
H6 H 0.3238 0.0493 0.4652
C12 C 0.3311(7) 0.0636(4) 0.3320(4)
C13 C 0.1429(12) -0.4912(6) 0.2586(7)
H7 H 0.1320 -0.5570 0.2612
C14 C 0.1641(13) -0.5065(7) 0.1016(6)
H8 H 0.1408 -0.5716 0.1170
H9 H 0.2865 -0.5012 0.0738
H10 H 0.0668 -0.4850 0.0620
C15 C 0.1741(11) -0.3497(6) 0.1776(8)
H11 H 0.1772 -0.3271 0.2371
H12 H 0.0652 -0.3236 0.1480
H13 H 0.2883 -0.3305 0.1478
Pb1B Pb 0.63389(3) -0.195320(14) 0.554830(13)
Pb1C Pb 0.86611(3) 0.195320(14) 0.054830(13)
Pb1A Pb 0.36611(3) 0.304680(14) -0.054830(13)
Pb1C_2 Pb -0.13389(3) 0.195320(14) 0.054830(13)
O1B O -0.1108(7) -0.3890(3) 0.5566(3)
O3C O 0.5172(5) -0.3284(3) 0.4561(3)
O3A O 0.0172(5) -0.1716(3) 0.5439(3)
O4A O 0.2801(5) -0.2396(3) 0.5970(3)
O4C O -0.2199(5) -0.2604(3) 0.4030(3)
loop_
_geom_bond_atom_site_label_1
_geom_bond_atom_site_label_2
_geom_bond_site_symmetry_1
_geom_bond_site_symmetry_2
Pb1 O2 1_555 1_555
O1 C1 1_555 1_555
O2 C1 1_555 1_555
O3 C6 1_555 1_555
O4 C6 1_555 1_555
O5 Pb1 1_555 1_555
N1 C13 1_555 1_555
C1 C2 1_555 1_555
C2 C3 1_555 1_555
C3 H1 1_555 1_555
C4 C3 1_555 1_555
H2 C4 1_555 1_555
C5 C4 1_555 1_555
C6 C5 1_555 1_555
C7 C5 1_555 1_555
C8 C7 1_555 1_555
H3 C8 1_555 1_555
C9 C8 1_555 1_555
H4 C9 1_555 1_555
C10 C9 1_555 1_555
H5 C10 1_555 1_555
C11 C10 1_555 1_555
H6 C11 1_555 1_555
C12 C2 1_555 1_555
C13 O5 1_555 1_555
H7 C13 1_555 1_555
C14 N1 1_555 1_555
H8 C14 1_555 1_555
H9 C14 1_555 1_555
H10 C14 1_555 1_555
C15 N1 1_555 1_555
H11 C15 1_555 1_555
H12 C15 1_555 1_555
H13 C15 1_555 1_555
Pb1B O1 1_555 1_555
Pb1C O3 1_555 1_555
Pb1A O3 1_555 1_555
Pb1C_2 O4 1_555 1_555
O1B Pb1 1_555 1_555
O3C Pb1 1_555 1_555
O3A Pb1 1_555 1_555
O4A Pb1 1_555 1_555
O4C Pb1 1_555 1_555
O4 Pb1A 1_555 1_555
C7 C12 1_555 1_555
C11 C12 1_555 1_555
Pb1B O3C 1_555 1_555
Pb1B O4A 1_555 1_555

#END
