
#######################################################################
#
#                 Cambridge Crystallographic Data Centre
#                                CCDC 
#
#######################################################################
#
# If this CIF has been generated from an entry in the Cambridge 
# Structural Database, then it will include bibliographic, chemical, 
# crystal, experimental, refinement or atomic coordinate data resulting 
# from the CCDC's data processing and validation procedures.
#
#######################################################################

data_LEKGOY01
_symmetry_cell_setting           orthorhombic
_symmetry_space_group_name_H-M   'P 21 21 21'
_symmetry_Int_Tables_number      19
_space_group_name_Hall           'P 2ac 2ab'
loop_
_symmetry_equiv_pos_site_id
_symmetry_equiv_pos_as_xyz
1 x,y,z
2 1/2-x,-y,1/2+z
3 -x,1/2+y,1/2-z
4 1/2+x,1/2-y,-z
_cell_length_a                   6.9810(5)
_cell_length_b                   13.4564(9)
_cell_length_c                   15.7561(10)
_cell_angle_alpha                90
_cell_angle_beta                 90
_cell_angle_gamma                90
_cell_volume                     1480.11
loop_
_atom_site_label
_atom_site_type_symbol
_atom_site_fract_x
_atom_site_fract_y
_atom_site_fract_z
Pb1 Pb 0.19363(2) 0.680666(11) 0.464000(11)
O1 O 0.0722(5) 0.8503(2) 0.5215(2)
O2 O 0.3390(5) 0.8021(2) 0.5882(2)
O3 O 0.0645(7) 1.1472(3) 0.9036(3)
O4 O 0.2592(6) 1.2446(3) 0.8304(3)
O5 O 0.1690(7) 0.5200(3) 0.3772(3)
N1 N 0.1403(7) 0.4492(4) 0.2480(4)
C1 C 0.1542(8) 1.1675(4) 0.8369(4)
C2 C 0.1511(6) 1.0946(4) 0.7646(3)
C3 C 0.1661(7) 1.1216(4) 0.6774(3)
C4 C 0.1668(9) 1.2223(4) 0.6488(4)
H1 H 0.1592 1.2733 0.6885
C5 C 0.1783(12) 1.2452(4) 0.5660(5)
H2 H 0.1776 1.3114 0.5492
C6 C 0.1915(12) 1.1689(5) 0.5042(4)
H3 H 0.2000 1.1848 0.4469
C7 C 0.1916(9) 1.0729(4) 0.5293(4)
H4 H 0.2020 1.0233 0.4885
C8 C 0.1763(7) 1.0456(3) 0.6156(3)
C9 C 0.1774(7) 0.9445(3) 0.6414(3)
C10 C 0.1980(8) 0.8611(4) 0.5790(3)
C11 C 0.1595(7) 0.9220(3) 0.7257(3)
H5 H 0.1597 0.8558 0.7424
C12 C 0.1411(7) 0.9957(4) 0.7868(3)
H6 H 0.1218 0.9782 0.8432
C13 C 0.1480(9) 0.5252(5) 0.2997(5)
H7 H 0.1367 0.5883 0.2760
C14 C 0.1594(10) 0.3501(5) 0.2787(7)
H8 H 0.2834 0.3248 0.2637
H9 H 0.0621 0.3090 0.2537
H10 H 0.1455 0.3497 0.3393
C15 C 0.1281(11) 0.4645(7) 0.1559(5)
H11 H 0.0756 0.5291 0.1446
H12 H 0.0470 0.4145 0.1314
H13 H 0.2538 0.4599 0.1316
Pb1C Pb -0.30637(2) 0.819334(11) 0.536000(11)
Pb1C_2 Pb 0.69363(2) 0.819334(11) 0.536000(11)
Pb1B Pb -0.19363(2) 1.180666(11) 1.036000(11)
Pb1A Pb 0.30637(2) 1.319334(11) 0.964000(11)
O1C O 0.5722(5) 0.6497(2) 0.4785(2)
O2C O -0.1610(5) 0.6979(2) 0.4118(2)
O3B O -0.0645(7) 0.6472(3) 0.5964(3)
O4A O 0.2408(6) 0.7554(3) 0.3304(3)
loop_
_geom_bond_atom_site_label_1
_geom_bond_atom_site_label_2
_geom_bond_site_symmetry_1
_geom_bond_site_symmetry_2
Pb1 O1 1_555 1_555
O1 C10 1_555 1_555
O2 Pb1 1_555 1_555
O3 C1 1_555 1_555
O4 C1 1_555 1_555
O5 Pb1 1_555 1_555
N1 C13 1_555 1_555
C1 C2 1_555 1_555
C2 C3 1_555 1_555
C3 C4 1_555 1_555
C4 H1 1_555 1_555
C5 C4 1_555 1_555
H2 C5 1_555 1_555
C6 C5 1_555 1_555
H3 C6 1_555 1_555
C7 C6 1_555 1_555
H4 C7 1_555 1_555
C8 C3 1_555 1_555
C9 C8 1_555 1_555
C10 O2 1_555 1_555
C11 C9 1_555 1_555
H5 C11 1_555 1_555
C12 C2 1_555 1_555
H6 C12 1_555 1_555
C13 O5 1_555 1_555
H7 C13 1_555 1_555
C14 N1 1_555 1_555
H8 C14 1_555 1_555
H9 C14 1_555 1_555
H10 C14 1_555 1_555
C15 N1 1_555 1_555
H11 C15 1_555 1_555
H12 C15 1_555 1_555
H13 C15 1_555 1_555
Pb1C O1 1_555 1_555
Pb1C_2 O2 1_555 1_555
Pb1B O3 1_555 1_555
Pb1A O4 1_555 1_555
O1C Pb1 1_555 1_555
O2C Pb1 1_555 1_555
O3B Pb1 1_555 1_555
O4A Pb1 1_555 1_555
C7 C8 1_555 1_555
C9 C10 1_555 1_555
C11 C12 1_555 1_555
Pb1C O2C 1_555 1_555
Pb1C_2 O1C 1_555 1_555

#END
