
#######################################################################
#
#                 Cambridge Crystallographic Data Centre
#                                CCDC 
#
#######################################################################
#
# If this CIF has been generated from an entry in the Cambridge 
# Structural Database, then it will include bibliographic, chemical, 
# crystal, experimental, refinement or atomic coordinate data resulting 
# from the CCDC's data processing and validation procedures.
#
#######################################################################

data_LEKHUG
_symmetry_cell_setting           monoclinic
_symmetry_space_group_name_H-M   'C 2/c'
_symmetry_Int_Tables_number      15
_space_group_name_Hall           '-C 2yn'
loop_
_symmetry_equiv_pos_site_id
_symmetry_equiv_pos_as_xyz
1 x,y,z
2 -x,y,1/2-z
3 1/2+x,1/2+y,z
4 1/2-x,1/2+y,1/2-z
5 -x,-y,-z
6 x,-y,1/2+z
7 1/2-x,1/2-y,-z
8 1/2+x,1/2-y,1/2+z
_cell_length_a                   13.1008(12)
_cell_length_b                   9.8330(9)
_cell_length_c                   19.4152(17)
_cell_angle_alpha                90
_cell_angle_beta                 94.2360(10)
_cell_angle_gamma                90
_cell_volume                     2494.24
loop_
_atom_site_label
_atom_site_type_symbol
_atom_site_fract_x
_atom_site_fract_y
_atom_site_fract_z
Co1 Co 0.98059(2) 0.07379(3) 0.413438(16)
Cl1 Cl 0.89362(5) 0.09007(6) 0.51760(3)
O1 O 1.04756(12) -0.02316(17) 0.32488(8)
O2 O 0.90908(14) -0.10458(18) 0.36551(10)
N1 N 0.86857(16) 0.1897(2) 0.35704(11)
N2 N 0.74100(18) 0.3287(3) 0.33070(13)
N3 N 1.08326(16) 0.2298(2) 0.42993(11)
N4 N 1.2213(2) 0.3522(3) 0.42668(16)
C1 C 0.97997(18) -0.1143(2) 0.32553(11)
C2 C 0.9873(2) -0.2403(2) 0.28307(13)
C3 C 0.9778(4) -0.3684(3) 0.32350(18)
H1 H 0.9065 -0.3823 0.3321
H2 H 1.0164 -0.3589 0.3678
C4 C 1.0165(5) -0.4921(3) 0.28643(19)
H3 H 1.0907 -0.4936 0.2917
H4 H 0.9917 -0.5738 0.3076
C5 C 0.8534(2) 0.2006(3) 0.28652(15)
H5 H 0.8917 0.1561 0.2550
C6 C 0.7749(3) 0.2851(4) 0.26997(16)
H6 H 0.7489 0.3091 0.2258
C7 C 0.7972(2) 0.2678(3) 0.38121(14)
H7 H 0.7877 0.2787 0.4279
C8 C 1.0713(3) 0.3490(3) 0.46483(19)
H8 H 1.0135 0.3736 0.4870
C9 C 1.1563(3) 0.4246(3) 0.4620(2)
H9 H 1.1676 0.5106 0.4810
C10 C 1.1753(2) 0.2366(3) 0.40882(15)
H10 H 1.2050 0.1680 0.3841
H11 H 0.6888(16) 0.377(3) 0.3320(17)
H12 H 1.269(3) 0.372(4) 0.415(2)
Co1A Co 1.01941(2) 0.07379(3) 0.086562(16)
Co1D Co 1.01941(2) -0.07379(3) 0.586562(16)
Co1E Co 0.98059(2) -0.07379(3) -0.086562(16)
Cl1A Cl 1.10638(5) 0.09007(6) -0.01760(3)
Cl1D Cl 1.10638(5) -0.09007(6) 0.48240(3)
Cl1E Cl 0.89362(5) -0.09007(6) 0.01760(3)
O1A O 0.95244(12) -0.02316(17) 0.17512(8)
O2A O 1.09092(14) -0.10458(18) 0.13449(10)
N1A N 1.13143(16) 0.1897(2) 0.14296(11)
N2A N 1.25900(18) 0.3287(3) 0.16930(13)
N3A N 0.91674(16) 0.2298(2) 0.07007(11)
N4A N 0.7787(2) 0.3522(3) 0.07332(16)
C1A C 1.02003(18) -0.1143(2) 0.17447(11)
C2A C 1.0127(2) -0.2403(2) 0.21693(13)
C3A C 1.0222(4) -0.3684(3) 0.17650(18)
H1A H 1.0935 -0.3823 0.1679
H2A H 0.9836 -0.3589 0.1322
C4A C 0.9835(5) -0.4921(3) 0.21357(19)
H3A H 0.9093 -0.4936 0.2083
H4A H 1.0083 -0.5738 0.1924
C5A C 1.1466(2) 0.2006(3) 0.21348(15)
H5A H 1.1083 0.1561 0.2450
C6A C 1.2251(3) 0.2851(4) 0.23003(16)
H6A H 1.2511 0.3091 0.2742
C7A C 1.2028(2) 0.2678(3) 0.11879(14)
H7A H 1.2123 0.2787 0.0721
C8A C 0.9287(3) 0.3490(3) 0.03517(19)
H8A H 0.9865 0.3736 0.0130
C9A C 0.8437(3) 0.4246(3) 0.0380(2)
H9A H 0.8324 0.5106 0.0190
C10A C 0.8247(2) 0.2366(3) 0.09118(15)
H10A H 0.7950 0.1680 0.1159
H11A H 1.3112(16) 0.377(3) 0.1680(17)
H12A H 0.731(3) 0.372(4) 0.085(2)
loop_
_geom_bond_atom_site_label_1
_geom_bond_atom_site_label_2
_geom_bond_site_symmetry_1
_geom_bond_site_symmetry_2
Co1 Cl1 1_555 1_555
Cl1 Co1D 1_555 1_555
O1 Co1 1_555 1_555
O2 Co1 1_555 1_555
N1 Co1 1_555 1_555
N2 C6 1_555 1_555
N3 Co1 1_555 1_555
N4 C9 1_555 1_555
C1 O1 1_555 1_555
C2 C1 1_555 1_555
C3 C2 1_555 1_555
H1 C3 1_555 1_555
H2 C3 1_555 1_555
C4 C3 1_555 1_555
H3 C4 1_555 1_555
H4 C4 1_555 1_555
C5 N1 1_555 1_555
H5 C5 1_555 1_555
C6 C5 1_555 1_555
H6 C6 1_555 1_555
C7 N1 1_555 1_555
H7 C7 1_555 1_555
C8 N3 1_555 1_555
H8 C8 1_555 1_555
C9 C8 1_555 1_555
H9 C9 1_555 1_555
C10 N3 1_555 1_555
H10 C10 1_555 1_555
H11 N2 1_555 1_555
H12 N4 1_555 1_555
Co1A Cl1A 1_555 1_555
Co1D Cl1D 1_555 1_555
Co1E Cl1A 1_555 1_555
Cl1D Co1 1_555 1_555
Cl1E Co1A 1_555 1_555
O1A Co1A 1_555 1_555
O2A Co1A 1_555 1_555
N1A Co1A 1_555 1_555
N2A C6A 1_555 1_555
N3A Co1A 1_555 1_555
N4A C9A 1_555 1_555
C1A O1A 1_555 1_555
C2A C2 1_555 1_555
C3A C2A 1_555 1_555
H1A C3A 1_555 1_555
H2A C3A 1_555 1_555
C4A C4 1_555 1_555
H3A C4A 1_555 1_555
H4A C4A 1_555 1_555
C5A N1A 1_555 1_555
H5A C5A 1_555 1_555
C6A C5A 1_555 1_555
H6A C6A 1_555 1_555
C7A N1A 1_555 1_555
H7A C7A 1_555 1_555
C8A N3A 1_555 1_555
H8A C8A 1_555 1_555
C9A C8A 1_555 1_555
H9A C9A 1_555 1_555
C10A N3A 1_555 1_555
H10A C10A 1_555 1_555
H11A N2A 1_555 1_555
H12A N4A 1_555 1_555
O2 C1 1_555 1_555
N2 C7 1_555 1_555
N4 C10 1_555 1_555
Co1E Cl1E 1_555 1_555
O2A C1A 1_555 1_555
N2A C7A 1_555 1_555
N4A C10A 1_555 1_555
C1A C2A 1_555 1_555
C3A C4A 1_555 1_555

#END
