
#######################################################################
#
#                 Cambridge Crystallographic Data Centre
#                                CCDC 
#
#######################################################################
#
# If this CIF has been generated from an entry in the Cambridge 
# Structural Database, then it will include bibliographic, chemical, 
# crystal, experimental, refinement or atomic coordinate data resulting 
# from the CCDC's data processing and validation procedures.
#
#######################################################################

data_LEKJAO
_symmetry_cell_setting           triclinic
_symmetry_space_group_name_H-M   'P -1'
_symmetry_Int_Tables_number      2
_space_group_name_Hall           '-P 1'
loop_
_symmetry_equiv_pos_site_id
_symmetry_equiv_pos_as_xyz
1 x,y,z
2 -x,-y,-z
_cell_length_a                   7.2601(5)
_cell_length_b                   7.9312(5)
_cell_length_c                   9.9686(7)
_cell_angle_alpha                84.7960(10)
_cell_angle_beta                 84.6270(10)
_cell_angle_gamma                85.9490(10)
_cell_volume                     568.008
loop_
_atom_site_label
_atom_site_type_symbol
_atom_site_fract_x
_atom_site_fract_y
_atom_site_fract_z
Co1 Co 0.30052(3) 0.42481(2) 0.45385(2)
O1 O 0.49702(16) 0.59700(16) 0.38262(12)
O2 O 0.53072(19) 0.37293(16) 0.26533(14)
O3 O 0.86722(15) 0.44959(14) 0.40517(11)
O4 O 1.14273(16) 0.50626(16) 0.30068(12)
N1 N 0.2639(2) 0.17335(17) 0.48577(15)
N2 N 0.2739(2) -0.0954(2) 0.55788(19)
C1 C 0.7002(2) 0.6154(2) 0.18219(16)
C2 C 0.8816(2) 0.6164(2) 0.19207(16)
C3 C 0.6005(3) 0.7196(3) 0.0730(2)
C4 C 0.7192(3) 0.8565(3) 0.0005(2)
C5 C 0.9139(3) 0.7832(3) -0.0354(2)
C6 C 1.0084(3) 0.7149(3) 0.0900(2)
C7 C 0.5723(2) 0.5175(2) 0.28261(17)
C8 C 0.9690(2) 0.51773(19) 0.30773(16)
C9 C 0.2038(3) 0.0810(2) 0.3897(2)
C10 C 0.2095(3) -0.0848(3) 0.4333(2)
C11 C 0.3055(3) 0.0610(2) 0.58534(19)
H1 H 0.570(3) 0.646(3) 0.009(2)
H2 H 0.484(4) 0.774(3) 0.115(2)
H3 H 0.666(3) 0.905(3) -0.081(2)
H4 H 0.722(4) 0.952(3) 0.061(3)
H5 H 0.907(4) 0.692(3) -0.095(3)
H6 H 0.992(3) 0.867(3) -0.087(2)
H7 H 1.047(4) 0.801(4) 0.135(3)
H8 H 1.115(3) 0.645(3) 0.061(2)
H9 H 0.170(3) 0.128(3) 0.314(3)
H10 H 0.185(4) -0.176(4) 0.397(3)
H11 H 0.357(3) 0.083(3) 0.662(2)
H12 H 0.296(3) -0.181(3) 0.608(2)
Co1A Co 0.69948(3) 0.57519(2) 0.54615(2)
Co1_2 Co 1.30052(3) 0.42481(2) 0.45385(2)
O1A O 0.50298(16) 0.40300(16) 0.61738(12)
O3A O 0.13278(15) 0.55041(14) 0.59483(11)
O4_2 O 0.14273(16) 0.50626(16) 0.30068(12)
loop_
_geom_bond_atom_site_label_1
_geom_bond_atom_site_label_2
_geom_bond_site_symmetry_1
_geom_bond_site_symmetry_2
Co1 O1 1_555 1_555
O1 C7 1_555 1_555
O2 Co1 1_555 1_555
O3 C8 1_555 1_555
O4 C8 1_555 1_555
N1 Co1 1_555 1_555
N2 C10 1_555 1_555
C1 C2 1_555 1_555
C2 C6 1_555 1_555
C3 C1 1_555 1_555
C4 C3 1_555 1_555
C5 C4 1_555 1_555
C6 C5 1_555 1_555
C7 O2 1_555 1_555
C8 C2 1_555 1_555
C9 N1 1_555 1_555
C10 C9 1_555 1_555
C11 N1 1_555 1_555
H1 C3 1_555 1_555
H2 C3 1_555 1_555
H3 C4 1_555 1_555
H4 C4 1_555 1_555
H5 C5 1_555 1_555
H6 C5 1_555 1_555
H7 C6 1_555 1_555
H8 C6 1_555 1_555
H9 C9 1_555 1_555
H10 C10 1_555 1_555
H11 C11 1_555 1_555
H12 N2 1_555 1_555
Co1A O1 1_555 1_555
Co1_2 O4 1_555 1_555
O1A Co1 1_555 1_555
O3A Co1 1_555 1_555
O4_2 Co1 1_555 1_555
O3 Co1A 1_555 1_555
N2 C11 1_555 1_555
C1 C7 1_555 1_555
Co1A O1A 1_555 1_555

#END
