
#######################################################################
#
#                 Cambridge Crystallographic Data Centre
#                                CCDC 
#
#######################################################################
#
# If this CIF has been generated from an entry in the Cambridge 
# Structural Database, then it will include bibliographic, chemical, 
# crystal, experimental, refinement or atomic coordinate data resulting 
# from the CCDC's data processing and validation procedures.
#
#######################################################################

data_LEKTOM
_symmetry_cell_setting           triclinic
_symmetry_space_group_name_H-M   'P -1'
_symmetry_Int_Tables_number      2
_space_group_name_Hall           '-P 1'
loop_
_symmetry_equiv_pos_site_id
_symmetry_equiv_pos_as_xyz
1 x,y,z
2 -x,-y,-z
_cell_length_a                   7.2946(2)
_cell_length_b                   13.3456(4)
_cell_length_c                   20.1964(6)
_cell_angle_alpha                100.91
_cell_angle_beta                 91.88
_cell_angle_gamma                105.07
_cell_volume                     1857.22
loop_
_atom_site_label
_atom_site_type_symbol
_atom_site_fract_x
_atom_site_fract_y
_atom_site_fract_z
Cu1 Cu 0.74711(4) 0.49279(2) 0.260334(14)
Cu2 Cu 1.04891(4) 0.59929(2) 0.401120(14)
Cu3 Cu 0.48944(4) 0.38902(2) 0.108943(14)
Cu4 Cu 1.24372(4) 1.01236(2) 0.751277(14)
S1 S 1.46373(8) 1.21704(4) 0.40008(3)
S2 S 0.03891(8) -0.23247(5) 0.08715(3)
O1 O 1.1099(2) 0.75150(13) 0.43854(8)
O2 O 1.0134(3) 0.81124(13) 0.35061(8)
O3 O 1.2777(2) 1.01029(13) 0.65598(8)
O4 O 1.4540(3) 1.17489(13) 0.65639(8)
O5 O 1.6691(2) 1.23825(13) 0.41390(8)
O6 O 1.3960(2) 1.30952(13) 0.42620(9)
O7 O 1.3979(2) 1.17353(13) 0.32877(8)
O8 O 0.5088(3) 0.16992(13) 0.15254(8)
O9 O 0.4311(3) 0.24008(13) 0.06696(9)
O10 O 0.2065(2) 0.01154(13) -0.15394(8)
O11 O 0.0334(3) -0.15545(14) -0.16149(9)
O12 O -0.1670(2) -0.25313(14) 0.07542(9)
O13 O 0.1069(3) -0.32128(14) 0.05529(9)
O14 O 0.1065(2) -0.19694(13) 0.15939(8)
O15 O 1.3048(2) 0.62488(14) 0.33431(9)
H1 H 1.3741 0.5822 0.3306
H2 H 1.3824 0.6863 0.3439
O16 O 1.2024(3) 0.59255(14) 0.48124(9)
H3 H 1.2544 0.6431 0.5142
H4 H 1.2301 0.5385 0.4905
O17 O 0.8411(2) 0.60036(13) 0.34068(8)
H5 H 0.8728 0.6651 0.3376
O18 O 0.6751(2) 0.38593(13) 0.17809(8)
H6 H 0.6325 0.3210 0.1801
O19 O 0.6941(3) 0.43134(17) 0.02942(10)
H7 H 0.7689 0.3953 0.0135
H8 H 0.7392 0.4923 0.0205
O20 O 0.2847(3) 0.40066(14) 0.04382(9)
H9 H 0.1798 0.3997 0.0612
H10 H 0.2591 0.3470 0.0114
O21 O 1.0253(2) 1.07082(13) 0.74117(8)
H11 H 0.9987 1.1092 0.7761
H12 H 1.0190 1.1038 0.7094
O22 O 1.4605(2) 0.95463(13) 0.76210(8)
H13 H 1.4595 0.9204 0.7936
H14 H 1.4870 0.9156 0.7274
N1 N 0.6342(3) 0.58359(16) 0.21308(10)
N2 N 0.5283(3) 0.54189(16) 0.15114(10)
N3 N 0.5489(3) 0.70943(15) 0.17845(10)
N4 N 0.5392(3) 0.81309(16) 0.17726(10)
H15 H 0.4171 0.8157 0.1756
H16 H 0.5961 0.8269 0.1399
N5 N 0.9845(3) 0.44129(16) 0.36393(10)
N6 N 0.8788(3) 0.40372(16) 0.30164(10)
N7 N 0.9737(3) 0.27565(15) 0.32920(10)
N8 N 0.9834(3) 0.17079(15) 0.32476(10)
H17 H 1.1027 0.1641 0.3219
H18 H 0.9274 0.1461 0.3597
C1 C 0.4801(3) 0.61974(19) 0.13130(13)
H19 H 0.4078 0.6141 0.0901
C2 C 0.6440(3) 0.68409(19) 0.22796(12)
H20 H 0.7085 0.7322 0.2678
C3 C 0.8747(3) 0.30453(19) 0.28245(12)
H21 H 0.8112 0.2593 0.2415
C4 C 1.0383(3) 0.36221(18) 0.37967(12)
H22 H 1.1114 0.3649 0.4201
C5 C 1.1960(3) 0.93626(18) 0.44556(12)
C6 C 1.2289(3) 0.95851(19) 0.51558(12)
H23 H 1.1874 0.9035 0.5399
C7 C 1.3223(3) 1.06068(19) 0.55071(12)
C8 C 1.3888(3) 1.14036(19) 0.51502(12)
H24 H 1.4542 1.2100 0.5383
C9 C 1.3584(3) 1.11683(18) 0.44460(12)
C10 C 1.2608(3) 1.01656(19) 0.40953(12)
H25 H 1.2380 1.0024 0.3616
C11 C 1.0978(3) 0.82472(18) 0.40777(12)
C12 C 1.3569(3) 1.08605(19) 0.62713(12)
C13 C 0.3184(3) 0.05568(19) 0.05480(12)
C14 C 0.2780(3) 0.04338(19) -0.01452(12)
H26 H 0.3227 0.1019 -0.0357
C15 C 0.1726(3) -0.05392(19) -0.05318(12)
C16 C 0.1028(3) -0.13872(19) -0.02149(12)
H27 H 0.0298 -0.2053 -0.0471
C17 C 0.1411(3) -0.12481(19) 0.04807(12)
C18 C 0.2500(3) -0.02891(19) 0.08655(12)
H28 H 0.2775 -0.0212 0.1338
C19 C 0.4293(3) 0.16294(19) 0.09518(12)
C20 C 0.1311(3) -0.06924(19) -0.12872(12)
O23 O 0.4472(3) 0.44264(14) 0.31588(9)
H29 H 0.3660 0.3983 0.2861
H30 H 0.4458 0.4130 0.3497
Cu4_2 Cu 0.24372(4) 0.01236(2) -0.248723(14)
O10_2 O 1.2065(2) 1.01154(13) 0.84606(8)
O24 O 0.6915(3) 0.55717(15) 0.46368(9)
H31 H 0.6326 0.5970 0.4868
H32 H 0.7072 0.5790 0.4268
O25 O 0.1011(3) 0.61832(17) 0.21569(10)
H33 H 0.0900 0.5544 0.1965
H34 H 0.0666 0.6469 0.1850
O26 O 0.2457(3) 0.33894(15) 0.19610(10)
H35 H 0.1764 0.3729 0.1806
H36 H 0.1816 0.2743 0.1857
O27 O -0.0275(3) 0.57101(17) 0.87037(11)
H37 H 0.0246 0.5739 0.9092
H38 H 0.0642 0.5835 0.8455
loop_
_geom_bond_atom_site_label_1
_geom_bond_atom_site_label_2
_geom_bond_site_symmetry_1
_geom_bond_site_symmetry_2
Cu1 O17 1_555 1_555
Cu2 O1 1_555 1_555
Cu3 O9 1_555 1_555
Cu4 O3 1_555 1_555
S1 O5 1_555 1_555
S2 O12 1_555 1_555
O1 C11 1_555 1_555
O2 C11 1_555 1_555
O3 C12 1_555 1_555
O4 C12 1_555 1_555
O6 S1 1_555 1_555
O7 S1 1_555 1_555
O8 C19 1_555 1_555
O9 C19 1_555 1_555
O10 C20 1_555 1_555
O11 C20 1_555 1_555
O13 S2 1_555 1_555
O14 S2 1_555 1_555
O15 Cu2 1_555 1_555
H1 O15 1_555 1_555
H2 O15 1_555 1_555
O16 Cu2 1_555 1_555
H3 O16 1_555 1_555
H4 O16 1_555 1_555
O17 Cu2 1_555 1_555
H5 O17 1_555 1_555
O18 Cu1 1_555 1_555
H6 O18 1_555 1_555
O19 Cu3 1_555 1_555
H7 O19 1_555 1_555
H8 O19 1_555 1_555
O20 Cu3 1_555 1_555
H9 O20 1_555 1_555
H10 O20 1_555 1_555
O21 Cu4 1_555 1_555
H11 O21 1_555 1_555
H12 O21 1_555 1_555
O22 Cu4 1_555 1_555
H13 O22 1_555 1_555
H14 O22 1_555 1_555
N1 Cu1 1_555 1_555
N2 Cu3 1_555 1_555
N3 N4 1_555 1_555
N4 H15 1_555 1_555
H16 N4 1_555 1_555
N5 Cu2 1_555 1_555
N6 Cu1 1_555 1_555
N7 N8 1_555 1_555
N8 H17 1_555 1_555
H18 N8 1_555 1_555
C1 N2 1_555 1_555
H19 C1 1_555 1_555
C2 N1 1_555 1_555
H20 C2 1_555 1_555
C3 N6 1_555 1_555
H21 C3 1_555 1_555
C4 N5 1_555 1_555
H22 C4 1_555 1_555
C5 C6 1_555 1_555
C6 H23 1_555 1_555
C7 C6 1_555 1_555
C8 C7 1_555 1_555
H24 C8 1_555 1_555
C9 S1 1_555 1_555
C10 C5 1_555 1_555
H25 C10 1_555 1_555
C11 C5 1_555 1_555
C12 C7 1_555 1_555
C13 C14 1_555 1_555
C14 H26 1_555 1_555
C15 C14 1_555 1_555
C16 C15 1_555 1_555
H27 C16 1_555 1_555
C17 S2 1_555 1_555
C18 C13 1_555 1_555
H28 C18 1_555 1_555
C19 C13 1_555 1_555
C20 C15 1_555 1_555
O23 Cu1 1_555 1_555
H29 O23 1_555 1_555
H30 O23 1_555 1_555
O24 H31 1_555 1_555
H32 O24 1_555 1_555
O25 H33 1_555 1_555
H34 O25 1_555 1_555
O26 H35 1_555 1_555
H36 O26 1_555 1_555
O27 H37 1_555 1_555
H38 O27 1_555 1_555
Cu4_2 O10 1_555 1_555
O10_2 Cu4 1_555 1_555
Cu3 O18 1_555 1_555
N1 N2 1_555 1_555
N3 C1 1_555 1_555
N3 C2 1_555 1_555
N5 N6 1_555 1_555
N7 C3 1_555 1_555
N7 C4 1_555 1_555
C8 C9 1_555 1_555
C9 C10 1_555 1_555
C16 C17 1_555 1_555
C17 C18 1_555 1_555

#END
