
#######################################################################
#
#                 Cambridge Crystallographic Data Centre
#                                CCDC 
#
#######################################################################
#
# If this CIF has been generated from an entry in the Cambridge 
# Structural Database, then it will include bibliographic, chemical, 
# crystal, experimental, refinement or atomic coordinate data resulting 
# from the CCDC's data processing and validation procedures.
#
#######################################################################

data_LEKTIG
_symmetry_cell_setting           monoclinic
_symmetry_space_group_name_H-M   'P 21/c'
_symmetry_Int_Tables_number      14
_space_group_name_Hall           '-P 2ybc'
loop_
_symmetry_equiv_pos_site_id
_symmetry_equiv_pos_as_xyz
1 x,y,z
2 -x,1/2+y,1/2-z
3 -x,-y,-z
4 x,1/2-y,1/2+z
_cell_length_a                   10.6101(2)
_cell_length_b                   14.2146(2)
_cell_length_c                   10.3608(2)
_cell_angle_alpha                90
_cell_angle_beta                 97.2161(11)
_cell_angle_gamma                90
_cell_volume                     1550.22
loop_
_atom_site_label
_atom_site_type_symbol
_atom_site_fract_x
_atom_site_fract_y
_atom_site_fract_z
Hg1 Hg 0.226343(14) 0.242984(10) 0.163102(15)
O1 O 0.0250(3) 0.2473(2) 0.0032(3)
O2 O 0.1904(3) 0.2920(3) -0.0825(3)
O3 O 0.0060(3) 0.2864(2) -0.1998(3)
O4 O 0.1635(3) 0.3788(2) 0.2275(3)
O5 O 0.3646(4) 0.3860(3) 0.2889(5)
O6 O 0.2423(5) 0.4994(3) 0.3356(4)
N1 N 0.2162(3) 0.0872(2) 0.1535(3)
N2 N 0.4253(3) 0.1898(2) 0.1150(3)
N3 N 0.0716(3) 0.2759(2) -0.0943(3)
N4 N 0.2601(4) 0.4230(3) 0.2860(4)
C1 C 0.3252(4) 0.0413(3) 0.1396(4)
C2 C 0.3298(4) -0.0557(3) 0.1328(4)
H1 H 0.4081 -0.0869 0.1273
C3 C 0.2191(4) -0.1068(3) 0.1341(4)
H2 H 0.2198 -0.1734 0.1264
C4 C 0.1082(5) -0.0601(3) 0.1468(5)
H3 H 0.0313 -0.0941 0.1485
C5 C 0.1094(4) 0.0375(3) 0.1570(5)
H4 H 0.0327 0.0697 0.1668
C6 C 0.4359(4) 0.1005(3) 0.1231(4)
H5 H 0.5161 0.0720 0.1184
C7 C 0.5291(4) 0.2485(3) 0.0880(4)
C8 C 0.6554(4) 0.2270(3) 0.1279(4)
H6 H 0.6770 0.1713 0.1764
C9 C 0.7494(4) 0.2867(3) 0.0972(4)
H7 H 0.8356 0.2714 0.1256
C10 C 0.7221(4) 0.3688(3) 0.0256(4)
C11 C 0.5946(4) 0.3887(3) -0.0142(5)
H8 H 0.5732 0.4439 -0.0638
C12 C 0.4978(4) 0.3303(3) 0.0162(5)
H9 H 0.4115 0.3457 -0.0114
C13 C 0.8257(5) 0.4336(3) -0.0063(5)
H10 H 0.8422 0.4226 -0.0960
H11 H 0.9032 0.4216 0.0534
H12 H 0.7991 0.4991 0.0031
Hg1C Hg 0.226343(14) 0.257016(10) -0.336898(15)
O2C O 0.1904(3) 0.2080(3) 0.4175(3)
loop_
_geom_bond_atom_site_label_1
_geom_bond_atom_site_label_2
_geom_bond_site_symmetry_1
_geom_bond_site_symmetry_2
Hg1 O1 1_555 1_555
O1 N3 1_555 1_555
O2 Hg1 1_555 1_555
O3 N3 1_555 1_555
O4 Hg1 1_555 1_555
O5 Hg1 1_555 1_555
O6 N4 1_555 1_555
N1 Hg1 1_555 1_555
N2 Hg1 1_555 1_555
N3 O2 1_555 1_555
N4 O4 1_555 1_555
C1 N1 1_555 1_555
C2 C1 1_555 1_555
H1 C2 1_555 1_555
C3 C2 1_555 1_555
H2 C3 1_555 1_555
C4 C3 1_555 1_555
H3 C4 1_555 1_555
C5 N1 1_555 1_555
H4 C5 1_555 1_555
C6 N2 1_555 1_555
H5 C6 1_555 1_555
C7 N2 1_555 1_555
C8 C7 1_555 1_555
H6 C8 1_555 1_555
C9 C8 1_555 1_555
H7 C9 1_555 1_555
C10 C9 1_555 1_555
C11 C10 1_555 1_555
H8 C11 1_555 1_555
C12 C7 1_555 1_555
H9 C12 1_555 1_555
C13 C10 1_555 1_555
H10 C13 1_555 1_555
H11 C13 1_555 1_555
H12 C13 1_555 1_555
Hg1C O2 1_555 1_555
O2C Hg1 1_555 1_555
O5 N4 1_555 1_555
C1 C6 1_555 1_555
C4 C5 1_555 1_555
C11 C12 1_555 1_555

#END
