
#######################################################################
#
#                 Cambridge Crystallographic Data Centre
#                                CCDC 
#
#######################################################################
#
# If this CIF has been generated from an entry in the Cambridge 
# Structural Database, then it will include bibliographic, chemical, 
# crystal, experimental, refinement or atomic coordinate data resulting 
# from the CCDC's data processing and validation procedures.
#
#######################################################################

data_LEKTUS01
_symmetry_cell_setting           monoclinic
_symmetry_space_group_name_H-M   'P 21/c'
_symmetry_Int_Tables_number      14
_space_group_name_Hall           '-P 2ybc'
loop_
_symmetry_equiv_pos_site_id
_symmetry_equiv_pos_as_xyz
1 x,y,z
2 -x,1/2+y,1/2-z
3 -x,-y,-z
4 x,1/2-y,1/2+z
_cell_length_a                   7.632(5)
_cell_length_b                   8.633(5)
_cell_length_c                   24.577(5)
_cell_angle_alpha                90
_cell_angle_beta                 105.783(13)
_cell_angle_gamma                90
_cell_volume                     1558.26
loop_
_atom_site_label
_atom_site_type_symbol
_atom_site_fract_x
_atom_site_fract_y
_atom_site_fract_z
C1 C 0.2689(5) -0.2121(4) -0.16188(14)
H1 H 0.2644 -0.2268 -0.1997
C2 C 0.2441(5) -0.1089(4) -0.08395(15)
H2 H 0.2193 -0.0391 -0.0582
C3 C 0.5995(4) 0.1708(4) -0.09352(13)
C4 C 0.6565(4) 0.0304(4) -0.12073(13)
C5 C 0.7301(4) -0.0997(4) -0.08891(13)
H3 H 0.7436 -0.1021 -0.0502
C6 C 0.7830(4) -0.2261(4) -0.11602(13)
C7 C 0.7752(4) -0.2203(4) -0.17320(13)
H4 H 0.8177 -0.3030 -0.1903
C8 C 0.7031(4) -0.0895(4) -0.20464(13)
C9 C 0.7092(5) -0.0797(4) -0.26571(13)
C10 C 0.6389(5) 0.0335(4) -0.17890(13)
H5 H 0.5842 0.1179 -0.2004
N1 N 0.1361(5) 0.0525(4) -0.16845(15)
H6 H 0.0994 0.1252 -0.1503
H7 H 0.1232 0.0616 -0.2042
N2 N 0.2173(4) -0.0826(3) -0.13949(12)
N3 N 0.3262(4) -0.3134(3) -0.12136(11)
N4 N 0.3106(4) -0.2486(3) -0.07179(11)
O1 O 0.6737(3) 0.1955(3) -0.04205(9)
O2 O 0.4824(3) 0.2557(3) -0.12644(9)
O3 O 1.0047(3) -0.3442(3) -0.02644(10)
O4 O 0.7069(3) -0.4607(3) -0.06185(10)
O5 O 0.9373(4) -0.4966(3) -0.11246(11)
O6 O 0.8343(4) -0.1398(4) -0.27986(11)
O7 O 0.5760(3) -0.0046(3) -0.29977(9)
O8 O 0.3765(3) -0.5577(2) -0.04680(9)
H8 H 0.2898 -0.6407 -0.0458
S1 S 0.86758(11) -0.39616(9) -0.07642(3)
Cu1 Cu 0.40741(5) -0.52979(4) -0.122330(15)
Cu2 Cu 1.34491(6) -0.38128(5) -0.001665(16)
N4_2 N 1.3106(4) -0.2486(3) -0.07179(11)
O1B O 1.3263(3) -0.1955(3) 0.04205(9)
O2_2 O 0.4824(3) -0.7443(3) -0.12644(9)
O4B O 1.2931(3) -0.5393(3) 0.06185(10)
O6A O 0.1657(4) -0.6398(4) -0.22014(11)
O7A O 0.4240(3) -0.5046(3) -0.20023(9)
O8_2 O 1.3765(3) -0.5577(2) -0.04680(9)
O8B O 1.6235(3) -0.4423(2) 0.04680(9)
Cu1_2 Cu 0.40741(5) 0.47021(4) -0.122330(15)
Cu1A Cu 0.59259(5) -0.02979(4) -0.377670(15)
Cu2_2 Cu 0.34491(6) -0.38128(5) -0.001665(16)
Cu2B Cu 0.65509(6) -0.61872(5) 0.001665(16)
Cu2B_2 Cu 0.65509(6) 0.38128(5) 0.001665(16)
O9 O 0.2364(6) -0.1109(5) -0.27814(16)
H9 H 0.1649 -0.0335 -0.2836
H10 H 0.1780 -0.1912 -0.2929
O10 O 0.1182(4) -0.7919(3) -0.05734(12)
H11 H 0.0744 -0.8740 -0.0472
H12 H 0.0572 -0.7672 -0.0906
loop_
_geom_bond_atom_site_label_1
_geom_bond_atom_site_label_2
_geom_bond_site_symmetry_1
_geom_bond_site_symmetry_2
C1 H1 1_555 1_555
C2 H2 1_555 1_555
C3 C4 1_555 1_555
C4 C5 1_555 1_555
C5 H3 1_555 1_555
C6 C5 1_555 1_555
C7 C6 1_555 1_555
H4 C7 1_555 1_555
C8 C7 1_555 1_555
C9 C8 1_555 1_555
C10 C4 1_555 1_555
H5 C10 1_555 1_555
N1 H6 1_555 1_555
H7 N1 1_555 1_555
N2 C1 1_555 1_555
N3 C1 1_555 1_555
N4 C2 1_555 1_555
O1 C3 1_555 1_555
O2 C3 1_555 1_555
O3 S1 1_555 1_555
O4 S1 1_555 1_555
O5 S1 1_555 1_555
O6 C9 1_555 1_555
O7 C9 1_555 1_555
O8 H8 1_555 1_555
S1 C6 1_555 1_555
Cu1 N3 1_555 1_555
Cu2 O3 1_555 1_555
O9 H9 1_555 1_555
H10 O9 1_555 1_555
O10 H11 1_555 1_555
H12 O10 1_555 1_555
N4_2 Cu2 1_555 1_555
O1B Cu2 1_555 1_555
O2_2 Cu1 1_555 1_555
O4B Cu2 1_555 1_555
O6A Cu1 1_555 1_555
O7A Cu1 1_555 1_555
O8_2 Cu2 1_555 1_555
O8B Cu2 1_555 1_555
Cu1_2 O2 1_555 1_555
Cu1A O6 1_555 1_555
Cu2_2 N4 1_555 1_555
Cu2B O4 1_555 1_555
Cu2B_2 O1 1_555 1_555
C2 N2 1_555 1_555
C8 C10 1_555 1_555
N1 N2 1_555 1_555
N3 N4 1_555 1_555
O4 Cu1 1_555 1_555
O7 Cu1A 1_555 1_555
O8 Cu1 1_555 1_555
O8 Cu2_2 1_555 1_555
O8 Cu2B 1_555 1_555

#END
