
#######################################################################
#
#                 Cambridge Crystallographic Data Centre
#                                CCDC 
#
#######################################################################
#
# If this CIF has been generated from an entry in the Cambridge 
# Structural Database, then it will include bibliographic, chemical, 
# crystal, experimental, refinement or atomic coordinate data resulting 
# from the CCDC's data processing and validation procedures.
#
#######################################################################

data_LEKTUS
_symmetry_cell_setting           monoclinic
_symmetry_space_group_name_H-M   'P 21/c'
_symmetry_Int_Tables_number      14
_space_group_name_Hall           '-P 2ybc'
loop_
_symmetry_equiv_pos_site_id
_symmetry_equiv_pos_as_xyz
1 x,y,z
2 -x,1/2+y,1/2-z
3 -x,-y,-z
4 x,1/2-y,1/2+z
_cell_length_a                   7.5539(3)
_cell_length_b                   8.5875(3)
_cell_length_c                   24.4454(10)
_cell_angle_alpha                90
_cell_angle_beta                 105.8660(10)
_cell_angle_gamma                90
_cell_volume                     1525.34
loop_
_atom_site_label
_atom_site_type_symbol
_atom_site_fract_x
_atom_site_fract_y
_atom_site_fract_z
Cu1 Cu 0.15874(4) 0.38304(3) 1.001254(10)
Cu2 Cu 0.09746(3) -0.03321(3) 0.622170(10)
S1 S 0.36862(7) -0.39972(6) 0.92393(2)
O1 O 0.3447(2) -0.13856(19) 0.72092(6)
O2 O 0.0794(2) -0.00797(17) 0.70009(6)
O3 O -0.0249(2) 0.25070(17) 0.87342(6)
O4 O 0.1762(2) 0.19553(17) 0.95768(6)
O5 O 0.2045(2) -0.46563(17) 0.93762(6)
O6 O 0.5046(2) -0.34650(17) 0.97465(6)
O7 O 0.4414(2) -0.50023(18) 0.88811(6)
O8 O -0.1273(2) 0.44102(16) 0.95352(6)
H1 H -0.2147 0.3548 0.9551
N1 N 0.1759(2) 0.3156(2) 1.12120(7)
N2 N 0.1893(2) 0.2497(2) 1.07146(7)
N3 N 0.2845(2) 0.0834(2) 1.13963(8)
N4 N 0.3671(3) -0.0529(2) 1.16821(8)
H2 H 0.2727 -0.1167 1.1684
H3 H 0.4305 -0.0222 1.2033
C1 C 0.2563(3) 0.1097(2) 1.08352(9)
H4 H 0.2813 0.0379 1.0570
C2 C 0.2325(3) 0.2137(2) 1.16198(9)
H5 H 0.2365 0.2288 1.2008
C3 C 0.2078(3) -0.0909(2) 0.79554(9)
C4 C 0.1405(3) 0.0311(2) 0.82118(9)
H6 H 0.0836 0.1177 0.7990
C5 C 0.1560(3) 0.0273(2) 0.87926(9)
C6 C 0.2295(3) -0.1027(2) 0.91120(9)
H7 H 0.2418 -0.1056 0.9509
C7 C 0.2848(3) -0.2289(2) 0.88410(9)
C8 C 0.2792(3) -0.2226(2) 0.82709(9)
H8 H 0.3236 -0.3074 0.8096
C9 C 0.2143(3) -0.0803(2) 0.73464(9)
C10 C 0.0977(3) 0.1690(2) 0.90617(9)
Cu1_2 Cu 0.15874(4) -0.61696(3) 1.001254(10)
Cu1B Cu 0.84126(4) -0.38304(3) 0.998746(10)
Cu1B_2 Cu -0.15874(4) 0.61696(3) 0.998746(10)
Cu2A Cu -0.09746(3) 0.46679(3) 0.877830(10)
Cu2A_2 Cu -0.09746(3) -0.53321(3) 0.877830(10)
Cu2C Cu 0.09746(3) 0.53321(3) 1.122170(10)
O3A O 0.0249(2) -0.24930(17) 0.62658(6)
O5_2 O 0.2045(2) 0.53437(17) 0.93762(6)
O5A O -0.2045(2) 0.03437(17) 0.56238(6)
O6B O 0.4954(2) 0.34650(17) 1.02535(6)
O8B O 0.1273(2) 0.55898(16) 1.04648(6)
O8A O 0.1273(2) -0.05898(16) 0.54648(6)
H1B H 0.2147 0.6452 1.0449
H1A H 0.2147 -0.1452 0.5449
N1C N 0.1759(2) 0.1844(2) 0.62120(7)
O9 O 0.7479(2) 0.8960(2) 0.72360(7)
H9 H 0.8354 0.9322 0.7117
H10 H 0.6533 0.9009 0.6952
O10 O 0.6193(2) 0.20143(18) 0.94346(7)
H11 H 0.5616 0.2033 0.9083
H12 H 0.5464 0.2423 0.9604
loop_
_geom_bond_atom_site_label_1
_geom_bond_atom_site_label_2
_geom_bond_site_symmetry_1
_geom_bond_site_symmetry_2
Cu1 O4 1_555 1_555
Cu2 O2 1_555 1_555
S1 O5 1_555 1_555
O1 C9 1_555 1_555
O2 C9 1_555 1_555
O3 C10 1_555 1_555
O4 C10 1_555 1_555
O5 Cu1_2 1_555 1_555
O6 S1 1_555 1_555
O7 S1 1_555 1_555
O8 Cu1 1_555 1_555
H1 O8 1_555 1_555
N1 N2 1_555 1_555
N2 Cu1 1_555 1_555
N3 N4 1_555 1_555
N4 H2 1_555 1_555
H3 N4 1_555 1_555
C1 N2 1_555 1_555
H4 C1 1_555 1_555
C2 N1 1_555 1_555
H5 C2 1_555 1_555
C3 C4 1_555 1_555
C4 H6 1_555 1_555
C5 C4 1_555 1_555
C6 C5 1_555 1_555
H7 C6 1_555 1_555
C7 S1 1_555 1_555
C8 C3 1_555 1_555
H8 C8 1_555 1_555
C9 C3 1_555 1_555
C10 C5 1_555 1_555
O9 H9 1_555 1_555
H10 O9 1_555 1_555
O10 H11 1_555 1_555
H12 O10 1_555 1_555
Cu1B O6 1_555 1_555
Cu1B_2 O8 1_555 1_555
Cu2A O3 1_555 1_555
Cu2A_2 O5 1_555 1_555
Cu2C N1 1_555 1_555
O3A Cu2 1_555 1_555
O5_2 Cu1 1_555 1_555
O5A Cu2 1_555 1_555
O6B Cu1 1_555 1_555
O8B Cu1 1_555 1_555
O8A Cu2 1_555 1_555
H1B O8B 1_555 1_555
H1A O8A 1_555 1_555
N1C Cu2 1_555 1_555
O8 Cu2A 1_555 1_555
N3 C1 1_555 1_555
N3 C2 1_555 1_555
C6 C7 1_555 1_555
C7 C8 1_555 1_555
Cu1B_2 O8B 1_555 1_555
Cu2A O5_2 1_555 1_555
Cu2C O8B 1_555 1_555

#END
