
#######################################################################
#
#                 Cambridge Crystallographic Data Centre
#                                CCDC 
#
#######################################################################
#
# If this CIF has been generated from an entry in the Cambridge 
# Structural Database, then it will include bibliographic, chemical, 
# crystal, experimental, refinement or atomic coordinate data resulting 
# from the CCDC's data processing and validation procedures.
#
#######################################################################

data_LEKVAA
_symmetry_cell_setting           triclinic
_symmetry_space_group_name_H-M   'P -1'
_symmetry_Int_Tables_number      2
_space_group_name_Hall           '-P 1'
loop_
_symmetry_equiv_pos_site_id
_symmetry_equiv_pos_as_xyz
1 x,y,z
2 -x,-y,-z
_cell_length_a                   10.243(8)
_cell_length_b                   11.126(4)
_cell_length_c                   11.904(5)
_cell_angle_alpha                117.615(5)
_cell_angle_beta                 98.559(8)
_cell_angle_gamma                107.441(8)
_cell_volume                     1078.33
loop_
_atom_site_label
_atom_site_type_symbol
_atom_site_fract_x
_atom_site_fract_y
_atom_site_fract_z
Cu1 Cu 0.0000 0.0000 0.5000
Cu2 Cu -0.13576(5) 0.27157(5) 0.51917(5)
S1 S 0.34404(12) 0.34584(13) 0.09518(11)
O1 O 0.0951(3) 0.2237(3) 0.5101(3)
O2 O 0.0002(3) 0.2980(3) 0.3884(3)
O3 O 0.6075(3) 0.2805(4) 0.5770(3)
O4 O 0.7147(3) 0.3140(3) 0.4366(3)
O5 O 0.4931(4) 0.4376(5) 0.1166(4)
O6 O 0.2471(3) 0.4178(4) 0.0913(3)
O7 O 0.2861(5) 0.1943(4) -0.0214(4)
O8 O -0.0197(3) 0.4841(3) 0.6606(3)
H1 H -0.0099 0.5565 0.6502
H2 H 0.0665 0.4973 0.6941
N1 N -0.1969(3) -0.0529(4) 0.3791(3)
N2 N -0.2477(3) 0.0514(4) 0.3851(3)
N3 N -0.4217(3) -0.1729(4) 0.2456(3)
N4 N -0.5623(4) -0.2857(4) 0.1539(4)
H5 H -0.5522 -0.3434 0.0754
H6 H -0.6007 -0.3366 0.1903
N5 N -0.0445(3) 0.1253(4) 0.6663(3)
N6 N -0.1008(3) 0.2244(4) 0.6688(3)
N7 N -0.0761(4) 0.2356(4) 0.8590(3)
N8 N -0.0745(4) 0.2892(5) 0.9942(4)
H7 H -0.1243 0.2037 0.9888
H8 H 0.0201 0.3334 1.0448
C1 C -0.3844(4) -0.0250(5) 0.3028(4)
H9 H -0.4455 0.0167 0.2868
C2 C -0.3035(4) -0.1864(4) 0.2940(4)
H10 H -0.2978 -0.2764 0.2709
C3 C -0.1193(4) 0.2894(5) 0.7862(4)
H11 H -0.1564 0.3612 0.8146
C4 C -0.0298(4) 0.1352(5) 0.7818(4)
H12 H 0.0072 0.0810 0.8068
C5 C 0.2318(4) 0.2907(4) 0.3863(4)
C6 C 0.3553(4) 0.2876(4) 0.4505(4)
H13 H 0.3561 0.2724 0.5210
C7 C 0.4773(4) 0.3067(4) 0.4110(4)
C8 C 0.4761(4) 0.3285(4) 0.3046(4)
H14 H 0.5572 0.3419 0.2776
C9 C 0.3520(4) 0.3303(4) 0.2387(4)
C10 C 0.2315(4) 0.3130(4) 0.2799(4)
H15 H 0.1503 0.3161 0.2367
C11 C 0.1008(4) 0.2690(4) 0.4307(4)
C12 C 0.6095(4) 0.3016(4) 0.4830(4)
Cu2A Cu 0.13576(5) -0.27157(5) 0.48083(5)
Cu2_2 Cu 0.86424(5) 0.27157(5) 0.51917(5)
Cu2A_2 Cu -0.86424(5) -0.27157(5) 0.48083(5)
S1A S -0.34404(12) -0.34584(13) 0.90482(11)
O1A O -0.0951(3) -0.2237(3) 0.4899(3)
O2A O -0.0002(3) -0.2980(3) 0.6116(3)
O3A O -0.6075(3) -0.2805(4) 0.4230(3)
O4A O -0.7147(3) -0.3140(3) 0.5634(3)
O4_2 O -0.2853(3) 0.3140(3) 0.4366(3)
O4A_2 O 0.2853(3) -0.3140(3) 0.5634(3)
O5A O -0.4931(4) -0.4376(5) 0.8834(4)
O6A O -0.2471(3) -0.4178(4) 0.9087(3)
O7A O -0.2861(5) -0.1943(4) 1.0214(4)
O8A O 0.0197(3) -0.4841(3) 0.3394(3)
H1A H 0.0099 -0.5565 0.3498
H2A H -0.0665 -0.4973 0.3059
N1A N 0.1969(3) 0.0529(4) 0.6209(3)
N2A N 0.2477(3) -0.0514(4) 0.6149(3)
N3A N 0.4217(3) 0.1729(4) 0.7544(3)
N4A N 0.5623(4) 0.2857(4) 0.8461(4)
H5A H 0.5522 0.3434 0.9246
H6A H 0.6007 0.3366 0.8097
N5A N 0.0445(3) -0.1253(4) 0.3337(3)
N6A N 0.1008(3) -0.2244(4) 0.3312(3)
N7A N 0.0761(4) -0.2356(4) 0.1410(3)
N8A N 0.0745(4) -0.2892(5) 0.0058(4)
H7A H 0.1243 -0.2037 0.0112
H8A H -0.0201 -0.3334 -0.0448
C1A C 0.3844(4) 0.0250(5) 0.6972(4)
H9A H 0.4455 -0.0167 0.7132
C2A C 0.3035(4) 0.1864(4) 0.7060(4)
H10A H 0.2978 0.2764 0.7291
C3A C 0.1193(4) -0.2894(5) 0.2138(4)
H11A H 0.1564 -0.3612 0.1854
C4A C 0.0298(4) -0.1352(5) 0.2182(4)
H12A H -0.0072 -0.0810 0.1932
C5A C -0.2318(4) -0.2907(4) 0.6137(4)
C6A C -0.3553(4) -0.2876(4) 0.5495(4)
H13A H -0.3561 -0.2724 0.4790
C7A C -0.4773(4) -0.3067(4) 0.5890(4)
C8A C -0.4761(4) -0.3285(4) 0.6954(4)
H14A H -0.5572 -0.3419 0.7224
C9A C -0.3520(4) -0.3303(4) 0.7613(4)
C10A C -0.2315(4) -0.3130(4) 0.7201(4)
H15A H -0.1503 -0.3161 0.7633
C11A C -0.1008(4) -0.2690(4) 0.5693(4)
C12A C -0.6095(4) -0.3016(4) 0.5170(4)
O9 O 0.7846(4) 0.4752(5) 0.1645(4)
H3 H 0.7224 0.5103 0.1850
H4 H 0.7438 0.3836 0.1392
O10 O 0.1352(19) 0.9148(17) 0.9053(15)
O11? O 0.438(2) 0.9471(18) 0.983(2)
O12? O 0.2949(19) 0.9551(17) 1.0169(19)
loop_
_geom_bond_atom_site_label_1
_geom_bond_atom_site_label_2
_geom_bond_site_symmetry_1
_geom_bond_site_symmetry_2
Cu1 O1 1_555 1_555
Cu2 O2 1_555 1_555
S1 O5 1_555 1_555
O1 C11 1_555 1_555
O2 C11 1_555 1_555
O3 C12 1_555 1_555
O4 C12 1_555 1_555
O6 S1 1_555 1_555
O7 S1 1_555 1_555
O8 Cu2 1_555 1_555
H1 O8 1_555 1_555
H2 O8 1_555 1_555
O9 H3 1_555 1_555
H4 O9 1_555 1_555
N1 Cu1 1_555 1_555
N2 Cu2 1_555 1_555
N3 N4 1_555 1_555
N4 H5 1_555 1_555
H6 N4 1_555 1_555
N5 Cu1 1_555 1_555
N6 Cu2 1_555 1_555
N7 N8 1_555 1_555
N8 H7 1_555 1_555
H8 N8 1_555 1_555
C1 N2 1_555 1_555
H9 C1 1_555 1_555
C2 N1 1_555 1_555
H10 C2 1_555 1_555
C3 N6 1_555 1_555
H11 C3 1_555 1_555
C4 N5 1_555 1_555
H12 C4 1_555 1_555
C5 C6 1_555 1_555
C6 H13 1_555 1_555
C7 C6 1_555 1_555
C8 C7 1_555 1_555
H14 C8 1_555 1_555
C9 S1 1_555 1_555
C10 C5 1_555 1_555
H15 C10 1_555 1_555
C11 C5 1_555 1_555
C12 C7 1_555 1_555
Cu2A O2A 1_555 1_555
Cu2_2 O4 1_555 1_555
Cu2A_2 O4A 1_555 1_555
S1A O5A 1_555 1_555
O1A Cu1 1_555 1_555
O2A C11A 1_555 1_555
O3A C12A 1_555 1_555
O4A C12A 1_555 1_555
O4_2 Cu2 1_555 1_555
O4A_2 Cu2A 1_555 1_555
O6A S1A 1_555 1_555
O7A S1A 1_555 1_555
O8A Cu2A 1_555 1_555
H1A O8A 1_555 1_555
H2A O8A 1_555 1_555
N1A Cu1 1_555 1_555
N2A Cu2A 1_555 1_555
N3A N4A 1_555 1_555
N4A H5A 1_555 1_555
H6A N4A 1_555 1_555
N5A Cu1 1_555 1_555
N6A Cu2A 1_555 1_555
N7A N8A 1_555 1_555
N8A H7A 1_555 1_555
H8A N8A 1_555 1_555
C1A N2A 1_555 1_555
H9A C1A 1_555 1_555
C2A N1A 1_555 1_555
H10A C2A 1_555 1_555
C3A N6A 1_555 1_555
H11A C3A 1_555 1_555
C4A N5A 1_555 1_555
H12A C4A 1_555 1_555
C5A C6A 1_555 1_555
C6A H13A 1_555 1_555
C7A C6A 1_555 1_555
C8A C7A 1_555 1_555
H14A C8A 1_555 1_555
C9A S1A 1_555 1_555
C10A C5A 1_555 1_555
H15A C10A 1_555 1_555
C11A O1A 1_555 1_555
C12A C7A 1_555 1_555
N1 N2 1_555 1_555
N3 C1 1_555 1_555
N3 C2 1_555 1_555
N5 N6 1_555 1_555
N7 C3 1_555 1_555
N7 C4 1_555 1_555
C8 C9 1_555 1_555
C9 C10 1_555 1_555
N1A N2A 1_555 1_555
N3A C1A 1_555 1_555
N3A C2A 1_555 1_555
N5A N6A 1_555 1_555
N7A C3A 1_555 1_555
N7A C4A 1_555 1_555
C5A C11A 1_555 1_555
C8A C9A 1_555 1_555
C9A C10A 1_555 1_555

#END
