
#######################################################################
#
#                 Cambridge Crystallographic Data Centre
#                                CCDC 
#
#######################################################################
#
# If this CIF has been generated from an entry in the Cambridge 
# Structural Database, then it will include bibliographic, chemical, 
# crystal, experimental, refinement or atomic coordinate data resulting 
# from the CCDC's data processing and validation procedures.
#
#######################################################################

data_LEKZOS
_symmetry_cell_setting           monoclinic
_symmetry_space_group_name_H-M   'C 2/c'
_symmetry_Int_Tables_number      15
_space_group_name_Hall           '-C 2yn'
loop_
_symmetry_equiv_pos_site_id
_symmetry_equiv_pos_as_xyz
1 x,y,z
2 -x,y,1/2-z
3 1/2+x,1/2+y,z
4 1/2-x,1/2+y,1/2-z
5 -x,-y,-z
6 x,-y,1/2+z
7 1/2-x,1/2-y,-z
8 1/2+x,1/2-y,1/2+z
_cell_length_a                   22.690(6)
_cell_length_b                   13.916(4)
_cell_length_c                   20.317(5)
_cell_angle_alpha                90
_cell_angle_beta                 98.975(4)
_cell_angle_gamma                90
_cell_volume                     6336.63
loop_
_atom_site_label
_atom_site_type_symbol
_atom_site_fract_x
_atom_site_fract_y
_atom_site_fract_z
O1 O 0.0000 0.666(4) 0.2500
O2 O 0.021(3) -0.078(5) 0.268(4)
O4 O 0.094(2) 0.109(4) 0.069(3)
O7 O 0.102(3) 0.301(5) 0.410(3)
O8 O -0.054(2) 0.512(4) 0.310(2)
O9 O -0.001(5) 0.382(8) 0.199(5)
O10 O 0.072(5) 0.297(8) 0.297(5)
O11 O 0.003(2) 0.192(4) 0.206(3)
O12 O 0.042(2) 0.289(5) 0.202(3)
O13 O 0.1304(16) 0.201(3) 0.184(2)
O14 O -0.0464(19) 0.069(3) 0.317(2)
O15 O 0.0679(17) 0.520(3) 0.316(2)
O16 O 0.167(3) 0.204(5) 0.325(3)
O17 O -0.1291(17) 0.385(3) 0.312(2)
O18 O -0.137(2) 0.386(3) 0.190(2)
O19 O -0.024(3) 0.168(4) 0.091(3)
O20 O -0.1397(19) 0.476(4) 0.067(2)
O21 O 0.2263(19) 0.291(3) 0.252(2)
O22 O -0.0907(14) 0.478(2) 0.4327(16)
O23 O -0.0587(14) 0.293(3) 0.4078(17)
O24 O 0.0223(17) 0.427(3) 0.408(2)
O25 O 0.067(2) 0.061(4) 0.316(3)
O26 O 0.1409(15) 0.106(2) 0.4332(17)
Si1 Si 0.0000 0.2924(17) 0.2500
W1 W 0.0000 0.54707(18) 0.2500
W2 W -0.05978(8) 0.41886(14) 0.37366(10)
W3 W 0.0000 0.0400(2) 0.2500
W4 W 0.06131(10) 0.16616(15) 0.12589(12)
W5 W 0.09436(17) 0.1672(2) 0.37480(14)
W6 W -0.09500(11) 0.42079(15) 0.12634(11)
W7 W 0.15550(10) 0.29282(18) 0.25052(11)
O2A O -0.021(3) -0.078(5) 0.232(4)
O4A O -0.094(2) 0.109(4) 0.431(3)
O7A O -0.102(3) 0.301(5) 0.090(3)
O8A O 0.054(2) 0.512(4) 0.190(2)
O9A O 0.001(5) 0.382(8) 0.301(5)
O10A O -0.072(5) 0.297(8) 0.203(5)
O11A O -0.003(2) 0.192(4) 0.294(3)
O12A O -0.042(2) 0.289(5) 0.298(3)
O13A O -0.1304(16) 0.201(3) 0.316(2)
O14A O 0.0464(19) 0.069(3) 0.183(2)
O15A O -0.0679(17) 0.520(3) 0.184(2)
O16A O -0.167(3) 0.204(5) 0.175(3)
O17A O 0.1291(17) 0.385(3) 0.188(2)
O18A O 0.137(2) 0.386(3) 0.310(2)
O19A O 0.024(3) 0.168(4) 0.409(3)
O20A O 0.1397(19) 0.476(4) 0.433(2)
O21A O -0.2263(19) 0.291(3) 0.248(2)
O22A O 0.0907(14) 0.478(2) 0.0673(16)
O23A O 0.0587(14) 0.293(3) 0.0922(17)
O24A O -0.0223(17) 0.427(3) 0.092(2)
O25A O -0.067(2) 0.061(4) 0.184(3)
O26A O -0.1409(15) 0.106(2) 0.0668(17)
W2A W 0.05978(8) 0.41886(14) 0.12634(10)
W4A W -0.06131(10) 0.16616(15) 0.37411(12)
W5A W -0.09436(17) 0.1672(2) 0.12520(14)
W6A W 0.09500(11) 0.42079(15) 0.37366(11)
W7A W -0.15550(10) 0.29282(18) 0.24948(11)
O3 O 0.2307(17) 0.207(3) 0.581(2)
H1 H 0.2331 0.2668 0.5742
H2 H 0.2063 0.1988 0.6086
Cu1 Cu 0.2806(3) -0.5146(4) 0.0569(3)
Cu2 Cu 0.2500 -0.2500 0.5000
N1 N 0.2743(15) -0.497(3) 0.1525(19)
N2 N 0.2473(18) -0.353(3) 0.375(2)
N3 N 0.2765(15) -0.503(2) 0.4087(18)
N4 N 0.2533(19) -0.360(3) 0.440(2)
N5 N 0.2700(18) -0.451(3) 0.460(2)
N6 N -0.1049(18) -0.220(3) 0.432(2)
N7 N 0.1019(18) -0.110(3) 0.417(2)
N8 N 0.1605(17) -0.120(3) 0.4297(19)
N9 N 0.1714(16) -0.212(3) 0.451(2)
N10 N 0.1238(16) -0.255(3) 0.4542(19)
O5 O 0.2242(15) -0.401(2) 0.0271(18)
O6 O 0.2998(16) -0.142(3) 0.4356(19)
C1 C 0.013(2) -0.207(4) 0.427(3)
C2 C 0.079(2) -0.190(3) 0.431(2)
C3 C -0.008(2) -0.295(4) 0.438(3)
H3 H 0.0167 -0.3490 0.4419
C4 C -0.024(2) -0.122(4) 0.420(3)
H4 H -0.0089 -0.0612 0.4121
C5 C -0.068(2) -0.301(4) 0.444(3)
H5 H -0.0844 -0.3585 0.4561
C6 C -0.080(2) -0.138(4) 0.427(3)
H6 H -0.1043 -0.0842 0.4272
C7 C 0.262(2) -0.440(3) 0.357(2)
C8 C 0.266(2) -0.466(3) 0.288(2)
C9 C 0.224(2) -0.433(3) 0.236(2)
H7 H 0.1890 -0.4050 0.2463
C10 C 0.231(2) -0.442(4) 0.172(3)
H8 H 0.2059 -0.4082 0.1402
C11 C 0.315(2) -0.534(4) 0.201(2)
H9 H 0.3480 -0.5667 0.1900
C12 C 0.309(2) -0.524(4) 0.266(3)
H10 H 0.3348 -0.5584 0.2973
Cu1F Cu 0.2194(3) 0.0146(4) 0.9431(3)
Cu1E Cu 0.2806(3) -0.4854(4) 0.5569(3)
Cu1C Cu 0.2194(3) -0.0146(4) 0.4431(3)
N1F N 0.2257(15) -0.003(3) 0.8475(19)
N2F N 0.2527(18) -0.147(3) 0.625(2)
N3F N 0.2235(15) 0.003(2) 0.5913(18)
N4F N 0.2467(19) -0.140(3) 0.560(2)
N5F N 0.2300(18) -0.049(3) 0.540(2)
N5E N 0.2700(18) -0.549(3) -0.040(2)
N5C N 0.2300(18) 0.049(3) 1.040(2)
N6F N 0.6049(18) -0.280(3) 0.568(2)
N7F N 0.3981(18) -0.390(3) 0.583(2)
N8F N 0.3395(17) -0.380(3) 0.5703(19)
N8C N 0.3395(17) -0.620(3) 0.0703(19)
N8E N 0.1605(17) 0.120(3) 0.9297(19)
N9F N 0.3286(16) -0.288(3) 0.549(2)
N10F N 0.3762(16) -0.245(3) 0.5458(19)
O5F O 0.2758(15) -0.099(2) 0.9729(18)
O6F O 0.2002(16) -0.358(3) 0.5644(19)
C1F C 0.487(2) -0.293(4) 0.573(3)
C2F C 0.421(2) -0.310(3) 0.569(2)
C3F C 0.508(2) -0.205(4) 0.562(3)
H3F H 0.4833 -0.1510 0.5581
C4F C 0.524(2) -0.378(4) 0.580(3)
H4F H 0.5089 -0.4388 0.5879
C5F C 0.568(2) -0.199(4) 0.556(3)
H5F H 0.5844 -0.1415 0.5439
C6F C 0.580(2) -0.362(4) 0.573(3)
H6F H 0.6043 -0.4158 0.5728
C7F C 0.238(2) -0.060(3) 0.643(2)
C8F C 0.234(2) -0.034(3) 0.712(2)
C9F C 0.276(2) -0.067(3) 0.764(2)
H7F H 0.3110 -0.0950 0.7537
C10F C 0.269(2) -0.058(4) 0.828(3)
H8F H 0.2941 -0.0918 0.8598
C11F C 0.185(2) 0.034(4) 0.799(2)
H9F H 0.1520 0.0667 0.8100
C12F C 0.191(2) 0.024(4) 0.734(3)
H10F H 0.1652 0.0584 0.7027
loop_
_geom_bond_atom_site_label_1
_geom_bond_atom_site_label_2
_geom_bond_site_symmetry_1
_geom_bond_site_symmetry_2
Cu1 N1 1_555 1_555
Cu2 N4 1_555 1_555
N1 C10 1_555 1_555
N2 N4 1_555 1_555
N3 N5 1_555 1_555
N4 N5 1_555 1_555
N5 Cu1E 1_555 1_555
N6 C5 1_555 1_555
N7 N8 1_555 1_555
N8 N9 1_555 1_555
N9 Cu2 1_555 1_555
N10 N9 1_555 1_555
O1 W1 1_555 1_555
O2 W3 1_555 1_555
O3 H1 1_555 1_555
H2 O3 1_555 1_555
O4 W4 1_555 1_555
O5 Cu1 1_555 1_555
O6 Cu2 1_555 1_555
O7 W5 1_555 1_555
O8 W1 1_555 1_555
O9 O12 1_555 1_555
O10 Si1 1_555 1_555
O11 O12 1_555 1_555
O12 Si1 1_555 1_555
O13 W4 1_555 1_555
O14 W3 1_555 1_555
O15 W1 1_555 1_555
O16 W5 1_555 1_555
O17 W2 1_555 1_555
O18 W6 1_555 1_555
O19 W4 1_555 1_555
O20 W6 1_555 1_555
O21 W7 1_555 1_555
O22 W2 1_555 1_555
O23 W2 1_555 1_555
O24 W2 1_555 1_555
O25 W3 1_555 1_555
O26 W5 1_555 1_555
Si1 O9 1_555 1_555
W1 O9 1_555 1_555
W2 O8 1_555 1_555
W3 O11 1_555 1_555
W4 O11 1_555 1_555
W5 O10 1_555 1_555
W6 O9 1_555 1_555
W7 O10 1_555 1_555
C1 C2 1_555 1_555
C2 N7 1_555 1_555
C3 C1 1_555 1_555
H3 C3 1_555 1_555
C4 C1 1_555 1_555
H4 C4 1_555 1_555
C5 C3 1_555 1_555
H5 C5 1_555 1_555
C6 N6 1_555 1_555
H6 C6 1_555 1_555
C7 N2 1_555 1_555
C8 C7 1_555 1_555
C9 C8 1_555 1_555
H7 C9 1_555 1_555
C10 C9 1_555 1_555
H8 C10 1_555 1_555
C11 N1 1_555 1_555
H9 C11 1_555 1_555
C12 C8 1_555 1_555
H10 C12 1_555 1_555
Cu1F N1F 1_555 1_555
Cu1E N8F 1_555 1_555
Cu1C N8 1_555 1_555
N1F C10F 1_555 1_555
N2F N4F 1_555 1_555
N3F N5F 1_555 1_555
N4F Cu2 1_555 1_555
N5F Cu1C 1_555 1_555
N5E Cu1 1_555 1_555
N5C Cu1F 1_555 1_555
N6F C5F 1_555 1_555
N7F N8F 1_555 1_555
N8F N9F 1_555 1_555
N8C Cu1 1_555 1_555
N8E Cu1F 1_555 1_555
N9F Cu2 1_555 1_555
N10F N9F 1_555 1_555
O2A O2 1_555 1_555
O4A W4A 1_555 1_555
O5F Cu1F 1_555 1_555
O6F Cu2 1_555 1_555
O7A W6 1_555 1_555
O8A W1 1_555 1_555
O9A Si1 1_555 1_555
O10A Si1 1_555 1_555
O11A Si1 1_555 1_555
O12A Si1 1_555 1_555
O13A W4A 1_555 1_555
O14A W3 1_555 1_555
O15A W1 1_555 1_555
O16A W5A 1_555 1_555
O17A W7 1_555 1_555
O18A W7 1_555 1_555
O19A W5 1_555 1_555
O20A W6A 1_555 1_555
O21A W7A 1_555 1_555
O22A W2A 1_555 1_555
O23A W4 1_555 1_555
O24A W6 1_555 1_555
O25A W3 1_555 1_555
O26A W5A 1_555 1_555
W2A O9 1_555 1_555
W4A O14 1_555 1_555
W5A O11 1_555 1_555
W6A O7 1_555 1_555
W7A O17 1_555 1_555
C1F C2F 1_555 1_555
C2F N7F 1_555 1_555
C3F C1F 1_555 1_555
H3F C3F 1_555 1_555
C4F C1F 1_555 1_555
H4F C4F 1_555 1_555
C5F C3F 1_555 1_555
H5F C5F 1_555 1_555
C6F N6F 1_555 1_555
H6F C6F 1_555 1_555
C7F N2F 1_555 1_555
C8F C7F 1_555 1_555
C9F C8F 1_555 1_555
H7F C9F 1_555 1_555
C10F C9F 1_555 1_555
H8F C10F 1_555 1_555
C11F N1F 1_555 1_555
H9F C11F 1_555 1_555
C12F C8F 1_555 1_555
H10F C12F 1_555 1_555
N3 C7 1_555 1_555
N10 C2 1_555 1_555
O10 W6A 1_555 1_555
O11 Si1 1_555 1_555
O12 W4 1_555 1_555
O12 W7 1_555 1_555
O12 W2A 1_555 1_555
O13 W7 1_555 1_555
O15 W6A 1_555 1_555
O16 W7 1_555 1_555
O18 W7A 1_555 1_555
O19 W5A 1_555 1_555
O23 W4A 1_555 1_555
O24 W6A 1_555 1_555
O25 W5 1_555 1_555
W1 O9A 1_555 1_555
W2 O9A 1_555 1_555
W2 O12A 1_555 1_555
W3 O2A 1_555 1_555
W3 O11A 1_555 1_555
W4 O14A 1_555 1_555
W5 O11A 1_555 1_555
W6 O10A 1_555 1_555
W6 O15A 1_555 1_555
C4 C6 1_555 1_555
C11 C12 1_555 1_555
N3F C7F 1_555 1_555
N4F N5F 1_555 1_555
N10F C2F 1_555 1_555
O7A W5A 1_555 1_555
O8A W2A 1_555 1_555
O9A O12A 1_555 1_555
O9A W6A 1_555 1_555
O10A W5A 1_555 1_555
O10A W7A 1_555 1_555
O11A O12A 1_555 1_555
O11A W4A 1_555 1_555
O12A W4A 1_555 1_555
O12A W7A 1_555 1_555
O13A W7A 1_555 1_555
O16A W7A 1_555 1_555
O17A W2A 1_555 1_555
O18A W6A 1_555 1_555
O19A W4A 1_555 1_555
O23A W2A 1_555 1_555
O24A W2A 1_555 1_555
O25A W5A 1_555 1_555
C4F C6F 1_555 1_555
C11F C12F 1_555 1_555

#END
