
#######################################################################
#
#                 Cambridge Crystallographic Data Centre
#                                CCDC 
#
#######################################################################
#
# If this CIF has been generated from an entry in the Cambridge 
# Structural Database, then it will include bibliographic, chemical, 
# crystal, experimental, refinement or atomic coordinate data resulting 
# from the CCDC's data processing and validation procedures.
#
#######################################################################

data_LEKZEI
_symmetry_cell_setting           triclinic
_symmetry_space_group_name_H-M   'P -1'
_symmetry_Int_Tables_number      2
_space_group_name_Hall           '-P 1'
loop_
_symmetry_equiv_pos_site_id
_symmetry_equiv_pos_as_xyz
1 x,y,z
2 -x,-y,-z
_cell_length_a                   12.168(5)
_cell_length_b                   13.460(5)
_cell_length_c                   14.191(5)
_cell_angle_alpha                105.129(5)
_cell_angle_beta                 111.458(5)
_cell_angle_gamma                105.677(5)
_cell_volume                     1907.34
loop_
_atom_site_label
_atom_site_type_symbol
_atom_site_fract_x
_atom_site_fract_y
_atom_site_fract_z
Cu1 Cu 0.64910(16) 0.55598(13) -0.03295(15)
Cu2 Cu 1.0000 1.0000 0.0000
Cu3 Cu 0.53221(16) 0.95192(15) 0.12723(15)
O4 O 0.4890(11) 0.9889(11) 0.2526(9)
N1 N 0.8615(12) 0.9614(10) -0.1517(10)
N2 N 0.8859(12) 0.8462(9) -0.0265(10)
N3 N 0.8646(13) 0.7742(11) 0.0218(11)
N4 N 0.7562(12) 0.6902(10) -0.0461(10)
N5 N 0.6985(12) 0.6974(10) -0.1452(11)
N6 N 0.6353(10) 1.0123(9) 0.0589(9)
N7 N 0.7028(11) 0.9560(10) 0.2253(9)
N8 N 0.5659(10) 0.7389(8) 0.0251(9)
N9 N 0.4770(10) 0.7617(9) 0.0540(9)
N10 N 0.6242(11) 1.0406(9) -0.0267(9)
N11 N 0.7341(11) 1.0613(10) -0.0339(10)
N12 N 0.8178(11) 1.0446(10) 0.0464(10)
N13 N 0.5491(11) 0.6351(9) 0.0136(9)
C1 C 0.7664(14) 0.8570(13) -0.2001(12)
C2 C 0.7821(14) 0.7959(11) -0.1286(12)
C3 C 0.6606(14) 0.8109(15) -0.3066(13)
H3 H 0.5982 0.7376 -0.3388
C4 C 0.6578(19) 0.8832(18) -0.3583(16)
H4 H 0.5890 0.8585 -0.4282
C5 C 0.7553(18) 0.9951(16) -0.3107(15)
H5 H 0.7516 1.0418 -0.3488
C6 C 0.8557(16) 1.0312(15) -0.2052(14)
H6 H 0.9195 1.1041 -0.1709
C7 C 0.7933(13) 0.9871(11) 0.1983(11)
C8 C 0.9136(17) 0.9896(15) 0.2538(14)
H7 H 0.9800 1.0194 0.2382
C9 C 0.8385(17) 0.9122(15) 0.3615(14)
H8 H 0.8501 0.8842 0.4162
C10 C 0.7534(13) 1.0169(11) 0.1029(12)
C11 C 0.9329(18) 0.9449(17) 0.3358(14)
H9 H 1.0104 0.9387 0.3710
C12 C 0.7253(18) 0.9197(15) 0.3079(14)
H10 H 0.6612 0.8992 0.3286
N14 N 0.4485(10) 0.5874(9) 0.0283(9)
C13 C 0.4067(12) 0.6682(11) 0.0531(10)
C14 C 0.3000(13) 0.6433(11) 0.0795(12)
C15 C 0.2420(14) 0.7143(12) 0.1019(14)
H11 H 0.2673 0.7841 0.0979
N15 N 0.2616(11) 0.5379(9) 0.0795(10)
C16 C 0.1483(18) 0.6814(15) 0.1298(17)
H12 H 0.1048 0.7269 0.1409
C17 C 0.1727(17) 0.5103(15) 0.1103(17)
H13 H 0.1455 0.4391 0.1112
C18 C 0.116(2) 0.5820(16) 0.1421(18)
H14 H 0.0590 0.5627 0.1702
Cu1A Cu 1.35090(16) 1.44402(13) 0.03295(15)
Cu1A_2 Cu 0.35090(16) 0.44402(13) 0.03295(15)
Cu3A Cu 0.46779(16) 0.04808(15) -0.12723(15)
Cu3A_2 Cu 0.46779(16) 1.04808(15) -0.12723(15)
O4A O 0.5110(11) 0.0111(11) -0.2526(9)
N1A N 1.1385(12) 1.0386(10) 0.1517(10)
N2A N 1.1141(12) 1.1538(9) 0.0265(10)
N3A N 1.1354(13) 1.2258(11) -0.0218(11)
N4A N 1.2438(12) 1.3098(10) 0.0461(10)
N5A N 1.3015(12) 1.3026(10) 0.1452(11)
N6A N 0.3647(10) 0.9877(9) -0.0589(9)
N6A_2 N 0.3647(10) -0.0123(9) -0.0589(9)
N7A N 0.2972(11) 1.0440(10) -0.2253(9)
N7A_2 N 0.2972(11) 0.0440(10) -0.2253(9)
N8A N 0.4341(10) 0.2611(8) -0.0251(9)
N9A N 0.5230(10) 0.2383(9) -0.0540(9)
N10A N 0.3758(11) 0.9594(9) 0.0267(9)
N10_2 N 0.6242(11) 0.0406(9) -0.0267(9)
N11A N 0.2659(11) 0.9387(10) 0.0339(10)
N12A N 0.1822(11) 0.9554(10) -0.0464(10)
N13A N 0.4509(11) 0.3649(9) -0.0136(9)
N13A_2 N 1.4509(11) 1.3649(9) -0.0136(9)
C1A C 1.2336(14) 1.1430(13) 0.2001(12)
C2A C 1.2179(14) 1.2041(11) 0.1286(12)
C3A C 1.3394(14) 1.1891(15) 0.3066(13)
H3A H 1.4018 1.2624 0.3388
C4A C 1.3422(19) 1.1168(18) 0.3583(16)
H4A H 1.4110 1.1415 0.4282
C5A C 1.2447(18) 1.0049(16) 0.3107(15)
H5A H 1.2484 0.9582 0.3488
C6A C 1.1443(16) 0.9688(15) 0.2052(14)
H6A H 1.0805 0.8959 0.1709
C7A C 0.2067(13) 1.0129(11) -0.1983(11)
C8A C 0.0864(17) 1.0104(15) -0.2538(14)
H7A H 0.0200 0.9806 -0.2382
C9A C 0.1615(17) 1.0878(15) -0.3615(14)
H8A H 0.1499 1.1158 -0.4162
C10A C 0.2466(13) 0.9831(11) -0.1029(12)
C11A C 0.0671(18) 1.0551(17) -0.3358(14)
H9A H -0.0104 1.0613 -0.3710
C12A C 0.2747(18) 1.0803(15) -0.3079(14)
H10A H 0.3388 1.1008 -0.3286
N14A N 0.5515(10) 0.4126(9) -0.0283(9)
N14_2 N 1.4485(10) 1.5874(9) 0.0283(9)
C13A C 0.5933(12) 0.3318(11) -0.0531(10)
C14A C 0.7000(13) 0.3567(11) -0.0795(12)
C15A C 0.7580(14) 0.2857(12) -0.1019(14)
H11A H 0.7327 0.2159 -0.0979
N15A N 0.7384(11) 0.4621(9) -0.0795(10)
N15_2 N 1.2616(11) 1.5379(9) 0.0795(10)
C16A C 0.8517(18) 0.3186(15) -0.1298(17)
H12A H 0.8952 0.2731 -0.1409
C17A C 0.8273(17) 0.4897(15) -0.1103(17)
H13A H 0.8545 0.5609 -0.1112
C18A C 0.884(2) 0.4180(16) -0.1421(18)
H14A H 0.9410 0.4373 -0.1702
O2 O 0.4974(11) 0.4868(11) -0.2306(10)
H1 H 0.5082 0.5319 -0.2618
H2 H 0.4228 0.4716 -0.2347
O25 O 0.4569(19) 0.8873(17) 0.3866(16)
H15 H 0.4670 0.9187 0.3436
H16 H 0.3787 0.8452 0.3588
O26 O 1.463(2) 1.275(2) -0.358(2)
H17 H 1.5236 1.3313 -0.3002
H18 H 1.3970 1.2897 -0.3791
Mo1 Mo 0.69714(13) 0.30490(11) 0.27618(11)
Mo2 Mo 0.84084(14) 0.24317(13) 0.50679(14)
Mo3 Mo 0.97727(18) 0.35491(12) 0.24366(12)
Mo4 Mo 0.85446(15) 0.56535(13) 0.27239(11)
Mo5 Mo 0.71826(15) 0.45153(17) 0.53242(14)
Mo6 Mo 1.1189(2) 0.29129(17) 0.46914(15)
Si1 Si 1.0000 0.5000 0.5000
O1 O 0.8077(15) 0.2742(12) 0.2204(13)
O3 O 0.9583(12) 0.2076(14) 0.4639(10)
O5 O 1.1790(14) 0.1949(11) 0.4594(11)
O6 O 0.7863(10) 0.5932(9) 0.1644(9)
O7 O 0.8096(11) 0.6425(13) 0.3722(10)
O8 O 0.6464(12) 0.3743(11) 0.3815(9)
O9 O 0.7366(12) 0.2172(11) 0.3616(9)
O10 O 0.7574(13) 0.3300(12) 0.5538(10)
O11 O 0.5543(11) 0.2098(9) 0.1755(9)
O12 O 0.5878(13) 0.4272(15) 0.5484(12)
O13 O 0.9795(11) 0.3206(14) 0.6563(10)
O14 O 0.7364(17) 0.5877(14) 0.5129(14)
O15 O 0.7672(15) 0.1251(12) 0.5134(12)
O16 O 1.0269(16) 0.2652(12) 0.3216(12)
O17 O 0.7108(14) 0.4295(11) 0.2362(13)
O18 O 1.0790(17) 0.4423(15) 0.4418(14)
O19 O 0.8705(16) 0.4058(14) 0.4662(15)
O20 O 0.8992(16) 0.4444(14) 0.3638(14)
O21 O 1.0135(16) 0.4003(14) 0.5397(15)
O22 O 1.1520(16) 0.4593(13) 0.3183(13)
O23 O 0.9197(15) 0.4662(12) 0.2128(14)
O24 O 0.9698(10) 0.2918(9) 0.1241(9)
Mo1A Mo 1.30286(13) 0.69510(11) 0.72382(11)
Mo2A Mo 1.15916(14) 0.75683(13) 0.49321(14)
Mo3A Mo 1.02273(18) 0.64509(12) 0.75634(12)
Mo4A Mo 1.14554(15) 0.43465(13) 0.72761(11)
Mo5A Mo 1.28174(15) 0.54847(17) 0.46758(14)
Mo6A Mo 0.8811(2) 0.70871(17) 0.53086(15)
O1A O 1.1923(15) 0.7258(12) 0.7796(13)
O3A O 1.0417(12) 0.7924(14) 0.5361(10)
O5A O 0.8210(14) 0.8051(11) 0.5406(11)
O6A O 1.2137(10) 0.4068(9) 0.8356(9)
O7A O 1.1904(11) 0.3575(13) 0.6278(10)
O8A O 1.3536(12) 0.6257(11) 0.6185(9)
O9A O 1.2634(12) 0.7828(11) 0.6384(9)
O10A O 1.2426(13) 0.6700(12) 0.4462(10)
O11A O 1.4457(11) 0.7902(9) 0.8245(9)
O12A O 1.4122(13) 0.5728(15) 0.4516(12)
O13A O 1.0205(11) 0.6794(14) 0.3437(10)
O14A O 1.2636(17) 0.4123(14) 0.4871(14)
O15A O 1.2328(15) 0.8749(12) 0.4866(12)
O16A O 0.9731(16) 0.7348(12) 0.6784(12)
O17A O 1.2892(14) 0.5705(11) 0.7638(13)
O18A O 0.9210(17) 0.5577(15) 0.5582(14)
O19A O 1.1295(16) 0.5942(14) 0.5338(15)
O20A O 1.1008(16) 0.5556(14) 0.6362(14)
O21A O 0.9865(16) 0.5997(14) 0.4603(15)
O22A O 0.8480(16) 0.5407(13) 0.6817(13)
O23A O 1.0803(15) 0.5338(12) 0.7872(14)
O24A O 1.0302(10) 0.7082(9) 0.8759(9)
loop_
_geom_bond_atom_site_label_1
_geom_bond_atom_site_label_2
_geom_bond_site_symmetry_1
_geom_bond_site_symmetry_2
Mo1 O1 1_555 1_555
Mo2 O3 1_555 1_555
Mo3 O1 1_555 1_555
Mo4 O6 1_555 1_555
Mo5 O8 1_555 1_555
Mo6 O3 1_555 1_555
Cu1 N4 1_555 1_555
Cu2 N1 1_555 1_555
Cu3 O4 1_555 1_555
Si1 O18 1_555 1_555
O2 H1 1_555 1_555
H2 O2 1_555 1_555
O5 Mo6 1_555 1_555
O7 Mo4 1_555 1_555
O8 Mo1 1_555 1_555
O9 Mo1 1_555 1_555
O10 Mo2 1_555 1_555
O11 Mo1 1_555 1_555
O12 Mo5 1_555 1_555
O13 Mo2 1_555 1_555
O14 Mo5 1_555 1_555
O15 Mo2 1_555 1_555
O16 Mo3 1_555 1_555
O17 Mo1 1_555 1_555
O18 Mo3 1_555 1_555
O19 Mo1 1_555 1_555
O20 Mo1 1_555 1_555
O21 Mo2 1_555 1_555
O22 Mo3 1_555 1_555
O23 Mo3 1_555 1_555
O24 Mo3 1_555 1_555
N1 C1 1_555 1_555
N2 Cu2 1_555 1_555
N3 N2 1_555 1_555
N4 N3 1_555 1_555
N5 N4 1_555 1_555
N6 Cu3 1_555 1_555
N7 Cu3 1_555 1_555
N8 N9 1_555 1_555
N9 Cu3 1_555 1_555
N10 N6 1_555 1_555
N11 N10 1_555 1_555
N12 N11 1_555 1_555
N13 Cu1 1_555 1_555
C1 C2 1_555 1_555
C2 N2 1_555 1_555
C3 C1 1_555 1_555
H3 C3 1_555 1_555
C4 C3 1_555 1_555
H4 C4 1_555 1_555
C5 C4 1_555 1_555
H5 C5 1_555 1_555
C6 N1 1_555 1_555
H6 C6 1_555 1_555
C7 N7 1_555 1_555
C8 C7 1_555 1_555
H7 C8 1_555 1_555
C9 H8 1_555 1_555
C10 N6 1_555 1_555
C11 C8 1_555 1_555
H9 C11 1_555 1_555
C12 N7 1_555 1_555
H10 C12 1_555 1_555
N14 N13 1_555 1_555
C13 N9 1_555 1_555
C14 C13 1_555 1_555
C15 C14 1_555 1_555
H11 C15 1_555 1_555
N15 C14 1_555 1_555
C16 C15 1_555 1_555
H12 C16 1_555 1_555
C17 N15 1_555 1_555
H13 C17 1_555 1_555
C18 C16 1_555 1_555
H14 C18 1_555 1_555
O25 H15 1_555 1_555
H16 O25 1_555 1_555
O26 H17 1_555 1_555
H18 O26 1_555 1_555
Mo1A O1A 1_555 1_555
Mo2A O3A 1_555 1_555
Mo3A O1A 1_555 1_555
Mo4A O13 1_555 1_555
Mo5A O18 1_555 1_555
Mo6A O7 1_555 1_555
Cu1A N4A 1_555 1_555
Cu1A_2 N14 1_555 1_555
Cu3A O4A 1_555 1_555
Cu3A_2 N10 1_555 1_555
O3A Mo6A 1_555 1_555
O5A Mo6A 1_555 1_555
O6A Mo4A 1_555 1_555
O7A Mo6 1_555 1_555
O8A Mo1A 1_555 1_555
O9A Mo1A 1_555 1_555
O10A Mo2A 1_555 1_555
O11A Mo1A 1_555 1_555
O12A Mo5A 1_555 1_555
O13A Mo4 1_555 1_555
O14A Mo6 1_555 1_555
O15A Mo2A 1_555 1_555
O16A Mo3A 1_555 1_555
O17A Mo1A 1_555 1_555
O18A Mo5 1_555 1_555
O19A Si1 1_555 1_555
O20A Si1 1_555 1_555
O21A Mo4 1_555 1_555
O22A Mo5 1_555 1_555
O23A Mo3A 1_555 1_555
O24A Mo3A 1_555 1_555
N1A Cu2 1_555 1_555
N2A Cu2 1_555 1_555
N3A N2A 1_555 1_555
N4A N3A 1_555 1_555
N5A N4A 1_555 1_555
N6A Cu3A_2 1_555 1_555
N6A_2 Cu3A 1_555 1_555
N7A Cu3A_2 1_555 1_555
N7A_2 Cu3A 1_555 1_555
N8A N9A 1_555 1_555
N9A Cu3A 1_555 1_555
N10A Cu3 1_555 1_555
N10_2 Cu3A 1_555 1_555
N11A N10A 1_555 1_555
N12A N11A 1_555 1_555
N13A Cu1A_2 1_555 1_555
N13A_2 Cu1A 1_555 1_555
C1A N1A 1_555 1_555
C2A N2A 1_555 1_555
C3A C1A 1_555 1_555
H3A C3A 1_555 1_555
C4A C3A 1_555 1_555
H4A C4A 1_555 1_555
C5A C4A 1_555 1_555
H5A C5A 1_555 1_555
C6A N1A 1_555 1_555
H6A C6A 1_555 1_555
C7A N7A 1_555 1_555
C8A C7A 1_555 1_555
H7A C8A 1_555 1_555
C9A H8A 1_555 1_555
C10A N6A 1_555 1_555
C11A C8A 1_555 1_555
H9A C11A 1_555 1_555
C12A N7A 1_555 1_555
H10A C12A 1_555 1_555
N14A Cu1 1_555 1_555
N14_2 Cu1A 1_555 1_555
C13A N9A 1_555 1_555
C14A C13A 1_555 1_555
C15A C14A 1_555 1_555
H11A C15A 1_555 1_555
N15A Cu1 1_555 1_555
N15_2 Cu1A 1_555 1_555
C16A C15A 1_555 1_555
H12A C16A 1_555 1_555
C17A N15A 1_555 1_555
H13A C17A 1_555 1_555
C18A C16A 1_555 1_555
H14A C18A 1_555 1_555
Mo2 O9 1_555 1_555
Mo2 O19 1_555 1_555
Mo3 O20 1_555 1_555
Mo4 O17 1_555 1_555
Mo4 O20 1_555 1_555
Mo4 O23 1_555 1_555
Mo5 O10 1_555 1_555
Mo5 O19 1_555 1_555
Mo6 O16 1_555 1_555
Mo6 O18 1_555 1_555
Mo6 O21 1_555 1_555
Si1 O19 1_555 1_555
Si1 O20 1_555 1_555
Si1 O21 1_555 1_555
Si1 O18A 1_555 1_555
Si1 O21A 1_555 1_555
O14 Mo6A 1_555 1_555
O19 O20 1_555 1_555
O19 O21 1_555 1_555
O21 Mo4A 1_555 1_555
O22 Mo5A 1_555 1_555
N5 C2 1_555 1_555
N8 N13 1_555 1_555
N12 C10 1_555 1_555
C5 C6 1_555 1_555
C7 C10 1_555 1_555
C9 C11 1_555 1_555
C9 C12 1_555 1_555
N14 C13 1_555 1_555
N15 Cu1A_2 1_555 1_555
C17 C18 1_555 1_555
Mo1A O19A 1_555 1_555
Mo1A O20A 1_555 1_555
Mo2A O9A 1_555 1_555
Mo2A O13A 1_555 1_555
Mo2A O19A 1_555 1_555
Mo2A O21A 1_555 1_555
Mo3A O18A 1_555 1_555
Mo3A O20A 1_555 1_555
Mo3A O22A 1_555 1_555
Mo4A O7A 1_555 1_555
Mo4A O17A 1_555 1_555
Mo4A O20A 1_555 1_555
Mo4A O23A 1_555 1_555
Mo5A O8A 1_555 1_555
Mo5A O10A 1_555 1_555
Mo5A O14A 1_555 1_555
Mo5A O19A 1_555 1_555
Mo6A O16A 1_555 1_555
Mo6A O18A 1_555 1_555
Mo6A O21A 1_555 1_555
O19A O20A 1_555 1_555
O19A O21A 1_555 1_555
N5A C2A 1_555 1_555
N6A N10A 1_555 1_555
N8A N13A 1_555 1_555
N12A C10A 1_555 1_555
N13A N14A 1_555 1_555
C1A C2A 1_555 1_555
C5A C6A 1_555 1_555
C7A C10A 1_555 1_555
C9A C11A 1_555 1_555
C9A C12A 1_555 1_555
N14A C13A 1_555 1_555
C14A N15A 1_555 1_555
C17A C18A 1_555 1_555

#END
