
#######################################################################
#
#                 Cambridge Crystallographic Data Centre
#                                CCDC 
#
#######################################################################
#
# If this CIF has been generated from an entry in the Cambridge 
# Structural Database, then it will include bibliographic, chemical, 
# crystal, experimental, refinement or atomic coordinate data resulting 
# from the CCDC's data processing and validation procedures.
#
#######################################################################

data_LEKZIM
_symmetry_cell_setting           triclinic
_symmetry_space_group_name_H-M   'P -1'
_symmetry_Int_Tables_number      2
_space_group_name_Hall           '-P 1'
loop_
_symmetry_equiv_pos_site_id
_symmetry_equiv_pos_as_xyz
1 x,y,z
2 -x,-y,-z
_cell_length_a                   11.518(5)
_cell_length_b                   11.898(5)
_cell_length_c                   15.108(5)
_cell_angle_alpha                78.678(5)
_cell_angle_beta                 70.577(5)
_cell_angle_gamma                70.663(5)
_cell_volume                     1833.77
loop_
_atom_site_label
_atom_site_type_symbol
_atom_site_fract_x
_atom_site_fract_y
_atom_site_fract_z
C1 C 0.729(3) -0.505(2) 0.221(2)
H1 H 0.7146 -0.5182 0.1670
C2 C 0.627(3) -0.473(2) 0.303(2)
H2 H 0.5429 -0.4628 0.3041
C3 C 0.655(3) -0.459(2) 0.379(2)
H3 H 0.5864 -0.4386 0.4331
C4 C 0.866(3) -0.500(2) 0.308(2)
C5 C 0.847(3) -0.516(2) 0.223(2)
H4 H 0.9166 -0.5331 0.1694
C6 C 0.993(2) -0.515(2) 0.321(2)
C7 C 0.782(2) -0.810(2) 0.5736(18)
C8 C 0.741(2) -0.916(2) 0.6161(18)
C9 C 0.605(3) -1.027(3) 0.724(2)
H5 H 0.5287 -1.0271 0.7716
C10 C 0.626(3) -0.916(2) 0.680(3)
H6 H 0.5617 -0.8447 0.6939
C11 C 0.813(2) -1.126(2) 0.6326(19)
H7 H 0.8762 -1.1978 0.6168
C12 C 0.694(3) -1.132(2) 0.700(2)
H8 H 0.6775 -1.2052 0.7256
N1 N 0.9083(17) -0.8371(16) 0.5209(15)
N2 N 0.725(2) -0.6962(18) 0.5804(16)
N3 N 0.8223(19) -0.6445(17) 0.5296(14)
N4 N 0.927(2) -0.7280(16) 0.4905(15)
N5 N 0.8395(19) -1.0221(16) 0.5902(15)
N6 N 0.773(2) -0.4701(16) 0.3854(15)
N7 N 0.996(2) -0.4964(17) 0.4036(16)
Cu1 Cu 1.0000 -1.0000 0.5000
Cu2 Cu 0.8130(3) -0.4696(2) 0.5016(2)
N8 N 0.706(2) -0.2964(19) 0.5095(16)
C13 C 0.742(3) -0.214(2) 0.447(2)
H9 H 0.8245 -0.2344 0.4066
C14 C 0.587(3) -0.266(2) 0.574(2)
H10 H 0.5622 -0.3253 0.6201
C15 C 0.540(2) -0.066(2) 0.502(2)
C16 C 0.500(3) -0.147(2) 0.574(2)
H11 H 0.4211 -0.1265 0.6199
C17 C 0.663(3) -0.097(2) 0.437(2)
H12 H 0.6916 -0.0412 0.3892
N10 N 1.126(2) -0.5292(16) 0.3895(15)
N11 N 1.189(2) -0.568(2) 0.3061(19)
N12 N 1.107(2) -0.5581(19) 0.2608(17)
C1A C 1.271(3) -0.495(2) 0.779(2)
H1A H 1.2854 -0.4818 0.8330
C2A C 1.373(3) -0.527(2) 0.697(2)
H2A H 1.4571 -0.5372 0.6959
C3A C 1.345(3) -0.541(2) 0.621(2)
H3A H 1.4136 -0.5614 0.5669
C4A C 1.134(3) -0.500(2) 0.692(2)
C5A C 1.153(3) -0.484(2) 0.777(2)
H4A H 1.0834 -0.4669 0.8306
C6A C 1.007(2) -0.485(2) 0.679(2)
C7A C 1.218(2) -1.190(2) 0.4264(18)
C8A C 1.259(2) -1.084(2) 0.3839(18)
C9A C 1.395(3) -0.973(3) 0.276(2)
H5A H 1.4713 -0.9729 0.2284
C10A C 1.374(3) -1.084(2) 0.320(3)
H6A H 1.4383 -1.1553 0.3061
C11A C 1.187(2) -0.874(2) 0.3674(19)
H7A H 1.1238 -0.8022 0.3832
C12A C 1.306(3) -0.868(2) 0.300(2)
H8A H 1.3225 -0.7948 0.2744
N1A N 1.0917(17) -1.1629(16) 0.4791(15)
N2A N 1.275(2) -1.3038(18) 0.4196(16)
N3A N 1.1777(19) -1.3555(17) 0.4704(14)
N4A N 1.073(2) -1.2720(16) 0.5095(15)
N5A N 1.1605(19) -0.9779(16) 0.4098(15)
N6A N 1.227(2) -0.5299(16) 0.6146(15)
N6A_2 N 1.227(2) -1.5299(16) 0.6146(15)
N7A N 1.004(2) -0.5036(17) 0.5964(16)
N7A_2 N 1.004(2) -1.5036(17) 0.5964(16)
Cu2A Cu 1.1870(3) -1.5304(2) 0.4984(2)
Cu2A_2 Cu 1.1870(3) -0.5304(2) 0.4984(2)
Cu2A_3 Cu 0.1870(3) 0.4696(2) 0.4984(2)
N8A N 0.294(2) 0.2964(19) 0.4905(16)
N8A_2 N 1.294(2) -1.7036(19) 0.4905(16)
C13A C 0.258(3) 0.214(2) 0.553(2)
H9A H 0.1755 0.2344 0.5934
C14A C 0.413(3) 0.266(2) 0.426(2)
H10A H 0.4378 0.3253 0.3799
C15A C 0.460(2) 0.066(2) 0.498(2)
C16A C 0.500(3) 0.147(2) 0.426(2)
H11A H 0.5789 0.1265 0.3801
C17A C 0.337(3) 0.097(2) 0.563(2)
H12A H 0.3084 0.0412 0.6108
N10A N 0.874(2) -0.4708(16) 0.6105(15)
N10_2 N 1.126(2) -1.5292(16) 0.3895(15)
N11A N 0.811(2) -0.432(2) 0.6939(19)
N12A N 0.893(2) -0.4419(19) 0.7392(17)
C18 C 0.522(2) 0.547(2) 1.009(2)
C19 C 0.670(3) 0.663(2) 0.960(2)
H13 H 0.7410 0.6820 0.9153
C20 C 0.632(3) 0.576(3) 0.941(3)
H14 H 0.6755 0.5366 0.8869
N9 N 0.615(3) 0.723(2) 1.035(2)
C21 C 0.468(3) 0.609(2) 1.0865(19)
H15 H 0.4004 0.5889 1.1346
C22 C 0.511(4) 0.702(3) 1.096(3)
H16 H 0.4657 0.7500 1.1451
C18A C 0.478(2) 0.453(2) 0.991(2)
C19A C 0.330(3) 0.337(2) 1.040(2)
H13A H 0.2590 0.3180 1.0847
C20A C 0.368(3) 0.424(3) 1.059(3)
H14A H 0.3245 0.4634 1.1131
N9A N 0.385(3) 0.277(2) 0.965(2)
C21A C 0.532(3) 0.391(2) 0.9135(19)
H15A H 0.5996 0.4111 0.8654
C22A C 0.489(4) 0.298(3) 0.904(3)
H16A H 0.5343 0.2500 0.8549
O1 O 0.919(3) 1.116(2) 1.050(2)
O2 O 0.5537(19) 1.2496(19) 1.1884(15)
O3 O 0.652(2) 1.1340(19) 1.0319(16)
O4 O 0.845(2) 0.902(2) 0.8482(18)
O5 O 1.099(2) 1.279(2) 0.9200(16)
O6 O 1.287(2) 1.1054(18) 0.9513(16)
O7 O 0.777(3) 1.144(2) 0.849(2)
O8 O 1.005(2) 1.026(2) 0.749(2)
O9 O 0.969(2) 1.2678(19) 1.1030(16)
O10 O 0.795(2) 1.1573(19) 1.2123(16)
O11 O 1.1094(18) 1.177(2) 0.7743(15)
O12 O 1.3305(18) 1.2120(16) 0.7764(15)
O13 O 0.889(2) 1.301(2) 0.8833(15)
O14 O 0.9073(19) 1.2623(15) 0.7007(13)
O15 O 0.949(2) 1.198(2) 1.2957(16)
O16 O 0.8937(18) 1.4621(16) 0.9879(18)
O17 O 0.762(2) 1.292(2) 1.0521(15)
O18 O 0.5959(17) 1.0250(15) 0.9129(13)
Si1 Si 1.0000 1.0000 1.0000
Mo1 Mo 0.6947(2) 1.17727(19) 1.12255(19)
Mo2 Mo 0.9387(2) 1.31305(19) 0.98907(18)
Mo3 Mo 1.2242(2) 1.1407(2) 0.8413(2)
Mo4 Mo 0.7274(2) 1.0088(2) 0.9403(2)
Mo5 Mo 0.9264(2) 1.1853(2) 0.8014(2)
Mo6 Mo 0.9635(3) 1.1300(2) 1.2038(2)
O19 O 1.022(3) 1.121(3) 0.942(2)
O20 O 0.943(4) 1.001(3) 0.902(3)
O21 O 0.851(3) 1.013(3) 1.055(2)
O22 O 0.696(2) 1.0111(17) 1.1862(18)
O1A O 1.081(3) 0.884(2) 0.950(2)
O2A O 1.4463(19) 0.7504(19) 0.8116(15)
O3A O 1.348(2) 0.8660(19) 0.9681(16)
O4A O 1.155(2) 1.098(2) 1.1518(18)
O5A O 0.901(2) 0.721(2) 1.0800(16)
O6A O 0.713(2) 0.8946(18) 1.0487(16)
O7A O 1.223(3) 0.856(2) 1.151(2)
O8A O 0.995(2) 0.974(2) 1.251(2)
O9A O 1.031(2) 0.7322(19) 0.8970(16)
O10A O 1.205(2) 0.8427(19) 0.7877(16)
O11A O 0.8906(18) 0.823(2) 1.2257(15)
O12A O 0.6695(18) 0.7880(16) 1.2236(15)
O13A O 1.111(2) 0.699(2) 1.1167(15)
O14A O 1.0927(19) 0.7377(15) 1.2993(13)
O15A O 1.051(2) 0.802(2) 0.7043(16)
O16A O 1.1063(18) 0.5379(16) 1.0121(18)
O17A O 1.238(2) 0.708(2) 0.9479(15)
O18A O 1.4041(17) 0.9750(15) 1.0871(13)
Mo1A Mo 1.3053(2) 0.82273(19) 0.87745(19)
Mo2A Mo 1.0613(2) 0.68695(19) 1.01093(18)
Mo3A Mo 0.7758(2) 0.8593(2) 1.1587(2)
Mo4A Mo 1.2726(2) 0.9912(2) 1.0597(2)
Mo5A Mo 1.0736(2) 0.8147(2) 1.1986(2)
Mo6A Mo 1.0365(3) 0.8700(2) 0.7962(2)
O19A O 0.978(3) 0.879(3) 1.058(2)
O20A O 1.057(4) 0.999(3) 1.098(3)
O21A O 1.149(3) 0.987(3) 0.945(2)
O22A O 1.304(2) 0.9889(17) 0.8138(18)
loop_
_geom_bond_atom_site_label_1
_geom_bond_atom_site_label_2
_geom_bond_site_symmetry_1
_geom_bond_site_symmetry_2
O1 Si1 1_555 1_555
O2 Mo1 1_555 1_555
O3 Mo1 1_555 1_555
O4 Mo4 1_555 1_555
O5 Mo2 1_555 1_555
O6 Mo3 1_555 1_555
O7 Mo4 1_555 1_555
O8 Mo5 1_555 1_555
C1 H1 1_555 1_555
C2 C1 1_555 1_555
H2 C2 1_555 1_555
C3 C2 1_555 1_555
H3 C3 1_555 1_555
C4 C5 1_555 1_555
C5 C1 1_555 1_555
H4 C5 1_555 1_555
C6 C4 1_555 1_555
C7 C8 1_555 1_555
C8 C10 1_555 1_555
C9 H5 1_555 1_555
C10 C9 1_555 1_555
H6 C10 1_555 1_555
C11 H7 1_555 1_555
C12 C9 1_555 1_555
H8 C12 1_555 1_555
N1 C7 1_555 1_555
N2 C7 1_555 1_555
N3 N2 1_555 1_555
N4 N1 1_555 1_555
N5 C8 1_555 1_555
N6 C3 1_555 1_555
N7 C6 1_555 1_555
O9 Mo2 1_555 1_555
O10 Mo1 1_555 1_555
O11 Mo3 1_555 1_555
O12 Mo3 1_555 1_555
O13 Mo2 1_555 1_555
O14 Mo5 1_555 1_555
O15 Mo6 1_555 1_555
O16 Mo2 1_555 1_555
O17 Mo1 1_555 1_555
O18 Mo4 1_555 1_555
Cu1 N1 1_555 1_555
Cu2 N3 1_555 1_555
Si1 O19 1_555 1_555
Mo1 O1 1_555 1_555
Mo2 O1 1_555 1_555
Mo3 O5 1_555 1_555
Mo4 O3 1_555 1_555
Mo5 O7 1_555 1_555
Mo6 O1 1_555 1_555
N8 Cu2 1_555 1_555
C13 N8 1_555 1_555
H9 C13 1_555 1_555
C14 N8 1_555 1_555
H10 C14 1_555 1_555
C15 C16 1_555 1_555
C16 C14 1_555 1_555
H11 C16 1_555 1_555
C17 C13 1_555 1_555
H12 C17 1_555 1_555
C18 C20 1_555 1_555
C19 H13 1_555 1_555
C20 C19 1_555 1_555
H14 C20 1_555 1_555
N9 C19 1_555 1_555
C21 C18 1_555 1_555
H15 C21 1_555 1_555
C22 N9 1_555 1_555
H16 C22 1_555 1_555
O19 O1 1_555 1_555
O20 Si1 1_555 1_555
O21 O1 1_555 1_555
O22 Mo1 1_555 1_555
N10 N7 1_555 1_555
N11 N10 1_555 1_555
N12 C6 1_555 1_555
O1A Si1 1_555 1_555
O2A Mo1A 1_555 1_555
O3A Mo1A 1_555 1_555
O4A Mo6 1_555 1_555
O5A Mo2A 1_555 1_555
O6A Mo4 1_555 1_555
O7A Mo4A 1_555 1_555
O8A Mo6 1_555 1_555
C1A H1A 1_555 1_555
C2A C1A 1_555 1_555
H2A C2A 1_555 1_555
C3A C2A 1_555 1_555
H3A C3A 1_555 1_555
C4A C5A 1_555 1_555
C5A C1A 1_555 1_555
H4A C5A 1_555 1_555
C6A C4A 1_555 1_555
C7A C8A 1_555 1_555
C8A C10A 1_555 1_555
C9A H5A 1_555 1_555
C10A C9A 1_555 1_555
H6A C10A 1_555 1_555
C11A H7A 1_555 1_555
C12A C9A 1_555 1_555
H8A C12A 1_555 1_555
N1A Cu1 1_555 1_555
N2A C7A 1_555 1_555
N3A N2A 1_555 1_555
N4A N1A 1_555 1_555
N5A Cu1 1_555 1_555
N6A C3A 1_555 1_555
N6A_2 Cu2A 1_555 1_555
N7A C6A 1_555 1_555
N7A_2 Cu2A 1_555 1_555
O9A Mo2A 1_555 1_555
O10A Mo1A 1_555 1_555
O11A Mo3A 1_555 1_555
O12A Mo3A 1_555 1_555
O13A Mo2A 1_555 1_555
O14A Mo5A 1_555 1_555
O15A Mo6A 1_555 1_555
O16A Mo2A 1_555 1_555
O17A Mo1A 1_555 1_555
O18A Mo4A 1_555 1_555
Cu2A N3A 1_555 1_555
Cu2A_2 N10 1_555 1_555
Cu2A_3 N8A 1_555 1_555
Mo1A O1A 1_555 1_555
Mo2A O1A 1_555 1_555
Mo3A O21 1_555 1_555
Mo4A O6 1_555 1_555
Mo5A O7A 1_555 1_555
Mo6A O4 1_555 1_555
N8A C13A 1_555 1_555
N8A_2 Cu2A 1_555 1_555
C13A H9A 1_555 1_555
C14A N8A 1_555 1_555
H10A C14A 1_555 1_555
C15A C15 1_555 1_555
C16A C14A 1_555 1_555
H11A C16A 1_555 1_555
C17A C13A 1_555 1_555
H12A C17A 1_555 1_555
C18A C18 1_555 1_555
C19A H13A 1_555 1_555
C20A C18A 1_555 1_555
H14A C20A 1_555 1_555
N9A C19A 1_555 1_555
C21A C18A 1_555 1_555
H15A C21A 1_555 1_555
C22A N9A 1_555 1_555
H16A C22A 1_555 1_555
O19A Si1 1_555 1_555
O20A Si1 1_555 1_555
O21A Si1 1_555 1_555
O22A Mo3 1_555 1_555
N10A Cu2 1_555 1_555
N10_2 Cu2A 1_555 1_555
N11A N10A 1_555 1_555
N12A C6A 1_555 1_555
O8 Mo6A 1_555 1_555
C4 N6 1_555 1_555
C11 C12 1_555 1_555
C11 N5 1_555 1_555
N3 N4 1_555 1_555
N5 Cu1 1_555 1_555
N6 Cu2 1_555 1_555
N7 Cu2 1_555 1_555
O9 Mo6 1_555 1_555
O10 Mo6 1_555 1_555
O11 Mo5 1_555 1_555
O13 Mo5 1_555 1_555
O17 Mo2 1_555 1_555
Si1 O21 1_555 1_555
Mo1 O21 1_555 1_555
Mo2 O19 1_555 1_555
Mo3 O19 1_555 1_555
Mo3 O21A 1_555 1_555
Mo4 O20 1_555 1_555
Mo4 O21 1_555 1_555
Mo5 O19 1_555 1_555
Mo5 O20 1_555 1_555
Mo6 O20A 1_555 1_555
C15 C17 1_555 1_555
C21 C22 1_555 1_555
O19 O21A 1_555 1_555
O20 Mo6A 1_555 1_555
O21 O19A 1_555 1_555
O22 Mo3A 1_555 1_555
N11 N12 1_555 1_555
O1A Mo6A 1_555 1_555
O1A O19A 1_555 1_555
O1A O21A 1_555 1_555
O3A Mo4A 1_555 1_555
O4A Mo4A 1_555 1_555
O5A Mo3A 1_555 1_555
O6A Mo3A 1_555 1_555
O8A Mo5A 1_555 1_555
C4A N6A 1_555 1_555
C7A N1A 1_555 1_555
C8A N5A 1_555 1_555
C11A C12A 1_555 1_555
C11A N5A 1_555 1_555
N3A N4A 1_555 1_555
N6A Cu2A_2 1_555 1_555
N7A Cu2A_2 1_555 1_555
N7A N10A 1_555 1_555
O9A Mo6A 1_555 1_555
O10A Mo6A 1_555 1_555
O11A Mo5A 1_555 1_555
O13A Mo5A 1_555 1_555
O17A Mo2A 1_555 1_555
Mo1A O21A 1_555 1_555
Mo1A O22A 1_555 1_555
Mo2A O19A 1_555 1_555
Mo3A O19A 1_555 1_555
Mo4A O20A 1_555 1_555
Mo4A O21A 1_555 1_555
Mo5A O19A 1_555 1_555
Mo5A O20A 1_555 1_555
C15A C16A 1_555 1_555
C15A C17A 1_555 1_555
C19A C20A 1_555 1_555
C21A C22A 1_555 1_555
N11A N12A 1_555 1_555

#END
