
#######################################################################
#
#                 Cambridge Crystallographic Data Centre
#                                CCDC 
#
#######################################################################
#
# If this CIF has been generated from an entry in the Cambridge 
# Structural Database, then it will include bibliographic, chemical, 
# crystal, experimental, refinement or atomic coordinate data resulting 
# from the CCDC's data processing and validation procedures.
#
#######################################################################

data_LELBAH
_symmetry_cell_setting           triclinic
_symmetry_space_group_name_H-M   'P -1'
_symmetry_Int_Tables_number      2
_space_group_name_Hall           '-P 1'
loop_
_symmetry_equiv_pos_site_id
_symmetry_equiv_pos_as_xyz
1 x,y,z
2 -x,-y,-z
_cell_length_a                   12.637(5)
_cell_length_b                   12.944(5)
_cell_length_c                   13.411(5)
_cell_angle_alpha                65.000(5)
_cell_angle_beta                 85.878(5)
_cell_angle_gamma                61.512(5)
_cell_volume                     1724.1
loop_
_atom_site_label
_atom_site_type_symbol
_atom_site_fract_x
_atom_site_fract_y
_atom_site_fract_z
O2 O 0.382(6) -0.311(6) 0.424(6)
H13 H 0.3131 -0.2538 0.4282
H14 H 0.3757 -0.3103 0.3607
C1 C -0.551(3) -0.394(3) -0.191(3)
H1 H -0.5454 -0.4756 -0.1507
C2 C -0.644(3) -0.296(3) -0.283(3)
H2 H -0.6992 -0.3134 -0.3050
C3 C -0.652(3) -0.177(3) -0.340(3)
C4 C -0.744(3) -0.070(3) -0.434(3)
H3 H -0.8030 -0.0812 -0.4583
C5 C -0.747(3) 0.046(3) -0.488(3)
H4 H -0.8084 0.1135 -0.5483
C6 C -0.654(3) 0.065(3) -0.452(3)
C7 C -0.655(3) 0.184(3) -0.504(3)
H5 H -0.7142 0.2544 -0.5651
C8 C -0.565(3) 0.196(3) -0.463(3)
H6 H -0.5622 0.2735 -0.4976
C9 C -0.572(2) -0.028(3) -0.358(2)
C10 C -0.571(3) -0.149(3) -0.302(3)
C11 C -0.470(3) -0.366(3) -0.160(3)
H7 H -0.4053 -0.4320 -0.1017
C12 C -0.480(3) 0.090(3) -0.369(3)
H8 H -0.4202 0.0994 -0.3420
C13 C 0.208(4) -0.484(5) -0.424(3)
H9 H 0.2152 -0.4547 -0.4996
C14 C 0.102(4) -0.435(4) -0.395(3)
H10 H 0.0328 -0.3733 -0.4494
C15 C 0.310(4) -0.579(4) -0.347(4)
H11 H 0.3845 -0.6205 -0.3687
C16 C 0.092(3) -0.476(3) -0.279(3)
C17 C 0.302(3) -0.611(3) -0.238(3)
H12 H 0.3736 -0.6685 -0.1864
C18 C -0.014(3) -0.425(3) -0.234(3)
N1 N -0.189(2) -0.323(2) -0.200(2)
N2 N -0.130(2) -0.332(2) -0.286(2)
N3 N -0.114(2) -0.406(2) -0.104(2)
N4 N -0.005(2) -0.468(2) -0.124(2)
N5 N 0.196(2) -0.564(2) -0.202(2)
N6 N -0.480(2) -0.246(2) -0.212(2)
N7 N -0.481(2) -0.022(2) -0.316(2)
O1 O -0.183(2) -0.613(2) 0.108(2)
O3 O -0.260(3) -0.749(3) 0.046(2)
O4 O -0.3275(19) -0.298(2) -0.0245(18)
O5 O 0.309(3) -1.104(3) 0.109(3)
O6 O -0.203(3) -1.142(3) 0.046(3)
O7 O 0.127(2) -1.232(2) 0.291(2)
O8 O -0.087(3) -0.882(3) 0.215(3)
O9 O 0.150(3) -1.029(3) 0.235(3)
O10 O -0.2931(19) -0.087(2) -0.1614(18)
O11 O -0.027(2) -1.274(3) 0.211(2)
O12 O 0.206(3) -1.478(2) 0.312(2)
O13 O -0.118(2) -1.081(3) 0.266(2)
O14 O 0.049(3) -0.790(3) 0.081(3)
O15 O -0.467(2) -0.703(2) -0.054(2)
O16 O 0.036(2) -1.099(3) 0.419(2)
O17 O -0.258(2) -1.181(2) 0.257(2)
O18 O 0.281(3) -1.304(4) 0.163(3)
O19 O 0.006(3) -1.098(4) 0.114(3)
O20 O 0.013(4) -0.949(4) 0.091(3)
O21 O 0.106(4) -1.147(4) 0.041(4)
O22 O -0.133(4) -0.993(4) 0.010(4)
O23 O -0.128(3) -0.652(3) -0.084(2)
O24 O -0.299(3) -0.945(3) 0.099(3)
Si1 Si 0.0000 -1.0000 0.0000
Cu1 Cu -0.1649(3) -0.4153(3) 0.0451(3)
Cu2 Cu -0.3814(3) -0.1761(3) -0.1793(3)
W1 W -0.17683(13) -1.12359(12) 0.17489(11)
W2 W 0.14002(11) -1.32626(11) 0.21122(10)
W3 W -0.12031(11) -0.73911(12) 0.07232(13)
W4 W 0.19632(13) -0.93885(12) 0.10813(14)
W5 W -0.31621(11) -0.79935(13) -0.03812(12)
W6 W 0.02219(12) -1.06452(13) 0.28424(11)
C1A C 0.551(3) -0.606(3) 0.191(3)
H1A H 0.5454 -0.5244 0.1507
C2A C 0.644(3) -0.704(3) 0.283(3)
H2A H 0.6992 -0.6866 0.3050
C3A C 0.652(3) -0.823(3) 0.340(3)
C4A C 0.744(3) -0.930(3) 0.434(3)
H3A H 0.8030 -0.9188 0.4583
C5A C 0.747(3) -1.046(3) 0.488(3)
H4A H 0.8084 -1.1135 0.5483
C6A C 0.654(3) -1.065(3) 0.452(3)
C7A C 0.655(3) -1.184(3) 0.504(3)
H5A H 0.7142 -1.2544 0.5651
C8A C 0.565(3) -1.196(3) 0.463(3)
H6A H 0.5622 -1.2735 0.4976
C9A C 0.572(2) -0.972(3) 0.358(2)
C10A C 0.571(3) -0.851(3) 0.302(3)
C11A C 0.470(3) -0.634(3) 0.160(3)
H7A H 0.4053 -0.5680 0.1017
C12A C 0.480(3) -1.090(3) 0.369(3)
H8A H 0.4202 -1.0994 0.3420
C13A C -0.208(4) -0.516(5) 0.424(3)
H9A H -0.2152 -0.5453 0.4996
C14A C -0.102(4) -0.565(4) 0.395(3)
H10A H -0.0328 -0.6267 0.4494
C15A C -0.310(4) -0.421(4) 0.347(4)
H11A H -0.3845 -0.3795 0.3687
C16A C -0.092(3) -0.524(3) 0.279(3)
C17A C -0.302(3) -0.389(3) 0.238(3)
H12A H -0.3736 -0.3315 0.1864
C18A C 0.014(3) -0.575(3) 0.234(3)
N1A N 0.189(2) -0.677(2) 0.200(2)
N2A N 0.130(2) -0.668(2) 0.286(2)
N3A N 0.114(2) -0.594(2) 0.104(2)
N4A N 0.005(2) -0.532(2) 0.124(2)
N5A N -0.196(2) -0.436(2) 0.202(2)
N6A N 0.480(2) -0.754(2) 0.212(2)
N7A N 0.481(2) -0.978(2) 0.316(2)
O1A O 0.183(2) -0.387(2) -0.108(2)
O1A_2 O 0.183(2) -1.387(2) -0.108(2)
O3A O 0.260(3) -1.251(3) -0.046(2)
O4A O 0.3275(19) -0.702(2) 0.0245(18)
O5A O -0.309(3) -0.896(3) -0.109(3)
O6A O 0.203(3) -0.858(3) -0.046(3)
O7A O -0.127(2) -0.768(2) -0.291(2)
O8A O 0.087(3) -1.118(3) -0.215(3)
O9A O -0.150(3) -0.971(3) -0.235(3)
O10A O 0.2931(19) -0.913(2) 0.1614(18)
O10_2 O -0.2931(19) -1.087(2) -0.1614(18)
O11A O 0.027(2) -0.726(3) -0.211(2)
O12A O -0.206(3) -0.522(2) -0.312(2)
O13A O 0.118(2) -0.919(3) -0.266(2)
O14A O -0.049(3) -1.210(3) -0.081(3)
O15A O 0.467(2) -1.297(2) 0.054(2)
O16A O -0.036(2) -0.901(3) -0.419(2)
O17A O 0.258(2) -0.819(2) -0.257(2)
O18A O -0.281(3) -0.696(4) -0.163(3)
O19A O -0.006(3) -0.902(4) -0.114(3)
O20A O -0.013(4) -1.051(4) -0.091(3)
O21A O -0.106(4) -0.853(4) -0.041(4)
O22A O 0.133(4) -1.007(4) -0.010(4)
O23A O 0.128(3) -1.348(3) 0.084(2)
O24A O 0.299(3) -1.055(3) -0.099(3)
Cu1A Cu 0.1649(3) -0.5847(3) -0.0451(3)
Cu1A_2 Cu 0.1649(3) -1.5847(3) -0.0451(3)
Cu2A Cu 0.3814(3) -0.8239(3) 0.1793(3)
Cu2_2 Cu -0.3814(3) -1.1761(3) -0.1793(3)
W1A W 0.17683(13) -0.87641(12) -0.17489(11)
W2A W -0.14002(11) -0.67374(11) -0.21122(10)
W3A W 0.12031(11) -1.26089(12) -0.07232(13)
W3A_2 W 0.12031(11) -0.26089(12) -0.07232(13)
W4A W -0.19632(13) -1.06115(12) -0.10813(14)
W4A_2 W -0.19632(13) -0.06115(12) -0.10813(14)
W5A W 0.31621(11) -1.20065(13) 0.03812(12)
W6A W -0.02219(12) -0.93548(13) -0.28424(11)
loop_
_geom_bond_atom_site_label_1
_geom_bond_atom_site_label_2
_geom_bond_site_symmetry_1
_geom_bond_site_symmetry_2
C1 H1 1_555 1_555
C2 C1 1_555 1_555
H2 C2 1_555 1_555
C3 C2 1_555 1_555
C4 C3 1_555 1_555
H3 C4 1_555 1_555
C5 C4 1_555 1_555
H4 C5 1_555 1_555
C6 C5 1_555 1_555
C7 C6 1_555 1_555
H5 C7 1_555 1_555
C8 C7 1_555 1_555
H6 C8 1_555 1_555
C9 C6 1_555 1_555
C10 C3 1_555 1_555
C11 C1 1_555 1_555
H7 C11 1_555 1_555
C12 C8 1_555 1_555
H8 C12 1_555 1_555
C13 H9 1_555 1_555
C14 C13 1_555 1_555
H10 C14 1_555 1_555
C15 C13 1_555 1_555
H11 C15 1_555 1_555
C16 C14 1_555 1_555
C17 C15 1_555 1_555
H12 C17 1_555 1_555
C18 C16 1_555 1_555
N1 N2 1_555 1_555
N2 C18 1_555 1_555
N3 N1 1_555 1_555
N4 C18 1_555 1_555
N5 C16 1_555 1_555
N6 C10 1_555 1_555
N7 C9 1_555 1_555
O1 Cu1 1_555 1_555
O2 H13 1_555 1_555
H14 O2 1_555 1_555
O3 W3 1_555 1_555
O4 Cu1 1_555 1_555
O5 W4 1_555 1_555
O6 W1 1_555 1_555
O7 W2 1_555 1_555
O8 W3 1_555 1_555
O9 W4 1_555 1_555
O10 Cu2 1_555 1_555
O11 W1 1_555 1_555
O12 W2 1_555 1_555
O13 W1 1_555 1_555
O14 W3 1_555 1_555
O15 W5 1_555 1_555
O16 W6 1_555 1_555
O17 W1 1_555 1_555
O18 W2 1_555 1_555
O19 O20 1_555 1_555
O20 Si1 1_555 1_555
O21 O19 1_555 1_555
O22 O19 1_555 1_555
O23 W3 1_555 1_555
O24 W1 1_555 1_555
Si1 O19 1_555 1_555
Cu1 N3 1_555 1_555
Cu2 N1 1_555 1_555
W1 O19 1_555 1_555
W2 O11 1_555 1_555
W3 O1 1_555 1_555
W4 O14 1_555 1_555
W5 O3 1_555 1_555
W6 O7 1_555 1_555
C1A H1A 1_555 1_555
C2A C1A 1_555 1_555
H2A C2A 1_555 1_555
C3A C2A 1_555 1_555
C4A C3A 1_555 1_555
H3A C4A 1_555 1_555
C5A C4A 1_555 1_555
H4A C5A 1_555 1_555
C6A C5A 1_555 1_555
C7A C6A 1_555 1_555
H5A C7A 1_555 1_555
C8A C7A 1_555 1_555
H6A C8A 1_555 1_555
C9A C6A 1_555 1_555
C10A C3A 1_555 1_555
C11A C1A 1_555 1_555
H7A C11A 1_555 1_555
C12A C8A 1_555 1_555
H8A C12A 1_555 1_555
C13A H9A 1_555 1_555
C14A C13A 1_555 1_555
H10A C14A 1_555 1_555
C15A C13A 1_555 1_555
H11A C15A 1_555 1_555
C16A C14A 1_555 1_555
C17A C15A 1_555 1_555
H12A C17A 1_555 1_555
C18A C16A 1_555 1_555
N1A N2A 1_555 1_555
N2A C18A 1_555 1_555
N3A N1A 1_555 1_555
N4A Cu1 1_555 1_555
N5A Cu1 1_555 1_555
N6A C10A 1_555 1_555
N7A C9A 1_555 1_555
O1A Cu1A 1_555 1_555
O1A_2 Cu1A_2 1_555 1_555
O3A W3A 1_555 1_555
O4A Cu1A 1_555 1_555
O5A W5 1_555 1_555
O6A W4 1_555 1_555
O7A W2A 1_555 1_555
O8A W3A 1_555 1_555
O9A W4A 1_555 1_555
O10A W4 1_555 1_555
O10_2 Cu2_2 1_555 1_555
O11A W1A 1_555 1_555
O12A W2A 1_555 1_555
O13A W1A 1_555 1_555
O14A W3A 1_555 1_555
O15A W5A 1_555 1_555
O16A W6A 1_555 1_555
O17A W1A 1_555 1_555
O18A W5 1_555 1_555
O19A Si1 1_555 1_555
O20A Si1 1_555 1_555
O21A O22 1_555 1_555
O22A O21 1_555 1_555
O23A W2 1_555 1_555
O24A W1A 1_555 1_555
Cu1A N4 1_555 1_555
Cu2A N1A 1_555 1_555
W1A O6A 1_555 1_555
W2A O23 1_555 1_555
W3A O21 1_555 1_555
W3A_2 O1A 1_555 1_555
W4A O6 1_555 1_555
W4A_2 O10 1_555 1_555
W5A O5 1_555 1_555
W6A O7A 1_555 1_555
C9 C10 1_555 1_555
C11 N6 1_555 1_555
C12 N7 1_555 1_555
C17 N5 1_555 1_555
N3 N4 1_555 1_555
N5 Cu1A 1_555 1_555
N6 Cu2 1_555 1_555
N7 Cu2 1_555 1_555
O4 Cu2 1_555 1_555
O8 W6 1_555 1_555
O9 W6 1_555 1_555
O13 W6 1_555 1_555
O18 W5A 1_555 1_555
O19 W2 1_555 1_555
O19 W6 1_555 1_555
O20 W3 1_555 1_555
O20 W4 1_555 1_555
O20 W6 1_555 1_555
O21 Si1 1_555 1_555
O21 W2 1_555 1_555
O21 W5A 1_555 1_555
O22 Si1 1_555 1_555
O22 W1 1_555 1_555
O22 W5 1_555 1_555
O22 W4A 1_555 1_555
O24 W5 1_555 1_555
Si1 O21A 1_555 1_555
Si1 O22A 1_555 1_555
W3 O21A 1_555 1_555
W4 O22A 1_555 1_555
W5 O21A 1_555 1_555
C9A C10A 1_555 1_555
C11A N6A 1_555 1_555
C12A N7A 1_555 1_555
C16A N5A 1_555 1_555
C17A N5A 1_555 1_555
C18A N4A 1_555 1_555
N3A N4A 1_555 1_555
N3A Cu1A 1_555 1_555
N6A Cu2A 1_555 1_555
N7A Cu2A 1_555 1_555
O1A_2 W3A 1_555 1_555
O3A W5A 1_555 1_555
O4A Cu2A 1_555 1_555
O5A W4A 1_555 1_555
O8A W6A 1_555 1_555
O9A W6A 1_555 1_555
O10A Cu2A 1_555 1_555
O10_2 W4A 1_555 1_555
O11A W2A 1_555 1_555
O13A W6A 1_555 1_555
O14A W4A 1_555 1_555
O18A W2A 1_555 1_555
O19A O20A 1_555 1_555
O19A O21A 1_555 1_555
O19A O22A 1_555 1_555
O19A W1A 1_555 1_555
O19A W2A 1_555 1_555
O19A W6A 1_555 1_555
O20A W3A 1_555 1_555
O20A W4A 1_555 1_555
O20A W6A 1_555 1_555
O21A W2A 1_555 1_555
O22A W1A 1_555 1_555
O22A W5A 1_555 1_555
O23A W3A 1_555 1_555
O24A W5A 1_555 1_555

#END
