
#######################################################################
#
#                 Cambridge Crystallographic Data Centre
#                                CCDC 
#
#######################################################################
#
# If this CIF has been generated from an entry in the Cambridge 
# Structural Database, then it will include bibliographic, chemical, 
# crystal, experimental, refinement or atomic coordinate data resulting 
# from the CCDC's data processing and validation procedures.
#
#######################################################################

data_LELDOW
_symmetry_cell_setting           cubic
_symmetry_space_group_name_H-M   'I 21 3'
_symmetry_Int_Tables_number      199
_space_group_name_Hall           'I 2b 2c 3'
loop_
_symmetry_equiv_pos_site_id
_symmetry_equiv_pos_as_xyz
1 x,y,z
2 1/2-x,-y,1/2+z
3 -x,1/2+y,1/2-z
4 1/2+x,1/2-y,-z
5 z,x,y
6 1/2+z,1/2-x,-y
7 1/2-z,-x,1/2+y
8 -z,1/2+x,1/2-y
9 y,z,x
10 -y,1/2+z,1/2-x
11 1/2+y,1/2-z,-x
12 1/2-y,-z,1/2+x
13 1/2+x,1/2+y,1/2+z
14 -x,1/2-y,z
15 1/2-x,y,-z
16 x,-y,1/2-z
17 1/2+z,1/2+x,1/2+y
18 z,-x,1/2-y
19 -z,1/2-x,y
20 1/2-z,x,-y
21 1/2+y,1/2+z,1/2+x
22 1/2-y,z,-x
23 y,-z,1/2-x
24 -y,1/2-z,x
_cell_length_a                   23.8747(6)
_cell_length_b                   23.8747(6)
_cell_length_c                   23.8747(6)
_cell_angle_alpha                90
_cell_angle_beta                 90
_cell_angle_gamma                90
_cell_volume                     13608.6
loop_
_atom_site_label
_atom_site_type_symbol
_atom_site_fract_x
_atom_site_fract_y
_atom_site_fract_z
Ag1 Ag 0.4901(5) 0.2548(8) 0.57761(11)
O1 O 0.3985(15) 0.2940(12) 0.5359(9)
N1 N 0.4607(5) 0.1723(4) 0.5987(4)
C2 C 0.4920(6) 0.1311(6) 0.6205(5)
H1 H 0.5316 0.1350 0.6212
C3 C 0.4667(5) 0.0815(5) 0.6426(5)
H2 H 0.4890 0.0517 0.6566
C4 C 0.4100(4) 0.0783(4) 0.6428(4)
C5 C 0.3788(5) 0.1213(4) 0.6189(5)
H3 H 0.3391 0.1196 0.6168
C6 C 0.4082(7) 0.1668(5) 0.5983(5)
H4 H 0.3870 0.1965 0.5825
C7 C 0.3851(4) 0.0292(4) 0.6660(4)
O2 O 0.4091(3) -0.0113(3) 0.6839(4)
O3 O 0.3287(3) 0.0314(2) 0.6683(3)
C8 C 0.3009(4) -0.0184(4) 0.6791(3)
C9 C 0.2991(3) -0.0594(3) 0.6382(3)
H5 H 0.3183 -0.0541 0.6037
C10 C 0.2728(3) -0.0232(3) 0.7294(3)
C11 C 0.2700(3) -0.1070(3) 0.6476(3)
H6 H 0.2692 -0.1349 0.6192
C12 C 0.2412(3) -0.0726(3) 0.7381(3)
C13 C 0.2407(3) -0.1169(3) 0.6976(4)
C14 C 0.2111(3) -0.1632(4) 0.7053(4)
H7 H 0.2106 -0.1912 0.6771
C15 C 0.1811(4) -0.1709(4) 0.7542(5)
C16 C 0.1811(4) -0.1300(4) 0.7953(4)
H8 H 0.1606 -0.1352 0.8290
C17 C 0.2111(4) -0.0823(4) 0.7865(4)
H9 H 0.2112 -0.0544 0.8149
Br1 Br 0.13670(5) -0.23521(5) 0.76392(7)
Ag1O Ag 0.4901(5) -0.2548(8) 0.92239(11)
Ag1M Ag 0.5099(5) 0.2452(8) 0.57761(11)
Ag1B Ag 0.5099(5) 0.7548(8) 0.92239(11)
Ag1B_2 Ag 0.5099(5) -0.2452(8) 0.92239(11)
Ag1O_2 Ag 0.4901(5) 0.7452(8) 0.92239(11)
Ag1_2 Ag 0.4901(5) -0.7452(8) 0.57761(11)
Ag1M_2 Ag 0.5099(5) -0.7548(8) 0.57761(11)
O1O O 0.3985(15) -0.2940(12) 0.9641(9)
O1M O 0.6015(15) 0.2060(12) 0.5359(9)
O1B O 0.6015(15) 0.7940(12) 0.9641(9)
O1B_2 O 0.6015(15) -0.2060(12) 0.9641(9)
O1O_2 O 0.3985(15) 0.7060(12) 0.9641(9)
N1O N 0.4607(5) -0.1723(4) 0.9013(4)
N1M N 0.5393(5) 0.3277(4) 0.5987(4)
N1B N 0.5393(5) 0.6723(4) 0.9013(4)
N1B_2 N 0.5393(5) -0.3277(4) 0.9013(4)
N1M_2 N 0.5393(5) -0.6723(4) 0.5987(4)
N1O_2 N 0.4607(5) 0.8277(4) 0.9013(4)
C2O C 0.4920(6) -0.1311(6) 0.8795(5)
C2M C 0.5080(6) 0.3689(6) 0.6205(5)
C2B C 0.5080(6) 0.6311(6) 0.8795(5)
C2B_2 C 0.5080(6) -0.3689(6) 0.8795(5)
C2M_2 C 0.5080(6) -0.6311(6) 0.6205(5)
H1O H 0.5316 -0.1350 0.8788
H1M H 0.4684 0.3650 0.6212
H1B H 0.4684 0.6350 0.8788
H1B_2 H 0.4684 -0.3650 0.8788
H1M_2 H 0.4684 -0.6350 0.6212
C3O C 0.4667(5) -0.0815(5) 0.8574(5)
C3M C 0.5333(5) 0.4185(5) 0.6426(5)
C3B C 0.5333(5) 0.5815(5) 0.8574(5)
C3B_2 C 0.5333(5) -0.4185(5) 0.8574(5)
C3M_2 C 0.5333(5) -0.5815(5) 0.6426(5)
H2O H 0.4890 -0.0517 0.8434
H2M H 0.5110 0.4483 0.6566
H2B H 0.5110 0.5517 0.8434
H2B_2 H 0.5110 -0.4483 0.8434
H2M_2 H 0.5110 -0.5517 0.6566
C4O C 0.4100(4) -0.0783(4) 0.8572(4)
C4M C 0.5900(4) 0.4217(4) 0.6428(4)
C4B C 0.5900(4) 0.5783(4) 0.8572(4)
C4B_2 C 0.5900(4) -0.4217(4) 0.8572(4)
C4M_2 C 0.5900(4) -0.5783(4) 0.6428(4)
C5O C 0.3788(5) -0.1213(4) 0.8811(5)
C5M C 0.6212(5) 0.3787(4) 0.6189(5)
C5B C 0.6212(5) 0.6213(4) 0.8811(5)
C5B_2 C 0.6212(5) -0.3787(4) 0.8811(5)
C5M_2 C 0.6212(5) -0.6213(4) 0.6189(5)
H3O H 0.3391 -0.1196 0.8832
H3M H 0.6609 0.3804 0.6168
H3B H 0.6609 0.6196 0.8832
H3B_2 H 0.6609 -0.3804 0.8832
H3M_2 H 0.6609 -0.6196 0.6168
C6O C 0.4082(7) -0.1668(5) 0.9017(5)
C6M C 0.5918(7) 0.3332(5) 0.5983(5)
C6B C 0.5918(7) 0.6668(5) 0.9017(5)
C6B_2 C 0.5918(7) -0.3332(5) 0.9017(5)
C6M_2 C 0.5918(7) -0.6668(5) 0.5983(5)
H4O H 0.3870 -0.1965 0.9175
H4M H 0.6130 0.3035 0.5825
H4B H 0.6130 0.6965 0.9175
H4B_2 H 0.6130 -0.3035 0.9175
H4M_2 H 0.6130 -0.6965 0.5825
C7O C 0.3851(4) -0.0292(4) 0.8340(4)
C7M C 0.6149(4) 0.4708(4) 0.6660(4)
C7B C 0.6149(4) 0.5292(4) 0.8340(4)
C7B_2 C 0.6149(4) -0.4708(4) 0.8340(4)
C7M_2 C 0.6149(4) -0.5292(4) 0.6660(4)
O2O O 0.4091(3) 0.0113(3) 0.8161(4)
O2M O 0.5909(3) 0.5113(3) 0.6839(4)
O2B O 0.5909(3) 0.4887(3) 0.8161(4)
O2B_2 O 0.5909(3) -0.5113(3) 0.8161(4)
O2M_2 O 0.5909(3) -0.4887(3) 0.6839(4)
O3O O 0.3287(3) -0.0314(2) 0.8317(3)
O3M O 0.6713(3) 0.4686(2) 0.6683(3)
O3B O 0.6713(3) 0.5314(2) 0.8317(3)
O3B_2 O 0.6713(3) -0.4686(2) 0.8317(3)
O3M_2 O 0.6713(3) -0.5314(2) 0.6683(3)
C8O C 0.3009(4) 0.0184(4) 0.8209(3)
C8M C 0.6991(4) 0.5184(4) 0.6791(3)
C8B C 0.6991(4) 0.4816(4) 0.8209(3)
C8B_2 C 0.6991(4) -0.5184(4) 0.8209(3)
C8M_2 C 0.6991(4) -0.4816(4) 0.6791(3)
C9O C 0.2991(3) 0.0594(3) 0.8618(3)
C9M C 0.7009(3) 0.5594(3) 0.6382(3)
C9B C 0.7009(3) 0.4406(3) 0.8618(3)
C9B_2 C 0.7009(3) -0.5594(3) 0.8618(3)
C9M_2 C 0.7009(3) -0.4406(3) 0.6382(3)
H5O H 0.3183 0.0541 0.8963
H5M H 0.6817 0.5541 0.6037
H5B H 0.6817 0.4459 0.8963
H5B_2 H 0.6817 -0.5541 0.8963
H5M_2 H 0.6817 -0.4459 0.6037
C10O C 0.2728(3) 0.0232(3) 0.7706(3)
C10M C 0.7272(3) 0.5232(3) 0.7294(3)
C10B C 0.7272(3) 0.4768(3) 0.7706(3)
C10B_2 C 0.7272(3) -0.5232(3) 0.7706(3)
C10M_2 C 0.7272(3) -0.4768(3) 0.7294(3)
C11O C 0.2700(3) 0.1070(3) 0.8524(3)
C11M C 0.7300(3) 0.6070(3) 0.6476(3)
C11B C 0.7300(3) 0.3930(3) 0.8524(3)
C11B_2 C 0.7300(3) -0.6070(3) 0.8524(3)
C11M_2 C 0.7300(3) -0.3930(3) 0.6476(3)
H6O H 0.2692 0.1349 0.8808
H6M H 0.7308 0.6349 0.6192
H6B H 0.7308 0.3651 0.8808
H6B_2 H 0.7308 -0.6349 0.8808
H6M_2 H 0.7308 -0.3651 0.6192
C12O C 0.2412(3) 0.0726(3) 0.7619(3)
C12M C 0.7588(3) 0.5726(3) 0.7381(3)
C12B C 0.7588(3) 0.4274(3) 0.7619(3)
C12B_2 C 0.7588(3) -0.5726(3) 0.7619(3)
C12M_2 C 0.7588(3) -0.4274(3) 0.7381(3)
C13O C 0.2407(3) 0.1169(3) 0.8024(4)
C13M C 0.7593(3) 0.6169(3) 0.6976(4)
C13B C 0.7593(3) 0.3831(3) 0.8024(4)
C13B_2 C 0.7593(3) -0.6169(3) 0.8024(4)
C13M_2 C 0.7593(3) -0.3831(3) 0.6976(4)
C14O C 0.2111(3) 0.1632(4) 0.7947(4)
C14M C 0.7889(3) 0.6632(4) 0.7053(4)
C14B C 0.7889(3) 0.3368(4) 0.7947(4)
C14B_2 C 0.7889(3) -0.6632(4) 0.7947(4)
C14M_2 C 0.7889(3) -0.3368(4) 0.7053(4)
H7O H 0.2106 0.1912 0.8229
H7M H 0.7894 0.6912 0.6771
H7B H 0.7894 0.3088 0.8229
H7B_2 H 0.7894 -0.6912 0.8229
H7M_2 H 0.7894 -0.3088 0.6771
C15O C 0.1811(4) 0.1709(4) 0.7458(5)
C15M C 0.8189(4) 0.6709(4) 0.7542(5)
C15B C 0.8189(4) 0.3291(4) 0.7458(5)
C15B_2 C 0.8189(4) -0.6709(4) 0.7458(5)
C15M_2 C 0.8189(4) -0.3291(4) 0.7542(5)
C16O C 0.1811(4) 0.1300(4) 0.7047(4)
C16M C 0.8189(4) 0.6300(4) 0.7953(4)
C16B C 0.8189(4) 0.3700(4) 0.7047(4)
C16B_2 C 0.8189(4) -0.6300(4) 0.7047(4)
C16M_2 C 0.8189(4) -0.3700(4) 0.7953(4)
H8O H 0.1606 0.1352 0.6710
H8M H 0.8394 0.6352 0.8290
H8B H 0.8394 0.3648 0.6710
H8B_2 H 0.8394 -0.6352 0.6710
H8M_2 H 0.8394 -0.3648 0.8290
C17O C 0.2111(4) 0.0823(4) 0.7135(4)
C17M C 0.7889(4) 0.5823(4) 0.7865(4)
C17B C 0.7889(4) 0.4177(4) 0.7135(4)
C17B_2 C 0.7889(4) -0.5823(4) 0.7135(4)
C17M_2 C 0.7889(4) -0.4177(4) 0.7865(4)
H9O H 0.2112 0.0544 0.6851
H9M H 0.7888 0.5544 0.8149
H9B H 0.7888 0.4456 0.6851
H9B_2 H 0.7888 -0.5544 0.6851
H9M_2 H 0.7888 -0.4456 0.8149
Br1O Br 0.13670(5) 0.23521(5) 0.73608(7)
Br1M Br 0.86330(5) 0.73521(5) 0.76392(7)
Br1B Br 0.86330(5) 0.26479(5) 0.73608(7)
Br1B_2 Br 0.86330(5) -0.73521(5) 0.73608(7)
Br1M_2 Br 0.86330(5) -0.26479(5) 0.76392(7)
B1 B 0.5000 0.2500 0.1038(6)
F1 F 0.4626(7) 0.2345(9) 0.0521(6)
F2 F 0.4544(7) 0.2602(9) 0.1489(7)
F1M F 0.5374(7) 0.2655(9) 0.0521(6)
F2M F 0.5456(7) 0.2398(9) 0.1489(7)
C1 C 0.5053(10) 0.4947(10) 0.9947(10)
Cl1 Cl 0.5465(2) 0.4535(2) 0.9535(2)
Cl2 Cl 0.5417(4) 0.5578(4) 1.0094(4)
Cl2F Cl 0.4906(4) 0.4583(4) 1.0578(4)
Cl2I Cl 0.4422(4) 0.5094(4) 0.9583(4)
F3? F 0.5208(7) 0.2651(9) 0.1632(6)
F4? F 0.4370(4) 0.2670(8) 0.1045(7)
loop_
_geom_bond_atom_site_label_1
_geom_bond_atom_site_label_2
_geom_bond_site_symmetry_1
_geom_bond_site_symmetry_2
C1 Cl1 1_555 1_555
Ag1 O1 1_555 1_555
N1 Ag1 1_555 1_555
C2 N1 1_555 1_555
H1 C2 1_555 1_555
C3 C2 1_555 1_555
H2 C3 1_555 1_555
C4 C3 1_555 1_555
C5 C4 1_555 1_555
H3 C5 1_555 1_555
C6 N1 1_555 1_555
H4 C6 1_555 1_555
C7 C4 1_555 1_555
O2 C7 1_555 1_555
O3 C7 1_555 1_555
C8 O3 1_555 1_555
C9 C8 1_555 1_555
H5 C9 1_555 1_555
C10 C8 1_555 1_555
C11 C9 1_555 1_555
H6 C11 1_555 1_555
C12 C10 1_555 1_555
C13 C11 1_555 1_555
C14 C13 1_555 1_555
H7 C14 1_555 1_555
C15 C14 1_555 1_555
C16 C15 1_555 1_555
H8 C16 1_555 1_555
C17 C12 1_555 1_555
H9 C17 1_555 1_555
Br1 C15 1_555 1_555
B1 F1 1_555 1_555
F2 B1 1_555 1_555
Cl2 C1 1_555 1_555
Ag1O Ag1B_2 1_555 1_555
Ag1M Ag1 1_555 1_555
Ag1B Ag1O_2 1_555 1_555
Ag1B_2 O1B_2 1_555 1_555
Ag1O_2 O1O_2 1_555 1_555
Ag1_2 Ag1M_2 1_555 1_555
Ag1M_2 N1M_2 1_555 1_555
O1O Ag1O 1_555 1_555
O1M Ag1M 1_555 1_555
O1B Ag1B 1_555 1_555
N1O Ag1O 1_555 1_555
N1M Ag1 1_555 1_555
N1B Ag1B 1_555 1_555
N1B_2 Ag1O 1_555 1_555
N1M_2 Ag1_2 1_555 1_555
N1O_2 Ag1B 1_555 1_555
C2O N1O 1_555 1_555
C2M N1M 1_555 1_555
C2B N1B 1_555 1_555
C2B_2 N1B_2 1_555 1_555
C2M_2 N1M_2 1_555 1_555
H1O C2O 1_555 1_555
H1M C2M 1_555 1_555
H1B C2B 1_555 1_555
H1B_2 C2B_2 1_555 1_555
H1M_2 C2M_2 1_555 1_555
C3O C2O 1_555 1_555
C3M C2M 1_555 1_555
C3B C2B 1_555 1_555
C3B_2 C2B_2 1_555 1_555
C3M_2 C2M_2 1_555 1_555
H2O C3O 1_555 1_555
H2M C3M 1_555 1_555
H2B C3B 1_555 1_555
H2B_2 C3B_2 1_555 1_555
H2M_2 C3M_2 1_555 1_555
C4O C3O 1_555 1_555
C4M C3M 1_555 1_555
C4B C3B 1_555 1_555
C4B_2 C3B_2 1_555 1_555
C4M_2 C3M_2 1_555 1_555
C5O C4O 1_555 1_555
C5M C4M 1_555 1_555
C5B C4B 1_555 1_555
C5B_2 C4B_2 1_555 1_555
C5M_2 C4M_2 1_555 1_555
H3O C5O 1_555 1_555
H3M C5M 1_555 1_555
H3B C5B 1_555 1_555
H3B_2 C5B_2 1_555 1_555
H3M_2 C5M_2 1_555 1_555
C6O N1O 1_555 1_555
C6M N1M 1_555 1_555
C6B N1B 1_555 1_555
C6B_2 N1B_2 1_555 1_555
C6M_2 N1M_2 1_555 1_555
H4O C6O 1_555 1_555
H4M C6M 1_555 1_555
H4B C6B 1_555 1_555
H4B_2 C6B_2 1_555 1_555
H4M_2 C6M_2 1_555 1_555
C7O C4O 1_555 1_555
C7M C4M 1_555 1_555
C7B C4B 1_555 1_555
C7B_2 C4B_2 1_555 1_555
C7M_2 C4M_2 1_555 1_555
O2O C7O 1_555 1_555
O2M C7M 1_555 1_555
O2B C7B 1_555 1_555
O2B_2 C7B_2 1_555 1_555
O2M_2 C7M_2 1_555 1_555
O3O C7O 1_555 1_555
O3M C7M 1_555 1_555
O3B C7B 1_555 1_555
O3B_2 C7B_2 1_555 1_555
O3M_2 C7M_2 1_555 1_555
C8O O3O 1_555 1_555
C8M O3M 1_555 1_555
C8B O3B 1_555 1_555
C8B_2 O3B_2 1_555 1_555
C8M_2 O3M_2 1_555 1_555
C9O C8O 1_555 1_555
C9M C8M 1_555 1_555
C9B C8B 1_555 1_555
C9B_2 C8B_2 1_555 1_555
C9M_2 C8M_2 1_555 1_555
H5O C9O 1_555 1_555
H5M C9M 1_555 1_555
H5B C9B 1_555 1_555
H5B_2 C9B_2 1_555 1_555
H5M_2 C9M_2 1_555 1_555
C10O C10 1_555 1_555
C10M C8M 1_555 1_555
C10B C8B 1_555 1_555
C10B_2 C8B_2 1_555 1_555
C10M_2 C8M_2 1_555 1_555
C11O C9O 1_555 1_555
C11M C9M 1_555 1_555
C11B C9B 1_555 1_555
C11B_2 C9B_2 1_555 1_555
C11M_2 C9M_2 1_555 1_555
H6O C11O 1_555 1_555
H6M C11M 1_555 1_555
H6B C11B 1_555 1_555
H6B_2 C11B_2 1_555 1_555
H6M_2 C11M_2 1_555 1_555
C12O C10O 1_555 1_555
C12M C10M 1_555 1_555
C12B C10B 1_555 1_555
C12B_2 C10B_2 1_555 1_555
C12M_2 C10M_2 1_555 1_555
C13O C11O 1_555 1_555
C13M C11M 1_555 1_555
C13B C11B 1_555 1_555
C13B_2 C11B_2 1_555 1_555
C13M_2 C11M_2 1_555 1_555
C14O C13O 1_555 1_555
C14M C13M 1_555 1_555
C14B C13B 1_555 1_555
C14B_2 C13B_2 1_555 1_555
C14M_2 C13M_2 1_555 1_555
H7O C14O 1_555 1_555
H7M C14M 1_555 1_555
H7B C14B 1_555 1_555
H7B_2 C14B_2 1_555 1_555
H7M_2 C14M_2 1_555 1_555
C15O C14O 1_555 1_555
C15M C14M 1_555 1_555
C15B C14B 1_555 1_555
C15B_2 C14B_2 1_555 1_555
C15M_2 C14M_2 1_555 1_555
C16O C15O 1_555 1_555
C16M C15M 1_555 1_555
C16B C15B 1_555 1_555
C16B_2 C15B_2 1_555 1_555
C16M_2 C15M_2 1_555 1_555
H8O C16O 1_555 1_555
H8M C16M 1_555 1_555
H8B C16B 1_555 1_555
H8B_2 C16B_2 1_555 1_555
H8M_2 C16M_2 1_555 1_555
C17O C12O 1_555 1_555
C17M C12M 1_555 1_555
C17B C12B 1_555 1_555
C17B_2 C12B_2 1_555 1_555
C17M_2 C12M_2 1_555 1_555
H9O C17O 1_555 1_555
H9M C17M 1_555 1_555
H9B C17B 1_555 1_555
H9B_2 C17B_2 1_555 1_555
H9M_2 C17M_2 1_555 1_555
Br1O C15O 1_555 1_555
Br1M C15M 1_555 1_555
Br1B C15B 1_555 1_555
Br1B_2 C15B_2 1_555 1_555
Br1M_2 C15M_2 1_555 1_555
F1M B1 1_555 1_555
F2M B1 1_555 1_555
Cl2F C1 1_555 1_555
Cl2I C1 1_555 1_555
N1 Ag1M 1_555 1_555
C5 C6 1_555 1_555
C12 C13 1_555 1_555
C16 C17 1_555 1_555
Ag1M N1M 1_555 1_555
Ag1B_2 N1O 1_555 1_555
Ag1B_2 N1B_2 1_555 1_555
Ag1O_2 N1B 1_555 1_555
Ag1O_2 N1O_2 1_555 1_555
C5O C6O 1_555 1_555
C5M C6M 1_555 1_555
C5B C6B 1_555 1_555
C5B_2 C6B_2 1_555 1_555
C5M_2 C6M_2 1_555 1_555
C8O C10O 1_555 1_555
C10M C10B 1_555 1_555
C10B_2 C10M_2 1_555 1_555
C12O C13O 1_555 1_555
C12M C13M 1_555 1_555
C12B C13B 1_555 1_555
C12B_2 C13B_2 1_555 1_555
C12M_2 C13M_2 1_555 1_555
C16O C17O 1_555 1_555
C16M C17M 1_555 1_555
C16B C17B 1_555 1_555
C16B_2 C17B_2 1_555 1_555
C16M_2 C17M_2 1_555 1_555

#END
