
#######################################################################
#
#                 Cambridge Crystallographic Data Centre
#                                CCDC 
#
#######################################################################
#
# If this CIF has been generated from an entry in the Cambridge 
# Structural Database, then it will include bibliographic, chemical, 
# crystal, experimental, refinement or atomic coordinate data resulting 
# from the CCDC's data processing and validation procedures.
#
#######################################################################

data_LELLUL
_symmetry_cell_setting           triclinic
_symmetry_space_group_name_H-M   'P -1'
_symmetry_Int_Tables_number      2
_space_group_name_Hall           '-P 1'
loop_
_symmetry_equiv_pos_site_id
_symmetry_equiv_pos_as_xyz
1 x,y,z
2 -x,-y,-z
_cell_length_a                   7.659(7)
_cell_length_b                   11.510(10)
_cell_length_c                   13.686(12)
_cell_angle_alpha                74.096(9)
_cell_angle_beta                 82.415(9)
_cell_angle_gamma                76.996(9)
_cell_volume                     1127.36
loop_
_atom_site_label
_atom_site_type_symbol
_atom_site_fract_x
_atom_site_fract_y
_atom_site_fract_z
Ag1 Ag 0.80211(7) 0.77404(5) 0.89759(4)
Ag2 Ag 0.45760(7) 0.69284(5) 0.97421(4)
Ag3 Ag 0.19568(7) 1.49649(5) 0.89749(4)
Ag4 Ag 0.74678(7) 1.02198(5) 0.99129(4)
C1 C 0.5256(9) 0.9775(6) 0.8091(5)
C2 C 0.4287(9) 1.0932(6) 0.7372(5)
C3 C 0.3791(8) 1.2096(6) 0.7603(5)
C4 C 0.2874(9) 1.3065(6) 0.6890(5)
C5 C 0.2415(9) 1.2932(6) 0.5981(5)
C6 C 0.2973(10) 1.1793(7) 0.5752(5)
C7 C 0.3901(9) 1.0815(6) 0.6454(5)
C8 C 0.7862(9) 0.5188(6) 0.8640(5)
C9 C 0.8000(8) 0.4264(6) 0.7994(5)
C10 C 0.8825(9) 0.3018(6) 0.8320(5)
C11 C 0.8904(9) 0.2240(6) 0.7699(5)
C12 C 0.8069(10) 0.2676(7) 0.6784(5)
C13 C 0.7249(10) 0.3886(7) 0.6487(5)
C14 C 0.7212(9) 0.4686(7) 0.7082(6)
C15 C 0.1883(9) 0.7831(7) 0.7899(6)
H1 H 0.1532 0.8515 0.8168
C16 C 0.1974(14) 0.6950(9) 0.6488(7)
H2 H 0.2807 0.6303 0.6893
H3 H 0.0944 0.6640 0.6422
H4 H 0.2545 0.7240 0.5825
C17 C 0.0320(12) 0.9083(7) 0.6426(7)
H5 H -0.0033 0.9647 0.6853
H6 H 0.1001 0.9448 0.5825
H7 H -0.0732 0.8901 0.6236
C18 C 0.9708(8) 0.2510(6) 0.9323(5)
C19 C 0.4246(8) 1.2262(6) 0.8588(5)
F1 F 0.2270(6) 1.4205(4) 0.7050(4)
F2 F 0.1424(6) 1.3886(4) 0.5326(3)
F3 F 0.2552(7) 1.1642(5) 0.4879(4)
F4 F 0.4407(7) 0.9707(4) 0.6223(3)
F5 F 0.9830(6) 0.1066(4) 0.7920(3)
F6 F 0.8197(7) 0.1906(4) 0.6159(3)
F7 F 0.6384(7) 0.4300(5) 0.5604(3)
F8 F 0.6362(6) 0.5873(4) 0.6771(3)
N1 N 0.1412(8) 0.7957(6) 0.6977(5)
O1 O 0.6903(6) 0.9687(5) 0.8135(4)
O2 O 0.4316(7) 0.9004(5) 0.8530(4)
O3 O 0.4416(7) 1.1299(5) 0.9321(4)
O4 O 0.4463(7) 1.3298(5) 0.8613(4)
O5 O 0.8798(7) 0.5987(5) 0.8331(4)
O6 O 0.6777(7) 0.5053(5) 0.9423(4)
O7 O 1.0494(7) 0.3235(4) 0.9576(4)
O8 O 0.9654(6) 0.1435(4) 0.9828(4)
O9 O 0.2758(7) 0.6876(5) 0.8446(4)
Ag1A Ag 1.19789(7) 0.22596(5) 1.10241(4)
Ag2A Ag 0.54240(7) 1.30716(5) 1.02579(4)
Ag3A Ag 0.80432(7) 0.50351(5) 1.10251(4)
Ag3_2 Ag 1.19568(7) 0.49649(5) 0.89749(4)
Ag3_3 Ag 0.19568(7) 0.49649(5) 0.89749(4)
Ag4A Ag 0.25322(7) 0.97802(5) 1.00871(4)
Ag4_2 Ag 0.74678(7) 0.02198(5) 0.99129(4)
O3A O 0.5584(7) 0.8701(5) 1.0679(4)
O4A O 0.5537(7) 0.6702(5) 1.1387(4)
O6A O 0.3223(7) 1.4947(5) 1.0577(4)
O7A O 0.9506(7) 0.6765(4) 1.0424(4)
O7_2 O 0.0494(7) 1.3235(4) 0.9576(4)
O8_2 O 0.9654(6) 1.1435(4) 0.9828(4)
O9_2 O 0.2758(7) 1.6876(5) 0.8446(4)
loop_
_geom_bond_atom_site_label_1
_geom_bond_atom_site_label_2
_geom_bond_site_symmetry_1
_geom_bond_site_symmetry_2
Ag1 O1 1_555 1_555
Ag2 O2 1_555 1_555
Ag3 O4 1_555 1_555
Ag4 O3 1_555 1_555
C1 C2 1_555 1_555
C2 C3 1_555 1_555
C3 C4 1_555 1_555
C4 C5 1_555 1_555
C5 C6 1_555 1_555
C6 C7 1_555 1_555
C7 C2 1_555 1_555
C8 C9 1_555 1_555
C9 C10 1_555 1_555
C10 C11 1_555 1_555
C11 C12 1_555 1_555
C12 C13 1_555 1_555
C13 C14 1_555 1_555
C14 C9 1_555 1_555
C15 H1 1_555 1_555
C16 H2 1_555 1_555
H3 C16 1_555 1_555
H4 C16 1_555 1_555
C17 H5 1_555 1_555
H6 C17 1_555 1_555
H7 C17 1_555 1_555
C18 C10 1_555 1_555
C19 C3 1_555 1_555
F1 C4 1_555 1_555
F2 C5 1_555 1_555
F3 C6 1_555 1_555
F4 C7 1_555 1_555
F5 C11 1_555 1_555
F6 C12 1_555 1_555
F7 C13 1_555 1_555
F8 C14 1_555 1_555
N1 C15 1_555 1_555
O1 C1 1_555 1_555
O2 C1 1_555 1_555
O3 C19 1_555 1_555
O4 C19 1_555 1_555
O5 Ag1 1_555 1_555
O6 Ag2 1_555 1_555
O7 C18 1_555 1_555
O8 C18 1_555 1_555
O9 Ag2 1_555 1_555
Ag1A O7 1_555 1_555
Ag2A O4 1_555 1_555
Ag3A O6 1_555 1_555
Ag3_2 O7 1_555 1_555
Ag3_3 O9 1_555 1_555
Ag4A O3 1_555 1_555
Ag4_2 O8 1_555 1_555
O3A Ag4 1_555 1_555
O4A Ag2 1_555 1_555
O6A Ag3 1_555 1_555
O7A Ag1 1_555 1_555
O7_2 Ag3 1_555 1_555
O8_2 Ag4 1_555 1_555
O9_2 Ag3 1_555 1_555
C8 O5 1_555 1_555
C8 O6 1_555 1_555
C15 O9 1_555 1_555
C16 N1 1_555 1_555
C17 N1 1_555 1_555
Ag2A O6A 1_555 1_555
Ag3A O4A 1_555 1_555
Ag3A O7A 1_555 1_555
Ag4A O3A 1_555 1_555

#END
