
#######################################################################
#
#                 Cambridge Crystallographic Data Centre
#                                CCDC 
#
#######################################################################
#
# If this CIF has been generated from an entry in the Cambridge 
# Structural Database, then it will include bibliographic, chemical, 
# crystal, experimental, refinement or atomic coordinate data resulting 
# from the CCDC's data processing and validation procedures.
#
#######################################################################

data_LELMUL
_symmetry_cell_setting           monoclinic
_symmetry_space_group_name_H-M   'C 2/c'
_symmetry_Int_Tables_number      15
_space_group_name_Hall           '-C 2yn'
loop_
_symmetry_equiv_pos_site_id
_symmetry_equiv_pos_as_xyz
1 x,y,z
2 1/2+x,1/2+y,z
3 -x,y,1/2-z
4 1/2-x,1/2+y,1/2-z
5 -x,-y,-z
6 1/2-x,1/2-y,-z
7 x,-y,1/2+z
8 1/2+x,1/2-y,1/2+z
_cell_length_a                   22.408(6)
_cell_length_b                   11.382(3)
_cell_length_c                   20.863(5)
_cell_angle_alpha                90
_cell_angle_beta                 99.570(4)
_cell_angle_gamma                90
_cell_volume                     5247.01
loop_
_atom_site_label
_atom_site_type_symbol
_atom_site_fract_x
_atom_site_fract_y
_atom_site_fract_z
Cd1 Cd 0.149500(13) 1.71449(2) 0.307560(13)
C1 C 0.53665(18) 0.7299(3) 1.0032(2)
C2 C 0.55390(19) 0.6501(3) 1.05342(18)
H1 H 0.5413 0.5722 1.0497
C3 C 0.5894(2) 0.6889(3) 1.10873(19)
C4 C 0.6096(2) 0.8059(3) 1.11565(18)
H2 H 0.6346 0.8305 1.1534
C5 C 0.59140(18) 0.8825(3) 1.06572(17)
C6 C 0.55490(18) 0.8458(3) 1.00918(18)
H3 H 0.5416 0.8986 0.9758
C7 C 0.4923(2) 0.7555(4) 0.89241(19)
H4 H 0.4797 0.8337 0.9029
H5 H 0.4604 0.7223 0.8604
C8 C 0.5493(2) 0.7644(3) 0.86356(19)
C9 C 0.59280(19) 0.5033(3) 1.16080(19)
H6 H 0.6032 0.4674 1.1220
H7 H 0.5495 0.4951 1.1594
C10 C 0.6275(2) 0.4407(3) 1.21982(19)
C11 C 0.64900(19) 1.0402(3) 1.11941(19)
H8 H 0.6642 1.1156 1.1075
H9 H 0.6827 0.9856 1.1251
C12 C 0.62682(19) 1.0551(3) 1.18396(18)
C13 C 0.21049(17) 1.6248(3) 0.44749(19)
H10 H 0.1904 1.6915 0.4585
C14 C 0.24502(17) 1.5612(3) 0.4965(2)
H11 H 0.2513 1.5881 0.5392
C15 C 0.2708(2) 1.4575(4) 0.4807(2)
C16 C 0.2612(2) 1.4223(4) 0.4162(2)
H12 H 0.2759 1.3498 0.4055
C17 C 0.22674(19) 1.4920(4) 0.3709(2)
H13 H 0.2217 1.4678 0.3277
C18 C 0.44452(18) 1.1071(3) 0.61661(18)
H14 H 0.4579 1.0370 0.6010
C19 C 0.41720(17) 1.1863(3) 0.5729(2)
H15 H 0.4126 1.1693 0.5287
C20 C 0.39821(18) 1.2925(3) 0.5926(2)
C21 C 0.40443(18) 1.3081(3) 0.65905(18)
H16 H 0.3912 1.3779 0.6752
C22 C 0.43022(17) 1.2227(3) 0.70072(19)
H17 H 0.4329 1.2355 0.7451
C23 C 0.30315(17) 1.3786(4) 0.53683(19)
H18 H 0.2903 1.3991 0.5776
H19 H 0.2920 1.2973 0.5275
C24 C 0.37075(16) 1.3875(3) 0.54488(18)
H20 H 0.3835 1.4644 0.5618
H21 H 0.3842 1.3773 0.5034
N1 N 0.20242(15) 1.5929(3) 0.38534(17)
N2 N 0.45113(15) 1.1228(3) 0.68104(16)
O1 O 0.49970(14) 0.6855(2) 0.94950(13)
O2 O 0.60939(12) 0.6217(2) 1.16198(12)
O3 O 0.60579(11) 1.0002(2) 1.06746(12)
O4 O 0.55080(13) 0.8401(2) 0.81885(13)
O5 O 0.59300(14) 0.6981(3) 0.88129(14)
O6 O 0.61481(12) 0.3348(2) 1.22376(14)
O7 O 0.66506(13) 0.4964(2) 1.25743(14)
O8 O 0.57320(13) 1.0335(2) 1.18716(13)
O9 O 0.66663(13) 1.0897(2) 1.22927(13)
O10 O 0.23105(12) 1.8390(2) 0.33046(12)
Cd2 Cd 0.5000 0.97957(3) 0.7500
H22 H 0.2582 1.8188 0.3086
H23 H 0.2196 1.9088 0.3204
Cd1B Cd 0.850500(13) 1.71449(2) 1.192440(13)
Cd1G Cd 0.649500(13) 0.78551(2) 0.807560(13)
Cd1A Cd 0.649500(13) 0.21449(2) 1.307560(13)
Cd1A_2 Cd 0.649500(13) 1.21449(2) 1.307560(13)
Cd1E Cd 0.350500(13) 0.78551(2) 0.692440(13)
Cd1C Cd 0.350500(13) 0.21449(2) 0.192440(13)
Cd1C_2 Cd 0.350500(13) 1.21449(2) 0.192440(13)
C1B C 0.46335(18) 0.7299(3) 0.4968(2)
C2B C 0.44610(19) 0.6501(3) 0.44658(18)
H1B H 0.4587 0.5722 0.4503
C3B C 0.4106(2) 0.6889(3) 0.39127(19)
C4B C 0.3904(2) 0.8059(3) 0.38435(18)
H2B H 0.3654 0.8305 0.3466
C5B C 0.40860(18) 0.8825(3) 0.43428(17)
C6B C 0.44510(18) 0.8458(3) 0.49082(18)
H3B H 0.4584 0.8986 0.5242
C7B C 0.5077(2) 0.7555(4) 0.60759(19)
H4B H 0.5203 0.8337 0.5971
H5B H 0.5396 0.7223 0.6396
C8B C 0.4507(2) 0.7644(3) 0.63644(19)
C9B C 0.40720(19) 0.5033(3) 0.33920(19)
H6B H 0.3968 0.4674 0.3780
H7B H 0.4505 0.4951 0.3406
C10B C 0.3725(2) 0.4407(3) 0.28018(19)
C11B C 0.35100(19) 1.0402(3) 0.38059(19)
H8B H 0.3358 1.1156 0.3925
H9B H 0.3173 0.9856 0.3749
C12B C 0.37318(19) 1.0551(3) 0.31604(18)
C13B C 0.78951(17) 1.6248(3) 1.05251(19)
H10B H 0.8096 1.6915 1.0415
C14B C 0.75498(17) 1.5612(3) 1.0035(2)
H11B H 0.7487 1.5881 0.9608
C15B C 0.7292(2) 1.4575(4) 1.0193(2)
C16B C 0.7388(2) 1.4223(4) 1.0838(2)
H12B H 0.7241 1.3498 1.0945
C17B C 0.77326(19) 1.4920(4) 1.1291(2)
H13B H 0.7783 1.4678 1.1723
C18B C 0.55548(18) 1.1071(3) 0.88339(18)
H14B H 0.5421 1.0370 0.8990
C19B C 0.58280(17) 1.1863(3) 0.9271(2)
H15B H 0.5874 1.1693 0.9713
C20B C 0.60179(18) 1.2925(3) 0.9074(2)
C21B C 0.59557(18) 1.3081(3) 0.84095(18)
H16B H 0.6088 1.3779 0.8248
C22B C 0.56978(17) 1.2227(3) 0.79928(19)
H17B H 0.5671 1.2355 0.7549
C23B C 0.69685(17) 1.3786(4) 0.96317(19)
H18B H 0.7097 1.3991 0.9224
H19B H 0.7080 1.2973 0.9725
C24B C 0.62925(16) 1.3875(3) 0.95512(18)
H20B H 0.6165 1.4644 0.9382
H21B H 0.6158 1.3773 0.9966
N1B N 0.79758(15) 1.5929(3) 1.11466(17)
N2B N 0.54887(15) 1.1228(3) 0.81896(16)
O1B O 0.50030(14) 0.6855(2) 0.55050(13)
O2B O 0.39061(12) 0.6217(2) 0.33802(12)
O3B O 0.39421(11) 1.0002(2) 0.43254(12)
O4B O 0.44920(13) 0.8401(2) 0.68115(13)
O4G O 0.05080(13) 1.6599(2) 0.31885(13)
O4E O 0.94920(13) 1.6599(2) 1.18115(13)
O5B O 0.40700(14) 0.6981(3) 0.61871(14)
O5G O 0.09300(14) 1.8019(3) 0.38129(14)
O5E O 0.90700(14) 1.8019(3) 1.11871(14)
O6B O 0.38519(12) 0.3348(2) 0.27624(14)
O6A O 0.11481(12) 1.8348(2) 0.22376(14)
O6C O 0.88519(12) 1.8348(2) 1.27624(14)
O7B O 0.33494(13) 0.4964(2) 0.24257(14)
O8B O 0.42680(13) 1.0335(2) 0.31284(13)
O8F O 0.57320(13) 0.9665(2) 0.68716(13)
O8D O 0.42680(13) 0.9665(2) 0.81284(13)
O9B O 0.33337(13) 1.0897(2) 0.27073(13)
O9A O 0.16663(13) 1.5897(2) 0.22927(13)
O9C O 0.83337(13) 1.5897(2) 1.27073(13)
O10B O 0.76895(12) 1.8390(2) 1.16954(12)
Cd2F Cd 0.5000 1.02043(3) 1.2500
Cd2F_2 Cd 0.5000 1.02043(3) 0.2500
H22B H 0.7418 1.8188 1.1914
H23B H 0.7804 1.9088 1.1796
O11 O 0.77865(13) 0.7837(2) 0.73853(13)
H24 H 0.8059 0.8300 0.7571
H25 H 0.7509 0.8233 0.7154
loop_
_geom_bond_atom_site_label_1
_geom_bond_atom_site_label_2
_geom_bond_site_symmetry_1
_geom_bond_site_symmetry_2
Cd1 N1 1_555 1_555
C1 C2 1_555 1_555
C2 H1 1_555 1_555
C3 C2 1_555 1_555
C4 C3 1_555 1_555
H2 C4 1_555 1_555
C5 C4 1_555 1_555
C6 C1 1_555 1_555
H3 C6 1_555 1_555
C7 H4 1_555 1_555
H5 C7 1_555 1_555
C8 C7 1_555 1_555
C9 H6 1_555 1_555
H7 C9 1_555 1_555
C10 C9 1_555 1_555
C11 H8 1_555 1_555
H9 C11 1_555 1_555
C12 C11 1_555 1_555
C13 H10 1_555 1_555
C14 C13 1_555 1_555
H11 C14 1_555 1_555
C15 C14 1_555 1_555
C16 C15 1_555 1_555
H12 C16 1_555 1_555
C17 C16 1_555 1_555
H13 C17 1_555 1_555
C18 H14 1_555 1_555
C19 C18 1_555 1_555
H15 C19 1_555 1_555
C20 C19 1_555 1_555
C21 C20 1_555 1_555
H16 C21 1_555 1_555
C22 C21 1_555 1_555
H17 C22 1_555 1_555
C23 C15 1_555 1_555
H18 C23 1_555 1_555
H19 C23 1_555 1_555
C24 C20 1_555 1_555
H20 C24 1_555 1_555
H21 C24 1_555 1_555
N1 C13 1_555 1_555
N2 C18 1_555 1_555
O1 C1 1_555 1_555
O2 C3 1_555 1_555
O3 C5 1_555 1_555
O4 C8 1_555 1_555
O5 C8 1_555 1_555
O6 C10 1_555 1_555
O7 C10 1_555 1_555
O8 C12 1_555 1_555
O9 C12 1_555 1_555
O10 Cd1 1_555 1_555
Cd2 N2 1_555 1_555
H22 O10 1_555 1_555
H23 O10 1_555 1_555
O11 H24 1_555 1_555
H25 O11 1_555 1_555
Cd1B N1B 1_555 1_555
Cd1G O4 1_555 1_555
Cd1A O6 1_555 1_555
Cd1A_2 O9 1_555 1_555
Cd1E O4B 1_555 1_555
Cd1C O6B 1_555 1_555
Cd1C_2 O9B 1_555 1_555
C1B C2B 1_555 1_555
C2B H1B 1_555 1_555
C3B C2B 1_555 1_555
C4B C3B 1_555 1_555
H2B C4B 1_555 1_555
C5B C4B 1_555 1_555
C6B C1B 1_555 1_555
H3B C6B 1_555 1_555
C7B H4B 1_555 1_555
H5B C7B 1_555 1_555
C8B C7B 1_555 1_555
C9B H6B 1_555 1_555
H7B C9B 1_555 1_555
C10B C9B 1_555 1_555
C11B H8B 1_555 1_555
H9B C11B 1_555 1_555
C12B C11B 1_555 1_555
C13B H10B 1_555 1_555
C14B C13B 1_555 1_555
H11B C14B 1_555 1_555
C15B C14B 1_555 1_555
C16B C15B 1_555 1_555
H12B C16B 1_555 1_555
C17B C16B 1_555 1_555
H13B C17B 1_555 1_555
C18B H14B 1_555 1_555
C19B C18B 1_555 1_555
H15B C19B 1_555 1_555
C20B C19B 1_555 1_555
C21B C20B 1_555 1_555
H16B C21B 1_555 1_555
C22B C21B 1_555 1_555
H17B C22B 1_555 1_555
C23B C15B 1_555 1_555
H18B C23B 1_555 1_555
H19B C23B 1_555 1_555
C24B C20B 1_555 1_555
H20B C24B 1_555 1_555
H21B C24B 1_555 1_555
N1B C13B 1_555 1_555
N2B Cd2 1_555 1_555
O1B C1B 1_555 1_555
O2B C3B 1_555 1_555
O3B C5B 1_555 1_555
O4B Cd2 1_555 1_555
O4G Cd1 1_555 1_555
O4E Cd1B 1_555 1_555
O5B Cd1E 1_555 1_555
O5G Cd1 1_555 1_555
O5E Cd1B 1_555 1_555
O6B C10B 1_555 1_555
O6A Cd1 1_555 1_555
O6C Cd1B 1_555 1_555
O7B C10B 1_555 1_555
O8B C12B 1_555 1_555
O8F Cd2 1_555 1_555
O8D Cd2 1_555 1_555
O9B C12B 1_555 1_555
O9A Cd1 1_555 1_555
O9C Cd1B 1_555 1_555
O10B Cd1B 1_555 1_555
Cd2F O8 1_555 1_555
Cd2F_2 O8B 1_555 1_555
H22B O10B 1_555 1_555
H23B O10B 1_555 1_555
C5 C6 1_555 1_555
C7 O1 1_555 1_555
C9 O2 1_555 1_555
C11 O3 1_555 1_555
C17 N1 1_555 1_555
C22 N2 1_555 1_555
C23 C24 1_555 1_555
O4 Cd2 1_555 1_555
O5 Cd1G 1_555 1_555
C5B C6B 1_555 1_555
C7B O1B 1_555 1_555
C8B O4B 1_555 1_555
C8B O5B 1_555 1_555
C9B O2B 1_555 1_555
C11B O3B 1_555 1_555
C17B N1B 1_555 1_555
C18B N2B 1_555 1_555
C22B N2B 1_555 1_555
C23B C24B 1_555 1_555

#END
