
#######################################################################
#
#                 Cambridge Crystallographic Data Centre
#                                CCDC 
#
#######################################################################
#
# If this CIF has been generated from an entry in the Cambridge 
# Structural Database, then it will include bibliographic, chemical, 
# crystal, experimental, refinement or atomic coordinate data resulting 
# from the CCDC's data processing and validation procedures.
#
#######################################################################

data_LELMOF
_symmetry_cell_setting           triclinic
_symmetry_space_group_name_H-M   'P -1'
_symmetry_Int_Tables_number      2
_space_group_name_Hall           '-P 1'
loop_
_symmetry_equiv_pos_site_id
_symmetry_equiv_pos_as_xyz
1 x,y,z
2 -x,-y,-z
_cell_length_a                   10.906(3)
_cell_length_b                   11.677(3)
_cell_length_c                   11.741(3)
_cell_angle_alpha                73.556(5)
_cell_angle_beta                 69.348(4)
_cell_angle_gamma                71.177(5)
_cell_volume                     1299.89
loop_
_atom_site_label
_atom_site_type_symbol
_atom_site_fract_x
_atom_site_fract_y
_atom_site_fract_z
Cd1 Cd 0.76355(3) 1.05591(3) -0.07027(3)
Cd2 Cd 1.0000 0.5000 1.0000
C1 C 0.5582(4) 0.8289(4) 0.4939(4)
C2 C 0.4184(4) 0.8553(4) 0.5420(4)
H1 H 0.3599 0.8991 0.4941
C3 C 0.3733(4) 0.8097(4) 0.6694(4)
C4 C 0.4602(4) 0.7310(4) 0.7391(4)
H2 H 0.4258 0.6951 0.8213
C5 C 0.5912(4) 0.7093(4) 0.6856(5)
C6 C 0.6486(5) 0.7550(5) 0.5606(4)
H3 H 0.7417 0.7372 0.5241
C7 C 0.5300(4) 0.9487(4) 0.2975(4)
H4 H 0.4745 1.0201 0.3342
H5 H 0.4707 0.9036 0.2948
C8 C 0.6164(4) 0.9898(4) 0.1663(4)
C9 C 0.1467(4) 0.9304(4) 0.6780(3)
H6 H 0.1328 0.9061 0.6118
H7 H 0.1881 0.9994 0.6414
C10 C 0.0116(4) 0.9713(4) 0.7695(4)
C11 C 0.6369(4) 0.5746(4) 0.8689(4)
H8 H 0.5904 0.5175 0.8665
H9 H 0.5720 0.6333 0.9192
C12 C 0.7495(4) 0.5047(4) 0.9270(4)
C13 C 0.7198(4) 1.3014(4) -0.2659(4)
H10 H 0.8108 1.2863 -0.2720
C14 C 0.6688(5) 1.3979(4) -0.3547(4)
H11 H 0.7227 1.4462 -0.4156
C15 C 0.5314(4) 1.4165(4) -0.3455(4)
C16 C 0.4553(4) 1.3541(4) -0.2440(4)
H12 H 0.3621 1.3734 -0.2293
C17 C 0.5160(4) 1.2612(4) -0.1617(4)
H13 H 0.4622 1.2178 -0.0943
C18 C 0.4618(4) 1.5123(4) -0.4343(4)
H14 H 0.4615 1.5940 -0.4296
H15 H 0.3688 1.5080 -0.4130
N1 N 0.6498(4) 1.2323(3) -0.1766(3)
O1 O 0.6192(3) 0.8703(2) 0.3716(2)
O2 O 0.2327(3) 0.8331(3) 0.7339(3)
O3 O 0.6878(3) 0.6386(3) 0.7458(3)
O4 O 0.7407(3) 0.9561(3) 0.1367(3)
O5 O 0.5522(3) 1.0584(3) 0.0930(3)
O6 O -0.0731(3) 1.0526(3) 0.7300(3)
O7 O -0.0126(3) 0.9235(3) 0.8820(3)
O8 O 0.7255(4) 0.4210(3) 1.0131(3)
O9 O 0.8583(3) 0.5343(3) 0.8796(3)
O10 O 0.7111(3) 0.8996(3) -0.1105(3)
H16 H 0.7412 0.8317 -0.0665
H17 H 0.6257 0.9134 -0.0930
O11 O 0.8624(3) 1.1861(3) -0.0348(3)
H18 H 0.8006 1.2444 -0.0037
H19 H 0.9087 1.1461 0.0154
O12 O 1.1325(3) 0.3173(3) 0.9446(3)
H20 H 1.0843 0.2661 0.9654
H21 H 1.1688 0.3285 0.8666
O13 O 1.1292(3) 0.5981(3) 0.8216(3)
H22 H 1.1996 0.6019 0.8345
H23 H 1.1523 0.5579 0.7641
Cd1A Cd 1.23645(3) -0.05591(3) 2.07027(3)
Cd1_2 Cd -0.23645(3) 1.05591(3) 0.92973(3)
Cd1A_2 Cd 0.23645(3) 1.94409(3) -0.92973(3)
Cd1A_3 Cd 2.23645(3) -0.05591(3) 1.07027(3)
C1A C 1.4418(4) 0.1711(4) 1.5061(4)
C2A C 1.5816(4) 0.1447(4) 1.4580(4)
H1A H 1.6401 0.1009 1.5059
C3A C 1.6267(4) 0.1903(4) 1.3306(4)
C4A C 1.5398(4) 0.2690(4) 1.2609(4)
H2A H 1.5742 0.3049 1.1787
C5A C 1.4088(4) 0.2907(4) 1.3144(5)
C6A C 1.3514(5) 0.2450(5) 1.4394(4)
H3A H 1.2583 0.2628 1.4759
C7A C 1.4700(4) 0.0513(4) 1.7025(4)
H4A H 1.5255 -0.0201 1.6658
H5A H 1.5293 0.0964 1.7052
C8A C 1.3836(4) 0.0102(4) 1.8337(4)
C9A C 1.8533(4) 0.0696(4) 1.3220(3)
H6A H 1.8672 0.0939 1.3882
H7A H 1.8119 0.0006 1.3586
C10A C 1.9884(4) 0.0287(4) 1.2305(4)
C11A C 1.3631(4) 0.4254(4) 1.1311(4)
H8A H 1.4096 0.4825 1.1335
H9A H 1.4280 0.3667 1.0808
C12A C 1.2505(4) 0.4953(4) 1.0730(4)
C13A C 0.2802(4) 1.6986(4) -0.7341(4)
H10A H 0.1892 1.7137 -0.7280
C14A C 0.3312(5) 1.6021(4) -0.6453(4)
H11A H 0.2773 1.5538 -0.5844
C15A C 0.4686(4) 1.5835(4) -0.6545(4)
C16A C 0.5447(4) 1.6459(4) -0.7560(4)
H12A H 0.6379 1.6266 -0.7707
C17A C 0.4840(4) 1.7388(4) -0.8383(4)
H13A H 0.5378 1.7822 -0.9057
C18A C 0.5382(4) 1.4877(4) -0.5657(4)
H14A H 0.5385 1.4060 -0.5704
H15A H 0.6312 1.4920 -0.5870
N1A N 0.3502(4) 1.7677(3) -0.8234(3)
N1A_2 N 1.3502(4) -0.2323(3) 2.1766(3)
O1A O 1.3808(3) 0.1297(2) 1.6284(2)
O2A O 1.7673(3) 0.1669(3) 1.2661(3)
O3A O 1.3122(3) 0.3614(3) 1.2542(3)
O4A O 1.2593(3) 0.0439(3) 1.8633(3)
O5A O 1.4478(3) -0.0584(3) 1.9070(3)
O6A O 2.0731(3) -0.0526(3) 1.2700(3)
O6_2 O 0.9269(3) 1.0526(3) -0.2700(3)
O6A_2 O 1.0731(3) -0.0526(3) 2.2700(3)
O7A O 2.0126(3) 0.0765(3) 1.1180(3)
O7_2 O 0.9874(3) 0.9235(3) -0.1180(3)
O7A_2 O 1.0126(3) 0.0765(3) 2.1180(3)
O8A O 1.2745(4) 0.5790(3) 0.9869(3)
O9A O 1.1417(3) 0.4657(3) 1.1204(3)
O10A O 1.2889(3) 0.1004(3) 2.1105(3)
H16A H 1.2588 0.1683 2.0665
H17A H 1.3743 0.0866 2.0930
O11A O 1.1376(3) -0.1861(3) 2.0348(3)
H18A H 1.1994 -0.2444 2.0037
H19A H 1.0913 -0.1461 1.9846
O12A O 0.8675(3) 0.6827(3) 1.0554(3)
H20A H 0.9157 0.7339 1.0346
H21A H 0.8312 0.6715 1.1334
O13A O 0.8708(3) 0.4019(3) 1.1784(3)
H22A H 0.8004 0.3981 1.1655
H23A H 0.8477 0.4421 1.2359
O14 O 0.0486(3) 0.4840(3) 0.6045(3)
H24 H 0.0132 0.5489 0.5604
H25 H -0.0101 0.4430 0.6463
O15 O 0.0813(3) 0.2537(3) 0.7593(3)
H26 H 0.0511 0.1926 0.8065
H27 H 0.1471 0.2295 0.6989
O16 O 0.0689(6) 0.7224(6) 0.5943(5)
H28 H 0.1366 0.7487 0.5443
H29 H 0.0005 0.7830 0.6083
loop_
_geom_bond_atom_site_label_1
_geom_bond_atom_site_label_2
_geom_bond_site_symmetry_1
_geom_bond_site_symmetry_2
Cd1 N1 1_555 1_555
Cd2 O9 1_555 1_555
C1 C2 1_555 1_555
C2 H1 1_555 1_555
C3 C2 1_555 1_555
C4 C3 1_555 1_555
H2 C4 1_555 1_555
C5 C4 1_555 1_555
C6 C1 1_555 1_555
H3 C6 1_555 1_555
C7 H4 1_555 1_555
H5 C7 1_555 1_555
C8 C7 1_555 1_555
C9 H6 1_555 1_555
H7 C9 1_555 1_555
C10 C9 1_555 1_555
C11 H8 1_555 1_555
H9 C11 1_555 1_555
C12 C11 1_555 1_555
C13 H10 1_555 1_555
C14 C13 1_555 1_555
H11 C14 1_555 1_555
C15 C14 1_555 1_555
C16 C15 1_555 1_555
H12 C16 1_555 1_555
C17 C16 1_555 1_555
H13 C17 1_555 1_555
C18 C15 1_555 1_555
H14 C18 1_555 1_555
H15 C18 1_555 1_555
N1 C13 1_555 1_555
O1 C1 1_555 1_555
O2 C3 1_555 1_555
O3 C5 1_555 1_555
O4 Cd1 1_555 1_555
O5 Cd1 1_555 1_555
O6 C10 1_555 1_555
O7 C10 1_555 1_555
O8 C12 1_555 1_555
O9 C12 1_555 1_555
O10 Cd1 1_555 1_555
H16 O10 1_555 1_555
H17 O10 1_555 1_555
O11 Cd1 1_555 1_555
H18 O11 1_555 1_555
H19 O11 1_555 1_555
O12 Cd2 1_555 1_555
H20 O12 1_555 1_555
H21 O12 1_555 1_555
O13 Cd2 1_555 1_555
H22 O13 1_555 1_555
H23 O13 1_555 1_555
O14 H24 1_555 1_555
H25 O14 1_555 1_555
O15 H26 1_555 1_555
H27 O15 1_555 1_555
O16 H28 1_555 1_555
H29 O16 1_555 1_555
Cd1A N1A_2 1_555 1_555
Cd1_2 O6 1_555 1_555
Cd1A_2 N1A 1_555 1_555
Cd1A_3 O6A 1_555 1_555
C1A C2A 1_555 1_555
C2A H1A 1_555 1_555
C3A C2A 1_555 1_555
C4A C3A 1_555 1_555
H2A C4A 1_555 1_555
C5A C4A 1_555 1_555
C6A C1A 1_555 1_555
H3A C6A 1_555 1_555
C7A H4A 1_555 1_555
H5A C7A 1_555 1_555
C8A C7A 1_555 1_555
C9A H6A 1_555 1_555
H7A C9A 1_555 1_555
C10A C9A 1_555 1_555
C11A H8A 1_555 1_555
H9A C11A 1_555 1_555
C12A C11A 1_555 1_555
C13A H10A 1_555 1_555
C14A C13A 1_555 1_555
H11A C14A 1_555 1_555
C15A C14A 1_555 1_555
C16A C15A 1_555 1_555
H12A C16A 1_555 1_555
C17A C16A 1_555 1_555
H13A C17A 1_555 1_555
C18A C18 1_555 1_555
H14A C18A 1_555 1_555
H15A C18A 1_555 1_555
N1A C13A 1_555 1_555
O1A C1A 1_555 1_555
O2A C3A 1_555 1_555
O3A C5A 1_555 1_555
O4A Cd1A 1_555 1_555
O5A Cd1A 1_555 1_555
O6A C10A 1_555 1_555
O6_2 Cd1 1_555 1_555
O6A_2 Cd1A 1_555 1_555
O7A Cd1A_3 1_555 1_555
O7_2 Cd1 1_555 1_555
O7A_2 Cd1A 1_555 1_555
O8A C12A 1_555 1_555
O9A Cd2 1_555 1_555
O10A Cd1A 1_555 1_555
H16A O10A 1_555 1_555
H17A O10A 1_555 1_555
O11A Cd1A 1_555 1_555
H18A O11A 1_555 1_555
H19A O11A 1_555 1_555
O12A Cd2 1_555 1_555
H20A O12A 1_555 1_555
H21A O12A 1_555 1_555
O13A Cd2 1_555 1_555
H22A O13A 1_555 1_555
H23A O13A 1_555 1_555
C5 C6 1_555 1_555
C7 O1 1_555 1_555
C8 O4 1_555 1_555
C8 O5 1_555 1_555
C9 O2 1_555 1_555
C11 O3 1_555 1_555
C17 N1 1_555 1_555
O7 Cd1_2 1_555 1_555
C5A C6A 1_555 1_555
C7A O1A 1_555 1_555
C8A O4A 1_555 1_555
C8A O5A 1_555 1_555
C9A O2A 1_555 1_555
C10A O7A 1_555 1_555
C11A O3A 1_555 1_555
C12A O9A 1_555 1_555
C15A C18A 1_555 1_555
C17A N1A 1_555 1_555

#END
