
#######################################################################
#
#                 Cambridge Crystallographic Data Centre
#                                CCDC 
#
#######################################################################
#
# If this CIF has been generated from an entry in the Cambridge 
# Structural Database, then it will include bibliographic, chemical, 
# crystal, experimental, refinement or atomic coordinate data resulting 
# from the CCDC's data processing and validation procedures.
#
#######################################################################

data_LELMIZ
_symmetry_cell_setting           triclinic
_symmetry_space_group_name_H-M   'P -1'
_symmetry_Int_Tables_number      2
_space_group_name_Hall           '-P 1'
loop_
_symmetry_equiv_pos_site_id
_symmetry_equiv_pos_as_xyz
1 x,y,z
2 -x,-y,-z
_cell_length_a                   9.824(7)
_cell_length_b                   11.936(8)
_cell_length_c                   12.680(9)
_cell_angle_alpha                64.565(10)
_cell_angle_beta                 75.945(10)
_cell_angle_gamma                72.288(10)
_cell_volume                     1268.16
loop_
_atom_site_label
_atom_site_type_symbol
_atom_site_fract_x
_atom_site_fract_y
_atom_site_fract_z
Cd1 Cd 1.13922(5) 0.21447(4) 0.41325(4)
Cd2 Cd 0.0000 0.0000 1.0000
C1 C 0.5482(6) 0.4367(5) 0.6575(6)
C2 C 0.5050(6) 0.5682(5) 0.6231(5)
H1 H 0.5618 0.6211 0.5654
C3 C 0.3743(6) 0.6187(5) 0.6773(5)
C4 C 0.2902(6) 0.5395(6) 0.7678(5)
H2 H 0.2053 0.5726 0.8069
C5 C 0.3407(6) 0.4088(6) 0.7962(6)
C6 C 0.4660(6) 0.3559(5) 0.7414(5)
H3 H 0.4943 0.2685 0.7604
C7 C 0.7638(6) 0.4534(6) 0.5195(6)
H4 H 0.7942 0.5037 0.5488
H5 H 0.7106 0.5115 0.4539
C8 C 0.8933(6) 0.3694(6) 0.4787(5)
C9 C 0.3791(6) 0.8294(5) 0.5454(5)
H6 H 0.3957 0.7976 0.4836
H7 H 0.4717 0.8322 0.5573
C10 C 0.2838(6) 0.9634(5) 0.5066(5)
C11 C 0.1279(6) 0.3719(6) 0.9401(5)
H8 H 0.0681 0.4450 0.8865
H9 H 0.1483 0.3970 0.9969
C12 C 0.0494(6) 0.2610(5) 1.0040(5)
C13 C 1.3719(6) 0.2776(6) 0.1801(5)
H10 H 1.3834 0.1904 0.2026
C14 C 1.4645(6) 0.3348(5) 0.0874(5)
H11 H 1.5359 0.2874 0.0499
C15 C 1.4514(7) 0.4648(6) 0.0492(5)
C16 C 1.3398(6) 0.5265(5) 0.1099(5)
H12 H 1.3228 0.6143 0.0866
C17 C 1.2541(6) 0.4585(5) 0.2043(5)
H13 H 1.1827 0.5022 0.2451
N1 N 1.2681(6) 0.3326(5) 0.2407(4)
O1 O 0.6747(5) 0.3790(4) 0.6091(4)
O2 O 0.3184(4) 0.7474(4) 0.6476(4)
O3 O 0.2600(5) 0.3269(4) 0.8760(4)
O4 O 0.9120(4) 0.2517(3) 0.5214(3)
O5 O 0.9833(4) 0.4246(4) 0.3982(4)
O6 O 0.3439(4) 1.0469(4) 0.4228(4)
O7 O 0.1611(4) 0.9870(4) 0.5547(3)
O8 O -0.0393(4) 0.2716(4) 1.0869(3)
O9 O 0.0904(4) 0.1701(4) 0.9608(3)
O10 O 1.0329(4) 0.1525(4) 0.3106(3)
H14 H 0.9672 0.1154 0.3566
H15 H 0.9961 0.2176 0.2542
O11 O 1.2367(4) 0.2354(4) 0.5492(4)
H16 H 1.3238 0.1934 0.5509
H17 H 1.1891 0.2070 0.6169
O12 O 0.1612(4) -0.1393(4) 1.1200(4)
H18 H 0.1936 -0.0982 1.1451
H19 H 0.1314 -0.2003 1.1780
O13 O -0.1611(4) 0.0678(4) 1.1476(4)
H20 H -0.1153 0.0665 1.1971
H21 H -0.2095 0.1430 1.1143
Cd1A Cd -1.13922(5) -0.21447(4) 1.58675(4)
Cd1_2 Cd 0.13922(5) 1.21447(4) 0.41325(4)
Cd1A_2 Cd 1.86078(5) 0.78553(4) -0.41325(4)
Cd1A_3 Cd -0.13922(5) -1.21447(4) 1.58675(4)
C1A C -0.5482(6) -0.4367(5) 1.3425(6)
C2A C -0.5050(6) -0.5682(5) 1.3769(5)
H1A H -0.5618 -0.6211 1.4346
C3A C -0.3743(6) -0.6187(5) 1.3227(5)
C4A C -0.2902(6) -0.5395(6) 1.2322(5)
H2A H -0.2053 -0.5726 1.1931
C5A C -0.3407(6) -0.4088(6) 1.2038(6)
C6A C -0.4660(6) -0.3559(5) 1.2586(5)
H3A H -0.4943 -0.2685 1.2396
C7A C -0.7638(6) -0.4534(6) 1.4805(6)
H4A H -0.7942 -0.5037 1.4512
H5A H -0.7106 -0.5115 1.5461
C8A C -0.8933(6) -0.3694(6) 1.5213(5)
C9A C -0.3791(6) -0.8294(5) 1.4546(5)
H6A H -0.3957 -0.7976 1.5164
H7A H -0.4717 -0.8322 1.4427
C10A C -0.2838(6) -0.9634(5) 1.4934(5)
C11A C -0.1279(6) -0.3719(6) 1.0599(5)
H8A H -0.0681 -0.4450 1.1135
H9A H -0.1483 -0.3970 1.0031
C12A C -0.0494(6) -0.2610(5) 0.9960(5)
C13A C 1.6281(6) 0.7224(6) -0.1801(5)
H10A H 1.6166 0.8096 -0.2026
C14A C 1.5355(6) 0.6652(5) -0.0874(5)
H11A H 1.4641 0.7126 -0.0499
C15A C 1.5486(7) 0.5352(6) -0.0492(5)
C16A C 1.6602(6) 0.4735(5) -0.1099(5)
H12A H 1.6772 0.3857 -0.0866
C17A C 1.7459(6) 0.5415(5) -0.2043(5)
H13A H 1.8173 0.4978 -0.2451
N1A N 1.7319(6) 0.6674(5) -0.2407(4)
N1A_2 N -1.2681(6) -0.3326(5) 1.7593(4)
O1A O -0.6747(5) -0.3790(4) 1.3909(4)
O2A O -0.3184(4) -0.7474(4) 1.3524(4)
O3A O -0.2600(5) -0.3269(4) 1.1240(4)
O4A O -0.9120(4) -0.2517(3) 1.4786(3)
O5A O -0.9833(4) -0.4246(4) 1.6018(4)
O6A O -0.3439(4) -1.0469(4) 1.5772(4)
O6_2 O 1.3439(4) 0.0469(4) 0.4228(4)
O6A_2 O -1.3439(4) -0.0469(4) 1.5772(4)
O7A O -0.1611(4) -0.9870(4) 1.4453(3)
O7_2 O 1.1611(4) -0.0130(4) 0.5547(3)
O7A_2 O -1.1611(4) 0.0130(4) 1.4453(3)
O8A O 0.0393(4) -0.2716(4) 0.9131(3)
O9A O -0.0904(4) -0.1701(4) 1.0392(3)
O10A O -1.0329(4) -0.1525(4) 1.6894(3)
H14A H -0.9672 -0.1154 1.6434
H15A H -0.9961 -0.2176 1.7458
O11A O -1.2367(4) -0.2354(4) 1.4508(4)
H16A H -1.3238 -0.1934 1.4491
H17A H -1.1891 -0.2070 1.3831
O12A O -0.1612(4) 0.1393(4) 0.8800(4)
H18A H -0.1936 0.0982 0.8549
H19A H -0.1314 0.2003 0.8220
O13A O 0.1611(4) -0.0678(4) 0.8524(4)
H20A H 0.1153 -0.0665 0.8029
H21A H 0.2095 -0.1430 0.8857
O14 O 0.5769(4) 0.9587(3) 0.0960(3)
H22 H 0.5440 1.0345 0.0929
H23 H 0.6664 0.9477 0.0706
O15 O 0.2120(4) 0.9233(3) 0.2807(3)
H24 H 0.2572 0.8575 0.3316
H25 H 0.1399 0.9610 0.3154
O16 O 0.0533(5) 0.3209(4) 0.7129(4)
H26 H 0.1333 0.3395 0.7043
H27 H 0.0190 0.3582 0.6477
O17 O 0.6016(4) -0.0202(4) 0.2991(4)
H28 H 0.5460 0.0423 0.3149
H29 H 0.6887 -0.0184 0.2943
loop_
_geom_bond_atom_site_label_1
_geom_bond_atom_site_label_2
_geom_bond_site_symmetry_1
_geom_bond_site_symmetry_2
Cd1 N1 1_555 1_555
Cd2 O9 1_555 1_555
C1 C2 1_555 1_555
C2 H1 1_555 1_555
C3 C2 1_555 1_555
C4 C3 1_555 1_555
H2 C4 1_555 1_555
C5 C4 1_555 1_555
C6 C1 1_555 1_555
H3 C6 1_555 1_555
C7 H4 1_555 1_555
H5 C7 1_555 1_555
C8 C7 1_555 1_555
C9 H6 1_555 1_555
H7 C9 1_555 1_555
C10 C9 1_555 1_555
C11 H8 1_555 1_555
H9 C11 1_555 1_555
C12 C11 1_555 1_555
C13 H10 1_555 1_555
C14 C13 1_555 1_555
H11 C14 1_555 1_555
C15 C14 1_555 1_555
C16 C15 1_555 1_555
H12 C16 1_555 1_555
C17 C16 1_555 1_555
H13 C17 1_555 1_555
N1 C13 1_555 1_555
O1 C1 1_555 1_555
O2 C3 1_555 1_555
O3 C5 1_555 1_555
O4 Cd1 1_555 1_555
O5 Cd1 1_555 1_555
O6 C10 1_555 1_555
O7 C10 1_555 1_555
O8 C12 1_555 1_555
O9 C12 1_555 1_555
O10 Cd1 1_555 1_555
H14 O10 1_555 1_555
H15 O10 1_555 1_555
O11 Cd1 1_555 1_555
H16 O11 1_555 1_555
H17 O11 1_555 1_555
O12 Cd2 1_555 1_555
H18 O12 1_555 1_555
H19 O12 1_555 1_555
O13 Cd2 1_555 1_555
H20 O13 1_555 1_555
H21 O13 1_555 1_555
O14 H22 1_555 1_555
H23 O14 1_555 1_555
O15 H24 1_555 1_555
H25 O15 1_555 1_555
O16 H26 1_555 1_555
H27 O16 1_555 1_555
O17 H28 1_555 1_555
H29 O17 1_555 1_555
Cd1A N1A_2 1_555 1_555
Cd1_2 O6 1_555 1_555
Cd1A_2 N1A 1_555 1_555
Cd1A_3 O6A 1_555 1_555
C1A C2A 1_555 1_555
C2A H1A 1_555 1_555
C3A C2A 1_555 1_555
C4A C3A 1_555 1_555
H2A C4A 1_555 1_555
C5A C4A 1_555 1_555
C6A C1A 1_555 1_555
H3A C6A 1_555 1_555
C7A H4A 1_555 1_555
H5A C7A 1_555 1_555
C8A C7A 1_555 1_555
C9A H6A 1_555 1_555
H7A C9A 1_555 1_555
C10A C9A 1_555 1_555
C11A H8A 1_555 1_555
H9A C11A 1_555 1_555
C12A C11A 1_555 1_555
C13A H10A 1_555 1_555
C14A C13A 1_555 1_555
H11A C14A 1_555 1_555
C15A C15 1_555 1_555
C16A C15A 1_555 1_555
H12A C16A 1_555 1_555
C17A C16A 1_555 1_555
H13A C17A 1_555 1_555
N1A C13A 1_555 1_555
O1A C1A 1_555 1_555
O2A C3A 1_555 1_555
O3A C5A 1_555 1_555
O4A Cd1A 1_555 1_555
O5A Cd1A 1_555 1_555
O6A C10A 1_555 1_555
O6_2 Cd1 1_555 1_555
O6A_2 Cd1A 1_555 1_555
O7A Cd1A_3 1_555 1_555
O7_2 Cd1 1_555 1_555
O7A_2 Cd1A 1_555 1_555
O8A C12A 1_555 1_555
O9A Cd2 1_555 1_555
O10A Cd1A 1_555 1_555
H14A O10A 1_555 1_555
H15A O10A 1_555 1_555
O11A Cd1A 1_555 1_555
H16A O11A 1_555 1_555
H17A O11A 1_555 1_555
O12A Cd2 1_555 1_555
H18A O12A 1_555 1_555
H19A O12A 1_555 1_555
O13A Cd2 1_555 1_555
H20A O13A 1_555 1_555
H21A O13A 1_555 1_555
C5 C6 1_555 1_555
C7 O1 1_555 1_555
C8 O4 1_555 1_555
C8 O5 1_555 1_555
C9 O2 1_555 1_555
C11 O3 1_555 1_555
C17 N1 1_555 1_555
O7 Cd1_2 1_555 1_555
C5A C6A 1_555 1_555
C7A O1A 1_555 1_555
C8A O4A 1_555 1_555
C8A O5A 1_555 1_555
C9A O2A 1_555 1_555
C10A O7A 1_555 1_555
C11A O3A 1_555 1_555
C12A O9A 1_555 1_555
C14A C15A 1_555 1_555
C17A N1A 1_555 1_555

#END
