
#######################################################################
#
#                 Cambridge Crystallographic Data Centre
#                                CCDC 
#
#######################################################################
#
# If this CIF has been generated from an entry in the Cambridge 
# Structural Database, then it will include bibliographic, chemical, 
# crystal, experimental, refinement or atomic coordinate data resulting 
# from the CCDC's data processing and validation procedures.
#
#######################################################################

data_LELNIB
_symmetry_cell_setting           monoclinic
_symmetry_space_group_name_H-M   'P 21/n'
_symmetry_Int_Tables_number      14
_space_group_name_Hall           '-P 2yn'
loop_
_symmetry_equiv_pos_site_id
_symmetry_equiv_pos_as_xyz
1 x,y,z
2 1/2-x,1/2+y,1/2-z
3 -x,-y,-z
4 1/2+x,1/2-y,1/2+z
_cell_length_a                   8.913(3)
_cell_length_b                   21.652(6)
_cell_length_c                   10.046(4)
_cell_angle_alpha                90
_cell_angle_beta                 110.545(11)
_cell_angle_gamma                90
_cell_volume                     1815.41
loop_
_atom_site_label
_atom_site_type_symbol
_atom_site_fract_x
_atom_site_fract_y
_atom_site_fract_z
Co1 Co -0.04286(14) 0.21847(5) 0.33361(15)
S1 S 0.2610(3) 0.45766(11) 0.4165(3)
S2 S 0.5875(3) 0.40478(11) 0.5208(3)
N1 N 0.1185(8) 0.1434(3) 0.3756(8)
N2 N -0.2043(9) 0.1415(3) 0.2802(8)
C1 C 0.2781(9) 0.3775(4) 0.4411(9)
C2 C 0.4250(11) 0.3537(4) 0.4903(11)
C3 C 0.4699(10) 0.4709(4) 0.4869(10)
C4 C 0.1259(10) 0.3418(5) 0.3980(9)
C5 C 0.4816(9) 0.2876(4) 0.5291(11)
C6 C 0.2774(11) 0.1445(4) 0.4250(11)
H1 H 0.3290 0.1826 0.4399
C7 C 0.3708(11) 0.0908(5) 0.4559(12)
H2 H 0.4820 0.0935 0.4933
C8 C 0.2971(11) 0.0343(4) 0.4306(12)
H3 H 0.3578 -0.0017 0.4496
C9 C 0.1289(11) 0.0313(4) 0.3756(9)
C10 C 0.0442(10) 0.0870(4) 0.3507(9)
C11 C -0.3645(11) 0.1411(5) 0.2318(11)
H4 H -0.4183 0.1787 0.2191
C12 C -0.4542(12) 0.0868(5) 0.1993(11)
H5 H -0.5654 0.0883 0.1617
C13 C -0.3766(12) 0.0314(5) 0.2236(12)
H6 H -0.4350 -0.0052 0.2057
C14 C -0.2069(11) 0.0296(5) 0.2761(10)
C15 C -0.1289(10) 0.0857(4) 0.3009(10)
C16 C 0.0431(12) -0.0255(4) 0.3477(10)
H7 H 0.1000 -0.0624 0.3639
C17 C -0.1184(13) -0.0273(5) 0.2983(11)
H8 H -0.1719 -0.0650 0.2789
O1 O -0.0023(7) 0.3717(3) 0.3619(8)
O2 O 0.1380(7) 0.2837(3) 0.3998(7)
O3 O 0.5506(8) 0.2639(3) 0.4519(8)
O4 O 0.4589(7) 0.2628(3) 0.6310(7)
O5 O -0.2304(6) 0.2870(3) 0.2990(6)
O6 O -0.0207(7) 0.2145(3) 0.5520(7)
Co1B Co 1.04286(14) 0.78153(5) 0.66639(15)
Co1A Co 0.54286(14) 0.71847(5) 0.16639(15)
Co1C Co 0.45714(14) 0.28153(5) 0.83361(15)
S1B S 0.7390(3) 0.54234(11) 0.5835(3)
S2B S 0.4125(3) 0.59522(11) 0.4792(3)
N1B N 0.8815(8) 0.8566(3) 0.6244(8)
N2B N 1.2043(9) 0.8585(3) 0.7198(8)
C1B C 0.7219(9) 0.6225(4) 0.5589(9)
C2B C 0.5750(11) 0.6463(4) 0.5097(11)
C3B C 0.5301(10) 0.5291(4) 0.5131(10)
C4B C 0.8741(10) 0.6582(5) 0.6020(9)
C5B C 0.5184(9) 0.7124(4) 0.4709(11)
C6B C 0.7226(11) 0.8555(4) 0.5750(11)
H1B H 0.6710 0.8174 0.5601
C7B C 0.6292(11) 0.9092(5) 0.5441(12)
H2B H 0.5180 0.9065 0.5067
C8B C 0.7029(11) 0.9657(4) 0.5694(12)
H3B H 0.6422 1.0017 0.5504
C9B C 0.8711(11) 0.9687(4) 0.6244(9)
C10B C 0.9558(10) 0.9130(4) 0.6493(9)
C11B C 1.3645(11) 0.8589(5) 0.7682(11)
H4B H 1.4183 0.8213 0.7809
C12B C 1.4542(12) 0.9132(5) 0.8007(11)
H5B H 1.5654 0.9117 0.8383
C13B C 1.3766(12) 0.9686(5) 0.7764(12)
H6B H 1.4350 1.0052 0.7943
C14B C 1.2069(11) 0.9704(5) 0.7239(10)
C15B C 1.1289(10) 0.9143(4) 0.6991(10)
C16B C 0.9569(12) 1.0255(4) 0.6523(10)
H7B H 0.9000 1.0624 0.6361
C17B C 1.1184(13) 1.0273(5) 0.7017(11)
H8B H 1.1719 1.0650 0.7211
O1B O 1.0023(7) 0.6283(3) 0.6381(8)
O2B O 0.8620(7) 0.7163(3) 0.6002(7)
O3B O 0.4494(8) 0.7361(3) 0.5481(8)
O4B O 0.5411(7) 0.7372(3) 0.3690(7)
O4A O 1.0411(7) 0.7628(3) 0.8690(7)
O4C O -0.0411(7) 0.2372(3) 0.1310(7)
O5B O 1.2304(6) 0.7130(3) 0.7010(6)
O6B O 1.0207(7) 0.7855(3) 0.4480(7)
O7 O 0.2320(9) 0.3297(4) 0.1155(9)
loop_
_geom_bond_atom_site_label_1
_geom_bond_atom_site_label_2
_geom_bond_site_symmetry_1
_geom_bond_site_symmetry_2
Co1 N1 1_555 1_555
S1 C1 1_555 1_555
S2 C2 1_555 1_555
N1 C6 1_555 1_555
N2 Co1 1_555 1_555
C1 C2 1_555 1_555
C2 C5 1_555 1_555
C3 S1 1_555 1_555
C4 C1 1_555 1_555
C5 O3 1_555 1_555
C6 H1 1_555 1_555
C7 C6 1_555 1_555
H2 C7 1_555 1_555
C8 C7 1_555 1_555
H3 C8 1_555 1_555
C9 C8 1_555 1_555
C10 N1 1_555 1_555
C11 N2 1_555 1_555
H4 C11 1_555 1_555
C12 C11 1_555 1_555
H5 C12 1_555 1_555
C13 C12 1_555 1_555
H6 C13 1_555 1_555
C14 C13 1_555 1_555
C15 N2 1_555 1_555
C16 C9 1_555 1_555
H7 C16 1_555 1_555
C17 C14 1_555 1_555
H8 C17 1_555 1_555
O1 C4 1_555 1_555
O2 Co1 1_555 1_555
O4 C5 1_555 1_555
O5 Co1 1_555 1_555
O6 Co1 1_555 1_555
Co1B N1B 1_555 1_555
Co1A O4B 1_555 1_555
Co1C O4 1_555 1_555
S1B C1B 1_555 1_555
S2B C2B 1_555 1_555
N1B C6B 1_555 1_555
N2B Co1B 1_555 1_555
C1B C2B 1_555 1_555
C2B C5B 1_555 1_555
C3B C3 1_555 1_555
C4B C1B 1_555 1_555
C5B O3B 1_555 1_555
C6B H1B 1_555 1_555
C7B C6B 1_555 1_555
H2B C7B 1_555 1_555
C8B C7B 1_555 1_555
H3B C8B 1_555 1_555
C9B C8B 1_555 1_555
C10B N1B 1_555 1_555
C11B N2B 1_555 1_555
H4B C11B 1_555 1_555
C12B C11B 1_555 1_555
H5B C12B 1_555 1_555
C13B C12B 1_555 1_555
H6B C13B 1_555 1_555
C14B C13B 1_555 1_555
C15B N2B 1_555 1_555
C16B C9B 1_555 1_555
H7B C16B 1_555 1_555
C17B C14B 1_555 1_555
H8B C17B 1_555 1_555
O1B C4B 1_555 1_555
O2B Co1B 1_555 1_555
O4B C5B 1_555 1_555
O4A Co1B 1_555 1_555
O4C Co1 1_555 1_555
O5B Co1B 1_555 1_555
O6B Co1B 1_555 1_555
S2 C3 1_555 1_555
C4 O2 1_555 1_555
C9 C10 1_555 1_555
C10 C15 1_555 1_555
C14 C15 1_555 1_555
C16 C17 1_555 1_555
S1B C3B 1_555 1_555
S2B C3B 1_555 1_555
C4B O2B 1_555 1_555
C9B C10B 1_555 1_555
C10B C15B 1_555 1_555
C14B C15B 1_555 1_555
C16B C17B 1_555 1_555

#END
