
#######################################################################
#
#                 Cambridge Crystallographic Data Centre
#                                CCDC 
#
#######################################################################
#
# If this CIF has been generated from an entry in the Cambridge 
# Structural Database, then it will include bibliographic, chemical, 
# crystal, experimental, refinement or atomic coordinate data resulting 
# from the CCDC's data processing and validation procedures.
#
#######################################################################

data_LELNUN
_symmetry_cell_setting           monoclinic
_symmetry_space_group_name_H-M   'P 21/n'
_symmetry_Int_Tables_number      14
_space_group_name_Hall           '-P 2yn'
loop_
_symmetry_equiv_pos_site_id
_symmetry_equiv_pos_as_xyz
1 x,y,z
2 1/2-x,1/2+y,1/2-z
3 -x,-y,-z
4 1/2+x,1/2-y,1/2+z
_cell_length_a                   7.1277(13)
_cell_length_b                   21.708(4)
_cell_length_c                   7.7585(14)
_cell_angle_alpha                90
_cell_angle_beta                 102.497(3)
_cell_angle_gamma                90
_cell_volume                     1172.02
loop_
_atom_site_label
_atom_site_type_symbol
_atom_site_fract_x
_atom_site_fract_y
_atom_site_fract_z
Ag1 Ag 0.56258(5) 0.528575(14) 0.67012(4)
C1 C 0.1819(6) 0.2446(2) 0.6544(6)
H1 H 0.1568 0.2119 0.5713
C2 C 0.1626(6) 0.23517(19) 0.8232(6)
H2 H 0.1238 0.1963 0.8595
C3 C 0.2010(6) 0.28366(19) 0.9395(6)
C4 C 0.2617(5) 0.34144(18) 0.8974(6)
C5 C 0.2806(5) 0.34962(19) 0.7252(6)
C6 C 0.2378(6) 0.3016(2) 0.6030(6)
H3 H 0.2471 0.3080 0.4841
C7 C 0.3458(6) 0.4097(2) 0.6617(6)
C8 C 0.3052(5) 0.39257(18) 1.0332(5)
N1 N 0.1605(5) 0.27454(17) 1.1157(5)
O1 O 0.4745(4) 0.43836(13) 0.7679(4)
O2 O 0.2703(4) 0.42536(15) 0.5089(4)
O3 O 0.4510(4) 0.38503(13) 1.1537(4)
O4 O 0.1947(4) 0.43738(13) 1.0146(4)
O5 O 0.0899(5) 0.31704(15) 1.1804(4)
O6 O 0.1962(5) 0.22442(15) 1.1868(5)
Ag1B Ag 0.43742(5) 0.471425(14) 0.32988(4)
Ag1B_2 Ag 0.43742(5) 0.471425(14) 1.32988(4)
O2B O 0.7297(4) 0.57464(15) 0.4911(4)
O3B O 0.5490(4) 0.61497(13) 0.8463(4)
Ag2 Ag 0.13355(5) 0.566148(16) 0.54545(5)
N2 N 0.1605(5) 0.55652(17) 0.8204(5)
H4 H 0.0457 0.5649 0.8486
H5 H 0.2511 0.5832 0.8780
H6 H 0.1962 0.5172 0.8531
N3 N 0.1389(5) 0.59283(18) 0.2832(5)
H7 H 0.2580 0.5859 0.2627
H8 H 0.1101 0.6336 0.2687
H9 H 0.0508 0.5704 0.2058
loop_
_geom_bond_atom_site_label_1
_geom_bond_atom_site_label_2
_geom_bond_site_symmetry_1
_geom_bond_site_symmetry_2
Ag1 O1 1_555 1_555
C1 H1 1_555 1_555
C2 C1 1_555 1_555
H2 C2 1_555 1_555
C3 C2 1_555 1_555
C4 C3 1_555 1_555
C5 C4 1_555 1_555
C6 C1 1_555 1_555
H3 C6 1_555 1_555
C7 C5 1_555 1_555
C8 C4 1_555 1_555
N1 C3 1_555 1_555
O1 C7 1_555 1_555
O2 C7 1_555 1_555
O3 C8 1_555 1_555
O4 C8 1_555 1_555
O5 N1 1_555 1_555
O6 N1 1_555 1_555
Ag2 N2 1_555 1_555
N2 H4 1_555 1_555
H5 N2 1_555 1_555
H6 N2 1_555 1_555
N3 Ag2 1_555 1_555
H7 N3 1_555 1_555
H8 N3 1_555 1_555
H9 N3 1_555 1_555
Ag1B O2 1_555 1_555
Ag1B_2 O3 1_555 1_555
O2B Ag1 1_555 1_555
O3B Ag1 1_555 1_555
C5 C6 1_555 1_555

#END
