
#######################################################################
#
#                 Cambridge Crystallographic Data Centre
#                                CCDC 
#
#######################################################################
#
# If this CIF has been generated from an entry in the Cambridge 
# Structural Database, then it will include bibliographic, chemical, 
# crystal, experimental, refinement or atomic coordinate data resulting 
# from the CCDC's data processing and validation procedures.
#
#######################################################################

data_LELNOH
_symmetry_cell_setting           monoclinic
_symmetry_space_group_name_H-M   'C 2/c'
_symmetry_Int_Tables_number      15
_space_group_name_Hall           '-C 2yn'
loop_
_symmetry_equiv_pos_site_id
_symmetry_equiv_pos_as_xyz
1 x,y,z
2 -x,y,1/2-z
3 1/2+x,1/2+y,z
4 1/2-x,1/2+y,1/2-z
5 -x,-y,-z
6 x,-y,1/2+z
7 1/2-x,1/2-y,-z
8 1/2+x,1/2-y,1/2+z
_cell_length_a                   22.748(5)
_cell_length_b                   10.543(2)
_cell_length_c                   15.131(3)
_cell_angle_alpha                90
_cell_angle_beta                 108.49(3)
_cell_angle_gamma                90
_cell_volume                     3441.57
loop_
_atom_site_label
_atom_site_type_symbol
_atom_site_fract_x
_atom_site_fract_y
_atom_site_fract_z
Co1 Co 0.25902(4) 0.63720(8) 0.79079(7)
S1 S 0.06454(8) 0.65614(17) 0.50818(15)
S2 S 0.08458(8) 0.38598(17) 0.55552(15)
N1 N 0.1643(2) 0.6495(5) 0.7978(4)
N2 N 0.3511(2) 0.6209(5) 0.7782(4)
C1 C 0.1397(3) 0.6096(6) 0.5770(5)
C2 C 0.1484(3) 0.4867(6) 0.5981(5)
C3 C 0.0302(3) 0.5083(7) 0.5137(5)
C4 C 0.1823(3) 0.7222(7) 0.5961(5)
C5 C 0.2064(3) 0.4136(6) 0.6557(5)
C6 C 0.1336(3) 0.5435(7) 0.8087(6)
H1 H 0.1563 0.4698 0.8293
C7 C 0.0697(3) 0.5404(8) 0.7904(6)
H2 H 0.0506 0.4650 0.7980
C8 C 0.0344(3) 0.6476(7) 0.7612(5)
C9 C 0.0670(3) 0.7559(7) 0.7534(5)
H3 H 0.0459 0.8321 0.7356
C10 C 0.1307(3) 0.7514(7) 0.7718(5)
H4 H 0.1508 0.8259 0.7653
C11 C 0.3604(3) 0.6487(7) 0.6973(6)
H5 H 0.3262 0.6732 0.6476
C12 C 0.4165(3) 0.6437(8) 0.6826(6)
H6 H 0.4195 0.6611 0.6239
C13 C 0.4689(3) 0.6126(7) 0.7557(5)
C14 C 0.4604(3) 0.5864(7) 0.8402(6)
H7 H 0.4943 0.5660 0.8916
C15 C 0.4017(3) 0.5905(7) 0.8487(5)
H8 H 0.3972 0.5711 0.9062
C16 C 0.2837(6) 0.5796(9) 1.0012(7)
H9 H 0.3232 0.6158 1.0346
H10 H 0.2752 0.5098 1.0361
H11 H 0.2520 0.6428 0.9925
O1 O 0.1640(2) 0.8142(5) 0.5415(4)
O2 O 0.2315(2) 0.7229(4) 0.6632(3)
O3 O 0.24578(19) 0.4667(4) 0.7220(4)
O4 O 0.2069(2) 0.2992(4) 0.6319(3)
O5 O 0.2847(2) 0.5365(5) 0.9146(4)
H12 H 0.293(3) 0.464(6) 0.917(5)
Co1A Co -0.25902(4) 0.63720(8) 0.70921(7)
Co1A_2 Co 0.74098(4) 0.63720(8) 0.70921(7)
Co1C Co 0.24098(4) 0.13720(8) 0.70921(7)
Co1D Co -0.25902(4) 0.36280(8) 0.20921(7)
Co1G Co -0.24098(4) 0.86280(8) 0.29079(7)
S1D S -0.06454(8) 0.34386(17) 0.49182(15)
S2D S -0.08458(8) 0.61402(17) 0.44448(15)
N1A N -0.1643(2) 0.6495(5) 0.7022(4)
N2A N 0.6489(2) 0.6209(5) 0.7218(4)
N2A_2 N -0.3511(2) 0.6209(5) 0.7218(4)
C1D C -0.1397(3) 0.3904(6) 0.4230(5)
C2D C -0.1484(3) 0.5133(6) 0.4019(5)
C3D C -0.0302(3) 0.4917(7) 0.4863(5)
C4D C -0.1823(3) 0.2778(7) 0.4039(5)
C5D C -0.2064(3) 0.5864(6) 0.3443(5)
C6A C -0.1336(3) 0.5435(7) 0.6913(6)
H1A H -0.1563 0.4698 0.6707
C7A C -0.0697(3) 0.5404(8) 0.7096(6)
H2A H -0.0506 0.4650 0.7020
C8A C -0.0344(3) 0.6476(7) 0.7388(5)
C9A C -0.0670(3) 0.7559(7) 0.7466(5)
H3A H -0.0459 0.8321 0.7644
C10A C -0.1307(3) 0.7514(7) 0.7282(5)
H4A H -0.1508 0.8259 0.7347
C11A C 0.6396(3) 0.6487(7) 0.8027(6)
H5A H 0.6738 0.6732 0.8524
C12A C 0.5835(3) 0.6437(8) 0.8174(6)
H6A H 0.5805 0.6611 0.8761
C13A C 0.5311(3) 0.6126(7) 0.7443(5)
C14A C 0.5396(3) 0.5864(7) 0.6598(6)
H7A H 0.5057 0.5660 0.6084
C15A C 0.5983(3) 0.5905(7) 0.6513(5)
H8A H 0.6028 0.5711 0.5938
C16A C -0.2837(6) 0.5796(9) 0.4988(7)
H9A H -0.3232 0.6158 0.4654
H10A H -0.2752 0.5098 0.4639
H11A H -0.2520 0.6428 0.5075
O1D O -0.1640(2) 0.1858(5) 0.4585(4)
O2D O -0.2315(2) 0.2771(4) 0.3368(3)
O2A O -0.2315(2) 0.7229(4) 0.8368(3)
O3D O -0.24578(19) 0.5333(4) 0.2780(4)
O3A O -0.24578(19) 0.4667(4) 0.7780(4)
O4D O -0.2069(2) 0.7008(4) 0.3681(3)
O4B O -0.2931(2) 0.7992(4) 0.6319(3)
O4C O 0.2931(2) 0.7992(4) 0.8681(3)
O5A O -0.2847(2) 0.5365(5) 0.5854(4)
H12A H -0.293(3) 0.464(6) 0.583(5)
loop_
_geom_bond_atom_site_label_1
_geom_bond_atom_site_label_2
_geom_bond_site_symmetry_1
_geom_bond_site_symmetry_2
Co1 N1 1_555 1_555
S1 C1 1_555 1_555
S2 C2 1_555 1_555
N1 C6 1_555 1_555
N2 Co1 1_555 1_555
C1 C2 1_555 1_555
C2 C5 1_555 1_555
C3 S1 1_555 1_555
C4 C1 1_555 1_555
C5 O3 1_555 1_555
C6 H1 1_555 1_555
C7 C6 1_555 1_555
H2 C7 1_555 1_555
C8 C7 1_555 1_555
C9 C8 1_555 1_555
H3 C9 1_555 1_555
C10 N1 1_555 1_555
H4 C10 1_555 1_555
C11 N2 1_555 1_555
H5 C11 1_555 1_555
C12 C11 1_555 1_555
H6 C12 1_555 1_555
C13 C12 1_555 1_555
C14 C13 1_555 1_555
H7 C14 1_555 1_555
C15 N2 1_555 1_555
H8 C15 1_555 1_555
C16 H9 1_555 1_555
H10 C16 1_555 1_555
H11 C16 1_555 1_555
O1 C4 1_555 1_555
O2 Co1 1_555 1_555
O3 Co1 1_555 1_555
O4 C5 1_555 1_555
O5 Co1 1_555 1_555
H12 O5 1_555 1_555
Co1A N1A 1_555 1_555
Co1A_2 N2A 1_555 1_555
Co1C O4 1_555 1_555
Co1D O2D 1_555 1_555
Co1G O4D 1_555 1_555
S1D C1D 1_555 1_555
S2D C2D 1_555 1_555
N1A C6A 1_555 1_555
N2A C11A 1_555 1_555
N2A_2 Co1A 1_555 1_555
C1D C2D 1_555 1_555
C2D C5D 1_555 1_555
C3D C3 1_555 1_555
C4D C1D 1_555 1_555
C5D O3D 1_555 1_555
C6A H1A 1_555 1_555
C7A C6A 1_555 1_555
H2A C7A 1_555 1_555
C8A C8 1_555 1_555
C9A C8A 1_555 1_555
H3A C9A 1_555 1_555
C10A N1A 1_555 1_555
H4A C10A 1_555 1_555
C11A H5A 1_555 1_555
C12A C11A 1_555 1_555
H6A C12A 1_555 1_555
C13A C13 1_555 1_555
C14A C13A 1_555 1_555
H7A C14A 1_555 1_555
C15A N2A 1_555 1_555
H8A C15A 1_555 1_555
C16A H9A 1_555 1_555
H10A C16A 1_555 1_555
H11A C16A 1_555 1_555
O1D C4D 1_555 1_555
O2D C4D 1_555 1_555
O2A Co1A 1_555 1_555
O3D Co1D 1_555 1_555
O3A Co1A 1_555 1_555
O4D C5D 1_555 1_555
O4B Co1A 1_555 1_555
O4C Co1 1_555 1_555
O5A Co1A 1_555 1_555
H12A O5A 1_555 1_555
S2 C3 1_555 1_555
C4 O2 1_555 1_555
C9 C10 1_555 1_555
C14 C15 1_555 1_555
C16 O5 1_555 1_555
S1D C3D 1_555 1_555
S2D C3D 1_555 1_555
C7A C8A 1_555 1_555
C9A C10A 1_555 1_555
C12A C13A 1_555 1_555
C14A C15A 1_555 1_555
C16A O5A 1_555 1_555

#END
