
#######################################################################
#
#                 Cambridge Crystallographic Data Centre
#                                CCDC 
#
#######################################################################
#
# If this CIF has been generated from an entry in the Cambridge 
# Structural Database, then it will include bibliographic, chemical, 
# crystal, experimental, refinement or atomic coordinate data resulting 
# from the CCDC's data processing and validation procedures.
#
#######################################################################

data_LELNEX
_symmetry_cell_setting           triclinic
_symmetry_space_group_name_H-M   'P -1'
_symmetry_Int_Tables_number      2
_space_group_name_Hall           '-P 1'
loop_
_symmetry_equiv_pos_site_id
_symmetry_equiv_pos_as_xyz
1 x,y,z
2 -x,-y,-z
_cell_length_a                   9.0480(11)
_cell_length_b                   10.9486(15)
_cell_length_c                   12.7222(18)
_cell_angle_alpha                106.620(2)
_cell_angle_beta                 103.906(3)
_cell_angle_gamma                102.182(2)
_cell_volume                     1117.97
loop_
_atom_site_label
_atom_site_type_symbol
_atom_site_fract_x
_atom_site_fract_y
_atom_site_fract_z
Co1 Co 0.59905(13) -0.01902(11) 0.38176(9)
S1 S 0.98202(18) 0.30188(15) 0.88156(13)
S2 S 0.80369(18) 0.49455(15) 0.85797(13)
N1 N 0.4309(6) 0.0753(5) 0.2531(4)
N2 N 0.5194(6) -0.1455(5) 0.1648(4)
C1 C 0.8158(6) 0.2501(5) 0.7558(4)
C2 C 0.7355(6) 0.3390(5) 0.7457(4)
C3 C 0.9548(7) 0.4569(6) 0.9462(5)
C4 C 0.7919(7) 0.1143(5) 0.6719(5)
C5 C 0.5932(7) 0.3313(6) 0.6498(5)
C6 C 0.3870(8) 0.1823(6) 0.2944(6)
H1 H 0.4299 0.2312 0.3744
C7 C 0.2807(8) 0.2272(7) 0.2264(6)
H2 H 0.2546 0.3048 0.2598
C8 C 0.2157(8) 0.1553(7) 0.1099(6)
H3 H 0.1419 0.1819 0.0625
C9 C 0.2592(7) 0.0432(6) 0.0624(5)
C10 C 0.3664(7) 0.0039(6) 0.1360(5)
C11 C 0.5683(8) -0.2486(7) 0.1221(6)
H4 H 0.6401 -0.2727 0.1733
C12 C 0.5172(9) -0.3238(7) 0.0031(6)
H5 H 0.5551 -0.3963 -0.0242
C13 C 0.4134(9) -0.2914(7) -0.0717(6)
H6 H 0.3791 -0.3410 -0.1515
C14 C 0.3567(8) -0.1830(7) -0.0302(5)
C15 C 0.4172(7) -0.1101(6) 0.0917(5)
C16 C 0.2001(8) -0.0347(7) -0.0602(5)
H7 H 0.1274 -0.0103 -0.1107
C17 C 0.2472(9) -0.1404(8) -0.1026(6)
H8 H 0.2072 -0.1886 -0.1828
O1 O 0.9016(5) 0.0641(4) 0.6953(4)
O2 O 0.6643(5) 0.0589(4) 0.5870(3)
O3 O 0.4750(5) 0.2304(4) 0.6060(4)
O4 O 0.6025(5) 0.4352(4) 0.6265(4)
O5 O 0.8257(5) -0.0940(5) 0.3795(4)
O6 O 0.7889(5) 0.1828(4) 0.4113(4)
Co1A Co 1.40095(13) 1.01902(11) 1.61824(9)
Co1A_2 Co 0.40095(13) 0.01902(11) 0.61824(9)
Co1_2 Co 1.59905(13) 0.98098(11) 1.38176(9)
S1A S 1.01798(18) 0.69812(15) 1.11844(13)
S2A S 1.19631(18) 0.50545(15) 1.14203(13)
N1A N 1.5691(6) 0.9247(5) 1.7469(4)
N2A N 1.4806(6) 1.1455(5) 1.8352(4)
C1A C 1.1842(6) 0.7499(5) 1.2442(4)
C2A C 1.2645(6) 0.6610(5) 1.2543(4)
C3A C 1.0452(7) 0.5431(6) 1.0538(5)
C4A C 1.2081(7) 0.8857(5) 1.3281(5)
C5A C 1.4068(7) 0.6687(6) 1.3502(5)
C6A C 1.6130(8) 0.8177(6) 1.7056(6)
H1A H 1.5701 0.7688 1.6256
C7A C 1.7193(8) 0.7728(7) 1.7736(6)
H2A H 1.7454 0.6952 1.7402
C8A C 1.7843(8) 0.8447(7) 1.8901(6)
H3A H 1.8581 0.8181 1.9375
C9A C 1.7408(7) 0.9568(6) 1.9376(5)
C10A C 1.6336(7) 0.9961(6) 1.8640(5)
C11A C 1.4317(8) 1.2486(7) 1.8779(6)
H4A H 1.3599 1.2727 1.8267
C12A C 1.4828(9) 1.3238(7) 1.9969(6)
H5A H 1.4449 1.3963 2.0242
C13A C 1.5866(9) 1.2914(7) 2.0717(6)
H6A H 1.6209 1.3410 2.1515
C14A C 1.6433(8) 1.1830(7) 2.0302(5)
C15A C 1.5828(7) 1.1101(6) 1.9083(5)
C16A C 1.7999(8) 1.0347(7) 2.0602(5)
H7A H 1.8726 1.0103 2.1107
C17A C 1.7528(9) 1.1404(8) 2.1026(6)
H8A H 1.7928 1.1886 2.1828
O1A O 1.0984(5) 0.9359(4) 1.3047(4)
O2A O 1.3357(5) 0.9411(4) 1.4130(3)
O2A_2 O 0.3357(5) -0.0589(4) 0.4130(3)
O2_2 O 1.6643(5) 1.0589(4) 1.5870(3)
O3A O 1.5250(5) 0.7696(4) 1.3940(4)
O3A_2 O 0.5250(5) -0.2304(4) 0.3940(4)
O3_2 O 1.4750(5) 1.2304(4) 1.6060(4)
O4A O 1.3975(5) 0.5648(4) 1.3735(4)
O5A O 1.1743(5) 1.0940(5) 1.6205(4)
O6A O 1.2111(5) 0.8172(4) 1.5887(4)
C18 C 0.9429(11) 0.4838(10) 0.3365(8)
H9 H 1.0044 0.5569 0.4089
H10 H 0.9105 0.5195 0.2761
H11 H 1.0079 0.4269 0.3154
O7 O 0.8066(6) 0.4087(5) 0.3499(4)
H12 H 0.7626 0.4600 0.3828
O8 O 0.6911(5) 0.5690(4) 0.4917(4)
O9 O 0.0971(5) 0.1830(4) 0.4392(4)
loop_
_geom_bond_atom_site_label_1
_geom_bond_atom_site_label_2
_geom_bond_site_symmetry_1
_geom_bond_site_symmetry_2
Co1 N1 1_555 1_555
S1 C1 1_555 1_555
S2 C2 1_555 1_555
N1 C6 1_555 1_555
N2 Co1 1_555 1_555
C1 C2 1_555 1_555
C2 C5 1_555 1_555
C3 S1 1_555 1_555
C4 C1 1_555 1_555
C5 O3 1_555 1_555
C6 H1 1_555 1_555
C7 C6 1_555 1_555
H2 C7 1_555 1_555
C8 C7 1_555 1_555
H3 C8 1_555 1_555
C9 C8 1_555 1_555
C10 N1 1_555 1_555
C11 N2 1_555 1_555
H4 C11 1_555 1_555
C12 C11 1_555 1_555
H5 C12 1_555 1_555
C13 C12 1_555 1_555
H6 C13 1_555 1_555
C14 C13 1_555 1_555
C15 N2 1_555 1_555
C16 C9 1_555 1_555
H7 C16 1_555 1_555
C17 C14 1_555 1_555
H8 C17 1_555 1_555
C18 H9 1_555 1_555
H10 C18 1_555 1_555
H11 C18 1_555 1_555
O1 C4 1_555 1_555
O2 Co1 1_555 1_555
O3 Co1A_2 1_555 1_555
O4 C5 1_555 1_555
O5 Co1 1_555 1_555
O6 Co1 1_555 1_555
O7 C18 1_555 1_555
H12 O7 1_555 1_555
Co1A N1A 1_555 1_555
Co1A_2 O2 1_555 1_555
Co1_2 O2A 1_555 1_555
S1A C1A 1_555 1_555
S2A C2A 1_555 1_555
N1A C6A 1_555 1_555
N2A Co1A 1_555 1_555
C1A C2A 1_555 1_555
C2A C5A 1_555 1_555
C3A C3 1_555 1_555
C4A C1A 1_555 1_555
C5A O3A 1_555 1_555
C6A H1A 1_555 1_555
C7A C6A 1_555 1_555
H2A C7A 1_555 1_555
C8A C7A 1_555 1_555
H3A C8A 1_555 1_555
C9A C8A 1_555 1_555
C10A N1A 1_555 1_555
C11A N2A 1_555 1_555
H4A C11A 1_555 1_555
C12A C11A 1_555 1_555
H5A C12A 1_555 1_555
C13A C12A 1_555 1_555
H6A C13A 1_555 1_555
C14A C13A 1_555 1_555
C15A N2A 1_555 1_555
C16A C9A 1_555 1_555
H7A C16A 1_555 1_555
C17A C14A 1_555 1_555
H8A C17A 1_555 1_555
O1A C4A 1_555 1_555
O2A Co1A 1_555 1_555
O2A_2 Co1 1_555 1_555
O2_2 Co1A 1_555 1_555
O3A Co1_2 1_555 1_555
O3A_2 Co1 1_555 1_555
O3_2 Co1A 1_555 1_555
O4A C5A 1_555 1_555
O5A Co1A 1_555 1_555
O6A Co1A 1_555 1_555
S2 C3 1_555 1_555
C4 O2 1_555 1_555
C9 C10 1_555 1_555
C10 C15 1_555 1_555
C14 C15 1_555 1_555
C16 C17 1_555 1_555
Co1A_2 O2A_2 1_555 1_555
Co1_2 O2_2 1_555 1_555
S1A C3A 1_555 1_555
S2A C3A 1_555 1_555
C4A O2A 1_555 1_555
C9A C10A 1_555 1_555
C10A C15A 1_555 1_555
C14A C15A 1_555 1_555
C16A C17A 1_555 1_555

#END
