
#######################################################################
#
#                 Cambridge Crystallographic Data Centre
#                                CCDC 
#
#######################################################################
#
# If this CIF has been generated from an entry in the Cambridge 
# Structural Database, then it will include bibliographic, chemical, 
# crystal, experimental, refinement or atomic coordinate data resulting 
# from the CCDC's data processing and validation procedures.
#
#######################################################################

data_LELPID
_symmetry_cell_setting           monoclinic
_symmetry_space_group_name_H-M   'P 21/c'
_symmetry_Int_Tables_number      14
_space_group_name_Hall           '-P 2ybc'
loop_
_symmetry_equiv_pos_site_id
_symmetry_equiv_pos_as_xyz
1 x,y,z
2 -x,1/2+y,1/2-z
3 -x,-y,-z
4 x,1/2-y,1/2+z
_cell_length_a                   6.7018(13)
_cell_length_b                   22.923(5)
_cell_length_c                   15.748(3)
_cell_angle_alpha                90
_cell_angle_beta                 96.49(3)
_cell_angle_gamma                90
_cell_volume                     2403.79
loop_
_atom_site_label
_atom_site_type_symbol
_atom_site_fract_x
_atom_site_fract_y
_atom_site_fract_z
Ag1 Ag 0.61640(8) 0.51204(2) 0.82585(3)
N3 N 0.7355(8) 0.4266(2) 0.8424(3)
H7 H 0.8545 0.4280 0.8765
H8 H 0.7556 0.4115 0.7906
H9 H 0.6476 0.4037 0.8672
N4 N 0.4971(8) 0.5982(2) 0.8235(3)
H10 H 0.5806 0.6217 0.8579
H11 H 0.3738 0.5977 0.8425
H12 H 0.4858 0.6122 0.7691
Ag2 Ag 0.88212(8) 0.500145(19) 0.68427(3)
Ag3 Ag 0.5000 0.5000 1.0000
Ag5 Ag 0.38840(8) 0.502047(19) 0.64184(3)
C1 C 0.2098(8) 0.3554(2) 0.7994(4)
C2 C 0.1796(9) 0.3073(3) 0.7455(4)
H1 H 0.1807 0.3124 0.6857
C3 C 0.1478(10) 0.2520(3) 0.7772(4)
H2 H 0.1250 0.2199 0.7392
C4 C 0.1493(9) 0.2437(3) 0.8634(4)
H3 H 0.1310 0.2058 0.8855
C5 C 0.1778(9) 0.2913(3) 0.9182(4)
C6 C 0.2071(8) 0.3481(2) 0.8887(4)
C7 C 0.2496(8) 0.4139(3) 0.7617(4)
C8 C 0.2467(9) 0.4003(3) 0.9472(4)
C9 C 0.6879(10) 0.2242(3) 0.5040(4)
H4 H 0.6940 0.1849 0.4850
C10 C 0.7069(10) 0.2373(3) 0.5904(4)
H5 H 0.7197 0.2067 0.6314
C11 C 0.7072(9) 0.2948(3) 0.6173(4)
H6 H 0.7276 0.3036 0.6766
C12 C 0.6777(8) 0.3398(2) 0.5578(4)
C13 C 0.6462(8) 0.3276(2) 0.4693(4)
C14 C 0.6600(9) 0.2693(3) 0.4464(4)
C15 C 0.6859(9) 0.4023(3) 0.5890(4)
C16 C 0.5931(9) 0.3765(3) 0.4064(4)
N1 N 0.1856(8) 0.2794(2) 1.0104(3)
N2 N 0.6537(8) 0.2541(2) 0.3544(3)
N5 N 0.9521(7) 0.5879(2) 0.7218(3)
H13 H 1.0587 0.6005 0.6957
H14 H 0.9834 0.5895 0.7795
H15 H 0.8441 0.6111 0.7061
O1 O 0.2014(6) 0.45962(18) 0.7980(3)
O3 O 0.3303(6) 0.41313(17) 0.6933(3)
O4 O 0.1058(6) 0.42922(19) 0.9693(3)
O5 O 0.4337(6) 0.41047(17) 0.9659(3)
O6 O 0.2040(7) 0.3202(2) 1.0604(3)
O7 O 0.1702(8) 0.2282(2) 1.0328(3)
O8 O 0.8137(6) 0.41087(18) 0.6545(3)
O9 O 0.5783(6) 0.44067(17) 0.5508(2)
O10 O 0.7368(6) 0.40905(17) 0.3901(3)
O11 O 0.4152(6) 0.38187(19) 0.3774(3)
O12 O 0.6464(7) 0.20237(19) 0.3350(3)
O13 O 0.6630(7) 0.29361(19) 0.3031(3)
Ag2B Ag 0.11788(8) 0.499855(19) 0.31573(3)
Ag5B Ag 0.61160(8) 0.497953(19) 1.35816(3)
Ag5B_2 Ag 0.61160(8) 0.497953(19) 0.35816(3)
C1B C 0.7902(8) 0.6446(2) 1.2006(4)
C2B C 0.8204(9) 0.6927(3) 1.2545(4)
H1B H 0.8193 0.6876 1.3143
C3B C 0.8522(10) 0.7480(3) 1.2228(4)
H2B H 0.8750 0.7801 1.2608
C4B C 0.8507(9) 0.7563(3) 1.1366(4)
H3B H 0.8690 0.7942 1.1145
C5B C 0.8222(9) 0.7087(3) 1.0818(4)
C6B C 0.7929(8) 0.6519(2) 1.1113(4)
C7B C 0.7504(8) 0.5861(3) 1.2383(4)
C8B C 0.7533(9) 0.5997(3) 1.0528(4)
C9B C 0.3121(10) 0.7758(3) 0.4960(4)
H4B H 0.3060 0.8151 0.5150
C10B C 0.2931(10) 0.7627(3) 0.4096(4)
H5B H 0.2803 0.7933 0.3686
C11B C 0.2928(9) 0.7052(3) 0.3827(4)
H6B H 0.2724 0.6964 0.3234
C12B C 0.3223(8) 0.6602(2) 0.4422(4)
C13B C 0.3538(8) 0.6724(2) 0.5307(4)
C14B C 0.3400(9) 0.7307(3) 0.5536(4)
C15B C 0.3141(9) 0.5977(3) 0.4110(4)
C16B C 0.4069(9) 0.6235(3) 0.5936(4)
N1B N 0.8144(8) 0.7206(2) 0.9896(3)
N2B N 0.3463(8) 0.7459(2) 0.6456(3)
N5B N 0.0479(7) 0.4121(2) 0.2782(3)
H13B H -0.0587 0.3995 0.3043
H14B H 0.0166 0.4105 0.2205
H15B H 0.1559 0.3889 0.2939
O1B O 0.7986(6) 0.54038(18) 1.2020(3)
O3B O 0.6697(6) 0.58687(17) 1.3067(3)
O4B O 0.8942(6) 0.57078(19) 1.0307(3)
O5B O 0.5663(6) 0.58953(17) 1.0341(3)
O6B O 0.7960(7) 0.6798(2) 0.9396(3)
O7B O 0.8298(8) 0.7718(2) 0.9672(3)
O8B O 0.1863(6) 0.58913(18) 0.3455(3)
O9B O 0.4217(6) 0.55933(17) 0.4492(2)
O9B_2 O 0.4217(6) 0.55933(17) 1.4492(2)
O10B O 0.2632(6) 0.59095(17) 0.6099(3)
O10_2 O 0.7368(6) 0.40905(17) 1.3901(3)
O11B O 0.5848(6) 0.61813(19) 0.6226(3)
O12B O 0.3536(7) 0.79763(19) 0.6650(3)
O13B O 0.3370(7) 0.70639(19) 0.6969(3)
Ag4 Ag 1.0000 0.5000 0.5000
N6 N 0.8696(8) 0.5848(2) 0.4896(3)
H16 H 0.8452 0.5949 0.4335
H17 H 0.9557 0.6110 0.5174
H18 H 0.7522 0.5847 0.5135
N6B N 1.1304(8) 0.4152(2) 0.5104(3)
H16B H 1.1548 0.4051 0.5665
H17B H 1.0443 0.3890 0.4826
H18B H 1.2478 0.4153 0.4865
O2 O -0.1286(6) 0.44094(19) 1.1015(3)
H19 H -0.0514 0.4439 1.0625
H20 H -0.1356 0.4739 1.1257
loop_
_geom_bond_atom_site_label_1
_geom_bond_atom_site_label_2
_geom_bond_site_symmetry_1
_geom_bond_site_symmetry_2
Ag1 N3 1_555 1_555
Ag2 N5 1_555 1_555
Ag3 O5 1_555 1_555
Ag4 N6 1_555 1_555
Ag5 O3 1_555 1_555
C1 C2 1_555 1_555
C2 H1 1_555 1_555
C3 C2 1_555 1_555
H2 C3 1_555 1_555
C4 C3 1_555 1_555
H3 C4 1_555 1_555
C5 C4 1_555 1_555
C6 C1 1_555 1_555
C7 C1 1_555 1_555
C8 C6 1_555 1_555
C9 H4 1_555 1_555
C10 C9 1_555 1_555
H5 C10 1_555 1_555
C11 C10 1_555 1_555
H6 C11 1_555 1_555
C12 C11 1_555 1_555
C13 C12 1_555 1_555
C14 C9 1_555 1_555
C15 C12 1_555 1_555
C16 C13 1_555 1_555
N1 C5 1_555 1_555
N2 C14 1_555 1_555
N3 H7 1_555 1_555
H8 N3 1_555 1_555
H9 N3 1_555 1_555
N4 Ag1 1_555 1_555
H10 N4 1_555 1_555
H11 N4 1_555 1_555
H12 N4 1_555 1_555
N5 H13 1_555 1_555
H14 N5 1_555 1_555
H15 N5 1_555 1_555
N6 H16 1_555 1_555
H17 N6 1_555 1_555
H18 N6 1_555 1_555
O1 C7 1_555 1_555
O2 H19 1_555 1_555
H20 O2 1_555 1_555
O3 C7 1_555 1_555
O4 C8 1_555 1_555
O5 C8 1_555 1_555
O6 N1 1_555 1_555
O7 N1 1_555 1_555
O8 Ag2 1_555 1_555
O9 Ag5 1_555 1_555
O10 C16 1_555 1_555
O11 C16 1_555 1_555
O12 N2 1_555 1_555
O13 N2 1_555 1_555
Ag2B N5B 1_555 1_555
Ag5B O3B 1_555 1_555
Ag5B_2 O10 1_555 1_555
C1B C2B 1_555 1_555
C2B H1B 1_555 1_555
C3B C2B 1_555 1_555
H2B C3B 1_555 1_555
C4B C3B 1_555 1_555
H3B C4B 1_555 1_555
C5B C4B 1_555 1_555
C6B C1B 1_555 1_555
C7B C1B 1_555 1_555
C8B C6B 1_555 1_555
C9B H4B 1_555 1_555
C10B C9B 1_555 1_555
H5B C10B 1_555 1_555
C11B C10B 1_555 1_555
H6B C11B 1_555 1_555
C12B C11B 1_555 1_555
C13B C12B 1_555 1_555
C14B C9B 1_555 1_555
C15B C12B 1_555 1_555
C16B C13B 1_555 1_555
N1B C5B 1_555 1_555
N2B C14B 1_555 1_555
N5B H13B 1_555 1_555
H14B N5B 1_555 1_555
H15B N5B 1_555 1_555
N6B Ag4 1_555 1_555
H16B N6B 1_555 1_555
H17B N6B 1_555 1_555
H18B N6B 1_555 1_555
O1B C7B 1_555 1_555
O3B C7B 1_555 1_555
O4B C8B 1_555 1_555
O5B Ag3 1_555 1_555
O6B N1B 1_555 1_555
O7B N1B 1_555 1_555
O8B Ag2B 1_555 1_555
O9B Ag5B_2 1_555 1_555
O9B_2 Ag5B 1_555 1_555
O10B Ag5 1_555 1_555
O10_2 Ag5B 1_555 1_555
O11B C16B 1_555 1_555
O12B N2B 1_555 1_555
O13B N2B 1_555 1_555
C5 C6 1_555 1_555
C13 C14 1_555 1_555
C15 O8 1_555 1_555
C15 O9 1_555 1_555
C5B C6B 1_555 1_555
C8B O5B 1_555 1_555
C13B C14B 1_555 1_555
C15B O8B 1_555 1_555
C15B O9B 1_555 1_555
C16B O10B 1_555 1_555

#END
