
#######################################################################
#
#                 Cambridge Crystallographic Data Centre
#                                CCDC 
#
#######################################################################
#
# If this CIF has been generated from an entry in the Cambridge 
# Structural Database, then it will include bibliographic, chemical, 
# crystal, experimental, refinement or atomic coordinate data resulting 
# from the CCDC's data processing and validation procedures.
#
#######################################################################

data_LELPEZ
_symmetry_cell_setting           orthorhombic
_symmetry_space_group_name_H-M   'P b c a'
_symmetry_Int_Tables_number      61
_space_group_name_Hall           '-P 2ac 2ab'
loop_
_symmetry_equiv_pos_site_id
_symmetry_equiv_pos_as_xyz
1 x,y,z
2 1/2-x,-y,1/2+z
3 -x,1/2+y,1/2-z
4 1/2+x,1/2-y,-z
5 -x,-y,-z
6 1/2+x,y,1/2-z
7 x,1/2-y,1/2+z
8 1/2-x,1/2+y,z
_cell_length_a                   13.132(3)
_cell_length_b                   6.9261(14)
_cell_length_c                   24.512(5)
_cell_angle_alpha                90
_cell_angle_beta                 90
_cell_angle_gamma                90
_cell_volume                     2229.45
loop_
_atom_site_label
_atom_site_type_symbol
_atom_site_fract_x
_atom_site_fract_y
_atom_site_fract_z
Ag1 Ag 0.74147(3) 0.52582(7) 0.237866(14)
C1 C 0.6280(4) 0.2190(6) 0.42182(19)
C2 C 0.5909(4) 0.2196(6) 0.47501(18)
H1 H 0.6353 0.1972 0.5049
C3 C 0.4884(4) 0.2532(7) 0.48358(18)
H2 H 0.4620 0.2566 0.5196
C4 C 0.4248(4) 0.2818(6) 0.43962(18)
H3 H 0.3545 0.3061 0.4456
C5 C 0.4623(3) 0.2754(6) 0.38633(17)
C6 C 0.5653(3) 0.2429(6) 0.37633(18)
C7 C 0.3873(3) 0.2883(6) 0.33976(18)
C8 C 0.6068(3) 0.2379(6) 0.31883(18)
N1 N 0.7386(3) 0.1981(5) 0.41528(17)
O1 O 0.3988(2) 0.1756(5) 0.30053(13)
O2 O 0.3163(2) 0.4127(5) 0.34443(12)
O4 O 0.6031(2) 0.3908(4) 0.29147(12)
O5 O 0.6405(2) 0.0778(4) 0.30223(12)
O6 O 0.7781(3) 0.2695(5) 0.37476(16)
O7 O 0.7857(3) 0.1138(5) 0.45139(14)
Ag1B Ag 0.25853(3) 0.02582(7) 0.262134(14)
Ag1E Ag 0.24147(3) 0.52582(7) 0.262134(14)
Ag1G Ag 0.75853(3) 0.02582(7) 0.237866(14)
O1B O 0.6012(2) 0.6756(5) 0.19947(13)
O2E O 0.8163(2) 0.4127(5) 0.15557(12)
O5G O 0.8595(2) 0.5778(4) 0.30223(12)
N2 N 0.5120(3) 0.7628(5) 0.30973(15)
H4 H 0.5488 0.6631 0.3142
H5 H 0.4810 0.7523 0.2794
H6 H 0.5490 0.8635 0.3096
H7 H 0.4692 0.7720 0.3356
O3 O 0.3617(3) 0.7630(5) 0.39365(14)
H8 H 0.3575 0.6487 0.3996
H9 H 0.3112 0.8268 0.3896
loop_
_geom_bond_atom_site_label_1
_geom_bond_atom_site_label_2
_geom_bond_site_symmetry_1
_geom_bond_site_symmetry_2
Ag1 O4 1_555 1_555
C1 C2 1_555 1_555
C2 H1 1_555 1_555
C3 C2 1_555 1_555
H2 C3 1_555 1_555
C4 C3 1_555 1_555
H3 C4 1_555 1_555
C5 C4 1_555 1_555
C6 C1 1_555 1_555
C7 C5 1_555 1_555
C8 C6 1_555 1_555
N1 C1 1_555 1_555
N2 H4 1_555 1_555
H5 N2 1_555 1_555
H6 N2 1_555 1_555
H7 N2 1_555 1_555
O1 C7 1_555 1_555
O2 C7 1_555 1_555
O3 H8 1_555 1_555
H9 O3 1_555 1_555
O4 C8 1_555 1_555
O5 C8 1_555 1_555
O6 N1 1_555 1_555
O7 N1 1_555 1_555
Ag1B O1 1_555 1_555
Ag1E O2 1_555 1_555
Ag1G O5 1_555 1_555
O1B Ag1 1_555 1_555
O2E Ag1 1_555 1_555
O5G Ag1 1_555 1_555
C5 C6 1_555 1_555

#END
