
#######################################################################
#
#                 Cambridge Crystallographic Data Centre
#                                CCDC 
#
#######################################################################
#
# If this CIF has been generated from an entry in the Cambridge 
# Structural Database, then it will include bibliographic, chemical, 
# crystal, experimental, refinement or atomic coordinate data resulting 
# from the CCDC's data processing and validation procedures.
#
#######################################################################

data_LELPAV
_symmetry_cell_setting           monoclinic
_symmetry_space_group_name_H-M   'P 21/c'
_symmetry_Int_Tables_number      14
_space_group_name_Hall           '-P 2ybc'
loop_
_symmetry_equiv_pos_site_id
_symmetry_equiv_pos_as_xyz
1 x,y,z
2 -x,1/2+y,1/2-z
3 -x,-y,-z
4 x,1/2-y,1/2+z
_cell_length_a                   13.7150(5)
_cell_length_b                   10.8413(4)
_cell_length_c                   7.3319(3)
_cell_angle_alpha                90
_cell_angle_beta                 102.586(4)
_cell_angle_gamma                90
_cell_volume                     1063.97
loop_
_atom_site_label
_atom_site_type_symbol
_atom_site_fract_x
_atom_site_fract_y
_atom_site_fract_z
Ag1 Ag 0.50873(2) 0.53511(3) -0.20812(4)
Ag2 Ag 0.41223(2) 0.78147(3) -0.51208(4)
O1 O 0.3633(2) 0.4690(3) -0.3540(4)
O2 O 0.1005(2) 0.6431(3) -0.8224(4)
O3 O 0.3648(2) 0.5655(2) -0.6259(4)
C1 C 0.1838(3) 0.2048(4) -0.7370(5)
H1 H 0.1926 0.1182 -0.7449
C2 C 0.0791(3) 0.3820(4) -0.8064(6)
H2 H 0.0172 0.4193 -0.8631
N1 N 0.1395(2) 0.5838(3) -0.6845(5)
C3 C 0.1566(3) 0.4510(4) -0.7069(6)
O4 O 0.1632(2) 0.6268(3) -0.5269(4)
C4 C 0.2499(3) 0.4041(3) -0.6240(5)
C5 C 0.0938(3) 0.2563(4) -0.8217(6)
H3 H 0.0419 0.2059 -0.8904
C6 C 0.3343(3) 0.4865(3) -0.5274(6)
C7 C 0.2624(3) 0.2764(3) -0.6398(5)
O5 O 0.4384(2) 0.2772(2) -0.5752(4)
O6 O 0.3596(2) 0.1167(2) -0.4757(4)
C8 C 0.3622(3) 0.2179(3) -0.5559(5)
N2 N 0.2715(3) 0.8733(3) -0.5762(5)
H4 H 0.2840 0.9539 -0.5527
H5 H 0.2409 0.8675 -0.6976
H6 H 0.2301 0.8492 -0.5032
Ag1A Ag 0.49127(2) 0.03511(3) -0.29188(4)
Ag2B Ag 0.58777(2) 0.21853(3) -0.48792(4)
O5B O 0.5616(2) 0.7228(2) -0.4248(4)
O6A O 0.6404(2) 0.6167(2) -0.0243(4)
loop_
_geom_bond_atom_site_label_1
_geom_bond_atom_site_label_2
_geom_bond_site_symmetry_1
_geom_bond_site_symmetry_2
Ag1 O1 1_555 1_555
Ag2 O3 1_555 1_555
O1 C6 1_555 1_555
O2 N1 1_555 1_555
O3 C6 1_555 1_555
C1 H1 1_555 1_555
C2 H2 1_555 1_555
N1 C3 1_555 1_555
C3 C2 1_555 1_555
O4 N1 1_555 1_555
C4 C3 1_555 1_555
C5 C1 1_555 1_555
H3 C5 1_555 1_555
C6 C4 1_555 1_555
C7 C1 1_555 1_555
O5 C8 1_555 1_555
O6 C8 1_555 1_555
C8 C7 1_555 1_555
N2 Ag2 1_555 1_555
H4 N2 1_555 1_555
H5 N2 1_555 1_555
H6 N2 1_555 1_555
Ag1A O6 1_555 1_555
Ag2B O5 1_555 1_555
O5B Ag2 1_555 1_555
O6A Ag1 1_555 1_555
C2 C5 1_555 1_555
C4 C7 1_555 1_555

#END
