
#######################################################################
#
#                 Cambridge Crystallographic Data Centre
#                                CCDC 
#
#######################################################################
#
# If this CIF has been generated from an entry in the Cambridge 
# Structural Database, then it will include bibliographic, chemical, 
# crystal, experimental, refinement or atomic coordinate data resulting 
# from the CCDC's data processing and validation procedures.
#
#######################################################################

data_LELTIH
_symmetry_cell_setting           monoclinic
_symmetry_space_group_name_H-M   'P 21/n'
_symmetry_Int_Tables_number      14
_space_group_name_Hall           '-P 2yn'
loop_
_symmetry_equiv_pos_site_id
_symmetry_equiv_pos_as_xyz
1 x,y,z
2 1/2-x,1/2+y,1/2-z
3 -x,-y,-z
4 1/2+x,1/2-y,1/2+z
_cell_length_a                   12.996(5)
_cell_length_b                   22.878(5)
_cell_length_c                   13.696(5)
_cell_angle_alpha                90
_cell_angle_beta                 93.972(5)
_cell_angle_gamma                90
_cell_volume                     4062.35
loop_
_atom_site_label
_atom_site_type_symbol
_atom_site_fract_x
_atom_site_fract_y
_atom_site_fract_z
C1 C -0.6029(3) 0.31483(19) -0.2663(3)
C2 C -0.6832(3) 0.35689(18) -0.3092(3)
C3 C -0.7619(3) 0.33844(18) -0.3769(3)
C4 C -0.8242(4) 0.4315(2) -0.3938(4)
H1 H -0.8719 0.4575 -0.4230
C5 C -0.7503(4) 0.4533(2) -0.3285(4)
H2 H -0.7481 0.4929 -0.3136
C6 C -0.6792(4) 0.4154(2) -0.2851(3)
H3 H -0.6284 0.4291 -0.2396
C7 C -0.7775(3) 0.27488(19) -0.4046(3)
C8 C -0.5929(3) 0.1822(2) -0.1023(3)
H4 H -0.6205 0.2122 -0.1469
H5 H -0.6500 0.1654 -0.0699
C9 C -0.5429(3) 0.13462(19) -0.1609(3)
C10 C -0.4315(4) 0.1495(2) -0.1780(4)
H6 H -0.3885 0.1390 -0.1200
H7 H -0.4100 0.1258 -0.2317
C11 C -0.5417(4) 0.0774(2) -0.1035(4)
H8 H -0.5097 0.0474 -0.1399
H9 H -0.6112 0.0661 -0.0927
H10 H -0.5035 0.0827 -0.0416
C12 C -0.6095(4) 0.1267(3) -0.2560(4)
H11 H -0.5798 0.0972 -0.2951
H12 H -0.6130 0.1630 -0.2914
H13 H -0.6777 0.1151 -0.2414
C13 C -0.4515(3) 0.38944(18) -0.0013(3)
H14 H -0.4575 0.4104 0.0597
H15 H -0.5126 0.3981 -0.0436
C14 C -0.3577(3) 0.41210(17) -0.0495(3)
C15 C -0.3530(4) 0.38795(18) -0.1532(3)
H16 H -0.4162 0.3985 -0.1909
H17 H -0.2964 0.4068 -0.1835
C16 C -0.2588(4) 0.3989(2) 0.0124(4)
H18 H -0.2009 0.4137 -0.0199
H19 H -0.2518 0.3575 0.0209
H20 H -0.2613 0.4173 0.0752
C17 C -0.3703(4) 0.47845(19) -0.0601(4)
H21 H -0.3120 0.4943 -0.0903
H22 H -0.3747 0.4957 0.0034
H23 H -0.4322 0.4869 -0.0999
N1 N -0.8325(3) 0.37502(17) -0.4187(3)
N2 N -0.5197(3) 0.20938(15) -0.0281(3)
H47 H -0.4778 0.1819 -0.0001
H48 H -0.5546 0.2262 0.0189
N3 N -0.4137(3) 0.21070(15) -0.2004(2)
H49 H -0.4555 0.2203 -0.2531
H50 H -0.3484 0.2142 -0.2176
N4 N -0.4493(3) 0.32632(14) 0.0196(2)
H51 H -0.5077 0.3172 0.0477
H52 H -0.3966 0.3195 0.0642
N5 N -0.3392(3) 0.32402(14) -0.1590(2)
H53 H -0.2748 0.3159 -0.1345
H54 H -0.3422 0.3144 -0.2229
O1 O -0.5762(2) 0.32046(13) -0.1773(2)
O2 O -0.5692(2) 0.27867(14) -0.3237(2)
O3 O -0.7649(3) 0.26227(13) -0.4920(2)
O4 O -0.8059(2) 0.24163(12) -0.3394(2)
Cu1 Cu -0.43517(4) 0.27025(2) -0.09362(3)
O3C O -0.2649(3) 0.23773(13) 0.0080(2)
Cu1C Cu -0.93517(4) 0.22975(2) -0.59362(3)
C18 C 0.1970(3) 0.18919(19) 0.0745(3)
C19 C 0.2744(3) 0.14477(18) 0.1166(3)
C20 C 0.2653(3) 0.08636(19) 0.0923(3)
H24 H 0.2140 0.0739 0.0463
C21 C 0.3332(4) 0.0466(2) 0.1368(4)
H25 H 0.3275 0.0069 0.1223
C22 C 0.4091(4) 0.0667(2) 0.2027(4)
H26 H 0.4546 0.0396 0.2323
C23 C 0.3547(3) 0.16088(18) 0.1848(3)
C24 C 0.3733(3) 0.22402(19) 0.2150(3)
C25 C 0.0490(3) 0.11311(18) -0.1919(3)
H27 H 0.1091 0.1042 -0.1486
H28 H 0.0565 0.0926 -0.2531
C26 C -0.0466(3) 0.08997(18) -0.1462(3)
C27 C -0.0527(3) 0.11248(18) -0.0424(3)
H29 H -0.1097 0.0932 -0.0135
H30 H 0.0101 0.1015 -0.0044
C28 C -0.1436(4) 0.1051(2) -0.2089(4)
H31 H -0.1507 0.1468 -0.2131
H32 H -0.2025 0.0888 -0.1801
H33 H -0.1390 0.0893 -0.2734
C29 C -0.0351(4) 0.0237(2) -0.1395(4)
H34 H 0.0266 0.0142 -0.1001
H35 H -0.0310 0.0078 -0.2039
H36 H -0.0937 0.0075 -0.1102
C30 C 0.0167(3) 0.35282(18) -0.0126(3)
H37 H -0.0064 0.3757 0.0413
H38 H -0.0278 0.3621 -0.0703
C31 C 0.1273(4) 0.37059(19) -0.0308(3)
C32 C 0.1810(4) 0.3240(2) -0.0902(4)
H39 H 0.2357 0.3425 -0.1236
H40 H 0.2126 0.2953 -0.0454
C33 C 0.1233(4) 0.4294(2) -0.0822(4)
H41 H 0.1920 0.4414 -0.0945
H42 H 0.0928 0.4579 -0.0416
H43 H 0.0826 0.4261 -0.1432
C34 C 0.1927(4) 0.3753(3) 0.0653(4)
H44 H 0.1948 0.3381 0.0977
H45 H 0.1633 0.4040 0.1063
H46 H 0.2615 0.3869 0.0524
N6 N -0.0667(2) 0.17659(14) -0.0342(2)
H55 H -0.0641 0.1853 0.0300
H56 H -0.1311 0.1849 -0.0588
N7 N 0.0473(3) 0.17683(14) -0.2115(2)
H57 H -0.0044 0.1840 -0.2571
H58 H 0.1065 0.1862 -0.2380
N8 N 0.0058(3) 0.28977(15) 0.0103(2)
H59 H -0.0583 0.2840 0.0293
H60 H 0.0500 0.2814 0.0619
N9 N 0.1133(3) 0.29415(17) -0.1615(3)
H61 H 0.1508 0.2776 -0.2069
H62 H 0.0701 0.3202 -0.1919
N10 N 0.4216(3) 0.12285(17) 0.2270(3)
O5 O 0.1695(2) 0.18321(14) -0.0146(2)
O6 O 0.1667(2) 0.22631(14) 0.1318(2)
O7 O 0.4032(2) 0.25795(13) 0.1509(2)
O8 O 0.3617(2) 0.23783(15) 0.3024(2)
Cu2 Cu 0.03009(4) 0.23168(2) -0.09743(3)
O8C O -0.1383(2) 0.26217(15) -0.1976(2)
Cu2C Cu 0.53009(4) 0.26832(2) 0.40257(3)
loop_
_geom_bond_atom_site_label_1
_geom_bond_atom_site_label_2
_geom_bond_site_symmetry_1
_geom_bond_site_symmetry_2
C1 C2 1_555 1_555
C2 C3 1_555 1_555
C3 C7 1_555 1_555
C4 H1 1_555 1_555
C5 C4 1_555 1_555
H2 C5 1_555 1_555
C6 C2 1_555 1_555
H3 C6 1_555 1_555
C7 O3 1_555 1_555
C8 H4 1_555 1_555
H5 C8 1_555 1_555
C9 C8 1_555 1_555
C10 C9 1_555 1_555
H6 C10 1_555 1_555
H7 C10 1_555 1_555
C11 C9 1_555 1_555
H8 C11 1_555 1_555
H9 C11 1_555 1_555
H10 C11 1_555 1_555
C12 C9 1_555 1_555
H11 C12 1_555 1_555
H12 C12 1_555 1_555
H13 C12 1_555 1_555
C13 H14 1_555 1_555
H15 C13 1_555 1_555
C14 C13 1_555 1_555
C15 C14 1_555 1_555
H16 C15 1_555 1_555
H17 C15 1_555 1_555
C16 C14 1_555 1_555
H18 C16 1_555 1_555
H19 C16 1_555 1_555
H20 C16 1_555 1_555
C17 C14 1_555 1_555
H21 C17 1_555 1_555
H22 C17 1_555 1_555
H23 C17 1_555 1_555
C18 C19 1_555 1_555
C19 C20 1_555 1_555
C20 H24 1_555 1_555
C21 C20 1_555 1_555
H25 C21 1_555 1_555
C22 C21 1_555 1_555
H26 C22 1_555 1_555
C23 C19 1_555 1_555
C24 C23 1_555 1_555
C25 H27 1_555 1_555
H28 C25 1_555 1_555
C26 C25 1_555 1_555
C27 C26 1_555 1_555
H29 C27 1_555 1_555
H30 C27 1_555 1_555
C28 C26 1_555 1_555
H31 C28 1_555 1_555
H32 C28 1_555 1_555
H33 C28 1_555 1_555
C29 C26 1_555 1_555
H34 C29 1_555 1_555
H35 C29 1_555 1_555
H36 C29 1_555 1_555
C30 H37 1_555 1_555
H38 C30 1_555 1_555
C31 C30 1_555 1_555
C32 C31 1_555 1_555
H39 C32 1_555 1_555
H40 C32 1_555 1_555
C33 C31 1_555 1_555
H41 C33 1_555 1_555
H42 C33 1_555 1_555
H43 C33 1_555 1_555
C34 C31 1_555 1_555
H44 C34 1_555 1_555
H45 C34 1_555 1_555
H46 C34 1_555 1_555
N1 C3 1_555 1_555
N2 C8 1_555 1_555
H47 N2 1_555 1_555
H48 N2 1_555 1_555
N3 C10 1_555 1_555
H49 N3 1_555 1_555
H50 N3 1_555 1_555
N4 C13 1_555 1_555
H51 N4 1_555 1_555
H52 N4 1_555 1_555
N5 C15 1_555 1_555
H53 N5 1_555 1_555
H54 N5 1_555 1_555
N6 C27 1_555 1_555
H55 N6 1_555 1_555
H56 N6 1_555 1_555
N7 C25 1_555 1_555
H57 N7 1_555 1_555
H58 N7 1_555 1_555
N8 C30 1_555 1_555
H59 N8 1_555 1_555
H60 N8 1_555 1_555
N9 C32 1_555 1_555
H61 N9 1_555 1_555
H62 N9 1_555 1_555
N10 C22 1_555 1_555
O1 C1 1_555 1_555
O2 C1 1_555 1_555
O3 Cu1C 1_555 1_555
O4 C7 1_555 1_555
O5 C18 1_555 1_555
O6 C18 1_555 1_555
O7 C24 1_555 1_555
O8 C24 1_555 1_555
Cu1 N2 1_555 1_555
Cu2 N6 1_555 1_555
O3C Cu1 1_555 1_555
O8C Cu2 1_555 1_555
Cu2C O8 1_555 1_555
C4 N1 1_555 1_555
C5 C6 1_555 1_555
C23 N10 1_555 1_555
N3 Cu1 1_555 1_555
N4 Cu1 1_555 1_555
N5 Cu1 1_555 1_555
N7 Cu2 1_555 1_555
N8 Cu2 1_555 1_555
N9 Cu2 1_555 1_555
O1 Cu1 1_555 1_555
O5 Cu2 1_555 1_555

#END
