
#######################################################################
#
#                 Cambridge Crystallographic Data Centre
#                                CCDC 
#
#######################################################################
#
# If this CIF has been generated from an entry in the Cambridge 
# Structural Database, then it will include bibliographic, chemical, 
# crystal, experimental, refinement or atomic coordinate data resulting 
# from the CCDC's data processing and validation procedures.
#
#######################################################################

data_LELVEF
_symmetry_cell_setting           monoclinic
_symmetry_space_group_name_H-M   'I 2/a'
_symmetry_Int_Tables_number      15
_space_group_name_Hall           '-I 2ya'
loop_
_symmetry_equiv_pos_site_id
_symmetry_equiv_pos_as_xyz
1 x,y,z
2 1/2-x,y,-z
3 1/2+x,1/2+y,1/2+z
4 -x,1/2+y,1/2-z
5 -x,-y,-z
6 1/2+x,-y,z
7 1/2-x,1/2-y,1/2-z
8 x,1/2-y,1/2+z
_cell_length_a                   16.435
_cell_length_b                   7.076
_cell_length_c                   20.060
_cell_angle_alpha                90
_cell_angle_beta                 107.66
_cell_angle_gamma                90
_cell_volume                     2222.92
loop_
_atom_site_label
_atom_site_type_symbol
_atom_site_fract_x
_atom_site_fract_y
_atom_site_fract_z
C1 C 0.4087(3) 0.3495(10) 0.3434(4)
C2 C 0.4661(3) 0.4984(10) 0.3645(4)
C3 C 0.4637(3) 0.6600(10) 0.4130(4)
C4 C 0.5662(5) 0.7772(12) 0.3891(6)
H1 H 0.6042 0.8762 0.3915
C5 C 0.5736(4) 0.6172(12) 0.3456(5)
H2 H 0.6179 0.6184 0.3256
C6 C 0.5237(4) 0.4769(11) 0.3332(5)
H3 H 0.5278 0.3736 0.3057
C7 C 0.4094(4) 0.7000(11) 0.4561(4)
N1 N 0.5133(3) 0.7983(9) 0.4249(4)
O1 O 0.3562(2) 0.3922(7) 0.2813(3)
O2 O 0.4191(3) 0.1969(8) 0.3809(4)
O3 O 0.3615(3) 0.5834(8) 0.4529(4)
O4 O 0.3051(3) -0.0227(8) 0.3077(4)
H4 H 0.3296 -0.0864 0.2829
H5 H 0.3420 0.0038 0.3473
Cu1 Cu 0.5000 1.0000 0.5000
Cd1 Cd 0.2500 0.2500 0.2500
O5 O 0.4165(3) 0.8556(8) 0.4976(3)
O7 O 0.2510(3) 0.3312(11) 0.3867(4)
H8 H 0.2758 0.2418 0.4138
H9 H 0.2777 0.4344 0.4002
C1D C 0.5913(3) 1.6505(10) 0.6566(4)
C2D C 0.5339(3) 1.5016(10) 0.6355(4)
C3D C 0.5363(3) 1.3400(10) 0.5870(4)
C4D C 0.4338(5) 1.2228(12) 0.6109(6)
H1D H 0.3958 1.1238 0.6085
C5D C 0.4264(4) 1.3828(12) 0.6544(5)
H2D H 0.3821 1.3816 0.6744
C6D C 0.4763(4) 1.5231(11) 0.6668(5)
H3D H 0.4722 1.6264 0.6943
C7D C 0.5906(4) 1.3000(11) 0.5439(4)
N1D N 0.4867(3) 1.2017(9) 0.5751(4)
O1D O 0.6438(2) 1.6078(7) 0.7187(3)
O1F O 0.1438(2) 0.1078(7) 0.2187(3)
O2D O 0.5809(3) 1.8031(8) 0.6191(4)
O3D O 0.6385(3) 1.4166(8) 0.5471(4)
O4F O 0.1949(3) 0.5227(8) 0.1923(4)
H4F H 0.1704 0.5864 0.2171
H5F H 0.1580 0.4962 0.1527
Cd1B Cd 0.7500 1.7500 0.7500
O5D O 0.5835(3) 1.1444(8) 0.5024(3)
O7F O 0.2490(3) 0.1688(11) 0.1133(4)
H8F H 0.2242 0.2582 0.0862
H9F H 0.2223 0.0656 0.0998
O6 O 0.3439(7) 0.7369(10) 0.2009(7)
H6 H 0.3446 0.6226 0.2141
H7 H 0.3388 0.7403 0.1575
loop_
_geom_bond_atom_site_label_1
_geom_bond_atom_site_label_2
_geom_bond_site_symmetry_1
_geom_bond_site_symmetry_2
C1 C2 1_555 1_555
C2 C3 1_555 1_555
C3 C7 1_555 1_555
C4 H1 1_555 1_555
C5 C4 1_555 1_555
H2 C5 1_555 1_555
C6 C2 1_555 1_555
H3 C6 1_555 1_555
C7 O3 1_555 1_555
N1 C3 1_555 1_555
O1 C1 1_555 1_555
O2 C1 1_555 1_555
O4 H4 1_555 1_555
H5 O4 1_555 1_555
Cu1 N1 1_555 1_555
Cd1 O1 1_555 1_555
O5 C7 1_555 1_555
O6 H6 1_555 1_555
H7 O6 1_555 1_555
O7 Cd1 1_555 1_555
H8 O7 1_555 1_555
H9 O7 1_555 1_555
C1D C2D 1_555 1_555
C2D C3D 1_555 1_555
C3D C7D 1_555 1_555
C4D H1D 1_555 1_555
C5D C4D 1_555 1_555
H2D C5D 1_555 1_555
C6D C2D 1_555 1_555
H3D C6D 1_555 1_555
C7D O3D 1_555 1_555
N1D Cu1 1_555 1_555
O1D C1D 1_555 1_555
O1F Cd1 1_555 1_555
O2D C1D 1_555 1_555
O4F Cd1 1_555 1_555
H4F O4F 1_555 1_555
H5F O4F 1_555 1_555
Cd1B O1D 1_555 1_555
O5D Cu1 1_555 1_555
O7F Cd1 1_555 1_555
H8F O7F 1_555 1_555
H9F O7F 1_555 1_555
C4 N1 1_555 1_555
C5 C6 1_555 1_555
O4 Cd1 1_555 1_555
Cu1 O5 1_555 1_555
C3D N1D 1_555 1_555
C4D N1D 1_555 1_555
C5D C6D 1_555 1_555
C7D O5D 1_555 1_555

#END
