
#######################################################################
#
#                 Cambridge Crystallographic Data Centre
#                                CCDC 
#
#######################################################################
#
# If this CIF has been generated from an entry in the Cambridge 
# Structural Database, then it will include bibliographic, chemical, 
# crystal, experimental, refinement or atomic coordinate data resulting 
# from the CCDC's data processing and validation procedures.
#
#######################################################################

data_LELXIL
_symmetry_cell_setting           orthorhombic
_symmetry_space_group_name_H-M   'P 21 21 21'
_symmetry_Int_Tables_number      19
_space_group_name_Hall           'P 2ac 2ab'
loop_
_symmetry_equiv_pos_site_id
_symmetry_equiv_pos_as_xyz
1 x,y,z
2 1/2-x,-y,1/2+z
3 -x,1/2+y,1/2-z
4 1/2+x,1/2-y,-z
_cell_length_a                   9.9928(5)
_cell_length_b                   17.3371(11)
_cell_length_c                   17.7642(9)
_cell_angle_alpha                90
_cell_angle_beta                 90
_cell_angle_gamma                90
_cell_volume                     3077.58
loop_
_atom_site_label
_atom_site_type_symbol
_atom_site_fract_x
_atom_site_fract_y
_atom_site_fract_z
C1 C 0.1362(6) -0.2414(4) 0.0970(4)
O1 O 0.5215(4) -0.2625(3) 0.1136(2)
H1 H 0.4868 -0.2380 0.1479
O2 O 0.0718(4) -0.2561(3) 0.0391(2)
C2 C 0.2465(7) 0.0317(4) 0.1401(4)
C3 C 0.1120(7) 0.0447(4) 0.1592(4)
C4 C 0.0695(8) 0.1197(4) 0.1662(4)
H2 H -0.0187 0.1293 0.1801
C5 C 0.1537(9) 0.1810(4) 0.1533(4)
H3 H 0.1237 0.2314 0.1589
C6 C 0.2851(8) 0.1658(4) 0.1317(4)
H4 H 0.3418 0.2071 0.1216
C7 C 0.3336(8) 0.0926(4) 0.1246(4)
C8 C 0.4762(7) 0.0783(4) 0.1018(4)
H5 H 0.5121 0.1245 0.0785
H6 H 0.4787 0.0372 0.0648
C9 C 0.5974(7) -0.0206(4) 0.1843(4)
C10 C 0.5627(6) 0.0564(4) 0.1682(4)
C11 C 0.5952(7) 0.1114(4) 0.2208(4)
H7 H 0.5760 0.1629 0.2106
C12 C 0.6542(6) 0.0932(4) 0.2871(4)
H8 H 0.6799 0.1320 0.3204
C13 C 0.6761(7) 0.0168(4) 0.3050(4)
H9 H 0.7088 0.0040 0.3524
C14 C 0.6496(6) -0.0423(4) 0.2523(4)
C15 C 0.6707(7) -0.1250(4) 0.2753(4)
H10 H 0.6596 -0.1581 0.2318
H11 H 0.7614 -0.1314 0.2938
C16 C 0.4454(7) -0.1742(4) 0.3174(4)
C17 C 0.5742(8) -0.1486(4) 0.3353(4)
C18 C 0.6088(8) -0.1442(4) 0.4100(4)
H12 H 0.6936 -0.1268 0.4232
C19 C 0.5184(8) -0.1654(4) 0.4664(4)
H13 H 0.5429 -0.1624 0.5168
C20 C 0.3944(9) -0.1906(4) 0.4467(4)
H14 H 0.3350 -0.2048 0.4845
C21 C 0.3534(7) -0.1957(4) 0.3724(4)
C22 C 0.2130(7) -0.2198(4) 0.3546(4)
H15 H 0.1770 -0.2491 0.3966
H16 H 0.2134 -0.2531 0.3107
C23 C 0.0994(8) -0.1258(4) 0.2678(4)
C24 C 0.0356(6) -0.0552(4) 0.2523(4)
C25 C -0.0073(7) -0.0134(4) 0.3141(4)
H17 H -0.0504 0.0334 0.3061
C26 C 0.0113(7) -0.0381(5) 0.3864(4)
H18 H -0.0198 -0.0085 0.4264
C27 C 0.0760(7) -0.1068(4) 0.4000(4)
H19 H 0.0873 -0.1240 0.4492
C28 C 0.1249(7) -0.1512(4) 0.3397(4)
C29 C 0.0206(7) -0.0228(4) 0.1742(4)
H20 H -0.0713 -0.0065 0.1669
H21 H 0.0395 -0.0631 0.1378
C30 C 0.3038(9) -0.1346(5) -0.0743(5)
H22 H 0.3455 -0.1607 -0.1135
C31 C 0.1418(8) -0.0380(4) -0.0412(5)
H23 H 0.0849 -0.0027 -0.0678
H24 H 0.2013 -0.0096 -0.0090
H25 H 0.0880 -0.0722 -0.0113
C32 C 0.1952(8) -0.0664(5) -0.1718(4)
H26 H 0.1293 -0.0265 -0.1774
H27 H 0.1642 -0.1126 -0.1960
H28 H 0.2776 -0.0501 -0.1947
C33 C 0.6512(8) -0.0763(4) 0.0642(4)
H29 H 0.6956 -0.0267 0.0610
H30 H 0.5933 -0.0809 0.0206
C34 C 0.7557(8) -0.1381(5) 0.0594(5)
C35 C 0.0618(7) -0.2148(4) 0.1664(4)
H31 H -0.0161 -0.1848 0.1523
H32 H 0.0322 -0.2590 0.1956
O3 O 0.2839(5) -0.0436(3) 0.1358(2)
H33 H 0.3626 -0.0462 0.1230
O4 O 0.5700(4) -0.0765(2) 0.1294(2)
O5 O 0.4157(4) -0.1787(2) 0.2416(2)
H34 H 0.3394 -0.1952 0.2362
O6 O 0.1517(4) -0.1688(2) 0.2097(3)
O7 O 0.3347(6) -0.1530(3) -0.0129(3)
O8 O 0.7525(5) -0.1930(3) 0.1056(3)
H35 H 0.8221 -0.2179 0.1025
O9 O 0.8373(5) -0.1345(3) 0.0060(3)
O10 O 0.2578(4) -0.2495(3) 0.1043(2)
Zn1 Zn 0.39944(7) -0.25961(4) 0.02085(4)
N1 N 0.2171(6) -0.0813(3) -0.0932(3)
O2C O 0.5718(4) -0.2439(3) -0.0391(2)
O9C O 0.3373(5) -0.3655(3) -0.0060(3)
Zn1C Zn -0.10056(7) -0.24039(4) -0.02085(4)
Zn1C_2 Zn 0.89944(7) -0.24039(4) -0.02085(4)
loop_
_geom_bond_atom_site_label_1
_geom_bond_atom_site_label_2
_geom_bond_site_symmetry_1
_geom_bond_site_symmetry_2
C1 O2 1_555 1_555
O1 H1 1_555 1_555
O2 Zn1C 1_555 1_555
C2 C3 1_555 1_555
C3 C4 1_555 1_555
C4 H2 1_555 1_555
C5 C4 1_555 1_555
H3 C5 1_555 1_555
C6 C5 1_555 1_555
H4 C6 1_555 1_555
C7 C2 1_555 1_555
C8 C7 1_555 1_555
H5 C8 1_555 1_555
H6 C8 1_555 1_555
C9 C10 1_555 1_555
C10 C8 1_555 1_555
C11 C10 1_555 1_555
H7 C11 1_555 1_555
C12 C11 1_555 1_555
H8 C12 1_555 1_555
C13 C12 1_555 1_555
H9 C13 1_555 1_555
C14 C9 1_555 1_555
C15 C14 1_555 1_555
H10 C15 1_555 1_555
H11 C15 1_555 1_555
C16 C17 1_555 1_555
C17 C15 1_555 1_555
C18 C17 1_555 1_555
H12 C18 1_555 1_555
C19 C18 1_555 1_555
H13 C19 1_555 1_555
C20 C19 1_555 1_555
H14 C20 1_555 1_555
C21 C16 1_555 1_555
C22 C21 1_555 1_555
H15 C22 1_555 1_555
H16 C22 1_555 1_555
C23 C24 1_555 1_555
C24 C25 1_555 1_555
C25 H17 1_555 1_555
C26 C25 1_555 1_555
H18 C26 1_555 1_555
C27 C26 1_555 1_555
H19 C27 1_555 1_555
C28 C22 1_555 1_555
C29 C3 1_555 1_555
H20 C29 1_555 1_555
H21 C29 1_555 1_555
C30 H22 1_555 1_555
C31 H23 1_555 1_555
H24 C31 1_555 1_555
H25 C31 1_555 1_555
C32 H26 1_555 1_555
H27 C32 1_555 1_555
H28 C32 1_555 1_555
C33 H29 1_555 1_555
H30 C33 1_555 1_555
C34 C33 1_555 1_555
C35 C1 1_555 1_555
H31 C35 1_555 1_555
H32 C35 1_555 1_555
O3 C2 1_555 1_555
H33 O3 1_555 1_555
O4 C9 1_555 1_555
O5 C16 1_555 1_555
H34 O5 1_555 1_555
O6 C23 1_555 1_555
O7 C30 1_555 1_555
O8 C34 1_555 1_555
H35 O8 1_555 1_555
O9 C34 1_555 1_555
O10 C1 1_555 1_555
Zn1 O1 1_555 1_555
N1 C30 1_555 1_555
O2C Zn1 1_555 1_555
O9C Zn1 1_555 1_555
Zn1C_2 O9 1_555 1_555
C6 C7 1_555 1_555
C13 C14 1_555 1_555
C20 C21 1_555 1_555
C23 C28 1_555 1_555
C24 C29 1_555 1_555
C27 C28 1_555 1_555
C31 N1 1_555 1_555
C32 N1 1_555 1_555
C33 O4 1_555 1_555
C35 O6 1_555 1_555
O7 Zn1 1_555 1_555
O10 Zn1 1_555 1_555

#END
