
#######################################################################
#
#                 Cambridge Crystallographic Data Centre
#                                CCDC 
#
#######################################################################
#
# If this CIF has been generated from an entry in the Cambridge 
# Structural Database, then it will include bibliographic, chemical, 
# crystal, experimental, refinement or atomic coordinate data resulting 
# from the CCDC's data processing and validation procedures.
#
#######################################################################

data_LELXUW
_symmetry_cell_setting           monoclinic
_symmetry_space_group_name_H-M   'P 2/c'
_symmetry_Int_Tables_number      13
_space_group_name_Hall           '-P 2yc'
loop_
_symmetry_equiv_pos_site_id
_symmetry_equiv_pos_as_xyz
1 x,y,z
2 -x,y,1/2-z
3 -x,-y,-z
4 x,-y,1/2+z
_cell_length_a                   11.254(2)
_cell_length_b                   11.312(2)
_cell_length_c                   22.898(5)
_cell_angle_alpha                90
_cell_angle_beta                 93.29(3)
_cell_angle_gamma                90
_cell_volume                     2910.23
loop_
_atom_site_label
_atom_site_type_symbol
_atom_site_fract_x
_atom_site_fract_y
_atom_site_fract_z
Ni1 Ni 0.0000 1.0000 0.5000
Ni2 Ni -0.5000 0.79816(5) 0.2500
Ni3 Ni 0.0000 0.83747(5) 0.2500
O1 O 0.0098(3) 1.1521(2) 0.45122(14)
H1 H -0.041(3) 1.205(3) 0.4439(19)
H2 H 0.076(2) 1.173(4) 0.439(3)
O2 O -0.6049(3) 0.8007(3) 0.32192(14)
H3 H -0.637(7) 0.862(4) 0.333(2)
H4 H -0.596(5) 0.753(4) 0.3497(15)
O4 O -0.3481(2) 0.7817(2) 0.30694(12)
O5 O -0.1734(2) 0.8433(2) 0.27946(12)
O6 O -0.0019(2) 0.9021(2) 0.42160(12)
O7 O 0.0602(2) 0.8442(2) 0.33715(11)
O8 O -0.7793(3) 0.2094(3) 0.4028(2)
O9 O -0.8195(3) 0.3781(3) 0.4402(2)
O10 O -0.7383(4) 0.5707(3) 0.4486(2)
H5 H -0.768(6) 0.502(3) 0.447(3)
O11 O -0.5803(4) 0.6609(3) 0.42098(17)
O12 O -0.1796(3) 0.3020(2) 0.41749(16)
N1 N -0.1872(3) 1.0082(3) 0.49337(14)
N2 N -0.5000 0.6070(3) 0.2500
N3 N -0.5000 -0.0149(4) 0.2500
N4 N 0.0000 1.0280(3) 0.2500
N5 N 0.0000 1.6478(3) 0.2500
C1 C -0.2524(4) 0.9199(4) 0.4704(2)
H6 H -0.2131 0.8584 0.4527
C2 C -0.3740(4) 0.9142(4) 0.4712(2)
H7 H -0.4148 0.8506 0.4539
C3 C -0.4352(3) 1.0016(3) 0.49736(17)
C4 C -0.3680(4) 1.0952(3) 0.5200(2)
H8 H -0.4051 1.1585 0.5373
C5 C -0.2473(4) 1.0943(3) 0.5167(2)
H9 H -0.2047 1.1588 0.5320
C6 C -0.5920(4) 0.5453(3) 0.26726(17)
H10 H -0.6573 0.5868 0.2798
C7 C -0.5968(4) 0.4251(3) 0.26775(19)
H11 H -0.6641 0.3865 0.2798
C8 C -0.5000 0.3603(4) 0.2500
C9 C -0.5000 0.2310(4) 0.2500
C10 C -0.6044(4) 0.1664(3) 0.24041(19)
H12 H -0.6769 0.2052 0.2341
C11 C -0.6001(4) 0.0460(3) 0.24031(19)
H13 H -0.6707 0.0044 0.2331
C12 C 0.0273(4) 1.0893(3) 0.20313(19)
H14 H 0.0476 1.0480 0.1700
C13 C 0.0269(5) 1.2100(3) 0.20112(19)
H15 H 0.0448 1.2491 0.1670
C14 C 0.0000 1.2731(4) 0.2500
C15 C 0.0000 1.4031(4) 0.2500
C16 C 0.0680(4) 1.4661(3) 0.29157(18)
H16 H 0.1132 1.4270 0.3208
C17 C 0.0675(4) 1.5877(3) 0.28890(18)
H17 H 0.1167 1.6295 0.3156
C18 C -0.2369(3) 0.5910(3) 0.36374(17)
H18 H -0.3111 0.5768 0.3451
C19 C -0.1792(3) 0.6973(3) 0.35400(15)
C20 C -0.0720(3) 0.7196(3) 0.38537(15)
C21 C -0.0230(4) 0.6346(3) 0.42404(17)
H19 H 0.0471 0.6510 0.4460
C22 C -0.0772(3) 0.5280(3) 0.42968(17)
H20 H -0.0408 0.4697 0.4531
C23 C -0.1858(3) 0.5060(3) 0.40083(17)
C24 C -0.2421(4) 0.3882(3) 0.40953(18)
C25 C -0.3729(3) 0.3747(3) 0.40938(17)
C26 C -0.4219(4) 0.2639(3) 0.40152(19)
H21 H -0.3733 0.1995 0.3946
C27 C -0.5418(4) 0.2485(3) 0.40385(19)
H22 H -0.5735 0.1734 0.3974
C28 C -0.6182(4) 0.3409(3) 0.41546(18)
C29 C -0.5688(3) 0.4547(3) 0.42273(17)
C30 C -0.4475(3) 0.4681(3) 0.41986(17)
H23 H -0.4147 0.5430 0.4252
C31 C -0.2376(3) 0.7818(3) 0.30969(16)
C32 C -0.0007(3) 0.8317(3) 0.38045(15)
C33 C -0.7470(4) 0.3079(4) 0.4198(2)
C34 C -0.6333(4) 0.5701(4) 0.4307(2)
Ni1_2 Ni -1.0000 1.0000 0.5000
Ni2_2 Ni -0.5000 -0.20184(5) 0.2500
Ni2C Ni 0.5000 1.20184(5) 0.7500
Ni3_2 Ni 0.0000 1.83747(5) 0.2500
Ni3C Ni 0.0000 1.16253(5) 0.7500
O1B O -0.0098(3) 0.8479(2) 0.54878(14)
H1B H 0.041(3) 0.795(3) 0.5561(19)
H2B H -0.076(2) 0.827(4) 0.561(3)
O2A O -0.3951(3) 0.8007(3) 0.17808(14)
H3A H -0.363(7) 0.862(4) 0.167(2)
H4A H -0.404(5) 0.753(4) 0.1503(15)
O4B O 0.3481(2) 1.2183(2) 0.69306(12)
O4A O -0.6519(2) 0.7817(2) 0.19306(12)
O5B O 0.1734(2) 1.1567(2) 0.72054(12)
O5A O 0.1734(2) 0.8433(2) 0.22054(12)
O6B O 0.0019(2) 1.0979(2) 0.57840(12)
O7B O -0.0602(2) 1.1558(2) 0.66285(11)
O7A O -0.0602(2) 0.8442(2) 0.16285(11)
O8B O 0.7793(3) 1.7906(3) 0.5972(2)
O9B O 0.8195(3) 1.6219(3) 0.5598(2)
O10B O 0.7383(4) 1.4293(3) 0.5514(2)
H5B H 0.768(6) 1.498(3) 0.553(3)
O11B O 0.5803(4) 1.3391(3) 0.57902(17)
O12B O 0.1796(3) 1.6980(2) 0.58251(16)
N1B N -0.8128(3) 0.9918(3) 0.50663(14)
N1B_2 N 0.1872(3) 0.9918(3) 0.50663(14)
N3_2 N -0.5000 0.9851(4) 0.2500
N5_2 N 0.0000 0.6478(3) 0.2500
C1B C -0.7476(4) 1.0801(4) 0.5296(2)
H6B H -0.7869 1.1416 0.5473
C2B C -0.6260(4) 1.0858(4) 0.5288(2)
H7B H -0.5852 1.1494 0.5461
C3B C -0.5648(3) 0.9984(3) 0.50264(17)
C4B C -0.6320(4) 0.9048(3) 0.4800(2)
H8B H -0.5949 0.8415 0.4627
C5B C -0.7527(4) 0.9057(3) 0.4833(2)
H9B H -0.7953 0.8412 0.4680
C6A C -0.4080(4) 0.5453(3) 0.23274(17)
H10A H -0.3427 0.5868 0.2202
C7A C -0.4032(4) 0.4251(3) 0.23225(19)
H11A H -0.3359 0.3865 0.2202
C10A C -0.3956(4) 0.1664(3) 0.25959(19)
H12A H -0.3231 0.2052 0.2659
C11A C -0.3999(4) 0.0460(3) 0.25969(19)
H13A H -0.3293 0.0044 0.2669
C12A C -0.0273(4) 1.0893(3) 0.29687(19)
H14A H -0.0476 1.0480 0.3300
C13A C -0.0269(5) 1.2100(3) 0.29888(19)
H15A H -0.0448 1.2491 0.3330
C16A C -0.0680(4) 1.4661(3) 0.20843(18)
H16A H -0.1132 1.4270 0.1792
C17A C -0.0675(4) 1.5877(3) 0.21110(18)
H17A H -0.1167 1.6295 0.1844
C18B C 0.2369(3) 1.4090(3) 0.63626(17)
H18B H 0.3111 1.4232 0.6549
C19B C 0.1792(3) 1.3027(3) 0.64600(15)
C20B C 0.0720(3) 1.2804(3) 0.61463(15)
C21B C 0.0230(4) 1.3654(3) 0.57596(17)
H19B H -0.0471 1.3490 0.5540
C22B C 0.0772(3) 1.4720(3) 0.57032(17)
H20B H 0.0408 1.5303 0.5469
C23B C 0.1858(3) 1.4940(3) 0.59917(17)
C24B C 0.2421(4) 1.6118(3) 0.59047(18)
C25B C 0.3729(3) 1.6253(3) 0.59062(17)
C26B C 0.4219(4) 1.7361(3) 0.59848(19)
H21B H 0.3733 1.8005 0.6054
C27B C 0.5418(4) 1.7515(3) 0.59615(19)
H22B H 0.5735 1.8266 0.6026
C28B C 0.6182(4) 1.6591(3) 0.58454(18)
C29B C 0.5688(3) 1.5453(3) 0.57727(17)
C30B C 0.4475(3) 1.5319(3) 0.58014(17)
H23B H 0.4147 1.4570 0.5748
C31B C 0.2376(3) 1.2182(3) 0.69031(16)
C32B C 0.0007(3) 1.1683(3) 0.61955(15)
C33B C 0.7470(4) 1.6921(4) 0.5802(2)
C34B C 0.6333(4) 1.4299(4) 0.5693(2)
O3 O 0.2584(3) 0.9892(3) 0.34609(18)
loop_
_geom_bond_atom_site_label_1
_geom_bond_atom_site_label_2
_geom_bond_site_symmetry_1
_geom_bond_site_symmetry_2
Ni1 O1 1_555 1_555
Ni2 O2 1_555 1_555
Ni3 O5 1_555 1_555
O1 H1 1_555 1_555
H2 O1 1_555 1_555
O2 H3 1_555 1_555
H4 O2 1_555 1_555
O4 Ni2 1_555 1_555
O5 C31 1_555 1_555
O6 Ni1 1_555 1_555
O7 Ni3 1_555 1_555
O8 C33 1_555 1_555
O9 C33 1_555 1_555
O10 H5 1_555 1_555
O11 C34 1_555 1_555
O12 C24 1_555 1_555
N1 Ni1 1_555 1_555
N2 Ni2 1_555 1_555
N3 C11 1_555 1_555
N4 Ni3 1_555 1_555
N5 C17 1_555 1_555
C1 N1 1_555 1_555
H6 C1 1_555 1_555
C2 C1 1_555 1_555
H7 C2 1_555 1_555
C3 C2 1_555 1_555
C4 C3 1_555 1_555
H8 C4 1_555 1_555
C5 N1 1_555 1_555
H9 C5 1_555 1_555
C6 N2 1_555 1_555
H10 C6 1_555 1_555
C7 C6 1_555 1_555
H11 C7 1_555 1_555
C8 C7 1_555 1_555
C9 C8 1_555 1_555
C10 C9 1_555 1_555
H12 C10 1_555 1_555
C11 C10 1_555 1_555
H13 C11 1_555 1_555
C12 N4 1_555 1_555
H14 C12 1_555 1_555
C13 C12 1_555 1_555
H15 C13 1_555 1_555
C14 C13 1_555 1_555
C15 C14 1_555 1_555
C16 C15 1_555 1_555
H16 C16 1_555 1_555
C17 C16 1_555 1_555
H17 C17 1_555 1_555
C18 H18 1_555 1_555
C19 C18 1_555 1_555
C20 C19 1_555 1_555
C21 C20 1_555 1_555
H19 C21 1_555 1_555
C22 C21 1_555 1_555
H20 C22 1_555 1_555
C23 C18 1_555 1_555
C24 C23 1_555 1_555
C25 C24 1_555 1_555
C26 C25 1_555 1_555
H21 C26 1_555 1_555
C27 C26 1_555 1_555
H22 C27 1_555 1_555
C28 C27 1_555 1_555
C29 C28 1_555 1_555
C30 C25 1_555 1_555
H23 C30 1_555 1_555
C31 O4 1_555 1_555
C32 O6 1_555 1_555
C33 C28 1_555 1_555
C34 O10 1_555 1_555
Ni1_2 N1B 1_555 1_555
Ni2_2 N3 1_555 1_555
Ni2C O4B 1_555 1_555
Ni3_2 N5 1_555 1_555
Ni3C O5B 1_555 1_555
O1B Ni1 1_555 1_555
H1B O1B 1_555 1_555
H2B O1B 1_555 1_555
O2A Ni2 1_555 1_555
H3A O2A 1_555 1_555
H4A O2A 1_555 1_555
O4B C31B 1_555 1_555
O4A Ni2 1_555 1_555
O5B C31B 1_555 1_555
O5A Ni3 1_555 1_555
O6B Ni1 1_555 1_555
O7B Ni3C 1_555 1_555
O7A Ni3 1_555 1_555
O8B C33B 1_555 1_555
O9B C33B 1_555 1_555
O10B H5B 1_555 1_555
O11B C34B 1_555 1_555
O12B C24B 1_555 1_555
N1B C1B 1_555 1_555
N1B_2 Ni1 1_555 1_555
N3_2 Ni2 1_555 1_555
N5_2 Ni3 1_555 1_555
C1B H6B 1_555 1_555
C2B C1B 1_555 1_555
H7B C2B 1_555 1_555
C3B C3 1_555 1_555
C4B C3B 1_555 1_555
H8B C4B 1_555 1_555
C5B N1B 1_555 1_555
H9B C5B 1_555 1_555
C6A N2 1_555 1_555
H10A C6A 1_555 1_555
C7A C8 1_555 1_555
H11A C7A 1_555 1_555
C10A C9 1_555 1_555
H12A C10A 1_555 1_555
C11A N3 1_555 1_555
H13A C11A 1_555 1_555
C12A N4 1_555 1_555
H14A C12A 1_555 1_555
C13A C14 1_555 1_555
H15A C13A 1_555 1_555
C16A C15 1_555 1_555
H16A C16A 1_555 1_555
C17A N5 1_555 1_555
H17A C17A 1_555 1_555
C18B H18B 1_555 1_555
C19B C18B 1_555 1_555
C20B C19B 1_555 1_555
C21B C20B 1_555 1_555
H19B C21B 1_555 1_555
C22B C21B 1_555 1_555
H20B C22B 1_555 1_555
C23B C18B 1_555 1_555
C24B C23B 1_555 1_555
C25B C24B 1_555 1_555
C26B C25B 1_555 1_555
H21B C26B 1_555 1_555
C27B C26B 1_555 1_555
H22B C27B 1_555 1_555
C28B C27B 1_555 1_555
C29B C28B 1_555 1_555
C30B C25B 1_555 1_555
H23B C30B 1_555 1_555
C31B C19B 1_555 1_555
C32B O6B 1_555 1_555
C33B C28B 1_555 1_555
C34B O10B 1_555 1_555
O7 C32 1_555 1_555
C4 C5 1_555 1_555
C19 C31 1_555 1_555
C20 C32 1_555 1_555
C22 C23 1_555 1_555
C29 C30 1_555 1_555
C29 C34 1_555 1_555
O7B C32B 1_555 1_555
C2B C3B 1_555 1_555
C4B C5B 1_555 1_555
C6A C7A 1_555 1_555
C10A C11A 1_555 1_555
C12A C13A 1_555 1_555
C16A C17A 1_555 1_555
C20B C32B 1_555 1_555
C22B C23B 1_555 1_555
C29B C30B 1_555 1_555
C29B C34B 1_555 1_555

#END
