
#######################################################################
#
#                 Cambridge Crystallographic Data Centre
#                                CCDC 
#
#######################################################################
#
# If this CIF has been generated from an entry in the Cambridge 
# Structural Database, then it will include bibliographic, chemical, 
# crystal, experimental, refinement or atomic coordinate data resulting 
# from the CCDC's data processing and validation procedures.
#
#######################################################################

data_LELXOQ
_symmetry_cell_setting           monoclinic
_symmetry_space_group_name_H-M   'P 2/c'
_symmetry_Int_Tables_number      13
_space_group_name_Hall           '-P 2yc'
loop_
_symmetry_equiv_pos_site_id
_symmetry_equiv_pos_as_xyz
1 x,y,z
2 -x,y,1/2-z
3 -x,-y,-z
4 x,-y,1/2+z
_cell_length_a                   11.370(2)
_cell_length_b                   11.490(2)
_cell_length_c                   22.933(5)
_cell_angle_alpha                90
_cell_angle_beta                 93.91(3)
_cell_angle_gamma                90
_cell_volume                     2989.02
loop_
_atom_site_label
_atom_site_type_symbol
_atom_site_fract_x
_atom_site_fract_y
_atom_site_fract_z
Fe1 Fe 0.0000 1.0000 0.0000
Fe2 Fe 0.5000 0.79672(6) 0.2500
Fe3 Fe 0.0000 0.83855(6) 0.2500
O1 O -0.0118(3) 1.1536(2) 0.05064(15)
H1 H 0.039(3) 1.207(3) 0.055(2)
H2 H -0.077(2) 1.177(4) 0.061(2)
O2 O 0.3955(4) 0.8002(3) 0.32422(15)
H3 H 0.342(5) 0.849(5) 0.330(3)
H4 H 0.416(5) 0.766(5) 0.3558(14)
O4 O 0.3485(3) 0.7804(2) 0.19343(12)
O5 O 0.1737(3) 0.8447(2) 0.21857(12)
O6 O 0.0037(3) 0.9014(2) 0.07813(12)
O7 O -0.0598(3) 0.8427(2) 0.16202(11)
O8 O 0.7765(4) 0.2109(3) 0.0980(2)
O9 O 0.8171(4) 0.3773(3) 0.0598(2)
O10 O 0.7358(4) 0.5684(3) 0.0513(2)
H5 H 0.769(6) 0.503(3) 0.052(3)
O11 O 0.5806(4) 0.6597(3) 0.07675(16)
O12 O 0.1791(3) 0.3050(2) 0.08214(16)
N1 N 0.1896(3) 1.0073(3) 0.00776(15)
N2 N 0.5000 0.6032(3) 0.2500
N3 N 0.5000 -0.0138(4) 0.2500
N4 N 0.0000 1.0298(4) 0.2500
N5 N 0.0000 1.6466(3) 0.2500
C1 C 0.2556(4) 0.9186(4) 0.0299(2)
H6 H 0.2175 0.8576 0.0474
C2 C 0.3740(4) 0.9129(4) 0.0281(2)
H7 H 0.4146 0.8488 0.0440
C3 C 0.4358(4) 1.0023(3) 0.00271(17)
C4 C 0.3689(4) 1.0944(3) -0.01875(19)
H8 H 0.4050 1.1570 -0.0360
C5 C 0.2491(4) 1.0942(3) -0.01479(19)
H9 H 0.2068 1.1589 -0.0288
C6 C 0.4083(4) 0.5418(3) 0.26739(18)
H10 H 0.3436 0.5822 0.2798
C7 C 0.4051(4) 0.4221(3) 0.26782(19)
H11 H 0.3392 0.3836 0.2801
C8 C 0.5000 0.3588(4) 0.2500
C9 C 0.5000 0.2290(4) 0.2500
C10 C 0.3961(4) 0.1661(3) 0.2406(2)
H12 H 0.3245 0.2047 0.2342
C11 C 0.4000(4) 0.0459(3) 0.24062(19)
H13 H 0.3299 0.0049 0.2338
C12 C 0.0269(5) 1.0913(3) 0.20347(19)
H14 H 0.0467 1.0509 0.1704
C13 C 0.0272(5) 1.2115(3) 0.2014(2)
H15 H 0.0456 1.2498 0.1675
C14 C 0.0000 1.2743(4) 0.2500
C15 C 0.0000 1.4035(4) 0.2500
C16 C 0.0674(4) 1.4659(3) 0.29163(18)
H16 H 0.1123 1.4274 0.3211
C17 C 0.0672(4) 1.5857(3) 0.28905(17)
H17 H 0.1164 1.6263 0.3159
C18 C 0.2379(4) 0.5922(3) 0.13542(16)
H18 H 0.3122 0.5792 0.1538
C19 C 0.1795(3) 0.6974(3) 0.14500(16)
C20 C 0.0723(3) 0.7194(3) 0.11437(15)
C21 C 0.0227(4) 0.6353(3) 0.07650(16)
H19 H -0.0480 0.6509 0.0551
C22 C 0.0770(4) 0.5290(3) 0.07034(16)
H20 H 0.0402 0.4717 0.0470
C23 C 0.1868(4) 0.5075(3) 0.09902(17)
C24 C 0.2424(4) 0.3906(3) 0.08996(18)
C25 C 0.3716(4) 0.3771(3) 0.09059(16)
C26 C 0.4210(4) 0.2665(3) 0.09864(18)
H21 H 0.3731 0.2031 0.1056
C27 C 0.5403(4) 0.2514(3) 0.09629(18)
H22 H 0.5716 0.1774 0.1028
C28 C 0.6170(4) 0.3421(3) 0.08449(17)
C29 C 0.5675(4) 0.4546(3) 0.07704(16)
C30 C 0.4478(4) 0.4686(3) 0.07965(16)
H23 H 0.4161 0.5426 0.0738
C31 C 0.2382(4) 0.7815(3) 0.18934(16)
C32 C 0.0024(3) 0.8302(3) 0.11929(15)
C33 C 0.7450(4) 0.3082(4) 0.0808(2)
C34 C 0.6318(4) 0.5692(4) 0.06866(19)
Fe1_2 Fe 1.0000 1.0000 0.0000
Fe2_2 Fe 0.5000 -0.20328(6) 0.2500
Fe2C Fe -0.5000 1.20328(6) -0.2500
Fe3_2 Fe 0.0000 1.83855(6) 0.2500
Fe3C Fe 0.0000 1.16145(6) -0.2500
O1B O 0.0118(3) 0.8464(2) -0.05064(15)
H1B H -0.039(3) 0.793(3) -0.055(2)
H2B H 0.077(2) 0.823(4) -0.061(2)
O2A O 0.6045(4) 0.8002(3) 0.17578(15)
H3A H 0.658(5) 0.849(5) 0.170(3)
H4A H 0.584(5) 0.766(5) 0.1442(14)
O4B O -0.3485(3) 1.2196(2) -0.19343(12)
O4A O 0.6515(3) 0.7804(2) 0.30657(12)
O5B O -0.1737(3) 1.1553(2) -0.21857(12)
O5A O -0.1737(3) 0.8447(2) 0.28143(12)
O6B O -0.0037(3) 1.0986(2) -0.07813(12)
O7B O 0.0598(3) 1.1573(2) -0.16202(11)
O7A O 0.0598(3) 0.8427(2) 0.33798(11)
O8B O -0.7765(4) 1.7891(3) -0.0980(2)
O9B O -0.8171(4) 1.6227(3) -0.0598(2)
O10B O -0.7358(4) 1.4316(3) -0.0513(2)
H5B H -0.769(6) 1.497(3) -0.052(3)
O11B O -0.5806(4) 1.3403(3) -0.07675(16)
O12B O -0.1791(3) 1.6950(2) -0.08214(16)
N1B N 0.8104(3) 0.9927(3) -0.00776(15)
N1B_2 N -0.1896(3) 0.9927(3) -0.00776(15)
N3_2 N 0.5000 0.9862(4) 0.2500
N5_2 N 0.0000 0.6466(3) 0.2500
C1B C 0.7444(4) 1.0814(4) -0.0299(2)
H6B H 0.7825 1.1424 -0.0474
C2B C 0.6260(4) 1.0871(4) -0.0281(2)
H7B H 0.5854 1.1512 -0.0440
C3B C 0.5642(4) 0.9977(3) -0.00271(17)
C4B C 0.6311(4) 0.9056(3) 0.01875(19)
H8B H 0.5950 0.8430 0.0360
C5B C 0.7509(4) 0.9058(3) 0.01479(19)
H9B H 0.7932 0.8411 0.0288
C6A C 0.5917(4) 0.5418(3) 0.23261(18)
H10A H 0.6564 0.5822 0.2202
C7A C 0.5949(4) 0.4221(3) 0.23218(19)
H11A H 0.6608 0.3836 0.2199
C10A C 0.6039(4) 0.1661(3) 0.2594(2)
H12A H 0.6755 0.2047 0.2658
C11A C 0.6000(4) 0.0459(3) 0.25938(19)
H13A H 0.6701 0.0049 0.2662
C12A C -0.0269(5) 1.0913(3) 0.29653(19)
H14A H -0.0467 1.0509 0.3296
C13A C -0.0272(5) 1.2115(3) 0.2986(2)
H15A H -0.0456 1.2498 0.3325
C16A C -0.0674(4) 1.4659(3) 0.20837(18)
H16A H -0.1123 1.4274 0.1789
C17A C -0.0672(4) 1.5857(3) 0.21095(17)
H17A H -0.1164 1.6263 0.1841
C18B C -0.2379(4) 1.4078(3) -0.13542(16)
H18B H -0.3122 1.4208 -0.1538
C19B C -0.1795(3) 1.3026(3) -0.14500(16)
C20B C -0.0723(3) 1.2806(3) -0.11437(15)
C21B C -0.0227(4) 1.3647(3) -0.07650(16)
H19B H 0.0480 1.3491 -0.0551
C22B C -0.0770(4) 1.4710(3) -0.07034(16)
H20B H -0.0402 1.5283 -0.0470
C23B C -0.1868(4) 1.4925(3) -0.09902(17)
C24B C -0.2424(4) 1.6094(3) -0.08996(18)
C25B C -0.3716(4) 1.6229(3) -0.09059(16)
C26B C -0.4210(4) 1.7335(3) -0.09864(18)
H21B H -0.3731 1.7969 -0.1056
C27B C -0.5403(4) 1.7486(3) -0.09629(18)
H22B H -0.5716 1.8226 -0.1028
C28B C -0.6170(4) 1.6579(3) -0.08449(17)
C29B C -0.5675(4) 1.5454(3) -0.07704(16)
C30B C -0.4478(4) 1.5314(3) -0.07965(16)
H23B H -0.4161 1.4574 -0.0738
C31B C -0.2382(4) 1.2185(3) -0.18934(16)
C32B C -0.0024(3) 1.1698(3) -0.11929(15)
C33B C -0.7450(4) 1.6918(4) -0.0808(2)
C34B C -0.6318(4) 1.4308(4) -0.06866(19)
O3 O 0.2577(3) 0.9892(3) 0.34742(17)
loop_
_geom_bond_atom_site_label_1
_geom_bond_atom_site_label_2
_geom_bond_site_symmetry_1
_geom_bond_site_symmetry_2
Fe1 O1 1_555 1_555
Fe2 O2 1_555 1_555
Fe3 O5 1_555 1_555
O1 H1 1_555 1_555
H2 O1 1_555 1_555
O2 H3 1_555 1_555
H4 O2 1_555 1_555
O4 Fe2 1_555 1_555
O5 C31 1_555 1_555
O6 Fe1 1_555 1_555
O7 Fe3 1_555 1_555
O8 C33 1_555 1_555
O9 C33 1_555 1_555
O10 H5 1_555 1_555
O11 C34 1_555 1_555
O12 C24 1_555 1_555
N1 Fe1 1_555 1_555
N2 Fe2 1_555 1_555
N3 C11 1_555 1_555
N4 Fe3 1_555 1_555
N5 C17 1_555 1_555
C1 N1 1_555 1_555
H6 C1 1_555 1_555
C2 C1 1_555 1_555
H7 C2 1_555 1_555
C3 C2 1_555 1_555
C4 C3 1_555 1_555
H8 C4 1_555 1_555
C5 N1 1_555 1_555
H9 C5 1_555 1_555
C6 N2 1_555 1_555
H10 C6 1_555 1_555
C7 C6 1_555 1_555
H11 C7 1_555 1_555
C8 C7 1_555 1_555
C9 C8 1_555 1_555
C10 C9 1_555 1_555
H12 C10 1_555 1_555
C11 C10 1_555 1_555
H13 C11 1_555 1_555
C12 N4 1_555 1_555
H14 C12 1_555 1_555
C13 C12 1_555 1_555
H15 C13 1_555 1_555
C14 C13 1_555 1_555
C15 C14 1_555 1_555
C16 C15 1_555 1_555
H16 C16 1_555 1_555
C17 C16 1_555 1_555
H17 C17 1_555 1_555
C18 H18 1_555 1_555
C19 C18 1_555 1_555
C20 C19 1_555 1_555
C21 C20 1_555 1_555
H19 C21 1_555 1_555
C22 C21 1_555 1_555
H20 C22 1_555 1_555
C23 C18 1_555 1_555
C24 C23 1_555 1_555
C25 C24 1_555 1_555
C26 C25 1_555 1_555
H21 C26 1_555 1_555
C27 C26 1_555 1_555
H22 C27 1_555 1_555
C28 C27 1_555 1_555
C29 C28 1_555 1_555
C30 C25 1_555 1_555
H23 C30 1_555 1_555
C31 O4 1_555 1_555
C32 O6 1_555 1_555
C33 C28 1_555 1_555
C34 O10 1_555 1_555
Fe1_2 N1B 1_555 1_555
Fe2_2 N3 1_555 1_555
Fe2C O4B 1_555 1_555
Fe3_2 N5 1_555 1_555
Fe3C O5B 1_555 1_555
O1B Fe1 1_555 1_555
H1B O1B 1_555 1_555
H2B O1B 1_555 1_555
O2A Fe2 1_555 1_555
H3A O2A 1_555 1_555
H4A O2A 1_555 1_555
O4B C31B 1_555 1_555
O4A Fe2 1_555 1_555
O5B C31B 1_555 1_555
O5A Fe3 1_555 1_555
O6B Fe1 1_555 1_555
O7B Fe3C 1_555 1_555
O7A Fe3 1_555 1_555
O8B C33B 1_555 1_555
O9B C33B 1_555 1_555
O10B H5B 1_555 1_555
O11B C34B 1_555 1_555
O12B C24B 1_555 1_555
N1B C1B 1_555 1_555
N1B_2 Fe1 1_555 1_555
N3_2 Fe2 1_555 1_555
N5_2 Fe3 1_555 1_555
C1B H6B 1_555 1_555
C2B C1B 1_555 1_555
H7B C2B 1_555 1_555
C3B C3 1_555 1_555
C4B C3B 1_555 1_555
H8B C4B 1_555 1_555
C5B N1B 1_555 1_555
H9B C5B 1_555 1_555
C6A N2 1_555 1_555
H10A C6A 1_555 1_555
C7A C8 1_555 1_555
H11A C7A 1_555 1_555
C10A C9 1_555 1_555
H12A C10A 1_555 1_555
C11A N3 1_555 1_555
H13A C11A 1_555 1_555
C12A N4 1_555 1_555
H14A C12A 1_555 1_555
C13A C14 1_555 1_555
H15A C13A 1_555 1_555
C16A C15 1_555 1_555
H16A C16A 1_555 1_555
C17A N5 1_555 1_555
H17A C17A 1_555 1_555
C18B H18B 1_555 1_555
C19B C18B 1_555 1_555
C20B C19B 1_555 1_555
C21B C20B 1_555 1_555
H19B C21B 1_555 1_555
C22B C21B 1_555 1_555
H20B C22B 1_555 1_555
C23B C18B 1_555 1_555
C24B C23B 1_555 1_555
C25B C24B 1_555 1_555
C26B C25B 1_555 1_555
H21B C26B 1_555 1_555
C27B C26B 1_555 1_555
H22B C27B 1_555 1_555
C28B C27B 1_555 1_555
C29B C28B 1_555 1_555
C30B C25B 1_555 1_555
H23B C30B 1_555 1_555
C31B C19B 1_555 1_555
C32B O6B 1_555 1_555
C33B C28B 1_555 1_555
C34B O10B 1_555 1_555
O7 C32 1_555 1_555
C4 C5 1_555 1_555
C19 C31 1_555 1_555
C20 C32 1_555 1_555
C22 C23 1_555 1_555
C29 C30 1_555 1_555
C29 C34 1_555 1_555
O7B C32B 1_555 1_555
C2B C3B 1_555 1_555
C4B C5B 1_555 1_555
C6A C7A 1_555 1_555
C10A C11A 1_555 1_555
C12A C13A 1_555 1_555
C16A C17A 1_555 1_555
C20B C32B 1_555 1_555
C22B C23B 1_555 1_555
C29B C30B 1_555 1_555
C29B C34B 1_555 1_555

#END
