
#######################################################################
#
#                 Cambridge Crystallographic Data Centre
#                                CCDC 
#
#######################################################################
#
# If this CIF has been generated from an entry in the Cambridge 
# Structural Database, then it will include bibliographic, chemical, 
# crystal, experimental, refinement or atomic coordinate data resulting 
# from the CCDC's data processing and validation procedures.
#
#######################################################################

data_LELXEG
_symmetry_cell_setting           monoclinic
_symmetry_space_group_name_H-M   'P 21/n'
_symmetry_Int_Tables_number      14
_space_group_name_Hall           '-P 2yn'
loop_
_symmetry_equiv_pos_site_id
_symmetry_equiv_pos_as_xyz
1 x,y,z
2 1/2-x,1/2+y,1/2-z
3 -x,-y,-z
4 1/2+x,1/2-y,1/2+z
_cell_length_a                   10.999(2)
_cell_length_b                   14.993(3)
_cell_length_c                   16.700(3)
_cell_angle_alpha                90
_cell_angle_beta                 95.57(3)
_cell_angle_gamma                90
_cell_volume                     2740.96
loop_
_atom_site_label
_atom_site_type_symbol
_atom_site_fract_x
_atom_site_fract_y
_atom_site_fract_z
Co1 Co 0.22042(2) 0.383517(14) 0.465536(13)
Co2 Co 0.38568(2) 0.636540(16) 0.364730(14)
O1 O 0.24019(15) 0.49072(9) 0.53384(8)
O2 O 0.24060(16) 0.66866(12) 0.27170(10)
H1 H 0.242(3) 0.6371(14) 0.2292(11)
H2 H 0.259(4) 0.7215(9) 0.2595(19)
O3 O 0.27167(17) 0.56934(12) 0.42731(9)
O4 O 0.51737(16) 0.61703(13) 0.46121(10)
O5 O 0.62780(14) 0.66143(11) 0.56965(9)
O6 O 0.6513(2) 1.20477(15) 0.60542(13)
O7 O 0.51240(18) 1.26150(11) 0.67528(14)
O8 O 0.67435(16) 1.17763(11) 0.79772(10)
O9 O 0.58568(14) 1.09443(11) 0.88373(9)
O10 O 0.29785(18) 0.85952(10) 0.77758(10)
N1 N 0.15772(16) 0.29379(11) 0.54329(10)
N2 N -0.04869(17) -0.02988(11) 0.80480(10)
C1 C 0.2265(2) 0.73664(14) 0.65384(13)
H3 H 0.1638 0.7536 0.6842
C2 C 0.2112(2) 0.66488(13) 0.60258(13)
H4 H 0.1376 0.6339 0.5982
C3 C 0.30399(19) 0.63787(13) 0.55710(12)
C4 C 0.41682(18) 0.68129(12) 0.56715(11)
C5 C 0.43047(19) 0.75437(13) 0.61838(12)
H5 H 0.5049 0.7842 0.6247
C6 C 0.33542(19) 0.78355(13) 0.66013(12)
C7 C 0.3480(2) 0.86063(13) 0.71653(13)
C8 C 0.4178(2) 0.94121(13) 0.69690(13)
C9 C 0.4192(2) 0.97107(14) 0.61926(13)
H6 H 0.3868 0.9358 0.5766
C10 C 0.4686(2) 1.05370(14) 0.60436(13)
H7 H 0.4660 1.0747 0.5518
C11 C 0.5216(2) 1.10520(14) 0.66673(13)
C12 C 0.52712(19) 1.07326(13) 0.74578(13)
C13 C 0.4729(2) 0.99202(13) 0.75950(12)
H8 H 0.4735 0.9711 0.8120
C14 C 0.27295(18) 0.56042(13) 0.50153(12)
C15 C 0.52686(19) 0.65055(13) 0.52848(12)
C16 C 0.5685(2) 1.19646(15) 0.64742(15)
C17 C 0.6006(2) 1.12066(13) 0.81329(13)
C18 C 0.0449(2) 0.29577(17) 0.56412(14)
H9 H -0.0076 0.3398 0.5420
C19 C 0.0014(2) 0.23639(16) 0.61649(14)
H10 H -0.0795 0.2398 0.6280
C20 C 0.0768(2) 0.17148(13) 0.65230(12)
C21 C 0.1952(2) 0.17116(15) 0.63139(15)
H11 H 0.2504 0.1289 0.6538
C22 C 0.2320(2) 0.23233(15) 0.57811(15)
H12 H 0.3125 0.2308 0.5657
C23 C -0.1221(2) 0.03230(15) 0.77179(16)
H13 H -0.2039 0.0305 0.7814
C24 C -0.0852(2) 0.09898(16) 0.72444(17)
H14 H -0.1413 0.1412 0.7031
C25 C 0.0346(2) 0.10416(13) 0.70806(12)
C26 C 0.1120(2) 0.04137(17) 0.74598(15)
H15 H 0.1949 0.0431 0.7393
C27 C 0.0681(2) -0.02345(17) 0.79334(15)
H16 H 0.1226 -0.0645 0.8184
Co1B Co 0.77958(2) 0.616483(14) 0.534464(13)
Co1C Co 0.72042(2) 1.116483(14) 0.965536(13)
Co1A Co 0.27958(2) -0.116483(14) 0.034464(13)
Co1C_2 Co 0.72042(2) 0.116483(14) -0.034464(13)
Co2B Co 0.61432(2) 0.363460(16) 0.635270(14)
Co2B_2 Co 0.61432(2) 1.363460(16) 0.635270(14)
Co2C Co -0.11432(2) -0.136540(16) 0.864730(14)
Co2_2 Co 0.38568(2) -0.363460(16) 0.364730(14)
O1B O 0.75981(15) 0.50928(9) 0.46616(8)
O2B O 0.75940(16) 0.33134(12) 0.72830(10)
H1B H 0.758(3) 0.3629(14) 0.7708(11)
H2B H 0.741(4) 0.2785(9) 0.7405(19)
O3B O 0.72833(17) 0.43066(12) 0.57269(9)
O4B O 0.48263(16) 0.38297(13) 0.53879(10)
O5B O 0.37220(14) 0.33857(11) 0.43035(9)
O6B O 0.3487(2) -0.20477(15) 0.39458(13)
O7B O 0.48760(18) -0.26150(11) 0.32472(14)
O7B_2 O 0.48760(18) 0.73850(11) 0.32472(14)
O7_2 O 0.51240(18) 0.26150(11) 0.67528(14)
O8B O 0.32565(16) -0.17763(11) 0.20228(10)
O9B O 0.41432(14) -0.09443(11) 0.11627(9)
O9C O 0.08568(14) 0.40557(11) 0.38373(9)
O9A O 0.91432(14) 0.59443(11) 0.61627(9)
O10B O 0.70215(18) 0.14048(10) 0.22242(10)
N1C N 0.65772(16) 0.20621(11) 0.04329(10)
N1B N 0.84228(16) 0.70621(11) 0.45671(10)
N2C N 0.45131(17) 0.52988(11) 0.30480(10)
N2A N 0.54869(17) 0.47012(11) 0.69520(10)
C1B C 0.7735(2) 0.26336(14) 0.34616(13)
H3B H 0.8362 0.2464 0.3158
C2B C 0.7888(2) 0.33512(13) 0.39742(13)
H4B H 0.8624 0.3661 0.4018
C3B C 0.69601(19) 0.36213(13) 0.44290(12)
C4B C 0.58318(18) 0.31871(12) 0.43285(11)
C5B C 0.56953(19) 0.24563(13) 0.38162(12)
H5B H 0.4951 0.2158 0.3753
C6B C 0.66458(19) 0.21645(13) 0.33987(12)
C7B C 0.6520(2) 0.13937(13) 0.28347(13)
C8B C 0.5822(2) 0.05879(13) 0.30310(13)
C9B C 0.5808(2) 0.02893(14) 0.38074(13)
H6B H 0.6132 0.0642 0.4234
C10B C 0.5314(2) -0.05370(14) 0.39564(13)
H7B H 0.5340 -0.0747 0.4482
C11B C 0.4784(2) -0.10520(14) 0.33327(13)
C12B C 0.47288(19) -0.07326(13) 0.25422(13)
C13B C 0.5271(2) 0.00798(13) 0.24050(12)
H8B H 0.5265 0.0289 0.1880
C14B C 0.72705(18) 0.43958(13) 0.49847(12)
C15B C 0.47314(19) 0.34945(13) 0.47152(12)
C16B C 0.4315(2) -0.19646(15) 0.35258(15)
C17B C 0.3994(2) -0.12066(13) 0.18671(13)
C18C C 0.5449(2) 0.20423(17) 0.06412(14)
H9C H 0.4924 0.1602 0.0420
C19C C 0.5014(2) 0.26361(16) 0.11649(14)
H10C H 0.4205 0.2602 0.1280
C20C C 0.5768(2) 0.32852(13) 0.15230(12)
C21C C 0.6952(2) 0.32884(15) 0.13139(15)
H11C H 0.7504 0.3711 0.1538
C22C C 0.7320(2) 0.26767(15) 0.07811(15)
H12C H 0.8125 0.2692 0.0657
C23C C 0.3779(2) 0.46770(15) 0.27179(16)
H13C H 0.2961 0.4695 0.2814
C24C C 0.4148(2) 0.40102(16) 0.22444(17)
H14C H 0.3587 0.3588 0.2031
C25C C 0.5346(2) 0.39584(13) 0.20806(12)
C26C C 0.6120(2) 0.45863(17) 0.24598(15)
H15C H 0.6949 0.4569 0.2393
C27C C 0.5681(2) 0.52345(17) 0.29334(15)
H16C H 0.6226 0.5645 0.3184
N3 N 0.7103(3) 0.4030(2) 0.87893(15)
C28 C 0.7335(3) 0.4770(3) 0.9205(2)
H17 H 0.8090 0.5039 0.9170
C29 C 0.6559(3) 0.5172(2) 0.96792(19)
H18 H 0.6786 0.5696 0.9951
C30 C 0.5445(3) 0.47972(17) 0.97520(13)
C31 C 0.5193(3) 0.4024(2) 0.9318(2)
H19 H 0.4445 0.3741 0.9340
C32 C 0.6028(4) 0.3673(2) 0.8861(2)
H20 H 0.5827 0.3149 0.8581
N3B N 0.2897(3) 0.5970(2) 1.12107(15)
C28B C 0.2665(3) 0.5230(3) 1.0795(2)
H17B H 0.1910 0.4961 1.0830
C29B C 0.3441(3) 0.4828(2) 1.03208(19)
H18B H 0.3214 0.4304 1.0049
C30B C 0.4555(3) 0.52028(17) 1.02480(13)
C31B C 0.4807(3) 0.5976(2) 1.0682(2)
H19B H 0.5555 0.6259 1.0660
C32B C 0.3972(4) 0.6327(2) 1.1139(2)
H20B H 0.4173 0.6851 1.1419
loop_
_geom_bond_atom_site_label_1
_geom_bond_atom_site_label_2
_geom_bond_site_symmetry_1
_geom_bond_site_symmetry_2
Co1 O1 1_555 1_555
Co2 O2 1_555 1_555
O1 C14 1_555 1_555
O2 H1 1_555 1_555
H2 O2 1_555 1_555
O3 Co2 1_555 1_555
O4 Co2 1_555 1_555
O5 C15 1_555 1_555
O6 C16 1_555 1_555
O7 C16 1_555 1_555
O8 C17 1_555 1_555
O9 C17 1_555 1_555
O10 C7 1_555 1_555
N1 Co1 1_555 1_555
N2 C23 1_555 1_555
N3 C28 1_555 1_555
C1 H3 1_555 1_555
C2 C1 1_555 1_555
H4 C2 1_555 1_555
C3 C2 1_555 1_555
C4 C3 1_555 1_555
C5 C4 1_555 1_555
H5 C5 1_555 1_555
C6 C1 1_555 1_555
C7 C6 1_555 1_555
C8 C7 1_555 1_555
C9 C8 1_555 1_555
H6 C9 1_555 1_555
C10 C9 1_555 1_555
H7 C10 1_555 1_555
C11 C10 1_555 1_555
C12 C11 1_555 1_555
C13 C8 1_555 1_555
H8 C13 1_555 1_555
C14 O3 1_555 1_555
C15 O4 1_555 1_555
C16 C11 1_555 1_555
C17 C12 1_555 1_555
C18 N1 1_555 1_555
H9 C18 1_555 1_555
C19 C18 1_555 1_555
H10 C19 1_555 1_555
C20 C19 1_555 1_555
C21 C20 1_555 1_555
H11 C21 1_555 1_555
C22 N1 1_555 1_555
H12 C22 1_555 1_555
C23 H13 1_555 1_555
C24 C23 1_555 1_555
H14 C24 1_555 1_555
C25 C20 1_555 1_555
C26 C25 1_555 1_555
H15 C26 1_555 1_555
C27 N2 1_555 1_555
H16 C27 1_555 1_555
C28 H17 1_555 1_555
C29 C28 1_555 1_555
H18 C29 1_555 1_555
C30 C29 1_555 1_555
C31 C30 1_555 1_555
H19 C31 1_555 1_555
C32 N3 1_555 1_555
H20 C32 1_555 1_555
Co1B O5 1_555 1_555
Co1C O9 1_555 1_555
Co1A O9B 1_555 1_555
Co1C_2 N1C 1_555 1_555
Co2B O2B 1_555 1_555
Co2B_2 O7 1_555 1_555
Co2C N2 1_555 1_555
Co2_2 O7B 1_555 1_555
O1B Co1B 1_555 1_555
O2B H1B 1_555 1_555
H2B O2B 1_555 1_555
O3B Co2B 1_555 1_555
O4B Co2B 1_555 1_555
O5B Co1 1_555 1_555
O6B C16B 1_555 1_555
O7B C16B 1_555 1_555
O7B_2 Co2 1_555 1_555
O7_2 Co2B 1_555 1_555
O8B C17B 1_555 1_555
O9B C17B 1_555 1_555
O9C Co1 1_555 1_555
O9A Co1B 1_555 1_555
O10B C7B 1_555 1_555
N1C C18C 1_555 1_555
N1B Co1B 1_555 1_555
N2C Co2 1_555 1_555
N2A Co2B 1_555 1_555
N3B C28B 1_555 1_555
C1B H3B 1_555 1_555
C2B C1B 1_555 1_555
H4B C2B 1_555 1_555
C3B C2B 1_555 1_555
C4B C3B 1_555 1_555
C5B C4B 1_555 1_555
H5B C5B 1_555 1_555
C6B C1B 1_555 1_555
C7B C6B 1_555 1_555
C8B C7B 1_555 1_555
C9B C8B 1_555 1_555
H6B C9B 1_555 1_555
C10B C9B 1_555 1_555
H7B C10B 1_555 1_555
C11B C10B 1_555 1_555
C12B C11B 1_555 1_555
C13B C8B 1_555 1_555
H8B C13B 1_555 1_555
C14B O1B 1_555 1_555
C15B O4B 1_555 1_555
C16B C11B 1_555 1_555
C17B C12B 1_555 1_555
C18C H9C 1_555 1_555
C19C C18C 1_555 1_555
H10C C19C 1_555 1_555
C20C C19C 1_555 1_555
C21C C20C 1_555 1_555
H11C C21C 1_555 1_555
C22C N1C 1_555 1_555
H12C C22C 1_555 1_555
C23C N2C 1_555 1_555
H13C C23C 1_555 1_555
C24C C23C 1_555 1_555
H14C C24C 1_555 1_555
C25C C20C 1_555 1_555
C26C C25C 1_555 1_555
H15C C26C 1_555 1_555
C27C N2C 1_555 1_555
H16C C27C 1_555 1_555
C28B H17B 1_555 1_555
C29B C28B 1_555 1_555
H18B C29B 1_555 1_555
C30B C30 1_555 1_555
C31B C30B 1_555 1_555
H19B C31B 1_555 1_555
C32B N3B 1_555 1_555
H20B C32B 1_555 1_555
C3 C14 1_555 1_555
C4 C15 1_555 1_555
C5 C6 1_555 1_555
C12 C13 1_555 1_555
C21 C22 1_555 1_555
C24 C25 1_555 1_555
C26 C27 1_555 1_555
C31 C32 1_555 1_555
O3B C14B 1_555 1_555
O5B C15B 1_555 1_555
C3B C14B 1_555 1_555
C4B C15B 1_555 1_555
C5B C6B 1_555 1_555
C12B C13B 1_555 1_555
C21C C22C 1_555 1_555
C24C C25C 1_555 1_555
C26C C27C 1_555 1_555
C29B C30B 1_555 1_555
C31B C32B 1_555 1_555

#END
