
#######################################################################
#
#                 Cambridge Crystallographic Data Centre
#                                CCDC 
#
#######################################################################
#
# If this CIF has been generated from an entry in the Cambridge 
# Structural Database, then it will include bibliographic, chemical, 
# crystal, experimental, refinement or atomic coordinate data resulting 
# from the CCDC's data processing and validation procedures.
#
#######################################################################

data_LELXAC
_symmetry_cell_setting           monoclinic
_symmetry_space_group_name_H-M   'P 21/n'
_symmetry_Int_Tables_number      14
_space_group_name_Hall           '-P 2yn'
loop_
_symmetry_equiv_pos_site_id
_symmetry_equiv_pos_as_xyz
1 x,y,z
2 1/2-x,1/2+y,1/2-z
3 -x,-y,-z
4 1/2+x,1/2-y,1/2+z
_cell_length_a                   7.1108(14)
_cell_length_b                   13.699(3)
_cell_length_c                   27.255(6)
_cell_angle_alpha                90
_cell_angle_beta                 94.34(3)
_cell_angle_gamma                90
_cell_volume                     2647.32
loop_
_atom_site_label
_atom_site_type_symbol
_atom_site_fract_x
_atom_site_fract_y
_atom_site_fract_z
Cd1 Cd 1.03809(3) 0.448264(17) 0.258697(8)
Cd2 Cd 0.76069(3) 0.212304(16) 0.296858(8)
O1 O 0.7208(4) 0.21101(17) 0.21467(8)
O2 O 0.7012(3) 0.36213(17) 0.24053(8)
O3 O 0.8509(3) 0.53667(15) 0.20237(8)
O4 O 0.5543(3) 0.57287(17) 0.18104(9)
O5 O 0.5091(3) 0.18537(17) -0.19184(8)
O6 O 0.7514(3) 0.09849(17) -0.16297(9)
O7 O 0.9314(3) 0.28366(17) -0.18937(8)
O8 O 1.1449(3) 0.29822(19) -0.12682(8)
O9 O 0.7637(4) 0.51780(19) -0.00105(8)
O10 O 0.9063(4) 0.53604(18) 0.31727(9)
O11 O 1.2491(4) 0.56814(19) 0.24176(10)
N1 N 1.1500(4) 0.3599(2) 0.19517(10)
N2 N 1.2061(5) 0.0680(3) -0.01748(13)
C1 C 1.1636(5) 0.2626(3) 0.19800(12)
H1 H 1.1563 0.2335 0.2286
C2 C 1.1879(5) 0.2034(3) 0.15832(13)
H2 H 1.1978 0.1361 0.1623
C3 C 1.1976(4) 0.2453(3) 0.11206(11)
C4 C 1.1916(5) 0.3464(3) 0.10905(12)
H3 H 1.2037 0.3775 0.0791
C5 C 1.1674(5) 0.4007(3) 0.15087(13)
H4 H 1.1630 0.4683 0.1483
C6 C 1.2756(7) 0.0365(3) 0.02609(17)
H5 H 1.3262 -0.0261 0.0279
C7 C 1.2782(6) 0.0903(3) 0.06907(14)
H6 H 1.3279 0.0638 0.0987
C8 C 1.2060(4) 0.1838(3) 0.06739(12)
C9 C 1.1343(5) 0.2170(3) 0.02162(13)
H7 H 1.0838 0.2796 0.0184
C10 C 1.1377(6) 0.1582(3) -0.01874(14)
H8 H 1.0892 0.1828 -0.0489
C11 C 0.6965(4) 0.2982(2) 0.06791(11)
H9 H 0.7002 0.2521 0.0429
C12 C 0.6939(4) 0.2680(2) 0.11640(11)
H10 H 0.6950 0.2017 0.1238
C13 C 0.6898(4) 0.3362(2) 0.15413(10)
C14 C 0.6834(4) 0.4355(2) 0.14290(10)
C15 C 0.6846(4) 0.4649(2) 0.09417(10)
H11 H 0.6793 0.5310 0.0866
C16 C 0.6937(4) 0.3966(2) 0.05653(10)
C17 C 0.7197(4) 0.4331(2) 0.00567(11)
C18 C 0.7002(4) 0.3629(2) -0.03635(10)
C19 C 0.5450(4) 0.3019(2) -0.04345(11)
H12 H 0.4516 0.3029 -0.0213
C20 C 0.5290(4) 0.2397(2) -0.08339(11)
H13 H 0.4247 0.1989 -0.0880
C21 C 0.6664(4) 0.2374(2) -0.11662(10)
C22 C 0.8253(4) 0.2979(2) -0.10904(10)
C23 C 0.8400(4) 0.3610(2) -0.06942(10)
H14 H 0.9436 0.4022 -0.0648
C24 C 0.7006(4) 0.3021(2) 0.20657(11)
C25 C 0.6936(4) 0.5176(2) 0.17953(10)
C26 C 0.6461(4) 0.1688(2) -0.15954(11)
C27 C 0.9775(4) 0.2935(2) -0.14416(11)
Cd1C Cd 0.53809(3) 0.051736(17) -0.241303(8)
Cd2A Cd 0.73931(3) 0.712304(16) 0.203142(8)
Cd2C Cd 0.26069(3) 0.287696(16) -0.203142(8)
Cd2C_2 Cd 1.26069(3) 0.287696(16) -0.203142(8)
O3A O 0.6491(3) 0.03667(15) 0.29763(8)
O4A O 0.9457(3) 0.07287(17) 0.31896(9)
O5C O 1.0091(3) 0.31463(17) 0.30816(8)
O6C O 1.2514(3) 0.40151(17) 0.33703(9)
O7C O 0.4314(3) 0.21634(17) 0.31063(8)
O8C O 0.6449(3) 0.20178(19) 0.37318(8)
O12 O 0.6359(6) 0.4694(4) 0.37494(15)
loop_
_geom_bond_atom_site_label_1
_geom_bond_atom_site_label_2
_geom_bond_site_symmetry_1
_geom_bond_site_symmetry_2
Cd1 O3 1_555 1_555
Cd2 O1 1_555 1_555
O1 C24 1_555 1_555
O2 Cd2 1_555 1_555
O3 C25 1_555 1_555
O4 C25 1_555 1_555
O5 C26 1_555 1_555
O6 C26 1_555 1_555
O7 C27 1_555 1_555
O8 C27 1_555 1_555
O9 C17 1_555 1_555
O10 Cd1 1_555 1_555
O11 Cd1 1_555 1_555
N1 Cd1 1_555 1_555
N2 C6 1_555 1_555
C1 N1 1_555 1_555
H1 C1 1_555 1_555
C2 C1 1_555 1_555
H2 C2 1_555 1_555
C3 C2 1_555 1_555
C4 C3 1_555 1_555
H3 C4 1_555 1_555
C5 N1 1_555 1_555
H4 C5 1_555 1_555
C6 H5 1_555 1_555
C7 C6 1_555 1_555
H6 C7 1_555 1_555
C8 C3 1_555 1_555
C9 C8 1_555 1_555
H7 C9 1_555 1_555
C10 N2 1_555 1_555
H8 C10 1_555 1_555
C11 H9 1_555 1_555
C12 C11 1_555 1_555
H10 C12 1_555 1_555
C13 C12 1_555 1_555
C14 C13 1_555 1_555
C15 C14 1_555 1_555
H11 C15 1_555 1_555
C16 C11 1_555 1_555
C17 C16 1_555 1_555
C18 C17 1_555 1_555
C19 C18 1_555 1_555
H12 C19 1_555 1_555
C20 C19 1_555 1_555
H13 C20 1_555 1_555
C21 C20 1_555 1_555
C22 C21 1_555 1_555
C23 C18 1_555 1_555
H14 C23 1_555 1_555
C24 O2 1_555 1_555
C25 C14 1_555 1_555
C26 C21 1_555 1_555
C27 C22 1_555 1_555
Cd1C O5 1_555 1_555
Cd2A O3 1_555 1_555
Cd2C O5 1_555 1_555
Cd2C_2 O7 1_555 1_555
O3A Cd2 1_555 1_555
O4A Cd2 1_555 1_555
O5C Cd1 1_555 1_555
O6C Cd1 1_555 1_555
O7C Cd2 1_555 1_555
O8C Cd2 1_555 1_555
Cd2 O5C 1_555 1_555
O4 Cd2A 1_555 1_555
O6 Cd1C 1_555 1_555
O8 Cd2C_2 1_555 1_555
C4 C5 1_555 1_555
C7 C8 1_555 1_555
C9 C10 1_555 1_555
C13 C24 1_555 1_555
C15 C16 1_555 1_555
C22 C23 1_555 1_555

#END
