
#######################################################################
#
#                 Cambridge Crystallographic Data Centre
#                                CCDC 
#
#######################################################################
#
# If this CIF has been generated from an entry in the Cambridge 
# Structural Database, then it will include bibliographic, chemical, 
# crystal, experimental, refinement or atomic coordinate data resulting 
# from the CCDC's data processing and validation procedures.
#
#######################################################################

data_LELYAD
_symmetry_cell_setting           triclinic
_symmetry_space_group_name_H-M   'P -1'
_symmetry_Int_Tables_number      2
_space_group_name_Hall           '-P 1'
loop_
_symmetry_equiv_pos_site_id
_symmetry_equiv_pos_as_xyz
1 x,y,z
2 -x,-y,-z
_cell_length_a                   10.402(2)
_cell_length_b                   11.850(2)
_cell_length_c                   13.880(3)
_cell_angle_alpha                107.41(3)
_cell_angle_beta                 94.88(3)
_cell_angle_gamma                111.22(3)
_cell_volume                     1485.44
loop_
_atom_site_label
_atom_site_type_symbol
_atom_site_fract_x
_atom_site_fract_y
_atom_site_fract_z
Mn1 Mn 0.27811(4) -0.16524(4) 0.05496(3)
Mn2 Mn 0.71145(4) 0.65394(4) 0.97769(3)
O1 O 0.4935(2) -0.1446(3) 0.06174(19)
H1 H 0.548(4) -0.106(4) 0.030(3)
H2 H 0.515(5) -0.203(4) 0.071(4)
O2 O 0.1783(3) -0.3584(2) 0.0552(2)
H3 H 0.113(4) -0.383(4) 0.086(3)
H4 H 0.189(4) -0.424(2) 0.018(3)
O3 O 0.8554(2) 0.6175(3) 0.88152(19)
H5 H 0.851(4) 0.574(4) 0.8200(15)
H6 H 0.9386(19) 0.673(3) 0.907(3)
O4 O 0.5426(2) 0.4960(2) 0.85736(16)
O5 O 0.4415(2) 0.3449(2) 0.92504(15)
O6 O 0.2283(2) 0.44352(19) 0.92804(14)
O7 O 0.0241(2) 0.3830(3) 0.82208(17)
O8 O -0.1203(2) -0.1623(2) 0.08470(18)
O9 O 0.0738(2) -0.1621(2) 0.03186(17)
O10 O 0.3434(2) 0.0313(2) 0.06179(17)
O11 O 0.3369(2) 0.2199(2) 0.08652(17)
O12 O -0.0772(2) 0.0989(3) 0.45568(18)
N1 N 0.2561(3) -0.2371(3) -0.12345(19)
N2 N 0.2135(4) -0.4702(4) -0.6652(2)
N3 N 0.3532(2) -0.0941(3) 0.23328(17)
C1 C 0.3155(3) -0.3185(3) -0.1666(2)
H7 H 0.3625 -0.3453 -0.1241
C2 C 0.3092(4) -0.3636(3) -0.2718(3)
H8 H 0.3503 -0.4206 -0.2988
C3 C 0.2417(3) -0.3238(3) -0.3371(2)
C4 C 0.1816(4) -0.2388(4) -0.2916(3)
H9 H 0.1350 -0.2095 -0.3322
C5 C 0.1917(4) -0.1984(4) -0.1862(2)
H10 H 0.1515 -0.1412 -0.1574
C6 C 0.3272(5) -0.4475(5) -0.5966(3)
H11 H 0.4010 -0.4644 -0.6216
C7 C 0.3402(4) -0.4004(4) -0.4907(3)
H12 H 0.4202 -0.3884 -0.4463
C8 C 0.2337(4) -0.3713(3) -0.4509(3)
C9 C 0.1193(5) -0.3878(4) -0.5218(3)
H13 H 0.0476 -0.3650 -0.4990
C10 C 0.1136(5) -0.4386(4) -0.6267(3)
H14 H 0.0350 -0.4514 -0.6729
C11 C 0.4833(4) -0.0064(4) 0.2771(3)
H15 H 0.5364 0.0318 0.2359
C12 C 0.5451(4) 0.0318(4) 0.3790(2)
H16 H 0.6384 0.0920 0.4043
C13 C 0.4695(3) -0.0188(3) 0.4447(2)
C14 C 0.3325(3) -0.1059(4) 0.4000(2)
H17 H 0.2747 -0.1412 0.4403
C15 C 0.2796(3) -0.1417(4) 0.2954(3)
H18 H 0.1870 -0.2026 0.2675
C16 C 0.2824(3) 0.1953(3) 0.5776(2)
H19 H 0.3101 0.1517 0.5213
C17 C 0.3727(3) 0.2569(4) 0.6739(2)
H20 H 0.4609 0.2540 0.6823
C18 C 0.3327(3) 0.3238(3) 0.7590(2)
C19 C 0.1971(3) 0.3223(3) 0.7495(2)
C20 C 0.1081(3) 0.2592(3) 0.6517(2)
H21 H 0.0175 0.2573 0.6438
C21 C 0.1498(3) 0.1987(3) 0.5653(2)
C22 C 0.0508(3) 0.1372(3) 0.4628(2)
C23 C 0.1105(3) 0.1260(3) 0.3673(2)
C24 C 0.0383(3) 0.0215(3) 0.2753(2)
H22 H -0.0488 -0.0407 0.2733
C25 C 0.0934(3) 0.0076(3) 0.18532(19)
C26 C 0.2207(3) 0.1078(3) 0.18904(19)
C27 C 0.2853(3) 0.2162(3) 0.2790(2)
H23 H 0.3651 0.2849 0.2787
C28 C 0.2354(3) 0.2253(3) 0.3682(2)
H24 H 0.2841 0.2966 0.4285
C29 C 0.4465(3) 0.3961(3) 0.8565(2)
C30 C 0.1443(3) 0.3868(3) 0.8399(2)
C31 C 0.0094(3) -0.1146(3) 0.0933(2)
C32 C 0.3017(3) 0.1170(3) 0.10311(19)
Mn1A Mn 0.72189(4) 0.16524(4) 0.94504(3)
Mn1A_2 Mn 0.72189(4) 1.16524(4) 1.94504(3)
Mn2A Mn 0.28855(4) 0.34606(4) 1.02231(3)
Mn2_2 Mn -0.28855(4) -0.34606(4) -0.02231(3)
Mn2A_2 Mn 0.28855(4) 0.34606(4) 0.02231(3)
Mn2A_3 Mn 1.28855(4) 1.34606(4) 2.02231(3)
Mn2_3 Mn 0.71145(4) 0.65394(4) 1.97769(3)
O1A O 0.5065(2) 0.1446(3) 0.93826(19)
H1A H 0.452(4) 0.106(4) 0.970(3)
H2A H 0.485(5) 0.203(4) 0.929(4)
O2A O 0.8217(3) 0.3584(2) 0.9448(2)
H3A H 0.887(4) 0.383(4) 0.914(3)
H4A H 0.811(4) 0.424(2) 0.982(3)
O3A O 0.1446(2) 0.3825(3) 1.11848(19)
H5A H 0.149(4) 0.426(4) 1.1800(15)
H6A H 0.0614(19) 0.327(3) 1.093(3)
O4A O 0.4574(2) 0.5040(2) 1.14264(16)
O5A O 0.5585(2) 0.6551(2) 1.07496(15)
O6A O 0.7717(2) 0.55648(19) 1.07196(14)
O7A O 0.9759(2) 0.6170(3) 1.17792(17)
O8A O 1.1203(2) 1.1623(2) 1.91530(18)
O8_2 O 0.8797(2) 0.8377(2) 1.08470(18)
O8A_2 O 0.1203(2) 0.1623(2) 0.91530(18)
O9A O 0.9262(2) 1.1621(2) 1.96814(17)
O9A_2 O 0.9262(2) 0.1621(2) 0.96814(17)
O10A O 0.6566(2) 0.9687(2) 1.93821(17)
O10A_2 O 0.6566(2) -0.0313(2) 0.93821(17)
O11A O 0.6631(2) 0.7801(2) 1.91348(17)
O11A_2 O 0.6631(2) 0.7801(2) 0.91348(17)
O11_2 O 0.3369(2) 0.2199(2) 1.08652(17)
O12A O 1.0772(2) 0.9011(3) 1.54432(18)
N1A N 0.7439(3) 0.2371(3) 1.12345(19)
N2A N 0.7865(4) 0.4702(4) 1.6652(2)
N3A N 0.6468(2) 0.0941(3) 0.76672(17)
C1A C 0.6845(3) 0.3185(3) 1.1666(2)
H7A H 0.6375 0.3453 1.1241
C2A C 0.6908(4) 0.3636(3) 1.2718(3)
H8A H 0.6497 0.4206 1.2988
C3A C 0.7583(3) 0.3238(3) 1.3371(2)
C4A C 0.8184(4) 0.2388(4) 1.2916(3)
H9A H 0.8650 0.2095 1.3322
C5A C 0.8083(4) 0.1984(4) 1.1862(2)
H10A H 0.8485 0.1412 1.1574
C6A C 0.6728(5) 0.4475(5) 1.5966(3)
H11A H 0.5990 0.4644 1.6216
C7A C 0.6598(4) 0.4004(4) 1.4907(3)
H12A H 0.5798 0.3884 1.4463
C8A C 0.7663(4) 0.3713(3) 1.4509(3)
C9A C 0.8807(5) 0.3878(4) 1.5218(3)
H13A H 0.9524 0.3650 1.4990
C10A C 0.8864(5) 0.4386(4) 1.6267(3)
H14A H 0.9650 0.4514 1.6729
C11A C 0.5167(4) 0.0064(4) 0.7229(3)
H15A H 0.4636 -0.0318 0.7641
C12A C 0.4549(4) -0.0318(4) 0.6210(2)
H16A H 0.3616 -0.0920 0.5957
C13A C 0.5305(3) 0.0188(3) 0.5553(2)
C14A C 0.6675(3) 0.1059(4) 0.6000(2)
H17A H 0.7253 0.1412 0.5597
C15A C 0.7204(3) 0.1417(4) 0.7046(3)
H18A H 0.8130 0.2026 0.7325
C16A C 0.7176(3) 0.8047(3) 1.4224(2)
H19A H 0.6899 0.8483 1.4787
C17A C 0.6273(3) 0.7431(4) 1.3261(2)
H20A H 0.5391 0.7460 1.3177
C18A C 0.6673(3) 0.6762(3) 1.2410(2)
C19A C 0.8029(3) 0.6777(3) 1.2505(2)
C20A C 0.8919(3) 0.7408(3) 1.3483(2)
H21A H 0.9825 0.7427 1.3562
C21A C 0.8502(3) 0.8013(3) 1.4347(2)
C22A C 0.9492(3) 0.8628(3) 1.5372(2)
C23A C 0.8895(3) 0.8740(3) 1.6327(2)
C24A C 0.9617(3) 0.9785(3) 1.7247(2)
H22A H 1.0488 1.0407 1.7267
C25A C 0.9066(3) 0.9924(3) 1.81468(19)
C26A C 0.7793(3) 0.8922(3) 1.81096(19)
C27A C 0.7147(3) 0.7838(3) 1.7210(2)
H23A H 0.6349 0.7151 1.7213
C28A C 0.7646(3) 0.7747(3) 1.6318(2)
H24A H 0.7159 0.7034 1.5715
C29A C 0.5535(3) 0.6039(3) 1.1435(2)
C30A C 0.8557(3) 0.6132(3) 1.1601(2)
C31A C 0.9906(3) 1.1146(3) 1.9067(2)
C32A C 0.6983(3) 0.8830(3) 1.89689(19)
loop_
_geom_bond_atom_site_label_1
_geom_bond_atom_site_label_2
_geom_bond_site_symmetry_1
_geom_bond_site_symmetry_2
Mn1 O1 1_555 1_555
Mn2 O3 1_555 1_555
O1 H1 1_555 1_555
H2 O1 1_555 1_555
O2 Mn1 1_555 1_555
H3 O2 1_555 1_555
H4 O2 1_555 1_555
O3 H5 1_555 1_555
H6 O3 1_555 1_555
O4 Mn2 1_555 1_555
O5 C29 1_555 1_555
O6 C30 1_555 1_555
O7 C30 1_555 1_555
O8 C31 1_555 1_555
O9 Mn1 1_555 1_555
O10 Mn1 1_555 1_555
O11 C32 1_555 1_555
O12 C22 1_555 1_555
N1 Mn1 1_555 1_555
N2 C6 1_555 1_555
N3 Mn1 1_555 1_555
C1 N1 1_555 1_555
H7 C1 1_555 1_555
C2 C1 1_555 1_555
H8 C2 1_555 1_555
C3 C2 1_555 1_555
C4 C3 1_555 1_555
H9 C4 1_555 1_555
C5 N1 1_555 1_555
H10 C5 1_555 1_555
C6 H11 1_555 1_555
C7 C6 1_555 1_555
H12 C7 1_555 1_555
C8 C3 1_555 1_555
C9 C8 1_555 1_555
H13 C9 1_555 1_555
C10 N2 1_555 1_555
H14 C10 1_555 1_555
C11 N3 1_555 1_555
H15 C11 1_555 1_555
C12 C11 1_555 1_555
H16 C12 1_555 1_555
C13 C12 1_555 1_555
C14 C13 1_555 1_555
H17 C14 1_555 1_555
C15 N3 1_555 1_555
H18 C15 1_555 1_555
C16 H19 1_555 1_555
C17 C16 1_555 1_555
H20 C17 1_555 1_555
C18 C17 1_555 1_555
C19 C18 1_555 1_555
C20 C19 1_555 1_555
H21 C20 1_555 1_555
C21 C16 1_555 1_555
C22 C21 1_555 1_555
C23 C22 1_555 1_555
C24 C23 1_555 1_555
H22 C24 1_555 1_555
C25 C24 1_555 1_555
C26 C25 1_555 1_555
C27 C26 1_555 1_555
H23 C27 1_555 1_555
C28 C23 1_555 1_555
H24 C28 1_555 1_555
C29 O4 1_555 1_555
C30 C19 1_555 1_555
C31 O9 1_555 1_555
C32 O10 1_555 1_555
Mn1A O1A 1_555 1_555
Mn1A_2 O9A 1_555 1_555
Mn2A O5 1_555 1_555
Mn2_2 O8 1_555 1_555
Mn2A_2 O11 1_555 1_555
Mn2A_3 O8A 1_555 1_555
Mn2_3 O11A 1_555 1_555
O1A H1A 1_555 1_555
H2A O1A 1_555 1_555
O2A Mn1A 1_555 1_555
H3A O2A 1_555 1_555
H4A O2A 1_555 1_555
O3A Mn2A 1_555 1_555
H5A O3A 1_555 1_555
H6A O3A 1_555 1_555
O4A Mn2A 1_555 1_555
O5A Mn2 1_555 1_555
O6A Mn2 1_555 1_555
O7A C30A 1_555 1_555
O8A C31A 1_555 1_555
O8_2 Mn2 1_555 1_555
O8A_2 Mn2A 1_555 1_555
O9A C31A 1_555 1_555
O9A_2 Mn1A 1_555 1_555
O10A Mn1A_2 1_555 1_555
O10A_2 Mn1A 1_555 1_555
O11A C32A 1_555 1_555
O11A_2 Mn2 1_555 1_555
O11_2 Mn2A 1_555 1_555
O12A C22A 1_555 1_555
N1A Mn1A 1_555 1_555
N2A C6A 1_555 1_555
N3A Mn1A 1_555 1_555
C1A N1A 1_555 1_555
H7A C1A 1_555 1_555
C2A C1A 1_555 1_555
H8A C2A 1_555 1_555
C3A C2A 1_555 1_555
C4A C3A 1_555 1_555
H9A C4A 1_555 1_555
C5A N1A 1_555 1_555
H10A C5A 1_555 1_555
C6A H11A 1_555 1_555
C7A C6A 1_555 1_555
H12A C7A 1_555 1_555
C8A C3A 1_555 1_555
C9A C8A 1_555 1_555
H13A C9A 1_555 1_555
C10A N2A 1_555 1_555
H14A C10A 1_555 1_555
C11A N3A 1_555 1_555
H15A C11A 1_555 1_555
C12A C11A 1_555 1_555
H16A C12A 1_555 1_555
C13A C13 1_555 1_555
C14A C13A 1_555 1_555
H17A C14A 1_555 1_555
C15A N3A 1_555 1_555
H18A C15A 1_555 1_555
C16A H19A 1_555 1_555
C17A C16A 1_555 1_555
H20A C17A 1_555 1_555
C18A C17A 1_555 1_555
C19A C18A 1_555 1_555
C20A C19A 1_555 1_555
H21A C20A 1_555 1_555
C21A C16A 1_555 1_555
C22A C21A 1_555 1_555
C23A C22A 1_555 1_555
C24A C23A 1_555 1_555
H22A C24A 1_555 1_555
C25A C24A 1_555 1_555
C26A C25A 1_555 1_555
C27A C26A 1_555 1_555
H23A C27A 1_555 1_555
C28A C23A 1_555 1_555
H24A C28A 1_555 1_555
C29A O4A 1_555 1_555
C30A O6A 1_555 1_555
C31A C25A 1_555 1_555
C32A O10A 1_555 1_555
O6 Mn2A 1_555 1_555
C4 C5 1_555 1_555
C7 C8 1_555 1_555
C9 C10 1_555 1_555
C14 C15 1_555 1_555
C18 C29 1_555 1_555
C20 C21 1_555 1_555
C25 C31 1_555 1_555
C26 C32 1_555 1_555
C27 C28 1_555 1_555
O5A C29A 1_555 1_555
C4A C5A 1_555 1_555
C7A C8A 1_555 1_555
C9A C10A 1_555 1_555
C12A C13A 1_555 1_555
C14A C15A 1_555 1_555
C18A C29A 1_555 1_555
C19A C30A 1_555 1_555
C20A C21A 1_555 1_555
C26A C32A 1_555 1_555
C27A C28A 1_555 1_555

#END
