
#######################################################################
#
#                 Cambridge Crystallographic Data Centre
#                                CCDC 
#
#######################################################################
#
# If this CIF has been generated from an entry in the Cambridge 
# Structural Database, then it will include bibliographic, chemical, 
# crystal, experimental, refinement or atomic coordinate data resulting 
# from the CCDC's data processing and validation procedures.
#
#######################################################################

data_LELYEH
_symmetry_cell_setting           triclinic
_symmetry_space_group_name_H-M   'P -1'
_symmetry_Int_Tables_number      2
_space_group_name_Hall           '-P 1'
loop_
_symmetry_equiv_pos_site_id
_symmetry_equiv_pos_as_xyz
1 x,y,z
2 -x,-y,-z
_cell_length_a                   9.965(2)
_cell_length_b                   10.819(2)
_cell_length_c                   15.607(3)
_cell_angle_alpha                109.39(3)
_cell_angle_beta                 97.90(3)
_cell_angle_gamma                105.99(3)
_cell_volume                     1476.36
loop_
_atom_site_label
_atom_site_type_symbol
_atom_site_fract_x
_atom_site_fract_y
_atom_site_fract_z
Mn1 Mn 0.27508(4) 0.59852(4) 0.11905(3)
Mn2 Mn 0.31768(5) 0.10576(4) 0.02270(3)
O1 O 0.0594(2) 0.5422(2) 0.13370(16)
O2 O -0.0945(3) 0.3326(2) 0.11150(17)
O3 O 0.3020(3) 0.4180(2) 0.13203(15)
O4 O 0.2668(3) 0.2127(2) 0.14813(15)
O5 O 0.3471(3) 0.5084(2) 0.85496(14)
O6 O 0.4809(3) 0.7323(2) 0.94437(13)
O7 O 0.5701(2) 0.9965(2) 0.91628(15)
O8 O 0.3331(3) 0.9750(2) 0.89123(15)
O9 O 0.3482(4) 0.3623(3) 0.51684(17)
O10 O 0.4841(3) 0.6473(3) 0.09727(17)
H1 H 0.533(5) 0.596(4) 0.100(3)
H2 H 0.490(4) 0.669(4) 0.051(2)
O11 O 0.2391(3) 0.7542(2) 0.07556(16)
O12 O 0.1851(3) 0.4558(2) -0.02665(15)
H3 H 0.242(4) 0.475(5) -0.060(3)
H4 H 0.100(2) 0.441(6) -0.056(3)
O13 O 0.2007(4) 0.1858(3) -0.05401(18)
H5 H 0.191(5) 0.264(2) -0.030(2)
H6 H 0.173(7) 0.156(5) -0.1131(7)
O14 O 0.1159(3) -0.0588(3) -0.00837(19)
N1 N 0.3573(3) 0.7457(3) 0.26373(18)
C1 C 0.2997(5) 0.8439(6) 0.2985(3)
H7 H 0.2209 0.8449 0.2596
C2 C 0.3512(5) 0.9439(5) 0.3892(3)
H8 H 0.3069 1.0098 0.4097
C3 C 0.4700(4) 0.9462(3) 0.4505(2)
C4 C 0.5291(6) 0.8450(5) 0.4131(3)
H9 H 0.6086 0.8415 0.4500
C5 C 0.4712(6) 0.7489(5) 0.3214(3)
H10 H 0.5143 0.6828 0.2987
C11 C 0.1227(4) 0.5197(4) 0.4196(2)
H15 H 0.0984 0.5660 0.4737
C12 C 0.0515(4) 0.5094(4) 0.3332(2)
H16 H -0.0238 0.5440 0.3293
C13 C 0.0929(3) 0.4467(3) 0.2514(2)
C14 C 0.2041(3) 0.3890(3) 0.2575(2)
C15 C 0.2692(3) 0.3914(3) 0.3437(2)
H17 H 0.3369 0.3474 0.3464
C16 C 0.2331(4) 0.4598(3) 0.4262(2)
C17 C 0.3081(4) 0.4606(3) 0.5169(2)
C18 C 0.3360(4) 0.5825(3) 0.6073(2)
C19 C 0.3535(3) 0.5609(3) 0.6920(2)
H18 H 0.3422 0.4714 0.6895
C20 C 0.3873(3) 0.6693(3) 0.77866(19)
C21 C 0.4015(4) 0.8066(3) 0.7827(2)
C22 C 0.3825(4) 0.8276(4) 0.6983(2)
H19 H 0.3907 0.9163 0.7004
C23 C 0.3518(4) 0.7192(4) 0.6118(2)
H20 H 0.3416 0.7360 0.5571
C24 C 0.0133(3) 0.4383(3) 0.1577(2)
C25 C 0.2616(3) 0.3360(3) 0.17266(19)
C26 C 0.4068(3) 0.6350(3) 0.86617(19)
C27 C 0.4367(3) 0.9348(3) 0.8717(2)
Mn1A Mn 0.72492(4) 1.40148(4) 0.88095(3)
Mn1A_2 Mn 0.72492(4) 0.40148(4) 0.88095(3)
Mn2A Mn 0.68232(5) 0.89424(4) 0.97730(3)
Mn2_2 Mn 0.31768(5) 1.10576(4) 1.02270(3)
Mn2A_2 Mn 0.68232(5) -0.10576(4) -0.02270(3)
O1A O 0.9406(2) 0.4578(2) 0.86630(16)
O1A_2 O 0.9406(2) 1.4578(2) 0.86630(16)
O2A O 1.0945(3) 0.6674(2) 0.88850(17)
O3A O 0.6980(3) 0.5820(2) 0.86797(15)
O3A_2 O 0.6980(3) 1.5820(2) 0.86797(15)
O4A O 0.7332(3) 0.7873(2) 0.85187(15)
O5A O 0.6529(3) 0.4916(2) 0.14504(14)
O6A O 0.5191(3) 0.2677(2) 0.05563(13)
O7A O 0.4299(2) 0.0035(2) 0.08372(15)
O8A O 0.6669(3) 0.0250(2) 0.10877(15)
O8_2 O 0.3331(3) -0.0250(2) -0.10877(15)
O8A_2 O 0.6669(3) 1.0250(2) 1.10877(15)
O9A O 0.6518(4) 0.6377(3) 0.48316(17)
O10A O 0.5159(3) 1.3527(3) 0.90273(17)
H1A H 0.467(5) 1.404(4) 0.900(3)
H2A H 0.510(4) 1.331(4) 0.949(2)
O11A O 0.7609(3) 1.2458(2) 0.92444(16)
O12A O 0.8149(3) 1.5442(2) 1.02665(15)
H3A H 0.758(4) 1.525(5) 1.060(3)
H4A H 0.900(2) 1.559(6) 1.056(3)
O13A O 0.7993(4) 0.8142(3) 1.05401(18)
H5A H 0.809(5) 0.736(2) 1.030(2)
H6A H 0.827(7) 0.844(5) 1.1131(7)
O14A O 0.8841(3) 1.0588(3) 1.00837(19)
N1A N 0.6427(3) 1.2543(3) 0.73627(18)
C1A C 0.7003(5) 1.1561(6) 0.7015(3)
H7A H 0.7791 1.1551 0.7404
C2A C 0.6488(5) 1.0561(5) 0.6108(3)
H8A H 0.6931 0.9902 0.5903
C3A C 0.5300(4) 1.0538(3) 0.5495(2)
C4A C 0.4709(6) 1.1550(5) 0.5869(3)
H9A H 0.3914 1.1585 0.5500
C5A C 0.5288(6) 1.2511(5) 0.6786(3)
H10A H 0.4857 1.3172 0.7013
C11A C 0.8773(4) 0.4803(4) 0.5804(2)
H15A H 0.9016 0.4340 0.5263
C12A C 0.9485(4) 0.4906(4) 0.6668(2)
H16A H 1.0238 0.4560 0.6707
C13A C 0.9071(3) 0.5533(3) 0.7486(2)
C14A C 0.7959(3) 0.6110(3) 0.7425(2)
C15A C 0.7308(3) 0.6086(3) 0.6563(2)
H17A H 0.6631 0.6526 0.6536
C16A C 0.7669(4) 0.5402(3) 0.5738(2)
C17A C 0.6919(4) 0.5394(3) 0.4831(2)
C18A C 0.6640(4) 0.4175(3) 0.3927(2)
C19A C 0.6465(3) 0.4391(3) 0.3080(2)
H18A H 0.6578 0.5286 0.3105
C20A C 0.6127(3) 0.3307(3) 0.22134(19)
C21A C 0.5985(4) 0.1934(3) 0.2173(2)
C22A C 0.6175(4) 0.1724(4) 0.3017(2)
H19A H 0.6093 0.0837 0.2996
C23A C 0.6482(4) 0.2808(4) 0.3882(2)
H20A H 0.6584 0.2640 0.4429
C24A C 0.9867(3) 0.5617(3) 0.8423(2)
C25A C 0.7384(3) 0.6640(3) 0.82734(19)
C26A C 0.5932(3) 0.3650(3) 0.13383(19)
C27A C 0.5633(3) 0.0652(3) 0.1283(2)
C6 C 0.1237(8) 0.1880(6) 0.7104(3)
H11 H 0.1609 0.2817 0.7504
C7 C 0.0848(7) 0.1543(5) 0.6148(3)
H12 H 0.1015 0.2257 0.5927
C8 C 0.0226(5) 0.0189(4) 0.5517(3)
C9 C 0.0074(10) -0.0798(6) 0.5909(4)
H13 H -0.0307 -0.1741 0.5520
C10 C 0.0483(10) -0.0405(6) 0.6873(4)
H14 H 0.0313 -0.1105 0.7106
N2 N 0.1101(6) 0.0908(5) 0.7485(3)
C6A C -0.1237(8) -0.1880(6) 0.2896(3)
H11A H -0.1609 -0.2817 0.2496
C7A C -0.0848(7) -0.1543(5) 0.3852(3)
H12A H -0.1015 -0.2257 0.4073
C8A C -0.0226(5) -0.0189(4) 0.4483(3)
C9A C -0.0074(10) 0.0798(6) 0.4091(4)
H13A H 0.0307 0.1741 0.4480
C10A C -0.0483(10) 0.0405(6) 0.3127(4)
H14A H -0.0313 0.1105 0.2894
N2A N -0.1101(6) -0.0908(5) 0.2515(3)
loop_
_geom_bond_atom_site_label_1
_geom_bond_atom_site_label_2
_geom_bond_site_symmetry_1
_geom_bond_site_symmetry_2
Mn1 O1 1_555 1_555
Mn2 O4 1_555 1_555
O1 C24 1_555 1_555
O2 C24 1_555 1_555
O3 Mn1 1_555 1_555
O4 C25 1_555 1_555
O5 C26 1_555 1_555
O6 C26 1_555 1_555
O7 C27 1_555 1_555
O8 C27 1_555 1_555
O9 C17 1_555 1_555
O10 Mn1 1_555 1_555
H1 O10 1_555 1_555
H2 O10 1_555 1_555
O11 Mn1 1_555 1_555
O12 Mn1 1_555 1_555
H3 O12 1_555 1_555
H4 O12 1_555 1_555
O13 Mn2 1_555 1_555
H5 O13 1_555 1_555
H6 O13 1_555 1_555
O14 Mn2 1_555 1_555
N1 Mn1 1_555 1_555
C1 N1 1_555 1_555
H7 C1 1_555 1_555
C2 C1 1_555 1_555
H8 C2 1_555 1_555
C3 C2 1_555 1_555
C4 C3 1_555 1_555
H9 C4 1_555 1_555
C5 N1 1_555 1_555
H10 C5 1_555 1_555
C6 H11 1_555 1_555
C7 C6 1_555 1_555
H12 C7 1_555 1_555
C8 C7 1_555 1_555
C9 C8 1_555 1_555
H13 C9 1_555 1_555
C10 C9 1_555 1_555
H14 C10 1_555 1_555
N2 C6 1_555 1_555
C11 H15 1_555 1_555
C12 C11 1_555 1_555
H16 C12 1_555 1_555
C13 C12 1_555 1_555
C14 C13 1_555 1_555
C15 C14 1_555 1_555
H17 C15 1_555 1_555
C16 C11 1_555 1_555
C17 C16 1_555 1_555
C18 C17 1_555 1_555
C19 C18 1_555 1_555
H18 C19 1_555 1_555
C20 C19 1_555 1_555
C21 C20 1_555 1_555
C22 C21 1_555 1_555
H19 C22 1_555 1_555
C23 C18 1_555 1_555
H20 C23 1_555 1_555
C24 C13 1_555 1_555
C25 O3 1_555 1_555
C26 C20 1_555 1_555
C27 C21 1_555 1_555
Mn1A O1A_2 1_555 1_555
Mn1A_2 O1A 1_555 1_555
Mn2A O6 1_555 1_555
Mn2_2 O8 1_555 1_555
Mn2A_2 O8A 1_555 1_555
O1A C24A 1_555 1_555
O2A C24A 1_555 1_555
O3A Mn1A_2 1_555 1_555
O3A_2 Mn1A 1_555 1_555
O4A Mn2A 1_555 1_555
O5A C26A 1_555 1_555
O6A Mn2 1_555 1_555
O7A Mn2 1_555 1_555
O8A C27A 1_555 1_555
O8_2 Mn2 1_555 1_555
O8A_2 Mn2A 1_555 1_555
O9A C17A 1_555 1_555
O10A Mn1A 1_555 1_555
H1A O10A 1_555 1_555
H2A O10A 1_555 1_555
O11A Mn1A 1_555 1_555
O12A Mn1A 1_555 1_555
H3A O12A 1_555 1_555
H4A O12A 1_555 1_555
O13A Mn2A 1_555 1_555
H5A O13A 1_555 1_555
H6A O13A 1_555 1_555
O14A Mn2A 1_555 1_555
N1A Mn1A 1_555 1_555
C1A N1A 1_555 1_555
H7A C1A 1_555 1_555
C2A C1A 1_555 1_555
H8A C2A 1_555 1_555
C3A C3 1_555 1_555
C4A C3A 1_555 1_555
H9A C4A 1_555 1_555
C5A N1A 1_555 1_555
H10A C5A 1_555 1_555
C6A H11A 1_555 1_555
C7A C6A 1_555 1_555
H12A C7A 1_555 1_555
C8A C8 1_555 1_555
C9A C8A 1_555 1_555
H13A C9A 1_555 1_555
C10A C9A 1_555 1_555
H14A C10A 1_555 1_555
N2A C6A 1_555 1_555
C11A H15A 1_555 1_555
C12A C11A 1_555 1_555
H16A C12A 1_555 1_555
C13A C12A 1_555 1_555
C14A C13A 1_555 1_555
C15A C14A 1_555 1_555
H17A C15A 1_555 1_555
C16A C11A 1_555 1_555
C17A C16A 1_555 1_555
C18A C17A 1_555 1_555
C19A C18A 1_555 1_555
H18A C19A 1_555 1_555
C20A C19A 1_555 1_555
C21A C20A 1_555 1_555
C22A C21A 1_555 1_555
H19A C22A 1_555 1_555
C23A C18A 1_555 1_555
H20A C23A 1_555 1_555
C24A C13A 1_555 1_555
C25A O3A 1_555 1_555
C26A O6A 1_555 1_555
C27A O7A 1_555 1_555
O7 Mn2A 1_555 1_555
C4 C5 1_555 1_555
C10 N2 1_555 1_555
C14 C25 1_555 1_555
C15 C16 1_555 1_555
C22 C23 1_555 1_555
O4A C25A 1_555 1_555
C2A C3A 1_555 1_555
C4A C5A 1_555 1_555
C7A C8A 1_555 1_555
C10A N2A 1_555 1_555
C14A C25A 1_555 1_555
C15A C16A 1_555 1_555
C20A C26A 1_555 1_555
C21A C27A 1_555 1_555
C22A C23A 1_555 1_555

#END
