
#######################################################################
#
#                 Cambridge Crystallographic Data Centre
#                                CCDC 
#
#######################################################################
#
# If this CIF has been generated from an entry in the Cambridge 
# Structural Database, then it will include bibliographic, chemical, 
# crystal, experimental, refinement or atomic coordinate data resulting 
# from the CCDC's data processing and validation procedures.
#
#######################################################################

data_LEMCIR
_symmetry_cell_setting           orthorhombic
_symmetry_space_group_name_H-M   'P n a 21'
_symmetry_Int_Tables_number      33
_space_group_name_Hall           'P 2c -2n'
loop_
_symmetry_equiv_pos_site_id
_symmetry_equiv_pos_as_xyz
1 x,y,z
2 -x,-y,1/2+z
3 1/2+x,1/2-y,z
4 1/2-x,1/2+y,1/2+z
_cell_length_a                   14.0548(6)
_cell_length_b                   9.5692(3)
_cell_length_c                   16.9622(7)
_cell_angle_alpha                90
_cell_angle_beta                 90
_cell_angle_gamma                90
_cell_volume                     2281.3
loop_
_atom_site_label
_atom_site_type_symbol
_atom_site_fract_x
_atom_site_fract_y
_atom_site_fract_z
Cd1 Cd 0.94227(3) 0.80070(5) 0.52006(2)
Cd2 Cd 0.68490(3) 0.76490(4) 0.38336(3)
Ca1 Ca 0.95921(9) 1.14770(14) 0.63960(8)
C1 C 0.7108(5) 0.7479(6) 0.5468(4)
C2 C 0.7270(5) 0.7520(6) 0.6343(4)
C3 C 0.7519(4) 0.8788(6) 0.6683(4)
H1 H 0.7559 0.9590 0.6375
C4 C 0.7707(4) 0.8852(6) 0.7489(4)
C5 C 0.8000(4) 1.0238(6) 0.7852(4)
C6 C 0.7677(4) 0.7653(6) 0.7941(4)
H2 H 0.7789 0.7698 0.8481
C7 C 0.7480(4) 0.6380(6) 0.7586(4)
C8 C 0.7589(4) 0.5051(7) 0.8057(4)
C9 C 0.7246(4) 0.6318(6) 0.6796(4)
H3 H 0.7074 0.5470 0.6568
C10 C 0.9924(4) 0.5690(6) 0.3961(4)
C11 C 0.9843(4) 0.4233(6) 0.3658(4)
C12 C 1.0016(4) 0.3947(6) 0.2866(4)
H4 H 1.0152 0.4675 0.2520
C13 C 0.9989(4) 0.2590(6) 0.2590(4)
C14 C 1.0202(4) 0.2286(6) 0.1734(4)
C15 C 0.9787(4) 0.1505(6) 0.3099(4)
H5 H 0.9785 0.0588 0.2917
C16 C 0.9586(4) 0.1787(6) 0.3886(4)
C17 C 0.9393(4) 0.0616(7) 0.4445(4)
C18 C 0.9610(4) 0.3146(6) 0.4161(4)
H6 H 0.9470 0.3332 0.4687
O1 O 0.7759(3) 0.7925(5) 0.5022(2)
O2 O 0.6329(3) 0.7016(5) 0.5181(3)
O3 O 0.8511(3) 1.1041(4) 0.7479(3)
O4 O 0.7707(3) 1.0495(5) 0.8541(3)
O5 O 0.7828(3) 0.5118(4) 0.8771(3)
O6 O 0.7470(3) 0.3896(5) 0.7733(3)
O7 O 1.0381(3) 0.6580(4) 0.3570(3)
O8 O 0.9531(3) 0.5935(5) 0.4613(3)
O9 O 1.0391(3) 0.3318(5) 0.1297(3)
O10 O 1.0222(3) 0.1058(4) 0.1492(3)
O11 O 0.9620(3) -0.0597(4) 0.4217(3)
O12 O 0.9050(3) 0.0860(4) 0.5115(3)
O13 O 1.1016(3) 1.1044(5) 0.5669(3)
H7 H 1.112(5) 1.161(5) 0.532(3)
H8 H 1.125(5) 1.030(3) 0.553(4)
O14 O 1.0205(4) 1.3810(5) 0.6060(3)
H9 H 1.000(5) 1.461(3) 0.605(4)
H10 H 1.068(4) 1.380(7) 0.577(4)
O15 O 1.0591(3) 1.1842(6) 0.7472(3)
H11 H 1.041(5) 1.201(8) 0.7924(16)
H12 H 1.105(4) 1.132(7) 0.751(4)
O16 O 0.8216(4) 1.2886(6) 0.6276(3)
H13 H 0.802(6) 1.345(7) 0.595(3)
H14 H 0.803(6) 1.316(8) 0.671(2)
Cd1A Cd 1.05773(3) 0.19930(5) 0.02006(2)
Cd1_2 Cd 0.94227(3) -0.19930(5) 0.52006(2)
Cd2C Cd 0.81510(3) 1.26490(4) 0.88336(3)
Cd2C_2 Cd 0.81510(3) 0.26490(4) 0.88336(3)
Cd2B Cd 1.18490(3) 0.73510(4) 0.38336(3)
Ca1A Ca 1.04079(9) -0.14770(14) 0.13960(8)
Ca1_2 Ca 0.95921(9) 0.14770(14) 0.63960(8)
O4C O 0.7293(3) 0.5495(5) 0.3541(3)
O5C O 0.7172(3) 1.0118(4) 0.3771(3)
O6C O 0.7530(3) 0.8896(5) 0.2733(3)
O7B O 0.5381(3) 0.8420(4) 0.3570(3)
O9A O 0.9609(3) 0.6682(5) 0.6297(3)
O10A O 0.9778(3) 0.8942(4) 0.6492(3)
O11_2 O 0.9620(3) 0.9403(4) 0.4217(3)
O12_2 O 0.9050(3) 1.0860(4) 0.5115(3)
O17 O 0.2104(4) 0.5350(6) 1.0061(3)
H15 H 0.158(2) 0.499(8) 0.996(4)
H16 H 0.242(4) 0.526(9) 0.965(2)
O18 O 0.3111(3) 0.8489(6) 1.0161(4)
H17 H 0.262(3) 0.870(9) 1.039(4)
H18 H 0.314(5) 0.897(8) 0.976(3)
loop_
_geom_bond_atom_site_label_1
_geom_bond_atom_site_label_2
_geom_bond_site_symmetry_1
_geom_bond_site_symmetry_2
Cd1 O1 1_555 1_555
Cd2 O1 1_555 1_555
Ca1 O3 1_555 1_555
C1 C2 1_555 1_555
C2 C3 1_555 1_555
C3 H1 1_555 1_555
C4 C3 1_555 1_555
C5 C4 1_555 1_555
C6 C4 1_555 1_555
H2 C6 1_555 1_555
C7 C6 1_555 1_555
C8 C7 1_555 1_555
C9 C2 1_555 1_555
H3 C9 1_555 1_555
C10 C11 1_555 1_555
C11 C12 1_555 1_555
C12 H4 1_555 1_555
C13 C12 1_555 1_555
C14 C13 1_555 1_555
C15 C13 1_555 1_555
H5 C15 1_555 1_555
C16 C15 1_555 1_555
C17 C16 1_555 1_555
C18 C11 1_555 1_555
H6 C18 1_555 1_555
O1 C1 1_555 1_555
O2 Cd2 1_555 1_555
O3 C5 1_555 1_555
O4 C5 1_555 1_555
O5 C8 1_555 1_555
O6 C8 1_555 1_555
O7 C10 1_555 1_555
O8 Cd1 1_555 1_555
O9 C14 1_555 1_555
O10 C14 1_555 1_555
O11 C17 1_555 1_555
O12 C17 1_555 1_555
O13 Ca1 1_555 1_555
H7 O13 1_555 1_555
H8 O13 1_555 1_555
O14 Ca1 1_555 1_555
H9 O14 1_555 1_555
H10 O14 1_555 1_555
O15 Ca1 1_555 1_555
H11 O15 1_555 1_555
H12 O15 1_555 1_555
O16 Ca1 1_555 1_555
H13 O16 1_555 1_555
H14 O16 1_555 1_555
O17 H15 1_555 1_555
H16 O17 1_555 1_555
O18 H17 1_555 1_555
H18 O18 1_555 1_555
Cd1A O9 1_555 1_555
Cd1_2 O11 1_555 1_555
Cd2C O4 1_555 1_555
Cd2C_2 O5 1_555 1_555
Cd2B O7 1_555 1_555
Ca1A O10 1_555 1_555
Ca1_2 O12 1_555 1_555
O4C Cd2 1_555 1_555
O5C Cd2 1_555 1_555
O6C Cd2 1_555 1_555
O7B Cd2 1_555 1_555
O9A Cd1 1_555 1_555
O10A Cd1 1_555 1_555
O11_2 Cd1 1_555 1_555
O12_2 Ca1 1_555 1_555
Ca1 O10A 1_555 1_555
C1 O2 1_555 1_555
C7 C9 1_555 1_555
C10 O8 1_555 1_555
C16 C18 1_555 1_555
O6 Cd2C_2 1_555 1_555
O10 Cd1A 1_555 1_555

#END
