
#######################################################################
#
#                 Cambridge Crystallographic Data Centre
#                                CCDC 
#
#######################################################################
#
# If this CIF has been generated from an entry in the Cambridge 
# Structural Database, then it will include bibliographic, chemical, 
# crystal, experimental, refinement or atomic coordinate data resulting 
# from the CCDC's data processing and validation procedures.
#
#######################################################################

data_LEMLUL
_symmetry_cell_setting           triclinic
_symmetry_space_group_name_H-M   'P -1'
_symmetry_Int_Tables_number      2
_space_group_name_Hall           '-P 1'
loop_
_symmetry_equiv_pos_site_id
_symmetry_equiv_pos_as_xyz
1 x,y,z
2 -x,-y,-z
_cell_length_a                   9.472(4)
_cell_length_b                   12.638(5)
_cell_length_c                   13.434(5)
_cell_angle_alpha                74.462(6)
_cell_angle_beta                 81.891(6)
_cell_angle_gamma                85.097(6)
_cell_volume                     1531.96
loop_
_atom_site_label
_atom_site_type_symbol
_atom_site_fract_x
_atom_site_fract_y
_atom_site_fract_z
Mn1 Mn 0.25444(5) 1.01459(4) 0.97726(4)
N1 N 0.1903(3) 0.8635(2) 0.9306(2)
H1 H 0.1981 0.8053 0.9859
H2 H 0.0967 0.8742 0.9232
N2 N 0.7313(4) 0.6782(3) 0.3076(3)
H3 H 0.7546 0.7304 0.2532
H4 H 0.7577 0.6113 0.3083
N3 N 0.3194(3) 1.1608(2) 1.0321(2)
H5 H 0.3327 1.1343 1.0995
H6 H 0.4053 1.1802 0.9968
O1 O 0.0711(2) 0.98295(16) 1.09929(15)
O2 O -0.1181(2) 0.88146(17) 1.12813(16)
O3 O 0.4031(2) 0.90955(17) 1.07693(16)
O4 O 0.5815(2) 0.95001(19) 1.14948(16)
C1 C 0.0094(3) 0.8938(3) 1.1354(2)
C2 C 0.0950(3) 0.7926(3) 1.1858(2)
C3 C 0.0728(4) 0.6936(3) 1.1645(3)
H8 H -0.0007 0.6900 1.1266
C4 C 0.1581(5) 0.6020(3) 1.1988(4)
H9 H 0.1438 0.5365 1.1833
C5 C 0.2651(5) 0.6069(3) 1.2562(4)
H10 H 0.3238 0.5447 1.2790
C6 C 0.2862(4) 0.7033(3) 1.2804(3)
H11 H 0.3573 0.7049 1.3210
C7 C 0.2029(3) 0.7978(3) 1.2448(2)
C8 C 0.2257(3) 0.8981(3) 1.2764(2)
C9 C 0.1262(4) 0.9330(3) 1.3485(3)
H12 H 0.0429 0.8954 1.3739
C10 C 0.1491(4) 1.0230(4) 1.3830(3)
H13 H 0.0795 1.0472 1.4292
C11 C 0.2731(4) 1.0767(3) 1.3498(3)
H14 H 0.2885 1.1362 1.3747
C12 C 0.3756(4) 1.0428(3) 1.2795(3)
H15 H 0.4613 1.0778 1.2586
C13 C 0.3499(3) 0.9557(3) 1.2397(2)
C14 C 0.4530(3) 0.9349(2) 1.1494(2)
C15 C 0.2588(4) 0.8299(3) 0.8414(3)
C16 C 0.3564(4) 0.7428(3) 0.8506(3)
H16 H 0.3755 0.7020 0.9164
C17 C 0.4273(4) 0.7143(3) 0.7634(3)
H17 H 0.4932 0.6547 0.7719
C18 C 0.4025(4) 0.7724(3) 0.6636(3)
C19 C 0.3009(4) 0.8602(3) 0.6562(3)
H18 H 0.2798 0.9005 0.5907
C20 C 0.2310(4) 0.8889(3) 0.7431(3)
H19 H 0.1648 0.9484 0.7354
C21 C 0.6519(4) 0.7019(4) 0.3937(3)
C22 C 0.6077(4) 0.8076(3) 0.3958(3)
H20 H 0.6340 0.8654 0.3384
C23 C 0.5252(4) 0.8294(3) 0.4813(3)
H21 H 0.4959 0.9018 0.4800
C24 C 0.4842(4) 0.7466(3) 0.5696(3)
C25 C 0.5265(4) 0.6400(3) 0.5666(3)
H22 H 0.4986 0.5823 0.6235
C26 C 0.6099(4) 0.6172(3) 0.4803(3)
H23 H 0.6377 0.5448 0.4806
C27 C 0.2322(4) 1.2601(3) 1.0248(3)
C28 C 0.2597(4) 1.3522(3) 0.9434(3)
H24 H 0.3393 1.3515 0.8943
C29 C 0.1696(4) 1.4452(3) 0.9347(3)
H25 H 0.1903 1.5063 0.8793
C30 C 0.0497(3) 1.4506(2) 1.0053(3)
C31 C 0.0260(4) 1.3570(3) 1.0871(3)
H26 H -0.0529 1.3572 1.1369
C32 C 0.1152(4) 1.2647(3) 1.0965(3)
H27 H 0.0960 1.2040 1.1526
Mn1A Mn -0.25444(5) 1.98541(4) 1.02274(4)
Mn1A_2 Mn -0.25444(5) 0.98541(4) 1.02274(4)
Mn1A_3 Mn 0.74556(5) 0.98541(4) 1.02274(4)
Mn1_2 Mn -0.74556(5) 1.01459(4) 0.97726(4)
N1A N -0.1903(3) 2.1365(2) 1.0694(2)
H1A H -0.1981 2.1947 1.0141
H2A H -0.0967 2.1258 1.0768
N2A N -0.7313(4) 2.3218(3) 1.6924(3)
H3A H -0.7546 2.2696 1.7468
H4A H -0.7577 2.3887 1.6917
N3A N -0.3194(3) 1.8392(2) 0.9679(2)
H5A H -0.3327 1.8657 0.9005
H6A H -0.4053 1.8198 1.0032
O1A O -0.0711(2) 1.01705(16) 0.90071(15)
O1A_2 O -0.0711(2) 2.01705(16) 0.90071(15)
O2A O 0.1181(2) 1.11854(17) 0.87187(16)
O2_2 O -0.1181(2) 1.88146(17) 1.12813(16)
O3A O -0.4031(2) 1.09045(17) 0.92307(16)
O3A_2 O -0.4031(2) 2.09045(17) 0.92307(16)
O4A O -0.5815(2) 1.04999(19) 0.85052(16)
O4A_2 O 0.4185(2) 1.04999(19) 0.85052(16)
O4_2 O -0.4185(2) 1.95001(19) 1.14948(16)
C1A C -0.0094(3) 1.1062(3) 0.8646(2)
C2A C -0.0950(3) 1.2074(3) 0.8142(2)
C3A C -0.0728(4) 1.3064(3) 0.8355(3)
H8A H 0.0007 1.3100 0.8734
C4A C -0.1581(5) 1.3980(3) 0.8012(4)
H9A H -0.1438 1.4635 0.8167
C5A C -0.2651(5) 1.3931(3) 0.7438(4)
H10A H -0.3238 1.4553 0.7210
C6A C -0.2862(4) 1.2967(3) 0.7196(3)
H11A H -0.3573 1.2951 0.6790
C7A C -0.2029(3) 1.2022(3) 0.7552(2)
C8A C -0.2257(3) 1.1019(3) 0.7236(2)
C9A C -0.1262(4) 1.0670(3) 0.6515(3)
H12A H -0.0429 1.1046 0.6261
C10A C -0.1491(4) 0.9770(4) 0.6170(3)
H13A H -0.0795 0.9528 0.5708
C11A C -0.2731(4) 0.9233(3) 0.6502(3)
H14A H -0.2885 0.8638 0.6253
C12A C -0.3756(4) 0.9572(3) 0.7205(3)
H15A H -0.4613 0.9222 0.7414
C13A C -0.3499(3) 1.0443(3) 0.7603(2)
C14A C -0.4530(3) 1.0651(2) 0.8506(2)
C15A C -0.2588(4) 2.1701(3) 1.1586(3)
C16A C -0.3564(4) 2.2572(3) 1.1494(3)
H16A H -0.3755 2.2980 1.0836
C17A C -0.4273(4) 2.2857(3) 1.2366(3)
H17A H -0.4932 2.3453 1.2281
C18A C -0.4025(4) 2.2276(3) 1.3364(3)
C19A C -0.3009(4) 2.1398(3) 1.3438(3)
H18A H -0.2798 2.0995 1.4093
C20A C -0.2310(4) 2.1111(3) 1.2569(3)
H19A H -0.1648 2.0516 1.2646
C21A C -0.6519(4) 2.2981(4) 1.6063(3)
C22A C -0.6077(4) 2.1924(3) 1.6042(3)
H20A H -0.6340 2.1346 1.6616
C23A C -0.5252(4) 2.1706(3) 1.5187(3)
H21A H -0.4959 2.0982 1.5200
C24A C -0.4842(4) 2.2534(3) 1.4304(3)
C25A C -0.5265(4) 2.3600(3) 1.4334(3)
H22A H -0.4986 2.4177 1.3765
C26A C -0.6099(4) 2.3828(3) 1.5197(3)
H23A H -0.6377 2.4552 1.5194
C27A C -0.2322(4) 1.7399(3) 0.9752(3)
C28A C -0.2597(4) 1.6478(3) 1.0566(3)
H24A H -0.3393 1.6485 1.1057
C29A C -0.1696(4) 1.5548(3) 1.0653(3)
H25A H -0.1903 1.4937 1.1207
C30A C -0.0497(3) 1.5494(2) 0.9947(3)
C31A C -0.0260(4) 1.6430(3) 0.9129(3)
H26A H 0.0529 1.6428 0.8631
C32A C -0.1152(4) 1.7353(3) 0.9035(3)
H27A H -0.0960 1.7960 0.8474
O5 O 0.8400(8) 0.4189(6) 0.3416(6)
H7 H 0.7609 0.4417 0.3628
C33 C 0.9119(18) 0.3759(14) 0.4205(12)
H28 H 0.9207 0.4359 0.4513
H29 H 0.8481 0.3257 0.4704
C34 C 1.0294(19) 0.3267(13) 0.4211(14)
H30 H 1.0566 0.3083 0.4901
H31 H 1.0988 0.3728 0.3739
H32 H 1.0249 0.2606 0.3996
loop_
_geom_bond_atom_site_label_1
_geom_bond_atom_site_label_2
_geom_bond_site_symmetry_1
_geom_bond_site_symmetry_2
Mn1 N1 1_555 1_555
N1 H1 1_555 1_555
H2 N1 1_555 1_555
N2 H3 1_555 1_555
H4 N2 1_555 1_555
N3 Mn1 1_555 1_555
H5 N3 1_555 1_555
H6 N3 1_555 1_555
O1 Mn1 1_555 1_555
O2 C1 1_555 1_555
O3 Mn1 1_555 1_555
O4 C14 1_555 1_555
O5 H7 1_555 1_555
C1 O1 1_555 1_555
C2 C1 1_555 1_555
C3 C2 1_555 1_555
H8 C3 1_555 1_555
C4 C3 1_555 1_555
H9 C4 1_555 1_555
C5 C4 1_555 1_555
H10 C5 1_555 1_555
C6 C5 1_555 1_555
H11 C6 1_555 1_555
C7 C2 1_555 1_555
C8 C7 1_555 1_555
C9 C8 1_555 1_555
H12 C9 1_555 1_555
C10 C9 1_555 1_555
H13 C10 1_555 1_555
C11 C10 1_555 1_555
H14 C11 1_555 1_555
C12 C11 1_555 1_555
H15 C12 1_555 1_555
C13 C8 1_555 1_555
C14 O3 1_555 1_555
C15 N1 1_555 1_555
C16 C15 1_555 1_555
H16 C16 1_555 1_555
C17 C16 1_555 1_555
H17 C17 1_555 1_555
C18 C17 1_555 1_555
C19 C18 1_555 1_555
H18 C19 1_555 1_555
C20 C15 1_555 1_555
H19 C20 1_555 1_555
C21 N2 1_555 1_555
C22 C21 1_555 1_555
H20 C22 1_555 1_555
C23 C22 1_555 1_555
H21 C23 1_555 1_555
C24 C18 1_555 1_555
C25 C24 1_555 1_555
H22 C25 1_555 1_555
C26 C21 1_555 1_555
H23 C26 1_555 1_555
C27 N3 1_555 1_555
C28 C27 1_555 1_555
H24 C28 1_555 1_555
C29 C28 1_555 1_555
H25 C29 1_555 1_555
C30 C29 1_555 1_555
C31 C30 1_555 1_555
H26 C31 1_555 1_555
C32 C27 1_555 1_555
H27 C32 1_555 1_555
C33 O5 1_555 1_555
H28 C33 1_555 1_555
H29 C33 1_555 1_555
C34 C33 1_555 1_555
H30 C34 1_555 1_555
H31 C34 1_555 1_555
H32 C34 1_555 1_555
Mn1A N1A 1_555 1_555
Mn1A_2 O2 1_555 1_555
Mn1A_3 O4 1_555 1_555
Mn1_2 O4A 1_555 1_555
N1A H1A 1_555 1_555
H2A N1A 1_555 1_555
N2A H3A 1_555 1_555
H4A N2A 1_555 1_555
N3A Mn1A 1_555 1_555
H5A N3A 1_555 1_555
H6A N3A 1_555 1_555
O1A Mn1A_2 1_555 1_555
O1A_2 Mn1A 1_555 1_555
O2A Mn1 1_555 1_555
O2_2 Mn1A 1_555 1_555
O3A Mn1A_2 1_555 1_555
O3A_2 Mn1A 1_555 1_555
O4A C14A 1_555 1_555
O4A_2 Mn1 1_555 1_555
O4_2 Mn1A 1_555 1_555
C1A O1A 1_555 1_555
C2A C1A 1_555 1_555
C3A C2A 1_555 1_555
H8A C3A 1_555 1_555
C4A C3A 1_555 1_555
H9A C4A 1_555 1_555
C5A C4A 1_555 1_555
H10A C5A 1_555 1_555
C6A C5A 1_555 1_555
H11A C6A 1_555 1_555
C7A C2A 1_555 1_555
C8A C7A 1_555 1_555
C9A C8A 1_555 1_555
H12A C9A 1_555 1_555
C10A C9A 1_555 1_555
H13A C10A 1_555 1_555
C11A C10A 1_555 1_555
H14A C11A 1_555 1_555
C12A C11A 1_555 1_555
H15A C12A 1_555 1_555
C13A C8A 1_555 1_555
C14A O3A 1_555 1_555
C15A N1A 1_555 1_555
C16A C15A 1_555 1_555
H16A C16A 1_555 1_555
C17A C16A 1_555 1_555
H17A C17A 1_555 1_555
C18A C17A 1_555 1_555
C19A C18A 1_555 1_555
H18A C19A 1_555 1_555
C20A C15A 1_555 1_555
H19A C20A 1_555 1_555
C21A N2A 1_555 1_555
C22A C21A 1_555 1_555
H20A C22A 1_555 1_555
C23A C22A 1_555 1_555
H21A C23A 1_555 1_555
C24A C18A 1_555 1_555
C25A C24A 1_555 1_555
H22A C25A 1_555 1_555
C26A C21A 1_555 1_555
H23A C26A 1_555 1_555
C27A N3A 1_555 1_555
C28A C27A 1_555 1_555
H24A C28A 1_555 1_555
C29A C28A 1_555 1_555
H25A C29A 1_555 1_555
C30A C30 1_555 1_555
C31A C30A 1_555 1_555
H26A C31A 1_555 1_555
C32A C27A 1_555 1_555
H27A C32A 1_555 1_555
C6 C7 1_555 1_555
C12 C13 1_555 1_555
C13 C14 1_555 1_555
C19 C20 1_555 1_555
C23 C24 1_555 1_555
C25 C26 1_555 1_555
C31 C32 1_555 1_555
O2A C1A 1_555 1_555
C6A C7A 1_555 1_555
C12A C13A 1_555 1_555
C13A C14A 1_555 1_555
C19A C20A 1_555 1_555
C23A C24A 1_555 1_555
C25A C26A 1_555 1_555
C29A C30A 1_555 1_555
C31A C32A 1_555 1_555

#END
