
#######################################################################
#
#                 Cambridge Crystallographic Data Centre
#                                CCDC 
#
#######################################################################
#
# If this CIF has been generated from an entry in the Cambridge 
# Structural Database, then it will include bibliographic, chemical, 
# crystal, experimental, refinement or atomic coordinate data resulting 
# from the CCDC's data processing and validation procedures.
#
#######################################################################

data_LEMMEW
_symmetry_cell_setting           monoclinic
_symmetry_space_group_name_H-M   'C 2/c'
_symmetry_Int_Tables_number      15
_space_group_name_Hall           '-C 2yn'
loop_
_symmetry_equiv_pos_site_id
_symmetry_equiv_pos_as_xyz
1 x,y,z
2 1/2+x,1/2+y,z
3 -x,y,1/2-z
4 1/2-x,1/2+y,1/2-z
5 -x,-y,-z
6 1/2-x,1/2-y,-z
7 x,-y,1/2+z
8 1/2+x,1/2-y,1/2+z
_cell_length_a                   12.2421(13)
_cell_length_b                   15.8008(16)
_cell_length_c                   30.526(4)
_cell_angle_alpha                90
_cell_angle_beta                 96.777(7)
_cell_angle_gamma                90
_cell_volume                     5863.54
loop_
_atom_site_label
_atom_site_type_symbol
_atom_site_fract_x
_atom_site_fract_y
_atom_site_fract_z
Zn1 Zn 0.09708(4) 0.23466(3) 0.615016(16)
N1 N 0.0616(3) 0.3368(2) 0.64996(11)
N2 N 0.2580(3) 0.2249(2) 0.60892(11)
N3 N 0.4983(3) 0.2635(2) 0.44340(12)
N4 N 0.0564(3) 0.1316(2) 0.64898(11)
C1 C -0.0252(4) 0.3337(3) 0.67270(16)
C2 C -0.0561(4) 0.3998(3) 0.69700(18)
C3 C 0.0026(4) 0.4745(3) 0.69944(14)
C4 C 0.0927(4) 0.4771(3) 0.67613(17)
C5 C 0.1187(4) 0.4089(3) 0.65179(17)
C6 C -0.0292(5) 0.5482(3) 0.72620(17)
C7 C 0.3355(4) 0.2438(3) 0.64166(16)
C8 C 0.4449(4) 0.2283(3) 0.63963(15)
C9 C 0.4792(3) 0.1901(3) 0.60289(13)
C10 C 0.3976(4) 0.1724(4) 0.56838(16)
C11 C 0.2895(4) 0.1912(4) 0.57235(15)
C12 C 0.5987(4) 0.1702(4) 0.59972(17)
C13 C 0.5014(4) 0.3279(3) 0.47225(16)
C14 C 0.5545(4) 0.3223(3) 0.51435(17)
C15 C 0.6080(4) 0.2493(3) 0.52827(15)
C16 C 0.6091(4) 0.1850(4) 0.49795(17)
C17 C 0.5530(4) 0.1930(4) 0.45686(17)
C18 C 0.6588(4) 0.2372(4) 0.57558(18)
C19 C -0.0308(5) 0.0840(4) 0.63739(19)
C20 C -0.0567(5) 0.0158(4) 0.6615(2)
C21 C 0.0062(4) -0.0075(3) 0.69921(14)
C22 C 0.0966(5) 0.0417(4) 0.7107(2)
C23 C 0.1187(5) 0.1099(4) 0.68547(18)
C24 C -0.0239(5) -0.0820(3) 0.72596(17)
H5 H -0.062(4) 0.279(3) 0.6725(16)
H6 H -0.113(5) 0.396(4) 0.7118(19)
H7 H 0.125(4) 0.529(3) 0.6731(15)
H8 H 0.170(4) 0.409(3) 0.6378(16)
H9 H -0.005(4) 0.599(4) 0.7141(17)
H10 H -0.104(5) 0.549(3) 0.7280(17)
H11 H 0.309(4) 0.267(3) 0.6650(16)
H12 H 0.494(4) 0.243(3) 0.6670(18)
H13 H 0.418(4) 0.148(4) 0.5401(19)
H14 H 0.224(4) 0.180(3) 0.5468(17)
H15 H 0.626(3) 0.161(3) 0.6268(15)
H16 H 0.605(4) 0.114(3) 0.5840(15)
H17 H 0.464(4) 0.380(3) 0.4613(16)
H18 H 0.549(4) 0.366(3) 0.5329(17)
H19 H 0.644(4) 0.137(4) 0.5052(17)
H20 H 0.549(5) 0.149(4) 0.4393(19)
H21 H 0.738(5) 0.230(4) 0.5720(19)
H22 H 0.657(4) 0.294(4) 0.5903(17)
H23 H -0.075(5) 0.103(4) 0.614(2)
H24 H -0.120(7) -0.008(5) 0.651(3)
H25 H 0.145(5) 0.027(4) 0.734(2)
H26 H 0.183(7) 0.141(5) 0.689(3)
H27 H -0.119(5) -0.088(3) 0.7220(18)
H28 H 0.000(3) -0.127(3) 0.7154(14)
Zn1B Zn -0.09708(4) 0.23466(3) 0.884984(16)
Zn1E Zn 0.40292(4) 0.26534(3) 0.384984(16)
N1B N -0.0616(3) 0.3368(2) 0.85004(11)
N2E N 0.2420(3) 0.2751(2) 0.39108(11)
N2B N -0.2580(3) 0.2249(2) 0.89108(11)
N3E N 0.0017(3) 0.2365(2) 0.55660(12)
N3G N -0.0017(3) 0.2365(2) 0.94340(12)
N4B N -0.0564(3) 0.1316(2) 0.85102(11)
C1B C 0.0252(4) 0.3337(3) 0.82730(16)
C2B C 0.0561(4) 0.3998(3) 0.80300(18)
C3B C -0.0026(4) 0.4745(3) 0.80056(14)
C4B C -0.0927(4) 0.4771(3) 0.82387(17)
C5B C -0.1187(4) 0.4089(3) 0.84821(17)
C6B C 0.0292(5) 0.5482(3) 0.77380(17)
C7E C 0.1645(4) 0.2562(3) 0.35834(16)
C8E C 0.0551(4) 0.2717(3) 0.36037(15)
C9E C 0.0208(3) 0.3099(3) 0.39711(13)
C10E C 0.1024(4) 0.3276(4) 0.43162(16)
C11E C 0.2105(4) 0.3088(4) 0.42765(15)
C12E C -0.0987(4) 0.3298(4) 0.40028(17)
C13E C -0.0014(4) 0.1721(3) 0.52775(16)
C14E C -0.0545(4) 0.1777(3) 0.48565(17)
C15E C -0.1080(4) 0.2507(3) 0.47173(15)
C16E C -0.1091(4) 0.3150(4) 0.50205(17)
C17E C -0.0530(4) 0.3070(4) 0.54314(17)
C18E C -0.1588(4) 0.2628(4) 0.42442(18)
C19B C 0.0308(5) 0.0840(4) 0.86261(19)
C20B C 0.0567(5) 0.0158(4) 0.8385(2)
C21B C -0.0062(4) -0.0075(3) 0.80079(14)
C22B C -0.0966(5) 0.0417(4) 0.7893(2)
C23B C -0.1187(5) 0.1099(4) 0.81453(18)
C24B C 0.0239(5) -0.0820(3) 0.77404(17)
H5B H 0.062(4) 0.279(3) 0.8275(16)
H6B H 0.113(5) 0.396(4) 0.7882(19)
H7B H -0.125(4) 0.529(3) 0.8269(15)
H8B H -0.170(4) 0.409(3) 0.8622(16)
H9B H 0.005(4) 0.599(4) 0.7859(17)
H10B H 0.104(5) 0.549(3) 0.7720(17)
H11E H 0.191(4) 0.233(3) 0.3350(16)
H12E H 0.006(4) 0.257(3) 0.3330(18)
H13E H 0.082(4) 0.352(4) 0.4599(19)
H14E H 0.276(4) 0.320(3) 0.4532(17)
H15E H -0.126(3) 0.339(3) 0.3732(15)
H16E H -0.105(4) 0.386(3) 0.4160(15)
H17E H 0.036(4) 0.120(3) 0.5387(16)
H18E H -0.049(4) 0.134(3) 0.4671(17)
H19E H -0.144(4) 0.363(4) 0.4948(17)
H20E H -0.049(5) 0.351(4) 0.5607(19)
H21E H -0.238(5) 0.270(4) 0.4280(19)
H22E H -0.157(4) 0.206(4) 0.4097(17)
H23B H 0.075(5) 0.103(4) 0.886(2)
H24B H 0.120(7) -0.008(5) 0.849(3)
H25B H -0.145(5) 0.027(4) 0.766(2)
H26B H -0.183(7) 0.141(5) 0.811(3)
H27B H 0.119(5) -0.088(3) 0.7780(18)
H28B H 0.000(3) -0.127(3) 0.7846(14)
Cl1 Cl 0.23904(16) 0.04528(10) 0.45991(5)
O1 O 0.2388(6) -0.0197(5) 0.4321(2)
O2 O 0.146(2) 0.054(3) 0.4713(10)
O4 O 0.303(2) 0.0148(8) 0.4999(4)
O6 O 0.272(3) 0.1231(7) 0.4579(7)
Cl2 Cl 0.27302(10) 0.24575(8) 0.77480(4)
O8 O 0.2193(7) 0.1788(5) 0.7892(2)
O9 O 0.3728(5) 0.2211(4) 0.7593(2)
O10 O 0.2117(4) 0.2869(4) 0.73917(15)
O11 O 0.2992(4) 0.3032(3) 0.80996(14)
O12 O -0.1785(12) -0.0001(9) 0.4161(5)
H1 H -0.1598 0.0184 0.4410
C25 C -0.2725(13) 0.0332(11) 0.4004(8)
H2 H -0.2602 0.0773 0.3800
H3 H -0.3078 0.0563 0.4242
H4 H -0.3186 -0.0097 0.3856
O3? O 0.1686(18) 0.0939(10) 0.4271(6)
O5? O 0.199(2) 0.0351(14) 0.4971(5)
O7? O 0.3492(16) 0.071(2) 0.4574(8)
loop_
_geom_bond_atom_site_label_1
_geom_bond_atom_site_label_2
_geom_bond_site_symmetry_1
_geom_bond_site_symmetry_2
Zn1 N1 1_555 1_555
N1 C1 1_555 1_555
N2 Zn1 1_555 1_555
N3 C13 1_555 1_555
N4 Zn1 1_555 1_555
C1 C2 1_555 1_555
C2 C3 1_555 1_555
C3 C4 1_555 1_555
C4 C5 1_555 1_555
C5 N1 1_555 1_555
C6 C3 1_555 1_555
C7 N2 1_555 1_555
C8 C7 1_555 1_555
C9 C8 1_555 1_555
C10 C9 1_555 1_555
C11 N2 1_555 1_555
C12 C9 1_555 1_555
C13 C14 1_555 1_555
C14 C15 1_555 1_555
C15 C16 1_555 1_555
C16 C17 1_555 1_555
C17 N3 1_555 1_555
C18 C12 1_555 1_555
C19 N4 1_555 1_555
C20 C19 1_555 1_555
C21 C20 1_555 1_555
C22 C21 1_555 1_555
C23 N4 1_555 1_555
C24 C21 1_555 1_555
Cl1 O1 1_555 1_555
O2 Cl1 1_555 1_555
O4 Cl1 1_555 1_555
O6 Cl1 1_555 1_555
Cl2 O8 1_555 1_555
O9 Cl2 1_555 1_555
O10 Cl2 1_555 1_555
O11 Cl2 1_555 1_555
O12 H1 1_555 1_555
C25 O12 1_555 1_555
H2 C25 1_555 1_555
H3 C25 1_555 1_555
H4 C25 1_555 1_555
H5 C1 1_555 1_555
H6 C2 1_555 1_555
H7 C4 1_555 1_555
H8 C5 1_555 1_555
H9 C6 1_555 1_555
H10 C6 1_555 1_555
H11 C7 1_555 1_555
H12 C8 1_555 1_555
H13 C10 1_555 1_555
H14 C11 1_555 1_555
H15 C12 1_555 1_555
H16 C12 1_555 1_555
H17 C13 1_555 1_555
H18 C14 1_555 1_555
H19 C16 1_555 1_555
H20 C17 1_555 1_555
H21 C18 1_555 1_555
H22 C18 1_555 1_555
H23 C19 1_555 1_555
H24 C20 1_555 1_555
H25 C22 1_555 1_555
H26 C23 1_555 1_555
H27 C24 1_555 1_555
H28 C24 1_555 1_555
Zn1B N1B 1_555 1_555
Zn1E N3 1_555 1_555
N1B C1B 1_555 1_555
N2E Zn1E 1_555 1_555
N2B Zn1B 1_555 1_555
N3E Zn1 1_555 1_555
N3G Zn1B 1_555 1_555
N4B Zn1B 1_555 1_555
C1B C2B 1_555 1_555
C2B C3B 1_555 1_555
C3B C4B 1_555 1_555
C4B C5B 1_555 1_555
C5B N1B 1_555 1_555
C6B C6 1_555 1_555
C7E N2E 1_555 1_555
C8E C7E 1_555 1_555
C9E C8E 1_555 1_555
C10E C9E 1_555 1_555
C11E N2E 1_555 1_555
C12E C9E 1_555 1_555
C13E N3E 1_555 1_555
C14E C13E 1_555 1_555
C15E C14E 1_555 1_555
C16E C15E 1_555 1_555
C17E N3E 1_555 1_555
C18E C12E 1_555 1_555
C19B N4B 1_555 1_555
C20B C19B 1_555 1_555
C21B C20B 1_555 1_555
C22B C21B 1_555 1_555
C23B N4B 1_555 1_555
C24B C24 1_555 1_555
H5B C1B 1_555 1_555
H6B C2B 1_555 1_555
H7B C4B 1_555 1_555
H8B C5B 1_555 1_555
H9B C6B 1_555 1_555
H10B C6B 1_555 1_555
H11E C7E 1_555 1_555
H12E C8E 1_555 1_555
H13E C10E 1_555 1_555
H14E C11E 1_555 1_555
H15E C12E 1_555 1_555
H16E C12E 1_555 1_555
H17E C13E 1_555 1_555
H18E C14E 1_555 1_555
H19E C16E 1_555 1_555
H20E C17E 1_555 1_555
H21E C18E 1_555 1_555
H22E C18E 1_555 1_555
H23B C19B 1_555 1_555
H24B C20B 1_555 1_555
H25B C22B 1_555 1_555
H26B C23B 1_555 1_555
H27B C24B 1_555 1_555
H28B C24B 1_555 1_555
C10 C11 1_555 1_555
C15 C18 1_555 1_555
C22 C23 1_555 1_555
C3B C6B 1_555 1_555
C10E C11E 1_555 1_555
C15E C18E 1_555 1_555
C16E C17E 1_555 1_555
C21B C24B 1_555 1_555
C22B C23B 1_555 1_555

#END
