
#######################################################################
#
#                 Cambridge Crystallographic Data Centre
#                                CCDC 
#
#######################################################################
#
# If this CIF has been generated from an entry in the Cambridge 
# Structural Database, then it will include bibliographic, chemical, 
# crystal, experimental, refinement or atomic coordinate data resulting 
# from the CCDC's data processing and validation procedures.
#
#######################################################################

data_LEMPIC
_symmetry_cell_setting           monoclinic
_symmetry_space_group_name_H-M   'P 21/n'
_symmetry_Int_Tables_number      14
_space_group_name_Hall           '-P 2yn'
loop_
_symmetry_equiv_pos_site_id
_symmetry_equiv_pos_as_xyz
1 x,y,z
2 1/2-x,1/2+y,1/2-z
3 -x,-y,-z
4 1/2+x,1/2-y,1/2+z
_cell_length_a                   7.673(4)
_cell_length_b                   18.547(7)
_cell_length_c                   8.725(7)
_cell_angle_alpha                90
_cell_angle_beta                 101.48(5)
_cell_angle_gamma                90
_cell_volume                     1216.82
loop_
_atom_site_label
_atom_site_type_symbol
_atom_site_fract_x
_atom_site_fract_y
_atom_site_fract_z
Hg1 Hg 0.50000 -0.50000 0.50000
Hg2 Hg 0.36541(7) -0.24131(3) -0.03873(7)
C1 C 0.3451(22) -0.37228(82) 0.2099(19)
H1 H 0.4308(22) -0.34336(82) 0.2761(19)
H2 H 0.4030(22) -0.40225(82) 0.1472(19)
C2 C 0.1643(21) -0.37266(90) 0.4016(19)
H3 H 0.1067(21) -0.40246(90) 0.4648(19)
H4 H 0.2490(21) -0.34288(90) 0.4666(19)
C3 C 0.1264(22) -0.4625(10) 0.2000(22)
H5 H 0.0683(22) -0.4938(10) 0.2600(22)
H6 H 0.1883(22) -0.4903(10) 0.1365(22)
C4 C 0.1197(20) -0.27859(99) 0.2000(18)
H7 H 0.2014(20) -0.24775(99) 0.2652(18)
H8 H 0.0338(20) -0.25031(99) 0.1324(18)
C5 C 0.0831(23) -0.37269(90) 0.0033(20)
H9 H 0.1426(23) -0.40172(90) -0.0599(20)
H10 H -0.0041(23) -0.34400(90) -0.0618(20)
C6 C -0.0984(21) -0.37526(85) 0.1962(20)
H11 H -0.1859(21) -0.34741(85) 0.1293(20)
H12 H -0.1545(21) -0.40576(85) 0.2593(20)
N1 N 0.2169(17) -0.32391(71) 0.1051(15)
N2 N 0.2554(16) -0.41783(69) 0.3070(15)
N3 N 0.0274(16) -0.32549(70) 0.3001(14)
N4 N -0.0042(18) -0.41951(75) 0.1014(17)
S1 S 0.36422(63) -0.47719(26) 0.72783(53)
C7 C 0.4660(25) -0.4063(10) 0.8151(20)
N5 N 0.5296(23) -0.35611(87) 0.8831(21)
Cl1 Cl 0.72800(63) -0.37856(25) 0.54141(56)
Cl2 Cl 0.13102(56) -0.27183(25) -0.29423(49)
C1B C 0.6549(22) -0.62772(82) 0.7901(19)
H1B H 0.5692(22) -0.65664(82) 0.7239(19)
H2B H 0.5970(22) -0.59775(82) 0.8528(19)
C2B C 0.8357(21) -0.62734(90) 0.5984(19)
H3B H 0.8933(21) -0.59754(90) 0.5352(19)
H4B H 0.7510(21) -0.65712(90) 0.5334(19)
C3B C 0.8736(22) -0.5375(10) 0.8000(22)
H5B H 0.9317(22) -0.5062(10) 0.7400(22)
H6B H 0.8117(22) -0.5097(10) 0.8635(22)
C4B C 0.8803(20) -0.72141(99) 0.8000(18)
H7B H 0.7986(20) -0.75225(99) 0.7348(18)
H8B H 0.9662(20) -0.74969(99) 0.8676(18)
C5B C 0.9169(23) -0.62731(90) 0.9967(20)
H9B H 0.8574(23) -0.59828(90) 1.0599(20)
H10B H 1.0041(23) -0.65600(90) 1.0618(20)
C6B C 1.0984(21) -0.62474(85) 0.8038(20)
H11B H 1.1859(21) -0.65259(85) 0.8707(20)
H12B H 1.1545(21) -0.59424(85) 0.7407(20)
N1B N 0.7831(17) -0.67609(71) 0.8949(15)
N2B N 0.7446(16) -0.58217(69) 0.6930(15)
N3B N 0.9726(16) -0.67451(70) 0.6999(14)
N4B N 1.0042(18) -0.58049(75) 0.8986(17)
S1B S 0.63578(63) -0.52281(26) 0.27217(53)
Cl1B Cl 0.27200(63) -0.62144(25) 0.45859(56)
Hg2B Hg 0.63459(7) -0.75869(3) 1.03873(7)
Hg2C Hg -0.13459(7) -0.25869(3) 0.46127(7)
Hg2A Hg 1.13459(7) -0.74131(3) 0.53873(7)
Hg2_2 Hg 0.36541(7) -0.24131(3) 0.96127(7)
N3C N 0.5274(16) -0.17451(70) -0.1999(14)
S1_2 S 0.36422(63) -0.47719(26) -0.27217(53)
C7_2 C 0.4660(25) -0.4063(10) -0.1849(20)
N5_2 N 0.5296(23) -0.35611(87) -0.1169(21)
Cl1C Cl 0.22800(63) -0.12144(25) 0.04141(56)
Cl2C Cl 0.63102(56) -0.22817(25) 0.20577(49)
N3A N 0.4726(16) -0.82549(70) 1.1999(14)
N5B N 0.4704(23) -0.64389(87) 1.1169(21)
Cl1A Cl 0.77200(63) -0.87856(25) 0.95859(56)
Cl2B Cl 0.86898(56) -0.72817(25) 1.29423(49)
Cl2A Cl 0.36898(56) -0.77183(25) 0.79423(49)
Hg1_2 Hg 0.50000 -0.50000 -0.50000
Hg1A Hg 1.00000 -1.00000 1.00000
Hg2C_2 Hg -0.13459(7) -0.25869(3) -0.53873(7)
Hg2C_3 Hg 0.86541(7) -0.25869(3) 0.46127(7)
loop_
_geom_bond_atom_site_label_1
_geom_bond_atom_site_label_2
_geom_bond_site_symmetry_1
_geom_bond_site_symmetry_2
Hg1 N2 1_555 1_555
Hg2 N1 1_555 1_555
C1 H1 1_555 1_555
H2 C1 1_555 1_555
C2 H3 1_555 1_555
H4 C2 1_555 1_555
C3 H5 1_555 1_555
H6 C3 1_555 1_555
C4 H7 1_555 1_555
H8 C4 1_555 1_555
C5 H9 1_555 1_555
H10 C5 1_555 1_555
C6 H11 1_555 1_555
H12 C6 1_555 1_555
N1 C1 1_555 1_555
N2 C1 1_555 1_555
N3 C2 1_555 1_555
N4 C3 1_555 1_555
S1 Hg1 1_555 1_555
C7 S1 1_555 1_555
N5 C7 1_555 1_555
Cl1 Hg1 1_555 1_555
Cl2 Hg2 1_555 1_555
C1B H1B 1_555 1_555
H2B C1B 1_555 1_555
C2B H3B 1_555 1_555
H4B C2B 1_555 1_555
C3B H5B 1_555 1_555
H6B C3B 1_555 1_555
C4B H7B 1_555 1_555
H8B C4B 1_555 1_555
C5B H9B 1_555 1_555
H10B C5B 1_555 1_555
C6B H11B 1_555 1_555
H12B C6B 1_555 1_555
N1B C1B 1_555 1_555
N2B Hg1 1_555 1_555
N3B C2B 1_555 1_555
N4B C3B 1_555 1_555
S1B Hg1 1_555 1_555
Cl1B Hg1 1_555 1_555
Hg2B N1B 1_555 1_555
Hg2C N3 1_555 1_555
Hg2A N3B 1_555 1_555
Hg2_2 N5 1_555 1_555
N3C Hg2 1_555 1_555
S1_2 C7_2 1_555 1_555
C7_2 N5_2 1_555 1_555
N5_2 Hg2 1_555 1_555
Cl1C Hg2 1_555 1_555
Cl2C Hg2 1_555 1_555
N3A Hg2B 1_555 1_555
N5B Hg2B 1_555 1_555
Cl1A Hg2B 1_555 1_555
Cl2B Hg2B 1_555 1_555
Cl2A Hg2B 1_555 1_555
Hg1_2 S1_2 1_555 1_555
Hg1A Cl1A 1_555 1_555
Hg2C_2 Cl2 1_555 1_555
Hg2C_3 Cl1 1_555 1_555
C2 N2 1_555 1_555
C3 N2 1_555 1_555
C4 N1 1_555 1_555
C4 N3 1_555 1_555
C5 N4 1_555 1_555
C5 N1 1_555 1_555
C6 N4 1_555 1_555
C6 N3 1_555 1_555
C1B N2B 1_555 1_555
C2B N2B 1_555 1_555
C3B N2B 1_555 1_555
C4B N1B 1_555 1_555
C4B N3B 1_555 1_555
C5B N4B 1_555 1_555
C5B N1B 1_555 1_555
C6B N4B 1_555 1_555
C6B N3B 1_555 1_555
Cl2C Hg2C_3 1_555 1_555

#END
