
#######################################################################
#
#                 Cambridge Crystallographic Data Centre
#                                CCDC 
#
#######################################################################
#
# If this CIF has been generated from an entry in the Cambridge 
# Structural Database, then it will include bibliographic, chemical, 
# crystal, experimental, refinement or atomic coordinate data resulting 
# from the CCDC's data processing and validation procedures.
#
#######################################################################

data_LEMPUO
_symmetry_cell_setting           monoclinic
_symmetry_space_group_name_H-M   'C 2/c'
_symmetry_Int_Tables_number      15
_space_group_name_Hall           '-C 2yn'
loop_
_symmetry_equiv_pos_site_id
_symmetry_equiv_pos_as_xyz
1 x,y,z
2 1/2+x,1/2+y,z
3 -x,y,1/2-z
4 1/2-x,1/2+y,1/2-z
5 -x,-y,-z
6 1/2-x,1/2-y,-z
7 x,-y,1/2+z
8 1/2+x,1/2-y,1/2+z
_cell_length_a                   9.844(3)
_cell_length_b                   12.170(5)
_cell_length_c                   12.574(6)
_cell_angle_alpha                90
_cell_angle_beta                 111.69(5)
_cell_angle_gamma                90
_cell_volume                     1399.73
loop_
_atom_site_label
_atom_site_type_symbol
_atom_site_fract_x
_atom_site_fract_y
_atom_site_fract_z
Zn1 Zn 0.50000 0.00000 0.50000
S1 S 0.01138(11) 0.12231(9) 0.41329(11)
O1 O 0.5940(3) 0.1264(2) 0.6237(2)
N1 N 0.2988(3) 0.0495(3) 0.4877(3)
N2 N 0.3664(3) -0.2612(2) 0.7066(2)
N3 N 0.5077(3) -0.1180(2) 0.6544(2)
C1 C 0.1796(3) 0.0811(3) 0.4573(3)
C2 C 0.50000 -0.0502(3) 0.75000
C3 C 0.3770(3) -0.1904(3) 0.6150(3)
C4 C 0.3610(3) -0.1904(3) 0.8003(2)
C5 C 0.50000 -0.3304(4) 0.75000
H1 H 0.401(4) -0.002(4) 0.723(3)
H2 H 0.495(5) -0.379(4) 0.814(3)
H3 H 0.531(7) 0.170(6) 0.597(6)
H4 H 0.701(9) 0.143(7) 0.648(7)
H5 H 0.374(4) -0.243(4) 0.553(4)
H6 H 0.282(5) -0.139(4) 0.580(4)
H7 H 0.356(4) -0.238(3) 0.860(3)
H8 H 0.268(4) -0.142(3) 0.771(3)
N3B N 0.4923(3) -0.1180(2) 0.8456(2)
C3B C 0.6230(3) -0.1904(3) 0.8850(3)
N2B N 0.6336(3) -0.2612(2) 0.7934(2)
C4B C 0.6390(3) -0.1904(3) 0.6997(2)
H7B H 0.644(4) -0.238(3) 0.640(3)
H8B H 0.732(4) -0.142(3) 0.729(3)
H2B H 0.505(5) -0.379(4) 0.686(3)
H5B H 0.626(4) -0.243(4) 0.947(4)
H6B H 0.718(5) -0.139(4) 0.920(4)
H1B H 0.599(4) -0.002(4) 0.777(3)
O1D O 0.4060(3) -0.1264(2) 0.3763(2)
H3D H 0.469(7) -0.170(6) 0.403(6)
H4D H 0.299(9) -0.143(7) 0.352(7)
S1D S 0.98862(11) -0.12231(9) 0.58671(11)
N1D N 0.7012(3) -0.0495(3) 0.5123(3)
C1D C 0.8204(3) -0.0811(3) 0.5427(3)
N3D N 0.4923(3) 0.1180(2) 0.3456(2)
Zn1B Zn 0.50000 0.00000 1.00000
loop_
_geom_bond_atom_site_label_1
_geom_bond_atom_site_label_2
_geom_bond_site_symmetry_1
_geom_bond_site_symmetry_2
Zn1 O1 1_555 1_555
S1 C1 1_555 1_555
O1 H3 1_555 1_555
N1 Zn1 1_555 1_555
N2 C3 1_555 1_555
N3 Zn1 1_555 1_555
C1 N1 1_555 1_555
C2 N3 1_555 1_555
C3 N3 1_555 1_555
C4 N2 1_555 1_555
C5 N2 1_555 1_555
H1 C2 1_555 1_555
H2 C5 1_555 1_555
H4 O1 1_555 1_555
H5 C3 1_555 1_555
H6 C3 1_555 1_555
H7 C4 1_555 1_555
H8 C4 1_555 1_555
N3B C2 1_555 1_555
C3B N3B 1_555 1_555
N2B C5 1_555 1_555
C4B N3 1_555 1_555
H7B C4B 1_555 1_555
H8B C4B 1_555 1_555
H2B C5 1_555 1_555
H5B C3B 1_555 1_555
H6B C3B 1_555 1_555
H1B C2 1_555 1_555
O1D Zn1 1_555 1_555
H3D O1D 1_555 1_555
H4D O1D 1_555 1_555
S1D C1D 1_555 1_555
N1D Zn1 1_555 1_555
C1D N1D 1_555 1_555
N3D Zn1 1_555 1_555
Zn1B N3B 1_555 1_555
C4 N3B 1_555 1_555
C3B N2B 1_555 1_555
N2B C4B 1_555 1_555

#END
