
#######################################################################
#
#                 Cambridge Crystallographic Data Centre
#                                CCDC 
#
#######################################################################
#
# If this CIF has been generated from an entry in the Cambridge 
# Structural Database, then it will include bibliographic, chemical, 
# crystal, experimental, refinement or atomic coordinate data resulting 
# from the CCDC's data processing and validation procedures.
#
#######################################################################

data_LENDIS
_symmetry_cell_setting           triclinic
_symmetry_space_group_name_H-M   'P -1'
_symmetry_Int_Tables_number      2
_space_group_name_Hall           '-P 1'
loop_
_symmetry_equiv_pos_site_id
_symmetry_equiv_pos_as_xyz
1 x,y,z
2 -x,-y,-z
_cell_length_a                   5.2405(10)
_cell_length_b                   5.7340(11)
_cell_length_c                   7.1778(14)
_cell_angle_alpha                76.44(3)
_cell_angle_beta                 69.37(3)
_cell_angle_gamma                75.37(3)
_cell_volume                     192.774
loop_
_atom_site_label
_atom_site_type_symbol
_atom_site_fract_x
_atom_site_fract_y
_atom_site_fract_z
V1 V 0.06296(11) 0.69992(9) 0.31387(8)
O1 O 0.1714(6) 0.6715(4) 0.0154(4)
O2 O 0.2824(6) 0.9776(5) 0.2409(4)
H1 H 0.1849 1.1081 0.2709
H2 H 0.4175 0.9477 0.2810
O3 O 0.5046(5) 0.5215(4) -0.2456(4)
O4 O 0.0574(5) 0.6263(5) 0.6006(4)
H3 H 0.1980 0.6156 0.6301
O5 O -0.2289(6) 0.8802(5) 0.3300(4)
C1 C 0.4046(7) 0.5554(6) -0.0661(5)
V1A V 0.93704(11) 0.30008(9) -0.31387(8)
V1A_2 V -0.06296(11) 0.30008(9) 0.68613(8)
O1A O 0.8286(6) 0.3285(4) -0.0154(4)
O2A O 0.7176(6) 0.0224(5) -0.2409(4)
H1A H 0.8151 -0.1081 -0.2709
H2A H 0.5825 0.0523 -0.2810
O3A O 0.4954(5) 0.4785(4) 0.2456(4)
O4A O -0.0574(5) 0.3737(5) 0.3994(4)
O4_2 O 1.0574(5) 0.6263(5) -0.3994(4)
O4A_2 O 0.9426(5) 0.3737(5) -0.6006(4)
H3A H -0.1980 0.3844 0.3699
H3_2 H 1.1980 0.6156 -0.3699
H3A_2 H 0.8020 0.3844 -0.6301
O5A O 1.2289(6) 0.1198(5) -0.3300(4)
C1A C 0.5954(7) 0.4446(6) 0.0661(5)
loop_
_geom_bond_atom_site_label_1
_geom_bond_atom_site_label_2
_geom_bond_site_symmetry_1
_geom_bond_site_symmetry_2
V1 O1 1_555 1_555
O1 C1 1_555 1_555
O2 V1 1_555 1_555
H1 O2 1_555 1_555
H2 O2 1_555 1_555
O3 C1 1_555 1_555
O4 V1 1_555 1_555
H3 O4 1_555 1_555
O5 V1 1_555 1_555
C1 C1A 1_555 1_555
V1A O3 1_555 1_555
V1A_2 O4 1_555 1_555
O1A V1A 1_555 1_555
O2A V1A 1_555 1_555
H1A O2A 1_555 1_555
H2A O2A 1_555 1_555
O3A V1 1_555 1_555
O4A V1 1_555 1_555
O4_2 V1A 1_555 1_555
O4A_2 V1A 1_555 1_555
H3A O4A 1_555 1_555
H3_2 O4_2 1_555 1_555
H3A_2 O4A_2 1_555 1_555
O5A V1A 1_555 1_555
C1A O1A 1_555 1_555
V1A_2 O4A 1_555 1_555
O3A C1A 1_555 1_555

#END
