
#######################################################################
#
#                 Cambridge Crystallographic Data Centre
#                                CCDC 
#
#######################################################################
#
# If this CIF has been generated from an entry in the Cambridge 
# Structural Database, then it will include bibliographic, chemical, 
# crystal, experimental, refinement or atomic coordinate data resulting 
# from the CCDC's data processing and validation procedures.
#
#######################################################################

data_LENHUI
_symmetry_cell_setting           monoclinic
_symmetry_space_group_name_H-M   'P 21/n'
_symmetry_Int_Tables_number      14
_space_group_name_Hall           '-P 2yn'
loop_
_symmetry_equiv_pos_site_id
_symmetry_equiv_pos_as_xyz
1 x,y,z
2 1/2-x,1/2+y,1/2-z
3 -x,-y,-z
4 1/2+x,1/2-y,1/2+z
_cell_length_a                   17.2605(8)
_cell_length_b                   8.1387(7)
_cell_length_c                   19.1467(12)
_cell_angle_alpha                90
_cell_angle_beta                 115.396(3)
_cell_angle_gamma                90
_cell_volume                     2429.77
loop_
_atom_site_label
_atom_site_type_symbol
_atom_site_fract_x
_atom_site_fract_y
_atom_site_fract_z
Cu1 Cu 0.0000 0.0000 0.5000
Cu2 Cu 0.0000 0.0000 0.0000
C1 C 0.12896(14) 0.2354(3) 0.51531(13)
C2 C 0.10604(15) 0.3425(3) 0.55969(14)
C3 C 0.20953(15) 0.2736(3) 0.50347(15)
C4 C 0.03280(14) 0.3155(3) 0.57133(12)
C5 C 0.01655(15) 0.4382(3) 0.62495(14)
C6 C -0.17428(14) 0.1534(3) 0.38016(14)
C7 C -0.23894(15) 0.2388(3) 0.32153(15)
C8 C -0.23613(16) 0.2498(3) 0.25064(15)
C9 C -0.17046(15) 0.1743(3) 0.23982(14)
C10 C -0.10836(14) 0.0911(3) 0.30195(13)
C11 C -0.01725(14) 0.1900(3) 0.16381(14)
C12 C 0.00631(16) 0.3190(3) 0.21582(15)
C13 C 0.01359(18) 0.4735(3) 0.18871(16)
C14 C -0.00328(18) 0.4926(3) 0.11186(17)
C15 C -0.02362(16) 0.3556(3) 0.06516(15)
C16 C 0.15823(14) -0.0788(3) 0.12813(13)
C17 C 0.20260(15) 0.0508(3) 0.11497(14)
C18 C 0.16291(14) 0.1555(3) 0.05239(14)
C19 C 0.20546(16) -0.1895(3) 0.19892(15)
C20 C 0.21445(15) 0.2977(3) 0.04052(15)
N1 N -0.10896(12) 0.0806(2) 0.37160(11)
N2 N -0.02968(12) 0.2033(2) 0.09021(11)
O1 O 0.09341(10) 0.10336(18) 0.48384(9)
O2 O -0.02064(9) 0.20178(18) 0.54633(9)
O3 O 0.08104(10) -0.11917(19) 0.08953(9)
O4 O 0.08638(10) 0.15400(19) 0.00183(9)
S1 S -0.01565(4) -0.00387(6) 0.29977(3)
S2 S -0.04057(4) -0.01291(6) 0.18577(3)
F1 F 0.23775(10) 0.42737(18) 0.52406(10)
F2 F 0.19593(10) 0.2521(2) 0.43058(9)
F3 F 0.27327(9) 0.17320(19) 0.54766(10)
F4 F 0.06982(10) 0.40751(17) 0.69874(8)
F5 F -0.06290(9) 0.43140(19) 0.61808(10)
F6 F 0.03150(9) 0.59336(16) 0.61102(8)
F7 F 0.17613(12) -0.1633(3) 0.25141(11)
F8 F 0.19312(12) -0.34577(19) 0.17897(11)
F9 F 0.28926(10) -0.1639(2) 0.23303(10)
F10 F 0.29848(9) 0.2850(2) 0.08394(10)
F11 F 0.20233(10) 0.3054(2) -0.03295(9)
F12 F 0.18879(10) 0.43949(17) 0.05787(10)
H1 H 0.1388(19) 0.438(4) 0.5828(17)
H2 H -0.1707(17) 0.143(3) 0.4298(17)
H3 H -0.2828(19) 0.285(4) 0.3287(17)
H4 H -0.2817(19) 0.306(4) 0.2070(18)
H5 H -0.1664(18) 0.179(3) 0.1952(18)
H6 H 0.0181(17) 0.306(3) 0.2693(17)
H7 H 0.0284(18) 0.569(4) 0.2239(17)
H8 H 0.0023(18) 0.597(4) 0.0902(17)
H9 H -0.0349(19) 0.366(4) 0.0130(19)
H10 H 0.2610(19) 0.072(4) 0.1479(18)
Cu2_2 Cu 0.0000 0.0000 1.0000
C1B C -0.12896(14) -0.2354(3) 0.48469(13)
C2B C -0.10604(15) -0.3425(3) 0.44031(14)
C3B C -0.20953(15) -0.2736(3) 0.49653(15)
C4B C -0.03280(14) -0.3155(3) 0.42867(12)
C5B C -0.01655(15) -0.4382(3) 0.37505(14)
C6B C 0.17428(14) -0.1534(3) 0.61984(14)
C7B C 0.23894(15) -0.2388(3) 0.67847(15)
C8B C 0.23613(16) -0.2498(3) 0.74936(15)
C9B C 0.17046(15) -0.1743(3) 0.76018(14)
C10B C 0.10836(14) -0.0911(3) 0.69805(13)
C11B C 0.01725(14) -0.1900(3) 0.83619(14)
C12B C -0.00631(16) -0.3190(3) 0.78418(15)
C13B C -0.01359(18) -0.4735(3) 0.81129(16)
C14B C 0.00328(18) -0.4926(3) 0.88814(17)
C15B C 0.02362(16) -0.3556(3) 0.93484(15)
C16B C -0.15823(14) 0.0788(3) -0.12813(13)
C17B C -0.20260(15) -0.0508(3) -0.11497(14)
C18B C -0.16291(14) -0.1555(3) -0.05239(14)
C19B C -0.20546(16) 0.1895(3) -0.19892(15)
C20B C -0.21445(15) -0.2977(3) -0.04052(15)
N1B N 0.10896(12) -0.0806(2) 0.62840(11)
N2B N 0.02968(12) -0.2033(2) 0.90979(11)
N2B_2 N 0.02968(12) -0.2033(2) -0.09021(11)
O1B O -0.09341(10) -0.10336(18) 0.51616(9)
O2B O 0.02064(9) -0.20178(18) 0.45367(9)
O3B O -0.08104(10) 0.11917(19) -0.08953(9)
O4B O -0.08638(10) -0.15400(19) -0.00183(9)
S1B S 0.01565(4) 0.00387(6) 0.70023(3)
S2B S 0.04057(4) 0.01291(6) 0.81423(3)
F1B F -0.23775(10) -0.42737(18) 0.47594(10)
F2B F -0.19593(10) -0.2521(2) 0.56942(9)
F3B F -0.27327(9) -0.17320(19) 0.45234(10)
F4B F -0.06982(10) -0.40751(17) 0.30126(8)
F5B F 0.06290(9) -0.43140(19) 0.38192(10)
F6B F -0.03150(9) -0.59336(16) 0.38898(8)
F7B F -0.17613(12) 0.1633(3) -0.25141(11)
F8B F -0.19312(12) 0.34577(19) -0.17897(11)
F9B F -0.28926(10) 0.1639(2) -0.23303(10)
F10B F -0.29848(9) -0.2850(2) -0.08394(10)
F11B F -0.20233(10) -0.3054(2) 0.03295(9)
F12B F -0.18879(10) -0.43949(17) -0.05787(10)
H1B H -0.1388(19) -0.438(4) 0.4172(17)
H2B H 0.1707(17) -0.143(3) 0.5702(17)
H3B H 0.2828(19) -0.285(4) 0.6713(17)
H4B H 0.2817(19) -0.306(4) 0.7930(18)
H5B H 0.1664(18) -0.179(3) 0.8048(18)
H6B H -0.0181(17) -0.306(3) 0.7307(17)
H7B H -0.0284(18) -0.569(4) 0.7761(17)
H8B H -0.0023(18) -0.597(4) 0.9098(17)
H9B H 0.0349(19) -0.366(4) 0.9870(19)
H10B H -0.2610(19) -0.072(4) -0.1479(18)
loop_
_geom_bond_atom_site_label_1
_geom_bond_atom_site_label_2
_geom_bond_site_symmetry_1
_geom_bond_site_symmetry_2
Cu1 N1 1_555 1_555
Cu2 N2 1_555 1_555
C1 C2 1_555 1_555
C2 C4 1_555 1_555
C3 C1 1_555 1_555
C4 C5 1_555 1_555
C5 F4 1_555 1_555
C6 C7 1_555 1_555
C7 C8 1_555 1_555
C8 C9 1_555 1_555
C9 C10 1_555 1_555
C10 N1 1_555 1_555
C11 C12 1_555 1_555
C12 C13 1_555 1_555
C13 C14 1_555 1_555
C14 C15 1_555 1_555
C15 N2 1_555 1_555
C16 C17 1_555 1_555
C17 C18 1_555 1_555
C18 C20 1_555 1_555
C19 C16 1_555 1_555
C20 F10 1_555 1_555
N1 C6 1_555 1_555
N2 C11 1_555 1_555
O1 Cu1 1_555 1_555
O2 Cu1 1_555 1_555
O3 Cu2 1_555 1_555
O4 Cu2 1_555 1_555
S1 C10 1_555 1_555
S2 C11 1_555 1_555
F1 C3 1_555 1_555
F2 C3 1_555 1_555
F3 C3 1_555 1_555
F5 C5 1_555 1_555
F6 C5 1_555 1_555
F7 C19 1_555 1_555
F8 C19 1_555 1_555
F9 C19 1_555 1_555
F11 C20 1_555 1_555
F12 C20 1_555 1_555
H1 C2 1_555 1_555
H2 C6 1_555 1_555
H3 C7 1_555 1_555
H4 C8 1_555 1_555
H5 C9 1_555 1_555
H6 C12 1_555 1_555
H7 C13 1_555 1_555
H8 C14 1_555 1_555
H9 C15 1_555 1_555
H10 C17 1_555 1_555
Cu2_2 N2B 1_555 1_555
C1B C2B 1_555 1_555
C2B C4B 1_555 1_555
C3B C1B 1_555 1_555
C4B C5B 1_555 1_555
C5B F4B 1_555 1_555
C6B C7B 1_555 1_555
C7B C8B 1_555 1_555
C8B C9B 1_555 1_555
C9B C10B 1_555 1_555
C10B N1B 1_555 1_555
C11B C12B 1_555 1_555
C12B C13B 1_555 1_555
C13B C14B 1_555 1_555
C14B C15B 1_555 1_555
C15B N2B 1_555 1_555
C16B C17B 1_555 1_555
C17B C18B 1_555 1_555
C18B C20B 1_555 1_555
C19B C16B 1_555 1_555
C20B F10B 1_555 1_555
N1B Cu1 1_555 1_555
N2B C11B 1_555 1_555
N2B_2 Cu2 1_555 1_555
O1B Cu1 1_555 1_555
O2B Cu1 1_555 1_555
O3B Cu2 1_555 1_555
O4B Cu2 1_555 1_555
S1B C10B 1_555 1_555
S2B C11B 1_555 1_555
F1B C3B 1_555 1_555
F2B C3B 1_555 1_555
F3B C3B 1_555 1_555
F5B C5B 1_555 1_555
F6B C5B 1_555 1_555
F7B C19B 1_555 1_555
F8B C19B 1_555 1_555
F9B C19B 1_555 1_555
F11B C20B 1_555 1_555
F12B C20B 1_555 1_555
H1B C2B 1_555 1_555
H2B C6B 1_555 1_555
H3B C7B 1_555 1_555
H4B C8B 1_555 1_555
H5B C9B 1_555 1_555
H6B C12B 1_555 1_555
H7B C13B 1_555 1_555
H8B C14B 1_555 1_555
H9B C15B 1_555 1_555
H10B C17B 1_555 1_555
C1 O1 1_555 1_555
C4 O2 1_555 1_555
C16 O3 1_555 1_555
C18 O4 1_555 1_555
S1 S2 1_555 1_555
C1B O1B 1_555 1_555
C4B O2B 1_555 1_555
C6B N1B 1_555 1_555
C16B O3B 1_555 1_555
C18B O4B 1_555 1_555
S1B S2B 1_555 1_555

#END
