
#######################################################################
#
#                 Cambridge Crystallographic Data Centre
#                                CCDC 
#
#######################################################################
#
# If this CIF has been generated from an entry in the Cambridge 
# Structural Database, then it will include bibliographic, chemical, 
# crystal, experimental, refinement or atomic coordinate data resulting 
# from the CCDC's data processing and validation procedures.
#
#######################################################################

data_LENHOC
_symmetry_cell_setting           monoclinic
_symmetry_space_group_name_H-M   'P 21/n'
_symmetry_Int_Tables_number      14
_space_group_name_Hall           '-P 2yn'
loop_
_symmetry_equiv_pos_site_id
_symmetry_equiv_pos_as_xyz
1 x,y,z
2 1/2-x,1/2+y,1/2-z
3 -x,-y,-z
4 1/2+x,1/2-y,1/2+z
_cell_length_a                   13.07980(10)
_cell_length_b                   15.60500(10)
_cell_length_c                   13.32450(10)
_cell_angle_alpha                90
_cell_angle_beta                 107.4650(10)
_cell_angle_gamma                90
_cell_volume                     2594.29
loop_
_atom_site_label
_atom_site_type_symbol
_atom_site_fract_x
_atom_site_fract_y
_atom_site_fract_z
Cu1 Cu 0.78778(2) 0.168813(17) 0.61785(2)
C1 C 0.61487(16) 0.16175(12) 0.73580(15)
C2 C 0.69823(16) 0.15457(13) 0.83173(16)
C3 C 0.80083(16) 0.18104(12) 0.84027(15)
C4 C 0.82547(18) 0.33346(13) 0.53015(15)
C5 C 0.92746(19) 0.31728(15) 0.52507(17)
C6 C 0.98714(17) 0.24522(14) 0.57282(16)
C7 C 0.49995(17) 0.15006(14) 0.74164(16)
C8 C 0.88148(17) 0.18676(14) 0.95050(16)
C9 C 0.7699(2) 0.41586(15) 0.47732(19)
C10 C 1.1024(2) 0.23749(17) 0.5666(2)
C11 C 0.91907(16) 0.03327(13) 0.73714(15)
C12 C 0.95009(17) -0.04136(14) 0.79391(17)
C13 C 0.87588(18) -0.10579(13) 0.78585(17)
C14 C 0.77342(18) -0.09450(13) 0.71791(16)
C15 C 0.74746(15) -0.01840(12) 0.66198(14)
C16 C 0.64153(16) -0.00725(12) 0.59103(15)
C17 C 0.55133(16) -0.00343(12) 0.53329(15)
C18 C 0.62128(16) 0.17231(13) 0.41941(16)
C19 C 0.55823(17) 0.15206(14) 0.31871(17)
C20 C 0.59495(19) 0.09194(15) 0.26212(17)
C21 C 0.69462(18) 0.05543(15) 0.30615(17)
C22 C 0.75525(16) 0.07993(13) 0.40715(15)
C23 C 0.86031(17) 0.04527(13) 0.45175(16)
C24 C 0.94905(17) 0.01595(13) 0.48142(16)
N1 N 0.81911(12) 0.04626(10) 0.67253(12)
N2 N 0.71792(13) 0.13693(10) 0.46443(12)
O1 O 0.62280(11) 0.18126(8) 0.64863(10)
O2 O 0.84025(10) 0.20638(8) 0.76926(10)
O3 O 0.76793(12) 0.29104(9) 0.57288(11)
O4 O 0.95828(11) 0.18606(9) 0.61924(11)
F1 F 0.43467(10) 0.11722(9) 0.65378(9)
F2 F 0.49534(11) 0.09792(10) 0.82027(10)
F3 F 0.45935(11) 0.22533(10) 0.75791(14)
F4 F 0.84763(10) 0.15054(10) 1.02558(9)
F5 F 0.90301(11) 0.26902(9) 0.97672(10)
F6 F 0.97473(10) 0.15003(10) 0.95415(10)
F7 F 0.7268(2) 0.45878(11) 0.53783(17)
F8 F 0.69010(18) 0.39723(13) 0.39196(18)
F9 F 0.83230(16) 0.46831(11) 0.44540(17)
F10 F 1.14857(12) 0.31428(11) 0.56605(13)
F11 F 1.10391(14) 0.19792(11) 0.47831(14)
F12 F 1.16424(12) 0.19337(15) 0.64632(16)
H1 H 0.6824(19) 0.1360(16) 0.8917(19)
H2 H 0.957(2) 0.3564(19) 0.492(2)
H3 H 0.9655(19) 0.0780(15) 0.7428(17)
H4 H 1.020(2) -0.0454(16) 0.8382(19)
H5 H 0.891(2) -0.1563(17) 0.822(2)
H6 H 0.721(2) -0.1366(18) 0.708(2)
H7 H 0.5998(19) 0.2120(16) 0.4623(18)
H8 H 0.490(2) 0.1795(15) 0.2911(19)
H9 H 0.555(2) 0.0757(18) 0.195(2)
H10 H 0.722(2) 0.0152(17) 0.269(2)
Cu1B Cu 0.21222(2) -0.168813(17) 0.38215(2)
Cu1B_2 Cu 1.21222(2) -0.168813(17) 0.38215(2)
C1B C 0.38513(16) -0.16175(12) 0.26420(15)
C2B C 0.30177(16) -0.15457(13) 0.16827(16)
C3B C 0.19917(16) -0.18104(12) 0.15973(15)
C4B C 0.17453(18) -0.33346(13) 0.46985(15)
C5B C 0.07254(19) -0.31728(15) 0.47493(17)
C6B C 0.01286(17) -0.24522(14) 0.42718(16)
C7B C 0.50005(17) -0.15006(14) 0.25836(16)
C8B C 0.11852(17) -0.18676(14) 0.04950(16)
C9B C 0.2301(2) -0.41586(15) 0.52268(19)
C10B C -0.1024(2) -0.23749(17) 0.4334(2)
C11B C 0.08093(16) -0.03327(13) 0.26286(15)
C12B C 0.04991(17) 0.04136(14) 0.20609(17)
C13B C 0.12412(18) 0.10579(13) 0.21415(17)
C14B C 0.22658(18) 0.09450(13) 0.28209(16)
C15B C 0.25254(15) 0.01840(12) 0.33802(14)
C16B C 0.35847(16) 0.00725(12) 0.40897(15)
C17B C 0.44867(16) 0.00343(12) 0.46671(15)
C18B C 1.37872(16) -0.17231(13) 0.58059(16)
C19B C 1.44177(17) -0.15206(14) 0.68129(17)
C20B C 1.40505(19) -0.09194(15) 0.73788(17)
C21B C 1.30538(18) -0.05543(15) 0.69385(17)
C22B C 1.24475(16) -0.07993(13) 0.59285(15)
C23B C 1.13969(17) -0.04527(13) 0.54825(16)
C24B C 1.05095(17) -0.01595(13) 0.51858(16)
N1B N 0.18089(12) -0.04626(10) 0.32747(12)
N2B N 1.28208(13) -0.13693(10) 0.53557(12)
N2B_2 N 0.28208(13) -0.13693(10) 0.53557(12)
O1B O 0.37720(11) -0.18126(8) 0.35137(10)
O2B O 0.15975(10) -0.20638(8) 0.23074(10)
O3B O 0.23207(12) -0.29104(9) 0.42712(11)
O4B O 0.04172(11) -0.18606(9) 0.38076(11)
F1B F 0.56533(10) -0.11722(9) 0.34622(9)
F2B F 0.50466(11) -0.09792(10) 0.17973(10)
F3B F 0.54065(11) -0.22533(10) 0.24209(14)
F4B F 0.15237(10) -0.15054(10) -0.02558(9)
F5B F 0.09699(11) -0.26902(9) 0.02328(10)
F6B F 0.02527(10) -0.15003(10) 0.04585(10)
F7B F 0.2732(2) -0.45878(11) 0.46217(17)
F8B F 0.30990(18) -0.39723(13) 0.60804(18)
F9B F 0.16770(16) -0.46831(11) 0.55460(17)
F10B F -0.14857(12) -0.31428(11) 0.43395(13)
F11B F -0.10391(14) -0.19792(11) 0.52169(14)
F12B F -0.16424(12) -0.19337(15) 0.35368(16)
H1B H 0.3176(19) -0.1360(16) 0.1083(19)
H2B H 0.043(2) -0.3564(19) 0.508(2)
H3B H 0.0345(19) -0.0780(15) 0.2572(17)
H4B H -0.020(2) 0.0454(16) 0.1618(19)
H5B H 0.109(2) 0.1563(17) 0.178(2)
H6B H 0.279(2) 0.1366(18) 0.292(2)
H7B H 1.4002(19) -0.2120(16) 0.5377(18)
H8B H 1.510(2) -0.1795(15) 0.7089(19)
H9B H 1.445(2) -0.0757(18) 0.805(2)
H10B H 1.278(2) -0.0152(17) 0.731(2)
loop_
_geom_bond_atom_site_label_1
_geom_bond_atom_site_label_2
_geom_bond_site_symmetry_1
_geom_bond_site_symmetry_2
Cu1 N1 1_555 1_555
C1 C2 1_555 1_555
C2 C3 1_555 1_555
C3 C8 1_555 1_555
C4 C5 1_555 1_555
C5 C6 1_555 1_555
C6 C10 1_555 1_555
C7 C1 1_555 1_555
C8 F4 1_555 1_555
C9 C4 1_555 1_555
C10 F10 1_555 1_555
C11 C12 1_555 1_555
C12 C13 1_555 1_555
C13 C14 1_555 1_555
C14 C15 1_555 1_555
C15 C16 1_555 1_555
C16 C17 1_555 1_555
C17 C17B 1_555 1_555
C18 C19 1_555 1_555
C19 C20 1_555 1_555
C20 C21 1_555 1_555
C21 C22 1_555 1_555
C22 C23 1_555 1_555
C23 C24 1_555 1_555
C24 C24B 1_555 1_555
N1 C11 1_555 1_555
N2 Cu1 1_555 1_555
O1 Cu1 1_555 1_555
O2 Cu1 1_555 1_555
O3 Cu1 1_555 1_555
O4 Cu1 1_555 1_555
F1 C7 1_555 1_555
F2 C7 1_555 1_555
F3 C7 1_555 1_555
F5 C8 1_555 1_555
F6 C8 1_555 1_555
F7 C9 1_555 1_555
F8 C9 1_555 1_555
F9 C9 1_555 1_555
F11 C10 1_555 1_555
F12 C10 1_555 1_555
H1 C2 1_555 1_555
H2 C5 1_555 1_555
H3 C11 1_555 1_555
H4 C12 1_555 1_555
H5 C13 1_555 1_555
H6 C14 1_555 1_555
H7 C18 1_555 1_555
H8 C19 1_555 1_555
H9 C20 1_555 1_555
H10 C21 1_555 1_555
Cu1B N1B 1_555 1_555
Cu1B_2 N2B 1_555 1_555
C1B C2B 1_555 1_555
C2B C3B 1_555 1_555
C3B C8B 1_555 1_555
C4B C5B 1_555 1_555
C5B C6B 1_555 1_555
C6B C10B 1_555 1_555
C7B C1B 1_555 1_555
C8B F4B 1_555 1_555
C9B C4B 1_555 1_555
C10B F10B 1_555 1_555
C11B C12B 1_555 1_555
C12B C13B 1_555 1_555
C13B C14B 1_555 1_555
C14B C15B 1_555 1_555
C15B C16B 1_555 1_555
C16B C17B 1_555 1_555
C18B C19B 1_555 1_555
C19B C20B 1_555 1_555
C20B C21B 1_555 1_555
C21B C22B 1_555 1_555
C22B C23B 1_555 1_555
C23B C24B 1_555 1_555
N1B C11B 1_555 1_555
N2B C18B 1_555 1_555
N2B_2 Cu1B 1_555 1_555
O1B Cu1B 1_555 1_555
O2B Cu1B 1_555 1_555
O3B Cu1B 1_555 1_555
O4B Cu1B 1_555 1_555
F1B C7B 1_555 1_555
F2B C7B 1_555 1_555
F3B C7B 1_555 1_555
F5B C8B 1_555 1_555
F6B C8B 1_555 1_555
F7B C9B 1_555 1_555
F8B C9B 1_555 1_555
F9B C9B 1_555 1_555
F11B C10B 1_555 1_555
F12B C10B 1_555 1_555
H1B C2B 1_555 1_555
H2B C5B 1_555 1_555
H3B C11B 1_555 1_555
H4B C12B 1_555 1_555
H5B C13B 1_555 1_555
H6B C14B 1_555 1_555
H7B C18B 1_555 1_555
H8B C19B 1_555 1_555
H9B C20B 1_555 1_555
H10B C21B 1_555 1_555
C1 O1 1_555 1_555
C3 O2 1_555 1_555
C4 O3 1_555 1_555
C6 O4 1_555 1_555
C15 N1 1_555 1_555
C18 N2 1_555 1_555
C22 N2 1_555 1_555
C1B O1B 1_555 1_555
C3B O2B 1_555 1_555
C4B O3B 1_555 1_555
C6B O4B 1_555 1_555
C15B N1B 1_555 1_555
C22B N2B 1_555 1_555

#END
