
#######################################################################
#
#                 Cambridge Crystallographic Data Centre
#                                CCDC 
#
#######################################################################
#
# If this CIF has been generated from an entry in the Cambridge 
# Structural Database, then it will include bibliographic, chemical, 
# crystal, experimental, refinement or atomic coordinate data resulting 
# from the CCDC's data processing and validation procedures.
#
#######################################################################

data_LENKUL
_symmetry_cell_setting           triclinic
_symmetry_space_group_name_H-M   'P -1'
_symmetry_Int_Tables_number      2
_space_group_name_Hall           '-P 1'
loop_
_symmetry_equiv_pos_site_id
_symmetry_equiv_pos_as_xyz
1 x,y,z
2 -x,-y,-z
_cell_length_a                   7.932(5)
_cell_length_b                   8.803(5)
_cell_length_c                   10.509(5)
_cell_angle_alpha                110.500(5)
_cell_angle_beta                 95.531(5)
_cell_angle_gamma                103.439(5)
_cell_volume                     655.653
loop_
_atom_site_label
_atom_site_type_symbol
_atom_site_fract_x
_atom_site_fract_y
_atom_site_fract_z
O1 O 0.68431(16) 0.59638(15) 0.50985(12)
O2 O 1.37375(17) 0.68194(15) 0.40535(12)
O3 O 0.82870(16) 0.77681(16) 0.71766(12)
O4 O 1.43931(16) 0.78845(15) 0.63831(12)
O5 O 0.76092(17) 0.39701(16) 0.20186(14)
H1 H 0.7891 0.3149 0.1684
H2 H 0.8291 0.4676 0.1901
O6 O 0.61657(17) 0.66570(16) 0.21681(14)
H3 H 0.5405 0.6784 0.1630
H4 H 0.7056 0.6945 0.2041
O7 O 0.23648(18) 0.46833(16) 0.13784(13)
H5 H 0.1828 0.4173 0.0593
H6 H 0.1990 0.5492 0.1675
O8 O 0.39806(17) 0.18317(16) 0.05783(12)
H7 H 0.4589 0.1753 0.0051
H8 H 0.3078 0.0931 0.0210
C1 C 1.3719(2) 0.7876(2) 0.52214(17)
C2 C 1.2811(2) 0.9241(2) 0.52772(17)
H13 H 1.2369 0.9121 0.4323
H14 H 1.3676 1.0371 0.5759
C3 C 1.1259(2) 0.9098(2) 0.60438(17)
H15 H 1.1695 0.9195 0.6992
H16 H 1.0732 1.0033 0.6120
C4 C 0.9857(2) 0.7403(2) 0.52639(18)
H17 H 0.9451 0.7329 0.4317
H18 H 1.0423 0.6489 0.5172
C5 C 0.8255(2) 0.7069(2) 0.59004(17)
Ce1 Ce 0.474519(13) 0.428248(12) 0.289380(10)
O1A O 0.31569(16) 0.40362(15) 0.49015(12)
O2_2 O 0.37375(17) 0.68194(15) 0.40535(12)
O3A O 0.17130(16) 0.22319(16) 0.28234(12)
O4A O 0.56069(16) 0.21155(15) 0.36169(12)
Ce1A Ce 0.525481(13) 0.571752(12) 0.710620(10)
Ce1_2 Ce 1.474519(13) 0.428248(12) 0.289380(10)
Ce1A_2 Ce 1.525481(13) 0.571752(12) 0.710620(10)
O9 O 0.56947(17) 0.12130(15) 0.83394(13)
H9 H 0.6690 0.1516 0.8332
H10 H 0.5322 0.0250 0.7829
O10 O 0.12111(17) 0.88340(16) 0.93030(13)
H11 H 0.0865 0.8535 0.9850
H12 H 0.0439 0.8644 0.8729
Cl1 Cl 0.99395(5) 0.27253(5) 0.84452(4)
loop_
_geom_bond_atom_site_label_1
_geom_bond_atom_site_label_2
_geom_bond_site_symmetry_1
_geom_bond_site_symmetry_2
O1 C5 1_555 1_555
O2 C1 1_555 1_555
O3 C5 1_555 1_555
O4 C1 1_555 1_555
O5 H1 1_555 1_555
H2 O5 1_555 1_555
O6 H3 1_555 1_555
H4 O6 1_555 1_555
O7 H5 1_555 1_555
H6 O7 1_555 1_555
O8 H7 1_555 1_555
H8 O8 1_555 1_555
O9 H9 1_555 1_555
H10 O9 1_555 1_555
O10 H11 1_555 1_555
H12 O10 1_555 1_555
C1 C2 1_555 1_555
C2 H13 1_555 1_555
H14 C2 1_555 1_555
C3 C2 1_555 1_555
H15 C3 1_555 1_555
H16 C3 1_555 1_555
C4 C3 1_555 1_555
H17 C4 1_555 1_555
H18 C4 1_555 1_555
C5 C4 1_555 1_555
Ce1 O1 1_555 1_555
O1A Ce1 1_555 1_555
O2_2 Ce1 1_555 1_555
O3A Ce1 1_555 1_555
O4A Ce1 1_555 1_555
Ce1A O1 1_555 1_555
Ce1_2 O2 1_555 1_555
Ce1A_2 O4 1_555 1_555
O3 Ce1A 1_555 1_555
O5 Ce1 1_555 1_555
O6 Ce1 1_555 1_555
O7 Ce1 1_555 1_555
O8 Ce1 1_555 1_555
O1A Ce1A 1_555 1_555

#END
