
#######################################################################
#
#                 Cambridge Crystallographic Data Centre
#                                CCDC 
#
#######################################################################
#
# If this CIF has been generated from an entry in the Cambridge 
# Structural Database, then it will include bibliographic, chemical, 
# crystal, experimental, refinement or atomic coordinate data resulting 
# from the CCDC's data processing and validation procedures.
#
#######################################################################

data_LENLOH
_symmetry_cell_setting           orthorhombic
_symmetry_space_group_name_H-M   'P b c a'
_symmetry_Int_Tables_number      61
_space_group_name_Hall           '-P 2ac 2ab'
loop_
_symmetry_equiv_pos_site_id
_symmetry_equiv_pos_as_xyz
1 x,y,z
2 1/2-x,-y,1/2+z
3 1/2+x,1/2-y,-z
4 -x,1/2+y,1/2-z
5 -x,-y,-z
6 1/2+x,y,1/2-z
7 1/2-x,1/2+y,z
8 x,1/2-y,1/2+z
_cell_length_a                   8.45746(19)
_cell_length_b                   9.22142(17)
_cell_length_c                   30.5647(7)
_cell_angle_alpha                90
_cell_angle_beta                 90
_cell_angle_gamma                90
_cell_volume                     2383.73
loop_
_atom_site_label
_atom_site_type_symbol
_atom_site_fract_x
_atom_site_fract_y
_atom_site_fract_z
Ag1 Ag -0.00892(3) 0.36600(3) 0.056885(9)
S1 S 0.35355(10) 0.32243(8) 0.08704(3)
O1 O -0.2631(4) 0.6314(3) 0.07578(10)
C1 C 0.0002(3) 0.3557(4) 0.17486(14)
C2 C -0.1241(5) 0.3497(4) 0.24613(12)
C3 C -0.0178(4) 0.2912(5) 0.21576(12)
C4 C -0.0891(4) 0.4766(4) 0.16439(11)
C5 C -0.1954(5) 0.5360(5) 0.19472(14)
C6 C -0.2118(5) 0.4716(4) 0.23559(13)
O2 O -0.0913(3) 0.6136(3) 0.02360(9)
N1 N -0.2071(3) 0.6752(3) 0.04089(9)
O3 O -0.2672(3) 0.7840(3) 0.02169(9)
O4 O 0.1799(3) 0.1738(3) 0.15144(8)
C7 C 0.1715(4) 0.3866(3) 0.10815(11)
C8 C 0.1233(4) 0.2949(3) 0.14446(10)
C9 C 0.4985(4) 0.3601(5) 0.12892(18)
C10 C 0.4013(5) 0.4663(4) 0.05001(12)
Ag1D Ag 0.00892(3) 0.63400(3) -0.056885(9)
Ag1F Ag -0.49108(3) 0.86600(3) 0.056885(9)
O2D O 0.0913(3) 0.3864(3) -0.02360(9)
O3F O -0.2328(3) 0.2840(3) 0.02169(9)
loop_
_geom_bond_atom_site_label_1
_geom_bond_atom_site_label_2
_geom_bond_site_symmetry_1
_geom_bond_site_symmetry_2
Ag1 O2 1_555 1_555
S1 C7 1_555 1_555
O1 N1 1_555 1_555
C1 C3 1_555 1_555
C2 C3 1_555 1_555
C4 C1 1_555 1_555
C5 C4 1_555 1_555
C6 C2 1_555 1_555
O2 N1 1_555 1_555
N1 O3 1_555 1_555
O3 Ag1F 1_555 1_555
O4 C8 1_555 1_555
C7 Ag1 1_555 1_555
C8 C1 1_555 1_555
C9 S1 1_555 1_555
C10 S1 1_555 1_555
Ag1D O2 1_555 1_555
O2D Ag1 1_555 1_555
O3F Ag1 1_555 1_555
C5 C6 1_555 1_555
C7 C8 1_555 1_555
Ag1D O2D 1_555 1_555

#END
