
#######################################################################
#
#                 Cambridge Crystallographic Data Centre
#                                CCDC 
#
#######################################################################
#
# If this CIF has been generated from an entry in the Cambridge 
# Structural Database, then it will include bibliographic, chemical, 
# crystal, experimental, refinement or atomic coordinate data resulting 
# from the CCDC's data processing and validation procedures.
#
#######################################################################

data_LENPID
_symmetry_cell_setting           monoclinic
_symmetry_space_group_name_H-M   'P 21/c'
_symmetry_Int_Tables_number      14
_space_group_name_Hall           '-P 2ybc'
loop_
_symmetry_equiv_pos_site_id
_symmetry_equiv_pos_as_xyz
1 x,y,z
2 -x,1/2+y,1/2-z
3 -x,-y,-z
4 x,1/2-y,1/2+z
_cell_length_a                   9.046(2)
_cell_length_b                   10.074(3)
_cell_length_c                   16.515(9)
_cell_angle_alpha                90
_cell_angle_beta                 102.90(3)
_cell_angle_gamma                90
_cell_volume                     1467.02
loop_
_atom_site_label
_atom_site_type_symbol
_atom_site_fract_x
_atom_site_fract_y
_atom_site_fract_z
S1 S 0.6708(4) 0.2449(4) 0.9545(2)
S2 S 0.9946(5) 0.4823(6) 0.7626(4)
O1 O 0.7679(9) 0.290(1) 0.8951(5)
O2 O 0.873(1) 0.379(1) 0.7351(7)
N1 N 0.623(1) 0.5626(9) 0.7987(6)
N2 N 0.465(1) 0.743(1) 0.7848(6)
C1 C 0.498(1) 0.624(1) 0.7564(8)
C2 C 0.578(1) 0.762(1) 0.8524(7)
C3 C 0.611(2) 0.868(1) 0.9101(8)
C4 C 0.736(2) 0.860(2) 0.9747(9)
C5 C 0.832(1) 0.752(2) 0.9824(9)
C6 C 0.675(1) 0.651(1) 0.8631(7)
C7 C 0.808(1) 0.644(1) 0.9289(8)
C8 C 0.504(1) 0.348(2) 0.9310(9)
C9 C 0.753(2) 0.320(2) 1.0493(9)
C10 C 1.171(2) 0.414(4) 0.768(2)
Li1 Li 0.695(2) 0.374(2) 0.780(1)
Li1A Li 0.305(2) 0.874(2) 0.720(1)
N2A N 0.535(1) 0.243(1) 0.7152(6)
loop_
_geom_bond_atom_site_label_1
_geom_bond_atom_site_label_2
_geom_bond_site_symmetry_1
_geom_bond_site_symmetry_2
S1 O1 1_555 1_555
S2 O2 1_555 1_555
O1 Li1 1_555 1_555
O2 Li1 1_555 1_555
N1 C1 1_555 1_555
N2 C1 1_555 1_555
C2 N2 1_555 1_555
C3 C2 1_555 1_555
C4 C3 1_555 1_555
C5 C4 1_555 1_555
C6 N1 1_555 1_555
C7 C5 1_555 1_555
C8 S1 1_555 1_555
C9 S1 1_555 1_555
C10 S2 1_555 1_555
Li1 N1 1_555 1_555
Li1A N2 1_555 1_555
N2A Li1 1_555 1_555
C2 C6 1_555 1_555
C6 C7 1_555 1_555

#END
