
#######################################################################
#
#                 Cambridge Crystallographic Data Centre
#                                CCDC 
#
#######################################################################
#
# If this CIF has been generated from an entry in the Cambridge 
# Structural Database, then it will include bibliographic, chemical, 
# crystal, experimental, refinement or atomic coordinate data resulting 
# from the CCDC's data processing and validation procedures.
#
#######################################################################

data_LENREC
_symmetry_cell_setting           monoclinic
_symmetry_space_group_name_H-M   'P 21/c'
_symmetry_Int_Tables_number      14
_space_group_name_Hall           '-P 2ybc'
loop_
_symmetry_equiv_pos_site_id
_symmetry_equiv_pos_as_xyz
1 x,y,z
2 -x,1/2+y,1/2-z
3 -x,-y,-z
4 x,1/2-y,1/2+z
_cell_length_a                   7.5770(2)
_cell_length_b                   20.1800(6)
_cell_length_c                   9.8190(3)
_cell_angle_alpha                90
_cell_angle_beta                 111.9100(12)
_cell_angle_gamma                90
_cell_volume                     1392.92
loop_
_atom_site_label
_atom_site_type_symbol
_atom_site_fract_x
_atom_site_fract_y
_atom_site_fract_z
Cd1 Cd 0.23365(5) 0.066695(18) -0.03366(4)
O1 O 0.2087(5) -0.0197(2) 0.1037(4)
O2 O 0.0468(6) -0.0586(2) 0.2324(5)
O3 O 0.5374(6) 0.0676(2) 0.1616(5)
O4 O 0.6596(6) -0.0342(2) 0.2055(4)
N1 N 0.0835(6) 0.1487(2) 0.0609(5)
N2 N 0.3400(6) 0.1725(2) -0.0690(5)
C1 C -0.0397(8) 0.1370(3) 0.1236(6)
H1 H -0.0697 0.0919 0.1382
C2 C -0.1298(9) 0.1867(4) 0.1711(7)
H2 H -0.2184 0.1763 0.2168
C3 C -0.0885(9) 0.2515(4) 0.1504(7)
H3 H -0.1506 0.2864 0.1821
C4 C 0.0430(9) 0.2671(3) 0.0852(6)
C5 C 0.0955(12) 0.3334(4) 0.0606(8)
H4 H 0.0371 0.3701 0.0899
C6 C 0.2250(12) 0.3443(4) -0.0003(8)
H5 H 0.2550 0.3894 -0.0142
C7 C 0.3104(10) 0.2921(3) -0.0460(7)
C8 C 0.4426(11) 0.3018(4) -0.1127(8)
H6 H 0.4759 0.3456 -0.1332
C9 C 0.5222(9) 0.2485(4) -0.1526(7)
H7 H 0.6175 0.2545 -0.1942
C10 C 0.4666(9) 0.1842(4) -0.1306(7)
H8 H 0.5217 0.1476 -0.1632
C11 C 0.2635(8) 0.2255(3) -0.0257(6)
C12 C 0.1274(8) 0.2130(3) 0.0406(6)
C13 C 0.1913(7) -0.0322(3) 0.2238(5)
C14 C 0.3538(7) -0.0159(3) 0.3654(5)
C15 C 0.5292(7) 0.0075(2) 0.3673(5)
C16 C 0.5765(7) 0.0141(3) 0.2306(5)
C17 C 0.3285(7) -0.0233(3) 0.4981(5)
H9 H 0.2073 -0.0391 0.4945
Cd1B Cd 0.76635(5) -0.066695(18) 1.03366(4)
Cd1B_2 Cd -0.23365(5) -0.066695(18) 0.03366(4)
Cd1B_3 Cd 0.76635(5) -0.066695(18) 0.03366(4)
Cd1_2 Cd 1.23365(5) 0.066695(18) 0.96634(4)
Cd1_3 Cd 0.23365(5) 0.066695(18) 0.96634(4)
O1B O 0.7913(5) 0.0197(2) 0.8963(4)
O2B O 0.9532(6) 0.0586(2) 0.7676(5)
O2B_2 O -0.0468(6) 0.0586(2) -0.2324(5)
O2_2 O 1.0468(6) -0.0586(2) 1.2324(5)
O3B O 0.4626(6) -0.0676(2) 0.8384(5)
O4B O 0.3404(6) 0.0342(2) 0.7945(4)
O4B_2 O 0.3404(6) 0.0342(2) -0.2055(4)
O4_2 O 0.6596(6) -0.0342(2) 1.2055(4)
N1B N 0.9165(6) -0.1487(2) 0.9391(5)
N2B N 0.6600(6) -0.1725(2) 1.0690(5)
C1B C 1.0397(8) -0.1370(3) 0.8764(6)
H1B H 1.0697 -0.0919 0.8618
C2B C 1.1298(9) -0.1867(4) 0.8289(7)
H2B H 1.2184 -0.1763 0.7832
C3B C 1.0885(9) -0.2515(4) 0.8496(7)
H3B H 1.1506 -0.2864 0.8179
C4B C 0.9570(9) -0.2671(3) 0.9148(6)
C5B C 0.9045(12) -0.3334(4) 0.9394(8)
H4B H 0.9629 -0.3701 0.9101
C6B C 0.7750(12) -0.3443(4) 1.0003(8)
H5B H 0.7450 -0.3894 1.0142
C7B C 0.6896(10) -0.2921(3) 1.0460(7)
C8B C 0.5574(11) -0.3018(4) 1.1127(8)
H6B H 0.5241 -0.3456 1.1332
C9B C 0.4778(9) -0.2485(4) 1.1526(7)
H7B H 0.3825 -0.2545 1.1942
C10B C 0.5334(9) -0.1842(4) 1.1306(7)
H8B H 0.4783 -0.1476 1.1632
C11B C 0.7365(8) -0.2255(3) 1.0257(6)
C12B C 0.8726(8) -0.2130(3) 0.9594(6)
C13B C 0.8087(7) 0.0322(3) 0.7762(5)
C14B C 0.6462(7) 0.0159(3) 0.6346(5)
C15B C 0.4708(7) -0.0075(2) 0.6327(5)
C16B C 0.4235(7) -0.0141(3) 0.7694(5)
C17B C 0.6715(7) 0.0233(3) 0.5019(5)
H9B H 0.7927 0.0391 0.5055
loop_
_geom_bond_atom_site_label_1
_geom_bond_atom_site_label_2
_geom_bond_site_symmetry_1
_geom_bond_site_symmetry_2
Cd1 O1 1_555 1_555
O1 C13 1_555 1_555
O2 C13 1_555 1_555
O3 Cd1 1_555 1_555
O4 C16 1_555 1_555
N1 Cd1 1_555 1_555
N2 Cd1 1_555 1_555
C1 N1 1_555 1_555
H1 C1 1_555 1_555
C2 C1 1_555 1_555
H2 C2 1_555 1_555
C3 C2 1_555 1_555
H3 C3 1_555 1_555
C4 C3 1_555 1_555
C5 C4 1_555 1_555
H4 C5 1_555 1_555
C6 C5 1_555 1_555
H5 C6 1_555 1_555
C7 C6 1_555 1_555
C8 C7 1_555 1_555
H6 C8 1_555 1_555
C9 C8 1_555 1_555
H7 C9 1_555 1_555
C10 N2 1_555 1_555
H8 C10 1_555 1_555
C11 N2 1_555 1_555
C12 N1 1_555 1_555
C13 C14 1_555 1_555
C14 C15 1_555 1_555
C15 C16 1_555 1_555
C16 O3 1_555 1_555
C17 C14 1_555 1_555
H9 C17 1_555 1_555
Cd1B O1B 1_555 1_555
Cd1B_2 O2 1_555 1_555
Cd1B_3 O4 1_555 1_555
Cd1_2 O2B 1_555 1_555
Cd1_3 O4B 1_555 1_555
O1B C13B 1_555 1_555
O2B C13B 1_555 1_555
O2B_2 Cd1 1_555 1_555
O2_2 Cd1B 1_555 1_555
O3B Cd1B 1_555 1_555
O4B C16B 1_555 1_555
O4B_2 Cd1 1_555 1_555
O4_2 Cd1B 1_555 1_555
N1B Cd1B 1_555 1_555
N2B Cd1B 1_555 1_555
C1B N1B 1_555 1_555
H1B C1B 1_555 1_555
C2B C1B 1_555 1_555
H2B C2B 1_555 1_555
C3B C2B 1_555 1_555
H3B C3B 1_555 1_555
C4B C3B 1_555 1_555
C5B C4B 1_555 1_555
H4B C5B 1_555 1_555
C6B C5B 1_555 1_555
H5B C6B 1_555 1_555
C7B C6B 1_555 1_555
C8B C7B 1_555 1_555
H6B C8B 1_555 1_555
C9B C8B 1_555 1_555
H7B C9B 1_555 1_555
C10B N2B 1_555 1_555
H8B C10B 1_555 1_555
C11B N2B 1_555 1_555
C12B N1B 1_555 1_555
C13B C14B 1_555 1_555
C14B C15B 1_555 1_555
C15B C17 1_555 1_555
C16B O3B 1_555 1_555
C17B C15 1_555 1_555
H9B C17B 1_555 1_555
C4 C12 1_555 1_555
C7 C11 1_555 1_555
C9 C10 1_555 1_555
C11 C12 1_555 1_555
C4B C12B 1_555 1_555
C7B C11B 1_555 1_555
C9B C10B 1_555 1_555
C11B C12B 1_555 1_555
C14B C17B 1_555 1_555
C15B C16B 1_555 1_555

#END
