
#######################################################################
#
#                 Cambridge Crystallographic Data Centre
#                                CCDC 
#
#######################################################################
#
# If this CIF has been generated from an entry in the Cambridge 
# Structural Database, then it will include bibliographic, chemical, 
# crystal, experimental, refinement or atomic coordinate data resulting 
# from the CCDC's data processing and validation procedures.
#
#######################################################################

data_LENRUS
_symmetry_cell_setting           orthorhombic
_symmetry_space_group_name_H-M   'P 21 21 21'
_symmetry_Int_Tables_number      19
_space_group_name_Hall           'P 2ac 2ab'
loop_
_symmetry_equiv_pos_site_id
_symmetry_equiv_pos_as_xyz
1 x,y,z
2 1/2-x,-y,1/2+z
3 -x,1/2+y,1/2-z
4 1/2+x,1/2-y,-z
_cell_length_a                   7.0373(5)
_cell_length_b                   10.4399(7)
_cell_length_c                   13.3105(9)
_cell_angle_alpha                90
_cell_angle_beta                 90
_cell_angle_gamma                90
_cell_volume                     977.905
loop_
_atom_site_label
_atom_site_type_symbol
_atom_site_fract_x
_atom_site_fract_y
_atom_site_fract_z
Ag1 Ag 0.21885(5) 0.10605(3) 0.68030(2)
S1 S 0.05242(17) 0.46998(9) 0.48408(8)
C1 C 0.1134(5) 0.3786(4) 0.7742(3)
C2 C 0.0975(5) 0.3895(4) 0.6612(3)
C3 C 0.0607(6) 0.4974(4) 0.6105(3)
H1 H 0.0421 0.5770 0.6403
C4 C 0.0986(5) 0.3097(3) 0.5063(3)
C5 C 0.1055(5) 0.2168(3) 0.4232(3)
C6 C 0.1500(6) 0.2543(4) 0.3255(3)
H2 H 0.1761 0.3396 0.3109
C7 C 0.1545(7) 0.1633(4) 0.2513(3)
H3 H 0.1827 0.1898 0.1863
C8 C 0.0717(6) 0.0049(4) 0.3601(3)
H4 H 0.0431 -0.0807 0.3721
C9 C 0.0605(6) 0.0889(4) 0.4400(3)
H5 H 0.0239 0.0607 0.5033
N1 N 0.1207(5) 0.2819(3) 0.6013(2)
N2 N 0.1207(6) 0.0382(3) 0.2666(3)
O1 O 0.1567(5) 0.2727(3) 0.8098(2)
O2 O 0.0801(5) 0.4798(3) 0.8228(2)
Ag1A Ag 0.28115(5) -0.10605(3) 0.18030(2)
Ag1B Ag -0.21885(5) 0.60605(3) 0.81970(2)
N2A N 0.3793(6) -0.0382(3) 0.7666(3)
O2B O -0.0801(5) -0.0202(3) 0.6772(2)
O3 O 0.225(2) 0.7709(11) 0.5127(9)
O4? O 0.3104(13) 0.7540(7) 0.5072(6)
O5? O 0.404(3) 0.7335(18) 0.4988(14)
loop_
_geom_bond_atom_site_label_1
_geom_bond_atom_site_label_2
_geom_bond_site_symmetry_1
_geom_bond_site_symmetry_2
Ag1 N1 1_555 1_555
S1 C3 1_555 1_555
C1 C2 1_555 1_555
C2 C3 1_555 1_555
C3 H1 1_555 1_555
C4 S1 1_555 1_555
C5 C4 1_555 1_555
C6 C5 1_555 1_555
H2 C6 1_555 1_555
C7 C6 1_555 1_555
H3 C7 1_555 1_555
C8 H4 1_555 1_555
C9 C5 1_555 1_555
H5 C9 1_555 1_555
N1 C2 1_555 1_555
N2 C7 1_555 1_555
O1 Ag1 1_555 1_555
O2 C1 1_555 1_555
Ag1A N2 1_555 1_555
Ag1B O2 1_555 1_555
N2A Ag1 1_555 1_555
O2B Ag1 1_555 1_555
C1 O1 1_555 1_555
C4 N1 1_555 1_555
C8 C9 1_555 1_555
C8 N2 1_555 1_555

#END
