
#######################################################################
#
#                 Cambridge Crystallographic Data Centre
#                                CCDC 
#
#######################################################################
#
# If this CIF has been generated from an entry in the Cambridge 
# Structural Database, then it will include bibliographic, chemical, 
# crystal, experimental, refinement or atomic coordinate data resulting 
# from the CCDC's data processing and validation procedures.
#
#######################################################################

data_LENROM
_symmetry_cell_setting           monoclinic
_symmetry_space_group_name_H-M   'P 21/c'
_symmetry_Int_Tables_number      14
_space_group_name_Hall           '-P 2ybc'
loop_
_symmetry_equiv_pos_site_id
_symmetry_equiv_pos_as_xyz
1 x,y,z
2 -x,1/2+y,1/2-z
3 -x,-y,-z
4 x,1/2-y,1/2+z
_cell_length_a                   12.923(3)
_cell_length_b                   17.763(4)
_cell_length_c                   9.902(2)
_cell_angle_alpha                90
_cell_angle_beta                 100.762(5)
_cell_angle_gamma                90
_cell_volume                     2233.04
loop_
_atom_site_label
_atom_site_type_symbol
_atom_site_fract_x
_atom_site_fract_y
_atom_site_fract_z
Zn1 Zn 0.16013(9) 0.77694(7) 0.10166(11)
S1 S -0.1328(3) 0.9449(2) -0.1010(3)
S2 S 0.6402(2) 0.55975(16) 0.0482(3)
C1 C 0.0755(7) 0.7968(5) -0.1852(10)
C2 C 0.0043(7) 0.8510(5) -0.1347(10)
C3 C -0.0706(8) 0.8953(6) -0.2059(12)
H1 H -0.0864 0.8982 -0.3033
C4 C -0.0557(8) 0.9014(6) 0.0404(11)
C5 C -0.0742(8) 0.9197(6) 0.1801(11)
C6 C -0.1597(9) 0.9616(6) 0.1985(12)
H2 H -0.2069 0.9822 0.1224
C7 C -0.1751(10) 0.9730(7) 0.3325(13)
H3 H -0.2336 1.0027 0.3454
C8 C -0.0296(9) 0.9063(6) 0.4218(12)
H4 H 0.0167 0.8866 0.4996
C9 C -0.0057(9) 0.8931(6) 0.2938(12)
H5 H 0.0562 0.8663 0.2842
C10 C 0.7087(8) 0.4027(6) 0.3355(11)
C11 C 0.6647(8) 0.4646(6) 0.2406(10)
C12 C 0.7060(8) 0.4851(6) 0.1280(11)
H6 H 0.7635 0.4607 0.0990
C13 C 0.5573(8) 0.5582(6) 0.1676(11)
C14 C 0.4673(8) 0.6098(6) 0.1554(11)
C15 C 0.4415(9) 0.6610(6) 0.0470(12)
H7 H 0.4847 0.6644 -0.0205
C16 C 0.3566(8) 0.7053(6) 0.0373(11)
H8 H 0.3421 0.7396 -0.0375
C17 C 0.3165(8) 0.6566(6) 0.2364(12)
H9 H 0.2741 0.6564 0.3052
C18 C 0.4023(8) 0.6088(6) 0.2502(11)
H10 H 0.4163 0.5750 0.3259
N1 N 0.0120(6) 0.8539(4) 0.0076(9)
N2 N -0.1135(7) 0.9450(5) 0.4436(10)
N3 N 0.5815(6) 0.5065(5) 0.2619(9)
N4 N 0.2909(6) 0.7040(5) 0.1271(9)
O1 O 0.1411(5) 0.7609(4) -0.1017(7)
O2 O 0.0646(5) 0.7910(4) -0.3171(7)
O3 O 0.7751(5) 0.3610(4) 0.2913(7)
O4 O 0.6839(6) 0.3966(4) 0.4494(8)
Zn1C Zn 0.16013(9) 0.72306(7) -0.39834(11)
Zn1A Zn 0.83987(9) 0.27694(7) 0.39834(11)
O2C O 0.0646(5) 0.7090(4) 0.1829(7)
O3A O 0.2249(5) 0.8610(4) 0.2087(7)
O5 O 0.5688(13) 0.9501(9) 0.0552(18)
O6 O 0.640(2) 0.8049(18) 0.028(3)
O7 O 0.586(3) 0.7776(18) 0.318(4)
O10 O 0.791(4) 0.741(3) 0.026(6)
O8? O 0.663(3) 0.7877(18) 0.241(4)
O9? O 0.585(3) 0.855(2) 0.111(4)
O11? O 0.703(5) 0.784(4) 0.121(7)
loop_
_geom_bond_atom_site_label_1
_geom_bond_atom_site_label_2
_geom_bond_site_symmetry_1
_geom_bond_site_symmetry_2
Zn1 N1 1_555 1_555
S1 C3 1_555 1_555
S2 C12 1_555 1_555
C1 C2 1_555 1_555
C2 C3 1_555 1_555
C3 H1 1_555 1_555
C4 S1 1_555 1_555
C5 C4 1_555 1_555
C6 C5 1_555 1_555
H2 C6 1_555 1_555
C7 C6 1_555 1_555
H3 C7 1_555 1_555
C8 H4 1_555 1_555
C9 C5 1_555 1_555
H5 C9 1_555 1_555
C10 C11 1_555 1_555
C11 C12 1_555 1_555
C12 H6 1_555 1_555
C13 S2 1_555 1_555
C14 C13 1_555 1_555
C15 C14 1_555 1_555
H7 C15 1_555 1_555
C16 C15 1_555 1_555
H8 C16 1_555 1_555
C17 H9 1_555 1_555
C18 C14 1_555 1_555
H10 C18 1_555 1_555
N1 C2 1_555 1_555
N2 C7 1_555 1_555
N3 C11 1_555 1_555
N4 Zn1 1_555 1_555
O1 Zn1 1_555 1_555
O2 C1 1_555 1_555
O3 C10 1_555 1_555
O4 C10 1_555 1_555
Zn1C O2 1_555 1_555
Zn1A O3 1_555 1_555
O2C Zn1 1_555 1_555
O3A Zn1 1_555 1_555
C1 O1 1_555 1_555
C4 N1 1_555 1_555
C8 C9 1_555 1_555
C8 N2 1_555 1_555
C13 N3 1_555 1_555
C16 N4 1_555 1_555
C17 C18 1_555 1_555
C17 N4 1_555 1_555

#END
