
#######################################################################
#
#                 Cambridge Crystallographic Data Centre
#                                CCDC 
#
#######################################################################
#
# If this CIF has been generated from an entry in the Cambridge 
# Structural Database, then it will include bibliographic, chemical, 
# crystal, experimental, refinement or atomic coordinate data resulting 
# from the CCDC's data processing and validation procedures.
#
#######################################################################

data_LENRAY
_symmetry_cell_setting           triclinic
_symmetry_space_group_name_H-M   'P -1'
_symmetry_Int_Tables_number      2
_space_group_name_Hall           '-P 1'
loop_
_symmetry_equiv_pos_site_id
_symmetry_equiv_pos_as_xyz
1 x,y,z
2 -x,-y,-z
_cell_length_a                   8.026(2)
_cell_length_b                   9.575(3)
_cell_length_c                   11.020(3)
_cell_angle_alpha                75.832(5)
_cell_angle_beta                 85.124(5)
_cell_angle_gamma                75.041(5)
_cell_volume                     793.073
loop_
_atom_site_label
_atom_site_type_symbol
_atom_site_fract_x
_atom_site_fract_y
_atom_site_fract_z
C1 C 0.5495(14) 0.3825(13) 0.8580(11)
H1 H 0.4485 0.4421 0.8195
C2 C 0.5371(19) 0.3062(19) 0.9778(13)
H2 H 0.4313 0.3151 1.0207
C3 C 0.682(2) 0.217(2) 1.0328(12)
H3 H 0.6786 0.1583 1.1133
C4 C 0.8337(17) 0.2158(19) 0.9673(11)
H4 H 0.9359 0.1600 1.0064
C5 C 0.8407(14) 0.2926(14) 0.8479(9)
C6 C 0.9998(12) 0.2971(11) 0.7757(8)
C7 C 1.1684(14) 0.2340(13) 0.8094(10)
H5 H 1.2093 0.1728 0.8857
C8 C 1.2619(12) 0.2813(11) 0.7055(10)
H6 H 1.3818 0.2566 0.7007
C9 C 0.8694(13) 0.7314(14) 0.7203(9)
H7 H 0.9747 0.6614 0.7237
C10 C 0.8577(19) 0.8533(19) 0.7666(13)
H8 H 0.9546 0.8663 0.7989
C11 C 0.711(2) 0.9518(18) 0.7656(13)
H9 H 0.7012 1.0315 0.8022
C12 C 0.5701(14) 0.9374(12) 0.7099(9)
H10 H 0.4661 1.0093 0.7035
C13 C 0.5900(14) 0.8121(12) 0.6642(8)
C14 C 0.4461(12) 0.7877(10) 0.6025(7)
C15 C 0.2832(14) 0.8749(10) 0.5808(9)
H11 H 0.2336 0.9649 0.6023
C16 C 0.2109(12) 0.7988(11) 0.5205(8)
H12 H 0.0982 0.8304 0.4925
Cd1 Cd 0.73779(7) 0.50825(7) 0.57008(6)
N1 N 0.6956(11) 0.3781(9) 0.7919(7)
N2 N 0.9982(8) 0.3773(7) 0.6578(6)
N3 N 1.1616(8) 0.3671(7) 0.6114(6)
N4 N 0.7366(11) 0.7084(9) 0.6706(7)
N5 N 0.4700(8) 0.6659(7) 0.5599(6)
N6 N 0.3203(9) 0.6738(7) 0.5061(6)
Cd1A Cd 1.26221(7) 0.49175(7) 0.42992(6)
Cd1A_2 Cd 0.26221(7) 0.49175(7) 0.42992(6)
N3A N 0.8384(8) 0.6329(7) 0.3886(6)
N6A N 0.6797(9) 0.3262(7) 0.4939(6)
loop_
_geom_bond_atom_site_label_1
_geom_bond_atom_site_label_2
_geom_bond_site_symmetry_1
_geom_bond_site_symmetry_2
C1 H1 1_555 1_555
C2 C1 1_555 1_555
H2 C2 1_555 1_555
C3 C2 1_555 1_555
H3 C3 1_555 1_555
C4 C3 1_555 1_555
H4 C4 1_555 1_555
C5 C4 1_555 1_555
C6 C5 1_555 1_555
C7 C6 1_555 1_555
H5 C7 1_555 1_555
C8 C7 1_555 1_555
H6 C8 1_555 1_555
C9 H7 1_555 1_555
C10 C9 1_555 1_555
H8 C10 1_555 1_555
C11 C10 1_555 1_555
H9 C11 1_555 1_555
C12 C11 1_555 1_555
H10 C12 1_555 1_555
C13 C12 1_555 1_555
C14 C13 1_555 1_555
C15 C14 1_555 1_555
H11 C15 1_555 1_555
C16 C15 1_555 1_555
H12 C16 1_555 1_555
Cd1 N1 1_555 1_555
N1 C1 1_555 1_555
N2 C6 1_555 1_555
N3 C8 1_555 1_555
N4 C9 1_555 1_555
N5 C14 1_555 1_555
N6 C16 1_555 1_555
Cd1A N3 1_555 1_555
Cd1A_2 N6 1_555 1_555
N3A Cd1 1_555 1_555
N6A Cd1 1_555 1_555
C5 N1 1_555 1_555
C13 N4 1_555 1_555
Cd1 N2 1_555 1_555
Cd1 N4 1_555 1_555
Cd1 N5 1_555 1_555
N2 N3 1_555 1_555
N5 N6 1_555 1_555

#END
