
#######################################################################
#
#                 Cambridge Crystallographic Data Centre
#                                CCDC 
#
#######################################################################
#
# If this CIF has been generated from an entry in the Cambridge 
# Structural Database, then it will include bibliographic, chemical, 
# crystal, experimental, refinement or atomic coordinate data resulting 
# from the CCDC's data processing and validation procedures.
#
#######################################################################

data_LENSAZ
_symmetry_cell_setting           triclinic
_symmetry_space_group_name_H-M   'P -1'
_symmetry_Int_Tables_number      2
_space_group_name_Hall           '-P 1'
loop_
_symmetry_equiv_pos_site_id
_symmetry_equiv_pos_as_xyz
1 x,y,z
2 -x,-y,-z
_cell_length_a                   7.2957(2)
_cell_length_b                   9.0059(1)
_cell_length_c                   16.6311(5)
_cell_angle_alpha                104.432(2)
_cell_angle_beta                 99.004(1)
_cell_angle_gamma                90.104(1)
_cell_volume                     1044.26
loop_
_atom_site_label
_atom_site_type_symbol
_atom_site_fract_x
_atom_site_fract_y
_atom_site_fract_z
Cu1 Cu 0.1581(2) 0.22188(19) 0.28228(10)
Cu2 Cu 0.6555(2) 0.03704(19) 0.28263(10)
Cl1 Cl 0.3934(4) 0.1564(4) 0.3711(2)
Cl2 Cl -0.1058(4) 0.1827(4) 0.3703(2)
O1 O 0.1098(13) 0.0114(12) 0.2094(7)
O2 O -0.0655(16) -0.1179(13) 0.0906(8)
O3 O 0.6079(14) 0.1764(12) 0.2084(6)
O4 O 0.4310(16) 0.2009(15) 0.0907(8)
N1 N 0.1952(14) 0.4518(13) 0.3243(7)
N2 N -0.0192(17) 0.2799(14) 0.1896(7)
H1 H -0.1342 0.2913 0.2060
N3 N 0.6912(14) -0.1531(13) 0.3246(7)
N4 N 0.4821(14) -0.1086(13) 0.1904(7)
H2 H 0.3676 -0.1058 0.2072
C1 C 0.274(2) 0.531(2) 0.4018(9)
H3 H 0.3226 0.4762 0.4412
C2 C 0.287(2) 0.688(2) 0.4252(11)
H4 H 0.3399 0.7421 0.4799
C3 C 0.217(2) 0.7629(18) 0.3641(12)
H5 H 0.2250 0.8707 0.3772
C4 C 0.139(2) 0.683(2) 0.2860(10)
H6 H 0.0943 0.7355 0.2451
C5 C 0.1257(17) 0.5298(14) 0.2670(9)
C6 C 0.043(2) 0.4271(17) 0.1802(10)
H7 H -0.0617 0.4768 0.1547
H8 H 0.1373 0.4118 0.1432
C7 C -0.0348(19) 0.1554(17) 0.1151(9)
H9 H 0.0552 0.1733 0.0801
H10 H -0.1595 0.1509 0.0824
C8 C 0.0016(19) 0.001(2) 0.1384(10)
C9 C 0.770(2) -0.159(2) 0.4024(10)
H11 H 0.8117 -0.0676 0.4426
C10 C 0.7911(18) -0.2934(18) 0.4243(9)
H12 H 0.8513 -0.2943 0.4784
C11 C 0.7244(19) -0.429(2) 0.3674(10)
H13 H 0.7383 -0.5231 0.3825
C12 C 0.6371(19) -0.4263(17) 0.2880(11)
H14 H 0.5877 -0.5166 0.2483
C13 C 0.6253(14) -0.2878(13) 0.2694(8)
C14 C 0.5446(19) -0.2627(16) 0.1825(9)
H15 H 0.6400 -0.2811 0.1461
H16 H 0.4402 -0.3363 0.1562
C15 C 0.4617(18) -0.0479(17) 0.1140(9)
H17 H 0.3349 -0.0701 0.0830
H18 H 0.5478 -0.0978 0.0770
C16 C 0.5026(18) 0.1214(18) 0.1400(10)
Cu2_2 Cu -0.3445(2) 0.03704(19) 0.28263(10)
Cl2_2 Cl 0.8942(4) 0.1827(4) 0.3703(2)
O5 O 0.1167(18) -0.3808(15) 0.0493(8)
O6 O 0.6183(19) 0.4217(16) 0.0496(9)
loop_
_geom_bond_atom_site_label_1
_geom_bond_atom_site_label_2
_geom_bond_site_symmetry_1
_geom_bond_site_symmetry_2
Cu1 Cl1 1_555 1_555
Cu2 Cl1 1_555 1_555
Cl2 Cu1 1_555 1_555
O1 Cu1 1_555 1_555
O2 C8 1_555 1_555
O3 Cu2 1_555 1_555
O4 C16 1_555 1_555
N1 Cu1 1_555 1_555
N2 Cu1 1_555 1_555
H1 N2 1_555 1_555
N3 Cu2 1_555 1_555
N4 Cu2 1_555 1_555
H2 N4 1_555 1_555
C1 N1 1_555 1_555
H3 C1 1_555 1_555
C2 C1 1_555 1_555
H4 C2 1_555 1_555
C3 C2 1_555 1_555
H5 C3 1_555 1_555
C4 C3 1_555 1_555
H6 C4 1_555 1_555
C5 N1 1_555 1_555
C6 N2 1_555 1_555
H7 C6 1_555 1_555
H8 C6 1_555 1_555
C7 N2 1_555 1_555
H9 C7 1_555 1_555
H10 C7 1_555 1_555
C8 O1 1_555 1_555
C9 N3 1_555 1_555
H11 C9 1_555 1_555
C10 C9 1_555 1_555
H12 C10 1_555 1_555
C11 C10 1_555 1_555
H13 C11 1_555 1_555
C12 C11 1_555 1_555
H14 C12 1_555 1_555
C13 N3 1_555 1_555
C14 N4 1_555 1_555
H15 C14 1_555 1_555
H16 C14 1_555 1_555
C15 N4 1_555 1_555
H17 C15 1_555 1_555
H18 C15 1_555 1_555
C16 O3 1_555 1_555
Cu2_2 Cl2 1_555 1_555
Cl2_2 Cu2 1_555 1_555
C4 C5 1_555 1_555
C5 C6 1_555 1_555
C7 C8 1_555 1_555
C12 C13 1_555 1_555
C13 C14 1_555 1_555
C15 C16 1_555 1_555

#END
