
#######################################################################
#
#                 Cambridge Crystallographic Data Centre
#                                CCDC 
#
#######################################################################
#
# If this CIF has been generated from an entry in the Cambridge 
# Structural Database, then it will include bibliographic, chemical, 
# crystal, experimental, refinement or atomic coordinate data resulting 
# from the CCDC's data processing and validation procedures.
#
#######################################################################

data_LENSIH
_symmetry_cell_setting           orthorhombic
_symmetry_space_group_name_H-M   'P 21 21 2'
_symmetry_Int_Tables_number      18
_space_group_name_Hall           'P 2 2ab'
loop_
_symmetry_equiv_pos_site_id
_symmetry_equiv_pos_as_xyz
1 x,y,z
2 -x,-y,z
3 1/2-x,1/2+y,-z
4 1/2+x,1/2-y,-z
_cell_length_a                   17.1856(2)
_cell_length_b                   18.60880(10)
_cell_length_c                   8.13810(10)
_cell_angle_alpha                90
_cell_angle_beta                 90
_cell_angle_gamma                90
_cell_volume                     2602.59
loop_
_atom_site_label
_atom_site_type_symbol
_atom_site_fract_x
_atom_site_fract_y
_atom_site_fract_z
Cu1 Cu 0.14597(3) 0.73448(3) 0.61451(8)
Cu2 Cu 0.20944(3) 0.73290(3) 0.09866(8)
N1 N 0.0528(2) 0.6974(2) 0.4977(5)
C1 C 0.0421(3) 0.6300(3) 0.4434(8)
H1 H 0.0831 0.5974 0.4493
C2 C -0.0277(3) 0.6079(3) 0.3795(9)
H2 H -0.0341 0.5609 0.3433
C3 C -0.0871(3) 0.6553(3) 0.3696(8)
H3 H -0.1349 0.6408 0.3276
C4 C -0.0769(3) 0.7241(3) 0.4213(7)
H4 H -0.1173 0.7571 0.4132
C5 C -0.0057(3) 0.7445(3) 0.4860(6)
C6 C 0.0125(3) 0.8188(3) 0.5428(7)
H5 H 0.0254 0.8487 0.4490
H6 H -0.0327 0.8393 0.5965
N2 N 0.0775(2) 0.8177(2) 0.6565(6)
H7 H 0.0554 0.8082 0.7559
C7 C 0.1225(3) 0.8835(2) 0.6834(6)
H8 H 0.1281 0.9087 0.5783
C8 C 0.2033(3) 0.8603(3) 0.7430(6)
C9 C 0.0835(3) 0.9325(3) 0.8030(9)
H9 H 0.0310 0.9413 0.7681
H10 H 0.1114 0.9771 0.8081
H11 H 0.0831 0.9105 0.9097
O1 O 0.2244(2) 0.79646(18) 0.7153(5)
O2 O 0.2438(2) 0.90443(18) 0.8166(5)
C10 C 0.3049(3) 0.6181(3) -0.0684(6)
H12 H 0.2589 0.5923 -0.0800
C11 C 0.3729(3) 0.5887(3) -0.1283(7)
H13 H 0.3731 0.5439 -0.1788
N3 N 0.3026(2) 0.6825(2) 0.0061(5)
C12 C 0.4401(3) 0.6273(3) -0.1113(7)
H14 H 0.4867 0.6089 -0.1512
C13 C 0.4389(3) 0.6928(3) -0.0358(6)
H15 H 0.4844 0.7196 -0.0252
C14 C 0.3690(3) 0.7189(2) 0.0247(6)
C15 C 0.3625(3) 0.7885(2) 0.1172(7)
H16 H 0.3752 0.7810 0.2320
H17 H 0.3986 0.8234 0.0723
C16 C 0.2555(3) 0.8641(2) 0.2338(6)
H18 H 0.2707 0.8429 0.3392
N4 N 0.2828(2) 0.81528(18) 0.1023(5)
H19 H 0.2787 0.8389 0.0047
C17 C 0.1656(3) 0.8645(3) 0.2266(6)
C18 C 0.2905(3) 0.9387(3) 0.2256(8)
H20 H 0.3461 0.9353 0.2338
H21 H 0.2709 0.9671 0.3148
H22 H 0.2767 0.9608 0.1231
O3 O 0.1344(2) 0.80673(18) 0.1690(5)
O4 O 0.1294(2) 0.91629(19) 0.2753(5)
O5 O 0.2095(2) 0.64932(16) 0.5922(4)
O6 O 0.2477(2) 0.70479(18) 0.3692(5)
C19 C 0.2494(3) 0.6528(3) 0.4598(6)
C20 C 0.2997(3) 0.5894(3) 0.4217(8)
H23 H 0.3292 0.5988 0.3239
H24 H 0.2677 0.5478 0.4051
H25 H 0.3346 0.5809 0.5117
O7 O 0.0842(3) 0.7028(2) 0.8730(5)
O8 O 0.1415(2) 0.64960(17) 1.0778(5)
C21 C 0.0950(3) 0.6514(3) 0.9615(8)
C22 C 0.0483(4) 0.5830(3) 0.9275(12)
H26 H 0.0032 0.5819 0.9972
H27 H 0.0801 0.5417 0.9495
H28 H 0.0322 0.5824 0.8146
Cu1_2 Cu 0.14597(3) 0.73448(3) 1.61451(8)
Cu1_3 Cu 0.14597(3) 0.73448(3) -0.38549(8)
Cu2_2 Cu 0.20944(3) 0.73290(3) 1.09866(8)
N1_2 N 0.0528(2) 0.6974(2) 1.4977(5)
C1_2 C 0.0421(3) 0.6300(3) 1.4434(8)
H1_2 H 0.0831 0.5974 1.4493
C2_2 C -0.0277(3) 0.6079(3) 1.3795(9)
H2_2 H -0.0341 0.5609 1.3433
C3_2 C -0.0871(3) 0.6553(3) 1.3696(8)
H3_2 H -0.1349 0.6408 1.3276
C4_2 C -0.0769(3) 0.7241(3) 1.4213(7)
H4_2 H -0.1173 0.7571 1.4132
C5_2 C -0.0057(3) 0.7445(3) 1.4860(6)
C6_2 C 0.0125(3) 0.8188(3) 1.5428(7)
H5_2 H 0.0254 0.8487 1.4490
H6_2 H -0.0327 0.8393 1.5965
N2_2 N 0.0775(2) 0.8177(2) 1.6565(6)
H7_2 H 0.0554 0.8082 1.7559
C7_2 C 0.1225(3) 0.8835(2) 1.6834(6)
H8_2 H 0.1281 0.9087 1.5783
C8_2 C 0.2033(3) 0.8603(3) 1.7430(6)
C9_2 C 0.0835(3) 0.9325(3) 1.8030(9)
H9_2 H 0.0310 0.9413 1.7681
H10_2 H 0.1114 0.9771 1.8081
H11_2 H 0.0831 0.9105 1.9097
O1_2 O 0.2244(2) 0.79646(18) 1.7153(5)
O2_2 O 0.2438(2) 0.90443(18) 1.8166(5)
C10_2 C 0.3049(3) 0.6181(3) 0.9316(6)
H12_2 H 0.2589 0.5923 0.9200
C11_2 C 0.3729(3) 0.5887(3) 0.8717(7)
H13_2 H 0.3731 0.5439 0.8212
N3_2 N 0.3026(2) 0.6825(2) 1.0061(5)
C12_2 C 0.4401(3) 0.6273(3) 0.8887(7)
H14_2 H 0.4867 0.6089 0.8488
C13_2 C 0.4389(3) 0.6928(3) 0.9642(6)
H15_2 H 0.4844 0.7196 0.9748
C14_2 C 0.3690(3) 0.7189(2) 1.0247(6)
C15_2 C 0.3625(3) 0.7885(2) 1.1172(7)
H16_2 H 0.3752 0.7810 1.2320
H17_2 H 0.3986 0.8234 1.0723
C16_2 C 0.2555(3) 0.8641(2) 1.2338(6)
H18_2 H 0.2707 0.8429 1.3392
N4_2 N 0.2828(2) 0.81528(18) 1.1023(5)
H19_2 H 0.2787 0.8389 1.0047
C17_2 C 0.1656(3) 0.8645(3) 1.2266(6)
C18_2 C 0.2905(3) 0.9387(3) 1.2256(8)
H20_2 H 0.3461 0.9353 1.2338
H21_2 H 0.2709 0.9671 1.3148
H22_2 H 0.2767 0.9608 1.1231
O3_2 O 0.1344(2) 0.80673(18) 1.1690(5)
O4_2 O 0.1294(2) 0.91629(19) 1.2753(5)
O5_2 O 0.2095(2) 0.64932(16) 1.5922(4)
O6_2 O 0.2477(2) 0.70479(18) 1.3692(5)
C19_2 C 0.2494(3) 0.6528(3) 1.4598(6)
C20_2 C 0.2997(3) 0.5894(3) 1.4217(8)
H23_2 H 0.3292 0.5988 1.3239
H24_2 H 0.2677 0.5478 1.4051
H25_2 H 0.3346 0.5809 1.5117
O7_2 O 0.0842(3) 0.7028(2) -0.1270(5)
O7_3 O 0.0842(3) 0.7028(2) 1.8730(5)
O8_2 O 0.1415(2) 0.64960(17) 0.0778(5)
C21_2 C 0.0950(3) 0.6514(3) -0.0385(8)
C22_2 C 0.0483(4) 0.5830(3) -0.0725(12)
H26_2 H 0.0032 0.5819 -0.0028
H27_2 H 0.0801 0.5417 -0.0505
H28_2 H 0.0322 0.5824 -0.1854
O9 O 0.0000 1.0000 0.4260(9)
H29 H -0.028(2) 1.0286(19) 0.491(2)
H29A H 0.028(2) 0.9714(19) 0.491(2)
O10 O 0.3584(4) 1.0109(3) 0.7657(10)
H30 H 0.325(2) 0.9773(16) 0.807(7)
H31 H 0.339(3) 1.0536(11) 0.801(7)
loop_
_geom_bond_atom_site_label_1
_geom_bond_atom_site_label_2
_geom_bond_site_symmetry_1
_geom_bond_site_symmetry_2
Cu1 N1 1_555 1_555
Cu2 N3 1_555 1_555
N1 C1 1_555 1_555
C1 H1 1_555 1_555
C2 C1 1_555 1_555
H2 C2 1_555 1_555
C3 C2 1_555 1_555
H3 C3 1_555 1_555
C4 C3 1_555 1_555
H4 C4 1_555 1_555
C5 N1 1_555 1_555
C6 C5 1_555 1_555
H5 C6 1_555 1_555
H6 C6 1_555 1_555
N2 Cu1 1_555 1_555
H7 N2 1_555 1_555
C7 N2 1_555 1_555
H8 C7 1_555 1_555
C8 C7 1_555 1_555
C9 C7 1_555 1_555
H9 C9 1_555 1_555
H10 C9 1_555 1_555
H11 C9 1_555 1_555
O1 Cu1 1_555 1_555
O2 C8 1_555 1_555
C10 H12 1_555 1_555
C11 C10 1_555 1_555
H13 C11 1_555 1_555
N3 C10 1_555 1_555
C12 C11 1_555 1_555
H14 C12 1_555 1_555
C13 C12 1_555 1_555
H15 C13 1_555 1_555
C14 N3 1_555 1_555
C15 C14 1_555 1_555
H16 C15 1_555 1_555
H17 C15 1_555 1_555
C16 H18 1_555 1_555
N4 Cu2 1_555 1_555
H19 N4 1_555 1_555
C17 C16 1_555 1_555
C18 C16 1_555 1_555
H20 C18 1_555 1_555
H21 C18 1_555 1_555
H22 C18 1_555 1_555
O3 Cu2 1_555 1_555
O4 C17 1_555 1_555
O5 Cu1 1_555 1_555
O6 Cu2 1_555 1_555
C19 O5 1_555 1_555
C20 C19 1_555 1_555
H23 C20 1_555 1_555
H24 C20 1_555 1_555
H25 C20 1_555 1_555
O7 Cu1 1_555 1_555
O8 C21 1_555 1_555
C21 O7 1_555 1_555
C22 C21 1_555 1_555
H26 C22 1_555 1_555
H27 C22 1_555 1_555
H28 C22 1_555 1_555
O9 H29 1_555 1_555
O10 H30 1_555 1_555
H31 O10 1_555 1_555
Cu1_2 N1_2 1_555 1_555
Cu1_3 O7_2 1_555 1_555
Cu2_2 O8 1_555 1_555
N1_2 C1_2 1_555 1_555
C1_2 H1_2 1_555 1_555
C2_2 C1_2 1_555 1_555
H2_2 C2_2 1_555 1_555
C3_2 C2_2 1_555 1_555
H3_2 C3_2 1_555 1_555
C4_2 C3_2 1_555 1_555
H4_2 C4_2 1_555 1_555
C5_2 N1_2 1_555 1_555
C6_2 C5_2 1_555 1_555
H5_2 C6_2 1_555 1_555
H6_2 C6_2 1_555 1_555
N2_2 Cu1_2 1_555 1_555
H7_2 N2_2 1_555 1_555
C7_2 N2_2 1_555 1_555
H8_2 C7_2 1_555 1_555
C8_2 C7_2 1_555 1_555
C9_2 C7_2 1_555 1_555
H9_2 C9_2 1_555 1_555
H10_2 C9_2 1_555 1_555
H11_2 C9_2 1_555 1_555
O1_2 Cu1_2 1_555 1_555
O2_2 C8_2 1_555 1_555
C10_2 H12_2 1_555 1_555
C11_2 C10_2 1_555 1_555
H13_2 C11_2 1_555 1_555
N3_2 Cu2_2 1_555 1_555
C12_2 C11_2 1_555 1_555
H14_2 C12_2 1_555 1_555
C13_2 C12_2 1_555 1_555
H15_2 C13_2 1_555 1_555
C14_2 N3_2 1_555 1_555
C15_2 C14_2 1_555 1_555
H16_2 C15_2 1_555 1_555
H17_2 C15_2 1_555 1_555
C16_2 H18_2 1_555 1_555
N4_2 Cu2_2 1_555 1_555
H19_2 N4_2 1_555 1_555
C17_2 C16_2 1_555 1_555
C18_2 C16_2 1_555 1_555
H20_2 C18_2 1_555 1_555
H21_2 C18_2 1_555 1_555
H22_2 C18_2 1_555 1_555
O3_2 Cu2_2 1_555 1_555
O4_2 C17_2 1_555 1_555
O5_2 Cu1_2 1_555 1_555
O6_2 Cu2_2 1_555 1_555
C19_2 O5_2 1_555 1_555
C20_2 C19_2 1_555 1_555
H23_2 C20_2 1_555 1_555
H24_2 C20_2 1_555 1_555
H25_2 C20_2 1_555 1_555
O7_2 C21_2 1_555 1_555
O7_3 Cu1_2 1_555 1_555
O8_2 Cu2 1_555 1_555
C21_2 O8_2 1_555 1_555
C22_2 C21_2 1_555 1_555
H26_2 C22_2 1_555 1_555
H27_2 C22_2 1_555 1_555
H28_2 C22_2 1_555 1_555
H29A O9 1_555 1_555
C4 C5 1_555 1_555
C6 N2 1_555 1_555
C8 O1 1_555 1_555
C13 C14 1_555 1_555
C15 N4 1_555 1_555
C16 N4 1_555 1_555
C17 O3 1_555 1_555
O6 C19 1_555 1_555
C4_2 C5_2 1_555 1_555
C6_2 N2_2 1_555 1_555
C8_2 O1_2 1_555 1_555
C10_2 N3_2 1_555 1_555
C13_2 C14_2 1_555 1_555
C15_2 N4_2 1_555 1_555
C16_2 N4_2 1_555 1_555
C17_2 O3_2 1_555 1_555
O6_2 C19_2 1_555 1_555

#END
