
#######################################################################
#
#                 Cambridge Crystallographic Data Centre
#                                CCDC 
#
#######################################################################
#
# If this CIF has been generated from an entry in the Cambridge 
# Structural Database, then it will include bibliographic, chemical, 
# crystal, experimental, refinement or atomic coordinate data resulting 
# from the CCDC's data processing and validation procedures.
#
#######################################################################

data_LEPBUE
_symmetry_cell_setting           monoclinic
_symmetry_space_group_name_H-M   'C 2/c'
_symmetry_Int_Tables_number      15
_space_group_name_Hall           '-C 2yn'
loop_
_symmetry_equiv_pos_site_id
_symmetry_equiv_pos_as_xyz
1 x,y,z
2 1/2+x,1/2+y,z
3 -x,y,1/2-z
4 1/2-x,1/2+y,1/2-z
5 -x,-y,-z
6 1/2-x,1/2-y,-z
7 x,-y,1/2+z
8 1/2+x,1/2-y,1/2+z
_cell_length_a                   17.3058(6)
_cell_length_b                   11.1741(4)
_cell_length_c                   20.8796(5)
_cell_angle_alpha                90
_cell_angle_beta                 95.374(2)
_cell_angle_gamma                90
_cell_volume                     4019.88
loop_
_atom_site_label
_atom_site_type_symbol
_atom_site_fract_x
_atom_site_fract_y
_atom_site_fract_z
Ni1 Ni 0.2500 0.2500 0.5000
Ni2 Ni 0.5000 0.0000 0.5000
O3 O 0.45192(13) 0.0035(2) 0.58676(10)
O4 O 0.40424(16) -0.1815(2) 0.59257(12)
O5 O 0.30134(12) 0.1863(2) 0.41693(10)
O6 O 0.39459(13) 0.0724(2) 0.46399(10)
N1 N 0.13679(15) 0.2068(2) 0.45712(13)
H1 H 0.1051 0.2695 0.4661
H2 H 0.1396 0.2076 0.4133
N2 N 0.26372(15) 0.0857(2) 0.54790(12)
H3 H 0.3069 0.0503 0.5337
H4 H 0.2761 0.1033 0.5907
N3 N 0.19562(16) -0.1407(3) 0.37518(12)
H5 H 0.1812 -0.1103 0.3354
H6 H 0.1648 -0.2041 0.3827
H7 H 0.2459 -0.1651 0.3772
C1 C 0.09442(19) 0.0943(3) 0.47183(16)
H8 H 0.0379 0.1139 0.4707
C2 C 0.10417(19) -0.0007(3) 0.42087(17)
H9 H 0.0687 -0.0684 0.4270
H10 H 0.0900 0.0337 0.3777
C3 C 0.18739(19) -0.0464(3) 0.42480(15)
H11 H 0.2224 0.0219 0.4166
C4 C 0.2121(2) -0.0976(3) 0.49147(16)
H12 H 0.1807 -0.1699 0.4982
H13 H 0.2672 -0.1224 0.4933
C5 C 0.20238(19) -0.0087(3) 0.54561(15)
H14 H 0.2085 -0.0535 0.5872
C6 C 0.1212(2) 0.0477(3) 0.53881(17)
H15 H 0.0834 -0.0128 0.5510
H16 H 0.1205 0.1148 0.5697
C9 C 0.41822(19) -0.0780(3) 0.61515(16)
C10 C 0.3935(2) -0.0505(4) 0.68060(17)
H20 H 0.4325 -0.0810 0.7136
H21 H 0.3435 -0.0888 0.6854
H22 H 0.3885 0.0363 0.6855
C11 C 0.35917(18) 0.1172(3) 0.41425(15)
C12 C 0.3834(2) 0.0886(4) 0.34892(16)
H23 H 0.4129 0.1559 0.3336
H24 H 0.3372 0.0746 0.3190
H25 H 0.4159 0.0166 0.3515
O7 O 0.53529(13) 0.1737(2) 0.51851(11)
H26 H 0.5550(19) 0.187(4) 0.4843(10)
H27 H 0.5693(16) 0.180(4) 0.5481(11)
Ni2A Ni 0.0000 0.5000 0.5000
O3D O 0.54808(13) -0.0035(2) 0.41324(10)
O4D O 0.59576(16) 0.1815(2) 0.40743(12)
O5E O 0.19866(12) 0.3137(2) 0.58307(10)
O6E O 0.10541(13) 0.4276(2) 0.53601(10)
O6D O 0.60541(13) -0.0724(2) 0.53601(10)
N1E N 0.36321(15) 0.2932(2) 0.54288(13)
H1E H 0.3949 0.2305 0.5339
H2E H 0.3604 0.2924 0.5867
N2E N 0.23628(15) 0.4143(2) 0.45210(12)
H3E H 0.1931 0.4497 0.4663
H4E H 0.2239 0.3967 0.4093
N3E N 0.30438(16) 0.6407(3) 0.62482(12)
H5E H 0.3188 0.6103 0.6646
H6E H 0.3352 0.7041 0.6173
H7E H 0.2541 0.6651 0.6228
C1E C 0.40558(19) 0.4057(3) 0.52817(16)
H8E H 0.4621 0.3861 0.5293
C2E C 0.39583(19) 0.5007(3) 0.57913(17)
H9E H 0.4313 0.5684 0.5730
H10E H 0.4100 0.4663 0.6223
C3E C 0.31261(19) 0.5464(3) 0.57520(15)
H11E H 0.2776 0.4781 0.5834
C4E C 0.2879(2) 0.5976(3) 0.50853(16)
H12E H 0.3193 0.6699 0.5018
H13E H 0.2328 0.6224 0.5067
C5E C 0.29762(19) 0.5087(3) 0.45439(15)
H14E H 0.2915 0.5535 0.4128
C6E C 0.3788(2) 0.4523(3) 0.46119(17)
H15E H 0.4166 0.5128 0.4490
H16E H 0.3795 0.3852 0.4303
C9D C 0.58178(19) 0.0780(3) 0.38485(16)
C10D C 0.6065(2) 0.0505(4) 0.31940(17)
H20D H 0.5675 0.0810 0.2864
H21D H 0.6565 0.0888 0.3146
H22D H 0.6115 -0.0363 0.3145
C11E C 0.14083(18) 0.3828(3) 0.58575(15)
C12E C 0.1166(2) 0.4114(4) 0.65108(16)
H23E H 0.0871 0.3441 0.6664
H24E H 0.1628 0.4254 0.6810
H25E H 0.0841 0.4834 0.6485
O7D O 0.46471(13) -0.1737(2) 0.48149(11)
H26D H 0.4450(19) -0.187(4) 0.5157(10)
H27D H 0.4307(16) -0.180(4) 0.4519(11)
O1 O 0.69239(15) 0.3150(2) 0.69923(11)
O2 O 0.65095(14) 0.2130(2) 0.61208(11)
C7 C 0.6387(2) 0.2706(3) 0.66189(16)
C8 C 0.5558(3) 0.2846(5) 0.6769(2)
H17 H 0.5220 0.2366 0.6467
H18 H 0.5407 0.3690 0.6729
H19 H 0.5508 0.2573 0.7209
O8 O 0.2848(2) 0.7892(3) 0.18194(15)
H28 H 0.302(3) 0.742(4) 0.212(2)
H29 H 0.253(3) 0.745(4) 0.159(2)
O9 O 0.3106(3) 0.4566(3) 0.25216(18)
H30 H 0.357(2) 0.473(5) 0.236(3)
H31 H 0.302(3) 0.529(3) 0.265(3)
O10 O 0.5000 0.3539(13) 0.2500
O11? O 0.5368(12) 0.369(2) 0.2041(10)
O12? O 0.5000 0.451(3) 0.2500
loop_
_geom_bond_atom_site_label_1
_geom_bond_atom_site_label_2
_geom_bond_site_symmetry_1
_geom_bond_site_symmetry_2
Ni1 O5 1_555 1_555
Ni2 O3 1_555 1_555
O1 C7 1_555 1_555
O2 C7 1_555 1_555
O3 C9 1_555 1_555
O4 C9 1_555 1_555
O5 C11 1_555 1_555
O6 Ni2 1_555 1_555
N1 Ni1 1_555 1_555
H1 N1 1_555 1_555
H2 N1 1_555 1_555
N2 Ni1 1_555 1_555
H3 N2 1_555 1_555
H4 N2 1_555 1_555
N3 H5 1_555 1_555
H6 N3 1_555 1_555
H7 N3 1_555 1_555
C1 N1 1_555 1_555
H8 C1 1_555 1_555
C2 C1 1_555 1_555
H9 C2 1_555 1_555
H10 C2 1_555 1_555
C3 N3 1_555 1_555
H11 C3 1_555 1_555
C4 C3 1_555 1_555
H12 C4 1_555 1_555
H13 C4 1_555 1_555
C5 N2 1_555 1_555
H14 C5 1_555 1_555
C6 C1 1_555 1_555
H15 C6 1_555 1_555
H16 C6 1_555 1_555
C7 C8 1_555 1_555
C8 H17 1_555 1_555
H18 C8 1_555 1_555
H19 C8 1_555 1_555
C9 C10 1_555 1_555
C10 H20 1_555 1_555
H21 C10 1_555 1_555
H22 C10 1_555 1_555
C11 O6 1_555 1_555
C12 C11 1_555 1_555
H23 C12 1_555 1_555
H24 C12 1_555 1_555
H25 C12 1_555 1_555
O7 Ni2 1_555 1_555
H26 O7 1_555 1_555
H27 O7 1_555 1_555
O8 H28 1_555 1_555
H29 O8 1_555 1_555
O9 H30 1_555 1_555
H31 O9 1_555 1_555
Ni2A O6E 1_555 1_555
O3D Ni2 1_555 1_555
O4D C9D 1_555 1_555
O5E Ni1 1_555 1_555
O6E C11E 1_555 1_555
O6D Ni2 1_555 1_555
N1E Ni1 1_555 1_555
H1E N1E 1_555 1_555
H2E N1E 1_555 1_555
N2E Ni1 1_555 1_555
H3E N2E 1_555 1_555
H4E N2E 1_555 1_555
N3E H5E 1_555 1_555
H6E N3E 1_555 1_555
H7E N3E 1_555 1_555
C1E N1E 1_555 1_555
H8E C1E 1_555 1_555
C2E C1E 1_555 1_555
H9E C2E 1_555 1_555
H10E C2E 1_555 1_555
C3E N3E 1_555 1_555
H11E C3E 1_555 1_555
C4E C3E 1_555 1_555
H12E C4E 1_555 1_555
H13E C4E 1_555 1_555
C5E N2E 1_555 1_555
H14E C5E 1_555 1_555
C6E C1E 1_555 1_555
H15E C6E 1_555 1_555
H16E C6E 1_555 1_555
C9D O3D 1_555 1_555
C10D C9D 1_555 1_555
H20D C10D 1_555 1_555
H21D C10D 1_555 1_555
H22D C10D 1_555 1_555
C11E O5E 1_555 1_555
C12E C11E 1_555 1_555
H23E C12E 1_555 1_555
H24E C12E 1_555 1_555
H25E C12E 1_555 1_555
O7D Ni2 1_555 1_555
H26D O7D 1_555 1_555
H27D O7D 1_555 1_555
C2 C3 1_555 1_555
C4 C5 1_555 1_555
C5 C6 1_555 1_555
C2E C3E 1_555 1_555
C4E C5E 1_555 1_555
C5E C6E 1_555 1_555

#END
