
#######################################################################
#
#                 Cambridge Crystallographic Data Centre
#                                CCDC 
#
#######################################################################
#
# If this CIF has been generated from an entry in the Cambridge 
# Structural Database, then it will include bibliographic, chemical, 
# crystal, experimental, refinement or atomic coordinate data resulting 
# from the CCDC's data processing and validation procedures.
#
#######################################################################

data_LEPCOZ
_symmetry_cell_setting           monoclinic
_symmetry_space_group_name_H-M   'P 21/c'
_symmetry_Int_Tables_number      14
_space_group_name_Hall           '-P 2ybc'
loop_
_symmetry_equiv_pos_site_id
_symmetry_equiv_pos_as_xyz
1 x,y,z
2 -x,1/2+y,1/2-z
3 -x,-y,-z
4 x,1/2-y,1/2+z
_cell_length_a                   7.3546(1)
_cell_length_b                   18.5094(2)
_cell_length_c                   13.0060(2)
_cell_angle_alpha                90
_cell_angle_beta                 92.963(1)
_cell_angle_gamma                90
_cell_volume                     1768.13
loop_
_atom_site_label
_atom_site_type_symbol
_atom_site_fract_x
_atom_site_fract_y
_atom_site_fract_z
Zn1 Zn 0.37633(4) 0.295599(17) 0.45679(2)
O1 O 0.3952(3) 0.40799(12) 0.49995(17)
H1 H 0.484(5) 0.424(2) 0.536(3)
H2 H 0.379(7) 0.439(2) 0.455(3)
N1 N 0.1701(3) 0.28105(14) 0.56378(19)
C1 C 0.0347(4) 0.27520(15) 0.6057(2)
N2 N -0.1108(3) 0.26778(16) 0.65852(19)
C2 C -0.2689(4) 0.27572(15) 0.6099(2)
N3 N -0.4137(3) 0.28216(13) 0.5725(2)
N4 N 0.1663(3) 0.32770(14) 0.3482(2)
C3 C 0.0192(4) 0.34823(15) 0.3286(2)
N5 N -0.1399(3) 0.37683(14) 0.3046(2)
C4 C -0.2852(4) 0.34092(15) 0.3278(2)
N6 N -0.4225(4) 0.31408(15) 0.3459(2)
N7 N 0.3522(3) 0.18195(13) 0.40852(18)
C5 C 0.3331(4) 0.17315(16) 0.3070(2)
H3 H 0.3508 0.2139 0.2642
C6 C 0.2882(4) 0.10692(16) 0.2598(2)
H4 H 0.2786 0.1031 0.1869
C7 C 0.2585(4) 0.04778(15) 0.3200(2)
H5 H 0.2256 0.0028 0.2893
C8 C 0.2775(4) 0.05444(14) 0.4282(2)
C9 C 0.3295(4) 0.12256(15) 0.4698(2)
C10 C 0.2491(4) -0.00548(14) 0.4976(2)
C11 C 0.1868(4) -0.07432(15) 0.4641(2)
H6 H 0.1623 -0.0836 0.3929
C12 C 0.1621(4) -0.12758(16) 0.5357(2)
H7 H 0.1195 -0.1740 0.5144
C13 C 0.2001(4) -0.11289(16) 0.6400(2)
H8 H 0.1832 -0.1503 0.6885
N8 N 0.2588(3) -0.04892(13) 0.67428(18)
C14 C 0.2809(4) 0.00486(14) 0.6046(2)
C15 C 0.3382(4) 0.07383(15) 0.6435(2)
H9 H 0.3613 0.0801 0.7155
C16 C 0.3600(4) 0.13061(15) 0.5791(2)
H10 H 0.3959 0.1762 0.6067
Zn1_2 Zn -0.62367(4) 0.295599(17) 0.45679(2)
N3_2 N 0.5863(3) 0.28216(13) 0.5725(2)
N6_2 N 0.5775(4) 0.31408(15) 0.3459(2)
C17 C 0.1411(5) 0.5433(2) 0.4149(3)
H11 H 0.1476 0.5539 0.4888
H12 H 0.0666 0.5000 0.4018
H13 H 0.0862 0.5843 0.3772
O2 O 0.3185(3) 0.53112(12) 0.38171(17)
H14 H 0.313(7) 0.534(3) 0.3174(15)
loop_
_geom_bond_atom_site_label_1
_geom_bond_atom_site_label_2
_geom_bond_site_symmetry_1
_geom_bond_site_symmetry_2
Zn1 O1 1_555 1_555
O1 H1 1_555 1_555
H2 O1 1_555 1_555
N1 Zn1 1_555 1_555
C1 N1 1_555 1_555
N2 C1 1_555 1_555
C2 N2 1_555 1_555
N3 C2 1_555 1_555
N4 Zn1 1_555 1_555
C3 N4 1_555 1_555
N5 C3 1_555 1_555
C4 N5 1_555 1_555
N6 C4 1_555 1_555
N7 Zn1 1_555 1_555
C5 N7 1_555 1_555
H3 C5 1_555 1_555
C6 C5 1_555 1_555
H4 C6 1_555 1_555
C7 C6 1_555 1_555
H5 C7 1_555 1_555
C8 C7 1_555 1_555
C9 N7 1_555 1_555
C10 C8 1_555 1_555
C11 C10 1_555 1_555
H6 C11 1_555 1_555
C12 C11 1_555 1_555
H7 C12 1_555 1_555
C13 C12 1_555 1_555
H8 C13 1_555 1_555
N8 C13 1_555 1_555
C14 C10 1_555 1_555
C15 C14 1_555 1_555
H9 C15 1_555 1_555
C16 C9 1_555 1_555
H10 C16 1_555 1_555
C17 H11 1_555 1_555
H12 C17 1_555 1_555
H13 C17 1_555 1_555
O2 C17 1_555 1_555
H14 O2 1_555 1_555
Zn1_2 N3 1_555 1_555
N3_2 Zn1 1_555 1_555
N6_2 Zn1 1_555 1_555
N6 Zn1_2 1_555 1_555
C8 C9 1_555 1_555
N8 C14 1_555 1_555
C15 C16 1_555 1_555

#END
