
#######################################################################
#
#                 Cambridge Crystallographic Data Centre
#                                CCDC 
#
#######################################################################
#
# If this CIF has been generated from an entry in the Cambridge 
# Structural Database, then it will include bibliographic, chemical, 
# crystal, experimental, refinement or atomic coordinate data resulting 
# from the CCDC's data processing and validation procedures.
#
#######################################################################

data_LEPCUF
_symmetry_cell_setting           monoclinic
_symmetry_space_group_name_H-M   'P 21/c'
_symmetry_Int_Tables_number      14
_space_group_name_Hall           '-P 2ybc'
loop_
_symmetry_equiv_pos_site_id
_symmetry_equiv_pos_as_xyz
1 x,y,z
2 -x,1/2+y,1/2-z
3 -x,-y,-z
4 x,1/2-y,1/2+z
_cell_length_a                   7.5852(1)
_cell_length_b                   18.7913(2)
_cell_length_c                   13.0245(2)
_cell_angle_alpha                90
_cell_angle_beta                 92.461(1)
_cell_angle_gamma                90
_cell_volume                     1854.74
loop_
_atom_site_label
_atom_site_type_symbol
_atom_site_fract_x
_atom_site_fract_y
_atom_site_fract_z
Cd1 Cd 0.380016(19) 0.294034(8) 0.454746(11)
O1 O 0.4006(2) 0.41330(9) 0.50199(13)
H1 H 0.489(3) 0.4276(16) 0.535(2)
H2 H 0.385(4) 0.4438(14) 0.4577(18)
N1 N 0.1613(2) 0.27805(10) 0.57081(14)
C1 C 0.0299(3) 0.27150(12) 0.61165(16)
N2 N -0.1112(2) 0.26273(12) 0.66403(14)
C2 C -0.2650(3) 0.27359(11) 0.61755(16)
N3 N -0.4064(3) 0.28201(10) 0.58401(15)
N4 N 0.1624(3) 0.33056(11) 0.33772(15)
C3 C 0.0199(3) 0.35081(11) 0.32462(16)
N5 N -0.1356(2) 0.38020(10) 0.30687(15)
C4 C -0.2764(3) 0.34230(12) 0.32280(16)
N6 N -0.4096(3) 0.31377(11) 0.33398(15)
N7 N 0.3539(2) 0.17390(10) 0.40350(13)
C5 C 0.3317(3) 0.16515(12) 0.30240(17)
H3 H 0.3505 0.2048 0.2590
C6 C 0.2822(3) 0.10041(12) 0.25708(17)
H4 H 0.2696 0.0963 0.1844
C7 C 0.2519(3) 0.04289(12) 0.31870(16)
H5 H 0.2152 -0.0012 0.2891
C8 C 0.2755(3) 0.04964(11) 0.42621(16)
C9 C 0.3308(3) 0.11644(11) 0.46591(15)
C10 C 0.2476(3) -0.00874(11) 0.49675(16)
C11 C 0.1844(3) -0.07637(12) 0.46558(17)
H6 H 0.1584 -0.0861 0.3950
C12 C 0.1610(3) -0.12792(12) 0.53834(17)
H7 H 0.1168 -0.1735 0.5187
C13 C 0.2026(3) -0.11284(12) 0.64146(18)
H8 H 0.1876 -0.1494 0.6907
N8 N 0.2620(3) -0.05006(10) 0.67419(14)
C14 C 0.2828(3) 0.00234(11) 0.60323(16)
C15 C 0.3420(3) 0.07025(11) 0.63989(16)
H9 H 0.3667 0.0769 0.7114
C16 C 0.3636(3) 0.12523(11) 0.57442(16)
H10 H 0.4009 0.1702 0.6007
Cd1_2 Cd -0.619984(19) 0.294034(8) 0.454746(11)
N3_2 N 0.5936(3) 0.28201(10) 0.58401(15)
N6_2 N 0.5904(3) 0.31377(11) 0.33398(15)
C17 C 0.1440(4) 0.54528(15) 0.4156(2)
H11 H 0.1493 0.5524 0.4903
H12 H 0.0672 0.5047 0.3983
H13 H 0.0966 0.5882 0.3818
O2 O 0.3162(2) 0.53161(9) 0.38175(12)
H14 H 0.312(4) 0.5360(16) 0.3185(14)
loop_
_geom_bond_atom_site_label_1
_geom_bond_atom_site_label_2
_geom_bond_site_symmetry_1
_geom_bond_site_symmetry_2
Cd1 O1 1_555 1_555
O1 H1 1_555 1_555
H2 O1 1_555 1_555
N1 Cd1 1_555 1_555
C1 N1 1_555 1_555
N2 C1 1_555 1_555
C2 N2 1_555 1_555
N3 C2 1_555 1_555
N4 Cd1 1_555 1_555
C3 N4 1_555 1_555
N5 C3 1_555 1_555
C4 N5 1_555 1_555
N6 C4 1_555 1_555
N7 Cd1 1_555 1_555
C5 N7 1_555 1_555
H3 C5 1_555 1_555
C6 C5 1_555 1_555
H4 C6 1_555 1_555
C7 C6 1_555 1_555
H5 C7 1_555 1_555
C8 C7 1_555 1_555
C9 N7 1_555 1_555
C10 C8 1_555 1_555
C11 C10 1_555 1_555
H6 C11 1_555 1_555
C12 C11 1_555 1_555
H7 C12 1_555 1_555
C13 C12 1_555 1_555
H8 C13 1_555 1_555
N8 C13 1_555 1_555
C14 C10 1_555 1_555
C15 C14 1_555 1_555
H9 C15 1_555 1_555
C16 C9 1_555 1_555
H10 C16 1_555 1_555
C17 H11 1_555 1_555
H12 C17 1_555 1_555
H13 C17 1_555 1_555
O2 C17 1_555 1_555
H14 O2 1_555 1_555
Cd1_2 N3 1_555 1_555
N3_2 Cd1 1_555 1_555
N6_2 Cd1 1_555 1_555
N6 Cd1_2 1_555 1_555
C8 C9 1_555 1_555
N8 C14 1_555 1_555
C15 C16 1_555 1_555

#END
