
#######################################################################
#
#                 Cambridge Crystallographic Data Centre
#                                CCDC 
#
#######################################################################
#
# If this CIF has been generated from an entry in the Cambridge 
# Structural Database, then it will include bibliographic, chemical, 
# crystal, experimental, refinement or atomic coordinate data resulting 
# from the CCDC's data processing and validation procedures.
#
#######################################################################

data_LEPCEP
_symmetry_cell_setting           monoclinic
_symmetry_space_group_name_H-M   'P 21/c'
_symmetry_Int_Tables_number      14
_space_group_name_Hall           '-P 2ybc'
loop_
_symmetry_equiv_pos_site_id
_symmetry_equiv_pos_as_xyz
1 x,y,z
2 -x,1/2+y,1/2-z
3 -x,-y,-z
4 x,1/2-y,1/2+z
_cell_length_a                   7.3943(1)
_cell_length_b                   18.4655(2)
_cell_length_c                   13.0301(2)
_cell_angle_alpha                90
_cell_angle_beta                 92.876(1)
_cell_angle_gamma                90
_cell_volume                     1776.88
loop_
_atom_site_label
_atom_site_type_symbol
_atom_site_fract_x
_atom_site_fract_y
_atom_site_fract_z
Fe1 Fe 0.37735(3) 0.297415(12) 0.457239(17)
O1 O 0.39831(19) 0.40905(7) 0.50083(10)
H1 H 0.487(4) 0.4275(14) 0.536(2)
H2 H 0.382(3) 0.4403(13) 0.4563(17)
N1 N 0.1697(2) 0.28158(8) 0.56432(11)
C1 C 0.0360(2) 0.27480(9) 0.60579(12)
N2 N -0.10813(19) 0.26594(9) 0.65867(10)
C2 C -0.2657(2) 0.27544(9) 0.61029(12)
N3 N -0.4098(2) 0.28263(8) 0.57304(11)
N4 N 0.16349(19) 0.32961(8) 0.34916(11)
C3 C 0.0176(2) 0.34946(9) 0.32784(12)
N5 N -0.14110(19) 0.37730(8) 0.30056(12)
C4 C -0.2849(2) 0.34148(9) 0.32587(12)
N6 N -0.4205(2) 0.31420(9) 0.34521(12)
N7 N 0.35182(19) 0.18143(8) 0.40816(10)
C5 C 0.3307(2) 0.17216(9) 0.30695(12)
H3 H 0.3477 0.2128 0.2637
C6 C 0.2846(2) 0.10569(9) 0.26084(12)
H4 H 0.2740 0.1015 0.1881
C7 C 0.2550(2) 0.04689(9) 0.32154(12)
H5 H 0.2201 0.0018 0.2915
C8 C 0.2770(2) 0.05390(8) 0.42922(12)
C9 C 0.3299(2) 0.12207(8) 0.46985(12)
C10 C 0.2492(2) -0.00597(8) 0.49908(11)
C11 C 0.1870(2) -0.07507(9) 0.46661(13)
H6 H 0.1619 -0.0847 0.3957
C12 C 0.1633(3) -0.12815(9) 0.53864(13)
H7 H 0.1198 -0.1746 0.5182
C13 C 0.2041(2) -0.11289(9) 0.64262(13)
H8 H 0.1899 -0.1504 0.6914
N8 N 0.2615(2) -0.04877(8) 0.67623(10)
C14 C 0.2826(2) 0.00490(9) 0.60583(12)
C15 C 0.3410(2) 0.07421(9) 0.64353(12)
H9 H 0.3653 0.0808 0.7152
C16 C 0.3622(2) 0.13063(9) 0.57890(12)
H10 H 0.3989 0.1764 0.6059
Fe1_2 Fe -0.62265(3) 0.297415(12) 0.457239(17)
N3_2 N 0.5902(2) 0.28263(8) 0.57304(11)
N6_2 N 0.5795(2) 0.31420(9) 0.34521(12)
C17 C 0.1427(3) 0.54371(12) 0.41522(16)
H11 H 0.1495 0.5564 0.4883
H12 H 0.0687 0.5001 0.4047
H13 H 0.0878 0.5838 0.3755
O2 O 0.31912(17) 0.53055(7) 0.38226(10)
H14 H 0.318(4) 0.5339(16) 0.3198(13)
loop_
_geom_bond_atom_site_label_1
_geom_bond_atom_site_label_2
_geom_bond_site_symmetry_1
_geom_bond_site_symmetry_2
Fe1 O1 1_555 1_555
O1 H1 1_555 1_555
H2 O1 1_555 1_555
N1 Fe1 1_555 1_555
C1 N1 1_555 1_555
N2 C1 1_555 1_555
C2 N2 1_555 1_555
N3 C2 1_555 1_555
N4 Fe1 1_555 1_555
C3 N4 1_555 1_555
N5 C3 1_555 1_555
C4 N5 1_555 1_555
N6 C4 1_555 1_555
N7 Fe1 1_555 1_555
C5 N7 1_555 1_555
H3 C5 1_555 1_555
C6 C5 1_555 1_555
H4 C6 1_555 1_555
C7 C6 1_555 1_555
H5 C7 1_555 1_555
C8 C7 1_555 1_555
C9 N7 1_555 1_555
C10 C8 1_555 1_555
C11 C10 1_555 1_555
H6 C11 1_555 1_555
C12 C11 1_555 1_555
H7 C12 1_555 1_555
C13 C12 1_555 1_555
H8 C13 1_555 1_555
N8 C13 1_555 1_555
C14 C10 1_555 1_555
C15 C14 1_555 1_555
H9 C15 1_555 1_555
C16 C9 1_555 1_555
H10 C16 1_555 1_555
C17 H11 1_555 1_555
H12 C17 1_555 1_555
H13 C17 1_555 1_555
O2 C17 1_555 1_555
H14 O2 1_555 1_555
Fe1_2 N3 1_555 1_555
N3_2 Fe1 1_555 1_555
N6_2 Fe1 1_555 1_555
N6 Fe1_2 1_555 1_555
C8 C9 1_555 1_555
N8 C14 1_555 1_555
C15 C16 1_555 1_555

#END
