
#######################################################################
#
#                 Cambridge Crystallographic Data Centre
#                                CCDC 
#
#######################################################################
#
# If this CIF has been generated from an entry in the Cambridge 
# Structural Database, then it will include bibliographic, chemical, 
# crystal, experimental, refinement or atomic coordinate data resulting 
# from the CCDC's data processing and validation procedures.
#
#######################################################################

data_LEPFER
_symmetry_cell_setting           monoclinic
_symmetry_space_group_name_H-M   'P 21/c'
_symmetry_Int_Tables_number      14
_space_group_name_Hall           '-P 2ybc'
loop_
_symmetry_equiv_pos_site_id
_symmetry_equiv_pos_as_xyz
1 x,y,z
2 -x,1/2+y,1/2-z
3 -x,-y,-z
4 x,1/2-y,1/2+z
_cell_length_a                   9.688(2)
_cell_length_b                   9.903(2)
_cell_length_c                   19.347(6)
_cell_angle_alpha                90
_cell_angle_beta                 115.69(6)
_cell_angle_gamma                90
_cell_volume                     1672.68
loop_
_atom_site_label
_atom_site_type_symbol
_atom_site_fract_x
_atom_site_fract_y
_atom_site_fract_z
Sb1 Sb 0.11216(7) 0.35430(6) 0.33184(3)
C1 C -0.093(1) 0.2651(9) 0.3281(5)
C2 C -0.137(1) 0.278(1) 0.3881(7)
C3 C -0.279(1) 0.231(1) 0.3797(7)
C4 C -0.375(1) 0.164(1) 0.3132(8)
C5 C -0.330(1) 0.148(1) 0.2558(7)
C6 C -0.192(1) 0.200(1) 0.2619(6)
C7 C 0.273(1) 0.2599(9) 0.4356(5)
C8 C 0.237(1) 0.145(1) 0.4639(6)
C9 C 0.346(2) 0.084(1) 0.5298(7)
C10 C 0.491(2) 0.139(1) 0.5673(8)
C11 C 0.527(1) 0.251(1) 0.5380(7)
C12 C 0.420(1) 0.314(1) 0.4729(6)
As1 As -0.0930(1) 0.66006(9) 0.34959(5)
S1 S 0.1067(3) 0.5498(2) 0.4245(1)
S2 S 0.1703(3) 0.1153(2) 0.2687(1)
C13 C -0.256(1) 0.621(1) 0.3769(7)
C14 C -0.042(2) 0.845(1) 0.3754(7)
H1 H -0.3497 0.6732 0.3425
H2 H -0.2253 0.6510 0.4315
H3 H -0.2783 0.5234 0.3722
H4 H -0.1274 0.9071 0.3391
H5 H -0.0128 0.8674 0.4275
H6 H 0.0517 0.8707 0.3623
H7 H -0.0696 0.3276 0.4340
H8 H -0.3096 0.2415 0.4225
H9 H -0.4795 0.1298 0.3043
H10 H -0.3987 0.0944 0.2099
H11 H -0.1621 0.1844 0.2183
H12 H 0.1319 0.1011 0.4331
H13 H 0.3227 0.0022 0.5529
H14 H 0.5715 0.0970 0.6157
H15 H 0.6327 0.2937 0.5664
H16 H 0.4445 0.3960 0.4502
S2A S -0.1703(3) 0.6153(2) 0.2313(1)
As1A As 0.0930(1) 0.16006(9) 0.15041(5)
Sb1A Sb -0.11216(7) 0.85430(6) 0.16816(3)
S1A S -0.1067(3) 0.0498(2) 0.0755(1)
C13A C 0.256(1) 0.121(1) 0.1231(7)
C14A C 0.042(2) 0.345(1) 0.1246(7)
C1A C 0.093(1) 0.7651(9) 0.1719(5)
C7A C -0.273(1) 0.7599(9) 0.0644(5)
S1A_2 S -0.1067(3) 1.0498(2) 0.0755(1)
Sb1A_2 Sb -0.11216(7) -0.14570(6) 0.16816(3)
H1A H 0.3497 0.1732 0.1575
H2A H 0.2253 0.1510 0.0685
H3A H 0.2783 0.0234 0.1278
H4A H 0.1274 0.4071 0.1609
H5A H 0.0128 0.3674 0.0725
H6A H -0.0517 0.3707 0.1377
C2A C 0.137(1) 0.778(1) 0.1119(7)
C6A C 0.192(1) 0.700(1) 0.2381(6)
C8A C -0.237(1) 0.645(1) 0.0361(6)
C12A C -0.420(1) 0.814(1) 0.0271(6)
C3A C 0.279(1) 0.731(1) 0.1203(7)
H7A H 0.0696 0.8276 0.0660
C5A C 0.330(1) 0.648(1) 0.2442(7)
H11A H 0.1621 0.6844 0.2817
C9A C -0.346(2) 0.584(1) -0.0298(7)
H12A H -0.1319 0.6011 0.0669
C11A C -0.527(1) 0.751(1) -0.0380(7)
H16A H -0.4445 0.8960 0.0498
C4A C 0.375(1) 0.664(1) 0.1868(8)
H8A H 0.3096 0.7415 0.0775
H10A H 0.3987 0.5944 0.2901
C10A C -0.491(2) 0.639(1) -0.0673(8)
H13A H -0.3227 0.5022 -0.0529
H15A H -0.6327 0.7937 -0.0664
H9A H 0.4795 0.6298 0.1957
H14A H -0.5715 0.5970 -0.1157
loop_
_geom_bond_atom_site_label_1
_geom_bond_atom_site_label_2
_geom_bond_site_symmetry_1
_geom_bond_site_symmetry_2
Sb1 C1 1_555 1_555
C1 C2 1_555 1_555
C2 C3 1_555 1_555
C3 C4 1_555 1_555
C4 C5 1_555 1_555
C5 C6 1_555 1_555
C6 C1 1_555 1_555
C7 Sb1 1_555 1_555
C8 C7 1_555 1_555
C9 C8 1_555 1_555
C10 C9 1_555 1_555
C11 C10 1_555 1_555
C12 C7 1_555 1_555
As1 S1 1_555 1_555
S1 Sb1 1_555 1_555
S2 Sb1 1_555 1_555
C13 As1 1_555 1_555
C14 As1 1_555 1_555
H1 C13 1_555 1_555
H2 C13 1_555 1_555
H3 C13 1_555 1_555
H4 C14 1_555 1_555
H5 C14 1_555 1_555
H6 C14 1_555 1_555
H7 C2 1_555 1_555
H8 C3 1_555 1_555
H9 C4 1_555 1_555
H10 C5 1_555 1_555
H11 C6 1_555 1_555
H12 C8 1_555 1_555
H13 C9 1_555 1_555
H14 C10 1_555 1_555
H15 C11 1_555 1_555
H16 C12 1_555 1_555
S2A As1 1_555 1_555
As1A S2 1_555 1_555
Sb1A S2A 1_555 1_555
S1A As1A 1_555 1_555
C13A As1A 1_555 1_555
C14A As1A 1_555 1_555
C1A Sb1A 1_555 1_555
C7A Sb1A 1_555 1_555
S1A_2 Sb1A 1_555 1_555
Sb1A_2 S1A 1_555 1_555
H1A C13A 1_555 1_555
H2A C13A 1_555 1_555
H3A C13A 1_555 1_555
H4A C14A 1_555 1_555
H5A C14A 1_555 1_555
H6A C14A 1_555 1_555
C2A C1A 1_555 1_555
C6A C1A 1_555 1_555
C8A C7A 1_555 1_555
C12A C7A 1_555 1_555
C3A C2A 1_555 1_555
H7A C2A 1_555 1_555
C5A C6A 1_555 1_555
H11A C6A 1_555 1_555
C9A C8A 1_555 1_555
H12A C8A 1_555 1_555
C11A C12A 1_555 1_555
H16A C12A 1_555 1_555
C4A C3A 1_555 1_555
H8A C3A 1_555 1_555
H10A C5A 1_555 1_555
C10A C9A 1_555 1_555
H13A C9A 1_555 1_555
H15A C11A 1_555 1_555
H9A C4A 1_555 1_555
H14A C10A 1_555 1_555
C11 C12 1_555 1_555
C5A C4A 1_555 1_555
C11A C10A 1_555 1_555

#END
