
#######################################################################
#
#                 Cambridge Crystallographic Data Centre
#                                CCDC 
#
#######################################################################
#
# If this CIF has been generated from an entry in the Cambridge 
# Structural Database, then it will include bibliographic, chemical, 
# crystal, experimental, refinement or atomic coordinate data resulting 
# from the CCDC's data processing and validation procedures.
#
#######################################################################

data_LEPGET
_symmetry_cell_setting           triclinic
_symmetry_space_group_name_H-M   'P -1'
_symmetry_Int_Tables_number      2
_space_group_name_Hall           '-P 1'
loop_
_symmetry_equiv_pos_site_id
_symmetry_equiv_pos_as_xyz
1 x,y,z
2 -x,-y,-z
_cell_length_a                   8.5158(3)
_cell_length_b                   10.1552(3)
_cell_length_c                   10.78060(10)
_cell_angle_alpha                64.726(2)
_cell_angle_beta                 88.601(2)
_cell_angle_gamma                68.917(2)
_cell_volume                     777.353
loop_
_atom_site_label
_atom_site_type_symbol
_atom_site_fract_x
_atom_site_fract_y
_atom_site_fract_z
Mn1 Mn 0.2909(2) 1.02451(19) 0.35968(17)
O1 O 0.3933(10) 1.2013(10) 0.2783(8)
O2 O 0.1052(10) 1.1268(9) 0.4706(9)
O3 O 0.5078(10) 1.1587(10) 0.4820(8)
O4 O -0.1254(9) 1.1182(9) 0.5708(8)
N1 N 0.3873(11) 0.9128(10) 0.2177(9)
N2 N 0.1024(11) 1.1744(10) 0.1538(9)
C1 C 0.5298(14) 0.7869(13) 0.2482(11)
H1 H 0.5953 0.7392 0.3349
C2 C 0.5854(15) 0.7229(14) 0.1561(12)
H2 H 0.6876 0.6361 0.1804
C3 C 0.4879(17) 0.7894(16) 0.0292(15)
H3 H 0.5228 0.7457 -0.0320
C4 C 0.3347(14) 0.9237(14) -0.0094(12)
C5 C 0.2299(18) 1.0039(17) -0.1393(13)
H4 H 0.2610 0.9667 -0.2052
C6 C 0.0876(17) 1.1314(18) -0.1707(12)
H5 H 0.0198 1.1789 -0.2564
C7 C 0.0375(15) 1.1963(16) -0.0743(12)
C8 C -0.1011(16) 1.3359(16) -0.1024(14)
H6 H -0.1705 1.3915 -0.1883
C9 C -0.1370(16) 1.3924(17) -0.0071(16)
H7 H -0.2300 1.4853 -0.0262
C10 C -0.0299(15) 1.3067(14) 0.1205(14)
H8 H -0.0537 1.3457 0.1857
C11 C 0.1392(12) 1.1210(12) 0.0577(11)
C12 C 0.2886(13) 0.9792(13) 0.0918(11)
C13 C 0.5634(17) 1.3401(16) 0.2760(14)
H9 H 0.6280 1.3487 0.3420
H10 H 0.4766 1.4416 0.2186
H11 H 0.6377 1.3037 0.2190
C14 C 0.4812(13) 1.2238(12) 0.3524(11)
C15 C -0.0068(13) 1.0714(12) 0.5136(11)
Mn1A Mn 0.7091(2) 0.97549(19) 0.64032(17)
Mn1A_2 Mn -0.2909(2) 0.97549(19) 0.64032(17)
O1A O 0.6067(10) 0.7987(10) 0.7217(8)
O2A O -0.1052(10) 0.8732(9) 0.5294(9)
O2A_2 O 0.8948(10) 0.8732(9) 0.5294(9)
O3A O 0.4922(10) 0.8413(10) 0.5180(8)
O4A O 0.1254(9) 0.8818(9) 0.4292(8)
O4_2 O 0.8746(9) 1.1182(9) 0.5708(8)
N1A N 0.6127(11) 1.0872(10) 0.7823(9)
N2A N 0.8976(11) 0.8256(10) 0.8462(9)
C1A C 0.4702(14) 1.2131(13) 0.7518(11)
H1A H 0.4047 1.2608 0.6651
C2A C 0.4146(15) 1.2771(14) 0.8439(12)
H2A H 0.3124 1.3639 0.8196
C3A C 0.5121(17) 1.2106(16) 0.9708(15)
H3A H 0.4772 1.2543 1.0320
C4A C 0.6653(14) 1.0763(14) 1.0094(12)
C5A C 0.7701(18) 0.9961(17) 1.1393(13)
H4A H 0.7390 1.0333 1.2052
C6A C 0.9124(17) 0.8686(18) 1.1707(12)
H5A H 0.9802 0.8211 1.2564
C7A C 0.9625(15) 0.8037(16) 1.0743(12)
C8A C 1.1011(16) 0.6641(16) 1.1024(14)
H6A H 1.1705 0.6085 1.1883
C9A C 1.1370(16) 0.6076(17) 1.0071(16)
H7A H 1.2300 0.5147 1.0262
C10A C 1.0299(15) 0.6933(14) 0.8795(14)
H8A H 1.0537 0.6543 0.8143
C11A C 0.8608(12) 0.8790(12) 0.9423(11)
C12A C 0.7114(13) 1.0208(13) 0.9082(11)
C13A C 0.4366(17) 0.6599(16) 0.7240(14)
H9A H 0.3720 0.6513 0.6580
H10A H 0.5234 0.5584 0.7814
H11A H 0.3623 0.6963 0.7810
C14A C 0.5188(13) 0.7762(12) 0.6476(11)
C15A C 0.0068(13) 0.9286(12) 0.4864(11)
O5 O -0.3227(14) 0.4319(12) 1.5553(12)
O6 O -0.104(2) 0.5764(16) 1.5640(19)
loop_
_geom_bond_atom_site_label_1
_geom_bond_atom_site_label_2
_geom_bond_site_symmetry_1
_geom_bond_site_symmetry_2
Mn1 O1 1_555 1_555
O1 C14 1_555 1_555
O2 Mn1 1_555 1_555
O3 C14 1_555 1_555
O4 C15 1_555 1_555
N1 Mn1 1_555 1_555
N2 Mn1 1_555 1_555
C1 N1 1_555 1_555
H1 C1 1_555 1_555
C2 C1 1_555 1_555
H2 C2 1_555 1_555
C3 C2 1_555 1_555
H3 C3 1_555 1_555
C4 C3 1_555 1_555
C5 C4 1_555 1_555
H4 C5 1_555 1_555
C6 C5 1_555 1_555
H5 C6 1_555 1_555
C7 C6 1_555 1_555
C8 C7 1_555 1_555
H6 C8 1_555 1_555
C9 C8 1_555 1_555
H7 C9 1_555 1_555
C10 N2 1_555 1_555
H8 C10 1_555 1_555
C11 N2 1_555 1_555
C12 N1 1_555 1_555
C13 H9 1_555 1_555
H10 C13 1_555 1_555
H11 C13 1_555 1_555
C14 C13 1_555 1_555
C15 O2 1_555 1_555
Mn1A O3 1_555 1_555
Mn1A_2 O4 1_555 1_555
O1A Mn1A 1_555 1_555
O2A Mn1A_2 1_555 1_555
O2A_2 Mn1A 1_555 1_555
O3A Mn1 1_555 1_555
O4A Mn1 1_555 1_555
O4_2 Mn1A 1_555 1_555
N1A Mn1A 1_555 1_555
N2A Mn1A 1_555 1_555
C1A N1A 1_555 1_555
H1A C1A 1_555 1_555
C2A C1A 1_555 1_555
H2A C2A 1_555 1_555
C3A C2A 1_555 1_555
H3A C3A 1_555 1_555
C4A C3A 1_555 1_555
C5A C4A 1_555 1_555
H4A C5A 1_555 1_555
C6A C5A 1_555 1_555
H5A C6A 1_555 1_555
C7A C6A 1_555 1_555
C8A C7A 1_555 1_555
H6A C8A 1_555 1_555
C9A C8A 1_555 1_555
H7A C9A 1_555 1_555
C10A N2A 1_555 1_555
H8A C10A 1_555 1_555
C11A N2A 1_555 1_555
C12A N1A 1_555 1_555
C13A H9A 1_555 1_555
H10A C13A 1_555 1_555
H11A C13A 1_555 1_555
C14A O1A 1_555 1_555
C15A C15 1_555 1_555
C4 C12 1_555 1_555
C7 C11 1_555 1_555
C9 C10 1_555 1_555
C11 C12 1_555 1_555
O2A C15A 1_555 1_555
O3A C14A 1_555 1_555
O4A C15A 1_555 1_555
C4A C12A 1_555 1_555
C7A C11A 1_555 1_555
C9A C10A 1_555 1_555
C11A C12A 1_555 1_555
C13A C14A 1_555 1_555

#END
