
#######################################################################
#
#                 Cambridge Crystallographic Data Centre
#                                CCDC 
#
#######################################################################
#
# If this CIF has been generated from an entry in the Cambridge 
# Structural Database, then it will include bibliographic, chemical, 
# crystal, experimental, refinement or atomic coordinate data resulting 
# from the CCDC's data processing and validation procedures.
#
#######################################################################

data_LEPKUN01
_symmetry_cell_setting           monoclinic
_symmetry_space_group_name_H-M   'C 2/c'
_symmetry_Int_Tables_number      15
_space_group_name_Hall           '-C 2yn'
loop_
_symmetry_equiv_pos_site_id
_symmetry_equiv_pos_as_xyz
1 x,y,z
2 1/2+x,1/2+y,z
3 -x,y,1/2-z
4 1/2-x,1/2+y,1/2-z
5 -x,-y,-z
6 1/2-x,1/2-y,-z
7 x,-y,1/2+z
8 1/2+x,1/2-y,1/2+z
_cell_length_a                   19.1308(9)
_cell_length_b                   10.6088(5)
_cell_length_c                   16.2221(7)
_cell_angle_alpha                90
_cell_angle_beta                 108.7960(10)
_cell_angle_gamma                90
_cell_volume                     3116.78
loop_
_atom_site_label
_atom_site_type_symbol
_atom_site_fract_x
_atom_site_fract_y
_atom_site_fract_z
Zn1 Zn 0.431642(12) 0.83755(2) 0.089277(13)
Zn2 Zn 0.2500 0.7500 0.0000
O1 O 0.32015(8) 0.63774(13) 0.09609(9)
O2 O 0.41393(8) 0.74594(13) 0.18667(9)
O3 O 0.32470(8) 0.22968(13) 0.43359(9)
O4 O 0.44146(8) 0.28293(14) 0.50264(9)
C1 C 0.37131(11) 0.56282(18) 0.24006(12)
C2 C 0.43479(11) 0.55381(19) 0.31234(12)
H1 H 0.4753 0.6087 0.3178
C3 C 0.43891(11) 0.46469(19) 0.37644(12)
H2 H 0.4828 0.4567 0.4248
C4 C 0.37880(11) 0.38734(18) 0.36975(12)
C5 C 0.31477(11) 0.3974(2) 0.29773(13)
H3 H 0.2735 0.3451 0.2936
C6 C 0.31149(11) 0.4833(2) 0.23243(13)
H4 H 0.2686 0.4881 0.1825
C7 C 0.36683(11) 0.65494(17) 0.16861(12)
C8 C 0.38141(11) 0.29372(18) 0.43993(12)
O5 O 0.28740(8) 0.91933(13) 0.06610(8)
O6 O 0.39094(8) 1.00363(13) 0.05549(9)
C9 C 0.28554(12) 1.13492(19) 0.02434(13)
C10 C 0.21143(12) 1.14763(19) 0.01720(15)
H5 H 0.1851 1.0777 0.0290
C11 C 0.32425(12) 1.2373(2) 0.00715(15)
H6 H 0.3748 1.2287 0.0120
C12 C 0.32289(11) 1.00989(18) 0.04972(12)
O7 O 0.53628(8) 0.87613(15) 0.16048(10)
H7 H 0.5542 0.8328 0.2051
C13 C 0.58452(15) 0.9734(3) 0.14914(18)
H8 H 0.6278 0.9333 0.1390
H9 H 0.5582 1.0223 0.0963
C14 C 0.6103(3) 1.0584(3) 0.2205(2)
H10 H 0.5682 1.1027 0.2290
H11 H 0.6439 1.1198 0.2082
H12 H 0.6365 1.0113 0.2734
Zn1E Zn 0.068358(12) 0.66245(2) -0.089277(13)
Zn1F Zn 0.431642(12) 0.16245(2) 0.589277(13)
Zn1E_2 Zn 0.068358(12) 1.66245(2) -0.089277(13)
Zn1C Zn 0.068358(12) 1.33755(2) -0.589277(13)
Zn2F Zn 0.2500 0.2500 0.5000
Zn2_2 Zn 0.2500 1.7500 0.0000
Zn2F_2 Zn 0.2500 1.2500 -0.5000
O1E O 0.17985(8) 0.86226(13) -0.09609(9)
O2E O 0.08607(8) 0.75406(13) -0.18667(9)
O3E O 0.17530(8) 1.27032(13) -0.43359(9)
O3F O 0.32470(8) 0.77032(13) -0.06641(9)
O3C O 0.17530(8) 0.72968(13) 0.06641(9)
O4E O 0.05854(8) 1.21707(14) -0.50264(9)
O4F O 0.44146(8) 0.71707(14) 0.00264(9)
O4C O 0.05854(8) 0.78293(14) -0.00264(9)
C1E C 0.12869(11) 0.93718(18) -0.24006(12)
C2E C 0.06521(11) 0.94619(19) -0.31234(12)
H1E H 0.0247 0.8913 -0.3178
C3E C 0.06109(11) 1.03531(19) -0.37644(12)
H2E H 0.0172 1.0433 -0.4248
C4E C 0.12120(11) 1.11266(18) -0.36975(12)
C5E C 0.18523(11) 1.1026(2) -0.29773(13)
H3E H 0.2265 1.1549 -0.2936
C6E C 0.18851(11) 1.0167(2) -0.23243(13)
H4E H 0.2314 1.0119 -0.1825
C7E C 0.13317(11) 0.84506(17) -0.16861(12)
C8E C 0.11859(11) 1.20628(18) -0.43993(12)
O5E O 0.21260(8) 1.58067(13) -0.06610(8)
O5E_2 O 0.21260(8) 0.58067(13) -0.06610(8)
O6E O 0.10906(8) 1.49637(13) -0.05549(9)
O6E_2 O 0.10906(8) 0.49637(13) -0.05549(9)
C9E C 0.21446(12) 1.36508(19) -0.02434(13)
C10E C 0.28857(12) 1.35237(19) -0.01720(15)
H5E H 0.3149 1.4223 -0.0290
C11E C 0.17575(12) 1.2627(2) -0.00715(15)
H6E H 0.1252 1.2713 -0.0120
C12E C 0.17711(11) 1.49011(18) -0.04972(12)
O7E O -0.03628(8) 0.62387(15) -0.16048(10)
H7E H -0.0542 0.6672 -0.2051
C13E C -0.08452(15) 0.5266(3) -0.14914(18)
H8E H -0.1278 0.5667 -0.1390
H9E H -0.0582 0.4777 -0.0963
C14E C -0.1103(3) 0.4416(3) -0.2205(2)
H10E H -0.0682 0.3973 -0.2290
H11E H -0.1439 0.3802 -0.2082
H12E H -0.1365 0.4887 -0.2734
loop_
_geom_bond_atom_site_label_1
_geom_bond_atom_site_label_2
_geom_bond_site_symmetry_1
_geom_bond_site_symmetry_2
Zn1 O2 1_555 1_555
Zn2 O1 1_555 1_555
O1 C7 1_555 1_555
O2 C7 1_555 1_555
O3 C8 1_555 1_555
O4 C8 1_555 1_555
C1 C2 1_555 1_555
C2 H1 1_555 1_555
C3 C2 1_555 1_555
H2 C3 1_555 1_555
C4 C3 1_555 1_555
C5 C4 1_555 1_555
H3 C5 1_555 1_555
C6 C1 1_555 1_555
H4 C6 1_555 1_555
C7 C1 1_555 1_555
C8 C4 1_555 1_555
O5 Zn2 1_555 1_555
O6 Zn1 1_555 1_555
C9 C10 1_555 1_555
C10 H5 1_555 1_555
C11 C9 1_555 1_555
H6 C11 1_555 1_555
C12 O5 1_555 1_555
O7 Zn1 1_555 1_555
H7 O7 1_555 1_555
C13 O7 1_555 1_555
H8 C13 1_555 1_555
H9 C13 1_555 1_555
C14 C13 1_555 1_555
H10 C14 1_555 1_555
H11 C14 1_555 1_555
H12 C14 1_555 1_555
Zn1E O2E 1_555 1_555
Zn1F O4 1_555 1_555
Zn1E_2 O6E 1_555 1_555
Zn1C O4E 1_555 1_555
Zn2F O3 1_555 1_555
Zn2_2 O5E 1_555 1_555
Zn2F_2 O3E 1_555 1_555
O1E Zn2 1_555 1_555
O2E C7E 1_555 1_555
O3E C8E 1_555 1_555
O3F Zn2 1_555 1_555
O3C Zn2 1_555 1_555
O4E C8E 1_555 1_555
O4F Zn1 1_555 1_555
O4C Zn1E 1_555 1_555
C1E C2E 1_555 1_555
C2E H1E 1_555 1_555
C3E C2E 1_555 1_555
H2E C3E 1_555 1_555
C4E C3E 1_555 1_555
C5E C4E 1_555 1_555
H3E C5E 1_555 1_555
C6E C1E 1_555 1_555
H4E C6E 1_555 1_555
C7E O1E 1_555 1_555
C8E C4E 1_555 1_555
O5E C12E 1_555 1_555
O5E_2 Zn2 1_555 1_555
O6E C12E 1_555 1_555
O6E_2 Zn1E 1_555 1_555
C9E C10E 1_555 1_555
C10E C11 1_555 1_555
H5E C10E 1_555 1_555
C11E C10 1_555 1_555
H6E C11E 1_555 1_555
C12E C9E 1_555 1_555
O7E Zn1E 1_555 1_555
H7E O7E 1_555 1_555
C13E O7E 1_555 1_555
H8E C13E 1_555 1_555
H9E C13E 1_555 1_555
C14E C13E 1_555 1_555
H10E C14E 1_555 1_555
H11E C14E 1_555 1_555
H12E C14E 1_555 1_555
C5 C6 1_555 1_555
O6 C12 1_555 1_555
C9 C12 1_555 1_555
C1E C7E 1_555 1_555
C5E C6E 1_555 1_555
C9E C11E 1_555 1_555

#END
