
#######################################################################
#
#                 Cambridge Crystallographic Data Centre
#                                CCDC 
#
#######################################################################
#
# If this CIF has been generated from an entry in the Cambridge 
# Structural Database, then it will include bibliographic, chemical, 
# crystal, experimental, refinement or atomic coordinate data resulting 
# from the CCDC's data processing and validation procedures.
#
#######################################################################

data_LEPKAU
_symmetry_cell_setting           orthorhombic
_symmetry_space_group_name_H-M   'P 21 21 21'
_symmetry_Int_Tables_number      19
_space_group_name_Hall           'P 2ac 2ab'
loop_
_symmetry_equiv_pos_site_id
_symmetry_equiv_pos_as_xyz
1 x,y,z
2 1/2-x,-y,1/2+z
3 1/2+x,1/2-y,-z
4 -x,1/2+y,1/2-z
_cell_length_a                   9.658(3)
_cell_length_b                   6.877(2)
_cell_length_c                   23.201(3)
_cell_angle_alpha                90
_cell_angle_beta                 90
_cell_angle_gamma                90
_cell_volume                     1540.97
loop_
_atom_site_label
_atom_site_type_symbol
_atom_site_fract_x
_atom_site_fract_y
_atom_site_fract_z
Cu1 Cu 0.51073(3) -0.03098(5) -0.011414(13)
N1 N 0.3308(2) 0.0391(3) 0.01839(9)
N2 N 0.4126(2) -0.0287(4) -0.09144(9)
N3 N 0.6922(2) -0.0615(5) -0.04867(10)
N4 N 0.7984(3) -0.0722(4) -0.02312(10)
N5 N 0.9033(3) -0.0855(5) 0.00003(12)
O1 O 0.59595(17) -0.0178(3) 0.06216(7)
O2 O 0.4481(2) 0.0046(3) -0.21543(8)
O3 O 0.6524(2) 0.0019(3) 0.26111(8)
C1 C 0.3883(3) 0.0116(4) 0.11951(11)
C2 C 0.5342(3) -0.0043(4) 0.11239(10)
C3 C 0.6162(3) -0.0045(4) 0.16207(11)
H1 H 0.7119 -0.0102 0.1582
C4 C 0.5599(3) 0.0033(5) 0.21675(12)
C5 C 0.4156(3) 0.0101(5) 0.22411(12)
H2 H 0.3764 0.0102 0.2607
C6 C 0.3343(3) 0.0166(5) 0.17568(12)
H3 H 0.2389 0.0248 0.1803
C7 C 0.2958(3) 0.0355(5) 0.07154(12)
H4 H 0.2021 0.0497 0.0799
C8 C 0.2281(3) 0.0818(5) -0.02608(13)
H5 H 0.2313 0.2187 -0.0361
H6 H 0.1360 0.0517 -0.0121
C9 C 0.2612(3) -0.0403(5) -0.07798(12)
H7 H 0.2357 -0.1744 -0.0706
H8 H 0.2081 0.0052 -0.1108
C10 C 0.4512(3) 0.1555(4) -0.12119(11)
H9 H 0.5513 0.1682 -0.1211
H10 H 0.4133 0.2644 -0.0998
C11 C 0.4001(4) 0.1653(5) -0.18259(13)
H11 H 0.2997 0.1667 -0.1828
H12 H 0.4321 0.2851 -0.2002
C12 C 0.4038(4) -0.1723(4) -0.18988(12)
H13 H 0.4369 -0.2809 -0.2127
H14 H 0.3034 -0.1768 -0.1895
C13 C 0.4577(3) -0.1904(4) -0.12899(11)
H15 H 0.4256 -0.3122 -0.1127
H16 H 0.5581 -0.1939 -0.1299
C14 C 0.6000(4) 0.0083(5) 0.31879(12)
H17 H 0.5408 0.1195 0.3231
H18 H 0.6758 0.0176 0.3454
H19 H 0.5481 -0.1079 0.3265
Cu1B Cu 1.01073(3) -0.46902(5) 0.011414(13)
N5B N 0.4033(3) -0.4145(5) -0.00003(12)
loop_
_geom_bond_atom_site_label_1
_geom_bond_atom_site_label_2
_geom_bond_site_symmetry_1
_geom_bond_site_symmetry_2
Cu1 N1 1_555 1_555
N1 C7 1_555 1_555
N2 Cu1 1_555 1_555
N3 Cu1 1_555 1_555
N4 N3 1_555 1_555
N5 N4 1_555 1_555
O1 Cu1 1_555 1_555
O2 C11 1_555 1_555
O3 C4 1_555 1_555
C1 C2 1_555 1_555
C2 O1 1_555 1_555
C3 C2 1_555 1_555
H1 C3 1_555 1_555
C4 C3 1_555 1_555
C5 C4 1_555 1_555
H2 C5 1_555 1_555
C6 C1 1_555 1_555
H3 C6 1_555 1_555
C7 C1 1_555 1_555
H4 C7 1_555 1_555
C8 N1 1_555 1_555
H5 C8 1_555 1_555
H6 C8 1_555 1_555
C9 N2 1_555 1_555
H7 C9 1_555 1_555
H8 C9 1_555 1_555
C10 N2 1_555 1_555
H9 C10 1_555 1_555
H10 C10 1_555 1_555
C11 C10 1_555 1_555
H11 C11 1_555 1_555
H12 C11 1_555 1_555
C12 O2 1_555 1_555
H13 C12 1_555 1_555
H14 C12 1_555 1_555
C13 N2 1_555 1_555
H15 C13 1_555 1_555
H16 C13 1_555 1_555
C14 O3 1_555 1_555
H17 C14 1_555 1_555
H18 C14 1_555 1_555
H19 C14 1_555 1_555
Cu1B N5 1_555 1_555
N5B Cu1 1_555 1_555
C5 C6 1_555 1_555
C8 C9 1_555 1_555
C12 C13 1_555 1_555

#END
