
#######################################################################
#
#                 Cambridge Crystallographic Data Centre
#                                CCDC 
#
#######################################################################
#
# If this CIF has been generated from an entry in the Cambridge 
# Structural Database, then it will include bibliographic, chemical, 
# crystal, experimental, refinement or atomic coordinate data resulting 
# from the CCDC's data processing and validation procedures.
#
#######################################################################

data_LEPLEZ
_symmetry_cell_setting           monoclinic
_symmetry_space_group_name_H-M   'C 2/c'
_symmetry_Int_Tables_number      15
_space_group_name_Hall           '-C 2yn'
loop_
_symmetry_equiv_pos_site_id
_symmetry_equiv_pos_as_xyz
1 x,y,z
2 -x,y,1/2-z
3 1/2+x,1/2+y,z
4 1/2-x,1/2+y,1/2-z
5 -x,-y,-z
6 x,-y,1/2+z
7 1/2-x,1/2-y,-z
8 1/2+x,1/2-y,1/2+z
_cell_length_a                   17.1797(16)
_cell_length_b                   12.3090(12)
_cell_length_c                   11.1501(10)
_cell_angle_alpha                90
_cell_angle_beta                 127.5540(10)
_cell_angle_gamma                90
_cell_volume                     1869.26
loop_
_atom_site_label
_atom_site_type_symbol
_atom_site_fract_x
_atom_site_fract_y
_atom_site_fract_z
Sm1 Sm 0.78324(2) 0.85193(2) 1.37984(3)
O1 O 0.8353(4) 0.8558(3) 1.2256(6)
O2 O 0.8722(4) 0.8153(4) 1.0721(6)
O3 O 0.7738(4) 0.6688(4) 1.2915(6)
O4 O 0.7983(4) 0.5166(4) 1.2139(6)
O5 O 0.5513(3) 0.7425(4) 1.4416(5)
O6 O 0.6596(3) 0.7910(4) 1.4081(5)
O7 O 0.8196(5) 0.9362(4) 1.6113(7)
H1 H 0.795(6) 0.908(7) 1.656(9)
H2 H 0.816(8) 1.008(2) 1.624(12)
O8 O 0.9157(5) 0.9950(5) 1.4923(8)
O9 O 0.6254(3) 0.8199(4) 1.1174(5)
C1 C 0.8605(5) 0.7885(5) 1.1684(7)
C2 C 0.8816(5) 0.6724(6) 1.2222(8)
H3 H 0.8838 0.6299 1.1509
H4 H 0.9468 0.6699 1.3184
C3 C 0.8116(5) 0.6163(5) 1.2424(7)
C4 C 0.5753(4) 0.7993(5) 1.3748(6)
C5 C 0.5000 0.8749(8) 1.2500
H5 H 0.4704 0.9207 1.2830
Sm1C Sm 0.71676(2) 1.35193(2) 1.12016(3)
Sm1C_2 Sm 0.71676(2) 0.35193(2) 1.12016(3)
Sm1F Sm 0.71676(2) 0.64807(2) 1.62016(3)
Sm1G Sm 0.28324(2) 0.64807(2) 0.87984(3)
Sm1A Sm 0.21676(2) 0.85193(2) 1.12016(3)
O1C O 0.6647(4) 1.3558(3) 1.2744(6)
O2C O 0.6278(4) 1.3153(4) 1.4279(6)
O3C O 0.7262(4) 1.1688(4) 1.2085(6)
O4C O 0.7017(4) 1.0166(4) 1.2861(6)
O4_2 O 0.7983(4) 1.5166(4) 1.2139(6)
O5A O 0.4487(3) 0.7425(4) 1.0584(5)
O5F O 0.9487(3) 0.7575(4) 1.5584(5)
O5E O 0.5513(3) 1.2575(4) 0.9416(5)
O6A O 0.3404(3) 0.7910(4) 1.0919(5)
O6F O 0.8404(3) 0.7090(4) 1.5919(5)
O6C O 0.8404(3) 1.2910(4) 1.0919(5)
O6E O 0.6596(3) 1.2090(4) 0.9081(5)
O7C O 0.6804(5) 1.4362(4) 0.8887(7)
H1C H 0.705(6) 1.408(7) 0.844(9)
H2C H 0.684(8) 1.508(2) 0.876(12)
O8C O 0.5843(5) 1.4950(5) 1.0077(8)
O9C O 0.8746(3) 1.3199(4) 1.3826(5)
C1C C 0.6395(5) 1.2885(5) 1.3316(7)
C2C C 0.6184(5) 1.1724(6) 1.2778(8)
H3C H 0.6162 1.1299 1.3491
H4C H 0.5532 1.1699 1.1816
C3C C 0.6884(5) 1.1163(5) 1.2576(7)
C4A C 0.4247(4) 0.7993(5) 1.1252(6)
H5A H 0.5296 0.9207 1.2170
loop_
_geom_bond_atom_site_label_1
_geom_bond_atom_site_label_2
_geom_bond_site_symmetry_1
_geom_bond_site_symmetry_2
Sm1 O1 1_555 1_555
O1 C1 1_555 1_555
O2 C1 1_555 1_555
O3 Sm1 1_555 1_555
O4 C3 1_555 1_555
O5 C4 1_555 1_555
O6 Sm1 1_555 1_555
O7 Sm1 1_555 1_555
H1 O7 1_555 1_555
H2 O7 1_555 1_555
O8 Sm1 1_555 1_555
O9 Sm1 1_555 1_555
C1 C2 1_555 1_555
C2 H3 1_555 1_555
H4 C2 1_555 1_555
C3 O3 1_555 1_555
C4 O6 1_555 1_555
C5 C4 1_555 1_555
H5 C5 1_555 1_555
Sm1C O1C 1_555 1_555
Sm1C_2 O4 1_555 1_555
Sm1F O5 1_555 1_555
Sm1G O5A 1_555 1_555
Sm1A O6A 1_555 1_555
O1C C1C 1_555 1_555
O2C C1C 1_555 1_555
O3C Sm1C 1_555 1_555
O4C Sm1 1_555 1_555
O4_2 Sm1C 1_555 1_555
O5A C4A 1_555 1_555
O5F Sm1 1_555 1_555
O5E Sm1C 1_555 1_555
O6A Sm1G 1_555 1_555
O6F Sm1 1_555 1_555
O6C Sm1C 1_555 1_555
O6E Sm1C 1_555 1_555
O7C Sm1C 1_555 1_555
H1C O7C 1_555 1_555
H2C O7C 1_555 1_555
O8C Sm1C 1_555 1_555
O9C Sm1C 1_555 1_555
C1C C2C 1_555 1_555
C2C H3C 1_555 1_555
H4C C2C 1_555 1_555
C3C O3C 1_555 1_555
C4A C5 1_555 1_555
H5A C5 1_555 1_555
O6 Sm1F 1_555 1_555
C2 C3 1_555 1_555
Sm1F O6F 1_555 1_555
O4C C3C 1_555 1_555
O6A C4A 1_555 1_555
C2C C3C 1_555 1_555

#END
