
#######################################################################
#
#                 Cambridge Crystallographic Data Centre
#                                CCDC 
#
#######################################################################
#
# If this CIF has been generated from an entry in the Cambridge 
# Structural Database, then it will include bibliographic, chemical, 
# crystal, experimental, refinement or atomic coordinate data resulting 
# from the CCDC's data processing and validation procedures.
#
#######################################################################

data_LEPLAV
_symmetry_cell_setting           monoclinic
_symmetry_space_group_name_H-M   'P 21/c'
_symmetry_Int_Tables_number      14
_space_group_name_Hall           '-P 2ybc'
loop_
_symmetry_equiv_pos_site_id
_symmetry_equiv_pos_as_xyz
1 x,y,z
2 -x,1/2+y,1/2-z
3 -x,-y,-z
4 x,1/2-y,1/2+z
_cell_length_a                   13.3471(14)
_cell_length_b                   17.8963(19)
_cell_length_c                   18.7773(14)
_cell_angle_alpha                90
_cell_angle_beta                 133.570(5)
_cell_angle_gamma                90
_cell_volume                     3249.69
loop_
_atom_site_label
_atom_site_type_symbol
_atom_site_fract_x
_atom_site_fract_y
_atom_site_fract_z
Eu1 Eu -0.45179(3) 0.029660(13) 0.142660(17)
Eu2 Eu -0.44959(3) -0.012570(13) 0.402420(17)
C1 C -0.4149(5) 0.3976(3) 0.3007(4)
C2 C -0.3568(5) 0.3279(3) 0.3624(4)
C3 C -0.3567(5) 0.2603(3) 0.3259(4)
H1 H -0.3839 0.2590 0.2651
C4 C -0.3164(5) 0.1949(3) 0.3794(3)
C5 C -0.2713(5) 0.1971(3) 0.4722(4)
H2 H -0.2442 0.1535 0.5085
C6 C -0.2674(6) 0.2650(3) 0.5097(4)
H3 H -0.2348 0.2669 0.5722
C7 C -0.3111(6) 0.3292(3) 0.4555(4)
H4 H -0.3103 0.3741 0.4808
C8 C -0.3309(5) 0.1206(3) 0.3352(3)
C9 C -0.3692(5) -0.3855(3) 0.1975(4)
C10 C -0.2789(5) -0.3195(3) 0.2529(4)
C11 C -0.3253(5) -0.2485(3) 0.2128(3)
H5 H -0.4092 -0.2427 0.1481
C12 C -0.2472(5) -0.1859(3) 0.2685(3)
C13 C -0.1190(6) -0.1954(3) 0.3633(4)
H6 H -0.0664 -0.1539 0.4015
C14 C -0.0696(6) -0.2662(3) 0.4006(4)
H7 H 0.0189 -0.2723 0.4624
C15 C -0.1504(5) -0.3283(3) 0.3469(4)
H8 H -0.1183 -0.3758 0.3741
C16 C -0.3046(5) -0.1099(3) 0.2277(3)
C17 C -0.7491(5) -0.0169(3) -0.1091(4)
C18 C -0.8822(5) 0.0031(3) -0.1389(4)
C19 C -1.0034(5) 0.0060(3) -0.2373(4)
H9 H -1.0024 -0.0071 -0.2847
C20 C -1.1268(5) 0.0282(3) -0.2661(4)
C21 C -1.1287(6) 0.0477(3) -0.1954(4)
H10 H -1.2107 0.0629 -0.2142
C22 C -1.0079(6) 0.0441(4) -0.0970(4)
H11 H -1.0091 0.0569 -0.0496
C23 C -0.8859(6) 0.0220(3) -0.0685(4)
H12 H -0.8054 0.0196 -0.0021
C24 C -1.2577(5) 0.0288(3) -0.3728(4)
O1 O -0.4328(4) 0.45420(19) 0.3305(3)
O2 O -0.4430(4) 0.39545(19) 0.2216(3)
O3 O -0.3519(4) 0.06383(19) 0.3618(3)
O4 O -0.3249(4) 0.11985(19) 0.2711(3)
O5 O -0.2690(4) -0.05633(19) 0.2849(2)
O6 O -0.3925(4) -0.10011(18) 0.1355(2)
O7 O -0.4616(4) -0.38558(19) 0.1039(2)
O8 O -0.3562(4) -0.44057(18) 0.2455(2)
O9 O -0.6368(4) -0.0059(2) -0.0219(3)
O10 O -0.7541(4) -0.0420(2) -0.1739(3)
O11 O -1.2476(4) 0.0233(2) -0.4344(3)
O12 O -1.3718(4) 0.0339(2) -0.3976(3)
O13 O -0.2577(4) -0.0812(2) 0.4382(3)
H20 H -0.257(7) -0.077(3) 0.392(3)
O14 O -0.3974(6) -0.1260(2) 0.4949(4)
H21 H -0.398(10) -0.172(2) 0.477(6)
H22 H -0.428(7) -0.138(4) 0.523(5)
O15 O -0.5016(4) 0.1427(2) 0.0470(3)
H23 H -0.523(7) 0.136(4) -0.008(3)
O16 O -0.6202(4) 0.1048(2) 0.1261(3)
H24 H -0.630(7) 0.094(4) 0.168(4)
H25 H -0.658(7) 0.1496(19) 0.103(4)
Eu1B Eu -0.54821(3) -0.029660(13) -0.142660(17)
Eu1A Eu -0.54821(3) 0.529660(13) 0.357340(17)
Eu2A Eu -0.55041(3) -0.512570(13) 0.097580(17)
Eu2_2 Eu -1.44959(3) -0.012570(13) -0.597580(17)
Eu2B Eu -1.55041(3) 0.012570(13) -0.402420(17)
Eu2A_2 Eu -0.55041(3) 0.487430(13) 0.097580(17)
O1A O -0.5672(4) -0.04580(19) 0.1695(3)
O2A O -0.5570(4) -0.10455(19) 0.2784(3)
O7A O -0.5384(4) 0.11442(19) 0.3961(2)
O8A O -0.6438(4) 0.05943(18) 0.2545(2)
O10B O -0.2459(4) 0.0420(2) 0.1739(3)
O11_2 O -0.2476(4) 0.0233(2) 0.5656(3)
O12B O -0.6282(4) -0.0339(2) 0.3976(3)
C25 C -0.1626(18) -0.2488(7) 0.0410(12)
H13 H -0.1390 -0.2523 0.0046
C26 C -0.0723(16) -0.2428(17) 0.1937(11)
H14 H -0.1693 -0.2343 0.1531
H15 H -0.0217 -0.1986 0.2310
H16 H -0.0428 -0.2835 0.2378
C27 C 0.0842(17) -0.2731(12) 0.1878(13)
H17 H 0.1391 -0.2767 0.2572
H18 H 0.1187 -0.2332 0.1755
H19 H 0.0892 -0.3193 0.1644
O18 O -0.2918(8) -0.2359(4) -0.0136(7)
N1 N -0.0498(12) -0.2589(5) 0.1401(9)
O17 O 0.0169(8) -0.4658(6) 0.0790(5)
loop_
_geom_bond_atom_site_label_1
_geom_bond_atom_site_label_2
_geom_bond_site_symmetry_1
_geom_bond_site_symmetry_2
Eu1 O4 1_555 1_555
Eu2 O3 1_555 1_555
C1 C2 1_555 1_555
C2 C3 1_555 1_555
C3 H1 1_555 1_555
C4 C3 1_555 1_555
C5 C4 1_555 1_555
H2 C5 1_555 1_555
C6 C5 1_555 1_555
H3 C6 1_555 1_555
C7 C2 1_555 1_555
H4 C7 1_555 1_555
C8 C4 1_555 1_555
C9 C10 1_555 1_555
C10 C11 1_555 1_555
C11 H5 1_555 1_555
C12 C11 1_555 1_555
C13 C12 1_555 1_555
H6 C13 1_555 1_555
C14 C13 1_555 1_555
H7 C14 1_555 1_555
C15 C10 1_555 1_555
H8 C15 1_555 1_555
C16 C12 1_555 1_555
C17 C18 1_555 1_555
C18 C19 1_555 1_555
C19 H9 1_555 1_555
C20 C19 1_555 1_555
C21 C20 1_555 1_555
H10 C21 1_555 1_555
C22 C21 1_555 1_555
H11 C22 1_555 1_555
C23 C18 1_555 1_555
H12 C23 1_555 1_555
C24 C20 1_555 1_555
C25 H13 1_555 1_555
C26 H14 1_555 1_555
H15 C26 1_555 1_555
H16 C26 1_555 1_555
C27 H17 1_555 1_555
H18 C27 1_555 1_555
H19 C27 1_555 1_555
O1 C1 1_555 1_555
O2 C1 1_555 1_555
O3 C8 1_555 1_555
O4 C8 1_555 1_555
O5 Eu1 1_555 1_555
O6 Eu1 1_555 1_555
O7 C9 1_555 1_555
O8 C9 1_555 1_555
O9 Eu1 1_555 1_555
O10 C17 1_555 1_555
O11 C24 1_555 1_555
O12 C24 1_555 1_555
O13 Eu2 1_555 1_555
H20 O13 1_555 1_555
O14 Eu2 1_555 1_555
H21 O14 1_555 1_555
H22 O14 1_555 1_555
O15 Eu1 1_555 1_555
H23 O15 1_555 1_555
O16 Eu1 1_555 1_555
H24 O16 1_555 1_555
H25 O16 1_555 1_555
O18 C25 1_555 1_555
N1 C25 1_555 1_555
Eu1B O10 1_555 1_555
Eu1A O1 1_555 1_555
Eu2A O7 1_555 1_555
Eu2_2 O11 1_555 1_555
Eu2B O12 1_555 1_555
Eu2A_2 O2 1_555 1_555
O1A Eu1 1_555 1_555
O2A Eu2 1_555 1_555
O7A Eu2 1_555 1_555
O8A Eu2 1_555 1_555
O10B Eu1 1_555 1_555
O11_2 Eu2 1_555 1_555
O12B Eu2 1_555 1_555
C6 C7 1_555 1_555
C14 C15 1_555 1_555
C16 O5 1_555 1_555
C16 O6 1_555 1_555
C17 O9 1_555 1_555
C22 C23 1_555 1_555
C26 N1 1_555 1_555
C27 N1 1_555 1_555
O8 Eu2A 1_555 1_555

#END
