
#######################################################################
#
#                 Cambridge Crystallographic Data Centre
#                                CCDC 
#
#######################################################################
#
# If this CIF has been generated from an entry in the Cambridge 
# Structural Database, then it will include bibliographic, chemical, 
# crystal, experimental, refinement or atomic coordinate data resulting 
# from the CCDC's data processing and validation procedures.
#
#######################################################################

data_LEPPED
_symmetry_cell_setting           monoclinic
_symmetry_space_group_name_H-M   'C 2/m'
_symmetry_Int_Tables_number      12
_space_group_name_Hall           '-C 2y'
loop_
_symmetry_equiv_pos_site_id
_symmetry_equiv_pos_as_xyz
1 x,y,z
2 -x,y,-z
3 1/2+x,1/2+y,z
4 1/2-x,1/2+y,-z
5 -x,-y,-z
6 x,-y,z
7 1/2-x,1/2-y,-z
8 1/2+x,1/2-y,z
_cell_length_a                   18.4331(11)
_cell_length_b                   6.9396(4)
_cell_length_c                   10.9502(7)
_cell_angle_alpha                90
_cell_angle_beta                 122.983(6)
_cell_angle_gamma                90
_cell_volume                     1174.98
loop_
_atom_site_label
_atom_site_type_symbol
_atom_site_fract_x
_atom_site_fract_y
_atom_site_fract_z
I1 I 0.52871(2) 0.5000 0.30108(4)
Rb1 Rb 0.52343(3) 0.0000 0.21232(5)
O1 O 0.6284(2) 0.0000 0.0820(4)
H1 H 0.6597 -0.1047 0.1139
N1 N 0.3745(3) 0.0000 0.2773(4)
C1 C 0.3217(2) 0.1709(5) 0.2037(4)
H2 H 0.3065 0.1726 0.1038
H3 H 0.3554 0.2856 0.2516
N2 N 0.24199(18) 0.1755(4) 0.2042(3)
C2 C 0.2668(2) 0.1704(6) 0.3574(4)
H4 H 0.2999 0.2852 0.4069
H5 H 0.2149 0.1718 0.3595
N3 N 0.3182(3) 0.0000 0.4354(5)
C3 C 0.3956(3) 0.0000 0.4281(5)
H6 H 0.4301 -0.1129 0.4783
C4 C 0.1925(3) 0.0000 0.1325(6)
H7 H 0.1758 0.0000 0.0319
H8 H 0.1401 0.0000 0.1331
I1_2 I 0.52871(2) -0.5000 0.30108(4)
Rb1_2 Rb 0.52343(3) 1.0000 0.21232(5)
Rb1A Rb 0.47657(3) 0.0000 -0.21232(5)
Rb1A_2 Rb 0.47657(3) 0.0000 0.78768(5)
O1A O 0.3716(2) 0.0000 -0.0820(4)
H1E H 0.6597 0.1047 0.1139
H1A H 0.3403 -0.1047 -0.1139
H1D H 0.3403 0.1047 -0.1139
C1E C 0.3217(2) -0.1709(5) 0.2037(4)
H2E H 0.3065 -0.1726 0.1038
H3E H 0.3554 -0.2856 0.2516
N2E N 0.24199(18) -0.1755(4) 0.2042(3)
C2E C 0.2668(2) -0.1704(6) 0.3574(4)
H4E H 0.2999 -0.2852 0.4069
H5E H 0.2149 -0.1718 0.3595
N3A N 0.6818(3) 0.0000 0.5646(5)
H6E H 0.4301 0.1129 0.4783
loop_
_geom_bond_atom_site_label_1
_geom_bond_atom_site_label_2
_geom_bond_site_symmetry_1
_geom_bond_site_symmetry_2
I1 Rb1 1_555 1_555
Rb1 O1 1_555 1_555
O1 H1 1_555 1_555
N1 Rb1 1_555 1_555
C1 N1 1_555 1_555
H2 C1 1_555 1_555
H3 C1 1_555 1_555
N2 C1 1_555 1_555
C2 N2 1_555 1_555
H4 C2 1_555 1_555
H5 C2 1_555 1_555
N3 C2 1_555 1_555
C3 N1 1_555 1_555
H6 C3 1_555 1_555
C4 N2 1_555 1_555
H7 C4 1_555 1_555
H8 C4 1_555 1_555
I1_2 Rb1 1_555 1_555
Rb1_2 I1 1_555 1_555
Rb1A O1 1_555 1_555
Rb1A_2 N3 1_555 1_555
O1A Rb1 1_555 1_555
H1E O1 1_555 1_555
H1A O1A 1_555 1_555
H1D O1A 1_555 1_555
C1E N1 1_555 1_555
H2E C1E 1_555 1_555
H3E C1E 1_555 1_555
N2E C4 1_555 1_555
C2E N3 1_555 1_555
H4E C2E 1_555 1_555
H5E C2E 1_555 1_555
N3A Rb1 1_555 1_555
H6E C3 1_555 1_555
N3 C3 1_555 1_555
Rb1A O1A 1_555 1_555
C1E N2E 1_555 1_555
N2E C2E 1_555 1_555

#END
