
#######################################################################
#
#                 Cambridge Crystallographic Data Centre
#                                CCDC 
#
#######################################################################
#
# If this CIF has been generated from an entry in the Cambridge 
# Structural Database, then it will include bibliographic, chemical, 
# crystal, experimental, refinement or atomic coordinate data resulting 
# from the CCDC's data processing and validation procedures.
#
#######################################################################

data_LEPPAZ
_symmetry_cell_setting           monoclinic
_symmetry_space_group_name_H-M   'C 2/m'
_symmetry_Int_Tables_number      12
_space_group_name_Hall           '-C 2y'
loop_
_symmetry_equiv_pos_site_id
_symmetry_equiv_pos_as_xyz
1 x,y,z
2 -x,y,-z
3 1/2+x,1/2+y,z
4 1/2-x,1/2+y,-z
5 -x,-y,-z
6 x,-y,z
7 1/2-x,1/2-y,-z
8 1/2+x,1/2-y,z
_cell_length_a                   18.3370(16)
_cell_length_b                   6.7943(9)
_cell_length_c                   10.7385(13)
_cell_angle_alpha                90
_cell_angle_beta                 122.691(9)
_cell_angle_gamma                90
_cell_volume                     1125.95
loop_
_atom_site_label
_atom_site_type_symbol
_atom_site_fract_x
_atom_site_fract_y
_atom_site_fract_z
I1 I -0.027730(14) 0.5000 0.21045(3)
K1 K -0.02037(6) 0.0000 0.29079(9)
O1 O 0.12109(11) 0.0000 0.58204(17)
H1 H 0.1598 0.1027 0.6100
N1 N 0.12350(11) 0.0000 0.22137(17)
C1 C 0.10283(11) 0.0000 0.06870(17)
H2 H 0.0683 0.1154 0.0177
N2 N 0.1809(2) 0.0000 0.0613(3)
C2 C 0.23240(18) 0.1748(4) 0.1401(3)
H3 H 0.1991 0.2919 0.0901
H4 H 0.2843 0.1766 0.1370
N3 N 0.25752(13) 0.1791(3) 0.2966(2)
C3 C 0.17651(17) 0.1751(4) 0.2962(3)
H5 H 0.1911 0.1775 0.3975
H6 H 0.1429 0.2922 0.2469
C4 C 0.3071(2) 0.0000 0.3693(4)
H7 H 0.3597 0.0000 0.3681
H8 H 0.3238 0.0000 0.4717
I1_2 I -0.027730(14) -0.5000 0.21045(3)
K1_2 K -0.02037(6) 1.0000 0.29079(9)
K1A K 0.02037(6) 0.0000 0.70921(9)
K1A_2 K 0.02037(6) 0.0000 -0.29079(9)
O1A O -0.12109(11) 0.0000 0.41796(17)
H1E H 0.1598 -0.1027 0.6100
H1A H -0.1598 0.1027 0.3900
H1D H -0.1598 -0.1027 0.3900
H2E H 0.0683 -0.1154 0.0177
N2A N -0.1809(2) 0.0000 -0.0613(3)
C2E C 0.23240(18) -0.1748(4) 0.1401(3)
H3E H 0.1991 -0.2919 0.0901
H4E H 0.2843 -0.1766 0.1370
N3E N 0.25752(13) -0.1791(3) 0.2966(2)
C3E C 0.17651(17) -0.1751(4) 0.2962(3)
H5E H 0.1911 -0.1775 0.3975
H6E H 0.1429 -0.2922 0.2469
loop_
_geom_bond_atom_site_label_1
_geom_bond_atom_site_label_2
_geom_bond_site_symmetry_1
_geom_bond_site_symmetry_2
I1 K1 1_555 1_555
K1 O1 1_555 1_555
O1 H1 1_555 1_555
N1 K1 1_555 1_555
C1 N1 1_555 1_555
H2 C1 1_555 1_555
N2 C1 1_555 1_555
C2 N2 1_555 1_555
H3 C2 1_555 1_555
H4 C2 1_555 1_555
N3 C2 1_555 1_555
C3 N1 1_555 1_555
H5 C3 1_555 1_555
H6 C3 1_555 1_555
C4 N3 1_555 1_555
H7 C4 1_555 1_555
H8 C4 1_555 1_555
I1_2 K1 1_555 1_555
K1_2 I1 1_555 1_555
K1A O1 1_555 1_555
K1A_2 N2 1_555 1_555
O1A K1 1_555 1_555
H1E O1 1_555 1_555
H1A O1A 1_555 1_555
H1D O1A 1_555 1_555
H2E C1 1_555 1_555
N2A K1 1_555 1_555
C2E N2 1_555 1_555
H3E C2E 1_555 1_555
H4E C2E 1_555 1_555
N3E C4 1_555 1_555
C3E N1 1_555 1_555
H5E C3E 1_555 1_555
H6E C3E 1_555 1_555
N3 C3 1_555 1_555
K1A O1A 1_555 1_555
C2E N3E 1_555 1_555
N3E C3E 1_555 1_555

#END
