
#######################################################################
#
#                 Cambridge Crystallographic Data Centre
#                                CCDC 
#
#######################################################################
#
# If this CIF has been generated from an entry in the Cambridge 
# Structural Database, then it will include bibliographic, chemical, 
# crystal, experimental, refinement or atomic coordinate data resulting 
# from the CCDC's data processing and validation procedures.
#
#######################################################################

data_LEPVOT
_symmetry_cell_setting           triclinic
_symmetry_space_group_name_H-M   'P -1'
_symmetry_Int_Tables_number      2
_space_group_name_Hall           '-P 1'
loop_
_symmetry_equiv_pos_site_id
_symmetry_equiv_pos_as_xyz
1 x,y,z
2 -x,-y,-z
_cell_length_a                   8.6146(4)
_cell_length_b                   11.8370(6)
_cell_length_c                   13.6503(8)
_cell_angle_alpha                104.402(5)
_cell_angle_beta                 97.987(4)
_cell_angle_gamma                98.806(4)
_cell_volume                     1309.32
loop_
_atom_site_label
_atom_site_type_symbol
_atom_site_fract_x
_atom_site_fract_y
_atom_site_fract_z
Pr1 Pr 0.45579(3) 0.12143(2) 0.40200(2)
Pr2 Pr 0.18366(3) 0.38359(2) 0.389092(19)
Ag1 Ag -0.05151(5) 0.04417(4) 0.31320(3)
O1 O 0.3796(4) 0.0556(3) 0.5526(3)
O2 O 0.4561(5) 0.0520(3) 0.7114(3)
O3 O 0.2235(4) 0.2045(3) 0.4509(3)
O4 O 0.0035(4) 0.1104(3) 0.4877(3)
O5 O 0.0132(4) 0.3633(3) 0.5141(3)
O6 O -0.0272(4) 0.4804(3) 0.6580(3)
O7 O 0.7024(4) 0.1963(3) 0.3498(3)
O8 O 0.9248(4) 0.2557(3) 0.2970(3)
O9 O 0.4610(4) 0.3377(3) 0.4063(3)
O10 O 0.6802(4) 0.4785(3) 0.4458(3)
O11 O 0.3593(4) 0.5273(3) 0.3324(3)
O12 O 0.3309(6) 0.5709(4) 0.1825(4)
O13 O 0.3335(5) 0.1101(3) 0.2293(3)
O14 O 0.2035(4) 0.2568(3) 0.2235(3)
O15 O 0.6685(5) 0.2465(3) 0.5541(3)
H1 H 0.7558 0.2552 0.5319
H2 H 0.6599 0.3150 0.5885
O16 O 0.2133(4) -0.0527(3) 0.3531(3)
H3 H 0.2068 -0.0843 0.4023
H4 H 0.2215 -0.1056 0.3001
N1 N 0.1278(5) 0.0310(4) -0.1453(3)
C1 C 0.3839(5) 0.0945(4) 0.6489(4)
C2 C 0.1331(6) 0.1789(4) 0.5140(4)
C3 C 0.0308(5) 0.3976(4) 0.6107(4)
C4 C 0.2958(6) 0.1927(4) 0.6894(4)
C5 C 0.1918(5) 0.2376(4) 0.6277(4)
C6 C 0.1256(5) 0.3345(4) 0.6739(4)
C7 C 0.1533(6) 0.3777(4) 0.7798(4)
H5 H 0.1061 0.4400 0.8100
C8 C 0.2498(6) 0.3303(4) 0.8415(4)
H6 H 0.2647 0.3581 0.9128
C9 C 0.3235(6) 0.2413(4) 0.7962(4)
H7 H 0.3937 0.2126 0.8377
C10 C 0.7792(6) 0.2530(4) 0.2986(4)
C11 C 0.5743(5) 0.4042(4) 0.3828(4)
C12 C 0.3872(6) 0.5171(4) 0.2418(4)
C13 C 0.6901(6) 0.3140(4) 0.2320(4)
C14 C 0.5827(5) 0.3835(4) 0.2704(4)
C15 C 0.4971(6) 0.4355(4) 0.2053(4)
C16 C 0.5159(7) 0.4134(5) 0.1027(4)
H8 H 0.4543 0.4444 0.0583
C17 C 0.6246(7) 0.3461(5) 0.0658(4)
H9 H 0.6369 0.3328 -0.0025
C18 C 0.7132(7) 0.2996(5) 0.1312(4)
H10 H 0.7900 0.2578 0.1080
C19 C 0.2547(6) 0.1670(4) 0.1827(4)
C20 C 0.2153(6) 0.1220(4) 0.0674(4)
C21 C 0.0908(6) 0.1557(5) 0.0132(4)
H11 H 0.0360 0.2106 0.0471
C22 C 0.0489(7) 0.1066(5) -0.0920(4)
H12 H -0.0380 0.1270 -0.1274
C23 C 0.2509(7) 0.0031(4) -0.0935(4)
H13 H 0.3096 -0.0463 -0.1304
C24 C 0.2973(6) 0.0432(4) 0.0126(4)
H14 H 0.3813 0.0181 0.0462
Pr1A Pr 0.54421(3) -0.12143(2) 0.59800(2)
Pr2A Pr -0.18366(3) 0.61641(2) 0.610908(19)
Pr2_2 Pr 1.18366(3) 0.38359(2) 0.389092(19)
Pr2A_2 Pr 0.81634(3) 0.61641(2) 0.610908(19)
Ag1_2 Ag 0.94849(5) 0.04417(4) 0.31320(3)
Ag1A Ag 0.05151(5) -0.04417(4) -0.31320(3)
O1A O 0.6204(4) -0.0556(3) 0.4474(3)
O2A O 0.5439(5) -0.0520(3) 0.2886(3)
O6A O 0.0272(4) 0.5196(3) 0.3420(3)
O8_2 O -0.0752(4) 0.2557(3) 0.2970(3)
O10A O 0.3198(4) 0.5215(3) 0.5542(3)
N1A N -0.1278(5) -0.0310(4) 0.1453(3)
O17 O 0.2363(6) -0.2228(4) 0.1886(4)
H15 H 0.2980 -0.1877 0.1572
H16 H 0.2662 -0.2883 0.1869
loop_
_geom_bond_atom_site_label_1
_geom_bond_atom_site_label_2
_geom_bond_site_symmetry_1
_geom_bond_site_symmetry_2
Pr1 O1 1_555 1_555
Pr2 O3 1_555 1_555
Ag1 O4 1_555 1_555
O1 C1 1_555 1_555
O2 C1 1_555 1_555
O3 Pr1 1_555 1_555
O4 C2 1_555 1_555
O5 Pr2 1_555 1_555
O6 C3 1_555 1_555
O7 Pr1 1_555 1_555
O8 C10 1_555 1_555
O9 Pr1 1_555 1_555
O10 C11 1_555 1_555
O11 Pr2 1_555 1_555
O12 C12 1_555 1_555
O13 Pr1 1_555 1_555
O14 Pr2 1_555 1_555
O15 Pr1 1_555 1_555
H1 O15 1_555 1_555
H2 O15 1_555 1_555
O16 Pr1 1_555 1_555
H3 O16 1_555 1_555
H4 O16 1_555 1_555
N1 C22 1_555 1_555
C1 C4 1_555 1_555
C2 O3 1_555 1_555
C3 O5 1_555 1_555
C4 C5 1_555 1_555
C5 C2 1_555 1_555
C6 C3 1_555 1_555
C7 C6 1_555 1_555
H5 C7 1_555 1_555
C8 C7 1_555 1_555
H6 C8 1_555 1_555
C9 C4 1_555 1_555
H7 C9 1_555 1_555
C10 O7 1_555 1_555
C11 O9 1_555 1_555
C12 O11 1_555 1_555
C13 C10 1_555 1_555
C14 C11 1_555 1_555
C15 C12 1_555 1_555
C16 C15 1_555 1_555
H8 C16 1_555 1_555
C17 C16 1_555 1_555
H9 C17 1_555 1_555
C18 C13 1_555 1_555
H10 C18 1_555 1_555
C19 O13 1_555 1_555
C20 C19 1_555 1_555
C21 C20 1_555 1_555
H11 C21 1_555 1_555
C22 C21 1_555 1_555
H12 C22 1_555 1_555
C23 N1 1_555 1_555
H13 C23 1_555 1_555
C24 C20 1_555 1_555
H14 C24 1_555 1_555
O17 H15 1_555 1_555
H16 O17 1_555 1_555
Pr1A O1 1_555 1_555
Pr2A O6 1_555 1_555
Pr2_2 O8 1_555 1_555
Pr2A_2 O10 1_555 1_555
Ag1_2 O8 1_555 1_555
Ag1A N1 1_555 1_555
O1A Pr1 1_555 1_555
O2A Pr1 1_555 1_555
O6A Pr2 1_555 1_555
O8_2 Pr2 1_555 1_555
O10A Pr2 1_555 1_555
N1A Ag1 1_555 1_555
Pr2 O9 1_555 1_555
Ag1 O8_2 1_555 1_555
O2 Pr1A 1_555 1_555
O14 C19 1_555 1_555
C5 C6 1_555 1_555
C8 C9 1_555 1_555
C13 C14 1_555 1_555
C14 C15 1_555 1_555
C17 C18 1_555 1_555
C23 C24 1_555 1_555
Pr1A O1A 1_555 1_555

#END
