
#######################################################################
#
#                 Cambridge Crystallographic Data Centre
#                                CCDC 
#
#######################################################################
#
# If this CIF has been generated from an entry in the Cambridge 
# Structural Database, then it will include bibliographic, chemical, 
# crystal, experimental, refinement or atomic coordinate data resulting 
# from the CCDC's data processing and validation procedures.
#
#######################################################################

data_LEPVUZ
_symmetry_cell_setting           triclinic
_symmetry_space_group_name_H-M   'P -1'
_symmetry_Int_Tables_number      2
_space_group_name_Hall           '-P 1'
loop_
_symmetry_equiv_pos_site_id
_symmetry_equiv_pos_as_xyz
1 x,y,z
2 -x,-y,-z
_cell_length_a                   8.5858(4)
_cell_length_b                   11.7937(5)
_cell_length_c                   13.6676(5)
_cell_angle_alpha                104.411(3)
_cell_angle_beta                 98.115(3)
_cell_angle_gamma                98.833(4)
_cell_volume                     1301.04
loop_
_atom_site_label
_atom_site_type_symbol
_atom_site_fract_x
_atom_site_fract_y
_atom_site_fract_z
Nd1 Nd 0.54421(3) 0.37815(3) 0.09762(2)
Nd2 Nd 0.81613(3) 0.11711(2) 0.11071(2)
Ag1 Ag 1.05126(6) 0.45730(4) 0.18805(3)
O1 O 0.6189(5) 0.4442(4) -0.0521(3)
O2 O 0.5432(5) 0.4490(4) -0.2106(3)
O3 O 0.7767(5) 0.2953(3) 0.0496(3)
O4 O 0.9979(5) 0.3900(3) 0.0140(3)
O5 O 0.9869(5) 0.1365(4) -0.0131(3)
O6 O 1.0277(5) 0.0189(4) -0.1569(3)
O7 O 0.2979(5) 0.3031(4) 0.1493(3)
O8 O 0.0746(5) 0.2446(4) 0.2025(3)
O9 O 0.5391(4) 0.1627(3) 0.0928(3)
O10 O 0.3194(5) 0.0204(4) 0.0531(3)
O11 O 0.6416(5) -0.0272(4) 0.1666(3)
O12 O 0.6714(8) -0.0717(6) 0.3160(4)
O13 O 0.6649(6) 0.3899(4) 0.2691(3)
O14 O 0.7968(5) 0.2428(4) 0.2752(3)
O15 O 0.3316(6) 0.2543(4) -0.0539(3)
H1 H 0.3399 0.1854 -0.0882
H2 H 0.2439 0.2459 -0.0320
O16 O 0.7860(5) 0.5524(4) 0.1472(3)
H3 H 0.7772 0.6056 0.1999
H4 H 0.7926 0.5839 0.0980
N1 N 0.8730(6) 0.4672(5) 0.6439(4)
C1 C 0.6171(7) 0.4056(5) -0.1482(4)
C2 C 0.8665(6) 0.3213(5) -0.0135(4)
C3 C 0.9701(6) 0.1030(5) -0.1096(4)
C4 C 0.7031(7) 0.3072(5) -0.1887(4)
C5 C 0.8092(7) 0.2626(5) -0.1269(4)
C6 C 0.8745(7) 0.1650(5) -0.1727(4)
C7 C 0.8492(7) 0.1221(5) -0.2787(4)
H5 H 0.8982 0.0607 -0.3090
C8 C 0.7512(8) 0.1703(5) -0.3395(4)
H6 H 0.7360 0.1421 -0.4108
C9 C 0.6754(7) 0.2601(5) -0.2955(4)
H7 H 0.6056 0.2892 -0.3371
C10 C 0.2204(7) 0.2464(5) 0.2002(4)
C11 C 0.4278(6) 0.0956(5) 0.1167(4)
C12 C 0.6155(7) -0.0182(6) 0.2575(5)
C13 C 0.3094(7) 0.1847(5) 0.2669(4)
C14 C 0.4171(6) 0.1157(5) 0.2284(4)
C15 C 0.5047(7) 0.0641(5) 0.2943(4)
C16 C 0.4859(8) 0.0869(6) 0.3964(5)
H8 H 0.5478 0.0559 0.4409
C17 C 0.3770(9) 0.1549(6) 0.4338(5)
H9 H 0.3656 0.1689 0.5022
C18 C 0.2864(8) 0.2010(6) 0.3671(5)
H10 H 0.2093 0.2432 0.3898
C19 C 0.7452(7) 0.3335(5) 0.3157(4)
C20 C 0.7851(7) 0.3779(5) 0.4314(4)
C21 C 0.9093(8) 0.3437(6) 0.4859(4)
H11 H 0.9640 0.2883 0.4521
C22 C 0.9510(8) 0.3928(6) 0.5911(5)
H12 H 1.0384 0.3725 0.6265
C23 C 0.7484(8) 0.4964(6) 0.5916(4)
H13 H 0.6895 0.5460 0.6282
C24 C 0.7035(8) 0.4565(6) 0.4869(4)
H14 H 0.6193 0.4819 0.4532
Nd1A Nd 0.45579(3) 0.62185(3) -0.09762(2)
Nd2A Nd 1.18387(3) -0.11711(2) -0.11071(2)
Nd2_2 Nd -0.18387(3) 0.11711(2) 0.11071(2)
Nd2A_2 Nd 0.18387(3) -0.11711(2) -0.11071(2)
Ag1_2 Ag 0.05126(6) 0.45730(4) 0.18805(3)
Ag1A Ag 0.94874(6) 0.54270(4) 0.81195(3)
O1A O 0.3811(5) 0.5558(4) 0.0521(3)
O2A O 0.4568(5) 0.5510(4) 0.2106(3)
O6A O 0.9723(5) -0.0189(4) 0.1569(3)
O8_2 O 1.0746(5) 0.2446(4) 0.2025(3)
O10A O 0.6806(5) -0.0204(4) -0.0531(3)
N1A N 1.1270(6) 0.5328(5) 0.3561(4)
O17 O 0.7622(8) -0.2791(6) 0.3123(5)
H15 H 0.6879 -0.3120 0.3370
H16 H 0.7455 -0.2089 0.3170
loop_
_geom_bond_atom_site_label_1
_geom_bond_atom_site_label_2
_geom_bond_site_symmetry_1
_geom_bond_site_symmetry_2
Nd1 O1 1_555 1_555
Nd2 O3 1_555 1_555
Ag1 O4 1_555 1_555
O1 C1 1_555 1_555
O2 C1 1_555 1_555
O3 Nd1 1_555 1_555
O4 C2 1_555 1_555
O5 Nd2 1_555 1_555
O6 C3 1_555 1_555
O7 Nd1 1_555 1_555
O8 C10 1_555 1_555
O9 Nd1 1_555 1_555
O10 C11 1_555 1_555
O11 Nd2 1_555 1_555
O12 C12 1_555 1_555
O13 Nd1 1_555 1_555
O14 Nd2 1_555 1_555
O15 Nd1 1_555 1_555
H1 O15 1_555 1_555
H2 O15 1_555 1_555
O16 Nd1 1_555 1_555
H3 O16 1_555 1_555
H4 O16 1_555 1_555
N1 C22 1_555 1_555
C1 C4 1_555 1_555
C2 O3 1_555 1_555
C3 O5 1_555 1_555
C4 C5 1_555 1_555
C5 C2 1_555 1_555
C6 C3 1_555 1_555
C7 C6 1_555 1_555
H5 C7 1_555 1_555
C8 C7 1_555 1_555
H6 C8 1_555 1_555
C9 C4 1_555 1_555
H7 C9 1_555 1_555
C10 O7 1_555 1_555
C11 O9 1_555 1_555
C12 O11 1_555 1_555
C13 C10 1_555 1_555
C14 C11 1_555 1_555
C15 C12 1_555 1_555
C16 C15 1_555 1_555
H8 C16 1_555 1_555
C17 C16 1_555 1_555
H9 C17 1_555 1_555
C18 C13 1_555 1_555
H10 C18 1_555 1_555
C19 O13 1_555 1_555
C20 C19 1_555 1_555
C21 C20 1_555 1_555
H11 C21 1_555 1_555
C22 C21 1_555 1_555
H12 C22 1_555 1_555
C23 N1 1_555 1_555
H13 C23 1_555 1_555
C24 C20 1_555 1_555
H14 C24 1_555 1_555
O17 H15 1_555 1_555
H16 O17 1_555 1_555
Nd1A O1 1_555 1_555
Nd2A O6 1_555 1_555
Nd2_2 O8 1_555 1_555
Nd2A_2 O10 1_555 1_555
Ag1_2 O8 1_555 1_555
Ag1A N1 1_555 1_555
O1A Nd1 1_555 1_555
O2A Nd1 1_555 1_555
O6A Nd2 1_555 1_555
O8_2 Nd2 1_555 1_555
O10A Nd2 1_555 1_555
N1A Ag1 1_555 1_555
Nd2 O9 1_555 1_555
Ag1 O8_2 1_555 1_555
O2 Nd1A 1_555 1_555
O14 C19 1_555 1_555
C5 C6 1_555 1_555
C8 C9 1_555 1_555
C13 C14 1_555 1_555
C14 C15 1_555 1_555
C17 C18 1_555 1_555
C23 C24 1_555 1_555
Nd1A O1A 1_555 1_555

#END
