
#######################################################################
#
#                 Cambridge Crystallographic Data Centre
#                                CCDC 
#
#######################################################################
#
# If this CIF has been generated from an entry in the Cambridge 
# Structural Database, then it will include bibliographic, chemical, 
# crystal, experimental, refinement or atomic coordinate data resulting 
# from the CCDC's data processing and validation procedures.
#
#######################################################################

data_LEQCOB
_symmetry_cell_setting           monoclinic
_symmetry_space_group_name_H-M   'P 21/n'
_symmetry_Int_Tables_number      14
_space_group_name_Hall           '-P 2yn'
loop_
_symmetry_equiv_pos_site_id
_symmetry_equiv_pos_as_xyz
1 x,y,z
2 1/2-x,1/2+y,1/2-z
3 -x,-y,-z
4 1/2+x,1/2-y,1/2+z
_cell_length_a                   11.5888(5)
_cell_length_b                   15.4052(6)
_cell_length_c                   12.2398(5)
_cell_angle_alpha                90
_cell_angle_beta                 111.770(2)
_cell_angle_gamma                90
_cell_volume                     2029.3
loop_
_atom_site_label
_atom_site_type_symbol
_atom_site_fract_x
_atom_site_fract_y
_atom_site_fract_z
C1 C 0.7600(5) 0.3798(5) 1.1811(6)
H1 H 0.6933 0.3461 1.1809
C2 C 0.8671(6) 0.3821(5) 1.2834(6)
H2 H 0.8719 0.3503 1.3496
C3 C 0.9555(6) 0.4758(4) 1.1840(5)
H3 H 1.0221 0.5084 1.1816
C4 C 0.8460(6) 0.4708(4) 1.0868(5)
H4 H 0.8388 0.5019 1.0195
C5 C 0.9638(5) 0.4319(3) 1.2837(4)
C6 C 1.1887(5) 0.4121(3) 1.5746(5)
C7 C 1.2704(8) 0.4768(5) 1.5918(5)
H5 H 1.2562 0.5207 1.5362
C8 C 1.3768(8) 0.4779(5) 1.6938(6)
H6 H 1.4316 0.5242 1.7057
C9 C 1.3194(6) 0.3552(5) 1.7581(7)
H7 H 1.3329 0.3133 1.8163
C10 C 0.7040(7) 0.3507(5) 0.8064(5)
C11 C 0.7625(4) 0.2906(4) 0.7420(4)
C12 C 1.2115(7) 0.3502(5) 1.6583(7)
H8 H 1.1557 0.3049 1.6492
C13 C 0.7517(4) 0.2008(4) 0.7494(4)
H9 H 0.7080 0.1771 0.7925
C14 C 0.8077(4) 0.1469(3) 0.6909(4)
H10 H 0.8021 0.0869 0.6954
C15 C 0.8242(5) 0.3270(3) 0.6753(5)
H11 H 0.8289 0.3869 0.6693
C16 C 0.8789(4) 0.2728(3) 0.6174(4)
H12 H 0.9207 0.2963 0.5726
C17 C 0.8708(4) 0.1833(3) 0.6269(3)
C18 C 0.9341(3) 0.1241(3) 0.5680(3)
N1 N 0.7494(3) 0.4223(2) 1.0870(4)
N2 N 1.0786(4) 0.4403(3) 1.3828(4)
N3 N 1.0752(4) 0.4046(3) 1.4743(4)
N4 N 1.4035(3) 0.4165(2) 1.7741(3)
O1 O 0.6393(4) 0.3173(3) 0.8550(4)
O2 O 0.7167(5) 0.4258(3) 0.8078(4)
O3 O 0.9962(4) 0.1599(3) 0.5141(4)
O4 O 0.9249(4) 0.0460(4) 0.5763(4)
Zn1 Zn 0.57755(4) 0.41396(3) 0.92847(4)
N4_2 N 0.4035(3) 0.4165(2) 0.7741(3)
O3C O 0.4962(4) 0.3401(3) 1.0141(4)
O4A O 0.5751(4) 0.5460(4) 0.9237(4)
Zn1_2 Zn 1.57755(4) 0.41396(3) 1.92847(4)
Zn1C Zn 1.07755(4) 0.08604(3) 0.42847(4)
Zn1A Zn 0.92245(4) -0.08604(3) 0.57153(4)
C19 C 1.0865(5) 0.2366(6) 0.9138(6)
C20 C 1.0089(9) 0.1213(6) 0.9927(7)
H13 H 0.9605 0.1139 1.0409
H14 H 1.0890 0.0951 1.0307
H15 H 0.9672 0.0941 0.9178
C21 C 0.9652(6) 0.2709(5) 1.0289(6)
H16 H 0.9242 0.2386 1.0710
H17 H 0.9052 0.3052 0.9690
H18 H 1.0265 0.3084 1.0824
N5 N 1.0239(5) 0.2126(4) 0.9758(5)
O5 O 1.1378(4) 0.1878(5) 0.8656(4)
loop_
_geom_bond_atom_site_label_1
_geom_bond_atom_site_label_2
_geom_bond_site_symmetry_1
_geom_bond_site_symmetry_2
C1 H1 1_555 1_555
C2 C1 1_555 1_555
H2 C2 1_555 1_555
C3 H3 1_555 1_555
C4 C3 1_555 1_555
H4 C4 1_555 1_555
C5 C2 1_555 1_555
C6 C7 1_555 1_555
C7 H5 1_555 1_555
C8 C7 1_555 1_555
H6 C8 1_555 1_555
C9 H7 1_555 1_555
C10 C11 1_555 1_555
C11 C13 1_555 1_555
C12 C6 1_555 1_555
H8 C12 1_555 1_555
C13 H9 1_555 1_555
C14 C13 1_555 1_555
H10 C14 1_555 1_555
C15 C11 1_555 1_555
H11 C15 1_555 1_555
C16 C15 1_555 1_555
H12 C16 1_555 1_555
C17 C14 1_555 1_555
C18 C17 1_555 1_555
C19 N5 1_555 1_555
C20 H13 1_555 1_555
H14 C20 1_555 1_555
H15 C20 1_555 1_555
C21 H16 1_555 1_555
H17 C21 1_555 1_555
H18 C21 1_555 1_555
N1 C1 1_555 1_555
N2 C5 1_555 1_555
N3 C6 1_555 1_555
N4 C8 1_555 1_555
N5 C20 1_555 1_555
O1 C10 1_555 1_555
O2 C10 1_555 1_555
O3 C18 1_555 1_555
O4 C18 1_555 1_555
O5 C19 1_555 1_555
Zn1 N1 1_555 1_555
N4_2 Zn1 1_555 1_555
O3C Zn1 1_555 1_555
O4A Zn1 1_555 1_555
Zn1_2 N4 1_555 1_555
Zn1C O3 1_555 1_555
Zn1A O4 1_555 1_555
C3 C5 1_555 1_555
C4 N1 1_555 1_555
C9 C12 1_555 1_555
C9 N4 1_555 1_555
C16 C17 1_555 1_555
C21 N5 1_555 1_555
N2 N3 1_555 1_555
O1 Zn1 1_555 1_555
O2 Zn1 1_555 1_555

#END
