
#######################################################################
#
#                 Cambridge Crystallographic Data Centre
#                                CCDC 
#
#######################################################################
#
# If this CIF has been generated from an entry in the Cambridge 
# Structural Database, then it will include bibliographic, chemical, 
# crystal, experimental, refinement or atomic coordinate data resulting 
# from the CCDC's data processing and validation procedures.
#
#######################################################################

data_LEQLAW
_symmetry_cell_setting           monoclinic
_symmetry_space_group_name_H-M   'P 21/c'
_symmetry_Int_Tables_number      14
_space_group_name_Hall           '-P 2ybc'
loop_
_symmetry_equiv_pos_site_id
_symmetry_equiv_pos_as_xyz
1 x,y,z
2 -x,1/2+y,1/2-z
3 -x,-y,-z
4 x,1/2-y,1/2+z
_cell_length_a                   8.1104(2)
_cell_length_b                   17.6706(6)
_cell_length_c                   16.9850(6)
_cell_angle_alpha                90
_cell_angle_beta                 101.081(2)
_cell_angle_gamma                90
_cell_volume                     2388.83
loop_
_atom_site_label
_atom_site_type_symbol
_atom_site_fract_x
_atom_site_fract_y
_atom_site_fract_z
C1 C 0.3801(7) 0.1397(3) 0.7916(4)
H1 H 0.4133 0.1613 0.7472
C2 C 0.1979(9) 0.1362(4) 0.8788(4)
H2 H 0.1025 0.1548 0.8950
C3 C 0.2874(9) 0.0800(5) 0.9225(4)
H3 H 0.2534 0.0610 0.9678
C4 C 0.4283(8) 0.0514(4) 0.8991(4)
H4 H 0.4900 0.0126 0.9277
C5 C 0.4761(7) 0.0821(3) 0.8316(4)
C6 C 0.6466(7) 0.0528(3) 0.7313(4)
C7 C 0.8206(6) 0.0340(3) 0.7199(3)
C8 C 0.9327(7) -0.0106(4) 0.7723(4)
H5 H 0.9030 -0.0294 0.8188
C9 C 1.0887(7) -0.0269(4) 0.7551(4)
H6 H 1.1635 -0.0572 0.7899
C10 C 1.1345(7) 0.0016(3) 0.6861(4)
H7 H 1.2395 -0.0099 0.6749
C11 C 1.0246(7) 0.0468(3) 0.6341(4)
C12 C 0.8670(7) 0.0623(3) 0.6511(4)
H8 H 0.7917 0.0919 0.6159
C13 C 1.0582(7) 0.0784(4) 0.5570(4)
C14 C 1.2850(7) 0.1044(3) 0.4819(4)
C15 C 1.1890(7) 0.1368(3) 0.4137(4)
H9 H 1.0756 0.1459 0.4125
C16 C 1.4173(7) 0.1444(4) 0.3517(4)
H10 H 1.4613 0.1576 0.3069
C17 C 1.5226(7) 0.1144(4) 0.4175(4)
H11 H 1.6362 0.1073 0.4175
C18 C 1.4560(7) 0.0953(4) 0.4831(4)
H12 H 1.5254 0.0760 0.5286
Hg1 Hg 0.09320(3) 0.272469(16) 0.742745(15)
I1 I -0.20970(6) 0.25859(3) 0.77771(4)
I2 I 0.24613(7) 0.29593(3) 0.62026(3)
N1 N 0.2429(6) 0.1653(3) 0.8137(3)
N2 N 0.6252(6) 0.0561(3) 0.8083(3)
H13 H 0.7069 0.0417 0.8453
N3 N 1.2540(6) 0.1552(3) 0.3503(3)
N4 N 1.2232(5) 0.0820(3) 0.5499(3)
H14 H 1.2964 0.0693 0.5914
O1 O 0.9440(5) 0.0989(3) 0.5041(3)
O2 O 0.5337(5) 0.0653(3) 0.6748(2)
Hg1C Hg 1.09320(3) 0.227531(16) 0.242745(15)
N3C N 0.2540(6) 0.3448(3) 0.8503(3)
C19 C 0.730(2) 0.2189(10) 0.0266(10)
H15 H 0.8128 0.2539 0.0155
H16 H 0.7193 0.2235 0.0818
H17 H 0.6234 0.2301 -0.0073
C20 C 0.794(5) 0.120(4) 0.007(3)
N5 N 0.829(3) 0.097(3) -0.0216(14)
loop_
_geom_bond_atom_site_label_1
_geom_bond_atom_site_label_2
_geom_bond_site_symmetry_1
_geom_bond_site_symmetry_2
C1 H1 1_555 1_555
C2 H2 1_555 1_555
C3 C2 1_555 1_555
H3 C3 1_555 1_555
C4 C3 1_555 1_555
H4 C4 1_555 1_555
C5 C1 1_555 1_555
C6 C7 1_555 1_555
C7 C8 1_555 1_555
C8 H5 1_555 1_555
C9 C8 1_555 1_555
H6 C9 1_555 1_555
C10 C9 1_555 1_555
H7 C10 1_555 1_555
C11 C10 1_555 1_555
C12 C7 1_555 1_555
H8 C12 1_555 1_555
C13 C11 1_555 1_555
C14 C15 1_555 1_555
C15 H9 1_555 1_555
C16 H10 1_555 1_555
C17 C16 1_555 1_555
H11 C17 1_555 1_555
C18 C14 1_555 1_555
H12 C18 1_555 1_555
Hg1 I1 1_555 1_555
I2 Hg1 1_555 1_555
N1 C1 1_555 1_555
N2 C5 1_555 1_555
H13 N2 1_555 1_555
N3 C15 1_555 1_555
N4 C13 1_555 1_555
H14 N4 1_555 1_555
O1 C13 1_555 1_555
O2 C6 1_555 1_555
C19 H15 1_555 1_555
H16 C19 1_555 1_555
H17 C19 1_555 1_555
C20 C19 1_555 1_555
N5 C20 1_555 1_555
Hg1C N3 1_555 1_555
N3C Hg1 1_555 1_555
C2 N1 1_555 1_555
C4 C5 1_555 1_555
C6 N2 1_555 1_555
C11 C12 1_555 1_555
C14 N4 1_555 1_555
C16 N3 1_555 1_555
C17 C18 1_555 1_555
Hg1 N1 1_555 1_555

#END
