
#######################################################################
#
#                 Cambridge Crystallographic Data Centre
#                                CCDC 
#
#######################################################################
#
# If this CIF has been generated from an entry in the Cambridge 
# Structural Database, then it will include bibliographic, chemical, 
# crystal, experimental, refinement or atomic coordinate data resulting 
# from the CCDC's data processing and validation procedures.
#
#######################################################################

data_LEQQEE
_symmetry_cell_setting           monoclinic
_symmetry_space_group_name_H-M   'P 21/n'
_symmetry_Int_Tables_number      14
_space_group_name_Hall           '-P 2yn'
loop_
_symmetry_equiv_pos_site_id
_symmetry_equiv_pos_as_xyz
1 x,y,z
2 1/2-x,1/2+y,1/2-z
3 -x,-y,-z
4 1/2+x,1/2-y,1/2+z
_cell_length_a                   10.043(3)
_cell_length_b                   31.429(9)
_cell_length_c                   11.821(4)
_cell_angle_alpha                90
_cell_angle_beta                 92.980(5)
_cell_angle_gamma                90
_cell_volume                     3726.15
loop_
_atom_site_label
_atom_site_type_symbol
_atom_site_fract_x
_atom_site_fract_y
_atom_site_fract_z
Cu1 Cu 0.33025(7) 0.87446(3) 0.30486(8)
Cu2 Cu 0.18025(7) 1.12232(3) 0.26130(8)
O1 O 0.4040(4) 0.91783(15) 0.2121(4)
O2 O 0.1217(4) 0.87952(16) 0.1939(5)
H1 H 0.0739 0.8980 0.2512
H2 H 0.1254 0.8929 0.1094
O3 O 0.2709(4) 0.91500(14) 0.4100(4)
O4 O 0.5490(4) 0.86497(16) 0.4371(5)
H3 H 0.6294 0.8684 0.3805
H4 H 0.5788 0.8668 0.5125
O5 O 0.1014(4) 1.07201(15) 0.1970(4)
O6 O 0.0068(4) 1.11553(15) 0.4038(5)
H5 H 0.0083 1.1136 0.4955
H6 H -0.0671 1.1002 0.4141
O7 O 0.3143(4) 1.09264(14) 0.3488(4)
O8 O 0.3596(4) 1.11574(16) 0.1085(5)
H7 H 0.3467 1.1146 0.0147
H8 H 0.3973 1.1333 0.1011
N1 N 0.4151(5) 0.82986(18) 0.2074(5)
N2 N 0.7397(5) 0.67104(17) -0.1033(5)
N3 N 0.2553(5) 1.17478(18) 0.3371(5)
N4 N 0.5708(5) 1.34065(19) 0.6537(5)
C1 C 0.4170(7) 0.9831(2) 0.1172(7)
H9 H 0.4875 1.0014 0.1458
H10 H 0.3453 1.0001 0.0846
H11 H 0.4500 0.9646 0.0603
C2 C 0.3679(6) 0.9573(2) 0.2107(6)
C3 C 0.2946(6) 0.9763(2) 0.2950(6)
C4 C 0.2524(6) 0.9544(2) 0.3883(6)
C5 C 0.1755(6) 0.9777(2) 0.4766(6)
H12 H 0.0864 0.9832 0.4470
H13 H 0.2192 1.0041 0.4953
H14 H 0.1724 0.9604 0.5435
C6 C 0.0560(6) 0.9993(2) 0.1676(7)
H15 H -0.0248 1.0113 0.1342
H16 H 0.0346 0.9796 0.2259
H17 H 0.1030 0.9848 0.1105
C7 C 0.1422(6) 1.0344(2) 0.2180(6)
C8 C 0.2599(6) 1.0229(2) 0.2823(6)
C9 C 0.3400(6) 1.0531(2) 0.3392(6)
C10 C 0.4718(6) 1.0409(2) 0.3987(7)
H18 H 0.5347 1.0636 0.3913
H19 H 0.5052 1.0155 0.3650
H20 H 0.4589 1.0358 0.4775
C11 C 0.4300(6) 0.8345(2) 0.0979(7)
H21 H 0.3967 0.8589 0.0626
C12 C 0.4935(6) 0.8044(2) 0.0325(6)
H22 H 0.5018 0.8090 -0.0445
C13 C 0.5440(6) 0.7675(2) 0.0831(6)
C14 C 0.5280(6) 0.7629(2) 0.1989(7)
H23 H 0.5594 0.7386 0.2365
C15 C 0.4657(6) 0.7944(2) 0.2572(7)
H24 H 0.4581 0.7910 0.3348
C16 C 0.6120(6) 0.7339(2) 0.0185(6)
C17 C 0.5916(6) 0.7304(2) -0.0961(7)
H25 H 0.5341 0.7492 -0.1350
C18 C 0.6562(6) 0.6993(2) -0.1542(6)
H26 H 0.6412 0.6977 -0.2324
C19 C 0.7572(6) 0.6736(2) 0.0080(7)
H27 H 0.8123 0.6536 0.0450
C20 C 0.6981(6) 0.7044(2) 0.0728(7)
H28 H 0.7152 0.7054 0.1509
C21 C 0.3775(6) 1.1896(2) 0.3112(6)
H29 H 0.4239 1.1758 0.2559
C22 C 0.4341(6) 1.2246(2) 0.3652(6)
H30 H 0.5150 1.2350 0.3421
C23 C 0.3733(6) 1.2444(2) 0.4525(6)
C24 C 0.2512(6) 1.2278(2) 0.4823(6)
H31 H 0.2071 1.2392 0.5426
C25 C 0.1970(6) 1.1939(2) 0.4199(7)
H32 H 0.1134 1.1841 0.4382
C26 C 0.4383(6) 1.2793(2) 0.5181(6)
C27 C 0.5752(6) 1.2853(2) 0.5158(6)
H33 H 0.6251 1.2690 0.4679
C28 C 0.6362(6) 1.3153(2) 0.5845(7)
H34 H 0.7282 1.3183 0.5830
C29 C 0.4361(6) 1.3362(2) 0.6523(6)
H35 H 0.3877 1.3538 0.6983
C30 C 0.3692(6) 1.3067(2) 0.5854(6)
H36 H 0.2767 1.3051 0.5852
Cu1C Cu 0.83025(7) 0.62554(3) -0.19514(8)
Cu2C Cu 0.68025(7) 1.37768(3) 0.76130(8)
N2C N 0.2397(5) 0.82896(17) 0.3967(5)
N4C N 0.0708(5) 1.15935(19) 0.1537(5)
O9 O 0.2292(5) 0.16684(19) 0.8445(5)
O10 O 0.2064(5) 0.16388(18) 0.6635(5)
O11 O 0.1753(4) 0.22372(17) 0.7492(5)
N5 N 0.2006(5) 0.1842(2) 0.7536(6)
O12 O 0.7776(5) 0.07903(18) 0.2718(5)
O13 O 0.6204(5) 0.07774(18) 0.1408(5)
O14 O 0.6476(5) 0.13391(19) 0.2454(5)
N6 N 0.6808(6) 0.0972(2) 0.2209(6)
O15 O 0.3358(4) 0.08615(16) 0.8756(5)
H37 H 0.4075 0.0935 0.8485
H38 H 0.2806 0.1179 0.8481
O16 O 0.0692(5) 0.08718(18) 0.6376(5)
H39 H 0.1470 0.0713 0.6008
H40 H 0.1096 0.1129 0.6694
O17 O 0.2508(5) 0.02184(18) 0.7199(5)
H41 H 0.2715 0.0268 0.7991
H42 H 0.2252 -0.0084 0.7424
O18 O 0.8715(5) 0.07948(17) 0.0163(5)
H43 H 0.7928 0.0756 0.0603
H44 H 0.9359 0.0775 0.0761
loop_
_geom_bond_atom_site_label_1
_geom_bond_atom_site_label_2
_geom_bond_site_symmetry_1
_geom_bond_site_symmetry_2
Cu1 O1 1_555 1_555
Cu2 O5 1_555 1_555
O1 C2 1_555 1_555
O2 Cu1 1_555 1_555
H1 O2 1_555 1_555
H2 O2 1_555 1_555
O3 Cu1 1_555 1_555
O4 Cu1 1_555 1_555
H3 O4 1_555 1_555
H4 O4 1_555 1_555
O5 C7 1_555 1_555
O6 Cu2 1_555 1_555
H5 O6 1_555 1_555
H6 O6 1_555 1_555
O7 Cu2 1_555 1_555
O8 Cu2 1_555 1_555
H7 O8 1_555 1_555
H8 O8 1_555 1_555
N1 Cu1 1_555 1_555
N2 C18 1_555 1_555
N3 Cu2 1_555 1_555
N4 C28 1_555 1_555
C1 H9 1_555 1_555
H10 C1 1_555 1_555
H11 C1 1_555 1_555
C2 C1 1_555 1_555
C3 C2 1_555 1_555
C4 O3 1_555 1_555
C5 C4 1_555 1_555
H12 C5 1_555 1_555
H13 C5 1_555 1_555
H14 C5 1_555 1_555
C6 H15 1_555 1_555
H16 C6 1_555 1_555
H17 C6 1_555 1_555
C7 C6 1_555 1_555
C8 C3 1_555 1_555
C9 O7 1_555 1_555
C10 C9 1_555 1_555
H18 C10 1_555 1_555
H19 C10 1_555 1_555
H20 C10 1_555 1_555
C11 N1 1_555 1_555
H21 C11 1_555 1_555
C12 C11 1_555 1_555
H22 C12 1_555 1_555
C13 C12 1_555 1_555
C14 C13 1_555 1_555
H23 C14 1_555 1_555
C15 N1 1_555 1_555
H24 C15 1_555 1_555
C16 C13 1_555 1_555
C17 C16 1_555 1_555
H25 C17 1_555 1_555
C18 C17 1_555 1_555
H26 C18 1_555 1_555
C19 N2 1_555 1_555
H27 C19 1_555 1_555
C20 C16 1_555 1_555
H28 C20 1_555 1_555
C21 N3 1_555 1_555
H29 C21 1_555 1_555
C22 C21 1_555 1_555
H30 C22 1_555 1_555
C23 C22 1_555 1_555
C24 C23 1_555 1_555
H31 C24 1_555 1_555
C25 N3 1_555 1_555
H32 C25 1_555 1_555
C26 C23 1_555 1_555
C27 C26 1_555 1_555
H33 C27 1_555 1_555
C28 C27 1_555 1_555
H34 C28 1_555 1_555
C29 N4 1_555 1_555
H35 C29 1_555 1_555
C30 C26 1_555 1_555
H36 C30 1_555 1_555
O9 N5 1_555 1_555
O10 N5 1_555 1_555
O11 N5 1_555 1_555
O12 N6 1_555 1_555
O13 N6 1_555 1_555
O14 N6 1_555 1_555
O15 H37 1_555 1_555
H38 O15 1_555 1_555
O16 H39 1_555 1_555
H40 O16 1_555 1_555
O17 H41 1_555 1_555
H42 O17 1_555 1_555
O18 H43 1_555 1_555
H44 O18 1_555 1_555
Cu1C N2 1_555 1_555
Cu2C N4 1_555 1_555
N2C Cu1 1_555 1_555
N4C Cu2 1_555 1_555
C3 C4 1_555 1_555
C7 C8 1_555 1_555
C8 C9 1_555 1_555
C14 C15 1_555 1_555
C19 C20 1_555 1_555
C24 C25 1_555 1_555
C29 C30 1_555 1_555

#END
