
#######################################################################
#
#                 Cambridge Crystallographic Data Centre
#                                CCDC 
#
#######################################################################
#
# If this CIF has been generated from an entry in the Cambridge 
# Structural Database, then it will include bibliographic, chemical, 
# crystal, experimental, refinement or atomic coordinate data resulting 
# from the CCDC's data processing and validation procedures.
#
#######################################################################

data_LEQREF
_symmetry_cell_setting           monoclinic
_symmetry_space_group_name_H-M   'C 2/c'
_symmetry_Int_Tables_number      15
_space_group_name_Hall           '-C 2yn'
loop_
_symmetry_equiv_pos_site_id
_symmetry_equiv_pos_as_xyz
1 x,y,z
2 1/2+x,1/2+y,z
3 -x,y,1/2-z
4 1/2-x,1/2+y,1/2-z
5 -x,-y,-z
6 1/2-x,1/2-y,-z
7 x,-y,1/2+z
8 1/2+x,1/2-y,1/2+z
_cell_length_a                   17.218(3)
_cell_length_b                   4.949(8)
_cell_length_c                   16.279(3)
_cell_angle_alpha                90
_cell_angle_beta                 115.98(10)
_cell_angle_gamma                90
_cell_volume                     1246.99
loop_
_atom_site_label
_atom_site_type_symbol
_atom_site_fract_x
_atom_site_fract_y
_atom_site_fract_z
Hg1 Hg 0.0000 -1.08348(6) -0.2500
N1 N 0.1032(3) -0.7582(10) -0.1454(3)
C1 C 0.1690(4) -0.6444(15) -0.1594(5)
H1 H 0.1755 -0.7012 -0.2105
C2 C 0.2258(4) -0.4544(13) -0.1048(4)
H2 H 0.2695 -0.3944 -0.1192
C3 C 0.2206(3) -0.3491(10) -0.0293(3)
C4 C 0.1504(4) -0.4516(14) -0.0171(4)
H3 H 0.1403 -0.3869 0.0310
C5 C 0.0975(4) -0.6397(13) -0.0726(4)
H4 H 0.0521 -0.6953 -0.0603
C6 C -0.0639(3) -1.1443(16) -0.1746(3)
N2 N -0.0993(3) -1.1674(19) -0.1334(3)
O1 O 0.0533(2) -1.4295(4) -0.1979(2)
Hg1G Hg 0.5000 0.58348(6) 0.2500
N1E N 0.3968(3) 0.2582(10) 0.1454(3)
N1B N -0.1032(3) -0.7582(10) -0.3546(3)
C1E C 0.3310(4) 0.1444(15) 0.1594(5)
H1E H 0.3245 0.2012 0.2105
C2E C 0.2742(4) -0.0456(13) 0.1048(4)
H2E H 0.2305 -0.1056 0.1192
C3E C 0.2794(3) -0.1509(10) 0.0293(3)
C4E C 0.3496(4) -0.0484(14) 0.0171(4)
H3E H 0.3597 -0.1131 -0.0310
C5E C 0.4025(4) 0.1397(13) 0.0726(4)
H4E H 0.4479 0.1953 0.0603
C6B C 0.0639(3) -1.1443(16) -0.3254(3)
N2B N 0.0993(3) -1.1674(19) -0.3666(3)
O1B O -0.0533(2) -1.4295(4) -0.3021(2)
loop_
_geom_bond_atom_site_label_1
_geom_bond_atom_site_label_2
_geom_bond_site_symmetry_1
_geom_bond_site_symmetry_2
Hg1 N1 1_555 1_555
N1 C1 1_555 1_555
C1 H1 1_555 1_555
C2 C1 1_555 1_555
H2 C2 1_555 1_555
C3 C2 1_555 1_555
C4 C3 1_555 1_555
H3 C4 1_555 1_555
C5 N1 1_555 1_555
H4 C5 1_555 1_555
C6 Hg1 1_555 1_555
N2 C6 1_555 1_555
O1 Hg1 1_555 1_555
Hg1G N1E 1_555 1_555
N1E C1E 1_555 1_555
N1B Hg1 1_555 1_555
C1E H1E 1_555 1_555
C2E C1E 1_555 1_555
H2E C2E 1_555 1_555
C3E C3 1_555 1_555
C4E C3E 1_555 1_555
H3E C4E 1_555 1_555
C5E N1E 1_555 1_555
H4E C5E 1_555 1_555
C6B Hg1 1_555 1_555
N2B C6B 1_555 1_555
O1B Hg1 1_555 1_555
C4 C5 1_555 1_555
C2E C3E 1_555 1_555
C4E C5E 1_555 1_555

#END
