
#######################################################################
#
#                 Cambridge Crystallographic Data Centre
#                                CCDC 
#
#######################################################################
#
# If this CIF has been generated from an entry in the Cambridge 
# Structural Database, then it will include bibliographic, chemical, 
# crystal, experimental, refinement or atomic coordinate data resulting 
# from the CCDC's data processing and validation procedures.
#
#######################################################################

data_LEQTOQ
_symmetry_cell_setting           triclinic
_symmetry_space_group_name_H-M   'P -1'
_symmetry_Int_Tables_number      2
_space_group_name_Hall           '-P 1'
loop_
_symmetry_equiv_pos_site_id
_symmetry_equiv_pos_as_xyz
1 x,y,z
2 -x,-y,-z
_cell_length_a                   10.2149(5)
_cell_length_b                   15.0028(8)
_cell_length_c                   5.0324(3)
_cell_angle_alpha                95.563(4)
_cell_angle_beta                 116.858(4)
_cell_angle_gamma                95.684(4)
_cell_volume                     675.874
loop_
_atom_site_label
_atom_site_type_symbol
_atom_site_fract_x
_atom_site_fract_y
_atom_site_fract_z
P1 P -0.0988(8) 0.1044(5) 0.431(2)
O1 O -0.055(2) 0.1003(10) 0.165(3)
O2 O -0.252(1) 0.0456(9) 0.333(3)
O3 O 0.021(1) 0.0736(8) 0.708(3)
C1 C -0.101(1) 0.2234(5) 0.517(4)
C2 C 0.027(1) 0.2853(8) 0.588(5)
C3 C 0.028(1) 0.3783(7) 0.658(4)
C4 C -0.089(2) 0.4038(7) 0.711(4)
C5 C -0.227(1) 0.3480(9) 0.554(5)
C6 C -0.236(1) 0.2586(7) 0.428(4)
P2 P -0.3968(8) -0.1091(5) -0.443(2)
O4 O -0.443(1) -0.0911(9) -0.193(3)
O5 O -0.241(1) -0.0518(9) -0.334(3)
O6 O -0.505(1) -0.0802(8) -0.742(3)
C7 C -0.389(2) -0.2269(6) -0.510(3)
C8 C -0.462(2) -0.2737(8) -0.809(2)
C9 C -0.487(2) -0.368(8) -0.855(3)
C10 C -0.402(2) -0.4140(6) -0.619(4)
C11 C -0.301(2) -0.3644(9) -0.340(3)
C12 C -0.311(2) -0.2728(8) -0.275(2)
Mn1 Mn 0.0000 0.0000 0.0000
Mn2 Mn -0.5000 0.0000 0.0000
O1A O 0.055(2) -0.1003(10) -0.165(3)
O3_2 O 0.021(1) 0.0736(8) -0.292(3)
O3A O -0.021(1) -0.0736(8) 0.292(3)
O5A O 0.241(1) 0.0518(9) 0.334(3)
Mn1A Mn 0.0000 0.0000 1.0000
Mn2_2 Mn -0.5000 0.0000 -1.0000
P1A P -0.9012(8) -0.1044(5) -0.431(2)
O1A_2 O -0.945(2) -0.1003(10) -0.165(3)
O2A O -0.748(1) -0.0456(9) -0.333(3)
O3A_2 O -1.021(1) -0.0736(8) -0.708(3)
C1A C -0.899(1) -0.2234(5) -0.517(4)
C2A C -1.027(1) -0.2853(8) -0.588(5)
C3A C -1.028(1) -0.3783(7) -0.658(4)
C4A C -0.911(2) -0.4038(7) -0.711(4)
C5A C -0.773(1) -0.3480(9) -0.554(5)
C6A C -0.764(1) -0.2586(7) -0.428(4)
P2A P -0.6032(8) 0.1091(5) 0.443(2)
O4A O -0.557(1) 0.0911(9) 0.193(3)
O5A_2 O -0.759(1) 0.0518(9) 0.334(3)
O6A O -0.495(1) 0.0802(8) 0.742(3)
C7A C -0.611(2) 0.2269(6) 0.510(3)
C8A C -0.538(2) 0.2737(8) 0.809(2)
C9A C -0.513(2) 0.368(8) 0.855(3)
C10A C -0.598(2) 0.4140(6) 0.619(4)
C11A C -0.699(2) 0.3644(9) 0.340(3)
C12A C -0.689(2) 0.2728(8) 0.275(2)
O6A_2 O -0.495(1) 0.0802(8) -0.258(3)
O6_2 O -0.505(1) -0.0802(8) 0.258(3)
Mn1A_2 Mn -1.0000 0.0000 0.0000
Mn1A_3 Mn -1.0000 0.0000 -1.0000
Mn2A Mn -0.5000 0.0000 1.0000
loop_
_geom_bond_atom_site_label_1
_geom_bond_atom_site_label_2
_geom_bond_site_symmetry_1
_geom_bond_site_symmetry_2
P1 O1 1_555 1_555
O1 Mn1 1_555 1_555
O2 P1 1_555 1_555
O3 P1 1_555 1_555
C1 P1 1_555 1_555
C2 C1 1_555 1_555
C3 C2 1_555 1_555
C4 C3 1_555 1_555
C5 C4 1_555 1_555
C6 C1 1_555 1_555
P2 O4 1_555 1_555
O4 Mn2 1_555 1_555
O5 P2 1_555 1_555
O6 P2 1_555 1_555
C7 P2 1_555 1_555
C8 C7 1_555 1_555
C9 C8 1_555 1_555
C10 C9 1_555 1_555
C11 C10 1_555 1_555
C12 C7 1_555 1_555
Mn1 O5 1_555 1_555
Mn2 O2 1_555 1_555
O1A Mn1 1_555 1_555
O3_2 Mn1 1_555 1_555
O3A Mn1 1_555 1_555
O5A Mn1 1_555 1_555
Mn1A O3 1_555 1_555
Mn2_2 O6 1_555 1_555
P1A O1A_2 1_555 1_555
O1A_2 Mn1A_2 1_555 1_555
O2A Mn2 1_555 1_555
O3A_2 P1A 1_555 1_555
C1A P1A 1_555 1_555
C2A C1A 1_555 1_555
C3A C2A 1_555 1_555
C4A C3A 1_555 1_555
C5A C4A 1_555 1_555
C6A C1A 1_555 1_555
P2A O4A 1_555 1_555
O4A Mn2 1_555 1_555
O5A_2 P2A 1_555 1_555
O6A P2A 1_555 1_555
C7A P2A 1_555 1_555
C8A C7A 1_555 1_555
C9A C8A 1_555 1_555
C10A C9A 1_555 1_555
C11A C10A 1_555 1_555
C12A C7A 1_555 1_555
O6A_2 Mn2 1_555 1_555
O6_2 Mn2 1_555 1_555
Mn1A_2 O5A_2 1_555 1_555
Mn1A_3 O3A_2 1_555 1_555
Mn2A O6A 1_555 1_555
C5 C6 1_555 1_555
C11 C12 1_555 1_555
P1A O2A 1_555 1_555
C5A C6A 1_555 1_555
C11A C12A 1_555 1_555

#END
