
#######################################################################
#
#                 Cambridge Crystallographic Data Centre
#                                CCDC 
#
#######################################################################
#
# If this CIF has been generated from an entry in the Cambridge 
# Structural Database, then it will include bibliographic, chemical, 
# crystal, experimental, refinement or atomic coordinate data resulting 
# from the CCDC's data processing and validation procedures.
#
#######################################################################

data_LEQTUY
_symmetry_cell_setting           monoclinic
_symmetry_space_group_name_H-M   'P 2/n'
_symmetry_Int_Tables_number      13
_space_group_name_Hall           '-P 2yac'
loop_
_symmetry_equiv_pos_site_id
_symmetry_equiv_pos_as_xyz
1 x,y,z
2 1/2-x,y,1/2-z
3 -x,-y,-z
4 1/2+x,-y,1/2+z
_cell_length_a                   13.022(3)
_cell_length_b                   4.9269(10)
_cell_length_c                   19.420(4)
_cell_angle_alpha                90
_cell_angle_beta                 92.54(3)
_cell_angle_gamma                90
_cell_volume                     1244.73
loop_
_atom_site_label
_atom_site_type_symbol
_atom_site_fract_x
_atom_site_fract_y
_atom_site_fract_z
La1 La 0.230949(9) 0.30366(3) 0.462681(6)
O1 O -0.17268(14) 0.1398(4) -0.00689(8)
O2 O -0.14481(13) 0.5137(3) 0.05406(9)
O3 O 0.10580(14) 0.3500(4) 0.09680(10)
O4 O -0.12635(18) 0.6344(6) 0.30450(12)
O5 O 0.16005(16) 0.5553(4) 0.35673(10)
O6 O 0.21154(13) 0.9843(4) 0.36714(9)
O7 O 0.11893(14) 0.6514(4) 0.51960(11)
O8 O -0.03796(14) 0.7761(3) 0.54948(10)
N1 N -0.03579(17) 0.2771(4) 0.15563(11)
N2 N 0.02225(19) 0.6916(4) 0.24984(12)
C1 C -0.13570(19) 0.2642(5) 0.04486(12)
C2 C -0.07713(18) 0.1004(5) 0.10108(12)
H1 H -0.1240 -0.0341 0.1209
H2 H -0.0202 0.0003 0.0805
C3 C 0.05291(17) 0.4024(5) 0.14654(12)
C4 C -0.1062(2) 0.3585(6) 0.20841(14)
H3 H -0.1239 0.1950 0.2351
H4 H -0.1705 0.4245 0.1849
C5 C 0.09306(19) 0.6067(6) 0.19807(13)
H5 H 0.1551 0.5302 0.2221
H6 H 0.1147 0.7699 0.1727
C6 C -0.06865(19) 0.5736(5) 0.25856(13)
C7 C 0.0628(2) 0.8989(5) 0.29710(13)
H7 H 0.0067 0.9630 0.3258
H8 H 0.0862 1.0554 0.2699
C8 C 0.1521(2) 0.8015(5) 0.34452(13)
C9 C 0.02240(18) 0.6237(5) 0.52002(13)
O9 O 0.18441(13) 0.1122(4) 0.58007(8)
H9 H 0.1456 -0.0252 0.5741
H10 H 0.1609 0.1957 0.6143
La1A La 0.269051(9) 0.30366(3) 0.037319(6)
La1_2 La 0.230949(9) 1.30366(3) 0.462681(6)
La1A_2 La 0.269051(9) 1.30366(3) 0.037319(6)
La1B La -0.230949(9) 0.69634(3) 0.537319(6)
La1B_2 La 0.769051(9) -0.30366(3) 0.537319(6)
La1B_3 La 0.769051(9) 0.69634(3) 0.537319(6)
La1C La -0.269051(9) -0.30366(3) -0.037319(6)
La1C_2 La -0.269051(9) 0.69634(3) -0.037319(6)
O1A O 0.67268(14) 0.1398(4) 0.50689(8)
O1B O 0.17268(14) -0.1398(4) 0.00689(8)
O1C O 0.32732(14) -0.1398(4) 0.49311(8)
O2A O 0.64481(13) 0.5137(3) 0.44594(9)
O2B O 0.14481(13) 0.4863(3) -0.05406(9)
O2C O 0.35519(13) 0.4863(3) 0.55406(9)
O3A O 0.39420(14) 0.3500(4) 0.40320(10)
O4A O 0.62635(18) 0.6344(6) 0.19550(12)
O5A O 0.33995(16) 0.5553(4) 0.14327(10)
O6A O 0.28846(13) 0.9843(4) 0.13286(9)
O6_2 O 0.21154(13) -0.0157(4) 0.36714(9)
O6A_2 O 0.28846(13) -0.0157(4) 0.13286(9)
O7B O -0.11893(14) 0.3486(4) 0.48040(11)
O7A O 0.38107(14) 0.6514(4) -0.01960(11)
O8B O 0.03796(14) 0.2239(3) 0.45052(10)
O8C O 0.46204(14) 0.2239(3) 0.04948(10)
N1A N 0.53579(17) 0.2771(4) 0.34437(11)
N2A N 0.47775(19) 0.6916(4) 0.25016(12)
C1A C 0.63570(19) 0.2642(5) 0.45514(12)
C2A C 0.57713(18) 0.1004(5) 0.39892(12)
H1A H 0.6240 -0.0341 0.3791
H2A H 0.5202 0.0003 0.4195
C3A C 0.44709(17) 0.4024(5) 0.35346(12)
C4A C 0.6062(2) 0.3585(6) 0.29159(14)
H3A H 0.6239 0.1950 0.2649
H4A H 0.6705 0.4245 0.3151
C5A C 0.40694(19) 0.6067(6) 0.30193(13)
H5A H 0.3449 0.5302 0.2779
H6A H 0.3853 0.7699 0.3273
C6A C 0.56865(19) 0.5736(5) 0.24144(13)
C7A C 0.4372(2) 0.8989(5) 0.20290(13)
H7A H 0.4933 0.9630 0.1742
H8A H 0.4138 1.0554 0.2301
C8A C 0.3479(2) 0.8015(5) 0.15548(13)
C9B C -0.02240(18) 0.3763(5) 0.47998(13)
O9A O 0.31559(13) 0.1122(4) -0.08007(8)
H9A H 0.3544 -0.0252 -0.0741
H10A H 0.3391 0.1957 -0.1143
loop_
_geom_bond_atom_site_label_1
_geom_bond_atom_site_label_2
_geom_bond_site_symmetry_1
_geom_bond_site_symmetry_2
La1 O5 1_555 1_555
O1 C1 1_555 1_555
O2 C1 1_555 1_555
O3 C3 1_555 1_555
O4 C6 1_555 1_555
O5 C8 1_555 1_555
O6 C8 1_555 1_555
O7 La1 1_555 1_555
O8 C9 1_555 1_555
N1 C2 1_555 1_555
N2 C5 1_555 1_555
C1 C2 1_555 1_555
C2 H1 1_555 1_555
H2 C2 1_555 1_555
C3 N1 1_555 1_555
C4 N1 1_555 1_555
H3 C4 1_555 1_555
H4 C4 1_555 1_555
C5 C3 1_555 1_555
H5 C5 1_555 1_555
H6 C5 1_555 1_555
C6 N2 1_555 1_555
C7 N2 1_555 1_555
H7 C7 1_555 1_555
H8 C7 1_555 1_555
C8 C7 1_555 1_555
C9 O7 1_555 1_555
O9 La1 1_555 1_555
H9 O9 1_555 1_555
H10 O9 1_555 1_555
La1A O3 1_555 1_555
La1_2 O6 1_555 1_555
La1A_2 O6A 1_555 1_555
La1B O8 1_555 1_555
La1B_2 O1A 1_555 1_555
La1B_3 O2A 1_555 1_555
La1C O1 1_555 1_555
La1C_2 O2 1_555 1_555
O1A C1A 1_555 1_555
O1B La1A 1_555 1_555
O1C La1 1_555 1_555
O2A C1A 1_555 1_555
O2B La1A 1_555 1_555
O2C La1 1_555 1_555
O3A La1 1_555 1_555
O4A C6A 1_555 1_555
O5A La1A 1_555 1_555
O6A C8A 1_555 1_555
O6_2 La1 1_555 1_555
O6A_2 La1A 1_555 1_555
O7B La1B 1_555 1_555
O7A La1A 1_555 1_555
O8B La1 1_555 1_555
O8C La1A 1_555 1_555
N1A C2A 1_555 1_555
N2A C5A 1_555 1_555
C1A C2A 1_555 1_555
C2A H1A 1_555 1_555
H2A C2A 1_555 1_555
C3A O3A 1_555 1_555
C4A N1A 1_555 1_555
H3A C4A 1_555 1_555
H4A C4A 1_555 1_555
C5A C3A 1_555 1_555
H5A C5A 1_555 1_555
H6A C5A 1_555 1_555
C6A N2A 1_555 1_555
C7A N2A 1_555 1_555
H7A C7A 1_555 1_555
H8A C7A 1_555 1_555
C8A O5A 1_555 1_555
C9B C9 1_555 1_555
O9A La1A 1_555 1_555
H9A O9A 1_555 1_555
H10A O9A 1_555 1_555
C4 C6 1_555 1_555
O7B C9B 1_555 1_555
O8B C9B 1_555 1_555
N1A C3A 1_555 1_555
C4A C6A 1_555 1_555
C7A C8A 1_555 1_555

#END
