
#######################################################################
#
#                 Cambridge Crystallographic Data Centre
#                                CCDC 
#
#######################################################################
#
# If this CIF has been generated from an entry in the Cambridge 
# Structural Database, then it will include bibliographic, chemical, 
# crystal, experimental, refinement or atomic coordinate data resulting 
# from the CCDC's data processing and validation procedures.
#
#######################################################################

data_LEQVAF
_symmetry_cell_setting           triclinic
_symmetry_space_group_name_H-M   'P -1'
_symmetry_Int_Tables_number      2
_space_group_name_Hall           '-P 1'
loop_
_symmetry_equiv_pos_site_id
_symmetry_equiv_pos_as_xyz
1 x,y,z
2 -x,-y,-z
_cell_length_a                   9.3725(12)
_cell_length_b                   9.8814(12)
_cell_length_c                   12.1524(15)
_cell_angle_alpha                96.188(2)
_cell_angle_beta                 102.547(2)
_cell_angle_gamma                115.685(2)
_cell_volume                     963.602
loop_
_atom_site_label
_atom_site_type_symbol
_atom_site_fract_x
_atom_site_fract_y
_atom_site_fract_z
Co1 Co 0.51831(4) 0.87567(4) 0.86123(3)
O1 O 0.6728(2) 1.1034(2) 0.89765(16)
O2 O 0.6752(2) 1.1900(2) 1.07529(16)
O3 O 0.4207(3) 0.6432(2) 0.75867(17)
O4 O 0.6524(3) 0.8263(2) 0.74622(17)
N1 N 0.6649(3) 0.8420(3) 1.00677(19)
N2 N 1.3708(3) 0.9089(3) 1.71351(19)
C1 C 0.5175(4) 0.5912(3) 0.6022(3)
C2 C 1.4339(4) 1.0197(4) 1.6584(3)
H1 H 1.5426 1.0967 1.6922
C3 C 0.9424(4) 0.8204(4) 1.3266(3)
H2 H 0.8863 0.7383 1.3580
C4 C 0.9466(4) 1.3770(3) 0.9086(3)
H3 H 0.9104 1.2942 0.8467
C5 C 0.9209(4) 0.9417(4) 1.1571(3)
H4 H 1.0314 1.0164 1.1872
C6 C 0.8246(4) 0.9436(3) 1.0549(2)
H5 H 0.8737 1.0205 1.0170
C7 C 1.2145(4) 0.8032(4) 1.6627(3)
H6 H 1.1659 0.7253 1.6999
C8 C 0.3632(4) 0.4848(4) 0.5314(3)
H7 H 0.2694 0.4740 0.5519
C9 C 1.3470(4) 1.0266(4) 1.5539(3)
H8 H 1.3974 1.1077 1.5198
C10 C 1.1199(4) 0.8019(4) 1.5584(3)
H9 H 1.0108 0.7247 1.5274
C11 C 0.6871(4) 0.7169(4) 1.1620(3)
H10 H 0.6361 0.6354 1.1956
C12 C 0.7263(3) 1.2059(3) 0.9888(2)
C13 C 0.6538(4) 0.6064(4) 0.5701(3)
H11 H 0.7590 0.6787 0.6171
C14 C 0.6004(4) 0.7287(3) 1.0604(3)
H12 H 0.4906 0.6537 1.0269
C15 C 0.8687(3) 1.3589(3) 0.9942(2)
C16 C 1.1860(4) 0.9146(4) 1.4994(3)
C17 C 0.8518(4) 0.8272(4) 1.2152(3)
C18 C 0.5330(4) 0.6923(3) 0.7103(2)
C19 C 1.0959(4) 0.9194(4) 1.3869(3)
H13 H 1.1526 1.0003 1.3546
C20 C 0.9221(4) 1.4827(3) 1.0857(3)
H14 H 0.8695 1.4712 1.1434
Co1A Co 1.48169(4) 2.12433(4) 1.13877(3)
Co1A_2 Co 0.48169(4) 1.12433(4) 1.13877(3)
Co1_2 Co 1.51831(4) 0.87567(4) 1.86123(3)
Co1_3 Co 1.51831(4) 1.87567(4) 0.86123(3)
Co1A_3 Co 0.48169(4) 0.12433(4) 0.13877(3)
Co1_4 Co -0.48169(4) 0.87567(4) -0.13877(3)
O1A O 1.3272(2) 1.8966(2) 1.10235(16)
O2A O 1.3248(2) 1.8100(2) 0.92471(16)
O2A_2 O 0.3248(2) 0.8100(2) 0.92471(16)
O2_2 O 1.6752(2) 2.1900(2) 1.07529(16)
O3A O 0.5793(3) 0.3568(2) 0.24133(17)
O3A_2 O 1.5793(3) 2.3568(2) 1.24133(17)
O4A O 0.3476(3) 0.1737(2) 0.25378(17)
O4A_2 O 1.3476(3) 2.1737(2) 1.25378(17)
N1_2 N -0.3351(3) 0.8420(3) 0.00677(19)
N1A N 1.3351(3) 2.1580(3) 0.99323(19)
N2_2 N 0.3708(3) 0.9089(3) 0.71351(19)
N2A N 1.6292(3) 2.0911(3) 1.28649(19)
C1A C 0.4825(4) 0.4088(3) 0.3978(3)
C2_2 C 0.4339(4) 1.0197(4) 0.6584(3)
H1_2 H 0.5426 1.0967 0.6922
C3_2 C -0.0576(4) 0.8204(4) 0.3266(3)
H2_2 H -0.1137 0.7383 0.3580
C4A C 1.0534(4) 1.6230(3) 1.0914(3)
H3A H 1.0896 1.7058 1.1533
C5_2 C -0.0791(4) 0.9417(4) 0.1571(3)
H4_2 H 0.0314 1.0164 0.1872
C6_2 C -0.1754(4) 0.9436(3) 0.0549(2)
H5_2 H -0.1263 1.0205 0.0170
C7_2 C 0.2145(4) 0.8032(4) 0.6627(3)
H6_2 H 0.1659 0.7253 0.6999
C8A C 0.6368(4) 0.5152(4) 0.4686(3)
H7A H 0.7306 0.5260 0.4481
C9_2 C 0.3470(4) 1.0266(4) 0.5539(3)
H8_2 H 0.3974 1.1077 0.5198
C10_2 C 0.1199(4) 0.8019(4) 0.5584(3)
H9_2 H 0.0108 0.7247 0.5274
C11_2 C -0.3129(4) 0.7169(4) 0.1620(3)
H10_2 H -0.3639 0.6354 0.1956
C12A C 1.2737(3) 1.7941(3) 1.0112(2)
C13A C 0.3462(4) 0.3936(4) 0.4299(3)
H11A H 0.2410 0.3213 0.3829
C14_2 C -0.3996(4) 0.7287(3) 0.0604(3)
H12_2 H -0.5094 0.6537 0.0269
C15A C 1.1313(3) 1.6411(3) 1.0058(2)
C16_2 C 0.1860(4) 0.9146(4) 0.4994(3)
C17_2 C -0.1482(4) 0.8272(4) 0.2152(3)
C18A C 0.4670(4) 0.3077(3) 0.2897(2)
C19_2 C 0.0959(4) 0.9194(4) 0.3869(3)
H13_2 H 0.1526 1.0003 0.3546
C20A C 1.0779(4) 1.5173(3) 0.9143(3)
H14A H 1.1305 1.5288 0.8566
loop_
_geom_bond_atom_site_label_1
_geom_bond_atom_site_label_2
_geom_bond_site_symmetry_1
_geom_bond_site_symmetry_2
Co1 O1 1_555 1_555
O1 C12 1_555 1_555
O2 C12 1_555 1_555
O3 Co1 1_555 1_555
O4 Co1 1_555 1_555
N1 Co1 1_555 1_555
N2 C2 1_555 1_555
C1 C8 1_555 1_555
C2 H1 1_555 1_555
C3 H2 1_555 1_555
C4 H3 1_555 1_555
C5 H4 1_555 1_555
C6 N1 1_555 1_555
H5 C6 1_555 1_555
C7 N2 1_555 1_555
H6 C7 1_555 1_555
C8 H7 1_555 1_555
C9 C2 1_555 1_555
H8 C9 1_555 1_555
C10 C7 1_555 1_555
H9 C10 1_555 1_555
C11 H10 1_555 1_555
C12 C15 1_555 1_555
C13 C1 1_555 1_555
H11 C13 1_555 1_555
C14 N1 1_555 1_555
H12 C14 1_555 1_555
C15 C4 1_555 1_555
C16 C9 1_555 1_555
C17 C3 1_555 1_555
C18 O3 1_555 1_555
C19 C3 1_555 1_555
H13 C19 1_555 1_555
C20 C15 1_555 1_555
H14 C20 1_555 1_555
Co1A O1A 1_555 1_555
Co1A_2 O2 1_555 1_555
Co1_2 N2 1_555 1_555
Co1_3 O2A 1_555 1_555
Co1A_3 O3A 1_555 1_555
Co1_4 N1_2 1_555 1_555
O1A C12A 1_555 1_555
O2A C12A 1_555 1_555
O2A_2 Co1 1_555 1_555
O2_2 Co1A 1_555 1_555
O3A C18A 1_555 1_555
O3A_2 Co1A 1_555 1_555
O4A Co1A_3 1_555 1_555
O4A_2 Co1A 1_555 1_555
N1_2 C6_2 1_555 1_555
N1A Co1A 1_555 1_555
N2_2 Co1 1_555 1_555
N2A Co1A 1_555 1_555
C1A C8A 1_555 1_555
C2_2 N2_2 1_555 1_555
H1_2 C2_2 1_555 1_555
C3_2 H2_2 1_555 1_555
C4A C20 1_555 1_555
H3A C4A 1_555 1_555
C5_2 H4_2 1_555 1_555
C6_2 C5_2 1_555 1_555
H5_2 C6_2 1_555 1_555
C7_2 N2_2 1_555 1_555
H6_2 C7_2 1_555 1_555
C8A C13 1_555 1_555
H7A C8A 1_555 1_555
C9_2 C2_2 1_555 1_555
H8_2 C9_2 1_555 1_555
C10_2 C7_2 1_555 1_555
H9_2 C10_2 1_555 1_555
C11_2 H10_2 1_555 1_555
C12A C15A 1_555 1_555
C13A C8 1_555 1_555
H11A C13A 1_555 1_555
C14_2 N1_2 1_555 1_555
H12_2 C14_2 1_555 1_555
C15A C4A 1_555 1_555
C16_2 C9_2 1_555 1_555
C17_2 C3_2 1_555 1_555
C18A O4A 1_555 1_555
C19_2 C3_2 1_555 1_555
H13_2 C19_2 1_555 1_555
C20A C4 1_555 1_555
H14A C20A 1_555 1_555
O4 C18 1_555 1_555
C1 C18 1_555 1_555
C5 C6 1_555 1_555
C5 C17 1_555 1_555
C10 C16 1_555 1_555
C11 C14 1_555 1_555
C11 C17 1_555 1_555
C16 C19 1_555 1_555
C1A C13A 1_555 1_555
C1A C18A 1_555 1_555
C5_2 C17_2 1_555 1_555
C10_2 C16_2 1_555 1_555
C11_2 C14_2 1_555 1_555
C11_2 C17_2 1_555 1_555
C15A C20A 1_555 1_555
C16_2 C19_2 1_555 1_555

#END
