
#######################################################################
#
#                 Cambridge Crystallographic Data Centre
#                                CCDC 
#
#######################################################################
#
# If this CIF has been generated from an entry in the Cambridge 
# Structural Database, then it will include bibliographic, chemical, 
# crystal, experimental, refinement or atomic coordinate data resulting 
# from the CCDC's data processing and validation procedures.
#
#######################################################################

data_LEQVEJ
_symmetry_cell_setting           triclinic
_symmetry_space_group_name_H-M   'P -1'
_symmetry_Int_Tables_number      2
_space_group_name_Hall           '-P 1'
loop_
_symmetry_equiv_pos_site_id
_symmetry_equiv_pos_as_xyz
1 x,y,z
2 -x,-y,-z
_cell_length_a                   10.5878(7)
_cell_length_b                   11.2425(8)
_cell_length_c                   12.6774(9)
_cell_angle_alpha                85.2950(10)
_cell_angle_beta                 75.9620(10)
_cell_angle_gamma                75.3380(10)
_cell_volume                     1415.95
loop_
_atom_site_label
_atom_site_type_symbol
_atom_site_fract_x
_atom_site_fract_y
_atom_site_fract_z
Zn1 Zn 0.5000 0.5000 0.0000
Zn2 Zn 0.64573(4) 0.73010(4) 0.15187(3)
O1 O 0.7588(3) 0.7990(3) 0.2170(3)
C1 C 0.8183(6) 1.0301(5) 0.4903(5)
H1 H 0.7793 1.0918 0.5411
C2 C 1.0083(5) 0.8894(5) 0.3937(4)
H2 H 1.0996 0.8524 0.3790
O2 O 0.5726(3) 0.6088(3) 0.2491(2)
O3 O 0.4310(3) 0.5727(3) 0.1590(2)
O4 O -0.2197(3) 0.6611(3) 1.0242(2)
O5 O -0.3635(3) 0.6228(3) 0.9363(2)
O6 O 0.5814(5) 0.8777(7) 0.3437(5)
N1 N 0.6580(3) 0.3688(3) 0.0436(3)
N2 N 1.4775(3) -0.1500(3) 0.1184(3)
C3 C 0.4608(4) 0.5905(4) 0.2433(3)
C4 C -0.2515(4) 0.6355(3) 0.9399(3)
C5 C 0.3584(4) 0.5932(4) 0.3483(3)
C6 C 0.7759(4) 0.3425(4) -0.0271(3)
H3 H 0.7825 0.3795 -0.0959
C7 C -0.1427(4) 0.6245(4) 0.8369(3)
C8 C 0.2896(4) 0.6168(5) 0.5428(3)
H4 H 0.3110 0.6270 0.6079
C9 C 1.0009(4) 0.1247(4) 0.1279(4)
H5 H 0.9953 0.1021 0.2008
C10 C 0.0567(4) 0.6129(4) 0.6463(3)
C11 C 0.8828(4) 0.2065(4) 0.0978(3)
C12 C 0.1618(4) 0.6056(4) 0.5438(3)
C13 C 1.3399(4) -0.0549(4) -0.0029(4)
H6 H 1.3295 -0.0427 -0.0741
C14 C -0.1741(4) 0.6784(4) 0.7422(3)
H7 H -0.2627 0.7167 0.7413
C15 C -0.0123(4) 0.5645(4) 0.8369(3)
H8 H 0.0098 0.5294 0.9010
C16 C 0.8894(4) 0.2633(4) -0.0039(3)
H9 H 0.9697 0.2481 -0.0564
C17 C 0.9286(5) 0.8518(5) 0.3380(4)
H10 H 0.9674 0.7912 0.2862
C18 C 0.6498(4) 0.3135(4) 0.1420(3)
H11 H 0.5678 0.3298 0.1924
C19 C 0.0868(4) 0.5564(4) 0.7411(3)
H12 H 0.1740 0.5126 0.7409
C20 C 0.9570(5) 0.9802(4) 0.4704(3)
C21 C 1.2612(5) -0.0168(5) 0.1853(4)
H13 H 1.1971 0.0213 0.2444
C22 C 0.3862(4) 0.6131(4) 0.4461(3)
H14 H 0.4702 0.6240 0.4468
C23 C 0.7590(4) 0.2331(4) 0.1714(3)
H15 H 0.7494 0.1968 0.2405
C24 C 1.2374(4) 0.0025(4) 0.0816(4)
C25 C 1.4556(4) -0.1290(4) 0.0177(4)
H16 H 1.5220 -0.1665 -0.0405
C26 C -0.0747(4) 0.6760(5) 0.6485(3)
H17 H -0.0960 0.7172 0.5861
C27 C 1.3823(4) -0.0941(5) 0.2004(4)
H18 H 1.3967 -0.1067 0.2704
C28 C 0.1349(4) 0.5861(5) 0.4448(3)
H19 H 0.0501 0.5779 0.4435
C29 C 0.2320(4) 0.5788(5) 0.3489(3)
H20 H 0.2124 0.5641 0.2842
C30 C 1.1140(4) 0.0815(4) 0.0580(4)
H21 H 1.1161 0.1033 -0.0147
C31 C 0.7921(5) 0.9028(4) 0.3581(4)
C32 C 0.7044(6) 0.8584(5) 0.3024(5)
C33 C 0.7387(6) 0.9910(6) 0.4373(5)
H22 H 0.6465 1.0243 0.4549
Zn1_2 Zn -0.5000 0.5000 1.0000
Zn1_3 Zn 1.5000 0.5000 -1.0000
Zn2A Zn 0.35427(4) 0.26990(4) -0.15187(3)
Zn2_2 Zn -0.35427(4) 0.73010(4) 1.15187(3)
Zn2_3 Zn 1.64573(4) -0.26990(4) 0.15187(3)
Zn2A_2 Zn 1.35427(4) 1.26990(4) 0.84813(3)
Zn2A_3 Zn 1.35427(4) 0.26990(4) -1.15187(3)
Zn2A_4 Zn -0.64573(4) 1.26990(4) -0.15187(3)
O1A O 1.2412(3) 1.2010(3) 0.7830(3)
O1A_2 O 0.2412(3) 0.2010(3) -0.2170(3)
C1A C 1.1817(6) 0.9699(5) 0.5097(5)
H1A H 1.2207 0.9082 0.4589
C2A C 0.9917(5) 1.1106(5) 0.6063(4)
H2A H 0.9004 1.1476 0.6210
O2A O 0.4274(3) 0.3912(3) -0.2491(2)
O3A O 0.5690(3) 0.4273(3) -0.1590(2)
O4A O 1.2197(3) 0.3389(3) -1.0242(2)
O4_2 O 0.7803(3) 0.6611(3) 0.0242(2)
O4A_2 O 0.2197(3) 0.3389(3) -0.0242(2)
O5A O 1.3635(3) 0.3772(3) -0.9363(2)
O5_2 O 0.6365(3) 0.6228(3) -0.0637(2)
O5A_2 O 0.3635(3) 0.3772(3) 0.0637(2)
O6A O 1.4186(5) 1.1223(7) 0.6563(5)
N1A N 0.3420(3) 0.6312(3) -0.0436(3)
N2A N -0.4775(3) 1.1500(3) -0.1184(3)
N2_2 N 0.4775(3) 0.8500(3) 0.1184(3)
N2A_2 N 0.5225(3) 0.1500(3) -0.1184(3)
C3A C 0.5392(4) 0.4095(4) -0.2433(3)
C4A C 1.2515(4) 0.3645(3) -0.9399(3)
C5A C 0.6416(4) 0.4068(4) -0.3483(3)
C6A C 0.2241(4) 0.6575(4) 0.0271(3)
H3A H 0.2175 0.6205 0.0959
C7A C 1.1427(4) 0.3755(4) -0.8369(3)
C8A C 0.7104(4) 0.3832(5) -0.5428(3)
H4A H 0.6890 0.3730 -0.6079
C9A C -0.0009(4) 0.8753(4) -0.1279(4)
H5A H 0.0047 0.8979 -0.2008
C10A C 0.9433(4) 0.3871(4) -0.6463(3)
C11A C 0.1172(4) 0.7935(4) -0.0978(3)
C12A C 0.8382(4) 0.3944(4) -0.5438(3)
C13A C -0.3399(4) 1.0549(4) 0.0029(4)
H6A H -0.3295 1.0427 0.0741
C14A C 1.1741(4) 0.3216(4) -0.7422(3)
H7A H 1.2627 0.2833 -0.7413
C15A C 1.0123(4) 0.4355(4) -0.8369(3)
H8A H 0.9902 0.4706 -0.9010
C16A C 0.1106(4) 0.7367(4) 0.0039(3)
H9A H 0.0303 0.7519 0.0564
C17A C 1.0714(5) 1.1482(5) 0.6620(4)
H10A H 1.0326 1.2088 0.7138
C18A C 0.3502(4) 0.6865(4) -0.1420(3)
H11A H 0.4322 0.6702 -0.1924
C19A C 0.9132(4) 0.4436(4) -0.7411(3)
H12A H 0.8260 0.4874 -0.7409
C20A C 1.0430(5) 1.0198(4) 0.5296(3)
C21A C -0.2612(5) 1.0168(5) -0.1853(4)
H13A H -0.1971 0.9787 -0.2444
C22A C 0.6138(4) 0.3869(4) -0.4461(3)
H14A H 0.5298 0.3760 -0.4468
C23A C 0.2410(4) 0.7669(4) -0.1714(3)
H15A H 0.2506 0.8032 -0.2405
C24A C -0.2374(4) 0.9975(4) -0.0816(4)
C25A C -0.4556(4) 1.1290(4) -0.0177(4)
H16A H -0.5220 1.1665 0.0405
C26A C 1.0747(4) 0.3240(5) -0.6485(3)
H17A H 1.0960 0.2828 -0.5861
C27A C -0.3823(4) 1.0941(5) -0.2004(4)
H18A H -0.3967 1.1067 -0.2704
C28A C 0.8651(4) 0.4139(5) -0.4448(3)
H19A H 0.9499 0.4221 -0.4435
C29A C 0.7680(4) 0.4212(5) -0.3489(3)
H20A H 0.7876 0.4359 -0.2842
C30A C -0.1140(4) 0.9185(4) -0.0580(4)
H21A H -0.1161 0.8967 0.0147
C31A C 1.2079(5) 1.0972(4) 0.6419(4)
C32A C 1.2956(6) 1.1416(5) 0.6976(5)
C33A C 1.2613(6) 1.0090(6) 0.5627(5)
H22A H 1.3535 0.9757 0.5451
loop_
_geom_bond_atom_site_label_1
_geom_bond_atom_site_label_2
_geom_bond_site_symmetry_1
_geom_bond_site_symmetry_2
Zn1 O3 1_555 1_555
Zn2 O1 1_555 1_555
O1 C32 1_555 1_555
C1 H1 1_555 1_555
C2 H2 1_555 1_555
O2 Zn2 1_555 1_555
O3 C3 1_555 1_555
O4 C4 1_555 1_555
O5 C4 1_555 1_555
O6 C32 1_555 1_555
N1 Zn1 1_555 1_555
N2 C25 1_555 1_555
C3 O2 1_555 1_555
C4 C7 1_555 1_555
C5 C3 1_555 1_555
C6 N1 1_555 1_555
H3 C6 1_555 1_555
C7 C14 1_555 1_555
C8 H4 1_555 1_555
C9 H5 1_555 1_555
C10 C12 1_555 1_555
C11 C9 1_555 1_555
C12 C8 1_555 1_555
C13 H6 1_555 1_555
C14 H7 1_555 1_555
C15 C7 1_555 1_555
H8 C15 1_555 1_555
C16 C6 1_555 1_555
H9 C16 1_555 1_555
C17 C2 1_555 1_555
H10 C17 1_555 1_555
C18 N1 1_555 1_555
H11 C18 1_555 1_555
C19 C10 1_555 1_555
H12 C19 1_555 1_555
C20 C1 1_555 1_555
C21 H13 1_555 1_555
C22 C5 1_555 1_555
H14 C22 1_555 1_555
C23 C11 1_555 1_555
H15 C23 1_555 1_555
C24 C13 1_555 1_555
C25 C13 1_555 1_555
H16 C25 1_555 1_555
C26 C10 1_555 1_555
H17 C26 1_555 1_555
C27 N2 1_555 1_555
H18 C27 1_555 1_555
C28 C12 1_555 1_555
H19 C28 1_555 1_555
C29 C5 1_555 1_555
H20 C29 1_555 1_555
C30 C9 1_555 1_555
H21 C30 1_555 1_555
C31 C17 1_555 1_555
C32 C31 1_555 1_555
C33 C1 1_555 1_555
H22 C33 1_555 1_555
Zn1_2 O5 1_555 1_555
Zn1_3 O5A 1_555 1_555
Zn2A O1A_2 1_555 1_555
Zn2_2 O4 1_555 1_555
Zn2_3 N2 1_555 1_555
Zn2A_2 O1A 1_555 1_555
Zn2A_3 O4A 1_555 1_555
Zn2A_4 N2A 1_555 1_555
O1A C32A 1_555 1_555
C1A H1A 1_555 1_555
C2A H2A 1_555 1_555
O2A Zn2A 1_555 1_555
O3A Zn1 1_555 1_555
O4A C4A 1_555 1_555
O4_2 Zn2 1_555 1_555
O4A_2 Zn2A 1_555 1_555
O5A C4A 1_555 1_555
O5_2 Zn1 1_555 1_555
O5A_2 Zn1 1_555 1_555
O6A C32A 1_555 1_555
N1A Zn1 1_555 1_555
N2A C25A 1_555 1_555
N2_2 Zn2 1_555 1_555
N2A_2 Zn2A 1_555 1_555
C3A O2A 1_555 1_555
C4A C7A 1_555 1_555
C5A C3A 1_555 1_555
C6A N1A 1_555 1_555
H3A C6A 1_555 1_555
C7A C14A 1_555 1_555
C8A H4A 1_555 1_555
C9A H5A 1_555 1_555
C10A C12A 1_555 1_555
C11A C9A 1_555 1_555
C12A C8A 1_555 1_555
C13A H6A 1_555 1_555
C14A H7A 1_555 1_555
C15A C7A 1_555 1_555
H8A C15A 1_555 1_555
C16A C6A 1_555 1_555
H9A C16A 1_555 1_555
C17A C2A 1_555 1_555
H10A C17A 1_555 1_555
C18A N1A 1_555 1_555
H11A C18A 1_555 1_555
C19A C10A 1_555 1_555
H12A C19A 1_555 1_555
C20A C20 1_555 1_555
C21A H13A 1_555 1_555
C22A C5A 1_555 1_555
H14A C22A 1_555 1_555
C23A C11A 1_555 1_555
H15A C23A 1_555 1_555
C24A C13A 1_555 1_555
C25A C13A 1_555 1_555
H16A C25A 1_555 1_555
C26A C10A 1_555 1_555
H17A C26A 1_555 1_555
C27A N2A 1_555 1_555
H18A C27A 1_555 1_555
C28A C12A 1_555 1_555
H19A C28A 1_555 1_555
C29A C5A 1_555 1_555
H20A C29A 1_555 1_555
C30A C9A 1_555 1_555
H21A C30A 1_555 1_555
C31A C17A 1_555 1_555
C32A C31A 1_555 1_555
C33A C1A 1_555 1_555
H22A C33A 1_555 1_555
C2 C20 1_555 1_555
C8 C22 1_555 1_555
C11 C16 1_555 1_555
C14 C26 1_555 1_555
C15 C19 1_555 1_555
C18 C23 1_555 1_555
C21 C24 1_555 1_555
C21 C27 1_555 1_555
C24 C30 1_555 1_555
C28 C29 1_555 1_555
C31 C33 1_555 1_555
C1A C20A 1_555 1_555
C2A C20A 1_555 1_555
O3A C3A 1_555 1_555
C8A C22A 1_555 1_555
C11A C16A 1_555 1_555
C14A C26A 1_555 1_555
C15A C19A 1_555 1_555
C18A C23A 1_555 1_555
C21A C24A 1_555 1_555
C21A C27A 1_555 1_555
C24A C30A 1_555 1_555
C28A C29A 1_555 1_555
C31A C33A 1_555 1_555

#END
