
#######################################################################
#
#                 Cambridge Crystallographic Data Centre
#                                CCDC 
#
#######################################################################
#
# If this CIF has been generated from an entry in the Cambridge 
# Structural Database, then it will include bibliographic, chemical, 
# crystal, experimental, refinement or atomic coordinate data resulting 
# from the CCDC's data processing and validation procedures.
#
#######################################################################

data_LEQVAG
_symmetry_cell_setting           monoclinic
_symmetry_space_group_name_H-M   'P 21/c'
_symmetry_Int_Tables_number      14
_space_group_name_Hall           '-P 2ybc'
loop_
_symmetry_equiv_pos_site_id
_symmetry_equiv_pos_as_xyz
1 x,y,z
2 -x,1/2+y,1/2-z
3 -x,-y,-z
4 x,1/2-y,1/2+z
_cell_length_a                   7.752(2)
_cell_length_b                   20.566(7)
_cell_length_c                   14.141(4)
_cell_angle_alpha                90
_cell_angle_beta                 99.639(6)
_cell_angle_gamma                90
_cell_volume                     2222.64
loop_
_atom_site_label
_atom_site_type_symbol
_atom_site_fract_x
_atom_site_fract_y
_atom_site_fract_z
Cu1 Cu -0.23892(4) -0.240700(16) -0.42160(2)
Cu2 Cu 0.05463(4) -0.194440(16) -0.17144(2)
O1 O -0.3666(2) -0.31470(9) -0.48802(14)
O2 O -0.1382(3) -0.31853(11) -0.56244(18)
O3 O -0.6056(3) -0.32502(10) -0.69036(14)
O4 O -0.7935(2) -0.37842(9) -0.61593(15)
N1 N -0.3461(3) -0.17809(11) -0.52740(17)
N2 N -0.1576(3) -0.15781(11) -0.35949(17)
N3 N -0.0585(3) -0.13822(11) -0.27561(17)
N4 N 0.1584(3) -0.25620(11) -0.06440(17)
N5 N -0.0374(3) -0.27779(11) -0.23068(16)
N6 N -0.1315(3) -0.29754(11) -0.31598(17)
C1 C -0.4418(4) -0.19323(16) -0.6130(2)
H1 H -0.4578 -0.2368 -0.6299
C2 C -0.5167(5) -0.14647(17) -0.6763(2)
H2 H -0.5830 -0.1585 -0.7347
C3 C -0.4929(5) -0.08167(17) -0.6526(2)
H3 H -0.5430 -0.0495 -0.6946
C4 C -0.3931(5) -0.06541(16) -0.5653(2)
H4 H -0.3743 -0.0221 -0.5479
C5 C -0.3217(4) -0.11472(14) -0.5042(2)
C6 C -0.2154(4) -0.10417(14) -0.4096(2)
C7 C -0.1555(5) -0.04950(15) -0.3590(2)
H5 H -0.1761 -0.0063 -0.3769
C8 C -0.0573(4) -0.07301(14) -0.2751(2)
H6 H 0.0010 -0.0474 -0.2257
C9 C 0.2500(4) -0.23963(16) 0.0207(2)
H7 H 0.2807 -0.1962 0.0319
C10 C 0.3011(4) -0.28434(17) 0.0928(2)
H8 H 0.3664 -0.2715 0.1511
C11 C 0.2530(4) -0.34856(17) 0.0764(2)
H9 H 0.2849 -0.3797 0.1238
C12 C 0.1568(4) -0.36605(15) -0.0111(2)
H10 H 0.1231 -0.4091 -0.0232
C13 C 0.1113(4) -0.31894(14) -0.0804(2)
C14 C 0.0087(4) -0.33040(14) -0.1758(2)
C15 C -0.0570(5) -0.38568(15) -0.2250(2)
H11 H -0.0455 -0.4286 -0.2041
C16 C -0.1435(5) -0.36296(14) -0.3123(2)
H12 H -0.2015 -0.3890 -0.3613
C17 C -0.3347(4) -0.40928(13) -0.57898(19)
C18 C -0.2109(4) -0.45885(16) -0.5659(2)
H13 H -0.0935 -0.4488 -0.5462
C19 C -0.2609(4) -0.52331(15) -0.5821(2)
H14 H -0.1776 -0.5562 -0.5727
C20 C -0.4353(4) -0.53815(14) -0.6122(2)
H15 H -0.4700 -0.5813 -0.6212
C21 C -0.5584(4) -0.48891(14) -0.6290(2)
H16 H -0.6750 -0.4993 -0.6509
C22 C -0.5099(3) -0.42403(13) -0.61342(18)
C23 C -0.2751(4) -0.34233(14) -0.5442(2)
C24 C -0.6438(4) -0.37100(13) -0.64168(19)
Cu2C Cu -0.94537(4) -0.305560(16) -0.67144(2)
Cu2C_2 Cu 0.05463(4) -0.305560(16) -0.67144(2)
O2C O -0.1382(3) -0.18147(11) -0.06244(18)
O4C O 0.2065(2) -0.12158(9) -0.11593(15)
loop_
_geom_bond_atom_site_label_1
_geom_bond_atom_site_label_2
_geom_bond_site_symmetry_1
_geom_bond_site_symmetry_2
Cu1 O1 1_555 1_555
Cu2 N3 1_555 1_555
O1 C23 1_555 1_555
O2 C23 1_555 1_555
O3 C24 1_555 1_555
O4 C24 1_555 1_555
N1 Cu1 1_555 1_555
N2 Cu1 1_555 1_555
N3 N2 1_555 1_555
N4 Cu2 1_555 1_555
N5 Cu2 1_555 1_555
N6 Cu1 1_555 1_555
C1 N1 1_555 1_555
H1 C1 1_555 1_555
C2 C1 1_555 1_555
H2 C2 1_555 1_555
C3 C2 1_555 1_555
H3 C3 1_555 1_555
C4 C3 1_555 1_555
H4 C4 1_555 1_555
C5 N1 1_555 1_555
C6 N2 1_555 1_555
C7 C6 1_555 1_555
H5 C7 1_555 1_555
C8 N3 1_555 1_555
H6 C8 1_555 1_555
C9 N4 1_555 1_555
H7 C9 1_555 1_555
C10 C9 1_555 1_555
H8 C10 1_555 1_555
C11 C10 1_555 1_555
H9 C11 1_555 1_555
C12 C11 1_555 1_555
H10 C12 1_555 1_555
C13 N4 1_555 1_555
C14 N5 1_555 1_555
C15 C14 1_555 1_555
H11 C15 1_555 1_555
C16 N6 1_555 1_555
H12 C16 1_555 1_555
C17 C18 1_555 1_555
C18 H13 1_555 1_555
C19 C18 1_555 1_555
H14 C19 1_555 1_555
C20 C19 1_555 1_555
H15 C20 1_555 1_555
C21 C20 1_555 1_555
H16 C21 1_555 1_555
C22 C17 1_555 1_555
C23 C17 1_555 1_555
C24 C22 1_555 1_555
Cu2C O4 1_555 1_555
Cu2C_2 O2 1_555 1_555
O2C Cu2 1_555 1_555
O4C Cu2 1_555 1_555
N5 N6 1_555 1_555
C4 C5 1_555 1_555
C5 C6 1_555 1_555
C7 C8 1_555 1_555
C12 C13 1_555 1_555
C13 C14 1_555 1_555
C15 C16 1_555 1_555
C21 C22 1_555 1_555

#END
