
#######################################################################
#
#                 Cambridge Crystallographic Data Centre
#                                CCDC 
#
#######################################################################
#
# If this CIF has been generated from an entry in the Cambridge 
# Structural Database, then it will include bibliographic, chemical, 
# crystal, experimental, refinement or atomic coordinate data resulting 
# from the CCDC's data processing and validation procedures.
#
#######################################################################

data_LEQXOU
_symmetry_cell_setting           triclinic
_symmetry_space_group_name_H-M   'P -1'
_symmetry_Int_Tables_number      2
_space_group_name_Hall           '-P 1'
loop_
_symmetry_equiv_pos_site_id
_symmetry_equiv_pos_as_xyz
1 x,y,z
2 -x,-y,-z
_cell_length_a                   10.533(2)
_cell_length_b                   13.136(3)
_cell_length_c                   7.776(1)
_cell_angle_alpha                96.59(1)
_cell_angle_beta                 95.76(1)
_cell_angle_gamma                108.42(2)
_cell_volume                     1003.32
loop_
_atom_site_label
_atom_site_type_symbol
_atom_site_fract_x
_atom_site_fract_y
_atom_site_fract_z
La1 La 0.06191(2) 0.14307(1) -0.24364(2)
Cl1 Cl 0.3833(1) -0.12675(8) -0.0181(1)
Cl2 Cl -0.5184(1) -0.15810(10) -0.4888(2)
O1 O 0.1180(3) 0.2601(2) 0.0694(3)
O2 O 0.2684(3) 0.1876(2) 0.0176(3)
O3 O 0.2819(2) 0.2795(3) 0.2744(4)
O4 O 0.0777(2) -0.0320(2) -0.1669(3)
O5 O 0.1332(2) -0.0940(2) 0.0738(3)
O6 O -0.1357(2) 0.0129(2) -0.4375(3)
O7 O -0.2655(2) -0.1271(2) -0.6289(3)
O8 O 0.0446(2) 0.1969(2) -0.5496(3)
N1 N 0.2317(3) 0.3487(2) -0.2528(4)
N2 N -0.0386(3) 0.3090(2) -0.2405(4)
N3 N 0.2248(3) 0.2435(2) 0.1222(4)
C1 C 0.3639(4) 0.3702(3) -0.2584(6)
C2 C 0.4502(4) 0.4725(3) -0.2734(7)
C3 C 0.4020(4) 0.5558(3) -0.2825(6)
C4 C 0.2638(4) 0.5371(3) -0.2775(5)
C5 C 0.2061(4) 0.6217(3) -0.2838(6)
C6 C 0.0748(4) 0.6030(3) -0.2718(6)
C7 C -0.0126(4) 0.4979(3) -0.2540(5)
C8 C -0.1471(4) 0.4763(3) -0.2381(6)
C9 C -0.2265(4) 0.3733(3) -0.2260(6)
C10 C -0.1679(4) 0.2918(3) -0.2284(5)
C11 C 0.0412(4) 0.4119(3) -0.2513(4)
C12 C 0.1820(3) 0.4322(3) -0.2606(4)
C13 C 0.1554(3) -0.0649(2) -0.0696(4)
C14 C 0.2848(4) -0.0655(3) -0.1392(5)
C15 C -0.2467(3) -0.0596(3) -0.4941(4)
C16 C -0.3581(4) -0.0649(3) -0.3875(5)
O5A O -0.1332(2) 0.0940(2) -0.0738(3)
La1A La -0.06191(2) -0.14307(1) 0.24364(2)
O7A O 0.2655(2) 0.1271(2) -0.3711(3)
La1A_2 La -0.06191(2) -0.14307(1) -0.75636(2)
loop_
_geom_bond_atom_site_label_1
_geom_bond_atom_site_label_2
_geom_bond_site_symmetry_1
_geom_bond_site_symmetry_2
La1 O1 1_555 1_555
Cl1 C14 1_555 1_555
Cl2 C16 1_555 1_555
O1 N3 1_555 1_555
O2 La1 1_555 1_555
O3 N3 1_555 1_555
O4 La1 1_555 1_555
O5 C13 1_555 1_555
O6 La1 1_555 1_555
O7 C15 1_555 1_555
O8 La1 1_555 1_555
N1 La1 1_555 1_555
N2 La1 1_555 1_555
N3 O2 1_555 1_555
C1 N1 1_555 1_555
C2 C1 1_555 1_555
C3 C2 1_555 1_555
C4 C3 1_555 1_555
C5 C4 1_555 1_555
C6 C5 1_555 1_555
C7 C6 1_555 1_555
C8 C7 1_555 1_555
C9 C8 1_555 1_555
C10 N2 1_555 1_555
C11 N2 1_555 1_555
C12 N1 1_555 1_555
C13 O4 1_555 1_555
C14 C13 1_555 1_555
C15 O6 1_555 1_555
C16 C15 1_555 1_555
O5A La1 1_555 1_555
La1A O5 1_555 1_555
O7A La1 1_555 1_555
La1A_2 O7 1_555 1_555
C4 C12 1_555 1_555
C7 C11 1_555 1_555
C9 C10 1_555 1_555
C11 C12 1_555 1_555

#END
