
#######################################################################
#
#                 Cambridge Crystallographic Data Centre
#                                CCDC 
#
#######################################################################
#
# If this CIF has been generated from an entry in the Cambridge 
# Structural Database, then it will include bibliographic, chemical, 
# crystal, experimental, refinement or atomic coordinate data resulting 
# from the CCDC's data processing and validation procedures.
#
#######################################################################

data_LERCOA
_symmetry_cell_setting           monoclinic
_symmetry_space_group_name_H-M   'P 21/n'
_symmetry_Int_Tables_number      14
_space_group_name_Hall           '-P 2yn'
loop_
_symmetry_equiv_pos_site_id
_symmetry_equiv_pos_as_xyz
1 x,y,z
2 1/2-x,1/2+y,1/2-z
3 -x,-y,-z
4 1/2+x,1/2-y,1/2+z
_cell_length_a                   12.352(3)
_cell_length_b                   6.798(2)
_cell_length_c                   25.825(9)
_cell_angle_alpha                90
_cell_angle_beta                 101.11(3)
_cell_angle_gamma                90
_cell_volume                     2127.86
loop_
_atom_site_label
_atom_site_type_symbol
_atom_site_fract_x
_atom_site_fract_y
_atom_site_fract_z
Lu1 Lu 0.7314(1) 0.8829(1) 0.2042(1)
Cl1 Cl 0.9654(4) 0.8243(9) 0.0571(2)
Cl2 Cl 0.5167(4) 0.8449(10) 0.3543(2)
Cl3 Cl 0.3687(6) 0.5376(9) 0.1330(3)
O1 O 0.9128(8) 0.8834(14) 0.2459(4)
O2 O 0.8286(9) 0.8714(19) 0.1353(4)
O3 O 0.6497(10) 0.8869(20) 0.1162(4)
O4 O 0.7361(10) 1.0438(17) 0.2959(4)
O5 O 0.7291(8) 0.7226(15) 0.2922(4)
O6 O 0.5550(8) 1.0434(17) 0.2015(5)
O7 O 0.5582(12) 0.7211(18) 0.2010(6)
C1 C 0.7401(14) 0.8727(22) 0.1029(6)
C2 C 0.7403(14) 0.8713(23) 0.0433(6)
C3 C 0.8330(16) 0.8494(24) 0.0210(7)
C4 C 0.8237(15) 0.8476(28) -0.0341(7)
C5 C 0.7206(18) 0.8680(26) -0.0664(7)
C6 C 0.6291(17) 0.8828(32) -0.0450(7)
C7 C 0.6378(16) 0.8762(24) 0.0110(6)
C8 C 0.7338(10) 0.8894(19) 0.3192(5)
C9 C 0.7364(14) 0.8745(20) 0.3773(6)
C10 C 0.6435(16) 0.8668(28) 0.3982(7)
C11 C 0.6456(20) 0.8547(30) 0.4512(8)
C12 C 0.7475(22) 0.8624(31) 0.4844(7)
C13 C 0.8385(20) 0.8754(28) 0.4660(7)
C14 C 0.8405(18) 0.8941(27) 0.4098(8)
C15 C 0.5131(15) 0.8866(17) 0.1985(4)
C16 C 0.3797(13) 0.8758(25) 0.1902(6)
C17 C 0.3161(14) 0.7329(25) 0.1640(6)
C18 C 0.1979(16) 0.7447(36) 0.1571(7)
C19 C 0.1526(15) 0.8927(38) 0.1791(8)
C20 C 0.2157(15) 1.0309(49) 0.2069(8)
C21 C 0.3376(15) 1.0366(26) 0.2155(7)
O4A O 0.7639(10) 0.5438(17) 0.2041(4)
O5A O 0.7709(8) 1.2226(15) 0.2078(4)
Lu1A Lu 0.7686(1) 1.3829(1) 0.2958(1)
Lu1A_2 Lu 0.7686(1) 0.3829(1) 0.2958(1)
loop_
_geom_bond_atom_site_label_1
_geom_bond_atom_site_label_2
_geom_bond_site_symmetry_1
_geom_bond_site_symmetry_2
Lu1 O1 1_555 1_555
Cl1 C3 1_555 1_555
Cl2 C10 1_555 1_555
Cl3 C17 1_555 1_555
O2 Lu1 1_555 1_555
O3 Lu1 1_555 1_555
O4 Lu1 1_555 1_555
O5 Lu1 1_555 1_555
O6 Lu1 1_555 1_555
O7 Lu1 1_555 1_555
C1 O2 1_555 1_555
C2 C1 1_555 1_555
C3 C2 1_555 1_555
C4 C3 1_555 1_555
C5 C4 1_555 1_555
C6 C5 1_555 1_555
C7 C2 1_555 1_555
C8 O4 1_555 1_555
C9 C8 1_555 1_555
C10 C9 1_555 1_555
C11 C10 1_555 1_555
C12 C11 1_555 1_555
C13 C12 1_555 1_555
C14 C9 1_555 1_555
C15 O6 1_555 1_555
C16 C15 1_555 1_555
C17 C16 1_555 1_555
C18 C17 1_555 1_555
C19 C18 1_555 1_555
C20 C19 1_555 1_555
C21 C16 1_555 1_555
O4A Lu1 1_555 1_555
O5A Lu1 1_555 1_555
Lu1A O4 1_555 1_555
Lu1A_2 O5 1_555 1_555
O3 C1 1_555 1_555
O5 C8 1_555 1_555
O7 C15 1_555 1_555
C6 C7 1_555 1_555
C13 C14 1_555 1_555
C20 C21 1_555 1_555
O4A Lu1A_2 1_555 1_555
O5A Lu1A 1_555 1_555

#END
