
#######################################################################
#
#                 Cambridge Crystallographic Data Centre
#                                CCDC 
#
#######################################################################
#
# If this CIF has been generated from an entry in the Cambridge 
# Structural Database, then it will include bibliographic, chemical, 
# crystal, experimental, refinement or atomic coordinate data resulting 
# from the CCDC's data processing and validation procedures.
#
#######################################################################

data_LERDOD
_symmetry_cell_setting           monoclinic
_symmetry_space_group_name_H-M   'C 2'
_symmetry_Int_Tables_number      5
_space_group_name_Hall           'C 2y'
loop_
_symmetry_equiv_pos_site_id
_symmetry_equiv_pos_as_xyz
1 x,y,z
2 -x,y,-z
3 1/2+x,1/2+y,z
4 1/2-x,1/2+y,-z
_cell_length_a                   21.8568(12)
_cell_length_b                   8.0321(4)
_cell_length_c                   16.8886(9)
_cell_angle_alpha                90
_cell_angle_beta                 99.337(4)
_cell_angle_gamma                90
_cell_volume                     2925.61
loop_
_atom_site_label
_atom_site_type_symbol
_atom_site_fract_x
_atom_site_fract_y
_atom_site_fract_z
Ag1 Ag -0.039270(10) -0.25362(2) -0.266230(10)
Ag2 Ag 0.019840(10) 0.25094(2) -0.239380(10)
S1 S 0.03829(2) -0.03372(5) -0.28001(2)
S2 S -0.06190(2) 0.45772(5) -0.22977(3)
O1 O 0.24701(9) -0.3783(2) 0.18055(10)
O2 O 0.23609(9) -0.1039(2) 0.16097(10)
O3 O 0.05523(7) -0.59683(17) -0.35502(8)
O4 O -0.22439(7) 0.44477(17) -0.68595(8)
O5 O -0.21366(9) 0.17023(19) -0.66692(9)
O6 O -0.06661(7) -0.10102(17) -0.14606(8)
O7 O -0.14046(7) -0.19613(18) -0.34789(9)
O8 O -0.07471(6) -0.2689(3) -0.42485(9)
O9 O -0.17047(7) -0.2273(3) -0.47563(9)
O10 O 0.11362(7) 0.33413(19) -0.15475(8)
O11 O 0.05366(6) 0.2525(3) -0.07217(8)
O12 O 0.13476(8) 0.3990(2) -0.02851(9)
N1 N 0.10084(8) -0.39309(19) -0.26868(10)
N2 N 0.08333(9) -0.3403(2) -0.39777(10)
N3 N -0.09913(8) 0.1529(2) -0.10516(10)
N4 N -0.12225(8) 0.08728(19) -0.23305(10)
N5 N -0.12871(7) -0.2288(2) -0.41731(9)
N6 N 0.10053(8) 0.3288(2) -0.08395(10)
C1 C 0.23722(7) -0.2508(4) 0.13477(9)
C2 C 0.22782(10) -0.2797(3) 0.04580(11)
C3 C 0.17007(9) -0.1969(2) 0.00042(11)
C4 C 0.16928(9) -0.2043(2) -0.08984(11)
C5 C 0.10729(9) -0.1450(2) -0.13658(11)
C6 C 0.11247(8) -0.0991(2) -0.22260(11)
C7 C 0.13342(7) -0.2364(3) -0.27445(10)
C8 C 0.11426(9) -0.1909(2) -0.36519(11)
C9 C 0.07093(10) -0.0395(3) -0.37219(12)
C10 C 0.07790(10) -0.4564(2) -0.34251(12)
C11 C -0.21083(10) 0.3179(3) -0.64095(12)
C12 C -0.19081(11) 0.3502(2) -0.55333(12)
C13 C -0.18652(10) 0.1982(2) -0.50014(11)
C14 C -0.18860(8) 0.2418(4) -0.41265(9)
C15 C -0.12829(9) 0.3185(2) -0.36886(10)
C16 C -0.13496(8) 0.3778(2) -0.28502(10)
C17 C -0.15433(7) 0.2437(3) -0.22861(9)
C18 C -0.13306(9) 0.2977(2) -0.13940(11)
C19 C -0.09230(10) 0.4545(3) -0.13599(12)
C20 C -0.09361(10) 0.0333(3) -0.15947(12)
H1 H 0.1099(12) -0.459(3) -0.2300(13)
H2 H 0.25930 -0.34710 0.22790
H3 H 0.22510 -0.40100 0.03550
H4 H 0.26450 -0.23730 0.02460
H5 H 0.0720(11) -0.352(3) -0.4494(10)
H6 H 0.16880 -0.07910 0.01750
H7 H 0.13280 -0.25340 0.01370
H8 H -0.0803(11) 0.147(3) -0.0562(11)
H9 H 0.17700 -0.32020 -0.10550
H10 H 0.20300 -0.13360 -0.10390
H11 H -0.1325(11) 0.020(3) -0.2716(12)
H12 H -0.23570 0.41330 -0.73350
H13 H 0.07600 -0.23430 -0.13680
H14 H 0.09290 -0.04680 -0.10930
H15 H 0.14220 -0.00420 -0.22120
H16 H 0.17930 -0.25310 -0.26110
H17 H 0.15160 -0.16770 -0.39060
H18 H 0.03770 -0.05130 -0.41920
H19 H 0.09430 0.06390 -0.37840
H20 H -0.22040 0.42940 -0.53520
H21 H -0.14970 0.40500 -0.54590
H22 H -0.14740 0.13870 -0.50350
H23 H -0.22130 0.12220 -0.52000
H24 H -0.19770 0.13960 -0.38400
H25 H -0.22300 0.32120 -0.41060
H26 H -0.09470 0.23460 -0.36480
H27 H -0.11650 0.41380 -0.40040
H28 H -0.16630 0.46940 -0.29030
H29 H -0.20020 0.22640 -0.23960
H30 H -0.16980 0.31850 -0.11240
H31 H -0.05810 0.44900 -0.08980
H32 H -0.11720 0.55570 -0.13070
Ag1_2 Ag -0.039270(10) 0.74638(2) -0.266230(10)
Ag2_2 Ag 0.019840(10) -0.74906(2) -0.239380(10)
S2_2 S -0.06190(2) -0.54228(5) -0.22977(3)
O3_2 O 0.05523(7) 0.40317(17) -0.35502(8)
O13 O 0.00000 -0.2700(4) 0.00000
H33 H -0.0149(16) -0.207(4) -0.0403(16)
H33A H 0.0149(16) -0.207(4) 0.0403(16)
O14 O 0.00000 -0.7652(5) -0.50000
H34 H -0.011(2) -0.708(4) -0.5411(17)
H34A H 0.011(2) -0.708(4) -0.4589(17)
loop_
_geom_bond_atom_site_label_1
_geom_bond_atom_site_label_2
_geom_bond_site_symmetry_1
_geom_bond_site_symmetry_2
Ag1 S1 1_555 1_555
Ag2 S1 1_555 1_555
S1 C6 1_555 1_555
S2 Ag2 1_555 1_555
O1 C1 1_555 1_555
O2 C1 1_555 1_555
O3 C10 1_555 1_555
O4 C11 1_555 1_555
O5 C11 1_555 1_555
O6 Ag1 1_555 1_555
O7 Ag1 1_555 1_555
O8 Ag1 1_555 1_555
O9 N5 1_555 1_555
O10 Ag2 1_555 1_555
O11 Ag2 1_555 1_555
O12 N6 1_555 1_555
N1 C7 1_555 1_555
N2 C8 1_555 1_555
N3 C18 1_555 1_555
N4 C17 1_555 1_555
N5 O7 1_555 1_555
N6 O10 1_555 1_555
C1 C2 1_555 1_555
C2 C3 1_555 1_555
C3 C4 1_555 1_555
C4 C5 1_555 1_555
C5 C6 1_555 1_555
C6 C7 1_555 1_555
C7 C8 1_555 1_555
C8 C9 1_555 1_555
C9 S1 1_555 1_555
C10 N1 1_555 1_555
C11 C12 1_555 1_555
C12 C13 1_555 1_555
C13 C14 1_555 1_555
C14 C15 1_555 1_555
C15 C16 1_555 1_555
C16 S2 1_555 1_555
C17 C16 1_555 1_555
C18 C17 1_555 1_555
C19 S2 1_555 1_555
C20 O6 1_555 1_555
H1 N1 1_555 1_555
H2 O1 1_555 1_555
H3 C2 1_555 1_555
H4 C2 1_555 1_555
H5 N2 1_555 1_555
H6 C3 1_555 1_555
H7 C3 1_555 1_555
H8 N3 1_555 1_555
H9 C4 1_555 1_555
H10 C4 1_555 1_555
H11 N4 1_555 1_555
H12 O4 1_555 1_555
H13 C5 1_555 1_555
H14 C5 1_555 1_555
H15 C6 1_555 1_555
H16 C7 1_555 1_555
H17 C8 1_555 1_555
H18 C9 1_555 1_555
H19 C9 1_555 1_555
H20 C12 1_555 1_555
H21 C12 1_555 1_555
H22 C13 1_555 1_555
H23 C13 1_555 1_555
H24 C14 1_555 1_555
H25 C14 1_555 1_555
H26 C15 1_555 1_555
H27 C15 1_555 1_555
H28 C16 1_555 1_555
H29 C17 1_555 1_555
H30 C18 1_555 1_555
H31 C19 1_555 1_555
H32 C19 1_555 1_555
O13 H33 1_555 1_555
O14 H34 1_555 1_555
Ag1_2 S2 1_555 1_555
Ag2_2 O3 1_555 1_555
S2_2 Ag1 1_555 1_555
O3_2 Ag2 1_555 1_555
H33A O13 1_555 1_555
H34A O14 1_555 1_555
O8 N5 1_555 1_555
O11 N6 1_555 1_555
N2 C10 1_555 1_555
N3 C20 1_555 1_555
N4 C20 1_555 1_555
C18 C19 1_555 1_555
Ag2_2 S2_2 1_555 1_555

#END
