
#######################################################################
#
#                 Cambridge Crystallographic Data Centre
#                                CCDC 
#
#######################################################################
#
# If this CIF has been generated from an entry in the Cambridge 
# Structural Database, then it will include bibliographic, chemical, 
# crystal, experimental, refinement or atomic coordinate data resulting 
# from the CCDC's data processing and validation procedures.
#
#######################################################################

data_LERDAP
_symmetry_cell_setting           monoclinic
_symmetry_space_group_name_H-M   'P 2/c'
_symmetry_Int_Tables_number      13
_space_group_name_Hall           '-P 2yc'
loop_
_symmetry_equiv_pos_site_id
_symmetry_equiv_pos_as_xyz
1 x,y,z
2 -x,y,1/2-z
3 -x,-y,-z
4 x,-y,1/2+z
_cell_length_a                   9.7137(19)
_cell_length_b                   8.0745(16)
_cell_length_c                   15.396(3)
_cell_angle_alpha                90
_cell_angle_beta                 98.73(3)
_cell_angle_gamma                90
_cell_volume                     1193.57
loop_
_atom_site_label
_atom_site_type_symbol
_atom_site_fract_x
_atom_site_fract_y
_atom_site_fract_z
I1 I 0.10063(6) 0.31252(6) 0.41593(4)
Cu1 Cu 0.05260(10) 0.62373(12) 0.45162(7)
N1 N -0.0745(6) 0.7213(8) 0.3467(4)
N2 N -0.7602(6) 1.2750(8) 0.0042(4)
N3 N -0.4132(7) 1.0721(10) 0.1661(4)
N4 N -0.3994(7) 0.9196(10) 0.1633(4)
C1 C -0.0876(8) 0.8843(10) 0.3362(5)
H1 H -0.0247 0.9520 0.3713
C2 C -0.1888(8) 0.9597(10) 0.2763(5)
H2 H -0.1931 1.0744 0.2708
C3 C -0.2833(8) 0.8588(10) 0.2249(5)
C4 C -0.2708(9) 0.6913(11) 0.2340(6)
H3 H -0.3336 0.6213 0.2003
C5 C -0.1640(8) 0.6267(11) 0.2936(5)
H4 H -0.1536 0.5123 0.2971
C6 C -0.7460(8) 1.1116(10) 0.0123(5)
H5 H -0.8155 1.0450 -0.0177
C7 C -0.6348(8) 1.0352(10) 0.0625(5)
H6 H -0.6301 0.9204 0.0665
C8 C -0.5311(7) 1.1318(11) 0.1067(5)
C9 C -0.5414(9) 1.3016(11) 0.0976(6)
H7 H -0.4720 1.3706 0.1259
C10 C -0.6576(8) 1.3674(11) 0.0452(6)
H8 H -0.6637 1.4818 0.0386
I1B I -0.10063(6) 0.68748(6) 0.58407(4)
Cu1B Cu -0.05260(10) 0.37627(12) 0.54838(7)
Cu1C Cu -0.94740(10) 1.37627(12) -0.04838(7)
N2C N 0.2398(6) 0.7250(8) 0.5042(4)
loop_
_geom_bond_atom_site_label_1
_geom_bond_atom_site_label_2
_geom_bond_site_symmetry_1
_geom_bond_site_symmetry_2
I1 Cu1 1_555 1_555
Cu1 N1 1_555 1_555
N1 C1 1_555 1_555
N2 C6 1_555 1_555
N3 N4 1_555 1_555
N4 C3 1_555 1_555
C1 H1 1_555 1_555
C2 C1 1_555 1_555
H2 C2 1_555 1_555
C3 C2 1_555 1_555
C4 C3 1_555 1_555
H3 C4 1_555 1_555
C5 N1 1_555 1_555
H4 C5 1_555 1_555
C6 H5 1_555 1_555
C7 C6 1_555 1_555
H6 C7 1_555 1_555
C8 N3 1_555 1_555
C9 C8 1_555 1_555
H7 C9 1_555 1_555
C10 N2 1_555 1_555
H8 C10 1_555 1_555
I1B Cu1 1_555 1_555
Cu1B I1 1_555 1_555
Cu1C N2 1_555 1_555
N2C Cu1 1_555 1_555
C4 C5 1_555 1_555
C7 C8 1_555 1_555
C9 C10 1_555 1_555
I1B Cu1B 1_555 1_555

#END
