
#######################################################################
#
#                 Cambridge Crystallographic Data Centre
#                                CCDC 
#
#######################################################################
#
# If this CIF has been generated from an entry in the Cambridge 
# Structural Database, then it will include bibliographic, chemical, 
# crystal, experimental, refinement or atomic coordinate data resulting 
# from the CCDC's data processing and validation procedures.
#
#######################################################################

data_LERFUJ
_symmetry_cell_setting           monoclinic
_symmetry_space_group_name_H-M   'P 21/c'
_symmetry_Int_Tables_number      14
_space_group_name_Hall           '-P 2ybc'
loop_
_symmetry_equiv_pos_site_id
_symmetry_equiv_pos_as_xyz
1 x,y,z
2 -x,1/2+y,1/2-z
3 -x,-y,-z
4 x,1/2-y,1/2+z
_cell_length_a                   31.929
_cell_length_b                   5.966
_cell_length_c                   7.178
_cell_angle_alpha                90
_cell_angle_beta                 94.60
_cell_angle_gamma                90
_cell_volume                     1362.92
loop_
_atom_site_label
_atom_site_type_symbol
_atom_site_fract_x
_atom_site_fract_y
_atom_site_fract_z
Pb1 Pb 0.25716(1) 0.58621(3) 0.58615(3)
S1 S 0.31059(4) 0.8472(2) 0.7872(2)
S2 S 0.22691(5) 0.9947(3) 0.5087(2)
C1 C 0.3538(2) 0.6579(10) 0.8266(7)
C2 C 0.3490(2) 0.4401(9) 0.8975(8)
C3 C 0.3841(2) 0.3021(9) 0.9273(7)
C4 C 0.4237(2) 0.3721(9) 0.8859(8)
C5 C 0.4276(2) 0.5890(9) 0.8151(8)
C6 C 0.3929(2) 0.7297(9) 0.7849(8)
C7 C 0.4609(2) 0.2158(9) 0.9062(8)
C8 C 0.1732(2) 0.9885(10) 0.4229(8)
C9 C 0.1460(2) 0.8134(10) 0.4571(8)
C10 C 0.1045(2) 0.8257(11) 0.3911(8)
C11 C 0.0875(2) 1.0098(12) 0.2889(9)
C12 C 0.1155(2) 1.1811(11) 0.2552(9)
C13 C 0.1579(2) 1.1743(10) 0.3185(8)
C14 C 0.0419(2) 1.0237(15) 0.2221(11)
H1 H 0.3218 0.3873 0.9251
H2 H 0.3808 0.1547 0.9778
H3 H 0.4548 0.6419 0.7867
H4 H 0.3963 0.8773 0.7349
H5 H 0.4855 0.2928 0.8716
H6 H 0.4556 0.0882 0.8263
H7 H 0.4652 0.1669 1.0337
H8 H 0.1563 0.6844 0.5267
H9 H 0.0862 0.7031 0.4159
H10 H 0.1052 1.3096 0.1854
H11 H 0.1764 1.2948 0.2910
H12 H 0.0278 0.8906 0.2585
H13 H 0.0391 1.0371 0.0884
H14 H 0.0296 1.1524 0.2766
S1C S 0.31059(4) 0.6528(2) 0.2872(2)
S2C S 0.22691(5) 0.5053(3) 1.0087(2)
Pb1C Pb 0.25716(1) 0.91379(3) 1.08615(3)
Pb1C_2 Pb 0.25716(1) 0.91379(3) 0.08615(3)
C1C C 0.3538(2) 0.8421(10) 0.3266(7)
C8C C 0.1732(2) 0.5115(10) 0.9229(8)
S1C_2 S 0.31059(4) 0.6528(2) 1.2872(2)
S2_2 S 0.22691(5) 0.9947(3) 1.5087(2)
C2C C 0.3490(2) 1.0599(9) 0.3975(8)
C6C C 0.3929(2) 0.7703(9) 0.2849(8)
C9C C 0.1460(2) 0.6866(10) 0.9571(8)
C13C C 0.1579(2) 0.3257(10) 0.8185(8)
C3C C 0.3841(2) 1.1979(9) 0.4273(7)
H1C H 0.3218 1.1127 0.4251
C5C C 0.4276(2) 0.9110(9) 0.3151(8)
H4C H 0.3963 0.6227 0.2349
C10C C 0.1045(2) 0.6743(11) 0.8911(8)
H8C H 0.1563 0.8156 1.0267
C12C C 0.1155(2) 0.3189(11) 0.7552(9)
H11C H 0.1764 0.2052 0.7910
C4C C 0.4237(2) 1.1279(9) 0.3859(8)
H2C H 0.3808 1.3453 0.4778
H3C H 0.4548 0.8581 0.2867
C11C C 0.0875(2) 0.4902(12) 0.7889(9)
H9C H 0.0862 0.7969 0.9159
H10C H 0.1052 0.1904 0.6854
C7C C 0.4609(2) 1.2842(9) 0.4062(8)
C14C C 0.0419(2) 0.4763(15) 0.7221(11)
H5C H 0.4855 1.2072 0.3716
H6C H 0.4556 1.4118 0.3263
H7C H 0.4652 1.3331 0.5337
H12C H 0.0278 0.6094 0.7585
H13C H 0.0391 0.4629 0.5884
H14C H 0.0296 0.3476 0.7766
loop_
_geom_bond_atom_site_label_1
_geom_bond_atom_site_label_2
_geom_bond_site_symmetry_1
_geom_bond_site_symmetry_2
Pb1 S1 1_555 1_555
S1 C1 1_555 1_555
S2 Pb1 1_555 1_555
C1 C2 1_555 1_555
C2 C3 1_555 1_555
C3 C4 1_555 1_555
C4 C5 1_555 1_555
C5 C6 1_555 1_555
C6 C1 1_555 1_555
C7 C4 1_555 1_555
C8 S2 1_555 1_555
C9 C8 1_555 1_555
C10 C9 1_555 1_555
C11 C10 1_555 1_555
C12 C11 1_555 1_555
C13 C8 1_555 1_555
C14 C11 1_555 1_555
H1 C2 1_555 1_555
H2 C3 1_555 1_555
H3 C5 1_555 1_555
H4 C6 1_555 1_555
H5 C7 1_555 1_555
H6 C7 1_555 1_555
H7 C7 1_555 1_555
H8 C9 1_555 1_555
H9 C10 1_555 1_555
H10 C12 1_555 1_555
H11 C13 1_555 1_555
H12 C14 1_555 1_555
H13 C14 1_555 1_555
H14 C14 1_555 1_555
S1C Pb1 1_555 1_555
S2C Pb1 1_555 1_555
Pb1C S1 1_555 1_555
Pb1C_2 S2 1_555 1_555
C1C S1C 1_555 1_555
C8C S2C 1_555 1_555
S1C_2 Pb1C 1_555 1_555
S2_2 Pb1C 1_555 1_555
C2C C1C 1_555 1_555
C6C C1C 1_555 1_555
C9C C8C 1_555 1_555
C13C C8C 1_555 1_555
C3C C2C 1_555 1_555
H1C C2C 1_555 1_555
C5C C6C 1_555 1_555
H4C C6C 1_555 1_555
C10C C9C 1_555 1_555
H8C C9C 1_555 1_555
C12C C13C 1_555 1_555
H11C C13C 1_555 1_555
C4C C3C 1_555 1_555
H2C C3C 1_555 1_555
H3C C5C 1_555 1_555
C11C C10C 1_555 1_555
H9C C10C 1_555 1_555
H10C C12C 1_555 1_555
C7C C4C 1_555 1_555
C14C C11C 1_555 1_555
H5C C7C 1_555 1_555
H6C C7C 1_555 1_555
H7C C7C 1_555 1_555
H12C C14C 1_555 1_555
H13C C14C 1_555 1_555
H14C C14C 1_555 1_555
C12 C13 1_555 1_555
S1C Pb1C_2 1_555 1_555
S2C Pb1C 1_555 1_555
C5C C4C 1_555 1_555
C12C C11C 1_555 1_555

#END
