
#######################################################################
#
#                 Cambridge Crystallographic Data Centre
#                                CCDC 
#
#######################################################################
#
# If this CIF has been generated from an entry in the Cambridge 
# Structural Database, then it will include bibliographic, chemical, 
# crystal, experimental, refinement or atomic coordinate data resulting 
# from the CCDC's data processing and validation procedures.
#
#######################################################################

data_LERFOD
_symmetry_cell_setting           monoclinic
_symmetry_space_group_name_H-M   'P 21/n'
_symmetry_Int_Tables_number      14
_space_group_name_Hall           '-P 2yn'
loop_
_symmetry_equiv_pos_site_id
_symmetry_equiv_pos_as_xyz
1 x,y,z
2 1/2-x,1/2+y,1/2-z
3 -x,-y,-z
4 1/2+x,1/2-y,1/2+z
_cell_length_a                   9.104
_cell_length_b                   28.309
_cell_length_c                   11.968
_cell_angle_alpha                90
_cell_angle_beta                 92.13
_cell_angle_gamma                90
_cell_volume                     3082.32
loop_
_atom_site_label
_atom_site_type_symbol
_atom_site_fract_x
_atom_site_fract_y
_atom_site_fract_z
Tl1 Tl 0.20837(3) 0.20954(1) 0.48891(3)
Tl2 Tl 0.52915(3) 0.26371(1) 0.68974(2)
Tl3 Tl 0.82613(3) 0.27774(1) 0.44614(2)
Tl4 Tl -0.04314(3) 0.24813(1) 0.72738(2)
S1 S 0.21390(20) 0.29040(8) 0.62743(17)
S2 S 0.63885(20) 0.33926(8) 0.56165(16)
S3 S 0.20650(20) 0.18573(7) 0.72731(16)
S4 S 0.54583(20) 0.22388(7) 0.45880(16)
C1 C 0.1864(8) 0.3404(3) 0.5315(6)
C2 C 0.2613(9) 0.3325(3) 0.4232(7)
C3 C 0.2490(9) 0.3758(4) 0.3467(7)
C4 C 0.3011(10) 0.4200(4) 0.4025(9)
C5 C 0.2222(10) 0.4283(4) 0.5112(8)
C6 C 0.2372(9) 0.3869(3) 0.5875(7)
C7 C 0.7369(8) 0.3738(3) 0.6713(6)
C8 C 0.6307(9) 0.3937(4) 0.7539(7)
C9 C 0.7091(9) 0.4231(4) 0.8445(7)
C10 C 0.7956(9) 0.4633(3) 0.7924(7)
C11 C 0.9030(10) 0.4434(4) 0.7102(7)
C12 C 0.8258(9) 0.4130(4) 0.6202(7)
C13 C 0.1678(8) 0.1233(3) 0.7531(6)
C14 C 0.3040(8) 0.0988(3) 0.8042(7)
C15 C 0.2727(10) 0.0469(3) 0.8265(8)
C16 C 0.2204(9) 0.0208(4) 0.7203(8)
C17 C 0.0859(9) 0.0456(3) 0.6672(7)
C18 C 0.1154(9) 0.0983(3) 0.6469(6)
C19 C 0.5916(8) 0.1602(3) 0.4482(6)
C20 C 0.7908(9) 0.0997(3) 0.4258(8)
C21 C 0.7558(8) 0.1526(3) 0.4333(7)
C22 C 0.7375(8) 0.0712(3) 0.5246(6)
C23 C 0.5741(9) 0.0801(3) 0.5388(8)
C24 C 0.5403(8) 0.1331(3) 0.5473(7)
H1 H 0.0828 0.3430 0.5145
H2 H 0.2178 0.3057 0.3855
H3 H 0.3632 0.3255 0.4389
H4 H 0.1483 0.3797 0.3219
H5 H 0.3058 0.3703 0.2820
H6 H 0.2833 0.4463 0.3531
H7 H 0.4050 0.4180 0.4184
H8 H 0.1199 0.4341 0.4942
H9 H 0.2624 0.4558 0.5481
H10 H 0.3382 0.3838 0.6123
H11 H 0.1801 0.3924 0.6521
H12 H 0.8038 0.3531 0.7111
H13 H 0.5797 0.3681 0.7882
H14 H 0.5590 0.4130 0.7146
H15 H 0.7750 0.4033 0.8881
H16 H 0.6382 0.4360 0.8935
H17 H 0.8484 0.4805 0.8501
H18 H 0.7289 0.4847 0.7544
H19 H 0.9755 0.4246 0.7500
H20 H 0.9528 0.4690 0.6751
H21 H 0.7617 0.4326 0.5746
H22 H 0.8977 0.3995 0.5729
H23 H 0.0910 0.1215 0.8058
H24 H 0.3333 0.1141 0.8730
H25 H 0.3835 0.1014 0.7540
H26 H 0.1988 0.0446 0.8813
H27 H 0.3604 0.0321 0.8566
H28 H 0.1958 -0.0112 0.7385
H29 H 0.2979 0.0200 0.6680
H30 H 0.0045 0.0423 0.7155
H31 H 0.0594 0.0306 0.5974
H32 H 0.1885 0.1014 0.5916
H33 H 0.0269 0.1130 0.6183
H34 H 0.5403 0.1480 0.3830
H35 H 0.8953 0.0958 0.4218
H36 H 0.7462 0.0873 0.3581
H37 H 0.8104 0.1663 0.4954
H38 H 0.7848 0.1682 0.3663
H39 H 0.7916 0.0803 0.5916
H40 H 0.7540 0.0382 0.5120
H41 H 0.5433 0.0645 0.6051
H42 H 0.5192 0.0670 0.4761
H43 H 0.4362 0.1374 0.5529
H44 H 0.5874 0.1455 0.6141
S4C S 0.04583(20) 0.27612(7) 0.95880(16)
S3C S 0.70650(20) 0.31427(7) 0.22731(16)
Tl3C Tl 0.32613(3) 0.22226(1) 0.94614(2)
Tl4C Tl 0.45686(3) 0.25187(1) 0.22738(2)
Tl2C Tl 0.02915(3) 0.23629(1) 1.18974(2)
C19C C 0.0916(8) 0.3398(3) 0.9482(6)
Tl1C Tl 0.70837(3) 0.29046(1) -0.01109(3)
C13C C 0.6678(8) 0.3767(3) 0.2531(6)
S2C S 0.13885(20) 0.16074(8) 1.06165(16)
S1C S 0.71390(20) 0.20960(8) 0.12743(17)
S1C_2 S -0.28610(20) 0.20960(8) 1.12743(17)
C21C C 0.2558(8) 0.3474(3) 0.9333(7)
C24C C 0.0403(8) 0.3669(3) 1.0473(7)
H34C H 0.0403 0.3520 0.8830
C14C C 0.8040(8) 0.4012(3) 0.3042(7)
C18C C 0.6154(9) 0.4017(3) 0.1469(6)
H23C H 0.5910 0.3785 0.3058
C7C C 0.2369(8) 0.1262(3) 1.1713(6)
Tl2C_2 Tl 1.02915(3) 0.23629(1) 0.18974(2)
C1C C 0.6864(8) 0.1596(3) 0.0315(6)
C20C C 0.2908(9) 0.4003(3) 0.9258(8)
H37C H 0.3104 0.3337 0.9954
H38C H 0.2848 0.3318 0.8663
C23C C 0.0741(9) 0.4199(3) 1.0388(8)
H43C H -0.0638 0.3626 1.0529
H44C H 0.0874 0.3545 1.1141
C15C C 0.7727(10) 0.4531(3) 0.3265(8)
H24C H 0.8333 0.3859 0.3730
H25C H 0.8835 0.3986 0.2540
C17C C 0.5859(9) 0.4544(3) 0.1672(7)
H32C H 0.6885 0.3986 0.0916
H33C H 0.5269 0.3870 0.1183
C8C C 0.1307(9) 0.1063(4) 1.2539(7)
C12C C 0.3258(9) 0.0870(4) 1.1202(7)
H12C H 0.3038 0.1469 1.2111
C2C C 0.7613(9) 0.1675(3) -0.0768(7)
C6C C 0.7372(9) 0.1131(3) 0.0875(7)
H1C H 0.5828 0.1570 0.0145
C22C C 0.2375(8) 0.4288(3) 1.0246(6)
H35C H 0.3953 0.4042 0.9218
H36C H 0.2462 0.4127 0.8581
H41C H 0.0433 0.4355 1.1051
H42C H 0.0192 0.4330 0.9761
C16C C 0.7204(9) 0.4792(4) 0.2203(8)
H26C H 0.6988 0.4554 0.3813
H27C H 0.8604 0.4679 0.3566
H30C H 0.5045 0.4577 0.2155
H31C H 0.5594 0.4694 0.0974
C9C C 0.2091(9) 0.0769(4) 1.3445(7)
H13C H 0.0797 0.1319 1.2882
H14C H 0.0590 0.0870 1.2146
C11C C 0.4030(10) 0.0566(4) 1.2102(7)
H21C H 0.2617 0.0674 1.0746
H22C H 0.3977 0.1005 1.0729
C3C C 0.7490(9) 0.1242(4) -0.1533(7)
H2C H 0.7178 0.1943 -0.1145
H3C H 0.8632 0.1745 -0.0611
C5C C 0.7222(10) 0.0717(4) 0.0112(8)
H10C H 0.8382 0.1162 0.1123
H11C H 0.6801 0.1076 0.1521
H39C H 0.2916 0.4197 1.0916
H40C H 0.2540 0.4618 1.0120
H28C H 0.6958 0.5112 0.2385
H29C H 0.7979 0.4800 0.1680
C10C C 0.2956(9) 0.0367(3) 1.2924(7)
H15C H 0.2750 0.0967 1.3881
H16C H 0.1382 0.0640 1.3935
H19C H 0.4755 0.0754 1.2500
H20C H 0.4528 0.0310 1.1751
C4C C 0.8011(10) 0.0800(4) -0.0975(9)
H4C H 0.6483 0.1203 -0.1781
H5C H 0.8058 0.1297 -0.2180
H8C H 0.6199 0.0659 -0.0058
H9C H 0.7624 0.0442 0.0481
H17C H 0.3484 0.0195 1.3501
H18C H 0.2289 0.0153 1.2544
H6C H 0.7833 0.0537 -0.1469
H7C H 0.9050 0.0820 -0.0816
loop_
_geom_bond_atom_site_label_1
_geom_bond_atom_site_label_2
_geom_bond_site_symmetry_1
_geom_bond_site_symmetry_2
Tl1 S1 1_555 1_555
Tl2 S1 1_555 1_555
Tl3 S2 1_555 1_555
Tl4 S1 1_555 1_555
S1 C1 1_555 1_555
S2 Tl2 1_555 1_555
S3 Tl1 1_555 1_555
S4 Tl2 1_555 1_555
C1 C2 1_555 1_555
C2 C3 1_555 1_555
C3 C4 1_555 1_555
C4 C5 1_555 1_555
C5 C6 1_555 1_555
C6 C1 1_555 1_555
C7 S2 1_555 1_555
C8 C7 1_555 1_555
C9 C8 1_555 1_555
C10 C9 1_555 1_555
C11 C10 1_555 1_555
C12 C7 1_555 1_555
C13 S3 1_555 1_555
C14 C13 1_555 1_555
C15 C14 1_555 1_555
C16 C15 1_555 1_555
C17 C16 1_555 1_555
C18 C13 1_555 1_555
C19 S4 1_555 1_555
C20 C21 1_555 1_555
C21 C19 1_555 1_555
C22 C20 1_555 1_555
C23 C22 1_555 1_555
C24 C19 1_555 1_555
H1 C1 1_555 1_555
H2 C2 1_555 1_555
H3 C2 1_555 1_555
H4 C3 1_555 1_555
H5 C3 1_555 1_555
H6 C4 1_555 1_555
H7 C4 1_555 1_555
H8 C5 1_555 1_555
H9 C5 1_555 1_555
H10 C6 1_555 1_555
H11 C6 1_555 1_555
H12 C7 1_555 1_555
H13 C8 1_555 1_555
H14 C8 1_555 1_555
H15 C9 1_555 1_555
H16 C9 1_555 1_555
H17 C10 1_555 1_555
H18 C10 1_555 1_555
H19 C11 1_555 1_555
H20 C11 1_555 1_555
H21 C12 1_555 1_555
H22 C12 1_555 1_555
H23 C13 1_555 1_555
H24 C14 1_555 1_555
H25 C14 1_555 1_555
H26 C15 1_555 1_555
H27 C15 1_555 1_555
H28 C16 1_555 1_555
H29 C16 1_555 1_555
H30 C17 1_555 1_555
H31 C17 1_555 1_555
H32 C18 1_555 1_555
H33 C18 1_555 1_555
H34 C19 1_555 1_555
H35 C20 1_555 1_555
H36 C20 1_555 1_555
H37 C21 1_555 1_555
H38 C21 1_555 1_555
H39 C22 1_555 1_555
H40 C22 1_555 1_555
H41 C23 1_555 1_555
H42 C23 1_555 1_555
H43 C24 1_555 1_555
H44 C24 1_555 1_555
S4C Tl4 1_555 1_555
S3C Tl3 1_555 1_555
Tl3C S3 1_555 1_555
Tl4C S4 1_555 1_555
Tl2C S4C 1_555 1_555
C19C S4C 1_555 1_555
Tl1C S3C 1_555 1_555
C13C S3C 1_555 1_555
S2C Tl3C 1_555 1_555
S1C Tl4C 1_555 1_555
S1C_2 Tl2C 1_555 1_555
C21C C19C 1_555 1_555
C24C C19C 1_555 1_555
H34C C19C 1_555 1_555
C14C C13C 1_555 1_555
C18C C13C 1_555 1_555
H23C C13C 1_555 1_555
C7C S2C 1_555 1_555
Tl2C_2 S1C 1_555 1_555
C1C S1C 1_555 1_555
C20C C21C 1_555 1_555
H37C C21C 1_555 1_555
H38C C21C 1_555 1_555
C23C C24C 1_555 1_555
H43C C24C 1_555 1_555
H44C C24C 1_555 1_555
C15C C14C 1_555 1_555
H24C C14C 1_555 1_555
H25C C14C 1_555 1_555
C17C C18C 1_555 1_555
H32C C18C 1_555 1_555
H33C C18C 1_555 1_555
C8C C7C 1_555 1_555
C12C C7C 1_555 1_555
H12C C7C 1_555 1_555
C2C C1C 1_555 1_555
C6C C1C 1_555 1_555
H1C C1C 1_555 1_555
C22C C20C 1_555 1_555
H35C C20C 1_555 1_555
H36C C20C 1_555 1_555
H41C C23C 1_555 1_555
H42C C23C 1_555 1_555
C16C C15C 1_555 1_555
H26C C15C 1_555 1_555
H27C C15C 1_555 1_555
H30C C17C 1_555 1_555
H31C C17C 1_555 1_555
C9C C8C 1_555 1_555
H13C C8C 1_555 1_555
H14C C8C 1_555 1_555
C11C C12C 1_555 1_555
H21C C12C 1_555 1_555
H22C C12C 1_555 1_555
C3C C2C 1_555 1_555
H2C C2C 1_555 1_555
H3C C2C 1_555 1_555
C5C C6C 1_555 1_555
H10C C6C 1_555 1_555
H11C C6C 1_555 1_555
H39C C22C 1_555 1_555
H40C C22C 1_555 1_555
H28C C16C 1_555 1_555
H29C C16C 1_555 1_555
C10C C9C 1_555 1_555
H15C C9C 1_555 1_555
H16C C9C 1_555 1_555
H19C C11C 1_555 1_555
H20C C11C 1_555 1_555
C4C C3C 1_555 1_555
H4C C3C 1_555 1_555
H5C C3C 1_555 1_555
H8C C5C 1_555 1_555
H9C C5C 1_555 1_555
H17C C10C 1_555 1_555
H18C C10C 1_555 1_555
H6C C4C 1_555 1_555
H7C C4C 1_555 1_555
Tl3 S4 1_555 1_555
Tl4 S3 1_555 1_555
C11 C12 1_555 1_555
C17 C18 1_555 1_555
C23 C24 1_555 1_555
S4C Tl3C 1_555 1_555
S3C Tl4C 1_555 1_555
Tl2C S2C 1_555 1_555
Tl1C S1C 1_555 1_555
C23C C22C 1_555 1_555
C17C C16C 1_555 1_555
C11C C10C 1_555 1_555
C5C C4C 1_555 1_555

#END
