
#######################################################################
#
#                 Cambridge Crystallographic Data Centre
#                                CCDC 
#
#######################################################################
#
# If this CIF has been generated from an entry in the Cambridge 
# Structural Database, then it will include bibliographic, chemical, 
# crystal, experimental, refinement or atomic coordinate data resulting 
# from the CCDC's data processing and validation procedures.
#
#######################################################################

data_LERFAR
_symmetry_cell_setting           monoclinic
_symmetry_space_group_name_H-M   'P 21'
_symmetry_Int_Tables_number      4
_space_group_name_Hall           'P 2yb'
loop_
_symmetry_equiv_pos_site_id
_symmetry_equiv_pos_as_xyz
1 x,y,z
2 -x,1/2+y,-z
_cell_length_a                   9.6902(11)
_cell_length_b                   14.6452(12)
_cell_length_c                   9.8604(12)
_cell_angle_alpha                90
_cell_angle_beta                 91.167(10)
_cell_angle_gamma                90
_cell_volume                     1399.05
loop_
_atom_site_label
_atom_site_type_symbol
_atom_site_fract_x
_atom_site_fract_y
_atom_site_fract_z
Ag1 Ag 0.71563(3) 0.77119(2) 0.40629(3)
S1 S 0.79490(10) 0.92598(6) 0.46075(10)
S2 S 0.66482(10) 0.61176(6) 0.44562(10)
O1 O 0.4859(4) 0.9333(2) 1.1870(3)
O2 O 0.6475(3) 0.8251(2) 1.1806(3)
O3 O 1.0287(3) 0.64141(19) 0.4025(3)
O4 O 0.8733(4) 0.6267(2) 1.1764(3)
O5 O 0.8199(4) 0.4812(2) 1.2018(3)
O6 O 0.4002(3) 0.8781(2) 0.4265(3)
N1 N 1.0625(3) 0.7718(3) 0.5315(3)
N2 N 1.0067(4) 0.7881(2) 0.3161(3)
N3 N 0.4285(3) 0.7537(2) 0.5671(3)
N4 N 0.3818(4) 0.7300(3) 0.3499(3)
C1 C 0.5866(4) 0.8888(3) 1.1291(4)
C2 C 0.6163(5) 0.9244(3) 0.9903(4)
C3 C 0.7385(4) 0.8791(3) 0.9227(4)
C4 C 0.7673(4) 0.9182(3) 0.7841(4)
C5 C 0.8888(4) 0.8692(3) 0.7176(4)
C6 C 0.9340(4) 0.9158(3) 0.5878(4)
C7 C 1.0567(4) 0.8694(3) 0.5177(4)
C8 C 1.0388(4) 0.8814(3) 0.3603(4)
C9 C 0.9208(5) 0.9473(3) 0.3308(4)
C10 C 1.0332(4) 0.7265(3) 0.4154(4)
C11 C 0.8145(4) 0.5507(3) 1.1357(4)
C12 C 0.7393(5) 0.5596(4) 1.0013(5)
C13 C 0.8287(4) 0.6011(3) 0.8925(4)
C14 C 0.7671(4) 0.5898(3) 0.7501(4)
C15 C 0.6326(4) 0.6418(3) 0.7223(4)
C16 C 0.5578(4) 0.6067(3) 0.5965(4)
C17 C 0.4202(4) 0.6544(3) 0.5556(4)
C18 C 0.3928(4) 0.6386(3) 0.4023(4)
C19 C 0.5134(4) 0.5853(3) 0.3416(4)
C20 C 0.4025(4) 0.7945(3) 0.4469(4)
H1 H 1.086(5) 0.743(3) 0.609(3)
H2 H 0.63410 0.99080 0.99680
H3 H 0.53310 0.91580 0.93170
H4 H 1.017(5) 0.772(4) 0.232(3)
H5 H 0.45690 0.90270 1.25260
H6 H 0.82170 0.88660 0.98160
H7 H 0.72010 0.81290 0.91360
H8 H 0.411(5) 0.783(3) 0.643(3)
H9 H 0.78880 0.98410 0.79300
H10 H 0.68380 0.91210 0.72530
H11 H 0.360(5) 0.745(3) 0.269(3)
H12 H 0.94680 0.61460 1.21950
H13 H 0.96790 0.86710 0.78270
H14 H 0.86160 0.80550 0.69660
H15 H 0.96380 0.97910 0.61270
H16 H 1.14570 0.89740 0.54990
H17 H 1.12630 0.90340 0.31930
H18 H 0.88010 0.93600 0.23940
H19 H 0.95380 1.01120 0.33530
H20 H 0.65660 0.59840 1.01290
H21 H 0.70760 0.49850 0.97110
H22 H 0.92080 0.57180 0.89650
H23 H 0.84150 0.66690 0.91160
H24 H 0.75010 0.52410 0.73370
H25 H 0.83620 0.61040 0.68400
H26 H 0.57180 0.63540 0.80130
H27 H 0.65330 0.70750 0.71080
H28 H 0.53620 0.54090 0.61280
H29 H 0.34240 0.63000 0.60990
H30 H 0.30410 0.60490 0.38720
H31 H 0.52770 0.60420 0.24650
H32 H 0.49440 0.51890 0.34330
Ag1_2 Ag 0.71563(3) 0.77119(2) 1.40629(3)
O2_2 O 0.6475(3) 0.8251(2) 0.1806(3)
Sb1 Sb 0.23151(3) 0.72837(2) 0.94080(3)
F1 F 0.0963(4) 0.6951(3) 0.8087(4)
F2 F 0.3037(4) 0.8165(2) 0.8203(3)
F3 F 0.3660(6) 0.7517(6) 1.0715(4)
F4 F 0.1645(4) 0.6392(3) 1.0583(4)
F5 F 0.1067(6) 0.8090(3) 1.0187(5)
F6 F 0.3428(5) 0.6371(3) 0.8630(5)
loop_
_geom_bond_atom_site_label_1
_geom_bond_atom_site_label_2
_geom_bond_site_symmetry_1
_geom_bond_site_symmetry_2
Ag1 S1 1_555 1_555
S1 C6 1_555 1_555
S2 Ag1 1_555 1_555
O1 C1 1_555 1_555
O2 C1 1_555 1_555
O3 C10 1_555 1_555
O4 C11 1_555 1_555
O5 C11 1_555 1_555
O6 C20 1_555 1_555
N1 C7 1_555 1_555
N2 C8 1_555 1_555
N3 C17 1_555 1_555
N4 C18 1_555 1_555
C1 C2 1_555 1_555
C2 C3 1_555 1_555
C3 C4 1_555 1_555
C4 C5 1_555 1_555
C5 C6 1_555 1_555
C6 C7 1_555 1_555
C7 C8 1_555 1_555
C8 C9 1_555 1_555
C9 S1 1_555 1_555
C10 N1 1_555 1_555
C11 C12 1_555 1_555
C12 C13 1_555 1_555
C13 C14 1_555 1_555
C14 C15 1_555 1_555
C15 C16 1_555 1_555
C16 S2 1_555 1_555
C17 C16 1_555 1_555
C18 C17 1_555 1_555
C19 S2 1_555 1_555
C20 N3 1_555 1_555
H1 N1 1_555 1_555
H2 C2 1_555 1_555
H3 C2 1_555 1_555
H4 N2 1_555 1_555
H5 O1 1_555 1_555
H6 C3 1_555 1_555
H7 C3 1_555 1_555
H8 N3 1_555 1_555
H9 C4 1_555 1_555
H10 C4 1_555 1_555
H11 N4 1_555 1_555
H12 O4 1_555 1_555
H13 C5 1_555 1_555
H14 C5 1_555 1_555
H15 C6 1_555 1_555
H16 C7 1_555 1_555
H17 C8 1_555 1_555
H18 C9 1_555 1_555
H19 C9 1_555 1_555
H20 C12 1_555 1_555
H21 C12 1_555 1_555
H22 C13 1_555 1_555
H23 C13 1_555 1_555
H24 C14 1_555 1_555
H25 C14 1_555 1_555
H26 C15 1_555 1_555
H27 C15 1_555 1_555
H28 C16 1_555 1_555
H29 C17 1_555 1_555
H30 C18 1_555 1_555
H31 C19 1_555 1_555
H32 C19 1_555 1_555
Sb1 F1 1_555 1_555
F2 Sb1 1_555 1_555
F3 Sb1 1_555 1_555
F4 Sb1 1_555 1_555
F5 Sb1 1_555 1_555
F6 Sb1 1_555 1_555
Ag1_2 O2 1_555 1_555
O2_2 Ag1 1_555 1_555
N2 C10 1_555 1_555
N4 C20 1_555 1_555
C18 C19 1_555 1_555

#END
