
#######################################################################
#
#                 Cambridge Crystallographic Data Centre
#                                CCDC 
#
#######################################################################
#
# If this CIF has been generated from an entry in the Cambridge 
# Structural Database, then it will include bibliographic, chemical, 
# crystal, experimental, refinement or atomic coordinate data resulting 
# from the CCDC's data processing and validation procedures.
#
#######################################################################

data_LERMAW
_symmetry_cell_setting           monoclinic
_symmetry_space_group_name_H-M   'P 21/n'
_symmetry_Int_Tables_number      14
_space_group_name_Hall           '-P 2yn'
loop_
_symmetry_equiv_pos_site_id
_symmetry_equiv_pos_as_xyz
1 x,y,z
2 1/2+x,1/2-y,1/2+z
3 -x,-y,-z
4 1/2-x,1/2+y,1/2-z
_cell_length_a                   15.894(5)
_cell_length_b                   8.523(2)
_cell_length_c                   16.078(1)
_cell_angle_alpha                90
_cell_angle_beta                 110.779(2)
_cell_angle_gamma                90
_cell_volume                     2036.33
loop_
_atom_site_label
_atom_site_type_symbol
_atom_site_fract_x
_atom_site_fract_y
_atom_site_fract_z
Ag1 Ag -0.25083(3) -0.17118(5) 0.62168(3)
S1 S -0.35962(9) -0.3948(2) 0.54690(9)
S2 S -0.4685(1) -0.2240(2) 0.64464(9)
S3 S -0.72801(9) -0.0959(2) 0.31578(8)
S4 S -0.59120(9) -0.2312(2) 0.22973(8)
F1 F -0.1807(4) -0.0958(8) 0.2453(3)
F2 F -0.2955(5) -0.122(1) 0.2846(4)
F3 F -0.1922(7) -0.2884(7) 0.3229(5)
F4 F -0.0752(3) -0.072(1) 0.4136(4)
F5 F -0.1811(7) 0.0975(6) 0.3723(5)
O1 O -0.2594(5) -0.0429(10) 0.4764(5)
O2 O -0.1523(5) -0.1998(9) 0.5188(4)
N1 N -0.4849(3) -0.3024(5) 0.3959(3)
C1 C -0.4614(3) -0.2981(6) 0.4833(3)
C2 C -0.5116(3) -0.2269(6) 0.5278(3)
C3 C -0.5946(3) -0.1623(6) 0.4753(3)
C4 C -0.6222(3) -0.1694(5) 0.3842(3)
C5 C -0.5645(3) -0.2380(6) 0.3463(3)
C6 C -0.3208(4) -0.4649(8) 0.4609(5)
C7 C -0.5531(5) -0.1207(8) 0.6734(4)
C8 C -0.8019(4) -0.2159(8) 0.3532(4)
C9 C -0.5036(4) -0.349(1) 0.2162(4)
C10 C -0.2079(7) -0.141(1) 0.3092(6)
C11 C -0.1656(5) -0.0538(10) 0.3921(5)
C12 C -0.1955(5) -0.1016(10) 0.4707(5)
H1 H -0.6321 -0.1126 0.5034
H2 H -0.3131 -0.3769 0.4260
H3 H -0.2653 -0.5174 0.4854
H4 H -0.3644 -0.5334 0.4214
H5 H -0.6115 -0.1780 0.6517
H6 H -0.5386 -0.1109 0.7365
H7 H -0.5660 -0.0186 0.6477
H8 H -0.7914 -0.3274 0.3422
H9 H -0.7878 -0.2055 0.4150
H10 H -0.8622 -0.1940 0.3215
H11 H -0.4424 -0.2985 0.2511
H12 H -0.4994 -0.4501 0.2404
H13 H -0.5046 -0.3526 0.1572
Ag1A Ag -0.75083(3) -0.32882(5) 0.12168(3)
S3B S -0.27199(9) 0.0959(2) 0.68422(8)
S4A S -0.09120(9) -0.2688(2) 0.72973(8)
Ag1B Ag -0.74917(3) 0.17118(5) 0.37832(3)
loop_
_geom_bond_atom_site_label_1
_geom_bond_atom_site_label_2
_geom_bond_site_symmetry_1
_geom_bond_site_symmetry_2
Ag1 S1 1_555 1_555
S1 C1 1_555 1_555
S2 C2 1_555 1_555
S3 C4 1_555 1_555
S4 C5 1_555 1_555
F1 C10 1_555 1_555
F2 C10 1_555 1_555
F3 C10 1_555 1_555
F4 C11 1_555 1_555
F5 C11 1_555 1_555
O1 Ag1 1_555 1_555
O2 C12 1_555 1_555
N1 C1 1_555 1_555
C1 C2 1_555 1_555
C2 C3 1_555 1_555
C3 C4 1_555 1_555
C4 C5 1_555 1_555
C5 N1 1_555 1_555
C6 S1 1_555 1_555
C7 S2 1_555 1_555
C8 S3 1_555 1_555
C9 S4 1_555 1_555
C10 C11 1_555 1_555
C11 C12 1_555 1_555
C12 O1 1_555 1_555
H1 C3 1_555 1_555
H2 C6 1_555 1_555
H3 C6 1_555 1_555
H4 C6 1_555 1_555
H5 C7 1_555 1_555
H6 C7 1_555 1_555
H7 C7 1_555 1_555
H8 C8 1_555 1_555
H9 C8 1_555 1_555
H10 C8 1_555 1_555
H11 C9 1_555 1_555
H12 C9 1_555 1_555
H13 C9 1_555 1_555
Ag1A S4 1_555 1_555
S3B Ag1 1_555 1_555
S4A Ag1 1_555 1_555
Ag1B S3 1_555 1_555

#END
