
#######################################################################
#
#                 Cambridge Crystallographic Data Centre
#                                CCDC 
#
#######################################################################
#
# If this CIF has been generated from an entry in the Cambridge 
# Structural Database, then it will include bibliographic, chemical, 
# crystal, experimental, refinement or atomic coordinate data resulting 
# from the CCDC's data processing and validation procedures.
#
#######################################################################

data_LERNEB01
_symmetry_cell_setting           monoclinic
_symmetry_space_group_name_H-M   'P 21/n'
_symmetry_Int_Tables_number      14
_space_group_name_Hall           '-P 2yn'
loop_
_symmetry_equiv_pos_site_id
_symmetry_equiv_pos_as_xyz
1 x,y,z
2 1/2-x,1/2+y,1/2-z
3 -x,-y,-z
4 1/2+x,1/2-y,1/2+z
_cell_length_a                   14.147(3)
_cell_length_b                   5.8897(11)
_cell_length_c                   16.221(3)
_cell_angle_alpha                90
_cell_angle_beta                 103.271(12)
_cell_angle_gamma                90
_cell_volume                     1315.47
loop_
_atom_site_label
_atom_site_type_symbol
_atom_site_fract_x
_atom_site_fract_y
_atom_site_fract_z
Mo1 Mo 0.872034(13) 0.22461(3) 0.015275(12)
O1 O 0.85180(11) 0.4868(3) 0.05976(10)
O2 O 0.96578(13) 0.2517(3) -0.03918(12)
O3 O 0.76572(13) 0.1475(3) -0.05488(12)
O4 O 0.90085(12) 0.0179(3) 0.09646(11)
Cu1 Cu 0.966540(19) 0.73343(4) 0.127915(17)
N1 N 1.04754(13) 0.4678(3) 0.18639(11)
N2 N 0.91774(14) 0.7289(3) 0.23466(12)
C1 C 1.11103(17) 0.3369(4) 0.16005(15)
H1 H 1.1270 0.3714 0.1090
C2 C 1.15479(18) 0.1492(5) 0.20608(16)
H2 H 1.1987 0.0607 0.1854
C3 C 1.13302(17) 0.0961(4) 0.28126(16)
H3 H 1.1627 -0.0270 0.3128
C4 C 1.06507(17) 0.2296(4) 0.31086(15)
C5 C 1.03508(19) 0.1863(5) 0.38774(16)
H4 H 1.0621 0.0651 0.4218
C6 C 0.96786(18) 0.3193(5) 0.41179(15)
H5 H 0.9488 0.2858 0.4616
C7 C 0.92589(16) 0.5093(4) 0.36226(14)
C8 C 0.85638(17) 0.6570(5) 0.38307(15)
H6 H 0.8351 0.6345 0.4326
C9 C 0.82049(18) 0.8324(5) 0.33056(16)
H7 H 0.7745 0.9299 0.3439
C10 C 0.85332(17) 0.8649(4) 0.25634(15)
H8 H 0.8290 0.9862 0.2212
C11 C 1.02469(15) 0.4130(4) 0.26085(13)
C12 C 0.95405(15) 0.5546(4) 0.28655(13)
O2B O 1.03422(13) 0.7483(3) 0.03918(12)
O4_2 O 0.90085(12) 1.0179(3) 0.09646(11)
Cu1B Cu 1.033460(19) 0.26657(4) -0.127915(17)
Cu1_2 Cu 0.966540(19) -0.26657(4) 0.127915(17)
O5 O 0.68606(16) -0.2763(3) -0.04179(16)
H9 H 0.7081 -0.1361 -0.0491
H10 H 0.7330 -0.3562 -0.0073
loop_
_geom_bond_atom_site_label_1
_geom_bond_atom_site_label_2
_geom_bond_site_symmetry_1
_geom_bond_site_symmetry_2
Mo1 O1 1_555 1_555
O1 Cu1 1_555 1_555
O2 Mo1 1_555 1_555
O3 Mo1 1_555 1_555
O4 Mo1 1_555 1_555
Cu1 N1 1_555 1_555
N1 C1 1_555 1_555
N2 Cu1 1_555 1_555
C1 H1 1_555 1_555
C2 C1 1_555 1_555
H2 C2 1_555 1_555
C3 C2 1_555 1_555
H3 C3 1_555 1_555
C4 C3 1_555 1_555
C5 C4 1_555 1_555
H4 C5 1_555 1_555
C6 C5 1_555 1_555
H5 C6 1_555 1_555
C7 C6 1_555 1_555
C8 C7 1_555 1_555
H6 C8 1_555 1_555
C9 C8 1_555 1_555
H7 C9 1_555 1_555
C10 N2 1_555 1_555
H8 C10 1_555 1_555
C11 N1 1_555 1_555
C12 N2 1_555 1_555
O5 H9 1_555 1_555
H10 O5 1_555 1_555
O2B Cu1 1_555 1_555
O4_2 Cu1 1_555 1_555
Cu1B O2 1_555 1_555
Cu1_2 O4 1_555 1_555
C4 C11 1_555 1_555
C7 C12 1_555 1_555
C9 C10 1_555 1_555
C11 C12 1_555 1_555

#END
