
#######################################################################
#
#                 Cambridge Crystallographic Data Centre
#                                CCDC 
#
#######################################################################
#
# If this CIF has been generated from an entry in the Cambridge 
# Structural Database, then it will include bibliographic, chemical, 
# crystal, experimental, refinement or atomic coordinate data resulting 
# from the CCDC's data processing and validation procedures.
#
#######################################################################

data_LERNEB
_symmetry_cell_setting           monoclinic
_symmetry_space_group_name_H-M   'P 21/n'
_symmetry_Int_Tables_number      14
_space_group_name_Hall           '-P 2yn'
loop_
_symmetry_equiv_pos_site_id
_symmetry_equiv_pos_as_xyz
1 x,y,z
2 1/2-x,1/2+y,1/2-z
3 -x,-y,-z
4 1/2+x,1/2-y,1/2+z
_cell_length_a                   14.0500(10)
_cell_length_b                   5.8818(4)
_cell_length_c                   16.2268(11)
_cell_angle_alpha                90
_cell_angle_beta                 103.5860(10)
_cell_angle_gamma                90
_cell_volume                     1303.45
loop_
_atom_site_label
_atom_site_type_symbol
_atom_site_fract_x
_atom_site_fract_y
_atom_site_fract_z
Mo1 Mo 0.62881(5) 0.22710(10) 0.48540(4)
Cu1 Cu 0.46530(7) 0.26629(15) 0.62825(6)
O1 O 0.7357(4) 0.1485(10) 0.5571(4)
O2 O 0.5325(4) 0.2534(8) 0.5374(4)
O3 O 0.6005(4) 0.0197(9) 0.4030(4)
O4 O 0.6506(4) 0.4917(9) 0.4420(3)
N1 N 0.4168(5) 0.2705(10) 0.7353(4)
N2 N 0.5471(4) 0.5329(11) 0.6870(4)
C1 C 0.6108(6) 0.6644(13) 0.6600(5)
H1 H 0.6267 0.6282 0.6091
C2 C 0.6550(6) 0.8555(14) 0.7052(5)
H2 H 0.6986 0.9446 0.6843
C3 C 0.6322(6) 0.9094(14) 0.7822(5)
H3 H 0.6612 1.0337 0.8137
C4 C 0.5651(6) 0.7730(13) 0.8109(5)
C5 C 0.5230(5) 0.5866(13) 0.7612(5)
C6 C 0.5350(6) 0.8156(16) 0.8890(5)
H4 H 0.5624 0.9366 0.9234
C7 C 0.4673(6) 0.6815(14) 0.9127(5)
H5 H 0.4480 0.7154 0.9624
C8 C 0.4251(6) 0.4907(13) 0.8636(5)
C9 C 0.4535(5) 0.4474(13) 0.7872(5)
C10 C 0.3558(6) 0.3408(14) 0.8849(5)
H6 H 0.3346 0.3622 0.9346
C11 C 0.3203(7) 0.1638(15) 0.8317(6)
H7 H 0.2745 0.0650 0.8451
C12 C 0.3523(6) 0.1308(14) 0.7573(5)
H8 H 0.3280 0.0085 0.7223
O3B O 0.3995(4) -0.0197(9) 0.5970(4)
Cu1B Cu 0.53470(7) -0.26629(15) 0.37175(6)
Cu1B_2 Cu 0.53470(7) 0.73371(15) 0.37175(6)
O4B O 0.3494(4) 0.5083(9) 0.5580(3)
O5 O 0.8150(5) -0.2731(10) 0.5441(4)
loop_
_geom_bond_atom_site_label_1
_geom_bond_atom_site_label_2
_geom_bond_site_symmetry_1
_geom_bond_site_symmetry_2
Mo1 O1 1_555 1_555
Cu1 O2 1_555 1_555
O2 Mo1 1_555 1_555
O3 Mo1 1_555 1_555
O4 Mo1 1_555 1_555
N1 Cu1 1_555 1_555
N2 Cu1 1_555 1_555
C1 N2 1_555 1_555
H1 C1 1_555 1_555
C2 C1 1_555 1_555
H2 C2 1_555 1_555
C3 C2 1_555 1_555
H3 C3 1_555 1_555
C4 C3 1_555 1_555
C5 N2 1_555 1_555
C6 C4 1_555 1_555
H4 C6 1_555 1_555
C7 C6 1_555 1_555
H5 C7 1_555 1_555
C8 C7 1_555 1_555
C9 N1 1_555 1_555
C10 C8 1_555 1_555
H6 C10 1_555 1_555
C11 C10 1_555 1_555
H7 C11 1_555 1_555
C12 N1 1_555 1_555
H8 C12 1_555 1_555
O3B Cu1 1_555 1_555
Cu1B O3 1_555 1_555
Cu1B_2 O4 1_555 1_555
O4B Cu1 1_555 1_555
C4 C5 1_555 1_555
C5 C9 1_555 1_555
C8 C9 1_555 1_555
C11 C12 1_555 1_555

#END
