
#######################################################################
#
#                 Cambridge Crystallographic Data Centre
#                                CCDC 
#
#######################################################################
#
# If this CIF has been generated from an entry in the Cambridge 
# Structural Database, then it will include bibliographic, chemical, 
# crystal, experimental, refinement or atomic coordinate data resulting 
# from the CCDC's data processing and validation procedures.
#
#######################################################################

data_LERNEB02
_symmetry_cell_setting           monoclinic
_symmetry_space_group_name_H-M   'P 21/n'
_symmetry_Int_Tables_number      14
_space_group_name_Hall           '-P 2yn'
loop_
_symmetry_equiv_pos_site_id
_symmetry_equiv_pos_as_xyz
1 x,y,z
2 1/2-x,1/2+y,1/2-z
3 -x,-y,-z
4 1/2+x,1/2-y,1/2+z
_cell_length_a                   14.1533(7)
_cell_length_b                   5.8810(3)
_cell_length_c                   16.2510(8)
_cell_angle_alpha                90
_cell_angle_beta                 103.244(4)
_cell_angle_gamma                90
_cell_volume                     1316.68
loop_
_atom_site_label
_atom_site_type_symbol
_atom_site_fract_x
_atom_site_fract_y
_atom_site_fract_z
Cu1 Cu 0.53328(2) -0.26574(5) 0.87181(2)
O1 O 0.59882(15) 0.0192(3) 0.90336(13)
O2 O 0.64812(14) 0.4880(3) 0.94028(12)
O3 O 0.53431(16) 0.2507(3) 1.03947(14)
N1 N 0.45215(16) -0.5308(4) 0.81323(14)
C1 C 0.47511(19) -0.5861(5) 0.73939(16)
C2 C 0.54536(18) -0.4447(5) 0.71331(16)
N2 N 0.58210(17) -0.2704(4) 0.76534(14)
C3 C 0.6464(2) -0.1346(5) 0.74344(18)
H1 H 0.6711 -0.0134 0.7786
C4 C 0.6786(2) -0.1667(6) 0.66912(19)
H2 H 0.7242 -0.0681 0.6556
C5 C 0.6434(2) -0.3418(6) 0.61678(18)
H3 H 0.6649 -0.3643 0.5674
C6 C 0.5736(2) -0.4905(5) 0.63774(17)
C7 C 0.5321(2) -0.6804(6) 0.58818(18)
H4 H 0.5513 -0.7143 0.5385
C8 C 0.4648(2) -0.8125(6) 0.61245(19)
H5 H 0.4377 -0.9336 0.5784
C9 C 0.4346(2) -0.7701(5) 0.68914(18)
C10 C 0.3671(2) -0.9035(5) 0.71893(18)
H6 H 0.3378 -1.0273 0.6876
C11 C 0.3450(2) -0.8506(6) 0.79371(19)
H7 H 0.3010 -0.9390 0.8142
C12 C 0.3889(2) -0.6625(5) 0.83955(18)
H8 H 0.3731 -0.6283 0.8906
Mo1 Mo 0.627997(17) 0.22547(4) 0.984844(14)
O4 O 0.73436(16) 0.1479(4) 1.05465(14)
Cu1_2 Cu 0.53328(2) 0.73426(5) 0.87181(2)
Cu1B Cu 0.46672(2) 0.26574(5) 1.12819(2)
O2_2 O 0.64812(14) -0.5120(3) 0.94028(12)
O3B O 0.46569(16) -0.2507(3) 0.96053(14)
O5 O 0.68555(19) 0.2253(4) 0.45777(19)
H9 H 0.728(2) 0.150(6) 0.497(2)
H10 H 0.715(2) 0.351(4) 0.448(2)
loop_
_geom_bond_atom_site_label_1
_geom_bond_atom_site_label_2
_geom_bond_site_symmetry_1
_geom_bond_site_symmetry_2
Cu1 O1 1_555 1_555
O1 Mo1 1_555 1_555
O2 Mo1 1_555 1_555
O3 Mo1 1_555 1_555
N1 Cu1 1_555 1_555
C1 N1 1_555 1_555
C2 C1 1_555 1_555
N2 Cu1 1_555 1_555
C3 N2 1_555 1_555
H1 C3 1_555 1_555
C4 C3 1_555 1_555
H2 C4 1_555 1_555
C5 C4 1_555 1_555
H3 C5 1_555 1_555
C6 C2 1_555 1_555
C7 C6 1_555 1_555
H4 C7 1_555 1_555
C8 C7 1_555 1_555
H5 C8 1_555 1_555
C9 C1 1_555 1_555
C10 C9 1_555 1_555
H6 C10 1_555 1_555
C11 C10 1_555 1_555
H7 C11 1_555 1_555
C12 N1 1_555 1_555
H8 C12 1_555 1_555
Mo1 O4 1_555 1_555
O5 H9 1_555 1_555
H10 O5 1_555 1_555
Cu1_2 O2 1_555 1_555
Cu1B O3 1_555 1_555
O2_2 Cu1 1_555 1_555
O3B Cu1 1_555 1_555
C2 N2 1_555 1_555
C5 C6 1_555 1_555
C8 C9 1_555 1_555
C11 C12 1_555 1_555

#END
