
#######################################################################
#
#                 Cambridge Crystallographic Data Centre
#                                CCDC 
#
#######################################################################
#
# If this CIF has been generated from an entry in the Cambridge 
# Structural Database, then it will include bibliographic, chemical, 
# crystal, experimental, refinement or atomic coordinate data resulting 
# from the CCDC's data processing and validation procedures.
#
#######################################################################

data_LERNED
_symmetry_cell_setting           triclinic
_symmetry_space_group_name_H-M   'P -1'
_symmetry_Int_Tables_number      2
_space_group_name_Hall           '-P 1'
loop_
_symmetry_equiv_pos_site_id
_symmetry_equiv_pos_as_xyz
1 x,y,z
2 -x,-y,-z
_cell_length_a                   10.7650(10)
_cell_length_b                   11.883(2)
_cell_length_c                   14.5740(10)
_cell_angle_alpha                110.275(3)
_cell_angle_beta                 95.0280(10)
_cell_angle_gamma                94.9700(10)
_cell_volume                     1728.36
loop_
_atom_site_label
_atom_site_type_symbol
_atom_site_fract_x
_atom_site_fract_y
_atom_site_fract_z
C1 C 0.22064(17) 0.38214(17) 0.09394(13)
C2 C 0.21923(16) 0.32151(16) 0.16976(12)
C3 C 0.30439(18) 0.23977(18) 0.16908(14)
H1 H 0.3594 0.2230 0.1217
C4 C 0.3092(2) 0.1829(2) 0.23714(17)
H2 H 0.3654 0.1271 0.2347
C5 C 0.2290(2) 0.2101(2) 0.30932(16)
H3 H 0.2319 0.1736 0.3564
C6 C 0.14559(16) 0.29131(17) 0.31048(13)
C7 C 0.13674(15) 0.34762(15) 0.24158(12)
C8 C 0.04632(16) 0.44143(16) 0.25351(12)
C9 C -0.03649(17) 0.26350(17) 0.38774(12)
C10 C -0.10301(19) 0.31301(19) 0.46616(14)
H4 H -0.0692 0.3839 0.5175
C11 C -0.2197(2) 0.25630(19) 0.46742(15)
H5 H -0.2649 0.2898 0.5198
C12 C -0.27071(17) 0.14997(17) 0.39170(14)
C13 C -0.19944(18) 0.09888(18) 0.31669(14)
H6 H -0.2310 0.0255 0.2673
C14 C -0.08209(18) 0.15488(18) 0.31369(13)
H7 H -0.0352 0.1200 0.2629
C15 C -0.40006(18) 0.09199(19) 0.38805(16)
C16 C -0.27139(18) 0.5215(2) 0.39115(14)
H8 H -0.1840 0.5327 0.4007
C17 C -0.33425(18) 0.5189(2) 0.46953(13)
H9 H -0.2889 0.5278 0.5294
C18 C -0.46457(16) 0.50325(16) 0.45902(12)
C19 C -0.52447(18) 0.4919(2) 0.36711(14)
H10 H -0.6118 0.4822 0.3558
C20 C -0.45483(18) 0.4948(2) 0.29281(14)
H11 H -0.4977 0.4866 0.2322
C21 C -0.33741(19) 0.22192(17) 0.15354(14)
H12 H -0.2945 0.2486 0.2170
C22 C -0.40125(18) 0.10654(17) 0.11631(14)
H13 H -0.4018 0.0585 0.1549
C23 C -0.46453(16) 0.06216(15) 0.02145(13)
C24 C -0.4605(2) 0.14042(18) -0.03056(14)
H14 H -0.5011 0.1153 -0.0947
C25 C -0.3962(2) 0.25575(18) 0.01303(14)
H15 H -0.3966 0.3069 -0.0229
N1 N -0.33367(14) 0.29750(13) 0.10383(11)
N2 N -0.32931(14) 0.50875(13) 0.30290(10)
O1 O 0.31950(14) 0.38603(18) 0.05648(12)
O2 O 0.12403(13) 0.42516(15) 0.07502(11)
O3 O 0.09298(13) 0.54964(12) 0.29372(11)
O4 O -0.06826(11) 0.40345(11) 0.22663(9)
O5 O 0.07611(12) 0.33003(12) 0.39048(9)
O6 O -0.45077(14) 0.00500(14) 0.31796(12)
O7 O -0.45369(14) 0.14505(15) 0.46598(12)
H16 H -0.5359 0.1073 0.4620
O8 O -0.09546(13) 0.65753(11) 0.24523(10)
H17 H -0.0773 0.6960 0.2039
H18 H -0.0193 0.6391 0.2712
O9 O -0.13290(12) 0.43834(12) 0.03593(9)
H19 H -0.0496 0.4192 0.0454
H20 H -0.1268 0.4886 0.0025
O10 O -0.34951(13) 0.57337(13) 0.10870(10)
H21 H -0.3992 0.6371 0.1457
H22 H -0.3349 0.5845 0.0581
Mn1 Mn -0.21832(2) 0.48542(2) 0.172224(18)
C1A C -1.22064(17) -0.38214(17) -0.09394(13)
C2A C -1.21923(16) -0.32151(16) -0.16976(12)
C3A C -1.30439(18) -0.23977(18) -0.16908(14)
H1A H -1.3594 -0.2230 -0.1217
C4A C -1.3092(2) -0.1829(2) -0.23714(17)
H2A H -1.3654 -0.1271 -0.2347
C5A C -1.2290(2) -0.2101(2) -0.30932(16)
H3A H -1.2319 -0.1736 -0.3564
C6A C -1.14559(16) -0.29131(17) -0.31048(13)
C7A C -1.13674(15) -0.34762(15) -0.24158(12)
C8A C -1.04632(16) -0.44143(16) -0.25351(12)
C9A C -0.96351(17) -0.26350(17) -0.38774(12)
C10A C -0.89699(19) -0.31301(19) -0.46616(14)
H4A H -0.9308 -0.3839 -0.5175
C11A C -0.7803(2) -0.25630(19) -0.46742(15)
H5A H -0.7351 -0.2898 -0.5198
C12A C -0.72929(17) -0.14997(17) -0.39170(14)
C13A C -0.80056(18) -0.09888(18) -0.31669(14)
H6A H -0.7690 -0.0255 -0.2673
C14A C -0.91791(18) -0.15488(18) -0.31369(13)
H7A H -0.9648 -0.1200 -0.2629
C15A C -0.59994(18) -0.09199(19) -0.38805(16)
C16A C -0.72861(18) 0.4785(2) 0.60885(14)
H8A H -0.8160 0.4673 0.5993
C17A C -0.66575(18) 0.4811(2) 0.53047(13)
H9A H -0.7111 0.4722 0.4706
C18A C -0.53543(16) 0.49675(16) 0.54098(12)
C19A C -0.47553(18) 0.5081(2) 0.63289(14)
H10A H -0.3882 0.5178 0.6442
C20A C -0.54517(18) 0.5052(2) 0.70719(14)
H11A H -0.5023 0.5134 0.7678
C21A C -0.66259(19) -0.22192(17) -0.15354(14)
H12A H -0.7055 -0.2486 -0.2170
C22A C -0.59875(18) -0.10654(17) -0.11631(14)
H13A H -0.5982 -0.0585 -0.1549
C23A C -0.53547(16) -0.06216(15) -0.02145(13)
C24A C -0.5395(2) -0.14042(18) 0.03056(14)
H14A H -0.4989 -0.1153 0.0947
C25A C -0.6038(2) -0.25575(18) -0.01303(14)
H15A H -0.6034 -0.3069 0.0229
N1A N -0.66633(14) -0.29750(13) -0.10383(11)
N2A N -0.67069(14) 0.49125(13) 0.69710(10)
N2A_2 N -0.67069(14) -0.50875(13) -0.30290(10)
O1A O -1.31950(14) -0.38603(18) -0.05648(12)
O2A O -1.12403(13) -0.42516(15) -0.07502(11)
O3A O -1.09298(13) -0.54964(12) -0.29372(11)
O4A O -0.93174(11) -0.40345(11) -0.22663(9)
O5A O -1.07611(12) -0.33003(12) -0.39048(9)
O6A O -0.54923(14) -0.00500(14) -0.31796(12)
O7A O -0.54631(14) -0.14505(15) -0.46598(12)
H16A H -0.4641 -0.1073 -0.4620
O8A O -0.90454(13) -0.65753(11) -0.24523(10)
H17A H -0.9227 -0.6960 -0.2039
H18A H -0.9807 -0.6391 -0.2712
O9A O -0.86710(12) -0.43834(12) -0.03593(9)
H19A H -0.9504 -0.4192 -0.0454
H20A H -0.8732 -0.4886 -0.0025
O10A O -0.65049(13) -0.57337(13) -0.10870(10)
H21A H -0.6008 -0.6371 -0.1457
H22A H -0.6651 -0.5845 -0.0581
Mn1A Mn -0.78168(2) -0.48542(2) -0.172224(18)
Mn1A_2 Mn -0.78168(2) 0.51458(2) 0.827776(18)
C26 C -0.1322(3) -0.1451(2) 0.10978(18)
H23 H -0.2113 -0.1668 0.1239
C27 C -0.1236(2) -0.0724(2) 0.05370(17)
H24 H -0.1954 -0.0462 0.0316
C28 C -0.0072(2) -0.03880(19) 0.03055(15)
C29 C 0.0937(3) -0.0820(3) 0.0666(2)
H25 H 0.1740 -0.0628 0.0531
C30 C 0.0760(3) -0.1537(3) 0.1224(2)
H26 H 0.1459 -0.1811 0.1459
N3 N -0.0353(3) -0.18546(18) 0.14443(15)
C26A C 0.1322(3) 0.1451(2) -0.10978(18)
H23A H 0.2113 0.1668 -0.1239
C27A C 0.1236(2) 0.0724(2) -0.05370(17)
H24A H 0.1954 0.0462 -0.0316
C28A C 0.0072(2) 0.03880(19) -0.03055(15)
C29A C -0.0937(3) 0.0820(3) -0.0666(2)
H25A H -0.1740 0.0628 -0.0531
C30A C -0.0760(3) 0.1537(3) -0.1224(2)
H26A H -0.1459 0.1811 -0.1459
N3A N 0.0353(3) 0.18546(18) -0.14443(15)
C31 C 0.2674(2) 0.1347(2) 0.54507(17)
H27 H 0.3170 0.2031 0.5897
C32 C 0.1434(2) 0.1140(2) 0.55870(16)
H28 H 0.1111 0.1678 0.6114
C33 C 0.06698(17) 0.01304(17) 0.49382(13)
C34 C 0.1222(2) -0.0622(2) 0.41663(16)
H29 H 0.0751 -0.1310 0.3704
C35 C 0.2468(2) -0.0349(2) 0.40867(17)
H30 H 0.2820 -0.0869 0.3567
N4 N 0.31901(15) 0.06186(16) 0.47140(13)
C31A C -0.2674(2) -0.1347(2) 0.45493(17)
H27A H -0.3170 -0.2031 0.4103
C32A C -0.1434(2) -0.1140(2) 0.44130(16)
H28A H -0.1111 -0.1678 0.3886
C33A C -0.06698(17) -0.01304(17) 0.50618(13)
C34A C -0.1222(2) 0.0622(2) 0.58337(16)
H29A H -0.0751 0.1310 0.6296
C35A C -0.2468(2) 0.0349(2) 0.59133(17)
H30A H -0.2820 0.0869 0.6433
N4A N -0.31901(15) -0.06186(16) 0.52860(13)
O11 O 0.47994(18) 0.25126(16) 0.77447(14)
H31 H 0.5591 0.2710 0.7688
H32 H 0.4599 0.1757 0.7487
O12 O 0.7365(2) 0.32408(19) 0.78175(19)
H33 H 0.7474 0.3571 0.7392
H34 H 0.7518 0.3767 0.8394
loop_
_geom_bond_atom_site_label_1
_geom_bond_atom_site_label_2
_geom_bond_site_symmetry_1
_geom_bond_site_symmetry_2
C1 C2 1_555 1_555
C2 C3 1_555 1_555
C3 H1 1_555 1_555
C4 C3 1_555 1_555
H2 C4 1_555 1_555
C5 C4 1_555 1_555
H3 C5 1_555 1_555
C6 C5 1_555 1_555
C7 C2 1_555 1_555
C8 C7 1_555 1_555
C9 C10 1_555 1_555
C10 H4 1_555 1_555
C11 C10 1_555 1_555
H5 C11 1_555 1_555
C12 C11 1_555 1_555
C13 C12 1_555 1_555
H6 C13 1_555 1_555
C14 C9 1_555 1_555
H7 C14 1_555 1_555
C15 C12 1_555 1_555
C16 H8 1_555 1_555
C17 C16 1_555 1_555
H9 C17 1_555 1_555
C18 C17 1_555 1_555
C19 C18 1_555 1_555
H10 C19 1_555 1_555
C20 C19 1_555 1_555
H11 C20 1_555 1_555
C21 H12 1_555 1_555
C22 C21 1_555 1_555
H13 C22 1_555 1_555
C23 C22 1_555 1_555
C24 C23 1_555 1_555
H14 C24 1_555 1_555
C25 C24 1_555 1_555
H15 C25 1_555 1_555
N1 C21 1_555 1_555
N2 C16 1_555 1_555
O1 C1 1_555 1_555
O2 C1 1_555 1_555
O3 C8 1_555 1_555
O4 C8 1_555 1_555
O5 C6 1_555 1_555
O6 C15 1_555 1_555
O7 C15 1_555 1_555
H16 O7 1_555 1_555
O8 H17 1_555 1_555
H18 O8 1_555 1_555
O9 H19 1_555 1_555
H20 O9 1_555 1_555
O10 H21 1_555 1_555
H22 O10 1_555 1_555
Mn1 N1 1_555 1_555
C26 H23 1_555 1_555
C27 C26 1_555 1_555
H24 C27 1_555 1_555
C28 C27 1_555 1_555
C29 C28 1_555 1_555
H25 C29 1_555 1_555
C30 C29 1_555 1_555
H26 C30 1_555 1_555
N3 C26 1_555 1_555
C31 H27 1_555 1_555
C32 C31 1_555 1_555
H28 C32 1_555 1_555
C33 C32 1_555 1_555
C34 C33 1_555 1_555
H29 C34 1_555 1_555
C35 C34 1_555 1_555
H30 C35 1_555 1_555
N4 C31 1_555 1_555
O11 H31 1_555 1_555
H32 O11 1_555 1_555
O12 H33 1_555 1_555
H34 O12 1_555 1_555
C1A C2A 1_555 1_555
C2A C3A 1_555 1_555
C3A H1A 1_555 1_555
C4A C3A 1_555 1_555
H2A C4A 1_555 1_555
C5A C4A 1_555 1_555
H3A C5A 1_555 1_555
C6A C5A 1_555 1_555
C7A C2A 1_555 1_555
C8A C7A 1_555 1_555
C9A C10A 1_555 1_555
C10A H4A 1_555 1_555
C11A C10A 1_555 1_555
H5A C11A 1_555 1_555
C12A C11A 1_555 1_555
C13A C12A 1_555 1_555
H6A C13A 1_555 1_555
C14A C9A 1_555 1_555
H7A C14A 1_555 1_555
C15A C12A 1_555 1_555
C16A H8A 1_555 1_555
C17A C16A 1_555 1_555
H9A C17A 1_555 1_555
C18A C18 1_555 1_555
C19A C18A 1_555 1_555
H10A C19A 1_555 1_555
C20A C19A 1_555 1_555
H11A C20A 1_555 1_555
C21A H12A 1_555 1_555
C22A C21A 1_555 1_555
H13A C22A 1_555 1_555
C23A C23 1_555 1_555
C24A C23A 1_555 1_555
H14A C24A 1_555 1_555
C25A C24A 1_555 1_555
H15A C25A 1_555 1_555
N1A C21A 1_555 1_555
N2A C16A 1_555 1_555
N2A_2 Mn1A 1_555 1_555
O1A C1A 1_555 1_555
O2A C1A 1_555 1_555
O3A C8A 1_555 1_555
O4A C8A 1_555 1_555
O5A C6A 1_555 1_555
O6A C15A 1_555 1_555
O7A C15A 1_555 1_555
H16A O7A 1_555 1_555
O8A H17A 1_555 1_555
H18A O8A 1_555 1_555
O9A H19A 1_555 1_555
H20A O9A 1_555 1_555
O10A H21A 1_555 1_555
H22A O10A 1_555 1_555
Mn1A N1A 1_555 1_555
Mn1A_2 N2A 1_555 1_555
C26A H23A 1_555 1_555
C27A C26A 1_555 1_555
H24A C27A 1_555 1_555
C28A C28 1_555 1_555
C29A C28A 1_555 1_555
H25A C29A 1_555 1_555
C30A C29A 1_555 1_555
H26A C30A 1_555 1_555
N3A C26A 1_555 1_555
C31A H27A 1_555 1_555
C32A C31A 1_555 1_555
H28A C32A 1_555 1_555
C33A C33 1_555 1_555
C34A C33A 1_555 1_555
H29A C34A 1_555 1_555
C35A C34A 1_555 1_555
H30A C35A 1_555 1_555
N4A C31A 1_555 1_555
C6 C7 1_555 1_555
C9 O5 1_555 1_555
C13 C14 1_555 1_555
C20 N2 1_555 1_555
C25 N1 1_555 1_555
N2 Mn1 1_555 1_555
O4 Mn1 1_555 1_555
O8 Mn1 1_555 1_555
O9 Mn1 1_555 1_555
O10 Mn1 1_555 1_555
C30 N3 1_555 1_555
C35 N4 1_555 1_555
C6A C7A 1_555 1_555
C9A O5A 1_555 1_555
C13A C14A 1_555 1_555
C17A C18A 1_555 1_555
C20A N2A 1_555 1_555
C22A C23A 1_555 1_555
C25A N1A 1_555 1_555
O4A Mn1A 1_555 1_555
O8A Mn1A 1_555 1_555
O9A Mn1A 1_555 1_555
O10A Mn1A 1_555 1_555
C27A C28A 1_555 1_555
C30A N3A 1_555 1_555
C32A C33A 1_555 1_555
C35A N4A 1_555 1_555

#END
