
#######################################################################
#
#                 Cambridge Crystallographic Data Centre
#                                CCDC 
#
#######################################################################
#
# If this CIF has been generated from an entry in the Cambridge 
# Structural Database, then it will include bibliographic, chemical, 
# crystal, experimental, refinement or atomic coordinate data resulting 
# from the CCDC's data processing and validation procedures.
#
#######################################################################

data_LERNIF01
_symmetry_cell_setting           monoclinic
_symmetry_space_group_name_H-M   'P 21/m'
_symmetry_Int_Tables_number      11
_space_group_name_Hall           '-P 2yb'
loop_
_symmetry_equiv_pos_site_id
_symmetry_equiv_pos_as_xyz
1 x,y,z
2 -x,1/2+y,-z
3 -x,-y,-z
4 x,1/2-y,z
_cell_length_a                   8.8164(17)
_cell_length_b                   6.4396(14)
_cell_length_c                   10.659(6)
_cell_angle_alpha                90
_cell_angle_beta                 100.79(3)
_cell_angle_gamma                90
_cell_volume                     594.456
loop_
_atom_site_label
_atom_site_type_symbol
_atom_site_fract_x
_atom_site_fract_y
_atom_site_fract_z
Mo1 Mo 0.5002(1) 0.2500 0.3272(1)
Zn1 Zn 0.7018(1) 0.2500 0.6718(1)
O1 O 0.5922(6) 0.2500 0.4878(4)
O2 O 0.3843(4) 0.0247(5) 0.2932(3)
O3 O 0.6382(7) 0.2500 0.2339(5)
N1 N 0.9243(6) 0.2500 0.6250(5)
N2 N 0.8478(5) 0.2500 0.8581(5)
C1 C 0.9599(8) 0.2500 0.5094(6)
C2 C 1.1118(8) 0.2500 0.4900(7)
C3 C 1.2297(8) 0.2500 0.5929(7)
C4 C 1.1975(7) 0.2500 0.7169(7)
C5 C 1.0422(7) 0.2500 0.7292(6)
C6 C 1.3134(7) 0.2500 0.8308(7)
C7 C 1.2747(7) 0.2500 0.9477(7)
C8 C 1.0002(7) 0.2500 0.8536(6)
C9 C 1.1174(7) 0.2500 0.9626(6)
C10 C 1.0704(8) 0.2500 1.0810(6)
C11 C 0.9160(8) 0.2500 1.0872(6)
C12 C 0.8083(8) 0.2500 0.9720(6)
O2C O 0.3843(4) 0.4753(5) 0.2932(3)
O2A O 0.6157(4) 0.5247(5) 0.7068(3)
O2B O 0.6157(4) -0.0247(5) 0.7068(3)
Zn1A Zn 0.2982(1) -0.2500 0.3282(1)
Zn1B Zn 0.2982(1) 0.7500 0.3282(1)
loop_
_geom_bond_atom_site_label_1
_geom_bond_atom_site_label_2
_geom_bond_site_symmetry_1
_geom_bond_site_symmetry_2
Mo1 O1 1_555 1_555
Zn1 O1 1_555 1_555
O2 Mo1 1_555 1_555
O3 Mo1 1_555 1_555
N1 Zn1 1_555 1_555
N2 Zn1 1_555 1_555
C1 N1 1_555 1_555
C2 C1 1_555 1_555
C3 C2 1_555 1_555
C4 C3 1_555 1_555
C5 N1 1_555 1_555
C6 C4 1_555 1_555
C7 C6 1_555 1_555
C8 N2 1_555 1_555
C9 C7 1_555 1_555
C10 C9 1_555 1_555
C11 C10 1_555 1_555
C12 N2 1_555 1_555
O2C Mo1 1_555 1_555
O2A Zn1 1_555 1_555
O2B Zn1 1_555 1_555
Zn1A O2 1_555 1_555
Zn1B O2C 1_555 1_555
C4 C5 1_555 1_555
C5 C8 1_555 1_555
C8 C9 1_555 1_555
C11 C12 1_555 1_555

#END
