
#######################################################################
#
#                 Cambridge Crystallographic Data Centre
#                                CCDC 
#
#######################################################################
#
# If this CIF has been generated from an entry in the Cambridge 
# Structural Database, then it will include bibliographic, chemical, 
# crystal, experimental, refinement or atomic coordinate data resulting 
# from the CCDC's data processing and validation procedures.
#
#######################################################################

data_LERNIG
_symmetry_cell_setting           triclinic
_symmetry_space_group_name_H-M   'P -1'
_symmetry_Int_Tables_number      2
_space_group_name_Hall           '-P 1'
loop_
_symmetry_equiv_pos_site_id
_symmetry_equiv_pos_as_xyz
1 x,y,z
2 -x,-y,-z
_cell_length_a                   10.360(2)
_cell_length_b                   10.444(2)
_cell_length_c                   10.817(3)
_cell_angle_alpha                109.970(5)
_cell_angle_beta                 108.158(4)
_cell_angle_gamma                91.615(5)
_cell_volume                     1033.3
loop_
_atom_site_label
_atom_site_type_symbol
_atom_site_fract_x
_atom_site_fract_y
_atom_site_fract_z
O1 O 1.1544(3) 0.4723(3) 0.5172(3)
N1 N 1.2909(4) 0.2958(4) 0.3444(4)
In1 In 1.01275(4) 0.35752(3) 0.31073(3)
N2 N 1.1174(4) 0.4683(4) 0.6307(4)
C1 C 1.1605(5) 0.3740(5) 0.6752(5)
C2 C 1.2399(6) 0.2621(5) 0.6166(6)
H1 H 1.1863 0.2015 0.5191
H2 H 1.3292 0.3020 0.6198
C3 C 1.2594(6) 0.1843(6) 0.7173(7)
H3 H 1.2828 0.0894 0.6820
C4 C 1.1234(6) 0.1913(6) 0.7451(6)
H4 H 1.0430 0.1450 0.6591
H5 H 1.1220 0.1552 0.8183
C5 C 1.1365(5) 0.3503(5) 0.7968(5)
H6 H 1.0585 0.3911 0.8237
C6 C 1.2763(6) 0.3900(6) 0.9137(6)
H7 H 1.2673 0.3881 1.0016
H8 H 1.3198 0.4831 0.9314
C7 C 1.3595(6) 0.2802(7) 0.8577(6)
H9 H 1.3924 0.2301 0.9217
H10 H 1.4397 0.3221 0.8459
C8 C 1.0300(5) 0.3613(5) 0.1193(5)
H11 H 1.0936 0.4431 0.1398
H12 H 0.9394 0.3644 0.0567
H13 H 1.0648 0.2782 0.0741
C9 C 0.9052(6) 0.1954(5) 0.3377(6)
H14 H 0.9546 0.1159 0.3250
H15 H 0.8122 0.1682 0.2683
H16 H 0.8997 0.2283 0.4320
In2 In 1.36720(3) 0.58523(3) 0.55180(3)
O2 O 1.4075(3) 0.3798(3) 0.4534(3)
C10 C 1.3053(5) 0.1692(5) 0.2963(5)
C11 C 1.4227(5) 0.0955(5) 0.3468(5)
H17 H 1.5071 0.1274 0.3345
H18 H 1.4427 0.1089 0.4464
C12 C 1.3664(5) -0.0543(5) 0.2518(6)
H19 H 1.4169 -0.1233 0.2848
C13 C 1.3566(6) -0.0665(6) 0.1030(6)
H20 H 1.3380 -0.1642 0.0391
H21 H 1.4421 -0.0215 0.1034
C14 C 1.2360(6) 0.0084(7) 0.0609(6)
H22 H 1.1611 -0.0548 -0.0226
H23 H 1.2653 0.0872 0.0398
C15 C 1.2169(6) -0.0643(5) 0.2408(6)
H24 H 1.1618 -0.1536 0.1723
H25 H 1.2046 -0.0442 0.3323
C16 C 1.1895(6) 0.0574(6) 0.1853(6)
H26 H 1.0947 0.0823 0.1677
C17 C 1.4410(6) 0.6443(6) 0.7750(5)
H27 H 1.3691 0.6814 0.8119
H28 H 1.4651 0.5637 0.7989
H29 H 1.5224 0.7149 0.8161
C18 C 1.2796(5) 0.6635(6) 0.3904(6)
H30 H 1.3076 0.7635 0.4272
H31 H 1.3118 0.6201 0.3119
H32 H 1.1791 0.6428 0.3582
In1A In 0.98725(4) 0.64248(3) 0.68927(3)
N2A N 0.8826(4) 0.5317(4) 0.3693(4)
In2A In 1.63280(3) 0.41477(3) 0.44820(3)
O2A O 1.5925(3) 0.6202(3) 0.5466(3)
loop_
_geom_bond_atom_site_label_1
_geom_bond_atom_site_label_2
_geom_bond_site_symmetry_1
_geom_bond_site_symmetry_2
O1 In1 1_555 1_555
N1 In1 1_555 1_555
In1 C8 1_555 1_555
N2 O1 1_555 1_555
C1 N2 1_555 1_555
C2 C1 1_555 1_555
H1 C2 1_555 1_555
H2 C2 1_555 1_555
C3 C2 1_555 1_555
H3 C3 1_555 1_555
C4 C3 1_555 1_555
H4 C4 1_555 1_555
H5 C4 1_555 1_555
C5 C1 1_555 1_555
H6 C5 1_555 1_555
C6 C5 1_555 1_555
H7 C6 1_555 1_555
H8 C6 1_555 1_555
C7 C3 1_555 1_555
H9 C7 1_555 1_555
H10 C7 1_555 1_555
C8 H11 1_555 1_555
H12 C8 1_555 1_555
H13 C8 1_555 1_555
C9 In1 1_555 1_555
H14 C9 1_555 1_555
H15 C9 1_555 1_555
H16 C9 1_555 1_555
In2 O1 1_555 1_555
O2 N1 1_555 1_555
C10 N1 1_555 1_555
C11 C10 1_555 1_555
H17 C11 1_555 1_555
H18 C11 1_555 1_555
C12 C11 1_555 1_555
H19 C12 1_555 1_555
C13 C12 1_555 1_555
H20 C13 1_555 1_555
H21 C13 1_555 1_555
C14 C13 1_555 1_555
H22 C14 1_555 1_555
H23 C14 1_555 1_555
C15 C12 1_555 1_555
H24 C15 1_555 1_555
H25 C15 1_555 1_555
C16 C10 1_555 1_555
H26 C16 1_555 1_555
C17 In2 1_555 1_555
H27 C17 1_555 1_555
H28 C17 1_555 1_555
H29 C17 1_555 1_555
C18 In2 1_555 1_555
H30 C18 1_555 1_555
H31 C18 1_555 1_555
H32 C18 1_555 1_555
In1A N2 1_555 1_555
N2A In1 1_555 1_555
In2A O2 1_555 1_555
O2A In2 1_555 1_555
C4 C5 1_555 1_555
C6 C7 1_555 1_555
In2 O2 1_555 1_555
C14 C16 1_555 1_555
C15 C16 1_555 1_555
In2A O2A 1_555 1_555

#END
