
#######################################################################
#
#                 Cambridge Crystallographic Data Centre
#                                CCDC 
#
#######################################################################
#
# If this CIF has been generated from an entry in the Cambridge 
# Structural Database, then it will include bibliographic, chemical, 
# crystal, experimental, refinement or atomic coordinate data resulting 
# from the CCDC's data processing and validation procedures.
#
#######################################################################

data_LERRUW
_symmetry_cell_setting           triclinic
_symmetry_space_group_name_H-M   'P -1'
_symmetry_Int_Tables_number      2
_space_group_name_Hall           '-P 1'
loop_
_symmetry_equiv_pos_site_id
_symmetry_equiv_pos_as_xyz
1 x,y,z
2 -x,-y,-z
_cell_length_a                   9.1130(18)
_cell_length_b                   11.681(2)
_cell_length_c                   17.354(4)
_cell_angle_alpha                86.93(3)
_cell_angle_beta                 80.89(3)
_cell_angle_gamma                84.54(3)
_cell_volume                     1814.34
loop_
_atom_site_label
_atom_site_type_symbol
_atom_site_fract_x
_atom_site_fract_y
_atom_site_fract_z
Gd1 Gd 0.72566(7) 0.18210(5) 1.42579(3)
Cu1 Cu 0.5000 0.5000 1.5000
Cu2 Cu 0.6151(3) 0.6269(2) 0.98902(10)
Cu3 Cu 0.99231(16) -0.07825(12) 1.43340(7)
Cu4 Cu 1.2784(2) 0.10063(19) 0.93794(9)
Cl1 Cl 1.5000 0.0000 1.0000
O1 O 0.5008(12) 0.5191(8) 1.3894(5)
O2 O 0.6014(11) 0.3395(8) 1.3545(5)
O3 O 0.2789(9) 0.1176(8) 1.3837(4)
O4 O 0.5316(9) 0.1052(8) 1.3686(5)
O5 O 0.7787(11) 0.3605(8) 1.4779(5)
O6 O 0.9242(11) 0.3320(8) 1.3626(6)
O7 O 0.8491(9) 0.1012(7) 1.3061(4)
O8 O 1.0137(11) -0.0564(8) 1.3174(4)
O9 O 0.5101(9) 0.1953(8) 1.5358(4)
O10 O 0.7290(9) 0.1535(7) 1.5741(4)
O11 O 0.9792(9) 0.0919(7) 1.4523(4)
O12 O 0.7141(9) -0.0302(7) 1.4693(4)
N1 N 0.6087(16) 0.5701(11) 1.0958(6)
N2 N 0.3981(16) 0.3058(12) 1.1146(6)
N3 N 0.9610(12) 0.7544(8) 1.4241(5)
N4 N 1.1398(12) 0.0733(12) 1.0335(6)
N5 N 0.3728(13) 0.1373(11) 1.8313(6)
C1 C 0.7010(16) 0.4524(14) 1.2019(7)
H1 H 0.7750 0.4006 1.2181
C2 C 0.7131(18) 0.4957(14) 1.1234(8)
H2 H 0.7977 0.4716 1.0888
C3 C 0.4861(18) 0.6057(14) 1.1475(9)
H3 H 0.4134 0.6571 1.1296
C4 C 0.4643(16) 0.5687(13) 1.2263(7)
H4 H 0.3792 0.5951 1.2598
C5 C 0.5747(16) 0.4900(11) 1.2542(7)
C6 C 0.5561(16) 0.4440(14) 1.3403(7)
C7 C 0.274(2) 0.3199(15) 1.1724(9)
H5 H 0.1896 0.3660 1.1622
C8 C 0.2760(19) 0.2642(15) 1.2469(8)
H6 H 0.1912 0.2715 1.2846
C9 C 0.4052(13) 0.1975(11) 1.2649(6)
C10 C 0.5301(16) 0.1877(13) 1.2053(6)
H7 H 0.6181 0.1463 1.2149
C11 C 0.521(2) 0.2401(15) 1.1323(8)
H8 H 0.6032 0.2299 1.0934
C12 C 0.4070(13) 0.1360(11) 1.3466(6)
C13 C 0.8601(13) 0.7036(11) 1.4810(6)
H9 H 0.8088 0.7479 1.5213
C14 C 0.8331(13) 0.5885(10) 1.4797(6)
H10 H 0.7685 0.5563 1.5202
C15 C 1.0281(14) 0.6875(11) 1.3645(7)
H11 H 1.0949 0.7203 1.3253
C16 C 1.0027(15) 0.5732(12) 1.3586(7)
H12 H 1.0506 0.5314 1.3164
C17 C 0.9023(14) 0.5215(11) 1.4182(7)
C18 C 0.8718(15) 0.3940(12) 1.4188(7)
C19 C 0.9895(16) 0.1475(14) 1.1516(7)
H13 H 0.9334 0.2089 1.1772
C20 C 1.0557(17) 0.1613(14) 1.0724(8)
H14 H 1.0416 0.2322 1.0464
C21 C 1.1497(15) -0.0315(13) 1.0712(7)
H15 H 1.2014 -0.0926 1.0434
C22 C 1.0863(15) -0.0542(12) 1.1504(6)
H16 H 1.0956 -0.1276 1.1738
C23 C 1.0095(15) 0.0389(12) 1.1914(7)
C24 C 0.9490(13) 0.0277(11) 1.2791(6)
C25 C 0.3634(15) 0.2031(12) 1.6963(7)
H17 H 0.3076 0.2361 1.6591
C26 C 0.2940(15) 0.1894(14) 1.7744(7)
H18 H 0.1941 0.2156 1.7881
C27 C 0.5183(17) 0.1045(13) 1.8093(7)
H19 H 0.5713 0.0705 1.8475
C28 C 0.5963(14) 0.1176(12) 1.7334(7)
H20 H 0.6976 0.0947 1.7216
C29 C 0.5116(13) 0.1686(11) 1.6741(6)
C30 C 0.5880(13) 0.1748(10) 1.5888(6)
Gd1A Gd 0.27434(7) 0.81790(5) 1.57421(3)
Gd1A_2 Gd 0.27434(7) 0.81790(5) 0.57421(3)
Cu2A Cu 0.3849(3) 0.3731(2) 2.01098(10)
Cu2A_2 Cu 0.3849(3) 0.3731(2) 1.01098(10)
Cu3A Cu 0.00769(16) 1.07825(12) 1.56660(7)
Cu3A_2 Cu 1.00769(16) 0.07825(12) 1.56660(7)
Cu3_2 Cu 0.99231(16) 0.92175(12) 1.43340(7)
Cu3A_3 Cu 0.00769(16) 0.07825(12) 1.56660(7)
Cu3_3 Cu -0.00769(16) 0.92175(12) 1.43340(7)
Cu4A Cu -0.2784(2) 0.89937(19) 2.06206(9)
Cu4A_2 Cu 1.7216(2) -0.10063(19) 1.06206(9)
Cu4_2 Cu 0.2784(2) 0.10063(19) 1.93794(9)
Cu4A_3 Cu 0.7216(2) 0.89937(19) 1.06206(9)
Cl1_2 Cl -0.5000 1.0000 2.0000
O1A O 0.4992(12) 0.4809(8) 1.6106(5)
O2A O 0.3986(11) 0.6605(8) 1.6455(5)
O3A O 0.7211(9) 0.8824(8) 0.6163(4)
O4A O 0.4684(9) 0.8948(8) 0.6314(5)
O4A_2 O 0.4684(9) 0.8948(8) 1.6314(5)
O5A O 0.2213(11) 0.6395(8) 1.5221(5)
O6A O 0.0758(11) 0.6680(8) 1.6374(6)
O7A O 0.1509(9) 0.8988(7) 1.6939(4)
O8A O -0.0137(11) 1.0564(8) 1.6826(4)
O9A O 0.4899(9) 0.8047(8) 1.4642(4)
O10A O 0.2710(9) 0.8465(7) 1.4259(4)
O10A_2 O 1.2710(9) -0.1535(7) 1.4259(4)
O10_2 O -0.2710(9) 1.1535(7) 1.5741(4)
O11A O 0.0208(9) 0.9081(7) 1.5477(4)
O11A_2 O 1.0208(9) -0.0919(7) 1.5477(4)
O11_2 O -0.0208(9) 1.0919(7) 1.4523(4)
O12A O 0.2859(9) 1.0302(7) 1.5307(4)
N1A N 0.3913(16) 0.4299(11) 1.9042(6)
N2A N 0.6019(16) 0.6942(12) 0.8854(6)
N2_2 N 0.3981(16) 0.3058(12) 2.1146(6)
N3A N 0.0390(12) 0.2456(8) 1.5759(5)
N3_2 N 0.9610(12) -0.2456(8) 1.4241(5)
N3A_2 N 0.0390(12) 1.2456(8) 1.5759(5)
N4A N -0.1398(12) 0.9267(12) 1.9665(6)
N5A N 0.6272(13) 0.8627(11) 1.1687(6)
N5_2 N 1.3728(13) 0.1373(11) 0.8313(6)
N5A_2 N -0.3728(13) 0.8627(11) 2.1687(6)
C1A C 0.2990(16) 0.5476(14) 1.7981(7)
H1A H 0.2250 0.5994 1.7819
C2A C 0.2869(18) 0.5043(14) 1.8766(8)
H2A H 0.2023 0.5284 1.9112
C3A C 0.5139(18) 0.3943(14) 1.8525(9)
H3A H 0.5866 0.3429 1.8704
C4A C 0.5357(16) 0.4313(13) 1.7737(7)
H4A H 0.6208 0.4049 1.7402
C5A C 0.4253(16) 0.5100(11) 1.7458(7)
C6A C 0.4439(16) 0.5560(14) 1.6597(7)
C7A C 0.726(2) 0.6801(15) 0.8276(9)
H5A H 0.8104 0.6340 0.8378
C8A C 0.7240(19) 0.7358(15) 0.7531(8)
H6A H 0.8088 0.7285 0.7154
C9A C 0.5948(13) 0.8025(11) 0.7351(6)
C10A C 0.4699(16) 0.8123(13) 0.7947(6)
H7A H 0.3819 0.8537 0.7851
C11A C 0.479(2) 0.7599(15) 0.8677(8)
H8A H 0.3968 0.7701 0.9066
C12A C 0.5930(13) 0.8640(11) 0.6534(6)
C13A C 0.1399(13) 0.2964(11) 1.5190(6)
H9A H 0.1912 0.2521 1.4787
C14A C 0.1669(13) 0.4115(10) 1.5203(6)
H10A H 0.2315 0.4437 1.4798
C15A C -0.0281(14) 0.3125(11) 1.6355(7)
H11A H -0.0949 0.2797 1.6747
C16A C -0.0027(15) 0.4268(12) 1.6414(7)
H12A H -0.0506 0.4686 1.6836
C17A C 0.0977(14) 0.4785(11) 1.5818(7)
C18A C 0.1282(15) 0.6060(12) 1.5812(7)
C19A C 0.0105(16) 0.8525(14) 1.8484(7)
H13A H 0.0666 0.7911 1.8228
C20A C -0.0557(17) 0.8387(14) 1.9276(8)
H14A H -0.0416 0.7678 1.9536
C21A C -0.1497(15) 1.0315(13) 1.9288(7)
H15A H -0.2014 1.0926 1.9566
C22A C -0.0863(15) 1.0542(12) 1.8496(6)
H16A H -0.0956 1.1276 1.8262
C23A C -0.0095(15) 0.9611(12) 1.8086(7)
C24A C 0.0510(13) 0.9723(11) 1.7209(6)
C25A C 0.6366(15) 0.7969(12) 1.3037(7)
H17A H 0.6924 0.7639 1.3409
C26A C 0.7060(15) 0.8106(14) 1.2256(7)
H18A H 0.8059 0.7844 1.2119
C27A C 0.4817(17) 0.8955(13) 1.1907(7)
H19A H 0.4287 0.9295 1.1525
C28A C 0.4037(14) 0.8824(12) 1.2666(7)
H20A H 0.3024 0.9053 1.2784
C29A C 0.4884(13) 0.8314(11) 1.3259(6)
C30A C 0.4120(13) 0.8252(10) 1.4112(6)
Cl2 Cl 0.0955(5) 0.6236(4) 0.0918(2)
O13 O 0.1293(15) 0.6301(13) 0.1706(6)
O14 O 0.1002(18) 0.5044(11) 0.0715(8)
O15 O 0.2104(14) 0.6796(12) 0.0377(7)
O16 O -0.0507(14) 0.6803(11) 0.0849(7)
loop_
_geom_bond_atom_site_label_1
_geom_bond_atom_site_label_2
_geom_bond_site_symmetry_1
_geom_bond_site_symmetry_2
Gd1 O2 1_555 1_555
Cu1 O1 1_555 1_555
Cu2 N1 1_555 1_555
Cu3 O8 1_555 1_555
Cu4 Cl1 1_555 1_555
Cl1 Cu4A_2 1_555 1_555
Cl2 O13 1_555 1_555
O1 C6 1_555 1_555
O2 C6 1_555 1_555
O3 C12 1_555 1_555
O4 Gd1 1_555 1_555
O5 Gd1 1_555 1_555
O6 Gd1 1_555 1_555
O7 Gd1 1_555 1_555
O8 C24 1_555 1_555
O9 Gd1 1_555 1_555
O10 Gd1 1_555 1_555
O11 Gd1 1_555 1_555
O12 Gd1 1_555 1_555
O14 Cl2 1_555 1_555
O15 Cl2 1_555 1_555
O16 Cl2 1_555 1_555
N1 C2 1_555 1_555
N2 C7 1_555 1_555
N3 C13 1_555 1_555
N4 Cu4 1_555 1_555
N5 C26 1_555 1_555
C1 H1 1_555 1_555
C2 C1 1_555 1_555
H2 C2 1_555 1_555
C3 N1 1_555 1_555
H3 C3 1_555 1_555
C4 C3 1_555 1_555
H4 C4 1_555 1_555
C5 C1 1_555 1_555
C6 C5 1_555 1_555
C7 H5 1_555 1_555
C8 C7 1_555 1_555
H6 C8 1_555 1_555
C9 C8 1_555 1_555
C10 C9 1_555 1_555
H7 C10 1_555 1_555
C11 N2 1_555 1_555
H8 C11 1_555 1_555
C12 O4 1_555 1_555
C13 H9 1_555 1_555
C14 C13 1_555 1_555
H10 C14 1_555 1_555
C15 N3 1_555 1_555
H11 C15 1_555 1_555
C16 C15 1_555 1_555
H12 C16 1_555 1_555
C17 C14 1_555 1_555
C18 O5 1_555 1_555
C19 H13 1_555 1_555
C20 N4 1_555 1_555
H14 C20 1_555 1_555
C21 N4 1_555 1_555
H15 C21 1_555 1_555
C22 C21 1_555 1_555
H16 C22 1_555 1_555
C23 C19 1_555 1_555
C24 O7 1_555 1_555
C25 H17 1_555 1_555
C26 C25 1_555 1_555
H18 C26 1_555 1_555
C27 N5 1_555 1_555
H19 C27 1_555 1_555
C28 C27 1_555 1_555
H20 C28 1_555 1_555
C29 C25 1_555 1_555
C30 O9 1_555 1_555
Gd1A O2A 1_555 1_555
Gd1A_2 O4A 1_555 1_555
Cu2A N1A 1_555 1_555
Cu2A_2 N2 1_555 1_555
Cu3A O8A 1_555 1_555
Cu3A_2 O10 1_555 1_555
Cu3_2 N3 1_555 1_555
Cu3A_3 N3A 1_555 1_555
Cu3_3 O10A 1_555 1_555
Cu4A Cl1_2 1_555 1_555
Cu4_2 N5 1_555 1_555
Cu4A_3 N5A 1_555 1_555
O1A Cu1 1_555 1_555
O2A C6A 1_555 1_555
O3A C12A 1_555 1_555
O4A C12A 1_555 1_555
O4A_2 Gd1A 1_555 1_555
O5A Gd1A 1_555 1_555
O6A Gd1A 1_555 1_555
O7A Gd1A 1_555 1_555
O8A C24A 1_555 1_555
O9A Gd1A 1_555 1_555
O10A Gd1A 1_555 1_555
O10A_2 Cu3 1_555 1_555
O10_2 Cu3A 1_555 1_555
O11A Gd1A 1_555 1_555
O11A_2 Cu3 1_555 1_555
O11_2 Cu3A 1_555 1_555
O12A Gd1A 1_555 1_555
N1A C2A 1_555 1_555
N2A Cu2 1_555 1_555
N2_2 Cu2A 1_555 1_555
N3A C13A 1_555 1_555
N3_2 Cu3 1_555 1_555
N3A_2 Cu3A 1_555 1_555
N4A Cu4A 1_555 1_555
N5A C26A 1_555 1_555
N5_2 Cu4 1_555 1_555
N5A_2 Cu4A 1_555 1_555
C1A H1A 1_555 1_555
C2A C1A 1_555 1_555
H2A C2A 1_555 1_555
C3A N1A 1_555 1_555
H3A C3A 1_555 1_555
C4A C3A 1_555 1_555
H4A C4A 1_555 1_555
C5A C1A 1_555 1_555
C6A O1A 1_555 1_555
C7A N2A 1_555 1_555
H5A C7A 1_555 1_555
C8A C7A 1_555 1_555
H6A C8A 1_555 1_555
C9A C8A 1_555 1_555
C10A C9A 1_555 1_555
H7A C10A 1_555 1_555
C11A N2A 1_555 1_555
H8A C11A 1_555 1_555
C12A C9A 1_555 1_555
C13A H9A 1_555 1_555
C14A C13A 1_555 1_555
H10A C14A 1_555 1_555
C15A N3A 1_555 1_555
H11A C15A 1_555 1_555
C16A C15A 1_555 1_555
H12A C16A 1_555 1_555
C17A C14A 1_555 1_555
C18A O5A 1_555 1_555
C19A H13A 1_555 1_555
C20A N4A 1_555 1_555
H14A C20A 1_555 1_555
C21A N4A 1_555 1_555
H15A C21A 1_555 1_555
C22A C21A 1_555 1_555
H16A C22A 1_555 1_555
C23A C19A 1_555 1_555
C24A O7A 1_555 1_555
C25A H17A 1_555 1_555
C26A C25A 1_555 1_555
H18A C26A 1_555 1_555
C27A N5A 1_555 1_555
H19A C27A 1_555 1_555
C28A C27A 1_555 1_555
H20A C28A 1_555 1_555
C29A C25A 1_555 1_555
C30A O9A 1_555 1_555
Cu3 O11 1_555 1_555
Cu3 O12 1_555 1_555
O6 C18 1_555 1_555
O10 C30 1_555 1_555
O11 Cu3A_2 1_555 1_555
C4 C5 1_555 1_555
C9 C12 1_555 1_555
C10 C11 1_555 1_555
C16 C17 1_555 1_555
C17 C18 1_555 1_555
C19 C20 1_555 1_555
C22 C23 1_555 1_555
C23 C24 1_555 1_555
C28 C29 1_555 1_555
C29 C30 1_555 1_555
Cu3A O11A 1_555 1_555
Cu3A O12A 1_555 1_555
Cu3A_2 O11A_2 1_555 1_555
Cu3_3 O11A 1_555 1_555
Cu3_3 O11_2 1_555 1_555
O6A C18A 1_555 1_555
O10A C30A 1_555 1_555
C4A C5A 1_555 1_555
C5A C6A 1_555 1_555
C10A C11A 1_555 1_555
C16A C17A 1_555 1_555
C17A C18A 1_555 1_555
C19A C20A 1_555 1_555
C22A C23A 1_555 1_555
C23A C24A 1_555 1_555
C28A C29A 1_555 1_555
C29A C30A 1_555 1_555

#END
