
#######################################################################
#
#                 Cambridge Crystallographic Data Centre
#                                CCDC 
#
#######################################################################
#
# If this CIF has been generated from an entry in the Cambridge 
# Structural Database, then it will include bibliographic, chemical, 
# crystal, experimental, refinement or atomic coordinate data resulting 
# from the CCDC's data processing and validation procedures.
#
#######################################################################

data_LESBIU
_symmetry_cell_setting           monoclinic
_symmetry_space_group_name_H-M   'P 21/n'
_symmetry_Int_Tables_number      14
_space_group_name_Hall           '-P 2yn'
loop_
_symmetry_equiv_pos_site_id
_symmetry_equiv_pos_as_xyz
1 x,y,z
2 1/2+x,1/2-y,1/2+z
3 -x,-y,-z
4 1/2-x,1/2+y,1/2-z
_cell_length_a                   7.095(5)
_cell_length_b                   18.735(4)
_cell_length_c                   7.394(5)
_cell_angle_alpha                90
_cell_angle_beta                 91.53(5)
_cell_angle_gamma                90
_cell_volume                     982.496
loop_
_atom_site_label
_atom_site_type_symbol
_atom_site_fract_x
_atom_site_fract_y
_atom_site_fract_z
Co1 Co 0.4188(2) 0.20752(8) 0.8997(2)
O1 O 0.582(1) 0.2641(4) 1.0888(9)
O2 O 0.5767(10) 0.2603(4) 0.7047(8)
O3 O 0.2158(9) 0.2918(4) 0.8974(8)
O4 O 0.7891(10) 0.3459(4) 1.1800(8)
O5 O 0.776(1) 0.3422(4) 0.6098(9)
N1 N 0.626(1) 0.1230(5) 0.928(1)
C1 C 0.671(2) 0.3215(6) 1.066(1)
C2 C 0.638(1) 0.3619(5) 0.895(1)
C3 C 0.666(2) 0.3189(6) 0.726(1)
C4 C 0.765(2) 0.1182(10) 0.819(2)
C5 C 0.913(2) 0.0702(9) 0.849(2)
C6 C 0.921(2) 0.0264(6) 0.984(2)
C7 C 0.778(2) 0.0295(8) 1.094(2)
C8 C 0.630(2) 0.0781(8) 1.060(2)
H1 H 0.5118 0.3790 0.8925
H2 H 0.7225 0.4012 0.8938
H3 H 0.7674 0.1483 0.7157
H4 H 1.0137 0.0700 0.7668
H5 H 0.7745 -0.0009 1.1970
H6 H 0.5261 0.0777 1.1381
H7 H 0.1457 0.2899 1.0048
H8 H 0.1330 0.2866 0.7952
C6B C 1.079(2) -0.0264(6) 1.016(2)
C5B C 1.087(2) -0.0702(9) 1.151(2)
C4B C 1.235(2) -0.1182(10) 1.181(2)
N1B N 1.374(1) -0.1230(5) 1.072(1)
C8B C 1.370(2) -0.0781(8) 0.940(2)
C7B C 1.222(2) -0.0295(8) 0.906(2)
H5B H 1.2255 0.0009 0.8030
H6B H 1.4739 -0.0777 0.8619
H3B H 1.2326 -0.1483 1.2843
H4B H 0.9863 -0.0700 1.2332
O4A O 0.2891(10) 0.1541(4) 0.6800(8)
O5A O 0.276(1) 0.1578(4) 1.1098(9)
Co1A Co 0.9188(2) 0.29248(8) 1.3997(2)
Co1A_2 Co 0.9188(2) 0.29248(8) 0.3997(2)
Co1B Co 1.5812(2) -0.20752(8) 1.1003(2)
O1B O 1.418(1) -0.2641(4) 0.9112(9)
O2B O 1.4233(10) -0.2603(4) 1.2953(8)
O3B O 1.7842(9) -0.2918(4) 1.1026(8)
H7B H 1.8543 -0.2899 0.9952
H8B H 1.8670 -0.2866 1.2048
O1C O 1.918(1) -0.2359(4) 1.4112(9)
O2C O 1.9233(10) -0.2397(4) 1.7953(8)
O4C O 1.7109(10) -0.1541(4) 1.3200(8)
O5C O 1.724(1) -0.1578(4) 1.8902(9)
C1C C 1.829(2) -0.1785(6) 1.434(1)
C2C C 1.862(1) -0.1381(5) 1.605(1)
C3C C 1.834(2) -0.1811(6) 1.774(1)
H1C H 1.9882 -0.1210 1.6075
H2C H 1.7775 -0.0988 1.6062
O5C_2 O 1.724(1) -0.1578(4) 0.8902(9)
Co1C Co 2.0812(2) -0.29248(8) 1.6003(2)
Co1B_2 Co 1.5812(2) -0.20752(8) 2.1003(2)
loop_
_geom_bond_atom_site_label_1
_geom_bond_atom_site_label_2
_geom_bond_site_symmetry_1
_geom_bond_site_symmetry_2
Co1 O1 1_555 1_555
O1 C1 1_555 1_555
O2 Co1 1_555 1_555
O3 Co1 1_555 1_555
O4 C1 1_555 1_555
O5 C3 1_555 1_555
N1 Co1 1_555 1_555
C1 C2 1_555 1_555
C2 C3 1_555 1_555
C3 O2 1_555 1_555
C4 N1 1_555 1_555
C5 C4 1_555 1_555
C6 C5 1_555 1_555
C7 C6 1_555 1_555
C8 N1 1_555 1_555
H1 C2 1_555 1_555
H2 C2 1_555 1_555
H3 C4 1_555 1_555
H4 C5 1_555 1_555
H5 C7 1_555 1_555
H6 C8 1_555 1_555
H7 O3 1_555 1_555
H8 O3 1_555 1_555
C6B C6 1_555 1_555
C5B C6B 1_555 1_555
C4B C5B 1_555 1_555
N1B C4B 1_555 1_555
C8B N1B 1_555 1_555
C7B C6B 1_555 1_555
H5B C7B 1_555 1_555
H6B C8B 1_555 1_555
H3B C4B 1_555 1_555
H4B C5B 1_555 1_555
O4A Co1 1_555 1_555
O5A Co1 1_555 1_555
Co1A O4 1_555 1_555
Co1A_2 O5 1_555 1_555
Co1B N1B 1_555 1_555
O1B Co1B 1_555 1_555
O2B Co1B 1_555 1_555
O3B Co1B 1_555 1_555
H7B O3B 1_555 1_555
H8B O3B 1_555 1_555
O1C C1C 1_555 1_555
O2C C3C 1_555 1_555
O4C Co1B 1_555 1_555
O5C C3C 1_555 1_555
C1C O4C 1_555 1_555
C2C C1C 1_555 1_555
C3C C2C 1_555 1_555
H1C C2C 1_555 1_555
H2C C2C 1_555 1_555
O5C_2 Co1B 1_555 1_555
Co1C O1C 1_555 1_555
Co1B_2 O5C 1_555 1_555
C7 C8 1_555 1_555
C8B C7B 1_555 1_555
O2C Co1C 1_555 1_555

#END
