
#######################################################################
#
#                 Cambridge Crystallographic Data Centre
#                                CCDC 
#
#######################################################################
#
# If this CIF has been generated from an entry in the Cambridge 
# Structural Database, then it will include bibliographic, chemical, 
# crystal, experimental, refinement or atomic coordinate data resulting 
# from the CCDC's data processing and validation procedures.
#
#######################################################################

data_LESBOA
_symmetry_cell_setting           monoclinic
_symmetry_space_group_name_H-M   'P 1 1 21/a'
_symmetry_Int_Tables_number      14
_space_group_name_Hall           '-P 2ac'
loop_
_symmetry_equiv_pos_site_id
_symmetry_equiv_pos_as_xyz
1 x,y,z
2 1/2-x,-y,1/2+z
3 -x,-y,-z
4 1/2+x,y,1/2-z
_cell_length_a                   18.73(1)
_cell_length_b                   15.036(9)
_cell_length_c                   6.680(3)
_cell_angle_alpha                90
_cell_angle_beta                 90
_cell_angle_gamma                121.62(4)
_cell_volume                     1601.97
loop_
_atom_site_label
_atom_site_type_symbol
_atom_site_fract_x
_atom_site_fract_y
_atom_site_fract_z
Cu1 Cu 0.58543(7) 0.3274(1) -0.0532(2)
Cu2 Cu 0.35599(7) 0.1405(1) 0.0321(2)
O1 O 0.4830(4) 0.3350(5) 0.0248(10)
O2 O 0.4388(4) 0.0989(6) -0.0424(11)
O3 O 0.5623(5) 0.3020(6) -0.3441(11)
O4 O 0.6668(5) 0.5064(6) -0.120(2)
N1 N 0.8090(5) 0.1696(6) -0.3038(12)
N2 N 0.7331(4) 0.1892(6) -0.0210(11)
C1 C 0.6423(6) 0.3148(9) 0.187(2)
C2 C 0.6792(5) 0.3031(8) 0.021(2)
C3 C 0.6625(5) 0.2020(8) -0.053(2)
C4 C 0.7688(6) 0.2003(8) 0.179(2)
C5 C 0.7811(6) 0.1111(7) 0.224(2)
C6 C 0.8509(8) 0.1135(11) 0.170(2)
C7 C 0.7728(5) 0.1794(7) -0.1726(15)
C8 C 0.6920(11) 0.5797(11) 0.036(3)
H1 H 0.618(5) 0.265(6) 0.271(13)
H2 H 0.686(5) 0.404(6) 0.228(13)
H3 H 0.726(5) 0.364(6) -0.043(13)
H4 H 0.651(5) 0.191(6) -0.207(13)
H5 H 0.612(5) 0.143(6) 0.011(12)
H6 H 0.833(5) 0.274(6) 0.187(13)
H7 H 0.738(5) 0.206(6) 0.249(12)
H8 H 0.731(5) 0.034(6) 0.227(13)
H9 H 0.845(5) 0.058(6) 0.164(13)
H10 H 0.905(5) 0.188(6) 0.133(14)
H11 H 0.731(5) 0.559(6) 0.095(13)
H12 H 0.718(5) 0.670(6) 0.019(12)
H13 H 0.640(5) 0.575(6) 0.104(13)
H14 H 0.497(5) 0.364(7) 0.100(14)
H15 H 0.480(5) 0.367(7) -0.047(14)
H16 H 0.450(5) 0.070(6) 0.092(13)
H17 H 0.461(5) 0.112(6) -0.140(13)
H18 H 0.548(5) 0.331(6) -0.421(13)
H19 H 0.537(5) 0.252(6) -0.413(13)
H20 H 0.638(5) 0.521(6) -0.269(14)
Cu2C Cu 0.85599(7) 0.1405(1) -0.5321(2)
N1C N 0.3090(5) 0.1696(6) -0.1962(12)
N2C N 0.2331(4) 0.1892(6) -0.4790(11)
C1C C 0.1423(6) 0.3148(9) -0.687(2)
C2C C 0.1792(5) 0.3031(8) -0.521(2)
C3C C 0.1625(5) 0.2020(8) -0.447(2)
C4C C 0.2688(6) 0.2003(8) -0.679(2)
C5C C 0.2811(6) 0.1111(7) -0.724(2)
C6C C 0.3509(8) 0.1135(11) -0.670(2)
C7C C 0.2728(5) 0.1794(7) -0.3274(15)
H1C H 0.118(5) 0.265(6) -0.771(13)
H2C H 0.186(5) 0.404(6) -0.728(13)
H3C H 0.226(5) 0.364(6) -0.457(13)
H4C H 0.151(5) 0.191(6) -0.293(13)
H5C H 0.112(5) 0.143(6) -0.511(12)
H6C H 0.333(5) 0.274(6) -0.687(13)
H7C H 0.238(5) 0.206(6) -0.749(12)
H8C H 0.231(5) 0.034(6) -0.727(13)
H9C H 0.345(5) 0.058(6) -0.664(13)
H10C H 0.405(5) 0.188(6) -0.633(14)
O1C O 0.9830(4) 0.3350(5) -0.5248(10)
H14C H 0.997(5) 0.364(7) -0.600(14)
H15C H 0.980(5) 0.367(7) -0.453(14)
O2C O 0.9388(4) 0.0989(6) -0.4576(11)
H16C H 0.950(5) 0.070(6) -0.592(13)
H17C H 0.961(5) 0.112(6) -0.360(13)
Cu1C Cu 1.08543(7) 0.3274(1) -0.4468(2)
O3C O 1.0623(5) 0.3020(6) -0.1559(11)
H18C H 1.048(5) 0.331(6) -0.079(13)
H19C H 1.037(5) 0.252(6) -0.087(13)
O4C O 1.1668(5) 0.5064(6) -0.380(2)
C8C C 1.1920(11) 0.5797(11) -0.536(3)
H11C H 1.231(5) 0.559(6) -0.595(13)
H12C H 1.218(5) 0.670(6) -0.519(12)
H13C H 1.140(5) 0.575(6) -0.604(13)
H20C H 1.138(5) 0.521(6) -0.231(14)
C5C_2 C 0.2811(6) 0.1111(7) 0.276(2)
C6C_2 C 0.3509(8) 0.1135(11) 0.330(2)
Cu2C_2 Cu 0.85599(7) 0.1405(1) 0.4679(2)
C5_2 C 0.7811(6) 0.1111(7) -0.776(2)
C6_2 C 0.8509(8) 0.1135(11) -0.830(2)
Cu1C_2 Cu 0.08543(7) 0.3274(1) -0.4468(2)
Cu2_2 Cu 0.35599(7) 0.1405(1) -0.9679(2)
C1C_2 C 1.1423(6) 0.3148(9) -0.687(2)
C2C_2 C 1.1792(5) 0.3031(8) -0.521(2)
H8C_2 H 0.231(5) 0.034(6) 0.273(13)
H9C_2 H 0.345(5) 0.058(6) 0.336(13)
H10C_2 H 0.405(5) 0.188(6) 0.367(14)
H8_2 H 0.731(5) 0.034(6) -0.773(13)
H9_2 H 0.845(5) 0.058(6) -0.836(13)
H10_2 H 0.905(5) 0.188(6) -0.867(14)
H1C_2 H 1.118(5) 0.265(6) -0.771(13)
H2C_2 H 1.186(5) 0.404(6) -0.728(13)
H3C_2 H 1.226(5) 0.364(6) -0.457(13)
Si1 Si 1.0000 0.0000 0.0000
F1 F 0.9794(4) 0.0190(5) 0.2371(9)
F2 F 0.8966(5) -0.0800(9) -0.017(2)
F3 F 0.9899(7) 0.1009(8) -0.078(2)
F1B F 1.0206(4) -0.0190(5) -0.2371(9)
F2B F 1.1034(5) 0.0800(9) 0.017(2)
F3B F 1.0101(7) -0.1009(8) 0.078(2)
Si2 Si 0.50000 0.5000 -0.5
F6 F 0.4753(5) 0.4532(6) -0.2681(11)
F7 F 0.6009(4) 0.5499(5) -0.4453(12)
F8 F 0.4927(5) 0.3889(5) -0.5746(11)
F6B F 0.5247(5) 0.5468(6) -0.7319(11)
F7B F 0.3991(4) 0.4501(5) -0.5547(12)
F8B F 0.5073(5) 0.6111(5) -0.4254(11)
F4? F 1.0572(9) 0.1303(11) -0.018(2)
F5? F 0.9224(10) 0.0045(15) -0.107(2)
loop_
_geom_bond_atom_site_label_1
_geom_bond_atom_site_label_2
_geom_bond_site_symmetry_1
_geom_bond_site_symmetry_2
Cu1 O1 1_555 1_555
Cu2 O1 1_555 1_555
Si1 F1 1_555 1_555
Si2 F6 1_555 1_555
F2 Si1 1_555 1_555
F3 Si1 1_555 1_555
F7 Si2 1_555 1_555
F8 Si2 1_555 1_555
O1 H14 1_555 1_555
O2 Cu2 1_555 1_555
O3 Cu1 1_555 1_555
O4 Cu1 1_555 1_555
N1 C7 1_555 1_555
N2 C3 1_555 1_555
C1 Cu1 1_555 1_555
C2 Cu1 1_555 1_555
C3 C2 1_555 1_555
C4 N2 1_555 1_555
C5 C4 1_555 1_555
C6 C5 1_555 1_555
C7 N2 1_555 1_555
C8 O4 1_555 1_555
H1 C1 1_555 1_555
H2 C1 1_555 1_555
H3 C2 1_555 1_555
H4 C3 1_555 1_555
H5 C3 1_555 1_555
H6 C4 1_555 1_555
H7 C4 1_555 1_555
H8 C5 1_555 1_555
H9 C6 1_555 1_555
H10 C6 1_555 1_555
H11 C8 1_555 1_555
H12 C8 1_555 1_555
H13 C8 1_555 1_555
H15 O1 1_555 1_555
H16 O2 1_555 1_555
H17 O2 1_555 1_555
H18 O3 1_555 1_555
H19 O3 1_555 1_555
H20 O4 1_555 1_555
F1B Si1 1_555 1_555
F2B Si1 1_555 1_555
F3B Si1 1_555 1_555
F6B Si2 1_555 1_555
F7B Si2 1_555 1_555
F8B Si2 1_555 1_555
Cu2C N1 1_555 1_555
N1C Cu2 1_555 1_555
N2C C3C 1_555 1_555
C1C C2C 1_555 1_555
C2C C3C 1_555 1_555
C3C H4C 1_555 1_555
C4C N2C 1_555 1_555
C5C C4C 1_555 1_555
C6C C5C 1_555 1_555
C7C N1C 1_555 1_555
H1C C1C 1_555 1_555
H2C C1C 1_555 1_555
H3C C2C 1_555 1_555
H5C C3C 1_555 1_555
H6C C4C 1_555 1_555
H7C C4C 1_555 1_555
H8C C5C 1_555 1_555
H9C C6C 1_555 1_555
H10C C6C 1_555 1_555
O1C Cu2C 1_555 1_555
H14C O1C 1_555 1_555
H15C O1C 1_555 1_555
O2C Cu2C 1_555 1_555
H16C O2C 1_555 1_555
H17C O2C 1_555 1_555
Cu1C O1C 1_555 1_555
O3C Cu1C 1_555 1_555
H18C O3C 1_555 1_555
H19C O3C 1_555 1_555
O4C Cu1C 1_555 1_555
C8C O4C 1_555 1_555
H11C C8C 1_555 1_555
H12C C8C 1_555 1_555
H13C C8C 1_555 1_555
H20C O4C 1_555 1_555
C5C_2 Cu2 1_555 1_555
C6C_2 Cu2 1_555 1_555
Cu2C_2 C5 1_555 1_555
C5_2 Cu2C 1_555 1_555
C6_2 Cu2C 1_555 1_555
Cu1C_2 C1C 1_555 1_555
Cu2_2 C5C 1_555 1_555
C1C_2 Cu1C 1_555 1_555
C2C_2 Cu1C 1_555 1_555
H8C_2 C5C_2 1_555 1_555
H9C_2 C6C_2 1_555 1_555
H10C_2 C6C_2 1_555 1_555
H8_2 C5_2 1_555 1_555
H9_2 C6_2 1_555 1_555
H10_2 C6_2 1_555 1_555
H1C_2 C1C_2 1_555 1_555
H2C_2 C1C_2 1_555 1_555
H3C_2 C2C_2 1_555 1_555
C1 C2 1_555 1_555
C6 Cu2C_2 1_555 1_555
N2C C7C 1_555 1_555
C2C Cu1C_2 1_555 1_555
C6C Cu2_2 1_555 1_555
C5C_2 C6C_2 1_555 1_555
C5_2 C6_2 1_555 1_555
C1C_2 C2C_2 1_555 1_555

#END
