
#######################################################################
#
#                 Cambridge Crystallographic Data Centre
#                                CCDC 
#
#######################################################################
#
# If this CIF has been generated from an entry in the Cambridge 
# Structural Database, then it will include bibliographic, chemical, 
# crystal, experimental, refinement or atomic coordinate data resulting 
# from the CCDC's data processing and validation procedures.
#
#######################################################################

data_LESFUL
_symmetry_cell_setting           orthorhombic
_symmetry_space_group_name_H-M   'P c 2 m'
_symmetry_Int_Tables_number      28
_space_group_name_Hall           'P -2c -2c'
loop_
_symmetry_equiv_pos_site_id
_symmetry_equiv_pos_as_xyz
1 x,y,z
2 -x,y,-z
3 -x,y,1/2+z
4 x,y,1/2-z
_cell_length_a                   3.6613(2)
_cell_length_b                   6.7774(3)
_cell_length_c                   11.7934(5)
_cell_angle_alpha                90
_cell_angle_beta                 90
_cell_angle_gamma                90
_cell_volume                     292.643
loop_
_atom_site_label
_atom_site_type_symbol
_atom_site_fract_x
_atom_site_fract_y
_atom_site_fract_z
Cu1 Cu 0.5000 -0.19684(6) 0.5000
Cl1 Cl 0.0000 0.03886(13) 0.5000
N1 N 0.6785(10) -0.0838(6) 0.2500
N2 N 0.4575(6) -0.3474(4) 0.3518(2)
C1 C 0.5318(10) -0.2634(7) 0.2500
C2 C 0.3224(8) -0.5312(5) 0.3493(2)
C3 C 0.2543(12) -0.6299(7) 0.2500
H1 H 0.282(8) -0.583(5) 0.414(3)
H2 H 0.729(8) -0.046(5) 0.306(2)
H3 H 0.192(16) -0.763(12) 0.2500
Cu1_2 Cu -0.5000 -0.19684(6) 0.5000
Cu1B Cu 0.5000 -0.19684(6) 0.0000
Cl1_2 Cl 1.0000 0.03886(13) 0.5000
N2A N 0.5425(6) -0.3474(4) 0.6482(2)
N2C N 0.4575(6) -0.3474(4) 0.1482(2)
C2C C 0.3224(8) -0.5312(5) 0.1507(2)
H1C H 0.282(8) -0.583(5) 0.086(3)
H2C H 0.729(8) -0.046(5) 0.194(2)
loop_
_geom_bond_atom_site_label_1
_geom_bond_atom_site_label_2
_geom_bond_site_symmetry_1
_geom_bond_site_symmetry_2
Cu1 Cl1 1_555 1_555
Cl1 Cu1_2 1_555 1_555
N1 C1 1_555 1_555
N2 Cu1 1_555 1_555
C1 N2 1_555 1_555
C2 N2 1_555 1_555
C3 C2 1_555 1_555
H1 C2 1_555 1_555
H2 N1 1_555 1_555
H3 C3 1_555 1_555
Cu1B N2C 1_555 1_555
Cl1_2 Cu1 1_555 1_555
N2A Cu1 1_555 1_555
N2C C1 1_555 1_555
C2C C3 1_555 1_555
H1C C2C 1_555 1_555
H2C N1 1_555 1_555
N2C C2C 1_555 1_555

#END
