
#######################################################################
#
#                 Cambridge Crystallographic Data Centre
#                                CCDC 
#
#######################################################################
#
# If this CIF has been generated from an entry in the Cambridge 
# Structural Database, then it will include bibliographic, chemical, 
# crystal, experimental, refinement or atomic coordinate data resulting 
# from the CCDC's data processing and validation procedures.
#
#######################################################################

data_LESJID
_symmetry_cell_setting           orthorhombic
_symmetry_space_group_name_H-M   'F 2 d d'
_symmetry_Int_Tables_number      43
_space_group_name_Hall           'F -2d 2'
loop_
_symmetry_equiv_pos_site_id
_symmetry_equiv_pos_as_xyz
1 x,y,z
2 x,-y,-z
3 1/4+x,1/4-y,1/4+z
4 1/4+x,1/4+y,1/4-z
5 x,1/2+y,1/2+z
6 x,1/2-y,1/2-z
7 1/4+x,3/4-y,3/4+z
8 1/4+x,3/4+y,3/4-z
9 1/2+x,y,1/2+z
10 1/2+x,-y,1/2-z
11 3/4+x,1/4-y,3/4+z
12 3/4+x,1/4+y,3/4-z
13 1/2+x,1/2+y,z
14 1/2+x,1/2-y,-z
15 3/4+x,3/4-y,1/4+z
16 3/4+x,3/4+y,1/4-z
_cell_length_a                   4.1471(2)
_cell_length_b                   18.4603(2)
_cell_length_c                   33.1517(2)
_cell_angle_alpha                90
_cell_angle_beta                 90
_cell_angle_gamma                90
_cell_volume                     2537.99
loop_
_atom_site_label
_atom_site_type_symbol
_atom_site_fract_x
_atom_site_fract_y
_atom_site_fract_z
Pb1 Pb 0.5715(2) 0.0000 0.5000
Cl1 Cl 0.0975(5) -0.06107(8) 0.45044(4)
N1 N 0.5353(14) 0.1179(3) 0.45419(13)
C1 C 0.3914(17) 0.1194(4) 0.41785(16)
H1 H 0.2927 0.0765 0.4079
C2 C 0.383(2) 0.1815(4) 0.39439(16)
H2 H 0.2769 0.1816 0.3690
C3 C 0.531(2) 0.2429(3) 0.4088(3)
H3 H 0.5318 0.2860 0.3931
C4 C 0.6764(19) 0.2419(3) 0.4459(2)
H4 H 0.7752 0.2843 0.4565
C5 C 0.6767(16) 0.1783(3) 0.46755(17)
H5 H 0.7817 0.1774 0.4930
Pb1_2 Pb -0.4285(2) 0.0000 0.5000
Pb1_3 Pb 1.5715(2) 0.0000 0.5000
Cl1A Cl 0.0975(5) 0.06107(8) 0.54956(4)
Cl1_2 Cl 1.0975(5) -0.06107(8) 0.45044(4)
Cl1A_2 Cl 1.0975(5) 0.06107(8) 0.54956(4)
N1A N 0.5353(14) -0.1179(3) 0.54581(13)
C1A C 0.3914(17) -0.1194(4) 0.58215(16)
H1A H 0.2927 -0.0765 0.5921
C2A C 0.383(2) -0.1815(4) 0.60561(16)
H2A H 0.2769 -0.1816 0.6310
C3A C 0.531(2) -0.2429(3) 0.5912(3)
H3A H 0.5318 -0.2860 0.6069
C4A C 0.6764(19) -0.2419(3) 0.5541(2)
H4A H 0.7752 -0.2843 0.5435
C5A C 0.6767(16) -0.1783(3) 0.53245(17)
H5A H 0.7817 -0.1774 0.5070
loop_
_geom_bond_atom_site_label_1
_geom_bond_atom_site_label_2
_geom_bond_site_symmetry_1
_geom_bond_site_symmetry_2
Pb1 Cl1 1_555 1_555
Cl1 Pb1_2 1_555 1_555
N1 Pb1 1_555 1_555
C1 N1 1_555 1_555
H1 C1 1_555 1_555
C2 C1 1_555 1_555
H2 C2 1_555 1_555
C3 C2 1_555 1_555
H3 C3 1_555 1_555
C4 C3 1_555 1_555
H4 C4 1_555 1_555
C5 N1 1_555 1_555
H5 C5 1_555 1_555
Pb1_2 Cl1A 1_555 1_555
Pb1_3 Cl1_2 1_555 1_555
Cl1A Pb1 1_555 1_555
Cl1_2 Pb1 1_555 1_555
Cl1A_2 Pb1 1_555 1_555
N1A Pb1 1_555 1_555
C1A N1A 1_555 1_555
H1A C1A 1_555 1_555
C2A C1A 1_555 1_555
H2A C2A 1_555 1_555
C3A C2A 1_555 1_555
H3A C3A 1_555 1_555
C4A C3A 1_555 1_555
H4A C4A 1_555 1_555
C5A N1A 1_555 1_555
H5A C5A 1_555 1_555
C4 C5 1_555 1_555
Pb1_3 Cl1A_2 1_555 1_555
C4A C5A 1_555 1_555

#END
