
#######################################################################
#
#                 Cambridge Crystallographic Data Centre
#                                CCDC 
#
#######################################################################
#
# If this CIF has been generated from an entry in the Cambridge 
# Structural Database, then it will include bibliographic, chemical, 
# crystal, experimental, refinement or atomic coordinate data resulting 
# from the CCDC's data processing and validation procedures.
#
#######################################################################

data_LESMOL01
_symmetry_cell_setting           triclinic
_symmetry_space_group_name_H-M   'P -1'
_symmetry_Int_Tables_number      2
_space_group_name_Hall           '-P 1'
loop_
_symmetry_equiv_pos_site_id
_symmetry_equiv_pos_as_xyz
1 x,y,z
2 -x,-y,-z
_cell_length_a                   9.2692(19)
_cell_length_b                   15.369(3)
_cell_length_c                   18.353(4)
_cell_angle_alpha                75.37(3)
_cell_angle_beta                 81.32(3)
_cell_angle_gamma                78.15(3)
_cell_volume                     2462.27
loop_
_atom_site_label
_atom_site_type_symbol
_atom_site_fract_x
_atom_site_fract_y
_atom_site_fract_z
C1 C 0.8316(3) 0.6066(2) 0.18398(18)
C2 C 0.8334(4) 0.5527(2) 0.12596(19)
C3 C 0.7267(4) 0.5799(2) 0.07489(19)
H1 H 0.6601 0.6361 0.0730
C4 C 0.7171(4) 0.5252(2) 0.0268(2)
H2 H 0.6433 0.5422 -0.0074
C5 C 0.8191(4) 0.4446(2) 0.03028(19)
C6 C 0.9300(4) 0.4177(2) 0.0778(2)
H3 H 1.0003 0.3632 0.0773
C7 C 0.9356(4) 0.4726(2) 0.12629(19)
H4 H 1.0101 0.4554 0.1601
C8 C 1.0307(4) 0.5427(2) 0.38063(18)
C9 C 1.1059(4) 0.4450(2) 0.3862(2)
C10 C 1.0502(4) 0.3742(2) 0.4381(2)
H5 H 0.9691 0.3873 0.4743
C11 C 1.1124(5) 0.2840(2) 0.4373(2)
H6 H 1.0751 0.2350 0.4728
C12 C 1.2298(4) 0.2677(2) 0.3836(2)
C13 C 1.2872(4) 0.3364(3) 0.3323(3)
H7 H 1.3684 0.3231 0.2962
C14 C 1.2246(4) 0.4264(3) 0.3338(3)
H8 H 1.2637 0.4752 0.2988
C15 C 0.5604(4) 0.5464(2) 0.30902(18)
C16 C 0.6254(3) 0.4583(2) 0.28590(19)
C17 C 0.5685(4) 0.4364(2) 0.22759(19)
H9 H 0.4855 0.4754 0.2052
C18 C 0.6323(4) 0.3583(2) 0.2024(2)
H10 H 0.5964 0.3439 0.1618
C19 C 0.7500(4) 0.3020(2) 0.2381(2)
C20 C 0.8082(4) 0.3207(2) 0.2963(2)
H11 H 0.8885 0.2798 0.3198
C21 C 0.7463(4) 0.4009(2) 0.3196(2)
H12 H 0.7863 0.4166 0.3583
C22 C 0.9586(4) 0.8332(2) 0.36769(18)
C23 C 0.8901(4) 0.9227(2) 0.38827(19)
C24 C 0.9779(4) 0.9800(2) 0.3996(2)
H13 H 1.0827 0.9652 0.3905
C25 C 0.9137(5) 1.0585(2) 0.4242(2)
H14 H 0.9729 1.0980 0.4326
C26 C 0.7598(5) 1.0780(3) 0.4361(2)
C27 C 0.6693(5) 1.0239(3) 0.4223(2)
H15 H 0.5644 1.0400 0.4293
C28 C 0.7363(4) 0.9461(3) 0.3980(2)
H16 H 0.6769 0.9078 0.3878
C29 C 1.0297(3) 0.8285(2) 0.18170(18)
C30 C 0.9355(3) 0.8964(2) 0.12651(18)
C31 C 0.9494(4) 0.9880(2) 0.10937(19)
H17 H 1.0203 1.0069 0.1317
C32 C 0.8595(4) 1.0519(2) 0.0596(2)
H18 H 0.8649 1.1150 0.0489
C33 C 0.7619(4) 1.0207(3) 0.0262(2)
C34 C 0.7499(4) 0.9298(3) 0.0403(2)
H19 H 0.6847 0.9105 0.0148
C35 C 0.8350(4) 0.8672(3) 0.0925(2)
H20 H 0.8251 0.8047 0.1050
C36 C 0.5080(4) 0.8537(2) 0.26666(18)
C37 C 0.4543(4) 0.9541(2) 0.23695(18)
C38 C 0.5555(4) 1.0119(2) 0.2045(2)
H21 H 0.6587 0.9882 0.2021
C39 C 0.5066(4) 1.1037(2) 0.1756(2)
H22 H 0.5745 1.1435 0.1518
C40 C 0.3552(4) 1.1358(2) 0.1826(2)
C41 C 0.2514(4) 1.0804(3) 0.2149(3)
H23 H 0.1484 1.1048 0.2187
C42 C 0.3029(4) 0.9880(2) 0.2415(2)
H24 H 0.2346 0.9478 0.2630
N1 N 0.8064(4) 0.3848(2) -0.01871(17)
N2 N 1.2945(4) 0.1722(2) 0.38061(19)
N3 N 0.8196(4) 0.2193(2) 0.2098(2)
N4 N 0.6905(5) 1.1577(3) 0.4678(2)
N5 N 0.6644(4) 1.0869(3) -0.0262(2)
N6 N 0.3022(4) 1.2347(2) 0.1558(3)
O1 O 0.7301(2) 0.67491(16) 0.18731(14)
O2 O 0.9280(2) 0.58088(15) 0.23046(13)
O3 O 0.6889(3) 0.3969(2) -0.04635(17)
O4 O 0.9130(3) 0.32621(19) -0.03051(17)
O5 O 0.8969(3) 0.55779(15) 0.40677(13)
O6 O 1.0978(3) 0.60646(15) 0.34519(14)
O7 O 1.2359(4) 0.11112(19) 0.42117(19)
O8 O 1.4058(3) 0.1602(2) 0.3361(2)
O9 O 0.4283(3) 0.57888(16) 0.29793(14)
O10 O 0.6414(3) 0.58221(17) 0.33750(15)
O11 O 0.8028(4) 0.2189(2) 0.1455(2)
O12 O 0.8907(4) 0.1571(2) 0.2525(2)
O13 O 0.8732(3) 0.77636(16) 0.37720(13)
O14 O 1.0933(2) 0.82067(16) 0.34382(14)
O15 O 0.5543(4) 1.1726(3) 0.4807(2)
O16 O 0.7725(5) 1.2042(2) 0.48019(19)
O17 O 0.9758(2) 0.76319(15) 0.22678(13)
O18 O 1.1614(2) 0.83738(16) 0.18174(13)
O19 O 0.6011(3) 1.0587(3) -0.06712(18)
O20 O 0.6520(4) 1.1678(2) -0.02536(18)
O21 O 0.4132(3) 0.80249(16) 0.29055(14)
O22 O 0.6460(2) 0.82628(15) 0.26712(14)
O23 O 0.1705(4) 1.2640(2) 0.1724(3)
O24 O 0.3905(4) 1.2827(2) 0.1210(2)
O25 O 0.6144(2) 0.70198(16) 0.42176(14)
O26 O 1.2108(3) 0.62252(17) 0.19596(14)
O27 O 1.3121(3) 0.67640(16) 0.41368(13)
O28 O 1.4336(2) 0.71951(17) 0.16692(14)
Tb1 Tb 0.798368(16) 0.688702(10) 0.311421(8)
Tb2 Tb 1.252188(15) 0.711356(9) 0.280926(8)
O9_2 O 1.4283(3) 0.57888(16) 0.29793(14)
O21_2 O 1.4132(3) 0.80249(16) 0.29055(14)
Tb2_2 Tb 0.252188(15) 0.711356(9) 0.280926(8)
O29 O 0.3465(3) 0.50446(19) 0.48947(17)
loop_
_geom_bond_atom_site_label_1
_geom_bond_atom_site_label_2
_geom_bond_site_symmetry_1
_geom_bond_site_symmetry_2
C1 C2 1_555 1_555
C2 C3 1_555 1_555
C3 H1 1_555 1_555
C4 C3 1_555 1_555
H2 C4 1_555 1_555
C5 C4 1_555 1_555
C6 C5 1_555 1_555
H3 C6 1_555 1_555
C7 C2 1_555 1_555
H4 C7 1_555 1_555
C8 C9 1_555 1_555
C9 C10 1_555 1_555
C10 H5 1_555 1_555
C11 C10 1_555 1_555
H6 C11 1_555 1_555
C12 C11 1_555 1_555
C13 C12 1_555 1_555
H7 C13 1_555 1_555
C14 C9 1_555 1_555
H8 C14 1_555 1_555
C15 C16 1_555 1_555
C16 C17 1_555 1_555
C17 H9 1_555 1_555
C18 C17 1_555 1_555
H10 C18 1_555 1_555
C19 C18 1_555 1_555
C20 C19 1_555 1_555
H11 C20 1_555 1_555
C21 C16 1_555 1_555
H12 C21 1_555 1_555
C22 C23 1_555 1_555
C23 C24 1_555 1_555
C24 H13 1_555 1_555
C25 C24 1_555 1_555
H14 C25 1_555 1_555
C26 C25 1_555 1_555
C27 C26 1_555 1_555
H15 C27 1_555 1_555
C28 C23 1_555 1_555
H16 C28 1_555 1_555
C29 C30 1_555 1_555
C30 C31 1_555 1_555
C31 H17 1_555 1_555
C32 C31 1_555 1_555
H18 C32 1_555 1_555
C33 C32 1_555 1_555
C34 C33 1_555 1_555
H19 C34 1_555 1_555
C35 C30 1_555 1_555
H20 C35 1_555 1_555
C36 C37 1_555 1_555
C37 C38 1_555 1_555
C38 H21 1_555 1_555
C39 C38 1_555 1_555
H22 C39 1_555 1_555
C40 C39 1_555 1_555
C41 C40 1_555 1_555
H23 C41 1_555 1_555
C42 C37 1_555 1_555
H24 C42 1_555 1_555
N1 C5 1_555 1_555
N2 C12 1_555 1_555
N3 C19 1_555 1_555
N4 C26 1_555 1_555
N5 C33 1_555 1_555
N6 C40 1_555 1_555
O1 C1 1_555 1_555
O2 C1 1_555 1_555
O3 N1 1_555 1_555
O4 N1 1_555 1_555
O5 C8 1_555 1_555
O6 C8 1_555 1_555
O7 N2 1_555 1_555
O8 N2 1_555 1_555
O9 C15 1_555 1_555
O10 C15 1_555 1_555
O11 N3 1_555 1_555
O12 N3 1_555 1_555
O13 C22 1_555 1_555
O14 C22 1_555 1_555
O15 N4 1_555 1_555
O16 N4 1_555 1_555
O17 C29 1_555 1_555
O18 C29 1_555 1_555
O19 N5 1_555 1_555
O20 N5 1_555 1_555
O21 C36 1_555 1_555
O22 C36 1_555 1_555
O23 N6 1_555 1_555
O24 N6 1_555 1_555
O25 Tb1 1_555 1_555
O26 Tb2 1_555 1_555
O27 Tb2 1_555 1_555
O28 Tb2 1_555 1_555
Tb1 O1 1_555 1_555
Tb2 O6 1_555 1_555
O9_2 Tb2 1_555 1_555
O21_2 Tb2 1_555 1_555
Tb2_2 O9 1_555 1_555
C6 C7 1_555 1_555
C13 C14 1_555 1_555
C20 C21 1_555 1_555
C27 C28 1_555 1_555
C34 C35 1_555 1_555
C41 C42 1_555 1_555
O2 Tb1 1_555 1_555
O5 Tb1 1_555 1_555
O6 Tb1 1_555 1_555
O10 Tb1 1_555 1_555
O13 Tb1 1_555 1_555
O14 Tb2 1_555 1_555
O17 Tb1 1_555 1_555
O17 Tb2 1_555 1_555
O18 Tb2 1_555 1_555
O21 Tb2_2 1_555 1_555
O22 Tb1 1_555 1_555

#END
