
#######################################################################
#
#                 Cambridge Crystallographic Data Centre
#                                CCDC 
#
#######################################################################
#
# If this CIF has been generated from an entry in the Cambridge 
# Structural Database, then it will include bibliographic, chemical, 
# crystal, experimental, refinement or atomic coordinate data resulting 
# from the CCDC's data processing and validation procedures.
#
#######################################################################

data_LESWOW
_symmetry_cell_setting           triclinic
_symmetry_space_group_name_H-M   'P -1'
_symmetry_Int_Tables_number      2
_space_group_name_Hall           '-P 1'
loop_
_symmetry_equiv_pos_site_id
_symmetry_equiv_pos_as_xyz
1 x,y,z
2 -x,-y,-z
_cell_length_a                   9.3191(9)
_cell_length_b                   10.2656(10)
_cell_length_c                   12.8970(12)
_cell_angle_alpha                67.808(2)
_cell_angle_beta                 85.8540(10)
_cell_angle_gamma                71.838(2)
_cell_volume                     1084.05
loop_
_atom_site_label
_atom_site_type_symbol
_atom_site_fract_x
_atom_site_fract_y
_atom_site_fract_z
Pb1 Pb 0.42571(5) 0.24680(5) -0.14410(4)
Pb2 Pb 0.08609(5) 0.58729(5) -0.38829(4)
C1 C 0.3344(15) 0.1326(13) -0.3798(10)
C2 C 0.4917(13) 0.0789(13) -0.3656(10)
H1 H 0.5459 0.1390 -0.3610
C3 C 0.5680(14) -0.0659(13) -0.3583(10)
C4 C 0.4819(14) -0.1545(14) -0.3635(10)
H2 H 0.5312 -0.2506 -0.3589
C5 C 0.3239(15) -0.1012(12) -0.3755(10)
C6 C 0.2531(14) 0.0442(13) -0.3850(10)
H3 H 0.1483 0.0823 -0.3951
C7 C 0.2564(15) 0.2900(13) -0.3921(11)
C8 C 0.7318(15) -0.1235(14) -0.3520(10)
C9 C 0.2373(15) -0.1973(13) -0.3808(10)
C10 C -0.0502(13) -0.1339(13) -0.1188(10)
C11 C 0.0350(14) -0.0459(13) -0.1157(11)
H4 H -0.0126 0.0511 -0.1219
C12 C 0.1920(15) -0.1038(14) -0.1032(11)
C13 C 0.2673(15) -0.2485(12) -0.0947(10)
H5 H 0.3718 -0.2882 -0.0827
C14 C 0.1775(14) -0.3321(12) -0.1051(10)
C15 C 0.0214(14) -0.2761(13) -0.1153(10)
H6 H -0.0357 -0.3339 -0.1198
C16 C 0.2826(14) -0.0064(13) -0.1022(10)
C17 C 0.2570(14) -0.4848(13) -0.1047(11)
C18 C -0.2138(15) -0.0703(13) -0.1273(10)
O1 O 0.1338(11) 0.3584(10) -0.4518(9)
O2 O 0.3094(10) 0.3490(9) -0.3423(7)
O3 O 0.8033(10) -0.0241(9) -0.3722(8)
H7 H 0.8937 -0.0622 -0.3771
O4 O 0.7991(10) -0.2545(9) -0.3286(8)
O5 O 0.3089(11) -0.3230(9) -0.3832(8)
O6 O 0.0943(10) -0.1495(9) -0.3877(8)
O7 O 0.4256(10) -0.0634(10) -0.0818(8)
O8 O 0.2177(10) 0.1277(9) -0.1222(8)
O9 O 0.2021(10) -0.5300(9) -0.1658(7)
O10 O 0.3834(11) -0.5577(10) -0.0506(8)
O11 O -0.2904(10) -0.1666(9) -0.1121(8)
H8 H -0.3796 -0.1285 -0.1035
O12 O -0.2795(10) 0.0611(10) -0.1489(8)
O13 O 0.5547(11) 0.4306(10) -0.2818(9)
O14 O 0.1625(16) 0.6842(15) -0.5877(9)
Pb1_2 Pb 0.42571(5) -0.75320(5) -0.14410(4)
Pb2_2 Pb 0.08609(5) -0.41271(5) -0.38829(4)
O5_2 O 0.3089(11) 0.6770(9) -0.3832(8)
O6_2 O 0.0943(10) 0.8505(9) -0.3877(8)
O9_2 O 0.2021(10) 0.4700(9) -0.1658(7)
O10_2 O 0.3834(11) 0.4423(10) -0.0506(8)
O15 O -0.3001(13) 0.5256(11) -0.1597(9)
O16 O -0.0440(12) 0.3577(11) -0.2357(9)
loop_
_geom_bond_atom_site_label_1
_geom_bond_atom_site_label_2
_geom_bond_site_symmetry_1
_geom_bond_site_symmetry_2
Pb1 O2 1_555 1_555
Pb2 O1 1_555 1_555
C1 C2 1_555 1_555
C2 H1 1_555 1_555
C3 C2 1_555 1_555
C4 C3 1_555 1_555
H2 C4 1_555 1_555
C5 C4 1_555 1_555
C6 C1 1_555 1_555
H3 C6 1_555 1_555
C7 C1 1_555 1_555
C8 C3 1_555 1_555
C9 C5 1_555 1_555
C10 C11 1_555 1_555
C11 H4 1_555 1_555
C12 C11 1_555 1_555
C13 C12 1_555 1_555
H5 C13 1_555 1_555
C14 C13 1_555 1_555
C15 C10 1_555 1_555
H6 C15 1_555 1_555
C16 C12 1_555 1_555
C17 C14 1_555 1_555
C18 C10 1_555 1_555
O1 C7 1_555 1_555
O2 Pb2 1_555 1_555
O3 C8 1_555 1_555
H7 O3 1_555 1_555
O4 C8 1_555 1_555
O5 C9 1_555 1_555
O6 C9 1_555 1_555
O7 C16 1_555 1_555
O8 Pb1 1_555 1_555
O9 C17 1_555 1_555
O10 C17 1_555 1_555
O11 C18 1_555 1_555
H8 O11 1_555 1_555
O12 C18 1_555 1_555
O13 Pb1 1_555 1_555
O14 Pb2 1_555 1_555
Pb1_2 O9 1_555 1_555
Pb2_2 O5 1_555 1_555
O5_2 Pb2 1_555 1_555
O6_2 Pb2 1_555 1_555
O9_2 Pb1 1_555 1_555
O10_2 Pb1 1_555 1_555
C5 C6 1_555 1_555
C7 O2 1_555 1_555
C14 C15 1_555 1_555
C16 O8 1_555 1_555
O6 Pb2_2 1_555 1_555
O10 Pb1_2 1_555 1_555

#END
