
#######################################################################
#
#                 Cambridge Crystallographic Data Centre
#                                CCDC 
#
#######################################################################
#
# If this CIF has been generated from an entry in the Cambridge 
# Structural Database, then it will include bibliographic, chemical, 
# crystal, experimental, refinement or atomic coordinate data resulting 
# from the CCDC's data processing and validation procedures.
#
#######################################################################

data_LESZEP
_symmetry_cell_setting           monoclinic
_symmetry_space_group_name_H-M   'P c'
_symmetry_Int_Tables_number      7
_space_group_name_Hall           'P -2yc'
loop_
_symmetry_equiv_pos_site_id
_symmetry_equiv_pos_as_xyz
1 x,y,z
2 x,-y,1/2+z
_cell_length_a                   5.6550(7)
_cell_length_b                   15.4504(18)
_cell_length_c                   8.1286(9)
_cell_angle_alpha                90
_cell_angle_beta                 97.531(2)
_cell_angle_gamma                90
_cell_volume                     704.086
loop_
_atom_site_label
_atom_site_type_symbol
_atom_site_fract_x
_atom_site_fract_y
_atom_site_fract_z
Cu1 Cu 0.98505(12) 0.80354(5) 1.27467(10)
Cu2 Cu 0.82077(15) 0.62133(5) 1.24771(12)
N1 N 0.7888(9) 0.7687(3) 1.0612(6)
N2 N 0.6779(10) 0.6913(3) 1.0666(7)
N3 N 0.8844(10) 1.0705(3) 0.8264(7)
N4 N 0.0227(10) 0.4744(3) 0.8245(7)
N5 N 1.3108(10) 0.7816(4) 1.3575(8)
S1 S 1.7653(3) 0.71891(11) 1.4811(2)
C1 C 0.5984(12) 0.9570(4) 0.7993(8)
H1 H 0.4454 0.9390 0.7573
C2 C 0.6707(13) 1.0398(4) 0.7708(8)
H2 H 0.5631 1.0764 0.7088
C3 C 1.0360(12) 1.0164(4) 0.9131(8)
H3 H 1.1875 1.0367 0.9529
C4 C 0.9808(12) 0.9315(4) 0.9475(9)
H4 H 1.0937 0.8960 1.0074
C5 C 0.7537(12) 0.9002(4) 0.8909(7)
C6 C 0.6781(12) 0.8131(4) 0.9328(8)
C7 C 0.4841(11) 0.7669(4) 0.8556(8)
H5 H 0.3737 0.7840 0.7665
C8 C 0.4934(11) 0.6887(4) 0.9434(8)
C9 C 0.3314(12) 0.6141(4) 0.9094(7)
C10 C 0.1029(13) 0.6278(4) 0.8285(9)
H6 H 0.0487 0.6836 0.8023
C11 C -0.0432(13) 0.5570(4) 0.7873(9)
H7 H -0.1949 0.5668 0.7311
C12 C 0.2385(13) 0.4632(4) 0.9091(10)
H8 H 0.2850 0.4073 0.9411
C13 C 0.3971(13) 0.5298(4) 0.9519(9)
H9 H 0.5472 0.5182 1.0090
C14 C 1.4986(12) 0.7565(4) 1.4086(8)
Cu1A Cu 0.98505(12) 1.19646(5) 0.77467(10)
Cu1_2 Cu 1.98505(12) 0.80354(5) 1.27467(10)
Cu2A Cu -0.17923(15) 0.37867(5) 0.74771(12)
Cu2_2 Cu 1.82077(15) 0.62133(5) 1.24771(12)
N3A N 0.8844(10) 0.9295(3) 1.3264(7)
N4A N 1.0227(10) 0.5256(3) 1.3245(7)
S1_2 S 0.7653(3) 0.71891(11) 1.4811(2)
loop_
_geom_bond_atom_site_label_1
_geom_bond_atom_site_label_2
_geom_bond_site_symmetry_1
_geom_bond_site_symmetry_2
Cu1 N1 1_555 1_555
Cu2 N2 1_555 1_555
N1 N2 1_555 1_555
N2 C8 1_555 1_555
N3 C2 1_555 1_555
N4 C11 1_555 1_555
N5 Cu1 1_555 1_555
S1 C14 1_555 1_555
C1 H1 1_555 1_555
C2 C1 1_555 1_555
H2 C2 1_555 1_555
C3 N3 1_555 1_555
H3 C3 1_555 1_555
C4 C3 1_555 1_555
H4 C4 1_555 1_555
C5 C1 1_555 1_555
C6 N1 1_555 1_555
C7 C6 1_555 1_555
H5 C7 1_555 1_555
C8 C7 1_555 1_555
C9 C8 1_555 1_555
C10 C9 1_555 1_555
H6 C10 1_555 1_555
C11 C10 1_555 1_555
H7 C11 1_555 1_555
C12 N4 1_555 1_555
H8 C12 1_555 1_555
C13 C9 1_555 1_555
H9 C13 1_555 1_555
C14 N5 1_555 1_555
Cu1A N3 1_555 1_555
Cu1_2 S1 1_555 1_555
Cu2A N4 1_555 1_555
Cu2_2 S1 1_555 1_555
N3A Cu1 1_555 1_555
N4A Cu2 1_555 1_555
S1_2 Cu1 1_555 1_555
Cu2 S1_2 1_555 1_555
C4 C5 1_555 1_555
C5 C6 1_555 1_555
C12 C13 1_555 1_555

#END
