
#######################################################################
#
#                 Cambridge Crystallographic Data Centre
#                                CCDC 
#
#######################################################################
#
# If this CIF has been generated from an entry in the Cambridge 
# Structural Database, then it will include bibliographic, chemical, 
# crystal, experimental, refinement or atomic coordinate data resulting 
# from the CCDC's data processing and validation procedures.
#
#######################################################################

data_LETBUI
_symmetry_cell_setting           triclinic
_symmetry_space_group_name_H-M   'P -1'
_symmetry_Int_Tables_number      2
_space_group_name_Hall           '-P 1'
loop_
_symmetry_equiv_pos_site_id
_symmetry_equiv_pos_as_xyz
1 x,y,z
2 -x,-y,-z
_cell_length_a                   10.697(14)
_cell_length_b                   10.926(7)
_cell_length_c                   26.82(2)
_cell_angle_alpha                115.63(7)
_cell_angle_beta                 45.83(13)
_cell_angle_gamma                128.98(7)
_cell_volume                     1747.71
loop_
_atom_site_label
_atom_site_type_symbol
_atom_site_fract_x
_atom_site_fract_y
_atom_site_fract_z
C1 C -0.2555(10) 0.1625(8) 0.0740(3)
C2 C 0.2278(10) 0.3564(8) -0.0317(3)
C3 C -0.2062(11) -0.0428(8) 0.1508(3)
H1 H -0.3242 -0.0815 0.1568
C4 C -0.2231(11) -0.0254(9) 0.2083(4)
H2 H -0.3499 -0.0485 0.2528
C5 C -0.0569(11) 0.0260(8) 0.2030(3)
C6 C 0.1191(11) 0.0528(9) 0.1362(3)
H3 H 0.2366 0.0843 0.1287
C7 C 0.1270(11) 0.0346(9) 0.0803(4)
H4 H 0.2508 0.053 0.0351
C8 C -0.0715(11) 0.0496(9) 0.2657(3)
C9 C -0.2521(11) -0.0093(9) 0.3291(4)
H5 H -0.3745 -0.0656 0.335
C10 C -0.2571(12) 0.0129(9) 0.3856(4)
H6 H -0.3842 -0.0283 0.4298
C11 C -0.0819(11) 0.0935(9) 0.3790(4)
C12 C 0.1012(11) 0.1551(8) 0.3142(3)
H7 H 0.2237 0.2148 0.3086
C13 C 0.1078(11) 0.1313(9) 0.2586(4)
H8 H 0.2349 0.1703 0.2142
C14 C -0.0860(12) 0.1144(10) 0.4380(4)
C15 C 0.1132(11) 0.3695(9) -0.1428(4)
H9 H 0.233 0.4045 -0.151
C16 C 0.1072(12) 0.3174(9) -0.1981(4)
H10 H 0.2221 0.3184 -0.2435
C17 C -0.0705(11) 0.2623(8) -0.1875(3)
C18 C -0.2293(11) 0.2624(9) -0.1205(4)
H11 H -0.3528 0.2243 -0.1105
C19 C -0.2150(11) 0.3166(9) -0.0666(4)
H12 H -0.3294 0.3138 -0.0206
C20 C -0.0731(11) 0.2227(9) -0.2466(4)
C21 C 0.0989(11) 0.2805(9) -0.3114(4)
H13 H 0.2256 0.3422 -0.3196
C22 C 0.0949(12) 0.2519(9) -0.3660(4)
H14 H 0.2179 0.2941 -0.4109
C23 C -0.0901(11) 0.1610(9) -0.3552(4)
C24 C -0.2652(12) 0.0960(9) -0.2906(4)
H15 H -0.392 0.0306 -0.2825
C25 C -0.2553(11) 0.1266(9) -0.2375(4)
H16 H -0.3773 0.0804 -0.193
C26 C -0.0938(12) 0.1389(9) -0.4128(4)
N1 N -0.1956(9) 0.0867(7) 0.0627(3)
N2 N 0.1688(9) 0.4143(7) -0.0343(3)
N3 N -0.0322(9) -0.0084(7) 0.0860(3)
N4 N -0.0429(9) 0.3733(7) -0.0777(3)
O1 O -0.2581(8) 0.0535(7) 0.4964(3)
H17 H -0.2419 0.0726 0.526
O2 O 0.0790(8) 0.1846(7) 0.4282(3)
O3 O 0.0752(8) 0.1896(6) -0.4731(3)
H18 H 0.0546 0.1709 -0.5014
O4 O -0.2643(8) 0.0702(7) -0.4000(3)
S1 S -0.3334(3) 0.2703(2) 0.08745(10)
S2 S 0.2961(3) 0.2736(2) -0.02339(10)
Ni1 Ni 0.0000 0.0000 0.00000
Ni2 Ni 0.0000 0.5000 0.00000
C1A C 0.2555(10) -0.1625(8) -0.0740(3)
C2A C -0.2278(10) -0.3564(8) 0.0317(3)
C3A C 0.2062(11) 0.0428(8) -0.1508(3)
H1A H 0.3242 0.0815 -0.1568
C4A C 0.2231(11) 0.0254(9) -0.2083(4)
H2A H 0.3499 0.0485 -0.2528
C5A C 0.0569(11) -0.0260(8) -0.2030(3)
C6A C -0.1191(11) -0.0528(9) -0.1362(3)
H3A H -0.2366 -0.0843 -0.1287
C7A C -0.1270(11) -0.0346(9) -0.0803(4)
H4A H -0.2508 -0.053 -0.0351
C8A C 0.0715(11) -0.0496(9) -0.2657(3)
C9A C 0.2521(11) 0.0093(9) -0.3291(4)
H5A H 0.3745 0.0656 -0.335
C10A C 0.2571(12) -0.0129(9) -0.3856(4)
H6A H 0.3842 0.0283 -0.4298
C11A C 0.0819(11) -0.0935(9) -0.3790(4)
C12A C -0.1012(11) -0.1551(8) -0.3142(3)
H7A H -0.2237 -0.2148 -0.3086
C13A C -0.1078(11) -0.1313(9) -0.2586(4)
H8A H -0.2349 -0.1703 -0.2142
C14A C 0.0860(12) -0.1144(10) -0.4380(4)
C15A C -0.1132(11) 0.6305(9) 0.1428(4)
H9A H -0.233 0.5955 0.151
C16A C -0.1072(12) 0.6826(9) 0.1981(4)
H10A H -0.2221 0.6816 0.2435
C17A C 0.0705(11) 0.7377(8) 0.1875(3)
C18A C 0.2293(11) 0.7376(9) 0.1205(4)
H11A H 0.3528 0.7757 0.1105
C19A C 0.2150(11) 0.6834(9) 0.0666(4)
H12A H 0.3294 0.6862 0.0206
C20A C 0.0731(11) 0.7773(9) 0.2466(4)
C21A C -0.0989(11) 0.7195(9) 0.3114(4)
H13A H -0.2256 0.6578 0.3196
C22A C -0.0949(12) 0.7481(9) 0.3660(4)
H14A H -0.2179 0.7059 0.4109
C23A C 0.0901(11) 0.8390(9) 0.3552(4)
C24A C 0.2652(12) 0.9040(9) 0.2906(4)
H15A H 0.392 0.9694 0.2825
C25A C 0.2553(11) 0.8734(9) 0.2375(4)
H16A H 0.3773 0.9196 0.193
C26A C 0.0938(12) 0.8611(9) 0.4128(4)
N1A N 0.1956(9) -0.0867(7) -0.0627(3)
N2A N -0.1688(9) -0.4143(7) 0.0343(3)
N2A_2 N -0.1688(9) 0.5857(7) 0.0343(3)
N3A N 0.0322(9) 0.0084(7) -0.0860(3)
N4A N 0.0429(9) 0.6267(7) 0.0777(3)
O1A O 0.2581(8) -0.0535(7) -0.4964(3)
H17A H 0.2419 -0.0726 -0.526
O2A O -0.0790(8) -0.1846(7) -0.4282(3)
O3A O -0.0752(8) 0.8104(6) 0.4731(3)
H18A H -0.0546 0.8291 0.5014
O4A O 0.2643(8) 0.9298(7) 0.4000(3)
S1A S 0.3334(3) -0.2703(2) -0.08745(10)
S1A_2 S 0.3334(3) 0.7297(2) -0.08745(10)
S2A S -0.2961(3) -0.2736(2) 0.02339(10)
Ni2_2 Ni 0.0000 -0.5000 0.00000
C27 C 0.0101(16) 0.4989(11) 0.4213(5)
H19 H -0.0603 0.4936 0.4697
C28 C -0.0993(14) 0.4407(10) 0.3961(5)
C29 C -0.3090(13) 0.3758(10) 0.4393(5)
H20 H -0.3846 0.3657 0.4878
C30 C -0.4061(13) 0.3269(11) 0.4132(4)
H21 H -0.5477 0.2869 0.4445
C31 C -0.3045(12) 0.3333(10) 0.3411(4)
C32 C -0.4012(14) 0.2877(10) 0.3133(5)
H22 H -0.5421 0.2497 0.3433
C33 C -0.2933(15) 0.2980(11) 0.2436(5)
H23 H -0.361 0.2654 0.2255
C34 C -0.0901(15) 0.3540(10) 0.1989(5)
H24 H -0.0189 0.3612 0.1506
C35 C 0.0168(13) 0.4019(10) 0.2238(4)
C36 C 0.2279(14) 0.4653(10) 0.1808(5)
H25 H 0.3028 0.4703 0.132
C37 C 0.3272(14) 0.5190(10) 0.2064(5)
H26 H 0.4694 0.5615 0.1752
C38 C 0.2276(13) 0.5139(10) 0.2771(5)
C39 C 0.3228(14) 0.5692(10) 0.3062(5)
H27 H 0.4648 0.6124 0.2769
C40 C 0.2137(15) 0.5621(11) 0.3771(5)
H28 H 0.2831 0.6027 0.3956
C41 C 0.0106(12) 0.4473(9) 0.3234(4)
C42 C -0.0911(11) 0.3938(9) 0.2953(4)
loop_
_geom_bond_atom_site_label_1
_geom_bond_atom_site_label_2
_geom_bond_site_symmetry_1
_geom_bond_site_symmetry_2
C1 N1 1_555 1_555
C2 N2 1_555 1_555
C3 H1 1_555 1_555
C4 C3 1_555 1_555
H2 C4 1_555 1_555
C5 C4 1_555 1_555
C6 C5 1_555 1_555
H3 C6 1_555 1_555
C7 C6 1_555 1_555
H4 C7 1_555 1_555
C8 C5 1_555 1_555
C9 C8 1_555 1_555
H5 C9 1_555 1_555
C10 C9 1_555 1_555
H6 C10 1_555 1_555
C11 C10 1_555 1_555
C12 C11 1_555 1_555
H7 C12 1_555 1_555
C13 C8 1_555 1_555
H8 C13 1_555 1_555
C14 C11 1_555 1_555
C15 H9 1_555 1_555
C16 C15 1_555 1_555
H10 C16 1_555 1_555
C17 C16 1_555 1_555
C18 C17 1_555 1_555
H11 C18 1_555 1_555
C19 C18 1_555 1_555
H12 C19 1_555 1_555
C20 C17 1_555 1_555
C21 C20 1_555 1_555
H13 C21 1_555 1_555
C22 C21 1_555 1_555
H14 C22 1_555 1_555
C23 C22 1_555 1_555
C24 C23 1_555 1_555
H15 C24 1_555 1_555
C25 C20 1_555 1_555
H16 C25 1_555 1_555
C26 C23 1_555 1_555
N1 Ni1 1_555 1_555
N2 Ni2 1_555 1_555
N3 C3 1_555 1_555
N4 C15 1_555 1_555
O1 C14 1_555 1_555
H17 O1 1_555 1_555
O2 C14 1_555 1_555
O3 C26 1_555 1_555
H18 O3 1_555 1_555
O4 C26 1_555 1_555
S1 C1 1_555 1_555
S2 C2 1_555 1_555
Ni1 N3 1_555 1_555
Ni2 N4 1_555 1_555
C27 H19 1_555 1_555
C28 C27 1_555 1_555
C29 C28 1_555 1_555
H20 C29 1_555 1_555
C30 C29 1_555 1_555
H21 C30 1_555 1_555
C31 C30 1_555 1_555
C32 C31 1_555 1_555
H22 C32 1_555 1_555
C33 C32 1_555 1_555
H23 C33 1_555 1_555
C34 C33 1_555 1_555
H24 C34 1_555 1_555
C35 C34 1_555 1_555
C36 C35 1_555 1_555
H25 C36 1_555 1_555
C37 C36 1_555 1_555
H26 C37 1_555 1_555
C38 C37 1_555 1_555
C39 C38 1_555 1_555
H27 C39 1_555 1_555
C40 C27 1_555 1_555
H28 C40 1_555 1_555
C41 C28 1_555 1_555
C42 C31 1_555 1_555
C1A N1A 1_555 1_555
C2A N2A 1_555 1_555
C3A H1A 1_555 1_555
C4A C3A 1_555 1_555
H2A C4A 1_555 1_555
C5A C4A 1_555 1_555
C6A C5A 1_555 1_555
H3A C6A 1_555 1_555
C7A C6A 1_555 1_555
H4A C7A 1_555 1_555
C8A C5A 1_555 1_555
C9A C8A 1_555 1_555
H5A C9A 1_555 1_555
C10A C9A 1_555 1_555
H6A C10A 1_555 1_555
C11A C10A 1_555 1_555
C12A C11A 1_555 1_555
H7A C12A 1_555 1_555
C13A C8A 1_555 1_555
H8A C13A 1_555 1_555
C14A C11A 1_555 1_555
C15A H9A 1_555 1_555
C16A C15A 1_555 1_555
H10A C16A 1_555 1_555
C17A C16A 1_555 1_555
C18A C17A 1_555 1_555
H11A C18A 1_555 1_555
C19A C18A 1_555 1_555
H12A C19A 1_555 1_555
C20A C17A 1_555 1_555
C21A C20A 1_555 1_555
H13A C21A 1_555 1_555
C22A C21A 1_555 1_555
H14A C22A 1_555 1_555
C23A C22A 1_555 1_555
C24A C23A 1_555 1_555
H15A C24A 1_555 1_555
C25A C20A 1_555 1_555
H16A C25A 1_555 1_555
C26A C23A 1_555 1_555
N1A Ni1 1_555 1_555
N2A Ni2_2 1_555 1_555
N2A_2 Ni2 1_555 1_555
N3A Ni1 1_555 1_555
N4A Ni2 1_555 1_555
O1A C14A 1_555 1_555
H17A O1A 1_555 1_555
O2A C14A 1_555 1_555
O3A C26A 1_555 1_555
H18A O3A 1_555 1_555
O4A C26A 1_555 1_555
S1A C1A 1_555 1_555
S1A_2 Ni2 1_555 1_555
S2A Ni1 1_555 1_555
Ni2_2 S1A 1_555 1_555
C7 N3 1_555 1_555
C12 C13 1_555 1_555
C19 N4 1_555 1_555
C24 C25 1_555 1_555
S1 Ni2 1_555 1_555
S2 Ni1 1_555 1_555
C35 C42 1_555 1_555
C38 C41 1_555 1_555
C39 C40 1_555 1_555
C41 C42 1_555 1_555
C2A S2A 1_555 1_555
C3A N3A 1_555 1_555
C7A N3A 1_555 1_555
C12A C13A 1_555 1_555
C15A N4A 1_555 1_555
C19A N4A 1_555 1_555
C24A C25A 1_555 1_555

#END
