
#######################################################################
#
#                 Cambridge Crystallographic Data Centre
#                                CCDC 
#
#######################################################################
#
# If this CIF has been generated from an entry in the Cambridge 
# Structural Database, then it will include bibliographic, chemical, 
# crystal, experimental, refinement or atomic coordinate data resulting 
# from the CCDC's data processing and validation procedures.
#
#######################################################################

data_LETCET
_symmetry_cell_setting           triclinic
_symmetry_space_group_name_H-M   'P -1'
_symmetry_Int_Tables_number      2
_space_group_name_Hall           '-P 1'
loop_
_symmetry_equiv_pos_site_id
_symmetry_equiv_pos_as_xyz
1 x,y,z
2 -x,-y,-z
_cell_length_a                   10.9741(4)
_cell_length_b                   16.7648(4)
_cell_length_c                   33.6402(9)
_cell_angle_alpha                120.456(3)
_cell_angle_beta                 37.4460(10)
_cell_angle_gamma                134.530(5)
_cell_volume                     2664.78
loop_
_atom_site_label
_atom_site_type_symbol
_atom_site_fract_x
_atom_site_fract_y
_atom_site_fract_z
C1 C -0.3194(5) 0.0801(3) 0.06817(14)
C2 C 0.2430(5) 0.2467(2) -0.03730(14)
C3 C -0.3033(5) 0.4281(3) 0.06461(14)
C4 C -0.2157(6) 0.4047(3) 0.14279(15)
H1 H -0.3573 0.3705 0.1545
C5 C -0.2189(6) 0.4505(3) 0.19079(15)
H2 H -0.3601 0.4469 0.2342
C6 C -0.0147(6) 0.5022(3) 0.17580(16)
C7 C 0.1862(6) 0.5050(3) 0.11014(15)
H3 H 0.3315 0.5399 0.0967
C8 C 0.1742(6) 0.4575(3) 0.06515(16)
H4 H 0.3141 0.4616 0.021
C9 C -0.0139(6) 0.5445(3) 0.22614(16)
C10 C -0.2326(7) 0.5040(3) 0.29284(17)
H5 H -0.3837 0.4527 0.3061
C11 C -0.2319(8) 0.5374(4) 0.33955(19)
H6 H -0.3823 0.508 0.3844
C12 C -0.0123(8) 0.6142(4) 0.32156(19)
C13 C 0.2047(8) 0.6561(3) 0.25541(19)
H7 H 0.3554 0.7088 0.2424
C14 C 0.2065(7) 0.6232(3) 0.20813(18)
H8 H 0.357 0.6539 0.1634
C15 C -0.0263(11) 0.6396(5) 0.3733(3)
H9 H -0.1847 0.5985 0.4154
C16 C 0.1425(9) 0.7079(4) 0.3689(2)
H10 H 0.3025 0.7516 0.3277
C17 C 0.1105(11) 0.7268(5) 0.4258(2)
C18 C -0.2617(5) -0.0094(3) 0.14034(15)
H11 H -0.4007 -0.0482 0.1497
C19 C -0.2933(6) 0.0096(3) 0.19216(16)
H12 H -0.4515 -0.0166 0.236
C20 C -0.0916(5) 0.0679(3) 0.18025(15)
C21 C 0.1336(5) 0.1016(3) 0.11409(15)
H13 H 0.2764 0.1405 0.1029
C22 C 0.1488(5) 0.0786(3) 0.06524(15)
H14 H 0.3039 0.1025 0.0208
C23 C -0.1132(6) 0.0926(3) 0.23392(15)
C24 C -0.3344(6) 0.0313(3) 0.29605(16)
H15 H -0.4768 -0.0276 0.3048
C25 C -0.3486(7) 0.0553(4) 0.34506(17)
H16 H -0.5007 0.0125 0.3871
C26 C -0.1438(8) 0.1411(4) 0.33369(17)
C27 C 0.0788(7) 0.2040(3) 0.27150(18)
H17 H 0.2206 0.2635 0.263
C28 C 0.0929(7) 0.1797(3) 0.22240(17)
H18 H 0.2446 0.2228 0.1804
C29 C -0.1675(11) 0.1613(5) 0.3868(2)
H19 H -0.3249 0.1122 0.4265
C30 C -0.0103(10) 0.2334(5) 0.3865(2)
H20 H 0.1462 0.2849 0.3476
C31 C -0.0398(10) 0.2493(5) 0.4425(2)
C32 C -0.0720(6) 0.3110(3) -0.07486(17)
H21 H -0.0854 0.3724 -0.052
C33 C -0.0616(6) 0.2810(3) -0.12327(17)
H22 H -0.0692 0.3209 -0.1329
C34 C -0.0395(6) 0.1913(3) -0.15877(15)
C35 C -0.0328(7) 0.1372(3) -0.14061(18)
H23 H -0.019 0.0757 -0.1626
C36 C -0.0461(7) 0.1721(3) -0.09067(17)
H24 H -0.0421 0.1329 -0.0793
C37 C -0.0106(5) 0.1637(3) -0.21420(15)
C38 C -0.0818(6) 0.1989(3) -0.21960(16)
H25 H -0.1557 0.238 -0.1861
C39 C -0.0469(6) 0.1781(3) -0.27214(16)
H26 H -0.0977 0.2026 -0.2743
C40 C 0.0625(6) 0.1214(3) -0.32249(15)
C41 C 0.1355(7) 0.0870(3) -0.31789(17)
H27 H 0.2111 0.0488 -0.3517
C42 C 0.0994(7) 0.1077(3) -0.26471(17)
H28 H 0.1506 0.0833 -0.2626
C43 C 0.0922(6) 0.0919(3) -0.37760(16)
H29 H 0.1763 0.0568 -0.4106
C44 C 0.0116(6) 0.1098(3) -0.38580(16)
H30 H -0.054 0.1533 -0.3565
C45 C 0.0195(6) 0.0657(3) -0.43773(15)
N1 N -0.2429(5) 0.0366(2) 0.05470(13)
N2 N 0.1643(5) 0.2778(2) -0.03213(13)
N3 N -0.2526(5) 0.3758(2) 0.05665(13)
N4 N -0.0253(4) 0.4055(2) 0.08042(12)
N5 N -0.0446(5) 0.0239(2) 0.07726(12)
N6 N -0.0643(5) 0.2580(2) -0.05776(13)
O1 O -0.1092(7) 0.6590(3) 0.4810(2)
H43 H -0.107 0.6762 0.5088
O2 O 0.2842(8) 0.7978(3) 0.41524(17)
O3 O -0.2603(9) 0.1730(4) 0.4952(2)
H44 H -0.2636 0.1865 0.5237
O4 O 0.1253(8) 0.3225(4) 0.43451(18)
O5 O -0.0736(4) 0.0782(2) -0.43998(11)
O6 O 0.1221(5) 0.0108(2) -0.47937(11)
H45 H 0.1174 -0.0109 -0.507
S1 S -0.42477(14) 0.14267(7) 0.08692(4)
S2 S 0.35655(14) 0.20376(7) -0.04484(4)
S3 S -0.36939(14) 0.50286(7) 0.07421(4)
Ni1 Ni -0.04602(7) 0.32423(3) 0.011310(19)
Ni2 Ni 0.00000 0.00000 0.00000
C1A C 0.3194(5) -0.0801(3) -0.06817(14)
C2A C -0.2430(5) -0.2467(2) 0.03730(14)
C3A C 0.3033(5) 0.5719(3) -0.06461(14)
C4A C 0.2157(6) -0.4047(3) -0.14279(15)
H1A H 0.3573 -0.3705 -0.1545
C5A C 0.2189(6) -0.4505(3) -0.19079(15)
H2A H 0.3601 -0.4469 -0.2342
C6A C 0.0147(6) -0.5022(3) -0.17580(16)
C7A C -0.1862(6) -0.5050(3) -0.11014(15)
H3A H -0.3315 -0.5399 -0.0967
C8A C -0.1742(6) -0.4575(3) -0.06515(16)
H4A H -0.3141 -0.4616 -0.021
C9A C 0.0139(6) -0.5445(3) -0.22614(16)
C10A C 0.2326(7) -0.5040(3) -0.29284(17)
H5A H 0.3837 -0.4527 -0.3061
C11A C 0.2319(8) -0.5374(4) -0.33955(19)
H6A H 0.3823 -0.508 -0.3844
C12A C 0.0123(8) -0.6142(4) -0.32156(19)
C13A C -0.2047(8) -0.6561(3) -0.25541(19)
H7A H -0.3554 -0.7088 -0.2424
C14A C -0.2065(7) -0.6232(3) -0.20813(18)
H8A H -0.357 -0.6539 -0.1634
C15A C 0.0263(11) -0.6396(5) -0.3733(3)
H9A H 0.1847 -0.5985 -0.4154
C16A C -0.1425(9) -0.7079(4) -0.3689(2)
H10A H -0.3025 -0.7516 -0.3277
C17A C -0.1105(11) -0.7268(5) -0.4258(2)
C18A C 0.2617(5) 0.0094(3) -0.14034(15)
H11A H 0.4007 0.0482 -0.1497
C19A C 0.2933(6) -0.0096(3) -0.19216(16)
H12A H 0.4515 0.0166 -0.236
C20A C 0.0916(5) -0.0679(3) -0.18025(15)
C21A C -0.1336(5) -0.1016(3) -0.11409(15)
H13A H -0.2764 -0.1405 -0.1029
C22A C -0.1488(5) -0.0786(3) -0.06524(15)
H14A H -0.3039 -0.1025 -0.0208
C23A C 0.1132(6) -0.0926(3) -0.23392(15)
C24A C 0.3344(6) -0.0313(3) -0.29605(16)
H15A H 0.4768 0.0276 -0.3048
C25A C 0.3486(7) -0.0553(4) -0.34506(17)
H16A H 0.5007 -0.0125 -0.3871
C26A C 0.1438(8) -0.1411(4) -0.33369(17)
C27A C -0.0788(7) -0.2040(3) -0.27150(18)
H17A H -0.2206 -0.2635 -0.263
C28A C -0.0929(7) -0.1797(3) -0.22240(17)
H18A H -0.2446 -0.2228 -0.1804
C29A C 0.1675(11) -0.1613(5) -0.3868(2)
H19A H 0.3249 -0.1122 -0.4265
C30A C 0.0103(10) -0.2334(5) -0.3865(2)
H20A H -0.1462 -0.2849 -0.3476
C31A C 0.0398(10) -0.2493(5) -0.4425(2)
C32A C 0.0720(6) -0.3110(3) 0.07486(17)
H21A H 0.0854 -0.3724 0.052
C33A C 0.0616(6) -0.2810(3) 0.12327(17)
H22A H 0.0692 -0.3209 0.1329
C34A C 0.0395(6) -0.1913(3) 0.15877(15)
C35A C 0.0328(7) -0.1372(3) 0.14061(18)
H23A H 0.019 -0.0757 0.1626
C36A C 0.0461(7) -0.1721(3) 0.09067(17)
H24A H 0.0421 -0.1329 0.0793
C37A C 0.0106(5) -0.1637(3) 0.21420(15)
C38A C 0.0818(6) -0.1989(3) 0.21960(16)
H25A H 0.1557 -0.238 0.1861
C39A C 0.0469(6) -0.1781(3) 0.27214(16)
H26A H 0.0977 -0.2026 0.2743
C40A C -0.0625(6) -0.1214(3) 0.32249(15)
C41A C -0.1355(7) -0.0870(3) 0.31789(17)
H27A H -0.2111 -0.0488 0.3517
C42A C -0.0994(7) -0.1077(3) 0.26471(17)
H28A H -0.1506 -0.0833 0.2626
C43A C -0.0922(6) -0.0919(3) 0.37760(16)
H29A H -0.1763 -0.0568 0.4106
C44A C -0.0116(6) -0.1098(3) 0.38580(16)
H30A H 0.054 -0.1533 0.3565
C45A C -0.0195(6) -0.0657(3) 0.43773(15)
N1A N 0.2429(5) -0.0366(2) -0.05470(13)
N2A N -0.1643(5) -0.2778(2) 0.03213(13)
N3A N 0.2526(5) 0.6242(2) -0.05665(13)
N3A_2 N 0.2526(5) -0.3758(2) -0.05665(13)
N4A N 0.0253(4) -0.4055(2) -0.08042(12)
N5A N 0.0446(5) -0.0239(2) -0.07726(12)
N6A N 0.0643(5) -0.2580(2) 0.05776(13)
O1A O 0.1092(7) -0.6590(3) -0.4810(2)
H43A H 0.107 -0.6762 -0.5088
O2A O -0.2842(8) -0.7978(3) -0.41524(17)
O3A O 0.2603(9) -0.1730(4) -0.4952(2)
H44A H 0.2636 -0.1865 -0.5237
O4A O -0.1253(8) -0.3225(4) -0.43451(18)
O5A O 0.0736(4) -0.0782(2) 0.43998(11)
O6A O -0.1221(5) -0.0108(2) 0.47937(11)
H45A H -0.1174 0.0109 0.507
S1A S 0.42477(14) -0.14267(7) -0.08692(4)
S2A S -0.35655(14) -0.20376(7) 0.04484(4)
S3A S 0.36939(14) 0.49714(7) -0.07421(4)
S3_2 S -0.36939(14) -0.49714(7) 0.07421(4)
Ni1A Ni 0.04602(7) -0.32423(3) -0.011310(19)
Ni1A_2 Ni 0.04602(7) 0.67577(3) -0.011310(19)
C46 C 0.4261(7) 0.5576(3) 0.2868(2)
H31 H 0.5989 0.6053 0.2521
C47 C 0.2919(7) 0.4953(3) 0.2736(2)
H32 H 0.3729 0.501 0.23
C48 C 0.0371(7) 0.4234(3) 0.32321(19)
C49 C -0.0795(7) 0.4178(3) 0.3881(2)
C50 C 0.0653(8) 0.4824(4) 0.3995(2)
H33 H -0.0109 0.4776 0.4425
C51 C 0.3145(9) 0.5523(4) 0.3497(2)
H34 H 0.4097 0.5966 0.3583
C52 C -0.3419(8) 0.3491(4) 0.4416(2)
H35 H -0.4169 0.3453 0.4846
C53 C -0.4823(8) 0.2906(4) 0.4318(2)
H36 H -0.6548 0.2478 0.4682
C54 C -0.3760(6) 0.2917(3) 0.36754(18)
C55 C -0.1185(6) 0.3547(3) 0.31234(18)
C56 C -0.0199(6) 0.3508(3) 0.25025(18)
H37 H 0.1524 0.392 0.2135
C57 C -0.1665(7) 0.2880(3) 0.24008(19)
C58 C -0.4281(7) 0.2279(3) 0.29587(19)
C59 C -0.5242(7) 0.2314(3) 0.3580(2)
H38 H -0.6961 0.1914 0.3951
C60 C -0.5716(7) 0.1701(3) 0.2844(2)
H39 H -0.7436 0.1322 0.3208
C61 C -0.4686(8) 0.1677(3) 0.2227(2)
H40 H -0.5687 0.1285 0.2164
C62 C -0.2129(8) 0.2231(3) 0.1678(2)
H41 H -0.1425 0.2195 0.1247
C63 C -0.0677(7) 0.2815(3) 0.1765(2)
H42 H 0.1038 0.3186 0.1392
loop_
_geom_bond_atom_site_label_1
_geom_bond_atom_site_label_2
_geom_bond_site_symmetry_1
_geom_bond_site_symmetry_2
C1 N1 1_555 1_555
C2 N2 1_555 1_555
C3 N3 1_555 1_555
C4 H1 1_555 1_555
C5 C4 1_555 1_555
H2 C5 1_555 1_555
C6 C5 1_555 1_555
C7 C6 1_555 1_555
H3 C7 1_555 1_555
C8 C7 1_555 1_555
H4 C8 1_555 1_555
C9 C6 1_555 1_555
C10 C9 1_555 1_555
H5 C10 1_555 1_555
C11 C10 1_555 1_555
H6 C11 1_555 1_555
C12 C11 1_555 1_555
C13 C12 1_555 1_555
H7 C13 1_555 1_555
C14 C9 1_555 1_555
H8 C14 1_555 1_555
C15 C12 1_555 1_555
H9 C15 1_555 1_555
C16 C15 1_555 1_555
H10 C16 1_555 1_555
C17 C16 1_555 1_555
C18 H11 1_555 1_555
C19 C18 1_555 1_555
H12 C19 1_555 1_555
C20 C19 1_555 1_555
C21 C20 1_555 1_555
H13 C21 1_555 1_555
C22 C21 1_555 1_555
H14 C22 1_555 1_555
C23 C20 1_555 1_555
C24 C23 1_555 1_555
H15 C24 1_555 1_555
C25 C24 1_555 1_555
H16 C25 1_555 1_555
C26 C25 1_555 1_555
C27 C26 1_555 1_555
H17 C27 1_555 1_555
C28 C23 1_555 1_555
H18 C28 1_555 1_555
C29 C26 1_555 1_555
H19 C29 1_555 1_555
C30 C29 1_555 1_555
H20 C30 1_555 1_555
C31 C30 1_555 1_555
C32 H21 1_555 1_555
C33 C32 1_555 1_555
H22 C33 1_555 1_555
C34 C33 1_555 1_555
C35 C34 1_555 1_555
H23 C35 1_555 1_555
C36 C35 1_555 1_555
H24 C36 1_555 1_555
C37 C34 1_555 1_555
C38 C37 1_555 1_555
H25 C38 1_555 1_555
C39 C38 1_555 1_555
H26 C39 1_555 1_555
C40 C39 1_555 1_555
C41 C40 1_555 1_555
H27 C41 1_555 1_555
C42 C37 1_555 1_555
H28 C42 1_555 1_555
C43 C40 1_555 1_555
H29 C43 1_555 1_555
C44 C43 1_555 1_555
H30 C44 1_555 1_555
C45 C44 1_555 1_555
C46 H31 1_555 1_555
C47 C46 1_555 1_555
H32 C47 1_555 1_555
C48 C47 1_555 1_555
C49 C48 1_555 1_555
C50 C49 1_555 1_555
H33 C50 1_555 1_555
C51 C46 1_555 1_555
H34 C51 1_555 1_555
C52 C49 1_555 1_555
H35 C52 1_555 1_555
C53 C52 1_555 1_555
H36 C53 1_555 1_555
C54 C53 1_555 1_555
C55 C48 1_555 1_555
C56 C55 1_555 1_555
H37 C56 1_555 1_555
C57 C56 1_555 1_555
C58 C57 1_555 1_555
C59 C54 1_555 1_555
H38 C59 1_555 1_555
C60 C58 1_555 1_555
H39 C60 1_555 1_555
C61 C60 1_555 1_555
H40 C61 1_555 1_555
C62 C61 1_555 1_555
H41 C62 1_555 1_555
C63 C57 1_555 1_555
H42 C63 1_555 1_555
N1 Ni2 1_555 1_555
N2 Ni1 1_555 1_555
N3 Ni1 1_555 1_555
N4 C4 1_555 1_555
N5 C18 1_555 1_555
N6 C32 1_555 1_555
O1 C17 1_555 1_555
H43 O1 1_555 1_555
O2 C17 1_555 1_555
O3 C31 1_555 1_555
H44 O3 1_555 1_555
O4 C31 1_555 1_555
O5 C45 1_555 1_555
O6 C45 1_555 1_555
H45 O6 1_555 1_555
S1 C1 1_555 1_555
S2 C2 1_555 1_555
S3 C3 1_555 1_555
Ni1 N4 1_555 1_555
Ni2 N5 1_555 1_555
C1A N1A 1_555 1_555
C2A N2A 1_555 1_555
C3A N3A 1_555 1_555
C4A H1A 1_555 1_555
C5A C4A 1_555 1_555
H2A C5A 1_555 1_555
C6A C5A 1_555 1_555
C7A C6A 1_555 1_555
H3A C7A 1_555 1_555
C8A C7A 1_555 1_555
H4A C8A 1_555 1_555
C9A C6A 1_555 1_555
C10A C9A 1_555 1_555
H5A C10A 1_555 1_555
C11A C10A 1_555 1_555
H6A C11A 1_555 1_555
C12A C11A 1_555 1_555
C13A C12A 1_555 1_555
H7A C13A 1_555 1_555
C14A C9A 1_555 1_555
H8A C14A 1_555 1_555
C15A C12A 1_555 1_555
H9A C15A 1_555 1_555
C16A C15A 1_555 1_555
H10A C16A 1_555 1_555
C17A C16A 1_555 1_555
C18A H11A 1_555 1_555
C19A C18A 1_555 1_555
H12A C19A 1_555 1_555
C20A C19A 1_555 1_555
C21A C20A 1_555 1_555
H13A C21A 1_555 1_555
C22A C21A 1_555 1_555
H14A C22A 1_555 1_555
C23A C20A 1_555 1_555
C24A C23A 1_555 1_555
H15A C24A 1_555 1_555
C25A C24A 1_555 1_555
H16A C25A 1_555 1_555
C26A C25A 1_555 1_555
C27A C26A 1_555 1_555
H17A C27A 1_555 1_555
C28A C23A 1_555 1_555
H18A C28A 1_555 1_555
C29A C26A 1_555 1_555
H19A C29A 1_555 1_555
C30A C29A 1_555 1_555
H20A C30A 1_555 1_555
C31A C30A 1_555 1_555
C32A H21A 1_555 1_555
C33A C32A 1_555 1_555
H22A C33A 1_555 1_555
C34A C33A 1_555 1_555
C35A C34A 1_555 1_555
H23A C35A 1_555 1_555
C36A C35A 1_555 1_555
H24A C36A 1_555 1_555
C37A C34A 1_555 1_555
C38A C37A 1_555 1_555
H25A C38A 1_555 1_555
C39A C38A 1_555 1_555
H26A C39A 1_555 1_555
C40A C39A 1_555 1_555
C41A C40A 1_555 1_555
H27A C41A 1_555 1_555
C42A C37A 1_555 1_555
H28A C42A 1_555 1_555
C43A C40A 1_555 1_555
H29A C43A 1_555 1_555
C44A C43A 1_555 1_555
H30A C44A 1_555 1_555
C45A C44A 1_555 1_555
N1A Ni2 1_555 1_555
N2A Ni1A 1_555 1_555
N3A Ni1A_2 1_555 1_555
N3A_2 Ni1A 1_555 1_555
N4A C4A 1_555 1_555
N5A Ni2 1_555 1_555
N6A C32A 1_555 1_555
O1A C17A 1_555 1_555
H43A O1A 1_555 1_555
O2A C17A 1_555 1_555
O3A C31A 1_555 1_555
H44A O3A 1_555 1_555
O4A C31A 1_555 1_555
O5A C45A 1_555 1_555
O6A C45A 1_555 1_555
H45A O6A 1_555 1_555
S1A C1A 1_555 1_555
S2A Ni2 1_555 1_555
S3A Ni1 1_555 1_555
S3_2 Ni1A 1_555 1_555
Ni1A N4A 1_555 1_555
Ni1A_2 S3 1_555 1_555
C8 N4 1_555 1_555
C13 C14 1_555 1_555
C22 N5 1_555 1_555
C27 C28 1_555 1_555
C36 N6 1_555 1_555
C41 C42 1_555 1_555
C50 C51 1_555 1_555
C54 C55 1_555 1_555
C58 C59 1_555 1_555
C62 C63 1_555 1_555
N6 Ni1 1_555 1_555
S1 Ni1 1_555 1_555
S2 Ni2 1_555 1_555
C2A S2A 1_555 1_555
C3A S3A 1_555 1_555
C8A N4A 1_555 1_555
C13A C14A 1_555 1_555
C18A N5A 1_555 1_555
C22A N5A 1_555 1_555
C27A C28A 1_555 1_555
C36A N6A 1_555 1_555
C41A C42A 1_555 1_555
N6A Ni1A 1_555 1_555
S1A Ni1A 1_555 1_555

#END
