
#######################################################################
#
#                 Cambridge Crystallographic Data Centre
#                                CCDC 
#
#######################################################################
#
# If this CIF has been generated from an entry in the Cambridge 
# Structural Database, then it will include bibliographic, chemical, 
# crystal, experimental, refinement or atomic coordinate data resulting 
# from the CCDC's data processing and validation procedures.
#
#######################################################################

data_LETCAP
_symmetry_cell_setting           triclinic
_symmetry_space_group_name_H-M   'P -1'
_symmetry_Int_Tables_number      2
_space_group_name_Hall           '-P 1'
loop_
_symmetry_equiv_pos_site_id
_symmetry_equiv_pos_as_xyz
1 x,y,z
2 -x,-y,-z
_cell_length_a                   9.7107(8)
_cell_length_b                   10.9816(10)
_cell_length_c                   20.6459(15)
_cell_angle_alpha                95.132(3)
_cell_angle_beta                 35.560(4)
_cell_angle_gamma                90.949(3)
_cell_volume                     1269.23
loop_
_atom_site_label
_atom_site_type_symbol
_atom_site_fract_x
_atom_site_fract_y
_atom_site_fract_z
C19 C 0.2737(6) 0.2486(3) -0.0743(3)
C20 C -0.2827(6) 0.2634(3) 0.1197(3)
C21 C 0.2028(7) 0.3586(4) -0.2016(3)
H13 H 0.3391 0.3467 -0.2272
C22 C 0.2195(7) 0.3127(4) -0.2727(3)
H14 H 0.3638 0.2701 -0.3449
C23 C 0.0228(7) 0.3296(3) -0.2373(3)
C24 C -0.1852(6) 0.3910(4) -0.1287(3)
H15 H -0.3256 0.4034 -0.0998
C25 C -0.1842(6) 0.4328(3) -0.0649(3)
H16 H -0.3268 0.4745 0.0082
C26 C 0.0400(7) 0.2832(4) -0.3128(3)
H17 H 0.1821 0.2343 -0.381
C27 C -0.1245(7) 0.3029(4) -0.2948(3)
H18 H -0.2669 0.3536 -0.2288
C28 C -0.0893(7) 0.2477(4) -0.3753(3)
C29 C -0.2910(6) 0.0258(4) 0.2364(3)
H19 H -0.4208 0.0426 0.2579
C30 C -0.3285(7) 0.0468(4) 0.3167(3)
H20 H -0.4813 0.0789 0.3915
C31 C -0.1457(6) 0.0216(3) 0.2896(3)
C32 C 0.0719(7) -0.0334(3) 0.1790(3)
H21 H 0.2004 -0.0578 0.1569
C33 C 0.0954(6) -0.0512(3) 0.1034(3)
H22 H 0.2422 -0.0894 0.0295
C34 C -0.1737(7) 0.0596(4) 0.3702(3)
H23 H -0.3272 0.0935 0.4439
C35 C -0.0038(7) 0.0507(4) 0.3489(3)
H24 H 0.1471 0.0097 0.2785
C36 C -0.0417(7) 0.1027(4) 0.4315(3)
N1 N 0.2055(5) 0.3501(3) -0.0524(2)
N2 N -0.2111(5) 0.1600(3) 0.0846(2)
N3 N 0.0050(5) 0.4187(3) -0.0989(2)
N4 N -0.0776(5) -0.0176(3) 0.1282(2)
O1 O 0.0908(5) 0.1810(3) -0.4625(2)
O2 O -0.2660(5) 0.2755(3) -0.3461(2)
H25 H -0.2355 0.2414 -0.3953
O3 O -0.2323(5) 0.1552(3) 0.5250(2)
O4 O 0.1484(5) 0.0892(4) 0.3941(3)
H26 H 0.1178 0.12 0.4439
S1 S 0.36858(16) 0.10318(9) -0.10539(7)
S2 S -0.37979(16) 0.40981(9) 0.16760(8)
Ni1 Ni 0.00000 0.50000 0.00000
Ni2 Ni 0.00000 0.00000 0.00000
C19A C -0.2737(6) 0.7514(3) 0.0743(3)
C20A C 0.2827(6) 0.7366(3) -0.1197(3)
C21A C -0.2028(7) 0.6414(4) 0.2016(3)
H13A H -0.3391 0.6533 0.2272
C22A C -0.2195(7) 0.6873(4) 0.2727(3)
H14A H -0.3638 0.7299 0.3449
C23A C -0.0228(7) 0.6704(3) 0.2373(3)
C24A C 0.1852(6) 0.6090(4) 0.1287(3)
H15A H 0.3256 0.5966 0.0998
C25A C 0.1842(6) 0.5672(3) 0.0649(3)
H16A H 0.3268 0.5255 -0.0082
C26A C -0.0400(7) 0.7168(4) 0.3128(3)
H17A H -0.1821 0.7657 0.381
C27A C 0.1245(7) 0.6971(4) 0.2948(3)
H18A H 0.2669 0.6464 0.2288
C28A C 0.0893(7) 0.7523(4) 0.3753(3)
C29A C 0.2910(6) -0.0258(4) -0.2364(3)
H19A H 0.4208 -0.0426 -0.2579
C30A C 0.3285(7) -0.0468(4) -0.3167(3)
H20A H 0.4813 -0.0789 -0.3915
C31A C 0.1457(6) -0.0216(3) -0.2896(3)
C32A C -0.0719(7) 0.0334(3) -0.1790(3)
H21A H -0.2004 0.0578 -0.1569
C33A C -0.0954(6) 0.0512(3) -0.1034(3)
H22A H -0.2422 0.0894 -0.0295
C34A C 0.1737(7) -0.0596(4) -0.3702(3)
H23A H 0.3272 -0.0935 -0.4439
C35A C 0.0038(7) -0.0507(4) -0.3489(3)
H24A H -0.1471 -0.0097 -0.2785
C36A C 0.0417(7) -0.1027(4) -0.4315(3)
N1A N -0.2055(5) 0.6499(3) 0.0524(2)
N2A N 0.2111(5) 0.8400(3) -0.0846(2)
N2A_2 N 0.2111(5) -0.1600(3) -0.0846(2)
N3A N -0.0050(5) 0.5813(3) 0.0989(2)
N4A N 0.0776(5) 0.0176(3) -0.1282(2)
O1A O -0.0908(5) 0.8190(3) 0.4625(2)
O2A O 0.2660(5) 0.7245(3) 0.3461(2)
H25A H 0.2355 0.7586 0.3953
O3A O 0.2323(5) -0.1552(3) -0.5250(2)
O4A O -0.1484(5) -0.0892(4) -0.3941(3)
H26A H -0.1178 -0.12 -0.4439
S1A S -0.36858(16) 0.89682(9) 0.10539(7)
S1A_2 S -0.36858(16) -0.10318(9) 0.10539(7)
S2A S 0.37979(16) 0.59019(9) -0.16760(8)
Ni2_2 Ni 0.00000 1.00000 0.00000
C1 C 0.929(3) 0.316(2) 0.2108(15)
H1 H 0.9182 0.2931 0.1698
C2 C 0.730(2) 0.384(2) 0.3213(12)
C3 C 0.747(2) 0.4232(12) 0.3814(10)
C4 C 0.956(2) 0.3877(9) 0.3334(8)
C5 C 1.159(2) 0.3175(14) 0.2231(10)
H3 H 1.2999 0.2943 0.1923
C6 C 1.139(2) 0.2850(15) 0.1633(10)
H4 H 1.2698 0.2412 0.0898
C7 C 0.9845(15) 0.4181(8) 0.3918(6)
H5 H 1.1248 0.3877 0.3592
C8 C 0.8142(14) 0.4884(8) 0.4911(6)
H6 H 0.8349 0.5102 0.5282
C9 C 0.5963(14) 0.5317(8) 0.5424(6)
C10 C 0.5563(15) 0.4964(9) 0.4896(7)
C11 C 0.5825(15) 0.3963(8) 0.3527(6)
H7 H 0.5509 0.3681 0.3211
C12 C 0.6553(17) 0.4694(9) 0.4563(8)
C13 C 0.836(2) 0.3999(11) 0.3497(9)
C14 C 1.0623(19) 0.3662(9) 0.2888(9)
C15 C 1.245(2) 0.3013(14) 0.1811(10)
C16 C 1.206(2) 0.2638(14) 0.1298(10)
H11 H 1.3296 0.2184 0.0569
C17 C 0.995(3) 0.293(3) 0.1852(16)
C18 C 0.803(2) 0.3648(15) 0.2937(11)
C1A C 0.071(3) 0.684(2) 0.7892(15)
H1A H 0.0818 0.7069 0.8302
C2A C 0.270(2) 0.616(2) 0.6787(12)
C3A C 0.253(2) 0.5768(12) 0.6186(10)
C4A C 0.044(2) 0.6123(9) 0.6666(8)
C5A C -0.159(2) 0.6825(14) 0.7769(10)
H3A H -0.2999 0.7057 0.8077
C6A C -0.139(2) 0.7150(15) 0.8367(10)
H4A H -0.2698 0.7588 0.9102
C7A C 0.0155(15) 0.5819(8) 0.6082(6)
H5A H -0.1248 0.6123 0.6408
C8A C 0.1858(14) 0.5116(8) 0.5089(6)
H6A H 0.1651 0.4898 0.4718
C9A C 0.4037(14) 0.4683(8) 0.4576(6)
C10A C 0.4437(15) 0.5036(9) 0.5104(7)
C11A C 0.4175(15) 0.6037(8) 0.6473(6)
H7A H 0.4491 0.6319 0.6789
C12A C 0.3447(17) 0.5306(9) 0.5437(8)
C13A C 0.164(2) 0.6001(11) 0.6503(9)
C14A C -0.0623(19) 0.6338(9) 0.7112(9)
C15A C -0.245(2) 0.6987(14) 0.8189(10)
C16A C -0.206(2) 0.7362(14) 0.8702(10)
H11A H -0.3296 0.7816 0.9431
C17A C 0.005(3) 0.707(3) 0.8148(16)
C18A C 0.197(2) 0.6352(15) 0.7063(11)
H2? H 0.5853 0.4019 0.3542
H8? H 0.3184 0.5073 0.5091
H9? H -0.0909 0.6115 0.6775
H10? H -0.3962 0.7177 0.858
H12? H 0.0304 0.7355 0.8491
loop_
_geom_bond_atom_site_label_1
_geom_bond_atom_site_label_2
_geom_bond_site_symmetry_1
_geom_bond_site_symmetry_2
C1 H1 1_555 1_555
H1 C17 1_555 1_555
C2 C1 1_555 1_555
C3 C2 1_555 1_555
C4 C3 1_555 1_555
C5 C4 1_555 1_555
H3 C5 1_555 1_555
C6 C1 1_555 1_555
H4 C6 1_555 1_555
C7 C4 1_555 1_555
H5 C7 1_555 1_555
C8 C7 1_555 1_555
H6 C8 1_555 1_555
C9 C8 1_555 1_555
C10 C3 1_555 1_555
C11 C2 1_555 1_555
H7 C11 1_555 1_555
C12 C3 1_555 1_555
C13 C2 1_555 1_555
C14 C4 1_555 1_555
C15 C5 1_555 1_555
C16 C1 1_555 1_555
H11 H4 1_555 1_555
C17 C1 1_555 1_555
C18 C1 1_555 1_555
C19 N1 1_555 1_555
C20 N2 1_555 1_555
C21 H13 1_555 1_555
C22 C21 1_555 1_555
H14 C22 1_555 1_555
C23 C22 1_555 1_555
C24 C23 1_555 1_555
H15 C24 1_555 1_555
C25 C24 1_555 1_555
H16 C25 1_555 1_555
C26 C23 1_555 1_555
H17 C26 1_555 1_555
C27 C26 1_555 1_555
H18 C27 1_555 1_555
C28 C27 1_555 1_555
C29 H19 1_555 1_555
C30 C29 1_555 1_555
H20 C30 1_555 1_555
C31 C30 1_555 1_555
C32 C31 1_555 1_555
H21 C32 1_555 1_555
C33 C32 1_555 1_555
H22 C33 1_555 1_555
C34 C31 1_555 1_555
H23 C34 1_555 1_555
C35 C34 1_555 1_555
H24 C35 1_555 1_555
C36 C35 1_555 1_555
N1 Ni1 1_555 1_555
N2 Ni2 1_555 1_555
N3 C21 1_555 1_555
N4 C29 1_555 1_555
O1 C28 1_555 1_555
O2 C28 1_555 1_555
H25 O2 1_555 1_555
O3 C36 1_555 1_555
O4 C36 1_555 1_555
H26 O4 1_555 1_555
S1 C19 1_555 1_555
S2 C20 1_555 1_555
Ni1 N3 1_555 1_555
Ni2 N4 1_555 1_555
C1A H1A 1_555 1_555
H1A C17A 1_555 1_555
C2A C1A 1_555 1_555
C3A C2A 1_555 1_555
C4A C3A 1_555 1_555
C5A C4A 1_555 1_555
H3A C5A 1_555 1_555
C6A C1A 1_555 1_555
H4A C6A 1_555 1_555
C7A C4A 1_555 1_555
H5A C7A 1_555 1_555
C8A C7A 1_555 1_555
H6A C8A 1_555 1_555
C9A C11 1_555 1_555
C10A C10 1_555 1_555
C11A C9 1_555 1_555
H7A C11A 1_555 1_555
C12A C10 1_555 1_555
C13A C2A 1_555 1_555
C14A C4A 1_555 1_555
C15A C5A 1_555 1_555
C16A C1A 1_555 1_555
H11A H4A 1_555 1_555
C17A C1A 1_555 1_555
C18A C1A 1_555 1_555
C19A N1A 1_555 1_555
C20A N2A 1_555 1_555
C21A H13A 1_555 1_555
C22A C21A 1_555 1_555
H14A C22A 1_555 1_555
C23A C22A 1_555 1_555
C24A C23A 1_555 1_555
H15A C24A 1_555 1_555
C25A C24A 1_555 1_555
H16A C25A 1_555 1_555
C26A C23A 1_555 1_555
H17A C26A 1_555 1_555
C27A C26A 1_555 1_555
H18A C27A 1_555 1_555
C28A C27A 1_555 1_555
C29A H19A 1_555 1_555
C30A C29A 1_555 1_555
H20A C30A 1_555 1_555
C31A C30A 1_555 1_555
C32A C31A 1_555 1_555
H21A C32A 1_555 1_555
C33A C32A 1_555 1_555
H22A C33A 1_555 1_555
C34A C31A 1_555 1_555
H23A C34A 1_555 1_555
C35A C34A 1_555 1_555
H24A C35A 1_555 1_555
C36A C35A 1_555 1_555
N1A Ni1 1_555 1_555
N2A Ni2_2 1_555 1_555
N2A_2 Ni2 1_555 1_555
N3A Ni1 1_555 1_555
N4A Ni2 1_555 1_555
O1A C28A 1_555 1_555
O2A C28A 1_555 1_555
H25A O2A 1_555 1_555
O3A C36A 1_555 1_555
O4A C36A 1_555 1_555
H26A O4A 1_555 1_555
S1A C19A 1_555 1_555
S1A_2 Ni2 1_555 1_555
S2A Ni1 1_555 1_555
Ni2_2 S1A 1_555 1_555
C2 C18 1_555 1_555
C3 C13 1_555 1_555
C3 C18 1_555 1_555
C4 C13 1_555 1_555
C5 C6 1_555 1_555
C5 C14 1_555 1_555
C5 C16 1_555 1_555
H3 C15 1_555 1_555
C6 C15 1_555 1_555
C6 C16 1_555 1_555
C6 C17 1_555 1_555
H4 C16 1_555 1_555
C7 C14 1_555 1_555
C9 C10 1_555 1_555
C9 C12 1_555 1_555
C10 C12 1_555 1_555
C11 C18 1_555 1_555
C12 C13 1_555 1_555
C12 C10A 1_555 1_555
C13 C14 1_555 1_555
C13 C18 1_555 1_555
C14 C15 1_555 1_555
C15 C16 1_555 1_555
C16 H11 1_555 1_555
C16 C17 1_555 1_555
C17 C18 1_555 1_555
C25 N3 1_555 1_555
C33 N4 1_555 1_555
S1 Ni2 1_555 1_555
S2 Ni1 1_555 1_555
C2A C11A 1_555 1_555
C2A C18A 1_555 1_555
C3A C10A 1_555 1_555
C3A C12A 1_555 1_555
C3A C13A 1_555 1_555
C3A C18A 1_555 1_555
C4A C13A 1_555 1_555
C5A C6A 1_555 1_555
C5A C14A 1_555 1_555
C5A C16A 1_555 1_555
H3A C15A 1_555 1_555
C6A C15A 1_555 1_555
C6A C16A 1_555 1_555
C6A C17A 1_555 1_555
H4A C16A 1_555 1_555
C7A C14A 1_555 1_555
C8A C9A 1_555 1_555
C9A C10A 1_555 1_555
C9A C12A 1_555 1_555
C10A C12A 1_555 1_555
C11A C18A 1_555 1_555
C12A C13A 1_555 1_555
C13A C14A 1_555 1_555
C13A C18A 1_555 1_555
C14A C15A 1_555 1_555
C15A C16A 1_555 1_555
C16A H11A 1_555 1_555
C16A C17A 1_555 1_555
C17A C18A 1_555 1_555
C20A S2A 1_555 1_555
C21A N3A 1_555 1_555
C25A N3A 1_555 1_555
C29A N4A 1_555 1_555
C33A N4A 1_555 1_555

#END
