
#######################################################################
#
#                 Cambridge Crystallographic Data Centre
#                                CCDC 
#
#######################################################################
#
# If this CIF has been generated from an entry in the Cambridge 
# Structural Database, then it will include bibliographic, chemical, 
# crystal, experimental, refinement or atomic coordinate data resulting 
# from the CCDC's data processing and validation procedures.
#
#######################################################################

data_LETDOE
_symmetry_cell_setting           monoclinic
_symmetry_space_group_name_H-M   'P 2/n'
_symmetry_Int_Tables_number      13
_space_group_name_Hall           '-P 2yac'
loop_
_symmetry_equiv_pos_site_id
_symmetry_equiv_pos_as_xyz
1 x,y,z
2 1/2-x,y,1/2-z
3 -x,-y,-z
4 1/2+x,-y,1/2+z
_cell_length_a                   9.7141(9)
_cell_length_b                   4.0899(4)
_cell_length_c                   21.067(2)
_cell_angle_alpha                90
_cell_angle_beta                 98.896(2)
_cell_angle_gamma                90
_cell_volume                     826.917
loop_
_atom_site_label
_atom_site_type_symbol
_atom_site_fract_x
_atom_site_fract_y
_atom_site_fract_z
I1 I -0.04259(4) 0.18172(8) 0.247130(16)
I2 I -0.20225(4) 0.68252(8) 0.413401(16)
Cu1 Cu 0.5000 1.0000 0.5000
Cu2 Cu 0.2500 0.5700(3) 0.2500
Cu3 Cu -0.02931(7) 0.67226(17) 0.33099(3)
Cu4 Cu -0.21624(8) 0.18079(16) 0.33449(3)
N1 N 0.3680(5) 0.8256(13) 0.4360(2)
N2 N 0.2767(5) 0.6303(12) 0.3394(2)
N3 N 0.1694(5) 0.7017(11) 0.3728(2)
C1 C 0.2275(6) 0.8154(14) 0.4294(3)
H1 H 0.1759 0.8827 0.4619
C2 C 0.3925(6) 0.7049(14) 0.3786(3)
H2 H 0.4832 0.6769 0.3679
I1_2 I -0.04259(4) 1.18172(8) 0.247130(16)
I1A I -0.45741(4) 0.18172(8) 0.252870(16)
I1B I 1.04259(4) 0.81828(8) 0.752870(16)
I1B_2 I 1.04259(4) 1.81828(8) 0.752870(16)
I1A_2 I -0.45741(4) 1.18172(8) 0.252870(16)
I2B I 1.20225(4) 1.31748(8) 0.586599(16)
I2_2 I -0.20225(4) -0.31748(8) 0.413401(16)
I2_3 I -0.20225(4) 1.68252(8) 0.413401(16)
Cu2C Cu 0.7500 1.4300(3) 0.7500
Cu3B Cu 1.02931(7) 1.32774(17) 0.66901(3)
Cu3_2 Cu -0.02931(7) -0.32774(17) 0.33099(3)
Cu3_3 Cu -0.02931(7) 1.67226(17) 0.33099(3)
Cu4_2 Cu -0.21624(8) 1.18079(16) 0.33449(3)
Cu4A Cu -0.28376(8) 0.18079(16) 0.16551(3)
Cu4A_2 Cu -0.28376(8) 1.18079(16) 0.16551(3)
Cu4B Cu 1.21624(8) 0.81921(16) 0.66551(3)
Cu4B_2 Cu 1.21624(8) 1.81921(16) 0.66551(3)
N1B N 0.6320(5) 1.1744(13) 0.5640(2)
N2B N 0.7233(5) 1.3697(12) 0.6606(2)
N2A N 0.2233(5) 0.6303(12) 0.1606(2)
N3B N 0.8306(5) 1.2983(11) 0.6272(2)
C1B C 0.7725(6) 1.1846(14) 0.5706(3)
H1B H 0.8241 1.1173 0.5381
C2B C 0.6075(6) 1.2951(14) 0.6214(3)
H2B H 0.5168 1.3231 0.6321
loop_
_geom_bond_atom_site_label_1
_geom_bond_atom_site_label_2
_geom_bond_site_symmetry_1
_geom_bond_site_symmetry_2
I1 Cu3 1_555 1_555
I2 Cu3 1_555 1_555
Cu1 N1 1_555 1_555
Cu2 N2 1_555 1_555
Cu3 N3 1_555 1_555
Cu4 I1 1_555 1_555
N1 C1 1_555 1_555
N2 N3 1_555 1_555
N3 C1 1_555 1_555
C1 H1 1_555 1_555
C2 N1 1_555 1_555
H2 C2 1_555 1_555
I1_2 Cu3 1_555 1_555
I1A Cu4 1_555 1_555
I1B Cu3B 1_555 1_555
I1B_2 Cu3B 1_555 1_555
I1A_2 Cu4_2 1_555 1_555
I2B Cu3B 1_555 1_555
I2_2 Cu4 1_555 1_555
I2_3 Cu3_3 1_555 1_555
Cu2C N2B 1_555 1_555
Cu3B N3B 1_555 1_555
Cu3_2 I1 1_555 1_555
Cu3_3 I1_2 1_555 1_555
Cu4_2 I2 1_555 1_555
Cu4A I1 1_555 1_555
Cu4A_2 I1_2 1_555 1_555
Cu4B I1B 1_555 1_555
Cu4B_2 I1B_2 1_555 1_555
N1B Cu1 1_555 1_555
N2B N3B 1_555 1_555
N2A Cu2 1_555 1_555
N3B C1B 1_555 1_555
C1B N1B 1_555 1_555
H1B C1B 1_555 1_555
C2B N1B 1_555 1_555
H2B C2B 1_555 1_555
I2 Cu4 1_555 1_555
N2 C2 1_555 1_555
I1_2 Cu4_2 1_555 1_555
I1A Cu4A 1_555 1_555
I1A_2 Cu4A_2 1_555 1_555
I2B Cu4B 1_555 1_555
I2B Cu4B_2 1_555 1_555
I2_2 Cu3_2 1_555 1_555
I2_3 Cu4_2 1_555 1_555
N2B C2B 1_555 1_555

#END
