
#######################################################################
#
#                 Cambridge Crystallographic Data Centre
#                                CCDC 
#
#######################################################################
#
# If this CIF has been generated from an entry in the Cambridge 
# Structural Database, then it will include bibliographic, chemical, 
# crystal, experimental, refinement or atomic coordinate data resulting 
# from the CCDC's data processing and validation procedures.
#
#######################################################################

data_LETDAQ
_symmetry_cell_setting           triclinic
_symmetry_space_group_name_H-M   'P -1'
_symmetry_Int_Tables_number      2
_space_group_name_Hall           '-P 1'
loop_
_symmetry_equiv_pos_site_id
_symmetry_equiv_pos_as_xyz
1 x,y,z
2 -x,-y,-z
_cell_length_a                   7.3624(8)
_cell_length_b                   8.6798(9)
_cell_length_c                   14.3089(15)
_cell_angle_alpha                86.401(2)
_cell_angle_beta                 83.160(2)
_cell_angle_gamma                81.975(2)
_cell_volume                     898.009
loop_
_atom_site_label
_atom_site_type_symbol
_atom_site_fract_x
_atom_site_fract_y
_atom_site_fract_z
Br1 Br 0.10278(6) -0.26721(5) 0.85695(3)
Br2 Br 0.76626(6) -0.40385(5) 0.40613(3)
Cu1 Cu 0.34853(8) -0.10199(6) 0.82025(4)
Cu2 Cu 0.20986(8) 0.48967(6) 1.01958(4)
Cu3 Cu 0.52876(8) 0.15311(6) 0.68748(4)
Cu4 Cu 0.71029(8) -0.58448(6) 0.56308(4)
Cu5 Cu -0.18013(7) -0.07502(6) 0.79185(4)
Cu6 Cu 0.89922(8) -0.14675(6) 0.34342(4)
N1 N 0.3380(5) 0.1011(4) 0.8687(3)
N2 N 0.2929(5) 0.3271(4) 0.9378(2)
N3 N 0.4140(5) 0.2099(4) 0.8074(2)
N4 N 0.6652(5) 0.0940(4) 0.5727(2)
N5 N 0.8039(5) -0.0060(4) 0.4393(2)
N6 N 0.7371(5) 0.2117(4) 0.5172(2)
N7 N 0.6713(5) -0.4255(4) 0.6523(2)
N8 N 0.5307(5) -0.2326(4) 0.7402(2)
N9 N 0.7178(5) -0.2309(4) 0.7363(3)
N10 N 0.0362(5) 0.7866(4) 1.2289(2)
N11 N 0.1554(5) 0.6501(4) 1.1039(2)
N12 N 0.1437(5) 0.8777(4) 1.1689(2)
C1 C 0.2662(6) 0.1757(5) 0.9452(3)
H1 H 0.2034 0.1284 0.9989
C2 C 0.3834(6) 0.3422(5) 0.8508(3)
H2 H 0.4208 0.4372 0.8239
C3 C 0.7074(6) -0.0338(5) 0.5238(3)
H3 H 0.6739 -0.1327 0.5455
C4 C 0.8174(6) 0.1469(5) 0.4388(3)
H4 H 0.8778 0.2025 0.3877
C5 C 0.5092(6) -0.3501(5) 0.6896(3)
H5 H 0.3924 -0.3780 0.6806
C6 C 0.7965(6) -0.3473(5) 0.6837(3)
H6 H 0.9262 -0.3729 0.6697
C7 C 0.0472(6) 0.6533(5) 1.1874(3)
H7 H -0.0143 0.5687 1.2134
C8 C 0.2116(6) 0.7922(5) 1.0967(3)
H8 H 0.2918 0.8270 1.0451
Cu4_2 Cu 0.71029(8) 0.41552(6) 0.56308(4)
Cu5_2 Cu 0.81987(7) -0.07502(6) 0.79185(4)
Cu5A Cu 0.18013(7) 1.07502(6) 1.20815(4)
Cu6_2 Cu -0.10078(8) 0.85325(6) 1.34342(4)
N6_2 N 0.7371(5) -0.7883(4) 0.5172(2)
N9_2 N -0.2822(5) -0.2309(4) 0.7363(3)
N10_2 N 1.0362(5) -0.2134(4) 0.2289(2)
N12A N -0.1437(5) 0.1223(4) 0.8311(2)
loop_
_geom_bond_atom_site_label_1
_geom_bond_atom_site_label_2
_geom_bond_site_symmetry_1
_geom_bond_site_symmetry_2
Br1 Cu1 1_555 1_555
Br2 Cu4 1_555 1_555
Cu1 N1 1_555 1_555
Cu2 N2 1_555 1_555
Cu3 N3 1_555 1_555
Cu4 N7 1_555 1_555
Cu5 Br1 1_555 1_555
Cu6 Br2 1_555 1_555
N1 N3 1_555 1_555
N2 C1 1_555 1_555
N3 C2 1_555 1_555
N4 Cu3 1_555 1_555
N5 Cu6 1_555 1_555
N6 N4 1_555 1_555
N7 C5 1_555 1_555
N8 Cu1 1_555 1_555
N9 N8 1_555 1_555
N10 N12 1_555 1_555
N11 Cu2 1_555 1_555
N12 C8 1_555 1_555
C1 N1 1_555 1_555
H1 C1 1_555 1_555
C2 N2 1_555 1_555
H2 C2 1_555 1_555
C3 N4 1_555 1_555
H3 C3 1_555 1_555
C4 N5 1_555 1_555
H4 C4 1_555 1_555
C5 N8 1_555 1_555
H5 C5 1_555 1_555
C6 N7 1_555 1_555
H6 C6 1_555 1_555
C7 N10 1_555 1_555
H7 C7 1_555 1_555
C8 N11 1_555 1_555
H8 C8 1_555 1_555
Cu4_2 N6 1_555 1_555
Cu5_2 N9 1_555 1_555
Cu5A N12 1_555 1_555
Cu6_2 N10 1_555 1_555
N6_2 Cu4 1_555 1_555
N9_2 Cu5 1_555 1_555
N10_2 Cu6 1_555 1_555
N12A Cu5 1_555 1_555
N5 C3 1_555 1_555
N6 C4 1_555 1_555
N9 C6 1_555 1_555
N11 C7 1_555 1_555

#END
