
#######################################################################
#
#                 Cambridge Crystallographic Data Centre
#                                CCDC 
#
#######################################################################
#
# If this CIF has been generated from an entry in the Cambridge 
# Structural Database, then it will include bibliographic, chemical, 
# crystal, experimental, refinement or atomic coordinate data resulting 
# from the CCDC's data processing and validation procedures.
#
#######################################################################

data_LETFAS
_symmetry_cell_setting           monoclinic
_symmetry_space_group_name_H-M   'P 21/c'
_symmetry_Int_Tables_number      14
_space_group_name_Hall           '-P 2ybc'
loop_
_symmetry_equiv_pos_site_id
_symmetry_equiv_pos_as_xyz
1 x,y,z
2 -x,1/2+y,1/2-z
3 -x,-y,-z
4 x,1/2-y,1/2+z
_cell_length_a                   7.2342(14)
_cell_length_b                   17.393(2)
_cell_length_c                   23.354(2)
_cell_angle_alpha                90
_cell_angle_beta                 91.61(3)
_cell_angle_gamma                90
_cell_volume                     2937.34
loop_
_atom_site_label
_atom_site_type_symbol
_atom_site_fract_x
_atom_site_fract_y
_atom_site_fract_z
Cu1 Cu 0.17728(17) 0.49509(8) 0.35018(6)
Cu2 Cu 0.23757(15) 0.43867(7) 0.09900(5)
Cu3 Cu 0.23329(16) 0.26883(7) 0.16739(5)
Cu4 Cu 0.61782(16) 0.77166(7) 0.46791(5)
Cu5 Cu 0.12339(15) 0.72743(7) 0.53153(5)
Cu6 Cu 0.27211(15) 0.56099(7) 0.59893(5)
Cu7 Cu -0.28870(16) 0.26819(7) 0.33346(5)
Cu8 Cu 0.29813(16) 0.50095(7) -0.14955(6)
S1 S 0.0782(4) 0.17572(15) 0.27079(12)
S2 S 0.6176(3) 0.67795(14) 0.57914(11)
S3 S -0.1076(3) 0.32029(15) 0.08160(11)
O1 O -0.0045(10) 0.2433(4) 0.2980(3)
O2 O 0.1516(11) 0.1200(4) 0.3112(3)
O3 O -0.0590(11) 0.1415(4) 0.2302(3)
O4 O 0.2414(10) 0.2039(4) 0.2359(3)
O5 O 0.5067(9) 0.7200(4) 0.5327(3)
O6 O 0.8106(9) 0.6785(4) 0.5648(3)
O7 O 0.5839(8) 0.7158(4) 0.6324(3)
O8 O 0.5481(9) 0.5979(4) 0.5798(3)
O9 O -0.3070(9) 0.3160(5) 0.0697(3)
O10 O -0.0441(8) 0.4012(4) 0.0806(3)
O11 O -0.0593(9) 0.2839(4) 0.1377(3)
O12 O -0.0100(8) 0.2765(4) 0.0352(3)
O13 O 0.3415(8) 0.3304(4) 0.1043(3)
O14 O 0.1704(8) 0.6681(4) 0.6031(3)
O15 O -0.3964(11) 0.2081(4) 0.2665(4)
N1 N 0.1894(11) 0.4515(5) 0.2778(4)
N2 N 0.2363(11) 0.3637(5) 0.2109(4)
N3 N 0.2064(10) 0.4330(5) 0.1835(4)
N4 N 0.3043(10) 0.4356(5) 0.0167(3)
N5 N 0.3356(10) 0.3659(5) -0.0099(4)
N6 N 0.3169(10) 0.4556(5) -0.0773(3)
N7 N 0.2683(11) 0.1746(5) 0.1231(4)
N8 N 0.3776(11) 0.1744(5) 0.0748(4)
N9 N 0.3069(10) 0.0532(5) 0.0973(4)
N10 N 0.1467(10) 0.6755(5) 0.0731(3)
N11 N 0.2603(11) 0.6741(5) 0.1212(4)
N12 N 0.1985(11) 0.5527(5) 0.0978(4)
N13 N 0.1544(10) 0.6309(5) 0.4888(4)
N14 N 0.1961(10) 0.5626(5) 0.5160(4)
N15 N 0.1645(11) 0.5413(5) 0.4222(4)
N16 N 0.3064(10) 0.5653(5) 0.6846(4)
N17 N 0.2897(11) 0.6353(5) 0.7103(4)
N18 N 0.3089(11) 0.5499(5) 0.7794(4)
C1 C 0.2270(12) 0.3761(6) 0.2659(4)
H1 H 0.2438 0.3382 0.2937
C2 C 0.1730(13) 0.4816(6) 0.2257(4)
H2 H 0.1407 0.5327 0.2193
C3 C 0.2997(11) 0.4868(6) -0.0249(4)
H3 H 0.2860 0.5393 -0.0187
C4 C 0.3382(12) 0.3784(6) -0.0650(4)
H4 H 0.3525 0.3403 -0.0924
C5 C 0.2314(14) 0.1041(6) 0.1334(5)
H5 H 0.1582 0.0891 0.1635
C6 C 0.3947(14) 0.1018(6) 0.0622(5)
H6 H 0.4623 0.0848 0.0313
C7 C 0.1167(13) 0.6018(6) 0.0603(4)
H7 H 0.0462 0.5858 0.0286
C8 C 0.2913(14) 0.6021(6) 0.1342(5)
H8 H 0.3675 0.5861 0.1647
C9 C 0.1405(13) 0.6167(6) 0.4342(5)
H9 H 0.1168 0.6541 0.4065
C10 C 0.1958(12) 0.5118(6) 0.4741(4)
H10 H 0.2157 0.4596 0.4804
C11 C 0.3210(13) 0.5165(6) 0.7279(4)
H11 H 0.3380 0.4639 0.7231
C12 C 0.2903(14) 0.6250(6) 0.7661(5)
H12 H 0.2795 0.6643 0.7928
Cu4A Cu 0.38218(16) 0.27166(7) 0.03209(5)
Cu5A Cu -0.12339(15) 0.22743(7) -0.03153(5)
Cu5C Cu 0.12339(15) 0.77257(7) 0.03153(5)
Cu6C Cu 0.27211(15) -0.06099(7) 0.09893(5)
Cu7B Cu 0.28870(16) 0.73181(7) 0.66654(5)
Cu7A Cu 0.28870(16) 0.76819(7) 0.16654(5)
Cu8_2 Cu 0.29813(16) 0.50095(7) 0.85045(6)
O7B O -0.5839(8) 0.2842(4) 0.3676(3)
O12A O 0.0100(8) 0.7765(4) 0.4648(3)
O13A O 0.6585(8) 0.8304(4) 0.3957(3)
O14B O -0.1704(8) 0.3319(4) 0.3969(3)
N5A N 0.6644(10) 0.8659(5) 0.5099(4)
N8A N 0.6224(11) 0.6744(5) 0.4252(4)
N9C N 0.3069(10) 0.4468(5) 0.5973(4)
N10C N 0.1467(10) 0.8245(5) 0.5731(3)
N11A N -0.2603(11) 0.1741(5) 0.3788(4)
N17B N -0.2897(11) 0.3647(5) 0.2897(4)
N18_2 N 0.3089(11) 0.5499(5) -0.2206(4)
loop_
_geom_bond_atom_site_label_1
_geom_bond_atom_site_label_2
_geom_bond_site_symmetry_1
_geom_bond_site_symmetry_2
Cu1 N1 1_555 1_555
Cu2 O10 1_555 1_555
Cu3 O4 1_555 1_555
Cu4 O5 1_555 1_555
Cu5 O14 1_555 1_555
Cu6 O8 1_555 1_555
Cu7 O1 1_555 1_555
Cu8 N6 1_555 1_555
S1 O1 1_555 1_555
S2 O5 1_555 1_555
S3 O9 1_555 1_555
O2 S1 1_555 1_555
O3 S1 1_555 1_555
O4 S1 1_555 1_555
O6 S2 1_555 1_555
O7 S2 1_555 1_555
O8 S2 1_555 1_555
O10 S3 1_555 1_555
O11 Cu3 1_555 1_555
O12 S3 1_555 1_555
O13 Cu2 1_555 1_555
O14 Cu6 1_555 1_555
O15 Cu7 1_555 1_555
N1 C1 1_555 1_555
N2 Cu3 1_555 1_555
N3 Cu2 1_555 1_555
N4 Cu2 1_555 1_555
N5 N4 1_555 1_555
N6 C3 1_555 1_555
N7 Cu3 1_555 1_555
N8 N7 1_555 1_555
N9 C5 1_555 1_555
N10 N11 1_555 1_555
N11 C8 1_555 1_555
N12 Cu2 1_555 1_555
N13 Cu5 1_555 1_555
N14 Cu6 1_555 1_555
N15 Cu1 1_555 1_555
N16 Cu6 1_555 1_555
N17 N16 1_555 1_555
N18 C11 1_555 1_555
C1 N2 1_555 1_555
H1 C1 1_555 1_555
C2 N1 1_555 1_555
H2 C2 1_555 1_555
C3 N4 1_555 1_555
H3 C3 1_555 1_555
C4 N5 1_555 1_555
H4 C4 1_555 1_555
C5 N7 1_555 1_555
H5 C5 1_555 1_555
C6 N8 1_555 1_555
H6 C6 1_555 1_555
C7 N10 1_555 1_555
H7 C7 1_555 1_555
C8 N12 1_555 1_555
H8 C8 1_555 1_555
C9 N13 1_555 1_555
H9 C9 1_555 1_555
C10 N14 1_555 1_555
H10 C10 1_555 1_555
C11 N16 1_555 1_555
H11 C11 1_555 1_555
C12 N17 1_555 1_555
H12 C12 1_555 1_555
Cu4A O13 1_555 1_555
Cu5A O12 1_555 1_555
Cu5C N10 1_555 1_555
Cu6C N9 1_555 1_555
Cu7B O7 1_555 1_555
Cu7A N11 1_555 1_555
Cu8_2 N18 1_555 1_555
O7B Cu7 1_555 1_555
O12A Cu5 1_555 1_555
O13A Cu4 1_555 1_555
O14B Cu7 1_555 1_555
N5A Cu4 1_555 1_555
N8A Cu4 1_555 1_555
N9C Cu6 1_555 1_555
N10C Cu5 1_555 1_555
N11A Cu7 1_555 1_555
N17B Cu7 1_555 1_555
N18_2 Cu8 1_555 1_555
Cu3 O13 1_555 1_555
S3 O11 1_555 1_555
O14 Cu7B 1_555 1_555
N2 N3 1_555 1_555
N3 C2 1_555 1_555
N5 Cu4A 1_555 1_555
N6 C4 1_555 1_555
N8 Cu4A 1_555 1_555
N9 C6 1_555 1_555
N12 C7 1_555 1_555
N13 N14 1_555 1_555
N15 C9 1_555 1_555
N15 C10 1_555 1_555
N17 Cu7B 1_555 1_555
N18 C12 1_555 1_555

#END
