
#######################################################################
#
#                 Cambridge Crystallographic Data Centre
#                                CCDC 
#
#######################################################################
#
# If this CIF has been generated from an entry in the Cambridge 
# Structural Database, then it will include bibliographic, chemical, 
# crystal, experimental, refinement or atomic coordinate data resulting 
# from the CCDC's data processing and validation procedures.
#
#######################################################################

data_LETFOH
_symmetry_cell_setting           monoclinic
_symmetry_space_group_name_H-M   'P 21/c'
_symmetry_Int_Tables_number      14
_space_group_name_Hall           '-P 2ybc'
loop_
_symmetry_equiv_pos_site_id
_symmetry_equiv_pos_as_xyz
1 x,y,z
2 -x,1/2+y,1/2-z
3 -x,-y,-z
4 x,1/2-y,1/2+z
_cell_length_a                   11.045(5)
_cell_length_b                   17.612(8)
_cell_length_c                   13.665(6)
_cell_angle_alpha                90
_cell_angle_beta                 100.325(7)
_cell_angle_gamma                90
_cell_volume                     2615.13
loop_
_atom_site_label
_atom_site_type_symbol
_atom_site_fract_x
_atom_site_fract_y
_atom_site_fract_z
La1 La -0.15660(3) 0.76262(2) 0.40691(3)
La2 La -0.32706(3) 0.45901(2) 0.59425(3)
N1 N -0.2874(5) 0.3781(3) 0.4348(4)
N2 N -0.3745(5) 0.3777(3) 0.7474(4)
N3 N -0.1425(5) 0.6303(3) 0.3171(4)
O1 O -0.5059(5) 0.4705(3) 0.2558(4)
O2 O -0.4481(4) 0.4893(3) 0.4183(3)
O3 O -0.1755(4) 0.3497(3) 0.6199(3)
O4 O -0.0637(4) 0.2562(3) 0.5709(4)
O5 O -0.1466(5) 0.4645(3) 0.9274(4)
O6 O -0.2076(4) 0.4868(3) 0.7652(3)
O7 O -0.4844(4) 0.3496(3) 0.5616(3)
O8 O -0.6314(4) 0.2820(3) 0.6122(4)
O9 O -0.1520(4) 0.5150(3) 0.5253(3)
O10 O -0.1278(4) 0.6410(3) 0.5125(3)
O11 O -0.1720(5) 0.7610(3) 0.2205(3)
O12 O -0.1767(6) 0.7036(3) 0.0741(4)
O13 O -0.3364(4) 0.6084(3) 0.6070(3)
H1 H -0.3942 0.6235 0.5615
H2 H -0.2709 0.6190 0.5852
O14 O -0.0405(4) 0.8919(3) 0.4299(3)
H3 H -0.0598 0.9441 0.4161
H4 H -0.0164 0.8938 0.4925
O15 O -0.2984(5) 0.8712(3) 0.3424(5)
H5 H -0.3391 0.8672 0.2837
H6 H -0.2565 0.9116 0.3413
C1 C -0.4395(6) 0.4569(4) 0.3358(5)
C2 C -0.3440(6) 0.3941(4) 0.3423(5)
C3 C -0.3168(6) 0.3584(4) 0.2584(6)
H7 H -0.3593 0.3701 0.1951
C4 C -0.2240(7) 0.3046(5) 0.2725(6)
H8 H -0.2020 0.2803 0.2179
C5 C -0.1653(7) 0.2873(4) 0.3651(6)
H9 H -0.1028 0.2512 0.3748
C6 C -0.2003(6) 0.3252(4) 0.4476(5)
C7 C -0.1407(6) 0.3108(4) 0.5548(5)
C8 C -0.2122(6) 0.4517(4) 0.8462(5)
C9 C -0.3147(6) 0.3919(4) 0.8401(5)
C10 C -0.3446(7) 0.3568(4) 0.9226(6)
H10 H -0.2998 0.3665 0.9857
C11 C -0.4430(8) 0.3066(5) 0.9094(6)
H11 H -0.4658 0.2824 0.9638
C12 C -0.5061(6) 0.2934(4) 0.8152(5)
H12 H -0.5729 0.2604 0.8052
C13 C -0.4702(6) 0.3293(4) 0.7348(5)
C14 C -0.5333(6) 0.3189(4) 0.6280(5)
C15 C -0.1344(6) 0.5745(4) 0.4783(5)
C16 C -0.1239(6) 0.5647(4) 0.3701(5)
C17 C -0.1013(6) 0.4974(4) 0.3282(5)
H13 H -0.0873 0.4534 0.3661
C18 C -0.0996(8) 0.4966(4) 0.2252(6)
H14 H -0.0841 0.4514 0.1945
C19 C -0.1204(7) 0.5609(4) 0.1703(6)
H15 H -0.1205 0.5606 0.1022
C20 C -0.1414(6) 0.6274(4) 0.2194(5)
C21 C -0.1637(6) 0.7042(4) 0.1673(5)
La1B La -0.84340(3) 0.23738(2) 0.59309(3)
La1B_2 La 0.15660(3) 0.23738(2) 0.59309(3)
La1C La -0.15660(3) 0.73738(2) -0.09309(3)
La2B La -0.67294(3) 0.54099(2) 0.40575(3)
O2B O -0.5519(4) 0.5107(3) 0.5817(3)
O4B O 0.0637(4) 0.7438(3) 0.4291(4)
O8B O -0.3686(4) 0.7180(3) 0.3878(4)
O12C O -0.1767(6) 0.7964(3) 0.5741(4)
O16 O -0.5330(19) 0.0568(12) 0.5538(15)
H16 H -0.5925 0.0848 0.5634
H17 H -0.5033 0.0393 0.6111
loop_
_geom_bond_atom_site_label_1
_geom_bond_atom_site_label_2
_geom_bond_site_symmetry_1
_geom_bond_site_symmetry_2
La1 N3 1_555 1_555
La2 N1 1_555 1_555
N1 C2 1_555 1_555
N2 La2 1_555 1_555
N3 C16 1_555 1_555
O1 C1 1_555 1_555
O2 La2 1_555 1_555
O3 La2 1_555 1_555
O4 C7 1_555 1_555
O5 C8 1_555 1_555
O6 La2 1_555 1_555
O7 La2 1_555 1_555
O8 C14 1_555 1_555
O9 La2 1_555 1_555
O10 La1 1_555 1_555
O11 La1 1_555 1_555
O12 C21 1_555 1_555
O13 La2 1_555 1_555
H1 O13 1_555 1_555
H2 O13 1_555 1_555
O14 La1 1_555 1_555
H3 O14 1_555 1_555
H4 O14 1_555 1_555
O15 La1 1_555 1_555
H5 O15 1_555 1_555
H6 O15 1_555 1_555
C1 O2 1_555 1_555
C2 C1 1_555 1_555
C3 C2 1_555 1_555
H7 C3 1_555 1_555
C4 C3 1_555 1_555
H8 C4 1_555 1_555
C5 C4 1_555 1_555
H9 C5 1_555 1_555
C6 N1 1_555 1_555
C7 O3 1_555 1_555
C8 O6 1_555 1_555
C9 N2 1_555 1_555
C10 C9 1_555 1_555
H10 C10 1_555 1_555
C11 C10 1_555 1_555
H11 C11 1_555 1_555
C12 C11 1_555 1_555
H12 C12 1_555 1_555
C13 N2 1_555 1_555
C14 O7 1_555 1_555
C15 O9 1_555 1_555
C16 C15 1_555 1_555
C17 C16 1_555 1_555
H13 C17 1_555 1_555
C18 C17 1_555 1_555
H14 C18 1_555 1_555
C19 C18 1_555 1_555
H15 C19 1_555 1_555
C20 N3 1_555 1_555
C21 O11 1_555 1_555
O16 H16 1_555 1_555
H17 O16 1_555 1_555
La1B O8 1_555 1_555
La1B_2 O4 1_555 1_555
La1C O12 1_555 1_555
La2B O2 1_555 1_555
O2B La2 1_555 1_555
O4B La1 1_555 1_555
O8B La1 1_555 1_555
O12C La1 1_555 1_555
O10 C15 1_555 1_555
C5 C6 1_555 1_555
C6 C7 1_555 1_555
C8 C9 1_555 1_555
C12 C13 1_555 1_555
C13 C14 1_555 1_555
C19 C20 1_555 1_555
C20 C21 1_555 1_555
La2B O2B 1_555 1_555

#END
