
#######################################################################
#
#                 Cambridge Crystallographic Data Centre
#                                CCDC 
#
#######################################################################
#
# If this CIF has been generated from an entry in the Cambridge 
# Structural Database, then it will include bibliographic, chemical, 
# crystal, experimental, refinement or atomic coordinate data resulting 
# from the CCDC's data processing and validation procedures.
#
#######################################################################

data_LETFUN
_symmetry_cell_setting           monoclinic
_symmetry_space_group_name_H-M   'P 21/c'
_symmetry_Int_Tables_number      14
_space_group_name_Hall           '-P 2ybc'
loop_
_symmetry_equiv_pos_site_id
_symmetry_equiv_pos_as_xyz
1 x,y,z
2 -x,1/2+y,1/2-z
3 -x,-y,-z
4 x,1/2-y,1/2+z
_cell_length_a                   10.9245(7)
_cell_length_b                   17.4705(12)
_cell_length_c                   13.2092(9)
_cell_angle_alpha                90
_cell_angle_beta                 101.6310(10)
_cell_angle_gamma                90
_cell_volume                     2469.29
loop_
_atom_site_label
_atom_site_type_symbol
_atom_site_fract_x
_atom_site_fract_y
_atom_site_fract_z
Gd1 Gd 0.828556(14) 0.043086(9) 0.411709(13)
Gd2 Gd 0.658520(15) -0.254580(9) 0.595500(12)
N1 N 0.8719(3) 0.11856(16) 0.2588(2)
N2 N 0.7899(3) 0.11933(16) 0.5684(2)
N3 N 0.6465(3) -0.12917(16) 0.6859(2)
O1 O 0.6382(3) 0.02767(18) 0.0762(2)
O2 O 0.7052(2) 0.00979(15) 0.2458(2)
O3 O 0.9838(2) 0.14940(14) 0.4491(2)
O4 O 1.1387(2) 0.21046(17) 0.3970(2)
O5 O 1.0057(3) 0.02391(19) 0.7591(2)
O6 O 0.9565(2) 0.00855(14) 0.58794(19)
O7 O 0.6759(2) 0.14590(15) 0.3770(2)
O8 O 0.5533(2) 0.23540(15) 0.4244(2)
O9 O 0.6562(2) -0.01110(14) 0.4740(2)
O10 O 0.6293(2) -0.13785(14) 0.48524(19)
O11 O 0.6751(3) -0.26129(14) 0.7801(2)
O12 O 0.6719(3) -0.20730(16) 0.9325(2)
O13 O 0.8317(2) -0.09971(15) 0.3889(2)
H1 H 0.7627 -0.1128 0.4041
H2 H 0.8869 -0.1223 0.4335
O14 O 0.5437(2) -0.37913(14) 0.5776(2)
H3 H 0.5835 -0.4206 0.5936
H4 H 0.5018 -0.3869 0.5169
O15 O 0.7988(3) -0.35940(17) 0.6629(3)
H5 H 0.8265 -0.3995 0.6962
H6 H 0.8634 -0.3377 0.6497
C1 C 0.7070(3) 0.0424(2) 0.1610(3)
C2 C 0.8065(3) 0.1037(2) 0.1642(3)
C3 C 0.8335(4) 0.1380(2) 0.0771(3)
H7 H 0.7861 0.1272 0.0119
C4 C 0.9331(4) 0.1892(3) 0.0887(3)
H8 H 0.9528 0.2134 0.0314
C5 C 1.0018(4) 0.2036(2) 0.1861(3)
H9 H 1.0695 0.2370 0.1956
C6 C 0.9683(3) 0.1672(2) 0.2704(3)
C7 C 1.0361(3) 0.1765(2) 0.3806(3)
C8 C 0.9448(3) 0.0402(2) 0.6737(3)
C9 C 0.8485(3) 0.1035(2) 0.6649(3)
C10 C 0.8232(4) 0.1402(2) 0.7505(3)
H10 H 0.8681 0.1289 0.8164
C11 C 0.7283(4) 0.1950(2) 0.7357(3)
H11 H 0.7079 0.2205 0.7919
C12 C 0.6656(4) 0.2108(2) 0.6370(3)
H12 H 0.6015 0.2468 0.6253
C13 C 0.6991(3) 0.1723(2) 0.5551(3)
C14 C 0.6377(3) 0.18452(19) 0.4429(3)
C15 C 0.6378(3) -0.0709(2) 0.5218(3)
C16 C 0.6273(3) -0.06318(19) 0.6328(3)
C17 C 0.6023(3) 0.0049(2) 0.6781(3)
H13 H 0.5869 0.0495 0.6393
C18 C 0.6008(4) 0.0048(2) 0.7820(3)
H14 H 0.5841 0.0498 0.8143
C19 C 0.6242(4) -0.0617(2) 0.8382(3)
H15 H 0.6257 -0.0622 0.9088
C20 C 0.6455(3) -0.1282(2) 0.7866(3)
C21 C 0.6662(3) -0.2052(2) 0.8372(3)
Gd1B Gd 1.171444(14) -0.043086(9) 0.588291(13)
Gd2B Gd 1.341480(15) 0.254580(9) 0.404500(12)
Gd2B_2 Gd 0.341480(15) 0.254580(9) 0.404500(12)
Gd2C Gd 0.658520(15) -0.245420(9) 1.095500(12)
O4B O 0.8613(2) -0.21046(17) 0.6030(2)
O6B O 1.0435(2) -0.00855(14) 0.41206(19)
O8B O 0.4467(2) -0.23540(15) 0.5756(2)
O12C O 0.6719(3) -0.29270(16) 0.4325(2)
O16 O 0.0746(12) 0.0595(6) 0.9687(9)
H16 H 0.0298 0.0284 0.9949
H17 H 0.0944 0.0348 0.9189
loop_
_geom_bond_atom_site_label_1
_geom_bond_atom_site_label_2
_geom_bond_site_symmetry_1
_geom_bond_site_symmetry_2
Gd1 N1 1_555 1_555
Gd2 N3 1_555 1_555
N1 C2 1_555 1_555
N2 Gd1 1_555 1_555
N3 C16 1_555 1_555
O1 C1 1_555 1_555
O2 Gd1 1_555 1_555
O3 Gd1 1_555 1_555
O4 C7 1_555 1_555
O5 C8 1_555 1_555
O6 Gd1 1_555 1_555
O7 Gd1 1_555 1_555
O8 C14 1_555 1_555
O9 Gd1 1_555 1_555
O10 Gd2 1_555 1_555
O11 Gd2 1_555 1_555
O12 C21 1_555 1_555
O13 Gd1 1_555 1_555
H1 O13 1_555 1_555
H2 O13 1_555 1_555
O14 Gd2 1_555 1_555
H3 O14 1_555 1_555
H4 O14 1_555 1_555
O15 Gd2 1_555 1_555
H5 O15 1_555 1_555
H6 O15 1_555 1_555
C1 O2 1_555 1_555
C2 C1 1_555 1_555
C3 C2 1_555 1_555
H7 C3 1_555 1_555
C4 C3 1_555 1_555
H8 C4 1_555 1_555
C5 C4 1_555 1_555
H9 C5 1_555 1_555
C6 N1 1_555 1_555
C7 O3 1_555 1_555
C8 O6 1_555 1_555
C9 N2 1_555 1_555
C10 C9 1_555 1_555
H10 C10 1_555 1_555
C11 C10 1_555 1_555
H11 C11 1_555 1_555
C12 C11 1_555 1_555
H12 C12 1_555 1_555
C13 N2 1_555 1_555
C14 O7 1_555 1_555
C15 O9 1_555 1_555
C16 C15 1_555 1_555
C17 C16 1_555 1_555
H13 C17 1_555 1_555
C18 C17 1_555 1_555
H14 C18 1_555 1_555
C19 C18 1_555 1_555
H15 C19 1_555 1_555
C20 N3 1_555 1_555
C21 O11 1_555 1_555
O16 H16 1_555 1_555
H17 O16 1_555 1_555
Gd1B O6 1_555 1_555
Gd2B O4 1_555 1_555
Gd2B_2 O8 1_555 1_555
Gd2C O12 1_555 1_555
O4B Gd2 1_555 1_555
O6B Gd1 1_555 1_555
O8B Gd2 1_555 1_555
O12C Gd2 1_555 1_555
O10 C15 1_555 1_555
C5 C6 1_555 1_555
C6 C7 1_555 1_555
C8 C9 1_555 1_555
C12 C13 1_555 1_555
C13 C14 1_555 1_555
C19 C20 1_555 1_555
C20 C21 1_555 1_555
Gd1B O6B 1_555 1_555

#END
