
#######################################################################
#
#                 Cambridge Crystallographic Data Centre
#                                CCDC 
#
#######################################################################
#
# If this CIF has been generated from an entry in the Cambridge 
# Structural Database, then it will include bibliographic, chemical, 
# crystal, experimental, refinement or atomic coordinate data resulting 
# from the CCDC's data processing and validation procedures.
#
#######################################################################

data_LETHEY
_symmetry_cell_setting           triclinic
_symmetry_space_group_name_H-M   'P -1'
_symmetry_Int_Tables_number      2
_space_group_name_Hall           '-P 1'
loop_
_symmetry_equiv_pos_site_id
_symmetry_equiv_pos_as_xyz
1 x,y,z
2 -x,-y,-z
_cell_length_a                   10.2233(15)
_cell_length_b                   12.842(2)
_cell_length_c                   19.073(3)
_cell_angle_alpha                101.562(4)
_cell_angle_beta                 99.637(5)
_cell_angle_gamma                104.124(6)
_cell_volume                     2316.59
loop_
_atom_site_label
_atom_site_type_symbol
_atom_site_fract_x
_atom_site_fract_y
_atom_site_fract_z
Cd1 Cd -0.5000 0.5000 0.5000
Cd2 Cd 0.16419(2) -0.062370(18) 0.857510(12)
S1 S -0.47224(9) 0.50491(6) 0.31556(4)
N1 N -0.6110(3) 0.3063(2) 0.46720(15)
N2 N -1.0502(6) -0.3787(5) 0.1804(3)
N3 N -0.3003(3) 0.4417(2) 0.50120(15)
N4 N 0.1669(3) 0.0291(2) 0.76236(17)
N5 N 0.2230(3) 0.0967(2) 0.95086(15)
N6 N 0.1976(3) 0.8300(2) 0.94183(15)
C1 C -0.7167(3) 0.1998(2) 0.20087(15)
C2 C -0.6206(3) 0.1439(2) 0.18453(16)
H1 H -0.6512 0.0697 0.1586
C3 C -0.4798(3) 0.1975(2) 0.20644(16)
C4 C -0.4343(3) 0.3088(2) 0.24611(16)
H2 H -0.3400 0.3452 0.2618
C5 C -0.5296(3) 0.3645(2) 0.26191(15)
C6 C -0.6703(3) 0.3110(2) 0.23898(16)
H3 H -0.7339 0.3496 0.2491
C7 C -0.8684(3) 0.1392(3) 0.17843(18)
C8 C -0.3766(3) 0.1373(3) 0.18701(18)
C9 C -0.6975(4) 0.2534(3) 0.40217(19)
H4 H -0.7382 0.2947 0.3751
C10 C -0.7291(4) 0.1407(3) 0.3734(2)
H5 H -0.7894 0.1078 0.3276
C11 C -0.6719(4) 0.0762(3) 0.4118(2)
C12 C -0.5864(4) 0.1307(3) 0.4802(2)
H6 H -0.5479 0.0906 0.5091
C13 C -0.5577(4) 0.2436(3) 0.50574(19)
H7 H -0.4989 0.2781 0.5517
C14 C -0.6967(5) -0.0455(3) 0.3790(2)
H8 H -0.7941 -0.0794 0.3558
H9 H -0.6729 -0.0811 0.4177
C15 C -0.6099(5) -0.0637(4) 0.3222(3)
H10 H -0.5127 -0.0292 0.3458
H11 H -0.6337 -0.0275 0.2839
C16 C -0.6313(5) -0.1862(4) 0.2872(3)
H12 H -0.5753 -0.1914 0.2510
H13 H -0.5974 -0.2200 0.3249
C17 C -0.9672(8) -0.4133(5) 0.2249(3)
H14 H -1.0024 -0.4827 0.2330
C18 C -0.8341(6) -0.3559(4) 0.2600(3)
H15 H -0.7812 -0.3865 0.2900
C19 C -0.7783(5) -0.2520(3) 0.2506(2)
C20 C -0.8634(6) -0.2137(4) 0.2047(3)
H16 H -0.8314 -0.1440 0.1963
C21 C -0.9964(6) -0.2792(6) 0.1710(3)
H17 H -1.0516 -0.2517 0.1398
C22 C -0.2929(4) 0.3638(3) 0.44514(19)
H18 H -0.3636 0.3405 0.4029
C23 C -0.1854(4) 0.3162(3) 0.44689(19)
H19 H -0.1852 0.2622 0.4064
C24 C -0.0779(4) 0.3489(3) 0.50883(19)
C25 C -0.0853(4) 0.4311(3) 0.5657(2)
H20 H -0.0144 0.4577 0.6079
C26 C -0.1958(4) 0.4740(3) 0.56062(19)
H21 H -0.1983 0.5283 0.6004
C27 C 0.0390(4) 0.2976(3) 0.5151(2)
H22 H 0.1263 0.3558 0.5288
H23 H 0.0341 0.2502 0.4677
C28 C 0.0350(4) 0.2297(3) 0.5718(2)
H24 H -0.0506 0.1696 0.5569
H25 H 0.0356 0.2763 0.6187
C29 C 0.1569(4) 0.1816(3) 0.5811(2)
H26 H 0.1497 0.1276 0.5360
H27 H 0.2423 0.2405 0.5898
C30 C 0.2290(5) 0.1355(3) 0.7706(2)
H28 H 0.2741 0.1787 0.8177
C31 C 0.2306(5) 0.1860(3) 0.7133(2)
H29 H 0.2781 0.2607 0.7222
C32 C 0.1629(4) 0.1267(3) 0.6436(2)
C33 C 0.0997(5) 0.0150(3) 0.6345(2)
H30 H 0.0542 -0.0299 0.5879
C34 C 0.1042(5) -0.0294(3) 0.6942(2)
H31 H 0.0609 -0.1047 0.6864
C35 C 0.3523(4) 0.1625(3) 0.9749(2)
H32 H 0.4230 0.1366 0.9598
C36 C 0.3866(4) 0.2669(3) 1.0211(2)
H33 H 0.4787 0.3094 1.0368
C37 C 0.2845(4) 0.3085(3) 1.04403(17)
C38 C 0.1527(4) 0.2385(3) 1.0217(2)
H34 H 0.0809 0.2615 1.0378
C39 C 0.1247(4) 0.1346(3) 0.9758(2)
H35 H 0.0339 0.0890 0.9617
C40 C 0.3130(5) 0.4256(3) 1.0875(2)
H36 H 0.2580 0.4275 1.1243
H37 H 0.4100 0.4546 1.1126
C41 C 0.2773(5) 0.4973(3) 1.0367(2)
H38 H 0.1808 0.4661 1.0109
H39 H 0.3330 0.4948 1.0003
C42 C 0.3003(5) 0.6157(3) 1.0756(2)
H40 H 0.2468 0.6174 1.1131
H41 H 0.3973 0.6467 1.1004
C43 C 0.1588(4) 0.7198(3) 0.9152(2)
H42 H 0.1094 0.6901 0.8667
C44 C 0.1888(4) 0.6485(3) 0.9562(2)
H43 H 0.1589 0.5723 0.9353
C45 C 0.2633(4) 0.6894(3) 1.02837(19)
C46 C 0.3037(4) 0.8035(3) 1.05529(19)
H44 H 0.3543 0.8355 1.1034
C47 C 0.2695(4) 0.8695(3) 1.0113(2)
H45 H 0.2980 0.9459 1.0309
O1 O -0.9526(2) 0.1927(2) 0.19317(16)
O3 O -0.9077(3) 0.0395(2) 0.14730(18)
O5 O -0.4172(2) 0.04522(19) 0.14161(14)
O6 O -0.2506(2) 0.18549(19) 0.21707(13)
O7 O -0.5394(3) 0.5017(2) 0.37707(13)
O8 O -0.5210(3) 0.5703(2) 0.27026(15)
O9 O -0.3238(3) 0.5339(2) 0.33855(17)
Cd2A Cd -1.16419(2) 1.062370(18) 0.142490(12)
Cd2_2 Cd 0.16419(2) 0.937630(18) 0.857510(12)
Cd2A_2 Cd -1.16419(2) 0.062370(18) 0.142490(12)
Cd2A_3 Cd -0.16419(2) 0.062370(18) 0.142490(12)
Cd2_3 Cd -0.83581(2) 0.937630(18) 0.857510(12)
Cd2_4 Cd 0.16419(2) -1.062370(18) 0.857510(12)
S1A S -0.52776(9) 0.49509(6) 0.68444(4)
N1A N -0.3890(3) 0.6937(2) 0.53280(15)
N2A N 0.0502(6) 1.3787(5) 0.8196(3)
N3A N -0.6997(3) 0.5583(2) 0.49880(15)
N4A N -1.1669(3) 0.9709(2) 0.23764(17)
N5_2 N 0.2230(3) -0.9033(2) 0.95086(15)
N5A N -1.2230(3) 0.9033(2) 0.04914(15)
N6_2 N 0.1976(3) -0.1700(2) 0.94183(15)
N6A N -1.1976(3) 1.1700(2) 0.05817(15)
C1A C -0.2833(3) 0.8002(2) 0.79913(15)
C2A C -0.3794(3) 0.8561(2) 0.81547(16)
H1A H -0.3488 0.9303 0.8414
C3A C -0.5202(3) 0.8025(2) 0.79356(16)
C4A C -0.5657(3) 0.6912(2) 0.75389(16)
H2A H -0.6600 0.6548 0.7382
C5A C -0.4704(3) 0.6355(2) 0.73809(15)
C6A C -0.3297(3) 0.6890(2) 0.76102(16)
H3A H -0.2661 0.6504 0.7509
C7A C -0.1316(3) 0.8608(3) 0.82157(18)
C8A C -0.6234(3) 0.8627(3) 0.81299(18)
C9A C -0.3025(4) 0.7466(3) 0.59783(19)
H4A H -0.2618 0.7053 0.6249
C10A C -0.2709(4) 0.8593(3) 0.6266(2)
H5A H -0.2106 0.8922 0.6724
C11A C -0.3281(4) 0.9238(3) 0.5882(2)
C12A C -0.4136(4) 0.8693(3) 0.5198(2)
H6A H -0.4521 0.9094 0.4909
C13A C -0.4423(4) 0.7564(3) 0.49426(19)
H7A H -0.5011 0.7219 0.4483
C14A C -0.3033(5) 1.0455(3) 0.6210(2)
H8A H -0.2059 1.0794 0.6442
H9A H -0.3271 1.0811 0.5823
C15A C -0.3901(5) 1.0637(4) 0.6778(3)
H10A H -0.4873 1.0292 0.6542
H11A H -0.3663 1.0275 0.7161
C16A C -0.3687(5) 1.1862(4) 0.7128(3)
H12A H -0.4247 1.1914 0.7490
H13A H -0.4026 1.2200 0.6751
C17A C -0.0328(8) 1.4133(5) 0.7751(3)
H14A H 0.0024 1.4827 0.7670
C18A C -0.1659(6) 1.3559(4) 0.7400(3)
H15A H -0.2188 1.3865 0.7100
C19A C -0.2217(5) 1.2520(3) 0.7494(2)
C20A C -0.1366(6) 1.2137(4) 0.7953(3)
H16A H -0.1686 1.1440 0.8037
C21A C -0.0036(6) 1.2792(6) 0.8290(3)
H17A H 0.0516 1.2517 0.8602
C22A C -0.7071(4) 0.6362(3) 0.55486(19)
H18A H -0.6364 0.6595 0.5971
C23A C -0.8146(4) 0.6838(3) 0.55311(19)
H19A H -0.8148 0.7378 0.5936
C24A C -0.9221(4) 0.6511(3) 0.49117(19)
C25A C -0.9147(4) 0.5689(3) 0.4343(2)
H20A H -0.9856 0.5423 0.3921
C26A C -0.8042(4) 0.5260(3) 0.43938(19)
H21A H -0.8017 0.4717 0.3996
C27A C -1.0390(4) 0.7024(3) 0.4849(2)
H22A H -1.1263 0.6442 0.4712
H23A H -1.0341 0.7498 0.5323
C28A C -1.0350(4) 0.7703(3) 0.4282(2)
H24A H -0.9494 0.8304 0.4431
H25A H -1.0356 0.7237 0.3813
C29A C -1.1569(4) 0.8184(3) 0.4189(2)
H26A H -1.1497 0.8724 0.4640
H27A H -1.2423 0.7595 0.4102
C30A C -1.2290(5) 0.8645(3) 0.2294(2)
H28A H -1.2741 0.8213 0.1823
C31A C -1.2306(5) 0.8140(3) 0.2867(2)
H29A H -1.2781 0.7393 0.2778
C32A C -1.1629(4) 0.8733(3) 0.3564(2)
C33A C -1.0997(5) 0.9850(3) 0.3655(2)
H30A H -1.0542 1.0299 0.4121
C34A C -1.1042(5) 1.0294(3) 0.3058(2)
H31A H -1.0609 1.1047 0.3136
C35_2 C 0.3523(4) -0.8375(3) 0.9749(2)
H32_2 H 0.4230 -0.8634 0.9598
C36_2 C 0.3866(4) -0.7331(3) 1.0211(2)
H33_2 H 0.4787 -0.6906 1.0368
C37_2 C 0.2845(4) -0.6915(3) 1.04403(17)
C38_2 C 0.1527(4) -0.7615(3) 1.0217(2)
H34_2 H 0.0809 -0.7385 1.0378
C39_2 C 0.1247(4) -0.8654(3) 0.9758(2)
H35_2 H 0.0339 -0.9110 0.9617
C40_2 C 0.3130(5) -0.5744(3) 1.0875(2)
H36_2 H 0.2580 -0.5725 1.1243
H37_2 H 0.4100 -0.5454 1.1126
C41_2 C 0.2773(5) -0.5027(3) 1.0367(2)
H38_2 H 0.1808 -0.5339 1.0109
H39_2 H 0.3330 -0.5052 1.0003
C42_2 C 0.3003(5) -0.3843(3) 1.0756(2)
H40_2 H 0.2468 -0.3826 1.1131
H41_2 H 0.3973 -0.3533 1.1004
C43_2 C 0.1588(4) -0.2802(3) 0.9152(2)
H42_2 H 0.1094 -0.3099 0.8667
C44_2 C 0.1888(4) -0.3515(3) 0.9562(2)
H43_2 H 0.1589 -0.4277 0.9353
C45_2 C 0.2633(4) -0.3106(3) 1.02837(19)
C46_2 C 0.3037(4) -0.1965(3) 1.05529(19)
H44_2 H 0.3543 -0.1645 1.1034
C47_2 C 0.2695(4) -0.1305(3) 1.0113(2)
H45_2 H 0.2980 -0.0541 1.0309
O1A O -0.0474(2) 0.8073(2) 0.80683(16)
O1A_2 O -0.0474(2) -0.1927(2) 0.80683(16)
O1_2 O -0.9526(2) 1.1927(2) 0.19317(16)
O3A O -0.0923(3) 0.9605(2) 0.85270(18)
O5A O -0.5828(2) 0.95478(19) 0.85839(14)
O5A_2 O 0.4172(2) -0.04522(19) 0.85839(14)
O5_2 O -1.4172(2) 1.04522(19) 0.14161(14)
O6A O -0.7494(2) 0.81451(19) 0.78293(13)
O6A_2 O 0.2506(2) -0.18549(19) 0.78293(13)
O6_2 O -1.2506(2) 1.18549(19) 0.21707(13)
O7A O -0.4606(3) 0.4983(2) 0.62293(13)
O8A O -0.4790(3) 0.4297(2) 0.72974(15)
O9A O -0.6762(3) 0.4661(2) 0.66145(17)
O2 O -1.0013(4) 0.3403(3) 0.3030(2)
H46 H -1.0932(15) 0.310(6) 0.287(4)
H47 H -0.968(7) 0.303(5) 0.268(3)
O4 O -1.3494(6) -0.4304(5) 0.1475(3)
loop_
_geom_bond_atom_site_label_1
_geom_bond_atom_site_label_2
_geom_bond_site_symmetry_1
_geom_bond_site_symmetry_2
Cd1 N1 1_555 1_555
Cd2 N4 1_555 1_555
S1 C5 1_555 1_555
N1 C9 1_555 1_555
N2 C17 1_555 1_555
N3 Cd1 1_555 1_555
N4 C30 1_555 1_555
N5 Cd2 1_555 1_555
N6 C43 1_555 1_555
C1 C2 1_555 1_555
C2 H1 1_555 1_555
C3 C2 1_555 1_555
C4 C3 1_555 1_555
H2 C4 1_555 1_555
C5 C4 1_555 1_555
C6 C1 1_555 1_555
H3 C6 1_555 1_555
C7 C1 1_555 1_555
C8 C3 1_555 1_555
C9 H4 1_555 1_555
C10 C9 1_555 1_555
H5 C10 1_555 1_555
C11 C10 1_555 1_555
C12 C11 1_555 1_555
H6 C12 1_555 1_555
C13 N1 1_555 1_555
H7 C13 1_555 1_555
C14 C11 1_555 1_555
H8 C14 1_555 1_555
H9 C14 1_555 1_555
C15 C14 1_555 1_555
H10 C15 1_555 1_555
H11 C15 1_555 1_555
C16 C15 1_555 1_555
H12 C16 1_555 1_555
H13 C16 1_555 1_555
C17 H14 1_555 1_555
C18 C17 1_555 1_555
H15 C18 1_555 1_555
C19 C16 1_555 1_555
C20 C19 1_555 1_555
H16 C20 1_555 1_555
C21 N2 1_555 1_555
H17 C21 1_555 1_555
C22 N3 1_555 1_555
H18 C22 1_555 1_555
C23 C22 1_555 1_555
H19 C23 1_555 1_555
C24 C23 1_555 1_555
C25 C24 1_555 1_555
H20 C25 1_555 1_555
C26 N3 1_555 1_555
H21 C26 1_555 1_555
C27 C24 1_555 1_555
H22 C27 1_555 1_555
H23 C27 1_555 1_555
C28 C27 1_555 1_555
H24 C28 1_555 1_555
H25 C28 1_555 1_555
C29 C28 1_555 1_555
H26 C29 1_555 1_555
H27 C29 1_555 1_555
C30 H28 1_555 1_555
C31 C30 1_555 1_555
H29 C31 1_555 1_555
C32 C29 1_555 1_555
C33 C32 1_555 1_555
H30 C33 1_555 1_555
C34 N4 1_555 1_555
H31 C34 1_555 1_555
C35 N5 1_555 1_555
H32 C35 1_555 1_555
C36 C35 1_555 1_555
H33 C36 1_555 1_555
C37 C36 1_555 1_555
C38 C37 1_555 1_555
H34 C38 1_555 1_555
C39 N5 1_555 1_555
H35 C39 1_555 1_555
C40 C37 1_555 1_555
H36 C40 1_555 1_555
H37 C40 1_555 1_555
C41 C40 1_555 1_555
H38 C41 1_555 1_555
H39 C41 1_555 1_555
C42 C41 1_555 1_555
H40 C42 1_555 1_555
H41 C42 1_555 1_555
C43 H42 1_555 1_555
C44 C43 1_555 1_555
H43 C44 1_555 1_555
C45 C42 1_555 1_555
C46 C45 1_555 1_555
H44 C46 1_555 1_555
C47 N6 1_555 1_555
H45 C47 1_555 1_555
O1 C7 1_555 1_555
O2 H46 1_555 1_555
H47 O2 1_555 1_555
O3 C7 1_555 1_555
O5 C8 1_555 1_555
O6 C8 1_555 1_555
O7 Cd1 1_555 1_555
O8 S1 1_555 1_555
O9 S1 1_555 1_555
Cd2A N4A 1_555 1_555
Cd2_2 N6 1_555 1_555
Cd2A_2 O1 1_555 1_555
Cd2A_3 O5 1_555 1_555
Cd2_3 O5A 1_555 1_555
Cd2_4 N5_2 1_555 1_555
S1A C5A 1_555 1_555
N1A Cd1 1_555 1_555
N2A C17A 1_555 1_555
N3A Cd1 1_555 1_555
N4A C30A 1_555 1_555
N5_2 C35_2 1_555 1_555
N5A Cd2A 1_555 1_555
N6_2 Cd2 1_555 1_555
N6A Cd2A 1_555 1_555
C1A C2A 1_555 1_555
C2A H1A 1_555 1_555
C3A C2A 1_555 1_555
C4A C3A 1_555 1_555
H2A C4A 1_555 1_555
C5A C4A 1_555 1_555
C6A C1A 1_555 1_555
H3A C6A 1_555 1_555
C7A C1A 1_555 1_555
C8A C3A 1_555 1_555
C9A N1A 1_555 1_555
H4A C9A 1_555 1_555
C10A C9A 1_555 1_555
H5A C10A 1_555 1_555
C11A C10A 1_555 1_555
C12A C11A 1_555 1_555
H6A C12A 1_555 1_555
C13A N1A 1_555 1_555
H7A C13A 1_555 1_555
C14A C11A 1_555 1_555
H8A C14A 1_555 1_555
H9A C14A 1_555 1_555
C15A C14A 1_555 1_555
H10A C15A 1_555 1_555
H11A C15A 1_555 1_555
C16A C15A 1_555 1_555
H12A C16A 1_555 1_555
H13A C16A 1_555 1_555
C17A H14A 1_555 1_555
C18A C17A 1_555 1_555
H15A C18A 1_555 1_555
C19A C16A 1_555 1_555
C20A C19A 1_555 1_555
H16A C20A 1_555 1_555
C21A N2A 1_555 1_555
H17A C21A 1_555 1_555
C22A N3A 1_555 1_555
H18A C22A 1_555 1_555
C23A C22A 1_555 1_555
H19A C23A 1_555 1_555
C24A C23A 1_555 1_555
C25A C24A 1_555 1_555
H20A C25A 1_555 1_555
C26A N3A 1_555 1_555
H21A C26A 1_555 1_555
C27A C24A 1_555 1_555
H22A C27A 1_555 1_555
H23A C27A 1_555 1_555
C28A C27A 1_555 1_555
H24A C28A 1_555 1_555
H25A C28A 1_555 1_555
C29A C28A 1_555 1_555
H26A C29A 1_555 1_555
H27A C29A 1_555 1_555
C30A H28A 1_555 1_555
C31A C30A 1_555 1_555
H29A C31A 1_555 1_555
C32A C29A 1_555 1_555
C33A C32A 1_555 1_555
H30A C33A 1_555 1_555
C34A N4A 1_555 1_555
H31A C34A 1_555 1_555
C35_2 H32_2 1_555 1_555
C36_2 C35_2 1_555 1_555
H33_2 C36_2 1_555 1_555
C37_2 C36_2 1_555 1_555
C38_2 C37_2 1_555 1_555
H34_2 C38_2 1_555 1_555
C39_2 N5_2 1_555 1_555
H35_2 C39_2 1_555 1_555
C40_2 C37_2 1_555 1_555
H36_2 C40_2 1_555 1_555
H37_2 C40_2 1_555 1_555
C41_2 C40_2 1_555 1_555
H38_2 C41_2 1_555 1_555
H39_2 C41_2 1_555 1_555
C42_2 C41_2 1_555 1_555
H40_2 C42_2 1_555 1_555
H41_2 C42_2 1_555 1_555
C43_2 N6_2 1_555 1_555
H42_2 C43_2 1_555 1_555
C44_2 C43_2 1_555 1_555
H43_2 C44_2 1_555 1_555
C45_2 C42_2 1_555 1_555
C46_2 C45_2 1_555 1_555
H44_2 C46_2 1_555 1_555
C47_2 N6_2 1_555 1_555
H45_2 C47_2 1_555 1_555
O1A Cd2_2 1_555 1_555
O1A_2 Cd2 1_555 1_555
O1_2 Cd2A 1_555 1_555
O3A C7A 1_555 1_555
O5A C8A 1_555 1_555
O5A_2 Cd2 1_555 1_555
O5_2 Cd2A 1_555 1_555
O6A Cd2_3 1_555 1_555
O6A_2 Cd2 1_555 1_555
O6_2 Cd2A 1_555 1_555
O7A Cd1 1_555 1_555
O8A S1A 1_555 1_555
O9A S1A 1_555 1_555
S1 O7 1_555 1_555
C5 C6 1_555 1_555
C12 C13 1_555 1_555
C18 C19 1_555 1_555
C20 C21 1_555 1_555
C25 C26 1_555 1_555
C31 C32 1_555 1_555
C33 C34 1_555 1_555
C38 C39 1_555 1_555
C44 C45 1_555 1_555
C46 C47 1_555 1_555
O6 Cd2A_3 1_555 1_555
S1A O7A 1_555 1_555
C5A C6A 1_555 1_555
C7A O1A 1_555 1_555
C8A O6A 1_555 1_555
C12A C13A 1_555 1_555
C18A C19A 1_555 1_555
C20A C21A 1_555 1_555
C25A C26A 1_555 1_555
C31A C32A 1_555 1_555
C33A C34A 1_555 1_555
C38_2 C39_2 1_555 1_555
C44_2 C45_2 1_555 1_555
C46_2 C47_2 1_555 1_555

#END
