
#######################################################################
#
#                 Cambridge Crystallographic Data Centre
#                                CCDC 
#
#######################################################################
#
# If this CIF has been generated from an entry in the Cambridge 
# Structural Database, then it will include bibliographic, chemical, 
# crystal, experimental, refinement or atomic coordinate data resulting 
# from the CCDC's data processing and validation procedures.
#
#######################################################################

data_LETHAU
_symmetry_cell_setting           triclinic
_symmetry_space_group_name_H-M   'P -1'
_symmetry_Int_Tables_number      2
_space_group_name_Hall           '-P 1'
loop_
_symmetry_equiv_pos_site_id
_symmetry_equiv_pos_as_xyz
1 x,y,z
2 -x,-y,-z
_cell_length_a                   8.16570(10)
_cell_length_b                   12.0452(2)
_cell_length_c                   15.2366(3)
_cell_angle_alpha                78.749(5)
_cell_angle_beta                 85.824(6)
_cell_angle_gamma                72.229(5)
_cell_volume                     1399.56
loop_
_atom_site_label
_atom_site_type_symbol
_atom_site_fract_x
_atom_site_fract_y
_atom_site_fract_z
Cd1 Cd -0.22062(3) 1.38425(2) 0.346674(15)
Cd2 Cd -0.36736(3) 1.38552(2) 0.572566(15)
Cd3 Cd 0.50530(3) 0.84274(2) 0.212780(15)
Cd4 Cd 0.86071(3) 1.10670(2) -0.070920(15)
Cd5 Cd 0.73774(3) 1.11238(2) 0.157240(15)
S1 S 0.07297(9) 1.28411(7) 0.51644(5)
S2 S 0.43521(9) 1.21893(7) -0.01699(5)
O1 O 0.0213(3) 1.3751(2) 0.43623(16)
O2 O 0.1779(3) 0.8124(2) 0.60841(17)
O3 O -0.0730(3) 1.2618(2) 0.57038(18)
O4 O 0.3998(3) 0.7302(2) 0.52581(18)
O5 O 0.1960(3) 1.3104(2) 0.56756(17)
O6 O 0.5936(3) 0.9808(2) 0.26093(16)
O7 O 0.3296(3) 1.1859(2) -0.07524(17)
O8 O 0.5331(4) 1.1702(2) 0.26544(18)
O9 O 0.5794(3) 1.2495(2) -0.06887(17)
O10 O 0.0994(3) 1.7714(2) -0.02313(17)
O11 O 0.4873(3) 1.1294(2) 0.06308(16)
O12 O 0.3106(3) 1.6895(2) -0.11116(17)
O13 O -0.1074(4) 1.5126(2) 0.2343(2)
O14 O -0.0113(4) 1.3212(2) 0.24111(18)
O15 O -0.3534(3) 1.5045(2) 0.43823(15)
H1 H -0.298(6) 1.558(4) 0.438(4)
O16 O -0.4469(4) 1.4282(4) 0.2488(2)
H2 H -0.4920 1.3747 0.2589
H3 H -0.373(14) 1.436(8) 0.201(6)
O17 O -0.4007(4) 1.2954(3) 0.7099(2)
H4 H -0.461(18) 1.351(10) 0.742(9)
O18 O -0.2510(7) 1.5047(5) 0.6443(3)
H5 H -0.3219 1.5353 0.6802
O19 O 0.7814(3) 0.7377(2) 0.25394(16)
H6 H 0.794(8) 0.727(6) 0.3125(15)
H7 H 0.817(6) 0.668(2) 0.236(3)
O20 O 0.2729(3) 0.9731(2) 0.15341(17)
H8 H 0.300(8) 1.033(4) 0.118(4)
O21 O 0.8917(4) 1.2355(3) -0.19729(19)
H9 H 0.819(7) 1.258(6) -0.243(3)
H10 H 0.988(4) 1.211(5) -0.227(4)
O22 O 0.8577(3) 0.9891(2) 0.06610(15)
H11 H 0.806(6) 0.935(3) 0.066(3)
O23 O 0.9748(4) 1.0623(3) 0.2437(2)
H12 H 0.982(9) 1.118(4) 0.272(4)
H13 H 1.078(5) 1.050(7) 0.216(4)
C1 C 0.2864(4) 0.9401(3) 0.4967(2)
C2 C 0.3923(4) 0.9488(3) 0.4215(2)
H14 H 0.4628 0.8803 0.4033
C3 C 0.3933(4) 1.0593(3) 0.3734(2)
C4 C 0.2893(4) 1.1616(3) 0.4017(2)
H15 H 0.2884 1.2358 0.3696
C5 C 0.1870(4) 1.1520(3) 0.4780(2)
C6 C 0.1828(4) 1.0418(3) 0.5258(2)
H16 H 0.1121 1.0363 0.5762
C7 C 0.2879(4) 0.8195(3) 0.5474(2)
C8 C 0.5121(4) 1.0714(3) 0.2950(2)
C9 C 0.2087(4) 1.5613(3) 0.0036(2)
C10 C 0.1042(4) 1.5501(3) 0.0792(2)
H17 H 0.0346 1.6177 0.0990
C11 C 0.1029(4) 1.4390(3) 0.1253(2)
C12 C 0.2059(4) 1.3374(3) 0.0957(2)
H18 H 0.2058 1.2627 0.1264
C13 C 0.3090(4) 1.3489(3) 0.0199(2)
C14 C 0.3131(4) 1.4598(3) -0.0264(2)
H19 H 0.3842 1.4663 -0.0765
C15 C 0.2052(4) 1.6825(3) -0.0466(2)
C16 C -0.0112(4) 1.4234(3) 0.2051(2)
H20 H -0.197(11) 1.542(4) 0.600(5)
Cd1A Cd 0.22062(3) 0.61575(2) 0.653326(15)
Cd2A Cd 0.36736(3) 0.61448(2) 0.427434(15)
Cd2A_2 Cd -0.63264(3) 1.61448(2) 0.427434(15)
Cd3A Cd 0.49470(3) 1.15726(2) -0.212780(15)
Cd3A_2 Cd -0.50530(3) 1.15726(2) 0.787220(15)
Cd4A Cd 0.13929(3) 1.89330(2) 0.070920(15)
Cd4A_2 Cd 0.13929(3) 0.89330(2) 0.070920(15)
Cd4A_3 Cd 1.13929(3) 0.89330(2) 0.070920(15)
Cd5A Cd 0.26226(3) 1.88762(2) -0.157240(15)
O2A O -0.1779(3) 1.1876(2) 0.39159(17)
O4A O -0.3998(3) 1.2698(2) 0.47419(18)
O7A O 0.6704(3) 0.8141(2) 0.07524(17)
O10A O 0.9006(3) 1.2286(2) 0.02313(17)
O12A O 0.6894(3) 1.3105(2) 0.11116(17)
O15A O -0.6466(3) 1.4955(2) 0.56177(15)
H1A H -0.702(6) 1.442(4) 0.562(4)
O17A O 0.4007(4) 0.7046(3) 0.2901(2)
H4A H 0.461(18) 0.649(10) 0.258(9)
O20A O 0.7271(3) 1.0269(2) -0.15341(17)
H8A H 0.700(8) 0.967(4) -0.118(4)
O22A O 1.1423(3) 1.0109(2) -0.06610(15)
H11A H 1.194(6) 1.065(3) -0.066(3)
loop_
_geom_bond_atom_site_label_1
_geom_bond_atom_site_label_2
_geom_bond_site_symmetry_1
_geom_bond_site_symmetry_2
Cd1 O1 1_555 1_555
Cd2 O3 1_555 1_555
Cd3 O6 1_555 1_555
Cd4 O9 1_555 1_555
Cd5 O6 1_555 1_555
S1 O1 1_555 1_555
S2 O7 1_555 1_555
O2 C7 1_555 1_555
O3 S1 1_555 1_555
O4 C7 1_555 1_555
O5 S1 1_555 1_555
O6 C8 1_555 1_555
O7 Cd3A 1_555 1_555
O8 Cd5 1_555 1_555
O9 S2 1_555 1_555
O10 C15 1_555 1_555
O11 Cd5 1_555 1_555
O12 C15 1_555 1_555
O13 Cd1 1_555 1_555
O14 Cd1 1_555 1_555
O15 Cd1 1_555 1_555
H1 O15 1_555 1_555
O16 Cd1 1_555 1_555
H2 O16 1_555 1_555
H3 O16 1_555 1_555
O17 Cd2 1_555 1_555
H4 O17 1_555 1_555
O18 Cd2 1_555 1_555
H5 O18 1_555 1_555
O19 Cd3 1_555 1_555
H6 O19 1_555 1_555
H7 O19 1_555 1_555
O20 Cd3 1_555 1_555
H8 O20 1_555 1_555
O21 Cd4 1_555 1_555
H9 O21 1_555 1_555
H10 O21 1_555 1_555
O22 Cd4 1_555 1_555
H11 O22 1_555 1_555
O23 Cd5 1_555 1_555
H12 O23 1_555 1_555
H13 O23 1_555 1_555
C1 C2 1_555 1_555
C2 H14 1_555 1_555
C3 C2 1_555 1_555
C4 C3 1_555 1_555
H15 C4 1_555 1_555
C5 S1 1_555 1_555
C6 C1 1_555 1_555
H16 C6 1_555 1_555
C7 C1 1_555 1_555
C8 O8 1_555 1_555
C9 C10 1_555 1_555
C10 H17 1_555 1_555
C11 C10 1_555 1_555
C12 C11 1_555 1_555
H18 C12 1_555 1_555
C13 S2 1_555 1_555
C14 C9 1_555 1_555
H19 C14 1_555 1_555
C15 C9 1_555 1_555
C16 O13 1_555 1_555
H20 O18 1_555 1_555
Cd1A O2 1_555 1_555
Cd2A O4 1_555 1_555
Cd2A_2 O15 1_555 1_555
Cd3A O20A 1_555 1_555
Cd3A_2 O17 1_555 1_555
Cd4A O10 1_555 1_555
Cd4A_2 O20 1_555 1_555
Cd4A_3 O22 1_555 1_555
Cd5A O12 1_555 1_555
O2A Cd1 1_555 1_555
O4A Cd2 1_555 1_555
O7A Cd3 1_555 1_555
O10A Cd4 1_555 1_555
O12A Cd5 1_555 1_555
O15A Cd2 1_555 1_555
H1A O15A 1_555 1_555
O17A Cd3 1_555 1_555
H4A O17A 1_555 1_555
O20A Cd4 1_555 1_555
H8A O20A 1_555 1_555
O22A Cd4 1_555 1_555
H11A O22A 1_555 1_555
Cd2 O15 1_555 1_555
Cd5 O22 1_555 1_555
S2 O11 1_555 1_555
O14 C16 1_555 1_555
C3 C8 1_555 1_555
C4 C5 1_555 1_555
C5 C6 1_555 1_555
C11 C16 1_555 1_555
C12 C13 1_555 1_555
C13 C14 1_555 1_555
Cd2A O17A 1_555 1_555
Cd2A_2 O15A 1_555 1_555
Cd4A_3 O22A 1_555 1_555

#END
