
#######################################################################
#
#                 Cambridge Crystallographic Data Centre
#                                CCDC 
#
#######################################################################
#
# If this CIF has been generated from an entry in the Cambridge 
# Structural Database, then it will include bibliographic, chemical, 
# crystal, experimental, refinement or atomic coordinate data resulting 
# from the CCDC's data processing and validation procedures.
#
#######################################################################

data_LETJOL
_symmetry_cell_setting           triclinic
_symmetry_space_group_name_H-M   'P -1'
_symmetry_Int_Tables_number      2
_space_group_name_Hall           '-P 1'
loop_
_symmetry_equiv_pos_site_id
_symmetry_equiv_pos_as_xyz
1 x,y,z
2 -x,-y,-z
_cell_length_a                   11.439(5)
_cell_length_b                   11.940(5)
_cell_length_c                   14.660(5)
_cell_angle_alpha                72.876(5)
_cell_angle_beta                 69.600(5)
_cell_angle_gamma                70.912(5)
_cell_volume                     1736.33
loop_
_atom_site_label
_atom_site_type_symbol
_atom_site_fract_x
_atom_site_fract_y
_atom_site_fract_z
Co1 Co 0.5000 0.5000 0.5000
Co2 Co 0.40670(3) 0.50434(3) 0.31848(2)
O1 O 0.17436(18) 1.24136(17) 0.33172(19)
O2 O 0.41556(18) 0.67834(15) 0.44515(14)
N1 N 0.37041(19) 0.52454(18) 0.18345(15)
O3 O 0.0860(2) -0.40464(18) 0.93689(18)
C1 C 0.4672(2) 0.3121(2) 0.20688(18)
N2 N 0.4813(2) 0.32418(19) 0.29150(15)
N3 N 0.4280(2) 0.2737(2) -0.05047(18)
C2 C 0.3815(2) 0.4197(2) 0.06097(18)
O4 O 0.34729(18) 0.68294(16) 0.31789(14)
O5 O 0.2358(2) 0.4525(2) 0.40767(17)
C3 C 0.5099(2) 0.2005(2) 0.17716(19)
C4 C -0.1908(2) 1.4290(2) 0.30005(18)
C5 C 0.4051(2) 0.4214(2) 0.14889(18)
O6 O -0.0544(2) 0.16889(19) 0.82162(19)
C6 C -0.0835(3) 1.4752(2) 0.2478(2)
N4 N 0.5281(3) 0.1056(2) 0.03796(19)
C7 C 0.3114(2) 0.8674(2) 0.36406(19)
C8 C 0.0512(3) 1.2995(2) 0.3222(2)
C9 C 0.3618(2) 0.7324(2) 0.37678(18)
O7 O -0.1225(2) -0.3558(2) 1.01563(19)
O8 O -0.3258(2) 1.5656(2) 0.20280(15)
C10 C -0.0149(3) -0.3290(3) 0.9598(2)
C11 C 0.4894(3) 0.2017(2) 0.0862(2)
C12 C 0.4279(2) 0.3055(2) 0.03211(19)
C13 C 0.2796(3) 0.6311(3) 0.0477(2)
O9 O 0.35962(19) 0.4299(2) 0.4994(2)
C14 C -0.1346(3) 0.0099(3) 0.9311(2)
C15 C 0.2142(2) 1.1163(2) 0.3433(2)
C16 C 0.2634(2) 0.4133(2) 0.4880(2)
C17 C 0.1842(2) 0.3404(2) 0.5745(2)
C18 C 0.2556(3) 0.9346(3) 0.2885(2)
C19 C 0.5797(3) 0.1124(3) 0.3241(2)
C20 C -0.0526(3) 1.2528(3) 0.3754(2)
C21 C 0.5358(3) 0.2264(3) 0.3479(2)
C22 C 0.3177(3) 0.5282(2) 0.0101(2)
C23 C 0.1511(4) 0.2160(3) 0.7380(3)
C24 C 0.0645(3) 0.3381(3) 0.5729(2)
C25 C 0.0363(3) 1.4128(3) 0.2588(2)
C26 C -0.1741(3) 1.3187(2) 0.3652(2)
C27 C -0.1292(3) -0.1117(3) 0.9658(2)
C28 C 0.0756(3) -0.1593(3) 0.8472(2)
C29 C 0.5679(3) 0.0991(3) 0.2386(2)
C30 C -0.0363(3) 0.0461(3) 0.8531(2)
C31 C -0.0232(3) -0.1976(2) 0.9251(2)
C32 C 0.3088(3) 0.6260(2) 0.1339(2)
C33 C 0.2688(3) 1.0518(3) 0.4188(3)
C34 C 0.0307(3) 0.2183(3) 0.7363(2)
C35 C 0.2278(3) 0.2775(3) 0.6571(2)
C36 C 0.2070(3) 1.0586(3) 0.2777(3)
C37 C -0.3198(2) 1.4953(2) 0.28241(19)
C38 C -0.0125(3) 0.2773(3) 0.6550(3)
C39 C 0.4891(3) 0.1552(3) -0.0430(2)
C40 C 0.3169(3) 0.9290(3) 0.4285(3)
C41 C 0.0692(3) -0.0381(3) 0.8098(2)
H1 H 0.595(3) 0.024(3) 0.2198(19)
H2 H 0.540(2) 0.237(2) 0.410(2)
H3 H 0.281(3) 0.697(3) 0.161(2)
H4 H 0.299(3) 0.526(3) -0.050(2)
H5 H 0.497(3) 0.112(3) -0.093(2)
H6 H 0.619(3) 0.033(3) 0.375(2)
H7 H 0.236(3) 0.702(3) 0.017(2)
H8 H 0.403(3) 0.314(3) -0.099(2)
H9 H -0.197(3) -0.140(3) 1.018(2)
H10 H 0.148(3) -0.212(3) 0.824(2)
H11 H 0.130(3) -0.013(3) 0.754(3)
H12 H -0.202(3) 0.067(3) 0.955(3)
H13 H -0.086(3) 0.278(3) 0.656(2)
H14 H 0.036(3) 0.376(3) 0.520(2)
H15 H 0.314(3) 0.276(3) 0.655(2)
H16 H 0.348(4) 0.889(3) 0.479(3)
H17 H 0.248(3) 0.898(3) 0.248(2)
H18 H 0.181(3) 1.105(3) 0.224(3)
H19 H -0.094(3) 1.549(3) 0.202(2)
H20 H -0.244(3) 1.287(3) 0.401(2)
H21 H 0.108(3) 1.448(3) 0.231(2)
H22 H -0.045(4) 1.182(4) 0.420(3)
H23 H 0.277(3) 1.097(3) 0.459(3)
H24 H 0.181(4) 0.175(4) 0.791(3)
H25 H -0.107(5) -0.450(5) 1.030(4)
O10 O -0.42003(15) 1.46995(15) 0.35117(12)
Co1_2 Co -0.5000 1.5000 0.5000
Co1_3 Co 1.5000 -0.5000 0.5000
Co2A Co 0.59330(3) 0.49566(3) 0.68152(2)
Co2_2 Co -0.59330(3) 1.50434(3) 0.31848(2)
Co2_3 Co 1.40670(3) -0.49566(3) 0.31848(2)
O1_2 O 1.17436(18) 0.24136(17) 0.33172(19)
O2A O 0.58444(18) 0.32166(15) 0.55485(14)
O2_2 O 1.41556(18) -0.32166(15) 0.44515(14)
N1_2 N 1.37041(19) -0.47546(18) 0.18345(15)
O3A O 0.9140(2) 1.40464(18) 0.06311(18)
C1_2 C 1.4672(2) -0.6879(2) 0.20688(18)
N2_2 N 1.4813(2) -0.67582(19) 0.29150(15)
N3_2 N 1.4280(2) -0.7263(2) -0.05047(18)
C2_2 C 1.3815(2) -0.5803(2) 0.06097(18)
O4_2 O 1.34729(18) -0.31706(16) 0.31789(14)
O5A O 0.7642(2) 0.5475(2) 0.59233(17)
O5_2 O 1.2358(2) -0.5475(2) 0.40767(17)
C3_2 C 1.5099(2) -0.7995(2) 0.17716(19)
C4_2 C 0.8092(2) 0.4290(2) 0.30005(18)
C5_2 C 1.4051(2) -0.5786(2) 0.14889(18)
O6A O 1.0544(2) 0.83111(19) 0.17838(19)
C6_2 C 0.9165(3) 0.4752(2) 0.2478(2)
N4_2 N 1.5281(3) -0.8944(2) 0.03796(19)
C7_2 C 1.3114(2) -0.1326(2) 0.36406(19)
C8_2 C 1.0512(3) 0.2995(2) 0.3222(2)
C9_2 C 1.3618(2) -0.2676(2) 0.37678(18)
O7A O 1.1225(2) 1.3558(2) -0.01563(19)
O8_2 O 0.6742(2) 0.5656(2) 0.20280(15)
C10A C 1.0149(3) 1.3290(3) 0.0402(2)
C11_2 C 1.4894(3) -0.7983(2) 0.0862(2)
C12_2 C 1.4279(2) -0.6945(2) 0.03211(19)
C13_2 C 1.2796(3) -0.3689(3) 0.0477(2)
O9A O 0.64038(19) 0.5701(2) 0.5006(2)
O9_2 O 1.35962(19) -0.5701(2) 0.4994(2)
C14A C 1.1346(3) 0.9901(3) 0.0689(2)
C15_2 C 1.2142(2) 0.1163(2) 0.3433(2)
C16A C 0.7366(2) 0.5867(2) 0.5120(2)
C17A C 0.8158(2) 0.6596(2) 0.4255(2)
C18_2 C 1.2556(3) -0.0654(3) 0.2885(2)
C19_2 C 1.5797(3) -0.8876(3) 0.3241(2)
C20_2 C 0.9474(3) 0.2528(3) 0.3754(2)
C21_2 C 1.5358(3) -0.7736(3) 0.3479(2)
C22_2 C 1.3177(3) -0.4718(2) 0.0101(2)
C23A C 0.8489(4) 0.7840(3) 0.2620(3)
C24A C 0.9355(3) 0.6619(3) 0.4271(2)
C25_2 C 1.0363(3) 0.4128(3) 0.2588(2)
C26_2 C 0.8259(3) 0.3187(2) 0.3652(2)
C27A C 1.1292(3) 1.1117(3) 0.0342(2)
C28A C 0.9244(3) 1.1593(3) 0.1528(2)
C29_2 C 1.5679(3) -0.9009(3) 0.2386(2)
C30A C 1.0363(3) 0.9539(3) 0.1469(2)
C31A C 1.0232(3) 1.1976(2) 0.0749(2)
C32_2 C 1.3088(3) -0.3740(2) 0.1339(2)
C33_2 C 1.2688(3) 0.0518(3) 0.4188(3)
C34A C 0.9693(3) 0.7817(3) 0.2637(2)
C35A C 0.7722(3) 0.7225(3) 0.3429(2)
C36_2 C 1.2070(3) 0.0586(3) 0.2777(3)
C37_2 C 0.6802(2) 0.4953(2) 0.28241(19)
C38A C 1.0125(3) 0.7227(3) 0.3450(3)
C39_2 C 1.4891(3) -0.8448(3) -0.0430(2)
C40_2 C 1.3169(3) -0.0710(3) 0.4285(3)
C41A C 0.9308(3) 1.0381(3) 0.1902(2)
H1_2 H 1.595(3) -0.976(3) 0.2198(19)
H2_2 H 1.540(2) -0.763(2) 0.410(2)
H3_2 H 1.281(3) -0.303(3) 0.161(2)
H4_2 H 1.299(3) -0.474(3) -0.050(2)
H5_2 H 1.497(3) -0.888(3) -0.093(2)
H6_2 H 1.619(3) -0.967(3) 0.375(2)
H7_2 H 1.236(3) -0.298(3) 0.017(2)
H8_2 H 1.403(3) -0.686(3) -0.099(2)
H9A H 1.197(3) 1.140(3) -0.018(2)
H10A H 0.852(3) 1.212(3) 0.176(2)
H11A H 0.870(3) 1.013(3) 0.246(3)
H12A H 1.202(3) 0.933(3) 0.045(3)
H13A H 1.086(3) 0.722(3) 0.344(2)
H14A H 0.964(3) 0.624(3) 0.480(2)
H15A H 0.686(3) 0.724(3) 0.345(2)
H16_2 H 1.348(4) -0.111(3) 0.479(3)
H17_2 H 1.248(3) -0.102(3) 0.248(2)
H18_2 H 1.181(3) 0.105(3) 0.224(3)
H19_2 H 0.906(3) 0.549(3) 0.202(2)
H20_2 H 0.756(3) 0.287(3) 0.401(2)
H21_2 H 1.108(3) 0.448(3) 0.231(2)
H22_2 H 0.955(4) 0.182(4) 0.420(3)
H23_2 H 1.277(3) 0.097(3) 0.459(3)
H24A H 0.819(4) 0.825(4) 0.209(3)
H25A H 1.107(5) 1.450(5) -0.030(4)
O10_2 O 0.57997(15) 0.46995(15) 0.35117(12)
O10A O 0.42003(15) 0.53005(15) 0.64883(12)
O10_3 O 1.57997(15) -0.53005(15) 0.35117(12)
loop_
_geom_bond_atom_site_label_1
_geom_bond_atom_site_label_2
_geom_bond_site_symmetry_1
_geom_bond_site_symmetry_2
Co1 O2 1_555 1_555
Co2 N1 1_555 1_555
O1 C8 1_555 1_555
O2 C9 1_555 1_555
N1 C5 1_555 1_555
O3 C10 1_555 1_555
C1 N2 1_555 1_555
N2 Co2 1_555 1_555
N3 C12 1_555 1_555
C2 C5 1_555 1_555
O4 Co2 1_555 1_555
O5 Co2 1_555 1_555
C3 C1 1_555 1_555
C4 C6 1_555 1_555
C5 C1 1_555 1_555
O6 C30 1_555 1_555
C6 C25 1_555 1_555
N4 C11 1_555 1_555
C7 C9 1_555 1_555
C8 C20 1_555 1_555
C9 O4 1_555 1_555
O7 C10 1_555 1_555
O8 C37 1_555 1_555
C10 C31 1_555 1_555
C11 C3 1_555 1_555
C12 C2 1_555 1_555
C13 C22 1_555 1_555
O9 Co1 1_555 1_555
C14 C27 1_555 1_555
C15 O1 1_555 1_555
C16 O5 1_555 1_555
C17 C16 1_555 1_555
C18 C7 1_555 1_555
C19 C21 1_555 1_555
C20 C26 1_555 1_555
C21 N2 1_555 1_555
C22 C2 1_555 1_555
C23 C34 1_555 1_555
C24 C17 1_555 1_555
C25 C8 1_555 1_555
C26 C4 1_555 1_555
C27 C31 1_555 1_555
C28 C31 1_555 1_555
C29 C3 1_555 1_555
C30 C14 1_555 1_555
C32 N1 1_555 1_555
C33 C15 1_555 1_555
C34 O6 1_555 1_555
C35 C17 1_555 1_555
C36 C15 1_555 1_555
C37 C4 1_555 1_555
C38 C24 1_555 1_555
C39 N3 1_555 1_555
C40 C7 1_555 1_555
C41 C28 1_555 1_555
H1 C29 1_555 1_555
H2 C21 1_555 1_555
H3 C32 1_555 1_555
H4 C22 1_555 1_555
H5 C39 1_555 1_555
H6 C19 1_555 1_555
H7 C13 1_555 1_555
H8 N3 1_555 1_555
H9 C27 1_555 1_555
H10 C28 1_555 1_555
H11 C41 1_555 1_555
H12 C14 1_555 1_555
H13 C38 1_555 1_555
H14 C24 1_555 1_555
H15 C35 1_555 1_555
H16 C40 1_555 1_555
H17 C18 1_555 1_555
H18 C36 1_555 1_555
H19 C6 1_555 1_555
H20 C26 1_555 1_555
H21 C25 1_555 1_555
H22 C20 1_555 1_555
H23 C33 1_555 1_555
H24 C23 1_555 1_555
H25 O7 1_555 1_555
O10 C37 1_555 1_555
Co1_2 O10 1_555 1_555
Co1_3 O2_2 1_555 1_555
Co2A O5A 1_555 1_555
Co2_2 O10 1_555 1_555
Co2_3 N1_2 1_555 1_555
O1_2 C8_2 1_555 1_555
O2A Co1 1_555 1_555
O2_2 C9_2 1_555 1_555
N1_2 C5_2 1_555 1_555
O3A C10A 1_555 1_555
C1_2 N2_2 1_555 1_555
N2_2 Co2_3 1_555 1_555
N3_2 C12_2 1_555 1_555
C2_2 C5_2 1_555 1_555
O4_2 Co2_3 1_555 1_555
O5A C16A 1_555 1_555
O5_2 Co2_3 1_555 1_555
C3_2 C1_2 1_555 1_555
C4_2 C6_2 1_555 1_555
C5_2 C1_2 1_555 1_555
O6A C30A 1_555 1_555
C6_2 C25_2 1_555 1_555
N4_2 C11_2 1_555 1_555
C7_2 C9_2 1_555 1_555
C8_2 C20_2 1_555 1_555
C9_2 O4_2 1_555 1_555
O7A C10A 1_555 1_555
O8_2 C37_2 1_555 1_555
C10A C31A 1_555 1_555
C11_2 C3_2 1_555 1_555
C12_2 C2_2 1_555 1_555
C13_2 C22_2 1_555 1_555
O9A Co1 1_555 1_555
O9_2 Co1_3 1_555 1_555
C14A C27A 1_555 1_555
C15_2 O1_2 1_555 1_555
C16A O9A 1_555 1_555
C17A C16A 1_555 1_555
C18_2 C7_2 1_555 1_555
C19_2 C21_2 1_555 1_555
C20_2 C26_2 1_555 1_555
C21_2 N2_2 1_555 1_555
C22_2 C2_2 1_555 1_555
C23A C34A 1_555 1_555
C24A C17A 1_555 1_555
C25_2 C8_2 1_555 1_555
C26_2 C4_2 1_555 1_555
C27A C31A 1_555 1_555
C28A C31A 1_555 1_555
C29_2 C3_2 1_555 1_555
C30A C14A 1_555 1_555
C32_2 N1_2 1_555 1_555
C33_2 C15_2 1_555 1_555
C34A O6A 1_555 1_555
C35A C17A 1_555 1_555
C36_2 C15_2 1_555 1_555
C37_2 C4_2 1_555 1_555
C38A C24A 1_555 1_555
C39_2 N3_2 1_555 1_555
C40_2 C7_2 1_555 1_555
C41A C28A 1_555 1_555
H1_2 C29_2 1_555 1_555
H2_2 C21_2 1_555 1_555
H3_2 C32_2 1_555 1_555
H4_2 C22_2 1_555 1_555
H5_2 C39_2 1_555 1_555
H6_2 C19_2 1_555 1_555
H7_2 C13_2 1_555 1_555
H8_2 N3_2 1_555 1_555
H9A C27A 1_555 1_555
H10A C28A 1_555 1_555
H11A C41A 1_555 1_555
H12A C14A 1_555 1_555
H13A C38A 1_555 1_555
H14A C24A 1_555 1_555
H15A C35A 1_555 1_555
H16_2 C40_2 1_555 1_555
H17_2 C18_2 1_555 1_555
H18_2 C36_2 1_555 1_555
H19_2 C6_2 1_555 1_555
H20_2 C26_2 1_555 1_555
H21_2 C25_2 1_555 1_555
H22_2 C20_2 1_555 1_555
H23_2 C33_2 1_555 1_555
H24A C23A 1_555 1_555
H25A O7A 1_555 1_555
O10_2 Co1 1_555 1_555
O10A Co1 1_555 1_555
O10_3 Co1_3 1_555 1_555
Co2 O9 1_555 1_555
Co2 O10_2 1_555 1_555
N4 C39 1_555 1_555
C11 C12 1_555 1_555
C13 C32 1_555 1_555
O9 C16 1_555 1_555
C18 C36 1_555 1_555
C19 C29 1_555 1_555
C23 C35 1_555 1_555
C30 C41 1_555 1_555
C33 C40 1_555 1_555
C34 C38 1_555 1_555
Co2A O9A 1_555 1_555
Co2A O10A 1_555 1_555
Co2_3 O9_2 1_555 1_555
Co2_3 O10_3 1_555 1_555
N4_2 C39_2 1_555 1_555
C11_2 C12_2 1_555 1_555
C13_2 C32_2 1_555 1_555
C18_2 C36_2 1_555 1_555
C19_2 C29_2 1_555 1_555
C23A C35A 1_555 1_555
C30A C41A 1_555 1_555
C33_2 C40_2 1_555 1_555
C34A C38A 1_555 1_555
C37_2 O10_2 1_555 1_555

#END
