
#######################################################################
#
#                 Cambridge Crystallographic Data Centre
#                                CCDC 
#
#######################################################################
#
# If this CIF has been generated from an entry in the Cambridge 
# Structural Database, then it will include bibliographic, chemical, 
# crystal, experimental, refinement or atomic coordinate data resulting 
# from the CCDC's data processing and validation procedures.
#
#######################################################################

data_LETKEA01
_symmetry_cell_setting           monoclinic
_symmetry_space_group_name_H-M   'C 2/c'
_symmetry_Int_Tables_number      15
_space_group_name_Hall           '-C 2yn'
loop_
_symmetry_equiv_pos_site_id
_symmetry_equiv_pos_as_xyz
1 x,y,z
2 1/2+x,1/2+y,z
3 -x,y,1/2-z
4 1/2-x,1/2+y,1/2-z
5 -x,-y,-z
6 1/2-x,1/2-y,-z
7 x,-y,1/2+z
8 1/2+x,1/2-y,1/2+z
_cell_length_a                   17.404(4)
_cell_length_b                   12.702(3)
_cell_length_c                   15.220(5)
_cell_angle_alpha                90
_cell_angle_beta                 100.46(2)
_cell_angle_gamma                90
_cell_volume                     3308.7
loop_
_atom_site_label
_atom_site_type_symbol
_atom_site_fract_x
_atom_site_fract_y
_atom_site_fract_z
Fe1 Fe 0.19164(3) 0.13442(4) -0.26722(4)
O1 O 0.26811(15) 0.1034(2) -0.34781(18)
O2 O 0.29220(15) 0.1715(2) -0.18382(18)
C1 C 0.3406(2) 0.1176(3) -0.3127(3)
C2 C 0.3548(2) 0.1522(3) -0.2137(3)
O3 O 0.39657(16) 0.1080(3) -0.3513(2)
O4 O 0.42193(16) 0.1598(2) -0.17243(19)
Na1 Na 0.5000 0.00220(18) -0.2500
O5 O 0.10322(16) 0.0578(2) -0.34642(18)
O6 O 0.19392(16) -0.0017(2) -0.19984(19)
C3 C 0.1399(2) -0.0677(3) -0.2301(2)
C4 C 0.0851(2) -0.0325(3) -0.3175(2)
O7 O 0.03159(17) -0.0895(2) -0.3512(2)
O8 O 0.12823(17) -0.1525(2) -0.1958(2)
Na2 Na 0.5000 0.27033(17) -0.2500
O9 O 0.62927(17) -0.3005(2) -0.18153(19)
O10 O 0.66442(17) -0.2286(2) -0.32876(18)
C5 C 0.6045(2) -0.2068(3) -0.2011(3)
C6 C 0.6251(2) -0.1636(3) -0.2889(3)
O11 O 0.5671(2) -0.1522(3) -0.1573(2)
O12 O 0.60352(18) -0.0763(2) -0.3169(2)
Na3 Na 0.04287(11) 0.11190(16) -0.49983(13)
Na4 Na 0.37885(15) 0.13045(19) -0.51643(15)
O13 O 0.5032(2) 0.2057(3) -0.5040(2)
H1 H 0.540(2) 0.186(5) -0.4506(18)
H2 H 0.535(2) 0.185(5) -0.547(2)
O14 O 0.4169(2) 0.5651(3) -0.4636(2)
H3 H 0.371(2) 0.588(4) -0.503(3)
H4 H 0.413(3) 0.599(4) -0.4084(18)
O15 O 0.3353(2) 0.3060(3) -0.4843(2)
H5 H 0.2842(15) 0.326(5) -0.516(3)
H6 H 0.329(3) 0.326(5) -0.4253(14)
O16 O 0.2972(4) -0.0053(6) -0.5253(3)
H7 H 0.263(2) -0.018(5) -0.5812(16)
H8 H 0.262(2) -0.003(5) -0.484(2)
Fe1B Fe 0.80836(3) 0.13442(4) -0.23278(4)
Fe1A Fe 0.69164(3) -0.36558(4) -0.26722(4)
Fe1C Fe 0.30836(3) -0.36558(4) -0.23278(4)
Fe1A_2 Fe 0.69164(3) 0.63442(4) -0.26722(4)
O1B O 0.73189(15) 0.1034(2) -0.15219(18)
O2B O 0.70780(15) 0.1715(2) -0.31618(18)
C1B C 0.6594(2) 0.1176(3) -0.1873(3)
C2B C 0.6452(2) 0.1522(3) -0.2863(3)
O3B O 0.60343(16) 0.1080(3) -0.1487(2)
O4B O 0.57807(16) 0.1598(2) -0.32757(19)
O5A O 0.60322(16) 0.5578(2) -0.34642(18)
O5B O 0.89678(16) 0.0578(2) -0.15358(18)
O6A O 0.69392(16) 0.4983(2) -0.19984(19)
O6B O 0.80608(16) -0.0017(2) -0.30016(19)
C3A C 0.6399(2) 0.4323(3) -0.2301(2)
C4A C 0.5851(2) 0.4675(3) -0.3175(2)
O7A O 0.53159(17) 0.4105(2) -0.3512(2)
O7C O 0.46841(17) 0.4105(2) -0.1488(2)
O7D O -0.03159(17) 0.0895(2) -0.6488(2)
O7E O 0.46841(17) 0.5895(2) -0.6488(2)
O8A O 0.62823(17) 0.3475(2) -0.1958(2)
O8C O 0.37177(17) 0.3475(2) -0.3042(2)
Na2A Na 0.0000 -0.22967(17) -0.2500
O9B O 0.37073(17) -0.3005(2) -0.31847(19)
O9A O 0.12927(17) 0.1995(2) -0.18153(19)
O9C O 0.87073(17) 0.1995(2) -0.31847(19)
O10B O 0.33558(17) -0.2286(2) -0.17124(18)
O10A O 0.16442(17) 0.2714(2) -0.32876(18)
O10D O 0.33558(17) 0.2286(2) -0.67124(18)
O10C O 0.83558(17) 0.2714(2) -0.17124(18)
O10F O 0.66442(17) 0.2286(2) 0.17124(18)
C5B C 0.3955(2) -0.2068(3) -0.2989(3)
C6B C 0.3749(2) -0.1636(3) -0.2111(3)
O11B O 0.4329(2) -0.1522(3) -0.3427(2)
O12B O 0.39648(18) -0.0763(2) -0.1831(2)
O12D O 0.39648(18) 0.0763(2) -0.6831(2)
O12F O 0.60352(18) 0.0763(2) 0.1831(2)
Na3A Na 0.54287(11) 0.61190(16) -0.49983(13)
Na3D Na -0.04287(11) -0.11190(16) -0.50017(13)
Na3E Na 0.45713(11) 0.38810(16) -0.50017(13)
Na3G Na 0.54287(11) 0.38810(16) 0.00017(13)
Na4B Na 0.62115(15) 0.13045(19) 0.01643(15)
Na4D Na 0.62115(15) -0.13045(19) -0.48357(15)
Na4E Na 0.12115(15) 0.36955(19) -0.48357(15)
Na4F Na 0.37885(15) -0.13045(19) -0.01643(15)
Na4D_2 Na 0.62115(15) 0.86955(19) -0.48357(15)
O13B O 0.4968(2) 0.2057(3) 0.0040(2)
O13E O -0.0032(2) 0.2943(3) -0.4960(2)
O13D O 0.4968(2) 0.7943(3) -0.4960(2)
H1B H 0.460(2) 0.186(5) -0.0494(18)
H1E H -0.040(2) 0.314(5) -0.5494(18)
H1D H 0.460(2) 0.814(5) -0.5494(18)
H2B H 0.465(2) 0.185(5) 0.047(2)
H2E H -0.035(2) 0.315(5) -0.453(2)
H2D H 0.465(2) 0.815(5) -0.453(2)
O14E O 0.0831(2) -0.0651(3) -0.5364(2)
O14A O -0.0831(2) 0.0651(3) -0.4636(2)
O14D O 0.5831(2) 0.4349(3) -0.5364(2)
H3E H 0.129(2) -0.088(4) -0.497(3)
H3A H -0.129(2) 0.088(4) -0.503(3)
H3D H 0.629(2) 0.412(4) -0.497(3)
H4E H 0.087(3) -0.099(4) -0.5916(18)
H4A H -0.087(3) 0.099(4) -0.4084(18)
H4D H 0.587(3) 0.401(4) -0.5916(18)
O15B O 0.6647(2) 0.3060(3) -0.0157(2)
O15E O 0.1647(2) 0.1940(3) -0.5157(2)
O15D O 0.6647(2) 0.6940(3) -0.5157(2)
H5B H 0.7158(15) 0.326(5) 0.016(3)
H5E H 0.2158(15) 0.174(5) -0.484(3)
H5D H 0.7158(15) 0.674(5) -0.484(3)
H6B H 0.671(3) 0.326(5) -0.0747(14)
H6E H 0.171(3) 0.174(5) -0.5747(14)
H6D H 0.671(3) 0.674(5) -0.5747(14)
O16B O 0.7028(4) -0.0053(6) 0.0253(3)
H7B H 0.737(2) -0.018(5) 0.0812(16)
H8B H 0.738(2) -0.003(5) -0.016(2)
O17 O 0.2863(4) 0.6567(8) -0.5690(7)
H9 H 0.2370(18) 0.621(4) -0.577(3)
H10 H 0.290(3) 0.666(5) -0.6304(13)
loop_
_geom_bond_atom_site_label_1
_geom_bond_atom_site_label_2
_geom_bond_site_symmetry_1
_geom_bond_site_symmetry_2
Fe1 O1 1_555 1_555
O1 C1 1_555 1_555
O2 Fe1 1_555 1_555
C1 C2 1_555 1_555
C2 O2 1_555 1_555
O3 C1 1_555 1_555
O4 C2 1_555 1_555
Na1 O3 1_555 1_555
O5 Fe1 1_555 1_555
O6 Fe1 1_555 1_555
C3 O6 1_555 1_555
C4 O5 1_555 1_555
O7 C4 1_555 1_555
O8 C3 1_555 1_555
Na2 O4 1_555 1_555
O9 C5 1_555 1_555
O10 C6 1_555 1_555
C5 C6 1_555 1_555
C6 O12 1_555 1_555
O11 Na1 1_555 1_555
O12 Na1 1_555 1_555
Na3 O5 1_555 1_555
Na4 O3 1_555 1_555
O13 Na4 1_555 1_555
H1 O13 1_555 1_555
H2 O13 1_555 1_555
O14 H3 1_555 1_555
H4 O14 1_555 1_555
O15 Na4 1_555 1_555
H5 O15 1_555 1_555
H6 O15 1_555 1_555
O16 Na4 1_555 1_555
H7 O16 1_555 1_555
H8 O16 1_555 1_555
O17 H9 1_555 1_555
H10 O17 1_555 1_555
Fe1B O1B 1_555 1_555
Fe1A O9 1_555 1_555
Fe1C O9B 1_555 1_555
Fe1A_2 O5A 1_555 1_555
O1B C1B 1_555 1_555
O2B Fe1B 1_555 1_555
C1B C2B 1_555 1_555
C2B O2B 1_555 1_555
O3B Na1 1_555 1_555
O4B Na2 1_555 1_555
O5A C4A 1_555 1_555
O5B Fe1B 1_555 1_555
O6A Fe1A_2 1_555 1_555
O6B Fe1B 1_555 1_555
C3A O6A 1_555 1_555
C4A C3A 1_555 1_555
O7A Na2 1_555 1_555
O7C Na2 1_555 1_555
O7D Na3 1_555 1_555
O7E Na3A 1_555 1_555
O8A Na2 1_555 1_555
O8C Na2 1_555 1_555
Na2A O7 1_555 1_555
O9B C5B 1_555 1_555
O9A Fe1 1_555 1_555
O9C Fe1B 1_555 1_555
O10B Fe1C 1_555 1_555
O10A Fe1 1_555 1_555
O10D Na4 1_555 1_555
O10C Fe1B 1_555 1_555
O10F Na4B 1_555 1_555
C5B C6B 1_555 1_555
C6B O10B 1_555 1_555
O11B Na1 1_555 1_555
O12B Na1 1_555 1_555
O12D Na4 1_555 1_555
O12F Na4B 1_555 1_555
Na3A O14 1_555 1_555
Na3D O7 1_555 1_555
Na3E O13 1_555 1_555
Na3G O7C 1_555 1_555
Na4B O3B 1_555 1_555
Na4D O10 1_555 1_555
Na4E O10A 1_555 1_555
Na4F O10B 1_555 1_555
Na4D_2 O13D 1_555 1_555
O13B Na3G 1_555 1_555
O13E Na3 1_555 1_555
O13D Na3A 1_555 1_555
H1B O13B 1_555 1_555
H1E O13E 1_555 1_555
H1D O13D 1_555 1_555
H2B O13B 1_555 1_555
H2E O13E 1_555 1_555
H2D O13D 1_555 1_555
O14E Na3 1_555 1_555
O14A Na3 1_555 1_555
O14D Na3A 1_555 1_555
H3E O14E 1_555 1_555
H3A O14A 1_555 1_555
H3D O14D 1_555 1_555
H4E O14E 1_555 1_555
H4A O14A 1_555 1_555
H4D O14D 1_555 1_555
O15B Na3G 1_555 1_555
O15E Na3 1_555 1_555
O15D Na3A 1_555 1_555
H5B O15B 1_555 1_555
H5E O15E 1_555 1_555
H5D O15D 1_555 1_555
H6B O15B 1_555 1_555
H6E O15E 1_555 1_555
H6D O15D 1_555 1_555
O16B Na4B 1_555 1_555
H7B O16B 1_555 1_555
H8B O16B 1_555 1_555
C3 C4 1_555 1_555
O8 Na2A 1_555 1_555
O10 Fe1A 1_555 1_555
C5 O11 1_555 1_555
O12 Na4D 1_555 1_555
O14 Na3E 1_555 1_555
O15 Na3E 1_555 1_555
C1B O3B 1_555 1_555
C2B O4B 1_555 1_555
O5A Na3A 1_555 1_555
C3A O8A 1_555 1_555
C4A O7A 1_555 1_555
O7A Na3E 1_555 1_555
C5B O11B 1_555 1_555
C6B O12B 1_555 1_555
O12B Na4F 1_555 1_555
Na3D O14E 1_555 1_555
Na3D O14A 1_555 1_555
Na3E O14D 1_555 1_555
Na4B O13B 1_555 1_555
Na4B O15B 1_555 1_555
Na4E O13E 1_555 1_555
Na4E O15E 1_555 1_555
Na4D_2 O15D 1_555 1_555

#END
