
#######################################################################
#
#                 Cambridge Crystallographic Data Centre
#                                CCDC 
#
#######################################################################
#
# If this CIF has been generated from an entry in the Cambridge 
# Structural Database, then it will include bibliographic, chemical, 
# crystal, experimental, refinement or atomic coordinate data resulting 
# from the CCDC's data processing and validation procedures.
#
#######################################################################

data_LETKOL
_symmetry_cell_setting           triclinic
_symmetry_space_group_name_H-M   'P -1'
_symmetry_Int_Tables_number      2
_space_group_name_Hall           '-P 1'
loop_
_symmetry_equiv_pos_site_id
_symmetry_equiv_pos_as_xyz
1 x,y,z
2 -x,-y,-z
_cell_length_a                   6.19550(10)
_cell_length_b                   8.0167(2)
_cell_length_c                   8.5418(2)
_cell_angle_alpha                89.7300(10)
_cell_angle_beta                 79.2820(1)
_cell_angle_gamma                70.0320(10)
_cell_volume                     390.994
loop_
_atom_site_label
_atom_site_type_symbol
_atom_site_fract_x
_atom_site_fract_y
_atom_site_fract_z
Cu1 Cu 0.67374(4) 0.09939(3) 0.49930(3)
Cl1 Cl 0.87483(10) 0.13913(8) 0.68259(6)
N1 N 0.7261(3) 0.2908(2) 0.3585(2)
C1 C 0.7106(4) 0.2894(3) 0.2029(3)
C2 C 0.7394(5) 0.4246(4) 0.1095(3)
H1 H 0.7325 0.4204 0.0018
C3 C 0.7786(5) 0.5660(4) 0.1761(4)
H2 H 0.7951 0.6585 0.1146
C4 C 0.7928(4) 0.5676(3) 0.3337(3)
H3 H 0.8190 0.6612 0.3812
C5 C 0.7677(4) 0.4288(3) 0.4208(3)
H4 H 0.7799 0.4298 0.5277
C6 C 0.4250(5) 0.1288(4) 0.2302(3)
H5 H 0.3042 0.2456 0.2442
H6 H 0.3747 0.0507 0.1708
C7 C 0.6531(5) 0.1412(4) 0.1364(3)
H7 H 0.7795 0.0298 0.1392
H8 H 0.6398 0.1600 0.0259
O1 O 0.4549(3) 0.0629(2) 0.38026(18)
Cu1A Cu 1.32626(4) -0.09939(3) 0.50070(3)
Cu1A_2 Cu 0.32626(4) -0.09939(3) 0.50070(3)
Cl1A Cl 1.12517(10) -0.13913(8) 0.31741(6)
O1A O 0.5451(3) -0.0629(2) 0.61974(18)
loop_
_geom_bond_atom_site_label_1
_geom_bond_atom_site_label_2
_geom_bond_site_symmetry_1
_geom_bond_site_symmetry_2
Cu1 Cl1 1_555 1_555
Cl1 Cu1A 1_555 1_555
N1 Cu1 1_555 1_555
C1 N1 1_555 1_555
C2 C1 1_555 1_555
H1 C2 1_555 1_555
C3 C2 1_555 1_555
H2 C3 1_555 1_555
C4 C3 1_555 1_555
H3 C4 1_555 1_555
C5 N1 1_555 1_555
H4 C5 1_555 1_555
C6 H5 1_555 1_555
H6 C6 1_555 1_555
C7 C1 1_555 1_555
H7 C7 1_555 1_555
H8 C7 1_555 1_555
O1 Cu1 1_555 1_555
Cu1A Cl1A 1_555 1_555
Cu1A_2 O1 1_555 1_555
Cl1A Cu1 1_555 1_555
O1A Cu1 1_555 1_555
C4 C5 1_555 1_555
C6 C7 1_555 1_555
C6 O1 1_555 1_555
Cu1A_2 O1A 1_555 1_555

#END
