
#######################################################################
#
#                 Cambridge Crystallographic Data Centre
#                                CCDC 
#
#######################################################################
#
# If this CIF has been generated from an entry in the Cambridge 
# Structural Database, then it will include bibliographic, chemical, 
# crystal, experimental, refinement or atomic coordinate data resulting 
# from the CCDC's data processing and validation procedures.
#
#######################################################################

data_LETKOK
_symmetry_cell_setting           monoclinic
_symmetry_space_group_name_H-M   'P 21/c'
_symmetry_Int_Tables_number      14
_space_group_name_Hall           '-P 2ybc'
loop_
_symmetry_equiv_pos_site_id
_symmetry_equiv_pos_as_xyz
1 x,y,z
2 -x,1/2+y,1/2-z
3 -x,-y,-z
4 x,1/2-y,1/2+z
_cell_length_a                   13.067(3)
_cell_length_b                   10.594(3)
_cell_length_c                   18.157(4)
_cell_angle_alpha                90
_cell_angle_beta                 106.99(2)
_cell_angle_gamma                90
_cell_volume                     2403.81
loop_
_atom_site_label
_atom_site_type_symbol
_atom_site_fract_x
_atom_site_fract_y
_atom_site_fract_z
Sn1 Sn 0.02792(3) 0.16709(4) 0.70753(2)
Br1 Br 0.54858(8) 0.2607(1) 0.97560(6)
Br2 Br 0.47487(6) 0.07753(9) 0.67429(5)
C1 C 0.0694(6) 0.1470(7) 0.8289(4)
O1 O 0.1304(4) 0.0157(4) 0.6947(3)
O2 O 0.0770(4) -0.1353(4) 0.7610(3)
O3 O 0.3247(3) -0.0934(4) 0.7202(3)
C2 C 0.2352(5) -0.1700(6) 0.7252(4)
C3 C 0.1403(5) -0.0911(6) 0.7297(4)
C4 C 0.2061(6) -0.2480(7) 0.6542(5)
C5 C -0.1195(5) 0.1030(6) 0.6282(4)
C6 C 0.1153(5) 0.3063(6) 0.6628(4)
C7 C -0.1849(5) 0.0166(6) 0.6658(4)
C8 C -0.2897(5) -0.0234(8) 0.6085(4)
C9 C -0.2703(6) -0.0855(5) 0.5380(5)
C10 C -0.2061(6) 0.0003(7) 0.5008(4)
C11 C -0.1024(6) 0.0410(7) 0.5563(4)
C12 C 0.2353(5) 0.2828(7) 0.6944(5)
C13 C 0.2983(6) 0.3873(7) 0.6678(5)
C14 C 0.2612(7) 0.4056(8) 0.5819(5)
C15 C 0.1430(8) 0.4239(8) 0.5505(5)
C16 C 0.0758(7) 0.3191(7) 0.5767(4)
C17 C 0.3722(5) -0.0160(7) 0.7813(4)
C18 C 0.3514(6) -0.0169(8) 0.8514(5)
C19 C 0.4019(6) 0.0655(8) 0.9089(4)
C20 C 0.4754(6) 0.1507(7) 0.8967(5)
C21 C 0.4955(5) 0.1564(7) 0.8266(5)
C22 C 0.4442(5) 0.0720(7) 0.7700(4)
H1 H 0.134(6) 0.122(8) 0.848(5)
H2 H 0.066(6) 0.236(8) 0.844(5)
H3 H 0.018(6) 0.093(8) 0.830(5)
H4 H 0.148(6) -0.292(8) 0.646(5)
H5 H 0.175(6) -0.201(8) 0.592(5)
H6 H 0.242(6) -0.290(8) 0.637(5)
H7 H 0.264(6) -0.218(8) 0.777(5)
H8 H -0.161(6) 0.186(8) 0.607(5)
H9 H 0.089(6) 0.391(8) 0.693(5)
H10 H 0.324(6) -0.079(8) 0.868(5)
H11 H 0.395(6) 0.070(8) 0.945(5)
H12 H 0.539(6) 0.199(8) 0.812(5)
H13 H -0.130(6) -0.060(8) 0.695(5)
H14 H -0.203(6) 0.062(8) 0.712(5)
H15 H -0.334(6) 0.060(8) 0.592(5)
H16 H -0.329(6) -0.072(8) 0.639(5)
H17 H -0.336(6) -0.119(8) 0.503(5)
H18 H -0.228(6) -0.153(8) 0.554(5)
H19 H -0.192(6) -0.043(8) 0.451(5)
H20 H -0.252(6) 0.062(8) 0.471(5)
H21 H -0.049(6) -0.048(8) 0.574(5)
H22 H -0.033(6) 0.014(8) 0.580(5)
H23 H 0.250(6) 0.198(8) 0.667(5)
H24 H 0.256(6) 0.264(8) 0.754(5)
H25 H 0.395(6) 0.361(8) 0.680(5)
H26 H 0.297(6) 0.450(8) 0.687(5)
H27 H 0.279(6) 0.479(8) 0.546(5)
H28 H 0.277(6) 0.338(8) 0.543(5)
H29 H 0.121(6) 0.495(8) 0.560(5)
H30 H 0.113(6) 0.436(8) 0.499(5)
H31 H 0.073(6) 0.244(8) 0.535(3)
H32 H -0.012(6) 0.340(8) 0.563(5)
O2A O -0.0770(4) 0.3647(4) 0.7390(3)
Sn1A Sn -0.02792(3) -0.33291(4) 0.79247(2)
loop_
_geom_bond_atom_site_label_1
_geom_bond_atom_site_label_2
_geom_bond_site_symmetry_1
_geom_bond_site_symmetry_2
Sn1 C1 1_555 1_555
Br1 C20 1_555 1_555
Br2 C22 1_555 1_555
C1 H1 1_555 1_555
O1 Sn1 1_555 1_555
O2 C3 1_555 1_555
O3 C2 1_555 1_555
C2 C3 1_555 1_555
C3 O1 1_555 1_555
C4 C2 1_555 1_555
C5 Sn1 1_555 1_555
C6 Sn1 1_555 1_555
C7 C5 1_555 1_555
C8 C7 1_555 1_555
C9 C8 1_555 1_555
C10 C9 1_555 1_555
C11 C5 1_555 1_555
C12 C6 1_555 1_555
C13 C12 1_555 1_555
C14 C13 1_555 1_555
C15 C14 1_555 1_555
C16 C6 1_555 1_555
C17 O3 1_555 1_555
C18 C17 1_555 1_555
C19 C18 1_555 1_555
C20 C19 1_555 1_555
C21 C20 1_555 1_555
C22 C17 1_555 1_555
H2 C1 1_555 1_555
H3 C1 1_555 1_555
H4 C4 1_555 1_555
H5 C4 1_555 1_555
H6 C4 1_555 1_555
H7 C2 1_555 1_555
H8 C5 1_555 1_555
H9 C6 1_555 1_555
H10 C18 1_555 1_555
H11 C19 1_555 1_555
H12 C21 1_555 1_555
H13 C7 1_555 1_555
H14 C7 1_555 1_555
H15 C8 1_555 1_555
H16 C8 1_555 1_555
H17 C9 1_555 1_555
H18 C9 1_555 1_555
H19 C10 1_555 1_555
H20 C10 1_555 1_555
H21 C11 1_555 1_555
H22 C11 1_555 1_555
H23 C12 1_555 1_555
H24 C12 1_555 1_555
H25 C13 1_555 1_555
H26 C13 1_555 1_555
H27 C14 1_555 1_555
H28 C14 1_555 1_555
H29 C15 1_555 1_555
H30 C15 1_555 1_555
H31 C16 1_555 1_555
H32 C16 1_555 1_555
O2A Sn1 1_555 1_555
Sn1A O2 1_555 1_555
C10 C11 1_555 1_555
C15 C16 1_555 1_555
C21 C22 1_555 1_555

#END
