
#######################################################################
#
#                 Cambridge Crystallographic Data Centre
#                                CCDC 
#
#######################################################################
#
# If this CIF has been generated from an entry in the Cambridge 
# Structural Database, then it will include bibliographic, chemical, 
# crystal, experimental, refinement or atomic coordinate data resulting 
# from the CCDC's data processing and validation procedures.
#
#######################################################################

data_LETNIJ
_symmetry_cell_setting           monoclinic
_symmetry_space_group_name_H-M   'P 21/n'
_symmetry_Int_Tables_number      14
_space_group_name_Hall           '-P 2yn'
loop_
_symmetry_equiv_pos_site_id
_symmetry_equiv_pos_as_xyz
1 x,y,z
2 1/2-x,1/2+y,1/2-z
3 -x,-y,-z
4 1/2+x,1/2-y,1/2+z
_cell_length_a                   12.2379(9)
_cell_length_b                   14.6787(10)
_cell_length_c                   28.398(2)
_cell_angle_alpha                90
_cell_angle_beta                 97.7440(10)
_cell_angle_gamma                90
_cell_volume                     5054.79
loop_
_atom_site_label
_atom_site_type_symbol
_atom_site_fract_x
_atom_site_fract_y
_atom_site_fract_z
B1 B 0.4331(6) 0.4052(6) 0.3863(3)
H1 H 0.3962 0.4337 0.4149
C1 C 0.6071(7) 0.5123(6) 0.4604(3)
H2 H 0.5431 0.5478 0.4491
H3 H 0.6678 0.5522 0.4706
H4 H 0.5920 0.4753 0.4866
C2 C 0.6356(6) 0.4530(5) 0.4216(3)
C3 C 0.7385(6) 0.4309(5) 0.4100(3)
H5 H 0.8063 0.4504 0.4255
C4 C 0.7208(5) 0.3742(5) 0.3710(3)
C5 C 0.8069(5) 0.3275(5) 0.3470(3)
H6 H 0.8036 0.2630 0.3523
H7 H 0.8785 0.3499 0.3598
H8 H 0.7938 0.3397 0.3135
C6 C 0.2681(6) 0.5701(5) 0.3688(3)
H9 H 0.2189 0.5280 0.3812
H10 H 0.2272 0.6222 0.3558
H11 H 0.3237 0.5892 0.3940
C7 C 0.3221(5) 0.5242(5) 0.3304(3)
C8 C 0.3128(5) 0.5417(5) 0.2829(3)
H12 H 0.2731 0.5890 0.2669
C9 C 0.3738(5) 0.4755(5) 0.2630(3)
C10 C 0.3816(6) 0.4619(6) 0.2119(3)
H13 H 0.4568 0.4498 0.2077
H14 H 0.3566 0.5158 0.1945
H15 H 0.3363 0.4111 0.2002
C11 C 0.2988(7) 0.2892(6) 0.4536(3)
H16 H 0.3603 0.3109 0.4752
H17 H 0.2622 0.2414 0.4684
H18 H 0.2481 0.3384 0.4453
C12 C 0.3386(6) 0.2536(5) 0.4099(3)
C13 C 0.3275(6) 0.1679(5) 0.3899(3)
H19 H 0.2901 0.1188 0.4009
C14 C 0.3825(5) 0.1684(5) 0.3503(3)
C15 C 0.3978(6) 0.0906(5) 0.3186(3)
H20 H 0.3929 0.1117 0.2864
H21 H 0.3414 0.0459 0.3209
H22 H 0.4689 0.0637 0.3279
C16 C 0.6103(5) 0.3680(5) 0.2608(3)
C17 C 0.6082(5) 0.2017(5) 0.3048(3)
C18 C 0.4376(5) 0.2577(5) 0.2457(3)
C19 C 0.6285(5) 0.5575(5) 0.1158(3)
C20 C 0.6295(6) 0.5577(5) 0.0664(3)
C21 C 0.5623(7) 0.6158(6) 0.0370(3)
H23 H 0.5640 0.6152 0.0044
C22 C 0.4921(7) 0.6754(6) 0.0568(4)
H24 H 0.4469 0.7147 0.0373
C23 C 0.4897(6) 0.6760(6) 0.1045(3)
H25 H 0.4415 0.7152 0.1171
C24 C 0.5586(5) 0.6185(5) 0.1354(3)
C25 C 0.5595(6) 0.6334(5) 0.1864(3)
H26 H 0.5031 0.6697 0.1949
C26 C 0.6162(7) 0.6409(6) 0.2679(3)
H27 H 0.5388 0.6399 0.2721
H28 H 0.6395 0.7041 0.2687
C27 C 0.6809(7) 0.5919(6) 0.3093(3)
H29 H 0.6632 0.6191 0.3385
H30 H 0.6565 0.5290 0.3088
C28 C 0.8033(7) 0.5930(6) 0.3104(3)
H31 H 0.8264 0.6539 0.3029
H32 H 0.8378 0.5783 0.3423
C29 C 0.9321(6) 0.4867(5) 0.2903(3)
H33 H 0.9654 0.4996 0.3210
C30 C 0.9895(6) 0.4216(5) 0.2635(3)
C31 C 1.0876(6) 0.3838(6) 0.2877(3)
H34 H 1.1101 0.4000 0.3191
C32 C 1.1499(6) 0.3241(6) 0.2658(3)
H35 H 1.2141 0.2999 0.2824
C33 C 1.1173(6) 0.2997(5) 0.2189(3)
H36 H 1.1604 0.2600 0.2037
C34 C 1.0210(5) 0.3341(5) 0.1949(3)
C35 C 0.9552(5) 0.3964(5) 0.2166(3)
C36 C 0.7093(7) 0.4928(6) 0.0006(3)
H37 H 0.6377 0.4793 -0.0162
H38 H 0.7603 0.4460 -0.0056
H39 H 0.7341 0.5505 -0.0100
C37 C 1.0410(7) 0.2473(6) 0.1248(3)
H40 H 1.1145 0.2701 0.1246
H41 H 1.0063 0.2388 0.0928
H42 H 1.0441 0.1902 0.1414
Fe1 Fe 0.51856(7) 0.31009(7) 0.30215(4)
N1 N 0.5599(4) 0.4099(4) 0.3908(2)
N2 N 0.6115(4) 0.3624(4) 0.3585(2)
N3 N 0.3876(4) 0.4514(4) 0.3396(2)
N4 N 0.4206(4) 0.4206(4) 0.2979(2)
N5 N 0.3975(4) 0.3047(4) 0.3824(2)
N6 N 0.4247(4) 0.2520(4) 0.3452(2)
N7 N 0.6633(4) 0.4072(4) 0.2369(2)
N8 N 0.6577(4) 0.1356(4) 0.3063(2)
N9 N 0.3926(5) 0.2280(5) 0.2110(3)
N10 N 0.6274(5) 0.6030(4) 0.2203(2)
N11 N 0.8417(5) 0.5281(4) 0.2768(2)
N12 N 0.9795(6) 0.4437(5) 0.0624(3)
N13 N 0.7098(6) 0.2305(5) 0.0601(2)
Ni1 Ni 0.75605(7) 0.51982(6) 0.21097(3)
O1 O 0.6948(4) 0.4988(3) 0.14118(18)
O2 O 0.8649(4) 0.4277(3) 0.18991(17)
O3 O 0.7029(4) 0.4969(4) 0.05128(19)
O4 O 0.9779(4) 0.3124(3) 0.1487(2)
O5 O 0.9481(4) 0.4923(4) 0.0953(2)
O6 O 0.9167(4) 0.3776(4) 0.0480(2)
O7 O 1.0639(5) 0.4605(5) 0.0456(3)
O8 O 0.8013(5) 0.2262(4) 0.0863(2)
O9 O 0.6670(4) 0.3098(4) 0.0539(2)
O10 O 0.6640(5) 0.1634(4) 0.0412(2)
O11 O 0.6845(4) 0.3034(3) 0.15544(19)
H52 H 0.6667 0.3411 0.1765
H53 H 0.6199 0.2858 0.1445
Tb1 Tb 0.80270(3) 0.38803(2) 0.112067(13)
N8A N 0.8423(4) 0.6356(4) 0.1937(2)
Ni1A Ni 0.74395(7) 0.01982(6) 0.28903(3)
C38 C 0.8837(8) 0.6952(7) 0.0494(4)
H43 H 0.9082 0.7302 0.0774
H44 H 0.9370 0.6487 0.0456
H45 H 0.8140 0.6674 0.0526
C39 C 0.8716(8) 0.7537(8) 0.0088(4)
N14 N 0.8630(10) 0.7997(8) -0.0227(4)
C40 C 0.4081(10) 0.1024(10) 0.0325(5)
H46 H 0.3292 0.1063 0.0257
H47 H 0.4396 0.1041 0.0033
H48 H 0.4353 0.1530 0.0521
C41 C 0.4383(9) 0.0182(12) 0.0572(5)
N15 N 0.4624(9) -0.0445(11) 0.0772(5)
C42 C 0.4119(11) 0.3244(10) 0.1002(4)
H49 H 0.4176 0.3782 0.1196
H50 H 0.3361 0.3057 0.0941
H51 H 0.4388 0.3372 0.0707
O12 O 0.4765(6) 0.2527(6) 0.1245(3)
H54 H 0.4500 0.2385 0.1485
loop_
_geom_bond_atom_site_label_1
_geom_bond_atom_site_label_2
_geom_bond_site_symmetry_1
_geom_bond_site_symmetry_2
B1 H1 1_555 1_555
C1 H2 1_555 1_555
H3 C1 1_555 1_555
H4 C1 1_555 1_555
C2 C1 1_555 1_555
C3 C2 1_555 1_555
H5 C3 1_555 1_555
C4 C3 1_555 1_555
C5 C4 1_555 1_555
H6 C5 1_555 1_555
H7 C5 1_555 1_555
H8 C5 1_555 1_555
C6 H9 1_555 1_555
H10 C6 1_555 1_555
H11 C6 1_555 1_555
C7 C6 1_555 1_555
C8 C7 1_555 1_555
H12 C8 1_555 1_555
C9 C8 1_555 1_555
C10 C9 1_555 1_555
H13 C10 1_555 1_555
H14 C10 1_555 1_555
H15 C10 1_555 1_555
C11 H16 1_555 1_555
H17 C11 1_555 1_555
H18 C11 1_555 1_555
C12 C11 1_555 1_555
C13 C12 1_555 1_555
H19 C13 1_555 1_555
C14 C13 1_555 1_555
C15 C14 1_555 1_555
H20 C15 1_555 1_555
H21 C15 1_555 1_555
H22 C15 1_555 1_555
C16 Fe1 1_555 1_555
C17 Fe1 1_555 1_555
C18 Fe1 1_555 1_555
C19 C20 1_555 1_555
C20 C21 1_555 1_555
C21 H23 1_555 1_555
C22 C21 1_555 1_555
H24 C22 1_555 1_555
C23 C22 1_555 1_555
H25 C23 1_555 1_555
C24 C19 1_555 1_555
C25 C24 1_555 1_555
H26 C25 1_555 1_555
C26 H27 1_555 1_555
H28 C26 1_555 1_555
C27 C26 1_555 1_555
H29 C27 1_555 1_555
H30 C27 1_555 1_555
C28 C27 1_555 1_555
H31 C28 1_555 1_555
H32 C28 1_555 1_555
C29 H33 1_555 1_555
C30 C29 1_555 1_555
C31 C30 1_555 1_555
H34 C31 1_555 1_555
C32 C31 1_555 1_555
H35 C32 1_555 1_555
C33 C32 1_555 1_555
H36 C33 1_555 1_555
C34 C33 1_555 1_555
C35 C30 1_555 1_555
C36 H37 1_555 1_555
H38 C36 1_555 1_555
H39 C36 1_555 1_555
C37 H40 1_555 1_555
H41 C37 1_555 1_555
H42 C37 1_555 1_555
C38 H43 1_555 1_555
H44 C38 1_555 1_555
H45 C38 1_555 1_555
C39 C38 1_555 1_555
C40 H46 1_555 1_555
H47 C40 1_555 1_555
H48 C40 1_555 1_555
C41 C40 1_555 1_555
C42 H49 1_555 1_555
H50 C42 1_555 1_555
H51 C42 1_555 1_555
Fe1 N2 1_555 1_555
N1 B1 1_555 1_555
N2 C4 1_555 1_555
N3 B1 1_555 1_555
N4 C9 1_555 1_555
N5 B1 1_555 1_555
N6 C14 1_555 1_555
N7 C16 1_555 1_555
N8 C17 1_555 1_555
N9 C18 1_555 1_555
N10 C25 1_555 1_555
N11 C28 1_555 1_555
N12 O5 1_555 1_555
N13 O8 1_555 1_555
N14 C39 1_555 1_555
N15 C41 1_555 1_555
Ni1 N7 1_555 1_555
O1 C19 1_555 1_555
O2 C35 1_555 1_555
O3 C20 1_555 1_555
O4 C34 1_555 1_555
O5 Tb1 1_555 1_555
O6 N12 1_555 1_555
O7 N12 1_555 1_555
O8 Tb1 1_555 1_555
O9 N13 1_555 1_555
O10 N13 1_555 1_555
O11 H52 1_555 1_555
H53 O11 1_555 1_555
O12 C42 1_555 1_555
H54 O12 1_555 1_555
Tb1 O1 1_555 1_555
N8A Ni1 1_555 1_555
Ni1A N8 1_555 1_555
C2 N1 1_555 1_555
C7 N3 1_555 1_555
C12 N5 1_555 1_555
C23 C24 1_555 1_555
C26 N10 1_555 1_555
C29 N11 1_555 1_555
C34 C35 1_555 1_555
C36 O3 1_555 1_555
C37 O4 1_555 1_555
Fe1 N4 1_555 1_555
Fe1 N6 1_555 1_555
N1 N2 1_555 1_555
N3 N4 1_555 1_555
N5 N6 1_555 1_555
N10 Ni1 1_555 1_555
N11 Ni1 1_555 1_555
Ni1 O1 1_555 1_555
Ni1 O2 1_555 1_555
O2 Tb1 1_555 1_555
O3 Tb1 1_555 1_555
O4 Tb1 1_555 1_555
O6 Tb1 1_555 1_555
O9 Tb1 1_555 1_555
O11 Tb1 1_555 1_555

#END
