
#######################################################################
#
#                 Cambridge Crystallographic Data Centre
#                                CCDC 
#
#######################################################################
#
# If this CIF has been generated from an entry in the Cambridge 
# Structural Database, then it will include bibliographic, chemical, 
# crystal, experimental, refinement or atomic coordinate data resulting 
# from the CCDC's data processing and validation procedures.
#
#######################################################################

data_LETNEF
_symmetry_cell_setting           monoclinic
_symmetry_space_group_name_H-M   'P 21/n'
_symmetry_Int_Tables_number      14
_space_group_name_Hall           '-P 2yn'
loop_
_symmetry_equiv_pos_site_id
_symmetry_equiv_pos_as_xyz
1 x,y,z
2 1/2-x,1/2+y,1/2-z
3 -x,-y,-z
4 1/2+x,1/2-y,1/2+z
_cell_length_a                   12.3490(9)
_cell_length_b                   14.7062(9)
_cell_length_c                   28.706(2)
_cell_angle_alpha                90
_cell_angle_beta                 97.1520(10)
_cell_angle_gamma                90
_cell_volume                     5172.64
loop_
_atom_site_label
_atom_site_type_symbol
_atom_site_fract_x
_atom_site_fract_y
_atom_site_fract_z
B1 B 0.4326(5) 0.0942(5) 0.3848(2)
H1 H 0.4044 0.0638 0.4132
C1 C 0.8034(4) 0.1708(5) 0.3461(2)
H2 H 0.7916 0.1583 0.3130
H3 H 0.8738 0.1485 0.3590
H4 H 0.8001 0.2352 0.3511
C2 C 0.7175(4) 0.1249(4) 0.3696(2)
C3 C 0.7334(5) 0.0692(5) 0.4086(2)
H5 H 0.8002 0.0505 0.4242
C4 C 0.6318(5) 0.0468(4) 0.4199(2)
C5 C 0.6024(6) -0.0128(5) 0.4584(2)
H6 H 0.5812 0.0242 0.4833
H7 H 0.6643 -0.0493 0.4702
H8 H 0.5429 -0.0517 0.4466
C6 C 0.3832(5) 0.0393(5) 0.2119(2)
H9 H 0.3324 0.0853 0.1996
H10 H 0.3670 -0.0166 0.1952
H11 H 0.4560 0.0583 0.2082
C7 C 0.3743(4) 0.0252(4) 0.2629(2)
C8 C 0.3144(4) -0.0407(4) 0.2824(2)
H12 H 0.2756 -0.0878 0.2663
C9 C 0.3222(4) -0.0243(4) 0.3293(2)
C10 C 0.2688(5) -0.0699(5) 0.3671(2)
H13 H 0.3236 -0.0886 0.3920
H14 H 0.2291 -0.1223 0.3544
H15 H 0.2195 -0.0282 0.3793
C11 C 0.3958(5) 0.4087(4) 0.3194(2)
H16 H 0.4668 0.4347 0.3279
H17 H 0.3410 0.4537 0.3231
H18 H 0.3889 0.3889 0.2874
C12 C 0.3813(4) 0.3302(4) 0.3503(2)
C13 C 0.3263(5) 0.3287(5) 0.3897(2)
H19 H 0.2883 0.3770 0.4009
C14 C 0.3380(5) 0.2441(5) 0.4089(2)
C15 C 0.2971(6) 0.2068(5) 0.4521(3)
H20 H 0.2499 0.1560 0.4437
H21 H 0.2574 0.2532 0.4663
H22 H 0.3579 0.1874 0.4740
C16 C 0.4388(4) 0.2434(4) 0.2468(2)
C17 C 0.6093(4) 0.1321(4) 0.26040(19)
C18 C 0.6078(4) 0.2983(4) 0.30536(19)
C19 C 0.6309(4) -0.0570(4) 0.1153(2)
C20 C 0.6314(5) -0.0567(5) 0.0665(2)
C21 C 0.5650(6) -0.1133(5) 0.0370(3)
H23 H 0.5669 -0.1117 0.0047
C22 C 0.4958(6) -0.1724(6) 0.0563(3)
H24 H 0.4504 -0.2106 0.0368
C23 C 0.4933(5) -0.1755(5) 0.1036(3)
H25 H 0.4458 -0.2154 0.1159
C24 C 0.5620(4) -0.1188(4) 0.1344(2)
C25 C 0.5615(5) -0.1347(4) 0.1847(3)
H26 H 0.5061 -0.1718 0.1930
C26 C 0.6161(7) -0.1403(5) 0.2660(3)
H27 H 0.5398 -0.1366 0.2706
H28 H 0.6356 -0.2042 0.2664
C27 C 0.6813(7) -0.0957(6) 0.3067(3)
H29 H 0.6561 -0.0334 0.3082
H30 H 0.6645 -0.1259 0.3350
C28 C 0.7992(6) -0.0936(5) 0.3082(3)
H31 H 0.8247 -0.1542 0.3017
H32 H 0.8312 -0.0770 0.3396
C29 C 0.9291(5) 0.0118(5) 0.2875(2)
H33 H 0.9621 -0.0013 0.3176
C30 C 0.9858(4) 0.0755(4) 0.2611(2)
C31 C 1.0832(5) 0.1127(5) 0.2847(3)
H34 H 1.1055 0.0959 0.3157
C32 C 1.1450(5) 0.1726(5) 0.2632(3)
H35 H 1.2091 0.1959 0.2792
C33 C 1.1122(5) 0.1985(5) 0.2174(3)
H36 H 1.1546 0.2389 0.2025
C34 C 1.0169(4) 0.1648(4) 0.1937(2)
C35 C 0.9517(4) 0.1027(4) 0.2148(2)
C36 C 0.7122(6) 0.0100(6) 0.0016(2)
H37 H 0.7347 -0.0477 -0.0095
H38 H 0.7646 0.0557 -0.0040
H39 H 0.6421 0.0258 -0.0147
C37 C 1.0368(6) 0.2529(6) 0.1247(3)
H40 H 1.0378 0.3104 0.1406
H41 H 1.0036 0.2602 0.0929
H42 H 1.1101 0.2312 0.1249
Dy1 Dy 0.80149(2) 0.11178(2) 0.112434(9)
Fe1 Fe 0.51831(6) 0.19004(6) 0.30198(3)
N1 N 0.6096(3) 0.1371(3) 0.35730(15)
N2 N 0.5578(3) 0.0890(3) 0.38923(15)
N3 N 0.4215(3) 0.0799(3) 0.29733(16)
N4 N 0.3879(3) 0.0483(3) 0.33842(16)
N5 N 0.4239(3) 0.2471(3) 0.34547(15)
N6 N 0.3976(3) 0.1939(3) 0.38191(16)
N7 N 0.3948(5) 0.2732(4) 0.2126(2)
N8 N 0.6614(4) 0.0931(3) 0.23622(16)
N9 N 0.6573(4) 0.3642(4) 0.30735(17)
N10 N 0.6276(4) -0.1038(3) 0.21831(19)
N11 N 0.8381(4) -0.0295(3) 0.27443(16)
N12 N 0.7107(6) 0.2698(5) 0.0607(2)
N13 N 0.9767(5) 0.0546(5) 0.0640(2)
Ni1 Ni 0.75528(5) -0.02065(5) 0.20956(2)
O1 O 0.7049(3) 0.0043(3) 0.05159(14)
O2 O 0.6962(3) 0.0005(3) 0.14060(13)
O3 O 0.8616(3) 0.0726(3) 0.18900(13)
O4 O 0.9744(3) 0.1877(3) 0.14860(15)
O5 O 0.7997(4) 0.2725(3) 0.08741(18)
O6 O 0.6693(4) 0.1896(4) 0.05475(15)
O7 O 0.6667(5) 0.3352(4) 0.0418(2)
O8 O 0.9159(4) 0.1209(4) 0.04983(16)
O9 O 0.9447(4) 0.0069(3) 0.09694(17)
O10 O 1.0596(5) 0.0357(5) 0.0476(2)
O11 O 0.6819(4) 0.1937(3) 0.15438(14)
H52 H 0.6832 0.1743 0.1827
H53 H 0.6165 0.2131 0.1467
N9A N 0.8427(4) -0.1358(4) 0.19265(17)
Ni1A Ni 0.74472(5) 0.47935(5) 0.29044(2)
C38 C 0.4080(11) 0.1765(11) 0.1005(4)
H43 H 0.4447 0.1189 0.1041
H44 H 0.3956 0.1922 0.0678
H45 H 0.3394 0.1726 0.1129
O12 O 0.4757(5) 0.2462(6) 0.1260(2)
H54 H 0.4368 0.2878 0.1332
C39 C 0.8854(8) 0.8045(6) 0.0490(3)
H46 H 0.8161 0.8218 0.0581
H47 H 0.9248 0.8579 0.0419
H48 H 0.9265 0.7718 0.0742
C40 C 0.8685(8) 0.7479(8) 0.0085(4)
N14 N 0.8556(11) 0.7022(9) -0.0225(4)
C41 C 0.0903(10) 0.9032(11) 0.4679(4)
H49 H 0.0391 0.8553 0.4589
H50 H 0.0904 0.9166 0.5006
H51 H 0.1620 0.8843 0.4623
C42 C 0.0597(8) 0.9828(13) 0.4407(4)
N15 N 0.0343(10) 1.0415(12) 0.4189(5)
loop_
_geom_bond_atom_site_label_1
_geom_bond_atom_site_label_2
_geom_bond_site_symmetry_1
_geom_bond_site_symmetry_2
B1 H1 1_555 1_555
C1 H2 1_555 1_555
H3 C1 1_555 1_555
H4 C1 1_555 1_555
C2 C1 1_555 1_555
C3 C2 1_555 1_555
H5 C3 1_555 1_555
C4 C3 1_555 1_555
C5 C4 1_555 1_555
H6 C5 1_555 1_555
H7 C5 1_555 1_555
H8 C5 1_555 1_555
C6 H9 1_555 1_555
H10 C6 1_555 1_555
H11 C6 1_555 1_555
C7 C6 1_555 1_555
C8 C7 1_555 1_555
H12 C8 1_555 1_555
C9 C8 1_555 1_555
C10 C9 1_555 1_555
H13 C10 1_555 1_555
H14 C10 1_555 1_555
H15 C10 1_555 1_555
C11 H16 1_555 1_555
H17 C11 1_555 1_555
H18 C11 1_555 1_555
C12 C11 1_555 1_555
C13 C12 1_555 1_555
H19 C13 1_555 1_555
C14 C13 1_555 1_555
C15 C14 1_555 1_555
H20 C15 1_555 1_555
H21 C15 1_555 1_555
H22 C15 1_555 1_555
C16 Fe1 1_555 1_555
C17 Fe1 1_555 1_555
C18 Fe1 1_555 1_555
C19 C20 1_555 1_555
C20 C21 1_555 1_555
C21 H23 1_555 1_555
C22 C21 1_555 1_555
H24 C22 1_555 1_555
C23 C22 1_555 1_555
H25 C23 1_555 1_555
C24 C19 1_555 1_555
C25 C24 1_555 1_555
H26 C25 1_555 1_555
C26 H27 1_555 1_555
H28 C26 1_555 1_555
C27 C26 1_555 1_555
H29 C27 1_555 1_555
H30 C27 1_555 1_555
C28 C27 1_555 1_555
H31 C28 1_555 1_555
H32 C28 1_555 1_555
C29 H33 1_555 1_555
C30 C29 1_555 1_555
C31 C30 1_555 1_555
H34 C31 1_555 1_555
C32 C31 1_555 1_555
H35 C32 1_555 1_555
C33 C32 1_555 1_555
H36 C33 1_555 1_555
C34 C33 1_555 1_555
C35 C30 1_555 1_555
C36 H37 1_555 1_555
H38 C36 1_555 1_555
H39 C36 1_555 1_555
C37 H40 1_555 1_555
H41 C37 1_555 1_555
H42 C37 1_555 1_555
C38 H43 1_555 1_555
H44 C38 1_555 1_555
H45 C38 1_555 1_555
C39 H46 1_555 1_555
H47 C39 1_555 1_555
H48 C39 1_555 1_555
C40 C39 1_555 1_555
C41 H49 1_555 1_555
H50 C41 1_555 1_555
H51 C41 1_555 1_555
C42 C41 1_555 1_555
Dy1 O1 1_555 1_555
Fe1 N1 1_555 1_555
N1 C2 1_555 1_555
N2 B1 1_555 1_555
N3 C7 1_555 1_555
N4 B1 1_555 1_555
N5 C12 1_555 1_555
N6 B1 1_555 1_555
N7 C16 1_555 1_555
N8 C17 1_555 1_555
N9 C18 1_555 1_555
N10 C25 1_555 1_555
N11 C28 1_555 1_555
N12 O5 1_555 1_555
N13 O8 1_555 1_555
N14 C40 1_555 1_555
N15 C42 1_555 1_555
Ni1 N8 1_555 1_555
O1 C20 1_555 1_555
O2 C19 1_555 1_555
O3 C35 1_555 1_555
O4 C34 1_555 1_555
O5 Dy1 1_555 1_555
O6 Dy1 1_555 1_555
O7 N12 1_555 1_555
O8 Dy1 1_555 1_555
O9 Dy1 1_555 1_555
O10 N13 1_555 1_555
O11 Dy1 1_555 1_555
H52 O11 1_555 1_555
H53 O11 1_555 1_555
O12 C38 1_555 1_555
H54 O12 1_555 1_555
N9A Ni1 1_555 1_555
Ni1A N9 1_555 1_555
C4 N2 1_555 1_555
C9 N4 1_555 1_555
C14 N6 1_555 1_555
C23 C24 1_555 1_555
C26 N10 1_555 1_555
C29 N11 1_555 1_555
C34 C35 1_555 1_555
C36 O1 1_555 1_555
C37 O4 1_555 1_555
Dy1 O2 1_555 1_555
Dy1 O3 1_555 1_555
Dy1 O4 1_555 1_555
Fe1 N3 1_555 1_555
Fe1 N5 1_555 1_555
N1 N2 1_555 1_555
N3 N4 1_555 1_555
N5 N6 1_555 1_555
N10 Ni1 1_555 1_555
N11 Ni1 1_555 1_555
N12 O6 1_555 1_555
N13 O9 1_555 1_555
Ni1 O2 1_555 1_555
Ni1 O3 1_555 1_555

#END
