
#######################################################################
#
#                 Cambridge Crystallographic Data Centre
#                                CCDC 
#
#######################################################################
#
# If this CIF has been generated from an entry in the Cambridge 
# Structural Database, then it will include bibliographic, chemical, 
# crystal, experimental, refinement or atomic coordinate data resulting 
# from the CCDC's data processing and validation procedures.
#
#######################################################################

data_LETNAB
_symmetry_cell_setting           monoclinic
_symmetry_space_group_name_H-M   'P 21/n'
_symmetry_Int_Tables_number      14
_space_group_name_Hall           '-P 2yn'
loop_
_symmetry_equiv_pos_site_id
_symmetry_equiv_pos_as_xyz
1 x,y,z
2 1/2-x,1/2+y,1/2-z
3 -x,-y,-z
4 1/2+x,1/2-y,1/2+z
_cell_length_a                   12.3715(6)
_cell_length_b                   14.7313(7)
_cell_length_c                   28.7395(14)
_cell_angle_alpha                90
_cell_angle_beta                 97.1710(10)
_cell_angle_gamma                90
_cell_volume                     5196.75
loop_
_atom_site_label
_atom_site_type_symbol
_atom_site_fract_x
_atom_site_fract_y
_atom_site_fract_z
B1 B 0.4330(4) 0.0930(3) 0.38410(15)
H1 H 0.4079 0.0655 0.4105
C1 C 0.8030(3) 0.1708(3) 0.34593(14)
H2 H 0.7877 0.1627 0.3126
H3 H 0.8727 0.1448 0.3569
H4 H 0.8038 0.2345 0.3531
C2 C 0.7170(3) 0.1250(2) 0.36947(12)
C3 C 0.7331(4) 0.0686(3) 0.40839(13)
H5 H 0.7997 0.0495 0.4239
C4 C 0.6315(3) 0.0465(3) 0.41969(12)
C5 C 0.6017(4) -0.0122(3) 0.45833(15)
H6 H 0.5891 0.0250 0.4846
H7 H 0.6600 -0.0539 0.4677
H8 H 0.5367 -0.0456 0.4476
C6 C 0.3961(3) 0.4075(2) 0.31928(14)
H9 H 0.4675 0.4326 0.3274
H10 H 0.3423 0.4529 0.3232
H11 H 0.3878 0.3877 0.2872
C7 C 0.3814(3) 0.3292(2) 0.35017(13)
C8 C 0.3268(3) 0.3284(3) 0.38917(14)
H12 H 0.2893 0.3767 0.4004
C9 C 0.3379(3) 0.2434(3) 0.40821(14)
C10 C 0.2966(4) 0.2070(3) 0.45136(16)
H13 H 0.2465 0.1583 0.4429
H14 H 0.2602 0.2545 0.4662
H15 H 0.3568 0.1849 0.4727
C11 C 0.3834(4) 0.0388(3) 0.21164(13)
H16 H 0.3353 0.0868 0.1997
H17 H 0.3637 -0.0161 0.1947
H18 H 0.4570 0.0548 0.2079
C12 C 0.3742(3) 0.0246(2) 0.26256(13)
C13 C 0.3147(3) -0.0414(3) 0.28245(15)
H19 H 0.2760 -0.0886 0.2666
C14 C 0.3232(3) -0.0249(2) 0.32895(15)
C15 C 0.2688(4) -0.0711(3) 0.36648(16)
H20 H 0.3231 -0.0905 0.3913
H21 H 0.2287 -0.1228 0.3534
H22 H 0.2198 -0.0294 0.3787
C16 C 0.4386(3) 0.2424(2) 0.24678(13)
C17 C 0.6095(3) 0.1315(2) 0.26032(12)
C18 C 0.6074(3) 0.2972(2) 0.30468(12)
C19 C 0.9514(3) 0.1016(2) 0.21538(13)
C20 C 1.0168(3) 0.1631(2) 0.19449(14)
C21 C 1.1124(3) 0.1966(3) 0.21788(17)
H23 H 1.1552 0.2364 0.2029
C22 C 1.1442(4) 0.1706(3) 0.26371(19)
H24 H 1.2080 0.1936 0.2800
C23 C 1.0821(4) 0.1113(3) 0.28493(16)
H25 H 1.1044 0.0946 0.3159
C24 C 0.9854(3) 0.0742(3) 0.26170(13)
C25 C 0.9280(4) 0.0104(3) 0.28806(14)
H26 H 0.9606 -0.0028 0.3182
C26 C 0.7995(4) -0.0931(3) 0.30855(15)
H27 H 0.8249 -0.1537 0.3023
H28 H 0.8314 -0.0764 0.3399
C27 C 0.6826(5) -0.0950(4) 0.30703(17)
H29 H 0.6573 -0.0328 0.3075
H30 H 0.6655 -0.1237 0.3356
C28 C 0.6181(5) -0.1419(3) 0.26662(16)
H31 H 0.6398 -0.2052 0.2672
H32 H 0.5419 -0.1400 0.2714
C29 C 0.5621(3) -0.1352(2) 0.18530(16)
H33 H 0.5065 -0.1718 0.1938
C30 C 0.5613(3) -0.1205(2) 0.13504(15)
C31 C 0.4930(4) -0.1763(3) 0.10476(19)
H34 H 0.4458 -0.2162 0.1172
C32 C 0.4944(5) -0.1732(4) 0.0572(2)
H35 H 0.4484 -0.2110 0.0378
C33 C 0.5638(4) -0.1143(3) 0.03778(17)
H36 H 0.5654 -0.1130 0.0055
C34 C 0.6304(3) -0.0576(3) 0.06696(14)
C35 C 0.6298(3) -0.0590(2) 0.11597(13)
C36 C 1.0380(4) 0.2515(3) 0.12562(17)
H37 H 1.0478 0.3059 0.1440
H38 H 1.0001 0.2656 0.0953
H39 H 1.1078 0.2257 0.1221
C37 C 0.7103(4) 0.0083(3) 0.00194(13)
H40 H 0.7328 -0.0494 -0.0090
H41 H 0.7625 0.0538 -0.0039
H42 H 0.6403 0.0240 -0.0144
Fe1 Fe 0.51824(4) 0.18939(3) 0.301704(16)
Gd1 Gd 0.801662(17) 0.110764(12) 0.112200(6)
N1 N 0.6094(2) 0.13627(18) 0.35699(10)
N2 N 0.5572(3) 0.08888(19) 0.38903(10)
N3 N 0.4245(2) 0.24597(18) 0.34499(9)
N4 N 0.3976(3) 0.19316(19) 0.38142(10)
N5 N 0.4210(2) 0.07924(19) 0.29711(10)
N6 N 0.3883(2) 0.04741(19) 0.33809(10)
N7 N 0.3942(3) 0.2727(3) 0.21254(12)
N8 N 0.6615(3) 0.09157(19) 0.23636(10)
N9 N 0.6573(3) 0.3630(2) 0.30689(11)
N10 N 0.8383(3) -0.02971(19) 0.27488(10)
N11 N 0.6282(3) -0.10484(19) 0.21904(12)
N12 N 0.7120(4) 0.2704(3) 0.06077(13)
N13 N 0.9790(4) 0.0543(3) 0.06306(14)
Ni1 Ni 0.75519(4) -0.02182(3) 0.209910(15)
O1 O 0.9747(2) 0.18671(17) 0.14898(9)
O2 O 0.8625(2) 0.07137(15) 0.18974(8)
O3 O 0.6963(2) -0.00201(15) 0.14096(8)
O4 O 0.7031(2) 0.00333(18) 0.05188(9)
O5 O 0.6700(3) 0.1917(2) 0.05382(10)
O6 O 0.8000(3) 0.27330(19) 0.08752(11)
O7 O 0.6683(3) 0.3366(2) 0.04200(12)
O8 O 0.9172(3) 0.1200(2) 0.04897(10)
O9 O 0.9464(3) 0.0063(2) 0.09587(11)
O10 O 1.0619(4) 0.0360(3) 0.04706(15)
O11 O 0.6774(3) 0.19228(17) 0.15419(9)
H52 H 0.6084 0.2110 0.1459
H53 H 0.7046 0.2069 0.1838
N9A N 0.8427(3) -0.1370(2) 0.19311(11)
Ni1A Ni 0.74481(4) 0.47818(3) 0.290090(15)
C38 C 0.4048(8) 0.1766(7) 0.0996(2)
H43 H 0.3321 0.1802 0.1079
H44 H 0.4347 0.1177 0.1079
H45 H 0.4032 0.1859 0.0665
O12 O 0.4731(4) 0.2470(4) 0.12521(14)
H54 H 0.4508 0.2572 0.1504
C39 C 0.4090(7) 0.4050(7) 0.0319(3)
H46 H 0.4133 0.3526 0.0519
H47 H 0.4569 0.3972 0.0084
H48 H 0.3356 0.4122 0.0171
C40 C 0.4412(7) 0.4852(9) 0.0598(3)
N14 N 0.4675(7) 0.5415(8) 0.0825(3)
C41 C 0.8859(5) 0.8018(4) 0.0488(2)
H49 H 0.8179 0.8093 0.0611
H50 H 0.9134 0.8601 0.0411
H51 H 0.9374 0.7727 0.0718
C42 C 0.8698(6) 0.7476(4) 0.0079(2)
N15 N 0.8561(7) 0.7024(5) -0.0230(2)
loop_
_geom_bond_atom_site_label_1
_geom_bond_atom_site_label_2
_geom_bond_site_symmetry_1
_geom_bond_site_symmetry_2
B1 H1 1_555 1_555
C1 H2 1_555 1_555
H3 C1 1_555 1_555
H4 C1 1_555 1_555
C2 C1 1_555 1_555
C3 C2 1_555 1_555
H5 C3 1_555 1_555
C4 C3 1_555 1_555
C5 C4 1_555 1_555
H6 C5 1_555 1_555
H7 C5 1_555 1_555
H8 C5 1_555 1_555
C6 H9 1_555 1_555
H10 C6 1_555 1_555
H11 C6 1_555 1_555
C7 C6 1_555 1_555
C8 C7 1_555 1_555
H12 C8 1_555 1_555
C9 C8 1_555 1_555
C10 C9 1_555 1_555
H13 C10 1_555 1_555
H14 C10 1_555 1_555
H15 C10 1_555 1_555
C11 H16 1_555 1_555
H17 C11 1_555 1_555
H18 C11 1_555 1_555
C12 C11 1_555 1_555
C13 C12 1_555 1_555
H19 C13 1_555 1_555
C14 C13 1_555 1_555
C15 C14 1_555 1_555
H20 C15 1_555 1_555
H21 C15 1_555 1_555
H22 C15 1_555 1_555
C16 Fe1 1_555 1_555
C17 Fe1 1_555 1_555
C18 Fe1 1_555 1_555
C19 C20 1_555 1_555
C20 C21 1_555 1_555
C21 H23 1_555 1_555
C22 C21 1_555 1_555
H24 C22 1_555 1_555
C23 C22 1_555 1_555
H25 C23 1_555 1_555
C24 C19 1_555 1_555
C25 C24 1_555 1_555
H26 C25 1_555 1_555
C26 H27 1_555 1_555
H28 C26 1_555 1_555
C27 C26 1_555 1_555
H29 C27 1_555 1_555
H30 C27 1_555 1_555
C28 C27 1_555 1_555
H31 C28 1_555 1_555
H32 C28 1_555 1_555
C29 H33 1_555 1_555
C30 C29 1_555 1_555
C31 C30 1_555 1_555
H34 C31 1_555 1_555
C32 C31 1_555 1_555
H35 C32 1_555 1_555
C33 C32 1_555 1_555
H36 C33 1_555 1_555
C34 C33 1_555 1_555
C35 C30 1_555 1_555
C36 H37 1_555 1_555
H38 C36 1_555 1_555
H39 C36 1_555 1_555
C37 H40 1_555 1_555
H41 C37 1_555 1_555
H42 C37 1_555 1_555
C38 H43 1_555 1_555
H44 C38 1_555 1_555
H45 C38 1_555 1_555
C39 H46 1_555 1_555
H47 C39 1_555 1_555
H48 C39 1_555 1_555
C40 C39 1_555 1_555
C41 H49 1_555 1_555
H50 C41 1_555 1_555
H51 C41 1_555 1_555
C42 C41 1_555 1_555
Fe1 N1 1_555 1_555
Gd1 O1 1_555 1_555
N1 C2 1_555 1_555
N2 B1 1_555 1_555
N3 C7 1_555 1_555
N4 B1 1_555 1_555
N5 C12 1_555 1_555
N6 B1 1_555 1_555
N7 C16 1_555 1_555
N8 C17 1_555 1_555
N9 C18 1_555 1_555
N10 C25 1_555 1_555
N11 C28 1_555 1_555
N12 O5 1_555 1_555
N13 O8 1_555 1_555
N14 C40 1_555 1_555
N15 C42 1_555 1_555
Ni1 N8 1_555 1_555
O1 C20 1_555 1_555
O2 C19 1_555 1_555
O3 C35 1_555 1_555
O4 C34 1_555 1_555
O5 Gd1 1_555 1_555
O6 Gd1 1_555 1_555
O7 N12 1_555 1_555
O8 Gd1 1_555 1_555
O9 Gd1 1_555 1_555
O10 N13 1_555 1_555
O11 Gd1 1_555 1_555
H52 O11 1_555 1_555
H53 O11 1_555 1_555
O12 C38 1_555 1_555
H54 O12 1_555 1_555
N9A Ni1 1_555 1_555
Ni1A N9 1_555 1_555
C4 N2 1_555 1_555
C9 N4 1_555 1_555
C14 N6 1_555 1_555
C23 C24 1_555 1_555
C26 N10 1_555 1_555
C29 N11 1_555 1_555
C34 C35 1_555 1_555
C36 O1 1_555 1_555
C37 O4 1_555 1_555
Fe1 N3 1_555 1_555
Fe1 N5 1_555 1_555
Gd1 O2 1_555 1_555
Gd1 O3 1_555 1_555
Gd1 O4 1_555 1_555
N1 N2 1_555 1_555
N3 N4 1_555 1_555
N5 N6 1_555 1_555
N10 Ni1 1_555 1_555
N11 Ni1 1_555 1_555
N12 O6 1_555 1_555
N13 O9 1_555 1_555
Ni1 O2 1_555 1_555
Ni1 O3 1_555 1_555

#END
