
#######################################################################
#
#                 Cambridge Crystallographic Data Centre
#                                CCDC 
#
#######################################################################
#
# If this CIF has been generated from an entry in the Cambridge 
# Structural Database, then it will include bibliographic, chemical, 
# crystal, experimental, refinement or atomic coordinate data resulting 
# from the CCDC's data processing and validation procedures.
#
#######################################################################

data_LETWAI
_symmetry_cell_setting           tetragonal
_symmetry_space_group_name_H-M   'I 4/m c m'
_symmetry_Int_Tables_number      140
_space_group_name_Hall           '-I 4 2c'
loop_
_symmetry_equiv_pos_site_id
_symmetry_equiv_pos_as_xyz
1 x,y,z
2 1/2+x,1/2+y,1/2+z
3 -y,x,z
4 x,-y,1/2-z
5 1/2-y,1/2+x,1/2+z
6 1/2+x,1/2-y,-z
7 -x,-y,z
8 y,x,1/2-z
9 1/2-x,1/2-y,1/2+z
10 1/2+y,1/2+x,-z
11 y,-x,z
12 -x,y,1/2-z
13 1/2+y,1/2-x,1/2+z
14 1/2-x,1/2+y,-z
15 -y,-x,1/2-z
16 1/2-y,1/2-x,-z
17 -x,-y,-z
18 1/2-x,1/2-y,1/2-z
19 y,-x,-z
20 -x,y,1/2+z
21 1/2+y,1/2-x,1/2-z
22 1/2-x,1/2+y,z
23 x,y,-z
24 -y,-x,1/2+z
25 1/2+x,1/2+y,1/2-z
26 1/2-y,1/2-x,z
27 -y,x,-z
28 x,-y,1/2+z
29 1/2-y,1/2+x,1/2-z
30 1/2+x,1/2-y,z
31 y,x,1/2+z
32 1/2+y,1/2+x,z
_cell_length_a                   11.8869(5)
_cell_length_b                   11.8869(5)
_cell_length_c                   13.0432(7)
_cell_angle_alpha                90
_cell_angle_beta                 90
_cell_angle_gamma                90
_cell_volume                     1842.98
loop_
_atom_site_label
_atom_site_type_symbol
_atom_site_fract_x
_atom_site_fract_y
_atom_site_fract_z
Cu1 Cu 0.29368(5) 0.20632 0.00000
N1 N 0.4164(3) 0.0836 0.00000
N2 N 0.2611(3) 0.2389 0.1435(3)
C1 C 0.1876(4) 0.1766(4) 0.1977(3)
C2 C 0.3914(5) -0.0272(5) 0.00000
H1 H 0.136 0.119 0.161
H2 H 0.313 -0.043 0.00000
N2O N 0.2611 0.2389(3) -0.1435(3)
C2O C 0.5272(5) 0.1086(5) 0.00000
C1Y C 0.3234(4) 0.3124(4) 0.1977(3)
C1G C 0.1766(4) 0.1876(4) 0.3023(3)
C2I C 0.4728(5) -0.1086(5) 0.00000
C1V C 0.1876(4) 0.1766(4) -0.1977(3)
C1O C 0.3234(4) 0.3124(4) -0.1977(3)
C2F C 0.6086(5) 0.0272(5) 0.00000
H2O H 0.543 0.187 0.00000
C1Q C 0.3124(4) 0.3234(4) 0.3023(3)
H1Y H 0.381 0.364 0.161
N2G N 0.2389 0.2611(3) 0.3565(3)
H1G H 0.119 0.136 0.339
N1F N 0.5836(3) -0.0836 0.00000
H2I H 0.457 -0.187 0.00000
C1DA C 0.1766(4) 0.1876(4) -0.3023(3)
H1V H 0.136 0.119 -0.161
C1H C 0.3124(4) 0.3234(4) -0.3023(3)
H1O H 0.381 0.364 -0.161
H2F H 0.687 0.043 0.00000
H1Q H 0.364 0.381 0.339
Cu1G Cu 0.20632 0.29368(5) 0.50000
Cu1F Cu 0.70632(5) -0.20632 0.00000
N2H N 0.2389(3) 0.2611 -0.3565(3)
H1DA H 0.119 0.136 -0.339
H1H H 0.364 0.381 -0.339
N1G N 0.0836 0.4164(3) 0.50000
N2H_2 N 0.2389(3) 0.2611 0.6435(3)
N2I N 0.7389 -0.2389(3) -0.1435(3)
N2F N 0.7389(3) -0.2389 0.1435(3)
Cu1G_2 Cu 0.20632 0.29368(5) -0.50000
C2H C 0.1086(5) 0.5272(5) 0.50000
C2G C -0.0272(5) 0.3914(5) 0.50000
C1P C 0.8124(4) -0.1766(4) -0.1977(3)
C1I C 0.6766(4) -0.3124(4) -0.1977(3)
C1F C 0.8124(4) -0.1766(4) 0.1977(3)
C1EA C 0.6766(4) -0.3124(4) 0.1977(3)
C2N C 0.0272(5) 0.6086(5) 0.50000
H2H H 0.187 0.543 0.50000
C2A C -0.1086(5) 0.4728(5) 0.50000
H2G H -0.043 0.313 0.50000
C1W C 0.8234(4) -0.1876(4) -0.3023(3)
H1P H 0.864 -0.119 -0.161
C1A C 0.6876(4) -0.3234(4) -0.3023(3)
H1I H 0.619 -0.364 -0.161
C1N C 0.8234(4) -0.1876(4) 0.3023(3)
H1F H 0.864 -0.119 0.161
C1X C 0.6876(4) -0.3234(4) 0.3023(3)
H1EA H 0.619 -0.364 0.161
N1A N -0.0836(3) 0.5836 0.50000
H2N H 0.043 0.687 0.50000
H2A H -0.187 0.457 0.50000
N2A N 0.7611(3) -0.2611 -0.3565(3)
H1W H 0.881 -0.136 -0.339
H1A H 0.636 -0.381 -0.339
N2N N 0.7611 -0.2611(3) 0.3565(3)
H1N H 0.881 -0.136 0.339
H1X H 0.636 -0.381 0.339
Cu1A Cu -0.20632(5) 0.70632 0.50000
Cu1A_2 Cu 0.79368(5) -0.29368 -0.50000
Cu1A_3 Cu 0.79368(5) -0.29368 0.50000
N2A_2 N -0.2389(3) 0.7389 0.6435(3)
N2N_2 N -0.2389 0.7389(3) 0.3565(3)
Si1 Si 0.00000 0.00000 0.00000
F1 F 0.13911(21) 0.0289(3) 0.00000
F2 F 0.00000 0.00000 0.12860(24)
F1F F -0.13911(21) -0.0289(3) 0.00000
F1B F -0.0289(3) 0.13911(21) 0.00000
F1J F 0.0289(3) -0.13911(21) 0.00000
F2P F 0.00000 0.00000 -0.12860(24)
loop_
_geom_bond_atom_site_label_1
_geom_bond_atom_site_label_2
_geom_bond_site_symmetry_1
_geom_bond_site_symmetry_2
Cu1 N1 1_555 1_555
N1 C2 1_555 1_555
N2 Cu1 1_555 1_555
C1 N2 1_555 1_555
C2 H2 1_555 1_555
H1 C1 1_555 1_555
Si1 F1 1_555 1_555
F2 Si1 1_555 1_555
N2O Cu1 1_555 1_555
C2O N1 1_555 1_555
C1Y N2 1_555 1_555
C1G C1 1_555 1_555
C2I C2 1_555 1_555
C1V N2O 1_555 1_555
C1O N2O 1_555 1_555
C2F C2O 1_555 1_555
H2O C2O 1_555 1_555
C1Q C1Y 1_555 1_555
H1Y C1Y 1_555 1_555
N2G C1G 1_555 1_555
H1G C1G 1_555 1_555
N1F C2I 1_555 1_555
H2I C2I 1_555 1_555
C1DA C1V 1_555 1_555
H1V C1V 1_555 1_555
C1H C1O 1_555 1_555
H1O C1O 1_555 1_555
H2F C2F 1_555 1_555
H1Q C1Q 1_555 1_555
Cu1G N2G 1_555 1_555
Cu1F N1F 1_555 1_555
N2H C1DA 1_555 1_555
H1DA C1DA 1_555 1_555
H1H C1H 1_555 1_555
N1G Cu1G 1_555 1_555
N2H_2 Cu1G 1_555 1_555
N2I Cu1F 1_555 1_555
N2F Cu1F 1_555 1_555
Cu1G_2 N2H 1_555 1_555
C2H N1G 1_555 1_555
C2G N1G 1_555 1_555
C1P N2I 1_555 1_555
C1I N2I 1_555 1_555
C1F N2F 1_555 1_555
C1EA N2F 1_555 1_555
C2N C2H 1_555 1_555
H2H C2H 1_555 1_555
C2A C2G 1_555 1_555
H2G C2G 1_555 1_555
C1W C1P 1_555 1_555
H1P C1P 1_555 1_555
C1A C1I 1_555 1_555
H1I C1I 1_555 1_555
C1N C1F 1_555 1_555
H1F C1F 1_555 1_555
C1X C1EA 1_555 1_555
H1EA C1EA 1_555 1_555
N1A C2N 1_555 1_555
H2N C2N 1_555 1_555
H2A C2A 1_555 1_555
N2A C1W 1_555 1_555
H1W C1W 1_555 1_555
H1A C1A 1_555 1_555
N2N C1N 1_555 1_555
H1N C1N 1_555 1_555
H1X C1X 1_555 1_555
Cu1A N1A 1_555 1_555
Cu1A_2 N2A 1_555 1_555
Cu1A_3 N2N 1_555 1_555
N2A_2 Cu1A 1_555 1_555
N2N_2 Cu1A 1_555 1_555
F1F Si1 1_555 1_555
F1B Si1 1_555 1_555
F1J Si1 1_555 1_555
F2P Si1 1_555 1_555
C2F N1F 1_555 1_555
C1Q N2G 1_555 1_555
C1H N2H 1_555 1_555
C2A N1A 1_555 1_555
C1A N2A 1_555 1_555
C1X N2N 1_555 1_555

#END
