
#######################################################################
#
#                 Cambridge Crystallographic Data Centre
#                                CCDC 
#
#######################################################################
#
# If this CIF has been generated from an entry in the Cambridge 
# Structural Database, then it will include bibliographic, chemical, 
# crystal, experimental, refinement or atomic coordinate data resulting 
# from the CCDC's data processing and validation procedures.
#
#######################################################################

data_LETXEP
_symmetry_cell_setting           monoclinic
_symmetry_space_group_name_H-M   'C 2/c'
_symmetry_Int_Tables_number      15
_space_group_name_Hall           '-C 2yn'
loop_
_symmetry_equiv_pos_site_id
_symmetry_equiv_pos_as_xyz
1 x,y,z
2 -x,y,1/2-z
3 1/2+x,1/2+y,z
4 1/2-x,1/2+y,1/2-z
5 -x,-y,-z
6 x,-y,1/2+z
7 1/2-x,1/2-y,-z
8 1/2+x,1/2-y,1/2+z
_cell_length_a                   23.820(10)
_cell_length_b                   14.209(6)
_cell_length_c                   8.873(4)
_cell_angle_alpha                90
_cell_angle_beta                 105.361(6)
_cell_angle_gamma                90
_cell_volume                     2895.86
loop_
_atom_site_label
_atom_site_type_symbol
_atom_site_fract_x
_atom_site_fract_y
_atom_site_fract_z
Pr1 Pr 0.313111(11) 0.143007(16) 0.58473(3)
O1 O 0.29100(15) 0.2870(2) 0.4284(4)
O2 O 0.26872(17) 0.4210(2) 0.3108(5)
O3 O 0.3507(2) 0.1377(2) -0.1157(4)
O4 O 0.33098(18) 0.2746(3) -0.2252(4)
O5 O 0.24368(16) 0.0853(2) 0.3460(4)
O6 O 0.37404(18) 0.1115(3) 0.3992(4)
O7 O 0.34159(19) -0.0221(2) 0.6222(4)
C1 C 0.3060(2) 0.3596(3) 0.3652(6)
O8 O 0.41890(18) 0.1699(3) 0.6246(5)
C2 C 0.4211(3) 0.1373(4) 0.4945(8)
C3 C 0.3678(2) 0.3707(4) 0.3588(6)
H1 H 0.3887 0.4063 0.4498
H2 H 0.3855 0.3088 0.3659
C4 C 0.3481(2) 0.2252(3) -0.1051(6)
C5 C 0.3760(3) 0.4192(4) 0.2140(6)
C6 C 0.3470(3) 0.3697(4) 0.0626(7)
C7 C 0.4774(4) 0.1295(5) 0.4526(11)
H3 H 0.4705 0.1445 0.3426
H4 H 0.5037 0.1769 0.5110
C8 C 0.3691(3) 0.2706(4) 0.0526(6)
H5 H 0.4113 0.2719 0.0812
H6 H 0.3572 0.2318 0.1287
C9 C 0.5055(4) 0.0424(5) 0.4797(11)
H7 H 0.5164 0.0316 0.3833
H8 H 0.5416 0.0577 0.5564
H9 H 0.416(3) 0.422(4) 0.240(6)
H10 H 0.362(3) 0.473(6) 0.219(9)
H11 H 0.352(3) 0.408(5) -0.019(8)
H12 H 0.304(5) 0.367(6) 0.032(13)
Pr1F Pr 0.186889(11) 0.356993(16) 0.41527(3)
Pr1_2 Pr 0.313111(11) 0.143007(16) -0.41527(3)
Pr1D Pr 0.686889(11) -0.143007(16) 0.41527(3)
Pr1F_2 Pr 0.186889(11) 0.356993(16) 1.41527(3)
O1F O 0.20900(15) 0.2130(2) 0.5716(4)
O2F O 0.23128(17) 0.0790(2) 0.6892(5)
O3F O 0.1493(2) 0.3623(2) 1.1157(4)
O3_2 O 0.3507(2) 0.1377(2) 0.8843(4)
O3F_2 O 0.1493(2) 0.3623(2) 0.1157(4)
O4F O 0.16902(18) 0.2254(3) 1.2252(4)
O4_2 O 0.33098(18) 0.2746(3) 0.7748(4)
O4F_2 O 0.16902(18) 0.2254(3) 0.2252(4)
O5F O 0.25632(16) 0.4147(2) 0.6540(4)
O6D O 0.62596(18) -0.1115(3) 0.6008(4)
O6F O 0.12596(18) 0.3885(3) 0.6008(4)
O7F O 0.15841(19) 0.5221(2) 0.3778(4)
C1F C 0.1940(2) 0.1404(3) 0.6348(6)
O8D O 0.58110(18) -0.1699(3) 0.3754(5)
O8F O 0.08110(18) 0.3301(3) 0.3754(5)
C2D C 0.5789(3) -0.1373(4) 0.5055(8)
C3F C 0.1322(2) 0.1293(4) 0.6412(6)
H1F H 0.1113 0.0937 0.5502
H2F H 0.1145 0.1912 0.6341
C4F C 0.1519(2) 0.2748(3) 1.1051(6)
C5F C 0.1240(3) 0.0808(4) 0.7860(6)
C6F C 0.1530(3) 0.1303(4) 0.9374(7)
C7D C 0.5226(4) -0.1295(5) 0.5474(11)
H3D H 0.5295 -0.1445 0.6574
H4D H 0.4963 -0.1769 0.4890
C8F C 0.1309(3) 0.2294(4) 0.9474(6)
H5F H 0.0887 0.2281 0.9188
H6F H 0.1428 0.2682 0.8713
C9D C 0.4945(4) -0.0424(5) 0.5203(11)
H7D H 0.4836 -0.0316 0.6167
H8D H 0.4584 -0.0577 0.4436
H9F H 0.084(3) 0.078(4) 0.760(6)
H10F H 0.138(3) 0.027(6) 0.781(9)
H11F H 0.148(3) 0.092(5) 1.019(8)
H12F H 0.196(5) 0.133(6) 0.968(13)
O9 O 0.5000 0.350(3) 0.7500
loop_
_geom_bond_atom_site_label_1
_geom_bond_atom_site_label_2
_geom_bond_site_symmetry_1
_geom_bond_site_symmetry_2
Pr1 O1 1_555 1_555
O1 C1 1_555 1_555
O2 C1 1_555 1_555
O3 C4 1_555 1_555
O4 C4 1_555 1_555
O5 Pr1 1_555 1_555
O6 Pr1 1_555 1_555
O7 Pr1 1_555 1_555
C1 C3 1_555 1_555
O8 Pr1 1_555 1_555
C2 O6 1_555 1_555
C3 H1 1_555 1_555
H2 C3 1_555 1_555
C4 C8 1_555 1_555
C5 C3 1_555 1_555
C6 C5 1_555 1_555
C7 C2 1_555 1_555
H3 C7 1_555 1_555
H4 C7 1_555 1_555
C8 C6 1_555 1_555
H5 C8 1_555 1_555
H6 C8 1_555 1_555
C9 C7 1_555 1_555
H7 C9 1_555 1_555
H8 C9 1_555 1_555
H9 C5 1_555 1_555
H10 C5 1_555 1_555
H11 C6 1_555 1_555
H12 C6 1_555 1_555
Pr1F O1 1_555 1_555
Pr1_2 O3 1_555 1_555
Pr1D O6D 1_555 1_555
Pr1F_2 O3F 1_555 1_555
O1F Pr1 1_555 1_555
O2F Pr1 1_555 1_555
O3F C4F 1_555 1_555
O3_2 Pr1 1_555 1_555
O3F_2 Pr1F 1_555 1_555
O4F Pr1F_2 1_555 1_555
O4_2 Pr1 1_555 1_555
O4F_2 Pr1F 1_555 1_555
O5F Pr1F 1_555 1_555
O6D C2D 1_555 1_555
O6F Pr1F 1_555 1_555
O7F Pr1F 1_555 1_555
C1F O1F 1_555 1_555
O8D Pr1D 1_555 1_555
O8F Pr1F 1_555 1_555
C2D O8D 1_555 1_555
C3F C1F 1_555 1_555
H1F C3F 1_555 1_555
H2F C3F 1_555 1_555
C4F O4F 1_555 1_555
C5F C3F 1_555 1_555
C6F C5F 1_555 1_555
C7D C2D 1_555 1_555
H3D C7D 1_555 1_555
H4D C7D 1_555 1_555
C8F C4F 1_555 1_555
H5F C8F 1_555 1_555
H6F C8F 1_555 1_555
C9D C9 1_555 1_555
H7D C9D 1_555 1_555
H8D C9D 1_555 1_555
H9F C5F 1_555 1_555
H10F C5F 1_555 1_555
H11F C6F 1_555 1_555
H12F C6F 1_555 1_555
O2 Pr1F 1_555 1_555
O4 Pr1_2 1_555 1_555
O8 C2 1_555 1_555
Pr1F O1F 1_555 1_555
O2F C1F 1_555 1_555
C6F C8F 1_555 1_555
C7D C9D 1_555 1_555

#END
