
#######################################################################
#
#                 Cambridge Crystallographic Data Centre
#                                CCDC 
#
#######################################################################
#
# If this CIF has been generated from an entry in the Cambridge 
# Structural Database, then it will include bibliographic, chemical, 
# crystal, experimental, refinement or atomic coordinate data resulting 
# from the CCDC's data processing and validation procedures.
#
#######################################################################

data_LETXUF
_symmetry_cell_setting           monoclinic
_symmetry_space_group_name_H-M   'C 2/c'
_symmetry_Int_Tables_number      15
_space_group_name_Hall           '-C 2yn'
loop_
_symmetry_equiv_pos_site_id
_symmetry_equiv_pos_as_xyz
1 x,y,z
2 -x,y,1/2-z
3 1/2+x,1/2+y,z
4 1/2-x,1/2+y,1/2-z
5 -x,-y,-z
6 x,-y,1/2+z
7 1/2-x,1/2-y,-z
8 1/2+x,1/2-y,1/2+z
_cell_length_a                   23.467(4)
_cell_length_b                   13.960(2)
_cell_length_c                   8.8031(15)
_cell_angle_alpha                90
_cell_angle_beta                 104.117(2)
_cell_angle_gamma                90
_cell_volume                     2796.8
loop_
_atom_site_label
_atom_site_type_symbol
_atom_site_fract_x
_atom_site_fract_y
_atom_site_fract_z
Ho1 Ho 0.188462(13) 0.14363(2) 0.91692(3)
C1 C 0.3059(4) 0.1426(5) 0.8632(9)
C2 C 0.3676(4) 0.1288(6) 0.8532(9)
H1 H 0.3880 0.0924 0.9441
H2 H 0.3862 0.1912 0.8597
C3 C 0.3766(3) 0.0784(5) 0.7071(8)
H3 H 0.3611 0.0138 0.7042
H4 H 0.4184 0.0736 0.7141
C4 C 0.3468(4) 0.1298(5) 0.5538(10)
H5 H 0.3541 0.0936 0.4663
H6 H 0.3047 0.1308 0.5433
C5 C 0.3682(4) 0.2315(5) 0.5452(9)
H7 H 0.3555 0.2699 0.6227
H8 H 0.4108 0.2314 0.5724
C6 C 0.3468(3) 0.2781(5) 0.3874(9)
C7 C 0.0819(4) 0.1378(5) 1.0066(10)
C8 C 0.0245(4) 0.1314(6) 1.0483(12)
H9 H 0.0305 0.1480 1.1581
H10 H -0.0015 0.1791 0.9881
C9 C -0.0043(5) 0.0408(7) 1.0234(15)
H11 H -0.0120 0.0276 1.1248
H12 H -0.0423 0.0573 0.9562
O1 O 0.2549(2) 0.0839(4) 1.1407(6)
O2 O 0.2672(2) 0.0815(4) 0.8096(6)
O3 O 0.2915(2) 0.2167(4) 0.9292(6)
O4 O 0.1624(3) -0.0174(4) 0.8818(6)
O5 O 0.3488(3) 0.3677(4) 0.3741(7)
O6 O 0.3282(2) 0.2278(4) 0.2661(6)
O7 O 0.0852(3) 0.1691(4) 0.8742(7)
O8 O 0.1292(3) 0.1120(4) 1.1047(7)
Ho1F Ho 0.311538(13) 0.35637(2) 1.08308(3)
Ho1F_2 Ho 0.311538(13) 0.35637(2) 0.08308(3)
Ho1D Ho -0.188462(13) -0.14363(2) 1.08308(3)
Ho1_2 Ho 0.188462(13) 0.14363(2) 1.91692(3)
C1F C 0.1941(4) 0.3574(5) 1.1368(9)
C2F C 0.1324(4) 0.3712(6) 1.1468(9)
H1F H 0.1120 0.4076 1.0559
H2F H 0.1138 0.3088 1.1403
C3F C 0.1234(3) 0.4216(5) 1.2929(8)
H3F H 0.1389 0.4862 1.2958
H4F H 0.0816 0.4264 1.2859
C4F C 0.1532(4) 0.3702(5) 1.4462(10)
H5F H 0.1459 0.4064 1.5337
H6F H 0.1953 0.3692 1.4567
C5F C 0.1318(4) 0.2685(5) 1.4548(9)
H7F H 0.1445 0.2301 1.3773
H8F H 0.0892 0.2686 1.4276
C6F C 0.1532(3) 0.2219(5) 1.6126(9)
C7D C -0.0819(4) -0.1378(5) 0.9934(10)
C8D C -0.0245(4) -0.1314(6) 0.9517(12)
H9D H -0.0305 -0.1480 0.8419
H10D H 0.0015 -0.1791 1.0119
C9D C 0.0043(5) -0.0408(7) 0.9766(15)
H11D H 0.0120 -0.0276 0.8752
H12D H 0.0423 -0.0573 1.0438
O1F O 0.2451(2) 0.4161(4) 0.8593(6)
O2F O 0.2328(2) 0.4185(4) 1.1904(6)
O3F O 0.2085(2) 0.2833(4) 1.0708(6)
O4F O 0.3376(3) 0.5174(4) 1.1182(6)
O5F O 0.1512(3) 0.1323(4) 1.6259(7)
O5F_2 O 0.1512(3) 0.1323(4) 0.6259(7)
O5_2 O 0.3488(3) 0.3677(4) 1.3741(7)
O6F O 0.1718(2) 0.2722(4) 1.7339(6)
O6F_2 O 0.1718(2) 0.2722(4) 0.7339(6)
O6_2 O 0.3282(2) 0.2278(4) 1.2661(6)
O7D O -0.0852(3) -0.1691(4) 1.1258(7)
O7F O 0.4148(3) 0.3309(4) 1.1258(7)
O8D O -0.1292(3) -0.1120(4) 0.8953(7)
O8F O 0.3708(3) 0.3880(4) 0.8953(7)
O9 O 0.5000 0.1373(18) 0.2500
loop_
_geom_bond_atom_site_label_1
_geom_bond_atom_site_label_2
_geom_bond_site_symmetry_1
_geom_bond_site_symmetry_2
Ho1 O1 1_555 1_555
C1 C2 1_555 1_555
C2 H1 1_555 1_555
H2 C2 1_555 1_555
C3 C2 1_555 1_555
H3 C3 1_555 1_555
H4 C3 1_555 1_555
C4 C3 1_555 1_555
H5 C4 1_555 1_555
H6 C4 1_555 1_555
C5 C4 1_555 1_555
H7 C5 1_555 1_555
H8 C5 1_555 1_555
C6 C5 1_555 1_555
C7 C8 1_555 1_555
C8 H9 1_555 1_555
H10 C8 1_555 1_555
C9 C8 1_555 1_555
H11 C9 1_555 1_555
H12 C9 1_555 1_555
O2 Ho1 1_555 1_555
O3 Ho1 1_555 1_555
O4 Ho1 1_555 1_555
O5 C6 1_555 1_555
O6 C6 1_555 1_555
O7 Ho1 1_555 1_555
O8 Ho1 1_555 1_555
Ho1F O3 1_555 1_555
Ho1F_2 O5 1_555 1_555
Ho1D O7D 1_555 1_555
Ho1_2 O5F 1_555 1_555
C1F C2F 1_555 1_555
C2F H1F 1_555 1_555
H2F C2F 1_555 1_555
C3F C2F 1_555 1_555
H3F C3F 1_555 1_555
H4F C3F 1_555 1_555
C4F C3F 1_555 1_555
H5F C4F 1_555 1_555
H6F C4F 1_555 1_555
C5F C4F 1_555 1_555
H7F C5F 1_555 1_555
H8F C5F 1_555 1_555
C6F C5F 1_555 1_555
C7D C8D 1_555 1_555
C8D H9D 1_555 1_555
H10D C8D 1_555 1_555
C9D C9 1_555 1_555
H11D C9D 1_555 1_555
H12D C9D 1_555 1_555
O1F Ho1F 1_555 1_555
O2F Ho1F 1_555 1_555
O3F Ho1 1_555 1_555
O4F Ho1F 1_555 1_555
O5F C6F 1_555 1_555
O5F_2 Ho1 1_555 1_555
O5_2 Ho1F 1_555 1_555
O6F Ho1_2 1_555 1_555
O6F_2 Ho1 1_555 1_555
O6_2 Ho1F 1_555 1_555
O7D C7D 1_555 1_555
O7F Ho1F 1_555 1_555
O8D Ho1D 1_555 1_555
O8F Ho1F 1_555 1_555
C1 O2 1_555 1_555
C1 O3 1_555 1_555
C7 O7 1_555 1_555
C7 O8 1_555 1_555
O6 Ho1F_2 1_555 1_555
Ho1F O3F 1_555 1_555
C1F O2F 1_555 1_555
C1F O3F 1_555 1_555
C6F O6F 1_555 1_555
C7D O8D 1_555 1_555
C8D C9D 1_555 1_555

#END
