
#######################################################################
#
#                 Cambridge Crystallographic Data Centre
#                                CCDC 
#
#######################################################################
#
# If this CIF has been generated from an entry in the Cambridge 
# Structural Database, then it will include bibliographic, chemical, 
# crystal, experimental, refinement or atomic coordinate data resulting 
# from the CCDC's data processing and validation procedures.
#
#######################################################################

data_LETXOZ
_symmetry_cell_setting           monoclinic
_symmetry_space_group_name_H-M   'C 2/c'
_symmetry_Int_Tables_number      15
_space_group_name_Hall           '-C 2yn'
loop_
_symmetry_equiv_pos_site_id
_symmetry_equiv_pos_as_xyz
1 x,y,z
2 -x,y,1/2-z
3 1/2+x,1/2+y,z
4 1/2-x,1/2+y,1/2-z
5 -x,-y,-z
6 x,-y,1/2+z
7 1/2-x,1/2-y,-z
8 1/2+x,1/2-y,1/2+z
_cell_length_a                   23.524(12)
_cell_length_b                   14.014(7)
_cell_length_c                   8.820(5)
_cell_angle_alpha                90
_cell_angle_beta                 104.220(8)
_cell_angle_gamma                90
_cell_volume                     2818.56
loop_
_atom_site_label
_atom_site_type_symbol
_atom_site_fract_x
_atom_site_fract_y
_atom_site_fract_z
Dy1 Dy 0.188403(14) 0.14357(2) 0.41712(4)
C1 C 0.3474(4) 0.1295(6) 0.0561(11)
H1 H 0.3054 0.1306 0.0454
H2 H 0.3545 0.0929 -0.0308
C2 C 0.3057(4) 0.1425(5) 0.3623(11)
C3 C 0.0808(4) 0.1371(6) 0.5063(13)
O1 O 0.2554(2) 0.0849(4) 0.6409(7)
C4 C 0.3676(4) 0.1297(6) 0.3524(10)
H3 H 0.3884 0.0943 0.4438
H4 H 0.3857 0.1922 0.3571
C5 C 0.3762(4) 0.0784(6) 0.2070(10)
H5 H 0.4178 0.0724 0.2143
H6 H 0.3600 0.0145 0.2040
C6 C 0.3473(3) 0.2773(6) -0.1108(10)
C7 C 0.3683(5) 0.2311(6) 0.0440(10)
H7 H 0.4108 0.2310 0.0708
H8 H 0.3559 0.2696 0.1214
C8 C 0.0246(6) 0.1317(7) 0.5475(18)
H9 H 0.0303 0.1508 0.6559
H10 H -0.0020 0.1772 0.4839
O2 O 0.1625(3) -0.0183(4) 0.3807(7)
C9 C -0.0020(7) 0.0410(9) 0.528(2)
H11 H -0.0026 0.0255 0.6349
H12 H -0.0423 0.0575 0.4780
O3 O 0.3484(3) 0.3663(4) -0.1251(8)
O4 O 0.3291(3) 0.2277(4) -0.2348(6)
O5 O 0.2915(2) 0.2160(4) 0.4282(6)
O6 O 0.2670(3) 0.0825(4) 0.3097(8)
O7 O 0.0844(3) 0.1689(5) 0.3739(8)
O8 O 0.1291(3) 0.1122(5) 0.6045(7)
Dy1F Dy 0.311597(14) 0.35643(2) -0.41712(4)
Dy1D Dy -0.188403(14) -0.14357(2) 0.58288(4)
Dy1F_2 Dy 0.311597(14) 0.35643(2) 0.58288(4)
Dy1_2 Dy 0.188403(14) 0.14357(2) 1.41712(4)
C1F C 0.1526(4) 0.3705(6) 0.9439(11)
H1F H 0.1946 0.3694 0.9546
H2F H 0.1455 0.4071 1.0308
C2F C 0.1943(4) 0.3575(5) 0.6377(11)
C3D C -0.0808(4) -0.1371(6) 0.4937(13)
O1F O 0.2446(2) 0.4151(4) 0.3591(7)
C4F C 0.1324(4) 0.3703(6) 0.6476(10)
H3F H 0.1116 0.4057 0.5562
H4F H 0.1143 0.3078 0.6429
C5F C 0.1238(4) 0.4216(6) 0.7930(10)
H5F H 0.0822 0.4276 0.7857
H6F H 0.1400 0.4855 0.7960
C6F C 0.1527(3) 0.2227(6) 1.1108(10)
C7F C 0.1317(5) 0.2689(6) 0.9560(10)
H7F H 0.0892 0.2690 0.9292
H8F H 0.1441 0.2304 0.8786
C8D C -0.0246(6) -0.1317(7) 0.4525(18)
H9D H -0.0303 -0.1508 0.3441
H10D H 0.0020 -0.1772 0.5161
O2F O 0.3375(3) 0.5183(4) 0.6193(7)
C9D C 0.0020(7) -0.0410(9) 0.472(2)
H11D H 0.0026 -0.0255 0.3651
H12D H 0.0423 -0.0575 0.5220
O3F O 0.1516(3) 0.1337(4) 0.1251(8)
O3_2 O 0.3484(3) 0.3663(4) 0.8749(8)
O3F_2 O 0.1516(3) 0.1337(4) 1.1251(8)
O4F O 0.1709(3) 0.2723(4) 0.2348(6)
O4_2 O 0.3291(3) 0.2277(4) 0.7652(6)
O4F_2 O 0.1709(3) 0.2723(4) 1.2348(6)
O5F O 0.2085(2) 0.2840(4) 0.5718(6)
O6F O 0.2330(3) 0.4175(4) 0.6903(8)
O7D O -0.0844(3) -0.1689(5) 0.6261(8)
O7F O 0.4156(3) 0.3311(5) 0.6261(8)
O8D O -0.1291(3) -0.1122(5) 0.3955(7)
O8F O 0.3709(3) 0.3878(5) 0.3955(7)
O9 O 0.0000 0.3649(19) 0.2500
loop_
_geom_bond_atom_site_label_1
_geom_bond_atom_site_label_2
_geom_bond_site_symmetry_1
_geom_bond_site_symmetry_2
Dy1 O1 1_555 1_555
C1 H1 1_555 1_555
H2 C1 1_555 1_555
C2 C4 1_555 1_555
C3 C8 1_555 1_555
C4 H3 1_555 1_555
H4 C4 1_555 1_555
C5 C1 1_555 1_555
H5 C5 1_555 1_555
H6 C5 1_555 1_555
C6 C7 1_555 1_555
C7 C1 1_555 1_555
H7 C7 1_555 1_555
H8 C7 1_555 1_555
C8 H9 1_555 1_555
H10 C8 1_555 1_555
O2 Dy1 1_555 1_555
C9 C8 1_555 1_555
H11 C9 1_555 1_555
H12 C9 1_555 1_555
O3 C6 1_555 1_555
O4 C6 1_555 1_555
O5 Dy1 1_555 1_555
O6 Dy1 1_555 1_555
O7 Dy1 1_555 1_555
O8 Dy1 1_555 1_555
Dy1F O3 1_555 1_555
Dy1D O7D 1_555 1_555
Dy1F_2 O5 1_555 1_555
Dy1_2 O3F_2 1_555 1_555
C1F H1F 1_555 1_555
H2F C1F 1_555 1_555
C2F C4F 1_555 1_555
C3D C8D 1_555 1_555
O1F Dy1F_2 1_555 1_555
C4F H3F 1_555 1_555
H4F C4F 1_555 1_555
C5F C1F 1_555 1_555
H5F C5F 1_555 1_555
H6F C5F 1_555 1_555
C6F C7F 1_555 1_555
C7F C1F 1_555 1_555
H7F C7F 1_555 1_555
H8F C7F 1_555 1_555
C8D H9D 1_555 1_555
H10D C8D 1_555 1_555
O2F Dy1F_2 1_555 1_555
C9D C9 1_555 1_555
H11D C9D 1_555 1_555
H12D C9D 1_555 1_555
O3F Dy1 1_555 1_555
O3_2 Dy1F_2 1_555 1_555
O3F_2 C6F 1_555 1_555
O4F Dy1 1_555 1_555
O4_2 Dy1F_2 1_555 1_555
O4F_2 Dy1_2 1_555 1_555
O5F Dy1 1_555 1_555
O6F Dy1F_2 1_555 1_555
O7D C3D 1_555 1_555
O7F Dy1F_2 1_555 1_555
O8D Dy1D 1_555 1_555
O8F Dy1F_2 1_555 1_555
C2 O5 1_555 1_555
C2 O6 1_555 1_555
C3 O7 1_555 1_555
C3 O8 1_555 1_555
C4 C5 1_555 1_555
O4 Dy1F 1_555 1_555
Dy1F_2 O5F 1_555 1_555
C2F O5F 1_555 1_555
C2F O6F 1_555 1_555
C3D O8D 1_555 1_555
C4F C5F 1_555 1_555
C6F O4F_2 1_555 1_555
C8D C9D 1_555 1_555

#END
