
#######################################################################
#
#                 Cambridge Crystallographic Data Centre
#                                CCDC 
#
#######################################################################
#
# If this CIF has been generated from an entry in the Cambridge 
# Structural Database, then it will include bibliographic, chemical, 
# crystal, experimental, refinement or atomic coordinate data resulting 
# from the CCDC's data processing and validation procedures.
#
#######################################################################

data_LETYCU10
_symmetry_cell_setting           orthorhombic
_symmetry_space_group_name_H-M   'P 21 21 21'
_symmetry_Int_Tables_number      19
_space_group_name_Hall           'P 2ac 2ab'
loop_
_symmetry_equiv_pos_site_id
_symmetry_equiv_pos_as_xyz
1 x,y,z
2 1/2+x,1/2-y,-z
3 -x,1/2+y,1/2-z
4 1/2-x,-y,1/2+z
_cell_length_a                   15.545(1)
_cell_length_b                   16.121(2)
_cell_length_c                   8.6838(5)
_cell_angle_alpha                90
_cell_angle_beta                 90
_cell_angle_gamma                90
_cell_volume                     2176.17
loop_
_atom_site_label
_atom_site_type_symbol
_atom_site_fract_x
_atom_site_fract_y
_atom_site_fract_z
Cu1 Cu 0.76326 0.08295 0.17368
C1 C 0.87880 0.20420 0.04010
C2 C 0.81490 0.20580 0.55290
C3 C 0.73940 0.18040 0.62300
C4 C 0.66790 0.23180 0.63120
C5 C 0.67160 0.31070 0.56660
C6 C 0.74560 0.33650 0.49280
C7 C 0.81680 0.28460 0.48650
C8 C 0.91710 0.17080 0.18930
C9 C 0.88920 0.08530 0.41470
C10 C 0.82210 0.01990 0.45180
C11 C 0.85290 0.29550 0.06540
C12 C 0.83760 0.34500 -0.08290
C13 C 0.79390 0.42740 -0.04420
C14 C 0.92120 0.36090 -0.16850
C15 C 0.89380 0.15120 0.54540
H1 H 0.92000 0.19200 -0.02700
H2 H 0.96200 0.39300 -0.08600
H3 H 0.95200 0.31500 -0.19700
H4 H 0.90000 0.11800 0.63500
H5 H 0.95000 0.19000 0.52000
H6 H 0.74000 0.13200 0.67200
H7 H 0.61500 0.21200 0.68100
H8 H 0.74600 0.39400 0.45700
H9 H 0.86900 0.30700 0.43300
H10 H 0.94900 0.05700 0.41300
H11 H 0.82000 0.12300 -0.09800
H12 H 0.75900 0.19800 -0.03600
H13 H 0.63400 0.19700 0.19100
H14 H 0.66100 0.19100 0.33400
H15 H 0.56100 0.35000 0.64700
H16 H 0.89900 0.32600 0.12200
H17 H 0.79800 0.29400 0.15100
H18 H 0.79300 0.31600 -0.15100
H19 H 0.78300 0.45100 -0.13100
H20 H 0.84000 0.45500 0.03200
H21 H 0.73500 0.42500 0.01000
H22 H 0.91500 0.39600 -0.25300
N1 N 0.80130 0.15440 -0.00260
N2 N 0.86730 0.12070 0.26760
O1 O 0.99200 0.19460 0.22700
O2 O 0.82930 -0.01780 0.57780
O3 O 0.76110 0.00750 0.35710
O4 O 0.65180 0.16190 0.26460
O5 O 0.60300 0.36390 0.57090
O2C O 0.67070 0.01780 0.07780
Cu1C Cu 0.73674 -0.08295 0.67368
C16 C 0.96020 -0.04470 0.01310
C17 C 1.03960 -0.01750 0.09390
H23 H 0.97300 -0.10100 -0.02100
H24 H 0.91600 -0.03200 0.08700
H25 H 1.05000 -0.05600 0.20200
H26 H 1.08300 -0.02200 0.02500
H27 H 1.03600 0.04300 0.12800
H28 H 0.92000 -0.02100 -0.17900
O6 O 0.94520 0.00600 -0.11890
H29 H 1.08500 0.17800 -0.08800
H30 H 1.08400 0.23200 0.05800
O7 O 1.11510 0.23050 -0.02370
H31 H 1.08700 0.10400 -0.33600
H32 H 1.03700 0.06900 -0.19100
O8 O 1.08230 0.10310 -0.23070
loop_
_geom_bond_atom_site_label_1
_geom_bond_atom_site_label_2
_geom_bond_site_symmetry_1
_geom_bond_site_symmetry_2
Cu1 N1 1_555 1_555
C1 C8 1_555 1_555
C2 C3 1_555 1_555
C3 C4 1_555 1_555
C4 C5 1_555 1_555
C5 C6 1_555 1_555
C6 C7 1_555 1_555
C7 C2 1_555 1_555
C8 N2 1_555 1_555
C9 C10 1_555 1_555
C10 O2 1_555 1_555
C11 C1 1_555 1_555
C12 C11 1_555 1_555
C13 C12 1_555 1_555
C14 C12 1_555 1_555
C15 C2 1_555 1_555
H1 C1 1_555 1_555
H2 C14 1_555 1_555
H3 C14 1_555 1_555
H4 C15 1_555 1_555
H5 C15 1_555 1_555
H6 C3 1_555 1_555
H7 C4 1_555 1_555
H8 C6 1_555 1_555
H9 C7 1_555 1_555
H10 C9 1_555 1_555
H11 N1 1_555 1_555
H12 N1 1_555 1_555
H13 O4 1_555 1_555
H14 O4 1_555 1_555
H15 O5 1_555 1_555
H16 C11 1_555 1_555
H17 C11 1_555 1_555
H18 C12 1_555 1_555
H19 C13 1_555 1_555
H20 C13 1_555 1_555
H21 C13 1_555 1_555
H22 C14 1_555 1_555
N1 C1 1_555 1_555
N2 Cu1 1_555 1_555
O1 C8 1_555 1_555
O2 Cu1C 1_555 1_555
O3 Cu1 1_555 1_555
O4 Cu1 1_555 1_555
O5 C5 1_555 1_555
C16 C17 1_555 1_555
C17 H25 1_555 1_555
H23 C16 1_555 1_555
H24 C16 1_555 1_555
H26 C17 1_555 1_555
H27 C17 1_555 1_555
H28 O6 1_555 1_555
O6 C16 1_555 1_555
H29 O7 1_555 1_555
H30 O7 1_555 1_555
H31 O8 1_555 1_555
H32 O8 1_555 1_555
O2C Cu1 1_555 1_555
C9 C15 1_555 1_555
C9 N2 1_555 1_555
C10 O3 1_555 1_555

#END
