
#######################################################################
#
#                 Cambridge Crystallographic Data Centre
#                                CCDC 
#
#######################################################################
#
# If this CIF has been generated from an entry in the Cambridge 
# Structural Database, then it will include bibliographic, chemical, 
# crystal, experimental, refinement or atomic coordinate data resulting 
# from the CCDC's data processing and validation procedures.
#
#######################################################################

data_LETZIV
_symmetry_cell_setting           monoclinic
_symmetry_space_group_name_H-M   'P 21/n'
_symmetry_Int_Tables_number      14
_space_group_name_Hall           '-P 2yn'
loop_
_symmetry_equiv_pos_site_id
_symmetry_equiv_pos_as_xyz
1 x,y,z
2 1/2-x,1/2+y,1/2-z
3 -x,-y,-z
4 1/2+x,1/2-y,1/2+z
_cell_length_a                   11.102(9)
_cell_length_b                   15.440(13)
_cell_length_c                   13.376(11)
_cell_angle_alpha                90
_cell_angle_beta                 91.38
_cell_angle_gamma                90
_cell_volume                     2292.18
loop_
_atom_site_label
_atom_site_type_symbol
_atom_site_fract_x
_atom_site_fract_y
_atom_site_fract_z
Co1 Co -0.24177(6) -0.32752(4) -0.01552(5)
I1 I 0.05475(4) -0.12119(3) -0.16022(3)
I2 I 0.31686(3) 0.04512(2) 0.19153(3)
I3 I -0.01840(3) -0.25899(2) 0.25356(2)
C1 C -0.0556(5) -0.2357(3) 0.0175(4)
C2 C 0.0349(4) -0.1700(3) 0.0565(3)
C3 C 0.0903(4) -0.1118(3) -0.0054(3)
C4 C 0.1690(4) -0.0472(3) 0.0305(4)
C5 C 0.1952(4) -0.0484(3) 0.1333(4)
C6 C 0.1461(4) -0.1083(3) 0.1985(3)
C7 C 0.0632(4) -0.1681(3) 0.1588(3)
C8 C 0.1780(4) -0.1089(3) 0.3090(3)
C9 C -0.4539(5) -0.2198(4) 0.0237(4)
H1 H -0.4031 -0.1764 0.0014
C10 C -0.5714(6) -0.1993(4) 0.0415(6)
H2 H -0.5990 -0.1428 0.0335
C11 C -0.6477(6) -0.2639(5) 0.0716(6)
H3 H -0.7289 -0.2524 0.0806
C12 C -0.6034(6) -0.3448(4) 0.0878(5)
H4 H -0.6535 -0.3888 0.1098
C13 C -0.4809(4) -0.3615(3) 0.0711(3)
C14 C -0.3215(5) -0.4756(3) 0.1054(3)
C15 C -0.3102(6) -0.5568(4) 0.1546(5)
H5 H -0.3780 -0.5856 0.1767
C16 C -0.1991(6) -0.5915(4) 0.1687(6)
H6 H -0.1911 -0.6457 0.1986
C17 C -0.0986(6) -0.5480(4) 0.1397(5)
H7 H -0.0221 -0.5708 0.1518
C18 C -0.1137(5) -0.4696(3) 0.0923(4)
H8 H -0.0456 -0.4399 0.0720
N1 N -0.4083(4) -0.3001(2) 0.0367(3)
N2 N -0.4374(4) -0.4432(3) 0.0927(3)
H9 H -0.4928 -0.4815 0.0996
N3 N -0.2246(4) -0.4333(2) 0.0737(3)
N4 N 0.2205(4) 0.0123(3) -0.0320(4)
H10 H 0.2702 0.0501 -0.0081
H11 H 0.2029 0.0117 -0.0950
O1 O -0.1658(3) -0.2133(2) 0.0215(3)
O2 O -0.0235(4) -0.3064(2) -0.0131(3)
O3 O 0.2580(3) -0.1619(2) 0.3372(3)
O4 O 0.1224(3) -0.0611(2) 0.3655(3)
Co1C Co 0.25823(6) -0.17248(4) 0.48448(5)
O3C O -0.2420(3) -0.3381(2) -0.1628(3)
loop_
_geom_bond_atom_site_label_1
_geom_bond_atom_site_label_2
_geom_bond_site_symmetry_1
_geom_bond_site_symmetry_2
Co1 N1 1_555 1_555
I1 C3 1_555 1_555
I2 C5 1_555 1_555
I3 C7 1_555 1_555
C1 C2 1_555 1_555
C2 C3 1_555 1_555
C3 C4 1_555 1_555
C4 C5 1_555 1_555
C5 C6 1_555 1_555
C6 C7 1_555 1_555
C7 C2 1_555 1_555
C8 C6 1_555 1_555
C9 H1 1_555 1_555
C10 C9 1_555 1_555
H2 C10 1_555 1_555
C11 C10 1_555 1_555
H3 C11 1_555 1_555
C12 C11 1_555 1_555
H4 C12 1_555 1_555
C13 C12 1_555 1_555
C14 C15 1_555 1_555
C15 H5 1_555 1_555
C16 C15 1_555 1_555
H6 C16 1_555 1_555
C17 C16 1_555 1_555
H7 C17 1_555 1_555
C18 C17 1_555 1_555
H8 C18 1_555 1_555
N1 C9 1_555 1_555
N2 C13 1_555 1_555
H9 N2 1_555 1_555
N3 Co1 1_555 1_555
N4 C4 1_555 1_555
H10 N4 1_555 1_555
H11 N4 1_555 1_555
O1 Co1 1_555 1_555
O2 Co1 1_555 1_555
O3 C8 1_555 1_555
O4 C8 1_555 1_555
Co1C O3 1_555 1_555
O3C Co1 1_555 1_555
C1 O1 1_555 1_555
C1 O2 1_555 1_555
C13 N1 1_555 1_555
C14 N2 1_555 1_555
C14 N3 1_555 1_555
C18 N3 1_555 1_555

#END
