
#######################################################################
#
#                 Cambridge Crystallographic Data Centre
#                                CCDC 
#
#######################################################################
#
# If this CIF has been generated from an entry in the Cambridge 
# Structural Database, then it will include bibliographic, chemical, 
# crystal, experimental, refinement or atomic coordinate data resulting 
# from the CCDC's data processing and validation procedures.
#
#######################################################################

data_LEVCIA
_symmetry_cell_setting           triclinic
_symmetry_space_group_name_H-M   'P -1'
_symmetry_Int_Tables_number      2
_space_group_name_Hall           '-P 1'
loop_
_symmetry_equiv_pos_site_id
_symmetry_equiv_pos_as_xyz
1 x,y,z
2 -x,-y,-z
_cell_length_a                   16.348(3)
_cell_length_b                   16.635(3)
_cell_length_c                   20.293(4)
_cell_angle_alpha                89.29(3)
_cell_angle_beta                 87.12(3)
_cell_angle_gamma                68.48(3)
_cell_volume                     5127.36
loop_
_atom_site_label
_atom_site_type_symbol
_atom_site_fract_x
_atom_site_fract_y
_atom_site_fract_z
Cd1 Cd 0.56863(8) 0.92611(6) 0.06188(4)
Cd2 Cd 1.40574(7) 0.44905(6) 1.00272(3)
Ni1 Ni 1.06601(5) 0.60940(5) 0.48394(4)
Ni2 Ni 0.60357(5) 0.57109(6) -0.46062(4)
O1 O 1.0799(3) 0.6655(3) 0.5584(2)
O2 O 0.6868(15) 0.9647(12) 0.0145(6)
O3 O 0.9924(3) 0.7161(3) 0.4570(2)
O4 O 0.4583(9) 0.8841(9) 0.0978(5)
O5 O 0.6669(5) 0.8331(4) 0.1304(3)
O6 O 1.2918(8) 0.4046(13) 1.0445(6)
O7 O 0.5969(6) 0.9653(5) 0.1667(3)
O8 O 1.3407(5) 0.4485(6) 0.9013(4)
O9 O 1.3176(6) 0.5667(6) 0.9441(4)
O10 O 0.5643(3) 0.6784(3) -0.4222(2)
O11 O 0.5735(3) 0.6297(3) -0.5386(2)
O12 O 0.6006(6) 0.8082(5) -0.0252(3)
O13 O 0.5258(7) 0.9399(7) -0.0442(4)
O14 O 0.4566(7) 0.5389(7) -0.9421(5)
O15 O 0.4458(8) 0.4408(7) -0.8868(3)
N1 N 1.1395(3) 0.5018(3) 0.5102(3)
N2 N 1.0514(3) 0.5519(3) 0.4111(3)
N3 N 0.6480(4) 0.5134(4) -0.3831(3)
N4 N 0.6357(3) 0.4621(3) -0.4975(3)
C1 C 1.1231(4) 0.6329(4) 0.6116(3)
C2 C 1.1697(4) 0.5444(4) 0.6162(3)
C3 C 1.2144(4) 0.5118(5) 0.6753(4)
H1 H 1.2453 0.4527 0.6790
C4 C 1.2129(5) 0.5661(6) 0.7276(4)
C5 C 1.1680(5) 0.6530(6) 0.7178(4)
H2 H 1.1671 0.6899 0.7521
C6 C 1.1251(4) 0.6904(4) 0.6637(3)
C7 C 1.1760(4) 0.4834(4) 0.5656(4)
H3 H 1.2092 0.4256 0.5736
C8 C 1.1571(6) 0.4321(5) 0.4615(4)
C9 C 1.2125(5) 0.3442(4) 0.4696(4)
H4 H 1.2450 0.3252 0.5069
C10 C 1.2152(7) 0.2876(5) 0.4174(4)
H5 H 1.2514 0.2297 0.4201
C11 C 1.1653(7) 0.3159(5) 0.3621(5)
H6 H 1.1697 0.2760 0.3291
C12 C 1.1077(5) 0.4034(4) 0.3539(4)
H7 H 1.0751 0.4227 0.3167
C13 C 1.1048(6) 0.4598(5) 0.4093(4)
C14 C 0.9405(4) 0.6754(4) 0.3614(3)
C15 C 0.8848(5) 0.6949(5) 0.3081(4)
H8 H 0.8854 0.6515 0.2794
C16 C 0.8292(5) 0.7793(5) 0.2990(3)
C17 C 0.8305(5) 0.8433(5) 0.3437(3)
H9 H 0.7919 0.9000 0.3388
C18 C 0.8876(4) 0.8237(4) 0.3942(4)
C19 C 0.9408(4) 0.7378(4) 0.4058(3)
C20 C 0.8850(6) 0.8986(4) 0.4411(4)
C21 C 0.8529(8) 0.8854(6) 0.5105(5)
H10 H 0.7943 0.8852 0.5095
H11 H 0.8527 0.9315 0.5386
H12 H 0.8914 0.8312 0.5272
C22 C 0.8231(6) 0.9855(5) 0.4162(5)
H13 H 0.7636 0.9876 0.4200
H14 H 0.8387 0.9924 0.3708
H15 H 0.8281 1.0313 0.4421
C23 C 0.9811(6) 0.9013(5) 0.4355(5)
H16 H 0.9834 0.9467 0.4632
H17 H 0.9953 0.9120 0.3905
H18 H 1.0229 0.8470 0.4493
C24 C 0.7701(6) 0.8015(5) 0.2426(4)
H19 H 0.7781 0.7573 0.2124
C25 C 0.7101(6) 0.8736(6) 0.2311(4)
H20 H 0.7002 0.9180 0.2615
C26 C 0.6537(7) 0.8931(7) 0.1722(4)
C27 C 1.0799(6) 0.7872(5) 0.6598(4)
C28 C 0.9749(6) 0.8085(6) 0.6613(5)
H21 H 0.9570 0.7872 0.7015
H22 H 0.9612 0.7811 0.6242
H23 H 0.9441 0.8699 0.6589
C29 C 1.0910(8) 0.8363(6) 0.7199(5)
H24 H 1.1519 0.8284 0.7226
H25 H 1.0714 0.8146 0.7592
H26 H 1.0566 0.8967 0.7156
C30 C 1.1081(7) 0.8215(5) 0.5964(4)
H27 H 1.1703 0.8092 0.5956
H28 H 1.0771 0.8829 0.5942
H29 H 1.0946 0.7942 0.5592
C31 C 1.2563(5) 0.5277(6) 0.7891(4)
H30 H 1.2832 0.4678 0.7901
C32 C 1.2603(6) 0.5692(7) 0.8407(4)
H31 H 1.2322 0.6290 0.8410
C33 C 1.3067(8) 0.5278(9) 0.8994(6)
C34 C 0.5593(9) 0.8654(9) -0.0643(5)
C35 C 0.5475(7) 0.8453(8) -0.1308(5)
H32 H 0.5141 0.8911 -0.1566
C36 C 0.5790(7) 0.7690(7) -0.1588(5)
H33 H 0.6076 0.7231 -0.1314
C37 C 0.5750(6) 0.7462(7) -0.2288(4)
C38 C 0.6111(5) 0.6606(6) -0.2487(4)
H34 H 0.6389 0.6186 -0.2181
C39 C 0.6068(5) 0.6358(6) -0.3130(4)
C40 C 0.6450(5) 0.5461(6) -0.3264(4)
H35 H 0.6692 0.5091 -0.2918
C41 C 0.5665(4) 0.6976(5) -0.3601(4)
C42 C 0.5269(5) 0.7896(5) -0.3410(4)
C43 C 0.5331(5) 0.8082(6) -0.2752(4)
H36 H 0.5077 0.8655 -0.2613
C44 C 0.4780(6) 0.8591(5) -0.3893(4)
C45 C 0.4358(7) 0.9495(6) -0.3576(5)
H37 H 0.4808 0.9663 -0.3404
H38 H 0.3948 0.9483 -0.3224
H39 H 0.4054 0.9904 -0.3903
C46 C 0.4016(6) 0.8382(6) -0.4178(5)
H40 H 0.4247 0.7824 -0.4388
H41 H 0.3727 0.8812 -0.4496
H42 H 0.3600 0.8380 -0.3827
C47 C 0.5417(6) 0.8659(5) -0.4462(4)
H43 H 0.5887 0.8791 -0.4284
H44 H 0.5103 0.9109 -0.4757
H45 H 0.5657 0.8120 -0.4697
C48 C 0.6884(7) 0.4175(6) -0.3928(4)
C49 C 0.7323(6) 0.3621(5) -0.3421(4)
H46 H 0.7381 0.3809 -0.3002
C50 C 0.7666(8) 0.2747(6) -0.3626(5)
H47 H 0.7964 0.2345 -0.3314
C51 C 0.7607(7) 0.2425(6) -0.4238(5)
H48 H 0.7849 0.1837 -0.4335
C52 C 0.7162(6) 0.3036(5) -0.4701(4)
H49 H 0.7099 0.2851 -0.5120
C53 C 0.6810(7) 0.3912(5) -0.4551(4)
C54 C 0.6126(4) 0.4485(5) -0.5562(4)
H50 H 0.6201 0.3917 -0.5660
C55 C 0.5777(4) 0.5097(5) -0.6060(4)
C56 C 0.5650(4) 0.5971(5) -0.5965(4)
C57 C 0.5416(5) 0.6552(5) -0.6516(4)
C58 C 0.5245(5) 0.6215(6) -0.7083(4)
H51 H 0.5084 0.6583 -0.7442
C59 C 0.5292(5) 0.5358(6) -0.7170(4)
C60 C 0.5390(5) 0.7477(5) -0.6480(4)
C61 C 0.4654(6) 0.8010(5) -0.5974(5)
H52 H 0.4095 0.8022 -0.6109
H53 H 0.4644 0.8590 -0.5952
H54 H 0.4766 0.7749 -0.5547
C62 C 0.6283(5) 0.7464(5) -0.6264(4)
H55 H 0.6738 0.7143 -0.6581
H56 H 0.6400 0.7195 -0.5840
H57 H 0.6267 0.8046 -0.6237
C63 C 0.5239(7) 0.7932(6) -0.7151(4)
H58 H 0.5694 0.7607 -0.7466
H59 H 0.5250 0.8502 -0.7106
H60 H 0.4677 0.7973 -0.7300
C64 C 0.5032(6) 0.5053(6) -0.7750(4)
H61 H 0.5026 0.4496 -0.7724
C65 C 0.4820(7) 0.5415(8) -0.8267(5)
H62 H 0.4783 0.5986 -0.8283
C66 C 0.4605(8) 0.5069(9) -0.8893(6)
C67 C 0.5581(5) 0.4807(6) -0.6638(4)
H63 H 0.5640 0.4231 -0.6675
C68 C 0.9979(5) 0.5850(4) 0.3657(3)
H64 H 0.9954 0.5480 0.3325
O16 O 1.4817(7) 0.3113(5) 0.9893(4)
Cd1A Cd 0.43137(8) 1.07389(6) -0.06188(4)
Cd2_2 Cd 0.40574(7) 0.44905(6) -0.99728(3)
Cd2A Cd 0.59426(7) 0.55095(6) -1.00272(3)
O13A O 0.4742(7) 1.0601(7) 0.0442(4)
O14_2 O 1.4566(7) 0.5389(7) 1.0579(5)
O14A O 1.5434(7) 0.4611(7) 0.9421(5)
O15_2 O 1.4458(8) 0.4408(7) 1.1132(3)
loop_
_geom_bond_atom_site_label_1
_geom_bond_atom_site_label_2
_geom_bond_site_symmetry_1
_geom_bond_site_symmetry_2
Cd1 O2 1_555 1_555
Cd2 O6 1_555 1_555
Ni1 O1 1_555 1_555
Ni2 O10 1_555 1_555
O1 C1 1_555 1_555
O3 Ni1 1_555 1_555
O4 Cd1 1_555 1_555
O5 Cd1 1_555 1_555
O7 Cd1 1_555 1_555
O8 Cd2 1_555 1_555
O9 Cd2 1_555 1_555
O10 C41 1_555 1_555
O11 Ni2 1_555 1_555
O12 Cd1 1_555 1_555
O13 Cd1 1_555 1_555
O14 C66 1_555 1_555
O15 C66 1_555 1_555
N1 Ni1 1_555 1_555
N2 Ni1 1_555 1_555
N3 Ni2 1_555 1_555
N4 Ni2 1_555 1_555
C1 C2 1_555 1_555
C2 C3 1_555 1_555
C3 H1 1_555 1_555
C4 C3 1_555 1_555
C5 C4 1_555 1_555
H2 C5 1_555 1_555
C6 C1 1_555 1_555
C7 N1 1_555 1_555
H3 C7 1_555 1_555
C8 N1 1_555 1_555
C9 C8 1_555 1_555
H4 C9 1_555 1_555
C10 C9 1_555 1_555
H5 C10 1_555 1_555
C11 C10 1_555 1_555
H6 C11 1_555 1_555
C12 C11 1_555 1_555
H7 C12 1_555 1_555
C13 N2 1_555 1_555
C14 C15 1_555 1_555
C15 H8 1_555 1_555
C16 C15 1_555 1_555
C17 C16 1_555 1_555
H9 C17 1_555 1_555
C18 C17 1_555 1_555
C19 O3 1_555 1_555
C20 C18 1_555 1_555
C21 C20 1_555 1_555
H10 C21 1_555 1_555
H11 C21 1_555 1_555
H12 C21 1_555 1_555
C22 C20 1_555 1_555
H13 C22 1_555 1_555
H14 C22 1_555 1_555
H15 C22 1_555 1_555
C23 C20 1_555 1_555
H16 C23 1_555 1_555
H17 C23 1_555 1_555
H18 C23 1_555 1_555
C24 C16 1_555 1_555
H19 C24 1_555 1_555
C25 C24 1_555 1_555
H20 C25 1_555 1_555
C26 O5 1_555 1_555
C27 C6 1_555 1_555
C28 C27 1_555 1_555
H21 C28 1_555 1_555
H22 C28 1_555 1_555
H23 C28 1_555 1_555
C29 C27 1_555 1_555
H24 C29 1_555 1_555
H25 C29 1_555 1_555
H26 C29 1_555 1_555
C30 C27 1_555 1_555
H27 C30 1_555 1_555
H28 C30 1_555 1_555
H29 C30 1_555 1_555
C31 C4 1_555 1_555
H30 C31 1_555 1_555
C32 C31 1_555 1_555
H31 C32 1_555 1_555
C33 O8 1_555 1_555
C34 O12 1_555 1_555
C35 C34 1_555 1_555
H32 C35 1_555 1_555
C36 C35 1_555 1_555
H33 C36 1_555 1_555
C37 C36 1_555 1_555
C38 C37 1_555 1_555
H34 C38 1_555 1_555
C39 C38 1_555 1_555
C40 N3 1_555 1_555
H35 C40 1_555 1_555
C41 C39 1_555 1_555
C42 C41 1_555 1_555
C43 C37 1_555 1_555
H36 C43 1_555 1_555
C44 C42 1_555 1_555
C45 C44 1_555 1_555
H37 C45 1_555 1_555
H38 C45 1_555 1_555
H39 C45 1_555 1_555
C46 C44 1_555 1_555
H40 C46 1_555 1_555
H41 C46 1_555 1_555
H42 C46 1_555 1_555
C47 C44 1_555 1_555
H43 C47 1_555 1_555
H44 C47 1_555 1_555
H45 C47 1_555 1_555
C48 N3 1_555 1_555
C49 C48 1_555 1_555
H46 C49 1_555 1_555
C50 C49 1_555 1_555
H47 C50 1_555 1_555
C51 C50 1_555 1_555
H48 C51 1_555 1_555
C52 C51 1_555 1_555
H49 C52 1_555 1_555
C53 N4 1_555 1_555
C54 N4 1_555 1_555
H50 C54 1_555 1_555
C55 C54 1_555 1_555
C56 O11 1_555 1_555
C57 C56 1_555 1_555
C58 C57 1_555 1_555
H51 C58 1_555 1_555
C59 C58 1_555 1_555
C60 C57 1_555 1_555
C61 C60 1_555 1_555
H52 C61 1_555 1_555
H53 C61 1_555 1_555
H54 C61 1_555 1_555
C62 C60 1_555 1_555
H55 C62 1_555 1_555
H56 C62 1_555 1_555
H57 C62 1_555 1_555
C63 C60 1_555 1_555
H58 C63 1_555 1_555
H59 C63 1_555 1_555
H60 C63 1_555 1_555
C64 C59 1_555 1_555
H61 C64 1_555 1_555
C65 C64 1_555 1_555
H62 C65 1_555 1_555
C66 C65 1_555 1_555
C67 C55 1_555 1_555
H63 C67 1_555 1_555
C68 N2 1_555 1_555
H64 C68 1_555 1_555
O16 Cd2 1_555 1_555
Cd1A O13 1_555 1_555
Cd2_2 O14 1_555 1_555
Cd2A O14 1_555 1_555
O13A Cd1 1_555 1_555
O14_2 Cd2 1_555 1_555
O14A Cd2 1_555 1_555
O15_2 Cd2 1_555 1_555
O7 C26 1_555 1_555
O9 C33 1_555 1_555
O13 C34 1_555 1_555
O15 Cd2_2 1_555 1_555
C2 C7 1_555 1_555
C5 C6 1_555 1_555
C8 C13 1_555 1_555
C12 C13 1_555 1_555
C14 C19 1_555 1_555
C14 C68 1_555 1_555
C18 C19 1_555 1_555
C25 C26 1_555 1_555
C32 C33 1_555 1_555
C39 C40 1_555 1_555
C42 C43 1_555 1_555
C48 C53 1_555 1_555
C52 C53 1_555 1_555
C55 C56 1_555 1_555
C59 C67 1_555 1_555
Cd1A O13A 1_555 1_555

#END
