
#######################################################################
#
#                 Cambridge Crystallographic Data Centre
#                                CCDC 
#
#######################################################################
#
# If this CIF has been generated from an entry in the Cambridge 
# Structural Database, then it will include bibliographic, chemical, 
# crystal, experimental, refinement or atomic coordinate data resulting 
# from the CCDC's data processing and validation procedures.
#
#######################################################################

data_LEVPEJ
_symmetry_cell_setting           rhombohedral
_symmetry_space_group_name_H-M   'R -3'
_symmetry_Int_Tables_number      148
_space_group_name_Hall           '-R 3'
loop_
_symmetry_equiv_pos_site_id
_symmetry_equiv_pos_as_xyz
1 x,y,z
2 -y,x-y,z
3 -x+y,-x,z
4 2/3+x,1/3+y,1/3+z
5 2/3-y,1/3+x-y,1/3+z
6 2/3-x+y,1/3-x,1/3+z
7 1/3+x,2/3+y,2/3+z
8 1/3-y,2/3+x-y,2/3+z
9 1/3-x+y,2/3-x,2/3+z
10 -x,-y,-z
11 y,-x+y,-z
12 x-y,x,-z
13 1/3-x,2/3-y,2/3-z
14 1/3+y,2/3-x+y,2/3-z
15 1/3+x-y,2/3+x,2/3-z
16 2/3-x,1/3-y,1/3-z
17 2/3+y,1/3-x+y,1/3-z
18 2/3+x-y,1/3+x,1/3-z
_cell_length_a                   31.8565(9)
_cell_length_b                   31.8565(9)
_cell_length_c                   12.6269(6)
_cell_angle_alpha                90
_cell_angle_beta                 90
_cell_angle_gamma                120
_cell_volume                     11097.5
loop_
_atom_site_label
_atom_site_type_symbol
_atom_site_fract_x
_atom_site_fract_y
_atom_site_fract_z
Zn1 Zn 0.70923(2) 0.01641(2) 0.68810(5)
O1 O 0.69989(14) 0.00249(14) 0.5343(3)
O2 O 0.70834(15) 0.00848(15) 0.3614(3)
C1 C 0.77704(19) 0.0572(2) 0.4657(4)
H1 H 0.7883 0.0703 0.5342
C2 C 0.7258(2) 0.0211(2) 0.4529(4)
C3 C 0.6980(2) -0.0582(2) 0.8437(5)
H2 H 0.7104 -0.0315 0.8910
C4 C 0.6894(2) -0.1022(2) 0.8812(5)
H3 H 0.6961 -0.1052 0.9532
C5 C 0.6710(2) -0.1429(2) 0.8146(4)
C6 C 0.6625(2) -0.1347(2) 0.7113(5)
H4 H 0.6497 -0.1608 0.6622
C7 C 0.6722(2) -0.0900(2) 0.6783(5)
H5 H 0.6663 -0.0859 0.6063
C8 C 0.8846(3) 0.1287(4) 0.4785(6)
H6 H 0.8663 0.1241 0.5411
C9 C 0.9339(3) 0.1623(3) 0.4773(7)
C10 C 0.9608(3) 0.1690(4) 0.3857(9)
H7 H 0.9945 0.1919 0.3848
C11 C 0.9383(3) 0.1422(5) 0.2953(8)
H8 H 0.9567 0.1468 0.2327
C12 C 0.8890(3) 0.1087(5) 0.2966(7)
H9 H 0.8736 0.0903 0.2348
C13 C 0.8621(3) 0.1019(4) 0.3882(6)
O3 O 0.9562(3) 0.1882(4) 0.5627(8)
H10 H 0.9357 0.1888 0.6036
C14 C 0.8091(3) 0.0727(6) 0.3851(7)
H11 H 0.7954 0.0634 0.3164
C15 C 0.9439(2) 0.2005(2) 0.8304(7)
H12 H 0.9296 0.2138 0.7859
C16 C 0.9905(3) 0.2299(3) 0.8697(9)
H13 H 1.0079 0.2633 0.8520
C17 C 1.0115(2) 0.2103(4) 0.9349(8)
H14 H 1.0433 0.2304 0.9617
C18 C 0.9860(2) 0.1614(4) 0.9607(6)
C19 C 0.9395(2) 0.1320(3) 0.9214(6)
H15 H 0.9221 0.0985 0.9391
C20 C 0.9185(2) 0.1515(2) 0.8563(5)
O4 O 1.0071(3) 0.1427(4) 1.0215(8)
H16 H 1.0159 0.1269 0.9836
C21 C 0.86728(19) 0.1174(2) 0.8162(4)
H17 H 0.8540 0.0836 0.8272
C22 C 0.8400(2) 0.1323(2) 0.7665(4)
H18 H 0.8523 0.1658 0.7533
C23 C 0.7913(2) 0.0969(2) 0.7330(4)
O5 O 0.7730(2) 0.0527(2) 0.7519(6)
O6 O 0.7679(2) 0.1132(3) 0.6869(6)
N1 N 0.68952(13) -0.05157(14) 0.7428(3)
Zn1H Zn 0.64051(3) -0.04256(2) 0.35477(5)
Zn1L Zn 0.62410(2) -0.34974(2) 0.97857(5)
Zn1K Zn 0.69282(3) -0.29077(2) 1.31190(5)
O1L O 0.63344(14) -0.33582(14) 1.1324(3)
O2D O 0.65819(15) 0.03319(21) 0.6947(3)
O2P O 0.67515(15) -0.36653(21) 0.9719(3)
O2L O 0.62499(15) -0.34181(15) 1.3053(3)
C1L C 0.55629(19) -0.3905(2) 1.2010(4)
H1L H 0.5450 -0.4036 1.1325
C2L C 0.6075(2) -0.3544(2) 1.2138(4)
C3L C 0.6353(2) -0.2751(2) 0.8230(5)
H2L H 0.6229 -0.3018 0.7757
C4L C 0.6439(2) -0.2311(2) 0.7855(5)
H3L H 0.6372 -0.2281 0.7135
C5L C 0.6623(2) -0.1904(2) 0.8521(4)
C6L C 0.6708(2) -0.1986(2) 0.9554(5)
H4L H 0.6836 -0.1725 1.0045
C7L C 0.6611(2) -0.2433(2) 0.9884(5)
H5L H 0.6670 -0.2474 1.0604
C8L C 0.4487(3) -0.4620(4) 1.1882(6)
H6L H 0.4670 -0.4574 1.1256
C9L C 0.3994(3) -0.4956(3) 1.1894(7)
C10L C 0.3725(3) -0.5023(4) 1.2810(9)
H7L H 0.3388 -0.5252 1.2819
C11L C 0.3950(3) -0.4755(5) 1.3714(8)
H8L H 0.3766 -0.4801 1.4340
C12L C 0.4443(3) -0.4420(5) 1.3701(7)
H9L H 0.4597 -0.4236 1.4319
C13L C 0.4712(3) -0.4352(4) 1.2785(6)
O3L O 0.3771(3) -0.5215(4) 1.1040(8)
H10L H 0.3976 -0.5221 1.0631
C14L C 0.5242(3) -0.4060(6) 1.2816(7)
H11L H 0.5379 -0.3967 1.3503
C15L C 0.3894(2) -0.5338(2) 0.8363(7)
H12L H 0.4037 -0.5471 0.8808
C16L C 0.3428(3) -0.5632(3) 0.7970(9)
H13L H 0.3254 -0.5966 0.8147
C17L C 0.3218(2) -0.5436(4) 0.7318(8)
H14L H 0.2900 -0.5637 0.7050
C18L C 0.3473(2) -0.4947(4) 0.7060(6)
C19L C 0.3938(2) -0.4653(3) 0.7453(6)
H15L H 0.4112 -0.4318 0.7276
C20L C 0.4148(2) -0.4848(2) 0.8104(5)
O4L O 0.3262(3) -0.4760(4) 0.6452(8)
H16L H 0.3174 -0.4602 0.6831
C21L C 0.46605(19) -0.4507(2) 0.8505(4)
H17L H 0.4793 -0.4169 0.8395
C22L C 0.4933(2) -0.4656(2) 0.9002(4)
H18L H 0.4810 -0.4991 0.9134
C23L C 0.5420(2) -0.4302(2) 0.9337(4)
O5L O 0.5603(2) -0.3860(2) 0.9148(6)
O6L O 0.5654(2) -0.4465(3) 0.9798(6)
N1L N 0.64381(13) -0.28176(14) 0.9239(3)
O11 O 0.9409(3) 0.0380(4) 0.1653(5)
O14 O 0.93024(14) 0.0669(2) 0.6281(4)
C40 C 0.93679(16) 0.0255(2) 0.6521(5)
C24? C 0.8912(2) 0.1074(4) 0.3089(6)
H19? H 0.8775 0.0882 0.2472
C25? C 0.9407(2) 0.1399(4) 0.3139(8)
C26? C 0.9606(3) 0.1680(4) 0.4041(8)
H20? H 0.9945 0.1902 0.4076
C27? C 0.9310(4) 0.1635(4) 0.4893(7)
H21? H 0.9446 0.1827 0.5510
C28? C 0.8815(4) 0.1310(4) 0.4843(6)
H22? H 0.8613 0.1279 0.5425
C29? C 0.8616(3) 0.1029(4) 0.3941(6)
O7? O 0.9676(3) 0.1528(5) 0.2260(9)
H23? H 0.9500 0.1490 0.1733
C30? C 0.8108(3) 0.0640(5) 0.3931(8)
H24? H 0.8009 0.0415 0.3362
C31? C 0.94930(18) 0.19348(19) 0.8463(5)
H25? H 0.9352 0.2028 0.7914
C32? C 0.99431(19) 0.2269(2) 0.8873(6)
H26? H 1.0110 0.2591 0.8604
C33? C 1.01490(19) 0.2133(3) 0.9677(6)
H27? H 1.0457 0.2362 0.9958
C34? C 0.99047(18) 0.1663(3) 1.0071(5)
C35? C 0.94546(16) 0.1328(2) 0.9661(5)
H28? H 0.9288 0.1007 0.9930
C36? C 0.92487(16) 0.1464(2) 0.8857(4)
O8? O 1.01263(19) 0.1526(3) 1.0773(6)
H29? H 0.9928 0.1250 1.1009
C37? C 0.87540(14) 0.10796(16) 0.8447(4)
H30? H 0.8646 0.0752 0.8629
C38? C 0.84595(15) 0.11675(13) 0.7850(4)
H31? H 0.8557 0.1487 0.7618
C39? C 0.79875(14) 0.07638(13) 0.7566(3)
O9? O 0.78765(13) 0.03346(13) 0.7749(3)
O10? O 0.77057(16) 0.08635(14) 0.7097(4)
O12? O 0.9710(3) 0.0592(4) 0.1174(5)
O13? O 0.9433(3) 0.0133(4) 0.1011(6)
C41? C 0.94529(17) 0.0328(3) 0.5743(5)
loop_
_geom_bond_atom_site_label_1
_geom_bond_atom_site_label_2
_geom_bond_site_symmetry_1
_geom_bond_site_symmetry_2
Zn1 O1 1_555 1_555
O1 C2 1_555 1_555
O2 C2 1_555 1_555
C1 H1 1_555 1_555
C2 C1 1_555 1_555
C3 H2 1_555 1_555
C4 C3 1_555 1_555
H3 C4 1_555 1_555
C5 C4 1_555 1_555
C6 C5 1_555 1_555
H4 C6 1_555 1_555
C7 C6 1_555 1_555
H5 C7 1_555 1_555
C8 H6 1_555 1_555
C9 C8 1_555 1_555
C10 C9 1_555 1_555
H7 C10 1_555 1_555
C11 C10 1_555 1_555
H8 C11 1_555 1_555
C12 C11 1_555 1_555
H9 C12 1_555 1_555
C13 C8 1_555 1_555
O3 C9 1_555 1_555
H10 O3 1_555 1_555
C14 C1 1_555 1_555
H11 C14 1_555 1_555
C15 H12 1_555 1_555
C16 C15 1_555 1_555
H13 C16 1_555 1_555
C17 C16 1_555 1_555
H14 C17 1_555 1_555
C18 C17 1_555 1_555
C19 C18 1_555 1_555
H15 C19 1_555 1_555
C20 C15 1_555 1_555
O4 C18 1_555 1_555
H16 O4 1_555 1_555
C21 C20 1_555 1_555
H17 C21 1_555 1_555
C22 C21 1_555 1_555
H18 C22 1_555 1_555
C23 C22 1_555 1_555
O5 Zn1 1_555 1_555
O6 C23 1_555 1_555
N1 Zn1 1_555 1_555
O14 C40 1_555 1_555
Zn1H O2 1_555 1_555
Zn1L O1L 1_555 1_555
Zn1K O2L 1_555 1_555
O1L C2L 1_555 1_555
O2D Zn1 1_555 1_555
O2P Zn1L 1_555 1_555
O2L C2L 1_555 1_555
C1L H1L 1_555 1_555
C2L C1L 1_555 1_555
C3L H2L 1_555 1_555
C4L C3L 1_555 1_555
H3L C4L 1_555 1_555
C5L C5 1_555 1_555
C6L C5L 1_555 1_555
H4L C6L 1_555 1_555
C7L C6L 1_555 1_555
H5L C7L 1_555 1_555
C8L H6L 1_555 1_555
C9L C8L 1_555 1_555
C10L C9L 1_555 1_555
H7L C10L 1_555 1_555
C11L C10L 1_555 1_555
H8L C11L 1_555 1_555
C12L C11L 1_555 1_555
H9L C12L 1_555 1_555
C13L C8L 1_555 1_555
O3L C9L 1_555 1_555
H10L O3L 1_555 1_555
C14L C1L 1_555 1_555
H11L C14L 1_555 1_555
C15L H12L 1_555 1_555
C16L C15L 1_555 1_555
H13L C16L 1_555 1_555
C17L C16L 1_555 1_555
H14L C17L 1_555 1_555
C18L C17L 1_555 1_555
C19L C18L 1_555 1_555
H15L C19L 1_555 1_555
C20L C15L 1_555 1_555
O4L C18L 1_555 1_555
H16L O4L 1_555 1_555
C21L C20L 1_555 1_555
H17L C21L 1_555 1_555
C22L C21L 1_555 1_555
H18L C22L 1_555 1_555
C23L C22L 1_555 1_555
O5L Zn1L 1_555 1_555
O6L C23L 1_555 1_555
N1L Zn1L 1_555 1_555
C3 N1 1_555 1_555
C7 N1 1_555 1_555
C12 C13 1_555 1_555
C13 C14 1_555 1_555
C19 C20 1_555 1_555
C23 O5 1_555 1_555
C3L N1L 1_555 1_555
C4L C5L 1_555 1_555
C7L N1L 1_555 1_555
C12L C13L 1_555 1_555
C13L C14L 1_555 1_555
C19L C20L 1_555 1_555
C23L O5L 1_555 1_555

#END
