
#######################################################################
#
#                 Cambridge Crystallographic Data Centre
#                                CCDC 
#
#######################################################################
#
# If this CIF has been generated from an entry in the Cambridge 
# Structural Database, then it will include bibliographic, chemical, 
# crystal, experimental, refinement or atomic coordinate data resulting 
# from the CCDC's data processing and validation procedures.
#
#######################################################################

data_LEVRUB
_symmetry_cell_setting           monoclinic
_symmetry_space_group_name_H-M   'C 2/c'
_symmetry_Int_Tables_number      15
_space_group_name_Hall           '-C 2yn'
loop_
_symmetry_equiv_pos_site_id
_symmetry_equiv_pos_as_xyz
1 x,y,z
2 -x,y,1/2-z
3 1/2+x,1/2+y,z
4 1/2-x,1/2+y,1/2-z
5 -x,-y,-z
6 x,-y,1/2+z
7 1/2-x,1/2-y,-z
8 1/2+x,1/2-y,1/2+z
_cell_length_a                   27.191(2)
_cell_length_b                   18.5355(14)
_cell_length_c                   16.3259(12)
_cell_angle_alpha                90
_cell_angle_beta                 126.0310(10)
_cell_angle_gamma                90
_cell_volume                     6654.16
loop_
_atom_site_label
_atom_site_type_symbol
_atom_site_fract_x
_atom_site_fract_y
_atom_site_fract_z
Cu1 Cu 0.279303(11) 0.984938(12) 0.814907(17)
S1 S -0.00635(3) 1.02289(4) 0.65065(4)
S2 S 0.53539(3) 1.05311(6) 0.86551(7)
N1 N 0.31171(7) 0.91533(9) 0.95368(12)
C1 C 0.31477(9) 0.94310(11) 1.03243(14)
H1 H 0.3136 0.9935 1.0371
C2 C 0.31957(9) 0.90174(11) 1.10678(15)
H2 H 0.3208 0.9237 1.1598
C3 C 0.32259(9) 0.82687(11) 1.10263(14)
C4 C 0.32252(10) 0.79760(11) 1.02413(15)
H3 H 0.3265 0.7476 1.0201
C5 C 0.31648(10) 0.84373(11) 0.95204(15)
H4 H 0.3157 0.8234 0.8985
N2 N 0.18992(8) 0.98704(9) 0.76545(12)
C6 C 0.17627(10) 1.00140(11) 0.83054(15)
H5 H 0.2084 1.0049 0.8998
C7 C 0.11814(10) 1.01130(12) 0.80175(16)
H6 H 0.1110 1.0201 0.8506
C8 C 0.06997(10) 1.00814(13) 0.69971(16)
C9 C 0.08367(10) 0.99209(14) 0.63225(17)
H7 H 0.0523 0.9880 0.5627
C10 C 0.14313(10) 0.98214(13) 0.66742(16)
H8 H 0.1514 0.9714 0.6204
C11 C 0.0000 1.07412(18) 0.7500
H9 H -0.0358 1.1054 0.7194
N3 N 0.36307(8) 1.00126(9) 0.84100(13)
C12 C 0.46909(10) 1.03109(16) 0.85751(18)
C13 C 0.43801(12) 0.96754(16) 0.8153(2)
H10 H 0.4523 0.9331 0.7917
C14 C 0.44775(11) 1.07806(14) 0.8951(2)
H11 H 0.4687 1.1212 0.9267
C15 C 0.39546(10) 1.06144(13) 0.88607(18)
H12 H 0.3817 1.0939 0.9128
C16 C 0.38552(11) 0.95498(13) 0.80804(19)
H13 H 0.3645 0.9116 0.7784
C17 C 0.5000 1.1045(2) 0.7500
H14 H 0.4691 1.1358 0.7443
O1 O 0.29013(6) 1.07289(7) 0.88670(10)
O2 O 0.23175(9) 1.13454(8) 0.74194(11)
O3 O 0.39784(9) 1.31039(9) 1.22137(12)
H15 H 0.4254(16) 1.3032(19) 1.297(3)
O4 O 0.39019(10) 1.19129(10) 1.21742(13)
C18 C 0.27958(9) 1.32757(10) 0.90973(14)
C19 C 0.26286(9) 1.26499(10) 0.85214(14)
H16 H 0.2382 1.2682 0.7811
C20 C 0.28221(9) 1.19787(10) 0.89836(14)
C21 C 0.31888(9) 1.19320(10) 1.00332(15)
H17 H 0.3320 1.1479 1.0349
C22 C 0.33626(9) 1.25554(10) 1.06189(14)
C23 C 0.31598(9) 1.32265(10) 1.01481(14)
H18 H 0.3269 1.3647 1.0542
C24 C 0.26046(9) 1.40059(10) 0.86020(14)
C25 C 0.37726(10) 1.24845(12) 1.17471(15)
C26 C 0.26524(9) 1.13081(10) 0.83509(15)
O6 O 0.23721(6) 1.39951(7) 0.76534(10)
O7 O 0.26914(8) 1.45524(8) 0.91052(11)
S3 S 0.42610(3) 0.68068(4) 1.24169(4)
S4 S 0.32156(3) 0.77808(3) 1.19379(4)
C27 C 0.34700(11) 0.68940(12) 1.18985(16)
H21 H 0.3381 0.6563 1.2264
H22 H 0.3229 0.6735 1.1191
C28 C 0.46383(11) 0.68802(13) 1.37269(16)
C29 C 0.43717(12) 0.70505(14) 1.42108(17)
H23 H 0.3952 0.7143 1.3835
C30 C 0.47350(13) 0.70814(15) 1.52564(18)
H24 H 0.4551 0.7198 1.5579
C31 C 0.55831(13) 0.67824(17) 1.53651(19)
H25 H 0.6003 0.6687 1.5763
C32 C 0.52601(12) 0.67368(16) 1.43307(19)
H26 H 0.5457 0.6610 1.4033
N4 N 0.53302(10) 0.69551(12) 1.58319(14)
Cu1A Cu -0.279303(11) 0.984938(12) 0.685093(17)
Cu1C Cu 0.220697(11) 1.484938(12) 0.685093(17)
Cu1A_2 Cu 0.720697(11) 0.984938(12) 0.685093(17)
Cu1C_2 Cu 0.220697(11) 0.484938(12) 0.685093(17)
S1A S 0.00635(3) 1.02289(4) 0.84935(4)
S2A S 0.46461(3) 1.05311(6) 0.63449(7)
N1A N -0.31171(7) 0.91533(9) 0.54632(12)
C1A C -0.31477(9) 0.94310(11) 0.46757(14)
H1A H -0.3136 0.9935 0.4629
C2A C -0.31957(9) 0.90174(11) 0.39322(15)
H2A H -0.3208 0.9237 0.3402
C3A C -0.32259(9) 0.82687(11) 0.39737(14)
C4A C -0.32252(10) 0.79760(11) 0.47587(15)
H3A H -0.3265 0.7476 0.4799
C5A C -0.31648(10) 0.84373(11) 0.54796(15)
H4A H -0.3157 0.8234 0.6015
N2A N -0.18992(8) 0.98704(9) 0.73455(12)
C6A C -0.17627(10) 1.00140(11) 0.66946(15)
H5A H -0.2084 1.0049 0.6002
C7A C -0.11814(10) 1.01130(12) 0.69825(16)
H6A H -0.1110 1.0201 0.6494
C8A C -0.06997(10) 1.00814(13) 0.80029(16)
C9A C -0.08367(10) 0.99209(14) 0.86775(17)
H7A H -0.0523 0.9880 0.9373
C10A C -0.14313(10) 0.98214(13) 0.83258(16)
H8A H -0.1514 0.9714 0.8796
H9A H 0.0358 1.1054 0.7806
N3A N 0.63693(8) 1.00126(9) 0.65900(13)
N3A_2 N -0.36307(8) 1.00126(9) 0.65900(13)
C12A C 0.53091(10) 1.03109(16) 0.64249(18)
C13A C 0.56199(12) 0.96754(16) 0.6847(2)
H10A H 0.5477 0.9331 0.7083
C14A C 0.55225(11) 1.07806(14) 0.6049(2)
H11A H 0.5313 1.1212 0.5733
C15A C 0.60454(10) 1.06144(13) 0.61393(18)
H12A H 0.6183 1.0939 0.5872
C16A C 0.61448(11) 0.95498(13) 0.69196(19)
H13A H 0.6355 0.9116 0.7216
H14A H 0.5309 1.1358 0.7557
O1C O 0.20987(6) 0.57289(7) 0.61330(10)
O1A O -0.29013(6) 1.07289(7) 0.61330(10)
O2C O 0.26825(9) 0.63454(8) 0.75806(11)
O3C O 0.10216(9) 0.81039(9) 0.27863(12)
H15C H 0.0746(16) 0.8032(19) 0.203(3)
O4C O 0.10981(10) 0.69129(10) 0.28258(13)
C18C C 0.22042(9) 0.82757(10) 0.59027(14)
C19C C 0.23714(9) 0.76499(10) 0.64786(14)
H16C H 0.2618 0.7682 0.7189
C20C C 0.21779(9) 0.69787(10) 0.60164(14)
C21C C 0.18112(9) 0.69320(10) 0.49668(15)
H17C H 0.1680 0.6479 0.4651
C22C C 0.16374(9) 0.75554(10) 0.43811(14)
C23C C 0.18402(9) 0.82265(10) 0.48519(14)
H18C H 0.1731 0.8647 0.4458
C24C C 0.23954(9) 0.90059(10) 0.63980(14)
C25C C 0.12274(10) 0.74845(12) 0.32529(15)
C26C C 0.23476(9) 0.63081(10) 0.66491(15)
O6C O 0.26279(6) 0.89951(7) 0.73466(10)
O6B O -0.26279(6) 0.89951(7) 0.76534(10)
O7C O 0.23086(8) 0.95524(8) 0.58948(11)
S3A S -0.42610(3) 0.68068(4) 0.25831(4)
S4A S -0.32156(3) 0.77808(3) 0.30621(4)
C27A C -0.34700(11) 0.68940(12) 0.31015(16)
H21A H -0.3381 0.6563 0.2736
H22A H -0.3229 0.6735 0.3809
C28A C -0.46383(11) 0.68802(13) 0.12731(16)
C29A C -0.43717(12) 0.70505(14) 0.07892(17)
H23A H -0.3952 0.7143 0.1165
C30A C -0.47350(13) 0.70814(15) -0.02564(18)
H24A H -0.4551 0.7198 -0.0579
C31A C -0.55831(13) 0.67824(17) -0.03651(19)
H25A H -0.6003 0.6687 -0.0763
C32A C -0.52601(12) 0.67368(16) 0.06693(19)
H26A H -0.5457 0.6610 0.0967
N4A N -0.53302(10) 0.69551(12) -0.08319(14)
O5 O 0.17685(10) 0.89481(14) 0.03284(16)
H19 H 0.1915(16) 0.8824(19) 0.088(3)
H20 H 0.1880(17) 0.933(2) 0.038(3)
loop_
_geom_bond_atom_site_label_1
_geom_bond_atom_site_label_2
_geom_bond_site_symmetry_1
_geom_bond_site_symmetry_2
Cu1 N1 1_555 1_555
S1 C8 1_555 1_555
S2 C12 1_555 1_555
N1 C1 1_555 1_555
C1 H1 1_555 1_555
C2 C1 1_555 1_555
H2 C2 1_555 1_555
C3 C2 1_555 1_555
C4 C3 1_555 1_555
H3 C4 1_555 1_555
C5 N1 1_555 1_555
H4 C5 1_555 1_555
N2 Cu1 1_555 1_555
C6 N2 1_555 1_555
H5 C6 1_555 1_555
C7 C6 1_555 1_555
H6 C7 1_555 1_555
C8 C7 1_555 1_555
C9 C8 1_555 1_555
H7 C9 1_555 1_555
C10 N2 1_555 1_555
H8 C10 1_555 1_555
C11 S1 1_555 1_555
H9 C11 1_555 1_555
N3 Cu1 1_555 1_555
C12 C13 1_555 1_555
C13 H10 1_555 1_555
C14 C12 1_555 1_555
H11 C14 1_555 1_555
C15 N3 1_555 1_555
H12 C15 1_555 1_555
C16 N3 1_555 1_555
H13 C16 1_555 1_555
C17 S2 1_555 1_555
H14 C17 1_555 1_555
O1 Cu1 1_555 1_555
O2 C26 1_555 1_555
O3 H15 1_555 1_555
O4 C25 1_555 1_555
C18 C19 1_555 1_555
C19 H16 1_555 1_555
C20 C19 1_555 1_555
C21 C20 1_555 1_555
H17 C21 1_555 1_555
C22 C21 1_555 1_555
C23 C18 1_555 1_555
H18 C23 1_555 1_555
C24 C18 1_555 1_555
C25 O3 1_555 1_555
O5 H19 1_555 1_555
H20 O5 1_555 1_555
C26 O1 1_555 1_555
O6 C24 1_555 1_555
O7 C24 1_555 1_555
S3 C27 1_555 1_555
S4 C3 1_555 1_555
C27 S4 1_555 1_555
H21 C27 1_555 1_555
H22 C27 1_555 1_555
C28 S3 1_555 1_555
C29 C28 1_555 1_555
H23 C29 1_555 1_555
C30 C29 1_555 1_555
H24 C30 1_555 1_555
C31 H25 1_555 1_555
C32 C28 1_555 1_555
H26 C32 1_555 1_555
N4 C30 1_555 1_555
Cu1A N1A 1_555 1_555
Cu1C O6 1_555 1_555
Cu1A_2 N3A 1_555 1_555
Cu1C_2 O1C 1_555 1_555
S1A C11 1_555 1_555
S2A C17 1_555 1_555
N1A C1A 1_555 1_555
C1A H1A 1_555 1_555
C2A C1A 1_555 1_555
H2A C2A 1_555 1_555
C3A C2A 1_555 1_555
C4A C3A 1_555 1_555
H3A C4A 1_555 1_555
C5A N1A 1_555 1_555
H4A C5A 1_555 1_555
N2A Cu1A 1_555 1_555
C6A N2A 1_555 1_555
H5A C6A 1_555 1_555
C7A C6A 1_555 1_555
H6A C7A 1_555 1_555
C8A S1A 1_555 1_555
C9A C8A 1_555 1_555
H7A C9A 1_555 1_555
C10A N2A 1_555 1_555
H8A C10A 1_555 1_555
H9A C11 1_555 1_555
N3A C15A 1_555 1_555
N3A_2 Cu1A 1_555 1_555
C12A S2A 1_555 1_555
C13A C12A 1_555 1_555
H10A C13A 1_555 1_555
C14A C12A 1_555 1_555
H11A C14A 1_555 1_555
C15A C14A 1_555 1_555
H12A C15A 1_555 1_555
C16A N3A 1_555 1_555
H13A C16A 1_555 1_555
H14A C17 1_555 1_555
O1C C26C 1_555 1_555
O1A Cu1A 1_555 1_555
O2C C26C 1_555 1_555
O3C H15C 1_555 1_555
O4C C25C 1_555 1_555
C18C C19C 1_555 1_555
C19C H16C 1_555 1_555
C20C C19C 1_555 1_555
C21C C20C 1_555 1_555
H17C C21C 1_555 1_555
C22C C21C 1_555 1_555
C23C C18C 1_555 1_555
H18C C23C 1_555 1_555
C24C C18C 1_555 1_555
C25C O3C 1_555 1_555
C26C C20C 1_555 1_555
O6C Cu1 1_555 1_555
O6B Cu1A 1_555 1_555
O7C C24C 1_555 1_555
S3A C27A 1_555 1_555
S4A C3A 1_555 1_555
C27A S4A 1_555 1_555
H21A C27A 1_555 1_555
H22A C27A 1_555 1_555
C28A S3A 1_555 1_555
C29A C28A 1_555 1_555
H23A C29A 1_555 1_555
C30A C29A 1_555 1_555
H24A C30A 1_555 1_555
C31A H25A 1_555 1_555
C32A C28A 1_555 1_555
H26A C32A 1_555 1_555
N4A C30A 1_555 1_555
C4 C5 1_555 1_555
C9 C10 1_555 1_555
C13 C16 1_555 1_555
C14 C15 1_555 1_555
C20 C26 1_555 1_555
C22 C23 1_555 1_555
C22 C25 1_555 1_555
C31 C32 1_555 1_555
C31 N4 1_555 1_555
C4A C5A 1_555 1_555
C7A C8A 1_555 1_555
C9A C10A 1_555 1_555
C13A C16A 1_555 1_555
C22C C23C 1_555 1_555
C22C C25C 1_555 1_555
C24C O6C 1_555 1_555
C31A C32A 1_555 1_555
C31A N4A 1_555 1_555

#END
