
#######################################################################
#
#                 Cambridge Crystallographic Data Centre
#                                CCDC 
#
#######################################################################
#
# If this CIF has been generated from an entry in the Cambridge 
# Structural Database, then it will include bibliographic, chemical, 
# crystal, experimental, refinement or atomic coordinate data resulting 
# from the CCDC's data processing and validation procedures.
#
#######################################################################

data_LEVZAO
_symmetry_cell_setting           triclinic
_symmetry_space_group_name_H-M   'P -1'
_symmetry_Int_Tables_number      2
_space_group_name_Hall           '-P 1'
loop_
_symmetry_equiv_pos_site_id
_symmetry_equiv_pos_as_xyz
1 x,y,z
2 -x,-y,-z
_cell_length_a                   11.5331(8)
_cell_length_b                   12.0447(8)
_cell_length_c                   14.4712(9)
_cell_angle_alpha                71.811(2)
_cell_angle_beta                 69.716(2)
_cell_angle_gamma                68.285(2)
_cell_volume                     1712.32
loop_
_atom_site_label
_atom_site_type_symbol
_atom_site_fract_x
_atom_site_fract_y
_atom_site_fract_z
Ni1 Ni 0.73469(9) 0.37853(7) 0.40502(6)
Ni2 Ni 0.24353(9) 0.88259(7) 0.03636(6)
C1 C 1.0394(7) 0.0505(6) 0.1653(5)
C2 C 0.8740(6) 0.2014(5) 0.2638(4)
H1 H 0.9438 0.2262 0.2586
C3 C 0.8983(7) 0.1084(6) 0.2162(5)
C4 C 0.7936(7) 0.0741(6) 0.2208(4)
C5 C 0.6718(7) 0.1328(6) 0.2735(5)
H2 H 0.6001 0.1113 0.2781
C6 C 0.6575(7) 0.2243(6) 0.3195(5)
H3 H 0.5748 0.2638 0.3538
C7 C 0.8049(7) -0.0332(6) 0.1788(5)
C8 C 0.5378(8) 0.2592(6) 0.5647(5)
H4 H 0.4769 0.3225 0.5352
C9 C 0.4959(8) 0.1715(7) 0.6425(6)
H5 H 0.4090 0.1747 0.6654
C10 C 0.5868(9) 0.0785(7) 0.6853(6)
H6 H 0.5616 0.0175 0.7385
C11 C 0.7143(8) 0.0752(7) 0.6501(6)
H7 H 0.7761 0.0121 0.6788
C12 C 0.7504(7) 0.1667(6) 0.5714(5)
C13 C 0.8832(7) 0.1758(6) 0.5306(5)
C14 C 0.9854(8) 0.0966(6) 0.5720(6)
H8 H 0.9735 0.0304 0.6246
C15 C 1.1020(8) 0.1182(7) 0.5340(6)
H9 H 1.1705 0.0672 0.5614
C16 C 1.1200(8) 0.2158(7) 0.4547(6)
H10 H 1.1993 0.2320 0.4284
C17 C 1.0161(8) 0.2877(7) 0.4162(6)
H11 H 1.0276 0.3526 0.3620
C18 C 0.5429(6) 0.5559(5) 0.2907(5)
C19 C 0.3820(7) 0.7080(6) 0.1972(5)
H12 H 0.4514 0.7355 0.1534
C20 C 0.4060(6) 0.6135(5) 0.2799(4)
C21 C 0.3006(7) 0.5746(6) 0.3456(4)
C22 C 0.1806(7) 0.6302(6) 0.3269(5)
H13 H 0.1093 0.6057 0.3705
C23 C 0.1671(7) 0.7240(6) 0.2416(5)
H14 H 0.0857 0.7617 0.2298
C24 C 0.3105(7) 0.4679(6) 0.4370(6)
C25 C 0.0613(8) 0.7549(7) 0.0353(5)
H15 H -0.0043 0.8159 0.0656
C26 C 0.0305(9) 0.6663(7) 0.0186(6)
H16 H -0.0553 0.6663 0.0378
C27 C 0.1257(10) 0.5768(8) -0.0265(7)
H17 H 0.1054 0.5152 -0.0380
C28 C 0.2513(9) 0.5785(7) -0.0548(6)
H18 H 0.3175 0.5184 -0.0859
C29 C 0.2779(7) 0.6704(6) -0.0364(5)
C30 C 0.4090(7) 0.6850(6) -0.0688(5)
C31 C 0.5177(9) 0.6128(7) -0.1269(6)
H19 H 0.5115 0.5472 -0.1440
C32 C 0.6351(9) 0.6391(8) -0.1593(7)
H20 H 0.7073 0.5926 -0.1992
C33 C 0.6427(8) 0.7339(8) -0.1316(6)
H21 H 0.7202 0.7529 -0.1515
C34 C 0.5317(8) 0.8014(7) -0.0729(5)
H22 H 0.5369 0.8659 -0.0537
N1 N 0.7570(6) 0.2583(5) 0.3169(4)
N2 N 0.6600(6) 0.2589(5) 0.5293(4)
N3 N 0.8997(6) 0.2695(5) 0.4524(4)
N4 N 0.2677(5) 0.7619(4) 0.1759(4)
N5 N 0.1835(6) 0.7574(5) 0.0093(4)
N6 N 0.4183(6) 0.7787(5) -0.0427(4)
O1 O 1.0601(4) -0.0236(4) 0.1113(3)
O2 O 1.1212(5) 0.0795(4) 0.1824(3)
O3 O 0.8245(6) -0.1341(4) 0.2361(4)
O4 O 0.7822(5) -0.0105(4) 0.0948(3)
O5 O 0.5594(4) 0.4795(4) 0.3690(3)
O6 O 0.6304(5) 0.5896(4) 0.2179(3)
O7 O 0.2876(5) 0.4891(4) 0.5220(3)
O8 O 0.3319(5) 0.3662(4) 0.4193(3)
O9 O 0.8428(5) 0.4719(4) 0.2771(4)
H23 H 0.838(7) 0.531(5) 0.310(5)
H24 H 0.772(5) 0.517(6) 0.250(5)
O10 O 0.3346(5) 0.9917(4) 0.0551(3)
H25 H 0.331(7) 1.061(4) 0.003(3)
H26 H 0.258(4) 1.020(6) 0.106(4)
Ni1A Ni 0.26531(9) 0.62147(7) 0.59498(6)
Ni2_2 Ni 1.24353(9) -0.11741(7) 0.03636(6)
Ni2A Ni 0.75647(9) 0.11741(7) -0.03636(6)
O1_2 O 0.0601(4) 0.9764(4) 0.1113(3)
O4A O 0.2178(5) 1.0105(4) -0.0948(3)
O7A O 0.7124(5) 0.5109(4) 0.4780(3)
O11 O 0.6960(7) 0.7978(5) 0.0961(5)
H27 H 0.676(9) 0.734(6) 0.151(5)
H28 H 0.738(8) 0.836(8) 0.117(7)
O12 O 0.8910(6) 0.6333(5) 0.3465(4)
H29 H 0.847(7) 0.712(4) 0.320(6)
H30 H 0.824(6) 0.626(7) 0.407(4)
loop_
_geom_bond_atom_site_label_1
_geom_bond_atom_site_label_2
_geom_bond_site_symmetry_1
_geom_bond_site_symmetry_2
Ni1 N1 1_555 1_555
Ni2 N4 1_555 1_555
C1 C3 1_555 1_555
C2 H1 1_555 1_555
C3 C2 1_555 1_555
C4 C3 1_555 1_555
C5 C4 1_555 1_555
H2 C5 1_555 1_555
C6 C5 1_555 1_555
H3 C6 1_555 1_555
C7 C4 1_555 1_555
C8 H4 1_555 1_555
C9 C8 1_555 1_555
H5 C9 1_555 1_555
C10 C9 1_555 1_555
H6 C10 1_555 1_555
C11 C10 1_555 1_555
H7 C11 1_555 1_555
C12 C11 1_555 1_555
C13 C12 1_555 1_555
C14 C13 1_555 1_555
H8 C14 1_555 1_555
C15 C14 1_555 1_555
H9 C15 1_555 1_555
C16 C15 1_555 1_555
H10 C16 1_555 1_555
C17 C16 1_555 1_555
H11 C17 1_555 1_555
C18 C20 1_555 1_555
C19 H12 1_555 1_555
C20 C19 1_555 1_555
C21 C20 1_555 1_555
C22 C21 1_555 1_555
H13 C22 1_555 1_555
C23 C22 1_555 1_555
H14 C23 1_555 1_555
C24 C21 1_555 1_555
C25 H15 1_555 1_555
C26 C25 1_555 1_555
H16 C26 1_555 1_555
C27 C26 1_555 1_555
H17 C27 1_555 1_555
C28 C27 1_555 1_555
H18 C28 1_555 1_555
C29 C28 1_555 1_555
C30 C29 1_555 1_555
C31 C30 1_555 1_555
H19 C31 1_555 1_555
C32 C31 1_555 1_555
H20 C32 1_555 1_555
C33 C32 1_555 1_555
H21 C33 1_555 1_555
C34 C33 1_555 1_555
H22 C34 1_555 1_555
N1 C2 1_555 1_555
N2 Ni1 1_555 1_555
N3 Ni1 1_555 1_555
N4 C19 1_555 1_555
N5 Ni2 1_555 1_555
N6 Ni2 1_555 1_555
O1 C1 1_555 1_555
O2 C1 1_555 1_555
O3 C7 1_555 1_555
O4 C7 1_555 1_555
O5 Ni1 1_555 1_555
O6 C18 1_555 1_555
O7 C24 1_555 1_555
O8 C24 1_555 1_555
O9 Ni1 1_555 1_555
H23 O9 1_555 1_555
H24 O9 1_555 1_555
O10 Ni2 1_555 1_555
H25 O10 1_555 1_555
H26 O10 1_555 1_555
O11 H27 1_555 1_555
H28 O11 1_555 1_555
O12 H29 1_555 1_555
H30 O12 1_555 1_555
Ni1A O7 1_555 1_555
Ni2_2 O1 1_555 1_555
Ni2A O4 1_555 1_555
O1_2 Ni2 1_555 1_555
O4A Ni2 1_555 1_555
O7A Ni1 1_555 1_555
C6 N1 1_555 1_555
C8 N2 1_555 1_555
C12 N2 1_555 1_555
C13 N3 1_555 1_555
C17 N3 1_555 1_555
C18 O5 1_555 1_555
C23 N4 1_555 1_555
C25 N5 1_555 1_555
C29 N5 1_555 1_555
C30 N6 1_555 1_555
C34 N6 1_555 1_555

#END
