
#######################################################################
#
#                 Cambridge Crystallographic Data Centre
#                                CCDC 
#
#######################################################################
#
# If this CIF has been generated from an entry in the Cambridge 
# Structural Database, then it will include bibliographic, chemical, 
# crystal, experimental, refinement or atomic coordinate data resulting 
# from the CCDC's data processing and validation procedures.
#
#######################################################################

data_LEWCAT
_symmetry_cell_setting           rhombohedral
_symmetry_space_group_name_H-M   'R 3 2'
_symmetry_Int_Tables_number      155
_space_group_name_Hall           'R 3 2"'
loop_
_symmetry_equiv_pos_site_id
_symmetry_equiv_pos_as_xyz
1 x,y,z
2 -y,x-y,z
3 -x+y,-x,z
4 y,x,-z
5 x-y,-y,-z
6 -x,-x+y,-z
7 2/3+x,1/3+y,1/3+z
8 2/3-y,1/3+x-y,1/3+z
9 2/3-x+y,1/3-x,1/3+z
10 2/3+y,1/3+x,1/3-z
11 2/3+x-y,1/3-y,1/3-z
12 2/3-x,1/3-x+y,1/3-z
13 1/3+x,2/3+y,2/3+z
14 1/3-y,2/3+x-y,2/3+z
15 1/3-x+y,2/3-x,2/3+z
16 1/3+y,2/3+x,2/3-z
17 1/3+x-y,2/3-y,2/3-z
18 1/3-x,2/3-x+y,2/3-z
_cell_length_a                   12.4387(9)
_cell_length_b                   12.4387(9)
_cell_length_c                   19.6706(15)
_cell_angle_alpha                90
_cell_angle_beta                 90
_cell_angle_gamma                120
_cell_volume                     2635.71
loop_
_atom_site_label
_atom_site_type_symbol
_atom_site_fract_x
_atom_site_fract_y
_atom_site_fract_z
C1 C 0.8888(6) 0.7753(5) 0.7791(2)
C2 C 0.9174(5) 0.7184(5) 0.7190(3)
C3 C 0.8325(8) 0.6667 0.6667
H1 H 0.7577 0.6667 0.6667
C4 C 1.0526(8) 0.6667 0.6667
Gd1 Gd 0.6667 0.84491(3) 0.8333
N1 N 1.0250(4) 0.7200(4) 0.7204(2)
O1 O 0.7960(5) 0.7893(6) 0.7740(2)
O2 O 0.9566(4) 0.8013(5) 0.8301(2)
O3 O 1.1531(5) 0.6667 0.6667
O4 O 0.7946(4) 0.8257(4) 0.9163(2)
H2 H 0.8670 0.8397 0.9110
H3 H 0.7990 0.8590 0.9534
C1J C 0.7802(8) 0.5580(5) 0.5542(2)
C2J C 0.8657(7) 0.6149(5) 0.6143(3)
N1J N 0.9717(6) 0.6133(4) 0.6129(2)
O1J O 0.6734(8) 0.5440(6) 0.5593(2)
O2J O 0.8220(6) 0.5320(5) 0.5032(2)
O4Q O 0.5387(4) 0.6978(6) 0.7504(2)
H2Q H 0.4663 0.6394 0.7557
H3Q H 0.5343 0.7267 0.7133
Gd1A Gd 1.15509(3) 0.82179(3) 0.8333
Gd1J Gd 0.48846(3) 0.48842(3) 0.5000
Gd1K Gd 1.0000 0.51154(3) 0.5000
N1B N 0.6950(6) 0.9750(4) 0.7204(2)
N1P N 0.6383(6) 0.9467(4) 0.9463(2)
O1Q O 0.5373(5) 0.6600(8) 0.8927(2)
O2B O 0.8447(6) 1.0434(4) 0.8301(2)
O2P O 0.4886(6) 0.8654(5) 0.8366(2)
O5 O 0.7362(18) 0.5421(19) 0.8973(13)
H4 H 0.7776 0.6190 0.8874
H5 H 0.7387 0.5014 0.8651
O6 O 0.6667 0.3333 0.9797(16)
H6? H 0.6491 0.3845 0.9609
H7? H 0.6061 0.2605 0.9881
loop_
_geom_bond_atom_site_label_1
_geom_bond_atom_site_label_2
_geom_bond_site_symmetry_1
_geom_bond_site_symmetry_2
C1 C2 1_555 1_555
C2 C3 1_555 1_555
C3 H1 1_555 1_555
C4 N1 1_555 1_555
Gd1 O1 1_555 1_555
N1 C2 1_555 1_555
O1 C1 1_555 1_555
O2 C1 1_555 1_555
O3 C4 1_555 1_555
O4 Gd1 1_555 1_555
H2 O4 1_555 1_555
H3 O4 1_555 1_555
O5 H4 1_555 1_555
H5 O5 1_555 1_555
C1J C2J 1_555 1_555
C2J C3 1_555 1_555
N1J C4 1_555 1_555
O1J C1J 1_555 1_555
O2J C1J 1_555 1_555
O4Q Gd1 1_555 1_555
H2Q O4Q 1_555 1_555
H3Q O4Q 1_555 1_555
Gd1A N1 1_555 1_555
Gd1J O1J 1_555 1_555
Gd1K N1J 1_555 1_555
N1B Gd1 1_555 1_555
N1P Gd1 1_555 1_555
O1Q Gd1 1_555 1_555
O2B Gd1 1_555 1_555
O2P Gd1 1_555 1_555
O2 Gd1A 1_555 1_555
C2J N1J 1_555 1_555
O2J Gd1K 1_555 1_555

#END
