
#######################################################################
#
#                 Cambridge Crystallographic Data Centre
#                                CCDC 
#
#######################################################################
#
# If this CIF has been generated from an entry in the Cambridge 
# Structural Database, then it will include bibliographic, chemical, 
# crystal, experimental, refinement or atomic coordinate data resulting 
# from the CCDC's data processing and validation procedures.
#
#######################################################################

data_LEWFOK
_symmetry_cell_setting           triclinic
_symmetry_space_group_name_H-M   'P -1'
_symmetry_Int_Tables_number      2
_space_group_name_Hall           '-P 1'
loop_
_symmetry_equiv_pos_site_id
_symmetry_equiv_pos_as_xyz
1 x,y,z
2 -x,-y,-z
_cell_length_a                   10.414(2)
_cell_length_b                   10.770(2)
_cell_length_c                   18.103(4)
_cell_angle_alpha                72.753(2)
_cell_angle_beta                 75.708(2)
_cell_angle_gamma                78.724(2)
_cell_volume                     1862.61
loop_
_atom_site_label
_atom_site_type_symbol
_atom_site_fract_x
_atom_site_fract_y
_atom_site_fract_z
Ni1 Ni -0.99257(3) 0.19905(3) 0.548607(17)
N1 N -1.1300(2) 0.31003(19) 0.61532(12)
C1 C -1.1231(3) 0.2926(3) 0.69125(16)
H1 H -1.0566 0.2300 0.7116
O1 O -0.97220(16) -0.02655(15) 0.36736(10)
O2 O -0.19723(17) -0.87608(17) 0.32766(11)
H2 H -0.2505 -0.9108 0.3134
H3 H -0.1553 -0.9367 0.3585
Ni2 Ni -0.07208(3) -0.73630(3) 0.263273(17)
C2 C -1.2089(3) 0.3623(3) 0.73982(16)
H4 H -1.2003 0.3471 0.7918
N2 N -1.3631(2) 0.5680(3) 0.81418(16)
H5 H -1.2843 0.5321 0.8215
O3 O -0.85136(16) 0.07939(16) 0.48769(10)
O4 O -0.21246(18) -0.65227(19) 0.19495(11)
H6 H -0.1879 -0.5879 0.1567
H7 H -0.2946 -0.6545 0.1974
N3 N -1.6500(2) 0.8746(2) 1.01900(14)
H8 H -1.6082 0.8969 1.0475
C3 C -1.3091(3) 0.4562(3) 0.71049(17)
O5 O -1.13312(16) 0.18368(16) 0.49143(10)
H9 H -1.1802 0.1218 0.5028
H10 H -1.1525 0.2392 0.4500
O6 O -0.66252(19) 0.1567(2) 0.47633(13)
N4 N -1.9782(2) 1.1476(2) 1.18613(12)
C4 C -1.3197(3) 0.4698(3) 0.63384(18)
H11 H -1.3880 0.5284 0.6128
O7 O -0.9421(2) 0.3569(2) 0.45360(13)
H12 H -0.8730 0.3501 0.4177
H13 H -0.9835 0.4338 0.4403
O8 O -0.91895(16) 0.17574(15) 0.32672(10)
O9 O -0.84261(17) 0.21730(16) 0.59980(10)
H14 H -0.7602 0.1940 0.5832
H15 H -0.8479 0.2701 0.6276
C5 C -1.2288(3) 0.3964(3) 0.58863(17)
H16 H -1.2371 0.4079 0.5370
O10 O -0.5441(2) -0.1450(2) 0.15549(12)
C6 C -1.4063(3) 0.5415(3) 0.75731(18)
O11 O -0.1329(2) -0.46517(17) 0.38587(11)
C7 C -1.4350(3) 0.6498(3) 0.86333(17)
O12 O -0.15222(18) -0.63263(15) 0.34528(10)
C8 C -1.4126(3) 0.6206(3) 0.93911(18)
H17 H -1.3495 0.5503 0.9559
O13 O 0.12256(18) -0.42423(19) 0.12036(11)
C9 C -1.4831(3) 0.6951(3) 0.99014(18)
H18 H -1.4684 0.6740 1.0413
O14 O 0.05181(17) -0.59869(17) 0.20864(12)
O15 O -1.5166(2) 0.5833(3) 0.74135(14)
C10 C -1.5755(3) 0.8011(3) 0.96518(16)
O16 O -1.8528(2) 0.8841(3) 0.99063(14)
C11 C -1.5927(3) 0.8349(3) 0.88820(17)
H19 H -1.6516 0.9086 0.8705
C12 C -1.5228(3) 0.7599(3) 0.83692(17)
H20 H -1.5348 0.7834 0.7851
C13 C -1.7832(3) 0.9109(3) 1.02747(16)
C14 C -0.8896(2) 0.0541(2) 0.34917(13)
C15 C -0.7301(2) 0.0936(2) 0.45640(15)
C16 C -0.6661(2) 0.0257(2) 0.39235(14)
C17 C -0.5297(2) -0.0182(3) 0.38052(15)
H21 H -0.4786 -0.0034 0.4118
C18 C -0.4687(2) -0.0832(2) 0.32317(15)
H22 H -0.3774 -0.1116 0.3158
C19 C -0.5447(2) -0.1059(2) 0.27646(14)
C20 C -0.6813(2) -0.0627(2) 0.28819(14)
H23 H -0.7320 -0.0780 0.2569
C21 C -0.7431(2) 0.0027(2) 0.34569(13)
C22 C -0.4847(2) -0.1652(2) 0.20870(15)
C23 C -0.3508(2) -0.2459(2) 0.20389(14)
C24 C -0.3079(2) -0.3347(2) 0.26879(14)
H24 H -0.3610 -0.3399 0.3188
C25 C -0.1869(2) -0.4160(2) 0.26043(14)
C26 C -0.1032(2) -0.4024(2) 0.18551(14)
C27 C -0.1450(3) -0.3091(3) 0.12084(15)
H25 H -0.0886 -0.2974 0.0714
C28 C -0.1530(2) -0.5117(2) 0.33504(14)
C29 C -0.2687(3) -0.2343(3) 0.12925(15)
H26 H -0.2973 -0.1761 0.0852
C30 C 0.0327(2) -0.4816(2) 0.17012(14)
C31 C -2.0371(3) 1.0553(3) 1.17632(17)
H27 H -2.1237 1.0441 1.2041
C32 C -1.9751(3) 0.9762(3) 1.12696(17)
H28 H -2.0197 0.9138 1.1214
C33 C -1.8459(3) 0.9904(3) 1.08581(15)
C34 C -1.7839(3) 1.0843(3) 1.09654(16)
H29 H -1.6964 1.0956 1.0704
C35 C -1.8533(3) 1.1614(3) 1.14654(16)
H30 H -1.8113 1.2252 1.1527
Ni1A Ni -1.00743(3) -0.19905(3) 0.451393(17)
O1A O -1.02780(16) 0.02655(15) 0.63264(10)
Ni2_2 Ni -2.07208(3) 1.26370(3) 1.263273(17)
Ni2_3 Ni -1.07208(3) 0.26370(3) 0.263273(17)
N4_2 N 0.0218(2) -0.8524(2) 0.18613(12)
O8_2 O 0.08105(16) -0.82426(15) 0.32672(10)
O17 O -0.5840(2) -0.2404(3) 0.58820(17)
H31 H -0.5590 -0.2956 0.6282
H32 H -0.5195 -0.1974 0.5625
O18 O -0.8618(4) -0.3541(3) 0.95720(16)
H33 H -0.8720 -0.4054 1.0035
H34 H -0.8563 -0.2787 0.9610
O19 O -0.4964(13) -0.3781(10) 0.4711(5)
H35 H -0.5728 -0.3638 0.4591
H36 H -0.4466 -0.3279 0.4349
loop_
_geom_bond_atom_site_label_1
_geom_bond_atom_site_label_2
_geom_bond_site_symmetry_1
_geom_bond_site_symmetry_2
Ni1 N1 1_555 1_555
N1 C1 1_555 1_555
C1 H1 1_555 1_555
O1 C14 1_555 1_555
O2 H2 1_555 1_555
H3 O2 1_555 1_555
Ni2 O2 1_555 1_555
C2 C1 1_555 1_555
H4 C2 1_555 1_555
N2 H5 1_555 1_555
O3 Ni1 1_555 1_555
O4 Ni2 1_555 1_555
H6 O4 1_555 1_555
H7 O4 1_555 1_555
N3 H8 1_555 1_555
C3 C2 1_555 1_555
O5 Ni1 1_555 1_555
H9 O5 1_555 1_555
H10 O5 1_555 1_555
O6 C15 1_555 1_555
N4 C31 1_555 1_555
C4 C3 1_555 1_555
H11 C4 1_555 1_555
O7 Ni1 1_555 1_555
H12 O7 1_555 1_555
H13 O7 1_555 1_555
O8 C14 1_555 1_555
O9 Ni1 1_555 1_555
H14 O9 1_555 1_555
H15 O9 1_555 1_555
C5 N1 1_555 1_555
H16 C5 1_555 1_555
O10 C22 1_555 1_555
C6 N2 1_555 1_555
O11 C28 1_555 1_555
C7 N2 1_555 1_555
O12 Ni2 1_555 1_555
C8 C7 1_555 1_555
H17 C8 1_555 1_555
O13 C30 1_555 1_555
C9 C8 1_555 1_555
H18 C9 1_555 1_555
O14 Ni2 1_555 1_555
O15 C6 1_555 1_555
C10 N3 1_555 1_555
O16 C13 1_555 1_555
C11 C10 1_555 1_555
H19 C11 1_555 1_555
C12 C7 1_555 1_555
H20 C12 1_555 1_555
C13 N3 1_555 1_555
C14 C21 1_555 1_555
C15 O3 1_555 1_555
C16 C15 1_555 1_555
C17 C16 1_555 1_555
H21 C17 1_555 1_555
C18 C17 1_555 1_555
H22 C18 1_555 1_555
C19 C18 1_555 1_555
C20 C19 1_555 1_555
H23 C20 1_555 1_555
C21 C16 1_555 1_555
C22 C19 1_555 1_555
C23 C22 1_555 1_555
C24 C23 1_555 1_555
H24 C24 1_555 1_555
C25 C24 1_555 1_555
C26 C25 1_555 1_555
C27 C26 1_555 1_555
H25 C27 1_555 1_555
C28 O12 1_555 1_555
C29 C23 1_555 1_555
H26 C29 1_555 1_555
C30 O14 1_555 1_555
C31 H27 1_555 1_555
C32 C31 1_555 1_555
H28 C32 1_555 1_555
C33 C13 1_555 1_555
C34 C33 1_555 1_555
H29 C34 1_555 1_555
C35 N4 1_555 1_555
H30 C35 1_555 1_555
O17 H31 1_555 1_555
H32 O17 1_555 1_555
O18 H33 1_555 1_555
H34 O18 1_555 1_555
O19 H35 1_555 1_555
H36 O19 1_555 1_555
Ni1A O1 1_555 1_555
O1A Ni1 1_555 1_555
Ni2_2 N4 1_555 1_555
Ni2_3 O8 1_555 1_555
N4_2 Ni2 1_555 1_555
O8_2 Ni2 1_555 1_555
C3 C6 1_555 1_555
C4 C5 1_555 1_555
C9 C10 1_555 1_555
C11 C12 1_555 1_555
C20 C21 1_555 1_555
C25 C28 1_555 1_555
C26 C30 1_555 1_555
C27 C29 1_555 1_555
C32 C33 1_555 1_555
C34 C35 1_555 1_555

#END
