
#######################################################################
#
#                 Cambridge Crystallographic Data Centre
#                                CCDC 
#
#######################################################################
#
# If this CIF has been generated from an entry in the Cambridge 
# Structural Database, then it will include bibliographic, chemical, 
# crystal, experimental, refinement or atomic coordinate data resulting 
# from the CCDC's data processing and validation procedures.
#
#######################################################################

data_LEWFEY
_symmetry_cell_setting           monoclinic
_symmetry_space_group_name_H-M   'P 21/n'
_symmetry_Int_Tables_number      14
_space_group_name_Hall           '-P 2yn'
loop_
_symmetry_equiv_pos_site_id
_symmetry_equiv_pos_as_xyz
1 x,y,z
2 1/2-x,1/2+y,1/2-z
3 -x,-y,-z
4 1/2+x,1/2-y,1/2+z
_cell_length_a                   8.881(6)
_cell_length_b                   9.349(6)
_cell_length_c                   21.458(6)
_cell_angle_alpha                90
_cell_angle_beta                 98.18(4)
_cell_angle_gamma                90
_cell_volume                     1763.5
loop_
_atom_site_label
_atom_site_type_symbol
_atom_site_fract_x
_atom_site_fract_y
_atom_site_fract_z
U1 U 0.04154(8) 0.15808(8) 0.16758(3)
U2 U -0.5000 0.5000 0.0000
C1 C 0.263(2) -0.123(2) 0.2156(9)
C2 C 0.176(2) -0.184(2) 0.1570(8)
C3 C 0.191(2) -0.324(2) 0.1364(8)
C4 C 0.100(2) -0.369(2) 0.0821(9)
C5 C -0.005(2) -0.270(2) 0.0494(8)
C6 C -0.016(2) -0.142(2) 0.0775(8)
C7 C -0.133(2) -0.025(2) 0.0482(8)
C8 C -0.208(2) 0.428(2) 0.1135(9)
C9 C -0.248(2) 0.586(2) 0.1368(9)
C10 C -0.177(2) 0.647(2) 0.1965(8)
C11 C -0.228(2) 0.779(2) 0.2051(9)
C12 C -0.340(2) 0.845(3) 0.1659(9)
C13 C -0.404(2) 0.773(2) 0.1111(8)
C14 C -0.527(2) 0.821(2) 0.0632(7)
N1 N 0.070(2) -0.102(2) 0.1268(6)
N2 N -0.363(2) 0.637(2) 0.0986(6)
O1 O 0.359(2) -0.194(2) 0.2467(6)
O2 O 0.235(2) 0.008(2) 0.2250(6)
O3 O -0.128(2) 0.092(2) 0.0766(6)
O4 O -0.227(1) -0.076(1) 0.0019(6)
O5 O -0.274(2) 0.408(2) 0.0605(9)
O6 O -0.106(2) 0.365(2) 0.1468(7)
O7 O -0.569(2) 0.748(2) 0.0203(7)
O8 O -0.570(2) 0.957(2) 0.0731(6)
O9 O -0.088(2) 0.085(2) 0.2148(7)
O10 O 0.174(2) 0.221(2) 0.1218(8)
O11 O -0.619(1) 0.446(2) 0.0529(6)
C8B C -0.792(2) 0.572(2) -0.1135(9)
C9B C -0.752(2) 0.414(2) -0.1368(9)
C10B C -0.823(2) 0.353(2) -0.1965(8)
C11B C -0.772(2) 0.221(2) -0.2051(9)
C12B C -0.660(2) 0.155(3) -0.1659(9)
C13B C -0.596(2) 0.227(2) -0.1111(8)
C14B C -0.473(2) 0.179(2) -0.0632(7)
N2B N -0.637(2) 0.363(2) -0.0986(6)
O5B O -0.726(2) 0.592(2) -0.0605(9)
O6B O -0.894(2) 0.635(2) -0.1468(7)
O7B O -0.431(2) 0.252(2) -0.0203(7)
O8B O -0.430(2) 0.043(2) -0.0731(6)
O11B O -0.381(1) 0.554(2) -0.0529(6)
U1B U -1.04154(8) 0.84192(8) -0.16758(3)
C1A C 0.237(2) 0.377(2) 0.2844(9)
C2A C 0.324(2) 0.316(2) 0.3430(8)
C3A C 0.309(2) 0.176(2) 0.3636(8)
C4A C 0.400(2) 0.131(2) 0.4179(9)
C5A C 0.505(2) 0.230(2) 0.4506(8)
C6A C 0.516(2) 0.358(2) 0.4225(8)
C7A C 0.633(2) 0.475(2) 0.4518(8)
N1A N 0.430(2) 0.398(2) 0.3732(6)
O1A O 0.141(2) 0.306(2) 0.2533(6)
O2A O 0.265(2) 0.508(2) 0.2750(6)
O3A O 0.628(2) 0.592(2) 0.4234(6)
O4A O 0.727(1) 0.424(1) 0.4981(6)
O9B O -0.912(2) 0.915(2) -0.2148(7)
O10B O -1.174(2) 0.779(2) -0.1218(8)
U1A U 0.45846(8) -0.34192(8) 0.33242(3)
N1B N -1.070(2) 1.102(2) -0.1268(6)
O1C O -1.141(2) 0.694(2) -0.2533(6)
O2B O -1.235(2) 0.992(2) -0.2250(6)
O3B O -0.872(2) 0.908(2) -0.0766(6)
U1A_2 U 0.45846(8) 0.65808(8) 0.33242(3)
O12 O 0.533(3) 0.228(3) 0.159(1)
loop_
_geom_bond_atom_site_label_1
_geom_bond_atom_site_label_2
_geom_bond_site_symmetry_1
_geom_bond_site_symmetry_2
U1 N1 1_555 1_555
U2 N2 1_555 1_555
C1 C2 1_555 1_555
C2 C3 1_555 1_555
C3 C4 1_555 1_555
C4 C5 1_555 1_555
C5 C6 1_555 1_555
C6 C7 1_555 1_555
C7 O3 1_555 1_555
C8 C9 1_555 1_555
C9 C10 1_555 1_555
C10 C11 1_555 1_555
C11 C12 1_555 1_555
C12 C13 1_555 1_555
C13 C14 1_555 1_555
C14 O7 1_555 1_555
N1 C2 1_555 1_555
N2 C9 1_555 1_555
O1 C1 1_555 1_555
O2 U1 1_555 1_555
O3 U1 1_555 1_555
O4 C7 1_555 1_555
O5 U2 1_555 1_555
O6 U1 1_555 1_555
O7 U2 1_555 1_555
O8 C14 1_555 1_555
O9 U1 1_555 1_555
O10 U1 1_555 1_555
O11 U2 1_555 1_555
C8B C9B 1_555 1_555
C9B C10B 1_555 1_555
C10B C11B 1_555 1_555
C11B C12B 1_555 1_555
C12B C13B 1_555 1_555
C13B C14B 1_555 1_555
C14B O7B 1_555 1_555
N2B U2 1_555 1_555
O5B U2 1_555 1_555
O6B C8B 1_555 1_555
O7B U2 1_555 1_555
O8B C14B 1_555 1_555
O11B U2 1_555 1_555
U1B O6B 1_555 1_555
C1A C2A 1_555 1_555
C2A C3A 1_555 1_555
C3A C4A 1_555 1_555
C4A C5A 1_555 1_555
C5A C6A 1_555 1_555
C6A C7A 1_555 1_555
C7A O3A 1_555 1_555
N1A C2A 1_555 1_555
O1A U1 1_555 1_555
O2A C1A 1_555 1_555
O3A U1A_2 1_555 1_555
O4A C7A 1_555 1_555
O9B U1B 1_555 1_555
O10B U1B 1_555 1_555
U1A O1 1_555 1_555
N1B U1B 1_555 1_555
O1C U1B 1_555 1_555
O2B U1B 1_555 1_555
O3B U1B 1_555 1_555
U1A_2 N1A 1_555 1_555
C1 O2 1_555 1_555
C6 N1 1_555 1_555
C8 O5 1_555 1_555
C8 O6 1_555 1_555
C13 N2 1_555 1_555
C8B O5B 1_555 1_555
C9B N2B 1_555 1_555
C13B N2B 1_555 1_555
C1A O1A 1_555 1_555
C6A N1A 1_555 1_555
O2A U1A_2 1_555 1_555

#END
