
#######################################################################
#
#                 Cambridge Crystallographic Data Centre
#                                CCDC 
#
#######################################################################
#
# If this CIF has been generated from an entry in the Cambridge 
# Structural Database, then it will include bibliographic, chemical, 
# crystal, experimental, refinement or atomic coordinate data resulting 
# from the CCDC's data processing and validation procedures.
#
#######################################################################

data_LEWFOJ
_symmetry_cell_setting           triclinic
_symmetry_space_group_name_H-M   'P -1'
_symmetry_Int_Tables_number      2
_space_group_name_Hall           '-P 1'
loop_
_symmetry_equiv_pos_site_id
_symmetry_equiv_pos_as_xyz
1 x,y,z
2 -x,-y,-z
_cell_length_a                   8.9266(2)
_cell_length_b                   9.35950(10)
_cell_length_c                   14.722(3)
_cell_angle_alpha                97.7810(10)
_cell_angle_beta                 95.5180(10)
_cell_angle_gamma                104.8190(10)
_cell_volume                     1167.11
loop_
_atom_site_label
_atom_site_type_symbol
_atom_site_fract_x
_atom_site_fract_y
_atom_site_fract_z
Dy1 Dy 0.14045(3) 0.26704(3) 0.27409(2)
O1 O -0.0066(5) 0.3785(5) 0.1769(3)
N1 N 0.1047(6) 0.7651(6) 0.0635(4)
C1 C -0.1193(7) 0.4123(6) 0.1378(4)
Dy2 Dy -0.45808(3) 0.14825(3) 0.16656(2)
O2 O -0.2603(5) 0.3369(5) 0.1282(3)
N2 N -0.4848(7) 0.2491(6) 0.5265(4)
C2 C -0.0861(7) 0.5529(6) 0.0950(4)
O3 O -0.4244(5) 0.7293(5) -0.0457(3)
N3 N 0.8898(6) 0.6687(6) 0.3242(4)
C3 C 0.0661(7) 0.6443(7) 0.1060(4)
H1 H 0.1436 0.6217 0.1438
O4 O -0.2406(5) 0.8281(5) -0.1280(3)
C4 C -0.0088(7) 0.7976(7) 0.0097(4)
H2 H 0.0179 0.8792 -0.0209
O5 O -0.2497(6) 0.2143(5) 0.3021(3)
C5 C -0.1643(7) 0.7140(6) -0.0017(4)
O6 O -0.0418(5) 0.1883(6) 0.3880(3)
C6 C -0.2037(6) 0.5899(7) 0.0415(4)
H3 H -0.3069 0.5320 0.0350
O7 O -0.2327(5) -0.0700(5) 0.6681(3)
C7 C -0.2841(7) 0.7601(6) -0.0622(4)
O8 O -0.4231(6) 0.0050(6) 0.7298(3)
C8 C -0.1798(7) 0.1967(6) 0.3761(4)
O9 O 0.4647(5) 0.3444(5) 0.2712(3)
C9 C -0.2715(7) 0.1847(7) 0.4572(4)
O10 O 0.3378(5) 0.5082(5) 0.2376(4)
C10 C -0.3926(7) 0.2540(7) 0.4595(4)
H4 H -0.4104 0.3064 0.4121
O11 O 0.6978(5) 0.9808(5) 0.1403(3)
C11 C -0.4574(7) 0.1725(7) 0.5933(4)
H5 H -0.5202 0.1680 0.6403
O12 O 0.9515(5) 1.0409(5) 0.1973(3)
C12 C -0.3401(7) 0.0985(6) 0.5968(4)
C13 C -0.2427(7) 0.1079(6) 0.5280(4)
H6 H -0.1605 0.0638 0.5297
C14 C -0.3310(7) 0.0034(6) 0.6713(4)
C15 C 0.4620(7) 0.4750(7) 0.2556(4)
C16 C 0.6168(7) 0.5910(6) 0.2623(4)
C17 C 0.6346(7) 0.7189(7) 0.2216(4)
H7 H 0.5494 0.7362 0.1877
C18 C 0.7815(7) 0.8206(6) 0.2323(4)
C19 C 0.9050(7) 0.7912(7) 0.2849(4)
H8 H 1.0029 0.8603 0.2931
C20 C 0.7492(8) 0.5706(7) 0.3117(5)
H9 H 0.7386 0.4836 0.3373
C21 C 0.8133(7) 0.9599(6) 0.1868(4)
O13 O 0.2720(7) 0.3543(7) 0.4479(4)
O14 O 0.0991(7) 0.5035(6) 0.3668(4)
O15 O -0.6018(5) -0.0818(6) 0.0550(4)
Dy1A Dy -0.14045(3) 0.73296(3) -0.27409(2)
Dy1A_2 Dy -0.14045(3) -0.26704(3) 0.72591(2)
Dy1_2 Dy 1.14045(3) 1.26704(3) 0.27409(2)
Dy2A Dy -0.54192(3) 0.85175(3) -0.16656(2)
Dy2A_2 Dy -0.54192(3) -0.14825(3) 0.83344(2)
Dy2_2 Dy 0.54192(3) 0.14825(3) 0.16656(2)
Dy2_3 Dy 0.54192(3) 1.14825(3) 0.16656(2)
O3A O -0.5756(5) 0.2707(5) 0.0457(3)
O4A O 0.2406(5) 0.1719(5) 0.1280(3)
O4A_2 O -0.7594(5) 0.1719(5) 0.1280(3)
O7A O 0.2327(5) 0.0700(5) 0.3319(3)
O8A O -0.5769(6) -0.0050(6) 0.2702(3)
O9_2 O -0.5353(5) 0.3444(5) 0.2712(3)
O11_2 O -0.3022(5) -0.0192(5) 0.1403(3)
O12_2 O -0.0485(5) 0.0409(5) 0.1973(3)
loop_
_geom_bond_atom_site_label_1
_geom_bond_atom_site_label_2
_geom_bond_site_symmetry_1
_geom_bond_site_symmetry_2
Dy1 O1 1_555 1_555
O1 C1 1_555 1_555
N1 C3 1_555 1_555
C1 O2 1_555 1_555
Dy2 O2 1_555 1_555
N2 C10 1_555 1_555
C2 C1 1_555 1_555
O3 C7 1_555 1_555
N3 C19 1_555 1_555
C3 C2 1_555 1_555
H1 C3 1_555 1_555
O4 C7 1_555 1_555
C4 N1 1_555 1_555
H2 C4 1_555 1_555
O5 Dy2 1_555 1_555
C5 C4 1_555 1_555
O6 Dy1 1_555 1_555
C6 C2 1_555 1_555
H3 C6 1_555 1_555
O7 C14 1_555 1_555
C7 C5 1_555 1_555
O8 C14 1_555 1_555
C8 O5 1_555 1_555
O9 Dy1 1_555 1_555
C9 C8 1_555 1_555
O10 Dy1 1_555 1_555
C10 C9 1_555 1_555
H4 C10 1_555 1_555
O11 C21 1_555 1_555
C11 N2 1_555 1_555
H5 C11 1_555 1_555
O12 C21 1_555 1_555
C12 C11 1_555 1_555
C13 C9 1_555 1_555
H6 C13 1_555 1_555
C14 C12 1_555 1_555
C15 O9 1_555 1_555
C16 C15 1_555 1_555
C17 C16 1_555 1_555
H7 C17 1_555 1_555
C18 C17 1_555 1_555
C19 C18 1_555 1_555
H8 C19 1_555 1_555
C20 N3 1_555 1_555
H9 C20 1_555 1_555
C21 C18 1_555 1_555
O13 Dy1 1_555 1_555
O14 Dy1 1_555 1_555
O15 Dy2 1_555 1_555
Dy1A O4 1_555 1_555
Dy1A_2 O7 1_555 1_555
Dy1_2 O12 1_555 1_555
Dy2A O3 1_555 1_555
Dy2A_2 O8 1_555 1_555
Dy2_2 O9 1_555 1_555
Dy2_3 O11 1_555 1_555
O3A Dy2 1_555 1_555
O4A Dy1 1_555 1_555
O4A_2 Dy2 1_555 1_555
O7A Dy1 1_555 1_555
O8A Dy2 1_555 1_555
O9_2 Dy2 1_555 1_555
O11_2 Dy2 1_555 1_555
O12_2 Dy1 1_555 1_555
O4 Dy2A 1_555 1_555
C5 C6 1_555 1_555
O6 C8 1_555 1_555
O10 C15 1_555 1_555
C12 C13 1_555 1_555
C16 C20 1_555 1_555
Dy2_2 O4A 1_555 1_555

#END
