
#######################################################################
#
#                 Cambridge Crystallographic Data Centre
#                                CCDC 
#
#######################################################################
#
# If this CIF has been generated from an entry in the Cambridge 
# Structural Database, then it will include bibliographic, chemical, 
# crystal, experimental, refinement or atomic coordinate data resulting 
# from the CCDC's data processing and validation procedures.
#
#######################################################################

data_LEWFUQ
_symmetry_cell_setting           triclinic
_symmetry_space_group_name_H-M   'P -1'
_symmetry_Int_Tables_number      2
_space_group_name_Hall           '-P 1'
loop_
_symmetry_equiv_pos_site_id
_symmetry_equiv_pos_as_xyz
1 x,y,z
2 -x,-y,-z
_cell_length_a                   10.4802(11)
_cell_length_b                   10.8779(11)
_cell_length_c                   18.1425(18)
_cell_angle_alpha                72.6130(10)
_cell_angle_beta                 75.6240(10)
_cell_angle_gamma                78.4840(10)
_cell_volume                     1894.3
loop_
_atom_site_label
_atom_site_type_symbol
_atom_site_fract_x
_atom_site_fract_y
_atom_site_fract_z
C1 C -0.1249(3) 0.2951(3) 0.69132(19)
H1 H -0.0597 0.2318 0.7119
C2 C -0.2108(3) 0.3642(3) 0.7403(2)
H2 H -0.2032 0.3475 0.7925
C3 C -0.2263(4) 0.4034(4) 0.5882(2)
H3 H -0.2327 0.4169 0.5360
C4 C -0.3168(4) 0.4766(4) 0.6332(2)
H4 H -0.3827 0.5372 0.6115
C5 C -0.3091(3) 0.4592(3) 0.7107(2)
C6 C -0.4053(3) 0.5437(4) 0.7579(2)
C7 C -0.4333(3) 0.6501(4) 0.8639(2)
C8 C -0.4124(4) 0.6198(4) 0.9401(2)
H5 H -0.3513 0.5486 0.9574
C9 C -0.4821(3) 0.6949(4) 0.9905(2)
H6 H -0.4677 0.6738 1.0416
C10 C -0.5731(3) 0.8013(3) 0.9652(2)
C11 C -0.5878(4) 0.8360(3) 0.8876(2)
H7 H -0.6447 0.9104 0.8694
C12 C -0.5187(4) 0.7609(3) 0.8368(2)
H8 H -0.5294 0.7845 0.7848
C13 C -0.7789(4) 0.9136(3) 1.0262(2)
C14 C -0.7807(3) 1.0853(3) 1.09542(19)
H9 H -0.6939 1.0973 1.0693
C15 C -0.8502(3) 1.1602(3) 1.1453(2)
H10 H -0.8085 1.2229 1.1519
C16 C -0.8413(3) 0.9918(3) 1.08435(18)
C17 C -0.9703(4) 0.9780(4) 1.1252(2)
H11 H -1.0150 0.9172 1.1188
C18 C -1.0316(3) 1.0547(3) 1.1750(2)
H12 H -1.1170 1.0420 1.2035
C19 C 0.1129(3) 0.0534(3) 0.34965(16)
C20 C 0.2741(3) 0.0893(3) 0.45683(18)
C21 C 0.2594(3) 0.0023(3) 0.34499(17)
C22 C 0.3198(3) -0.0627(3) 0.28815(17)
H13 H 0.2686 -0.0780 0.2574
C23 C 0.4563(3) -0.1061(3) 0.27564(17)
C24 C 0.5321(3) -0.0848(3) 0.32215(18)
H14 H 0.6228 -0.1141 0.3149
C25 C 0.4720(3) -0.0198(3) 0.37957(19)
H15 H 0.5231 -0.0053 0.4106
C26 C 0.3359(3) 0.0245(3) 0.39159(17)
C27 C 0.5158(3) -0.1648(3) 0.20825(18)
C28 C 0.6485(3) -0.2455(3) 0.20323(18)
C29 C 0.7310(3) -0.2342(3) 0.12965(19)
H16 H 0.7029 -0.1762 0.0856
C30 C 0.8540(3) -0.3078(3) 0.12088(18)
H17 H 0.9103 -0.2958 0.0715
C31 C 0.8954(3) -0.4012(3) 0.18612(17)
C32 C 0.8114(3) -0.4147(3) 0.26026(17)
C33 C 0.6902(3) -0.3343(3) 0.26853(18)
H18 H 0.6365 -0.3402 0.3183
C34 C 1.0307(3) -0.4804(3) 0.17090(18)
C35 C 0.8451(3) -0.5104(3) 0.33508(17)
N1 N -0.1303(3) 0.3145(3) 0.61556(15)
N2 N -0.9747(3) 1.1473(3) 1.18494(15)
N3 N -0.3618(3) 0.5685(3) 0.81487(19)
H19 H -0.2838 0.5318 0.8223
N4 N -0.6463(3) 0.8756(3) 1.01822(17)
H20 H -0.6044 0.8973 1.0466
O1 O 0.1533(2) 0.0738(2) 0.48935(12)
O2 O 0.1605(2) 0.2211(2) 0.59774(13)
H21 H 0.2351 0.2097 0.5668
H22 H 0.1608 0.1651 0.6421
O3 O 0.3407(2) 0.1527(3) 0.47606(16)
O4 O 0.0612(3) 0.3497(2) 0.44555(16)
H23 H 0.1219 0.3857 0.4511
H24 H -0.0069 0.4057 0.4385
O5 O 0.0319(2) -0.0272(2) 0.36671(12)
O6 O -0.1367(2) 0.1847(2) 0.49093(12)
H25 H -0.1308 0.2413 0.4467
H26 H -0.2134 0.1981 0.5191
O7 O 0.0820(2) 0.17406(19) 0.32913(13)
O8 O 0.7855(2) -0.6504(2) 0.19315(13)
H27 H 0.7081 -0.6585 0.2213
H28 H 0.7982 -0.6884 0.1567
O9 O 0.8401(2) -0.62941(19) 0.34648(12)
O10 O 0.8036(2) -0.8776(2) 0.32992(13)
H29 H 0.8502 -0.9431 0.3544
H30 H 0.7687 -0.9007 0.2994
O11 O 0.8695(3) -0.4643(2) 0.38494(13)
O12 O 1.0498(2) -0.5963(2) 0.21093(14)
O13 O 1.1202(2) -0.4243(2) 0.12054(14)
O14 O 0.4563(3) -0.1446(3) 0.15525(15)
O15 O -0.5149(3) 0.5860(3) 0.74172(17)
O16 O -0.8474(3) 0.8893(3) 0.98826(17)
Co1 Co 0.00835(4) 0.19891(4) 0.54812(2)
Co2 Co 0.92664(4) -0.73521(4) 0.26344(2)
N2_2 N 1.0253(3) -0.8527(3) 0.18494(15)
O5A O -0.0319(2) 0.0272(2) 0.63329(12)
O7_2 O 1.0820(2) -0.82594(19) 0.32913(13)
Co1A Co -0.00835(4) -0.19891(4) 0.45188(2)
Co2_2 Co -1.07336(4) 1.26479(4) 1.26344(2)
Co2_3 Co -0.07336(4) 0.26479(4) 0.26344(2)
O17 O 0.5822(3) 0.2375(3) 0.4101(2)
H31 H 0.5822 0.2944 0.3662
H32 H 0.5102 0.2043 0.4244
O18 O 0.8563(5) -0.6543(4) 0.04298(18)
H33 H 0.8475 -0.6993 0.0139
H34 H 0.8815 -0.5825 0.0142
O19 O 0.5004(11) 0.3707(13) 0.5323(7)
H35 H 0.5286 0.3540 0.5748
H36 H 0.5608 0.3429 0.4979
loop_
_geom_bond_atom_site_label_1
_geom_bond_atom_site_label_2
_geom_bond_site_symmetry_1
_geom_bond_site_symmetry_2
C1 H1 1_555 1_555
C2 C1 1_555 1_555
H2 C2 1_555 1_555
C3 H3 1_555 1_555
C4 C3 1_555 1_555
H4 C4 1_555 1_555
C5 C2 1_555 1_555
C6 C5 1_555 1_555
C7 C8 1_555 1_555
C8 H5 1_555 1_555
C9 C8 1_555 1_555
H6 C9 1_555 1_555
C10 C9 1_555 1_555
C11 C10 1_555 1_555
H7 C11 1_555 1_555
C12 C7 1_555 1_555
H8 C12 1_555 1_555
C13 C16 1_555 1_555
C14 H9 1_555 1_555
C15 C14 1_555 1_555
H10 C15 1_555 1_555
C16 C14 1_555 1_555
C17 C16 1_555 1_555
H11 C17 1_555 1_555
C18 C17 1_555 1_555
H12 C18 1_555 1_555
C19 C21 1_555 1_555
C20 C26 1_555 1_555
C21 C22 1_555 1_555
C22 H13 1_555 1_555
C23 C22 1_555 1_555
C24 C23 1_555 1_555
H14 C24 1_555 1_555
C25 C24 1_555 1_555
H15 C25 1_555 1_555
C26 C21 1_555 1_555
C27 C23 1_555 1_555
C28 C27 1_555 1_555
C29 C28 1_555 1_555
H16 C29 1_555 1_555
C30 C29 1_555 1_555
H17 C30 1_555 1_555
C31 C30 1_555 1_555
C32 C31 1_555 1_555
C33 C28 1_555 1_555
H18 C33 1_555 1_555
C34 C31 1_555 1_555
C35 C32 1_555 1_555
N1 C1 1_555 1_555
N2 C15 1_555 1_555
N3 C6 1_555 1_555
H19 N3 1_555 1_555
N4 C10 1_555 1_555
H20 N4 1_555 1_555
O1 C20 1_555 1_555
O2 H21 1_555 1_555
H22 O2 1_555 1_555
O3 C20 1_555 1_555
O4 H23 1_555 1_555
H24 O4 1_555 1_555
O5 C19 1_555 1_555
O6 H25 1_555 1_555
H26 O6 1_555 1_555
O7 C19 1_555 1_555
O8 H27 1_555 1_555
H28 O8 1_555 1_555
O9 C35 1_555 1_555
O10 H29 1_555 1_555
H30 O10 1_555 1_555
O11 C35 1_555 1_555
O12 C34 1_555 1_555
O13 C34 1_555 1_555
O14 C27 1_555 1_555
O15 C6 1_555 1_555
O16 C13 1_555 1_555
Co1 N1 1_555 1_555
Co2 O8 1_555 1_555
O17 H31 1_555 1_555
H32 O17 1_555 1_555
O18 H33 1_555 1_555
H34 O18 1_555 1_555
O19 H35 1_555 1_555
H36 O19 1_555 1_555
N2_2 Co2 1_555 1_555
O5A Co1 1_555 1_555
O7_2 Co2 1_555 1_555
Co1A O5 1_555 1_555
Co2_2 N2 1_555 1_555
Co2_3 O7 1_555 1_555
C3 N1 1_555 1_555
C4 C5 1_555 1_555
C7 N3 1_555 1_555
C11 C12 1_555 1_555
C13 N4 1_555 1_555
C18 N2 1_555 1_555
C25 C26 1_555 1_555
C32 C33 1_555 1_555
O1 Co1 1_555 1_555
O2 Co1 1_555 1_555
O4 Co1 1_555 1_555
O6 Co1 1_555 1_555
O9 Co2 1_555 1_555
O10 Co2 1_555 1_555
O12 Co2 1_555 1_555

#END
