
#######################################################################
#
#                 Cambridge Crystallographic Data Centre
#                                CCDC 
#
#######################################################################
#
# If this CIF has been generated from an entry in the Cambridge 
# Structural Database, then it will include bibliographic, chemical, 
# crystal, experimental, refinement or atomic coordinate data resulting 
# from the CCDC's data processing and validation procedures.
#
#######################################################################

data_LEWGUQ
_symmetry_cell_setting           orthorhombic
_symmetry_space_group_name_H-M   'P b c n'
_symmetry_Int_Tables_number      60
_space_group_name_Hall           '-P 2n 2ab'
loop_
_symmetry_equiv_pos_site_id
_symmetry_equiv_pos_as_xyz
1 x,y,z
2 1/2-x,1/2-y,1/2+z
3 -x,y,1/2-z
4 1/2+x,1/2-y,-z
5 -x,-y,-z
6 1/2+x,1/2+y,1/2-z
7 x,-y,1/2+z
8 1/2-x,1/2+y,z
_cell_length_a                   15.324(7)
_cell_length_b                   7.936(4)
_cell_length_c                   10.079(5)
_cell_angle_alpha                90
_cell_angle_beta                 90
_cell_angle_gamma                90
_cell_volume                     1225.72
loop_
_atom_site_label
_atom_site_type_symbol
_atom_site_fract_x
_atom_site_fract_y
_atom_site_fract_z
Mn1 Mn 0.5000 0.16395(4) 0.7500
O1 O 0.42794(8) 0.14968(16) 0.93648(13)
O2 O 0.42793(8) 0.01951(17) 1.13276(12)
O3 O 0.40853(8) 0.36723(16) 0.69978(14)
N1 N 0.33651(10) 0.60038(19) 0.76783(14)
C1 C 0.45821(10) 0.0493(2) 1.02048(16)
C2 C 0.39242(12) 0.4783(2) 0.78386(18)
H1 H 0.4225 0.4737 0.8639
C3 C 0.32177(16) 0.7285(3) 0.8678(2)
H2 H 0.3600 0.7093 0.9417
H3 H 0.2622 0.7234 0.8972
H4 H 0.3333 0.8376 0.8306
C4 C 0.28808(13) 0.6184(3) 0.6446(2)
H5 H 0.3112 0.7114 0.5948
H6 H 0.2277 0.6390 0.6641
H7 H 0.2933 0.5169 0.5934
Mn1F Mn 0.5000 -0.16395(4) 1.2500
O1D O 0.57206(8) -0.14968(16) 1.06352(13)
O1B O 0.57206(8) 0.14968(16) 0.56352(13)
O2D O 0.57207(8) -0.01951(17) 0.86724(12)
O2F O 0.42793(8) -0.01951(17) 0.63276(12)
O3B O 0.59147(8) 0.36723(16) 0.80022(14)
N1B N 0.66349(10) 0.60038(19) 0.73217(14)
C1D C 0.54179(10) -0.0493(2) 0.97952(16)
C2B C 0.60758(12) 0.4783(2) 0.71614(18)
H1B H 0.5775 0.4737 0.6361
C3B C 0.67823(16) 0.7285(3) 0.6322(2)
H2B H 0.6400 0.7093 0.5583
H3B H 0.7378 0.7234 0.6028
H4B H 0.6667 0.8376 0.6694
C4B C 0.71192(13) 0.6184(3) 0.8554(2)
H5B H 0.6888 0.7114 0.9052
H6B H 0.7723 0.6390 0.8359
H7B H 0.7067 0.5169 0.9066
loop_
_geom_bond_atom_site_label_1
_geom_bond_atom_site_label_2
_geom_bond_site_symmetry_1
_geom_bond_site_symmetry_2
Mn1 O1 1_555 1_555
O1 C1 1_555 1_555
O2 C1 1_555 1_555
O3 Mn1 1_555 1_555
N1 C2 1_555 1_555
C1 C1D 1_555 1_555
C2 O3 1_555 1_555
H1 C2 1_555 1_555
C3 N1 1_555 1_555
H2 C3 1_555 1_555
H3 C3 1_555 1_555
H4 C3 1_555 1_555
C4 N1 1_555 1_555
H5 C4 1_555 1_555
H6 C4 1_555 1_555
H7 C4 1_555 1_555
Mn1F O2 1_555 1_555
O1D Mn1F 1_555 1_555
O1B Mn1 1_555 1_555
O2D Mn1 1_555 1_555
O2F Mn1 1_555 1_555
O3B Mn1 1_555 1_555
N1B C2B 1_555 1_555
C1D O1D 1_555 1_555
C2B O3B 1_555 1_555
H1B C2B 1_555 1_555
C3B N1B 1_555 1_555
H2B C3B 1_555 1_555
H3B C3B 1_555 1_555
H4B C3B 1_555 1_555
C4B N1B 1_555 1_555
H5B C4B 1_555 1_555
H6B C4B 1_555 1_555
H7B C4B 1_555 1_555
O2D C1D 1_555 1_555

#END
