
#######################################################################
#
#                 Cambridge Crystallographic Data Centre
#                                CCDC 
#
#######################################################################
#
# If this CIF has been generated from an entry in the Cambridge 
# Structural Database, then it will include bibliographic, chemical, 
# crystal, experimental, refinement or atomic coordinate data resulting 
# from the CCDC's data processing and validation procedures.
#
#######################################################################

data_LEWJED
_symmetry_cell_setting           orthorhombic
_symmetry_space_group_name_H-M   'P 21 21 21'
_symmetry_Int_Tables_number      19
_space_group_name_Hall           'P 2ac 2ab'
loop_
_symmetry_equiv_pos_site_id
_symmetry_equiv_pos_as_xyz
1 x,y,z
2 1/2-x,-y,1/2+z
3 -x,1/2+y,1/2-z
4 1/2+x,1/2-y,-z
_cell_length_a                   5.6662(3)
_cell_length_b                   10.1801(6)
_cell_length_c                   24.2927(15)
_cell_angle_alpha                90
_cell_angle_beta                 90
_cell_angle_gamma                90
_cell_volume                     1401.26
loop_
_atom_site_label
_atom_site_type_symbol
_atom_site_fract_x
_atom_site_fract_y
_atom_site_fract_z
Cu1 Cu 0.39478(6) 0.51765(3) 0.089768(14)
S1 S 0.23929(13) 0.53924(8) 0.17876(3)
S2 S 0.16398(13) 0.63461(7) 0.02734(3)
N1 N 0.9852(4) -0.0154(3) 0.18942(9)
H1 H 1.101(4) 0.019(3) 0.2088(11)
N2 N 0.3566(4) 0.3104(2) 0.08004(10)
N3 N 0.6329(5) 0.5527(3) 0.24980(11)
N4 N -0.2802(4) 0.5617(2) 0.07025(10)
C1 C 0.9770(6) -0.1462(3) 0.18806(12)
H2 H 1.0885 -0.1949 0.2073
C2 C 0.8038(6) -0.2097(3) 0.15816(13)
H3 H 0.7978 -0.3010 0.1575
C3 C 0.6387(6) -0.1364(3) 0.12916(12)
H4 H 0.5228 -0.1785 0.1086
C4 C 0.6467(5) 0.0023(3) 0.13094(11)
C5 C 0.8261(5) 0.0619(3) 0.16231(11)
C6 C 0.8493(5) 0.2013(3) 0.16641(12)
H5 H 0.9694 0.2383 0.1874
C7 C 0.5052(5) 0.2244(3) 0.10681(12)
C8 C 0.4792(5) 0.0866(3) 0.10222(12)
C9 C 0.6932(5) 0.2789(3) 0.13918(12)
H6 H 0.7085 0.3696 0.1416
C10 C 0.2937(5) 0.0372(3) 0.06969(11)
H7 H 0.2720 -0.0529 0.0658
C11 C 0.1457(5) 0.1239(3) 0.04383(12)
H8 H 0.0210 0.0933 0.0225
C12 C 0.1841(5) 0.2590(3) 0.04991(12)
H9 H 0.0827 0.3163 0.0317
C13 C -0.0970(5) 0.5913(3) 0.05257(11)
C14 C 0.4718(5) 0.5465(3) 0.22029(12)
Cu1_2 Cu -0.60522(6) 0.51765(3) 0.089768(14)
N4_2 N 0.7198(4) 0.5617(2) 0.07025(10)
loop_
_geom_bond_atom_site_label_1
_geom_bond_atom_site_label_2
_geom_bond_site_symmetry_1
_geom_bond_site_symmetry_2
Cu1 S1 1_555 1_555
S1 C14 1_555 1_555
S2 Cu1 1_555 1_555
N1 H1 1_555 1_555
N2 Cu1 1_555 1_555
N3 C14 1_555 1_555
N4 C13 1_555 1_555
C1 N1 1_555 1_555
H2 C1 1_555 1_555
C2 C1 1_555 1_555
H3 C2 1_555 1_555
C3 C2 1_555 1_555
H4 C3 1_555 1_555
C4 C3 1_555 1_555
C5 N1 1_555 1_555
C6 C5 1_555 1_555
H5 C6 1_555 1_555
C7 N2 1_555 1_555
C8 C4 1_555 1_555
C9 C6 1_555 1_555
H6 C9 1_555 1_555
C10 C8 1_555 1_555
H7 C10 1_555 1_555
C11 C10 1_555 1_555
H8 C11 1_555 1_555
C12 N2 1_555 1_555
H9 C12 1_555 1_555
C13 S2 1_555 1_555
Cu1_2 N4 1_555 1_555
N4_2 Cu1 1_555 1_555
C4 C5 1_555 1_555
C7 C8 1_555 1_555
C7 C9 1_555 1_555
C11 C12 1_555 1_555

#END
