
#######################################################################
#
#                 Cambridge Crystallographic Data Centre
#                                CCDC 
#
#######################################################################
#
# If this CIF has been generated from an entry in the Cambridge 
# Structural Database, then it will include bibliographic, chemical, 
# crystal, experimental, refinement or atomic coordinate data resulting 
# from the CCDC's data processing and validation procedures.
#
#######################################################################

data_LEWKEF
_symmetry_cell_setting           triclinic
_symmetry_space_group_name_H-M   'P -1'
_symmetry_Int_Tables_number      2
_space_group_name_Hall           '-P 1'
loop_
_symmetry_equiv_pos_site_id
_symmetry_equiv_pos_as_xyz
1 x,y,z
2 -x,-y,-z
_cell_length_a                   9.8570(8)
_cell_length_b                   11.7803(17)
_cell_length_c                   12.5914(14)
_cell_angle_alpha                63.9220(10)
_cell_angle_beta                 67.1600(10)
_cell_angle_gamma                78.5390(10)
_cell_volume                     1209.58
loop_
_atom_site_label
_atom_site_type_symbol
_atom_site_fract_x
_atom_site_fract_y
_atom_site_fract_z
Co1 Co 0.78780(4) -0.26853(3) 1.19985(3)
N1 N 0.6170(2) 0.07786(18) 1.00141(19)
N2 N 0.8112(2) 0.70280(19) 0.36434(18)
N3 N 0.8353(2) 0.59115(18) 0.55218(17)
N4 N 0.6923(2) -0.09097(18) 1.14105(18)
C1 C 0.9122(3) 0.7007(2) 0.4997(2)
O1 O 0.6442(2) -0.38134(18) 1.2272(2)
C2 C 0.7094(3) -0.0232(2) 1.0210(2)
H1 H 0.7789 -0.0437 0.9564
C3 C 0.5314(3) 0.0782(2) 1.1183(2)
C4 C 0.7783(3) 0.5975(2) 0.4681(2)
H2 H 0.7220 0.5347 0.4815
C5 C 0.8957(3) 0.7708(2) 0.3823(2)
C6 C 0.7318(3) 0.3814(2) 0.7086(2)
H3 H 0.7885 0.3408 0.6515
H4 H 0.6376 0.4102 0.6964
C7 C 0.5800(3) -0.0275(2) 1.2053(2)
C8 C 0.6981(3) -0.4925(3) 1.2598(3)
C9 C 0.7075(3) 0.2870(2) 0.8442(2)
H5 H 0.8022 0.2564 0.8551
H6 H 0.6546 0.3290 0.9006
O2 O 1.0092(2) -0.7382(2) 0.91184(19)
C10 C 0.9948(3) 0.7417(2) 0.5432(2)
H7 H 1.0066 0.6941 0.6209
C11 C 0.9601(3) 0.8874(2) 0.3046(2)
H8 H 0.9491 0.9351 0.2266
C12 C 0.9981(3) -0.7448(3) 1.0172(3)
C13 C 0.6215(3) 0.1766(2) 0.8777(2)
H9 H 0.5218 0.2052 0.8787
H10 H 0.6667 0.1418 0.8143
O3 O 1.1056(3) -0.7677(3) 1.0520(2)
C14 C 0.3532(3) 0.1277(3) 1.2813(3)
H11 H 0.2754 0.1784 1.3096
C15 C 0.8442(3) -0.7190(3) 1.0986(2)
H12 H 0.7761 -0.7721 1.1023
C16 C 0.6246(3) -0.5909(3) 1.2549(3)
H13 H 0.5196 -0.5881 1.3037
C17 C 0.6832(4) -0.7255(3) 1.3121(3)
H14 H 0.6858 -0.7406 1.3935
H15 H 0.6154 -0.7840 1.3259
C18 C 0.7938(3) -0.5810(3) 1.0403(3)
H16 H 0.7976 -0.5608 0.9558
H17 H 0.8600 -0.5261 1.0347
C19 C 0.4154(3) 0.1571(3) 1.1545(3)
H18 H 0.3818 0.2260 1.0962
C20 C 1.0583(3) 0.8570(3) 0.4642(3)
H19 H 1.1151 0.8880 0.4892
C21 C 0.6373(3) -0.5577(3) 1.1193(3)
H20 H 0.5704 -0.6085 1.1199
H21 H 0.6084 -0.4695 1.0815
C22 C 0.5153(3) -0.0554(3) 1.3334(2)
H22 H 0.5471 -0.1251 1.3923
C23 C 1.0403(3) 0.9295(3) 0.3473(3)
H23 H 1.0837 1.0077 0.2977
C24 C 0.8341(4) -0.7528(3) 1.2327(3)
H24 H 0.9052 -0.7050 1.2309
H25 H 0.8593 -0.8419 1.2707
O4 O 0.8113(3) -0.5167(2) 1.2876(3)
C25 C 0.4030(4) 0.0239(3) 1.3693(3)
H26 H 0.3587 0.0084 1.4542
C26 C 0.8134(3) 0.4934(2) 0.6799(2)
H27 H 0.7585 0.5304 0.7403
H28 H 0.9087 0.4639 0.6898
Co1_2 Co 0.78780(4) 0.73147(3) 0.19985(3)
Co1A Co 1.21220(4) -0.73147(3) 0.80015(3)
N2_2 N 0.8112(2) -0.29720(19) 1.36434(18)
O2A O 0.9908(2) -0.2618(2) 1.08816(19)
loop_
_geom_bond_atom_site_label_1
_geom_bond_atom_site_label_2
_geom_bond_site_symmetry_1
_geom_bond_site_symmetry_2
Co1 N4 1_555 1_555
N1 C2 1_555 1_555
N2 C4 1_555 1_555
N3 C1 1_555 1_555
N4 C2 1_555 1_555
C1 C5 1_555 1_555
O1 Co1 1_555 1_555
C2 H1 1_555 1_555
C3 N1 1_555 1_555
C4 N3 1_555 1_555
H2 C4 1_555 1_555
C5 N2 1_555 1_555
C6 H3 1_555 1_555
H4 C6 1_555 1_555
C7 N4 1_555 1_555
C8 O1 1_555 1_555
C9 C6 1_555 1_555
H5 C9 1_555 1_555
H6 C9 1_555 1_555
O2 C12 1_555 1_555
C10 C1 1_555 1_555
H7 C10 1_555 1_555
C11 C5 1_555 1_555
H8 C11 1_555 1_555
C12 O3 1_555 1_555
C13 N1 1_555 1_555
H9 C13 1_555 1_555
H10 C13 1_555 1_555
C14 H11 1_555 1_555
C15 C12 1_555 1_555
H12 C15 1_555 1_555
C16 C8 1_555 1_555
H13 C16 1_555 1_555
C17 C16 1_555 1_555
H14 C17 1_555 1_555
H15 C17 1_555 1_555
C18 C15 1_555 1_555
H16 C18 1_555 1_555
H17 C18 1_555 1_555
C19 C3 1_555 1_555
H18 C19 1_555 1_555
C20 C10 1_555 1_555
H19 C20 1_555 1_555
C21 C16 1_555 1_555
H20 C21 1_555 1_555
H21 C21 1_555 1_555
C22 C7 1_555 1_555
H22 C22 1_555 1_555
C23 C11 1_555 1_555
H23 C23 1_555 1_555
C24 C15 1_555 1_555
H24 C24 1_555 1_555
H25 C24 1_555 1_555
O4 C8 1_555 1_555
C25 C14 1_555 1_555
H26 C25 1_555 1_555
C26 N3 1_555 1_555
H27 C26 1_555 1_555
H28 C26 1_555 1_555
Co1_2 N2 1_555 1_555
Co1A O2 1_555 1_555
N2_2 Co1 1_555 1_555
O2A Co1 1_555 1_555
C3 C7 1_555 1_555
C6 C26 1_555 1_555
C9 C13 1_555 1_555
C14 C19 1_555 1_555
C17 C24 1_555 1_555
C18 C21 1_555 1_555
C20 C23 1_555 1_555
C22 C25 1_555 1_555

#END
