
#######################################################################
#
#                 Cambridge Crystallographic Data Centre
#                                CCDC 
#
#######################################################################
#
# If this CIF has been generated from an entry in the Cambridge 
# Structural Database, then it will include bibliographic, chemical, 
# crystal, experimental, refinement or atomic coordinate data resulting 
# from the CCDC's data processing and validation procedures.
#
#######################################################################

data_LEWLEG
_symmetry_cell_setting           orthorhombic
_symmetry_space_group_name_H-M   'P n a 21'
_symmetry_Int_Tables_number      33
_space_group_name_Hall           'P 2c -2n'
loop_
_symmetry_equiv_pos_site_id
_symmetry_equiv_pos_as_xyz
1 x,y,z
2 -x,-y,1/2+z
3 1/2-x,1/2+y,1/2+z
4 1/2+x,1/2-y,z
_cell_length_a                   15.7082(5)
_cell_length_b                   15.7594(5)
_cell_length_c                   6.3624(3)
_cell_angle_alpha                90
_cell_angle_beta                 90
_cell_angle_gamma                90
_cell_volume                     1575.02
loop_
_atom_site_label
_atom_site_type_symbol
_atom_site_fract_x
_atom_site_fract_y
_atom_site_fract_z
Cu1 Cu 0.14215(2) 0.488558(19) -0.00715(8)
S1 S 0.43465(7) 0.48254(9) 0.1294(3)
S2 S -0.15464(6) 0.51391(6) 0.04335(15)
N1 N 0.13748(15) 0.61641(15) 0.0182(6)
N2 N 0.1160(3) 0.8762(2) 0.0988(7)
H1 H 0.0847 0.9058 0.0157
H2 H 0.1433 0.9006 0.1993
N3 N 0.14255(14) 0.36081(16) 0.0201(6)
N4 N 0.14048(19) 0.09792(19) 0.0750(6)
H3 H 0.1103 0.0676 -0.0093
H4 H 0.1713 0.0738 0.1694
N5 N 0.26627(19) 0.49063(15) 0.0131(8)
N6 N 0.01849(17) 0.48659(13) -0.0103(7)
C1 C 0.0886(2) 0.6644(2) -0.1078(6)
H5 H 0.0588 0.6377 -0.2154
C2 C 0.0802(2) 0.7497(2) -0.0869(6)
H6 H 0.0458 0.7799 -0.1796
C3 C 0.1225(3) 0.7915(2) 0.0714(6)
C4 C 0.1732(3) 0.7420(2) 0.2035(6)
H7 H 0.2028 0.7669 0.3140
C5 C 0.1790(2) 0.6576(2) 0.1698(6)
H8 H 0.2142 0.6263 0.2580
C6 C 0.1886(2) 0.3204(2) 0.1639(6)
H9 H 0.2232 0.3526 0.2516
C7 C 0.1884(2) 0.2348(2) 0.1907(6)
H10 H 0.2209 0.2103 0.2968
C8 C 0.1394(2) 0.1837(2) 0.0591(6)
C9 C 0.0907(2) 0.2259(2) -0.0908(6)
H11 H 0.0560 0.1952 -0.1816
C10 C 0.0938(2) 0.3117(2) -0.1044(6)
H12 H 0.0603 0.3382 -0.2056
C11 C -0.05288(19) 0.49840(15) 0.0106(7)
C12 C 0.3364(2) 0.48806(18) 0.0624(5)
Cu1A Cu -0.14215(2) 0.511442(19) 0.49285(8)
S2A S 0.15464(6) 0.48609(6) -0.45665(15)
loop_
_geom_bond_atom_site_label_1
_geom_bond_atom_site_label_2
_geom_bond_site_symmetry_1
_geom_bond_site_symmetry_2
Cu1 N1 1_555 1_555
S1 C12 1_555 1_555
S2 C11 1_555 1_555
N1 C1 1_555 1_555
N2 H1 1_555 1_555
H2 N2 1_555 1_555
N3 Cu1 1_555 1_555
N4 H3 1_555 1_555
H4 N4 1_555 1_555
N5 Cu1 1_555 1_555
N6 Cu1 1_555 1_555
C1 H5 1_555 1_555
C2 C1 1_555 1_555
H6 C2 1_555 1_555
C3 N2 1_555 1_555
C4 C3 1_555 1_555
H7 C4 1_555 1_555
C5 N1 1_555 1_555
H8 C5 1_555 1_555
C6 N3 1_555 1_555
H9 C6 1_555 1_555
C7 C6 1_555 1_555
H10 C7 1_555 1_555
C8 N4 1_555 1_555
C9 C8 1_555 1_555
H11 C9 1_555 1_555
C10 N3 1_555 1_555
H12 C10 1_555 1_555
C11 N6 1_555 1_555
C12 N5 1_555 1_555
Cu1A S2 1_555 1_555
S2A Cu1 1_555 1_555
C2 C3 1_555 1_555
C4 C5 1_555 1_555
C7 C8 1_555 1_555
C9 C10 1_555 1_555

#END
