
#######################################################################
#
#                 Cambridge Crystallographic Data Centre
#                                CCDC 
#
#######################################################################
#
# If this CIF has been generated from an entry in the Cambridge 
# Structural Database, then it will include bibliographic, chemical, 
# crystal, experimental, refinement or atomic coordinate data resulting 
# from the CCDC's data processing and validation procedures.
#
#######################################################################

data_LEWLEG02
_symmetry_cell_setting           orthorhombic
_symmetry_space_group_name_H-M   'P b n 21'
_symmetry_Int_Tables_number      33
_space_group_name_Hall           'P 2c -2ab'
loop_
_symmetry_equiv_pos_site_id
_symmetry_equiv_pos_as_xyz
1 x,y,z
2 -x,-y,1/2+z
3 1/2-x,1/2+y,z
4 1/2+x,1/2-y,1/2+z
_cell_length_a                   15.6369(14)
_cell_length_b                   15.6322(14)
_cell_length_c                   6.3057(6)
_cell_angle_alpha                90
_cell_angle_beta                 90
_cell_angle_gamma                90
_cell_volume                     1541.36
loop_
_atom_site_label
_atom_site_type_symbol
_atom_site_fract_x
_atom_site_fract_y
_atom_site_fract_z
Cu1 Cu 0.519643(16) 0.858378(18) 0.62696(6)
S1 S 0.47569(4) 1.15422(4) 0.57511(12)
S2 S 0.52561(5) 0.56197(5) 0.48668(15)
N1 N 0.52178(11) 0.98359(13) 0.6348(5)
N2 N 0.51575(13) 0.73369(15) 0.6033(6)
N3 N 0.64822(13) 0.85678(12) 0.5972(5)
N4 N 0.39121(14) 0.86467(12) 0.6006(5)
N5 N 0.91354(16) 0.85427(16) 0.5444(5)
H1 H 0.937(2) 0.822(2) 0.477(7)
H2 H 0.936(2) 0.877(2) 0.624(8)
N6 N 0.12856(19) 0.8917(2) 0.5092(6)
H3 H 0.108(2) 0.922(2) 0.590(6)
H4 H 0.117(3) 0.882(3) 0.405(7)
C1 C 0.50247(15) 1.05382(16) 0.6116(6)
C2 C 0.51898(14) 0.6625(2) 0.5530(5)
C3 C 0.69777(17) 0.90604(18) 0.7220(5)
H5 H 0.6707 0.9417 0.8239
C4 C 0.78607(18) 0.90742(18) 0.7096(5)
H6 H 0.8184 0.9430 0.8017
C5 C 0.82709(18) 0.85595(15) 0.5602(5)
C6 C 0.77555(19) 0.80638(17) 0.4264(5)
H7 H 0.8006 0.7718 0.3192
C7 C 0.68842(17) 0.80833(17) 0.4521(5)
H8 H 0.6545 0.7734 0.3619
C8 C 0.34256(17) 0.91425(18) 0.7277(5)
H9 H 0.3701 0.9441 0.8399
C9 C 0.25592(17) 0.92428(18) 0.7050(5)
H10 H 0.2249 0.9593 0.8012
C10 C 0.21356(18) 0.8827(2) 0.5398(5)
C11 C 0.2631(2) 0.8316(2) 0.4066(5)
H11 H 0.2373 0.8024 0.2910
C12 C 0.34942(18) 0.82364(18) 0.4432(5)
H12 H 0.3815 0.7872 0.3526
Cu1A Cu 0.480357(16) 1.141622(18) 0.12696(6)
S1A S 0.52431(4) 0.84578(4) 1.07511(12)
loop_
_geom_bond_atom_site_label_1
_geom_bond_atom_site_label_2
_geom_bond_site_symmetry_1
_geom_bond_site_symmetry_2
Cu1 N1 1_555 1_555
S1 C1 1_555 1_555
S2 C2 1_555 1_555
N1 C1 1_555 1_555
N2 Cu1 1_555 1_555
N3 Cu1 1_555 1_555
N4 Cu1 1_555 1_555
N5 H1 1_555 1_555
H2 N5 1_555 1_555
N6 H3 1_555 1_555
H4 N6 1_555 1_555
C2 N2 1_555 1_555
C3 N3 1_555 1_555
H5 C3 1_555 1_555
C4 C3 1_555 1_555
H6 C4 1_555 1_555
C5 N5 1_555 1_555
C6 C5 1_555 1_555
H7 C6 1_555 1_555
C7 N3 1_555 1_555
H8 C7 1_555 1_555
C8 N4 1_555 1_555
H9 C8 1_555 1_555
C9 C8 1_555 1_555
H10 C9 1_555 1_555
C10 N6 1_555 1_555
C11 C10 1_555 1_555
H11 C11 1_555 1_555
C12 N4 1_555 1_555
H12 C12 1_555 1_555
Cu1A S1 1_555 1_555
S1A Cu1 1_555 1_555
C4 C5 1_555 1_555
C6 C7 1_555 1_555
C9 C10 1_555 1_555
C11 C12 1_555 1_555

#END
