
#######################################################################
#
#                 Cambridge Crystallographic Data Centre
#                                CCDC 
#
#######################################################################
#
# If this CIF has been generated from an entry in the Cambridge 
# Structural Database, then it will include bibliographic, chemical, 
# crystal, experimental, refinement or atomic coordinate data resulting 
# from the CCDC's data processing and validation procedures.
#
#######################################################################

data_LEWMAD
_symmetry_cell_setting           monoclinic
_symmetry_space_group_name_H-M   'P 21/n'
_symmetry_Int_Tables_number      14
_space_group_name_Hall           '-P 2yn'
loop_
_symmetry_equiv_pos_site_id
_symmetry_equiv_pos_as_xyz
1 x,y,z
2 1/2-x,1/2+y,1/2-z
3 -x,-y,-z
4 1/2+x,1/2-y,1/2+z
_cell_length_a                   13.302(3)
_cell_length_b                   7.5138(15)
_cell_length_c                   16.637(3)
_cell_angle_alpha                90
_cell_angle_beta                 103.61(3)
_cell_angle_gamma                90
_cell_volume                     1616.15
loop_
_atom_site_label
_atom_site_type_symbol
_atom_site_fract_x
_atom_site_fract_y
_atom_site_fract_z
Ni1 Ni 0.96081(3) 0.75080(8) 0.08843(2)
N1 N 0.8247(2) 0.8445(4) 0.11769(18)
N2 N 1.0329(2) 0.6616(4) 0.20735(18)
N3 N 0.8924(2) 0.4976(4) 0.06451(19)
N4 N 0.8995(2) 0.4122(4) 0.00706(18)
N5 N 0.9033(2) 0.3246(5) -0.0506(2)
N6 N 0.8943(2) 0.8230(5) -0.03571(19)
N7 N 0.9355(2) 0.9109(4) -0.07639(17)
N8 N 0.9752(2) 0.9938(4) -0.11985(18)
C1 C 0.7687(2) 0.7467(6) 0.1574(2)
H1 H 0.7946 0.6367 0.1780
C2 C 0.6739(3) 0.7995(6) 0.1698(3)
C3 C 0.6364(3) 0.9620(6) 0.1375(3)
H2 H 0.5723 1.0008 0.1438
C4 C 0.6919(3) 1.0674(6) 0.0962(3)
C5 C 0.7865(3) 1.0019(5) 0.0874(2)
H3 H 0.8250 1.0708 0.0592
C6 C 0.6139(4) 0.6814(8) 0.2142(3)
H4 H 0.6058 0.7395 0.2637
H5 H 0.6504 0.5713 0.2284
H6 H 0.5470 0.6577 0.1790
C7 C 0.6544(4) 1.2464(8) 0.0597(4)
H7 H 0.5988 1.2296 0.0117
H8 H 0.7102 1.3080 0.0443
H9 H 0.6302 1.3155 0.1000
C8 C 1.0760(3) 0.5005(5) 0.2153(2)
H10 H 1.0626 0.4258 0.1694
C9 C 1.1401(3) 0.4378(5) 0.2882(2)
C10 C 1.1573(3) 0.5498(6) 0.3552(2)
H11 H 1.1994 0.5122 0.4052
C11 C 1.1134(3) 0.7170(5) 0.3499(2)
C12 C 1.0516(3) 0.7675(6) 0.2740(2)
H12 H 1.0218 0.8801 0.2692
C13 C 1.1890(3) 0.2566(7) 0.2905(3)
H13 H 1.2567 0.2681 0.2800
H14 H 1.1470 0.1823 0.2489
H15 H 1.1946 0.2041 0.3439
C14 C 1.1346(4) 0.8427(7) 0.4226(2)
H16 H 1.1220 0.7828 0.4703
H17 H 1.0899 0.9443 0.4101
H18 H 1.2054 0.8810 0.4339
Ni1B Ni 1.03919(3) 0.24920(8) -0.08843(2)
Ni1B_2 Ni 1.03919(3) 1.24920(8) -0.08843(2)
N5B N 1.0967(2) 0.6754(5) 0.0506(2)
N8B N 1.0248(2) 1.0062(4) 0.11985(18)
loop_
_geom_bond_atom_site_label_1
_geom_bond_atom_site_label_2
_geom_bond_site_symmetry_1
_geom_bond_site_symmetry_2
Ni1 N1 1_555 1_555
N1 C1 1_555 1_555
N2 Ni1 1_555 1_555
N3 Ni1 1_555 1_555
N4 N3 1_555 1_555
N5 N4 1_555 1_555
N6 Ni1 1_555 1_555
N7 N6 1_555 1_555
N8 N7 1_555 1_555
C1 H1 1_555 1_555
C2 C1 1_555 1_555
C3 C2 1_555 1_555
H2 C3 1_555 1_555
C4 C3 1_555 1_555
C5 N1 1_555 1_555
H3 C5 1_555 1_555
C6 C2 1_555 1_555
H4 C6 1_555 1_555
H5 C6 1_555 1_555
H6 C6 1_555 1_555
C7 C4 1_555 1_555
H7 C7 1_555 1_555
H8 C7 1_555 1_555
H9 C7 1_555 1_555
C8 N2 1_555 1_555
H10 C8 1_555 1_555
C9 C8 1_555 1_555
C10 C9 1_555 1_555
H11 C10 1_555 1_555
C11 C10 1_555 1_555
C12 N2 1_555 1_555
H12 C12 1_555 1_555
C13 C9 1_555 1_555
H13 C13 1_555 1_555
H14 C13 1_555 1_555
H15 C13 1_555 1_555
C14 C11 1_555 1_555
H16 C14 1_555 1_555
H17 C14 1_555 1_555
H18 C14 1_555 1_555
Ni1B N5 1_555 1_555
Ni1B_2 N8 1_555 1_555
N5B Ni1 1_555 1_555
N8B Ni1 1_555 1_555
C4 C5 1_555 1_555
C11 C12 1_555 1_555

#END
