
#######################################################################
#
#                 Cambridge Crystallographic Data Centre
#                                CCDC 
#
#######################################################################
#
# If this CIF has been generated from an entry in the Cambridge 
# Structural Database, then it will include bibliographic, chemical, 
# crystal, experimental, refinement or atomic coordinate data resulting 
# from the CCDC's data processing and validation procedures.
#
#######################################################################

data_LEWNAE
_symmetry_cell_setting           tetragonal
_symmetry_space_group_name_H-M   'P 41'
_symmetry_Int_Tables_number      76
_space_group_name_Hall           'P 4w'
loop_
_symmetry_equiv_pos_site_id
_symmetry_equiv_pos_as_xyz
1 x,y,z
2 -x,-y,1/2+z
3 -y,x,1/4+z
4 y,-x,3/4+z
_cell_length_a                   15.64840(10)
_cell_length_b                   15.64840(10)
_cell_length_c                   36.3862(5)
_cell_angle_alpha                90
_cell_angle_beta                 90
_cell_angle_gamma                90
_cell_volume                     8909.98
loop_
_atom_site_label
_atom_site_type_symbol
_atom_site_fract_x
_atom_site_fract_y
_atom_site_fract_z
Cd1 Cd 0.61733(3) 1.00365(3) 0.117760(14)
Cd2 Cd 0.10461(3) 0.51353(3) 0.111209(14)
Cd3 Cd 0.00877(3) -0.40102(3) 0.216342(17)
Cd4 Cd 0.99629(4) 0.55481(4) -0.004037(18)
Si1 Si 0.60763(10) 0.50662(10) 0.11431(7)
Si2 Si 0.11038(10) 0.00855(10) 0.11392(7)
C1 C 0.6985(4) 0.4756(4) 0.0834(2)
C2 C 0.6862(4) 0.4208(4) 0.05335(19)
H1 H 0.6312 0.4025 0.0477
C3 C 0.7526(4) 0.3939(5) 0.0323(2)
H2 H 0.7418 0.3573 0.0127
C4 C 0.8325(5) 0.4184(5) 0.0388(2)
H3 H 0.8765 0.4010 0.0233
C5 C 0.8499(4) 0.4710(4) 0.06945(19)
C6 C 0.7826(4) 0.5004(4) 0.09148(19)
H4 H 0.7937 0.5362 0.1113
C7 C 0.9405(4) 0.4963(4) 0.0785(2)
C8 C 0.6412(3) 0.5980(4) 0.14436(19)
C9 C 0.6884(4) 0.5840(4) 0.1766(2)
H5 H 0.7026 0.5286 0.1835
C10 C 0.7142(5) 0.6530(5) 0.1982(2)
H6 H 0.7450 0.6435 0.2196
C11 C 0.6940(4) 0.7345(4) 0.1878(2)
H7 H 0.7105 0.7801 0.2026
C12 C 0.6489(4) 0.7503(4) 0.1552(2)
C13 C 0.6235(4) 0.6818(4) 0.13445(19)
H8 H 0.5933 0.6919 0.1129
C14 C 0.6309(4) 0.8412(4) 0.1436(2)
C15 C 0.5140(4) 0.5384(4) 0.0846(2)
C16 C 0.5255(4) 0.5749(4) 0.0498(2)
H9 H 0.5803 0.5811 0.0403
C17 C 0.4560(5) 0.6015(5) 0.0296(2)
H10 H 0.4649 0.6306 0.0077
C18 C 0.3754(4) 0.5866(5) 0.0409(2)
H11 H 0.3298 0.6005 0.0257
C19 C 0.3602(4) 0.5508(4) 0.0749(2)
C20 C 0.4293(4) 0.5277(4) 0.0974(2)
H12 H 0.4195 0.5054 0.1207
C21 C 0.2710(4) 0.5364(4) 0.0893(2)
C22 C 0.5798(4) 0.4122(4) 0.14374(19)
C23 C 0.5413(5) 0.4234(4) 0.1783(2)
H13 H 0.5300 0.4782 0.1869
C24 C 0.5203(6) 0.3529(5) 0.1997(3)
H14 H 0.4946 0.3612 0.2225
C25 C 0.5366(5) 0.2704(5) 0.1878(2)
H15 H 0.5211 0.2239 0.2023
C26 C 0.5762(4) 0.2582(4) 0.1546(2)
C27 C 0.5960(4) 0.3299(4) 0.1322(2)
H16 H 0.6205 0.3212 0.1092
C28 C 0.5948(4) 0.1708(4) 0.1407(2)
C29 C 0.0837(4) 0.1042(4) 0.14247(18)
C30 C 0.0952(4) 0.1871(4) 0.1288(2)
H17 H 0.1149 0.1948 0.1050
C31 C 0.0774(4) 0.2591(4) 0.1508(2)
C32 C 0.0464(5) 0.2479(4) 0.1860(2)
H18 H 0.0353 0.2952 0.2007
C33 C 0.0316(5) 0.1651(4) 0.1997(2)
H19 H 0.0086 0.1571 0.2230
C34 C 0.0519(4) 0.0966(4) 0.1778(2)
H20 H 0.0438 0.0420 0.1873
C35 C 0.0930(5) 0.3465(4) 0.1346(2)
C36 C 0.2079(4) 0.0310(4) 0.0851(2)
C37 C 0.2011(4) 0.0699(5) 0.0504(2)
H21 H 0.1482 0.0868 0.0414
C38 C 0.2754(4) 0.0828(5) 0.0297(2)
H22 H 0.2711 0.1061 0.0063
C39 C 0.3531(4) 0.0622(4) 0.0430(2)
H23 H 0.4014 0.0714 0.0286
C40 C 0.3618(4) 0.0279(4) 0.0774(2)
C41 C 0.2864(4) 0.0107(4) 0.09764(19)
H24 H 0.2913 -0.0156 0.1205
C42 C 0.4486(4) 0.0084(4) 0.0936(2)
C43 C 0.0189(4) -0.0193(4) 0.08306(19)
C44 C 0.0316(4) -0.0604(4) 0.0492(2)
H25 H 0.0869 -0.0725 0.0414
C45 C -0.0382(4) -0.0836(5) 0.0267(2)
H26 H -0.0295 -0.1120 0.0046
C46 C -0.1217(4) -0.0626(4) 0.0386(2)
H27 H -0.1683 -0.0741 0.0236
C47 C -0.1342(4) -0.0247(4) 0.0729(2)
C48 C -0.0658(4) -0.0053(4) 0.0945(2)
H28 H -0.0754 0.0179 0.1177
C49 C -0.2242(4) -0.0083(4) 0.0860(2)
C50 C 0.1332(4) -0.0844(3) 0.14464(17)
C51 C 0.1804(4) -0.0745(4) 0.17719(19)
H29 H 0.2003 -0.0207 0.1838
C52 C 0.1983(4) -0.1467(4) 0.2003(2)
H30 H 0.2272 -0.1396 0.2224
C53 C 0.1726(4) -0.2247(4) 0.18940(19)
H31 H 0.1854 -0.2714 0.2042
C54 C 0.1286(4) -0.2385(3) 0.1575(2)
C55 C 0.1080(4) -0.1661(4) 0.1345(2)
H32 H 0.0778 -0.1742 0.1128
C56 C 0.1050(4) -0.3270(4) 0.1437(2)
C57 C 0.8181(10) 0.5581(11) -0.0528(5)
H33 H 0.8178 0.5407 -0.0784
H34 H 0.8386 0.6165 -0.0524
C58 C 0.7241(11) 0.5617(9) -0.0408(5)
H35 H 0.6940 0.6024 -0.0557
H36 H 0.7208 0.5786 -0.0155
H37 H 0.6986 0.5063 -0.0437
C59 C -0.0867(5) -0.2296(5) 0.2319(3)
H38 H -0.0960 -0.2575 0.2541
C60 C -0.1102(9) -0.0983(9) 0.1948(4)
H39 H -0.0799 -0.1298 0.1763
H40 H -0.0792 -0.0472 0.2007
H41 H -0.1659 -0.0834 0.1858
C61 C -0.1656(7) -0.1128(7) 0.2599(3)
H42 H -0.1668 -0.1530 0.2799
H43 H -0.2230 -0.0993 0.2527
H44 H -0.1369 -0.0617 0.2677
C62 C 0.9233(6) 0.6883(5) 0.0529(2)
H45 H 0.9770 0.6844 0.0638
C63 C 0.7747(5) 0.7277(6) 0.0571(3)
H46 H 0.7747 0.7093 0.0319
H47 H 0.7578 0.7866 0.0583
H48 H 0.7353 0.6935 0.0710
C64 C 0.8702(5) 0.7436(5) 0.1112(3)
H49 H 0.9287 0.7361 0.1186
H50 H 0.8340 0.7087 0.1263
H51 H 0.8544 0.8025 0.1140
N1 N -0.1189(5) -0.1512(5) 0.2280(2)
N2 N 0.8605(4) 0.7182(4) 0.0724(2)
O1 O 0.9971(3) 0.4984(3) 0.05426(13)
O2 O 0.1021(4) -0.3539(4) 0.26082(18)
O3 O 0.9567(3) 0.5098(3) 0.11131(15)
O4 O 0.0624(5) -0.5354(4) 0.22385(18)
O5 O 0.6172(3) 0.8535(3) 0.11038(18)
O6 O -0.0948(3) -0.4625(3) 0.18108(15)
O7 O 0.6323(3) 0.9003(3) 0.16690(16)
O8 O -0.0859(4) -0.4250(4) 0.26251(16)
O9 O 0.2104(3) 0.5336(3) 0.06609(14)
O10 O 1.0536(8) 0.4328(6) -0.0193(2)
O11 O 0.2562(3) 0.5270(4) 0.12287(16)
O12 O 1.1174(5) 0.6239(7) 0.0146(3)
O13 O 0.6181(4) 0.1605(3) 0.10761(17)
O14 O 1.0294(4) 0.6241(4) -0.05814(17)
O15 O 0.5903(3) 0.1087(3) 0.16191(16)
O16 O 0.1046(3) 0.3580(3) 0.10112(16)
O17 O 0.0929(4) 0.4098(3) 0.15692(16)
O18 O 0.5126(3) 0.0145(4) 0.07322(16)
O19 O 0.4533(3) -0.0123(4) 0.12690(17)
O20 O -0.2844(3) -0.0097(3) 0.06486(15)
O21 O -0.2332(3) 0.0054(3) 0.11988(16)
O22 O 0.0979(3) -0.3858(3) 0.16694(15)
O23 O 0.0988(3) -0.3378(3) 0.11019(14)
O24 O 0.9151(4) 0.6645(4) 0.02025(17)
O25 O 0.8800(6) 0.5099(6) -0.0360(3)
H52 H 0.8734 0.4510 -0.0379
O26 O -0.0458(4) -0.2674(3) 0.20830(18)
Cd1_2 Cd -0.38267(3) 0.00365(3) 0.117760(14)
Cd1_3 Cd 0.61733(3) 0.00365(3) 0.117760(14)
Cd2_2 Cd 0.10461(3) -0.48647(3) 0.111209(14)
Cd2_3 Cd 1.10461(3) 0.51353(3) 0.111209(14)
O1_2 O -0.0029(3) 0.4984(3) 0.05426(13)
O3_2 O -0.0433(3) 0.5098(3) 0.11131(15)
O13_2 O 0.6181(4) 1.1605(3) 0.10761(17)
O15_2 O 0.5903(3) 1.1087(3) 0.16191(16)
O18_2 O 0.5126(3) 1.0145(4) 0.07322(16)
O19_2 O 0.4533(3) 0.9877(4) 0.12690(17)
O20_2 O 0.7156(3) 0.9903(3) 0.06486(15)
O21_2 O 0.7668(3) 1.0054(3) 0.11988(16)
O22_2 O 0.0979(3) 0.6142(3) 0.16694(15)
O23_2 O 0.0988(3) 0.6622(3) 0.11019(14)
loop_
_geom_bond_atom_site_label_1
_geom_bond_atom_site_label_2
_geom_bond_site_symmetry_1
_geom_bond_site_symmetry_2
Cd1 O5 1_555 1_555
Cd2 O9 1_555 1_555
Cd3 O2 1_555 1_555
Cd4 O1 1_555 1_555
Si1 C1 1_555 1_555
Si2 C29 1_555 1_555
C1 C2 1_555 1_555
C2 H1 1_555 1_555
C3 C2 1_555 1_555
H2 C3 1_555 1_555
C4 C3 1_555 1_555
H3 C4 1_555 1_555
C5 C4 1_555 1_555
C6 C1 1_555 1_555
H4 C6 1_555 1_555
C7 C5 1_555 1_555
C8 Si1 1_555 1_555
C9 C8 1_555 1_555
H5 C9 1_555 1_555
C10 C9 1_555 1_555
H6 C10 1_555 1_555
C11 C10 1_555 1_555
H7 C11 1_555 1_555
C12 C11 1_555 1_555
C13 C8 1_555 1_555
H8 C13 1_555 1_555
C14 C12 1_555 1_555
C15 Si1 1_555 1_555
C16 C15 1_555 1_555
H9 C16 1_555 1_555
C17 C16 1_555 1_555
H10 C17 1_555 1_555
C18 C17 1_555 1_555
H11 C18 1_555 1_555
C19 C18 1_555 1_555
C20 C15 1_555 1_555
H12 C20 1_555 1_555
C21 C19 1_555 1_555
C22 Si1 1_555 1_555
C23 C22 1_555 1_555
H13 C23 1_555 1_555
C24 C23 1_555 1_555
H14 C24 1_555 1_555
C25 C24 1_555 1_555
H15 C25 1_555 1_555
C26 C25 1_555 1_555
C27 C22 1_555 1_555
H16 C27 1_555 1_555
C28 C26 1_555 1_555
C29 C30 1_555 1_555
C30 H17 1_555 1_555
C31 C30 1_555 1_555
C32 C31 1_555 1_555
H18 C32 1_555 1_555
C33 C32 1_555 1_555
H19 C33 1_555 1_555
C34 C29 1_555 1_555
H20 C34 1_555 1_555
C35 C31 1_555 1_555
C36 Si2 1_555 1_555
C37 C36 1_555 1_555
H21 C37 1_555 1_555
C38 C37 1_555 1_555
H22 C38 1_555 1_555
C39 C38 1_555 1_555
H23 C39 1_555 1_555
C40 C39 1_555 1_555
C41 C36 1_555 1_555
H24 C41 1_555 1_555
C42 C40 1_555 1_555
C43 Si2 1_555 1_555
C44 C43 1_555 1_555
H25 C44 1_555 1_555
C45 C44 1_555 1_555
H26 C45 1_555 1_555
C46 C45 1_555 1_555
H27 C46 1_555 1_555
C47 C46 1_555 1_555
C48 C43 1_555 1_555
H28 C48 1_555 1_555
C49 C47 1_555 1_555
C50 Si2 1_555 1_555
C51 C50 1_555 1_555
H29 C51 1_555 1_555
C52 C51 1_555 1_555
H30 C52 1_555 1_555
C53 C52 1_555 1_555
H31 C53 1_555 1_555
C54 C53 1_555 1_555
C55 C50 1_555 1_555
H32 C55 1_555 1_555
C56 C54 1_555 1_555
C57 H33 1_555 1_555
H34 C57 1_555 1_555
C58 C57 1_555 1_555
H35 C58 1_555 1_555
H36 C58 1_555 1_555
H37 C58 1_555 1_555
C59 H38 1_555 1_555
C60 H39 1_555 1_555
H40 C60 1_555 1_555
H41 C60 1_555 1_555
C61 H42 1_555 1_555
H43 C61 1_555 1_555
H44 C61 1_555 1_555
C62 H45 1_555 1_555
C63 H46 1_555 1_555
H47 C63 1_555 1_555
H48 C63 1_555 1_555
C64 H49 1_555 1_555
H50 C64 1_555 1_555
H51 C64 1_555 1_555
N1 C59 1_555 1_555
N2 C62 1_555 1_555
O1 C7 1_555 1_555
O3 C7 1_555 1_555
O4 Cd3 1_555 1_555
O5 C14 1_555 1_555
O6 Cd3 1_555 1_555
O7 Cd1 1_555 1_555
O8 Cd3 1_555 1_555
O9 C21 1_555 1_555
O10 Cd4 1_555 1_555
O11 Cd2 1_555 1_555
O12 Cd4 1_555 1_555
O13 C28 1_555 1_555
O14 Cd4 1_555 1_555
O15 C28 1_555 1_555
O16 Cd2 1_555 1_555
O17 Cd2 1_555 1_555
O18 C42 1_555 1_555
O19 C42 1_555 1_555
O20 C49 1_555 1_555
O21 C49 1_555 1_555
O22 Cd3 1_555 1_555
O23 C56 1_555 1_555
O24 Cd4 1_555 1_555
O25 Cd4 1_555 1_555
H52 O25 1_555 1_555
O26 Cd3 1_555 1_555
Cd1_2 O20 1_555 1_555
Cd1_3 O13 1_555 1_555
Cd2_2 O22 1_555 1_555
Cd2_3 O1 1_555 1_555
O1_2 Cd2 1_555 1_555
O3_2 Cd2 1_555 1_555
O13_2 Cd1 1_555 1_555
O15_2 Cd1 1_555 1_555
O18_2 Cd1 1_555 1_555
O19_2 Cd1 1_555 1_555
O20_2 Cd1 1_555 1_555
O21_2 Cd1 1_555 1_555
O22_2 Cd2 1_555 1_555
O23_2 Cd2 1_555 1_555
C5 C6 1_555 1_555
C12 C13 1_555 1_555
C14 O7 1_555 1_555
C19 C20 1_555 1_555
C21 O11 1_555 1_555
C26 C27 1_555 1_555
C33 C34 1_555 1_555
C35 O16 1_555 1_555
C35 O17 1_555 1_555
C40 C41 1_555 1_555
C47 C48 1_555 1_555
C54 C55 1_555 1_555
C56 O22 1_555 1_555
C57 O25 1_555 1_555
C59 O26 1_555 1_555
C60 N1 1_555 1_555
C61 N1 1_555 1_555
C62 O24 1_555 1_555
C63 N2 1_555 1_555
C64 N2 1_555 1_555
O3 Cd2_3 1_555 1_555
O15 Cd1_3 1_555 1_555
O18 Cd1_3 1_555 1_555
O19 Cd1_3 1_555 1_555
O21 Cd1_2 1_555 1_555
O23 Cd2_2 1_555 1_555

#END
