
#######################################################################
#
#                 Cambridge Crystallographic Data Centre
#                                CCDC 
#
#######################################################################
#
# If this CIF has been generated from an entry in the Cambridge 
# Structural Database, then it will include bibliographic, chemical, 
# crystal, experimental, refinement or atomic coordinate data resulting 
# from the CCDC's data processing and validation procedures.
#
#######################################################################

data_LEWRAH
_symmetry_cell_setting           monoclinic
_symmetry_space_group_name_H-M   'C 2/c'
_symmetry_Int_Tables_number      15
_space_group_name_Hall           '-C 2yn'
loop_
_symmetry_equiv_pos_site_id
_symmetry_equiv_pos_as_xyz
1 x,y,z
2 1/2+x,1/2+y,z
3 -x,y,1/2-z
4 1/2-x,1/2+y,1/2-z
5 -x,-y,-z
6 1/2-x,1/2-y,-z
7 x,-y,1/2+z
8 1/2+x,1/2-y,1/2+z
_cell_length_a                   27.276(6)
_cell_length_b                   27.506(6)
_cell_length_c                   15.343(3)
_cell_angle_alpha                90
_cell_angle_beta                 104.55(3)
_cell_angle_gamma                90
_cell_volume                     11142
loop_
_atom_site_label
_atom_site_type_symbol
_atom_site_fract_x
_atom_site_fract_y
_atom_site_fract_z
Yb1 Yb 0.680305(8) -0.190851(7) 1.247944(13)
Pt1 Pt 0.970591(6) -0.003938(6) 1.140722(11)
S1 S 0.70800(6) -0.03147(6) 1.40576(13)
S2 S 0.80828(6) -0.29999(6) 1.15843(11)
S3 S 0.63353(10) -0.03926(9) 1.05414(18)
N1 N 1.03093(14) 0.03257(14) 1.1124(2)
N2 N 1.01476(14) -0.06140(14) 1.1193(2)
N3 N 0.75584(16) -0.14592(15) 1.2207(3)
N4 N 0.64721(15) -0.27223(15) 1.2769(3)
O1 O 0.70550(12) -0.13258(12) 1.3595(2)
O2 O 0.74423(12) -0.22411(12) 1.3548(2)
O3 O 0.72047(13) -0.24308(12) 1.1710(2)
O4 O 0.62291(13) -0.21104(13) 1.1165(2)
O5 O 0.64547(13) -0.11931(13) 1.1798(2)
O6 O 0.61378(12) -0.17650(13) 1.3061(2)
C1 C 1.03630(19) 0.08145(18) 1.1100(3)
H1 H 1.0103 0.1012 1.1191
C2 C 1.0789(2) 0.1028(2) 1.0946(3)
H2 H 1.0811 0.1365 1.0916
C3 C 1.1182(2) 0.0740(2) 1.0837(4)
H3 H 1.1476 0.0879 1.0747
C4 C 1.1133(2) 0.0240(2) 1.0863(4)
H4 H 1.1395 0.0040 1.0792
C5 C 1.06905(18) 0.00384(18) 1.0995(3)
C6 C 1.05930(17) -0.04889(18) 1.1004(3)
C7 C 1.09122(19) -0.0837(2) 1.0811(3)
H5 H 1.1210 -0.0746 1.0664
C8 C 1.0786(2) -0.1325(2) 1.0836(4)
H6 H 1.0997 -0.1564 1.0707
C9 C 1.0341(2) -0.1451(2) 1.1056(3)
H7 H 1.0253 -0.1776 1.1089
C10 C 1.00293(19) -0.10858(18) 1.1227(3)
H8 H 0.9728 -0.1170 1.1369
C11 C 0.91642(17) -0.04317(17) 1.1661(3)
C12 C 0.88339(18) -0.06865(18) 1.1817(3)
C13 C 0.84191(18) -0.09483(18) 1.1982(3)
C14 C 0.84189(18) -0.14581(18) 1.2072(3)
H9 H 0.8705 -0.1637 1.2051
C15 C 0.79945(19) -0.16912(18) 1.2192(3)
H10 H 0.8008 -0.2027 1.2266
C16 C 0.75660(18) -0.09699(17) 1.2154(3)
H11 H 0.7276 -0.0801 1.2186
C17 C 0.79764(18) -0.07051(17) 1.2056(3)
H12 H 0.7962 -0.0367 1.2040
C18 C 0.56738(17) -0.44588(17) 1.3428(3)
C19 C 0.58855(18) -0.40914(18) 1.3306(3)
C20 C 0.67701(19) -0.31167(18) 1.2959(3)
H13 H 0.7112 -0.3082 1.2983
C21 C 0.65967(19) -0.35687(18) 1.3119(3)
H14 H 0.6818 -0.3832 1.3227
C22 C 0.60871(18) -0.36329(17) 1.3119(3)
C23 C 0.5781(2) -0.32237(19) 1.2921(3)
H15 H 0.5439 -0.3244 1.2911
C24 C 0.59832(19) -0.27885(18) 1.2741(3)
H16 H 0.5766 -0.2524 1.2590
C25 C 0.82271(18) -0.24214(19) 1.4515(3)
C26 C 0.78011(18) -0.20595(18) 1.4156(3)
C27 C 0.78476(18) -0.15901(18) 1.4485(3)
H17 H 0.8137 -0.1502 1.4921
C28 C 0.74635(18) -0.12420(18) 1.4172(3)
C29 C 0.75428(19) -0.07360(19) 1.4501(3)
C30 C 0.7944(2) -0.0518(2) 1.5085(3)
H18 H 0.8230 -0.0687 1.5395
C31 C 0.7883(2) -0.0016(2) 1.5174(4)
H19 H 0.8124 0.0183 1.5543
C32 C 0.7436(3) 0.0144(2) 1.4663(5)
H20 H 0.7332 0.0467 1.4640
C33 C 0.5562(2) -0.1433(2) 1.3786(4)
C34 C 0.58815(19) -0.1386(2) 1.3097(4)
C35 C 0.5851(2) -0.0969(2) 1.2597(4)
H21 H 0.5647 -0.0717 1.2705
C36 C 0.6116(2) -0.0909(2) 1.1924(4)
C37 C 0.5997(2) -0.0483(2) 1.1322(5)
C38 C 0.5643(3) -0.0132(3) 1.1243(7)
H22 H 0.5422 -0.0114 1.1616
C39 C 0.5637(4) 0.0203(3) 1.0550(8)
H23 H 0.5409 0.0461 1.0405
C40 C 0.5993(4) 0.0109(3) 1.0129(8)
H24 H 0.6050 0.0296 0.9660
C41 C 0.5694(2) -0.2475(2) 0.9906(4)
C42 C 0.6218(2) -0.2434(2) 1.0574(3)
C43 C 0.6593(2) -0.2743(2) 1.0464(3)
H25 H 0.6521 -0.2976 1.0009
C44 C 0.7086(2) -0.27124(17) 1.1034(3)
C45 C 0.7494(2) -0.30144(18) 1.0850(3)
C46 C 0.7509(2) -0.33078(19) 1.0108(3)
H26 H 0.7229 -0.3361 0.9626
C47 C 0.7977(3) -0.3509(2) 1.0166(4)
H27 H 0.8047 -0.3713 0.9729
C48 C 0.8325(3) -0.3381(2) 1.0925(4)
H28 H 0.8659 -0.3488 1.1070
F1 F 0.85987(12) -0.22439(13) 1.5181(2)
F2 F 0.80604(12) -0.28226(12) 1.4822(2)
F3 F 0.84447(12) -0.25532(13) 1.3862(2)
F4 F 0.52922(14) -0.10350(15) 1.3853(3)
F5 F 0.56770(15) -0.27915(17) 0.9237(3)
F6 F 0.52347(17) -0.17889(16) 1.3584(3)
F7 F 0.53451(15) -0.26236(17) 1.0317(3)
F8 F 0.55377(17) -0.20494(16) 0.9525(3)
F9 F 0.58551(18) -0.1522(2) 1.4604(3)
Pt1C Pt 0.529409(6) -0.503938(6) 1.359278(11)
C18C C 0.93262(17) 0.05412(17) 1.1572(3)
Cl1 Cl 0.80976(12) -0.38045(11) 1.3766(2)
Cl2 Cl 0.74936(13) -0.44292(13) 1.2447(2)
C50 C 0.8070(5) -0.4207(7) 1.2898(12)
H31 H 0.8191 -0.4046 1.2429
H32 H 0.8298 -0.4476 1.3119
Cl3 Cl 1.06173(14) -0.27170(16) 1.2206(3)
Cl4 Cl 1.0610(3) -0.3763(2) 1.2074(5)
C51 C 1.0676(6) -0.3208(6) 1.1558(11)
H33 H 1.1005 -0.3198 1.1426
H34 H 1.0420 -0.3188 1.0991
C49? C 0.7954(7) -0.4370(5) 1.3376(11)
H29? H 0.8258 -0.4515 1.3268
H30? H 0.7863 -0.4558 1.3847
loop_
_geom_bond_atom_site_label_1
_geom_bond_atom_site_label_2
_geom_bond_site_symmetry_1
_geom_bond_site_symmetry_2
Yb1 N3 1_555 1_555
Pt1 N1 1_555 1_555
S1 C29 1_555 1_555
S2 C45 1_555 1_555
S3 C37 1_555 1_555
N1 C1 1_555 1_555
N2 Pt1 1_555 1_555
N3 C15 1_555 1_555
N4 Yb1 1_555 1_555
O1 Yb1 1_555 1_555
O2 Yb1 1_555 1_555
O3 Yb1 1_555 1_555
O4 Yb1 1_555 1_555
O5 Yb1 1_555 1_555
O6 Yb1 1_555 1_555
C1 H1 1_555 1_555
C2 C1 1_555 1_555
H2 C2 1_555 1_555
C3 C2 1_555 1_555
H3 C3 1_555 1_555
C4 C3 1_555 1_555
H4 C4 1_555 1_555
C5 N1 1_555 1_555
C6 N2 1_555 1_555
C7 C6 1_555 1_555
H5 C7 1_555 1_555
C8 C7 1_555 1_555
H6 C8 1_555 1_555
C9 C8 1_555 1_555
H7 C9 1_555 1_555
C10 N2 1_555 1_555
H8 C10 1_555 1_555
C11 Pt1 1_555 1_555
C12 C11 1_555 1_555
C13 C12 1_555 1_555
C14 C13 1_555 1_555
H9 C14 1_555 1_555
C15 C14 1_555 1_555
H10 C15 1_555 1_555
C16 N3 1_555 1_555
H11 C16 1_555 1_555
C17 C13 1_555 1_555
H12 C17 1_555 1_555
C18 C19 1_555 1_555
C19 C22 1_555 1_555
C20 N4 1_555 1_555
H13 C20 1_555 1_555
C21 C20 1_555 1_555
H14 C21 1_555 1_555
C22 C21 1_555 1_555
C23 C22 1_555 1_555
H15 C23 1_555 1_555
C24 N4 1_555 1_555
H16 C24 1_555 1_555
C25 C26 1_555 1_555
C26 O2 1_555 1_555
C27 C26 1_555 1_555
H17 C27 1_555 1_555
C28 O1 1_555 1_555
C29 C28 1_555 1_555
C30 C29 1_555 1_555
H18 C30 1_555 1_555
C31 C30 1_555 1_555
H19 C31 1_555 1_555
C32 S1 1_555 1_555
H20 C32 1_555 1_555
C33 C34 1_555 1_555
C34 O6 1_555 1_555
C35 C34 1_555 1_555
H21 C35 1_555 1_555
C36 O5 1_555 1_555
C37 C36 1_555 1_555
C38 C37 1_555 1_555
H22 C38 1_555 1_555
C39 C38 1_555 1_555
H23 C39 1_555 1_555
C40 S3 1_555 1_555
H24 C40 1_555 1_555
C41 C42 1_555 1_555
C42 O4 1_555 1_555
C43 C42 1_555 1_555
H25 C43 1_555 1_555
C44 O3 1_555 1_555
C45 C44 1_555 1_555
C46 C45 1_555 1_555
H26 C46 1_555 1_555
C47 C46 1_555 1_555
H27 C47 1_555 1_555
C48 S2 1_555 1_555
H28 C48 1_555 1_555
F1 C25 1_555 1_555
F2 C25 1_555 1_555
F3 C25 1_555 1_555
F4 C33 1_555 1_555
F5 C41 1_555 1_555
F6 C33 1_555 1_555
F7 C41 1_555 1_555
F8 C41 1_555 1_555
F9 C33 1_555 1_555
Cl1 C50 1_555 1_555
Cl2 C50 1_555 1_555
C50 H31 1_555 1_555
H32 C50 1_555 1_555
Cl3 C51 1_555 1_555
Cl4 C51 1_555 1_555
C51 H33 1_555 1_555
H34 C51 1_555 1_555
Pt1C C18 1_555 1_555
C18C Pt1 1_555 1_555
C4 C5 1_555 1_555
C5 C6 1_555 1_555
C9 C10 1_555 1_555
C16 C17 1_555 1_555
C23 C24 1_555 1_555
C27 C28 1_555 1_555
C31 C32 1_555 1_555
C35 C36 1_555 1_555
C39 C40 1_555 1_555
C43 C44 1_555 1_555
C47 C48 1_555 1_555

#END
