
#######################################################################
#
#                 Cambridge Crystallographic Data Centre
#                                CCDC 
#
#######################################################################
#
# If this CIF has been generated from an entry in the Cambridge 
# Structural Database, then it will include bibliographic, chemical, 
# crystal, experimental, refinement or atomic coordinate data resulting 
# from the CCDC's data processing and validation procedures.
#
#######################################################################

data_LEWTIS
_symmetry_cell_setting           monoclinic
_symmetry_space_group_name_H-M   'P 21'
_symmetry_Int_Tables_number      4
_space_group_name_Hall           'P 2yb'
loop_
_symmetry_equiv_pos_site_id
_symmetry_equiv_pos_as_xyz
1 x,y,z
2 -x,1/2+y,-z
_cell_length_a                   10.991(2)
_cell_length_b                   14.254(3)
_cell_length_c                   11.361(2)
_cell_angle_alpha                90
_cell_angle_beta                 108.93(3)
_cell_angle_gamma                90
_cell_volume                     1683.62
loop_
_atom_site_label
_atom_site_type_symbol
_atom_site_fract_x
_atom_site_fract_y
_atom_site_fract_z
Zn1 Zn 0.11873(3) 0.71206(3) 0.36521(3)
O1 O 0.00690(19) 0.62507(18) 0.2443(2)
O2 O 0.1195(2) 0.61836(19) 0.1099(2)
O3 O 0.0493(2) 0.3242(2) -0.1202(2)
O4 O -0.1513(2) 0.29996(18) -0.2504(2)
O5 O 0.31836(19) 0.64488(18) 0.3967(2)
O6 O 0.3520(2) 0.6633(2) 0.2146(2)
H1 H 0.2741 0.6481 0.1858
O7 O 0.7798(2) 0.7628(2) 0.2080(2)
H2 H 0.8357 0.7828 0.1783
O8 O 0.9331(2) 0.79195(19) 0.3893(2)
N1 N 0.2025(2) 0.8071(2) 0.5041(3)
N2 N 0.1052(2) 0.6379(2) 0.5120(3)
C1 C -0.0775(3) 0.5406(2) 0.0528(3)
C2 C -0.0357(3) 0.4716(3) -0.0088(3)
H3 H 0.0540 0.4630 0.0079
C3 C -0.1216(3) 0.4139(3) -0.0950(3)
C4 C -0.2521(3) 0.4281(3) -0.1200(3)
H4 H -0.3111 0.3896 -0.1803
C5 C -0.3007(3) 0.4979(3) -0.0588(3)
C6 C -0.2108(3) 0.5532(2) 0.0299(3)
H5 H -0.2397 0.5995 0.0749
C7 C 0.0247(3) 0.6003(2) 0.1423(3)
C8 C -0.0697(3) 0.3401(3) -0.1592(3)
C9 C -0.4455(3) 0.5090(3) -0.0919(4)
C10 C -0.4828(4) 0.5915(3) -0.0231(4)
H6 H -0.4513 0.5795 0.0667
H7 H -0.5767 0.5980 -0.0511
H8 H -0.4443 0.6495 -0.0411
C11 C -0.5022(4) 0.4182(4) -0.0541(5)
H9 H -0.4704 0.4114 0.0366
H10 H -0.4756 0.3637 -0.0924
H11 H -0.5963 0.4222 -0.0828
C12 C -0.5101(4) 0.5241(4) -0.2320(4)
H12 H -0.4721 0.5790 -0.2588
H13 H -0.6025 0.5346 -0.2496
H14 H -0.4972 0.4685 -0.2772
C13 C 0.5165(3) 0.7075(3) 0.3959(3)
C14 C 0.6023(3) 0.7206(3) 0.3306(3)
H15 H 0.5787 0.7043 0.2450
C15 C 0.7232(3) 0.7580(3) 0.3921(3)
C16 C 0.7562(3) 0.7836(3) 0.5185(3)
H16 H 0.8397 0.8076 0.5602
C17 C 0.6703(3) 0.7747(3) 0.5831(3)
C18 C 0.5504(3) 0.7350(3) 0.5211(3)
H17 H 0.4906 0.7265 0.5646
C19 C 0.3862(3) 0.6689(3) 0.3360(3)
C20 C 0.8224(3) 0.7720(3) 0.3306(3)
C21 C 0.7087(3) 0.8096(3) 0.7194(3)
C22 C 0.5952(4) 0.8067(5) 0.7682(5)
H18 H 0.6233 0.8271 0.8553
H19 H 0.5620 0.7425 0.7625
H20 H 0.5273 0.8486 0.7184
C23 C 0.7529(7) 0.9111(4) 0.7242(5)
H21 H 0.8432 0.9128 0.7281
H22 H 0.7437 0.9417 0.7981
H23 H 0.7001 0.9441 0.6493
C24 C 0.8128(5) 0.7473(5) 0.7998(4)
H24 H 0.8850 0.7458 0.7671
H25 H 0.7790 0.6837 0.7998
H26 H 0.8423 0.7718 0.8850
C25 C 0.2475(3) 0.8916(3) 0.4950(3)
H27 H 0.2597 0.9091 0.4189
C26 C 0.2781(4) 0.9566(3) 0.5924(4)
H28 H 0.3098 1.0171 0.5825
C27 C 0.2612(4) 0.9310(3) 0.7034(4)
H29 H 0.2791 0.9746 0.7701
C28 C 0.2178(3) 0.8408(3) 0.7175(4)
C29 C 0.2022(4) 0.8063(4) 0.8299(4)
H30 H 0.2216 0.8461 0.9007
C30 C 0.1599(3) 0.7172(4) 0.8373(3)
H31 H 0.1523 0.6951 0.9135
C31 C 0.1267(3) 0.6564(3) 0.7304(3)
C32 C 0.0798(4) 0.5641(3) 0.7307(4)
H32 H 0.0691 0.5383 0.8038
C33 C 0.0498(4) 0.5122(3) 0.6225(4)
H33 H 0.0222 0.4489 0.6216
C34 C 0.0600(4) 0.5520(3) 0.5161(4)
H34 H 0.0332 0.5163 0.4414
C35 C 0.1395(3) 0.6887(2) 0.6186(3)
C36 C 0.1877(3) 0.7812(3) 0.6134(3)
Zn1_2 Zn 1.11873(3) 0.71206(3) 0.36521(3)
Zn1A Zn -0.11873(3) 0.21206(3) -0.36521(3)
O4A O 0.1513(2) 0.79996(18) 0.2504(2)
O8_2 O -0.0669(2) 0.79195(19) 0.3893(2)
loop_
_geom_bond_atom_site_label_1
_geom_bond_atom_site_label_2
_geom_bond_site_symmetry_1
_geom_bond_site_symmetry_2
Zn1 O1 1_555 1_555
O1 C7 1_555 1_555
O2 C7 1_555 1_555
O3 C8 1_555 1_555
O4 C8 1_555 1_555
O5 Zn1 1_555 1_555
O6 H1 1_555 1_555
O7 H2 1_555 1_555
O8 C20 1_555 1_555
N1 Zn1 1_555 1_555
N2 Zn1 1_555 1_555
C1 C2 1_555 1_555
C2 H3 1_555 1_555
C3 C2 1_555 1_555
C4 C3 1_555 1_555
H4 C4 1_555 1_555
C5 C4 1_555 1_555
C6 C1 1_555 1_555
H5 C6 1_555 1_555
C7 C1 1_555 1_555
C8 C3 1_555 1_555
C9 C5 1_555 1_555
C10 C9 1_555 1_555
H6 C10 1_555 1_555
H7 C10 1_555 1_555
H8 C10 1_555 1_555
C11 C9 1_555 1_555
H9 C11 1_555 1_555
H10 C11 1_555 1_555
H11 C11 1_555 1_555
C12 C9 1_555 1_555
H12 C12 1_555 1_555
H13 C12 1_555 1_555
H14 C12 1_555 1_555
C13 C14 1_555 1_555
C14 H15 1_555 1_555
C15 C14 1_555 1_555
C16 C15 1_555 1_555
H16 C16 1_555 1_555
C17 C16 1_555 1_555
C18 C13 1_555 1_555
H17 C18 1_555 1_555
C19 O5 1_555 1_555
C20 O7 1_555 1_555
C21 C17 1_555 1_555
C22 C21 1_555 1_555
H18 C22 1_555 1_555
H19 C22 1_555 1_555
H20 C22 1_555 1_555
C23 C21 1_555 1_555
H21 C23 1_555 1_555
H22 C23 1_555 1_555
H23 C23 1_555 1_555
C24 C21 1_555 1_555
H24 C24 1_555 1_555
H25 C24 1_555 1_555
H26 C24 1_555 1_555
C25 N1 1_555 1_555
H27 C25 1_555 1_555
C26 C25 1_555 1_555
H28 C26 1_555 1_555
C27 C26 1_555 1_555
H29 C27 1_555 1_555
C28 C27 1_555 1_555
C29 C28 1_555 1_555
H30 C29 1_555 1_555
C30 C29 1_555 1_555
H31 C30 1_555 1_555
C31 C30 1_555 1_555
C32 C31 1_555 1_555
H32 C32 1_555 1_555
C33 C32 1_555 1_555
H33 C33 1_555 1_555
C34 N2 1_555 1_555
H34 C34 1_555 1_555
C35 N2 1_555 1_555
C36 N1 1_555 1_555
Zn1_2 O8 1_555 1_555
Zn1A O4 1_555 1_555
O4A Zn1 1_555 1_555
O8_2 Zn1 1_555 1_555
O6 C19 1_555 1_555
C5 C6 1_555 1_555
C13 C19 1_555 1_555
C15 C20 1_555 1_555
C17 C18 1_555 1_555
C28 C36 1_555 1_555
C31 C35 1_555 1_555
C33 C34 1_555 1_555
C35 C36 1_555 1_555

#END
