
#######################################################################
#
#                 Cambridge Crystallographic Data Centre
#                                CCDC 
#
#######################################################################
#
# If this CIF has been generated from an entry in the Cambridge 
# Structural Database, then it will include bibliographic, chemical, 
# crystal, experimental, refinement or atomic coordinate data resulting 
# from the CCDC's data processing and validation procedures.
#
#######################################################################

data_LEWTOY
_symmetry_cell_setting           triclinic
_symmetry_space_group_name_H-M   'P -1'
_symmetry_Int_Tables_number      2
_space_group_name_Hall           '-P 1'
loop_
_symmetry_equiv_pos_site_id
_symmetry_equiv_pos_as_xyz
1 x,y,z
2 -x,-y,-z
_cell_length_a                   9.0401(4)
_cell_length_b                   10.1153(5)
_cell_length_c                   13.3557(5)
_cell_angle_alpha                105.9573(15)
_cell_angle_beta                 93.6439(10)
_cell_angle_gamma                95.9421(15)
_cell_volume                     1162.5
loop_
_atom_site_label
_atom_site_type_symbol
_atom_site_fract_x
_atom_site_fract_y
_atom_site_fract_z
Zn1 Zn 0.55196(4) 0.73961(4) 0.68288(3)
O1 O 0.6079(3) 0.7058(3) 0.52839(18)
H1 H 0.5505 0.6385 0.4889
H2 H 0.6126 0.7807 0.5124
O2 O 0.7177(3) 0.6389(2) 0.7362(2)
O3 O 0.5257(3) 0.4946(2) 0.64671(18)
O4 O 0.4771(3) 0.0137(3) 0.6886(2)
O5 O 0.6840(3) -0.0757(2) 0.71820(18)
N1 N 0.3181(3) 0.7304(3) 0.6476(2)
N2 N 0.4681(3) 0.7787(3) 0.8366(2)
C1 C 0.7230(4) 0.3998(3) 0.7200(2)
C2 C 0.6395(3) 0.2712(3) 0.7052(2)
H3 H 0.5352 0.2593 0.6849
C3 C 0.7076(4) 0.1604(3) 0.7199(2)
C4 C 0.8622(4) 0.1793(3) 0.7498(3)
H4 H 0.9094 0.1029 0.7583
C5 C 0.9476(4) 0.3078(3) 0.7672(3)
C6 C 0.8747(4) 0.4177(3) 0.7535(2)
H5 H 0.9301 0.5070 0.7673
C7 C 0.6510(4) 0.5179(3) 0.6999(2)
C8 C 0.6152(4) 0.0227(3) 0.7067(2)
C9 C 1.1166(4) 0.3311(4) 0.8001(3)
C10 C 1.1990(5) 0.3892(5) 0.7210(4)
H6 H 1.3059 0.4106 0.7445
H7 H 1.1591 0.4739 0.7158
H8 H 1.1843 0.3202 0.6523
C11 C 1.1777(5) 0.1961(5) 0.8008(5)
H9 H 1.1286 0.1565 0.8512
H10 H 1.2857 0.2149 0.8208
H11 H 1.1581 0.1303 0.7308
C12 C 1.1482(6) 0.4340(7) 0.9078(4)
H12 H 1.1109 0.3909 0.9602
H13 H 1.0979 0.5158 0.9095
H14 H 1.2561 0.4620 0.9235
C13 C 0.2441(4) 0.7011(4) 0.5539(3)
H15 H 0.2964 0.6716 0.4938
C14 C 0.0919(5) 0.7120(6) 0.5401(3)
H16 H 0.0423 0.6877 0.4715
C15 C 0.0140(4) 0.7572(5) 0.6245(3)
H17 H -0.0888 0.7674 0.6151
C16 C 0.0880(4) 0.7885(4) 0.7253(3)
C17 C 0.0159(4) 0.8325(4) 0.8190(3)
H18 H -0.0866 0.8457 0.8142
C18 C 0.0910(4) 0.8556(4) 0.9140(3)
H19 H 0.0403 0.8837 0.9750
C19 C 0.2469(4) 0.8382(4) 0.9243(3)
C20 C 0.3297(5) 0.8580(5) 1.0211(3)
H20 H 0.2842 0.8863 1.0845
C21 C 0.4747(6) 0.8363(6) 1.0231(3)
H21 H 0.5310 0.8473 1.0880
C22 C 0.5427(4) 0.7976(5) 0.9292(3)
H22 H 0.6453 0.7846 0.9323
C23 C 0.3214(4) 0.7989(3) 0.8343(2)
C24 C 0.2410(3) 0.7729(3) 0.7329(2)
Zn1_2 Zn 0.55196(4) -0.26039(4) 0.68288(3)
O5_2 O 0.6840(3) 0.9243(2) 0.71820(18)
O6 O 0.6996(5) 0.9348(4) 0.4661(2)
H23 H 0.639(5) 0.952(6) 0.421(4)
H24 H 0.751(6) 1.005(4) 0.508(4)
loop_
_geom_bond_atom_site_label_1
_geom_bond_atom_site_label_2
_geom_bond_site_symmetry_1
_geom_bond_site_symmetry_2
Zn1 O1 1_555 1_555
O1 H1 1_555 1_555
H2 O1 1_555 1_555
O2 Zn1 1_555 1_555
O3 Zn1 1_555 1_555
O4 C8 1_555 1_555
O5 C8 1_555 1_555
N1 Zn1 1_555 1_555
N2 Zn1 1_555 1_555
C1 C2 1_555 1_555
C2 H3 1_555 1_555
C3 C2 1_555 1_555
C4 C3 1_555 1_555
H4 C4 1_555 1_555
C5 C4 1_555 1_555
C6 C1 1_555 1_555
H5 C6 1_555 1_555
C7 O2 1_555 1_555
C8 C3 1_555 1_555
C9 C5 1_555 1_555
C10 C9 1_555 1_555
H6 C10 1_555 1_555
H7 C10 1_555 1_555
H8 C10 1_555 1_555
C11 C9 1_555 1_555
H9 C11 1_555 1_555
H10 C11 1_555 1_555
H11 C11 1_555 1_555
C12 C9 1_555 1_555
H12 C12 1_555 1_555
H13 C12 1_555 1_555
H14 C12 1_555 1_555
C13 N1 1_555 1_555
H15 C13 1_555 1_555
C14 C13 1_555 1_555
H16 C14 1_555 1_555
C15 C14 1_555 1_555
H17 C15 1_555 1_555
C16 C15 1_555 1_555
C17 C16 1_555 1_555
H18 C17 1_555 1_555
C18 C17 1_555 1_555
H19 C18 1_555 1_555
C19 C18 1_555 1_555
C20 C19 1_555 1_555
H20 C20 1_555 1_555
C21 C20 1_555 1_555
H21 C21 1_555 1_555
C22 N2 1_555 1_555
H22 C22 1_555 1_555
C23 N2 1_555 1_555
C24 N1 1_555 1_555
O6 H23 1_555 1_555
H24 O6 1_555 1_555
Zn1_2 O5 1_555 1_555
O5_2 Zn1 1_555 1_555
O3 C7 1_555 1_555
C1 C7 1_555 1_555
C5 C6 1_555 1_555
C16 C24 1_555 1_555
C19 C23 1_555 1_555
C21 C22 1_555 1_555
C23 C24 1_555 1_555

#END
