
#######################################################################
#
#                 Cambridge Crystallographic Data Centre
#                                CCDC 
#
#######################################################################
#
# If this CIF has been generated from an entry in the Cambridge 
# Structural Database, then it will include bibliographic, chemical, 
# crystal, experimental, refinement or atomic coordinate data resulting 
# from the CCDC's data processing and validation procedures.
#
#######################################################################

data_LEWTEO
_symmetry_cell_setting           monoclinic
_symmetry_space_group_name_H-M   'C 2/c'
_symmetry_Int_Tables_number      15
_space_group_name_Hall           '-C 2yn'
loop_
_symmetry_equiv_pos_site_id
_symmetry_equiv_pos_as_xyz
1 x,y,z
2 -x,y,1/2-z
3 1/2+x,1/2+y,z
4 1/2-x,1/2+y,1/2-z
5 -x,-y,-z
6 x,-y,1/2+z
7 1/2-x,1/2-y,-z
8 1/2+x,1/2-y,1/2+z
_cell_length_a                   22.638(5)
_cell_length_b                   9.995(2)
_cell_length_c                   19.913(4)
_cell_angle_alpha                90
_cell_angle_beta                 96.34(3)
_cell_angle_gamma                90
_cell_volume                     4478.09
loop_
_atom_site_label
_atom_site_type_symbol
_atom_site_fract_x
_atom_site_fract_y
_atom_site_fract_z
Zn1 Zn 0.40182(2) 0.64085(5) 0.55479(2)
O1 O 0.34381(14) 0.5307(3) 0.48837(15)
O2 O 0.46154(14) 0.4843(3) 0.57880(16)
H1 H 0.4716 0.4834 0.6207
H2 H 0.4921 0.4923 0.5578
O3 O 0.42472(14) 0.5883(4) 0.44195(15)
O4 O 0.43553(15) 0.4826(4) 0.20074(17)
O5 O 0.36055(14) 0.3764(3) 0.13902(15)
N1 N 0.46430(17) 0.7920(4) 0.59249(19)
N2 N 0.36241(18) 0.8247(4) 0.50969(18)
C1 C 0.3458(2) 0.4761(5) 0.3723(2)
C2 C 0.37760(19) 0.4732(4) 0.3162(2)
H3 H 0.4173 0.5055 0.3198
C3 C 0.3514(2) 0.4235(5) 0.2551(2)
C4 C 0.2924(2) 0.3799(5) 0.2496(2)
H4 H 0.2747 0.3461 0.2075
C5 C 0.2588(2) 0.3846(5) 0.3044(2)
C6 C 0.2873(2) 0.4322(5) 0.3656(2)
H5 H 0.2658 0.4347 0.4039
C7 C 0.3739(2) 0.5346(5) 0.4381(2)
C8 C 0.3854(2) 0.4279(5) 0.1935(2)
C9 C 0.1937(2) 0.3451(5) 0.2988(2)
C10 C 0.1698(2) 0.2954(6) 0.2274(2)
H6 H 0.1938 0.2197 0.2148
H7 H 0.1720 0.3681 0.1947
H8 H 0.1283 0.2669 0.2273
C11 C 0.1568(2) 0.4705(6) 0.3132(3)
H9 H 0.1615 0.5390 0.2790
H10 H 0.1707 0.5057 0.3580
H11 H 0.1147 0.4459 0.3115
C12 C 0.1843(2) 0.2348(6) 0.3499(3)
H12 H 0.2048 0.1533 0.3381
H13 H 0.1417 0.2165 0.3492
H14 H 0.2003 0.2641 0.3953
C13 C 0.5125(2) 0.7756(6) 0.6364(3)
H15 H 0.5217 0.6880 0.6529
C14 C 0.5501(3) 0.8797(6) 0.6594(3)
H16 H 0.5842 0.8631 0.6905
C15 C 0.5371(2) 1.0066(6) 0.6364(3)
H17 H 0.5624 1.0790 0.6515
C16 C 0.4862(2) 1.0296(5) 0.5903(3)
C17 C 0.4686(3) 1.1588(5) 0.5645(3)
H18 H 0.4929 1.2343 0.5769
C18 C 0.4178(3) 1.1750(6) 0.5226(3)
H19 H 0.4072 1.2616 0.5057
C19 C 0.3800(2) 1.0650(5) 0.5035(3)
C20 C 0.3245(3) 1.0761(7) 0.4617(3)
H20 H 0.3112 1.1612 0.4451
C21 C 0.2904(3) 0.9645(6) 0.4455(3)
H21 H 0.2535 0.9716 0.4179
C22 C 0.3113(2) 0.8398(5) 0.4705(2)
H22 H 0.2878 0.7627 0.4589
C23 C 0.3963(2) 0.9354(5) 0.5259(2)
C24 C 0.4510(2) 0.9170(5) 0.5706(2)
Zn1E Zn 0.40182(2) 0.35915(5) 0.05479(2)
O5E O 0.36055(14) 0.6236(3) 0.63902(15)
O6 O 0.5000 0.7215(7) 0.2500
H23 H 0.521(3) 0.647(4) 0.263(4)
H23A H 0.479(3) 0.647(4) 0.237(4)
loop_
_geom_bond_atom_site_label_1
_geom_bond_atom_site_label_2
_geom_bond_site_symmetry_1
_geom_bond_site_symmetry_2
Zn1 O1 1_555 1_555
O1 C7 1_555 1_555
O2 Zn1 1_555 1_555
H1 O2 1_555 1_555
H2 O2 1_555 1_555
O3 Zn1 1_555 1_555
O4 C8 1_555 1_555
O5 C8 1_555 1_555
N1 Zn1 1_555 1_555
N2 Zn1 1_555 1_555
C1 C2 1_555 1_555
C2 H3 1_555 1_555
C3 C2 1_555 1_555
C4 C3 1_555 1_555
H4 C4 1_555 1_555
C5 C4 1_555 1_555
C6 C1 1_555 1_555
H5 C6 1_555 1_555
C7 O3 1_555 1_555
C8 C3 1_555 1_555
C9 C5 1_555 1_555
C10 C9 1_555 1_555
H6 C10 1_555 1_555
H7 C10 1_555 1_555
H8 C10 1_555 1_555
C11 C9 1_555 1_555
H9 C11 1_555 1_555
H10 C11 1_555 1_555
H11 C11 1_555 1_555
C12 C9 1_555 1_555
H12 C12 1_555 1_555
H13 C12 1_555 1_555
H14 C12 1_555 1_555
C13 N1 1_555 1_555
H15 C13 1_555 1_555
C14 C13 1_555 1_555
H16 C14 1_555 1_555
C15 C14 1_555 1_555
H17 C15 1_555 1_555
C16 C15 1_555 1_555
C17 C16 1_555 1_555
H18 C17 1_555 1_555
C18 C17 1_555 1_555
H19 C18 1_555 1_555
C19 C18 1_555 1_555
C20 C19 1_555 1_555
H20 C20 1_555 1_555
C21 C20 1_555 1_555
H21 C21 1_555 1_555
C22 N2 1_555 1_555
H22 C22 1_555 1_555
C23 N2 1_555 1_555
C24 N1 1_555 1_555
O6 H23 1_555 1_555
Zn1E O5 1_555 1_555
O5E Zn1 1_555 1_555
H23A O6 1_555 1_555
C1 C7 1_555 1_555
C5 C6 1_555 1_555
C16 C24 1_555 1_555
C19 C23 1_555 1_555
C21 C22 1_555 1_555
C23 C24 1_555 1_555

#END
