
#######################################################################
#
#                 Cambridge Crystallographic Data Centre
#                                CCDC 
#
#######################################################################
#
# If this CIF has been generated from an entry in the Cambridge 
# Structural Database, then it will include bibliographic, chemical, 
# crystal, experimental, refinement or atomic coordinate data resulting 
# from the CCDC's data processing and validation procedures.
#
#######################################################################

data_LEWVAM
_symmetry_cell_setting           monoclinic
_symmetry_space_group_name_H-M   'P 21'
_symmetry_Int_Tables_number      4
_space_group_name_Hall           'P 2yb'
loop_
_symmetry_equiv_pos_site_id
_symmetry_equiv_pos_as_xyz
1 x,y,z
2 -x,1/2+y,-z
_cell_length_a                   10.988(2)
_cell_length_b                   14.253(3)
_cell_length_c                   11.358(2)
_cell_angle_alpha                90
_cell_angle_beta                 108.93(3)
_cell_angle_gamma                90
_cell_volume                     1682.59
loop_
_atom_site_label
_atom_site_type_symbol
_atom_site_fract_x
_atom_site_fract_y
_atom_site_fract_z
Cu1 Cu 0.11872(3) 0.71205(3) 0.36524(3)
O1 O 0.00734(18) 0.62492(16) 0.24442(19)
O2 O 0.11978(19) 0.61831(18) 0.1104(2)
O3 O 0.04875(19) 0.32435(18) -0.1194(2)
O4 O -0.15110(19) 0.29989(16) -0.25035(19)
O5 O 0.31842(19) 0.64499(17) 0.3969(2)
O6 O 0.3523(2) 0.66321(19) 0.2146(2)
H1 H 0.2744 0.6480 0.1860
O7 O 0.77957(19) 0.76276(18) 0.2083(2)
H2 H 0.8353 0.7827 0.1784
O8 O 0.93276(18) 0.79200(18) 0.3899(2)
N1 N 0.2022(2) 0.8071(2) 0.5037(2)
N2 N 0.1048(2) 0.63783(19) 0.5118(2)
C1 C -0.0780(3) 0.5406(2) 0.0532(3)
C2 C -0.0355(3) 0.4716(2) -0.0090(3)
H3 H 0.0542 0.4634 0.0070
C3 C -0.1222(3) 0.4138(2) -0.0950(3)
C4 C -0.2522(3) 0.4280(2) -0.1199(3)
H4 H -0.3113 0.3894 -0.1799
C5 C -0.3003(3) 0.4979(2) -0.0594(3)
C6 C -0.2103(3) 0.5533(2) 0.0296(3)
H5 H -0.2394 0.5997 0.0741
C7 C 0.0238(3) 0.6003(2) 0.1427(3)
C8 C -0.0698(3) 0.3401(2) -0.1593(3)
C9 C -0.4458(3) 0.5090(3) -0.0910(3)
C10 C -0.4825(3) 0.5916(3) -0.0233(4)
H6 H -0.4485 0.5810 0.0668
H7 H -0.5764 0.5971 -0.0492
H8 H -0.4460 0.6496 -0.0440
C11 C -0.5023(3) 0.4184(3) -0.0545(4)
H9 H -0.4672 0.4095 0.0359
H10 H -0.4793 0.3645 -0.0965
H11 H -0.5962 0.4238 -0.0795
C12 C -0.5099(4) 0.5242(4) -0.2331(4)
H12 H -0.4731 0.5800 -0.2590
H13 H -0.6028 0.5330 -0.2519
H14 H -0.4945 0.4693 -0.2781
C13 C 0.5162(2) 0.7079(3) 0.3956(3)
C14 C 0.6028(2) 0.7210(3) 0.3309(3)
H15 H 0.5797 0.7045 0.2454
C15 C 0.7224(3) 0.7581(2) 0.3920(3)
C16 C 0.7559(3) 0.7835(3) 0.5170(3)
H16 H 0.8396 0.8076 0.5579
C17 C 0.6707(3) 0.7748(3) 0.5836(3)
C18 C 0.5503(3) 0.7350(2) 0.5202(3)
H17 H 0.4902 0.7263 0.5634
C19 C 0.3869(3) 0.6688(2) 0.3366(3)
C20 C 0.8224(3) 0.7719(2) 0.3304(3)
C21 C 0.7085(3) 0.8096(3) 0.7190(3)
C22 C 0.5959(4) 0.8071(5) 0.7678(4)
H18 H 0.6238 0.8289 0.8543
H19 H 0.5637 0.7426 0.7640
H20 H 0.5273 0.8479 0.7168
C23 C 0.7532(6) 0.9106(4) 0.7248(5)
H21 H 0.8413 0.9124 0.7219
H22 H 0.7509 0.9393 0.8024
H23 H 0.6962 0.9453 0.6538
C24 C 0.8139(5) 0.7477(5) 0.7995(4)
H24 H 0.8892 0.7517 0.7715
H25 H 0.7836 0.6826 0.7930
H26 H 0.8374 0.7684 0.8862
C25 C 0.2474(3) 0.8919(3) 0.4952(3)
H27 H 0.2597 0.9096 0.4192
C26 C 0.2780(4) 0.9565(3) 0.5926(4)
H28 H 0.3098 1.0169 0.5828
C27 C 0.2613(4) 0.9311(3) 0.7031(4)
H29 H 0.2795 0.9748 0.7697
C28 C 0.2173(3) 0.8406(3) 0.7176(3)
C29 C 0.2011(3) 0.8060(3) 0.8301(3)
H30 H 0.2196 0.8460 0.9006
C30 C 0.1600(3) 0.7174(4) 0.8375(3)
H31 H 0.1526 0.6953 0.9138
C31 C 0.1274(3) 0.6561(3) 0.7310(3)
C32 C 0.0803(4) 0.5640(3) 0.7298(4)
H32 H 0.0704 0.5379 0.8032
C33 C 0.0492(4) 0.5125(3) 0.6232(4)
H33 H 0.0195 0.4498 0.6224
C34 C 0.0610(3) 0.5520(3) 0.5152(3)
H34 H 0.0366 0.5157 0.4410
C35 C 0.1387(3) 0.6888(2) 0.6182(3)
C36 C 0.1878(3) 0.7814(2) 0.6140(3)
Cu1_2 Cu 1.11872(3) 0.71205(3) 0.36524(3)
Cu1A Cu -0.11872(3) 0.21205(3) -0.36524(3)
O4A O 0.15110(19) 0.79989(16) 0.25035(19)
O8_2 O -0.06724(18) 0.79200(18) 0.3899(2)
loop_
_geom_bond_atom_site_label_1
_geom_bond_atom_site_label_2
_geom_bond_site_symmetry_1
_geom_bond_site_symmetry_2
Cu1 O1 1_555 1_555
O1 C7 1_555 1_555
O2 C7 1_555 1_555
O3 C8 1_555 1_555
O4 C8 1_555 1_555
O5 Cu1 1_555 1_555
O6 H1 1_555 1_555
O7 H2 1_555 1_555
O8 C20 1_555 1_555
N1 Cu1 1_555 1_555
N2 Cu1 1_555 1_555
C1 C2 1_555 1_555
C2 H3 1_555 1_555
C3 C2 1_555 1_555
C4 C3 1_555 1_555
H4 C4 1_555 1_555
C5 C4 1_555 1_555
C6 C1 1_555 1_555
H5 C6 1_555 1_555
C7 C1 1_555 1_555
C8 C3 1_555 1_555
C9 C5 1_555 1_555
C10 C9 1_555 1_555
H6 C10 1_555 1_555
H7 C10 1_555 1_555
H8 C10 1_555 1_555
C11 C9 1_555 1_555
H9 C11 1_555 1_555
H10 C11 1_555 1_555
H11 C11 1_555 1_555
C12 C9 1_555 1_555
H12 C12 1_555 1_555
H13 C12 1_555 1_555
H14 C12 1_555 1_555
C13 C14 1_555 1_555
C14 H15 1_555 1_555
C15 C14 1_555 1_555
C16 C15 1_555 1_555
H16 C16 1_555 1_555
C17 C16 1_555 1_555
C18 C13 1_555 1_555
H17 C18 1_555 1_555
C19 O5 1_555 1_555
C20 O7 1_555 1_555
C21 C17 1_555 1_555
C22 C21 1_555 1_555
H18 C22 1_555 1_555
H19 C22 1_555 1_555
H20 C22 1_555 1_555
C23 C21 1_555 1_555
H21 C23 1_555 1_555
H22 C23 1_555 1_555
H23 C23 1_555 1_555
C24 C21 1_555 1_555
H24 C24 1_555 1_555
H25 C24 1_555 1_555
H26 C24 1_555 1_555
C25 N1 1_555 1_555
H27 C25 1_555 1_555
C26 C25 1_555 1_555
H28 C26 1_555 1_555
C27 C26 1_555 1_555
H29 C27 1_555 1_555
C28 C27 1_555 1_555
C29 C28 1_555 1_555
H30 C29 1_555 1_555
C30 C29 1_555 1_555
H31 C30 1_555 1_555
C31 C30 1_555 1_555
C32 C31 1_555 1_555
H32 C32 1_555 1_555
C33 C32 1_555 1_555
H33 C33 1_555 1_555
C34 N2 1_555 1_555
H34 C34 1_555 1_555
C35 N2 1_555 1_555
C36 N1 1_555 1_555
Cu1_2 O8 1_555 1_555
Cu1A O4 1_555 1_555
O4A Cu1 1_555 1_555
O8_2 Cu1 1_555 1_555
O6 C19 1_555 1_555
C5 C6 1_555 1_555
C13 C19 1_555 1_555
C15 C20 1_555 1_555
C17 C18 1_555 1_555
C28 C36 1_555 1_555
C31 C35 1_555 1_555
C33 C34 1_555 1_555
C35 C36 1_555 1_555

#END
