
#######################################################################
#
#                 Cambridge Crystallographic Data Centre
#                                CCDC 
#
#######################################################################
#
# If this CIF has been generated from an entry in the Cambridge 
# Structural Database, then it will include bibliographic, chemical, 
# crystal, experimental, refinement or atomic coordinate data resulting 
# from the CCDC's data processing and validation procedures.
#
#######################################################################

data_LEWVEP
_symmetry_cell_setting           monoclinic
_symmetry_space_group_name_H-M   'P 2/n'
_symmetry_Int_Tables_number      13
_space_group_name_Hall           '-P 2yac'
loop_
_symmetry_equiv_pos_site_id
_symmetry_equiv_pos_as_xyz
1 x,y,z
2 1/2-x,y,1/2-z
3 -x,-y,-z
4 1/2+x,-y,1/2+z
_cell_length_a                   11.392(4)
_cell_length_b                   5.199(2)
_cell_length_c                   15.863(6)
_cell_angle_alpha                90
_cell_angle_beta                 106.329(5)
_cell_angle_gamma                90
_cell_volume                     901.621
loop_
_atom_site_label
_atom_site_type_symbol
_atom_site_fract_x
_atom_site_fract_y
_atom_site_fract_z
Zn1 Zn 0.35842(3) 0.29702(7) 0.50103(2)
P1 P 0.44356(8) -0.22751(16) 0.60483(6)
H1 H 0.450(4) -0.289(7) 0.685(3)
O1 O 0.4259(2) 0.0585(5) 0.59412(15)
O2 O 0.3336(2) -0.3788(5) 0.55290(17)
O3 O 0.5614(2) -0.3233(5) 0.59051(17)
N1 N 0.1916(3) 0.1613(6) 0.43018(19)
C1 C 0.1888(3) -0.0351(8) 0.3752(2)
H2 H 0.273(4) -0.117(9) 0.370(2)
C2 C 0.0820(4) -0.1555(8) 0.3314(3)
H3 H 0.093(4) -0.280(9) 0.300(3)
C3 C -0.0271(3) -0.0766(7) 0.3420(2)
C4 C -0.0241(3) 0.1301(8) 0.3969(3)
H4 H -0.090(4) 0.194(8) 0.406(3)
C5 C 0.0850(3) 0.2441(7) 0.4395(2)
H5 H 0.087(4) 0.384(9) 0.478(2)
C6 C -0.1428(4) -0.2177(8) 0.2971(4)
H6 H -0.158(5) -0.297(10) 0.347(4)
H7 H -0.128(4) -0.337(10) 0.261(3)
C7 C -0.2500 -0.0552(10) 0.2500
H8 H -0.270(4) 0.067(10) 0.287(3)
Zn1_2 Zn 0.35842(3) 1.29702(7) 0.50103(2)
Zn1_3 Zn 0.35842(3) -0.70298(7) 0.50103(2)
Zn1B Zn 0.64158(3) -0.29702(7) 0.49897(2)
Zn1A Zn -0.85842(3) 0.29702(7) -0.00103(2)
Zn1B_2 Zn 0.64158(3) 0.70298(7) 0.49897(2)
P1_2 P 0.44356(8) 0.77249(16) 0.60483(6)
H1_2 H 0.450(4) 0.711(7) 0.685(3)
O1_2 O 0.4259(2) 1.0585(5) 0.59412(15)
O2_2 O 0.3336(2) 0.6212(5) 0.55290(17)
O2_3 O 0.3336(2) 1.6212(5) 0.55290(17)
O3_2 O 0.5614(2) 0.6767(5) 0.59051(17)
O3B O 0.4386(2) 0.3233(5) 0.40949(17)
O3B_2 O 0.4386(2) 1.3233(5) 0.40949(17)
N1A N -0.6916(3) 0.1613(6) 0.06982(19)
N1_2 N 0.1916(3) 1.1613(6) 0.43018(19)
C1A C -0.6888(3) -0.0351(8) 0.1248(2)
H2A H -0.773(4) -0.117(9) 0.130(2)
C2A C -0.5820(4) -0.1555(8) 0.1686(3)
H3A H -0.593(4) -0.280(9) 0.200(3)
C3A C -0.4729(3) -0.0766(7) 0.1580(2)
C4A C -0.4759(3) 0.1301(8) 0.1031(3)
H4A H -0.410(4) 0.194(8) 0.094(3)
C5A C -0.5850(3) 0.2441(7) 0.0605(2)
H5A H -0.587(4) 0.384(9) 0.022(2)
C6A C -0.3572(4) -0.2177(8) 0.2029(4)
H6A H -0.342(5) -0.297(10) 0.153(4)
H7A H -0.372(4) -0.337(10) 0.239(3)
H8A H -0.230(4) 0.067(10) 0.213(3)
O4 O 0.2500 0.4947(14) 0.2500
loop_
_geom_bond_atom_site_label_1
_geom_bond_atom_site_label_2
_geom_bond_site_symmetry_1
_geom_bond_site_symmetry_2
Zn1 O1 1_555 1_555
P1 H1 1_555 1_555
O1 P1 1_555 1_555
O2 P1 1_555 1_555
O3 P1 1_555 1_555
N1 Zn1 1_555 1_555
C1 N1 1_555 1_555
H2 C1 1_555 1_555
C2 C1 1_555 1_555
H3 C2 1_555 1_555
C3 C2 1_555 1_555
C4 C3 1_555 1_555
H4 C4 1_555 1_555
C5 N1 1_555 1_555
H5 C5 1_555 1_555
C6 C3 1_555 1_555
H6 C6 1_555 1_555
H7 C6 1_555 1_555
C7 C6 1_555 1_555
H8 C7 1_555 1_555
Zn1_2 O1_2 1_555 1_555
Zn1_3 O2 1_555 1_555
Zn1B O3 1_555 1_555
Zn1A N1A 1_555 1_555
Zn1B_2 O3_2 1_555 1_555
P1_2 H1_2 1_555 1_555
O1_2 P1_2 1_555 1_555
O2_2 Zn1 1_555 1_555
O2_3 Zn1_2 1_555 1_555
O3_2 P1_2 1_555 1_555
O3B Zn1 1_555 1_555
O3B_2 Zn1_2 1_555 1_555
N1A C1A 1_555 1_555
N1_2 Zn1_2 1_555 1_555
C1A H2A 1_555 1_555
C2A C1A 1_555 1_555
H3A C2A 1_555 1_555
C3A C2A 1_555 1_555
C4A C3A 1_555 1_555
H4A C4A 1_555 1_555
C5A N1A 1_555 1_555
H5A C5A 1_555 1_555
C6A C7 1_555 1_555
H6A C6A 1_555 1_555
H7A C6A 1_555 1_555
H8A C7 1_555 1_555
C4 C5 1_555 1_555
P1_2 O2_2 1_555 1_555
C3A C6A 1_555 1_555
C4A C5A 1_555 1_555

#END
