
#######################################################################
#
#                 Cambridge Crystallographic Data Centre
#                                CCDC 
#
#######################################################################
#
# If this CIF has been generated from an entry in the Cambridge 
# Structural Database, then it will include bibliographic, chemical, 
# crystal, experimental, refinement or atomic coordinate data resulting 
# from the CCDC's data processing and validation procedures.
#
#######################################################################

data_LEWVEQ
_symmetry_cell_setting           monoclinic
_symmetry_space_group_name_H-M   'P 21/c'
_symmetry_Int_Tables_number      14
_space_group_name_Hall           '-P 2ybc'
loop_
_symmetry_equiv_pos_site_id
_symmetry_equiv_pos_as_xyz
1 x,y,z
2 -x,1/2+y,1/2-z
3 -x,-y,-z
4 x,1/2-y,1/2+z
_cell_length_a                   10.036(2)
_cell_length_b                   12.322(3)
_cell_length_c                   25.767(5)
_cell_angle_alpha                90
_cell_angle_beta                 93.06(3)
_cell_angle_gamma                90
_cell_volume                     3181.9
loop_
_atom_site_label
_atom_site_type_symbol
_atom_site_fract_x
_atom_site_fract_y
_atom_site_fract_z
Cu1 Cu 0.63143(3) 0.24546(2) 0.264452(11)
O1 O 0.60751(18) 0.38445(15) 0.29948(7)
O2 O 0.70077(19) 0.30390(16) 0.36966(8)
O3 O 0.64128(18) 0.87245(15) 0.37429(7)
H1 H 0.6150 0.9302 0.3598
O4 O 0.51476(19) 0.79698(17) 0.31001(7)
O5 O 0.47398(17) 0.18500(14) 0.29468(7)
O6 O 0.58984(16) 0.06462(14) 0.34366(7)
O7 O -0.0929(2) 0.1760(2) 0.38866(9)
H2 H -0.1549 0.2192 0.3799
O8 O -0.0151(2) 0.2281(2) 0.31360(9)
N1 N 0.69581(19) 0.10821(17) 0.23139(8)
N2 N 0.7911(2) 0.30781(19) 0.23037(8)
C1 C 0.6474(2) 0.4908(2) 0.37485(10)
C2 C 0.6109(2) 0.5873(2) 0.34978(9)
H3 H 0.5831 0.5869 0.3140
C3 C 0.6155(2) 0.6844(2) 0.37744(10)
C4 C 0.6538(2) 0.6852(2) 0.43031(10)
H4 H 0.6571 0.7521 0.4486
C5 C 0.6876(2) 0.5885(2) 0.45688(10)
C6 C 0.6847(2) 0.4924(2) 0.42808(10)
H5 H 0.7088 0.4262 0.4450
C7 C 0.6531(2) 0.3847(2) 0.34654(10)
C8 C 0.5845(2) 0.7887(2) 0.35002(10)
C9 C 0.7293(3) 0.5919(2) 0.51487(10)
C10 C 0.8728(3) 0.6366(3) 0.52049(13)
H6 H 0.8744 0.7108 0.5068
H7 H 0.9320 0.5906 0.5009
H8 H 0.9032 0.6369 0.5573
C11 C 0.6363(3) 0.6648(3) 0.54452(11)
H9 H 0.5439 0.6407 0.5380
H10 H 0.6450 0.7400 0.5327
H11 H 0.6604 0.6606 0.5818
C12 C 0.7265(4) 0.4779(3) 0.53913(12)
H12 H 0.6373 0.4465 0.5331
H13 H 0.7482 0.4830 0.5766
H14 H 0.7922 0.4316 0.5231
C13 C 0.3588(2) 0.0910(2) 0.35863(9)
C14 C 0.2390(2) 0.1428(2) 0.34371(9)
H15 H 0.2344 0.1897 0.3144
C15 C 0.1269(2) 0.1254(2) 0.37177(10)
C16 C 0.1315(2) 0.0544(2) 0.41387(10)
H16 H 0.0542 0.0443 0.4330
C17 C 0.2487(2) -0.0025(2) 0.42836(9)
C18 C 0.3615(2) 0.0188(2) 0.40041(9)
H17 H 0.4428 -0.0170 0.4102
C19 C 0.4843(2) 0.1136(2) 0.33094(9)
C20 C 0.0000(2) 0.1815(2) 0.35502(10)
C21 C 0.2512(2) -0.0808(2) 0.47440(10)
C22 C 0.3773(3) -0.1496(3) 0.47901(15)
H18 H 0.3840 -0.1932 0.4474
H19 H 0.3737 -0.1979 0.5091
H20 H 0.4555 -0.1022 0.4834
C23 C 0.1311(3) -0.1572(3) 0.47007(12)
H21 H 0.1350 -0.2009 0.4384
H22 H 0.0486 -0.1145 0.4686
H23 H 0.1329 -0.2052 0.5004
C24 C 0.2438(4) -0.0131(3) 0.52450(12)
H24 H 0.3207 0.0359 0.5278
H25 H 0.2448 -0.0617 0.5546
H26 H 0.1612 0.0295 0.5229
C25 C 0.6459(2) 0.0083(2) 0.23273(10)
H27 H 0.5677 -0.0036 0.2512
C26 C 0.7034(3) -0.0797(2) 0.20816(11)
H28 H 0.6647 -0.1499 0.2100
C27 C 0.8159(3) -0.0639(2) 0.18141(11)
H29 H 0.8565 -0.1233 0.1649
C28 C 0.8712(2) 0.0405(2) 0.17852(10)
C29 C 0.9895(3) 0.0662(3) 0.15201(12)
H30 H 1.0336 0.0105 0.1341
C30 C 1.0392(3) 0.1679(3) 0.15210(12)
H31 H 1.1174 0.1824 0.1341
C31 C 0.9764(3) 0.2547(2) 0.17887(11)
C32 C 1.0260(3) 0.3612(3) 0.18337(11)
H32 H 1.1059 0.3805 0.1675
C33 C 0.9588(3) 0.4370(3) 0.21068(12)
H33 H 0.9921 0.5090 0.2142
C34 C 0.8401(3) 0.4072(2) 0.23354(10)
H34 H 0.7933 0.4606 0.2520
C35 C 0.8591(2) 0.2322(2) 0.20413(10)
C36 C 0.8072(2) 0.1249(2) 0.20424(9)
Cu1A Cu 0.36857(3) 0.74546(2) 0.235548(11)
O4A O 0.48524(19) 0.29698(17) 0.18999(7)
loop_
_geom_bond_atom_site_label_1
_geom_bond_atom_site_label_2
_geom_bond_site_symmetry_1
_geom_bond_site_symmetry_2
Cu1 O1 1_555 1_555
O1 C7 1_555 1_555
O2 C7 1_555 1_555
O3 H1 1_555 1_555
O4 C8 1_555 1_555
O5 Cu1 1_555 1_555
O6 C19 1_555 1_555
O7 H2 1_555 1_555
O8 C20 1_555 1_555
N1 Cu1 1_555 1_555
N2 Cu1 1_555 1_555
C1 C2 1_555 1_555
C2 H3 1_555 1_555
C3 C2 1_555 1_555
C4 C3 1_555 1_555
H4 C4 1_555 1_555
C5 C4 1_555 1_555
C6 C1 1_555 1_555
H5 C6 1_555 1_555
C7 C1 1_555 1_555
C8 O3 1_555 1_555
C9 C5 1_555 1_555
C10 C9 1_555 1_555
H6 C10 1_555 1_555
H7 C10 1_555 1_555
H8 C10 1_555 1_555
C11 C9 1_555 1_555
H9 C11 1_555 1_555
H10 C11 1_555 1_555
H11 C11 1_555 1_555
C12 C9 1_555 1_555
H12 C12 1_555 1_555
H13 C12 1_555 1_555
H14 C12 1_555 1_555
C13 C14 1_555 1_555
C14 H15 1_555 1_555
C15 C14 1_555 1_555
C16 C15 1_555 1_555
H16 C16 1_555 1_555
C17 C16 1_555 1_555
C18 C13 1_555 1_555
H17 C18 1_555 1_555
C19 O5 1_555 1_555
C20 O7 1_555 1_555
C21 C17 1_555 1_555
C22 C21 1_555 1_555
H18 C22 1_555 1_555
H19 C22 1_555 1_555
H20 C22 1_555 1_555
C23 C21 1_555 1_555
H21 C23 1_555 1_555
H22 C23 1_555 1_555
H23 C23 1_555 1_555
C24 C21 1_555 1_555
H24 C24 1_555 1_555
H25 C24 1_555 1_555
H26 C24 1_555 1_555
C25 N1 1_555 1_555
H27 C25 1_555 1_555
C26 C25 1_555 1_555
H28 C26 1_555 1_555
C27 C26 1_555 1_555
H29 C27 1_555 1_555
C28 C27 1_555 1_555
C29 C28 1_555 1_555
H30 C29 1_555 1_555
C30 C29 1_555 1_555
H31 C30 1_555 1_555
C31 C30 1_555 1_555
C32 C31 1_555 1_555
H32 C32 1_555 1_555
C33 C32 1_555 1_555
H33 C33 1_555 1_555
C34 N2 1_555 1_555
H34 C34 1_555 1_555
C35 N2 1_555 1_555
C36 N1 1_555 1_555
Cu1A O4 1_555 1_555
O4A Cu1 1_555 1_555
C3 C8 1_555 1_555
C5 C6 1_555 1_555
C13 C19 1_555 1_555
C15 C20 1_555 1_555
C17 C18 1_555 1_555
C28 C36 1_555 1_555
C31 C35 1_555 1_555
C33 C34 1_555 1_555
C35 C36 1_555 1_555

#END
