
#######################################################################
#
#                 Cambridge Crystallographic Data Centre
#                                CCDC 
#
#######################################################################
#
# If this CIF has been generated from an entry in the Cambridge 
# Structural Database, then it will include bibliographic, chemical, 
# crystal, experimental, refinement or atomic coordinate data resulting 
# from the CCDC's data processing and validation procedures.
#
#######################################################################

data_LEWVOA
_symmetry_cell_setting           monoclinic
_symmetry_space_group_name_H-M   'P 21/c'
_symmetry_Int_Tables_number      14
_space_group_name_Hall           '-P 2ybc'
loop_
_symmetry_equiv_pos_site_id
_symmetry_equiv_pos_as_xyz
1 x,y,z
2 -x,1/2+y,1/2-z
3 -x,-y,-z
4 x,1/2-y,1/2+z
_cell_length_a                   14.7048(6)
_cell_length_b                   13.1186(5)
_cell_length_c                   26.8081(8)
_cell_angle_alpha                90
_cell_angle_beta                 131.266(1)
_cell_angle_gamma                90
_cell_volume                     3887.15
loop_
_atom_site_label
_atom_site_type_symbol
_atom_site_fract_x
_atom_site_fract_y
_atom_site_fract_z
Cu1 Cu 0.45320(4) 0.08482(4) 0.70495(2)
Cu2 Cu 0.19904(4) 0.47704(3) 0.34566(2)
N1 N 0.4747(3) 0.1787(2) 0.77120(14)
N2 N 0.2927(3) 0.0683(2) 0.67951(15)
N3 N 0.1875(3) 0.5871(2) 0.28963(15)
N4 N 0.3704(3) 0.4761(2) 0.38350(16)
O1 O 0.6260(2) 0.0661(2) 0.75299(13)
O2 O 0.5672(2) -0.0578(2) 0.78083(14)
O3 O 1.0315(2) 0.0042(2) 0.81117(13)
O4 O 1.1641(2) -0.0854(2) 0.90073(14)
O5 O 0.3944(3) 0.0380(2) 0.61884(13)
O6 O 0.4045(3) 0.2045(2) 0.61532(14)
O7 O 0.2273(3) 0.3622(2) 0.39923(15)
O8 O 0.1718(3) 0.2665(2) 0.31497(14)
C1 C 0.7730(3) -0.0562(3) 0.83056(17)
C2 C 0.8520(3) -0.0350(3) 0.82048(17)
H1 H 0.8273 0.0047 0.7847
C3 C 0.9683(3) -0.0737(3) 0.86454(17)
C4 C 1.0051(3) -0.1289(3) 0.91934(18)
H2 H 1.0837 -0.1542 0.9488
C5 C 0.9291(3) -0.1477(3) 0.93165(17)
C6 C 0.8107(3) -0.1131(3) 0.88502(18)
H3 H 0.7558 -0.1284 0.8904
C7 C 0.6458(3) -0.0144(3) 0.78502(17)
C8 C 1.0610(3) -0.0517(3) 0.85858(19)
C9 C 0.9718(4) -0.2022(3) 0.99398(19)
C10 C 0.9056(7) -0.3012(6) 0.9755(4)
H4 H 0.9436 -0.3520 0.9688
H5 H 0.8231 -0.2925 0.9352
H6 H 0.9076 -0.3224 1.0104
C11 C 0.9323(9) -0.1412(7) 1.0260(4)
H7 H 0.9480 -0.1805 1.0611
H8 H 0.8474 -0.1265 0.9931
H9 H 0.9770 -0.0785 1.0436
C12 C 1.1025(5) -0.2183(9) 1.0434(3)
H10 H 1.1269 -0.2611 1.0250
H11 H 1.1232 -0.2507 1.0818
H12 H 1.1432 -0.1539 1.0558
C13 C 0.5735(3) 0.2325(3) 0.8177(2)
H13 H 0.6428 0.2226 0.8237
C14 C 0.5768(4) 0.3018(4) 0.8570(2)
H14 H 0.6471 0.3382 0.8891
C15 C 0.4752(4) 0.3167(4) 0.8483(2)
H15 H 0.4754 0.3641 0.8742
C16 C 0.3732(4) 0.2613(3) 0.8013(2)
H16 H 0.3035 0.2702 0.7950
C17 C 0.3756(3) 0.1917(3) 0.76336(17)
C18 C 0.2730(3) 0.1263(3) 0.71282(17)
C19 C 0.1670(4) 0.1197(3) 0.7014(2)
H17 H 0.1539 0.1616 0.7241
C20 C 0.0813(4) 0.0501(4) 0.6560(2)
H18 H 0.0095 0.0435 0.6479
C21 C 0.1025(4) -0.0095(4) 0.6227(3)
H19 H 0.0455 -0.0573 0.5920
C22 C 0.2073(4) 0.0016(4) 0.6348(2)
H20 H 0.2202 -0.0384 0.6114
C23 C 0.3313(3) 0.1100(3) 0.51947(18)
C24 C 0.2960(3) 0.1952(3) 0.48001(19)
H21 H 0.3023 0.2596 0.4966
C25 C 0.2514(3) 0.1848(3) 0.41585(18)
C26 C 0.2469(3) 0.0885(3) 0.39217(18)
H22 H 0.2166 0.0819 0.3490
C27 C 0.2865(4) 0.0027(3) 0.43151(19)
C28 C 0.3250(4) 0.0152(3) 0.49449(18)
H23 H 0.3473 -0.0422 0.5208
C29 C 0.3804(3) 0.1204(3) 0.58914(17)
C30 C 0.2125(3) 0.2767(3) 0.3719(2)
C31 C 0.2912(5) -0.1011(3) 0.4072(2)
C32 C 0.3851(7) -0.1705(5) 0.4635(3)
H24 H 0.3647 -0.1845 0.4902
H25 H 0.4629 -0.1381 0.4902
H26 H 0.3875 -0.2332 0.4459
C33 C 0.3365(6) -0.0853(5) 0.3689(3)
H27 H 0.3399 -0.1500 0.3535
H28 H 0.4157 -0.0553 0.3980
H29 H 0.2817 -0.0411 0.3317
C34 C 0.1696(6) -0.1481(5) 0.3613(4)
H30 H 0.1402 -0.1582 0.3840
H31 H 0.1744 -0.2127 0.3463
H32 H 0.1153 -0.1041 0.3239
C35 C 0.0902(3) 0.6436(3) 0.2447(2)
H33 H 0.0184 0.6295 0.2355
C36 C 0.0923(4) 0.7221(3) 0.2115(2)
H34 H 0.0228 0.7598 0.1799
C37 C 0.1980(4) 0.7439(3) 0.2255(2)
H35 H 0.2013 0.7968 0.2036
C38 C 0.2990(4) 0.6869(3) 0.2721(2)
H36 H 0.3718 0.7009 0.2824
C39 C 0.2914(3) 0.6081(3) 0.30366(18)
C40 C 0.3953(3) 0.5454(3) 0.35651(18)
C41 C 0.5103(4) 0.5560(4) 0.3790(3)
H37 H 0.5261 0.6030 0.3596
C42 C 0.6007(4) 0.4960(4) 0.4304(3)
H38 H 0.6789 0.5017 0.4461
C43 C 0.5759(4) 0.4272(4) 0.4587(2)
H39 H 0.6372 0.3873 0.4944
C44 C 0.4593(4) 0.4187(3) 0.4335(2)
H40 H 0.4420 0.3711 0.4519
Cu2C Cu 1.19904(4) 0.02296(3) 0.84566(2)
O3C O 0.0315(2) 0.4958(2) 0.31117(13)
O4C O 0.1641(2) 0.5854(2) 0.40073(14)
loop_
_geom_bond_atom_site_label_1
_geom_bond_atom_site_label_2
_geom_bond_site_symmetry_1
_geom_bond_site_symmetry_2
Cu1 N1 1_555 1_555
Cu2 N3 1_555 1_555
N1 C13 1_555 1_555
N2 Cu1 1_555 1_555
N3 C35 1_555 1_555
N4 Cu2 1_555 1_555
O1 Cu1 1_555 1_555
O2 Cu1 1_555 1_555
O3 C8 1_555 1_555
O4 C8 1_555 1_555
O5 Cu1 1_555 1_555
O6 Cu1 1_555 1_555
O7 Cu2 1_555 1_555
O8 C30 1_555 1_555
C1 C2 1_555 1_555
C2 H1 1_555 1_555
C3 C2 1_555 1_555
C4 C3 1_555 1_555
H2 C4 1_555 1_555
C5 C4 1_555 1_555
C6 C1 1_555 1_555
H3 C6 1_555 1_555
C7 O1 1_555 1_555
C8 C3 1_555 1_555
C9 C5 1_555 1_555
C10 C9 1_555 1_555
H4 C10 1_555 1_555
H5 C10 1_555 1_555
H6 C10 1_555 1_555
C11 C9 1_555 1_555
H7 C11 1_555 1_555
H8 C11 1_555 1_555
H9 C11 1_555 1_555
C12 C9 1_555 1_555
H10 C12 1_555 1_555
H11 C12 1_555 1_555
H12 C12 1_555 1_555
C13 H13 1_555 1_555
C14 C13 1_555 1_555
H14 C14 1_555 1_555
C15 C14 1_555 1_555
H15 C15 1_555 1_555
C16 C15 1_555 1_555
H16 C16 1_555 1_555
C17 N1 1_555 1_555
C18 N2 1_555 1_555
C19 C18 1_555 1_555
H17 C19 1_555 1_555
C20 C19 1_555 1_555
H18 C20 1_555 1_555
C21 C20 1_555 1_555
H19 C21 1_555 1_555
C22 N2 1_555 1_555
H20 C22 1_555 1_555
C23 C24 1_555 1_555
C24 H21 1_555 1_555
C25 C24 1_555 1_555
C26 C25 1_555 1_555
H22 C26 1_555 1_555
C27 C26 1_555 1_555
C28 C23 1_555 1_555
H23 C28 1_555 1_555
C29 O5 1_555 1_555
C30 O7 1_555 1_555
C31 C27 1_555 1_555
C32 C31 1_555 1_555
H24 C32 1_555 1_555
H25 C32 1_555 1_555
H26 C32 1_555 1_555
C33 C31 1_555 1_555
H27 C33 1_555 1_555
H28 C33 1_555 1_555
H29 C33 1_555 1_555
C34 C31 1_555 1_555
H30 C34 1_555 1_555
H31 C34 1_555 1_555
H32 C34 1_555 1_555
C35 H33 1_555 1_555
C36 C35 1_555 1_555
H34 C36 1_555 1_555
C37 C36 1_555 1_555
H35 C37 1_555 1_555
C38 C37 1_555 1_555
H36 C38 1_555 1_555
C39 N3 1_555 1_555
C40 N4 1_555 1_555
C41 C40 1_555 1_555
H37 C41 1_555 1_555
C42 C41 1_555 1_555
H38 C42 1_555 1_555
C43 C42 1_555 1_555
H39 C43 1_555 1_555
C44 N4 1_555 1_555
H40 C44 1_555 1_555
Cu2C O3 1_555 1_555
O3C Cu2 1_555 1_555
O4C Cu2 1_555 1_555
O2 C7 1_555 1_555
O4 Cu2C 1_555 1_555
O6 C29 1_555 1_555
C1 C7 1_555 1_555
C5 C6 1_555 1_555
C16 C17 1_555 1_555
C17 C18 1_555 1_555
C21 C22 1_555 1_555
C23 C29 1_555 1_555
C25 C30 1_555 1_555
C27 C28 1_555 1_555
C38 C39 1_555 1_555
C39 C40 1_555 1_555
C43 C44 1_555 1_555

#END
