
#######################################################################
#
#                 Cambridge Crystallographic Data Centre
#                                CCDC 
#
#######################################################################
#
# If this CIF has been generated from an entry in the Cambridge 
# Structural Database, then it will include bibliographic, chemical, 
# crystal, experimental, refinement or atomic coordinate data resulting 
# from the CCDC's data processing and validation procedures.
#
#######################################################################

data_LEWWIV
_symmetry_cell_setting           monoclinic
_symmetry_space_group_name_H-M   'P 21/c'
_symmetry_Int_Tables_number      14
_space_group_name_Hall           '-P 2ybc'
loop_
_symmetry_equiv_pos_site_id
_symmetry_equiv_pos_as_xyz
1 x,y,z
2 -x,1/2+y,1/2-z
3 -x,-y,-z
4 x,1/2-y,1/2+z
_cell_length_a                   14.3721(7)
_cell_length_b                   12.7909(6)
_cell_length_c                   12.5990(6)
_cell_angle_alpha                90
_cell_angle_beta                 97.234(1)
_cell_angle_gamma                90
_cell_volume                     2297.66
loop_
_atom_site_label
_atom_site_type_symbol
_atom_site_fract_x
_atom_site_fract_y
_atom_site_fract_z
Co1 Co 0.14142(2) 0.43504(2) 0.63591(2)
N1 N 0.10275(14) 0.30010(14) 0.54056(15)
N2 N 0.20830(14) 0.31513(15) 0.72911(15)
O1 O 0.00638(11) 0.44663(12) 0.67751(13)
H1 H 0.0027 0.4984 0.7152
H2 H -0.0356 0.4495 0.6237
O2 O 0.11646(12) 0.54468(13) 0.50851(14)
O3 O 0.26097(12) 0.49479(13) 0.55627(15)
O4 O 0.05763(12) 0.87693(14) 0.29075(15)
O5 O 0.18515(13) 0.95936(14) 0.25071(16)
C1 C 0.23673(16) 0.64148(17) 0.43858(18)
C2 C 0.17542(16) 0.71863(17) 0.39644(18)
H3 H 0.1134 0.7184 0.4104
C3 C 0.20716(16) 0.79618(18) 0.33335(19)
C4 C 0.29912(18) 0.7935(2) 0.3107(2)
H4 H 0.3196 0.8453 0.2673
C5 C 0.36201(17) 0.7156(2) 0.3508(2)
C6 C 0.32932(16) 0.64128(19) 0.4175(2)
H5 H 0.3702 0.5904 0.4486
C7 C 0.20391(17) 0.55537(17) 0.50539(19)
C8 C 0.14351(17) 0.88311(18) 0.28805(18)
C9 C 0.4616(2) 0.7134(3) 0.3193(3)
C10 C 0.5221(3) 0.6276(4) 0.3800(5)
H6 H 0.4994 0.5601 0.3555
H7 H 0.5185 0.6339 0.4553
H8 H 0.5861 0.6354 0.3669
C11 C 0.5109(3) 0.8167(4) 0.3544(6)
H9 H 0.4808 0.8733 0.3135
H10 H 0.5755 0.8130 0.3426
H11 H 0.5072 0.8282 0.4291
C12 C 0.4556(3) 0.6998(7) 0.2009(4)
H12 H 0.4272 0.6336 0.1809
H13 H 0.5174 0.7022 0.1799
H14 H 0.4182 0.7550 0.1658
C13 C 0.04992(18) 0.29342(19) 0.44691(19)
H15 H 0.0252 0.3547 0.4151
C14 C 0.02953(19) 0.1990(2) 0.3935(2)
H16 H -0.0074 0.1982 0.3274
C15 C 0.06415(19) 0.1081(2) 0.4390(2)
H17 H 0.0509 0.0446 0.4044
C16 C 0.12008(18) 0.11161(18) 0.5387(2)
C17 C 0.1599(2) 0.0211(2) 0.5936(3)
H18 H 0.1498 -0.0443 0.5618
C18 C 0.2113(2) 0.0283(2) 0.6897(3)
H19 H 0.2356 -0.0321 0.7238
C19 C 0.22945(18) 0.1275(2) 0.7407(2)
C20 C 0.28139(19) 0.1418(2) 0.8421(2)
H20 H 0.3064 0.0842 0.8808
C21 C 0.29502(19) 0.2393(2) 0.8834(2)
H21 H 0.3287 0.2487 0.9507
C22 C 0.25821(18) 0.3249(2) 0.8245(2)
H22 H 0.2690 0.3915 0.8530
C23 C 0.19317(16) 0.21815(18) 0.68825(19)
C24 C 0.13712(16) 0.21025(17) 0.58594(19)
Co1C Co 0.14142(2) 1.06496(2) 0.13591(2)
O5C O 0.18515(13) 0.54064(14) 0.75071(16)
loop_
_geom_bond_atom_site_label_1
_geom_bond_atom_site_label_2
_geom_bond_site_symmetry_1
_geom_bond_site_symmetry_2
Co1 N1 1_555 1_555
N1 C13 1_555 1_555
N2 Co1 1_555 1_555
O1 Co1 1_555 1_555
H1 O1 1_555 1_555
H2 O1 1_555 1_555
O2 Co1 1_555 1_555
O3 Co1 1_555 1_555
O4 C8 1_555 1_555
O5 C8 1_555 1_555
C1 C2 1_555 1_555
C2 H3 1_555 1_555
C3 C2 1_555 1_555
C4 C3 1_555 1_555
H4 C4 1_555 1_555
C5 C4 1_555 1_555
C6 C1 1_555 1_555
H5 C6 1_555 1_555
C7 O2 1_555 1_555
C8 C3 1_555 1_555
C9 C5 1_555 1_555
C10 C9 1_555 1_555
H6 C10 1_555 1_555
H7 C10 1_555 1_555
H8 C10 1_555 1_555
C11 C9 1_555 1_555
H9 C11 1_555 1_555
H10 C11 1_555 1_555
H11 C11 1_555 1_555
C12 C9 1_555 1_555
H12 C12 1_555 1_555
H13 C12 1_555 1_555
H14 C12 1_555 1_555
C13 H15 1_555 1_555
C14 C13 1_555 1_555
H16 C14 1_555 1_555
C15 C14 1_555 1_555
H17 C15 1_555 1_555
C16 C15 1_555 1_555
C17 C16 1_555 1_555
H18 C17 1_555 1_555
C18 C17 1_555 1_555
H19 C18 1_555 1_555
C19 C18 1_555 1_555
C20 C19 1_555 1_555
H20 C20 1_555 1_555
C21 C20 1_555 1_555
H21 C21 1_555 1_555
C22 N2 1_555 1_555
H22 C22 1_555 1_555
C23 N2 1_555 1_555
C24 N1 1_555 1_555
Co1C O5 1_555 1_555
O5C Co1 1_555 1_555
O3 C7 1_555 1_555
C1 C7 1_555 1_555
C5 C6 1_555 1_555
C16 C24 1_555 1_555
C19 C23 1_555 1_555
C21 C22 1_555 1_555
C23 C24 1_555 1_555

#END
