
#######################################################################
#
#                 Cambridge Crystallographic Data Centre
#                                CCDC 
#
#######################################################################
#
# If this CIF has been generated from an entry in the Cambridge 
# Structural Database, then it will include bibliographic, chemical, 
# crystal, experimental, refinement or atomic coordinate data resulting 
# from the CCDC's data processing and validation procedures.
#
#######################################################################

data_LEWWER
_symmetry_cell_setting           monoclinic
_symmetry_space_group_name_H-M   'C 2/c'
_symmetry_Int_Tables_number      15
_space_group_name_Hall           '-C 2yn'
loop_
_symmetry_equiv_pos_site_id
_symmetry_equiv_pos_as_xyz
1 x,y,z
2 -x,y,1/2-z
3 1/2+x,1/2+y,z
4 1/2-x,1/2+y,1/2-z
5 -x,-y,-z
6 x,-y,1/2+z
7 1/2-x,1/2-y,-z
8 1/2+x,1/2-y,1/2+z
_cell_length_a                   32.932(7)
_cell_length_b                   9.4843(19)
_cell_length_c                   27.667(6)
_cell_angle_alpha                90
_cell_angle_beta                 116.54(3)
_cell_angle_gamma                90
_cell_volume                     7730.82
loop_
_atom_site_label
_atom_site_type_symbol
_atom_site_fract_x
_atom_site_fract_y
_atom_site_fract_z
Co1 Co 0.16959(3) 0.22210(6) 0.55031(3)
Co2 Co 0.2500 0.2500 0.5000
Co3 Co 0.5000 0.48486(9) 0.7500
O1 O 0.22979(15) 0.2359(3) 0.61765(14)
O2 O 0.27901(15) 0.2743(4) 0.58291(15)
O3 O 0.44008(15) 0.3651(3) 0.69991(16)
O4 O 0.45961(13) 0.4100(4) 0.78563(16)
O5 O 0.18700(13) 0.3348(3) 0.49356(13)
O6 O 0.16363(13) 0.4562(3) 0.54379(13)
O7 O 0.17284(13) 1.0149(3) 0.53165(13)
O8 O 0.22464(14) 1.0564(3) 0.50174(15)
N1 N 0.09961(17) 0.2169(4) 0.49061(16)
N2 N 0.1348(2) 0.1762(4) 0.59706(17)
N3 N 0.52851(17) 0.6572(4) 0.8023(2)
C1 C 0.3085(2) 0.2561(4) 0.67680(18)
C2 C 0.3501(2) 0.3007(4) 0.6823(2)
H1 H 0.3535 0.3308 0.6516
C3 C 0.3873(2) 0.3013(4) 0.7335(2)
C4 C 0.38216(18) 0.2502(5) 0.7769(2)
H2 H 0.4077 0.2504 0.8114
C5 C 0.34167(19) 0.1990(5) 0.77259(19)
C6 C 0.30408(19) 0.2062(4) 0.72151(19)
H3 H 0.2752 0.1765 0.7174
C7 C 0.2691(2) 0.2563(4) 0.6213(2)
C8 C 0.4308(2) 0.3610(5) 0.7396(2)
C9 C 0.3382(2) 0.1357(6) 0.8218(2)
C10 C 0.3764(3) 0.0321(7) 0.8498(3)
H4 H 0.3740 -0.0442 0.8248
H5 H 0.3744 -0.0072 0.8814
H6 H 0.4055 0.0805 0.8613
C11 C 0.2942(3) 0.0609(12) 0.8077(3)
H7 H 0.2921 -0.0222 0.7856
H8 H 0.2688 0.1247 0.7873
H9 H 0.2929 0.0313 0.8409
C12 C 0.3449(4) 0.2547(7) 0.8622(3)
H10 H 0.3500 0.2141 0.8970
H11 H 0.3179 0.3146 0.8484
H12 H 0.3714 0.3113 0.8669
C13 C 0.18116(19) 0.5859(4) 0.48146(18)
C14 C 0.1831(2) 0.7154(4) 0.5057(2)
H13 H 0.1802 0.7208 0.5383
C15 C 0.1893(2) 0.8370(4) 0.48189(19)
C16 C 0.1912(2) 0.8280(4) 0.4327(2)
H14 H 0.1961 0.9117 0.4172
C17 C 0.18609(19) 0.7015(4) 0.40552(18)
C18 C 0.18200(19) 0.5793(4) 0.43200(19)
H15 H 0.1798 0.4901 0.4154
C19 C 0.17775(19) 0.4534(4) 0.50876(19)
C20 C 0.1960(2) 0.9804(4) 0.50774(19)
C21 C 0.1863(2) 0.6920(5) 0.35104(19)
C22 C 0.1441(2) 0.6147(6) 0.3105(2)
H16 H 0.1424 0.5215 0.3248
H17 H 0.1459 0.6037 0.2762
H18 H 0.1169 0.6691 0.3044
C23 C 0.1877(3) 0.8395(5) 0.3278(2)
H19 H 0.1598 0.8909 0.3207
H20 H 0.1904 0.8288 0.2941
H21 H 0.2139 0.8921 0.3540
C24 C 0.2287(2) 0.6121(5) 0.3575(2)
H22 H 0.2290 0.5185 0.3727
H23 H 0.2558 0.6645 0.3818
H24 H 0.2284 0.6020 0.3221
C25 C 0.0830(2) 0.2238(5) 0.4371(2)
H25 H 0.1038 0.2356 0.4222
C26 C 0.0366(3) 0.2146(6) 0.4015(3)
H26 H 0.0264 0.2164 0.3635
C27 C 0.0069(3) 0.2029(7) 0.4228(3)
H27 H -0.0248 0.2000 0.3998
C28 C 0.0232(3) 0.1952(7) 0.4794(3)
C29 C -0.0056(3) 0.1757(10) 0.5048(4)
H28 H -0.0376 0.1765 0.4833
C30 C 0.0107(4) 0.1565(9) 0.5573(4)
H29 H -0.0097 0.1459 0.5727
C31 C 0.0590(4) 0.1512(7) 0.5919(3)
C32 C 0.0798(4) 0.1157(8) 0.6465(4)
H30 H 0.0616 0.0949 0.6642
C33 C 0.1250(4) 0.1105(8) 0.6744(3)
H31 H 0.1385 0.0842 0.7114
C34 C 0.1531(3) 0.1439(6) 0.6491(2)
H32 H 0.1852 0.1431 0.6697
C35 C 0.0892(3) 0.1761(5) 0.5695(2)
C36 C 0.0706(2) 0.1995(5) 0.5120(2)
C37 C 0.5563(2) 0.6537(6) 0.8543(3)
H33 H 0.5659 0.5645 0.8712
C38 C 0.5723(2) 0.7764(6) 0.8861(3)
H34 H 0.5925 0.7702 0.9235
C39 C 0.5582(3) 0.9039(6) 0.8616(3)
H35 H 0.5682 0.9880 0.8823
C40 C 0.5289(3) 0.9117(6) 0.8058(3)
C41 C 0.5134(3) 1.0401(6) 0.7758(3)
H36 H 0.5230 1.1277 0.7941
C42 C 0.5144(2) 0.7830(5) 0.7779(2)
N3A N 0.47149(17) 0.6572(4) 0.6977(2)
C37A C 0.4437(2) 0.6537(6) 0.6457(3)
H33A H 0.4341 0.5645 0.6288
C38A C 0.4277(2) 0.7764(6) 0.6139(3)
H34A H 0.4075 0.7702 0.5765
C39A C 0.4418(3) 0.9039(6) 0.6384(3)
H35A H 0.4318 0.9880 0.6177
C40A C 0.4711(3) 0.9117(6) 0.6942(3)
C41A C 0.4866(3) 1.0401(6) 0.7242(3)
H36A H 0.4770 1.1277 0.7059
C42A C 0.4856(2) 0.7830(5) 0.7221(2)
Co1A Co 0.83041(3) 0.22210(6) 0.94969(3)
O1A O 0.77021(15) 0.2359(3) 0.88235(14)
O2A O 0.72099(15) 0.2743(4) 0.91709(15)
O3A O 0.55992(15) 0.3651(3) 0.80009(16)
O4A O 0.54039(13) 0.4100(4) 0.71437(16)
O5A O 0.81300(13) 0.3348(3) 1.00644(13)
O6A O 0.83637(13) 0.4562(3) 0.95621(13)
O7A O 0.82716(13) 1.0149(3) 0.96835(13)
O8A O 0.77536(14) 1.0564(3) 0.99826(15)
N1A N 0.90039(17) 0.2169(4) 1.00939(16)
N2A N 0.8652(2) 0.1762(4) 0.90294(17)
C1A C 0.6915(2) 0.2561(4) 0.82320(18)
C2A C 0.6499(2) 0.3007(4) 0.8177(2)
H1A H 0.6465 0.3308 0.8484
C3A C 0.6127(2) 0.3013(4) 0.7665(2)
C4A C 0.61784(18) 0.2502(5) 0.7231(2)
H2A H 0.5923 0.2504 0.6886
C5A C 0.65833(19) 0.1990(5) 0.72741(19)
C6A C 0.69592(19) 0.2062(4) 0.77849(19)
H3A H 0.7248 0.1765 0.7826
C7A C 0.7309(2) 0.2563(4) 0.8787(2)
C8A C 0.5692(2) 0.3610(5) 0.7604(2)
C9A C 0.6618(2) 0.1357(6) 0.6782(2)
C10A C 0.6236(3) 0.0321(7) 0.6502(3)
H4A H 0.6260 -0.0442 0.6752
H5A H 0.6256 -0.0072 0.6186
H6A H 0.5945 0.0805 0.6387
C11A C 0.7058(3) 0.0609(12) 0.6923(3)
H7A H 0.7079 -0.0222 0.7144
H8A H 0.7312 0.1247 0.7127
H9A H 0.7071 0.0313 0.6591
C12A C 0.6551(4) 0.2547(7) 0.6378(3)
H10A H 0.6500 0.2141 0.6030
H11A H 0.6821 0.3146 0.6516
H12A H 0.6286 0.3113 0.6331
C13A C 0.81884(19) 0.5859(4) 1.01854(18)
C14A C 0.8169(2) 0.7154(4) 0.9943(2)
H13A H 0.8198 0.7208 0.9617
C15A C 0.8107(2) 0.8370(4) 1.01811(19)
C16A C 0.8088(2) 0.8280(4) 1.0673(2)
H14A H 0.8039 0.9117 1.0828
C17A C 0.81391(19) 0.7015(4) 1.09448(18)
C18A C 0.81800(19) 0.5793(4) 1.06800(19)
H15A H 0.8202 0.4901 1.0846
C19A C 0.82225(19) 0.4534(4) 0.99124(19)
C20A C 0.8040(2) 0.9804(4) 0.99226(19)
C21A C 0.8137(2) 0.6920(5) 1.14896(19)
C22A C 0.8559(2) 0.6147(6) 1.1895(2)
H16A H 0.8576 0.5215 1.1752
H17A H 0.8541 0.6037 1.2238
H18A H 0.8831 0.6691 1.1956
C23A C 0.8123(3) 0.8395(5) 1.1722(2)
H19A H 0.8402 0.8909 1.1793
H20A H 0.8096 0.8288 1.2059
H21A H 0.7861 0.8921 1.1460
C24A C 0.7713(2) 0.6121(5) 1.1425(2)
H22A H 0.7710 0.5185 1.1273
H23A H 0.7442 0.6645 1.1182
H24A H 0.7716 0.6020 1.1779
C25A C 0.9170(2) 0.2238(5) 1.0629(2)
H25A H 0.8962 0.2356 1.0778
C26A C 0.9634(3) 0.2146(6) 1.0985(3)
H26A H 0.9736 0.2164 1.1365
C27A C 0.9931(3) 0.2029(7) 1.0772(3)
H27A H 1.0248 0.2000 1.1002
C28A C 0.9768(3) 0.1952(7) 1.0206(3)
C29A C 1.0056(3) 0.1757(10) 0.9952(4)
H28A H 1.0376 0.1765 1.0167
C30A C 0.9893(4) 0.1565(9) 0.9427(4)
H29A H 1.0097 0.1459 0.9273
C31A C 0.9410(4) 0.1512(7) 0.9081(3)
C32A C 0.9202(4) 0.1157(8) 0.8535(4)
H30A H 0.9384 0.0949 0.8358
C33A C 0.8750(4) 0.1105(8) 0.8256(3)
H31A H 0.8615 0.0842 0.7886
C34A C 0.8469(3) 0.1439(6) 0.8509(2)
H32A H 0.8148 0.1431 0.8303
C35A C 0.9108(3) 0.1761(5) 0.9305(2)
C36A C 0.9294(2) 0.1995(5) 0.9880(2)
Co1_2 Co 0.16959(3) 1.22210(6) 0.55031(3)
Co1A_2 Co 0.83041(3) 1.22210(6) 0.94969(3)
Co2_2 Co 0.2500 1.2500 0.5000
Co2A Co 0.7500 0.2500 1.0000
Co2A_2 Co 0.7500 1.2500 1.0000
O2F O 0.22099(15) 0.2257(4) 0.41709(15)
O5F O 0.31300(13) 0.1652(3) 0.50644(13)
O7_2 O 0.17284(13) 0.0149(3) 0.53165(13)
O7A_2 O 0.82716(13) 0.0149(3) 0.96835(13)
O8_2 O 0.22464(14) 0.0564(3) 0.50174(15)
O8F O 0.27536(14) 0.4436(3) 0.49826(15)
O9 O 0.1004(6) 0.8693(16) 0.5128(9)
H37 H 0.0834 0.9403 0.5047
H38 H 0.1235 0.9192 0.5204
O10 O 0.0814(11) 0.586(3) 0.5037(12)
H39 H 0.1071 0.5604 0.5270
H40 H 0.0865 0.6746 0.5057
loop_
_geom_bond_atom_site_label_1
_geom_bond_atom_site_label_2
_geom_bond_site_symmetry_1
_geom_bond_site_symmetry_2
Co1 O1 1_555 1_555
Co2 O2 1_555 1_555
Co3 O3 1_555 1_555
O1 C7 1_555 1_555
O2 C7 1_555 1_555
O3 C8 1_555 1_555
O4 Co3 1_555 1_555
O5 Co1 1_555 1_555
O6 Co1 1_555 1_555
O7 C20 1_555 1_555
O8 C20 1_555 1_555
N1 Co1 1_555 1_555
N2 Co1 1_555 1_555
N3 Co3 1_555 1_555
C1 C2 1_555 1_555
C2 H1 1_555 1_555
C3 C2 1_555 1_555
C4 C3 1_555 1_555
H2 C4 1_555 1_555
C5 C4 1_555 1_555
C6 C1 1_555 1_555
H3 C6 1_555 1_555
C7 C1 1_555 1_555
C8 O4 1_555 1_555
C9 C5 1_555 1_555
C10 C9 1_555 1_555
H4 C10 1_555 1_555
H5 C10 1_555 1_555
H6 C10 1_555 1_555
C11 C9 1_555 1_555
H7 C11 1_555 1_555
H8 C11 1_555 1_555
H9 C11 1_555 1_555
C12 C9 1_555 1_555
H10 C12 1_555 1_555
H11 C12 1_555 1_555
H12 C12 1_555 1_555
C13 C14 1_555 1_555
C14 H13 1_555 1_555
C15 C14 1_555 1_555
C16 C15 1_555 1_555
H14 C16 1_555 1_555
C17 C16 1_555 1_555
C18 C13 1_555 1_555
H15 C18 1_555 1_555
C19 O5 1_555 1_555
C20 C15 1_555 1_555
C21 C17 1_555 1_555
C22 C21 1_555 1_555
H16 C22 1_555 1_555
H17 C22 1_555 1_555
H18 C22 1_555 1_555
C23 C21 1_555 1_555
H19 C23 1_555 1_555
H20 C23 1_555 1_555
H21 C23 1_555 1_555
C24 C21 1_555 1_555
H22 C24 1_555 1_555
H23 C24 1_555 1_555
H24 C24 1_555 1_555
C25 N1 1_555 1_555
H25 C25 1_555 1_555
C26 C25 1_555 1_555
H26 C26 1_555 1_555
C27 C26 1_555 1_555
H27 C27 1_555 1_555
C28 C27 1_555 1_555
C29 C28 1_555 1_555
H28 C29 1_555 1_555
C30 C29 1_555 1_555
H29 C30 1_555 1_555
C31 C30 1_555 1_555
C32 C31 1_555 1_555
H30 C32 1_555 1_555
C33 C32 1_555 1_555
H31 C33 1_555 1_555
C34 N2 1_555 1_555
H32 C34 1_555 1_555
C35 N2 1_555 1_555
C36 N1 1_555 1_555
C37 N3 1_555 1_555
H33 C37 1_555 1_555
C38 C37 1_555 1_555
H34 C38 1_555 1_555
C39 C38 1_555 1_555
H35 C39 1_555 1_555
C40 C39 1_555 1_555
C41 C40 1_555 1_555
H36 C41 1_555 1_555
C42 N3 1_555 1_555
O9 H37 1_555 1_555
H38 O9 1_555 1_555
O10 H39 1_555 1_555
H40 O10 1_555 1_555
N3A Co3 1_555 1_555
C37A N3A 1_555 1_555
H33A C37A 1_555 1_555
C38A C37A 1_555 1_555
H34A C38A 1_555 1_555
C39A C38A 1_555 1_555
H35A C39A 1_555 1_555
C40A C39A 1_555 1_555
C41A C41 1_555 1_555
H36A C41A 1_555 1_555
C42A C42 1_555 1_555
Co1A O1A 1_555 1_555
O1A C7A 1_555 1_555
O2A C7A 1_555 1_555
O3A Co3 1_555 1_555
O4A Co3 1_555 1_555
O5A Co1A 1_555 1_555
O6A Co1A 1_555 1_555
O7A C20A 1_555 1_555
O8A C20A 1_555 1_555
N1A Co1A 1_555 1_555
N2A Co1A 1_555 1_555
C1A C2A 1_555 1_555
C2A H1A 1_555 1_555
C3A C2A 1_555 1_555
C4A C3A 1_555 1_555
H2A C4A 1_555 1_555
C5A C4A 1_555 1_555
C6A C1A 1_555 1_555
H3A C6A 1_555 1_555
C7A C1A 1_555 1_555
C8A O3A 1_555 1_555
C9A C5A 1_555 1_555
C10A C9A 1_555 1_555
H4A C10A 1_555 1_555
H5A C10A 1_555 1_555
H6A C10A 1_555 1_555
C11A C9A 1_555 1_555
H7A C11A 1_555 1_555
H8A C11A 1_555 1_555
H9A C11A 1_555 1_555
C12A C9A 1_555 1_555
H10A C12A 1_555 1_555
H11A C12A 1_555 1_555
H12A C12A 1_555 1_555
C13A C14A 1_555 1_555
C14A H13A 1_555 1_555
C15A C14A 1_555 1_555
C16A C15A 1_555 1_555
H14A C16A 1_555 1_555
C17A C16A 1_555 1_555
C18A C13A 1_555 1_555
H15A C18A 1_555 1_555
C19A O5A 1_555 1_555
C20A C15A 1_555 1_555
C21A C17A 1_555 1_555
C22A C21A 1_555 1_555
H16A C22A 1_555 1_555
H17A C22A 1_555 1_555
H18A C22A 1_555 1_555
C23A C21A 1_555 1_555
H19A C23A 1_555 1_555
H20A C23A 1_555 1_555
H21A C23A 1_555 1_555
C24A C21A 1_555 1_555
H22A C24A 1_555 1_555
H23A C24A 1_555 1_555
H24A C24A 1_555 1_555
C25A N1A 1_555 1_555
H25A C25A 1_555 1_555
C26A C25A 1_555 1_555
H26A C26A 1_555 1_555
C27A C26A 1_555 1_555
H27A C27A 1_555 1_555
C28A C27A 1_555 1_555
C29A C28A 1_555 1_555
H28A C29A 1_555 1_555
C30A C29A 1_555 1_555
H29A C30A 1_555 1_555
C31A C30A 1_555 1_555
C32A C31A 1_555 1_555
H30A C32A 1_555 1_555
C33A C32A 1_555 1_555
H31A C33A 1_555 1_555
C34A N2A 1_555 1_555
H32A C34A 1_555 1_555
C35A N2A 1_555 1_555
C36A N1A 1_555 1_555
Co1_2 O7 1_555 1_555
Co1A_2 O7A 1_555 1_555
Co2_2 O8 1_555 1_555
Co2A O2A 1_555 1_555
Co2A_2 O8A 1_555 1_555
O2F Co2 1_555 1_555
O5F Co2 1_555 1_555
O7_2 Co1 1_555 1_555
O7A_2 Co1A 1_555 1_555
O8_2 Co2 1_555 1_555
O8F Co2 1_555 1_555
Co2 O5 1_555 1_555
O6 C19 1_555 1_555
C3 C8 1_555 1_555
C5 C6 1_555 1_555
C13 C19 1_555 1_555
C17 C18 1_555 1_555
C28 C36 1_555 1_555
C31 C35 1_555 1_555
C33 C34 1_555 1_555
C35 C36 1_555 1_555
C40 C42 1_555 1_555
N3A C42A 1_555 1_555
C40A C41A 1_555 1_555
C40A C42A 1_555 1_555
O4A C8A 1_555 1_555
O5A Co2A 1_555 1_555
O6A C19A 1_555 1_555
C3A C8A 1_555 1_555
C5A C6A 1_555 1_555
C13A C19A 1_555 1_555
C17A C18A 1_555 1_555
C28A C36A 1_555 1_555
C31A C35A 1_555 1_555
C33A C34A 1_555 1_555
C35A C36A 1_555 1_555

#END
