
#######################################################################
#
#                 Cambridge Crystallographic Data Centre
#                                CCDC 
#
#######################################################################
#
# If this CIF has been generated from an entry in the Cambridge 
# Structural Database, then it will include bibliographic, chemical, 
# crystal, experimental, refinement or atomic coordinate data resulting 
# from the CCDC's data processing and validation procedures.
#
#######################################################################

data_LEWXIW
_symmetry_cell_setting           monoclinic
_symmetry_space_group_name_H-M   'C 2/c'
_symmetry_Int_Tables_number      15
_space_group_name_Hall           '-C 2yn'
loop_
_symmetry_equiv_pos_site_id
_symmetry_equiv_pos_as_xyz
1 x,y,z
2 -x,y,1/2-z
3 1/2+x,1/2+y,z
4 1/2-x,1/2+y,1/2-z
5 -x,-y,-z
6 x,-y,1/2+z
7 1/2-x,1/2-y,-z
8 1/2+x,1/2-y,1/2+z
_cell_length_a                   28.7774(18)
_cell_length_b                   9.6971(6)
_cell_length_c                   18.9936(12)
_cell_angle_alpha                90
_cell_angle_beta                 125.855(1)
_cell_angle_gamma                90
_cell_volume                     4295.91
loop_
_atom_site_label
_atom_site_type_symbol
_atom_site_fract_x
_atom_site_fract_y
_atom_site_fract_z
Mn1 Mn 0.448887(19) 0.32433(5) 0.62205(3)
O1 O 0.53145(10) 0.4073(3) 0.70742(15)
O2 O 0.60032(9) 0.4398(2) 0.84681(14)
O3 O 0.62821(10) 0.6936(2) 0.52090(14)
O4 O 0.55519(10) 0.5621(2) 0.48228(14)
N1 N 0.49793(11) 0.1439(3) 0.61732(17)
N2 N 0.41709(11) 0.1275(3) 0.64685(17)
C1 C 0.61754(12) 0.5076(3) 0.74341(19)
C2 C 0.59484(12) 0.5258(3) 0.65617(19)
H1 H 0.5567 0.4975 0.6123
C3 C 0.62812(13) 0.5854(3) 0.63352(19)
C4 C 0.68419(13) 0.6264(3) 0.6981(2)
H2 H 0.7062 0.6698 0.6818
C5 C 0.70862(13) 0.6053(3) 0.7856(2)
C6 C 0.67407(13) 0.5459(3) 0.80676(19)
H3 H 0.6896 0.5312 0.8662
C7 C 0.58048(13) 0.4469(3) 0.7676(2)
C8 C 0.60251(13) 0.6136(3) 0.5399(2)
C9 C 0.77077(13) 0.6441(3) 0.8577(2)
C10 C 0.79977(15) 0.7185(4) 0.8224(3)
H4 H 0.8390 0.7432 0.8706
H5 H 0.7782 0.8024 0.7919
H6 H 0.8007 0.6578 0.7820
C11 C 0.77240(16) 0.7401(5) 0.9233(3)
H7 H 0.8123 0.7624 0.9701
H8 H 0.7544 0.6941 0.9476
H9 H 0.7515 0.8252 0.8940
C12 C 0.80399(15) 0.5121(4) 0.9045(2)
H10 H 0.8434 0.5358 0.9526
H11 H 0.8044 0.4516 0.8636
H12 H 0.7854 0.4645 0.9273
C13 C 0.53915(15) 0.1524(4) 0.6059(2)
H13 H 0.5511 0.2411 0.6013
C14 C 0.56567(16) 0.0370(4) 0.6005(3)
H14 H 0.5956 0.0478 0.5936
C15 C 0.54856(16) -0.0908(4) 0.6050(3)
H15 H 0.5661 -0.1700 0.6006
C16 C 0.50499(15) -0.1059(4) 0.6164(2)
C17 C 0.48296(18) -0.2364(4) 0.6194(3)
H16 H 0.4973 -0.3188 0.6117
C18 C 0.44204(18) -0.2435(4) 0.6331(3)
H17 H 0.4283 -0.3314 0.6353
C19 C 0.41887(16) -0.1224(4) 0.6444(2)
C20 C 0.37611(17) -0.1250(4) 0.6586(3)
H18 H 0.3621 -0.2106 0.6632
C21 C 0.35518(17) -0.0062(4) 0.6655(3)
H19 H 0.3262 -0.0073 0.6749
C22 C 0.37614(15) 0.1189(4) 0.6588(2)
H20 H 0.3604 0.2020 0.6630
C23 C 0.43785(13) 0.0082(3) 0.6388(2)
C24 C 0.48157(13) 0.0165(3) 0.6242(2)
Mn1A Mn 0.551113(19) 0.32433(5) 0.87795(3)
Mn1D Mn 0.551113(19) 0.67567(5) 0.37795(3)
O2A O 0.39968(9) 0.4398(2) 0.65319(14)
O3D O 0.37179(10) 0.3064(2) 0.47910(14)
O4D O 0.44481(10) 0.4379(2) 0.51772(14)
O5 O 0.7214(3) 0.6421(8) 0.5135(5)
H21 H 0.6871 0.6520 0.4953
H22 H 0.7129 0.6965 0.4724
O6? O 0.7441(4) 0.6628(13) 0.5692(7)
H23? H 0.7244 0.6918 0.5856
H24? H 0.7492 0.7100 0.5353
loop_
_geom_bond_atom_site_label_1
_geom_bond_atom_site_label_2
_geom_bond_site_symmetry_1
_geom_bond_site_symmetry_2
Mn1 O1 1_555 1_555
O1 C7 1_555 1_555
O2 C7 1_555 1_555
O3 C8 1_555 1_555
O4 C8 1_555 1_555
N1 Mn1 1_555 1_555
N2 Mn1 1_555 1_555
C1 C2 1_555 1_555
C2 H1 1_555 1_555
C3 C2 1_555 1_555
C4 C3 1_555 1_555
H2 C4 1_555 1_555
C5 C4 1_555 1_555
C6 C1 1_555 1_555
H3 C6 1_555 1_555
C7 C1 1_555 1_555
C8 C3 1_555 1_555
C9 C5 1_555 1_555
C10 C9 1_555 1_555
H4 C10 1_555 1_555
H5 C10 1_555 1_555
H6 C10 1_555 1_555
C11 C9 1_555 1_555
H7 C11 1_555 1_555
H8 C11 1_555 1_555
H9 C11 1_555 1_555
C12 C9 1_555 1_555
H10 C12 1_555 1_555
H11 C12 1_555 1_555
H12 C12 1_555 1_555
C13 N1 1_555 1_555
H13 C13 1_555 1_555
C14 C13 1_555 1_555
H14 C14 1_555 1_555
C15 C14 1_555 1_555
H15 C15 1_555 1_555
C16 C15 1_555 1_555
C17 C16 1_555 1_555
H16 C17 1_555 1_555
C18 C17 1_555 1_555
H17 C18 1_555 1_555
C19 C18 1_555 1_555
C20 C19 1_555 1_555
H18 C20 1_555 1_555
C21 C20 1_555 1_555
H19 C21 1_555 1_555
C22 N2 1_555 1_555
H20 C22 1_555 1_555
C23 N2 1_555 1_555
C24 N1 1_555 1_555
O5 H21 1_555 1_555
H22 O5 1_555 1_555
Mn1A O2 1_555 1_555
Mn1D O3 1_555 1_555
O2A Mn1 1_555 1_555
O3D Mn1 1_555 1_555
O4D Mn1 1_555 1_555
O4 Mn1D 1_555 1_555
C5 C6 1_555 1_555
C16 C24 1_555 1_555
C19 C23 1_555 1_555
C21 C22 1_555 1_555
C23 C24 1_555 1_555

#END
