
#######################################################################
#
#                 Cambridge Crystallographic Data Centre
#                                CCDC 
#
#######################################################################
#
# If this CIF has been generated from an entry in the Cambridge 
# Structural Database, then it will include bibliographic, chemical, 
# crystal, experimental, refinement or atomic coordinate data resulting 
# from the CCDC's data processing and validation procedures.
#
#######################################################################

data_LEXCEY
_symmetry_cell_setting           monoclinic
_symmetry_space_group_name_H-M   'P 21/c'
_symmetry_Int_Tables_number      14
_space_group_name_Hall           '-P 2ybc'
loop_
_symmetry_equiv_pos_site_id
_symmetry_equiv_pos_as_xyz
1 x,y,z
2 -x,1/2+y,1/2-z
3 -x,-y,-z
4 x,1/2-y,1/2+z
_cell_length_a                   10.45700(10)
_cell_length_b                   19.0970(2)
_cell_length_c                   17.7070(2)
_cell_angle_alpha                90
_cell_angle_beta                 91.2120(10)
_cell_angle_gamma                90
_cell_volume                     3535.25
loop_
_atom_site_label
_atom_site_type_symbol
_atom_site_fract_x
_atom_site_fract_y
_atom_site_fract_z
W1 W 0.207135(11) -0.019652(6) -0.273484(7)
Co1 Co -0.08959(4) 0.20460(2) -0.25833(3)
Co2 Co 0.00000 0.00000 0.00000
C1 C 0.0736(3) -0.05393(18) -0.3603(2)
N1 N 0.0023(4) -0.0725(2) -0.4069(2)
C2 C 0.0492(3) 0.05370(17) -0.26830(19)
N2 N -0.0261(3) 0.09741(15) -0.26587(18)
C3 C 0.1370(3) -0.02161(16) -0.1597(2)
N3 N 0.0991(3) -0.02048(16) -0.09964(18)
C4 C -0.1616(3) 0.37050(17) -0.24645(19)
N4 N -0.1350(3) 0.31291(15) -0.25335(18)
C5 C 0.2354(3) 0.05256(18) -0.3659(2)
N5 N 0.2517(3) 0.09134(18) -0.4145(2)
C6 C 0.2972(4) 0.0728(2) -0.2265(2)
N6 N 0.3404(5) 0.1230(2) -0.2015(3)
C7 C 0.3668(4) -0.0554(2) -0.2043(2)
N7 N 0.4511(3) -0.0732(2) -0.1665(2)
C8 C 0.3398(4) -0.06880(19) -0.3489(2)
N8 N 0.4121(4) -0.0947(2) -0.3886(2)
C9 C -0.4123(3) 0.19044(18) -0.3248(2)
C10 C -0.5214(3) 0.2233(2) -0.3514(2)
H1 H -0.5553 0.212 -0.3988
C11 C -0.5803(4) 0.2730(2) -0.3078(3)
H2 H -0.6518 0.2968 -0.3264
C12 C -0.5324(4) 0.2870(2) -0.2366(3)
H3 H -0.5729 0.3195 -0.2062
C13 C -0.4245(4) 0.2528(2) -0.2102(2)
H4 H -0.3914 0.2625 -0.1622
N9 N -0.3670(3) 0.20525(15) -0.25419(17)
O1 O -0.2655(2) 0.17055(12) -0.22660(14)
C14 C -0.3465(3) 0.13657(18) -0.3694(2)
C15 C -0.4086(4) 0.07744(19) -0.3964(2)
H5 H -0.494 0.0699 -0.3851
C16 C -0.3444(4) 0.0296(2) -0.4401(3)
H6 H -0.3862 -0.01 -0.4588
C17 C -0.2185(4) 0.0411(2) -0.4555(2)
H7 H -0.1733 0.0085 -0.4834
C18 C -0.1593(4) 0.1005(2) -0.4298(2)
H8 H -0.0742 0.1085 -0.4413
N10 N -0.2224(3) 0.14732(15) -0.38817(16)
O2 O -0.1644(2) 0.20620(13) -0.36657(15)
O3 O -0.0184(3) 0.20221(14) -0.14926(16)
H9 H 0.03 0.2321 -0.1274
H10 H -0.0347 0.1704 -0.1173
O4 O 0.0957(3) 0.22989(15) -0.29672(19)
H11 H 0.1648 0.2455 -0.277
H12 H 0.101 0.2373 -0.3439
C19 C 0.2928(4) -0.0609(2) 0.0822(2)
C20 C 0.4190(5) -0.0770(3) 0.0694(3)
H13 H 0.4845 -0.053 0.0947
C21 C 0.4468(6) -0.1296(4) 0.0185(4)
H14 H 0.5313 -0.1407 0.0083
C22 C 0.3497(7) -0.1645(3) -0.0163(3)
H15 H 0.3686 -0.2 -0.0504
C23 C 0.2265(5) -0.1494(2) -0.0030(3)
H16 H 0.1611 -0.174 -0.0276
N11 N 0.1990(3) -0.09796(17) 0.04660(18)
O5 O 0.0772(2) -0.08429(13) 0.06095(15)
C24 C 0.2558(4) -0.0057(2) 0.1363(2)
C25 C 0.2924(4) -0.0073(2) 0.2115(2)
H17 H 0.3428 -0.0438 0.23
C26 C 0.2540(5) 0.0458(2) 0.2599(2)
H18 H 0.2786 0.0449 0.3107
C27 C 0.1803(4) 0.0989(2) 0.2323(2)
H19 H 0.1521 0.134 0.2643
C28 C 0.1479(4) 0.1002(2) 0.1568(2)
H20 H 0.0986 0.1369 0.1376
N12 N 0.1864(3) 0.04940(16) 0.11064(17)
O6 O 0.1579(3) 0.05399(15) 0.03657(14)
W1B W -0.207135(11) 0.019652(6) 0.273484(7)
Co1B Co 0.08959(4) -0.20460(2) 0.25833(3)
C1B C -0.0736(3) 0.05393(18) 0.3603(2)
N1B N -0.0023(4) 0.0725(2) 0.4069(2)
C2B C -0.0492(3) -0.05370(17) 0.26830(19)
N2B N 0.0261(3) -0.09741(15) 0.26587(18)
C3B C -0.1370(3) 0.02161(16) 0.1597(2)
N3B N -0.0991(3) 0.02048(16) 0.09964(18)
C4B C 0.1616(3) -0.37050(17) 0.24645(19)
N4B N 0.1350(3) -0.31291(15) 0.25335(18)
C5B C -0.2354(3) -0.05256(18) 0.3659(2)
N5B N -0.2517(3) -0.09134(18) 0.4145(2)
C6B C -0.2972(4) -0.0728(2) 0.2265(2)
N6B N -0.3404(5) -0.1230(2) 0.2015(3)
C7B C -0.3668(4) 0.0554(2) 0.2043(2)
N7B N -0.4511(3) 0.0732(2) 0.1665(2)
C8B C -0.3398(4) 0.06880(19) 0.3489(2)
N8B N -0.4121(4) 0.0947(2) 0.3886(2)
C9B C 0.4123(3) -0.19044(18) 0.3248(2)
C10B C 0.5214(3) -0.2233(2) 0.3514(2)
H1B H 0.5553 -0.212 0.3988
C11B C 0.5803(4) -0.2730(2) 0.3078(3)
H2B H 0.6518 -0.2968 0.3264
C12B C 0.5324(4) -0.2870(2) 0.2366(3)
H3B H 0.5729 -0.3195 0.2062
C13B C 0.4245(4) -0.2528(2) 0.2102(2)
H4B H 0.3914 -0.2625 0.1622
N9B N 0.3670(3) -0.20525(15) 0.25419(17)
O1B O 0.2655(2) -0.17055(12) 0.22660(14)
C14B C 0.3465(3) -0.13657(18) 0.3694(2)
C15B C 0.4086(4) -0.07744(19) 0.3964(2)
H5B H 0.494 -0.0699 0.3851
C16B C 0.3444(4) -0.0296(2) 0.4401(3)
H6B H 0.3862 0.01 0.4588
C17B C 0.2185(4) -0.0411(2) 0.4555(2)
H7B H 0.1733 -0.0085 0.4834
C18B C 0.1593(4) -0.1005(2) 0.4298(2)
H8B H 0.0742 -0.1085 0.4413
N10B N 0.2224(3) -0.14732(15) 0.38817(16)
O2B O 0.1644(2) -0.20620(13) 0.36657(15)
O3B O 0.0184(3) -0.20221(14) 0.14926(16)
H9B H -0.03 -0.2321 0.1274
H10B H 0.0347 -0.1704 0.1173
O4B O -0.0957(3) -0.22989(15) 0.29672(19)
H11B H -0.1648 -0.2455 0.277
H12B H -0.101 -0.2373 0.3439
C19B C -0.2928(4) 0.0609(2) -0.0822(2)
C20B C -0.4190(5) 0.0770(3) -0.0694(3)
H13B H -0.4845 0.053 -0.0947
C21B C -0.4468(6) 0.1296(4) -0.0185(4)
H14B H -0.5313 0.1407 -0.0083
C22B C -0.3497(7) 0.1645(3) 0.0163(3)
H15B H -0.3686 0.2 0.0504
C23B C -0.2265(5) 0.1494(2) 0.0030(3)
H16B H -0.1611 0.174 0.0276
N11B N -0.1990(3) 0.09796(17) -0.04660(18)
O5B O -0.0772(2) 0.08429(13) -0.06095(15)
C24B C -0.2558(4) 0.0057(2) -0.1363(2)
C25B C -0.2924(4) 0.0073(2) -0.2115(2)
H17B H -0.3428 0.0438 -0.23
C26B C -0.2540(5) -0.0458(2) -0.2599(2)
H18B H -0.2786 -0.0449 -0.3107
C27B C -0.1803(4) -0.0989(2) -0.2323(2)
H19B H -0.1521 -0.134 -0.2643
C28B C -0.1479(4) -0.1002(2) -0.1568(2)
H20B H -0.0986 -0.1369 -0.1376
N12B N -0.1864(3) -0.04940(16) -0.11064(17)
O6B O -0.1579(3) -0.05399(15) -0.03657(14)
W1A W -0.207135(11) 0.480348(6) -0.226516(7)
W1C W 0.207135(11) -0.480348(6) 0.226516(7)
C4A C 0.1616(3) -0.12950(17) -0.25355(19)
C4C C -0.1616(3) 0.12950(17) 0.25355(19)
O7 O 0.6142(4) -0.1686(2) -0.4639(2)
H21 H 0.5548 -0.1471 -0.4415
H22 H 0.6526 -0.1466 -0.4985
O8 O 0.1474(6) 0.3032(3) -0.1017(4)
H23 H 0.2199 0.3121 -0.0812
H24 H 0.1027 0.3403 -0.099
O9 O 0.2446(6) 0.1666(3) -0.0385(4)
H25 H 0.2557 0.1549 -0.0842
H26 H 0.2265 0.1297 -0.014
O10 O 0.1126(10) 0.2537(6) -0.4480(4)
H27 H 0.1569 0.2788 -0.4772
H28 H 0.145 0.2137 -0.4389
loop_
_geom_bond_atom_site_label_1
_geom_bond_atom_site_label_2
_geom_bond_site_symmetry_1
_geom_bond_site_symmetry_2
W1 C1 1_555 1_555
Co1 N2 1_555 1_555
Co2 N3 1_555 1_555
C1 N1 1_555 1_555
C2 W1 1_555 1_555
N2 C2 1_555 1_555
C3 W1 1_555 1_555
N3 C3 1_555 1_555
C4 N4 1_555 1_555
N4 Co1 1_555 1_555
C5 W1 1_555 1_555
N5 C5 1_555 1_555
C6 W1 1_555 1_555
N6 C6 1_555 1_555
C7 W1 1_555 1_555
N7 C7 1_555 1_555
C8 W1 1_555 1_555
N8 C8 1_555 1_555
C9 C10 1_555 1_555
C10 H1 1_555 1_555
C11 C10 1_555 1_555
H2 C11 1_555 1_555
C12 C11 1_555 1_555
H3 C12 1_555 1_555
C13 C12 1_555 1_555
H4 C13 1_555 1_555
N9 C9 1_555 1_555
O1 Co1 1_555 1_555
C14 C9 1_555 1_555
C15 C14 1_555 1_555
H5 C15 1_555 1_555
C16 C15 1_555 1_555
H6 C16 1_555 1_555
C17 C16 1_555 1_555
H7 C17 1_555 1_555
C18 C17 1_555 1_555
H8 C18 1_555 1_555
N10 C14 1_555 1_555
O2 Co1 1_555 1_555
O3 Co1 1_555 1_555
H9 O3 1_555 1_555
H10 O3 1_555 1_555
O4 Co1 1_555 1_555
H11 O4 1_555 1_555
H12 O4 1_555 1_555
C19 C20 1_555 1_555
C20 H13 1_555 1_555
C21 C20 1_555 1_555
H14 C21 1_555 1_555
C22 C21 1_555 1_555
H15 C22 1_555 1_555
C23 C22 1_555 1_555
H16 C23 1_555 1_555
N11 C19 1_555 1_555
O5 Co2 1_555 1_555
C24 C19 1_555 1_555
C25 C24 1_555 1_555
H17 C25 1_555 1_555
C26 C25 1_555 1_555
H18 C26 1_555 1_555
C27 C26 1_555 1_555
H19 C27 1_555 1_555
C28 C27 1_555 1_555
H20 C28 1_555 1_555
N12 C24 1_555 1_555
O6 Co2 1_555 1_555
O7 H21 1_555 1_555
H22 O7 1_555 1_555
O8 H23 1_555 1_555
H24 O8 1_555 1_555
O9 H25 1_555 1_555
H26 O9 1_555 1_555
O10 H27 1_555 1_555
H28 O10 1_555 1_555
W1B C1B 1_555 1_555
Co1B N2B 1_555 1_555
C1B N1B 1_555 1_555
C2B W1B 1_555 1_555
N2B C2B 1_555 1_555
C3B W1B 1_555 1_555
N3B Co2 1_555 1_555
C4B N4B 1_555 1_555
N4B Co1B 1_555 1_555
C5B W1B 1_555 1_555
N5B C5B 1_555 1_555
C6B W1B 1_555 1_555
N6B C6B 1_555 1_555
C7B W1B 1_555 1_555
N7B C7B 1_555 1_555
C8B W1B 1_555 1_555
N8B C8B 1_555 1_555
C9B C10B 1_555 1_555
C10B H1B 1_555 1_555
C11B C10B 1_555 1_555
H2B C11B 1_555 1_555
C12B C11B 1_555 1_555
H3B C12B 1_555 1_555
C13B C12B 1_555 1_555
H4B C13B 1_555 1_555
N9B C9B 1_555 1_555
O1B Co1B 1_555 1_555
C14B C9B 1_555 1_555
C15B C14B 1_555 1_555
H5B C15B 1_555 1_555
C16B C15B 1_555 1_555
H6B C16B 1_555 1_555
C17B C16B 1_555 1_555
H7B C17B 1_555 1_555
C18B C17B 1_555 1_555
H8B C18B 1_555 1_555
N10B C14B 1_555 1_555
O2B Co1B 1_555 1_555
O3B Co1B 1_555 1_555
H9B O3B 1_555 1_555
H10B O3B 1_555 1_555
O4B Co1B 1_555 1_555
H11B O4B 1_555 1_555
H12B O4B 1_555 1_555
C19B C20B 1_555 1_555
C20B H13B 1_555 1_555
C21B C20B 1_555 1_555
H14B C21B 1_555 1_555
C22B C21B 1_555 1_555
H15B C22B 1_555 1_555
C23B C22B 1_555 1_555
H16B C23B 1_555 1_555
N11B C19B 1_555 1_555
O5B Co2 1_555 1_555
C24B C19B 1_555 1_555
C25B C24B 1_555 1_555
H17B C25B 1_555 1_555
C26B C25B 1_555 1_555
H18B C26B 1_555 1_555
C27B C26B 1_555 1_555
H19B C27B 1_555 1_555
C28B C27B 1_555 1_555
H20B C28B 1_555 1_555
N12B C24B 1_555 1_555
O6B Co2 1_555 1_555
W1A C4 1_555 1_555
W1C C4B 1_555 1_555
C4A W1 1_555 1_555
C4C W1B 1_555 1_555
C13 N9 1_555 1_555
N9 O1 1_555 1_555
C18 N10 1_555 1_555
N10 O2 1_555 1_555
C23 N11 1_555 1_555
N11 O5 1_555 1_555
C28 N12 1_555 1_555
N12 O6 1_555 1_555
C3B N3B 1_555 1_555
C13B N9B 1_555 1_555
N9B O1B 1_555 1_555
C18B N10B 1_555 1_555
N10B O2B 1_555 1_555
C23B N11B 1_555 1_555
N11B O5B 1_555 1_555
C28B N12B 1_555 1_555
N12B O6B 1_555 1_555

#END
