
#######################################################################
#
#                 Cambridge Crystallographic Data Centre
#                                CCDC 
#
#######################################################################
#
# If this CIF has been generated from an entry in the Cambridge 
# Structural Database, then it will include bibliographic, chemical, 
# crystal, experimental, refinement or atomic coordinate data resulting 
# from the CCDC's data processing and validation procedures.
#
#######################################################################

data_LEXHAZ
_symmetry_cell_setting           triclinic
_symmetry_space_group_name_H-M   'P -1'
_symmetry_Int_Tables_number      2
_space_group_name_Hall           '-P 1'
loop_
_symmetry_equiv_pos_site_id
_symmetry_equiv_pos_as_xyz
1 x,y,z
2 -x,-y,-z
_cell_length_a                   13.4510(17)
_cell_length_b                   14.8499(19)
_cell_length_c                   21.992(2)
_cell_angle_alpha                99.752(5)
_cell_angle_beta                 92.350(2)
_cell_angle_gamma                116.253(4)
_cell_volume                     3849.22
loop_
_atom_site_label
_atom_site_type_symbol
_atom_site_fract_x
_atom_site_fract_y
_atom_site_fract_z
P1 P 0.0000 0.5000 0.0000
Mo1 Mo 0.22458(7) 0.57122(6) 0.11861(4)
Mo2 Mo 0.00348(7) 0.37509(7) -0.15390(4)
Mo3 Mo -0.16965(8) 0.35532(8) 0.10194(5)
Mo4 Mo 0.05319(9) 0.30706(8) 0.04812(5)
Mo5 Mo 0.24273(8) 0.47257(7) -0.03900(5)
Mo6 Mo -0.19110(7) 0.23710(7) -0.05538(4)
O1 O -0.0960(10) 0.5224(9) -0.0251(6)
O2 O -0.0602(10) 0.3885(9) 0.0138(5)
O3 O 0.3342(7) 0.6074(8) 0.1716(5)
O4 O 0.2902(10) 0.5420(7) 0.0416(5)
O5 O 0.1789(13) 0.4308(11) 0.1192(7)
O6 O 0.1256(7) 0.5917(6) 0.1647(5)
O7 O 0.2617(7) 0.6979(6) 0.0920(5)
O8 O -0.0020(11) 0.3210(9) -0.2270(4)
O9 O -0.0856(7) 0.4780(7) 0.1561(7)
O10 O 0.1300(7) 0.3871(7) -0.1135(6)
O11 O -0.0934(7) 0.2671(6) -0.1221(4)
O12 O -0.2370(9) 0.2575(10) 0.0211(5)
O13 O -0.2481(7) 0.2890(7) 0.1503(4)
O14 O 0.2592(7) 0.5833(7) -0.0710(6)
O15 O -0.0594(8) 0.3124(10) 0.0997(4)
O16 O 0.1554(10) 0.3471(7) -0.0062(4)
O17 O 0.0787(6) 0.2209(5) 0.0757(4)
O18 O -0.0665(8) 0.2255(10) -0.0140(4)
O19 O 0.3478(7) 0.4502(6) -0.0586(4)
O20 O -0.2791(7) 0.1164(6) -0.0858(5)
O1A O 0.0960(10) 0.4776(9) 0.0251(6)
O2A O 0.0602(10) 0.6115(9) -0.0138(5)
Mo1A Mo -0.22458(7) 0.42878(6) -0.11861(4)
Mo2A Mo -0.00348(7) 0.62491(7) 0.15390(4)
Mo3A Mo 0.16965(8) 0.64468(8) -0.10194(5)
Mo4A Mo -0.05319(9) 0.69294(8) -0.04812(5)
Mo5A Mo -0.24273(8) 0.52743(7) 0.03900(5)
Mo6A Mo 0.19110(7) 0.76290(7) 0.05538(4)
O3A O -0.3342(7) 0.3926(8) -0.1716(5)
O4A O -0.2902(10) 0.4580(7) -0.0416(5)
O5A O -0.1789(13) 0.5692(11) -0.1192(7)
O6A O -0.1256(7) 0.4083(6) -0.1647(5)
O7A O -0.2617(7) 0.3021(6) -0.0920(5)
O8A O 0.0020(11) 0.6790(9) 0.2270(4)
O9A O 0.0856(7) 0.5220(7) -0.1561(7)
O10A O -0.1300(7) 0.6129(7) 0.1135(6)
O11A O 0.0934(7) 0.7329(6) 0.1221(4)
O12A O 0.2370(9) 0.7425(10) -0.0211(5)
O13A O 0.2481(7) 0.7110(7) -0.1503(4)
O14A O -0.2592(7) 0.4167(7) 0.0710(6)
O15A O 0.0594(8) 0.6876(10) -0.0997(4)
O16A O -0.1554(10) 0.6529(7) 0.0062(4)
O17A O -0.0787(6) 0.7791(5) -0.0757(4)
O18A O 0.0665(8) 0.7745(10) 0.0140(4)
O19A O -0.3478(7) 0.5498(6) 0.0586(4)
O20A O 0.2791(7) 0.8836(6) 0.0858(5)
P2 P 1.0000 0.0000 0.5000
Mo7 Mo 0.72205(6) -0.07919(6) 0.43130(4)
Mo8 Mo 1.19439(6) 0.26634(6) 0.53931(4)
Mo9 Mo 0.92432(7) 0.18346(6) 0.45497(4)
Mo10 Mo 1.08925(7) 0.12960(6) 0.66030(4)
Mo11 Mo 0.87061(7) -0.12913(7) 0.61827(4)
Mo12 Mo 0.82295(7) 0.07511(7) 0.58657(5)
O21 O 1.0380(9) -0.0179(8) 0.4332(5)
O22 O 0.9069(9) 0.0296(9) 0.4924(5)
O23 O 1.2043(8) 0.1014(6) 0.6407(4)
O24 O 0.5966(6) -0.1108(8) 0.3965(4)
O25 O 0.7204(8) -0.0213(6) 0.5107(4)
O26 O 0.8031(8) 0.0655(5) 0.4184(4)
O27 O 1.2916(8) 0.1999(7) 0.5525(4)
O28 O 1.0712(7) 0.2767(9) 0.5107(3)
O29 O 1.2132(7) 0.2259(10) 0.4513(4)
O30 O 1.1504(7) 0.2437(6) 0.6166(4)
O31 O 1.2916(6) 0.3872(5) 0.5569(5)
O32 O 0.8699(8) 0.1709(6) 0.5351(4)
O33 O 1.0116(7) 0.1707(10) 0.3947(4)
O34 O 0.8911(7) 0.2712(5) 0.4360(4)
O35 O 0.9519(8) 0.1436(7) 0.6420(6)
O36 O 0.9964(7) -0.0031(7) 0.6655(6)
O37 O 1.1287(8) 0.1922(7) 0.7323(4)
O38 O 0.7952(7) -0.0512(7) 0.6117(6)
O39 O 0.8204(6) -0.1859(6) 0.6758(3)
O40 O 0.7327(7) 0.1042(7) 0.6234(4)
O21A O 0.9620(9) 0.0179(8) 0.5668(5)
O22A O 1.0931(9) -0.0296(9) 0.5076(5)
Mo7A Mo 1.27795(6) 0.07919(6) 0.56870(4)
Mo8A Mo 0.80561(6) -0.26634(6) 0.46069(4)
Mo9A Mo 1.07568(7) -0.18346(6) 0.54503(4)
Mo10A Mo 0.91075(7) -0.12960(6) 0.33970(4)
Mo11A Mo 1.12939(7) 0.12913(7) 0.38173(4)
Mo12A Mo 1.17705(7) -0.07511(7) 0.41343(5)
O23A O 0.7957(8) -0.1014(6) 0.3593(4)
O24A O 1.4034(6) 0.1108(8) 0.6035(4)
O25A O 1.2796(8) 0.0213(6) 0.4893(4)
O26A O 1.1969(8) -0.0655(5) 0.5816(4)
O27A O 0.7084(8) -0.1999(7) 0.4475(4)
O28A O 0.9288(7) -0.2767(9) 0.4893(3)
O29A O 0.7868(7) -0.2259(10) 0.5487(4)
O30A O 0.8496(7) -0.2437(6) 0.3834(4)
O31A O 0.7084(6) -0.3872(5) 0.4431(5)
O32A O 1.1301(8) -0.1709(6) 0.4649(4)
O33A O 0.9884(7) -0.1707(10) 0.6053(4)
O34A O 1.1089(7) -0.2712(5) 0.5640(4)
O35A O 1.0481(8) -0.1436(7) 0.3580(6)
O36A O 1.0036(7) 0.0031(7) 0.3345(6)
O37A O 0.8713(8) -0.1922(7) 0.2677(4)
O38A O 1.2048(7) 0.0512(7) 0.3883(6)
O39A O 1.1796(6) 0.1859(6) 0.3242(3)
O40A O 1.2673(7) -0.1042(7) 0.3766(4)
Cu1 Cu 0.5000 0.0000 0.0000
Cu2 Cu 0.03181(9) 0.03724(9) 0.09416(5)
Cu3 Cu 0.56070(9) 0.42546(9) 0.54749(5)
Cu4 Cu 0.47768(9) 0.23401(8) 0.25242(5)
Cu5 Cu 0.93455(8) 0.43965(8) 0.40917(5)
N1 N 0.7434(6) 0.4890(6) 0.5399(3)
N2 N 0.7612(6) 0.4553(6) 0.4821(3)
N3 N 0.8636(5) 0.4703(5) 0.4824(3)
N4 N 0.9188(5) 0.5168(5) 0.5411(3)
C1 C 0.8427(7) 0.5270(6) 0.5748(3)
C2 C 0.8775(7) 0.5737(7) 0.6419(4)
N5 N 0.9828(6) 0.5924(6) 0.6608(3)
C3 C 1.0222(9) 0.6286(11) 0.7203(5)
H1 H 1.0930 0.6376 0.7338
C4 C 0.9613(11) 0.6537(13) 0.7632(5)
H2 H 0.9924 0.6824 0.8046
C5 C 0.8539(11) 0.6356(13) 0.7439(5)
H3 H 0.8100 0.6484 0.7723
C6 C 0.8127(9) 0.5978(9) 0.6810(5)
H4 H 0.7427 0.5891 0.6660
N6 N 0.4793(6) 0.3979(6) 0.4624(3)
N7 N 0.4477(6) 0.4452(6) 0.4246(4)
N8 N 0.4185(7) 0.3892(7) 0.3673(4)
N9 N 0.4305(7) 0.3042(6) 0.3669(4)
C7 C 0.4682(7) 0.3130(7) 0.4260(4)
C8 C 0.5034(8) 0.2463(7) 0.4533(4)
N10 N 0.5527(6) 0.2876(6) 0.5125(4)
C9 C 0.5966(9) 0.2381(9) 0.5408(5)
H5 H 0.6309 0.2657 0.5818
C10 C 0.5916(9) 0.1456(8) 0.5099(6)
H6 H 0.6259 0.1137 0.5293
C11 C 0.5358(10) 0.1021(9) 0.4506(6)
H7 H 0.5293 0.0392 0.4301
C12 C 0.4903(9) 0.1520(8) 0.4225(5)
H8 H 0.4506 0.1230 0.3828
N11 N 0.7822(7) 0.4673(7) 0.3276(4)
N12 N 0.7958(6) 0.3962(6) 0.3514(3)
N13 N 0.7090(6) 0.3046(6) 0.3366(3)
N14 N 0.6336(6) 0.3149(6) 0.3010(3)
N15 N 0.5142(6) 0.3763(6) 0.2366(3)
C13 C 0.6808(7) 0.4132(7) 0.2963(4)
C14 C 0.6178(8) 0.4498(8) 0.2591(5)
C15 C 0.4497(9) 0.3980(9) 0.1994(5)
H9 H 0.3779 0.3476 0.1829
C16 C 0.4885(10) 0.4949(10) 0.1849(7)
H10 H 0.4424 0.5097 0.1601
C17 C 0.5955(14) 0.5679(12) 0.2079(8)
H11 H 0.6238 0.6319 0.1973
C18 C 0.6610(12) 0.5464(10) 0.2469(7)
H12 H 0.7327 0.5960 0.2644
N16 N 0.3139(6) 0.1570(6) 0.2163(3)
N17 N 0.2379(6) 0.1702(6) 0.1839(3)
N18 N 0.1533(6) 0.0775(7) 0.1626(4)
N19 N 0.1714(6) 0.0039(6) 0.1819(4)
C19 C 0.2723(7) 0.0548(7) 0.2146(4)
C20 C 0.3417(7) 0.0162(7) 0.2404(4)
N20 N 0.4454(6) 0.0898(6) 0.2644(3)
C21 C 0.5218(8) 0.0615(8) 0.2858(5)
H13 H 0.5938 0.1114 0.3024
C22 C 0.4933(9) -0.0396(9) 0.2828(5)
H14 H 0.5461 -0.0579 0.2975
C23 C 0.3867(10) -0.1152(9) 0.2583(5)
H15 H 0.3676 -0.1840 0.2563
C24 C 0.3098(9) -0.0868(8) 0.2369(5)
H16 H 0.2375 -0.1360 0.2203
N21 N 0.5027(7) 0.2391(7) 0.1143(4)
N22 N 0.5136(7) 0.1922(6) 0.1577(4)
N23 N 0.5189(7) 0.1074(7) 0.1347(4)
N24 N 0.5126(7) 0.0987(6) 0.0731(4)
C25 C 0.5037(7) 0.1810(7) 0.0614(4)
C26 C 0.4915(8) 0.1908(8) -0.0032(5)
N25 N 0.4965(7) 0.1125(6) -0.0432(4)
C27 C 0.4888(9) 0.1142(9) -0.1037(5)
H17 H 0.4968 0.0647 -0.1323
C28 C 0.4688(10) 0.1897(9) -0.1248(5)
H18 H 0.4608 0.1888 -0.1671
C29 C 0.4612(11) 0.2657(10) -0.0817(6)
H19 H 0.4476 0.3157 -0.0955
C30 C 0.4730(10) 0.2680(9) -0.0207(5)
H20 H 0.4690 0.3190 0.0086
N26 N -0.0942(6) 0.0077(5) 0.0311(3)
N27 N -0.1286(5) -0.0259(5) -0.0307(3)
N28 N -0.2284(6) -0.0317(6) -0.0420(4)
N29 N -0.2620(6) -0.0042(6) 0.0110(4)
C31 C -0.1777(7) 0.0218(6) 0.0551(4)
C32 C -0.1656(7) 0.0548(7) 0.1223(4)
N30 N -0.0731(6) 0.0575(6) 0.1516(3)
C33 C -0.0557(10) 0.0814(10) 0.2139(4)
H21 H 0.0088 0.0862 0.2345
C34 C -0.1320(11) 0.0994(12) 0.2488(6)
H22 H -0.1218 0.1103 0.2920
C35 C -0.2210(9) 0.1008(11) 0.2188(6)
H23 H -0.2691 0.1178 0.2418
C36 C -0.2420(8) 0.0769(9) 0.1532(5)
H24 H -0.3038 0.0760 0.1320
O41 O -0.0440(7) -0.1335(6) 0.1094(4)
H25 H -0.0128 -0.1651 0.0885
H26 H -0.1138 -0.1637 0.0971
O42 O 0.5293(13) 0.3904(9) 0.6318(5)
H27 H 0.5645 0.4444 0.6600
H28 H 0.5506 0.3459 0.6371
Cu2A Cu -0.03181(9) -0.03724(9) -0.09416(5)
Cu3A Cu -0.56070(9) -0.42546(9) -0.54749(5)
Cu4A Cu -0.47768(9) -0.23401(8) -0.25242(5)
Cu5A Cu -0.93455(8) -0.43965(8) -0.40917(5)
N1A N -0.7434(6) -0.4890(6) -0.5399(3)
N2A N -0.7612(6) -0.4553(6) -0.4821(3)
N3A N -0.8636(5) -0.4703(5) -0.4824(3)
N4A N -0.9188(5) -0.5168(5) -0.5411(3)
C1A C -0.8427(7) -0.5270(6) -0.5748(3)
C2A C -0.8775(7) -0.5737(7) -0.6419(4)
N5A N -0.9828(6) -0.5924(6) -0.6608(3)
C3A C -1.0222(9) -0.6286(11) -0.7203(5)
H1A H -1.0930 -0.6376 -0.7338
C4A C -0.9613(11) -0.6537(13) -0.7632(5)
H2A H -0.9924 -0.6824 -0.8046
C5A C -0.8539(11) -0.6356(13) -0.7439(5)
H3A H -0.8100 -0.6484 -0.7723
C6A C -0.8127(9) -0.5978(9) -0.6810(5)
H4A H -0.7427 -0.5891 -0.6660
N6A N -0.4793(6) -0.3979(6) -0.4624(3)
N7A N -0.4477(6) -0.4452(6) -0.4246(4)
N8A N -0.4185(7) -0.3892(7) -0.3673(4)
N9A N -0.4305(7) -0.3042(6) -0.3669(4)
C7A C -0.4682(7) -0.3130(7) -0.4260(4)
C8A C -0.5034(8) -0.2463(7) -0.4533(4)
N10A N -0.5527(6) -0.2876(6) -0.5125(4)
C9A C -0.5966(9) -0.2381(9) -0.5408(5)
H5A H -0.6309 -0.2657 -0.5818
C10A C -0.5916(9) -0.1456(8) -0.5099(6)
H6A H -0.6259 -0.1137 -0.5293
C11A C -0.5358(10) -0.1021(9) -0.4506(6)
H7A H -0.5293 -0.0392 -0.4301
C12A C -0.4903(9) -0.1520(8) -0.4225(5)
H8A H -0.4506 -0.1230 -0.3828
N11A N -0.7822(7) -0.4673(7) -0.3276(4)
N12A N -0.7958(6) -0.3962(6) -0.3514(3)
N13A N -0.7090(6) -0.3046(6) -0.3366(3)
N14A N -0.6336(6) -0.3149(6) -0.3010(3)
N15A N -0.5142(6) -0.3763(6) -0.2366(3)
C13A C -0.6808(7) -0.4132(7) -0.2963(4)
C14A C -0.6178(8) -0.4498(8) -0.2591(5)
C15A C -0.4497(9) -0.3980(9) -0.1994(5)
H9A H -0.3779 -0.3476 -0.1829
C16A C -0.4885(10) -0.4949(10) -0.1849(7)
H10A H -0.4424 -0.5097 -0.1601
C17A C -0.5955(14) -0.5679(12) -0.2079(8)
H11A H -0.6238 -0.6319 -0.1973
C18A C -0.6610(12) -0.5464(10) -0.2469(7)
H12A H -0.7327 -0.5960 -0.2644
N16A N -0.3139(6) -0.1570(6) -0.2163(3)
N17A N -0.2379(6) -0.1702(6) -0.1839(3)
N18A N -0.1533(6) -0.0775(7) -0.1626(4)
N19A N -0.1714(6) -0.0039(6) -0.1819(4)
C19A C -0.2723(7) -0.0548(7) -0.2146(4)
C20A C -0.3417(7) -0.0162(7) -0.2404(4)
N20A N -0.4454(6) -0.0898(6) -0.2644(3)
C21A C -0.5218(8) -0.0615(8) -0.2858(5)
H13A H -0.5938 -0.1114 -0.3024
C22A C -0.4933(9) 0.0396(9) -0.2828(5)
H14A H -0.5461 0.0579 -0.2975
C23A C -0.3867(10) 0.1152(9) -0.2583(5)
H15A H -0.3676 0.1840 -0.2563
C24A C -0.3098(9) 0.0868(8) -0.2369(5)
H16A H -0.2375 0.1360 -0.2203
N21A N -0.5027(7) -0.2391(7) -0.1143(4)
N22A N -0.5136(7) -0.1922(6) -0.1577(4)
N23A N -0.5189(7) -0.1074(7) -0.1347(4)
N24A N -0.5126(7) -0.0987(6) -0.0731(4)
C25A C -0.5037(7) -0.1810(7) -0.0614(4)
C26A C -0.4915(8) -0.1908(8) 0.0032(5)
N25A N -0.4965(7) -0.1125(6) 0.0432(4)
C27A C -0.4888(9) -0.1142(9) 0.1037(5)
H17A H -0.4968 -0.0647 0.1323
C28A C -0.4688(10) -0.1897(9) 0.1248(5)
H18A H -0.4608 -0.1888 0.1671
C29A C -0.4612(11) -0.2657(10) 0.0817(6)
H19A H -0.4476 -0.3157 0.0955
C30A C -0.4730(10) -0.2680(9) 0.0207(5)
H20A H -0.4690 -0.3190 -0.0086
N26A N 0.0942(6) -0.0077(5) -0.0311(3)
N27A N 0.1286(5) 0.0259(5) 0.0307(3)
N28A N 0.2284(6) 0.0317(6) 0.0420(4)
N29A N 0.2620(6) 0.0042(6) -0.0110(4)
C31A C 0.1777(7) -0.0218(6) -0.0551(4)
C32A C 0.1656(7) -0.0548(7) -0.1223(4)
N30A N 0.0731(6) -0.0575(6) -0.1516(3)
C33A C 0.0557(10) -0.0814(10) -0.2139(4)
H21A H -0.0088 -0.0862 -0.2345
C34A C 0.1320(11) -0.0994(12) -0.2488(6)
H22A H 0.1218 -0.1103 -0.2920
C35A C 0.2210(9) -0.1008(11) -0.2188(6)
H23A H 0.2691 -0.1178 -0.2418
C36A C 0.2420(8) -0.0769(9) -0.1532(5)
H24A H 0.3038 -0.0760 -0.1320
O41A O 0.0440(7) 0.1335(6) -0.1094(4)
H25A H 0.0128 0.1651 -0.0885
H26A H 0.1138 0.1637 -0.0971
O42A O -0.5293(13) -0.3904(9) -0.6318(5)
H27A H -0.5645 -0.4444 -0.6600
H28A H -0.5506 -0.3459 -0.6371
Cu1_2 Cu -0.5000 0.0000 0.0000
Cu3_2 Cu -0.43930(9) -0.57454(9) -0.45251(5)
Cu3A_2 Cu 0.43930(9) 0.57454(9) 0.45251(5)
Cu5_2 Cu -1.06545(8) -0.56035(8) -0.59083(5)
Cu5A_2 Cu 1.06545(8) 0.56035(8) 0.59083(5)
N4_2 N -1.0812(5) -0.4832(5) -0.4589(3)
N4A_2 N 1.0812(5) 0.4832(5) 0.4589(3)
N5_2 N -1.0172(6) -0.4076(6) -0.3392(3)
N5A_2 N 1.0172(6) 0.4076(6) 0.3392(3)
N7_2 N -0.5523(6) -0.5548(6) -0.5754(4)
N7A_2 N 0.5523(6) 0.5548(6) 0.5754(4)
N24A_2 N 0.4874(7) -0.0987(6) -0.0731(4)
N25A_2 N 0.5035(7) -0.1125(6) 0.0432(4)
O43 O 1.0058(8) 0.6127(6) 0.3828(4)
H29 H 0.9516 0.6194 0.3666
H30 H 1.0376 0.6587 0.4157
O44 O 0.187(3) 0.651(2) 0.3112(15)
O45 O 0.631(2) 0.3439(19) 0.7038(11)
O46? O 0.0669(9) 0.4945(8) -0.0543(5)
O47? O 0.0669(10) 0.5748(9) 0.0540(6)
O48? O 0.1283(12) 0.4300(11) 0.1017(7)
O49? O 0.9548(8) -0.1064(8) 0.5189(5)
O50? O 1.0982(9) 0.0796(8) 0.5449(5)
loop_
_geom_bond_atom_site_label_1
_geom_bond_atom_site_label_2
_geom_bond_site_symmetry_1
_geom_bond_site_symmetry_2
P1 O1 1_555 1_555
Mo1 O3 1_555 1_555
Mo2 O8 1_555 1_555
Mo3 O2 1_555 1_555
Mo4 O2 1_555 1_555
Mo5 O4 1_555 1_555
Mo6 O2 1_555 1_555
O1 Mo1A 1_555 1_555
O2 P1 1_555 1_555
O4 Mo1 1_555 1_555
O5 Mo1 1_555 1_555
O6 Mo1 1_555 1_555
O7 Mo1 1_555 1_555
O9 Mo3 1_555 1_555
O10 Mo2 1_555 1_555
O11 Mo2 1_555 1_555
O12 Mo3 1_555 1_555
O13 Mo3 1_555 1_555
O14 Mo5 1_555 1_555
O15 Mo3 1_555 1_555
O16 Mo4 1_555 1_555
O17 Mo4 1_555 1_555
O18 Mo4 1_555 1_555
O19 Mo5 1_555 1_555
O20 Mo6 1_555 1_555
P2 O21 1_555 1_555
Mo7 O22 1_555 1_555
Mo8 O27 1_555 1_555
Mo9 O22 1_555 1_555
Mo10 O23 1_555 1_555
Mo11 O36 1_555 1_555
Mo12 O22 1_555 1_555
O21 Mo10A 1_555 1_555
O22 P2 1_555 1_555
O23 Mo7A 1_555 1_555
O24 Mo7 1_555 1_555
O25 Mo7 1_555 1_555
O26 Mo7 1_555 1_555
O27 Mo7A 1_555 1_555
O28 Mo8 1_555 1_555
O29 Mo8 1_555 1_555
O30 Mo8 1_555 1_555
O31 Mo8 1_555 1_555
O32 Mo9 1_555 1_555
O33 Mo9 1_555 1_555
O34 Mo9 1_555 1_555
O35 Mo10 1_555 1_555
O36 Mo10 1_555 1_555
O37 Mo10 1_555 1_555
O38 Mo11 1_555 1_555
O39 Mo11 1_555 1_555
O40 Mo12 1_555 1_555
Cu1 N24 1_555 1_555
Cu2 N18 1_555 1_555
Cu3 N1 1_555 1_555
Cu4 N14 1_555 1_555
Cu5 N3 1_555 1_555
N1 N2 1_555 1_555
N2 N3 1_555 1_555
N3 N4 1_555 1_555
N4 C1 1_555 1_555
C1 N1 1_555 1_555
C2 C1 1_555 1_555
N5 C2 1_555 1_555
C3 N5 1_555 1_555
H1 C3 1_555 1_555
C4 C3 1_555 1_555
H2 C4 1_555 1_555
C5 C4 1_555 1_555
H3 C5 1_555 1_555
C6 C2 1_555 1_555
H4 C6 1_555 1_555
N6 Cu3 1_555 1_555
N7 N6 1_555 1_555
N8 N7 1_555 1_555
N9 N8 1_555 1_555
C7 N6 1_555 1_555
C8 C7 1_555 1_555
N10 Cu3 1_555 1_555
C9 N10 1_555 1_555
H5 C9 1_555 1_555
C10 C9 1_555 1_555
H6 C10 1_555 1_555
C11 C10 1_555 1_555
H7 C11 1_555 1_555
C12 C8 1_555 1_555
H8 C12 1_555 1_555
N11 N12 1_555 1_555
N12 Cu5 1_555 1_555
N13 N12 1_555 1_555
N14 N13 1_555 1_555
N15 Cu4 1_555 1_555
C13 N11 1_555 1_555
C14 N15 1_555 1_555
C15 N15 1_555 1_555
H9 C15 1_555 1_555
C16 C15 1_555 1_555
H10 C16 1_555 1_555
C17 C16 1_555 1_555
H11 C17 1_555 1_555
C18 C14 1_555 1_555
H12 C18 1_555 1_555
N16 Cu4 1_555 1_555
N17 N16 1_555 1_555
N18 N17 1_555 1_555
N19 N18 1_555 1_555
C19 N16 1_555 1_555
C20 C19 1_555 1_555
N20 Cu4 1_555 1_555
C21 N20 1_555 1_555
H13 C21 1_555 1_555
C22 C21 1_555 1_555
H14 C22 1_555 1_555
C23 C22 1_555 1_555
H15 C23 1_555 1_555
C24 C20 1_555 1_555
H16 C24 1_555 1_555
N21 N22 1_555 1_555
N22 Cu4 1_555 1_555
N23 N22 1_555 1_555
N24 N23 1_555 1_555
C25 N21 1_555 1_555
C26 C25 1_555 1_555
N25 Cu1 1_555 1_555
C27 N25 1_555 1_555
H17 C27 1_555 1_555
C28 C27 1_555 1_555
H18 C28 1_555 1_555
C29 C28 1_555 1_555
H19 C29 1_555 1_555
C30 C26 1_555 1_555
H20 C30 1_555 1_555
N26 Cu2 1_555 1_555
N27 N26 1_555 1_555
N28 N27 1_555 1_555
N29 N28 1_555 1_555
C31 N26 1_555 1_555
C32 C31 1_555 1_555
N30 Cu2 1_555 1_555
C33 N30 1_555 1_555
H21 C33 1_555 1_555
C34 C33 1_555 1_555
H22 C34 1_555 1_555
C35 C34 1_555 1_555
H23 C35 1_555 1_555
C36 C32 1_555 1_555
H24 C36 1_555 1_555
O41 Cu2 1_555 1_555
H25 O41 1_555 1_555
H26 O41 1_555 1_555
O42 Cu3 1_555 1_555
H27 O42 1_555 1_555
H28 O42 1_555 1_555
O43 H29 1_555 1_555
H30 O43 1_555 1_555
O1A P1 1_555 1_555
O2A P1 1_555 1_555
Mo1A O3A 1_555 1_555
Mo2A O6 1_555 1_555
Mo3A O14 1_555 1_555
Mo4A O1 1_555 1_555
Mo5A O1 1_555 1_555
Mo6A O7 1_555 1_555
O4A Mo1A 1_555 1_555
O5A Mo1A 1_555 1_555
O6A Mo2 1_555 1_555
O7A Mo6 1_555 1_555
O8A Mo2A 1_555 1_555
O9A Mo2 1_555 1_555
O10A Mo2A 1_555 1_555
O11A Mo2A 1_555 1_555
O12A Mo3A 1_555 1_555
O13A Mo3A 1_555 1_555
O14A Mo3 1_555 1_555
O15A Mo3A 1_555 1_555
O16A Mo4A 1_555 1_555
O17A Mo4A 1_555 1_555
O18A Mo4A 1_555 1_555
O19A Mo5A 1_555 1_555
O20A Mo6A 1_555 1_555
O21A P2 1_555 1_555
O22A P2 1_555 1_555
Mo7A O22A 1_555 1_555
Mo8A O27A 1_555 1_555
Mo9A O22A 1_555 1_555
Mo10A O23A 1_555 1_555
Mo11A O21 1_555 1_555
Mo12A O21 1_555 1_555
O23A Mo7 1_555 1_555
O24A Mo7A 1_555 1_555
O25A Mo7A 1_555 1_555
O26A Mo7A 1_555 1_555
O27A Mo7 1_555 1_555
O28A Mo8A 1_555 1_555
O29A Mo11 1_555 1_555
O30A Mo8A 1_555 1_555
O31A Mo8A 1_555 1_555
O32A Mo9A 1_555 1_555
O33A Mo11 1_555 1_555
O34A Mo9A 1_555 1_555
O35A Mo10A 1_555 1_555
O36A Mo10A 1_555 1_555
O37A Mo10A 1_555 1_555
O38A Mo11A 1_555 1_555
O39A Mo11A 1_555 1_555
O40A Mo12A 1_555 1_555
Cu2A N27 1_555 1_555
Cu3A N1A 1_555 1_555
Cu4A N14A 1_555 1_555
Cu5A N3A 1_555 1_555
N1A N2A 1_555 1_555
N2A N3A 1_555 1_555
N3A N4A 1_555 1_555
N4A C1A 1_555 1_555
C1A N1A 1_555 1_555
C2A C1A 1_555 1_555
N5A C2A 1_555 1_555
C3A N5A 1_555 1_555
H1A C3A 1_555 1_555
C4A C3A 1_555 1_555
H2A C4A 1_555 1_555
C5A C4A 1_555 1_555
H3A C5A 1_555 1_555
C6A C2A 1_555 1_555
H4A C6A 1_555 1_555
N6A Cu3A 1_555 1_555
N7A N6A 1_555 1_555
N8A N7A 1_555 1_555
N9A N8A 1_555 1_555
C7A N6A 1_555 1_555
C8A C7A 1_555 1_555
N10A Cu3A 1_555 1_555
C9A N10A 1_555 1_555
H5A C9A 1_555 1_555
C10A C9A 1_555 1_555
H6A C10A 1_555 1_555
C11A C10A 1_555 1_555
H7A C11A 1_555 1_555
C12A C8A 1_555 1_555
H8A C12A 1_555 1_555
N11A N12A 1_555 1_555
N12A Cu5A 1_555 1_555
N13A N12A 1_555 1_555
N14A N13A 1_555 1_555
N15A Cu4A 1_555 1_555
C13A N11A 1_555 1_555
C14A N15A 1_555 1_555
C15A N15A 1_555 1_555
H9A C15A 1_555 1_555
C16A C15A 1_555 1_555
H10A C16A 1_555 1_555
C17A C16A 1_555 1_555
H11A C17A 1_555 1_555
C18A C14A 1_555 1_555
H12A C18A 1_555 1_555
N16A Cu4A 1_555 1_555
N17A N16A 1_555 1_555
N18A Cu2A 1_555 1_555
N19A N18A 1_555 1_555
C19A N16A 1_555 1_555
C20A C19A 1_555 1_555
N20A Cu4A 1_555 1_555
C21A N20A 1_555 1_555
H13A C21A 1_555 1_555
C22A C21A 1_555 1_555
H14A C22A 1_555 1_555
C23A C22A 1_555 1_555
H15A C23A 1_555 1_555
C24A C20A 1_555 1_555
H16A C24A 1_555 1_555
N21A N22A 1_555 1_555
N22A Cu4A 1_555 1_555
N23A N22A 1_555 1_555
N24A N23A 1_555 1_555
C25A N21A 1_555 1_555
C26A C25A 1_555 1_555
N25A C26A 1_555 1_555
C27A N25A 1_555 1_555
H17A C27A 1_555 1_555
C28A C27A 1_555 1_555
H18A C28A 1_555 1_555
C29A C28A 1_555 1_555
H19A C29A 1_555 1_555
C30A C26A 1_555 1_555
H20A C30A 1_555 1_555
N26A Cu2A 1_555 1_555
N27A Cu2 1_555 1_555
N28A N27A 1_555 1_555
N29A N28A 1_555 1_555
C31A N26A 1_555 1_555
C32A C31A 1_555 1_555
N30A Cu2A 1_555 1_555
C33A N30A 1_555 1_555
H21A C33A 1_555 1_555
C34A C33A 1_555 1_555
H22A C34A 1_555 1_555
C35A C34A 1_555 1_555
H23A C35A 1_555 1_555
C36A C32A 1_555 1_555
H24A C36A 1_555 1_555
O41A Cu2A 1_555 1_555
H25A O41A 1_555 1_555
H26A O41A 1_555 1_555
O42A Cu3A 1_555 1_555
H27A O42A 1_555 1_555
H28A O42A 1_555 1_555
Cu1_2 N24A 1_555 1_555
Cu3_2 N7A 1_555 1_555
Cu3A_2 N7 1_555 1_555
Cu5_2 N4A 1_555 1_555
Cu5A_2 N4 1_555 1_555
N4_2 Cu5A 1_555 1_555
N4A_2 Cu5 1_555 1_555
N5_2 Cu5A 1_555 1_555
N5A_2 Cu5 1_555 1_555
N7_2 Cu3A 1_555 1_555
N7A_2 Cu3 1_555 1_555
N24A_2 Cu1 1_555 1_555
N25A_2 Cu1 1_555 1_555
Mo1 O1A 1_555 1_555
Mo4 O5 1_555 1_555
Mo4 O15 1_555 1_555
Mo4 O1A 1_555 1_555
Mo5 O10 1_555 1_555
Mo5 O16 1_555 1_555
Mo5 O1A 1_555 1_555
Mo6 O11 1_555 1_555
Mo6 O12 1_555 1_555
Mo6 O18 1_555 1_555
O9 Mo2A 1_555 1_555
Mo9 O26 1_555 1_555
Mo9 O28 1_555 1_555
Mo10 O30 1_555 1_555
Mo10 O21A 1_555 1_555
Mo11 O21A 1_555 1_555
Mo12 O25 1_555 1_555
Mo12 O32 1_555 1_555
Mo12 O35 1_555 1_555
Mo12 O38 1_555 1_555
Mo12 O21A 1_555 1_555
O29 Mo11A 1_555 1_555
O33 Mo11A 1_555 1_555
N5 Cu5A_2 1_555 1_555
C5 C6 1_555 1_555
N9 C7 1_555 1_555
C8 N10 1_555 1_555
C11 C12 1_555 1_555
N14 C13 1_555 1_555
C13 C14 1_555 1_555
C17 C18 1_555 1_555
N19 C19 1_555 1_555
C20 N20 1_555 1_555
C23 C24 1_555 1_555
N24 C25 1_555 1_555
C26 N25 1_555 1_555
C29 C30 1_555 1_555
N29 C31 1_555 1_555
C32 N30 1_555 1_555
C35 C36 1_555 1_555
O2A Mo3A 1_555 1_555
O2A Mo4A 1_555 1_555
O2A Mo6A 1_555 1_555
Mo1A O6A 1_555 1_555
Mo1A O7A 1_555 1_555
Mo3A O9A 1_555 1_555
Mo4A O5A 1_555 1_555
Mo4A O15A 1_555 1_555
Mo5A O4A 1_555 1_555
Mo5A O10A 1_555 1_555
Mo5A O14A 1_555 1_555
Mo5A O16A 1_555 1_555
Mo6A O11A 1_555 1_555
Mo6A O12A 1_555 1_555
Mo6A O18A 1_555 1_555
O22A Mo12A 1_555 1_555
Mo8A O29A 1_555 1_555
Mo9A O26A 1_555 1_555
Mo9A O28A 1_555 1_555
Mo9A O33A 1_555 1_555
Mo10A O30A 1_555 1_555
Mo11A O36A 1_555 1_555
Mo12A O25A 1_555 1_555
Mo12A O32A 1_555 1_555
Mo12A O35A 1_555 1_555
Mo12A O38A 1_555 1_555
N5A Cu5_2 1_555 1_555
C5A C6A 1_555 1_555
N9A C7A 1_555 1_555
C8A N10A 1_555 1_555
C11A C12A 1_555 1_555
N14A C13A 1_555 1_555
C13A C14A 1_555 1_555
C17A C18A 1_555 1_555
N17A N18A 1_555 1_555
N19A C19A 1_555 1_555
C20A N20A 1_555 1_555
C23A C24A 1_555 1_555
N24A C25A 1_555 1_555
N25A Cu1_2 1_555 1_555
C29A C30A 1_555 1_555
N26A N27A 1_555 1_555
N29A C31A 1_555 1_555
C32A N30A 1_555 1_555
C35A C36A 1_555 1_555

#END
