
#######################################################################
#
#                 Cambridge Crystallographic Data Centre
#                                CCDC 
#
#######################################################################
#
# If this CIF has been generated from an entry in the Cambridge 
# Structural Database, then it will include bibliographic, chemical, 
# crystal, experimental, refinement or atomic coordinate data resulting 
# from the CCDC's data processing and validation procedures.
#
#######################################################################

data_LEXLEH
_symmetry_cell_setting           monoclinic
_symmetry_space_group_name_H-M   'P 21/c'
_symmetry_Int_Tables_number      14
_space_group_name_Hall           '-P 2ybc'
loop_
_symmetry_equiv_pos_site_id
_symmetry_equiv_pos_as_xyz
1 x,y,z
2 -x,1/2+y,1/2-z
3 -x,-y,-z
4 x,1/2-y,1/2+z
_cell_length_a                   12.305(3)
_cell_length_b                   4.6863(9)
_cell_length_c                   23.278(5)
_cell_angle_alpha                90
_cell_angle_beta                 96.11(3)
_cell_angle_gamma                90
_cell_volume                     1334.7
loop_
_atom_site_label
_atom_site_type_symbol
_atom_site_fract_x
_atom_site_fract_y
_atom_site_fract_z
Mn1 Mn 1.0000 0.0000 1.0000
O1 O 1.01406(18) 0.3488(4) 0.93810(9)
O2 O 0.91626(19) 0.7522(5) 0.93189(10)
O3 O 1.1513(2) -0.2207(5) 0.98153(11)
N1 N 0.7730(2) 0.5496(6) 0.84322(12)
C1 C 0.7864(3) 0.6565(8) 0.78871(17)
C2 C 0.8653(4) 0.5904(10) 0.75276(19)
H1 H 0.9213 0.4630 0.7643
C3 C 0.8584(5) 0.7192(13) 0.6992(2)
H2 H 0.9095 0.6758 0.6739
C4 C 0.7761(6) 0.9122(14) 0.6830(3)
H3 H 0.7738 0.9975 0.6468
C5 C 0.6978(5) 0.9833(11) 0.7180(2)
H4 H 0.6431 1.1139 0.7060
C6 C 0.7022(3) 0.8519(8) 0.77325(19)
C7 C 0.6361(3) 0.8663(8) 0.8203(2)
C8 C 0.5428(4) 1.0205(11) 0.8304(3)
H5 H 0.5107 1.1470 0.8029
C9 C 0.5000(4) 0.9823(13) 0.8812(3)
H6 H 0.4378 1.0844 0.8880
C10 C 0.5462(4) 0.7944(12) 0.9236(2)
H7 H 0.5143 0.7732 0.9578
C11 C 0.6392(3) 0.6392(9) 0.9151(2)
H8 H 0.6712 0.5151 0.9431
C12 C 0.6826(3) 0.6770(8) 0.86284(18)
C13 C 0.8472(3) 0.3542(7) 0.87540(15)
H9 H 0.8846 0.2432 0.8483
H10 H 0.8049 0.2228 0.8963
C14 C 0.9322(3) 0.4978(8) 0.91816(13)
C15 C 1.2390(3) -0.1063(10) 0.95437(19)
H11 H 1.2137 -0.0536 0.9154
H12 H 1.2958 -0.2468 0.9541
H13 H 1.2673 0.0593 0.9752
H14 H 1.125(3) -0.362(7) 0.9608(16)
O1B O 0.98594(18) -0.3488(4) 1.06190(9)
O2B O 1.08374(19) -0.7522(5) 1.06811(10)
O3B O 0.8487(2) 0.2207(5) 1.01847(11)
N1B N 1.2270(2) -0.5496(6) 1.15678(12)
C1B C 1.2136(3) -0.6565(8) 1.21129(17)
C2B C 1.1347(4) -0.5904(10) 1.24724(19)
H1B H 1.0787 -0.4630 1.2357
C3B C 1.1416(5) -0.7192(13) 1.3008(2)
H2B H 1.0905 -0.6758 1.3261
C4B C 1.2239(6) -0.9122(14) 1.3170(3)
H3B H 1.2262 -0.9975 1.3532
C5B C 1.3022(5) -0.9833(11) 1.2820(2)
H4B H 1.3569 -1.1139 1.2940
C6B C 1.2978(3) -0.8519(8) 1.22675(19)
C7B C 1.3639(3) -0.8663(8) 1.1797(2)
C8B C 1.4572(4) -1.0205(11) 1.1696(3)
H5B H 1.4893 -1.1470 1.1971
C9B C 1.5000(4) -0.9823(13) 1.1188(3)
H6B H 1.5622 -1.0844 1.1120
C10B C 1.4538(4) -0.7944(12) 1.0764(2)
H7B H 1.4857 -0.7732 1.0422
C11B C 1.3608(3) -0.6392(9) 1.0849(2)
H8B H 1.3288 -0.5151 1.0569
C12B C 1.3174(3) -0.6770(8) 1.13716(18)
C13B C 1.1528(3) -0.3542(7) 1.12460(15)
H9B H 1.1154 -0.2432 1.1517
H10B H 1.1951 -0.2228 1.1037
C14B C 1.0678(3) -0.4978(8) 1.08184(13)
C15B C 0.7610(3) 0.1063(10) 1.04563(19)
H11B H 0.7863 0.0536 1.0846
H12B H 0.7042 0.2468 1.0459
H13B H 0.7327 -0.0593 1.0248
H14B H 0.875(3) 0.362(7) 1.0392(16)
Mn1_2 Mn 1.0000 -1.0000 1.0000
Mn1_3 Mn 1.0000 1.0000 1.0000
O2_2 O 0.91626(19) -0.2478(5) 0.93189(10)
O2B_2 O 1.08374(19) 0.2478(5) 1.06811(10)
loop_
_geom_bond_atom_site_label_1
_geom_bond_atom_site_label_2
_geom_bond_site_symmetry_1
_geom_bond_site_symmetry_2
Mn1 O1 1_555 1_555
O1 C14 1_555 1_555
O2 C14 1_555 1_555
O3 Mn1 1_555 1_555
N1 C1 1_555 1_555
C1 C2 1_555 1_555
C2 H1 1_555 1_555
C3 C2 1_555 1_555
H2 C3 1_555 1_555
C4 C3 1_555 1_555
H3 C4 1_555 1_555
C5 C4 1_555 1_555
H4 C5 1_555 1_555
C6 C1 1_555 1_555
C7 C6 1_555 1_555
C8 C7 1_555 1_555
H5 C8 1_555 1_555
C9 C8 1_555 1_555
H6 C9 1_555 1_555
C10 C9 1_555 1_555
H7 C10 1_555 1_555
C11 C10 1_555 1_555
H8 C11 1_555 1_555
C12 N1 1_555 1_555
C13 N1 1_555 1_555
H9 C13 1_555 1_555
H10 C13 1_555 1_555
C14 C13 1_555 1_555
C15 O3 1_555 1_555
H11 C15 1_555 1_555
H12 C15 1_555 1_555
H13 C15 1_555 1_555
H14 O3 1_555 1_555
O1B Mn1 1_555 1_555
O2B C14B 1_555 1_555
O3B Mn1 1_555 1_555
N1B C1B 1_555 1_555
C1B C2B 1_555 1_555
C2B H1B 1_555 1_555
C3B C2B 1_555 1_555
H2B C3B 1_555 1_555
C4B C3B 1_555 1_555
H3B C4B 1_555 1_555
C5B C4B 1_555 1_555
H4B C5B 1_555 1_555
C6B C1B 1_555 1_555
C7B C6B 1_555 1_555
C8B C7B 1_555 1_555
H5B C8B 1_555 1_555
C9B C8B 1_555 1_555
H6B C9B 1_555 1_555
C10B C9B 1_555 1_555
H7B C10B 1_555 1_555
C11B C10B 1_555 1_555
H8B C11B 1_555 1_555
C12B N1B 1_555 1_555
C13B N1B 1_555 1_555
H9B C13B 1_555 1_555
H10B C13B 1_555 1_555
C14B O1B 1_555 1_555
C15B O3B 1_555 1_555
H11B C15B 1_555 1_555
H12B C15B 1_555 1_555
H13B C15B 1_555 1_555
H14B O3B 1_555 1_555
Mn1_2 O2B 1_555 1_555
Mn1_3 O2 1_555 1_555
O2_2 Mn1 1_555 1_555
O2B_2 Mn1 1_555 1_555
C5 C6 1_555 1_555
C7 C12 1_555 1_555
C11 C12 1_555 1_555
C5B C6B 1_555 1_555
C7B C12B 1_555 1_555
C11B C12B 1_555 1_555
C13B C14B 1_555 1_555

#END
