
#######################################################################
#
#                 Cambridge Crystallographic Data Centre
#                                CCDC 
#
#######################################################################
#
# If this CIF has been generated from an entry in the Cambridge 
# Structural Database, then it will include bibliographic, chemical, 
# crystal, experimental, refinement or atomic coordinate data resulting 
# from the CCDC's data processing and validation procedures.
#
#######################################################################

data_LEXLAD
_symmetry_cell_setting           triclinic
_symmetry_space_group_name_H-M   'P -1'
_symmetry_Int_Tables_number      2
_space_group_name_Hall           '-P 1'
loop_
_symmetry_equiv_pos_site_id
_symmetry_equiv_pos_as_xyz
1 x,y,z
2 -x,-y,-z
_cell_length_a                   5.1225(10)
_cell_length_b                   10.774(2)
_cell_length_c                   18.128(4)
_cell_angle_alpha                85.23(3)
_cell_angle_beta                 82.34(3)
_cell_angle_gamma                81.47(3)
_cell_volume                     978.532
loop_
_atom_site_label
_atom_site_type_symbol
_atom_site_fract_x
_atom_site_fract_y
_atom_site_fract_z
Mn1 Mn 1.0000 0.5000 0.5000
N1 N 0.4188(10) 0.7619(5) 0.6740(3)
N2 N 1.0506(9) 0.4084(5) 0.6186(3)
N3 N 1.2035(14) 0.1249(7) 0.9839(3)
O1 O 0.2905(7) 0.6235(4) 0.5090(2)
O2 O 0.6744(7) 0.6327(4) 0.5531(2)
C1 C 0.4365(13) 0.7131(7) 0.7468(4)
C2 C 0.3151(14) 0.6156(7) 0.7859(4)
H1 H 0.2020 0.5737 0.7641
C3 C 0.3692(17) 0.5834(9) 0.8586(5)
H2 H 0.2939 0.5182 0.8863
C4 C 0.5396(19) 0.6505(11) 0.8903(5)
H3 H 0.5729 0.6280 0.9391
C5 C 0.6559(16) 0.7452(10) 0.8530(5)
H4 H 0.7662 0.7873 0.8758
C6 C 0.6071(13) 0.7793(8) 0.7789(4)
C7 C 0.6936(13) 0.8724(8) 0.7232(4)
C8 C 0.8647(15) 0.9661(9) 0.7206(6)
H5 H 0.9496 0.9762 0.7615
C9 C 0.9008(16) 1.0408(9) 0.6562(6)
H6 H 1.0118 1.1022 0.6541
C10 C 0.7792(15) 1.0283(7) 0.5948(5)
H7 H 0.8075 1.0818 0.5523
C11 C 0.6134(14) 0.9364(7) 0.5952(5)
H8 H 0.5329 0.9268 0.5533
C12 C 0.5726(13) 0.8603(7) 0.6593(4)
C13 C 0.2655(11) 0.7240(6) 0.6206(3)
H9 H 0.1630 0.7987 0.5998
H10 H 0.1402 0.6715 0.6469
C14 C 0.4234(12) 0.6534(6) 0.5569(3)
C15 C 0.8638(13) 0.4289(6) 0.6764(4)
H11 H 0.7095 0.4825 0.6678
C16 C 0.8810(12) 0.3774(6) 0.7473(4)
H12 H 0.7438 0.3978 0.7852
C17 C 1.1056(12) 0.2940(6) 0.7624(3)
C18 C 1.3007(12) 0.2700(6) 0.7032(3)
H13 H 1.4547 0.2150 0.7102
C19 C 1.2672(12) 0.3278(6) 0.6333(4)
H14 H 1.4019 0.3099 0.5944
C20 C 1.1347(13) 0.2341(7) 0.8389(4)
C21 C 0.9837(16) 0.2747(9) 0.8998(4)
H15 H 0.8498 0.3424 0.8955
C22 C 1.0220(17) 0.2173(9) 0.9712(4)
H16 H 0.9080 0.2484 1.0119
C23 C 1.3460(18) 0.0859(9) 0.9252(5)
H17 H 1.4793 0.0187 0.9317
C24 C 1.3226(17) 0.1340(8) 0.8519(4)
H18 H 1.4345 0.0978 0.8123
N1A N 0.5812(10) 0.2381(5) 0.3260(3)
O1A O 0.7095(7) 0.3765(4) 0.4910(2)
O2A O 0.3256(7) 0.3673(4) 0.4469(2)
C1A C 0.5635(13) 0.2869(7) 0.2532(4)
C2A C 0.6849(14) 0.3844(7) 0.2141(4)
H1A H 0.7980 0.4263 0.2359
C3A C 0.6308(17) 0.4166(9) 0.1414(5)
H2A H 0.7061 0.4818 0.1137
C4A C 0.4604(19) 0.3495(11) 0.1097(5)
H3A H 0.4271 0.3720 0.0609
C5A C 0.3441(16) 0.2548(10) 0.1470(5)
H4A H 0.2338 0.2127 0.1242
C6A C 0.3929(13) 0.2207(8) 0.2211(4)
C7A C 0.3064(13) 0.1276(8) 0.2768(4)
C8A C 0.1353(15) 0.0339(9) 0.2794(6)
H5A H 0.0504 0.0238 0.2385
C9A C 0.0992(16) -0.0408(9) 0.3438(6)
H6A H -0.0118 -0.1022 0.3459
C10A C 0.2208(15) -0.0283(7) 0.4052(5)
H7A H 0.1925 -0.0818 0.4477
C11A C 0.3866(14) 0.0636(7) 0.4048(5)
H8A H 0.4671 0.0732 0.4467
C12A C 0.4274(13) 0.1397(7) 0.3407(4)
C13A C 0.7345(11) 0.2760(6) 0.3794(3)
H9A H 0.8370 0.2013 0.4002
H10A H 0.8598 0.3285 0.3531
C14A C 0.5766(12) 0.3466(6) 0.4431(3)
N2A N 0.9494(9) 0.5916(5) 0.3814(3)
N3A N 0.7965(14) 0.8751(7) 0.0161(3)
C15A C 1.1362(13) 0.5711(6) 0.3236(4)
H11A H 1.2905 0.5175 0.3322
C16A C 1.1190(12) 0.6226(6) 0.2527(4)
H12A H 1.2562 0.6022 0.2148
C17A C 0.8944(12) 0.7060(6) 0.2376(3)
C18A C 0.6993(12) 0.7300(6) 0.2968(3)
H13A H 0.5453 0.7850 0.2898
C19A C 0.7328(12) 0.6722(6) 0.3667(4)
H14A H 0.5981 0.6901 0.4056
C20A C 0.8653(13) 0.7659(7) 0.1611(4)
C21A C 1.0163(16) 0.7253(9) 0.1002(4)
H15A H 1.1502 0.6576 0.1045
C22A C 0.9780(17) 0.7827(9) 0.0288(4)
H16A H 1.0920 0.7516 -0.0119
C23A C 0.6540(18) 0.9141(9) 0.0748(5)
H17A H 0.5207 0.9813 0.0683
C24A C 0.6774(17) 0.8660(8) 0.1481(4)
H18A H 0.5655 0.9022 0.1877
Mn1_2 Mn 0.0000 0.5000 0.5000
O1_2 O 1.2905(7) 0.6235(4) 0.5090(2)
O2A_2 O 1.3256(7) 0.3673(4) 0.4469(2)
loop_
_geom_bond_atom_site_label_1
_geom_bond_atom_site_label_2
_geom_bond_site_symmetry_1
_geom_bond_site_symmetry_2
Mn1 N2 1_555 1_555
N1 C1 1_555 1_555
N2 C15 1_555 1_555
N3 C22 1_555 1_555
O1 C14 1_555 1_555
O2 Mn1 1_555 1_555
C1 C2 1_555 1_555
C2 H1 1_555 1_555
C3 C2 1_555 1_555
H2 C3 1_555 1_555
C4 C3 1_555 1_555
H3 C4 1_555 1_555
C5 C4 1_555 1_555
H4 C5 1_555 1_555
C6 C1 1_555 1_555
C7 C6 1_555 1_555
C8 C7 1_555 1_555
H5 C8 1_555 1_555
C9 C8 1_555 1_555
H6 C9 1_555 1_555
C10 C9 1_555 1_555
H7 C10 1_555 1_555
C11 C10 1_555 1_555
H8 C11 1_555 1_555
C12 N1 1_555 1_555
C13 N1 1_555 1_555
H9 C13 1_555 1_555
H10 C13 1_555 1_555
C14 O2 1_555 1_555
C15 H11 1_555 1_555
C16 C15 1_555 1_555
H12 C16 1_555 1_555
C17 C16 1_555 1_555
C18 C17 1_555 1_555
H13 C18 1_555 1_555
C19 N2 1_555 1_555
H14 C19 1_555 1_555
C20 C17 1_555 1_555
C21 C20 1_555 1_555
H15 C21 1_555 1_555
C22 C21 1_555 1_555
H16 C22 1_555 1_555
C23 N3 1_555 1_555
H17 C23 1_555 1_555
C24 C20 1_555 1_555
H18 C24 1_555 1_555
N1A C1A 1_555 1_555
O1A Mn1 1_555 1_555
O2A C14A 1_555 1_555
C1A C2A 1_555 1_555
C2A H1A 1_555 1_555
C3A C2A 1_555 1_555
H2A C3A 1_555 1_555
C4A C3A 1_555 1_555
H3A C4A 1_555 1_555
C5A C4A 1_555 1_555
H4A C5A 1_555 1_555
C6A C1A 1_555 1_555
C7A C6A 1_555 1_555
C8A C7A 1_555 1_555
H5A C8A 1_555 1_555
C9A C8A 1_555 1_555
H6A C9A 1_555 1_555
C10A C9A 1_555 1_555
H7A C10A 1_555 1_555
C11A C10A 1_555 1_555
H8A C11A 1_555 1_555
C12A N1A 1_555 1_555
C13A N1A 1_555 1_555
H9A C13A 1_555 1_555
H10A C13A 1_555 1_555
C14A O1A 1_555 1_555
N2A Mn1 1_555 1_555
N3A C22A 1_555 1_555
C15A N2A 1_555 1_555
H11A C15A 1_555 1_555
C16A C15A 1_555 1_555
H12A C16A 1_555 1_555
C17A C16A 1_555 1_555
C18A C17A 1_555 1_555
H13A C18A 1_555 1_555
C19A N2A 1_555 1_555
H14A C19A 1_555 1_555
C20A C17A 1_555 1_555
C21A C20A 1_555 1_555
H15A C21A 1_555 1_555
C22A C21A 1_555 1_555
H16A C22A 1_555 1_555
C23A N3A 1_555 1_555
H17A C23A 1_555 1_555
C24A C20A 1_555 1_555
H18A C24A 1_555 1_555
Mn1_2 O1 1_555 1_555
O1_2 Mn1 1_555 1_555
O2A_2 Mn1 1_555 1_555
C5 C6 1_555 1_555
C7 C12 1_555 1_555
C11 C12 1_555 1_555
C13 C14 1_555 1_555
C18 C19 1_555 1_555
C23 C24 1_555 1_555
O2A Mn1_2 1_555 1_555
C5A C6A 1_555 1_555
C7A C12A 1_555 1_555
C11A C12A 1_555 1_555
C13A C14A 1_555 1_555
C18A C19A 1_555 1_555
C23A C24A 1_555 1_555

#END
