
#######################################################################
#
#                 Cambridge Crystallographic Data Centre
#                                CCDC 
#
#######################################################################
#
# If this CIF has been generated from an entry in the Cambridge 
# Structural Database, then it will include bibliographic, chemical, 
# crystal, experimental, refinement or atomic coordinate data resulting 
# from the CCDC's data processing and validation procedures.
#
#######################################################################

data_LEXNUZ
_symmetry_cell_setting           monoclinic
_symmetry_space_group_name_H-M   'C 2'
_symmetry_Int_Tables_number      5
_space_group_name_Hall           'C 2y'
loop_
_symmetry_equiv_pos_site_id
_symmetry_equiv_pos_as_xyz
1 x,y,z
2 -x,y,-z
3 1/2+x,1/2+y,z
4 1/2-x,1/2+y,-z
_cell_length_a                   13.218(6)
_cell_length_b                   9.273(4)
_cell_length_c                   12.922(6)
_cell_angle_alpha                90
_cell_angle_beta                 113.99(5)
_cell_angle_gamma                90
_cell_volume                     1447.04
loop_
_atom_site_label
_atom_site_type_symbol
_atom_site_fract_x
_atom_site_fract_y
_atom_site_fract_z
Cu1 Cu 0.88681(7) 0.70134(13) 0.47971(8)
C1 C 0.5014(6) 0.7090(16) 0.2007(6)
N1 N 0.9758(6) 0.7810(8) 0.3953(6)
C2 C 0.9144(6) 0.2086(15) 0.4164(7)
H1 H 0.8583 0.1602 0.3581
O1 O 0.7541(5) 0.3692(7) 0.2500(5)
N2 N 1.0000 0.4363(12) 0.5000
N3 N 0.7990(6) 0.5728(8) 0.3513(6)
N4 N 0.9541(6) 0.7578(9) 0.2940(6)
C3 C 0.8241(7) 0.4412(10) 0.3413(8)
C4 C 0.3195(7) 0.6913(19) 0.0504(9)
H2 H 0.2563 0.6367 0.0114
N5 N 0.9352(8) 0.7430(10) 0.2008(8)
C5 C 0.9163(8) 0.3583(10) 0.4238(8)
C6 C 0.3243(9) 0.8333(14) 0.0188(10)
H3 H 0.2659 0.8744 -0.0420
C7 C 0.4199(9) 0.9131(13) 0.0812(10)
H4 H 0.4255 1.0087 0.0625
C8 C 0.6928(7) 0.6084(10) 0.2550(7)
C9 C 0.6706(8) 0.4720(12) 0.1804(8)
H5 H 0.5965 0.4353 0.1620
H6 H 0.6789 0.4923 0.1106
C10 C 0.5061(9) 0.8486(12) 0.1712(10)
H7 H 0.5690 0.9026 0.2124
C11 C 1.0000 0.1351(15) 0.5000
H8 H 1.0000 0.0348 0.5000
C12 C 0.6014(8) 0.6401(11) 0.2950(8)
H9 H 0.6294 0.7047 0.3596
H10 H 0.5788 0.5511 0.3190
N6 N 0.7767(6) 0.5152(9) 0.5720(7)
N7 N 0.8272(7) 0.6273(9) 0.5849(7)
C13 C 0.4080(8) 0.6303(12) 0.1398(9)
H11 H 0.4041 0.5343 0.1587
N8 N 0.7295(8) 0.4092(9) 0.5651(9)
H12 H 0.697(11) 0.689(11) 0.206(10)
C1A C 1.4986(6) 0.7090(16) 0.7993(6)
C2A C 1.0856(6) 0.2086(15) 0.5836(7)
H1A H 1.1417 0.1602 0.6419
O1A O 1.2459(5) 0.3692(7) 0.7500(5)
N3A N 1.2010(6) 0.5728(8) 0.6487(6)
C3A C 1.1759(7) 0.4412(10) 0.6587(8)
C4A C 1.6805(7) 0.6913(19) 0.9496(9)
H2A H 1.7437 0.6367 0.9886
C5A C 1.0837(8) 0.3583(10) 0.5762(8)
C6A C 1.6757(9) 0.8333(14) 0.9812(10)
H3A H 1.7341 0.8744 1.0420
C7A C 1.5801(9) 0.9131(13) 0.9188(10)
H4A H 1.5745 1.0087 0.9375
C8A C 1.3072(7) 0.6084(10) 0.7450(7)
C9A C 1.3294(8) 0.4720(12) 0.8196(8)
H5A H 1.4035 0.4353 0.8380
H6A H 1.3211 0.4923 0.8894
C10A C 1.4939(9) 0.8486(12) 0.8288(10)
H7A H 1.4310 0.9026 0.7876
C12A C 1.3986(8) 0.6401(11) 0.7050(8)
H9A H 1.3706 0.7047 0.6404
H10A H 1.4212 0.5511 0.6810
C13A C 1.5920(8) 0.6303(12) 0.8602(9)
H11A H 1.5959 0.5343 0.8413
H12A H 1.303(11) 0.689(11) 0.794(10)
Cu1A Cu 1.11319(7) 0.70134(13) 0.52029(8)
N1A N 1.0242(6) 0.7810(8) 0.6047(6)
N4A N 1.0459(6) 0.7578(9) 0.7060(6)
N5A N 1.0648(8) 0.7430(10) 0.7992(8)
N6A N 1.2233(6) 0.5152(9) 0.4280(7)
N7A N 1.1728(7) 0.6273(9) 0.4151(7)
N8A N 1.2705(8) 0.4092(9) 0.4349(9)
Cu1B Cu 1.38681(7) 0.20134(13) 0.47971(8)
Cu1C Cu 0.61319(7) 0.20134(13) 0.52029(8)
N8B N 1.2295(8) 0.9092(9) 0.5651(9)
N8C N 0.7705(8) 0.9092(9) 0.4349(9)
loop_
_geom_bond_atom_site_label_1
_geom_bond_atom_site_label_2
_geom_bond_site_symmetry_1
_geom_bond_site_symmetry_2
Cu1 N1 1_555 1_555
C1 C10 1_555 1_555
N1 N4 1_555 1_555
C2 H1 1_555 1_555
O1 C3 1_555 1_555
N2 C5 1_555 1_555
N3 Cu1 1_555 1_555
N4 N5 1_555 1_555
C3 N3 1_555 1_555
C4 H2 1_555 1_555
C5 C2 1_555 1_555
C6 C4 1_555 1_555
H3 C6 1_555 1_555
C7 C6 1_555 1_555
H4 C7 1_555 1_555
C8 N3 1_555 1_555
C9 O1 1_555 1_555
H5 C9 1_555 1_555
H6 C9 1_555 1_555
C10 C7 1_555 1_555
H7 C10 1_555 1_555
C11 C2 1_555 1_555
H8 C11 1_555 1_555
C12 C1 1_555 1_555
H9 C12 1_555 1_555
H10 C12 1_555 1_555
N6 N7 1_555 1_555
N7 Cu1 1_555 1_555
C13 C1 1_555 1_555
H11 C13 1_555 1_555
N8 N6 1_555 1_555
H12 C8 1_555 1_555
C1A C10A 1_555 1_555
C2A C11 1_555 1_555
H1A C2A 1_555 1_555
O1A C3A 1_555 1_555
N3A C3A 1_555 1_555
C3A C5A 1_555 1_555
C4A H2A 1_555 1_555
C5A N2 1_555 1_555
C6A C4A 1_555 1_555
H3A C6A 1_555 1_555
C7A C6A 1_555 1_555
H4A C7A 1_555 1_555
C8A N3A 1_555 1_555
C9A O1A 1_555 1_555
H5A C9A 1_555 1_555
H6A C9A 1_555 1_555
C10A C7A 1_555 1_555
H7A C10A 1_555 1_555
C12A C1A 1_555 1_555
H9A C12A 1_555 1_555
H10A C12A 1_555 1_555
C13A C1A 1_555 1_555
H11A C13A 1_555 1_555
H12A C8A 1_555 1_555
Cu1A Cu1 1_555 1_555
N1A Cu1 1_555 1_555
N4A N1A 1_555 1_555
N5A N4A 1_555 1_555
N6A N7A 1_555 1_555
N7A Cu1A 1_555 1_555
N8A N6A 1_555 1_555
Cu1B N8A 1_555 1_555
Cu1C N8 1_555 1_555
N8B Cu1A 1_555 1_555
N8C Cu1 1_555 1_555
N1 Cu1A 1_555 1_555
C3 C5 1_555 1_555
C4 C13 1_555 1_555
C8 C9 1_555 1_555
C8 C12 1_555 1_555
C2A C5A 1_555 1_555
N3A Cu1A 1_555 1_555
C4A C13A 1_555 1_555
C8A C9A 1_555 1_555
C8A C12A 1_555 1_555
Cu1A N1A 1_555 1_555

#END
