
#######################################################################
#
#                 Cambridge Crystallographic Data Centre
#                                CCDC 
#
#######################################################################
#
# If this CIF has been generated from an entry in the Cambridge 
# Structural Database, then it will include bibliographic, chemical, 
# crystal, experimental, refinement or atomic coordinate data resulting 
# from the CCDC's data processing and validation procedures.
#
#######################################################################

data_LEXNOT
_symmetry_cell_setting           monoclinic
_symmetry_space_group_name_H-M   'C 2'
_symmetry_Int_Tables_number      5
_space_group_name_Hall           'C 2y'
loop_
_symmetry_equiv_pos_site_id
_symmetry_equiv_pos_as_xyz
1 x,y,z
2 -x,y,-z
3 1/2+x,1/2+y,z
4 1/2-x,1/2+y,-z
_cell_length_a                   13.223(3)
_cell_length_b                   9.269(2)
_cell_length_c                   12.925(3)
_cell_angle_alpha                90
_cell_angle_beta                 114.09(3)
_cell_angle_gamma                90
_cell_volume                     1446.17
loop_
_atom_site_label
_atom_site_type_symbol
_atom_site_fract_x
_atom_site_fract_y
_atom_site_fract_z
Cu1 Cu 0.88643(2) 0.02773(5) 0.47884(3)
C1 C 0.5018(2) 0.0244(6) 0.1998(2)
N1 N 1.0000 0.2935(4) 0.5000
C2 C 0.9150(2) 0.5207(5) 0.4176(2)
H1 H 0.8576 0.5689 0.3603
O1 O 0.75518(19) 0.3610(3) 0.25014(19)
C3 C 0.8226(3) 0.2882(4) 0.3417(3)
C4 C 0.3186(3) 0.0366(7) 0.0495(3)
H2 H 0.2546 0.0896 0.0102
C5 C 0.6008(3) 0.0894(4) 0.2937(3)
H3 H 0.6283 0.0231 0.3572
H4 H 0.5790 0.1778 0.3192
C6 C 0.3258(3) -0.1039(5) 0.0191(3)
H5 H 0.2681 -0.1450 -0.0425
C7 C 0.9172(2) 0.3712(4) 0.4225(3)
C8 C 1.0000 0.5967(5) 0.5000
H6 H 1.0000 0.6970 0.5000
N2 N 0.7978(2) 0.1567(3) 0.3516(2)
C9 C 0.4197(4) -0.1833(5) 0.0811(4)
H7 H 0.4248 -0.2792 0.0625
C10 C 0.6926(3) 0.1221(4) 0.2547(3)
C11 C 0.5058(3) -0.1201(5) 0.1704(3)
H8 H 0.5682 -0.1748 0.2122
C12 C 0.4072(3) 0.1004(4) 0.1392(3)
H9 H 0.4017 0.1961 0.1581
N3 N 0.9549(2) -0.0287(3) 0.2951(2)
N4 N 0.9766(2) -0.0516(3) 0.3950(2)
N5 N 0.9343(3) -0.0126(4) 0.2012(3)
C13 C 0.6717(3) 0.2580(4) 0.1808(3)
H10 H 0.6802 0.2374 0.1112
H11 H 0.5977 0.2952 0.1620
N6 N 0.7766(2) 0.2139(3) 0.5718(2)
N7 N 0.8260(2) 0.1036(3) 0.5842(3)
N8 N 0.7282(3) 0.3196(3) 0.5656(3)
H12 H 0.711(3) 0.045(6) 0.219(3)
C1A C 1.4982(2) 0.0244(6) 0.8002(2)
C2A C 1.0850(2) 0.5207(5) 0.5824(2)
H1A H 1.1424 0.5689 0.6397
O1A O 1.24482(19) 0.3610(3) 0.74986(19)
C3A C 1.1774(3) 0.2882(4) 0.6583(3)
C4A C 1.6814(3) 0.0366(7) 0.9505(3)
H2A H 1.7454 0.0896 0.9898
C5A C 1.3992(3) 0.0894(4) 0.7063(3)
H3A H 1.3717 0.0231 0.6428
H4A H 1.4210 0.1778 0.6808
C6A C 1.6742(3) -0.1039(5) 0.9809(3)
H5A H 1.7319 -0.1450 1.0425
C7A C 1.0828(2) 0.3712(4) 0.5775(3)
N2A N 1.2022(2) 0.1567(3) 0.6484(2)
C9A C 1.5803(4) -0.1833(5) 0.9189(4)
H7A H 1.5752 -0.2792 0.9375
C10A C 1.3074(3) 0.1221(4) 0.7453(3)
C11A C 1.4942(3) -0.1201(5) 0.8296(3)
H8A H 1.4318 -0.1748 0.7878
C12A C 1.5928(3) 0.1004(4) 0.8608(3)
H9A H 1.5983 0.1961 0.8419
C13A C 1.3283(3) 0.2580(4) 0.8192(3)
H10A H 1.3198 0.2374 0.8888
H11A H 1.4023 0.2952 0.8380
H12A H 1.289(3) 0.045(6) 0.781(3)
Cu1A Cu 1.11357(2) 0.02773(5) 0.52116(3)
N3A N 1.0451(2) -0.0287(3) 0.7049(2)
N4A N 1.0234(2) -0.0516(3) 0.6050(2)
N5A N 1.0657(3) -0.0126(4) 0.7988(3)
N6A N 1.2234(2) 0.2139(3) 0.4282(2)
N7A N 1.1740(2) 0.1036(3) 0.4158(3)
N8A N 1.2718(3) 0.3196(3) 0.4344(3)
Cu1B Cu 1.38643(2) 0.52773(5) 0.47884(3)
Cu1C Cu 0.61357(2) 0.52773(5) 0.52116(3)
N8B N 1.2282(3) -0.1804(3) 0.5656(3)
N8C N 0.7718(3) -0.1804(3) 0.4344(3)
loop_
_geom_bond_atom_site_label_1
_geom_bond_atom_site_label_2
_geom_bond_site_symmetry_1
_geom_bond_site_symmetry_2
Cu1 N2 1_555 1_555
C1 C5 1_555 1_555
N1 C7 1_555 1_555
C2 H1 1_555 1_555
O1 C3 1_555 1_555
C3 C7 1_555 1_555
C4 H2 1_555 1_555
C5 H3 1_555 1_555
H4 C5 1_555 1_555
C6 C4 1_555 1_555
H5 C6 1_555 1_555
C7 C2 1_555 1_555
C8 C2 1_555 1_555
H6 C8 1_555 1_555
N2 C3 1_555 1_555
C9 C6 1_555 1_555
H7 C9 1_555 1_555
C10 C5 1_555 1_555
C11 C1 1_555 1_555
H8 C11 1_555 1_555
C12 C1 1_555 1_555
H9 C12 1_555 1_555
N3 N4 1_555 1_555
N4 Cu1 1_555 1_555
N5 N3 1_555 1_555
C13 O1 1_555 1_555
H10 C13 1_555 1_555
H11 C13 1_555 1_555
N6 N7 1_555 1_555
N7 Cu1 1_555 1_555
N8 N6 1_555 1_555
H12 C10 1_555 1_555
C1A C5A 1_555 1_555
C2A C8 1_555 1_555
H1A C2A 1_555 1_555
O1A C3A 1_555 1_555
C3A C7A 1_555 1_555
C4A H2A 1_555 1_555
C5A H3A 1_555 1_555
H4A C5A 1_555 1_555
C6A C4A 1_555 1_555
H5A C6A 1_555 1_555
C7A N1 1_555 1_555
N2A C3A 1_555 1_555
C9A C6A 1_555 1_555
H7A C9A 1_555 1_555
C10A C5A 1_555 1_555
C11A C1A 1_555 1_555
H8A C11A 1_555 1_555
C12A C1A 1_555 1_555
H9A C12A 1_555 1_555
C13A O1A 1_555 1_555
H10A C13A 1_555 1_555
H11A C13A 1_555 1_555
H12A C10A 1_555 1_555
Cu1A Cu1 1_555 1_555
N3A N4A 1_555 1_555
N4A Cu1 1_555 1_555
N5A N3A 1_555 1_555
N6A N7A 1_555 1_555
N7A Cu1A 1_555 1_555
N8A N6A 1_555 1_555
Cu1B N8A 1_555 1_555
Cu1C N8 1_555 1_555
N8B Cu1A 1_555 1_555
N8C Cu1 1_555 1_555
C4 C12 1_555 1_555
N2 C10 1_555 1_555
C9 C11 1_555 1_555
C10 C13 1_555 1_555
N4 Cu1A 1_555 1_555
C2A C7A 1_555 1_555
C4A C12A 1_555 1_555
N2A C10A 1_555 1_555
N2A Cu1A 1_555 1_555
C9A C11A 1_555 1_555
C10A C13A 1_555 1_555
Cu1A N4A 1_555 1_555

#END
