
#######################################################################
#
#                 Cambridge Crystallographic Data Centre
#                                CCDC 
#
#######################################################################
#
# If this CIF has been generated from an entry in the Cambridge 
# Structural Database, then it will include bibliographic, chemical, 
# crystal, experimental, refinement or atomic coordinate data resulting 
# from the CCDC's data processing and validation procedures.
#
#######################################################################

data_LEXRAI
_symmetry_cell_setting           triclinic
_symmetry_space_group_name_H-M   'P -1'
_symmetry_Int_Tables_number      2
_space_group_name_Hall           '-P 1'
loop_
_symmetry_equiv_pos_site_id
_symmetry_equiv_pos_as_xyz
1 x,y,z
2 -x,-y,-z
_cell_length_a                   5.3062(10)
_cell_length_b                   7.9717(14)
_cell_length_c                   15.262(3)
_cell_angle_alpha                77.940(3)
_cell_angle_beta                 88.694(3)
_cell_angle_gamma                88.795(3)
_cell_volume                     631.074
loop_
_atom_site_label
_atom_site_type_symbol
_atom_site_fract_x
_atom_site_fract_y
_atom_site_fract_z
Zn1 Zn 0.13315(12) 0.50807(8) 0.25560(4)
Cl1 Cl 0.0215(3) 0.3392(2) 0.16272(10)
Cl2 Cl -0.1108(3) 0.65149(19) 0.33530(10)
N1 N 0.3659(8) 0.6830(6) 0.1756(3)
N2 N 0.3610(8) 0.3472(5) 0.3454(3)
C1 C 0.5101(11) 0.6337(8) 0.1125(4)
H1 H 0.4881 0.5249 0.1011
C2 C 0.6913(11) 0.7380(7) 0.0634(4)
H2 H 0.7894 0.6977 0.0206
C3 C 0.9172(11) 1.0174(7) 0.0299(3)
H3 H 0.9217 1.1260 0.0431
C4 C 0.7269(10) 0.8998(7) 0.0774(3)
C5 C 0.5718(12) 0.9508(7) 0.1415(4)
H4 H 0.5854 1.0604 0.1529
C6 C 0.3973(11) 0.8394(7) 0.1885(4)
H5 H 0.2964 0.8766 0.2315
C7 C 0.3789(11) 0.3543(7) 0.4313(4)
H6 H 0.2690 0.4265 0.4549
C8 C 0.5531(11) 0.2592(7) 0.4862(4)
H7 H 0.5575 0.2670 0.5461
C9 C 0.7232(10) 0.1512(7) 0.4538(3)
C10 C 0.9178(10) 0.0554(7) 0.5110(4)
H8 H 0.9262 0.0749 0.5688
C11 C 0.6978(12) 0.1428(8) 0.3650(4)
H9 H 0.8025 0.0698 0.3399
C12 C 0.5195(12) 0.2410(8) 0.3142(4)
H10 H 0.5080 0.2334 0.2544
Zn1A Zn 1.86685(12) 1.49193(8) -0.25560(4)
Zn1A_2 Zn 1.86685(12) -0.50807(8) 0.74440(4)
Cl1A Cl 1.9785(3) 1.6608(2) -0.16272(10)
Cl2A Cl 2.1108(3) 1.34851(19) -0.33530(10)
N1A N 1.6341(8) 1.3170(6) -0.1756(3)
N2A N 1.6390(8) -0.3472(5) 0.6546(3)
N2A_2 N 1.6390(8) 1.6528(5) -0.3454(3)
C1A C 1.4899(11) 1.3663(8) -0.1125(4)
H1A H 1.5119 1.4751 -0.1011
C2A C 1.3087(11) 1.2620(7) -0.0634(4)
H2A H 1.2106 1.3023 -0.0206
C3A C 1.0828(11) 0.9826(7) -0.0299(3)
H3A H 1.0783 0.8740 -0.0431
C4A C 1.2731(10) 1.1002(7) -0.0774(3)
C5A C 1.4282(12) 1.0492(7) -0.1415(4)
H4A H 1.4146 0.9396 -0.1529
C6A C 1.6027(11) 1.1606(7) -0.1885(4)
H5A H 1.7036 1.1234 -0.2315
C7A C 1.6211(11) -0.3543(7) 0.5687(4)
H6A H 1.7310 -0.4265 0.5451
C8A C 1.4469(11) -0.2592(7) 0.5138(4)
H7A H 1.4425 -0.2670 0.4539
C9A C 1.2768(10) -0.1512(7) 0.5462(3)
C10A C 1.0822(10) -0.0554(7) 0.4890(4)
H8A H 1.0738 -0.0749 0.4312
C11A C 1.3022(12) -0.1428(8) 0.6350(4)
H9A H 1.1975 -0.0698 0.6601
C12A C 1.4805(12) -0.2410(8) 0.6858(4)
H10A H 1.4920 -0.2334 0.7456
loop_
_geom_bond_atom_site_label_1
_geom_bond_atom_site_label_2
_geom_bond_site_symmetry_1
_geom_bond_site_symmetry_2
Zn1 Cl1 1_555 1_555
Cl2 Zn1 1_555 1_555
N1 Zn1 1_555 1_555
N2 Zn1 1_555 1_555
C1 N1 1_555 1_555
H1 C1 1_555 1_555
C2 C1 1_555 1_555
H2 C2 1_555 1_555
C3 H3 1_555 1_555
C4 C2 1_555 1_555
C5 C4 1_555 1_555
H4 C5 1_555 1_555
C6 N1 1_555 1_555
H5 C6 1_555 1_555
C7 N2 1_555 1_555
H6 C7 1_555 1_555
C8 C7 1_555 1_555
H7 C8 1_555 1_555
C9 C8 1_555 1_555
C10 C9 1_555 1_555
H8 C10 1_555 1_555
C11 C9 1_555 1_555
H9 C11 1_555 1_555
C12 N2 1_555 1_555
H10 C12 1_555 1_555
Zn1A Cl1A 1_555 1_555
Zn1A_2 N2A 1_555 1_555
Cl2A Zn1A 1_555 1_555
N1A Zn1A 1_555 1_555
N2A C7A 1_555 1_555
N2A_2 Zn1A 1_555 1_555
C1A N1A 1_555 1_555
H1A C1A 1_555 1_555
C2A C1A 1_555 1_555
H2A C2A 1_555 1_555
C3A C3 1_555 1_555
H3A C3A 1_555 1_555
C4A C2A 1_555 1_555
C5A C4A 1_555 1_555
H4A C5A 1_555 1_555
C6A N1A 1_555 1_555
H5A C6A 1_555 1_555
C7A H6A 1_555 1_555
C8A C7A 1_555 1_555
H7A C8A 1_555 1_555
C9A C8A 1_555 1_555
C10A C10 1_555 1_555
H8A C10A 1_555 1_555
C11A C9A 1_555 1_555
H9A C11A 1_555 1_555
C12A N2A 1_555 1_555
H10A C12A 1_555 1_555
C3 C4 1_555 1_555
C5 C6 1_555 1_555
C11 C12 1_555 1_555
C3A C4A 1_555 1_555
C5A C6A 1_555 1_555
C9A C10A 1_555 1_555
C11A C12A 1_555 1_555

#END
