
#######################################################################
#
#                 Cambridge Crystallographic Data Centre
#                                CCDC 
#
#######################################################################
#
# If this CIF has been generated from an entry in the Cambridge 
# Structural Database, then it will include bibliographic, chemical, 
# crystal, experimental, refinement or atomic coordinate data resulting 
# from the CCDC's data processing and validation procedures.
#
#######################################################################

data_LEXREN
_symmetry_cell_setting           monoclinic
_symmetry_space_group_name_H-M   'P 21/c'
_symmetry_Int_Tables_number      14
_space_group_name_Hall           '-P 2ybc'
loop_
_symmetry_equiv_pos_site_id
_symmetry_equiv_pos_as_xyz
1 x,y,z
2 -x,1/2+y,1/2-z
3 -x,-y,-z
4 x,1/2-y,1/2+z
_cell_length_a                   4.1288(9)
_cell_length_b                   26.758(6)
_cell_length_c                   9.862(2)
_cell_angle_alpha                90
_cell_angle_beta                 95.177(4)
_cell_angle_gamma                90
_cell_volume                     1085.09
loop_
_atom_site_label
_atom_site_type_symbol
_atom_site_fract_x
_atom_site_fract_y
_atom_site_fract_z
I1 I 0.22700(8) 0.444668(12) 0.86611(3)
Cu1 Cu 0.25992(17) 0.49418(3) 1.10460(7)
C1 C 0.2235(13) 0.3946(2) 1.2334(5)
H1 H 0.0820 0.3882 1.1565
N1 N 0.3325(11) 0.44099(15) 1.2535(4)
C2 C 0.5183(12) 0.36382(18) 1.4366(5)
C3 C 0.3092(13) 0.3553(2) 1.3207(5)
H2 H 0.2272 0.3235 1.3018
C4 C 0.6186(14) 0.4125(2) 1.4610(5)
H3 H 0.7480 0.4203 1.5403
C5 C 0.5280(15) 0.44946(19) 1.3687(5)
H4 H 0.6045 0.4817 1.3862
N2 N 0.5526(11) 0.27540(16) 1.4783(4)
C6 C 0.8351(15) 0.3272(2) 1.6420(5)
H5 H 0.8920 0.3589 1.6754
C7 C 0.6365(12) 0.32136(19) 1.5231(5)
S1 S 0.5686(4) 0.17843(6) 1.49407(16)
N3 N 0.8726(13) 0.2385(2) 1.6650(5)
C8 C 0.6765(14) 0.2377(2) 1.5530(5)
C9 C 0.9472(16) 0.2845(3) 1.7103(6)
H6 H 1.0800 0.2879 1.7910
H7 H 0.5522 0.1783 1.4081
I1B I -0.22700(8) 0.555332(12) 1.13389(3)
I1B_2 I 0.77300(8) 0.555332(12) 1.13389(3)
Cu1B Cu -0.25992(17) 0.50582(3) 0.89540(7)
Cu1B_2 Cu 0.74008(17) 0.50582(3) 0.89540(7)
loop_
_geom_bond_atom_site_label_1
_geom_bond_atom_site_label_2
_geom_bond_site_symmetry_1
_geom_bond_site_symmetry_2
I1 Cu1 1_555 1_555
Cu1 N1 1_555 1_555
C1 H1 1_555 1_555
N1 C1 1_555 1_555
C2 C3 1_555 1_555
C3 C1 1_555 1_555
H2 C3 1_555 1_555
C4 C2 1_555 1_555
H3 C4 1_555 1_555
C5 N1 1_555 1_555
H4 C5 1_555 1_555
N2 C7 1_555 1_555
C6 H5 1_555 1_555
C7 C2 1_555 1_555
S1 C8 1_555 1_555
N3 C8 1_555 1_555
C8 N2 1_555 1_555
C9 C6 1_555 1_555
H6 C9 1_555 1_555
H7 S1 1_555 1_555
I1B Cu1 1_555 1_555
I1B_2 Cu1 1_555 1_555
Cu1B I1 1_555 1_555
Cu1B_2 I1 1_555 1_555
C4 C5 1_555 1_555
C6 C7 1_555 1_555
N3 C9 1_555 1_555
I1B Cu1B 1_555 1_555
I1B_2 Cu1B_2 1_555 1_555

#END
