
#######################################################################
#
#                 Cambridge Crystallographic Data Centre
#                                CCDC 
#
#######################################################################
#
# If this CIF has been generated from an entry in the Cambridge 
# Structural Database, then it will include bibliographic, chemical, 
# crystal, experimental, refinement or atomic coordinate data resulting 
# from the CCDC's data processing and validation procedures.
#
#######################################################################

data_LEXXUI
_symmetry_cell_setting           monoclinic
_symmetry_space_group_name_H-M   'P 21/n'
_symmetry_Int_Tables_number      14
_space_group_name_Hall           '-P 2yn'
loop_
_symmetry_equiv_pos_site_id
_symmetry_equiv_pos_as_xyz
1 x,y,z
2 1/2-x,1/2+y,1/2-z
3 -x,-y,-z
4 1/2+x,1/2-y,1/2+z
_cell_length_a                   7.927(5)
_cell_length_b                   14.795(14)
_cell_length_c                   14.634(10)
_cell_angle_alpha                90
_cell_angle_beta                 90.49(8)
_cell_angle_gamma                90
_cell_volume                     1716.21
loop_
_atom_site_label
_atom_site_type_symbol
_atom_site_fract_x
_atom_site_fract_y
_atom_site_fract_z
Ni1 Ni 0.01280(6) 0.72249(3) 0.50244(3)
O1 O -0.1177(3) 0.80082(17) 0.40785(17)
O2 O -0.1211(3) 0.79603(17) 0.59826(17)
O3 O -0.2779(4) 0.6848(2) 0.6590(2)
O4 O -0.2959(4) 0.6969(2) 0.3507(2)
O5 O -0.1690(3) 0.62094(17) 0.50106(17)
H1 H -0.231(5) 0.642(3) 0.458(2)
H2 H -0.217(5) 0.635(3) 0.5513(17)
N1 N 0.1983(4) 0.8227(2) 0.5044(2)
N2 N -0.3483(4) 0.8427(2) 0.1103(2)
N3 N -0.3758(4) 0.8415(2) 0.8870(2)
C1 C 0.3630(5) 0.8056(3) 0.4961(3)
H3 H 0.3972 0.7457 0.4913
C2 C 0.4850(5) 0.8720(3) 0.4941(3)
H4 H 0.5981 0.8566 0.4880
C3 C 0.4372(4) 0.9625(2) 0.5015(2)
C4 C 0.2668(5) 0.9798(3) 0.5140(3)
H5 H 0.2294 1.0389 0.5215
C5 C 0.1528(5) 0.9091(3) 0.5152(3)
H6 H 0.0393 0.9222 0.5239
C6 C -0.3283(5) 0.7906(2) 0.8156(2)
H7 H -0.3369 0.7281 0.8210
C7 C -0.2678(5) 0.8253(3) 0.7348(2)
C8 C -0.2599(7) 0.9185(3) 0.7258(3)
H8 H -0.2176 0.9443 0.6727
C9 C -0.3159(7) 0.9729(3) 0.7966(3)
H9 H -0.3142 1.0355 0.7914
C10 C -0.3743(6) 0.9317(3) 0.8751(3)
H10 H -0.4145 0.9681 0.9219
C11 C -0.2187(5) 0.7631(2) 0.6582(2)
C12 C -0.3252(5) 0.7955(2) 0.1877(2)
H11 H -0.3704 0.7376 0.1908
C13 C -0.2379(5) 0.8281(3) 0.2634(2)
C14 C -0.1633(7) 0.9133(3) 0.2575(3)
H12 H -0.1015 0.9368 0.3063
C15 C -0.1833(7) 0.9622(3) 0.1774(3)
H13 H -0.1350 1.0192 0.1715
C16 C -0.2762(6) 0.9249(3) 0.1062(3)
H14 H -0.2895 0.9584 0.0528
C17 C -0.2171(5) 0.7696(3) 0.3475(2)
Ni1C Ni 0.51280(6) 0.77751(3) 1.00244(3)
Ni1C_2 Ni -0.48720(6) 0.77751(3) 0.00244(3)
Ni1C_3 Ni -0.48720(6) 0.77751(3) 1.00244(3)
Ni1B Ni 0.98720(6) 1.27751(3) 0.49756(3)
Ni1C_4 Ni 0.51280(6) 0.77751(3) 0.00244(3)
O1C O 0.3823(3) 0.69918(17) 0.90785(17)
O2C O 0.3789(3) 0.70397(17) 0.09826(17)
O2C_2 O 0.3789(3) 0.70397(17) 1.09826(17)
O3C O 0.2221(4) 0.8152(2) 0.1590(2)
O4C O 0.2041(4) 0.8031(2) 0.8507(2)
O5C O 0.3310(3) 0.87906(17) 1.00106(17)
H1C H 0.269(5) 0.858(3) 0.958(2)
H2C H 0.283(5) 0.865(3) 1.0513(17)
N1B N 0.8017(4) 1.1773(2) 0.4956(2)
N1C N 0.6983(4) 0.6773(2) 1.0044(2)
N2C N 0.1517(4) 0.6573(2) 0.6103(2)
N2_2 N 0.6517(4) 0.8427(2) 1.1103(2)
N3C N 0.1242(4) 0.6585(2) 0.3870(2)
N3_2 N 0.6242(4) 0.8415(2) 0.8870(2)
C1B C 0.6370(5) 1.1944(3) 0.5039(3)
H3B H 0.6028 1.2543 0.5087
C2B C 0.5150(5) 1.1280(3) 0.5059(3)
H4B H 0.4019 1.1434 0.5120
C3B C 0.5628(4) 1.0375(2) 0.4985(2)
C4B C 0.7332(5) 1.0202(3) 0.4860(3)
H5B H 0.7706 0.9611 0.4785
C5B C 0.8472(5) 1.0909(3) 0.4848(3)
H6B H 0.9607 1.0778 0.4761
C6C C 0.1717(5) 0.7094(2) 0.3156(2)
H7C H 0.1631 0.7719 0.3210
C7C C 0.2322(5) 0.6747(3) 0.2348(2)
C8C C 0.2401(7) 0.5815(3) 0.2258(3)
H8C H 0.2824 0.5557 0.1727
C9C C 0.1841(7) 0.5271(3) 0.2966(3)
H9C H 0.1858 0.4645 0.2914
C10C C 0.1257(6) 0.5683(3) 0.3751(3)
H10C H 0.0855 0.5319 0.4219
C11C C 0.2813(5) 0.7369(2) 0.1582(2)
C12C C 0.1748(5) 0.7045(2) 0.6877(2)
H11C H 0.1296 0.7624 0.6908
C13C C 0.2621(5) 0.6719(3) 0.7634(2)
C14C C 0.3367(7) 0.5867(3) 0.7575(3)
H12C H 0.3985 0.5632 0.8063
C15C C 0.3167(7) 0.5378(3) 0.6774(3)
H13C H 0.3650 0.4808 0.6715
C16C C 0.2238(6) 0.5751(3) 0.6062(3)
H14C H 0.2105 0.5416 0.5528
C17C C 0.2829(5) 0.7304(3) 0.8475(2)
loop_
_geom_bond_atom_site_label_1
_geom_bond_atom_site_label_2
_geom_bond_site_symmetry_1
_geom_bond_site_symmetry_2
Ni1 O1 1_555 1_555
O1 C17 1_555 1_555
O2 Ni1 1_555 1_555
O3 C11 1_555 1_555
O4 C17 1_555 1_555
O5 Ni1 1_555 1_555
H1 O5 1_555 1_555
H2 O5 1_555 1_555
N1 Ni1 1_555 1_555
N2 C12 1_555 1_555
N3 C6 1_555 1_555
C1 N1 1_555 1_555
H3 C1 1_555 1_555
C2 C1 1_555 1_555
H4 C2 1_555 1_555
C3 C2 1_555 1_555
C4 C3 1_555 1_555
H5 C4 1_555 1_555
C5 N1 1_555 1_555
H6 C5 1_555 1_555
C6 H7 1_555 1_555
C7 C6 1_555 1_555
C8 C7 1_555 1_555
H8 C8 1_555 1_555
C9 C8 1_555 1_555
H9 C9 1_555 1_555
C10 N3 1_555 1_555
H10 C10 1_555 1_555
C11 O2 1_555 1_555
C12 H11 1_555 1_555
C13 C12 1_555 1_555
C14 C13 1_555 1_555
H12 C14 1_555 1_555
C15 C14 1_555 1_555
H13 C15 1_555 1_555
C16 N2 1_555 1_555
H14 C16 1_555 1_555
C17 C13 1_555 1_555
Ni1C O1C 1_555 1_555
Ni1C_2 N2 1_555 1_555
Ni1C_3 N3 1_555 1_555
Ni1B N1B 1_555 1_555
Ni1C_4 O2C 1_555 1_555
O1C C17C 1_555 1_555
O2C C11C 1_555 1_555
O2C_2 Ni1C 1_555 1_555
O3C C11C 1_555 1_555
O4C C17C 1_555 1_555
O5C Ni1C 1_555 1_555
H1C O5C 1_555 1_555
H2C O5C 1_555 1_555
N1B C1B 1_555 1_555
N1C Ni1C 1_555 1_555
N2C Ni1 1_555 1_555
N2_2 Ni1C 1_555 1_555
N3C Ni1 1_555 1_555
N3_2 Ni1C 1_555 1_555
C1B H3B 1_555 1_555
C2B C1B 1_555 1_555
H4B C2B 1_555 1_555
C3B C3 1_555 1_555
C4B C3B 1_555 1_555
H5B C4B 1_555 1_555
C5B N1B 1_555 1_555
H6B C5B 1_555 1_555
C6C N3C 1_555 1_555
H7C C6C 1_555 1_555
C7C C6C 1_555 1_555
C8C C7C 1_555 1_555
H8C C8C 1_555 1_555
C9C C8C 1_555 1_555
H9C C9C 1_555 1_555
C10C N3C 1_555 1_555
H10C C10C 1_555 1_555
C11C C7C 1_555 1_555
C12C N2C 1_555 1_555
H11C C12C 1_555 1_555
C13C C12C 1_555 1_555
C14C C13C 1_555 1_555
H12C C14C 1_555 1_555
C15C C14C 1_555 1_555
H13C C15C 1_555 1_555
C16C N2C 1_555 1_555
H14C C16C 1_555 1_555
C17C C13C 1_555 1_555
C4 C5 1_555 1_555
C7 C11 1_555 1_555
C9 C10 1_555 1_555
C15 C16 1_555 1_555
C2B C3B 1_555 1_555
C4B C5B 1_555 1_555
C9C C10C 1_555 1_555
C15C C16C 1_555 1_555

#END
