
#######################################################################
#
#                 Cambridge Crystallographic Data Centre
#                                CCDC 
#
#######################################################################
#
# If this CIF has been generated from an entry in the Cambridge 
# Structural Database, then it will include bibliographic, chemical, 
# crystal, experimental, refinement or atomic coordinate data resulting 
# from the CCDC's data processing and validation procedures.
#
#######################################################################

data_LEYBUO
_symmetry_cell_setting           monoclinic
_symmetry_space_group_name_H-M   'P 21'
_symmetry_Int_Tables_number      4
_space_group_name_Hall           'P 2yb'
loop_
_symmetry_equiv_pos_site_id
_symmetry_equiv_pos_as_xyz
1 x,y,z
2 -x,1/2+y,-z
_cell_length_a                   5.0532(3)
_cell_length_b                   17.7774(11)
_cell_length_c                   11.8317(5)
_cell_angle_alpha                90
_cell_angle_beta                 94.550(3)
_cell_angle_gamma                90
_cell_volume                     1059.52
loop_
_atom_site_label
_atom_site_type_symbol
_atom_site_fract_x
_atom_site_fract_y
_atom_site_fract_z
Pb1 Pb -0.02908(4) 0.75037(3) 0.626161(15)
O1 O -0.1116(9) 0.7963(3) 0.8190(4)
O2 O 0.7131(9) 0.7332(4) 1.0840(4)
O3 O -0.0167(9) 0.8179(3) 1.4097(4)
O4 O -0.0432(8) 0.8956(3) 1.1582(4)
O5 O 0.2414(10) 0.6786(3) 0.7727(4)
H1 H 0.3788 0.6721 0.7612
O6 O 0.3130(11) 1.1479(3) 1.3125(5)
O7 O 0.0837(13) 1.1114(4) 1.4517(5)
O8 O 0.4847(10) 0.7935(3) 0.5969(5)
O9 O 0.6707(14) 0.9036(5) 0.6102(7)
O10 O 0.3049(12) 0.8837(4) 0.6851(5)
N1 N 0.0823(10) 0.8838(3) 0.9314(4)
N2 N 0.2714(8) 0.7521(6) 1.0654(3)
H2 H 0.1289 0.7588 1.0993
N3 N 0.2510(9) 0.7521(7) 1.3023(3)
H3 H 0.1349 0.7166 1.2979
N4 N 0.3934(10) 0.8975(3) 1.2188(4)
H4 H 0.5536 0.9019 1.2000
N5 N 0.4887(11) 0.8612(4) 0.6313(5)
C1 C 0.0632(14) 0.8142(4) 0.8943(5)
C2 C 0.2636(11) 0.7564(7) 0.9426(4)
H5 H 0.4393 0.7728 0.9230
C3 C 0.5033(11) 0.7376(6) 1.1262(5)
C4 C 0.5002(12) 0.7362(5) 1.2547(5)
H6 H 0.5593 0.6868 1.2810
H7 H 0.6301 0.7723 1.2858
C5 C 0.1804(12) 0.8163(4) 1.3528(5)
C6 C 0.3445(13) 0.8870(4) 1.3382(5)
H8 H 0.5170 0.8795 1.3806
C7 C 0.1903(12) 0.9002(4) 1.1383(5)
C8 C 0.2779(13) 0.9153(4) 1.0182(5)
H9 H 0.4559 0.8952 1.0099
C9 C 0.2662(14) 0.9995(4) 0.9933(6)
H10 H 0.3858 1.0129 0.9363
H11 H 0.3116 1.0286 1.0614
C10 C -0.0263(14) 1.0124(4) 0.9489(6)
H12 H -0.1407 1.0152 1.0109
H13 H -0.0459 1.0580 0.9042
C11 C -0.0873(14) 0.9436(4) 0.8768(6)
H14 H -0.2736 0.9303 0.8762
H15 H -0.0436 0.9521 0.7994
C12 C 0.2140(15) 0.6785(4) 0.8906(5)
H16 H 0.3390 0.6430 0.9272
H17 H 0.0363 0.6621 0.9043
C13 C 0.2186(14) 0.9574(4) 1.3860(6)
H18 H 0.0538 0.9686 1.3416
H19 H 0.1778 0.9479 1.4634
C14 C 0.4043(15) 1.0244(5) 1.3835(7)
H20 H 0.5014 1.0215 1.3161
H21 H 0.5322 1.0223 1.4491
C15 C 0.255(2) 1.0996(6) 1.3838(8)
Pb1_2 Pb -0.02908(4) 0.75037(3) 1.626161(15)
Pb1_3 Pb 0.97092(4) 0.75037(3) 0.626161(15)
Pb1A Pb 0.02908(4) 1.25037(3) 1.373839(15)
O3_2 O -0.0167(9) 0.8179(3) 0.4097(4)
O6A O -0.3130(11) 0.6479(3) 0.6875(5)
O7A O -0.0837(13) 0.6114(4) 0.5483(5)
O8_2 O -0.5153(10) 0.7935(3) 0.5969(5)
O11 O 0.4614(12) 1.0423(4) 0.7255(5)
H22 H 0.3549 1.0716 0.6987
H23 H 0.4506 1.0006 0.6995
O12 O 0.0506(12) 0.5995(4) 1.3326(5)
H24 H 0.0655 0.5904 1.3991
H25 H 0.1859 0.5973 1.3015
loop_
_geom_bond_atom_site_label_1
_geom_bond_atom_site_label_2
_geom_bond_site_symmetry_1
_geom_bond_site_symmetry_2
Pb1 O1 1_555 1_555
O1 C1 1_555 1_555
O2 C3 1_555 1_555
O3 C5 1_555 1_555
O4 C7 1_555 1_555
O5 Pb1 1_555 1_555
H1 O5 1_555 1_555
O6 C15 1_555 1_555
O7 C15 1_555 1_555
O8 Pb1 1_555 1_555
O9 N5 1_555 1_555
O10 N5 1_555 1_555
N1 C1 1_555 1_555
N2 H2 1_555 1_555
N3 H3 1_555 1_555
N4 H4 1_555 1_555
N5 O8 1_555 1_555
C1 C2 1_555 1_555
C2 N2 1_555 1_555
H5 C2 1_555 1_555
C3 N2 1_555 1_555
C4 N3 1_555 1_555
H6 C4 1_555 1_555
H7 C4 1_555 1_555
C5 N3 1_555 1_555
C6 N4 1_555 1_555
H8 C6 1_555 1_555
C7 N4 1_555 1_555
C8 N1 1_555 1_555
H9 C8 1_555 1_555
C9 C8 1_555 1_555
H10 C9 1_555 1_555
H11 C9 1_555 1_555
C10 C9 1_555 1_555
H12 C10 1_555 1_555
H13 C10 1_555 1_555
C11 N1 1_555 1_555
H14 C11 1_555 1_555
H15 C11 1_555 1_555
C12 O5 1_555 1_555
H16 C12 1_555 1_555
H17 C12 1_555 1_555
C13 C6 1_555 1_555
H18 C13 1_555 1_555
H19 C13 1_555 1_555
C14 C13 1_555 1_555
H20 C14 1_555 1_555
H21 C14 1_555 1_555
C15 C14 1_555 1_555
O11 H22 1_555 1_555
H23 O11 1_555 1_555
O12 H24 1_555 1_555
H25 O12 1_555 1_555
Pb1_2 O3 1_555 1_555
Pb1_3 O8 1_555 1_555
Pb1A O6 1_555 1_555
O3_2 Pb1 1_555 1_555
O6A Pb1 1_555 1_555
O7A Pb1 1_555 1_555
O8_2 Pb1 1_555 1_555
O7 Pb1A 1_555 1_555
C2 C12 1_555 1_555
C3 C4 1_555 1_555
C5 C6 1_555 1_555
C7 C8 1_555 1_555
C10 C11 1_555 1_555

#END
