
#######################################################################
#
#                 Cambridge Crystallographic Data Centre
#                                CCDC 
#
#######################################################################
#
# If this CIF has been generated from an entry in the Cambridge 
# Structural Database, then it will include bibliographic, chemical, 
# crystal, experimental, refinement or atomic coordinate data resulting 
# from the CCDC's data processing and validation procedures.
#
#######################################################################

data_LEYCEZ
_symmetry_cell_setting           monoclinic
_symmetry_space_group_name_H-M   'P 21/c'
_symmetry_Int_Tables_number      14
_space_group_name_Hall           '-P 2ybc'
loop_
_symmetry_equiv_pos_site_id
_symmetry_equiv_pos_as_xyz
1 x,y,z
2 -x,1/2+y,1/2-z
3 -x,-y,-z
4 x,1/2-y,1/2+z
_cell_length_a                   15.824(3)
_cell_length_b                   21.265(4)
_cell_length_c                   7.7688(16)
_cell_angle_alpha                90
_cell_angle_beta                 93.08(3)
_cell_angle_gamma                90
_cell_volume                     2610.4
loop_
_atom_site_label
_atom_site_type_symbol
_atom_site_fract_x
_atom_site_fract_y
_atom_site_fract_z
Yb1 Yb 0.738350(15) 0.899960(13) 0.19651(3)
Na1 Na 0.50988(14) 0.91490(11) 0.4717(3)
O1 O 0.8332(2) 0.8433(2) 0.0489(5)
H1 H 0.8261 0.8289 -0.0736
H2 H 0.8772 0.8165 0.1098
O2 O 0.4798(2) 0.9489(2) 0.1675(6)
H3 H 0.4793 0.9957 0.1803
H4 H 0.5331 0.9365 0.1129
O3 O 0.3776(2) 0.8654(2) 0.5451(6)
O4 O 0.5026(2) 0.7989(2) 0.4506(5)
O5 O 0.8613(2) 0.9672(2) 0.1873(5)
O6 O 0.7534(2) 0.9576(2) -0.0707(5)
O7 O 0.4092(2) 0.9876(2) 0.5566(6)
O8 O 0.2996(3) 1.0059(2) 0.7192(6)
O9 O 0.6335(2) 0.8679(2) 0.3797(5)
O10 O 0.6988(2) 0.7912(2) 0.2521(5)
O11 O 0.8256(3) 0.8889(2) 0.4314(5)
O12 O 0.9409(3) 0.9160(2) 0.5965(6)
O13 O 0.6293(3) 0.8881(2) 0.0074(6)
O14 O 0.5529(3) 0.9059(2) -0.2372(6)
C1 C 0.3653(4) 0.8008(3) 0.5531(8)
C2 C 0.4338(3) 0.7639(3) 0.5007(8)
C3 C 0.4304(3) 0.6996(3) 0.5066(8)
H5 H 0.4767 0.6751 0.4715
C4 C 0.3587(4) 0.6704(3) 0.5644(8)
H6 H 0.3564 0.6258 0.5712
C5 C 0.2907(4) 0.7060(3) 0.6122(9)
H7 H 0.2408 0.6859 0.6469
C6 C 0.2954(4) 0.7719(3) 0.6093(9)
H8 H 0.2496 0.7964 0.6468
C7 C 0.8700(4) 1.0117(3) 0.0578(8)
C8 C 0.8134(3) 1.0054(3) -0.0840(8)
C9 C 0.8171(4) 1.0445(3) -0.2216(9)
H9 H 0.7784 1.0395 -0.3185
C10 C 0.8787(4) 1.0926(3) -0.2199(10)
H10 H 0.8820 1.1201 -0.3157
C11 C 0.9338(4) 1.0992(3) -0.0785(9)
H11 H 0.9742 1.1324 -0.0751
C12 C 0.9310(4) 1.0579(3) 0.0599(9)
H12 H 0.9709 1.0616 0.1551
C13 C 0.3195(4) 0.9027(3) 0.6355(9)
H13 H 0.3177 0.8877 0.7558
H14 H 0.2620 0.8987 0.5797
C14 C 0.3473(4) 0.9711(3) 0.6341(8)
C15 C 0.5721(3) 0.7644(3) 0.3854(8)
H15 H 0.5527 0.7398 0.2825
H16 H 0.5956 0.7349 0.4741
C16 C 0.6382(4) 0.8109(3) 0.3390(8)
C17 C 0.9119(4) 0.9747(3) 0.3450(8)
H17 H 0.8999 1.0160 0.3973
H18 H 0.9727 0.9734 0.3210
C18 C 0.8920(4) 0.9230(3) 0.4675(9)
C19 C 0.6856(4) 0.9553(3) -0.2053(8)
H19 H 0.7075 0.9389 -0.3136
H20 H 0.6626 0.9980 -0.2276
C20 C 0.6171(4) 0.9123(3) -0.1434(8)
Yb1B Yb 0.261650(15) 1.100040(13) 0.80349(3)
Na1_2 Na 0.50988(14) 0.91490(11) -0.5283(3)
Na1B Na 0.49012(14) 1.08510(11) 0.5283(3)
O7B O 0.5908(2) 1.0124(2) 0.4434(6)
O8B O 0.7004(3) 0.9941(2) 0.2808(6)
O14_2 O 0.5529(3) 0.9059(2) 0.7628(6)
O15 O 1.0417(4) 0.8102(3) 0.5289(8)
H21 H 1.0140 0.7931 0.4200
H22 H 1.0098 0.8483 0.5633
O16 O 0.9529(3) 0.7725(3) 0.2270(7)
H23 H 0.9960 0.7618 0.1421
H24 H 0.9228 0.7330 0.2573
O17 O 0.8098(3) 0.8084(2) -0.2794(6)
H25 H 0.8075 0.8323 -0.3904
H26 H 0.7663 0.7743 -0.2884
loop_
_geom_bond_atom_site_label_1
_geom_bond_atom_site_label_2
_geom_bond_site_symmetry_1
_geom_bond_site_symmetry_2
Yb1 O1 1_555 1_555
Na1 O2 1_555 1_555
O1 H1 1_555 1_555
H2 O1 1_555 1_555
O2 H3 1_555 1_555
H4 O2 1_555 1_555
O3 Na1 1_555 1_555
O4 Na1 1_555 1_555
O5 Yb1 1_555 1_555
O6 Yb1 1_555 1_555
O7 Na1 1_555 1_555
O8 C14 1_555 1_555
O9 Yb1 1_555 1_555
O10 Yb1 1_555 1_555
O11 Yb1 1_555 1_555
O12 C18 1_555 1_555
O13 Yb1 1_555 1_555
O14 C20 1_555 1_555
C1 O3 1_555 1_555
C2 O4 1_555 1_555
C3 C2 1_555 1_555
H5 C3 1_555 1_555
C4 C3 1_555 1_555
H6 C4 1_555 1_555
C5 C4 1_555 1_555
H7 C5 1_555 1_555
C6 C1 1_555 1_555
H8 C6 1_555 1_555
C7 O5 1_555 1_555
C8 O6 1_555 1_555
C9 C8 1_555 1_555
H9 C9 1_555 1_555
C10 C9 1_555 1_555
H10 C10 1_555 1_555
C11 C10 1_555 1_555
H11 C11 1_555 1_555
C12 C7 1_555 1_555
H12 C12 1_555 1_555
C13 O3 1_555 1_555
H13 C13 1_555 1_555
H14 C13 1_555 1_555
C14 O7 1_555 1_555
C15 O4 1_555 1_555
H15 C15 1_555 1_555
H16 C15 1_555 1_555
C16 O9 1_555 1_555
C17 O5 1_555 1_555
H17 C17 1_555 1_555
H18 C17 1_555 1_555
C18 O11 1_555 1_555
C19 O6 1_555 1_555
H19 C19 1_555 1_555
H20 C19 1_555 1_555
C20 O13 1_555 1_555
O15 H21 1_555 1_555
H22 O15 1_555 1_555
O16 H23 1_555 1_555
H24 O16 1_555 1_555
O17 H25 1_555 1_555
H26 O17 1_555 1_555
Yb1B O8 1_555 1_555
Na1_2 O14 1_555 1_555
Na1B O7 1_555 1_555
O7B Na1 1_555 1_555
O8B Yb1 1_555 1_555
O14_2 Na1 1_555 1_555
Na1 O9 1_555 1_555
O10 C16 1_555 1_555
C1 C2 1_555 1_555
C5 C6 1_555 1_555
C7 C8 1_555 1_555
C11 C12 1_555 1_555
C13 C14 1_555 1_555
C15 C16 1_555 1_555
C17 C18 1_555 1_555
C19 C20 1_555 1_555
Na1B O7B 1_555 1_555

#END
