
#######################################################################
#
#                 Cambridge Crystallographic Data Centre
#                                CCDC 
#
#######################################################################
#
# If this CIF has been generated from an entry in the Cambridge 
# Structural Database, then it will include bibliographic, chemical, 
# crystal, experimental, refinement or atomic coordinate data resulting 
# from the CCDC's data processing and validation procedures.
#
#######################################################################

data_LEYFOM
_symmetry_cell_setting           monoclinic
_symmetry_space_group_name_H-M   'P n'
_symmetry_Int_Tables_number      7
_space_group_name_Hall           'P -2yac'
loop_
_symmetry_equiv_pos_site_id
_symmetry_equiv_pos_as_xyz
1 x,y,z
2 1/2+x,-y,1/2+z
_cell_length_a                   13.4789(13)
_cell_length_b                   22.551(2)
_cell_length_c                   16.4302(16)
_cell_angle_alpha                90
_cell_angle_beta                 104.6120(10)
_cell_angle_gamma                90
_cell_volume                     4832.64
loop_
_atom_site_label
_atom_site_type_symbol
_atom_site_fract_x
_atom_site_fract_y
_atom_site_fract_z
P1 P 0.8839(3) 0.31144(19) 0.4962(3)
N1 N 0.8548(13) 0.7602(7) 0.2544(10)
H1 H 0.8253 0.7385 0.2122
O1 O 0.5837(14) 0.7011(7) 0.5653(10)
C1 C 0.6338(17) 0.6677(10) 0.6163(13)
C2 C 0.6804(18) 0.6862(10) 0.7051(13)
H2 H 0.6470 0.6661 0.7431
H3 H 0.7529 0.6765 0.7211
C3 C 0.8338(19) 0.8205(10) 0.2590(14)
H4 H 0.7608 0.8261 0.2526
H5 H 0.8528 0.8414 0.2136
C4 C 0.891(2) 0.8453(10) 0.3407(15)
O2 O 0.9429(13) 0.8093(7) 0.3933(11)
N2 N 0.6817(14) 0.6146(8) 0.4453(11)
Cu1 Cu 0.9565(2) 0.72858(12) 0.35142(17)
W1 W 0.78436(6) 0.11852(3) 0.63037(4)
W2 W 0.51890(6) 0.29205(4) 0.28686(5)
W3 W 0.50138(6) 0.32805(3) 0.50099(5)
W4 W 0.85590(6) 0.34535(3) 0.69858(5)
W5 W 0.74645(6) 0.39297(3) 0.31987(5)
W6 W 1.03143(6) 0.18805(3) 0.46712(5)
W7 W 0.73015(6) 0.42766(3) 0.53460(5)
W8 W 0.80237(6) 0.08694(3) 0.43448(5)
W9 W 0.89102(6) 0.27718(4) 0.28710(4)
W10 W 0.62653(6) 0.24443(3) 0.66581(4)
W11 W 0.37445(6) 0.19313(4) 0.39543(5)
W12 W 0.66243(6) 0.17560(4) 0.25522(5)
W13 W 0.50089(6) 0.10958(4) 0.56058(5)
W14 W 1.11535(6) 0.34201(3) 0.43997(5)
W15 W 1.09889(6) 0.37422(4) 0.63765(5)
W16 W 0.51862(6) 0.07694(4) 0.36417(5)
W17 W 0.97121(6) 0.45783(4) 0.47266(5)
P2 P 0.6445(4) 0.2048(2) 0.4621(3)
O3 O 1.0608(11) 0.4485(6) 0.5844(8)
O4 O 0.4036(11) 0.1239(6) 0.3294(8)
O5 O 1.1768(11) 0.3592(6) 0.5571(8)
O6 O 0.4982(11) 0.0545(6) 0.4684(9)
O7 O 0.9228(11) 0.1315(6) 0.4677(8)
O8 O 0.7342(11) 0.1867(6) 0.6716(8)
O9 O 0.6353(10) 0.3402(6) 0.2876(8)
O10 O 0.5250(11) 0.3006(6) 0.6160(8)
O11 O 0.7299(11) 0.3038(6) 0.6865(8)
O12 O 0.9804(10) 0.3542(6) 0.5072(8)
O13 O 0.5620(11) 0.1245(6) 0.2839(8)
O14 O 0.8597(11) 0.4576(6) 0.5264(8)
O15 O 0.7056(10) 0.4122(6) 0.4188(8)
O16 O 0.5133(11) 0.3293(6) 0.3907(8)
O17 O 1.0074(11) 0.3239(6) 0.3460(8)
O18 O 0.9534(11) 0.2166(6) 0.3624(8)
O19 O 0.7618(10) 0.1321(6) 0.3357(8)
O20 O 0.8207(11) 0.0761(6) 0.7195(8)
O21 O 1.1114(11) 0.2612(6) 0.4721(8)
O22 O 0.9806(11) 0.3801(6) 0.6810(8)
O23 O 0.6150(11) 0.3793(6) 0.5365(8)
O24 O 0.4089(11) 0.3796(7) 0.5009(9)
W18 W 1.01201(6) 0.21998(3) 0.66212(4)
O25 O 0.9179(11) 0.2713(6) 0.6989(8)
O26 O 0.6731(11) 0.4950(6) 0.5434(9)
O27 O 0.6421(11) 0.2302(6) 0.3759(8)
O28 O 0.9327(11) 0.2637(6) 0.2002(9)
O29 O 0.8204(11) 0.3502(6) 0.2536(8)
O30 O 0.3884(10) 0.1519(6) 0.4973(8)
O31 O 0.6627(12) 0.1439(6) 0.1621(8)
O32 O 0.5595(11) 0.2335(6) 0.2152(8)
O33 O 0.4186(11) 0.2603(6) 0.4677(8)
O34 O 1.0891(12) 0.1932(6) 0.7554(9)
O35 O 0.8757(11) 0.4327(6) 0.3781(8)
O36 O 1.0742(11) 0.1807(6) 0.5879(9)
O37 O 0.5483(10) 0.1630(6) 0.4494(8)
O38 O 0.4294(11) 0.2343(6) 0.3178(8)
O39 O 1.1151(11) 0.1385(7) 0.4404(9)
O40 O 0.7858(10) 0.4148(6) 0.6553(8)
O41 O 0.6086(11) 0.2408(6) 0.7653(8)
O42 O 0.8790(12) 0.3583(7) 0.8047(10)
O43 O 1.0936(11) 0.2913(6) 0.6559(8)
O44 O 0.6618(11) 0.0615(6) 0.4106(8)
O45 O 0.4315(13) 0.3300(7) 0.2122(10)
O46 O 0.9090(11) 0.1589(6) 0.6429(9)
O47 O 0.4761(12) 0.0158(6) 0.3057(9)
Cu2 Cu 0.57539(18) 0.57275(10) 0.49468(16)
O48 O 0.8271(10) 0.3136(6) 0.4012(8)
O49 O 0.6326(11) 0.2533(6) 0.5231(8)
O50 O 0.6458(11) 0.0902(6) 0.5969(9)
O51 O 0.8546(11) 0.0238(6) 0.4051(9)
O52 O 0.7375(11) 0.1665(6) 0.4996(8)
O53 O 1.0778(11) 0.4236(6) 0.4291(9)
O54 O 1.2194(12) 0.3418(7) 0.4005(9)
O55 O 0.9267(11) 0.2506(6) 0.5274(8)
O56 O 0.5323(11) 0.1813(6) 0.6189(8)
Cu3 Cu 0.5667(2) 0.78140(13) 0.60942(17)
O57 O 0.2451(10) 0.2059(6) 0.3548(8)
O58 O 0.8162(11) 0.3377(6) 0.5499(8)
O59 O 0.7669(11) 0.2350(6) 0.2605(8)
O60 O 0.9849(11) 0.5307(6) 0.4553(10)
O61 O 0.6987(11) 0.4491(7) 0.2540(9)
O62 O 0.8160(10) 0.0660(6) 0.5510(8)
O63 O 0.4495(12) 0.0692(7) 0.6276(9)
Cu4 Cu 0.9521(2) 0.94173(11) 0.45399(16)
O64 O 0.6404(11) 0.6105(6) 0.6051(8)
N3 N 0.6669(13) 0.7470(7) 0.7087(10)
H6 H 0.6992 0.7682 0.7505
N4 N 0.5135(14) 0.8512(7) 0.6580(11)
N5 N 0.4524(14) 0.5502(8) 0.5317(11)
O65 O 0.8797(13) 0.8993(7) 0.3520(11)
N6 N 0.4601(14) 0.8022(8) 0.5086(11)
O66 O 1.1911(11) 0.3976(7) 0.7231(9)
N7 N 0.5011(14) 0.5302(8) 0.3913(11)
N8 N 1.0452(14) 0.9874(8) 0.5494(12)
C5 C 1.088(2) 0.6351(11) 0.3390(15)
N9 N 1.0868(14) 0.7117(8) 0.4372(11)
C6 C 0.4086(18) 0.5071(10) 0.3991(14)
N10 N 0.9947(14) 0.6541(7) 0.3013(10)
C7 C 1.144(2) 0.6714(11) 0.4137(16)
C8 C 1.139(2) 0.9993(11) 0.4450(16)
C9 C 1.068(2) 0.9485(11) 0.3179(16)
H7 H 1.0176 0.9245 0.2849
N11 N 1.0619(13) 0.9631(8) 0.3967(12)
C10 C 0.425(2) 0.8758(11) 0.6094(15)
C11 C 0.367(2) 0.9128(11) 0.6327(15)
H8 H 0.3070 0.9256 0.5956
C12 C 0.450(2) 0.7760(11) 0.4372(15)
H9 H 0.4967 0.7479 0.4282
C13 C 0.2951(19) 0.4986(11) 0.4958(15)
H10 H 0.2520 0.4727 0.4592
C14 C 0.543(2) 0.8703(11) 0.7351(15)
H11 H 0.6044 0.8570 0.7692
C15 C 0.487(2) 0.9084(11) 0.7670(15)
H12 H 0.5069 0.9183 0.8237
C16 C 1.217(2) 1.0169(11) 0.4185(16)
H13 H 1.2685 1.0386 0.4544
C17 C 1.082(2) 0.5629(11) 0.2355(16)
H14 H 1.1129 0.5327 0.2123
C18 C 0.3839(19) 0.5181(11) 0.4783(15)
C19 C 0.532(2) 0.5185(10) 0.3264(14)
H15 H 0.5971 0.5318 0.3251
C20 C 0.298(2) 0.8342(11) 0.3795(16)
H16 H 0.2427 0.8444 0.3356
C21 C 1.1428(19) 0.9669(11) 0.2869(15)
H17 H 1.1434 0.9561 0.2324
C22 C 1.201(2) 1.0421(11) 0.5922(16)
H18 H 1.2603 1.0570 0.5801
C23 C 0.3425(19) 0.5496(11) 0.6231(16)
H19 H 0.3283 0.5616 0.6731
C24 C 1.225(2) 1.0038(11) 0.3354(16)
H20 H 1.2784 1.0178 0.3141
C25 C 0.986(2) 0.5786(11) 0.1992(16)
H21 H 0.9490 0.5582 0.1518
C26 C 1.133(2) 0.5897(11) 0.3036(15)
H22 H 1.1999 0.5784 0.3287
C27 C 1.244(2) 0.6610(11) 0.4574(16)
H23 H 1.2846 0.6331 0.4397
C28 C 0.271(2) 0.5168(11) 0.5652(15)
H24 H 0.2075 0.5077 0.5747
C29 C 0.396(2) 0.8448(11) 0.5202(15)
C30 C 1.227(2) 0.7366(11) 0.5543(16)
H25 H 1.2570 0.7587 0.6018
C31 C 0.936(2) 0.6283(11) 0.2336(16)
H26 H 0.8694 0.6405 0.2093
C32 C 0.4386(19) 0.5652(10) 0.6058(15)
H27 H 0.4892 0.5852 0.6454
C33 C 0.396(2) 0.9342(11) 0.7147(15)
H28 H 0.3580 0.9631 0.7342
C34 C 1.028(2) 0.9955(12) 0.6218(17)
H29 H 0.9684 0.9795 0.6321
C35 C 1.182(2) 1.0512(12) 0.6694(17)
H30 H 1.2281 1.0733 0.7096
C36 C 1.127(2) 0.7457(11) 0.5086(15)
H31 H 1.0868 0.7744 0.5254
C37 C 0.359(2) 0.7936(12) 0.3708(16)
H32 H 0.3463 0.7737 0.3196
C38 C 0.317(2) 0.8638(12) 0.4577(16)
H33 H 0.2765 0.8954 0.4658
C39 C 1.277(2) 0.6926(11) 0.5244(16)
H34 H 1.3432 0.6843 0.5559
C40 C 1.097(2) 1.0288(12) 0.6883(17)
H35 H 1.0837 1.0345 0.7406
C41 C 0.4742(18) 0.4863(10) 0.2548(14)
H36 H 0.4976 0.4803 0.2068
C42 C 1.127(2) 1.0085(11) 0.5300(16)
C43 C 0.3879(19) 0.4663(10) 0.2619(15)
H37 H 0.3473 0.4457 0.2165
C44 C 0.3516(19) 0.4733(11) 0.3318(15)
H38 H 0.2900 0.4560 0.3347
N12 N 0.8571(15) 0.9054(9) 0.5173(13)
N13 N 0.8314(14) 0.6840(8) 0.4042(10)
C45 C 0.757(2) 0.9163(14) 0.4885(19)
H39 H 0.7356 0.9420 0.4432
C46 C 0.893(3) 0.8617(14) 0.5793(19)
H40 H 0.9622 0.8546 0.6008
C47 C 0.7267(18) 0.6910(10) 0.3680(14)
H41 H 0.7045 0.7201 0.3275
C48 C 0.659(2) 0.6573(10) 0.3902(14)
H42 H 0.5905 0.6642 0.3648
C49 C 0.7842(18) 0.6078(10) 0.4806(14)
H43 H 0.8060 0.5781 0.5205
N14 N 0.7130(15) 0.8372(9) 0.5787(12)
C50 C 0.854(2) 0.6422(11) 0.4598(15)
H44 H 0.9225 0.6360 0.4867
C51 C 0.814(2) 0.8277(14) 0.6087(19)
H45 H 0.8362 0.7986 0.6494
C52 C 0.680(3) 0.8885(14) 0.5267(19)
H46 H 0.6143 0.9035 0.5176
O51_2 O 0.8546(11) 1.0238(6) 0.4051(9)
Cu4_2 Cu 0.9521(2) -0.05827(11) 0.45399(16)
O67 O 0.3089(12) 0.2506(7) 0.6000(9)
H47 H 0.3468 0.2210 0.6187
H48 H 0.2442 0.2479 0.5918
loop_
_geom_bond_atom_site_label_1
_geom_bond_atom_site_label_2
_geom_bond_site_symmetry_1
_geom_bond_site_symmetry_2
P1 O12 1_555 1_555
N1 H1 1_555 1_555
O1 C1 1_555 1_555
C1 C2 1_555 1_555
C2 H2 1_555 1_555
H3 C2 1_555 1_555
C3 N1 1_555 1_555
H4 C3 1_555 1_555
H5 C3 1_555 1_555
C4 C3 1_555 1_555
O2 C4 1_555 1_555
N2 Cu2 1_555 1_555
Cu1 N1 1_555 1_555
W1 O8 1_555 1_555
W2 O9 1_555 1_555
W3 O10 1_555 1_555
W4 O11 1_555 1_555
W5 O9 1_555 1_555
W6 O7 1_555 1_555
W7 O14 1_555 1_555
W8 O7 1_555 1_555
W9 O17 1_555 1_555
W10 O8 1_555 1_555
W11 O4 1_555 1_555
W12 O13 1_555 1_555
W13 O6 1_555 1_555
W14 O5 1_555 1_555
W15 O3 1_555 1_555
W16 O4 1_555 1_555
W17 O3 1_555 1_555
P2 O27 1_555 1_555
O5 W15 1_555 1_555
O6 W16 1_555 1_555
O10 W10 1_555 1_555
O11 W10 1_555 1_555
O12 W14 1_555 1_555
O13 W16 1_555 1_555
O14 W17 1_555 1_555
O15 W5 1_555 1_555
O16 W2 1_555 1_555
O17 W14 1_555 1_555
O18 W6 1_555 1_555
O19 W8 1_555 1_555
O20 W1 1_555 1_555
O21 W6 1_555 1_555
O22 W4 1_555 1_555
O23 W3 1_555 1_555
O24 W3 1_555 1_555
W18 O25 1_555 1_555
O25 W4 1_555 1_555
O26 W7 1_555 1_555
O27 W2 1_555 1_555
O28 W9 1_555 1_555
O29 W5 1_555 1_555
O30 W11 1_555 1_555
O31 W12 1_555 1_555
O32 W2 1_555 1_555
O33 W3 1_555 1_555
O34 W18 1_555 1_555
O35 W5 1_555 1_555
O36 W6 1_555 1_555
O37 W11 1_555 1_555
O38 W2 1_555 1_555
O39 W6 1_555 1_555
O40 W4 1_555 1_555
O41 W10 1_555 1_555
O42 W4 1_555 1_555
O43 W15 1_555 1_555
O44 W8 1_555 1_555
O45 W2 1_555 1_555
O46 W1 1_555 1_555
O47 W16 1_555 1_555
Cu2 O26 1_555 1_555
O48 P1 1_555 1_555
O49 W3 1_555 1_555
O50 W1 1_555 1_555
O51 W8 1_555 1_555
O52 W1 1_555 1_555
O53 W14 1_555 1_555
O54 W14 1_555 1_555
O55 P1 1_555 1_555
O56 W10 1_555 1_555
Cu3 O1 1_555 1_555
O57 W11 1_555 1_555
O58 P1 1_555 1_555
O59 W9 1_555 1_555
O60 W17 1_555 1_555
O61 W5 1_555 1_555
O62 W1 1_555 1_555
O63 W13 1_555 1_555
Cu4 O65 1_555 1_555
O64 C1 1_555 1_555
N3 C2 1_555 1_555
H6 N3 1_555 1_555
N4 Cu3 1_555 1_555
N5 Cu2 1_555 1_555
O65 C4 1_555 1_555
N6 Cu3 1_555 1_555
O66 W15 1_555 1_555
N7 Cu2 1_555 1_555
N8 Cu4 1_555 1_555
C5 N10 1_555 1_555
N9 Cu1 1_555 1_555
C6 N7 1_555 1_555
N10 Cu1 1_555 1_555
C7 C5 1_555 1_555
C8 N11 1_555 1_555
C9 H7 1_555 1_555
N11 Cu4 1_555 1_555
C10 N4 1_555 1_555
C11 C10 1_555 1_555
H8 C11 1_555 1_555
C12 N6 1_555 1_555
H9 C12 1_555 1_555
C13 H10 1_555 1_555
C14 N4 1_555 1_555
H11 C14 1_555 1_555
C15 C14 1_555 1_555
H12 C15 1_555 1_555
C16 C8 1_555 1_555
H13 C16 1_555 1_555
C17 H14 1_555 1_555
C18 N5 1_555 1_555
C19 N7 1_555 1_555
H15 C19 1_555 1_555
C20 H16 1_555 1_555
C21 C9 1_555 1_555
H17 C21 1_555 1_555
C22 H18 1_555 1_555
C23 H19 1_555 1_555
C24 C16 1_555 1_555
H20 C24 1_555 1_555
C25 C17 1_555 1_555
H21 C25 1_555 1_555
C26 C5 1_555 1_555
H22 C26 1_555 1_555
C27 C7 1_555 1_555
H23 C27 1_555 1_555
C28 C13 1_555 1_555
H24 C28 1_555 1_555
C29 N6 1_555 1_555
C30 H25 1_555 1_555
C31 N10 1_555 1_555
H26 C31 1_555 1_555
C32 N5 1_555 1_555
H27 C32 1_555 1_555
C33 C11 1_555 1_555
H28 C33 1_555 1_555
C34 N8 1_555 1_555
H29 C34 1_555 1_555
C35 C22 1_555 1_555
H30 C35 1_555 1_555
C36 N9 1_555 1_555
H31 C36 1_555 1_555
C37 C12 1_555 1_555
H32 C37 1_555 1_555
C38 C20 1_555 1_555
H33 C38 1_555 1_555
C39 C27 1_555 1_555
H34 C39 1_555 1_555
C40 C34 1_555 1_555
H35 C40 1_555 1_555
C41 C19 1_555 1_555
H36 C41 1_555 1_555
C42 N8 1_555 1_555
C43 C41 1_555 1_555
H37 C43 1_555 1_555
C44 C6 1_555 1_555
H38 C44 1_555 1_555
N12 Cu4 1_555 1_555
N13 Cu1 1_555 1_555
C45 N12 1_555 1_555
H39 C45 1_555 1_555
C46 N12 1_555 1_555
H40 C46 1_555 1_555
C47 N13 1_555 1_555
H41 C47 1_555 1_555
C48 N2 1_555 1_555
H42 C48 1_555 1_555
C49 N2 1_555 1_555
H43 C49 1_555 1_555
N14 Cu3 1_555 1_555
C50 N13 1_555 1_555
H44 C50 1_555 1_555
C51 C46 1_555 1_555
H45 C51 1_555 1_555
C52 C45 1_555 1_555
H46 C52 1_555 1_555
O67 H47 1_555 1_555
H48 O67 1_555 1_555
O51_2 Cu4 1_555 1_555
Cu4_2 O51 1_555 1_555
O2 Cu1 1_555 1_555
W3 O16 1_555 1_555
W4 O58 1_555 1_555
W5 O48 1_555 1_555
W6 O55 1_555 1_555
W7 O15 1_555 1_555
W7 O23 1_555 1_555
W7 O40 1_555 1_555
W7 O58 1_555 1_555
W8 O52 1_555 1_555
W8 O62 1_555 1_555
W9 O18 1_555 1_555
W9 O29 1_555 1_555
W9 O48 1_555 1_555
W10 O49 1_555 1_555
W11 O33 1_555 1_555
W11 O38 1_555 1_555
W12 O19 1_555 1_555
W12 O27 1_555 1_555
W12 O32 1_555 1_555
W12 O59 1_555 1_555
W13 O30 1_555 1_555
W13 O37 1_555 1_555
W13 O50 1_555 1_555
W13 O56 1_555 1_555
W14 O21 1_555 1_555
W15 O12 1_555 1_555
W15 O22 1_555 1_555
W16 O37 1_555 1_555
W16 O44 1_555 1_555
W17 O12 1_555 1_555
W17 O35 1_555 1_555
W17 O53 1_555 1_555
P2 O37 1_555 1_555
P2 O49 1_555 1_555
P2 O52 1_555 1_555
W18 O36 1_555 1_555
W18 O43 1_555 1_555
W18 O46 1_555 1_555
W18 O55 1_555 1_555
Cu2 O64 1_555 1_555
Cu3 N3 1_555 1_555
N9 C7 1_555 1_555
C6 C18 1_555 1_555
C8 C42 1_555 1_555
C9 N11 1_555 1_555
C10 C29 1_555 1_555
C13 C18 1_555 1_555
C15 C33 1_555 1_555
C17 C26 1_555 1_555
C20 C37 1_555 1_555
C21 C24 1_555 1_555
C22 C42 1_555 1_555
C23 C28 1_555 1_555
C23 C32 1_555 1_555
C25 C31 1_555 1_555
C29 C38 1_555 1_555
C30 C36 1_555 1_555
C30 C39 1_555 1_555
C35 C40 1_555 1_555
C43 C44 1_555 1_555
C47 C48 1_555 1_555
C49 C50 1_555 1_555
N14 C51 1_555 1_555
N14 C52 1_555 1_555

#END
