
#######################################################################
#
#                 Cambridge Crystallographic Data Centre
#                                CCDC 
#
#######################################################################
#
# If this CIF has been generated from an entry in the Cambridge 
# Structural Database, then it will include bibliographic, chemical, 
# crystal, experimental, refinement or atomic coordinate data resulting 
# from the CCDC's data processing and validation procedures.
#
#######################################################################

data_LEYFUS
_symmetry_cell_setting           rhombohedral
_symmetry_space_group_name_H-M   'R 3 c'
_symmetry_Int_Tables_number      161
_space_group_name_Hall           'R 3 -2"c'
loop_
_symmetry_equiv_pos_site_id
_symmetry_equiv_pos_as_xyz
1 x,y,z
2 -y,x-y,z
3 -x+y,-x,z
4 -y,-x,1/2+z
5 -x+y,y,1/2+z
6 x,x-y,1/2+z
7 2/3+x,1/3+y,1/3+z
8 2/3-y,1/3+x-y,1/3+z
9 2/3-x+y,1/3-x,1/3+z
10 2/3-y,1/3-x,5/6+z
11 2/3-x+y,1/3+y,5/6+z
12 2/3+x,1/3+x-y,5/6+z
13 1/3+x,2/3+y,2/3+z
14 1/3-y,2/3+x-y,2/3+z
15 1/3-x+y,2/3-x,2/3+z
16 1/3-y,2/3-x,1/6+z
17 1/3-x+y,2/3+y,1/6+z
18 1/3+x,2/3+x-y,1/6+z
_cell_length_a                   16.6502(4)
_cell_length_b                   16.6502(4)
_cell_length_c                   51.313(2)
_cell_angle_alpha                90
_cell_angle_beta                 90
_cell_angle_gamma                120
_cell_volume                     12319.6
loop_
_atom_site_label
_atom_site_type_symbol
_atom_site_fract_x
_atom_site_fract_y
_atom_site_fract_z
W1 W 0.51816(4) 1.62430(4) 0.173199(13)
W2 W 0.30545(5) 1.44762(4) 0.169100(12)
W3 W 0.25835(5) 1.53290(5) 0.229643(14)
W4 W 0.39798(5) 1.58509(5) 0.118853(15)
Tm1 Tm 0.32229(5) 1.21718(5) 0.168686(14)
O1 O 0.2060(8) 1.4501(10) 0.2535(2)
O2 O 0.4399(7) 1.4949(8) 0.1784(2)
O3 O 0.4202(9) 1.5553(10) 0.0893(3)
O4 O 0.6206(8) 1.6267(9) 0.1767(3)
O5 O 0.2778(8) 1.3322(8) 0.1718(3)
O6 O 0.3778(7) 1.5941(7) 0.1615(2)
O7 O 0.5080(9) 1.6062(9) 0.1354(2)
O8 O 0.2985(8) 1.4795(8) 0.2057(2)
O9 O 0.3216(12) 1.2554(9) 0.1256(3)
O10 O 0.2454(7) 1.3850(8) 0.3119(2)
O11 O 0.4965(8) 1.6543(7) 0.2074(2)
O12 O 0.4422(10) 1.1803(9) 0.1717(4)
O13 O 0.3746(9) 1.2875(8) 0.2079(2)
O14 O 0.2607(15) 1.0972(10) 0.2000(3)
O15 O 0.3344(8) 1.4556(8) 0.1334(2)
O16 O 0.4635(10) 1.3524(9) 0.1614(3)
O17 O 0.1931(8) 1.4397(9) 0.1651(2)
O18 O 0.2260(8) 1.6220(8) 0.2452(2)
O19 O 0.3333 1.6667 0.2068(3)
O20 O 0.4367(9) 1.7100(8) 0.1158(3)
O21 O 0.1632(10) 1.1482(10) 0.1647(4)
O22 O 0.3716(10) 1.5018(11) 0.3272(3)
N1 N 0.5050(10) 1.5099(11) 0.2573(3)
C1 C 0.3793(12) 1.3636(11) 0.2470(3)
C2 C 0.4642(13) 1.4353(13) 0.2412(3)
H1 H 0.4958 1.4329 0.2258
C3 C 0.3793(10) 1.4408(11) 0.2863(3)
C4 C 0.4666(11) 1.5133(13) 0.2803(3)
H2 H 0.4990 1.5642 0.2921
C5 C 0.3361(11) 1.3659(12) 0.2700(4)
H3 H 0.2758 1.3152 0.2743
C6 C 0.3303(11) 1.4452(12) 0.3101(4)
C7 C 0.3329(13) 1.2802(14) 0.2295(4)
O23 O 0.2646(14) 1.2133(12) 0.2372(4)
W1A W 0.37570(4) 1.89386(6) 0.173199(13)
W2A W 0.55238(4) 1.85783(6) 0.169100(12)
W3A W 0.46710(5) 1.72545(7) 0.229643(14)
W4A W 0.41491(5) 1.81289(7) 0.118853(15)
Tm1A Tm 0.78282(5) 2.10511(7) 0.168686(14)
O1A O 0.5499(10) 1.7559(13) 0.2535(2)
O2A O 0.5051(8) 1.9450(11) 0.1784(2)
O3A O 0.4447(10) 1.8649(13) 0.0893(3)
O4A O 0.3733(9) 1.9939(12) 0.1767(3)
O5A O 0.6678(8) 1.9456(11) 0.1718(3)
O6A O 0.4059(7) 1.7837(10) 0.1615(2)
O7A O 0.3938(9) 1.9018(13) 0.1354(2)
O8A O 0.5205(8) 1.8190(11) 0.2057(2)
O9A O 0.7446(9) 2.0662(15) 0.1256(3)
O10A O 0.6150(8) 1.8604(11) 0.3119(2)
O11A O 0.3457(7) 1.8422(11) 0.2074(2)
O12A O 0.8197(9) 2.2619(13) 0.1717(4)
O13A O 0.7125(8) 2.0871(12) 0.2079(2)
O14A O 0.9028(10) 2.1635(18) 0.2000(3)
O15A O 0.5444(8) 1.8788(11) 0.1334(2)
O16A O 0.6476(9) 2.1111(13) 0.1614(3)
O17A O 0.5603(9) 1.7534(12) 0.1651(2)
O18A O 0.3780(8) 1.6040(11) 0.2452(2)
O20A O 0.2900(8) 1.7267(12) 0.1158(3)
O21A O 0.8518(10) 2.0150(14) 0.1647(4)
O22A O 0.4982(11) 1.8698(15) 0.3272(3)
N1A N 0.4901(11) 1.9951(15) 0.2573(3)
C1A C 0.6364(11) 2.0157(16) 0.2470(3)
C2A C 0.5647(13) 2.0289(18) 0.2412(3)
H1A H 0.5671 2.0629 0.2258
C3A C 0.5592(11) 1.9385(15) 0.2863(3)
C4A C 0.4867(13) 1.9533(17) 0.2803(3)
H2A H 0.4358 1.9348 0.2921
C5A C 0.6341(12) 1.9702(16) 0.2700(4)
H3A H 0.6848 1.9606 0.2743
C6A C 0.5548(12) 1.8851(16) 0.3101(4)
C7A C 0.7198(14) 2.0527(19) 0.2295(4)
O23A O 0.7867(12) 2.0513(18) 0.2372(4)
W1B W 0.10614(6) 1.48184(4) 0.173199(13)
W2B W 0.14217(6) 1.69455(5) 0.169100(12)
W3B W 0.27455(7) 1.74165(5) 0.229643(14)
W4B W 0.18711(7) 1.60202(5) 0.118853(15)
Tm1B Tm -0.10511(7) 1.67771(5) 0.168686(14)
O1B O 0.2441(13) 1.7940(8) 0.2535(2)
O2B O 0.0550(11) 1.5601(7) 0.1784(2)
O3B O 0.1351(13) 1.5798(9) 0.0893(3)
O4B O 0.0061(12) 1.3794(8) 0.1767(3)
O5B O 0.0544(11) 1.7222(8) 0.1718(3)
O6B O 0.2163(10) 1.6222(7) 0.1615(2)
O7B O 0.0982(13) 1.4920(9) 0.1354(2)
O8B O 0.1810(11) 1.7015(8) 0.2057(2)
O9B O -0.0662(15) 1.6784(12) 0.1256(3)
O10B O 0.1396(11) 1.7546(7) 0.3119(2)
O11B O 0.1578(11) 1.5035(8) 0.2074(2)
O12B O -0.2619(13) 1.5578(10) 0.1717(4)
O13B O -0.0871(12) 1.6254(9) 0.2079(2)
O14B O -0.1635(18) 1.7393(15) 0.2000(3)
O15B O 0.1212(11) 1.6656(8) 0.1334(2)
O16B O -0.1111(13) 1.5365(10) 0.1614(3)
O17B O 0.2466(12) 1.8069(8) 0.1651(2)
O18B O 0.3960(11) 1.7740(8) 0.2452(2)
O20B O 0.2733(12) 1.5633(9) 0.1158(3)
O21B O -0.0150(14) 1.8368(10) 0.1647(4)
O22B O 0.1302(15) 1.6284(10) 0.3272(3)
N1B N 0.0049(15) 1.4950(10) 0.2573(3)
C1B C -0.0157(16) 1.6207(12) 0.2470(3)
C2B C -0.0289(18) 1.5358(13) 0.2412(3)
H1B H -0.0629 1.5042 0.2258
C3B C 0.0615(15) 1.6207(10) 0.2863(3)
C4B C 0.0467(17) 1.5334(11) 0.2803(3)
H2B H 0.0652 1.5010 0.2921
C5B C 0.0298(16) 1.6639(11) 0.2700(4)
H3B H 0.0394 1.7242 0.2743
C6B C 0.1149(16) 1.6697(11) 0.3101(4)
C7B C -0.0527(19) 1.6671(13) 0.2295(4)
O23B O -0.0513(18) 1.7354(14) 0.2372(4)
Tm1O Tm 0.11615(5) 1.34438(5) 0.335353(14)
Tm1P Tm 0.22822(7) 1.88385(5) 0.335353(14)
Tm1Q Tm 0.65562(5) 1.77178(7) 0.335353(14)
O10I O 0.2817(8) 1.0879(7) 0.1452(2)
O10J O -0.1937(11) 1.7183(8) 0.1452(2)
O10K O 0.9121(7) 2.1937(11) 0.1452(2)
O24 O 0.0637(18) 0.4924(18) -0.1182(5)
O25 O 0.523(3) 1.426(3) 0.1126(6)
N2 N 0.6730(12) 1.6485(12) 0.2419(3)
H4 H 0.6187 1.6187 0.2311
H5 H 0.6767 1.6028 0.2525
H6 H 0.7272 1.6794 0.2312
H7 H 0.6692 1.6930 0.2530
O26 O 0.3333 1.6667 0.2985(6)
O27 O 0.5619(19) 1.243(4) 0.2074(6)
loop_
_geom_bond_atom_site_label_1
_geom_bond_atom_site_label_2
_geom_bond_site_symmetry_1
_geom_bond_site_symmetry_2
W1 O2 1_555 1_555
W2 O2 1_555 1_555
W3 O1 1_555 1_555
W4 O3 1_555 1_555
Tm1 O5 1_555 1_555
O4 W1 1_555 1_555
O5 W2 1_555 1_555
O6 W1 1_555 1_555
O7 W1 1_555 1_555
O8 W2 1_555 1_555
O9 Tm1 1_555 1_555
O10 C6 1_555 1_555
O11 W1 1_555 1_555
O12 Tm1 1_555 1_555
O13 Tm1 1_555 1_555
O14 Tm1 1_555 1_555
O15 W2 1_555 1_555
O16 Tm1 1_555 1_555
O17 W2 1_555 1_555
O18 W3 1_555 1_555
O19 W3 1_555 1_555
O20 W4 1_555 1_555
O21 Tm1 1_555 1_555
O22 C6 1_555 1_555
N1 C2 1_555 1_555
C1 C2 1_555 1_555
C2 H1 1_555 1_555
C3 C4 1_555 1_555
C4 N1 1_555 1_555
H2 C4 1_555 1_555
C5 C1 1_555 1_555
H3 C5 1_555 1_555
C6 C3 1_555 1_555
C7 O13 1_555 1_555
O23 C7 1_555 1_555
N2 H4 1_555 1_555
H5 N2 1_555 1_555
H6 N2 1_555 1_555
H7 N2 1_555 1_555
W1A O2A 1_555 1_555
W2A O2A 1_555 1_555
W3A O11 1_555 1_555
W4A O20 1_555 1_555
Tm1A O5A 1_555 1_555
O1A W3A 1_555 1_555
O3A W4A 1_555 1_555
O4A W1A 1_555 1_555
O5A W2A 1_555 1_555
O6A W1A 1_555 1_555
O7A W1A 1_555 1_555
O8A W2A 1_555 1_555
O9A Tm1A 1_555 1_555
O10A C6A 1_555 1_555
O11A W1A 1_555 1_555
O12A Tm1A 1_555 1_555
O13A Tm1A 1_555 1_555
O14A Tm1A 1_555 1_555
O15A W2A 1_555 1_555
O16A Tm1A 1_555 1_555
O17A W1 1_555 1_555
O18A W3 1_555 1_555
O20A W4A 1_555 1_555
O21A Tm1A 1_555 1_555
O22A C6A 1_555 1_555
N1A C2A 1_555 1_555
C1A C2A 1_555 1_555
C2A H1A 1_555 1_555
C3A C4A 1_555 1_555
C4A N1A 1_555 1_555
H2A C4A 1_555 1_555
C5A C1A 1_555 1_555
H3A C5A 1_555 1_555
C6A C3A 1_555 1_555
C7A O13A 1_555 1_555
O23A C7A 1_555 1_555
W1B O17 1_555 1_555
W2B O2B 1_555 1_555
W3B O18 1_555 1_555
W4B O20A 1_555 1_555
Tm1B O5B 1_555 1_555
O1B W3B 1_555 1_555
O2B W1B 1_555 1_555
O3B W4B 1_555 1_555
O4B W1B 1_555 1_555
O5B W2B 1_555 1_555
O6B W1B 1_555 1_555
O7B W1B 1_555 1_555
O8B W2B 1_555 1_555
O9B Tm1B 1_555 1_555
O10B C6B 1_555 1_555
O11B W3 1_555 1_555
O12B Tm1B 1_555 1_555
O13B Tm1B 1_555 1_555
O14B Tm1B 1_555 1_555
O15B W2B 1_555 1_555
O16B Tm1B 1_555 1_555
O17B W1A 1_555 1_555
O18B W3A 1_555 1_555
O20B W4 1_555 1_555
O21B Tm1B 1_555 1_555
O22B C6B 1_555 1_555
N1B C2B 1_555 1_555
C1B C2B 1_555 1_555
C2B H1B 1_555 1_555
C3B C4B 1_555 1_555
C4B N1B 1_555 1_555
H2B C4B 1_555 1_555
C5B C1B 1_555 1_555
H3B C5B 1_555 1_555
C6B C3B 1_555 1_555
C7B O13B 1_555 1_555
O23B C7B 1_555 1_555
Tm1O O10 1_555 1_555
Tm1P O10B 1_555 1_555
Tm1Q O10A 1_555 1_555
O10I Tm1 1_555 1_555
O10J Tm1B 1_555 1_555
O10K Tm1A 1_555 1_555
W2 O6 1_555 1_555
W3 O8 1_555 1_555
W4 O6 1_555 1_555
W4 O7 1_555 1_555
W4 O15 1_555 1_555
O19 W3A 1_555 1_555
O19 W3B 1_555 1_555
C1 C7 1_555 1_555
C3 C5 1_555 1_555
W2A O6A 1_555 1_555
W2A O17A 1_555 1_555
W3A O8A 1_555 1_555
W3A O18A 1_555 1_555
W4A O6A 1_555 1_555
W4A O7A 1_555 1_555
W4A O15A 1_555 1_555
O11A W3B 1_555 1_555
C1A C7A 1_555 1_555
C3A C5A 1_555 1_555
W1B O11B 1_555 1_555
W2B O6B 1_555 1_555
W2B O17B 1_555 1_555
W3B O8B 1_555 1_555
W3B O18B 1_555 1_555
W4B O6B 1_555 1_555
W4B O7B 1_555 1_555
W4B O15B 1_555 1_555
W4B O20B 1_555 1_555
C1B C7B 1_555 1_555
C3B C5B 1_555 1_555

#END
