
#######################################################################
#
#                 Cambridge Crystallographic Data Centre
#                                CCDC 
#
#######################################################################
#
# If this CIF has been generated from an entry in the Cambridge 
# Structural Database, then it will include bibliographic, chemical, 
# crystal, experimental, refinement or atomic coordinate data resulting 
# from the CCDC's data processing and validation procedures.
#
#######################################################################

data_LEYGIH
_symmetry_cell_setting           monoclinic
_symmetry_space_group_name_H-M   'P 21/c'
_symmetry_Int_Tables_number      14
_space_group_name_Hall           '-P 2ybc'
loop_
_symmetry_equiv_pos_site_id
_symmetry_equiv_pos_as_xyz
1 x,y,z
2 -x,1/2+y,1/2-z
3 -x,-y,-z
4 x,1/2-y,1/2+z
_cell_length_a                   13.686(2)
_cell_length_b                   12.346(2)
_cell_length_c                   16.492(3)
_cell_angle_alpha                90
_cell_angle_beta                 98.346(5)
_cell_angle_gamma                90
_cell_volume                     2757.1
loop_
_atom_site_label
_atom_site_type_symbol
_atom_site_fract_x
_atom_site_fract_y
_atom_site_fract_z
Zn1 Zn 0.97956(5) 0.38737(6) 0.04225(4)
S1 S 0.09242(10) 0.75443(13) 0.12093(9)
S2 S 1.03690(12) 0.15701(14) 0.12311(10)
O1 O 0.9080(3) 0.5140(3) -0.0335(2)
O2 O 0.0833(3) 0.6885(4) 0.1918(3)
O3 O 0.0235(3) 0.7209(4) 0.0474(3)
O4 O 0.0837(3) 0.8698(4) 0.1334(3)
O5 O 1.0489(3) 0.2809(4) 0.1259(2)
N1 N 0.8558(3) 0.4103(4) 0.0950(3)
N2 N 0.5424(3) 0.6028(4) 0.0622(3)
N3 N 0.4913(4) 0.6769(5) 0.0254(3)
C1 C 0.8300(5) 0.3590(5) 0.1594(4)
H1 H 0.8751 0.3100 0.1880
C2 C 0.7392(5) 0.3746(6) 0.1866(4)
H2 H 0.7234 0.3348 0.2315
C3 C 0.6731(4) 0.4477(6) 0.1478(4)
H3 H 0.6121 0.4586 0.1664
C4 C 0.6965(4) 0.5064(5) 0.0803(3)
C5 C 0.7901(4) 0.4858(5) 0.0554(3)
C6 C 0.8217(4) 0.5410(5) -0.0125(4)
C7 C 0.7576(4) 0.6166(5) -0.0537(4)
H4 H 0.7764 0.6546 -0.0984
C8 C 0.6662(4) 0.6369(5) -0.0298(4)
H5 H 0.6243 0.6882 -0.0592
C9 C 0.6350(4) 0.5846(5) 0.0351(4)
C10 C 0.3979(4) 0.6922(5) 0.0531(4)
C11 C 0.3645(4) 0.6316(5) 0.1140(4)
H6 H 0.4045 0.5765 0.1404
C12 C 0.2721(4) 0.6514(5) 0.1363(4)
H7 H 0.2503 0.6111 0.1786
C13 C 0.2124(4) 0.7307(5) 0.0959(3)
C14 C 0.2442(4) 0.7914(5) 0.0337(4)
H8 H 0.2034 0.8452 0.0064
C15 C 0.3379(5) 0.7715(6) 0.0123(4)
H9 H 0.3601 0.8118 -0.0297
C16 C 1.1190(6) 0.1088(6) 0.0569(4)
H10 H 1.0971 0.1341 0.0016
H11 H 1.1197 0.0303 0.0576
H12 H 1.1850 0.1358 0.0755
C17 C 1.1034(5) 0.1125(6) 0.2171(4)
H13 H 1.1712 0.1372 0.2214
H14 H 1.1021 0.0340 0.2192
H15 H 1.0733 0.1420 0.2621
Zn1B Zn 0.02044(5) 0.61263(6) -0.04225(4)
Zn1B_2 Zn 1.02044(5) 0.61263(6) -0.04225(4)
O1B O 1.0920(3) 0.4860(3) 0.0335(2)
O3B O 0.9765(3) 0.2791(4) -0.0474(3)
S3 S 0.7758(3) 0.9620(3) 0.1347(3)
O6 O 0.6934(10) 1.0264(12) 0.1436(9)
C18 C 0.7433(15) 0.8250(16) 0.1204(12)
H16 H 0.7330 0.7935 0.1724
H17 H 0.7960 0.7865 0.0993
H18 H 0.6830 0.8192 0.0817
C19 C 0.8662(10) 0.9455(13) 0.2233(8)
H19 H 0.8861 1.0161 0.2458
H20 H 0.9232 0.9081 0.2083
H21 H 0.8383 0.9034 0.2641
S5 S 0.4313(5) 0.0984(9) 0.1834(7)
O8 O 0.3358(10) 0.1578(17) 0.1699(12)
C22 C 0.446(2) 0.054(2) 0.0858(18)
H28 H 0.3859 0.0175 0.0612
H29 H 0.5010 0.0045 0.0894
H30 H 0.4579 0.1159 0.0523
C23 C 0.5330(15) 0.1908(19) 0.1836(15)
H31 H 0.5281 0.2263 0.1307
H32 H 0.5947 0.1512 0.1941
H33 H 0.5309 0.2449 0.2260
S4? S 0.7316(10) 0.9453(11) 0.1828(9)
O7? O 0.682(2) 1.047(2) 0.182(2)
C20? C 0.704(2) 0.816(2) 0.1460(19)
H22? H 0.6608 0.7807 0.1795
H23? H 0.7646 0.7746 0.1480
H24? H 0.6714 0.8202 0.0898
C21? C 0.854(3) 0.937(4) 0.196(3)
H25? H 0.8819 1.0097 0.1964
H26? H 0.8749 0.8962 0.1511
H27? H 0.8773 0.9015 0.2473
S6? S 0.4260(4) 0.1248(8) 0.2047(7)
O9? O 0.3374(9) 0.1939(15) 0.1917(10)
C24? C 0.427(2) 0.040(2) 0.118(2)
H34? H 0.3628 0.0074 0.1024
H35? H 0.4763 -0.0168 0.1307
H36? H 0.4441 0.0826 0.0721
C25? C 0.5179(19) 0.215(2) 0.1977(16)
H37? H 0.5175 0.2349 0.1409
H38? H 0.5809 0.1819 0.2188
H39? H 0.5080 0.2787 0.2297
loop_
_geom_bond_atom_site_label_1
_geom_bond_atom_site_label_2
_geom_bond_site_symmetry_1
_geom_bond_site_symmetry_2
Zn1 O1 1_555 1_555
S1 O2 1_555 1_555
S2 O5 1_555 1_555
O1 C6 1_555 1_555
O3 S1 1_555 1_555
O4 S1 1_555 1_555
O5 Zn1 1_555 1_555
N1 Zn1 1_555 1_555
N2 N3 1_555 1_555
N3 C10 1_555 1_555
C1 N1 1_555 1_555
H1 C1 1_555 1_555
C2 C1 1_555 1_555
H2 C2 1_555 1_555
C3 C2 1_555 1_555
H3 C3 1_555 1_555
C4 C3 1_555 1_555
C5 N1 1_555 1_555
C6 C5 1_555 1_555
C7 C6 1_555 1_555
H4 C7 1_555 1_555
C8 C7 1_555 1_555
H5 C8 1_555 1_555
C9 N2 1_555 1_555
C10 C11 1_555 1_555
C11 H6 1_555 1_555
C12 C11 1_555 1_555
H7 C12 1_555 1_555
C13 S1 1_555 1_555
C14 C13 1_555 1_555
H8 C14 1_555 1_555
C15 C10 1_555 1_555
H9 C15 1_555 1_555
C16 S2 1_555 1_555
H10 C16 1_555 1_555
H11 C16 1_555 1_555
H12 C16 1_555 1_555
C17 S2 1_555 1_555
H13 C17 1_555 1_555
H14 C17 1_555 1_555
H15 C17 1_555 1_555
S3 O6 1_555 1_555
C18 S3 1_555 1_555
H16 C18 1_555 1_555
H17 C18 1_555 1_555
H18 C18 1_555 1_555
C19 S3 1_555 1_555
H19 C19 1_555 1_555
H20 C19 1_555 1_555
H21 C19 1_555 1_555
S5 O8 1_555 1_555
C22 S5 1_555 1_555
H28 C22 1_555 1_555
H29 C22 1_555 1_555
H30 C22 1_555 1_555
C23 S5 1_555 1_555
H31 C23 1_555 1_555
H32 C23 1_555 1_555
H33 C23 1_555 1_555
Zn1B O3 1_555 1_555
Zn1B_2 O1 1_555 1_555
O1B Zn1 1_555 1_555
O3B Zn1 1_555 1_555
C4 C5 1_555 1_555
C4 C9 1_555 1_555
C8 C9 1_555 1_555
C12 C13 1_555 1_555
C14 C15 1_555 1_555
Zn1B_2 O1B 1_555 1_555

#END
