
#######################################################################
#
#                 Cambridge Crystallographic Data Centre
#                                CCDC 
#
#######################################################################
#
# If this CIF has been generated from an entry in the Cambridge 
# Structural Database, then it will include bibliographic, chemical, 
# crystal, experimental, refinement or atomic coordinate data resulting 
# from the CCDC's data processing and validation procedures.
#
#######################################################################

data_LEYJUW
_symmetry_cell_setting           orthorhombic
_symmetry_space_group_name_H-M   'P 21 21 21'
_symmetry_Int_Tables_number      19
_space_group_name_Hall           'P 2ac 2ab'
loop_
_symmetry_equiv_pos_site_id
_symmetry_equiv_pos_as_xyz
1 x,y,z
2 1/2-x,-y,1/2+z
3 -x,1/2+y,1/2-z
4 1/2+x,1/2-y,-z
_cell_length_a                   11.870(6)
_cell_length_b                   14.995(8)
_cell_length_c                   17.229(9)
_cell_angle_alpha                90
_cell_angle_beta                 90
_cell_angle_gamma                90
_cell_volume                     3066.6
loop_
_atom_site_label
_atom_site_type_symbol
_atom_site_fract_x
_atom_site_fract_y
_atom_site_fract_z
C1 C 0.8621(17) -0.0866(13) 0.2654(9)
Gd1 Gd 0.76429(9) 0.04804(6) 0.12722(4)
Cu1 Cu 0.8975(2) 0.09871(16) 0.29865(11)
O1 O 0.7790(16) 0.0633(9) -0.0161(6)
O2 O 0.5920(16) 0.0735(11) 0.2042(8)
O3 O 0.7236(14) -0.0667(11) 0.0215(7)
O4 O 0.5668(14) 0.0542(15) 0.0827(8)
O5 O 0.8530(13) -0.0008(8) 0.2389(7)
N1 N 0.524(2) 0.0722(14) 0.1482(13)
N2 N 0.7506(17) -0.0147(12) -0.0336(8)
O6 O 0.7524(14) -0.0412(10) -0.1019(6)
O7 O 0.9496(15) 0.1081(9) 0.0951(7)
O8 O 0.9379(16) -0.0327(9) 0.0859(7)
O9 O 0.7192(13) -0.1098(8) 0.1766(6)
N3 N 1.0056(13) 0.0359(11) 0.3607(8)
C2 C 1.0069(16) -0.0503(14) 0.3671(9)
H1 H 1.0589 -0.0743 0.4017
O10 O 0.7116(14) 0.2129(10) 0.1009(6)
C3 C 0.739(2) 0.2813(12) 0.1562(9)
C4 C 0.9359(19) -0.1132(13) 0.3261(10)
N4 N 0.9360(15) 0.2018(10) 0.3571(7)
C5 C 0.7949(18) 0.2466(12) 0.2204(10)
O11 O 0.8112(15) 0.1574(10) 0.2221(6)
O12 O 1.0954(18) 0.0357(13) 0.0588(12)
N5 N 1.001(2) 0.0385(15) 0.0784(10)
C6 C 1.0761(18) 0.0952(14) 0.4021(10)
H2 H 1.1315 0.1172 0.3645
C7 C 0.9423(19) -0.2040(13) 0.3437(10)
H3 H 0.9945 -0.2237 0.3802
C8 C 1.216(2) 0.1333(12) 0.5047(12)
H4 H 1.2735 0.1506 0.4673
H5 H 1.2541 0.1101 0.5504
C9 C 0.740(2) 0.4251(12) 0.2100(10)
H6 H 0.7201 0.4849 0.2072
C10 C 0.7995(19) 0.3955(13) 0.2713(10)
H7 H 0.8190 0.4358 0.3101
C11 C 1.1426(17) 0.0633(13) 0.4708(10)
H8 H 1.0908 0.0425 0.5104
H9 H 1.1888 0.0131 0.4551
C12 C 1.142(2) 0.2180(15) 0.5277(11)
H10 H 1.0902 0.2016 0.5688
H11 H 1.1910 0.2647 0.5474
C13 C 0.9008(17) 0.2822(13) 0.3443(9)
H12 H 0.9207 0.3266 0.3794
C14 C 0.8331(18) 0.3062(14) 0.2790(10)
C15 C 0.7918(19) -0.1471(14) 0.2315(9)
C16 C 1.0066(16) 0.1770(12) 0.4271(9)
H13 H 0.9550 0.1577 0.4682
C17 C 0.684(2) 0.2451(15) 0.0242(11)
H14 H 0.6290 0.2928 0.0280
H15 H 0.6510 0.1972 -0.0061
C18 C 0.616(2) -0.1590(14) 0.1602(11)
H16 H 0.6360 -0.2197 0.1461
H17 H 0.5789 -0.1320 0.1161
C19 C 0.8731(18) -0.2643(13) 0.3082(10)
H18 H 0.8768 -0.3241 0.3222
C20 C 0.798(2) -0.2375(13) 0.2519(10)
H19 H 0.7515 -0.2790 0.2276
C21 C 1.0768(19) 0.2528(13) 0.4594(11)
H20 H 1.1281 0.2748 0.4200
H21 H 1.0283 0.3014 0.4755
O13 O 0.4275(18) 0.0873(17) 0.1564(11)
C22 C 0.7089(19) 0.3677(13) 0.1509(9)
H22 H 0.6677 0.3883 0.1085
C23 C 0.536(2) -0.1613(18) 0.2278(13)
H23 H 0.5706 -0.1927 0.2702
H24 H 0.4683 -0.1912 0.2127
H25 H 0.5191 -0.1014 0.2435
C24 C 0.795(3) 0.2811(19) -0.0183(13)
H26 H 0.8234 0.3323 0.0090
H27 H 0.7775 0.2974 -0.0707
H28 H 0.8516 0.2351 -0.0184
Cu1A Cu 0.6025(2) -0.09871(16) -0.20135(11)
O6A O 0.7476(14) 0.0412(10) 0.3981(6)
O14 O 0.401(2) 0.1143(14) 0.3290(11)
H29 H 0.4084 0.0919 0.2858
C25 C 0.484(2) 0.080(2) 0.3795(16)
H30 H 0.5340 0.1266 0.3950
H31 H 0.5256 0.0339 0.3533
H32 H 0.4480 0.0549 0.4246
loop_
_geom_bond_atom_site_label_1
_geom_bond_atom_site_label_2
_geom_bond_site_symmetry_1
_geom_bond_site_symmetry_2
C1 O5 1_555 1_555
Gd1 O1 1_555 1_555
Cu1 O5 1_555 1_555
O1 N2 1_555 1_555
O2 Gd1 1_555 1_555
O3 Gd1 1_555 1_555
O4 Gd1 1_555 1_555
O5 Gd1 1_555 1_555
N1 O2 1_555 1_555
N2 O3 1_555 1_555
O6 N2 1_555 1_555
O7 Gd1 1_555 1_555
O8 Gd1 1_555 1_555
O9 Gd1 1_555 1_555
N3 Cu1 1_555 1_555
C2 N3 1_555 1_555
H1 C2 1_555 1_555
O10 Gd1 1_555 1_555
C3 O10 1_555 1_555
C4 C1 1_555 1_555
N4 Cu1 1_555 1_555
C5 C3 1_555 1_555
O11 Gd1 1_555 1_555
O12 N5 1_555 1_555
N5 O7 1_555 1_555
C6 N3 1_555 1_555
H2 C6 1_555 1_555
C7 C4 1_555 1_555
H3 C7 1_555 1_555
C8 H4 1_555 1_555
H5 C8 1_555 1_555
C9 H6 1_555 1_555
C10 C9 1_555 1_555
H7 C10 1_555 1_555
C11 C6 1_555 1_555
H8 C11 1_555 1_555
H9 C11 1_555 1_555
C12 C8 1_555 1_555
H10 C12 1_555 1_555
H11 C12 1_555 1_555
C13 N4 1_555 1_555
H12 C13 1_555 1_555
C14 C5 1_555 1_555
C15 C1 1_555 1_555
C16 N4 1_555 1_555
H13 C16 1_555 1_555
C17 O10 1_555 1_555
H14 C17 1_555 1_555
H15 C17 1_555 1_555
C18 O9 1_555 1_555
H16 C18 1_555 1_555
H17 C18 1_555 1_555
C19 C7 1_555 1_555
H18 C19 1_555 1_555
C20 C15 1_555 1_555
H19 C20 1_555 1_555
C21 C12 1_555 1_555
H20 C21 1_555 1_555
H21 C21 1_555 1_555
O13 N1 1_555 1_555
C22 C3 1_555 1_555
H22 C22 1_555 1_555
C23 C18 1_555 1_555
H23 C23 1_555 1_555
H24 C23 1_555 1_555
H25 C23 1_555 1_555
C24 C17 1_555 1_555
H26 C24 1_555 1_555
H27 C24 1_555 1_555
H28 C24 1_555 1_555
O14 H29 1_555 1_555
C25 O14 1_555 1_555
H30 C25 1_555 1_555
H31 C25 1_555 1_555
H32 C25 1_555 1_555
Cu1A O6 1_555 1_555
O6A Cu1 1_555 1_555
Cu1 O11 1_555 1_555
O4 N1 1_555 1_555
O8 N5 1_555 1_555
O9 C15 1_555 1_555
C2 C4 1_555 1_555
C5 O11 1_555 1_555
C6 C16 1_555 1_555
C8 C11 1_555 1_555
C9 C22 1_555 1_555
C10 C14 1_555 1_555
C13 C14 1_555 1_555
C16 C21 1_555 1_555
C19 C20 1_555 1_555

#END
