
#######################################################################
#
#                 Cambridge Crystallographic Data Centre
#                                CCDC 
#
#######################################################################
#
# If this CIF has been generated from an entry in the Cambridge 
# Structural Database, then it will include bibliographic, chemical, 
# crystal, experimental, refinement or atomic coordinate data resulting 
# from the CCDC's data processing and validation procedures.
#
#######################################################################

data_LEYKUW
_symmetry_cell_setting           monoclinic
_symmetry_space_group_name_H-M   'P 21/c'
_symmetry_Int_Tables_number      14
_space_group_name_Hall           '-P 2ybc'
loop_
_symmetry_equiv_pos_site_id
_symmetry_equiv_pos_as_xyz
1 x,y,z
2 -x,1/2+y,1/2-z
3 -x,-y,-z
4 x,1/2-y,1/2+z
_cell_length_a                   13.7851(8)
_cell_length_b                   24.3086(15)
_cell_length_c                   15.2147(8)
_cell_angle_alpha                90
_cell_angle_beta                 102.152(3)
_cell_angle_gamma                90
_cell_volume                     4984.15
loop_
_atom_site_label
_atom_site_type_symbol
_atom_site_fract_x
_atom_site_fract_y
_atom_site_fract_z
C1 C -0.2117(11) 0.1942(6) 0.5729(10)
H1 H -0.2311 0.1599 0.5902
C2 C -0.2767(12) 0.2298(6) 0.5245(10)
H2 H -0.3426 0.2191 0.5055
C3 C -0.2488(12) 0.2807(6) 0.5026(10)
H3 H -0.2943 0.3058 0.4714
C4 C 0.1329(6) 0.1463(3) 0.6447(5)
C5 C 0.0753(6) 0.1030(3) 0.6648(5)
H4 H 0.0445 0.1057 0.7134
C6 C 0.0639(6) 0.0558(3) 0.6121(6)
H5 H 0.0254 0.0268 0.6255
C7 C 0.1100(6) 0.0519(3) 0.5394(5)
H6 H 0.1023 0.0203 0.5042
C8 C 0.1675(6) 0.0952(3) 0.5193(4)
H7 H 0.1983 0.0925 0.4707
C9 C 0.1790(6) 0.1424(3) 0.5720(5)
H8 H 0.2175 0.1714 0.5586
C10 C 0.0736(8) 0.3530(4) 0.4177(7)
C11 C -0.0185(9) 0.3462(5) 0.3633(8)
H9 H -0.0432 0.311 0.3484
C12 C -0.0725(11) 0.3905(5) 0.3318(9)
H10 H -0.1364 0.3865 0.2973
C13 C -0.0313(11) 0.4432(6) 0.3516(9)
H11 H -0.0682 0.4735 0.3266
C14 C 0.0548(10) 0.4519(6) 0.4023(9)
H12 H 0.0802 0.487 0.4162
C15 C 0.1076(10) 0.4032(5) 0.4355(9)
H13 H 0.1703 0.4072 0.4721
C16 C -0.0081(6) 0.3805(3) 0.7539(4)
C17 C 0.0150(5) 0.3394(3) 0.8184(5)
H14 H 0.0628 0.3132 0.8138
C18 C -0.0334(6) 0.3374(3) 0.8898(5)
H15 H -0.0179 0.3099 0.933
C19 C -0.1048(6) 0.3766(3) 0.8967(5)
H16 H -0.1372 0.3753 0.9445
C20 C -0.1280(6) 0.4177(3) 0.8322(6)
H17 H -0.1758 0.4439 0.8368
C21 C -0.0796(6) 0.4197(3) 0.7608(5)
H18 H -0.0951 0.4472 0.7176
C22 C 0.4378(5) 0.3631(3) 0.9080(5)
C23 C 0.5144(6) 0.3558(3) 0.8624(5)
H19 H 0.5051 0.3333 0.8119
C24 C 0.6047(5) 0.3823(4) 0.8923(6)
H20 H 0.6559 0.3774 0.8618
C25 C 0.6185(5) 0.4159(3) 0.9678(6)
H21 H 0.679 0.4336 0.9878
C26 C 0.5420(7) 0.4232(3) 1.0133(5)
H22 H 0.5512 0.4457 1.0638
C27 C 0.4516(6) 0.3968(3) 0.9834(5)
H23 H 0.4004 0.4016 1.0139
C28 C 0.3260(7) 0.4726(3) 0.5562(5)
C29 C 0.3745(6) 0.4833(4) 0.4867(6)
H24 H 0.423 0.4593 0.4756
C30 C 0.3505(7) 0.5300(4) 0.4337(5)
H25 H 0.3829 0.5371 0.3872
C31 C 0.2780(8) 0.5659(4) 0.4503(7)
H26 H 0.2619 0.5971 0.4149
C32 C 0.2295(7) 0.5552(4) 0.5199(7)
H27 H 0.181 0.5792 0.531
C33 C 0.2535(7) 0.5085(4) 0.5728(6)
H28 H 0.2211 0.5014 0.6194
C34 C 0.5482(5) 0.2500(4) 0.6763(6)
C35 C 0.6035(7) 0.2063(3) 0.7198(6)
H29 H 0.5738 0.1721 0.7222
C36 C 0.7030(7) 0.2137(4) 0.7596(6)
H30 H 0.7399 0.1845 0.7887
C37 C 0.7473(5) 0.2648(5) 0.7560(7)
H31 H 0.8139 0.2698 0.7827
C38 C 0.6920(7) 0.3085(4) 0.7126(7)
H32 H 0.7217 0.3427 0.7102
C39 C 0.5925(7) 0.3011(3) 0.6727(6)
H33 H 0.5556 0.3303 0.6437
C40 C 0.4325(8) 0.1124(4) 0.8372(6)
C41 C 0.3388(7) 0.0932(5) 0.7965(8)
H34 H 0.2825 0.1105 0.8078
C42 C 0.3293(8) 0.0483(5) 0.7388(8)
H35 H 0.2666 0.0355 0.7116
C43 C 0.4135(12) 0.0225(4) 0.7219(7)
H36 H 0.4071 -0.0076 0.6833
C44 C 0.5072(9) 0.0416(4) 0.7626(8)
H37 H 0.5635 0.0244 0.7513
C45 C 0.5167(6) 0.0866(4) 0.8202(7)
H38 H 0.5794 0.0994 0.8475
Se1 Se 0.44527(9) 0.18086(5) 0.90392(7)
Br1 Br 0.24121(12) 0.49713(6) 0.83099(9)
C46 C -0.1161(11) 0.2116(6) 0.5947(9)
H39 H -0.0689 0.1877 0.6267
C47 C -0.1498(10) 0.2931(6) 0.5291(9)
H40 H -0.1278 0.3273 0.514
N1 N -0.0867(7) 0.2595(4) 0.5737(6)
Se2 Se 0.14824(9) 0.20776(5) 0.72650(7)
Se3 Se 0.14824(8) 0.28821(5) 0.46358(7)
Se4 Se 0.05614(9) 0.38799(5) 0.65417(7)
Se5 Se 0.30800(9) 0.33012(5) 0.86687(8)
Se6 Se 0.36948(9) 0.40953(5) 0.63382(8)
Se7 Se 0.40736(9) 0.23574(5) 0.62615(8)
Hg1 Hg 0.09032(4) 0.286642(19) 0.61735(3)
Hg2 Hg 0.33957(4) 0.24424(2) 0.77261(3)
Hg3 Hg 0.24171(4) 0.40561(2) 0.74307(3)
Hg4 Hg 0.33271(4) 0.32456(2) 0.52515(3)
Se1C Se 0.44527(9) 0.31914(5) 0.40392(7)
Hg4C Hg 0.33271(4) 0.17544(2) 1.02515(3)
loop_
_geom_bond_atom_site_label_1
_geom_bond_atom_site_label_2
_geom_bond_site_symmetry_1
_geom_bond_site_symmetry_2
C1 H1 1_555 1_555
C2 C1 1_555 1_555
H2 C2 1_555 1_555
C3 C2 1_555 1_555
H3 C3 1_555 1_555
C4 C5 1_555 1_555
C5 H4 1_555 1_555
C6 C5 1_555 1_555
H5 C6 1_555 1_555
C7 C6 1_555 1_555
H6 C7 1_555 1_555
C8 C7 1_555 1_555
H7 C8 1_555 1_555
C9 C4 1_555 1_555
H8 C9 1_555 1_555
C10 C11 1_555 1_555
C11 H9 1_555 1_555
C12 C11 1_555 1_555
H10 C12 1_555 1_555
C13 C12 1_555 1_555
H11 C13 1_555 1_555
C14 C13 1_555 1_555
H12 C14 1_555 1_555
C15 C10 1_555 1_555
H13 C15 1_555 1_555
C16 C17 1_555 1_555
C17 H14 1_555 1_555
C18 C17 1_555 1_555
H15 C18 1_555 1_555
C19 C18 1_555 1_555
H16 C19 1_555 1_555
C20 C19 1_555 1_555
H17 C20 1_555 1_555
C21 C16 1_555 1_555
H18 C21 1_555 1_555
C22 C23 1_555 1_555
C23 H19 1_555 1_555
C24 C23 1_555 1_555
H20 C24 1_555 1_555
C25 C24 1_555 1_555
H21 C25 1_555 1_555
C26 C25 1_555 1_555
H22 C26 1_555 1_555
C27 C22 1_555 1_555
H23 C27 1_555 1_555
C28 C29 1_555 1_555
C29 H24 1_555 1_555
C30 C29 1_555 1_555
H25 C30 1_555 1_555
C31 C30 1_555 1_555
H26 C31 1_555 1_555
C32 C31 1_555 1_555
H27 C32 1_555 1_555
C33 C28 1_555 1_555
H28 C33 1_555 1_555
C34 C35 1_555 1_555
C35 H29 1_555 1_555
C36 C35 1_555 1_555
H30 C36 1_555 1_555
C37 C36 1_555 1_555
H31 C37 1_555 1_555
C38 C37 1_555 1_555
H32 C38 1_555 1_555
C39 C34 1_555 1_555
H33 C39 1_555 1_555
C40 C41 1_555 1_555
C41 H34 1_555 1_555
C42 C41 1_555 1_555
H35 C42 1_555 1_555
C43 C42 1_555 1_555
H36 C43 1_555 1_555
C44 C43 1_555 1_555
H37 C44 1_555 1_555
C45 C40 1_555 1_555
H38 C45 1_555 1_555
Se1 C40 1_555 1_555
Br1 Hg3 1_555 1_555
C46 C1 1_555 1_555
H39 C46 1_555 1_555
C47 C3 1_555 1_555
H40 C47 1_555 1_555
N1 C46 1_555 1_555
Se2 C4 1_555 1_555
Se3 C10 1_555 1_555
Se4 C16 1_555 1_555
Se5 C22 1_555 1_555
Se6 C28 1_555 1_555
Se7 C34 1_555 1_555
Hg1 N1 1_555 1_555
Hg2 Se1 1_555 1_555
Hg3 Se4 1_555 1_555
Hg4 Se3 1_555 1_555
Se1C Hg4 1_555 1_555
Hg4C Se1 1_555 1_555
C8 C9 1_555 1_555
C14 C15 1_555 1_555
C20 C21 1_555 1_555
C26 C27 1_555 1_555
C32 C33 1_555 1_555
C38 C39 1_555 1_555
C44 C45 1_555 1_555
C47 N1 1_555 1_555
Se2 Hg1 1_555 1_555
Se2 Hg2 1_555 1_555
Se3 Hg1 1_555 1_555
Se4 Hg1 1_555 1_555
Se5 Hg2 1_555 1_555
Se5 Hg3 1_555 1_555
Se6 Hg3 1_555 1_555
Se6 Hg4 1_555 1_555
Se7 Hg2 1_555 1_555
Se7 Hg4 1_555 1_555

#END
