
#######################################################################
#
#                 Cambridge Crystallographic Data Centre
#                                CCDC 
#
#######################################################################
#
# If this CIF has been generated from an entry in the Cambridge 
# Structural Database, then it will include bibliographic, chemical, 
# crystal, experimental, refinement or atomic coordinate data resulting 
# from the CCDC's data processing and validation procedures.
#
#######################################################################

data_LEYKAD
_symmetry_cell_setting           orthorhombic
_symmetry_space_group_name_H-M   'P 21 21 21'
_symmetry_Int_Tables_number      19
_space_group_name_Hall           'P 2ac 2ab'
loop_
_symmetry_equiv_pos_site_id
_symmetry_equiv_pos_as_xyz
1 x,y,z
2 1/2-x,-y,1/2+z
3 -x,1/2+y,1/2-z
4 1/2+x,1/2-y,-z
_cell_length_a                   11.800(4)
_cell_length_b                   14.935(5)
_cell_length_c                   17.186(6)
_cell_angle_alpha                90
_cell_angle_beta                 90
_cell_angle_gamma                90
_cell_volume                     3028.74
loop_
_atom_site_label
_atom_site_type_symbol
_atom_site_fract_x
_atom_site_fract_y
_atom_site_fract_z
C1 C 0.5384(11) 0.6602(11) 0.2284(8)
H1 H 0.5386 0.6022 0.2525
H2 H 0.4630 0.6745 0.2115
H3 H 0.5637 0.7043 0.2651
C2 C 0.6155(10) 0.6594(8) 0.1605(7)
H4 H 0.5775 0.6313 0.1168
H5 H 0.6333 0.7206 0.1459
C3 C 0.7913(8) 0.6481(7) 0.2306(5)
C4 C 0.7964(9) 0.7349(8) 0.2509(6)
H6 H 0.7484 0.7760 0.2271
C5 C 0.8729(9) 0.7637(8) 0.3071(6)
H7 H 0.8780 0.8243 0.3194
C6 C 0.9398(10) 0.7040(7) 0.3437(6)
H8 H 0.9895 0.7241 0.3819
C7 C 0.9368(8) 0.6108(7) 0.3259(5)
C8 C 0.8616(9) 0.5832(6) 0.2659(6)
C9 C 1.0073(8) 0.5506(8) 0.3676(6)
H9 H 1.0602 0.5745 0.4019
C10 C 1.0779(8) 0.4030(7) 0.4026(5)
H10 H 1.1334 0.3814 0.3645
C11 C 1.1443(9) 0.4380(8) 0.4711(6)
H11 H 1.1927 0.4869 0.4546
H12 H 1.0927 0.4605 0.5104
C12 C 1.2147(10) 0.3644(9) 0.5042(7)
H13 H 1.2712 0.3470 0.4661
H14 H 1.2544 0.3867 0.5497
C13 C 1.1478(11) 0.2837(8) 0.5268(6)
H15 H 1.0983 0.2989 0.5699
H16 H 1.1991 0.2371 0.5443
C14 C 1.0769(10) 0.2484(8) 0.4599(6)
H17 H 1.1263 0.2241 0.4200
H18 H 1.0282 0.2005 0.4783
C15 C 1.0055(9) 0.3223(7) 0.4259(6)
H19 H 0.9532 0.3423 0.4667
C16 C 0.9014(9) 0.2201(7) 0.3422(6)
H20 H 0.9229 0.1750 0.3766
C17 C 0.8314(8) 0.1934(7) 0.2772(5)
C18 C 0.8020(9) 0.1049(7) 0.2704(6)
H21 H 0.8245 0.0651 0.3090
C19 C 0.7407(10) 0.0733(7) 0.2090(6)
H22 H 0.7204 0.0132 0.2062
C20 C 0.7094(9) 0.1329(8) 0.1508(6)
H23 H 0.6686 0.1126 0.1080
C21 C 0.7379(9) 0.2191(7) 0.1562(6)
C22 C 0.7953(8) 0.2535(6) 0.2221(5)
C23 C 0.6859(12) 0.2537(8) 0.0226(7)
H24 H 0.6553 0.3031 -0.0074
H25 H 0.6286 0.2072 0.0253
C24 C 0.7911(15) 0.2173(11) -0.0175(8)
H26 H 0.8486 0.2627 -0.0186
H27 H 0.7725 0.2001 -0.0698
H28 H 0.8186 0.1661 0.0105
Cu1 Cu 0.89759(11) 0.40132(8) 0.29842(7)
Gd1 Gd 0.76513(4) 0.45202(3) 0.12680(2)
N1 N 1.0025(6) 0.4664(5) 0.3609(4)
N2 N 0.9366(7) 0.2983(5) 0.3574(4)
N3 N 0.7500(7) 0.5160(7) -0.0332(5)
N4 N 0.9986(8) 0.4629(7) 0.0793(6)
N5 N 0.5237(8) 0.4270(7) 0.1482(7)
O1 O 0.7200(7) 0.6116(5) 0.1769(4)
O2 O 0.7131(7) 0.2844(5) 0.1009(4)
O3 O 0.8542(7) 0.5021(4) 0.2387(4)
O4 O 0.8126(7) 0.3414(5) 0.2215(4)
O5 O 0.5664(7) 0.4439(8) 0.0821(5)
O6 O 0.5930(8) 0.4265(7) 0.2037(5)
O7 O 0.4264(9) 0.4135(11) 0.1567(8)
O8 O 0.7233(8) 0.5666(6) 0.0211(5)
O9 O 0.7777(8) 0.4372(5) -0.0159(4)
O10 O 0.7515(7) 0.5414(7) -0.1004(4)
O11 O 0.9401(7) 0.5321(5) 0.0844(4)
O12 O 0.9515(8) 0.3906(6) 0.0939(5)
O13 O 1.0966(9) 0.4652(8) 0.0586(8)
Cu1A Cu 0.60241(11) 0.59868(8) -0.20158(7)
O10A O 0.7485(7) 0.4586(7) 0.3996(4)
C25 C 0.4814(13) 0.4197(15) 0.3787(11)
H29 H 0.4962 0.4810 0.3654
H30 H 0.5501 0.3856 0.3744
H31 H 0.4535 0.4164 0.4311
O14 O 0.4008(10) 0.3849(7) 0.3282(7)
H32 H 0.4320 0.3688 0.2879
loop_
_geom_bond_atom_site_label_1
_geom_bond_atom_site_label_2
_geom_bond_site_symmetry_1
_geom_bond_site_symmetry_2
C1 H1 1_555 1_555
H2 C1 1_555 1_555
H3 C1 1_555 1_555
C2 C1 1_555 1_555
H4 C2 1_555 1_555
H5 C2 1_555 1_555
C3 C4 1_555 1_555
C4 H6 1_555 1_555
C5 C4 1_555 1_555
H7 C5 1_555 1_555
C6 C5 1_555 1_555
H8 C6 1_555 1_555
C7 C6 1_555 1_555
C8 C3 1_555 1_555
C9 C7 1_555 1_555
H9 C9 1_555 1_555
C10 H10 1_555 1_555
C11 C10 1_555 1_555
H11 C11 1_555 1_555
H12 C11 1_555 1_555
C12 C11 1_555 1_555
H13 C12 1_555 1_555
H14 C12 1_555 1_555
C13 C12 1_555 1_555
H15 C13 1_555 1_555
H16 C13 1_555 1_555
C14 C13 1_555 1_555
H17 C14 1_555 1_555
H18 C14 1_555 1_555
C15 C10 1_555 1_555
H19 C15 1_555 1_555
C16 H20 1_555 1_555
C17 C16 1_555 1_555
C18 C17 1_555 1_555
H21 C18 1_555 1_555
C19 C18 1_555 1_555
H22 C19 1_555 1_555
C20 C19 1_555 1_555
H23 C20 1_555 1_555
C21 C20 1_555 1_555
C22 C17 1_555 1_555
C23 H24 1_555 1_555
H25 C23 1_555 1_555
C24 C23 1_555 1_555
H26 C24 1_555 1_555
H27 C24 1_555 1_555
H28 C24 1_555 1_555
Cu1 N1 1_555 1_555
Gd1 O1 1_555 1_555
N1 C9 1_555 1_555
N2 C15 1_555 1_555
N3 O8 1_555 1_555
N4 O11 1_555 1_555
N5 O5 1_555 1_555
O1 C2 1_555 1_555
O2 C21 1_555 1_555
O3 C8 1_555 1_555
O4 C22 1_555 1_555
O5 Gd1 1_555 1_555
O6 Gd1 1_555 1_555
O7 N5 1_555 1_555
O8 Gd1 1_555 1_555
O9 Gd1 1_555 1_555
O10 N3 1_555 1_555
O11 Gd1 1_555 1_555
O12 Gd1 1_555 1_555
O13 N4 1_555 1_555
C25 H29 1_555 1_555
H30 C25 1_555 1_555
H31 C25 1_555 1_555
O14 C25 1_555 1_555
H32 O14 1_555 1_555
Cu1A O10 1_555 1_555
O10A Cu1 1_555 1_555
C3 O1 1_555 1_555
C7 C8 1_555 1_555
C10 N1 1_555 1_555
C14 C15 1_555 1_555
C16 N2 1_555 1_555
C21 C22 1_555 1_555
C23 O2 1_555 1_555
Cu1 N2 1_555 1_555
Cu1 O3 1_555 1_555
Cu1 O4 1_555 1_555
Gd1 O2 1_555 1_555
Gd1 O3 1_555 1_555
Gd1 O4 1_555 1_555
N3 O9 1_555 1_555
N4 O12 1_555 1_555
N5 O6 1_555 1_555

#END
