
#######################################################################
#
#                 Cambridge Crystallographic Data Centre
#                                CCDC 
#
#######################################################################
#
# If this CIF has been generated from an entry in the Cambridge 
# Structural Database, then it will include bibliographic, chemical, 
# crystal, experimental, refinement or atomic coordinate data resulting 
# from the CCDC's data processing and validation procedures.
#
#######################################################################

data_LEYKUX
_symmetry_cell_setting           monoclinic
_symmetry_space_group_name_H-M   'P 21/c'
_symmetry_Int_Tables_number      14
_space_group_name_Hall           '-P 2ybc'
loop_
_symmetry_equiv_pos_site_id
_symmetry_equiv_pos_as_xyz
1 x,y,z
2 -x,1/2+y,1/2-z
3 -x,-y,-z
4 x,1/2-y,1/2+z
_cell_length_a                   9.464(2)
_cell_length_b                   14.567(4)
_cell_length_c                   15.206(4)
_cell_angle_alpha                90
_cell_angle_beta                 102.369(2)
_cell_angle_gamma                90
_cell_volume                     2047.67
loop_
_atom_site_label
_atom_site_type_symbol
_atom_site_fract_x
_atom_site_fract_y
_atom_site_fract_z
Co1 Co 0.24276(6) 1.16009(4) 0.04779(4)
O1 O 0.4082(3) 1.2359(2) 0.1020(2)
O2 O 0.5448(4) 1.1282(2) 0.0617(2)
O3 O 1.0627(3) 1.2067(2) 0.0719(2)
O4 O 1.1020(4) 1.3447(3) 0.0221(4)
N1 N 0.2293(4) 1.0341(3) 0.1004(3)
N2 N 0.2701(4) 0.8918(3) 0.1450(3)
N3 N 0.2735(5) 0.4049(3) 0.2875(3)
N4 N 0.2374(4) 0.3515(2) 0.4152(3)
C1 C 0.6409(4) 1.2778(3) 0.0852(3)
C2 C 0.7778(4) 1.2512(3) 0.0742(3)
H1 H 0.8001 1.1893 0.0713
C3 C 0.8803(4) 1.3173(3) 0.0678(3)
C4 C 0.8477(5) 1.4106(3) 0.0733(3)
H2 H 0.9160 1.4547 0.0672
C5 C 0.7132(5) 1.4377(3) 0.0880(4)
C6 C 0.6121(5) 1.3705(3) 0.0935(3)
H3 H 0.5220 1.3880 0.1030
C7 C 0.5246(4) 1.2066(3) 0.0838(3)
C8 C 1.0258(5) 1.2903(3) 0.0507(3)
C9 C 0.6815(8) 1.5390(4) 0.0976(5)
H4 H 0.7230 1.5587 0.1579
H5 H 0.5788 1.5484 0.0853
H6 H 0.7227 1.5738 0.0558
C10 C 0.3121(5) 0.9619(3) 0.1011(3)
H7 H 0.3912 0.9600 0.0739
C11 C 0.1261(7) 1.0088(4) 0.1461(5)
H8 H 0.0511 1.0459 0.1560
C12 C 0.1501(7) 0.9209(4) 0.1747(5)
H9 H 0.0963 0.8871 0.2078
C13 C 0.3431(6) 0.8026(3) 0.1617(4)
H10 H 0.4185 0.8070 0.2159
H11 H 0.3890 0.7887 0.1121
C14 C 0.2429(6) 0.7248(3) 0.1723(3)
H12 H 0.1613 0.7243 0.1214
H13 H 0.2061 0.7344 0.2264
C15 C 0.3198(6) 0.6334(4) 0.1782(4)
H14 H 0.4153 0.6396 0.2167
H15 H 0.3319 0.6158 0.1187
C16 C 0.2376(7) 0.5585(4) 0.2153(4)
H16 H 0.1428 0.5513 0.1761
H17 H 0.2240 0.5764 0.2743
C17 C 0.3179(7) 0.4674(4) 0.2224(4)
H18 H 0.2997 0.4382 0.1637
H19 H 0.4211 0.4787 0.2406
C18 C 0.2803(5) 0.4222(3) 0.3740(3)
H20 H 0.3115 0.4776 0.4020
C19 C 0.2253(7) 0.3167(3) 0.2717(4)
H21 H 0.2111 0.2849 0.2175
C20 C 0.2027(6) 0.2853(3) 0.3507(3)
H22 H 0.1685 0.2270 0.3600
Co1_2 Co 1.24276(6) 1.16009(4) 0.04779(4)
Co1C Co 0.24276(6) 0.33991(4) 0.54779(4)
O3_2 O 0.0627(3) 1.2067(2) 0.0719(2)
N4C N 0.2374(4) 1.1485(2) -0.0848(3)
loop_
_geom_bond_atom_site_label_1
_geom_bond_atom_site_label_2
_geom_bond_site_symmetry_1
_geom_bond_site_symmetry_2
Co1 O1 1_555 1_555
O1 C7 1_555 1_555
O2 C7 1_555 1_555
O3 C8 1_555 1_555
O4 C8 1_555 1_555
N1 Co1 1_555 1_555
N2 C10 1_555 1_555
N3 C17 1_555 1_555
N4 C18 1_555 1_555
C1 C2 1_555 1_555
C2 H1 1_555 1_555
C3 C2 1_555 1_555
C4 C3 1_555 1_555
H2 C4 1_555 1_555
C5 C4 1_555 1_555
C6 C1 1_555 1_555
H3 C6 1_555 1_555
C7 C1 1_555 1_555
C8 C3 1_555 1_555
C9 C5 1_555 1_555
H4 C9 1_555 1_555
H5 C9 1_555 1_555
H6 C9 1_555 1_555
C10 N1 1_555 1_555
H7 C10 1_555 1_555
C11 N1 1_555 1_555
H8 C11 1_555 1_555
C12 N2 1_555 1_555
H9 C12 1_555 1_555
C13 N2 1_555 1_555
H10 C13 1_555 1_555
H11 C13 1_555 1_555
C14 C13 1_555 1_555
H12 C14 1_555 1_555
H13 C14 1_555 1_555
C15 C14 1_555 1_555
H14 C15 1_555 1_555
H15 C15 1_555 1_555
C16 C15 1_555 1_555
H16 C16 1_555 1_555
H17 C16 1_555 1_555
C17 C16 1_555 1_555
H18 C17 1_555 1_555
H19 C17 1_555 1_555
C18 N3 1_555 1_555
H20 C18 1_555 1_555
C19 N3 1_555 1_555
H21 C19 1_555 1_555
C20 N4 1_555 1_555
H22 C20 1_555 1_555
Co1_2 O3 1_555 1_555
Co1C N4 1_555 1_555
O3_2 Co1 1_555 1_555
N4C Co1 1_555 1_555
C5 C6 1_555 1_555
C11 C12 1_555 1_555
C19 C20 1_555 1_555

#END
