
#######################################################################
#
#                 Cambridge Crystallographic Data Centre
#                                CCDC 
#
#######################################################################
#
# If this CIF has been generated from an entry in the Cambridge 
# Structural Database, then it will include bibliographic, chemical, 
# crystal, experimental, refinement or atomic coordinate data resulting 
# from the CCDC's data processing and validation procedures.
#
#######################################################################

data_LEYLUX
_symmetry_cell_setting           orthorhombic
_symmetry_space_group_name_H-M   'P 21 21 21'
_symmetry_Int_Tables_number      19
_space_group_name_Hall           'P 2ac 2ab'
loop_
_symmetry_equiv_pos_site_id
_symmetry_equiv_pos_as_xyz
1 x,y,z
2 1/2-x,-y,1/2+z
3 1/2+x,1/2-y,-z
4 -x,1/2+y,1/2-z
_cell_length_a                   15.87300(10)
_cell_length_b                   16.90610(10)
_cell_length_c                   22.8297(2)
_cell_angle_alpha                90
_cell_angle_beta                 90
_cell_angle_gamma                90
_cell_volume                     6126.36
loop_
_atom_site_label
_atom_site_type_symbol
_atom_site_fract_x
_atom_site_fract_y
_atom_site_fract_z
Ag1 Ag 0.31211(2) 0.79303(3) 0.801752(15)
Ag2 Ag 0.60041(2) 0.80381(3) 0.811856(16)
Ag3 Ag 0.88722(2) 0.84802(3) 0.822436(17)
Cu1 Cu 0.04281(3) 0.88170(3) 0.49996(2)
Cu2 Cu 0.37574(3) 0.87844(3) 0.48875(2)
Cu3 Cu 0.21302(3) 0.62133(3) 0.50208(2)
C1 C -0.0153(2) 0.7622(3) 0.57148(18)
C2 C 0.0738(2) 0.7752(3) 0.59604(17)
H1 H 0.106 0.7266 0.5892
C3 C 0.0737(2) 0.7910(3) 0.66174(18)
H2 H 0.0372 0.753 0.681
H3 H 0.0515 0.8435 0.6692
C4 C 0.1625(3) 0.7847(3) 0.68726(19)
H4 H 0.2018 0.8105 0.6609
H5 H 0.1782 0.7293 0.6898
C5 C 0.1746(4) 0.9323(3) 0.7404(3)
H6 H 0.1795 0.9633 0.7755
H7 H 0.1238 0.9465 0.7201
H8 H 0.2222 0.9422 0.7156
C6 C 0.3231(2) 0.7556(2) 0.55869(17)
C7 C 0.4069(2) 0.7777(2) 0.58855(16)
H9 H 0.4434 0.731 0.5885
C8 C 0.3908(2) 0.8018(3) 0.65241(15)
H10 H 0.3688 0.8553 0.6535
H11 H 0.3488 0.767 0.6693
C9 C 0.4710(2) 0.7976(3) 0.68850(16)
H12 H 0.5147 0.8275 0.6686
H13 H 0.4893 0.743 0.6905
C10 C 0.4560(3) 0.9409(3) 0.7506(2)
H14 H 0.4501 0.9676 0.7875
H15 H 0.4087 0.9533 0.7261
H16 H 0.507 0.9579 0.7318
C11 C 0.6493(2) 0.7543(3) 0.56152(18)
C12 C 0.7288(2) 0.7736(2) 0.59654(16)
H17 H 0.7637 0.726 0.5997
C13 C 0.7014(2) 0.7996(3) 0.65801(16)
H18 H 0.6756 0.8516 0.6556
H19 H 0.6593 0.763 0.6726
C14 C 0.7741(2) 0.8027(3) 0.70048(16)
H20 H 0.8198 0.8325 0.6829
H21 H 0.7941 0.7493 0.7075
C15 C 0.7323(3) 0.9490(3) 0.7479(2)
H22 H 0.7167 0.9801 0.7814
H23 H 0.6886 0.952 0.7189
H24 H 0.784 0.9689 0.7318
C16 C 0.5133(2) 1.0083(3) 0.92067(18)
C17 C 0.4435(2) 0.9650(3) 0.95364(19)
C18 C 0.4010(3) 0.9012(3) 0.91728(18)
H25 H 0.4432 0.8642 0.9034
H26 H 0.3747 0.9253 0.8833
C19 C 0.3345(3) 0.8564(3) 0.95232(19)
H27 H 0.2907 0.8932 0.964
H28 H 0.3603 0.8359 0.9877
C20 C 0.3587(4) 0.6967(3) 0.9304(2)
H29 H 0.3404 0.6486 0.9119
H30 H 0.3603 0.6893 0.9721
H31 H 0.414 0.7102 0.9166
C21 C 0.8363(2) 1.0107(3) 0.91704(19)
C22 C 0.7705(2) 0.9672(2) 0.95439(19)
H32 H 0.8011 0.9418 0.9865
C23 C 0.7249(2) 0.9017(3) 0.92125(19)
H33 H 0.6954 0.9247 0.8882
H34 H 0.7663 0.8648 0.906
C24 C 0.6620(3) 0.8565(3) 0.95889(19)
H35 H 0.6198 0.8932 0.9731
H36 H 0.6914 0.8352 0.9927
C25 C 0.6904(4) 0.7019(3) 0.9240(2)
H37 H 0.6707 0.6546 0.9053
H38 H 0.7042 0.6906 0.9641
H39 H 0.7397 0.721 0.9041
C26 C 0.3161(2) 0.9867(3) 0.40960(19)
C27 C 0.3899(3) 1.0292(3) 0.4395(2)
C28 C 0.4322(3) 1.0929(3) 0.4033(2)
H40 H 0.3895 1.1248 0.3841
H41 H 0.4666 1.0685 0.3732
C29 C 0.4869(3) 1.1456(3) 0.4416(2)
H42 H 0.526 1.1121 0.4628
H43 H 0.4509 1.171 0.4703
C30 C 0.4662(4) 1.2872(3) 0.3768(3)
H44 H 0.4919 1.3303 0.356
H45 H 0.4339 1.3076 0.409
H46 H 0.4298 1.2585 0.3508
N1 N 0.1162(2) 0.8399(2) 0.56366(15)
H47 H 0.1646 0.8217 0.5481
H48 H 0.129 0.8793 0.5886
N2 N 0.4490(2) 0.8411(2) 0.55473(14)
H49 H 0.498 0.8227 0.5402
H50 H 0.4608 0.882 0.5786
N3 N 0.7772(2) 0.8364(2) 0.56662(15)
H51 H 0.8269 0.8167 0.5544
H52 H 0.7879 0.8759 0.592
N4 N 0.3860(2) 1.0249(2) 0.97934(17)
N5 N 0.71533(19) 1.0272(2) 0.98101(15)
H53 H 0.6924 1.0085 1.0143
H54 H 0.6735 1.0402 0.9562
N6 N 0.4480(2) 0.9673(3) 0.4617(2)
N7 N 0.2720(3) 1.0002(3) 0.5964(2)
O1 O -0.03921(16) 0.80643(17) 0.52979(12)
O2 O -0.05942(18) 0.7083(2) 0.59144(13)
O3 O 0.29707(15) 0.79806(18) 0.51657(12)
O4 O 0.28373(17) 0.69723(18) 0.57678(12)
O5 O 0.62838(15) 0.80133(17) 0.52035(11)
O6 O 0.60698(17) 0.69553(18) 0.57534(12)
O7 O 0.54801(19) 0.97710(19) 0.87851(14)
O8 O 0.53477(17) 1.07559(17) 0.94149(13)
O9 O 0.85756(17) 1.07948(18) 0.93515(14)
O10 O 0.86696(19) 0.9800(2) 0.87331(15)
O11 O 0.27380(19) 1.0214(2) 0.37276(15)
O12 O 0.29883(17) 0.91758(18) 0.42833(14)
O13 O 0.3573(3) 0.6538(2) 0.77822(19)
O14 O 0.6492(3) 0.6629(3) 0.77121(17)
O15 O 0.9589(2) 0.9282(2) 0.75343(17)
O16 O 0.3258(4) 1.0089(4) 0.6315(3)
O17 O 0.2821(4) 0.9733(6) 0.5531(4)
O18 O 0.1986(4) 1.0298(5) 0.6003(3)
S1 S 0.17124(7) 0.82909(8) 0.75914(5)
S2 S 0.46011(7) 0.83552(7) 0.76276(4)
S3 S 0.74652(6) 0.84769(8) 0.76985(5)
S4 S 0.28654(7) 0.77514(7) 0.91285(5)
S5 S 0.60927(7) 0.77619(7) 0.92145(4)
S6 S 0.54716(7) 1.22180(7) 0.40428(5)
H55 H 0.358(3) 0.625(3) 0.743(3)
H56 H 0.407(3) 0.645(3) 0.786(2)
H57 H 0.949 0.9262 0.7164
H58 H 0.9675 0.9771 0.7614
H59 H 0.346(3) 1.041(3) 0.9478(19)
H60 H 0.651(3) 0.626(3) 0.747(2)
H61 H 0.364(3) 1.007(3) 1.008(2)
H62 H 0.6603 0.6571 0.8081
H63 H 0.476(3) 0.982(3) 0.486(2)
H64 H 0.480(3) 0.946(3) 0.428(2)
H65 H 0.474(3) 0.943(3) 0.988(2)
H66 H 0.367(3) 1.054(4) 0.473(3)
Ag3A Ag 0.61278(2) 1.15198(3) 0.322436(17)
Cu1A Cu 0.45719(3) 1.11830(3) 0.99996(2)
Cu1B Cu 0.54281(3) 0.61830(3) 0.50004(2)
Cu2B Cu -0.12426(3) 0.62156(3) 0.51125(2)
Cu3B Cu 0.71302(3) 0.87867(3) 0.49792(2)
Cu3C Cu 0.78698(3) 1.12133(3) 0.99792(2)
N3B N 0.2772(2) 0.6636(2) 0.43338(15)
H51B H 0.3269 0.6833 0.4456
H52B H 0.2879 0.6241 0.408
N4A N 0.1140(2) 0.9751(2) 0.47934(17)
N5C N 0.28467(19) 0.5272(2) 0.51899(15)
H53C H 0.3076 0.5085 0.4857
H54C H 0.3265 0.5402 0.5438
O2B O 0.44058(18) 0.7917(2) 0.40856(13)
O5B O 0.12838(15) 0.69867(17) 0.47965(11)
O6B O 0.10698(17) 0.80447(18) 0.42466(12)
O8A O -0.03477(17) 0.92441(17) 0.44149(13)
O9C O 0.14244(17) 0.57948(18) 0.56485(14)
S6A S 0.95284(7) 0.77820(7) 0.90428(5)
H59A H 0.154(3) 0.959(3) 0.4478(19)
H61A H 0.136(3) 0.993(3) 0.508(2)
N8 N -0.0664(2) 0.9882(3) 0.60585(19)
O19 O -0.0973(4) 1.0324(4) 0.5716(3)
O20 O -0.1113(3) 0.9497(3) 0.6384(2)
O21 O 0.0094(3) 0.9836(4) 0.6075(3)
N9 N 0.6010(2) 0.9909(2) 0.59226(17)
O22 O 0.6789(2) 0.9933(3) 0.5959(2)
O23 O 0.5600(3) 0.9549(3) 0.62911(18)
O24 O 0.5656(3) 1.0259(3) 0.5525(2)
O25 O 0.3403(2) 0.5967(2) 0.66632(15)
H67 H 0.2919 0.6022 0.6493
H80 H 0.3887 0.5724 0.6529
O26 O -0.1933(2) 1.1193(3) 0.6846(2)
H68 H -0.2462 1.1074 0.6846
H69 H -0.1676 1.0764 0.6741
O27 O 0.5084(2) 0.6231(3) 0.83500(19)
H70 H 0.5257 0.5864 0.8583
H71 H 0.5511 0.636 0.8141
O28 O 0.6428(2) 0.5867(2) 0.66548(16)
H72 H 0.6209 0.6242 0.6452
H73 H 0.6944 0.5833 0.654
O29 O 0.4169(3) 0.8757(4) 0.3007(2)
H74 H 0.3942 0.8538 0.2698
H75 H 0.4619 0.898 0.2879
O30 O 0.8195(3) 0.6480(3) 0.8039(2)
H76 H 0.848 0.6039 0.8043
H77 H 0.7695 0.6342 0.7927
O31 O 0.9135(3) 0.0855(3) 0.7799(2)
H78 H 0.8855 0.0663 0.809
H79 H 0.8845 0.1271 0.7691
loop_
_geom_bond_atom_site_label_1
_geom_bond_atom_site_label_2
_geom_bond_site_symmetry_1
_geom_bond_site_symmetry_2
Ag1 O13 1_555 1_555
Ag2 O14 1_555 1_555
Ag3 O10 1_555 1_555
Cu1 N1 1_555 1_555
Cu2 N2 1_555 1_555
Cu3 O4 1_555 1_555
C1 C2 1_555 1_555
C2 H1 1_555 1_555
C3 C2 1_555 1_555
H2 C3 1_555 1_555
H3 C3 1_555 1_555
C4 C3 1_555 1_555
H4 C4 1_555 1_555
H5 C4 1_555 1_555
C5 H6 1_555 1_555
H7 C5 1_555 1_555
H8 C5 1_555 1_555
C6 C7 1_555 1_555
C7 H9 1_555 1_555
C8 C7 1_555 1_555
H10 C8 1_555 1_555
H11 C8 1_555 1_555
C9 C8 1_555 1_555
H12 C9 1_555 1_555
H13 C9 1_555 1_555
C10 H14 1_555 1_555
H15 C10 1_555 1_555
H16 C10 1_555 1_555
C11 C12 1_555 1_555
C12 H17 1_555 1_555
C13 C12 1_555 1_555
H18 C13 1_555 1_555
H19 C13 1_555 1_555
C14 C13 1_555 1_555
H20 C14 1_555 1_555
H21 C14 1_555 1_555
C15 H22 1_555 1_555
H23 C15 1_555 1_555
H24 C15 1_555 1_555
C16 C17 1_555 1_555
C17 C18 1_555 1_555
C18 H25 1_555 1_555
H26 C18 1_555 1_555
C19 C18 1_555 1_555
H27 C19 1_555 1_555
H28 C19 1_555 1_555
C20 H29 1_555 1_555
H30 C20 1_555 1_555
H31 C20 1_555 1_555
C21 C22 1_555 1_555
C22 H32 1_555 1_555
C23 C22 1_555 1_555
H33 C23 1_555 1_555
H34 C23 1_555 1_555
C24 C23 1_555 1_555
H35 C24 1_555 1_555
H36 C24 1_555 1_555
C25 H37 1_555 1_555
H38 C25 1_555 1_555
H39 C25 1_555 1_555
C26 C27 1_555 1_555
C27 C28 1_555 1_555
C28 H40 1_555 1_555
H41 C28 1_555 1_555
C29 C28 1_555 1_555
H42 C29 1_555 1_555
H43 C29 1_555 1_555
C30 H44 1_555 1_555
H45 C30 1_555 1_555
H46 C30 1_555 1_555
N1 C2 1_555 1_555
H47 N1 1_555 1_555
H48 N1 1_555 1_555
N2 C7 1_555 1_555
H49 N2 1_555 1_555
H50 N2 1_555 1_555
N3 C12 1_555 1_555
H51 N3 1_555 1_555
H52 N3 1_555 1_555
N4 C17 1_555 1_555
N5 C22 1_555 1_555
H53 N5 1_555 1_555
H54 N5 1_555 1_555
N6 Cu2 1_555 1_555
N7 O16 1_555 1_555
N8 O19 1_555 1_555
N9 O22 1_555 1_555
O1 Cu1 1_555 1_555
O2 C1 1_555 1_555
O3 Cu2 1_555 1_555
O4 C6 1_555 1_555
O5 C11 1_555 1_555
O6 C11 1_555 1_555
O7 C16 1_555 1_555
O8 C16 1_555 1_555
O9 C21 1_555 1_555
O10 C21 1_555 1_555
O11 C26 1_555 1_555
O12 Cu2 1_555 1_555
O13 H55 1_555 1_555
O14 H60 1_555 1_555
O15 Ag3 1_555 1_555
O17 Cu2 1_555 1_555
O18 N7 1_555 1_555
O20 N8 1_555 1_555
O21 N8 1_555 1_555
O23 N9 1_555 1_555
O24 N9 1_555 1_555
O25 H67 1_555 1_555
O26 H68 1_555 1_555
O27 H70 1_555 1_555
O28 H72 1_555 1_555
O29 H74 1_555 1_555
O30 H76 1_555 1_555
O31 H78 1_555 1_555
S1 Ag1 1_555 1_555
S2 Ag1 1_555 1_555
S3 Ag2 1_555 1_555
S4 Ag1 1_555 1_555
S5 Ag2 1_555 1_555
S6 C29 1_555 1_555
H56 O13 1_555 1_555
H57 O15 1_555 1_555
H58 O15 1_555 1_555
H59 N4 1_555 1_555
H61 N4 1_555 1_555
H62 O14 1_555 1_555
H63 N6 1_555 1_555
H64 N6 1_555 1_555
H65 C17 1_555 1_555
H66 C27 1_555 1_555
H69 O26 1_555 1_555
H71 O27 1_555 1_555
H73 O28 1_555 1_555
H75 O29 1_555 1_555
H77 O30 1_555 1_555
H79 O31 1_555 1_555
H80 O25 1_555 1_555
Ag3A S6 1_555 1_555
Cu1A N4 1_555 1_555
Cu1B O6 1_555 1_555
Cu2B O2 1_555 1_555
Cu3B N3 1_555 1_555
Cu3C N5 1_555 1_555
N3B Cu3 1_555 1_555
H51B N3B 1_555 1_555
H52B N3B 1_555 1_555
N4A Cu1 1_555 1_555
N5C Cu3 1_555 1_555
H53C N5C 1_555 1_555
H54C N5C 1_555 1_555
O2B Cu2 1_555 1_555
O5B Cu3 1_555 1_555
O6B Cu1 1_555 1_555
O8A Cu1 1_555 1_555
O9C Cu3 1_555 1_555
S6A Ag3 1_555 1_555
H59A N4A 1_555 1_555
H61A N4A 1_555 1_555
Ag2 S2 1_555 1_555
Ag3 S3 1_555 1_555
C1 O1 1_555 1_555
C4 S1 1_555 1_555
C5 S1 1_555 1_555
C6 O3 1_555 1_555
C9 S2 1_555 1_555
C10 S2 1_555 1_555
C14 S3 1_555 1_555
C15 S3 1_555 1_555
C19 S4 1_555 1_555
C20 S4 1_555 1_555
C24 S5 1_555 1_555
C25 S5 1_555 1_555
C26 O12 1_555 1_555
C27 N6 1_555 1_555
C30 S6 1_555 1_555
N7 O17 1_555 1_555
O5 Cu3B 1_555 1_555
O8 Cu1A 1_555 1_555
O9 Cu3C 1_555 1_555

#END
