
#######################################################################
#
#                 Cambridge Crystallographic Data Centre
#                                CCDC 
#
#######################################################################
#
# If this CIF has been generated from an entry in the Cambridge 
# Structural Database, then it will include bibliographic, chemical, 
# crystal, experimental, refinement or atomic coordinate data resulting 
# from the CCDC's data processing and validation procedures.
#
#######################################################################

data_LEYMAF
_symmetry_cell_setting           monoclinic
_symmetry_space_group_name_H-M   'P 21/a'
_symmetry_Int_Tables_number      14
_space_group_name_Hall           '-P 2yab'
loop_
_symmetry_equiv_pos_site_id
_symmetry_equiv_pos_as_xyz
1 x,y,z
2 1/2-x,1/2+y,-z
3 -x,-y,-z
4 1/2+x,1/2-y,z
_cell_length_a                   14.897(9)
_cell_length_b                   5.819(3)
_cell_length_c                   17.441(10)
_cell_angle_alpha                90
_cell_angle_beta                 107.581(6)
_cell_angle_gamma                90
_cell_volume                     1441.27
loop_
_atom_site_label
_atom_site_type_symbol
_atom_site_fract_x
_atom_site_fract_y
_atom_site_fract_z
Cu1 Cu 0.19674(2) -0.32116(6) 0.146217(17)
Cu2 Cu 0.01630(2) 0.42737(5) 0.281602(18)
O1 O -0.00967(13) 0.6313(4) 0.17949(12)
O2 O -0.09706(14) 0.8829(3) 0.10017(12)
O3 O -0.16257(12) 0.5944(3) 0.14237(11)
O4 O 0.07779(13) 0.7087(3) 0.35360(10)
O5 O 0.13045(15) 0.8413(4) 0.47525(11)
O6 O 0.08466(14) 0.4855(3) 0.45539(11)
N1 N 0.42173(14) -0.7140(4) 0.30020(12)
N2 N 0.29547(14) -0.4633(4) 0.23885(12)
N3 N 0.12815(14) 0.2194(4) 0.28555(12)
N4 N 0.18678(14) -0.1005(4) 0.23163(12)
N5 N -0.09068(15) 0.7038(4) 0.13994(12)
N6 N 0.09814(15) 0.6782(4) 0.42923(13)
C1 C 0.1561(2) -0.4990(6) 0.04343(16)
H1 H 0.2021 -0.5106 0.0128
H2 H 0.1211 -0.6433 0.0440
C2 C 0.10534(19) -0.2987(5) 0.03487(15)
H3 H 0.0377 -0.3134 0.0302
H4 H 0.1187 -0.1805 -0.0010
C3 C 0.34912(17) -0.6436(4) 0.23786(14)
H5 H 0.3354 -0.7299 0.1895
C4 C 0.31519(16) -0.3363(4) 0.30739(14)
C5 C 0.38720(17) -0.3993(5) 0.37430(15)
H6 H 0.4008 -0.3134 0.4228
C6 C 0.43914(18) -0.5916(5) 0.36859(15)
H7 H 0.4887 -0.6390 0.4144
C7 C 0.12632(17) 0.0707(4) 0.22625(15)
H8 H 0.0780 0.0894 0.1766
C8 C 0.25443(16) -0.1338(4) 0.30310(14)
C9 C 0.26190(17) 0.0136(5) 0.36676(15)
H9 H 0.3097 -0.0062 0.4166
C10 C 0.19749(17) 0.1911(5) 0.35538(14)
H10 H 0.2022 0.2962 0.3981
Cu1C Cu -0.30326(2) 0.82116(6) 0.146217(17)
Cu2C Cu 0.51630(2) -0.92737(5) 0.281602(18)
O3C O 0.33743(12) -0.0944(3) 0.14237(11)
N1C N -0.07827(14) 0.2140(4) 0.30020(12)
loop_
_geom_bond_atom_site_label_1
_geom_bond_atom_site_label_2
_geom_bond_site_symmetry_1
_geom_bond_site_symmetry_2
Cu1 N2 1_555 1_555
Cu2 O1 1_555 1_555
O1 N5 1_555 1_555
O2 N5 1_555 1_555
O3 N5 1_555 1_555
O4 Cu2 1_555 1_555
O5 N6 1_555 1_555
O6 N6 1_555 1_555
N1 C3 1_555 1_555
N2 C3 1_555 1_555
N3 Cu2 1_555 1_555
N4 Cu1 1_555 1_555
N6 O4 1_555 1_555
C1 Cu1 1_555 1_555
H1 C1 1_555 1_555
H2 C1 1_555 1_555
C2 Cu1 1_555 1_555
H3 C2 1_555 1_555
H4 C2 1_555 1_555
C3 H5 1_555 1_555
C4 N2 1_555 1_555
C5 C4 1_555 1_555
H6 C5 1_555 1_555
C6 N1 1_555 1_555
H7 C6 1_555 1_555
C7 N3 1_555 1_555
H8 C7 1_555 1_555
C8 N4 1_555 1_555
C9 C8 1_555 1_555
H9 C9 1_555 1_555
C10 N3 1_555 1_555
H10 C10 1_555 1_555
Cu1C O3 1_555 1_555
Cu2C N1 1_555 1_555
O3C Cu1 1_555 1_555
N1C Cu2 1_555 1_555
N4 C7 1_555 1_555
C1 C2 1_555 1_555
C4 C8 1_555 1_555
C5 C6 1_555 1_555
C9 C10 1_555 1_555

#END
