
#######################################################################
#
#                 Cambridge Crystallographic Data Centre
#                                CCDC 
#
#######################################################################
#
# If this CIF has been generated from an entry in the Cambridge 
# Structural Database, then it will include bibliographic, chemical, 
# crystal, experimental, refinement or atomic coordinate data resulting 
# from the CCDC's data processing and validation procedures.
#
#######################################################################

data_LEYMUX
_symmetry_cell_setting           monoclinic
_symmetry_space_group_name_H-M   'P 21/c'
_symmetry_Int_Tables_number      14
_space_group_name_Hall           '-P 2ybc'
loop_
_symmetry_equiv_pos_site_id
_symmetry_equiv_pos_as_xyz
1 x,y,z
2 -x,1/2+y,1/2-z
3 -x,-y,-z
4 x,1/2-y,1/2+z
_cell_length_a                   6.859(1)
_cell_length_b                   20.085(4)
_cell_length_c                   11.860(4)
_cell_angle_alpha                90
_cell_angle_beta                 93.56(2)
_cell_angle_gamma                90
_cell_volume                     1630.72
loop_
_atom_site_label
_atom_site_type_symbol
_atom_site_fract_x
_atom_site_fract_y
_atom_site_fract_z
Cu1 Cu -0.9378(1) -0.0715(1) -0.1806(1)
N1 N -0.8240(5) 0.0028(2) -0.0976(3)
N2 N -0.7501(7) -0.0407(2) -0.2970(4)
N3 N -0.0987(6) -0.3658(2) 0.2217(3)
N4 N -0.7422(6) -0.1515(2) -0.0913(3)
O1 O -0.8656(4) 0.0684(2) 0.0595(3)
C1 C -0.9099(6) 0.0212(2) -0.0099(4)
C2 C -0.6561(8) 0.0363(3) -0.1427(5)
C3 C -0.5810(10) -0.0104(3) -0.2319(6)
C4 C -0.1067(8) -0.3010(3) 0.2450(4)
C5 C -0.2247(8) -0.2575(2) 0.1820(4)
C6 C -0.3471(7) -0.2817(2) 0.0937(4)
C7 C -0.3361(8) -0.3486(3) 0.0694(4)
C8 C -0.2119(8) -0.3888(3) 0.1340(5)
C9 C -0.4847(7) -0.2360(2) 0.0294(4)
C10 C -0.6024(8) -0.1927(2) 0.0840(4)
C11 C -0.7308(8) -0.1524(3) 0.0216(4)
C12 C -0.3727(8) 0.3070(3) 0.6439(5)
C13 C -0.4987(8) -0.2366(3) -0.0872(4)
Cu1C Cu 0.0622(1) -0.4285(1) 0.3194(1)
Cu1B Cu -1.0622(1) 0.0715(1) 0.1806(1)
N1B N -1.1760(5) -0.0028(2) 0.0976(3)
C1B C -1.0901(6) -0.0212(2) 0.0099(4)
O1B O -1.1344(4) -0.0684(2) -0.0595(3)
N3C N -1.0987(6) -0.1342(2) -0.2783(3)
C2B C -1.3439(8) -0.0363(3) 0.1427(5)
C3B C -1.4190(10) 0.0104(3) 0.2319(6)
N2B N -1.2499(7) 0.0407(2) 0.2970(4)
N3A N -0.9013(6) 0.1342(2) 0.2783(3)
C4A C -0.8933(8) 0.1990(3) 0.2550(4)
C5A C -0.7753(8) 0.2425(2) 0.3180(4)
C6A C -0.6529(7) 0.2183(2) 0.4063(4)
C7A C -0.6639(8) 0.1514(3) 0.4306(4)
C8A C -0.7881(8) 0.1112(3) 0.3660(5)
C9A C -0.5153(7) 0.2640(2) 0.4706(4)
C10A C -0.3976(8) 0.3073(2) 0.4160(4)
C11A C -0.2692(8) 0.3476(3) 0.4784(4)
N4A N -0.2578(6) 0.3485(2) 0.5913(3)
Cu1A Cu -0.0622(1) 0.4285(1) 0.6806(1)
C13A C -0.5013(8) 0.2634(3) 0.5872(4)
N4B N -1.2578(6) 0.1515(2) 0.0913(3)
C12A C -0.6273(8) -0.1930(3) -0.1439(5)
Cl1 Cl 0.8768(3) -0.6125(1) 0.1145(1)
O2 O 0.8305(14) -0.6458(5) 0.0068(7)
O3 O 0.8931(27) -0.5517(5) 0.0785(11)
O4 O 0.7289(30) -0.6276(8) 0.1796(11)
O5 O 1.0448(23) -0.6364(10) 0.1487(10)
loop_
_geom_bond_atom_site_label_1
_geom_bond_atom_site_label_2
_geom_bond_site_symmetry_1
_geom_bond_site_symmetry_2
Cu1 N1 1_555 1_555
N1 C1 1_555 1_555
N2 Cu1 1_555 1_555
N3 C4 1_555 1_555
N4 Cu1 1_555 1_555
O1 C1 1_555 1_555
C1 C1B 1_555 1_555
C2 N1 1_555 1_555
C3 N2 1_555 1_555
C4 C5 1_555 1_555
C5 C6 1_555 1_555
C6 C7 1_555 1_555
C7 C8 1_555 1_555
C8 N3 1_555 1_555
C9 C6 1_555 1_555
C10 C9 1_555 1_555
C11 N4 1_555 1_555
C12 N4A 1_555 1_555
C13 C9 1_555 1_555
Cl1 O2 1_555 1_555
O3 Cl1 1_555 1_555
O4 Cl1 1_555 1_555
O5 Cl1 1_555 1_555
Cu1C N3 1_555 1_555
Cu1B O1 1_555 1_555
N1B Cu1B 1_555 1_555
C1B N1B 1_555 1_555
O1B Cu1 1_555 1_555
N3C Cu1 1_555 1_555
C2B N1B 1_555 1_555
C3B C2B 1_555 1_555
N2B Cu1B 1_555 1_555
N3A Cu1B 1_555 1_555
C4A N3A 1_555 1_555
C5A C4A 1_555 1_555
C6A C5A 1_555 1_555
C7A C6A 1_555 1_555
C8A N3A 1_555 1_555
C9A C6A 1_555 1_555
C10A C9A 1_555 1_555
C11A C10A 1_555 1_555
N4A C11A 1_555 1_555
Cu1A N4A 1_555 1_555
C13A C12 1_555 1_555
N4B Cu1B 1_555 1_555
C12A N4 1_555 1_555
C2 C3 1_555 1_555
C10 C11 1_555 1_555
C13 C12A 1_555 1_555
C1B O1B 1_555 1_555
C3B N2B 1_555 1_555
C7A C8A 1_555 1_555
C9A C13A 1_555 1_555

#END
