
#######################################################################
#
#                 Cambridge Crystallographic Data Centre
#                                CCDC 
#
#######################################################################
#
# If this CIF has been generated from an entry in the Cambridge 
# Structural Database, then it will include bibliographic, chemical, 
# crystal, experimental, refinement or atomic coordinate data resulting 
# from the CCDC's data processing and validation procedures.
#
#######################################################################

data_LEYMEI
_symmetry_cell_setting           triclinic
_symmetry_space_group_name_H-M   'P -1'
_symmetry_Int_Tables_number      2
_space_group_name_Hall           '-P 1'
loop_
_symmetry_equiv_pos_site_id
_symmetry_equiv_pos_as_xyz
1 x,y,z
2 -x,-y,-z
_cell_length_a                   10.286(2)
_cell_length_b                   11.324(3)
_cell_length_c                   13.701(3)
_cell_angle_alpha                94.593(4)
_cell_angle_beta                 107.180(4)
_cell_angle_gamma                116.760(3)
_cell_volume                     1318.23
loop_
_atom_site_label
_atom_site_type_symbol
_atom_site_fract_x
_atom_site_fract_y
_atom_site_fract_z
Mn1 Mn 0.22928(7) 0.31560(6) 0.33952(5)
Mn2 Mn 0.16703(6) 0.10324(6) 0.11279(4)
N1 N 0.1298(4) 0.4578(4) 0.3464(3)
N2 N 0.0037(4) 0.1988(4) 0.3674(3)
N3 N 0.2854(4) -0.0245(3) 0.1204(3)
N4 N 0.4098(4) 0.2407(3) 0.1142(3)
N5 N 0.1293(4) 0.2716(3) 0.1589(3)
N6 N 0.1215(4) 0.3517(4) 0.1098(3)
N7 N 0.1110(7) 0.4261(5) 0.0615(4)
N8 N 0.2366(4) 0.1324(4) 0.2886(3)
N9 N 0.2886(4) 0.0726(4) 0.3398(3)
N10 N 0.3419(6) 0.0154(5) 0.3874(4)
N11 N 0.4494(5) 0.4886(5) 0.3454(4)
N12 N 0.5513(5) 0.5767(4) 0.4180(3)
N13 N 0.6564(5) 0.6646(4) 0.4882(3)
N14 N -0.0677(4) -0.0773(3) 0.0634(3)
N15 N -0.1244(4) -0.1421(3) 0.1183(3)
N16 N -0.1810(6) -0.2043(5) 0.1707(4)
C1 C 0.1909(7) 0.5836(5) 0.3340(4)
H1 H 0.2857 0.6204 0.3240
C2 C 0.1211(9) 0.6632(6) 0.3350(5)
H2 H 0.1676 0.7508 0.3250
C3 C -0.0151(8) 0.6119(6) 0.3508(4)
H3 H -0.0623 0.6649 0.3525
C4 C -0.2287(7) 0.4161(7) 0.3812(4)
H4 H -0.2816 0.4641 0.3829
C5 C -0.2896(7) 0.2896(7) 0.3947(4)
H5 H -0.3832 0.2521 0.4063
C6 C -0.2708(6) 0.0777(7) 0.4059(4)
H6 H -0.3623 0.0365 0.4198
C7 C -0.1935(7) 0.0094(6) 0.3995(4)
H7 H -0.2315 -0.0789 0.4087
C8 C -0.0562(6) 0.0724(5) 0.3789(4)
H8 H -0.0048 0.0240 0.3731
C9 C -0.0067(5) 0.4052(5) 0.3619(3)
C10 C -0.0725(5) 0.2688(5) 0.3750(3)
C11 C -0.0869(6) 0.4786(6) 0.3646(3)
C12 C -0.2138(5) 0.2099(6) 0.3918(3)
C13 C 0.2265(5) -0.1528(4) 0.1257(3)
H9 H 0.1238 -0.1992 0.1227
C14 C 0.3095(7) -0.2223(5) 0.1355(4)
H10 H 0.2628 -0.3133 0.1383
C15 C 0.4585(7) -0.1561(6) 0.1409(4)
H11 H 0.5165 -0.2008 0.1497
C16 C 0.6803(6) 0.0528(6) 0.1321(4)
H12 H 0.7408 0.0108 0.1369
C17 C 0.7389(5) 0.1828(6) 0.1236(4)
H13 H 0.8391 0.2286 0.1221
C18 C 0.7061(5) 0.3853(5) 0.1074(4)
H14 H 0.8042 0.4339 0.1031
C19 C 0.6171(6) 0.4450(5) 0.1044(4)
H15 H 0.6539 0.5350 0.0993
C20 C 0.4702(5) 0.3694(4) 0.1089(4)
H16 H 0.4107 0.4117 0.1081
C21 C 0.4351(5) 0.0420(4) 0.1250(3)
C22 C 0.5006(4) 0.1825(4) 0.1189(3)
C23 C 0.5268(5) -0.0211(5) 0.1336(3)
C24 C 0.6513(5) 0.2519(5) 0.1170(3)
Mn1A Mn 0.77072(7) 0.68440(6) 0.66048(5)
Mn2A Mn -0.16703(6) -0.10324(6) -0.11279(4)
N13A N 0.3436(5) 0.3354(4) 0.5118(3)
N14A N 0.0677(4) 0.0773(3) -0.0634(3)
loop_
_geom_bond_atom_site_label_1
_geom_bond_atom_site_label_2
_geom_bond_site_symmetry_1
_geom_bond_site_symmetry_2
Mn1 N1 1_555 1_555
Mn2 N3 1_555 1_555
N1 C1 1_555 1_555
N2 Mn1 1_555 1_555
N3 C13 1_555 1_555
N4 Mn2 1_555 1_555
N5 Mn1 1_555 1_555
N6 N5 1_555 1_555
N7 N6 1_555 1_555
N8 Mn1 1_555 1_555
N9 N8 1_555 1_555
N10 N9 1_555 1_555
N11 Mn1 1_555 1_555
N12 N11 1_555 1_555
N13 N12 1_555 1_555
N14 Mn2 1_555 1_555
N15 N14 1_555 1_555
N16 N15 1_555 1_555
C1 H1 1_555 1_555
C2 C1 1_555 1_555
H2 C2 1_555 1_555
C3 C2 1_555 1_555
H3 C3 1_555 1_555
C4 H4 1_555 1_555
C5 C4 1_555 1_555
H5 C5 1_555 1_555
C6 H6 1_555 1_555
C7 C6 1_555 1_555
H7 C7 1_555 1_555
C8 N2 1_555 1_555
H8 C8 1_555 1_555
C9 N1 1_555 1_555
C10 N2 1_555 1_555
C11 C3 1_555 1_555
C12 C5 1_555 1_555
C13 H9 1_555 1_555
C14 C13 1_555 1_555
H10 C14 1_555 1_555
C15 C14 1_555 1_555
H11 C15 1_555 1_555
C16 H12 1_555 1_555
C17 C16 1_555 1_555
H13 C17 1_555 1_555
C18 H14 1_555 1_555
C19 C18 1_555 1_555
H15 C19 1_555 1_555
C20 N4 1_555 1_555
H16 C20 1_555 1_555
C21 N3 1_555 1_555
C22 N4 1_555 1_555
C23 C15 1_555 1_555
C24 C17 1_555 1_555
Mn1A N13 1_555 1_555
Mn2A N14 1_555 1_555
N13A Mn1 1_555 1_555
N14A Mn2 1_555 1_555
Mn2 N5 1_555 1_555
Mn2 N8 1_555 1_555
C4 C11 1_555 1_555
C6 C12 1_555 1_555
C7 C8 1_555 1_555
C9 C10 1_555 1_555
C9 C11 1_555 1_555
C10 C12 1_555 1_555
C16 C23 1_555 1_555
C18 C24 1_555 1_555
C19 C20 1_555 1_555
C21 C22 1_555 1_555
C21 C23 1_555 1_555
C22 C24 1_555 1_555
Mn2A N14A 1_555 1_555

#END
