
#######################################################################
#
#                 Cambridge Crystallographic Data Centre
#                                CCDC 
#
#######################################################################
#
# If this CIF has been generated from an entry in the Cambridge 
# Structural Database, then it will include bibliographic, chemical, 
# crystal, experimental, refinement or atomic coordinate data resulting 
# from the CCDC's data processing and validation procedures.
#
#######################################################################

data_LEYMAE
_symmetry_cell_setting           triclinic
_symmetry_space_group_name_H-M   'P -1'
_symmetry_Int_Tables_number      2
_space_group_name_Hall           '-P 1'
loop_
_symmetry_equiv_pos_site_id
_symmetry_equiv_pos_as_xyz
1 x,y,z
2 -x,-y,-z
_cell_length_a                   8.3504(6)
_cell_length_b                   10.5157(8)
_cell_length_c                   11.8710(9)
_cell_angle_alpha                99.5090(10)
_cell_angle_beta                 100.8330(10)
_cell_angle_gamma                107.0080(10)
_cell_volume                     951.76
loop_
_atom_site_label
_atom_site_type_symbol
_atom_site_fract_x
_atom_site_fract_y
_atom_site_fract_z
W1 W 0.347045(11) 0.813677(9) 0.727214(8)
C1 C 0.6098(3) 0.8818(2) 0.8322(2)
N1 N 0.7484(3) 0.9165(2) 0.88965(18)
C2 C 0.4145(3) 0.6310(3) 0.7195(2)
N2 N 0.4460(3) 0.5318(2) 0.7106(2)
C3 C 0.3521(3) 0.7912(3) 0.9038(2)
N3 N 0.3401(3) 0.7793(3) 0.99667(19)
C4 C 0.4970(3) 0.7989(2) 0.6000(2)
N4 N 0.5765(3) 0.7882(2) 0.5321(2)
C5 C 0.4680(3) 1.0238(3) 0.7257(2)
N5 N 0.5353(3) 1.1347(2) 0.72281(19)
C6 C 1.1913(3) 0.9226(2) 0.8009(2)
N6 N 1.1129(3) 0.9727(2) 0.85157(18)
N7 N 0.1749(2) 0.8203(2) 0.56251(17)
N8 N 0.0970(2) 0.6458(2) 0.69654(17)
C7 C 0.2237(3) 0.9046(3) 0.4914(2)
H1 H 0.3386 0.9608 0.5096
C8 C 0.1110(3) 0.9111(3) 0.3932(2)
H2 H 0.1497 0.9701 0.3462
C9 C -0.0602(3) 0.8288(3) 0.3657(2)
H3 H -0.1389 0.8320 0.3004
C10 C -0.1123(3) 0.7416(3) 0.4371(2)
H4 H -0.2271 0.6854 0.4201
C11 C 0.0066(3) 0.7377(2) 0.5340(2)
C12 C -0.0367(3) 0.6410(2) 0.6084(2)
C13 C -0.2001(3) 0.5449(3) 0.5886(2)
H5 H -0.2907 0.5445 0.5293
C14 C -0.2278(3) 0.4505(3) 0.6568(2)
H6 H -0.3367 0.3859 0.6440
C15 C -0.0911(3) 0.4534(3) 0.7444(2)
H7 H -0.1064 0.3898 0.7907
C16 C 0.0681(3) 0.5519(3) 0.7623(2)
H8 H 0.1592 0.5538 0.8220
Co1 Co 1.0000 1.0000 1.0000
O1 O 0.9933(3) 1.1871(2) 0.9772(2)
H9 H 0.911(5) 1.202(4) 0.972(3)
H10 H 1.075(5) 1.253(4) 0.972(3)
W1A W 1.652955(11) 1.186323(9) 1.272786(8)
W1_2 W 1.347045(11) 0.813677(9) 0.727214(8)
W1A_2 W 0.652955(11) 1.186323(9) 1.272786(8)
C1A C 1.3902(3) 1.1182(2) 1.1678(2)
N1A N 1.2516(3) 1.0835(2) 1.11035(18)
C2A C 1.5855(3) 1.3690(3) 1.2805(2)
N2A N 1.5540(3) 1.4682(2) 1.2894(2)
C3A C 1.6479(3) 1.2088(3) 1.0962(2)
N3A N 1.6599(3) 1.2207(3) 1.00333(19)
C4A C 1.5030(3) 1.2011(2) 1.4000(2)
N4A N 1.4235(3) 1.2118(2) 1.4679(2)
C5A C 1.5320(3) 0.9762(3) 1.2743(2)
N5A N 1.4647(3) 0.8653(2) 1.27719(19)
C6A C 0.8087(3) 1.0774(2) 1.1991(2)
C6_2 C 0.1913(3) 0.9226(2) 0.8009(2)
C6A_2 C 1.8087(3) 1.0774(2) 1.1991(2)
N6A N 0.8871(3) 1.0273(2) 1.14843(18)
N7A N 1.8251(2) 1.1797(2) 1.43749(17)
N8A N 1.9030(2) 1.3542(2) 1.30346(17)
C7A C 1.7763(3) 1.0954(3) 1.5086(2)
H1A H 1.6614 1.0392 1.4904
C8A C 1.8890(3) 1.0889(3) 1.6068(2)
H2A H 1.8503 1.0299 1.6538
C9A C 2.0602(3) 1.1712(3) 1.6343(2)
H3A H 2.1389 1.1680 1.6996
C10A C 2.1123(3) 1.2584(3) 1.5629(2)
H4A H 2.2271 1.3146 1.5799
C11A C 1.9934(3) 1.2623(2) 1.4660(2)
C12A C 2.0367(3) 1.3590(2) 1.3916(2)
C13A C 2.2001(3) 1.4551(3) 1.4114(2)
H5A H 2.2907 1.4555 1.4707
C14A C 2.2278(3) 1.5495(3) 1.3432(2)
H6A H 2.3367 1.6141 1.3560
C15A C 2.0911(3) 1.5466(3) 1.2556(2)
H7A H 2.1064 1.6102 1.2093
C16A C 1.9319(3) 1.4481(3) 1.2377(2)
H8A H 1.8408 1.4462 1.1780
O1A O 1.0067(3) 0.8129(2) 1.0228(2)
H9A H 1.089(5) 0.798(4) 1.028(3)
H10A H 0.925(5) 0.747(4) 1.028(3)
O2 O 0.4817(3) 0.6181(2) 0.1295(2)
H11 H 0.520(12) 0.563(10) 0.202(9)
H12 H 0.469(10) 0.726(9) 0.162(7)
O3 O 0.2365(3) 0.4015(3) 0.9550(2)
H13 H 0.316(5) 0.358(4) 0.928(3)
H14 H 0.295(5) 0.459(4) 1.021(4)
loop_
_geom_bond_atom_site_label_1
_geom_bond_atom_site_label_2
_geom_bond_site_symmetry_1
_geom_bond_site_symmetry_2
W1 C1 1_555 1_555
C1 N1 1_555 1_555
N1 Co1 1_555 1_555
C2 W1 1_555 1_555
N2 C2 1_555 1_555
C3 W1 1_555 1_555
N3 C3 1_555 1_555
C4 W1 1_555 1_555
N4 C4 1_555 1_555
C5 W1 1_555 1_555
N5 C5 1_555 1_555
C6 N6 1_555 1_555
N6 Co1 1_555 1_555
N7 W1 1_555 1_555
N8 W1 1_555 1_555
C7 N7 1_555 1_555
H1 C7 1_555 1_555
C8 C7 1_555 1_555
H2 C8 1_555 1_555
C9 C8 1_555 1_555
H3 C9 1_555 1_555
C10 C9 1_555 1_555
H4 C10 1_555 1_555
C11 N7 1_555 1_555
C12 N8 1_555 1_555
C13 C12 1_555 1_555
H5 C13 1_555 1_555
C14 C13 1_555 1_555
H6 C14 1_555 1_555
C15 C14 1_555 1_555
H7 C15 1_555 1_555
C16 N8 1_555 1_555
H8 C16 1_555 1_555
Co1 O1 1_555 1_555
O1 H9 1_555 1_555
H10 O1 1_555 1_555
O2 H11 1_555 1_555
H12 O2 1_555 1_555
O3 H13 1_555 1_555
H14 O3 1_555 1_555
W1A C1A 1_555 1_555
W1_2 C6 1_555 1_555
W1A_2 C6A 1_555 1_555
C1A N1A 1_555 1_555
N1A Co1 1_555 1_555
C2A W1A 1_555 1_555
N2A C2A 1_555 1_555
C3A W1A 1_555 1_555
N3A C3A 1_555 1_555
C4A W1A 1_555 1_555
N4A C4A 1_555 1_555
C5A W1A 1_555 1_555
N5A C5A 1_555 1_555
C6A N6A 1_555 1_555
C6_2 W1 1_555 1_555
C6A_2 W1A 1_555 1_555
N6A Co1 1_555 1_555
N7A W1A 1_555 1_555
N8A W1A 1_555 1_555
C7A N7A 1_555 1_555
H1A C7A 1_555 1_555
C8A C7A 1_555 1_555
H2A C8A 1_555 1_555
C9A C8A 1_555 1_555
H3A C9A 1_555 1_555
C10A C9A 1_555 1_555
H4A C10A 1_555 1_555
C11A N7A 1_555 1_555
C12A N8A 1_555 1_555
C13A C12A 1_555 1_555
H5A C13A 1_555 1_555
C14A C13A 1_555 1_555
H6A C14A 1_555 1_555
C15A C14A 1_555 1_555
H7A C15A 1_555 1_555
C16A N8A 1_555 1_555
H8A C16A 1_555 1_555
O1A Co1 1_555 1_555
H9A O1A 1_555 1_555
H10A O1A 1_555 1_555
C10 C11 1_555 1_555
C11 C12 1_555 1_555
C15 C16 1_555 1_555
C10A C11A 1_555 1_555
C11A C12A 1_555 1_555
C15A C16A 1_555 1_555

#END
