
#######################################################################
#
#                 Cambridge Crystallographic Data Centre
#                                CCDC 
#
#######################################################################
#
# If this CIF has been generated from an entry in the Cambridge 
# Structural Database, then it will include bibliographic, chemical, 
# crystal, experimental, refinement or atomic coordinate data resulting 
# from the CCDC's data processing and validation procedures.
#
#######################################################################

data_LEYNEI
_symmetry_cell_setting           triclinic
_symmetry_space_group_name_H-M   'P -1'
_symmetry_Int_Tables_number      2
_space_group_name_Hall           '-P 1'
loop_
_symmetry_equiv_pos_site_id
_symmetry_equiv_pos_as_xyz
1 x,y,z
2 -x,-y,-z
_cell_length_a                   11.486(2)
_cell_length_b                   11.706(3)
_cell_length_c                   12.291(3)
_cell_angle_alpha                77.42(2)
_cell_angle_beta                 67.59(2)
_cell_angle_gamma                77.96(2)
_cell_volume                     1476.6
loop_
_atom_site_label
_atom_site_type_symbol
_atom_site_fract_x
_atom_site_fract_y
_atom_site_fract_z
Cl1 Cl 0.2834(2) 0.7546(2) 0.1898(2)
O1 O 0.1849(12) 0.8320(15) 0.2255(11)
O2 O 0.3981(10) 0.7975(14) 0.1594(18)
O3 O 0.2928(5) 0.7126(5) 0.0865(5)
O4 O 0.3043(12) 0.6600(12) 0.2693(8)
N1 N 0.5271(5) 0.1416(4) 0.1571(4)
N2 N 0.4705(4) 0.0183(4) 0.3690(4)
N3 N 0.3915(5) 0.3257(4) 0.3538(4)
N4 N 0.3401(5) 0.3440(5) 0.4553(5)
N5 N 0.2888(9) 0.3565(8) 0.5524(6)
N6 N 0.5623(5) 0.5180(4) 0.3041(4)
N7 N 0.5689(4) 0.5413(4) 0.0852(4)
N8 N 1.1288(5) 0.3398(4) 0.2710(4)
N9 N 1.0258(4) 0.4879(4) 0.1321(4)
N10 N 1.1374(4) 0.1494(4) 0.1342(4)
N11 N 1.1950(5) 0.1133(4) 0.0397(4)
N12 N 1.2533(7) 0.0791(6) -0.0475(5)
N13 N 0.9405(5) -0.0215(4) 0.1967(4)
N14 N 0.9373(4) -0.0486(4) 0.4144(4)
N15 N 0.6854(6) 0.2626(4) 0.2259(4)
N16 N 0.7777(5) 0.2570(4) 0.2501(4)
N17 N 0.8695(5) 0.2551(5) 0.2706(5)
O5 O 0.4258(4) -0.1276(3) 0.5347(3)
O6 O 0.5881(4) 0.6043(3) -0.1129(3)
O7 O 0.9658(4) 0.6527(3) 0.0106(3)
O8 O 0.9076(4) -0.0990(3) 0.6150(3)
C1 C 0.4215(7) 0.0720(6) 0.1929(6)
C2 C 0.4287(6) -0.0270(5) 0.2909(5)
C3 C 0.4704(5) -0.0330(5) 0.4727(5)
C4 C 0.6734(7) 0.5658(7) 0.2110(6)
C5 C 0.6476(6) 0.6164(6) 0.0979(5)
C6 C 0.5464(5) 0.5434(4) -0.0102(5)
C7 C 1.0484(8) 0.4434(6) 0.3207(6)
C8 C 1.0347(7) 0.5426(5) 0.2235(5)
C9 C 0.9970(5) 0.5420(4) 0.0406(4)
C10 C 0.8301(6) -0.0699(6) 0.2901(5)
C11 C 0.8614(6) -0.1266(5) 0.4012(5)
C12 C 0.9551(5) -0.0434(4) 0.5100(4)
Cu1 Cu 0.5530(1) 0.1580(1) 0.3058(1)
Cu2 Cu 0.4798(1) 0.4420(1) 0.2255(1)
Cu3 Cu 1.0719(1) 0.3194(1) 0.1409(1)
Cu4 Cu 1.0295(1) 0.0485(1) 0.2730(1)
C3A C 0.5296(5) 0.0330(5) 0.5273(5)
N2A N 0.5295(4) -0.0183(4) 0.6310(4)
C2A C 0.5713(6) 0.0270(5) 0.7091(5)
C1A C 0.5785(7) -0.0720(6) 0.8071(6)
N1A N 0.4729(5) -0.1416(4) 0.8429(4)
O5A O 0.5742(4) 0.1276(3) 0.4653(3)
C6A C 0.4536(5) 0.4566(4) 0.0102(5)
N7A N 0.4311(4) 0.4587(4) -0.0852(4)
C5A C 0.3524(6) 0.3836(6) -0.0979(5)
C4A C 0.3266(7) 0.4342(7) -0.2110(6)
N6A N 0.4377(5) 0.4820(4) -0.3041(4)
O6A O 0.4119(4) 0.3957(3) 0.1129(3)
C9A C 1.0030(5) 0.4580(4) -0.0406(4)
N9A N 0.9742(4) 0.5121(4) -0.1321(4)
C8A C 0.9653(7) 0.4574(5) -0.2235(5)
C7A C 0.9516(8) 0.5566(6) -0.3207(6)
N8A N 0.8712(5) 0.6602(4) -0.2710(4)
O7A O 1.0342(4) 0.3473(3) -0.0106(3)
C12A C 1.0449(5) 0.0434(4) 0.4900(4)
N14A N 1.0627(4) 0.0486(4) 0.5856(4)
C11A C 1.1386(6) 0.1266(5) 0.5988(5)
C10A C 1.1699(6) 0.0699(6) 0.7099(5)
N13A N 1.0595(5) 0.0215(4) 0.8033(4)
O8A O 1.0924(4) 0.0990(3) 0.3850(3)
Cu1A Cu 0.4470(1) -0.1580(1) 0.6942(1)
N3A N 0.6085(5) -0.3257(4) 0.6462(4)
N15A N 0.3146(6) -0.2626(4) 0.7741(4)
N16A N 0.2223(5) -0.2570(4) 0.7499(4)
N17A N 0.1305(5) -0.2551(5) 0.7294(5)
Cu2A Cu 0.5202(1) 0.5580(1) -0.2255(1)
Cu3A Cu 0.9281(1) 0.6806(1) -0.1409(1)
Cu3A_2 Cu -0.0719(1) -0.3194(1) 0.8591(1)
N10A N 0.8626(4) 0.8506(4) -0.1342(4)
N17A_2 N 1.1305(5) 0.7449(5) -0.2706(5)
Cu4A Cu 0.9705(1) -0.0485(1) 0.7270(1)
N3A_2 N 0.6085(5) 0.6743(4) -0.3538(4)
N10A_2 N 0.8626(4) -0.1494(4) 0.8658(4)
N4A N 0.6599(5) 0.6560(5) -0.4553(5)
Cu1A_2 Cu 0.4470(1) 0.8420(1) -0.3058(1)
N11A N 0.8050(5) -0.1133(4) 0.9603(4)
Cu3A_3 Cu 0.9281(1) -0.3194(1) 0.8591(1)
N5A N 0.7112(9) 0.6435(8) -0.5524(6)
N12A N 0.7467(7) -0.0791(6) 1.0475(5)
O9 O 0.0884(4) 0.8362(4) 0.0058(4)
O10? O 0.4225(5) 0.3389(4) 0.5075(4)
loop_
_geom_bond_atom_site_label_1
_geom_bond_atom_site_label_2
_geom_bond_site_symmetry_1
_geom_bond_site_symmetry_2
Cl1 O1 1_555 1_555
O2 Cl1 1_555 1_555
O3 Cl1 1_555 1_555
O4 Cl1 1_555 1_555
N1 C1 1_555 1_555
N2 C2 1_555 1_555
N3 N4 1_555 1_555
N4 N5 1_555 1_555
N6 C4 1_555 1_555
N7 C5 1_555 1_555
N8 C7 1_555 1_555
N9 C8 1_555 1_555
N10 N11 1_555 1_555
N11 N12 1_555 1_555
N13 C10 1_555 1_555
N14 C11 1_555 1_555
N15 N16 1_555 1_555
N16 N17 1_555 1_555
N17 Cu3 1_555 1_555
O5 C3 1_555 1_555
O6 C6 1_555 1_555
O7 C9 1_555 1_555
O8 C12 1_555 1_555
C1 C2 1_555 1_555
C3 N2 1_555 1_555
C4 C5 1_555 1_555
C6 N7 1_555 1_555
C7 C8 1_555 1_555
C9 N9 1_555 1_555
C10 C11 1_555 1_555
C12 N14 1_555 1_555
Cu1 N1 1_555 1_555
Cu2 N3 1_555 1_555
Cu3 N8 1_555 1_555
Cu4 N10 1_555 1_555
C3A C3 1_555 1_555
N2A C3A 1_555 1_555
C2A N2A 1_555 1_555
C1A C2A 1_555 1_555
N1A C1A 1_555 1_555
O5A Cu1 1_555 1_555
C6A C6 1_555 1_555
N7A C6A 1_555 1_555
C5A N7A 1_555 1_555
C4A C5A 1_555 1_555
N6A C4A 1_555 1_555
O6A Cu2 1_555 1_555
C9A C9 1_555 1_555
N9A C9A 1_555 1_555
C8A N9A 1_555 1_555
C7A C8A 1_555 1_555
N8A C7A 1_555 1_555
O7A Cu3 1_555 1_555
C12A C12 1_555 1_555
N14A C12A 1_555 1_555
C11A N14A 1_555 1_555
C10A C11A 1_555 1_555
N13A C10A 1_555 1_555
O8A Cu4 1_555 1_555
Cu1A O5 1_555 1_555
N3A Cu1A 1_555 1_555
N15A Cu1A 1_555 1_555
N16A N15A 1_555 1_555
N17A N16A 1_555 1_555
Cu2A O6 1_555 1_555
Cu3A O7 1_555 1_555
Cu3A_2 N17A 1_555 1_555
N10A Cu3A 1_555 1_555
N17A_2 Cu3A 1_555 1_555
Cu4A O8 1_555 1_555
N3A_2 Cu2A 1_555 1_555
N10A_2 Cu4A 1_555 1_555
N4A N3A_2 1_555 1_555
Cu1A_2 N3A_2 1_555 1_555
N11A N10A_2 1_555 1_555
Cu3A_3 N10A_2 1_555 1_555
N5A N4A 1_555 1_555
N12A N11A 1_555 1_555
N2 Cu1 1_555 1_555
N3 Cu1 1_555 1_555
N6 Cu2 1_555 1_555
N7 Cu2 1_555 1_555
N9 Cu3 1_555 1_555
N10 Cu3 1_555 1_555
N13 Cu4 1_555 1_555
N14 Cu4 1_555 1_555
N15 Cu1 1_555 1_555
C3A O5A 1_555 1_555
N2A Cu1A 1_555 1_555
N1A Cu1A 1_555 1_555
C6A O6A 1_555 1_555
N7A Cu2A 1_555 1_555
N6A Cu2A 1_555 1_555
C9A O7A 1_555 1_555
N9A Cu3A 1_555 1_555
N8A Cu3A 1_555 1_555
C12A O8A 1_555 1_555
N14A Cu4A 1_555 1_555
N13A Cu4A 1_555 1_555

#END
