
#######################################################################
#
#                 Cambridge Crystallographic Data Centre
#                                CCDC 
#
#######################################################################
#
# If this CIF has been generated from an entry in the Cambridge 
# Structural Database, then it will include bibliographic, chemical, 
# crystal, experimental, refinement or atomic coordinate data resulting 
# from the CCDC's data processing and validation procedures.
#
#######################################################################

data_LEYNAE
_symmetry_cell_setting           monoclinic
_symmetry_space_group_name_H-M   'P 21/c'
_symmetry_Int_Tables_number      14
_space_group_name_Hall           '-P 2ybc'
loop_
_symmetry_equiv_pos_site_id
_symmetry_equiv_pos_as_xyz
1 x,y,z
2 -x,1/2+y,1/2-z
3 -x,-y,-z
4 x,1/2-y,1/2+z
_cell_length_a                   8.721(2)
_cell_length_b                   8.679(2)
_cell_length_c                   16.741(2)
_cell_angle_alpha                90
_cell_angle_beta                 98.59(1)
_cell_angle_gamma                90
_cell_volume                     1252.9
loop_
_atom_site_label
_atom_site_type_symbol
_atom_site_fract_x
_atom_site_fract_y
_atom_site_fract_z
Cu1 Cu 0.1353(1) 0.5638(1) 0.6478(1)
N1 N 0.1730(5) 0.5869(6) 0.5380(2)
N2 N 0.3588(5) 0.6344(7) 0.6727(3)
N3 N 0.1030(5) 0.4956(6) 0.7589(2)
N4 N -0.0169(5) 0.3135(6) 0.8351(3)
O1 O 0.0669(4) 0.5268(5) 0.4065(2)
C1 C 0.0688(5) 0.5318(6) 0.4827(3)
C2 C 0.3235(6) 0.6461(10) 0.5269(3)
C3 C 0.4270(8) 0.6364(17) 0.5993(4)
C4 C 0.5833(7) 0.7080(11) 0.6040(4)
C5 C 0.0086(7) 0.3795(7) 0.7665(3)
C6 C 0.0580(7) 0.3781(8) 0.9027(3)
C7 C 0.1555(8) 0.5004(8) 0.9010(3)
C8 C 0.1769(7) 0.5565(7) 0.8275(3)
H1 H 0.3573(89) 0.7420(56) 0.6885(44)
H2 H 0.401(14) 0.566(12) 0.7173(55)
H3 H 0.3125 0.7516 0.5097
H4 H 0.3636 0.5864 0.4864
H5 H 0.6161 0.7027 0.5518
H6 H 0.6553 0.6524 0.6425
H7 H 0.5798 0.8137 0.6205
H8 H -0.0531(69) 0.3364(77) 0.7168(30)
H9 H 0.0442(54) 0.3281(57) 0.9557(24)
H10 H 0.2049(70) 0.5454(74) 0.9520(29)
H11 H 0.2326(80) 0.6510(65) 0.8256(44)
C1B C -0.0688(5) 0.4682(6) 0.5173(3)
N1B N -0.1730(5) 0.4131(6) 0.4620(2)
C2B C -0.3235(6) 0.3539(10) 0.4731(3)
C3B C -0.4270(8) 0.3636(17) 0.4007(4)
N2B N -0.3588(5) 0.3656(7) 0.3273(3)
H1B H -0.3573(89) 0.2580(56) 0.3115(44)
H2B H -0.401(14) 0.434(12) 0.2827(55)
C4B C -0.5833(7) 0.2920(11) 0.3960(4)
H5B H -0.6161 0.2973 0.4482
H6B H -0.6553 0.3476 0.3575
H7B H -0.5798 0.1863 0.3795
H3B H -0.3125 0.2484 0.4903
H4B H -0.3636 0.4136 0.5136
O1B O -0.0669(4) 0.4732(5) 0.5935(2)
N3A N -0.1030(5) 0.9956(6) 0.7411(2)
N4A N 0.0169(5) 0.8135(6) 0.6649(3)
C5A C -0.0086(7) 0.8795(7) 0.7335(3)
C6A C -0.0580(7) 0.8781(8) 0.5973(3)
C7A C -0.1555(8) 1.0004(8) 0.5990(3)
C8A C -0.1769(7) 1.0565(7) 0.6725(3)
H8A H 0.0531(69) 0.8364(77) 0.7832(30)
H9A H -0.0442(54) 0.8281(57) 0.5443(24)
H10A H -0.2049(70) 1.0454(74) 0.5480(29)
H11A H -0.2326(80) 1.1510(65) 0.6744(44)
Cu1B Cu -0.1353(1) 0.4362(1) 0.3522(1)
Cu1A Cu -0.1353(1) 0.0638(1) 0.8522(1)
Cu1A_2 Cu -0.1353(1) 1.0638(1) 0.8522(1)
N3B N -0.1030(5) 0.5044(6) 0.2411(2)
N4C N -0.0169(5) 0.1865(6) 0.3351(3)
Cl1 Cl 0.3349(2) 0.1472(2) 0.6444(1)
O2 O 0.3580(11) 0.0216(9) 0.6986(4)
O3 O 0.4548(12) 0.2484(13) 0.6599(7)
O4 O 0.3032(30) 0.0963(17) 0.5718(5)
O5 O 0.2189(19) 0.2321(22) 0.6515(17)
loop_
_geom_bond_atom_site_label_1
_geom_bond_atom_site_label_2
_geom_bond_site_symmetry_1
_geom_bond_site_symmetry_2
Cu1 N1 1_555 1_555
Cl1 O2 1_555 1_555
N1 C1 1_555 1_555
N2 Cu1 1_555 1_555
N3 Cu1 1_555 1_555
N4 C5 1_555 1_555
O1 C1 1_555 1_555
O3 Cl1 1_555 1_555
O4 Cl1 1_555 1_555
O5 Cl1 1_555 1_555
C1 C1B 1_555 1_555
C2 N1 1_555 1_555
C3 N2 1_555 1_555
C4 C3 1_555 1_555
C5 N3 1_555 1_555
C6 N4 1_555 1_555
C7 C6 1_555 1_555
C8 N3 1_555 1_555
H1 N2 1_555 1_555
H2 N2 1_555 1_555
H3 C2 1_555 1_555
H4 C2 1_555 1_555
H5 C4 1_555 1_555
H6 C4 1_555 1_555
H7 C4 1_555 1_555
H8 C5 1_555 1_555
H9 C6 1_555 1_555
H10 C7 1_555 1_555
H11 C8 1_555 1_555
C1B N1B 1_555 1_555
N1B C2B 1_555 1_555
C2B C3B 1_555 1_555
C3B N2B 1_555 1_555
N2B H1B 1_555 1_555
H2B N2B 1_555 1_555
C4B C3B 1_555 1_555
H5B C4B 1_555 1_555
H6B C4B 1_555 1_555
H7B C4B 1_555 1_555
H3B C2B 1_555 1_555
H4B C2B 1_555 1_555
O1B Cu1 1_555 1_555
N3A C5A 1_555 1_555
N4A Cu1 1_555 1_555
C5A N4A 1_555 1_555
C6A N4A 1_555 1_555
C7A C6A 1_555 1_555
C8A N3A 1_555 1_555
H8A C5A 1_555 1_555
H9A C6A 1_555 1_555
H10A C7A 1_555 1_555
H11A C8A 1_555 1_555
Cu1B O1 1_555 1_555
Cu1A N4 1_555 1_555
Cu1A_2 N3A 1_555 1_555
N3B Cu1B 1_555 1_555
N4C Cu1B 1_555 1_555
C2 C3 1_555 1_555
C7 C8 1_555 1_555
C1B O1B 1_555 1_555
N1B Cu1B 1_555 1_555
N2B Cu1B 1_555 1_555
C7A C8A 1_555 1_555

#END
