
#######################################################################
#
#                 Cambridge Crystallographic Data Centre
#                                CCDC 
#
#######################################################################
#
# If this CIF has been generated from an entry in the Cambridge 
# Structural Database, then it will include bibliographic, chemical, 
# crystal, experimental, refinement or atomic coordinate data resulting 
# from the CCDC's data processing and validation procedures.
#
#######################################################################

data_LEYPIQ
_symmetry_cell_setting           triclinic
_symmetry_space_group_name_H-M   'P -1'
_symmetry_Int_Tables_number      2
_space_group_name_Hall           '-P 1'
loop_
_symmetry_equiv_pos_site_id
_symmetry_equiv_pos_as_xyz
1 x,y,z
2 -x,-y,-z
_cell_length_a                   8.6812(17)
_cell_length_b                   12.218(2)
_cell_length_c                   12.684(3)
_cell_angle_alpha                75.83(3)
_cell_angle_beta                 78.08(3)
_cell_angle_gamma                83.64(3)
_cell_volume                     1273.72
loop_
_atom_site_label
_atom_site_type_symbol
_atom_site_fract_x
_atom_site_fract_y
_atom_site_fract_z
Sm1 Sm 0.314857(9) 0.291917(7) 0.201345(6)
Na1 Na 0.31657(8) 0.54230(6) -0.05146(5)
C1 C 0.01701(18) 0.32086(13) 0.43007(12)
O1 O 0.04035(13) 0.30725(10) 0.32200(9)
C2 C -0.09515(18) 0.28653(15) 0.28284(13)
H1 H -0.1828 0.3426 0.2992
H2 H -0.1302 0.2101 0.3209
C3 C -0.05219(18) 0.29560(12) 0.15899(13)
O2 O 0.09134(13) 0.30473(10) 0.11242(9)
O3 O -0.16324(13) 0.29367(10) 0.11101(10)
C4 C 0.14061(18) 0.36826(13) 0.45618(12)
O4 O 0.26578(13) 0.39536(10) 0.36988(9)
C5 C 0.38857(19) 0.45215(14) 0.39004(13)
H3 H 0.4324 0.406 0.4542
H4 H 0.3464 0.526 0.4066
C6 C 0.51613(18) 0.46956(13) 0.28699(13)
O5 O 0.50859(13) 0.41514(10) 0.21518(9)
O6 O 0.62097(14) 0.53354(11) 0.28229(11)
C7 C 0.1306(2) 0.38388(14) 0.56185(13)
H5 H 0.2139 0.416 0.5797
C8 C -0.0031(2) 0.35201(15) 0.64200(13)
H6 H -0.0105 0.3625 0.7147
C9 C -0.1247(2) 0.30534(14) 0.61656(13)
H7 H -0.2148 0.2834 0.6719
C10 C -0.11574(19) 0.29027(14) 0.50966(13)
H8 H -0.2 0.2593 0.4918
C11 C 0.26645(19) 0.07386(13) 0.06117(14)
O7 O 0.35269(14) 0.16564(10) 0.04897(10)
C12 C 0.4478(2) 0.20319(14) -0.05764(13)
H9 H 0.3815 0.2198 -0.1152
H10 H 0.5295 0.1432 -0.0737
C13 C 0.52530(18) 0.30868(13) -0.05905(12)
O8 O 0.46658(13) 0.36335(9) 0.01584(9)
O9 O 0.63701(14) 0.33661(10) -0.13598(10)
C14 C 0.1799(2) 0.03437(14) 0.16675(14)
O10 O 0.19488(15) 0.09125(10) 0.24622(9)
C15 C 0.1702(2) 0.02416(16) 0.35738(14)
H11 H 0.2134 -0.0544 0.3579
H12 H 0.0558 0.0223 0.3882
C16 C 0.2511(2) 0.07438(15) 0.42709(14)
O11 O 0.31482(14) 0.16673(10) 0.38267(10)
O12 O 0.24849(19) 0.01868(12) 0.52372(11)
C17 C 0.0881(2) -0.05743(15) 0.18882(15)
H13 H 0.0266 -0.0825 0.2604
C18 C 0.0872(2) -0.11252(15) 0.10475(17)
H14 H 0.0267 -0.1766 0.1196
C19 C 0.1733(2) -0.07454(16) 0.00071(17)
H15 H 0.1718 -0.1125 -0.056
C20 C 0.2629(2) 0.01918(15) -0.02237(15)
H16 H 0.3212 0.0456 -0.0947
O13 O 0.20934(14) 0.49056(10) 0.13838(10)
H17 H 0.1198(18) 0.506(2) 0.143(2)
H18 H 0.248(3) 0.5439(18) 0.150(2)
O14 O 0.56390(14) 0.18433(11) 0.19725(11)
H19 H 0.579(3) 0.1204(13) 0.2269(18)
H20 H 0.637(2) 0.2168(17) 0.182(2)
O15 O 0.11251(16) 0.44503(12) -0.11025(11)
H21 H 0.170(2) 0.431(2) -0.1648(14)
H22 H 0.100(3) 0.3916(17) -0.0618(15)
Na1A Na -0.31657(8) 0.45770(6) 0.05146(5)
Na1A_2 Na 0.68343(8) 0.45770(6) 0.05146(5)
O3A O 0.16324(13) 0.70633(10) -0.11101(10)
O5A O 0.49141(13) 0.58486(10) -0.21518(9)
O8A O 0.53342(13) 0.63665(9) -0.01584(9)
O16 O 0.5148(2) -0.23869(15) 0.32356(14)
H23 H 0.488(4) -0.243(2) 0.3948(14)
H24 H 0.552(5) -0.306(2) 0.320(3)
O17 O 0.6292(3) -0.02899(14) 0.29671(14)
H25 H 0.601(3) -0.0857(17) 0.294(2)
H26 H 0.666(3) -0.036(2) 0.3521(19)
O18 O 0.43044(18) -0.19432(14) 0.53164(13)
H27 H 0.510(2) -0.188(2) 0.555(2)
H28 H 0.392(2) -0.1344(15) 0.5155(19)
loop_
_geom_bond_atom_site_label_1
_geom_bond_atom_site_label_2
_geom_bond_site_symmetry_1
_geom_bond_site_symmetry_2
Sm1 O1 1_555 1_555
Na1 O8 1_555 1_555
C1 O1 1_555 1_555
O1 C2 1_555 1_555
C2 H1 1_555 1_555
H2 C2 1_555 1_555
C3 C2 1_555 1_555
O2 Sm1 1_555 1_555
O3 C3 1_555 1_555
C4 C1 1_555 1_555
O4 Sm1 1_555 1_555
C5 O4 1_555 1_555
H3 C5 1_555 1_555
H4 C5 1_555 1_555
C6 C5 1_555 1_555
O5 Sm1 1_555 1_555
O6 C6 1_555 1_555
C7 C4 1_555 1_555
H5 C7 1_555 1_555
C8 C7 1_555 1_555
H6 C8 1_555 1_555
C9 C8 1_555 1_555
H7 C9 1_555 1_555
C10 C1 1_555 1_555
H8 C10 1_555 1_555
C11 O7 1_555 1_555
O7 Sm1 1_555 1_555
C12 O7 1_555 1_555
H9 C12 1_555 1_555
H10 C12 1_555 1_555
C13 C12 1_555 1_555
O8 Sm1 1_555 1_555
O9 C13 1_555 1_555
C14 C11 1_555 1_555
O10 Sm1 1_555 1_555
C15 O10 1_555 1_555
H11 C15 1_555 1_555
H12 C15 1_555 1_555
C16 C15 1_555 1_555
O11 Sm1 1_555 1_555
O12 C16 1_555 1_555
C17 C14 1_555 1_555
H13 C17 1_555 1_555
C18 C17 1_555 1_555
H14 C18 1_555 1_555
C19 C18 1_555 1_555
H15 C19 1_555 1_555
C20 C11 1_555 1_555
H16 C20 1_555 1_555
O13 Sm1 1_555 1_555
H17 O13 1_555 1_555
H18 O13 1_555 1_555
O14 Sm1 1_555 1_555
H19 O14 1_555 1_555
H20 O14 1_555 1_555
O15 Na1 1_555 1_555
H21 O15 1_555 1_555
H22 O15 1_555 1_555
O16 H23 1_555 1_555
H24 O16 1_555 1_555
O17 H25 1_555 1_555
H26 O17 1_555 1_555
O18 H27 1_555 1_555
H28 O18 1_555 1_555
Na1A O3 1_555 1_555
Na1A_2 O5 1_555 1_555
O3A Na1 1_555 1_555
O5A Na1 1_555 1_555
O8A Na1 1_555 1_555
Na1 O13 1_555 1_555
C3 O2 1_555 1_555
C4 O4 1_555 1_555
C6 O5 1_555 1_555
C9 C10 1_555 1_555
C13 O8 1_555 1_555
O8 Na1A_2 1_555 1_555
C14 O10 1_555 1_555
C16 O11 1_555 1_555
C19 C20 1_555 1_555
Na1A_2 O8A 1_555 1_555

#END
