
#######################################################################
#
#                 Cambridge Crystallographic Data Centre
#                                CCDC 
#
#######################################################################
#
# If this CIF has been generated from an entry in the Cambridge 
# Structural Database, then it will include bibliographic, chemical, 
# crystal, experimental, refinement or atomic coordinate data resulting 
# from the CCDC's data processing and validation procedures.
#
#######################################################################

data_LEYPOW
_symmetry_cell_setting           triclinic
_symmetry_space_group_name_H-M   'P -1'
_symmetry_Int_Tables_number      2
_space_group_name_Hall           '-P 1'
loop_
_symmetry_equiv_pos_site_id
_symmetry_equiv_pos_as_xyz
1 x,y,z
2 -x,-y,-z
_cell_length_a                   8.7173(4)
_cell_length_b                   12.2485(6)
_cell_length_c                   12.7440(6)
_cell_angle_alpha                75.7460(10)
_cell_angle_beta                 78.2500(10)
_cell_angle_gamma                83.7000(10)
_cell_volume                     1288.65
loop_
_atom_site_label
_atom_site_type_symbol
_atom_site_fract_x
_atom_site_fract_y
_atom_site_fract_z
Ce1 Ce 0.317307(7) 0.290213(5) 0.202039(5)
Na1 Na 0.31686(6) 0.54132(4) -0.05290(4)
C1 C 0.01664(13) 0.32221(10) 0.42984(9)
O1 O 0.03851(10) 0.30911(8) 0.32235(7)
C2 C -0.09668(14) 0.28794(11) 0.28368(10)
H1 H -0.1837 0.3441 0.2994
H2 H -0.1317 0.2118 0.3224
C3 C -0.05487(13) 0.29582(10) 0.16005(10)
O2 O 0.08752(10) 0.30374(8) 0.11332(7)
O3 O -0.16617(10) 0.29382(8) 0.11285(8)
C4 C 0.14109(13) 0.36784(10) 0.45599(9)
O4 O 0.26737(10) 0.39412(8) 0.37125(7)
C5 C 0.38817(14) 0.45264(10) 0.39122(10)
H3 H 0.4323 0.4073 0.4552
H4 H 0.3442 0.5259 0.4077
C6 C 0.51577(13) 0.47201(10) 0.28918(10)
O5 O 0.51123(10) 0.41852(8) 0.21671(7)
O6 O 0.61834(11) 0.53732(9) 0.28537(8)
C7 C 0.13164(15) 0.38315(11) 0.56150(10)
H5 H 0.2152 0.4144 0.5795
C8 C -0.00181(16) 0.35215(11) 0.64105(10)
H6 H -0.0083 0.3621 0.7135
C9 C -0.12463(15) 0.30704(11) 0.61565(10)
H7 H -0.2146 0.2859 0.6704
C10 C -0.11576(14) 0.29259(11) 0.50872(10)
H8 H -0.2003 0.2626 0.4905
C11 C 0.26950(14) 0.07373(10) 0.05842(10)
O7 O 0.35506(11) 0.16620(8) 0.04674(7)
C12 C 0.45109(15) 0.20350(11) -0.05890(10)
H9 H 0.3857 0.2201 -0.1167
H10 H 0.5318 0.1432 -0.0741
C13 C 0.52974(13) 0.30846(10) -0.06133(9)
O8 O 0.47304(10) 0.36325(7) 0.01344(7)
O9 O 0.64063(11) 0.33538(8) -0.13803(8)
C14 C 0.18587(15) 0.03155(10) 0.16379(10)
O10 O 0.20121(12) 0.08576(8) 0.24467(7)
C15 C 0.17322(19) 0.01745(12) 0.35471(11)
H11 H 0.2184 -0.0604 0.3551
H12 H 0.0588 0.0142 0.3827
C16 C 0.24768(15) 0.06728(11) 0.42811(10)
O11 O 0.31006(11) 0.16052(8) 0.38705(7)
O12 O 0.24162(15) 0.01038(9) 0.52442(9)
C17 C 0.09535(17) -0.06079(11) 0.18440(11)
H13 H 0.0358 -0.0879 0.2557
C18 C 0.09301(17) -0.11305(11) 0.09941(13)
H14 H 0.0337 -0.1773 0.1132
C19 C 0.17605(17) -0.07217(12) -0.00446(12)
H15 H 0.1731 -0.1082 -0.062
C20 C 0.26465(16) 0.02179(11) -0.02620(11)
H16 H 0.3212 0.05 -0.0983
O13 O 0.20725(11) 0.49338(8) 0.13561(8)
H17 H 0.1186(16) 0.5102(16) 0.1385(17)
H18 H 0.253(2) 0.5450(16) 0.1423(19)
O14 O 0.56956(11) 0.18013(8) 0.20253(9)
H19 H 0.587(2) 0.1171(13) 0.2339(17)
H20 H 0.648(2) 0.2116(15) 0.1821(16)
O15 O 0.11757(12) 0.44373(9) -0.11048(9)
H21 H 0.178(2) 0.4248(18) -0.1635(13)
H22 H 0.096(2) 0.3887(15) -0.0630(14)
Na1A Na -0.31686(6) 0.45868(4) 0.05290(4)
Na1A_2 Na 0.68314(6) 0.45868(4) 0.05290(4)
O3A O 0.16617(10) 0.70618(8) -0.11285(8)
O5A O 0.48877(10) 0.58148(8) -0.21671(7)
O8A O 0.52696(10) 0.63675(7) -0.01344(7)
O16 O 0.51491(18) -0.23642(12) 0.32375(11)
H23 H 0.486(3) -0.2372(18) 0.3961(13)
H24 H 0.547(5) -0.3042(19) 0.327(3)
O17 O 0.6481(2) -0.03206(10) 0.29616(11)
H25 H 0.610(3) -0.0866(16) 0.2989(18)
H26 H 0.675(2) -0.0379(17) 0.3552(14)
O18 O 0.43474(14) -0.19570(11) 0.53129(10)
H27 H 0.514(2) -0.188(2) 0.554(2)
H28 H 0.389(2) -0.1370(15) 0.5184(19)
loop_
_geom_bond_atom_site_label_1
_geom_bond_atom_site_label_2
_geom_bond_site_symmetry_1
_geom_bond_site_symmetry_2
Ce1 O1 1_555 1_555
Na1 O8 1_555 1_555
C1 O1 1_555 1_555
O1 C2 1_555 1_555
C2 H1 1_555 1_555
H2 C2 1_555 1_555
C3 C2 1_555 1_555
O2 Ce1 1_555 1_555
O3 C3 1_555 1_555
C4 C1 1_555 1_555
O4 Ce1 1_555 1_555
C5 O4 1_555 1_555
H3 C5 1_555 1_555
H4 C5 1_555 1_555
C6 C5 1_555 1_555
O5 Ce1 1_555 1_555
O6 C6 1_555 1_555
C7 C4 1_555 1_555
H5 C7 1_555 1_555
C8 C7 1_555 1_555
H6 C8 1_555 1_555
C9 C8 1_555 1_555
H7 C9 1_555 1_555
C10 C1 1_555 1_555
H8 C10 1_555 1_555
C11 O7 1_555 1_555
O7 Ce1 1_555 1_555
C12 O7 1_555 1_555
H9 C12 1_555 1_555
H10 C12 1_555 1_555
C13 C12 1_555 1_555
O8 Ce1 1_555 1_555
O9 C13 1_555 1_555
C14 C11 1_555 1_555
O10 Ce1 1_555 1_555
C15 O10 1_555 1_555
H11 C15 1_555 1_555
H12 C15 1_555 1_555
C16 C15 1_555 1_555
O11 Ce1 1_555 1_555
O12 C16 1_555 1_555
C17 C14 1_555 1_555
H13 C17 1_555 1_555
C18 C17 1_555 1_555
H14 C18 1_555 1_555
C19 C18 1_555 1_555
H15 C19 1_555 1_555
C20 C11 1_555 1_555
H16 C20 1_555 1_555
O13 Ce1 1_555 1_555
H17 O13 1_555 1_555
H18 O13 1_555 1_555
O14 Ce1 1_555 1_555
H19 O14 1_555 1_555
H20 O14 1_555 1_555
O15 Na1 1_555 1_555
H21 O15 1_555 1_555
H22 O15 1_555 1_555
O16 H23 1_555 1_555
H24 O16 1_555 1_555
O17 H25 1_555 1_555
H26 O17 1_555 1_555
O18 H27 1_555 1_555
H28 O18 1_555 1_555
Na1A O3 1_555 1_555
Na1A_2 O5 1_555 1_555
O3A Na1 1_555 1_555
O5A Na1 1_555 1_555
O8A Na1 1_555 1_555
Na1 O13 1_555 1_555
C3 O2 1_555 1_555
C4 O4 1_555 1_555
C6 O5 1_555 1_555
C9 C10 1_555 1_555
C13 O8 1_555 1_555
O8 Na1A_2 1_555 1_555
C14 O10 1_555 1_555
C16 O11 1_555 1_555
C19 C20 1_555 1_555
Na1A_2 O8A 1_555 1_555

#END
