
#######################################################################
#
#                 Cambridge Crystallographic Data Centre
#                                CCDC 
#
#######################################################################
#
# If this CIF has been generated from an entry in the Cambridge 
# Structural Database, then it will include bibliographic, chemical, 
# crystal, experimental, refinement or atomic coordinate data resulting 
# from the CCDC's data processing and validation procedures.
#
#######################################################################

data_LEYREN
_symmetry_cell_setting           monoclinic
_symmetry_space_group_name_H-M   'C 2/c'
_symmetry_Int_Tables_number      15
_space_group_name_Hall           '-C 2yn'
loop_
_symmetry_equiv_pos_site_id
_symmetry_equiv_pos_as_xyz
1 x,y,z
2 1/2+x,1/2+y,z
3 -x,y,1/2-z
4 1/2-x,1/2+y,1/2-z
5 -x,-y,-z
6 1/2-x,1/2-y,-z
7 x,-y,1/2+z
8 1/2+x,1/2-y,1/2+z
_cell_length_a                   25.393(4)
_cell_length_b                   9.3846(13)
_cell_length_c                   28.321(4)
_cell_angle_alpha                90
_cell_angle_beta                 99.473(3)
_cell_angle_gamma                90
_cell_volume                     6656.95
loop_
_atom_site_label
_atom_site_type_symbol
_atom_site_fract_x
_atom_site_fract_y
_atom_site_fract_z
Mn1 Mn -0.331190(16) -0.19163(4) 0.034690(15)
O1 O -0.28172(7) -0.0935(2) -0.01346(7)
H1 H -0.2509(6) -0.075(3) 0.0003(9)
H2 H -0.2785(10) -0.146(3) -0.0367(7)
N1 N -0.38429(8) 0.0108(2) 0.02384(8)
C1 C -0.42541(11) 0.0164(3) -0.01298(10)
C2 C -0.45567(11) 0.1402(3) -0.02262(11)
H3 H -0.4851 0.1428 -0.0481
C3 C -0.44195(12) 0.2589(3) 0.00554(11)
H4 H -0.4622 0.3441 -0.0003
C4 C -0.39894(11) 0.2539(3) 0.04202(11)
H5 H -0.3890 0.3353 0.0614
C5 C -0.37027(10) 0.1273(3) 0.04994(10)
C6 C -0.32150(11) 0.1112(3) 0.08650(10)
C7 C -0.30006(13) 0.2354(3) 0.11685(12)
H6 H -0.3242 0.2575 0.1395
H7 H -0.2973 0.3183 0.0964
H8 H -0.2647 0.2117 0.1346
N2 N -0.30035(9) -0.0139(2) 0.08805(8)
N3 N -0.25357(9) -0.0336(2) 0.12019(8)
O2 O -0.25297(7) -0.25407(19) 0.08258(6)
C8 C -0.23333(10) -0.1592(3) 0.11316(10)
C9 C -0.18124(10) -0.1887(3) 0.14501(9)
C10 C -0.15660(12) -0.0853(3) 0.17587(11)
H9 H -0.1732 0.0045 0.1781
C11 C -0.10823(12) -0.1136(3) 0.20310(11)
H10 H -0.0922 -0.0408 0.2240
N4 N -0.08211(9) -0.2361(2) 0.20235(8)
C12 C -0.10660(12) -0.3369(3) 0.17372(10)
H11 H -0.0898 -0.4273 0.1736
C13 C -0.15518(11) -0.3173(3) 0.14408(10)
H12 H -0.1703 -0.3915 0.1234
C14 C -0.43467(11) -0.1149(3) -0.04161(10)
C15 C -0.47585(12) -0.1178(3) -0.08557(11)
H13 H -0.4738 -0.2087 -0.1022
H14 H -0.4695 -0.0392 -0.1067
H15 H -0.5114 -0.1076 -0.0767
N5 N -0.40273(9) -0.2178(2) -0.02661(8)
N6 N -0.40826(9) -0.3447(2) -0.05234(8)
O3 O -0.32651(7) -0.39781(19) -0.00500(7)
C16 C -0.36601(11) -0.4273(3) -0.03797(10)
C17 C -0.36682(11) -0.5662(3) -0.06339(10)
C18 C -0.40437(12) -0.5966(3) -0.10375(10)
H16 H -0.4303 -0.5277 -0.1163
C19 C -0.40334(13) -0.7280(3) -0.12520(11)
H17 H -0.4290 -0.7464 -0.1529
N7 N -0.36866(12) -0.8312(3) -0.10959(10)
C20 C -0.33273(13) -0.8001(3) -0.07113(12)
H18 H -0.3075 -0.8716 -0.0592
C21 C -0.32974(12) -0.6713(3) -0.04759(11)
H19 H -0.3026 -0.6547 -0.0208
Mn2 Mn 0.0000 -0.25125(6) 0.2500
N8 N 0.0000 -0.4969(3) 0.2500
C22 C 0.0000 -0.7893(4) 0.2500
H20 H 0.0000 -0.8906 0.2500
C23 C 0.02925(11) -0.7172(3) 0.22104(10)
H21 H 0.0496 -0.7671 0.2011
C24 C 0.02829(10) -0.5678(3) 0.22165(9)
C25 C 0.05652(11) -0.4770(3) 0.19152(10)
C26 C 0.09147(14) -0.5429(3) 0.15960(12)
H22 H 0.1079 -0.4675 0.1430
H23 H 0.0699 -0.6045 0.1360
H24 H 0.1195 -0.5996 0.1789
N9 N 0.04790(8) -0.3431(2) 0.19512(8)
N10 N 0.07266(9) -0.2496(2) 0.16764(8)
O4 O 0.02328(7) -0.07789(18) 0.20100(6)
C27 C 0.05536(10) -0.1187(3) 0.17412(9)
C28 C 0.07832(11) -0.0100(3) 0.14428(10)
C29 C 0.12953(12) 0.0411(3) 0.15828(10)
H25 H 0.1500 0.0120 0.1879
C30 C 0.15076(12) 0.1351(3) 0.12875(11)
H26 H 0.1859 0.1695 0.1391
N11 N 0.12483(9) 0.1802(2) 0.08660(8)
C31 C 0.07533(11) 0.1321(3) 0.07396(10)
H27 H 0.0557 0.1637 0.0443
C32 C 0.05035(11) 0.0387(3) 0.10109(10)
H28 H 0.0147 0.0086 0.0903
Mn1B Mn 0.331190(16) -0.19163(4) 0.465310(15)
Mn1A Mn 0.168810(16) 0.30837(4) 0.034690(15)
Mn1C Mn -0.168810(16) 0.30837(4) 0.465310(15)
O1B O 0.28172(7) -0.0935(2) 0.51346(7)
H1B H 0.2509(6) -0.075(3) 0.4997(9)
H2B H 0.2785(10) -0.146(3) 0.5367(7)
N1B N 0.38429(8) 0.0108(2) 0.47616(8)
C1B C 0.42541(11) 0.0164(3) 0.51298(10)
C2B C 0.45567(11) 0.1402(3) 0.52262(11)
H3B H 0.4851 0.1428 0.5481
C3B C 0.44195(12) 0.2589(3) 0.49446(11)
H4B H 0.4622 0.3441 0.5003
C4B C 0.39894(11) 0.2539(3) 0.45798(11)
H5B H 0.3890 0.3353 0.4386
C5B C 0.37027(10) 0.1273(3) 0.45006(10)
C6B C 0.32150(11) 0.1112(3) 0.41350(10)
C7B C 0.30006(13) 0.2354(3) 0.38315(12)
H6B H 0.3242 0.2575 0.3605
H7B H 0.2973 0.3183 0.4036
H8B H 0.2647 0.2117 0.3654
N2B N 0.30035(9) -0.0139(2) 0.41195(8)
N3B N 0.25357(9) -0.0336(2) 0.37981(8)
O2B O 0.25297(7) -0.25407(19) 0.41742(6)
C8B C 0.23333(10) -0.1592(3) 0.38684(10)
C9B C 0.18124(10) -0.1887(3) 0.35499(9)
C10B C 0.15660(12) -0.0853(3) 0.32413(11)
H9B H 0.1732 0.0045 0.3219
C11B C 0.10823(12) -0.1136(3) 0.29690(11)
H10B H 0.0922 -0.0408 0.2760
N4B N 0.08211(9) -0.2361(2) 0.29765(8)
C12B C 0.10660(12) -0.3369(3) 0.32628(10)
H11B H 0.0898 -0.4273 0.3264
C13B C 0.15518(11) -0.3173(3) 0.35592(10)
H12B H 0.1703 -0.3915 0.3766
C14B C 0.43467(11) -0.1149(3) 0.54161(10)
C15B C 0.47585(12) -0.1178(3) 0.58557(11)
H13B H 0.4738 -0.2087 0.6022
H14B H 0.4695 -0.0392 0.6067
H15B H 0.5114 -0.1076 0.5767
N5B N 0.40273(9) -0.2178(2) 0.52661(8)
N6B N 0.40826(9) -0.3447(2) 0.55234(8)
O3B O 0.32651(7) -0.39781(19) 0.50500(7)
C16B C 0.36601(11) -0.4273(3) 0.53797(10)
C17B C 0.36682(11) -0.5662(3) 0.56339(10)
C18B C 0.40437(12) -0.5966(3) 0.60375(10)
H16B H 0.4303 -0.5277 0.6163
C19B C 0.40334(13) -0.7280(3) 0.62520(11)
H17B H 0.4290 -0.7464 0.6529
N7B N 0.36866(12) -0.8312(3) 0.60959(10)
C20B C 0.33273(13) -0.8001(3) 0.57113(12)
H18B H 0.3075 -0.8716 0.5592
C21B C 0.32974(12) -0.6713(3) 0.54759(11)
H19B H 0.3026 -0.6547 0.5208
C23B C -0.02925(11) -0.7172(3) 0.27896(10)
H21B H -0.0496 -0.7671 0.2989
C24B C -0.02829(10) -0.5678(3) 0.27835(9)
C25B C -0.05652(11) -0.4770(3) 0.30848(10)
C26B C -0.09147(14) -0.5429(3) 0.34040(12)
H22B H -0.1079 -0.4675 0.3570
H23B H -0.0699 -0.6045 0.3640
H24B H -0.1195 -0.5996 0.3211
N9B N -0.04790(8) -0.3431(2) 0.30488(8)
N10B N -0.07266(9) -0.2496(2) 0.33236(8)
O4B O -0.02328(7) -0.07789(18) 0.29900(6)
C27B C -0.05536(10) -0.1187(3) 0.32588(9)
C28B C -0.07832(11) -0.0100(3) 0.35572(10)
C29B C -0.12953(12) 0.0411(3) 0.34172(10)
H25B H -0.1500 0.0120 0.3121
C30B C -0.15076(12) 0.1351(3) 0.37125(11)
H26B H -0.1859 0.1695 0.3609
N11B N -0.12483(9) 0.1802(2) 0.41340(8)
N11A N -0.37517(9) -0.3198(2) 0.08660(8)
N11C N 0.37517(9) -0.3198(2) 0.41340(8)
C31B C -0.07533(11) 0.1321(3) 0.42604(10)
H27B H -0.0557 0.1637 0.4557
C32B C -0.05035(11) 0.0387(3) 0.39891(10)
H28B H -0.0147 0.0086 0.4097
loop_
_geom_bond_atom_site_label_1
_geom_bond_atom_site_label_2
_geom_bond_site_symmetry_1
_geom_bond_site_symmetry_2
Mn1 O1 1_555 1_555
O1 H1 1_555 1_555
H2 O1 1_555 1_555
N1 Mn1 1_555 1_555
C1 N1 1_555 1_555
C2 C1 1_555 1_555
H3 C2 1_555 1_555
C3 C2 1_555 1_555
H4 C3 1_555 1_555
C4 C3 1_555 1_555
H5 C4 1_555 1_555
C5 N1 1_555 1_555
C6 C5 1_555 1_555
C7 C6 1_555 1_555
H6 C7 1_555 1_555
H7 C7 1_555 1_555
H8 C7 1_555 1_555
N2 Mn1 1_555 1_555
N3 N2 1_555 1_555
O2 Mn1 1_555 1_555
C8 N3 1_555 1_555
C9 C8 1_555 1_555
C10 C9 1_555 1_555
H9 C10 1_555 1_555
C11 C10 1_555 1_555
H10 C11 1_555 1_555
N4 C11 1_555 1_555
C12 N4 1_555 1_555
H11 C12 1_555 1_555
C13 C9 1_555 1_555
H12 C13 1_555 1_555
C14 C1 1_555 1_555
C15 C14 1_555 1_555
H13 C15 1_555 1_555
H14 C15 1_555 1_555
H15 C15 1_555 1_555
N5 Mn1 1_555 1_555
N6 N5 1_555 1_555
O3 Mn1 1_555 1_555
C16 N6 1_555 1_555
C17 C16 1_555 1_555
C18 C17 1_555 1_555
H16 C18 1_555 1_555
C19 C18 1_555 1_555
H17 C19 1_555 1_555
N7 C19 1_555 1_555
C20 N7 1_555 1_555
H18 C20 1_555 1_555
C21 C17 1_555 1_555
H19 C21 1_555 1_555
Mn2 N4 1_555 1_555
N8 Mn2 1_555 1_555
C22 H20 1_555 1_555
C23 C22 1_555 1_555
H21 C23 1_555 1_555
C24 N8 1_555 1_555
C25 C24 1_555 1_555
C26 C25 1_555 1_555
H22 C26 1_555 1_555
H23 C26 1_555 1_555
H24 C26 1_555 1_555
N9 Mn2 1_555 1_555
N10 N9 1_555 1_555
O4 Mn2 1_555 1_555
C27 N10 1_555 1_555
C28 C27 1_555 1_555
C29 C28 1_555 1_555
H25 C29 1_555 1_555
C30 C29 1_555 1_555
H26 C30 1_555 1_555
N11 C30 1_555 1_555
C31 N11 1_555 1_555
H27 C31 1_555 1_555
C32 C28 1_555 1_555
H28 C32 1_555 1_555
Mn1B O1B 1_555 1_555
Mn1A N11 1_555 1_555
Mn1C N11B 1_555 1_555
O1B H1B 1_555 1_555
H2B O1B 1_555 1_555
N1B Mn1B 1_555 1_555
C1B N1B 1_555 1_555
C2B C1B 1_555 1_555
H3B C2B 1_555 1_555
C3B C2B 1_555 1_555
H4B C3B 1_555 1_555
C4B C3B 1_555 1_555
H5B C4B 1_555 1_555
C5B N1B 1_555 1_555
C6B C5B 1_555 1_555
C7B C6B 1_555 1_555
H6B C7B 1_555 1_555
H7B C7B 1_555 1_555
H8B C7B 1_555 1_555
N2B Mn1B 1_555 1_555
N3B N2B 1_555 1_555
O2B Mn1B 1_555 1_555
C8B N3B 1_555 1_555
C9B C8B 1_555 1_555
C10B C9B 1_555 1_555
H9B C10B 1_555 1_555
C11B C10B 1_555 1_555
H10B C11B 1_555 1_555
N4B Mn2 1_555 1_555
C12B N4B 1_555 1_555
H11B C12B 1_555 1_555
C13B C9B 1_555 1_555
H12B C13B 1_555 1_555
C14B C1B 1_555 1_555
C15B C14B 1_555 1_555
H13B C15B 1_555 1_555
H14B C15B 1_555 1_555
H15B C15B 1_555 1_555
N5B Mn1B 1_555 1_555
N6B N5B 1_555 1_555
O3B Mn1B 1_555 1_555
C16B N6B 1_555 1_555
C17B C16B 1_555 1_555
C18B C17B 1_555 1_555
H16B C18B 1_555 1_555
C19B C18B 1_555 1_555
H17B C19B 1_555 1_555
N7B C19B 1_555 1_555
C20B N7B 1_555 1_555
H18B C20B 1_555 1_555
C21B C17B 1_555 1_555
H19B C21B 1_555 1_555
C23B C22 1_555 1_555
H21B C23B 1_555 1_555
C24B N8 1_555 1_555
C25B C24B 1_555 1_555
C26B C25B 1_555 1_555
H22B C26B 1_555 1_555
H23B C26B 1_555 1_555
H24B C26B 1_555 1_555
N9B Mn2 1_555 1_555
N10B N9B 1_555 1_555
O4B Mn2 1_555 1_555
C27B N10B 1_555 1_555
C28B C27B 1_555 1_555
C29B C28B 1_555 1_555
H25B C29B 1_555 1_555
C30B C29B 1_555 1_555
H26B C30B 1_555 1_555
N11B C30B 1_555 1_555
N11A Mn1 1_555 1_555
N11C Mn1B 1_555 1_555
C31B N11B 1_555 1_555
H27B C31B 1_555 1_555
C32B C28B 1_555 1_555
H28B C32B 1_555 1_555
C4 C5 1_555 1_555
C6 N2 1_555 1_555
O2 C8 1_555 1_555
C12 C13 1_555 1_555
C14 N5 1_555 1_555
O3 C16 1_555 1_555
C20 C21 1_555 1_555
C23 C24 1_555 1_555
C25 N9 1_555 1_555
O4 C27 1_555 1_555
C31 C32 1_555 1_555
C4B C5B 1_555 1_555
C6B N2B 1_555 1_555
O2B C8B 1_555 1_555
C11B N4B 1_555 1_555
C12B C13B 1_555 1_555
C14B N5B 1_555 1_555
O3B C16B 1_555 1_555
C20B C21B 1_555 1_555
C23B C24B 1_555 1_555
C25B N9B 1_555 1_555
O4B C27B 1_555 1_555
C31B C32B 1_555 1_555

#END
