
#######################################################################
#
#                 Cambridge Crystallographic Data Centre
#                                CCDC 
#
#######################################################################
#
# If this CIF has been generated from an entry in the Cambridge 
# Structural Database, then it will include bibliographic, chemical, 
# crystal, experimental, refinement or atomic coordinate data resulting 
# from the CCDC's data processing and validation procedures.
#
#######################################################################

data_LEYSIT
_symmetry_cell_setting           orthorhombic
_symmetry_space_group_name_H-M   'P b c n'
_symmetry_Int_Tables_number      60
_space_group_name_Hall           '-P 2n 2ab'
loop_
_symmetry_equiv_pos_site_id
_symmetry_equiv_pos_as_xyz
1 x,y,z
2 1/2-x,1/2-y,1/2+z
3 1/2+x,1/2-y,-z
4 -x,y,1/2-z
5 -x,-y,-z
6 1/2+x,1/2+y,1/2-z
7 1/2-x,1/2+y,z
8 x,-y,1/2+z
_cell_length_a                   33.996(6)
_cell_length_b                   12.550(2)
_cell_length_c                   8.2619(13)
_cell_angle_alpha                90
_cell_angle_beta                 90
_cell_angle_gamma                90
_cell_volume                     3524.94
loop_
_atom_site_label
_atom_site_type_symbol
_atom_site_fract_x
_atom_site_fract_y
_atom_site_fract_z
Er1 Er 0.321203(6) 0.179427(15) 0.65844(2)
C1 C 0.38388(13) 0.3878(4) 0.7722(6)
O1 O 0.34612(9) 0.3750(3) 0.7151(4)
C2 C 0.33333(15) 0.4522(4) 0.5989(7)
H1 H 0.3542 0.4634 0.517
H2 H 0.3283 0.5211 0.6537
C3 C 0.29598(14) 0.4142(4) 0.5165(6)
O2 O 0.28489(9) 0.3199(3) 0.5425(4)
O3 O 0.27896(10) 0.4815(3) 0.4292(4)
C4 C 0.39860(14) 0.3013(4) 0.8605(6)
O4 O 0.37346(10) 0.2147(3) 0.8700(4)
C5 C 0.38592(14) 0.1250(4) 0.9672(7)
H3 H 0.3952 0.1496 1.0745
H4 H 0.4077 0.0866 0.9131
C6 C 0.35062(13) 0.0526(4) 0.9861(6)
O5 O 0.32189(10) 0.0683(3) 0.8918(4)
O6 O 0.35301(10) -0.0182(3) 1.0924(4)
C7 C 0.43598(14) 0.3061(4) 0.9271(6)
H5 H 0.4458 0.2482 0.9891
C8 C 0.45921(15) 0.3968(4) 0.9023(6)
H6 H 0.4849 0.4003 0.9472
C9 C 0.44478(15) 0.4807(4) 0.8130(6)
H7 H 0.4608 0.5416 0.795
C10 C 0.40684(14) 0.4773(4) 0.7487(6)
H8 H 0.3969 0.5361 0.689
C11 C 0.48435(14) 0.1616(4) 0.3061(7)
O7 O 0.47270(10) 0.2596(3) 0.3614(5)
C12 C 0.44286(14) 0.2604(4) 0.4821(6)
H9 H 0.4445 0.3282 0.543
H10 H 0.4479 0.2016 0.5592
C13 C 0.40130(14) 0.2485(4) 0.4142(6)
O8 O 0.37497(10) 0.2259(3) 0.5158(5)
O9 O 0.39612(12) 0.2635(4) 0.2673(5)
C14 C 0.48352(18) -0.0306(5) 0.2997(8)
H11 H 0.4717 -0.096 0.3311
C15 C 0.46784(16) 0.0655(4) 0.3534(8)
H12 H 0.4456 0.0653 0.4231
O10 O 0.28386(10) 0.2643(3) 0.8780(4)
H13 H 0.2638(11) 0.235(4) 0.909(8)
H14 H 0.2802(16) 0.3275(18) 0.863(8)
O11 O 0.29683(11) 0.1361(3) 0.3948(4)
H15 H 0.3022(19) 0.076(2) 0.365(6)
H16 H 0.298(2) 0.178(3) 0.318(5)
O12 O 0.26346(10) 0.0849(3) 0.6742(4)
H17 H 0.2512(16) 0.078(5) 0.757(4)
H18 H 0.2515(16) 0.063(5) 0.595(4)
C11C C 0.51565(14) 0.1616(4) 0.1939(7)
O7C O 0.52730(10) 0.2596(3) 0.1386(5)
C12C C 0.55714(14) 0.2604(4) 0.0179(6)
H9C H 0.5555 0.3282 -0.043
H10C H 0.5521 0.2016 -0.0592
C13C C 0.59870(14) 0.2485(4) 0.0858(6)
O8C O 0.62503(10) 0.2259(3) -0.0158(5)
O9C O 0.60388(12) 0.2635(4) 0.2327(5)
C14C C 0.51648(18) -0.0306(5) 0.2003(8)
H11C H 0.5283 -0.096 0.1689
C15C C 0.53216(16) 0.0655(4) 0.1466(8)
H12C H 0.5544 0.0653 0.0769
Er1C Er 0.678797(6) 0.179427(15) -0.15844(2)
C1C C 0.61612(13) 0.3878(4) -0.2722(6)
O1C O 0.65388(9) 0.3750(3) -0.2151(4)
C2C C 0.66667(15) 0.4522(4) -0.0989(7)
H1C H 0.6458 0.4634 -0.017
H2C H 0.6717 0.5211 -0.1537
C3C C 0.70402(14) 0.4142(4) -0.0165(6)
O2C O 0.71511(9) 0.3199(3) -0.0425(4)
O3C O 0.72104(10) 0.4815(3) 0.0708(4)
C4C C 0.60140(14) 0.3013(4) -0.3605(6)
O4C O 0.62654(10) 0.2147(3) -0.3700(4)
C5C C 0.61408(14) 0.1250(4) -0.4672(7)
H3C H 0.6048 0.1496 -0.5745
H4C H 0.5923 0.0866 -0.4131
C6C C 0.64938(13) 0.0526(4) -0.4861(6)
O5C O 0.67811(10) 0.0683(3) -0.3918(4)
O6C O 0.64699(10) -0.0182(3) -0.5924(4)
C7C C 0.56402(14) 0.3061(4) -0.4271(6)
H5C H 0.5542 0.2482 -0.4891
C8C C 0.54079(15) 0.3968(4) -0.4023(6)
H6C H 0.5151 0.4003 -0.4472
C9C C 0.55522(15) 0.4807(4) -0.3130(6)
H7C H 0.5392 0.5416 -0.295
C10C C 0.59316(14) 0.4773(4) -0.2487(6)
H8C H 0.6031 0.5361 -0.189
O10C O 0.71614(10) 0.2643(3) -0.3780(4)
H13C H 0.7362(11) 0.235(4) -0.409(8)
H14C H 0.7198(16) 0.3275(18) -0.363(8)
O11C O 0.70317(11) 0.1361(3) 0.1052(4)
H15C H 0.6978(19) 0.076(2) 0.135(6)
H16C H 0.702(2) 0.178(3) 0.182(5)
O12C O 0.73654(10) 0.0849(3) -0.1742(4)
H17C H 0.7488(16) 0.078(5) -0.257(4)
H18C H 0.7485(16) 0.063(5) -0.095(4)
Er1D Er 0.678797(6) -0.179427(15) -0.65844(2)
Er1G Er 0.321203(6) -0.179427(15) 1.15844(2)
O6D O 0.64699(10) 0.0182(3) -0.0924(4)
O6G O 0.35301(10) 0.0182(3) 0.5924(4)
O13 O 0.32030(11) 0.2839(3) 0.1884(4)
H19 H 0.3444(6) 0.280(6) 0.198(7)
H20 H 0.3135(15) 0.279(6) 0.095(3)
loop_
_geom_bond_atom_site_label_1
_geom_bond_atom_site_label_2
_geom_bond_site_symmetry_1
_geom_bond_site_symmetry_2
Er1 O1 1_555 1_555
C1 O1 1_555 1_555
O1 C2 1_555 1_555
C2 H1 1_555 1_555
H2 C2 1_555 1_555
C3 C2 1_555 1_555
O2 Er1 1_555 1_555
O3 C3 1_555 1_555
C4 C1 1_555 1_555
O4 Er1 1_555 1_555
C5 O4 1_555 1_555
H3 C5 1_555 1_555
H4 C5 1_555 1_555
C6 C5 1_555 1_555
O5 Er1 1_555 1_555
O6 C6 1_555 1_555
C7 C4 1_555 1_555
H5 C7 1_555 1_555
C8 C7 1_555 1_555
H6 C8 1_555 1_555
C9 C8 1_555 1_555
H7 C9 1_555 1_555
C10 C1 1_555 1_555
H8 C10 1_555 1_555
C11 O7 1_555 1_555
O7 C12 1_555 1_555
C12 H9 1_555 1_555
H10 C12 1_555 1_555
C13 C12 1_555 1_555
O8 Er1 1_555 1_555
O9 C13 1_555 1_555
C14 H11 1_555 1_555
C15 C11 1_555 1_555
H12 C15 1_555 1_555
O10 Er1 1_555 1_555
H13 O10 1_555 1_555
H14 O10 1_555 1_555
O11 Er1 1_555 1_555
H15 O11 1_555 1_555
H16 O11 1_555 1_555
O12 Er1 1_555 1_555
H17 O12 1_555 1_555
H18 O12 1_555 1_555
O13 H19 1_555 1_555
H20 O13 1_555 1_555
C11C C11 1_555 1_555
O7C C11C 1_555 1_555
C12C O7C 1_555 1_555
H9C C12C 1_555 1_555
H10C C12C 1_555 1_555
C13C C12C 1_555 1_555
O8C C13C 1_555 1_555
O9C C13C 1_555 1_555
C14C C14 1_555 1_555
H11C C14C 1_555 1_555
C15C C11C 1_555 1_555
H12C C15C 1_555 1_555
Er1C O8C 1_555 1_555
C1C O1C 1_555 1_555
O1C Er1C 1_555 1_555
C2C O1C 1_555 1_555
H1C C2C 1_555 1_555
H2C C2C 1_555 1_555
C3C C2C 1_555 1_555
O2C Er1C 1_555 1_555
O3C C3C 1_555 1_555
C4C C1C 1_555 1_555
O4C Er1C 1_555 1_555
C5C O4C 1_555 1_555
H3C C5C 1_555 1_555
H4C C5C 1_555 1_555
C6C C5C 1_555 1_555
O5C Er1C 1_555 1_555
O6C C6C 1_555 1_555
C7C C4C 1_555 1_555
H5C C7C 1_555 1_555
C8C C7C 1_555 1_555
H6C C8C 1_555 1_555
C9C C8C 1_555 1_555
H7C C9C 1_555 1_555
C10C C1C 1_555 1_555
H8C C10C 1_555 1_555
O10C Er1C 1_555 1_555
H13C O10C 1_555 1_555
H14C O10C 1_555 1_555
O11C Er1C 1_555 1_555
H15C O11C 1_555 1_555
H16C O11C 1_555 1_555
O12C Er1C 1_555 1_555
H17C O12C 1_555 1_555
H18C O12C 1_555 1_555
Er1D O6C 1_555 1_555
Er1G O6 1_555 1_555
O6D Er1C 1_555 1_555
O6G Er1 1_555 1_555
C3 O2 1_555 1_555
C4 O4 1_555 1_555
C6 O5 1_555 1_555
C9 C10 1_555 1_555
C13 O8 1_555 1_555
C14 C15 1_555 1_555
C14C C15C 1_555 1_555
C3C O2C 1_555 1_555
C4C O4C 1_555 1_555
C6C O5C 1_555 1_555
C9C C10C 1_555 1_555

#END
