
#######################################################################
#
#                 Cambridge Crystallographic Data Centre
#                                CCDC 
#
#######################################################################
#
# If this CIF has been generated from an entry in the Cambridge 
# Structural Database, then it will include bibliographic, chemical, 
# crystal, experimental, refinement or atomic coordinate data resulting 
# from the CCDC's data processing and validation procedures.
#
#######################################################################

data_LEYSOZ
_symmetry_cell_setting           orthorhombic
_symmetry_space_group_name_H-M   'P b c n'
_symmetry_Int_Tables_number      60
_space_group_name_Hall           '-P 2n 2ab'
loop_
_symmetry_equiv_pos_site_id
_symmetry_equiv_pos_as_xyz
1 x,y,z
2 1/2-x,1/2-y,1/2+z
3 1/2+x,1/2-y,-z
4 -x,y,1/2-z
5 -x,-y,-z
6 1/2+x,1/2+y,1/2-z
7 1/2-x,1/2+y,z
8 x,-y,1/2+z
_cell_length_a                   34.066(3)
_cell_length_b                   12.6065(11)
_cell_length_c                   8.3080(7)
_cell_angle_alpha                90
_cell_angle_beta                 90
_cell_angle_gamma                90
_cell_volume                     3567.9
loop_
_atom_site_label
_atom_site_type_symbol
_atom_site_fract_x
_atom_site_fract_y
_atom_site_fract_z
Tb1 Tb 0.321589(4) 0.179289(10) 0.662398(15)
C1 C 0.38433(8) 0.3881(2) 0.7748(3)
O1 O 0.34653(6) 0.37490(15) 0.7178(2)
C2 C 0.33368(9) 0.4527(2) 0.6024(4)
H1 H 0.3545 0.4641 0.5211
H2 H 0.3287 0.521 0.6576
C3 C 0.29656(8) 0.4157(2) 0.5200(3)
O2 O 0.28501(6) 0.32148(15) 0.5447(2)
O3 O 0.27959(6) 0.48284(15) 0.4331(2)
C4 C 0.39921(8) 0.3020(2) 0.8637(3)
O4 O 0.37395(6) 0.21639(16) 0.8758(2)
C5 C 0.38648(8) 0.1268(2) 0.9708(4)
H3 H 0.396 0.1508 1.0772
H4 H 0.4081 0.0888 0.9157
C6 C 0.35153(8) 0.0543(2) 0.9907(4)
O5 O 0.32283(6) 0.06878(15) 0.8982(2)
O6 O 0.35428(6) -0.01655(16) 1.0954(3)
C7 C 0.43644(8) 0.3070(2) 0.9290(4)
H5 H 0.4463 0.2496 0.9909
C8 C 0.45948(9) 0.3974(2) 0.9033(4)
H6 H 0.4851 0.4011 0.9476
C9 C 0.44517(9) 0.4810(2) 0.8139(4)
H7 H 0.4611 0.5416 0.7959
C10 C 0.40736(8) 0.4771(2) 0.7498(4)
H8 H 0.3975 0.5351 0.6893
C11 C 0.48438(8) 0.1625(2) 0.3057(4)
O7 O 0.47280(6) 0.26023(16) 0.3605(3)
C12 C 0.44317(8) 0.2611(2) 0.4815(4)
H9 H 0.4449 0.3285 0.5422
H10 H 0.4483 0.2024 0.5579
C13 C 0.40147(9) 0.2494(2) 0.4145(4)
O8 O 0.37558(6) 0.22703(17) 0.5168(3)
O9 O 0.39608(7) 0.26595(19) 0.2694(3)
C14 C 0.48382(10) -0.0288(3) 0.2997(4)
H11 H 0.4723 -0.094 0.3321
C15 C 0.46803(10) 0.0667(2) 0.3524(4)
H12 H 0.4458 0.0663 0.4214
O10 O 0.28319(6) 0.26450(18) 0.8833(3)
H13 H 0.2645(8) 0.236(2) 0.921(4)
H14 H 0.2794(10) 0.3282(14) 0.875(4)
O11 O 0.29651(6) 0.13451(18) 0.3978(3)
H15 H 0.3055(11) 0.0764(17) 0.372(4)
H16 H 0.2990(12) 0.176(2) 0.322(3)
O12 O 0.26341(7) 0.08196(19) 0.6799(3)
H17 H 0.2494(11) 0.065(3) 0.756(3)
H18 H 0.2531(11) 0.062(3) 0.597(3)
C11C C 0.51562(8) 0.1625(2) 0.1943(4)
O7C O 0.52720(6) 0.26023(16) 0.1395(3)
C12C C 0.55683(8) 0.2611(2) 0.0185(4)
H9C H 0.5551 0.3285 -0.0422
H10C H 0.5517 0.2024 -0.0579
C13C C 0.59853(9) 0.2494(2) 0.0855(4)
O8C O 0.62442(6) 0.22703(17) -0.0168(3)
O9C O 0.60392(7) 0.26595(19) 0.2306(3)
C14C C 0.51618(10) -0.0288(3) 0.2003(4)
H11C H 0.5277 -0.094 0.1679
C15C C 0.53197(10) 0.0667(2) 0.1476(4)
H12C H 0.5542 0.0663 0.0786
Tb1C Tb 0.678411(4) 0.179289(10) -0.162398(15)
C1C C 0.61567(8) 0.3881(2) -0.2748(3)
O1C O 0.65347(6) 0.37490(15) -0.2178(2)
C2C C 0.66632(9) 0.4527(2) -0.1024(4)
H1C H 0.6455 0.4641 -0.0211
H2C H 0.6713 0.521 -0.1576
C3C C 0.70344(8) 0.4157(2) -0.0200(3)
O2C O 0.71499(6) 0.32148(15) -0.0447(2)
O3C O 0.72041(6) 0.48284(15) 0.0669(2)
C4C C 0.60079(8) 0.3020(2) -0.3637(3)
O4C O 0.62605(6) 0.21639(16) -0.3758(2)
C5C C 0.61352(8) 0.1268(2) -0.4708(4)
H3C H 0.604 0.1508 -0.5772
H4C H 0.5919 0.0888 -0.4157
C6C C 0.64847(8) 0.0543(2) -0.4907(4)
O5C O 0.67717(6) 0.06878(15) -0.3982(2)
O6C O 0.64572(6) -0.01655(16) -0.5954(3)
C7C C 0.56356(8) 0.3070(2) -0.4290(4)
H5C H 0.5537 0.2496 -0.4909
C8C C 0.54052(9) 0.3974(2) -0.4033(4)
H6C H 0.5149 0.4011 -0.4476
C9C C 0.55483(9) 0.4810(2) -0.3139(4)
H7C H 0.5389 0.5416 -0.2959
C10C C 0.59264(8) 0.4771(2) -0.2498(4)
H8C H 0.6025 0.5351 -0.1893
O10C O 0.71681(6) 0.26450(18) -0.3833(3)
H13C H 0.7355(8) 0.236(2) -0.421(4)
H14C H 0.7206(10) 0.3282(14) -0.375(4)
O11C O 0.70349(6) 0.13451(18) 0.1022(3)
H15C H 0.6945(11) 0.0764(17) 0.128(4)
H16C H 0.7010(12) 0.176(2) 0.178(3)
O12C O 0.73659(7) 0.08196(19) -0.1799(3)
H17C H 0.7506(11) 0.065(3) -0.256(3)
H18C H 0.7469(11) 0.062(3) -0.097(3)
Tb1D Tb 0.678411(4) -0.179289(10) -0.662398(15)
Tb1G Tb 0.321589(4) -0.179289(10) 1.162398(15)
O6D O 0.64572(6) 0.01655(16) -0.0954(3)
O6G O 0.35428(6) 0.01655(16) 0.5954(3)
O13 O 0.32009(7) 0.28285(19) 0.1924(3)
H19 H 0.3439(6) 0.275(3) 0.212(4)
H20 H 0.3155(10) 0.275(3) 0.099(2)
loop_
_geom_bond_atom_site_label_1
_geom_bond_atom_site_label_2
_geom_bond_site_symmetry_1
_geom_bond_site_symmetry_2
Tb1 O1 1_555 1_555
C1 O1 1_555 1_555
O1 C2 1_555 1_555
C2 H1 1_555 1_555
H2 C2 1_555 1_555
C3 C2 1_555 1_555
O2 Tb1 1_555 1_555
O3 C3 1_555 1_555
C4 C1 1_555 1_555
O4 Tb1 1_555 1_555
C5 O4 1_555 1_555
H3 C5 1_555 1_555
H4 C5 1_555 1_555
C6 C5 1_555 1_555
O5 Tb1 1_555 1_555
O6 C6 1_555 1_555
C7 C4 1_555 1_555
H5 C7 1_555 1_555
C8 C7 1_555 1_555
H6 C8 1_555 1_555
C9 C8 1_555 1_555
H7 C9 1_555 1_555
C10 C1 1_555 1_555
H8 C10 1_555 1_555
C11 O7 1_555 1_555
O7 C12 1_555 1_555
C12 H9 1_555 1_555
H10 C12 1_555 1_555
C13 C12 1_555 1_555
O8 Tb1 1_555 1_555
O9 C13 1_555 1_555
C14 H11 1_555 1_555
C15 C11 1_555 1_555
H12 C15 1_555 1_555
O10 Tb1 1_555 1_555
H13 O10 1_555 1_555
H14 O10 1_555 1_555
O11 Tb1 1_555 1_555
H15 O11 1_555 1_555
H16 O11 1_555 1_555
O12 Tb1 1_555 1_555
H17 O12 1_555 1_555
H18 O12 1_555 1_555
O13 H19 1_555 1_555
H20 O13 1_555 1_555
C11C C11 1_555 1_555
O7C C11C 1_555 1_555
C12C O7C 1_555 1_555
H9C C12C 1_555 1_555
H10C C12C 1_555 1_555
C13C C12C 1_555 1_555
O8C C13C 1_555 1_555
O9C C13C 1_555 1_555
C14C C14 1_555 1_555
H11C C14C 1_555 1_555
C15C C11C 1_555 1_555
H12C C15C 1_555 1_555
Tb1C O8C 1_555 1_555
C1C O1C 1_555 1_555
O1C Tb1C 1_555 1_555
C2C O1C 1_555 1_555
H1C C2C 1_555 1_555
H2C C2C 1_555 1_555
C3C C2C 1_555 1_555
O2C Tb1C 1_555 1_555
O3C C3C 1_555 1_555
C4C C1C 1_555 1_555
O4C Tb1C 1_555 1_555
C5C O4C 1_555 1_555
H3C C5C 1_555 1_555
H4C C5C 1_555 1_555
C6C C5C 1_555 1_555
O5C Tb1C 1_555 1_555
O6C C6C 1_555 1_555
C7C C4C 1_555 1_555
H5C C7C 1_555 1_555
C8C C7C 1_555 1_555
H6C C8C 1_555 1_555
C9C C8C 1_555 1_555
H7C C9C 1_555 1_555
C10C C1C 1_555 1_555
H8C C10C 1_555 1_555
O10C Tb1C 1_555 1_555
H13C O10C 1_555 1_555
H14C O10C 1_555 1_555
O11C Tb1C 1_555 1_555
H15C O11C 1_555 1_555
H16C O11C 1_555 1_555
O12C Tb1C 1_555 1_555
H17C O12C 1_555 1_555
H18C O12C 1_555 1_555
Tb1D O6C 1_555 1_555
Tb1G O6 1_555 1_555
O6D Tb1C 1_555 1_555
O6G Tb1 1_555 1_555
C3 O2 1_555 1_555
C4 O4 1_555 1_555
C6 O5 1_555 1_555
C9 C10 1_555 1_555
C13 O8 1_555 1_555
C14 C15 1_555 1_555
C14C C15C 1_555 1_555
C3C O2C 1_555 1_555
C4C O4C 1_555 1_555
C6C O5C 1_555 1_555
C9C C10C 1_555 1_555

#END
