
#######################################################################
#
#                 Cambridge Crystallographic Data Centre
#                                CCDC 
#
#######################################################################
#
# If this CIF has been generated from an entry in the Cambridge 
# Structural Database, then it will include bibliographic, chemical, 
# crystal, experimental, refinement or atomic coordinate data resulting 
# from the CCDC's data processing and validation procedures.
#
#######################################################################

data_LEYSEP
_symmetry_cell_setting           orthorhombic
_symmetry_space_group_name_H-M   'P b c n'
_symmetry_Int_Tables_number      60
_space_group_name_Hall           '-P 2n 2ab'
loop_
_symmetry_equiv_pos_site_id
_symmetry_equiv_pos_as_xyz
1 x,y,z
2 1/2-x,1/2-y,1/2+z
3 1/2+x,1/2-y,-z
4 -x,y,1/2-z
5 -x,-y,-z
6 1/2+x,1/2+y,1/2-z
7 1/2-x,1/2+y,z
8 x,-y,1/2+z
_cell_length_a                   34.057(7)
_cell_length_b                   12.552(3)
_cell_length_c                   8.287(2)
_cell_angle_alpha                90
_cell_angle_beta                 90
_cell_angle_gamma                90
_cell_volume                     3542.56
loop_
_atom_site_label
_atom_site_type_symbol
_atom_site_fract_x
_atom_site_fract_y
_atom_site_fract_z
Ho1 Ho 0.321325(6) 0.179558(16) 0.66009(2)
C1 C 0.38406(13) 0.3884(3) 0.7733(5)
O1 O 0.34613(9) 0.3752(2) 0.7162(3)
C2 C 0.33368(12) 0.4516(4) 0.5974(5)
H1 H 0.3544 0.4599 0.5144
H2 H 0.3295 0.5217 0.6494
C3 C 0.29606(14) 0.4149(4) 0.5190(6)
O2 O 0.28470(8) 0.3204(3) 0.5440(3)
O3 O 0.27906(8) 0.4821(2) 0.4313(4)
C4 C 0.39892(12) 0.3015(3) 0.8619(5)
O4 O 0.37359(8) 0.2156(2) 0.8728(4)
C5 C 0.38611(13) 0.1257(3) 0.9684(6)
H3 H 0.3955 0.1498 1.0754
H4 H 0.4078 0.0875 0.9136
C6 C 0.35087(13) 0.0531(4) 0.9874(6)
O5 O 0.32221(10) 0.0691(2) 0.8938(3)
O6 O 0.35323(9) -0.0173(2) 1.0939(4)
C7 C 0.43612(12) 0.3066(4) 0.9266(5)
H5 H 0.4461 0.2487 0.9881
C8 C 0.45914(13) 0.3968(4) 0.9019(5)
H6 H 0.4848 0.4005 0.9461
C9 C 0.44465(13) 0.4801(3) 0.8137(5)
H7 H 0.4605 0.5412 0.7962
C10 C 0.40688(13) 0.4764(3) 0.7493(5)
H8 H 0.397 0.535 0.689
C11 C 0.48420(12) 0.1614(3) 0.3052(5)
O7 O 0.47287(9) 0.2597(2) 0.3614(4)
C12 C 0.44274(12) 0.2615(4) 0.4811(5)
H9 H 0.4442 0.3299 0.5402
H10 H 0.4477 0.2036 0.5596
C13 C 0.40139(15) 0.2485(4) 0.4135(7)
O8 O 0.37520(9) 0.2265(2) 0.5172(4)
O9 O 0.39599(10) 0.2643(3) 0.2685(4)
C14 C 0.48359(13) -0.0291(4) 0.2998(6)
H11 H 0.4718 -0.0946 0.3309
C15 C 0.46805(13) 0.0664(4) 0.3536(7)
H12 H 0.4461 0.0662 0.4245
O10 O 0.28354(9) 0.2643(2) 0.8806(4)
H13 H 0.2647(9) 0.232(3) 0.923(5)
H14 H 0.2773(11) 0.3255(17) 0.862(6)
O11 O 0.29645(10) 0.1354(2) 0.3974(4)
H15 H 0.3046(12) 0.0738(16) 0.382(5)
H16 H 0.3052(11) 0.175(2) 0.328(4)
O12 O 0.26353(9) 0.0845(3) 0.6774(4)
H17 H 0.2522(14) 0.072(4) 0.765(3)
H18 H 0.2507(13) 0.064(4) 0.603(3)
C11C C 0.51580(12) 0.1614(3) 0.1948(5)
O7C O 0.52713(9) 0.2597(2) 0.1386(4)
C12C C 0.55726(12) 0.2615(4) 0.0189(5)
H9C H 0.5558 0.3299 -0.0402
H10C H 0.5523 0.2036 -0.0596
C13C C 0.59861(15) 0.2485(4) 0.0865(7)
O8C O 0.62480(9) 0.2265(2) -0.0172(4)
O9C O 0.60401(10) 0.2643(3) 0.2315(4)
C14C C 0.51641(13) -0.0291(4) 0.2002(6)
H11C H 0.5282 -0.0946 0.1691
C15C C 0.53195(13) 0.0664(4) 0.1464(7)
H12C H 0.5539 0.0662 0.0755
Ho1C Ho 0.678675(6) 0.179558(16) -0.16009(2)
C1C C 0.61594(13) 0.3884(3) -0.2733(5)
O1C O 0.65387(9) 0.3752(2) -0.2162(3)
C2C C 0.66632(12) 0.4516(4) -0.0974(5)
H1C H 0.6456 0.4599 -0.0144
H2C H 0.6705 0.5217 -0.1494
C3C C 0.70394(14) 0.4149(4) -0.0190(6)
O2C O 0.71530(8) 0.3204(3) -0.0440(3)
O3C O 0.72094(8) 0.4821(2) 0.0687(4)
C4C C 0.60108(12) 0.3015(3) -0.3619(5)
O4C O 0.62641(8) 0.2156(2) -0.3728(4)
C5C C 0.61389(13) 0.1257(3) -0.4684(6)
H3C H 0.6045 0.1498 -0.5754
H4C H 0.5922 0.0875 -0.4136
C6C C 0.64913(13) 0.0531(4) -0.4874(6)
O5C O 0.67779(10) 0.0691(2) -0.3938(3)
O6C O 0.64677(9) -0.0173(2) -0.5939(4)
C7C C 0.56388(12) 0.3066(4) -0.4266(5)
H5C H 0.5539 0.2487 -0.4881
C8C C 0.54086(13) 0.3968(4) -0.4019(5)
H6C H 0.5152 0.4005 -0.4461
C9C C 0.55535(13) 0.4801(3) -0.3137(5)
H7C H 0.5395 0.5412 -0.2962
C10C C 0.59312(13) 0.4764(3) -0.2493(5)
H8C H 0.603 0.535 -0.189
O10C O 0.71646(9) 0.2643(2) -0.3806(4)
H13C H 0.7353(9) 0.232(3) -0.423(5)
H14C H 0.7227(11) 0.3255(17) -0.362(6)
O11C O 0.70355(10) 0.1354(2) 0.1026(4)
H15C H 0.6954(12) 0.0738(16) 0.118(5)
H16C H 0.6948(11) 0.175(2) 0.172(4)
O12C O 0.73647(9) 0.0845(3) -0.1774(4)
H17C H 0.7478(14) 0.072(4) -0.265(3)
H18C H 0.7493(13) 0.064(4) -0.103(3)
Ho1D Ho 0.678675(6) -0.179558(16) -0.66009(2)
Ho1G Ho 0.321325(6) -0.179558(16) 1.16009(2)
O6D O 0.64677(9) 0.0173(2) -0.0939(4)
O6G O 0.35323(9) 0.0173(2) 0.5939(4)
O13 O 0.32020(11) 0.2839(2) 0.1915(3)
H19 H 0.3442(5) 0.285(3) 0.203(4)
H20 H 0.3143(11) 0.275(4) 0.097(3)
loop_
_geom_bond_atom_site_label_1
_geom_bond_atom_site_label_2
_geom_bond_site_symmetry_1
_geom_bond_site_symmetry_2
Ho1 O1 1_555 1_555
C1 O1 1_555 1_555
O1 C2 1_555 1_555
C2 H1 1_555 1_555
H2 C2 1_555 1_555
C3 C2 1_555 1_555
O2 Ho1 1_555 1_555
O3 C3 1_555 1_555
C4 C1 1_555 1_555
O4 Ho1 1_555 1_555
C5 O4 1_555 1_555
H3 C5 1_555 1_555
H4 C5 1_555 1_555
C6 C5 1_555 1_555
O5 Ho1 1_555 1_555
O6 C6 1_555 1_555
C7 C4 1_555 1_555
H5 C7 1_555 1_555
C8 C7 1_555 1_555
H6 C8 1_555 1_555
C9 C8 1_555 1_555
H7 C9 1_555 1_555
C10 C1 1_555 1_555
H8 C10 1_555 1_555
C11 O7 1_555 1_555
O7 C12 1_555 1_555
C12 H9 1_555 1_555
H10 C12 1_555 1_555
C13 C12 1_555 1_555
O8 Ho1 1_555 1_555
O9 C13 1_555 1_555
C14 H11 1_555 1_555
C15 C11 1_555 1_555
H12 C15 1_555 1_555
O10 Ho1 1_555 1_555
H13 O10 1_555 1_555
H14 O10 1_555 1_555
O11 Ho1 1_555 1_555
H15 O11 1_555 1_555
H16 O11 1_555 1_555
O12 Ho1 1_555 1_555
H17 O12 1_555 1_555
H18 O12 1_555 1_555
O13 H19 1_555 1_555
H20 O13 1_555 1_555
C11C C11 1_555 1_555
O7C C11C 1_555 1_555
C12C O7C 1_555 1_555
H9C C12C 1_555 1_555
H10C C12C 1_555 1_555
C13C C12C 1_555 1_555
O8C C13C 1_555 1_555
O9C C13C 1_555 1_555
C14C C14 1_555 1_555
H11C C14C 1_555 1_555
C15C C11C 1_555 1_555
H12C C15C 1_555 1_555
Ho1C O8C 1_555 1_555
C1C O1C 1_555 1_555
O1C Ho1C 1_555 1_555
C2C O1C 1_555 1_555
H1C C2C 1_555 1_555
H2C C2C 1_555 1_555
C3C C2C 1_555 1_555
O2C Ho1C 1_555 1_555
O3C C3C 1_555 1_555
C4C C1C 1_555 1_555
O4C Ho1C 1_555 1_555
C5C O4C 1_555 1_555
H3C C5C 1_555 1_555
H4C C5C 1_555 1_555
C6C C5C 1_555 1_555
O5C Ho1C 1_555 1_555
O6C C6C 1_555 1_555
C7C C4C 1_555 1_555
H5C C7C 1_555 1_555
C8C C7C 1_555 1_555
H6C C8C 1_555 1_555
C9C C8C 1_555 1_555
H7C C9C 1_555 1_555
C10C C1C 1_555 1_555
H8C C10C 1_555 1_555
O10C Ho1C 1_555 1_555
H13C O10C 1_555 1_555
H14C O10C 1_555 1_555
O11C Ho1C 1_555 1_555
H15C O11C 1_555 1_555
H16C O11C 1_555 1_555
O12C Ho1C 1_555 1_555
H17C O12C 1_555 1_555
H18C O12C 1_555 1_555
Ho1D O6C 1_555 1_555
Ho1G O6 1_555 1_555
O6D Ho1C 1_555 1_555
O6G Ho1 1_555 1_555
C3 O2 1_555 1_555
C4 O4 1_555 1_555
C6 O5 1_555 1_555
C9 C10 1_555 1_555
C13 O8 1_555 1_555
C14 C15 1_555 1_555
C14C C15C 1_555 1_555
C3C O2C 1_555 1_555
C4C O4C 1_555 1_555
C6C O5C 1_555 1_555
C9C C10C 1_555 1_555

#END
