
#######################################################################
#
#                 Cambridge Crystallographic Data Centre
#                                CCDC 
#
#######################################################################
#
# If this CIF has been generated from an entry in the Cambridge 
# Structural Database, then it will include bibliographic, chemical, 
# crystal, experimental, refinement or atomic coordinate data resulting 
# from the CCDC's data processing and validation procedures.
#
#######################################################################

data_LEYTIU01
_symmetry_cell_setting           monoclinic
_symmetry_space_group_name_H-M   'C 2/c'
_symmetry_Int_Tables_number      15
_space_group_name_Hall           '-C 2yn'
loop_
_symmetry_equiv_pos_site_id
_symmetry_equiv_pos_as_xyz
1 x,y,z
2 -x,y,1/2-z
3 1/2+x,1/2+y,z
4 1/2-x,1/2+y,1/2-z
5 -x,-y,-z
6 x,-y,1/2+z
7 1/2-x,1/2-y,-z
8 1/2+x,1/2-y,1/2+z
_cell_length_a                   34.1989(8)
_cell_length_b                   12.4413(2)
_cell_length_c                   8.8330(2)
_cell_angle_alpha                90
_cell_angle_beta                 91.210(2)
_cell_angle_gamma                90
_cell_volume                     3757.42
loop_
_atom_site_label
_atom_site_type_symbol
_atom_site_fract_x
_atom_site_fract_y
_atom_site_fract_z
Ce1 Ce 0.677601(3) 0.682356(8) 0.683113(12)
C1 C 0.64805(7) 0.55836(16) 1.0046(2)
C2 C 0.61304(7) 0.63166(17) 0.9888(3)
H1 H 0.5897 0.5896 0.9572
H2 H 0.6077 0.6661 1.0873
C3 C 0.59561(6) 0.79950(16) 0.8688(2)
C4 C 0.56000(7) 0.80305(17) 0.9389(3)
H3 H 0.5519 0.7449 1.0006
C5 C 0.53597(7) 0.89224(19) 0.9187(3)
H4 H 0.5113 0.8945 0.9661
C6 C 0.54754(7) 0.97702(18) 0.8308(3)
H5 H 0.5308 1.0372 0.8167
C7 C 0.58373(7) 0.97494(16) 0.7625(3)
H6 H 0.5919 1.0341 0.7029
C8 C 0.60797(6) 0.88647(16) 0.7815(2)
C9 C 0.65530(7) 0.96030(16) 0.6156(3)
H7 H 0.6580 1.0297 0.6696
H8 H 0.6347 0.9681 0.5360
C10 C 0.69370(7) 0.93127(16) 0.5439(2)
C11 C 0.60131(8) 0.75066(18) 0.4087(3)
C12 C 0.55951(8) 0.7612(2) 0.4616(3)
H9 H 0.5541 0.7013 0.5318
H10 H 0.5572 0.8290 0.5194
C13 C 0.51675(9) 0.6627(2) 0.2971(3)
C14 C 0.53382(12) 0.5662(3) 0.3373(5)
H11 H 0.5574 0.5659 0.3963
C15 C 0.51695(17) 0.4696(3) 0.2925(7)
H12 H 0.5289 0.4035 0.3207
O1 O 0.67513(5) 0.56766(11) 0.91131(17)
O2 O 0.64731(5) 0.49194(13) 1.11048(19)
O3 O 0.62111(5) 0.71266(12) 0.87700(17)
O4 O 0.64455(4) 0.87775(11) 0.71977(17)
O5 O 0.71005(5) 0.84377(12) 0.58146(18)
O6 O 0.70688(5) 0.99683(12) 0.4516(2)
O7 O 0.62552(5) 0.72206(15) 0.5090(2)
O8 O 0.60894(7) 0.77610(17) 0.2773(2)
O9 O 0.53024(6) 0.76088(13) 0.3434(2)
O10 O 0.74423(5) 0.60425(15) 0.7388(2)
H13 H 0.7593(10) 0.635(3) 0.782(4)
H14 H 0.7600(9) 0.570(3) 0.681(4)
O11 O 0.71024(5) 0.62597(13) 0.43732(18)
H15 H 0.7042(8) 0.564(2) 0.416(3)
H16 H 0.7345(9) 0.633(2) 0.431(3)
O12 O 0.70888(5) 0.78082(13) 0.90323(19)
H17 H 0.7050(9) 0.765(2) 0.988(4)
H18 H 0.7080(9) 0.846(2) 0.907(3)
C11A C 0.39869(8) 0.75066(18) 0.0913(3)
C12A C 0.44049(8) 0.7612(2) 0.0384(3)
H9A H 0.4459 0.7013 -0.0318
H10A H 0.4428 0.8290 -0.0194
C13A C 0.48325(9) 0.6627(2) 0.2029(3)
C14A C 0.46618(12) 0.5662(3) 0.1627(5)
H11A H 0.4426 0.5659 0.1037
C15A C 0.48305(17) 0.4696(3) 0.2075(7)
H12A H 0.4711 0.4035 0.1793
O7A O 0.37448(5) 0.72206(15) -0.0090(2)
O8A O 0.39106(7) 0.77610(17) 0.2227(2)
O9A O 0.46976(6) 0.76088(13) 0.1566(2)
Ce1A Ce 0.322399(3) 0.682356(8) -0.183113(12)
C1A C 0.35195(7) 0.55836(16) -0.5046(2)
C2A C 0.38696(7) 0.63166(17) -0.4888(3)
H1A H 0.4103 0.5896 -0.4572
H2A H 0.3923 0.6661 -0.5873
C3A C 0.40439(6) 0.79950(16) -0.3688(2)
C4A C 0.44000(7) 0.80305(17) -0.4389(3)
H3A H 0.4481 0.7449 -0.5006
C5A C 0.46403(7) 0.89224(19) -0.4187(3)
H4A H 0.4887 0.8945 -0.4661
C6A C 0.45246(7) 0.97702(18) -0.3308(3)
H5A H 0.4692 1.0372 -0.3167
C7A C 0.41627(7) 0.97494(16) -0.2625(3)
H6A H 0.4081 1.0341 -0.2029
C8A C 0.39203(6) 0.88647(16) -0.2815(2)
C9A C 0.34470(7) 0.96030(16) -0.1156(3)
H7A H 0.3420 1.0297 -0.1696
H8A H 0.3653 0.9681 -0.0360
C10A C 0.30630(7) 0.93127(16) -0.0439(2)
O1A O 0.32487(5) 0.56766(11) -0.41131(17)
O2A O 0.35269(5) 0.49194(13) -0.61048(19)
O3A O 0.37889(5) 0.71266(12) -0.37700(17)
O4A O 0.35545(4) 0.87775(11) -0.21977(17)
O5A O 0.28995(5) 0.84377(12) -0.08146(18)
O6A O 0.29312(5) 0.99683(12) 0.0484(2)
O10A O 0.25577(5) 0.60425(15) -0.2388(2)
H13A H 0.2407(10) 0.635(3) -0.282(4)
H14A H 0.2400(9) 0.570(3) -0.181(4)
O11A O 0.28976(5) 0.62597(13) 0.06268(18)
H15A H 0.2958(8) 0.564(2) 0.084(3)
H16A H 0.2655(9) 0.633(2) 0.069(3)
O12A O 0.29112(5) 0.78082(13) -0.40323(19)
H17A H 0.2950(9) 0.765(2) -0.488(4)
H18A H 0.2920(9) 0.846(2) -0.407(3)
Ce1D Ce 0.322399(3) 0.317644(8) -0.683113(12)
Ce1E Ce 0.677601(3) 0.317644(8) 1.183113(12)
O2D O 0.35269(5) 0.50806(13) -0.11048(19)
O2E O 0.64731(5) 0.50806(13) 0.61048(19)
O13 O 0.68587(7) 0.75943(17) 0.1950(2)
H19 H 0.6944(11) 0.718(3) 0.256(4)
H20 H 0.6634(11) 0.770(3) 0.217(4)
loop_
_geom_bond_atom_site_label_1
_geom_bond_atom_site_label_2
_geom_bond_site_symmetry_1
_geom_bond_site_symmetry_2
Ce1 O1 1_555 1_555
C1 C2 1_555 1_555
C2 H1 1_555 1_555
H2 C2 1_555 1_555
C3 C4 1_555 1_555
C4 H3 1_555 1_555
C5 C4 1_555 1_555
H4 C5 1_555 1_555
C6 C5 1_555 1_555
H5 C6 1_555 1_555
C7 C6 1_555 1_555
H6 C7 1_555 1_555
C8 C3 1_555 1_555
C9 H7 1_555 1_555
H8 C9 1_555 1_555
C10 C9 1_555 1_555
C11 C12 1_555 1_555
C12 H9 1_555 1_555
H10 C12 1_555 1_555
C13 C14 1_555 1_555
C14 H11 1_555 1_555
C15 C14 1_555 1_555
H12 C15 1_555 1_555
O1 C1 1_555 1_555
O2 C1 1_555 1_555
O3 Ce1 1_555 1_555
O4 Ce1 1_555 1_555
O5 Ce1 1_555 1_555
O6 C10 1_555 1_555
O7 Ce1 1_555 1_555
O8 C11 1_555 1_555
O9 C12 1_555 1_555
O10 Ce1 1_555 1_555
H13 O10 1_555 1_555
H14 O10 1_555 1_555
O11 Ce1 1_555 1_555
H15 O11 1_555 1_555
H16 O11 1_555 1_555
O12 Ce1 1_555 1_555
H17 O12 1_555 1_555
H18 O12 1_555 1_555
O13 H19 1_555 1_555
H20 O13 1_555 1_555
C11A C12A 1_555 1_555
C12A H9A 1_555 1_555
H10A C12A 1_555 1_555
C13A C13 1_555 1_555
C14A C13A 1_555 1_555
H11A C14A 1_555 1_555
C15A C15 1_555 1_555
H12A C15A 1_555 1_555
O7A C11A 1_555 1_555
O8A C11A 1_555 1_555
O9A C12A 1_555 1_555
Ce1A O7A 1_555 1_555
C1A C2A 1_555 1_555
C2A H1A 1_555 1_555
H2A C2A 1_555 1_555
C3A C4A 1_555 1_555
C4A H3A 1_555 1_555
C5A C4A 1_555 1_555
H4A C5A 1_555 1_555
C6A C5A 1_555 1_555
H5A C6A 1_555 1_555
C7A C6A 1_555 1_555
H6A C7A 1_555 1_555
C8A C3A 1_555 1_555
C9A H7A 1_555 1_555
H8A C9A 1_555 1_555
C10A C9A 1_555 1_555
O1A Ce1A 1_555 1_555
O2A C1A 1_555 1_555
O3A Ce1A 1_555 1_555
O4A Ce1A 1_555 1_555
O5A Ce1A 1_555 1_555
O6A C10A 1_555 1_555
O10A Ce1A 1_555 1_555
H13A O10A 1_555 1_555
H14A O10A 1_555 1_555
O11A Ce1A 1_555 1_555
H15A O11A 1_555 1_555
H16A O11A 1_555 1_555
O12A Ce1A 1_555 1_555
H17A O12A 1_555 1_555
H18A O12A 1_555 1_555
Ce1D O2A 1_555 1_555
Ce1E O2 1_555 1_555
O2D Ce1A 1_555 1_555
O2E Ce1 1_555 1_555
C2 O3 1_555 1_555
C3 O3 1_555 1_555
C7 C8 1_555 1_555
C8 O4 1_555 1_555
C9 O4 1_555 1_555
C10 O5 1_555 1_555
C11 O7 1_555 1_555
C13 O9 1_555 1_555
C13A O9A 1_555 1_555
C14A C15A 1_555 1_555
C1A O1A 1_555 1_555
C2A O3A 1_555 1_555
C3A O3A 1_555 1_555
C7A C8A 1_555 1_555
C8A O4A 1_555 1_555
C9A O4A 1_555 1_555
C10A O5A 1_555 1_555

#END
