
#######################################################################
#
#                 Cambridge Crystallographic Data Centre
#                                CCDC 
#
#######################################################################
#
# If this CIF has been generated from an entry in the Cambridge 
# Structural Database, then it will include bibliographic, chemical, 
# crystal, experimental, refinement or atomic coordinate data resulting 
# from the CCDC's data processing and validation procedures.
#
#######################################################################

data_LEYWIX
_symmetry_cell_setting           triclinic
_symmetry_space_group_name_H-M   'P -1'
_symmetry_Int_Tables_number      2
_space_group_name_Hall           '-P 1'
loop_
_symmetry_equiv_pos_site_id
_symmetry_equiv_pos_as_xyz
1 x,y,z
2 -x,-y,-z
_cell_length_a                   8.966(2)
_cell_length_b                   10.949(3)
_cell_length_c                   11.620(3)
_cell_angle_alpha                100.988(3)
_cell_angle_beta                 98.286(3)
_cell_angle_gamma                102.071(3)
_cell_volume                     1074.75
loop_
_atom_site_label
_atom_site_type_symbol
_atom_site_fract_x
_atom_site_fract_y
_atom_site_fract_z
Cu1 Cu -0.5000 0.5000 0.5000
O1 O 0.2004(14) 0.4887(11) 0.8824(11)
O2 O 0.4207(15) 0.1174(10) 0.7486(10)
N1 N -0.3473(15) 0.4664(12) 0.6295(11)
N2 N -0.0436(15) 0.3608(14) 0.8754(12)
H1 H -0.0903 0.3022 0.9064
N3 N 0.1699(15) 0.3364(12) 0.9901(11)
H2 H 0.1048 0.2770 1.0085
N4 N 0.3780(16) 0.1550(11) 0.9399(12)
H3 H 0.3429 0.1207 0.9945
N5 N 0.3641(17) -0.0495(12) 0.8410(12)
H4 H 0.3184 -0.0707 0.8956
N6 N 0.4659(16) -0.3531(12) 0.6148(11)
C1 C -0.3943(18) 0.3658(16) 0.6795(15)
H5 H -0.4968 0.3179 0.6581
C2 C -0.2932(17) 0.3356(15) 0.7598(15)
H6 H -0.3276 0.2670 0.7937
C3 C -0.1406(18) 0.4028(15) 0.7933(13)
C4 C -0.093(2) 0.5078(18) 0.7439(16)
H7 H 0.0090 0.5569 0.7649
C5 C -0.2010(19) 0.5368(16) 0.6630(15)
H8 H -0.1710 0.6076 0.6309
C6 C 0.1175(18) 0.4029(14) 0.9143(13)
C7 C 0.3334(18) 0.3606(14) 1.0417(14)
H9 H 0.3430 0.3309 1.1153
H10 H 0.3781 0.4524 1.0617
C8 C 0.4257(19) 0.2959(15) 0.9600(15)
H11 H 0.4105 0.3202 0.8839
H12 H 0.5355 0.3253 0.9953
C9 C 0.393(2) 0.0801(13) 0.8351(15)
C10 C 0.4004(18) -0.1491(14) 0.7641(13)
C11 C 0.498(2) -0.1274(14) 0.6855(16)
H13 H 0.5436 -0.0442 0.6816
C12 C 0.526(2) -0.2315(16) 0.6122(15)
H14 H 0.5911 -0.2162 0.5581
C13 C 0.373(2) -0.3714(15) 0.6948(14)
H15 H 0.3286 -0.4550 0.6984
C14 C 0.3411(18) -0.2720(13) 0.7709(13)
H16 H 0.2795 -0.2885 0.8267
O1A O -1.2004(14) 0.5113(11) 0.1176(11)
O2A O -1.4207(15) 0.8826(10) 0.2514(10)
N1A N -0.6527(15) 0.5336(12) 0.3705(11)
N2A N -0.9564(15) 0.6392(14) 0.1246(12)
H1A H -0.9097 0.6978 0.0936
N3A N -1.1699(15) 0.6636(12) 0.0099(11)
H2A H -1.1048 0.7230 -0.0085
N4A N -1.3780(16) 0.8450(11) 0.0601(12)
H3A H -1.3429 0.8793 0.0055
N5A N -1.3641(17) 1.0495(12) 0.1590(12)
H4A H -1.3184 1.0707 0.1044
N6A N -1.4659(16) 1.3531(12) 0.3852(11)
C1A C -0.6057(18) 0.6342(16) 0.3205(15)
H5A H -0.5032 0.6821 0.3419
C2A C -0.7068(17) 0.6644(15) 0.2402(15)
H6A H -0.6724 0.7330 0.2063
C3A C -0.8594(18) 0.5972(15) 0.2067(13)
C4A C -0.907(2) 0.4922(18) 0.2561(16)
H7A H -1.0090 0.4431 0.2351
C5A C -0.7990(19) 0.4632(16) 0.3370(15)
H8A H -0.8290 0.3924 0.3691
C6A C -1.1175(18) 0.5971(14) 0.0857(13)
C7A C -1.3334(18) 0.6394(14) -0.0417(14)
H9A H -1.3430 0.6691 -0.1153
H10A H -1.3781 0.5476 -0.0617
C8A C -1.4257(19) 0.7041(15) 0.0400(15)
H11A H -1.4105 0.6798 0.1161
H12A H -1.5355 0.6747 0.0047
C9A C -1.393(2) 0.9199(13) 0.1649(15)
C10A C -1.4004(18) 1.1491(14) 0.2359(13)
C11A C -1.498(2) 1.1274(14) 0.3145(16)
H13A H -1.5436 1.0442 0.3184
C12A C -1.526(2) 1.2315(16) 0.3878(15)
H14A H -1.5911 1.2162 0.4419
C13A C -1.373(2) 1.3714(15) 0.3052(14)
H15A H -1.3286 1.4550 0.3016
C14A C -1.3411(18) 1.2720(13) 0.2291(13)
H16A H -1.2795 1.2885 0.1733
Cu1_2 Cu -1.5000 1.5000 0.5000
Cu1_3 Cu 0.5000 -0.5000 0.5000
N6_2 N -0.5341(16) 0.6469(12) 0.6148(11)
N6A_2 N -0.4659(16) 0.3531(12) 0.3852(11)
Cl1 Cl 0.2032(7) 0.9008(5) 0.0594(5)
O3 O 0.2347(13) 0.3253(13) 0.5546(12)
C15 C -0.052(4) 0.109(2) 0.647(2)
N7 N -0.008(7) 0.137(5) 0.575(5)
C16 C 0.171(2) 0.2513(19) 0.6048(15)
C17 C -0.080(2) 0.223(3) 0.482(2)
O4 O 0.075(3) 0.143(2) 0.174(2)
H17 H 0.1069 0.0625 0.1494
H18 H 0.0267 0.1861 0.1369
O5? O 0.248(5) 0.247(4) 0.502(4)
C18? C 0.0000 0.0000 0.5000
N8? N 0.018(2) 0.2015(15) 0.5840(16)
loop_
_geom_bond_atom_site_label_1
_geom_bond_atom_site_label_2
_geom_bond_site_symmetry_1
_geom_bond_site_symmetry_2
Cu1 N1 1_555 1_555
O1 C6 1_555 1_555
O2 C9 1_555 1_555
N1 C1 1_555 1_555
N2 H1 1_555 1_555
N3 H2 1_555 1_555
N4 H3 1_555 1_555
N5 H4 1_555 1_555
N6 C12 1_555 1_555
C1 H5 1_555 1_555
C2 C1 1_555 1_555
H6 C2 1_555 1_555
C3 N2 1_555 1_555
C4 C3 1_555 1_555
H7 C4 1_555 1_555
C5 N1 1_555 1_555
H8 C5 1_555 1_555
C6 N2 1_555 1_555
C7 N3 1_555 1_555
H9 C7 1_555 1_555
H10 C7 1_555 1_555
C8 N4 1_555 1_555
H11 C8 1_555 1_555
H12 C8 1_555 1_555
C9 N4 1_555 1_555
C10 N5 1_555 1_555
C11 C10 1_555 1_555
H13 C11 1_555 1_555
C12 C11 1_555 1_555
H14 C12 1_555 1_555
C13 N6 1_555 1_555
H15 C13 1_555 1_555
C14 C10 1_555 1_555
H16 C14 1_555 1_555
O3 C16 1_555 1_555
C15 N7 1_555 1_555
N7 C16 1_555 1_555
C17 N7 1_555 1_555
O4 H17 1_555 1_555
H18 O4 1_555 1_555
O1A C6A 1_555 1_555
O2A C9A 1_555 1_555
N1A Cu1 1_555 1_555
N2A H1A 1_555 1_555
N3A H2A 1_555 1_555
N4A H3A 1_555 1_555
N5A H4A 1_555 1_555
N6A C12A 1_555 1_555
C1A N1A 1_555 1_555
H5A C1A 1_555 1_555
C2A C1A 1_555 1_555
H6A C2A 1_555 1_555
C3A N2A 1_555 1_555
C4A C3A 1_555 1_555
H7A C4A 1_555 1_555
C5A N1A 1_555 1_555
H8A C5A 1_555 1_555
C6A N2A 1_555 1_555
C7A N3A 1_555 1_555
H9A C7A 1_555 1_555
H10A C7A 1_555 1_555
C8A N4A 1_555 1_555
H11A C8A 1_555 1_555
H12A C8A 1_555 1_555
C9A N4A 1_555 1_555
C10A N5A 1_555 1_555
C11A C10A 1_555 1_555
H13A C11A 1_555 1_555
C12A C11A 1_555 1_555
H14A C12A 1_555 1_555
C13A N6A 1_555 1_555
H15A C13A 1_555 1_555
C14A C10A 1_555 1_555
H16A C14A 1_555 1_555
Cu1_2 N6A 1_555 1_555
Cu1_3 N6 1_555 1_555
N6_2 Cu1 1_555 1_555
N6A_2 Cu1 1_555 1_555
N3 C6 1_555 1_555
N5 C9 1_555 1_555
C2 C3 1_555 1_555
C4 C5 1_555 1_555
C7 C8 1_555 1_555
C13 C14 1_555 1_555
N3A C6A 1_555 1_555
N5A C9A 1_555 1_555
C2A C3A 1_555 1_555
C4A C5A 1_555 1_555
C7A C8A 1_555 1_555
C13A C14A 1_555 1_555

#END
