
#######################################################################
#
#                 Cambridge Crystallographic Data Centre
#                                CCDC 
#
#######################################################################
#
# If this CIF has been generated from an entry in the Cambridge 
# Structural Database, then it will include bibliographic, chemical, 
# crystal, experimental, refinement or atomic coordinate data resulting 
# from the CCDC's data processing and validation procedures.
#
#######################################################################

data_LEYWUJ
_symmetry_cell_setting           triclinic
_symmetry_space_group_name_H-M   'P -1'
_symmetry_Int_Tables_number      2
_space_group_name_Hall           '-P 1'
loop_
_symmetry_equiv_pos_site_id
_symmetry_equiv_pos_as_xyz
1 x,y,z
2 -x,-y,-z
_cell_length_a                   10.0028(11)
_cell_length_b                   11.9202(13)
_cell_length_c                   14.3524(16)
_cell_angle_alpha                99.7760(10)
_cell_angle_beta                 102.1300(10)
_cell_angle_gamma                110.143(2)
_cell_volume                     1515.12
loop_
_atom_site_label
_atom_site_type_symbol
_atom_site_fract_x
_atom_site_fract_y
_atom_site_fract_z
Cu1 Cu 0.47180(5) 0.41687(4) 0.40164(3)
Cu2 Cu 0.58183(5) 0.69100(4) 0.40371(3)
O1 O 1.1094(3) 0.9190(3) 0.1554(2)
O2 O 1.1824(4) 0.8652(3) -0.1182(2)
O3 O 0.7221(3) 0.6047(2) 0.4285(2)
O4 O 0.7738(3) 0.7264(3) 0.5763(2)
O5 O 0.4706(3) 0.7981(2) 0.4065(2)
O6 O 0.2516(3) 0.6545(3) 0.3985(3)
O7 O 0.3494(3) 0.3914(2) 0.26910(19)
O8 O 0.4567(3) 0.5771(3) 0.2463(2)
O9 O 0.4518(3) 0.5705(2) 0.45774(18)
N1 N 0.7339(4) 0.8088(3) 0.3598(2)
N2 N 1.0709(4) 1.0483(3) 0.2736(2)
H1 H 1.1061 1.1241 0.3077
N3 N 1.2132(4) 1.1249(3) 0.1751(2)
H2 H 1.2182 1.1965 0.2034
N4 N 1.2823(4) 1.0747(3) -0.0715(2)
H3 H 1.3445 1.1410 -0.0789
N5 N 1.3491(4) 0.9750(3) -0.1906(2)
H4 H 1.3935 1.0483 -0.1963
N6 N 1.4489(4) 0.7050(3) -0.3521(2)
C1 C 0.7979(5) 0.9307(4) 0.4014(3)
H5 H 0.7643 0.9635 0.4509
C2 C 0.9099(5) 1.0094(4) 0.3750(3)
H6 H 0.9515 1.0935 0.4072
C3 C 0.9627(4) 0.9657(3) 0.3004(3)
C4 C 0.8970(5) 0.8392(4) 0.2572(3)
H7 H 0.9281 0.8037 0.2075
C5 C 0.7855(5) 0.7673(4) 0.2889(3)
H8 H 0.7423 0.6827 0.2585
C6 C 1.1303(4) 1.0237(4) 0.1979(3)
C7 C 1.2942(4) 1.1147(4) 0.1034(3)
H9 H 1.3312 1.0502 0.1097
H10 H 1.3793 1.1921 0.1174
C8 C 1.1989(5) 1.0849(4) -0.0011(3)
H11 H 1.1137 1.0074 -0.0155
H12 H 1.1622 1.1494 -0.0079
C9 C 1.2645(5) 0.9648(4) -0.1249(3)
C10 C 1.3704(4) 0.8801(4) -0.2481(3)
C11 C 1.4631(5) 0.9114(4) -0.3079(3)
H13 H 1.4996 0.9918 -0.3144
C12 C 1.5001(5) 0.8233(4) -0.3567(3)
H14 H 1.5639 0.8463 -0.3951
C13 C 1.3533(5) 0.6737(4) -0.2996(3)
H15 H 1.3138 0.5914 -0.2977
C14 C 1.3095(5) 0.7565(4) -0.2477(3)
H16 H 1.2408 0.7301 -0.2132
C15 C 0.8016(5) 0.6532(4) 0.5182(3)
C16 C 0.9305(5) 0.6212(5) 0.5516(4)
H17 H 0.9872 0.6297 0.5049
H18 H 0.8961 0.5372 0.5563
H19 H 0.9922 0.6757 0.6151
C17 C 0.3316(5) 0.7593(4) 0.3991(3)
C18 C 0.2655(6) 0.8550(5) 0.3939(4)
H20 H 0.2432 0.8627 0.3275
H21 H 0.3355 0.9334 0.4376
H22 H 0.1758 0.8299 0.4134
C19 C 0.3579(5) 0.4734(4) 0.2217(3)
C20 C 0.2326(8) 0.4371(6) 0.1295(4)
H23 H 0.1856 0.4949 0.1339
H24 H 0.1612 0.3555 0.1221
H25 H 0.2708 0.4375 0.0735
H26 H 0.366(2) 0.573(3) 0.446(3)
Cu1A Cu 0.52820(5) 0.58313(4) 0.59836(3)
Cu1A_2 Cu 1.52820(5) 0.58313(4) -0.40164(3)
O4A O 0.2262(3) 0.2736(3) 0.4237(2)
O9A O 0.5482(3) 0.4295(2) 0.54226(18)
N6A N 0.5511(4) 0.2950(3) 0.3521(2)
O10 O 0.2029(6) 0.7604(5) 0.0456(3)
H27 H 0.186(6) 0.793(4) -0.008(2)
H28 H 0.189(6) 0.690(3) 0.006(3)
O11 O 0.4782(4) 0.7660(3) 0.1410(3)
H29 H 0.462(5) 0.702(3) 0.165(3)
H30 H 0.387(3) 0.743(4) 0.105(3)
loop_
_geom_bond_atom_site_label_1
_geom_bond_atom_site_label_2
_geom_bond_site_symmetry_1
_geom_bond_site_symmetry_2
Cu1 O3 1_555 1_555
Cu2 O3 1_555 1_555
O1 C6 1_555 1_555
O2 C9 1_555 1_555
O3 C15 1_555 1_555
O4 Cu2 1_555 1_555
O5 Cu2 1_555 1_555
O6 C17 1_555 1_555
O7 Cu1 1_555 1_555
O8 Cu2 1_555 1_555
O9 Cu1 1_555 1_555
N1 Cu2 1_555 1_555
N2 H1 1_555 1_555
N3 H2 1_555 1_555
N4 H3 1_555 1_555
N5 H4 1_555 1_555
N6 C12 1_555 1_555
C1 N1 1_555 1_555
H5 C1 1_555 1_555
C2 C1 1_555 1_555
H6 C2 1_555 1_555
C3 N2 1_555 1_555
C4 C3 1_555 1_555
H7 C4 1_555 1_555
C5 N1 1_555 1_555
H8 C5 1_555 1_555
C6 N2 1_555 1_555
C7 N3 1_555 1_555
H9 C7 1_555 1_555
H10 C7 1_555 1_555
C8 N4 1_555 1_555
H11 C8 1_555 1_555
H12 C8 1_555 1_555
C9 N4 1_555 1_555
C10 N5 1_555 1_555
C11 C10 1_555 1_555
H13 C11 1_555 1_555
C12 C11 1_555 1_555
H14 C12 1_555 1_555
C13 N6 1_555 1_555
H15 C13 1_555 1_555
C14 C10 1_555 1_555
H16 C14 1_555 1_555
C15 O4 1_555 1_555
C16 C15 1_555 1_555
H17 C16 1_555 1_555
H18 C16 1_555 1_555
H19 C16 1_555 1_555
C17 O5 1_555 1_555
C18 C17 1_555 1_555
H20 C18 1_555 1_555
H21 C18 1_555 1_555
H22 C18 1_555 1_555
C19 O7 1_555 1_555
C20 C19 1_555 1_555
H23 C20 1_555 1_555
H24 C20 1_555 1_555
H25 C20 1_555 1_555
H26 O9 1_555 1_555
O10 H27 1_555 1_555
H28 O10 1_555 1_555
O11 H29 1_555 1_555
H30 O11 1_555 1_555
Cu1A O4 1_555 1_555
Cu1A_2 N6 1_555 1_555
O4A Cu1 1_555 1_555
O9A Cu1 1_555 1_555
N6A Cu1 1_555 1_555
Cu2 O9 1_555 1_555
O8 C19 1_555 1_555
O9 Cu1A 1_555 1_555
N3 C6 1_555 1_555
N5 C9 1_555 1_555
C2 C3 1_555 1_555
C4 C5 1_555 1_555
C7 C8 1_555 1_555
C13 C14 1_555 1_555
Cu1A O9A 1_555 1_555

#END
