
#######################################################################
#
#                 Cambridge Crystallographic Data Centre
#                                CCDC 
#
#######################################################################
#
# If this CIF has been generated from an entry in the Cambridge 
# Structural Database, then it will include bibliographic, chemical, 
# crystal, experimental, refinement or atomic coordinate data resulting 
# from the CCDC's data processing and validation procedures.
#
#######################################################################

data_LEYWET
_symmetry_cell_setting           monoclinic
_symmetry_space_group_name_H-M   'P 21/c'
_symmetry_Int_Tables_number      14
_space_group_name_Hall           '-P 2ybc'
loop_
_symmetry_equiv_pos_site_id
_symmetry_equiv_pos_as_xyz
1 x,y,z
2 -x,1/2+y,1/2-z
3 -x,-y,-z
4 x,1/2-y,1/2+z
_cell_length_a                   11.8981(3)
_cell_length_b                   16.9246(5)
_cell_length_c                   19.3535(5)
_cell_angle_alpha                90
_cell_angle_beta                 125.174(2)
_cell_angle_gamma                90
_cell_volume                     3185.62
loop_
_atom_site_label
_atom_site_type_symbol
_atom_site_fract_x
_atom_site_fract_y
_atom_site_fract_z
Co1 Co 0.87359(4) 1.02514(2) 0.25591(2)
O1 O 0.5880(3) 0.63468(16) 0.11077(16)
O2 O 1.2170(3) 0.66607(14) 0.45153(13)
O3 O 1.0587(2) 0.42397(14) 0.42477(14)
O4 O 0.7576(3) 1.03701(14) 0.30458(16)
H1 H 0.7223 0.9944 0.3018
H2 H 0.719(4) 1.0765(19) 0.305(3)
O5 O 0.7317(3) 1.10006(14) 0.15440(14)
H3 H 0.7629 1.1129 0.1278
H4 H 0.679(4) 1.131(2) 0.152(3)
O6 O 0.9822(3) 1.02130(19) 0.20008(17)
N1 N 0.7501(3) 0.92612(16) 0.17809(14)
N2 N 0.5380(3) 0.73390(16) 0.01708(15)
H5 H 0.4937 0.7447 -0.0359
N3 N 0.4673(3) 0.60672(17) -0.02775(19)
H6 H 0.4412 0.6225 -0.0772
N4 N 1.0085(3) 0.94207(16) 0.35265(14)
N5 N 1.2469(3) 0.76946(16) 0.53656(14)
H7 H 1.2870 0.7845 0.5881
N6 N 1.3368(3) 0.64849(16) 0.59288(15)
H8 H 1.3767 0.6711 0.6414
N7 N 1.2268(3) 0.43787(18) 0.56454(18)
H9 H 1.2863 0.4134 0.6105
N8 N 1.1714(3) 0.31521(17) 0.50699(16)
H10 H 1.2328 0.3004 0.5580
N9 N 0.9897(3) 0.12780(17) 0.33351(16)
C1 C 0.7375(4) 0.8587(2) 0.20825(19)
H11 H 0.7788 0.8557 0.2661
C2 C 0.6678(4) 0.7926(2) 0.16030(19)
H12 H 0.6617 0.7473 0.1851
C3 C 0.6065(3) 0.79603(18) 0.07287(17)
C4 C 0.6128(3) 0.86790(19) 0.04068(18)
H13 H 0.5680 0.8741 -0.0173
C5 C 0.6839(3) 0.9291(2) 0.09352(18)
H14 H 0.6874 0.9761 0.0699
C6 C 0.5338(4) 0.6570(2) 0.0376(2)
C7 C 0.4388(4) 0.5265(2) -0.0167(3)
H15 H 0.3622 0.5062 -0.0706
H16 H 0.4123 0.5262 0.0222
C8 C 1.0715(3) 0.8848(2) 0.33919(19)
H17 H 1.0615 0.8849 0.2879
C9 C 1.1495(3) 0.8261(2) 0.39572(19)
H18 H 1.1897 0.7877 0.3822
C10 C 1.1680(3) 0.82471(18) 0.47367(17)
C11 C 1.1060(4) 0.8850(2) 0.48897(18)
H19 H 1.1183 0.8878 0.5409
C12 C 1.0270(4) 0.9402(2) 0.42815(19)
H20 H 0.9837 0.9785 0.4395
C13 C 1.2656(3) 0.69253(19) 0.52279(18)
C14 C 1.3482(3) 0.5635(2) 0.5889(2)
H21 H 1.4257 0.5443 0.6431
H22 H 1.3646 0.5508 0.5465
C15 C 1.2189(4) 0.5233(2) 0.5670(3)
H23 H 1.2014 0.5377 0.6085
H24 H 1.1422 0.5419 0.5123
C16 C 1.1457(3) 0.3955(2) 0.4941(2)
C17 C 1.1090(3) 0.25646(19) 0.44679(19)
C18 C 1.1703(3) 0.1819(2) 0.4670(2)
H25 H 1.2525 0.1734 0.5195
C19 C 1.1099(3) 0.1214(2) 0.4099(2)
H26 H 1.1547 0.0729 0.4249
C20 C 0.9332(4) 0.2000(2) 0.3149(2)
H27 H 0.8509 0.2069 0.2621
C21 C 0.9867(4) 0.2648(2) 0.3674(2)
H28 H 0.9417 0.3132 0.3499
C22 C 1.0786(6) 1.0817(4) 0.2066(4)
H29 H 1.0274 1.1264 0.1721
H30 H 1.1307 1.0594 0.1877
H31 H 1.1401 1.0983 0.2644
H32 H 0.972(4) 0.989(3) 0.174(3)
O1B O 0.4120(3) 0.36532(16) -0.11077(16)
N1B N 0.2499(3) 0.07388(16) -0.17809(14)
N2B N 0.4620(3) 0.26610(16) -0.01708(15)
H5B H 0.5063 0.2553 0.0359
N3B N 0.5327(3) 0.39328(17) 0.02775(19)
H6B H 0.5588 0.3775 0.0772
C1B C 0.2625(4) 0.1413(2) -0.20825(19)
H11B H 0.2212 0.1443 -0.2661
C2B C 0.3322(4) 0.2074(2) -0.16030(19)
H12B H 0.3383 0.2527 -0.1851
C3B C 0.3935(3) 0.20397(18) -0.07287(17)
C4B C 0.3872(3) 0.13210(19) -0.04068(18)
H13B H 0.4320 0.1259 0.0173
C5B C 0.3161(3) 0.0709(2) -0.09352(18)
H14B H 0.3126 0.0239 -0.0699
C6B C 0.4662(4) 0.3430(2) -0.0376(2)
C7B C 0.5612(4) 0.4735(2) 0.0167(3)
H15B H 0.6378 0.4938 0.0706
H16B H 0.5877 0.4738 -0.0222
Co1B Co 0.12641(4) -0.02514(2) -0.25591(2)
O2B O -0.2170(3) 0.33393(14) -0.45153(13)
O3B O -0.0587(2) 0.57603(14) -0.42477(14)
O4B O 0.2424(3) -0.03701(14) -0.30458(16)
H1B H 0.2777 0.0056 -0.3018
H2B H 0.281(4) -0.0765(19) -0.305(3)
O5B O 0.2683(3) -0.10006(14) -0.15440(14)
H3B H 0.2371 -0.1129 -0.1278
H4B H 0.321(4) -0.131(2) -0.152(3)
O6B O 0.0178(3) -0.02130(19) -0.20008(17)
N4B N -0.0085(3) 0.05793(16) -0.35265(14)
N5B N -0.2469(3) 0.23054(16) -0.53656(14)
H7B H -0.2870 0.2155 -0.5881
N6B N -0.3368(3) 0.35151(16) -0.59288(15)
H8B H -0.3767 0.3289 -0.6414
N7B N -0.2268(3) 0.56213(18) -0.56454(18)
H9B H -0.2863 0.5866 -0.6105
N8B N -0.1714(3) 0.68479(17) -0.50699(16)
H10B H -0.2328 0.6996 -0.5580
N9B N 0.0103(3) 0.87220(17) -0.33351(16)
C8B C -0.0715(3) 0.1152(2) -0.33919(19)
H17B H -0.0615 0.1151 -0.2879
C9B C -0.1495(3) 0.1739(2) -0.39572(19)
H18B H -0.1897 0.2123 -0.3822
C10B C -0.1680(3) 0.17529(18) -0.47367(17)
C11B C -0.1060(4) 0.1150(2) -0.48897(18)
H19B H -0.1183 0.1122 -0.5409
C12B C -0.0270(4) 0.0598(2) -0.42815(19)
H20B H 0.0163 0.0215 -0.4395
C13B C -0.2656(3) 0.30747(19) -0.52279(18)
C14B C -0.3482(3) 0.4365(2) -0.5889(2)
H21B H -0.4257 0.4557 -0.6431
H22B H -0.3646 0.4492 -0.5465
C15B C -0.2189(4) 0.4767(2) -0.5670(3)
H23B H -0.2014 0.4623 -0.6085
H24B H -0.1422 0.4581 -0.5123
C16B C -0.1457(3) 0.6045(2) -0.4941(2)
C17B C -0.1090(3) 0.74354(19) -0.44679(19)
C18B C -0.1703(3) 0.8181(2) -0.4670(2)
H25B H -0.2525 0.8266 -0.5195
C19B C -0.1099(3) 0.8786(2) -0.4099(2)
H26B H -0.1547 0.9271 -0.4249
C20B C 0.0668(4) 0.8000(2) -0.3149(2)
H27B H 0.1491 0.7931 -0.2621
C21B C 0.0133(4) 0.7352(2) -0.3674(2)
H28B H 0.0583 0.6868 -0.3499
C22B C -0.0786(6) -0.0817(4) -0.2066(4)
H29B H -0.0274 -0.1264 -0.1721
H30B H -0.1307 -0.0594 -0.1877
H31B H -0.1401 -0.0983 -0.2644
H32B H 0.028(4) 0.011(3) -0.174(3)
Co1_2 Co 0.87359(4) 0.02514(2) 0.25591(2)
Co1B_2 Co 0.12641(4) 0.97486(2) -0.25591(2)
N9_2 N 0.9897(3) 1.12780(17) 0.33351(16)
N9B_2 N 0.0103(3) -0.12780(17) -0.33351(16)
S1 S 0.53529(10) 0.21943(5) 0.21215(5)
O7 O 0.5737(3) 0.21633(18) 0.15283(15)
O8 O 0.6340(4) 0.1765(2) 0.29107(18)
O9 O 0.3959(5) 0.1880(5) 0.1771(3)
O10 O 0.5378(5) 0.3020(2) 0.2373(2)
O14 O 0.3635(4) 0.4278(2) 0.1572(3)
H33 H 0.410(4) 0.3906(16) 0.189(2)
H34 H 0.412(4) 0.4678(15) 0.178(3)
O15 O 0.4310(5) 0.0432(2) 0.2833(3)
H35 H 0.479(4) 0.067(3) 0.272(3)
H36 H 0.446(4) 0.064(3) 0.3283(19)
O16 O 0.7055(4) 0.3934(3) 0.2141(3)
H37 H 0.670(4) 0.4381(18) 0.213(2)
H38 H 0.773(3) 0.388(2) 0.2660(15)
O11? O 0.4034(10) 0.2512(7) 0.1660(6)
O12? O 0.6350(11) 0.2530(8) 0.2842(5)
O13? O 0.5331(18) 0.1339(8) 0.2199(14)
loop_
_geom_bond_atom_site_label_1
_geom_bond_atom_site_label_2
_geom_bond_site_symmetry_1
_geom_bond_site_symmetry_2
Co1 O4 1_555 1_555
O1 C6 1_555 1_555
O2 C13 1_555 1_555
O3 C16 1_555 1_555
O4 H1 1_555 1_555
H2 O4 1_555 1_555
O5 Co1 1_555 1_555
H3 O5 1_555 1_555
H4 O5 1_555 1_555
O6 Co1 1_555 1_555
N1 Co1 1_555 1_555
N2 H5 1_555 1_555
N3 H6 1_555 1_555
N4 Co1 1_555 1_555
N5 H7 1_555 1_555
N6 H8 1_555 1_555
N7 H9 1_555 1_555
N8 H10 1_555 1_555
N9 C19 1_555 1_555
C1 N1 1_555 1_555
H11 C1 1_555 1_555
C2 C1 1_555 1_555
H12 C2 1_555 1_555
C3 N2 1_555 1_555
C4 C3 1_555 1_555
H13 C4 1_555 1_555
C5 N1 1_555 1_555
H14 C5 1_555 1_555
C6 N2 1_555 1_555
C7 N3 1_555 1_555
H15 C7 1_555 1_555
H16 C7 1_555 1_555
C8 N4 1_555 1_555
H17 C8 1_555 1_555
C9 C8 1_555 1_555
H18 C9 1_555 1_555
C10 N5 1_555 1_555
C11 C10 1_555 1_555
H19 C11 1_555 1_555
C12 N4 1_555 1_555
H20 C12 1_555 1_555
C13 N5 1_555 1_555
C14 N6 1_555 1_555
H21 C14 1_555 1_555
H22 C14 1_555 1_555
C15 N7 1_555 1_555
H23 C15 1_555 1_555
H24 C15 1_555 1_555
C16 N7 1_555 1_555
C17 N8 1_555 1_555
C18 C17 1_555 1_555
H25 C18 1_555 1_555
C19 C18 1_555 1_555
H26 C19 1_555 1_555
C20 N9 1_555 1_555
H27 C20 1_555 1_555
C21 C17 1_555 1_555
H28 C21 1_555 1_555
C22 O6 1_555 1_555
H29 C22 1_555 1_555
H30 C22 1_555 1_555
H31 C22 1_555 1_555
H32 O6 1_555 1_555
S1 O7 1_555 1_555
O8 S1 1_555 1_555
O9 S1 1_555 1_555
O10 S1 1_555 1_555
O14 H33 1_555 1_555
H34 O14 1_555 1_555
O15 H35 1_555 1_555
H36 O15 1_555 1_555
O16 H37 1_555 1_555
H38 O16 1_555 1_555
O1B C6B 1_555 1_555
N1B C1B 1_555 1_555
N2B H5B 1_555 1_555
N3B H6B 1_555 1_555
C1B H11B 1_555 1_555
C2B C1B 1_555 1_555
H12B C2B 1_555 1_555
C3B N2B 1_555 1_555
C4B C3B 1_555 1_555
H13B C4B 1_555 1_555
C5B N1B 1_555 1_555
H14B C5B 1_555 1_555
C6B N2B 1_555 1_555
C7B C7 1_555 1_555
H15B C7B 1_555 1_555
H16B C7B 1_555 1_555
Co1B N1B 1_555 1_555
O2B C13B 1_555 1_555
O3B C16B 1_555 1_555
O4B Co1B 1_555 1_555
H1B O4B 1_555 1_555
H2B O4B 1_555 1_555
O5B Co1B 1_555 1_555
H3B O5B 1_555 1_555
H4B O5B 1_555 1_555
O6B Co1B 1_555 1_555
N4B Co1B 1_555 1_555
N5B H7B 1_555 1_555
N6B H8B 1_555 1_555
N7B H9B 1_555 1_555
N8B H10B 1_555 1_555
N9B C19B 1_555 1_555
C8B N4B 1_555 1_555
H17B C8B 1_555 1_555
C9B C8B 1_555 1_555
H18B C9B 1_555 1_555
C10B N5B 1_555 1_555
C11B C10B 1_555 1_555
H19B C11B 1_555 1_555
C12B N4B 1_555 1_555
H20B C12B 1_555 1_555
C13B N5B 1_555 1_555
C14B N6B 1_555 1_555
H21B C14B 1_555 1_555
H22B C14B 1_555 1_555
C15B N7B 1_555 1_555
H23B C15B 1_555 1_555
H24B C15B 1_555 1_555
C16B N7B 1_555 1_555
C17B N8B 1_555 1_555
C18B C17B 1_555 1_555
H25B C18B 1_555 1_555
C19B C18B 1_555 1_555
H26B C19B 1_555 1_555
C20B N9B 1_555 1_555
H27B C20B 1_555 1_555
C21B C17B 1_555 1_555
H28B C21B 1_555 1_555
C22B O6B 1_555 1_555
H29B C22B 1_555 1_555
H30B C22B 1_555 1_555
H31B C22B 1_555 1_555
H32B O6B 1_555 1_555
Co1_2 N9 1_555 1_555
Co1B_2 N9B 1_555 1_555
N9_2 Co1 1_555 1_555
N9B_2 Co1B 1_555 1_555
N3 C6 1_555 1_555
N6 C13 1_555 1_555
N8 C16 1_555 1_555
C2 C3 1_555 1_555
C4 C5 1_555 1_555
C9 C10 1_555 1_555
C11 C12 1_555 1_555
C14 C15 1_555 1_555
C20 C21 1_555 1_555
N3B C6B 1_555 1_555
N3B C7B 1_555 1_555
C2B C3B 1_555 1_555
C4B C5B 1_555 1_555
N6B C13B 1_555 1_555
N8B C16B 1_555 1_555
C9B C10B 1_555 1_555
C11B C12B 1_555 1_555
C14B C15B 1_555 1_555
C20B C21B 1_555 1_555

#END
