
#######################################################################
#
#                 Cambridge Crystallographic Data Centre
#                                CCDC 
#
#######################################################################
#
# If this CIF has been generated from an entry in the Cambridge 
# Structural Database, then it will include bibliographic, chemical, 
# crystal, experimental, refinement or atomic coordinate data resulting 
# from the CCDC's data processing and validation procedures.
#
#######################################################################

data_LEYWOD
_symmetry_cell_setting           monoclinic
_symmetry_space_group_name_H-M   'C 2/c'
_symmetry_Int_Tables_number      15
_space_group_name_Hall           '-C 2yn'
loop_
_symmetry_equiv_pos_site_id
_symmetry_equiv_pos_as_xyz
1 x,y,z
2 -x,y,1/2-z
3 1/2+x,1/2+y,z
4 1/2-x,1/2+y,1/2-z
5 -x,-y,-z
6 x,-y,1/2+z
7 1/2-x,1/2-y,-z
8 1/2+x,1/2-y,1/2+z
_cell_length_a                   24.550(18)
_cell_length_b                   15.285(11)
_cell_length_c                   14.484(10)
_cell_angle_alpha                90
_cell_angle_beta                 122.935(10)
_cell_angle_gamma                90
_cell_volume                     4561.59
loop_
_atom_site_label
_atom_site_type_symbol
_atom_site_fract_x
_atom_site_fract_y
_atom_site_fract_z
Cu1 Cu 0.5000 0.77769(6) 0.7500
O1 O 0.3144(2) 0.4785(3) 0.8437(3)
O2 O 0.36628(19) 0.1203(2) 0.8918(3)
O3 O 0.5454(2) 0.7652(3) 0.9600(4)
H1 H 0.5322 0.7310 0.9946
H2 H 0.5640 0.8103 1.0126
N1 N 0.4342(2) 0.6855(3) 0.7252(4)
N2 N 0.3041(2) 0.4854(3) 0.6773(4)
H3 H 0.2837 0.4625 0.6127
N3 N 0.2501(2) 0.3821(3) 0.7095(4)
H4 H 0.2333 0.3681 0.6417
N4 N 0.2782(2) 0.1938(3) 0.7589(4)
H5 H 0.2485 0.1974 0.6900
N5 N 0.3190(2) 0.0810(3) 0.7104(3)
H6 H 0.2878 0.0932 0.6444
N6 N 0.4383(2) -0.1267(3) 0.7339(4)
C1 C 0.4122(3) 0.6258(4) 0.6441(5)
H7 H 0.4275 0.6282 0.5978
C2 C 0.3685(3) 0.5615(4) 0.6265(5)
H8 H 0.3538 0.5233 0.5675
C3 C 0.3461(2) 0.5529(3) 0.6956(4)
C4 C 0.3674(2) 0.6149(3) 0.7781(4)
H9 H 0.3528 0.6135 0.8254
C5 C 0.4101(2) 0.6783(4) 0.7896(4)
H10 H 0.4236 0.7191 0.8456
C6 C 0.2912(3) 0.4507(3) 0.7507(5)
C7 C 0.2328(3) 0.3311(3) 0.7741(5)
H11 H 0.1893 0.3082 0.7257
H12 H 0.2322 0.3693 0.8270
C8 C 0.2785(3) 0.2555(4) 0.8353(5)
H13 H 0.3222 0.2777 0.8845
H14 H 0.2653 0.2260 0.8793
C9 C 0.3232(3) 0.1316(3) 0.7937(5)
C10 C 0.3593(2) 0.0133(3) 0.7222(4)
C11 C 0.3484(3) -0.0309(4) 0.6283(4)
H15 H 0.3143 -0.0138 0.5589
C12 C 0.3874(3) -0.0985(4) 0.6385(5)
H16 H 0.3779 -0.1270 0.5747
C13 C 0.4486(3) -0.0843(4) 0.8226(5)
H17 H 0.4838 -0.1018 0.8907
C14 C 0.4113(3) -0.0171(4) 0.8212(5)
H18 H 0.4210 0.0081 0.8868
O1A O 0.6856(2) 0.4785(3) 0.6563(3)
O2A O 0.63372(19) 0.1203(2) 0.6082(3)
O3A O 0.4546(2) 0.7652(3) 0.5400(4)
H1A H 0.4678 0.7310 0.5054
H2A H 0.4360 0.8103 0.4874
N1A N 0.5658(2) 0.6855(3) 0.7748(4)
N2A N 0.6959(2) 0.4854(3) 0.8227(4)
H3A H 0.7163 0.4625 0.8873
N3A N 0.7499(2) 0.3821(3) 0.7905(4)
H4A H 0.7667 0.3681 0.8583
N4A N 0.7218(2) 0.1938(3) 0.7411(4)
H5A H 0.7515 0.1974 0.8100
N5A N 0.6810(2) 0.0810(3) 0.7896(3)
H6A H 0.7122 0.0932 0.8556
N6A N 0.5617(2) -0.1267(3) 0.7661(4)
C1A C 0.5878(3) 0.6258(4) 0.8559(5)
H7A H 0.5725 0.6282 0.9022
C2A C 0.6315(3) 0.5615(4) 0.8735(5)
H8A H 0.6462 0.5233 0.9325
C3A C 0.6539(2) 0.5529(3) 0.8044(4)
C4A C 0.6326(2) 0.6149(3) 0.7219(4)
H9A H 0.6472 0.6135 0.6746
C5A C 0.5899(2) 0.6783(4) 0.7104(4)
H10A H 0.5764 0.7191 0.6544
C6A C 0.7088(3) 0.4507(3) 0.7493(5)
C7A C 0.7672(3) 0.3311(3) 0.7259(5)
H11A H 0.8107 0.3082 0.7743
H12A H 0.7678 0.3693 0.6730
C8A C 0.7215(3) 0.2555(4) 0.6647(5)
H13A H 0.6778 0.2777 0.6155
H14A H 0.7347 0.2260 0.6207
C9A C 0.6768(3) 0.1316(3) 0.7063(5)
C10A C 0.6407(2) 0.0133(3) 0.7778(4)
C11A C 0.6516(3) -0.0309(4) 0.8717(4)
H15A H 0.6857 -0.0138 0.9411
C12A C 0.6126(3) -0.0985(4) 0.8615(5)
H16A H 0.6221 -0.1270 0.9253
C13A C 0.5514(3) -0.0843(4) 0.6774(5)
H17A H 0.5162 -0.1018 0.6093
C14A C 0.5887(3) -0.0171(4) 0.6788(5)
H18A H 0.5790 0.0081 0.6132
Cu1_2 Cu 0.5000 -0.22231(6) 0.7500
N6_2 N 0.4383(2) 0.8733(3) 0.7339(4)
N6A_2 N 0.5617(2) 0.8733(3) 0.7661(4)
O4 O 0.2241(2) 0.1313(3) 0.4908(3)
O5 O 0.1756(2) 0.2248(3) 0.5414(4)
C15 C 0.1285(3) 0.2025(5) 0.3481(5)
H19 H 0.1448 0.1848 0.3038
H20 H 0.1184 0.2638 0.3375
H21 H 0.0900 0.1698 0.3269
C16 C 0.1801(3) 0.1852(4) 0.4695(5)
O6 O 0.5319(10) 0.6215(17) 0.0652(11)
C17 C 0.4994(9) 0.5766(12) 0.0915(14)
O7 O 0.4348(4) 0.2008(5) 0.5114(7)
H22 H 0.4458 0.1927 0.4677
C18 C 0.4457(7) 0.1257(8) 0.5720(10)
H23 H 0.4717 0.0859 0.5605
H24 H 0.4049 0.0986 0.5490
H25 H 0.4680 0.1403 0.6486
loop_
_geom_bond_atom_site_label_1
_geom_bond_atom_site_label_2
_geom_bond_site_symmetry_1
_geom_bond_site_symmetry_2
Cu1 O3 1_555 1_555
O1 C6 1_555 1_555
O2 C9 1_555 1_555
O3 H1 1_555 1_555
H2 O3 1_555 1_555
N1 Cu1 1_555 1_555
N2 H3 1_555 1_555
N3 H4 1_555 1_555
N4 H5 1_555 1_555
N5 H6 1_555 1_555
N6 C12 1_555 1_555
C1 N1 1_555 1_555
H7 C1 1_555 1_555
C2 C1 1_555 1_555
H8 C2 1_555 1_555
C3 N2 1_555 1_555
C4 C3 1_555 1_555
H9 C4 1_555 1_555
C5 N1 1_555 1_555
H10 C5 1_555 1_555
C6 N2 1_555 1_555
C7 N3 1_555 1_555
H11 C7 1_555 1_555
H12 C7 1_555 1_555
C8 N4 1_555 1_555
H13 C8 1_555 1_555
H14 C8 1_555 1_555
C9 N4 1_555 1_555
C10 N5 1_555 1_555
C11 C10 1_555 1_555
H15 C11 1_555 1_555
C12 C11 1_555 1_555
H16 C12 1_555 1_555
C13 N6 1_555 1_555
H17 C13 1_555 1_555
C14 C10 1_555 1_555
H18 C14 1_555 1_555
O4 C16 1_555 1_555
O5 C16 1_555 1_555
C15 H19 1_555 1_555
H20 C15 1_555 1_555
H21 C15 1_555 1_555
C16 C15 1_555 1_555
O6 C17 1_555 1_555
O7 H22 1_555 1_555
C18 O7 1_555 1_555
H23 C18 1_555 1_555
H24 C18 1_555 1_555
H25 C18 1_555 1_555
O1A C6A 1_555 1_555
O2A C9A 1_555 1_555
O3A Cu1 1_555 1_555
H1A O3A 1_555 1_555
H2A O3A 1_555 1_555
N1A Cu1 1_555 1_555
N2A H3A 1_555 1_555
N3A H4A 1_555 1_555
N4A H5A 1_555 1_555
N5A H6A 1_555 1_555
N6A C12A 1_555 1_555
C1A N1A 1_555 1_555
H7A C1A 1_555 1_555
C2A C1A 1_555 1_555
H8A C2A 1_555 1_555
C3A N2A 1_555 1_555
C4A C3A 1_555 1_555
H9A C4A 1_555 1_555
C5A N1A 1_555 1_555
H10A C5A 1_555 1_555
C6A N2A 1_555 1_555
C7A N3A 1_555 1_555
H11A C7A 1_555 1_555
H12A C7A 1_555 1_555
C8A N4A 1_555 1_555
H13A C8A 1_555 1_555
H14A C8A 1_555 1_555
C9A N4A 1_555 1_555
C10A N5A 1_555 1_555
C11A C10A 1_555 1_555
H15A C11A 1_555 1_555
C12A C11A 1_555 1_555
H16A C12A 1_555 1_555
C13A N6A 1_555 1_555
H17A C13A 1_555 1_555
C14A C10A 1_555 1_555
H18A C14A 1_555 1_555
Cu1_2 N6 1_555 1_555
N6_2 Cu1 1_555 1_555
N6A_2 Cu1 1_555 1_555
N3 C6 1_555 1_555
N5 C9 1_555 1_555
C2 C3 1_555 1_555
C4 C5 1_555 1_555
C7 C8 1_555 1_555
C13 C14 1_555 1_555
N3A C6A 1_555 1_555
N5A C9A 1_555 1_555
N6A Cu1_2 1_555 1_555
C2A C3A 1_555 1_555
C4A C5A 1_555 1_555
C7A C8A 1_555 1_555
C13A C14A 1_555 1_555

#END
