
#######################################################################
#
#                 Cambridge Crystallographic Data Centre
#                                CCDC 
#
#######################################################################
#
# If this CIF has been generated from an entry in the Cambridge 
# Structural Database, then it will include bibliographic, chemical, 
# crystal, experimental, refinement or atomic coordinate data resulting 
# from the CCDC's data processing and validation procedures.
#
#######################################################################

data_LEYYAR
_symmetry_cell_setting           monoclinic
_symmetry_space_group_name_H-M   'P 21/c'
_symmetry_Int_Tables_number      14
_space_group_name_Hall           '-P 2ybc'
loop_
_symmetry_equiv_pos_site_id
_symmetry_equiv_pos_as_xyz
1 x,y,z
2 -x,1/2+y,1/2-z
3 -x,-y,-z
4 x,1/2-y,1/2+z
_cell_length_a                   18.046(4)
_cell_length_b                   14.024(3)
_cell_length_c                   13.553(3)
_cell_angle_alpha                90
_cell_angle_beta                 90.20(3)
_cell_angle_gamma                90
_cell_volume                     3429.93
loop_
_atom_site_label
_atom_site_type_symbol
_atom_site_fract_x
_atom_site_fract_y
_atom_site_fract_z
Fe1 Fe 0.29605(8) 0.56932(11) 0.64003(10)
Fe2 Fe 0.19239(8) 0.64309(11) 0.46804(11)
Fe3 Fe 0.24179(12) 0.65276(14) 0.87368(15)
C1 C 0.4572(6) 0.4847(9) 0.6560(8)
C2 C 0.4394(8) 0.3991(10) 0.7007(9)
H1 H 0.3901 0.3855 0.7147
C3 C 0.4906(9) 0.3370(10) 0.7237(10)
H2 H 0.4771 0.2786 0.7507
C4 C 0.5658(10) 0.3576(12) 0.7080(10)
H3 H 0.6025 0.3148 0.7273
C5 C 0.5834(8) 0.4402(13) 0.6648(10)
H4 H 0.6327 0.4551 0.6528
C6 C 0.5320(7) 0.5899(10) 0.5914(9)
H5 H 0.5746 0.6209 0.5701
C7 C 0.4611(6) 0.6226(9) 0.5820(8)
C8 C 0.4301(6) 0.7042(8) 0.5337(8)
C9 C 0.5416(7) 0.8067(12) 0.4994(10)
H6 H 0.5746 0.7714 0.5374
C10 C 0.5654(9) 0.8823(13) 0.4497(11)
H7 H 0.6152 0.8990 0.4526
C11 C 0.5167(9) 0.9366(12) 0.3935(11)
H8 H 0.5345 0.9883 0.3578
C12 C 0.4429(9) 0.9146(11) 0.3902(10)
H9 H 0.4103 0.9520 0.3536
C13 C 0.4174(7) 0.8364(9) 0.4415(8)
C14 C 0.3573(6) 0.7174(9) 0.5036(7)
C15 C 0.0335(6) 0.6288(9) 0.3812(9)
C16 C 0.0544(7) 0.6376(11) 0.2840(9)
H10 H 0.1040 0.6451 0.2670
C17 C -0.0014(8) 0.6350(11) 0.2110(11)
H11 H 0.0105 0.6437 0.1449
C18 C -0.0739(7) 0.6192(11) 0.2391(10)
H12 H -0.1100 0.6129 0.1903
C19 C -0.0943(7) 0.6128(10) 0.3332(10)
H13 H -0.1438 0.6053 0.3502
C20 C -0.0437(7) 0.6113(10) 0.5077(9)
H14 H -0.0864 0.6034 0.5452
C21 C 0.0254(6) 0.6190(9) 0.5418(8)
C22 C 0.0552(6) 0.6190(9) 0.6432(8)
C23 C -0.0644(7) 0.6153(11) 0.7429(11)
H15 H -0.0968 0.6128 0.6894
C24 C -0.0908(8) 0.6183(13) 0.8373(10)
H16 H -0.1412 0.6265 0.8486
C25 C -0.0426(8) 0.6093(14) 0.9156(10)
H17 H -0.0618 0.6026 0.9787
C26 C 0.0306(8) 0.6098(12) 0.9042(9)
H18 H 0.0613 0.6066 0.9594
C27 C 0.0632(7) 0.6153(10) 0.8064(9)
C28 C 0.1263(6) 0.6153(9) 0.6733(9)
C29 C 0.2645(7) 0.0504(9) 0.3349(10)
C30 C 0.2577(6) 0.1510(8) 0.3677(8)
C31 C 0.2632(7) 0.2258(9) 0.3024(8)
H19 H 0.2705 0.2127 0.2359
C32 C 0.2585(7) 0.3174(9) 0.3316(8)
H20 H 0.2611 0.3659 0.2850
C33 C 0.2499(6) 0.3396(8) 0.4284(8)
C34 C 0.2441(7) 0.2640(9) 0.4968(8)
H21 H 0.2382 0.2777 0.5634
C35 C 0.2471(7) 0.1719(8) 0.4672(9)
H22 H 0.2420 0.1229 0.5129
C36 C 0.2479(6) 0.4410(8) 0.4659(9)
N1 N 0.4145(5) 0.5556(7) 0.6263(7)
N2 N 0.5291(5) 0.5023(8) 0.6382(7)
N3 N 0.3499(5) 0.7993(7) 0.4496(6)
N4 N 0.4688(6) 0.7805(8) 0.4948(7)
N5 N 0.0740(5) 0.6303(7) 0.4633(7)
N6 N -0.0399(5) 0.6174(7) 0.4052(7)
N7 N 0.1320(5) 0.6142(8) 0.7774(7)
N8 N 0.0128(5) 0.6161(8) 0.7283(7)
O1 O 0.3036(4) 0.6592(5) 0.5203(5)
O2 O 0.1845(4) 0.6060(6) 0.6182(5)
O3 O 0.2584(6) -0.0119(6) 0.4013(8)
O4 O 0.2763(5) 0.0342(6) 0.2458(7)
O5 O 0.2826(5) 0.4515(6) 0.5484(6)
O6 O 0.2150(5) 0.5017(6) 0.4205(6)
O7 O 0.2964(5) 0.6831(7) 0.7423(6)
O8 O 0.1846(4) 0.7916(6) 0.4840(6)
H23 H 0.1594 0.8247 0.5330
O9 O 0.2305(5) 0.6837(7) 0.3081(8)
H24 H 0.2525 0.7348 0.3096
Fe1C Fe 0.29605(8) -0.06932(11) 0.14003(10)
Fe3C Fe 0.24179(12) -0.15276(14) 0.37368(15)
Fe3C_2 Fe 0.24179(12) 0.84724(14) 0.37368(15)
N3C N 0.3499(5) 0.7007(7) 0.9496(6)
O3C O 0.2584(6) 0.5119(6) 0.9013(8)
O4C O 0.2763(5) 0.4658(6) 0.7458(7)
O8C O 0.1846(4) 0.7084(6) 0.9840(6)
O9C O 0.2305(5) 0.8163(7) 0.8081(8)
loop_
_geom_bond_atom_site_label_1
_geom_bond_atom_site_label_2
_geom_bond_site_symmetry_1
_geom_bond_site_symmetry_2
Fe1 N1 1_555 1_555
Fe2 N5 1_555 1_555
Fe3 N7 1_555 1_555
C1 C2 1_555 1_555
C2 H1 1_555 1_555
C3 C2 1_555 1_555
H2 C3 1_555 1_555
C4 C3 1_555 1_555
H3 C4 1_555 1_555
C5 C4 1_555 1_555
H4 C5 1_555 1_555
C6 H5 1_555 1_555
C7 C6 1_555 1_555
C8 C7 1_555 1_555
C9 H6 1_555 1_555
C10 C9 1_555 1_555
H7 C10 1_555 1_555
C11 C10 1_555 1_555
H8 C11 1_555 1_555
C12 C11 1_555 1_555
H9 C12 1_555 1_555
C13 C12 1_555 1_555
C14 C8 1_555 1_555
C15 C16 1_555 1_555
C16 H10 1_555 1_555
C17 C16 1_555 1_555
H11 C17 1_555 1_555
C18 C17 1_555 1_555
H12 C18 1_555 1_555
C19 C18 1_555 1_555
H13 C19 1_555 1_555
C20 H14 1_555 1_555
C21 C20 1_555 1_555
C22 C21 1_555 1_555
C23 H15 1_555 1_555
C24 C23 1_555 1_555
H16 C24 1_555 1_555
C25 C24 1_555 1_555
H17 C25 1_555 1_555
C26 C25 1_555 1_555
H18 C26 1_555 1_555
C27 C26 1_555 1_555
C28 C22 1_555 1_555
C29 C30 1_555 1_555
C30 C31 1_555 1_555
C31 H19 1_555 1_555
C32 C31 1_555 1_555
H20 C32 1_555 1_555
C33 C32 1_555 1_555
C34 C33 1_555 1_555
H21 C34 1_555 1_555
C35 C30 1_555 1_555
H22 C35 1_555 1_555
C36 C33 1_555 1_555
N1 C1 1_555 1_555
N2 C1 1_555 1_555
N3 C13 1_555 1_555
N4 C8 1_555 1_555
N5 C15 1_555 1_555
N6 C15 1_555 1_555
N7 C27 1_555 1_555
N8 C22 1_555 1_555
O1 Fe1 1_555 1_555
O2 Fe1 1_555 1_555
O3 C29 1_555 1_555
O4 C29 1_555 1_555
O5 Fe1 1_555 1_555
O6 Fe2 1_555 1_555
O7 Fe1 1_555 1_555
O8 Fe2 1_555 1_555
H23 O8 1_555 1_555
O9 Fe2 1_555 1_555
H24 O9 1_555 1_555
Fe1C O4 1_555 1_555
Fe3C O3 1_555 1_555
Fe3C_2 N3 1_555 1_555
N3C Fe3 1_555 1_555
O3C Fe3 1_555 1_555
O4C Fe1 1_555 1_555
O8C Fe3 1_555 1_555
O9C Fe3 1_555 1_555
Fe2 O1 1_555 1_555
Fe2 O2 1_555 1_555
Fe3 O7 1_555 1_555
C5 N2 1_555 1_555
C6 N2 1_555 1_555
C7 N1 1_555 1_555
C9 N4 1_555 1_555
C13 N4 1_555 1_555
C14 N3 1_555 1_555
C14 O1 1_555 1_555
C19 N6 1_555 1_555
C20 N6 1_555 1_555
C21 N5 1_555 1_555
C23 N8 1_555 1_555
C27 N8 1_555 1_555
C28 N7 1_555 1_555
C28 O2 1_555 1_555
C34 C35 1_555 1_555
C36 O5 1_555 1_555
C36 O6 1_555 1_555
O8 Fe3C_2 1_555 1_555
O9 Fe3C_2 1_555 1_555

#END
