
#######################################################################
#
#                 Cambridge Crystallographic Data Centre
#                                CCDC 
#
#######################################################################
#
# If this CIF has been generated from an entry in the Cambridge 
# Structural Database, then it will include bibliographic, chemical, 
# crystal, experimental, refinement or atomic coordinate data resulting 
# from the CCDC's data processing and validation procedures.
#
#######################################################################

data_LEYYEV
_symmetry_cell_setting           tetragonal
_symmetry_space_group_name_H-M   'P 42/n b c'
_symmetry_Int_Tables_number      133
_space_group_name_Hall           '-P 4ac 2b'
loop_
_symmetry_equiv_pos_site_id
_symmetry_equiv_pos_as_xyz
1 x,y,z
2 1/2-x,1/2-y,z
3 x,1/2-y,-z
4 1/2-x,y,-z
5 1/2-y,1/2-x,1/2-z
6 y,x,1/2-z
7 y,1/2-x,1/2+z
8 1/2-y,x,1/2+z
9 -x,-y,-z
10 1/2+x,1/2+y,-z
11 -x,1/2+y,z
12 1/2+x,-y,z
13 1/2+y,1/2+x,1/2+z
14 -y,-x,1/2+z
15 -y,1/2+x,1/2-z
16 1/2+y,-x,1/2-z
_cell_length_a                   16.172(5)
_cell_length_b                   16.172(5)
_cell_length_c                   19.553(5)
_cell_angle_alpha                90
_cell_angle_beta                 90
_cell_angle_gamma                90
_cell_volume                     5113.77
loop_
_atom_site_label
_atom_site_type_symbol
_atom_site_fract_x
_atom_site_fract_y
_atom_site_fract_z
Fe1 Fe 0.60965(9) 0.2500 0.5000
Fe2 Fe 0.7500 0.2500 0.2500
C1 C 0.5766(4) 0.4166(4) 0.5683(2)
C2 C 0.5348(4) 0.3839(5) 0.6237(3)
H1 H 0.5307 0.3270 0.6297
C3 C 0.4999(5) 0.4369(5) 0.6694(3)
H2 H 0.4722 0.4157 0.7072
C4 C 0.5047(4) 0.5213(4) 0.6607(3)
H3 H 0.4800 0.5560 0.6927
C5 C 0.5446(4) 0.5543(4) 0.6071(3)
H4 H 0.5471 0.6113 0.6011
C6 C 0.6228(4) 0.5177(4) 0.5008(3)
H5 H 0.6351 0.5694 0.4827
C7 C 0.6418(4) 0.4429(4) 0.4735(3)
C8 C 0.6800(4) 0.4189(4) 0.4095(3)
C9 C 0.7247(4) 0.5564(4) 0.3614(3)
H6 H 0.7106 0.5873 0.3998
C10 C 0.7553(5) 0.5945(4) 0.3060(3)
H7 H 0.7619 0.6516 0.3063
C11 C 0.7772(4) 0.5502(4) 0.2485(3)
H8 H 0.7975 0.5778 0.2103
C12 C 0.7693(4) 0.4672(4) 0.2474(3)
H9 H 0.7852 0.4376 0.2088
C13 C 0.7372(4) 0.4257(4) 0.3043(2)
C14 C 0.6835(4) 0.3395(4) 0.3806(3)
N1 N 0.6131(3) 0.3808(3) 0.5155(2)
N2 N 0.5820(3) 0.5011(4) 0.5606(2)
N3 N 0.7188(3) 0.3464(3) 0.3149(2)
N4 N 0.7140(3) 0.4726(3) 0.3617(2)
O1 O 0.6571(3) 0.2709(3) 0.40435(18)
C15 C 0.4328(10) 0.2500 0.5000
C16 C 0.3368(6) 0.2500 0.5000
C17 C 0.2907(4) 0.2507(6) 0.4393(3)
H10 H 0.3185 0.2523 0.3977
O2 O 0.4664(5) 0.2677(6) 0.4494(8)
C15A C 0.0672(10) 0.2500 0.5000
C16A C 0.1632(6) 0.2500 0.5000
C17A C 0.2093(4) 0.2493(6) 0.4393(3)
H10A H 0.1815 0.2477 0.3977
O2A O 0.0336(5) 0.2323(6) 0.4494(8)
C17B C 0.2907(4) 0.2493(6) 0.5607(3)
H10B H 0.3185 0.2477 0.6023
O2B O 0.4664(5) 0.2323(6) 0.5506(8)
C17C C 0.2093(4) 0.2507(6) 0.5607(3)
H10C H 0.1815 0.2523 0.6023
O2C O 0.0336(5) 0.2677(6) 0.5506(8)
Fe1A Fe -0.10965(9) 0.2500 0.5000
C1A C -0.0766(4) 0.0834(4) 0.5683(2)
C2A C -0.0348(4) 0.1161(5) 0.6237(3)
H1A H -0.0307 0.1730 0.6297
C3A C 0.0001(5) 0.0631(5) 0.6694(3)
H2A H 0.0278 0.0843 0.7072
C4A C -0.0047(4) -0.0213(4) 0.6607(3)
H3A H 0.0200 -0.0560 0.6927
C5A C -0.0446(4) -0.0543(4) 0.6071(3)
H4A H -0.0471 -0.1113 0.6011
C6A C -0.1228(4) -0.0177(4) 0.5008(3)
H5A H -0.1351 -0.0694 0.4827
C7A C -0.1418(4) 0.0571(4) 0.4735(3)
C8A C -0.1800(4) 0.0811(4) 0.4095(3)
C9A C -0.2247(4) -0.0564(4) 0.3614(3)
H6A H -0.2106 -0.0873 0.3998
C10A C -0.2553(5) -0.0945(4) 0.3060(3)
H7A H -0.2619 -0.1516 0.3063
C11A C -0.2772(4) -0.0502(4) 0.2485(3)
H8A H -0.2975 -0.0778 0.2103
C12A C -0.2693(4) 0.0328(4) 0.2474(3)
H9A H -0.2852 0.0624 0.2088
C13A C -0.2372(4) 0.0743(4) 0.3043(2)
C14A C -0.1835(4) 0.1605(4) 0.3806(3)
N1A N -0.1131(3) 0.1192(3) 0.5155(2)
N2A N -0.0820(3) -0.0011(4) 0.5606(2)
N3A N -0.2188(3) 0.1536(3) 0.3149(2)
N4A N -0.2140(3) 0.0274(3) 0.3617(2)
O1A O -0.1571(3) 0.2291(3) 0.40435(18)
C1B C 0.5766(4) 0.0834(4) 0.4317(2)
C2B C 0.5348(4) 0.1161(5) 0.3763(3)
H1B H 0.5307 0.1730 0.3703
C3B C 0.4999(5) 0.0631(5) 0.3306(3)
H2B H 0.4722 0.0843 0.2928
C4B C 0.5047(4) -0.0213(4) 0.3393(3)
H3B H 0.4800 -0.0560 0.3073
C5B C 0.5446(4) -0.0543(4) 0.3929(3)
H4B H 0.5471 -0.1113 0.3989
C6B C 0.6228(4) -0.0177(4) 0.4992(3)
H5B H 0.6351 -0.0694 0.5173
C7B C 0.6418(4) 0.0571(4) 0.5265(3)
C8B C 0.6800(4) 0.0811(4) 0.5905(3)
C9B C 0.7247(4) -0.0564(4) 0.6386(3)
H6B H 0.7106 -0.0873 0.6002
C10B C 0.7553(5) -0.0945(4) 0.6940(3)
H7B H 0.7619 -0.1516 0.6937
C11B C 0.7772(4) -0.0502(4) 0.7515(3)
H8B H 0.7975 -0.0778 0.7897
C12B C 0.7693(4) 0.0328(4) 0.7526(3)
H9B H 0.7852 0.0624 0.7912
C13B C 0.7372(4) 0.0743(4) 0.6957(2)
C14B C 0.6835(4) 0.1605(4) 0.6194(3)
N1B N 0.6131(3) 0.1192(3) 0.4845(2)
N2B N 0.5820(3) -0.0011(4) 0.4394(2)
N3B N 0.7188(3) 0.1536(3) 0.6851(2)
N4B N 0.7140(3) 0.0274(3) 0.6383(2)
O1B O 0.6571(3) 0.2291(3) 0.59565(18)
C1C C -0.0766(4) 0.4166(4) 0.4317(2)
C2C C -0.0348(4) 0.3839(5) 0.3763(3)
H1C H -0.0307 0.3270 0.3703
C3C C 0.0001(5) 0.4369(5) 0.3306(3)
H2C H 0.0278 0.4157 0.2928
C4C C -0.0047(4) 0.5213(4) 0.3393(3)
H3C H 0.0200 0.5560 0.3073
C5C C -0.0446(4) 0.5543(4) 0.3929(3)
H4C H -0.0471 0.6113 0.3989
C6C C -0.1228(4) 0.5177(4) 0.4992(3)
H5C H -0.1351 0.5694 0.5173
C7C C -0.1418(4) 0.4429(4) 0.5265(3)
C8C C -0.1800(4) 0.4189(4) 0.5905(3)
C9C C -0.2247(4) 0.5564(4) 0.6386(3)
H6C H -0.2106 0.5873 0.6002
C10C C -0.2553(5) 0.5945(4) 0.6940(3)
H7C H -0.2619 0.6516 0.6937
C11C C -0.2772(4) 0.5502(4) 0.7515(3)
H8C H -0.2975 0.5778 0.7897
C12C C -0.2693(4) 0.4672(4) 0.7526(3)
H9C H -0.2852 0.4376 0.7912
C13C C -0.2372(4) 0.4257(4) 0.6957(2)
C14C C -0.1835(4) 0.3395(4) 0.6194(3)
N1C N -0.1131(3) 0.3808(3) 0.4845(2)
N2C N -0.0820(3) 0.5011(4) 0.4394(2)
N3C N -0.2188(3) 0.3464(3) 0.6851(2)
N4C N -0.2140(3) 0.4726(3) 0.6383(2)
O1C O -0.1571(3) 0.2709(3) 0.59565(18)
Fe2_2 Fe -0.2500 0.2500 0.2500
Fe2B Fe -0.2500 0.2500 0.7500
Fe2B_2 Fe 0.7500 0.2500 0.7500
N3A_2 N 0.7812(3) 0.1536(3) 0.3149(2)
N3N N 0.6536(3) 0.2188(3) 0.1851(2)
N3O N 0.8464(3) 0.2812(3) 0.1851(2)
loop_
_geom_bond_atom_site_label_1
_geom_bond_atom_site_label_2
_geom_bond_site_symmetry_1
_geom_bond_site_symmetry_2
Fe1 N1 1_555 1_555
Fe2 N3 1_555 1_555
C1 C2 1_555 1_555
C2 H1 1_555 1_555
C3 C2 1_555 1_555
H2 C3 1_555 1_555
C4 C3 1_555 1_555
H3 C4 1_555 1_555
C5 C4 1_555 1_555
H4 C5 1_555 1_555
C6 H5 1_555 1_555
C7 C6 1_555 1_555
C8 C7 1_555 1_555
C9 H6 1_555 1_555
C10 C9 1_555 1_555
H7 C10 1_555 1_555
C11 C10 1_555 1_555
H8 C11 1_555 1_555
C12 C11 1_555 1_555
H9 C12 1_555 1_555
C13 C12 1_555 1_555
C14 C8 1_555 1_555
N1 C1 1_555 1_555
N2 C1 1_555 1_555
N3 C13 1_555 1_555
N4 C8 1_555 1_555
O1 Fe1 1_555 1_555
C15 C16 1_555 1_555
C16 C17 1_555 1_555
C17 H10 1_555 1_555
O2 Fe1 1_555 1_555
C15A C16A 1_555 1_555
C16A C17A 1_555 1_555
C17A C17 1_555 1_555
H10A C17A 1_555 1_555
O2A C15A 1_555 1_555
C17B C16 1_555 1_555
H10B C17B 1_555 1_555
O2B Fe1 1_555 1_555
C17C C16A 1_555 1_555
H10C C17C 1_555 1_555
O2C C15A 1_555 1_555
Fe1A O2A 1_555 1_555
C1A C2A 1_555 1_555
C2A H1A 1_555 1_555
C3A C2A 1_555 1_555
H2A C3A 1_555 1_555
C4A C3A 1_555 1_555
H3A C4A 1_555 1_555
C5A C4A 1_555 1_555
H4A C5A 1_555 1_555
C6A H5A 1_555 1_555
C7A C6A 1_555 1_555
C8A C7A 1_555 1_555
C9A H6A 1_555 1_555
C10A C9A 1_555 1_555
H7A C10A 1_555 1_555
C11A C10A 1_555 1_555
H8A C11A 1_555 1_555
C12A C11A 1_555 1_555
H9A C12A 1_555 1_555
C13A C12A 1_555 1_555
C14A C8A 1_555 1_555
N1A Fe1A 1_555 1_555
N2A C1A 1_555 1_555
N3A C13A 1_555 1_555
N4A C8A 1_555 1_555
O1A Fe1A 1_555 1_555
C1B C2B 1_555 1_555
C2B H1B 1_555 1_555
C3B C2B 1_555 1_555
H2B C3B 1_555 1_555
C4B C3B 1_555 1_555
H3B C4B 1_555 1_555
C5B C4B 1_555 1_555
H4B C5B 1_555 1_555
C6B H5B 1_555 1_555
C7B C6B 1_555 1_555
C8B C7B 1_555 1_555
C9B H6B 1_555 1_555
C10B C9B 1_555 1_555
H7B C10B 1_555 1_555
C11B C10B 1_555 1_555
H8B C11B 1_555 1_555
C12B C11B 1_555 1_555
H9B C12B 1_555 1_555
C13B C12B 1_555 1_555
C14B C8B 1_555 1_555
N1B Fe1 1_555 1_555
N2B C1B 1_555 1_555
N3B C13B 1_555 1_555
N4B C8B 1_555 1_555
O1B Fe1 1_555 1_555
C1C C2C 1_555 1_555
C2C H1C 1_555 1_555
C3C C2C 1_555 1_555
H2C C3C 1_555 1_555
C4C C3C 1_555 1_555
H3C C4C 1_555 1_555
C5C C4C 1_555 1_555
H4C C5C 1_555 1_555
C6C H5C 1_555 1_555
C7C C6C 1_555 1_555
C8C C7C 1_555 1_555
C9C H6C 1_555 1_555
C10C C9C 1_555 1_555
H7C C10C 1_555 1_555
C11C C10C 1_555 1_555
H8C C11C 1_555 1_555
C12C C11C 1_555 1_555
H9C C12C 1_555 1_555
C13C C12C 1_555 1_555
C14C C8C 1_555 1_555
N1C Fe1A 1_555 1_555
N2C C1C 1_555 1_555
N3C C13C 1_555 1_555
N4C C8C 1_555 1_555
O1C Fe1A 1_555 1_555
Fe2_2 N3A 1_555 1_555
Fe2B N3C 1_555 1_555
Fe2B_2 N3B 1_555 1_555
N3A_2 Fe2 1_555 1_555
N3N Fe2 1_555 1_555
N3O Fe2 1_555 1_555
C5 N2 1_555 1_555
C6 N2 1_555 1_555
C7 N1 1_555 1_555
C9 N4 1_555 1_555
C13 N4 1_555 1_555
C14 N3 1_555 1_555
C14 O1 1_555 1_555
C15 O2 1_555 1_555
C15 O2B 1_555 1_555
C17B C17C 1_555 1_555
O2C Fe1A 1_555 1_555
C1A N1A 1_555 1_555
C5A N2A 1_555 1_555
C6A N2A 1_555 1_555
C7A N1A 1_555 1_555
C9A N4A 1_555 1_555
C13A N4A 1_555 1_555
C14A N3A 1_555 1_555
C14A O1A 1_555 1_555
C1B N1B 1_555 1_555
C5B N2B 1_555 1_555
C6B N2B 1_555 1_555
C7B N1B 1_555 1_555
C9B N4B 1_555 1_555
C13B N4B 1_555 1_555
C14B N3B 1_555 1_555
C14B O1B 1_555 1_555
C1C N1C 1_555 1_555
C5C N2C 1_555 1_555
C6C N2C 1_555 1_555
C7C N1C 1_555 1_555
C9C N4C 1_555 1_555
C13C N4C 1_555 1_555
C14C N3C 1_555 1_555
C14C O1C 1_555 1_555

#END
