
#######################################################################
#
#                 Cambridge Crystallographic Data Centre
#                                CCDC 
#
#######################################################################
#
# If this CIF has been generated from an entry in the Cambridge 
# Structural Database, then it will include bibliographic, chemical, 
# crystal, experimental, refinement or atomic coordinate data resulting 
# from the CCDC's data processing and validation procedures.
#
#######################################################################

data_LEZBUO
_symmetry_cell_setting           monoclinic
_symmetry_space_group_name_H-M   'P 21/c'
_symmetry_Int_Tables_number      14
_space_group_name_Hall           '-P 2ybc'
loop_
_symmetry_equiv_pos_site_id
_symmetry_equiv_pos_as_xyz
1 x,y,z
2 -x,1/2+y,1/2-z
3 -x,-y,-z
4 x,1/2-y,1/2+z
_cell_length_a                   9.6704(3)
_cell_length_b                   18.5942(6)
_cell_length_c                   6.9974(2)
_cell_angle_alpha                90
_cell_angle_beta                 101.272(2)
_cell_angle_gamma                90
_cell_volume                     1233.96
loop_
_atom_site_label
_atom_site_type_symbol
_atom_site_fract_x
_atom_site_fract_y
_atom_site_fract_z
Sr1 Sr 0.30407(4) 0.024450(18) 0.55147(5)
O1 O 0.1503(3) -0.08797(15) 0.6065(4)
O2 O 0.3751(3) -0.10543(15) 0.7231(5)
C1 C 0.2535(4) -0.1295(2) 0.6651(5)
O3 O 0.5693(3) -0.35299(15) 0.7984(5)
O4 O 0.4242(3) -0.44317(15) 0.8236(4)
O5 O 0.3492(3) 0.11311(17) 0.2668(5)
H1 H 0.4154 0.1439 0.2897
H2 H 0.2975 0.1104 0.1540
C2 C 0.4466(4) -0.3783(2) 0.7805(5)
O6 O 0.1015(3) 0.0934(2) 0.6292(5)
H3 H 0.1155 0.1334 0.6887
H4 H 0.0183 0.0769 0.5963
O7 O 0.3198(5) 0.02314(19) 0.9315(5)
H5 H 0.3835 0.0474 1.0049
H6 H 0.3356 -0.0146 0.8708
O8 O -0.0553(3) -0.34071(15) 0.5212(4)
H7 H -0.1163 -0.3120 0.5376
C3 C 0.3233(4) -0.3293(2) 0.7111(5)
C4 C 0.0769(4) -0.3108(2) 0.5876(5)
C5 C 0.1885(4) -0.3574(2) 0.6466(5)
H8 H 0.1739 -0.4069 0.6432
C6 C 0.3435(4) -0.2556(2) 0.7169(5)
H9 H 0.4336 -0.2370 0.7583
C7 C 0.0961(4) -0.2376(2) 0.5960(5)
H10 H 0.0197 -0.2069 0.5582
C8 C 0.2307(4) -0.2094(2) 0.6614(5)
O10 O 0.0900(4) 0.02834(16) 0.2409(5)
H13 H 0.0820 0.0638 0.1626
H14 H 0.0305 -0.0058 0.2211
Sr1A Sr 0.69593(4) -0.475550(18) 0.94853(5)
Sr1C Sr 0.30407(4) -0.524450(18) 1.05147(5)
O3A O 0.4307(3) 0.14701(15) 0.7016(5)
O4C O 0.4242(3) -0.05683(15) 0.3236(4)
O4A O 0.5758(3) 0.05683(15) 0.6764(4)
O9 O 0.2887(4) 0.2382(2) 0.9362(6)
H11 H 0.3636 0.2620 0.9770
H12 H 0.2110 0.2520 0.9634
loop_
_geom_bond_atom_site_label_1
_geom_bond_atom_site_label_2
_geom_bond_site_symmetry_1
_geom_bond_site_symmetry_2
Sr1 O1 1_555 1_555
O1 C1 1_555 1_555
O2 Sr1 1_555 1_555
C1 O2 1_555 1_555
O3 C2 1_555 1_555
O4 C2 1_555 1_555
O5 Sr1 1_555 1_555
H1 O5 1_555 1_555
H2 O5 1_555 1_555
C2 C3 1_555 1_555
O6 Sr1 1_555 1_555
H3 O6 1_555 1_555
H4 O6 1_555 1_555
O7 Sr1 1_555 1_555
H5 O7 1_555 1_555
H6 O7 1_555 1_555
O8 H7 1_555 1_555
C3 C5 1_555 1_555
C4 O8 1_555 1_555
C5 C4 1_555 1_555
H8 C5 1_555 1_555
C6 C3 1_555 1_555
H9 C6 1_555 1_555
C7 C4 1_555 1_555
H10 C7 1_555 1_555
C8 C1 1_555 1_555
O9 H11 1_555 1_555
H12 O9 1_555 1_555
O10 Sr1 1_555 1_555
H13 O10 1_555 1_555
H14 O10 1_555 1_555
Sr1A O3 1_555 1_555
Sr1C O4 1_555 1_555
O3A Sr1 1_555 1_555
O4C Sr1 1_555 1_555
O4A Sr1 1_555 1_555
O4 Sr1A 1_555 1_555
C6 C8 1_555 1_555
C7 C8 1_555 1_555

#END
