
#######################################################################
#
#                 Cambridge Crystallographic Data Centre
#                                CCDC 
#
#######################################################################
#
# If this CIF has been generated from an entry in the Cambridge 
# Structural Database, then it will include bibliographic, chemical, 
# crystal, experimental, refinement or atomic coordinate data resulting 
# from the CCDC's data processing and validation procedures.
#
#######################################################################

data_LEZDIF
_symmetry_cell_setting           triclinic
_symmetry_space_group_name_H-M   'P -1'
_symmetry_Int_Tables_number      2
_space_group_name_Hall           '-P 1'
loop_
_symmetry_equiv_pos_site_id
_symmetry_equiv_pos_as_xyz
1 x,y,z
2 -x,-y,-z
_cell_length_a                   10.4431(17)
_cell_length_b                   14.522(2)
_cell_length_c                   15.001(2)
_cell_angle_alpha                91.939(10)
_cell_angle_beta                 109.420(9)
_cell_angle_gamma                101.718(8)
_cell_volume                     2088.13
loop_
_atom_site_label
_atom_site_type_symbol
_atom_site_fract_x
_atom_site_fract_y
_atom_site_fract_z
C9 C -0.048(2) -0.0649(10) 0.4810(15)
C10 C -0.121(2) -0.1252(14) 0.3977(12)
C11 C -0.161(2) -0.2218(13) 0.4016(12)
N2 N -0.128(3) -0.2582(10) 0.4889(15)
C12 C -0.054(2) -0.1980(14) 0.5722(12)
C13 C -0.014(2) -0.1013(13) 0.5683(12)
C14 C 0.007(3) 0.038(2) 0.479(2)
C9A C 0.048(2) 0.0649(10) 0.5190(15)
C10A C 0.121(2) 0.1252(14) 0.6023(12)
C11A C 0.161(2) 0.2218(13) 0.5984(12)
N2A N 0.128(3) 0.2582(10) 0.5111(15)
C12A C 0.054(2) 0.1980(14) 0.4278(12)
C13A C 0.014(2) 0.1013(13) 0.4317(12)
C14A C -0.007(3) -0.038(2) 0.521(2)
O32 O 0.164(5) 0.476(3) 0.133(3)
O33 O 0.672(3) 0.222(2) 0.197(2)
O34 O 0.461(3) 0.610(2) 0.177(2)
O35 O 0.763(2) 0.2363(11) 0.3812(11)
O36 O 0.435(2) 0.2634(15) 0.0758(17)
O37 O 0.580(3) 0.512(2) 0.085(2)
O38 O 0.021(3) 0.2658(19) 0.1936(19)
O39 O 0.356(2) 0.7151(15) 0.0226(16)
Mo1 Mo 1.24832(12) 0.97543(9) 0.08871(9)
Mo2 Mo 1.55718(12) 0.94732(8) 0.22039(8)
Mo3 Mo 1.81209(11) 0.97343(8) 0.13111(8)
Mo4 Mo 1.23626(12) 0.50070(8) 0.39997(9)
Mo5 Mo 0.91190(12) 0.49898(7) 0.26817(8)
Mo6 Mo 0.67463(12) 0.49812(8) 0.36965(8)
Al1 Al 1.5000 1.0000 0.0000
Al2 Al 1.0000 0.5000 0.5000
La1 La 0.98741(8) 0.73611(5) 0.12896(6)
O1 O 1.3705(9) 1.0708(6) 0.0125(6)
O2 O 1.4166(8) 0.9082(6) 0.0630(6)
O3 O 1.6324(8) 1.0447(6) 0.1215(6)
O4 O 1.1585(9) 0.9386(7) -0.0463(7)
O5 O 1.4124(10) 1.0184(7) 0.1927(7)
O6 O 1.6844(9) 0.8923(6) 0.1786(6)
O7 O 1.1608(11) 1.0580(8) 0.1052(7)
O8 O 1.1738(11) 0.8735(8) 0.1232(8)
O9 O 1.6667(11) 1.0153(8) 0.3207(7)
O10 O 1.4769(10) 0.8473(8) 0.2553(8)
O11 O 1.9245(10) 1.0395(8) 0.2304(7)
O12 O 1.8903(10) 0.8848(8) 0.1093(7)
O13 O 1.1387(9) 0.4329(6) 0.5012(7)
O14 O 1.0620(9) 0.5694(5) 0.4127(6)
O15 O 0.8608(9) 0.4287(5) 0.3898(6)
O16 O 1.3424(10) 0.5676(6) 0.5242(7)
O17 O 1.0622(10) 0.4338(6) 0.3035(6)
O18 O 0.7883(9) 0.5642(6) 0.3012(6)
O19 O 1.3258(12) 0.4172(8) 0.3957(9)
O20 O 1.2888(11) 0.5883(7) 0.3380(8)
O21 O 0.9725(10) 0.5854(7) 0.2067(7)
O22 O 0.7947(12) 0.4134(7) 0.1841(7)
O23 O 0.5894(11) 0.5862(8) 0.3735(9)
O24 O 0.5614(11) 0.4153(7) 0.2822(7)
O25 O 1.1605(12) 0.7559(7) 0.4330(7)
O26 O 1.0700(12) 0.8040(7) 0.2917(7)
C1 C 1.1454(15) 0.8160(9) 0.3763(12)
C2 C 1.2326(16) 0.9143(10) 0.4178(11)
H1 H 1.2850 0.9252 0.4824
C3 C 1.2366(17) 0.9845(10) 0.3658(12)
H2 H 1.1801 0.9733 0.3020
C4 C 1.3250(15) 1.0801(10) 0.4017(11)
C5 C 1.4004(17) 1.1131(10) 0.4971(11)
H3 H 1.3990 1.0731 0.5440
C6 C 1.4770(18) 1.2051(12) 0.5214(15)
H4 H 1.5269 1.2269 0.5851
C7 C 1.409(2) 1.2322(13) 0.3661(13)
H5 H 1.4155 1.2745 0.3217
C8 C 1.328(2) 1.1448(10) 0.3334(13)
H6 H 1.2762 1.1279 0.2692
N1 N 1.4805(14) 1.2621(8) 0.4563(10)
H7 H 1.5295 1.3192 0.4724
O27 O 0.7741(18) 0.6143(13) 0.0141(12)
O28 O 1.0686(18) 0.6343(13) 0.0202(13)
O29 O 0.9108(19) 0.7793(10) -0.0453(10)
O30 O 1.2332(12) 0.7077(9) 0.2048(9)
O31 O 0.7677(11) 0.7176(8) 0.1775(9)
Mo1A Mo 0.75168(12) 0.02457(9) 0.91129(9)
Mo2A Mo 0.44282(12) 0.05268(8) 0.77961(8)
Mo3A Mo 0.18791(11) 0.02657(8) 0.86889(8)
Mo4A Mo 0.76374(12) 0.49930(8) 0.60003(9)
Mo5A Mo 1.08810(12) 0.50102(7) 0.73183(8)
Mo6A Mo 1.32537(12) 0.50188(8) 0.63035(8)
La1A La 1.01259(8) 0.26389(5) 0.87104(6)
O1A O 0.6295(9) -0.0708(6) 0.9875(6)
O2A O 0.5834(8) 0.0918(6) 0.9370(6)
O3A O 0.3676(8) -0.0447(6) 0.8785(6)
O4A O 0.8415(9) 0.0614(7) 1.0463(7)
O5A O 0.5876(10) -0.0184(7) 0.8073(7)
O6A O 0.3156(9) 0.1077(6) 0.8214(6)
O7A O 0.8392(11) -0.0580(8) 0.8948(7)
O8A O 0.8262(11) 0.1265(8) 0.8768(8)
O9A O 0.3333(11) -0.0153(8) 0.6793(7)
O10A O 0.5231(10) 0.1527(8) 0.7447(8)
O11A O 0.0755(10) -0.0395(8) 0.7696(7)
O12A O 0.1097(10) 0.1152(8) 0.8907(7)
O13A O 0.8613(9) 0.5671(6) 0.4988(7)
O14A O 0.9380(9) 0.4306(5) 0.5873(6)
O15A O 1.1392(9) 0.5713(5) 0.6102(6)
O16A O 0.6576(10) 0.4324(6) 0.4758(7)
O17A O 0.9378(10) 0.5662(6) 0.6965(6)
O18A O 1.2117(9) 0.4358(6) 0.6988(6)
O19A O 0.6742(12) 0.5828(8) 0.6043(9)
O20A O 0.7112(11) 0.4117(7) 0.6620(8)
O21A O 1.0275(10) 0.4146(7) 0.7933(7)
O22A O 1.2053(12) 0.5866(7) 0.8159(7)
O23A O 1.4106(11) 0.4138(8) 0.6265(9)
O24A O 1.4386(11) 0.5847(7) 0.7178(7)
O25A O 0.8395(12) 0.2441(7) 0.5670(7)
O26A O 0.9300(12) 0.1960(7) 0.7083(7)
C1A C 0.8546(15) 0.1840(9) 0.6237(12)
C2A C 0.7674(16) 0.0857(10) 0.5822(11)
H1A H 0.7150 0.0748 0.5176
C3A C 0.7634(17) 0.0155(10) 0.6342(12)
H2A H 0.8199 0.0267 0.6980
C4A C 0.6750(15) -0.0801(10) 0.5983(11)
C5A C 0.5996(17) -0.1131(10) 0.5029(11)
H3A H 0.6010 -0.0731 0.4560
C6A C 0.5230(18) -0.2051(12) 0.4786(15)
H4A H 0.4731 -0.2269 0.4149
C7A C 0.591(2) -0.2322(13) 0.6339(13)
H5A H 0.5845 -0.2745 0.6783
C8A C 0.672(2) -0.1448(10) 0.6666(13)
H6A H 0.7238 -0.1279 0.7308
N1A N 0.5195(14) -0.2621(8) 0.5437(10)
H7A H 0.4705 -0.3192 0.5276
O27A O 1.2259(18) 0.3857(13) 0.9859(12)
O28A O 0.9314(18) 0.3657(13) 0.9798(13)
O29A O 1.0892(19) 0.2207(10) 1.0453(10)
O30A O 0.7668(12) 0.2923(9) 0.7952(9)
O31A O 1.2323(11) 0.2824(8) 0.8225(9)
Mo3_2 Mo 0.81209(11) -0.02657(8) 1.13111(8)
Mo3A_2 Mo 1.18791(11) 1.02657(8) -0.13111(8)
Al1_2 Al 0.5000 0.0000 1.0000
La1_2 La 1.98741(8) 0.73611(5) 0.12896(6)
La1A_2 La 0.01259(8) 0.26389(5) 0.87104(6)
O1_2 O 0.3705(9) 0.0708(6) 1.0125(6)
O1A_2 O 1.6295(9) 0.9292(6) -0.0125(6)
O2A_2 O 1.5834(8) 1.0918(6) -0.0630(6)
O3A_2 O 1.3676(8) 0.9553(6) -0.1215(6)
O4_2 O 0.1585(9) -0.0614(7) 0.9537(7)
O4A_2 O 1.8415(9) 1.0614(7) 0.0463(7)
O12_2 O 0.8903(10) 0.8848(8) 0.1093(7)
O12A_2 O 1.1097(10) 0.1152(8) 0.8907(7)
O40? O 0.293(8) 0.455(5) 0.165(5)
O41? O 0.783(5) 0.221(3) 0.185(3)
O42? O 0.437(4) 0.734(2) 0.133(2)
O43? O 0.539(4) 0.733(3) 0.128(3)
O44? O 0.258(2) 0.2368(17) 0.6198(15)
O45? O 0.105(3) 0.2369(18) 0.473(2)
C15? C 0.149(3) 0.194(2) 0.540(3)
C16? C 0.095(4) 0.096(3) 0.553(3)
loop_
_geom_bond_atom_site_label_1
_geom_bond_atom_site_label_2
_geom_bond_site_symmetry_1
_geom_bond_site_symmetry_2
Mo1 O1 1_555 1_555
Mo2 O2 1_555 1_555
Mo3 O3 1_555 1_555
Mo4 O13 1_555 1_555
Mo5 O14 1_555 1_555
Mo6 O15 1_555 1_555
Al1 O1 1_555 1_555
Al2 O13 1_555 1_555
La1 O8 1_555 1_555
O1 Mo3A_2 1_555 1_555
O2 Mo1 1_555 1_555
O3 Mo2 1_555 1_555
O4 Mo1 1_555 1_555
O5 Mo1 1_555 1_555
O6 Mo2 1_555 1_555
O7 Mo1 1_555 1_555
O8 Mo1 1_555 1_555
O9 Mo2 1_555 1_555
O10 Mo2 1_555 1_555
O11 Mo3 1_555 1_555
O12 Mo3 1_555 1_555
O13 Mo6A 1_555 1_555
O14 Mo4 1_555 1_555
O15 Mo5 1_555 1_555
O16 Mo4 1_555 1_555
O17 Mo4 1_555 1_555
O18 Mo5 1_555 1_555
O19 Mo4 1_555 1_555
O20 Mo4 1_555 1_555
O21 Mo5 1_555 1_555
O22 Mo5 1_555 1_555
O23 Mo6 1_555 1_555
O24 Mo6 1_555 1_555
O25 C1 1_555 1_555
O26 La1 1_555 1_555
C1 O26 1_555 1_555
C2 C1 1_555 1_555
H1 C2 1_555 1_555
C3 C2 1_555 1_555
H2 C3 1_555 1_555
C4 C3 1_555 1_555
C5 C4 1_555 1_555
H3 C5 1_555 1_555
C6 C5 1_555 1_555
H4 C6 1_555 1_555
C7 H5 1_555 1_555
C8 C4 1_555 1_555
H6 C8 1_555 1_555
N1 C6 1_555 1_555
H7 N1 1_555 1_555
O27 La1 1_555 1_555
O28 La1 1_555 1_555
O29 La1 1_555 1_555
O30 La1 1_555 1_555
O31 La1 1_555 1_555
C9 C10 1_555 1_555
C10 C11 1_555 1_555
C11 N2 1_555 1_555
N2 C12 1_555 1_555
C12 C13 1_555 1_555
C13 C9 1_555 1_555
C14 C9 1_555 1_555
Mo1A O1A 1_555 1_555
Mo2A O2A 1_555 1_555
Mo3A O3A 1_555 1_555
Mo4A O13A 1_555 1_555
Mo5A O14A 1_555 1_555
Mo6A O16 1_555 1_555
La1A O8A 1_555 1_555
O1A Mo3_2 1_555 1_555
O2A Mo1A 1_555 1_555
O3A Mo2A 1_555 1_555
O4A Mo1A 1_555 1_555
O5A Mo1A 1_555 1_555
O6A Mo2A 1_555 1_555
O7A Mo1A 1_555 1_555
O8A Mo1A 1_555 1_555
O9A Mo2A 1_555 1_555
O10A Mo2A 1_555 1_555
O11A Mo3A 1_555 1_555
O12A Mo3A 1_555 1_555
O13A Mo6 1_555 1_555
O14A Al2 1_555 1_555
O15A Al2 1_555 1_555
O16A Mo6 1_555 1_555
O17A Mo4A 1_555 1_555
O18A Mo5A 1_555 1_555
O19A Mo4A 1_555 1_555
O20A Mo4A 1_555 1_555
O21A Mo5A 1_555 1_555
O22A Mo5A 1_555 1_555
O23A Mo6A 1_555 1_555
O24A Mo6A 1_555 1_555
O25A C1A 1_555 1_555
O26A La1A 1_555 1_555
C1A O26A 1_555 1_555
C2A C1A 1_555 1_555
H1A C2A 1_555 1_555
C3A C2A 1_555 1_555
H2A C3A 1_555 1_555
C4A C3A 1_555 1_555
C5A C4A 1_555 1_555
H3A C5A 1_555 1_555
C6A C5A 1_555 1_555
H4A C6A 1_555 1_555
C7A H5A 1_555 1_555
C8A C4A 1_555 1_555
H6A C8A 1_555 1_555
N1A C6A 1_555 1_555
H7A N1A 1_555 1_555
O27A La1A 1_555 1_555
O28A La1A 1_555 1_555
O29A La1A 1_555 1_555
O30A La1A 1_555 1_555
O31A La1A 1_555 1_555
Mo3_2 O4A 1_555 1_555
Mo3A_2 O4 1_555 1_555
Al1_2 O1A 1_555 1_555
La1_2 O12 1_555 1_555
La1A_2 O12A 1_555 1_555
O1_2 Mo3A 1_555 1_555
O1A_2 Mo3 1_555 1_555
O2A_2 Al1 1_555 1_555
O3A_2 Al1 1_555 1_555
O4_2 Mo3A 1_555 1_555
O4A_2 Mo3 1_555 1_555
O12_2 La1 1_555 1_555
O12A_2 La1A 1_555 1_555
C9A C14 1_555 1_555
C10A C9A 1_555 1_555
C11A C10A 1_555 1_555
N2A C11A 1_555 1_555
C12A N2A 1_555 1_555
C13A C14 1_555 1_555
C14A C9 1_555 1_555
Mo2 O5 1_555 1_555
Mo3 O6 1_555 1_555
Mo5 O17 1_555 1_555
Mo6 O18 1_555 1_555
Al1 O2 1_555 1_555
Al1 O3 1_555 1_555
Al1 O1A_2 1_555 1_555
Al2 O14 1_555 1_555
Al2 O15 1_555 1_555
Al2 O13A 1_555 1_555
La1 O21 1_555 1_555
C7 C8 1_555 1_555
C7 N1 1_555 1_555
C13 C14A 1_555 1_555
C14 C14A 1_555 1_555
Mo2A O5A 1_555 1_555
Mo3A O6A 1_555 1_555
Mo4A O14A 1_555 1_555
Mo4A O16A 1_555 1_555
Mo5A O15A 1_555 1_555
Mo5A O17A 1_555 1_555
Mo6A O15A 1_555 1_555
Mo6A O18A 1_555 1_555
La1A O21A 1_555 1_555
O2A Al1_2 1_555 1_555
O3A Al1_2 1_555 1_555
C7A C8A 1_555 1_555
C7A N1A 1_555 1_555
Mo3A_2 O3A_2 1_555 1_555
Al1_2 O1_2 1_555 1_555
C9A C13A 1_555 1_555
C9A C14A 1_555 1_555
C12A C13A 1_555 1_555

#END
