
#######################################################################
#
#                 Cambridge Crystallographic Data Centre
#                                CCDC 
#
#######################################################################
#
# If this CIF has been generated from an entry in the Cambridge 
# Structural Database, then it will include bibliographic, chemical, 
# crystal, experimental, refinement or atomic coordinate data resulting 
# from the CCDC's data processing and validation procedures.
#
#######################################################################

data_LEZFED
_symmetry_cell_setting           orthorhombic
_symmetry_space_group_name_H-M   'P b c a'
_symmetry_Int_Tables_number      61
_space_group_name_Hall           '-P 2ac 2ab'
loop_
_symmetry_equiv_pos_site_id
_symmetry_equiv_pos_as_xyz
1 x,y,z
2 1/2-x,-y,1/2+z
3 1/2+x,1/2-y,-z
4 -x,1/2+y,1/2-z
5 -x,-y,-z
6 1/2+x,y,1/2-z
7 1/2-x,1/2+y,z
8 x,1/2-y,1/2+z
_cell_length_a                   7.1230(3)
_cell_length_b                   17.3539(7)
_cell_length_c                   18.0545(7)
_cell_angle_alpha                90
_cell_angle_beta                 90
_cell_angle_gamma                90
_cell_volume                     2231.75
loop_
_atom_site_label
_atom_site_type_symbol
_atom_site_fract_x
_atom_site_fract_y
_atom_site_fract_z
Co1 Co 0.56601(6) 0.59081(3) 0.42921(2)
O1 O 0.5792(3) 0.89831(14) 0.03857(11)
O2 O 0.5687(4) 0.63161(15) 0.32159(12)
O3 O 0.5526(4) 0.72097(15) 0.40682(12)
O4 O 0.4200(4) 0.98169(13) 0.10869(11)
N1 N 0.8692(4) 0.59185(17) 0.43131(14)
N2 N 1.2604(4) 0.59006(18) 0.43123(16)
C1 C 0.5497(5) 0.7608(2) 0.27899(17)
C2 C 0.9696(5) 0.6329(2) 0.47914(18)
H1 H 0.9069 0.6631 0.5137
C3 C 0.5631(6) 0.7886(2) 0.14864(17)
H2 H 0.5838 0.7720 0.1003
C4 C 0.5781(6) 0.7365(2) 0.20679(18)
H3 H 0.6074 0.6853 0.1972
C5 C 0.5589(5) 0.7021(2) 0.34015(18)
C6 C 0.4886(5) 0.8881(2) 0.23509(17)
H4 H 0.4558 0.9390 0.2448
C7 C 0.5033(4) 0.9195(2) 0.09871(16)
C8 C 1.1612(6) 0.5502(2) 0.38225(19)
H5 H 1.2241 0.5213 0.3467
C9 C 0.5180(4) 0.8643(2) 0.16205(15)
C10 C 1.1633(5) 0.6324(2) 0.47955(19)
H6 H 1.2273 0.6621 0.5142
C11 C 0.5077(5) 0.8371(2) 0.29234(17)
H7 H 0.4923 0.8540 0.3408
C12 C 0.9689(5) 0.5504(2) 0.38244(19)
H8 H 0.9053 0.5208 0.3476
Co1_2 Co 1.56601(6) 0.59081(3) 0.42921(2)
Co1C Co 0.43399(6) 1.09081(3) 0.07079(2)
Co1G Co 0.56601(6) 0.90919(3) -0.07079(2)
O1G O 0.5792(3) 0.60169(14) 0.53857(11)
O4C O 0.5800(4) 0.48169(13) 0.39131(11)
N2_2 N 0.2604(4) 0.59006(18) 0.43123(16)
loop_
_geom_bond_atom_site_label_1
_geom_bond_atom_site_label_2
_geom_bond_site_symmetry_1
_geom_bond_site_symmetry_2
Co1 O2 1_555 1_555
O1 C7 1_555 1_555
O2 C5 1_555 1_555
O3 Co1 1_555 1_555
O4 C7 1_555 1_555
N1 Co1 1_555 1_555
N2 C8 1_555 1_555
C1 C4 1_555 1_555
C2 N1 1_555 1_555
H1 C2 1_555 1_555
C3 H2 1_555 1_555
C4 C3 1_555 1_555
H3 C4 1_555 1_555
C5 O3 1_555 1_555
C6 H4 1_555 1_555
C7 C9 1_555 1_555
C8 H5 1_555 1_555
C9 C3 1_555 1_555
C10 N2 1_555 1_555
H6 C10 1_555 1_555
C11 C1 1_555 1_555
H7 C11 1_555 1_555
C12 N1 1_555 1_555
H8 C12 1_555 1_555
Co1_2 N2 1_555 1_555
Co1C O4 1_555 1_555
Co1G O1 1_555 1_555
O1G Co1 1_555 1_555
O4C Co1 1_555 1_555
N2_2 Co1 1_555 1_555
C1 C5 1_555 1_555
C2 C10 1_555 1_555
C6 C9 1_555 1_555
C6 C11 1_555 1_555
C8 C12 1_555 1_555

#END
