
#######################################################################
#
#                 Cambridge Crystallographic Data Centre
#                                CCDC 
#
#######################################################################
#
# If this CIF has been generated from an entry in the Cambridge 
# Structural Database, then it will include bibliographic, chemical, 
# crystal, experimental, refinement or atomic coordinate data resulting 
# from the CCDC's data processing and validation procedures.
#
#######################################################################

data_LEZHIJ
_symmetry_cell_setting           orthorhombic
_symmetry_space_group_name_H-M   'P b c a'
_symmetry_Int_Tables_number      61
_space_group_name_Hall           '-P 2ac 2ab'
loop_
_symmetry_equiv_pos_site_id
_symmetry_equiv_pos_as_xyz
1 x,y,z
2 1/2-x,-y,1/2+z
3 -x,1/2+y,1/2-z
4 1/2+x,1/2-y,-z
5 -x,-y,-z
6 1/2+x,y,1/2-z
7 x,1/2-y,1/2+z
8 1/2-x,1/2+y,z
_cell_length_a                   7.2854(15)
_cell_length_b                   13.724(3)
_cell_length_c                   14.683(3)
_cell_angle_alpha                90
_cell_angle_beta                 90
_cell_angle_gamma                90
_cell_volume                     1468.08
loop_
_atom_site_label
_atom_site_type_symbol
_atom_site_fract_x
_atom_site_fract_y
_atom_site_fract_z
Cu1 Cu 0.02595(4) 0.682125(18) 0.461793(19)
S1 S 0.04456(7) 0.85599(4) 0.58350(4)
N1 N 0.0520(2) 0.75838(14) 0.83885(14)
O1 O -0.0699(2) 0.80527(11) 0.51463(11)
O2 O 0.2295(2) 0.87086(12) 0.55048(12)
O3 O -0.0433(2) 0.94411(11) 0.61481(12)
O4 O 0.0609(2) 0.62982(11) 0.58319(11)
O5 O 0.0906(2) 0.55153(12) 0.41312(12)
H1 H 0.027(4) 0.503(2) 0.418(2)
H2 H 0.187(4) 0.545(2) 0.414(2)
C1 C 0.0528(3) 0.77474(17) 0.67590(17)
C2 C 0.0641(3) 0.67258(16) 0.66177(17)
C3 C 0.0790(3) 0.61782(17) 0.74257(18)
H3 H 0.098(3) 0.5502(19) 0.744(2)
C4 C 0.0708(3) 0.66129(17) 0.82612(17)
H4 H 0.078(4) 0.624(2) 0.872(2)
C5 C 0.0450(3) 0.81288(16) 0.76258(17)
H5 H 0.032(3) 0.879(2) 0.7705(19)
Cu1C Cu 0.52595(4) 0.817875(18) 0.538207(19)
Cu1F Cu 0.02595(4) 0.817875(18) 0.961793(19)
N1F N 0.0520(2) 0.74162(14) 0.33885(14)
O2C O -0.2705(2) 0.62914(12) 0.44952(12)
loop_
_geom_bond_atom_site_label_1
_geom_bond_atom_site_label_2
_geom_bond_site_symmetry_1
_geom_bond_site_symmetry_2
Cu1 O1 1_555 1_555
S1 O1 1_555 1_555
N1 C4 1_555 1_555
O2 S1 1_555 1_555
O3 S1 1_555 1_555
O4 Cu1 1_555 1_555
O5 Cu1 1_555 1_555
H1 O5 1_555 1_555
H2 O5 1_555 1_555
C1 S1 1_555 1_555
C2 O4 1_555 1_555
C3 C2 1_555 1_555
H3 C3 1_555 1_555
C4 C3 1_555 1_555
H4 C4 1_555 1_555
C5 N1 1_555 1_555
H5 C5 1_555 1_555
Cu1C O2 1_555 1_555
Cu1F N1 1_555 1_555
N1F Cu1 1_555 1_555
O2C Cu1 1_555 1_555
C1 C2 1_555 1_555
C1 C5 1_555 1_555

#END
