
#######################################################################
#
#                 Cambridge Crystallographic Data Centre
#                                CCDC 
#
#######################################################################
#
# If this CIF has been generated from an entry in the Cambridge 
# Structural Database, then it will include bibliographic, chemical, 
# crystal, experimental, refinement or atomic coordinate data resulting 
# from the CCDC's data processing and validation procedures.
#
#######################################################################

data_LEZJAC
_symmetry_cell_setting           monoclinic
_symmetry_space_group_name_H-M   'P 21/c'
_symmetry_Int_Tables_number      14
_space_group_name_Hall           '-P 2ybc'
loop_
_symmetry_equiv_pos_site_id
_symmetry_equiv_pos_as_xyz
1 x,y,z
2 -x,1/2+y,1/2-z
3 -x,-y,-z
4 x,1/2-y,1/2+z
_cell_length_a                   8.930(2)
_cell_length_b                   17.710(3)
_cell_length_c                   11.524(2)
_cell_angle_alpha                90
_cell_angle_beta                 97.52(2)
_cell_angle_gamma                90
_cell_volume                     1806.85
loop_
_atom_site_label
_atom_site_type_symbol
_atom_site_fract_x
_atom_site_fract_y
_atom_site_fract_z
Ag1 Ag 0.69341(5) 0.14445(3) 0.59675(4)
C1 C 0.9130(7) 0.0876(3) 0.9348(5)
C2 C 0.8811(7) 0.1266(4) 1.0287(6)
H1 H 0.8342 0.1747 1.0190
C3 C 0.9168(8) 0.0963(4) 1.1393(6)
H2 H 0.8929 0.1237 1.2053
C4 C 0.9868(7) 0.0267(4) 1.1555(5)
H3 H 1.0144 0.0075 1.2323
C5 C 0.9826(6) 0.0160(3) 0.9425(5)
O1 O 0.8714(5) 0.1160(2) 0.8214(4)
N1 N 0.9339(5) 0.1647(2) 0.6531(4)
C6 C 0.9828(6) 0.1502(4) 0.7663(5)
C7 C 1.1231(7) 0.1694(3) 0.8212(6)
H4 H 1.1520 0.1581 0.9016
C8 C 1.2207(7) 0.2053(4) 0.7566(6)
H5 H 1.3196 0.2183 0.7916
C9 C 1.1746(7) 0.2223(4) 0.6417(6)
H6 H 1.2400 0.2482 0.5964
C10 C 1.0313(7) 0.2011(3) 0.5929(5)
H7 H 1.0000 0.2129 0.5130
C11 C 0.5468(6) -0.0206(3) 0.8520(4)
C12 C 0.5608(6) -0.0964(3) 0.8526(5)
H8 H 0.5873 -0.1221 0.7859
C13 C 0.5356(6) -0.1370(3) 0.9535(5)
H9 H 0.5432 -0.1906 0.9540
C14 C 0.5004(6) -0.1003(3) 1.0504(5)
H10 H 0.4838 -0.1283 1.1180
C15 C 0.5116(6) 0.0208(3) 0.9496(4)
O2 O 0.5699(4) 0.0212(2) 0.7515(3)
N2 N 0.4774(5) 0.0800(2) 0.5839(4)
C16 C 0.4530(6) 0.0293(3) 0.6631(4)
C17 C 0.3198(7) -0.0126(3) 0.6581(5)
H11 H 0.3041 -0.0471 0.7186
C18 C 0.2123(6) -0.0023(4) 0.5628(5)
H12 H 0.1230 -0.0320 0.5543
C19 C 0.2338(7) 0.0509(4) 0.4796(5)
H13 H 0.1589 0.0601 0.4146
C20 C 0.3678(7) 0.0905(3) 0.4937(5)
H14 H 0.3835 0.1273 0.4366
N3 N 0.6606(6) 0.2243(3) 0.3347(4)
O3 O 0.5776(5) 0.2159(2) 0.4142(3)
O4 O 0.7927(5) 0.2030(3) 0.3500(4)
O5 O 0.6022(5) 0.2552(3) 0.2425(4)
Ag1B Ag 1.30659(5) -0.14445(3) 1.40325(4)
Ag1C Ag 0.69341(5) 0.35555(3) 0.09675(4)
Ag1B_2 Ag 0.30659(5) -0.14445(3) 1.40325(4)
Ag1C_2 Ag 0.69341(5) 0.35555(3) 1.09675(4)
C1B C 1.0870(7) -0.0876(3) 1.0652(5)
C2B C 1.1189(7) -0.1266(4) 0.9713(6)
H1B H 1.1658 -0.1747 0.9810
C3B C 1.0832(8) -0.0963(4) 0.8607(6)
H2B H 1.1071 -0.1237 0.7947
C4B C 1.0132(7) -0.0267(4) 0.8445(5)
H3B H 0.9856 -0.0075 0.7677
C5B C 1.0174(6) -0.0160(3) 1.0575(5)
O1B O 1.1286(5) -0.1160(2) 1.1786(4)
N1B N 1.0661(5) -0.1647(2) 1.3469(4)
C6B C 1.0172(6) -0.1502(4) 1.2337(5)
C7B C 0.8769(7) -0.1694(3) 1.1788(6)
H4B H 0.8480 -0.1581 1.0984
C8B C 0.7793(7) -0.2053(4) 1.2434(6)
H5B H 0.6804 -0.2183 1.2084
C9B C 0.8254(7) -0.2223(4) 1.3583(6)
H6B H 0.7600 -0.2482 1.4036
C10B C 0.9687(7) -0.2011(3) 1.4071(5)
H7B H 1.0000 -0.2129 1.4870
C11B C 0.4532(6) 0.0206(3) 1.1480(4)
C12B C 0.4392(6) 0.0964(3) 1.1474(5)
H8B H 0.4127 0.1221 1.2141
C13B C 0.4644(6) 0.1370(3) 1.0465(5)
H9B H 0.4568 0.1906 1.0460
C14B C 0.4996(6) 0.1003(3) 0.9496(5)
H10B H 0.5162 0.1283 0.8820
C15B C 0.4884(6) -0.0208(3) 1.0504(4)
O2B O 0.4301(4) -0.0212(2) 1.2485(3)
N2B N 0.5226(5) -0.0800(2) 1.4161(4)
N2B_2 N 1.5226(5) -0.0800(2) 1.4161(4)
C16B C 0.5470(6) -0.0293(3) 1.3369(4)
C17B C 0.6802(7) 0.0126(3) 1.3419(5)
H11B H 0.6959 0.0471 1.2814
C18B C 0.7877(6) 0.0023(4) 1.4372(5)
H12B H 0.8770 0.0320 1.4457
C19B C 0.7662(7) -0.0509(4) 1.5204(5)
H13B H 0.8411 -0.0601 1.5854
C20B C 0.6322(7) -0.0905(3) 1.5063(5)
H14B H 0.6165 -0.1273 1.5634
N3C N 0.6606(6) 0.2757(3) 0.8347(4)
O3C O 0.5776(5) 0.2841(2) 0.9142(3)
O3B O 1.4224(5) -0.2159(2) 1.5858(3)
O4C O 0.7927(5) 0.2970(3) 0.8500(4)
O5C O 0.6022(5) 0.2448(3) 0.7425(4)
O5A O 1.3978(5) -0.2448(3) 1.2575(4)
loop_
_geom_bond_atom_site_label_1
_geom_bond_atom_site_label_2
_geom_bond_site_symmetry_1
_geom_bond_site_symmetry_2
Ag1 N1 1_555 1_555
C1 C2 1_555 1_555
C2 H1 1_555 1_555
C3 C2 1_555 1_555
H2 C3 1_555 1_555
C4 C3 1_555 1_555
H3 C4 1_555 1_555
C5 C1 1_555 1_555
O1 C1 1_555 1_555
N1 C6 1_555 1_555
C6 O1 1_555 1_555
C7 C6 1_555 1_555
H4 C7 1_555 1_555
C8 C7 1_555 1_555
H5 C8 1_555 1_555
C9 C8 1_555 1_555
H6 C9 1_555 1_555
C10 N1 1_555 1_555
H7 C10 1_555 1_555
C11 C12 1_555 1_555
C12 H8 1_555 1_555
C13 C12 1_555 1_555
H9 C13 1_555 1_555
C14 C13 1_555 1_555
H10 C14 1_555 1_555
C15 C11 1_555 1_555
O2 C11 1_555 1_555
N2 Ag1 1_555 1_555
C16 O2 1_555 1_555
C17 C16 1_555 1_555
H11 C17 1_555 1_555
C18 C17 1_555 1_555
H12 C18 1_555 1_555
C19 C18 1_555 1_555
H13 C19 1_555 1_555
C20 N2 1_555 1_555
H14 C20 1_555 1_555
N3 O3 1_555 1_555
O3 Ag1 1_555 1_555
O4 N3 1_555 1_555
O5 N3 1_555 1_555
Ag1B N1B 1_555 1_555
Ag1C O5 1_555 1_555
Ag1B_2 N2B 1_555 1_555
Ag1C_2 O3C 1_555 1_555
C1B C2B 1_555 1_555
C2B H1B 1_555 1_555
C3B C2B 1_555 1_555
H2B C3B 1_555 1_555
C4B C5 1_555 1_555
H3B C4B 1_555 1_555
C5B C4 1_555 1_555
O1B C1B 1_555 1_555
N1B C6B 1_555 1_555
C6B O1B 1_555 1_555
C7B C6B 1_555 1_555
H4B C7B 1_555 1_555
C8B C7B 1_555 1_555
H5B C8B 1_555 1_555
C9B C8B 1_555 1_555
H6B C9B 1_555 1_555
C10B N1B 1_555 1_555
H7B C10B 1_555 1_555
C11B C12B 1_555 1_555
C12B H8B 1_555 1_555
C13B C12B 1_555 1_555
H9B C13B 1_555 1_555
C14B C15 1_555 1_555
H10B C14B 1_555 1_555
C15B C14 1_555 1_555
O2B C11B 1_555 1_555
N2B C16B 1_555 1_555
N2B_2 Ag1B 1_555 1_555
C16B O2B 1_555 1_555
C17B C16B 1_555 1_555
H11B C17B 1_555 1_555
C18B C17B 1_555 1_555
H12B C18B 1_555 1_555
C19B C18B 1_555 1_555
H13B C19B 1_555 1_555
C20B N2B 1_555 1_555
H14B C20B 1_555 1_555
N3C O3C 1_555 1_555
O3B Ag1B 1_555 1_555
O4C N3C 1_555 1_555
O5C Ag1 1_555 1_555
O5A Ag1B 1_555 1_555
C5 C5B 1_555 1_555
C9 C10 1_555 1_555
C15 C15B 1_555 1_555
N2 C16 1_555 1_555
C19 C20 1_555 1_555
C1B C5B 1_555 1_555
C3B C4B 1_555 1_555
C9B C10B 1_555 1_555
C11B C15B 1_555 1_555
C13B C14B 1_555 1_555
C19B C20B 1_555 1_555
N3C O5C 1_555 1_555

#END
