
#######################################################################
#
#                 Cambridge Crystallographic Data Centre
#                                CCDC 
#
#######################################################################
#
# If this CIF has been generated from an entry in the Cambridge 
# Structural Database, then it will include bibliographic, chemical, 
# crystal, experimental, refinement or atomic coordinate data resulting 
# from the CCDC's data processing and validation procedures.
#
#######################################################################

data_LEZLAF
_symmetry_cell_setting           monoclinic
_symmetry_space_group_name_H-M   'P 21'
_symmetry_Int_Tables_number      4
_space_group_name_Hall           'P 2yb'
loop_
_symmetry_equiv_pos_site_id
_symmetry_equiv_pos_as_xyz
1 x,y,z
2 -x,1/2+y,-z
_cell_length_a                   11.7271(2)
_cell_length_b                   11.7707(2)
_cell_length_c                   18.2633(4)
_cell_angle_alpha                90
_cell_angle_beta                 98.7040(10)
_cell_angle_gamma                90
_cell_volume                     2491.96
loop_
_atom_site_label
_atom_site_type_symbol
_atom_site_fract_x
_atom_site_fract_y
_atom_site_fract_z
C1 C 0.9001(5) 0.4178(6) 0.1913(3)
C2 C 0.9669(6) 0.3202(6) 0.1863(4)
C3 C 1.0565(6) 0.2951(7) 0.2430(4)
H1 H 1.1002 0.2278 0.2397
C4 C 1.0847(5) 0.3667(6) 0.3054(3)
C5 C 1.0159(5) 0.4640(6) 0.3115(3)
C6 C 0.9262(6) 0.4854(6) 0.2539(4)
H2 H 0.8798 0.5506 0.2578
C7 C 0.8064(6) 0.4506(6) 0.1293(4)
C8 C 0.9449(6) 0.2345(7) 0.1221(4)
C9 C 1.0323(5) 0.5468(6) 0.3749(4)
C10 C 1.1843(6) 0.3394(6) 0.3636(4)
C11 C 0.7641(6) 0.1810(7) -0.0648(4)
H3 H 0.6862 0.1470 -0.0680
H4 H 0.7981 0.1845 -0.0118
C12 C 0.7857(6) 0.1217(6) -0.2112(4)
H5 H 0.8314 0.0876 -0.2469
H6 H 0.7076 0.0877 -0.2201
C13 C 0.9812(6) 0.1848(6) -0.1106(4)
H7 H 1.0222 0.1878 -0.0591
H8 H 1.0354 0.1544 -0.1424
C14 C 0.8706(5) 0.3523(7) -0.0891(4)
H9 H 0.8611 0.4335 -0.1029
H10 H 0.9079 0.3487 -0.0368
C15 C 0.7020(6) 0.2956(8) -0.1761(4)
H11 H 0.6287 0.2526 -0.1816
H12 H 0.6837 0.3743 -0.1931
C16 C 0.8905(6) 0.2986(7) -0.2129(4)
H13 H 0.8823 0.3777 -0.2313
H14 H 0.9410 0.2578 -0.2430
C17 C 0.3978(5) -0.0744(6) 0.5450(4)
H15 H 0.3666 -0.0753 0.4915
H16 H 0.4078 -0.1544 0.5616
C18 C 0.2803(6) 0.0924(7) 0.5526(5)
H17 H 0.2202 0.1255 0.5789
H18 H 0.2467 0.0833 0.4999
C19 C 0.3637(5) -0.0102(7) 0.6649(4)
H19 H 0.3075 0.0301 0.6909
H20 H 0.3742 -0.0874 0.6865
C20 C 0.5558(5) -0.0072(7) 0.6358(4)
H21 H 0.6284 0.0371 0.6431
H22 H 0.5737 -0.0841 0.6563
C21 C 0.5065(7) 0.0948(6) 0.5215(4)
H23 H 0.4815 0.0865 0.4675
H24 H 0.5839 0.1303 0.5288
C22 C 0.4616(7) 0.1709(6) 0.6595(4)
H25 H 0.5384 0.2071 0.6708
H26 H 0.4096 0.2083 0.6901
C23 C 0.7598(6) 0.0987(6) 0.4383(4)
H27 H 0.7944 0.0991 0.4913
H28 H 0.6828 0.1346 0.4342
C24 C 0.9753(6) 0.0881(7) 0.3932(4)
H29 H 1.0305 0.1161 0.3613
H30 H 1.0149 0.0874 0.4451
C25 C 0.7798(7) 0.1431(7) 0.2931(4)
H31 H 0.7030 0.1799 0.2841
H32 H 0.8254 0.1730 0.2561
C26 C 0.8797(7) -0.0356(7) 0.2942(4)
H33 H 0.8692 -0.1158 0.2785
H34 H 0.9303 0.0009 0.2623
C27 C 0.6976(6) -0.0287(7) 0.3345(4)
H35 H 0.6206 0.0076 0.3276
H36 H 0.6861 -0.1101 0.3218
C28 C 0.8624(6) -0.0764(7) 0.4202(4)
H37 H 0.9014 -0.0661 0.4718
H38 H 0.8515 -0.1590 0.4115
C29 C 1.2782(6) 0.1613(7) 0.0512(4)
H39 H 1.2487 0.1686 -0.0023
H40 H 1.2188 0.1216 0.0748
C30 C 1.3671(5) 0.3460(8) 0.0402(4)
H41 H 1.3741 0.4237 0.0612
H42 H 1.3276 0.3516 -0.0116
C31 C 1.3499(7) 0.2691(7) 0.1604(4)
H43 H 1.2946 0.2344 0.1897
H44 H 1.3664 0.3472 0.1792
C32 C 1.4358(7) 0.0894(6) 0.1400(4)
H45 H 1.3810 0.0501 0.1676
H46 H 1.5081 0.0448 0.1464
C33 C 1.4702(6) 0.1401(6) 0.0164(4)
H47 H 1.4354 0.1383 -0.0365
H48 H 1.5400 0.0917 0.0221
C34 C 1.5556(6) 0.2602(7) 0.1410(4)
H49 H 1.6261 0.2128 0.1493
H50 H 1.5732 0.3336 0.1667
N1 N 0.7532(5) 0.2984(5) -0.0954(3)
N2 N 0.7769(5) 0.2444(5) -0.2235(3)
N3 N 0.9461(5) 0.2997(5) -0.1351(3)
N4 N 0.5152(5) -0.0177(5) 0.5552(3)
N5 N 0.3136(5) -0.0210(5) 0.5846(3)
N6 N 0.4717(6) 0.0485(5) 0.6789(3)
N7 N 0.7463(5) -0.0205(6) 0.4122(3)
N8 N 0.9371(5) -0.0327(5) 0.3698(3)
N9 N 0.7648(5) 0.0222(6) 0.2819(3)
N10 N 1.3871(4) 0.0906(5) 0.0609(3)
N11 N 1.2965(5) 0.2754(5) 0.0836(3)
N12 N 1.4602(5) 0.2014(6) 0.1722(3)
O1 O 0.8147(4) 0.4182(5) 0.0664(3)
O2 O 0.7260(5) 0.5160(6) 0.1444(4)
O3 O 1.0138(4) 0.2380(4) 0.0758(3)
O4 O 0.8711(5) 0.1613(5) 0.1253(3)
O5 O 0.9759(4) 0.5309(4) 0.4270(3)
O6 O 1.0945(5) 0.6308(5) 0.3689(3)
O7 O 1.2453(5) 0.2522(6) 0.3549(4)
O8 O 1.2062(4) 0.4054(5) 0.4165(3)
P1 P 0.85544(16) 0.08796(17) -0.11485(11)
P2 P 0.40403(16) 0.19131(16) 0.55963(11)
P3 P 0.85099(15) 0.18266(16) 0.38520(10)
P4 P 1.51345(16) 0.28535(17) 0.04092(11)
Ag1 Ag 0.64430(4) 0.39848(4) -0.01521(3)
Ag2 Ag 0.64009(4) -0.13228(4) 0.49577(3)
Ag3 Ag 0.86982(5) 0.37208(4) 0.42407(3)
Ag4 Ag 1.12117(5) 0.39693(4) 0.07799(3)
N5A N 0.6864(5) 0.4790(5) 0.4154(3)
N10A N 0.6129(4) 0.5906(5) -0.0609(3)
O8A O 0.7938(4) -0.0946(5) 0.5835(3)
P1A P 1.14456(16) 0.58796(17) 0.11485(11)
P2A P 0.59597(16) -0.30869(16) 0.44037(11)
P4_2 P 0.51345(16) 0.28535(17) 0.04092(11)
Ag1_2 Ag 1.64430(4) 0.39848(4) -0.01521(3)
Ag1A Ag 1.35570(4) -0.10152(4) 0.01521(3)
Ag2A Ag 0.35991(4) 0.36772(4) 0.50423(3)
Ag2A_2 Ag 1.35991(4) 0.36772(4) 0.50423(3)
Ag3A Ag 0.13018(5) -0.12792(4) 0.57593(3)
Ag4A Ag 0.87883(5) -0.10307(4) -0.07799(3)
loop_
_geom_bond_atom_site_label_1
_geom_bond_atom_site_label_2
_geom_bond_site_symmetry_1
_geom_bond_site_symmetry_2
C1 C2 1_555 1_555
C2 C3 1_555 1_555
C3 H1 1_555 1_555
C4 C3 1_555 1_555
C5 C4 1_555 1_555
C6 C1 1_555 1_555
H2 C6 1_555 1_555
C7 C1 1_555 1_555
C8 C2 1_555 1_555
C9 C5 1_555 1_555
C10 C4 1_555 1_555
C11 H3 1_555 1_555
H4 C11 1_555 1_555
C12 H5 1_555 1_555
H6 C12 1_555 1_555
C13 H7 1_555 1_555
H8 C13 1_555 1_555
C14 H9 1_555 1_555
H10 C14 1_555 1_555
C15 H11 1_555 1_555
H12 C15 1_555 1_555
C16 H13 1_555 1_555
H14 C16 1_555 1_555
C17 H15 1_555 1_555
H16 C17 1_555 1_555
C18 H17 1_555 1_555
H18 C18 1_555 1_555
C19 H19 1_555 1_555
H20 C19 1_555 1_555
C20 H21 1_555 1_555
H22 C20 1_555 1_555
C21 H23 1_555 1_555
H24 C21 1_555 1_555
C22 H25 1_555 1_555
H26 C22 1_555 1_555
C23 H27 1_555 1_555
H28 C23 1_555 1_555
C24 H29 1_555 1_555
H30 C24 1_555 1_555
C25 H31 1_555 1_555
H32 C25 1_555 1_555
C26 H33 1_555 1_555
H34 C26 1_555 1_555
C27 H35 1_555 1_555
H36 C27 1_555 1_555
C28 H37 1_555 1_555
H38 C28 1_555 1_555
C29 H39 1_555 1_555
H40 C29 1_555 1_555
C30 H41 1_555 1_555
H42 C30 1_555 1_555
C31 H43 1_555 1_555
H44 C31 1_555 1_555
C32 H45 1_555 1_555
H46 C32 1_555 1_555
C33 H47 1_555 1_555
H48 C33 1_555 1_555
C34 H49 1_555 1_555
H50 C34 1_555 1_555
N1 C11 1_555 1_555
N2 C12 1_555 1_555
N3 C13 1_555 1_555
N4 C17 1_555 1_555
N5 C17 1_555 1_555
N6 C19 1_555 1_555
N7 C23 1_555 1_555
N8 C24 1_555 1_555
N9 C25 1_555 1_555
N10 C29 1_555 1_555
N11 C29 1_555 1_555
N12 C31 1_555 1_555
O1 C7 1_555 1_555
O2 C7 1_555 1_555
O3 C8 1_555 1_555
O4 C8 1_555 1_555
O5 C9 1_555 1_555
O6 C9 1_555 1_555
O7 C10 1_555 1_555
O8 C10 1_555 1_555
P1 C11 1_555 1_555
P2 C18 1_555 1_555
P3 C23 1_555 1_555
P4 C30 1_555 1_555
Ag1 N1 1_555 1_555
Ag2 N4 1_555 1_555
Ag3 O5 1_555 1_555
Ag4 N11 1_555 1_555
N5A Ag3 1_555 1_555
N10A Ag1 1_555 1_555
O8A Ag2 1_555 1_555
P1A Ag4 1_555 1_555
P2A Ag2 1_555 1_555
P4_2 Ag1 1_555 1_555
Ag1_2 P4 1_555 1_555
Ag1A N10 1_555 1_555
Ag2A P2 1_555 1_555
Ag2A_2 O8 1_555 1_555
Ag3A N5 1_555 1_555
Ag4A P1 1_555 1_555
C5 C6 1_555 1_555
C12 P1 1_555 1_555
C13 P1 1_555 1_555
C14 N1 1_555 1_555
C14 N3 1_555 1_555
C15 N1 1_555 1_555
C15 N2 1_555 1_555
C16 N2 1_555 1_555
C16 N3 1_555 1_555
C18 N5 1_555 1_555
C19 N5 1_555 1_555
C20 N4 1_555 1_555
C20 N6 1_555 1_555
C21 N4 1_555 1_555
C21 P2 1_555 1_555
C22 N6 1_555 1_555
C22 P2 1_555 1_555
C24 P3 1_555 1_555
C25 P3 1_555 1_555
C26 N8 1_555 1_555
C26 N9 1_555 1_555
C27 N7 1_555 1_555
C27 N9 1_555 1_555
C28 N7 1_555 1_555
C28 N8 1_555 1_555
C30 N11 1_555 1_555
C31 N11 1_555 1_555
C32 N10 1_555 1_555
C32 N12 1_555 1_555
C33 N10 1_555 1_555
C33 P4 1_555 1_555
C34 N12 1_555 1_555
C34 P4 1_555 1_555
N7 Ag2 1_555 1_555
O1 Ag1 1_555 1_555
O3 Ag4 1_555 1_555
P3 Ag3 1_555 1_555

#END
