
#######################################################################
#
#                 Cambridge Crystallographic Data Centre
#                                CCDC 
#
#######################################################################
#
# If this CIF has been generated from an entry in the Cambridge 
# Structural Database, then it will include bibliographic, chemical, 
# crystal, experimental, refinement or atomic coordinate data resulting 
# from the CCDC's data processing and validation procedures.
#
#######################################################################

data_LEZLEJ
_symmetry_cell_setting           monoclinic
_symmetry_space_group_name_H-M   'P 21/n'
_symmetry_Int_Tables_number      14
_space_group_name_Hall           '-P 2yn'
loop_
_symmetry_equiv_pos_site_id
_symmetry_equiv_pos_as_xyz
1 x,y,z
2 1/2-x,1/2+y,1/2-z
3 -x,-y,-z
4 1/2+x,1/2-y,1/2+z
_cell_length_a                   6.4294(8)
_cell_length_b                   20.626(3)
_cell_length_c                   11.6196(11)
_cell_angle_alpha                90
_cell_angle_beta                 90.708(4)
_cell_angle_gamma                90
_cell_volume                     1540.79
loop_
_atom_site_label
_atom_site_type_symbol
_atom_site_fract_x
_atom_site_fract_y
_atom_site_fract_z
C1 C 1.0911(9) 0.0960(3) 0.3287(5)
C2 C 1.2124(9) 0.0668(3) 0.2332(4)
C3 C 1.1283(9) 0.0639(3) 0.1224(4)
H1 H 0.9923 0.0804 0.1083
C4 C 1.2384(9) 0.0377(3) 0.0327(4)
H2 H 1.1757 0.0357 -0.0417
C5 C 1.4390(9) 0.0141(3) 0.0485(4)
C6 C 1.5227(9) 0.0173(3) 0.1612(4)
H3 H 1.6598 0.0020 0.1758
C7 C 1.4087(9) 0.0423(3) 0.2499(4)
H4 H 1.4677 0.0427 0.3252
C8 C 0.6135(8) 0.2519(3) 0.2339(4)
H5 H 0.7508 0.2679 0.2087
H6 H 0.6012 0.2059 0.2102
C9 C 0.4362(9) 0.3763(3) 0.2425(4)
H7 H 0.3187 0.4056 0.2231
H8 H 0.5665 0.3981 0.2194
C10 C 0.1849(8) 0.2673(3) 0.2412(4)
H9 H 0.1578 0.2222 0.2157
H10 H 0.0599 0.2934 0.2221
C11 C 0.6170(8) 0.3237(3) 0.4007(4)
H11 H 0.6308 0.3240 0.4856
H12 H 0.7454 0.3430 0.3693
C12 C 0.4017(9) 0.2296(3) 0.4020(4)
H13 H 0.3854 0.1850 0.3717
H14 H 0.4071 0.2267 0.4870
C13 C 0.2491(9) 0.3352(3) 0.4082(4)
H15 H 0.1302 0.3620 0.3815
H16 H 0.2501 0.3356 0.4934
N1 N 0.6029(7) 0.2560(2) 0.3616(3)
N2 N 0.4416(7) 0.3647(2) 0.3679(3)
N3 N 0.2167(7) 0.2675(2) 0.3681(3)
O1 O 0.9532(6) 0.13731(19) 0.3024(3)
O2 O 1.1335(6) 0.07935(19) 0.4309(3)
P1 P 0.4065(2) 0.29946(8) 0.16115(11)
Ag1 Ag 0.89390(7) 0.20298(2) 0.45795(3)
C1B C 1.9089(9) -0.0960(3) -0.3287(5)
C2B C 1.7876(9) -0.0668(3) -0.2332(4)
C3B C 1.8717(9) -0.0639(3) -0.1224(4)
H1B H 2.0077 -0.0804 -0.1083
C4B C 1.7616(9) -0.0377(3) -0.0327(4)
H2B H 1.8243 -0.0357 0.0417
C5B C 1.5610(9) -0.0141(3) -0.0485(4)
C6B C 1.4773(9) -0.0173(3) -0.1612(4)
H3B H 1.3402 -0.0020 -0.1758
C7B C 1.5913(9) -0.0423(3) -0.2499(4)
H4B H 1.5323 -0.0427 -0.3252
O1B O 2.0468(6) -0.13731(19) -0.3024(3)
O2B O 1.8665(6) -0.07935(19) -0.4309(3)
C8B C 2.3865(8) -0.2519(3) -0.2339(4)
H5B H 2.2492 -0.2679 -0.2087
H6B H 2.3988 -0.2059 -0.2102
C9B C 2.5638(9) -0.3763(3) -0.2425(4)
H7B H 2.6813 -0.4056 -0.2231
H8B H 2.4335 -0.3981 -0.2194
C10B C 2.8151(8) -0.2673(3) -0.2412(4)
H9B H 2.8422 -0.2222 -0.2157
H10B H 2.9401 -0.2934 -0.2221
C11B C 2.3830(8) -0.3237(3) -0.4007(4)
H11B H 2.3692 -0.3240 -0.4856
H12B H 2.2546 -0.3430 -0.3693
C12B C 2.5983(9) -0.2296(3) -0.4020(4)
H13B H 2.6146 -0.1850 -0.3717
H14B H 2.5929 -0.2267 -0.4870
C13B C 2.7509(9) -0.3352(3) -0.4082(4)
H15B H 2.8698 -0.3620 -0.3815
H16B H 2.7499 -0.3356 -0.4934
N1B N 2.3971(7) -0.2560(2) -0.3616(3)
N2B N 2.5584(7) -0.3647(2) -0.3679(3)
N3B N 2.7833(7) -0.2675(2) -0.3681(3)
P1B P 2.5935(2) -0.29946(8) -0.16115(11)
Ag1B Ag 2.10610(7) -0.20298(2) -0.45795(3)
N3_2 N 1.2167(7) 0.2675(2) 0.3681(3)
N3B_2 N 1.7833(7) -0.2675(2) -0.3681(3)
P1A P 2.0935(2) -0.20054(8) -0.66115(11)
P1C P 0.9065(2) 0.20054(8) 0.66115(11)
Ag1_2 Ag -0.10610(7) 0.20298(2) 0.45795(3)
Ag1A Ag 2.60610(7) -0.29702(2) 0.04205(3)
Ag1B_2 Ag 3.10610(7) -0.20298(2) -0.45795(3)
Ag1C Ag 0.39390(7) 0.29702(2) -0.04205(3)
O3 O 0.7267(6) 0.04613(19) 0.5158(3)
H17 H 0.8031 0.0656 0.4818
H18 H 0.7714 0.0080 0.5177
O4 O 1.4073(6) 0.11700(19) 0.6128(3)
H19 H 1.2977 0.1228 0.5584
H20 H 1.5276 0.0984 0.5813
loop_
_geom_bond_atom_site_label_1
_geom_bond_atom_site_label_2
_geom_bond_site_symmetry_1
_geom_bond_site_symmetry_2
C1 C2 1_555 1_555
C2 C3 1_555 1_555
C3 H1 1_555 1_555
C4 C3 1_555 1_555
H2 C4 1_555 1_555
C5 C4 1_555 1_555
C6 C5 1_555 1_555
H3 C6 1_555 1_555
C7 C2 1_555 1_555
H4 C7 1_555 1_555
C8 H5 1_555 1_555
H6 C8 1_555 1_555
C9 H7 1_555 1_555
H8 C9 1_555 1_555
C10 H9 1_555 1_555
H10 C10 1_555 1_555
C11 H11 1_555 1_555
H12 C11 1_555 1_555
C12 H13 1_555 1_555
H14 C12 1_555 1_555
C13 H15 1_555 1_555
H16 C13 1_555 1_555
N1 C8 1_555 1_555
N2 C9 1_555 1_555
N3 C10 1_555 1_555
O1 C1 1_555 1_555
O2 C1 1_555 1_555
P1 C8 1_555 1_555
Ag1 N1 1_555 1_555
O3 H17 1_555 1_555
H18 O3 1_555 1_555
O4 H19 1_555 1_555
H20 O4 1_555 1_555
C1B C2B 1_555 1_555
C2B C3B 1_555 1_555
C3B H1B 1_555 1_555
C4B C3B 1_555 1_555
H2B C4B 1_555 1_555
C5B C5 1_555 1_555
C6B C5B 1_555 1_555
H3B C6B 1_555 1_555
C7B C2B 1_555 1_555
H4B C7B 1_555 1_555
O1B C1B 1_555 1_555
O2B C1B 1_555 1_555
C8B H5B 1_555 1_555
H6B C8B 1_555 1_555
C9B H7B 1_555 1_555
H8B C9B 1_555 1_555
C10B H9B 1_555 1_555
H10B C10B 1_555 1_555
C11B H11B 1_555 1_555
H12B C11B 1_555 1_555
C12B H13B 1_555 1_555
H14B C12B 1_555 1_555
C13B H15B 1_555 1_555
H16B C13B 1_555 1_555
N1B C8B 1_555 1_555
N2B C9B 1_555 1_555
N3B C10B 1_555 1_555
P1B C8B 1_555 1_555
Ag1B O1B 1_555 1_555
N3_2 Ag1 1_555 1_555
N3B_2 Ag1B 1_555 1_555
P1A Ag1B 1_555 1_555
P1C Ag1 1_555 1_555
Ag1_2 N3 1_555 1_555
Ag1A P1B 1_555 1_555
Ag1B_2 N3B 1_555 1_555
Ag1C P1 1_555 1_555
C6 C7 1_555 1_555
C9 P1 1_555 1_555
C10 P1 1_555 1_555
C11 N1 1_555 1_555
C11 N2 1_555 1_555
C12 N1 1_555 1_555
C12 N3 1_555 1_555
C13 N2 1_555 1_555
C13 N3 1_555 1_555
O1 Ag1 1_555 1_555
C4B C5B 1_555 1_555
C6B C7B 1_555 1_555
C9B P1B 1_555 1_555
C10B P1B 1_555 1_555
C11B N1B 1_555 1_555
C11B N2B 1_555 1_555
C12B N1B 1_555 1_555
C12B N3B 1_555 1_555
C13B N2B 1_555 1_555
C13B N3B 1_555 1_555
N1B Ag1B 1_555 1_555

#END
