
#######################################################################
#
#                 Cambridge Crystallographic Data Centre
#                                CCDC 
#
#######################################################################
#
# If this CIF has been generated from an entry in the Cambridge 
# Structural Database, then it will include bibliographic, chemical, 
# crystal, experimental, refinement or atomic coordinate data resulting 
# from the CCDC's data processing and validation procedures.
#
#######################################################################

data_LEZMEJ
_symmetry_cell_setting           orthorhombic
_symmetry_space_group_name_H-M   'P c c n'
_symmetry_Int_Tables_number      56
_space_group_name_Hall           '-P 2ab 2ac'
loop_
_symmetry_equiv_pos_site_id
_symmetry_equiv_pos_as_xyz
1 x,y,z
2 1/2-x,1/2-y,z
3 -x,1/2+y,1/2-z
4 1/2+x,-y,1/2-z
5 -x,-y,-z
6 1/2+x,1/2+y,-z
7 x,1/2-y,1/2+z
8 1/2-x,y,1/2+z
_cell_length_a                   9.3823(12)
_cell_length_b                   14.4105(18)
_cell_length_c                   8.7252(11)
_cell_angle_alpha                90
_cell_angle_beta                 90
_cell_angle_gamma                90
_cell_volume                     1179.68
loop_
_atom_site_label
_atom_site_type_symbol
_atom_site_fract_x
_atom_site_fract_y
_atom_site_fract_z
Mg1 Mg 0.5000 0.5000 0.5000
C1 C -0.0011(3) 0.78947(17) 0.3881(3)
O1 O 0.2859(2) 0.52779(13) 0.5230(3)
C2 C 0.1926(3) 0.59080(18) 0.5189(3)
O2 O -0.05371(19) 0.86834(12) 0.4146(2)
O3 O 0.0746(2) 0.58556(15) 0.5831(3)
O4 O 0.4640(3) 0.45135(14) 0.2809(3)
O5 O -0.0607(2) 0.73016(13) 0.3041(3)
C3 C 0.2238(3) 0.67747(17) 0.4277(3)
C4 C 0.1387(3) 0.76632(17) 0.4640(3)
H1 H 0.116(3) 0.769(2) 0.571(3)
H2 H 0.219(3) 0.658(2) 0.325(3)
H3 H 0.459(4) 0.490(3) 0.216(4)
H4 H 0.469(4) 0.398(2) 0.251(5)
Mg1E Mg 0.0000 1.0000 0.5000
C1A C 0.5011(3) 0.71053(17) 0.3881(3)
O1A O 0.2141(2) 0.97221(13) 0.5230(3)
O1D O 0.7141(2) 0.47221(13) 0.4770(3)
C2A C 0.3074(3) 0.90920(18) 0.5189(3)
O2A O 0.55371(19) 0.63166(12) 0.4146(2)
O2E O 0.44629(19) 0.36834(12) 0.5854(2)
O3A O 0.4254(2) 0.91444(15) 0.5831(3)
O4D O 0.5360(3) 0.54865(14) 0.7191(3)
O5A O 0.5607(2) 0.76984(13) 0.3041(3)
C3A C 0.2762(3) 0.82253(17) 0.4277(3)
C4A C 0.3613(3) 0.73368(17) 0.4640(3)
H1A H 0.384(3) 0.731(2) 0.571(3)
H2A H 0.281(3) 0.842(2) 0.325(3)
H3D H 0.541(4) 0.510(3) 0.784(4)
H4D H 0.531(4) 0.602(2) 0.749(5)
K1 K 0.80294(7) 0.62542(5) 0.63386(10)
loop_
_geom_bond_atom_site_label_1
_geom_bond_atom_site_label_2
_geom_bond_site_symmetry_1
_geom_bond_site_symmetry_2
Mg1 O1 1_555 1_555
C1 O2 1_555 1_555
O1 C2 1_555 1_555
C2 O3 1_555 1_555
O2 Mg1E 1_555 1_555
O4 Mg1 1_555 1_555
O5 C1 1_555 1_555
C3 C2 1_555 1_555
C4 C1 1_555 1_555
H1 C4 1_555 1_555
H2 C3 1_555 1_555
H3 O4 1_555 1_555
H4 O4 1_555 1_555
Mg1E O1A 1_555 1_555
C1A O2A 1_555 1_555
O1A C2A 1_555 1_555
O1D Mg1 1_555 1_555
C2A O3A 1_555 1_555
O2A Mg1 1_555 1_555
O2E Mg1 1_555 1_555
O4D Mg1 1_555 1_555
O5A C1A 1_555 1_555
C3A C4 1_555 1_555
C4A C3 1_555 1_555
H1A C4A 1_555 1_555
H2A C3A 1_555 1_555
H3D O4D 1_555 1_555
H4D O4D 1_555 1_555
C3 C4 1_555 1_555
C1A C4A 1_555 1_555
C2A C3A 1_555 1_555
C3A C4A 1_555 1_555

#END
