
#######################################################################
#
#                 Cambridge Crystallographic Data Centre
#                                CCDC 
#
#######################################################################
#
# If this CIF has been generated from an entry in the Cambridge 
# Structural Database, then it will include bibliographic, chemical, 
# crystal, experimental, refinement or atomic coordinate data resulting 
# from the CCDC's data processing and validation procedures.
#
#######################################################################

data_LEZMAG
_symmetry_cell_setting           rhombohedral
_symmetry_space_group_name_H-M   'R -3 c'
_symmetry_Int_Tables_number      167
_space_group_name_Hall           '-R 3 2"c'
loop_
_symmetry_equiv_pos_site_id
_symmetry_equiv_pos_as_xyz
1 x,y,z
2 -y,x-y,z
3 -x+y,-x,z
4 y,x,1/2-z
5 x-y,-y,1/2-z
6 -x,-x+y,1/2-z
7 2/3+x,1/3+y,1/3+z
8 2/3-y,1/3+x-y,1/3+z
9 2/3-x+y,1/3-x,1/3+z
10 2/3+y,1/3+x,5/6-z
11 2/3+x-y,1/3-y,5/6-z
12 2/3-x,1/3-x+y,5/6-z
13 1/3+x,2/3+y,2/3+z
14 1/3-y,2/3+x-y,2/3+z
15 1/3-x+y,2/3-x,2/3+z
16 1/3+y,2/3+x,1/6-z
17 1/3+x-y,2/3-y,1/6-z
18 1/3-x,2/3-x+y,1/6-z
19 -x,-y,-z
20 y,-x+y,-z
21 x-y,x,-z
22 -y,-x,1/2+z
23 -x+y,y,1/2+z
24 x,x-y,1/2+z
25 1/3-x,2/3-y,2/3-z
26 1/3+y,2/3-x+y,2/3-z
27 1/3+x-y,2/3+x,2/3-z
28 1/3-y,2/3-x,1/6+z
29 1/3-x+y,2/3+y,1/6+z
30 1/3+x,2/3+x-y,1/6+z
31 2/3-x,1/3-y,1/3-z
32 2/3+y,1/3-x+y,1/3-z
33 2/3+x-y,1/3+x,1/3-z
34 2/3-y,1/3-x,5/6+z
35 2/3-x+y,1/3+y,5/6+z
36 2/3+x,1/3+x-y,5/6+z
_cell_length_a                   17.837(5)
_cell_length_b                   17.837(5)
_cell_length_c                   81.03(5)
_cell_angle_alpha                90
_cell_angle_beta                 90
_cell_angle_gamma                120
_cell_volume                     22326.5
loop_
_atom_site_label
_atom_site_type_symbol
_atom_site_fract_x
_atom_site_fract_y
_atom_site_fract_z
Zn1 Zn 0.34116(7) 0.56540(8) 0.097460(15)
Zn2 Zn 0.3333 0.6667 0.12809(3)
O1 O 0.3333 0.6667 0.10440(12)
O2 O 0.3529(5) 0.5085(5) 0.11734(10)
O3 O 0.2883(5) 0.5492(5) 0.13619(11)
O4 O 0.5692(4) 0.4640(4) 0.13671(9)
O5 O 0.4472(4) 0.6076(5) 0.08501(10)
O6 O 0.5064(5) 0.7511(5) 0.08307(9)
O7 O 0.5338(6) 0.4316(6) 0.06900(15)
N1 N 0.4757(5) 0.3594(6) 0.15419(11)
H1 H 0.4670 0.3140 0.1600
N2 N 0.6596(6) 0.5376(5) 0.05875(11)
H2 H 0.7086 0.5473 0.0543
C1 C 0.3243(6) 0.5066(6) 0.13165(15)
C2 C 0.3342(7) 0.4520(6) 0.14443(14)
C3 C 0.3962(6) 0.4278(6) 0.14224(13)
H3 H 0.4287 0.4414 0.1323
C4 C 0.4100(6) 0.3833(7) 0.15478(14)
C5 C 0.3588(8) 0.3585(8) 0.16866(16)
H4 H 0.3678 0.3271 0.1772
C6 C 0.2937(8) 0.3793(9) 0.17018(18)
H5 H 0.2563 0.3596 0.1795
C7 C 0.2830(8) 0.4280(9) 0.15842(16)
H6 H 0.2409 0.4452 0.1598
C8 C 0.5504(6) 0.4017(6) 0.14539(11)
C9 C 0.6083(6) 0.3636(6) 0.14679(12)
C10 C 0.5781(6) 0.2763(7) 0.14671(12)
H7 H 0.5176 0.2368 0.1466
C11 C 0.5046(6) 0.6814(7) 0.07999(12)
C12 C 0.5757(7) 0.6828(7) 0.06992(12)
C13 C 0.5816(6) 0.6094(7) 0.06878(13)
H8 H 0.5400 0.5580 0.0742
C14 C 0.6475(6) 0.6093(6) 0.05987(12)
C15 C 0.7091(7) 0.6859(7) 0.05197(13)
H9 H 0.7550 0.6868 0.0458
C16 C 0.7026(7) 0.7590(7) 0.05317(14)
H10 H 0.7439 0.8107 0.0478
C17 C 0.6364(7) 0.7582(7) 0.06220(13)
H11 H 0.6325 0.8092 0.0631
C18 C 0.6058(7) 0.4562(7) 0.06365(14)
C19 C 0.6393(6) 0.3946(7) 0.06246(12)
C20 C 0.7270(7) 0.4205(7) 0.06261(12)
H12 H 0.7685 0.4806 0.0628
O2A O 0.4915(5) -0.1556(7) 0.11734(10)
O3A O 0.4508(5) -0.2609(7) 0.13619(11)
O4A O 0.5360(4) 0.1052(6) 0.13671(9)
N1A N 0.6406(6) 0.1163(8) 0.15419(11)
H1A H 0.6860 0.1530 0.1600
C1A C 0.4934(6) -0.1823(8) 0.13165(15)
C2A C 0.5480(6) -0.1178(9) 0.14443(14)
C3A C 0.5722(6) -0.0316(8) 0.14224(13)
H3A H 0.5586 -0.0127 0.1323
C4A C 0.6167(7) 0.0267(9) 0.15478(14)
C5A C 0.6415(8) 0.0003(11) 0.16866(16)
H4A H 0.6729 0.0407 0.1772
C6A C 0.6207(9) -0.0856(12) 0.17018(18)
H5A H 0.6404 -0.1033 0.1795
C7A C 0.5720(9) -0.1450(12) 0.15842(16)
H6A H 0.5548 -0.2043 0.1598
C8A C 0.5983(6) 0.1487(8) 0.14539(11)
C9A C 0.6364(6) 0.2447(8) 0.14679(12)
C10A C 0.7237(7) 0.3018(9) 0.14671(12)
H7A H 0.7632 0.2808 0.1466
O2B O 1.1556(7) 0.6471(5) 0.11734(10)
O3B O 1.2609(7) 0.7117(5) 0.13619(11)
O4B O 0.8948(6) 0.4308(4) 0.13671(9)
N1B N 0.8837(8) 0.5243(5) 0.15419(11)
H1B H 0.8470 0.5330 0.1600
C1B C 1.1823(8) 0.6757(6) 0.13165(15)
C2B C 1.1178(9) 0.6658(7) 0.14443(14)
C3B C 1.0316(8) 0.6038(6) 0.14224(13)
H3B H 1.0127 0.5713 0.1323
C4B C 0.9733(9) 0.5900(6) 0.15478(14)
C5B C 0.9997(11) 0.6412(8) 0.16866(16)
H4B H 0.9593 0.6322 0.1772
C6B C 1.0856(12) 0.7063(8) 0.17018(18)
H5B H 1.1033 0.7437 0.1795
C7B C 1.1450(12) 0.7170(8) 0.15842(16)
H6B H 1.2043 0.7591 0.1598
C8B C 0.8513(8) 0.4496(6) 0.14539(11)
C9B C 0.7553(8) 0.3917(6) 0.14679(12)
C10B C 0.6982(9) 0.4219(6) 0.14671(12)
H7B H 0.7192 0.4824 0.1466
O5A O 0.3924(5) -0.1604(6) 0.08501(10)
O6A O 0.2489(5) -0.2447(7) 0.08307(9)
O7A O 0.5684(6) 0.1022(8) 0.06900(15)
N2A N 0.4624(5) 0.1220(8) 0.05875(11)
H2A H 0.4527 0.1613 0.0543
C11A C 0.3186(7) -0.1768(9) 0.07999(12)
C12A C 0.3172(7) -0.1071(10) 0.06992(12)
C13A C 0.3906(7) -0.0278(9) 0.06878(13)
H8A H 0.4420 -0.0180 0.0742
C14A C 0.3907(6) 0.0382(8) 0.05987(12)
C15A C 0.3141(7) 0.0232(10) 0.05197(13)
H9A H 0.3132 0.0682 0.0458
C16A C 0.2410(7) -0.0564(10) 0.05317(14)
H10A H 0.1893 -0.0668 0.0478
C17A C 0.2418(7) -0.1218(10) 0.06220(13)
H11A H 0.1908 -0.1767 0.0631
C18A C 0.5438(7) 0.1496(10) 0.06365(14)
C19A C 0.6054(7) 0.2447(9) 0.06246(12)
C20A C 0.5795(7) 0.3065(10) 0.06261(12)
H12A H 0.5194 0.2879 0.0628
O5B O 1.1604(6) 0.5528(4) 0.08501(10)
O6B O 1.2447(7) 0.4936(5) 0.08307(9)
O7B O 0.8978(8) 0.4662(6) 0.06900(15)
N2B N 0.8780(8) 0.3404(6) 0.05875(11)
H2B H 0.8387 0.2914 0.0543
C11B C 1.1768(9) 0.4954(6) 0.07999(12)
C12B C 1.1071(10) 0.4243(7) 0.06992(12)
C13B C 1.0278(9) 0.4184(6) 0.06878(13)
H8B H 1.0180 0.4600 0.0742
C14B C 0.9618(8) 0.3525(6) 0.05987(12)
C15B C 0.9768(10) 0.2909(7) 0.05197(13)
H9B H 0.9318 0.2450 0.0458
C16B C 1.0564(10) 0.2974(7) 0.05317(14)
H10B H 1.0668 0.2561 0.0478
C17B C 1.1218(10) 0.3636(7) 0.06220(13)
H11B H 1.1767 0.3675 0.0631
C18B C 0.8504(10) 0.3942(7) 0.06365(14)
C19B C 0.7553(9) 0.3607(6) 0.06246(12)
C20B C 0.6935(10) 0.2730(7) 0.06261(12)
H12B H 0.7121 0.2315 0.0628
Zn1B Zn 0.22424(11) -0.34116(7) 0.097460(15)
Zn1A Zn 0.43460(8) 0.77576(11) 0.097460(15)
Zn1_2 Zn 1.34116(7) 0.56540(8) 0.097460(15)
Zn1A_2 Zn 0.43460(8) -0.22424(11) 0.097460(15)
Zn1B_2 Zn 0.22424(11) 0.65884(7) 0.097460(15)
Zn1B_3 Zn 1.22424(11) 0.65884(7) 0.097460(15)
Zn2_2 Zn 0.3333 -0.3333 0.12809(3)
Zn2_3 Zn 1.3333 0.6667 0.12809(3)
O1_2 O 0.3333 -0.3333 0.10440(12)
O2A_2 O 0.4915(5) 0.8444(7) 0.11734(10)
O2B_2 O 0.1556(7) -0.3529(5) 0.11734(10)
O3A_2 O 0.4508(5) 0.7391(7) 0.13619(11)
O3B_2 O 0.2609(7) 0.7117(5) 0.13619(11)
O5A_2 O 0.3924(5) 0.8396(6) 0.08501(10)
O5B_2 O 0.1604(6) -0.4472(4) 0.08501(10)
O6B_2 O 0.2447(7) 0.4936(5) 0.08307(9)
O8 O 0.4629(7) 0.2346(8) 0.17627(13)
N3 N 0.4720(11) 0.1685(10) 0.19865(17)
C21 C 0.4331(10) 0.1962(10) 0.18889(19)
C22 C 0.3431(10) 0.1744(10) 0.19442(19)
H13 H 0.3478 0.2145 0.2032
H14 H 0.3121 0.1150 0.1987
H15 H 0.3114 0.1796 0.1850
C23 C 0.4354(13) 0.1202(13) 0.21410(18)
H16 H 0.3921 0.1336 0.2184
H17 H 0.4818 0.1369 0.2222
H18 H 0.4080 0.0579 0.2119
C24 C 0.5572(14) 0.1836(17) 0.1932(3)
H19 H 0.5675 0.2042 0.1818
H20 H 0.5585 0.1294 0.1939
H21 H 0.6024 0.2273 0.2003
loop_
_geom_bond_atom_site_label_1
_geom_bond_atom_site_label_2
_geom_bond_site_symmetry_1
_geom_bond_site_symmetry_2
Zn1 O1 1_555 1_555
Zn2 O1 1_555 1_555
O1 Zn1A 1_555 1_555
O2 Zn1 1_555 1_555
O3 Zn2 1_555 1_555
O4 C8 1_555 1_555
O5 Zn1 1_555 1_555
O6 C11 1_555 1_555
O7 C18 1_555 1_555
N1 H1 1_555 1_555
N2 H2 1_555 1_555
C1 O2 1_555 1_555
C2 C1 1_555 1_555
C3 C2 1_555 1_555
H3 C3 1_555 1_555
C4 N1 1_555 1_555
C5 C4 1_555 1_555
H4 C5 1_555 1_555
C6 C5 1_555 1_555
H5 C6 1_555 1_555
C7 C2 1_555 1_555
H6 C7 1_555 1_555
C8 N1 1_555 1_555
C9 C8 1_555 1_555
C10 C9 1_555 1_555
H7 C10 1_555 1_555
C11 O5 1_555 1_555
C12 C11 1_555 1_555
C13 C12 1_555 1_555
H8 C13 1_555 1_555
C14 N2 1_555 1_555
C15 C14 1_555 1_555
H9 C15 1_555 1_555
C16 C15 1_555 1_555
H10 C16 1_555 1_555
C17 C12 1_555 1_555
H11 C17 1_555 1_555
C18 N2 1_555 1_555
C19 C18 1_555 1_555
C20 C19 1_555 1_555
H12 C20 1_555 1_555
O8 C21 1_555 1_555
N3 C21 1_555 1_555
C21 C22 1_555 1_555
C22 H13 1_555 1_555
H14 C22 1_555 1_555
H15 C22 1_555 1_555
C23 N3 1_555 1_555
H16 C23 1_555 1_555
H17 C23 1_555 1_555
H18 C23 1_555 1_555
C24 N3 1_555 1_555
H19 C24 1_555 1_555
H20 C24 1_555 1_555
H21 C24 1_555 1_555
O2A C1A 1_555 1_555
O3A C1A 1_555 1_555
O4A C8A 1_555 1_555
N1A H1A 1_555 1_555
C1A C2A 1_555 1_555
C2A C3A 1_555 1_555
C3A H3A 1_555 1_555
C4A N1A 1_555 1_555
C5A C4A 1_555 1_555
H4A C5A 1_555 1_555
C6A C5A 1_555 1_555
H5A C6A 1_555 1_555
C7A C2A 1_555 1_555
H6A C7A 1_555 1_555
C8A N1A 1_555 1_555
C9A C10 1_555 1_555
C10A C9A 1_555 1_555
H7A C10A 1_555 1_555
O2B C1B 1_555 1_555
O3B C1B 1_555 1_555
O4B C8B 1_555 1_555
N1B H1B 1_555 1_555
C1B C2B 1_555 1_555
C2B C3B 1_555 1_555
C3B H3B 1_555 1_555
C4B N1B 1_555 1_555
C5B C4B 1_555 1_555
H4B C5B 1_555 1_555
C6B C5B 1_555 1_555
H5B C6B 1_555 1_555
C7B C2B 1_555 1_555
H6B C7B 1_555 1_555
C8B N1B 1_555 1_555
C9B C10A 1_555 1_555
C10B C9 1_555 1_555
H7B C10B 1_555 1_555
O5A C11A 1_555 1_555
O6A C11A 1_555 1_555
O7A C18A 1_555 1_555
N2A H2A 1_555 1_555
C11A C12A 1_555 1_555
C12A C13A 1_555 1_555
C13A H8A 1_555 1_555
C14A N2A 1_555 1_555
C15A C14A 1_555 1_555
H9A C15A 1_555 1_555
C16A C15A 1_555 1_555
H10A C16A 1_555 1_555
C17A C12A 1_555 1_555
H11A C17A 1_555 1_555
C18A N2A 1_555 1_555
C19A C18A 1_555 1_555
C20A C19 1_555 1_555
H12A C20A 1_555 1_555
O5B C11B 1_555 1_555
O6B C11B 1_555 1_555
O7B C18B 1_555 1_555
N2B H2B 1_555 1_555
C11B C12B 1_555 1_555
C12B C13B 1_555 1_555
C13B H8B 1_555 1_555
C14B N2B 1_555 1_555
C15B C14B 1_555 1_555
H9B C15B 1_555 1_555
C16B C15B 1_555 1_555
H10B C16B 1_555 1_555
C17B C12B 1_555 1_555
H11B C17B 1_555 1_555
C18B N2B 1_555 1_555
C19B C20 1_555 1_555
C20B C19A 1_555 1_555
H12B C20B 1_555 1_555
Zn1B O6A 1_555 1_555
Zn1A O6 1_555 1_555
Zn1_2 O6B 1_555 1_555
Zn1A_2 O2A 1_555 1_555
Zn1B_2 O1 1_555 1_555
Zn1B_3 O2B 1_555 1_555
Zn2_2 O3A 1_555 1_555
Zn2_3 O3B 1_555 1_555
O1_2 Zn1B 1_555 1_555
O2A_2 Zn1A 1_555 1_555
O2B_2 Zn1B 1_555 1_555
O3A_2 Zn2 1_555 1_555
O3B_2 Zn2 1_555 1_555
O5A_2 Zn1A 1_555 1_555
O5B_2 Zn1B 1_555 1_555
O6B_2 Zn1 1_555 1_555
O3 C1 1_555 1_555
C3 C4 1_555 1_555
C6 C7 1_555 1_555
C13 C14 1_555 1_555
C16 C17 1_555 1_555
C3A C4A 1_555 1_555
C6A C7A 1_555 1_555
C8A C9A 1_555 1_555
C3B C4B 1_555 1_555
C6B C7B 1_555 1_555
C8B C9B 1_555 1_555
C9B C10B 1_555 1_555
O5A Zn1A_2 1_555 1_555
C13A C14A 1_555 1_555
C16A C17A 1_555 1_555
C19A C20A 1_555 1_555
O5B Zn1B_3 1_555 1_555
C13B C14B 1_555 1_555
C16B C17B 1_555 1_555
C18B C19B 1_555 1_555
C19B C20B 1_555 1_555
Zn1A_2 O1_2 1_555 1_555
Zn2_2 O1_2 1_555 1_555

#END
