
#######################################################################
#
#                 Cambridge Crystallographic Data Centre
#                                CCDC 
#
#######################################################################
#
# If this CIF has been generated from an entry in the Cambridge 
# Structural Database, then it will include bibliographic, chemical, 
# crystal, experimental, refinement or atomic coordinate data resulting 
# from the CCDC's data processing and validation procedures.
#
#######################################################################

data_LEZNOV
_symmetry_cell_setting           rhombohedral
_symmetry_space_group_name_H-M   'R 3 2'
_symmetry_Int_Tables_number      155
_space_group_name_Hall           'R 3 2"'
loop_
_symmetry_equiv_pos_site_id
_symmetry_equiv_pos_as_xyz
1 x,y,z
2 -y,x-y,z
3 -x+y,-x,z
4 y,x,-z
5 x-y,-y,-z
6 -x,-x+y,-z
7 2/3+x,1/3+y,1/3+z
8 2/3-y,1/3+x-y,1/3+z
9 2/3-x+y,1/3-x,1/3+z
10 2/3+y,1/3+x,1/3-z
11 2/3+x-y,1/3-y,1/3-z
12 2/3-x,1/3-x+y,1/3-z
13 1/3+x,2/3+y,2/3+z
14 1/3-y,2/3+x-y,2/3+z
15 1/3-x+y,2/3-x,2/3+z
16 1/3+y,2/3+x,2/3-z
17 1/3+x-y,2/3-y,2/3-z
18 1/3-x,2/3-x+y,2/3-z
_cell_length_a                   12.2284(16)
_cell_length_b                   12.2284(16)
_cell_length_c                   19.605(5)
_cell_angle_alpha                90
_cell_angle_beta                 90
_cell_angle_gamma                120
_cell_volume                     2538.85
loop_
_atom_site_label
_atom_site_type_symbol
_atom_site_fract_x
_atom_site_fract_y
_atom_site_fract_z
C1 C 0.8899(6) 0.7767(4) 0.7797(2)
C2 C 0.9195(5) 0.7194(4) 0.7195(3)
C3 C 0.8323(7) 0.6667 0.6667
H1 H 0.7563 0.6667 0.6667
C4 C 1.0563(6) 0.6667 0.6667
N1 N 1.0287(3) 0.7205(4) 0.7212(2)
O1 O 0.7980(3) 0.7932(4) 0.7748(2)
O2 O 0.9606(4) 0.8017(4) 0.83140(18)
O3 O 1.1593(5) 0.6667 0.6667
O4 O 0.7907(3) 0.8218(3) 0.91434(18)
H2 H 0.8631 0.8358 0.9090
H3 H 0.7951 0.8551 0.9514
Yb1 Yb 0.6667 0.84306(3) 0.8333
C1J C 0.7799(7) 0.5566(4) 0.5536(2)
C2J C 0.8668(6) 0.6139(4) 0.6138(3)
N1J N 0.9749(5) 0.6128(4) 0.6121(2)
O1J O 0.6715(5) 0.5401(4) 0.5585(2)
O2J O 0.8256(6) 0.5316(4) 0.50193(18)
O4Q O 0.5426(3) 0.6978(4) 0.75233(18)
H2Q H 0.4702 0.6394 0.7577
H3Q H 0.5382 0.7267 0.7153
N1B N 0.6918(5) 0.9713(3) 0.7212(2)
N1P N 0.6415(5) 0.9462(4) 0.9455(2)
O1Q O 0.5353(3) 0.6619(5) 0.8919(2)
O2B O 0.8411(6) 1.0394(4) 0.83140(18)
O2P O 0.4922(6) 0.8650(4) 0.83527(18)
Yb1A Yb 1.15694(3) 0.82364(3) 0.8333
Yb1J Yb 0.49031(3) 0.49027(3) 0.5000
Yb1K Yb 1.0000 0.50969(3) 0.5000
O5 O 0.7339(17) 0.5371(14) 0.8956(12)
H4 H 0.7753 0.6140 0.8857
H5 H 0.7364 0.4964 0.8634
O6 O 0.6667 0.3333 0.9832(14)
H6? H 0.6491 0.3845 0.9606
H7? H 0.6061 0.2605 0.9877
loop_
_geom_bond_atom_site_label_1
_geom_bond_atom_site_label_2
_geom_bond_site_symmetry_1
_geom_bond_site_symmetry_2
C1 C2 1_555 1_555
C2 C3 1_555 1_555
C3 H1 1_555 1_555
C4 N1 1_555 1_555
N1 C2 1_555 1_555
O1 C1 1_555 1_555
O2 C1 1_555 1_555
O3 C4 1_555 1_555
O4 H2 1_555 1_555
H3 O4 1_555 1_555
Yb1 O1 1_555 1_555
O5 H4 1_555 1_555
H5 O5 1_555 1_555
C1J C2J 1_555 1_555
C2J C3 1_555 1_555
N1J C4 1_555 1_555
O1J C1J 1_555 1_555
O2J C1J 1_555 1_555
O4Q Yb1 1_555 1_555
H2Q O4Q 1_555 1_555
H3Q O4Q 1_555 1_555
N1B Yb1 1_555 1_555
N1P Yb1 1_555 1_555
O1Q Yb1 1_555 1_555
O2B Yb1 1_555 1_555
O2P Yb1 1_555 1_555
Yb1A N1 1_555 1_555
Yb1J O1J 1_555 1_555
Yb1K N1J 1_555 1_555
O2 Yb1A 1_555 1_555
O4 Yb1 1_555 1_555
C2J N1J 1_555 1_555
O2J Yb1K 1_555 1_555

#END
