
#######################################################################
#
#                 Cambridge Crystallographic Data Centre
#                                CCDC 
#
#######################################################################
#
# If this CIF has been generated from an entry in the Cambridge 
# Structural Database, then it will include bibliographic, chemical, 
# crystal, experimental, refinement or atomic coordinate data resulting 
# from the CCDC's data processing and validation procedures.
#
#######################################################################

data_LEZPAJ
_symmetry_cell_setting           rhombohedral
_symmetry_space_group_name_H-M   'R 3 2'
_symmetry_Int_Tables_number      155
_space_group_name_Hall           'R 3 2"'
loop_
_symmetry_equiv_pos_site_id
_symmetry_equiv_pos_as_xyz
1 x,y,z
2 -y,x-y,z
3 -x+y,-x,z
4 y,x,-z
5 x-y,-y,-z
6 -x,-x+y,-z
7 2/3+x,1/3+y,1/3+z
8 2/3-y,1/3+x-y,1/3+z
9 2/3-x+y,1/3-x,1/3+z
10 2/3+y,1/3+x,1/3-z
11 2/3+x-y,1/3-y,1/3-z
12 2/3-x,1/3-x+y,1/3-z
13 1/3+x,2/3+y,2/3+z
14 1/3-y,2/3+x-y,2/3+z
15 1/3-x+y,2/3-x,2/3+z
16 1/3+y,2/3+x,2/3-z
17 1/3+x-y,2/3-y,2/3-z
18 1/3-x,2/3-x+y,2/3-z
_cell_length_a                   12.359(2)
_cell_length_b                   12.359(2)
_cell_length_c                   19.602(3)
_cell_angle_alpha                90
_cell_angle_beta                 90
_cell_angle_gamma                120
_cell_volume                     2592.97
loop_
_atom_site_label
_atom_site_type_symbol
_atom_site_fract_x
_atom_site_fract_y
_atom_site_fract_z
C1 C 0.8901(3) 0.7762(3) 0.77939(14)
C2 C 0.9186(3) 0.7192(3) 0.7193(2)
C3 C 0.8331(4) 0.6667 0.6667
H1 H 0.7578 0.6667 0.6667
C4 C 1.0546(4) 0.6667 0.6667
Dy1 Dy 0.6667 0.843485(18) 0.8333
N1 N 1.0268(2) 0.7199(2) 0.72082(13)
O1 O 0.7973(2) 0.7905(3) 0.77438(13)
O2 O 0.9594(2) 0.8026(2) 0.83075(12)
O3 O 1.1556(3) 0.6667 0.6667
O4 O 0.79311(19) 0.8237(2) 0.91582(12)
H2 H 0.8655 0.8377 0.9105
H3 H 0.7975 0.8570 0.9529
C1J C 0.7806(4) 0.5571(3) 0.55394(14)
C2J C 0.8661(4) 0.6141(3) 0.6140(2)
N1J N 0.9736(3) 0.6134(2) 0.61251(13)
O1J O 0.6735(4) 0.5428(3) 0.55895(13)
O2J O 0.8235(3) 0.5307(2) 0.50258(12)
O4Q O 0.54022(19) 0.69726(28) 0.75085(12)
H2Q H 0.4678 0.6389 0.7562
H3Q H 0.5358 0.7262 0.7138
Dy1A Dy 1.156515(18) 0.823215(18) 0.8333
Dy1J Dy 0.489882(18) 0.489848(18) 0.5000
Dy1K Dy 1.0000 0.510118(18) 0.5000
N1B N 0.6931(3) 0.9732(2) 0.72082(13)
N1P N 0.6402(3) 0.9468(2) 0.94585(13)
O1Q O 0.5360(2) 0.6599(4) 0.89229(13)
O2B O 0.8432(3) 1.0406(2) 0.83075(12)
O2P O 0.4901(3) 0.8641(2) 0.83592(12)
O5 O 0.7401(11) 0.5412(8) 0.8978(7)
H4 H 0.7815 0.6181 0.8879
H5 H 0.7426 0.5005 0.8656
O6 O 0.6667 0.3333 0.9806(8)
H6? H 0.6491 0.3845 0.9606
H7? H 0.6061 0.2605 0.9877
loop_
_geom_bond_atom_site_label_1
_geom_bond_atom_site_label_2
_geom_bond_site_symmetry_1
_geom_bond_site_symmetry_2
C1 C2 1_555 1_555
C2 C3 1_555 1_555
C3 H1 1_555 1_555
C4 N1 1_555 1_555
Dy1 O1 1_555 1_555
N1 C2 1_555 1_555
O1 C1 1_555 1_555
O2 C1 1_555 1_555
O3 C4 1_555 1_555
O4 Dy1 1_555 1_555
H2 O4 1_555 1_555
H3 O4 1_555 1_555
O5 H4 1_555 1_555
H5 O5 1_555 1_555
C1J C2J 1_555 1_555
C2J C3 1_555 1_555
N1J C4 1_555 1_555
O1J C1J 1_555 1_555
O2J C1J 1_555 1_555
O4Q Dy1 1_555 1_555
H2Q O4Q 1_555 1_555
H3Q O4Q 1_555 1_555
Dy1A N1 1_555 1_555
Dy1J O1J 1_555 1_555
Dy1K N1J 1_555 1_555
N1B Dy1 1_555 1_555
N1P Dy1 1_555 1_555
O1Q Dy1 1_555 1_555
O2B Dy1 1_555 1_555
O2P Dy1 1_555 1_555
O2 Dy1A 1_555 1_555
C2J N1J 1_555 1_555
O2J Dy1K 1_555 1_555

#END
