
#######################################################################
#
#                 Cambridge Crystallographic Data Centre
#                                CCDC 
#
#######################################################################
#
# If this CIF has been generated from an entry in the Cambridge 
# Structural Database, then it will include bibliographic, chemical, 
# crystal, experimental, refinement or atomic coordinate data resulting 
# from the CCDC's data processing and validation procedures.
#
#######################################################################

data_LEZQIR
_symmetry_cell_setting           monoclinic
_symmetry_space_group_name_H-M   'C 2/c'
_symmetry_Int_Tables_number      15
_space_group_name_Hall           '-C 2yn'
loop_
_symmetry_equiv_pos_site_id
_symmetry_equiv_pos_as_xyz
1 x,y,z
2 1/2+x,1/2+y,z
3 -x,y,1/2-z
4 1/2-x,1/2+y,1/2-z
5 -x,-y,-z
6 1/2-x,1/2-y,-z
7 x,-y,1/2+z
8 1/2+x,1/2-y,1/2+z
_cell_length_a                   19.887(4)
_cell_length_b                   10.574(4)
_cell_length_c                   11.876(3)
_cell_angle_alpha                90
_cell_angle_beta                 110.79(2)
_cell_angle_gamma                90
_cell_volume                     2334.74
loop_
_atom_site_label
_atom_site_type_symbol
_atom_site_fract_x
_atom_site_fract_y
_atom_site_fract_z
Co1 Co 0.7500 0.2500 0.5000
O1 O 0.76899(11) 0.11476(19) 0.3847(2)
H1 H 0.7620(18) 0.040(4) 0.380(3)
H2 H 0.793(2) 0.145(4) 0.355(4)
N1 N 0.83397(10) 0.17439(19) 0.65412(18)
C1 C 0.84245(12) 0.0499(2) 0.6721(2)
H3 H 0.8093 -0.0038 0.6186
C2 C 0.89766(14) -0.0028(3) 0.7657(3)
H4 H 0.9011 -0.0902 0.7747
C3 C 0.94799(14) 0.0741(3) 0.8460(3)
C4 C 0.93815(15) 0.2040(4) 0.8284(3)
H5 H 0.9700 0.2600 0.8813
C5 C 0.88145(15) 0.2489(3) 0.7328(3)
H6 H 0.8760 0.3360 0.7225
C6 C 1.01031(16) 0.0188(4) 0.9497(3)
H7 H 1.0291 -0.0542 0.9211
H8 H 1.0485 0.0812 0.9771
O2 O 0.67511(8) 0.12507(15) 0.52360(15)
O3 O 0.64694(9) 0.21107(18) 0.67321(17)
C7 C 0.63525(10) 0.1391(2) 0.5839(2)
C8 C 0.56523(10) 0.0643(2) 0.5417(2)
C9 C 0.51631(12) 0.0780(2) 0.5995(2)
H9 H 0.5273 0.1303 0.6665
C10 C 0.54880(11) -0.0145(2) 0.4416(2)
H10 H 0.5815 -0.0245 0.4024
Co1A Co 1.2500 -0.2500 1.5000
Co1A_2 Co 0.2500 -0.2500 0.5000
O1E O 0.73101(11) 0.38524(19) 0.6153(2)
H1E H 0.7380(18) 0.460(4) 0.620(3)
H2E H 0.707(2) 0.355(4) 0.645(4)
N1D N 1.16603(10) -0.17439(19) 1.34588(18)
N1E N 0.66603(10) 0.32561(19) 0.34588(18)
C1D C 1.15755(12) -0.0499(2) 1.3279(2)
H3D H 1.1907 0.0038 1.3814
C2D C 1.10234(14) 0.0028(3) 1.2343(3)
H4D H 1.0989 0.0902 1.2253
C3D C 1.05201(14) -0.0741(3) 1.1540(3)
C4D C 1.06185(15) -0.2040(4) 1.1716(3)
H5D H 1.0300 -0.2600 1.1187
C5D C 1.11855(15) -0.2489(3) 1.2672(3)
H6D H 1.1240 -0.3360 1.2775
C6D C 0.98969(16) -0.0188(4) 1.0503(3)
H7D H 0.9709 0.0542 1.0789
H8D H 0.9515 -0.0812 1.0229
O2D O 0.32489(8) -0.12507(15) 0.47640(15)
O2E O 0.82489(8) 0.37493(15) 0.47640(15)
O3D O 0.35306(9) -0.21107(18) 0.32679(17)
C7D C 0.36475(10) -0.1391(2) 0.4161(2)
C8D C 0.43477(10) -0.0643(2) 0.4583(2)
C9D C 0.48369(12) -0.0780(2) 0.4005(2)
H9D H 0.4727 -0.1303 0.3335
C10D C 0.45120(11) 0.0145(2) 0.5584(2)
H10D H 0.4185 0.0245 0.5976
C11 C 0.7763(2) 0.2423(3) 0.9695(4)
H11 H 0.7790 0.3195 0.9271
H12 H 0.8236 0.2250 1.0284
O4 O 0.75352(16) 0.1383(2) 0.8850(2)
H13 H 0.7134 0.1533 0.8357
C11E C 0.7237(2) 0.2577(3) 1.0305(4)
H11E H 0.7210 0.1805 1.0729
H12E H 0.6764 0.2750 0.9716
O4E O 0.74648(16) 0.3617(2) 1.1150(2)
H13E H 0.7866 0.3467 1.1643
loop_
_geom_bond_atom_site_label_1
_geom_bond_atom_site_label_2
_geom_bond_site_symmetry_1
_geom_bond_site_symmetry_2
Co1 O1 1_555 1_555
O1 H1 1_555 1_555
H2 O1 1_555 1_555
N1 Co1 1_555 1_555
C1 N1 1_555 1_555
H3 C1 1_555 1_555
C2 C1 1_555 1_555
H4 C2 1_555 1_555
C3 C2 1_555 1_555
C4 C3 1_555 1_555
H5 C4 1_555 1_555
C5 N1 1_555 1_555
H6 C5 1_555 1_555
C6 C3 1_555 1_555
H7 C6 1_555 1_555
H8 C6 1_555 1_555
O2 Co1 1_555 1_555
O3 C7 1_555 1_555
C7 O2 1_555 1_555
C8 C7 1_555 1_555
C9 C8 1_555 1_555
H9 C9 1_555 1_555
C10 C8 1_555 1_555
H10 C10 1_555 1_555
C11 H11 1_555 1_555
H12 C11 1_555 1_555
O4 C11 1_555 1_555
H13 O4 1_555 1_555
Co1A N1D 1_555 1_555
Co1A_2 O2D 1_555 1_555
O1E Co1 1_555 1_555
H1E O1E 1_555 1_555
H2E O1E 1_555 1_555
N1D C1D 1_555 1_555
N1E Co1 1_555 1_555
C1D H3D 1_555 1_555
C2D C1D 1_555 1_555
H4D C2D 1_555 1_555
C3D C2D 1_555 1_555
C4D C3D 1_555 1_555
H5D C4D 1_555 1_555
C5D N1D 1_555 1_555
H6D C5D 1_555 1_555
C6D C6 1_555 1_555
H7D C6D 1_555 1_555
H8D C6D 1_555 1_555
O2D C7D 1_555 1_555
O2E Co1 1_555 1_555
O3D C7D 1_555 1_555
C7D C8D 1_555 1_555
C8D C9D 1_555 1_555
C9D C10 1_555 1_555
H9D C9D 1_555 1_555
C10D C9 1_555 1_555
H10D C10D 1_555 1_555
C11E C11 1_555 1_555
H11E C11E 1_555 1_555
H12E C11E 1_555 1_555
O4E C11E 1_555 1_555
H13E O4E 1_555 1_555
C4 C5 1_555 1_555
C3D C6D 1_555 1_555
C4D C5D 1_555 1_555
C8D C10D 1_555 1_555

#END
