
#######################################################################
#
#                 Cambridge Crystallographic Data Centre
#                                CCDC 
#
#######################################################################
#
# If this CIF has been generated from an entry in the Cambridge 
# Structural Database, then it will include bibliographic, chemical, 
# crystal, experimental, refinement or atomic coordinate data resulting 
# from the CCDC's data processing and validation procedures.
#
#######################################################################

data_LEZRUE
_symmetry_cell_setting           monoclinic
_symmetry_space_group_name_H-M   'P 21/n'
_symmetry_Int_Tables_number      14
_space_group_name_Hall           '-P 2yn'
loop_
_symmetry_equiv_pos_site_id
_symmetry_equiv_pos_as_xyz
1 x,y,z
2 1/2-x,1/2+y,1/2-z
3 -x,-y,-z
4 1/2+x,1/2-y,1/2+z
_cell_length_a                   10.0155(7)
_cell_length_b                   9.7389(7)
_cell_length_c                   10.9063(7)
_cell_angle_alpha                90
_cell_angle_beta                 111.4520(10)
_cell_angle_gamma                90
_cell_volume                     990.104
loop_
_atom_site_label
_atom_site_type_symbol
_atom_site_fract_x
_atom_site_fract_y
_atom_site_fract_z
Mn1 Mn 0.5000 0.5000 0.0000
N1 N 0.64071(14) 0.53736(14) 0.21284(13)
C1 C 0.61165(18) 0.50261(17) 0.31976(17)
H1 H 0.5256 0.4538 0.3075
C2 C 0.70152(19) 0.53463(18) 0.44726(16)
H2 H 0.6765 0.5088 0.5201
C3 C 0.82802(17) 0.60461(17) 0.46698(15)
H3 H 0.8903 0.6297 0.5531
C4 C 0.86168(16) 0.63739(16) 0.35706(15)
C5 C 1.00032(17) 0.70536(16) 0.37183(15)
O1 O 1.05336(12) 0.79701(12) 0.45549(11)
N2 N 1.06378(16) 0.66153(17) 0.29245(15)
C6 C 0.76471(17) 0.60394(16) 0.23262(15)
H4 H 0.7868 0.6292 0.1581
O2 O 0.30809(13) 0.57553(14) 0.03096(13)
H5 H 0.237(3) 0.604(3) -0.025(2)
H6 H 1.033(3) 0.595(3) 0.241(2)
H7 H 1.141(3) 0.695(3) 0.298(2)
H8 H 0.285(3) 0.543(3) 0.086(3)
Mn1C Mn 1.0000 1.0000 0.5000
Mn1C_2 Mn 0.0000 0.0000 -0.5000
N1B N 0.35929(14) 0.46264(14) -0.21284(13)
C1B C 0.38835(18) 0.49739(17) -0.31976(17)
H1B H 0.4744 0.5462 -0.3075
C2B C 0.29848(19) 0.46537(18) -0.44726(16)
H2B H 0.3235 0.4912 -0.5201
C3B C 0.17198(17) 0.39539(17) -0.46698(15)
H3B H 0.1097 0.3703 -0.5531
C4B C 0.13832(16) 0.36261(16) -0.35706(15)
C5B C -0.00032(17) 0.29464(16) -0.37183(15)
O1B O -0.05336(12) 0.20299(12) -0.45549(11)
O1C O 0.55336(12) 0.70299(12) -0.04451(11)
O1A O 0.44664(12) 0.29701(12) 0.04451(11)
N2B N -0.06378(16) 0.33847(17) -0.29245(15)
C6B C 0.23529(17) 0.39606(16) -0.23262(15)
H4B H 0.2132 0.3708 -0.1581
O2B O 0.69191(13) 0.42447(14) -0.03096(13)
H5B H 0.763(3) 0.396(3) 0.025(2)
H6B H -0.033(3) 0.405(3) -0.241(2)
H7B H -0.141(3) 0.305(3) -0.298(2)
H8B H 0.715(3) 0.457(3) -0.086(3)
Cl1 Cl 0.41783(4) 0.82621(4) 0.36347(4)
O3 O 0.29929(14) 0.91945(14) 0.30131(13)
O4 O 0.37137(14) 0.68876(13) 0.32105(15)
O5 O 0.46303(17) 0.83580(17) 0.50347(13)
O6 O 0.53545(13) 0.86355(14) 0.32219(13)
loop_
_geom_bond_atom_site_label_1
_geom_bond_atom_site_label_2
_geom_bond_site_symmetry_1
_geom_bond_site_symmetry_2
Mn1 N1 1_555 1_555
N1 C1 1_555 1_555
C1 H1 1_555 1_555
C2 C1 1_555 1_555
H2 C2 1_555 1_555
C3 C2 1_555 1_555
H3 C3 1_555 1_555
C4 C3 1_555 1_555
C5 C4 1_555 1_555
O1 C5 1_555 1_555
N2 C5 1_555 1_555
C6 N1 1_555 1_555
H4 C6 1_555 1_555
O2 Mn1 1_555 1_555
Cl1 O3 1_555 1_555
O4 Cl1 1_555 1_555
O5 Cl1 1_555 1_555
O6 Cl1 1_555 1_555
H5 O2 1_555 1_555
H6 N2 1_555 1_555
H7 N2 1_555 1_555
H8 O2 1_555 1_555
Mn1C O1 1_555 1_555
Mn1C_2 O1B 1_555 1_555
N1B Mn1 1_555 1_555
C1B N1B 1_555 1_555
H1B C1B 1_555 1_555
C2B C1B 1_555 1_555
H2B C2B 1_555 1_555
C3B C2B 1_555 1_555
H3B C3B 1_555 1_555
C4B C3B 1_555 1_555
C5B C4B 1_555 1_555
O1B C5B 1_555 1_555
O1C Mn1 1_555 1_555
O1A Mn1 1_555 1_555
N2B C5B 1_555 1_555
C6B N1B 1_555 1_555
H4B C6B 1_555 1_555
O2B Mn1 1_555 1_555
H5B O2B 1_555 1_555
H6B N2B 1_555 1_555
H7B N2B 1_555 1_555
H8B O2B 1_555 1_555
C4 C6 1_555 1_555
C4B C6B 1_555 1_555

#END
