
#######################################################################
#
#                 Cambridge Crystallographic Data Centre
#                                CCDC 
#
#######################################################################
#
# If this CIF has been generated from an entry in the Cambridge 
# Structural Database, then it will include bibliographic, chemical, 
# crystal, experimental, refinement or atomic coordinate data resulting 
# from the CCDC's data processing and validation procedures.
#
#######################################################################

data_LEZSIU
_symmetry_cell_setting           monoclinic
_symmetry_space_group_name_H-M   'P 21'
_symmetry_Int_Tables_number      4
_space_group_name_Hall           'P 2yb'
loop_
_symmetry_equiv_pos_site_id
_symmetry_equiv_pos_as_xyz
1 x,y,z
2 -x,1/2+y,-z
_cell_length_a                   11.2063(19)
_cell_length_b                   7.0437(14)
_cell_length_c                   12.4718(11)
_cell_angle_alpha                90
_cell_angle_beta                 99.431(13)
_cell_angle_gamma                90
_cell_volume                     971.141
loop_
_atom_site_label
_atom_site_type_symbol
_atom_site_fract_x
_atom_site_fract_y
_atom_site_fract_z
Cu1 Cu 0.53641(5) 0.58767(11) 0.16991(4)
N1 N 0.6072(3) 0.5852(11) 0.3317(3)
N2 N 0.3825(4) 0.5546(8) 0.2285(3)
C1 C 0.7202(4) 0.5866(14) 0.3819(4)
H1 H 0.7814 0.5954 0.3401
C2 C 0.3964(5) 0.5626(11) 0.3386(4)
C3 C 0.5191(4) 0.5701(11) 0.3949(3)
N3 N 0.6881(5) 0.6255(12) 0.1129(5)
C4 C 0.6720(5) 0.5823(15) -0.0053(4)
H2 H 0.6589 0.703 -0.0445
C5 C 0.4431(5) 0.5653(12) 0.5665(4)
H3 H 0.4577 0.5637 0.6421
C6 C 0.5435(5) 0.5691(12) 0.5089(4)
C7 C 0.3009(5) 0.5596(11) 0.3967(4)
C8 C 0.7526(5) 0.5755(13) 0.4945(4)
H4 H 0.834 0.5718 0.5251
C9 C 0.2703(5) 0.5469(10) 0.1737(5)
H5 H 0.2594 0.5417 0.0982
C10 C 0.6666(5) 0.5700(12) 0.5607(4)
C11 C 0.1706(5) 0.5462(10) 0.2231(5)
H6 H 0.0943 0.5394 0.1806
C12 C 0.7002(6) 0.5610(13) 0.6826(4)
H7 H 0.628 0.5574 0.7147
H8 H 0.7469 0.6711 0.7081
H9 H 0.7472 0.4487 0.7026
C13 C 0.3244(5) 0.5640(12) 0.5127(4)
H10 H 0.2607 0.566 0.5519
C14 C 0.1798(5) 0.5555(12) 0.3351(5)
C15 C 0.0707(6) 0.5575(16) 0.3909(6)
H11 H 0.0962 0.5653 0.4681
H12 H 0.0249 0.4432 0.3737
H13 H 0.0212 0.6654 0.3666
O1 O 0.4831(4) 0.4574(6) 0.0314(3)
C16 C 0.7852(6) 0.4969(14) -0.0325(5)
H14 H 0.8516 0.5823 -0.0112
H15 H 0.7756 0.4747 -0.1094
H16 H 0.8011 0.3788 0.0055
C17 C 0.5576(6) 0.4652(9) -0.0342(4)
O2 O 0.5394(5) 0.3818(7) -0.1276(4)
H17 H 0.749(6) 0.561(12) 0.149(6)
H18 H 0.741(7) 0.719(10) 0.126(7)
Cu1A Cu 0.46359(5) 0.08767(11) -0.16991(4)
O2A O 0.4606(5) 0.8818(7) 0.1276(4)
P1 P 0.11281(16) 0.5729(4) 0.77733(12)
F1 F 0.0431(8) 0.598(2) 0.6593(5)
F2 F 0.1829(6) 0.5399(13) 0.8944(4)
F3 F 0.0205(10) 0.6935(18) 0.8216(8)
F4 F 0.0509(14) 0.3783(19) 0.7976(9)
F5 F 0.2039(9) 0.4442(12) 0.7292(6)
F6 F 0.1770(11) 0.7563(13) 0.7605(8)
loop_
_geom_bond_atom_site_label_1
_geom_bond_atom_site_label_2
_geom_bond_site_symmetry_1
_geom_bond_site_symmetry_2
Cu1 N1 1_555 1_555
N1 C1 1_555 1_555
N2 Cu1 1_555 1_555
C1 H1 1_555 1_555
C2 N2 1_555 1_555
C3 N1 1_555 1_555
N3 Cu1 1_555 1_555
C4 N3 1_555 1_555
H2 C4 1_555 1_555
C5 H3 1_555 1_555
C6 C3 1_555 1_555
C7 C2 1_555 1_555
C8 C1 1_555 1_555
H4 C8 1_555 1_555
C9 N2 1_555 1_555
H5 C9 1_555 1_555
C10 C6 1_555 1_555
C11 C9 1_555 1_555
H6 C11 1_555 1_555
C12 C10 1_555 1_555
H7 C12 1_555 1_555
H8 C12 1_555 1_555
H9 C12 1_555 1_555
C13 C5 1_555 1_555
H10 C13 1_555 1_555
C14 C7 1_555 1_555
C15 C14 1_555 1_555
H11 C15 1_555 1_555
H12 C15 1_555 1_555
H13 C15 1_555 1_555
O1 Cu1 1_555 1_555
C16 C4 1_555 1_555
H14 C16 1_555 1_555
H15 C16 1_555 1_555
H16 C16 1_555 1_555
C17 C4 1_555 1_555
O2 C17 1_555 1_555
H17 N3 1_555 1_555
H18 N3 1_555 1_555
P1 F1 1_555 1_555
F2 P1 1_555 1_555
F3 P1 1_555 1_555
F4 P1 1_555 1_555
F5 P1 1_555 1_555
F6 P1 1_555 1_555
Cu1A O2 1_555 1_555
O2A Cu1 1_555 1_555
C2 C3 1_555 1_555
C5 C6 1_555 1_555
C7 C13 1_555 1_555
C8 C10 1_555 1_555
C11 C14 1_555 1_555
O1 C17 1_555 1_555

#END
