
#######################################################################
#
#                 Cambridge Crystallographic Data Centre
#                                CCDC 
#
#######################################################################
#
# If this CIF has been generated from an entry in the Cambridge 
# Structural Database, then it will include bibliographic, chemical, 
# crystal, experimental, refinement or atomic coordinate data resulting 
# from the CCDC's data processing and validation procedures.
#
#######################################################################

data_LEZWUK
_symmetry_cell_setting           rhombohedral
_symmetry_space_group_name_H-M   'R 3 c'
_symmetry_Int_Tables_number      161
_space_group_name_Hall           'R 3 -2"c'
loop_
_symmetry_equiv_pos_site_id
_symmetry_equiv_pos_as_xyz
1 x,y,z
2 -y,x-y,z
3 -x+y,-x,z
4 -y,-x,1/2+z
5 -x+y,y,1/2+z
6 x,x-y,1/2+z
7 2/3+x,1/3+y,1/3+z
8 2/3-y,1/3+x-y,1/3+z
9 2/3-x+y,1/3-x,1/3+z
10 2/3-y,1/3-x,5/6+z
11 2/3-x+y,1/3+y,5/6+z
12 2/3+x,1/3+x-y,5/6+z
13 1/3+x,2/3+y,2/3+z
14 1/3-y,2/3+x-y,2/3+z
15 1/3-x+y,2/3-x,2/3+z
16 1/3-y,2/3-x,1/6+z
17 1/3-x+y,2/3+y,1/6+z
18 1/3+x,2/3+x-y,1/6+z
_cell_length_a                   16.6308(8)
_cell_length_b                   16.6308(8)
_cell_length_c                   51.164(5)
_cell_angle_alpha                90
_cell_angle_beta                 90
_cell_angle_gamma                120
_cell_volume                     12255.2
loop_
_atom_site_label
_atom_site_type_symbol
_atom_site_fract_x
_atom_site_fract_y
_atom_site_fract_z
W1 W -0.47459(6) 0.63951(7) 0.172419(17)
W2 W -0.70859(6) 0.43915(6) 0.168371(17)
W3 W -0.60754(6) 0.59167(6) 0.111610(19)
W4 W -0.51993(7) 0.73175(7) 0.22288(2)
Lu1 Lu -0.22744(6) 0.65682(6) 0.172782(18)
O1 O -0.2211(12) 0.7989(11) 0.1799(4)
C1 C -0.3165(14) 0.7144(16) 0.0943(4)
O2 O -0.5777(10) 0.5276(10) 0.1765(3)
O3 O -0.7063(12) 0.3364(11) 0.1641(4)
O4 O -0.3868(13) 0.6111(11) 0.1689(4)
O5 O -0.3877(12) 0.7735(9) 0.1634(3)
O6 O -0.5774(11) 0.5402(11) 0.0875(3)
C2 C -0.3958(13) 0.7125(13) 0.0543(4)
O7 O -0.7373(10) 0.5506(10) 0.1792(3)
O8 O -0.5124(10) 0.6336(10) 0.1348(3)
N1 N -0.3374(17) 0.8385(15) 0.0848(5)
O9 O -0.4719(11) 0.5802(15) 0.0295(3)
O10 O -0.2459(11) 0.7077(13) 0.1337(3)
O11 O -0.7250(11) 0.4297(12) 0.2060(3)
O12 O -0.6810(10) 0.4876(10) 0.1337(3)
O13 O -0.1694(16) 0.5952(18) 0.1409(4)
O14 O -0.2661(16) 0.6535(15) 0.2155(4)
O15 O -0.0737(12) 0.7773(12) 0.1701(5)
O16 O -0.6062(11) 0.7707(10) 0.2256(3)
O17 O -0.5600(10) 0.7101(11) 0.0955(4)
O18 O -0.3166(14) 0.4971(11) 0.1741(5)
O19 O -0.4666(17) 0.7039(22) 0.0145(4)
O20 O -0.4724(13) 0.7498(12) 0.2527(3)
C3 C -0.281(2) 0.6652(18) 0.1115(5)
O21 O -0.2823(19) 0.5942(17) 0.1044(5)
C4 C -0.4493(15) 0.6615(22) 0.0309(5)
O22 O -0.6667 0.6667 0.1337(5)
O23 O -0.4521(12) 0.6691(10) 0.2081(3)
C5 C -0.3822(15) 0.7994(14) 0.0623(4)
H1 H -0.4044 0.8316 0.0517
C6 C -0.3068(17) 0.7978(17) 0.0993(5)
H2 H -0.2767 0.8365 0.1141
C7 C -0.3610(16) 0.6705(16) 0.0718(5)
H3 H -0.3688 0.6125 0.0677
W1A W -0.63951(7) 0.88590(9) 0.172419(17)
W2A W -0.43915(6) 0.85226(8) 0.168371(17)
W3A W -0.59167(6) 0.80079(8) 0.111610(19)
W4A W -0.73175(7) 0.74832(10) 0.22288(2)
Lu1A Lu -0.65682(6) 1.11574(8) 0.172782(18)
O1A O -0.7989(11) 0.9800(16) 0.1799(4)
C1A C -0.7144(16) 0.9691(21) 0.0943(4)
O2A O -0.5276(10) 0.8947(14) 0.1765(3)
O3A O -0.3364(11) 0.9573(16) 0.1641(4)
O4A O -0.6111(11) 1.0021(17) 0.1689(4)
O5A O -0.7735(9) 0.8388(15) 0.1634(3)
O6A O -0.5402(11) 0.8824(16) 0.0875(3)
C2A C -0.7125(13) 0.8917(18) 0.0543(4)
O7A O -0.5506(10) 0.7121(14) 0.1792(3)
O8A O -0.6336(10) 0.8540(14) 0.1348(3)
N1A N -0.8385(15) 0.8241(23) 0.0848(5)
O9A O -0.5802(15) 0.9479(19) 0.0295(3)
O10A O -0.7077(13) 1.0464(17) 0.1337(3)
O11A O -0.4297(12) 0.8453(16) 0.2060(3)
O12A O -0.4876(10) 0.8314(14) 0.1337(3)
O13A O -0.5952(18) 1.2354(24) 0.1409(4)
O14A O -0.6535(15) 1.0804(22) 0.2155(4)
O15A O -0.7773(12) 1.1490(17) 0.1701(5)
O16A O -0.7707(10) 0.6231(15) 0.2256(3)
O17A O -0.7101(11) 0.7299(15) 0.0955(4)
O18A O -0.4971(11) 1.1863(18) 0.1741(5)
O19A O -0.7039(22) 0.8295(28) 0.0145(4)
O20A O -0.7498(12) 0.7778(18) 0.2527(3)
C3A C -0.6652(18) 1.0538(27) 0.1115(5)
O21A O -0.5942(17) 1.1235(25) 0.1044(5)
C4A C -0.6615(22) 0.8892(27) 0.0309(5)
O23A O -0.6691(10) 0.8788(16) 0.2081(3)
C5A C -0.7994(14) 0.8184(21) 0.0623(4)
H1A H -0.8316 0.7640 0.0517
C6A C -0.7978(17) 0.8954(24) 0.0993(5)
H2A H -0.8365 0.8868 0.1141
C7A C -0.6705(16) 0.9685(23) 0.0718(5)
H3A H -0.6125 1.0187 0.0677
W1B W -0.88590(9) 0.47459(6) 0.172419(17)
W2B W -0.85226(8) 0.70859(6) 0.168371(17)
W3B W -0.80079(8) 0.60754(6) 0.111610(19)
W4B W -0.74832(10) 0.51993(7) 0.22288(2)
Lu1B Lu -1.11574(8) 0.22744(6) 0.172782(18)
O1B O -0.9800(16) 0.2211(12) 0.1799(4)
C1B C -0.9691(21) 0.3165(14) 0.0943(4)
O2B O -0.8947(14) 0.5777(10) 0.1765(3)
O3B O -0.9573(16) 0.7063(12) 0.1641(4)
O4B O -1.0021(17) 0.3868(13) 0.1689(4)
O5B O -0.8388(15) 0.3877(12) 0.1634(3)
O6B O -0.8824(16) 0.5774(11) 0.0875(3)
C2B C -0.8917(18) 0.3958(13) 0.0543(4)
O7B O -0.7121(14) 0.7373(10) 0.1792(3)
O8B O -0.8540(14) 0.5124(10) 0.1348(3)
N1B N -0.8241(23) 0.3374(17) 0.0848(5)
O9B O -0.9479(19) 0.4719(11) 0.0295(3)
O10B O -1.0464(17) 0.2459(11) 0.1337(3)
O11B O -0.8453(16) 0.7250(11) 0.2060(3)
O12B O -0.8314(14) 0.6810(10) 0.1337(3)
O13B O -1.2354(24) 0.1694(16) 0.1409(4)
O14B O -1.0804(22) 0.2661(16) 0.2155(4)
O15B O -1.1490(17) 0.0737(12) 0.1701(5)
O16B O -0.6231(15) 0.6062(11) 0.2256(3)
O17B O -0.7299(15) 0.5600(10) 0.0955(4)
O18B O -1.1863(18) 0.3166(14) 0.1741(5)
O19B O -0.8295(28) 0.4666(17) 0.0145(4)
O20B O -0.7778(18) 0.4724(13) 0.2527(3)
C3B C -1.0538(27) 0.281(2) 0.1115(5)
O21B O -1.1235(25) 0.2823(19) 0.1044(5)
C4B C -0.8892(27) 0.4493(15) 0.0309(5)
O23B O -0.8788(16) 0.4521(12) 0.2081(3)
C5B C -0.8184(21) 0.3822(15) 0.0623(4)
H1B H -0.7640 0.4044 0.0517
C6B C -0.8954(24) 0.3068(17) 0.0993(5)
H2B H -0.8868 0.2767 0.1141
C7B C -0.9685(23) 0.3610(16) 0.0718(5)
H3B H -1.0187 0.3688 0.0677
Lu1I Lu -0.99015(6) 0.56077(6) 0.006115(18)
Lu1J Lu -0.44907(8) 0.99015(6) 0.006115(18)
Lu1K Lu -0.56077(6) 0.44907(8) 0.006115(18)
O9O O -1.2469(15) 0.1386(11) 0.1962(3)
O9P O -0.6146(19) 1.2469(15) 0.1962(3)
O9Q O -0.1386(11) 0.6146(19) 0.1962(3)
O24 O 0.3333 0.6667 0.0399(11)
N2 N 0.3569(14) 1.0150(13) -0.0675(5)
H4 H 0.3104 0.9940 -0.0541
H5 H 0.3552 0.9624 -0.0758
H6 H 0.3450 1.0501 -0.0802
H7 H 0.4171 1.0535 -0.0599
O25 O 0.577(5) 1.240(3) -0.0349(8)
O26 O 0.240(3) 0.817(4) -0.0433(13)
O27 O 0.412(7) 0.689(8) -0.049(3)
O28 O 0.408(4) 0.878(4) -0.1038(9)
loop_
_geom_bond_atom_site_label_1
_geom_bond_atom_site_label_2
_geom_bond_site_symmetry_1
_geom_bond_site_symmetry_2
W1 O2 1_555 1_555
W2 O2 1_555 1_555
W3 O6 1_555 1_555
W4 O16 1_555 1_555
Lu1 O1 1_555 1_555
C1 C3 1_555 1_555
O3 W2 1_555 1_555
O4 W1 1_555 1_555
O5 W1 1_555 1_555
C2 C4 1_555 1_555
O7 W2 1_555 1_555
O8 W1 1_555 1_555
N1 C5 1_555 1_555
O9 C4 1_555 1_555
O10 Lu1 1_555 1_555
O11 W2 1_555 1_555
O12 W2 1_555 1_555
O13 Lu1 1_555 1_555
O14 Lu1 1_555 1_555
O15 Lu1 1_555 1_555
O16 W4A 1_555 1_555
O17 W3 1_555 1_555
O18 Lu1 1_555 1_555
O19 C4 1_555 1_555
O20 W4 1_555 1_555
C3 O10 1_555 1_555
O21 C3 1_555 1_555
O22 W3 1_555 1_555
O23 W1 1_555 1_555
C5 C2 1_555 1_555
H1 C5 1_555 1_555
C6 C1 1_555 1_555
H2 C6 1_555 1_555
C7 C1 1_555 1_555
H3 C7 1_555 1_555
N2 H4 1_555 1_555
H5 N2 1_555 1_555
H6 N2 1_555 1_555
H7 N2 1_555 1_555
W1A O2A 1_555 1_555
W2A O5 1_555 1_555
W3A O17 1_555 1_555
W4A O16A 1_555 1_555
Lu1A O1A 1_555 1_555
C1A C3A 1_555 1_555
O2A W2A 1_555 1_555
O3A W2A 1_555 1_555
O4A W1A 1_555 1_555
O5A W1A 1_555 1_555
O6A W3A 1_555 1_555
C2A C4A 1_555 1_555
O7A W1 1_555 1_555
O8A W1A 1_555 1_555
N1A C5A 1_555 1_555
O9A C4A 1_555 1_555
O10A Lu1A 1_555 1_555
O11A W4 1_555 1_555
O12A W2A 1_555 1_555
O13A Lu1A 1_555 1_555
O14A Lu1A 1_555 1_555
O15A Lu1A 1_555 1_555
O16A W4B 1_555 1_555
O17A W3A 1_555 1_555
O18A Lu1A 1_555 1_555
O19A C4A 1_555 1_555
O20A W4A 1_555 1_555
C3A O10A 1_555 1_555
O21A C3A 1_555 1_555
O23A W1A 1_555 1_555
C5A C2A 1_555 1_555
H1A C5A 1_555 1_555
C6A C1A 1_555 1_555
H2A C6A 1_555 1_555
C7A C1A 1_555 1_555
H3A C7A 1_555 1_555
W1B O7 1_555 1_555
W2B O5A 1_555 1_555
W3B O22 1_555 1_555
W4B O7 1_555 1_555
Lu1B O1B 1_555 1_555
C1B C3B 1_555 1_555
O2B W1B 1_555 1_555
O3B W2B 1_555 1_555
O4B W1B 1_555 1_555
O5B W2 1_555 1_555
O6B W3B 1_555 1_555
C2B C4B 1_555 1_555
O7B W1A 1_555 1_555
O8B W1B 1_555 1_555
N1B C5B 1_555 1_555
O9B C4B 1_555 1_555
O10B Lu1B 1_555 1_555
O11B W4A 1_555 1_555
O12B W2B 1_555 1_555
O13B Lu1B 1_555 1_555
O14B Lu1B 1_555 1_555
O15B Lu1B 1_555 1_555
O16B W4 1_555 1_555
O17B W3 1_555 1_555
O18B Lu1B 1_555 1_555
O19B C4B 1_555 1_555
O20B W4B 1_555 1_555
C3B O10B 1_555 1_555
O21B C3B 1_555 1_555
O23B W1B 1_555 1_555
C5B C2B 1_555 1_555
H1B C5B 1_555 1_555
C6B C1B 1_555 1_555
H2B C6B 1_555 1_555
C7B C1B 1_555 1_555
H3B C7B 1_555 1_555
Lu1I O9B 1_555 1_555
Lu1J O9A 1_555 1_555
Lu1K O9 1_555 1_555
O9O Lu1B 1_555 1_555
O9P Lu1A 1_555 1_555
O9Q Lu1 1_555 1_555
W3 O8 1_555 1_555
W3 O12 1_555 1_555
W4 O23 1_555 1_555
W4 O7A 1_555 1_555
Lu1 O4 1_555 1_555
C2 C7 1_555 1_555
N1 C6 1_555 1_555
O11 W4B 1_555 1_555
O22 W3A 1_555 1_555
W2A O7A 1_555 1_555
W2A O11A 1_555 1_555
W3A O8A 1_555 1_555
W3A O12A 1_555 1_555
W4A O23A 1_555 1_555
W4A O7B 1_555 1_555
Lu1A O4A 1_555 1_555
C2A C7A 1_555 1_555
N1A C6A 1_555 1_555
O17A W3B 1_555 1_555
W1B O5B 1_555 1_555
W2B O2B 1_555 1_555
W2B O7B 1_555 1_555
W2B O11B 1_555 1_555
W3B O8B 1_555 1_555
W3B O12B 1_555 1_555
W3B O17B 1_555 1_555
W4B O16B 1_555 1_555
W4B O23B 1_555 1_555
Lu1B O4B 1_555 1_555
C2B C7B 1_555 1_555
N1B C6B 1_555 1_555

#END
