
#######################################################################
#
#                 Cambridge Crystallographic Data Centre
#                                CCDC 
#
#######################################################################
#
# If this CIF has been generated from an entry in the Cambridge 
# Structural Database, then it will include bibliographic, chemical, 
# crystal, experimental, refinement or atomic coordinate data resulting 
# from the CCDC's data processing and validation procedures.
#
#######################################################################

data_LEZXAR
_symmetry_cell_setting           rhombohedral
_symmetry_space_group_name_H-M   'R 3 c'
_symmetry_Int_Tables_number      161
_space_group_name_Hall           'R 3 -2"c'
loop_
_symmetry_equiv_pos_site_id
_symmetry_equiv_pos_as_xyz
1 x,y,z
2 -y,x-y,z
3 -x+y,-x,z
4 -y,-x,1/2+z
5 -x+y,y,1/2+z
6 x,x-y,1/2+z
7 2/3+x,1/3+y,1/3+z
8 2/3-y,1/3+x-y,1/3+z
9 2/3-x+y,1/3-x,1/3+z
10 2/3-y,1/3-x,5/6+z
11 2/3-x+y,1/3+y,5/6+z
12 2/3+x,1/3+x-y,5/6+z
13 1/3+x,2/3+y,2/3+z
14 1/3-y,2/3+x-y,2/3+z
15 1/3-x+y,2/3-x,2/3+z
16 1/3-y,2/3-x,1/6+z
17 1/3-x+y,2/3+y,1/6+z
18 1/3+x,2/3+x-y,1/6+z
_cell_length_a                   16.6606(9)
_cell_length_b                   16.6606(9)
_cell_length_c                   51.316(4)
_cell_angle_alpha                90
_cell_angle_beta                 90
_cell_angle_gamma                120
_cell_volume                     12335.7
loop_
_atom_site_label
_atom_site_type_symbol
_atom_site_fract_x
_atom_site_fract_y
_atom_site_fract_z
W1 W -0.25158(6) -0.52003(6) 0.029757(18)
Yb1 Yb 0.11630(6) -0.22841(5) 0.079543(16)
O1 O -0.4200(9) -0.5276(9) 0.0766(3)
O2 O -0.3333 -0.6667 0.1160(4)
C1 C 0.3775(13) -0.0598(14) 0.0297(4)
O3 O -0.1221(12) -0.4522(11) 0.0437(3)
O4 O -0.1174(10) -0.5773(10) 0.1632(3)
O5 O -0.3196(9) -0.4893(9) 0.1180(3)
O6 O -0.2939(11) -0.3391(10) 0.0883(4)
O7 O -0.2723(11) -0.4303(12) 0.0460(3)
O8 O 0.0798(11) -0.2682(12) 0.0350(3)
O9 O 0.2353(13) -0.1694(17) 0.1121(4)
O10 O -0.0179(11) -0.2230(11) 0.0721(3)
O11 O -0.2686(9) -0.5577(9) 0.1558(3)
O12 O -0.1614(9) -0.3888(9) 0.0880(3)
O13 O 0.2457(9) -0.1418(11) 0.0564(3)
O14 O 0.0023(10) -0.3859(10) 0.0824(3)
O15 O 0.3743(16) 0.0891(11) -0.0481(3)
O16 O 0.1852(11) -0.3179(12) 0.0768(5)
C2 C 0.3803(16) 0.0172(15) -0.0090(4)
N1 N 0.5038(13) -0.0049(16) -0.0025(4)
C3 C 0.4636(15) 0.0297(17) -0.0130(5)
H1 H 0.4980 0.0693 -0.0273
C4 C 0.3349(15) -0.0325(14) 0.0130(6)
H2 H 0.2721 -0.0479 0.0164
C5 C 0.4664(17) -0.0447(14) 0.0222(4)
H3 H 0.4984 -0.0673 0.0328
C6 C 0.330(3) 0.047(2) -0.0277(5)
O17 O 0.3714(13) -0.133(2) 0.0718(4)
C7 C 0.3291(15) -0.1164(15) 0.0538(4)
O18 O -0.2606(10) -0.5492(10) 0.0725(3)
W2 W -0.29080(5) -0.43925(5) 0.083995(16)
W3 W -0.11446(5) -0.47510(5) 0.079941(15)
O19 O 0.1492(11) -0.0758(11) 0.0823(4)
O20 O 0.2603(24) 0.051(2) -0.0176(6)
O21 O -0.2282(9) -0.6215(10) 0.0272(3)
O22 O -0.2226(13) -0.4741(14) -0.0014(4)
W4 W -0.19982(5) -0.60792(5) 0.140602(17)
O23 O -0.1457(12) -0.5158(10) 0.1168(3)
W1A W -0.47997(6) -0.73155(8) 0.029757(18)
Yb1A Yb -0.77159(5) -0.65529(8) 0.079543(16)
O1A O -0.4724(9) -0.8924(13) 0.0766(3)
C1A C -0.9402(14) -0.5627(19) 0.0297(4)
O3A O -0.5478(11) -0.6699(16) 0.0437(3)
O4A O -0.4227(10) -0.5401(14) 0.1632(3)
O5A O -0.5107(9) -0.8303(13) 0.1180(3)
O6A O -0.6609(10) -0.9548(15) 0.0883(4)
O7A O -0.5697(12) -0.8420(16) 0.0460(3)
O8A O -0.7318(12) -0.6520(16) 0.0350(3)
O9A O -0.8306(17) -0.5953(21) 0.1121(4)
O10A O -0.7770(11) -0.7949(16) 0.0721(3)
O11A O -0.4423(9) -0.7109(13) 0.1558(3)
O12A O -0.6112(9) -0.7726(13) 0.0880(3)
O13A O -0.8582(11) -0.6125(14) 0.0564(3)
O14A O -0.6141(10) -0.6118(14) 0.0824(3)
O15A O -1.0891(11) -0.7148(19) -0.0481(3)
O16A O -0.6821(12) -0.4969(16) 0.0768(5)
C2A C -1.0172(15) -0.6369(22) -0.0090(4)
N1A N -0.9951(16) -0.4913(21) -0.0025(4)
C3A C -1.0297(17) -0.5661(23) -0.0130(5)
H1A H -1.0693 -0.5713 -0.0273
C4A C -0.9675(14) -0.6326(21) 0.0130(6)
H2A H -0.9521 -0.6800 0.0164
C5A C -0.9553(14) -0.4889(22) 0.0222(4)
H3A H -0.9327 -0.4343 0.0328
C6A C -1.047(2) -0.717(4) -0.0277(5)
O17A O -0.867(2) -0.4956(24) 0.0718(4)
C7A C -0.8836(15) -0.5545(21) 0.0538(4)
O18A O -0.4508(10) -0.7114(14) 0.0725(3)
W2A W -0.56075(5) -0.85155(7) 0.083995(16)
W3A W -0.52490(5) -0.63936(7) 0.079941(15)
O19A O -0.9242(11) -0.7750(16) 0.0823(4)
O20A O -1.051(2) -0.7907(31) -0.0176(6)
O21A O -0.3785(10) -0.6067(13) 0.0272(3)
O22A O -0.5259(14) -0.7485(19) -0.0014(4)
W4A W -0.39208(5) -0.59190(7) 0.140602(17)
O23A O -0.4842(10) -0.6299(16) 0.1168(3)
W1B W -0.26845(8) -0.74842(6) 0.029757(18)
Yb1B Yb -0.34471(8) -1.11630(6) 0.079543(16)
O1B O -0.1076(13) -0.5800(9) 0.0766(3)
C1B C -0.4373(19) -1.3775(13) 0.0297(4)
O3B O -0.3301(16) -0.8779(12) 0.0437(3)
O4B O -0.4599(14) -0.8826(10) 0.1632(3)
O5B O -0.1697(13) -0.6804(9) 0.1180(3)
O6B O -0.0452(15) -0.7061(11) 0.0883(4)
O7B O -0.1580(16) -0.7277(11) 0.0460(3)
O8B O -0.3480(16) -1.0798(11) 0.0350(3)
O9B O -0.4047(21) -1.2353(13) 0.1121(4)
O10B O -0.2051(16) -0.9821(11) 0.0721(3)
O11B O -0.2891(13) -0.7314(9) 0.1558(3)
O12B O -0.2274(13) -0.8386(9) 0.0880(3)
O13B O -0.3875(14) -1.2457(9) 0.0564(3)
O14B O -0.3882(14) -1.0023(10) 0.0824(3)
O15B O -0.2852(19) -1.3743(16) -0.0481(3)
O16B O -0.5031(16) -1.1852(11) 0.0768(5)
C2B C -0.3631(22) -1.3803(16) -0.0090(4)
N1B N -0.5087(21) -1.5038(13) -0.0025(4)
C3B C -0.4339(23) -1.4636(15) -0.0130(5)
H1B H -0.4287 -1.4980 -0.0273
C4B C -0.3674(21) -1.3349(15) 0.0130(6)
H2B H -0.3200 -1.2721 0.0164
C5B C -0.5111(22) -1.4664(17) 0.0222(4)
H3B H -0.5657 -1.4984 0.0328
C6B C -0.283(4) -1.330(3) -0.0277(5)
O17B O -0.5044(24) -1.3714(13) 0.0718(4)
C7B C -0.4455(21) -1.3291(15) 0.0538(4)
O18B O -0.2886(14) -0.7394(10) 0.0725(3)
W2B W -0.14845(7) -0.70920(5) 0.083995(16)
W3B W -0.36064(7) -0.88554(5) 0.079941(15)
O19B O -0.2250(16) -1.1492(11) 0.0823(4)
O20B O -0.2093(31) -1.2603(24) -0.0176(6)
O21B O -0.3933(13) -0.7718(9) 0.0272(3)
O22B O -0.2515(19) -0.7774(13) -0.0014(4)
W4B W -0.40810(7) -0.80018(5) 0.140602(17)
O23B O -0.3701(16) -0.8543(12) 0.1168(3)
Yb1I Yb -1.10492(5) -0.78297(6) -0.087124(16)
Yb1J Yb 0.32196(8) 0.10492(5) -0.087124(16)
Yb1K Yb -0.21703(6) -1.32196(8) -0.087124(16)
O15O O -0.7558(11) -0.7076(16) 0.1186(3)
O15P O 0.0481(19) -0.2442(11) 0.1186(3)
O15Q O -0.2924(16) -1.0481(19) 0.1186(3)
O24 O 0.6667 0.3333 0.2107(15)
N2 N 0.3406(14) 0.3573(14) 0.3193(5)
H4 H 0.3152 0.3109 0.3059
H5 H 0.4066 0.3833 0.3200
H6 H 0.3265 0.4054 0.3155
H7 H 0.3141 0.3298 0.3358
O25 O 0.080(5) -0.021(5) 0.1193(10)
O26 O 0.6667 0.3333 0.2726(7)
O27 O -0.086(4) -0.232(3) 0.0241(6)
O28 O 0.460(9) 0.249(4) 0.3035(13)
loop_
_geom_bond_atom_site_label_1
_geom_bond_atom_site_label_2
_geom_bond_site_symmetry_1
_geom_bond_site_symmetry_2
W1 O3 1_555 1_555
Yb1 O8 1_555 1_555
O1 W2 1_555 1_555
O2 W4 1_555 1_555
C1 C4 1_555 1_555
O3 W3 1_555 1_555
O4 W4 1_555 1_555
O5 W2 1_555 1_555
O6 W2 1_555 1_555
O7 W1 1_555 1_555
O9 Yb1 1_555 1_555
O10 Yb1 1_555 1_555
O11 W4 1_555 1_555
O12 W2 1_555 1_555
O13 Yb1 1_555 1_555
O14 Yb1 1_555 1_555
O15 C6 1_555 1_555
O16 Yb1 1_555 1_555
C2 C3 1_555 1_555
N1 C3 1_555 1_555
C3 H1 1_555 1_555
C4 C2 1_555 1_555
H2 C4 1_555 1_555
C5 C1 1_555 1_555
H3 C5 1_555 1_555
C6 C2 1_555 1_555
O17 C7 1_555 1_555
C7 C1 1_555 1_555
O18 W1 1_555 1_555
W2 O7 1_555 1_555
W3 O12 1_555 1_555
O19 Yb1 1_555 1_555
O20 C6 1_555 1_555
O21 W1 1_555 1_555
O22 W1 1_555 1_555
W4 O23 1_555 1_555
O23 W3 1_555 1_555
N2 H4 1_555 1_555
H5 N2 1_555 1_555
H6 N2 1_555 1_555
H7 N2 1_555 1_555
W1A O3A 1_555 1_555
Yb1A O8A 1_555 1_555
O1A W2A 1_555 1_555
C1A C4A 1_555 1_555
O3A W3A 1_555 1_555
O4A W4A 1_555 1_555
O5A W2A 1_555 1_555
O6A W2A 1_555 1_555
O7A W1A 1_555 1_555
O9A Yb1A 1_555 1_555
O10A Yb1A 1_555 1_555
O11A W4A 1_555 1_555
O12A W2A 1_555 1_555
O13A Yb1A 1_555 1_555
O14A Yb1A 1_555 1_555
O15A C6A 1_555 1_555
O16A Yb1A 1_555 1_555
C2A C3A 1_555 1_555
N1A C3A 1_555 1_555
C3A H1A 1_555 1_555
C4A C2A 1_555 1_555
H2A C4A 1_555 1_555
C5A C1A 1_555 1_555
H3A C5A 1_555 1_555
C6A C2A 1_555 1_555
O17A C7A 1_555 1_555
C7A C1A 1_555 1_555
O18A W1A 1_555 1_555
W2A O7A 1_555 1_555
W3A O1 1_555 1_555
O19A Yb1A 1_555 1_555
O20A C6A 1_555 1_555
O21A W1 1_555 1_555
O22A W1A 1_555 1_555
W4A O2 1_555 1_555
O23A W3A 1_555 1_555
W1B O21 1_555 1_555
Yb1B O8B 1_555 1_555
O1B W3 1_555 1_555
C1B C4B 1_555 1_555
O3B W1B 1_555 1_555
O4B W4B 1_555 1_555
O5B W4 1_555 1_555
O6B W2B 1_555 1_555
O7B W1B 1_555 1_555
O9B Yb1B 1_555 1_555
O10B Yb1B 1_555 1_555
O11B W4 1_555 1_555
O12B W2B 1_555 1_555
O13B Yb1B 1_555 1_555
O14B Yb1B 1_555 1_555
O15B C6B 1_555 1_555
O16B Yb1B 1_555 1_555
C2B C3B 1_555 1_555
N1B C3B 1_555 1_555
C3B H1B 1_555 1_555
C4B C2B 1_555 1_555
H2B C4B 1_555 1_555
C5B C1B 1_555 1_555
H3B C5B 1_555 1_555
C6B C2B 1_555 1_555
O17B C7B 1_555 1_555
C7B C1B 1_555 1_555
O18B W1B 1_555 1_555
W2B O1B 1_555 1_555
W3B O1A 1_555 1_555
O19B Yb1B 1_555 1_555
O20B C6B 1_555 1_555
O21B W1A 1_555 1_555
O22B W1B 1_555 1_555
W4B O2 1_555 1_555
O23B W3B 1_555 1_555
Yb1I O15A 1_555 1_555
Yb1J O15 1_555 1_555
Yb1K O15B 1_555 1_555
O15O Yb1A 1_555 1_555
O15P Yb1 1_555 1_555
O15Q Yb1B 1_555 1_555
O5 W4A 1_555 1_555
O11 W4A 1_555 1_555
O13 C7 1_555 1_555
O14 W3 1_555 1_555
N1 C5 1_555 1_555
O18 W2 1_555 1_555
O18 W3 1_555 1_555
W1A O21A 1_555 1_555
O5A W4B 1_555 1_555
O11A W4B 1_555 1_555
O12A W3A 1_555 1_555
O13A C7A 1_555 1_555
O14A W3A 1_555 1_555
N1A C5A 1_555 1_555
O18A W2A 1_555 1_555
O18A W3A 1_555 1_555
W4A O23A 1_555 1_555
W1B O21B 1_555 1_555
O3B W3B 1_555 1_555
O5B W2B 1_555 1_555
O7B W2B 1_555 1_555
O11B W4B 1_555 1_555
O12B W3B 1_555 1_555
O13B C7B 1_555 1_555
O14B W3B 1_555 1_555
N1B C5B 1_555 1_555
O18B W2B 1_555 1_555
O18B W3B 1_555 1_555
W4B O23B 1_555 1_555

#END
