
#######################################################################
#
#                 Cambridge Crystallographic Data Centre
#                                CCDC 
#
#######################################################################
#
# If this CIF has been generated from an entry in the Cambridge 
# Structural Database, then it will include bibliographic, chemical, 
# crystal, experimental, refinement or atomic coordinate data resulting 
# from the CCDC's data processing and validation procedures.
#
#######################################################################

data_LEZZAT
_symmetry_cell_setting           orthorhombic
_symmetry_space_group_name_H-M   'P b c a'
_symmetry_Int_Tables_number      61
_space_group_name_Hall           '-P 2ac 2ab'
loop_
_symmetry_equiv_pos_site_id
_symmetry_equiv_pos_as_xyz
1 x,y,z
2 1/2-x,-y,1/2+z
3 1/2+x,1/2-y,-z
4 -x,1/2+y,1/2-z
5 -x,-y,-z
6 1/2+x,y,1/2-z
7 1/2-x,1/2+y,z
8 x,1/2-y,1/2+z
_cell_length_a                   10.9446(18)
_cell_length_b                   13.110(2)
_cell_length_c                   10.945(4)
_cell_angle_alpha                90
_cell_angle_beta                 90
_cell_angle_gamma                90
_cell_volume                     1570.43
loop_
_atom_site_label
_atom_site_type_symbol
_atom_site_fract_x
_atom_site_fract_y
_atom_site_fract_z
Ba1 Ba 0.0000 0.0000 0.0000
C1 C 0.1766(5) -0.0422(4) 0.3013(4)
H1 H 0.1042 -0.0653 0.3362
C2 C 0.3043(5) 0.0125(4) 0.1762(5)
H2 H 0.3401 0.0358 0.1043
C3 C 0.2145(5) 0.2874(4) -0.0270(6)
H3 H 0.2333 0.2991 0.0575
H4 H 0.2557 0.3372 -0.0764
H5 H 0.2411 0.2203 -0.0500
C4 C 0.0495(7) 0.2746(4) -0.2097(5)
H6 H 0.0893 0.2110 -0.2270
H7 H 0.0911 0.3288 -0.2516
H8 H -0.0338 0.2716 -0.2369
N1 N 0.1857(6) -0.0155(3) 0.1831(6)
N2 N 0.3655(6) 0.0039(3) 0.2802(6)
N3 N 0.2796(4) -0.0327(4) 0.3636(4)
O1 O -0.0018(3) 0.2043(3) 0.0084(4)
S1 S 0.05299(12) 0.29787(9) -0.04975(12)
C1D C -0.1766(5) 0.0422(4) -0.3013(4)
H1D H -0.1042 0.0653 -0.3362
C2D C -0.3043(5) -0.0125(4) -0.1762(5)
H2D H -0.3401 -0.0358 -0.1043
C3D C -0.2145(5) -0.2874(4) 0.0270(6)
H3D H -0.2333 -0.2991 -0.0575
H4D H -0.2557 -0.3372 0.0764
H5D H -0.2411 -0.2203 0.0500
C4D C -0.0495(7) -0.2746(4) 0.2097(5)
H6D H -0.0893 -0.2110 0.2270
H7D H -0.0911 -0.3288 0.2516
H8D H 0.0338 -0.2716 0.2369
N1D N -0.1857(6) 0.0155(3) -0.1831(6)
N2D N -0.3655(6) -0.0039(3) -0.2802(6)
N3D N -0.2796(4) 0.0327(4) -0.3636(4)
O1D O 0.0018(3) -0.2043(3) -0.0084(4)
S1D S -0.05299(12) -0.29787(9) 0.04975(12)
Ba1A Ba -0.5000 0.0000 -0.5000
Ba1A_2 Ba 0.5000 0.0000 0.5000
N2A N 0.1345(6) -0.0039(3) -0.2198(6)
N2E N -0.1345(6) 0.0039(3) 0.2198(6)
N3A N 0.2204(4) 0.0327(4) -0.1364(4)
N3E N -0.2204(4) -0.0327(4) 0.1364(4)
loop_
_geom_bond_atom_site_label_1
_geom_bond_atom_site_label_2
_geom_bond_site_symmetry_1
_geom_bond_site_symmetry_2
Ba1 N1 1_555 1_555
C1 H1 1_555 1_555
C2 H2 1_555 1_555
C3 H3 1_555 1_555
H4 C3 1_555 1_555
H5 C3 1_555 1_555
C4 H6 1_555 1_555
H7 C4 1_555 1_555
H8 C4 1_555 1_555
N1 C1 1_555 1_555
N2 C2 1_555 1_555
N3 C1 1_555 1_555
O1 Ba1 1_555 1_555
S1 C3 1_555 1_555
C1D H1D 1_555 1_555
C2D H2D 1_555 1_555
C3D H3D 1_555 1_555
H4D C3D 1_555 1_555
H5D C3D 1_555 1_555
C4D H6D 1_555 1_555
H7D C4D 1_555 1_555
H8D C4D 1_555 1_555
N1D Ba1 1_555 1_555
N2D C2D 1_555 1_555
N3D C1D 1_555 1_555
O1D Ba1 1_555 1_555
S1D C3D 1_555 1_555
Ba1A N2D 1_555 1_555
Ba1A_2 N2 1_555 1_555
N2A Ba1 1_555 1_555
N2E Ba1 1_555 1_555
N3A Ba1 1_555 1_555
N3E Ba1 1_555 1_555
C2 N1 1_555 1_555
C4 S1 1_555 1_555
N2 N3 1_555 1_555
N3 Ba1A_2 1_555 1_555
O1 S1 1_555 1_555
C1D N1D 1_555 1_555
C2D N1D 1_555 1_555
C4D S1D 1_555 1_555
N2D N3D 1_555 1_555
N3D Ba1A 1_555 1_555
O1D S1D 1_555 1_555
N2A N3A 1_555 1_555
N2E N3E 1_555 1_555

#END
