
#######################################################################
#
#                 Cambridge Crystallographic Data Centre
#                                CCDC 
#
#######################################################################
#
# If this CIF has been generated from an entry in the Cambridge 
# Structural Database, then it will include bibliographic, chemical, 
# crystal, experimental, refinement or atomic coordinate data resulting 
# from the CCDC's data processing and validation procedures.
#
#######################################################################

data_LIBDUX
_symmetry_cell_setting           monoclinic
_symmetry_space_group_name_H-M   'P 21/c'
_symmetry_Int_Tables_number      14
_space_group_name_Hall           '-P 2ybc'
loop_
_symmetry_equiv_pos_site_id
_symmetry_equiv_pos_as_xyz
1 x,y,z
2 -x,1/2+y,1/2-z
3 -x,-y,-z
4 x,1/2-y,1/2+z
_cell_length_a                   18.056(2)
_cell_length_b                   8.1974(11)
_cell_length_c                   18.672(2)
_cell_angle_alpha                90
_cell_angle_beta                 115.451(3)
_cell_angle_gamma                90
_cell_volume                     2495.48
loop_
_atom_site_label
_atom_site_type_symbol
_atom_site_fract_x
_atom_site_fract_y
_atom_site_fract_z
Cu1 Cu 0.96521(4) 0.70197(8) 0.86691(4)
N1 N 0.8734(3) 0.6887(6) 0.9046(3)
N2 N 0.8799(3) 0.8153(5) 0.7776(2)
N3 N 0.7946(4) 0.9277(6) 0.6689(3)
H1 H 0.7756 0.9835 0.6230
O1 O 0.8494(2) 1.1281(5) 1.1698(2)
O2 O 0.9530(2) 1.2711(5) 1.1703(2)
O3 O 0.95219(19) 1.3624(4) 1.03039(19)
O4 O 0.8572(2) 1.3110(4) 0.91136(19)
O5 O 0.9415(2) 0.4422(4) 0.82774(19)
H2 H 0.9156 0.4370 0.7775
H3 H 0.9124 0.3974 0.8479
C1 C 0.8825(3) 0.8111(7) 0.9640(3)
C2 C 0.8934(3) 0.7651(7) 1.0394(3)
H4 H 0.8966 0.6552 1.0528
C3 C 0.8995(3) 0.8819(7) 1.0939(3)
H5 H 0.9044 0.8493 1.1435
C4 C 0.8986(3) 1.0465(6) 1.0782(3)
C5 C 0.8937(3) 1.0946(6) 1.0045(3)
C6 C 0.8831(3) 0.9763(6) 0.9474(3)
H6 H 0.8763 1.0085 0.8972
C7 C 0.7935(3) 0.6933(7) 0.8328(3)
H7 H 0.7758 0.5830 0.8145
H8 H 0.7521 0.7436 0.8458
C8 C 0.8025(4) 0.7881(7) 0.7692(3)
C9 C 0.7487(4) 0.8568(8) 0.7019(4)
H9 H 0.6918 0.8562 0.6820
C10 C 0.8724(4) 0.9019(7) 0.7156(3)
H10 H 0.9160 0.9395 0.7062
C11 C 0.9003(3) 1.1602(7) 1.1435(3)
C12 C 0.9011(3) 1.2701(7) 0.9822(3)
H11 H 0.888(3) 0.608(6) 0.925(3)
Cu1B Cu 1.03479(4) 1.29803(8) 1.13309(4)
N1B N 1.1266(3) 1.3113(6) 1.0954(3)
N2B N 1.1201(3) 1.1847(5) 1.2224(2)
N3B N 1.2054(4) 1.0723(6) 1.3311(3)
H1B H 1.2244 1.0165 1.3770
O1B O 1.1506(2) 0.8719(5) 0.8302(2)
O2B O 1.0470(2) 0.7289(5) 0.8297(2)
O3B O 1.04781(19) 0.6376(4) 0.96961(19)
O4B O 1.1428(2) 0.6890(4) 1.08864(19)
O5B O 1.0585(2) 1.5578(4) 1.17226(19)
H2B H 1.0844 1.5630 1.2225
H3B H 1.0876 1.6026 1.1521
C1B C 1.1175(3) 1.1889(7) 1.0360(3)
C2B C 1.1066(3) 1.2349(7) 0.9606(3)
H4B H 1.1034 1.3448 0.9472
C3B C 1.1005(3) 1.1181(7) 0.9061(3)
H5B H 1.0956 1.1507 0.8565
C4B C 1.1014(3) 0.9535(6) 0.9218(3)
C5B C 1.1063(3) 0.9054(6) 0.9955(3)
C6B C 1.1169(3) 1.0237(6) 1.0526(3)
H6B H 1.1237 0.9915 1.1028
C7B C 1.2065(3) 1.3067(7) 1.1672(3)
H7B H 1.2242 1.4170 1.1855
H8B H 1.2479 1.2564 1.1542
C8B C 1.1975(4) 1.2119(7) 1.2308(3)
C9B C 1.2513(4) 1.1432(8) 1.2981(4)
H9B H 1.3082 1.1438 1.3180
C10B C 1.1276(4) 1.0981(7) 1.2844(3)
H10B H 1.0840 1.0605 1.2938
C11B C 1.0997(3) 0.8398(7) 0.8565(3)
C12B C 1.0989(3) 0.7299(7) 1.0178(3)
H11B H 1.112(3) 1.392(6) 1.075(3)
Cu2 Cu 0.44365(4) 0.86769(8) 0.43592(4)
N4 N 0.5393(3) 0.8192(6) 0.4078(3)
N5 N 0.3790(3) 0.8098(5) 0.3265(2)
N6 N 0.2936(3) 0.7596(6) 0.2039(3)
H12 H 0.2465 0.7388 0.1609
O6 O 0.4520(2) 0.2204(5) 0.3301(2)
O7 O 0.4831(2) 0.1337(4) 0.45070(19)
O8 O 0.6461(2) 0.0778(4) 0.5387(2)
O9 O 0.7401(3) 0.1599(5) 0.5057(3)
C13 C 0.5733(3) 0.6593(7) 0.4357(3)
C14 C 0.5239(3) 0.5228(7) 0.4087(3)
H13 H 0.4696 0.5359 0.3721
C15 C 0.5529(3) 0.3678(7) 0.4347(3)
C16 C 0.6358(3) 0.3478(7) 0.4871(3)
C17 C 0.6846(3) 0.4867(7) 0.5132(3)
H14 H 0.7397 0.4751 0.5479
C18 C 0.6534(3) 0.6409(7) 0.4891(3)
H15 H 0.6866 0.7320 0.5090
C19 C 0.5106(3) 0.8469(7) 0.3211(3)
H16 H 0.5207 0.9592 0.3115
H17 H 0.5402 0.7762 0.3008
C20 C 0.4213(3) 0.8114(7) 0.2802(3)
C21 C 0.3683(4) 0.7806(7) 0.2050(3)
H18 H 0.3807 0.7749 0.1616
C22 C 0.3025(3) 0.7755(6) 0.2786(3)
H19 H 0.2605 0.7639 0.2944
C23 C 0.4918(3) 0.2286(7) 0.4017(3)
C24 C 0.6778(3) 0.1860(7) 0.5112(3)
H20 H 0.569(3) 0.895(6) 0.429(3)
Cu2_2 Cu 0.44365(4) -0.13231(8) 0.43592(4)
Cu2B Cu 0.55635(4) 0.13231(8) 0.56408(4)
O7_2 O 0.4831(2) 1.1337(4) 0.45070(19)
O7B O 0.5169(2) 0.8663(4) 0.54930(19)
O8B O 0.3539(2) 0.9222(4) 0.4613(2)
loop_
_geom_bond_atom_site_label_1
_geom_bond_atom_site_label_2
_geom_bond_site_symmetry_1
_geom_bond_site_symmetry_2
Cu1 N1 1_555 1_555
N1 C1 1_555 1_555
N2 Cu1 1_555 1_555
N3 H1 1_555 1_555
O1 C11 1_555 1_555
O2 C11 1_555 1_555
O3 C12 1_555 1_555
O4 C12 1_555 1_555
O5 Cu1 1_555 1_555
H2 O5 1_555 1_555
H3 O5 1_555 1_555
C1 C2 1_555 1_555
C2 H4 1_555 1_555
C3 C2 1_555 1_555
H5 C3 1_555 1_555
C4 C3 1_555 1_555
C5 C4 1_555 1_555
C6 C1 1_555 1_555
H6 C6 1_555 1_555
C7 N1 1_555 1_555
H7 C7 1_555 1_555
H8 C7 1_555 1_555
C8 N2 1_555 1_555
C9 N3 1_555 1_555
H9 C9 1_555 1_555
C10 N2 1_555 1_555
H10 C10 1_555 1_555
C11 C4 1_555 1_555
C12 C5 1_555 1_555
H11 N1 1_555 1_555
Cu2 N4 1_555 1_555
N4 C13 1_555 1_555
N5 Cu2 1_555 1_555
N6 H12 1_555 1_555
O6 C23 1_555 1_555
O7 C23 1_555 1_555
O8 C24 1_555 1_555
O9 C24 1_555 1_555
C13 C14 1_555 1_555
C14 H13 1_555 1_555
C15 C14 1_555 1_555
C16 C15 1_555 1_555
C17 C16 1_555 1_555
H14 C17 1_555 1_555
C18 C13 1_555 1_555
H15 C18 1_555 1_555
C19 N4 1_555 1_555
H16 C19 1_555 1_555
H17 C19 1_555 1_555
C20 N5 1_555 1_555
C21 N6 1_555 1_555
H18 C21 1_555 1_555
C22 N5 1_555 1_555
H19 C22 1_555 1_555
C23 C15 1_555 1_555
C24 C16 1_555 1_555
H20 N4 1_555 1_555
Cu1B O2 1_555 1_555
N1B Cu1B 1_555 1_555
N2B Cu1B 1_555 1_555
N3B H1B 1_555 1_555
O1B C11B 1_555 1_555
O2B Cu1 1_555 1_555
O3B Cu1 1_555 1_555
O4B C12B 1_555 1_555
O5B Cu1B 1_555 1_555
H2B O5B 1_555 1_555
H3B O5B 1_555 1_555
C1B N1B 1_555 1_555
C2B C1B 1_555 1_555
H4B C2B 1_555 1_555
C3B C2B 1_555 1_555
H5B C3B 1_555 1_555
C4B C3B 1_555 1_555
C5B C4B 1_555 1_555
C6B C1B 1_555 1_555
H6B C6B 1_555 1_555
C7B N1B 1_555 1_555
H7B C7B 1_555 1_555
H8B C7B 1_555 1_555
C8B N2B 1_555 1_555
C9B N3B 1_555 1_555
H9B C9B 1_555 1_555
C10B N2B 1_555 1_555
H10B C10B 1_555 1_555
C11B O2B 1_555 1_555
C12B O3B 1_555 1_555
H11B N1B 1_555 1_555
Cu2_2 O7 1_555 1_555
Cu2B O7 1_555 1_555
O7_2 Cu2 1_555 1_555
O7B Cu2 1_555 1_555
O8B Cu2 1_555 1_555
N3 C10 1_555 1_555
O3 Cu1B 1_555 1_555
C5 C6 1_555 1_555
C7 C8 1_555 1_555
C8 C9 1_555 1_555
N6 C22 1_555 1_555
O8 Cu2B 1_555 1_555
C17 C18 1_555 1_555
C19 C20 1_555 1_555
C20 C21 1_555 1_555
N3B C10B 1_555 1_555
C4B C11B 1_555 1_555
C5B C6B 1_555 1_555
C5B C12B 1_555 1_555
C7B C8B 1_555 1_555
C8B C9B 1_555 1_555

#END
