
#######################################################################
#
#                 Cambridge Crystallographic Data Centre
#                                CCDC 
#
#######################################################################
#
# If this CIF has been generated from an entry in the Cambridge 
# Structural Database, then it will include bibliographic, chemical, 
# crystal, experimental, refinement or atomic coordinate data resulting 
# from the CCDC's data processing and validation procedures.
#
#######################################################################

data_LIBDOR
_symmetry_cell_setting           monoclinic
_symmetry_space_group_name_H-M   'P 21/n'
_symmetry_Int_Tables_number      14
_space_group_name_Hall           '-P 2yn'
loop_
_symmetry_equiv_pos_site_id
_symmetry_equiv_pos_as_xyz
1 x,y,z
2 1/2-x,1/2+y,1/2-z
3 -x,-y,-z
4 1/2+x,1/2-y,1/2+z
_cell_length_a                   10.1891(12)
_cell_length_b                   8.3183(10)
_cell_length_c                   14.3423(17)
_cell_angle_alpha                90
_cell_angle_beta                 92.171(2)
_cell_angle_gamma                90
_cell_volume                     1214.72
loop_
_atom_site_label
_atom_site_type_symbol
_atom_site_fract_x
_atom_site_fract_y
_atom_site_fract_z
Cu1 Cu -0.05982(3) 0.36867(4) 0.92738(2)
N1 N 0.1143(2) 0.2964(3) 0.87218(16)
N2 N -0.1330(2) 0.3071(3) 0.80524(16)
N3 N -0.2337(3) 0.1972(3) 0.68610(18)
H1 H -0.2962 0.1615 0.6498
O1 O 0.0450(2) -0.3117(2) 0.79754(13)
O2 O -0.00885(19) -0.3665(2) 0.94187(13)
O3 O 0.22992(17) -0.4267(2) 1.02624(13)
O4 O 0.42819(18) -0.3192(3) 1.01991(16)
C1 C 0.1578(3) 0.1430(3) 0.90863(19)
C2 C 0.0923(2) 0.0039(3) 0.88361(18)
H2 H 0.0182 0.0097 0.8439
C3 C 0.1347(3) -0.1444(3) 0.91639(19)
C4 C 0.2489(2) -0.1550(3) 0.97513(19)
C5 C 0.3118(3) -0.0127(3) 0.9991(2)
H3 H 0.3868 -0.0167 1.0381
C6 C 0.2677(3) 0.1341(3) 0.9676(2)
H4 H 0.3117 0.2274 0.9861
C7 C 0.0982(3) 0.2992(3) 0.76777(19)
H5 H 0.1223 0.4039 0.7442
H6 H 0.1547 0.2191 0.7408
C8 C -0.0417(3) 0.2640(3) 0.74182(18)
C9 C -0.1035(3) 0.1945(4) 0.6677(2)
H7 H -0.0653 0.1532 0.6149
C10 C -0.2484(3) 0.2640(4) 0.7694(2)
H8 H -0.3281 0.2780 0.7979
C11 C 0.0553(3) -0.2858(3) 0.88112(19)
C12 C 0.3081(3) -0.3106(3) 1.00858(18)
H9 H 0.161(3) 0.353(3) 0.882(2)
Cu1_2 Cu -0.05982(3) -0.63133(4) 0.92738(2)
Cu1B Cu 0.05982(3) -0.36867(4) 1.07262(2)
O2_2 O -0.00885(19) 0.6335(2) 0.94187(13)
O2B O 0.00885(19) 0.3665(2) 1.05813(13)
O3B O -0.22992(17) 0.4267(2) 0.97376(13)
O5 O 0.1225(2) 0.9251(3) 0.65763(15)
H10 H 0.1077 0.8616 0.7025
H11 H 0.0689 0.9028 0.6126
loop_
_geom_bond_atom_site_label_1
_geom_bond_atom_site_label_2
_geom_bond_site_symmetry_1
_geom_bond_site_symmetry_2
Cu1 N1 1_555 1_555
N1 C1 1_555 1_555
N2 Cu1 1_555 1_555
N3 H1 1_555 1_555
O1 C11 1_555 1_555
O2 C11 1_555 1_555
O3 C12 1_555 1_555
O4 C12 1_555 1_555
C1 C2 1_555 1_555
C2 H2 1_555 1_555
C3 C2 1_555 1_555
C4 C3 1_555 1_555
C5 C4 1_555 1_555
H3 C5 1_555 1_555
C6 C1 1_555 1_555
H4 C6 1_555 1_555
C7 N1 1_555 1_555
H5 C7 1_555 1_555
H6 C7 1_555 1_555
C8 N2 1_555 1_555
C9 N3 1_555 1_555
H7 C9 1_555 1_555
C10 N2 1_555 1_555
H8 C10 1_555 1_555
C11 C3 1_555 1_555
C12 C4 1_555 1_555
H9 N1 1_555 1_555
O5 H10 1_555 1_555
H11 O5 1_555 1_555
Cu1_2 O2 1_555 1_555
Cu1B O2 1_555 1_555
O2_2 Cu1 1_555 1_555
O2B Cu1 1_555 1_555
O3B Cu1 1_555 1_555
N3 C10 1_555 1_555
O3 Cu1B 1_555 1_555
C5 C6 1_555 1_555
C7 C8 1_555 1_555
C8 C9 1_555 1_555

#END
