
#######################################################################
#
#                 Cambridge Crystallographic Data Centre
#                                CCDC 
#
#######################################################################
#
# If this CIF has been generated from an entry in the Cambridge 
# Structural Database, then it will include bibliographic, chemical, 
# crystal, experimental, refinement or atomic coordinate data resulting 
# from the CCDC's data processing and validation procedures.
#
#######################################################################

data_LIBDEH
_symmetry_cell_setting           triclinic
_symmetry_space_group_name_H-M   'P -1'
_symmetry_Int_Tables_number      2
_space_group_name_Hall           '-P 1'
loop_
_symmetry_equiv_pos_site_id
_symmetry_equiv_pos_as_xyz
1 x,y,z
2 -x,-y,-z
_cell_length_a                   8.9096(2)
_cell_length_b                   11.9101(2)
_cell_length_c                   15.5520(3)
_cell_angle_alpha                79.5760(10)
_cell_angle_beta                 85.6720(10)
_cell_angle_gamma                69.6220(10)
_cell_volume                     1521.34
loop_
_atom_site_label
_atom_site_type_symbol
_atom_site_fract_x
_atom_site_fract_y
_atom_site_fract_z
Cu1 Cu -0.5000 0.5000 0.5000
Cu2 Cu 0.25972(5) 0.26696(3) 0.13346(2)
O1 O 0.3666(3) 0.1824(2) 0.24375(14)
O2 O 0.3650(4) 0.1425(3) 0.38791(18)
O3 O -0.3908(3) 0.6048(2) 0.42921(15)
O4 O -0.1652(3) 0.6561(2) -0.01820(14)
O5 O -0.3416(3) 0.8150(2) 0.03012(17)
O6 O -0.2167(3) 0.5241(2) 0.53674(16)
O7 O 0.0958(3) 0.37366(19) 0.24307(13)
O8 O -0.2186(3) 0.74574(19) 0.34816(14)
N1 N 0.3996(4) 0.5657(3) 0.0921(2)
N2 N 0.3722(3) 0.3865(2) 0.12047(18)
N3 N 0.1400(4) 1.1537(2) 0.14759(19)
N4 N 0.0706(4) 0.9928(3) 0.1890(2)
N5 N -0.3717(3) 0.3611(3) 0.4414(2)
N6 N -0.2487(4) 0.1748(3) 0.4176(2)
C1 C 0.1791(5) 1.0448(3) 0.1953(2)
H1 H 0.2706 1.0086 0.2291
C2 C -0.0027(6) 1.1722(4) 0.1099(4)
H2 H -0.0613 1.2425 0.0734
C3 C -0.0446(6) 1.0726(5) 0.1341(4)
H3 H -0.1348 1.0608 0.1166
C4 C 0.0848(7) 0.8684(4) 0.2278(3)
H4 H -0.0195 0.8660 0.2488
H5 H 0.1558 0.8417 0.2773
C5 C 0.1504(7) 0.7817(4) 0.1611(4)
H6 H 0.1623 0.6998 0.1875
H7 H 0.0747 0.8077 0.1145
C6 C -0.3475(4) 0.2451(3) 0.4709(3)
H8 H -0.3930 0.2162 0.5220
C7 C -0.2073(5) 0.2495(4) 0.3508(3)
H9 H -0.1399 0.2264 0.3037
C8 C -0.2832(5) 0.3641(4) 0.3662(2)
H10 H -0.2762 0.4341 0.3310
C9 C -0.1925(6) 0.0412(4) 0.4322(3)
H11 H -0.2060 0.0140 0.3790
H12 H -0.2576 0.0128 0.4778
C10 C -0.0189(7) -0.0140(4) 0.4582(4)
H13 H 0.0159 -0.1011 0.4684
H14 H 0.0437 0.0130 0.4115
C11 C 0.3165(4) 0.4974(3) 0.0760(2)
H15 H 0.2304 0.5248 0.0382
C12 C 0.4980(5) 0.3841(4) 0.1680(3)
H16 H 0.5608 0.3177 0.2062
C13 C 0.5148(5) 0.4941(4) 0.1499(3)
H17 H 0.5914 0.5167 0.1728
C14 C 0.3664(5) 0.6950(3) 0.0556(3)
H18 H 0.2870 0.7194 0.0102
H19 H 0.4636 0.7055 0.0288
C15 C 0.3061(7) 0.7768(4) 0.1241(4)
H20 H 0.2864 0.8596 0.0970
H21 H 0.3858 0.7543 0.1682
C16 C 0.3112(4) 0.2061(3) 0.3189(2)
C17 C 0.1750(5) 0.3230(3) 0.3250(2)
H22 H 0.0987 0.3076 0.3693
H23 H 0.2160 0.3808 0.3426
C18 C -0.0085(4) 0.4915(3) 0.23235(19)
C19 C -0.1648(4) 0.6741(3) 0.2847(2)
C20 C -0.2321(4) 0.7159(3) 0.0424(2)
C21 C -0.0658(3) 0.5415(3) 0.14904(19)
H24 H -0.0333 0.4964 0.1038
C22 C -0.1845(4) 0.6879(3) 0.4367(2)
H25 H -0.2160 0.7500 0.4737
H26 H -0.0698 0.6471 0.4421
C23 C -0.1722(3) 0.6596(3) 0.13360(19)
C24 C -0.2671(4) 0.5962(3) 0.4705(2)
C25 C -0.2247(4) 0.7257(3) 0.2021(2)
H27 H -0.2993 0.8038 0.1921
C26 C -0.0540(4) 0.5567(3) 0.30102(19)
H28 H -0.0117 0.5230 0.3565
N5A N 0.3717(3) -0.3611(3) 0.5586(2)
N6A N 0.2487(4) -0.1748(3) 0.5824(2)
C6A C 0.3475(4) -0.2451(3) 0.5291(3)
H8A H 0.3930 -0.2162 0.4780
C7A C 0.2073(5) -0.2495(4) 0.6492(3)
H9A H 0.1399 -0.2264 0.6963
C8A C 0.2832(5) -0.3641(4) 0.6338(2)
H10A H 0.2762 -0.4341 0.6690
C9A C 0.1925(6) -0.0412(4) 0.5678(3)
H11A H 0.2060 -0.0140 0.6210
H12A H 0.2576 -0.0128 0.5222
C10A C 0.0189(7) 0.0140(4) 0.5418(4)
H13A H -0.0159 0.1011 0.5316
H14A H -0.0437 -0.0130 0.5885
Cu2A Cu -1.25972(5) 0.73304(3) 0.86654(2)
O1A O -1.3666(3) 0.8176(2) 0.75625(14)
O2A O -1.3650(4) 0.8575(3) 0.61209(18)
O3A O -0.6092(3) 0.3952(2) 0.57079(15)
O4A O -0.8348(3) 0.3439(2) 1.01820(14)
O5A O -0.6584(3) 0.1850(2) 0.96988(17)
O6A O -0.7833(3) 0.4759(2) 0.46326(16)
O7A O -1.0958(3) 0.62634(19) 0.75693(13)
O8A O -0.7814(3) 0.25426(19) 0.65184(14)
N1A N -1.3996(4) 0.4343(3) 0.9079(2)
N2A N -1.3722(3) 0.6135(2) 0.87953(18)
N3A N -1.1400(4) -0.1537(2) 0.85241(19)
N4A N -1.0706(4) 0.0072(3) 0.8110(2)
C1A C -1.1791(5) -0.0448(3) 0.8047(2)
H1A H -1.2706 -0.0086 0.7709
C2A C -0.9973(6) -0.1722(4) 0.8901(4)
H2A H -0.9387 -0.2425 0.9266
C3A C -0.9554(6) -0.0726(5) 0.8659(4)
H3A H -0.8652 -0.0608 0.8834
C4A C -1.0848(7) 0.1316(4) 0.7722(3)
H4A H -0.9805 0.1340 0.7512
H5A H -1.1558 0.1583 0.7227
C5A C -1.1504(7) 0.2183(4) 0.8389(4)
H6A H -1.1623 0.3002 0.8125
H7A H -1.0747 0.1923 0.8855
C11A C -1.3165(4) 0.5026(3) 0.9240(2)
H15A H -1.2304 0.4752 0.9618
C12A C -1.4980(5) 0.6159(4) 0.8320(3)
H16A H -1.5608 0.6823 0.7938
C13A C -1.5148(5) 0.5059(4) 0.8501(3)
H17A H -1.5914 0.4833 0.8272
C14A C -1.3664(5) 0.3050(3) 0.9444(3)
H18A H -1.2870 0.2806 0.9898
H19A H -1.4636 0.2945 0.9712
C15A C -1.3061(7) 0.2232(4) 0.8759(4)
H20A H -1.2864 0.1404 0.9030
H21A H -1.3858 0.2457 0.8318
C16A C -1.3112(4) 0.7939(3) 0.6811(2)
C17A C -1.1750(5) 0.6770(3) 0.6750(2)
H22A H -1.0987 0.6924 0.6307
H23A H -1.2160 0.6192 0.6574
C18A C -0.9915(4) 0.5085(3) 0.76765(19)
C19A C -0.8352(4) 0.3259(3) 0.7153(2)
C20A C -0.7679(4) 0.2841(3) 0.9576(2)
C21A C -0.9342(3) 0.4585(3) 0.85096(19)
H24A H -0.9667 0.5036 0.8962
C22A C -0.8155(4) 0.3121(3) 0.5633(2)
H25A H -0.7840 0.2500 0.5263
H26A H -0.9302 0.3529 0.5579
C23A C -0.8278(3) 0.3404(3) 0.86640(19)
C24A C -0.7329(4) 0.4038(3) 0.5295(2)
C25A C -0.7753(4) 0.2743(3) 0.7979(2)
H27A H -0.7007 0.1962 0.8079
C26A C -0.9460(4) 0.4433(3) 0.69898(19)
H28A H -0.9883 0.4770 0.6435
Cu1_2 Cu 0.5000 -0.5000 0.5000
Cu2_2 Cu -0.74028(5) 0.26696(3) 1.13346(2)
Cu2_3 Cu 0.25972(5) 1.26696(3) 0.13346(2)
Cu2A_2 Cu -1.25972(5) -0.26696(3) 0.86654(2)
Cu2A_3 Cu -0.25972(5) 0.73304(3) -0.13346(2)
O4_2 O -1.1652(3) 0.6561(2) 0.98180(14)
O4A_2 O 0.1652(3) 0.3439(2) 0.01820(14)
N3_2 N 0.1400(4) 0.1537(2) 0.14759(19)
N3A_2 N -1.1400(4) 0.8463(2) 0.85241(19)
N5A_2 N -0.6283(3) 0.6389(3) 0.5586(2)
O9 O -0.723(6) 0.622(6) 0.364(3)
H29 H -0.6346 0.6120 0.3862
H30 H -0.7473 0.5684 0.4011
O10 O 0.5627(4) 0.0997(3) 0.6501(3)
H31 H 0.5821 0.0277 0.6389
H32 H 0.4623 0.1436 0.6505
O11 O 0.6193(6) 0.0438(4) 0.0758(4)
H33 H 0.6316 -0.0250 0.0625
H34 H 0.5375 0.0852 0.0449
O12 O -0.3237(15) 0.0370(13) 0.2393(14)
H35 H -0.4207 0.0834 0.2410
H36 H -0.3419 0.0401 0.1859
O9A O -0.277(6) 0.378(6) 0.636(3)
H29A H -0.3654 0.3880 0.6138
H30A H -0.2527 0.4316 0.5989
loop_
_geom_bond_atom_site_label_1
_geom_bond_atom_site_label_2
_geom_bond_site_symmetry_1
_geom_bond_site_symmetry_2
Cu1 O3 1_555 1_555
Cu2 O1 1_555 1_555
O1 C16 1_555 1_555
O2 C16 1_555 1_555
O3 C24 1_555 1_555
O4 C20 1_555 1_555
O5 C20 1_555 1_555
O6 Cu1 1_555 1_555
O7 Cu2 1_555 1_555
O8 C19 1_555 1_555
N1 C11 1_555 1_555
N2 Cu2 1_555 1_555
N3 C1 1_555 1_555
N4 C1 1_555 1_555
N5 Cu1 1_555 1_555
N6 C6 1_555 1_555
C1 H1 1_555 1_555
C2 N3 1_555 1_555
H2 C2 1_555 1_555
C3 N4 1_555 1_555
H3 C3 1_555 1_555
C4 N4 1_555 1_555
H4 C4 1_555 1_555
H5 C4 1_555 1_555
C5 C4 1_555 1_555
H6 C5 1_555 1_555
H7 C5 1_555 1_555
C6 N5 1_555 1_555
H8 C6 1_555 1_555
C7 N6 1_555 1_555
H9 C7 1_555 1_555
C8 N5 1_555 1_555
H10 C8 1_555 1_555
C9 N6 1_555 1_555
H11 C9 1_555 1_555
H12 C9 1_555 1_555
C10 C9 1_555 1_555
H13 C10 1_555 1_555
H14 C10 1_555 1_555
C11 N2 1_555 1_555
H15 C11 1_555 1_555
C12 N2 1_555 1_555
H16 C12 1_555 1_555
C13 N1 1_555 1_555
H17 C13 1_555 1_555
C14 N1 1_555 1_555
H18 C14 1_555 1_555
H19 C14 1_555 1_555
C15 C5 1_555 1_555
H20 C15 1_555 1_555
H21 C15 1_555 1_555
C16 C17 1_555 1_555
C17 O7 1_555 1_555
H22 C17 1_555 1_555
H23 C17 1_555 1_555
C18 O7 1_555 1_555
C19 C25 1_555 1_555
C20 C23 1_555 1_555
C21 C18 1_555 1_555
H24 C21 1_555 1_555
C22 O8 1_555 1_555
H25 C22 1_555 1_555
H26 C22 1_555 1_555
C23 C21 1_555 1_555
C24 O6 1_555 1_555
C25 C23 1_555 1_555
H27 C25 1_555 1_555
C26 C18 1_555 1_555
H28 C26 1_555 1_555
O9 H29 1_555 1_555
H30 O9 1_555 1_555
O10 H31 1_555 1_555
H32 O10 1_555 1_555
O11 H33 1_555 1_555
H34 O11 1_555 1_555
O12 H35 1_555 1_555
H36 O12 1_555 1_555
N5A C6A 1_555 1_555
N6A C6A 1_555 1_555
C6A H8A 1_555 1_555
C7A N6A 1_555 1_555
H9A C7A 1_555 1_555
C8A N5A 1_555 1_555
H10A C8A 1_555 1_555
C9A N6A 1_555 1_555
H11A C9A 1_555 1_555
H12A C9A 1_555 1_555
C10A C10 1_555 1_555
H13A C10A 1_555 1_555
H14A C10A 1_555 1_555
Cu2A O1A 1_555 1_555
O1A C16A 1_555 1_555
O2A C16A 1_555 1_555
O3A Cu1 1_555 1_555
O4A C20A 1_555 1_555
O5A C20A 1_555 1_555
O6A Cu1 1_555 1_555
O7A Cu2A 1_555 1_555
O8A C19A 1_555 1_555
N1A C11A 1_555 1_555
N2A Cu2A 1_555 1_555
N3A C1A 1_555 1_555
N4A C1A 1_555 1_555
C1A H1A 1_555 1_555
C2A N3A 1_555 1_555
H2A C2A 1_555 1_555
C3A N4A 1_555 1_555
H3A C3A 1_555 1_555
C4A N4A 1_555 1_555
H4A C4A 1_555 1_555
H5A C4A 1_555 1_555
C5A C4A 1_555 1_555
H6A C5A 1_555 1_555
H7A C5A 1_555 1_555
C11A N2A 1_555 1_555
H15A C11A 1_555 1_555
C12A N2A 1_555 1_555
H16A C12A 1_555 1_555
C13A N1A 1_555 1_555
H17A C13A 1_555 1_555
C14A N1A 1_555 1_555
H18A C14A 1_555 1_555
H19A C14A 1_555 1_555
C15A C5A 1_555 1_555
H20A C15A 1_555 1_555
H21A C15A 1_555 1_555
C16A C17A 1_555 1_555
C17A O7A 1_555 1_555
H22A C17A 1_555 1_555
H23A C17A 1_555 1_555
C18A O7A 1_555 1_555
C19A C25A 1_555 1_555
C20A C23A 1_555 1_555
C21A C18A 1_555 1_555
H24A C21A 1_555 1_555
C22A O8A 1_555 1_555
H25A C22A 1_555 1_555
H26A C22A 1_555 1_555
C23A C21A 1_555 1_555
C24A O3A 1_555 1_555
C25A C23A 1_555 1_555
H27A C25A 1_555 1_555
C26A C18A 1_555 1_555
H28A C26A 1_555 1_555
Cu1_2 N5A 1_555 1_555
Cu2_2 O4A 1_555 1_555
Cu2_3 N3 1_555 1_555
Cu2A_2 N3A 1_555 1_555
Cu2A_3 O4 1_555 1_555
O4_2 Cu2A 1_555 1_555
O4A_2 Cu2 1_555 1_555
N3_2 Cu2 1_555 1_555
N3A_2 Cu2A 1_555 1_555
N5A_2 Cu1 1_555 1_555
O9A H29A 1_555 1_555
H30A O9A 1_555 1_555
C2 C3 1_555 1_555
C7 C8 1_555 1_555
C12 C13 1_555 1_555
C14 C15 1_555 1_555
C19 C26 1_555 1_555
C22 C24 1_555 1_555
C7A C8A 1_555 1_555
C9A C10A 1_555 1_555
O6A C24A 1_555 1_555
C2A C3A 1_555 1_555
C12A C13A 1_555 1_555
C14A C15A 1_555 1_555
C19A C26A 1_555 1_555
C22A C24A 1_555 1_555

#END
