
#######################################################################
#
#                 Cambridge Crystallographic Data Centre
#                                CCDC 
#
#######################################################################
#
# If this CIF has been generated from an entry in the Cambridge 
# Structural Database, then it will include bibliographic, chemical, 
# crystal, experimental, refinement or atomic coordinate data resulting 
# from the CCDC's data processing and validation procedures.
#
#######################################################################

data_LIBHUB
_symmetry_cell_setting           orthorhombic
_symmetry_space_group_name_H-M   'P c a 21'
_symmetry_Int_Tables_number      29
_space_group_name_Hall           'P 2c -2ac'
loop_
_symmetry_equiv_pos_site_id
_symmetry_equiv_pos_as_xyz
1 x,y,z
2 -x,-y,1/2+z
3 1/2-x,y,1/2+z
4 1/2+x,-y,z
_cell_length_a                   11.770(2)
_cell_length_b                   14.540(3)
_cell_length_c                   7.1924(14)
_cell_angle_alpha                90
_cell_angle_beta                 90
_cell_angle_gamma                90
_cell_volume                     1230.88
loop_
_atom_site_label
_atom_site_type_symbol
_atom_site_fract_x
_atom_site_fract_y
_atom_site_fract_z
Sr1 Sr 0.05956(3) 0.01402(2) 0.06455(10)
O1 O 0.2521(2) 0.08604(17) 0.0712(5)
O2 O 0.4114(3) 0.0838(2) 0.2386(4)
O3 O 0.4962(2) 0.8802(2) 0.3165(4)
O4 O 0.3394(2) 0.8600(2) 0.4833(5)
O5 O -0.1345(3) 0.0470(2) -0.1067(4)
C1 C 0.3825(4) 0.3735(3) 0.3660(6)
C2 C 0.4705(4) 0.4237(3) 0.4479(6)
H1 H 0.5362 0.3933 0.4850
C3 C 0.4620(5) 0.5174(3) 0.4749(8)
H2 H 0.5226 0.5495 0.5269
C4 C 0.3627(4) 0.5648(3) 0.4245(6)
C5 C 0.2760(4) 0.5154(3) 0.3429(7)
H3 H 0.2097 0.5456 0.3079
C6 C 0.2858(4) 0.4207(3) 0.3119(7)
H4 H 0.2267 0.3891 0.2544
C7 C 0.3967(4) 0.2706(3) 0.3405(6)
H5 H 0.3952 0.2415 0.4619
H6 H 0.4708 0.2589 0.2864
C8 C 0.3068(4) 0.2257(3) 0.2187(6)
H7 H 0.2337 0.2326 0.2793
H8 H 0.3032 0.2591 0.1020
C9 C 0.3246(4) 0.1247(3) 0.1757(5)
C10 C 0.3490(4) 0.6672(3) 0.4620(7)
H9 H 0.3693 0.6796 0.5903
H10 H 0.2697 0.6837 0.4461
C11 C 0.4213(4) 0.7276(3) 0.3352(7)
H11 H 0.4995 0.7068 0.3419
H12 H 0.3958 0.7195 0.2081
C12 C 0.4176(4) 0.8297(3) 0.3826(7)
H13 H -0.180(4) 0.004(3) -0.077(13)
H14 H -0.174(4) 0.094(2) -0.118(9)
Sr1A Sr -0.05956(3) -0.01402(2) -0.43545(10)
Sr1B Sr 0.44044(3) 0.01402(2) 0.56455(10)
Sr1B_2 Sr 0.44044(3) 1.01402(2) 0.56455(10)
Sr1C Sr 0.55956(3) -0.01402(2) 0.06455(10)
Sr1C_2 Sr 0.55956(3) 0.98598(2) 0.06455(10)
O2B O 0.0886(3) 0.0838(2) -0.2614(4)
O2C O -0.0886(3) -0.0838(2) 0.2386(4)
O3B O 0.0038(2) -0.1198(2) -0.1835(4)
O3C O -0.0038(2) 0.1198(2) 0.3165(4)
O4B O 0.1606(2) -0.1400(2) -0.0167(5)
O5A O 0.1345(3) -0.0470(2) 0.3933(4)
loop_
_geom_bond_atom_site_label_1
_geom_bond_atom_site_label_2
_geom_bond_site_symmetry_1
_geom_bond_site_symmetry_2
Sr1 O1 1_555 1_555
O1 C9 1_555 1_555
O2 C9 1_555 1_555
O3 C12 1_555 1_555
O4 C12 1_555 1_555
O5 Sr1 1_555 1_555
C1 C2 1_555 1_555
C2 H1 1_555 1_555
C3 C2 1_555 1_555
H2 C3 1_555 1_555
C4 C3 1_555 1_555
C5 C4 1_555 1_555
H3 C5 1_555 1_555
C6 C1 1_555 1_555
H4 C6 1_555 1_555
C7 C1 1_555 1_555
H5 C7 1_555 1_555
H6 C7 1_555 1_555
C8 C7 1_555 1_555
H7 C8 1_555 1_555
H8 C8 1_555 1_555
C9 C8 1_555 1_555
C10 C4 1_555 1_555
H9 C10 1_555 1_555
H10 C10 1_555 1_555
C11 C10 1_555 1_555
H11 C11 1_555 1_555
H12 C11 1_555 1_555
C12 C11 1_555 1_555
H13 O5 1_555 1_555
H14 O5 1_555 1_555
Sr1A O5 1_555 1_555
Sr1B O2 1_555 1_555
Sr1B_2 O3 1_555 1_555
Sr1C O2 1_555 1_555
Sr1C_2 O3 1_555 1_555
O2B Sr1 1_555 1_555
O2C Sr1 1_555 1_555
O3B Sr1 1_555 1_555
O3C Sr1 1_555 1_555
O4B Sr1 1_555 1_555
O5A Sr1 1_555 1_555
O4 Sr1B_2 1_555 1_555
C5 C6 1_555 1_555
Sr1A O2B 1_555 1_555
Sr1A O3B 1_555 1_555

#END
