
#######################################################################
#
#                 Cambridge Crystallographic Data Centre
#                                CCDC 
#
#######################################################################
#
# If this CIF has been generated from an entry in the Cambridge 
# Structural Database, then it will include bibliographic, chemical, 
# crystal, experimental, refinement or atomic coordinate data resulting 
# from the CCDC's data processing and validation procedures.
#
#######################################################################

data_LIBHOV
_symmetry_cell_setting           monoclinic
_symmetry_space_group_name_H-M   'P 21/n'
_symmetry_Int_Tables_number      14
_space_group_name_Hall           '-P 2yn'
loop_
_symmetry_equiv_pos_site_id
_symmetry_equiv_pos_as_xyz
1 x,y,z
2 1/2-x,1/2+y,1/2-z
3 -x,-y,-z
4 1/2+x,1/2-y,1/2+z
_cell_length_a                   10.8109(11)
_cell_length_b                   7.1531(8)
_cell_length_c                   26.026(3)
_cell_angle_alpha                90
_cell_angle_beta                 100.182(7)
_cell_angle_gamma                90
_cell_volume                     1980.93
loop_
_atom_site_label
_atom_site_type_symbol
_atom_site_fract_x
_atom_site_fract_y
_atom_site_fract_z
Pb1 Pb -0.361977(16) 0.59486(2) 0.249179(7)
C1 C -0.3004(6) 0.6395(9) 0.4222(2)
C2 C -0.3141(6) 0.7985(10) 0.4519(2)
C3 C -0.2681(7) 0.8034(14) 0.5053(3)
H1 H -0.2779 0.9103 0.5245
C4 C -0.2086(10) 0.6501(16) 0.5293(3)
H2 H -0.1774 0.6529 0.5650
C5 C -0.1945(9) 0.4896(15) 0.5007(3)
H3 H -0.1539 0.3855 0.5172
C6 C -0.2402(8) 0.4852(12) 0.4482(3)
H4 H -0.2310 0.3769 0.4295
C7 C -0.3454(5) 0.6285(8) 0.3639(2)
C8 C -0.4941(7) 0.9770(10) 0.4230(3)
C9 C -0.5396(8) 1.1549(12) 0.3956(4)
H5 H -0.6294 1.1617 0.3917
H6 H -0.5158 1.1573 0.3617
H7 H -0.5026 1.2597 0.4157
O1 O -0.3452(4) 0.4706(6) 0.34273(16)
O2 O -0.3773(4) 0.7715(5) 0.33805(14)
O3 O -0.3680(4) 0.9637(6) 0.42891(17)
O4 O -0.5566(5) 0.8615(8) 0.4389(2)
C10 C 0.0507(4) 0.5667(6) 0.2938(2)
C11 C 0.1234(5) 0.6401(8) 0.3385(2)
C12 C 0.2524(5) 0.6203(10) 0.3477(3)
H8 H 0.3003 0.6658 0.3784
C13 C 0.3102(5) 0.5316(10) 0.3107(3)
H9 H 0.3973 0.5210 0.3163
C14 C 0.2401(6) 0.4596(9) 0.2660(3)
H10 H 0.2796 0.4005 0.2415
C15 C 0.1099(5) 0.4753(8) 0.2575(2)
H11 H 0.0622 0.4246 0.2275
C16 C -0.0892(4) 0.5845(7) 0.28383(18)
C17 C 0.0500(6) 0.9045(10) 0.3786(3)
C18 C -0.0132(7) 0.9597(13) 0.4223(3)
H12 H -0.0224 1.0932 0.4226
H13 H 0.0364 0.9196 0.4547
H14 H -0.0946 0.9022 0.4180
O5 O -0.1438(3) 0.7378(5) 0.28741(14)
O6 O -0.1539(3) 0.4392(5) 0.27065(15)
O7 O 0.0643(4) 0.7156(6) 0.37719(14)
O8 O 0.0841(5) 1.0042(7) 0.3468(2)
O9 O -0.2570(4) 0.6158(5) 0.16783(16)
H15 H -0.2012 0.7237 0.1647
H16 H -0.2136 0.5201 0.1520
Pb1A Pb -0.138023(16) 0.09486(2) 0.250821(7)
Pb1A_2 Pb -0.138023(16) 1.09486(2) 0.250821(7)
O5A O -0.3562(3) 0.2378(5) 0.21259(14)
O6A O -0.3461(3) 0.9392(5) 0.22935(15)
loop_
_geom_bond_atom_site_label_1
_geom_bond_atom_site_label_2
_geom_bond_site_symmetry_1
_geom_bond_site_symmetry_2
Pb1 O1 1_555 1_555
C1 C2 1_555 1_555
C2 C3 1_555 1_555
C3 H1 1_555 1_555
C4 C3 1_555 1_555
H2 C4 1_555 1_555
C5 C4 1_555 1_555
H3 C5 1_555 1_555
C6 C1 1_555 1_555
H4 C6 1_555 1_555
C7 C1 1_555 1_555
C8 C9 1_555 1_555
C9 H5 1_555 1_555
H6 C9 1_555 1_555
H7 C9 1_555 1_555
O1 C7 1_555 1_555
O2 Pb1 1_555 1_555
O3 C2 1_555 1_555
O4 C8 1_555 1_555
C10 C11 1_555 1_555
C11 C12 1_555 1_555
C12 H8 1_555 1_555
C13 C12 1_555 1_555
H9 C13 1_555 1_555
C14 C13 1_555 1_555
H10 C14 1_555 1_555
C15 C10 1_555 1_555
H11 C15 1_555 1_555
C16 C10 1_555 1_555
C17 C18 1_555 1_555
C18 H12 1_555 1_555
H13 C18 1_555 1_555
H14 C18 1_555 1_555
O5 Pb1 1_555 1_555
O6 Pb1 1_555 1_555
O7 C11 1_555 1_555
O8 C17 1_555 1_555
O9 Pb1 1_555 1_555
H15 O9 1_555 1_555
H16 O9 1_555 1_555
Pb1A O6 1_555 1_555
Pb1A_2 O5 1_555 1_555
O5A Pb1 1_555 1_555
O6A Pb1 1_555 1_555
C5 C6 1_555 1_555
C7 O2 1_555 1_555
C8 O3 1_555 1_555
C14 C15 1_555 1_555
C16 O5 1_555 1_555
C16 O6 1_555 1_555
C17 O7 1_555 1_555
Pb1A O5A 1_555 1_555
Pb1A_2 O6A 1_555 1_555

#END
