
#######################################################################
#
#                 Cambridge Crystallographic Data Centre
#                                CCDC 
#
#######################################################################
#
# If this CIF has been generated from an entry in the Cambridge 
# Structural Database, then it will include bibliographic, chemical, 
# crystal, experimental, refinement or atomic coordinate data resulting 
# from the CCDC's data processing and validation procedures.
#
#######################################################################

data_LIBJUD
_symmetry_cell_setting           orthorhombic
_symmetry_space_group_name_H-M   'P b c a'
_symmetry_Int_Tables_number      61
_space_group_name_Hall           '-P 2ac 2ab'
loop_
_symmetry_equiv_pos_site_id
_symmetry_equiv_pos_as_xyz
1 x,y,z
2 1/2-x,-y,1/2+z
3 -x,1/2+y,1/2-z
4 1/2+x,1/2-y,-z
5 -x,-y,-z
6 1/2+x,y,1/2-z
7 x,1/2-y,1/2+z
8 1/2-x,1/2+y,z
_cell_length_a                   18.5340(5)
_cell_length_b                   24.6157(8)
_cell_length_c                   32.4257(9)
_cell_angle_alpha                90
_cell_angle_beta                 90
_cell_angle_gamma                90
_cell_volume                     14793.5
loop_
_atom_site_label
_atom_site_type_symbol
_atom_site_fract_x
_atom_site_fract_y
_atom_site_fract_z
Si1 Si 0.75246(19) 0.22842(15) 0.12142(11)
Cu1 Cu 0.60887(10) 0.00108(9) 0.01046(7)
Cu2 Cu 0.87932(12) -0.05701(10) -0.08262(9)
Cu3 Cu 0.79117(12) -0.28924(9) -0.10091(7)
Cu4 Cu 0.66970(12) -0.18338(10) -0.16735(7)
W1 W 0.77816(3) 0.23587(2) 0.013876(18)
W2 W 0.93916(3) 0.21064(3) 0.135165(19)
W3 W 0.84182(3) 0.32147(3) 0.187498(19)
W4 W 0.65242(3) 0.13642(2) 0.060463(19)
W5 W 0.56421(3) 0.23760(3) 0.10807(2)
W6 W 0.66273(3) 0.33432(3) 0.17377(2)
W7 W 0.86670(3) 0.32485(2) 0.074571(19)
W8 W 0.68768(3) 0.33724(2) 0.060441(19)
W9 W 0.82701(3) 0.11827(3) 0.177457(19)
W10 W 0.84944(3) 0.12091(2) 0.074510(19)
W11 W 0.63033(3) 0.13261(3) 0.163356(19)
W12 W 0.72930(3) 0.22972(3) 0.229389(18)
O1 O 0.6985(5) 0.1910(4) 0.0273(3)
O2 O 0.6224(5) 0.1001(4) 0.1095(3)
O3 O 0.6590(5) 0.1853(4) 0.2033(3)
O4 O 0.6205(5) 0.0918(4) 0.0238(3)
O5 O 0.8187(5) 0.1857(4) 0.1251(3)
O6 O 0.8374(5) 0.1807(4) 0.0363(3)
O7 O 0.7833(6) 0.3667(4) 0.0602(3)
O8 O 0.7870(6) 0.2238(4) -0.0373(3)
O9 O 0.9196(6) 0.2636(4) 0.0946(3)
O10 O 0.6771(5) 0.1958(4) 0.1152(3)
O11 O 0.8538(5) 0.2870(4) 0.0220(3)
O12 O 0.7481(5) 0.1106(4) 0.0701(3)
O13 O 0.7663(5) 0.2676(4) 0.0818(3)
O14 O 0.9380(5) 0.1552(4) 0.0929(3)
O15 O 0.7275(6) 0.1073(4) 0.1670(3)
O16 O 0.6665(5) 0.2911(4) 0.2235(3)
O17 O 0.7956(5) 0.1754(4) 0.2133(3)
O18 O 0.6828(6) 0.3541(4) 0.1181(3)
O19 O 0.7486(5) 0.2645(4) 0.1628(3)
O20 O 0.9026(6) 0.2605(4) 0.1737(3)
O21 O 0.9210(5) 0.1535(5) 0.1735(3)
O22 O 0.8842(6) 0.0722(4) 0.0434(3)
O23 O 0.6407(6) 0.3897(4) 0.0389(4)
O24 O 0.6123(5) 0.2861(4) 0.0718(3)
O25 O 0.7549(6) 0.3630(5) 0.1902(3)
O26 O 0.5520(6) 0.1806(4) 0.1470(3)
O27 O 0.5860(6) 0.0866(5) 0.1931(3)
O28 O 0.9002(6) 0.3640(5) 0.2113(4)
O29 O 0.7127(5) 0.2977(4) 0.0122(3)
O30 O 0.5952(5) 0.2839(4) 0.1511(3)
O31 O 0.5699(5) 0.1817(4) 0.0668(3)
O32 O 0.7161(7) 0.2153(5) 0.2797(3)
O33 O 0.8484(5) 0.0827(5) 0.1256(3)
O34 O 0.9331(6) 0.3693(5) 0.0614(4)
O35 O 0.4764(6) 0.2558(5) 0.1023(3)
O36 O 0.8514(5) 0.3421(4) 0.1312(3)
O37 O 0.8474(7) 0.0667(5) 0.2118(4)
O38 O 0.8077(6) 0.2805(5) 0.2340(3)
O39 O 1.0288(6) 0.2169(5) 0.1427(3)
O40 O 0.6067(6) 0.3857(5) 0.1897(3)
N1 N 0.5202(7) -0.0076(6) 0.0437(4)
N2 N 0.6547(8) -0.0133(5) 0.0661(5)
N3 N 0.4729(12) -0.0196(8) 0.1060(5)
N4 N 0.4194(9) -0.0136(8) 0.0781(5)
N5 N 0.4466(8) -0.0072(7) 0.0415(5)
N6 N 0.9139(8) 0.0214(7) -0.0800(5)
N7 N 0.7472(9) 0.0474(7) -0.0259(6)
N8 N 0.7048(8) 0.0009(7) -0.0207(5)
N9 N 0.7348(8) -0.0428(7) -0.0351(6)
N10 N 0.7989(8) -0.0263(6) -0.0509(5)
N11 N 0.8746(7) -0.2681(6) -0.0642(5)
N12 N 0.8316(8) -0.1288(6) -0.0921(5)
N13 N 0.7753(9) -0.1219(6) -0.1189(6)
N14 N 0.7505(7) -0.1692(5) -0.1295(5)
N15 N 0.7874(8) -0.2085(6) -0.1078(5)
N16 N 0.6218(10) -0.3429(9) -0.1703(6)
N17 N 0.6764(10) -0.3516(8) -0.1423(6)
N18 N 0.7030(8) -0.3022(6) -0.1350(4)
N19 N 0.6683(7) -0.2626(6) -0.1565(4)
N20 N 0.5887(8) -0.2054(8) -0.2046(4)
C1 C 0.7287(12) -0.0159(8) 0.0739(8)
H1 H 0.7622 -0.0145 0.0525
C2 C 0.7505(12) -0.0206(7) 0.1145(8)
H2 H 0.7996 -0.0200 0.1204
C3 C 0.7020(16) -0.0263(8) 0.1466(7)
H3 H 0.7185 -0.0307 0.1735
C4 C 0.6287(13) -0.0252(8) 0.1385(7)
H4 H 0.5941 -0.0294 0.1590
C5 C 0.6112(10) -0.0174(6) 0.0983(5)
C6 C 0.5335(9) -0.0139(7) 0.0840(6)
C7 C 0.9747(10) 0.0415(9) -0.0962(6)
H5 H 1.0059 0.0191 -0.1109
C8 C 0.9909(11) 0.0971(10) -0.0908(7)
H6 H 1.0332 0.1112 -0.1020
C9 C 0.9464(13) 0.1301(9) -0.0698(8)
H7 H 0.9571 0.1668 -0.0664
C10 C 0.8843(13) 0.1080(9) -0.0534(7)
H8 H 0.8528 0.1299 -0.0386
C11 C 0.8684(10) 0.0541(8) -0.0588(6)
C12 C 0.8043(9) 0.0258(6) -0.0435(6)
C13 C 0.8375(9) -0.1811(8) -0.0853(5)
C14 C 0.8862(9) -0.2119(9) -0.0610(5)
C15 C 0.9397(10) -0.1912(8) -0.0361(5)
H9 H 0.9461 -0.1539 -0.0342
C16 C 0.9841(11) -0.2259(12) -0.0136(7)
H10 H 1.0200 -0.2125 0.0036
C17 C 0.9724(12) -0.2821(15) -0.0180(6)
H11 H 1.0015 -0.3062 -0.0034
C18 C 0.9182(9) -0.3028(9) -0.0439(6)
H12 H 0.9123 -0.3401 -0.0469
C19 C 0.5496(11) -0.1709(10) -0.2286(6)
H13 H 0.5597 -0.1339 -0.2284
C20 C 0.4939(10) -0.1912(14) -0.2536(6)
H14 H 0.4681 -0.1682 -0.2709
C21 C 0.4781(11) -0.2461(12) -0.2520(7)
H15 H 0.4402 -0.2597 -0.2677
C22 C 0.5181(11) -0.2814(9) -0.2273(6)
H16 H 0.5084 -0.3185 -0.2267
C23 C 0.5714(10) -0.2596(9) -0.2044(5)
C24 C 0.6188(10) -0.2890(9) -0.1775(6)
O41 O 0.9611(7) -0.0794(6) -0.1156(5)
H17 H 0.9623 -0.0717 -0.1411
H18 H 0.9958 -0.0968 -0.1046
O42 O 0.8267(14) -0.0143(11) -0.1506(8)
H19 H 0.8344 0.0189 -0.1562
H20 H 0.8019 -0.0337 -0.1671
O43 O 0.7996(8) -0.3669(5) -0.0851(4)
H21 H 0.8247 -0.3884 -0.0998
H22 H 0.7784 -0.3787 -0.0636
O44 O 0.8622(10) -0.3024(8) -0.1563(5)
H23 H 0.9075 -0.2974 -0.1546
H24 H 0.8436 -0.3122 -0.1791
O45 O 0.5933(7) -0.1367(6) -0.1267(4)
H25 H 0.5485 -0.1358 -0.1324
H26 H 0.6091 -0.1201 -0.1055
O46 O 0.6856(9) -0.1148(6) -0.1955(4)
H27 H 0.6637 -0.0863 -0.1876
H28 H 0.7146 -0.1133 -0.2158
O47 O 0.9513(10) -0.0623(8) -0.0205(6)
H29 H 0.9732 -0.0343 -0.0116
H30 H 0.9547 -0.0923 -0.0076
Cu1D Cu 0.39113(10) -0.00108(9) -0.01046(7)
Cu3G Cu 0.70883(12) 0.21076(9) -0.10091(7)
O8G O 0.7130(6) -0.2762(4) -0.0373(3)
N5D N 0.5534(8) 0.0072(7) -0.0415(5)
O48 O 0.8885(15) 0.4756(10) -0.1811(9)
O49 O 0.8669(11) 0.3701(8) -0.0455(6)
O50 O 0.7066(14) 0.0503(11) -0.1366(8)
O51 O 0.6881(12) 0.4278(9) -0.2283(7)
loop_
_geom_bond_atom_site_label_1
_geom_bond_atom_site_label_2
_geom_bond_site_symmetry_1
_geom_bond_site_symmetry_2
Si1 O5 1_555 1_555
Cu1 O4 1_555 1_555
Cu2 N6 1_555 1_555
Cu3 N11 1_555 1_555
Cu4 N14 1_555 1_555
W1 O1 1_555 1_555
W2 O5 1_555 1_555
W3 O19 1_555 1_555
W4 O1 1_555 1_555
W5 O10 1_555 1_555
W6 O16 1_555 1_555
W7 O7 1_555 1_555
W8 O7 1_555 1_555
W9 O5 1_555 1_555
W10 O5 1_555 1_555
W11 O2 1_555 1_555
W12 O3 1_555 1_555
O2 W4 1_555 1_555
O3 W11 1_555 1_555
O4 W4 1_555 1_555
O6 W1 1_555 1_555
O8 W1 1_555 1_555
O9 W2 1_555 1_555
O10 Si1 1_555 1_555
O11 W1 1_555 1_555
O12 W4 1_555 1_555
O13 Si1 1_555 1_555
O14 W2 1_555 1_555
O15 W9 1_555 1_555
O16 W12 1_555 1_555
O17 W9 1_555 1_555
O18 W6 1_555 1_555
O19 Si1 1_555 1_555
O20 W2 1_555 1_555
O21 W2 1_555 1_555
O22 W10 1_555 1_555
O23 W8 1_555 1_555
O24 W5 1_555 1_555
O25 W3 1_555 1_555
O26 W5 1_555 1_555
O27 W11 1_555 1_555
O28 W3 1_555 1_555
O29 W1 1_555 1_555
O30 W5 1_555 1_555
O31 W4 1_555 1_555
O32 W12 1_555 1_555
O33 W9 1_555 1_555
O34 W7 1_555 1_555
O35 W5 1_555 1_555
O36 W3 1_555 1_555
O37 W9 1_555 1_555
O38 W3 1_555 1_555
O39 W2 1_555 1_555
O40 W6 1_555 1_555
N1 Cu1 1_555 1_555
N2 Cu1 1_555 1_555
N3 N4 1_555 1_555
N4 N5 1_555 1_555
N5 N1 1_555 1_555
N6 C7 1_555 1_555
N7 N8 1_555 1_555
N8 Cu1 1_555 1_555
N9 N8 1_555 1_555
N10 Cu2 1_555 1_555
N11 C14 1_555 1_555
N12 Cu2 1_555 1_555
N13 N12 1_555 1_555
N14 N13 1_555 1_555
N15 Cu3 1_555 1_555
N16 N17 1_555 1_555
N17 N18 1_555 1_555
N18 Cu3 1_555 1_555
N19 Cu4 1_555 1_555
N20 Cu4 1_555 1_555
C1 N2 1_555 1_555
H1 C1 1_555 1_555
C2 C1 1_555 1_555
H2 C2 1_555 1_555
C3 C2 1_555 1_555
H3 C3 1_555 1_555
C4 C3 1_555 1_555
H4 C4 1_555 1_555
C5 N2 1_555 1_555
C6 N1 1_555 1_555
C7 H5 1_555 1_555
C8 C7 1_555 1_555
H6 C8 1_555 1_555
C9 C8 1_555 1_555
H7 C9 1_555 1_555
C10 C9 1_555 1_555
H8 C10 1_555 1_555
C11 N6 1_555 1_555
C12 N7 1_555 1_555
C13 N12 1_555 1_555
C14 C13 1_555 1_555
C15 C14 1_555 1_555
H9 C15 1_555 1_555
C16 C15 1_555 1_555
H10 C16 1_555 1_555
C17 C16 1_555 1_555
H11 C17 1_555 1_555
C18 N11 1_555 1_555
H12 C18 1_555 1_555
C19 N20 1_555 1_555
H13 C19 1_555 1_555
C20 C19 1_555 1_555
H14 C20 1_555 1_555
C21 C20 1_555 1_555
H15 C21 1_555 1_555
C22 C21 1_555 1_555
H16 C22 1_555 1_555
C23 N20 1_555 1_555
C24 N16 1_555 1_555
O41 Cu2 1_555 1_555
H17 O41 1_555 1_555
H18 O41 1_555 1_555
O42 Cu2 1_555 1_555
H19 O42 1_555 1_555
H20 O42 1_555 1_555
O43 Cu3 1_555 1_555
H21 O43 1_555 1_555
H22 O43 1_555 1_555
O44 Cu3 1_555 1_555
H23 O44 1_555 1_555
H24 O44 1_555 1_555
O45 Cu4 1_555 1_555
H25 O45 1_555 1_555
H26 O45 1_555 1_555
O46 Cu4 1_555 1_555
H27 O46 1_555 1_555
H28 O46 1_555 1_555
O47 Cu2 1_555 1_555
H29 O47 1_555 1_555
H30 O47 1_555 1_555
Cu1D N5 1_555 1_555
Cu3G O8 1_555 1_555
O8G Cu3 1_555 1_555
N5D Cu1 1_555 1_555
W1 O13 1_555 1_555
W3 O20 1_555 1_555
W4 O10 1_555 1_555
W5 O31 1_555 1_555
W6 O19 1_555 1_555
W6 O25 1_555 1_555
W6 O30 1_555 1_555
W7 O9 1_555 1_555
W7 O11 1_555 1_555
W7 O13 1_555 1_555
W7 O36 1_555 1_555
W8 O13 1_555 1_555
W8 O18 1_555 1_555
W8 O24 1_555 1_555
W8 O29 1_555 1_555
W9 O21 1_555 1_555
W10 O6 1_555 1_555
W10 O12 1_555 1_555
W10 O14 1_555 1_555
W10 O33 1_555 1_555
W11 O10 1_555 1_555
W11 O15 1_555 1_555
W11 O26 1_555 1_555
W12 O17 1_555 1_555
W12 O19 1_555 1_555
W12 O38 1_555 1_555
N3 C6 1_555 1_555
N9 N10 1_555 1_555
N10 C12 1_555 1_555
N14 N15 1_555 1_555
N15 C13 1_555 1_555
N18 N19 1_555 1_555
N19 C24 1_555 1_555
C4 C5 1_555 1_555
C5 C6 1_555 1_555
C10 C11 1_555 1_555
C11 C12 1_555 1_555
C17 C18 1_555 1_555
C22 C23 1_555 1_555
C23 C24 1_555 1_555

#END
