
#######################################################################
#
#                 Cambridge Crystallographic Data Centre
#                                CCDC 
#
#######################################################################
#
# If this CIF has been generated from an entry in the Cambridge 
# Structural Database, then it will include bibliographic, chemical, 
# crystal, experimental, refinement or atomic coordinate data resulting 
# from the CCDC's data processing and validation procedures.
#
#######################################################################

data_LIBJAJ
_symmetry_cell_setting           monoclinic
_symmetry_space_group_name_H-M   'P 21/c'
_symmetry_Int_Tables_number      14
_space_group_name_Hall           '-P 2ybc'
loop_
_symmetry_equiv_pos_site_id
_symmetry_equiv_pos_as_xyz
1 x,y,z
2 -x,1/2+y,1/2-z
3 -x,-y,-z
4 x,1/2-y,1/2+z
_cell_length_a                   7.8623(16)
_cell_length_b                   18.323(4)
_cell_length_c                   7.7159(15)
_cell_angle_alpha                90
_cell_angle_beta                 95.70(3)
_cell_angle_gamma                90
_cell_volume                     1106.06
loop_
_atom_site_label
_atom_site_type_symbol
_atom_site_fract_x
_atom_site_fract_y
_atom_site_fract_z
Ca1 Ca 0.21916(4) 0.274385(17) 0.27917(4)
O1 O 0.33927(15) 0.19363(6) 0.52632(16)
O2 O 0.43268(15) 0.17134(6) 0.27284(16)
O3 O 0.09931(15) 0.18610(6) 0.02705(16)
O4 O 0.00738(16) 0.17435(7) 0.28580(16)
O5 O 0.45445(17) 0.34714(7) 0.41313(18)
O6 O -0.00639(17) 0.34974(7) 0.13512(18)
C1 C 0.4169(2) 0.15275(9) 0.4287(2)
C2 C 0.6055(2) 0.04219(9) 0.3872(2)
H1 H 0.7032 0.0734 0.3744
H2 H 0.5471 0.0336 0.2723
C3 C 0.4846(2) 0.08037(9) 0.5008(2)
H3 H 0.5484 0.0899 0.6142
C4 C 0.3329(2) 0.03062(9) 0.5320(2)
H4 H 0.2609 0.0550 0.6091
H5 H 0.2650 0.0216 0.4222
C5 C 0.0423(2) 0.14701(9) 0.1423(2)
C6 C 0.0183(2) 0.06554(9) 0.1120(2)
H6 H 0.0087 0.0421 0.2248
C7 C 0.1710(2) 0.03180(9) 0.0323(2)
H7 H 0.1835 0.0548 -0.0790
H8 H 0.2746 0.0408 0.1085
C8 C -0.1469(2) 0.05043(9) -0.0062(2)
H9 H -0.2438 0.0705 0.0463
H10 H -0.1411 0.0739 -0.1181
H11 H 0.545(4) 0.3348(14) 0.395(4)
H12 H 0.449(3) 0.3492(13) 0.517(4)
H13 H -0.004(3) 0.3484(14) 0.028(4)
H14 H -0.094(4) 0.3348(15) 0.157(4)
O1B O 0.66073(15) -0.19363(6) 0.47368(16)
O2B O 0.56732(15) -0.17134(6) 0.72716(16)
C1B C 0.5831(2) -0.15275(9) 0.5713(2)
C2B C 0.3945(2) -0.04219(9) 0.6128(2)
H1B H 0.2968 -0.0734 0.6256
H2B H 0.4529 -0.0336 0.7277
C3B C 0.5154(2) -0.08037(9) 0.4992(2)
H3B H 0.4516 -0.0899 0.3858
C4B C 0.6671(2) -0.03062(9) 0.4680(2)
H4B H 0.7391 -0.0550 0.3909
H5B H 0.7350 -0.0216 0.5778
O3B O -0.09931(15) -0.18610(6) -0.02705(16)
O4B O -0.00738(16) -0.17435(7) -0.28580(16)
C5B C -0.0423(2) -0.14701(9) -0.1423(2)
C6B C -0.0183(2) -0.06554(9) -0.1120(2)
H6B H -0.0087 -0.0421 -0.2248
C7B C -0.1710(2) -0.03180(9) -0.0323(2)
H7B H -0.1835 -0.0548 0.0790
H8B H -0.2746 -0.0408 -0.1085
C8B C 0.1469(2) -0.05043(9) 0.0062(2)
H9B H 0.2438 -0.0705 -0.0463
H10B H 0.1411 -0.0739 0.1181
Ca1B Ca -0.21916(4) -0.274385(17) -0.27917(4)
O5B O -0.45445(17) -0.34714(7) -0.41313(18)
O6B O 0.00639(17) -0.34974(7) -0.13512(18)
H11B H -0.545(4) -0.3348(14) -0.395(4)
H12B H -0.449(3) -0.3492(13) -0.517(4)
H13B H 0.004(3) -0.3484(14) -0.028(4)
H14B H 0.094(4) -0.3348(15) -0.157(4)
Ca1A Ca -0.21916(4) -0.225615(17) 0.22083(4)
Ca1A_2 Ca 0.78084(4) -0.225615(17) 0.22083(4)
Ca1B_2 Ca 0.78084(4) -0.274385(17) 0.72083(4)
Ca1C Ca 0.21916(4) 0.225615(17) -0.22083(4)
Ca1C_2 Ca 0.21916(4) 0.225615(17) 0.77917(4)
O1A O -0.33927(15) -0.30637(6) -0.02632(16)
O1B_2 O -0.33927(15) -0.19363(6) -0.52632(16)
O1C O 0.33927(15) 0.30637(6) 0.02632(16)
O2B_2 O -0.43268(15) -0.17134(6) -0.27284(16)
O3A O -0.09931(15) -0.31390(6) -0.52705(16)
O3C O 0.09931(15) 0.31390(6) 0.52705(16)
O7 O 0.71965(19) 0.27053(8) 0.2644(2)
H15 H 0.801(4) 0.2434(18) 0.291(4)
H16 H 0.640(4) 0.2453(16) 0.243(4)
loop_
_geom_bond_atom_site_label_1
_geom_bond_atom_site_label_2
_geom_bond_site_symmetry_1
_geom_bond_site_symmetry_2
Ca1 O1 1_555 1_555
O1 C1 1_555 1_555
O2 Ca1 1_555 1_555
O3 Ca1 1_555 1_555
O4 Ca1 1_555 1_555
O5 Ca1 1_555 1_555
O6 Ca1 1_555 1_555
C1 O2 1_555 1_555
C2 H1 1_555 1_555
H2 C2 1_555 1_555
C3 C1 1_555 1_555
H3 C3 1_555 1_555
C4 C3 1_555 1_555
H4 C4 1_555 1_555
H5 C4 1_555 1_555
C5 O3 1_555 1_555
C6 C5 1_555 1_555
H6 C6 1_555 1_555
C7 C6 1_555 1_555
H7 C7 1_555 1_555
H8 C7 1_555 1_555
C8 C6 1_555 1_555
H9 C8 1_555 1_555
H10 C8 1_555 1_555
H11 O5 1_555 1_555
H12 O5 1_555 1_555
H13 O6 1_555 1_555
H14 O6 1_555 1_555
O7 H15 1_555 1_555
H16 O7 1_555 1_555
O1B C1B 1_555 1_555
O2B C1B 1_555 1_555
C1B C3B 1_555 1_555
C2B C4 1_555 1_555
H1B C2B 1_555 1_555
H2B C2B 1_555 1_555
C3B C2B 1_555 1_555
H3B C3B 1_555 1_555
C4B C2 1_555 1_555
H4B C4B 1_555 1_555
H5B C4B 1_555 1_555
O3B C5B 1_555 1_555
O4B C5B 1_555 1_555
C5B C6B 1_555 1_555
C6B H6B 1_555 1_555
C7B C8 1_555 1_555
H7B C7B 1_555 1_555
H8B C7B 1_555 1_555
C8B C7 1_555 1_555
H9B C8B 1_555 1_555
H10B C8B 1_555 1_555
Ca1B O3B 1_555 1_555
O5B Ca1B 1_555 1_555
O6B Ca1B 1_555 1_555
H11B O5B 1_555 1_555
H12B O5B 1_555 1_555
H13B O6B 1_555 1_555
H14B O6B 1_555 1_555
Ca1A O3B 1_555 1_555
Ca1A_2 O1B 1_555 1_555
Ca1B_2 O1B 1_555 1_555
Ca1C O3 1_555 1_555
Ca1C_2 O1 1_555 1_555
O1A Ca1B 1_555 1_555
O1B_2 Ca1B 1_555 1_555
O1C Ca1 1_555 1_555
O2B_2 Ca1B 1_555 1_555
O3A Ca1B 1_555 1_555
O3C Ca1 1_555 1_555
O4 C5 1_555 1_555
C2 C3 1_555 1_555
O2B Ca1B_2 1_555 1_555
C3B C4B 1_555 1_555
O4B Ca1B 1_555 1_555
C6B C7B 1_555 1_555
C6B C8B 1_555 1_555
Ca1A O1A 1_555 1_555
Ca1C O1C 1_555 1_555
Ca1C_2 O3C 1_555 1_555

#END
