
#######################################################################
#
#                 Cambridge Crystallographic Data Centre
#                                CCDC 
#
#######################################################################
#
# If this CIF has been generated from an entry in the Cambridge 
# Structural Database, then it will include bibliographic, chemical, 
# crystal, experimental, refinement or atomic coordinate data resulting 
# from the CCDC's data processing and validation procedures.
#
#######################################################################

data_LIBKAK
_symmetry_cell_setting           triclinic
_symmetry_space_group_name_H-M   'P 1'
_symmetry_Int_Tables_number      1
_space_group_name_Hall           'P 1'
loop_
_symmetry_equiv_pos_site_id
_symmetry_equiv_pos_as_xyz
1 x,y,z
_cell_length_a                   12.1885(10)
_cell_length_b                   13.4952(10)
_cell_length_c                   14.4935(11)
_cell_angle_alpha                104.488(2)
_cell_angle_beta                 111.4850(10)
_cell_angle_gamma                106.047(2)
_cell_volume                     1960.38
loop_
_atom_site_label
_atom_site_type_symbol
_atom_site_fract_x
_atom_site_fract_y
_atom_site_fract_z
Cu1 Cu 0.2528(3) -0.4626(2) 0.6296(2)
Cu2 Cu -0.0374(3) -0.5721(2) 0.7029(2)
Cu3 Cu 0.1406(3) -0.0641(2) 0.7949(2)
Cu4 Cu 0.0813(3) 0.0322(2) 0.5437(2)
Cu5 Cu 0.6082(4) -0.0153(3) 0.6702(3)
N1 N -0.1301(17) -0.4791(14) 0.7456(16)
N2 N 0.0573(17) -0.4311(14) 0.6941(16)
N3 N 0.1531(17) -0.3838(14) 0.6780(17)
N4 N 0.1650(16) -0.2825(12) 0.6870(15)
N5 N 0.0845(16) -0.2552(14) 0.7142(14)
N6 N -0.0903(19) 0.0308(16) 0.4490(15)
N7 N -0.0270(19) -0.0288(16) 0.6088(17)
N8 N -0.013(2) -0.0523(17) 0.6981(14)
N9 N -0.120(2) -0.0705(18) 0.7011(18)
N10 N -0.210(2) -0.0626(16) 0.6153(16)
N11 N 0.4769(17) -0.0491(14) 0.5224(17)
N12 N 0.308(2) -0.3184(17) 0.5221(19)
N13 N 0.3530(19) -0.3310(15) 0.6124(16)
N14 N 0.4662(18) -0.2394(15) 0.6880(16)
N15 N 0.4833(17) -0.1748(14) 0.6327(16)
N16 N 0.7467(19) 0.0221(18) 0.8188(16)
N17 N 0.9157(18) 0.2826(15) 0.8124(14)
N18 N 0.8563(18) 0.2912(15) 0.7152(18)
N19 N 0.7493(17) 0.2125(14) 0.6509(17)
N20 N 0.7254(15) 0.1382(14) 0.6949(14)
N21 N 0.3119(19) -0.0628(15) 0.8951(15)
N22 N 0.2470(15) -0.0034(16) 0.7276(16)
N23 N 0.2424(14) 0.0295(14) 0.6513(14)
N24 N 0.3522(19) 0.0547(17) 0.6456(18)
N25 N 0.4352(16) 0.0353(19) 0.7240(17)
N26 N 0.3478(17) -0.5528(18) 0.5919(16)
N27 N 0.1630(17) -0.6029(14) 0.6454(14)
N28 N 0.0603(16) -0.6506(14) 0.6589(14)
N29 N 0.0432(16) -0.7557(15) 0.6468(15)
N30 N 0.1422(19) -0.7710(15) 0.6288(16)
C1 C -0.233(2) -0.5213(18) 0.7552(18)
H1 H -0.2639 -0.5952 0.7487
C2 C -0.294(2) -0.4528(17) 0.7754(18)
H2 H -0.3614 -0.4792 0.7905
C3 C -0.258(3) -0.345(2) 0.774(3)
H3 H -0.3024 -0.3012 0.7873
C4 C -0.157(2) -0.307(2) 0.754(2)
H4 H -0.1329 -0.2374 0.7482
C5 C -0.090(3) -0.374(2) 0.740(2)
C6 C 0.011(2) -0.354(2) 0.715(2)
C7 C -0.110(2) 0.067(2) 0.3670(18)
H5 H -0.0447 0.0884 0.3485
C8 C -0.230(3) 0.074(3) 0.308(2)
H6 H -0.2422 0.1011 0.2541
C9 C -0.328(2) 0.037(3) 0.338(2)
H7 H -0.4063 0.0429 0.3054
C10 C -0.303(3) -0.007(2) 0.416(2)
H8 H -0.3705 -0.0416 0.4289
C11 C -0.183(2) -0.0027(18) 0.476(2)
C12 C -0.150(2) -0.031(2) 0.567(2)
C13 C 0.469(2) 0.018(2) 0.467(3)
H9 H 0.5271 0.0928 0.4994
C14 C 0.372(2) -0.0252(18) 0.3614(18)
H10 H 0.3747 0.0230 0.3254
C15 C 0.280(4) -0.124(3) 0.307(3)
H11 H 0.2211 -0.1489 0.2347
C16 C 0.278(3) -0.193(3) 0.371(3)
H12 H 0.2097 -0.2623 0.3433
C17 C 0.381(2) -0.1531(17) 0.4726(16)
C18 C 0.3924(18) -0.2173(18) 0.5462(18)
C19 C 0.752(3) -0.046(2) 0.8720(19)
H13 H 0.6851 -0.1168 0.8366
C20 C 0.848(4) -0.022(4) 0.975(4)
H14 H 0.8512 -0.0719 1.0098
C21 C 0.9474(19) 0.102(3) 1.022(2)
H15 H 1.0170 0.1292 1.0902
C22 C 0.940(2) 0.165(2) 0.9743(18)
H16 H 1.0000 0.2398 1.0102
C23 C 0.842(3) 0.128(2) 0.8641(19)
C24 C 0.830(2) 0.1885(17) 0.8015(19)
C25 C 0.331(4) -0.103(2) 0.970(2)
H17 H 0.2618 -0.1359 0.9816
C26 C 0.443(3) -0.098(2) 1.029(2)
H18 H 0.4546 -0.1224 1.0848
C27 C 0.547(3) -0.057(2) 1.009(2)
H19 H 0.6273 -0.0548 1.0502
C28 C 0.526(3) -0.020(3) 0.930(2)
H20 H 0.5920 0.0070 0.9130
C29 C 0.409(3) -0.023(2) 0.8738(18)
C30 C 0.3664(17) 0.0017(15) 0.7748(17)
C31 C 0.4265(18) -0.5333(17) 0.5395(16)
H21 H 0.4378 -0.4710 0.5217
C32 C 0.4868(18) -0.6013(16) 0.5137(16)
H22 H 0.5418 -0.5839 0.4840
C33 C 0.459(2) -0.698(2) 0.536(2)
H23 H 0.4997 -0.7450 0.5230
C34 C 0.374(3) -0.7249(19) 0.576(2)
H24 H 0.3543 -0.7903 0.5880
C35 C 0.320(2) -0.6562(17) 0.5953(17)
C36 C 0.207(2) -0.683(2) 0.621(2)
O1 O 0.1197(18) -0.4964(18) 0.8913(12)
H25 H 0.1822 -0.5161 0.9107
O2 O 0.0788(14) -0.0565(15) 0.9190(12)
H26 H 0.0439 -0.1172 0.9244
H27 H 0.0889 0.0055 0.9614
O3 O 0.1417(15) 0.0190(14) 0.4178(12)
H28 H 0.2135 0.0148 0.4291
H29 H 0.0929 0.0172 0.3573
O4 O 0.1059(18) -0.5304(19) 0.4368(19)
H30 H 0.1160 -0.5742 0.3902
H31 H 0.0447 -0.5093 0.4165
P1 P 0.6127(6) -0.5169(5) 1.1695(5)
W1 W 0.90226(9) -0.45999(9) 1.14072(8)
W2 W 0.31277(9) -0.71833(7) 0.94939(7)
W3 W 0.60968(11) -0.65749(8) 0.92363(7)
W4 W 0.76494(9) -0.25247(7) 1.16126(7)
W5 W 0.45615(8) -0.77751(7) 1.17355(7)
W6 W 0.91422(8) -0.31357(7) 1.39590(7)
W7 W 0.47138(10) -0.44922(8) 0.94295(7)
W8 W 0.76428(9) -0.57100(8) 1.40148(7)
W9 W 0.75270(11) -0.71515(8) 1.14624(8)
W10 W 0.48426(11) -0.31107(8) 1.18652(9)
W11 W 0.63474(11) -0.37150(8) 1.42120(7)
W12 W 0.32471(9) -0.57957(8) 1.19291(8)
O5 O 0.5910(18) -0.7193(15) 0.8036(12)
O6 O 0.6212(19) -0.3069(17) 1.5326(15)
O7 O 0.415(2) -0.2258(18) 1.200(2)
O8 O 1.061(2) -0.2117(16) 1.4892(18)
O9 O 0.9496(14) -0.3874(16) 1.2919(13)
O10 O 0.8125(18) -0.8171(16) 1.1477(16)
O11 O 0.8491(19) -0.2444(15) 1.3055(14)
O12 O 0.8507(19) -0.337(2) 1.1247(14)
O13 O 0.2427(15) -0.6627(17) 1.0398(14)
O14 O 0.3468(17) -0.8127(14) 1.0284(14)
O15 O 0.8261(15) -0.6190(12) 1.4991(13)
O16 O 0.3983(18) -0.4414(14) 0.8236(15)
O17 O 0.3577(18) -0.7018(16) 1.2133(13)
O18 O 0.3543(17) -0.5786(14) 0.9298(14)
O19 O 0.190(2) -0.602(3) 1.209(2)
O20 O 1.037(2) -0.425(3) 1.129(2)
O21 O 0.9127(16) -0.4289(14) 1.4478(13)
O22 O 0.857(2) -0.1263(14) 1.1685(15)
O23 O 0.180(2) -0.8061(18) 0.8382(16)
O24 O 0.4042(14) -0.8968(14) 1.1907(12)
O25 O 0.7003(13) -0.4724(13) 1.4693(11)
O26 O 0.4919(14) -0.6071(13) 1.1364(12)
O27 O 0.6367(14) -0.3173(15) 1.0101(12)
O28 O 0.6018(16) -0.6803(17) 1.3121(14)
O29 O 0.7021(13) -0.4664(10) 1.2887(13)
O30 O 0.363(2) -0.4469(19) 1.1634(17)
O31 O 0.5632(15) -0.5345(13) 0.9169(12)
O32 O 0.4488(19) -0.7338(16) 0.9147(17)
O33 O 0.8983(18) -0.5949(15) 1.1600(14)
O34 O 0.6419(17) -0.2156(17) 1.1943(15)
O35 O 0.4819(14) -0.4933(12) 1.3305(13)
O36 O 0.5906(18) -0.7867(18) 1.1329(13)
O37 O 0.7900(14) -0.5525(13) 0.9902(11)
O38 O 0.8097(19) -0.6336(17) 1.2984(15)
O39 O 0.810(2) -0.2841(16) 1.4614(17)
O40 O 0.660(3) -0.7414(16) 0.9992(17)
O41 O 0.6955(13) -0.5639(11) 1.1182(11)
O42 O 0.5962(12) -0.4258(12) 1.1285(10)
O43 O 0.4180(16) -0.3642(15) 1.0315(16)
O44 O 0.589(3) -0.306(3) 1.320(2)
Cu2_2 Cu 0.9626(3) -0.5721(2) 1.7029(2)
Cu2_3 Cu 0.9626(3) 0.4279(2) 0.7029(2)
Cu4_2 Cu 0.0813(3) -0.9678(2) 0.5437(2)
N18_2 N -0.1437(18) -0.7088(15) 0.7152(18)
N30_2 N 0.1422(19) 0.2290(15) 0.6288(16)
O15_2 O -0.1739(15) -0.6190(12) 0.4991(13)
O45 O 0.111(3) 0.274(3) 0.325(2)
O46? O 0.542(3) -0.285(3) 1.348(2)
H32? H 0.1126 -0.4497 0.9381
loop_
_geom_bond_atom_site_label_1
_geom_bond_atom_site_label_2
_geom_bond_site_symmetry_1
_geom_bond_site_symmetry_2
Cu1 N3 1_555 1_555
Cu2 N1 1_555 1_555
Cu3 N5 1_555 1_555
Cu4 N6 1_555 1_555
Cu5 N11 1_555 1_555
N1 C1 1_555 1_555
N2 Cu2 1_555 1_555
N3 N2 1_555 1_555
N4 N3 1_555 1_555
N5 N4 1_555 1_555
N6 C7 1_555 1_555
N7 Cu4 1_555 1_555
N8 Cu3 1_555 1_555
N9 N8 1_555 1_555
N10 N9 1_555 1_555
N11 C13 1_555 1_555
N12 N13 1_555 1_555
N13 Cu1 1_555 1_555
N14 N13 1_555 1_555
N15 Cu5 1_555 1_555
N16 Cu5 1_555 1_555
N17 N18 1_555 1_555
N18 N19 1_555 1_555
N19 N20 1_555 1_555
N20 Cu5 1_555 1_555
N21 Cu3 1_555 1_555
N22 Cu3 1_555 1_555
N23 Cu4 1_555 1_555
N24 N23 1_555 1_555
N25 Cu5 1_555 1_555
N26 Cu1 1_555 1_555
N27 Cu1 1_555 1_555
N28 Cu2 1_555 1_555
N29 N28 1_555 1_555
N30 N29 1_555 1_555
C1 H1 1_555 1_555
C2 C1 1_555 1_555
H2 C2 1_555 1_555
C3 C2 1_555 1_555
H3 C3 1_555 1_555
C4 C3 1_555 1_555
H4 C4 1_555 1_555
C5 N1 1_555 1_555
C6 N2 1_555 1_555
C7 H5 1_555 1_555
C8 C7 1_555 1_555
H6 C8 1_555 1_555
C9 C8 1_555 1_555
H7 C9 1_555 1_555
C10 C9 1_555 1_555
H8 C10 1_555 1_555
C11 N6 1_555 1_555
C12 N7 1_555 1_555
C13 H9 1_555 1_555
C14 C13 1_555 1_555
H10 C14 1_555 1_555
C15 C14 1_555 1_555
H11 C15 1_555 1_555
C16 C15 1_555 1_555
H12 C16 1_555 1_555
C17 N11 1_555 1_555
C18 N12 1_555 1_555
C19 N16 1_555 1_555
H13 C19 1_555 1_555
C20 C19 1_555 1_555
H14 C20 1_555 1_555
C21 C20 1_555 1_555
H15 C21 1_555 1_555
C22 C21 1_555 1_555
H16 C22 1_555 1_555
C23 N16 1_555 1_555
C24 N17 1_555 1_555
C25 N21 1_555 1_555
H17 C25 1_555 1_555
C26 C25 1_555 1_555
H18 C26 1_555 1_555
C27 C26 1_555 1_555
H19 C27 1_555 1_555
C28 C27 1_555 1_555
H20 C28 1_555 1_555
C29 N21 1_555 1_555
C30 N22 1_555 1_555
C31 N26 1_555 1_555
H21 C31 1_555 1_555
C32 C31 1_555 1_555
H22 C32 1_555 1_555
C33 C32 1_555 1_555
H23 C33 1_555 1_555
C34 C33 1_555 1_555
H24 C34 1_555 1_555
C35 N26 1_555 1_555
C36 N27 1_555 1_555
O1 Cu2 1_555 1_555
H25 O1 1_555 1_555
O2 Cu3 1_555 1_555
H26 O2 1_555 1_555
H27 O2 1_555 1_555
O3 Cu4 1_555 1_555
H28 O3 1_555 1_555
H29 O3 1_555 1_555
O4 Cu1 1_555 1_555
H30 O4 1_555 1_555
H31 O4 1_555 1_555
P1 O26 1_555 1_555
W1 O9 1_555 1_555
W2 O13 1_555 1_555
W3 O5 1_555 1_555
W4 O11 1_555 1_555
W5 O14 1_555 1_555
W6 O8 1_555 1_555
W7 O16 1_555 1_555
W8 O15 1_555 1_555
W9 O10 1_555 1_555
W10 O7 1_555 1_555
W11 O6 1_555 1_555
W12 O13 1_555 1_555
O9 W6 1_555 1_555
O11 W6 1_555 1_555
O12 W1 1_555 1_555
O14 W2 1_555 1_555
O15 Cu2_2 1_555 1_555
O16 Cu1 1_555 1_555
O17 W5 1_555 1_555
O18 W2 1_555 1_555
O19 W12 1_555 1_555
O20 W1 1_555 1_555
O21 W6 1_555 1_555
O22 W4 1_555 1_555
O23 W2 1_555 1_555
O24 W5 1_555 1_555
O25 W8 1_555 1_555
O26 W2 1_555 1_555
O27 W4 1_555 1_555
O28 W5 1_555 1_555
O29 P1 1_555 1_555
O30 W10 1_555 1_555
O31 W3 1_555 1_555
O32 W2 1_555 1_555
O33 W1 1_555 1_555
O34 W4 1_555 1_555
O35 W11 1_555 1_555
O36 W5 1_555 1_555
O37 W1 1_555 1_555
O38 W8 1_555 1_555
O39 W6 1_555 1_555
O40 W3 1_555 1_555
O41 P1 1_555 1_555
O42 P1 1_555 1_555
O43 W7 1_555 1_555
O44 W10 1_555 1_555
Cu2_3 N18 1_555 1_555
Cu4_2 N30 1_555 1_555
N18_2 Cu2 1_555 1_555
N30_2 Cu4 1_555 1_555
O15_2 Cu2 1_555 1_555
N5 C6 1_555 1_555
N7 N8 1_555 1_555
N10 C12 1_555 1_555
N14 N15 1_555 1_555
N15 C18 1_555 1_555
N20 C24 1_555 1_555
N22 N23 1_555 1_555
N24 N25 1_555 1_555
N25 C30 1_555 1_555
N27 N28 1_555 1_555
N30 C36 1_555 1_555
C4 C5 1_555 1_555
C5 C6 1_555 1_555
C10 C11 1_555 1_555
C11 C12 1_555 1_555
C16 C17 1_555 1_555
C17 C18 1_555 1_555
C22 C23 1_555 1_555
C23 C24 1_555 1_555
C28 C29 1_555 1_555
C29 C30 1_555 1_555
C34 C35 1_555 1_555
C35 C36 1_555 1_555
W1 O41 1_555 1_555
W3 O32 1_555 1_555
W3 O37 1_555 1_555
W3 O41 1_555 1_555
W4 O12 1_555 1_555
W4 O42 1_555 1_555
W5 O26 1_555 1_555
W6 O29 1_555 1_555
W7 O18 1_555 1_555
W7 O27 1_555 1_555
W7 O31 1_555 1_555
W7 O42 1_555 1_555
W8 O21 1_555 1_555
W8 O28 1_555 1_555
W8 O29 1_555 1_555
W9 O33 1_555 1_555
W9 O36 1_555 1_555
W9 O38 1_555 1_555
W9 O40 1_555 1_555
W9 O41 1_555 1_555
W10 O34 1_555 1_555
W10 O43 1_555 1_555
W11 O25 1_555 1_555
W11 O39 1_555 1_555
W11 O44 1_555 1_555
W12 O17 1_555 1_555
W12 O30 1_555 1_555
W12 O35 1_555 1_555

#END
