
#######################################################################
#
#                 Cambridge Crystallographic Data Centre
#                                CCDC 
#
#######################################################################
#
# If this CIF has been generated from an entry in the Cambridge 
# Structural Database, then it will include bibliographic, chemical, 
# crystal, experimental, refinement or atomic coordinate data resulting 
# from the CCDC's data processing and validation procedures.
#
#######################################################################

data_LIBNIU01
_symmetry_cell_setting           monoclinic
_symmetry_space_group_name_H-M   'C 2/c'
_symmetry_Int_Tables_number      15
_space_group_name_Hall           '-C 2yn'
loop_
_symmetry_equiv_pos_site_id
_symmetry_equiv_pos_as_xyz
1 x,y,z
2 1/2+x,1/2+y,z
3 -x,y,1/2-z
4 1/2-x,1/2+y,1/2-z
5 -x,-y,-z
6 1/2-x,1/2-y,-z
7 x,-y,1/2+z
8 1/2+x,1/2-y,1/2+z
_cell_length_a                   19.8280(5)
_cell_length_b                   7.5130(2)
_cell_length_c                   10.7300(3)
_cell_angle_alpha                90
_cell_angle_beta                 103.440(2)
_cell_angle_gamma                90
_cell_volume                     1554.65
loop_
_atom_site_label
_atom_site_type_symbol
_atom_site_fract_x
_atom_site_fract_y
_atom_site_fract_z
Co1 Co 0.505376(12) 0.82293(3) 0.58564(2)
S1 S 0.74351(2) 0.66844(6) 0.77609(4)
O1 O 0.59208(7) 0.7070(2) 0.69238(13)
O2 O 0.92833(6) 0.51971(18) 0.96619(12)
O3 O 0.51235(9) 0.67656(19) 0.42282(14)
O4 O 0.56931(7) 0.64619(18) 0.88397(13)
O5 O 0.89085(8) 0.66271(19) 0.77919(13)
O6 O 0.5000 0.9800(3) 0.7500
C1 C 0.87994(10) 0.5880(3) 0.87637(17)
C2 C 0.78355(10) 0.4921(3) 0.98577(18)
C3 C 0.60922(10) 0.6547(2) 0.80676(18)
C4 C 0.68232(10) 0.6016(3) 0.85613(17)
C5 C 0.71117(10) 0.5095(3) 0.96613(18)
C6 C 0.80829(10) 0.5732(3) 0.89104(17)
H1 H 0.6840(12) 0.468(3) 1.019(2)
H2 H 0.8131(12) 0.433(3) 1.052(2)
H3 H 0.5317(13) 0.5771(18) 0.417(3)
H4 H 0.4731(7) 0.673(4) 0.370(2)
H5 H 0.4654(9) 1.049(3) 0.743(3)
Co1G Co 1.005376(12) 0.67707(3) 1.08564(2)
Co1C Co 0.994624(12) 0.32293(3) 0.91436(2)
Co1B Co 0.494624(12) 0.82293(3) 0.91436(2)
Co1E Co -0.005376(12) 0.67707(3) 0.41436(2)
Co1A Co 0.005376(12) 0.32293(3) 0.58564(2)
S1B S 0.25649(2) 0.66844(6) 0.72391(4)
O1B O 0.40792(7) 0.7070(2) 0.80762(13)
O2G O 0.42833(6) 0.98029(18) 0.46619(12)
O2C O 0.57167(6) 1.01971(18) 0.53381(12)
O2A O 0.42833(6) 1.01971(18) 0.96619(12)
O2E O 0.57167(6) 0.98029(18) 1.03381(12)
O2B O 0.07167(6) 0.51971(18) 0.53381(12)
O3B O 0.48765(9) 0.67656(19) 1.07718(14)
O4B O 0.43069(7) 0.64619(18) 0.61603(13)
O5B O 0.10915(8) 0.66271(19) 0.72081(13)
C1B C 0.12006(10) 0.5880(3) 0.62363(17)
C2B C 0.21645(10) 0.4921(3) 0.51423(18)
C3B C 0.39078(10) 0.6547(2) 0.69324(18)
C4B C 0.31768(10) 0.6016(3) 0.64387(17)
C5B C 0.28883(10) 0.5095(3) 0.53387(18)
C6B C 0.19171(10) 0.5732(3) 0.60896(17)
H1B H 0.3160(12) 0.468(3) 0.481(2)
H2B H 0.1869(12) 0.433(3) 0.448(2)
H3B H 0.4683(13) 0.5771(18) 1.083(3)
H4B H 0.5269(7) 0.673(4) 1.130(2)
H5B H 0.5346(9) 1.049(3) 0.757(3)
loop_
_geom_bond_atom_site_label_1
_geom_bond_atom_site_label_2
_geom_bond_site_symmetry_1
_geom_bond_site_symmetry_2
Co1 O1 1_555 1_555
S1 C4 1_555 1_555
O1 C3 1_555 1_555
O2 C1 1_555 1_555
O3 Co1 1_555 1_555
O4 C3 1_555 1_555
O5 C1 1_555 1_555
O6 Co1 1_555 1_555
C1 C6 1_555 1_555
C2 C5 1_555 1_555
C3 C4 1_555 1_555
C4 C5 1_555 1_555
C5 H1 1_555 1_555
C6 S1 1_555 1_555
H2 C2 1_555 1_555
H3 O3 1_555 1_555
H4 O3 1_555 1_555
H5 O6 1_555 1_555
Co1G O2 1_555 1_555
Co1C O2 1_555 1_555
Co1B O4 1_555 1_555
Co1E O2B 1_555 1_555
Co1A O2B 1_555 1_555
S1B C4B 1_555 1_555
O1B Co1B 1_555 1_555
O2G Co1 1_555 1_555
O2C Co1 1_555 1_555
O2A Co1B 1_555 1_555
O2E Co1B 1_555 1_555
O2B C1B 1_555 1_555
O3B Co1B 1_555 1_555
O4B Co1 1_555 1_555
O5B C1B 1_555 1_555
C1B C6B 1_555 1_555
C2B C5B 1_555 1_555
C3B O1B 1_555 1_555
C4B C3B 1_555 1_555
C5B C4B 1_555 1_555
C6B S1B 1_555 1_555
H1B C5B 1_555 1_555
H2B C2B 1_555 1_555
H3B O3B 1_555 1_555
H4B O3B 1_555 1_555
H5B O6 1_555 1_555
O6 Co1B 1_555 1_555
C2 C6 1_555 1_555
O4B C3B 1_555 1_555
C2B C6B 1_555 1_555

#END
