
#######################################################################
#
#                 Cambridge Crystallographic Data Centre
#                                CCDC 
#
#######################################################################
#
# If this CIF has been generated from an entry in the Cambridge 
# Structural Database, then it will include bibliographic, chemical, 
# crystal, experimental, refinement or atomic coordinate data resulting 
# from the CCDC's data processing and validation procedures.
#
#######################################################################

data_LIBREV
_symmetry_cell_setting           monoclinic
_symmetry_space_group_name_H-M   'P 21/c'
_symmetry_Int_Tables_number      14
_space_group_name_Hall           '-P 2ybc'
loop_
_symmetry_equiv_pos_site_id
_symmetry_equiv_pos_as_xyz
1 x,y,z
2 -x,1/2+y,1/2-z
3 -x,-y,-z
4 x,1/2-y,1/2+z
_cell_length_a                   13.7622(6)
_cell_length_b                   19.2557(8)
_cell_length_c                   10.7325(5)
_cell_angle_alpha                90
_cell_angle_beta                 109.6290(10)
_cell_angle_gamma                90
_cell_volume                     2678.84
loop_
_atom_site_label
_atom_site_type_symbol
_atom_site_fract_x
_atom_site_fract_y
_atom_site_fract_z
Mn1 Mn 0.22854(3) 0.67831(2) 0.41355(5)
F1 F 0.73119(12) 0.66096(9) 0.43007(18)
O1 O 0.26063(16) 0.52571(14) 0.7046(2)
O2 O 0.21521(16) 0.59340(12) 0.5301(2)
O3 O 0.37595(14) 0.63409(10) 0.4377(2)
O4 O 0.23554(15) 0.74645(11) 0.7685(2)
O5 O 0.26977(16) 0.74789(12) 0.5792(2)
O6 O 1.10409(15) 0.62923(11) 1.2195(2)
O7 O 1.06289(15) 0.69824(12) 1.3582(2)
N1 N 1.08408(18) 0.58646(15) 0.7247(3)
H1 H 1.1425 0.5791 0.7066
H2 H 1.1017 0.6018 0.8086
N2 N 0.86336(17) 0.58247(12) 0.6338(3)
N3 N 0.55730(17) 0.50374(12) 0.7268(2)
C1 C 0.2809(2) 0.55773(16) 0.6169(3)
C2 C 0.3904(2) 0.55493(15) 0.6159(3)
C3 C 0.4288(2) 0.59444(15) 0.5298(3)
C4 C 0.5400(2) 0.58852(14) 0.5560(3)
C5 C 0.5868(2) 0.62858(15) 0.4828(3)
H3 H 0.5471 0.6581 0.4166
C6 C 0.6901(2) 0.62427(15) 0.5086(3)
C7 C 0.7571(2) 0.58364(15) 0.6113(3)
C8 C 0.7104(2) 0.54325(15) 0.6816(3)
H4 H 0.7510 0.5147 0.7488
C9 C 0.6028(2) 0.54430(15) 0.6541(3)
C10 C 0.4559(2) 0.51190(16) 0.7072(3)
H5 H 0.4282 0.4860 0.7604
C11 C 0.6168(2) 0.45390(16) 0.8304(3)
H6 H 0.6735 0.4353 0.8061
H7 H 0.5723 0.4155 0.8342
C12 C 0.6589(3) 0.4867(2) 0.9645(4)
H8 H 0.6967 0.4527 1.0276
H9 H 0.6030 0.5042 0.9901
H10 H 0.7040 0.5243 0.9617
C13 C 0.9190(2) 0.64907(16) 0.6534(3)
H11 H 0.9295 0.6661 0.7420
H12 H 0.8779 0.6830 0.5909
C14 C 1.0218(2) 0.64049(18) 0.6340(3)
H13 H 1.0111 0.6273 0.5431
H14 H 1.0587 0.6843 0.6510
C15 C 1.0271(2) 0.52022(18) 0.7122(4)
H15 H 1.0674 0.4879 0.7790
H16 H 1.0174 0.5000 0.6260
C16 C 0.9237(2) 0.53075(17) 0.7282(3)
H17 H 0.8865 0.4870 0.7138
H18 H 0.9333 0.5461 0.8176
C17 C 0.5302(2) 0.66791(17) 0.9703(3)
H19 H 0.5455 0.6464 1.0522
C18 C 0.4288(2) 0.68469(17) 0.8997(3)
H20 H 0.3773 0.6756 0.9356
C19 C 0.4036(2) 0.71503(15) 0.7759(3)
C20 C 0.4810(2) 0.72514(16) 0.7223(3)
H21 H 0.4647 0.7426 0.6369
C21 C 0.5822(2) 0.70954(16) 0.7948(3)
H22 H 0.6331 0.7175 0.7573
C22 C 0.6103(2) 0.68250(16) 0.9215(3)
C23 C 0.7196(2) 0.67315(15) 1.0038(3)
C24 C 0.7980(2) 0.66770(17) 0.9502(3)
H23 H 0.7812 0.6675 0.8587
C25 C 0.9005(2) 0.66256(18) 1.0289(3)
H24 H 0.9512 0.6577 0.9900
C26 C 0.9280(2) 0.66457(15) 1.1650(3)
C27 C 0.8514(2) 0.67034(18) 1.2201(3)
H25 H 0.8688 0.6722 1.3116
C28 C 0.7485(2) 0.67341(18) 1.1405(3)
H26 H 0.6978 0.6757 1.1798
C29 C 0.2947(2) 0.73756(16) 0.7026(3)
C30 C 1.0389(2) 0.66353(17) 1.2528(3)
Mn1_2 Mn 1.22854(3) 0.67831(2) 1.41355(5)
Mn1C Mn 0.22854(3) 0.82169(2) 0.91355(5)
O4C O 0.23554(15) 0.75355(11) 0.2685(2)
O6_2 O 0.10409(15) 0.62923(11) 0.2195(2)
O7_2 O 0.06289(15) 0.69824(12) 0.3582(2)
O8 O 1.1447(2) 0.63321(15) 0.9855(3)
H27 H 1.120(3) 0.6263(19) 1.047(3)
H28 H 1.177(3) 0.6710(13) 1.000(4)
loop_
_geom_bond_atom_site_label_1
_geom_bond_atom_site_label_2
_geom_bond_site_symmetry_1
_geom_bond_site_symmetry_2
Mn1 O2 1_555 1_555
F1 C6 1_555 1_555
O1 C1 1_555 1_555
O2 C1 1_555 1_555
O3 Mn1 1_555 1_555
O4 C29 1_555 1_555
O5 Mn1 1_555 1_555
O6 C30 1_555 1_555
O7 C30 1_555 1_555
N1 H1 1_555 1_555
H2 N1 1_555 1_555
N2 C7 1_555 1_555
N3 C9 1_555 1_555
C1 C2 1_555 1_555
C2 C3 1_555 1_555
C3 O3 1_555 1_555
C4 C3 1_555 1_555
C5 C4 1_555 1_555
H3 C5 1_555 1_555
C6 C5 1_555 1_555
C7 C6 1_555 1_555
C8 C7 1_555 1_555
H4 C8 1_555 1_555
C9 C4 1_555 1_555
C10 N3 1_555 1_555
H5 C10 1_555 1_555
C11 N3 1_555 1_555
H6 C11 1_555 1_555
H7 C11 1_555 1_555
C12 C11 1_555 1_555
H8 C12 1_555 1_555
H9 C12 1_555 1_555
H10 C12 1_555 1_555
C13 N2 1_555 1_555
H11 C13 1_555 1_555
H12 C13 1_555 1_555
C14 N1 1_555 1_555
H13 C14 1_555 1_555
H14 C14 1_555 1_555
C15 N1 1_555 1_555
H15 C15 1_555 1_555
H16 C15 1_555 1_555
C16 N2 1_555 1_555
H17 C16 1_555 1_555
H18 C16 1_555 1_555
C17 H19 1_555 1_555
C18 C17 1_555 1_555
H20 C18 1_555 1_555
C19 C18 1_555 1_555
C20 C19 1_555 1_555
H21 C20 1_555 1_555
C21 C20 1_555 1_555
H22 C21 1_555 1_555
C22 C17 1_555 1_555
C23 C22 1_555 1_555
C24 C23 1_555 1_555
H23 C24 1_555 1_555
C25 C24 1_555 1_555
H24 C25 1_555 1_555
C26 C25 1_555 1_555
C27 C26 1_555 1_555
H25 C27 1_555 1_555
C28 C23 1_555 1_555
H26 C28 1_555 1_555
C29 O5 1_555 1_555
C30 C26 1_555 1_555
O8 H27 1_555 1_555
H28 O8 1_555 1_555
Mn1_2 O6 1_555 1_555
Mn1C O4 1_555 1_555
O4C Mn1 1_555 1_555
O6_2 Mn1 1_555 1_555
O7_2 Mn1 1_555 1_555
O7 Mn1_2 1_555 1_555
C2 C10 1_555 1_555
C8 C9 1_555 1_555
C13 C14 1_555 1_555
C15 C16 1_555 1_555
C19 C29 1_555 1_555
C21 C22 1_555 1_555
C27 C28 1_555 1_555

#END
