
#######################################################################
#
#                 Cambridge Crystallographic Data Centre
#                                CCDC 
#
#######################################################################
#
# If this CIF has been generated from an entry in the Cambridge 
# Structural Database, then it will include bibliographic, chemical, 
# crystal, experimental, refinement or atomic coordinate data resulting 
# from the CCDC's data processing and validation procedures.
#
#######################################################################

data_LIBWAW
_symmetry_cell_setting           triclinic
_symmetry_space_group_name_H-M   'P -1'
_symmetry_Int_Tables_number      2
_space_group_name_Hall           '-P 1'
loop_
_symmetry_equiv_pos_site_id
_symmetry_equiv_pos_as_xyz
1 x,y,z
2 -x,-y,-z
_cell_length_a                   10.138(4)
_cell_length_b                   11.187(5)
_cell_length_c                   13.582(6)
_cell_angle_alpha                69.146(7)
_cell_angle_beta                 89.628(7)
_cell_angle_gamma                77.076(7)
_cell_volume                     1398.48
loop_
_atom_site_label
_atom_site_type_symbol
_atom_site_fract_x
_atom_site_fract_y
_atom_site_fract_z
Mn1 Mn 0.04898(5) 0.57063(5) 0.67705(4)
S1 S 0.50297(9) -0.23870(8) 0.84813(7)
N1 N 0.2002(3) 0.6432(3) 0.5659(2)
N2 N 0.3919(3) 0.6948(3) 0.5101(3)
N3 N 0.0116(3) 0.7533(3) 0.7143(3)
N4 N -0.0901(4) 0.9031(4) 0.7771(3)
O1 O 0.2189(3) 0.3956(2) 0.7780(2)
O2 O 0.1045(2) 0.3759(2) 0.64983(19)
O3 O 0.6400(3) -0.2510(3) 0.8846(2)
O4 O 0.4787(3) -0.2808(2) 0.7629(2)
O5 O 0.0878(3) -0.5032(3) 1.2059(2)
O6 O 0.2566(3) -0.5054(3) 1.3112(2)
C1 C 0.1946(4) 0.3292(3) 0.7257(3)
C2 C 0.2749(3) 0.1888(3) 0.7545(3)
C3 C 0.2575(4) 0.1163(4) 0.6943(3)
H1 H 0.1972 0.1550 0.6341
C4 C 0.3283(4) -0.0129(4) 0.7219(3)
H2 H 0.3162 -0.0604 0.6802
C5 C 0.4156(4) -0.0709(3) 0.8100(3)
C6 C 0.4364(5) 0.0002(4) 0.8699(4)
H3 H 0.4983 -0.0387 0.9291
C7 C 0.3657(5) 0.1292(4) 0.8422(4)
H4 H 0.3797 0.1768 0.8835
C8 C 0.2018(4) -0.4833(4) 1.2226(3)
C9 C 0.2784(4) -0.4261(3) 1.1278(3)
C10 C 0.2232(4) -0.3934(4) 1.0261(3)
H5 H 0.1389 -0.4087 1.0155
C11 C 0.2920(4) -0.3385(4) 0.9407(3)
H6 H 0.2542 -0.3155 0.8723
C12 C 0.4186(4) -0.3176(3) 0.9575(3)
C13 C 0.4773(4) -0.3539(3) 1.0583(3)
H7 H 0.5635 -0.3425 1.0688
C14 C 0.4060(4) -0.4075(3) 1.1433(3)
H8 H 0.4440 -0.4312 1.2117
C15 C 0.3148(4) 0.6675(4) 0.5912(3)
H9 H 0.3386 0.6657 0.6578
C16 C 0.2068(4) 0.6565(4) 0.4620(3)
H10 H 0.1401 0.6460 0.4213
C17 C 0.3243(5) 0.6873(4) 0.4274(3)
H11 H 0.3533 0.7008 0.3600
C18 C 0.5226(4) 0.7306(4) 0.5118(4)
H12 H 0.5709 0.7191 0.4527
H13 H 0.5769 0.6712 0.5763
C19 C 0.5076(4) 0.8708(4) 0.5056(3)
C20 C 0.6106(4) 0.9005(4) 0.5528(3)
H14 H 0.6858 0.8340 0.5886
C21 C 0.6029(4) 1.0274(4) 0.5472(3)
H15 H 0.6730 1.0451 0.5794
C22 C -0.0650(4) 0.7767(4) 0.7870(4)
H16 H -0.0978 0.7129 0.8391
C23 C 0.0335(5) 0.8727(4) 0.6539(4)
H17 H 0.0836 0.8882 0.5949
C24 C -0.0280(5) 0.9647(5) 0.6921(5)
H18 H -0.0279 1.0536 0.6651
C25 C -0.1704(5) 0.9637(6) 0.8454(5)
H19 H -0.2297 0.9083 0.8825
H20 H -0.2270 1.0484 0.8017
C26 C -0.0812(5) 0.9831(6) 0.9261(5)
C27 C -0.0389(6) 0.8850(6) 1.0223(6)
H21 H -0.0654 0.8062 1.0386
C28 C 0.0429(6) 0.9011(5) 1.0959(5)
H22 H 0.0718 0.8327 1.1604
O7 O -0.1117(3) 0.6393(3) 0.5502(2)
H23 H -0.099(4) 0.624(4) 0.494(2)
H24 H -0.169(3) 0.601(4) 0.586(3)
N1A N 0.7998(3) 1.3568(3) 0.4341(2)
N2A N 0.6081(3) 1.3052(3) 0.4899(3)
C15A C 0.6852(4) 1.3325(4) 0.4088(3)
H9A H 0.6614 1.3343 0.3422
C16A C 0.7932(4) 1.3435(4) 0.5380(3)
H10A H 0.8599 1.3540 0.5787
C17A C 0.6757(5) 1.3127(4) 0.5726(3)
H11A H 0.6467 1.2992 0.6400
C18A C 0.4774(4) 1.2694(4) 0.4882(4)
H12A H 0.4291 1.2809 0.5473
H13A H 0.4231 1.3288 0.4237
C19A C 0.4924(4) 1.1292(4) 0.4944(3)
C20A C 0.3894(4) 1.0995(4) 0.4472(3)
H14A H 0.3142 1.1660 0.4114
C21A C 0.3971(4) 0.9726(4) 0.4528(3)
H15A H 0.3270 0.9549 0.4206
N3A N -0.0116(3) 1.2467(3) 1.2857(3)
N4A N 0.0901(4) 1.0969(4) 1.2229(3)
C22A C 0.0650(4) 1.2233(4) 1.2130(4)
H16A H 0.0978 1.2871 1.1609
C23A C -0.0335(5) 1.1273(4) 1.3461(4)
H17A H -0.0836 1.1118 1.4051
C24A C 0.0280(5) 1.0353(5) 1.3079(5)
H18A H 0.0279 0.9464 1.3349
C25A C 0.1704(5) 1.0363(6) 1.1546(5)
H19A H 0.2297 1.0917 1.1175
H20A H 0.2270 0.9516 1.1983
C26A C 0.0812(5) 1.0169(6) 1.0739(5)
C27A C 0.0389(6) 1.1150(6) 0.9777(6)
H21A H 0.0654 1.1938 0.9614
C28A C -0.0429(6) 1.0989(5) 0.9041(5)
H22A H -0.0718 1.1673 0.8396
Mn1A Mn -0.04898(5) -0.57063(5) 1.32295(4)
S1A S -0.50297(9) 0.23870(8) 1.15187(7)
O1A O -0.2189(3) -0.3956(2) 1.2220(2)
O2A O -0.1045(2) -0.3759(2) 1.35017(19)
O3A O -0.6400(3) 0.2510(3) 1.1154(2)
O4A O -0.4787(3) 0.2808(2) 1.2371(2)
O5A O -0.0878(3) 0.5032(3) 0.7941(2)
O6A O -0.2566(3) 0.5054(3) 0.6888(2)
C1A C -0.1946(4) -0.3292(3) 1.2743(3)
C2A C -0.2749(3) -0.1888(3) 1.2455(3)
C3A C -0.2575(4) -0.1163(4) 1.3057(3)
H1A H -0.1972 -0.1550 1.3659
C4A C -0.3283(4) 0.0129(4) 1.2781(3)
H2A H -0.3162 0.0604 1.3198
C5A C -0.4156(4) 0.0709(3) 1.1900(3)
C6A C -0.4364(5) -0.0002(4) 1.1301(4)
H3A H -0.4983 0.0387 1.0709
C7A C -0.3657(5) -0.1292(4) 1.1578(4)
H4A H -0.3797 -0.1768 1.1165
C8A C -0.2018(4) 0.4833(4) 0.7774(3)
C9A C -0.2784(4) 0.4261(3) 0.8722(3)
C10A C -0.2232(4) 0.3934(4) 0.9739(3)
H5A H -0.1389 0.4087 0.9845
C11A C -0.2920(4) 0.3385(4) 1.0593(3)
H6A H -0.2542 0.3155 1.1277
C12A C -0.4186(4) 0.3176(3) 1.0425(3)
C13A C -0.4773(4) 0.3539(3) 0.9417(3)
H7A H -0.5635 0.3425 0.9312
C14A C -0.4060(4) 0.4075(3) 0.8567(3)
H8A H -0.4440 0.4312 0.7883
O7A O 0.1117(3) -0.6393(3) 1.4498(2)
H23A H 0.099(4) -0.624(4) 1.506(2)
H24A H 0.169(3) -0.601(4) 1.414(3)
Mn1A_2 Mn -0.04898(5) 1.42937(5) 1.32295(4)
Mn1A_3 Mn 0.95102(5) 1.42937(5) 0.32295(4)
N1A_2 N -0.2002(3) -0.6432(3) 1.4341(2)
N3A_2 N -0.0116(3) -0.7533(3) 1.2857(3)
loop_
_geom_bond_atom_site_label_1
_geom_bond_atom_site_label_2
_geom_bond_site_symmetry_1
_geom_bond_site_symmetry_2
Mn1 N1 1_555 1_555
S1 O3 1_555 1_555
N1 C15 1_555 1_555
N2 C15 1_555 1_555
N3 Mn1 1_555 1_555
N4 C22 1_555 1_555
O1 Mn1 1_555 1_555
O2 Mn1 1_555 1_555
O4 S1 1_555 1_555
O5 C8 1_555 1_555
O6 C8 1_555 1_555
C1 O1 1_555 1_555
C2 C1 1_555 1_555
C3 C2 1_555 1_555
H1 C3 1_555 1_555
C4 C3 1_555 1_555
H2 C4 1_555 1_555
C5 S1 1_555 1_555
C6 C5 1_555 1_555
H3 C6 1_555 1_555
C7 C2 1_555 1_555
H4 C7 1_555 1_555
C8 C9 1_555 1_555
C9 C10 1_555 1_555
C10 H5 1_555 1_555
C11 C10 1_555 1_555
H6 C11 1_555 1_555
C12 S1 1_555 1_555
C13 C12 1_555 1_555
H7 C13 1_555 1_555
C14 C9 1_555 1_555
H8 C14 1_555 1_555
C15 H9 1_555 1_555
C16 N1 1_555 1_555
H10 C16 1_555 1_555
C17 N2 1_555 1_555
H11 C17 1_555 1_555
C18 N2 1_555 1_555
H12 C18 1_555 1_555
H13 C18 1_555 1_555
C19 C18 1_555 1_555
C20 C19 1_555 1_555
H14 C20 1_555 1_555
C21 C20 1_555 1_555
H15 C21 1_555 1_555
C22 N3 1_555 1_555
H16 C22 1_555 1_555
C23 N3 1_555 1_555
H17 C23 1_555 1_555
C24 N4 1_555 1_555
H18 C24 1_555 1_555
C25 N4 1_555 1_555
H19 C25 1_555 1_555
H20 C25 1_555 1_555
C26 C25 1_555 1_555
C27 C26 1_555 1_555
H21 C27 1_555 1_555
C28 C27 1_555 1_555
H22 C28 1_555 1_555
O7 Mn1 1_555 1_555
H23 O7 1_555 1_555
H24 O7 1_555 1_555
N1A C15A 1_555 1_555
N2A C15A 1_555 1_555
C15A H9A 1_555 1_555
C16A N1A 1_555 1_555
H10A C16A 1_555 1_555
C17A N2A 1_555 1_555
H11A C17A 1_555 1_555
C18A N2A 1_555 1_555
H12A C18A 1_555 1_555
H13A C18A 1_555 1_555
C19A C21 1_555 1_555
C20A C19A 1_555 1_555
H14A C20A 1_555 1_555
C21A C19 1_555 1_555
H15A C21A 1_555 1_555
N3A C22A 1_555 1_555
N4A C22A 1_555 1_555
C22A H16A 1_555 1_555
C23A N3A 1_555 1_555
H17A C23A 1_555 1_555
C24A N4A 1_555 1_555
H18A C24A 1_555 1_555
C25A N4A 1_555 1_555
H19A C25A 1_555 1_555
H20A C25A 1_555 1_555
C26A C28 1_555 1_555
C27A C26A 1_555 1_555
H21A C27A 1_555 1_555
C28A C26 1_555 1_555
H22A C28A 1_555 1_555
Mn1A O5 1_555 1_555
S1A O3A 1_555 1_555
O1A Mn1A 1_555 1_555
O2A Mn1A 1_555 1_555
O4A S1A 1_555 1_555
O5A Mn1 1_555 1_555
O6A C8A 1_555 1_555
C1A O1A 1_555 1_555
C2A C1A 1_555 1_555
C3A C2A 1_555 1_555
H1A C3A 1_555 1_555
C4A C3A 1_555 1_555
H2A C4A 1_555 1_555
C5A S1A 1_555 1_555
C6A C5A 1_555 1_555
H3A C6A 1_555 1_555
C7A C2A 1_555 1_555
H4A C7A 1_555 1_555
C8A O5A 1_555 1_555
C9A C8A 1_555 1_555
C10A C9A 1_555 1_555
H5A C10A 1_555 1_555
C11A C10A 1_555 1_555
H6A C11A 1_555 1_555
C12A S1A 1_555 1_555
C13A C12A 1_555 1_555
H7A C13A 1_555 1_555
C14A C9A 1_555 1_555
H8A C14A 1_555 1_555
O7A Mn1A 1_555 1_555
H23A O7A 1_555 1_555
H24A O7A 1_555 1_555
Mn1A_2 N3A 1_555 1_555
Mn1A_3 N1A 1_555 1_555
N1A_2 Mn1A 1_555 1_555
N3A_2 Mn1A 1_555 1_555
O2 C1 1_555 1_555
C4 C5 1_555 1_555
C6 C7 1_555 1_555
C11 C12 1_555 1_555
C13 C14 1_555 1_555
C16 C17 1_555 1_555
C23 C24 1_555 1_555
C16A C17A 1_555 1_555
C18A C19A 1_555 1_555
C20A C21A 1_555 1_555
C23A C24A 1_555 1_555
C25A C26A 1_555 1_555
C27A C28A 1_555 1_555
O2A C1A 1_555 1_555
C4A C5A 1_555 1_555
C6A C7A 1_555 1_555
C11A C12A 1_555 1_555
C13A C14A 1_555 1_555

#END
