
#######################################################################
#
#                 Cambridge Crystallographic Data Centre
#                                CCDC 
#
#######################################################################
#
# If this CIF has been generated from an entry in the Cambridge 
# Structural Database, then it will include bibliographic, chemical, 
# crystal, experimental, refinement or atomic coordinate data resulting 
# from the CCDC's data processing and validation procedures.
#
#######################################################################

data_LIBYUS
_symmetry_cell_setting           monoclinic
_symmetry_space_group_name_H-M   'P 21/c'
_symmetry_Int_Tables_number      14
_space_group_name_Hall           '-P 2ybc'
loop_
_symmetry_equiv_pos_site_id
_symmetry_equiv_pos_as_xyz
1 x,y,z
2 -x,1/2+y,1/2-z
3 -x,-y,-z
4 x,1/2-y,1/2+z
_cell_length_a                   9.4194(3)
_cell_length_b                   24.4525(12)
_cell_length_c                   10.5548(4)
_cell_angle_alpha                90
_cell_angle_beta                 96.445(3)
_cell_angle_gamma                90
_cell_volume                     2415.7
loop_
_atom_site_label
_atom_site_type_symbol
_atom_site_fract_x
_atom_site_fract_y
_atom_site_fract_z
C1 C 0.7297(2) 0.15838(9) 0.07248(18)
H1 H 0.7392 0.1755 -0.0048
C2 C 0.6841(2) 0.10456(9) 0.0735(2)
H2 H 0.6631 0.0864 -0.0037
C3 C 0.70502(19) 0.10503(8) 0.29089(18)
C4 C 0.75004(17) 0.15946(7) 0.29078(16)
C5 C 0.78827(19) 0.19275(7) 0.41164(17)
C6 C 0.6901(3) 0.07152(8) 0.4092(2)
C7 C 0.5394(2) 0.35335(10) 0.1805(2)
H3 H 0.5766 0.3725 0.1155
C8 C 0.5083(2) 0.29403(10) 0.3231(2)
H4 H 0.5211 0.2638 0.3765
C9 C 0.4020(2) 0.33076(12) 0.3233(2)
H5 H 0.3285 0.3304 0.3753
C10 C 0.3366(3) 0.41701(16) 0.1982(3)
H6 H 0.2600 0.4192 0.2508
H7 H 0.2979 0.4146 0.1103
H8 H 0.3953 0.4491 0.2107
C11 C 0.9264(2) 0.40681(9) 0.2542(2)
H9 H 0.8732 0.4179 0.1790
C12 C 1.0196(2) 0.35766(9) 0.4095(2)
H10 H 1.0425 0.3278 0.4623
C13 C 1.0709(2) 0.40900(10) 0.4299(2)
H11 H 1.1346 0.4208 0.4981
C14 C 1.0360(4) 0.49792(10) 0.3084(4)
H12 H 1.1000 0.5124 0.3776
H13 H 0.9470 0.5173 0.3030
H14 H 1.0776 0.5021 0.2301
C15 C 1.1187(2) 0.20829(9) 0.2166(2)
H15 H 1.0816 0.1849 0.2741
C16 C 1.2630(2) 0.24410(11) 0.0943(3)
H16 H 1.3419 0.2508 0.0509
C17 C 1.1427(3) 0.27403(9) 0.0877(2)
H17 H 1.1242 0.3053 0.0385
C18 C 1.3500(3) 0.15911(14) 0.2151(4)
H18 H 1.3110 0.1353 0.2747
H19 H 1.4370 0.1751 0.2546
H20 H 1.3695 0.1385 0.1416
N1 N 0.75982(16) 0.18574(6) 0.18080(15)
N2 N 0.6694(2) 0.07808(7) 0.18119(17)
N3 N 0.59496(19) 0.30810(8) 0.23196(18)
N4 N 0.4228(2) 0.36852(9) 0.2330(2)
N5 N 0.92865(19) 0.35674(7) 0.29906(17)
N6 N 1.0109(2) 0.43999(7) 0.3308(2)
N7 N 1.05161(17) 0.25113(7) 0.16517(17)
N8 N 1.24743(19) 0.20234(8) 0.1762(2)
O1 O 0.83153(17) 0.24031(6) 0.40036(13)
O2 O 0.77292(17) 0.16962(6) 0.51437(13)
O3 O 0.8009(2) 0.04875(7) 0.45921(17)
O4 O 0.5684(2) 0.06795(8) 0.44197(18)
Cd1 Cd 0.826777(14) 0.281017(5) 0.197923(13)
O2C O 0.77292(17) 0.33038(6) 0.01437(13)
Cd1C Cd 0.826777(14) 0.218983(5) 0.697923(13)
O5 O 0.0661(3) 0.10453(9) 0.4135(3)
H21 H 0.132(3) 0.0817(13) 0.409(4)
H22 H -0.005(3) 0.0857(14) 0.431(4)
O6 O 0.2976(2) 0.02867(8) 0.3672(2)
H23 H 0.289(4) 0.0010(11) 0.416(3)
H24 H 0.384(2) 0.0381(14) 0.382(4)
O7 O 0.3673(5) 0.01214(15) 0.1108(3)
H25 H 0.335(6) 0.015(3) 0.184(3)
H26 H 0.450(4) -0.003(3) 0.134(5)
loop_
_geom_bond_atom_site_label_1
_geom_bond_atom_site_label_2
_geom_bond_site_symmetry_1
_geom_bond_site_symmetry_2
C1 H1 1_555 1_555
C2 C1 1_555 1_555
H2 C2 1_555 1_555
C3 C4 1_555 1_555
C4 C5 1_555 1_555
C5 O1 1_555 1_555
C6 C3 1_555 1_555
C7 H3 1_555 1_555
C8 H4 1_555 1_555
C9 C8 1_555 1_555
H5 C9 1_555 1_555
C10 H6 1_555 1_555
H7 C10 1_555 1_555
H8 C10 1_555 1_555
C11 H9 1_555 1_555
C12 H10 1_555 1_555
C13 C12 1_555 1_555
H11 C13 1_555 1_555
C14 H12 1_555 1_555
H13 C14 1_555 1_555
H14 C14 1_555 1_555
C15 H15 1_555 1_555
C16 H16 1_555 1_555
C17 C16 1_555 1_555
H17 C17 1_555 1_555
C18 H18 1_555 1_555
H19 C18 1_555 1_555
H20 C18 1_555 1_555
N1 C1 1_555 1_555
N2 C2 1_555 1_555
N3 C7 1_555 1_555
N4 C7 1_555 1_555
N5 C11 1_555 1_555
N6 C11 1_555 1_555
N7 C15 1_555 1_555
N8 C15 1_555 1_555
O1 Cd1 1_555 1_555
O2 C5 1_555 1_555
O3 C6 1_555 1_555
O4 C6 1_555 1_555
Cd1 N1 1_555 1_555
O5 H21 1_555 1_555
H22 O5 1_555 1_555
O6 H23 1_555 1_555
H24 O6 1_555 1_555
O7 H25 1_555 1_555
H26 O7 1_555 1_555
O2C Cd1 1_555 1_555
Cd1C O2 1_555 1_555
C3 N2 1_555 1_555
C4 N1 1_555 1_555
C8 N3 1_555 1_555
C9 N4 1_555 1_555
C10 N4 1_555 1_555
C12 N5 1_555 1_555
C13 N6 1_555 1_555
C14 N6 1_555 1_555
C16 N8 1_555 1_555
C17 N7 1_555 1_555
C18 N8 1_555 1_555
N3 Cd1 1_555 1_555
N5 Cd1 1_555 1_555
N7 Cd1 1_555 1_555

#END
