
#######################################################################
#
#                 Cambridge Crystallographic Data Centre
#                                CCDC 
#
#######################################################################
#
# If this CIF has been generated from an entry in the Cambridge 
# Structural Database, then it will include bibliographic, chemical, 
# crystal, experimental, refinement or atomic coordinate data resulting 
# from the CCDC's data processing and validation procedures.
#
#######################################################################

data_LIBZED
_symmetry_cell_setting           triclinic
_symmetry_space_group_name_H-M   'P -1'
_symmetry_Int_Tables_number      2
_space_group_name_Hall           '-P 1'
loop_
_symmetry_equiv_pos_site_id
_symmetry_equiv_pos_as_xyz
1 x,y,z
2 -x,-y,-z
_cell_length_a                   10.4454(4)
_cell_length_b                   11.6829(4)
_cell_length_c                   15.9242(6)
_cell_angle_alpha                69.168(3)
_cell_angle_beta                 72.880(2)
_cell_angle_gamma                74.300(3)
_cell_volume                     1705.55
loop_
_atom_site_label
_atom_site_type_symbol
_atom_site_fract_x
_atom_site_fract_y
_atom_site_fract_z
C1 C 0.7832(5) 0.3497(4) 0.0317(3)
H1 H 0.7333 0.2969 0.0816
C2 C 0.8614(6) 0.3086(4) -0.0430(3)
H2 H 0.8613 0.2288 -0.0425
C3 C 0.9356(4) 0.4940(4) -0.1128(3)
C4 C 0.8571(4) 0.5373(4) -0.0397(3)
C5 C 1.0230(4) 0.5683(4) -0.1976(3)
C6 C 0.8480(5) 0.6633(4) -0.0309(3)
C7 C 0.4544(5) 0.4232(6) 0.1503(4)
H3 H 0.4465 0.4676 0.0901
C8 C 0.3709(6) 0.3485(7) 0.2116(4)
H4 H 0.2948 0.3314 0.2026
C9 C 0.5286(5) 0.3505(5) 0.2755(3)
C10 C 0.6033(7) 0.3242(8) 0.3469(4)
H5 H 0.6991 0.3009 0.3230
H6 H 0.5725 0.2572 0.3990
H7 H 0.5875 0.3973 0.3657
C11 C 0.4350(6) 0.6536(6) 0.2542(5)
H8 H 0.3803 0.6069 0.2488
C12 C 0.3949(7) 0.7325(7) 0.3050(5)
H9 H 0.3086 0.7499 0.3413
C13 C 0.6107(6) 0.7314(5) 0.2364(3)
C14 C 0.7478(7) 0.7624(7) 0.2091(5)
H10 H 0.7546 0.8054 0.2485
H11 H 0.7630 0.8148 0.1464
H12 H 0.8150 0.6871 0.2146
N1 N 0.7797(4) 0.4646(3) 0.0318(2)
N2 N 0.9367(4) 0.3803(4) -0.1153(3)
N3 N 0.5542(4) 0.4244(4) 0.1902(2)
N4 N 0.4199(4) 0.3022(4) 0.2899(3)
H13 H 0.3859 0.2504 0.3403
N5 N 0.5711(4) 0.6531(4) 0.2113(3)
N6 N 0.5048(6) 0.7820(5) 0.2930(3)
H14 H 0.5067 0.8364 0.3172
O1 O 0.7629(4) 0.6858(3) 0.0400(2)
O2 O 0.9212(4) 0.7336(3) -0.0894(2)
O3 O 1.1470(3) 0.5517(3) -0.2056(2)
O4 O 0.9574(3) 0.6390(3) -0.25831(18)
Cu1 Cu 0.67855(5) 0.54767(5) 0.13161(3)
C15 C 0.9931(5) 0.9110(4) -0.2956(3)
H15 H 0.9437 0.8615 -0.2431
C16 C 1.0026(6) 1.0284(4) -0.2983(3)
H16 H 0.9588 1.0561 -0.2472
C17 C 1.1341(4) 1.0597(3) -0.4443(3)
C18 C 1.1247(4) 0.9432(3) -0.4424(2)
C19 C 1.2145(4) 1.1466(4) -0.5255(3)
C20 C 1.1896(4) 0.8877(4) -0.5210(3)
C21 C 1.2440(5) 0.5014(4) -0.4496(3)
H17 H 1.3143 0.5464 -0.4720
C22 C 1.2559(6) 0.3843(5) -0.4506(4)
H18 H 1.3345 0.3335 -0.4727
C23 C 1.0445(5) 0.4518(4) -0.3886(3)
C24 C 0.8978(5) 0.4527(5) -0.3450(4)
H19 H 0.8518 0.5364 -0.3468
H20 H 0.8583 0.4214 -0.3779
H21 H 0.8882 0.4008 -0.2822
N7 N 1.0541(3) 0.8689(3) -0.3676(2)
N8 N 1.0728(4) 1.1032(3) -0.3720(2)
N9 N 1.1114(4) 0.5443(3) -0.4102(2)
N10 N 1.1301(5) 0.3554(4) -0.4128(3)
H22 H 1.1087 0.2859 -0.4056
O5 O 1.1679(3) 0.7797(3) -0.50554(19)
O6 O 1.2552(4) 0.9486(3) -0.5921(2)
O7 O 1.1527(3) 1.2286(3) -0.5816(2)
O8 O 1.3377(3) 1.1334(3) -0.5268(2)
Cu2 Cu 1.05252(5) 0.70693(4) -0.38602(3)
O3A O 0.8530(3) 0.4483(3) 0.2056(2)
Cu1A Cu 1.32145(5) 0.45233(5) -0.13161(3)
O7A O 0.8473(3) 0.7714(3) -0.4184(2)
Cu2A Cu 0.94748(5) 1.29307(4) -0.61398(3)
C25 C 1.1249(12) 0.0227(13) 0.0623(9)
H23 H 1.1506 0.0758 0.0863
H24 H 1.1563 0.0461 -0.0034
H25 H 1.1651 -0.0623 0.0887
O9 O 0.9859(9) 0.0351(8) 0.0844(6)
H26 H 0.9653 -0.0341 0.1038
O10 O 1.4497(4) 0.0399(5) 0.6300(3)
H27 H 1.398(5) 0.078(7) 0.594(4)
H28 H 1.525(3) 0.041(8) 0.595(4)
O11 O 0.6861(10) 0.0969(7) 0.1859(5)
H29 H 0.648(12) 0.120(15) 0.139(6)
H30 H 0.771(4) 0.096(3) 0.153(7)
loop_
_geom_bond_atom_site_label_1
_geom_bond_atom_site_label_2
_geom_bond_site_symmetry_1
_geom_bond_site_symmetry_2
C1 H1 1_555 1_555
C2 C1 1_555 1_555
H2 C2 1_555 1_555
C3 C4 1_555 1_555
C4 C6 1_555 1_555
C5 C3 1_555 1_555
C6 O1 1_555 1_555
C7 H3 1_555 1_555
C8 C7 1_555 1_555
H4 C8 1_555 1_555
C9 C10 1_555 1_555
C10 H5 1_555 1_555
H6 C10 1_555 1_555
H7 C10 1_555 1_555
C11 H8 1_555 1_555
C12 C11 1_555 1_555
H9 C12 1_555 1_555
C13 C14 1_555 1_555
C14 H10 1_555 1_555
H11 C14 1_555 1_555
H12 C14 1_555 1_555
N1 C1 1_555 1_555
N2 C2 1_555 1_555
N3 C7 1_555 1_555
N4 C8 1_555 1_555
H13 N4 1_555 1_555
N5 C11 1_555 1_555
N6 C12 1_555 1_555
H14 N6 1_555 1_555
O1 Cu1 1_555 1_555
O2 C6 1_555 1_555
O3 C5 1_555 1_555
O4 C5 1_555 1_555
Cu1 N1 1_555 1_555
C15 H15 1_555 1_555
C16 C15 1_555 1_555
H16 C16 1_555 1_555
C17 C18 1_555 1_555
C18 C20 1_555 1_555
C19 C17 1_555 1_555
C20 O5 1_555 1_555
C21 H17 1_555 1_555
C22 C21 1_555 1_555
H18 C22 1_555 1_555
C23 C24 1_555 1_555
C24 H19 1_555 1_555
H20 C24 1_555 1_555
H21 C24 1_555 1_555
N7 C15 1_555 1_555
N8 C16 1_555 1_555
N9 C21 1_555 1_555
N10 C22 1_555 1_555
H22 N10 1_555 1_555
O5 Cu2 1_555 1_555
O6 C20 1_555 1_555
O7 C19 1_555 1_555
O8 C19 1_555 1_555
Cu2 O4 1_555 1_555
C25 H23 1_555 1_555
H24 C25 1_555 1_555
H25 C25 1_555 1_555
O9 C25 1_555 1_555
H26 O9 1_555 1_555
O10 H27 1_555 1_555
H28 O10 1_555 1_555
O11 H29 1_555 1_555
H30 O11 1_555 1_555
O3A Cu1 1_555 1_555
Cu1A O3 1_555 1_555
O7A Cu2 1_555 1_555
Cu2A O7 1_555 1_555
C3 N2 1_555 1_555
C4 N1 1_555 1_555
C9 N3 1_555 1_555
C9 N4 1_555 1_555
C13 N5 1_555 1_555
C13 N6 1_555 1_555
N3 Cu1 1_555 1_555
N5 Cu1 1_555 1_555
C17 N8 1_555 1_555
C18 N7 1_555 1_555
C23 N9 1_555 1_555
C23 N10 1_555 1_555
N7 Cu2 1_555 1_555
N9 Cu2 1_555 1_555

#END
