
#######################################################################
#
#                 Cambridge Crystallographic Data Centre
#                                CCDC 
#
#######################################################################
#
# If this CIF has been generated from an entry in the Cambridge 
# Structural Database, then it will include bibliographic, chemical, 
# crystal, experimental, refinement or atomic coordinate data resulting 
# from the CCDC's data processing and validation procedures.
#
#######################################################################

data_LICBAB
_symmetry_cell_setting           monoclinic
_symmetry_space_group_name_H-M   'C 2/c'
_symmetry_Int_Tables_number      15
_space_group_name_Hall           '-C 2yn'
loop_
_symmetry_equiv_pos_site_id
_symmetry_equiv_pos_as_xyz
1 x,y,z
2 1/2+x,1/2+y,z
3 -x,y,1/2-z
4 1/2-x,1/2+y,1/2-z
5 -x,-y,-z
6 1/2-x,1/2-y,-z
7 x,-y,1/2+z
8 1/2+x,1/2-y,1/2+z
_cell_length_a                   4.9322(2)
_cell_length_b                   15.3739(5)
_cell_length_c                   16.4044(5)
_cell_angle_alpha                90
_cell_angle_beta                 92.388(2)
_cell_angle_gamma                90
_cell_volume                     1242.82
loop_
_atom_site_label
_atom_site_type_symbol
_atom_site_fract_x
_atom_site_fract_y
_atom_site_fract_z
Zn1 Zn 0.0000 0.47584(3) 0.2500
S1 S 0.5000 0.58719(6) 0.2500
O1 O 0.3344(5) 0.63734(17) 0.19397(15)
O2 O 0.3223(4) 0.53005(12) 0.29867(11)
N1 N 0.1408(4) 0.40110(14) 0.15856(13)
C1 C 0.1826(6) 0.43609(19) 0.08519(16)
H1 H 0.0992 0.4887 0.0718
C2 C 0.3436(5) 0.39752(18) 0.02895(16)
H2 H 0.3639 0.4234 -0.0217
C3 C 0.4758(5) 0.31988(18) 0.04780(15)
C4 C 0.4204(5) 0.28182(18) 0.12255(17)
H3 H 0.4964 0.2283 0.1367
C5 C 0.2554(5) 0.32294(18) 0.17474(17)
H4 H 0.2199 0.2959 0.2239
C6 C 0.6660(5) 0.28255(17) -0.00892(16)
H5 H 0.6690 0.3062 -0.0610
Zn1_2 Zn 1.0000 0.47584(3) 0.2500
Zn1G Zn 1.5000 0.02416(3) -0.2500
O1B O 0.6656(5) 0.63734(17) 0.30603(15)
O2B O 0.6777(4) 0.53005(12) 0.20133(11)
O2B_2 O -0.3223(4) 0.53005(12) 0.20133(11)
N1E N 1.3592(4) 0.09890(14) -0.15856(13)
N1B N -0.1408(4) 0.40110(14) 0.34144(13)
C1E C 1.3174(6) 0.06391(19) -0.08519(16)
H1E H 1.4008 0.0113 -0.0718
C2E C 1.1564(5) 0.10248(18) -0.02895(16)
H2E H 1.1361 0.0766 0.0217
C3E C 1.0242(5) 0.18012(18) -0.04780(15)
C4E C 1.0796(5) 0.21818(18) -0.12255(17)
H3E H 1.0036 0.2717 -0.1367
C5E C 1.2446(5) 0.17706(18) -0.17474(17)
H4E H 1.2801 0.2041 -0.2239
C6E C 0.8340(5) 0.21745(17) 0.00892(16)
H5E H 0.8310 0.1938 0.0610
loop_
_geom_bond_atom_site_label_1
_geom_bond_atom_site_label_2
_geom_bond_site_symmetry_1
_geom_bond_site_symmetry_2
Zn1 O2 1_555 1_555
S1 O1 1_555 1_555
O2 S1 1_555 1_555
N1 Zn1 1_555 1_555
C1 N1 1_555 1_555
H1 C1 1_555 1_555
C2 C1 1_555 1_555
H2 C2 1_555 1_555
C3 C2 1_555 1_555
C4 C3 1_555 1_555
H3 C4 1_555 1_555
C5 N1 1_555 1_555
H4 C5 1_555 1_555
C6 C3 1_555 1_555
H5 C6 1_555 1_555
Zn1_2 O2B 1_555 1_555
Zn1G N1E 1_555 1_555
O1B S1 1_555 1_555
O2B S1 1_555 1_555
O2B_2 Zn1 1_555 1_555
N1E C1E 1_555 1_555
N1B Zn1 1_555 1_555
C1E H1E 1_555 1_555
C2E C1E 1_555 1_555
H2E C2E 1_555 1_555
C3E C2E 1_555 1_555
C4E C3E 1_555 1_555
H3E C4E 1_555 1_555
C5E N1E 1_555 1_555
H4E C5E 1_555 1_555
C6E C6 1_555 1_555
H5E C6E 1_555 1_555
C4 C5 1_555 1_555
C3E C6E 1_555 1_555
C4E C5E 1_555 1_555

#END
