
#######################################################################
#
#                 Cambridge Crystallographic Data Centre
#                                CCDC 
#
#######################################################################
#
# If this CIF has been generated from an entry in the Cambridge 
# Structural Database, then it will include bibliographic, chemical, 
# crystal, experimental, refinement or atomic coordinate data resulting 
# from the CCDC's data processing and validation procedures.
#
#######################################################################

data_LICCIK
_symmetry_cell_setting           trigonal
_symmetry_space_group_name_H-M   'P 31 2 1'
_symmetry_Int_Tables_number      152
_space_group_name_Hall           'P 31 2"'
loop_
_symmetry_equiv_pos_site_id
_symmetry_equiv_pos_as_xyz
1 x,y,z
2 -y,x-y,1/3+z
3 y,x,-z
4 -x+y,-x,2/3+z
5 -x,-x+y,1/3-z
6 x-y,-y,2/3-z
_cell_length_a                   11.3363(9)
_cell_length_b                   11.3363(9)
_cell_length_c                   11.1523(13)
_cell_angle_alpha                90
_cell_angle_beta                 90
_cell_angle_gamma                120
_cell_volume                     1241.19
loop_
_atom_site_label
_atom_site_type_symbol
_atom_site_fract_x
_atom_site_fract_y
_atom_site_fract_z
O3 O 0.6763(3) 0.4299(4) 0.7414(3)
H5 H 0.649(4) 0.476(4) 0.781(4)
H6 H 0.756(2) 0.488(4) 0.719(5)
S1 S 0.98833(19) 0.44014(16) 0.69163(13)
O4 O 0.9453(7) 0.4222(6) 0.8165(4)
O5 O 1.1256(9) 0.4590(16) 0.6800(11)
S1D S 1.01167(19) 0.45181(25) 0.64170(13)
O4D O 1.0547(7) 0.4769(9) 0.5168(4)
O5D O 0.8744(9) 0.3334(18) 0.6533(11)
Ni1 Ni 1.0000 0.60675(4) 1.1667
O1 O 1.1959(2) 0.6991(2) 1.1020(2)
H1 H 1.209(4) 0.649(3) 1.055(3)
H2 H 1.269(2) 0.742(4) 1.142(3)
O2 O 1.0791(2) 0.6516(2) 1.33982(19)
H3 H 1.153(2) 0.726(2) 1.346(3)
H4 H 1.067(3) 0.613(3) 1.4072(17)
N1 N 1.0000 0.7946(3) 1.1667
N2 N 1.0000 1.4214(3) 1.1667
C1 C 0.8852(3) 0.8001(3) 1.1688(3)
H7 H 0.8031 0.7182 1.1701
C2 C 0.8805(3) 0.9185(3) 1.1693(3)
H8 H 0.7968 0.9150 1.1715
C3 C 1.0000 1.0435(3) 1.1667
C4 C 1.0000 1.1750(4) 1.1667
C5 C 0.8901(3) 1.1831(3) 1.1244(3)
H9 H 0.8138 1.1061 1.0948
C6 C 0.8947(3) 1.3074(3) 1.1267(3)
H10 H 0.8193 1.3110 1.0984
Ni1_2 Ni 1.0000 1.60675(4) 1.1667
O1D O 0.8041(2) 0.5032(3) 1.2313(2)
H1D H 0.791(4) 0.440(5) 1.278(3)
H2D H 0.731(2) 0.473(4) 1.191(3)
O2D O 0.9209(2) 0.5725(3) 0.99351(19)
H3D H 0.847(2) 0.573(3) 0.987(3)
H4D H 0.933(3) 0.546(4) 0.9261(17)
N2_2 N 1.0000 0.4214(3) 1.1667
C1D C 1.1148(3) 0.9149(4) 1.1645(3)
H7D H 1.1969 0.9151 1.1632
C2D C 1.1195(3) 1.0380(4) 1.1640(3)
H8D H 1.2032 1.1182 1.1618
C5D C 1.1099(3) 1.2930(4) 1.2089(3)
H9D H 1.1862 1.2923 1.2385
C6D C 1.1053(3) 1.4127(4) 1.2066(3)
H10D H 1.1807 1.4917 1.2349
S2? S 0.9882(2) 0.60284(18) 0.62674(14)
O6? O 0.8935(9) 0.3208(9) 0.6206(8)
loop_
_geom_bond_atom_site_label_1
_geom_bond_atom_site_label_2
_geom_bond_site_symmetry_1
_geom_bond_site_symmetry_2
Ni1 O1 1_555 1_555
O1 H1 1_555 1_555
H2 O1 1_555 1_555
O2 Ni1 1_555 1_555
H3 O2 1_555 1_555
H4 O2 1_555 1_555
O3 H5 1_555 1_555
H6 O3 1_555 1_555
N1 Ni1 1_555 1_555
N2 C6 1_555 1_555
C1 N1 1_555 1_555
H7 C1 1_555 1_555
C2 C1 1_555 1_555
H8 C2 1_555 1_555
C3 C2 1_555 1_555
C4 C3 1_555 1_555
C5 C4 1_555 1_555
H9 C5 1_555 1_555
C6 C5 1_555 1_555
H10 C6 1_555 1_555
S1 O4 1_555 1_555
O4 S1D 1_555 1_555
O5 S1 1_555 1_555
Ni1_2 N2 1_555 1_555
O1D Ni1 1_555 1_555
H1D O1D 1_555 1_555
H2D O1D 1_555 1_555
O2D Ni1 1_555 1_555
H3D O2D 1_555 1_555
H4D O2D 1_555 1_555
N2_2 Ni1 1_555 1_555
C1D N1 1_555 1_555
H7D C1D 1_555 1_555
C2D C3 1_555 1_555
H8D C2D 1_555 1_555
C5D C4 1_555 1_555
H9D C5D 1_555 1_555
C6D N2 1_555 1_555
H10D C6D 1_555 1_555
S1D S1 1_555 1_555
O4D S1 1_555 1_555
O5D S1 1_555 1_555
O5 S1D 1_555 1_555
C1D C2D 1_555 1_555
C5D C6D 1_555 1_555
S1D O4D 1_555 1_555
S1D O5D 1_555 1_555

#END
