
#######################################################################
#
#                 Cambridge Crystallographic Data Centre
#                                CCDC 
#
#######################################################################
#
# If this CIF has been generated from an entry in the Cambridge 
# Structural Database, then it will include bibliographic, chemical, 
# crystal, experimental, refinement or atomic coordinate data resulting 
# from the CCDC's data processing and validation procedures.
#
#######################################################################

data_LICCOQ
_symmetry_cell_setting           trigonal
_symmetry_space_group_name_H-M   'P 31 2 1'
_symmetry_Int_Tables_number      152
_space_group_name_Hall           'P 31 2"'
loop_
_symmetry_equiv_pos_site_id
_symmetry_equiv_pos_as_xyz
1 x,y,z
2 -y,x-y,1/3+z
3 -x+y,-x,2/3+z
4 y,x,-z
5 x-y,-y,2/3-z
6 -x,-x+y,1/3-z
_cell_length_a                   11.2916(10)
_cell_length_b                   11.2916(10)
_cell_length_c                   23.660(3)
_cell_angle_alpha                90
_cell_angle_beta                 90
_cell_angle_gamma                120
_cell_volume                     2612.5
loop_
_atom_site_label
_atom_site_type_symbol
_atom_site_fract_x
_atom_site_fract_y
_atom_site_fract_z
Ni1 Ni 0.47361(8) 0.47361(8) 0.0000
O1 O 0.5759(4) 0.3648(4) 0.01093(17)
H1 H 0.597(6) 0.341(5) -0.0203(11)
H2 H 0.559(6) 0.309(5) 0.0364(15)
O2 O 0.4537(4) 0.4910(4) 0.08618(15)
H3 H 0.498(5) 0.469(5) 0.1086(13)
H4 H 0.459(6) 0.566(4) 0.0975(14)
N1 N 0.2874(6) 0.2874(6) 0.0000
N2 N -0.3394(5) -0.3394(5) 0.0000
C1 C 0.2636(6) 0.1858(6) 0.0362(2)
H9 H 0.3317 0.1999 0.0619
C2 C 0.1443(6) 0.0629(6) 0.0370(2)
H10 H 0.1334 -0.0048 0.0623
C3 C 0.0395(7) 0.0395(7) 0.0000
C4 C -0.0910(7) -0.0910(7) 0.0000
C5 C -0.0949(6) -0.2149(6) 0.0046(3)
H11 H -0.0142 -0.2175 0.0084
C6 C -0.2181(6) -0.3336(6) 0.0037(3)
H12 H -0.2178 -0.4157 0.0058
Ni1_2 Ni -0.52639(8) -0.52639(8) 0.0000
O1C O 0.3648(4) 0.5759(4) -0.01093(17)
H1C H 0.341(5) 0.597(6) 0.0203(11)
H2C H 0.309(5) 0.559(6) -0.0364(15)
O2C O 0.4910(4) 0.4537(4) -0.08618(15)
H3C H 0.469(5) 0.498(5) -0.1086(13)
H4C H 0.566(4) 0.459(6) -0.0975(14)
N2_2 N 0.6606(5) 0.6606(5) 0.0000
C1C C 0.1858(6) 0.2636(6) -0.0362(2)
H9C H 0.1999 0.3317 -0.0619
C2C C 0.0629(6) 0.1443(6) -0.0370(2)
H10C H -0.0048 0.1334 -0.0623
C5C C -0.2149(6) -0.0949(6) -0.0046(3)
H11C H -0.2175 -0.0142 -0.0084
C6C C -0.3336(6) -0.2181(6) -0.0037(3)
H12C H -0.4157 -0.2178 -0.0058
Ni2 Ni 1.0000 0.61953(8) 0.1667
O3 O 1.1013(4) 0.6746(5) 0.09014(16)
H5 H 1.185(2) 0.702(6) 0.0928(16)
H6 H 1.061(4) 0.613(4) 0.0656(14)
O4 O 0.8229(4) 0.5262(4) 0.12045(16)
H7 H 0.822(4) 0.470(4) 0.0978(18)
H8 H 0.750(2) 0.500(5) 0.1379(16)
N3 N 1.0000 0.4318(6) 0.1667
N4 N 1.0000 -0.1937(5) 0.1667
C7 C 0.8866(6) 0.3138(6) 0.1775(3)
H13 H 0.8065 0.3151 0.1850
C8 C 0.8827(6) 0.1901(6) 0.1782(3)
H14 H 0.8014 0.1102 0.1864
C9 C 1.0000 0.1848(7) 0.1667
C10 C 1.0000 0.0532(7) 0.1667
C11 C 0.8860(6) -0.0673(6) 0.1504(2)
H15 H 0.8072 -0.0679 0.1386
C12 C 0.8910(6) -0.1869(6) 0.1518(2)
H16 H 0.8126 -0.2677 0.1418
Ni2_2 Ni 1.0000 -0.38047(8) 0.1667
O3E O 0.8987(4) 0.5733(6) 0.24319(16)
H5E H 0.815(2) 0.517(6) 0.2405(16)
H6E H 0.939(4) 0.552(6) 0.2677(14)
O4E O 1.1771(4) 0.7033(6) 0.21288(16)
H7E H 1.178(4) 0.648(6) 0.2355(18)
H8E H 1.250(2) 0.750(5) 0.1954(16)
N4_2 N 1.0000 0.8063(5) 0.1667
C7E C 1.1134(6) 0.4272(8) 0.1558(3)
H13E H 1.1935 0.5086 0.1483
C8E C 1.1173(6) 0.3074(8) 0.1551(3)
H14E H 1.1986 0.3088 0.1469
C11E C 1.1140(6) 0.0467(8) 0.1829(2)
H15E H 1.1928 0.1249 0.1947
C12E C 1.1090(6) -0.0779(8) 0.1815(2)
H16E H 1.1874 -0.0803 0.1915
S1 S 0.47343(15) 0.81912(15) 0.11549(6)
O5 O 0.5609(5) 0.9420(4) 0.08333(18)
O6 O 0.3578(5) 0.7229(5) 0.07953(18)
O7 O 0.5473(5) 0.7520(5) 0.1335(2)
O8 O 0.4162(5) 0.8533(5) 0.16479(18)
O9 O 0.4572(6) 0.9252(6) -0.0248(2)
H17 H 0.500(7) 0.928(8) 0.005(2)
C13 C 0.3325(11) 0.9186(12) -0.0222(3)
H18 H 0.3460 1.0090 -0.0173
H19 H 0.2812 0.8624 0.0092
H20 H 0.2830 0.8799 -0.0566
O10 O 0.5600(8) 1.1908(6) 0.0927(2)
H21 H 0.541(9) 1.215(8) 0.1242(18)
H22 H 0.569(9) 1.121(6) 0.099(3)
loop_
_geom_bond_atom_site_label_1
_geom_bond_atom_site_label_2
_geom_bond_site_symmetry_1
_geom_bond_site_symmetry_2
Ni1 O1 1_555 1_555
Ni2 O3 1_555 1_555
O1 H1 1_555 1_555
H2 O1 1_555 1_555
O2 Ni1 1_555 1_555
H3 O2 1_555 1_555
H4 O2 1_555 1_555
O3 H5 1_555 1_555
H6 O3 1_555 1_555
O4 Ni2 1_555 1_555
H7 O4 1_555 1_555
H8 O4 1_555 1_555
N1 Ni1 1_555 1_555
N2 C6 1_555 1_555
C1 N1 1_555 1_555
H9 C1 1_555 1_555
C2 C1 1_555 1_555
H10 C2 1_555 1_555
C3 C2 1_555 1_555
C4 C3 1_555 1_555
C5 C4 1_555 1_555
H11 C5 1_555 1_555
C6 C5 1_555 1_555
H12 C6 1_555 1_555
N3 Ni2 1_555 1_555
N4 C12 1_555 1_555
C7 N3 1_555 1_555
H13 C7 1_555 1_555
C8 C7 1_555 1_555
H14 C8 1_555 1_555
C9 C8 1_555 1_555
C10 C9 1_555 1_555
C11 C10 1_555 1_555
H15 C11 1_555 1_555
C12 C11 1_555 1_555
H16 C12 1_555 1_555
S1 O5 1_555 1_555
O6 S1 1_555 1_555
O7 S1 1_555 1_555
O8 S1 1_555 1_555
O9 H17 1_555 1_555
C13 O9 1_555 1_555
H18 C13 1_555 1_555
H19 C13 1_555 1_555
H20 C13 1_555 1_555
O10 H21 1_555 1_555
H22 O10 1_555 1_555
Ni1_2 N2 1_555 1_555
Ni2_2 N4 1_555 1_555
O1C Ni1 1_555 1_555
H1C O1C 1_555 1_555
H2C O1C 1_555 1_555
O2C Ni1 1_555 1_555
H3C O2C 1_555 1_555
H4C O2C 1_555 1_555
O3E Ni2 1_555 1_555
H5E O3E 1_555 1_555
H6E O3E 1_555 1_555
O4E Ni2 1_555 1_555
H7E O4E 1_555 1_555
H8E O4E 1_555 1_555
N2_2 Ni1 1_555 1_555
C1C N1 1_555 1_555
H9C C1C 1_555 1_555
C2C C3 1_555 1_555
H10C C2C 1_555 1_555
C5C C4 1_555 1_555
H11C C5C 1_555 1_555
C6C N2 1_555 1_555
H12C C6C 1_555 1_555
N4_2 Ni2 1_555 1_555
C7E N3 1_555 1_555
H13E C7E 1_555 1_555
C8E C9 1_555 1_555
H14E C8E 1_555 1_555
C11E C10 1_555 1_555
H15E C11E 1_555 1_555
C12E N4 1_555 1_555
H16E C12E 1_555 1_555
C1C C2C 1_555 1_555
C5C C6C 1_555 1_555
C7E C8E 1_555 1_555
C11E C12E 1_555 1_555

#END
