
#######################################################################
#
#                 Cambridge Crystallographic Data Centre
#                                CCDC 
#
#######################################################################
#
# If this CIF has been generated from an entry in the Cambridge 
# Structural Database, then it will include bibliographic, chemical, 
# crystal, experimental, refinement or atomic coordinate data resulting 
# from the CCDC's data processing and validation procedures.
#
#######################################################################

data_LICCUW
_symmetry_cell_setting           monoclinic
_symmetry_space_group_name_H-M   'C 2/c'
_symmetry_Int_Tables_number      15
_space_group_name_Hall           '-C 2yn'
loop_
_symmetry_equiv_pos_site_id
_symmetry_equiv_pos_as_xyz
1 x,y,z
2 1/2+x,1/2+y,z
3 -x,y,1/2-z
4 1/2-x,1/2+y,1/2-z
5 -x,-y,-z
6 1/2-x,1/2-y,-z
7 x,-y,1/2+z
8 1/2+x,1/2-y,1/2+z
_cell_length_a                   16.581(3)
_cell_length_b                   4.7819(10)
_cell_length_c                   19.230(4)
_cell_angle_alpha                90
_cell_angle_beta                 100.674(3)
_cell_angle_gamma                90
_cell_volume                     1498.34
loop_
_atom_site_label
_atom_site_type_symbol
_atom_site_fract_x
_atom_site_fract_y
_atom_site_fract_z
Zn1 Zn 0.71542(2) 0.22536(7) 0.317057(18)
S1 S 0.66922(5) 0.22742(15) 0.15489(4)
O1 O 0.64401(14) 0.1784(5) 0.22609(11)
O2 O 0.68035(13) 0.5409(4) 0.14913(11)
O3 O 0.75710(14) 0.1198(5) 0.16492(13)
N1 N 0.63591(15) 0.1481(5) 0.38335(13)
C1 C 0.5756(2) -0.0361(7) 0.36659(17)
H1 H 0.5700 -0.1272 0.3232
C2 C 0.52129(19) -0.0988(7) 0.40998(17)
H2 H 0.4795 -0.2277 0.3956
C3 C 0.52868(17) 0.0305(6) 0.47533(15)
C4 C 0.5917(2) 0.2210(7) 0.49275(18)
H3 H 0.5997 0.3120 0.5362
C5 C 0.6427(2) 0.2757(7) 0.44555(18)
H4 H 0.6839 0.4083 0.4577
Zn1C Zn 0.78458(2) -0.27464(7) 0.182943(18)
Zn1C_2 Zn 0.78458(2) 0.72536(7) 0.182943(18)
Zn1D Zn 0.28458(2) -0.22536(7) 0.682943(18)
Zn1_2 Zn 0.71542(2) -0.77464(7) 0.317057(18)
S1C S 0.83078(5) -0.27258(15) 0.34511(4)
O1C O 0.85599(14) -0.3216(5) 0.27391(11)
O2C O 0.81965(13) 0.0409(4) 0.35087(11)
O2_2 O 0.68035(13) -0.4591(4) 0.14913(11)
O3C O 0.74290(14) -0.3802(5) 0.33508(13)
O3C_2 O 0.74290(14) 0.6198(5) 0.33508(13)
N1D N 0.36409(15) -0.1481(5) 0.61665(13)
N1C N 0.86409(15) -0.3519(5) 0.11665(13)
C1D C 0.4244(2) 0.0361(7) 0.63341(17)
H1D H 0.4300 0.1272 0.6768
C2D C 0.47871(19) 0.0988(7) 0.59002(17)
H2D H 0.5205 0.2277 0.6044
C3D C 0.47132(17) -0.0305(6) 0.52467(15)
C4D C 0.4083(2) -0.2210(7) 0.50725(18)
H3D H 0.4003 -0.3120 0.4638
C5D C 0.3573(2) -0.2757(7) 0.55445(18)
H4D H 0.3161 -0.4083 0.5423
O4 O 0.5000 0.5001(8) 0.2500
H5 H 0.5352 0.3962 0.2358
H5B H 0.4648 0.3962 0.2642
loop_
_geom_bond_atom_site_label_1
_geom_bond_atom_site_label_2
_geom_bond_site_symmetry_1
_geom_bond_site_symmetry_2
Zn1 O1 1_555 1_555
S1 O1 1_555 1_555
O2 S1 1_555 1_555
O3 S1 1_555 1_555
N1 Zn1 1_555 1_555
C1 N1 1_555 1_555
H1 C1 1_555 1_555
C2 C1 1_555 1_555
H2 C2 1_555 1_555
C3 C2 1_555 1_555
C4 C3 1_555 1_555
H3 C4 1_555 1_555
C5 N1 1_555 1_555
H4 C5 1_555 1_555
O4 H5 1_555 1_555
Zn1C O3 1_555 1_555
Zn1C_2 O2 1_555 1_555
Zn1D N1D 1_555 1_555
Zn1_2 O3C 1_555 1_555
S1C O1C 1_555 1_555
O1C Zn1C 1_555 1_555
O2C Zn1 1_555 1_555
O2_2 Zn1C 1_555 1_555
O3C S1C 1_555 1_555
O3C_2 Zn1 1_555 1_555
N1D C1D 1_555 1_555
N1C Zn1C 1_555 1_555
C1D H1D 1_555 1_555
C2D C1D 1_555 1_555
H2D C2D 1_555 1_555
C3D C3 1_555 1_555
C4D C3D 1_555 1_555
H3D C4D 1_555 1_555
C5D N1D 1_555 1_555
H4D C5D 1_555 1_555
H5B O4 1_555 1_555
C4 C5 1_555 1_555
S1C O2C 1_555 1_555
C2D C3D 1_555 1_555
C4D C5D 1_555 1_555

#END
