
#######################################################################
#
#                 Cambridge Crystallographic Data Centre
#                                CCDC 
#
#######################################################################
#
# If this CIF has been generated from an entry in the Cambridge 
# Structural Database, then it will include bibliographic, chemical, 
# crystal, experimental, refinement or atomic coordinate data resulting 
# from the CCDC's data processing and validation procedures.
#
#######################################################################

data_LICNUH
_symmetry_cell_setting           monoclinic
_symmetry_space_group_name_H-M   'C 2/c'
_symmetry_Int_Tables_number      15
_space_group_name_Hall           '-C 2yn'
loop_
_symmetry_equiv_pos_site_id
_symmetry_equiv_pos_as_xyz
1 x,y,z
2 1/2+x,1/2+y,z
3 -x,y,1/2-z
4 1/2-x,1/2+y,1/2-z
5 -x,-y,-z
6 1/2-x,1/2-y,-z
7 x,-y,1/2+z
8 1/2+x,1/2-y,1/2+z
_cell_length_a                   14.6795(7)
_cell_length_b                   6.2247(3)
_cell_length_c                   25.2114(12)
_cell_angle_alpha                90
_cell_angle_beta                 99.9052(16)
_cell_angle_gamma                90
_cell_volume                     2269.36
loop_
_atom_site_label
_atom_site_type_symbol
_atom_site_fract_x
_atom_site_fract_y
_atom_site_fract_z
Cl1 Cl -0.04269(2) 0.57417(5) 0.431471(13)
S1 S 0.14374(2) 1.30306(6) 0.354870(14)
Na1 Na 0.27054(4) 0.99825(9) 0.46736(2)
O1 O 0.14132(7) 0.76727(16) 0.47271(4)
O2 O -0.17515(7) 0.85677(17) 0.47486(4)
O3 O 0.13973(8) 1.14915(19) 0.39671(5)
O4 O 0.06485(8) 1.3162(2) 0.31285(5)
O5 O 0.29399(8) 1.77774(18) 0.39676(5)
N1 N 0.17091(9) 1.5440(2) 0.38105(5)
C1 C 0.07295(9) 0.8707(2) 0.48321(5)
C2 C -0.01884(9) 0.8108(2) 0.46768(5)
C3 C -0.09322(9) 0.9193(2) 0.48437(5)
C4 C 0.25872(10) 1.6137(2) 0.37689(6)
C5 C 0.30221(10) 1.4592(2) 0.34423(6)
C6 C 0.38975(11) 1.4763(3) 0.33085(6)
H1 H 0.4266 1.5962 0.3406
C7 C 0.42019(12) 1.3072(3) 0.30234(7)
H2 H 0.4792 1.3125 0.2936
C8 C 0.36383(13) 1.1295(3) 0.28656(7)
H3 H 0.3856 1.0196 0.2671
C9 C 0.27599(12) 1.1142(3) 0.29944(6)
H4 H 0.2379 0.9972 0.2887
C10 C 0.24751(10) 1.2814(2) 0.32910(6)
H5 H 0.1459(17) 1.599(4) 0.4051(10)
Cl1D Cl 0.04269(2) 1.42583(5) 0.568529(13)
S1_2 S 0.14374(2) 0.30306(6) 0.354870(14)
Na1D Na -0.27054(4) 1.00175(9) 0.53264(2)
Na1E Na 0.22946(4) 0.50175(9) 0.53264(2)
Na1A Na -0.22946(4) 0.49825(9) 0.46736(2)
Na1_2 Na 0.27054(4) 1.99825(9) 0.46736(2)
Na1E_2 Na 0.22946(4) 1.50175(9) 0.53264(2)
Na1A_2 Na -0.22946(4) 1.49825(9) 0.46736(2)
Na1_3 Na 0.27054(4) -0.00175(9) 0.46736(2)
O1D O -0.14132(7) 1.23273(16) 0.52729(4)
O1E O 0.35868(7) 0.73273(16) 0.52729(4)
O1A O -0.35868(7) 1.26727(16) 0.47271(4)
O2D O 0.17515(7) 1.14323(17) 0.52514(4)
O2A O 0.32485(7) 1.35677(17) 0.47486(4)
O2E O -0.32485(7) 0.64323(17) 0.52514(4)
O3_2 O 0.13973(8) 0.14915(19) 0.39671(5)
O3D O -0.13973(8) 0.85085(19) 0.60329(5)
O4_2 O 0.06485(8) 0.3162(2) 0.31285(5)
O5_2 O 0.29399(8) 0.77774(18) 0.39676(5)
O5D O -0.29399(8) 1.22226(18) 0.60324(5)
N1_2 N 0.17091(9) 0.5440(2) 0.38105(5)
C1D C -0.07295(9) 1.1293(2) 0.51679(5)
C2D C 0.01884(9) 1.1892(2) 0.53232(5)
C3D C 0.09322(9) 1.0807(2) 0.51563(5)
C4_2 C 0.25872(10) 0.6137(2) 0.37689(6)
C5_2 C 0.30221(10) 0.4592(2) 0.34423(6)
C6_2 C 0.38975(11) 0.4763(3) 0.33085(6)
H1_2 H 0.4266 0.5962 0.3406
C7_2 C 0.42019(12) 0.3072(3) 0.30234(7)
H2_2 H 0.4792 0.3125 0.2936
C8_2 C 0.36383(13) 0.1295(3) 0.28656(7)
H3_2 H 0.3856 0.0196 0.2671
C9_2 C 0.27599(12) 0.1142(3) 0.29944(6)
H4_2 H 0.2379 -0.0028 0.2887
C10_2 C 0.24751(10) 0.2814(2) 0.32910(6)
H5_2 H 0.1459(17) 0.599(4) 0.4051(10)
loop_
_geom_bond_atom_site_label_1
_geom_bond_atom_site_label_2
_geom_bond_site_symmetry_1
_geom_bond_site_symmetry_2
Cl1 C2 1_555 1_555
S1 O3 1_555 1_555
Na1 O1 1_555 1_555
O1 C1 1_555 1_555
O2 C3 1_555 1_555
O3 Na1 1_555 1_555
O4 S1 1_555 1_555
O5 C4 1_555 1_555
N1 S1 1_555 1_555
C1 C2 1_555 1_555
C2 C3 1_555 1_555
C3 C1D 1_555 1_555
C4 N1 1_555 1_555
C5 C4 1_555 1_555
C6 C5 1_555 1_555
H1 C6 1_555 1_555
C7 C6 1_555 1_555
H2 C7 1_555 1_555
C8 C7 1_555 1_555
H3 C8 1_555 1_555
C9 C8 1_555 1_555
H4 C9 1_555 1_555
C10 S1 1_555 1_555
H5 N1 1_555 1_555
Cl1D C2D 1_555 1_555
S1_2 O3_2 1_555 1_555
Na1D O2 1_555 1_555
Na1E O1 1_555 1_555
Na1A O2 1_555 1_555
Na1_2 O5 1_555 1_555
Na1E_2 O2D 1_555 1_555
Na1A_2 O1D 1_555 1_555
Na1_3 O3_2 1_555 1_555
O1D Na1D 1_555 1_555
O1E Na1 1_555 1_555
O1A Na1D 1_555 1_555
O2D Na1 1_555 1_555
O2A Na1 1_555 1_555
O2E Na1D 1_555 1_555
O3D Na1D 1_555 1_555
O4_2 S1_2 1_555 1_555
O5_2 Na1 1_555 1_555
O5D Na1D 1_555 1_555
N1_2 S1_2 1_555 1_555
C1D O1D 1_555 1_555
C2D C1D 1_555 1_555
C3D C1 1_555 1_555
C4_2 O5_2 1_555 1_555
C5_2 C4_2 1_555 1_555
C6_2 C5_2 1_555 1_555
H1_2 C6_2 1_555 1_555
C7_2 C6_2 1_555 1_555
H2_2 C7_2 1_555 1_555
C8_2 C7_2 1_555 1_555
H3_2 C8_2 1_555 1_555
C9_2 C8_2 1_555 1_555
H4_2 C9_2 1_555 1_555
C10_2 S1_2 1_555 1_555
H5_2 N1_2 1_555 1_555
C5 C10 1_555 1_555
C9 C10 1_555 1_555
Na1E O1E 1_555 1_555
Na1A O2E 1_555 1_555
Na1E_2 O2A 1_555 1_555
Na1A_2 O1A 1_555 1_555
O2D C3D 1_555 1_555
N1_2 C4_2 1_555 1_555
C2D C3D 1_555 1_555
C5_2 C10_2 1_555 1_555
C9_2 C10_2 1_555 1_555

#END
