
#######################################################################
#
#                 Cambridge Crystallographic Data Centre
#                                CCDC 
#
#######################################################################
#
# If this CIF has been generated from an entry in the Cambridge 
# Structural Database, then it will include bibliographic, chemical, 
# crystal, experimental, refinement or atomic coordinate data resulting 
# from the CCDC's data processing and validation procedures.
#
#######################################################################

data_LICNOB
_symmetry_cell_setting           triclinic
_symmetry_space_group_name_H-M   'P -1'
_symmetry_Int_Tables_number      2
_space_group_name_Hall           '-P 1'
loop_
_symmetry_equiv_pos_site_id
_symmetry_equiv_pos_as_xyz
1 x,y,z
2 -x,-y,-z
_cell_length_a                   13.8165(4)
_cell_length_b                   13.8623(4)
_cell_length_c                   14.1524(5)
_cell_angle_alpha                98.8719(10)
_cell_angle_beta                 105.3882(10)
_cell_angle_gamma                109.0641(8)
_cell_volume                     2382.21
loop_
_atom_site_label
_atom_site_type_symbol
_atom_site_fract_x
_atom_site_fract_y
_atom_site_fract_z
Fe1 Fe 0.31606(2) 0.16230(2) 0.47513(2)
Cl1 Cl 0.38547(5) -0.07025(5) 0.04068(4)
Cl2 Cl 0.19145(5) 0.04986(5) 0.89961(5)
Na1 Na 0.13517(8) 0.58239(7) 0.51452(7)
O1 O 0.44066(13) 0.30060(12) 0.51878(12)
O2 O 0.22198(13) 0.24151(13) 0.44431(12)
O3 O 0.40711(13) 0.08387(13) 0.45764(12)
O4 O 0.19287(13) 0.04703(13) 0.48461(12)
O5 O 0.02589(13) 0.40350(12) 0.47922(12)
O6 O 0.72706(13) 0.48182(13) 0.48145(13)
O7 O 0.23557(17) 0.68164(16) 0.67806(15)
O8 O 0.14432(15) 0.67557(15) 0.39620(16)
N1 N 0.20889(15) 0.14164(15) 0.24167(14)
N2 N 0.45392(15) 0.23816(15) 0.70695(14)
N3 N 0.10993(16) 0.30301(15) 0.55036(15)
N4 N 0.54202(16) 0.42610(16) 0.42128(15)
N5 N 0.27647(15) 0.12597(14) 0.31353(14)
N6 N 0.36381(15) 0.18355(14) 0.63488(14)
C1 C 0.53196(18) 0.33593(17) 0.59485(17)
C2 C 0.53897(18) 0.30636(17) 0.68714(17)
C3 C 0.63941(18) 0.35065(18) 0.77251(17)
C4 C 0.64824(19) 0.32463(19) 0.86600(18)
C5 C 0.7462(2) 0.3664(2) 0.94388(19)
C6 C 0.8399(2) 0.4360(2) 0.93258(19)
C7 C 0.8337(2) 0.4644(2) 0.8437(2)
C8 C 0.73351(19) 0.42249(19) 0.76142(18)
C9 C 0.72539(19) 0.44944(19) 0.66820(18)
C10 C 0.63053(18) 0.40934(18) 0.58666(18)
C11 C 0.63754(19) 0.44278(18) 0.49172(18)
C12 C 0.5242(2) 0.44629(19) 0.32462(18)
C13 C 0.6035(2) 0.5190(2) 0.2988(2)
C14 C 0.5776(2) 0.5339(2) 0.2018(2)
C15 C 0.4748(2) 0.4791(2) 0.1311(2)
C16 C 0.3955(2) 0.4077(2) 0.1567(2)
C17 C 0.4192(2) 0.3912(2) 0.2527(2)
C18 C 0.15271(18) 0.24337(17) 0.36269(17)
C19 C 0.14686(18) 0.19647(17) 0.26329(16)
C20 C 0.06999(17) 0.20183(17) 0.17447(17)
C21 C 0.0596(2) 0.1544(2) 0.07434(17)
C22 C -0.0169(2) 0.1596(2) -0.00840(18)
C23 C -0.0858(2) 0.2119(2) 0.00479(19)
C24 C -0.07693(19) 0.2589(2) 0.10065(18)
C25 C 0.00035(19) 0.25475(18) 0.18712(17)
C26 C 0.00764(18) 0.30062(17) 0.28715(17)
C27 C 0.07859(18) 0.29493(17) 0.37230(16)
C28 C 0.07078(17) 0.33964(17) 0.47220(17)
C29 C 0.11155(19) 0.32857(19) 0.65212(17)
C30 C 0.1169(2) 0.4258(2) 0.70109(19)
C31 C 0.1244(2) 0.4459(2) 0.80263(19)
C32 C 0.1279(2) 0.3701(2) 0.8558(2)
C33 C 0.1233(2) 0.2736(2) 0.8072(2)
C34 C 0.1134(2) 0.2520(2) 0.70495(19)
C35 C 0.19117(19) 0.04498(18) 0.57723(17)
C36 C 0.1017(2) -0.02391(19) 0.59606(19)
C37 C 0.1024(2) -0.02095(19) 0.69418(19)
C38 C 0.1935(2) 0.04924(19) 0.77662(18)
C39 C 0.28331(19) 0.11807(18) 0.76252(17)
C40 C 0.28146(18) 0.11585(17) 0.66251(17)
C41 C 0.40286(18) 0.04753(18) 0.36382(16)
C42 C 0.33457(18) 0.06816(17) 0.28179(16)
C43 C 0.32719(19) 0.03125(18) 0.18136(17)
C44 C 0.38792(19) -0.02652(19) 0.16375(17)
C45 C 0.45506(19) -0.04928(18) 0.24313(18)
C46 C 0.46185(18) -0.01315(18) 0.34240(17)
C47 C 0.3919(3) 0.7379(2) 0.8251(2)
C48 C 0.3028(2) 0.7536(2) 0.75075(19)
C49 C 0.2974(2) 0.8606(2) 0.7686(2)
C50 C 0.3021(2) 0.8333(2) 0.4768(2)
C51 C 0.2019(2) 0.7614(2) 0.3904(2)
C52 C 0.1753(2) 0.7969(2) 0.2955(2)
H1 H 0.1386 0.2567 0.5366
H2 H 0.5858 0.2778 0.8752
H3 H 0.4835 0.3993 0.4376
H4 H 0.7508 0.3479 1.0064
H5 H 0.9074 0.4634 0.9868
H6 H 0.8969 0.5126 0.8368
H7 H 0.7887 0.4977 0.6616
H8 H 0.6743 0.5577 0.3470
H9 H 0.6317 0.5827 0.1839
H10 H 0.4584 0.4902 0.0651
H11 H 0.3247 0.3699 0.1081
H12 H 0.3644 0.3427 0.2700
H13 H -0.0229 0.1273 -0.0751
H14 H 0.1056 0.1187 0.0639
H15 H -0.1384 0.2146 -0.0526
H16 H -0.1231 0.2949 0.1095
H17 H -0.0387 0.3367 0.2952
H18 H 0.1154 0.4783 0.6655
H19 H 0.1272 0.5122 0.8360
H20 H 0.1335 0.3847 0.9253
H21 H 0.1268 0.2220 0.8436
H22 H 0.1079 0.1847 0.6711
H23 H 0.0404 -0.0729 0.5406
H24 H 0.0410 -0.0666 0.7058
H25 H 0.3446 0.1656 0.8189
H26 H 0.2816 0.0456 0.1269
H27 H 0.4959 -0.0895 0.2287
H28 H 0.5065 -0.0295 0.3960
H29 H 0.3674 0.7153 0.8800
H30 H 0.4559 0.8045 0.8536
H31 H 0.4109 0.6834 0.7906
H32 H 0.3399 0.9037 0.7337
H33 H 0.3273 0.8952 0.8416
H34 H 0.2215 0.8532 0.7421
H35 H 0.3556 0.8755 0.4503
H36 H 0.3330 0.7910 0.5153
H37 H 0.2836 0.8805 0.5215
H38 H 0.2109 0.7733 0.2505
H39 H 0.2012 0.8742 0.3130
H40 H 0.0963 0.7662 0.2607
Na1A Na -0.13517(8) 0.41761(7) 0.48548(7)
Na1A_2 Na 0.86483(8) 0.41761(7) 0.48548(7)
O5A O -0.02589(13) 0.59650(12) 0.52078(12)
O6A O 0.27294(13) 0.51818(13) 0.51855(13)
loop_
_geom_bond_atom_site_label_1
_geom_bond_atom_site_label_2
_geom_bond_site_symmetry_1
_geom_bond_site_symmetry_2
Fe1 O1 1_555 1_555
Cl1 C44 1_555 1_555
Cl2 C38 1_555 1_555
Na1 O5 1_555 1_555
O1 C1 1_555 1_555
O2 Fe1 1_555 1_555
O3 Fe1 1_555 1_555
O4 Fe1 1_555 1_555
O5 C28 1_555 1_555
O6 C11 1_555 1_555
O7 Na1 1_555 1_555
O8 Na1 1_555 1_555
N1 N5 1_555 1_555
N2 N6 1_555 1_555
N3 C28 1_555 1_555
N4 C11 1_555 1_555
N5 Fe1 1_555 1_555
N6 Fe1 1_555 1_555
C1 C2 1_555 1_555
C2 N2 1_555 1_555
C3 C2 1_555 1_555
C4 C3 1_555 1_555
C5 C4 1_555 1_555
C6 C5 1_555 1_555
C7 C6 1_555 1_555
C8 C3 1_555 1_555
C9 C8 1_555 1_555
C10 C1 1_555 1_555
C11 C10 1_555 1_555
C12 N4 1_555 1_555
C13 C12 1_555 1_555
C14 C13 1_555 1_555
C15 C14 1_555 1_555
C16 C15 1_555 1_555
C17 C12 1_555 1_555
C18 O2 1_555 1_555
C19 N1 1_555 1_555
C20 C19 1_555 1_555
C21 C20 1_555 1_555
C22 C21 1_555 1_555
C23 C22 1_555 1_555
C24 C23 1_555 1_555
C25 C20 1_555 1_555
C26 C25 1_555 1_555
C27 C18 1_555 1_555
C28 C27 1_555 1_555
C29 N3 1_555 1_555
C30 C29 1_555 1_555
C31 C30 1_555 1_555
C32 C31 1_555 1_555
C33 C32 1_555 1_555
C34 C29 1_555 1_555
C35 O4 1_555 1_555
C36 C35 1_555 1_555
C37 C36 1_555 1_555
C38 C37 1_555 1_555
C39 C38 1_555 1_555
C40 N6 1_555 1_555
C41 O3 1_555 1_555
C42 N5 1_555 1_555
C43 C42 1_555 1_555
C44 C43 1_555 1_555
C45 C44 1_555 1_555
C46 C41 1_555 1_555
C47 C48 1_555 1_555
C48 O7 1_555 1_555
C49 C48 1_555 1_555
C50 C51 1_555 1_555
C51 O8 1_555 1_555
C52 C51 1_555 1_555
H1 N3 1_555 1_555
H2 C4 1_555 1_555
H3 N4 1_555 1_555
H4 C5 1_555 1_555
H5 C6 1_555 1_555
H6 C7 1_555 1_555
H7 C9 1_555 1_555
H8 C13 1_555 1_555
H9 C14 1_555 1_555
H10 C15 1_555 1_555
H11 C16 1_555 1_555
H12 C17 1_555 1_555
H13 C22 1_555 1_555
H14 C21 1_555 1_555
H15 C23 1_555 1_555
H16 C24 1_555 1_555
H17 C26 1_555 1_555
H18 C30 1_555 1_555
H19 C31 1_555 1_555
H20 C32 1_555 1_555
H21 C33 1_555 1_555
H22 C34 1_555 1_555
H23 C36 1_555 1_555
H24 C37 1_555 1_555
H25 C39 1_555 1_555
H26 C43 1_555 1_555
H27 C45 1_555 1_555
H28 C46 1_555 1_555
H29 C47 1_555 1_555
H30 C47 1_555 1_555
H31 C47 1_555 1_555
H32 C49 1_555 1_555
H33 C49 1_555 1_555
H34 C49 1_555 1_555
H35 C50 1_555 1_555
H36 C50 1_555 1_555
H37 C50 1_555 1_555
H38 C52 1_555 1_555
H39 C52 1_555 1_555
H40 C52 1_555 1_555
Na1A O5 1_555 1_555
Na1A_2 O6 1_555 1_555
O5A Na1 1_555 1_555
O6A Na1 1_555 1_555
C7 C8 1_555 1_555
C9 C10 1_555 1_555
C16 C17 1_555 1_555
C18 C19 1_555 1_555
C24 C25 1_555 1_555
C26 C27 1_555 1_555
C33 C34 1_555 1_555
C35 C40 1_555 1_555
C39 C40 1_555 1_555
C41 C42 1_555 1_555
C45 C46 1_555 1_555
Na1A O5A 1_555 1_555

#END
