
#######################################################################
#
#                 Cambridge Crystallographic Data Centre
#                                CCDC 
#
#######################################################################
#
# If this CIF has been generated from an entry in the Cambridge 
# Structural Database, then it will include bibliographic, chemical, 
# crystal, experimental, refinement or atomic coordinate data resulting 
# from the CCDC's data processing and validation procedures.
#
#######################################################################

data_LICNER
_symmetry_cell_setting           monoclinic
_symmetry_space_group_name_H-M   'P 21/c'
_symmetry_Int_Tables_number      14
_space_group_name_Hall           '-P 2ybc'
loop_
_symmetry_equiv_pos_site_id
_symmetry_equiv_pos_as_xyz
1 x,y,z
2 -x,1/2+y,1/2-z
3 -x,-y,-z
4 x,1/2-y,1/2+z
_cell_length_a                   11.024(2)
_cell_length_b                   11.828(2)
_cell_length_c                   16.780(6)
_cell_angle_alpha                90
_cell_angle_beta                 113.94(2)
_cell_angle_gamma                90
_cell_volume                     1999.75
loop_
_atom_site_label
_atom_site_type_symbol
_atom_site_fract_x
_atom_site_fract_y
_atom_site_fract_z
Ni1 Ni 0.33294(3) -0.02984(3) 0.19881(2)
S1 S 0.87336(6) -0.15078(6) 0.26664(5)
O1 O 0.4077(2) -0.1171(2) 0.31908(14)
O2 O 0.3718(3) 0.1130(2) 0.28245(18)
O3 O 0.52232(16) -0.01725(17) 0.20610(13)
O4 O 0.61008(19) -0.17787(18) 0.27715(15)
O5 O 1.15763(19) -0.17305(19) 0.29222(14)
O6 O 1.14822(17) -0.03662(19) 0.19681(14)
N1 N 0.2659(2) 0.0805(2) 0.09064(16)
N2 N 0.3041(2) 0.8199(2) 0.12500(16)
C1 C 0.3449(3) 0.1259(3) 0.0563(2)
H1 H 0.4321 0.1004 0.0766
C2 C 0.3053(3) 0.2080(3) -0.0070(2)
H2 H 0.3647 0.235 -0.0291
C3 C 0.1783(3) 0.2508(2) -0.03801(18)
C4 C 0.0960(3) 0.2019(3) -0.0040(2)
H3 H 0.0082 0.2257 -0.0236
C5 C 0.1413(3) 0.1193(3) 0.0581(2)
H4 H 0.0821 0.0883 0.0788
C6 C 0.1313(3) 0.3476(3) -0.1018(2)
H5 H 0.0398 0.3347 -0.1417
H6 H 0.1846 0.3509 -0.1357
C7 C 0.1418(3) 0.4603(3) -0.0545(2)
H7 H 0.0905 0.5168 -0.0966
H8 H 0.1029 0.4516 -0.0123
C8 C 0.2833(3) 0.5023(3) -0.0078(2)
H9 H 0.3347 0.4464 0.0349
H10 H 0.3227 0.5108 -0.0497
C9 C 0.2906(3) 0.6137(3) 0.0375(2)
C10 C 0.3346(4) 0.7122(3) 0.0135(2)
H11 H 0.3604 0.7116 -0.0328
C11 C 0.3402(4) 0.8112(3) 0.0580(2)
H12 H 0.3709 0.8758 0.0406
C12 C 0.2606(3) 0.7246(3) 0.14740(19)
H13 H 0.2343 0.7273 0.1935
C13 C 0.2526(3) 0.6234(3) 0.1061(2)
H14 H 0.2211 0.5601 0.1246
C14 C 0.6135(2) -0.0898(2) 0.23658(18)
C15 C 0.7364(2) -0.0646(2) 0.22304(18)
C16 C 0.7592(3) 0.0253(3) 0.1796(2)
H15 H 0.6972 0.0817 0.1528
C17 C 0.8873(3) 0.0227(3) 0.1801(2)
H16 H 0.9186 0.0768 0.1529
C18 C 0.9606(2) -0.0676(2) 0.22476(18)
C19 C 1.1005(2) -0.0961(3) 0.23969(19)
H17 H 0.464(4) -0.161(3) 0.317(2)
H18 H 0.343(4) -0.144(3) 0.324(3)
H19 H 0.445(5) 0.102(4) 0.322(3)
H20 H 0.382(4) 0.183(4) 0.266(3)
Ni1_2 Ni 1.33294(3) -0.02984(3) 0.19881(2)
Ni1_3 Ni 0.33294(3) 0.97016(3) 0.19881(2)
O6_2 O 0.14822(17) -0.03662(19) 0.19681(14)
N2_2 N 0.3041(2) -0.1801(2) 0.12500(16)
loop_
_geom_bond_atom_site_label_1
_geom_bond_atom_site_label_2
_geom_bond_site_symmetry_1
_geom_bond_site_symmetry_2
Ni1 O1 1_555 1_555
S1 C15 1_555 1_555
O1 H17 1_555 1_555
O2 Ni1 1_555 1_555
O3 Ni1 1_555 1_555
O4 C14 1_555 1_555
O5 C19 1_555 1_555
O6 C19 1_555 1_555
N1 Ni1 1_555 1_555
N2 C11 1_555 1_555
C1 N1 1_555 1_555
H1 C1 1_555 1_555
C2 C1 1_555 1_555
H2 C2 1_555 1_555
C3 C2 1_555 1_555
C4 C3 1_555 1_555
H3 C4 1_555 1_555
C5 N1 1_555 1_555
H4 C5 1_555 1_555
C6 C3 1_555 1_555
H5 C6 1_555 1_555
H6 C6 1_555 1_555
C7 C6 1_555 1_555
H7 C7 1_555 1_555
H8 C7 1_555 1_555
C8 C7 1_555 1_555
H9 C8 1_555 1_555
H10 C8 1_555 1_555
C9 C8 1_555 1_555
C10 C9 1_555 1_555
H11 C10 1_555 1_555
C11 C10 1_555 1_555
H12 C11 1_555 1_555
C12 N2 1_555 1_555
H13 C12 1_555 1_555
C13 C9 1_555 1_555
H14 C13 1_555 1_555
C14 O3 1_555 1_555
C15 C14 1_555 1_555
C16 C15 1_555 1_555
H15 C16 1_555 1_555
C17 C16 1_555 1_555
H16 C17 1_555 1_555
C18 S1 1_555 1_555
C19 C18 1_555 1_555
H18 O1 1_555 1_555
H19 O2 1_555 1_555
H20 O2 1_555 1_555
Ni1_2 O6 1_555 1_555
Ni1_3 N2 1_555 1_555
O6_2 Ni1 1_555 1_555
N2_2 Ni1 1_555 1_555
C4 C5 1_555 1_555
C12 C13 1_555 1_555
C17 C18 1_555 1_555

#END
