
#######################################################################
#
#                 Cambridge Crystallographic Data Centre
#                                CCDC 
#
#######################################################################
#
# If this CIF has been generated from an entry in the Cambridge 
# Structural Database, then it will include bibliographic, chemical, 
# crystal, experimental, refinement or atomic coordinate data resulting 
# from the CCDC's data processing and validation procedures.
#
#######################################################################

data_LICPAQ
_symmetry_cell_setting           orthorhombic
_symmetry_space_group_name_H-M   'P n n a'
_symmetry_Int_Tables_number      52
_space_group_name_Hall           '-P 2a 2bc'
loop_
_symmetry_equiv_pos_site_id
_symmetry_equiv_pos_as_xyz
1 x,y,z
2 1/2-x,-y,z
3 1/2-x,1/2+y,1/2-z
4 x,1/2-y,1/2-z
5 -x,-y,-z
6 1/2+x,y,-z
7 1/2+x,1/2-y,1/2+z
8 -x,1/2+y,1/2+z
_cell_length_a                   17.835(4)
_cell_length_b                   12.421(3)
_cell_length_c                   19.029(4)
_cell_angle_alpha                90
_cell_angle_beta                 90
_cell_angle_gamma                90
_cell_volume                     4215.47
loop_
_atom_site_label
_atom_site_type_symbol
_atom_site_fract_x
_atom_site_fract_y
_atom_site_fract_z
Ag1 Ag 1.01056(6) 0.29352(8) 0.61135(5)
N1 N 1.0025(6) 0.1948(8) 0.5195(5)
C1 C 0.9957(6) 0.0618(9) 0.4002(5)
C2 C 0.9934(6) -0.0078(9) 0.3364(5)
C3 C 1.0564(6) -0.0277(11) 0.2989(6)
H1 H 1.1022 -0.0016 0.3150
C4 C 0.9255(7) -0.0512(9) 0.3097(6)
H2 H 0.8804 -0.0406 0.3333
C5 C 1.0607(7) 0.0693(9) 0.4409(5)
H3 H 1.1025 0.0279 0.4299
C6 C 0.9388(7) 0.1852(8) 0.4808(6)
H4 H 0.8966 0.2239 0.4946
C7 C 0.9340(7) 0.1209(9) 0.4222(6)
H5 H 0.8893 0.1169 0.3973
C8 C 1.0623(7) 0.1378(9) 0.4972(6)
H6 H 1.1073 0.1456 0.5214
C9 C 0.9276(7) -0.1077(9) 0.2498(5)
H7 H 0.8828 -0.1358 0.2328
N2 N 0.9905(6) -0.1264(8) 0.2125(5)
C10 C 1.0541(6) -0.0853(11) 0.2376(6)
H8 H 1.0984 -0.0961 0.2128
Ag2 Ag 0.7500 0.5000 0.4905(2)
O1 O 0.8577(8) 0.4109(10) 0.5432(7)
O2 O 0.8325(9) 0.7496(11) 0.3758(6)
O3 O 0.8510(9) 0.6187(11) 0.4352(8)
N3 N 0.8031(9) 0.6769(11) 0.4082(7)
O4 O 0.7388(8) 0.6694(13) 0.4094(9)
N4 N 0.8241(10) 0.3538(11) 0.5894(7)
O5 O 0.8595(11) 0.2910(13) 0.6274(9)
O6 O 0.7538(8) 0.3578(15) 0.5990(10)
Ag1A Ag 0.48944(6) 0.70648(8) 0.61135(5)
N1A N 0.4975(6) 0.8052(8) 0.5195(5)
C1A C 0.5043(6) 0.9382(9) 0.4002(5)
C2A C 0.5066(6) 1.0078(9) 0.3364(5)
C3A C 0.4436(6) 1.0277(11) 0.2989(6)
H1A H 0.3978 1.0016 0.3150
C4A C 0.5745(7) 1.0512(9) 0.3097(6)
H2A H 0.6196 1.0406 0.3333
C5A C 0.4393(7) 0.9307(9) 0.4409(5)
H3A H 0.3975 0.9721 0.4299
C6A C 0.5612(7) 0.8148(8) 0.4808(6)
H4A H 0.6034 0.7761 0.4946
C7A C 0.5660(7) 0.8791(9) 0.4222(6)
H5A H 0.6107 0.8831 0.3973
C8A C 0.4377(7) 0.8622(9) 0.4972(6)
H6A H 0.3927 0.8544 0.5214
C9A C 0.5724(7) 1.1077(9) 0.2498(5)
H7A H 0.6172 1.1358 0.2328
N2A N 0.5095(6) 1.1264(8) 0.2125(5)
C10A C 0.4459(6) 1.0853(11) 0.2376(6)
H8A H 0.4016 1.0961 0.2128
O1A O 0.6423(8) 0.5891(10) 0.5432(7)
O2A O 0.6675(9) 0.2504(11) 0.3758(6)
O3A O 0.6490(9) 0.3813(11) 0.4352(8)
N3A N 0.6969(9) 0.3231(11) 0.4082(7)
O4A O 0.7612(8) 0.3306(13) 0.4094(9)
N4A N 0.6759(10) 0.6462(11) 0.5894(7)
O5A O 0.6405(11) 0.7090(13) 0.6274(9)
O6A O 0.7462(8) 0.6422(15) 0.5990(10)
Ag1F Ag 0.51056(6) 1.20648(8) 0.11135(5)
Ag1G Ag 0.98944(6) -0.20648(8) 0.11135(5)
N2F N 0.4905(6) 0.6264(8) 0.7125(5)
N2G N 1.0095(6) 0.3736(8) 0.7125(5)
Ag3 Ag 1.0000 0.5000 0.5000
N5 N 0.9961(6) 0.5890(9) 0.5965(5)
C11 C 0.9949(6) 0.7187(9) 0.7183(5)
C12 C 0.9299(8) 0.7043(11) 0.6766(6)
H9 H 0.8855 0.7391 0.6884
C13 C 1.0585(7) 0.6660(10) 0.6941(5)
H10 H 1.1036 0.6741 0.7181
C14 C 0.9326(8) 0.6380(11) 0.6179(6)
H11 H 0.8888 0.6270 0.5923
C15 C 1.0559(8) 0.6021(10) 0.6354(6)
H12 H 1.0993 0.5658 0.6225
N5C N 0.9961(6) 0.9110(9) 0.9035(5)
C11C C 0.9949(6) 0.7813(9) 0.7817(5)
C12C C 0.9299(8) 0.7957(11) 0.8234(6)
H9C H 0.8855 0.7609 0.8116
C13C C 1.0585(7) 0.8340(10) 0.8059(5)
H10C H 1.1036 0.8259 0.7819
C14C C 0.9326(8) 0.8620(11) 0.8821(6)
H11C H 0.8888 0.8730 0.9077
C15C C 1.0559(8) 0.8979(10) 0.8646(6)
H12C H 1.0993 0.9342 0.8775
Ag3C Ag 1.0000 1.0000 1.0000
N5D N 1.0039(6) 0.4110(9) 0.4035(5)
Ag4 Ag 1.25957(8) 0.2500 0.2500
C16 C 1.2514(7) 0.4402(13) 0.1399(11)
N6 N 1.2523(6) 0.4094(8) 0.2080(7)
C17 C 1.2525(9) 0.3830(18) 0.0819(10)
H13 H 1.2535 0.3082 0.0828
C18 C 1.2500 0.5000 0.2458(11)
H14 H 1.2500 0.5000 0.2946
C19 C 1.2523(10) 0.441(3) 0.0180(16)
H15 H 1.2549 0.4037 -0.0244
C16A C 1.2486(7) 0.5598(13) 0.1399(11)
N6A N 1.2477(6) 0.5906(8) 0.2080(7)
C17A C 1.2475(9) 0.6170(18) 0.0819(10)
H13A H 1.2465 0.6918 0.0828
C19A C 1.2477(10) 0.559(3) 0.0180(16)
H15A H 1.2451 0.5963 -0.0244
Ag4A Ag 1.24043(8) 0.7500 0.2500
N6C N 1.2523(6) 0.0906(8) 0.2920(7)
O7 O 1.2821(10) 0.1297(18) 0.6931(11)
loop_
_geom_bond_atom_site_label_1
_geom_bond_atom_site_label_2
_geom_bond_site_symmetry_1
_geom_bond_site_symmetry_2
Ag1 N1 1_555 1_555
N1 C6 1_555 1_555
C1 C2 1_555 1_555
C2 C3 1_555 1_555
C3 H1 1_555 1_555
C4 C2 1_555 1_555
H2 C4 1_555 1_555
C5 C1 1_555 1_555
H3 C5 1_555 1_555
C6 H4 1_555 1_555
C7 C1 1_555 1_555
H5 C7 1_555 1_555
C8 N1 1_555 1_555
H6 C8 1_555 1_555
C9 C4 1_555 1_555
H7 C9 1_555 1_555
N2 C9 1_555 1_555
C10 C3 1_555 1_555
H8 C10 1_555 1_555
Ag2 O1 1_555 1_555
O1 N4 1_555 1_555
O2 N3 1_555 1_555
O3 Ag2 1_555 1_555
N3 O3 1_555 1_555
O4 Ag2 1_555 1_555
N4 O5 1_555 1_555
O5 Ag1 1_555 1_555
O6 Ag2 1_555 1_555
Ag3 N5 1_555 1_555
N5 C14 1_555 1_555
C11 C12 1_555 1_555
C12 H9 1_555 1_555
C13 C11 1_555 1_555
H10 C13 1_555 1_555
C14 C12 1_555 1_555
H11 C14 1_555 1_555
C15 N5 1_555 1_555
H12 C15 1_555 1_555
Ag4 N6 1_555 1_555
C16 N6 1_555 1_555
N6 C18 1_555 1_555
C17 C16 1_555 1_555
H13 C17 1_555 1_555
C18 H14 1_555 1_555
C19 C17 1_555 1_555
H15 C19 1_555 1_555
Ag1A N1A 1_555 1_555
N1A C6A 1_555 1_555
C1A C2A 1_555 1_555
C2A C3A 1_555 1_555
C3A H1A 1_555 1_555
C4A C2A 1_555 1_555
H2A C4A 1_555 1_555
C5A C1A 1_555 1_555
H3A C5A 1_555 1_555
C6A H4A 1_555 1_555
C7A C1A 1_555 1_555
H5A C7A 1_555 1_555
C8A N1A 1_555 1_555
H6A C8A 1_555 1_555
C9A C4A 1_555 1_555
H7A C9A 1_555 1_555
N2A C9A 1_555 1_555
C10A C3A 1_555 1_555
H8A C10A 1_555 1_555
O1A Ag2 1_555 1_555
O2A N3A 1_555 1_555
O3A Ag2 1_555 1_555
N3A O3A 1_555 1_555
O4A Ag2 1_555 1_555
N4A O1A 1_555 1_555
O5A Ag1A 1_555 1_555
O6A Ag2 1_555 1_555
Ag1F N2A 1_555 1_555
Ag1G N2 1_555 1_555
N2F Ag1A 1_555 1_555
N2G Ag1 1_555 1_555
N5C C14C 1_555 1_555
C11C C11 1_555 1_555
C12C C11C 1_555 1_555
H9C C12C 1_555 1_555
C13C C11C 1_555 1_555
H10C C13C 1_555 1_555
C14C C12C 1_555 1_555
H11C C14C 1_555 1_555
C15C N5C 1_555 1_555
H12C C15C 1_555 1_555
Ag3C N5C 1_555 1_555
N5D Ag3 1_555 1_555
C16A C16 1_555 1_555
N6A C18 1_555 1_555
C17A C16A 1_555 1_555
H13A C17A 1_555 1_555
C19A C19 1_555 1_555
H15A C19A 1_555 1_555
Ag4A N6A 1_555 1_555
N6C Ag4 1_555 1_555
C5 C8 1_555 1_555
C6 C7 1_555 1_555
N2 C10 1_555 1_555
N3 O4 1_555 1_555
N4 O6 1_555 1_555
C13 C15 1_555 1_555
C5A C8A 1_555 1_555
C6A C7A 1_555 1_555
N2A C10A 1_555 1_555
N3A O4A 1_555 1_555
N4A O5A 1_555 1_555
N4A O6A 1_555 1_555
C13C C15C 1_555 1_555
C16A N6A 1_555 1_555
C17A C19A 1_555 1_555

#END
