
#######################################################################
#
#                 Cambridge Crystallographic Data Centre
#                                CCDC 
#
#######################################################################
#
# If this CIF has been generated from an entry in the Cambridge 
# Structural Database, then it will include bibliographic, chemical, 
# crystal, experimental, refinement or atomic coordinate data resulting 
# from the CCDC's data processing and validation procedures.
#
#######################################################################

data_LICQOE
_symmetry_cell_setting           triclinic
_symmetry_space_group_name_H-M   'P -1'
_symmetry_Int_Tables_number      2
_space_group_name_Hall           '-P 1'
loop_
_symmetry_equiv_pos_site_id
_symmetry_equiv_pos_as_xyz
1 x,y,z
2 -x,-y,-z
_cell_length_a                   8.66770(10)
_cell_length_b                   10.4584(3)
_cell_length_c                   14.7861(3)
_cell_angle_alpha                83.362(5)
_cell_angle_beta                 73.027(4)
_cell_angle_gamma                86.190(6)
_cell_volume                     1272.63
loop_
_atom_site_label
_atom_site_type_symbol
_atom_site_fract_x
_atom_site_fract_y
_atom_site_fract_z
Ce1 Ce 0.00594(2) 0.441087(16) 0.796133(12)
Cl1 Cl -0.11177(11) 0.19676(8) 0.88064(7)
Cl2 Cl 0.09043(12) 0.67876(8) 0.84625(6)
O1 O -0.2380(4) 0.5682(3) 0.7862(2)
O2 O -0.8044(3) 1.3811(2) 0.8983(2)
O3 O 0.7408(4) -0.5185(3) 0.5485(2)
O4 O 0.2428(3) 0.3201(3) 0.6970(2)
O5 O -0.1189(4) 0.3598(3) 0.6824(2)
H1 H -0.0935 0.2845 0.6653
H2 H -0.1466 0.3972 0.6351
O6 O -0.1698(3) 0.4586(3) 0.96565(18)
H3 H -0.1812 0.5220 0.9984
H4 H -0.1465 0.3917 0.9983
O7 O 0.1258(4) 0.5682(2) 0.63959(18)
H5 H 0.1148 0.6482 0.6236
H6 H 0.1731 0.5393 0.5867
N1 N -0.3048(4) 0.6797(3) 0.8165(2)
N2 N -0.7157(4) 1.2713(3) 0.8993(2)
N3 N 0.3114(4) 0.2040(3) 0.6792(2)
N4 N 0.6763(4) -0.4033(3) 0.5714(2)
C1 C -0.2279(5) 0.7893(4) 0.7815(3)
H9 H -0.1242 0.7867 0.7399
C2 C -0.4516(5) 0.6817(4) 0.8794(3)
H10 H -0.5020 0.6048 0.9059
C3 C -0.3012(5) 0.9058(4) 0.8068(3)
H11 H -0.2455 0.9810 0.7825
C4 C -0.5281(5) 0.7971(4) 0.9050(3)
H12 H -0.6304 0.7972 0.9483
C5 C -0.4557(4) 0.9133(3) 0.8673(2)
C6 C -0.5413(4) 1.0395(3) 0.8856(2)
C7 C -0.4733(4) 1.1541(3) 0.8356(3)
H13 H -0.3675 1.1530 0.7966
C8 C -0.6954(4) 1.0496(4) 0.9479(3)
H14 H -0.7416 0.9769 0.9859
C9 C -0.5622(5) 1.2680(4) 0.8442(3)
H15 H -0.5157 1.3437 0.8114
C10 C -0.7813(5) 1.1658(4) 0.9543(3)
H16 H -0.8841 1.1712 0.9966
C11 C 0.4609(5) 0.1976(4) 0.6179(3)
H17 H 0.5140 0.2728 0.5895
C12 C 0.2344(4) 0.0960(3) 0.7219(3)
H18 H 0.1312 0.1022 0.7637
C13 C 0.5353(4) 0.0786(3) 0.5975(3)
H19 H 0.6372 0.0748 0.5540
C14 C 0.3065(4) -0.0234(4) 0.7045(3)
H20 H 0.2523 -0.0971 0.7355
C15 C 0.4602(4) -0.0351(3) 0.6406(2)
C16 C 0.5370(4) -0.1637(3) 0.6185(2)
C17 C 0.6976(5) -0.1775(4) 0.5648(3)
H21 H 0.7603 -0.1053 0.5437
C18 C 0.4512(5) -0.2754(4) 0.6482(3)
H22 H 0.3443 -0.2705 0.6851
C19 C 0.7645(5) -0.2979(4) 0.5423(3)
H23 H 0.8719 -0.3057 0.5067
C20 C 0.5208(5) -0.3933(4) 0.6241(3)
H24 H 0.4602 -0.4668 0.6443
Ce1_2 Ce -0.99406(2) 1.441087(16) 0.796133(12)
O2_2 O 0.1956(3) 0.3811(2) 0.8983(2)
Cl3 Cl 0.10399(16) 0.85283(13) 0.58040(9)
O8 O -0.0742(3) 0.10277(19) 0.62206(14)
H7 H -0.0028 0.0725 0.6485
H8 H -0.0526 0.0870 0.5645
loop_
_geom_bond_atom_site_label_1
_geom_bond_atom_site_label_2
_geom_bond_site_symmetry_1
_geom_bond_site_symmetry_2
Ce1 Cl1 1_555 1_555
Cl2 Ce1 1_555 1_555
O1 Ce1 1_555 1_555
O2 N2 1_555 1_555
O3 N4 1_555 1_555
O4 Ce1 1_555 1_555
O5 Ce1 1_555 1_555
H1 O5 1_555 1_555
H2 O5 1_555 1_555
O6 Ce1 1_555 1_555
H3 O6 1_555 1_555
H4 O6 1_555 1_555
O7 Ce1 1_555 1_555
H5 O7 1_555 1_555
H6 O7 1_555 1_555
O8 H7 1_555 1_555
H8 O8 1_555 1_555
N1 O1 1_555 1_555
N2 C9 1_555 1_555
N3 O4 1_555 1_555
N4 C19 1_555 1_555
C1 N1 1_555 1_555
H9 C1 1_555 1_555
C2 N1 1_555 1_555
H10 C2 1_555 1_555
C3 C1 1_555 1_555
H11 C3 1_555 1_555
C4 C2 1_555 1_555
H12 C4 1_555 1_555
C5 C3 1_555 1_555
C6 C5 1_555 1_555
C7 C6 1_555 1_555
H13 C7 1_555 1_555
C8 C6 1_555 1_555
H14 C8 1_555 1_555
C9 C7 1_555 1_555
H15 C9 1_555 1_555
C10 N2 1_555 1_555
H16 C10 1_555 1_555
C11 N3 1_555 1_555
H17 C11 1_555 1_555
C12 N3 1_555 1_555
H18 C12 1_555 1_555
C13 C11 1_555 1_555
H19 C13 1_555 1_555
C14 C12 1_555 1_555
H20 C14 1_555 1_555
C15 C13 1_555 1_555
C16 C15 1_555 1_555
C17 C16 1_555 1_555
H21 C17 1_555 1_555
C18 C16 1_555 1_555
H22 C18 1_555 1_555
C19 C17 1_555 1_555
H23 C19 1_555 1_555
C20 N4 1_555 1_555
H24 C20 1_555 1_555
Ce1_2 O2 1_555 1_555
O2_2 Ce1 1_555 1_555
C4 C5 1_555 1_555
C8 C10 1_555 1_555
C14 C15 1_555 1_555
C18 C20 1_555 1_555

#END
