
#######################################################################
#
#                 Cambridge Crystallographic Data Centre
#                                CCDC 
#
#######################################################################
#
# If this CIF has been generated from an entry in the Cambridge 
# Structural Database, then it will include bibliographic, chemical, 
# crystal, experimental, refinement or atomic coordinate data resulting 
# from the CCDC's data processing and validation procedures.
#
#######################################################################

data_LICQAR
_symmetry_cell_setting           triclinic
_symmetry_space_group_name_H-M   'P -1'
_symmetry_Int_Tables_number      2
_space_group_name_Hall           '-P 1'
loop_
_symmetry_equiv_pos_site_id
_symmetry_equiv_pos_as_xyz
1 x,y,z
2 -x,-y,-z
_cell_length_a                   10.14210(10)
_cell_length_b                   11.216
_cell_length_c                   14.926
_cell_angle_alpha                108.677(7)
_cell_angle_beta                 93.655(10)
_cell_angle_gamma                104.609(7)
_cell_volume                     1537.01
loop_
_atom_site_label
_atom_site_type_symbol
_atom_site_fract_x
_atom_site_fract_y
_atom_site_fract_z
Cu1 Cu 0.63262(2) 0.94052(2) 0.581549(17)
N1 N 0.56230(17) 0.77721(17) 0.46354(12)
N2 N 0.45280(19) 0.44369(19) 0.12793(13)
N3 N 0.3526(2) 0.31363(19) 0.20654(14)
H1 H 0.3239 0.2904 0.2531
N4 N 0.69336(16) 1.10104(17) 0.70357(12)
N5 N 0.77600(17) 1.44259(17) 1.04574(12)
N6 N 0.87323(18) 1.55963(17) 0.95960(13)
H2 H 0.9003 1.5780 0.9109
O1 O 0.45153(13) 0.90640(15) 0.62157(10)
O2 O 0.31740(14) 0.92373(15) 0.50421(10)
O3 O -0.17259(13) 0.92655(15) 0.57697(10)
O4 O -0.26508(14) 0.79711(17) 0.65498(12)
O5 O 0.02262(18) 0.6390(2) 0.83321(16)
O6 O 0.25153(16) 0.70184(17) 0.84460(12)
H3 H 0.245(4) 0.659(3) 0.890(2)
C1 C 0.5952(2) 0.7772(2) 0.37783(16)
H4 H 0.6525 0.8539 0.3740
C2 C 0.5483(2) 0.6694(2) 0.29579(16)
H5 H 0.5713 0.6748 0.2376
C3 C 0.4663(2) 0.5521(2) 0.29966(15)
C4 C 0.4328(3) 0.5512(2) 0.38860(16)
H6 H 0.3782 0.4749 0.3947
C5 C 0.4818(2) 0.6648(2) 0.46730(16)
H7 H 0.4576 0.6634 0.5261
C6 C 0.4229(2) 0.4371(2) 0.21106(15)
C7 C 0.4002(2) 0.3160(2) 0.06435(16)
C8 C 0.4040(3) 0.2647(3) -0.03403(18)
H8 H 0.4446 0.3183 -0.0670
C9 C 0.3455(3) 0.1327(3) -0.0794(2)
H9 H 0.3481 0.0959 -0.1444
C10 C 0.2819(4) 0.0513(3) -0.0311(2)
H10 H 0.2429 -0.0380 -0.0650
C11 C 0.2752(3) 0.0997(3) 0.0658(2)
H11 H 0.2321 0.0457 0.0978
C12 C 0.3368(2) 0.2338(2) 0.11241(17)
C13 C 0.7673(2) 1.2185(2) 0.70452(15)
H12 H 0.7957 1.2252 0.6479
C14 C 0.8037(2) 1.3305(2) 0.78539(15)
H13 H 0.8534 1.4105 0.7822
C15 C 0.76533(19) 1.3226(2) 0.87180(14)
C16 C 0.6900(2) 1.1996(2) 0.87127(15)
H14 H 0.6633 1.1894 0.9275
C17 C 0.6554(2) 1.0936(2) 0.78708(15)
H15 H 0.6033 1.0128 0.7878
C18 C 0.80351(19) 1.4389(2) 0.95936(14)
C19 C 0.8928(2) 1.6467(2) 1.05097(16)
C20 C 0.9568(2) 1.7817(2) 1.0906(2)
H16 H 0.9964 1.8299 1.0537
C21 C 0.9580(3) 1.8396(3) 1.1869(2)
H17 H 0.9990 1.9296 1.2160
C22 C 0.8992(3) 1.7669(3) 1.24237(19)
H18 H 0.9035 1.8097 1.3076
C23 C 0.8354(3) 1.6341(3) 1.20327(17)
H19 H 0.7963 1.5866 1.2407
C24 C 0.8316(2) 1.5730(2) 1.10494(15)
C25 C 0.33627(18) 0.89846(18) 0.57825(13)
C26 C 0.21316(18) 0.85361(18) 0.62373(13)
C27 C 0.08526(19) 0.86912(19) 0.59817(13)
H20 H 0.0749 0.9074 0.5524
C28 C -0.02703(18) 0.82716(19) 0.64131(14)
C29 C -0.16488(19) 0.8505(2) 0.62254(14)
C30 C -0.0103(2) 0.7686(2) 0.70852(15)
H21 H -0.0855 0.7381 0.7360
C31 C 0.1172(2) 0.7546(2) 0.73551(14)
C32 C 0.1272(2) 0.6933(2) 0.80952(16)
C33 C 0.22959(19) 0.79880(19) 0.69411(14)
H22 H 0.3156 0.7920 0.7132
Cu1_2 Cu -0.36738(2) 0.94052(2) 0.581549(17)
Cu1A Cu 0.36738(2) 1.05948(2) 0.418451(17)
O2A O 0.68260(14) 1.07627(15) 0.49579(10)
O3_2 O 0.82741(13) 0.92655(15) 0.57697(10)
O4_2 O 0.73492(14) 0.79711(17) 0.65498(12)
loop_
_geom_bond_atom_site_label_1
_geom_bond_atom_site_label_2
_geom_bond_site_symmetry_1
_geom_bond_site_symmetry_2
Cu1 N1 1_555 1_555
N1 C1 1_555 1_555
N2 C6 1_555 1_555
N3 H1 1_555 1_555
N4 Cu1 1_555 1_555
N5 C18 1_555 1_555
N6 H2 1_555 1_555
O1 Cu1 1_555 1_555
O2 C25 1_555 1_555
O3 C29 1_555 1_555
O4 C29 1_555 1_555
O5 C32 1_555 1_555
O6 H3 1_555 1_555
C1 H4 1_555 1_555
C2 C1 1_555 1_555
H5 C2 1_555 1_555
C3 C2 1_555 1_555
C4 C3 1_555 1_555
H6 C4 1_555 1_555
C5 N1 1_555 1_555
H7 C5 1_555 1_555
C6 N3 1_555 1_555
C7 N2 1_555 1_555
C8 C7 1_555 1_555
H8 C8 1_555 1_555
C9 C8 1_555 1_555
H9 C9 1_555 1_555
C10 C9 1_555 1_555
H10 C10 1_555 1_555
C11 C10 1_555 1_555
H11 C11 1_555 1_555
C12 N3 1_555 1_555
C13 N4 1_555 1_555
H12 C13 1_555 1_555
C14 C13 1_555 1_555
H13 C14 1_555 1_555
C15 C14 1_555 1_555
C16 C15 1_555 1_555
H14 C16 1_555 1_555
C17 N4 1_555 1_555
H15 C17 1_555 1_555
C18 N6 1_555 1_555
C19 N6 1_555 1_555
C20 C19 1_555 1_555
H16 C20 1_555 1_555
C21 C20 1_555 1_555
H17 C21 1_555 1_555
C22 C21 1_555 1_555
H18 C22 1_555 1_555
C23 C22 1_555 1_555
H19 C23 1_555 1_555
C24 N5 1_555 1_555
C25 O1 1_555 1_555
C26 C25 1_555 1_555
C27 C26 1_555 1_555
H20 C27 1_555 1_555
C28 C27 1_555 1_555
C29 C28 1_555 1_555
C30 C28 1_555 1_555
H21 C30 1_555 1_555
C31 C30 1_555 1_555
C32 O6 1_555 1_555
C33 C26 1_555 1_555
H22 C33 1_555 1_555
Cu1_2 O3 1_555 1_555
Cu1A O2 1_555 1_555
O2A Cu1 1_555 1_555
O3_2 Cu1 1_555 1_555
O4_2 Cu1 1_555 1_555
O4 Cu1_2 1_555 1_555
C3 C6 1_555 1_555
C4 C5 1_555 1_555
C7 C12 1_555 1_555
C11 C12 1_555 1_555
C15 C18 1_555 1_555
C16 C17 1_555 1_555
C19 C24 1_555 1_555
C23 C24 1_555 1_555
C31 C32 1_555 1_555
C31 C33 1_555 1_555

#END
