
#######################################################################
#
#                 Cambridge Crystallographic Data Centre
#                                CCDC 
#
#######################################################################
#
# If this CIF has been generated from an entry in the Cambridge 
# Structural Database, then it will include bibliographic, chemical, 
# crystal, experimental, refinement or atomic coordinate data resulting 
# from the CCDC's data processing and validation procedures.
#
#######################################################################

data_LICQOF
_symmetry_cell_setting           monoclinic
_symmetry_space_group_name_H-M   'P 21/c'
_symmetry_Int_Tables_number      14
_space_group_name_Hall           '-P 2ybc'
loop_
_symmetry_equiv_pos_site_id
_symmetry_equiv_pos_as_xyz
1 x,y,z
2 -x,1/2+y,1/2-z
3 -x,-y,-z
4 x,1/2-y,1/2+z
_cell_length_a                   11.9100(16)
_cell_length_b                   18.073(2)
_cell_length_c                   18.058(2)
_cell_angle_alpha                90
_cell_angle_beta                 98.625(4)
_cell_angle_gamma                90
_cell_volume                     3843.02
loop_
_atom_site_label
_atom_site_type_symbol
_atom_site_fract_x
_atom_site_fract_y
_atom_site_fract_z
C1 C 0.2582(6) -0.0827(4) 0.7739(4)
H1 H 0.3099 -0.1019 0.8129
C2 C 0.1628(7) -0.1238(4) 0.7497(4)
H2 H 0.1506 -0.1688 0.7721
C3 C 0.0865(7) -0.0972(4) 0.6921(5)
H3 H 0.0233 -0.1250 0.6723
C4 C 0.1049(6) -0.0287(4) 0.6639(4)
H4 H 0.0511 -0.0076 0.6273
C5 C 0.2045(6) 0.0095(4) 0.6902(4)
C6 C 0.2284(6) 0.0813(4) 0.6585(4)
H5 H 0.1707 0.1060 0.6278
C7 C 0.3515(5) 0.1813(4) 0.6440(3)
C8 C 0.2756(6) 0.2267(3) 0.5999(4)
H6 H 0.2008 0.2114 0.5863
C9 C 0.3096(6) 0.2951(4) 0.5755(4)
H7 H 0.2579 0.3255 0.5461
C10 C 0.4225(6) 0.3174(4) 0.5957(3)
C11 C 0.4994(6) 0.2718(4) 0.6384(4)
H8 H 0.5747 0.2863 0.6513
C12 C 0.4631(6) 0.2042(4) 0.6617(3)
H9 H 0.5152 0.1732 0.6901
C13 C 0.3896(6) 0.4349(4) 0.5342(4)
H10 H 0.3269 0.4452 0.5614
H11 H 0.3590 0.4152 0.4854
C14 C 0.4557(7) 0.5051(4) 0.5255(4)
H12 H 0.4033 0.5437 0.5052
H13 H 0.4927 0.5211 0.5744
C15 C 0.4906(6) 0.4683(3) 1.0258(4)
H14 H 0.5565 0.4640 1.0642
H15 H 0.4257 0.4796 1.0504
C16 C 0.4708(6) 0.3958(4) 0.9867(4)
H16 H 0.4577 0.3575 1.0221
H17 H 0.4046 0.3987 0.9483
C17 C 0.5747(6) 0.3116(4) 0.9189(3)
C18 C 0.6706(5) 0.2969(4) 0.8858(4)
H18 H 0.7263 0.3331 0.8862
C19 C 0.6841(6) 0.2305(3) 0.8528(3)
H19 H 0.7496 0.2215 0.8319
C20 C 0.6017(5) 0.1759(3) 0.8499(3)
C21 C 0.5021(5) 0.1916(3) 0.8783(4)
H20 H 0.4437 0.1570 0.8736
C22 C 0.4894(6) 0.2583(4) 0.9134(4)
H21 H 0.4233 0.2677 0.9334
C23 C 0.7052(6) 0.0733(4) 0.8159(4)
H22 H 0.7719 0.0985 0.8336
C24 C 0.7105(6) -0.0018(4) 0.7846(3)
C25 C 0.6119(6) -0.1012(4) 0.7280(4)
H23 H 0.5436 -0.1224 0.7065
C26 C 0.7112(7) -0.1429(4) 0.7321(4)
H24 H 0.7089 -0.1914 0.7146
C27 C 0.8122(6) -0.1112(4) 0.7623(4)
H25 H 0.8799 -0.1374 0.7645
C28 C 0.8121(6) -0.0391(4) 0.7896(4)
H26 H 0.8795 -0.0165 0.8108
N1 N 0.2820(4) -0.0180(3) 0.7460(3)
N2 N 0.3258(4) 0.1107(3) 0.6719(3)
N3 N 0.6113(4) -0.0318(3) 0.7538(3)
N4 N 0.6089(4) 0.1039(3) 0.8187(3)
O1 O 0.4654(4) 0.3830(2) 0.5746(3)
O2 O 0.5704(4) 0.3784(2) 0.9532(2)
Ag1 Ag 0.45206(4) 0.04068(3) 0.75768(3)
C1B C 0.7418(6) 1.0827(4) 0.2261(4)
H1B H 0.6901 1.1019 0.1871
C2B C 0.8372(7) 1.1238(4) 0.2503(4)
H2B H 0.8494 1.1688 0.2279
C3B C 0.9135(7) 1.0972(4) 0.3079(5)
H3B H 0.9767 1.1250 0.3277
C4B C 0.8951(6) 1.0287(4) 0.3361(4)
H4B H 0.9489 1.0076 0.3727
C5B C 0.7955(6) 0.9905(4) 0.3098(4)
C6B C 0.7716(6) 0.9187(4) 0.3415(4)
H5B H 0.8293 0.8940 0.3722
C7B C 0.6485(5) 0.8187(4) 0.3560(3)
C8B C 0.7244(6) 0.7733(3) 0.4001(4)
H6B H 0.7992 0.7886 0.4137
C9B C 0.6904(6) 0.7049(4) 0.4245(4)
H7B H 0.7421 0.6745 0.4539
C10B C 0.5775(6) 0.6826(4) 0.4043(3)
C11B C 0.5006(6) 0.7282(4) 0.3616(4)
H8B H 0.4253 0.7137 0.3487
C12B C 0.5369(6) 0.7958(4) 0.3383(3)
H9B H 0.4848 0.8268 0.3099
C13B C 0.6104(6) 0.5651(4) 0.4658(4)
H10B H 0.6731 0.5548 0.4386
H11B H 0.6410 0.5848 0.5146
C14B C 0.5443(7) 0.4949(4) 0.4745(4)
H12B H 0.5967 0.4563 0.4948
H13B H 0.5073 0.4789 0.4256
N1B N 0.7180(4) 1.0180(3) 0.2540(3)
N2B N 0.6742(4) 0.8893(3) 0.3281(3)
O1B O 0.5346(4) 0.6170(2) 0.4254(3)
C15B C 0.5094(6) 0.5317(3) 0.9742(4)
H14B H 0.4435 0.5360 0.9358
H15B H 0.5743 0.5204 0.9496
C16B C 0.5292(6) 0.6042(4) 1.0133(4)
H16B H 0.5423 0.6425 0.9779
H17B H 0.5954 0.6013 1.0517
C17B C 0.4253(6) 0.6884(4) 1.0811(3)
C18B C 0.3294(5) 0.7031(4) 1.1142(4)
H18B H 0.2737 0.6669 1.1138
C19B C 0.3159(6) 0.7695(3) 1.1472(3)
H19B H 0.2504 0.7785 1.1681
C20B C 0.3983(5) 0.8241(3) 1.1501(3)
C21B C 0.4979(5) 0.8084(3) 1.1217(4)
H20B H 0.5563 0.8430 1.1264
C22B C 0.5106(6) 0.7417(4) 1.0866(4)
H21B H 0.5767 0.7323 1.0666
C23B C 0.2948(6) 0.9267(4) 1.1841(4)
H22B H 0.2281 0.9015 1.1664
C24B C 0.2895(6) 1.0018(4) 1.2154(3)
C25B C 0.3881(6) 1.1012(4) 1.2720(4)
H23B H 0.4564 1.1224 1.2935
C26B C 0.2888(7) 1.1429(4) 1.2679(4)
H24B H 0.2911 1.1914 1.2854
C27B C 0.1878(6) 1.1112(4) 1.2377(4)
H25B H 0.1201 1.1374 1.2355
C28B C 0.1879(6) 1.0391(4) 1.2104(4)
H26B H 0.1205 1.0165 1.1892
N3B N 0.3887(4) 1.0318(3) 1.2462(3)
N4B N 0.3911(4) 0.8961(3) 1.1813(3)
O2B O 0.4296(4) 0.6216(2) 1.0468(2)
Ag1B Ag 0.54794(4) 0.95932(3) 0.24232(3)
N3B_2 N 0.3887(4) 1.0318(3) 0.2462(3)
N4B_2 N 0.3911(4) 0.8961(3) 0.1813(3)
Ag1B_2 Ag 0.54794(4) 0.95932(3) 1.24232(3)
C29 C -0.1221(7) 0.1463(5) 1.0302(4)
H27 H -0.1093 0.1607 0.9798
Cl1 Cl -0.1189(3) 0.05115(16) 1.0365(2)
Cl2 Cl -0.01374(19) 0.18528(15) 1.09608(13)
Cl3 Cl -0.25420(17) 0.18066(13) 1.04552(12)
C30 C -0.1837(9) 0.4080(7) 1.0568(6)
H28 H -0.2546 0.3894 1.0283
Cl4 Cl -0.1736(4) 0.3775(2) 1.14689(18)
Cl5 Cl -0.1853(2) 0.50477(19) 1.0542(2)
Cl6 Cl -0.0695(2) 0.37354(17) 1.01657(16)
F1 F -0.0553(5) 0.1989(5) 0.8563(6)
F2 F 0.1395(6) 0.2644(3) 0.8926(4)
F3 F 0.2340(5) 0.1516(5) 0.8431(4)
F4 F 0.1049(5) 0.1313(3) 0.9406(3)
F5 F 0.0384(6) 0.0910(3) 0.8007(3)
F6 F 0.0759(6) 0.2246(4) 0.7578(3)
Sb1 Sb 0.08957(4) 0.17748(3) 0.84728(3)
loop_
_geom_bond_atom_site_label_1
_geom_bond_atom_site_label_2
_geom_bond_site_symmetry_1
_geom_bond_site_symmetry_2
C1 H1 1_555 1_555
C2 C1 1_555 1_555
H2 C2 1_555 1_555
C3 C2 1_555 1_555
H3 C3 1_555 1_555
C4 C3 1_555 1_555
H4 C4 1_555 1_555
C5 C4 1_555 1_555
C6 C5 1_555 1_555
H5 C6 1_555 1_555
C7 C8 1_555 1_555
C8 H6 1_555 1_555
C9 C8 1_555 1_555
H7 C9 1_555 1_555
C10 C9 1_555 1_555
C11 C10 1_555 1_555
H8 C11 1_555 1_555
C12 C7 1_555 1_555
H9 C12 1_555 1_555
C13 H10 1_555 1_555
H11 C13 1_555 1_555
C14 C13 1_555 1_555
H12 C14 1_555 1_555
H13 C14 1_555 1_555
C15 H14 1_555 1_555
H15 C15 1_555 1_555
C16 C15 1_555 1_555
H16 C16 1_555 1_555
H17 C16 1_555 1_555
C17 C18 1_555 1_555
C18 H18 1_555 1_555
C19 C18 1_555 1_555
H19 C19 1_555 1_555
C20 C19 1_555 1_555
C21 C20 1_555 1_555
H20 C21 1_555 1_555
C22 C17 1_555 1_555
H21 C22 1_555 1_555
C23 H22 1_555 1_555
C24 C23 1_555 1_555
C25 H23 1_555 1_555
C26 C25 1_555 1_555
H24 C26 1_555 1_555
C27 C26 1_555 1_555
H25 C27 1_555 1_555
C28 C24 1_555 1_555
H26 C28 1_555 1_555
N1 C1 1_555 1_555
N2 C6 1_555 1_555
N3 C24 1_555 1_555
N4 C20 1_555 1_555
O1 C10 1_555 1_555
O2 C16 1_555 1_555
Ag1 N1 1_555 1_555
C29 H27 1_555 1_555
Cl1 C29 1_555 1_555
Cl2 C29 1_555 1_555
Cl3 C29 1_555 1_555
C30 H28 1_555 1_555
Cl4 C30 1_555 1_555
Cl5 C30 1_555 1_555
Cl6 C30 1_555 1_555
F1 Sb1 1_555 1_555
F2 Sb1 1_555 1_555
F3 Sb1 1_555 1_555
F4 Sb1 1_555 1_555
F5 Sb1 1_555 1_555
F6 Sb1 1_555 1_555
C1B H1B 1_555 1_555
C2B C1B 1_555 1_555
H2B C2B 1_555 1_555
C3B C2B 1_555 1_555
H3B C3B 1_555 1_555
C4B C3B 1_555 1_555
H4B C4B 1_555 1_555
C5B C4B 1_555 1_555
C6B C5B 1_555 1_555
H5B C6B 1_555 1_555
C7B C8B 1_555 1_555
C8B H6B 1_555 1_555
C9B C8B 1_555 1_555
H7B C9B 1_555 1_555
C10B C9B 1_555 1_555
C11B C10B 1_555 1_555
H8B C11B 1_555 1_555
C12B C7B 1_555 1_555
H9B C12B 1_555 1_555
C13B H10B 1_555 1_555
H11B C13B 1_555 1_555
C14B C14 1_555 1_555
H12B C14B 1_555 1_555
H13B C14B 1_555 1_555
N1B C1B 1_555 1_555
N2B C6B 1_555 1_555
O1B C10B 1_555 1_555
C15B C15 1_555 1_555
H14B C15B 1_555 1_555
H15B C15B 1_555 1_555
C16B C15B 1_555 1_555
H16B C16B 1_555 1_555
H17B C16B 1_555 1_555
C17B C18B 1_555 1_555
C18B H18B 1_555 1_555
C19B C18B 1_555 1_555
H19B C19B 1_555 1_555
C20B C19B 1_555 1_555
C21B C20B 1_555 1_555
H20B C21B 1_555 1_555
C22B C17B 1_555 1_555
H21B C22B 1_555 1_555
C23B H22B 1_555 1_555
C24B C23B 1_555 1_555
C25B H23B 1_555 1_555
C26B C25B 1_555 1_555
H24B C26B 1_555 1_555
C27B C26B 1_555 1_555
H25B C27B 1_555 1_555
C28B C24B 1_555 1_555
H26B C28B 1_555 1_555
N3B C24B 1_555 1_555
N4B C20B 1_555 1_555
O2B C16B 1_555 1_555
Ag1B N1B 1_555 1_555
N3B_2 Ag1B 1_555 1_555
N4B_2 Ag1B 1_555 1_555
Ag1B_2 N3B 1_555 1_555
C5 N1 1_555 1_555
C7 N2 1_555 1_555
C11 C12 1_555 1_555
C13 O1 1_555 1_555
C17 O2 1_555 1_555
C21 C22 1_555 1_555
C23 N4 1_555 1_555
C25 N3 1_555 1_555
C27 C28 1_555 1_555
N2 Ag1 1_555 1_555
N3 Ag1 1_555 1_555
N4 Ag1 1_555 1_555
C5B N1B 1_555 1_555
C7B N2B 1_555 1_555
C11B C12B 1_555 1_555
C13B C14B 1_555 1_555
C13B O1B 1_555 1_555
N2B Ag1B 1_555 1_555
C17B O2B 1_555 1_555
C21B C22B 1_555 1_555
C23B N4B 1_555 1_555
C25B N3B 1_555 1_555
C27B C28B 1_555 1_555
N4B Ag1B_2 1_555 1_555

#END
