
#######################################################################
#
#                 Cambridge Crystallographic Data Centre
#                                CCDC 
#
#######################################################################
#
# If this CIF has been generated from an entry in the Cambridge 
# Structural Database, then it will include bibliographic, chemical, 
# crystal, experimental, refinement or atomic coordinate data resulting 
# from the CCDC's data processing and validation procedures.
#
#######################################################################

data_LICROF
_symmetry_cell_setting           monoclinic
_symmetry_space_group_name_H-M   'P 21'
_symmetry_Int_Tables_number      4
_space_group_name_Hall           'P 2yb'
loop_
_symmetry_equiv_pos_site_id
_symmetry_equiv_pos_as_xyz
1 x,y,z
2 -x,1/2+y,-z
_cell_length_a                   10.7155(14)
_cell_length_b                   19.163(3)
_cell_length_c                   13.8595(19)
_cell_angle_alpha                90
_cell_angle_beta                 103.952(2)
_cell_angle_gamma                90
_cell_volume                     2761.97
loop_
_atom_site_label
_atom_site_type_symbol
_atom_site_fract_x
_atom_site_fract_y
_atom_site_fract_z
Ni1 Ni 0.42198(3) 0.407756(17) 0.38889(2)
Ni2 Ni -0.22842(3) 0.547362(18) -0.04888(2)
Ni3 Ni 0.26397(3) 0.503556(18) 0.54442(2)
Ni4 Ni 0.61531(3) 0.643660(17) 0.10731(2)
N1 N 0.0644(2) 0.51943(13) 0.49208(18)
N2 N -0.0279(2) 0.53559(13) 0.00496(18)
N3 N 0.3871(2) 0.29991(13) 0.37439(18)
N4 N -0.7236(2) 0.58468(13) -0.35201(18)
N5 N 0.5804(2) 0.40063(13) 0.32783(18)
N6 N 0.3540(2) 0.25074(13) 0.87777(18)
N7 N 0.7654(2) 0.46702(13) 0.84700(18)
N8 N 0.4610(2) 0.65246(13) 0.17253(17)
O1 O -0.27184(19) 0.62253(11) 0.24665(15)
O2 O -0.0733(2) 0.61607(15) 0.22257(16)
O3 O 0.31075(19) 0.43215(11) 0.24907(15)
O4 O 0.1091(2) 0.42393(13) 0.26454(16)
O5 O 0.2070(2) 0.11197(12) 0.16303(16)
O6 O 0.2120(2) 0.21860(12) 0.09873(16)
O7 O -0.50036(19) 0.65648(11) -0.02887(14)
O8 O -0.42383(19) 0.56921(11) -0.10697(15)
O9 O 0.58174(19) 0.53582(11) 0.10097(15)
O10 O 0.74415(19) 0.47960(11) 0.05760(15)
O11 O 0.2343(2) 0.44107(11) 0.65628(16)
O12 O 0.2548(3) 0.33512(13) 0.59402(18)
O13 O 0.53700(19) 0.39367(11) 0.52550(14)
O14 O 0.4597(2) 0.47992(12) 0.60533(16)
O15 O 0.4563(2) 0.51544(11) 0.39657(16)
O16 O 0.29137(19) 0.57019(11) 0.43838(15)
O17 O -0.22114(19) 0.63273(11) 0.04780(14)
H1 H -0.167(3) 0.6336(19) 0.1026(16)
H2 H -0.204(3) 0.6605(15) 0.0071(19)
O18 O 0.25784(19) 0.41760(12) 0.44792(14)
H3 H 0.196(2) 0.4187(18) 0.3982(18)
H4 H 0.248(3) 0.3795(13) 0.482(2)
C1 C 0.0169(3) 0.55066(16) 0.4046(2)
H5 H 0.0724 0.5601 0.3640
C2 C -0.1111(3) 0.56969(16) 0.3715(2)
C3 C -0.1952(3) 0.55322(19) 0.4295(2)
H6 H -0.2819 0.5646 0.4089
C4 C -0.1471(3) 0.5191(2) 0.5193(2)
H7 H -0.2016 0.5070 0.5596
C5 C -0.0190(3) 0.50369(19) 0.5476(2)
H8 H 0.0121 0.4812 0.6081
C6 C -0.1548(3) 0.60607(16) 0.2719(2)
C7 C 0.0197(3) 0.49869(16) 0.0883(2)
H9 H -0.0377 0.4805 0.1224
C8 C 0.1504(3) 0.48635(15) 0.1262(2)
C9 C 0.2352(3) 0.51459(16) 0.0762(2)
H10 H 0.3233 0.5077 0.0995
C10 C 0.1884(3) 0.55298(18) -0.0083(2)
H11 H 0.2444 0.5725 -0.0427
C11 C 0.0561(3) 0.56239(18) -0.0422(2)
H12 H 0.0251 0.5883 -0.0997
C12 C 0.1928(3) 0.44424(15) 0.2210(2)
C13 C 0.3281(3) 0.27225(15) 0.2854(2)
H13 H 0.3069 0.3019 0.2308
C14 C 0.2979(3) 0.20294(16) 0.2714(2)
C15 C 0.3345(4) 0.15776(19) 0.3520(3)
H14 H 0.3182 0.1101 0.3449
C16 C 0.3961(5) 0.1859(2) 0.4432(3)
H15 H 0.4217 0.1572 0.4984
C17 C 0.4191(4) 0.25614(19) 0.4517(3)
H16 H 0.4586 0.2742 0.5139
C18 C 0.2332(3) 0.17571(16) 0.1689(2)
C19 C -0.6332(3) 0.57858(16) -0.2674(2)
H17 H -0.5797 0.5397 -0.2597
C20 C -0.6138(3) 0.62655(15) -0.1898(2)
C21 C -0.6986(4) 0.68138(18) -0.1982(3)
H18 H -0.6919 0.7133 -0.1467
C22 C -0.7938(5) 0.6879(2) -0.2847(3)
H19 H -0.8515 0.7249 -0.2924
C23 C -0.8032(4) 0.6390(2) -0.3604(3)
H20 H -0.8671 0.6444 -0.4187
C24 C -0.5027(3) 0.61591(15) -0.1005(2)
C25 C 0.6799(3) 0.44229(16) 0.2004(2)
C26 C 0.5775(3) 0.43741(15) 0.2452(2)
H21 H 0.5022 0.4612 0.2161
C27 C 0.7931(3) 0.40685(19) 0.2449(2)
H22 H 0.8635 0.4078 0.2167
C28 C 0.7984(3) 0.37036(19) 0.3320(3)
H23 H 0.8737 0.3479 0.3645
C29 C 0.6904(3) 0.36768(17) 0.3700(2)
H24 H 0.6943 0.3418 0.4274
C30 C 0.6667(3) 0.48953(14) 0.1113(2)
C31 C 0.3171(3) 0.27839(16) 0.7865(2)
H25 H 0.3055 0.2487 0.7321
C32 C 0.2955(3) 0.34890(16) 0.7694(2)
C33 C 0.3144(5) 0.39296(19) 0.8507(3)
H26 H 0.2992 0.4406 0.8419
C34 C 0.3563(6) 0.3653(2) 0.9451(3)
H27 H 0.3732 0.3942 1.0007
C35 C 0.3725(4) 0.29347(19) 0.9553(3)
H28 H 0.3973 0.2746 1.0189
C36 C 0.2578(3) 0.37633(16) 0.6643(2)
C37 C 0.6676(3) 0.47067(16) 0.7657(2)
H29 H 0.6053 0.5048 0.7636
C38 C 0.6545(3) 0.42640(15) 0.6848(2)
C39 C 0.7485(3) 0.37602(19) 0.6876(3)
H30 H 0.7435 0.3454 0.6347
C40 C 0.8502(4) 0.3724(2) 0.7712(3)
H31 H 0.9152 0.3397 0.7746
C41 C 0.8538(3) 0.41772(18) 0.8492(2)
H32 H 0.9209 0.4137 0.9058
C42 C 0.5398(3) 0.43431(15) 0.5975(2)
C43 C 0.4609(3) 0.61172(15) 0.2517(2)
H33 H 0.5296 0.5814 0.2739
C44 C 0.3636(3) 0.61276(15) 0.3016(2)
C45 C 0.2603(3) 0.65667(19) 0.2680(3)
H34 H 0.1932 0.6585 0.2998
C46 C 0.2587(4) 0.6984(2) 0.1850(3)
H35 H 0.1898 0.7282 0.1605
C47 C 0.3597(3) 0.69514(18) 0.1394(3)
H36 H 0.3578 0.7232 0.0843
C48 C 0.3724(3) 0.56205(16) 0.3863(2)
Ni2_2 Ni 0.77158(3) 0.547362(18) 0.95112(2)
Ni2A Ni 0.22842(3) 0.047362(18) 0.04888(2)
Ni2_3 Ni 0.77158(3) 0.547362(18) -0.04888(2)
Ni3_2 Ni -0.73603(3) 0.503556(18) -0.45558(2)
Ni4A Ni 0.38469(3) 0.143660(17) 0.89269(2)
Ni4_2 Ni -0.38469(3) 0.643660(17) 0.10731(2)
N4_2 N 0.2764(2) 0.58468(13) 0.64799(18)
N6A N 0.6460(2) 0.75074(13) 0.12223(18)
N7_2 N -0.2346(2) 0.46702(13) -0.15300(18)
O1_2 O 0.72816(19) 0.62253(11) 0.24665(15)
O5A O -0.2070(2) 0.61197(12) -0.16303(16)
O7_2 O 0.49964(19) 0.65648(11) -0.02887(14)
O10_2 O -0.25585(19) 0.47960(11) 0.05760(15)
O17_2 O 0.77886(19) 0.63273(11) 0.04780(14)
H1_2 H 0.833(3) 0.6336(19) 0.1026(16)
H2_2 H 0.796(3) 0.6605(15) 0.0071(19)
O19 O -0.2455(4) 0.31782(17) 0.0220(3)
H37 H -0.163(2) 0.316(3) 0.051(4)
H38 H -0.268(5) 0.3604(13) 0.024(4)
O20 O 0.0047(4) 0.3010(3) 0.1395(6)
H39 H 0.048(7) 0.318(4) 0.192(3)
H40 H 0.037(9) 0.309(5) 0.087(4)
loop_
_geom_bond_atom_site_label_1
_geom_bond_atom_site_label_2
_geom_bond_site_symmetry_1
_geom_bond_site_symmetry_2
Ni1 N3 1_555 1_555
Ni2 N2 1_555 1_555
Ni3 N1 1_555 1_555
Ni4 N8 1_555 1_555
N1 C1 1_555 1_555
N2 C7 1_555 1_555
N3 C13 1_555 1_555
N4 C19 1_555 1_555
N5 Ni1 1_555 1_555
N6 C31 1_555 1_555
N7 C37 1_555 1_555
N8 C43 1_555 1_555
O1 C6 1_555 1_555
O2 C6 1_555 1_555
O3 Ni1 1_555 1_555
O4 C12 1_555 1_555
O5 C18 1_555 1_555
O6 C18 1_555 1_555
O7 C24 1_555 1_555
O8 Ni2 1_555 1_555
O9 Ni4 1_555 1_555
O10 C30 1_555 1_555
O11 Ni3 1_555 1_555
O12 C36 1_555 1_555
O13 Ni1 1_555 1_555
O14 Ni3 1_555 1_555
O15 Ni1 1_555 1_555
O16 Ni3 1_555 1_555
O17 Ni2 1_555 1_555
H1 O17 1_555 1_555
H2 O17 1_555 1_555
O18 Ni1 1_555 1_555
H3 O18 1_555 1_555
H4 O18 1_555 1_555
C1 H5 1_555 1_555
C2 C1 1_555 1_555
C3 C2 1_555 1_555
H6 C3 1_555 1_555
C4 C3 1_555 1_555
H7 C4 1_555 1_555
C5 N1 1_555 1_555
H8 C5 1_555 1_555
C6 C2 1_555 1_555
C7 H9 1_555 1_555
C8 C7 1_555 1_555
C9 C8 1_555 1_555
H10 C9 1_555 1_555
C10 C9 1_555 1_555
H11 C10 1_555 1_555
C11 N2 1_555 1_555
H12 C11 1_555 1_555
C12 O3 1_555 1_555
C13 H13 1_555 1_555
C14 C13 1_555 1_555
C15 C14 1_555 1_555
H14 C15 1_555 1_555
C16 C15 1_555 1_555
H15 C16 1_555 1_555
C17 N3 1_555 1_555
H16 C17 1_555 1_555
C18 C14 1_555 1_555
C19 H17 1_555 1_555
C20 C19 1_555 1_555
C21 C20 1_555 1_555
H18 C21 1_555 1_555
C22 C21 1_555 1_555
H19 C22 1_555 1_555
C23 N4 1_555 1_555
H20 C23 1_555 1_555
C24 O8 1_555 1_555
C25 C26 1_555 1_555
C26 N5 1_555 1_555
H21 C26 1_555 1_555
C27 C25 1_555 1_555
H22 C27 1_555 1_555
C28 C27 1_555 1_555
H23 C28 1_555 1_555
C29 N5 1_555 1_555
H24 C29 1_555 1_555
C30 O9 1_555 1_555
C31 H25 1_555 1_555
C32 C31 1_555 1_555
C33 C32 1_555 1_555
H26 C33 1_555 1_555
C34 C33 1_555 1_555
H27 C34 1_555 1_555
C35 N6 1_555 1_555
H28 C35 1_555 1_555
C36 O11 1_555 1_555
C37 H29 1_555 1_555
C38 C37 1_555 1_555
C39 C38 1_555 1_555
H30 C39 1_555 1_555
C40 C39 1_555 1_555
H31 C40 1_555 1_555
C41 N7 1_555 1_555
H32 C41 1_555 1_555
C42 O13 1_555 1_555
C43 H33 1_555 1_555
C44 C43 1_555 1_555
C45 C44 1_555 1_555
H34 C45 1_555 1_555
C46 C45 1_555 1_555
H35 C46 1_555 1_555
C47 N8 1_555 1_555
H36 C47 1_555 1_555
C48 O15 1_555 1_555
O19 H37 1_555 1_555
H38 O19 1_555 1_555
O20 H39 1_555 1_555
H40 O20 1_555 1_555
Ni2_2 N7 1_555 1_555
Ni2A O5 1_555 1_555
Ni2_3 O10 1_555 1_555
Ni3_2 N4 1_555 1_555
Ni4A N6 1_555 1_555
Ni4_2 O1 1_555 1_555
N4_2 Ni3 1_555 1_555
N6A Ni4 1_555 1_555
N7_2 Ni2 1_555 1_555
O1_2 Ni4 1_555 1_555
O5A Ni2 1_555 1_555
O7_2 Ni4 1_555 1_555
O10_2 Ni2 1_555 1_555
O17_2 Ni4 1_555 1_555
H1_2 O17_2 1_555 1_555
H2_2 O17_2 1_555 1_555
Ni3 O18 1_555 1_555
O7 Ni4_2 1_555 1_555
O14 C42 1_555 1_555
O16 C48 1_555 1_555
O17 Ni4_2 1_555 1_555
C4 C5 1_555 1_555
C8 C12 1_555 1_555
C10 C11 1_555 1_555
C16 C17 1_555 1_555
C20 C24 1_555 1_555
C22 C23 1_555 1_555
C25 C30 1_555 1_555
C28 C29 1_555 1_555
C32 C36 1_555 1_555
C34 C35 1_555 1_555
C38 C42 1_555 1_555
C40 C41 1_555 1_555
C44 C48 1_555 1_555
C46 C47 1_555 1_555
Ni2_3 O17_2 1_555 1_555

#END
