
#######################################################################
#
#                 Cambridge Crystallographic Data Centre
#                                CCDC 
#
#######################################################################
#
# If this CIF has been generated from an entry in the Cambridge 
# Structural Database, then it will include bibliographic, chemical, 
# crystal, experimental, refinement or atomic coordinate data resulting 
# from the CCDC's data processing and validation procedures.
#
#######################################################################

data_LICTOI
_symmetry_cell_setting           monoclinic
_symmetry_space_group_name_H-M   'P 21/c'
_symmetry_Int_Tables_number      14
_space_group_name_Hall           '-P 2ybc'
loop_
_symmetry_equiv_pos_site_id
_symmetry_equiv_pos_as_xyz
1 x,y,z
2 -x,1/2+y,1/2-z
3 -x,-y,-z
4 x,1/2-y,1/2+z
_cell_length_a                   15.3263(14)
_cell_length_b                   16.3479(14)
_cell_length_c                   8.1006(7)
_cell_angle_alpha                90
_cell_angle_beta                 92.3060(10)
_cell_angle_gamma                90
_cell_volume                     2027.98
loop_
_atom_site_label
_atom_site_type_symbol
_atom_site_fract_x
_atom_site_fract_y
_atom_site_fract_z
Pb1 Pb 1.00316(2) 0.701643(18) 0.09505(4)
Pb2 Pb 0.95268(2) 0.515071(18) -0.22734(3)
Pb3 Pb 0.79642(2) 0.595757(18) 0.26654(3)
C1 C 0.6226(7) 0.6412(7) 0.9837(12)
H1 H 0.6076 0.6962 0.9775
C2 C 0.5805(8) 0.5905(8) 1.0911(14)
H2 H 0.5372 0.6117 1.1560
C3 C 0.6020(9) 0.5085(8) 1.1032(14)
H3 H 0.5740 0.4749 1.1771
C4 C 0.6640(9) 0.4773(6) 1.0070(13)
H4 H 0.6776 0.4219 1.0127
C5 C 0.7084(7) 0.5294(5) 0.8969(11)
H5 H 0.7521 0.5084 0.8328
C6 C 0.6865(6) 0.6111(5) 0.8855(10)
C7 C 0.7363(5) 0.6693(5) 0.7797(9)
H6 H 0.7028 0.7203 0.7729
C8 C 0.8271(6) 0.6908(5) 0.8529(10)
C9 C 0.7463(6) 0.6389(5) 0.6005(10)
C10 C 1.3416(8) 0.7112(8) -0.3788(17)
H7 H 1.3179 0.7558 -0.3252
C11 C 1.4327(12) 0.7007(11) -0.379(3)
H8 H 1.4696 0.7364 -0.3200
C12 C 1.4665(9) 0.6371(10) -0.4672(19)
H9 H 1.5265 0.6305 -0.4742
C13 C 1.4098(9) 0.5839(10) -0.5440(17)
H10 H 1.4324 0.5402 -0.6020
C14 C 1.3231(9) 0.5918(7) -0.5397(14)
H11 H 1.2872 0.5534 -0.5931
C15 C 1.2871(6) 0.6545(5) -0.4594(10)
C16 C 1.1893(6) 0.6681(6) -0.4565(10)
H12 H 1.1809 0.7164 -0.3873
C17 C 1.1378(6) 0.5979(5) -0.3776(10)
C18 C 1.1437(6) 0.6871(6) -0.6260(10)
O1 O 0.8172(5) 0.6003(4) 0.5655(7)
O2 O 0.6886(5) 0.6543(5) 0.4964(8)
O3 O 0.8620(5) 0.7567(4) 0.8121(8)
O4 O 0.8651(4) 0.6397(4) 0.9494(7)
O5 O 1.0567(4) 0.5941(4) -0.4141(8)
O6 O 1.1777(4) 0.5537(4) -0.2731(7)
O7 O 1.1462(4) 0.6397(4) -0.7431(7)
O8 O 1.1008(5) 0.7538(4) -0.6351(8)
O9 O 0.9503(4) 0.5936(3) 0.2812(7)
O10 O 1.0460(4) 0.5745(3) -0.0242(7)
Pb1_2 Pb 1.00316(2) 0.701643(18) -0.90495(4)
Pb1_3 Pb 1.00316(2) 0.701643(18) 1.09505(4)
Pb1C Pb 1.00316(2) 0.798357(18) -0.40495(4)
Pb1C_2 Pb 1.00316(2) 0.798357(18) 0.59505(4)
Pb2_2 Pb 0.95268(2) 0.515071(18) 0.77266(3)
Pb2B Pb 1.04732(2) 0.484929(18) 0.22734(3)
Pb3_2 Pb 0.79642(2) 0.595757(18) 1.26654(3)
Pb3B Pb 1.20358(2) 0.404243(18) -0.26654(3)
Pb3C Pb 0.79642(2) 0.904243(18) 0.76654(3)
O3C O 0.8620(5) 0.7433(4) 0.3121(8)
O4_2 O 0.8651(4) 0.6397(4) -0.0506(7)
O6B O 0.8223(4) 0.4463(4) 0.2731(7)
O7_2 O 1.1462(4) 0.6397(4) 0.2569(7)
O8_2 O 1.1008(5) 0.7538(4) 0.3649(8)
O8C O 1.1008(5) 0.7462(4) -0.1351(8)
O9B O 1.0497(4) 0.4064(3) -0.2812(7)
O10B O 0.9540(4) 0.4255(3) 0.0242(7)
loop_
_geom_bond_atom_site_label_1
_geom_bond_atom_site_label_2
_geom_bond_site_symmetry_1
_geom_bond_site_symmetry_2
Pb1 O9 1_555 1_555
Pb2 O5 1_555 1_555
Pb3 O1 1_555 1_555
C1 H1 1_555 1_555
C2 C1 1_555 1_555
H2 C2 1_555 1_555
C3 C2 1_555 1_555
H3 C3 1_555 1_555
C4 C3 1_555 1_555
H4 C4 1_555 1_555
C5 C4 1_555 1_555
H5 C5 1_555 1_555
C6 C1 1_555 1_555
C7 C6 1_555 1_555
H6 C7 1_555 1_555
C8 C7 1_555 1_555
C9 C7 1_555 1_555
C10 H7 1_555 1_555
C11 C10 1_555 1_555
H8 C11 1_555 1_555
C12 C11 1_555 1_555
H9 C12 1_555 1_555
C13 C12 1_555 1_555
H10 C13 1_555 1_555
C14 C13 1_555 1_555
H11 C14 1_555 1_555
C15 C10 1_555 1_555
C16 C15 1_555 1_555
H12 C16 1_555 1_555
C17 C16 1_555 1_555
C18 C16 1_555 1_555
O1 C9 1_555 1_555
O2 Pb3 1_555 1_555
O3 C8 1_555 1_555
O4 C8 1_555 1_555
O5 C17 1_555 1_555
O6 C17 1_555 1_555
O7 C18 1_555 1_555
O8 C18 1_555 1_555
O9 Pb3 1_555 1_555
O10 Pb1 1_555 1_555
Pb1_2 O7 1_555 1_555
Pb1_3 O4 1_555 1_555
Pb1C O8 1_555 1_555
Pb1C_2 O3 1_555 1_555
Pb2_2 O4 1_555 1_555
Pb2B O9 1_555 1_555
Pb3_2 O4 1_555 1_555
Pb3B O6 1_555 1_555
Pb3C O3 1_555 1_555
O3C Pb1 1_555 1_555
O4_2 Pb1 1_555 1_555
O6B Pb3 1_555 1_555
O7_2 Pb1 1_555 1_555
O8_2 Pb1 1_555 1_555
O8C Pb1 1_555 1_555
O9B Pb2 1_555 1_555
O10B Pb2 1_555 1_555
Pb2 O10 1_555 1_555
Pb2 O4_2 1_555 1_555
Pb3 O3C 1_555 1_555
Pb3 O4_2 1_555 1_555
C5 C6 1_555 1_555
C9 O2 1_555 1_555
C14 C15 1_555 1_555
O8 Pb1_2 1_555 1_555
O10 Pb2B 1_555 1_555
Pb1C O8C 1_555 1_555
Pb1C_2 O8_2 1_555 1_555
Pb2B O10B 1_555 1_555
Pb3B O9B 1_555 1_555

#END
