
#######################################################################
#
#                 Cambridge Crystallographic Data Centre
#                                CCDC 
#
#######################################################################
#
# If this CIF has been generated from an entry in the Cambridge 
# Structural Database, then it will include bibliographic, chemical, 
# crystal, experimental, refinement or atomic coordinate data resulting 
# from the CCDC's data processing and validation procedures.
#
#######################################################################

data_LICXEC
_symmetry_cell_setting           tetragonal
_symmetry_space_group_name_H-M   'P 42/n'
_symmetry_Int_Tables_number      86
_space_group_name_Hall           '-P 4bc'
loop_
_symmetry_equiv_pos_site_id
_symmetry_equiv_pos_as_xyz
1 x,y,z
2 -y,1/2+x,1/2+z
3 1/2+y,-x,1/2+z
4 1/2-x,1/2-y,z
5 -x,-y,-z
6 y,1/2-x,1/2-z
7 1/2-y,x,1/2-z
8 1/2+x,1/2+y,-z
_cell_length_a                   20.8581(12)
_cell_length_b                   20.8581(12)
_cell_length_c                   7.2331(4)
_cell_angle_alpha                90
_cell_angle_beta                 90
_cell_angle_gamma                90
_cell_volume                     3146.83
loop_
_atom_site_label
_atom_site_type_symbol
_atom_site_fract_x
_atom_site_fract_y
_atom_site_fract_z
O1 O 0.3430(4) 0.7641(3) 0.6720(11)
H1 H 0.3721 0.7923 0.6595
H2 H 0.3631 0.7289 0.6601
N1 N 0.54929(17) 0.45543(17) 0.3613(4)
C1 C 0.5879(2) 0.4114(2) 0.2934(7)
H3 H 0.6075 0.4153 0.1784
N2 N 0.41814(18) 0.46979(17) 0.9509(5)
N3 N 0.3229(2) 0.4689(2) 1.0866(6)
N4 N 0.59672(19) 0.36046(19) 0.4035(5)
C2 C 0.3570(2) 0.4528(2) 0.9383(6)
C3 C 0.3679(3) 0.4973(3) 1.1895(8)
H4 H 0.3588 0.5146 1.3052
Cu1 Cu 0.47957(3) 0.46022(3) 0.74607(6)
N5 N 0.52976(17) 0.43135(17) 0.5279(4)
N6 N 0.42587(18) 0.49942(19) 1.1172(5)
C4 C 0.5593(2) 0.3756(2) 0.5474(6)
N7 N 0.50895(18) 0.36965(18) 0.8345(5)
C5 C 0.5486(2) 0.3397(2) 0.7178(6)
N8 N 0.3756(2) 0.4085(2) 0.6406(6)
C6 C 0.4969(3) 0.3418(2) 0.9989(7)
H5 H 0.4696 0.3625 1.0813
C7 C 0.5640(3) 0.2542(3) 0.9308(8)
H6 H 0.5832 0.2156 0.9643
C8 C 0.5231(3) 0.2844(3) 1.0495(8)
H7 H 0.5131 0.2662 1.1633
C9 C 0.3554(3) 0.3769(3) 0.4924(8)
H8 H 0.3848 0.3690 0.3984
C10 C 0.3327(2) 0.4193(2) 0.7773(7)
C11 C 0.5768(3) 0.2813(2) 0.7610(7)
H9 H 0.6038 0.2609 0.6772
C12 C 0.2942(4) 0.3551(3) 0.4691(10)
H10 H 0.2823 0.3336 0.3619
C13 C 0.2694(3) 0.3988(3) 0.7618(9)
H11 H 0.2402 0.4075 0.8557
C14 C 0.2505(3) 0.3659(3) 0.6084(11)
H12 H 0.2087 0.3509 0.5980
N1D N 0.45071(17) 0.54457(17) 0.6387(4)
Cu1D Cu 0.52043(3) 0.53978(3) 0.25393(6)
Cu1D_2 Cu 0.52043(3) 0.53978(3) 1.25393(6)
N6D N 0.57413(18) 0.50058(19) 0.8828(5)
O2 O 0.2500 0.7500 0.4181(17)
H13 H 0.2826 0.7551 0.4871
H13C H 0.2174 0.7449 0.4871
H14? H 0.2826 0.7551 0.4871
loop_
_geom_bond_atom_site_label_1
_geom_bond_atom_site_label_2
_geom_bond_site_symmetry_1
_geom_bond_site_symmetry_2
O1 H1 1_555 1_555
H2 O1 1_555 1_555
N1 C1 1_555 1_555
C1 H3 1_555 1_555
N2 C2 1_555 1_555
N3 C2 1_555 1_555
N4 C1 1_555 1_555
C2 C10 1_555 1_555
C3 N3 1_555 1_555
H4 C3 1_555 1_555
Cu1 N2 1_555 1_555
N5 N1 1_555 1_555
N6 N2 1_555 1_555
C4 N4 1_555 1_555
N7 Cu1 1_555 1_555
C5 C4 1_555 1_555
N8 Cu1 1_555 1_555
C6 N7 1_555 1_555
H5 C6 1_555 1_555
C7 H6 1_555 1_555
C8 C6 1_555 1_555
H7 C8 1_555 1_555
C9 N8 1_555 1_555
H8 C9 1_555 1_555
C10 N8 1_555 1_555
C11 C5 1_555 1_555
H9 C11 1_555 1_555
C12 C9 1_555 1_555
H10 C12 1_555 1_555
C13 C10 1_555 1_555
H11 C13 1_555 1_555
C14 C12 1_555 1_555
H12 C14 1_555 1_555
O2 H13 1_555 1_555
N1D Cu1 1_555 1_555
Cu1D N1 1_555 1_555
Cu1D_2 N6 1_555 1_555
N6D Cu1 1_555 1_555
H13C O2 1_555 1_555
C3 N6 1_555 1_555
Cu1 N5 1_555 1_555
N5 C4 1_555 1_555
N7 C5 1_555 1_555
C7 C8 1_555 1_555
C7 C11 1_555 1_555
C13 C14 1_555 1_555

#END
