
#######################################################################
#
#                 Cambridge Crystallographic Data Centre
#                                CCDC 
#
#######################################################################
#
# If this CIF has been generated from an entry in the Cambridge 
# Structural Database, then it will include bibliographic, chemical, 
# crystal, experimental, refinement or atomic coordinate data resulting 
# from the CCDC's data processing and validation procedures.
#
#######################################################################

data_LICXAX
_symmetry_cell_setting           triclinic
_symmetry_space_group_name_H-M   'P -1'
_symmetry_Int_Tables_number      2
_space_group_name_Hall           '-P 1'
loop_
_symmetry_equiv_pos_site_id
_symmetry_equiv_pos_as_xyz
1 x,y,z
2 -x,-y,-z
_cell_length_a                   8.2712(6)
_cell_length_b                   12.2510(7)
_cell_length_c                   12.3309(9)
_cell_angle_alpha                108.765(4)
_cell_angle_beta                 108.701(3)
_cell_angle_gamma                91.269(4)
_cell_volume                     1109.63
loop_
_atom_site_label
_atom_site_type_symbol
_atom_site_fract_x
_atom_site_fract_y
_atom_site_fract_z
Co1 Co 0.5000 1.0000 0.5000
Co2 Co 0.0000 0.5000 0.0000
N1 N 0.7884(3) 0.9590(2) 0.5410(2)
S1 S 0.91840(11) 1.07586(7) 0.64700(8)
S2 S 1.13682(11) 0.99201(8) 0.67280(8)
N2 N 1.0402(3) 0.8686(2) 0.5654(2)
C1 C 0.8724(4) 0.8670(3) 0.5136(3)
C2 C 0.7813(4) 0.7579(3) 0.4164(3)
O1 O 0.6086(3) 0.75268(18) 0.3601(2)
C3 C 0.5565(4) 0.6445(3) 0.2735(3)
C4 C 0.6899(4) 0.5834(3) 0.2722(3)
H1 H 0.6865 0.5066 0.2194
C5 C 0.8360(5) 0.6576(3) 0.3659(3)
H2 H 0.9507 0.6401 0.3888
C6 C 0.3794(4) 0.6163(3) 0.2019(3)
N3 N 0.2375(4) 0.5885(2) 0.1420(3)
O2 O 0.5925(3) 1.15340(19) 0.5009(2)
C7 C 0.5588(4) 1.1855(3) 0.4103(3)
C8 C 0.4791(4) 1.1186(3) 0.2877(3)
H3 H 0.4695 1.1531 0.2274
C9 C 0.4123(4) 1.0007(3) 0.2511(3)
O3 O 0.4245(3) 0.93905(19) 0.3158(2)
C10 C 0.6013(5) 1.3165(3) 0.4423(4)
C11 C 0.2997(5) 0.9415(3) 0.1163(3)
F1 F 0.6245(4) 1.3450(2) 0.3542(3)
F2 F 0.4725(3) 1.36868(18) 0.4658(2)
F3 F 0.7382(3) 1.36294(19) 0.5414(2)
F4 F 0.1398(3) 0.9674(2) 0.0992(2)
F5 F 0.3570(3) 0.97473(19) 0.04223(19)
F6 F 0.2881(3) 0.82652(17) 0.08230(18)
O4 O -0.1418(3) 0.6241(2) 0.0540(2)
C12 C -0.2141(4) 0.6818(3) -0.0115(3)
C13 C -0.1751(4) 0.7016(3) -0.1048(3)
H4 H -0.2403 0.7498 -0.1439
C14 C -0.0433(4) 0.6536(3) -0.1440(3)
O5 O 0.0474(3) 0.5817(2) -0.1102(2)
C15 C -0.3694(5) 0.7305(3) 0.0186(3)
C16 C 0.0003(5) 0.6898(3) -0.2400(3)
F7 F -0.4398(3) 0.7998(2) -0.0418(2)
F8 F -0.4926(3) 0.64469(18) -0.00762(19)
F9 F -0.3265(3) 0.79171(17) 0.13781(19)
F10 F -0.0126(4) 0.5989(2) -0.3371(2)
F11 F -0.1015(3) 0.7607(2) -0.2795(3)
F12 F 0.1599(3) 0.7422(2) -0.1970(2)
Co2_2 Co 1.0000 1.5000 1.0000
N1A N 0.2116(3) 1.0410(2) 0.4590(2)
S1A S 0.08160(11) 0.92414(7) 0.35300(8)
S2A S -0.13682(11) 1.00799(8) 0.32720(8)
N2A N -0.0402(3) 1.1314(2) 0.4346(2)
C1A C 0.1276(4) 1.1330(3) 0.4864(3)
C2A C 0.2187(4) 1.2421(3) 0.5836(3)
O1A O 0.3914(3) 1.24732(18) 0.6399(2)
C3A C 0.4435(4) 1.3555(3) 0.7265(3)
C4A C 0.3101(4) 1.4166(3) 0.7278(3)
H1A H 0.3135 1.4934 0.7806
C5A C 0.1640(5) 1.3424(3) 0.6341(3)
H2A H 0.0493 1.3599 0.6112
C6A C 0.6206(4) 1.3837(3) 0.7981(3)
N3A N 0.7625(4) 1.4115(2) 0.8580(3)
N3A_2 N -0.2375(4) 0.4115(2) -0.1420(3)
O2A O 0.4075(3) 0.84660(19) 0.4991(2)
C7A C 0.4412(4) 0.8145(3) 0.5897(3)
C8A C 0.5209(4) 0.8814(3) 0.7123(3)
H3A H 0.5305 0.8469 0.7726
C9A C 0.5877(4) 0.9993(3) 0.7489(3)
O3A O 0.5755(3) 1.06095(19) 0.6842(2)
C10A C 0.3987(5) 0.6835(3) 0.5577(4)
C11A C 0.7003(5) 1.0585(3) 0.8837(3)
F1A F 0.3755(4) 0.6550(2) 0.6458(3)
F2A F 0.5275(3) 0.63132(18) 0.5342(2)
F3A F 0.2618(3) 0.63706(19) 0.4586(2)
F4A F 0.8602(3) 1.0326(2) 0.9008(2)
F5A F 0.6430(3) 1.02527(19) 0.95777(19)
F6A F 0.7119(3) 1.17348(17) 0.91770(18)
O4A O 0.1418(3) 0.3759(2) -0.0540(2)
C12A C 0.2141(4) 0.3182(3) 0.0115(3)
C13A C 0.1751(4) 0.2984(3) 0.1048(3)
H4A H 0.2403 0.2502 0.1439
C14A C 0.0433(4) 0.3464(3) 0.1440(3)
O5A O -0.0474(3) 0.4183(2) 0.1102(2)
C15A C 0.3694(5) 0.2695(3) -0.0186(3)
C16A C -0.0003(5) 0.3102(3) 0.2400(3)
F7A F 0.4398(3) 0.2002(2) 0.0418(2)
F8A F 0.4926(3) 0.35531(18) 0.00762(19)
F9A F 0.3265(3) 0.20829(17) -0.13781(19)
F10A F 0.0126(4) 0.4011(2) 0.3371(2)
F11A F 0.1015(3) 0.2393(2) 0.2795(3)
F12A F -0.1599(3) 0.2578(2) 0.1970(2)
loop_
_geom_bond_atom_site_label_1
_geom_bond_atom_site_label_2
_geom_bond_site_symmetry_1
_geom_bond_site_symmetry_2
Co1 N1 1_555 1_555
Co2 N3 1_555 1_555
N1 S1 1_555 1_555
S1 S2 1_555 1_555
S2 N2 1_555 1_555
N2 C1 1_555 1_555
C1 N1 1_555 1_555
C2 C1 1_555 1_555
O1 C2 1_555 1_555
C3 O1 1_555 1_555
C4 C3 1_555 1_555
H1 C4 1_555 1_555
C5 C2 1_555 1_555
H2 C5 1_555 1_555
C6 C3 1_555 1_555
N3 C6 1_555 1_555
O2 Co1 1_555 1_555
C7 O2 1_555 1_555
C8 C7 1_555 1_555
H3 C8 1_555 1_555
C9 C8 1_555 1_555
O3 Co1 1_555 1_555
C10 C7 1_555 1_555
C11 C9 1_555 1_555
F1 C10 1_555 1_555
F2 C10 1_555 1_555
F3 C10 1_555 1_555
F4 C11 1_555 1_555
F5 C11 1_555 1_555
F6 C11 1_555 1_555
O4 Co2 1_555 1_555
C12 O4 1_555 1_555
C13 C12 1_555 1_555
H4 C13 1_555 1_555
C14 C13 1_555 1_555
O5 Co2 1_555 1_555
C15 C12 1_555 1_555
C16 C14 1_555 1_555
F7 C15 1_555 1_555
F8 C15 1_555 1_555
F9 C15 1_555 1_555
F10 C16 1_555 1_555
F11 C16 1_555 1_555
F12 C16 1_555 1_555
Co2_2 N3A 1_555 1_555
N1A Co1 1_555 1_555
S1A N1A 1_555 1_555
S2A S1A 1_555 1_555
N2A S2A 1_555 1_555
C1A N1A 1_555 1_555
C2A C1A 1_555 1_555
O1A C2A 1_555 1_555
C3A O1A 1_555 1_555
C4A C3A 1_555 1_555
H1A C4A 1_555 1_555
C5A C2A 1_555 1_555
H2A C5A 1_555 1_555
C6A C3A 1_555 1_555
N3A C6A 1_555 1_555
N3A_2 Co2 1_555 1_555
O2A Co1 1_555 1_555
C7A O2A 1_555 1_555
C8A C7A 1_555 1_555
H3A C8A 1_555 1_555
C9A C8A 1_555 1_555
O3A Co1 1_555 1_555
C10A C7A 1_555 1_555
C11A C9A 1_555 1_555
F1A C10A 1_555 1_555
F2A C10A 1_555 1_555
F3A C10A 1_555 1_555
F4A C11A 1_555 1_555
F5A C11A 1_555 1_555
F6A C11A 1_555 1_555
O4A Co2 1_555 1_555
C12A O4A 1_555 1_555
C13A C12A 1_555 1_555
H4A C13A 1_555 1_555
C14A C13A 1_555 1_555
O5A Co2 1_555 1_555
C15A C12A 1_555 1_555
C16A C14A 1_555 1_555
F7A C15A 1_555 1_555
F8A C15A 1_555 1_555
F9A C15A 1_555 1_555
F10A C16A 1_555 1_555
F11A C16A 1_555 1_555
F12A C16A 1_555 1_555
C4 C5 1_555 1_555
C9 O3 1_555 1_555
C14 O5 1_555 1_555
N2A C1A 1_555 1_555
C4A C5A 1_555 1_555
C9A O3A 1_555 1_555
C14A O5A 1_555 1_555

#END
