
#######################################################################
#
#                 Cambridge Crystallographic Data Centre
#                                CCDC 
#
#######################################################################
#
# If this CIF has been generated from an entry in the Cambridge 
# Structural Database, then it will include bibliographic, chemical, 
# crystal, experimental, refinement or atomic coordinate data resulting 
# from the CCDC's data processing and validation procedures.
#
#######################################################################

data_LICZIH
_symmetry_cell_setting           monoclinic
_symmetry_space_group_name_H-M   'C 2/c'
_symmetry_Int_Tables_number      15
_space_group_name_Hall           '-C 2yn'
loop_
_symmetry_equiv_pos_site_id
_symmetry_equiv_pos_as_xyz
1 x,y,z
2 1/2+x,1/2+y,z
3 -x,y,1/2-z
4 1/2-x,1/2+y,1/2-z
5 -x,-y,-z
6 1/2-x,1/2-y,-z
7 x,-y,1/2+z
8 1/2+x,1/2-y,1/2+z
_cell_length_a                   15.723(5)
_cell_length_b                   21.695(5)
_cell_length_c                   7.576(5)
_cell_angle_alpha                90
_cell_angle_beta                 116.171(5)
_cell_angle_gamma                90
_cell_volume                     2319.32
loop_
_atom_site_label
_atom_site_type_symbol
_atom_site_fract_x
_atom_site_fract_y
_atom_site_fract_z
Cd1 Cd 1.0000 0.14632(2) 0.7500
O1 O 0.9596(2) 0.18302(14) 0.9829(5)
O2 O 0.8543(2) 0.19760(14) 0.6786(5)
N1 N 0.9135(3) 0.05976(16) 0.5972(6)
C1 C 0.7297(3) 0.25461(18) 0.8038(7)
H1 H 0.7158 0.2581 0.6715
C2 C 0.8113(3) 0.22693(17) 0.9305(7)
C3 C 0.8802(3) 0.20114(17) 0.8590(7)
C4 C 0.9519(3) 0.00471(17) 0.6655(7)
C5 C 0.8276(4) 0.0621(3) 0.4483(8)
H2 H 0.8010 0.1005 0.4027
C6 C 0.7757(4) 0.0104(3) 0.3574(9)
H3 H 0.7156 0.0135 0.2529
C7 C 0.9045(4) -0.0491(2) 0.5821(9)
H4 H 0.9323 -0.0871 0.6304
C8 C 0.8163(4) -0.0459(3) 0.4278(10)
H5 H 0.7838 -0.0819 0.3702
C9 C 0.8335(3) 0.22221(18) 1.1293(7)
H6 H 0.8899 0.2038 1.2165
Cd1G Cd 0.5000 0.35368(2) 1.2500
O1E O 0.5404(2) 0.31698(14) 1.0171(5)
O1B O 1.0404(2) 0.18302(14) 0.5171(5)
O2E O 0.6457(2) 0.30240(14) 1.3214(5)
O2B O 1.1457(2) 0.19760(14) 0.8214(5)
N1B N 1.0865(3) 0.05976(16) 0.9028(6)
C1E C 0.7703(3) 0.24539(18) 1.1962(7)
H1E H 0.7842 0.2419 1.3285
C2E C 0.6887(3) 0.27307(17) 1.0695(7)
C3E C 0.6198(3) 0.29886(17) 1.1410(7)
C4B C 1.0481(3) 0.00471(17) 0.8345(7)
C5B C 1.1724(4) 0.0621(3) 1.0517(8)
H2B H 1.1990 0.1005 1.0973
C6B C 1.2243(4) 0.0104(3) 1.1426(9)
H3B H 1.2844 0.0135 1.2471
C7B C 1.0955(4) -0.0491(2) 0.9179(9)
H4B H 1.0677 -0.0871 0.8696
C8B C 1.1837(4) -0.0459(3) 1.0722(10)
H5B H 1.2162 -0.0819 1.1298
C9E C 0.6665(3) 0.27779(18) 0.8707(7)
H6E H 0.6101 0.2962 0.7835
N2 N 0.4212(3) -0.0546(2) 0.1223(9)
C10 C 0.5000 0.0431(3) 0.2500
C11 C 0.5000 -0.0252(3) 0.2500
C12 C 0.5778(4) 0.0724(2) 0.3759(10)
H7 H 0.6306 0.0505 0.4627
C13 C 0.5000 -0.1491(4) 0.2500
H8 H 0.5000 -0.1920 0.2500
C14 C 0.4227(5) -0.1184(3) 0.1234(14)
H9 H 0.3700 -0.1402 0.0361
C15 C 0.5000 0.1663(5) 0.2500
H10 H 0.5000 0.2092 0.2500
C16 C 0.5778(6) 0.1352(3) 0.3738(17)
H11 H 0.6316 0.1567 0.4581
N2B N 0.5788(3) -0.0546(2) 0.3777(9)
C12B C 0.4222(4) 0.0724(2) 0.1241(10)
H7B H 0.3694 0.0505 0.0373
C14B C 0.5773(5) -0.1184(3) 0.3766(14)
H9B H 0.6300 -0.1402 0.4639
C16B C 0.4222(6) 0.1352(3) 0.1262(17)
H11B H 0.3684 0.1567 0.0419
loop_
_geom_bond_atom_site_label_1
_geom_bond_atom_site_label_2
_geom_bond_site_symmetry_1
_geom_bond_site_symmetry_2
Cd1 O1 1_555 1_555
O1 C3 1_555 1_555
O2 Cd1 1_555 1_555
N1 Cd1 1_555 1_555
C1 H1 1_555 1_555
C2 C1 1_555 1_555
C3 O2 1_555 1_555
C4 N1 1_555 1_555
C5 N1 1_555 1_555
H2 C5 1_555 1_555
C6 C5 1_555 1_555
H3 C6 1_555 1_555
C7 C4 1_555 1_555
H4 C7 1_555 1_555
C8 C6 1_555 1_555
H5 C8 1_555 1_555
C9 C2 1_555 1_555
H6 C9 1_555 1_555
N2 C11 1_555 1_555
C10 C11 1_555 1_555
C11 N2B 1_555 1_555
C12 C10 1_555 1_555
H7 C12 1_555 1_555
C13 H8 1_555 1_555
C14 N2 1_555 1_555
H9 C14 1_555 1_555
C15 H10 1_555 1_555
C16 C12 1_555 1_555
H11 C16 1_555 1_555
Cd1G O1E 1_555 1_555
O1E C3E 1_555 1_555
O1B Cd1 1_555 1_555
O2E Cd1G 1_555 1_555
O2B Cd1 1_555 1_555
N1B Cd1 1_555 1_555
C1E C9 1_555 1_555
H1E C1E 1_555 1_555
C2E C1E 1_555 1_555
C3E O2E 1_555 1_555
C4B C4 1_555 1_555
C5B N1B 1_555 1_555
H2B C5B 1_555 1_555
C6B C5B 1_555 1_555
H3B C6B 1_555 1_555
C7B C4B 1_555 1_555
H4B C7B 1_555 1_555
C8B C6B 1_555 1_555
H5B C8B 1_555 1_555
C9E C1 1_555 1_555
H6E C9E 1_555 1_555
N2B C14B 1_555 1_555
C12B C10 1_555 1_555
H7B C12B 1_555 1_555
C14B C13 1_555 1_555
H9B C14B 1_555 1_555
C16B C15 1_555 1_555
H11B C16B 1_555 1_555
C2 C3 1_555 1_555
C7 C8 1_555 1_555
C13 C14 1_555 1_555
C15 C16 1_555 1_555
N1B C4B 1_555 1_555
C2E C3E 1_555 1_555
C2E C9E 1_555 1_555
C7B C8B 1_555 1_555
C12B C16B 1_555 1_555

#END
