
#######################################################################
#
#                 Cambridge Crystallographic Data Centre
#                                CCDC 
#
#######################################################################
#
# If this CIF has been generated from an entry in the Cambridge 
# Structural Database, then it will include bibliographic, chemical, 
# crystal, experimental, refinement or atomic coordinate data resulting 
# from the CCDC's data processing and validation procedures.
#
#######################################################################

data_LICZOO
_symmetry_cell_setting           trigonal
_symmetry_space_group_name_H-M   'P 3 2 1'
_symmetry_Int_Tables_number      150
_space_group_name_Hall           'P 3 2"'
loop_
_symmetry_equiv_pos_site_id
_symmetry_equiv_pos_as_xyz
1 x,y,z
2 -y,x-y,z
3 -x+y,-x,z
4 y,x,-z
5 x-y,-y,-z
6 -x,-x+y,-z
_cell_length_a                   16.9317(5)
_cell_length_b                   16.9317(5)
_cell_length_c                   14.6966(8)
_cell_angle_alpha                90
_cell_angle_beta                 90
_cell_angle_gamma                120
_cell_volume                     3648.79
loop_
_atom_site_label
_atom_site_type_symbol
_atom_site_fract_x
_atom_site_fract_y
_atom_site_fract_z
Er1 Er 1.001278(19) 0.129127(19) 0.703748(19)
Er2 Er 1.0000 0.0000 0.5000
C1 C 1.0667(6) 0.3469(6) 0.7752(6)
H1 H 1.1171 0.3437 0.7953
C2 C 0.9226(6) 0.2791(6) 0.7166(6)
H2 H 0.8712 0.2271 0.6952
C3 C 1.0691(6) 0.4298(6) 0.7796(6)
H3 H 1.1209 0.4809 0.8017
C4 C 0.9203(6) 0.3591(6) 0.7191(6)
H4 H 0.8690 0.3609 0.6994
C5 C 0.9959(6) 0.4369(5) 0.7515(6)
C6 C 0.9958(6) 0.5253(5) 0.7518(6)
C7 C 1.0760(5) 0.6056(6) 0.7307(6)
H5 H 1.1289 0.6039 0.7178
C8 C 0.9199(5) 0.5290(6) 0.7736(6)
H6 H 0.8665 0.4752 0.7875
C9 C 1.0771(6) 0.6880(5) 0.7289(6)
H7 H 1.1301 0.7412 0.7125
C10 C 0.9199(5) 0.6118(5) 0.7755(6)
H8 H 0.8677 0.6134 0.7925
C11 C 0.9987(5) 0.6912(5) 0.7517(5)
C12 C 0.9990(5) 0.7786(5) 0.7512(5)
C13 C 1.0000 0.2368(7) 0.5000
C14 C 1.0000 0.3216(6) 0.5000
C15 C 1.0738(6) 0.4003(5) 0.5329(6)
H9 H 1.1241 0.3986 0.5562
C16 C 1.0731(5) 0.4818(5) 0.5313(6)
H10 H 1.1242 0.5344 0.5522
C17 C 1.0000 0.4876(6) 0.5000
C18 C 1.0000 0.5766(6) 0.5000
C19 C 1.0788(7) 0.6602(8) 0.4818(8)
H11 H 1.1335 0.6619 0.4694
C20 C 1.0753(8) 0.7404(9) 0.4822(10)
H12 H 1.1285 0.7948 0.4693
O1 O 1.0013(4) 0.1324(4) 0.8710(4)
H13 H 1.0412 0.1302 0.9040
H14 H 0.9575 0.1188 0.9077
O2 O 1.0754(4) 0.8515(3) 0.7473(4)
O3 O 0.9232(4) 0.7770(4) 0.7512(4)
O4 O 1.0204(4) 0.2095(4) 0.5720(4)
O5 O 1.0978(3) 0.0929(3) 0.6076(3)
O6 O 1.0000 0.0000 0.7568(7)
N1 N 0.9945(5) 0.2714(4) 0.7432(5)
N2 N 1.0000 0.7438(9) 0.5000
C15E C 0.9262(6) 0.3265(8) 0.4671(6)
H9E H 0.8759 0.2745 0.4438
C16E C 0.9269(5) 0.4087(7) 0.4687(6)
H10E H 0.8758 0.4102 0.4478
C19E C 0.9212(7) 0.5814(11) 0.5182(8)
H11E H 0.8665 0.5284 0.5306
C20E C 0.9247(8) 0.6651(12) 0.5178(10)
H12E H 0.8715 0.6663 0.5307
O4E O 0.9796(4) 0.1891(6) 0.4280(4)
Er1A Er 0.870873(19) -0.127849(27) 0.703748(19)
C1A C 0.6531(6) -0.2802(8) 0.7752(6)
H1A H 0.6563 -0.2266 0.7953
C2A C 0.7209(6) -0.3565(8) 0.7166(6)
H2A H 0.7729 -0.3559 0.6952
C3A C 0.5702(6) -0.3607(8) 0.7796(6)
H3A H 0.5191 -0.3600 0.8017
C4A C 0.6409(6) -0.4388(8) 0.7191(6)
H4A H 0.6391 -0.4919 0.6994
C5A C 0.5631(5) -0.4410(8) 0.7515(6)
C6A C 0.4747(5) -0.5295(8) 0.7518(6)
C7A C 0.3944(6) -0.5296(8) 0.7307(6)
H5A H 0.3961 -0.4750 0.7178
C8A C 0.4710(6) -0.6091(8) 0.7736(6)
H6A H 0.5248 -0.6087 0.7875
C9A C 0.3120(5) -0.6109(8) 0.7289(6)
H7A H 0.2588 -0.6111 0.7125
C10A C 0.3882(5) -0.6919(7) 0.7755(6)
H8A H 0.3866 -0.7457 0.7925
C11A C 0.3088(5) -0.6925(7) 0.7517(5)
C12A C 0.2214(5) -0.7796(7) 0.7512(5)
C13A C 0.7632(7) -0.2368(7) 0.5000
C14A C 0.6784(6) -0.3216(6) 0.5000
C15A C 0.5997(5) -0.3265(8) 0.5329(6)
H9A H 0.6014 -0.2745 0.5562
C16A C 0.5182(5) -0.4087(7) 0.5313(6)
H10A H 0.4656 -0.4102 0.5522
C17A C 0.5124(6) -0.4876(6) 0.5000
C18A C 0.4234(6) -0.5766(6) 0.5000
C19A C 0.3398(8) -0.5814(11) 0.4818(8)
H11A H 0.3381 -0.5284 0.4694
C20A C 0.2596(9) -0.6651(12) 0.4822(10)
H12A H 0.2052 -0.6663 0.4693
O1A O 0.8676(4) -0.1311(6) 0.8710(4)
H13A H 0.8698 -0.0890 0.9040
H14A H 0.8812 -0.1613 0.9077
O2A O 0.1485(3) -0.7761(5) 0.7473(4)
O3A O 0.2230(4) -0.8538(6) 0.7512(4)
O4A O 0.7905(4) -0.1891(6) 0.5720(4)
O5A O 0.9071(3) 0.0049(4) 0.6076(3)
N1A N 0.7286(4) -0.2769(6) 0.7432(5)
N2A N 0.2562(9) -0.7438(9) 0.5000
C15D C 0.6735(8) -0.4003(5) 0.4671(6)
H9D H 0.7255 -0.3986 0.4438
C16D C 0.5913(7) -0.4818(5) 0.4687(6)
H10D H 0.5898 -0.5344 0.4478
C19D C 0.4186(11) -0.6602(8) 0.5182(8)
H11D H 0.4716 -0.6619 0.5306
C20D C 0.3349(12) -0.7404(9) 0.5178(10)
H12D H 0.3337 -0.7948 0.5307
O4D O 0.8109(6) -0.2095(4) 0.4280(4)
Er1A_2 Er 0.870873(19) 0.872151(27) 0.703748(19)
C1A_2 C 0.6531(6) 0.7198(8) 0.7752(6)
H1A_2 H 0.6563 0.7734 0.7953
C2A_2 C 0.7209(6) 0.6435(8) 0.7166(6)
H2A_2 H 0.7729 0.6441 0.6952
C3A_2 C 0.5702(6) 0.6393(8) 0.7796(6)
H3A_2 H 0.5191 0.6400 0.8017
C4A_2 C 0.6409(6) 0.5612(8) 0.7191(6)
H4A_2 H 0.6391 0.5081 0.6994
C5A_2 C 0.5631(5) 0.5590(8) 0.7515(6)
C6A_2 C 0.4747(5) 0.4705(8) 0.7518(6)
C7A_2 C 0.3944(6) 0.4704(8) 0.7307(6)
H5A_2 H 0.3961 0.5250 0.7178
C8A_2 C 0.4710(6) 0.3909(8) 0.7736(6)
H6A_2 H 0.5248 0.3913 0.7875
C9A_2 C 0.3120(5) 0.3891(8) 0.7289(6)
H7A_2 H 0.2588 0.3889 0.7125
C10A_2 C 0.3882(5) 0.3081(7) 0.7755(6)
H8A_2 H 0.3866 0.2543 0.7925
C11A_2 C 0.3088(5) 0.3075(7) 0.7517(5)
C12A_2 C 0.2214(5) 0.2204(7) 0.7512(5)
O1A_2 O 0.8676(4) 0.8689(6) 0.8710(4)
H13A_2 H 0.8698 0.9110 0.9040
H14A_2 H 0.8812 0.8387 0.9077
O2A_2 O 0.1485(3) 0.2239(5) 0.7473(4)
O3A_2 O 0.2230(4) 0.1462(6) 0.7512(4)
O5A_2 O 0.9071(3) 1.0049(4) 0.6076(3)
O6_2 O 1.0000 1.0000 0.7568(7)
N1A_2 N 0.7286(4) 0.7231(6) 0.7432(5)
Er1A_3 Er 1.870873(19) 0.872151(27) 0.703748(19)
C1A_3 C 1.6531(6) 0.7198(8) 0.7752(6)
H1A_3 H 1.6563 0.7734 0.7953
C2A_3 C 1.7209(6) 0.6435(8) 0.7166(6)
H2A_3 H 1.7729 0.6441 0.6952
C3A_3 C 1.5702(6) 0.6393(8) 0.7796(6)
H3A_3 H 1.5191 0.6400 0.8017
C4A_3 C 1.6409(6) 0.5612(8) 0.7191(6)
H4A_3 H 1.6391 0.5081 0.6994
C5A_3 C 1.5631(5) 0.5590(8) 0.7515(6)
C6A_3 C 1.4747(5) 0.4705(8) 0.7518(6)
C7A_3 C 1.3944(6) 0.4704(8) 0.7307(6)
H5A_3 H 1.3961 0.5250 0.7178
C8A_3 C 1.4710(6) 0.3909(8) 0.7736(6)
H6A_3 H 1.5248 0.3913 0.7875
C9A_3 C 1.3120(5) 0.3891(8) 0.7289(6)
H7A_3 H 1.2588 0.3889 0.7125
C10A_3 C 1.3882(5) 0.3081(7) 0.7755(6)
H8A_3 H 1.3866 0.2543 0.7925
C11A_3 C 1.3088(5) 0.3075(7) 0.7517(5)
C12A_3 C 1.2214(5) 0.2204(7) 0.7512(5)
O1A_3 O 1.8676(4) 0.8689(6) 0.8710(4)
H13A_3 H 1.8698 0.9110 0.9040
H14A_3 H 1.8812 0.8387 0.9077
O2A_3 O 1.1485(3) 0.2239(5) 0.7473(4)
O3A_3 O 1.2230(4) 0.1462(6) 0.7512(4)
O5A_3 O 1.9071(3) 1.0049(4) 0.6076(3)
N1A_3 N 1.7286(4) 0.7231(6) 0.7432(5)
Er1B Er 0.127849(27) -0.001278(19) 0.703748(19)
C1B C 0.2802(8) -0.0667(6) 0.7752(6)
H1B H 0.2266 -0.1171 0.7953
C2B C 0.3565(8) 0.0774(6) 0.7166(6)
H2B H 0.3559 0.1288 0.6952
C3B C 0.3607(8) -0.0691(6) 0.7796(6)
H3B H 0.3600 -0.1209 0.8017
C4B C 0.4388(8) 0.0797(6) 0.7191(6)
H4B H 0.4919 0.1310 0.6994
C5B C 0.4410(8) 0.0041(6) 0.7515(6)
C6B C 0.5295(8) 0.0042(6) 0.7518(6)
C7B C 0.5296(8) -0.0760(5) 0.7307(6)
H5B H 0.4750 -0.1289 0.7178
C8B C 0.6091(8) 0.0801(5) 0.7736(6)
H6B H 0.6087 0.1335 0.7875
C9B C 0.6109(8) -0.0771(6) 0.7289(6)
H7B H 0.6111 -0.1301 0.7125
C10B C 0.6919(7) 0.0801(5) 0.7755(6)
H8B H 0.7457 0.1323 0.7925
C11B C 0.6925(7) 0.0013(5) 0.7517(5)
C12B C 0.7796(7) 0.0010(5) 0.7512(5)
O1B O 0.1311(6) -0.0013(4) 0.8710(4)
H13B H 0.0890 -0.0412 0.9040
H14B H 0.1613 0.0425 0.9077
O2B O 0.7761(5) -0.0754(4) 0.7473(4)
O3B O 0.8538(6) 0.0768(4) 0.7512(4)
O5B O -0.0049(4) -0.0978(3) 0.6076(3)
N1B N 0.2769(6) 0.0055(5) 0.7432(5)
Er1B_2 Er 0.127849(27) 0.998722(19) 0.703748(19)
C1B_2 C 0.2802(8) 0.9333(6) 0.7752(6)
H1B_2 H 0.2266 0.8829 0.7953
C2B_2 C 0.3565(8) 1.0774(6) 0.7166(6)
H2B_2 H 0.3559 1.1288 0.6952
C3B_2 C 0.3607(8) 0.9309(6) 0.7796(6)
H3B_2 H 0.3600 0.8791 0.8017
C4B_2 C 0.4388(8) 1.0797(6) 0.7191(6)
H4B_2 H 0.4919 1.1310 0.6994
C5B_2 C 0.4410(8) 1.0041(6) 0.7515(6)
C6B_2 C 0.5295(8) 1.0042(6) 0.7518(6)
C7B_2 C 0.5296(8) 0.9240(5) 0.7307(6)
H5B_2 H 0.4750 0.8711 0.7178
C8B_2 C 0.6091(8) 1.0801(5) 0.7736(6)
H6B_2 H 0.6087 1.1335 0.7875
C9B_2 C 0.6109(8) 0.9229(6) 0.7289(6)
H7B_2 H 0.6111 0.8699 0.7125
C10B_2 C 0.6919(7) 1.0801(5) 0.7755(6)
H8B_2 H 0.7457 1.1323 0.7925
C11B_2 C 0.6925(7) 1.0013(5) 0.7517(5)
C12B_2 C 0.7796(7) 1.0010(5) 0.7512(5)
C13B C 0.2368(7) 1.0000 0.5000
C14B C 0.3216(6) 1.0000 0.5000
C15B C 0.3265(8) 0.9262(6) 0.5329(6)
H9B H 0.2745 0.8759 0.5562
C16B C 0.4087(7) 0.9269(5) 0.5313(6)
H10B H 0.4102 0.8758 0.5522
C17B C 0.4876(6) 1.0000 0.5000
C18B C 0.5766(6) 1.0000 0.5000
C19B C 0.5814(11) 0.9212(7) 0.4818(8)
H11B H 0.5284 0.8665 0.4694
C20B C 0.6651(12) 0.9247(8) 0.4822(10)
H12B H 0.6663 0.8715 0.4693
O1B_2 O 0.1311(6) 0.9987(4) 0.8710(4)
H13B_2 H 0.0890 0.9588 0.9040
H14B_2 H 0.1613 1.0425 0.9077
O2B_2 O 0.7761(5) 0.9246(4) 0.7473(4)
O3B_2 O 0.8538(6) 1.0768(4) 0.7512(4)
O4B O 0.1891(6) 0.9796(4) 0.5720(4)
O5B_2 O -0.0049(4) 0.9022(3) 0.6076(3)
N1B_2 N 0.2769(6) 1.0055(5) 0.7432(5)
N2B N 0.7438(9) 1.0000 0.5000
C15C C 0.4003(5) 1.0738(6) 0.4671(6)
H9C H 0.3986 1.1241 0.4438
C16C C 0.4818(5) 1.0731(5) 0.4687(6)
H10C H 0.5344 1.1242 0.4478
C19C C 0.6602(8) 1.0788(7) 0.5182(8)
H11C H 0.6619 1.1335 0.5306
C20C C 0.7404(9) 1.0753(8) 0.5178(10)
H12C H 0.7948 1.1285 0.5307
O4C O 0.2095(4) 1.0204(4) 0.4280(4)
Er1_2 Er 0.001278(19) -0.870873(19) 0.703748(19)
Er1_3 Er 0.001278(19) 0.129127(19) 0.703748(19)
Er1_4 Er 1.001278(19) 1.129127(19) 0.703748(19)
Er1_5 Er 2.001278(19) 1.129127(19) 0.703748(19)
Er1A_4 Er -0.129127(19) -0.127849(27) 0.703748(19)
Er1A_5 Er -0.129127(19) 0.872151(27) 0.703748(19)
Er1B_3 Er 0.127849(27) -1.001278(19) 0.703748(19)
Er1B_4 Er 1.127849(27) -0.001278(19) 0.703748(19)
Er1B_5 Er 1.127849(27) 0.998722(19) 0.703748(19)
Er1C Er 0.129127(19) 1.001278(19) 0.296252(19)
Er1D Er 0.872151(27) -0.129127(19) 0.296252(19)
Er1E Er 0.998722(19) 0.127849(27) 0.296252(19)
Er2_2 Er 0.0000 0.0000 0.5000
Er2_3 Er 0.0000 1.0000 0.5000
Er2_4 Er 1.0000 1.0000 0.5000
Er2_5 Er 2.0000 1.0000 0.5000
O2_2 O 0.0754(4) -0.1485(3) 0.7473(4)
O2_3 O 0.0754(4) 0.8515(3) 0.7473(4)
O2B_3 O 1.7761(5) 0.9246(4) 0.7473(4)
O3_2 O 0.9232(4) -0.2230(4) 0.7512(4)
O3_3 O 1.9232(4) 0.7770(4) 0.7512(4)
O3A_4 O 0.2230(4) 1.1462(6) 0.7512(4)
O4A_2 O 0.7905(4) 0.8109(6) 0.5720(4)
O4A_3 O 1.7905(4) 0.8109(6) 0.5720(4)
O4B_2 O 0.1891(6) -0.0204(4) 0.5720(4)
O5_2 O 0.0978(3) 0.0929(3) 0.6076(3)
O5_3 O 0.0978(3) 1.0929(3) 0.6076(3)
O5B_3 O 0.9951(4) -0.0978(3) 0.6076(3)
O5B_4 O 0.9951(4) 0.9022(3) 0.6076(3)
O5B_5 O 1.9951(4) 0.9022(3) 0.6076(3)
O5C O 1.0929(3) 0.0978(3) 0.3924(3)
O5D O 1.0049(4) -0.0929(3) 0.3924(3)
O5E O 0.9022(3) -0.0049(4) 0.3924(3)
O6_3 O 0.0000 0.0000 0.7568(7)
O6_4 O 0.0000 1.0000 0.7568(7)
O6_5 O 2.0000 1.0000 0.7568(7)
O7 O 1.0000 0.0000 0.872(3)
C21 C 1.2110(8) 0.2110(8) 1.0000
C22 C 1.2936(9) 0.2936(9) 1.0000
C23 C 1.3003(7) 0.3759(7) 0.9689(7)
H15 H 1.2487 0.3748 0.9456
C24 C 1.3815(7) 0.4577(7) 0.9721(8)
H16 H 1.3826 0.5112 0.9554
C25 C 1.4609(9) 0.4609(9) 1.0000
C26 C 1.5488(11) 0.5488(11) 1.0000
C27 C 1.6256(7) 0.5477(7) 0.9713(9)
H17 H 1.6229 0.4943 0.9514
C28 C 1.7103(8) 0.6331(8) 0.9736(10)
H18 H 1.7657 0.6380 0.9577
O8 O 1.1331(4) 0.2101(6) 0.9987(5)
N3 N 1.7033(8) 0.7033(8) 1.0000
C23C C 1.3759(7) 0.3003(7) 1.0311(7)
H15C H 1.3748 0.2487 1.0544
C24C C 1.4577(7) 0.3815(7) 1.0279(8)
H16C H 1.5112 0.3826 1.0446
C27C C 1.5477(7) 0.6256(7) 1.0287(9)
H17C H 1.4943 0.6229 1.0486
C28C C 1.6331(8) 0.7103(8) 1.0264(10)
H18C H 1.6380 0.7657 1.0423
O8C O 1.2101(6) 0.1331(4) 1.0013(5)
Cl1 Cl 0.6667 0.3333 0.3636(7)
O9 O 0.5709(8) 0.2797(18) 0.3870(15)
O10 O 0.6667 0.3333 0.2647(10)
O9A O 0.7203(18) 0.2912(20) 0.3870(15)
O9B O 0.7088(20) 0.4291(8) 0.3870(15)
Cl2 Cl 0.6667 0.3333 0.8787(11)
O11 O 0.728(3) 0.303(4) 0.909(2)
O12 O 0.6667 0.3333 0.7807(12)
O11A O 0.697(4) 0.425(5) 0.909(2)
O11B O 0.575(5) 0.272(3) 0.909(2)
O13 O 0.6667 0.3333 0.623(3)
loop_
_geom_bond_atom_site_label_1
_geom_bond_atom_site_label_2
_geom_bond_site_symmetry_1
_geom_bond_site_symmetry_2
Er1 O1 1_555 1_555
Er2 O5 1_555 1_555
C1 H1 1_555 1_555
C2 H2 1_555 1_555
C3 C1 1_555 1_555
H3 C3 1_555 1_555
C4 C2 1_555 1_555
H4 C4 1_555 1_555
C5 C3 1_555 1_555
C6 C5 1_555 1_555
C7 C6 1_555 1_555
H5 C7 1_555 1_555
C8 C6 1_555 1_555
H6 C8 1_555 1_555
C9 C7 1_555 1_555
H7 C9 1_555 1_555
C10 C8 1_555 1_555
H8 C10 1_555 1_555
C11 C9 1_555 1_555
C12 C11 1_555 1_555
C13 C14 1_555 1_555
C14 C15 1_555 1_555
C15 H9 1_555 1_555
C16 C15 1_555 1_555
H10 C16 1_555 1_555
C17 C16 1_555 1_555
C18 C17 1_555 1_555
C19 C18 1_555 1_555
H11 C19 1_555 1_555
C20 C19 1_555 1_555
H12 C20 1_555 1_555
O1 H13 1_555 1_555
H14 O1 1_555 1_555
O2 C12 1_555 1_555
O3 C12 1_555 1_555
O4 Er1 1_555 1_555
O5 Er1 1_555 1_555
O6 Er1 1_555 1_555
N1 Er1 1_555 1_555
N2 C20 1_555 1_555
C21 C22 1_555 1_555
C22 C23 1_555 1_555
C23 H15 1_555 1_555
C24 C23 1_555 1_555
H16 C24 1_555 1_555
C25 C24 1_555 1_555
C26 C25 1_555 1_555
C27 C26 1_555 1_555
H17 C27 1_555 1_555
C28 C27 1_555 1_555
H18 C28 1_555 1_555
O8 C21 1_555 1_555
N3 C28 1_555 1_555
Cl1 O9 1_555 1_555
O10 Cl1 1_555 1_555
Cl2 O11 1_555 1_555
O12 Cl2 1_555 1_555
C15E C14 1_555 1_555
H9E C15E 1_555 1_555
C16E C17 1_555 1_555
H10E C16E 1_555 1_555
C19E C18 1_555 1_555
H11E C19E 1_555 1_555
C20E N2 1_555 1_555
H12E C20E 1_555 1_555
O4E C13 1_555 1_555
Er1A O6 1_555 1_555
C1A H1A 1_555 1_555
C2A H2A 1_555 1_555
C3A C1A 1_555 1_555
H3A C3A 1_555 1_555
C4A C2A 1_555 1_555
H4A C4A 1_555 1_555
C5A C3A 1_555 1_555
C6A C5A 1_555 1_555
C7A C6A 1_555 1_555
H5A C7A 1_555 1_555
C8A C6A 1_555 1_555
H6A C8A 1_555 1_555
C9A C7A 1_555 1_555
H7A C9A 1_555 1_555
C10A C8A 1_555 1_555
H8A C10A 1_555 1_555
C11A C9A 1_555 1_555
C12A C11A 1_555 1_555
C13A C14A 1_555 1_555
C14A C15A 1_555 1_555
C15A H9A 1_555 1_555
C16A C15A 1_555 1_555
H10A C16A 1_555 1_555
C17A C16A 1_555 1_555
C18A C17A 1_555 1_555
C19A C18A 1_555 1_555
H11A C19A 1_555 1_555
C20A C19A 1_555 1_555
H12A C20A 1_555 1_555
O1A Er1A 1_555 1_555
H13A O1A 1_555 1_555
H14A O1A 1_555 1_555
O2A C12A 1_555 1_555
O3A C12A 1_555 1_555
O4A Er1A 1_555 1_555
O5A Er1 1_555 1_555
N1A Er1A 1_555 1_555
N2A C20A 1_555 1_555
C15D C14A 1_555 1_555
H9D C15D 1_555 1_555
C16D C17A 1_555 1_555
H10D C16D 1_555 1_555
C19D C18A 1_555 1_555
H11D C19D 1_555 1_555
C20D N2A 1_555 1_555
H12D C20D 1_555 1_555
O4D C13A 1_555 1_555
Er1A_2 O3 1_555 1_555
C1A_2 H1A_2 1_555 1_555
C2A_2 H2A_2 1_555 1_555
C3A_2 C1A_2 1_555 1_555
H3A_2 C3A_2 1_555 1_555
C4A_2 C2A_2 1_555 1_555
H4A_2 C4A_2 1_555 1_555
C5A_2 C3A_2 1_555 1_555
C6A_2 C5A_2 1_555 1_555
C7A_2 C6A_2 1_555 1_555
H5A_2 C7A_2 1_555 1_555
C8A_2 C6A_2 1_555 1_555
H6A_2 C8A_2 1_555 1_555
C9A_2 C7A_2 1_555 1_555
H7A_2 C9A_2 1_555 1_555
C10A_2 C8A_2 1_555 1_555
H8A_2 C10A_2 1_555 1_555
C11A_2 C9A_2 1_555 1_555
C12A_2 C11A_2 1_555 1_555
O1A_2 Er1A_2 1_555 1_555
H13A_2 O1A_2 1_555 1_555
H14A_2 O1A_2 1_555 1_555
O2A_2 C12A_2 1_555 1_555
O3A_2 C12A_2 1_555 1_555
O5A_2 Er1A_2 1_555 1_555
O6_2 Er1A_2 1_555 1_555
N1A_2 Er1A_2 1_555 1_555
Er1A_3 O1A_3 1_555 1_555
C1A_3 H1A_3 1_555 1_555
C2A_3 H2A_3 1_555 1_555
C3A_3 C1A_3 1_555 1_555
H3A_3 C3A_3 1_555 1_555
C4A_3 C2A_3 1_555 1_555
H4A_3 C4A_3 1_555 1_555
C5A_3 C3A_3 1_555 1_555
C6A_3 C5A_3 1_555 1_555
C7A_3 C6A_3 1_555 1_555
H5A_3 C7A_3 1_555 1_555
C8A_3 C6A_3 1_555 1_555
H6A_3 C8A_3 1_555 1_555
C9A_3 C7A_3 1_555 1_555
H7A_3 C9A_3 1_555 1_555
C10A_3 C8A_3 1_555 1_555
H8A_3 C10A_3 1_555 1_555
C11A_3 C9A_3 1_555 1_555
C12A_3 C11A_3 1_555 1_555
O1A_3 H13A_3 1_555 1_555
H14A_3 O1A_3 1_555 1_555
O2A_3 Er1 1_555 1_555
O3A_3 C12A_3 1_555 1_555
O5A_3 Er1A_3 1_555 1_555
N1A_3 Er1A_3 1_555 1_555
Er1B O3A_2 1_555 1_555
C1B H1B 1_555 1_555
C2B H2B 1_555 1_555
C3B C1B 1_555 1_555
H3B C3B 1_555 1_555
C4B C2B 1_555 1_555
H4B C4B 1_555 1_555
C5B C3B 1_555 1_555
C6B C5B 1_555 1_555
C7B C6B 1_555 1_555
H5B C7B 1_555 1_555
C8B C6B 1_555 1_555
H6B C8B 1_555 1_555
C9B C7B 1_555 1_555
H7B C9B 1_555 1_555
C10B C8B 1_555 1_555
H8B C10B 1_555 1_555
C11B C9B 1_555 1_555
C12B C11B 1_555 1_555
O1B Er1B 1_555 1_555
H13B O1B 1_555 1_555
H14B O1B 1_555 1_555
O2B Er1A 1_555 1_555
O3B Er1 1_555 1_555
O5B Er1B 1_555 1_555
N1B Er1B 1_555 1_555
Er1B_2 O1B_2 1_555 1_555
C1B_2 H1B_2 1_555 1_555
C2B_2 H2B_2 1_555 1_555
C3B_2 C1B_2 1_555 1_555
H3B_2 C3B_2 1_555 1_555
C4B_2 C2B_2 1_555 1_555
H4B_2 C4B_2 1_555 1_555
C5B_2 C3B_2 1_555 1_555
C6B_2 C5B_2 1_555 1_555
C7B_2 C6B_2 1_555 1_555
H5B_2 C7B_2 1_555 1_555
C8B_2 C6B_2 1_555 1_555
H6B_2 C8B_2 1_555 1_555
C9B_2 C7B_2 1_555 1_555
H7B_2 C9B_2 1_555 1_555
C10B_2 C8B_2 1_555 1_555
H8B_2 C10B_2 1_555 1_555
C11B_2 C9B_2 1_555 1_555
C12B_2 C11B_2 1_555 1_555
C13B C14B 1_555 1_555
C14B C15B 1_555 1_555
C15B H9B 1_555 1_555
C16B C15B 1_555 1_555
H10B C16B 1_555 1_555
C17B C16B 1_555 1_555
C18B C17B 1_555 1_555
C19B C18B 1_555 1_555
H11B C19B 1_555 1_555
C20B C19B 1_555 1_555
H12B C20B 1_555 1_555
O1B_2 H13B_2 1_555 1_555
H14B_2 O1B_2 1_555 1_555
O2B_2 Er1A_2 1_555 1_555
O3B_2 C12B_2 1_555 1_555
O4B Er1B_2 1_555 1_555
O5B_2 Er1B_2 1_555 1_555
N1B_2 Er1B_2 1_555 1_555
N2B C20B 1_555 1_555
C15C C14B 1_555 1_555
H9C C15C 1_555 1_555
C16C C17B 1_555 1_555
H10C C16C 1_555 1_555
C19C C18B 1_555 1_555
H11C C19C 1_555 1_555
C20C N2B 1_555 1_555
H12C C20C 1_555 1_555
O4C C13B 1_555 1_555
Er1_2 O2A 1_555 1_555
Er1_3 O2A_2 1_555 1_555
Er1_4 O5A_2 1_555 1_555
Er1_5 O5A_3 1_555 1_555
Er1A_4 O5B 1_555 1_555
Er1A_5 O5B_2 1_555 1_555
Er1B_3 O3A 1_555 1_555
Er1B_4 O5 1_555 1_555
Er1B_5 O2 1_555 1_555
Er1C O4C 1_555 1_555
Er1D O4D 1_555 1_555
Er1E O4E 1_555 1_555
Er2_2 O5B 1_555 1_555
Er2_3 O5B_2 1_555 1_555
Er2_4 O5A_2 1_555 1_555
Er2_5 O5A_3 1_555 1_555
O2_2 Er1B 1_555 1_555
O2_3 Er1B_2 1_555 1_555
O2B_3 Er1A_3 1_555 1_555
O3_2 Er1A 1_555 1_555
O3_3 Er1A_3 1_555 1_555
O3A_4 Er1B_2 1_555 1_555
O4A_2 Er1A_2 1_555 1_555
O4A_3 Er1A_3 1_555 1_555
O4B_2 Er1B 1_555 1_555
O5_2 Er1B 1_555 1_555
O5_3 Er1B_2 1_555 1_555
O5B_3 Er2 1_555 1_555
O5B_4 Er1A_2 1_555 1_555
O5B_5 Er1A_3 1_555 1_555
O5C Er2 1_555 1_555
O5D Er2 1_555 1_555
O5E Er2 1_555 1_555
O6_3 Er1B 1_555 1_555
O6_4 Er1B_2 1_555 1_555
O6_5 Er1A_3 1_555 1_555
C23C C22 1_555 1_555
H15C C23C 1_555 1_555
C24C C25 1_555 1_555
H16C C24C 1_555 1_555
C27C C26 1_555 1_555
H17C C27C 1_555 1_555
C28C N3 1_555 1_555
H18C C28C 1_555 1_555
O8C C21 1_555 1_555
O9A Cl1 1_555 1_555
O9B Cl1 1_555 1_555
O11A Cl2 1_555 1_555
O11B Cl2 1_555 1_555
Er2 O5A 1_555 1_555
C1 N1 1_555 1_555
C2 N1 1_555 1_555
C4 C5 1_555 1_555
C10 C11 1_555 1_555
C13 O4 1_555 1_555
O6 Er1B_4 1_555 1_555
C15E C16E 1_555 1_555
C19E C20E 1_555 1_555
Er1A O5A 1_555 1_555
Er1A O5B_3 1_555 1_555
C1A N1A 1_555 1_555
C2A N1A 1_555 1_555
C4A C5A 1_555 1_555
C10A C11A 1_555 1_555
C13A O4A 1_555 1_555
C15D C16D 1_555 1_555
C19D C20D 1_555 1_555
C1A_2 N1A_2 1_555 1_555
C2A_2 N1A_2 1_555 1_555
C4A_2 C5A_2 1_555 1_555
C10A_2 C11A_2 1_555 1_555
O6_2 Er1_4 1_555 1_555
O6_2 Er1B_5 1_555 1_555
C1A_3 N1A_3 1_555 1_555
C2A_3 N1A_3 1_555 1_555
C4A_3 C5A_3 1_555 1_555
C10A_3 C11A_3 1_555 1_555
C12A_3 O2A_3 1_555 1_555
O3A_3 Er1B_4 1_555 1_555
C1B N1B 1_555 1_555
C2B N1B 1_555 1_555
C4B C5B 1_555 1_555
C10B C11B 1_555 1_555
C12B O2B 1_555 1_555
C12B O3B 1_555 1_555
C1B_2 N1B_2 1_555 1_555
C2B_2 N1B_2 1_555 1_555
C4B_2 C5B_2 1_555 1_555
C10B_2 C11B_2 1_555 1_555
C12B_2 O2B_2 1_555 1_555
C13B O4B 1_555 1_555
O3B_2 Er1_4 1_555 1_555
C15C C16C 1_555 1_555
C19C C20C 1_555 1_555
Er1_3 O5_2 1_555 1_555
Er1_3 O6_3 1_555 1_555
Er1_5 O6_5 1_555 1_555
Er1A_4 O6_3 1_555 1_555
Er1A_5 O6_4 1_555 1_555
Er1B_4 O5B_3 1_555 1_555
Er1B_5 O5B_4 1_555 1_555
Er1D O5D 1_555 1_555
Er1D O5E 1_555 1_555
Er1E O5C 1_555 1_555
Er1E O5E 1_555 1_555
Er2_2 O5_2 1_555 1_555
Er2_3 O5_3 1_555 1_555
Er2_4 O5B_4 1_555 1_555
Er2_5 O5B_5 1_555 1_555
C23C C24C 1_555 1_555
C27C C28C 1_555 1_555

#END
