
#######################################################################
#
#                 Cambridge Crystallographic Data Centre
#                                CCDC 
#
#######################################################################
#
# If this CIF has been generated from an entry in the Cambridge 
# Structural Database, then it will include bibliographic, chemical, 
# crystal, experimental, refinement or atomic coordinate data resulting 
# from the CCDC's data processing and validation procedures.
#
#######################################################################

data_LIDDAF
_symmetry_cell_setting           monoclinic
_symmetry_space_group_name_H-M   'P 21/c'
_symmetry_Int_Tables_number      14
_space_group_name_Hall           '-P 2ybc'
loop_
_symmetry_equiv_pos_site_id
_symmetry_equiv_pos_as_xyz
1 x,y,z
2 -x,1/2+y,1/2-z
3 -x,-y,-z
4 x,1/2-y,1/2+z
_cell_length_a                   13.3190(12)
_cell_length_b                   16.4691(14)
_cell_length_c                   8.3323(11)
_cell_angle_alpha                90
_cell_angle_beta                 106.735(13)
_cell_angle_gamma                90
_cell_volume                     1750.3
loop_
_atom_site_label
_atom_site_type_symbol
_atom_site_fract_x
_atom_site_fract_y
_atom_site_fract_z
Pb1 Pb 0.39204(3) 0.45111(2) 0.62531(4)
Pb2 Pb 0.33418(3) 0.30603(2) 1.04892(4)
S1 S 0.98568(18) 0.12058(15) 1.0126(3)
S2 S 0.66680(18) 0.21100(14) 0.5296(3)
S3 S 0.9013(2) 0.43250(15) 0.9362(3)
O1 O 0.4932(5) 0.3156(4) 0.6062(9)
O2 O 0.5644(5) 0.4290(3) 0.5577(8)
O3 O 0.4977(5) 0.4489(4) 1.1813(7)
O4 O 0.4443(5) 0.4078(4) 0.9208(8)
O5 O 0.2426(6) 0.5152(4) 0.7472(9)
O6 O 0.7144(6) 0.6107(4) 0.7044(8)
O7 O 0.7714(5) 0.5730(4) 0.9727(7)
O8 O 1.2668(4) 0.1871(4) 1.2439(7)
O9 O 1.1673(5) 0.2374(4) 1.0083(8)
N1 N 0.7924(6) 0.3201(4) 0.7252(10)
N2 N 0.8277(6) 0.1792(4) 0.7819(9)
N3 N 0.9318(6) 0.2776(5) 0.9632(10)
C1 C 0.5553(7) 0.3536(5) 0.5469(11)
C2 C 0.6162(7) 0.3082(5) 0.4478(11)
H1 H 0.6745 0.3419 0.4408
H2 H 0.5710 0.3006 0.3346
C3 C 0.4843(7) 0.4587(5) 1.0306(11)
C4 C 0.7722(7) 0.2405(5) 0.6931(11)
C5 C 0.8718(7) 0.3335(6) 0.8663(13)
C6 C 1.1789(7) 0.1993(5) 1.1391(12)
C7 C 0.9101(6) 0.2025(5) 0.9126(11)
C8 C 0.8199(8) 0.4931(5) 0.7671(12)
H3 H 0.8636 0.5140 0.7014
H4 H 0.7680 0.4577 0.6947
C9 C 0.7635(8) 0.5634(6) 0.8169(12)
C10 C 1.0821(6) 0.1675(5) 1.1830(11)
H5 H 1.0494 0.2125 1.2244
H6 H 1.1046 0.1284 1.2733
O4B O 0.5557(5) 0.5922(4) 1.0792(8)
C3B C 0.5157(7) 0.5413(5) 0.9694(11)
O3B O 0.5023(5) 0.5511(4) 0.8187(7)
Pb1B Pb 0.60796(3) 0.54889(2) 0.37469(4)
S1B S 0.01432(18) 0.87942(15) -0.0126(3)
S2B S 0.33320(18) 0.78900(14) 0.4704(3)
S3B S 0.0987(2) 0.56750(15) 0.0638(3)
O1B O 0.5068(5) 0.6844(4) 0.3938(9)
O2B O 0.4356(5) 0.5710(3) 0.4423(8)
O5B O 0.7574(6) 0.4848(4) 0.2528(9)
O6B O 0.2856(6) 0.3893(4) 0.2956(8)
O7B O 0.2286(5) 0.4270(4) 0.0273(7)
O8B O -0.2668(4) 0.8129(4) -0.2439(7)
O9B O -0.1673(5) 0.7626(4) -0.0083(8)
N1B N 0.2076(6) 0.6799(4) 0.2748(10)
N2B N 0.1723(6) 0.8208(4) 0.2181(9)
N3B N 0.0682(6) 0.7224(5) 0.0368(10)
C1B C 0.4447(7) 0.6464(5) 0.4531(11)
C2B C 0.3838(7) 0.6918(5) 0.5522(11)
H1B H 0.3255 0.6581 0.5592
H2B H 0.4290 0.6994 0.6654
C4B C 0.2278(7) 0.7595(5) 0.3069(11)
C5B C 0.1282(7) 0.6665(6) 0.1337(13)
C6B C -0.1789(7) 0.8007(5) -0.1391(12)
C7B C 0.0899(6) 0.7975(5) 0.0874(11)
C8B C 0.1801(8) 0.5069(5) 0.2329(12)
H3B H 0.1364 0.4860 0.2986
H4B H 0.2320 0.5423 0.3053
C9B C 0.2365(8) 0.4366(6) 0.1831(12)
C10B C -0.0821(6) 0.8325(5) -0.1830(11)
H5B H -0.0494 0.7875 -0.2244
H6B H -0.1046 0.8716 -0.2733
Pb2C Pb 0.33418(3) 0.19397(2) 0.54892(4)
Pb1B_2 Pb 0.60796(3) 0.54889(2) 1.37469(4)
Pb2_2 Pb 0.33418(3) 0.30603(2) 0.04892(4)
Pb2_3 Pb 1.33418(3) 0.30603(2) 1.04892(4)
Pb2A Pb -0.33418(3) 0.80603(2) -0.54892(4)
Pb2A_2 Pb 0.66582(3) 0.80603(2) 0.45108(4)
Pb2B Pb -0.33418(3) 0.69397(2) -0.04892(4)
Pb2B_2 Pb 0.66582(3) 0.69397(2) 0.95108(4)
Pb2C_2 Pb 1.33418(3) 0.19397(2) 1.54892(4)
O1C O 0.4932(5) 0.1844(4) 1.1062(9)
O3_2 O 0.4977(5) 0.4489(4) 0.1813(7)
O4B_2 O 0.5557(5) 0.5922(4) 0.0792(8)
O4C O 0.4443(5) 0.0922(4) 0.4208(8)
O6A O 0.2856(6) 0.1107(4) 0.7956(8)
O6B_2 O 0.2856(6) 0.3893(4) 1.2956(8)
O7A O 0.2286(5) 0.0730(4) 0.5273(7)
O7B_2 O 0.2286(5) 0.4270(4) 1.0273(7)
O8_2 O 0.2668(4) 0.1871(4) 0.2439(7)
O8_3 O 0.2668(4) 0.1871(4) 1.2439(7)
O8C O 0.2668(4) 0.3129(4) 0.7439(7)
O9_2 O 0.1673(5) 0.2374(4) 1.0083(8)
O9C O 0.1673(5) 0.2626(4) 0.5083(8)
loop_
_geom_bond_atom_site_label_1
_geom_bond_atom_site_label_2
_geom_bond_site_symmetry_1
_geom_bond_site_symmetry_2
Pb1 O1 1_555 1_555
Pb2 O4 1_555 1_555
S1 C7 1_555 1_555
S2 C2 1_555 1_555
S3 C5 1_555 1_555
O1 C1 1_555 1_555
O2 Pb1 1_555 1_555
O3 C3 1_555 1_555
O4 Pb1 1_555 1_555
O5 Pb1 1_555 1_555
O6 C9 1_555 1_555
O7 C9 1_555 1_555
O8 C6 1_555 1_555
O9 C6 1_555 1_555
N1 C4 1_555 1_555
N2 C4 1_555 1_555
N3 C5 1_555 1_555
C1 O2 1_555 1_555
C2 C1 1_555 1_555
H1 C2 1_555 1_555
H2 C2 1_555 1_555
C3 O4 1_555 1_555
C4 S2 1_555 1_555
C5 N1 1_555 1_555
C6 C10 1_555 1_555
C7 N2 1_555 1_555
C8 S3 1_555 1_555
H3 C8 1_555 1_555
H4 C8 1_555 1_555
C9 C8 1_555 1_555
C10 S1 1_555 1_555
H5 C10 1_555 1_555
H6 C10 1_555 1_555
O4B C3B 1_555 1_555
C3B C3 1_555 1_555
O3B Pb1 1_555 1_555
Pb1B O2 1_555 1_555
S1B C7B 1_555 1_555
S2B C2B 1_555 1_555
S3B C5B 1_555 1_555
O1B Pb1B 1_555 1_555
O2B Pb1 1_555 1_555
O5B Pb1B 1_555 1_555
O6B Pb1 1_555 1_555
O7B C9B 1_555 1_555
O8B C6B 1_555 1_555
O9B C6B 1_555 1_555
N1B C4B 1_555 1_555
N2B C4B 1_555 1_555
N3B C5B 1_555 1_555
C1B O1B 1_555 1_555
C2B C1B 1_555 1_555
H1B C2B 1_555 1_555
H2B C2B 1_555 1_555
C4B S2B 1_555 1_555
C5B N1B 1_555 1_555
C6B C10B 1_555 1_555
C7B N2B 1_555 1_555
C8B S3B 1_555 1_555
H3B C8B 1_555 1_555
H4B C8B 1_555 1_555
C9B O6B 1_555 1_555
C10B S1B 1_555 1_555
H5B C10B 1_555 1_555
H6B C10B 1_555 1_555
Pb2C O1 1_555 1_555
Pb1B_2 O3 1_555 1_555
Pb2_2 O6B 1_555 1_555
Pb2_3 O8 1_555 1_555
Pb2A O8B 1_555 1_555
Pb2A_2 O1B 1_555 1_555
Pb2B O8B 1_555 1_555
Pb2B_2 O6 1_555 1_555
Pb2C_2 O8 1_555 1_555
O1C Pb2 1_555 1_555
O3_2 Pb1B 1_555 1_555
O4B_2 Pb1B 1_555 1_555
O4C Pb2C 1_555 1_555
O6A Pb2C 1_555 1_555
O6B_2 Pb2 1_555 1_555
O7A Pb2C 1_555 1_555
O7B_2 Pb2 1_555 1_555
O8_2 Pb2C 1_555 1_555
O8_3 Pb2 1_555 1_555
O8C Pb2 1_555 1_555
O9_2 Pb2 1_555 1_555
O9C Pb2C 1_555 1_555
O6 Pb1B 1_555 1_555
O7 Pb2B_2 1_555 1_555
O9 Pb2_3 1_555 1_555
N3 C7 1_555 1_555
O4B Pb1B_2 1_555 1_555
O4B Pb2B_2 1_555 1_555
C3B O3B 1_555 1_555
Pb1B O2B 1_555 1_555
O2B C1B 1_555 1_555
O7B Pb2_2 1_555 1_555
O9B Pb2B 1_555 1_555
N3B C7B 1_555 1_555
C8B C9B 1_555 1_555
Pb2C O8C 1_555 1_555
Pb2_2 O8_2 1_555 1_555

#END
