
#######################################################################
#
#                 Cambridge Crystallographic Data Centre
#                                CCDC 
#
#######################################################################
#
# If this CIF has been generated from an entry in the Cambridge 
# Structural Database, then it will include bibliographic, chemical, 
# crystal, experimental, refinement or atomic coordinate data resulting 
# from the CCDC's data processing and validation procedures.
#
#######################################################################

data_LIDFEK
_symmetry_cell_setting           monoclinic
_symmetry_space_group_name_H-M   'P 21/c'
_symmetry_Int_Tables_number      14
_space_group_name_Hall           '-P 2ybc'
loop_
_symmetry_equiv_pos_site_id
_symmetry_equiv_pos_as_xyz
1 x,y,z
2 -x,1/2+y,1/2-z
3 -x,-y,-z
4 x,1/2-y,1/2+z
_cell_length_a                   13.1711(7)
_cell_length_b                   19.6132(10)
_cell_length_c                   13.6910(7)
_cell_angle_alpha                90
_cell_angle_beta                 117.6870(10)
_cell_angle_gamma                90
_cell_volume                     3131.8
loop_
_atom_site_label
_atom_site_type_symbol
_atom_site_fract_x
_atom_site_fract_y
_atom_site_fract_z
Mo1 Mo 0.21063(9) 0.50892(5) -0.26535(9)
Mo2 Mo 0.10691(9) 0.51411(5) -0.52909(9)
Cu1 Cu 0.45422(14) 0.10081(8) -0.65760(13)
Cu2 Cu 0.04686(14) 0.38383(7) -0.22726(13)
O1 O 0.1799(9) 0.4057(5) -0.3667(9)
O2 O 0.1292(8) 0.3260(4) -0.2803(8)
O3 O 0.4053(12) 0.0839(5) -0.4487(10)
O4 O 0.3948(9) 0.1554(5) -0.5780(8)
O5 O 0.2372(7) 0.5320(4) -0.3982(7)
O6 O 0.3511(8) 0.4758(5) -0.1887(8)
O7 O 0.2247(8) 0.5893(5) -0.2143(7)
O8 O 0.1329(7) 0.4660(4) -0.2069(7)
O9 O 0.0486(7) 0.5226(4) -0.4101(7)
O10 O 0.0859(8) 0.5893(4) -0.6011(7)
O11 O 0.1555(8) 0.4570(5) -0.5907(8)
O12 O 0.5968(8) 0.0529(5) -0.5173(8)
H1 H 0.5972 0.0101 -0.5267
H2 H 0.6473 0.0623 -0.4520
C1 C 0.1756(11) 0.3455(7) -0.3388(11)
C2 C 0.2297(11) 0.2925(7) -0.3782(12)
C3 C 0.2650(13) 0.3086(7) -0.4546(12)
H3 H 0.2563 0.3532 -0.4806
C4 C 0.3144(12) 0.2595(7) -0.4956(11)
H4 H 0.3373 0.2706 -0.5485
C5 C 0.3271(11) 0.1936(7) -0.4531(12)
C6 C 0.2952(13) 0.1773(6) -0.3750(12)
H5 H 0.3077 0.1336 -0.3453
C7 C 0.2448(14) 0.2256(8) -0.3404(14)
H6 H 0.2195 0.2134 -0.2896
C8 C 0.3791(12) 0.1391(7) -0.4959(10)
C9 C 0.5318(13) 0.2494(7) -0.6407(15)
H7 H 0.4955 0.2577 -0.5977
C10 C 0.5880(14) 0.3034(9) -0.6618(17)
H8 H 0.5924 0.3458 -0.6299
C11 C 0.6360(12) 0.2932(8) -0.7289(16)
H9 H 0.6697 0.3295 -0.7467
C12 C 0.6353(12) 0.2290(10) -0.7713(12)
C13 C 0.6886(15) 0.2092(10) -0.8360(15)
H10 H 0.7262 0.2429 -0.8547
C14 C 0.6892(15) 0.1475(11) -0.8716(15)
H11 H 0.7262 0.1387 -0.9139
C15 C 0.6329(14) 0.0934(10) -0.8455(12)
C16 C 0.6310(14) 0.0249(10) -0.8753(13)
H12 H 0.6691 0.0112 -0.9147
C17 C 0.5732(15) -0.0214(10) -0.8463(15)
H13 H 0.5713 -0.0668 -0.8665
C18 C 0.5162(13) -0.0013(8) -0.7858(13)
H14 H 0.4779 -0.0339 -0.7660
C19 C 0.5740(11) 0.1091(8) -0.7829(10)
C20 C 0.5775(11) 0.1764(7) -0.7456(12)
C21 C 0.0166(12) 0.2355(7) -0.1874(12)
H15 H 0.0516 0.2249 -0.2308
C22 C -0.0134(13) 0.1824(8) -0.1396(14)
H16 H 0.0007 0.1374 -0.1510
C23 C -0.0652(13) 0.1978(7) -0.0739(13)
H17 H -0.0856 0.1632 -0.0400
C24 C -0.0862(12) 0.2659(8) -0.0593(11)
C25 C -0.1381(14) 0.2871(9) 0.0065(13)
H18 H -0.1533 0.2550 0.0481
C26 C -0.1657(13) 0.3540(9) 0.0094(13)
H19 H -0.2029 0.3665 0.0502
C27 C -0.1383(13) 0.4060(9) -0.0498(12)
C28 C -0.1630(13) 0.4730(8) -0.0508(13)
H20 H -0.2004 0.4884 -0.0117
C29 C -0.1324(13) 0.5188(8) -0.1100(13)
H21 H -0.1530 0.5645 -0.1143
C30 C -0.0700(12) 0.4953(7) -0.1635(13)
H22 H -0.0456 0.5262 -0.1998
C31 C -0.0793(11) 0.3844(7) -0.1075(11)
C32 C -0.0550(11) 0.3154(8) -0.1137(11)
N1 N 0.5278(9) 0.1874(6) -0.6790(10)
N2 N 0.5157(9) 0.0624(6) -0.7567(9)
N3 N -0.0016(9) 0.3002(5) -0.1753(9)
N4 N -0.0455(9) 0.4292(5) -0.1624(9)
Mo2B Mo -0.10691(9) 0.48589(5) -0.47091(9)
Cu1C Cu 0.45422(14) 0.39919(8) -0.15760(13)
Cu2B Cu -0.04686(14) 0.61617(7) -0.77274(13)
O6C O 0.3511(8) 0.0242(5) -0.6887(8)
O9B O -0.0486(7) 0.4774(4) -0.5899(7)
O10B O -0.0859(8) 0.4107(4) -0.3989(7)
loop_
_geom_bond_atom_site_label_1
_geom_bond_atom_site_label_2
_geom_bond_site_symmetry_1
_geom_bond_site_symmetry_2
Mo1 O1 1_555 1_555
Mo2 O5 1_555 1_555
Cu1 O4 1_555 1_555
Cu2 O2 1_555 1_555
O1 C1 1_555 1_555
O2 C1 1_555 1_555
O3 C8 1_555 1_555
O4 C8 1_555 1_555
O5 Mo1 1_555 1_555
O6 Mo1 1_555 1_555
O7 Mo1 1_555 1_555
O8 Mo1 1_555 1_555
O9 Mo1 1_555 1_555
O10 Mo2 1_555 1_555
O11 Mo2 1_555 1_555
O12 Cu1 1_555 1_555
H1 O12 1_555 1_555
H2 O12 1_555 1_555
C1 C2 1_555 1_555
C2 C3 1_555 1_555
C3 H3 1_555 1_555
C4 C3 1_555 1_555
H4 C4 1_555 1_555
C5 C4 1_555 1_555
C6 C5 1_555 1_555
H5 C6 1_555 1_555
C7 C2 1_555 1_555
H6 C7 1_555 1_555
C8 C5 1_555 1_555
C9 H7 1_555 1_555
C10 C9 1_555 1_555
H8 C10 1_555 1_555
C11 C10 1_555 1_555
H9 C11 1_555 1_555
C12 C11 1_555 1_555
C13 C12 1_555 1_555
H10 C13 1_555 1_555
C14 C13 1_555 1_555
H11 C14 1_555 1_555
C15 C14 1_555 1_555
C16 C15 1_555 1_555
H12 C16 1_555 1_555
C17 C16 1_555 1_555
H13 C17 1_555 1_555
C18 C17 1_555 1_555
H14 C18 1_555 1_555
C19 C15 1_555 1_555
C20 C12 1_555 1_555
C21 H15 1_555 1_555
C22 C21 1_555 1_555
H16 C22 1_555 1_555
C23 C22 1_555 1_555
H17 C23 1_555 1_555
C24 C23 1_555 1_555
C25 C24 1_555 1_555
H18 C25 1_555 1_555
C26 C25 1_555 1_555
H19 C26 1_555 1_555
C27 C26 1_555 1_555
C28 C27 1_555 1_555
H20 C28 1_555 1_555
C29 C28 1_555 1_555
H21 C29 1_555 1_555
C30 C29 1_555 1_555
H22 C30 1_555 1_555
C31 C27 1_555 1_555
C32 C24 1_555 1_555
N1 Cu1 1_555 1_555
N2 Cu1 1_555 1_555
N3 Cu2 1_555 1_555
N4 Cu2 1_555 1_555
Mo2B O9 1_555 1_555
Cu1C O6 1_555 1_555
Cu2B O10 1_555 1_555
O6C Cu1 1_555 1_555
O9B Mo2 1_555 1_555
O10B Cu2 1_555 1_555
Mo2 O9 1_555 1_555
Cu2 O8 1_555 1_555
C6 C7 1_555 1_555
C9 N1 1_555 1_555
C18 N2 1_555 1_555
C19 C20 1_555 1_555
C19 N2 1_555 1_555
C20 N1 1_555 1_555
C21 N3 1_555 1_555
C30 N4 1_555 1_555
C31 C32 1_555 1_555
C31 N4 1_555 1_555
C32 N3 1_555 1_555
Mo2B O9B 1_555 1_555
Mo2B O10B 1_555 1_555

#END
