
#######################################################################
#
#                 Cambridge Crystallographic Data Centre
#                                CCDC 
#
#######################################################################
#
# If this CIF has been generated from an entry in the Cambridge 
# Structural Database, then it will include bibliographic, chemical, 
# crystal, experimental, refinement or atomic coordinate data resulting 
# from the CCDC's data processing and validation procedures.
#
#######################################################################

data_LIDGOU01
_symmetry_cell_setting           rhombohedral
_symmetry_space_group_name_H-M   'R 3 c'
_symmetry_Int_Tables_number      161
_space_group_name_Hall           'R 3 -2"c'
loop_
_symmetry_equiv_pos_site_id
_symmetry_equiv_pos_as_xyz
1 x,y,z
2 -y,x-y,z
3 -y,-x,1/2+z
4 -x+y,-x,z
5 x,x-y,1/2+z
6 -x+y,y,1/2+z
7 1/3+x,2/3+y,2/3+z
8 1/3-y,2/3+x-y,2/3+z
9 1/3-y,2/3-x,1/6+z
10 1/3-x+y,2/3-x,2/3+z
11 1/3+x,2/3+x-y,1/6+z
12 1/3-x+y,2/3+y,1/6+z
13 2/3+x,1/3+y,1/3+z
14 2/3-y,1/3+x-y,1/3+z
15 2/3-y,1/3-x,5/6+z
16 2/3-x+y,1/3-x,1/3+z
17 2/3+x,1/3+x-y,5/6+z
18 2/3-x+y,1/3+y,5/6+z
_cell_length_a                   9.397(2)
_cell_length_b                   9.397(2)
_cell_length_c                   53.58(1)
_cell_angle_alpha                90
_cell_angle_beta                 90
_cell_angle_gamma                120
_cell_volume                     4097.43
loop_
_atom_site_label
_atom_site_type_symbol
_atom_site_fract_x
_atom_site_fract_y
_atom_site_fract_z
N1 N 0.0000 0.0000 0.1032(6)
C3 C 0.0000 0.0000 0.1308(7)
C4 C -0.005(12) 0.0918(86) 0.1524(9)
C5 C 0.0000 0.0000 0.1743(14)
C6 C 0.070(20) 0.135(15) 0.1931(19)
C7 C -0.1423(48) -0.1710(39) 0.1000(7)
C8 C -0.2695(48) -0.2329(46) 0.0807(7)
C9 C -0.3811(43) -0.3856(41) 0.0689(7)
C10 C -0.4834(49) -0.5435(46) 0.0795(9)
C4A C -0.0918(86) -0.097(15) 0.1524(9)
C4C C 0.097(15) 0.005(12) 0.1524(9)
C6A C -0.135(15) -0.065(25) 0.1931(19)
C6C C 0.065(25) -0.070(20) 0.1931(19)
C7A C 0.1710(39) 0.0287(62) 0.1000(7)
C8A C 0.2329(46) -0.0366(66) 0.0807(7)
C9A C 0.3856(41) 0.0045(59) 0.0689(7)
C10A C 0.5435(46) 0.0601(67) 0.0795(9)
C7C C -0.0287(62) 0.1423(48) 0.1000(7)
C8C C 0.0366(66) 0.2695(48) 0.0807(7)
C9C C -0.0045(59) 0.3811(43) 0.0689(7)
C10C C -0.0601(67) 0.4834(49) 0.0795(9)
Cr1 Cr 0.0000 0.0000 -0.0003(1)
Mn1 Mn 0.3333 0.6666 -0.0006(1)
O1 O 0.1657(18) 0.1892(16) 0.0208(3)
O2 O 0.0175(16) 0.1909(16) -0.0208(2)
O3 O 0.3082(18) 0.4646(22) 0.0204(3)
O4 O 0.2458(16) 0.4458(16) -0.0219(3)
C1 C 0.2053(34) 0.3170(28) 0.0145(5)
C2 C 0.1229(16) 0.3279(19) -0.0107(3)
O3A O 0.5354(22) 0.8436(28) 0.0204(3)
C1A C 0.6830(28) 0.8883(44) 0.0145(5)
O1A O 0.8108(16) 0.9765(24) 0.0208(3)
Cr1A Cr 1.0000 1.0000 -0.0003(1)
Mn1A Mn 0.3334 -0.3333 -0.0006(1)
O3C O 0.1564(28) -0.3082(18) 0.0204(3)
C1C C 0.1117(44) -0.2053(34) 0.0145(5)
O1C O 0.0235(24) -0.1657(18) 0.0208(3)
C2C C 0.2050(25) -0.1229(16) -0.0107(3)
O2C O 0.1734(23) -0.0175(16) -0.0208(2)
O1A_2 O -0.1892(16) -0.0235(24) 0.0208(3)
O2A O -0.1909(16) -0.1734(23) -0.0208(2)
O3C_2 O 0.1564(28) 0.6918(18) 0.0204(3)
O4C O 0.2000(23) 0.7542(16) -0.0219(3)
O4A O 0.5542(16) 0.8000(23) -0.0219(3)
C2A C 0.6721(19) 0.7950(25) -0.0107(3)
O2A_2 O 0.8091(16) 0.8266(23) -0.0208(2)
O4C_2 O 0.2000(23) -0.2458(16) -0.0219(3)
loop_
_geom_bond_atom_site_label_1
_geom_bond_atom_site_label_2
_geom_bond_site_symmetry_1
_geom_bond_site_symmetry_2
Cr1 O1 1_555 1_555
Mn1 O3 1_555 1_555
O1 C1 1_555 1_555
O2 Cr1 1_555 1_555
O3 C1 1_555 1_555
O4 Mn1 1_555 1_555
C1 C2 1_555 1_555
C2 O2 1_555 1_555
N1 C3 1_555 1_555
C3 C4 1_555 1_555
C4 C5 1_555 1_555
C5 C6 1_555 1_555
C7 N1 1_555 1_555
C8 C7 1_555 1_555
C9 C8 1_555 1_555
C10 C9 1_555 1_555
O3A Mn1 1_555 1_555
C1A O3A 1_555 1_555
O1A C1A 1_555 1_555
Cr1A O1A 1_555 1_555
Mn1A O3C 1_555 1_555
O3C C1C 1_555 1_555
C1C O1C 1_555 1_555
O1C Cr1 1_555 1_555
C2C C1C 1_555 1_555
O2C Cr1 1_555 1_555
O1A_2 Cr1 1_555 1_555
O2A Cr1 1_555 1_555
O3C_2 Mn1 1_555 1_555
O4C Mn1 1_555 1_555
O4A Mn1 1_555 1_555
C2A C1A 1_555 1_555
O2A_2 Cr1A 1_555 1_555
O4C_2 Mn1A 1_555 1_555
C4A C3 1_555 1_555
C4C C3 1_555 1_555
C6A C5 1_555 1_555
C6C C5 1_555 1_555
C7A N1 1_555 1_555
C8A C7A 1_555 1_555
C9A C8A 1_555 1_555
C10A C9A 1_555 1_555
C7C N1 1_555 1_555
C8C C7C 1_555 1_555
C9C C8C 1_555 1_555
C10C C9C 1_555 1_555
O4 C2 1_555 1_555
C4 C4A 1_555 1_555
C4 C4C 1_555 1_555
C5 C4C 1_555 1_555
C5 C4A 1_555 1_555
C2C O2C 1_555 1_555
C2C O4C_2 1_555 1_555
O4A C2A 1_555 1_555
C2A O2A_2 1_555 1_555
C4A C4C 1_555 1_555

#END
