
#######################################################################
#
#                 Cambridge Crystallographic Data Centre
#                                CCDC 
#
#######################################################################
#
# If this CIF has been generated from an entry in the Cambridge 
# Structural Database, then it will include bibliographic, chemical, 
# crystal, experimental, refinement or atomic coordinate data resulting 
# from the CCDC's data processing and validation procedures.
#
#######################################################################

data_LIDGUC
_symmetry_cell_setting           monoclinic
_symmetry_space_group_name_H-M   'P 21'
_symmetry_Int_Tables_number      4
_space_group_name_Hall           'P 2yb'
loop_
_symmetry_equiv_pos_site_id
_symmetry_equiv_pos_as_xyz
1 x,y,z
2 -x,1/2+y,-z
_cell_length_a                   9.2562(6)
_cell_length_b                   14.3930(10)
_cell_length_c                   24.2543(17)
_cell_angle_alpha                90
_cell_angle_beta                 90.878(1)
_cell_angle_gamma                90
_cell_volume                     3230.89
loop_
_atom_site_label
_atom_site_type_symbol
_atom_site_fract_x
_atom_site_fract_y
_atom_site_fract_z
Zn1 Zn 0.51925(7) 0.73343(5) 0.54851(3)
O1 O 0.3483(4) 0.8015(3) 0.51571(17)
O2 O 0.3804(4) 0.6711(3) 0.47025(18)
O3 O 0.5114(5) 0.8191(3) 0.61643(18)
O4 O -0.3055(4) 0.7708(3) 0.51430(18)
N1 N 0.4666(6) 1.6162(4) 0.5887(2)
C1 C 0.3030(6) 0.7402(5) 0.4803(2)
C2 C 0.5430(6) 0.8518(4) 0.6635(2)
C3 C 0.1555(6) 0.7524(4) 0.4530(2)
O5 O 0.4611(4) 0.9103(3) 0.68606(17)
C4 C 0.6766(6) 0.8242(4) 0.6957(3)
C5 C 0.1719(7) 0.7247(8) 0.3917(3)
C6 C 0.0416(6) 0.6914(4) 0.4826(3)
C7 C 0.0901(7) 0.8496(6) 0.4578(4)
Zn2 Zn 0.29407(7) 0.95552(5) 0.64431(3)
C8 C 0.7482(7) 0.7332(5) 0.6777(3)
C9 C 0.7971(7) 0.9001(5) 0.6932(3)
H1 H 0.6488 0.8170 0.7351
H2 H 0.2352 0.7694 0.3734
H3 H 0.0768 0.7248 0.3734
H4 H 0.2142 0.6624 0.3895
C10 C 0.0527(7) 0.7025(6) 0.5445(3)
C11 C -0.0995(6) 0.7319(5) 0.4592(2)
C12 C 0.0545(8) 0.5874(6) 0.4676(4)
C13 C -0.0773(7) 0.8366(5) 0.4518(3)
H5 H 0.1264 0.8906 0.4283
H6 H 0.1153 0.8776 0.4940
O6 O 0.3084(5) 0.9646(4) 0.56250(18)
N2 N 0.3071(5) 1.0949(4) 0.6569(2)
O7 O 1.1249(5) 0.8774(4) 0.6557(2)
C14 C 0.9121(7) 0.7478(5) 0.6915(3)
H7 H 0.7328 0.7223 0.6377
H8 H 0.7092 0.6798 0.6984
C15 C 0.9305(6) 0.8449(4) 0.7176(3)
C16 C 0.8190(8) 0.9291(6) 0.6350(4)
C17 C 0.7591(10) 0.9866(6) 0.7272(5)
H9 H 0.0418 0.7682 0.5542
H10 H 0.1473 0.6802 0.5576
H11 H -0.0237 0.6662 0.5620
H12 H -0.1129 0.7052 0.4214
C18 C -0.2337(6) 0.7046(4) 0.4921(3)
H13 H -0.0135 0.5513 0.4896
H14 H 0.1533 0.5661 0.4755
H15 H 0.0320 0.5790 0.4283
H16 H -0.1285 0.8721 0.4806
H17 H -0.1123 0.8573 0.4151
H18 H 0.333(7) 0.915(3) 0.543(3)
H19 H 0.218(2) 0.955(5) 0.564(3)
C19 C 0.4019(6) 1.1451(4) 0.6273(3)
C20 C 0.2227(7) 1.1410(4) 0.6914(3)
H20 H 0.9464 0.6994 0.7176
H21 H 0.9694 0.7433 0.6575
C21 C 1.0699(7) 0.8956(5) 0.7014(3)
C22 C 0.9219(10) 0.8379(7) 0.7800(3)
H22 H 0.7341 0.9636 0.6217
H23 H 0.8329 0.8740 0.6120
H24 H 0.9046 0.9690 0.6330
H25 H 0.8479 1.0198 0.7375
H26 H 0.7088 0.9676 0.7607
H27 H 0.6963 1.0276 0.7052
O8 O -0.2714(5) 0.6223(3) 0.49560(19)
H28 H 0.4648 1.1132 0.6032
C23 C 0.4112(6) 1.2413(5) 0.6306(2)
C24 C 0.2279(7) 1.2357(5) 0.6977(3)
H29 H 0.1558 1.1068 0.7127
O9 O 1.1286(5) 0.9503(3) 0.7351(2)
H30 H 0.8276 0.8125 0.7901
H31 H 0.9337 0.8998 0.7963
H32 H 0.9987 0.7969 0.7939
H33 H 0.4786 1.2741 0.6088
C25 C 0.3217(6) 1.2889(4) 0.6658(2)
H34 H 0.1676 1.2652 0.7238
N3 N 0.3174(6) 1.3830(4) 0.6732(2)
H35 H 0.279(7) 1.409(4) 0.7026(17)
C26 C 0.3755(6) 1.4546(5) 0.6436(2)
C27 C 0.4225(7) 1.4501(5) 0.5892(3)
C28 C 0.3786(12) 1.5398(5) 0.6678(4)
H36 H 0.4250 1.3925 0.5701
C29 C 0.4656(8) 1.5319(5) 0.5638(3)
C30 C 0.4181(11) 1.6165(5) 0.6396(3)
H37 H 0.3524 1.5456 0.7053
H38 H 0.4962 1.5284 0.5266
H39 H 0.4105 1.6748 0.6577
Zn1_2 Zn -0.48075(7) 0.73343(5) 0.54851(3)
Zn1_3 Zn 0.51925(7) 1.73343(5) 0.54851(3)
O4_2 O 0.6945(4) 0.7708(3) 0.51430(18)
N1_2 N 0.4666(6) 0.6162(4) 0.5887(2)
Zn2_2 Zn 1.29407(7) 0.95552(5) 0.64431(3)
O7_2 O 0.1249(5) 0.8774(4) 0.6557(2)
Zn3 Zn 0.32194(7) 0.46699(5) 0.85185(3)
Zn4 Zn 0.53204(7) 0.23923(5) 0.94908(3)
O10 O -0.2930(5) 0.2712(3) 0.98763(19)
O11 O -0.2581(5) 0.1224(3) 1.00669(18)
O12 O 0.3603(5) 0.3091(3) 0.98044(18)
O13 O 0.3930(5) 0.1763(3) 1.02159(18)
O14 O 0.5359(5) 0.3288(3) 0.88248(17)
O15 O 0.4828(4) 0.4161(3) 0.81118(18)
O16 O 1.1412(4) 0.4555(3) 0.75794(16)
O17 O 1.1434(4) 0.3982(3) 0.84248(18)
O18 O 0.3414(5) 0.4765(3) 0.93368(17)
H40 H 0.328(7) 0.522(3) 0.957(2)
H41 H 0.285(6) 0.433(3) 0.941(2)
N4 N 0.3432(5) 0.6047(3) 0.83537(19)
N5 N 0.3615(9) 0.8913(4) 0.8119(3)
H42 H 0.317(9) 0.906(6) 0.780(2)
N6 N 0.4780(6) 1.1263(4) 0.9047(2)
C31 C 0.4219(7) 0.6564(5) 0.8695(3)
H43 H 0.4717 0.6266 0.8991
C32 C 0.4356(8) 0.7524(5) 0.8643(3)
H44 H 0.4929 0.7867 0.8900
C33 C 0.3645(9) 0.7974(4) 0.8212(3)
C34 C 0.2906(8) 0.7412(5) 0.7826(2)
H45 H 0.2506 0.7672 0.7498
C35 C 0.2774(8) 0.6477(5) 0.7934(3)
H46 H 0.2177 0.6117 0.7694
C36 C 0.4027(8) 0.9658(5) 0.8451(3)
C37 C 0.4368(10) 0.9599(6) 0.9018(3)
H47 H 0.4377 0.9017 0.9202
C38 C 0.4688(11) 1.0404(6) 0.9297(4)
H48 H 0.4855 1.0368 0.9684
C39 C 0.4326(10) 1.1283(5) 0.8538(3)
H49 H 0.4247 1.1872 0.8364
C40 C 0.3955(14) 1.0525(5) 0.8236(4)
H50 H 0.3638 1.0604 0.7864
C41 C -0.2204(7) 0.2041(4) 1.0100(3)
C42 C -0.0813(6) 0.2349(5) 1.0415(2)
H51 H -0.0996 0.2981 1.0571
C43 C -0.0398(10) 0.1735(7) 1.0877(4)
H52 H -0.0727 0.1088 1.0815
H53 H -0.0772 0.1963 1.1233
C44 C 0.1379(10) 0.1826(7) 1.0848(4)
H54 H 0.1783 0.1983 1.1217
H55 H 0.1803 0.1229 1.0729
C45 C 0.1751(6) 0.2603(4) 1.0429(2)
C46 C 0.0449(8) 0.2421(12) 1.0057(3)
C47 C 0.3175(6) 0.2467(5) 1.0143(2)
C48 C 0.1671(12) 0.3563(6) 1.0682(5)
H56 H 0.2150 0.4011 1.0442
H57 H 0.2153 0.3559 1.1045
H58 H 0.0656 0.3741 1.0724
C49 C 0.5643(6) 0.3575(4) 0.8356(2)
C50 C 0.6975(6) 0.3250(4) 0.8040(2)
C51 C 0.6454(7) 0.2835(5) 0.7489(3)
H59 H 0.7290 0.2699 0.7259
H60 H 0.5821 0.3281 0.7298
H61 H 0.5919 0.2260 0.7558
C52 C 0.8075(6) 0.4070(4) 0.7948(2)
C53 C 0.9490(6) 0.3514(4) 0.7814(2)
H62 H 0.9471 0.3386 0.7409
C54 C 0.9397(6) 0.2574(4) 0.8108(3)
H63 H 1.0151 0.2528 0.8401
H64 H 0.9533 0.2060 0.7843
C55 C 0.7872(6) 0.2525(4) 0.8362(2)
H65 H 0.7453 0.1897 0.8316
H66 H 0.7913 0.2679 0.8760
C56 C 0.8254(7) 0.4621(6) 0.8487(3)
H67 H 0.8992 0.5102 0.8441
H68 H 0.8550 0.4199 0.8785
H69 H 0.7332 0.4914 0.8579
C57 C 1.0873(6) 0.4063(4) 0.7942(2)
C58 C 0.0591(9) 0.1871(8) 0.9589(4)
H70 H 0.0831 0.1234 0.9699
H71 H 0.1363 0.2121 0.9359
H72 H -0.0321 0.1872 0.9378
C59 C 0.7700(7) 0.4741(5) 0.7479(3)
H73 H 0.6807 0.5074 0.7565
H74 H 0.7563 0.4392 0.7136
H75 H 0.8488 0.5189 0.7437
C60 C 0.0106(11) 0.3488(7) 0.9718(4)
H76 H 0.0666 0.3517 0.9379
H77 H 0.0389 0.4003 0.9961
H78 H -0.0926 0.3536 0.9627
Zn3_2 Zn 1.32194(7) 0.46699(5) 0.85185(3)
Zn4_2 Zn -0.46796(7) 0.23923(5) 0.94908(3)
Zn4_3 Zn 0.53204(7) 1.23923(5) 0.94908(3)
O10_2 O 0.7070(5) 0.2712(3) 0.98763(19)
O17_2 O 0.1434(4) 0.3982(3) 0.84248(18)
N6_2 N 0.4780(6) 0.1263(4) 0.9047(2)
loop_
_geom_bond_atom_site_label_1
_geom_bond_atom_site_label_2
_geom_bond_site_symmetry_1
_geom_bond_site_symmetry_2
Zn1 O1 1_555 1_555
O1 C1 1_555 1_555
O2 Zn1 1_555 1_555
O3 Zn1 1_555 1_555
O4 C18 1_555 1_555
N1 C29 1_555 1_555
C1 O2 1_555 1_555
C2 O3 1_555 1_555
C3 C1 1_555 1_555
O5 C2 1_555 1_555
C4 C2 1_555 1_555
C5 C3 1_555 1_555
C6 C3 1_555 1_555
C7 C3 1_555 1_555
Zn2 O5 1_555 1_555
C8 C4 1_555 1_555
C9 C4 1_555 1_555
H1 C4 1_555 1_555
H2 C5 1_555 1_555
H3 C5 1_555 1_555
H4 C5 1_555 1_555
C10 C6 1_555 1_555
C11 C6 1_555 1_555
C12 C6 1_555 1_555
C13 C7 1_555 1_555
H5 C7 1_555 1_555
H6 C7 1_555 1_555
O6 Zn2 1_555 1_555
N2 Zn2 1_555 1_555
O7 C21 1_555 1_555
C14 C8 1_555 1_555
H7 C8 1_555 1_555
H8 C8 1_555 1_555
C15 C9 1_555 1_555
C16 C9 1_555 1_555
C17 C9 1_555 1_555
H9 C10 1_555 1_555
H10 C10 1_555 1_555
H11 C10 1_555 1_555
H12 C11 1_555 1_555
C18 C11 1_555 1_555
H13 C12 1_555 1_555
H14 C12 1_555 1_555
H15 C12 1_555 1_555
H16 C13 1_555 1_555
H17 C13 1_555 1_555
H18 O6 1_555 1_555
H19 O6 1_555 1_555
C19 N2 1_555 1_555
C20 N2 1_555 1_555
H20 C14 1_555 1_555
H21 C14 1_555 1_555
C21 C15 1_555 1_555
C22 C15 1_555 1_555
H22 C16 1_555 1_555
H23 C16 1_555 1_555
H24 C16 1_555 1_555
H25 C17 1_555 1_555
H26 C17 1_555 1_555
H27 C17 1_555 1_555
O8 C18 1_555 1_555
H28 C19 1_555 1_555
C23 C19 1_555 1_555
C24 C20 1_555 1_555
H29 C20 1_555 1_555
O9 C21 1_555 1_555
H30 C22 1_555 1_555
H31 C22 1_555 1_555
H32 C22 1_555 1_555
H33 C23 1_555 1_555
C25 C23 1_555 1_555
H34 C24 1_555 1_555
N3 C25 1_555 1_555
H35 N3 1_555 1_555
C26 N3 1_555 1_555
C27 C26 1_555 1_555
C28 C26 1_555 1_555
H36 C27 1_555 1_555
C29 C27 1_555 1_555
C30 N1 1_555 1_555
H37 C28 1_555 1_555
H38 C29 1_555 1_555
H39 C30 1_555 1_555
Zn3 O15 1_555 1_555
Zn4 O12 1_555 1_555
O10 C41 1_555 1_555
O11 C41 1_555 1_555
O12 C47 1_555 1_555
O13 Zn4 1_555 1_555
O14 Zn4 1_555 1_555
O15 C49 1_555 1_555
O16 C57 1_555 1_555
O17 C57 1_555 1_555
O18 Zn3 1_555 1_555
H40 O18 1_555 1_555
H41 O18 1_555 1_555
N4 Zn3 1_555 1_555
N5 H42 1_555 1_555
N6 C38 1_555 1_555
C31 N4 1_555 1_555
H43 C31 1_555 1_555
C32 C31 1_555 1_555
H44 C32 1_555 1_555
C33 N5 1_555 1_555
C34 C33 1_555 1_555
H45 C34 1_555 1_555
C35 N4 1_555 1_555
H46 C35 1_555 1_555
C36 N5 1_555 1_555
C37 C36 1_555 1_555
H47 C37 1_555 1_555
C38 C37 1_555 1_555
H48 C38 1_555 1_555
C39 N6 1_555 1_555
H49 C39 1_555 1_555
C40 C36 1_555 1_555
H50 C40 1_555 1_555
C41 C42 1_555 1_555
C42 H51 1_555 1_555
C43 C42 1_555 1_555
H52 C43 1_555 1_555
H53 C43 1_555 1_555
C44 C43 1_555 1_555
H54 C44 1_555 1_555
H55 C44 1_555 1_555
C45 C44 1_555 1_555
C46 C42 1_555 1_555
C47 O13 1_555 1_555
C48 C45 1_555 1_555
H56 C48 1_555 1_555
H57 C48 1_555 1_555
H58 C48 1_555 1_555
C49 O14 1_555 1_555
C50 C49 1_555 1_555
C51 C50 1_555 1_555
H59 C51 1_555 1_555
H60 C51 1_555 1_555
H61 C51 1_555 1_555
C52 C50 1_555 1_555
C53 C52 1_555 1_555
H62 C53 1_555 1_555
C54 C53 1_555 1_555
H63 C54 1_555 1_555
H64 C54 1_555 1_555
C55 C50 1_555 1_555
H65 C55 1_555 1_555
H66 C55 1_555 1_555
C56 C52 1_555 1_555
H67 C56 1_555 1_555
H68 C56 1_555 1_555
H69 C56 1_555 1_555
C57 C53 1_555 1_555
C58 C46 1_555 1_555
H70 C58 1_555 1_555
H71 C58 1_555 1_555
H72 C58 1_555 1_555
C59 C52 1_555 1_555
H73 C59 1_555 1_555
H74 C59 1_555 1_555
H75 C59 1_555 1_555
C60 C46 1_555 1_555
H76 C60 1_555 1_555
H77 C60 1_555 1_555
H78 C60 1_555 1_555
Zn1_2 O4 1_555 1_555
Zn1_3 N1 1_555 1_555
O4_2 Zn1 1_555 1_555
N1_2 Zn1 1_555 1_555
Zn2_2 O7 1_555 1_555
O7_2 Zn2 1_555 1_555
Zn3_2 O17 1_555 1_555
Zn4_2 O10 1_555 1_555
Zn4_3 N6 1_555 1_555
O10_2 Zn4 1_555 1_555
O17_2 Zn3 1_555 1_555
N6_2 Zn4 1_555 1_555
C11 C13 1_555 1_555
C14 C15 1_555 1_555
C24 C25 1_555 1_555
C28 C30 1_555 1_555
C32 C33 1_555 1_555
C34 C35 1_555 1_555
C39 C40 1_555 1_555
C45 C46 1_555 1_555
C45 C47 1_555 1_555
C54 C55 1_555 1_555

#END
