
#######################################################################
#
#                 Cambridge Crystallographic Data Centre
#                                CCDC 
#
#######################################################################
#
# If this CIF has been generated from an entry in the Cambridge 
# Structural Database, then it will include bibliographic, chemical, 
# crystal, experimental, refinement or atomic coordinate data resulting 
# from the CCDC's data processing and validation procedures.
#
#######################################################################

data_LIDHUD
_symmetry_cell_setting           orthorhombic
_symmetry_space_group_name_H-M   'P 21 21 2'
_symmetry_Int_Tables_number      18
_space_group_name_Hall           'P 2 2ab'
loop_
_symmetry_equiv_pos_site_id
_symmetry_equiv_pos_as_xyz
1 x,y,z
2 -x,-y,z
3 1/2-x,1/2+y,-z
4 1/2+x,1/2-y,-z
_cell_length_a                   19.0413(19)
_cell_length_b                   23.213(2)
_cell_length_c                   7.1223(7)
_cell_angle_alpha                90
_cell_angle_beta                 90
_cell_angle_gamma                90
_cell_volume                     3148.1
loop_
_atom_site_label
_atom_site_type_symbol
_atom_site_fract_x
_atom_site_fract_y
_atom_site_fract_z
Cd1 Cd 0.0000 0.0000 0.17689(7)
Cd2 Cd 0.5000 0.0000 0.13817(7)
O1 O 0.0933(2) -0.0244(2) -0.0139(8)
O2 O 0.0881(2) 0.06582(19) 0.0863(7)
O3 O 0.4028(2) -0.0213(3) -0.0466(9)
O4 O 0.4129(2) 0.0669(2) 0.0529(7)
N1 N 0.0289(3) -0.2327(2) 1.3521(7)
N2 N 0.1047(2) -0.1698(2) 0.8442(7)
H1 H 0.141(2) -0.190(2) 0.800(8)
N3 N 0.0388(3) -0.0612(2) 0.4124(7)
N4 N 0.5391(3) 0.0627(3) 0.3714(7)
N5 N 0.6035(3) 0.1704(2) 0.8123(7)
H2 H 0.6442(18) 0.187(2) 0.792(9)
N6 N 0.5235(2) 0.2324(2) 1.3181(7)
H3 H 0.515(3) 0.241(2) 1.438(4)
C1 C 0.0917(3) -0.2486(3) 1.2847(9)
H4 H 0.1196 -0.2753 1.3532
C2 C 0.1165(3) -0.2267(3) 1.1166(9)
H5 H 0.1612 -0.2386 1.0717
C3 C 0.0778(3) -0.1882(3) 1.0135(8)
C4 C 0.0136(3) -0.1728(3) 1.0875(9)
H6 H -0.0155 -0.1465 1.0211
C5 C -0.0088(4) -0.1950(3) 1.2566(8)
H7 H -0.0528 -0.1829 1.3059
C6 C 0.0806(3) -0.1344(3) 0.7074(8)
C7 C 0.1229(3) -0.1223(3) 0.5539(9)
H8 H 0.1684 -0.1390 0.5476
C8 C 0.1015(3) -0.0875(3) 0.4135(9)
H9 H 0.1323 -0.0814 0.3105
C9 C -0.0025(5) -0.0740(3) 0.5530(9)
H10 H -0.0482 -0.0577 0.5510
C10 C 0.0137(4) -0.1087(3) 0.7036(9)
H11 H -0.0192 -0.1151 0.8016
C11 C 0.1177(3) 0.0261(4) -0.0079(10)
C12 C 0.1834(3) 0.0417(3) -0.1181(10)
H12 H 0.1768 0.0259 -0.2476
C13 C 0.1975(4) 0.1035(4) -0.1394(15)
H13 H 0.1728 0.1263 -0.0423
H14 H 0.1834 0.1174 -0.2653
C14 C 0.2802(3) 0.1066(3) -0.1128(14)
H15 H 0.2918 0.1224 0.0125
H16 H 0.3013 0.1318 -0.2097
C15 C 0.3095(3) 0.0422(3) -0.1329(9)
C16 C 0.2496(3) 0.0094(3) -0.0314(9)
C17 C 0.2460(4) -0.0558(3) -0.0807(14)
H17 H 0.2921 -0.0734 -0.0593
H18 H 0.2329 -0.0603 -0.2129
H19 H 0.2109 -0.0746 -0.0011
C18 C 0.2523(3) 0.0143(3) 0.1720(8)
H20 H 0.2944 -0.0052 0.2190
H21 H 0.2104 -0.0036 0.2266
H22 H 0.2539 0.0551 0.2075
C19 C 0.3801(3) 0.0298(4) -0.0350(10)
C20 C 0.5996(3) 0.0902(3) 0.3720(8)
H23 H 0.6302 0.0846 0.2682
C21 C 0.6214(3) 0.1267(3) 0.5141(8)
H24 H 0.6649 0.1466 0.5044
C22 C 0.5787(3) 0.1343(3) 0.6726(7)
C23 C 0.5153(4) 0.1064(4) 0.6685(9)
H25 H 0.4827 0.1120 0.7679
C24 C 0.4981(5) 0.0703(5) 0.5214(9)
H26 H 0.4550 0.0499 0.5272
C25 C 0.5736(3) 0.1893(3) 0.9800(8)
C26 C 0.6137(3) 0.2280(3) 1.0886(9)
H27 H 0.6585 0.2405 1.0460
C27 C 0.5874(3) 0.2474(3) 1.2569(9)
H28 H 0.6154 0.2723 1.3319
C28 C 0.4853(3) 0.1954(3) 1.2132(9)
H29 H 0.4399 0.1846 1.2561
C29 C 0.5093(4) 0.1728(3) 1.0471(8)
H30 H 0.4815 0.1460 0.9792
C30 C 0.3132(4) 0.0258(5) -0.3340(11)
H31 H 0.3464 -0.0062 -0.3493
H32 H 0.3292 0.0589 -0.4081
H33 H 0.2666 0.0138 -0.3773
O1A O -0.0933(2) 0.0244(2) -0.0139(8)
O2A O -0.0881(2) -0.06582(19) 0.0863(7)
O3A O -0.4028(2) 0.0213(3) -0.0466(9)
O4A O -0.4129(2) -0.0669(2) 0.0529(7)
N1A N -0.0289(3) 0.2327(2) 1.3521(7)
N2A N -0.1047(2) 0.1698(2) 0.8442(7)
H1A H -0.141(2) 0.190(2) 0.800(8)
N3A N -0.0388(3) 0.0612(2) 0.4124(7)
C1A C -0.0917(3) 0.2486(3) 1.2847(9)
H4A H -0.1196 0.2753 1.3532
C2A C -0.1165(3) 0.2267(3) 1.1166(9)
H5A H -0.1612 0.2386 1.0717
C3A C -0.0778(3) 0.1882(3) 1.0135(8)
C4A C -0.0136(3) 0.1728(3) 1.0875(9)
H6A H 0.0155 0.1465 1.0211
C5A C 0.0088(4) 0.1950(3) 1.2566(8)
H7A H 0.0528 0.1829 1.3059
C6A C -0.0806(3) 0.1344(3) 0.7074(8)
C7A C -0.1229(3) 0.1223(3) 0.5539(9)
H8A H -0.1684 0.1390 0.5476
C8A C -0.1015(3) 0.0875(3) 0.4135(9)
H9A H -0.1323 0.0814 0.3105
C9A C 0.0025(5) 0.0740(3) 0.5530(9)
H10A H 0.0482 0.0577 0.5510
C10A C -0.0137(4) 0.1087(3) 0.7036(9)
H11A H 0.0192 0.1151 0.8016
C11A C -0.1177(3) -0.0261(4) -0.0079(10)
C12A C -0.1834(3) -0.0417(3) -0.1181(10)
H12A H -0.1768 -0.0259 -0.2476
C13A C -0.1975(4) -0.1035(4) -0.1394(15)
H13A H -0.1728 -0.1263 -0.0423
H14A H -0.1834 -0.1174 -0.2653
C14A C -0.2802(3) -0.1066(3) -0.1128(14)
H15A H -0.2918 -0.1224 0.0125
H16A H -0.3013 -0.1318 -0.2097
C15A C -0.3095(3) -0.0422(3) -0.1329(9)
C16A C -0.2496(3) -0.0094(3) -0.0314(9)
C17A C -0.2460(4) 0.0558(3) -0.0807(14)
H17A H -0.2921 0.0734 -0.0593
H18A H -0.2329 0.0603 -0.2129
H19A H -0.2109 0.0746 -0.0011
C18A C -0.2523(3) -0.0143(3) 0.1720(8)
H20A H -0.2944 0.0052 0.2190
H21A H -0.2104 0.0036 0.2266
H22A H -0.2539 -0.0551 0.2075
C19A C -0.3801(3) -0.0298(4) -0.0350(10)
C30A C -0.3132(4) -0.0258(5) -0.3340(11)
H31A H -0.3464 0.0062 -0.3493
H32A H -0.3292 -0.0589 -0.4081
H33A H -0.2666 -0.0138 -0.3773
N4A N 0.4609(3) -0.0627(3) 0.3714(7)
N5A N 0.3965(3) -0.1704(2) 0.8123(7)
H2A H 0.3558(18) -0.187(2) 0.792(9)
N6A N 0.4765(2) -0.2324(2) 1.3181(7)
H3A H 0.485(3) -0.241(2) 1.438(4)
C20A C 0.4004(3) -0.0902(3) 0.3720(8)
H23A H 0.3698 -0.0846 0.2682
C21A C 0.3786(3) -0.1267(3) 0.5141(8)
H24A H 0.3351 -0.1466 0.5044
C22A C 0.4213(3) -0.1343(3) 0.6726(7)
C23A C 0.4847(4) -0.1064(4) 0.6685(9)
H25A H 0.5173 -0.1120 0.7679
C24A C 0.5019(5) -0.0703(5) 0.5214(9)
H26A H 0.5450 -0.0499 0.5272
C25A C 0.4264(3) -0.1893(3) 0.9800(8)
C26A C 0.3863(3) -0.2280(3) 1.0886(9)
H27A H 0.3415 -0.2405 1.0460
C27A C 0.4126(3) -0.2474(3) 1.2569(9)
H28A H 0.3846 -0.2723 1.3319
C28A C 0.5147(3) -0.1954(3) 1.2132(9)
H29A H 0.5601 -0.1846 1.2561
C29A C 0.4907(4) -0.1728(3) 1.0471(8)
H30A H 0.5185 -0.1460 0.9792
Cd2_2 Cd -0.5000 0.0000 0.13817(7)
O3A_2 O 0.5972(2) 0.0213(3) -0.0466(9)
O4A_2 O 0.5871(2) -0.0669(2) 0.0529(7)
Cl1 Cl 0.25046(10) -0.26364(7) 1.6240(3)
O5 O 0.2507(3) -0.2417(3) 1.4367(8)
O6 O 0.2496(2) -0.21438(19) 1.7513(7)
O7 O 0.3132(2) -0.2951(3) 1.6550(10)
O8 O 0.1885(3) -0.2961(2) 1.6537(8)
loop_
_geom_bond_atom_site_label_1
_geom_bond_atom_site_label_2
_geom_bond_site_symmetry_1
_geom_bond_site_symmetry_2
Cd1 O1 1_555 1_555
Cd2 O3 1_555 1_555
O1 C11 1_555 1_555
O2 Cd1 1_555 1_555
O3 C19 1_555 1_555
O4 Cd2 1_555 1_555
N1 C1 1_555 1_555
N2 H1 1_555 1_555
N3 Cd1 1_555 1_555
N4 Cd2 1_555 1_555
N5 H2 1_555 1_555
N6 H3 1_555 1_555
C1 H4 1_555 1_555
C2 C1 1_555 1_555
H5 C2 1_555 1_555
C3 N2 1_555 1_555
C4 C3 1_555 1_555
H6 C4 1_555 1_555
C5 N1 1_555 1_555
H7 C5 1_555 1_555
C6 N2 1_555 1_555
C7 C6 1_555 1_555
H8 C7 1_555 1_555
C8 N3 1_555 1_555
H9 C8 1_555 1_555
C9 N3 1_555 1_555
H10 C9 1_555 1_555
C10 C6 1_555 1_555
H11 C10 1_555 1_555
C11 O2 1_555 1_555
C12 C11 1_555 1_555
H12 C12 1_555 1_555
C13 C12 1_555 1_555
H13 C13 1_555 1_555
H14 C13 1_555 1_555
C14 C13 1_555 1_555
H15 C14 1_555 1_555
H16 C14 1_555 1_555
C15 C14 1_555 1_555
C16 C12 1_555 1_555
C17 C16 1_555 1_555
H17 C17 1_555 1_555
H18 C17 1_555 1_555
H19 C17 1_555 1_555
C18 C16 1_555 1_555
H20 C18 1_555 1_555
H21 C18 1_555 1_555
H22 C18 1_555 1_555
C19 O4 1_555 1_555
C20 N4 1_555 1_555
H23 C20 1_555 1_555
C21 C20 1_555 1_555
H24 C21 1_555 1_555
C22 N5 1_555 1_555
C23 C22 1_555 1_555
H25 C23 1_555 1_555
C24 N4 1_555 1_555
H26 C24 1_555 1_555
C25 N5 1_555 1_555
C26 C25 1_555 1_555
H27 C26 1_555 1_555
C27 N6 1_555 1_555
H28 C27 1_555 1_555
C28 N6 1_555 1_555
H29 C28 1_555 1_555
C29 C25 1_555 1_555
H30 C29 1_555 1_555
C30 C15 1_555 1_555
H31 C30 1_555 1_555
H32 C30 1_555 1_555
H33 C30 1_555 1_555
Cl1 O5 1_555 1_555
O6 Cl1 1_555 1_555
O7 Cl1 1_555 1_555
O8 Cl1 1_555 1_555
O1A Cd1 1_555 1_555
O2A Cd1 1_555 1_555
O3A C19A 1_555 1_555
O4A C19A 1_555 1_555
N1A C1A 1_555 1_555
N2A H1A 1_555 1_555
N3A Cd1 1_555 1_555
C1A H4A 1_555 1_555
C2A C1A 1_555 1_555
H5A C2A 1_555 1_555
C3A N2A 1_555 1_555
C4A C3A 1_555 1_555
H6A C4A 1_555 1_555
C5A N1A 1_555 1_555
H7A C5A 1_555 1_555
C6A N2A 1_555 1_555
C7A C6A 1_555 1_555
H8A C7A 1_555 1_555
C8A N3A 1_555 1_555
H9A C8A 1_555 1_555
C9A N3A 1_555 1_555
H10A C9A 1_555 1_555
C10A C6A 1_555 1_555
H11A C10A 1_555 1_555
C11A O1A 1_555 1_555
C12A C11A 1_555 1_555
H12A C12A 1_555 1_555
C13A C12A 1_555 1_555
H13A C13A 1_555 1_555
H14A C13A 1_555 1_555
C14A C13A 1_555 1_555
H15A C14A 1_555 1_555
H16A C14A 1_555 1_555
C15A C14A 1_555 1_555
C16A C12A 1_555 1_555
C17A C16A 1_555 1_555
H17A C17A 1_555 1_555
H18A C17A 1_555 1_555
H19A C17A 1_555 1_555
C18A C16A 1_555 1_555
H20A C18A 1_555 1_555
H21A C18A 1_555 1_555
H22A C18A 1_555 1_555
C19A C15A 1_555 1_555
C30A C15A 1_555 1_555
H31A C30A 1_555 1_555
H32A C30A 1_555 1_555
H33A C30A 1_555 1_555
N4A Cd2 1_555 1_555
N5A H2A 1_555 1_555
N6A H3A 1_555 1_555
C20A N4A 1_555 1_555
H23A C20A 1_555 1_555
C21A C20A 1_555 1_555
H24A C21A 1_555 1_555
C22A N5A 1_555 1_555
C23A C22A 1_555 1_555
H25A C23A 1_555 1_555
C24A N4A 1_555 1_555
H26A C24A 1_555 1_555
C25A N5A 1_555 1_555
C26A C25A 1_555 1_555
H27A C26A 1_555 1_555
C27A N6A 1_555 1_555
H28A C27A 1_555 1_555
C28A N6A 1_555 1_555
H29A C28A 1_555 1_555
C29A C25A 1_555 1_555
H30A C29A 1_555 1_555
Cd2_2 O3A 1_555 1_555
O3A_2 Cd2 1_555 1_555
O4A_2 Cd2 1_555 1_555
C2 C3 1_555 1_555
C4 C5 1_555 1_555
C7 C8 1_555 1_555
C9 C10 1_555 1_555
C15 C16 1_555 1_555
C15 C19 1_555 1_555
C21 C22 1_555 1_555
C23 C24 1_555 1_555
C26 C27 1_555 1_555
C28 C29 1_555 1_555
O2A C11A 1_555 1_555
O4A Cd2_2 1_555 1_555
C2A C3A 1_555 1_555
C4A C5A 1_555 1_555
C7A C8A 1_555 1_555
C9A C10A 1_555 1_555
C15A C16A 1_555 1_555
C21A C22A 1_555 1_555
C23A C24A 1_555 1_555
C26A C27A 1_555 1_555
C28A C29A 1_555 1_555

#END
