
#######################################################################
#
#                 Cambridge Crystallographic Data Centre
#                                CCDC 
#
#######################################################################
#
# If this CIF has been generated from an entry in the Cambridge 
# Structural Database, then it will include bibliographic, chemical, 
# crystal, experimental, refinement or atomic coordinate data resulting 
# from the CCDC's data processing and validation procedures.
#
#######################################################################

data_LIDHEN
_symmetry_cell_setting           orthorhombic
_symmetry_space_group_name_H-M   'P 21 21 2'
_symmetry_Int_Tables_number      18
_space_group_name_Hall           'P 2 2ab'
loop_
_symmetry_equiv_pos_site_id
_symmetry_equiv_pos_as_xyz
1 x,y,z
2 -x,-y,z
3 1/2-x,1/2+y,-z
4 1/2+x,1/2-y,-z
_cell_length_a                   19.261(2)
_cell_length_b                   34.341(4)
_cell_length_c                   13.6935(15)
_cell_angle_alpha                90
_cell_angle_beta                 90
_cell_angle_gamma                90
_cell_volume                     9057.46
loop_
_atom_site_label
_atom_site_type_symbol
_atom_site_fract_x
_atom_site_fract_y
_atom_site_fract_z
Ni1 Ni 0.5000 0.0000 -0.55575(8)
Ni2 Ni 0.80186(5) -0.24141(3) -0.97499(6)
Ni3 Ni -0.02169(5) 0.23614(3) 0.44957(6)
Ni4 Ni 0.24395(6) 0.01032(3) -0.01535(8)
Ni5 Ni 0.0000 0.0000 0.54671(8)
O1 O 0.0367(2) -0.03948(15) 0.4406(3)
O2 O 0.1052(3) 0.00087(17) 0.5186(3)
O3 O 0.4002(2) -0.01908(15) -0.5237(3)
O4 O 0.4896(3) -0.04191(13) -0.4424(3)
O5 O 0.2262(3) -0.00617(16) -0.1634(4)
O6 O 0.3076(3) -0.03273(16) -0.0747(4)
O7 O 0.0008(3) 0.28061(16) 0.5518(3)
O8 O 0.0803(3) 0.2431(2) 0.4816(4)
O9 O 0.6246(3) -0.27076(17) -0.4781(3)
O10 O 0.5487(3) -0.30040(16) -0.5655(3)
O11 O 0.2711(3) 0.00400(17) 0.1301(4)
O12 O 0.1906(3) -0.03406(14) 0.0707(3)
O13 O 0.7429(3) -0.28694(15) -0.9178(4)
O14 O 0.8183(3) -0.25575(15) -0.8255(4)
O15 O 0.2262(3) 0.2487(2) 0.8839(4)
O16 O 0.1409(3) 0.28430(15) 0.9356(5)
N1 N 0.3138(4) 0.05330(18) -0.0532(5)
N2 N 0.7266(3) -0.20269(18) -0.9404(5)
N3 N 0.5221(3) -0.04142(17) -0.6573(4)
N4 N 0.4664(4) 0.13427(17) -0.1330(5)
H1 H 0.5051 0.1327 -0.0990
N5 N 0.5592(4) -0.13252(19) -0.8553(5)
H2 H 0.5212 -0.1398 -0.8860
N6 N -0.1258(3) -0.19993(16) 0.9914(4)
N7 N 0.0095(3) -0.04207(19) 0.6495(4)
N8 N 0.0201(3) -0.1225(2) 0.8761(4)
H3 H 0.0604 -0.1231 0.9061
N9 N 0.1646(3) 0.04644(17) 0.0150(5)
N10 N -0.0056(3) 0.10495(18) 0.1381(4)
H4 H -0.0459 0.0980 0.1134
N11 N -0.0185(4) 0.19053(19) 0.3540(4)
N12 N 0.4750(4) 0.22276(18) -0.3416(4)
C1 C 0.6661(4) -0.2055(2) -0.9778(5)
H5 H 0.6599 -0.2242 -1.0281
C2 C 0.6178(4) -0.1541(2) -0.8789(5)
C3 C 0.2181(4) -0.0402(2) 0.2437(5)
C4 C 0.1577(4) -0.0411(2) 0.3958(5)
H6 H 0.1992 -0.0418 0.4398
C5 C 0.4131(4) 0.1077(2) -0.1094(6)
C6 C 0.1100(4) 0.0011(3) 0.2605(5)
H7 H 0.0824 -0.0216 0.2413
H8 H 0.1229 0.0159 0.2021
H9 H 0.0825 0.0176 0.3041
C7 C 0.4304(4) 0.0772(2) -0.0482(6)
H10 H 0.4766 0.0744 -0.0252
C8 C 0.6823(4) -0.1510(2) -0.8364(6)
H11 H 0.6909 -0.1322 -0.7869
C9 C 0.5502(4) -0.1013(2) -0.7914(5)
C10 C 0.6072(4) -0.1829(2) -0.9507(6)
H12 H 0.5629 -0.1871 -0.9794
C11 C 0.1732(4) -0.0769(2) 0.2475(5)
H13 H 0.1326 -0.0743 0.2037
H14 H 0.2004 -0.1000 0.2268
C12 C 0.2901(4) -0.0489(3) 0.2855(6)
H15 H 0.3124 -0.0693 0.2464
H16 H 0.2856 -0.0578 0.3532
H17 H 0.3185 -0.0253 0.2836
C13 C 0.4889(6) -0.0892(4) -0.7689(10)
H18 H 0.4504 -0.1023 -0.7970
C14 C 0.3452(5) 0.1095(2) -0.1417(7)
H19 H 0.3313 0.1296 -0.1850
C15 C 0.1745(4) -0.0122(2) 0.3124(6)
C16 C 0.6025(5) -0.0810(3) -0.7460(8)
H20 H 0.6496 -0.0875 -0.7581
C17 C 0.7355(4) -0.1762(2) -0.8678(6)
H21 H 0.7796 -0.1747 -0.8368
C18 C 0.5861(5) -0.0511(3) -0.6829(7)
H22 H 0.6233 -0.0365 -0.6558
C19 C 0.4758(5) -0.0588(4) -0.7074(10)
H23 H 0.4291 -0.0501 -0.7015
C20 C 0.1496(5) -0.0814(2) 0.3535(5)
H24 H 0.1007 -0.0901 0.3569
H25 H 0.1791 -0.1003 0.3887
C21 C 0.2146(6) 0.0237(3) 0.3460(9)
H26 H 0.2406 0.0346 0.2908
H27 H 0.2469 0.0164 0.3980
H28 H 0.1819 0.0433 0.3706
C22 C 0.3802(5) 0.0509(2) -0.0207(6)
H29 H 0.3924 0.0304 0.0225
C23 C 0.2986(5) 0.0825(2) -0.1116(6)
H30 H 0.2521 0.0848 -0.1341
C24 C 0.4635(5) 0.1633(2) -0.2063(6)
C25 C 0.4262(5) 0.1631(3) -0.2838(6)
H31 H 0.3964 0.1417 -0.2967
C26 C 0.3708(5) -0.0367(3) -0.2854(6)
C27 C 0.3781(4) -0.0605(3) -0.3804(5)
C28 C 0.3015(6) -0.0646(4) -0.4204(6)
H32 H 0.2931 -0.0911 -0.4460
H33 H 0.2926 -0.0455 -0.4730
C29 C 0.2520(6) -0.0558(4) -0.3255(9)
H34 H 0.2256 -0.0314 -0.3340
H35 H 0.2191 -0.0775 -0.3139
C30 C 0.3048(5) -0.0524(2) -0.2418(5)
H36 H 0.3145 -0.0792 -0.2172
C31 C 0.4322(6) -0.0483(4) -0.2152(7)
H37 H 0.4173 -0.0695 -0.1721
H38 H 0.4455 -0.0257 -0.1757
H39 H 0.4721 -0.0569 -0.2540
C32 C 0.3718(5) 0.0054(2) -0.2989(6)
H40 H 0.3333 0.0131 -0.3416
H41 H 0.4159 0.0131 -0.3288
H42 H 0.3668 0.0183 -0.2354
C33 C 0.4247(4) -0.0393(2) -0.4525(5)
C34 C -0.1453(5) -0.1704(2) 0.9307(5)
H43 H -0.1934 -0.1673 0.9171
C35 C -0.1001(4) -0.1452(2) 0.8887(5)
H44 H -0.1158 -0.1256 0.8452
C36 C -0.0589(4) -0.2026(2) 1.0108(6)
H45 H -0.0441 -0.2226 1.0540
C37 C -0.0093(4) -0.1783(2) 0.9723(5)
H46 H 0.0385 -0.1815 0.9875
C38 C 0.0539(4) -0.0386(2) 0.7268(5)
H47 H 0.0831 -0.0163 0.7292
C39 C 0.0589(4) -0.0643(2) 0.7986(5)
H48 H 0.0928 -0.0611 0.8483
C40 C 0.0137(4) -0.0961(2) 0.8005(5)
C41 C -0.0261(5) -0.1032(2) 0.7201(5)
H49 H -0.0517 -0.1268 0.7149
C42 C -0.0289(5) -0.0763(2) 0.6476(5)
H50 H -0.0583 -0.0811 0.5932
C43 C -0.0314(4) -0.1491(2) 0.9110(5)
C44 C 0.0971(5) 0.0380(2) -0.0098(6)
H51 H 0.0883 0.0185 -0.0574
C45 C 0.0427(4) 0.0568(2) 0.0323(5)
H52 H -0.0030 0.0490 0.0155
C46 C 0.0511(4) 0.0873(2) 0.0996(5)
C47 C 0.1202(4) 0.09658(19) 0.1221(5)
H53 H 0.1300 0.1170 0.1669
C48 C 0.1738(4) 0.0762(2) 0.0793(6)
H54 H 0.2200 0.0833 0.0958
C49 C -0.0078(4) 0.1323(2) 0.2111(5)
C50 C 0.0359(4) 0.1329(2) 0.2920(5)
H55 H 0.0705 0.1135 0.3005
C51 C 0.0281(5) 0.1616(2) 0.3578(5)
H56 H 0.0585 0.1613 0.4124
C52 C -0.0624(4) 0.1875(3) 0.2807(5)
H57 H -0.0991 0.2060 0.2777
C53 C -0.0597(4) 0.1604(2) 0.2097(5)
H58 H -0.0932 0.1605 0.1587
C54 C 0.0972(4) -0.0264(2) 0.4563(5)
C55 C 0.4292(6) 0.1939(3) -0.3490(6)
H59 H 0.3970 0.1945 -0.4015
C56 C 0.5148(4) 0.2219(2) -0.2638(5)
H60 H 0.5468 0.2427 -0.2550
C57 C 0.5133(4) 0.1934(2) -0.1950(5)
H61 H 0.5445 0.1937 -0.1413
C58 C 0.2764(5) -0.0293(2) -0.1590(6)
C59 C 0.0822(5) 0.2416(3) 0.7352(6)
H62 H 0.0490 0.2619 0.7537
H63 H 0.0962 0.2270 0.7935
H64 H 0.0603 0.2238 0.6884
C60 C 0.1398(7) 0.2584(3) 0.6929(7)
C61 C 0.1900(10) 0.2231(5) 0.6587(12)
H65 H 0.2283 0.2336 0.6196
H66 H 0.1633 0.2045 0.6195
H67 H 0.2087 0.2099 0.7165
C62 C 0.2414(11) 0.2982(4) 0.7241(9)
H68 H 0.2362 0.3039 0.6543
H69 H 0.2735 0.2763 0.7325
H70 H 0.2599 0.3212 0.7576
C63 C 0.1768(6) 0.2886(3) 0.7635(8)
C64 C 0.1338(7) 0.3219(3) 0.7502(7)
H71 H 0.1597 0.3455 0.7698
H72 H 0.0925 0.3197 0.7929
C65 C 0.1079(11) 0.3265(5) 0.6338(7)
H73 H 0.0583 0.3338 0.6282
H74 H 0.1370 0.3450 0.5964
C66 C 0.0653(5) 0.2706(3) 0.5442(6)
C67 C 0.1204(7) 0.2874(4) 0.6081(8)
H75 H 0.1627 0.2883 0.5659
C68 C 0.6105(4) -0.2938(2) -0.5481(5)
C69 C 0.6671(5) -0.3124(3) -0.6147(6)
C70 C 0.7694(4) -0.2817(2) -0.8341(5)
C71 C 0.7471(4) -0.3042(2) -0.7478(5)
H76 H 0.7397 -0.3313 -0.7724
C72 C 0.6633(7) -0.2513(3) -0.7091(10)
H77 H 0.6713 -0.2405 -0.7744
H78 H 0.6947 -0.2388 -0.6624
H79 H 0.6151 -0.2465 -0.6896
C73 C 0.6118(9) -0.3089(6) -0.7869(9)
H80 H 0.6136 -0.3374 -0.7874
H81 H 0.6193 -0.2990 -0.8533
H82 H 0.5662 -0.3003 -0.7635
C74 C 0.6757(9) -0.2910(5) -0.7104(10)
C75 C 0.2256(4) -0.0232(2) 0.1430(6)
C76 C 0.1801(5) 0.2734(3) 0.8643(7)
C77 C 0.4063(9) -0.1016(3) -0.3642(10)
H83 H 0.4212 -0.1126 -0.4268
H84 H 0.3697 -0.1180 -0.3361
H85 H 0.4459 -0.1005 -0.3193
C78 C 0.7942(8) -0.3083(4) -0.6651(11)
H86 H 0.8250 -0.2854 -0.6587
H87 H 0.8227 -0.3322 -0.6706
C79 C 0.7384(8) -0.3112(6) -0.5724(9)
H88 H 0.7473 -0.3350 -0.5336
H89 H 0.7435 -0.2883 -0.5291
C80 C 0.6507(11) -0.3538(4) -0.6384(14)
H90 H 0.6039 -0.3554 -0.6662
H91 H 0.6530 -0.3695 -0.5787
H92 H 0.6845 -0.3636 -0.6859
Ni3A Ni 0.02169(5) -0.23614(3) 0.44957(6)
Ni4A Ni -0.24395(6) -0.01032(3) -0.01535(8)
O1A O -0.0367(2) 0.03948(15) 0.4406(3)
O2A O -0.1052(3) -0.00087(17) 0.5186(3)
O3A O -0.4002(2) 0.01908(15) -0.5237(3)
O4A O -0.4896(3) 0.04191(13) -0.4424(3)
O5A O -0.2262(3) 0.00617(16) -0.1634(4)
O6A O -0.3076(3) 0.03273(16) -0.0747(4)
O7A O -0.0008(3) -0.28061(16) 0.5518(3)
O8A O -0.0803(3) -0.2431(2) 0.4816(4)
O11A O -0.2711(3) -0.00400(17) 0.1301(4)
O12A O -0.1906(3) 0.03406(14) 0.0707(3)
O15A O -0.2262(3) -0.2487(2) 0.8839(4)
O16A O -0.1409(3) -0.28430(15) 0.9356(5)
N1A N -0.3138(4) -0.05330(18) -0.0532(5)
N4A N -0.4664(4) -0.13427(17) -0.1330(5)
H1A H -0.5051 -0.1327 -0.0990
N6A N 0.1258(3) 0.19993(16) 0.9914(4)
N7A N -0.0095(3) 0.04207(19) 0.6495(4)
N8A N -0.0201(3) 0.1225(2) 0.8761(4)
H3A H -0.0604 0.1231 0.9061
N9A N -0.1646(3) -0.04644(17) 0.0150(5)
N10A N 0.0056(3) -0.10495(18) 0.1381(4)
H4A H 0.0459 -0.0980 0.1134
N11A N 0.0185(4) -0.19053(19) 0.3540(4)
N12A N -0.4750(4) -0.22276(18) -0.3416(4)
C3A C -0.2181(4) 0.0402(2) 0.2437(5)
C4A C -0.1577(4) 0.0411(2) 0.3958(5)
H6A H -0.1992 0.0418 0.4398
C5A C -0.4131(4) -0.1077(2) -0.1094(6)
C6A C -0.1100(4) -0.0011(3) 0.2605(5)
H7A H -0.0824 0.0216 0.2413
H8A H -0.1229 -0.0159 0.2021
H9A H -0.0825 -0.0176 0.3041
C7A C -0.4304(4) -0.0772(2) -0.0482(6)
H10A H -0.4766 -0.0744 -0.0252
C11A C -0.1732(4) 0.0769(2) 0.2475(5)
H13A H -0.1326 0.0743 0.2037
H14A H -0.2004 0.1000 0.2268
C12A C -0.2901(4) 0.0489(3) 0.2855(6)
H15A H -0.3124 0.0693 0.2464
H16A H -0.2856 0.0578 0.3532
H17A H -0.3185 0.0253 0.2836
C14A C -0.3452(5) -0.1095(2) -0.1417(7)
H19A H -0.3313 -0.1296 -0.1850
C15A C -0.1745(4) 0.0122(2) 0.3124(6)
C20A C -0.1496(5) 0.0814(2) 0.3535(5)
H24A H -0.1007 0.0901 0.3569
H25A H -0.1791 0.1003 0.3887
C21A C -0.2146(6) -0.0237(3) 0.3460(9)
H26A H -0.2406 -0.0346 0.2908
H27A H -0.2469 -0.0164 0.3980
H28A H -0.1819 -0.0433 0.3706
C22A C -0.3802(5) -0.0509(2) -0.0207(6)
H29A H -0.3924 -0.0304 0.0225
C23A C -0.2986(5) -0.0825(2) -0.1116(6)
H30A H -0.2521 -0.0848 -0.1341
C24A C -0.4635(5) -0.1633(2) -0.2063(6)
C25A C -0.4262(5) -0.1631(3) -0.2838(6)
H31A H -0.3964 -0.1417 -0.2967
C26A C -0.3708(5) 0.0367(3) -0.2854(6)
C27A C -0.3781(4) 0.0605(3) -0.3804(5)
C28A C -0.3015(6) 0.0646(4) -0.4204(6)
H32A H -0.2931 0.0911 -0.4460
H33A H -0.2926 0.0455 -0.4730
C29A C -0.2520(6) 0.0558(4) -0.3255(9)
H34A H -0.2256 0.0314 -0.3340
H35A H -0.2191 0.0775 -0.3139
C30A C -0.3048(5) 0.0524(2) -0.2418(5)
H36A H -0.3145 0.0792 -0.2172
C31A C -0.4322(6) 0.0483(4) -0.2152(7)
H37A H -0.4173 0.0695 -0.1721
H38A H -0.4455 0.0257 -0.1757
H39A H -0.4721 0.0569 -0.2540
C32A C -0.3718(5) -0.0054(2) -0.2989(6)
H40A H -0.3333 -0.0131 -0.3416
H41A H -0.4159 -0.0131 -0.3288
H42A H -0.3668 -0.0183 -0.2354
C33A C -0.4247(4) 0.0393(2) -0.4525(5)
C34A C 0.1453(5) 0.1704(2) 0.9307(5)
H43A H 0.1934 0.1673 0.9171
C35A C 0.1001(4) 0.1452(2) 0.8887(5)
H44A H 0.1158 0.1256 0.8452
C36A C 0.0589(4) 0.2026(2) 1.0108(6)
H45A H 0.0441 0.2226 1.0540
C37A C 0.0093(4) 0.1783(2) 0.9723(5)
H46A H -0.0385 0.1815 0.9875
C38A C -0.0539(4) 0.0386(2) 0.7268(5)
H47A H -0.0831 0.0163 0.7292
C39A C -0.0589(4) 0.0643(2) 0.7986(5)
H48A H -0.0928 0.0611 0.8483
C40A C -0.0137(4) 0.0961(2) 0.8005(5)
C41A C 0.0261(5) 0.1032(2) 0.7201(5)
H49A H 0.0517 0.1268 0.7149
C42A C 0.0289(5) 0.0763(2) 0.6476(5)
H50A H 0.0583 0.0811 0.5932
C43A C 0.0314(4) 0.1491(2) 0.9110(5)
C44A C -0.0971(5) -0.0380(2) -0.0098(6)
H51A H -0.0883 -0.0185 -0.0574
C45A C -0.0427(4) -0.0568(2) 0.0323(5)
H52A H 0.0030 -0.0490 0.0155
C46A C -0.0511(4) -0.0873(2) 0.0996(5)
C47A C -0.1202(4) -0.09658(19) 0.1221(5)
H53A H -0.1300 -0.1170 0.1669
C48A C -0.1738(4) -0.0762(2) 0.0793(6)
H54A H -0.2200 -0.0833 0.0958
C49A C 0.0078(4) -0.1323(2) 0.2111(5)
C50A C -0.0359(4) -0.1329(2) 0.2920(5)
H55A H -0.0705 -0.1135 0.3005
C51A C -0.0281(5) -0.1616(2) 0.3578(5)
H56A H -0.0585 -0.1613 0.4124
C52A C 0.0624(4) -0.1875(3) 0.2807(5)
H57A H 0.0991 -0.2060 0.2777
C53A C 0.0597(4) -0.1604(2) 0.2097(5)
H58A H 0.0932 -0.1605 0.1587
C54A C -0.0972(4) 0.0264(2) 0.4563(5)
C55A C -0.4292(6) -0.1939(3) -0.3490(6)
H59A H -0.3970 -0.1945 -0.4015
C56A C -0.5148(4) -0.2219(2) -0.2638(5)
H60A H -0.5468 -0.2427 -0.2550
C57A C -0.5133(4) -0.1934(2) -0.1950(5)
H61A H -0.5445 -0.1937 -0.1413
C58A C -0.2764(5) 0.0293(2) -0.1590(6)
C59A C -0.0822(5) -0.2416(3) 0.7352(6)
H62A H -0.0490 -0.2619 0.7537
H63A H -0.0962 -0.2270 0.7935
H64A H -0.0603 -0.2238 0.6884
C60A C -0.1398(7) -0.2584(3) 0.6929(7)
C61A C -0.1900(10) -0.2231(5) 0.6587(12)
H65A H -0.2283 -0.2336 0.6196
H66A H -0.1633 -0.2045 0.6195
H67A H -0.2087 -0.2099 0.7165
C62A C -0.2414(11) -0.2982(4) 0.7241(9)
H68A H -0.2362 -0.3039 0.6543
H69A H -0.2735 -0.2763 0.7325
H70A H -0.2599 -0.3212 0.7576
C63A C -0.1768(6) -0.2886(3) 0.7635(8)
C64A C -0.1338(7) -0.3219(3) 0.7502(7)
H71A H -0.1597 -0.3455 0.7698
H72A H -0.0925 -0.3197 0.7929
C65A C -0.1079(11) -0.3265(5) 0.6338(7)
H73A H -0.0583 -0.3338 0.6282
H74A H -0.1370 -0.3450 0.5964
C66A C -0.0653(5) -0.2706(3) 0.5442(6)
C67A C -0.1204(7) -0.2874(4) 0.6081(8)
H75A H -0.1627 -0.2883 0.5659
C75A C -0.2256(4) 0.0232(2) 0.1430(6)
C76A C -0.1801(5) -0.2734(3) 0.8643(7)
C77A C -0.4063(9) 0.1016(3) -0.3642(10)
H83A H -0.4212 0.1126 -0.4268
H84A H -0.3697 0.1180 -0.3361
H85A H -0.4459 0.1005 -0.3193
Ni2A Ni 0.19814(5) 0.24141(3) -0.97499(6)
O9A O 0.3754(3) 0.27076(17) -0.4781(3)
O10A O 0.4513(3) 0.30040(16) -0.5655(3)
O13A O 0.2571(3) 0.28694(15) -0.9178(4)
O14A O 0.1817(3) 0.25575(15) -0.8255(4)
N2A N 0.2734(3) 0.20269(18) -0.9404(5)
N3A N 0.4779(3) 0.04142(17) -0.6573(4)
N5A N 0.4408(4) 0.13252(19) -0.8553(5)
H2A H 0.4788 0.1398 -0.8860
C1A C 0.3339(4) 0.2055(2) -0.9778(5)
H5A H 0.3401 0.2242 -1.0281
C2A C 0.3822(4) 0.1541(2) -0.8789(5)
C8A C 0.3177(4) 0.1510(2) -0.8364(6)
H11A H 0.3091 0.1322 -0.7869
C9A C 0.4498(4) 0.1013(2) -0.7914(5)
C10A C 0.3928(4) 0.1829(2) -0.9507(6)
H12A H 0.4371 0.1871 -0.9794
C13A C 0.5111(6) 0.0892(4) -0.7689(10)
H18A H 0.5496 0.1023 -0.7970
C16A C 0.3975(5) 0.0810(3) -0.7460(8)
H20A H 0.3504 0.0875 -0.7581
C17A C 0.2645(4) 0.1762(2) -0.8678(6)
H21A H 0.2204 0.1747 -0.8368
C18A C 0.4139(5) 0.0511(3) -0.6829(7)
H22A H 0.3767 0.0365 -0.6558
C19A C 0.5242(5) 0.0588(4) -0.7074(10)
H23A H 0.5709 0.0501 -0.7015
C68A C 0.3895(4) 0.2938(2) -0.5481(5)
C69A C 0.3329(5) 0.3124(3) -0.6147(6)
C70A C 0.2306(4) 0.2817(2) -0.8341(5)
C71A C 0.2529(4) 0.3042(2) -0.7478(5)
H76A H 0.2603 0.3313 -0.7724
C72A C 0.3367(7) 0.2513(3) -0.7091(10)
H77A H 0.3287 0.2405 -0.7744
H78A H 0.3053 0.2388 -0.6624
H79A H 0.3849 0.2465 -0.6896
C73A C 0.3882(9) 0.3089(6) -0.7869(9)
H80A H 0.3864 0.3374 -0.7874
H81A H 0.3807 0.2990 -0.8533
H82A H 0.4338 0.3003 -0.7635
C74A C 0.3243(9) 0.2910(5) -0.7104(10)
C78A C 0.2058(8) 0.3083(4) -0.6651(11)
H86A H 0.1750 0.2854 -0.6587
H87A H 0.1773 0.3322 -0.6706
C79A C 0.2616(8) 0.3112(6) -0.5724(9)
H88A H 0.2527 0.3350 -0.5336
H89A H 0.2565 0.2883 -0.5291
C80A C 0.3493(11) 0.3538(4) -0.6384(14)
H90A H 0.3961 0.3554 -0.6662
H91A H 0.3470 0.3695 -0.5787
H92A H 0.3155 0.3636 -0.6859
Ni1_2 Ni -0.5000 0.0000 -0.55575(8)
Ni2_2 Ni -0.19814(5) -0.24141(3) 1.02501(6)
Ni2A_2 Ni 0.19814(5) 0.24141(3) 1.02501(6)
Ni3B Ni -0.47831(5) -0.26386(3) -0.44957(6)
Ni3B_2 Ni 0.52169(5) -0.26386(3) -0.44957(6)
Ni3C Ni 0.47831(5) 0.26386(3) -0.44957(6)
O3A_2 O 0.5998(2) 0.01908(15) -0.5237(3)
O4A_2 O 0.5104(3) 0.04191(13) -0.4424(3)
O9B O -0.1246(3) 0.22924(17) 0.4781(3)
O9C O 0.1246(3) -0.22924(17) 0.4781(3)
O10B O -0.0487(3) 0.19960(16) 0.5655(3)
O10C O 0.0487(3) -0.19960(16) 0.5655(3)
O15_2 O 0.2262(3) 0.2487(2) -1.1161(4)
O15A_2 O 0.7738(3) -0.2487(2) -1.1161(4)
O16_2 O 0.1409(3) 0.28430(15) -1.0644(5)
O16A_2 O 0.8591(3) -0.28430(15) -1.0644(5)
N6_2 N 0.8742(3) -0.19993(16) -1.0086(4)
N6A_2 N 0.1258(3) 0.19993(16) -1.0086(4)
N12B N 0.0250(4) -0.27724(18) 0.3416(4)
N12C N -0.0250(4) 0.27724(18) 0.3416(4)
loop_
_geom_bond_atom_site_label_1
_geom_bond_atom_site_label_2
_geom_bond_site_symmetry_1
_geom_bond_site_symmetry_2
Ni1 O3 1_555 1_555
Ni2 O13 1_555 1_555
Ni3 O7 1_555 1_555
Ni4 O5 1_555 1_555
Ni5 O1 1_555 1_555
O1 C54 1_555 1_555
O2 Ni5 1_555 1_555
O3 C33 1_555 1_555
O4 Ni1 1_555 1_555
O5 C58 1_555 1_555
O6 Ni4 1_555 1_555
O7 C66 1_555 1_555
O8 Ni3 1_555 1_555
O9 C68 1_555 1_555
O10 C68 1_555 1_555
O11 Ni4 1_555 1_555
O12 Ni4 1_555 1_555
O13 C70 1_555 1_555
O14 Ni2 1_555 1_555
O15 C76 1_555 1_555
O16 C76 1_555 1_555
N1 Ni4 1_555 1_555
N2 Ni2 1_555 1_555
N3 Ni1 1_555 1_555
N4 H1 1_555 1_555
N5 H2 1_555 1_555
N6 C34 1_555 1_555
N7 Ni5 1_555 1_555
N8 H3 1_555 1_555
N9 Ni4 1_555 1_555
N10 H4 1_555 1_555
N11 Ni3 1_555 1_555
N12 C55 1_555 1_555
C1 N2 1_555 1_555
H5 C1 1_555 1_555
C2 N5 1_555 1_555
C3 C11 1_555 1_555
C4 H6 1_555 1_555
C5 N4 1_555 1_555
C6 H7 1_555 1_555
H8 C6 1_555 1_555
H9 C6 1_555 1_555
C7 C5 1_555 1_555
H10 C7 1_555 1_555
C8 C2 1_555 1_555
H11 C8 1_555 1_555
C9 N5 1_555 1_555
C10 C1 1_555 1_555
H12 C10 1_555 1_555
C11 H13 1_555 1_555
H14 C11 1_555 1_555
C12 C3 1_555 1_555
H15 C12 1_555 1_555
H16 C12 1_555 1_555
H17 C12 1_555 1_555
C13 C9 1_555 1_555
H18 C13 1_555 1_555
C14 C5 1_555 1_555
H19 C14 1_555 1_555
C15 C3 1_555 1_555
C16 C9 1_555 1_555
H20 C16 1_555 1_555
C17 N2 1_555 1_555
H21 C17 1_555 1_555
C18 N3 1_555 1_555
H22 C18 1_555 1_555
C19 N3 1_555 1_555
H23 C19 1_555 1_555
C20 C4 1_555 1_555
H24 C20 1_555 1_555
H25 C20 1_555 1_555
C21 C15 1_555 1_555
H26 C21 1_555 1_555
H27 C21 1_555 1_555
H28 C21 1_555 1_555
C22 N1 1_555 1_555
H29 C22 1_555 1_555
C23 N1 1_555 1_555
H30 C23 1_555 1_555
C24 N4 1_555 1_555
C25 C24 1_555 1_555
H31 C25 1_555 1_555
C26 C27 1_555 1_555
C27 C28 1_555 1_555
C28 H32 1_555 1_555
H33 C28 1_555 1_555
C29 C28 1_555 1_555
H34 C29 1_555 1_555
H35 C29 1_555 1_555
C30 C26 1_555 1_555
H36 C30 1_555 1_555
C31 C26 1_555 1_555
H37 C31 1_555 1_555
H38 C31 1_555 1_555
H39 C31 1_555 1_555
C32 C26 1_555 1_555
H40 C32 1_555 1_555
H41 C32 1_555 1_555
H42 C32 1_555 1_555
C33 O4 1_555 1_555
C34 H43 1_555 1_555
C35 C34 1_555 1_555
H44 C35 1_555 1_555
C36 N6 1_555 1_555
H45 C36 1_555 1_555
C37 C36 1_555 1_555
H46 C37 1_555 1_555
C38 N7 1_555 1_555
H47 C38 1_555 1_555
C39 C38 1_555 1_555
H48 C39 1_555 1_555
C40 N8 1_555 1_555
C41 C40 1_555 1_555
H49 C41 1_555 1_555
C42 N7 1_555 1_555
H50 C42 1_555 1_555
C43 N8 1_555 1_555
C44 N9 1_555 1_555
H51 C44 1_555 1_555
C45 C44 1_555 1_555
H52 C45 1_555 1_555
C46 N10 1_555 1_555
C47 C46 1_555 1_555
H53 C47 1_555 1_555
C48 N9 1_555 1_555
H54 C48 1_555 1_555
C49 N10 1_555 1_555
C50 C49 1_555 1_555
H55 C50 1_555 1_555
C51 N11 1_555 1_555
H56 C51 1_555 1_555
C52 N11 1_555 1_555
H57 C52 1_555 1_555
C53 C49 1_555 1_555
H58 C53 1_555 1_555
C54 O2 1_555 1_555
C55 C25 1_555 1_555
H59 C55 1_555 1_555
C56 N12 1_555 1_555
H60 C56 1_555 1_555
C57 C24 1_555 1_555
H61 C57 1_555 1_555
C58 O6 1_555 1_555
C59 H62 1_555 1_555
H63 C59 1_555 1_555
H64 C59 1_555 1_555
C60 C59 1_555 1_555
C61 C60 1_555 1_555
H65 C61 1_555 1_555
H66 C61 1_555 1_555
H67 C61 1_555 1_555
C62 H68 1_555 1_555
H69 C62 1_555 1_555
H70 C62 1_555 1_555
C63 C60 1_555 1_555
C64 C63 1_555 1_555
H71 C64 1_555 1_555
H72 C64 1_555 1_555
C65 C64 1_555 1_555
H73 C65 1_555 1_555
H74 C65 1_555 1_555
C66 O8 1_555 1_555
C67 C60 1_555 1_555
H75 C67 1_555 1_555
C68 C69 1_555 1_555
C69 C74 1_555 1_555
C70 O14 1_555 1_555
C71 C70 1_555 1_555
H76 C71 1_555 1_555
C72 H77 1_555 1_555
H78 C72 1_555 1_555
H79 C72 1_555 1_555
C73 H80 1_555 1_555
H81 C73 1_555 1_555
H82 C73 1_555 1_555
C74 C71 1_555 1_555
C75 O11 1_555 1_555
C76 C63 1_555 1_555
C77 C27 1_555 1_555
H83 C77 1_555 1_555
H84 C77 1_555 1_555
H85 C77 1_555 1_555
C78 C71 1_555 1_555
H86 C78 1_555 1_555
H87 C78 1_555 1_555
C79 C69 1_555 1_555
H88 C79 1_555 1_555
H89 C79 1_555 1_555
C80 C69 1_555 1_555
H90 C80 1_555 1_555
H91 C80 1_555 1_555
H92 C80 1_555 1_555
Ni3A O7A 1_555 1_555
Ni4A O5A 1_555 1_555
O1A Ni5 1_555 1_555
O2A Ni5 1_555 1_555
O3A C33A 1_555 1_555
O4A C33A 1_555 1_555
O5A C58A 1_555 1_555
O6A Ni4A 1_555 1_555
O7A C66A 1_555 1_555
O8A Ni3A 1_555 1_555
O11A Ni4A 1_555 1_555
O12A Ni4A 1_555 1_555
O15A C76A 1_555 1_555
O16A C76A 1_555 1_555
N1A Ni4A 1_555 1_555
N4A H1A 1_555 1_555
N6A C34A 1_555 1_555
N7A Ni5 1_555 1_555
N8A H3A 1_555 1_555
N9A Ni4A 1_555 1_555
N10A H4A 1_555 1_555
N11A Ni3A 1_555 1_555
N12A C55A 1_555 1_555
C3A C11A 1_555 1_555
C4A H6A 1_555 1_555
C5A N4A 1_555 1_555
C6A H7A 1_555 1_555
H8A C6A 1_555 1_555
H9A C6A 1_555 1_555
C7A C5A 1_555 1_555
H10A C7A 1_555 1_555
C11A H13A 1_555 1_555
H14A C11A 1_555 1_555
C12A C3A 1_555 1_555
H15A C12A 1_555 1_555
H16A C12A 1_555 1_555
H17A C12A 1_555 1_555
C14A C5A 1_555 1_555
H19A C14A 1_555 1_555
C15A C3A 1_555 1_555
C20A C4A 1_555 1_555
H24A C20A 1_555 1_555
H25A C20A 1_555 1_555
C21A C15A 1_555 1_555
H26A C21A 1_555 1_555
H27A C21A 1_555 1_555
H28A C21A 1_555 1_555
C22A N1A 1_555 1_555
H29A C22A 1_555 1_555
C23A N1A 1_555 1_555
H30A C23A 1_555 1_555
C24A N4A 1_555 1_555
C25A C24A 1_555 1_555
H31A C25A 1_555 1_555
C26A C27A 1_555 1_555
C27A C28A 1_555 1_555
C28A H32A 1_555 1_555
H33A C28A 1_555 1_555
C29A C28A 1_555 1_555
H34A C29A 1_555 1_555
H35A C29A 1_555 1_555
C30A C26A 1_555 1_555
H36A C30A 1_555 1_555
C31A C26A 1_555 1_555
H37A C31A 1_555 1_555
H38A C31A 1_555 1_555
H39A C31A 1_555 1_555
C32A C26A 1_555 1_555
H40A C32A 1_555 1_555
H41A C32A 1_555 1_555
H42A C32A 1_555 1_555
C33A C27A 1_555 1_555
C34A H43A 1_555 1_555
C35A C34A 1_555 1_555
H44A C35A 1_555 1_555
C36A N6A 1_555 1_555
H45A C36A 1_555 1_555
C37A C36A 1_555 1_555
H46A C37A 1_555 1_555
C38A N7A 1_555 1_555
H47A C38A 1_555 1_555
C39A C38A 1_555 1_555
H48A C39A 1_555 1_555
C40A N8A 1_555 1_555
C41A C40A 1_555 1_555
H49A C41A 1_555 1_555
C42A N7A 1_555 1_555
H50A C42A 1_555 1_555
C43A N8A 1_555 1_555
C44A N9A 1_555 1_555
H51A C44A 1_555 1_555
C45A C44A 1_555 1_555
H52A C45A 1_555 1_555
C46A N10A 1_555 1_555
C47A C46A 1_555 1_555
H53A C47A 1_555 1_555
C48A N9A 1_555 1_555
H54A C48A 1_555 1_555
C49A N10A 1_555 1_555
C50A C49A 1_555 1_555
H55A C50A 1_555 1_555
C51A N11A 1_555 1_555
H56A C51A 1_555 1_555
C52A N11A 1_555 1_555
H57A C52A 1_555 1_555
C53A C49A 1_555 1_555
H58A C53A 1_555 1_555
C54A O1A 1_555 1_555
C55A C25A 1_555 1_555
H59A C55A 1_555 1_555
C56A N12A 1_555 1_555
H60A C56A 1_555 1_555
C57A C24A 1_555 1_555
H61A C57A 1_555 1_555
C58A O6A 1_555 1_555
C59A H62A 1_555 1_555
H63A C59A 1_555 1_555
H64A C59A 1_555 1_555
C60A C59A 1_555 1_555
C61A C60A 1_555 1_555
H65A C61A 1_555 1_555
H66A C61A 1_555 1_555
H67A C61A 1_555 1_555
C62A H68A 1_555 1_555
H69A C62A 1_555 1_555
H70A C62A 1_555 1_555
C63A C60A 1_555 1_555
C64A C63A 1_555 1_555
H71A C64A 1_555 1_555
H72A C64A 1_555 1_555
C65A C64A 1_555 1_555
H73A C65A 1_555 1_555
H74A C65A 1_555 1_555
C66A O8A 1_555 1_555
C67A C60A 1_555 1_555
H75A C67A 1_555 1_555
C75A O11A 1_555 1_555
C76A C63A 1_555 1_555
C77A C27A 1_555 1_555
H83A C77A 1_555 1_555
H84A C77A 1_555 1_555
H85A C77A 1_555 1_555
Ni2A O13A 1_555 1_555
O9A C68A 1_555 1_555
O10A C68A 1_555 1_555
O13A C70A 1_555 1_555
O14A Ni2A 1_555 1_555
N2A Ni2A 1_555 1_555
N3A Ni1 1_555 1_555
N5A H2A 1_555 1_555
C1A N2A 1_555 1_555
H5A C1A 1_555 1_555
C2A N5A 1_555 1_555
C8A C2A 1_555 1_555
H11A C8A 1_555 1_555
C9A N5A 1_555 1_555
C10A C1A 1_555 1_555
H12A C10A 1_555 1_555
C13A C9A 1_555 1_555
H18A C13A 1_555 1_555
C16A C9A 1_555 1_555
H20A C16A 1_555 1_555
C17A N2A 1_555 1_555
H21A C17A 1_555 1_555
C18A N3A 1_555 1_555
H22A C18A 1_555 1_555
C19A N3A 1_555 1_555
H23A C19A 1_555 1_555
C68A C69A 1_555 1_555
C69A C74A 1_555 1_555
C70A O14A 1_555 1_555
C71A C70A 1_555 1_555
H76A C71A 1_555 1_555
C72A H77A 1_555 1_555
H78A C72A 1_555 1_555
H79A C72A 1_555 1_555
C73A H80A 1_555 1_555
H81A C73A 1_555 1_555
H82A C73A 1_555 1_555
C74A C71A 1_555 1_555
C78A C71A 1_555 1_555
H86A C78A 1_555 1_555
H87A C78A 1_555 1_555
C79A C69A 1_555 1_555
H88A C79A 1_555 1_555
H89A C79A 1_555 1_555
C80A C69A 1_555 1_555
H90A C80A 1_555 1_555
H91A C80A 1_555 1_555
H92A C80A 1_555 1_555
Ni1_2 O3A 1_555 1_555
Ni2_2 N6 1_555 1_555
Ni2A_2 O15 1_555 1_555
Ni3B N12A 1_555 1_555
Ni3B_2 O9 1_555 1_555
Ni3C N12 1_555 1_555
O3A_2 Ni1 1_555 1_555
O4A_2 Ni1 1_555 1_555
O9B Ni3 1_555 1_555
O9C Ni3A 1_555 1_555
O10B Ni3 1_555 1_555
O10C Ni3A 1_555 1_555
O15_2 Ni2A 1_555 1_555
O15A_2 Ni2 1_555 1_555
O16_2 Ni2A 1_555 1_555
O16A_2 Ni2 1_555 1_555
N6_2 Ni2 1_555 1_555
N6A_2 Ni2A 1_555 1_555
N12B Ni3A 1_555 1_555
N12C Ni3 1_555 1_555
O10 Ni3B_2 1_555 1_555
O12 C75 1_555 1_555
O16 Ni2A_2 1_555 1_555
C2 C10 1_555 1_555
C3 C75 1_555 1_555
C4 C15 1_555 1_555
C4 C54 1_555 1_555
C6 C15 1_555 1_555
C7 C22 1_555 1_555
C8 C17 1_555 1_555
C11 C20 1_555 1_555
C13 C19 1_555 1_555
C14 C23 1_555 1_555
C16 C18 1_555 1_555
C27 C33 1_555 1_555
C29 C30 1_555 1_555
C30 C58 1_555 1_555
C35 C43 1_555 1_555
C37 C43 1_555 1_555
C39 C40 1_555 1_555
C41 C42 1_555 1_555
C45 C46 1_555 1_555
C47 C48 1_555 1_555
C50 C51 1_555 1_555
C52 C53 1_555 1_555
C56 C57 1_555 1_555
C62 C63 1_555 1_555
C65 C67 1_555 1_555
C66 C67 1_555 1_555
C72 C74 1_555 1_555
C73 C74 1_555 1_555
C78 C79 1_555 1_555
O2A C54A 1_555 1_555
O4A Ni1_2 1_555 1_555
O12A C75A 1_555 1_555
O15A Ni2_2 1_555 1_555
O16A Ni2_2 1_555 1_555
N6A Ni2A_2 1_555 1_555
C3A C75A 1_555 1_555
C4A C15A 1_555 1_555
C4A C54A 1_555 1_555
C6A C15A 1_555 1_555
C7A C22A 1_555 1_555
C11A C20A 1_555 1_555
C14A C23A 1_555 1_555
C29A C30A 1_555 1_555
C30A C58A 1_555 1_555
C35A C43A 1_555 1_555
C37A C43A 1_555 1_555
C39A C40A 1_555 1_555
C41A C42A 1_555 1_555
C45A C46A 1_555 1_555
C47A C48A 1_555 1_555
C50A C51A 1_555 1_555
C52A C53A 1_555 1_555
C56A C57A 1_555 1_555
C62A C63A 1_555 1_555
C65A C67A 1_555 1_555
C66A C67A 1_555 1_555
O9A Ni3C 1_555 1_555
O10A Ni3C 1_555 1_555
C2A C10A 1_555 1_555
C8A C17A 1_555 1_555
C13A C19A 1_555 1_555
C16A C18A 1_555 1_555
C72A C74A 1_555 1_555
C73A C74A 1_555 1_555
C78A C79A 1_555 1_555

#END
