
#######################################################################
#
#                 Cambridge Crystallographic Data Centre
#                                CCDC 
#
#######################################################################
#
# If this CIF has been generated from an entry in the Cambridge 
# Structural Database, then it will include bibliographic, chemical, 
# crystal, experimental, refinement or atomic coordinate data resulting 
# from the CCDC's data processing and validation procedures.
#
#######################################################################

data_LIDHIR
_symmetry_cell_setting           monoclinic
_symmetry_space_group_name_H-M   'C 2'
_symmetry_Int_Tables_number      5
_space_group_name_Hall           'C 2y'
loop_
_symmetry_equiv_pos_site_id
_symmetry_equiv_pos_as_xyz
1 x,y,z
2 -x,y,-z
3 1/2+x,1/2+y,z
4 1/2-x,1/2+y,-z
_cell_length_a                   18.868(6)
_cell_length_b                   12.860(4)
_cell_length_c                   13.360(4)
_cell_angle_alpha                90
_cell_angle_beta                 106.562(6)
_cell_angle_gamma                90
_cell_volume                     3107.21
loop_
_atom_site_label
_atom_site_type_symbol
_atom_site_fract_x
_atom_site_fract_y
_atom_site_fract_z
Cu1 Cu 0.82047(10) 0.50596(10) 0.26586(15)
Cu2 Cu 0.67936(7) 0.56376(6) 0.23116(9)
O1 O 0.7786(5) 0.1962(6) -0.1987(5)
O2 O 0.6634(6) 0.1432(8) -0.2255(7)
O3 O 0.7674(4) 0.4780(7) 0.1015(5)
O4 O 0.6489(4) 0.5242(6) 0.0925(4)
O5 O 0.7761(6) 0.3760(7) 0.2936(7)
O6 O 0.6584(5) 0.4226(6) 0.2659(6)
O7 O 0.7530(11) 0.0844(8) 0.6134(8)
O8 O 0.6378(10) 0.0483(13) 0.5632(15)
N1 N 0.9080(8) 0.4347(15) 0.2178(9)
N2 N 0.5905(6) 0.6313(6) 0.2724(7)
N3 N 1.0000 0.3090(15) 0.0000
H1 H 1.0000 0.2396 0.0000
N4 N 0.5000 0.7564(9) 0.5000
H2 H 0.5000 0.8250 0.5000
C1 C 0.5997(9) 0.7337(12) 0.3052(10)
H3 H 0.6279 0.7775 0.2739
C2 C 0.5708(6) 0.7779(10) 0.3810(7)
H4 H 0.5775 0.8494 0.3989
C3 C 0.5327(6) 0.7134(10) 0.4278(8)
C4 C 0.5141(6) 0.6096(9) 0.3874(7)
H5 H 0.4799 0.5668 0.4087
C5 C 0.5486(5) 0.5780(8) 0.3174(8)
H6 H 0.5417 0.5069 0.2977
C6 C 0.9519(12) 0.5000(17) 0.1811(13)
H7 H 0.9621 0.5690 0.2065
C7 C 0.7627(11) 0.0954(18) 0.4184(15)
H8 H 0.7715 0.0210 0.4071
H9 H 0.8017 0.1210 0.4798
C8 C 0.9814(8) 0.4595(16) 0.1036(14)
H10 H 1.0033 0.5072 0.0668
C9 C 0.9809(7) 0.3566(11) 0.0771(10)
C10 C 0.9349(9) 0.2979(12) 0.1252(13)
H11 H 0.9268 0.2267 0.1064
C11 C 0.9021(8) 0.3360(10) 0.1953(10)
H12 H 0.8752 0.2913 0.2278
C12 C 0.7124(8) 0.3579(9) 0.2951(8)
C13 C 0.6883(7) 0.2456(10) 0.3117(10)
H13 H 0.6443 0.2259 0.2528
C14 C 0.7588(13) 0.1643(12) 0.3149(16)
H14 H 0.7481 0.1204 0.2515
H15 H 0.8055 0.2028 0.3223
C15 C 0.6888(10) 0.1123(13) 0.4303(13)
C16 C 0.6962(8) 0.0820(10) 0.5524(9)
C17 C 0.7091(12) 0.2149(12) -0.2076(11)
C18 C 0.6937(10) 0.3228(10) -0.1831(8)
C19 C 0.6338(13) 0.3735(13) -0.2779(9)
H16 H 0.6225 0.4439 -0.2590
H17 H 0.5887 0.3313 -0.2950
H18 H 0.6531 0.3768 -0.3387
C20 C 0.7023(14) 0.4911(13) 0.057(3)
C21 C 0.6717(9) 0.2303(10) 0.4117(13)
C22 C 0.7268(9) 0.2951(11) 0.5018(9)
H19 H 0.7778 0.2817 0.5010
H20 H 0.7208 0.2742 0.5695
H21 H 0.7159 0.3694 0.4907
C23 C 0.6832(7) 0.4587(9) -0.0600(8)
H22 H 0.6398 0.4967 -0.1059
C24 C 0.7654(17) 0.484(2) -0.0897(15)
H23 H 0.7615 0.5458 -0.1347
H24 H 0.8073 0.4924 -0.0259
C25 C 0.7717(11) 0.3929(12) -0.1427(19)
H25 H 0.8105 0.3488 -0.0964
H26 H 0.7884 0.4111 -0.2043
C26 C 0.6813(16) 0.3471(11) -0.0794(8)
C27 C 0.5917(8) 0.2593(12) 0.379(2)
H27 H 0.5696 0.2426 0.4346
H28 H 0.5663 0.2204 0.3155
H29 H 0.5869 0.3340 0.3638
C28 C 0.5959(12) 0.346(3) -0.084(4)
H30 H 0.5690 0.3953 -0.1378
H31 H 0.5903 0.3665 -0.0163
H32 H 0.5758 0.2760 -0.1021
C29 C 0.6482(12) 0.0405(13) 0.3639(13)
H33 H 0.6646 -0.0294 0.3895
H34 H 0.6547 0.0501 0.2943
H35 H 0.5958 0.0488 0.3600
C30 C 0.7236(10) 0.2745(10) 0.0005(10)
H36 H 0.7766 0.2858 0.0114
H37 H 0.7108 0.2028 -0.0227
H38 H 0.7114 0.2865 0.0662
N1A N 1.0920(8) 0.4347(15) -0.2178(9)
C6A C 1.0481(12) 0.5000(17) -0.1811(13)
H7A H 1.0379 0.5690 -0.2065
C8A C 1.0186(8) 0.4595(16) -0.1036(14)
H10A H 0.9967 0.5072 -0.0668
C9A C 1.0191(7) 0.3566(11) -0.0771(10)
C10A C 1.0651(9) 0.2979(12) -0.1252(13)
H11A H 1.0732 0.2267 -0.1064
C11A C 1.0979(8) 0.3360(10) -0.1953(10)
H12A H 1.1248 0.2913 -0.2278
N2A N 0.4095(6) 0.6313(6) 0.7276(7)
C1A C 0.4003(9) 0.7337(12) 0.6948(10)
H3A H 0.3721 0.7775 0.7261
C2A C 0.4292(6) 0.7779(10) 0.6190(7)
H4A H 0.4225 0.8494 0.6011
C3A C 0.4673(6) 0.7134(10) 0.5722(8)
C4A C 0.4859(6) 0.6096(9) 0.6126(7)
H5A H 0.5201 0.5668 0.5913
C5A C 0.4514(5) 0.5780(8) 0.6826(8)
H6A H 0.4583 0.5069 0.7023
Cu1A Cu 0.17953(10) 0.50596(10) 0.73414(15)
Cu2A Cu 0.32064(7) 0.56376(6) 0.76884(9)
O1A O 0.2214(5) 0.1962(6) 1.1987(5)
O2A O 0.3366(6) 0.1432(8) 1.2255(7)
O3A O 0.2326(4) 0.4780(7) 0.8985(5)
O4A O 0.3511(4) 0.5242(6) 0.9075(4)
O5A O 0.2239(6) 0.3760(7) 0.7064(7)
O6A O 0.3416(5) 0.4226(6) 0.7341(6)
O7A O 0.2470(11) 0.0844(8) 0.3866(8)
O8A O 0.3622(10) 0.0483(13) 0.4368(15)
C7A C 0.2373(11) 0.0954(18) 0.5816(15)
H8A H 0.2285 0.0210 0.5929
H9A H 0.1983 0.1210 0.5202
C12A C 0.2876(8) 0.3579(9) 0.7049(8)
C13A C 0.3117(7) 0.2456(10) 0.6883(10)
H13A H 0.3557 0.2259 0.7472
C14A C 0.2412(13) 0.1643(12) 0.6851(16)
H14A H 0.2519 0.1204 0.7485
H15A H 0.1945 0.2028 0.6777
C15A C 0.3112(10) 0.1123(13) 0.5697(13)
C16A C 0.3038(8) 0.0820(10) 0.4476(9)
C17A C 0.2909(12) 0.2149(12) 1.2076(11)
C18A C 0.3063(10) 0.3228(10) 1.1831(8)
C19A C 0.3662(13) 0.3735(13) 1.2779(9)
H16A H 0.3775 0.4439 1.2590
H17A H 0.4113 0.3313 1.2950
H18A H 0.3469 0.3768 1.3387
C20A C 0.2977(14) 0.4911(13) 0.943(3)
C21A C 0.3283(9) 0.2303(10) 0.5883(13)
C22A C 0.2732(9) 0.2951(11) 0.4982(9)
H19A H 0.2222 0.2817 0.4990
H20A H 0.2792 0.2742 0.4305
H21A H 0.2841 0.3694 0.5093
C23A C 0.3168(7) 0.4587(9) 1.0600(8)
H22A H 0.3602 0.4967 1.1059
C24A C 0.2346(17) 0.484(2) 1.0897(15)
H23A H 0.2385 0.5458 1.1347
H24A H 0.1927 0.4924 1.0259
C25A C 0.2283(11) 0.3929(12) 1.1427(19)
H25A H 0.1895 0.3488 1.0964
H26A H 0.2116 0.4111 1.2043
C26A C 0.3187(16) 0.3471(11) 1.0794(8)
C27A C 0.4083(8) 0.2593(12) 0.621(2)
H27A H 0.4304 0.2426 0.5654
H28A H 0.4337 0.2204 0.6845
H29A H 0.4131 0.3340 0.6362
C28A C 0.4041(12) 0.346(3) 1.084(4)
H30A H 0.4310 0.3953 1.1378
H31A H 0.4097 0.3665 1.0163
H32A H 0.4242 0.2760 1.1021
C29A C 0.3518(12) 0.0405(13) 0.6361(13)
H33A H 0.3354 -0.0294 0.6105
H34A H 0.3453 0.0501 0.7057
H35A H 0.4042 0.0488 0.6400
C30A C 0.2764(10) 0.2745(10) 0.9995(10)
H36A H 0.2234 0.2858 0.9886
H37A H 0.2892 0.2028 1.0227
H38A H 0.2886 0.2865 0.9338
Cu1A_2 Cu 1.17953(10) 0.50596(10) -0.26586(15)
Cu1B Cu 0.32047(10) 0.00596(10) 0.26586(15)
Cu1B_2 Cu 0.32047(10) 0.00596(10) 1.26586(15)
Cu1C Cu 0.67953(10) 0.00596(10) -0.26586(15)
Cu1C_2 Cu 0.67953(10) 0.00596(10) 0.73414(15)
Cu2B Cu 0.17936(7) 0.06376(6) 0.23116(9)
Cu2B_2 Cu 0.17936(7) 0.06376(6) 1.23116(9)
Cu2C Cu 0.82064(7) 0.06376(6) -0.23116(9)
Cu2C_2 Cu 0.82064(7) 0.06376(6) 0.76884(9)
O1B O 0.2786(5) 0.6962(6) 0.8013(5)
O1C O 0.7214(5) 0.6962(6) 0.1987(5)
O2B O 0.1634(6) 0.6432(8) 0.7745(7)
O2C O 0.8366(6) 0.6432(8) 0.2255(7)
O7B O 0.2530(11) 0.5844(8) 0.6134(8)
O7C O 0.7470(11) 0.5844(8) 0.3866(8)
O8B O 0.1378(10) 0.5483(13) 0.5632(15)
O8C O 0.8622(10) 0.5483(13) 0.4368(15)
N1A_2 N 0.0920(8) 0.4347(15) 0.7822(9)
O9 O 1.0000 0.1037(14) 0.0000
H39 H 0.9566 0.0804 -0.0270
H39A H 1.0434 0.0804 0.0270
O10 O 0.5000 0.9794(13) 0.5000
H40 H 0.5442 1.0015 0.5209
H40A H 0.4558 1.0015 0.4791
loop_
_geom_bond_atom_site_label_1
_geom_bond_atom_site_label_2
_geom_bond_site_symmetry_1
_geom_bond_site_symmetry_2
Cu1 Cu2 1_555 1_555
Cu2 O4 1_555 1_555
O1 C17 1_555 1_555
O2 C17 1_555 1_555
O3 Cu1 1_555 1_555
O4 C20 1_555 1_555
O5 Cu1 1_555 1_555
O6 Cu2 1_555 1_555
O7 C16 1_555 1_555
O8 C16 1_555 1_555
N1 Cu1 1_555 1_555
N2 Cu2 1_555 1_555
N3 H1 1_555 1_555
N4 H2 1_555 1_555
C1 N2 1_555 1_555
H3 C1 1_555 1_555
C2 C1 1_555 1_555
H4 C2 1_555 1_555
C3 N4 1_555 1_555
C4 C3 1_555 1_555
H5 C4 1_555 1_555
C5 N2 1_555 1_555
H6 C5 1_555 1_555
C6 N1 1_555 1_555
H7 C6 1_555 1_555
C7 H8 1_555 1_555
H9 C7 1_555 1_555
C8 C6 1_555 1_555
H10 C8 1_555 1_555
C9 N3 1_555 1_555
C10 C9 1_555 1_555
H11 C10 1_555 1_555
C11 N1 1_555 1_555
H12 C11 1_555 1_555
C12 O5 1_555 1_555
C13 C12 1_555 1_555
H13 C13 1_555 1_555
C14 C7 1_555 1_555
H14 C14 1_555 1_555
H15 C14 1_555 1_555
C15 C7 1_555 1_555
C16 C15 1_555 1_555
C17 C18 1_555 1_555
C18 C19 1_555 1_555
C19 H16 1_555 1_555
H17 C19 1_555 1_555
H18 C19 1_555 1_555
C20 O3 1_555 1_555
C21 C13 1_555 1_555
C22 C21 1_555 1_555
H19 C22 1_555 1_555
H20 C22 1_555 1_555
H21 C22 1_555 1_555
C23 C20 1_555 1_555
H22 C23 1_555 1_555
C24 C23 1_555 1_555
H23 C24 1_555 1_555
H24 C24 1_555 1_555
C25 C18 1_555 1_555
H25 C25 1_555 1_555
H26 C25 1_555 1_555
C26 C18 1_555 1_555
C27 C21 1_555 1_555
H27 C27 1_555 1_555
H28 C27 1_555 1_555
H29 C27 1_555 1_555
C28 C26 1_555 1_555
H30 C28 1_555 1_555
H31 C28 1_555 1_555
H32 C28 1_555 1_555
C29 C15 1_555 1_555
H33 C29 1_555 1_555
H34 C29 1_555 1_555
H35 C29 1_555 1_555
C30 C26 1_555 1_555
H36 C30 1_555 1_555
H37 C30 1_555 1_555
H38 C30 1_555 1_555
O9 H39 1_555 1_555
O10 H40 1_555 1_555
N1A C6A 1_555 1_555
C6A H7A 1_555 1_555
C8A C6A 1_555 1_555
H10A C8A 1_555 1_555
C9A N3 1_555 1_555
C10A C9A 1_555 1_555
H11A C10A 1_555 1_555
C11A N1A 1_555 1_555
H12A C11A 1_555 1_555
N2A C1A 1_555 1_555
C1A H3A 1_555 1_555
C2A C1A 1_555 1_555
H4A C2A 1_555 1_555
C3A N4 1_555 1_555
C4A C3A 1_555 1_555
H5A C4A 1_555 1_555
C5A N2A 1_555 1_555
H6A C5A 1_555 1_555
Cu1A Cu2A 1_555 1_555
Cu2A N2A 1_555 1_555
O1A C17A 1_555 1_555
O2A C17A 1_555 1_555
O3A Cu1A 1_555 1_555
O4A Cu2A 1_555 1_555
O5A Cu1A 1_555 1_555
O6A Cu2A 1_555 1_555
O7A C16A 1_555 1_555
O8A C16A 1_555 1_555
C7A H8A 1_555 1_555
H9A C7A 1_555 1_555
C12A O5A 1_555 1_555
C13A C12A 1_555 1_555
H13A C13A 1_555 1_555
C14A C7A 1_555 1_555
H14A C14A 1_555 1_555
H15A C14A 1_555 1_555
C15A C7A 1_555 1_555
C16A C15A 1_555 1_555
C17A C18A 1_555 1_555
C18A C19A 1_555 1_555
C19A H16A 1_555 1_555
H17A C19A 1_555 1_555
H18A C19A 1_555 1_555
C20A O3A 1_555 1_555
C21A C13A 1_555 1_555
C22A C21A 1_555 1_555
H19A C22A 1_555 1_555
H20A C22A 1_555 1_555
H21A C22A 1_555 1_555
C23A C20A 1_555 1_555
H22A C23A 1_555 1_555
C24A C23A 1_555 1_555
H23A C24A 1_555 1_555
H24A C24A 1_555 1_555
C25A C18A 1_555 1_555
H25A C25A 1_555 1_555
H26A C25A 1_555 1_555
C26A C18A 1_555 1_555
C27A C21A 1_555 1_555
H27A C27A 1_555 1_555
H28A C27A 1_555 1_555
H29A C27A 1_555 1_555
C28A C26A 1_555 1_555
H30A C28A 1_555 1_555
H31A C28A 1_555 1_555
H32A C28A 1_555 1_555
C29A C15A 1_555 1_555
H33A C29A 1_555 1_555
H34A C29A 1_555 1_555
H35A C29A 1_555 1_555
C30A C26A 1_555 1_555
H36A C30A 1_555 1_555
H37A C30A 1_555 1_555
H38A C30A 1_555 1_555
Cu1A_2 N1A 1_555 1_555
Cu1B O7A 1_555 1_555
Cu1B_2 O2A 1_555 1_555
Cu1C O2 1_555 1_555
Cu1C_2 O7 1_555 1_555
Cu2B O7A 1_555 1_555
Cu2B_2 O1A 1_555 1_555
Cu2C O1 1_555 1_555
Cu2C_2 O7 1_555 1_555
O1B Cu2A 1_555 1_555
O1C Cu2 1_555 1_555
O2B Cu1A 1_555 1_555
O2C Cu1 1_555 1_555
O7B Cu1A 1_555 1_555
O7C Cu1 1_555 1_555
O8B Cu1A 1_555 1_555
O8C Cu1 1_555 1_555
N1A_2 Cu1A 1_555 1_555
H39A O9 1_555 1_555
H40A O10 1_555 1_555
Cu2 O7C 1_555 1_555
O6 C12 1_555 1_555
O8 Cu1C_2 1_555 1_555
C2 C3 1_555 1_555
C4 C5 1_555 1_555
C8 C9 1_555 1_555
C10 C11 1_555 1_555
C13 C14 1_555 1_555
C15 C21 1_555 1_555
C23 C26 1_555 1_555
C24 C25 1_555 1_555
C8A C9A 1_555 1_555
C10A C11A 1_555 1_555
C2A C3A 1_555 1_555
C4A C5A 1_555 1_555
Cu2A O7B 1_555 1_555
O4A C20A 1_555 1_555
O6A C12A 1_555 1_555
O8A Cu1B 1_555 1_555
C13A C14A 1_555 1_555
C15A C21A 1_555 1_555
C23A C26A 1_555 1_555
C24A C25A 1_555 1_555
Cu1B Cu2B 1_555 1_555
Cu1B_2 Cu2B_2 1_555 1_555
Cu1C Cu2C 1_555 1_555
Cu1C_2 Cu2C_2 1_555 1_555

#END
