
#######################################################################
#
#                 Cambridge Crystallographic Data Centre
#                                CCDC 
#
#######################################################################
#
# If this CIF has been generated from an entry in the Cambridge 
# Structural Database, then it will include bibliographic, chemical, 
# crystal, experimental, refinement or atomic coordinate data resulting 
# from the CCDC's data processing and validation procedures.
#
#######################################################################

data_LIDLEQ
_symmetry_cell_setting           monoclinic
_symmetry_space_group_name_H-M   'P 21/n'
_symmetry_Int_Tables_number      14
_space_group_name_Hall           '-P 2yn'
loop_
_symmetry_equiv_pos_site_id
_symmetry_equiv_pos_as_xyz
1 x,y,z
2 1/2-x,1/2+y,1/2-z
3 -x,-y,-z
4 1/2+x,1/2-y,1/2+z
_cell_length_a                   10.3656(4)
_cell_length_b                   14.7041(6)
_cell_length_c                   11.0971(4)
_cell_angle_alpha                90
_cell_angle_beta                 111.493(2)
_cell_angle_gamma                90
_cell_volume                     1573.77
loop_
_atom_site_label
_atom_site_type_symbol
_atom_site_fract_x
_atom_site_fract_y
_atom_site_fract_z
Ag1 Ag 0.65043(3) 0.227738(19) 0.48877(2)
N1 N 0.5532(2) 0.18323(17) 0.2789(2)
C1 C 0.6155(3) 0.1279(2) 0.2195(3)
C2 C 0.5544(3) 0.1111(2) 0.0880(3)
H1 H 0.5996 0.0743 0.0451
C3 C 0.4253(3) 0.1492(2) 0.0201(3)
N2 N 0.3644(3) 0.20418(17) 0.0805(2)
C4 C 0.4327(3) 0.22007(18) 0.2061(3)
C5 C 0.3713(3) 0.28891(19) 0.2688(2)
N3 N 0.2532(2) 0.32756(18) 0.1942(2)
N4 N 0.2072(3) 0.39560(18) 0.2502(3)
C6 C 0.2739(3) 0.4232(2) 0.3770(3)
O1 O 0.2285(3) 0.48413(18) 0.4240(3)
N5 N 0.3937(3) 0.37589(18) 0.4447(2)
N6 N 0.4444(2) 0.30846(17) 0.3912(2)
C7 C 0.7517(4) 0.0882(3) 0.3027(4)
H2 H 0.8155 0.1373 0.3467
H3 H 0.7907 0.0535 0.2487
H4 H 0.7382 0.0479 0.3674
C8 C 0.3507(4) 0.1344(2) -0.1209(3)
H5 H 0.2561 0.1137 -0.1365
H6 H 0.3994 0.0882 -0.1517
H7 H 0.3473 0.1915 -0.1674
C9 C 0.0800(3) 0.4407(3) 0.1674(4)
H8 H 0.0929 0.4650 0.0904
H9 H 0.0582 0.4906 0.2154
H10 H 0.0036 0.3968 0.1411
C10 C 0.4736(4) 0.3951(2) 0.5815(3)
H11 H 0.4606 0.3455 0.6350
H12 H 0.4416 0.4523 0.6061
H13 H 0.5722 0.4002 0.5948
Ag1C Ag 0.15043(3) 0.272262(19) -0.01123(2)
N2C N 0.8644(3) 0.29582(17) 0.5805(2)
N3C N 0.7532(2) 0.17244(18) 0.6942(2)
O2 O 0.9839(4) 0.0470(2) 0.6907(3)
Cl1 Cl 0.18443(9) 0.17178(6) 0.47789(10)
O3 O 0.2289(5) 0.0920(3) 0.4357(6)
O4 O 0.1293(4) 0.2362(2) 0.3770(3)
O5 O 0.2985(4) 0.2111(3) 0.5811(3)
O6 O 0.0774(4) 0.1520(3) 0.5290(5)
loop_
_geom_bond_atom_site_label_1
_geom_bond_atom_site_label_2
_geom_bond_site_symmetry_1
_geom_bond_site_symmetry_2
Ag1 N1 1_555 1_555
N1 C1 1_555 1_555
C1 C2 1_555 1_555
C2 H1 1_555 1_555
C3 C2 1_555 1_555
N2 C3 1_555 1_555
C4 N1 1_555 1_555
C5 C4 1_555 1_555
N3 C5 1_555 1_555
N4 N3 1_555 1_555
C6 N4 1_555 1_555
O1 C6 1_555 1_555
N5 C6 1_555 1_555
N6 Ag1 1_555 1_555
C7 C1 1_555 1_555
H2 C7 1_555 1_555
H3 C7 1_555 1_555
H4 C7 1_555 1_555
C8 C3 1_555 1_555
H5 C8 1_555 1_555
H6 C8 1_555 1_555
H7 C8 1_555 1_555
C9 N4 1_555 1_555
H8 C9 1_555 1_555
H9 C9 1_555 1_555
H10 C9 1_555 1_555
C10 N5 1_555 1_555
H11 C10 1_555 1_555
H12 C10 1_555 1_555
H13 C10 1_555 1_555
Cl1 O3 1_555 1_555
O4 Cl1 1_555 1_555
O5 Cl1 1_555 1_555
O6 Cl1 1_555 1_555
Ag1C N2 1_555 1_555
N2C Ag1 1_555 1_555
N3C Ag1 1_555 1_555
N2 C4 1_555 1_555
C5 N6 1_555 1_555
N3 Ag1C 1_555 1_555
N5 N6 1_555 1_555

#END
