
#######################################################################
#
#                 Cambridge Crystallographic Data Centre
#                                CCDC 
#
#######################################################################
#
# If this CIF has been generated from an entry in the Cambridge 
# Structural Database, then it will include bibliographic, chemical, 
# crystal, experimental, refinement or atomic coordinate data resulting 
# from the CCDC's data processing and validation procedures.
#
#######################################################################

data_LIDQIA
_symmetry_cell_setting           triclinic
_symmetry_space_group_name_H-M   'P -1'
_symmetry_Int_Tables_number      2
_space_group_name_Hall           '-P 1'
loop_
_symmetry_equiv_pos_site_id
_symmetry_equiv_pos_as_xyz
1 x,y,z
2 -x,-y,-z
_cell_length_a                   10.1548(15)
_cell_length_b                   10.8976(16)
_cell_length_c                   13.884(2)
_cell_angle_alpha                109.243(3)
_cell_angle_beta                 99.624(3)
_cell_angle_gamma                109.615(2)
_cell_volume                     1298.04
loop_
_atom_site_label
_atom_site_type_symbol
_atom_site_fract_x
_atom_site_fract_y
_atom_site_fract_z
Cd1 Cd 0.13328(3) 0.25917(3) 0.32157(3)
N1 N 0.1761(5) 0.2984(4) 0.5050(3)
N2 N 0.0893(5) 0.2431(5) 1.1436(3)
N3 N 0.2338(4) 0.5063(4) 0.3782(3)
O1 O -0.0931(4) 0.0783(4) 0.2811(3)
O2 O -0.1126(4) 0.2806(4) 0.3133(3)
O3 O -0.6092(5) 0.2808(4) 0.3192(4)
O4 O -0.7874(4) 0.0804(4) 0.2909(4)
Br1 Br -0.63057(8) -0.35144(7) 0.13767(7)
C1 C -0.1672(5) 0.1503(5) 0.2885(4)
C2 C -0.3305(5) 0.0718(5) 0.2648(4)
C3 C -0.4172(5) 0.1448(5) 0.2867(4)
H1 H -0.3752 0.2443 0.3141
C4 C -0.5654(5) 0.0719(5) 0.2684(4)
C5 C -0.6287(6) -0.0763(6) 0.2244(5)
H2 H -0.7287 -0.1268 0.2115
C6 C -0.5424(6) -0.1474(6) 0.2003(5)
C7 C -0.3937(6) -0.0759(6) 0.2207(4)
H3 H -0.3365 -0.1264 0.2050
C8 C -0.6599(6) 0.1514(6) 0.2951(4)
C9 C 0.1484(6) 0.1868(6) 0.5297(4)
H4 H 0.1231 0.0976 0.4753
C10 C 0.1554(6) 0.1961(6) 0.6329(4)
H5 H 0.1357 0.1148 0.6465
C11 C 0.1915(5) 0.3267(5) 0.7148(4)
C12 C 0.2214(7) 0.4423(6) 0.6891(5)
H6 H 0.2473 0.5329 0.7420
C13 C 0.2129(8) 0.4241(6) 0.5856(5)
H7 H 0.2341 0.5044 0.5706
C14 C 0.1986(6) 0.3421(6) 0.8273(4)
H8 H 0.2296 0.4422 0.8736
H9 H 0.2717 0.3120 0.8533
C15 C 0.0515(7) 0.2541(7) 0.8340(5)
H10 H -0.0177 0.2938 0.8184
H11 H 0.0134 0.1569 0.7797
C16 C 0.0621(6) 0.2509(6) 0.9420(4)
C17 C 0.0018(7) 0.3150(8) 1.0109(5)
H12 H -0.0498 0.3641 0.9921
C18 C 0.0169(7) 0.3076(8) 1.1093(5)
H13 H -0.0275 0.3516 1.1543
C19 C 0.1430(11) 0.1759(10) 1.0738(6)
H14 H 0.1922 0.1255 1.0934
C20 C 0.1300(11) 0.1766(10) 0.9742(6)
H15 H 0.1683 0.1254 0.9281
C21 C 0.1548(6) 0.5806(6) 0.3954(5)
H16 H 0.0547 0.5311 0.3829
C22 C 0.2101(6) 0.7247(6) 0.4303(5)
H17 H 0.1483 0.7711 0.4408
C23 C 0.3574(6) 0.8029(5) 0.4501(4)
C24 C 0.4401(6) 0.7263(6) 0.4321(5)
H18 H 0.5402 0.7735 0.4434
C25 C 0.3767(6) 0.5800(6) 0.3975(5)
H19 H 0.4359 0.5308 0.3873
C26 C 0.4183(6) 0.9630(5) 0.4920(5)
H20 H 0.4010 1.0001 0.5602
H21 H 0.3644 0.9877 0.4423
N3A N 0.7662(4) 1.4937(4) 0.6218(3)
C21A C 0.8452(6) 1.4194(6) 0.6046(5)
H16A H 0.9453 1.4689 0.6171
C22A C 0.7899(6) 1.2753(6) 0.5697(5)
H17A H 0.8517 1.2289 0.5592
C23A C 0.6426(6) 1.1971(5) 0.5499(4)
C24A C 0.5599(6) 1.2737(6) 0.5679(5)
H18A H 0.4598 1.2265 0.5566
C25A C 0.6233(6) 1.4200(6) 0.6025(5)
H19A H 0.5641 1.4692 0.6127
C26A C 0.5817(6) 1.0370(5) 0.5080(5)
H20A H 0.5990 0.9999 0.4398
H21A H 0.6356 1.0123 0.5577
Cd1A Cd 0.86672(3) 1.74083(3) 0.67843(3)
N1A N 0.8239(5) 1.7016(4) 0.4950(3)
N2A N 0.9107(5) 1.7569(5) -0.1436(3)
O1A O 1.0931(4) 1.9217(4) 0.7189(3)
O2A O 1.1126(4) 1.7194(4) 0.6867(3)
O3A O 1.6092(5) 1.7192(4) 0.6808(4)
O4A O 1.7874(4) 1.9196(4) 0.7091(4)
Br1A Br 1.63057(8) 2.35144(7) 0.86233(7)
C1A C 1.1672(5) 1.8497(5) 0.7115(4)
C2A C 1.3305(5) 1.9282(5) 0.7352(4)
C3A C 1.4172(5) 1.8552(5) 0.7133(4)
H1A H 1.3752 1.7557 0.6859
C4A C 1.5654(5) 1.9281(5) 0.7316(4)
C5A C 1.6287(6) 2.0763(6) 0.7756(5)
H2A H 1.7287 2.1268 0.7885
C6A C 1.5424(6) 2.1474(6) 0.7997(5)
C7A C 1.3937(6) 2.0759(6) 0.7793(4)
H3A H 1.3365 2.1264 0.7950
C8A C 1.6599(6) 1.8486(6) 0.7049(4)
C9A C 0.8516(6) 1.8132(6) 0.4703(4)
H4A H 0.8769 1.9024 0.5247
C10A C 0.8446(6) 1.8039(6) 0.3671(4)
H5A H 0.8643 1.8852 0.3535
C11A C 0.8085(5) 1.6733(5) 0.2852(4)
C12A C 0.7786(7) 1.5577(6) 0.3109(5)
H6A H 0.7527 1.4671 0.2580
C13A C 0.7871(8) 1.5759(6) 0.4144(5)
H7A H 0.7659 1.4956 0.4294
C14A C 0.8014(6) 1.6579(6) 0.1727(4)
H8A H 0.7704 1.5578 0.1264
H9A H 0.7283 1.6880 0.1467
C15A C 0.9485(7) 1.7459(7) 0.1660(5)
H10A H 1.0177 1.7062 0.1816
H11A H 0.9866 1.8431 0.2203
C16A C 0.9379(6) 1.7491(6) 0.0580(4)
C17A C 0.9982(7) 1.6850(8) -0.0109(5)
H12A H 1.0498 1.6359 0.0079
C18A C 0.9831(7) 1.6924(8) -0.1093(5)
H13A H 1.0275 1.6484 -0.1543
C19A C 0.8570(11) 1.8241(10) -0.0738(6)
H14A H 0.8078 1.8745 -0.0934
C20A C 0.8700(11) 1.8234(10) 0.0258(6)
H15A H 0.8317 1.8746 0.0719
Cd1_2 Cd -0.86672(3) 0.25917(3) 0.32157(3)
Cd1_3 Cd 0.13328(3) 0.25917(3) 1.32157(3)
Cd1A_2 Cd 0.86672(3) 1.74083(3) -0.32157(3)
Cd1A_3 Cd 1.86672(3) 1.74083(3) 0.67843(3)
N2_2 N 0.0893(5) 0.2431(5) 0.1436(3)
N2A_2 N 0.9107(5) 1.7569(5) 0.8564(3)
O3_2 O 0.3908(5) 0.2808(4) 0.3192(4)
O3A_2 O 0.6092(5) 1.7192(4) 0.6808(4)
O4_2 O 0.2126(4) 0.0804(4) 0.2909(4)
O4A_2 O 0.7874(4) 1.9196(4) 0.7091(4)
loop_
_geom_bond_atom_site_label_1
_geom_bond_atom_site_label_2
_geom_bond_site_symmetry_1
_geom_bond_site_symmetry_2
Cd1 N1 1_555 1_555
N1 C9 1_555 1_555
N2 C18 1_555 1_555
N3 Cd1 1_555 1_555
O1 Cd1 1_555 1_555
O2 Cd1 1_555 1_555
O3 C8 1_555 1_555
O4 C8 1_555 1_555
Br1 C6 1_555 1_555
C1 O1 1_555 1_555
C2 C1 1_555 1_555
C3 C2 1_555 1_555
H1 C3 1_555 1_555
C4 C3 1_555 1_555
C5 C4 1_555 1_555
H2 C5 1_555 1_555
C6 C5 1_555 1_555
C7 C2 1_555 1_555
H3 C7 1_555 1_555
C8 C4 1_555 1_555
C9 H4 1_555 1_555
C10 C9 1_555 1_555
H5 C10 1_555 1_555
C11 C10 1_555 1_555
C12 C11 1_555 1_555
H6 C12 1_555 1_555
C13 N1 1_555 1_555
H7 C13 1_555 1_555
C14 C11 1_555 1_555
H8 C14 1_555 1_555
H9 C14 1_555 1_555
C15 C14 1_555 1_555
H10 C15 1_555 1_555
H11 C15 1_555 1_555
C16 C15 1_555 1_555
C17 C16 1_555 1_555
H12 C17 1_555 1_555
C18 C17 1_555 1_555
H13 C18 1_555 1_555
C19 N2 1_555 1_555
H14 C19 1_555 1_555
C20 C16 1_555 1_555
H15 C20 1_555 1_555
C21 N3 1_555 1_555
H16 C21 1_555 1_555
C22 C21 1_555 1_555
H17 C22 1_555 1_555
C23 C22 1_555 1_555
C24 C23 1_555 1_555
H18 C24 1_555 1_555
C25 N3 1_555 1_555
H19 C25 1_555 1_555
C26 C23 1_555 1_555
H20 C26 1_555 1_555
H21 C26 1_555 1_555
N3A C21A 1_555 1_555
C21A H16A 1_555 1_555
C22A C21A 1_555 1_555
H17A C22A 1_555 1_555
C23A C22A 1_555 1_555
C24A C23A 1_555 1_555
H18A C24A 1_555 1_555
C25A N3A 1_555 1_555
H19A C25A 1_555 1_555
C26A C26 1_555 1_555
H20A C26A 1_555 1_555
H21A C26A 1_555 1_555
Cd1A N3A 1_555 1_555
N1A Cd1A 1_555 1_555
N2A C18A 1_555 1_555
O1A Cd1A 1_555 1_555
O2A Cd1A 1_555 1_555
O3A C8A 1_555 1_555
O4A C8A 1_555 1_555
Br1A C6A 1_555 1_555
C1A O1A 1_555 1_555
C2A C1A 1_555 1_555
C3A C2A 1_555 1_555
H1A C3A 1_555 1_555
C4A C3A 1_555 1_555
C5A C4A 1_555 1_555
H2A C5A 1_555 1_555
C6A C5A 1_555 1_555
C7A C2A 1_555 1_555
H3A C7A 1_555 1_555
C8A C4A 1_555 1_555
C9A N1A 1_555 1_555
H4A C9A 1_555 1_555
C10A C9A 1_555 1_555
H5A C10A 1_555 1_555
C11A C10A 1_555 1_555
C12A C11A 1_555 1_555
H6A C12A 1_555 1_555
C13A N1A 1_555 1_555
H7A C13A 1_555 1_555
C14A C11A 1_555 1_555
H8A C14A 1_555 1_555
H9A C14A 1_555 1_555
C15A C14A 1_555 1_555
H10A C15A 1_555 1_555
H11A C15A 1_555 1_555
C16A C15A 1_555 1_555
C17A C16A 1_555 1_555
H12A C17A 1_555 1_555
C18A C17A 1_555 1_555
H13A C18A 1_555 1_555
C19A N2A 1_555 1_555
H14A C19A 1_555 1_555
C20A C16A 1_555 1_555
H15A C20A 1_555 1_555
Cd1_2 O3 1_555 1_555
Cd1_3 N2 1_555 1_555
Cd1A_2 N2A 1_555 1_555
Cd1A_3 O3A 1_555 1_555
N2_2 Cd1 1_555 1_555
N2A_2 Cd1A 1_555 1_555
O3_2 Cd1 1_555 1_555
O3A_2 Cd1A 1_555 1_555
O4_2 Cd1 1_555 1_555
O4A_2 Cd1A 1_555 1_555
O2 C1 1_555 1_555
O4 Cd1_2 1_555 1_555
C6 C7 1_555 1_555
C12 C13 1_555 1_555
C19 C20 1_555 1_555
C24 C25 1_555 1_555
C23A C26A 1_555 1_555
C24A C25A 1_555 1_555
O2A C1A 1_555 1_555
O4A Cd1A_3 1_555 1_555
C6A C7A 1_555 1_555
C12A C13A 1_555 1_555
C19A C20A 1_555 1_555

#END
