
#######################################################################
#
#                 Cambridge Crystallographic Data Centre
#                                CCDC 
#
#######################################################################
#
# If this CIF has been generated from an entry in the Cambridge 
# Structural Database, then it will include bibliographic, chemical, 
# crystal, experimental, refinement or atomic coordinate data resulting 
# from the CCDC's data processing and validation procedures.
#
#######################################################################

data_LIDWAY
_symmetry_cell_setting           orthorhombic
_symmetry_space_group_name_H-M   'P b c n'
_symmetry_Int_Tables_number      60
_space_group_name_Hall           '-P 2n 2ab'
loop_
_symmetry_equiv_pos_site_id
_symmetry_equiv_pos_as_xyz
1 x,y,z
2 1/2-x,1/2-y,1/2+z
3 1/2+x,1/2-y,-z
4 -x,y,1/2-z
5 -x,-y,-z
6 1/2+x,1/2+y,1/2-z
7 1/2-x,1/2+y,z
8 x,-y,1/2+z
_cell_length_a                   13.2975(10)
_cell_length_b                   13.8424(12)
_cell_length_c                   22.6367(17)
_cell_angle_alpha                90
_cell_angle_beta                 90
_cell_angle_gamma                90
_cell_volume                     4166.72
loop_
_atom_site_label
_atom_site_type_symbol
_atom_site_fract_x
_atom_site_fract_y
_atom_site_fract_z
Co1 Co 0.24824(6) 0.11804(5) 0.31316(3)
O1 O 0.3887(3) 0.2311(2) 0.30109(16)
O2 O 0.2669(3) 0.1999(3) 0.23960(17)
O3 O 0.6215(4) 0.5394(4) 0.2187(3)
O4 O 0.6607(4) 0.4913(4) 0.1299(3)
N1 N 0.3622(3) 0.0191(3) 0.31568(19)
N2 N 0.5120(4) -0.0458(3) 0.32458(19)
N3 N 0.7426(5) 0.1974(4) 0.5402(2)
N4 N 0.7191(4) 0.2982(3) 0.6140(2)
C1 C 0.3482(4) 0.2457(3) 0.2527(2)
C2 C 0.6022(5) 0.4929(4) 0.1784(4)
C3 C 0.3917(4) 0.3124(3) 0.2084(2)
C4 C 0.3482(4) 0.3127(4) 0.1525(3)
H1 H 0.2933 0.2730 0.1450
C5 C 0.3852(5) 0.3709(4) 0.1078(3)
H2 H 0.3556 0.3706 0.0705
C6 C 0.4652(5) 0.4284(5) 0.1193(3)
H3 H 0.4898 0.4679 0.0894
C7 C 0.5117(4) 0.4305(4) 0.1741(3)
C8 C 0.4748(3) 0.3716(3) 0.2201(2)
C9 C 0.4595(4) 0.0359(4) 0.3228(2)
H4 H 0.4875 0.0972 0.3261
C10 C 0.4451(5) -0.1210(4) 0.3184(2)
H5 H 0.4601 -0.1867 0.3182
C11 C 0.3539(5) -0.0803(4) 0.3129(2)
H6 H 0.2940 -0.1140 0.3079
C12 C 0.6197(4) -0.0526(5) 0.3372(2)
H7 H 0.6555 -0.0037 0.3148
H8 H 0.6444 -0.1154 0.3250
C13 C 0.6402(4) -0.0386(4) 0.4024(2)
C14 C 0.7021(5) 0.0346(4) 0.4215(2)
H9 H 0.7321 0.0753 0.3939
C15 C 0.7206(5) 0.0488(5) 0.4812(3)
C16 C 0.6758(5) -0.0122(5) 0.5216(3)
H10 H 0.6875 -0.0040 0.5618
C17 C 0.6145(6) -0.0841(5) 0.5026(3)
H11 H 0.5839 -0.1244 0.5301
C18 C 0.5967(5) -0.0986(5) 0.4437(3)
H12 H 0.5553 -0.1490 0.4316
C19 C 0.7920(6) 0.1287(5) 0.5013(3)
H13 H 0.8487 0.1000 0.5217
H14 H 0.8177 0.1624 0.4669
C20 C 0.6506(6) 0.2405(5) 0.5316(3)
H15 H 0.6060 0.2290 0.5008
C21 C 0.6380(6) 0.3024(5) 0.5766(3)
H16 H 0.5824 0.3423 0.5817
C22 C 0.7799(5) 0.2345(5) 0.5904(3)
H17 H 0.8416 0.2171 0.6065
O1C O 0.6113(3) 0.2311(2) 0.19891(16)
O2C O 0.7331(3) 0.1999(3) 0.26040(17)
O3C O 0.3785(4) 0.5394(4) 0.2813(3)
O4C O 0.3393(4) 0.4913(4) 0.3701(3)
C1C C 0.6518(4) 0.2457(3) 0.2473(2)
C2C C 0.3978(5) 0.4929(4) 0.3216(4)
C3C C 0.6083(4) 0.3124(3) 0.2916(2)
C4C C 0.6518(4) 0.3127(4) 0.3475(3)
H1C H 0.7067 0.2730 0.3550
C5C C 0.6148(5) 0.3709(4) 0.3922(3)
H2C H 0.6444 0.3706 0.4295
C6C C 0.5348(5) 0.4284(5) 0.3807(3)
H3C H 0.5102 0.4679 0.4106
C7C C 0.4883(4) 0.4305(4) 0.3259(3)
C8C C 0.5252(3) 0.3716(3) 0.2799(2)
Co1C Co 0.75176(6) 0.11804(5) 0.18684(3)
N1C N 0.6378(3) 0.0191(3) 0.18432(19)
N2C N 0.4880(4) -0.0458(3) 0.17542(19)
N3C N 0.2574(5) 0.1974(4) -0.0402(2)
N4C N 0.2809(4) 0.2982(3) -0.1140(2)
C9C C 0.5405(4) 0.0359(4) 0.1772(2)
H4C H 0.5125 0.0972 0.1739
C10C C 0.5549(5) -0.1210(4) 0.1816(2)
H5C H 0.5399 -0.1867 0.1818
C11C C 0.6461(5) -0.0803(4) 0.1871(2)
H6C H 0.7060 -0.1140 0.1921
C12C C 0.3803(4) -0.0526(5) 0.1628(2)
H7C H 0.3445 -0.0037 0.1852
H8C H 0.3556 -0.1154 0.1750
C13C C 0.3598(4) -0.0386(4) 0.0976(2)
C14C C 0.2979(5) 0.0346(4) 0.0785(2)
H9C H 0.2679 0.0753 0.1061
C15C C 0.2794(5) 0.0488(5) 0.0188(3)
C16C C 0.3242(5) -0.0122(5) -0.0216(3)
H10C H 0.3125 -0.0040 -0.0618
C17C C 0.3855(6) -0.0841(5) -0.0026(3)
H11C H 0.4161 -0.1244 -0.0301
C18C C 0.4033(5) -0.0986(5) 0.0563(3)
H12C H 0.4447 -0.1490 0.0684
C19C C 0.2080(6) 0.1287(5) -0.0013(3)
H13C H 0.1513 0.1000 -0.0217
H14C H 0.1823 0.1624 0.0331
C20C C 0.3494(6) 0.2405(5) -0.0316(3)
H15C H 0.3940 0.2290 -0.0008
C21C C 0.3620(6) 0.3024(5) -0.0766(3)
H16C H 0.4176 0.3423 -0.0817
C22C C 0.2201(5) 0.2345(5) -0.0904(3)
H17C H 0.1584 0.2171 -0.1065
Co1A Co 0.25176(6) 0.38196(5) -0.18684(3)
Co1B Co 0.74824(6) 0.38196(5) 0.68684(3)
Co1E Co 0.74824(6) 0.61804(5) 0.18684(3)
Co1F Co 0.25176(6) 0.61804(5) 0.31316(3)
O3E O 0.1215(4) 0.0394(4) 0.2813(3)
O3F O 0.8785(4) 0.0394(4) 0.2187(3)
N4A N 0.7809(4) 0.2018(3) 0.1140(2)
N4B N 0.2191(4) 0.2018(3) 0.3860(2)
O5 O 0.9064(4) 0.1755(3) 0.3338(2)
H18 H 0.8613 0.1797 0.3076
H19 H 0.9547 0.1376 0.3105
loop_
_geom_bond_atom_site_label_1
_geom_bond_atom_site_label_2
_geom_bond_site_symmetry_1
_geom_bond_site_symmetry_2
Co1 O1 1_555 1_555
O1 C1 1_555 1_555
O2 Co1 1_555 1_555
O3 C2 1_555 1_555
O4 C2 1_555 1_555
N1 Co1 1_555 1_555
N2 C9 1_555 1_555
N3 C19 1_555 1_555
N4 C21 1_555 1_555
C1 O2 1_555 1_555
C2 C7 1_555 1_555
C3 C1 1_555 1_555
C4 C3 1_555 1_555
H1 C4 1_555 1_555
C5 C4 1_555 1_555
H2 C5 1_555 1_555
C6 C5 1_555 1_555
H3 C6 1_555 1_555
C7 C6 1_555 1_555
C8 C3 1_555 1_555
C9 N1 1_555 1_555
H4 C9 1_555 1_555
C10 N2 1_555 1_555
H5 C10 1_555 1_555
C11 N1 1_555 1_555
H6 C11 1_555 1_555
C12 N2 1_555 1_555
H7 C12 1_555 1_555
H8 C12 1_555 1_555
C13 C12 1_555 1_555
C14 C13 1_555 1_555
H9 C14 1_555 1_555
C15 C14 1_555 1_555
C16 C15 1_555 1_555
H10 C16 1_555 1_555
C17 C16 1_555 1_555
H11 C17 1_555 1_555
C18 C13 1_555 1_555
H12 C18 1_555 1_555
C19 C15 1_555 1_555
H13 C19 1_555 1_555
H14 C19 1_555 1_555
C20 N3 1_555 1_555
H15 C20 1_555 1_555
C21 C20 1_555 1_555
H16 C21 1_555 1_555
C22 N3 1_555 1_555
H17 C22 1_555 1_555
O5 H18 1_555 1_555
H19 O5 1_555 1_555
O1C C1C 1_555 1_555
O2C C1C 1_555 1_555
O3C C2C 1_555 1_555
O4C C2C 1_555 1_555
C1C C3C 1_555 1_555
C2C C7C 1_555 1_555
C3C C4C 1_555 1_555
C4C H1C 1_555 1_555
C5C C4C 1_555 1_555
H2C C5C 1_555 1_555
C6C C5C 1_555 1_555
H3C C6C 1_555 1_555
C7C C6C 1_555 1_555
C8C C8 1_555 1_555
Co1C O1C 1_555 1_555
N1C Co1C 1_555 1_555
N2C C9C 1_555 1_555
N3C C19C 1_555 1_555
N4C C21C 1_555 1_555
C9C N1C 1_555 1_555
H4C C9C 1_555 1_555
C10C N2C 1_555 1_555
H5C C10C 1_555 1_555
C11C N1C 1_555 1_555
H6C C11C 1_555 1_555
C12C N2C 1_555 1_555
H7C C12C 1_555 1_555
H8C C12C 1_555 1_555
C13C C12C 1_555 1_555
C14C C13C 1_555 1_555
H9C C14C 1_555 1_555
C15C C14C 1_555 1_555
C16C C15C 1_555 1_555
H10C C16C 1_555 1_555
C17C C16C 1_555 1_555
H11C C17C 1_555 1_555
C18C C13C 1_555 1_555
H12C C18C 1_555 1_555
C19C C15C 1_555 1_555
H13C C19C 1_555 1_555
H14C C19C 1_555 1_555
C20C N3C 1_555 1_555
H15C C20C 1_555 1_555
C21C C20C 1_555 1_555
H16C C21C 1_555 1_555
C22C N3C 1_555 1_555
H17C C22C 1_555 1_555
Co1A N4C 1_555 1_555
Co1B N4 1_555 1_555
Co1E O3 1_555 1_555
Co1F O3C 1_555 1_555
O3E Co1 1_555 1_555
O3F Co1C 1_555 1_555
N4A Co1C 1_555 1_555
N4B Co1 1_555 1_555
N4 C22 1_555 1_555
C7 C8 1_555 1_555
C10 C11 1_555 1_555
C17 C18 1_555 1_555
O2C Co1C 1_555 1_555
C3C C8C 1_555 1_555
C7C C8C 1_555 1_555
N4C C22C 1_555 1_555
C10C C11C 1_555 1_555
C17C C18C 1_555 1_555

#END
