
#######################################################################
#
#                 Cambridge Crystallographic Data Centre
#                                CCDC 
#
#######################################################################
#
# If this CIF has been generated from an entry in the Cambridge 
# Structural Database, then it will include bibliographic, chemical, 
# crystal, experimental, refinement or atomic coordinate data resulting 
# from the CCDC's data processing and validation procedures.
#
#######################################################################

data_LIDXOM
_symmetry_cell_setting           monoclinic
_symmetry_space_group_name_H-M   'P 21/c'
_symmetry_Int_Tables_number      14
_space_group_name_Hall           '-P 2ybc'
loop_
_symmetry_equiv_pos_site_id
_symmetry_equiv_pos_as_xyz
1 x,y,z
2 -x,1/2+y,1/2-z
3 -x,-y,-z
4 x,1/2-y,1/2+z
_cell_length_a                   14.2001(12)
_cell_length_b                   11.2746(6)
_cell_length_c                   14.3556(10)
_cell_angle_alpha                90
_cell_angle_beta                 101.345(9)
_cell_angle_gamma                90
_cell_volume                     2253.43
loop_
_atom_site_label
_atom_site_type_symbol
_atom_site_fract_x
_atom_site_fract_y
_atom_site_fract_z
Cu1 Cu 0.07446(4) 0.92475(5) 0.54349(4)
I1 I -0.09295(2) 0.92531(3) 0.595903(19)
Cu2 Cu 0.45407(4) 0.93004(5) 0.92472(4)
I2 I 0.59630(2) 1.07883(3) 0.90838(2)
N1 N 0.1933(2) 0.9539(3) 0.6518(2)
C1 C 0.2047(3) 1.0432(4) 0.7146(3)
C2 C 0.2835(3) 1.0450(4) 0.7919(3)
N2 N 0.3476(3) 0.9561(3) 0.8045(2)
C3 C 0.3380(3) 0.8709(4) 0.7380(3)
H1 H 0.3841 0.8103 0.7432
C4 C 0.2617(3) 0.8711(4) 0.6624(3)
H2 H 0.2576 0.8107 0.6166
C5 C 0.1316(3) 1.1389(4) 0.7016(3)
H3 H 0.1635 1.2154 0.7102
H4 H 0.0909 1.1298 0.7480
H5 H 0.0927 1.1342 0.6381
C6 C 0.2987(4) 1.1429(5) 0.8626(4)
H6 H 0.2552 1.1333 0.9064
H7 H 0.2864 1.2184 0.8300
H8 H 0.3645 1.1410 0.8977
N3 N 0.0954(2) 0.7484(3) 0.4956(2)
C7 C 0.1039(3) 0.6489(4) 0.5466(3)
C8 C 0.1175(3) 0.5379(4) 0.5055(3)
N4 N 0.1150(3) 0.5278(4) 0.4119(3)
C9 C 0.1033(4) 0.6285(4) 0.3615(3)
H9 H 0.1002 0.6243 0.2956
C10 C 0.0959(3) 0.7373(4) 0.4017(3)
H10 H 0.0910 0.8056 0.3634
C11 C 0.0984(4) 0.6561(4) 0.6500(3)
H11 H 0.1615 0.6420 0.6886
H12 H 0.0538 0.5968 0.6642
H13 H 0.0762 0.7344 0.6638
C12 C 0.1345(4) 0.4259(4) 0.5626(4)
H14 H 0.1255 0.3581 0.5202
H15 H 0.0895 0.4215 0.6053
H16 H 0.1997 0.4257 0.5993
N5 N 0.5014(3) 0.7536(3) 0.9072(2)
C13 C 0.4494(4) 0.6543(4) 0.8968(3)
C14 C 0.4932(4) 0.5432(4) 0.8882(3)
N6 N 0.5887(4) 0.5340(4) 0.9030(3)
C15 C 0.6397(4) 0.6329(5) 0.9175(4)
H17 H 0.7071 0.6278 0.9295
C16 C 0.5973(3) 0.7432(4) 0.9155(3)
H18 H 0.6357 0.8118 0.9200
C17 C 0.3441(4) 0.6622(5) 0.8952(4)
H19 H 0.3279 0.7426 0.9103
H20 H 0.3272 0.6080 0.9418
H21 H 0.3087 0.6412 0.8325
C18 C 0.4367(5) 0.4330(5) 0.8633(4)
H22 H 0.4140 0.4296 0.7951
H23 H 0.3821 0.4329 0.8948
H24 H 0.4769 0.3647 0.8839
Cu1B Cu -0.07446(4) 1.07525(5) 0.45651(4)
I1B I 0.09295(2) 1.07469(3) 0.404097(19)
Cu2B Cu 0.54593(4) 1.06996(5) 1.07528(4)
I2B I 0.40370(2) 0.92117(3) 1.09162(2)
loop_
_geom_bond_atom_site_label_1
_geom_bond_atom_site_label_2
_geom_bond_site_symmetry_1
_geom_bond_site_symmetry_2
Cu1 I1 1_555 1_555
I1 Cu1B 1_555 1_555
Cu2 I2 1_555 1_555
I2 Cu2B 1_555 1_555
N1 Cu1 1_555 1_555
C1 N1 1_555 1_555
C2 C1 1_555 1_555
N2 Cu2 1_555 1_555
C3 N2 1_555 1_555
H1 C3 1_555 1_555
C4 N1 1_555 1_555
H2 C4 1_555 1_555
C5 C1 1_555 1_555
H3 C5 1_555 1_555
H4 C5 1_555 1_555
H5 C5 1_555 1_555
C6 C2 1_555 1_555
H6 C6 1_555 1_555
H7 C6 1_555 1_555
H8 C6 1_555 1_555
N3 Cu1 1_555 1_555
C7 N3 1_555 1_555
C8 C7 1_555 1_555
N4 C8 1_555 1_555
C9 N4 1_555 1_555
H9 C9 1_555 1_555
C10 N3 1_555 1_555
H10 C10 1_555 1_555
C11 C7 1_555 1_555
H11 C11 1_555 1_555
H12 C11 1_555 1_555
H13 C11 1_555 1_555
C12 C8 1_555 1_555
H14 C12 1_555 1_555
H15 C12 1_555 1_555
H16 C12 1_555 1_555
N5 Cu2 1_555 1_555
C13 N5 1_555 1_555
C14 C13 1_555 1_555
N6 C14 1_555 1_555
C15 N6 1_555 1_555
H17 C15 1_555 1_555
C16 N5 1_555 1_555
H18 C16 1_555 1_555
C17 C13 1_555 1_555
H19 C17 1_555 1_555
H20 C17 1_555 1_555
H21 C17 1_555 1_555
C18 C14 1_555 1_555
H22 C18 1_555 1_555
H23 C18 1_555 1_555
H24 C18 1_555 1_555
Cu1B I1B 1_555 1_555
I1B Cu1 1_555 1_555
Cu2B I2B 1_555 1_555
I2B Cu2 1_555 1_555
C2 N2 1_555 1_555
C3 C4 1_555 1_555
C9 C10 1_555 1_555
C15 C16 1_555 1_555

#END
