
#######################################################################
#
#                 Cambridge Crystallographic Data Centre
#                                CCDC 
#
#######################################################################
#
# If this CIF has been generated from an entry in the Cambridge 
# Structural Database, then it will include bibliographic, chemical, 
# crystal, experimental, refinement or atomic coordinate data resulting 
# from the CCDC's data processing and validation procedures.
#
#######################################################################

data_LIDXUS
_symmetry_cell_setting           monoclinic
_symmetry_space_group_name_H-M   'P 21/n'
_symmetry_Int_Tables_number      14
_space_group_name_Hall           '-P 2yn'
loop_
_symmetry_equiv_pos_site_id
_symmetry_equiv_pos_as_xyz
1 x,y,z
2 1/2-x,1/2+y,1/2-z
3 -x,-y,-z
4 1/2+x,1/2-y,1/2+z
_cell_length_a                   9.8505(5)
_cell_length_b                   12.8482(7)
_cell_length_c                   13.5837(8)
_cell_angle_alpha                90
_cell_angle_beta                 103.152(6)
_cell_angle_gamma                90
_cell_volume                     1674.08
loop_
_atom_site_label
_atom_site_type_symbol
_atom_site_fract_x
_atom_site_fract_y
_atom_site_fract_z
Cu1 Cu -0.21577(7) 0.19359(6) -0.41597(6)
Cu2 Cu -0.11229(7) -0.01641(6) -0.44779(6)
I1 I -0.11215(4) 0.13798(3) -0.57937(3)
I2 I -0.10256(4) 0.06902(3) -0.26535(3)
N1 N -0.1351(5) 0.3404(3) -0.3867(4)
C1 C -0.1896(6) 0.4265(4) -0.4381(5)
C2 C -0.1214(6) 0.5228(4) -0.4181(5)
N2 N 0.0013(6) 0.5315(4) -0.3526(5)
C3 C 0.0539(7) 0.4440(5) -0.3030(5)
H1 H 0.1403 0.4475 -0.2562
C4 C -0.0137(6) 0.3514(5) -0.3186(5)
H2 H 0.0256 0.2932 -0.2806
C5 C -0.3226(8) 0.4164(6) -0.5156(7)
H3 H -0.3054 0.4282 -0.5822
H4 H -0.3890 0.4674 -0.5025
H5 H -0.3602 0.3470 -0.5126
C6 C -0.1828(8) 0.6208(5) -0.4693(6)
H6 H -0.1159 0.6770 -0.4521
H7 H -0.2668 0.6383 -0.4470
H8 H -0.2056 0.6105 -0.5419
N3 N -0.4281(5) 0.1699(4) -0.4594(4)
C7 C -0.5144(5) 0.1853(4) -0.3966(4)
C8 C -0.6522(5) 0.1473(4) -0.4232(5)
N4 N -0.7020(4) 0.0995(4) -0.5124(4)
C9 C -0.6175(6) 0.0928(5) -0.5763(5)
H9 H -0.6518 0.0646 -0.6410
C10 C -0.4815(6) 0.1262(5) -0.5497(4)
H10 H -0.4243 0.1183 -0.5959
C11 C -0.4589(6) 0.2429(5) -0.2990(5)
H11 H -0.5175 0.3028 -0.2954
H12 H -0.3644 0.2659 -0.2964
H13 H -0.4592 0.1970 -0.2423
C12 C -0.7485(6) 0.1604(5) -0.3519(5)
H14 H -0.7168 0.1167 -0.2929
H15 H -0.8424 0.1402 -0.3860
H16 H -0.7483 0.2326 -0.3310
Cu2B Cu 0.11229(7) 0.01641(6) -0.55221(6)
Cu2B_2 Cu -0.88771(7) 0.01641(6) -0.55221(6)
I1B I 0.11215(4) -0.13798(3) -0.42063(3)
N4B N -0.2980(4) -0.0995(4) -0.4876(4)
loop_
_geom_bond_atom_site_label_1
_geom_bond_atom_site_label_2
_geom_bond_site_symmetry_1
_geom_bond_site_symmetry_2
Cu1 I1 1_555 1_555
Cu2 I1 1_555 1_555
I1 Cu2B 1_555 1_555
I2 Cu1 1_555 1_555
N1 Cu1 1_555 1_555
C1 N1 1_555 1_555
C2 C1 1_555 1_555
N2 C2 1_555 1_555
C3 N2 1_555 1_555
H1 C3 1_555 1_555
C4 N1 1_555 1_555
H2 C4 1_555 1_555
C5 C1 1_555 1_555
H3 C5 1_555 1_555
H4 C5 1_555 1_555
H5 C5 1_555 1_555
C6 C2 1_555 1_555
H6 C6 1_555 1_555
H7 C6 1_555 1_555
H8 C6 1_555 1_555
N3 Cu1 1_555 1_555
C7 N3 1_555 1_555
C8 C7 1_555 1_555
N4 C8 1_555 1_555
C9 N4 1_555 1_555
H9 C9 1_555 1_555
C10 N3 1_555 1_555
H10 C10 1_555 1_555
C11 C7 1_555 1_555
H11 C11 1_555 1_555
H12 C11 1_555 1_555
H13 C11 1_555 1_555
C12 C8 1_555 1_555
H14 C12 1_555 1_555
H15 C12 1_555 1_555
H16 C12 1_555 1_555
Cu2B I1B 1_555 1_555
Cu2B_2 N4 1_555 1_555
I1B Cu2 1_555 1_555
N4B Cu2 1_555 1_555
Cu2 I2 1_555 1_555
C3 C4 1_555 1_555
C9 C10 1_555 1_555

#END
