
#######################################################################
#
#                 Cambridge Crystallographic Data Centre
#                                CCDC 
#
#######################################################################
#
# If this CIF has been generated from an entry in the Cambridge 
# Structural Database, then it will include bibliographic, chemical, 
# crystal, experimental, refinement or atomic coordinate data resulting 
# from the CCDC's data processing and validation procedures.
#
#######################################################################

data_LIDYUU
_symmetry_cell_setting           orthorhombic
_symmetry_space_group_name_H-M   'P b c a'
_symmetry_Int_Tables_number      61
_space_group_name_Hall           '-P 2ac 2ab'
loop_
_symmetry_equiv_pos_site_id
_symmetry_equiv_pos_as_xyz
1 x,y,z
2 1/2-x,-y,1/2+z
3 1/2+x,1/2-y,-z
4 -x,1/2+y,1/2-z
5 -x,-y,-z
6 1/2+x,y,1/2-z
7 1/2-x,1/2+y,z
8 x,1/2-y,1/2+z
_cell_length_a                   13.8165(10)
_cell_length_b                   15.3121(16)
_cell_length_c                   16.0243(12)
_cell_angle_alpha                90
_cell_angle_beta                 90
_cell_angle_gamma                90
_cell_volume                     3390.09
loop_
_atom_site_label
_atom_site_type_symbol
_atom_site_fract_x
_atom_site_fract_y
_atom_site_fract_z
C1 C 0.60051(12) 0.31361(13) 1.00242(12)
H1 H 0.6675 0.3098 1.0066
C2 C 0.55494(15) 0.39072(13) 1.02148(16)
H2 H 0.5921 0.4377 1.0394
C3 C 0.40853(12) 0.33134(12) 0.98875(11)
C4 C 0.45317(11) 0.25246(11) 0.97110(11)
C5 C 0.40115(12) 0.17208(12) 0.93911(11)
C6 C 0.30149(12) 0.35052(12) 0.97581(12)
C7 C 0.55449(15) 0.24351(13) 0.77721(13)
H3 H 0.4946 0.2576 0.7999
C8 C 0.58751(18) 0.27210(16) 0.70352(14)
H4 H 0.5560 0.3090 0.6663
C9 C 0.69599(14) 0.18652(14) 0.76153(12)
C10 C 0.78885(17) 0.1383(2) 0.77182(16)
H5 H 0.8068 0.1121 0.7197
H6 H 0.7811 0.0936 0.8133
H7 H 0.8386 0.1782 0.7892
C11 C 0.71451(18) -0.04871(15) 0.89714(15)
H8 H 0.7445 -0.0454 0.9490
C12 C 0.7398(2) -0.10347(19) 0.83508(18)
H9 H 0.7904 -0.1436 0.8356
C13 C 0.61525(15) -0.02501(13) 0.79562(14)
C14 C 0.53454(19) 0.00576(18) 0.74250(17)
H10 H 0.5061 -0.0431 0.7140
H11 H 0.5586 0.0468 0.7023
H12 H 0.4865 0.0335 0.7767
N1 N 0.54984(10) 0.24422(9) 0.97799(9)
N2 N 0.45865(12) 0.40090(11) 1.01518(13)
N3 N 0.62235(11) 0.19009(11) 0.81447(10)
N4 N 0.67696(14) 0.23571(13) 0.69455(11)
H13 H 0.7150 0.2432 0.6527
N5 N 0.63731(12) 0.00155(10) 0.87172(10)
N6 N 0.67678(16) -0.08852(14) 0.77137(13)
H14 H 0.6763 -0.1149 0.7240
O1 O 0.45481(9) 0.10794(8) 0.92060(9)
O2 O 0.31253(9) 0.17549(9) 0.93124(8)
O3 O 0.27765(10) 0.37550(10) 0.90479(9)
O4 O 0.24822(9) 0.34382(9) 1.03839(8)
Co1 Co 0.604703(16) 0.122324(15) 0.929697(15)
O5 O 0.59708(10) 0.06481(9) 1.05273(9)
H15 H 0.6527(13) 0.0709(16) 1.0735(15)
H16 H 0.5812(18) 0.0147(12) 1.0587(16)
O4B O 0.74822(9) 0.15618(9) 0.96161(8)
Co1B Co 0.104703(16) 0.377676(15) 1.070303(15)
loop_
_geom_bond_atom_site_label_1
_geom_bond_atom_site_label_2
_geom_bond_site_symmetry_1
_geom_bond_site_symmetry_2
C1 H1 1_555 1_555
C2 C1 1_555 1_555
H2 C2 1_555 1_555
C3 C4 1_555 1_555
C4 C5 1_555 1_555
C5 O1 1_555 1_555
C6 C3 1_555 1_555
C7 H3 1_555 1_555
C8 C7 1_555 1_555
H4 C8 1_555 1_555
C9 C10 1_555 1_555
C10 H5 1_555 1_555
H6 C10 1_555 1_555
H7 C10 1_555 1_555
C11 H8 1_555 1_555
C12 C11 1_555 1_555
H9 C12 1_555 1_555
C13 C14 1_555 1_555
C14 H10 1_555 1_555
H11 C14 1_555 1_555
H12 C14 1_555 1_555
N1 C1 1_555 1_555
N2 C2 1_555 1_555
N3 C7 1_555 1_555
N4 C8 1_555 1_555
H13 N4 1_555 1_555
N5 C11 1_555 1_555
N6 C12 1_555 1_555
H14 N6 1_555 1_555
O1 Co1 1_555 1_555
O2 C5 1_555 1_555
O3 C6 1_555 1_555
O4 C6 1_555 1_555
Co1 N1 1_555 1_555
O5 Co1 1_555 1_555
H15 O5 1_555 1_555
H16 O5 1_555 1_555
O4B Co1 1_555 1_555
Co1B O4 1_555 1_555
C3 N2 1_555 1_555
C4 N1 1_555 1_555
C9 N3 1_555 1_555
C9 N4 1_555 1_555
C13 N5 1_555 1_555
C13 N6 1_555 1_555
N3 Co1 1_555 1_555
N5 Co1 1_555 1_555

#END
