
#######################################################################
#
#                 Cambridge Crystallographic Data Centre
#                                CCDC 
#
#######################################################################
#
# If this CIF has been generated from an entry in the Cambridge 
# Structural Database, then it will include bibliographic, chemical, 
# crystal, experimental, refinement or atomic coordinate data resulting 
# from the CCDC's data processing and validation procedures.
#
#######################################################################

data_LIDYUS
_symmetry_cell_setting           orthorhombic
_symmetry_space_group_name_H-M   'P 21 21 21'
_symmetry_Int_Tables_number      19
_space_group_name_Hall           'P 2ac 2ab'
loop_
_symmetry_equiv_pos_site_id
_symmetry_equiv_pos_as_xyz
1 x,y,z
2 1/2+x,1/2-y,-z
3 -x,1/2+y,1/2-z
4 1/2-x,-y,1/2+z
_cell_length_a                   9.606(3)
_cell_length_b                   13.037(4)
_cell_length_c                   19.281(5)
_cell_angle_alpha                90
_cell_angle_beta                 90
_cell_angle_gamma                90
_cell_volume                     2414.63
loop_
_atom_site_label
_atom_site_type_symbol
_atom_site_fract_x
_atom_site_fract_y
_atom_site_fract_z
Zn1 Zn 0.46353(7) 0.55415(4) 0.66373(3)
Zn2 Zn 0.54367(8) 0.72867(5) 0.77774(3)
O1 O 0.3997(5) 0.6857(3) 0.6265(2)
O2 O 0.4091(5) 0.7921(3) 0.7171(2)
C1 C 0.3682(6) 0.7674(5) 0.6572(3)
C2 C 0.2778(7) 0.8432(5) 0.6201(3)
C3 C 0.2522(10) 0.8304(6) 0.5534(4)
C4 C 0.1693(14) 0.8986(8) 0.5058(4)
C5 C 0.2288(8) 0.9333(6) 0.6617(4)
O3 O 0.3611(4) 0.5268(3) 0.7490(2)
O4 O 0.4708(5) 0.6151(3) 0.8314(2)
C6 C 0.3910(7) 0.5427(5) 0.8115(3)
C7 C 0.3313(8) 0.4760(5) 0.8658(4)
C8 C 0.2269(10) 0.4123(6) 0.8483(4)
C9 C 0.1573(22) 0.3399(11) 0.9002(8)
C10 C 0.3891(10) 0.4845(8) 0.9370(4)
O5 O 0.6616(4) 0.5535(3) 0.6761(2)
O6 O 0.7233(4) 0.6885(3) 0.7417(2)
C11 C 0.7522(7) 0.6109(4) 0.7049(3)
C12 C 0.9027(6) 0.5862(5) 0.6946(3)
C13 C 0.9360(6) 0.5065(6) 0.6574(4)
C14 C 1.0801(8) 0.4691(8) 0.6422(5)
C15 C 1.0057(8) 0.6532(7) 0.7314(5)
O7 O 0.4167(4) 0.4666(3) 0.5845(2)
O8 O 0.4223(5) 0.3424(3) 0.6599(2)
C16 C 0.3992(6) 0.3746(4) 0.5995(3)
C17 C 0.3503(7) 0.3021(4) 0.5441(3)
C18 C 0.3668(10) 0.3286(6) 0.4792(4)
C19 C 0.3284(12) 0.2650(8) 0.4169(5)
C20 C 0.2834(10) 0.2052(6) 0.5686(4)
O8B O 0.5777(5) 0.8424(3) 0.8401(2)
Zn2B Zn 0.45633(8) 0.22867(5) 0.72226(3)
loop_
_geom_bond_atom_site_label_1
_geom_bond_atom_site_label_2
_geom_bond_site_symmetry_1
_geom_bond_site_symmetry_2
Zn1 O1 1_555 1_555
Zn2 O2 1_555 1_555
O1 C1 1_555 1_555
O2 C1 1_555 1_555
C1 C2 1_555 1_555
C2 C3 1_555 1_555
C3 C4 1_555 1_555
C5 C2 1_555 1_555
O3 Zn1 1_555 1_555
O4 Zn2 1_555 1_555
C6 O3 1_555 1_555
C7 C6 1_555 1_555
C8 C7 1_555 1_555
C9 C8 1_555 1_555
C10 C7 1_555 1_555
O5 Zn1 1_555 1_555
O6 Zn2 1_555 1_555
C11 O5 1_555 1_555
C12 C11 1_555 1_555
C13 C12 1_555 1_555
C14 C13 1_555 1_555
C15 C12 1_555 1_555
O7 Zn1 1_555 1_555
O8 C16 1_555 1_555
C16 O7 1_555 1_555
C17 C16 1_555 1_555
C18 C17 1_555 1_555
C19 C18 1_555 1_555
C20 C17 1_555 1_555
O8B Zn2 1_555 1_555
Zn2B O8 1_555 1_555
O4 C6 1_555 1_555
O6 C11 1_555 1_555

#END
