
#######################################################################
#
#                 Cambridge Crystallographic Data Centre
#                                CCDC 
#
#######################################################################
#
# If this CIF has been generated from an entry in the Cambridge 
# Structural Database, then it will include bibliographic, chemical, 
# crystal, experimental, refinement or atomic coordinate data resulting 
# from the CCDC's data processing and validation procedures.
#
#######################################################################

data_LIFCEK
_symmetry_cell_setting           triclinic
_symmetry_space_group_name_H-M   'P -1'
_symmetry_Int_Tables_number      2
_space_group_name_Hall           '-P 1'
loop_
_symmetry_equiv_pos_site_id
_symmetry_equiv_pos_as_xyz
1 x,y,z
2 -x,-y,-z
_cell_length_a                   8.456(6)
_cell_length_b                   8.859(6)
_cell_length_c                   12.439(9)
_cell_angle_alpha                86.456(7)
_cell_angle_beta                 71.444(6)
_cell_angle_gamma                65.929(6)
_cell_volume                     804.074
loop_
_atom_site_label
_atom_site_type_symbol
_atom_site_fract_x
_atom_site_fract_y
_atom_site_fract_z
Zn1 Zn 1.10998(6) 0.18761(6) 0.21898(4)
C1 C 1.2397(6) 0.4249(5) 0.3040(3)
C2 C 0.9378(6) 0.6400(5) 0.3777(3)
C3 C 0.8044(6) 0.9685(5) 0.4545(3)
H1 H 0.7004 1.0617 0.5020
H2 H 0.8951 0.9275 0.4934
C4 C 0.8860(6) 1.0324(5) 0.3421(3)
C5 C 1.0333(5) 0.2020(5) -0.0058(3)
C6 C 0.7742(5) 0.4649(5) 0.0394(3)
C7 C 0.5542(6) 0.7435(5) 0.1771(3)
H3 H 0.5125 0.6809 0.2378
H4 H 0.6707 0.7375 0.1784
C8 C 0.4178(6) 0.9219(6) 0.1983(4)
N1 N 1.1126(5) 0.3883(4) 0.2880(3)
N2 N 0.9380(5) 0.5135(4) 0.3312(3)
N3 N 1.4203(5) 0.3264(5) 0.2684(3)
H5 H 1.4597 0.2318 0.2323
H6 H 1.4961 0.3583 0.2819
N4 N 0.9959(4) 0.2721(4) 0.0947(2)
N5 N 0.8441(4) 0.4253(4) 0.1214(3)
N6 N 1.1735(5) 0.0577(4) -0.0509(3)
H7 H 1.2468 0.0040 -0.0137
H8 H 1.1904 0.0186 -0.1171
O1 O 0.9559(4) 1.1298(4) 0.3561(2)
O2 O 0.8835(6) 0.9899(5) 0.2527(3)
O3 O 0.3147(4) 0.9764(4) 0.1370(3)
O4 O 0.4082(5) 1.0061(4) 0.2771(3)
S1 S 1.15342(16) 0.62042(14) 0.37418(10)
S2 S 0.73081(17) 0.80766(15) 0.44376(11)
S3 S 0.88218(15) 0.31998(13) -0.07752(9)
S4 S 0.58578(16) 0.65058(14) 0.04166(10)
Zn1_2 Zn 0.10998(6) 1.18761(6) 0.21898(4)
Zn1_3 Zn 1.10998(6) 1.18761(6) 0.21898(4)
O1_2 O 0.9559(4) 0.1298(4) 0.3561(2)
O3_2 O 1.3147(4) -0.0236(4) 0.1370(3)
H9 H 0.573(8) 0.431(8) 0.449(2)
H10 H 0.679(6) 0.483(8) 0.349(4)
O5 O 0.5963(6) 0.4528(5) 0.3815(3)
loop_
_geom_bond_atom_site_label_1
_geom_bond_atom_site_label_2
_geom_bond_site_symmetry_1
_geom_bond_site_symmetry_2
Zn1 N1 1_555 1_555
C1 N1 1_555 1_555
C2 N2 1_555 1_555
C3 H1 1_555 1_555
H2 C3 1_555 1_555
C4 C3 1_555 1_555
C5 N4 1_555 1_555
C6 N5 1_555 1_555
C7 H3 1_555 1_555
H4 C7 1_555 1_555
C8 C7 1_555 1_555
N1 N2 1_555 1_555
N3 C1 1_555 1_555
H5 N3 1_555 1_555
H6 N3 1_555 1_555
N4 Zn1 1_555 1_555
N5 N4 1_555 1_555
N6 C5 1_555 1_555
H7 N6 1_555 1_555
H8 N6 1_555 1_555
O1 C4 1_555 1_555
O2 C4 1_555 1_555
O3 C8 1_555 1_555
O4 C8 1_555 1_555
S1 C1 1_555 1_555
S2 C2 1_555 1_555
S3 C5 1_555 1_555
S4 C6 1_555 1_555
H9 O5 1_555 1_555
H10 O5 1_555 1_555
Zn1_2 O3 1_555 1_555
Zn1_3 O1 1_555 1_555
O1_2 Zn1 1_555 1_555
O3_2 Zn1 1_555 1_555
C2 S1 1_555 1_555
C3 S2 1_555 1_555
C6 S3 1_555 1_555
C7 S4 1_555 1_555

#END
