
#######################################################################
#
#                 Cambridge Crystallographic Data Centre
#                                CCDC 
#
#######################################################################
#
# If this CIF has been generated from an entry in the Cambridge 
# Structural Database, then it will include bibliographic, chemical, 
# crystal, experimental, refinement or atomic coordinate data resulting 
# from the CCDC's data processing and validation procedures.
#
#######################################################################

data_LIFGUD
_symmetry_cell_setting           triclinic
_symmetry_space_group_name_H-M   'P -1'
_symmetry_Int_Tables_number      2
_space_group_name_Hall           '-P 1'
loop_
_symmetry_equiv_pos_site_id
_symmetry_equiv_pos_as_xyz
1 x,y,z
2 -x,-y,-z
_cell_length_a                   7.6158(9)
_cell_length_b                   13.4743(17)
_cell_length_c                   18.232(2)
_cell_angle_alpha                73.661(9)
_cell_angle_beta                 85.305(9)
_cell_angle_gamma                75.060(9)
_cell_volume                     1734.59
loop_
_atom_site_label
_atom_site_type_symbol
_atom_site_fract_x
_atom_site_fract_y
_atom_site_fract_z
Cu1 Cu -0.44559(14) 0.54353(7) 0.15692(5)
Cu2 Cu 0.90924(14) 0.01346(7) 0.33792(5)
C1 C 0.8823(11) -0.2184(6) 0.3579(5)
H1 H 0.8451 -0.2200 0.4080
C2 C 0.8869(13) -0.3067(6) 0.3320(6)
H2 H 0.8544 -0.3657 0.3650
C3 C 0.9839(11) -0.2241(7) 0.2181(5)
H3 H 1.0214 -0.2244 0.1683
C4 C 0.9821(10) -0.1327(6) 0.2413(5)
C5 C 1.0294(12) -0.0355(7) 0.1909(5)
C6 C -0.4152(11) 0.7745(7) 0.1044(5)
H4 H -0.3781 0.7607 0.0576
C7 C -0.4173(12) 0.8746(6) 0.1135(5)
H5 H -0.3764 0.9244 0.0741
C8 C -0.5300(12) 0.8216(7) 0.2324(5)
H6 H -0.5728 0.8354 0.2787
C9 C -0.5244(11) 0.7233(6) 0.2237(5)
C10 C -0.5761(11) 0.6362(7) 0.2878(5)
C11 C 0.6059(11) 0.2048(6) 0.3266(4)
H7 H 0.6838 0.2287 0.3504
C12 C 0.4390(12) 0.2734(6) 0.3020(4)
H8 H 0.4086 0.3415 0.3091
C13 C 0.3197(11) 0.2414(5) 0.2675(4)
C14 C 0.3726(11) 0.1366(6) 0.2594(4)
H9 H 0.2950 0.1094 0.2381
C15 C 0.5413(12) 0.0767(6) 0.2838(4)
H10 H 0.5763 0.0090 0.2760
C16 C -0.1519(11) 0.3456(6) 0.1834(4)
H11 H -0.2312 0.3187 0.1628
C17 C 0.0145(12) 0.2782(6) 0.2104(4)
H12 H 0.0420 0.2078 0.2080
C18 C 0.1396(12) 0.3130(5) 0.2407(4)
C19 C 0.0855(10) 0.4181(5) 0.2441(4)
H13 H 0.1614 0.4465 0.2653
C20 C -0.0809(11) 0.4799(6) 0.2158(4)
H14 H -0.1111 0.5506 0.2176
C21 C -0.7668(13) 0.6094(6) 0.0633(5)
H15 H -0.7635 0.6757 0.0681
C22 C -0.9120(11) 0.6045(6) 0.0260(4)
H16 H -1.0030 0.6655 0.0066
C23 C -0.9202(10) 0.5059(5) 0.0178(4)
C24 C -0.7782(10) 0.4195(6) 0.0477(4)
H17 H -0.7787 0.3519 0.0446
C25 C -0.6365(11) 0.4342(6) 0.0821(4)
H18 H -0.5392 0.3755 0.0987
C26 C 1.2393(12) -0.0805(6) 0.4265(4)
H19 H 1.2273 -0.1416 0.4152
C27 C 1.3926(12) -0.0885(6) 0.4645(4)
H20 H 1.4798 -0.1529 0.4782
C28 C 1.4156(10) 0.0005(5) 0.4820(4)
C29 C 1.2758(11) 0.0934(6) 0.4606(4)
H21 H 1.2848 0.1558 0.4708
C30 C 1.1273(12) 0.0921(6) 0.4251(4)
H22 H 1.0338 0.1539 0.4143
N1 N 0.9292(8) -0.1313(5) 0.3139(4)
N2 N 0.9369(12) -0.3079(6) 0.2611(5)
N3 N -0.4632(9) 0.6997(5) 0.1589(4)
N4 N -0.4781(11) 0.8987(6) 0.1788(5)
N5 N 0.6612(8) 0.1056(4) 0.3178(3)
N6 N -0.2032(8) 0.4474(4) 0.1859(3)
N7 N -0.6284(9) 0.5259(5) 0.0934(3)
N8 N 1.1050(9) 0.0082(5) 0.4042(3)
O1 O 1.0200(8) 0.0401(4) 0.2188(3)
O2 O 1.0785(10) -0.0357(5) 0.1235(4)
O3 O -0.5577(7) 0.5474(4) 0.2758(3)
O4 O -0.6379(8) 0.6622(4) 0.3471(3)
Cu1A Cu -1.55441(14) 0.45647(7) -0.15692(5)
Cu2A Cu -2.90924(14) 0.98654(7) -0.33792(5)
Cu2A_2 Cu 2.09076(14) -0.01346(7) 0.66208(5)
C1A C -2.8823(11) 1.2184(6) -0.3579(5)
H1A H -2.8451 1.2200 -0.4080
C2A C -2.8869(13) 1.3067(6) -0.3320(6)
H2A H -2.8544 1.3657 -0.3650
C3A C -2.9839(11) 1.2241(7) -0.2181(5)
H3A H -3.0214 1.2244 -0.1683
C4A C -2.9821(10) 1.1327(6) -0.2413(5)
C5A C -3.0294(12) 1.0355(7) -0.1909(5)
C6A C -1.5848(11) 0.2255(7) -0.1044(5)
H4A H -1.6219 0.2393 -0.0576
C7A C -1.5827(12) 0.1254(6) -0.1135(5)
H5A H -1.6236 0.0756 -0.0741
C8A C -1.4700(12) 0.1784(7) -0.2324(5)
H6A H -1.4272 0.1646 -0.2787
C9A C -1.4756(11) 0.2767(6) -0.2237(5)
C10A C -1.4239(11) 0.3638(7) -0.2878(5)
C11A C -2.6059(11) 0.7952(6) -0.3266(4)
H7A H -2.6838 0.7713 -0.3504
C12A C -2.4390(12) 0.7266(6) -0.3020(4)
H8A H -2.4086 0.6585 -0.3091
C13A C -2.3197(11) 0.7586(5) -0.2675(4)
C14A C -2.3726(11) 0.8634(6) -0.2594(4)
H9A H -2.2950 0.8906 -0.2381
C15A C -2.5413(12) 0.9233(6) -0.2838(4)
H10A H -2.5763 0.9910 -0.2760
C16A C -1.8481(11) 0.6544(6) -0.1834(4)
H11A H -1.7688 0.6813 -0.1628
C17A C -2.0145(12) 0.7218(6) -0.2104(4)
H12A H -2.0420 0.7922 -0.2080
C18A C -2.1396(12) 0.6870(5) -0.2407(4)
C19A C -2.0855(10) 0.5819(5) -0.2441(4)
H13A H -2.1614 0.5535 -0.2653
C20A C -1.9191(11) 0.5201(6) -0.2158(4)
H14A H -1.8889 0.4494 -0.2176
C21A C -1.2332(13) 0.3906(6) -0.0633(5)
H15A H -1.2365 0.3243 -0.0681
C22A C -1.0880(11) 0.3955(6) -0.0260(4)
H16A H -0.9970 0.3345 -0.0066
C23A C -1.0798(10) 0.4941(5) -0.0178(4)
C24A C -1.2218(10) 0.5805(6) -0.0477(4)
H17A H -1.2213 0.6481 -0.0446
C25A C -1.3635(11) 0.5658(6) -0.0821(4)
H18A H -1.4608 0.6245 -0.0987
C26A C 1.7607(12) 0.0805(6) 0.5735(4)
H19A H 1.7727 0.1416 0.5848
C27A C 1.6074(12) 0.0885(6) 0.5355(4)
H20A H 1.5202 0.1529 0.5218
C28A C 1.5844(10) -0.0005(5) 0.5180(4)
C29A C 1.7242(11) -0.0934(6) 0.5394(4)
H21A H 1.7152 -0.1558 0.5292
C30A C 1.8727(12) -0.0921(6) 0.5749(4)
H22A H 1.9662 -0.1539 0.5857
N1A N -2.9292(8) 1.1313(5) -0.3139(4)
N2A N -2.9369(12) 1.3079(6) -0.2611(5)
N3A N -1.5368(9) 0.3003(5) -0.1589(4)
N4A N -1.5219(11) 0.1013(6) -0.1788(5)
N5A N -2.6612(8) 0.8944(4) -0.3178(3)
N6A N -1.7968(8) 0.5526(4) -0.1859(3)
N7A N -1.3716(9) 0.4741(5) -0.0934(3)
N8A N 1.8950(9) -0.0082(5) 0.5958(3)
N8A_2 N -3.1050(9) 0.9918(5) -0.4042(3)
O1A O -3.0200(8) 0.9599(4) -0.2188(3)
O2A O -3.0785(10) 1.0357(5) -0.1235(4)
O3A O -1.4423(7) 0.4526(4) -0.2758(3)
O4A O -1.3621(8) 0.3378(4) -0.3471(3)
O5 O 0.8909(13) 0.1328(5) 0.9909(4)
H23 H 0.9016 0.1028 0.9551
H24 H 0.9048 0.0885 1.0349
O6 O 0.7418(12) 0.8563(5) 0.9325(4)
H25 H 0.6382 0.8488 0.9245
H26 H 0.7260 0.9219 0.9086
O7 O 0.9705(9) 0.6454(4) 0.5466(3)
H27 H 0.9173 0.5936 0.5484
H28 H 1.0722 0.6522 0.5577
O8 O 0.3040(9) 0.6063(5) 0.6102(3)
H29 H 0.3666 0.6172 0.6423
H30 H 0.3702 0.6217 0.5709
O9 O 0.5300(8) 0.6559(4) 0.4800(3)
H31 H 0.6126 0.6027 0.5025
H32 H 0.4796 0.7111 0.4456
O10 O 0.2035(8) 0.5187(4) 0.4478(3)
H33 H 0.2537 0.5636 0.4167
H34 H 0.1081 0.5088 0.4734
O11 O 0.6301(16) 0.1707(7) 0.0966(5)
H35 H 0.5259 0.1636 0.0889
H36 H 0.7118 0.1589 0.0633
loop_
_geom_bond_atom_site_label_1
_geom_bond_atom_site_label_2
_geom_bond_site_symmetry_1
_geom_bond_site_symmetry_2
Cu1 N3 1_555 1_555
Cu2 N1 1_555 1_555
C1 H1 1_555 1_555
C2 C1 1_555 1_555
H2 C2 1_555 1_555
C3 H3 1_555 1_555
C4 C3 1_555 1_555
C5 C4 1_555 1_555
C6 H4 1_555 1_555
C7 C6 1_555 1_555
H5 C7 1_555 1_555
C8 H6 1_555 1_555
C9 C8 1_555 1_555
C10 C9 1_555 1_555
C11 H7 1_555 1_555
C12 C11 1_555 1_555
H8 C12 1_555 1_555
C13 C12 1_555 1_555
C14 C13 1_555 1_555
H9 C14 1_555 1_555
C15 C14 1_555 1_555
H10 C15 1_555 1_555
C16 H11 1_555 1_555
C17 C16 1_555 1_555
H12 C17 1_555 1_555
C18 C13 1_555 1_555
C19 C18 1_555 1_555
H13 C19 1_555 1_555
C20 C19 1_555 1_555
H14 C20 1_555 1_555
C21 H15 1_555 1_555
C22 C21 1_555 1_555
H16 C22 1_555 1_555
C23 C22 1_555 1_555
C24 C23 1_555 1_555
H17 C24 1_555 1_555
C25 C24 1_555 1_555
H18 C25 1_555 1_555
C26 H19 1_555 1_555
C27 C26 1_555 1_555
H20 C27 1_555 1_555
C28 C27 1_555 1_555
C29 C28 1_555 1_555
H21 C29 1_555 1_555
C30 C29 1_555 1_555
H22 C30 1_555 1_555
N1 C1 1_555 1_555
N2 C2 1_555 1_555
N3 C6 1_555 1_555
N4 C7 1_555 1_555
N5 Cu2 1_555 1_555
N6 Cu1 1_555 1_555
N7 Cu1 1_555 1_555
N8 Cu2 1_555 1_555
O1 Cu2 1_555 1_555
O2 C5 1_555 1_555
O3 Cu1 1_555 1_555
O4 C10 1_555 1_555
O5 H23 1_555 1_555
H24 O5 1_555 1_555
O6 H25 1_555 1_555
H26 O6 1_555 1_555
O7 H27 1_555 1_555
H28 O7 1_555 1_555
O8 H29 1_555 1_555
H30 O8 1_555 1_555
O9 H31 1_555 1_555
H32 O9 1_555 1_555
O10 H33 1_555 1_555
H34 O10 1_555 1_555
O11 H35 1_555 1_555
H36 O11 1_555 1_555
Cu1A N3A 1_555 1_555
Cu2A N1A 1_555 1_555
Cu2A_2 N8A 1_555 1_555
C1A H1A 1_555 1_555
C2A C1A 1_555 1_555
H2A C2A 1_555 1_555
C3A H3A 1_555 1_555
C4A C3A 1_555 1_555
C5A C4A 1_555 1_555
C6A H4A 1_555 1_555
C7A C6A 1_555 1_555
H5A C7A 1_555 1_555
C8A H6A 1_555 1_555
C9A C8A 1_555 1_555
C10A C9A 1_555 1_555
C11A H7A 1_555 1_555
C12A C11A 1_555 1_555
H8A C12A 1_555 1_555
C13A C12A 1_555 1_555
C14A C13A 1_555 1_555
H9A C14A 1_555 1_555
C15A C14A 1_555 1_555
H10A C15A 1_555 1_555
C16A H11A 1_555 1_555
C17A C16A 1_555 1_555
H12A C17A 1_555 1_555
C18A C13A 1_555 1_555
C19A C18A 1_555 1_555
H13A C19A 1_555 1_555
C20A C19A 1_555 1_555
H14A C20A 1_555 1_555
C21A H15A 1_555 1_555
C22A C21A 1_555 1_555
H16A C22A 1_555 1_555
C23A C23 1_555 1_555
C24A C23A 1_555 1_555
H17A C24A 1_555 1_555
C25A C24A 1_555 1_555
H18A C25A 1_555 1_555
C26A H19A 1_555 1_555
C27A C26A 1_555 1_555
H20A C27A 1_555 1_555
C28A C28 1_555 1_555
C29A C28A 1_555 1_555
H21A C29A 1_555 1_555
C30A C29A 1_555 1_555
H22A C30A 1_555 1_555
N1A C1A 1_555 1_555
N2A C2A 1_555 1_555
N3A C6A 1_555 1_555
N4A C7A 1_555 1_555
N5A Cu2A 1_555 1_555
N6A Cu1A 1_555 1_555
N7A Cu1A 1_555 1_555
N8A C26A 1_555 1_555
N8A_2 Cu2A 1_555 1_555
O1A Cu2A 1_555 1_555
O2A C5A 1_555 1_555
O3A Cu1A 1_555 1_555
O4A C10A 1_555 1_555
C3 N2 1_555 1_555
C4 N1 1_555 1_555
C5 O1 1_555 1_555
C8 N4 1_555 1_555
C9 N3 1_555 1_555
C10 O3 1_555 1_555
C11 N5 1_555 1_555
C15 N5 1_555 1_555
C16 N6 1_555 1_555
C17 C18 1_555 1_555
C20 N6 1_555 1_555
C21 N7 1_555 1_555
C25 N7 1_555 1_555
C26 N8 1_555 1_555
C30 N8 1_555 1_555
C3A N2A 1_555 1_555
C4A N1A 1_555 1_555
C5A O1A 1_555 1_555
C8A N4A 1_555 1_555
C9A N3A 1_555 1_555
C10A O3A 1_555 1_555
C11A N5A 1_555 1_555
C15A N5A 1_555 1_555
C16A N6A 1_555 1_555
C17A C18A 1_555 1_555
C20A N6A 1_555 1_555
C21A N7A 1_555 1_555
C22A C23A 1_555 1_555
C25A N7A 1_555 1_555
C27A C28A 1_555 1_555
C30A N8A 1_555 1_555

#END
