
#######################################################################
#
#                 Cambridge Crystallographic Data Centre
#                                CCDC 
#
#######################################################################
#
# If this CIF has been generated from an entry in the Cambridge 
# Structural Database, then it will include bibliographic, chemical, 
# crystal, experimental, refinement or atomic coordinate data resulting 
# from the CCDC's data processing and validation procedures.
#
#######################################################################

data_LIFHEP
_symmetry_cell_setting           monoclinic
_symmetry_space_group_name_H-M   'P 21/n'
_symmetry_Int_Tables_number      14
_space_group_name_Hall           '-P 2yn'
loop_
_symmetry_equiv_pos_site_id
_symmetry_equiv_pos_as_xyz
1 x,y,z
2 1/2-x,1/2+y,1/2-z
3 -x,-y,-z
4 1/2+x,1/2-y,1/2+z
_cell_length_a                   10.7182(10)
_cell_length_b                   7.0377(6)
_cell_length_c                   29.225(3)
_cell_angle_alpha                90
_cell_angle_beta                 95.7170(10)
_cell_angle_gamma                90
_cell_volume                     2193.52
loop_
_atom_site_label
_atom_site_type_symbol
_atom_site_fract_x
_atom_site_fract_y
_atom_site_fract_z
C1 C 0.6102(3) 0.1685(4) 0.33790(10)
C2 C 0.4813(3) 0.1610(4) 0.34170(10)
C3 C 0.5168(3) 0.1875(5) 0.41943(11)
H1 H 0.4888 0.1787 0.4491
C4 C 0.6447(3) 0.1958(5) 0.41587(12)
H2 H 0.6878 0.2000 0.4439
C5 C 0.3784(2) 0.1456(4) 0.30199(10)
C6 C 0.6674(3) 0.1584(4) 0.29264(11)
C7 C 0.5336(3) 0.6730(6) 0.39344(13)
H3 H 0.6137 0.6932 0.3781
C8 C 0.5411(3) 0.6869(6) 0.44062(14)
H4 H 0.6135 0.7450 0.4591
C9 C 0.3238(3) 0.6265(4) 0.39096(11)
C10 C 0.3312(3) 0.6488(5) 0.43849(11)
C11 C 0.2153(3) 0.6575(5) 0.46460(11)
C12 C 0.2009(3) 0.5802(5) 0.36369(10)
N1 N 0.6921(2) 0.1856(4) 0.37571(9)
N2 N 0.4347(2) 0.1682(4) 0.38263(9)
N3 N 0.4405(3) 0.6789(5) 0.46390(10)
O1 O 0.59424(19) 0.1533(3) 0.25650(7)
O2 O 0.7841(2) 0.1569(4) 0.29467(8)
O3 O 0.1501(2) 0.8049(4) 0.45748(9)
O4 O 0.1960(2) 0.5269(4) 0.49131(9)
O5 O 0.1211(2) 0.4962(4) 0.38327(8)
O6 O 0.19044(19) 0.6286(3) 0.32161(7)
O7 O 0.0323(2) -0.0519(3) 0.29932(8)
H5 H -0.0063 -0.1263 0.2849
H6 H 0.0784 -0.1383 0.3106
O8 O 0.03138(19) 0.3604(3) 0.28791(7)
H7 H -0.0204 0.4199 0.2709
H8 H 0.0816 0.4677 0.2978
O9 O -0.1646(2) 0.5712(4) 0.34088(10)
H9 H -0.1595 0.6562 0.3576
H10 H -0.1249 0.6027 0.3142
O10 O 0.1677(2) 0.0719(4) 0.38952(10)
H11 H 0.2396 0.1168 0.3888
H12 H 0.1838 0.0113 0.4165
O11 O -0.0477(3) 0.3528(5) 0.44181(10)
H13 H -0.0775 0.3813 0.4623
H14 H 0.0388 0.3933 0.4481
O12 O -0.0816(2) -0.1219(4) 0.40253(9)
H15 H -0.1202 -0.1108 0.4290
H16 H 0.0018 -0.1557 0.4119
O13 O -0.1032(2) 0.1333(4) 0.21497(8)
H17 H -0.1603 0.1128 0.1965
H18 H -0.1457 0.1264 0.2413
Sr1 Sr 0.13643(2) 0.14195(4) 0.230711(9)
Sr2 Sr -0.04868(2) 0.21648(5) 0.361450(10)
N4 N 0.4252(2) 0.6430(4) 0.36796(9)
O14 O 0.33818(19) -0.0152(3) 0.29075(7)
O15 O 0.33302(19) 0.2973(3) 0.28548(8)
N1_2 N -0.3079(2) 0.1856(4) 0.37571(9)
O2_2 O -0.2159(2) 0.1569(4) 0.29467(8)
O6A O 0.30956(19) 0.1286(3) 0.17839(7)
Sr1A Sr 0.36357(2) -0.35805(4) 0.269289(9)
Sr1A_2 Sr 0.36357(2) 0.64195(4) 0.269289(9)
Sr2_2 Sr 0.95132(2) 0.21648(5) 0.361450(10)
N4A N 0.0748(2) 0.1430(4) 0.13204(9)
O14A O 0.16182(19) 0.4848(3) 0.20925(7)
O15A O 0.16698(19) -0.2027(3) 0.21452(8)
O16 O 0.8119(3) 0.8703(4) 0.48398(11)
H19 H 0.8147 0.9803 0.4721
H20 H 0.7742 0.8630 0.5082
loop_
_geom_bond_atom_site_label_1
_geom_bond_atom_site_label_2
_geom_bond_site_symmetry_1
_geom_bond_site_symmetry_2
C1 C2 1_555 1_555
C2 C5 1_555 1_555
C3 H1 1_555 1_555
C4 C3 1_555 1_555
H2 C4 1_555 1_555
C5 O14 1_555 1_555
C6 C1 1_555 1_555
C7 H3 1_555 1_555
C8 C7 1_555 1_555
H4 C8 1_555 1_555
C9 C10 1_555 1_555
C10 C11 1_555 1_555
C11 O3 1_555 1_555
C12 C9 1_555 1_555
N1 C1 1_555 1_555
N2 C2 1_555 1_555
N3 C8 1_555 1_555
O1 C6 1_555 1_555
O2 C6 1_555 1_555
O4 C11 1_555 1_555
O5 C12 1_555 1_555
O6 C12 1_555 1_555
O7 H5 1_555 1_555
H6 O7 1_555 1_555
O8 H7 1_555 1_555
H8 O8 1_555 1_555
O9 H9 1_555 1_555
H10 O9 1_555 1_555
O10 H11 1_555 1_555
H12 O10 1_555 1_555
O11 H13 1_555 1_555
H14 O11 1_555 1_555
O12 H15 1_555 1_555
H16 O12 1_555 1_555
O13 H17 1_555 1_555
H18 O13 1_555 1_555
Sr1 O7 1_555 1_555
Sr2 O5 1_555 1_555
N4 C7 1_555 1_555
O14 Sr1 1_555 1_555
O15 C5 1_555 1_555
O16 H19 1_555 1_555
H20 O16 1_555 1_555
N1_2 Sr2 1_555 1_555
O2_2 Sr2 1_555 1_555
O6A Sr1 1_555 1_555
Sr1A O14 1_555 1_555
Sr1A_2 O6 1_555 1_555
Sr2_2 N1 1_555 1_555
N4A Sr1 1_555 1_555
O14A Sr1 1_555 1_555
O15A Sr1 1_555 1_555
C3 N2 1_555 1_555
C4 N1 1_555 1_555
C9 N4 1_555 1_555
C10 N3 1_555 1_555
O2 Sr2_2 1_555 1_555
O7 Sr2 1_555 1_555
O8 Sr1 1_555 1_555
O8 Sr2 1_555 1_555
O9 Sr2 1_555 1_555
O10 Sr2 1_555 1_555
O11 Sr2 1_555 1_555
O12 Sr2 1_555 1_555
O13 Sr1 1_555 1_555
Sr1 O15 1_555 1_555
N4 Sr1A_2 1_555 1_555
O15 Sr1A_2 1_555 1_555
Sr1A O15A 1_555 1_555
Sr1A_2 O14A 1_555 1_555

#END
