
#######################################################################
#
#                 Cambridge Crystallographic Data Centre
#                                CCDC 
#
#######################################################################
#
# If this CIF has been generated from an entry in the Cambridge 
# Structural Database, then it will include bibliographic, chemical, 
# crystal, experimental, refinement or atomic coordinate data resulting 
# from the CCDC's data processing and validation procedures.
#
#######################################################################

data_LIFHAL
_symmetry_cell_setting           tetragonal
_symmetry_space_group_name_H-M   'P 42/n'
_symmetry_Int_Tables_number      86
_space_group_name_Hall           '-P 4bc'
loop_
_symmetry_equiv_pos_site_id
_symmetry_equiv_pos_as_xyz
1 x,y,z
2 -y,1/2+x,1/2+z
3 1/2-x,1/2-y,z
4 1/2+y,-x,1/2+z
5 -x,-y,-z
6 y,1/2-x,1/2-z
7 1/2+x,1/2+y,-z
8 1/2-y,x,1/2-z
_cell_length_a                   12.31890(10)
_cell_length_b                   12.31890(10)
_cell_length_c                   8.29620(10)
_cell_angle_alpha                90
_cell_angle_beta                 90
_cell_angle_gamma                90
_cell_volume                     1258.99
loop_
_atom_site_label
_atom_site_type_symbol
_atom_site_fract_x
_atom_site_fract_y
_atom_site_fract_z
Cu1 Cu 0.2500 0.2500 0.2500
Ti1 Ti 0.2500 0.2500 -0.2500
F1 F 0.2500 0.2500 -0.0291(3)
F2 F 0.2424(2) 0.39745(15) -0.25327(15)
N1 N 0.17636(17) 0.10406(17) 0.2604(2)
N2 N 0.11078(16) -0.04673(15) 0.3630(3)
C1 C 0.16730(19) 0.04575(18) 0.3912(3)
H1 H 0.1959 0.0652 0.4908
C2 C 0.0826(2) -0.0450(2) 0.2039(4)
H2 H 0.0429 -0.0975 0.1489
C3 C 0.1233(2) 0.0476(2) 0.1418(3)
H3 H 0.1165 0.0697 0.0351
C4 C 0.0860(2) -0.1293(2) 0.4763(4)
H4 H 0.0424 -0.1864 0.4422
C5 C 0.1198(3) -0.1307(3) 0.6231(4)
H5 H 0.1636 -0.0748 0.6613
H6 H 0.1004 -0.1875 0.6910
F2B F 0.2576(2) 0.10255(15) -0.25327(15)
N1B N 0.32364(17) 0.39594(17) 0.2604(2)
N2B N 0.38922(16) 0.54673(15) 0.3630(3)
C1B C 0.33270(19) 0.45425(18) 0.3912(3)
H1B H 0.3041 0.4348 0.4908
C2B C 0.4174(2) 0.5450(2) 0.2039(4)
H2B H 0.4571 0.5975 0.1489
C3B C 0.3767(2) 0.4524(2) 0.1418(3)
H3B H 0.3835 0.4303 0.0351
C4B C 0.4140(2) 0.6293(2) 0.4763(4)
H4B H 0.4576 0.6864 0.4422
C5B C 0.3802(3) 0.6307(3) 0.6231(4)
H5B H 0.3364 0.5748 0.6613
H6B H 0.3996 0.6875 0.6910
F1E F 0.2500 0.2500 -0.4709(3)
F2E F 0.39745(15) 0.2576(2) -0.24673(15)
F2G F 0.10255(15) 0.2424(2) -0.24673(15)
N1E N 0.10406(17) 0.32364(17) 0.2396(2)
N2E N -0.04673(15) 0.38922(16) 0.1370(3)
C1E C 0.04575(18) 0.33270(19) 0.1088(3)
H1E H 0.0652 0.3041 0.0092
C2E C -0.0450(2) 0.4174(2) 0.2961(4)
H2E H -0.0975 0.4571 0.3511
C3E C 0.0476(2) 0.3767(2) 0.3582(3)
H3E H 0.0697 0.3835 0.4649
C4E C -0.1293(2) 0.4140(2) 0.0237(4)
H4E H -0.1864 0.4576 0.0578
C5E C -0.1307(3) 0.3802(3) -0.1231(4)
H5E H -0.0748 0.3364 -0.1613
H6E H -0.1875 0.3996 -0.1910
N1G N 0.39594(17) 0.17636(17) 0.2396(2)
N2G N 0.54673(15) 0.11078(16) 0.1370(3)
C1G C 0.45425(18) 0.16730(19) 0.1088(3)
H1G H 0.4348 0.1959 0.0092
C2G C 0.5450(2) 0.0826(2) 0.2961(4)
H2G H 0.5975 0.0429 0.3511
C3G C 0.4524(2) 0.1233(2) 0.3582(3)
H3G H 0.4303 0.1165 0.4649
C4G C 0.6293(2) 0.0860(2) 0.0237(4)
H4G H 0.6864 0.0424 0.0578
C5G C 0.6307(3) 0.1198(3) -0.1231(4)
H5G H 0.5748 0.1636 -0.1613
H6G H 0.6875 0.1004 -0.1910
Cu1_2 Cu 0.2500 0.2500 -0.7500
F1E_2 F 0.2500 0.2500 0.5291(3)
loop_
_geom_bond_atom_site_label_1
_geom_bond_atom_site_label_2
_geom_bond_site_symmetry_1
_geom_bond_site_symmetry_2
Cu1 F1 1_555 1_555
Ti1 F1 1_555 1_555
F2 Ti1 1_555 1_555
N1 Cu1 1_555 1_555
N2 C1 1_555 1_555
C1 N1 1_555 1_555
H1 C1 1_555 1_555
C2 N2 1_555 1_555
H2 C2 1_555 1_555
C3 N1 1_555 1_555
H3 C3 1_555 1_555
C4 N2 1_555 1_555
H4 C4 1_555 1_555
C5 C4 1_555 1_555
H5 C5 1_555 1_555
H6 C5 1_555 1_555
F2B Ti1 1_555 1_555
N1B Cu1 1_555 1_555
N2B C1B 1_555 1_555
C1B N1B 1_555 1_555
H1B C1B 1_555 1_555
C2B N2B 1_555 1_555
H2B C2B 1_555 1_555
C3B N1B 1_555 1_555
H3B C3B 1_555 1_555
C4B N2B 1_555 1_555
H4B C4B 1_555 1_555
C5B C4B 1_555 1_555
H5B C5B 1_555 1_555
H6B C5B 1_555 1_555
F1E Ti1 1_555 1_555
F2E Ti1 1_555 1_555
F2G Ti1 1_555 1_555
N1E Cu1 1_555 1_555
N2E C1E 1_555 1_555
C1E N1E 1_555 1_555
H1E C1E 1_555 1_555
C2E N2E 1_555 1_555
H2E C2E 1_555 1_555
C3E N1E 1_555 1_555
H3E C3E 1_555 1_555
C4E N2E 1_555 1_555
H4E C4E 1_555 1_555
C5E C4E 1_555 1_555
H5E C5E 1_555 1_555
H6E C5E 1_555 1_555
N1G Cu1 1_555 1_555
N2G C1G 1_555 1_555
C1G N1G 1_555 1_555
H1G C1G 1_555 1_555
C2G N2G 1_555 1_555
H2G C2G 1_555 1_555
C3G N1G 1_555 1_555
H3G C3G 1_555 1_555
C4G N2G 1_555 1_555
H4G C4G 1_555 1_555
C5G C4G 1_555 1_555
H5G C5G 1_555 1_555
H6G C5G 1_555 1_555
Cu1_2 F1E 1_555 1_555
F1E_2 Cu1 1_555 1_555
C2 C3 1_555 1_555
C2B C3B 1_555 1_555
C2E C3E 1_555 1_555
C2G C3G 1_555 1_555

#END
