
#######################################################################
#
#                 Cambridge Crystallographic Data Centre
#                                CCDC 
#
#######################################################################
#
# If this CIF has been generated from an entry in the Cambridge 
# Structural Database, then it will include bibliographic, chemical, 
# crystal, experimental, refinement or atomic coordinate data resulting 
# from the CCDC's data processing and validation procedures.
#
#######################################################################

data_LIFLUI
_symmetry_cell_setting           triclinic
_symmetry_space_group_name_H-M   'P -1'
_symmetry_Int_Tables_number      2
_space_group_name_Hall           '-P 1'
loop_
_symmetry_equiv_pos_site_id
_symmetry_equiv_pos_as_xyz
1 x,y,z
2 -x,-y,-z
_cell_length_a                   9.8851(14)
_cell_length_b                   11.0546(15)
_cell_length_c                   11.1583(16)
_cell_angle_alpha                105.955(3)
_cell_angle_beta                 96.951(3)
_cell_angle_gamma                107.728(3)
_cell_volume                     1088.43
loop_
_atom_site_label
_atom_site_type_symbol
_atom_site_fract_x
_atom_site_fract_y
_atom_site_fract_z
Cu1 Cu -0.20827(4) -0.49040(3) -0.60797(3)
O1 O -0.2545(2) -0.61239(19) -0.5089(2)
O2 O -0.0342(2) -0.6227(2) -0.4583(2)
O3 O -0.1173(3) -0.7883(2) -0.3297(3)
H1 H -0.0340 -0.7405 -0.3258
C1 C -0.1625(3) -0.6482(3) -0.4514(3)
C2 C -0.2160(4) -0.7267(4) -0.3621(4)
C3 C -0.2160(7) -0.6228(6) -0.2360(5)
H2 H -0.2411 -0.6674 -0.1749
H3 H -0.2861 -0.5821 -0.2529
H4 H -0.1209 -0.5545 -0.2023
C4 C -0.3620(5) -0.8327(6) -0.4207(7)
H5 H -0.3581 -0.8943 -0.4988
H6 H -0.4315 -0.7919 -0.4388
H7 H -0.3907 -0.8804 -0.3626
O4 O -0.1979(2) -0.37612(19) -0.71739(19)
O5 O -0.4388(3) -0.4423(3) -0.7636(3)
O6 O -0.4489(4) -0.2904(4) -0.9030(4)
C5 C -0.3178(3) -0.3739(3) -0.7702(3)
C6 C -0.3060(4) -0.2778(4) -0.8485(4)
C7 C -0.2291(6) -0.3166(5) -0.9553(4)
H8 H -0.2862 -0.4054 -1.0126
H9 H -0.1351 -0.3149 -0.9193
H10 H -0.2176 -0.2538 -1.0014
C8 C -0.2257(5) -0.1333(4) -0.7608(5)
H11 H -0.2203 -0.0735 -0.8097
H12 H -0.1290 -0.1236 -0.7224
H13 H -0.2771 -0.1118 -0.6951
N1 N -0.2447(3) -0.3496(2) -0.4671(2)
N2 N -0.2021(3) 0.3601(2) 0.2415(2)
C9 C -0.3343(3) -0.3828(3) -0.3910(3)
H14 H -0.3806 -0.4734 -0.4026
C10 C -0.3610(3) -0.2886(3) -0.2963(3)
H15 H -0.4236 -0.3162 -0.2454
C11 C -0.2942(3) -0.1521(3) -0.2770(3)
C12 C -0.2035(4) -0.1190(3) -0.3567(3)
H16 H -0.1582 -0.0292 -0.3486
C13 C -0.1796(4) -0.2178(3) -0.4482(3)
H17 H -0.1159 -0.1923 -0.4991
C14 C -0.3187(4) -0.0461(3) -0.1722(4)
H18 H -0.3640 0.0050 -0.2104
H19 H -0.3854 -0.0901 -0.1272
C15 C -0.1811(4) 0.0479(4) -0.0788(3)
H20 H -0.1171 0.0933 -0.1247
H21 H -0.1339 -0.0053 -0.0459
C16 C -0.1934(3) 0.1537(3) 0.0338(3)
C17 C -0.3046(4) 0.2052(3) 0.0289(3)
H22 H -0.3792 0.1707 -0.0441
C18 C -0.3040(3) 0.3083(3) 0.1331(3)
H23 H -0.3783 0.3430 0.1273
C19 C -0.0878(4) 0.2086(3) 0.1458(3)
H24 H -0.0112 0.1769 0.1531
C20 C -0.0945(4) 0.3098(3) 0.2470(3)
H25 H -0.0222 0.3445 0.3216
H26 H -0.497(7) -0.362(5) -0.886(7)
Cu1A Cu 0.20827(4) -0.50960(3) -0.39203(3)
Cu1_2 Cu -0.20827(4) 0.50960(3) 0.39203(3)
O2A O 0.0342(2) -0.3773(2) -0.5417(2)
N2_2 N -0.2021(3) -0.6399(2) -0.7585(2)
loop_
_geom_bond_atom_site_label_1
_geom_bond_atom_site_label_2
_geom_bond_site_symmetry_1
_geom_bond_site_symmetry_2
Cu1 O1 1_555 1_555
O1 C1 1_555 1_555
O2 C1 1_555 1_555
O3 H1 1_555 1_555
C1 C2 1_555 1_555
C2 O3 1_555 1_555
C3 C2 1_555 1_555
H2 C3 1_555 1_555
H3 C3 1_555 1_555
H4 C3 1_555 1_555
C4 C2 1_555 1_555
H5 C4 1_555 1_555
H6 C4 1_555 1_555
H7 C4 1_555 1_555
O4 Cu1 1_555 1_555
O5 C5 1_555 1_555
O6 C6 1_555 1_555
C5 O4 1_555 1_555
C6 C5 1_555 1_555
C7 C6 1_555 1_555
H8 C7 1_555 1_555
H9 C7 1_555 1_555
H10 C7 1_555 1_555
C8 C6 1_555 1_555
H11 C8 1_555 1_555
H12 C8 1_555 1_555
H13 C8 1_555 1_555
N1 Cu1 1_555 1_555
N2 C18 1_555 1_555
C9 N1 1_555 1_555
H14 C9 1_555 1_555
C10 C9 1_555 1_555
H15 C10 1_555 1_555
C11 C10 1_555 1_555
C12 C11 1_555 1_555
H16 C12 1_555 1_555
C13 N1 1_555 1_555
H17 C13 1_555 1_555
C14 C11 1_555 1_555
H18 C14 1_555 1_555
H19 C14 1_555 1_555
C15 C14 1_555 1_555
H20 C15 1_555 1_555
H21 C15 1_555 1_555
C16 C15 1_555 1_555
C17 C16 1_555 1_555
H22 C17 1_555 1_555
C18 C17 1_555 1_555
H23 C18 1_555 1_555
C19 C16 1_555 1_555
H24 C19 1_555 1_555
C20 N2 1_555 1_555
H25 C20 1_555 1_555
H26 O6 1_555 1_555
Cu1A O2 1_555 1_555
Cu1_2 N2 1_555 1_555
O2A Cu1 1_555 1_555
N2_2 Cu1 1_555 1_555
C12 C13 1_555 1_555
C19 C20 1_555 1_555

#END
