
#######################################################################
#
#                 Cambridge Crystallographic Data Centre
#                                CCDC 
#
#######################################################################
#
# If this CIF has been generated from an entry in the Cambridge 
# Structural Database, then it will include bibliographic, chemical, 
# crystal, experimental, refinement or atomic coordinate data resulting 
# from the CCDC's data processing and validation procedures.
#
#######################################################################

data_LIFLOC
_symmetry_cell_setting           triclinic
_symmetry_space_group_name_H-M   'P -1'
_symmetry_Int_Tables_number      2
_space_group_name_Hall           '-P 1'
loop_
_symmetry_equiv_pos_site_id
_symmetry_equiv_pos_as_xyz
1 x,y,z
2 -x,-y,-z
_cell_length_a                   10.328(4)
_cell_length_b                   10.436(4)
_cell_length_c                   12.553(5)
_cell_angle_alpha                94.703(6)
_cell_angle_beta                 96.516(7)
_cell_angle_gamma                117.021(5)
_cell_volume                     1183.81
loop_
_atom_site_label
_atom_site_type_symbol
_atom_site_fract_x
_atom_site_fract_y
_atom_site_fract_z
Cu1 Cu 1.0000 0.5000 0.0000
Cu2 Cu 0.5000 0.0000 0.5000
O1 O 0.8467(6) 0.4854(5) 0.0868(4)
O2 O 0.7895(6) 0.5571(5) 0.2369(4)
O3 O 1.1379(6) 0.6065(6) 0.1750(4)
C1 C 0.8778(9) 0.5418(8) 0.1864(6)
C2 C 1.0350(9) 0.5935(8) 0.2466(6)
H1 H 1.0688 0.6887 0.2902
C3 C 1.0318(10) 0.4848(9) 0.3229(6)
H2 H 1.0196 0.3976 0.2812
H3 H 0.9511 0.4619 0.3619
H4 H 1.1228 0.5271 0.3734
O4 O 0.3752(6) -0.1062(5) 0.3603(4)
O5 O 0.3093(6) -0.1118(6) 0.1859(4)
O6 O 0.5204(7) 0.1839(6) 0.3964(4)
C4 C 0.3733(8) -0.0450(9) 0.2769(6)
C5 C 0.4627(8) 0.1218(8) 0.2863(5)
H5 H 0.3955 0.1588 0.2591
C6 C 0.5851(10) 0.1651(9) 0.2172(6)
H6 H 0.6376 0.2692 0.2234
H7 H 0.5422 0.1241 0.1427
H8 H 0.6519 0.1291 0.2421
N1 N 0.9912(7) 0.3148(6) 0.0437(4)
N2 N 0.6753(7) -0.0047(7) 0.4433(4)
C7 C 1.1136(9) 0.3075(8) 0.0708(5)
H9 H 1.2016 0.3837 0.0601
C8 C 1.1185(9) 0.1906(8) 0.1149(5)
H10 H 1.2092 0.1931 0.1351
C9 C 0.9926(9) 0.0729(8) 0.1291(5)
C10 C 0.8664(9) 0.1993(8) 0.0556(5)
H11 H 0.7774 0.2002 0.0354
C11 C 0.8631(9) 0.0785(8) 0.0966(5)
H12 H 0.7732 0.0008 0.1022
C12 C 0.9958(9) -0.0537(8) 0.1793(5)
H13 H 1.0701 -0.0746 0.1533
H14 H 0.9009 -0.1397 0.1574
C13 C 1.0311(8) -0.0170(8) 0.3051(5)
H15 H 1.0536 -0.0893 0.3341
H16 H 1.1185 0.0767 0.3256
C14 C 0.9079(9) -0.0121(9) 0.3561(5)
C15 C 0.9226(8) 0.1148(8) 0.4109(5)
H17 H 1.0116 0.1998 0.4192
C16 C 0.8049(9) 0.1165(8) 0.4538(5)
H18 H 0.8161 0.2031 0.4904
C17 C 0.7721(10) -0.1361(9) 0.3464(6)
H19 H 0.7565 -0.2238 0.3087
C18 C 0.6619(9) -0.1279(9) 0.3927(6)
H20 H 0.5735 -0.2125 0.3885
H21 H 1.190(5) 0.702(2) 0.190(4)
H22 H 0.565(8) 0.283(3) 0.416(6)
Cu1_2 Cu 0.0000 -0.5000 1.0000
O1A O 1.1533(6) 0.5146(5) -0.0868(4)
O2A O 1.2105(6) 0.4429(5) -0.2369(4)
O3A O 0.8621(6) 0.3935(6) -0.1750(4)
C1A C 1.1222(9) 0.4582(8) -0.1864(6)
C2A C 0.9650(9) 0.4065(8) -0.2466(6)
H1A H 0.9312 0.3113 -0.2902
C3A C 0.9682(10) 0.5152(9) -0.3229(6)
H2A H 0.9804 0.6024 -0.2812
H3A H 1.0489 0.5381 -0.3619
H4A H 0.8772 0.4729 -0.3734
O4A O 0.6248(6) 0.1062(5) 0.6397(4)
O5A O 0.6907(6) 0.1118(6) 0.8141(4)
O6A O 0.4796(7) -0.1839(6) 0.6036(4)
C4A C 0.6267(8) 0.0450(9) 0.7231(6)
C5A C 0.5373(8) -0.1218(8) 0.7137(5)
H5A H 0.6045 -0.1588 0.7409
C6A C 0.4149(10) -0.1651(9) 0.7828(6)
H6A H 0.3624 -0.2692 0.7766
H7A H 0.4578 -0.1241 0.8573
H8A H 0.3481 -0.1291 0.7579
N1A N 0.0088(7) -0.3148(6) 0.9563(4)
N1A_2 N 1.0088(7) 0.6852(6) -0.0437(4)
N2A N 0.3247(7) 0.0047(7) 0.5567(4)
C7A C -0.1136(9) -0.3075(8) 0.9292(5)
H9A H -0.2016 -0.3837 0.9399
C8A C -0.1185(9) -0.1906(8) 0.8851(5)
H10A H -0.2092 -0.1931 0.8649
C9A C 0.0074(9) -0.0729(8) 0.8709(5)
C10A C 0.1336(9) -0.1993(8) 0.9444(5)
H11A H 0.2226 -0.2002 0.9646
C11A C 0.1369(9) -0.0785(8) 0.9034(5)
H12A H 0.2268 -0.0008 0.8978
C12A C 0.0042(9) 0.0537(8) 0.8207(5)
H13A H -0.0701 0.0746 0.8467
H14A H 0.0991 0.1397 0.8426
C13A C -0.0311(8) 0.0170(8) 0.6949(5)
H15A H -0.0536 0.0893 0.6659
H16A H -0.1185 -0.0767 0.6744
C14A C 0.0921(9) 0.0121(9) 0.6439(5)
C15A C 0.0774(8) -0.1148(8) 0.5891(5)
H17A H -0.0116 -0.1998 0.5808
C16A C 0.1951(9) -0.1165(8) 0.5462(5)
H18A H 0.1839 -0.2031 0.5096
C17A C 0.2279(10) 0.1361(9) 0.6536(6)
H19A H 0.2435 0.2238 0.6913
C18A C 0.3381(9) 0.1279(9) 0.6073(6)
H20A H 0.4265 0.2125 0.6115
H21A H 0.810(5) 0.298(2) -0.190(4)
H22A H 0.435(8) -0.283(3) 0.584(6)
O7 O 0.6986(9) 0.4721(7) 0.4275(5)
O8 O 0.3882(9) 0.5460(9) 0.2626(7)
O9 O 0.3307(8) 0.3590(8) 0.4075(6)
O10 O 0.5210(10) 0.4778(14) 0.1132(9)
O11 O 0.4869(14) 0.7376(14) 0.0667(11)
loop_
_geom_bond_atom_site_label_1
_geom_bond_atom_site_label_2
_geom_bond_site_symmetry_1
_geom_bond_site_symmetry_2
Cu1 O1 1_555 1_555
Cu2 O4 1_555 1_555
O1 C1 1_555 1_555
O2 C1 1_555 1_555
O3 Cu1 1_555 1_555
C1 C2 1_555 1_555
C2 O3 1_555 1_555
H1 C2 1_555 1_555
C3 C2 1_555 1_555
H2 C3 1_555 1_555
H3 C3 1_555 1_555
H4 C3 1_555 1_555
O4 C4 1_555 1_555
O5 C4 1_555 1_555
O6 Cu2 1_555 1_555
C4 C5 1_555 1_555
C5 O6 1_555 1_555
H5 C5 1_555 1_555
C6 C5 1_555 1_555
H6 C6 1_555 1_555
H7 C6 1_555 1_555
H8 C6 1_555 1_555
N1 Cu1 1_555 1_555
N2 Cu2 1_555 1_555
C7 N1 1_555 1_555
H9 C7 1_555 1_555
C8 C7 1_555 1_555
H10 C8 1_555 1_555
C9 C8 1_555 1_555
C10 N1 1_555 1_555
H11 C10 1_555 1_555
C11 C9 1_555 1_555
H12 C11 1_555 1_555
C12 C9 1_555 1_555
H13 C12 1_555 1_555
H14 C12 1_555 1_555
C13 C12 1_555 1_555
H15 C13 1_555 1_555
H16 C13 1_555 1_555
C14 C13 1_555 1_555
C15 C14 1_555 1_555
H17 C15 1_555 1_555
C16 N2 1_555 1_555
H18 C16 1_555 1_555
C17 C14 1_555 1_555
H19 C17 1_555 1_555
C18 N2 1_555 1_555
H20 C18 1_555 1_555
H21 O3 1_555 1_555
H22 O6 1_555 1_555
Cu1_2 N1A 1_555 1_555
O1A Cu1 1_555 1_555
O2A C1A 1_555 1_555
O3A Cu1 1_555 1_555
C1A O1A 1_555 1_555
C2A O3A 1_555 1_555
H1A C2A 1_555 1_555
C3A C2A 1_555 1_555
H2A C3A 1_555 1_555
H3A C3A 1_555 1_555
H4A C3A 1_555 1_555
O4A Cu2 1_555 1_555
O5A C4A 1_555 1_555
O6A Cu2 1_555 1_555
C4A O4A 1_555 1_555
C5A O6A 1_555 1_555
H5A C5A 1_555 1_555
C6A C5A 1_555 1_555
H6A C6A 1_555 1_555
H7A C6A 1_555 1_555
H8A C6A 1_555 1_555
N1A C7A 1_555 1_555
N1A_2 Cu1 1_555 1_555
N2A Cu2 1_555 1_555
C7A H9A 1_555 1_555
C8A C7A 1_555 1_555
H10A C8A 1_555 1_555
C9A C8A 1_555 1_555
C10A N1A 1_555 1_555
H11A C10A 1_555 1_555
C11A C9A 1_555 1_555
H12A C11A 1_555 1_555
C12A C9A 1_555 1_555
H13A C12A 1_555 1_555
H14A C12A 1_555 1_555
C13A C12A 1_555 1_555
H15A C13A 1_555 1_555
H16A C13A 1_555 1_555
C14A C13A 1_555 1_555
C15A C14A 1_555 1_555
H17A C15A 1_555 1_555
C16A N2A 1_555 1_555
H18A C16A 1_555 1_555
C17A C14A 1_555 1_555
H19A C17A 1_555 1_555
C18A N2A 1_555 1_555
H20A C18A 1_555 1_555
H21A O3A 1_555 1_555
H22A O6A 1_555 1_555
C10 C11 1_555 1_555
C15 C16 1_555 1_555
C17 C18 1_555 1_555
C1A C2A 1_555 1_555
C4A C5A 1_555 1_555
C10A C11A 1_555 1_555
C15A C16A 1_555 1_555
C17A C18A 1_555 1_555

#END
