
#######################################################################
#
#                 Cambridge Crystallographic Data Centre
#                                CCDC 
#
#######################################################################
#
# If this CIF has been generated from an entry in the Cambridge 
# Structural Database, then it will include bibliographic, chemical, 
# crystal, experimental, refinement or atomic coordinate data resulting 
# from the CCDC's data processing and validation procedures.
#
#######################################################################

data_LIFLIW
_symmetry_cell_setting           triclinic
_symmetry_space_group_name_H-M   'P -1'
_symmetry_Int_Tables_number      2
_space_group_name_Hall           '-P 1'
loop_
_symmetry_equiv_pos_site_id
_symmetry_equiv_pos_as_xyz
1 x,y,z
2 -x,-y,-z
_cell_length_a                   8.439(2)
_cell_length_b                   9.908(3)
_cell_length_c                   12.070(3)
_cell_angle_alpha                79.046(5)
_cell_angle_beta                 79.766(5)
_cell_angle_gamma                70.424(6)
_cell_volume                     926.44
loop_
_atom_site_label
_atom_site_type_symbol
_atom_site_fract_x
_atom_site_fract_y
_atom_site_fract_z
Cu1 Cu -0.65829(4) -0.31554(3) 0.32609(2)
O1 O -0.8503(2) -0.3313(2) 0.26315(15)
O2 O -0.9124(3) -0.1041(2) 0.1765(2)
C1 C -0.9416(3) -0.2221(3) 0.2029(2)
C2 C -1.0895(4) -0.2412(4) 0.1614(3)
H1 H -1.1832 -0.1535 0.1629
H2 H -1.1219 -0.3189 0.2097
H3 H -1.0578 -0.2636 0.0849
O3 O -0.4760(2) -0.29001(19) 0.39381(14)
O4 O -0.5380(3) -0.0594(2) 0.31771(18)
C3 C -0.4518(3) -0.1660(3) 0.3757(2)
C4 C -0.3109(4) -0.1565(4) 0.4322(3)
H4 H -0.2756 -0.0751 0.3942
H5 H -0.2168 -0.2436 0.4280
H6 H -0.3507 -0.1448 0.5105
N1 N -0.5113(3) -0.3294(2) 0.17423(17)
N2 N 0.1908(3) -0.2877(2) -0.52380(17)
C5 C -0.4015(5) -0.4536(3) 0.1466(3)
H7 H -0.3944 -0.5364 0.1994
C6 C -0.2976(5) -0.4679(3) 0.0450(3)
H8 H -0.2231 -0.5580 0.0309
C7 C -0.3045(4) -0.3475(3) -0.0360(2)
C8 C -0.4172(4) -0.2178(3) -0.0077(2)
H9 H -0.4256 -0.1333 -0.0588
C9 C -0.5181(4) -0.2129(3) 0.0967(2)
H10 H -0.5939 -0.1243 0.1133
C10 C 0.1178(4) -0.3879(3) -0.4725(2)
H11 H 0.1380 -0.4688 -0.5078
C11 C 0.0138(4) -0.3779(3) -0.3700(2)
H12 H -0.0327 -0.4513 -0.3378
C12 C -0.0210(3) -0.2584(3) -0.3154(2)
C13 C 0.0555(4) -0.1542(3) -0.3688(2)
H13 H 0.0371 -0.0722 -0.3354
C14 C 0.1583(4) -0.1719(3) -0.4708(2)
H14 H 0.2074 -0.1005 -0.5046
C15 C -0.1361(4) -0.2364(3) -0.2049(2)
H15 H -0.0774 -0.2131 -0.1525
H16 H -0.2356 -0.1539 -0.2191
O5 O -0.5666(3) -0.5664(2) 0.3838(2)
H17 H -0.551(4) -0.595(3) 0.441(3)
H18 H -0.525(5) -0.642(4) 0.346(3)
C16 C -0.1929(4) -0.3645(3) -0.1487(2)
H19 H -0.0930 -0.4475 -0.1370
H20 H -0.2539 -0.3859 -0.2007
Cu1_2 Cu 0.34171(4) -0.31554(3) -0.67391(2)
N2_2 N -0.8092(3) -0.2877(2) 0.47620(17)
O6 O -0.1657(4) -0.8649(3) 0.0888(3)
H23 H -0.094(6) -0.929(5) 0.114(4)
H24 H -0.173(7) -0.882(6) 0.038(5)
O7 O -0.4402(4) -0.8076(3) 0.2690(3)
H21 H -0.375(5) -0.816(4) 0.223(3)
H22 H -0.467(5) -0.886(5) 0.287(3)
loop_
_geom_bond_atom_site_label_1
_geom_bond_atom_site_label_2
_geom_bond_site_symmetry_1
_geom_bond_site_symmetry_2
Cu1 O1 1_555 1_555
O1 C1 1_555 1_555
O2 C1 1_555 1_555
C1 C2 1_555 1_555
C2 H1 1_555 1_555
H2 C2 1_555 1_555
H3 C2 1_555 1_555
O3 Cu1 1_555 1_555
O4 C3 1_555 1_555
C3 O3 1_555 1_555
C4 C3 1_555 1_555
H4 C4 1_555 1_555
H5 C4 1_555 1_555
H6 C4 1_555 1_555
N1 Cu1 1_555 1_555
N2 C10 1_555 1_555
C5 N1 1_555 1_555
H7 C5 1_555 1_555
C6 C5 1_555 1_555
H8 C6 1_555 1_555
C7 C6 1_555 1_555
C8 C7 1_555 1_555
H9 C8 1_555 1_555
C9 N1 1_555 1_555
H10 C9 1_555 1_555
C10 H11 1_555 1_555
C11 C10 1_555 1_555
H12 C11 1_555 1_555
C12 C11 1_555 1_555
C13 C12 1_555 1_555
H13 C13 1_555 1_555
C14 N2 1_555 1_555
H14 C14 1_555 1_555
C15 C12 1_555 1_555
H15 C15 1_555 1_555
H16 C15 1_555 1_555
O5 Cu1 1_555 1_555
H17 O5 1_555 1_555
H18 O5 1_555 1_555
C16 C7 1_555 1_555
H19 C16 1_555 1_555
H20 C16 1_555 1_555
O6 H23 1_555 1_555
O7 H21 1_555 1_555
H22 O7 1_555 1_555
H24 O6 1_555 1_555
Cu1_2 N2 1_555 1_555
N2_2 Cu1 1_555 1_555
C8 C9 1_555 1_555
C13 C14 1_555 1_555
C15 C16 1_555 1_555

#END
