
#######################################################################
#
#                 Cambridge Crystallographic Data Centre
#                                CCDC 
#
#######################################################################
#
# If this CIF has been generated from an entry in the Cambridge 
# Structural Database, then it will include bibliographic, chemical, 
# crystal, experimental, refinement or atomic coordinate data resulting 
# from the CCDC's data processing and validation procedures.
#
#######################################################################

data_LIFLUJ
_symmetry_cell_setting           orthorhombic
_symmetry_space_group_name_H-M   'P n n m'
_symmetry_Int_Tables_number      58
_space_group_name_Hall           '-P 2 2n'
loop_
_symmetry_equiv_pos_site_id
_symmetry_equiv_pos_as_xyz
1 x,y,z
2 -x,-y,z
3 1/2-x,1/2+y,1/2-z
4 1/2+x,1/2-y,1/2-z
5 -x,-y,-z
6 x,y,-z
7 1/2+x,1/2-y,1/2+z
8 1/2-x,1/2+y,1/2+z
_cell_length_a                   17.5776(19)
_cell_length_b                   11.3996(12)
_cell_length_c                   13.8523(15)
_cell_angle_alpha                90
_cell_angle_beta                 90
_cell_angle_gamma                90
_cell_volume                     2775.69
loop_
_atom_site_label
_atom_site_type_symbol
_atom_site_fract_x
_atom_site_fract_y
_atom_site_fract_z
Ni1 Ni 0.37175(4) 0.59366(6) 0.0000
N1 N 0.2981(2) 0.5417(4) 0.1095(3)
N2 N 0.2241(2) 0.5512(4) 0.2371(3)
O1 O 0.4021(2) 0.8105(3) 0.1539(3)
O2 O 0.45242(18) 0.6398(3) 0.1077(2)
O3 O 0.4205(3) 0.4265(4) 0.0000
O4 O 0.3254(3) 0.7607(4) 0.0000
C1 C 0.4487(2) 0.7285(4) 0.1629(3)
C2 C 0.5027(2) 0.7354(4) 0.2468(3)
C3 C 0.5968(3) 0.7544(5) 0.4095(3)
C4 C 0.5501(3) 0.6445(5) 0.2728(4)
H1 H 0.5513 0.5763 0.2360
C5 C 0.5962(3) 0.6546(5) 0.3540(4)
H2 H 0.6274 0.5921 0.3711
C6 C 0.5514(4) 0.8470(5) 0.3796(4)
H3 H 0.5530 0.9173 0.4136
C7 C 0.5044(3) 0.8375(5) 0.3013(4)
H4 H 0.4732 0.9001 0.2844
C8 C 0.6448(4) 0.7638(9) 0.5000
H5 H 0.6713 0.8384 0.5000
H6 H 0.6827 0.7019 0.5000
C9 C 0.2708(4) 0.4324(5) 0.1307(4)
H7 H 0.2821 0.3645 0.0963
C10 C 0.2250(4) 0.4375(5) 0.2087(4)
H8 H 0.1993 0.3753 0.2373
C11 C 0.2678(3) 0.6108(4) 0.1747(3)
H9 H 0.2756 0.6914 0.1774
C12 C 0.1831(3) 0.5997(5) 0.3202(4)
H10 H 0.1388 0.5513 0.3324
H11 H 0.1652 0.6776 0.3035
C13 C 0.1916(4) 0.5942(6) 0.5000
H12 H 0.1402 0.5752 0.5000
C14 C 0.2290(3) 0.6080(4) 0.4123(3)
C15 C 0.3060(3) 0.6344(5) 0.4134(4)
H13 H 0.3321 0.6438 0.3555
C16 C 0.3441(5) 0.6470(8) 0.5000
H14 H 0.3959 0.6640 0.5000
H15 H 0.449(4) 0.417(6) 0.048(4)
H16 H 0.346(4) 0.793(7) 0.050(5)
N1E N 0.2981(2) 0.5417(4) 0.8905(3)
N2E N 0.2241(2) 0.5512(4) 0.7629(3)
C9E C 0.2708(4) 0.4324(5) 0.8693(4)
H7E H 0.2821 0.3645 0.9037
C10E C 0.2250(4) 0.4375(5) 0.7913(4)
H8E H 0.1993 0.3753 0.7627
C11E C 0.2678(3) 0.6108(4) 0.8253(3)
H9E H 0.2756 0.6914 0.8226
C12E C 0.1831(3) 0.5997(5) 0.6798(4)
H10E H 0.1388 0.5513 0.6676
H11E H 0.1652 0.6776 0.6965
C14E C 0.2290(3) 0.6080(4) 0.5877(3)
C15E C 0.3060(3) 0.6344(5) 0.5866(4)
H13E H 0.3321 0.6438 0.6445
O1E O 0.4021(2) 0.8105(3) 0.8461(3)
O2E O 0.45242(18) 0.6398(3) 0.8923(2)
C1E C 0.4487(2) 0.7285(4) 0.8371(3)
C2E C 0.5027(2) 0.7354(4) 0.7532(3)
C3E C 0.5968(3) 0.7544(5) 0.5905(3)
C4E C 0.5501(3) 0.6445(5) 0.7272(4)
H1E H 0.5513 0.5763 0.7640
C5E C 0.5962(3) 0.6546(5) 0.6460(4)
H2E H 0.6274 0.5921 0.6289
C6E C 0.5514(4) 0.8470(5) 0.6204(4)
H3E H 0.5530 0.9173 0.5864
C7E C 0.5044(3) 0.8375(5) 0.6987(4)
H4E H 0.4732 0.9001 0.7156
H15E H 0.449(4) 0.417(6) -0.048(4)
H16E H 0.346(4) 0.793(7) -0.050(5)
Ni1_2 Ni 0.37175(4) 0.59366(6) 1.0000
N1E_2 N 0.2981(2) 0.5417(4) -0.1095(3)
O2E_2 O 0.45242(18) 0.6398(3) -0.1077(2)
O5 O 0.0000 0.5000 0.4663(4)
H17 H 0.017(4) 0.535(6) 0.407(5)
H17A H -0.017(4) 0.465(6) 0.407(5)
loop_
_geom_bond_atom_site_label_1
_geom_bond_atom_site_label_2
_geom_bond_site_symmetry_1
_geom_bond_site_symmetry_2
Ni1 N1 1_555 1_555
N1 C9 1_555 1_555
N2 C10 1_555 1_555
O1 C1 1_555 1_555
O2 Ni1 1_555 1_555
O3 Ni1 1_555 1_555
O4 Ni1 1_555 1_555
C1 O2 1_555 1_555
C2 C1 1_555 1_555
C3 C5 1_555 1_555
C4 C2 1_555 1_555
H1 C4 1_555 1_555
C5 C4 1_555 1_555
H2 C5 1_555 1_555
C6 C3 1_555 1_555
H3 C6 1_555 1_555
C7 C2 1_555 1_555
H4 C7 1_555 1_555
C8 C3 1_555 1_555
H5 C8 1_555 1_555
H6 C8 1_555 1_555
C9 H7 1_555 1_555
C10 C9 1_555 1_555
H8 C10 1_555 1_555
C11 N1 1_555 1_555
H9 C11 1_555 1_555
C12 N2 1_555 1_555
H10 C12 1_555 1_555
H11 C12 1_555 1_555
C13 H12 1_555 1_555
C14 C12 1_555 1_555
C15 C14 1_555 1_555
H13 C15 1_555 1_555
C16 C15 1_555 1_555
H14 C16 1_555 1_555
H15 O3 1_555 1_555
H16 O4 1_555 1_555
O5 H17 1_555 1_555
N1E C9E 1_555 1_555
N2E C10E 1_555 1_555
C9E H7E 1_555 1_555
C10E C9E 1_555 1_555
H8E C10E 1_555 1_555
C11E N1E 1_555 1_555
H9E C11E 1_555 1_555
C12E N2E 1_555 1_555
H10E C12E 1_555 1_555
H11E C12E 1_555 1_555
C14E C13 1_555 1_555
C15E C16 1_555 1_555
H13E C15E 1_555 1_555
O1E C1E 1_555 1_555
O2E C1E 1_555 1_555
C1E C2E 1_555 1_555
C2E C4E 1_555 1_555
C3E C8 1_555 1_555
C4E H1E 1_555 1_555
C5E C3E 1_555 1_555
H2E C5E 1_555 1_555
C6E C3E 1_555 1_555
H3E C6E 1_555 1_555
C7E C2E 1_555 1_555
H4E C7E 1_555 1_555
H15E O3 1_555 1_555
H16E O4 1_555 1_555
Ni1_2 N1E 1_555 1_555
N1E_2 Ni1 1_555 1_555
O2E_2 Ni1 1_555 1_555
H17A O5 1_555 1_555
N2 C11 1_555 1_555
C6 C7 1_555 1_555
C13 C14 1_555 1_555
N2E C11E 1_555 1_555
C12E C14E 1_555 1_555
C14E C15E 1_555 1_555
O2E Ni1_2 1_555 1_555
C4E C5E 1_555 1_555
C6E C7E 1_555 1_555

#END
