
#######################################################################
#
#                 Cambridge Crystallographic Data Centre
#                                CCDC 
#
#######################################################################
#
# If this CIF has been generated from an entry in the Cambridge 
# Structural Database, then it will include bibliographic, chemical, 
# crystal, experimental, refinement or atomic coordinate data resulting 
# from the CCDC's data processing and validation procedures.
#
#######################################################################

data_LIFMAP
_symmetry_cell_setting           monoclinic
_symmetry_space_group_name_H-M   'C 2/c'
_symmetry_Int_Tables_number      15
_space_group_name_Hall           '-C 2yn'
loop_
_symmetry_equiv_pos_site_id
_symmetry_equiv_pos_as_xyz
1 x,y,z
2 1/2+x,1/2+y,z
3 -x,y,1/2-z
4 1/2-x,1/2+y,1/2-z
5 -x,-y,-z
6 1/2-x,1/2-y,-z
7 x,-y,1/2+z
8 1/2+x,1/2-y,1/2+z
_cell_length_a                   41.581(3)
_cell_length_b                   12.0465(9)
_cell_length_c                   23.3707(18)
_cell_angle_alpha                90
_cell_angle_beta                 92.2240(10)
_cell_angle_gamma                90
_cell_volume                     11697.7
loop_
_atom_site_label
_atom_site_type_symbol
_atom_site_fract_x
_atom_site_fract_y
_atom_site_fract_z
Cd1 Cd 0.050290(8) 0.02382(3) -0.237040(15)
Cd2 Cd 0.209760(8) 0.46269(3) 0.036290(15)
Cd3 Cd 0.115430(9) 0.44669(3) 0.021240(15)
O1 O 0.01042(9) 0.0821(4) -0.18131(17)
O3 O -0.04102(8) 0.1249(3) -0.18494(15)
O5 O 0.06403(10) 0.4264(4) -0.00048(19)
O7 O 0.08096(10) 0.2587(5) -0.0220(2)
O8 O 0.08366(8) 0.1231(3) -0.17340(17)
O9 O 0.10699(8) 0.0520(3) -0.24681(16)
O10 O 0.14782(10) 0.3653(4) -0.0384(2)
O11 O 0.20022(9) 0.3688(3) -0.04269(15)
O12 O 0.17010(8) 0.5913(3) 0.02786(15)
O13 O 0.12100(8) 0.6228(3) -0.00788(15)
O14 O 0.25313(8) 0.8930(3) -0.01273(19)
O15 O 0.23505(8) 1.0532(3) -0.03878(18)
N1 N 0.05026(9) -0.1301(3) -0.17680(17)
N2 N 0.04346(9) -0.1388(3) -0.29231(17)
N3 N 0.05059(14) -0.5283(4) -0.1661(3)
N4 N 0.03976(13) -0.5363(4) -0.2856(3)
N5 N 0.20367(10) 0.5055(4) 0.13438(18)
N6 N 0.21162(9) 0.2979(3) 0.09299(17)
N7 N 0.21817(12) 0.3687(6) 0.3273(2)
N8 N 0.21979(13) 0.1500(5) 0.2838(2)
N9 N 0.11567(10) 0.5306(4) 0.11494(18)
N10 N 0.12621(10) 0.3140(4) 0.09059(18)
N11 N 0.13074(15) 0.4569(7) 0.3159(2)
N12 N 0.13570(14) 0.2279(7) 0.2907(3)
C1 C 0.05257(12) -0.1240(5) -0.1195(2)
H1 H 0.0533 -0.0544 -0.1022
C2 C 0.05382(9) -0.2162(6) -0.0854(2)
H2 H 0.0560 -0.2086 -0.0458
C3 C 0.05193(11) -0.3196(5) -0.1093(3)
H3 H 0.0525 -0.3826 -0.0863
C4 C 0.04913(12) -0.3292(4) -0.1690(2)
C5 C 0.04683(13) -0.4344(4) -0.1978(3)
C6 C 0.04891(19) -0.6224(6) -0.1958(4)
H4 H 0.0518 -0.6892 -0.1763
C7 C 0.04311(18) -0.6255(6) -0.2533(4)
H5 H 0.0414 -0.6945 -0.2710
C8 C 0.04247(13) -0.4395(4) -0.2572(3)
C9 C 0.04098(11) -0.3387(4) -0.2908(2)
C10 C 0.03723(13) -0.3384(5) -0.3509(2)
H6 H 0.0352 -0.4049 -0.3709
C11 C 0.03657(14) -0.2412(6) -0.3790(2)
H7 H 0.0339 -0.2399 -0.4187
C12 C 0.03987(13) -0.1435(5) -0.3487(2)
H8 H 0.0396 -0.0771 -0.3691
C13 C 0.04779(11) -0.2313(4) -0.2010(2)
C14 C 0.04410(10) -0.2355(4) -0.2633(2)
C15 C 0.19915(12) 0.6075(5) 0.1539(3)
H9 H 0.1954 0.6645 0.1277
C16 C 0.19983(9) 0.6325(6) 0.2115(3)
H10 H 0.1968 0.7051 0.2238
C17 C 0.20499(12) 0.5487(6) 0.2503(3)
H11 H 0.2054 0.5645 0.2893
C18 C 0.20958(12) 0.4395(5) 0.2319(2)
C19 C 0.21514(12) 0.3464(6) 0.2702(2)
C20 C 0.22221(19) 0.2801(9) 0.3608(3)
H12 H 0.2257 0.2904 0.4000
C21 C 0.22138(18) 0.1719(9) 0.3390(3)
H13 H 0.2220 0.1129 0.3647
C22 C 0.21721(13) 0.2385(6) 0.2492(3)
C23 C 0.21677(12) 0.2195(5) 0.1880(2)
C24 C 0.22119(14) 0.1158(5) 0.1637(3)
H14 H 0.2240 0.0539 0.1871
C25 C 0.22148(14) 0.1043(5) 0.1059(3)
H15 H 0.2250 0.0353 0.0894
C26 C 0.21642(12) 0.1970(4) 0.0725(2)
H16 H 0.2164 0.1883 0.0330
C27 C 0.20838(11) 0.4226(5) 0.1727(2)
C28 C 0.21227(10) 0.3105(4) 0.1511(2)
C29 C 0.11262(11) 0.6371(5) 0.1257(3)
H17 H 0.1091 0.6854 0.0951
C30 C 0.11448(10) 0.6811(6) 0.1813(3)
H18 H 0.1121 0.7569 0.1874
C31 C 0.11977(13) 0.6115(8) 0.2256(3)
H19 H 0.1212 0.6388 0.2628
C32 C 0.12313(13) 0.4987(7) 0.2156(3)
C33 C 0.12826(15) 0.4141(9) 0.2611(3)
C34 C 0.1351(2) 0.3723(12) 0.3551(4)
H20 H 0.1366 0.3921 0.3936
C35 C 0.1374(3) 0.2642(11) 0.3428(5)
H21 H 0.1404 0.2137 0.3726
C36 C 0.13100(15) 0.3044(8) 0.2495(3)
C37 C 0.12978(13) 0.2670(6) 0.1904(3)
C38 C 0.13315(16) 0.1563(7) 0.1764(4)
H22 H 0.1352 0.1028 0.2050
C39 C 0.13345(17) 0.1263(6) 0.1196(4)
H23 H 0.1358 0.0523 0.1093
C40 C 0.13016(15) 0.2078(5) 0.0782(3)
H24 H 0.1307 0.1870 0.0400
C41 C 0.12128(11) 0.4618(5) 0.1591(2)
C42 C 0.12569(11) 0.3450(5) 0.1462(2)
C43 C -0.00788(11) 0.2080(4) -0.1128(2)
C44 C 0.02196(11) 0.2258(4) -0.08801(19)
H25 H 0.0394 0.1854 -0.1004
C45 C 0.02652(12) 0.3028(4) -0.0449(2)
C46 C 0.00025(14) 0.3581(4) -0.0246(2)
H26 H 0.0031 0.4080 0.0056
C47 C -0.03010(14) 0.3404(5) -0.0482(3)
H27 H -0.0477 0.3780 -0.0342
C48 C -0.03413(13) 0.2666(5) -0.0927(2)
H28 H -0.0545 0.2556 -0.1096
C49 C -0.01267(12) 0.1327(4) -0.1632(2)
C50 C 0.05974(14) 0.3308(6) -0.0211(2)
C51 C 0.14021(11) 0.1454(4) -0.17652(19)
C52 C 0.14169(11) 0.2212(4) -0.13207(19)
H29 H 0.1228 0.2466 -0.1167
C53 C 0.17136(11) 0.2600(4) -0.10999(18)
C54 C 0.19923(12) 0.2208(4) -0.1334(2)
H30 H 0.2191 0.2461 -0.1193
C55 C 0.19772(12) 0.1443(5) -0.1774(2)
H31 H 0.2166 0.1178 -0.1924
C56 C 0.16829(11) 0.1071(4) -0.1992(2)
H32 H 0.1674 0.0562 -0.2291
C57 C 0.10817(12) 0.1044(4) -0.2004(2)
C58 C 0.17308(14) 0.3370(4) -0.0597(2)
C59 C 0.15761(11) 0.7730(4) -0.00458(18)
C60 C 0.18931(11) 0.8078(4) -0.00552(18)
H33 H 0.2059 0.7578 0.0030
C61 C 0.19651(11) 0.9169(4) -0.01913(19)
C62 C 0.17166(12) 0.9907(4) -0.0314(2)
H34 H 0.1763 1.0634 -0.0416
C63 C 0.13996(12) 0.9573(4) -0.0288(2)
H35 H 0.1234 1.0079 -0.0357
C64 C 0.13317(12) 0.8489(4) -0.0160(2)
H36 H 0.1118 0.8260 -0.0150
C65 C 0.14920(12) 0.6535(4) 0.00555(19)
C66 C 0.23057(12) 0.9562(4) -0.0235(2)
Cd1B Cd -0.050290(8) 0.02382(3) -0.262960(15)
Cd2E Cd 0.290240(8) 1.03731(3) -0.036290(15)
O3B O 0.04102(8) 0.1249(3) -0.31506(15)
O14E O 0.24687(8) 0.6070(3) 0.01273(19)
O15E O 0.26495(8) 0.4468(3) 0.03878(18)
O2 O 0.06345(15) 0.0366(5) 0.0098(3)
O4 O 0.0947(2) -0.0865(9) 0.1110(5)
O6? O -0.0024(8) 0.0321(18) 0.0115(16)
loop_
_geom_bond_atom_site_label_1
_geom_bond_atom_site_label_2
_geom_bond_site_symmetry_1
_geom_bond_site_symmetry_2
Cd1 O1 1_555 1_555
Cd2 O11 1_555 1_555
Cd3 O5 1_555 1_555
O1 C49 1_555 1_555
O3 C49 1_555 1_555
O5 C50 1_555 1_555
O7 C50 1_555 1_555
O8 Cd1 1_555 1_555
O9 Cd1 1_555 1_555
O10 Cd3 1_555 1_555
O11 C58 1_555 1_555
O12 Cd2 1_555 1_555
O13 Cd3 1_555 1_555
O14 C66 1_555 1_555
O15 C66 1_555 1_555
N1 Cd1 1_555 1_555
N2 Cd1 1_555 1_555
N3 C5 1_555 1_555
N4 C7 1_555 1_555
N5 Cd2 1_555 1_555
N6 Cd2 1_555 1_555
N7 C19 1_555 1_555
N8 C21 1_555 1_555
N9 Cd3 1_555 1_555
N10 Cd3 1_555 1_555
N11 C33 1_555 1_555
N12 C35 1_555 1_555
C1 N1 1_555 1_555
H1 C1 1_555 1_555
C2 C1 1_555 1_555
H2 C2 1_555 1_555
C3 C2 1_555 1_555
H3 C3 1_555 1_555
C4 C3 1_555 1_555
C5 C4 1_555 1_555
C6 N3 1_555 1_555
H4 C6 1_555 1_555
C7 C6 1_555 1_555
H5 C7 1_555 1_555
C8 N4 1_555 1_555
C9 C8 1_555 1_555
C10 C9 1_555 1_555
H6 C10 1_555 1_555
C11 C10 1_555 1_555
H7 C11 1_555 1_555
C12 N2 1_555 1_555
H8 C12 1_555 1_555
C13 N1 1_555 1_555
C14 N2 1_555 1_555
C15 N5 1_555 1_555
H9 C15 1_555 1_555
C16 C15 1_555 1_555
H10 C16 1_555 1_555
C17 C16 1_555 1_555
H11 C17 1_555 1_555
C18 C17 1_555 1_555
C19 C18 1_555 1_555
C20 N7 1_555 1_555
H12 C20 1_555 1_555
C21 C20 1_555 1_555
H13 C21 1_555 1_555
C22 N8 1_555 1_555
C23 C22 1_555 1_555
C24 C23 1_555 1_555
H14 C24 1_555 1_555
C25 C24 1_555 1_555
H15 C25 1_555 1_555
C26 N6 1_555 1_555
H16 C26 1_555 1_555
C27 N5 1_555 1_555
C28 N6 1_555 1_555
C29 N9 1_555 1_555
H17 C29 1_555 1_555
C30 C29 1_555 1_555
H18 C30 1_555 1_555
C31 C30 1_555 1_555
H19 C31 1_555 1_555
C32 C31 1_555 1_555
C33 C32 1_555 1_555
C34 N11 1_555 1_555
H20 C34 1_555 1_555
C35 C34 1_555 1_555
H21 C35 1_555 1_555
C36 N12 1_555 1_555
C37 C36 1_555 1_555
C38 C37 1_555 1_555
H22 C38 1_555 1_555
C39 C38 1_555 1_555
H23 C39 1_555 1_555
C40 N10 1_555 1_555
H24 C40 1_555 1_555
C41 N9 1_555 1_555
C42 N10 1_555 1_555
C43 C44 1_555 1_555
C44 H25 1_555 1_555
C45 C44 1_555 1_555
C46 C45 1_555 1_555
H26 C46 1_555 1_555
C47 C46 1_555 1_555
H27 C47 1_555 1_555
C48 C43 1_555 1_555
H28 C48 1_555 1_555
C49 C43 1_555 1_555
C50 C45 1_555 1_555
C51 C52 1_555 1_555
C52 H29 1_555 1_555
C53 C52 1_555 1_555
C54 C53 1_555 1_555
H30 C54 1_555 1_555
C55 C54 1_555 1_555
H31 C55 1_555 1_555
C56 C51 1_555 1_555
H32 C56 1_555 1_555
C57 O8 1_555 1_555
C58 O10 1_555 1_555
C59 C60 1_555 1_555
C60 H33 1_555 1_555
C61 C60 1_555 1_555
C62 C61 1_555 1_555
H34 C62 1_555 1_555
C63 C62 1_555 1_555
H35 C63 1_555 1_555
C64 C59 1_555 1_555
H36 C64 1_555 1_555
C65 O12 1_555 1_555
C66 C61 1_555 1_555
Cd1B O3 1_555 1_555
Cd2E O14 1_555 1_555
O3B Cd1 1_555 1_555
O14E Cd2 1_555 1_555
O15E Cd2 1_555 1_555
O9 C57 1_555 1_555
O13 C65 1_555 1_555
O15 Cd2E 1_555 1_555
C4 C13 1_555 1_555
C5 C8 1_555 1_555
C9 C14 1_555 1_555
C11 C12 1_555 1_555
C13 C14 1_555 1_555
C18 C27 1_555 1_555
C19 C22 1_555 1_555
C23 C28 1_555 1_555
C25 C26 1_555 1_555
C27 C28 1_555 1_555
C32 C41 1_555 1_555
C33 C36 1_555 1_555
C37 C42 1_555 1_555
C39 C40 1_555 1_555
C41 C42 1_555 1_555
C47 C48 1_555 1_555
C51 C57 1_555 1_555
C53 C58 1_555 1_555
C55 C56 1_555 1_555
C59 C65 1_555 1_555
C63 C64 1_555 1_555

#END
