
#######################################################################
#
#                 Cambridge Crystallographic Data Centre
#                                CCDC 
#
#######################################################################
#
# If this CIF has been generated from an entry in the Cambridge 
# Structural Database, then it will include bibliographic, chemical, 
# crystal, experimental, refinement or atomic coordinate data resulting 
# from the CCDC's data processing and validation procedures.
#
#######################################################################

data_LIFMAQ
_symmetry_cell_setting           monoclinic
_symmetry_space_group_name_H-M   'P 21/c'
_symmetry_Int_Tables_number      14
_space_group_name_Hall           '-P 2ybc'
loop_
_symmetry_equiv_pos_site_id
_symmetry_equiv_pos_as_xyz
1 x,y,z
2 -x,1/2+y,1/2-z
3 -x,-y,-z
4 x,1/2-y,1/2+z
_cell_length_a                   11.559(7)
_cell_length_b                   21.823(13)
_cell_length_c                   10.461(6)
_cell_angle_alpha                90
_cell_angle_beta                 98.200(8)
_cell_angle_gamma                90
_cell_volume                     2611.83
loop_
_atom_site_label
_atom_site_type_symbol
_atom_site_fract_x
_atom_site_fract_y
_atom_site_fract_z
Ni1 Ni 0.68329(5) 0.84836(4) 0.59355(6)
N1 N 0.5306(3) 0.8283(2) 0.6654(4)
N2 N 0.4135(3) 0.7879(2) 0.7914(4)
N3 N -0.2489(3) 0.7615(3) 0.6200(5)
N4 N -0.1549(4) 0.6810(3) 0.7034(5)
O1 O 0.6174(3) 0.8381(3) 0.3967(4)
O2 O 0.5969(3) 0.9263(2) 0.4949(3)
O3 O -0.2114(3) 0.8816(2) -0.2348(3)
O4 O -0.1512(3) 0.8869(2) -0.4245(3)
C1 C 0.5779(5) 0.8918(4) 0.3959(5)
C2 C 0.5054(5) 0.9182(4) 0.2754(5)
C3 C 0.5047(4) 0.8873(3) 0.1576(5)
H1 H 0.5457 0.8509 0.1532
C4 C 0.4408(6) 0.9128(4) 0.0479(6)
H2 H 0.4426 0.8933 -0.0308
C5 C 0.3765(5) 0.9642(4) 0.0492(6)
C6 C 0.3747(5) 0.9938(3) 0.1676(6)
H3 H 0.3303 1.0291 0.1715
C7 C 0.4404(5) 0.9702(4) 0.2811(6)
H4 H 0.4393 0.9900 0.3596
C8 C 0.3171(5) 0.9948(4) -0.0719(6)
H5 H 0.3693 0.9930 -0.1366
H6 H 0.3058 1.0377 -0.0528
C9 C -0.1338(4) 0.8963(3) -0.3040(5)
C10 C -0.0188(4) 0.9215(3) -0.2442(5)
C11 C 0.0130(5) 0.9219(4) -0.1137(6)
H7 H -0.0385 0.9065 -0.0609
C12 C 0.1215(6) 0.9449(4) -0.0573(6)
H8 H 0.1408 0.9444 0.0321
C13 C 0.1988(4) 0.9679(3) -0.1306(5)
C14 C 0.1657(4) 0.9681(2) -0.2625(5)
H9 H 0.2160 0.9844 -0.3154
C15 C 0.0585(4) 0.9443(2) -0.3183(5)
H10 H 0.0395 0.9441 -0.4077
C16 C 0.4283(4) 0.8618(3) 0.6544(5)
H11 H 0.4118 0.8960 0.6020
C17 C 0.3552(4) 0.8371(3) 0.7318(5)
H12 H 0.2809 0.8509 0.7421
C18 C 0.5184(4) 0.7847(3) 0.7493(5)
H13 H 0.5750 0.7553 0.7761
C19 C 0.3803(4) 0.7521(3) 0.8999(5)
H14 H 0.3826 0.7786 0.9746
H15 H 0.4374 0.7198 0.9217
C20 C 0.2601(4) 0.7236(3) 0.8711(5)
C21 C 0.2334(4) 0.6798(3) 0.7814(6)
H16 H 0.2911 0.6667 0.7341
C22 C 0.1237(5) 0.6534(3) 0.7566(6)
H17 H 0.1079 0.6248 0.6904
C23 C 0.0402(4) 0.6686(3) 0.8270(5)
C24 C 0.0673(5) 0.7102(4) 0.9228(7)
H18 H 0.0115 0.7205 0.9749
C25 C 0.1771(4) 0.7381(3) 0.9450(5)
H19 H 0.1932 0.7667 1.0109
C26 C -0.0817(5) 0.6420(3) 0.7973(6)
H20 H -0.0775 0.6010 0.7624
H21 H -0.1164 0.6392 0.8762
C27 C -0.2014(6) 0.6662(5) 0.5811(8)
H22 H -0.1942 0.6293 0.5387
C28 C -0.2601(5) 0.7161(6) 0.5344(7)
H23 H -0.3032 0.7187 0.4524
C29 C -0.1835(6) 0.7377(4) 0.7198(6)
H24 H -0.1597 0.7593 0.7956
Ni1_2 Ni -0.31671(5) 0.84836(4) -0.40645(6)
Ni1_3 Ni -0.31671(5) 0.84836(4) 0.59355(6)
N3_2 N 0.7511(3) 0.7615(3) 0.6200(5)
O3_2 O 0.7886(3) 0.8816(2) 0.7652(3)
O4_2 O 0.8488(3) 0.8869(2) 0.5755(3)
loop_
_geom_bond_atom_site_label_1
_geom_bond_atom_site_label_2
_geom_bond_site_symmetry_1
_geom_bond_site_symmetry_2
Ni1 N1 1_555 1_555
N1 C16 1_555 1_555
N2 C17 1_555 1_555
N3 C28 1_555 1_555
N4 C26 1_555 1_555
O1 Ni1 1_555 1_555
O2 Ni1 1_555 1_555
O3 C9 1_555 1_555
O4 C9 1_555 1_555
C1 O1 1_555 1_555
C2 C1 1_555 1_555
C3 C2 1_555 1_555
H1 C3 1_555 1_555
C4 C3 1_555 1_555
H2 C4 1_555 1_555
C5 C4 1_555 1_555
C6 C5 1_555 1_555
H3 C6 1_555 1_555
C7 C2 1_555 1_555
H4 C7 1_555 1_555
C8 C5 1_555 1_555
H5 C8 1_555 1_555
H6 C8 1_555 1_555
C9 C10 1_555 1_555
C10 C11 1_555 1_555
C11 H7 1_555 1_555
C12 C11 1_555 1_555
H8 C12 1_555 1_555
C13 C8 1_555 1_555
C14 C13 1_555 1_555
H9 C14 1_555 1_555
C15 C10 1_555 1_555
H10 C15 1_555 1_555
C16 H11 1_555 1_555
C17 C16 1_555 1_555
H12 C17 1_555 1_555
C18 N1 1_555 1_555
H13 C18 1_555 1_555
C19 N2 1_555 1_555
H14 C19 1_555 1_555
H15 C19 1_555 1_555
C20 C19 1_555 1_555
C21 C20 1_555 1_555
H16 C21 1_555 1_555
C22 C21 1_555 1_555
H17 C22 1_555 1_555
C23 C22 1_555 1_555
C24 C23 1_555 1_555
H18 C24 1_555 1_555
C25 C20 1_555 1_555
H19 C25 1_555 1_555
C26 C23 1_555 1_555
H20 C26 1_555 1_555
H21 C26 1_555 1_555
C27 N4 1_555 1_555
H22 C27 1_555 1_555
C28 C27 1_555 1_555
H23 C28 1_555 1_555
C29 N3 1_555 1_555
H24 C29 1_555 1_555
Ni1_2 O3 1_555 1_555
Ni1_3 N3 1_555 1_555
N3_2 Ni1 1_555 1_555
O3_2 Ni1 1_555 1_555
O4_2 Ni1 1_555 1_555
N2 C18 1_555 1_555
N4 C29 1_555 1_555
O2 C1 1_555 1_555
O4 Ni1_2 1_555 1_555
C6 C7 1_555 1_555
C12 C13 1_555 1_555
C14 C15 1_555 1_555
C24 C25 1_555 1_555

#END
