
#######################################################################
#
#                 Cambridge Crystallographic Data Centre
#                                CCDC 
#
#######################################################################
#
# If this CIF has been generated from an entry in the Cambridge 
# Structural Database, then it will include bibliographic, chemical, 
# crystal, experimental, refinement or atomic coordinate data resulting 
# from the CCDC's data processing and validation procedures.
#
#######################################################################

data_LIFMUK
_symmetry_cell_setting           monoclinic
_symmetry_space_group_name_H-M   'P 21/c'
_symmetry_Int_Tables_number      14
_space_group_name_Hall           '-P 2ybc'
loop_
_symmetry_equiv_pos_site_id
_symmetry_equiv_pos_as_xyz
1 x,y,z
2 -x,1/2+y,1/2-z
3 -x,-y,-z
4 x,1/2-y,1/2+z
_cell_length_a                   12.924(4)
_cell_length_b                   15.931(5)
_cell_length_c                   10.149(3)
_cell_angle_alpha                90
_cell_angle_beta                 91.947(4)
_cell_angle_gamma                90
_cell_volume                     2088.39
loop_
_atom_site_label
_atom_site_type_symbol
_atom_site_fract_x
_atom_site_fract_y
_atom_site_fract_z
Cd1 Cd 0.09295(4) 0.02230(4) 0.86033(5)
N1 N 0.1784(5) 0.0278(4) 0.6547(7)
N2 N 0.0297(4) -0.0815(4) 0.7264(6)
N3 N 0.0111(5) -0.1377(4) 0.5266(6)
H1 H 0.0220 -0.1465 0.4446
O1 O 0.2589(6) 0.0263(4) 0.9413(7)
O2 O 0.1839(6) 0.1434(6) 0.9812(7)
O3 O 0.9398(4) 0.4308(4) 1.4489(5)
O4 O 0.9747(4) 0.3746(4) 1.2602(5)
C1 C 0.2564(7) 0.0973(6) 0.9968(8)
C2 C 0.3440(6) 0.1175(5) 1.0930(8)
C3 C 0.3450(8) 0.1906(5) 1.1639(9)
H2 H 0.2953 0.2314 1.1444
C4 C 0.4177(9) 0.2051(6) 1.2637(11)
H3 H 0.4155 0.2545 1.3126
C5 C 0.4945(7) 0.1459(7) 1.2911(9)
C6 C 0.4946(7) 0.0746(7) 1.2166(9)
H4 H 0.5458 0.0345 1.2328
C7 C 0.4214(6) 0.0605(6) 1.1186(8)
H5 H 0.4242 0.0116 1.0688
C8 C 0.5685(8) 0.1571(8) 1.4093(10)
H6 H 0.5296 0.1756 1.4840
H7 H 0.5992 0.1032 1.4318
C9 C 0.6542(7) 0.2196(6) 1.3862(8)
C10 C 0.7288(7) 0.2033(6) 1.3008(10)
H8 H 0.7240 0.1543 1.2510
C11 C 0.8126(7) 0.2560(6) 1.2833(9)
H9 H 0.8603 0.2444 1.2192
C12 C 0.8240(6) 0.3259(5) 1.3630(7)
C13 C 0.7498(9) 0.3423(7) 1.4490(11)
H10 H 0.7565 0.3892 1.5030
C14 C 0.6631(9) 0.2909(8) 1.4598(12)
H11 H 0.6114 0.3054 1.5172
C15 C 0.9182(6) 0.3803(5) 1.3561(7)
C16 C 0.2563(9) 0.0788(8) 0.6270(13)
H12 H 0.2774 0.1175 0.6912
C17 C 0.3046(12) 0.0787(9) 0.5180(14)
H13 H 0.3621 0.1128 0.5072
C18 C 0.2702(10) 0.0285(7) 0.4209(11)
H14 H 0.2999 0.0310 0.3389
C19 C 0.1879(8) -0.0290(6) 0.4423(8)
H15 H 0.1644 -0.0663 0.3775
C20 C 0.1453(6) -0.0259(5) 0.5649(8)
C21 C 0.0608(5) -0.0805(4) 0.6038(6)
C22 C -0.0576(7) -0.1781(6) 0.5983(9)
H16 H -0.1021 -0.2209 0.5706
C23 C -0.0481(7) -0.1420(6) 0.7250(10)
H17 H -0.0876 -0.1564 0.7965
Cd1A Cd 0.90705(4) 0.52230(4) 1.63967(5)
Cd1C Cd 1.09295(4) 0.47770(4) 1.36033(5)
O3A O 0.0602(4) -0.0692(4) 1.0511(5)
O3C O -0.0602(4) 0.0692(4) 0.9489(5)
O4C O -0.0253(4) 0.1254(4) 0.7602(5)
loop_
_geom_bond_atom_site_label_1
_geom_bond_atom_site_label_2
_geom_bond_site_symmetry_1
_geom_bond_site_symmetry_2
Cd1 N1 1_555 1_555
N1 C16 1_555 1_555
N2 Cd1 1_555 1_555
N3 H1 1_555 1_555
O1 Cd1 1_555 1_555
O2 Cd1 1_555 1_555
O3 C15 1_555 1_555
O4 C15 1_555 1_555
C1 O1 1_555 1_555
C2 C1 1_555 1_555
C3 C2 1_555 1_555
H2 C3 1_555 1_555
C4 C3 1_555 1_555
H3 C4 1_555 1_555
C5 C4 1_555 1_555
C6 C5 1_555 1_555
H4 C6 1_555 1_555
C7 C2 1_555 1_555
H5 C7 1_555 1_555
C8 C5 1_555 1_555
H6 C8 1_555 1_555
H7 C8 1_555 1_555
C9 C8 1_555 1_555
C10 C9 1_555 1_555
H8 C10 1_555 1_555
C11 C10 1_555 1_555
H9 C11 1_555 1_555
C12 C11 1_555 1_555
C13 C12 1_555 1_555
H10 C13 1_555 1_555
C14 C9 1_555 1_555
H11 C14 1_555 1_555
C15 C12 1_555 1_555
C16 H12 1_555 1_555
C17 C16 1_555 1_555
H13 C17 1_555 1_555
C18 C17 1_555 1_555
H14 C18 1_555 1_555
C19 C18 1_555 1_555
H15 C19 1_555 1_555
C20 N1 1_555 1_555
C21 N2 1_555 1_555
C22 N3 1_555 1_555
H16 C22 1_555 1_555
C23 N2 1_555 1_555
H17 C23 1_555 1_555
Cd1A O3 1_555 1_555
Cd1C O3 1_555 1_555
O3A Cd1 1_555 1_555
O3C Cd1 1_555 1_555
O4C Cd1 1_555 1_555
N3 C21 1_555 1_555
O2 C1 1_555 1_555
O4 Cd1C 1_555 1_555
C6 C7 1_555 1_555
C13 C14 1_555 1_555
C19 C20 1_555 1_555
C20 C21 1_555 1_555
C22 C23 1_555 1_555

#END
