
#######################################################################
#
#                 Cambridge Crystallographic Data Centre
#                                CCDC 
#
#######################################################################
#
# If this CIF has been generated from an entry in the Cambridge 
# Structural Database, then it will include bibliographic, chemical, 
# crystal, experimental, refinement or atomic coordinate data resulting 
# from the CCDC's data processing and validation procedures.
#
#######################################################################

data_LIFMUJ
_symmetry_cell_setting           orthorhombic
_symmetry_space_group_name_H-M   'P b c n'
_symmetry_Int_Tables_number      60
_space_group_name_Hall           '-P 2n 2ab'
loop_
_symmetry_equiv_pos_site_id
_symmetry_equiv_pos_as_xyz
1 x,y,z
2 1/2-x,1/2-y,1/2+z
3 -x,y,1/2-z
4 1/2+x,1/2-y,-z
5 -x,-y,-z
6 1/2+x,1/2+y,1/2-z
7 x,-y,1/2+z
8 1/2-x,1/2+y,z
_cell_length_a                   15.8537(16)
_cell_length_b                   16.7071(17)
_cell_length_c                   16.6416(17)
_cell_angle_alpha                90
_cell_angle_beta                 90
_cell_angle_gamma                90
_cell_volume                     4407.85
loop_
_atom_site_label
_atom_site_type_symbol
_atom_site_fract_x
_atom_site_fract_y
_atom_site_fract_z
Ni1 Ni -0.005790(14) 0.210457(14) 0.020848(14)
N1 N 0.08079(10) 0.27756(10) 0.09249(10)
N2 N 0.21577(10) 0.37939(10) 0.28433(10)
H1 H 0.2010(15) 0.4282(10) 0.2938(14)
N3 N 0.41317(10) 0.31202(10) 0.43764(9)
N4 N 0.93538(10) 0.69224(10) 0.47026(10)
N5 N 0.77063(11) 0.52852(10) 0.36127(10)
H2 H 0.7704(15) 0.5340(14) 0.3088(10)
N6 N 0.60026(10) 0.36211(10) 0.46062(10)
C1 C 0.15282(13) 0.24387(12) 0.11891(12)
H3 H 0.1716 0.1978 0.0931
C2 C 0.20066(12) 0.27301(12) 0.18160(12)
H4 H 0.2501 0.2472 0.1969
C3 C 0.17374(12) 0.34191(11) 0.22189(11)
C4 C 0.10027(13) 0.37868(12) 0.19318(12)
H5 H 0.0807 0.4256 0.2168
C5 C 0.05729(13) 0.34518(12) 0.12992(12)
H6 H 0.0089 0.3709 0.1119
C6 C 0.39514(12) 0.38929(11) 0.42078(11)
H7 H 0.0731 0.0709 0.9455
C7 C 0.33206(12) 0.41189(11) 0.36882(11)
H8 H 0.1775 0.0342 0.8584
C8 C 0.28197(11) 0.35322(11) 0.33138(11)
C9 C 0.29953(12) 0.27312(11) 0.34943(12)
H9 H 0.2683 0.2321 0.3263
C10 C 0.13567(12) 0.24374(11) 0.90242(12)
H10 H 0.1252 0.2972 0.9145
C11 C 0.94203(14) 0.67055(13) 0.39282(12)
H11 H 0.9844 0.6940 0.3622
C12 C 0.89030(14) 0.61598(14) 0.35604(12)
H12 H 0.8982 0.6031 0.3022
C13 C 0.82562(12) 0.57978(11) 0.39997(12)
C14 C 0.68211(13) 0.10216(13) 0.48043(12)
H13 H 0.7240 0.0797 0.5125
C15 C 0.62714(13) 0.15783(13) 0.51198(12)
H14 H 0.6339 0.1724 0.5655
C16 C 0.66921(13) 0.38644(12) 0.50106(12)
H15 H 0.8224 -0.1340 0.5524
C17 C 0.72831(13) 0.43948(13) 0.47170(12)
H16 H 0.7247 -0.0471 0.5023
C18 C 0.71687(12) 0.47279(11) 0.39554(11)
C19 C 0.85167(12) -0.05573(12) 0.35098(11)
H17 H 0.8602 -0.0380 0.2986
C20 C 0.90638(12) -0.11005(12) 0.38486(11)
H18 H 0.9508 -0.1287 0.3535
C21 C 0.53138(14) 0.36019(14) 0.64634(12)
C22 C 0.5403(2) 0.40375(18) 0.72542(14)
H19 H 0.4431 0.4586 0.7850
H20 H 0.4152 0.3787 0.7435
O1 O 0.47841(10) 0.38689(9) 0.59610(9)
O2 O 0.42541(10) 0.29854(10) 0.86936(9)
Ni1A Ni 0.505790(14) 0.289543(14) 0.520848(14)
Ni1_2 Ni -0.005790(14) 0.210457(14) 1.020848(14)
Ni1F Ni 0.994210(14) 0.789543(14) 0.520848(14)
Ni1F_2 Ni 0.994210(14) -0.210457(14) 0.520848(14)
Ni1C Ni 0.494210(14) 0.289543(14) 0.979152(14)
N1A N 0.41921(10) 0.22244(10) 0.59249(10)
N2A N 0.28423(10) 0.12061(10) 0.78433(10)
H1A H 0.2990(15) 0.0718(10) 0.7938(14)
N3A N 0.08683(10) 0.18798(10) -0.06236(9)
N3A_2 N 0.08683(10) 0.18798(10) 0.93764(9)
N4F N -0.06462(10) 0.30776(10) -0.02974(10)
N4G N 0.56462(10) 0.19224(10) 0.47026(10)
N5G N 0.72937(11) 0.02852(10) 0.36127(10)
H2G H 0.7296(15) 0.0340(14) 0.3088(10)
N6A N -0.10026(10) 0.13789(10) -0.03938(10)
N6G N 0.89974(10) -0.13789(10) 0.46062(10)
C1A C 0.34718(13) 0.25613(12) 0.61891(12)
H3A H 0.3284 0.3022 0.5931
C2A C 0.29934(12) 0.22699(12) 0.68160(12)
H4A H 0.2499 0.2528 0.6969
C3A C 0.32626(12) 0.15809(11) 0.72189(11)
C4A C 0.39973(13) 0.12132(12) 0.69318(12)
H5A H 0.4193 0.0744 0.7168
C5A C 0.44271(13) 0.15482(12) 0.62992(12)
H6A H 0.4911 0.1291 0.6119
C6A C 0.10486(12) 0.11071(11) 0.92078(11)
H7A H 0.4269 0.4291 0.4455
C7A C 0.16794(12) 0.08811(11) 0.86882(11)
H8A H 0.3225 0.4658 0.3584
C8A C 0.21803(11) 0.14678(11) 0.83138(11)
C9A C 0.20047(12) 0.22688(11) 0.84943(12)
H9A H 0.2317 0.2679 0.8263
C10A C 0.36433(12) 0.25626(11) 0.40242(12)
H10A H 0.3748 0.2028 0.4145
C11G C 0.55797(14) 0.17055(13) 0.39282(12)
H11G H 0.5156 0.1940 0.3622
C12G C 0.60970(14) 0.11598(14) 0.35604(12)
H12G H 0.6018 0.1031 0.3022
C13G C 0.67438(12) 0.07978(11) 0.39997(12)
C14G C 0.81789(13) 0.60216(13) 0.48043(12)
H13G H 0.7760 0.5797 0.5125
C15G C 0.87286(13) 0.65783(13) 0.51198(12)
H14G H 0.8661 0.6724 0.5655
C16G C 0.83079(13) -0.11356(12) 0.50106(12)
H15G H 0.6776 0.3660 0.5524
C17G C 0.77169(13) -0.06052(13) 0.47170(12)
H16G H 0.7753 0.4529 0.5023
C18G C 0.78313(12) -0.02721(11) 0.39554(11)
C19G C 0.64833(12) 0.44427(12) 0.35098(11)
H17G H 0.6398 0.4620 0.2986
C20G C 0.59362(12) 0.38995(12) 0.38486(11)
H18G H 0.5492 0.3713 0.3535
C21B C 0.46862(14) 0.36019(14) 0.85366(12)
C22B C 0.4597(2) 0.40375(18) 0.77458(14)
H19B H 0.5569 0.4586 0.7150
H20B H 0.5848 0.3787 0.7565
O1A O 0.02159(10) 0.11311(9) 0.09610(9)
O1B O 0.52159(10) 0.38689(9) 0.90390(9)
O2C O -0.07459(10) 0.20146(10) 0.13064(9)
O2B O 0.57459(10) 0.29854(10) 0.63064(9)
Cl1 Cl 0.31277(5) -0.06056(4) -0.17215(4)
Cl2? Cl 0.3772(6) -0.0403(6) -0.1411(6)
loop_
_geom_bond_atom_site_label_1
_geom_bond_atom_site_label_2
_geom_bond_site_symmetry_1
_geom_bond_site_symmetry_2
Ni1 N1 1_555 1_555
N1 C1 1_555 1_555
N2 H1 1_555 1_555
N3 C6 1_555 1_555
N4 C11 1_555 1_555
N5 H2 1_555 1_555
N6 C16 1_555 1_555
C1 H3 1_555 1_555
C2 C1 1_555 1_555
H4 C2 1_555 1_555
C3 N2 1_555 1_555
C4 C3 1_555 1_555
H5 C4 1_555 1_555
C5 N1 1_555 1_555
H6 C5 1_555 1_555
C6 C7 1_555 1_555
H7 C6A 1_555 1_555
C7 C8 1_555 1_555
H8 C7A 1_555 1_555
C8 N2 1_555 1_555
C9 C8 1_555 1_555
H9 C9 1_555 1_555
C10 H10 1_555 1_555
C11 H11 1_555 1_555
C12 C11 1_555 1_555
H12 C12 1_555 1_555
C13 N5 1_555 1_555
C14 H13 1_555 1_555
C15 C14 1_555 1_555
H14 C15 1_555 1_555
C16 C17 1_555 1_555
H15 C16G 1_555 1_555
C17 C18 1_555 1_555
H16 C17G 1_555 1_555
C18 N5 1_555 1_555
C19 H17 1_555 1_555
C20 C19 1_555 1_555
H18 C20 1_555 1_555
C21 C22 1_555 1_555
C22 C22B 1_555 1_555
H19 C22B 1_555 1_555
H20 C22B 1_555 1_555
O1 C21 1_555 1_555
O2 Ni1C 1_555 1_555
Ni1A N3 1_555 1_555
Ni1_2 N3A_2 1_555 1_555
Ni1F N4 1_555 1_555
Ni1F_2 N6G 1_555 1_555
Ni1C O1B 1_555 1_555
N1A Ni1A 1_555 1_555
N2A H1A 1_555 1_555
N3A Ni1 1_555 1_555
N3A_2 C10 1_555 1_555
N4F Ni1 1_555 1_555
N4G C15 1_555 1_555
N5G H2G 1_555 1_555
N6A Ni1 1_555 1_555
N6G C20 1_555 1_555
C1A N1A 1_555 1_555
H3A C1A 1_555 1_555
C2A C1A 1_555 1_555
H4A C2A 1_555 1_555
C3A N2A 1_555 1_555
C4A C3A 1_555 1_555
H5A C4A 1_555 1_555
C5A N1A 1_555 1_555
H6A C5A 1_555 1_555
C6A N3A_2 1_555 1_555
H7A C6 1_555 1_555
C7A C6A 1_555 1_555
H8A C7 1_555 1_555
C8A N2A 1_555 1_555
C9A C10 1_555 1_555
H9A C9A 1_555 1_555
C10A N3 1_555 1_555
H10A C10A 1_555 1_555
C11G N4G 1_555 1_555
H11G C11G 1_555 1_555
C12G C11G 1_555 1_555
H12G C12G 1_555 1_555
C13G C14 1_555 1_555
C14G C13 1_555 1_555
H13G C14G 1_555 1_555
C15G N4 1_555 1_555
H14G C15G 1_555 1_555
C16G N6G 1_555 1_555
H15G C16 1_555 1_555
C17G C16G 1_555 1_555
H16G C17 1_555 1_555
C18G C19 1_555 1_555
C19G C18 1_555 1_555
H17G C19G 1_555 1_555
C20G N6 1_555 1_555
H18G C20G 1_555 1_555
C21B O2 1_555 1_555
C22B C21B 1_555 1_555
H19B C22 1_555 1_555
H20B C22 1_555 1_555
O1A Ni1 1_555 1_555
O1B C21B 1_555 1_555
O2C Ni1 1_555 1_555
O2B C21 1_555 1_555
N6 Ni1A 1_555 1_555
C2 C3 1_555 1_555
C4 C5 1_555 1_555
C9 C10A 1_555 1_555
C12 C13 1_555 1_555
O1 Ni1A 1_555 1_555
Ni1A N4G 1_555 1_555
Ni1A O2B 1_555 1_555
N5G C13G 1_555 1_555
N5G C18G 1_555 1_555
C2A C3A 1_555 1_555
C4A C5A 1_555 1_555
C7A C8A 1_555 1_555
C8A C9A 1_555 1_555
C12G C13G 1_555 1_555
C14G C15G 1_555 1_555
C17G C18G 1_555 1_555
C19G C20G 1_555 1_555

#END
