
#######################################################################
#
#                 Cambridge Crystallographic Data Centre
#                                CCDC 
#
#######################################################################
#
# If this CIF has been generated from an entry in the Cambridge 
# Structural Database, then it will include bibliographic, chemical, 
# crystal, experimental, refinement or atomic coordinate data resulting 
# from the CCDC's data processing and validation procedures.
#
#######################################################################

data_LIFMOE
_symmetry_cell_setting           triclinic
_symmetry_space_group_name_H-M   'P -1'
_symmetry_Int_Tables_number      2
_space_group_name_Hall           '-P 1'
loop_
_symmetry_equiv_pos_site_id
_symmetry_equiv_pos_as_xyz
1 x,y,z
2 -x,-y,-z
_cell_length_a                   8.2957(17)
_cell_length_b                   13.137(3)
_cell_length_c                   13.632(3)
_cell_angle_alpha                74.722(3)
_cell_angle_beta                 80.373(3)
_cell_angle_gamma                72.377(2)
_cell_volume                     1359.67
loop_
_atom_site_label
_atom_site_type_symbol
_atom_site_fract_x
_atom_site_fract_y
_atom_site_fract_z
Zn1 Zn 0.37404(6) 0.28972(4) 0.59206(3)
N1 N 0.5759(4) 0.2738(3) 0.6641(2)
N2 N 0.7504(4) 0.2339(3) 0.7812(2)
N3 N 0.5595(4) 0.3753(3) 1.2852(2)
N4 N 0.4895(4) 0.3077(3) 1.4467(2)
O1 O 0.2570(4) 0.1787(2) 0.6060(2)
O2 O 0.3475(4) 0.0914(3) 0.7564(3)
O3 O 0.1829(4) -0.6380(3) 0.7392(3)
O4 O 0.2115(4) -0.5569(3) 0.5763(2)
C1 C 0.2539(5) 0.1079(3) 0.6893(3)
C2 C 0.1269(5) 0.0433(3) 0.7036(3)
C3 C 0.0208(6) 0.0591(3) 0.6313(3)
H1 H 0.0306 0.1091 0.5695
C4 C -0.1012(6) 0.0023(4) 0.6478(3)
H2 H -0.1699 0.0142 0.5963
C5 C -0.1233(5) -0.0711(3) 0.7386(3)
C6 C -0.0169(5) -0.0865(3) 0.8125(3)
H3 H -0.0288 -0.1348 0.8750
C7 C 0.1063(5) -0.0315(3) 0.7952(3)
H4 H 0.1772 -0.0446 0.8458
C8 C -0.2500(5) -0.1370(3) 0.7544(4)
H5 H -0.3392 -0.0987 0.7093
H6 H -0.3016 -0.1456 0.8243
C9 C 0.1501(5) -0.5563(4) 0.6683(4)
C10 C 0.0348(5) -0.4493(3) 0.6890(3)
C11 C -0.0330(5) -0.3608(4) 0.6108(3)
H7 H -0.0113 -0.3681 0.5434
C12 C -0.1320(5) -0.2629(3) 0.6330(3)
H8 H -0.1799 -0.2056 0.5805
C13 C -0.1611(5) -0.2486(3) 0.7319(3)
C14 C -0.0978(5) -0.3378(3) 0.8099(3)
H9 H -0.1205 -0.3308 0.8773
C15 C -0.0017(5) -0.4366(3) 0.7880(3)
H10 H 0.0390 -0.4955 0.8411
C16 C 0.6126(5) 0.2179(4) 0.7562(3)
H11 H 0.5501 0.1727 0.7990
C17 C 0.8064(5) 0.3054(4) 0.6997(3)
H12 H 0.9000 0.3320 0.6948
C18 C 0.6988(5) 0.3294(3) 0.6281(3)
H13 H 0.7060 0.3762 0.5641
C19 C 0.8234(6) 0.1889(4) 0.8798(3)
H14 H 0.9450 0.1801 0.8683
H15 H 0.8057 0.1169 0.9087
C20 C 0.7483(5) 0.2597(3) 0.9555(3)
C21 C 0.6188(6) 0.2383(4) 1.0280(3)
H16 H 0.5744 0.1810 1.0289
C22 C 0.5543(6) 0.3013(4) 1.0994(3)
H17 H 0.4667 0.2856 1.1478
C23 C 0.6160(5) 0.3867(3) 1.1011(3)
C24 C 0.7433(6) 0.4091(4) 1.0279(3)
H18 H 0.7861 0.4673 1.0266
C25 C 0.8092(6) 0.3462(4) 0.9556(3)
H19 H 0.8957 0.3627 0.9066
C26 C 0.4450(5) 0.3855(3) 1.3665(3)
H20 H 0.3449 0.4419 1.3657
C27 C 0.6433(6) 0.2440(4) 1.4158(3)
H21 H 0.7076 0.1816 1.4570
C28 C 0.6878(5) 0.2845(4) 1.3176(4)
H22 H 0.7869 0.2563 1.2789
C29 C 0.5523(6) 0.4492(4) 1.1830(3)
H23 H 0.6205 0.4992 1.1774
H24 H 0.4359 0.4925 1.1740
Zn1_2 Zn 0.37404(6) -0.71028(4) 0.59206(3)
Zn1_3 Zn 0.37404(6) 0.28972(4) 1.59206(3)
N4_2 N 0.4895(4) 0.3077(3) 0.4467(2)
O3_2 O 0.1829(4) 0.3620(3) 0.7392(3)
O4_2 O 0.2115(4) 0.4431(3) 0.5763(2)
O5 O 0.2440(8) 0.2909(6) 0.9385(4)
H25 H 0.2480 0.3444 0.9612
H26 H 0.2169 0.2433 0.9890
O6 O 0.3441(7) 0.0585(4) 0.9622(3)
H27 H 0.3374 0.1254 0.9341
H28 H 0.2961 0.0345 0.9261
loop_
_geom_bond_atom_site_label_1
_geom_bond_atom_site_label_2
_geom_bond_site_symmetry_1
_geom_bond_site_symmetry_2
Zn1 N1 1_555 1_555
N1 C16 1_555 1_555
N2 C16 1_555 1_555
N3 C26 1_555 1_555
N4 C26 1_555 1_555
O1 Zn1 1_555 1_555
O2 C1 1_555 1_555
O3 C9 1_555 1_555
O4 C9 1_555 1_555
C1 O1 1_555 1_555
C2 C1 1_555 1_555
C3 C2 1_555 1_555
H1 C3 1_555 1_555
C4 C3 1_555 1_555
H2 C4 1_555 1_555
C5 C4 1_555 1_555
C6 C5 1_555 1_555
H3 C6 1_555 1_555
C7 C2 1_555 1_555
H4 C7 1_555 1_555
C8 C5 1_555 1_555
H5 C8 1_555 1_555
H6 C8 1_555 1_555
C9 C10 1_555 1_555
C10 C11 1_555 1_555
C11 H7 1_555 1_555
C12 C11 1_555 1_555
H8 C12 1_555 1_555
C13 C8 1_555 1_555
C14 C13 1_555 1_555
H9 C14 1_555 1_555
C15 C10 1_555 1_555
H10 C15 1_555 1_555
C16 H11 1_555 1_555
C17 N2 1_555 1_555
H12 C17 1_555 1_555
C18 N1 1_555 1_555
H13 C18 1_555 1_555
C19 N2 1_555 1_555
H14 C19 1_555 1_555
H15 C19 1_555 1_555
C20 C19 1_555 1_555
C21 C20 1_555 1_555
H16 C21 1_555 1_555
C22 C21 1_555 1_555
H17 C22 1_555 1_555
C23 C22 1_555 1_555
C24 C23 1_555 1_555
H18 C24 1_555 1_555
C25 C20 1_555 1_555
H19 C25 1_555 1_555
C26 H20 1_555 1_555
C27 N4 1_555 1_555
H21 C27 1_555 1_555
C28 N3 1_555 1_555
H22 C28 1_555 1_555
C29 N3 1_555 1_555
H23 C29 1_555 1_555
H24 C29 1_555 1_555
O5 H25 1_555 1_555
H26 O5 1_555 1_555
O6 H27 1_555 1_555
H28 O6 1_555 1_555
Zn1_2 O3 1_555 1_555
Zn1_3 N4 1_555 1_555
N4_2 Zn1 1_555 1_555
O3_2 Zn1 1_555 1_555
O4_2 Zn1 1_555 1_555
O4 Zn1_2 1_555 1_555
C6 C7 1_555 1_555
C12 C13 1_555 1_555
C14 C15 1_555 1_555
C17 C18 1_555 1_555
C23 C29 1_555 1_555
C24 C25 1_555 1_555
C27 C28 1_555 1_555

#END
