
#######################################################################
#
#                 Cambridge Crystallographic Data Centre
#                                CCDC 
#
#######################################################################
#
# If this CIF has been generated from an entry in the Cambridge 
# Structural Database, then it will include bibliographic, chemical, 
# crystal, experimental, refinement or atomic coordinate data resulting 
# from the CCDC's data processing and validation procedures.
#
#######################################################################

data_LIFNAQ
_symmetry_cell_setting           tetragonal
_symmetry_space_group_name_H-M   'I 41/a c d'
_symmetry_Int_Tables_number      142
_space_group_name_Hall           '-I 4bd 2c'
loop_
_symmetry_equiv_pos_site_id
_symmetry_equiv_pos_as_xyz
1 x,y,z
2 1/4-y,3/4+x,1/4+z
3 1/4+y,1/4-x,3/4+z
4 1/4+y,3/4+x,3/4-z
5 1/4-y,1/4-x,1/4-z
6 1/2+x,1/2+y,1/2+z
7 3/4-y,1/4+x,3/4+z
8 3/4+y,3/4-x,1/4+z
9 3/4+y,1/4+x,1/4-z
10 1/2-x,-y,1/2+z
11 1/2-x,y,-z
12 x,-y,1/2-z
13 -x,1/2-y,z
14 -x,1/2+y,1/2-z
15 1/2+x,1/2-y,-z
16 3/4-y,3/4-x,3/4-z
17 -x,-y,-z
18 3/4+y,1/4-x,3/4-z
19 3/4-y,3/4+x,1/4-z
20 3/4-y,1/4-x,1/4+z
21 3/4+y,3/4+x,3/4+z
22 1/2-x,1/2-y,1/2-z
23 1/4+y,3/4-x,1/4-z
24 1/4-y,1/4+x,3/4-z
25 1/4-y,3/4-x,3/4+z
26 1/2+x,y,1/2-z
27 1/2+x,-y,z
28 -x,y,1/2+z
29 x,1/2+y,-z
30 x,1/2-y,1/2+z
31 1/2-x,1/2+y,z
32 1/4+y,1/4+x,1/4+z
_cell_length_a                   16.751(2)
_cell_length_b                   16.751(2)
_cell_length_c                   40.752(12)
_cell_angle_alpha                90
_cell_angle_beta                 90
_cell_angle_gamma                90
_cell_volume                     11434.8
loop_
_atom_site_label
_atom_site_type_symbol
_atom_site_fract_x
_atom_site_fract_y
_atom_site_fract_z
Cu1 Cu 0.94465(3) 0.04402(3) 0.073849(13)
O1 O 0.82933(16) 0.01892(17) 0.07485(7)
O3 O 0.8766(2) -0.07346(18) 0.04175(8)
O4 O 1.0614(2) 0.0348(2) 0.06242(11)
N1 N 0.96227(18) -0.01885(19) 0.11520(8)
N2 N 0.9251(2) 0.1172(2) 0.03615(9)
N3 N 1.0113(2) -0.1305(2) 0.20481(8)
H2 H 1.0633(13) -0.134(3) 0.2084(13)
C1 C 0.9128(2) -0.0106(2) 0.14074(10)
H3 H 0.8680 0.0215 0.1381
C2 C 0.9240(2) -0.0466(2) 0.17059(10)
H4 H 0.8880 -0.0381 0.1876
C3 C 0.9902(2) -0.0962(2) 0.17524(9)
C4 C 1.0403(2) -0.1063(3) 0.14829(10)
H5 H 1.0841 -0.1401 0.1499
C5 C 1.0255(2) -0.0672(2) 0.11966(9)
H6 H 1.0609 -0.0742 0.1023
C6 C 0.9113(3) 0.1954(3) 0.03918(10)
H7 H 0.9124 0.2177 0.0601
C7 C 0.8955(3) 0.2445(3) 0.01292(10)
H8 H 0.8863 0.2987 0.0161
C8 C 0.9621(2) -0.1435(2) 0.23145(9)
C9 C 0.8810(3) -0.1592(3) 0.22834(11)
H9 H 0.8570 -0.1596 0.2078
C10 C 0.9242(3) 0.0869(3) 0.00594(11)
H10 H 0.9344 0.0327 0.0034
C11 C 0.8199(2) -0.0397(3) 0.05559(10)
C12 C 0.7348(3) -0.0660(4) 0.04924(13)
H11 H 0.7078 -0.0241 0.0371
H12 H 0.7360 -0.1130 0.0354
C13 C 0.6873(3) -0.0846(4) 0.07892(15)
H13 H 0.6994 -0.0446 0.0954
H14 H 0.7055 -0.1355 0.0874
C14 C 1.0991(3) 0.0886(4) 0.07531(15)
O5 O 1.0637(3) 0.1443(4) 0.08920(13)
Cu1Z Cu 0.44465(3) -0.04402(3) 0.073849(13)
Cu1G Cu 0.79402(3) -0.19465(3) 0.323849(13)
Cu1Z_2 Cu 1.44465(3) -0.04402(3) 0.073849(13)
Cu1F Cu 0.70598(3) 0.19465(3) -0.176151(13)
O1Z O 0.32933(16) -0.01892(17) 0.07485(7)
O1Z_2 O 1.32933(16) -0.01892(17) 0.07485(7)
O3Z O 1.3766(2) 0.07346(18) 0.04175(8)
O4Z O 0.5614(2) -0.0348(2) 0.06242(11)
N1Z N 0.46227(18) 0.01885(19) 0.11520(8)
N1F N 0.76885(19) 0.21227(18) -0.13480(8)
N2Z N 0.4251(2) -0.1172(2) 0.03615(9)
N2G N 0.8672(2) -0.1751(2) 0.28615(9)
N3F N 0.8805(2) 0.2613(2) -0.04519(8)
H2F H 0.884(3) 0.3133(13) -0.0416(13)
C1F C 0.7606(2) 0.1628(2) -0.10926(10)
H3F H 0.7285 0.1180 -0.1119
C2F C 0.7966(2) 0.1740(2) -0.07941(10)
H4F H 0.7881 0.1380 -0.0624
C3F C 0.8462(2) 0.2402(2) -0.07476(9)
C4F C 0.8563(3) 0.2903(2) -0.10171(10)
H5F H 0.8901 0.3341 -0.1001
C5F C 0.8172(2) 0.2755(2) -0.13034(9)
H6F H 0.8242 0.3109 -0.1477
C6G C 0.9454(3) -0.1613(3) 0.28918(10)
H7G H 0.9677 -0.1624 0.3101
C7G C 0.9945(3) -0.1455(3) 0.26292(10)
H8G H 1.0487 -0.1363 0.2661
C8F C 0.8935(2) 0.2121(2) -0.01855(9)
C9F C 0.9092(3) 0.1310(3) -0.02166(11)
H9F H 0.9096 0.1070 -0.0422
C10G C 0.8369(3) -0.1742(3) 0.25594(11)
H10G H 0.7827 -0.1844 0.2534
C11Z C 1.3199(2) 0.0397(3) 0.05559(10)
C12Z C 1.2348(3) 0.0660(4) 0.04924(13)
H11Z H 1.2078 0.0241 0.0371
H12Z H 1.2360 0.1130 0.0354
C13Z C 1.1873(3) 0.0846(4) 0.07892(15)
H13Z H 1.1994 0.0446 0.0954
H14Z H 1.2055 0.1355 0.0874
C14Z C 0.5991(3) -0.0886(4) 0.07531(15)
O5Z O 0.5637(3) -0.1443(4) 0.08920(13)
O2 O 0.9232(2) 0.1732(2) 0.1250
H1 H 0.9689(19) 0.165(4) 0.1173(15)
H1H H 0.915(4) 0.2189(19) 0.1327(15)
loop_
_geom_bond_atom_site_label_1
_geom_bond_atom_site_label_2
_geom_bond_site_symmetry_1
_geom_bond_site_symmetry_2
Cu1 O1 1_555 1_555
O1 C11 1_555 1_555
O2 H1 1_555 1_555
O3 C11 1_555 1_555
O4 Cu1 1_555 1_555
N1 Cu1 1_555 1_555
N2 Cu1 1_555 1_555
N3 H2 1_555 1_555
C1 N1 1_555 1_555
H3 C1 1_555 1_555
C2 C1 1_555 1_555
H4 C2 1_555 1_555
C3 N3 1_555 1_555
C4 C3 1_555 1_555
H5 C4 1_555 1_555
C5 N1 1_555 1_555
H6 C5 1_555 1_555
C6 N2 1_555 1_555
H7 C6 1_555 1_555
C7 C6 1_555 1_555
H8 C7 1_555 1_555
C8 N3 1_555 1_555
C9 C8 1_555 1_555
H9 C9 1_555 1_555
C10 N2 1_555 1_555
H10 C10 1_555 1_555
C11 C12 1_555 1_555
C12 H11 1_555 1_555
H12 C12 1_555 1_555
C13 C12 1_555 1_555
H13 C13 1_555 1_555
H14 C13 1_555 1_555
C14 O4 1_555 1_555
O5 C14 1_555 1_555
Cu1Z O1Z 1_555 1_555
Cu1G N2G 1_555 1_555
Cu1Z_2 O1Z_2 1_555 1_555
Cu1F N1F 1_555 1_555
O1Z_2 C11Z 1_555 1_555
H1H O2 1_555 1_555
O3Z C11Z 1_555 1_555
O4Z Cu1Z 1_555 1_555
N1Z Cu1Z 1_555 1_555
N1F C1F 1_555 1_555
N2Z Cu1Z 1_555 1_555
N2G C6G 1_555 1_555
N3F H2F 1_555 1_555
C1F H3F 1_555 1_555
C2F C1F 1_555 1_555
H4F C2F 1_555 1_555
C3F N3F 1_555 1_555
C4F C3F 1_555 1_555
H5F C4F 1_555 1_555
C5F N1F 1_555 1_555
H6F C5F 1_555 1_555
C6G H7G 1_555 1_555
C7G C8 1_555 1_555
H8G C7G 1_555 1_555
C8F C7 1_555 1_555
C9F C10 1_555 1_555
H9F C9F 1_555 1_555
C10G C9 1_555 1_555
H10G C10G 1_555 1_555
C11Z C12Z 1_555 1_555
C12Z H11Z 1_555 1_555
H12Z C12Z 1_555 1_555
C13Z C14 1_555 1_555
H13Z C13Z 1_555 1_555
H14Z C13Z 1_555 1_555
C14Z C13 1_555 1_555
O5Z C14Z 1_555 1_555
C2 C3 1_555 1_555
C4 C5 1_555 1_555
O4Z C14Z 1_555 1_555
N2G C10G 1_555 1_555
N3F C8F 1_555 1_555
C2F C3F 1_555 1_555
C4F C5F 1_555 1_555
C6G C7G 1_555 1_555
C8F C9F 1_555 1_555
C12Z C13Z 1_555 1_555

#END
