
#######################################################################
#
#                 Cambridge Crystallographic Data Centre
#                                CCDC 
#
#######################################################################
#
# If this CIF has been generated from an entry in the Cambridge 
# Structural Database, then it will include bibliographic, chemical, 
# crystal, experimental, refinement or atomic coordinate data resulting 
# from the CCDC's data processing and validation procedures.
#
#######################################################################

data_LIFNAR
_symmetry_cell_setting           monoclinic
_symmetry_space_group_name_H-M   'C c'
_symmetry_Int_Tables_number      9
_space_group_name_Hall           'C -2yc'
loop_
_symmetry_equiv_pos_site_id
_symmetry_equiv_pos_as_xyz
1 x,y,z
2 x,-y,1/2+z
3 1/2+x,1/2+y,z
4 1/2+x,1/2-y,1/2+z
_cell_length_a                   9.7964(13)
_cell_length_b                   29.592(4)
_cell_length_c                   7.7444(10)
_cell_angle_alpha                90
_cell_angle_beta                 103.274(2)
_cell_angle_gamma                90
_cell_volume                     2185.08
loop_
_atom_site_label
_atom_site_type_symbol
_atom_site_fract_x
_atom_site_fract_y
_atom_site_fract_z
Zn1 Zn 0.54753(4) 0.403080(9) 0.17295(5)
N1 N 0.6258(3) 0.46619(8) 0.2355(3)
N2 N 0.3765(3) 0.44531(9) 0.0294(4)
N3 N 0.6038(3) 0.53953(8) 0.1970(4)
O1 O 0.5111(2) 0.38777(8) 0.4677(3)
O2 O 0.4146(2) 0.35445(8) 0.2168(3)
O3 O -0.2554(2) 0.36355(7) 1.2119(3)
O4 O -0.3877(2) 0.37919(8) 0.9516(3)
C1 C 0.4281(3) 0.35963(10) 0.3829(4)
C2 C 0.3387(3) 0.33079(10) 0.4730(4)
C3 C 0.2411(3) 0.30232(10) 0.3712(4)
H1 H 0.2318 0.3010 0.2491
C4 C 0.1568(3) 0.27565(10) 0.4513(4)
H2 H 0.0904 0.2568 0.3816
C5 C 0.1697(3) 0.27662(10) 0.6320(4)
C6 C 0.2695(3) 0.30472(11) 0.7332(4)
H3 H 0.2800 0.3056 0.8556
C7 C 0.3548(3) 0.33182(11) 0.6543(4)
H4 H 0.4220 0.3505 0.7238
C8 C 0.0742(3) 0.24787(9) 0.7170(4)
H5 H 0.0176 0.2284 0.6277
H6 H 0.1310 0.2288 0.8076
C9 C -0.2825(3) 0.35986(10) 1.0455(4)
C10 C -0.1908(3) 0.33175(10) 0.9585(4)
C11 C -0.2103(3) 0.33055(11) 0.7738(4)
H7 H -0.2811 0.3477 0.7028
C12 C -0.1249(3) 0.30402(12) 0.6971(4)
H8 H -0.1368 0.3042 0.5744
C13 C -0.0212(3) 0.27700(10) 0.7997(4)
C14 C -0.0048(3) 0.27775(10) 0.9822(4)
H9 H 0.0629 0.2595 1.0532
C15 C -0.0873(3) 0.30504(10) 1.0598(4)
H10 H -0.0730 0.3055 1.1827
C16 C 0.2519(4) 0.43225(14) -0.0687(6)
H11 H 0.2334 0.4015 -0.0814
C17 C 0.1505(4) 0.46184(16) -0.1513(6)
H12 H 0.0651 0.4515 -0.2188
C18 C 0.1790(4) 0.50771(15) -0.1312(6)
H13 H 0.1125 0.5288 -0.1851
C19 C 0.3062(4) 0.52160(13) -0.0311(5)
H14 H 0.3268 0.5522 -0.0154
C20 C 0.4035(4) 0.48937(12) 0.0462(4)
C21 C 0.5423(5) 0.49899(8) 0.1570(5)
C22 C 0.7326(4) 0.53217(12) 0.3040(5)
H15 H 0.7991 0.5539 0.3515
C23 C 0.7450(4) 0.48679(13) 0.3280(5)
H16 H 0.8225 0.4720 0.3966
H17 H 0.564(3) 0.5651(10) 0.142(4)
Zn1_2 Zn -0.45247(4) 0.403080(9) 1.17295(5)
O3_2 O 0.7446(2) 0.36355(7) 0.2119(3)
O4_2 O 0.6123(2) 0.37919(8) -0.0484(3)
O5 O 0.9967(5) 0.39702(13) 0.4416(7)
H18 H 1.0117 0.4013 0.3391
H19 H 0.9334 0.3784 0.4532
loop_
_geom_bond_atom_site_label_1
_geom_bond_atom_site_label_2
_geom_bond_site_symmetry_1
_geom_bond_site_symmetry_2
Zn1 N1 1_555 1_555
N1 C21 1_555 1_555
N2 Zn1 1_555 1_555
N3 C21 1_555 1_555
O1 Zn1 1_555 1_555
O2 Zn1 1_555 1_555
O3 C9 1_555 1_555
O4 C9 1_555 1_555
C1 O1 1_555 1_555
C2 C1 1_555 1_555
C3 C2 1_555 1_555
H1 C3 1_555 1_555
C4 C3 1_555 1_555
H2 C4 1_555 1_555
C5 C4 1_555 1_555
C6 C5 1_555 1_555
H3 C6 1_555 1_555
C7 C2 1_555 1_555
H4 C7 1_555 1_555
C8 C5 1_555 1_555
H5 C8 1_555 1_555
H6 C8 1_555 1_555
C9 C10 1_555 1_555
C10 C11 1_555 1_555
C11 H7 1_555 1_555
C12 C11 1_555 1_555
H8 C12 1_555 1_555
C13 C8 1_555 1_555
C14 C13 1_555 1_555
H9 C14 1_555 1_555
C15 C10 1_555 1_555
H10 C15 1_555 1_555
C16 N2 1_555 1_555
H11 C16 1_555 1_555
C17 C16 1_555 1_555
H12 C17 1_555 1_555
C18 C17 1_555 1_555
H13 C18 1_555 1_555
C19 C18 1_555 1_555
H14 C19 1_555 1_555
C20 N2 1_555 1_555
C21 C20 1_555 1_555
C22 N3 1_555 1_555
H15 C22 1_555 1_555
C23 N1 1_555 1_555
H16 C23 1_555 1_555
H17 N3 1_555 1_555
O5 H18 1_555 1_555
H19 O5 1_555 1_555
Zn1_2 O3 1_555 1_555
O3_2 Zn1 1_555 1_555
O4_2 Zn1 1_555 1_555
O2 C1 1_555 1_555
O4 Zn1_2 1_555 1_555
C6 C7 1_555 1_555
C12 C13 1_555 1_555
C14 C15 1_555 1_555
C19 C20 1_555 1_555
C22 C23 1_555 1_555

#END
