
#######################################################################
#
#                 Cambridge Crystallographic Data Centre
#                                CCDC 
#
#######################################################################
#
# If this CIF has been generated from an entry in the Cambridge 
# Structural Database, then it will include bibliographic, chemical, 
# crystal, experimental, refinement or atomic coordinate data resulting 
# from the CCDC's data processing and validation procedures.
#
#######################################################################

data_LIFQIC
_symmetry_cell_setting           rhombohedral
_symmetry_space_group_name_H-M   'R 3 2'
_symmetry_Int_Tables_number      155
_space_group_name_Hall           'R 3 2"'
loop_
_symmetry_equiv_pos_site_id
_symmetry_equiv_pos_as_xyz
1 x,y,z
2 -y,x-y,z
3 -x+y,-x,z
4 y,x,-z
5 x-y,-y,-z
6 -x,-x+y,-z
7 2/3+x,1/3+y,1/3+z
8 2/3-y,1/3+x-y,1/3+z
9 2/3-x+y,1/3-x,1/3+z
10 2/3+y,1/3+x,1/3-z
11 2/3+x-y,1/3-y,1/3-z
12 2/3-x,1/3-x+y,1/3-z
13 1/3+x,2/3+y,2/3+z
14 1/3-y,2/3+x-y,2/3+z
15 1/3-x+y,2/3-x,2/3+z
16 1/3+y,2/3+x,2/3-z
17 1/3+x-y,2/3-y,2/3-z
18 1/3-x,2/3-x+y,2/3-z
_cell_length_a                   12.472(2)
_cell_length_b                   12.472(2)
_cell_length_c                   19.703(3)
_cell_angle_alpha                90
_cell_angle_beta                 90
_cell_angle_gamma                120
_cell_volume                     2654.21
loop_
_atom_site_label
_atom_site_type_symbol
_atom_site_fract_x
_atom_site_fract_y
_atom_site_fract_z
C1 C 0.1120(4) 0.2251(3) 0.22135(13)
C2 C 0.0825(3) 0.2813(3) 0.28109(18)
C3 C 0.1672(4) 0.3333 0.3333
H1 H 0.2417 0.3333 0.3333
C4 C -0.0517(4) 0.3333 0.3333
Eu1 Eu 0.3333 0.155012(18) 0.1667
N1 N -0.0244(2) 0.2802(3) 0.27952(12)
O1 O 0.2038(3) 0.2115(3) 0.22614(12)
O2 O 0.0425(2) 0.1979(3) 0.17038(11)
O3 O -0.1523(3) 0.3333 0.3333
O4 O 0.2048(2) 0.1739(2) 0.08361(11)
H2 H 0.1324 0.1599 0.0889
H3 H 0.2004 0.1406 0.0465
C1P C 0.2202(5) 0.4416(3) 0.44532(13)
C2P C 0.1345(4) 0.3854(3) 0.38558(18)
N1P N 0.0287(4) 0.3865(3) 0.38715(12)
O1P O 0.3256(4) 0.4552(3) 0.44053(12)
O2P O 0.1779(4) 0.4688(3) 0.49629(11)
O4K O 0.4619(2) 0.3024(3) 0.24972(11)
H2K H 0.5343 0.3608 0.2444
H3K H 0.4663 0.2735 0.2868
Eu1A Eu -0.155012(18) 0.178288(18) 0.1667
Eu1F Eu -0.0000 0.488345(18) 0.5000
Eu1G Eu 0.511655(18) 0.511621(18) 0.5000
N1B N 0.3046(4) 0.0244(2) 0.27952(12)
N1J N 0.3621(4) 0.0531(3) 0.05381(12)
O1K O 0.4629(3) 0.3410(4) 0.10719(12)
O2B O 0.1554(4) -0.0425(2) 0.17038(11)
O2J O 0.5113(4) 0.1354(3) 0.16295(11)
O5 O 0.2582(10) 0.4541(10) 0.0998(7)
H4 H 0.2168 0.3771 0.1097
H5 H 0.2557 0.4947 0.1320
O6 O 0.3333 0.6667 0.0213(8)
H6? H 0.3509 0.6155 0.0404
H7? H 0.3939 0.7395 0.0132
loop_
_geom_bond_atom_site_label_1
_geom_bond_atom_site_label_2
_geom_bond_site_symmetry_1
_geom_bond_site_symmetry_2
C1 C2 1_555 1_555
C2 C3 1_555 1_555
C3 H1 1_555 1_555
C4 N1 1_555 1_555
Eu1 O1 1_555 1_555
N1 C2 1_555 1_555
O1 C1 1_555 1_555
O2 C1 1_555 1_555
O3 C4 1_555 1_555
O4 Eu1 1_555 1_555
H2 O4 1_555 1_555
H3 O4 1_555 1_555
O5 H4 1_555 1_555
H5 O5 1_555 1_555
C1P C2P 1_555 1_555
C2P C3 1_555 1_555
N1P C4 1_555 1_555
O1P C1P 1_555 1_555
O2P C1P 1_555 1_555
O4K Eu1 1_555 1_555
H2K O4K 1_555 1_555
H3K O4K 1_555 1_555
Eu1A N1 1_555 1_555
Eu1F N1P 1_555 1_555
Eu1G O1P 1_555 1_555
N1B Eu1 1_555 1_555
N1J Eu1 1_555 1_555
O1K Eu1 1_555 1_555
O2B Eu1 1_555 1_555
O2J Eu1 1_555 1_555
O2 Eu1A 1_555 1_555
C2P N1P 1_555 1_555
O2P Eu1F 1_555 1_555

#END
