
#######################################################################
#
#                 Cambridge Crystallographic Data Centre
#                                CCDC 
#
#######################################################################
#
# If this CIF has been generated from an entry in the Cambridge 
# Structural Database, then it will include bibliographic, chemical, 
# crystal, experimental, refinement or atomic coordinate data resulting 
# from the CCDC's data processing and validation procedures.
#
#######################################################################

data_LIFQUN
_symmetry_cell_setting           triclinic
_symmetry_space_group_name_H-M   'P -1'
_symmetry_Int_Tables_number      2
_space_group_name_Hall           '-P 1'
loop_
_symmetry_equiv_pos_site_id
_symmetry_equiv_pos_as_xyz
1 x,y,z
2 -x,-y,-z
_cell_length_a                   7.8389(6)
_cell_length_b                   9.9999(7)
_cell_length_c                   11.6357(9)
_cell_angle_alpha                106.6160(10)
_cell_angle_beta                 102.630(2)
_cell_angle_gamma                100.051(3)
_cell_volume                     825.004
loop_
_atom_site_label
_atom_site_type_symbol
_atom_site_fract_x
_atom_site_fract_y
_atom_site_fract_z
Ag1 Ag 0.78336(5) -0.04272(4) 0.51438(3)
Ag2 Ag 0.27424(6) -0.01242(4) 0.02688(3)
C1 C -0.0231(6) -0.2391(5) -0.3593(4)
H1 H -0.0773 -0.3237 -0.4271
C2 C 0.6135(6) 0.1752(5) 0.4060(4)
H2 H 0.6779 0.2557 0.4756
C3 C 0.0560(7) -0.0220(5) -0.2386(4)
H3 H 0.0637 0.0761 -0.2076
C4 C 0.5024(6) -0.0382(5) 0.2787(4)
H4 H 0.4768 -0.1382 0.2446
N1 N -0.0541(5) -0.1108(4) -0.3522(3)
N2 N 0.1506(5) -0.0887(4) -0.1767(3)
N3 N 0.4276(5) 0.0421(4) 0.2221(3)
N4 N 0.6220(5) 0.0405(4) 0.3930(3)
N5 N 0.4994(5) 0.1772(4) 0.3048(3)
H5 H 0.4745 0.2537 0.2933
N6 N 0.0969(5) -0.2280(4) -0.2549(3)
H6 H 0.1349 -0.2983 -0.2390
Ag1_2 Ag -0.21664(5) -0.04272(4) -0.48562(3)
N1_2 N 0.9459(5) -0.1108(4) 0.6478(3)
Mo1 Mo -0.42014(4) -0.43442(4) -0.68895(3)
Mo2 Mo -0.02626(4) -0.37725(3) -0.74229(3)
Mo3 Mo -0.21387(4) -0.36773(3) -1.08049(3)
Mo4 Mo -0.62215(4) -0.37992(3) -1.02084(3)
O1 O 0.0842(3) -0.5231(3) -0.8489(2)
O2 O -0.5327(4) -0.3105(3) -0.6359(3)
O3 O -0.0877(4) -0.1956(3) -1.0353(3)
O4 O -0.3306(4) -0.4824(3) -0.5647(3)
O5 O 0.1202(4) -0.2216(3) -0.7238(3)
O6 O -0.4156(3) -0.2607(3) -1.0022(2)
O7 O -0.2136(4) -0.2982(3) -0.6915(3)
O8 O 0.0586(4) -0.4242(3) -0.6160(3)
O9 O -0.2702(3) -0.5718(3) -0.8059(2)
O10 O -0.5403(3) -0.4589(3) -0.8905(2)
O11 O -0.1829(3) -0.4167(3) -0.9330(2)
O12 O -0.6196(3) -0.6151(3) -0.7679(2)
O13 O -0.2560(4) -0.7291(3) -1.0429(3)
Mo1A Mo -0.57986(4) -0.56558(4) -1.31105(3)
Mo2A Mo 0.02626(4) -0.62275(3) -1.25771(3)
Mo2A_2 Mo -0.97374(4) -0.62275(3) -1.25771(3)
Mo3A Mo 0.21387(4) -0.63227(3) -0.91951(3)
Mo3A_2 Mo -0.78613(4) -0.63227(3) -0.91951(3)
Mo4A Mo -0.37785(4) -0.62008(3) -0.97916(3)
O1A O -0.0842(3) -0.4769(3) -1.1511(2)
O1A_2 O -1.0842(3) -0.4769(3) -1.1511(2)
O1_2 O -0.9158(3) -0.5231(3) -0.8489(2)
O2A O -0.4673(4) -0.6895(3) -1.3641(3)
O3A O -0.9123(4) -0.8044(3) -0.9647(3)
O4A O -0.6694(4) -0.5176(3) -1.4353(3)
O5A O -1.1202(4) -0.7784(3) -1.2762(3)
O6A O -0.5844(3) -0.7393(3) -0.9978(2)
O7A O -0.7864(4) -0.7018(3) -1.3085(3)
O8A O -1.0586(4) -0.5758(3) -1.3840(3)
O9A O -0.7298(3) -0.4282(3) -1.1941(2)
O10A O -0.4597(3) -0.5411(3) -1.1095(2)
O11A O -0.8171(3) -0.5833(3) -1.0670(2)
O12A O -0.3804(3) -0.3849(3) -1.2321(2)
O13A O -0.7440(4) -0.2709(3) -0.9571(3)
loop_
_geom_bond_atom_site_label_1
_geom_bond_atom_site_label_2
_geom_bond_site_symmetry_1
_geom_bond_site_symmetry_2
Ag1 N4 1_555 1_555
Ag2 N2 1_555 1_555
Mo1 O2 1_555 1_555
Mo2 O1 1_555 1_555
Mo3 O3 1_555 1_555
Mo4 O6 1_555 1_555
C1 H1 1_555 1_555
C2 H2 1_555 1_555
C3 H3 1_555 1_555
C4 H4 1_555 1_555
N1 C1 1_555 1_555
N2 C3 1_555 1_555
N3 Ag2 1_555 1_555
N4 C2 1_555 1_555
N5 C2 1_555 1_555
H5 N5 1_555 1_555
N6 C1 1_555 1_555
H6 N6 1_555 1_555
O1 Mo3A 1_555 1_555
O4 Mo1 1_555 1_555
O5 Mo2 1_555 1_555
O6 Mo3 1_555 1_555
O7 Mo1 1_555 1_555
O8 Mo2 1_555 1_555
O9 Mo1 1_555 1_555
O10 Mo1 1_555 1_555
O11 Mo2 1_555 1_555
O12 Mo1 1_555 1_555
O13 Mo4A 1_555 1_555
Ag1_2 N1 1_555 1_555
Mo1A O2A 1_555 1_555
Mo2A O1A 1_555 1_555
Mo2A_2 O1A_2 1_555 1_555
Mo3A_2 O10 1_555 1_555
Mo4A O9 1_555 1_555
N1_2 Ag1 1_555 1_555
O1A Mo3 1_555 1_555
O1_2 Mo3A_2 1_555 1_555
O3A Mo3A_2 1_555 1_555
O4A Mo1A 1_555 1_555
O5A Mo2A_2 1_555 1_555
O6A Mo3A_2 1_555 1_555
O7A Mo1A 1_555 1_555
O8A Mo2A_2 1_555 1_555
O9A Mo4 1_555 1_555
O10A Mo3 1_555 1_555
O11A Mo4 1_555 1_555
O12A Mo3 1_555 1_555
O13A Mo4 1_555 1_555
Mo2 O7 1_555 1_555
Mo2 O9 1_555 1_555
Mo3 O11 1_555 1_555
Mo4 O10 1_555 1_555
Mo4 O10A 1_555 1_555
C3 N1 1_555 1_555
C4 N3 1_555 1_555
C4 N4 1_555 1_555
N2 N6 1_555 1_555
N3 N5 1_555 1_555
O10 Mo4A 1_555 1_555
O11 Mo4A 1_555 1_555
O12 Mo3A_2 1_555 1_555
Mo1A O9A 1_555 1_555
Mo1A O10A 1_555 1_555
Mo1A O12A 1_555 1_555
Mo2A_2 O7A 1_555 1_555
Mo2A_2 O9A 1_555 1_555
Mo2A_2 O11A 1_555 1_555
Mo3A_2 O11A 1_555 1_555
Mo4A O6A 1_555 1_555
Mo4A O10A 1_555 1_555

#END
