
#######################################################################
#
#                 Cambridge Crystallographic Data Centre
#                                CCDC 
#
#######################################################################
#
# If this CIF has been generated from an entry in the Cambridge 
# Structural Database, then it will include bibliographic, chemical, 
# crystal, experimental, refinement or atomic coordinate data resulting 
# from the CCDC's data processing and validation procedures.
#
#######################################################################

data_LIFQAU
_symmetry_cell_setting           rhombohedral
_symmetry_space_group_name_H-M   'R 3 2'
_symmetry_Int_Tables_number      155
_space_group_name_Hall           'R 3 2"'
loop_
_symmetry_equiv_pos_site_id
_symmetry_equiv_pos_as_xyz
1 x,y,z
2 -y,x-y,z
3 -x+y,-x,z
4 y,x,-z
5 x-y,-y,-z
6 -x,-x+y,-z
7 2/3+x,1/3+y,1/3+z
8 2/3-y,1/3+x-y,1/3+z
9 2/3-x+y,1/3-x,1/3+z
10 2/3+y,1/3+x,1/3-z
11 2/3+x-y,1/3-y,1/3-z
12 2/3-x,1/3-x+y,1/3-z
13 1/3+x,2/3+y,2/3+z
14 1/3-y,2/3+x-y,2/3+z
15 1/3-x+y,2/3-x,2/3+z
16 1/3+y,2/3+x,2/3-z
17 1/3+x-y,2/3-y,2/3-z
18 1/3-x,2/3-x+y,2/3-z
_cell_length_a                   12.4040(10)
_cell_length_b                   12.4040(10)
_cell_length_c                   19.6075(16)
_cell_angle_alpha                90
_cell_angle_beta                 90
_cell_angle_gamma                120
_cell_volume                     2612.62
loop_
_atom_site_label
_atom_site_type_symbol
_atom_site_fract_x
_atom_site_fract_y
_atom_site_fract_z
C1 C 0.1103(3) 0.2235(3) 0.22083(12)
C2 C 0.0817(3) 0.2812(3) 0.28095(18)
C3 C 0.1670(4) 0.3333 0.3333
H1 H 0.2420 0.3333 0.3333
C4 C -0.0539(4) 0.3333 0.3333
N1 N -0.0264(2) 0.2800(2) 0.27951(12)
O1 O 0.2030(2) 0.2105(3) 0.22569(11)
O2 O 0.0402(2) 0.1961(2) 0.16979(11)
O3 O -0.1547(3) 0.3333 0.3333
O4 O 0.20622(19) 0.1759(2) 0.08388(11)
H2 H 0.1339 0.1619 0.0892
H3 H 0.2019 0.1426 0.0468
Tb1 Tb 0.3333 0.156561(19) 0.1667
C1P C 0.2201(4) 0.4432(3) 0.44584(12)
C2P C 0.1338(4) 0.3855(3) 0.38572(18)
N1P N 0.0269(3) 0.3867(2) 0.38716(12)
O1P O 0.3258(4) 0.4562(3) 0.44098(11)
O2P O 0.1774(3) 0.4706(2) 0.49688(11)
O4K O 0.46045(19) 0.30301(28) 0.24945(11)
H2K H 0.5328 0.3613 0.2441
H3K H 0.4648 0.2740 0.2865
N1B N 0.3064(3) 0.0264(2) 0.27951(12)
N1J N 0.3603(3) 0.0533(2) 0.05382(12)
O1K O 0.4637(2) 0.3408(4) 0.10764(11)
O2B O 0.1559(3) -0.0402(2) 0.16979(11)
O2J O 0.5108(3) 0.1372(2) 0.16354(11)
Tb1A Tb -0.156561(19) 0.176739(19) 0.1667
Tb1F Tb -0.0000 0.489894(19) 0.5000
Tb1G Tb 0.510106(19) 0.510072(19) 0.5000
O5 O 0.2591(9) 0.4569(8) 0.1014(6)
H4 H 0.2177 0.3799 0.1113
H5 H 0.2566 0.4975 0.1336
O6 O 0.3333 0.6667 0.0193(7)
H6? H 0.3509 0.6155 0.0402
H7? H 0.3939 0.7395 0.0131
loop_
_geom_bond_atom_site_label_1
_geom_bond_atom_site_label_2
_geom_bond_site_symmetry_1
_geom_bond_site_symmetry_2
C1 C2 1_555 1_555
C2 C3 1_555 1_555
C3 H1 1_555 1_555
C4 N1 1_555 1_555
N1 C2 1_555 1_555
O1 C1 1_555 1_555
O2 C1 1_555 1_555
O3 C4 1_555 1_555
O4 H2 1_555 1_555
H3 O4 1_555 1_555
Tb1 O1 1_555 1_555
O5 H4 1_555 1_555
H5 O5 1_555 1_555
C1P C2P 1_555 1_555
C2P C3 1_555 1_555
N1P C4 1_555 1_555
O1P C1P 1_555 1_555
O2P C1P 1_555 1_555
O4K Tb1 1_555 1_555
H2K O4K 1_555 1_555
H3K O4K 1_555 1_555
N1B Tb1 1_555 1_555
N1J Tb1 1_555 1_555
O1K Tb1 1_555 1_555
O2B Tb1 1_555 1_555
O2J Tb1 1_555 1_555
Tb1A N1 1_555 1_555
Tb1F N1P 1_555 1_555
Tb1G O1P 1_555 1_555
O2 Tb1A 1_555 1_555
O4 Tb1 1_555 1_555
C2P N1P 1_555 1_555
O2P Tb1F 1_555 1_555

#END
