
#######################################################################
#
#                 Cambridge Crystallographic Data Centre
#                                CCDC 
#
#######################################################################
#
# If this CIF has been generated from an entry in the Cambridge 
# Structural Database, then it will include bibliographic, chemical, 
# crystal, experimental, refinement or atomic coordinate data resulting 
# from the CCDC's data processing and validation procedures.
#
#######################################################################

data_LIFQIB
_symmetry_cell_setting           monoclinic
_symmetry_space_group_name_H-M   'P 21/n'
_symmetry_Int_Tables_number      14
_space_group_name_Hall           '-P 2yn'
loop_
_symmetry_equiv_pos_site_id
_symmetry_equiv_pos_as_xyz
1 x,y,z
2 1/2-x,1/2+y,1/2-z
3 -x,-y,-z
4 1/2+x,1/2-y,1/2+z
_cell_length_a                   13.755(2)
_cell_length_b                   13.589(2)
_cell_length_c                   14.229(2)
_cell_angle_alpha                90
_cell_angle_beta                 90.925(2)
_cell_angle_gamma                90
_cell_volume                     2659.29
loop_
_atom_site_label
_atom_site_type_symbol
_atom_site_fract_x
_atom_site_fract_y
_atom_site_fract_z
Ag1 Ag 0.87011(4) 1.67467(6) -0.27267(4)
Ag2 Ag 0.63988(3) 1.69240(4) -0.09518(3)
C1 C 0.8857(5) 1.7591(6) -0.6620(4)
H1 H 0.9397 1.7788 -0.6996
H2 H 0.8574 1.7002 -0.6877
H3 H 0.8379 1.8105 -0.6620
C2 C 0.8878(5) 1.5052(5) -0.1334(5)
C3 C 0.7620(5) 1.5110(4) -0.0412(4)
C4 C 1.0953(5) 1.7155(6) -0.3783(5)
H4 H 1.1518 1.7348 -0.4125
H5 H 1.1031 1.6491 -0.3565
H6 H 1.0873 1.7586 -0.3255
C5 C 0.6931(6) 1.4872(6) 0.0354(5)
H7 H 0.6419 1.5352 0.0360
H8 H 0.7272 1.4879 0.0948
H9 H 0.6657 1.4231 0.0247
C6 C 1.0083(4) 1.7218(4) -0.4408(4)
C7 C 0.9796(6) 1.4717(7) -0.1767(7)
H10 H 0.9973 1.5165 -0.2256
H11 H 0.9704 1.4071 -0.2028
H12 H 1.0303 1.4696 -0.1297
C8 C 0.9201(4) 1.7402(4) -0.5640(4)
N1 N 0.7570(3) 1.5867(3) -0.0979(3)
N2 N 0.8369(3) 1.5828(3) -0.1558(3)
N3 N 0.9201(4) 1.7005(4) -0.4141(3)
N4 N 0.8643(4) 1.7118(4) -0.4938(3)
H13 H 0.8026 1.7021 -0.4978
N5 N 0.8425(4) 1.4587(4) -0.0618(4)
H14 H 0.8616 1.4055 -0.0344
N6 N 1.0111(3) 1.7466(3) -0.5331(3)
Ag1C Ag 1.37011(4) 1.82533(6) -0.77267(4)
Ag1C_2 Ag 0.37011(4) 1.82533(6) 0.22733(4)
Ag2C Ag 1.13988(3) 1.80760(4) -0.59518(3)
C1C C 0.3857(5) 1.7409(6) -0.1620(4)
H1C H 0.4397 1.7212 -0.1996
H2C H 0.3574 1.7998 -0.1877
H3C H 0.3379 1.6895 -0.1620
C2C C 1.3878(5) 1.9948(5) -0.6334(5)
C3C C 1.2620(5) 1.9890(4) -0.5412(4)
C4C C 0.5953(5) 1.7845(6) 0.1217(5)
H4C H 0.6518 1.7652 0.0875
H5C H 0.6031 1.8509 0.1435
H6C H 0.5873 1.7414 0.1745
C5C C 1.1931(6) 2.0128(6) -0.4646(5)
H7C H 1.1419 1.9648 -0.4640
H8C H 1.2272 2.0121 -0.4052
H9C H 1.1657 2.0769 -0.4753
C6C C 0.5083(4) 1.7782(4) 0.0592(4)
C7C C 1.4796(6) 2.0283(7) -0.6767(7)
H10C H 1.4973 1.9835 -0.7256
H11C H 1.4704 2.0929 -0.7028
H12C H 1.5303 2.0304 -0.6297
C8C C 0.4201(4) 1.7598(4) -0.0640(4)
N1C N 1.2570(3) 1.9133(3) -0.5979(3)
N2C N 1.3369(3) 1.9172(3) -0.6558(3)
N3C N 0.4201(4) 1.7995(4) 0.0859(3)
N3C_2 N 1.4201(4) 1.7995(4) -0.9141(3)
N4C N 0.3643(4) 1.7882(4) 0.0062(3)
H13C H 0.3026 1.7979 0.0022
N5C N 1.3425(4) 2.0413(4) -0.5618(4)
H14C H 1.3616 2.0945 -0.5344
N6C N 0.5111(3) 1.7534(3) -0.0331(3)
P1 P 0.5000 1.5000 -0.5000
Mo1 Mo 0.37979(3) 1.32524(3) -0.64751(3)
Mo2 Mo 0.42194(4) 1.27250(3) -0.40463(3)
Mo3 Mo 0.46365(4) 1.55054(3) -0.74533(3)
Mo4 Mo 0.26295(4) 1.55221(4) -0.59063(4)
Mo5 Mo 0.62031(4) 1.27831(4) -0.56366(3)
Mo6 Mo 0.70233(4) 1.50651(4) -0.65294(3)
O1 O 0.6746(6) 1.3689(4) -0.6459(3)
O2 O 0.4800(5) 1.3876(5) -0.5195(4)
O3 O 0.3213(4) 1.2476(3) -0.7194(3)
O4 O 0.5953(3) 1.5148(3) -0.7402(4)
O5 O 0.7961(3) 1.5102(4) -0.7240(4)
O6 O 0.3803(4) 1.1657(3) -0.3650(4)
O7 O 0.2784(4) 1.4178(3) -0.6219(4)
O8 O 0.4938(3) 1.3207(3) -0.3040(4)
O9 O 0.6725(3) 1.1739(3) -0.5946(3)
O10 O 0.1516(3) 1.5757(4) -0.6307(4)
O11 O 0.3544(4) 1.2687(6) -0.5289(3)
O12 O 0.3180(3) 1.3592(4) -0.3732(4)
O13 O 0.4362(5) 1.4891(5) -0.5853(4)
O14 O 0.5328(4) 1.2341(7) -0.4668(3)
O15 O 0.6038(5) 1.4550(5) -0.5228(4)
O16 O 0.3400(4) 1.5859(3) -0.6931(5)
O17 O 0.5370(5) 1.5488(5) -0.5854(4)
O18 O 0.4475(5) 1.5759(4) -0.8583(3)
O19 O 0.5049(4) 1.2746(6) -0.6425(3)
O20 O 0.2357(7) 1.5066(4) -0.4663(4)
O21 O 0.4245(4) 1.4191(3) -0.7385(4)
O22 O 0.2952(6) 1.6756(4) -0.5333(3)
Mo1B Mo 0.62021(3) 1.67476(3) -0.35249(3)
Mo2B Mo 0.57806(4) 1.72750(3) -0.59537(3)
Mo3B Mo 0.53635(4) 1.44946(3) -0.25467(3)
Mo4B Mo 0.73705(4) 1.44779(4) -0.40937(4)
Mo5B Mo 0.37969(4) 1.72169(4) -0.43634(3)
Mo6B Mo 0.29767(4) 1.49349(4) -0.34706(3)
O1B O 0.3254(6) 1.6311(4) -0.3541(3)
O2B O 0.5200(5) 1.6124(5) -0.4805(4)
O3B O 0.6787(4) 1.7524(3) -0.2806(3)
O4B O 0.4047(3) 1.4852(3) -0.2598(4)
O5B O 0.2039(3) 1.4898(4) -0.2760(4)
O6B O 0.6197(4) 1.8343(3) -0.6350(4)
O7B O 0.7216(4) 1.5822(3) -0.3781(4)
O8B O 0.5062(3) 1.6793(3) -0.6960(4)
O9B O 0.3275(3) 1.8261(3) -0.4054(3)
O10B O 0.8484(3) 1.4243(4) -0.3693(4)
O11B O 0.6456(4) 1.7313(6) -0.4711(3)
O12B O 0.6820(3) 1.6408(4) -0.6268(4)
O13B O 0.5638(5) 1.5109(5) -0.4147(4)
O14B O 0.4672(4) 1.7659(7) -0.5332(3)
O15B O 0.3962(5) 1.5450(5) -0.4772(4)
O16B O 0.6600(4) 1.4141(3) -0.3069(5)
O17B O 0.4630(5) 1.4512(5) -0.4146(4)
O18B O 0.5525(5) 1.4241(4) -0.1417(3)
O19B O 0.4951(4) 1.7254(6) -0.3575(3)
O20B O 0.7643(7) 1.4934(4) -0.5337(4)
O21B O 0.5755(4) 1.5809(3) -0.2615(4)
O22B O 0.7048(6) 1.3244(4) -0.4667(3)
loop_
_geom_bond_atom_site_label_1
_geom_bond_atom_site_label_2
_geom_bond_site_symmetry_1
_geom_bond_site_symmetry_2
P1 O2 1_555 1_555
Mo1 O2 1_555 1_555
Mo2 O2 1_555 1_555
Mo3 O4 1_555 1_555
Mo4 O7 1_555 1_555
Mo5 O1 1_555 1_555
Mo6 O1 1_555 1_555
Ag1 N2 1_555 1_555
Ag2 N1 1_555 1_555
C1 H1 1_555 1_555
H2 C1 1_555 1_555
H3 C1 1_555 1_555
C2 C7 1_555 1_555
C3 C5 1_555 1_555
C4 H4 1_555 1_555
H5 C4 1_555 1_555
H6 C4 1_555 1_555
C5 H7 1_555 1_555
H8 C5 1_555 1_555
H9 C5 1_555 1_555
C6 C4 1_555 1_555
C7 H10 1_555 1_555
H11 C7 1_555 1_555
H12 C7 1_555 1_555
C8 C1 1_555 1_555
N1 C3 1_555 1_555
N2 C2 1_555 1_555
N3 Ag1 1_555 1_555
N4 C8 1_555 1_555
H13 N4 1_555 1_555
N5 C2 1_555 1_555
H14 N5 1_555 1_555
N6 C6 1_555 1_555
O2 O13 1_555 1_555
O3 Mo1 1_555 1_555
O4 Mo6 1_555 1_555
O5 Mo6 1_555 1_555
O6 Mo2 1_555 1_555
O7 Mo1 1_555 1_555
O8 Mo2 1_555 1_555
O9 Mo5 1_555 1_555
O10 Mo4 1_555 1_555
O11 Mo1 1_555 1_555
O12 Mo2 1_555 1_555
O13 P1 1_555 1_555
O14 Mo2 1_555 1_555
O15 P1 1_555 1_555
O16 Mo3 1_555 1_555
O17 P1 1_555 1_555
O18 Mo3 1_555 1_555
O19 Mo1 1_555 1_555
O20 Mo4 1_555 1_555
O21 Mo1 1_555 1_555
O22 Mo4 1_555 1_555
Mo1B O2B 1_555 1_555
Mo2B O17 1_555 1_555
Mo3B O8 1_555 1_555
Mo4B O15 1_555 1_555
Mo5B O22 1_555 1_555
Mo6B O12 1_555 1_555
Ag1C N2C 1_555 1_555
Ag1C_2 N3C 1_555 1_555
Ag2C N6 1_555 1_555
C1C H1C 1_555 1_555
H2C C1C 1_555 1_555
H3C C1C 1_555 1_555
C2C C7C 1_555 1_555
C3C C5C 1_555 1_555
C4C H4C 1_555 1_555
H5C C4C 1_555 1_555
H6C C4C 1_555 1_555
C5C H7C 1_555 1_555
H8C C5C 1_555 1_555
H9C C5C 1_555 1_555
C6C C4C 1_555 1_555
C7C H10C 1_555 1_555
H11C C7C 1_555 1_555
H12C C7C 1_555 1_555
C8C C1C 1_555 1_555
N1C Ag2C 1_555 1_555
N2C C2C 1_555 1_555
N3C C6C 1_555 1_555
N3C_2 Ag1C 1_555 1_555
N4C C8C 1_555 1_555
H13C N4C 1_555 1_555
N5C C2C 1_555 1_555
H14C N5C 1_555 1_555
N6C Ag2 1_555 1_555
O1B Mo5B 1_555 1_555
O2B P1 1_555 1_555
O3B Mo1B 1_555 1_555
O4B Mo3B 1_555 1_555
O5B Mo6B 1_555 1_555
O6B Mo2B 1_555 1_555
O7B Mo1B 1_555 1_555
O8B Mo3 1_555 1_555
O9B Mo5B 1_555 1_555
O10B Mo4B 1_555 1_555
O11B Mo1B 1_555 1_555
O12B Mo6 1_555 1_555
O13B P1 1_555 1_555
O14B Mo2B 1_555 1_555
O15B P1 1_555 1_555
O16B Mo3B 1_555 1_555
O17B P1 1_555 1_555
O18B Mo3B 1_555 1_555
O19B Mo1B 1_555 1_555
O20B Mo6 1_555 1_555
O21B Mo1B 1_555 1_555
O22B Mo5 1_555 1_555
Mo1 O13 1_555 1_555
Mo2 O11 1_555 1_555
Mo2 O17B 1_555 1_555
Mo3 O13 1_555 1_555
Mo3 O17 1_555 1_555
Mo3 O21 1_555 1_555
Mo4 O16 1_555 1_555
Mo4 O15B 1_555 1_555
Mo5 O14 1_555 1_555
Mo5 O15 1_555 1_555
Mo5 O19 1_555 1_555
Mo6 O15 1_555 1_555
C3 N5 1_555 1_555
C6 N3 1_555 1_555
C8 N6 1_555 1_555
N1 N2 1_555 1_555
N3 N4 1_555 1_555
O2 O17B 1_555 1_555
O13 O17 1_555 1_555
O13 O15B 1_555 1_555
O15 O17 1_555 1_555
O15 O13B 1_555 1_555
O17 O2B 1_555 1_555
O20 Mo6B 1_555 1_555
Mo1B O13B 1_555 1_555
Mo2B O2B 1_555 1_555
Mo2B O8B 1_555 1_555
Mo2B O11B 1_555 1_555
Mo2B O12B 1_555 1_555
Mo3B O13B 1_555 1_555
Mo3B O17B 1_555 1_555
Mo3B O21B 1_555 1_555
Mo4B O7B 1_555 1_555
Mo4B O16B 1_555 1_555
Mo4B O20B 1_555 1_555
Mo4B O22B 1_555 1_555
Mo5B O14B 1_555 1_555
Mo5B O15B 1_555 1_555
Mo5B O19B 1_555 1_555
Mo6B O1B 1_555 1_555
Mo6B O4B 1_555 1_555
Mo6B O15B 1_555 1_555
C3C N1C 1_555 1_555
C3C N5C 1_555 1_555
C6C N6C 1_555 1_555
C8C N6C 1_555 1_555
N1C N2C 1_555 1_555
N3C N4C 1_555 1_555
O2B O13B 1_555 1_555
O13B O17B 1_555 1_555
O15B O17B 1_555 1_555

#END
