
#######################################################################
#
#                 Cambridge Crystallographic Data Centre
#                                CCDC 
#
#######################################################################
#
# If this CIF has been generated from an entry in the Cambridge 
# Structural Database, then it will include bibliographic, chemical, 
# crystal, experimental, refinement or atomic coordinate data resulting 
# from the CCDC's data processing and validation procedures.
#
#######################################################################

data_LIFRAV
_symmetry_cell_setting           monoclinic
_symmetry_space_group_name_H-M   'P 21/c'
_symmetry_Int_Tables_number      14
_space_group_name_Hall           '-P 2ybc'
loop_
_symmetry_equiv_pos_site_id
_symmetry_equiv_pos_as_xyz
1 x,y,z
2 -x,1/2+y,1/2-z
3 -x,-y,-z
4 x,1/2-y,1/2+z
_cell_length_a                   13.5193(4)
_cell_length_b                   18.2105(4)
_cell_length_c                   14.6349(4)
_cell_angle_alpha                90
_cell_angle_beta                 97.039(3)
_cell_angle_gamma                90
_cell_volume                     3575.86
loop_
_atom_site_label
_atom_site_type_symbol
_atom_site_fract_x
_atom_site_fract_y
_atom_site_fract_z
Zn1 Zn 0.60459(2) -0.021333(13) -0.138829(19)
O1 O 0.60781(15) 0.32622(9) 0.09024(12)
O2 O 0.74418(12) -0.13933(8) 0.17538(11)
O3 O 0.60065(13) -0.07827(9) -0.02900(12)
O4 O 0.76463(14) -0.08181(10) 0.01030(12)
O5 O 0.73710(14) -0.26618(8) 0.26526(11)
O6 O 0.76876(13) -0.38838(9) 0.17582(12)
O7 O 0.68730(13) -0.45753(8) 0.26590(11)
O8 O 0.72745(12) -0.01087(8) 0.25671(12)
O9 O 0.53555(13) 0.01513(9) 0.19423(12)
O10 O 0.54029(13) 0.12748(8) 0.25359(12)
N1 N 0.61706(15) 0.08715(10) -0.10794(14)
N2 N 0.56926(16) 0.31111(10) -0.06432(14)
H1 H 0.5521 0.3351 -0.1144
C1 C 0.60956(9) 0.13671(6) -0.17599(8)
H2 H 0.6139 0.1200 -0.2354
C2 C 0.59628(9) 0.21048(6) -0.16333(8)
H3 H 0.5921 0.2426 -0.2131
C3 C 0.58938(19) 0.23683(12) -0.07445(17)
C4 C 0.59728(13) 0.18583(9) -0.00237(12)
H4 H 0.5944 0.2007 0.0580
C5 C 0.60937(13) 0.11315(9) -0.02343(12)
H5 H 0.6126 0.0794 0.0245
C6 C 0.5734(2) 0.35081(12) 0.01552(18)
C7 C 0.53547(18) 0.42804(12) 0.00489(16)
C8 C 0.56696(7) 0.47822(5) 0.07373(7)
H6 H 0.6118 0.4638 0.1238
C9 C 0.53201(7) 0.54925(5) 0.06824(7)
H7 H 0.5543 0.5825 0.1145
C10 C 0.72749(7) -0.13816(5) 0.26632(7)
C11 C 0.72516(7) -0.20347(5) 0.31529(7)
C12 C 0.71408(7) -0.20194(5) 0.40721(7)
H8 H 0.7126 -0.2455 0.4403
C13 C 0.70519(7) -0.13531(5) 0.45003(7)
H9 H 0.6975 -0.1345 0.5123
C14 C 0.70734(7) -0.06992(5) 0.40325(7)
H10 H 0.7019 -0.0255 0.4335
C15 C 0.71797(18) -0.07129(12) 0.31071(17)
C16 C 0.65583(11) -0.13017(7) 0.11257(9)
H11 H 0.6085 -0.1004 0.1410
H12 H 0.6256 -0.1777 0.0981
C17 C 0.67890(11) -0.09385(7) 0.02545(9)
C18 C 0.70494(11) -0.33213(7) 0.30311(9)
H13 H 0.6345 -0.3286 0.3093
H14 H 0.7409 -0.3395 0.3640
C19 C 0.72299(18) -0.39637(12) 0.24247(17)
C20 C 0.6851(2) 0.05672(13) 0.2807(2)
H15 H 0.7248 0.0967 0.2608
H16 H 0.6885 0.0594 0.3472
C21 C 0.57868(19) 0.06743(12) 0.23958(16)
O1B O 0.39219(15) 0.67378(9) -0.09024(12)
N1B N 0.38294(15) 0.91285(10) 0.10794(14)
N2B N 0.43074(16) 0.68889(10) 0.06432(14)
H1B H 0.4479 0.6649 0.1144
C1B C 0.39044(9) 0.86329(6) 0.17599(8)
H2B H 0.3861 0.8800 0.2354
C2B C 0.40372(9) 0.78952(6) 0.16333(8)
H3B H 0.4079 0.7574 0.2131
C3B C 0.41062(19) 0.76317(12) 0.07445(17)
C4B C 0.40272(13) 0.81417(9) 0.00237(12)
H4B H 0.4056 0.7993 -0.0580
C5B C 0.39063(13) 0.88685(9) 0.02343(12)
H5B H 0.3874 0.9206 -0.0245
C6B C 0.4266(2) 0.64919(12) -0.01552(18)
C7B C 0.46453(18) 0.57196(12) -0.00489(16)
C8B C 0.43304(7) 0.52178(5) -0.07373(7)
H6B H 0.3882 0.5362 -0.1238
C9B C 0.46799(7) 0.45075(5) -0.06824(7)
H7B H 0.4457 0.4175 -0.1145
Zn1B Zn 0.39541(2) 0.021333(13) 0.138829(19)
O2B O 0.25582(12) 0.13933(8) -0.17538(11)
O3B O 0.39935(13) 0.07827(9) 0.02900(12)
O4B O 0.23537(14) 0.08181(10) -0.01030(12)
O5B O 0.26290(14) 0.26618(8) -0.26526(11)
O6B O 0.23124(13) 0.38838(9) -0.17582(12)
O7B O 0.31270(13) 0.45753(8) -0.26590(11)
O8B O 0.27255(12) 0.01087(8) -0.25671(12)
O9B O 0.46445(13) -0.01513(9) -0.19423(12)
O10B O 0.45971(13) -0.12748(8) -0.25359(12)
C10B C 0.27251(7) 0.13816(5) -0.26632(7)
C11B C 0.27484(7) 0.20347(5) -0.31529(7)
C12B C 0.28592(7) 0.20194(5) -0.40721(7)
H8B H 0.2874 0.2455 -0.4403
C13B C 0.29481(7) 0.13531(5) -0.45003(7)
H9B H 0.3025 0.1345 -0.5123
C14B C 0.29266(7) 0.06992(5) -0.40325(7)
H10B H 0.2981 0.0255 -0.4335
C15B C 0.28203(18) 0.07129(12) -0.31071(17)
C16B C 0.34417(11) 0.13017(7) -0.11257(9)
H11B H 0.3915 0.1004 -0.1410
H12B H 0.3744 0.1777 -0.0981
C17B C 0.32110(11) 0.09385(7) -0.02545(9)
C18B C 0.29506(11) 0.33213(7) -0.30311(9)
H13B H 0.3655 0.3286 -0.3093
H14B H 0.2591 0.3395 -0.3640
C19B C 0.27701(18) 0.39637(12) -0.24247(17)
C20B C 0.3149(2) -0.05672(13) -0.2807(2)
H15B H 0.2752 -0.0967 -0.2608
H16B H 0.3115 -0.0594 -0.3472
C21B C 0.42132(19) -0.06743(12) -0.23958(16)
Zn1A Zn 0.39541(2) 0.478667(13) -0.361171(19)
Zn1B_2 Zn 0.39541(2) 1.021333(13) 0.138829(19)
Zn1C Zn 0.60459(2) -0.478667(13) 0.361171(19)
O7A O 0.31270(13) 0.04247(8) 0.23410(11)
O7C O 0.68730(13) -0.04247(8) -0.23410(11)
N1B_2 N 0.38294(15) -0.08715(10) 0.10794(14)
O11 O -0.12684(15) 0.44335(10) 0.37113(17)
O12 O -0.11343(14) 0.06982(9) 0.41087(15)
N3 N 0.07307(17) -0.16617(11) 0.35994(16)
H17 H 0.0797 -0.2131 0.3573
N4 N 0.04451(16) 0.05932(11) 0.37513(15)
H18 H 0.0969 0.0838 0.3662
N5 N 0.04040(9) 0.45760(6) 0.39280(8)
H19 H 0.0959 0.4346 0.4057
N6 N 0.06830(9) 0.68527(6) 0.36190(8)
C22 C -0.0193(2) 0.65341(15) 0.3550(2)
H20 H -0.0748 0.6835 0.3420
C23 C -0.0365(2) 0.57985(14) 0.3653(2)
H21 H -0.1010 0.5613 0.3609
C24 C 0.04559(19) 0.53391(13) 0.38268(17)
C25 C 0.1381(2) 0.56625(14) 0.3905(2)
H22 H 0.1954 0.5378 0.4025
C26 C 0.14534(12) 0.64086(8) 0.38062(11)
H23 H 0.2087 0.6616 0.3875
C27 C -0.04444(12) 0.41640(8) 0.38406(11)
C28 C -0.03310(12) 0.33476(8) 0.39011(11)
C29 C -0.1190(2) 0.29436(14) 0.3954(2)
H24 H -0.1791 0.3187 0.3977
C30 C -0.1171(2) 0.21928(14) 0.3973(2)
H25 H -0.1756 0.1935 0.4024
C31 C -0.02957(19) 0.18106(13) 0.39172(17)
C32 C 0.0564(2) 0.22092(14) 0.3862(2)
H26 H 0.1161 0.1964 0.3826
C33 C 0.05484(12) 0.29699(8) 0.38599(11)
H27 H 0.1136 0.3229 0.3830
C34 C -0.03714(12) 0.09895(8) 0.39317(11)
C35 C 0.05060(12) -0.01680(8) 0.36995(11)
C36 C -0.02893(16) -0.06353(11) 0.37660(16)
H28 H -0.0913 -0.0451 0.3850
C37 C -0.01354(16) -0.13738(11) 0.37056(16)
H29 H -0.0673 -0.1687 0.3742
C38 C 0.15023(16) -0.12282(11) 0.35335(16)
H30 H 0.2114 -0.1436 0.3453
C39 C 0.14210(16) -0.04775(11) 0.35812(16)
H31 H 0.1972 -0.0180 0.3537
loop_
_geom_bond_atom_site_label_1
_geom_bond_atom_site_label_2
_geom_bond_site_symmetry_1
_geom_bond_site_symmetry_2
Zn1 O3 1_555 1_555
O1 C6 1_555 1_555
O2 C10 1_555 1_555
O3 C17 1_555 1_555
O4 C17 1_555 1_555
O5 C11 1_555 1_555
O6 C19 1_555 1_555
O7 C19 1_555 1_555
O8 C15 1_555 1_555
O9 C21 1_555 1_555
O10 C21 1_555 1_555
N1 Zn1 1_555 1_555
N2 H1 1_555 1_555
C1 N1 1_555 1_555
H2 C1 1_555 1_555
C2 C1 1_555 1_555
H3 C2 1_555 1_555
C3 N2 1_555 1_555
C4 C3 1_555 1_555
H4 C4 1_555 1_555
C5 N1 1_555 1_555
H5 C5 1_555 1_555
C6 N2 1_555 1_555
C7 C6 1_555 1_555
C8 C7 1_555 1_555
H6 C8 1_555 1_555
C9 C8 1_555 1_555
H7 C9 1_555 1_555
C10 C11 1_555 1_555
C11 C12 1_555 1_555
C12 H8 1_555 1_555
C13 C12 1_555 1_555
H9 C13 1_555 1_555
C14 C13 1_555 1_555
H10 C14 1_555 1_555
C15 C10 1_555 1_555
C16 O2 1_555 1_555
H11 C16 1_555 1_555
H12 C16 1_555 1_555
C17 C16 1_555 1_555
C18 O5 1_555 1_555
H13 C18 1_555 1_555
H14 C18 1_555 1_555
C19 C18 1_555 1_555
C20 O8 1_555 1_555
H15 C20 1_555 1_555
H16 C20 1_555 1_555
C21 C20 1_555 1_555
O11 C27 1_555 1_555
O12 C34 1_555 1_555
N3 H17 1_555 1_555
N4 H18 1_555 1_555
N5 H19 1_555 1_555
N6 C22 1_555 1_555
C22 H20 1_555 1_555
C23 C22 1_555 1_555
H21 C23 1_555 1_555
C24 N5 1_555 1_555
C25 C24 1_555 1_555
H22 C25 1_555 1_555
C26 N6 1_555 1_555
H23 C26 1_555 1_555
C27 N5 1_555 1_555
C28 C27 1_555 1_555
C29 C28 1_555 1_555
H24 C29 1_555 1_555
C30 C29 1_555 1_555
H25 C30 1_555 1_555
C31 C30 1_555 1_555
C32 C31 1_555 1_555
H26 C32 1_555 1_555
C33 C28 1_555 1_555
H27 C33 1_555 1_555
C34 N4 1_555 1_555
C35 N4 1_555 1_555
C36 C35 1_555 1_555
H28 C36 1_555 1_555
C37 N3 1_555 1_555
H29 C37 1_555 1_555
C38 N3 1_555 1_555
H30 C38 1_555 1_555
C39 C35 1_555 1_555
H31 C39 1_555 1_555
O1B C6B 1_555 1_555
N1B C1B 1_555 1_555
N2B H1B 1_555 1_555
C1B H2B 1_555 1_555
C2B C1B 1_555 1_555
H3B C2B 1_555 1_555
C3B N2B 1_555 1_555
C4B C3B 1_555 1_555
H4B C4B 1_555 1_555
C5B N1B 1_555 1_555
H5B C5B 1_555 1_555
C6B N2B 1_555 1_555
C7B C9 1_555 1_555
C8B C7B 1_555 1_555
H6B C8B 1_555 1_555
C9B C7 1_555 1_555
H7B C9B 1_555 1_555
Zn1B O9 1_555 1_555
O2B C10B 1_555 1_555
O3B Zn1B 1_555 1_555
O4B C17B 1_555 1_555
O5B C11B 1_555 1_555
O6B C19B 1_555 1_555
O7B C19B 1_555 1_555
O8B C15B 1_555 1_555
O9B Zn1 1_555 1_555
O10B C21B 1_555 1_555
C10B C11B 1_555 1_555
C11B C12B 1_555 1_555
C12B H8B 1_555 1_555
C13B C12B 1_555 1_555
H9B C13B 1_555 1_555
C14B C13B 1_555 1_555
H10B C14B 1_555 1_555
C15B C10B 1_555 1_555
C16B O2B 1_555 1_555
H11B C16B 1_555 1_555
H12B C16B 1_555 1_555
C17B O3B 1_555 1_555
C18B O5B 1_555 1_555
H13B C18B 1_555 1_555
H14B C18B 1_555 1_555
C19B C18B 1_555 1_555
C20B O8B 1_555 1_555
H15B C20B 1_555 1_555
H16B C20B 1_555 1_555
C21B O9B 1_555 1_555
Zn1A O7B 1_555 1_555
Zn1B_2 N1B 1_555 1_555
Zn1C O7 1_555 1_555
O7A Zn1B 1_555 1_555
O7C Zn1 1_555 1_555
N1B_2 Zn1B 1_555 1_555
C2 C3 1_555 1_555
C4 C5 1_555 1_555
C14 C15 1_555 1_555
C23 C24 1_555 1_555
C25 C26 1_555 1_555
C31 C34 1_555 1_555
C32 C33 1_555 1_555
C36 C37 1_555 1_555
C38 C39 1_555 1_555
C2B C3B 1_555 1_555
C4B C5B 1_555 1_555
C6B C7B 1_555 1_555
C8B C9B 1_555 1_555
C14B C15B 1_555 1_555
C16B C17B 1_555 1_555
C20B C21B 1_555 1_555

#END
