
#######################################################################
#
#                 Cambridge Crystallographic Data Centre
#                                CCDC 
#
#######################################################################
#
# If this CIF has been generated from an entry in the Cambridge 
# Structural Database, then it will include bibliographic, chemical, 
# crystal, experimental, refinement or atomic coordinate data resulting 
# from the CCDC's data processing and validation procedures.
#
#######################################################################

data_LIFREY
_symmetry_cell_setting           triclinic
_symmetry_space_group_name_H-M   'P -1'
_symmetry_Int_Tables_number      2
_space_group_name_Hall           '-P 1'
loop_
_symmetry_equiv_pos_site_id
_symmetry_equiv_pos_as_xyz
1 x,y,z
2 -x,-y,-z
_cell_length_a                   8.2465(4)
_cell_length_b                   10.8172(5)
_cell_length_c                   10.9336(2)
_cell_angle_alpha                71.101(7)
_cell_angle_beta                 82.030(10)
_cell_angle_gamma                87.775(10)
_cell_volume                     913.81
loop_
_atom_site_label
_atom_site_type_symbol
_atom_site_fract_x
_atom_site_fract_y
_atom_site_fract_z
Mo1 Mo 1.06106(4) 1.34397(4) -0.47171(4)
Mo2 Mo 1.26444(5) 1.55918(4) -0.75407(4)
Mo3 Mo 1.46253(4) 1.34271(4) -0.48931(4)
Mo4 Mo 1.33804(5) 1.42244(4) -0.23473(4)
C1 C 1.0233(7) 0.7241(5) -0.0790(5)
H1 H 0.9659 0.6471 -0.0324
C2 C 1.1823(6) 0.8665(5) -0.2283(5)
N2 N 1.1171(6) 0.7451(4) -0.1949(4)
H3 H 1.1326 0.6918 -0.2392
N3 N 1.1301(6) 0.9189(4) -0.1372(4)
N6 N 1.2750(7) 0.9250(5) -0.3431(5)
H5 H 1.3060 1.0049 -0.3626
H6 H 1.3032 0.8824 -0.3968
N7 N 1.0242(6) 0.8255(4) -0.0412(4)
O1 O 1.0623(4) 1.1970(3) -0.3503(4)
O2 O 1.2611(5) 1.7223(3) -0.8336(3)
O3 O 0.9542(5) 1.3059(4) -0.5769(4)
O4 O 1.1602(4) 1.4892(4) -0.8377(4)
O5 O 1.3480(4) 1.2597(3) -0.1447(3)
O6 O 1.2590(4) 1.4037(3) -0.3854(3)
O7 O 1.2759(4) 1.3518(3) -0.5906(3)
O8 O 0.9091(4) 1.4450(3) -0.3953(3)
O9 O 1.4776(4) 1.5152(3) -0.8232(3)
O10 O 1.1752(4) 1.4816(3) -0.1589(3)
O11 O 1.6169(4) 1.3629(3) -0.6220(3)
O12 O 1.4627(4) 1.1795(3) -0.4074(3)
O13 O 1.4394(4) 1.5769(3) -0.6139(3)
Ag3 Ag 1.12352(7) 1.11116(4) -0.11234(5)
Mo1A Mo 0.93894(4) 1.65603(4) -0.52829(4)
Mo2A Mo 0.73556(5) 1.44082(4) -0.24593(4)
Mo2A_2 Mo 1.73556(5) 1.44082(4) -0.24593(4)
Mo3A Mo 0.53747(4) 1.65729(4) -0.51069(4)
Mo3A_2 Mo 1.53747(4) 1.65729(4) -0.51069(4)
Mo4A Mo 0.66196(5) 1.57756(4) -0.76527(4)
Mo4A_2 Mo 1.66196(5) 1.57756(4) -0.76527(4)
C1A C 0.9767(7) 1.2759(5) 0.0790(5)
H1A H 1.0341 1.3529 0.0324
C2A C 0.8177(6) 1.1335(5) 0.2283(5)
N2A N 0.8829(6) 1.2549(4) 0.1949(4)
H3A H 0.8674 1.3082 0.2392
N3A N 0.8699(6) 1.0811(4) 0.1372(4)
N6A N 0.7250(7) 1.0750(5) 0.3431(5)
H5A H 0.6940 0.9951 0.3626
H6A H 0.6968 1.1176 0.3968
N7A N 0.9758(6) 1.1745(4) 0.0412(4)
O1A O 0.9377(4) 1.8030(3) -0.6497(4)
O1A_2 O 0.9377(4) 0.8030(3) 0.3503(4)
O2A O 0.7389(5) 1.2777(3) -0.1664(3)
O3A O 1.0458(5) 1.6941(4) -0.4231(4)
O4A O 0.8398(4) 1.5108(4) -0.1623(4)
O5A O 0.6520(4) 1.7403(3) -0.8553(3)
O5A_2 O 0.6520(4) 0.7403(3) 0.1447(3)
O6A O 0.7410(4) 1.5963(3) -0.6146(3)
O7A O 0.7241(4) 1.6482(3) -0.4094(3)
O8A O 1.0909(4) 1.5550(3) -0.6047(3)
O9A O 1.5224(4) 1.4848(3) -0.1768(3)
O9A_2 O 0.5224(4) 1.4848(3) -0.1768(3)
O9_2 O 0.4776(4) 1.5152(3) -0.8232(3)
O10A O 0.8248(4) 1.5184(3) -0.8411(3)
O11A O 1.3831(4) 1.6371(3) -0.3780(3)
O11A_2 O 0.3831(4) 1.6371(3) -0.3780(3)
O11_2 O 0.6169(4) 1.3629(3) -0.6220(3)
O12A O 0.5373(4) 1.8205(3) -0.5926(3)
O13A O 1.5606(4) 1.4231(3) -0.3861(3)
O13A_2 O 0.5606(4) 1.4231(3) -0.3861(3)
O13_2 O 0.4394(4) 1.5769(3) -0.6139(3)
Ag3A Ag 0.87648(7) 0.88884(4) 0.11234(5)
Ag3A_2 Ag 0.87648(7) 1.88884(4) -0.88766(5)
C3 C 1.3834(6) 1.1705(5) 0.1776(5)
C4 C 1.2522(6) 0.9902(5) 0.2497(5)
H2 H 1.2171 0.9071 0.2568
N1 N 1.1932(6) 1.0510(4) 0.3305(4)
N4 N 1.3700(5) 1.0583(4) 0.1534(4)
N5 N 1.2800(5) 1.1685(4) 0.2830(4)
H4 H 1.2685 1.2304 0.3167
N8 N 1.4881(6) 1.2692(4) 0.1095(4)
H7 H 1.4911 1.3372 0.1334
H8 H 1.5518 1.2640 0.0420
Ag1 Ag 1.0000 1.0000 0.5000
Ag2 Ag 1.5000 1.0000 0.0000
C3A C 0.6166(6) 0.8295(5) 0.8224(5)
C4A C 0.7478(6) 1.0098(5) 0.7503(5)
H2A H 0.7829 1.0929 0.7432
N1A N 0.8068(6) 0.9490(4) 0.6695(4)
N4A N 0.6300(5) 0.9417(4) 0.8466(4)
N4A_2 N 1.6300(5) 0.9417(4) -0.1534(4)
N5A N 0.7200(5) 0.8315(4) 0.7170(4)
H4A H 0.7315 0.7696 0.6833
N8A N 0.5119(6) 0.7308(4) 0.8905(4)
H7A H 0.5089 0.6628 0.8666
H8A H 0.4482 0.7360 0.9580
Ag2_2 Ag 0.5000 1.0000 1.0000
loop_
_geom_bond_atom_site_label_1
_geom_bond_atom_site_label_2
_geom_bond_site_symmetry_1
_geom_bond_site_symmetry_2
Mo1 O1 1_555 1_555
Mo2 O2 1_555 1_555
Mo3 O6 1_555 1_555
Mo4 O5 1_555 1_555
C1 H1 1_555 1_555
C2 N2 1_555 1_555
C3 N4 1_555 1_555
C4 H2 1_555 1_555
N1 C4 1_555 1_555
N2 C1 1_555 1_555
H3 N2 1_555 1_555
N3 C2 1_555 1_555
N4 C4 1_555 1_555
N5 C3 1_555 1_555
H4 N5 1_555 1_555
N6 C2 1_555 1_555
H5 N6 1_555 1_555
H6 N6 1_555 1_555
N7 C1 1_555 1_555
N8 C3 1_555 1_555
H7 N8 1_555 1_555
H8 N8 1_555 1_555
O1 Ag3 1_555 1_555
O3 Mo1 1_555 1_555
O4 Mo2 1_555 1_555
O5 Ag3 1_555 1_555
O6 Mo1 1_555 1_555
O7 Mo1 1_555 1_555
O8 Mo1 1_555 1_555
O9 Mo2 1_555 1_555
O10 Mo4 1_555 1_555
O11 Mo3 1_555 1_555
O12 Mo3 1_555 1_555
O13 Mo2 1_555 1_555
Ag1 N1 1_555 1_555
Ag2 N4 1_555 1_555
Ag3 N3 1_555 1_555
Mo1A O8 1_555 1_555
Mo2A O8 1_555 1_555
Mo2A_2 O9A 1_555 1_555
Mo3A O6A 1_555 1_555
Mo3A_2 O13 1_555 1_555
Mo4A O5A 1_555 1_555
Mo4A_2 O9 1_555 1_555
C1A H1A 1_555 1_555
C2A N2A 1_555 1_555
C3A N4A 1_555 1_555
C4A H2A 1_555 1_555
N1A Ag1 1_555 1_555
N2A C1A 1_555 1_555
H3A N2A 1_555 1_555
N3A C2A 1_555 1_555
N4A C4A 1_555 1_555
N4A_2 Ag2 1_555 1_555
N5A C3A 1_555 1_555
H4A N5A 1_555 1_555
N6A C2A 1_555 1_555
H5A N6A 1_555 1_555
H6A N6A 1_555 1_555
N7A Ag3 1_555 1_555
N8A C3A 1_555 1_555
H7A N8A 1_555 1_555
H8A N8A 1_555 1_555
O1A Mo1A 1_555 1_555
O1A_2 Ag3A 1_555 1_555
O2A Mo2A 1_555 1_555
O3A Mo1A 1_555 1_555
O4A Mo2A 1_555 1_555
O5A Ag3A_2 1_555 1_555
O5A_2 Ag3A 1_555 1_555
O6A Mo1A 1_555 1_555
O7A Mo1A 1_555 1_555
O8A Mo1 1_555 1_555
O9A Mo4 1_555 1_555
O9A_2 Mo2A 1_555 1_555
O9_2 Mo4A 1_555 1_555
O10A Mo4A 1_555 1_555
O11A Mo4 1_555 1_555
O11A_2 Mo3A 1_555 1_555
O11_2 Mo4A 1_555 1_555
O12A Mo3A 1_555 1_555
O13A Mo3 1_555 1_555
O13A_2 Mo2A 1_555 1_555
O13_2 Mo3A 1_555 1_555
Ag2_2 N4A 1_555 1_555
Ag3A N7 1_555 1_555
Ag3A_2 O1A 1_555 1_555
Mo2 O7 1_555 1_555
Mo2 O8A 1_555 1_555
Mo3 O7 1_555 1_555
Mo3 O13 1_555 1_555
Mo4 O6 1_555 1_555
Mo4 O13A 1_555 1_555
N1 N5 1_555 1_555
N3 N7 1_555 1_555
O11 Mo4A_2 1_555 1_555
O13 Mo4A_2 1_555 1_555
Mo1A O8A 1_555 1_555
Mo2A O7A 1_555 1_555
Mo2A_2 O13A 1_555 1_555
Mo3A O7A 1_555 1_555
Mo3A O13A_2 1_555 1_555
Mo3A_2 O11A 1_555 1_555
Mo3A_2 O13A 1_555 1_555
Mo4A O6A 1_555 1_555
Mo4A O13_2 1_555 1_555
C1A N7A 1_555 1_555
C4A N1A 1_555 1_555
N1A N5A 1_555 1_555
N3A N7A 1_555 1_555
N3A Ag3A 1_555 1_555

#END
