
#######################################################################
#
#                 Cambridge Crystallographic Data Centre
#                                CCDC 
#
#######################################################################
#
# If this CIF has been generated from an entry in the Cambridge 
# Structural Database, then it will include bibliographic, chemical, 
# crystal, experimental, refinement or atomic coordinate data resulting 
# from the CCDC's data processing and validation procedures.
#
#######################################################################

data_LIFRIC
_symmetry_cell_setting           triclinic
_symmetry_space_group_name_H-M   'P -1'
_symmetry_Int_Tables_number      2
_space_group_name_Hall           '-P 1'
loop_
_symmetry_equiv_pos_site_id
_symmetry_equiv_pos_as_xyz
1 x,y,z
2 -x,-y,-z
_cell_length_a                   9.7391(6)
_cell_length_b                   11.0838(6)
_cell_length_c                   13.7370(8)
_cell_angle_alpha                72.3230(10)
_cell_angle_beta                 84.3840(10)
_cell_angle_gamma                73.71
_cell_volume                     1355.99
loop_
_atom_site_label
_atom_site_type_symbol
_atom_site_fract_x
_atom_site_fract_y
_atom_site_fract_z
Mo1 Mo 0.22253(11) 0.56774(11) 0.58174(8)
Mo2 Mo 0.06775(11) 0.34446(10) 0.57460(8)
Mo3 Mo 0.28207(11) 0.55917(10) 0.34644(8)
Mo4 Mo 0.03069(12) 0.57608(11) 0.20242(9)
C1 C 0.6694(17) -0.1528(15) 0.6160(11)
H1 H 0.7352 -0.2301 0.6116
C2 C 0.3067(17) -0.4957(13) 0.9266(11)
H2 H 0.2166 -0.4365 0.9158
C3 C 0.4847(15) -0.0184(13) 0.6554(11)
H3 H 0.3977 0.0162 0.6842
C4 C 0.0079(18) -0.8403(16) 1.2689(15)
H4 H -0.0491 -0.7573 1.2685
C5 C 0.0932(15) -1.0425(13) 1.3037(12)
H5 H 0.1075 -1.1323 1.3337
C6 C -0.3102(14) 0.7293(13) 0.1847(10)
H6 H -0.3368 0.6521 0.2163
C7 C 0.5294(16) -0.5821(14) 0.9178(10)
H7 H 0.6254 -0.5945 0.8985
C8 C -0.1847(18) 0.8614(16) 0.1211(12)
H8 H -0.1068 0.8960 0.0979
N1 N -0.4031(12) 0.8441(11) 0.1548(9)
N2 N 0.6840(12) -0.0328(11) 0.5660(9)
N3 N 0.3333(13) -0.6169(11) 0.9936(10)
N4 N 0.4778(12) -0.6705(11) 0.9875(9)
N5 N 0.5488(13) -0.1492(11) 0.6736(9)
N6 N -0.3223(14) 0.9331(12) 0.1147(12)
N7 N 0.1180(13) -0.8592(12) 1.2060(12)
N8 N -0.0143(14) -0.9498(12) 1.3323(10)
N9 N 0.1727(13) -0.9928(11) 1.2310(10)
N10 N 0.5628(12) 0.0534(11) 0.5911(9)
N11 N 0.4259(13) -0.4712(11) 0.8779(8)
N12 N -0.1751(12) 0.7328(11) 0.1660(9)
O1 O -0.0136(11) 0.4700(10) 0.1503(8)
O2 O 0.4196(10) 0.4225(9) 0.3911(7)
O3 O 0.2373(10) 0.6727(10) 0.6465(8)
O4 O 0.2189(9) 0.2231(9) 0.6162(7)
O5 O 0.3785(10) 0.4409(9) 0.6098(8)
O6 O 0.2011(9) 0.4713(9) 0.2687(7)
O7 O 0.1403(10) 0.4814(8) 0.4768(6)
O8 O 0.3512(10) 0.6643(9) 0.2498(8)
O9 O 0.0044(9) 0.7112(8) 0.5101(7)
O10 O 0.0964(11) 0.6813(10) 0.1006(8)
O11 O -0.0599(9) 0.3176(8) 0.6879(7)
O12 O 0.0920(9) 0.4735(9) 0.6636(7)
O13 O 0.2777(9) 0.6528(8) 0.4454(7)
Ag1 Ag 0.21201(15) -0.72364(12) 1.10060(11)
Ag2 Ag 0.50885(13) 0.26581(10) 0.54676(11)
Ag3 Ag 0.47285(15) -0.30892(11) 0.76370(9)
Ag4 Ag -0.62319(12) 0.90740(12) 0.18682(10)
Ag5 Ag -0.41567(14) 1.13370(11) 0.05500(10)
Ag6 Ag 0.83473(13) 0.01817(13) 0.45188(10)
Mo1A Mo -0.22253(11) 0.43226(11) 0.41826(8)
Mo2A Mo -0.06775(11) 0.65554(10) 0.42540(8)
Mo3A Mo -0.28207(11) 0.44083(10) 0.65356(8)
Mo4A Mo -0.03069(12) 0.42392(11) 0.79758(9)
Mo4_2 Mo 1.03069(12) -1.42392(11) 1.20242(9)
C2_2 C -0.6933(17) 1.5043(13) -0.0734(11)
H2_2 H -0.7834 1.5635 -0.0842
C4_2 C 1.0079(18) 0.1597(16) 0.2689(15)
C4_3 C -0.9921(18) 1.1597(16) 0.2689(15)
H4_2 H -1.0491 1.2427 0.2685
H4_3 H 0.9509 0.2427 0.2685
C5_2 C -0.9068(15) 0.9575(13) 0.3037(12)
C5_3 C 1.0932(15) -0.0425(13) 0.3037(12)
H5_2 H -0.8925 0.8677 0.3337
H5_3 H 1.1075 -0.1323 0.3337
C6_2 C 0.6898(14) -1.2707(13) 1.1847(10)
H6_2 H 0.6632 -1.3479 1.2163
C7_2 C -0.4706(16) 1.4179(14) -0.0822(10)
H7_2 H -0.3746 1.4055 -0.1015
C8_2 C 0.8153(18) -1.1386(16) 1.1211(12)
H8_2 H 0.8932 -1.1040 1.0979
N1_2 N 0.5969(12) -1.1559(11) 1.1548(9)
N2_2 N -0.3160(12) -1.0328(11) 1.5660(9)
N3_2 N -0.6667(13) 1.3831(11) -0.0064(10)
N4_2 N -0.5222(12) 1.3295(11) -0.0125(9)
N6_2 N 0.6777(14) -1.0669(12) 1.1147(12)
N7_2 N -0.8820(13) 1.1408(12) 0.2060(12)
N7_3 N 1.1180(13) 0.1408(12) 0.2060(12)
N8_2 N 0.9857(14) 0.0502(12) 0.3323(10)
N8_3 N -1.0143(14) 1.0502(12) 0.3323(10)
N9_2 N -0.8273(13) 1.0072(11) 0.2310(10)
N9_3 N 1.1727(13) 0.0072(11) 0.2310(10)
N10A N -0.5628(12) 0.9466(11) 0.4089(9)
N10_2 N -0.4372(12) 0.0534(11) 0.5911(9)
N11_2 N -0.5741(13) 1.5288(11) -0.1221(8)
N12A N 0.1751(12) 0.2672(11) 0.8340(9)
N12_2 N 0.8249(12) -1.2672(11) 1.1660(9)
O1A O 0.0136(11) 0.5300(10) 0.8497(8)
O2A O -0.4196(10) 0.5775(9) 0.6089(7)
O2_2 O -0.5804(10) 0.4225(9) 0.3911(7)
O3A O -0.2373(10) 0.3273(10) 0.3535(8)
O4A O -0.2189(9) 0.7769(9) 0.3838(7)
O5A O -0.3785(10) 0.5591(9) 0.3902(8)
O5_2 O -0.6215(10) 0.4409(9) 0.6098(8)
O6A O -0.2011(9) 0.5287(9) 0.7313(7)
O7A O -0.1403(10) 0.5186(8) 0.5232(6)
O8A O -0.3512(10) 0.3357(9) 0.7502(8)
O9A O -0.0044(9) 0.2888(8) 0.4899(7)
O10A O -0.0964(11) 0.3187(10) 0.8994(8)
O11A O 0.0599(9) 0.6824(8) 0.3121(7)
O12A O -0.0920(9) 0.5265(9) 0.3364(7)
O13A O 0.7223(9) 0.3472(8) 0.5546(7)
O13A_2 O -0.2777(9) 0.3472(8) 0.5546(7)
O13_2 O -0.7223(9) 0.6528(8) 0.4454(7)
Ag1_2 Ag -0.78799(15) 1.27636(12) 0.10060(11)
Ag1_3 Ag 1.21201(15) 0.27636(12) 0.10060(11)
Ag2A Ag 0.49115(13) 0.73419(10) 0.45324(11)
Ag2A_2 Ag -0.50885(13) 0.73419(10) 0.45324(11)
Ag2_2 Ag -0.49115(13) 0.26581(10) 0.54676(11)
Ag3_2 Ag -0.52715(15) 1.69108(11) -0.23630(9)
Ag4_2 Ag 0.37681(12) -1.09260(12) 1.18682(10)
Ag4_3 Ag 1.37681(12) -0.09260(12) 0.18682(10)
Ag5_2 Ag 0.58433(14) -0.86630(11) 1.05500(10)
Ag6_2 Ag -0.16527(13) -0.98183(13) 1.45188(10)
Ag6_3 Ag -1.16527(13) 1.01817(13) 0.45188(10)
O14 O 0.822(7) 0.316(7) 0.154(5)
O15 O 0.862(4) 0.139(3) 0.068(3)
loop_
_geom_bond_atom_site_label_1
_geom_bond_atom_site_label_2
_geom_bond_site_symmetry_1
_geom_bond_site_symmetry_2
Mo1 O3 1_555 1_555
Mo2 O4 1_555 1_555
Mo3 O2 1_555 1_555
Mo4 N12 1_555 1_555
C1 H1 1_555 1_555
C2 H2 1_555 1_555
C3 H3 1_555 1_555
C4 H4 1_555 1_555
C5 H5 1_555 1_555
C6 H6 1_555 1_555
C7 H7 1_555 1_555
C8 H8 1_555 1_555
N1 C6 1_555 1_555
N2 C1 1_555 1_555
N3 C2 1_555 1_555
N4 C7 1_555 1_555
N5 C1 1_555 1_555
N6 C8 1_555 1_555
N7 C4 1_555 1_555
N8 C4 1_555 1_555
N9 C5 1_555 1_555
N10 C3 1_555 1_555
N11 C2 1_555 1_555
N12 C6 1_555 1_555
O1 Mo4 1_555 1_555
O2 Ag2 1_555 1_555
O5 Mo1 1_555 1_555
O6 Mo3 1_555 1_555
O7 Mo1 1_555 1_555
O8 Mo3 1_555 1_555
O9 Mo1 1_555 1_555
O10 Mo4 1_555 1_555
O11 Mo2 1_555 1_555
O12 Mo1 1_555 1_555
O13 Mo1 1_555 1_555
Ag1 N3 1_555 1_555
Ag2 N10 1_555 1_555
Ag3 N5 1_555 1_555
Ag4 N1 1_555 1_555
Ag5 N6 1_555 1_555
Ag6 N2 1_555 1_555
Mo1A O3A 1_555 1_555
Mo2A O7 1_555 1_555
Mo3A O11 1_555 1_555
Mo4A O11 1_555 1_555
Mo4_2 N12_2 1_555 1_555
C2_2 H2_2 1_555 1_555
C4_2 H4_3 1_555 1_555
C4_3 H4_2 1_555 1_555
C5_2 H5_2 1_555 1_555
C5_3 H5_3 1_555 1_555
C6_2 H6_2 1_555 1_555
C7_2 H7_2 1_555 1_555
C8_2 H8_2 1_555 1_555
N1_2 C6_2 1_555 1_555
N2_2 Ag6_2 1_555 1_555
N3_2 C2_2 1_555 1_555
N4_2 Ag5 1_555 1_555
N6_2 C8_2 1_555 1_555
N7_2 C4_3 1_555 1_555
N7_3 C4_2 1_555 1_555
N8_2 Ag6 1_555 1_555
N8_3 C4_3 1_555 1_555
N9_2 Ag4 1_555 1_555
N9_3 C5_3 1_555 1_555
N10A Ag2A_2 1_555 1_555
N10_2 Ag2_2 1_555 1_555
N11_2 C2_2 1_555 1_555
N12A Mo4A 1_555 1_555
N12_2 C6_2 1_555 1_555
O1A Mo4A 1_555 1_555
O2A Mo3A 1_555 1_555
O2_2 Ag2_2 1_555 1_555
O4A Mo2A 1_555 1_555
O5A Mo1A 1_555 1_555
O5_2 Ag2_2 1_555 1_555
O6A Mo3A 1_555 1_555
O7A Mo2 1_555 1_555
O8A Mo3A 1_555 1_555
O9A Mo2 1_555 1_555
O10A Mo4A 1_555 1_555
O11A Mo3 1_555 1_555
O12A Mo4 1_555 1_555
O13A Ag2 1_555 1_555
O13A_2 Mo1A 1_555 1_555
O13_2 Ag2A_2 1_555 1_555
Ag1_2 N3_2 1_555 1_555
Ag1_3 N7_3 1_555 1_555
Ag2A O13 1_555 1_555
Ag2A_2 O2A 1_555 1_555
Ag2_2 O13A_2 1_555 1_555
Ag3_2 N11_2 1_555 1_555
Ag4_2 N9 1_555 1_555
Ag4_3 N9_3 1_555 1_555
Ag5_2 N4 1_555 1_555
Ag6_2 N8 1_555 1_555
Ag6_3 N8_3 1_555 1_555
Mo2 O7 1_555 1_555
Mo2 O12 1_555 1_555
Mo3 O7 1_555 1_555
Mo3 O13 1_555 1_555
Mo4 O6 1_555 1_555
Mo4 O11A 1_555 1_555
C3 N5 1_555 1_555
C5 N8 1_555 1_555
C7 N11 1_555 1_555
C8 N12 1_555 1_555
N1 N6 1_555 1_555
N2 N10 1_555 1_555
N3 N4 1_555 1_555
N7 N9 1_555 1_555
N7 Ag1 1_555 1_555
N11 Ag3 1_555 1_555
O5 Ag2 1_555 1_555
O9 Mo2A 1_555 1_555
O12 Mo4A 1_555 1_555
Mo1A O7A 1_555 1_555
Mo1A O9A 1_555 1_555
Mo1A O12A 1_555 1_555
Mo2A O7A 1_555 1_555
Mo2A O11A 1_555 1_555
Mo2A O12A 1_555 1_555
Mo3A O7A 1_555 1_555
Mo3A O13A_2 1_555 1_555
Mo4A O6A 1_555 1_555
C4_2 N8_2 1_555 1_555
C5_2 N8_3 1_555 1_555
C5_2 N9_2 1_555 1_555
C5_3 N8_2 1_555 1_555
C7_2 N4_2 1_555 1_555
C7_2 N11_2 1_555 1_555
C8_2 N12_2 1_555 1_555
N1_2 N6_2 1_555 1_555
N1_2 Ag4_2 1_555 1_555
N3_2 N4_2 1_555 1_555
N6_2 Ag5_2 1_555 1_555
N7_2 N9_2 1_555 1_555
N7_2 Ag1_2 1_555 1_555
N7_3 N9_3 1_555 1_555
O5A Ag2A_2 1_555 1_555

#END
