
#######################################################################
#
#                 Cambridge Crystallographic Data Centre
#                                CCDC 
#
#######################################################################
#
# If this CIF has been generated from an entry in the Cambridge 
# Structural Database, then it will include bibliographic, chemical, 
# crystal, experimental, refinement or atomic coordinate data resulting 
# from the CCDC's data processing and validation procedures.
#
#######################################################################

data_LIFTUQ
_symmetry_cell_setting           monoclinic
_symmetry_space_group_name_H-M   'P 21'
_symmetry_Int_Tables_number      4
_space_group_name_Hall           'P 2yb'
loop_
_symmetry_equiv_pos_site_id
_symmetry_equiv_pos_as_xyz
1 x,y,z
2 -x,1/2+y,-z
_cell_length_a                   15.880(2)
_cell_length_b                   7.9988(12)
_cell_length_c                   23.300(3)
_cell_angle_alpha                90
_cell_angle_beta                 90.149(3)
_cell_angle_gamma                90
_cell_volume                     2959.58
loop_
_atom_site_label
_atom_site_type_symbol
_atom_site_fract_x
_atom_site_fract_y
_atom_site_fract_z
Cd1 Cd -0.287330(19) 0.30688(4) 0.496880(12)
Cd2 Cd -0.207060(19) 0.29693(4) -0.002350(12)
N1 N -0.2759(2) 0.3105(7) 0.39782(14)
N2 N -0.2189(3) 0.2719(6) 0.09648(15)
N3 N -0.2728(2) 0.3059(8) -0.40369(14)
N4 N -0.2203(2) 0.3095(8) -0.10109(14)
O13 O -0.4226(2) 0.3851(6) 0.50587(17)
O14 O -0.3310(2) 0.0336(5) 0.48404(15)
O15 O -0.1473(2) 0.2112(5) 0.49876(14)
O16 O -0.2434(3) 0.5788(5) 0.50271(18)
O17 O -0.3405(2) 0.4072(5) 0.00937(16)
O18 O -0.2536(2) 0.0189(4) -0.01132(14)
O19 O -0.0727(3) 0.1944(7) -0.00719(18)
O20 O -0.1399(2) 0.5483(5) 0.00915(14)
C1 C -0.3349(3) 0.2451(6) 0.36326(19)
H9 H -0.3852 0.2041 0.3801
C2 C -0.3265(3) 0.2343(7) 0.30504(19)
H10 H -0.3706 0.1875 0.2826
C3 C -0.2951(3) 0.1925(6) 0.17979(19)
H11 H -0.3404 0.1310 0.1959
C4 C -0.2827(3) 0.1905(7) 0.1211(2)
H12 H -0.3207 0.1293 0.0975
C5 C -0.1654(3) 0.3558(7) 0.13055(19)
H13 H -0.1191 0.4116 0.1134
C6 C -0.1746(3) 0.3649(7) 0.18932(19)
H14 H -0.1353 0.4260 0.2118
C7 C -0.2419(3) 0.2837(7) 0.21534(17)
C8 C -0.2534(3) 0.2917(7) 0.27855(16)
C9 C -0.1919(3) 0.3566(7) 0.31447(19)
H15 H -0.1404 0.3968 0.2989
C10 C -0.2055(3) 0.3624(7) 0.3727(2)
H16 H -0.1621 0.4062 0.3965
C11 C -0.3285(3) 0.2319(7) -0.36929(19)
H17 H -0.3772 0.1833 -0.3861
C12 C -0.3188(3) 0.2223(7) -0.31078(18)
H18 H -0.3597 0.1658 -0.2883
C13 C -0.3036(3) 0.2492(7) -0.18456(18)
H19 H -0.3557 0.2109 -0.1997
C14 C -0.2909(3) 0.2569(7) -0.12551(18)
H20 H -0.3356 0.2224 -0.1012
C15 C -0.1574(3) 0.3559(6) -0.13575(18)
H21 H -0.1059 0.3919 -0.1190
C16 C -0.1645(3) 0.3534(6) -0.19545(18)
H22 H -0.1187 0.3891 -0.2186
C17 C -0.2389(3) 0.2983(7) -0.22116(16)
C18 C -0.2490(3) 0.2955(8) -0.28435(16)
C19 C -0.1908(3) 0.3706(7) -0.32095(19)
H23 H -0.1417 0.4216 -0.3056
C20 C -0.2045(3) 0.3709(7) -0.37908(19)
H24 H -0.1631 0.4202 -0.4031
Cd1_2 Cd -0.287330(19) 0.30688(4) -0.503120(12)
N3_2 N -0.2728(2) 0.3059(8) 0.59631(14)
S1 S -0.13991(8) 0.84558(16) 0.40179(5)
N5 N -0.0607(3) 0.7466(6) 0.15674(18)
H1 H -0.0139 0.6961 0.1463
H2 H -0.0946 0.7886 0.1305
O1 O -0.1084(3) 0.7030(5) 0.43459(16)
O2 O -0.2306(2) 0.8705(6) 0.40726(16)
O3 O -0.0927(3) 0.9979(5) 0.41603(15)
C21 C -0.1184(3) 0.8065(7) 0.32921(17)
C22 C -0.1713(3) 0.8670(6) 0.2874(2)
H25 H -0.2210 0.9249 0.2982
C23 C -0.1532(3) 0.8451(6) 0.22997(19)
H26 H -0.1905 0.8881 0.2016
C24 C -0.0805(3) 0.7599(6) 0.2134(2)
C25 C -0.0285(3) 0.6952(6) 0.2563(2)
H27 H 0.0209 0.6355 0.2459
C26 C -0.0475(3) 0.7161(6) 0.3133(2)
H28 H -0.0120 0.6687 0.3419
S2 S -0.42679(8) 0.72223(17) 0.12102(5)
N6 N -0.4302(3) 0.8327(8) 0.37188(19)
H3 H -0.4666 0.9019 0.3875
H4 H -0.3949 0.7764 0.3938
O4 O -0.3530(2) 0.6203(5) 0.10808(15)
O5 O -0.4238(3) 0.8850(5) 0.09289(17)
O6 O -0.5057(2) 0.6355(5) 0.10964(15)
C27 C -0.4237(3) 0.7615(6) 0.1953(2)
C28 C -0.3683(3) 0.6773(6) 0.2306(2)
H29 H -0.3286 0.6023 0.2144
C29 C -0.3700(3) 0.7005(7) 0.2893(2)
H30 H -0.3318 0.6410 0.3132
C30 C -0.4283(3) 0.8125(8) 0.3140(2)
C31 C -0.4833(3) 0.8995(7) 0.2774(2)
H31 H -0.5225 0.9765 0.2931
C32 C -0.4807(3) 0.8739(7) 0.2192(2)
H32 H -0.5182 0.9336 0.1949
S3 S -0.58851(9) 0.2749(2) 0.39928(5)
N7 N -0.6266(3) 0.3306(7) 0.14701(17)
H5 H -0.5888 0.3832 0.1261
H6 H -0.6707 0.2845 0.1304
O7 O -0.5374(4) 0.4116(6) 0.4180(2)
O8 O -0.5491(3) 0.1126(5) 0.40951(16)
O9 O -0.6728(3) 0.2830(7) 0.42309(15)
C33 C -0.6003(3) 0.2950(8) 0.32512(17)
C34 C -0.5396(3) 0.3796(7) 0.2931(2)
H33 H -0.4925 0.4293 0.3117
C35 C -0.5485(3) 0.3904(6) 0.2339(2)
H34 H -0.5070 0.4473 0.2121
C36 C -0.6165(3) 0.3202(7) 0.2062(2)
C37 C -0.6751(3) 0.2332(7) 0.2382(2)
H35 H -0.7214 0.1809 0.2196
C38 C -0.6667(3) 0.2217(7) 0.2970(2)
H36 H -0.7078 0.1620 0.3184
S4 S -0.90871(7) 0.33355(17) 0.11009(5)
N8 N -0.9593(3) 0.2233(6) 0.35811(17)
H7 H -0.9279 0.2773 0.3832
H8 H -0.9988 0.1546 0.3700
O10 O -0.8185(2) 0.3442(5) 0.09990(14)
O11 O -0.9512(3) 0.4905(5) 0.09872(15)
O12 O -0.9480(2) 0.1951(5) 0.07884(15)
C39 C -0.9216(3) 0.2916(7) 0.18367(16)
C40 C -0.8730(3) 0.3753(6) 0.2232(2)
H37 H -0.8304 0.4496 0.2101
C41 C -0.8846(3) 0.3539(6) 0.28135(19)
H38 H -0.8502 0.4128 0.3079
C42 C -0.9466(3) 0.2461(6) 0.3010(2)
C43 C -0.9958(3) 0.1590(6) 0.26033(19)
H39 H -1.0379 0.0833 0.2730
C44 C -0.9832(3) 0.1826(6) 0.20256(19)
H40 H -1.0169 0.1239 0.1755
O21 O -0.2092(2) 0.7895(5) 0.07568(14)
O22 O -0.0380(3) 0.4502(7) 0.5019(3)
O23 O -0.8364(3) 0.4390(6) 0.41744(18)
O24 O -0.4228(3) 0.5429(7) 0.9227(2)
O25 O -0.4132(3) -0.0411(6) 0.97594(16)
loop_
_geom_bond_atom_site_label_1
_geom_bond_atom_site_label_2
_geom_bond_site_symmetry_1
_geom_bond_site_symmetry_2
Cd1 N1 1_555 1_555
Cd2 N2 1_555 1_555
S1 O1 1_555 1_555
S2 O4 1_555 1_555
S3 O7 1_555 1_555
S4 O10 1_555 1_555
N1 C1 1_555 1_555
N2 C4 1_555 1_555
N3 C11 1_555 1_555
N4 Cd2 1_555 1_555
N5 H1 1_555 1_555
H2 N5 1_555 1_555
N6 H3 1_555 1_555
H4 N6 1_555 1_555
N7 H5 1_555 1_555
H6 N7 1_555 1_555
N8 H7 1_555 1_555
H8 N8 1_555 1_555
O2 S1 1_555 1_555
O3 S1 1_555 1_555
O5 S2 1_555 1_555
O6 S2 1_555 1_555
O8 S3 1_555 1_555
O9 S3 1_555 1_555
O11 S4 1_555 1_555
O12 S4 1_555 1_555
O13 Cd1 1_555 1_555
O14 Cd1 1_555 1_555
O15 Cd1 1_555 1_555
O16 Cd1 1_555 1_555
O17 Cd2 1_555 1_555
O18 Cd2 1_555 1_555
O19 Cd2 1_555 1_555
O20 Cd2 1_555 1_555
C1 H9 1_555 1_555
C2 C1 1_555 1_555
H10 C2 1_555 1_555
C3 H11 1_555 1_555
C4 C3 1_555 1_555
H12 C4 1_555 1_555
C5 N2 1_555 1_555
H13 C5 1_555 1_555
C6 C5 1_555 1_555
H14 C6 1_555 1_555
C7 C3 1_555 1_555
C8 C2 1_555 1_555
C9 C8 1_555 1_555
H15 C9 1_555 1_555
C10 N1 1_555 1_555
H16 C10 1_555 1_555
C11 H17 1_555 1_555
C12 C11 1_555 1_555
H18 C12 1_555 1_555
C13 H19 1_555 1_555
C14 N4 1_555 1_555
H20 C14 1_555 1_555
C15 N4 1_555 1_555
H21 C15 1_555 1_555
C16 C15 1_555 1_555
H22 C16 1_555 1_555
C17 C13 1_555 1_555
C18 C12 1_555 1_555
C19 C18 1_555 1_555
H23 C19 1_555 1_555
C20 N3 1_555 1_555
H24 C20 1_555 1_555
C21 S1 1_555 1_555
C22 C21 1_555 1_555
H25 C22 1_555 1_555
C23 C22 1_555 1_555
H26 C23 1_555 1_555
C24 N5 1_555 1_555
C25 C24 1_555 1_555
H27 C25 1_555 1_555
C26 C21 1_555 1_555
H28 C26 1_555 1_555
C27 S2 1_555 1_555
C28 C27 1_555 1_555
H29 C28 1_555 1_555
C29 C28 1_555 1_555
H30 C29 1_555 1_555
C30 N6 1_555 1_555
C31 C30 1_555 1_555
H31 C31 1_555 1_555
C32 C27 1_555 1_555
H32 C32 1_555 1_555
C33 S3 1_555 1_555
C34 C33 1_555 1_555
H33 C34 1_555 1_555
C35 C34 1_555 1_555
H34 C35 1_555 1_555
C36 N7 1_555 1_555
C37 C36 1_555 1_555
H35 C37 1_555 1_555
C38 C33 1_555 1_555
H36 C38 1_555 1_555
C39 S4 1_555 1_555
C40 C39 1_555 1_555
H37 C40 1_555 1_555
C41 C40 1_555 1_555
H38 C41 1_555 1_555
C42 N8 1_555 1_555
C43 C42 1_555 1_555
H39 C43 1_555 1_555
C44 C39 1_555 1_555
H40 C44 1_555 1_555
Cd1_2 N3 1_555 1_555
N3_2 Cd1 1_555 1_555
C6 C7 1_555 1_555
C7 C8 1_555 1_555
C9 C10 1_555 1_555
C13 C14 1_555 1_555
C16 C17 1_555 1_555
C17 C18 1_555 1_555
C19 C20 1_555 1_555
C23 C24 1_555 1_555
C25 C26 1_555 1_555
C29 C30 1_555 1_555
C31 C32 1_555 1_555
C35 C36 1_555 1_555
C37 C38 1_555 1_555
C41 C42 1_555 1_555
C43 C44 1_555 1_555

#END
