
#######################################################################
#
#                 Cambridge Crystallographic Data Centre
#                                CCDC 
#
#######################################################################
#
# If this CIF has been generated from an entry in the Cambridge 
# Structural Database, then it will include bibliographic, chemical, 
# crystal, experimental, refinement or atomic coordinate data resulting 
# from the CCDC's data processing and validation procedures.
#
#######################################################################

data_LIFTOL
_symmetry_cell_setting           triclinic
_symmetry_space_group_name_H-M   'P -1'
_symmetry_Int_Tables_number      2
_space_group_name_Hall           '-P 1'
loop_
_symmetry_equiv_pos_site_id
_symmetry_equiv_pos_as_xyz
1 x,y,z
2 -x,-y,-z
_cell_length_a                   4.1724(8)
_cell_length_b                   6.9626(14)
_cell_length_c                   11.361(2)
_cell_angle_alpha                91.370(12)
_cell_angle_beta                 91.030(14)
_cell_angle_gamma                100.720(11)
_cell_volume                     324.108
loop_
_atom_site_label
_atom_site_type_symbol
_atom_site_fract_x
_atom_site_fract_y
_atom_site_fract_z
Cu1 Cu 0.0000 0.5000 0.5000
N1 N 0.2844(8) 0.3962(5) 0.3827(3)
C1 C 0.2364(10) 0.4549(6) 0.2751(4)
N2 N -0.0400(8) 0.6807(5) 0.3677(3)
N3 N 0.4777(9) 0.2948(5) 0.0971(3)
C2 C 0.0689(10) 0.6191(6) 0.2648(3)
C3 C -0.1070(11) 0.8784(6) 0.1626(4)
H1 H -0.1322 0.9442 0.0938
C4 C -0.2094(10) 0.9450(6) 0.2677(4)
H2 H -0.3011 1.0569 0.2710
C5 C -0.1734(10) 0.8419(6) 0.3687(4)
H3 H -0.2444 0.8863 0.4397
C6 C 0.0339(11) 0.7134(6) 0.1593(4)
H4 H 0.1035 0.6665 0.0887
C7 C 0.3733(10) 0.3693(6) 0.1755(4)
O1 O 0.4815(7) 0.2767(4) 0.4013(3)
N1A N -0.2844(8) 0.6038(5) 0.6173(3)
C1A C -0.2364(10) 0.5451(6) 0.7249(4)
N2A N 0.0400(8) 0.3193(5) 0.6323(3)
N3A N -0.4777(9) 0.7052(5) 0.9029(3)
C2A C -0.0689(10) 0.3809(6) 0.7352(3)
C3A C 0.1070(11) 0.1216(6) 0.8374(4)
H1A H 0.1322 0.0558 0.9062
C4A C 0.2094(10) 0.0550(6) 0.7323(4)
H2A H 0.3011 -0.0569 0.7290
C5A C 0.1734(10) 0.1581(6) 0.6313(4)
H3A H 0.2444 0.1137 0.5603
C6A C -0.0339(11) 0.2866(6) 0.8407(4)
H4A H -0.1035 0.3335 0.9113
C7A C -0.3733(10) 0.6307(6) 0.8245(4)
O1A O -0.4815(7) 0.7233(4) 0.5987(3)
Cu1_2 Cu -1.0000 0.5000 0.5000
Cu1_3 Cu 1.0000 0.5000 0.5000
O1_2 O -0.5185(7) 0.2767(4) 0.4013(3)
O1A_2 O 0.5185(7) 0.7233(4) 0.5987(3)
loop_
_geom_bond_atom_site_label_1
_geom_bond_atom_site_label_2
_geom_bond_site_symmetry_1
_geom_bond_site_symmetry_2
Cu1 N1 1_555 1_555
N1 C1 1_555 1_555
C1 C2 1_555 1_555
N2 Cu1 1_555 1_555
N3 C7 1_555 1_555
C2 N2 1_555 1_555
C3 H1 1_555 1_555
C4 C3 1_555 1_555
H2 C4 1_555 1_555
C5 N2 1_555 1_555
H3 C5 1_555 1_555
C6 C2 1_555 1_555
H4 C6 1_555 1_555
C7 C1 1_555 1_555
O1 N1 1_555 1_555
N1A Cu1 1_555 1_555
C1A N1A 1_555 1_555
N2A Cu1 1_555 1_555
N3A C7A 1_555 1_555
C2A C1A 1_555 1_555
C3A H1A 1_555 1_555
C4A C3A 1_555 1_555
H2A C4A 1_555 1_555
C5A N2A 1_555 1_555
H3A C5A 1_555 1_555
C6A C2A 1_555 1_555
H4A C6A 1_555 1_555
C7A C1A 1_555 1_555
O1A N1A 1_555 1_555
Cu1_2 O1A 1_555 1_555
Cu1_3 O1 1_555 1_555
O1_2 Cu1 1_555 1_555
O1A_2 Cu1 1_555 1_555
C3 C6 1_555 1_555
C4 C5 1_555 1_555
N2A C2A 1_555 1_555
C3A C6A 1_555 1_555
C4A C5A 1_555 1_555

#END
