
#######################################################################
#
#                 Cambridge Crystallographic Data Centre
#                                CCDC 
#
#######################################################################
#
# If this CIF has been generated from an entry in the Cambridge 
# Structural Database, then it will include bibliographic, chemical, 
# crystal, experimental, refinement or atomic coordinate data resulting 
# from the CCDC's data processing and validation procedures.
#
#######################################################################

data_LIFVAY
_symmetry_cell_setting           monoclinic
_symmetry_space_group_name_H-M   'P 21/n'
_symmetry_Int_Tables_number      14
_space_group_name_Hall           '-P 2yn'
loop_
_symmetry_equiv_pos_site_id
_symmetry_equiv_pos_as_xyz
1 x,y,z
2 1/2-x,1/2+y,1/2-z
3 -x,-y,-z
4 1/2+x,1/2-y,1/2+z
_cell_length_a                   11.146(7)
_cell_length_b                   7.753(5)
_cell_length_c                   16.572(10)
_cell_angle_alpha                90
_cell_angle_beta                 106.630(10)
_cell_angle_gamma                90
_cell_volume                     1372.17
loop_
_atom_site_label
_atom_site_type_symbol
_atom_site_fract_x
_atom_site_fract_y
_atom_site_fract_z
Cu1 Cu -0.5000 0.5000 0.0000
S1 S -0.53363(4) 0.19281(6) -0.15370(3)
N1 N 0.31744(14) 0.4792(2) -0.00307(10)
O1 O -0.54388(13) 0.37554(19) -0.13676(9)
O2 O -0.56267(14) 0.0840(2) -0.08986(9)
O3 O -0.60434(15) 0.1462(2) -0.23889(9)
O4 O -0.54090(14) 0.71980(18) -0.06272(9)
H1 H -0.5489 0.7275 -0.1155
H2 H -0.5152 0.8232 -0.0376
C1 C 0.22574(18) 0.5206(3) -0.07222(13)
H7 H 0.2467 0.5456 -0.1214
C2 C 0.10118(19) 0.5279(3) -0.07383(13)
H8 H 0.0405 0.5559 -0.1236
C3 C 0.06633(16) 0.4934(2) -0.00121(12)
C4 C 0.16199(18) 0.4460(3) 0.06947(13)
H9 H 0.1435 0.4183 0.1192
C5 C 0.28457(18) 0.4399(3) 0.06644(13)
H10 H 0.3467 0.4070 0.1146
C6 C -0.37364(19) 0.1552(3) -0.14695(13)
C7 C -0.2969(2) 0.0656(4) -0.08004(17)
H11 H -0.3284 0.0215 -0.0380
C8 C -0.1718(3) 0.0420(5) -0.0763(2)
H12 H -0.1195 -0.0193 -0.0318
C9 C -0.1248(3) 0.1090(5) -0.1381(2)
H13 H -0.0409 0.0930 -0.1350
C10 C -0.2019(3) 0.1997(4) -0.2046(2)
H14 H -0.1698 0.2449 -0.2461
C11 C -0.3274(2) 0.2237(4) -0.20972(16)
H15 H -0.3797 0.2847 -0.2544
Cu1_2 Cu 0.5000 0.5000 0.0000
S1B S -0.46637(4) 0.80719(6) 0.15370(3)
N1B N -0.31744(14) 0.5208(2) 0.00307(10)
N1_2 N -0.68256(14) 0.4792(2) -0.00307(10)
O1B O -0.45612(13) 0.62446(19) 0.13676(9)
O2B O -0.43733(14) 0.9160(2) 0.08986(9)
O3B O -0.39566(15) 0.8538(2) 0.23889(9)
O4B O -0.45910(14) 0.28020(18) 0.06272(9)
H1B H -0.4511 0.2725 0.1155
H2B H -0.4848 0.1768 0.0376
C1B C -0.22574(18) 0.4794(3) 0.07222(13)
H7B H -0.2467 0.4544 0.1214
C2B C -0.10118(19) 0.4721(3) 0.07383(13)
H8B H -0.0405 0.4441 0.1236
C3B C -0.06633(16) 0.5066(2) 0.00121(12)
C4B C -0.16199(18) 0.5540(3) -0.06947(13)
H9B H -0.1435 0.5817 -0.1192
C5B C -0.28457(18) 0.5601(3) -0.06644(13)
H10B H -0.3467 0.5930 -0.1146
C6B C -0.62636(19) 0.8448(3) 0.14695(13)
C7B C -0.7031(2) 0.9344(4) 0.08004(17)
H11B H -0.6716 0.9785 0.0380
C8B C -0.8282(3) 0.9580(5) 0.0763(2)
H12B H -0.8805 1.0193 0.0318
C9B C -0.8752(3) 0.8910(5) 0.1381(2)
H13B H -0.9591 0.9070 0.1350
C10B C -0.7981(3) 0.8003(4) 0.2046(2)
H14B H -0.8302 0.7551 0.2461
C11B C -0.6726(2) 0.7763(4) 0.20972(16)
H15B H -0.6203 0.7153 0.2544
O5 O 0.83342(18) 1.0135(3) 0.16227(13)
H3 H 0.7470 1.0154 0.1401
H4 H 0.8399 1.1232 0.1978
O6 O 0.5664(2) 0.2407(3) 0.22518(12)
H5 H 0.5951 0.1328 0.2465
H6 H 0.6070 0.3229 0.2602
loop_
_geom_bond_atom_site_label_1
_geom_bond_atom_site_label_2
_geom_bond_site_symmetry_1
_geom_bond_site_symmetry_2
Cu1 O1 1_555 1_555
S1 O1 1_555 1_555
N1 C1 1_555 1_555
O2 S1 1_555 1_555
O3 S1 1_555 1_555
O4 Cu1 1_555 1_555
H1 O4 1_555 1_555
H2 O4 1_555 1_555
O5 H3 1_555 1_555
H4 O5 1_555 1_555
O6 H5 1_555 1_555
H6 O6 1_555 1_555
C1 H7 1_555 1_555
C2 C1 1_555 1_555
H8 C2 1_555 1_555
C3 C2 1_555 1_555
C4 C3 1_555 1_555
H9 C4 1_555 1_555
C5 N1 1_555 1_555
H10 C5 1_555 1_555
C6 S1 1_555 1_555
C7 C6 1_555 1_555
H11 C7 1_555 1_555
C8 C7 1_555 1_555
H12 C8 1_555 1_555
C9 C8 1_555 1_555
H13 C9 1_555 1_555
C10 C9 1_555 1_555
H14 C10 1_555 1_555
C11 C6 1_555 1_555
H15 C11 1_555 1_555
Cu1_2 N1 1_555 1_555
S1B O1B 1_555 1_555
N1B Cu1 1_555 1_555
N1_2 Cu1 1_555 1_555
O1B Cu1 1_555 1_555
O2B S1B 1_555 1_555
O3B S1B 1_555 1_555
O4B Cu1 1_555 1_555
H1B O4B 1_555 1_555
H2B O4B 1_555 1_555
C1B N1B 1_555 1_555
H7B C1B 1_555 1_555
C2B C1B 1_555 1_555
H8B C2B 1_555 1_555
C3B C3 1_555 1_555
C4B C3B 1_555 1_555
H9B C4B 1_555 1_555
C5B N1B 1_555 1_555
H10B C5B 1_555 1_555
C6B S1B 1_555 1_555
C7B C6B 1_555 1_555
H11B C7B 1_555 1_555
C8B C7B 1_555 1_555
H12B C8B 1_555 1_555
C9B C8B 1_555 1_555
H13B C9B 1_555 1_555
C10B C9B 1_555 1_555
H14B C10B 1_555 1_555
C11B C6B 1_555 1_555
H15B C11B 1_555 1_555
C4 C5 1_555 1_555
C10 C11 1_555 1_555
C2B C3B 1_555 1_555
C4B C5B 1_555 1_555
C10B C11B 1_555 1_555

#END
