
#######################################################################
#
#                 Cambridge Crystallographic Data Centre
#                                CCDC 
#
#######################################################################
#
# If this CIF has been generated from an entry in the Cambridge 
# Structural Database, then it will include bibliographic, chemical, 
# crystal, experimental, refinement or atomic coordinate data resulting 
# from the CCDC's data processing and validation procedures.
#
#######################################################################

data_LIFWII
_symmetry_cell_setting           tetragonal
_symmetry_space_group_name_H-M   'P 4/n c c'
_symmetry_Int_Tables_number      130
_space_group_name_Hall           '-P 4a 2ac'
loop_
_symmetry_equiv_pos_site_id
_symmetry_equiv_pos_as_xyz
1 x,y,z
2 1/2-x,1/2-y,z
3 1/2-y,x,z
4 y,1/2-x,z
5 -x,1/2+y,1/2-z
6 1/2+x,-y,1/2-z
7 1/2+y,1/2+x,1/2-z
8 -y,-x,1/2-z
9 -x,-y,-z
10 1/2+x,1/2+y,-z
11 1/2+y,-x,-z
12 -y,1/2+x,-z
13 x,1/2-y,1/2+z
14 1/2-x,y,1/2+z
15 1/2-y,1/2-x,1/2+z
16 y,x,1/2+z
_cell_length_a                   19.9188(3)
_cell_length_b                   19.9188(3)
_cell_length_c                   15.2892(6)
_cell_angle_alpha                90
_cell_angle_beta                 90
_cell_angle_gamma                90
_cell_volume                     6066.12
loop_
_atom_site_label
_atom_site_type_symbol
_atom_site_fract_x
_atom_site_fract_y
_atom_site_fract_z
Zn1 Zn 0.2500 0.2500 0.60058(5)
Si1 Si 0.2500 0.2500 0.35143(12)
F1 F 0.2500 0.2500 0.4634(2)
F2 F 0.31694(11) 0.19908(12) 0.35142(14)
F3 F 0.2500 0.2500 0.2400(2)
N1 N 0.35687(15) 0.24808(15) 0.60118(19)
C1 C 0.39036(18) 0.21852(19) 0.6671(2)
H1 H 0.3654 0.1983 0.7130
C2 C 0.45966(19) 0.2164(2) 0.6707(3)
H2 H 0.4815 0.1939 0.7176
C3 C 0.49740(18) 0.2473(2) 0.6054(2)
C4 C 0.46202(18) 0.2779(2) 0.5371(2)
H3 H 0.4856 0.2993 0.4908
C5 C 0.39259(18) 0.27688(19) 0.5371(2)
H4 H 0.3693 0.2974 0.4899
C6 C 0.57118(19) 0.2479(2) 0.6085(2)
C7 C 0.60719(19) 0.1921(2) 0.6376(3)
H5 H 0.5837 0.1530 0.6559
C8 C 0.6770(2) 0.1928(2) 0.6402(3)
H6 H 0.7006 0.1540 0.6595
C9 C 0.71271(19) 0.2498(2) 0.6148(2)
C10 C 0.67651(19) 0.3058(2) 0.5867(3)
H7 H 0.6999 0.3454 0.5704
C11 C 0.60719(19) 0.3045(2) 0.5822(3)
H8 H 0.5838 0.3427 0.5608
F2A F 0.18306(11) 0.30092(12) 0.35142(14)
F2B F 0.30092(12) 0.31694(11) 0.35142(14)
F2C F 0.19908(12) 0.18306(11) 0.35142(14)
N1A N 1.14313(15) 0.25192(15) 0.60118(19)
C1A C 1.10964(18) 0.28148(19) 0.6671(2)
H1A H 1.1346 0.3017 0.7130
C2A C 1.04034(19) 0.2836(2) 0.6707(3)
H2A H 1.0185 0.3061 0.7176
C3A C 1.00260(18) 0.2527(2) 0.6054(2)
C4A C 1.03798(18) 0.2221(2) 0.5371(2)
H3A H 1.0144 0.2007 0.4908
C5A C 1.10741(18) 0.22312(19) 0.5371(2)
H4A H 1.1307 0.2026 0.4899
C6A C 0.92882(19) 0.2521(2) 0.6085(2)
C7A C 0.89281(19) 0.3079(2) 0.6376(3)
H5A H 0.9163 0.3470 0.6559
C8A C 0.8230(2) 0.3072(2) 0.6402(3)
H6A H 0.7994 0.3460 0.6595
C9A C 0.78729(19) 0.2502(2) 0.6148(2)
C10A C 0.82349(19) 0.1942(2) 0.5867(3)
H7A H 0.8001 0.1546 0.5704
C11A C 0.89281(19) 0.1955(2) 0.5822(3)
H8A H 0.9162 0.1573 0.5608
N1B N 0.25192(15) -0.64313(15) 0.60118(19)
C1B C 0.28148(19) -0.60964(18) 0.6671(2)
H1B H 0.3017 -0.6346 0.7130
C2B C 0.2836(2) -0.54034(19) 0.6707(3)
H2B H 0.3061 -0.5185 0.7176
C3B C 0.2527(2) -0.50260(18) 0.6054(2)
C4B C 0.2221(2) -0.53798(18) 0.5371(2)
H3B H 0.2007 -0.5144 0.4908
C5B C 0.22312(19) -0.60741(18) 0.5371(2)
H4B H 0.2026 -0.6307 0.4899
C6B C 0.2521(2) -0.42882(19) 0.6085(2)
C7B C 0.3079(2) -0.39281(19) 0.6376(3)
H5B H 0.3470 -0.4163 0.6559
C8B C 0.3072(2) -0.3230(2) 0.6402(3)
H6B H 0.3460 -0.2994 0.6595
C9B C 0.2502(2) -0.28729(19) 0.6148(2)
C10B C 0.1942(2) -0.32349(19) 0.5867(3)
H7B H 0.1546 -0.3001 0.5704
C11B C 0.1955(2) -0.39281(19) 0.5822(3)
H8B H 0.1573 -0.4162 0.5608
N1C N 0.24808(15) 0.14313(15) 0.60118(19)
C1C C 0.21852(19) 0.10964(18) 0.6671(2)
H1C H 0.1983 0.1346 0.7130
C2C C 0.2164(2) 0.04034(19) 0.6707(3)
H2C H 0.1939 0.0185 0.7176
C3C C 0.2473(2) 0.00260(18) 0.6054(2)
C4C C 0.2779(2) 0.03798(18) 0.5371(2)
H3C H 0.2993 0.0144 0.4908
C5C C 0.27688(19) 0.10741(18) 0.5371(2)
H4C H 0.2974 0.1307 0.4899
C6C C 0.2479(2) -0.07118(19) 0.6085(2)
C7C C 0.1921(2) -0.10719(19) 0.6376(3)
H5C H 0.1530 -0.0837 0.6559
C8C C 0.1928(2) -0.1770(2) 0.6402(3)
H6C H 0.1540 -0.2006 0.6595
C9C C 0.2498(2) -0.21271(19) 0.6148(2)
C10C C 0.3058(2) -0.17651(19) 0.5867(3)
H7C H 0.3454 -0.1999 0.5704
C11C C 0.3045(2) -0.10719(19) 0.5822(3)
H8C H 0.3427 -0.0838 0.5608
Zn1_2 Zn 0.2500 -0.7500 0.60058(5)
Zn1_3 Zn 1.2500 0.2500 0.60058(5)
Zn1L Zn 0.2500 0.2500 0.10058(5)
F3L F 0.2500 0.2500 0.7400(2)
N1A_2 N 0.14313(15) 0.25192(15) 0.60118(19)
N1B_2 N 0.25192(15) 0.35687(15) 0.60118(19)
Cl1 Cl 0.31693(8) 0.52270(8) 0.34769(10)
Cl2 Cl 0.39971(7) 0.45570(6) 0.21492(8)
C12 C 0.3764(3) 0.4566(3) 0.3308(5)
H9 H 0.3551 0.4128 0.3463
C13 C 0.4350(4) 0.4658(4) 0.3830(4)
H10 H 0.4540 0.5113 0.3708
Cl3 Cl 0.40935(8) 0.46219(8) 0.49625(9)
Cl4 Cl 0.49715(7) 0.40485(8) 0.36121(9)
loop_
_geom_bond_atom_site_label_1
_geom_bond_atom_site_label_2
_geom_bond_site_symmetry_1
_geom_bond_site_symmetry_2
Zn1 F1 1_555 1_555
Si1 F1 1_555 1_555
F2 Si1 1_555 1_555
F3 Si1 1_555 1_555
N1 Zn1 1_555 1_555
C1 N1 1_555 1_555
H1 C1 1_555 1_555
C2 C1 1_555 1_555
H2 C2 1_555 1_555
C3 C2 1_555 1_555
C4 C3 1_555 1_555
H3 C4 1_555 1_555
C5 N1 1_555 1_555
H4 C5 1_555 1_555
C6 C3 1_555 1_555
C7 C6 1_555 1_555
H5 C7 1_555 1_555
C8 C7 1_555 1_555
H6 C8 1_555 1_555
C9 C8 1_555 1_555
C10 C9 1_555 1_555
H7 C10 1_555 1_555
C11 C6 1_555 1_555
H8 C11 1_555 1_555
Cl1 C12 1_555 1_555
Cl2 C12 1_555 1_555
C12 H9 1_555 1_555
C13 C12 1_555 1_555
H10 C13 1_555 1_555
Cl3 C13 1_555 1_555
Cl4 C13 1_555 1_555
F2A Si1 1_555 1_555
F2B Si1 1_555 1_555
F2C Si1 1_555 1_555
N1A C1A 1_555 1_555
C1A H1A 1_555 1_555
C2A C1A 1_555 1_555
H2A C2A 1_555 1_555
C3A C2A 1_555 1_555
C4A C3A 1_555 1_555
H3A C4A 1_555 1_555
C5A N1A 1_555 1_555
H4A C5A 1_555 1_555
C6A C3A 1_555 1_555
C7A C6A 1_555 1_555
H5A C7A 1_555 1_555
C8A C7A 1_555 1_555
H6A C8A 1_555 1_555
C9A C9 1_555 1_555
C10A C9A 1_555 1_555
H7A C10A 1_555 1_555
C11A C6A 1_555 1_555
H8A C11A 1_555 1_555
N1B C1B 1_555 1_555
C1B H1B 1_555 1_555
C2B C1B 1_555 1_555
H2B C2B 1_555 1_555
C3B C2B 1_555 1_555
C4B C3B 1_555 1_555
H3B C4B 1_555 1_555
C5B N1B 1_555 1_555
H4B C5B 1_555 1_555
C6B C3B 1_555 1_555
C7B C6B 1_555 1_555
H5B C7B 1_555 1_555
C8B C7B 1_555 1_555
H6B C8B 1_555 1_555
C9B C8B 1_555 1_555
C10B C9B 1_555 1_555
H7B C10B 1_555 1_555
C11B C6B 1_555 1_555
H8B C11B 1_555 1_555
N1C Zn1 1_555 1_555
C1C N1C 1_555 1_555
H1C C1C 1_555 1_555
C2C C1C 1_555 1_555
H2C C2C 1_555 1_555
C3C C2C 1_555 1_555
C4C C3C 1_555 1_555
H3C C4C 1_555 1_555
C5C N1C 1_555 1_555
H4C C5C 1_555 1_555
C6C C3C 1_555 1_555
C7C C6C 1_555 1_555
H5C C7C 1_555 1_555
C8C C7C 1_555 1_555
H6C C8C 1_555 1_555
C9C C9B 1_555 1_555
C10C C9C 1_555 1_555
H7C C10C 1_555 1_555
C11C C6C 1_555 1_555
H8C C11C 1_555 1_555
Zn1_2 N1B 1_555 1_555
Zn1_3 N1A 1_555 1_555
Zn1L F3 1_555 1_555
F3L Zn1 1_555 1_555
N1A_2 Zn1 1_555 1_555
N1B_2 Zn1 1_555 1_555
C4 C5 1_555 1_555
C10 C11 1_555 1_555
C4A C5A 1_555 1_555
C8A C9A 1_555 1_555
C10A C11A 1_555 1_555
C4B C5B 1_555 1_555
C10B C11B 1_555 1_555
C4C C5C 1_555 1_555
C8C C9C 1_555 1_555
C10C C11C 1_555 1_555

#END
