
#######################################################################
#
#                 Cambridge Crystallographic Data Centre
#                                CCDC 
#
#######################################################################
#
# If this CIF has been generated from an entry in the Cambridge 
# Structural Database, then it will include bibliographic, chemical, 
# crystal, experimental, refinement or atomic coordinate data resulting 
# from the CCDC's data processing and validation procedures.
#
#######################################################################

data_LIFXUU
_symmetry_cell_setting           triclinic
_symmetry_space_group_name_H-M   'P -1'
_symmetry_Int_Tables_number      2
_space_group_name_Hall           '-P 1'
loop_
_symmetry_equiv_pos_site_id
_symmetry_equiv_pos_as_xyz
1 x,y,z
2 -x,-y,-z
_cell_length_a                   7.3108(15)
_cell_length_b                   9.863(2)
_cell_length_c                   12.013(2)
_cell_angle_alpha                77.29(3)
_cell_angle_beta                 79.67(3)
_cell_angle_gamma                88.12(3)
_cell_volume                     831.273
loop_
_atom_site_label
_atom_site_type_symbol
_atom_site_fract_x
_atom_site_fract_y
_atom_site_fract_z
Zn1 Zn 0.24835(3) 0.786158(18) 0.537469(15)
S1 S 0.66528(6) 0.69926(4) 0.20488(4)
O1 O 0.2524(2) 1.01157(13) 0.49990(12)
O2 O 0.02434(16) 0.79492(12) 0.44154(10)
O3 O 0.47240(16) 0.79013(12) -0.36781(10)
O4 O 0.2501(2) 0.56258(14) 0.57725(14)
N1 N 0.4443(2) 0.77864(14) 0.39561(12)
N2 N 0.41663(19) 0.78970(14) -0.25481(12)
N3 N 0.07688(19) 0.79311(14) 0.32852(12)
N4 N 0.0502(2) 0.77513(15) 0.68037(13)
C1 C 0.1760(3) 0.91446(18) 0.13628(16)
H1 H 0.2000 1.0006 0.0821
C2 C 0.3819(3) 0.91089(18) -0.22235(16)
H2 H 0.4031 0.9958 -0.2784
C3 C 0.3159(3) 0.91263(18) -0.10854(16)
H3 H 0.2934 0.9993 -0.0865
C4 C 0.1120(3) 0.91391(18) 0.25066(16)
H4 H 0.0924 0.9993 0.2751
C5 C 0.1012(2) 0.67133(17) 0.29545(15)
H5 H 0.0740 0.5868 0.3513
C6 C 0.3214(3) 0.66680(18) -0.06281(15)
H6 H 0.3011 0.5802 -0.0088
C7 C 0.1648(2) 0.66823(17) 0.18184(15)
H7 H 0.1810 0.5813 0.1597
C8 C 0.3896(2) 0.66859(17) -0.17685(15)
H8 H 0.4180 0.5837 -0.2010
C9 C 0.2811(2) 0.78982(17) -0.02450(15)
C10 C 0.2064(2) 0.79066(17) 0.09789(15)
C11 C 0.5349(2) 0.74314(17) 0.31714(15)
C12 C -0.0444(2) 0.74175(16) 0.77129(15)
S2 S -0.17719(7) 0.70300(5) 0.89830(4)
H10 H 0.168(4) 1.065(3) 0.521(2)
H11 H 0.264(3) 0.517(2) 0.530(2)
H12 H 0.262(3) 0.510(3) 0.640(2)
H14 H 0.329(4) 1.064(3) 0.464(2)
Zn1_2 Zn 0.24835(3) 0.786158(18) -0.462531(15)
O3_2 O 0.47240(16) 0.79013(12) 0.63219(10)
O5 O 0.2552(2) 0.39940(14) 0.42722(12)
H9 H 0.335(4) 0.350(3) 0.412(2)
H13 H 0.174(4) 0.342(3) 0.462(2)
loop_
_geom_bond_atom_site_label_1
_geom_bond_atom_site_label_2
_geom_bond_site_symmetry_1
_geom_bond_site_symmetry_2
Zn1 O1 1_555 1_555
S1 C11 1_555 1_555
O1 H10 1_555 1_555
O2 Zn1 1_555 1_555
O3 N2 1_555 1_555
O4 Zn1 1_555 1_555
N1 Zn1 1_555 1_555
N2 C2 1_555 1_555
N3 O2 1_555 1_555
N4 Zn1 1_555 1_555
C1 H1 1_555 1_555
C2 H2 1_555 1_555
C3 C2 1_555 1_555
H3 C3 1_555 1_555
C4 N3 1_555 1_555
H4 C4 1_555 1_555
C5 N3 1_555 1_555
H5 C5 1_555 1_555
C6 H6 1_555 1_555
C7 C5 1_555 1_555
H7 C7 1_555 1_555
C8 N2 1_555 1_555
H8 C8 1_555 1_555
C9 C3 1_555 1_555
C10 C1 1_555 1_555
C11 N1 1_555 1_555
C12 N4 1_555 1_555
S2 C12 1_555 1_555
O5 H9 1_555 1_555
H11 O4 1_555 1_555
H12 O4 1_555 1_555
H13 O5 1_555 1_555
H14 O1 1_555 1_555
Zn1_2 O3 1_555 1_555
O3_2 Zn1 1_555 1_555
C1 C4 1_555 1_555
C6 C8 1_555 1_555
C6 C9 1_555 1_555
C7 C10 1_555 1_555
C9 C10 1_555 1_555

#END
