
#######################################################################
#
#                 Cambridge Crystallographic Data Centre
#                                CCDC 
#
#######################################################################
#
# If this CIF has been generated from an entry in the Cambridge 
# Structural Database, then it will include bibliographic, chemical, 
# crystal, experimental, refinement or atomic coordinate data resulting 
# from the CCDC's data processing and validation procedures.
#
#######################################################################

data_LIFXAA
_symmetry_cell_setting           monoclinic
_symmetry_space_group_name_H-M   'P 21/c'
_symmetry_Int_Tables_number      14
_space_group_name_Hall           '-P 2ybc'
loop_
_symmetry_equiv_pos_site_id
_symmetry_equiv_pos_as_xyz
1 x,y,z
2 -x,1/2+y,1/2-z
3 -x,-y,-z
4 x,1/2-y,1/2+z
_cell_length_a                   9.539(2)
_cell_length_b                   7.975(2)
_cell_length_c                   17.302(5)
_cell_angle_alpha                90
_cell_angle_beta                 99.76(2)
_cell_angle_gamma                90
_cell_volume                     1297.17
loop_
_atom_site_label
_atom_site_type_symbol
_atom_site_fract_x
_atom_site_fract_y
_atom_site_fract_z
Cd1 Cd 0.51891(2) 0.47506(3) 0.251496(11)
Cl1 Cl 0.67253(7) 0.74555(9) 0.22982(4)
Cl2 Cl 0.67631(7) 0.20281(9) 0.24100(4)
O1 O 0.4936(2) 0.4687(3) 0.11379(12)
N1 N 0.6251(2) 0.4865(3) 0.38491(14)
C1 C 0.6837(3) 0.6247(4) 0.4209(2)
H1 H 0.6952 0.7186 0.3908
C2 C 0.7280(3) 0.6331(4) 0.5022(2)
C3 C 0.7076(3) 0.4926(4) 0.5468(2)
H2 H 0.7323 0.4954 0.6011
C4 C 0.6504(3) 0.3494(4) 0.5094(2)
H3 H 0.6389 0.2529 0.5379
C5 C 0.6103(3) 0.3516(4) 0.4286(2)
H4 H 0.5712 0.2549 0.4037
C6 C 0.7763(3) 0.7967(4) 0.5395(2)
O2 O 0.6970(2) 0.9221(3) 0.52500(12)
N2 N 0.8988(2) 0.8035(3) 0.58960(14)
C7 C 0.9345(3) 0.9559(4) 0.6366(2)
H5 H 0.9935 0.9251 0.6859
H6 H 0.8475 1.0046 0.6486
C8 C 1.0121(3) 1.0874(4) 0.5963(2)
H7 H 1.0378 1.1800 0.6313
H8 H 0.9511 1.1262 0.5498
H9 H 1.0965 1.0390 0.5823
C9 C 1.0076(3) 0.6712(4) 0.5993(2)
H10 H 1.0992 0.7215 0.5967
H11 H 0.9862 0.5929 0.5560
C10 C 1.0182(3) 0.5748(4) 0.6760(2)
H12 H 1.1000 0.5028 0.6822
H13 H 0.9340 0.5085 0.6751
H14 H 1.0274 0.6525 0.7189
H15 H 0.4368 0.4560 0.0725
H16 H 0.5526 0.5015 0.0875
Cd1A Cd 0.48109(2) 0.97506(3) 0.248504(11)
Cd1A_2 Cd 0.48109(2) -0.02494(3) 0.248504(11)
Cl1A Cl 0.32747(7) 0.24555(9) 0.27018(4)
Cl2A Cl 0.32369(7) 0.70281(9) 0.25900(4)
loop_
_geom_bond_atom_site_label_1
_geom_bond_atom_site_label_2
_geom_bond_site_symmetry_1
_geom_bond_site_symmetry_2
Cd1 Cl1 1_555 1_555
Cl1 Cd1A 1_555 1_555
Cl2 Cd1 1_555 1_555
O1 Cd1 1_555 1_555
N1 Cd1 1_555 1_555
C1 N1 1_555 1_555
H1 C1 1_555 1_555
C2 C1 1_555 1_555
C3 C2 1_555 1_555
H2 C3 1_555 1_555
C4 C3 1_555 1_555
H3 C4 1_555 1_555
C5 N1 1_555 1_555
H4 C5 1_555 1_555
C6 C2 1_555 1_555
O2 C6 1_555 1_555
N2 C6 1_555 1_555
C7 N2 1_555 1_555
H5 C7 1_555 1_555
H6 C7 1_555 1_555
C8 C7 1_555 1_555
H7 C8 1_555 1_555
H8 C8 1_555 1_555
H9 C8 1_555 1_555
C9 N2 1_555 1_555
H10 C9 1_555 1_555
H11 C9 1_555 1_555
C10 C9 1_555 1_555
H12 C10 1_555 1_555
H13 C10 1_555 1_555
H14 C10 1_555 1_555
H15 O1 1_555 1_555
H16 O1 1_555 1_555
Cd1A Cl2A 1_555 1_555
Cd1A_2 Cl2 1_555 1_555
Cl1A Cd1 1_555 1_555
Cl2A Cd1 1_555 1_555
C4 C5 1_555 1_555
Cd1A_2 Cl1A 1_555 1_555

#END
