
#######################################################################
#
#                 Cambridge Crystallographic Data Centre
#                                CCDC 
#
#######################################################################
#
# If this CIF has been generated from an entry in the Cambridge 
# Structural Database, then it will include bibliographic, chemical, 
# crystal, experimental, refinement or atomic coordinate data resulting 
# from the CCDC's data processing and validation procedures.
#
#######################################################################

data_LIFXEE
_symmetry_cell_setting           triclinic
_symmetry_space_group_name_H-M   'P -1'
_symmetry_Int_Tables_number      2
_space_group_name_Hall           '-P 1'
loop_
_symmetry_equiv_pos_site_id
_symmetry_equiv_pos_as_xyz
1 x,y,z
2 -x,-y,-z
_cell_length_a                   8.236(2)
_cell_length_b                   9.322(2)
_cell_length_c                   9.471(3)
_cell_angle_alpha                66.603(1)
_cell_angle_beta                 84.578(1)
_cell_angle_gamma                66.673(2)
_cell_volume                     611.105
loop_
_atom_site_label
_atom_site_type_symbol
_atom_site_fract_x
_atom_site_fract_y
_atom_site_fract_z
Br1 Br 0.06137(3) 0.11625(3) 1.27931(3)
Zn1 Zn 0.04355(4) 0.17246(4) 1.01273(4)
Br2 Br -0.17381(4) 0.42270(4) 0.83223(4)
O1 O 0.1388(2) -0.0194(2) 0.9360(2)
O2 O 0.2851(2) 0.2037(2) 0.9755(2)
N1 N 0.2381(3) -0.0112(3) 0.8143(3)
N2 N 0.3417(3) 0.2875(3) 0.8446(3)
C1 C 0.1829(3) 0.1266(3) 0.6804(3)
H1 H 0.0740 0.2193 0.6723
C2 C 0.3881(4) -0.1461(3) 0.8287(3)
H2 H 0.4223 -0.2435 0.9230
C3 C 0.2836(3) 0.1331(3) 0.5562(3)
H3 H 0.2445 0.2308 0.4623
C4 C 0.4442(3) -0.0031(3) 0.5665(3)
C5 C 0.4932(4) -0.1430(4) 0.7055(3)
H4 H 0.6005 -0.2382 0.7165
C6 C 0.2509(4) 0.4558(4) 0.7652(3)
H5 H 0.1460 0.5157 0.8027
C7 C 0.4669(4) 0.4557(3) 0.5732(3)
C8 C 0.5575(4) 0.2836(3) 0.6619(3)
H6 H 0.6650 0.2216 0.6288
C9 C 0.3109(4) 0.5405(4) 0.6294(3)
H7 H 0.2452 0.6583 0.5731
C10 C 0.4947(4) 0.2016(3) 0.7962(3)
H8 H 0.5591 0.0841 0.8551
Br1A Br 0.93863(3) -0.11625(3) -0.27931(3)
Zn1A Zn 0.95645(4) -0.17246(4) -0.01273(4)
Zn1A_2 Zn -0.04355(4) -0.17246(4) 0.98727(4)
Zn1_2 Zn 1.04355(4) 0.17246(4) 0.01273(4)
Zn1A_3 Zn 0.95645(4) 0.82754(4) -0.01273(4)
Br2A Br 1.17381(4) -0.42270(4) 0.16777(4)
O1A O 0.8612(2) 0.0194(2) 0.0640(2)
O1A_2 O -0.1388(2) 0.0194(2) 1.0640(2)
O1_2 O 1.1388(2) -0.0194(2) -0.0640(2)
O2A O 0.7149(2) 0.7963(2) 0.0245(2)
O2A_2 O 0.7149(2) -0.2037(2) 0.0245(2)
N1A N 0.7619(3) 0.0112(3) 0.1857(3)
N2A N 0.6583(3) 0.7125(3) 0.1554(3)
C1A C 0.8171(3) -0.1266(3) 0.3196(3)
H1A H 0.9260 -0.2193 0.3277
C2A C 0.6119(4) 0.1461(3) 0.1713(3)
H2A H 0.5777 0.2435 0.0770
C3A C 0.7164(3) -0.1331(3) 0.4438(3)
H3A H 0.7555 -0.2308 0.5377
C4A C 0.5558(3) 0.0031(3) 0.4335(3)
C5A C 0.5068(4) 0.1430(4) 0.2945(3)
H4A H 0.3995 0.2382 0.2835
C6A C 0.7491(4) 0.5442(4) 0.2348(3)
H5A H 0.8540 0.4843 0.1973
C7A C 0.5331(4) 0.5443(3) 0.4268(3)
C8A C 0.4425(4) 0.7164(3) 0.3381(3)
H6A H 0.3350 0.7784 0.3712
C9A C 0.6891(4) 0.4595(4) 0.3706(3)
H7A H 0.7548 0.3417 0.4269
C10A C 0.5053(4) 0.7984(3) 0.2038(3)
H8A H 0.4409 0.9159 0.1449
loop_
_geom_bond_atom_site_label_1
_geom_bond_atom_site_label_2
_geom_bond_site_symmetry_1
_geom_bond_site_symmetry_2
Br1 Zn1 1_555 1_555
Zn1 Br2 1_555 1_555
O1 Zn1 1_555 1_555
O2 Zn1 1_555 1_555
N1 O1 1_555 1_555
N2 O2 1_555 1_555
C1 N1 1_555 1_555
H1 C1 1_555 1_555
C2 N1 1_555 1_555
H2 C2 1_555 1_555
C3 C1 1_555 1_555
H3 C3 1_555 1_555
C4 C3 1_555 1_555
C5 C2 1_555 1_555
H4 C5 1_555 1_555
C6 N2 1_555 1_555
H5 C6 1_555 1_555
C7 C8 1_555 1_555
C8 H6 1_555 1_555
C9 C6 1_555 1_555
H7 C9 1_555 1_555
C10 N2 1_555 1_555
H8 C10 1_555 1_555
Br1A Zn1A 1_555 1_555
Zn1A Br2A 1_555 1_555
Zn1A_2 O1 1_555 1_555
Zn1_2 O1A 1_555 1_555
Zn1A_3 O2A 1_555 1_555
O1A Zn1A 1_555 1_555
O1A_2 Zn1 1_555 1_555
O1_2 Zn1A 1_555 1_555
O2A N2A 1_555 1_555
O2A_2 Zn1A 1_555 1_555
N1A O1A 1_555 1_555
N2A C6A 1_555 1_555
C1A N1A 1_555 1_555
H1A C1A 1_555 1_555
C2A N1A 1_555 1_555
H2A C2A 1_555 1_555
C3A C1A 1_555 1_555
H3A C3A 1_555 1_555
C4A C4 1_555 1_555
C5A C2A 1_555 1_555
H4A C5A 1_555 1_555
C6A H5A 1_555 1_555
C7A C7 1_555 1_555
C8A C7A 1_555 1_555
H6A C8A 1_555 1_555
C9A C6A 1_555 1_555
H7A C9A 1_555 1_555
C10A N2A 1_555 1_555
H8A C10A 1_555 1_555
C4 C5 1_555 1_555
C7 C9 1_555 1_555
C8 C10 1_555 1_555
Zn1A_2 O1A_2 1_555 1_555
Zn1_2 O1_2 1_555 1_555
C3A C4A 1_555 1_555
C4A C5A 1_555 1_555
C7A C9A 1_555 1_555
C8A C10A 1_555 1_555

#END
