
#######################################################################
#
#                 Cambridge Crystallographic Data Centre
#                                CCDC 
#
#######################################################################
#
# If this CIF has been generated from an entry in the Cambridge 
# Structural Database, then it will include bibliographic, chemical, 
# crystal, experimental, refinement or atomic coordinate data resulting 
# from the CCDC's data processing and validation procedures.
#
#######################################################################

data_LIGGEP
_symmetry_cell_setting           triclinic
_symmetry_space_group_name_H-M   'P -1'
_symmetry_Int_Tables_number      2
_space_group_name_Hall           '-P 1'
loop_
_symmetry_equiv_pos_site_id
_symmetry_equiv_pos_as_xyz
1 x,y,z
2 -x,-y,-z
_cell_length_a                   14.9129(14)
_cell_length_b                   16.5938(15)
_cell_length_c                   23.584(2)
_cell_angle_alpha                87.7470(10)
_cell_angle_beta                 76.325(2)
_cell_angle_gamma                72.8630(10)
_cell_volume                     5416.04
loop_
_atom_site_label
_atom_site_type_symbol
_atom_site_fract_x
_atom_site_fract_y
_atom_site_fract_z
Mn1 Mn 0.23422(4) 0.93798(4) 0.45971(2)
C1 C 0.9334(3) 1.2871(3) -0.1283(2)
C2 C 1.0377(3) 1.2535(3) -0.1618(2)
C3 C 1.0740(4) 1.1697(3) -0.1802(3)
H1 H 1.0342 1.1348 -0.1719
C4 C 1.1696(4) 1.1368(3) -0.2109(3)
H2 H 1.1938 1.0805 -0.2236
C5 C 1.2278(3) 1.1901(3) -0.2222(2)
C6 C 1.1924(3) 1.2740(3) -0.2014(2)
C7 C 1.0984(4) 1.3064(3) -0.1709(2)
H3 H 1.0751 1.3619 -0.1566
C8 C 1.3266(3) 1.1754(3) -0.2573(2)
C9 C 1.3894(3) 1.1054(3) -0.2903(2)
H4 H 1.3735 1.0551 -0.2894
C10 C 1.4761(3) 1.1114(3) -0.3245(2)
H5 H 1.5187 1.0646 -0.3466
C11 C 1.5009(3) 1.1863(3) -0.3263(2)
C12 C 1.4412(3) 1.2545(3) -0.2892(2)
H6 H 1.4600 1.3027 -0.2872
C13 C 1.3538(3) 1.2492(3) -0.2556(2)
C14 C 1.2721(3) 1.3187(3) -0.2182(2)
C15 C 1.2987(4) 1.3458(4) -0.1640(3)
H7 H 1.3461 1.3761 -0.1771
H8 H 1.2415 1.3850 -0.1402
C16 C 1.3380(7) 1.2762(6) -0.1265(4)
H9 H 1.3522 1.2994 -0.0941
H10 H 1.3960 1.2378 -0.1490
H11 H 1.2911 1.2466 -0.1121
C17 C 1.2423(4) 1.3962(3) -0.2546(3)
H12 H 1.1854 1.4365 -0.2314
H13 H 1.2937 1.4226 -0.2636
C18 C 1.2209(5) 1.3770(5) -0.3101(4)
H14 H 1.2025 1.4282 -0.3305
H15 H 1.1689 1.3520 -0.3017
H16 H 1.2773 1.3385 -0.3340
C19 C 1.5905(3) 1.1927(3) -0.36946(18)
C20 C 0.7759(3) 1.3165(3) 0.03776(18)
C21 C 0.7719(3) 1.3150(3) 0.10238(18)
C22 C 0.7644(3) 1.2430(2) 0.13398(17)
H17 H 0.7638 1.1950 0.1152
C23 C 0.7581(3) 1.2442(3) 0.19358(18)
C24 C 0.7562(3) 1.3171(3) 0.22173(18)
C25 C 0.7641(4) 1.3886(3) 0.1905(2)
H18 H 0.7636 1.4369 0.2095
C26 C 0.7726(4) 1.3868(3) 0.1308(2)
H19 H 0.7790 1.4340 0.1095
C27 C 0.7464(3) 1.3022(3) 0.28399(18)
C28 C 0.7393(3) 1.3549(3) 0.33050(19)
H20 H 0.7398 1.4104 0.3243
C29 C 0.7313(3) 1.3231(3) 0.38619(18)
H21 H 0.7253 1.3582 0.4175
C30 C 0.7322(3) 1.2394(3) 0.39586(17)
C31 C 0.7403(3) 1.1865(3) 0.34908(17)
H22 H 0.7421 1.1304 0.3552
C32 C 0.7456(3) 1.2182(3) 0.29369(18)
C33 C 0.7549(3) 1.1729(3) 0.23650(17)
C34 C 0.6693(4) 1.1392(3) 0.2385(2)
H23 H 0.6706 1.0952 0.2669
H24 H 0.6775 1.1135 0.2007
C35 C 0.5700(5) 1.2053(5) 0.2541(3)
H25 H 0.5207 1.1789 0.2543
H26 H 0.5671 1.2485 0.2257
H27 H 0.5600 1.2300 0.2921
C36 C 0.8500(4) 1.0997(3) 0.22110(19)
H28 H 0.8476 1.0577 0.2508
H29 H 0.8539 1.0733 0.1843
C37 C 0.9418(4) 1.1256(3) 0.2162(2)
H30 H 0.9972 1.0768 0.2065
H31 H 0.9398 1.1504 0.2527
H32 H 0.9461 1.1660 0.1861
C38 C 0.7288(3) 1.2064(3) 0.45629(18)
C39 C 0.5483(3) 1.2662(3) 0.00379(19)
C40 C 0.4884(3) 1.2385(3) 0.05767(18)
C41 C 0.4356(4) 1.2968(3) 0.1027(2)
H33 H 0.4342 1.3531 0.0983
C42 C 0.3850(4) 1.2723(3) 0.1542(2)
H34 H 0.3506 1.3111 0.1847
C43 C 0.3872(3) 1.1884(3) 0.15885(18)
C44 C 0.4364(3) 1.1290(2) 0.11373(17)
C45 C 0.4884(3) 1.1539(2) 0.06234(17)
H35 H 0.5224 1.1151 0.0317
C46 C 0.3425(3) 1.1461(3) 0.20829(18)
C47 C 0.2870(4) 1.1788(3) 0.2633(2)
H36 H 0.2736 1.2355 0.2731
C48 C 0.2522(3) 1.1249(3) 0.30329(18)
H37 H 0.2162 1.1453 0.3405
C49 C 0.2711(3) 1.0408(3) 0.28767(17)
C50 C 0.3258(3) 1.0076(3) 0.23241(18)
H38 H 0.3374 0.9511 0.2225
C51 C 0.3626(3) 1.0612(3) 0.19237(17)
C52 C 0.4227(3) 1.0425(3) 0.12940(18)
C53 C 0.5183(4) 0.9733(3) 0.1251(3)
H39 H 0.5044 0.9225 0.1416
H40 H 0.5500 0.9608 0.0842
C54 C 0.5851(5) 0.9937(4) 0.1545(3)
H41 H 0.6430 0.9472 0.1496
H42 H 0.5555 1.0044 0.1954
H43 H 0.6009 1.0430 0.1380
C55 C 0.3653(5) 1.0172(3) 0.0898(2)
H44 H 0.4038 1.0101 0.0500
H45 H 0.3561 0.9630 0.1017
C56 C 0.2681(6) 1.0791(5) 0.0908(4)
H46 H 0.2376 1.0586 0.0653
H47 H 0.2762 1.1327 0.0779
H48 H 0.2285 1.0856 0.1299
C57 C 0.2302(3) 0.9859(3) 0.33208(18)
C58 C 0.0371(3) 0.7505(3) 0.48492(19)
C59 C -0.0344(3) 0.7202(2) 0.53008(18)
C60 C -0.1326(3) 0.7495(2) 0.53280(18)
H49 H -0.1552 0.7904 0.5073
C61 C -0.1978(3) 0.7184(3) 0.57321(18)
H50 H -0.2634 0.7371 0.5741
C62 C -0.1635(3) 0.6588(2) 0.61248(17)
C63 C -0.0651(3) 0.6312(3) 0.61097(19)
C64 C 0.0001(3) 0.6599(3) 0.56872(19)
H51 H 0.0661 0.6391 0.5663
C65 C -0.2139(3) 0.6174(2) 0.66095(17)
C66 C -0.3102(3) 0.6215(3) 0.68047(18)
H52 H -0.3555 0.6525 0.6607
C67 C -0.3383(3) 0.5785(3) 0.73043(17)
H53 H -0.4027 0.5800 0.7437
C68 C -0.2703(3) 0.5331(2) 0.76065(17)
C69 C -0.1740(3) 0.5275(3) 0.73998(18)
H54 H -0.1287 0.4970 0.7600
C70 C -0.1452(3) 0.5676(3) 0.68941(18)
C71 C -0.0437(3) 0.5667(3) 0.6577(2)
C72 C 0.0128(4) 0.5923(4) 0.6975(2)
H55 H 0.0242 0.5492 0.7261
H56 H 0.0753 0.5930 0.6738
C73 C -0.0358(5) 0.6770(4) 0.7294(3)
H57 H 0.0045 0.6875 0.7528
H58 H -0.0969 0.6766 0.7541
H59 H -0.0458 0.7206 0.7016
C74 C 0.0135(4) 0.4784(3) 0.6288(2)
H60 H 0.0770 0.4803 0.6078
H61 H 0.0222 0.4382 0.6595
C75 C -0.0316(5) 0.4458(4) 0.5874(3)
H62 H 0.0091 0.3912 0.5719
H63 H -0.0390 0.4840 0.5560
H64 H -0.0938 0.4416 0.6079
C76 C -0.3022(3) 0.4935(3) 0.81780(17)
C77 C 0.78975(15) 1.06359(14) 0.00780(9)
H65 H 0.7346 1.0976 0.0327
C78 C 0.84246(17) 0.98848(14) 0.02734(8)
H66 H 0.8226 0.9723 0.0653
C79 C 0.92491(15) 0.93757(11) -0.00989(10)
C80 C 0.95464(15) 0.96176(13) -0.06666(10)
H67 H 1.0098 0.9277 -0.0916
C81 C 0.90193(18) 1.03687(15) -0.08620(8)
H68 H 0.9218 1.0531 -0.1242
N1 N 0.81949(16) 1.08778(11) -0.04897(10)
C82 C 0.9847(2) 0.85563(14) 0.01132(15)
H69 H 1.0508 0.8430 -0.0116
H70 H 0.9853 0.8645 0.0516
C83 C 0.9494(6) 0.7802(3) 0.0076(4)
H71 H 0.9863 0.7348 0.0275
H72 H 0.8829 0.7946 0.0299
C84 C 0.9524(6) 0.7472(5) -0.0475(4)
H73 H 1.0189 0.7226 -0.0685
H74 H 0.9218 0.7921 -0.0704
C85 C 0.8993(8) 0.6794(4) -0.0384(5)
C86 C 0.9041(8) 0.6161(4) 0.0021(4)
H75 H 0.9305 0.6188 0.0337
C87 C 0.8695(6) 0.5487(4) -0.0046(3)
H76 H 0.8728 0.5064 0.0225
N2 N 0.8301(4) 0.5447(2) -0.0519(2)
C88 C 0.8253(8) 0.6080(4) -0.0925(4)
H77 H 0.7990 0.6053 -0.1241
C89 C 0.8599(9) 0.6753(5) -0.0857(5)
H78 H 0.8567 0.7177 -0.1129
O1 O 0.8878(2) 1.2336(2) -0.11601(15)
C90 C 0.2643(2) 0.5289(2) 0.4629(2)
H79 H 0.1979 0.5544 0.4715
C91 C 0.3009(3) 0.4434(2) 0.4720(2)
H80 H 0.2590 0.4116 0.4867
C92 C 0.4001(3) 0.40527(18) 0.4590(4)
C93 C 0.4627(2) 0.4527(2) 0.4370(5)
H81 H 0.5291 0.4272 0.4283
C94 C 0.4261(2) 0.5382(2) 0.4279(4)
H82 H 0.4680 0.5699 0.4131
N3 N 0.3269(2) 0.57627(16) 0.44081(18)
C95 C 0.4492(5) 0.30944(18) 0.4475(6)
H83 H 0.4116 0.2861 0.4279
H84 H 0.5129 0.3002 0.4220
C96 C 0.4573(9) 0.2675(5) 0.4999(7)
H85 H 0.3932 0.2819 0.5256
H86 H 0.4961 0.2916 0.5179
C97 C 0.4981(7) 0.1746(4) 0.4995(6)
H87 H 0.5162 0.1593 0.5362
H88 H 0.5567 0.1581 0.4686
C98 C 0.4321(3) 0.1244(2) 0.4908(2)
C99 C 0.3809(3) 0.0933(2) 0.53932(15)
H89 H 0.3864 0.1045 0.5765
C100 C 0.3217(3) 0.0455(2) 0.53229(11)
H90 H 0.2874 0.0247 0.5648
N4 N 0.3136(2) 0.02878(17) 0.47672(12)
C101 C 0.3647(2) 0.05990(19) 0.42818(11)
H91 H 0.3593 0.0487 0.3910
C102 C 0.4240(2) 0.1077(2) 0.43522(16)
H92 H 0.4582 0.1285 0.4027
C103 C 0.5851(5) 1.4992(5) 0.0561(3)
H93 H 0.5263 1.5425 0.0719
H94 H 0.6304 1.4959 0.0797
H95 H 0.5719 1.4460 0.0558
C104 C 0.6482(6) 1.2246(4) -0.1782(3)
H96 H 0.6590 1.1992 -0.2160
H97 H 0.6362 1.2845 -0.1815
H98 H 0.5935 1.2130 -0.1524
C105 C 0.1747(7) 0.7008(6) 0.3130(3)
H99 H 0.1881 0.6649 0.2792
H100 H 0.1749 0.7567 0.3009
H101 H 0.1125 0.7027 0.3372
O2 O 0.9003(2) 1.3650(2) -0.11615(17)
O3 O 1.6370(2) 1.1291(2) -0.40205(14)
O4 O 1.6108(2) 1.2610(2) -0.37037(14)
O5 O 0.7605(2) 1.25619(19) 0.01513(12)
O6 O 0.7943(2) 1.37971(19) 0.01155(13)
O7 O 0.7554(2) 1.1276(2) 0.46161(13)
O8 O 0.7012(3) 1.2603(2) 0.49725(13)
O9 O 0.6115(2) 1.21122(18) -0.02928(13)
O10 O 0.5317(2) 1.34506(19) -0.00260(16)
O11 O 0.2005(2) 1.01357(19) 0.38473(12)
O12 O 0.2247(2) 0.9162(2) 0.31544(13)
O13 O 0.0065(2) 0.81855(18) 0.45950(14)
O14 O 0.1237(2) 0.7065(2) 0.47568(16)
O15 O -0.2629(3) 0.5032(2) 0.85761(13)
O16 O -0.3638(3) 0.4538(2) 0.82261(13)
O17 O 0.6263(3) 1.5193(2) -0.00398(15)
O18 O 0.6747(2) 1.36217(17) -0.08206(12)
O19 O 0.7331(3) 1.1900(3) -0.15487(15)
O20 O 0.0990(2) 1.0153(2) 0.51084(15)
O21 O 0.1736(2) 0.84884(17) 0.41693(12)
O22 O 0.2446(3) 0.6693(3) 0.34413(17)
Mn2 Mn 0.76530(4) 1.44127(4) -0.06459(2)
Mn3 Mn 0.26253(4) 0.71591(4) 0.42511(2)
Mn4 Mn 0.75154(4) 1.22368(4) -0.07090(2)
Mn1_2 Mn 0.23422(4) -0.06202(4) 0.45971(2)
Mn1A Mn 0.76578(4) 1.06202(4) 0.54029(2)
Mn1A_2 Mn 1.76578(4) 1.06202(4) -0.45971(2)
N2_2 N 0.8301(4) 1.5447(2) -0.0519(2)
N4_2 N 0.3136(2) 1.02878(17) 0.47672(12)
O3A O 0.3630(2) 0.8709(2) 0.40205(14)
O4A O 0.3892(2) 0.7390(2) 0.37037(14)
O7A O 0.2446(2) 0.8724(2) 0.53839(13)
O8A O 0.2988(3) 0.7397(2) 0.50275(13)
O15_2 O 0.7371(3) 1.5032(2) -0.14239(13)
Mn2_2 Mn -0.23470(4) 0.44127(4) 0.93541(2)
Mn2_3 Mn 0.76530(4) 0.44127(4) -0.06459(2)
Mn3A Mn 0.73747(4) 1.28409(4) 0.57489(2)
Mn3A_2 Mn 1.73747(4) 1.28409(4) -0.42511(2)
C106 C 0.9841(5) 0.1218(5) 0.3746(4)
O23 O 1.0057(3) 0.0425(4) 0.3967(2)
C107 C 0.5000(8) 0.5349(6) 0.2792(8)
O24 O 0.4162(3) 0.5946(3) 0.2676(2)
C108 C -0.1317(14) 0.7681(12) 0.3623(7)
O25 O -0.1156(8) 0.8467(6) 0.3778(6)
O26 O -0.0498(7) 0.9443(6) 0.3135(4)
O27 O 0.1239(4) 0.9104(3) 0.23289(19)
O28 O 1.000(6) 1.490(5) -0.180(4)
loop_
_geom_bond_atom_site_label_1
_geom_bond_atom_site_label_2
_geom_bond_site_symmetry_1
_geom_bond_site_symmetry_2
Mn1 O11 1_555 1_555
C1 C2 1_555 1_555
C2 C3 1_555 1_555
C3 H1 1_555 1_555
C4 C3 1_555 1_555
H2 C4 1_555 1_555
C5 C4 1_555 1_555
C6 C5 1_555 1_555
C7 C2 1_555 1_555
H3 C7 1_555 1_555
C8 C5 1_555 1_555
C9 C8 1_555 1_555
H4 C9 1_555 1_555
C10 C9 1_555 1_555
H5 C10 1_555 1_555
C11 C10 1_555 1_555
C12 C11 1_555 1_555
H6 C12 1_555 1_555
C13 C8 1_555 1_555
C14 C6 1_555 1_555
C15 C14 1_555 1_555
H7 C15 1_555 1_555
H8 C15 1_555 1_555
C16 C15 1_555 1_555
H9 C16 1_555 1_555
H10 C16 1_555 1_555
H11 C16 1_555 1_555
C17 C14 1_555 1_555
H12 C17 1_555 1_555
H13 C17 1_555 1_555
C18 C17 1_555 1_555
H14 C18 1_555 1_555
H15 C18 1_555 1_555
H16 C18 1_555 1_555
C19 C11 1_555 1_555
C20 C21 1_555 1_555
C21 C22 1_555 1_555
C22 H17 1_555 1_555
C23 C22 1_555 1_555
C24 C23 1_555 1_555
C25 C24 1_555 1_555
H18 C25 1_555 1_555
C26 C21 1_555 1_555
H19 C26 1_555 1_555
C27 C24 1_555 1_555
C28 C27 1_555 1_555
H20 C28 1_555 1_555
C29 C28 1_555 1_555
H21 C29 1_555 1_555
C30 C29 1_555 1_555
C31 C30 1_555 1_555
H22 C31 1_555 1_555
C32 C27 1_555 1_555
C33 C23 1_555 1_555
C34 C33 1_555 1_555
H23 C34 1_555 1_555
H24 C34 1_555 1_555
C35 C34 1_555 1_555
H25 C35 1_555 1_555
H26 C35 1_555 1_555
H27 C35 1_555 1_555
C36 C33 1_555 1_555
H28 C36 1_555 1_555
H29 C36 1_555 1_555
C37 C36 1_555 1_555
H30 C37 1_555 1_555
H31 C37 1_555 1_555
H32 C37 1_555 1_555
C38 C30 1_555 1_555
C39 C40 1_555 1_555
C40 C41 1_555 1_555
C41 H33 1_555 1_555
C42 C41 1_555 1_555
H34 C42 1_555 1_555
C43 C42 1_555 1_555
C44 C43 1_555 1_555
C45 C40 1_555 1_555
H35 C45 1_555 1_555
C46 C43 1_555 1_555
C47 C46 1_555 1_555
H36 C47 1_555 1_555
C48 C47 1_555 1_555
H37 C48 1_555 1_555
C49 C48 1_555 1_555
C50 C49 1_555 1_555
H38 C50 1_555 1_555
C51 C46 1_555 1_555
C52 C44 1_555 1_555
C53 C52 1_555 1_555
H39 C53 1_555 1_555
H40 C53 1_555 1_555
C54 C53 1_555 1_555
H41 C54 1_555 1_555
H42 C54 1_555 1_555
H43 C54 1_555 1_555
C55 C52 1_555 1_555
H44 C55 1_555 1_555
H45 C55 1_555 1_555
C56 C55 1_555 1_555
H46 C56 1_555 1_555
H47 C56 1_555 1_555
H48 C56 1_555 1_555
C57 C49 1_555 1_555
C58 C59 1_555 1_555
C59 C60 1_555 1_555
C60 H49 1_555 1_555
C61 C60 1_555 1_555
H50 C61 1_555 1_555
C62 C61 1_555 1_555
C63 C62 1_555 1_555
C64 C59 1_555 1_555
H51 C64 1_555 1_555
C65 C62 1_555 1_555
C66 C65 1_555 1_555
H52 C66 1_555 1_555
C67 C66 1_555 1_555
H53 C67 1_555 1_555
C68 C67 1_555 1_555
C69 C68 1_555 1_555
H54 C69 1_555 1_555
C70 C65 1_555 1_555
C71 C63 1_555 1_555
C72 C71 1_555 1_555
H55 C72 1_555 1_555
H56 C72 1_555 1_555
C73 C72 1_555 1_555
H57 C73 1_555 1_555
H58 C73 1_555 1_555
H59 C73 1_555 1_555
C74 C71 1_555 1_555
H60 C74 1_555 1_555
H61 C74 1_555 1_555
C75 C74 1_555 1_555
H62 C75 1_555 1_555
H63 C75 1_555 1_555
H64 C75 1_555 1_555
C76 C68 1_555 1_555
C77 H65 1_555 1_555
C78 C77 1_555 1_555
H66 C78 1_555 1_555
C79 C78 1_555 1_555
C80 C79 1_555 1_555
H67 C80 1_555 1_555
C81 C80 1_555 1_555
H68 C81 1_555 1_555
N1 C77 1_555 1_555
C82 C79 1_555 1_555
H69 C82 1_555 1_555
H70 C82 1_555 1_555
C83 C82 1_555 1_555
H71 C83 1_555 1_555
H72 C83 1_555 1_555
C84 C83 1_555 1_555
H73 C84 1_555 1_555
H74 C84 1_555 1_555
C85 C84 1_555 1_555
C86 C85 1_555 1_555
H75 C86 1_555 1_555
C87 C86 1_555 1_555
H76 C87 1_555 1_555
N2 C87 1_555 1_555
C88 N2 1_555 1_555
H77 C88 1_555 1_555
C89 C85 1_555 1_555
H78 C89 1_555 1_555
O1 C1 1_555 1_555
C90 H79 1_555 1_555
C91 C90 1_555 1_555
H80 C91 1_555 1_555
C92 C91 1_555 1_555
C93 C92 1_555 1_555
H81 C93 1_555 1_555
C94 C93 1_555 1_555
H82 C94 1_555 1_555
N3 C90 1_555 1_555
C95 C92 1_555 1_555
H83 C95 1_555 1_555
H84 C95 1_555 1_555
C96 C95 1_555 1_555
H85 C96 1_555 1_555
H86 C96 1_555 1_555
C97 C96 1_555 1_555
H87 C97 1_555 1_555
H88 C97 1_555 1_555
C98 C97 1_555 1_555
C99 C98 1_555 1_555
H89 C99 1_555 1_555
C100 C99 1_555 1_555
H90 C100 1_555 1_555
N4 C100 1_555 1_555
C101 N4 1_555 1_555
H91 C101 1_555 1_555
C102 C98 1_555 1_555
H92 C102 1_555 1_555
C103 H93 1_555 1_555
H94 C103 1_555 1_555
H95 C103 1_555 1_555
C104 H96 1_555 1_555
H97 C104 1_555 1_555
H98 C104 1_555 1_555
C105 H99 1_555 1_555
H100 C105 1_555 1_555
H101 C105 1_555 1_555
O2 C1 1_555 1_555
O3 C19 1_555 1_555
O4 C19 1_555 1_555
O5 C20 1_555 1_555
O6 C20 1_555 1_555
O7 C38 1_555 1_555
O8 C38 1_555 1_555
O9 C39 1_555 1_555
O10 C39 1_555 1_555
O11 C57 1_555 1_555
O12 C57 1_555 1_555
O13 C58 1_555 1_555
O14 C58 1_555 1_555
O15 C76 1_555 1_555
O16 C76 1_555 1_555
O17 C103 1_555 1_555
O18 Mn2 1_555 1_555
O19 C104 1_555 1_555
O20 Mn1 1_555 1_555
O21 Mn1 1_555 1_555
O22 C105 1_555 1_555
Mn2 O2 1_555 1_555
Mn3 N3 1_555 1_555
Mn4 N1 1_555 1_555
C106 O23 1_555 1_555
C107 O24 1_555 1_555
C108 O25 1_555 1_555
Mn1_2 N4 1_555 1_555
Mn1A O7 1_555 1_555
Mn1A_2 O3 1_555 1_555
N2_2 Mn2 1_555 1_555
N4_2 Mn1 1_555 1_555
O3A Mn1 1_555 1_555
O4A Mn3 1_555 1_555
O7A Mn1 1_555 1_555
O8A Mn3 1_555 1_555
O15_2 Mn2 1_555 1_555
Mn2_2 O15 1_555 1_555
Mn2_3 N2 1_555 1_555
Mn3A O8 1_555 1_555
Mn3A_2 O4 1_555 1_555
C6 C7 1_555 1_555
C12 C13 1_555 1_555
C13 C14 1_555 1_555
C25 C26 1_555 1_555
C31 C32 1_555 1_555
C32 C33 1_555 1_555
C44 C45 1_555 1_555
C50 C51 1_555 1_555
C51 C52 1_555 1_555
C63 C64 1_555 1_555
C69 C70 1_555 1_555
C70 C71 1_555 1_555
C81 N1 1_555 1_555
C88 C89 1_555 1_555
O1 Mn4 1_555 1_555
C94 N3 1_555 1_555
C101 C102 1_555 1_555
O5 Mn4 1_555 1_555
O6 Mn2 1_555 1_555
O9 Mn4 1_555 1_555
O14 Mn3 1_555 1_555
O17 Mn2 1_555 1_555
O18 Mn4 1_555 1_555
O19 Mn4 1_555 1_555
O21 Mn3 1_555 1_555
O22 Mn3 1_555 1_555

#END
