
#######################################################################
#
#                 Cambridge Crystallographic Data Centre
#                                CCDC 
#
#######################################################################
#
# If this CIF has been generated from an entry in the Cambridge 
# Structural Database, then it will include bibliographic, chemical, 
# crystal, experimental, refinement or atomic coordinate data resulting 
# from the CCDC's data processing and validation procedures.
#
#######################################################################

data_LIGGIT
_symmetry_cell_setting           monoclinic
_symmetry_space_group_name_H-M   'C 2/c'
_symmetry_Int_Tables_number      15
_space_group_name_Hall           '-C 2yn'
loop_
_symmetry_equiv_pos_site_id
_symmetry_equiv_pos_as_xyz
1 x,y,z
2 -x,y,1/2-z
3 1/2+x,1/2+y,z
4 1/2-x,1/2+y,1/2-z
5 -x,-y,-z
6 x,-y,1/2+z
7 1/2-x,1/2-y,-z
8 1/2+x,1/2-y,1/2+z
_cell_length_a                   19.4828(11)
_cell_length_b                   23.3493(12)
_cell_length_c                   29.0539(13)
_cell_angle_alpha                90
_cell_angle_beta                 126.204(3)
_cell_angle_gamma                90
_cell_volume                     10665
loop_
_atom_site_label
_atom_site_type_symbol
_atom_site_fract_x
_atom_site_fract_y
_atom_site_fract_z
Mn1 Mn 0.25803(5) 0.39548(3) 0.26374(4)
Mn2 Mn 0.0000 0.14653(4) -0.2500
Mn3 Mn 0.0000 0.35349(4) 0.2500
O1 O 0.1197(2) 0.39963(16) 0.19846(17)
O2 O -0.1056(3) 0.10642(15) -0.17288(17)
O3 O 0.2484(3) 0.40017(17) 0.33355(19)
O4 O 0.1366(2) 0.35014(16) 0.31536(16)
O5 O 0.2812(3) 0.59366(17) 0.69976(19)
O6 O 0.3633(2) 0.64413(16) 0.68467(17)
O7 O 0.0153(3) 0.34296(17) 0.18259(17)
O8 O -0.0112(3) 0.14973(17) -0.18055(18)
N1 N 0.0000 0.5491(3) -0.2500
N2 N 0.0000 0.0480(3) -0.2500
N3 N 0.2608(3) 0.4937(2) 0.2686(2)
N4 N 0.2500(3) 0.7962(2) 0.2466(2)
N5 N 0.0000 -0.2557(3) -0.2500
N6 N 0.0000 0.2448(3) -0.2500
C1 C 0.0269(6) 0.2570(4) -0.0210(4)
C2 C 0.1899(11) 0.5970(6) 0.4394(7)
H1 H 0.1716 0.6310 0.4164
H2 H 0.1786 0.6010 0.4673
H3 H 0.1596 0.5645 0.4156
C3 C -0.1857(9) 0.2855(6) -0.0699(6)
H4 H -0.2458 0.2908 -0.0899
H5 H -0.1730 0.2801 -0.0969
H6 H -0.1560 0.3186 -0.0470
C4 C 0.2412(6) 0.7125(3) 0.2896(4)
H7 H 0.2318 0.6972 0.3150
C5 C 0.3122(4) 0.6043(2) 0.6734(2)
C6 C 0.2791(7) 0.7056(3) 0.2273(4)
H8 H 0.2972 0.6848 0.2089
C7 C 0.1965(3) 0.3848(2) 0.3442(2)
C8 C 0.2647(4) 0.4821(3) 0.4690(3)
C9 C -0.0494(4) 0.1422(2) -0.1584(2)
C10 C 0.0641(3) 0.3616(2) 0.1709(2)
C11 C 0.2902(4) 0.5353(3) 0.5470(3)
C12 C 0.0000 -0.0721(3) -0.2500
C13 C -0.0322(4) 0.2137(3) -0.0340(3)
C14 C 0.1693(4) 0.3837(3) 0.4184(3)
H9 H 0.1359 0.3515 0.4000
C15 C 0.2575(4) 0.4588(3) 0.4228(3)
H10 H 0.2856 0.4760 0.4093
C16 C 0.2093(4) 0.4105(2) 0.3963(2)
C17 C 0.0096(5) -0.0404(3) -0.2059(3)
H11 H 0.0169 -0.0590 -0.1750
C18 C 0.1781(5) 0.4035(3) 0.4653(3)
H12 H 0.1534 0.3845 0.4802
C19 C 0.2592(4) 0.6768(3) 0.2603(3)
C20 C 0.2256(4) 0.4539(3) 0.4908(3)
C21 C 0.2872(4) 0.5635(3) 0.6249(3)
C22 C 0.2182(5) 0.5850(3) 0.2810(4)
H13 H 0.1894 0.6048 0.2926
C23 C -0.0576(4) 0.1773(3) -0.0791(3)
H14 H -0.0999 0.1504 -0.0902
C24 C -0.0016(4) 0.2912(3) 0.0887(3)
H15 H -0.0341 0.2763 0.0997
C25 C -0.0084(4) 0.2680(3) 0.0423(3)
C26 C 0.3126(4) 0.5727(3) 0.5902(3)
H16 H 0.3455 0.6046 0.5962
C27 C 0.0000 0.4289(3) -0.2500
C28 C 0.0528(4) 0.3363(3) 0.1188(3)
C29 C -0.0616(5) 0.2185(3) 0.0035(3)
C30 C 0.2410(4) 0.4867(3) 0.5391(3)
C31 C 0.2724(6) 0.7634(3) 0.2219(4)
H17 H 0.2849 0.7807 0.1988
C32 C 0.2609(4) 0.6142(3) 0.2652(3)
C33 C 0.0429(6) 0.2903(4) 0.0278(4)
C34 C 0.3133(6) 0.5809(3) 0.2585(4)
H18 H 0.3507 0.5985 0.2529
C35 C 0.0000 0.3653(4) -0.2500
C36 C -0.0212(4) 0.1802(3) -0.1079(3)
C37 C -0.0149(5) 0.4601(3) -0.2961(3)
H19 H -0.0255 0.4414 -0.3280
C38 C 0.2375(5) 0.5153(3) 0.6161(3)
H20 H 0.2195 0.5094 0.6391
C39 C 0.2170(5) 0.5256(3) 0.2801(4)
H21 H 0.1829 0.5071 0.2881
C40 C 0.3091(6) 0.5366(3) 0.5039(4)
C41 C -0.0240(6) 0.2757(3) -0.2230(4)
H22 H -0.0423 0.2557 -0.2044
C42 C 0.0988(6) 0.3605(4) 0.1001(4)
H23 H 0.1322 0.3928 0.1184
C43 C 0.2370(6) 0.7711(3) 0.2813(4)
H24 H 0.2243 0.7941 0.3015
C44 C -0.0424(7) 0.1627(4) 0.0375(4)
H25 H -0.0623 0.1668 0.0610
H26 H -0.0741 0.1317 0.0109
C45 C 0.2154(5) 0.4767(3) 0.5733(3)
H27 H 0.1835 0.4443 0.5678
C46 C 0.0948(7) 0.3375(5) 0.0558(4)
H28 H 0.1263 0.3531 0.0443
C47 C -0.0237(6) 0.3336(3) -0.2203(4)
H29 H -0.0390 0.3520 -0.1992
C48 C 0.0487(5) -0.2261(3) -0.2019(3)
H30 H 0.0831 -0.2460 -0.1677
C49 C 0.0000 -0.1347(3) -0.2500
C50 C 0.0081(5) 0.0185(3) -0.2080(3)
H31 H 0.0131 0.0386 -0.1785
C51 C 0.0647(7) 0.2609(5) -0.0488(5)
H32 H 0.1052 0.2890 -0.0385
C52 C -0.0137(5) 0.5193(3) -0.2939(3)
H33 H -0.0230 0.5395 -0.3247
C53 C 0.0415(6) 0.2224(4) -0.0926(4)
H34 H 0.0668 0.2243 -0.1115
C54 C -0.1574(6) 0.2329(6) -0.0317(5)
H35 H -0.1893 0.2001 -0.0553
H36 H -0.1722 0.2386 -0.0055
C55 C 0.0505(5) -0.1657(3) -0.2005(3)
H37 H 0.0861 -0.1468 -0.1658
C56 C 0.2781(11) 0.5892(5) 0.4675(6)
H38 H 0.3086 0.6223 0.4910
H39 H 0.2896 0.5858 0.4393
C57 C 0.3108(5) 0.5222(3) 0.2599(5)
H40 H 0.3463 0.5014 0.2545
C58 C 0.0502(9) 0.1469(5) 0.0750(6)
H41 H 0.0576 0.1122 0.0952
H42 H 0.0821 0.1772 0.1019
H43 H 0.0700 0.1414 0.0520
C59 C 0.4596(13) 0.4851(8) 0.5635(10)
H44 H 0.5170 0.4935 0.5772
H45 H 0.4393 0.4527 0.5383
H46 H 0.4581 0.4764 0.5952
C60 C 0.4079(7) 0.5324(6) 0.5341(5)
H47 H 0.4158 0.5411 0.5048
H48 H 0.4331 0.5640 0.5609
C37A C 0.0149(5) 0.4601(3) -0.2039(3)
H19A H 0.0255 0.4414 -0.1720
C41A C 0.0240(6) 0.2757(3) -0.2770(4)
H22A H 0.0423 0.2557 -0.2956
C47A C 0.0237(6) 0.3336(3) -0.2797(4)
H29A H 0.0390 0.3520 -0.3008
C52A C 0.0137(5) 0.5193(3) -0.2061(3)
H33A H 0.0230 0.5395 -0.1753
C17A C -0.0096(5) -0.0404(3) -0.2941(3)
H11A H -0.0169 -0.0590 -0.3250
C48A C -0.0487(5) -0.2261(3) -0.2981(3)
H30A H -0.0831 -0.2460 -0.3323
C50A C -0.0081(5) 0.0185(3) -0.2920(3)
H31A H -0.0131 0.0386 -0.3215
C55A C -0.0505(5) -0.1657(3) -0.2995(3)
H37A H -0.0861 -0.1468 -0.3342
Mn1A Mn -0.25803(5) 0.39548(3) -0.76374(4)
O1A O -0.1197(2) 0.39963(16) -0.69846(17)
O2A O 0.1056(3) 0.10642(15) -0.32712(17)
O3A O -0.2484(3) 0.40017(17) -0.83355(19)
O4A O -0.1366(2) 0.35014(16) -0.81536(16)
O5A O -0.2812(3) 0.59366(17) -1.19976(19)
O6A O -0.3633(2) 0.64413(16) -1.18467(17)
O7A O -0.0153(3) 0.34296(17) -0.68259(17)
O8A O 0.0112(3) 0.14973(17) -0.31945(18)
N3A N -0.2608(3) 0.4937(2) -0.7686(2)
N4A N -0.2500(3) 0.7962(2) -0.7466(2)
C1A C -0.0269(6) 0.2570(4) -0.4790(4)
C2A C -0.1899(11) 0.5970(6) -0.9394(7)
H1A H -0.1716 0.6310 -0.9164
H2A H -0.1786 0.6010 -0.9673
H3A H -0.1596 0.5645 -0.9156
C3A C 0.1857(9) 0.2855(6) -0.4301(6)
H4A H 0.2458 0.2908 -0.4101
H5A H 0.1730 0.2801 -0.4031
H6A H 0.1560 0.3186 -0.4530
C4A C -0.2412(6) 0.7125(3) -0.7896(4)
H7A H -0.2318 0.6972 -0.8150
C5A C -0.3122(4) 0.6043(2) -1.1734(2)
C6A C -0.2791(7) 0.7056(3) -0.7273(4)
H8A H -0.2972 0.6848 -0.7089
C7A C -0.1965(3) 0.3848(2) -0.8442(2)
C8A C -0.2647(4) 0.4821(3) -0.9690(3)
C9A C 0.0494(4) 0.1422(2) -0.3416(2)
C10A C -0.0641(3) 0.3616(2) -0.6709(2)
C11A C -0.2902(4) 0.5353(3) -1.0470(3)
C13A C 0.0322(4) 0.2137(3) -0.4660(3)
C14A C -0.1693(4) 0.3837(3) -0.9184(3)
H9A H -0.1359 0.3515 -0.9000
C15A C -0.2575(4) 0.4588(3) -0.9228(3)
H10A H -0.2856 0.4760 -0.9093
C16A C -0.2093(4) 0.4105(2) -0.8963(2)
C18A C -0.1781(5) 0.4035(3) -0.9653(3)
H12A H -0.1534 0.3845 -0.9802
C19A C -0.2592(4) 0.6768(3) -0.7603(3)
C20A C -0.2256(4) 0.4539(3) -0.9908(3)
C21A C -0.2872(4) 0.5635(3) -1.1249(3)
C22A C -0.2182(5) 0.5850(3) -0.7810(4)
H13A H -0.1894 0.6048 -0.7926
C23A C 0.0576(4) 0.1773(3) -0.4209(3)
H14A H 0.0999 0.1504 -0.4098
C24A C 0.0016(4) 0.2912(3) -0.5887(3)
H15A H 0.0341 0.2763 -0.5997
C25A C 0.0084(4) 0.2680(3) -0.5423(3)
C26A C -0.3126(4) 0.5727(3) -1.0902(3)
H16A H -0.3455 0.6046 -1.0962
C28A C -0.0528(4) 0.3363(3) -0.6188(3)
C29A C 0.0616(5) 0.2185(3) -0.5035(3)
C30A C -0.2410(4) 0.4867(3) -1.0391(3)
C31A C -0.2724(6) 0.7634(3) -0.7219(4)
H17A H -0.2849 0.7807 -0.6988
C32A C -0.2609(4) 0.6142(3) -0.7652(3)
C33A C -0.0429(6) 0.2903(4) -0.5278(4)
C34A C -0.3133(6) 0.5809(3) -0.7585(4)
H18A H -0.3507 0.5985 -0.7529
C36A C 0.0212(4) 0.1802(3) -0.3921(3)
C38A C -0.2375(5) 0.5153(3) -1.1161(3)
H20A H -0.2195 0.5094 -1.1391
C39A C -0.2170(5) 0.5256(3) -0.7801(4)
H21A H -0.1829 0.5071 -0.7881
C40A C -0.3091(6) 0.5366(3) -1.0039(4)
C42A C -0.0988(6) 0.3605(4) -0.6001(4)
H23A H -0.1322 0.3928 -0.6184
C43A C -0.2370(6) 0.7711(3) -0.7813(4)
H24A H -0.2243 0.7941 -0.8015
C44A C 0.0424(7) 0.1627(4) -0.5375(4)
H25A H 0.0623 0.1668 -0.5610
H26A H 0.0741 0.1317 -0.5109
C45A C -0.2154(5) 0.4767(3) -1.0733(3)
H27A H -0.1835 0.4443 -1.0678
C46A C -0.0948(7) 0.3375(5) -0.5558(4)
H28A H -0.1263 0.3531 -0.5443
C51A C -0.0647(7) 0.2609(5) -0.4512(5)
H32A H -0.1052 0.2890 -0.4615
C53A C -0.0415(6) 0.2224(4) -0.4074(4)
H34A H -0.0668 0.2243 -0.3885
C54A C 0.1574(6) 0.2329(6) -0.4683(5)
H35A H 0.1893 0.2001 -0.4447
H36A H 0.1722 0.2386 -0.4945
C56A C -0.2781(11) 0.5892(5) -0.9675(6)
H38A H -0.3086 0.6223 -0.9910
H39A H -0.2896 0.5858 -0.9393
C57A C -0.3108(5) 0.5222(3) -0.7599(5)
H40A H -0.3463 0.5014 -0.7545
C58A C -0.0502(9) 0.1469(5) -0.5750(6)
H41A H -0.0576 0.1122 -0.5952
H42A H -0.0821 0.1772 -0.6019
H43A H -0.0700 0.1414 -0.5520
C59A C -0.4596(13) 0.4851(8) -1.0635(10)
H44A H -0.5170 0.4935 -1.0772
H45A H -0.4393 0.4527 -1.0383
H46A H -0.4581 0.4764 -1.0952
C60A C -0.4079(7) 0.5324(6) -1.0341(5)
H47A H -0.4158 0.5411 -1.0048
H48A H -0.4331 0.5640 -1.0609
Mn1B Mn -0.24197(5) 0.89548(3) -0.73626(4)
Mn1C Mn 0.24197(5) 0.89548(3) 0.23626(4)
Mn1D Mn -0.25803(5) 0.60452(3) -1.26374(4)
Mn1E Mn 0.25803(5) 0.60452(3) 0.76374(4)
Mn1F Mn 0.24197(5) 0.10452(3) -0.26374(4)
Mn1G Mn -0.24197(5) 0.10452(3) -0.23626(4)
Mn2B Mn -0.5000 0.64653(4) -1.2500
Mn2B_2 Mn 0.5000 0.64653(4) 0.7500
Mn3_2 Mn 0.0000 0.35349(4) -0.7500
Mn3D Mn 0.0000 -0.35349(4) -0.2500
Mn3D_2 Mn 0.0000 0.64651(4) -0.2500
O2F O -0.3944(3) 0.39358(15) -0.82712(17)
O2G O 0.3944(3) 0.39358(15) 0.32712(17)
O4A_2 O -0.1366(2) 0.35014(16) 0.18464(16)
O5D O -0.2812(3) 0.40634(17) -0.69976(19)
O5E O 0.2812(3) 0.40634(17) 0.19976(19)
O6B O -0.1367(2) 0.14413(16) -0.31533(17)
O6C O 0.1367(2) 0.14413(16) -0.18467(17)
O7A_2 O -0.0153(3) 0.34296(17) 0.31741(17)
N1D N 0.0000 0.4509(3) 0.2500
N4B N -0.2500(3) 0.2962(2) -0.7534(2)
N4C N 0.2500(3) 0.2962(2) 0.2534(2)
N5D N 0.0000 0.2557(3) 0.2500
O9 O 0.5703(6) 0.0099(4) 0.1308(4)
C61 C 0.5134(10) -0.0023(6) 0.0734(7)
O10 O 0.3227(6) 0.2452(4) 0.1283(4)
C62 C 0.2545(9) 0.2575(6) 0.0736(6)
H49? H 0.2438 0.8326 0.2406
loop_
_geom_bond_atom_site_label_1
_geom_bond_atom_site_label_2
_geom_bond_site_symmetry_1
_geom_bond_site_symmetry_2
Mn1 O1 1_555 1_555
Mn2 O8 1_555 1_555
Mn3 O4 1_555 1_555
O1 C10 1_555 1_555
O2 C9 1_555 1_555
O3 Mn1 1_555 1_555
O4 C7 1_555 1_555
O5 C5 1_555 1_555
O6 C5 1_555 1_555
O7 Mn3 1_555 1_555
O8 C9 1_555 1_555
N1 C52 1_555 1_555
N2 Mn2 1_555 1_555
N3 Mn1 1_555 1_555
N4 C31 1_555 1_555
N5 C48 1_555 1_555
N6 Mn2 1_555 1_555
C1 C13 1_555 1_555
C2 H1 1_555 1_555
H2 C2 1_555 1_555
H3 C2 1_555 1_555
C3 H4 1_555 1_555
H5 C3 1_555 1_555
H6 C3 1_555 1_555
C4 H7 1_555 1_555
C5 C21 1_555 1_555
C6 H8 1_555 1_555
C7 O3 1_555 1_555
C8 C15 1_555 1_555
C9 C36 1_555 1_555
C10 O7 1_555 1_555
C11 C26 1_555 1_555
C12 C17 1_555 1_555
C13 C23 1_555 1_555
C14 H9 1_555 1_555
C15 H10 1_555 1_555
C16 C7 1_555 1_555
C17 H11 1_555 1_555
C18 C14 1_555 1_555
H12 C18 1_555 1_555
C19 C4 1_555 1_555
C20 C8 1_555 1_555
C21 C26 1_555 1_555
C22 H13 1_555 1_555
C23 H14 1_555 1_555
C24 H15 1_555 1_555
C25 C24 1_555 1_555
C26 H16 1_555 1_555
C27 C35 1_555 1_555
C28 C10 1_555 1_555
C29 C13 1_555 1_555
C30 C11 1_555 1_555
C31 C6 1_555 1_555
H17 C31 1_555 1_555
C32 C19 1_555 1_555
C33 C1 1_555 1_555
C34 C32 1_555 1_555
H18 C34 1_555 1_555
C35 C47 1_555 1_555
C36 C23 1_555 1_555
C37 C27 1_555 1_555
H19 C37 1_555 1_555
C38 C21 1_555 1_555
H20 C38 1_555 1_555
C39 N3 1_555 1_555
H21 C39 1_555 1_555
C40 C8 1_555 1_555
C41 N6 1_555 1_555
H22 C41 1_555 1_555
C42 C28 1_555 1_555
H23 C42 1_555 1_555
C43 N4 1_555 1_555
H24 C43 1_555 1_555
C44 C29 1_555 1_555
H25 C44 1_555 1_555
H26 C44 1_555 1_555
C45 C30 1_555 1_555
H27 C45 1_555 1_555
C46 C33 1_555 1_555
H28 C46 1_555 1_555
C47 C41 1_555 1_555
H29 C47 1_555 1_555
C48 H30 1_555 1_555
C49 C12 1_555 1_555
C50 N2 1_555 1_555
H31 C50 1_555 1_555
C51 C1 1_555 1_555
H32 C51 1_555 1_555
C52 C37 1_555 1_555
H33 C52 1_555 1_555
C53 C36 1_555 1_555
H34 C53 1_555 1_555
C54 C3 1_555 1_555
H35 C54 1_555 1_555
H36 C54 1_555 1_555
C55 C48 1_555 1_555
H37 C55 1_555 1_555
C56 C2 1_555 1_555
H38 C56 1_555 1_555
H39 C56 1_555 1_555
C57 N3 1_555 1_555
H40 C57 1_555 1_555
C58 C44 1_555 1_555
H41 C58 1_555 1_555
H42 C58 1_555 1_555
H43 C58 1_555 1_555
C59 H44 1_555 1_555
H45 C59 1_555 1_555
H46 C59 1_555 1_555
C60 C40 1_555 1_555
H47 C60 1_555 1_555
H48 C60 1_555 1_555
O9 C61 1_555 1_555
O10 C62 1_555 1_555
C37A C27 1_555 1_555
H19A C37A 1_555 1_555
C41A N6 1_555 1_555
H22A C41A 1_555 1_555
C47A C35 1_555 1_555
H29A C47A 1_555 1_555
C52A N1 1_555 1_555
H33A C52A 1_555 1_555
C17A C12 1_555 1_555
H11A C17A 1_555 1_555
C48A N5 1_555 1_555
H30A C48A 1_555 1_555
C50A N2 1_555 1_555
H31A C50A 1_555 1_555
C55A C49 1_555 1_555
H37A C55A 1_555 1_555
Mn1A O1A 1_555 1_555
O1A C10A 1_555 1_555
O2A C9A 1_555 1_555
O3A Mn1A 1_555 1_555
O4A C7A 1_555 1_555
O5A C5A 1_555 1_555
O6A C5A 1_555 1_555
O7A C10A 1_555 1_555
O8A Mn2 1_555 1_555
N3A Mn1A 1_555 1_555
N4A C31A 1_555 1_555
C1A C13A 1_555 1_555
C2A H1A 1_555 1_555
H2A C2A 1_555 1_555
H3A C2A 1_555 1_555
C3A H4A 1_555 1_555
H5A C3A 1_555 1_555
H6A C3A 1_555 1_555
C4A H7A 1_555 1_555
C5A C21A 1_555 1_555
C6A H8A 1_555 1_555
C7A O3A 1_555 1_555
C8A C15A 1_555 1_555
C9A O8A 1_555 1_555
C10A C28A 1_555 1_555
C11A C26A 1_555 1_555
C13A C23A 1_555 1_555
C14A H9A 1_555 1_555
C15A H10A 1_555 1_555
C16A C7A 1_555 1_555
C18A C14A 1_555 1_555
H12A C18A 1_555 1_555
C19A C4A 1_555 1_555
C20A C8A 1_555 1_555
C21A C26A 1_555 1_555
C22A H13A 1_555 1_555
C23A H14A 1_555 1_555
C24A H15A 1_555 1_555
C25A C24A 1_555 1_555
C26A H16A 1_555 1_555
C28A C24A 1_555 1_555
C29A C13A 1_555 1_555
C30A C11A 1_555 1_555
C31A C6A 1_555 1_555
H17A C31A 1_555 1_555
C32A C19A 1_555 1_555
C33A C1A 1_555 1_555
C34A C32A 1_555 1_555
H18A C34A 1_555 1_555
C36A C9A 1_555 1_555
C38A C21A 1_555 1_555
H20A C38A 1_555 1_555
C39A N3A 1_555 1_555
H21A C39A 1_555 1_555
C40A C8A 1_555 1_555
C42A C28A 1_555 1_555
H23A C42A 1_555 1_555
C43A N4A 1_555 1_555
H24A C43A 1_555 1_555
C44A C29A 1_555 1_555
H25A C44A 1_555 1_555
H26A C44A 1_555 1_555
C45A C30A 1_555 1_555
H27A C45A 1_555 1_555
C46A C33A 1_555 1_555
H28A C46A 1_555 1_555
C51A C1A 1_555 1_555
H32A C51A 1_555 1_555
C53A C36A 1_555 1_555
H34A C53A 1_555 1_555
C54A C3A 1_555 1_555
H35A C54A 1_555 1_555
H36A C54A 1_555 1_555
C56A C2A 1_555 1_555
H38A C56A 1_555 1_555
H39A C56A 1_555 1_555
C57A N3A 1_555 1_555
H40A C57A 1_555 1_555
C58A C44A 1_555 1_555
H41A C58A 1_555 1_555
H42A C58A 1_555 1_555
H43A C58A 1_555 1_555
C59A H44A 1_555 1_555
H45A C59A 1_555 1_555
H46A C59A 1_555 1_555
C60A C40A 1_555 1_555
H47A C60A 1_555 1_555
H48A C60A 1_555 1_555
Mn1B N4A 1_555 1_555
Mn1C N4 1_555 1_555
Mn1D O5A 1_555 1_555
Mn1E O5 1_555 1_555
Mn1F O2A 1_555 1_555
Mn1G O2 1_555 1_555
Mn2B O6A 1_555 1_555
Mn2B_2 O6 1_555 1_555
Mn3_2 O4A 1_555 1_555
Mn3D N5 1_555 1_555
Mn3D_2 N1 1_555 1_555
O2F Mn1A 1_555 1_555
O2G Mn1 1_555 1_555
O4A_2 Mn3 1_555 1_555
O5D Mn1A 1_555 1_555
O5E Mn1 1_555 1_555
O6B Mn2 1_555 1_555
O6C Mn2 1_555 1_555
O7A_2 Mn3 1_555 1_555
N1D Mn3 1_555 1_555
N4B Mn1A 1_555 1_555
N4C Mn1 1_555 1_555
N5D Mn3 1_555 1_555
C4 C43 1_555 1_555
C6 C19 1_555 1_555
C11 C40 1_555 1_555
C14 C16 1_555 1_555
C15 C16 1_555 1_555
C17 C50 1_555 1_555
C18 C20 1_555 1_555
C20 C30 1_555 1_555
C22 C32 1_555 1_555
C22 C39 1_555 1_555
C24 C28 1_555 1_555
C25 C29 1_555 1_555
C25 C33 1_555 1_555
C29 C54 1_555 1_555
C34 C57 1_555 1_555
C38 C45 1_555 1_555
C40 C56 1_555 1_555
C42 C46 1_555 1_555
C49 C55 1_555 1_555
C51 C53 1_555 1_555
C59 C60 1_555 1_555
C37A C52A 1_555 1_555
C41A C47A 1_555 1_555
C17A C50A 1_555 1_555
C48A C55A 1_555 1_555
O7A Mn3_2 1_555 1_555
C4A C43A 1_555 1_555
C6A C19A 1_555 1_555
C11A C40A 1_555 1_555
C14A C16A 1_555 1_555
C15A C16A 1_555 1_555
C18A C20A 1_555 1_555
C20A C30A 1_555 1_555
C22A C32A 1_555 1_555
C22A C39A 1_555 1_555
C23A C36A 1_555 1_555
C25A C29A 1_555 1_555
C25A C33A 1_555 1_555
C29A C54A 1_555 1_555
C34A C57A 1_555 1_555
C38A C45A 1_555 1_555
C40A C56A 1_555 1_555
C42A C46A 1_555 1_555
C51A C53A 1_555 1_555
C59A C60A 1_555 1_555

#END
