
#######################################################################
#
#                 Cambridge Crystallographic Data Centre
#                                CCDC 
#
#######################################################################
#
# If this CIF has been generated from an entry in the Cambridge 
# Structural Database, then it will include bibliographic, chemical, 
# crystal, experimental, refinement or atomic coordinate data resulting 
# from the CCDC's data processing and validation procedures.
#
#######################################################################

data_LIGGOZ
_symmetry_cell_setting           orthorhombic
_symmetry_space_group_name_H-M   'P n n a'
_symmetry_Int_Tables_number      52
_space_group_name_Hall           '-P 2a 2bc'
loop_
_symmetry_equiv_pos_site_id
_symmetry_equiv_pos_as_xyz
1 x,y,z
2 1/2-x,-y,z
3 x,1/2-y,1/2-z
4 1/2-x,1/2+y,1/2-z
5 -x,-y,-z
6 1/2+x,y,-z
7 -x,1/2+y,1/2+z
8 1/2+x,1/2-y,1/2+z
_cell_length_a                   9.1215(9)
_cell_length_b                   26.436(3)
_cell_length_c                   10.2428(10)
_cell_angle_alpha                90
_cell_angle_beta                 90
_cell_angle_gamma                90
_cell_volume                     2469.91
loop_
_atom_site_label
_atom_site_type_symbol
_atom_site_fract_x
_atom_site_fract_y
_atom_site_fract_z
Mn1 Mn 0.2500 0.5000 0.55692(4)
O1 O 0.11066(18) 0.56408(6) 0.56563(17)
O2 O -0.12691(17) 0.54381(5) 0.57972(15)
C1 C -0.0218(2) 0.57395(8) 0.58905(19)
C2 C 0.0626(2) 0.66036(8) 0.6623(2)
H1 H 0.1592 0.6498 0.6519
C3 C 0.1381(3) 0.7500 0.7500
C4 C -0.0541(2) 0.62765(8) 0.6325(2)
C5 C 0.0312(2) 0.70865(8) 0.70753(19)
C6 C -0.1144(2) 0.72419(7) 0.7229(2)
N1 N 0.1481(2) 0.46238(8) 0.74474(18)
C7 C -0.1980(2) 0.64398(8) 0.6432(2)
H2 H -0.2739 0.6223 0.6199
C8 C 0.1979(3) 0.47910(9) 0.8623(2)
C9 C -0.2304(2) 0.69239(8) 0.6885(2)
H3 H -0.3270 0.7033 0.6956
C10 C 0.0578(3) 0.41677(12) 0.9778(3)
H4 H 0.0286 0.4009 1.0545
C11 C 0.0570(3) 0.42370(11) 0.7452(2)
H5 H 0.0230 0.4117 0.6655
C12 C 0.1525(3) 0.45834(10) 0.9823(2)
C13 C 0.2037(4) 0.47993(12) 1.1022(3)
H6 H 0.1730 0.4662 1.1812
C14 C 0.0086(3) 0.39967(11) 0.8595(3)
H7 H -0.0561 0.3725 0.8549
C15 C 0.2366(2) 0.73213(8) 0.8627(2)
H8 H 0.3073 0.7082 0.8284
H9 H 0.2908 0.7610 0.8957
C16 C 0.1564(3) 0.70763(10) 0.9752(3)
H10 H 0.2258 0.6976 1.0408
H11 H 0.1045 0.6784 0.9444
H12 H 0.0881 0.7313 1.0119
O1B O 0.11066(18) 0.93592(6) 0.93437(17)
O2B O -0.12691(17) 0.95619(5) 0.92028(15)
C1B C -0.0218(2) 0.92605(8) 0.91095(19)
C2B C 0.0626(2) 0.83964(8) 0.8377(2)
H1B H 0.1592 0.8502 0.8481
C4B C -0.0541(2) 0.87235(8) 0.8675(2)
C5B C 0.0312(2) 0.79135(8) 0.79247(19)
C6B C -0.1144(2) 0.77581(7) 0.7771(2)
C7B C -0.1980(2) 0.85602(8) 0.8568(2)
H2B H -0.2739 0.8777 0.8801
C9B C -0.2304(2) 0.80761(8) 0.8115(2)
H3B H -0.3270 0.7967 0.8044
C15B C 0.2366(2) 0.76787(8) 0.6373(2)
H8B H 0.3073 0.7918 0.6716
H9B H 0.2908 0.7390 0.6043
C16B C 0.1564(3) 0.79237(10) 0.5248(3)
H10B H 0.2258 0.8024 0.4592
H11B H 0.1045 0.8216 0.5556
H12B H 0.0881 0.7687 0.4881
N1A N 0.3519(2) 0.53762(8) 0.74474(18)
C8A C 0.3021(3) 0.52090(9) 0.8623(2)
C10A C 0.4422(3) 0.58323(12) 0.9778(3)
H4A H 0.4714 0.5991 1.0545
C11A C 0.4430(3) 0.57630(11) 0.7452(2)
H5A H 0.4770 0.5883 0.6655
C12A C 0.3475(3) 0.54166(10) 0.9823(2)
C13A C 0.2963(4) 0.52007(12) 1.1022(3)
H6A H 0.3270 0.5338 1.1812
C14A C 0.4914(3) 0.60033(11) 0.8595(3)
H7A H 0.5561 0.6275 0.8549
Mn1B Mn 0.2500 1.0000 0.94308(4)
Mn1D Mn -0.2500 0.5000 0.44308(4)
Mn1F Mn -0.2500 1.0000 1.05692(4)
O1A O 0.38934(18) 0.43592(6) 0.56563(17)
O2D O 0.12691(17) 0.45619(5) 0.42028(15)
O2E O 0.37309(17) 0.54381(5) 0.42028(15)
loop_
_geom_bond_atom_site_label_1
_geom_bond_atom_site_label_2
_geom_bond_site_symmetry_1
_geom_bond_site_symmetry_2
Mn1 O1 1_555 1_555
O1 C1 1_555 1_555
O2 C1 1_555 1_555
C1 C4 1_555 1_555
C2 H1 1_555 1_555
C3 C5 1_555 1_555
C4 C2 1_555 1_555
C5 C2 1_555 1_555
C6 C5 1_555 1_555
N1 Mn1 1_555 1_555
C7 C4 1_555 1_555
H2 C7 1_555 1_555
C8 N1 1_555 1_555
C9 C6 1_555 1_555
H3 C9 1_555 1_555
C10 H4 1_555 1_555
C11 N1 1_555 1_555
H5 C11 1_555 1_555
C12 C8 1_555 1_555
C13 C12 1_555 1_555
H6 C13 1_555 1_555
C14 C10 1_555 1_555
H7 C14 1_555 1_555
C15 C3 1_555 1_555
H8 C15 1_555 1_555
H9 C15 1_555 1_555
C16 C15 1_555 1_555
H10 C16 1_555 1_555
H11 C16 1_555 1_555
H12 C16 1_555 1_555
O1B C1B 1_555 1_555
O2B C1B 1_555 1_555
C1B C4B 1_555 1_555
C2B H1B 1_555 1_555
C4B C2B 1_555 1_555
C5B C3 1_555 1_555
C6B C6 1_555 1_555
C7B C4B 1_555 1_555
H2B C7B 1_555 1_555
C9B C6B 1_555 1_555
H3B C9B 1_555 1_555
C15B C3 1_555 1_555
H8B C15B 1_555 1_555
H9B C15B 1_555 1_555
C16B C15B 1_555 1_555
H10B C16B 1_555 1_555
H11B C16B 1_555 1_555
H12B C16B 1_555 1_555
N1A Mn1 1_555 1_555
C8A C8 1_555 1_555
C10A H4A 1_555 1_555
C11A N1A 1_555 1_555
H5A C11A 1_555 1_555
C12A C8A 1_555 1_555
C13A C13 1_555 1_555
H6A C13A 1_555 1_555
C14A C10A 1_555 1_555
H7A C14A 1_555 1_555
Mn1B O1B 1_555 1_555
Mn1D O2 1_555 1_555
Mn1F O2B 1_555 1_555
O1A Mn1 1_555 1_555
O2D Mn1 1_555 1_555
O2E Mn1 1_555 1_555
C7 C9 1_555 1_555
C10 C12 1_555 1_555
C11 C14 1_555 1_555
C2B C5B 1_555 1_555
C5B C6B 1_555 1_555
C7B C9B 1_555 1_555
N1A C8A 1_555 1_555
C10A C12A 1_555 1_555
C11A C14A 1_555 1_555
C12A C13A 1_555 1_555

#END
