
#######################################################################
#
#                 Cambridge Crystallographic Data Centre
#                                CCDC 
#
#######################################################################
#
# If this CIF has been generated from an entry in the Cambridge 
# Structural Database, then it will include bibliographic, chemical, 
# crystal, experimental, refinement or atomic coordinate data resulting 
# from the CCDC's data processing and validation procedures.
#
#######################################################################

data_LIGHAM
_symmetry_cell_setting           monoclinic
_symmetry_space_group_name_H-M   'C 2/c'
_symmetry_Int_Tables_number      15
_space_group_name_Hall           '-C 2yn'
loop_
_symmetry_equiv_pos_site_id
_symmetry_equiv_pos_as_xyz
1 x,y,z
2 -x,y,1/2-z
3 1/2+x,1/2+y,z
4 1/2-x,1/2+y,1/2-z
5 -x,-y,-z
6 x,-y,1/2+z
7 1/2-x,1/2-y,-z
8 1/2+x,1/2-y,1/2+z
_cell_length_a                   20.1758(19)
_cell_length_b                   22.276(2)
_cell_length_c                   13.8669(13)
_cell_angle_alpha                90
_cell_angle_beta                 132.4330(10)
_cell_angle_gamma                90
_cell_volume                     4599.84
loop_
_atom_site_label
_atom_site_type_symbol
_atom_site_fract_x
_atom_site_fract_y
_atom_site_fract_z
Mn1 Mn 0.0000 0.03716(3) 0.7500
Mn2 Mn 0.0000 0.0000 1.0000
O1 O -0.08765(17) 0.10826(11) 0.7171(2)
O2 O 0.00830(14) 0.08138(9) 0.9232(2)
O3 O -0.44981(16) 0.46216(10) 0.6814(2)
O4 O -0.37593(17) 0.47787(11) 0.8874(2)
C1 C -0.0555(2) 0.11498(13) 0.8304(3)
C2 C -0.0921(2) 0.16318(13) 0.8588(3)
C3 C -0.1541(2) 0.20370(15) 0.7589(3)
H1 H -0.1711 0.2009 0.6763
C4 C -0.1901(2) 0.24766(15) 0.7818(3)
C5 C -0.0667(2) 0.16753(15) 0.9798(3)
H2 H -0.0244 0.1399 1.0471
C6 C -0.1027(2) 0.21204(15) 1.0033(3)
H3 H -0.0854 0.2150 1.0860
C7 C -0.1640(2) 0.25191(15) 0.9045(3)
C8 C -0.2143(2) 0.30196(15) 0.8994(3)
C9 C -0.2148(3) 0.32454(17) 0.9923(4)
H4 H -0.1782 0.3071 1.0768
C10 C -0.2697(3) 0.37301(16) 0.9594(4)
H5 H -0.2692 0.3894 1.0231
C11 C -0.3861(2) 0.44897(13) 0.8007(3)
C12 C -0.3250(2) 0.39788(14) 0.8363(3)
C13 C -0.3253(2) 0.37505(15) 0.7419(3)
H6 H -0.3633 0.3920 0.6568
C14 C -0.2695(2) 0.32745(15) 0.7744(3)
C15 C -0.2600(3) 0.29532(18) 0.6877(4)
C16 C -0.3488(4) 0.2664(3) 0.5685(5)
H7 H -0.3928 0.2988 0.5124
H8 H -0.3385 0.2448 0.5173
C17 C -0.3892(4) 0.2237(3) 0.5994(8)
H9 H -0.3464 0.1914 0.6551
H10 H -0.4443 0.2066 0.5182
H11 H -0.4034 0.2451 0.6453
C18 C -0.2262(5) 0.3375(3) 0.6409(6)
H12 H -0.2195 0.3141 0.5871
H13 H -0.2722 0.3688 0.5842
C19 C -0.1394(6) 0.3673(3) 0.7478(9)
H14 H -0.1428 0.3865 0.8080
H15 H -0.1270 0.3978 0.7108
H16 H -0.0912 0.3374 0.7952
O5 O -0.13573(17) 0.02035(15) 0.9097(3)
N1 N -0.2931(7) 0.0444(11) 0.6642(10)
C20 C -0.2094(8) 0.0301(8) 0.8004(11)
H17 H -0.2064 -0.0087 0.7735
C21 C -0.3244(15) 0.0546(11) 0.5325(19)
H18 H -0.2725 0.0627 0.5419
H19 H -0.3653 0.0890 0.4907
H20 H -0.3558 0.0188 0.4783
C22 C -0.3788(16) 0.0354(15) 0.634(3)
H21 H -0.4294 0.0473 0.5431
H22 H -0.3784 0.0601 0.6927
H23 H -0.3849 -0.0070 0.6453
O1A O 0.08765(17) 0.10826(11) 0.7829(2)
O2A O -0.00830(14) 0.08138(9) 0.5768(2)
O3A O 0.44981(16) 0.46216(10) 0.8186(2)
O4A O 0.37593(17) 0.47787(11) 0.6126(2)
C1A C 0.0555(2) 0.11498(13) 0.6696(3)
C2A C 0.0921(2) 0.16318(13) 0.6412(3)
C3A C 0.1541(2) 0.20370(15) 0.7411(3)
H1A H 0.1711 0.2009 0.8237
C4A C 0.1901(2) 0.24766(15) 0.7182(3)
C5A C 0.0667(2) 0.16753(15) 0.5202(3)
H2A H 0.0244 0.1399 0.4529
C6A C 0.1027(2) 0.21204(15) 0.4967(3)
H3A H 0.0854 0.2150 0.4140
C7A C 0.1640(2) 0.25191(15) 0.5955(3)
C8A C 0.2143(2) 0.30196(15) 0.6006(3)
C9A C 0.2148(3) 0.32454(17) 0.5077(4)
H4A H 0.1782 0.3071 0.4232
C10A C 0.2697(3) 0.37301(16) 0.5406(4)
H5A H 0.2692 0.3894 0.4769
C11A C 0.3861(2) 0.44897(13) 0.6993(3)
C12A C 0.3250(2) 0.39788(14) 0.6637(3)
C13A C 0.3253(2) 0.37505(15) 0.7581(3)
H6A H 0.3633 0.3920 0.8432
C14A C 0.2695(2) 0.32745(15) 0.7256(3)
C15A C 0.2600(3) 0.29532(18) 0.8123(4)
C16A C 0.3488(4) 0.2664(3) 0.9315(5)
H7A H 0.3928 0.2988 0.9876
H8A H 0.3385 0.2448 0.9827
C17A C 0.3892(4) 0.2237(3) 0.9006(8)
H9A H 0.3464 0.1914 0.8449
H10A H 0.4443 0.2066 0.9818
H11A H 0.4034 0.2451 0.8547
C18A C 0.2262(5) 0.3375(3) 0.8591(6)
H12A H 0.2195 0.3141 0.9129
H13A H 0.2722 0.3688 0.9158
C19A C 0.1394(6) 0.3673(3) 0.7522(9)
H14A H 0.1428 0.3865 0.6920
H15A H 0.1270 0.3978 0.7892
H16A H 0.0912 0.3374 0.7048
O5D O 0.13573(17) -0.02035(15) 1.0903(3)
N1D N 0.2931(7) -0.0444(11) 1.3358(10)
C20D C 0.2094(8) -0.0301(8) 1.1996(11)
H17D H 0.2064 0.0087 1.2265
C21D C 0.3244(15) -0.0546(11) 1.4675(19)
H18D H 0.2725 -0.0627 1.4581
H19D H 0.3653 -0.0890 1.5093
H20D H 0.3558 -0.0188 1.5217
C22D C 0.3788(16) -0.0354(15) 1.366(3)
H21D H 0.4294 -0.0473 1.4569
H22D H 0.3784 -0.0601 1.3073
H23D H 0.3849 0.0070 1.3547
Mn1B Mn -0.5000 0.53716(3) 0.7500
Mn1B_2 Mn 0.5000 0.53716(3) 0.7500
Mn2A Mn 0.0000 0.0000 0.5000
Mn2B Mn 0.5000 0.5000 1.0000
Mn2C Mn -0.5000 0.5000 0.5000
O2D O -0.00830(14) -0.08138(9) 1.0768(2)
O3B O 0.05019(16) -0.03784(10) 0.6814(2)
O3C O -0.05019(16) -0.03784(10) 0.8186(2)
O3G O 0.05019(16) 0.03784(10) 1.1814(2)
O4B O 0.12407(17) -0.02213(11) 0.8874(2)
O4C O -0.12407(17) -0.02213(11) 0.6126(2)
O6 O 0.5000 -0.084(3) 1.2500
loop_
_geom_bond_atom_site_label_1
_geom_bond_atom_site_label_2
_geom_bond_site_symmetry_1
_geom_bond_site_symmetry_2
Mn1 O1 1_555 1_555
Mn2 O2 1_555 1_555
O1 C1 1_555 1_555
O2 C1 1_555 1_555
O3 C11 1_555 1_555
O4 C11 1_555 1_555
C1 C2 1_555 1_555
C2 C3 1_555 1_555
C3 H1 1_555 1_555
C4 C3 1_555 1_555
C5 C2 1_555 1_555
H2 C5 1_555 1_555
C6 C5 1_555 1_555
H3 C6 1_555 1_555
C7 C4 1_555 1_555
C8 C7 1_555 1_555
C9 C8 1_555 1_555
H4 C9 1_555 1_555
C10 C9 1_555 1_555
H5 C10 1_555 1_555
C11 C12 1_555 1_555
C12 C10 1_555 1_555
C13 C12 1_555 1_555
H6 C13 1_555 1_555
C14 C8 1_555 1_555
C15 C4 1_555 1_555
C16 C15 1_555 1_555
H7 C16 1_555 1_555
H8 C16 1_555 1_555
C17 C16 1_555 1_555
H9 C17 1_555 1_555
H10 C17 1_555 1_555
H11 C17 1_555 1_555
C18 C15 1_555 1_555
H12 C18 1_555 1_555
H13 C18 1_555 1_555
C19 C18 1_555 1_555
H14 C19 1_555 1_555
H15 C19 1_555 1_555
H16 C19 1_555 1_555
O5 Mn2 1_555 1_555
N1 C20 1_555 1_555
C20 O5 1_555 1_555
H17 C20 1_555 1_555
C21 N1 1_555 1_555
H18 C21 1_555 1_555
H19 C21 1_555 1_555
H20 C21 1_555 1_555
C22 N1 1_555 1_555
H21 C22 1_555 1_555
H22 C22 1_555 1_555
H23 C22 1_555 1_555
O1A Mn1 1_555 1_555
O2A C1A 1_555 1_555
O3A C11A 1_555 1_555
O4A C11A 1_555 1_555
C1A O1A 1_555 1_555
C2A C1A 1_555 1_555
C3A C2A 1_555 1_555
H1A C3A 1_555 1_555
C4A C3A 1_555 1_555
C5A C2A 1_555 1_555
H2A C5A 1_555 1_555
C6A C5A 1_555 1_555
H3A C6A 1_555 1_555
C7A C4A 1_555 1_555
C8A C7A 1_555 1_555
C9A C8A 1_555 1_555
H4A C9A 1_555 1_555
C10A C9A 1_555 1_555
H5A C10A 1_555 1_555
C11A C12A 1_555 1_555
C12A C10A 1_555 1_555
C13A C12A 1_555 1_555
H6A C13A 1_555 1_555
C14A C8A 1_555 1_555
C15A C4A 1_555 1_555
C16A C15A 1_555 1_555
H7A C16A 1_555 1_555
H8A C16A 1_555 1_555
C17A C16A 1_555 1_555
H9A C17A 1_555 1_555
H10A C17A 1_555 1_555
H11A C17A 1_555 1_555
C18A C15A 1_555 1_555
H12A C18A 1_555 1_555
H13A C18A 1_555 1_555
C19A C18A 1_555 1_555
H14A C19A 1_555 1_555
H15A C19A 1_555 1_555
H16A C19A 1_555 1_555
O5D Mn2 1_555 1_555
N1D C20D 1_555 1_555
C20D O5D 1_555 1_555
H17D C20D 1_555 1_555
C21D N1D 1_555 1_555
H18D C21D 1_555 1_555
H19D C21D 1_555 1_555
H20D C21D 1_555 1_555
C22D N1D 1_555 1_555
H21D C22D 1_555 1_555
H22D C22D 1_555 1_555
H23D C22D 1_555 1_555
Mn1B O3 1_555 1_555
Mn1B_2 O3A 1_555 1_555
Mn2A O2A 1_555 1_555
Mn2B O3A 1_555 1_555
Mn2C O3 1_555 1_555
O2D Mn2 1_555 1_555
O3B Mn1 1_555 1_555
O3C Mn1 1_555 1_555
O3G Mn2 1_555 1_555
O4B Mn1 1_555 1_555
O4C Mn1 1_555 1_555
Mn2 O3C 1_555 1_555
O4 Mn1B 1_555 1_555
C6 C7 1_555 1_555
C13 C14 1_555 1_555
C14 C15 1_555 1_555
O4A Mn1B_2 1_555 1_555
C6A C7A 1_555 1_555
C13A C14A 1_555 1_555
C14A C15A 1_555 1_555
Mn2A O3B 1_555 1_555

#END
