
#######################################################################
#
#                 Cambridge Crystallographic Data Centre
#                                CCDC 
#
#######################################################################
#
# If this CIF has been generated from an entry in the Cambridge 
# Structural Database, then it will include bibliographic, chemical, 
# crystal, experimental, refinement or atomic coordinate data resulting 
# from the CCDC's data processing and validation procedures.
#
#######################################################################

data_LIGHUF
_symmetry_cell_setting           orthorhombic
_symmetry_space_group_name_H-M   'I b c a'
_symmetry_Int_Tables_number      73
_space_group_name_Hall           '-I 2b 2c'
loop_
_symmetry_equiv_pos_site_id
_symmetry_equiv_pos_as_xyz
1 x,y,z
2 1/2+x,1/2+y,1/2+z
3 -x,1/2-y,z
4 x,-y,1/2-z
5 -x,1/2+y,1/2-z
6 1/2-x,-y,1/2+z
7 1/2+x,1/2-y,-z
8 1/2-x,y,-z
9 -x,-y,-z
10 1/2-x,1/2-y,1/2-z
11 x,1/2+y,-z
12 -x,y,1/2+z
13 x,1/2-y,1/2+z
14 1/2+x,y,1/2-z
15 1/2-x,1/2+y,z
16 1/2+x,-y,z
_cell_length_a                   17.233(3)
_cell_length_b                   19.417(4)
_cell_length_c                   21.932(4)
_cell_angle_alpha                90
_cell_angle_beta                 90
_cell_angle_gamma                90
_cell_volume                     7338.74
loop_
_atom_site_label
_atom_site_type_symbol
_atom_site_fract_x
_atom_site_fract_y
_atom_site_fract_z
Si1 Si -0.07956(5) 0.20819(4) -0.09956(4)
P1 P -0.12179(5) 0.22638(5) -0.00571(4)
N1 N 0.02266(19) 0.1766(2) 0.12687(15)
Li1 Li 0.0000 0.2500 0.0553(3)
Li2 Li -0.2500 0.1679(5) 0.0000
O1 O 0.0000 0.2500 -0.11976(13)
O2 O -0.2500 0.0694(2) 0.0000
C1 C -0.0589(2) 0.11250(18) -0.10715(15)
H1 H -0.1080 0.0879 -0.0964
C2 C -0.0377(2) 0.0903(2) -0.17201(18)
H2 H -0.0336 0.0400 -0.1737
H3 H 0.0122 0.1108 -0.1835
H4 H -0.0780 0.1058 -0.2004
C3 C 0.0030(2) 0.0885(2) -0.0613(2)
H5 H 0.0532 0.1089 -0.0721
H6 H 0.0070 0.0382 -0.0626
H7 H -0.0118 0.1032 -0.0202
C4 C -0.15403(19) 0.23121(19) -0.16048(15)
H8 H -0.1299 0.2209 -0.2009
C5 C -0.1757(3) 0.3076(2) -0.1606(2)
H9 H -0.2037 0.3188 -0.1229
H10 H -0.2090 0.3175 -0.1957
H11 H -0.1285 0.3355 -0.1630
C6 C -0.2281(2) 0.1882(2) -0.15597(19)
H12 H -0.2615 0.1980 -0.1911
H13 H -0.2557 0.1999 -0.1183
H14 H -0.2147 0.1392 -0.1556
C7 C -0.3080(3) 0.0268(2) -0.0280(3)
H15 H -0.3179 0.0418 -0.0704
H16 H -0.3573 0.0290 -0.0048
C8 C -0.2751(5) -0.0453(3) -0.0268(4)
H17 H -0.3169 -0.0800 -0.0227
H18 H -0.2451 -0.0551 -0.0643
C9 C 0.0962(3) 0.1422(5) 0.1221(4)
H19 H 0.0959 0.1118 0.0864
H20 H 0.1054 0.1149 0.1589
H21 H 0.1376 0.1765 0.1176
C10 C 0.0229(6) 0.2214(3) 0.1803(3)
H22 H 0.0079 0.1931 0.2160
H23 H 0.0770 0.2367 0.1871
C11 C -0.0382(3) 0.1253(3) 0.1320(2)
H24 H -0.0284 0.0962 0.1676
H25 H -0.0389 0.0968 0.0951
H26 H -0.0884 0.1484 0.1366
Si1B Si 0.07956(5) 0.29181(4) -0.09956(4)
P1B P 0.12179(5) 0.27362(5) -0.00571(4)
P1G P -0.37821(5) 0.22638(5) 0.00571(4)
N1B N -0.02266(19) 0.3234(2) 0.12687(15)
Li2B Li 0.2500 0.3321(5) 0.0000
C1B C 0.0589(2) 0.38750(18) -0.10715(15)
H1B H 0.1080 0.4121 -0.0964
C2B C 0.0377(2) 0.4097(2) -0.17201(18)
H2B H 0.0336 0.4600 -0.1737
H3B H -0.0122 0.3892 -0.1835
H4B H 0.0780 0.3942 -0.2004
C3B C -0.0030(2) 0.4115(2) -0.0613(2)
H5B H -0.0532 0.3911 -0.0721
H6B H -0.0070 0.4618 -0.0626
H7B H 0.0118 0.3968 -0.0202
C4B C 0.15403(19) 0.26879(19) -0.16048(15)
H8B H 0.1299 0.2791 -0.2009
C5B C 0.1757(3) 0.1924(2) -0.1606(2)
H9B H 0.2037 0.1812 -0.1229
H10B H 0.2090 0.1825 -0.1957
H11B H 0.1285 0.1645 -0.1630
C6B C 0.2281(2) 0.3118(2) -0.15597(19)
H12B H 0.2615 0.3020 -0.1911
H13B H 0.2557 0.3001 -0.1183
H14B H 0.2147 0.3608 -0.1556
C7G C -0.1920(3) 0.0268(2) 0.0280(3)
H15G H -0.1821 0.0418 0.0704
H16G H -0.1427 0.0290 0.0048
C8G C -0.2249(5) -0.0453(3) 0.0268(4)
H17G H -0.1831 -0.0800 0.0227
H18G H -0.2549 -0.0551 0.0643
C9B C -0.0962(3) 0.3578(5) 0.1221(4)
H19B H -0.0959 0.3882 0.0864
H20B H -0.1054 0.3851 0.1589
H21B H -0.1376 0.3235 0.1176
C10B C -0.0229(6) 0.2786(3) 0.1803(3)
H22B H -0.0079 0.3069 0.2160
H23B H -0.0770 0.2633 0.1871
C11B C 0.0382(3) 0.3747(3) 0.1320(2)
H24B H 0.0284 0.4038 0.1676
H25B H 0.0389 0.4032 0.0951
H26B H 0.0884 0.3516 0.1366
C12 C -0.1875(4) 0.0003(4) 0.1951(3)
O3 O -0.1451(9) 0.0000 0.2500
C13 C -0.2690(5) -0.0131(4) 0.2136(4)
C12C C -0.1875(4) -0.0003(4) 0.3049(3)
C13C C -0.2690(5) 0.0131(4) 0.2864(4)
loop_
_geom_bond_atom_site_label_1
_geom_bond_atom_site_label_2
_geom_bond_site_symmetry_1
_geom_bond_site_symmetry_2
Si1 P1 1_555 1_555
P1 Li1 1_555 1_555
N1 Li1 1_555 1_555
Li1 P1B 1_555 1_555
Li2 P1 1_555 1_555
O1 Si1 1_555 1_555
O2 Li2 1_555 1_555
C1 Si1 1_555 1_555
H1 C1 1_555 1_555
C2 C1 1_555 1_555
H2 C2 1_555 1_555
H3 C2 1_555 1_555
H4 C2 1_555 1_555
C3 C1 1_555 1_555
H5 C3 1_555 1_555
H6 C3 1_555 1_555
H7 C3 1_555 1_555
C4 Si1 1_555 1_555
H8 C4 1_555 1_555
C5 C4 1_555 1_555
H9 C5 1_555 1_555
H10 C5 1_555 1_555
H11 C5 1_555 1_555
C6 C4 1_555 1_555
H12 C6 1_555 1_555
H13 C6 1_555 1_555
H14 C6 1_555 1_555
C7 O2 1_555 1_555
H15 C7 1_555 1_555
H16 C7 1_555 1_555
C8 C7 1_555 1_555
H17 C8 1_555 1_555
H18 C8 1_555 1_555
C9 N1 1_555 1_555
H19 C9 1_555 1_555
H20 C9 1_555 1_555
H21 C9 1_555 1_555
C10 N1 1_555 1_555
H22 C10 1_555 1_555
H23 C10 1_555 1_555
C11 N1 1_555 1_555
H24 C11 1_555 1_555
H25 C11 1_555 1_555
H26 C11 1_555 1_555
C12 O3 1_555 1_555
O3 C12C 1_555 1_555
C13 C12 1_555 1_555
Si1B O1 1_555 1_555
P1B Si1B 1_555 1_555
P1G Li2 1_555 1_555
N1B Li1 1_555 1_555
Li2B P1B 1_555 1_555
C1B Si1B 1_555 1_555
H1B C1B 1_555 1_555
C2B C1B 1_555 1_555
H2B C2B 1_555 1_555
H3B C2B 1_555 1_555
H4B C2B 1_555 1_555
C3B C1B 1_555 1_555
H5B C3B 1_555 1_555
H6B C3B 1_555 1_555
H7B C3B 1_555 1_555
C4B Si1B 1_555 1_555
H8B C4B 1_555 1_555
C5B C4B 1_555 1_555
H9B C5B 1_555 1_555
H10B C5B 1_555 1_555
H11B C5B 1_555 1_555
C6B C4B 1_555 1_555
H12B C6B 1_555 1_555
H13B C6B 1_555 1_555
H14B C6B 1_555 1_555
C7G O2 1_555 1_555
H15G C7G 1_555 1_555
H16G C7G 1_555 1_555
C8G C8 1_555 1_555
H17G C8G 1_555 1_555
H18G C8G 1_555 1_555
C9B N1B 1_555 1_555
H19B C9B 1_555 1_555
H20B C9B 1_555 1_555
H21B C9B 1_555 1_555
C10B C10 1_555 1_555
H22B C10B 1_555 1_555
H23B C10B 1_555 1_555
C11B N1B 1_555 1_555
H24B C11B 1_555 1_555
H25B C11B 1_555 1_555
H26B C11B 1_555 1_555
C12C C13C 1_555 1_555
C13C C13 1_555 1_555
N1B C10B 1_555 1_555
C7G C8G 1_555 1_555

#END
