
#######################################################################
#
#                 Cambridge Crystallographic Data Centre
#                                CCDC 
#
#######################################################################
#
# If this CIF has been generated from an entry in the Cambridge 
# Structural Database, then it will include bibliographic, chemical, 
# crystal, experimental, refinement or atomic coordinate data resulting 
# from the CCDC's data processing and validation procedures.
#
#######################################################################

data_LIGLOE
_symmetry_cell_setting           monoclinic
_symmetry_space_group_name_H-M   'P 21/c'
_symmetry_Int_Tables_number      14
_space_group_name_Hall           '-P 2ybc'
loop_
_symmetry_equiv_pos_site_id
_symmetry_equiv_pos_as_xyz
1 x,y,z
2 -x,1/2+y,1/2-z
3 -x,-y,-z
4 x,1/2-y,1/2+z
_cell_length_a                   16.261(5)
_cell_length_b                   17.726(5)
_cell_length_c                   6.0562(17)
_cell_angle_alpha                90
_cell_angle_beta                 100.721(8)
_cell_angle_gamma                90
_cell_volume                     1715.18
loop_
_atom_site_label
_atom_site_type_symbol
_atom_site_fract_x
_atom_site_fract_y
_atom_site_fract_z
S1 S 0.09407(10) 0.12364(10) 0.5972(3)
Na1 Na 0.89909(15) 0.07253(15) 0.2697(4)
Na2 Na 1.00982(14) 0.19895(14) 0.0421(4)
O1 O 0.9330(3) 0.0822(3) -0.0833(7)
H1 H 0.902(3) 0.109(3) -0.172(9)
H2 H 0.958(4) 0.051(3) -0.144(10)
O2 O 0.9092(3) 0.2305(3) 0.2609(7)
H3 H 0.877(3) 0.210(3) 0.330(10)
H4 H 0.878(3) 0.265(3) 0.206(10)
O3 O 0.8377(2) 0.1449(2) 0.5455(7)
O4 O 0.0716(2) 0.1904(2) 0.7122(7)
O5 O 0.0849(3) 0.0552(2) 0.7235(7)
O6 O 0.0501(2) 0.1182(3) 0.3639(6)
N1 N 0.7477(3) 0.0715(3) 0.1866(9)
N2 N 0.4894(3) 0.1337(3) 0.4440(9)
N3 N 0.4595(3) 0.1597(3) 0.6074(9)
C1 C 0.7552(4) 0.1446(4) 0.5229(10)
C2 C 0.7126(4) 0.1820(4) 0.6682(11)
H5 H 0.7438 0.2090 0.7891
C3 C 0.6256(4) 0.1814(4) 0.6429(12)
H6 H 0.5998 0.2074 0.7468
C4 C 0.5771(4) 0.1431(4) 0.4674(11)
C5 C 0.6170(4) 0.1069(4) 0.3050(10)
C6 C 0.7054(4) 0.1068(3) 0.3316(10)
C7 C 0.5718(4) 0.0722(4) 0.1102(11)
H7 H 0.5130 0.0730 0.0797
C8 C 0.6155(4) 0.0373(4) -0.0335(12)
H8 H 0.5865 0.0125 -0.1620
C9 C 0.7035(4) 0.0382(4) 0.0100(11)
H9 H 0.7319 0.0140 -0.0917
C10 C 0.3713(4) 0.1480(4) 0.5890(11)
C11 C 0.3387(4) 0.1729(4) 0.7682(11)
H10 H 0.3744 0.1954 0.8905
C12 C 0.2546(4) 0.1658(4) 0.7737(11)
H11 H 0.2333 0.1821 0.8996
C13 C 0.2016(4) 0.1340(4) 0.5888(10)
C14 C 0.2345(4) 0.1094(4) 0.4082(11)
H12 H 0.1993 0.0867 0.2856
C15 C 0.3189(4) 0.1177(5) 0.4049(12)
H13 H 0.3404 0.1028 0.2779
Na1_2 Na -0.10091(15) 0.07253(15) 0.2697(4)
Na1B Na 0.10091(15) -0.07253(15) 0.7303(4)
Na2_2 Na 0.00982(14) 0.19895(14) 0.0421(4)
Na2_3 Na 0.00982(14) 0.19895(14) 1.0421(4)
Na2C Na 0.00982(14) 0.30105(14) 0.5421(4)
Na2C_2 Na 1.00982(14) 0.30105(14) 0.5421(4)
O2C O 0.9092(3) 0.2695(3) -0.2391(7)
O4_2 O 1.0716(2) 0.1904(2) -0.2878(7)
O4C O 1.0716(2) 0.3096(2) 0.2122(7)
O5B O 0.9151(3) -0.0552(2) 0.2765(7)
O6_2 O 1.0501(2) 0.1182(3) 0.3639(6)
loop_
_geom_bond_atom_site_label_1
_geom_bond_atom_site_label_2
_geom_bond_site_symmetry_1
_geom_bond_site_symmetry_2
S1 O4 1_555 1_555
Na1 O1 1_555 1_555
Na2 O1 1_555 1_555
O1 H1 1_555 1_555
H2 O1 1_555 1_555
O2 Na1 1_555 1_555
H3 O2 1_555 1_555
H4 O2 1_555 1_555
O3 Na1 1_555 1_555
O4 Na2_3 1_555 1_555
O5 S1 1_555 1_555
O6 S1 1_555 1_555
N1 Na1 1_555 1_555
N2 N3 1_555 1_555
N3 C10 1_555 1_555
C1 O3 1_555 1_555
C2 C1 1_555 1_555
H5 C2 1_555 1_555
C3 C2 1_555 1_555
H6 C3 1_555 1_555
C4 N2 1_555 1_555
C5 C4 1_555 1_555
C6 N1 1_555 1_555
C7 C5 1_555 1_555
H7 C7 1_555 1_555
C8 C7 1_555 1_555
H8 C8 1_555 1_555
C9 N1 1_555 1_555
H9 C9 1_555 1_555
C10 C11 1_555 1_555
C11 H10 1_555 1_555
C12 C11 1_555 1_555
H11 C12 1_555 1_555
C13 S1 1_555 1_555
C14 C13 1_555 1_555
H12 C14 1_555 1_555
C15 C10 1_555 1_555
H13 C15 1_555 1_555
Na1_2 O6 1_555 1_555
Na1B O5 1_555 1_555
Na2_2 O6 1_555 1_555
Na2C O4 1_555 1_555
Na2C_2 O2 1_555 1_555
O2C Na2 1_555 1_555
O4_2 Na2 1_555 1_555
O4C Na2 1_555 1_555
O5B Na1 1_555 1_555
O6_2 Na1 1_555 1_555
Na2 O2 1_555 1_555
Na2 O6_2 1_555 1_555
C1 C6 1_555 1_555
C3 C4 1_555 1_555
C5 C6 1_555 1_555
C8 C9 1_555 1_555
C12 C13 1_555 1_555
C14 C15 1_555 1_555
Na2C_2 O4C 1_555 1_555

#END
