
#######################################################################
#
#                 Cambridge Crystallographic Data Centre
#                                CCDC 
#
#######################################################################
#
# If this CIF has been generated from an entry in the Cambridge 
# Structural Database, then it will include bibliographic, chemical, 
# crystal, experimental, refinement or atomic coordinate data resulting 
# from the CCDC's data processing and validation procedures.
#
#######################################################################

data_LIGPIC
_symmetry_cell_setting           triclinic
_symmetry_space_group_name_H-M   'P -1'
_symmetry_Int_Tables_number      2
_space_group_name_Hall           '-P 1'
loop_
_symmetry_equiv_pos_site_id
_symmetry_equiv_pos_as_xyz
1 x,y,z
2 -x,-y,-z
_cell_length_a                   7.703(2)
_cell_length_b                   13.141(4)
_cell_length_c                   20.842(6)
_cell_angle_alpha                106.783(3)
_cell_angle_beta                 91.475(3)
_cell_angle_gamma                94.815(3)
_cell_volume                     2009.98
loop_
_atom_site_label
_atom_site_type_symbol
_atom_site_fract_x
_atom_site_fract_y
_atom_site_fract_z
Gd1 Gd 0.71480(3) 0.136927(18) 0.146063(11)
S1 S 0.36445(15) 0.28936(10) 0.11511(6)
S2 S 0.79570(19) 0.17961(10) -0.02225(7)
O1 O 0.7648(6) 0.1866(3) 0.04701(19)
O2 O 0.6363(6) 0.1541(3) -0.0638(2)
O3 O 0.9280(6) 0.1100(3) -0.0490(2)
O4 O 0.2799(5) 0.1979(3) 0.06476(18)
O5 O 0.2483(5) 0.3391(3) 0.16614(19)
O6 O 0.5236(5) 0.2677(3) 0.14706(19)
O7 O 0.4337(4) 0.0563(3) 0.15882(17)
H1 H 0.3890 0.0659 0.1973
H2 H 0.4223 -0.0120 0.1421
O8 O 0.9019(4) 0.2977(3) 0.18622(18)
H3 H 0.8931 0.3649 0.2032
H4 H 1.0048 0.3033 0.1718
O9 O 0.6697(6) -0.0322(3) 0.0609(2)
H5 H 0.5778 -0.0768 0.0524
H6 H 0.7410 -0.0755 0.0398
O10 O 1.0071(5) 0.0924(3) 0.1205(2)
H7 H 1.0307 0.0280 0.1019
H8 H 1.0877 0.1238 0.1032
N1 N 0.7818(5) 0.0145(3) 0.2183(2)
N2 N 0.6597(5) 0.2091(3) 0.2707(2)
C1 C 0.9221(6) 0.3891(4) 0.0348(3)
H9 H 0.9074 0.3766 0.0761
C2 C 0.8784(6) 0.3093(4) -0.0233(2)
C3 C 0.8993(7) 0.3258(4) -0.0864(3)
H10 H 0.8700 0.2701 -0.1253
C4 C 0.9627(7) 0.4238(4) -0.0904(3)
H11 H 0.9748 0.4347 -0.1323
C5 C 0.9898(6) 0.4911(4) 0.0318(2)
C6 C 0.4566(6) 0.4511(4) -0.0208(3)
C7 C 0.4008(6) 0.3709(4) 0.0098(3)
H12 H 0.3415 0.3069 -0.0158
C8 C 0.4346(6) 0.3883(4) 0.0767(3)
C9 C 0.5223(7) 0.4844(4) 0.1175(3)
H13 H 0.5444 0.4940 0.1630
C10 C 0.4255(7) 0.4368(4) -0.0897(3)
H14 H 0.3687 0.3730 -0.1166
C11 C 0.8083(7) -0.1270(5) 0.2947(3)
H15 H 0.8166 -0.1752 0.3194
C12 C 0.8582(7) -0.1516(5) 0.2312(3)
H16 H 0.9027 -0.2166 0.2122
C13 C 0.8436(7) -0.0796(4) 0.1937(3)
H17 H 0.8786 -0.0984 0.1497
C14 C 0.7335(6) 0.0413(4) 0.2833(3)
C15 C 0.7431(7) -0.0279(4) 0.3236(3)
C16 C 0.6876(7) 0.0043(5) 0.3905(3)
H18 H 0.6926 -0.0419 0.4168
C17 C 0.6282(7) 0.1002(5) 0.4164(3)
H19 H 0.5933 0.1194 0.4603
C18 C 0.6179(6) 0.1731(4) 0.3774(3)
C19 C 0.6683(6) 0.1430(4) 0.3108(2)
C20 C 0.6033(7) 0.3042(4) 0.2974(3)
H20 H 0.5989 0.3499 0.2708
C21 C 0.5510(7) 0.3394(5) 0.3624(3)
H21 H 0.5113 0.4066 0.3784
C22 C 0.5579(7) 0.2750(5) 0.4026(3)
H22 H 0.5234 0.2977 0.4465
S1A S 0.63555(15) 0.71064(10) -0.11511(6)
O4A O 0.7201(5) 0.8021(3) -0.06476(18)
O5A O 0.7517(5) 0.6609(3) -0.16614(19)
O6A O 0.4764(5) 0.7323(3) -0.14706(19)
C6A C 0.5434(6) 0.5489(4) 0.0208(3)
C7A C 0.5992(6) 0.6291(4) -0.0098(3)
H12A H 0.6585 0.6931 0.0158
C8A C 0.5654(6) 0.6117(4) -0.0767(3)
C9A C 0.4777(7) 0.5156(4) -0.1175(3)
H13A H 0.4556 0.5060 -0.1630
C10A C 0.5745(7) 0.5632(4) 0.0897(3)
H14A H 0.6313 0.6270 0.1166
S2A S 1.20430(19) 0.82039(10) 0.02225(7)
O1A O 1.2352(6) 0.8134(3) -0.04701(19)
O2A O 1.3637(6) 0.8459(3) 0.0638(2)
O3A O 1.0720(6) 0.8900(3) 0.0490(2)
C1A C 1.0779(6) 0.6109(4) -0.0348(3)
H9A H 1.0926 0.6234 -0.0761
C2A C 1.1216(6) 0.6907(4) 0.0233(2)
C3A C 1.1007(7) 0.6742(4) 0.0864(3)
H10A H 1.1300 0.7299 0.1253
C4A C 1.0373(7) 0.5762(4) 0.0904(3)
H11A H 1.0252 0.5653 0.1323
C5A C 1.0102(6) 0.5089(4) -0.0318(2)
Gd1A Gd 0.28520(3) 0.863073(18) -0.146063(11)
O7A O 0.5663(4) 0.9437(3) -0.15882(17)
H1A H 0.6110 0.9341 -0.1973
H2A H 0.5777 1.0120 -0.1421
O8A O 0.0981(4) 0.7023(3) -0.18622(18)
H3A H 0.1069 0.6351 -0.2032
H4A H -0.0048 0.6967 -0.1718
O9A O 0.3303(6) 1.0322(3) -0.0609(2)
H5A H 0.4222 1.0768 -0.0524
H6A H 0.2590 1.0755 -0.0398
O10A O -0.0071(5) 0.9076(3) -0.1205(2)
H7A H -0.0307 0.9720 -0.1019
H8A H -0.0877 0.8762 -0.1032
N1A N 0.2182(5) 0.9855(3) -0.2183(2)
N2A N 0.3403(5) 0.7909(3) -0.2707(2)
C11A C 0.1917(7) 1.1270(5) -0.2947(3)
H15A H 0.1834 1.1752 -0.3194
C12A C 0.1418(7) 1.1516(5) -0.2312(3)
H16A H 0.0973 1.2166 -0.2122
C13A C 0.1564(7) 1.0796(4) -0.1937(3)
H17A H 0.1214 1.0984 -0.1497
C14A C 0.2665(6) 0.9587(4) -0.2833(3)
C15A C 0.2569(7) 1.0279(4) -0.3236(3)
C16A C 0.3124(7) 0.9957(5) -0.3905(3)
H18A H 0.3074 1.0419 -0.4168
C17A C 0.3718(7) 0.8998(5) -0.4164(3)
H19A H 0.4067 0.8806 -0.4603
C18A C 0.3821(6) 0.8269(4) -0.3774(3)
C19A C 0.3317(6) 0.8570(4) -0.3108(2)
C20A C 0.3967(7) 0.6958(4) -0.2974(3)
H20A H 0.4011 0.6501 -0.2708
C21A C 0.4490(7) 0.6606(5) -0.3624(3)
H21A H 0.4887 0.5934 -0.3784
C22A C 0.4421(7) 0.7250(5) -0.4026(3)
H22A H 0.4766 0.7023 -0.4465
Gd1A_2 Gd 1.28520(3) 0.863073(18) -0.146063(11)
O1A_2 O 0.2352(6) 0.8134(3) -0.04701(19)
O11 O 0.2648(8) 0.5049(4) 0.2899(3)
H23 H 0.3705 0.5237 0.3059
H24 H 0.2887 0.4653 0.2511
C23 C 0.7839(7) 0.5388(4) 0.4782(3)
H25 H 0.6672 0.5278 0.4872
C24 C 0.8300(7) 0.6004(4) 0.4377(3)
C25 C 1.0070(8) 0.6182(5) 0.4243(3)
H26 H 1.0379 0.6603 0.3966
C26 C 1.1316(7) 0.5746(5) 0.4514(3)
H27 H 1.2477 0.5880 0.4427
C27 C 0.9119(7) 0.4914(4) 0.5069(3)
S3 S 0.67313(19) 0.66016(12) 0.40065(7)
O12 O 0.6886(8) 0.6238(5) 0.3306(3)
O13 O 0.5087(7) 0.6242(6) 0.4178(4)
O14 O 0.7157(9) 0.7706(4) 0.4254(3)
C23A C 1.2161(7) 0.4612(4) 0.5218(3)
H25A H 1.3328 0.4722 0.5128
C24A C 1.1700(7) 0.3996(4) 0.5623(3)
C25A C 0.9930(8) 0.3818(5) 0.5757(3)
H26A H 0.9621 0.3397 0.6034
C26A C 0.8684(7) 0.4254(5) 0.5486(3)
H27A H 0.7523 0.4120 0.5573
C27A C 1.0881(7) 0.5086(4) 0.4931(3)
S3A S 1.32687(19) 0.33984(12) 0.59935(7)
O12A O 1.3114(8) 0.3762(5) 0.6694(3)
O13A O 1.4913(7) 0.3758(6) 0.5822(4)
O14A O 1.2843(9) 0.2294(4) 0.5746(3)
N3 N 0.2258(6) 0.1164(4) 0.2749(2)
C28 C 0.1696(8) 0.2115(5) 0.2919(3)
H28 H 0.1790 0.2507 0.2612
C29 C 0.2127(6) 0.0592(4) 0.3196(2)
C30 C 0.1468(7) 0.1005(5) 0.3832(3)
C31 C 0.0860(8) 0.2023(6) 0.3986(3)
H29 H 0.0389 0.2314 0.4398
C32 C 0.0967(8) 0.2581(5) 0.3528(4)
H30 H 0.0566 0.3254 0.3619
C33 C 0.1424(8) 0.0369(6) 0.4290(3)
H31 H 0.1017 0.0645 0.4716
C34 C 0.1954(9) -0.0603(6) 0.4117(3)
H32 H 0.1891 -0.0998 0.4422
C35 C 0.2618(7) -0.1061(5) 0.3474(3)
C36 C 0.2709(7) -0.0465(5) 0.3010(3)
N4 N 0.3341(6) -0.0849(4) 0.2394(2)
C37 C 0.3871(8) -0.1818(5) 0.2237(3)
H33 H 0.4312 -0.2086 0.1816
C38 C 0.3809(9) -0.2458(6) 0.2660(4)
H34 H 0.4179 -0.3139 0.2520
C39 C 0.3207(9) -0.2086(6) 0.3279(4)
H35 H 0.3181 -0.2501 0.3573
O15 O 0.9114(7) 0.5070(4) 0.2464(3)
H36 H 0.8602 0.5579 0.2709
H37 H 1.0164 0.5140 0.2618
loop_
_geom_bond_atom_site_label_1
_geom_bond_atom_site_label_2
_geom_bond_site_symmetry_1
_geom_bond_site_symmetry_2
Gd1 O1 1_555 1_555
S1 O4 1_555 1_555
S2 O1 1_555 1_555
O2 S2 1_555 1_555
O3 S2 1_555 1_555
O5 S1 1_555 1_555
O6 Gd1 1_555 1_555
O7 Gd1 1_555 1_555
H1 O7 1_555 1_555
H2 O7 1_555 1_555
O8 Gd1 1_555 1_555
H3 O8 1_555 1_555
H4 O8 1_555 1_555
O9 Gd1 1_555 1_555
H5 O9 1_555 1_555
H6 O9 1_555 1_555
O10 Gd1 1_555 1_555
H7 O10 1_555 1_555
H8 O10 1_555 1_555
N1 Gd1 1_555 1_555
N2 Gd1 1_555 1_555
C1 H9 1_555 1_555
C2 S2 1_555 1_555
C3 C2 1_555 1_555
H10 C3 1_555 1_555
C4 C3 1_555 1_555
H11 C4 1_555 1_555
C5 C1 1_555 1_555
C6 C7 1_555 1_555
C7 H12 1_555 1_555
C8 S1 1_555 1_555
C9 C8 1_555 1_555
H13 C9 1_555 1_555
C10 C6 1_555 1_555
H14 C10 1_555 1_555
C11 H15 1_555 1_555
C12 C11 1_555 1_555
H16 C12 1_555 1_555
C13 N1 1_555 1_555
H17 C13 1_555 1_555
C14 N1 1_555 1_555
C15 C11 1_555 1_555
C16 C15 1_555 1_555
H18 C16 1_555 1_555
C17 C16 1_555 1_555
H19 C17 1_555 1_555
C18 C17 1_555 1_555
C19 N2 1_555 1_555
C20 N2 1_555 1_555
H20 C20 1_555 1_555
C21 C20 1_555 1_555
H21 C21 1_555 1_555
C22 C18 1_555 1_555
H22 C22 1_555 1_555
O11 H23 1_555 1_555
H24 O11 1_555 1_555
C23 H25 1_555 1_555
C24 C23 1_555 1_555
C25 C24 1_555 1_555
H26 C25 1_555 1_555
C26 C25 1_555 1_555
H27 C26 1_555 1_555
C27 C23 1_555 1_555
S3 C24 1_555 1_555
O12 S3 1_555 1_555
O13 S3 1_555 1_555
O14 S3 1_555 1_555
N3 C28 1_555 1_555
C28 H28 1_555 1_555
C29 N3 1_555 1_555
C30 C29 1_555 1_555
C31 C30 1_555 1_555
H29 C31 1_555 1_555
C32 C28 1_555 1_555
H30 C32 1_555 1_555
C33 C30 1_555 1_555
H31 C33 1_555 1_555
C34 C33 1_555 1_555
H32 C34 1_555 1_555
C35 C34 1_555 1_555
C36 C29 1_555 1_555
N4 C36 1_555 1_555
C37 N4 1_555 1_555
H33 C37 1_555 1_555
C38 C37 1_555 1_555
H34 C38 1_555 1_555
C39 C35 1_555 1_555
H35 C39 1_555 1_555
O15 H36 1_555 1_555
H37 O15 1_555 1_555
S1A O4A 1_555 1_555
O5A S1A 1_555 1_555
O6A S1A 1_555 1_555
C6A C6 1_555 1_555
C7A C6A 1_555 1_555
H12A C7A 1_555 1_555
C8A S1A 1_555 1_555
C9A C10 1_555 1_555
H13A C9A 1_555 1_555
C10A C9 1_555 1_555
H14A C10A 1_555 1_555
S2A O1A 1_555 1_555
O1A Gd1A_2 1_555 1_555
O2A S2A 1_555 1_555
O3A S2A 1_555 1_555
C1A H9A 1_555 1_555
C2A S2A 1_555 1_555
C3A C2A 1_555 1_555
H10A C3A 1_555 1_555
C4A C5 1_555 1_555
H11A C4A 1_555 1_555
C5A C4 1_555 1_555
Gd1A O6A 1_555 1_555
O7A Gd1A 1_555 1_555
H1A O7A 1_555 1_555
H2A O7A 1_555 1_555
O8A Gd1A 1_555 1_555
H3A O8A 1_555 1_555
H4A O8A 1_555 1_555
O9A Gd1A 1_555 1_555
H5A O9A 1_555 1_555
H6A O9A 1_555 1_555
O10A Gd1A 1_555 1_555
H7A O10A 1_555 1_555
H8A O10A 1_555 1_555
N1A Gd1A 1_555 1_555
N2A Gd1A 1_555 1_555
C11A H15A 1_555 1_555
C12A C11A 1_555 1_555
H16A C12A 1_555 1_555
C13A N1A 1_555 1_555
H17A C13A 1_555 1_555
C14A N1A 1_555 1_555
C15A C11A 1_555 1_555
C16A C15A 1_555 1_555
H18A C16A 1_555 1_555
C17A C16A 1_555 1_555
H19A C17A 1_555 1_555
C18A C17A 1_555 1_555
C19A N2A 1_555 1_555
C20A N2A 1_555 1_555
H20A C20A 1_555 1_555
C21A C20A 1_555 1_555
H21A C21A 1_555 1_555
C22A C18A 1_555 1_555
H22A C22A 1_555 1_555
O1A_2 Gd1A 1_555 1_555
C23A H25A 1_555 1_555
C24A C23A 1_555 1_555
C25A C24A 1_555 1_555
H26A C25A 1_555 1_555
C26A C27 1_555 1_555
H27A C26A 1_555 1_555
C27A C26 1_555 1_555
S3A C24A 1_555 1_555
O12A S3A 1_555 1_555
O13A S3A 1_555 1_555
O14A S3A 1_555 1_555
S1 O6 1_555 1_555
C1 C2 1_555 1_555
C5 C5A 1_555 1_555
C7 C8 1_555 1_555
C12 C13 1_555 1_555
C14 C15 1_555 1_555
C14 C19 1_555 1_555
C18 C19 1_555 1_555
C21 C22 1_555 1_555
C27 C27A 1_555 1_555
C31 C32 1_555 1_555
C35 C36 1_555 1_555
C38 C39 1_555 1_555
C6A C10A 1_555 1_555
C7A C8A 1_555 1_555
C8A C9A 1_555 1_555
C1A C2A 1_555 1_555
C1A C5A 1_555 1_555
C3A C4A 1_555 1_555
C12A C13A 1_555 1_555
C14A C15A 1_555 1_555
C14A C19A 1_555 1_555
C18A C19A 1_555 1_555
C21A C22A 1_555 1_555
C23A C27A 1_555 1_555
C25A C26A 1_555 1_555

#END
