
#######################################################################
#
#                 Cambridge Crystallographic Data Centre
#                                CCDC 
#
#######################################################################
#
# If this CIF has been generated from an entry in the Cambridge 
# Structural Database, then it will include bibliographic, chemical, 
# crystal, experimental, refinement or atomic coordinate data resulting 
# from the CCDC's data processing and validation procedures.
#
#######################################################################

data_LIGQEZ
_symmetry_cell_setting           triclinic
_symmetry_space_group_name_H-M   'P -1'
_symmetry_Int_Tables_number      2
_space_group_name_Hall           '-P 1'
loop_
_symmetry_equiv_pos_site_id
_symmetry_equiv_pos_as_xyz
1 x,y,z
2 -x,-y,-z
_cell_length_a                   9.011(2)
_cell_length_b                   11.367(3)
_cell_length_c                   12.148(3)
_cell_angle_alpha                117.119(2)
_cell_angle_beta                 92.224(3)
_cell_angle_gamma                101.687(3)
_cell_volume                     1072.19
loop_
_atom_site_label
_atom_site_type_symbol
_atom_site_fract_x
_atom_site_fract_y
_atom_site_fract_z
Gd1 Gd 0.14607(2) 0.407996(19) 0.495714(17)
S1 S 0.54929(12) 0.45649(11) 0.63712(9)
S2 S -0.09080(12) 0.30414(11) 0.20867(10)
O1 O 0.0025(3) 0.2658(3) 0.2833(3)
O2 O -0.1634(3) 0.4120(3) 0.2857(3)
O3 O -0.0118(4) 0.3293(4) 0.1187(3)
O4 O 0.3973(3) 0.4701(3) 0.6061(3)
O5 O 0.6706(3) 0.5696(3) 0.6471(3)
O6 O 0.5756(4) 0.3240(3) 0.5569(3)
O7 O -0.0992(3) 0.4141(3) 0.5260(3)
H1 H -0.1681 0.3547 0.5440
N1 N 0.0945(4) 0.2802(4) 0.6282(3)
N2 N 0.2198(4) 0.1749(4) 0.4138(3)
C1 C 0.2810(7) 0.1233(5) 0.3115(5)
H2 H 0.2838 0.1643 0.2604
C2 C 0.3426(8) 0.0094(6) 0.2748(6)
H3 H 0.3837 -0.0242 0.2006
C3 C 0.3418(6) -0.0515(5) 0.3487(5)
H4 H 0.3837 -0.1262 0.3264
C4 C 0.2772(6) -0.0001(5) 0.4588(5)
C5 C 0.2173(5) 0.1140(4) 0.4885(4)
C6 C 0.1492(5) 0.1698(4) 0.6009(4)
C7 C 0.1424(6) 0.1064(5) 0.6795(5)
C8 C 0.2052(7) -0.0091(6) 0.6451(5)
H5 H 0.2006 -0.0505 0.6959
C9 C 0.2707(7) -0.0595(5) 0.5415(5)
H6 H 0.3124 -0.1337 0.5228
C10 C 0.0277(5) 0.3288(5) 0.7306(4)
H7 H -0.0133 0.4033 0.7487
C11 C 0.0168(7) 0.2718(6) 0.8117(5)
H8 H -0.0296 0.3092 0.8827
C12 C 0.0740(7) 0.1623(6) 0.7865(5)
H9 H 0.0677 0.1246 0.8404
C13 C -0.3908(5) 0.1777(5) 0.1121(4)
H10 H -0.4085 0.2636 0.1588
C14 C -0.2166(5) 0.0288(5) 0.0556(4)
H11 H -0.1176 0.0182 0.0631
C15 C -0.5137(5) 0.0658(4) 0.0322(4)
C16 C -0.2461(5) 0.1596(4) 0.1206(4)
C17 C -0.3351(5) -0.0820(5) -0.0185(4)
H12 H -0.3166 -0.1682 -0.0600
C18 C 0.5528(5) 0.4731(4) 0.7895(4)
C19 C 0.4308(5) 0.4976(5) 0.8522(4)
H13 H 0.3446 0.5069 0.8152
C20 C 0.6830(5) 0.4563(6) 0.8429(4)
H14 H 0.7658 0.4402 0.7996
C21 C 0.4347(5) 0.5091(5) 0.9733(4)
C22 C 0.6876(5) 0.4635(6) 0.9577(4)
H15 H 0.7731 0.4502 0.9915
S1A S 0.45071(12) 0.54351(11) 1.36288(9)
O4A O 0.6027(3) 0.5299(3) 1.3939(3)
O5A O 0.3294(3) 0.4304(3) 1.3529(3)
O6A O 0.4244(4) 0.6760(3) 1.4431(3)
C18A C 0.4472(5) 0.5269(4) 1.2105(4)
C19A C 0.5692(5) 0.5024(5) 1.1478(4)
H13A H 0.6554 0.4931 1.1848
C20A C 0.3170(5) 0.5437(6) 1.1571(4)
H14A H 0.2342 0.5598 1.2004
C21A C 0.5653(5) 0.4909(5) 1.0267(4)
C22A C 0.3124(5) 0.5365(6) 1.0423(4)
H15A H 0.2269 0.5498 1.0085
S2A S -0.90920(12) -0.30414(11) -0.20867(10)
O1A O -1.0025(3) -0.2658(3) -0.2833(3)
O3A O -0.9882(4) -0.3293(4) -0.1187(3)
C13A C -0.6092(5) -0.1777(5) -0.1121(4)
H10A H -0.5915 -0.2636 -0.1588
C14A C -0.7834(5) -0.0288(5) -0.0556(4)
H11A H -0.8824 -0.0182 -0.0631
C15A C -0.4863(5) -0.0658(4) -0.0322(4)
C16A C -0.7539(5) -0.1596(4) -0.1206(4)
C17A C -0.6649(5) 0.0820(5) 0.0185(4)
H12A H -0.6834 0.1682 0.0600
O2A O -0.8366(3) -0.4120(3) -0.2857(3)
Gd1A Gd -1.14607(2) -0.407996(19) -0.495714(17)
O7A O -0.9008(3) -0.4141(3) -0.5260(3)
H1A H -0.8319 -0.3547 -0.5440
N1A N -1.0945(4) -0.2802(4) -0.6282(3)
N2A N -1.2198(4) -0.1749(4) -0.4138(3)
C1A C -1.2810(7) -0.1233(5) -0.3115(5)
H2A H -1.2838 -0.1643 -0.2604
C2A C -1.3426(8) -0.0094(6) -0.2748(6)
H3A H -1.3837 0.0242 -0.2006
C3A C -1.3418(6) 0.0515(5) -0.3487(5)
H4A H -1.3837 0.1262 -0.3264
C4A C -1.2772(6) 0.0001(5) -0.4588(5)
C5A C -1.2173(5) -0.1140(4) -0.4885(4)
C6A C -1.1492(5) -0.1698(4) -0.6009(4)
C7A C -1.1424(6) -0.1064(5) -0.6795(5)
C8A C -1.2052(7) 0.0091(6) -0.6451(5)
H5A H -1.2006 0.0505 -0.6959
C9A C -1.2707(7) 0.0595(5) -0.5415(5)
H6A H -1.3124 0.1337 -0.5228
C10A C -1.0277(5) -0.3288(5) -0.7306(4)
H7A H -0.9867 -0.4033 -0.7487
C11A C -1.0168(7) -0.2718(6) -0.8117(5)
H8A H -0.9704 -0.3092 -0.8827
C12A C -1.0740(7) -0.1623(6) -0.7865(5)
H9A H -1.0677 -0.1246 -0.8404
Gd1_2 Gd -0.85393(2) -0.592004(19) -0.504286(17)
Gd1_3 Gd 0.14607(2) 0.407996(19) 1.495714(17)
Gd1A_2 Gd -0.14607(2) 0.592004(19) 0.504286(17)
Gd1A_3 Gd 0.85393(2) 0.592004(19) 0.504286(17)
Gd1A_4 Gd 0.85393(2) 0.592004(19) 1.504286(17)
O2_2 O -1.1634(3) -0.5880(3) -0.7143(3)
O2A_2 O 0.1634(3) 0.5880(3) 0.7143(3)
O4A_2 O -1.3973(3) -0.4701(3) -0.6061(3)
O5_2 O -1.3294(3) -0.4304(3) -0.3529(3)
O5A_2 O 0.3294(3) 0.4304(3) 0.3529(3)
O7_2 O -1.0992(3) -0.5859(3) -0.4740(3)
O7A_2 O 0.0992(3) 0.5859(3) 0.4740(3)
loop_
_geom_bond_atom_site_label_1
_geom_bond_atom_site_label_2
_geom_bond_site_symmetry_1
_geom_bond_site_symmetry_2
Gd1 O1 1_555 1_555
S1 O4 1_555 1_555
S2 O1 1_555 1_555
O2 S2 1_555 1_555
O3 S2 1_555 1_555
O4 Gd1 1_555 1_555
O5 S1 1_555 1_555
O6 S1 1_555 1_555
O7 Gd1 1_555 1_555
H1 O7 1_555 1_555
N1 Gd1 1_555 1_555
N2 Gd1 1_555 1_555
C1 N2 1_555 1_555
H2 C1 1_555 1_555
C2 C1 1_555 1_555
H3 C2 1_555 1_555
C3 C2 1_555 1_555
H4 C3 1_555 1_555
C4 C3 1_555 1_555
C5 N2 1_555 1_555
C6 N1 1_555 1_555
C7 C6 1_555 1_555
C8 C7 1_555 1_555
H5 C8 1_555 1_555
C9 C4 1_555 1_555
H6 C9 1_555 1_555
C10 N1 1_555 1_555
H7 C10 1_555 1_555
C11 C10 1_555 1_555
H8 C11 1_555 1_555
C12 C7 1_555 1_555
H9 C12 1_555 1_555
C13 H10 1_555 1_555
C14 H11 1_555 1_555
C15 C13 1_555 1_555
C16 S2 1_555 1_555
C17 C14 1_555 1_555
H12 C17 1_555 1_555
C18 S1 1_555 1_555
C19 C18 1_555 1_555
H13 C19 1_555 1_555
C20 C18 1_555 1_555
H14 C20 1_555 1_555
C21 C19 1_555 1_555
C22 C20 1_555 1_555
H15 C22 1_555 1_555
S1A O4A 1_555 1_555
O4A Gd1A_4 1_555 1_555
O5A S1A 1_555 1_555
O6A S1A 1_555 1_555
C18A S1A 1_555 1_555
C19A C18A 1_555 1_555
H13A C19A 1_555 1_555
C20A C18A 1_555 1_555
H14A C20A 1_555 1_555
C21A C21 1_555 1_555
C22A C21 1_555 1_555
H15A C22A 1_555 1_555
S2A O1A 1_555 1_555
O1A Gd1A 1_555 1_555
O3A S2A 1_555 1_555
C13A H10A 1_555 1_555
C14A H11A 1_555 1_555
C15A C15 1_555 1_555
C16A S2A 1_555 1_555
C17A C15 1_555 1_555
H12A C17A 1_555 1_555
O2A S2A 1_555 1_555
Gd1A O7A 1_555 1_555
O7A H1A 1_555 1_555
N1A Gd1A 1_555 1_555
N2A Gd1A 1_555 1_555
C1A N2A 1_555 1_555
H2A C1A 1_555 1_555
C2A C1A 1_555 1_555
H3A C2A 1_555 1_555
C3A C2A 1_555 1_555
H4A C3A 1_555 1_555
C4A C3A 1_555 1_555
C5A N2A 1_555 1_555
C6A N1A 1_555 1_555
C7A C6A 1_555 1_555
C8A C7A 1_555 1_555
H5A C8A 1_555 1_555
C9A C4A 1_555 1_555
H6A C9A 1_555 1_555
C10A N1A 1_555 1_555
H7A C10A 1_555 1_555
C11A C10A 1_555 1_555
H8A C11A 1_555 1_555
C12A C7A 1_555 1_555
H9A C12A 1_555 1_555
Gd1_2 O2A 1_555 1_555
Gd1_3 O5A 1_555 1_555
Gd1A_2 O2 1_555 1_555
Gd1A_3 O5 1_555 1_555
O2_2 Gd1A 1_555 1_555
O2A_2 Gd1 1_555 1_555
O4A_2 Gd1A 1_555 1_555
O5_2 Gd1A 1_555 1_555
O5A_2 Gd1 1_555 1_555
O7_2 Gd1A 1_555 1_555
O7A_2 Gd1 1_555 1_555
O7 Gd1A_2 1_555 1_555
C4 C5 1_555 1_555
C5 C6 1_555 1_555
C8 C9 1_555 1_555
C11 C12 1_555 1_555
C13 C16 1_555 1_555
C14 C16 1_555 1_555
C17 C15A 1_555 1_555
C22 C21A 1_555 1_555
C19A C21A 1_555 1_555
C20A C22A 1_555 1_555
C13A C15A 1_555 1_555
C13A C16A 1_555 1_555
C14A C16A 1_555 1_555
C14A C17A 1_555 1_555
O7A Gd1_2 1_555 1_555
C4A C5A 1_555 1_555
C5A C6A 1_555 1_555
C8A C9A 1_555 1_555
C11A C12A 1_555 1_555
Gd1_2 O7_2 1_555 1_555
Gd1A_2 O7A_2 1_555 1_555

#END
