
#######################################################################
#
#                 Cambridge Crystallographic Data Centre
#                                CCDC 
#
#######################################################################
#
# If this CIF has been generated from an entry in the Cambridge 
# Structural Database, then it will include bibliographic, chemical, 
# crystal, experimental, refinement or atomic coordinate data resulting 
# from the CCDC's data processing and validation procedures.
#
#######################################################################

data_LIGQAV
_symmetry_cell_setting           triclinic
_symmetry_space_group_name_H-M   'P -1'
_symmetry_Int_Tables_number      2
_space_group_name_Hall           '-P 1'
loop_
_symmetry_equiv_pos_site_id
_symmetry_equiv_pos_as_xyz
1 x,y,z
2 -x,-y,-z
_cell_length_a                   10.3450(7)
_cell_length_b                   12.9394(9)
_cell_length_c                   13.0824(9)
_cell_angle_alpha                89.7030(10)
_cell_angle_beta                 76.6800(10)
_cell_angle_gamma                70.9530(10)
_cell_volume                     1606.11
loop_
_atom_site_label
_atom_site_type_symbol
_atom_site_fract_x
_atom_site_fract_y
_atom_site_fract_z
Gd1 Gd -0.029049(15) 0.415255(11) 0.612400(11)
S1 S -0.15512(8) 0.26048(6) 0.81396(6)
O1 O 0.1033(2) 0.41736(15) 0.44750(15)
H1 H 0.1772 0.3577 0.4103
O2 O -0.0480(2) 0.30804(17) 0.76297(17)
O3 O -0.2707(2) 0.34008(18) 0.88711(18)
O4 O -0.1994(3) 0.20624(19) 0.73962(19)
N1 N 0.0594(3) 0.2088(2) 0.54273(19)
N2 N -0.1688(3) 0.3604(2) 0.4975(2)
N3 N 0.2220(3) 0.3595(2) 0.6427(2)
N4 N 0.0062(3) 0.5253(2) 0.7635(2)
C1 C -0.2836(3) 0.4312(3) 0.4772(3)
H2 H -0.3274 0.4966 0.5194
C2 C -0.3424(4) 0.4133(3) 0.3962(3)
H3 H -0.4245 0.4650 0.3862
C3 C -0.2789(4) 0.3201(3) 0.3324(3)
H4 H -0.3160 0.3078 0.2772
C4 C -0.1570(4) 0.2421(3) 0.3498(3)
C5 C -0.0847(5) 0.1406(3) 0.2870(3)
H5 H -0.1149 0.1268 0.2285
C6 C 0.0254(5) 0.0653(3) 0.3110(3)
H6 H 0.0697 -0.0002 0.2691
C7 C -0.1057(3) 0.2647(3) 0.4345(2)
C8 C 0.0139(3) 0.1849(2) 0.4597(2)
C9 C 0.0771(4) 0.0828(3) 0.3994(3)
C10 C 0.1833(4) 0.0036(3) 0.4332(3)
H7 H 0.2267 -0.0648 0.3962
C11 C 0.2240(4) 0.0252(3) 0.5194(3)
H8 H 0.2931 -0.0282 0.5432
C12 C 0.1599(4) 0.1297(3) 0.5720(3)
H9 H 0.1893 0.1445 0.6306
C13 C 0.4880(4) 0.2905(3) 0.6851(3)
H10 H 0.5766 0.2656 0.6996
C14 C 0.3744(3) 0.3646(3) 0.7565(3)
C15 C 0.3901(4) 0.4101(3) 0.8504(3)
H11 H 0.4758 0.3840 0.8692
C16 C 0.2822(4) 0.4900(4) 0.9115(3)
H12 H 0.2941 0.5185 0.9725
C17 C 0.1499(4) 0.5322(3) 0.8848(3)
C18 C 0.0387(5) 0.6221(4) 0.9411(3)
H13 H 0.0475 0.6543 1.0015
C19 C -0.0811(5) 0.6621(4) 0.9078(3)
H14 H -0.1545 0.7225 0.9442
C20 C -0.0940(4) 0.6121(3) 0.8187(3)
H15 H -0.1770 0.6410 0.7966
C21 C 0.1288(3) 0.4863(3) 0.7953(2)
C22 C 0.2432(3) 0.3988(3) 0.7312(2)
C23 C 0.4685(4) 0.2547(3) 0.5936(3)
H16 H 0.5441 0.2079 0.5437
C24 C 0.3335(3) 0.2896(3) 0.5763(3)
H17 H 0.3206 0.2625 0.5151
C25 C -0.0665(3) 0.1575(2) 0.8876(2)
C26 C -0.1409(3) 0.1017(3) 0.9503(2)
H18 H -0.2375 0.1214 0.9571
C27 C 0.0795(3) 0.1302(3) 0.8781(3)
H19 H 0.1295 0.1694 0.8362
O5 O -0.2764(2) 0.49339(17) 0.71996(17)
H20 H -0.3213 0.5627 0.7289
H21 H -0.2963 0.4659 0.7791
C28 C -0.0730(3) 0.0141(2) 1.0052(2)
C29 C 0.1470(3) 0.0467(3) 0.9302(3)
H22 H 0.2433 0.0290 0.9235
S1A S 0.15512(8) -0.26048(6) 1.18604(6)
O2A O 0.0480(2) -0.30804(17) 1.23703(17)
O3A O 0.2707(2) -0.34008(18) 1.11289(18)
O4A O 0.1994(3) -0.20624(19) 1.26038(19)
C25A C 0.0665(3) -0.1575(2) 1.1124(2)
C26A C 0.1409(3) -0.1017(3) 1.0497(2)
H18A H 0.2375 -0.1214 1.0429
C27A C -0.0795(3) -0.1302(3) 1.1219(3)
H19A H -0.1295 -0.1694 1.1638
C28A C 0.0730(3) -0.0141(2) 0.9948(2)
C29A C -0.1470(3) -0.0467(3) 1.0698(3)
H22A H -0.2433 -0.0290 1.0765
Gd1A Gd 0.029049(15) -0.415255(11) 1.387600(11)
O1A O -0.1033(2) -0.41736(15) 1.55250(15)
H1A H -0.1772 -0.3577 1.5897
N1A N -0.0594(3) -0.2088(2) 1.45727(19)
N2A N 0.1688(3) -0.3604(2) 1.5025(2)
N3A N -0.2220(3) -0.3595(2) 1.3573(2)
N4A N -0.0062(3) -0.5253(2) 1.2365(2)
C1A C 0.2836(3) -0.4312(3) 1.5228(3)
H2A H 0.3274 -0.4966 1.4806
C2A C 0.3424(4) -0.4133(3) 1.6038(3)
H3A H 0.4245 -0.4650 1.6138
C3A C 0.2789(4) -0.3201(3) 1.6676(3)
H4A H 0.3160 -0.3078 1.7228
C4A C 0.1570(4) -0.2421(3) 1.6502(3)
C5A C 0.0847(5) -0.1406(3) 1.7130(3)
H5A H 0.1149 -0.1268 1.7715
C6A C -0.0254(5) -0.0653(3) 1.6890(3)
H6A H -0.0697 0.0002 1.7309
C7A C 0.1057(3) -0.2647(3) 1.5655(2)
C8A C -0.0139(3) -0.1849(2) 1.5403(2)
C9A C -0.0771(4) -0.0828(3) 1.6006(3)
C10A C -0.1833(4) -0.0036(3) 1.5668(3)
H7A H -0.2267 0.0648 1.6038
C11A C -0.2240(4) -0.0252(3) 1.4806(3)
H8A H -0.2931 0.0282 1.4568
C12A C -0.1599(4) -0.1297(3) 1.4280(3)
H9A H -0.1893 -0.1445 1.3694
C13A C -0.4880(4) -0.2905(3) 1.3149(3)
H10A H -0.5766 -0.2656 1.3004
C14A C -0.3744(3) -0.3646(3) 1.2435(3)
C15A C -0.3901(4) -0.4101(3) 1.1496(3)
H11A H -0.4758 -0.3840 1.1308
C16A C -0.2822(4) -0.4900(4) 1.0885(3)
H12A H -0.2941 -0.5185 1.0275
C17A C -0.1499(4) -0.5322(3) 1.1152(3)
C18A C -0.0387(5) -0.6221(4) 1.0589(3)
H13A H -0.0475 -0.6543 0.9985
C19A C 0.0811(5) -0.6621(4) 1.0922(3)
H14A H 0.1545 -0.7225 1.0558
C20A C 0.0940(4) -0.6121(3) 1.1813(3)
H15A H 0.1770 -0.6410 1.2034
C21A C -0.1288(3) -0.4863(3) 1.2047(2)
C22A C -0.2432(3) -0.3988(3) 1.2688(2)
C23A C -0.4685(4) -0.2547(3) 1.4064(3)
H16A H -0.5441 -0.2079 1.4563
C24A C -0.3335(3) -0.2896(3) 1.4237(3)
H17A H -0.3206 -0.2625 1.4849
O5A O 0.2764(2) -0.49339(17) 1.28004(17)
H20A H 0.3213 -0.5627 1.2711
H21A H 0.2963 -0.4659 1.2209
Gd1_2 Gd -0.029049(15) -0.584745(11) 1.612400(11)
Gd1A_2 Gd 0.029049(15) 0.584745(11) 0.387600(11)
O1_2 O 0.1033(2) -0.58264(15) 1.44750(15)
O1A_2 O -0.1033(2) 0.58264(15) 0.55250(15)
S2 S 0.44167(9) 0.19984(7) 0.27737(6)
O6 O 0.2979(2) 0.2210(2) 0.33790(19)
O7 O 0.4599(3) 0.29727(18) 0.22926(18)
O8 O 0.5457(3) 0.1469(2) 0.3342(2)
C30 C 0.4651(3) 0.1042(2) 0.1719(2)
C31 C 0.4793(3) 0.1314(3) 0.0703(2)
H23 H 0.4767 0.2022 0.0550
C32 C 0.4979(3) 0.0541(2) -0.0125(2)
C33 C 0.5140(3) 0.0791(3) -0.1185(2)
H24 H 0.5128 0.1492 -0.1355
C34 C 0.4687(4) -0.0035(3) 0.1964(3)
H25 H 0.4591 -0.0222 0.2659
S2A S 0.55833(9) -0.19984(7) -0.27737(6)
O6A O 0.7021(2) -0.2210(2) -0.33790(19)
O7A O 0.5401(3) -0.29727(18) -0.22926(18)
O8A O 0.4543(3) -0.1469(2) -0.3342(2)
C30A C 0.5349(3) -0.1042(2) -0.1719(2)
C31A C 0.5207(3) -0.1314(3) -0.0703(2)
H23A H 0.5233 -0.2022 -0.0550
C32A C 0.5021(3) -0.0541(2) 0.0125(2)
C33A C 0.4860(3) -0.0791(3) 0.1185(2)
H24A H 0.4872 -0.1492 0.1355
C34A C 0.5313(4) 0.0035(3) -0.1964(3)
H25A H 0.5409 0.0222 -0.2659
loop_
_geom_bond_atom_site_label_1
_geom_bond_atom_site_label_2
_geom_bond_site_symmetry_1
_geom_bond_site_symmetry_2
Gd1 O1 1_555 1_555
S1 O2 1_555 1_555
O1 H1 1_555 1_555
O2 Gd1 1_555 1_555
O3 S1 1_555 1_555
O4 S1 1_555 1_555
N1 Gd1 1_555 1_555
N2 Gd1 1_555 1_555
N3 Gd1 1_555 1_555
N4 Gd1 1_555 1_555
C1 N2 1_555 1_555
H2 C1 1_555 1_555
C2 C1 1_555 1_555
H3 C2 1_555 1_555
C3 C2 1_555 1_555
H4 C3 1_555 1_555
C4 C3 1_555 1_555
C5 C4 1_555 1_555
H5 C5 1_555 1_555
C6 C5 1_555 1_555
H6 C6 1_555 1_555
C7 N2 1_555 1_555
C8 N1 1_555 1_555
C9 C6 1_555 1_555
C10 C9 1_555 1_555
H7 C10 1_555 1_555
C11 C10 1_555 1_555
H8 C11 1_555 1_555
C12 N1 1_555 1_555
H9 C12 1_555 1_555
C13 H10 1_555 1_555
C14 C13 1_555 1_555
C15 C14 1_555 1_555
H11 C15 1_555 1_555
C16 C15 1_555 1_555
H12 C16 1_555 1_555
C17 C16 1_555 1_555
C18 C17 1_555 1_555
H13 C18 1_555 1_555
C19 C18 1_555 1_555
H14 C19 1_555 1_555
C20 N4 1_555 1_555
H15 C20 1_555 1_555
C21 N4 1_555 1_555
C22 N3 1_555 1_555
C23 C13 1_555 1_555
H16 C23 1_555 1_555
C24 N3 1_555 1_555
H17 C24 1_555 1_555
C25 S1 1_555 1_555
C26 C25 1_555 1_555
H18 C26 1_555 1_555
C27 C25 1_555 1_555
H19 C27 1_555 1_555
O5 Gd1 1_555 1_555
H20 O5 1_555 1_555
H21 O5 1_555 1_555
C28 C26 1_555 1_555
C29 C27 1_555 1_555
H22 C29 1_555 1_555
S2 O6 1_555 1_555
O7 S2 1_555 1_555
O8 S2 1_555 1_555
C30 S2 1_555 1_555
C31 C30 1_555 1_555
H23 C31 1_555 1_555
C32 C31 1_555 1_555
C33 C32 1_555 1_555
H24 C33 1_555 1_555
C34 C30 1_555 1_555
H25 C34 1_555 1_555
S1A O2A 1_555 1_555
O2A Gd1A 1_555 1_555
O3A S1A 1_555 1_555
O4A S1A 1_555 1_555
C25A S1A 1_555 1_555
C26A C25A 1_555 1_555
H18A C26A 1_555 1_555
C27A C25A 1_555 1_555
H19A C27A 1_555 1_555
C28A C28 1_555 1_555
C29A C28 1_555 1_555
H22A C29A 1_555 1_555
Gd1A O1A 1_555 1_555
O1A H1A 1_555 1_555
N1A Gd1A 1_555 1_555
N2A Gd1A 1_555 1_555
N3A Gd1A 1_555 1_555
N4A Gd1A 1_555 1_555
C1A N2A 1_555 1_555
H2A C1A 1_555 1_555
C2A C1A 1_555 1_555
H3A C2A 1_555 1_555
C3A C2A 1_555 1_555
H4A C3A 1_555 1_555
C4A C3A 1_555 1_555
C5A C4A 1_555 1_555
H5A C5A 1_555 1_555
C6A C5A 1_555 1_555
H6A C6A 1_555 1_555
C7A N2A 1_555 1_555
C8A N1A 1_555 1_555
C9A C6A 1_555 1_555
C10A C9A 1_555 1_555
H7A C10A 1_555 1_555
C11A C10A 1_555 1_555
H8A C11A 1_555 1_555
C12A N1A 1_555 1_555
H9A C12A 1_555 1_555
C13A H10A 1_555 1_555
C14A C13A 1_555 1_555
C15A C14A 1_555 1_555
H11A C15A 1_555 1_555
C16A C15A 1_555 1_555
H12A C16A 1_555 1_555
C17A C16A 1_555 1_555
C18A C17A 1_555 1_555
H13A C18A 1_555 1_555
C19A C18A 1_555 1_555
H14A C19A 1_555 1_555
C20A N4A 1_555 1_555
H15A C20A 1_555 1_555
C21A N4A 1_555 1_555
C22A N3A 1_555 1_555
C23A C13A 1_555 1_555
H16A C23A 1_555 1_555
C24A N3A 1_555 1_555
H17A C24A 1_555 1_555
O5A Gd1A 1_555 1_555
H20A O5A 1_555 1_555
H21A O5A 1_555 1_555
Gd1_2 O1A 1_555 1_555
Gd1A_2 O1 1_555 1_555
O1_2 Gd1A 1_555 1_555
O1A_2 Gd1 1_555 1_555
S2A O6A 1_555 1_555
O7A S2A 1_555 1_555
O8A S2A 1_555 1_555
C30A S2A 1_555 1_555
C31A C30A 1_555 1_555
H23A C31A 1_555 1_555
C32A C32 1_555 1_555
C33A C34 1_555 1_555
H24A C33A 1_555 1_555
C34A C33 1_555 1_555
H25A C34A 1_555 1_555
C4 C7 1_555 1_555
C7 C8 1_555 1_555
C8 C9 1_555 1_555
C11 C12 1_555 1_555
C14 C22 1_555 1_555
C17 C21 1_555 1_555
C19 C20 1_555 1_555
C21 C22 1_555 1_555
C23 C24 1_555 1_555
C29 C28A 1_555 1_555
C26A C28A 1_555 1_555
C27A C29A 1_555 1_555
C4A C7A 1_555 1_555
C7A C8A 1_555 1_555
C8A C9A 1_555 1_555
C11A C12A 1_555 1_555
C14A C22A 1_555 1_555
C17A C21A 1_555 1_555
C19A C20A 1_555 1_555
C21A C22A 1_555 1_555
C23A C24A 1_555 1_555
Gd1_2 O1_2 1_555 1_555
Gd1A_2 O1A_2 1_555 1_555
C30A C34A 1_555 1_555
C31A C32A 1_555 1_555
C32A C33A 1_555 1_555

#END
