
#######################################################################
#
#                 Cambridge Crystallographic Data Centre
#                                CCDC 
#
#######################################################################
#
# If this CIF has been generated from an entry in the Cambridge 
# Structural Database, then it will include bibliographic, chemical, 
# crystal, experimental, refinement or atomic coordinate data resulting 
# from the CCDC's data processing and validation procedures.
#
#######################################################################

data_LIGRAW
_symmetry_cell_setting           orthorhombic
_symmetry_space_group_name_H-M   'P c a 21'
_symmetry_Int_Tables_number      29
_space_group_name_Hall           'P 2c -2ac'
loop_
_symmetry_equiv_pos_site_id
_symmetry_equiv_pos_as_xyz
1 x,y,z
2 -x,-y,1/2+z
3 1/2+x,-y,z
4 1/2-x,y,1/2+z
_cell_length_a                   9.934(7)
_cell_length_b                   12.513(8)
_cell_length_c                   8.645(6)
_cell_angle_alpha                90
_cell_angle_beta                 90
_cell_angle_gamma                90
_cell_volume                     1074.61
loop_
_atom_site_label
_atom_site_type_symbol
_atom_site_fract_x
_atom_site_fract_y
_atom_site_fract_z
Co1 Co 0.92345(4) 0.12183(3) 0.18420(6)
P1 P 1.14620(7) 0.97244(5) 0.33158(10)
O1 O 1.0975(2) 1.07882(18) 0.2686(3)
O2 O 1.0948(3) 0.95468(19) 0.4925(3)
O3 O 1.2976(2) 0.96390(16) 0.3179(3)
O4 O 0.8611(3) 0.26919(18) 0.2113(3)
O5 O 1.0176(3) 0.28406(18) 0.0305(4)
N1 N 0.9325(2) 0.84101(17) 0.2557(3)
H1 H 0.8908 0.9027 0.2797
H2 H 0.9337 0.8003 0.3415
C1 C 1.0749(2) 0.86568(17) 0.2109(3)
H3 H 1.0776 0.8874 0.1033
H4 H 1.1293 0.8017 0.2217
C2 C 0.8513(3) 0.7845(2) 0.1338(4)
H5 H 0.8734 0.8146 0.0335
H6 H 0.7565 0.7978 0.1527
C3 C 0.8746(3) 0.6652(2) 0.1288(4)
C4 C 0.9772(4) 0.6204(2) 0.0401(5)
H7 H 1.0350 0.6641 -0.0161
C5 C 0.9929(4) 0.5101(3) 0.0360(4)
H8 H 1.0613 0.4805 -0.0237
C6 C 0.9090(3) 0.4440(2) 0.1188(4)
C7 C 0.8066(3) 0.4878(2) 0.2072(5)
H9 H 0.7491 0.4435 0.2629
C8 C 0.7900(3) 0.5978(2) 0.2122(4)
H10 H 0.7214 0.6269 0.2722
C9 C 0.9312(3) 0.3246(3) 0.1169(5)
Co1_2 Co 0.92345(4) 1.12183(3) 0.18420(6)
Co1A Co 1.07655(4) 0.87817(3) 0.68420(6)
Co1B Co 1.42345(4) 0.87817(3) 0.18420(6)
O1_2 O 1.0975(2) 0.07882(18) 0.2686(3)
O2A O 0.9052(3) 0.04532(19) -0.0075(3)
O3B O 0.7976(2) 0.03610(16) 0.3179(3)
loop_
_geom_bond_atom_site_label_1
_geom_bond_atom_site_label_2
_geom_bond_site_symmetry_1
_geom_bond_site_symmetry_2
Co1 O4 1_555 1_555
P1 O1 1_555 1_555
O1 Co1_2 1_555 1_555
O2 P1 1_555 1_555
O3 P1 1_555 1_555
O4 C9 1_555 1_555
O5 C9 1_555 1_555
N1 H1 1_555 1_555
H2 N1 1_555 1_555
C1 P1 1_555 1_555
H3 C1 1_555 1_555
H4 C1 1_555 1_555
C2 N1 1_555 1_555
H5 C2 1_555 1_555
H6 C2 1_555 1_555
C3 C2 1_555 1_555
C4 C3 1_555 1_555
H7 C4 1_555 1_555
C5 C4 1_555 1_555
H8 C5 1_555 1_555
C6 C5 1_555 1_555
C7 C6 1_555 1_555
H9 C7 1_555 1_555
C8 C3 1_555 1_555
H10 C8 1_555 1_555
C9 C6 1_555 1_555
Co1A O2 1_555 1_555
Co1B O3 1_555 1_555
O1_2 Co1 1_555 1_555
O2A Co1 1_555 1_555
O3B Co1 1_555 1_555
N1 C1 1_555 1_555
C7 C8 1_555 1_555

#END
