
#######################################################################
#
#                 Cambridge Crystallographic Data Centre
#                                CCDC 
#
#######################################################################
#
# If this CIF has been generated from an entry in the Cambridge 
# Structural Database, then it will include bibliographic, chemical, 
# crystal, experimental, refinement or atomic coordinate data resulting 
# from the CCDC's data processing and validation procedures.
#
#######################################################################

data_LIGXIJ
_symmetry_cell_setting           triclinic
_symmetry_space_group_name_H-M   'P -1'
_symmetry_Int_Tables_number      2
_space_group_name_Hall           '-P 1'
loop_
_symmetry_equiv_pos_site_id
_symmetry_equiv_pos_as_xyz
1 x,y,z
2 -x,-y,-z
_cell_length_a                   7.8825(6)
_cell_length_b                   11.4426(10)
_cell_length_c                   12.2286(10)
_cell_angle_alpha                85.004(5)
_cell_angle_beta                 72.214(5)
_cell_angle_gamma                82.499(5)
_cell_volume                     1039.97
loop_
_atom_site_label
_atom_site_type_symbol
_atom_site_fract_x
_atom_site_fract_y
_atom_site_fract_z
Cd1 Cd 0.239061(17) -0.005362(12) 0.999106(11)
C1 C 0.5643(3) -0.08145(19) 0.83342(16)
C2 C 0.7122(3) -0.14157(17) 0.74024(16)
C3 C 0.7136(3) -0.25929(19) 0.72108(18)
H1 H 0.6224 -0.3018 0.7669
C4 C 0.8489(3) -0.3140(2) 0.6347(2)
H2 H 0.8523 -0.3935 0.6228
C5 C 0.9798(3) -0.2471(2) 0.56621(18)
C6 C 0.9831(3) -0.13031(19) 0.58395(18)
H3 H 1.0739 -0.0880 0.5374
C7 C 0.8485(3) -0.07751(18) 0.67254(18)
H4 H 0.8490 0.0009 0.6869
C8 C 0.0044(3) 0.1277(2) 0.83542(17)
C9 C 0.1485(3) 0.17521(19) 0.73634(17)
C10 C 0.1393(3) 0.2944(2) 0.70598(19)
H5 H 0.0462 0.3458 0.7488
C11 C 0.2686(3) 0.3380(2) 0.6117(2)
H6 H 0.2653 0.4184 0.5919
C12 C 0.4004(3) 0.2598(2) 0.54917(19)
C13 C 0.4164(3) 0.1413(3) 0.5790(2)
H7 H 0.5112 0.0908 0.5366
C14 C 0.2872(3) 0.0988(2) 0.6741(2)
H8 H 0.2945 0.0187 0.6956
C15 C -0.0440(3) 0.2743(2) 1.1096(2)
H9 H -0.1299 0.2785 1.0678
H10 H -0.0767 0.3366 1.1623
H11 H -0.0418 0.1994 1.1515
C16 C 0.1379(3) 0.28722(18) 1.02710(18)
C17 C 0.2187(3) 0.39032(19) 0.9864(2)
H12 H 0.1692 0.4670 1.0050
C18 C 0.3859(3) 0.35636(19) 0.91312(19)
C19 C 0.5344(4) 0.4258(2) 0.8430(3)
H13 H 0.6478 0.3814 0.8395
H14 H 0.5258 0.4991 0.8780
H15 H 0.5246 0.4413 0.7666
N1 N 1.1205(3) -0.3017(2) 0.46915(17)
N2 N 0.5310(3) 0.3037(3) 0.44322(18)
N3 N 0.2495(2) 0.19367(14) 0.98255(14)
N4 N 0.3996(3) 0.23920(17) 0.91275(16)
O1 O 0.42046(19) -0.12715(15) 0.87133(13)
O2 O 0.5905(2) 0.01340(13) 0.86898(12)
O3 O 1.1357(3) -0.40802(18) 0.46425(18)
O4 O 1.2132(2) -0.23667(18) 0.39705(15)
O5 O 0.0415(2) 0.02295(14) 0.87680(13)
O6 O -0.1419(2) 0.18502(16) 0.87332(14)
O7 O 0.6439(3) 0.2305(3) 0.38674(18)
O8 O 0.5155(3) 0.4076(2) 0.41579(19)
H16 H 0.485(3) 0.193(2) 0.882(2)
Cd1A Cd 0.760939(17) 0.005362(12) 1.000894(11)
Cd1A_2 Cd -0.239061(17) 0.005362(12) 1.000894(11)
O2A O 0.4095(2) -0.01340(13) 1.13102(12)
O5A O -0.0415(2) -0.02295(14) 1.12320(13)
O6A O 0.1419(2) -0.18502(16) 1.12668(14)
loop_
_geom_bond_atom_site_label_1
_geom_bond_atom_site_label_2
_geom_bond_site_symmetry_1
_geom_bond_site_symmetry_2
Cd1 N3 1_555 1_555
C1 C2 1_555 1_555
C2 C3 1_555 1_555
C3 H1 1_555 1_555
C4 C3 1_555 1_555
H2 C4 1_555 1_555
C5 C4 1_555 1_555
C6 C5 1_555 1_555
H3 C6 1_555 1_555
C7 C2 1_555 1_555
H4 C7 1_555 1_555
C8 C9 1_555 1_555
C9 C10 1_555 1_555
C10 H5 1_555 1_555
C11 C10 1_555 1_555
H6 C11 1_555 1_555
C12 C11 1_555 1_555
C13 C12 1_555 1_555
H7 C13 1_555 1_555
C14 C9 1_555 1_555
H8 C14 1_555 1_555
C15 H9 1_555 1_555
H10 C15 1_555 1_555
H11 C15 1_555 1_555
C16 C15 1_555 1_555
C17 C16 1_555 1_555
H12 C17 1_555 1_555
C18 C17 1_555 1_555
C19 C18 1_555 1_555
H13 C19 1_555 1_555
H14 C19 1_555 1_555
H15 C19 1_555 1_555
N1 C5 1_555 1_555
N2 C12 1_555 1_555
N3 C16 1_555 1_555
N4 C18 1_555 1_555
O1 Cd1 1_555 1_555
O2 Cd1 1_555 1_555
O3 N1 1_555 1_555
O4 N1 1_555 1_555
O5 Cd1 1_555 1_555
O6 C8 1_555 1_555
O7 N2 1_555 1_555
O8 N2 1_555 1_555
H16 N4 1_555 1_555
Cd1A O2 1_555 1_555
Cd1A_2 O5 1_555 1_555
O2A Cd1 1_555 1_555
O5A Cd1 1_555 1_555
O6A Cd1 1_555 1_555
C1 O1 1_555 1_555
C1 O2 1_555 1_555
C6 C7 1_555 1_555
C8 O5 1_555 1_555
C13 C14 1_555 1_555
N3 N4 1_555 1_555
O6 Cd1A_2 1_555 1_555
Cd1A O2A 1_555 1_555
Cd1A_2 O5A 1_555 1_555

#END
