
#######################################################################
#
#                 Cambridge Crystallographic Data Centre
#                                CCDC 
#
#######################################################################
#
# If this CIF has been generated from an entry in the Cambridge 
# Structural Database, then it will include bibliographic, chemical, 
# crystal, experimental, refinement or atomic coordinate data resulting 
# from the CCDC's data processing and validation procedures.
#
#######################################################################

data_LIGXEF
_symmetry_cell_setting           triclinic
_symmetry_space_group_name_H-M   'P -1'
_symmetry_Int_Tables_number      2
_space_group_name_Hall           '-P 1'
loop_
_symmetry_equiv_pos_site_id
_symmetry_equiv_pos_as_xyz
1 x,y,z
2 -x,-y,-z
_cell_length_a                   7.8546(4)
_cell_length_b                   10.8632(7)
_cell_length_c                   13.3295(8)
_cell_angle_alpha                111.717(3)
_cell_angle_beta                 91.225(3)
_cell_angle_gamma                97.744(2)
_cell_volume                     1043.85
loop_
_atom_site_label
_atom_site_type_symbol
_atom_site_fract_x
_atom_site_fract_y
_atom_site_fract_z
Cd1 Cd 0.260055(15) -0.009455(13) 0.996923(11)
Cl1 Cl 0.31282(11) 0.10528(10) 0.47264(6)
Cl2 Cl 0.76714(14) -0.60972(9) 0.52215(8)
C1 C 0.0475(2) 0.03395(19) 0.74530(16)
C2 C 0.4921(2) -0.31121(19) 0.76692(15)
C3 C 0.3430(2) 0.2798(2) 0.95643(17)
C4 C 0.2926(3) 0.4056(2) 0.9956(2)
H1 H 0.3329 0.4781 0.9768
C5 C 0.4045(3) -0.2118(2) 0.85123(17)
C6 C -0.0396(2) 0.0111(2) 0.83657(17)
C7 C 0.1709(3) 0.4019(2) 1.06795(19)
C8 C 0.6594(3) -0.4935(3) 0.6167(2)
C9 C 0.1576(3) -0.0517(2) 0.68738(18)
H2 H 0.1769 -0.1237 0.7055
C10 C 0.6234(3) -0.2686(2) 0.71468(17)
H3 H 0.6558 -0.1774 0.7307
C11 C 0.0191(3) 0.1401(2) 0.7172(2)
H4 H -0.0564 0.1967 0.7549
C12 C 0.4449(3) -0.4469(2) 0.7424(2)
H5 H 0.3564 -0.4765 0.7771
C13 C 0.4719(3) 0.2295(2) 0.8766(2)
H6 H 0.5853 0.2550 0.9131
H7 H 0.4669 0.2674 0.8222
H8 H 0.4466 0.1335 0.8431
C14 C 0.0724(4) 0.5060(3) 1.1386(3)
H9 H -0.0468 0.4681 1.1328
H10 H 0.0825 0.5806 1.1157
H11 H 0.1183 0.5361 1.2124
C15 C 0.5286(4) -0.5391(2) 0.6665(2)
H12 H 0.4966 -0.6305 0.6495
C16 C 0.7074(3) -0.3605(3) 0.63871(19)
H13 H 0.7955 -0.3317 0.6032
C17 C 0.2097(3) 0.0777(3) 0.57831(18)
C18 C 0.2386(3) -0.0307(2) 0.6031(2)
H14 H 0.3114 -0.0886 0.5636
C19 C 0.1011(3) 0.1632(3) 0.6343(2)
H15 H 0.0831 0.2358 0.6165
O1 O 0.47014(18) -0.08763(14) 0.88369(12)
O2 O 0.01137(19) -0.07131(16) 0.87314(13)
O3 O 0.2734(2) -0.24847(17) 0.88847(15)
N1 N 0.1526(2) 0.27920(17) 1.06908(15)
N2 N 0.2581(2) 0.20113(16) 1.00092(14)
O4 O -0.16219(19) 0.07303(18) 0.87288(13)
H16 H 0.079(3) 0.247(3) 1.102(2)
Cd1A Cd 0.739945(15) 0.009455(13) 1.003077(11)
Cd1A_2 Cd -0.260055(15) 0.009455(13) 1.003077(11)
O1A O 0.52986(18) 0.08763(14) 1.11631(12)
O2A O -0.01137(19) 0.07131(16) 1.12686(13)
O4A O 0.16219(19) -0.07303(18) 1.12712(13)
loop_
_geom_bond_atom_site_label_1
_geom_bond_atom_site_label_2
_geom_bond_site_symmetry_1
_geom_bond_site_symmetry_2
Cd1 O1 1_555 1_555
Cl1 C17 1_555 1_555
Cl2 C8 1_555 1_555
C1 C6 1_555 1_555
C2 C5 1_555 1_555
C3 C4 1_555 1_555
C4 H1 1_555 1_555
C5 O1 1_555 1_555
C6 O2 1_555 1_555
C7 C4 1_555 1_555
C8 C15 1_555 1_555
C9 C1 1_555 1_555
H2 C9 1_555 1_555
C10 C2 1_555 1_555
H3 C10 1_555 1_555
C11 C1 1_555 1_555
H4 C11 1_555 1_555
C12 C2 1_555 1_555
H5 C12 1_555 1_555
C13 C3 1_555 1_555
H6 C13 1_555 1_555
H7 C13 1_555 1_555
H8 C13 1_555 1_555
C14 C7 1_555 1_555
H9 C14 1_555 1_555
H10 C14 1_555 1_555
H11 C14 1_555 1_555
C15 C12 1_555 1_555
H12 C15 1_555 1_555
C16 C8 1_555 1_555
H13 C16 1_555 1_555
C17 C18 1_555 1_555
C18 C9 1_555 1_555
H14 C18 1_555 1_555
C19 C11 1_555 1_555
H15 C19 1_555 1_555
O1 Cd1A 1_555 1_555
O2 Cd1 1_555 1_555
O3 Cd1 1_555 1_555
N1 C7 1_555 1_555
N2 Cd1 1_555 1_555
O4 C6 1_555 1_555
H16 N1 1_555 1_555
Cd1A O1A 1_555 1_555
Cd1A_2 O2 1_555 1_555
O1A Cd1 1_555 1_555
O2A Cd1 1_555 1_555
O4A Cd1 1_555 1_555
C3 N2 1_555 1_555
C5 O3 1_555 1_555
C10 C16 1_555 1_555
C17 C19 1_555 1_555
N1 N2 1_555 1_555
O4 Cd1A_2 1_555 1_555
Cd1A_2 O2A 1_555 1_555

#END
