
#######################################################################
#
#                 Cambridge Crystallographic Data Centre
#                                CCDC 
#
#######################################################################
#
# If this CIF has been generated from an entry in the Cambridge 
# Structural Database, then it will include bibliographic, chemical, 
# crystal, experimental, refinement or atomic coordinate data resulting 
# from the CCDC's data processing and validation procedures.
#
#######################################################################

data_LIGZAE
_symmetry_cell_setting           triclinic
_symmetry_space_group_name_H-M   'P -1'
_symmetry_Int_Tables_number      2
_space_group_name_Hall           '-P 1'
loop_
_symmetry_equiv_pos_site_id
_symmetry_equiv_pos_as_xyz
1 x,y,z
2 -x,-y,-z
_cell_length_a                   11.779(5)
_cell_length_b                   11.811(6)
_cell_length_c                   20.942(3)
_cell_angle_alpha                75.872(4)
_cell_angle_beta                 81.890(5)
_cell_angle_gamma                77.105(7)
_cell_volume                     2742.53
loop_
_atom_site_label
_atom_site_type_symbol
_atom_site_fract_x
_atom_site_fract_y
_atom_site_fract_z
Zn1 Zn 0.48468(5) 0.14215(4) 0.57418(3)
O1 O 0.6388(3) 0.1373(3) 0.52406(17)
N1 N 0.4180(3) 0.2579(3) 0.6332(2)
O2 O 0.4400(3) -0.0129(3) 0.60402(18)
N2 N 0.3790(3) 0.2062(3) 0.4984(2)
C1 C 0.7211(4) 0.1620(4) 0.5503(3)
C2 C 0.5014(4) -0.0768(4) 0.6493(2)
O3 O 0.7082(3) 0.1819(3) 0.60630(19)
C3 C 0.8350(4) 0.1657(4) 0.5091(3)
O4 O 0.5742(3) -0.0398(3) 0.67271(18)
C4 C 0.4866(4) -0.2040(4) 0.6740(2)
C5 C 0.9190(5) 0.2115(6) 0.5288(3)
C6 C 0.8623(5) 0.1266(6) 0.4504(3)
C7 C 0.4303(4) -0.2548(4) 0.6378(2)
C8 C 0.5305(5) -0.2726(4) 0.7323(3)
H1 H 0.9037 0.2387 0.5679
C9 C 1.0265(5) 0.2179(6) 0.4916(3)
C10 C 0.9706(5) 0.1284(6) 0.4138(3)
H2 H 0.8063 0.0983 0.4348
C11 C 0.4174(4) -0.3733(4) 0.6598(2)
H3 H 0.4010 -0.2098 0.5985
C12 C 0.5176(5) -0.3906(5) 0.7538(3)
H4 H 0.5686 -0.2397 0.7572
H5 H 1.0804 0.2516 0.5054
C13 C 1.0533(5) 0.1756(5) 0.4354(3)
H6 H 0.9876 0.0986 0.3756
C14 C 0.4601(4) -0.4407(4) 0.7185(2)
H7 H 0.3800 -0.4068 0.6350
H8 H 0.5484 -0.4362 0.7926
C15 C 1.1702(4) 0.1793(5) 0.3945(3)
C16 C 0.4423(4) -0.5666(4) 0.7477(2)
N3 N 1.2538(3) 0.2149(4) 0.4258(2)
H9 H 1.2030 0.1009 0.3859
H10 H 1.1573 0.2343 0.3523
H11 H 0.3840 -0.5654 0.7854
H12 H 0.5150 -0.6144 0.7640
N4 N 0.4054(4) -0.6244(3) 0.7025(2)
C17 C 1.3211(4) 0.1459(4) 0.4738(2)
C18 C 1.2690(4) 0.3315(5) 0.4202(3)
C19 C 0.2941(4) -0.6104(4) 0.6853(2)
C20 C 0.4748(4) -0.7034(4) 0.6698(2)
H13 H 1.3257 0.0641 0.4880
C21 C 1.3456(4) 0.3249(4) 0.4659(2)
C22 C 1.2252(5) 0.4390(6) 0.3771(3)
C23 C 0.1875(5) -0.5411(4) 0.7045(3)
C24 C 0.3012(4) -0.6850(4) 0.6422(2)
H14 H 0.5549 -0.7277 0.6732
C25 C 1.3786(5) 0.4262(4) 0.4738(3)
C26 C 1.2596(6) 0.5386(5) 0.3851(3)
H15 H 1.1762 0.4428 0.3452
C27 C 0.0915(5) -0.5473(5) 0.6781(3)
H16 H 0.1831 -0.4929 0.7342
C28 C 0.2009(4) -0.6933(4) 0.6162(3)
H17 H 1.4287 0.4225 0.5051
C29 C 1.3337(5) 0.5320(5) 0.4329(3)
H18 H 1.2326 0.6121 0.3579
H19 H 0.0205 -0.4993 0.6884
C30 C 0.0953(5) -0.6239(5) 0.6354(3)
H20 H 0.2045 -0.7431 0.5874
H21 H 1.3532 0.6017 0.4372
H22 H 0.0266 -0.6283 0.6199
N2_2 N 1.3790(3) 0.2062(3) 0.4984(2)
N1_2 N 0.4180(3) -0.7421(3) 0.6332(2)
Zn1_2 Zn 1.48468(5) 0.14215(4) 0.57418(3)
Zn1_3 Zn 0.48468(5) -0.85785(4) 0.57418(3)
Zn2 Zn 1.03113(5) 0.37401(5) 0.91235(3)
O5 O 1.0187(3) 0.5450(3) 0.87749(18)
O6 O 1.2132(3) 0.5088(3) 0.86316(19)
O7 O 0.8768(3) 0.3531(3) 0.95674(19)
O8 O 0.7937(3) 0.3939(4) 0.86162(19)
N5 N 1.0994(3) 1.2660(3) 0.8502(2)
N6 N 1.1149(4) 1.1458(3) 0.7803(2)
N7 N 0.1274(3) 0.3027(3) 0.98987(19)
N8 N 0.2675(3) 0.2772(4) 1.0549(2)
C31 C 1.1178(4) 0.5776(4) 0.8584(3)
C32 C 1.1091(4) 0.7080(4) 0.8277(3)
C33 C 1.1949(5) 0.7457(5) 0.7791(3)
H23 H 1.2591 0.6907 0.7670
C34 C 1.1842(5) 0.8665(5) 0.7486(3)
H24 H 1.2399 0.8912 0.7151
C35 C 1.0915(4) 0.9494(4) 0.7680(2)
C36 C 1.0071(5) 0.9127(4) 0.8166(3)
H25 H 0.9445 0.9681 0.8298
C37 C 1.0163(5) 0.7920(5) 0.8459(3)
H26 H 0.9588 0.7676 0.8783
C38 C 1.0809(5) 1.0828(4) 0.7370(3)
H27 H 1.1302 1.0930 0.6956
H28 H 1.0007 1.1170 0.7273
C39 C 1.0443(4) 1.2232(4) 0.8132(2)
H29 H 0.9640 1.2447 0.8103
C40 C 1.2166(4) 1.2119(4) 0.8410(2)
C41 C 1.3139(4) 1.2248(4) 0.8661(2)
H30 H 1.3079 1.2751 0.8948
C42 C 1.4214(5) 1.1595(4) 0.8467(3)
H31 H 1.4884 1.1652 0.8635
C43 C 1.4309(5) 1.0862(5) 0.8028(3)
H32 H 1.5048 1.0457 0.7903
C44 C 1.3352(4) 1.0708(4) 0.7770(3)
H33 H 1.3422 1.0208 0.7480
C45 C 1.2273(4) 1.1351(4) 0.7973(3)
C46 C 0.7910(4) 0.3660(4) 0.9234(3)
C47 C 0.6772(4) 0.3512(4) 0.9656(3)
C48 C 0.5741(4) 0.3763(4) 0.9368(3)
H34 H 0.5742 0.4029 0.8911
C49 C 0.4699(4) 0.3622(4) 0.9750(3)
H35 H 0.4005 0.3817 0.9550
C50 C 0.4684(4) 0.3194(4) 1.0430(3)
C51 C 0.5729(5) 0.2913(4) 1.0720(3)
H36 H 0.5734 0.2615 1.1173
C52 C 0.6770(5) 0.3072(5) 1.0337(3)
H37 H 0.7466 0.2885 1.0536
C53 C 0.3571(4) 0.3085(5) 1.0869(3)
H38 H 0.3749 0.2480 1.1267
H39 H 0.3252 0.3835 1.0999
C54 C 0.1893(4) 0.3554(4) 1.0167(2)
H40 H 0.1802 0.4376 1.0100
C55 C 0.1676(4) 0.1799(4) 1.0120(2)
C56 C 0.1294(4) 0.0831(4) 1.0003(3)
H41 H 0.0680 0.0936 0.9746
C57 C 0.1883(5) -0.0296(5) 1.0293(3)
H42 H 0.1668 -0.0964 1.0223
C58 C 0.2791(5) -0.0445(5) 1.0689(3)
H43 H 0.3162 -0.1213 1.0874
C59 C 0.3157(5) 0.0503(5) 1.0815(3)
H44 H 0.3763 0.0393 1.1079
C60 C 0.2571(4) 0.1634(4) 1.0526(3)
Zn2_2 Zn 0.03113(5) 0.37401(5) 0.91235(3)
Zn2_3 Zn 1.03113(5) 1.37401(5) 0.91235(3)
N5_2 N 1.0994(3) 0.2660(3) 0.8502(2)
N7_2 N 1.1274(3) 0.3027(3) 0.98987(19)
O9 O 0.8478(3) 0.6269(3) 0.7820(2)
H45 H 0.8994 0.5953 0.8102
H46 H 0.8094 0.5798 0.7746
O10 O 0.7326(3) 0.8784(3) 0.7676(2)
H47 H 0.6756 0.8844 0.7437
H48 H 0.7881 0.8172 0.7618
O11 O 0.8071(4) 0.0958(4) 0.7258(2)
H49 H 0.7899 0.1653 0.7330
H50 H 0.7873 0.1051 0.6867
O12 O 0.6917(4) 0.2825(4) 0.7851(3)
loop_
_geom_bond_atom_site_label_1
_geom_bond_atom_site_label_2
_geom_bond_site_symmetry_1
_geom_bond_site_symmetry_2
Zn1 O1 1_555 1_555
O1 C1 1_555 1_555
N1 Zn1 1_555 1_555
O2 Zn1 1_555 1_555
N2 Zn1 1_555 1_555
C1 O3 1_555 1_555
C2 O2 1_555 1_555
C3 C1 1_555 1_555
O4 C2 1_555 1_555
C4 C2 1_555 1_555
C5 C3 1_555 1_555
C6 C3 1_555 1_555
C7 C4 1_555 1_555
C8 C4 1_555 1_555
H1 C5 1_555 1_555
C9 C5 1_555 1_555
C10 C6 1_555 1_555
H2 C6 1_555 1_555
C11 C7 1_555 1_555
H3 C7 1_555 1_555
C12 C8 1_555 1_555
H4 C8 1_555 1_555
H5 C9 1_555 1_555
C13 C9 1_555 1_555
H6 C10 1_555 1_555
C14 C11 1_555 1_555
H7 C11 1_555 1_555
H8 C12 1_555 1_555
C15 C13 1_555 1_555
C16 C14 1_555 1_555
N3 C15 1_555 1_555
H9 C15 1_555 1_555
H10 C15 1_555 1_555
H11 C16 1_555 1_555
H12 C16 1_555 1_555
N4 C16 1_555 1_555
C17 N3 1_555 1_555
C18 N3 1_555 1_555
C19 N4 1_555 1_555
C20 N4 1_555 1_555
H13 C17 1_555 1_555
C21 C18 1_555 1_555
C22 C18 1_555 1_555
C23 C19 1_555 1_555
C24 C19 1_555 1_555
H14 C20 1_555 1_555
C25 C21 1_555 1_555
C26 C22 1_555 1_555
H15 C22 1_555 1_555
C27 C23 1_555 1_555
H16 C23 1_555 1_555
C28 C24 1_555 1_555
H17 C25 1_555 1_555
C29 C25 1_555 1_555
H18 C26 1_555 1_555
H19 C27 1_555 1_555
C30 C27 1_555 1_555
H20 C28 1_555 1_555
H21 C29 1_555 1_555
H22 C30 1_555 1_555
Zn2 O5 1_555 1_555
O5 C31 1_555 1_555
O6 C31 1_555 1_555
O7 Zn2 1_555 1_555
O8 C46 1_555 1_555
N5 C39 1_555 1_555
N6 C38 1_555 1_555
N7 C54 1_555 1_555
N8 C53 1_555 1_555
C31 C32 1_555 1_555
C32 C33 1_555 1_555
C33 H23 1_555 1_555
C34 C33 1_555 1_555
H24 C34 1_555 1_555
C35 C34 1_555 1_555
C36 C35 1_555 1_555
H25 C36 1_555 1_555
C37 C32 1_555 1_555
H26 C37 1_555 1_555
C38 C35 1_555 1_555
H27 C38 1_555 1_555
H28 C38 1_555 1_555
C39 N6 1_555 1_555
H29 C39 1_555 1_555
C40 N5 1_555 1_555
C41 C40 1_555 1_555
H30 C41 1_555 1_555
C42 C41 1_555 1_555
H31 C42 1_555 1_555
C43 C42 1_555 1_555
H32 C43 1_555 1_555
C44 C43 1_555 1_555
H33 C44 1_555 1_555
C45 N6 1_555 1_555
C46 O7 1_555 1_555
C47 C46 1_555 1_555
C48 C47 1_555 1_555
H34 C48 1_555 1_555
C49 C48 1_555 1_555
H35 C49 1_555 1_555
C50 C49 1_555 1_555
C51 C50 1_555 1_555
H36 C51 1_555 1_555
C52 C47 1_555 1_555
H37 C52 1_555 1_555
C53 C50 1_555 1_555
H38 C53 1_555 1_555
H39 C53 1_555 1_555
C54 N8 1_555 1_555
H40 C54 1_555 1_555
C55 N7 1_555 1_555
C56 C55 1_555 1_555
H41 C56 1_555 1_555
C57 C56 1_555 1_555
H42 C57 1_555 1_555
C58 C57 1_555 1_555
H43 C58 1_555 1_555
C59 C58 1_555 1_555
H44 C59 1_555 1_555
C60 N8 1_555 1_555
O9 H45 1_555 1_555
H46 O9 1_555 1_555
O10 H47 1_555 1_555
H48 O10 1_555 1_555
O11 H49 1_555 1_555
H50 O11 1_555 1_555
N2_2 C17 1_555 1_555
N1_2 C20 1_555 1_555
Zn1_2 N2_2 1_555 1_555
Zn1_3 N1_2 1_555 1_555
Zn2_2 N7 1_555 1_555
Zn2_3 N5 1_555 1_555
N5_2 Zn2 1_555 1_555
N7_2 Zn2 1_555 1_555
C10 C13 1_555 1_555
C12 C14 1_555 1_555
C21 N2_2 1_555 1_555
C24 N1_2 1_555 1_555
C26 C29 1_555 1_555
C28 C30 1_555 1_555
C36 C37 1_555 1_555
C40 C45 1_555 1_555
C44 C45 1_555 1_555
C51 C52 1_555 1_555
C55 C60 1_555 1_555
C59 C60 1_555 1_555

#END
