
#######################################################################
#
#                 Cambridge Crystallographic Data Centre
#                                CCDC 
#
#######################################################################
#
# If this CIF has been generated from an entry in the Cambridge 
# Structural Database, then it will include bibliographic, chemical, 
# crystal, experimental, refinement or atomic coordinate data resulting 
# from the CCDC's data processing and validation procedures.
#
#######################################################################

data_LIGZAC
_symmetry_cell_setting           monoclinic
_symmetry_space_group_name_H-M   'P 21/n'
_symmetry_Int_Tables_number      14
_space_group_name_Hall           '-P 2yn'
loop_
_symmetry_equiv_pos_site_id
_symmetry_equiv_pos_as_xyz
1 x,y,z
2 1/2-x,1/2+y,1/2-z
3 -x,-y,-z
4 1/2+x,1/2-y,1/2+z
_cell_length_a                   12.754
_cell_length_b                   11.582
_cell_length_c                   16.437
_cell_angle_alpha                90
_cell_angle_beta                 102.93
_cell_angle_gamma                90
_cell_volume                     2366.46
loop_
_atom_site_label
_atom_site_type_symbol
_atom_site_fract_x
_atom_site_fract_y
_atom_site_fract_z
Sn1 Sn 0.23946(2) 0.16276(2) 0.27551(1)
O1 O 0.1823(2) 0.3266(2) 0.3230(1)
O2 O 0.2106(2) 0.4851(2) 0.2556(1)
O3 O 0.1166(3) 0.6459(3) 0.7595(2)
O4 O 0.1364(3) 0.7724(3) 0.6555(2)
C1 C 0.1045(2) 0.1618(3) 0.1736(2)
C2 C 0.0502(3) 0.0611(3) 0.1441(2)
C3 C -0.0410(3) 0.0650(4) 0.0799(3)
C4 C -0.0768(3) 0.1674(5) 0.0431(3)
C5 C -0.0240(4) 0.2667(4) 0.0710(3)
C6 C 0.0661(3) 0.2639(3) 0.1362(2)
C7 C 0.3854(3) 0.2397(3) 0.2622(2)
C8 C 0.3906(3) 0.3043(3) 0.1933(2)
C9 C 0.4858(3) 0.3564(4) 0.1857(3)
C10 C 0.5764(3) 0.3439(4) 0.2475(3)
C11 C 0.5735(3) 0.2812(4) 0.3162(3)
C12 C 0.4787(3) 0.2295(4) 0.3242(3)
C13 C 0.2302(3) 0.0926(3) 0.3928(2)
C14 C 0.3063(4) 0.0163(4) 0.4352(2)
C15 C 0.2978(5) -0.0286(5) 0.5105(3)
C16 C 0.2160(6) -0.0015(6) 0.5453(3)
C17 C 0.1403(5) 0.0726(5) 0.5051(3)
C18 C 0.1444(3) 0.1217(4) 0.4285(3)
C19 C 0.1440(3) 0.5040(4) 0.5371(2)
C20 C 0.1307(4) 0.4306(4) 0.6007(3)
C21 C 0.1188(4) 0.4706(5) 0.6779(3)
C22 C 0.1273(3) 0.5861(4) 0.6890(2)
C23 C 0.1352(3) 0.6605(4) 0.6272(2)
C24 C 0.1460(3) 0.6234(4) 0.5509(2)
C25 C 0.1570(3) 0.4527(3) 0.4593(2)
C26 C 0.1771(3) 0.5023(3) 0.3922(2)
C27 C 0.1905(3) 0.4356(3) 0.3190(2)
C28 C 0.1246(4) 0.7628(5) 0.7394(3)
O2A O 0.2894(2) -0.0149(2) 0.2444(1)
Sn1A Sn 0.26054(2) 0.66276(2) 0.22449(1)
loop_
_geom_bond_atom_site_label_1
_geom_bond_atom_site_label_2
_geom_bond_site_symmetry_1
_geom_bond_site_symmetry_2
Sn1 O1 1_555 1_555
O1 C27 1_555 1_555
O2 C27 1_555 1_555
O3 C22 1_555 1_555
O4 C23 1_555 1_555
C1 Sn1 1_555 1_555
C2 C1 1_555 1_555
C3 C2 1_555 1_555
C4 C3 1_555 1_555
C5 C4 1_555 1_555
C6 C1 1_555 1_555
C7 Sn1 1_555 1_555
C8 C7 1_555 1_555
C9 C8 1_555 1_555
C10 C9 1_555 1_555
C11 C10 1_555 1_555
C12 C7 1_555 1_555
C13 Sn1 1_555 1_555
C14 C13 1_555 1_555
C15 C14 1_555 1_555
C16 C15 1_555 1_555
C17 C16 1_555 1_555
C18 C13 1_555 1_555
C19 C20 1_555 1_555
C20 C21 1_555 1_555
C21 C22 1_555 1_555
C22 C23 1_555 1_555
C23 C24 1_555 1_555
C24 C19 1_555 1_555
C25 C19 1_555 1_555
C26 C25 1_555 1_555
C27 C26 1_555 1_555
C28 O3 1_555 1_555
O2A Sn1 1_555 1_555
Sn1A O2 1_555 1_555
O4 C28 1_555 1_555
C5 C6 1_555 1_555
C11 C12 1_555 1_555
C17 C18 1_555 1_555

#END
