
#######################################################################
#
#                 Cambridge Crystallographic Data Centre
#                                CCDC 
#
#######################################################################
#
# If this CIF has been generated from an entry in the Cambridge 
# Structural Database, then it will include bibliographic, chemical, 
# crystal, experimental, refinement or atomic coordinate data resulting 
# from the CCDC's data processing and validation procedures.
#
#######################################################################

data_LIHBUB
_symmetry_cell_setting           orthorhombic
_symmetry_space_group_name_H-M   'P 21 21 21'
_symmetry_Int_Tables_number      19
_space_group_name_Hall           'P 2ac 2ab'
loop_
_symmetry_equiv_pos_site_id
_symmetry_equiv_pos_as_xyz
1 x,y,z
2 1/2-x,-y,1/2+z
3 1/2+x,1/2-y,-z
4 -x,1/2+y,1/2-z
_cell_length_a                   6.6828(8)
_cell_length_b                   8.4311(10)
_cell_length_c                   17.722(2)
_cell_angle_alpha                90
_cell_angle_beta                 90
_cell_angle_gamma                90
_cell_volume                     998.517
loop_
_atom_site_label
_atom_site_type_symbol
_atom_site_fract_x
_atom_site_fract_y
_atom_site_fract_z
N1 N 0.7422(7) 0.4702(4) 0.6967(2)
N2 N 0.7640(7) 0.5555(4) 0.5802(2)
H1 H 0.8075 0.5674 0.5349
Zn1 Zn 0.27187(9) 0.89928(7) 0.68898(3)
O1 O 0.2698(6) 0.6648(4) 0.72362(19)
N3 N 1.2338(8) 0.1455(5) 0.6448(2)
C1 C 0.4116(9) 0.5712(7) 0.7346(3)
C2 C 1.0369(9) 0.3759(6) 0.6200(3)
O2 O 0.4170(6) 0.4707(5) 0.7876(2)
O3 O 0.4711(6) 0.6830(5) 0.4905(2)
C3 C 1.0760(9) 0.2354(7) 0.6593(3)
H2 H 0.9878 0.2040 0.6970
C4 C 0.4682(8) 0.7219(7) 0.5576(4)
C5 C 1.1686(8) 0.4211(7) 0.5647(3)
H3 H 1.1454 0.5134 0.5374
O4 O 0.3697(6) 0.8379(4) 0.5830(2)
C6 C 0.5829(7) 0.5685(6) 0.6812(3)
C7 C 0.5968(8) 0.6233(6) 0.6088(3)
C8 C 1.3647(9) 0.1957(7) 0.5914(3)
H4 H 1.4798 0.1366 0.5826
C9 C 0.8524(9) 0.4657(7) 0.6345(3)
C10 C 1.3330(8) 0.3314(7) 0.5496(3)
H5 H 1.4223 0.3610 0.5119
O5 O -0.0323(6) 0.8656(5) 0.6608(2)
H6 H -0.044(6) 0.866(6) 0.6133(6)
H7 H -0.102(5) 0.939(5) 0.680(2)
N1C N 0.2578(7) 0.9702(4) 0.8033(2)
Zn1_2 Zn 1.27187(9) -0.10072(7) 0.68898(3)
Zn1C Zn 0.72813(9) 0.39928(7) 0.81102(3)
N3_2 N 0.2338(8) 1.1455(5) 0.6448(2)
O2C O 0.5830(6) 0.9707(5) 0.7124(2)
loop_
_geom_bond_atom_site_label_1
_geom_bond_atom_site_label_2
_geom_bond_site_symmetry_1
_geom_bond_site_symmetry_2
N1 C6 1_555 1_555
N2 H1 1_555 1_555
Zn1 O1 1_555 1_555
O1 C1 1_555 1_555
N3 C3 1_555 1_555
C1 O2 1_555 1_555
C2 C3 1_555 1_555
O2 Zn1C 1_555 1_555
O3 C4 1_555 1_555
C3 H2 1_555 1_555
C4 O4 1_555 1_555
C5 C2 1_555 1_555
H3 C5 1_555 1_555
O4 Zn1 1_555 1_555
C6 C1 1_555 1_555
C7 N2 1_555 1_555
C8 N3 1_555 1_555
H4 C8 1_555 1_555
C9 N1 1_555 1_555
C10 C5 1_555 1_555
H5 C10 1_555 1_555
O5 Zn1 1_555 1_555
H6 O5 1_555 1_555
H7 O5 1_555 1_555
N1C Zn1 1_555 1_555
Zn1_2 N3 1_555 1_555
Zn1C N1 1_555 1_555
N3_2 Zn1 1_555 1_555
O2C Zn1 1_555 1_555
N2 C9 1_555 1_555
C2 C9 1_555 1_555
C4 C7 1_555 1_555
C6 C7 1_555 1_555
C8 C10 1_555 1_555

#END
