
#######################################################################
#
#                 Cambridge Crystallographic Data Centre
#                                CCDC 
#
#######################################################################
#
# If this CIF has been generated from an entry in the Cambridge 
# Structural Database, then it will include bibliographic, chemical, 
# crystal, experimental, refinement or atomic coordinate data resulting 
# from the CCDC's data processing and validation procedures.
#
#######################################################################

data_LIHBUB01
_symmetry_cell_setting           orthorhombic
_symmetry_space_group_name_H-M   'P 21 21 21'
_symmetry_Int_Tables_number      19
_space_group_name_Hall           'P 2ac 2ab'
loop_
_symmetry_equiv_pos_site_id
_symmetry_equiv_pos_as_xyz
1 x,y,z
2 1/2-x,-y,1/2+z
3 -x,1/2+y,1/2-z
4 1/2+x,1/2-y,-z
_cell_length_a                   6.7011(13)
_cell_length_b                   8.4530(17)
_cell_length_c                   17.778(4)
_cell_angle_alpha                90
_cell_angle_beta                 90
_cell_angle_gamma                90
_cell_volume                     1007.02
loop_
_atom_site_label
_atom_site_type_symbol
_atom_site_fract_x
_atom_site_fract_y
_atom_site_fract_z
Zn1 Zn 0.77194(5) 0.10062(4) 0.811055(18)
O1 O 0.7702(4) 0.3362(2) 0.77683(12)
O2 O 0.4666(3) 0.1330(3) 0.83850(13)
O3 O 0.8699(4) 0.1629(3) 0.91696(12)
N1 N 0.7363(4) -0.1454(3) 0.85526(14)
N2 N 0.7565(4) 0.0298(3) 0.69636(13)
O4 O 1.0814(4) 0.0297(3) 0.78758(12)
C1 C 0.5756(5) -0.2353(4) 0.84072(18)
C2 C 0.8641(5) -0.1945(4) 0.90839(18)
C3 C 0.5358(5) -0.3752(4) 0.87983(17)
H1 H 0.480(6) -0.193(5) 0.804(2)
C4 C 0.8340(5) -0.3292(4) 0.94995(19)
H2 H 0.978(6) -0.124(5) 0.915(2)
C5 C 0.6684(5) -0.4208(4) 0.93630(17)
C6 C 0.3521(5) -0.4657(4) 0.86584(16)
H3 H 0.931(8) -0.368(6) 0.986(3)
H4 H 0.647(6) -0.527(4) 0.9632(18)
N3 N 0.2650(4) -0.5554(3) 0.91973(14)
C7 C 0.0836(4) -0.5677(3) 0.81864(17)
H5 H 0.297(6) -0.564(5) 0.959(2)
C8 C 0.0959(5) -0.6235(3) 0.89100(17)
C9 C -0.0876(5) -0.5709(4) 0.76548(16)
C10 C -0.0314(5) -0.7216(4) 0.94195(17)
O5 O -0.0288(4) -0.6828(3) 1.00946(13)
N2B N 0.2435(4) -0.4702(3) 0.80364(13)
Zn1B Zn 0.22806(5) -0.39938(4) 0.688945(18)
O4B O -0.0814(4) -0.4703(3) 0.71242(12)
O1_2 O -0.2298(4) -0.6638(2) 0.77683(12)
O3_2 O -0.1301(4) -0.8371(3) 0.91696(12)
Zn1_2 Zn -0.22806(5) -0.89938(4) 0.811055(18)
loop_
_geom_bond_atom_site_label_1
_geom_bond_atom_site_label_2
_geom_bond_site_symmetry_1
_geom_bond_site_symmetry_2
Zn1 O1 1_555 1_555
O2 Zn1 1_555 1_555
O3 Zn1 1_555 1_555
N1 Zn1 1_555 1_555
N2 Zn1 1_555 1_555
O4 Zn1 1_555 1_555
C1 N1 1_555 1_555
C2 N1 1_555 1_555
C3 C1 1_555 1_555
H1 C1 1_555 1_555
C4 C2 1_555 1_555
H2 C2 1_555 1_555
C5 C3 1_555 1_555
C6 C3 1_555 1_555
H3 C4 1_555 1_555
H4 C5 1_555 1_555
N3 C6 1_555 1_555
C7 C8 1_555 1_555
H5 N3 1_555 1_555
C8 N3 1_555 1_555
C9 C7 1_555 1_555
C10 C8 1_555 1_555
O5 C10 1_555 1_555
N2B C6 1_555 1_555
Zn1B N2B 1_555 1_555
O4B C9 1_555 1_555
O1_2 C9 1_555 1_555
O3_2 C10 1_555 1_555
Zn1_2 O1_2 1_555 1_555
C4 C5 1_555 1_555
C7 N2B 1_555 1_555
Zn1B O4B 1_555 1_555
O3_2 Zn1_2 1_555 1_555

#END
