
#######################################################################
#
#                 Cambridge Crystallographic Data Centre
#                                CCDC 
#
#######################################################################
#
# If this CIF has been generated from an entry in the Cambridge 
# Structural Database, then it will include bibliographic, chemical, 
# crystal, experimental, refinement or atomic coordinate data resulting 
# from the CCDC's data processing and validation procedures.
#
#######################################################################

data_LIHFUF
_symmetry_cell_setting           monoclinic
_symmetry_space_group_name_H-M   'P 21/c'
_symmetry_Int_Tables_number      14
_space_group_name_Hall           '-P 2ybc'
loop_
_symmetry_equiv_pos_site_id
_symmetry_equiv_pos_as_xyz
1 x,y,z
2 -x,1/2+y,1/2-z
3 -x,-y,-z
4 x,1/2-y,1/2+z
_cell_length_a                   9.352(3)
_cell_length_b                   7.293(2)
_cell_length_c                   9.922(3)
_cell_angle_alpha                90
_cell_angle_beta                 106.198(4)
_cell_angle_gamma                90
_cell_volume                     649.858
loop_
_atom_site_label
_atom_site_type_symbol
_atom_site_fract_x
_atom_site_fract_y
_atom_site_fract_z
Ca1 Ca 0.5000 0.5000 0.0000
O1 O 0.54478(17) 0.5979(2) 0.22610(16)
O2 O 0.54989(16) 0.7119(2) 0.43551(16)
O3 O 0.24247(18) 0.5697(3) -0.02665(19)
N1 N 0.8132(2) 0.5493(3) 0.5647(2)
N2 N 0.9404(2) 0.6430(3) 0.6188(2)
N3 N 0.9619(2) 0.6441(3) 0.7536(2)
N4 N 0.8507(2) 0.5526(3) 0.7895(2)
C1 C 0.7606(3) 0.4961(3) 0.6702(3)
H1 H 0.6718 0.4278 0.6606
C2 C 0.7514(3) 0.5223(3) 0.4144(2)
C3 C 0.6032(2) 0.6204(3) 0.3541(2)
H2 H 0.823(3) 0.568(4) 0.369(3)
H3 H 0.740(3) 0.389(5) 0.395(3)
H4 H 0.173(4) 0.590(5) -0.088(3)
H5 H 0.200(4) 0.530(5) 0.036(4)
O1B O 0.45522(17) 0.4021(2) -0.22610(16)
O2B O 0.45011(16) 0.2881(2) -0.43551(16)
O3B O 0.75753(18) 0.4303(3) 0.02665(19)
N1B N 0.1868(2) 0.4507(3) -0.5647(2)
N2B N 0.0596(2) 0.3570(3) -0.6188(2)
N3B N 0.0381(2) 0.3559(3) -0.7536(2)
N4B N 0.1493(2) 0.4474(3) -0.7895(2)
C1B C 0.2394(3) 0.5039(3) -0.6702(3)
H1B H 0.3282 0.5722 -0.6606
C2B C 0.2486(3) 0.4777(3) -0.4144(2)
C3B C 0.3968(2) 0.3796(3) -0.3541(2)
H2B H 0.177(3) 0.432(4) -0.369(3)
H3B H 0.260(3) 0.611(5) -0.395(3)
H4B H 0.827(4) 0.410(5) 0.088(3)
H5B H 0.800(4) 0.470(5) -0.036(4)
Ca1A Ca 0.5000 0.0000 -0.5000
Ca1A_2 Ca 0.5000 1.0000 0.5000
O2A O 0.45011(16) 0.2119(2) 0.06449(16)
O2C O 0.54989(16) 0.7881(2) -0.06449(16)
loop_
_geom_bond_atom_site_label_1
_geom_bond_atom_site_label_2
_geom_bond_site_symmetry_1
_geom_bond_site_symmetry_2
Ca1 O1 1_555 1_555
O1 C3 1_555 1_555
O2 C3 1_555 1_555
O3 Ca1 1_555 1_555
N1 N2 1_555 1_555
N2 N3 1_555 1_555
N3 N4 1_555 1_555
N4 C1 1_555 1_555
C1 N1 1_555 1_555
H1 C1 1_555 1_555
C2 N1 1_555 1_555
C3 C2 1_555 1_555
H2 C2 1_555 1_555
H3 C2 1_555 1_555
H4 O3 1_555 1_555
H5 O3 1_555 1_555
O1B Ca1 1_555 1_555
O2B C3B 1_555 1_555
O3B Ca1 1_555 1_555
N1B N2B 1_555 1_555
N2B N3B 1_555 1_555
N3B N4B 1_555 1_555
N4B C1B 1_555 1_555
C1B N1B 1_555 1_555
H1B C1B 1_555 1_555
C2B N1B 1_555 1_555
C3B O1B 1_555 1_555
H2B C2B 1_555 1_555
H3B C2B 1_555 1_555
H4B O3B 1_555 1_555
H5B O3B 1_555 1_555
Ca1A O2B 1_555 1_555
Ca1A_2 O2 1_555 1_555
O2A Ca1 1_555 1_555
O2C Ca1 1_555 1_555
C2B C3B 1_555 1_555

#END
