
#######################################################################
#
#                 Cambridge Crystallographic Data Centre
#                                CCDC 
#
#######################################################################
#
# If this CIF has been generated from an entry in the Cambridge 
# Structural Database, then it will include bibliographic, chemical, 
# crystal, experimental, refinement or atomic coordinate data resulting 
# from the CCDC's data processing and validation procedures.
#
#######################################################################

data_LIHGIU
_symmetry_cell_setting           monoclinic
_symmetry_space_group_name_H-M   'P 21/c'
_symmetry_Int_Tables_number      14
_space_group_name_Hall           '-P 2ybc'
loop_
_symmetry_equiv_pos_site_id
_symmetry_equiv_pos_as_xyz
1 x,y,z
2 -x,1/2+y,1/2-z
3 -x,-y,-z
4 x,1/2-y,1/2+z
_cell_length_a                   12.5241(8)
_cell_length_b                   17.6241(11)
_cell_length_c                   8.4720(5)
_cell_angle_alpha                90
_cell_angle_beta                 107.7210(10)
_cell_angle_gamma                90
_cell_volume                     1781.26
loop_
_atom_site_label
_atom_site_type_symbol
_atom_site_fract_x
_atom_site_fract_y
_atom_site_fract_z
Mn1 Mn 0.33066(3) 0.244065(18) 0.96425(4)
Cl1 Cl -0.15732(6) 0.39448(4) 0.37773(9)
Cl2 Cl 0.84399(5) 0.39291(3) 0.88744(8)
O1 O 0.21819(13) 0.31651(9) 0.96234(19)
O2 O 0.44171(13) 0.31557(9) 1.06889(18)
N1 N 0.20844(16) 0.17304(11) 0.8311(2)
N2 N 0.45391(16) 0.17351(10) 0.9413(2)
N3 N 0.33211(16) 0.19592(11) 1.2059(2)
N4 N 0.33772(16) 0.12840(11) 1.2325(2)
N5 N 0.34312(18) 0.06429(12) 1.2614(3)
C1 C 0.13422(19) 0.33271(13) 0.8291(3)
C2 C 0.0931(2) 0.40743(13) 0.8026(3)
H1 H 0.1263 0.4456 0.8814
C3 C 0.0058(2) 0.42620(14) 0.6645(3)
H2 H -0.0195 0.4772 0.6470
C4 C -0.0454(2) 0.37010(15) 0.5503(3)
C5 C -0.0091(2) 0.29620(14) 0.5732(3)
H3 H -0.0452 0.2583 0.4956
C6 C 0.08155(19) 0.27692(14) 0.7120(3)
C7 C 0.1167(2) 0.19837(13) 0.7320(3)
H4 H 0.0669 0.1621 0.6652
C8 C 0.2244(2) 0.08986(13) 0.8363(3)
H5 H 0.1592 0.0657 0.7549
H6 H 0.2280 0.0709 0.9478
C9 C 0.3309(2) 0.06724(13) 0.7978(3)
H7 H 0.3310 0.0115 0.7839
H8 H 0.3297 0.0904 0.6908
C10 C 0.4386(2) 0.09022(12) 0.9282(3)
H9 H 0.4382 0.0699 1.0370
H10 H 0.5029 0.0673 0.9007
C11 C 0.5474(2) 0.19901(13) 0.9306(3)
H11 H 0.5966 0.1632 0.9053
C12 C 0.58529(19) 0.27672(13) 0.9530(3)
C13 C 0.68229(19) 0.29611(13) 0.9112(3)
H12 H 0.7187 0.2593 0.8637
C14 C 0.72381(19) 0.36838(14) 0.9393(3)
C15 C 0.67278(19) 0.42308(13) 1.0121(3)
H13 H 0.7030 0.4729 1.0321
C16 C 0.57821(19) 0.40415(13) 1.0548(3)
H14 H 0.5441 0.4412 1.1053
C17 C 0.53158(19) 0.33107(13) 1.0248(3)
Mn1C Mn 0.33066(3) 0.255935(18) 1.46425(4)
N3C N 0.33211(16) 0.30408(11) 0.7059(2)
loop_
_geom_bond_atom_site_label_1
_geom_bond_atom_site_label_2
_geom_bond_site_symmetry_1
_geom_bond_site_symmetry_2
Mn1 O1 1_555 1_555
Cl1 C4 1_555 1_555
Cl2 C14 1_555 1_555
O1 C1 1_555 1_555
O2 Mn1 1_555 1_555
N1 Mn1 1_555 1_555
N2 Mn1 1_555 1_555
N3 Mn1 1_555 1_555
N4 N3 1_555 1_555
N5 N4 1_555 1_555
C1 C2 1_555 1_555
C2 H1 1_555 1_555
C3 C2 1_555 1_555
H2 C3 1_555 1_555
C4 C3 1_555 1_555
C5 C4 1_555 1_555
H3 C5 1_555 1_555
C6 C1 1_555 1_555
C7 N1 1_555 1_555
H4 C7 1_555 1_555
C8 N1 1_555 1_555
H5 C8 1_555 1_555
H6 C8 1_555 1_555
C9 C8 1_555 1_555
H7 C9 1_555 1_555
H8 C9 1_555 1_555
C10 N2 1_555 1_555
H9 C10 1_555 1_555
H10 C10 1_555 1_555
C11 N2 1_555 1_555
H11 C11 1_555 1_555
C12 C11 1_555 1_555
C13 C12 1_555 1_555
H12 C13 1_555 1_555
C14 C13 1_555 1_555
C15 C14 1_555 1_555
H13 C15 1_555 1_555
C16 C15 1_555 1_555
H14 C16 1_555 1_555
C17 O2 1_555 1_555
Mn1C N3 1_555 1_555
N3C Mn1 1_555 1_555
C5 C6 1_555 1_555
C6 C7 1_555 1_555
C9 C10 1_555 1_555
C12 C17 1_555 1_555
C16 C17 1_555 1_555

#END
