
#######################################################################
#
#                 Cambridge Crystallographic Data Centre
#                                CCDC 
#
#######################################################################
#
# If this CIF has been generated from an entry in the Cambridge 
# Structural Database, then it will include bibliographic, chemical, 
# crystal, experimental, refinement or atomic coordinate data resulting 
# from the CCDC's data processing and validation procedures.
#
#######################################################################

data_LIHGUG
_symmetry_cell_setting           monoclinic
_symmetry_space_group_name_H-M   'C 2/c'
_symmetry_Int_Tables_number      15
_space_group_name_Hall           '-C 2yn'
loop_
_symmetry_equiv_pos_site_id
_symmetry_equiv_pos_as_xyz
1 x,y,z
2 -x,y,1/2-z
3 1/2+x,1/2+y,z
4 1/2-x,1/2+y,1/2-z
5 -x,-y,-z
6 x,-y,1/2+z
7 1/2-x,1/2-y,-z
8 1/2+x,1/2-y,1/2+z
_cell_length_a                   11.022(2)
_cell_length_b                   22.606(5)
_cell_length_c                   12.123(2)
_cell_angle_alpha                90
_cell_angle_beta                 95.65(3)
_cell_angle_gamma                90
_cell_volume                     3005.93
loop_
_atom_site_label
_atom_site_type_symbol
_atom_site_fract_x
_atom_site_fract_y
_atom_site_fract_z
Ni1 Ni 0.5000 0.379715(14) 0.2500
Ni2 Ni 0.0000 0.378572(13) 0.2500
S1 S 0.23450(4) 0.39830(2) 0.10920(4)
O1 O 0.31124(12) 0.37951(6) 0.21319(12)
O2 O 0.47576(13) 0.37522(5) 0.41787(12)
H1 H 0.4323 0.3957 0.4577
H2 H 0.5451 0.3772 0.4551
O3 O 0.10883(12) 0.37748(5) 0.11907(11)
O4 O 0.28195(13) 0.36860(7) 0.01488(13)
O5 O 0.23754(14) 0.46204(6) 0.09809(14)
O6 O 0.15466(13) 0.37609(6) 0.36000(12)
H3 H 0.2169 0.3765 0.3282
O7 O 0.30832(13) 0.43173(6) 0.52663(13)
H4 H 0.2989 0.4663 0.5447
N1 N 0.5000 0.28676(10) 0.2500
N2 N 0.5000 0.47137(10) 0.2500
N3 N 0.5000 0.78565(10) 0.2500
N4 N 0.5000 -0.02872(10) 0.2500
C1 C 0.5000 0.16183(12) 0.2500
C2 C 0.43554(19) 0.19444(9) 0.16563(17)
H5 H 0.3912 0.1750 0.1072
C3 C 0.43763(19) 0.25555(9) 0.16891(18)
H6 H 0.3935 0.2762 0.1119
C4 C 0.58066(18) 0.50219(9) 0.19796(17)
H7 H 0.6383 0.4815 0.1622
C5 C 0.58292(18) 0.56309(8) 0.19449(17)
H8 H 0.6395 0.5825 0.1553
C6 C 0.5000 0.59546(12) 0.2500
C7 C 0.5000 0.66101(12) 0.2500
C8 C 0.5906(2) 0.69347(9) 0.2077(2)
H9 H 0.6540 0.6741 0.1774
C9 C 0.5880(2) 0.75446(10) 0.2101(2)
H10 H 0.6515 0.7749 0.1821
C10 C 0.5662(2) 0.00282(9) 0.32806(18)
H11 H 0.6126 -0.0176 0.3839
C11 C 0.5692(2) 0.06365(9) 0.33016(18)
H12 H 0.6180 0.0831 0.3857
C12 C 0.5000 0.09610(12) 0.2500
C13 C 0.18041(19) 0.35033(9) 0.46738(18)
H13 H 0.2502 0.3242 0.4675
H14 H 0.1111 0.3271 0.4854
C14 C 0.2067(2) 0.39774(10) 0.55251(19)
H15 H 0.1360 0.4232 0.5542
H16 H 0.2239 0.3800 0.6252
C2A C 0.56446(19) 0.19444(9) 0.33437(17)
H5A H 0.6088 0.1750 0.3928
C3A C 0.56237(19) 0.25555(9) 0.33109(18)
H6A H 0.6065 0.2762 0.3881
C10A C 0.4338(2) 0.00282(9) 0.17194(18)
H11A H 0.3874 -0.0176 0.1161
C11A C 0.4308(2) 0.06365(9) 0.16984(18)
H12A H 0.3820 0.0831 0.1143
C4A C 0.41934(18) 0.50219(9) 0.30204(17)
H7A H 0.3617 0.4815 0.3378
C5A C 0.41708(18) 0.56309(8) 0.30551(17)
H8A H 0.3605 0.5825 0.3447
C8A C 0.4094(2) 0.69347(9) 0.2923(2)
H9A H 0.3460 0.6741 0.3226
C9A C 0.4120(2) 0.75446(10) 0.2899(2)
H10A H 0.3485 0.7749 0.3179
S1A S -0.23450(4) 0.39830(2) 0.39080(4)
O1A O -0.31124(12) 0.37951(6) 0.28681(12)
O3A O -0.10883(12) 0.37748(5) 0.38093(11)
O4A O -0.28195(13) 0.36860(7) 0.48512(13)
O5A O -0.23754(14) 0.46204(6) 0.40191(14)
O6A O -0.15466(13) 0.37609(6) 0.14000(12)
H3A H -0.2169 0.3765 0.1718
O7A O -0.30832(13) 0.43173(6) -0.02663(13)
H4A H -0.2989 0.4663 -0.0447
C13A C -0.18041(19) 0.35033(9) 0.03262(18)
H13A H -0.2502 0.3242 0.0325
H14A H -0.1111 0.3271 0.0146
C14A C -0.2067(2) 0.39774(10) -0.05251(19)
H15A H -0.1360 0.4232 -0.0542
H16A H -0.2239 0.3800 -0.1252
O2A O 0.52424(13) 0.37522(5) 0.08213(12)
H1A H 0.5677 0.3957 0.0423
H2A H 0.4549 0.3772 0.0449
Ni1_2 Ni -0.5000 0.379715(14) 0.2500
Ni2B Ni 0.5000 -0.121428(13) 0.2500
Ni2B_2 Ni 0.5000 0.878572(13) 0.2500
O1A_2 O 0.68876(12) 0.37951(6) 0.28681(12)
N3B N 0.0000 0.28565(10) 0.2500
N4B N 0.0000 0.47128(10) 0.2500
loop_
_geom_bond_atom_site_label_1
_geom_bond_atom_site_label_2
_geom_bond_site_symmetry_1
_geom_bond_site_symmetry_2
Ni1 O1 1_555 1_555
Ni2 O3 1_555 1_555
S1 O1 1_555 1_555
O2 Ni1 1_555 1_555
H1 O2 1_555 1_555
H2 O2 1_555 1_555
O3 S1 1_555 1_555
O4 S1 1_555 1_555
O5 S1 1_555 1_555
O6 Ni2 1_555 1_555
H3 O6 1_555 1_555
O7 H4 1_555 1_555
N1 Ni1 1_555 1_555
N2 Ni1 1_555 1_555
N3 C9 1_555 1_555
N4 C10 1_555 1_555
C1 C2 1_555 1_555
C2 H5 1_555 1_555
C3 N1 1_555 1_555
H6 C3 1_555 1_555
C4 N2 1_555 1_555
H7 C4 1_555 1_555
C5 C4 1_555 1_555
H8 C5 1_555 1_555
C6 C5 1_555 1_555
C7 C6 1_555 1_555
C8 C7 1_555 1_555
H9 C8 1_555 1_555
C9 C8 1_555 1_555
H10 C9 1_555 1_555
C10 H11 1_555 1_555
C11 C10 1_555 1_555
H12 C11 1_555 1_555
C12 C1 1_555 1_555
C13 O6 1_555 1_555
H13 C13 1_555 1_555
H14 C13 1_555 1_555
C14 O7 1_555 1_555
H15 C14 1_555 1_555
H16 C14 1_555 1_555
C2A C1 1_555 1_555
H5A C2A 1_555 1_555
C3A N1 1_555 1_555
H6A C3A 1_555 1_555
C10A N4 1_555 1_555
H11A C10A 1_555 1_555
C11A C12 1_555 1_555
H12A C11A 1_555 1_555
C4A N2 1_555 1_555
H7A C4A 1_555 1_555
C5A C6 1_555 1_555
H8A C5A 1_555 1_555
C8A C7 1_555 1_555
H9A C8A 1_555 1_555
C9A N3 1_555 1_555
H10A C9A 1_555 1_555
S1A O1A 1_555 1_555
O1A Ni1_2 1_555 1_555
O3A Ni2 1_555 1_555
O4A S1A 1_555 1_555
O5A S1A 1_555 1_555
O6A Ni2 1_555 1_555
H3A O6A 1_555 1_555
O7A H4A 1_555 1_555
C13A O6A 1_555 1_555
H13A C13A 1_555 1_555
H14A C13A 1_555 1_555
C14A O7A 1_555 1_555
H15A C14A 1_555 1_555
H16A C14A 1_555 1_555
O2A Ni1 1_555 1_555
H1A O2A 1_555 1_555
H2A O2A 1_555 1_555
Ni2B N4 1_555 1_555
Ni2B_2 N3 1_555 1_555
O1A_2 Ni1 1_555 1_555
N3B Ni2 1_555 1_555
N4B Ni2 1_555 1_555
C2 C3 1_555 1_555
C11 C12 1_555 1_555
C13 C14 1_555 1_555
C2A C3A 1_555 1_555
C10A C11A 1_555 1_555
C4A C5A 1_555 1_555
C8A C9A 1_555 1_555
S1A O3A 1_555 1_555
C13A C14A 1_555 1_555

#END
