
#######################################################################
#
#                 Cambridge Crystallographic Data Centre
#                                CCDC 
#
#######################################################################
#
# If this CIF has been generated from an entry in the Cambridge 
# Structural Database, then it will include bibliographic, chemical, 
# crystal, experimental, refinement or atomic coordinate data resulting 
# from the CCDC's data processing and validation procedures.
#
#######################################################################

data_LIHGIU01
_symmetry_cell_setting           monoclinic
_symmetry_space_group_name_H-M   'C 2/c'
_symmetry_Int_Tables_number      15
_space_group_name_Hall           '-C 2yn'
loop_
_symmetry_equiv_pos_site_id
_symmetry_equiv_pos_as_xyz
1 x,y,z
2 -x,y,1/2-z
3 1/2+x,1/2+y,z
4 1/2-x,1/2+y,1/2-z
5 -x,-y,-z
6 x,-y,1/2+z
7 1/2-x,1/2-y,-z
8 1/2+x,1/2-y,1/2+z
_cell_length_a                   24.035(4)
_cell_length_b                   8.5326(14)
_cell_length_c                   19.386(3)
_cell_angle_alpha                90
_cell_angle_beta                 114.162(8)
_cell_angle_gamma                90
_cell_volume                     3627.4
loop_
_atom_site_label
_atom_site_type_symbol
_atom_site_fract_x
_atom_site_fract_y
_atom_site_fract_z
Mn1 Mn 0.248976(11) 0.30068(3) 0.244061(13)
Cl1 Cl 0.04803(3) -0.03568(9) 0.38932(4)
Cl2 Cl 0.54915(3) -0.02603(11) 0.39917(5)
O1 O 0.21507(6) 0.35388(14) 0.31291(7)
O2 O 0.32771(5) 0.35033(15) 0.31815(7)
N1 N 0.16536(7) 0.22090(17) 0.17180(8)
N2 N 0.28854(7) 0.22236(17) 0.17580(8)
N3 N 0.23297(7) 0.53988(17) 0.19522(8)
N4 N 0.21230(7) 0.56416(17) 0.12821(9)
N5 N 0.19267(10) 0.5909(2) 0.06459(10)
C1 C 0.17682(8) 0.2648(2) 0.32826(10)
C2 C 0.17809(9) 0.2678(2) 0.40112(10)
H1 H 0.2064 0.3341 0.4384
C3 C 0.13903(9) 0.1763(2) 0.41956(11)
H2 H 0.1407 0.1787 0.4694
C4 C 0.09714(9) 0.0803(3) 0.36496(12)
C5 C 0.09308(9) 0.0771(2) 0.29238(12)
H3 H 0.0633 0.0137 0.2553
C6 C 0.13325(8) 0.1683(2) 0.27329(10)
C7 C 0.12704(8) 0.1664(2) 0.19608(10)
H4 H 0.0910 0.1203 0.1597
C8 C 0.14742(9) 0.2156(2) 0.08940(10)
H5 H 0.1418 0.3239 0.0695
H6 H 0.1078 0.1606 0.0651
C9 C 0.19422(10) 0.1329(2) 0.06855(10)
H7 H 0.2017 0.0273 0.0917
H8 H 0.1770 0.1191 0.0130
C10 C 0.25473(10) 0.2173(2) 0.09303(10)
H9 H 0.2800 0.1638 0.0707
H10 H 0.2474 0.3258 0.0732
C11 C 0.34323(9) 0.1685(2) 0.20257(11)
H11 H 0.3568 0.1232 0.1674
C12 C 0.38606(9) 0.1698(2) 0.28057(11)
C13 C 0.43986(10) 0.0816(3) 0.30090(13)
H12 H 0.4466 0.0207 0.2640
C14 C 0.48248(10) 0.0836(3) 0.37389(14)
C15 C 0.47392(10) 0.1738(3) 0.42840(13)
H13 H 0.5038 0.1738 0.4790
C16 C 0.42206(9) 0.2632(3) 0.40890(11)
H14 H 0.4169 0.3264 0.4462
C17 C 0.37651(8) 0.2627(2) 0.33470(10)
Mn1C Mn 0.251024(11) 0.80068(3) 0.255939(13)
N3C N 0.26703(7) 0.03988(17) 0.30478(8)
loop_
_geom_bond_atom_site_label_1
_geom_bond_atom_site_label_2
_geom_bond_site_symmetry_1
_geom_bond_site_symmetry_2
Mn1 O1 1_555 1_555
Cl1 C4 1_555 1_555
Cl2 C14 1_555 1_555
O1 C1 1_555 1_555
O2 Mn1 1_555 1_555
N1 Mn1 1_555 1_555
N2 Mn1 1_555 1_555
N3 Mn1 1_555 1_555
N4 N3 1_555 1_555
N5 N4 1_555 1_555
C1 C2 1_555 1_555
C2 H1 1_555 1_555
C3 C2 1_555 1_555
H2 C3 1_555 1_555
C4 C3 1_555 1_555
C5 C4 1_555 1_555
H3 C5 1_555 1_555
C6 C1 1_555 1_555
C7 N1 1_555 1_555
H4 C7 1_555 1_555
C8 N1 1_555 1_555
H5 C8 1_555 1_555
H6 C8 1_555 1_555
C9 C8 1_555 1_555
H7 C9 1_555 1_555
H8 C9 1_555 1_555
C10 N2 1_555 1_555
H9 C10 1_555 1_555
H10 C10 1_555 1_555
C11 N2 1_555 1_555
H11 C11 1_555 1_555
C12 C11 1_555 1_555
C13 C12 1_555 1_555
H12 C13 1_555 1_555
C14 C13 1_555 1_555
C15 C14 1_555 1_555
H13 C15 1_555 1_555
C16 C15 1_555 1_555
H14 C16 1_555 1_555
C17 O2 1_555 1_555
Mn1C N3 1_555 1_555
N3C Mn1 1_555 1_555
C5 C6 1_555 1_555
C6 C7 1_555 1_555
C9 C10 1_555 1_555
C12 C17 1_555 1_555
C16 C17 1_555 1_555

#END
