
#######################################################################
#
#                 Cambridge Crystallographic Data Centre
#                                CCDC 
#
#######################################################################
#
# If this CIF has been generated from an entry in the Cambridge 
# Structural Database, then it will include bibliographic, chemical, 
# crystal, experimental, refinement or atomic coordinate data resulting 
# from the CCDC's data processing and validation procedures.
#
#######################################################################

data_LIHMAL01
_symmetry_cell_setting           monoclinic
_symmetry_space_group_name_H-M   'P 21/n'
_symmetry_Int_Tables_number      14
_space_group_name_Hall           '-P 2yn'
loop_
_symmetry_equiv_pos_site_id
_symmetry_equiv_pos_as_xyz
1 x,y,z
2 1/2-x,1/2+y,1/2-z
3 -x,-y,-z
4 1/2+x,1/2-y,1/2+z
_cell_length_a                   5.858(1)
_cell_length_b                   6.051(1)
_cell_length_c                   18.800(2)
_cell_angle_alpha                90
_cell_angle_beta                 91.47(2)
_cell_angle_gamma                90
_cell_volume                     666.18
loop_
_atom_site_label
_atom_site_type_symbol
_atom_site_fract_x
_atom_site_fract_y
_atom_site_fract_z
C1 C 0.5605(1) 0.2582(1) 0.40922(4)
C2 C 0.7824(1) 0.2505(1) 0.44964(4)
C3 C 0.8264(1) 0.2463(1) 0.51959(4)
C4 C 0.6687(1) 0.2462(1) 0.58085(4)
O1 O 0.5629(1) 0.2714(1) 0.34390(3)
O2 O 0.3691(1) 0.2513(1) 0.44229(3)
O3 O 0.4519(1) 0.2439(1) 0.56967(3)
O4 O 0.7559(1) 0.2486(1) 0.64140(3)
O5 O 0.6923(1) 0.2110(1) 0.19125(3)
O6 O 1.0910(1) 0.2700(1) 0.27959(4)
Li1 Li 0.7863(2) 0.3845(3) 0.27770(7)
H1 H 0.914(2) 0.249(1) 0.4194(6)
H2 H 0.982(2) 0.241(1) 0.5358(6)
H3 H 0.551(2) 0.233(2) 0.1727(7)
H4 H 0.783(2) 0.227(2) 0.1524(7)
H5 H 1.140(3) 0.259(2) 0.2388(8)
H6 H 1.210(3) 0.270(2) 0.3082(8)
H7 H 0.399(3) 0.246(2) 0.4989(8)
O5A O 0.8077(1) 0.7110(1) 0.30875(3)
Li1A Li 0.7137(2) -0.1155(3) 0.22230(7)
Li1A_2 Li 0.7137(2) 0.8845(3) 0.22230(7)
H3A H 0.949(2) 0.733(2) 0.3273(7)
H4A H 0.717(2) 0.727(2) 0.3476(7)
O1A O 0.9371(1) -0.2286(1) 0.15610(3)
O5A_2 O 0.8077(1) -0.2890(1) 0.30875(3)
O6A O 0.4090(1) -0.2300(1) 0.22041(4)
C1A C 0.9395(1) -0.2418(1) 0.09078(4)
H5A H 0.360(3) -0.241(2) 0.2612(8)
H6A H 0.290(3) -0.230(2) 0.1918(8)
C2A C 0.7176(1) -0.2495(1) 0.05036(4)
O2A O 1.1309(1) -0.2487(1) 0.05771(3)
C3A C 0.6736(1) -0.2537(1) -0.01959(4)
H1A H 0.586(2) -0.251(1) 0.0806(6)
H7A H 1.101(3) -0.254(2) 0.0011(8)
C4A C 0.8313(1) -0.2538(1) -0.08085(4)
H2A H 0.518(2) -0.259(1) -0.0358(6)
O3A O 1.0481(1) -0.2561(1) -0.06967(3)
O4A O 0.7441(1) -0.2514(1) -0.14140(3)
loop_
_geom_bond_atom_site_label_1
_geom_bond_atom_site_label_2
_geom_bond_site_symmetry_1
_geom_bond_site_symmetry_2
C1 C2 1_555 1_555
C2 C3 1_555 1_555
C3 C4 1_555 1_555
C4 O3 1_555 1_555
O1 C1 1_555 1_555
O2 C1 1_555 1_555
O4 C4 1_555 1_555
O5 Li1 1_555 1_555
O6 Li1 1_555 1_555
Li1 O1 1_555 1_555
H1 C2 1_555 1_555
H2 C3 1_555 1_555
H3 O5 1_555 1_555
H4 O5 1_555 1_555
H5 O6 1_555 1_555
H6 O6 1_555 1_555
H7 O2 1_555 1_555
O5A Li1 1_555 1_555
Li1A O5 1_555 1_555
Li1A_2 O5A 1_555 1_555
H3A O5A 1_555 1_555
H4A O5A 1_555 1_555
O1A Li1A 1_555 1_555
O5A_2 Li1A 1_555 1_555
O6A Li1A 1_555 1_555
C1A O1A 1_555 1_555
H5A O6A 1_555 1_555
H6A O6A 1_555 1_555
C2A C1A 1_555 1_555
O2A C1A 1_555 1_555
C3A C2A 1_555 1_555
H1A C2A 1_555 1_555
H7A O2A 1_555 1_555
C4A C3A 1_555 1_555
H2A C3A 1_555 1_555
O3A C4A 1_555 1_555
O4A C4A 1_555 1_555

#END
