
#######################################################################
#
#                 Cambridge Crystallographic Data Centre
#                                CCDC 
#
#######################################################################
#
# If this CIF has been generated from an entry in the Cambridge 
# Structural Database, then it will include bibliographic, chemical, 
# crystal, experimental, refinement or atomic coordinate data resulting 
# from the CCDC's data processing and validation procedures.
#
#######################################################################

data_LIHPIC
_symmetry_cell_setting           monoclinic
_symmetry_space_group_name_H-M   'P 21/n'
_symmetry_Int_Tables_number      14
_space_group_name_Hall           '-P 2yn'
loop_
_symmetry_equiv_pos_site_id
_symmetry_equiv_pos_as_xyz
1 x,y,z
2 1/2-x,1/2+y,1/2-z
3 -x,-y,-z
4 1/2+x,1/2-y,1/2+z
_cell_length_a                   13.894(2)
_cell_length_b                   27.684(5)
_cell_length_c                   16.744(3)
_cell_angle_alpha                90
_cell_angle_beta                 106.879(3)
_cell_angle_gamma                90
_cell_volume                     6162.98
loop_
_atom_site_label
_atom_site_type_symbol
_atom_site_fract_x
_atom_site_fract_y
_atom_site_fract_z
Bi1 Bi 0.633903(10) 0.138241(5) 1.024829(8)
Bi2 Bi 0.692880(10) 0.184178(5) 0.750520(8)
Br1 Br 0.79442(3) 0.080502(15) 1.07515(3)
Br2 Br 0.54479(3) 0.100483(14) 1.13055(2)
Br3 Br 0.72206(3) 0.208420(15) 1.12724(3)
Br4 Br 0.77211(4) 0.262986(15) 0.70937(3)
Br5 Br 0.72949(3) 0.213794(13) 0.90883(2)
Br6 Br 0.86255(3) 0.134335(15) 0.78627(3)
C1 C 0.2976(3) 0.47688(12) 0.8726(2)
C2 C 0.2439(3) 0.43856(13) 0.8199(2)
H1 H 0.1768 0.4398 0.7844
C3 C 0.3071(3) 0.40064(12) 0.8304(2)
H2 H 0.2935 0.3704 0.8027
C4 C 0.3994(3) 0.41465(12) 0.8918(2)
C5 C 0.4830(3) 0.38447(11) 0.9238(2)
C6 C 0.5722(3) 0.39695(12) 0.9823(2)
C7 C 0.6565(3) 0.36498(12) 1.0140(2)
H3 H 0.6603 0.3321 0.9991
C8 C 0.7295(3) 0.39062(12) 1.0690(2)
H4 H 0.7938 0.3790 1.1002
C9 C 0.6911(3) 0.43903(12) 1.0710(2)
C10 C 0.2577(3) 0.52324(12) 0.8780(2)
C11 C 0.4749(2) 0.33313(12) 0.8947(2)
C12 C 0.4652(2) 0.29751(12) 0.9505(2)
H5 H 0.4608 0.3063 1.0041
C13 C 0.4619(3) 0.24873(12) 0.9277(2)
C14 C 0.4709(3) 0.23626(12) 0.8487(2)
C15 C 0.4801(3) 0.27218(12) 0.7924(2)
C16 C 0.4811(3) 0.32061(12) 0.8161(2)
H6 H 0.4860 0.3452 0.7779
C17 C 0.4492(4) 0.23207(15) 1.0886(3)
H7 H 0.5115 0.2509 1.1067
H8 H 0.4481 0.2082 1.1315
H9 H 0.3913 0.2537 1.0799
C18 C 0.3405(3) 0.16459(14) 0.7738(3)
H10 H 0.3043 0.1698 0.8153
H11 H 0.3296 0.1314 0.7529
H12 H 0.3156 0.1872 0.7273
C19 C 0.5098(4) 0.30787(15) 0.6455(3)
H13 H 0.4504 0.3284 0.6382
H14 H 0.5187 0.3006 0.5908
H15 H 0.5694 0.3248 0.6799
C20 C 0.1543(3) 0.53413(11) 0.8242(2)
C21 C 0.1355(3) 0.53373(11) 0.7373(2)
H16 H 0.1869 0.5238 0.7138
C22 C 0.0420(3) 0.54775(11) 0.6850(2)
C23 C -0.0339(2) 0.56174(11) 0.7202(2)
C24 C -0.0156(3) 0.56143(12) 0.8073(2)
C25 C 0.0783(3) 0.54753(12) 0.8584(2)
H17 H 0.0906 0.5472 0.9172
C26 C 0.1361(3) 0.54324(16) 0.5596(3)
H18 H 0.1629 0.5109 0.5766
H19 H 0.1305 0.5482 0.5005
H20 H 0.1815 0.5675 0.5933
C27 C -0.2313(3) 0.53203(14) 0.6448(3)
H21 H -0.2402 0.5241 0.6992
H22 H -0.2968 0.5393 0.6051
H23 H -0.2009 0.5045 0.6244
C28 C -0.0653(3) 0.57471(15) 0.9565(2)
H24 H -0.0084 0.5969 0.9757
H25 H -0.1174 0.5832 0.9830
H26 H -0.0426 0.5415 0.9716
C35 C 0.6409(3) 0.21755(13) 0.4571(2)
C36 C 0.7120(3) 0.20347(14) 0.4187(2)
H32 H 0.7618 0.1802 0.4440
C37 C 0.7090(3) 0.22390(15) 0.3429(3)
H33 H 0.7565 0.2144 0.3150
C38 C 0.6369(3) 0.25826(14) 0.3073(3)
H34 H 0.6360 0.2726 0.2556
C39 C 0.5669(4) 0.27164(15) 0.3463(3)
H35 H 0.5169 0.2948 0.3208
C40 C 0.5682(3) 0.25178(16) 0.4227(3)
H36 H 0.5206 0.2614 0.4505
N1 N 0.6431(3) 0.19529(13) 0.5364(2)
O1 O 0.5726(3) 0.20304(12) 0.5652(2)
O2 O 0.7154(3) 0.16965(12) 0.57229(19)
N2 N 0.3917(2) 0.46180(9) 0.91617(17)
N3 N 0.5946(2) 0.44187(10) 1.01836(17)
S1 S 0.44349(7) 0.20143(3) 0.99211(6)
S2 S 0.47333(7) 0.17453(3) 0.82142(6)
S3 S 0.49284(8) 0.25244(3) 0.69613(6)
S4 S 0.01421(7) 0.54894(3) 0.57524(5)
S5 S -0.14961(6) 0.58423(3) 0.65516(5)
S6 S -0.11627(7) 0.57931(3) 0.84514(5)
Zn1 Zn 0.5000 0.5000 1.0000
Bi1B Bi 0.366097(10) 0.861759(5) 0.975171(8)
Bi1A Bi -0.133903(10) 0.638241(5) 0.475171(8)
Bi1C Bi 1.133903(10) 0.361759(5) 1.524829(8)
Bi2B Bi 0.307120(10) 0.815822(5) 1.249480(8)
Bi2A Bi -0.192880(10) 0.684178(5) 0.749480(8)
Bi2C Bi 1.192880(10) 0.315822(5) 1.250520(8)
Br1B Br 0.20558(3) 0.919498(15) 0.92485(3)
Br2B Br 0.45521(3) 0.899517(14) 0.86945(2)
Br3B Br 0.27794(3) 0.791580(15) 0.87276(3)
Br4B Br 0.22789(4) 0.737014(15) 1.29063(3)
Br5B Br 0.27051(3) 0.786206(13) 1.09117(2)
Br6B Br 0.13745(3) 0.865665(15) 1.21373(3)
C1B C 0.7024(3) 0.52312(12) 1.1274(2)
C2B C 0.7561(3) 0.56144(13) 1.1801(2)
H1B H 0.8232 0.5602 1.2156
C3B C 0.6929(3) 0.59936(12) 1.1696(2)
H2B H 0.7065 0.6296 1.1973
C4B C 0.6006(3) 0.58535(12) 1.1082(2)
C5B C 0.5170(3) 0.61553(11) 1.0762(2)
C6B C 0.4278(3) 0.60305(12) 1.0177(2)
C7B C 0.3435(3) 0.63502(12) 0.9860(2)
H3B H 0.3397 0.6679 1.0009
C8B C 0.2705(3) 0.60938(12) 0.9310(2)
H4B H 0.2062 0.6210 0.8998
C9B C 0.3089(3) 0.56097(12) 0.9290(2)
C10B C 0.7423(3) 0.47676(12) 1.1220(2)
C11B C 0.5251(2) 0.66687(12) 1.1053(2)
C12B C 0.5348(2) 0.70249(12) 1.0495(2)
H5B H 0.5392 0.6937 0.9959
C13B C 0.5381(3) 0.75127(12) 1.0723(2)
C14B C 0.5291(3) 0.76374(12) 1.1513(2)
C15B C 0.5199(3) 0.72782(12) 1.2076(2)
C16B C 0.5189(3) 0.67939(12) 1.1839(2)
H6B H 0.5140 0.6548 1.2221
C17B C 0.5508(4) 0.76793(15) 0.9114(3)
H7B H 0.4885 0.7491 0.8933
H8B H 0.5519 0.7918 0.8685
H9B H 0.6087 0.7463 0.9201
C18B C 0.6595(3) 0.83541(14) 1.2262(3)
H10B H 0.6957 0.8302 1.1847
H11B H 0.6704 0.8686 1.2471
H12B H 0.6844 0.8128 1.2727
C19B C 0.4902(4) 0.69213(15) 1.3545(3)
H13B H 0.5496 0.6716 1.3618
H14B H 0.4813 0.6994 1.4092
H15B H 0.4306 0.6752 1.3201
C20B C 0.8457(3) 0.46587(11) 1.1758(2)
C21B C 0.8645(3) 0.46627(11) 1.2627(2)
H16B H 0.8131 0.4762 1.2862
C22B C 0.9580(3) 0.45225(11) 1.3150(2)
C23B C 1.0339(2) 0.43826(11) 1.2798(2)
C24B C 1.0156(3) 0.43857(12) 1.1927(2)
C25B C 0.9217(3) 0.45247(12) 1.1416(2)
H17B H 0.9094 0.4528 1.0828
C26B C 0.8639(3) 0.45676(16) 1.4404(3)
H18B H 0.8371 0.4891 1.4234
H19B H 0.8695 0.4518 1.4995
H20B H 0.8185 0.4325 1.4067
C27B C 1.2313(3) 0.46797(14) 1.3552(3)
H21B H 1.2402 0.4759 1.3008
H22B H 1.2968 0.4607 1.3949
H23B H 1.2009 0.4955 1.3756
C28B C 1.0653(3) 0.42529(15) 1.0435(2)
H24B H 1.0084 0.4031 1.0243
H25B H 1.1174 0.4168 1.0170
H26B H 1.0426 0.4585 1.0284
C35B C 0.3591(3) 0.78245(13) 1.5429(2)
C36B C 0.2880(3) 0.79653(14) 1.5813(2)
H32B H 0.2382 0.8198 1.5560
C37B C 0.2910(3) 0.77610(15) 1.6571(3)
H33B H 0.2435 0.7856 1.6850
C38B C 0.3631(3) 0.74174(14) 1.6927(3)
H34B H 0.3640 0.7274 1.7444
C39B C 0.4331(4) 0.72836(15) 1.6537(3)
H35B H 0.4831 0.7052 1.6792
C40B C 0.4318(3) 0.74822(16) 1.5773(3)
H36B H 0.4794 0.7386 1.5495
N1B N 0.3569(3) 0.80471(13) 1.4636(2)
O1B O 0.4274(3) 0.79696(12) 1.4348(2)
O2B O 0.2846(3) 0.83035(12) 1.42771(19)
N2B N 0.6083(2) 0.53820(9) 1.08383(17)
N3B N 0.4054(2) 0.55813(10) 0.98164(17)
S1B S 0.55651(7) 0.79857(3) 1.00789(6)
S2B S 0.52667(7) 0.82547(3) 1.17858(6)
S3B S 0.50716(8) 0.74756(3) 1.30387(6)
S4B S 0.98579(7) 0.45106(3) 1.42476(5)
S4A S 0.48579(7) 0.04894(3) 0.92476(5)
S4C S 0.51421(7) 0.95106(3) 1.07524(5)
S5B S 1.14961(6) 0.41577(3) 1.34484(5)
S5A S 0.64961(6) 0.08423(3) 0.84484(5)
S5C S 0.35039(6) 0.91577(3) 1.15516(5)
S6B S 1.11627(7) 0.42069(3) 1.15486(5)
S6A S 0.61627(7) 0.07931(3) 0.65486(5)
S6C S 0.38373(7) 0.92069(3) 1.34514(5)
C29 C 0.4907(3) 0.56818(15) 0.8096(3)
C30 C 0.5803(4) 0.55907(18) 0.8667(3)
H27 H 0.6123 0.5832 0.9057
C31 C 0.6236(4) 0.51529(18) 0.8678(3)
H28 H 0.6866 0.5087 0.9074
C32 C 0.5765(4) 0.48018(17) 0.8114(3)
H29 H 0.6079 0.4496 0.8132
C33 C 0.4857(3) 0.48804(17) 0.7529(3)
H30 H 0.4547 0.4632 0.7149
C34 C 0.4399(4) 0.5326(2) 0.7500(3)
H31 H 0.3772 0.5393 0.7101
N4 N 0.4438(4) 0.61620(18) 0.8057(3)
O3 O 0.4845(4) 0.64616(13) 0.8566(3)
O4 O 0.3648(4) 0.62322(17) 0.7491(3)
C41 C 0.6171(5) 0.3877(2) 0.4688(4)
H37 H 0.5957 0.3779 0.4120
C42 C 0.5598(5) 0.4191(3) 0.4984(5)
H38 H 0.4990 0.4316 0.4624
C43 C 0.5909(7) 0.4319(3) 0.5799(6)
H39 H 0.5507 0.4534 0.6007
C44 C 0.6757(8) 0.4154(3) 0.6314(4)
H40 H 0.6957 0.4249 0.6884
C45 C 0.7347(6) 0.3844(3) 0.6018(6)
H41 H 0.7963 0.3726 0.6378
C46 C 0.7034(5) 0.3707(2) 0.5196(5)
H42 H 0.7432 0.3490 0.4986
C47 C 0.5901(4) 0.84766(16) 0.6429(3)
H43 H 0.5758 0.8141 0.6430
C48 C 0.6635(3) 0.86360(15) 0.6092(3)
H44 H 0.6990 0.8413 0.5851
C49 C 0.6854(3) 0.91270(15) 0.6106(3)
H45 H 0.7361 0.9241 0.5875
C50 C 0.6327(4) 0.94487(15) 0.6459(3)
H46 H 0.6475 0.9784 0.6472
C51 C 0.5597(4) 0.92839(17) 0.6789(3)
H47 H 0.5243 0.9504 0.7036
C52 C 0.5375(4) 0.87951(18) 0.6763(3)
H48 H 0.4855 0.8681 0.6979
loop_
_geom_bond_atom_site_label_1
_geom_bond_atom_site_label_2
_geom_bond_site_symmetry_1
_geom_bond_site_symmetry_2
Bi1 Br1 1_555 1_555
Bi2 Br4 1_555 1_555
Br2 Bi1 1_555 1_555
Br3 Bi1 1_555 1_555
Br5 Bi1 1_555 1_555
Br6 Bi2 1_555 1_555
C1 C2 1_555 1_555
C2 H1 1_555 1_555
C3 C2 1_555 1_555
H2 C3 1_555 1_555
C4 C3 1_555 1_555
C5 C4 1_555 1_555
C6 C5 1_555 1_555
C7 C6 1_555 1_555
H3 C7 1_555 1_555
C8 C7 1_555 1_555
H4 C8 1_555 1_555
C9 C8 1_555 1_555
C10 C1 1_555 1_555
C11 C5 1_555 1_555
C12 C11 1_555 1_555
H5 C12 1_555 1_555
C13 C12 1_555 1_555
C14 C13 1_555 1_555
C15 C14 1_555 1_555
C16 C11 1_555 1_555
H6 C16 1_555 1_555
C17 H7 1_555 1_555
H8 C17 1_555 1_555
H9 C17 1_555 1_555
C18 H10 1_555 1_555
H11 C18 1_555 1_555
H12 C18 1_555 1_555
C19 H13 1_555 1_555
H14 C19 1_555 1_555
H15 C19 1_555 1_555
C20 C10 1_555 1_555
C21 C20 1_555 1_555
H16 C21 1_555 1_555
C22 C21 1_555 1_555
C23 C22 1_555 1_555
C24 C23 1_555 1_555
C25 C20 1_555 1_555
H17 C25 1_555 1_555
C26 H18 1_555 1_555
H19 C26 1_555 1_555
H20 C26 1_555 1_555
C27 H21 1_555 1_555
H22 C27 1_555 1_555
H23 C27 1_555 1_555
C28 H24 1_555 1_555
H25 C28 1_555 1_555
H26 C28 1_555 1_555
C29 C30 1_555 1_555
C30 H27 1_555 1_555
C31 C30 1_555 1_555
H28 C31 1_555 1_555
C32 C31 1_555 1_555
H29 C32 1_555 1_555
C33 C32 1_555 1_555
H30 C33 1_555 1_555
C34 C29 1_555 1_555
H31 C34 1_555 1_555
C35 C36 1_555 1_555
C36 H32 1_555 1_555
C37 C36 1_555 1_555
H33 C37 1_555 1_555
C38 C37 1_555 1_555
H34 C38 1_555 1_555
C39 C38 1_555 1_555
H35 C39 1_555 1_555
C40 C35 1_555 1_555
H36 C40 1_555 1_555
N1 C35 1_555 1_555
O1 Bi2 1_555 1_555
O2 Bi2 1_555 1_555
C41 H37 1_555 1_555
C42 C41 1_555 1_555
H38 C42 1_555 1_555
C43 C42 1_555 1_555
H39 C43 1_555 1_555
C44 C43 1_555 1_555
H40 C44 1_555 1_555
C45 C44 1_555 1_555
H41 C45 1_555 1_555
C46 C41 1_555 1_555
H42 C46 1_555 1_555
C47 H43 1_555 1_555
C48 C47 1_555 1_555
H44 C48 1_555 1_555
C49 C48 1_555 1_555
H45 C49 1_555 1_555
C50 C49 1_555 1_555
H46 C50 1_555 1_555
C51 C50 1_555 1_555
H47 C51 1_555 1_555
C52 C47 1_555 1_555
H48 C52 1_555 1_555
N2 C1 1_555 1_555
N3 C6 1_555 1_555
N4 C29 1_555 1_555
O3 N4 1_555 1_555
O4 N4 1_555 1_555
S1 Bi1 1_555 1_555
S2 Bi1 1_555 1_555
S3 Bi2 1_555 1_555
S4 C22 1_555 1_555
S5 C23 1_555 1_555
S6 C24 1_555 1_555
Zn1 N2 1_555 1_555
Bi1B Br1B 1_555 1_555
Bi1A S4 1_555 1_555
Bi1C S4B 1_555 1_555
Bi2B Br4B 1_555 1_555
Bi2A S5 1_555 1_555
Bi2C S5B 1_555 1_555
Br2B Bi1B 1_555 1_555
Br3B Bi1B 1_555 1_555
Br5B Bi1B 1_555 1_555
Br6B Bi2B 1_555 1_555
C1B C2B 1_555 1_555
C2B H1B 1_555 1_555
C3B C2B 1_555 1_555
H2B C3B 1_555 1_555
C4B C3B 1_555 1_555
C5B C4B 1_555 1_555
C6B C5B 1_555 1_555
C7B C6B 1_555 1_555
H3B C7B 1_555 1_555
C8B C7B 1_555 1_555
H4B C8B 1_555 1_555
C9B C10 1_555 1_555
C10B C9 1_555 1_555
C11B C5B 1_555 1_555
C12B C11B 1_555 1_555
H5B C12B 1_555 1_555
C13B C12B 1_555 1_555
C14B C13B 1_555 1_555
C15B C14B 1_555 1_555
C16B C11B 1_555 1_555
H6B C16B 1_555 1_555
C17B H7B 1_555 1_555
H8B C17B 1_555 1_555
H9B C17B 1_555 1_555
C18B H10B 1_555 1_555
H11B C18B 1_555 1_555
H12B C18B 1_555 1_555
C19B H13B 1_555 1_555
H14B C19B 1_555 1_555
H15B C19B 1_555 1_555
C20B C10B 1_555 1_555
C21B C20B 1_555 1_555
H16B C21B 1_555 1_555
C22B C21B 1_555 1_555
C23B C22B 1_555 1_555
C24B C23B 1_555 1_555
C25B C20B 1_555 1_555
H17B C25B 1_555 1_555
C26B H18B 1_555 1_555
H19B C26B 1_555 1_555
H20B C26B 1_555 1_555
C27B H21B 1_555 1_555
H22B C27B 1_555 1_555
H23B C27B 1_555 1_555
C28B H24B 1_555 1_555
H25B C28B 1_555 1_555
H26B C28B 1_555 1_555
C35B C36B 1_555 1_555
C36B H32B 1_555 1_555
C37B C36B 1_555 1_555
H33B C37B 1_555 1_555
C38B C37B 1_555 1_555
H34B C38B 1_555 1_555
C39B C38B 1_555 1_555
H35B C39B 1_555 1_555
C40B C35B 1_555 1_555
H36B C40B 1_555 1_555
N1B C35B 1_555 1_555
O1B Bi2B 1_555 1_555
O2B Bi2B 1_555 1_555
N2B Zn1 1_555 1_555
N3B Zn1 1_555 1_555
S1B Bi1B 1_555 1_555
S2B Bi1B 1_555 1_555
S3B Bi2B 1_555 1_555
S4B C22B 1_555 1_555
S4A Bi1 1_555 1_555
S4C Bi1B 1_555 1_555
S5B Bi1C 1_555 1_555
S5A Bi1 1_555 1_555
S5C Bi1B 1_555 1_555
S6B Bi2C 1_555 1_555
S6A Bi2 1_555 1_555
S6C Bi2B 1_555 1_555
Bi2 Br5 1_555 1_555
Bi2 S2 1_555 1_555
Bi2 S5A 1_555 1_555
C4 N2 1_555 1_555
C9 N3 1_555 1_555
C13 S1 1_555 1_555
C14 S2 1_555 1_555
C15 C16 1_555 1_555
C15 S3 1_555 1_555
C17 S1 1_555 1_555
C18 S2 1_555 1_555
C19 S3 1_555 1_555
C24 C25 1_555 1_555
C26 S4 1_555 1_555
C27 S5 1_555 1_555
C28 S6 1_555 1_555
C33 C34 1_555 1_555
C39 C40 1_555 1_555
N1 O1 1_555 1_555
N1 O2 1_555 1_555
C45 C46 1_555 1_555
C51 C52 1_555 1_555
N3 Zn1 1_555 1_555
S5 Bi1A 1_555 1_555
S6 Bi2A 1_555 1_555
Bi2B Br5B 1_555 1_555
Bi2B S2B 1_555 1_555
Bi2B S5C 1_555 1_555
C1B C10B 1_555 1_555
C1B N2B 1_555 1_555
C4B N2B 1_555 1_555
C6B N3B 1_555 1_555
C8B C9B 1_555 1_555
C9B N3B 1_555 1_555
C13B S1B 1_555 1_555
C14B S2B 1_555 1_555
C15B C16B 1_555 1_555
C15B S3B 1_555 1_555
C17B S1B 1_555 1_555
C18B S2B 1_555 1_555
C19B S3B 1_555 1_555
C23B S5B 1_555 1_555
C24B C25B 1_555 1_555
C24B S6B 1_555 1_555
C26B S4B 1_555 1_555
C27B S5B 1_555 1_555
C28B S6B 1_555 1_555
C39B C40B 1_555 1_555
N1B O1B 1_555 1_555
N1B O2B 1_555 1_555

#END
