
#######################################################################
#
#                 Cambridge Crystallographic Data Centre
#                                CCDC 
#
#######################################################################
#
# If this CIF has been generated from an entry in the Cambridge 
# Structural Database, then it will include bibliographic, chemical, 
# crystal, experimental, refinement or atomic coordinate data resulting 
# from the CCDC's data processing and validation procedures.
#
#######################################################################

data_LIHQUP
_symmetry_cell_setting           orthorhombic
_symmetry_space_group_name_H-M   'P b c a'
_symmetry_Int_Tables_number      61
_space_group_name_Hall           '-P 2ac 2ab'
loop_
_symmetry_equiv_pos_site_id
_symmetry_equiv_pos_as_xyz
1 x,y,z
2 1/2-x,-y,1/2+z
3 -x,1/2+y,1/2-z
4 1/2+x,1/2-y,-z
5 -x,-y,-z
6 1/2+x,y,1/2-z
7 x,1/2-y,1/2+z
8 1/2-x,1/2+y,z
_cell_length_a                   9.9639(8)
_cell_length_b                   9.7061(8)
_cell_length_c                   14.1313(9)
_cell_angle_alpha                90
_cell_angle_beta                 90
_cell_angle_gamma                90
_cell_volume                     1366.65
loop_
_atom_site_label
_atom_site_type_symbol
_atom_site_fract_x
_atom_site_fract_y
_atom_site_fract_z
Zn1 Zn -0.01510(4) 0.22735(5) 0.62108(3)
N1 N 0.0297(3) 0.0484(4) 0.6820(3)
N2 N 0.1361(7) -0.1366(7) 0.7156(5)
H1 H 0.1929 -0.2057 0.7108
N3 N 0.0367(3) -0.1323(4) 0.7768(2)
N4 N 0.1226(3) 0.2746(4) 0.5262(2)
N5 N 0.1077(6) 0.3788(8) 0.4644(5)
H2 H 0.0362 0.4314 0.4594
N6 N 0.3038(3) 0.2906(4) 0.4370(2)
C1 C -0.0232(5) -0.0158(5) 0.7551(4)
H3 H -0.0981 0.0190 0.7892
C2 C 0.1407(7) -0.0262(6) 0.6627(5)
H4 H 0.2093 -0.0028 0.6188
C3 C 0.2438(4) 0.2280(5) 0.5089(3)
H5 H 0.2846 0.1562 0.5444
C4 C 0.2165(6) 0.3896(8) 0.4129(5)
H6 H 0.2313 0.4574 0.3655
Zn1B Zn 0.01510(4) -0.27265(5) 0.87892(3)
Zn1C Zn 0.48490(4) 0.27265(5) 0.37892(3)
N3B N -0.0367(3) 0.3677(4) 0.7232(2)
N6C N -0.1962(3) 0.2094(4) 0.5630(2)
loop_
_geom_bond_atom_site_label_1
_geom_bond_atom_site_label_2
_geom_bond_site_symmetry_1
_geom_bond_site_symmetry_2
Zn1 N1 1_555 1_555
N1 C1 1_555 1_555
N2 H1 1_555 1_555
N3 N2 1_555 1_555
N4 Zn1 1_555 1_555
N5 N4 1_555 1_555
H2 N5 1_555 1_555
N6 C3 1_555 1_555
C1 N3 1_555 1_555
H3 C1 1_555 1_555
C2 N1 1_555 1_555
H4 C2 1_555 1_555
C3 N4 1_555 1_555
H5 C3 1_555 1_555
C4 N5 1_555 1_555
H6 C4 1_555 1_555
Zn1B N3 1_555 1_555
Zn1C N6 1_555 1_555
N3B Zn1 1_555 1_555
N6C Zn1 1_555 1_555
N2 C2 1_555 1_555
N6 C4 1_555 1_555

#END
