
#######################################################################
#
#                 Cambridge Crystallographic Data Centre
#                                CCDC 
#
#######################################################################
#
# If this CIF has been generated from an entry in the Cambridge 
# Structural Database, then it will include bibliographic, chemical, 
# crystal, experimental, refinement or atomic coordinate data resulting 
# from the CCDC's data processing and validation procedures.
#
#######################################################################

data_LIHRIE
_symmetry_cell_setting           orthorhombic
_symmetry_space_group_name_H-M   'P n m a'
_symmetry_Int_Tables_number      62
_space_group_name_Hall           '-P 2ac 2n'
loop_
_symmetry_equiv_pos_site_id
_symmetry_equiv_pos_as_xyz
1 x,y,z
2 1/2-x,-y,1/2+z
3 -x,1/2+y,-z
4 1/2+x,1/2-y,1/2-z
5 -x,-y,-z
6 1/2+x,y,1/2-z
7 x,1/2-y,z
8 1/2-x,1/2+y,1/2+z
_cell_length_a                   7.3183(4)
_cell_length_b                   6.8119(4)
_cell_length_c                   13.7846(7)
_cell_angle_alpha                90
_cell_angle_beta                 90
_cell_angle_gamma                90
_cell_volume                     687.183
loop_
_atom_site_label
_atom_site_type_symbol
_atom_site_fract_x
_atom_site_fract_y
_atom_site_fract_z
Zn1 Zn 0.81737(5) 0.2500 0.41376(2)
Zn2 Zn 0.5000 0.0000 0.5000
S1 S 0.87207(9) -0.2500 0.42970(5)
O1 O 0.6489(3) 0.2500 0.52646(16)
H1 H 0.709(7) 0.2500 0.569(3)
O2 O 0.7532(2) -0.0743(2) 0.41574(10)
O3 O 1.0216(3) -0.2500 0.36039(16)
O4 O 0.9387(3) -0.2500 0.53152(16)
N1 N 0.9195(2) 0.1487(2) 0.12460(13)
N2 N 0.8420(4) 0.2500 0.27134(18)
C1 C 0.8728(3) 0.0942(3) 0.21298(15)
H2 H 0.8621 -0.0386 0.2332
Zn1D Zn 1.18263(5) -0.2500 0.58624(2)
Zn1_2 Zn 0.81737(5) -0.7500 0.41376(2)
Zn2F Zn 0.5000 0.5000 0.5000
Zn2E Zn 1.0000 0.0000 0.0000
Zn2F_2 Zn 0.5000 -0.5000 0.5000
Zn2G Zn 1.0000 0.5000 0.0000
O1D O 0.3511(3) -0.2500 0.47354(16)
H1D H 0.291(7) -0.2500 0.431(3)
O2F O 0.7532(2) -0.4257(2) 0.41574(10)
O2F_2 O 0.7532(2) 0.5743(2) 0.41574(10)
O2D O 0.2468(2) 0.0743(2) 0.58426(10)
O4D O 1.0613(3) 0.2500 0.46848(16)
N1F N 0.9195(2) 0.3513(2) 0.12460(13)
N1E N 0.4195(2) 0.1487(2) 0.37540(13)
N1A N 0.5805(2) -0.1487(2) 0.62460(13)
C1F C 0.8728(3) 0.4058(3) 0.21298(15)
H2F H 0.8621 0.5386 0.2332
loop_
_geom_bond_atom_site_label_1
_geom_bond_atom_site_label_2
_geom_bond_site_symmetry_1
_geom_bond_site_symmetry_2
Zn1 O1 1_555 1_555
Zn2 O1 1_555 1_555
S1 O2 1_555 1_555
O1 H1 1_555 1_555
O2 Zn1 1_555 1_555
O3 S1 1_555 1_555
O4 S1 1_555 1_555
N1 C1 1_555 1_555
N2 Zn1 1_555 1_555
C1 N2 1_555 1_555
H2 C1 1_555 1_555
Zn1D O4 1_555 1_555
Zn1_2 O2F 1_555 1_555
Zn2F O1 1_555 1_555
Zn2E N1 1_555 1_555
Zn2F_2 O1D 1_555 1_555
Zn2G N1F 1_555 1_555
O1D Zn2 1_555 1_555
H1D O1D 1_555 1_555
O2F S1 1_555 1_555
O2F_2 Zn1 1_555 1_555
O2D Zn2 1_555 1_555
O4D Zn1 1_555 1_555
N1F N1 1_555 1_555
N1E Zn2 1_555 1_555
N1A Zn2 1_555 1_555
C1F N2 1_555 1_555
H2F C1F 1_555 1_555
Zn2 O2 1_555 1_555
Zn2F O2F_2 1_555 1_555
Zn2F_2 O2F 1_555 1_555
N1F C1F 1_555 1_555

#END
