
#######################################################################
#
#                 Cambridge Crystallographic Data Centre
#                                CCDC 
#
#######################################################################
#
# If this CIF has been generated from an entry in the Cambridge 
# Structural Database, then it will include bibliographic, chemical, 
# crystal, experimental, refinement or atomic coordinate data resulting 
# from the CCDC's data processing and validation procedures.
#
#######################################################################

data_LIHRAW
_symmetry_cell_setting           monoclinic
_symmetry_space_group_name_H-M   'P 21/n'
_symmetry_Int_Tables_number      14
_space_group_name_Hall           '-P 2yn'
loop_
_symmetry_equiv_pos_site_id
_symmetry_equiv_pos_as_xyz
1 x,y,z
2 1/2-x,1/2+y,1/2-z
3 -x,-y,-z
4 1/2+x,1/2-y,1/2+z
_cell_length_a                   6.3341(6)
_cell_length_b                   9.6687(9)
_cell_length_c                   9.0805(8)
_cell_angle_alpha                90
_cell_angle_beta                 102.888(2)
_cell_angle_gamma                90
_cell_volume                     542.103
loop_
_atom_site_label
_atom_site_type_symbol
_atom_site_fract_x
_atom_site_fract_y
_atom_site_fract_z
Br1 Br 0.18445(3) 0.55196(2) 0.31850(2)
Zn1 Zn 0.45412(4) 0.57690(2) 0.18000(2)
N1 N 0.6233(3) 0.40481(17) 0.16438(18)
N2 N 0.6640(3) 0.35557(18) 0.03091(17)
N3 N 0.8442(3) 0.22515(17) 0.21734(18)
C1 C 0.7959(3) 0.2493(2) 0.0680(2)
H1 H 0.8505 0.1959 -0.0031
C2 C 0.7342(3) 0.3246(2) 0.2722(2)
H2 H 0.7360 0.3358 0.3764
Zn1B Zn 0.54588(4) 0.42310(2) -0.18000(2)
Zn1A Zn 1.04588(4) 0.07690(2) 0.32000(2)
N2B N 0.3360(3) 0.64443(18) -0.03091(17)
N3A N 0.6558(3) 0.72515(17) 0.28266(18)
loop_
_geom_bond_atom_site_label_1
_geom_bond_atom_site_label_2
_geom_bond_site_symmetry_1
_geom_bond_site_symmetry_2
Br1 Zn1 1_555 1_555
Zn1 N1 1_555 1_555
N1 N2 1_555 1_555
N2 C1 1_555 1_555
N3 C1 1_555 1_555
C1 H1 1_555 1_555
C2 N1 1_555 1_555
H2 C2 1_555 1_555
Zn1B N2 1_555 1_555
Zn1A N3 1_555 1_555
N2B Zn1 1_555 1_555
N3A Zn1 1_555 1_555
N3 C2 1_555 1_555

#END
