
#######################################################################
#
#                 Cambridge Crystallographic Data Centre
#                                CCDC 
#
#######################################################################
#
# If this CIF has been generated from an entry in the Cambridge 
# Structural Database, then it will include bibliographic, chemical, 
# crystal, experimental, refinement or atomic coordinate data resulting 
# from the CCDC's data processing and validation procedures.
#
#######################################################################

data_LIHRUQ
_symmetry_cell_setting           orthorhombic
_symmetry_space_group_name_H-M   'P n m a'
_symmetry_Int_Tables_number      62
_space_group_name_Hall           '-P 2ac 2n'
loop_
_symmetry_equiv_pos_site_id
_symmetry_equiv_pos_as_xyz
1 x,y,z
2 1/2-x,-y,1/2+z
3 -x,1/2+y,-z
4 1/2+x,1/2-y,1/2-z
5 -x,-y,-z
6 1/2+x,y,1/2-z
7 x,1/2-y,z
8 1/2-x,1/2+y,1/2+z
_cell_length_a                   7.5186(4)
_cell_length_b                   11.7796(6)
_cell_length_c                   12.3158(6)
_cell_angle_alpha                90
_cell_angle_beta                 90
_cell_angle_gamma                90
_cell_volume                     1090.76
loop_
_atom_site_label
_atom_site_type_symbol
_atom_site_fract_x
_atom_site_fract_y
_atom_site_fract_z
Cd1 Cd 0.31315(3) 0.7500 0.389209(18)
Cd2 Cd -0.07012(3) 0.7500 0.746690(17)
Cl1 Cl 0.47736(10) 0.7500 0.19054(6)
Cl2 Cl 0.18622(9) 0.7500 0.59513(6)
O1 O 0.6163(3) 0.7500 0.4455(2)
N1 N 0.3202(2) 0.56189(16) 0.38805(15)
N2 N 0.4131(2) 0.39255(16) 0.33198(15)
N3 N 0.2304(2) 0.38869(15) 0.34161(15)
C1 C 0.1815(3) 0.49091(19) 0.37505(19)
C2 C 0.4605(3) 0.49624(18) 0.36058(18)
H1 H 0.062(4) 0.508(2) 0.388(2)
H2 H 0.575(4) 0.521(2) 0.365(2)
H3 H 0.692(8) 0.7500 0.409(5)
H4 H 0.638(8) 0.7500 0.500(6)
Cd1E Cd 0.81315(3) 0.7500 0.110791(18)
Cd2E Cd 0.42988(3) 0.7500 0.753310(17)
Cd2G Cd 0.57012(3) 0.2500 0.246690(17)
Cd2D Cd 0.07012(3) 0.2500 0.253310(17)
Cd2G_2 Cd 0.57012(3) 1.2500 0.246690(17)
Cd2D_2 Cd 0.07012(3) 1.2500 0.253310(17)
Cl1E Cl -0.02264(10) 0.7500 0.30946(6)
Cl2E Cl -0.31378(9) 0.7500 0.90487(6)
N1F N 0.3202(2) 0.93811(16) 0.38805(15)
N2F N 0.4131(2) 1.10745(16) 0.33198(15)
N2G N 0.0869(2) 0.89255(16) 0.83198(15)
N2A N 0.0869(2) 0.60745(16) 0.83198(15)
N3F N 0.2304(2) 1.11131(15) 0.34161(15)
N3D N -0.2304(2) 0.61131(15) 0.65839(15)
N3B N -0.2304(2) 0.88869(15) 0.65839(15)
C1F C 0.1815(3) 1.00909(19) 0.37505(19)
C2F C 0.4605(3) 1.00376(18) 0.36058(18)
H1F H 0.062(4) 0.992(2) 0.388(2)
H2F H 0.575(4) 0.979(2) 0.365(2)
loop_
_geom_bond_atom_site_label_1
_geom_bond_atom_site_label_2
_geom_bond_site_symmetry_1
_geom_bond_site_symmetry_2
Cd1 Cl1 1_555 1_555
Cd2 Cl2 1_555 1_555
Cl1 Cd1E 1_555 1_555
Cl2 Cd1 1_555 1_555
O1 Cd1 1_555 1_555
N1 Cd1 1_555 1_555
N2 N3 1_555 1_555
N3 C1 1_555 1_555
C1 N1 1_555 1_555
C2 N1 1_555 1_555
H1 C1 1_555 1_555
H2 C2 1_555 1_555
H3 O1 1_555 1_555
H4 O1 1_555 1_555
Cd2E Cl2 1_555 1_555
Cd2G N2 1_555 1_555
Cd2D N3 1_555 1_555
Cd2G_2 N2F 1_555 1_555
Cd2D_2 N3F 1_555 1_555
Cl1E Cd1 1_555 1_555
Cl2E Cd2 1_555 1_555
N1F Cd1 1_555 1_555
N2F N3F 1_555 1_555
N2G Cd2 1_555 1_555
N2A Cd2 1_555 1_555
N3F C1F 1_555 1_555
N3D Cd2 1_555 1_555
N3B Cd2 1_555 1_555
C1F N1F 1_555 1_555
C2F N1F 1_555 1_555
H1F C1F 1_555 1_555
H2F C2F 1_555 1_555
N2 C2 1_555 1_555
N2F C2F 1_555 1_555

#END
