
#######################################################################
#
#                 Cambridge Crystallographic Data Centre
#                                CCDC 
#
#######################################################################
#
# If this CIF has been generated from an entry in the Cambridge 
# Structural Database, then it will include bibliographic, chemical, 
# crystal, experimental, refinement or atomic coordinate data resulting 
# from the CCDC's data processing and validation procedures.
#
#######################################################################

data_LIHSOL
_symmetry_cell_setting           monoclinic
_symmetry_space_group_name_H-M   'P 21'
_symmetry_Int_Tables_number      4
_space_group_name_Hall           'P 2yb'
loop_
_symmetry_equiv_pos_site_id
_symmetry_equiv_pos_as_xyz
1 x,y,z
2 -x,1/2+y,-z
_cell_length_a                   9.1409(4)
_cell_length_b                   13.5467(7)
_cell_length_c                   13.5525(7)
_cell_angle_alpha                90
_cell_angle_beta                 108.4870(10)
_cell_angle_gamma                90
_cell_volume                     1591.59
loop_
_atom_site_label
_atom_site_type_symbol
_atom_site_fract_x
_atom_site_fract_y
_atom_site_fract_z
Cd1 Cd 0.26802(3) 0.617712(18) -0.019078(19)
Cd2 Cd -0.04252(3) 0.478533(18) 0.003575(18)
Cd3 Cd 0.34325(3) 0.433171(19) 0.182368(19)
Cd4 Cd -0.02782(3) 0.763780(18) -0.244880(19)
Cd5 Cd 0.03056(3) 0.492180(18) -0.487180(19)
Cd6 Cd 0.32565(3) 0.662290(18) 0.419080(18)
Cd7 Cd 0.08870(3) 0.249110(18) -0.241020(18)
Cd8 Cd -0.29397(3) 0.345760(18) -0.211400(19)
S1 S 0.06255(9) 0.50879(6) 0.26248(6)
S2 S 0.02684(9) 0.74568(6) -0.49873(6)
S3 S 0.00920(9) 0.49901(6) -0.23721(6)
S4 S -0.04074(9) 0.73787(6) 0.00688(6)
S5 S 0.51578(9) 0.66290(7) 0.22908(6)
O1 O 0.2048(3) 0.46756(19) 0.02244(18)
O2 O 0.2197(3) 0.55207(19) 0.28906(19)
O3 O 0.0536(3) 0.43577(19) 0.17762(18)
O4 O -0.0574(3) 0.58397(19) 0.22520(19)
O5 O 0.0406(3) 0.45282(19) 0.34931(19)
O6 O -0.0235(3) 0.72638(19) -0.40916(19)
O7 O 0.1115(3) 0.83984(19) -0.48997(19)
O8 O 0.1250(3) 0.66133(19) -0.50960(19)
O9 O -0.1102(3) 0.7486(2) -0.59464(18)
O10 O -0.0660(3) 0.50276(19) -0.35104(19)
O11 O 0.0841(3) 0.59531(18) -0.19800(18)
O12 O 0.1267(3) 0.41963(18) -0.21046(19)
O13 O -0.1090(3) 0.47989(19) -0.18605(18)
O14 O 0.1674(3) 0.77778(19) 0.30946(19)
O15 O -0.1518(3) 0.74333(19) 0.06495(18)
O16 O 0.0819(3) 0.81354(19) 0.04599(19)
O17 O -0.1233(3) 0.75299(19) -0.10367(18)
O18 O 0.0382(3) 0.64049(18) 0.02359(19)
O19 O 0.3713(3) 0.69328(19) 0.14579(18)
O20 O 0.5036(3) 0.6980(2) 0.3290(2)
O21 O 0.5305(3) 0.55428(19) 0.2297(2)
O22 O 0.6488(3) 0.70857(19) 0.20820(19)
O23 O -0.2068(3) 0.5600(2) -0.5713(2)
N1 N 0.4535(3) 0.8633(2) -0.1438(2)
N2 N 0.2178(3) 0.8026(2) -0.1741(2)
N3 N 0.3159(3) 0.7527(2) -0.0918(2)
N4 N 0.3842(3) 0.3325(2) 0.3147(2)
N5 N 0.2742(3) 0.2765(2) 0.3384(2)
N6 N 0.5008(3) 0.2508(2) 0.4597(2)
N7 N 0.2865(3) 0.4707(2) -0.4365(2)
N8 N 0.3897(3) 0.5266(2) -0.4687(2)
N9 N 0.5230(3) 0.4189(2) -0.3490(2)
N10 N 0.6152(3) 0.4400(2) -0.1054(2)
N11 N 0.7138(3) 0.4900(2) -0.0221(2)
N12 N 0.4773(3) 0.5402(2) -0.0392(2)
C1 C 0.3031(4) 0.8674(3) -0.2022(3)
H1 H 0.2636 0.9128 -0.2578
C2 C 0.4534(4) 0.7902(3) -0.0775(3)
H2 H 0.5437 0.7678 -0.0253
C3 C 0.5158(4) 0.3156(3) 0.3885(3)
H3 H 0.6107 0.3459 0.3911
C4 C 0.3488(4) 0.2294(3) 0.4251(3)
H4 H 0.3005 0.1851 0.4595
C5 C 0.5278(4) 0.4931(3) -0.4145(3)
H5 H 0.6211 0.5187 -0.4209
C6 C 0.3711(4) 0.4083(3) -0.3663(3)
H6 H 0.3284 0.3608 -0.3317
C7 C 0.4758(4) 0.4727(3) -0.1129(3)
H7 H 0.3844 0.4510 -0.1645
C8 C 0.6275(4) 0.5482(3) 0.0144(3)
H8 H 0.6674 0.5910 0.0722
H9 H 0.179(6) 0.822(4) 0.350(4)
H10 H -0.208(5) 0.627(4) -0.589(4)
H11 H -0.259(5) 0.539(3) -0.611(3)
H12 H 0.219(4) 0.430(3) -0.015(3)
Cd2A Cd 0.04252(3) 0.978533(18) -0.003575(18)
Cd2_2 Cd 0.95748(3) 0.478533(18) 0.003575(18)
Cd3A Cd 0.65675(3) 0.933171(19) -0.182368(19)
Cd4A Cd 0.02782(3) 0.263780(18) 0.244880(19)
Cd5_2 Cd 0.03056(3) 0.492180(18) 0.512820(19)
Cd5A Cd -0.03056(3) 0.992180(18) -0.512820(19)
Cd6_2 Cd 0.32565(3) 0.662290(18) -0.580920(18)
Cd6A Cd 0.67435(3) 0.162290(18) 0.580920(18)
Cd7A Cd -0.08870(3) 0.749110(18) 0.241020(18)
Cd7A_2 Cd -0.08870(3) 0.749110(18) -0.758980(18)
Cd7A_3 Cd 0.91130(3) 0.749110(18) 0.241020(18)
Cd8A Cd 0.29397(3) 0.845760(18) 0.211400(19)
Cd8_2 Cd 0.70603(3) 0.345760(18) -0.211400(19)
O3A O -0.0536(3) 0.93577(19) -0.17762(18)
O4A O 0.0574(3) 0.08397(19) -0.22520(19)
O5_2 O 0.0406(3) 0.45282(19) -0.65069(19)
O7A O -0.1115(3) 0.33984(19) -0.51003(19)
O8_2 O 0.1250(3) 0.66133(19) 0.49040(19)
O9A O 0.1102(3) 0.2486(2) -0.40536(18)
O14A O -0.1674(3) 0.27778(19) -0.30946(19)
O15A O 0.1518(3) 0.24333(19) -0.06495(18)
O16A O -0.0819(3) 0.31354(19) -0.04599(19)
O19A O -0.3713(3) 0.19328(19) -0.14579(18)
O22A O 0.3512(3) 0.20857(19) -0.20820(19)
N1A N 0.5465(3) 0.3633(2) 0.1438(2)
N5A N -0.2742(3) 0.7765(2) -0.3384(2)
N6A N 0.4992(3) 0.7508(2) 0.5403(2)
N8_2 N 0.3897(3) 0.5266(2) 0.5313(2)
N9_2 N -0.4770(3) 0.4189(2) -0.3490(2)
N10_2 N -0.3848(3) 0.4400(2) -0.1054(2)
N11_2 N -0.2862(3) 0.4900(2) -0.0221(2)
H9A H -0.179(6) 0.322(4) -0.350(4)
loop_
_geom_bond_atom_site_label_1
_geom_bond_atom_site_label_2
_geom_bond_site_symmetry_1
_geom_bond_site_symmetry_2
Cd1 O1 1_555 1_555
Cd2 O1 1_555 1_555
Cd3 O1 1_555 1_555
Cd4 O6 1_555 1_555
Cd5 O8 1_555 1_555
Cd6 O2 1_555 1_555
Cd7 O12 1_555 1_555
Cd8 O13 1_555 1_555
S1 O2 1_555 1_555
S2 O6 1_555 1_555
S3 O10 1_555 1_555
S4 O15 1_555 1_555
S5 O19 1_555 1_555
O1 H12 1_555 1_555
O2 Cd3 1_555 1_555
O3 Cd2 1_555 1_555
O4 S1 1_555 1_555
O5 S1 1_555 1_555
O7 S2 1_555 1_555
O8 S2 1_555 1_555
O9 S2 1_555 1_555
O10 Cd5 1_555 1_555
O11 Cd1 1_555 1_555
O12 S3 1_555 1_555
O13 Cd2 1_555 1_555
O14 Cd6 1_555 1_555
O15 Cd7A 1_555 1_555
O16 S4 1_555 1_555
O17 Cd4 1_555 1_555
O18 Cd1 1_555 1_555
O19 Cd1 1_555 1_555
O20 Cd6 1_555 1_555
O21 Cd3 1_555 1_555
O22 S5 1_555 1_555
O23 Cd5 1_555 1_555
N1 C1 1_555 1_555
N2 Cd4 1_555 1_555
N3 Cd1 1_555 1_555
N4 Cd3 1_555 1_555
N5 N4 1_555 1_555
N6 C3 1_555 1_555
N7 Cd5 1_555 1_555
N8 N7 1_555 1_555
N9 C5 1_555 1_555
N10 N11 1_555 1_555
N11 C8 1_555 1_555
N12 Cd1 1_555 1_555
C1 N2 1_555 1_555
H1 C1 1_555 1_555
C2 N1 1_555 1_555
H2 C2 1_555 1_555
C3 N4 1_555 1_555
H3 C3 1_555 1_555
C4 N5 1_555 1_555
H4 C4 1_555 1_555
C5 N8 1_555 1_555
H5 C5 1_555 1_555
C6 N7 1_555 1_555
H6 C6 1_555 1_555
C7 N10 1_555 1_555
H7 C7 1_555 1_555
C8 N12 1_555 1_555
H8 C8 1_555 1_555
H9 O14 1_555 1_555
H10 O23 1_555 1_555
H11 O23 1_555 1_555
Cd2A O16 1_555 1_555
Cd2_2 N11 1_555 1_555
Cd3A N1 1_555 1_555
Cd4A O3 1_555 1_555
Cd5_2 O5 1_555 1_555
Cd5A O7 1_555 1_555
Cd6_2 O8 1_555 1_555
Cd6A N6 1_555 1_555
Cd7A O4 1_555 1_555
Cd7A_2 O9 1_555 1_555
Cd7A_3 O22 1_555 1_555
Cd8A O14 1_555 1_555
Cd8_2 N9 1_555 1_555
O3A Cd4 1_555 1_555
O4A Cd7 1_555 1_555
O5_2 Cd5 1_555 1_555
O7A Cd5 1_555 1_555
O8_2 Cd6 1_555 1_555
O9A Cd7 1_555 1_555
O14A Cd7 1_555 1_555
O15A Cd7 1_555 1_555
O16A Cd2 1_555 1_555
O19A Cd8 1_555 1_555
O22A Cd7 1_555 1_555
N1A Cd3 1_555 1_555
N5A Cd4 1_555 1_555
N6A Cd6 1_555 1_555
N8_2 Cd6 1_555 1_555
N9_2 Cd8 1_555 1_555
N10_2 Cd8 1_555 1_555
N11_2 Cd2 1_555 1_555
H9A O14A 1_555 1_555
Cd2 O18 1_555 1_555
Cd3 O3 1_555 1_555
Cd4 O11 1_555 1_555
Cd8 O14A 1_555 1_555
Cd8 O16A 1_555 1_555
S1 O3 1_555 1_555
S3 O11 1_555 1_555
S3 O13 1_555 1_555
S4 O17 1_555 1_555
S4 O18 1_555 1_555
S5 O20 1_555 1_555
S5 O21 1_555 1_555
O14 Cd7A 1_555 1_555
O16 Cd8A 1_555 1_555
O19 Cd8A 1_555 1_555
N2 N3 1_555 1_555
N3 C2 1_555 1_555
N5 Cd4A 1_555 1_555
N6 C4 1_555 1_555
N8 Cd6_2 1_555 1_555
N9 C6 1_555 1_555
N10 Cd8_2 1_555 1_555
N12 C7 1_555 1_555
Cd2A O3A 1_555 1_555
Cd5_2 O8_2 1_555 1_555
N10_2 N11_2 1_555 1_555

#END
