
#######################################################################
#
#                 Cambridge Crystallographic Data Centre
#                                CCDC 
#
#######################################################################
#
# If this CIF has been generated from an entry in the Cambridge 
# Structural Database, then it will include bibliographic, chemical, 
# crystal, experimental, refinement or atomic coordinate data resulting 
# from the CCDC's data processing and validation procedures.
#
#######################################################################

data_LIHSAX
_symmetry_cell_setting           monoclinic
_symmetry_space_group_name_H-M   'P 21/c'
_symmetry_Int_Tables_number      14
_space_group_name_Hall           '-P 2ybc'
loop_
_symmetry_equiv_pos_site_id
_symmetry_equiv_pos_as_xyz
1 x,y,z
2 -x,1/2+y,1/2-z
3 -x,-y,-z
4 x,1/2-y,1/2+z
_cell_length_a                   15.6858(11)
_cell_length_b                   12.5013(9)
_cell_length_c                   8.4003(6)
_cell_angle_alpha                90
_cell_angle_beta                 103.0910(10)
_cell_angle_gamma                90
_cell_volume                     1604.43
loop_
_atom_site_label
_atom_site_type_symbol
_atom_site_fract_x
_atom_site_fract_y
_atom_site_fract_z
Cd1 Cd 0.40028(5) 0.44731(6) 0.11511(9)
Cd2 Cd 0.23103(5) 0.53335(6) 0.37114(9)
Cd3 Cd -0.01665(5) 0.49041(6) 0.23148(9)
Br1 Br 0.33927(7) 0.63161(8) 0.20467(13)
Br2 Br 0.12554(7) 0.44050(8) 0.06188(12)
Br3 Br 0.11187(6) 0.43529(8) 0.53648(12)
N1 N 0.5443(6) 0.4387(8) 0.2144(11)
N2 N 0.6754(6) 0.4296(7) 0.3854(11)
N3 N 0.6052(6) 0.4774(7) 0.1339(10)
N4 N 0.3692(6) 0.3519(7) 0.3260(11)
N5 N 0.2981(6) 0.3670(7) 0.3920(11)
N6 N 0.3534(6) 0.2068(7) 0.4690(11)
N7 N 0.1322(6) 0.6703(7) 0.3255(11)
N8 N 0.0456(6) 0.6492(7) 0.2607(11)
N9 N 0.0614(6) 0.8236(7) 0.2876(10)
C1 C 0.5907(8) 0.4122(9) 0.3619(14)
H1 H 0.5647 0.3830 0.4440
C2 C 0.6827(7) 0.4702(10) 0.2395(13)
H2 H 0.7365 0.4912 0.2152
C3 C 0.3995(7) 0.2552(8) 0.3731(13)
H3 H 0.4484 0.2237 0.3423
C4 C 0.2923(7) 0.2796(8) 0.4763(13)
H4 H 0.2486 0.2693 0.5368
C5 C 0.1397(7) 0.7751(9) 0.3399(14)
H5 H 0.1932 0.8117 0.3816
C6 C 0.0058(7) 0.7428(8) 0.2394(14)
H6 H -0.0552 0.7516 0.1952
Cd1B Cd 0.59972(5) 0.55269(6) -0.11511(9)
Cd1C Cd 0.40028(5) 0.05269(6) 0.61511(9)
Cd2B Cd 0.76897(5) 0.46665(6) 0.62886(9)
Cd3B Cd 0.01665(5) 0.50959(6) -0.23148(9)
Cd3B_2 Cd 0.01665(5) 0.50959(6) 0.76852(9)
Cd3A Cd 0.01665(5) 0.99041(6) 0.26852(9)
Br2B Br -0.12554(7) 0.55950(8) -0.06188(12)
Br3B Br -0.11187(6) 0.56471(8) 0.46352(12)
N2B N 0.3246(6) 0.5704(7) 0.6146(11)
N3B N 0.3948(6) 0.5226(7) -0.1339(10)
N6C N 0.3534(6) 0.2932(7) -0.0310(11)
N9A N -0.0614(6) 0.3236(7) 0.2124(10)
loop_
_geom_bond_atom_site_label_1
_geom_bond_atom_site_label_2
_geom_bond_site_symmetry_1
_geom_bond_site_symmetry_2
Cd1 Br1 1_555 1_555
Cd2 Br1 1_555 1_555
Cd3 Br2 1_555 1_555
Br2 Cd2 1_555 1_555
Br3 Cd2 1_555 1_555
N1 Cd1 1_555 1_555
N2 C1 1_555 1_555
N3 N1 1_555 1_555
N4 Cd1 1_555 1_555
N5 Cd2 1_555 1_555
N6 C3 1_555 1_555
N7 Cd2 1_555 1_555
N8 Cd3 1_555 1_555
N9 C5 1_555 1_555
C1 N1 1_555 1_555
H1 C1 1_555 1_555
C2 N2 1_555 1_555
H2 C2 1_555 1_555
C3 N4 1_555 1_555
H3 C3 1_555 1_555
C4 N5 1_555 1_555
H4 C4 1_555 1_555
C5 N7 1_555 1_555
H5 C5 1_555 1_555
C6 N8 1_555 1_555
H6 C6 1_555 1_555
Cd1B N3 1_555 1_555
Cd1C N6 1_555 1_555
Cd2B N2 1_555 1_555
Cd3B Br2 1_555 1_555
Cd3B_2 Br3 1_555 1_555
Cd3A N9 1_555 1_555
Br2B Cd3 1_555 1_555
Br3B Cd3 1_555 1_555
N2B Cd2 1_555 1_555
N3B Cd1 1_555 1_555
N6C Cd1 1_555 1_555
N9A Cd3 1_555 1_555
Cd3 Br3 1_555 1_555
N3 C2 1_555 1_555
N4 N5 1_555 1_555
N6 C4 1_555 1_555
N7 N8 1_555 1_555
N9 C6 1_555 1_555
Cd3B Br2B 1_555 1_555
Cd3B_2 Br3B 1_555 1_555

#END
