
#######################################################################
#
#                 Cambridge Crystallographic Data Centre
#                                CCDC 
#
#######################################################################
#
# If this CIF has been generated from an entry in the Cambridge 
# Structural Database, then it will include bibliographic, chemical, 
# crystal, experimental, refinement or atomic coordinate data resulting 
# from the CCDC's data processing and validation procedures.
#
#######################################################################

data_LIHXUX
_symmetry_cell_setting           orthorhombic
_symmetry_space_group_name_H-M   'P 21 21 21'
_symmetry_Int_Tables_number      19
_space_group_name_Hall           'P 2ac 2ab'
loop_
_symmetry_equiv_pos_site_id
_symmetry_equiv_pos_as_xyz
1 x,y,z
2 1/2-x,-y,1/2+z
3 -x,1/2+y,1/2-z
4 1/2+x,1/2-y,-z
_cell_length_a                   11.2805(8)
_cell_length_b                   13.8930(9)
_cell_length_c                   17.6101(12)
_cell_angle_alpha                90
_cell_angle_beta                 90
_cell_angle_gamma                90
_cell_volume                     2759.85
loop_
_atom_site_label
_atom_site_type_symbol
_atom_site_fract_x
_atom_site_fract_y
_atom_site_fract_z
Zn1 Zn 0.237775(16) 0.959036(14) 0.070587(11)
C1 C 0.31794(18) 1.14487(13) -0.00397(10)
H1 H 0.2512 1.1733 0.0201
C2 C 0.3919(2) 1.20227(14) -0.04737(11)
H2 H 0.3759 1.2690 -0.0533
C3 C 0.48915(19) 1.16089(14) -0.08182(12)
H3 H 0.5416 1.1991 -0.1114
C4 C 0.50976(17) 1.06317(13) -0.07301(11)
H4 H 0.5762 1.0336 -0.0965
C5 C 0.43220(16) 1.00939(13) -0.02951(10)
C6 C 0.44736(17) 0.90142(13) -0.02082(10)
H5 H 0.4056 0.8680 -0.0626
H6 H 0.5325 0.8847 -0.0239
C7 C 0.47546(16) 0.89878(13) 0.11652(10)
H7 H 0.5138 0.9610 0.1046
H8 H 0.5385 0.8502 0.1241
C8 C 0.40378(17) 0.90858(13) 0.18820(10)
C9 C 0.45333(19) 0.89483(13) 0.25947(11)
H9 H 0.5338 0.8756 0.2644
C10 C 0.3844(2) 0.90934(15) 0.32321(11)
H10 H 0.4170 0.9012 0.3725
C11 C 0.2663(2) 0.93617(14) 0.31405(11)
H11 H 0.2171 0.9465 0.3571
C12 C 0.22196(17) 0.94750(14) 0.24186(10)
H12 H 0.1411 0.9650 0.2357
C13 C 0.61923(17) 0.66867(13) 0.22587(10)
H13 H 0.6956 0.6779 0.2042
C14 C 0.60339(19) 0.67125(15) 0.30429(11)
H14 H 0.6694 0.6825 0.3366
C15 C 0.49142(19) 0.65741(15) 0.33554(11)
H15 H 0.4810 0.6606 0.3890
C16 C 0.39508(19) 0.63901(15) 0.28905(11)
H16 H 0.3191 0.6286 0.3108
C17 C 0.40931(17) 0.63569(13) 0.20987(11)
H17 H 0.3440 0.6224 0.1775
C18 C 0.52171(17) 0.65247(12) 0.18018(9)
C19 C 0.47591(16) 0.70054(12) 0.04351(10)
C20 C 0.53410(16) 0.67692(12) -0.02235(10)
H18 H 0.5133 0.6979 -0.0719
C21 C 0.37078(16) 0.76466(12) 0.05481(10)
H19 H 0.3116 0.7504 0.0149
H20 H 0.3341 0.7494 0.1045
N1 N 0.33771(13) 1.04962(11) 0.00529(8)
N2 N 0.39912(13) 0.86945(10) 0.05259(8)
N3 N 0.28938(13) 0.93467(10) 0.17964(8)
N4 N 0.53835(13) 0.65296(10) 0.09862(8)
N5 N 0.62963(13) 0.60333(10) 0.06940(9)
N6 N 0.62631(14) 0.61849(11) -0.00460(8)
O1 O 0.10318(14) 1.05578(13) 0.09846(10)
H21 H 0.043(3) 1.062(2) 0.0702(18)
H22 H 0.095(3) 1.088(2) 0.1336(19)
Zn1C Zn 0.737775(16) 0.540964(14) -0.070587(11)
N6C N 0.12631(14) 0.88151(11) 0.00460(8)
Cl1 Cl 0.52041(5) 0.82145(4) 0.75781(3)
O2 O 0.40260(16) 0.81527(16) 0.72071(12)
O3 O 0.54147(19) 0.73122(14) 0.79248(12)
O4 O 0.60122(17) 0.83930(15) 0.69728(10)
O5 O 0.5175(3) 0.89722(18) 0.80986(12)
Cl2 Cl 0.81539(4) 0.05020(4) 0.96988(3)
O6 O 0.75406(19) 0.07457(14) 1.03804(10)
O7 O 0.79451(18) 0.12248(15) 0.91382(12)
O8 O 0.77590(15) -0.04183(12) 0.94312(10)
O9 O 0.94187(15) 0.04594(16) 0.98513(11)
C22 C 0.29316(19) 0.63495(16) 0.84018(15)
C23 C 0.3274(3) 0.5747(2) 0.7760(2)
H23 H 0.2692 0.5820 0.7351
H24 H 0.3301 0.5072 0.7921
H25 H 0.4058 0.5943 0.7577
N7 N 0.2655(2) 0.68358(16) 0.88861(11)
loop_
_geom_bond_atom_site_label_1
_geom_bond_atom_site_label_2
_geom_bond_site_symmetry_1
_geom_bond_site_symmetry_2
Zn1 N1 1_555 1_555
C1 H1 1_555 1_555
C2 C1 1_555 1_555
H2 C2 1_555 1_555
C3 C2 1_555 1_555
H3 C3 1_555 1_555
C4 C3 1_555 1_555
H4 C4 1_555 1_555
C5 C4 1_555 1_555
C6 C5 1_555 1_555
H5 C6 1_555 1_555
H6 C6 1_555 1_555
C7 H7 1_555 1_555
H8 C7 1_555 1_555
C8 C7 1_555 1_555
C9 C8 1_555 1_555
H9 C9 1_555 1_555
C10 C9 1_555 1_555
H10 C10 1_555 1_555
C11 C10 1_555 1_555
H11 C11 1_555 1_555
C12 C11 1_555 1_555
H12 C12 1_555 1_555
C13 H13 1_555 1_555
C14 C13 1_555 1_555
H14 C14 1_555 1_555
C15 C14 1_555 1_555
H15 C15 1_555 1_555
C16 C15 1_555 1_555
H16 C16 1_555 1_555
C17 C16 1_555 1_555
H17 C17 1_555 1_555
C18 C13 1_555 1_555
C19 C20 1_555 1_555
C20 H18 1_555 1_555
C21 C19 1_555 1_555
H19 C21 1_555 1_555
H20 C21 1_555 1_555
N1 C1 1_555 1_555
N2 Zn1 1_555 1_555
N3 Zn1 1_555 1_555
N4 C18 1_555 1_555
N5 N4 1_555 1_555
N6 C20 1_555 1_555
O1 Zn1 1_555 1_555
H21 O1 1_555 1_555
H22 O1 1_555 1_555
Cl1 O2 1_555 1_555
O3 Cl1 1_555 1_555
O4 Cl1 1_555 1_555
O5 Cl1 1_555 1_555
Cl2 O6 1_555 1_555
O7 Cl2 1_555 1_555
O8 Cl2 1_555 1_555
O9 Cl2 1_555 1_555
C22 C23 1_555 1_555
C23 H23 1_555 1_555
H24 C23 1_555 1_555
H25 C23 1_555 1_555
N7 C22 1_555 1_555
Zn1C N6 1_555 1_555
N6C Zn1 1_555 1_555
C5 N1 1_555 1_555
C6 N2 1_555 1_555
C7 N2 1_555 1_555
C8 N3 1_555 1_555
C12 N3 1_555 1_555
C17 C18 1_555 1_555
C19 N4 1_555 1_555
C21 N2 1_555 1_555
N5 N6 1_555 1_555

#END
