
#######################################################################
#
#                 Cambridge Crystallographic Data Centre
#                                CCDC 
#
#######################################################################
#
# If this CIF has been generated from an entry in the Cambridge 
# Structural Database, then it will include bibliographic, chemical, 
# crystal, experimental, refinement or atomic coordinate data resulting 
# from the CCDC's data processing and validation procedures.
#
#######################################################################

data_LIJBOW
_symmetry_cell_setting           triclinic
_symmetry_space_group_name_H-M   'P -1'
_symmetry_Int_Tables_number      2
_space_group_name_Hall           '-P 1'
loop_
_symmetry_equiv_pos_site_id
_symmetry_equiv_pos_as_xyz
1 x,y,z
2 -x,-y,-z
_cell_length_a                   6.5890(10)
_cell_length_b                   6.9700(10)
_cell_length_c                   16.586(5)
_cell_angle_alpha                99.60(5)
_cell_angle_beta                 96.75(5)
_cell_angle_gamma                100.12(5)
_cell_volume                     730.856
loop_
_atom_site_label
_atom_site_type_symbol
_atom_site_fract_x
_atom_site_fract_y
_atom_site_fract_z
S1 S 0.60308(12) -0.48265(11) 0.24309(5)
S2 S 0.96220(16) -0.47354(18) 0.14167(6)
Na1 Na 0.38574(19) -0.16194(18) 0.30770(7)
O1 O 1.2746(3) -0.1690(3) 0.43888(12)
O2 O 1.3386(3) -0.0472(4) 0.59533(15)
H1 H 1.353(6) -0.064(6) 0.543(3)
O3 O 0.4561(4) 0.0297(4) 0.20805(15)
H2 H 0.506(6) 0.1526(19) 0.218(2)
N1 N 1.0169(4) -0.3406(3) 0.29628(14)
N2 N 0.9534(4) -0.3221(4) 0.37325(15)
H3 H 0.835(6) -0.374(5) 0.374(2)
C1 C 1.0883(4) -0.2389(4) 0.44209(17)
C2 C 1.0062(4) -0.2334(4) 0.52185(17)
C3 C 0.8028(5) -0.3223(5) 0.5277(2)
H4 H 0.7097 -0.3865 0.4787
C4 C 0.7344(5) -0.3188(5) 0.6033(2)
H5 H 0.5949 -0.3789 0.6059
C5 C 0.8689(5) -0.2276(5) 0.67526(19)
H6 H 0.8229 -0.2284 0.7274
C6 C 1.0688(5) -0.1360(5) 0.67134(18)
H7 H 1.1595 -0.0703 0.7208
C7 C 1.1396(4) -0.1390(4) 0.59508(18)
C8 C 0.8639(4) -0.4173(4) 0.23621(18)
C9 C 0.7508(8) -0.4777(9) 0.0644(2)
H8 H 0.7318 -0.3417 0.0636
H9 H 0.7803 -0.5375 0.0104
H10 H 0.6234 -0.5562 0.0766
C10 C 0.4221(8) -0.0320(7) 0.1214(3)
H11 H 0.3999 -0.1786 0.1079
H12 H 0.5485 0.0223 0.0993
C11 C 0.2416(10) 0.0319(9) 0.0804(3)
H13 H 0.1208 -0.0016 0.1084
H14 H 0.2092 -0.0361 0.0224
H15 H 0.2748 0.1757 0.0833
Na1_2 Na 1.38574(19) -0.16194(18) 0.30770(7)
Na1A Na 1.61426(19) 0.16194(18) 0.69230(7)
O1_2 O 0.2746(3) -0.1690(3) 0.43888(12)
O2A O 0.6614(3) 0.0472(4) 0.40467(15)
H1A H 0.647(6) 0.064(6) 0.457(3)
N1_2 N 0.0169(4) -0.3406(3) 0.29628(14)
loop_
_geom_bond_atom_site_label_1
_geom_bond_atom_site_label_2
_geom_bond_site_symmetry_1
_geom_bond_site_symmetry_2
S1 Na1 1_555 1_555
S2 C8 1_555 1_555
Na1 O3 1_555 1_555
O1 C1 1_555 1_555
O2 H1 1_555 1_555
O3 H2 1_555 1_555
N1 N2 1_555 1_555
N2 H3 1_555 1_555
C1 N2 1_555 1_555
C2 C1 1_555 1_555
C3 C2 1_555 1_555
H4 C3 1_555 1_555
C4 C3 1_555 1_555
H5 C4 1_555 1_555
C5 C4 1_555 1_555
H6 C5 1_555 1_555
C6 C5 1_555 1_555
H7 C6 1_555 1_555
C7 O2 1_555 1_555
C8 S1 1_555 1_555
C9 S2 1_555 1_555
H8 C9 1_555 1_555
H9 C9 1_555 1_555
H10 C9 1_555 1_555
C10 O3 1_555 1_555
H11 C10 1_555 1_555
H12 C10 1_555 1_555
C11 C10 1_555 1_555
H13 C11 1_555 1_555
H14 C11 1_555 1_555
H15 C11 1_555 1_555
Na1_2 O1 1_555 1_555
Na1A O2 1_555 1_555
O1_2 Na1 1_555 1_555
O2A Na1 1_555 1_555
H1A O2A 1_555 1_555
N1_2 Na1 1_555 1_555
N1 C8 1_555 1_555
N1 Na1_2 1_555 1_555
C2 C7 1_555 1_555
C6 C7 1_555 1_555

#END
