
#######################################################################
#
#                 Cambridge Crystallographic Data Centre
#                                CCDC 
#
#######################################################################
#
# If this CIF has been generated from an entry in the Cambridge 
# Structural Database, then it will include bibliographic, chemical, 
# crystal, experimental, refinement or atomic coordinate data resulting 
# from the CCDC's data processing and validation procedures.
#
#######################################################################

data_LIJSOO
_symmetry_cell_setting           orthorhombic
_symmetry_space_group_name_H-M   'P b c n'
_symmetry_Int_Tables_number      60
_space_group_name_Hall           '-P 2n 2ab'
loop_
_symmetry_equiv_pos_site_id
_symmetry_equiv_pos_as_xyz
1 x,y,z
2 1/2-x,1/2-y,1/2+z
3 1/2+x,1/2-y,-z
4 -x,y,1/2-z
5 -x,-y,-z
6 1/2+x,1/2+y,1/2-z
7 1/2-x,1/2+y,z
8 x,-y,1/2+z
_cell_length_a                   19.5419(11)
_cell_length_b                   13.6526(9)
_cell_length_c                   19.4728(14)
_cell_angle_alpha                90
_cell_angle_beta                 90
_cell_angle_gamma                90
_cell_volume                     5195.3
loop_
_atom_site_label
_atom_site_type_symbol
_atom_site_fract_x
_atom_site_fract_y
_atom_site_fract_z
Cu1 Cu 0.73825(3) 0.05029(4) 0.23517(3)
S1 S 0.67564(5) 0.30986(7) 0.26895(6)
O1 O 0.69032(18) 0.2130(3) 0.24077(19)
O2 O 0.70701(17) 0.3876(3) 0.22804(18)
O3 O 0.69265(17) 0.3181(2) 0.34132(18)
N1 N 0.6534(2) -0.0067(3) 0.1879(3)
N2 N 0.6967(2) 0.0209(3) 0.3283(2)
N3 N 0.82502(19) 0.1013(3) 0.2802(2)
N4 N 0.77502(18) 0.0835(3) 0.1395(2)
C1 C 0.5930(3) 0.0387(4) 0.1913(4)
C2 C 0.5365(3) 0.0037(4) 0.1572(4)
C3 C 0.5404(3) -0.0808(4) 0.1201(3)
C4 C 0.6030(3) -0.1292(4) 0.1171(3)
C5 C 0.6586(3) -0.0899(4) 0.1504(3)
C6 C 0.6905(3) 0.0908(4) 0.3772(3)
C7 C 0.6610(4) 0.0732(4) 0.4396(3)
C8 C 0.6389(3) -0.0208(4) 0.4558(3)
C9 C 0.6450(3) -0.0933(4) 0.4062(3)
C10 C 0.6738(2) -0.0696(3) 0.3441(3)
C11 C 0.8546(3) 0.1852(3) 0.2582(3)
C12 C 0.9153(3) 0.2190(4) 0.2853(3)
C13 C 0.9469(3) 0.1669(4) 0.3369(4)
C14 C 0.9163(3) 0.0827(4) 0.3601(3)
C15 C 0.8561(3) 0.0522(3) 0.3312(3)
C16 C 0.7424(3) 0.1504(4) 0.1005(3)
C17 C 0.7654(3) 0.1743(4) 0.0360(3)
C18 C 0.8224(3) 0.1292(4) 0.0094(3)
C19 C 0.8553(3) 0.0601(4) 0.0498(4)
C20 C 0.8300(3) 0.0391(4) 0.1135(3)
C21 C 0.5870(3) 0.3248(5) 0.2622(3)
H1 H 0.5890 0.0967 0.2180
H2 H 0.4945 0.0386 0.1595
H3 H 0.5013 -0.1060 0.0970
H4 H 0.6072 -0.1888 0.0922
H5 H 0.7017 -0.1218 0.1471
H6 H 0.7073 0.1547 0.3678
H7 H 0.6556 0.1250 0.4718
H8 H 0.6202 -0.0351 0.4998
H9 H 0.6294 -0.1580 0.4151
H10 H 0.6778 -0.1196 0.3104
H11 H 0.8328 0.2220 0.2231
H12 H 0.9352 0.2778 0.2685
H13 H 0.9890 0.1887 0.3560
H14 H 0.9367 0.0458 0.3961
H15 H 0.8354 -0.0060 0.3479
H16 H 0.7026 0.1816 0.1180
H17 H 0.7419 0.2223 0.0097
H18 H 0.8387 0.1448 -0.0353
H19 H 0.8951 0.0278 0.0334
H20 H 0.8525 -0.0093 0.1404
H21 H 0.5736 0.3228 0.2138
H22 H 0.5738 0.3880 0.2820
H23 H 0.5639 0.2719 0.2871
Cu1F Cu 0.76175(3) 0.55029(4) 0.23517(3)
O2F O 0.79299(17) -0.1124(3) 0.22804(18)
P1 P 0.52939(8) -0.27961(12) 0.54801(8)
F1 F 0.5363(5) -0.1775(6) 0.5124(5)
F2 F 0.5257(5) -0.3769(4) 0.5826(6)
F3 F 0.4898(5) -0.3182(13) 0.4876(6)
F4 F 0.5695(5) -0.2312(7) 0.6063(5)
F5 F 0.4641(4) -0.2504(6) 0.5838(5)
F6 F 0.5970(3) -0.3077(5) 0.5092(5)
loop_
_geom_bond_atom_site_label_1
_geom_bond_atom_site_label_2
_geom_bond_site_symmetry_1
_geom_bond_site_symmetry_2
Cu1 O1 1_555 1_555
S1 O1 1_555 1_555
O2 S1 1_555 1_555
O3 S1 1_555 1_555
N1 Cu1 1_555 1_555
N2 Cu1 1_555 1_555
N3 Cu1 1_555 1_555
N4 Cu1 1_555 1_555
C1 N1 1_555 1_555
C2 C1 1_555 1_555
C3 C2 1_555 1_555
C4 C3 1_555 1_555
C5 N1 1_555 1_555
C6 N2 1_555 1_555
C7 C6 1_555 1_555
C8 C7 1_555 1_555
C9 C8 1_555 1_555
C10 N2 1_555 1_555
C11 N3 1_555 1_555
C12 C11 1_555 1_555
C13 C12 1_555 1_555
C14 C13 1_555 1_555
C15 N3 1_555 1_555
C16 N4 1_555 1_555
C17 C16 1_555 1_555
C18 C17 1_555 1_555
C19 C18 1_555 1_555
C20 N4 1_555 1_555
C21 S1 1_555 1_555
H1 C1 1_555 1_555
H2 C2 1_555 1_555
H3 C3 1_555 1_555
H4 C4 1_555 1_555
H5 C5 1_555 1_555
H6 C6 1_555 1_555
H7 C7 1_555 1_555
H8 C8 1_555 1_555
H9 C9 1_555 1_555
H10 C10 1_555 1_555
H11 C11 1_555 1_555
H12 C12 1_555 1_555
H13 C13 1_555 1_555
H14 C14 1_555 1_555
H15 C15 1_555 1_555
H16 C16 1_555 1_555
H17 C17 1_555 1_555
H18 C18 1_555 1_555
H19 C19 1_555 1_555
H20 C20 1_555 1_555
H21 C21 1_555 1_555
H22 C21 1_555 1_555
H23 C21 1_555 1_555
P1 F1 1_555 1_555
F2 P1 1_555 1_555
F3 P1 1_555 1_555
F4 P1 1_555 1_555
F5 P1 1_555 1_555
F6 P1 1_555 1_555
Cu1F O2 1_555 1_555
O2F Cu1 1_555 1_555
C4 C5 1_555 1_555
C9 C10 1_555 1_555
C14 C15 1_555 1_555
C19 C20 1_555 1_555

#END
