
#######################################################################
#
#                 Cambridge Crystallographic Data Centre
#                                CCDC 
#
#######################################################################
#
# If this CIF has been generated from an entry in the Cambridge 
# Structural Database, then it will include bibliographic, chemical, 
# crystal, experimental, refinement or atomic coordinate data resulting 
# from the CCDC's data processing and validation procedures.
#
#######################################################################

data_LIJXIM
_symmetry_cell_setting           monoclinic
_symmetry_space_group_name_H-M   'P 2/c'
_symmetry_Int_Tables_number      13
_space_group_name_Hall           '-P 2yc'
loop_
_symmetry_equiv_pos_site_id
_symmetry_equiv_pos_as_xyz
1 x,y,z
2 -x,y,1/2-z
3 -x,-y,-z
4 x,-y,1/2+z
_cell_length_a                   22.660(2)
_cell_length_b                   7.4822(6)
_cell_length_c                   11.0247(10)
_cell_angle_alpha                90
_cell_angle_beta                 90.8990(10)
_cell_angle_gamma                90
_cell_volume                     1868.97
loop_
_atom_site_label
_atom_site_type_symbol
_atom_site_fract_x
_atom_site_fract_y
_atom_site_fract_z
Cd1 Cd 0.5000 0.55981(10) 0.2500
Cd2 Cd 0.24882(2) 0.61218(8) 0.48781(5)
Cd3 Cd 0.0000 0.54842(10) 0.2500
P1 P 0.45023(8) 0.7185(3) 0.52001(16)
P2 P 0.04417(8) 0.7286(2) 0.51934(16)
O1 O 0.4180(3) 0.8902(7) 0.5650(5)
O2 O 0.4695(2) 0.7522(6) 0.3920(4)
O3 O 0.4981(2) 0.6617(6) 0.6086(4)
O4 O 0.3480(2) 0.6015(9) 0.4274(5)
H1 H 0.359(4) 0.597(12) 0.358(8)
O5 O 0.3988(2) 0.4555(9) 0.7171(5)
O6 O 0.3107(2) 0.4973(9) 0.6371(5)
O7 O 0.0718(2) 0.9100(7) 0.5667(5)
O8 O 0.0264(2) 0.7544(6) 0.3884(4)
O9 O -0.0033(2) 0.6666(7) 0.6034(4)
O10 O 0.1483(2) 0.6259(7) 0.4358(4)
H2 H 0.1405 0.7340 0.4182
O11 O 0.1018(2) 0.4915(8) 0.7295(5)
O12 O 0.1882(2) 0.5736(8) 0.6562(4)
O13 O 0.2350(3) 0.3457(8) 0.3844(5)
H3 H 0.2141 0.3620 0.3205
H4 H 0.2677 0.2992 0.3651
O14 O 0.2681(3) 0.8895(9) 0.5625(7)
H5 H 0.2704 0.8841 0.6394
H6 H 0.2402 0.9598 0.5417
O15 O 0.2501(3) 0.7479(9) 0.2923(5)
H7 H 0.2153 0.7801 0.2724
H8 H 0.2626 0.6727 0.2410
C1 C 0.3934(3) 0.5452(11) 0.5107(6)
H13 H 0.4114 0.4364 0.4785
C2 C 0.3647(4) 0.4991(10) 0.6298(6)
C3 C 0.1339(3) 0.5434(10) 0.6445(6)
C4 C 0.1056(3) 0.5696(10) 0.5205(6)
H14 H 0.0901 0.4538 0.4933
Cd1C Cd 0.5000 0.44019(10) 0.7500
Cd1C_2 Cd 0.5000 0.44019(10) -0.2500
Cd2A Cd 0.75118(2) 0.61218(8) 0.01219(5)
Cd3C Cd 0.0000 0.45158(10) 0.7500
Cd3_2 Cd 1.0000 0.54842(10) 0.2500
Cd3C_2 Cd 1.0000 0.45158(10) -0.2500
P1A P 0.54977(8) 0.7185(3) -0.02001(16)
P2A P 0.95583(8) 0.7286(2) -0.01934(16)
O1A O 0.5820(3) 0.8902(7) -0.0650(5)
O2A O 0.5305(2) 0.7522(6) 0.1080(4)
O3A O 0.5019(2) 0.6617(6) -0.1086(4)
O3C O 0.4981(2) 0.3383(6) 0.1086(4)
O3B O 0.5019(2) 0.3383(6) 0.3914(4)
O4A O 0.6520(2) 0.6015(9) 0.0726(5)
H1A H 0.641(4) 0.597(12) 0.142(8)
O5A O 0.6012(2) 0.4555(9) -0.2171(5)
O5C O 0.3988(2) 0.5445(9) 0.2171(5)
O5B O 0.6012(2) 0.5445(9) 0.2829(5)
O6A O 0.6893(2) 0.4973(9) -0.1371(5)
O7A O 0.9282(2) 0.9100(7) -0.0667(5)
O8A O 0.9736(2) 0.7544(6) 0.1116(4)
O8A_2 O -0.0264(2) 0.7544(6) 0.1116(4)
O9A O 1.0033(2) 0.6666(7) -0.1034(4)
O9C O -0.0033(2) 0.3334(7) 0.1034(4)
O9B O 0.0033(2) 0.3334(7) 0.3966(4)
O10A O 0.8517(2) 0.6259(7) 0.0642(4)
H2A H 0.8595 0.7340 0.0818
O11A O 0.8982(2) 0.4915(8) -0.2295(5)
O11C O 0.1018(2) 0.5085(8) 0.2295(5)
O11B O -0.1018(2) 0.5085(8) 0.2705(5)
O12A O 0.8118(2) 0.5736(8) -0.1562(4)
O13A O 0.7650(3) 0.3457(8) 0.1156(5)
H3A H 0.7859 0.3620 0.1795
H4A H 0.7323 0.2992 0.1349
O14A O 0.7319(3) 0.8895(9) -0.0625(7)
H5A H 0.7296 0.8841 -0.1394
H6A H 0.7598 0.9598 -0.0417
O15A O 0.7499(3) 0.7479(9) 0.2077(5)
H7A H 0.7847 0.7801 0.2276
H8A H 0.7374 0.6727 0.2590
C1A C 0.6066(3) 0.5452(11) -0.0107(6)
H13A H 0.5886 0.4364 0.0215
C2A C 0.6353(4) 0.4991(10) -0.1298(6)
C3A C 0.8661(3) 0.5434(10) -0.1445(6)
C4A C 0.8944(3) 0.5696(10) -0.0205(6)
H14A H 0.9099 0.4538 0.0067
Na1 Na 0.3126(5) 0.9168(14) 0.8357(11)
Na2 Na 0.1741(5) 0.8714(14) 0.0540(10)
O16 O 0.4306(2) 0.0696(7) 0.2970(5)
H9 H 0.4578 -0.0034 0.3171
H10 H 0.4051 0.0738 0.3526
O17 O 0.9262(3) 0.9346(7) 0.7029(5)
H11 H 0.9350 1.0414 0.6842
H12 H 0.9227 0.9266 0.7794
loop_
_geom_bond_atom_site_label_1
_geom_bond_atom_site_label_2
_geom_bond_site_symmetry_1
_geom_bond_site_symmetry_2
Cd1 O2 1_555 1_555
Cd2 O4 1_555 1_555
Cd3 O8 1_555 1_555
P1 O1 1_555 1_555
P2 O7 1_555 1_555
O2 P1 1_555 1_555
O3 P1 1_555 1_555
O4 H1 1_555 1_555
O5 C2 1_555 1_555
O6 Cd2 1_555 1_555
O8 P2 1_555 1_555
O9 P2 1_555 1_555
O10 Cd2 1_555 1_555
H2 O10 1_555 1_555
O11 C3 1_555 1_555
O12 Cd2 1_555 1_555
O13 Cd2 1_555 1_555
H3 O13 1_555 1_555
H4 O13 1_555 1_555
O14 Cd2 1_555 1_555
H5 O14 1_555 1_555
H6 O14 1_555 1_555
O15 Cd2 1_555 1_555
H7 O15 1_555 1_555
H8 O15 1_555 1_555
O16 H9 1_555 1_555
H10 O16 1_555 1_555
O17 H11 1_555 1_555
H12 O17 1_555 1_555
C1 P1 1_555 1_555
H13 C1 1_555 1_555
C2 O6 1_555 1_555
C3 O12 1_555 1_555
C4 P2 1_555 1_555
H14 C4 1_555 1_555
Cd1C O3 1_555 1_555
Cd1C_2 O3A 1_555 1_555
Cd2A O4A 1_555 1_555
Cd3C O9 1_555 1_555
Cd3_2 O8A 1_555 1_555
Cd3C_2 O9A 1_555 1_555
P1A O1A 1_555 1_555
P2A O7A 1_555 1_555
O2A Cd1 1_555 1_555
O3A P1A 1_555 1_555
O3C Cd1 1_555 1_555
O3B Cd1 1_555 1_555
O4A H1A 1_555 1_555
O5A Cd1C_2 1_555 1_555
O5C Cd1 1_555 1_555
O5B Cd1 1_555 1_555
O6A Cd2A 1_555 1_555
O8A P2A 1_555 1_555
O8A_2 Cd3 1_555 1_555
O9A P2A 1_555 1_555
O9C Cd3 1_555 1_555
O9B Cd3 1_555 1_555
O10A Cd2A 1_555 1_555
H2A O10A 1_555 1_555
O11A Cd3C_2 1_555 1_555
O11C Cd3 1_555 1_555
O11B Cd3 1_555 1_555
O12A Cd2A 1_555 1_555
O13A Cd2A 1_555 1_555
H3A O13A 1_555 1_555
H4A O13A 1_555 1_555
O14A Cd2A 1_555 1_555
H5A O14A 1_555 1_555
H6A O14A 1_555 1_555
O15A Cd2A 1_555 1_555
H7A O15A 1_555 1_555
H8A O15A 1_555 1_555
C1A P1A 1_555 1_555
H13A C1A 1_555 1_555
C2A O5A 1_555 1_555
C3A O11A 1_555 1_555
C4A P2A 1_555 1_555
H14A C4A 1_555 1_555
O4 C1 1_555 1_555
O5 Cd1C 1_555 1_555
O10 C4 1_555 1_555
O11 Cd3C 1_555 1_555
C1 C2 1_555 1_555
C3 C4 1_555 1_555
P1A O2A 1_555 1_555
O4A C1A 1_555 1_555
O6A C2A 1_555 1_555
O10A C4A 1_555 1_555
O12A C3A 1_555 1_555
C1A C2A 1_555 1_555
C3A C4A 1_555 1_555

#END
