
#######################################################################
#
#                 Cambridge Crystallographic Data Centre
#                                CCDC 
#
#######################################################################
#
# If this CIF has been generated from an entry in the Cambridge 
# Structural Database, then it will include bibliographic, chemical, 
# crystal, experimental, refinement or atomic coordinate data resulting 
# from the CCDC's data processing and validation procedures.
#
#######################################################################

data_LIJYAF
_symmetry_cell_setting           triclinic
_symmetry_space_group_name_H-M   'P -1'
_symmetry_Int_Tables_number      2
_space_group_name_Hall           '-P 1'
loop_
_symmetry_equiv_pos_site_id
_symmetry_equiv_pos_as_xyz
1 x,y,z
2 -x,-y,-z
_cell_length_a                   10.6117(4)
_cell_length_b                   11.3617(5)
_cell_length_c                   12.4952(6)
_cell_angle_alpha                66.468(2)
_cell_angle_beta                 74.220(2)
_cell_angle_gamma                89.381(2)
_cell_volume                     1320.98
loop_
_atom_site_label
_atom_site_type_symbol
_atom_site_fract_x
_atom_site_fract_y
_atom_site_fract_z
Zn1 Zn 0.5000 0.5000 0.5000
Zn2 Zn 1.0000 0.5000 0.0000
O1 O 0.62064(17) 0.47579(18) 0.33453(16)
O2 O 0.49339(18) 0.54610(19) 0.20903(18)
O3 O 0.65953(18) 0.35156(18) 0.14061(18)
O4 O 0.79732(17) 0.52676(17) 0.08946(17)
N1 N 0.3950(2) 0.6404(2) 0.4021(2)
H1 H 0.4204 0.6480 0.3221
N2 N 0.6279(2) 0.6643(2) 0.4626(2)
H2 H 0.6044 0.6765 0.5345
N3 N 1.0257(2) 0.3950(2) 0.1745(2)
H3 H 1.1132 0.3783 0.1642
N4 N 0.9306(2) 0.3154(2) 0.0209(2)
H4 H 0.8393 0.3129 0.0443
C1 C 0.5903(3) 0.7802(3) 0.3716(3)
H5 H 0.6159 0.8576 0.3835
C2 C 0.4394(3) 0.7650(3) 0.4004(3)
H6 H 0.4009 0.7613 0.4843
C3 C 0.3946(3) 0.8834(3) 0.3115(3)
H7 H 0.2978 0.8705 0.3286
H8 H 0.4159 0.9605 0.3242
C4 C 0.4610(3) 0.9066(3) 0.1790(3)
H9 H 0.4331 0.8333 0.1638
H10 H 0.4334 0.9860 0.1241
C5 C 0.6105(3) 0.9208(3) 0.1512(3)
H11 H 0.6389 0.9996 0.1580
H12 H 0.6516 0.9310 0.0663
C6 C 0.6583(3) 0.8035(3) 0.2387(3)
H13 H 0.6388 0.7261 0.2257
H14 H 0.7549 0.8185 0.2214
C7 C 0.7709(3) 0.6475(3) 0.4398(3)
H15 H 0.8028 0.6373 0.3612
C8 C 0.8528(3) 0.7648(3) 0.4290(3)
H16 H 0.8407 0.8426 0.3623
H17 H 0.9462 0.7510 0.4122
H18 H 0.8236 0.7756 0.5057
C9 C 0.2511(3) 0.6050(3) 0.4509(3)
H19 H 0.2078 0.6722 0.3985
H20 H 0.2212 0.6037 0.5336
C10 C 0.7925(3) 0.5254(3) 0.5422(3)
H21 H 0.7464 0.5291 0.6209
H22 H 0.8879 0.5287 0.5348
C11 C 0.5927(2) 0.4954(2) 0.2378(2)
C12 C 0.6912(2) 0.4548(3) 0.1469(2)
C13 C 0.9605(3) 0.2159(3) 0.1290(2)
H23 H 0.8950 0.1381 0.1621
C14 C 1.0987(3) 0.1737(3) 0.1003(3)
H24 H 1.1083 0.1365 0.0395
H25 H 1.1656 0.2495 0.0651
C15 C 1.1211(3) 0.0730(3) 0.2169(3)
H26 H 1.0602 -0.0061 0.2463
H27 H 1.2122 0.0500 0.1978
C16 C 1.0995(3) 0.1202(3) 0.3185(3)
H28 H 1.1069 0.0489 0.3939
H29 H 1.1685 0.1914 0.2945
C17 C 0.9645(3) 0.1674(3) 0.3431(3)
H30 H 0.9559 0.2043 0.4040
H31 H 0.8959 0.0930 0.3783
C18 C 0.9410(2) 0.2695(2) 0.2278(2)
H32 H 0.8471 0.2874 0.2493
C19 C 0.9946(3) 0.4687(3) 0.2520(3)
H33 H 1.0100 0.4172 0.3316
H34 H 0.9002 0.4824 0.2676
C20 C 0.9623(3) 0.2910(3) -0.0914(2)
H35 H 1.0596 0.2888 -0.1197
C21 C 0.8923(3) 0.1624(3) -0.0691(3)
H36 H 0.9146 0.0921 -0.0023
H37 H 0.9209 0.1471 -0.1434
H38 H 0.7968 0.1659 -0.0472
C22 C 1.0783(3) 0.5999(3) 0.1923(3)
H39 H 1.1703 0.5869 0.1577
H40 H 1.0777 0.6291 0.2572
Zn2_2 Zn 0.0000 0.5000 1.0000
O1A O 0.37936(17) 0.52421(18) 0.66547(16)
O2A O 0.50661(18) 0.45390(19) 0.79097(18)
O3A O 0.34047(18) 0.64844(18) 0.85939(18)
O4A O 0.20268(17) 0.47324(17) 0.91054(17)
O4A_2 O 1.20268(17) 0.47324(17) -0.08946(17)
N1A N 0.6050(2) 0.3596(2) 0.5979(2)
H1A H 0.5796 0.3520 0.6779
N2A N 0.3721(2) 0.3357(2) 0.5374(2)
H2A H 0.3956 0.3235 0.4655
N3A N 0.9743(2) 0.6050(2) -0.1745(2)
H3A H 0.8868 0.6217 -0.1642
N4A N 1.0694(2) 0.6846(2) -0.0209(2)
H4A H 1.1607 0.6871 -0.0443
C1A C 0.4097(3) 0.2198(3) 0.6284(3)
H5A H 0.3841 0.1424 0.6165
C2A C 0.5606(3) 0.2350(3) 0.5996(3)
H6A H 0.5991 0.2387 0.5157
C3A C 0.6054(3) 0.1166(3) 0.6885(3)
H7A H 0.7022 0.1295 0.6714
H8A H 0.5841 0.0395 0.6758
C4A C 0.5390(3) 0.0934(3) 0.8210(3)
H9A H 0.5669 0.1667 0.8362
H10A H 0.5666 0.0140 0.8759
C5A C 0.3895(3) 0.0792(3) 0.8488(3)
H11A H 0.3611 0.0004 0.8420
H12A H 0.3484 0.0690 0.9337
C6A C 0.3417(3) 0.1965(3) 0.7613(3)
H13A H 0.3612 0.2739 0.7743
H14A H 0.2451 0.1815 0.7786
C7A C 0.2291(3) 0.3525(3) 0.5602(3)
H15A H 0.1972 0.3627 0.6388
C8A C 0.1472(3) 0.2352(3) 0.5710(3)
H16A H 0.1593 0.1574 0.6377
H17A H 0.0538 0.2490 0.5878
H18A H 0.1764 0.2244 0.4943
C9A C 0.7489(3) 0.3950(3) 0.5491(3)
H19A H 0.7922 0.3278 0.6015
H20A H 0.7788 0.3963 0.4664
C10A C 0.2075(3) 0.4746(3) 0.4578(3)
H21A H 0.2536 0.4709 0.3791
H22A H 0.1121 0.4713 0.4652
C11A C 0.4073(2) 0.5046(2) 0.7622(2)
C12A C 0.3088(2) 0.5452(3) 0.8531(2)
C13A C 1.0395(3) 0.7841(3) -0.1290(2)
H23A H 1.1050 0.8619 -0.1621
C14A C 0.9013(3) 0.8263(3) -0.1003(3)
H24A H 0.8917 0.8635 -0.0395
H25A H 0.8344 0.7505 -0.0651
C15A C 0.8789(3) 0.9270(3) -0.2169(3)
H26A H 0.9398 1.0061 -0.2463
H27A H 0.7878 0.9500 -0.1978
C16A C 0.9005(3) 0.8798(3) -0.3185(3)
H28A H 0.8931 0.9511 -0.3939
H29A H 0.8315 0.8086 -0.2945
C17A C 1.0355(3) 0.8326(3) -0.3431(3)
H30A H 1.0441 0.7957 -0.4040
H31A H 1.1041 0.9070 -0.3783
C18A C 1.0590(2) 0.7305(2) -0.2278(2)
H32A H 1.1529 0.7126 -0.2493
C19A C 1.0054(3) 0.5313(3) -0.2520(3)
H33A H 0.9900 0.5828 -0.3316
H34A H 1.0998 0.5176 -0.2676
C20A C 1.0377(3) 0.7090(3) 0.0914(2)
H35A H 0.9404 0.7112 0.1197
C21A C 1.1077(3) 0.8376(3) 0.0691(3)
H36A H 1.0854 0.9079 0.0023
H37A H 1.0791 0.8529 0.1434
H38A H 1.2032 0.8341 0.0472
C22A C 0.9217(3) 0.4001(3) -0.1923(3)
H39A H 0.8297 0.4131 -0.1577
H40A H 0.9223 0.3709 -0.2572
O5 O 0.4478(3) 0.2070(2) 0.3491(2)
H41 H 0.515(5) 0.238(5) 0.296(5)
H42 H 0.398(4) 0.222(4) 0.319(4)
O6 O 0.5168(3) 0.7182(2) -0.0327(2)
H43 H 0.502(4) 0.671(4) 0.045(4)
H44 H 0.451(4) 0.697(4) -0.046(4)
O7 O 0.3156(2) 0.3880(3) 0.1748(2)
H45 H 0.367(4) 0.442(4) 0.171(4)
H46 H 0.368(5) 0.352(4) 0.125(4)
O8 O 0.3600(7) -0.0367(6) 0.5579(7)
H47 H 0.396(11) 0.027(7) 0.492(6)
H48 H 0.419(9) -0.085(9) 0.572(12)
loop_
_geom_bond_atom_site_label_1
_geom_bond_atom_site_label_2
_geom_bond_site_symmetry_1
_geom_bond_site_symmetry_2
Zn1 O1 1_555 1_555
Zn2 O4 1_555 1_555
O1 C11 1_555 1_555
O2 C11 1_555 1_555
O3 C12 1_555 1_555
O4 C12 1_555 1_555
N1 Zn1 1_555 1_555
H1 N1 1_555 1_555
N2 Zn1 1_555 1_555
H2 N2 1_555 1_555
N3 Zn2 1_555 1_555
H3 N3 1_555 1_555
N4 Zn2 1_555 1_555
H4 N4 1_555 1_555
C1 N2 1_555 1_555
H5 C1 1_555 1_555
C2 N1 1_555 1_555
H6 C2 1_555 1_555
C3 C2 1_555 1_555
H7 C3 1_555 1_555
H8 C3 1_555 1_555
C4 C3 1_555 1_555
H9 C4 1_555 1_555
H10 C4 1_555 1_555
C5 C4 1_555 1_555
H11 C5 1_555 1_555
H12 C5 1_555 1_555
C6 C1 1_555 1_555
H13 C6 1_555 1_555
H14 C6 1_555 1_555
C7 N2 1_555 1_555
H15 C7 1_555 1_555
C8 C7 1_555 1_555
H16 C8 1_555 1_555
H17 C8 1_555 1_555
H18 C8 1_555 1_555
C9 N1 1_555 1_555
H19 C9 1_555 1_555
H20 C9 1_555 1_555
C10 C7 1_555 1_555
H21 C10 1_555 1_555
H22 C10 1_555 1_555
C11 C12 1_555 1_555
C13 N4 1_555 1_555
H23 C13 1_555 1_555
C14 C13 1_555 1_555
H24 C14 1_555 1_555
H25 C14 1_555 1_555
C15 C14 1_555 1_555
H26 C15 1_555 1_555
H27 C15 1_555 1_555
C16 C15 1_555 1_555
H28 C16 1_555 1_555
H29 C16 1_555 1_555
C17 C16 1_555 1_555
H30 C17 1_555 1_555
H31 C17 1_555 1_555
C18 N3 1_555 1_555
H32 C18 1_555 1_555
C19 N3 1_555 1_555
H33 C19 1_555 1_555
H34 C19 1_555 1_555
C20 N4 1_555 1_555
H35 C20 1_555 1_555
C21 C20 1_555 1_555
H36 C21 1_555 1_555
H37 C21 1_555 1_555
H38 C21 1_555 1_555
C22 C19 1_555 1_555
H39 C22 1_555 1_555
H40 C22 1_555 1_555
O5 H41 1_555 1_555
O6 H43 1_555 1_555
O7 H45 1_555 1_555
O8 H47 1_555 1_555
H42 O5 1_555 1_555
H44 O6 1_555 1_555
H46 O7 1_555 1_555
H48 O8 1_555 1_555
Zn2_2 O4A 1_555 1_555
O1A Zn1 1_555 1_555
O2A C11A 1_555 1_555
O3A C12A 1_555 1_555
O4A C12A 1_555 1_555
O4A_2 Zn2 1_555 1_555
N1A Zn1 1_555 1_555
H1A N1A 1_555 1_555
N2A Zn1 1_555 1_555
H2A N2A 1_555 1_555
N3A Zn2 1_555 1_555
H3A N3A 1_555 1_555
N4A Zn2 1_555 1_555
H4A N4A 1_555 1_555
C1A N2A 1_555 1_555
H5A C1A 1_555 1_555
C2A N1A 1_555 1_555
H6A C2A 1_555 1_555
C3A C2A 1_555 1_555
H7A C3A 1_555 1_555
H8A C3A 1_555 1_555
C4A C3A 1_555 1_555
H9A C4A 1_555 1_555
H10A C4A 1_555 1_555
C5A C4A 1_555 1_555
H11A C5A 1_555 1_555
H12A C5A 1_555 1_555
C6A C1A 1_555 1_555
H13A C6A 1_555 1_555
H14A C6A 1_555 1_555
C7A N2A 1_555 1_555
H15A C7A 1_555 1_555
C8A C7A 1_555 1_555
H16A C8A 1_555 1_555
H17A C8A 1_555 1_555
H18A C8A 1_555 1_555
C9A C10 1_555 1_555
H19A C9A 1_555 1_555
H20A C9A 1_555 1_555
C10A C9 1_555 1_555
H21A C10A 1_555 1_555
H22A C10A 1_555 1_555
C11A O1A 1_555 1_555
C12A C11A 1_555 1_555
C13A N4A 1_555 1_555
H23A C13A 1_555 1_555
C14A C13A 1_555 1_555
H24A C14A 1_555 1_555
H25A C14A 1_555 1_555
C15A C14A 1_555 1_555
H26A C15A 1_555 1_555
H27A C15A 1_555 1_555
C16A C15A 1_555 1_555
H28A C16A 1_555 1_555
H29A C16A 1_555 1_555
C17A C16A 1_555 1_555
H30A C17A 1_555 1_555
H31A C17A 1_555 1_555
C18A N3A 1_555 1_555
H32A C18A 1_555 1_555
C19A N3A 1_555 1_555
H33A C19A 1_555 1_555
H34A C19A 1_555 1_555
C20A C22 1_555 1_555
H35A C20A 1_555 1_555
C21A C20A 1_555 1_555
H36A C21A 1_555 1_555
H37A C21A 1_555 1_555
H38A C21A 1_555 1_555
C22A C20 1_555 1_555
H39A C22A 1_555 1_555
H40A C22A 1_555 1_555
C1 C2 1_555 1_555
C5 C6 1_555 1_555
C13 C18 1_555 1_555
C17 C18 1_555 1_555
N1A C9A 1_555 1_555
N4A C20A 1_555 1_555
C1A C2A 1_555 1_555
C5A C6A 1_555 1_555
C7A C10A 1_555 1_555
C13A C18A 1_555 1_555
C17A C18A 1_555 1_555
C19A C22A 1_555 1_555

#END
