
#######################################################################
#
#                 Cambridge Crystallographic Data Centre
#                                CCDC 
#
#######################################################################
#
# If this CIF has been generated from an entry in the Cambridge 
# Structural Database, then it will include bibliographic, chemical, 
# crystal, experimental, refinement or atomic coordinate data resulting 
# from the CCDC's data processing and validation procedures.
#
#######################################################################

data_LIJYEJ
_symmetry_cell_setting           monoclinic
_symmetry_space_group_name_H-M   'P 21/c'
_symmetry_Int_Tables_number      14
_space_group_name_Hall           '-P 2ybc'
loop_
_symmetry_equiv_pos_site_id
_symmetry_equiv_pos_as_xyz
1 x,y,z
2 -x,1/2+y,1/2-z
3 -x,-y,-z
4 x,1/2-y,1/2+z
_cell_length_a                   18.9806(9)
_cell_length_b                   10.0154(5)
_cell_length_c                   6.9874(3)
_cell_angle_alpha                90
_cell_angle_beta                 93.5640(10)
_cell_angle_gamma                90
_cell_volume                     1325.72
loop_
_atom_site_label
_atom_site_type_symbol
_atom_site_fract_x
_atom_site_fract_y
_atom_site_fract_z
Ag1 Ag 0.265599(14) 0.13083(2) 0.19227(4)
S1 S 0.24444(4) 0.35719(7) 0.06714(12)
O1 O 0.37076(12) 0.2710(2) -0.0580(4)
O2 O 0.24981(13) -0.0960(3) 0.1143(4)
O3 O 0.35825(15) -0.0376(3) 0.1502(5)
O4 O 0.33243(16) -0.2388(3) 0.0639(6)
N1 N 0.45096(14) 0.4152(3) 0.0780(4)
N2 N 0.31446(18) -0.1266(3) 0.1110(5)
C1 C 0.1124(2) 0.3749(3) 0.1943(7)
H1 H 0.1206 0.2869 0.2490
H2 H 0.0940 0.3641 0.0626
C2 C 0.0583(2) 0.4502(4) 0.3090(9)
H3 H 0.0136 0.4028 0.2994
H4 H 0.0747 0.4532 0.4431
C3 C 0.0474(2) 0.5919(4) 0.2338(7)
H5 H 0.0256 0.5889 0.1046
H6 H 0.0158 0.6394 0.3140
C4 C 0.1169(2) 0.6656(3) 0.2330(6)
H7 H 0.1363 0.6765 0.3638
H8 H 0.1089 0.7538 0.1784
C5 C 0.1697(2) 0.5913(3) 0.1179(6)
H9 H 0.2142 0.6392 0.1236
H10 H 0.1522 0.5858 -0.0153
C6 C 0.18097(16) 0.4516(3) 0.1991(5)
H11 H 0.1993 0.4593 0.3329
C7 C 0.32655(16) 0.4408(3) 0.1427(5)
H12 H 0.3247 0.5340 0.1051
H13 H 0.3348 0.4359 0.2809
C8 C 0.38494(18) 0.3692(3) 0.0448(5)
C9 C 0.50849(18) 0.3580(3) -0.0269(6)
H14 H 0.4929 0.2757 -0.0893
H15 H 0.5485 0.3377 0.0616
C10 C 0.46979(18) 0.5419(3) 0.1761(5)
H16 H 0.4297 0.5757 0.2407
H17 H 0.5084 0.5275 0.2714
Ag1B Ag 0.734401(14) 0.86917(2) -0.19227(4)
Ag1C Ag 0.265599(14) 0.36917(2) -0.30773(4)
Ag1A Ag 0.734401(14) 0.63083(2) 0.30773(4)
S1B S 0.75556(4) 0.64281(7) -0.06714(12)
S1C S 0.24444(4) 0.14281(7) 0.56714(12)
S1A S 0.75556(4) 0.85719(7) -0.56714(12)
O1B O 0.62924(12) 0.7290(2) 0.0580(4)
O2B O 0.75019(13) 1.0960(3) -0.1143(4)
O3B O 0.64175(15) 1.0376(3) -0.1502(5)
O4B O 0.66757(16) 1.2388(3) -0.0639(6)
N1B N 0.54904(14) 0.5848(3) -0.0780(4)
N2B N 0.68554(18) 1.1266(3) -0.1110(5)
C1B C 0.8876(2) 0.6251(3) -0.1943(7)
H1B H 0.8794 0.7131 -0.2490
H2B H 0.9060 0.6359 -0.0626
C2B C 0.9417(2) 0.5498(4) -0.3090(9)
H3B H 0.9864 0.5972 -0.2994
H4B H 0.9253 0.5468 -0.4431
C3B C 0.9526(2) 0.4081(4) -0.2338(7)
H5B H 0.9744 0.4111 -0.1046
H6B H 0.9842 0.3606 -0.3140
C4B C 0.8831(2) 0.3344(3) -0.2330(6)
H7B H 0.8637 0.3235 -0.3638
H8B H 0.8911 0.2462 -0.1784
C5B C 0.8303(2) 0.4087(3) -0.1179(6)
H9B H 0.7858 0.3608 -0.1236
H10B H 0.8478 0.4142 0.0153
C6B C 0.81903(16) 0.5484(3) -0.1991(5)
H11B H 0.8007 0.5407 -0.3329
C7B C 0.67345(16) 0.5592(3) -0.1427(5)
H12B H 0.6753 0.4660 -0.1051
H13B H 0.6652 0.5641 -0.2809
C8B C 0.61506(18) 0.6308(3) -0.0448(5)
C9B C 0.49151(18) 0.6420(3) 0.0269(6)
H14B H 0.5071 0.7243 0.0893
H15B H 0.4515 0.6623 -0.0616
C10B C 0.53021(18) 0.4581(3) -0.1761(5)
H16B H 0.5703 0.4243 -0.2407
H17B H 0.4916 0.4725 -0.2714
loop_
_geom_bond_atom_site_label_1
_geom_bond_atom_site_label_2
_geom_bond_site_symmetry_1
_geom_bond_site_symmetry_2
Ag1 S1 1_555 1_555
S1 C6 1_555 1_555
O1 C8 1_555 1_555
O2 Ag1 1_555 1_555
O3 Ag1 1_555 1_555
O4 N2 1_555 1_555
N1 C8 1_555 1_555
N2 O2 1_555 1_555
C1 H1 1_555 1_555
H2 C1 1_555 1_555
C2 C1 1_555 1_555
H3 C2 1_555 1_555
H4 C2 1_555 1_555
C3 C2 1_555 1_555
H5 C3 1_555 1_555
H6 C3 1_555 1_555
C4 C3 1_555 1_555
H7 C4 1_555 1_555
H8 C4 1_555 1_555
C5 C4 1_555 1_555
H9 C5 1_555 1_555
H10 C5 1_555 1_555
C6 C1 1_555 1_555
H11 C6 1_555 1_555
C7 S1 1_555 1_555
H12 C7 1_555 1_555
H13 C7 1_555 1_555
C8 C7 1_555 1_555
C9 N1 1_555 1_555
H14 C9 1_555 1_555
H15 C9 1_555 1_555
C10 N1 1_555 1_555
H16 C10 1_555 1_555
H17 C10 1_555 1_555
Ag1B S1B 1_555 1_555
Ag1C S1 1_555 1_555
Ag1A S1B 1_555 1_555
S1B C6B 1_555 1_555
S1C Ag1 1_555 1_555
S1A Ag1B 1_555 1_555
O1B C8B 1_555 1_555
O2B Ag1B 1_555 1_555
O3B Ag1B 1_555 1_555
O4B N2B 1_555 1_555
N1B C8B 1_555 1_555
N2B O2B 1_555 1_555
C1B H1B 1_555 1_555
H2B C1B 1_555 1_555
C2B C1B 1_555 1_555
H3B C2B 1_555 1_555
H4B C2B 1_555 1_555
C3B C2B 1_555 1_555
H5B C3B 1_555 1_555
H6B C3B 1_555 1_555
C4B C3B 1_555 1_555
H7B C4B 1_555 1_555
H8B C4B 1_555 1_555
C5B C4B 1_555 1_555
H9B C5B 1_555 1_555
H10B C5B 1_555 1_555
C6B C1B 1_555 1_555
H11B C6B 1_555 1_555
C7B S1B 1_555 1_555
H12B C7B 1_555 1_555
H13B C7B 1_555 1_555
C8B C7B 1_555 1_555
C9B C10 1_555 1_555
H14B C9B 1_555 1_555
H15B C9B 1_555 1_555
C10B C9 1_555 1_555
H16B C10B 1_555 1_555
H17B C10B 1_555 1_555
O3 N2 1_555 1_555
C5 C6 1_555 1_555
O3B N2B 1_555 1_555
N1B C9B 1_555 1_555
N1B C10B 1_555 1_555
C5B C6B 1_555 1_555

#END
