
#######################################################################
#
#                 Cambridge Crystallographic Data Centre
#                                CCDC 
#
#######################################################################
#
# If this CIF has been generated from an entry in the Cambridge 
# Structural Database, then it will include bibliographic, chemical, 
# crystal, experimental, refinement or atomic coordinate data resulting 
# from the CCDC's data processing and validation procedures.
#
#######################################################################

data_LIJZUA
_symmetry_cell_setting           monoclinic
_symmetry_space_group_name_H-M   'P 21/c'
_symmetry_Int_Tables_number      14
_space_group_name_Hall           '-P 2ybc'
loop_
_symmetry_equiv_pos_site_id
_symmetry_equiv_pos_as_xyz
1 x,y,z
2 -x,1/2+y,1/2-z
3 -x,-y,-z
4 x,1/2-y,1/2+z
_cell_length_a                   13.649(4)
_cell_length_b                   18.334(5)
_cell_length_c                   6.3157(18)
_cell_angle_alpha                90
_cell_angle_beta                 91.860(6)
_cell_angle_gamma                90
_cell_volume                     1579.61
loop_
_atom_site_label
_atom_site_type_symbol
_atom_site_fract_x
_atom_site_fract_y
_atom_site_fract_z
Co1 Co -0.14206(6) 0.00310(4) 0.24756(13)
Co2 Co 0.50263(5) 0.14248(4) 0.53856(13)
C1 C 0.0944(4) 0.1567(3) 0.2217(9)
C2 C 0.1697(4) 0.1047(3) 0.2460(9)
C3 C 0.2671(4) 0.1274(3) 0.2510(9)
C4 C 0.2892(4) 0.2020(3) 0.2310(9)
C5 C 0.2137(4) 0.2517(3) 0.2116(9)
H1 H 0.2281 0.3010 0.1985
C6 C 0.1175(4) 0.2295(3) 0.2114(9)
H2 H 0.0676 0.2641 0.2042
C7 C -0.0115(4) 0.1354(3) 0.2204(10)
C8 C 0.1492(4) 0.0232(3) 0.2521(10)
C9 C 0.3466(4) 0.0700(3) 0.2820(9)
C10 C 0.3918(4) 0.2287(3) 0.2136(9)
O1 O -0.0732(3) 0.1771(3) 0.1425(9)
O2 O -0.0310(3) 0.0745(2) 0.3072(6)
O3 O 0.1213(3) -0.0076(2) 0.0820(6)
O4 O 0.1655(3) -0.0106(2) 0.4206(6)
O5 O 0.3627(3) 0.0290(2) 0.1325(7)
O6 O 0.3881(3) 0.0656(2) 0.4636(6)
O7 O 0.4632(3) 0.1845(2) 0.2328(7)
O8 O 0.4011(3) 0.2943(2) 0.1759(6)
O9 O -0.2361(3) 0.0993(2) 0.1789(6)
H3 H -0.2067 0.1375 0.2229
H4 H -0.2474 0.1025 0.0460
O10 O -0.2600(3) -0.0625(2) 0.2169(6)
H5 H -0.3016 -0.0503 0.3077
H6 H -0.2857 -0.0582 0.0930
O11 O -0.0383(3) -0.0800(2) 0.2812(6)
H7 H -0.0603 -0.1133 0.3601
H8 H 0.0142 -0.0627 0.3371
O12 O 0.5283(3) 0.0941(2) 0.8323(7)
H9 H 0.4765 0.0961 0.9035
H10 H 0.5445 0.0498 0.8146
O13 O 0.5960(3) 0.0737(2) 0.3934(7)
H11 H 0.6536 0.0915 0.3990
H12 H 0.5960 0.0329 0.4569
O14 O 0.6128(3) 0.2200(2) 0.5759(7)
H13 H 0.6369 0.2181 0.7015
H14 H 0.5882 0.2621 0.5534
Co1B Co 0.14206(6) -0.00310(4) -0.24756(13)
Co1B_2 Co 0.14206(6) -0.00310(4) 0.75244(13)
Co2C Co 0.50263(5) 0.35752(4) 0.03856(13)
O3B O -0.1213(3) 0.0076(2) -0.0820(6)
O4B O -0.1655(3) 0.0106(2) 0.5794(6)
O8C O 0.4011(3) 0.2057(2) 0.6759(6)
O15 O 0.7904(4) 0.1640(3) 0.7042(8)
H15 H 0.7845 0.1208 0.6568
H16 H 0.8264 0.1680 0.8159
loop_
_geom_bond_atom_site_label_1
_geom_bond_atom_site_label_2
_geom_bond_site_symmetry_1
_geom_bond_site_symmetry_2
Co1 O2 1_555 1_555
Co2 O6 1_555 1_555
C1 C2 1_555 1_555
C2 C3 1_555 1_555
C3 C4 1_555 1_555
C4 C5 1_555 1_555
C5 H1 1_555 1_555
C6 C1 1_555 1_555
H2 C6 1_555 1_555
C7 C1 1_555 1_555
C8 C2 1_555 1_555
C9 C3 1_555 1_555
C10 C4 1_555 1_555
O1 C7 1_555 1_555
O2 C7 1_555 1_555
O3 C8 1_555 1_555
O4 C8 1_555 1_555
O5 C9 1_555 1_555
O6 C9 1_555 1_555
O7 Co2 1_555 1_555
O8 C10 1_555 1_555
O9 Co1 1_555 1_555
H3 O9 1_555 1_555
H4 O9 1_555 1_555
O10 Co1 1_555 1_555
H5 O10 1_555 1_555
H6 O10 1_555 1_555
O11 Co1 1_555 1_555
H7 O11 1_555 1_555
H8 O11 1_555 1_555
O12 Co2 1_555 1_555
H9 O12 1_555 1_555
H10 O12 1_555 1_555
O13 Co2 1_555 1_555
H11 O13 1_555 1_555
H12 O13 1_555 1_555
O14 Co2 1_555 1_555
H13 O14 1_555 1_555
H14 O14 1_555 1_555
O15 H15 1_555 1_555
H16 O15 1_555 1_555
Co1B O3 1_555 1_555
Co1B_2 O4 1_555 1_555
Co2C O8 1_555 1_555
O3B Co1 1_555 1_555
O4B Co1 1_555 1_555
O8C Co2 1_555 1_555
C5 C6 1_555 1_555
C10 O7 1_555 1_555

#END
