
#######################################################################
#
#                 Cambridge Crystallographic Data Centre
#                                CCDC 
#
#######################################################################
#
# If this CIF has been generated from an entry in the Cambridge 
# Structural Database, then it will include bibliographic, chemical, 
# crystal, experimental, refinement or atomic coordinate data resulting 
# from the CCDC's data processing and validation procedures.
#
#######################################################################

data_LIKBAJ
_symmetry_cell_setting           orthorhombic
_symmetry_space_group_name_H-M   'P c c n'
_symmetry_Int_Tables_number      56
_space_group_name_Hall           '-P 2ab 2ac'
loop_
_symmetry_equiv_pos_site_id
_symmetry_equiv_pos_as_xyz
1 x,y,z
2 1/2-x,1/2-y,z
3 -x,1/2+y,1/2-z
4 1/2+x,-y,1/2-z
5 -x,-y,-z
6 1/2+x,1/2+y,-z
7 x,1/2-y,1/2+z
8 1/2-x,y,1/2+z
_cell_length_a                   21.141(3)
_cell_length_b                   10.4028(16)
_cell_length_c                   19.250(3)
_cell_angle_alpha                90
_cell_angle_beta                 90
_cell_angle_gamma                90
_cell_volume                     4233.57
loop_
_atom_site_label
_atom_site_type_symbol
_atom_site_fract_x
_atom_site_fract_y
_atom_site_fract_z
H1 H 0.71608(2) 0.75(4) 0.5269(16)
O4 O 0.7500 0.7500 0.5515(8)
H1A H 0.78392(2) 0.75(4) 0.5269(16)
H2 H 0.7839(2) 0.242(6) 0.7369(7)
O1 O 0.7500 0.2500 0.7126(4)
H2A H 0.7161(2) 0.258(6) 0.7369(7)
O2 O 0.9438(5) 0.0313(15) 0.9590(6)
H25 H 0.947(3) 0.108(8) 0.976(10)
H26 H 0.9805(15) 0.006(5) 0.946(3)
H3 H 0.810(4) 0.145(4) 0.986(3)
O3 O 0.8173(9) 0.2034(14) 0.9560(8)
H27 H 0.815(5) 0.277(3) 0.976(3)
H4 H 0.755(5) 0.110(7) 0.526(2)
H5 H 0.7821(12) 0.116(3) 0.5925(13)
O5 O 0.7556(11) 0.152(2) 0.5647(10)
H6 H 0.8139(19) 0.562(5) 0.5885(19)
H7 H 0.821(7) 0.570(13) 0.516(2)
O6 O 0.8314(8) 0.5275(15) 0.5527(7)
Cu1 Cu 0.969340(19) 0.77508(4) 0.69133(2)
N1 N 0.88953(13) 0.8393(3) 0.73468(16)
N2 N 0.55328(15) 0.8426(3) 1.09717(15)
C1 C 0.5584(2) 0.9675(4) 1.0832(2)
H8 H 0.5456 1.0263 1.1167
C2 C 0.88702(18) 0.8770(4) 0.80076(19)
H9 H 0.9234 0.8719 0.8277
C3 C 0.69238(19) 0.9313(4) 0.8870(2)
H10 H 0.7198 0.9591 0.9244
H11 H 0.6936 0.8382 0.8851
C4 C 0.59914(17) 0.9299(4) 0.9698(2)
C5 C 0.8322(2) 0.9233(4) 0.8305(2)
H12 H 0.8321 0.9483 0.8769
C6 C 0.83597(19) 0.8481(5) 0.6977(2)
H13 H 0.8364 0.8199 0.6519
C7 C 0.7162(3) 0.9848(6) 0.8198(3)
H14 H 0.7209 1.0769 0.8253
H15 H 0.6838 0.9710 0.7849
C8 C 0.77731(19) 0.9326(4) 0.7919(2)
C9 C 0.7809(2) 0.8960(5) 0.7238(3)
H16 H 0.7457 0.9038 0.6952
C10 C 0.5817(2) 1.0130(4) 1.0217(2)
H17 H 0.5858 1.1011 1.0149
C11 C 0.5677(3) 0.7620(4) 1.0461(2)
H18 H 0.5626 0.6743 1.0535
C12 C 0.6251(2) 0.9753(5) 0.9016(2)
H19 H 0.6240 1.0685 0.9008
H20 H 0.5978 0.9445 0.8647
C13 C 0.5898(3) 0.8023(4) 0.9833(2)
H21 H 0.5987 0.7420 0.9490
O7 O 0.92294(13) 0.5659(2) 0.67464(14)
O8 O 0.94878(13) 0.2220(2) 0.84480(14)
O9 O 0.97501(11) 0.4668(2) 0.75927(13)
O10 O 0.99493(12) 0.2025(2) 0.71913(13)
O11 O 0.84813(14) 0.2252(3) 0.80996(17)
C14 C 0.92770(16) 0.2209(3) 0.7231(2)
H22 H 0.9073 0.1472 0.7007
C15 C 0.90571(16) 0.2251(3) 0.7984(2)
C16 C 0.93818(16) 0.4675(3) 0.70695(18)
C17 C 0.91067(18) 0.3412(3) 0.6817(2)
H23 H 0.9242 0.3282 0.6341
H24 H 0.8650 0.3492 0.6813
H28 H 1.005(3) 0.1257(15) 0.721(3)
Cu1G Cu 0.530660(19) 0.77508(4) 0.19133(2)
Cu1G_2 Cu 0.530660(19) 0.77508(4) 1.19133(2)
Cu1B Cu 1.030660(19) 0.27508(4) 0.80867(2)
Cu1B_2 Cu 1.030660(19) 1.27508(4) 0.80867(2)
N1G N 0.61047(13) 0.8393(3) 0.23468(16)
N2G N 0.94672(15) 0.8426(3) 0.59717(15)
N2_2 N 0.55328(15) 0.8426(3) 0.09717(15)
C1G C 0.9416(2) 0.9675(4) 0.5832(2)
H8G H 0.9544 1.0263 0.6167
C2G C 0.61298(18) 0.8770(4) 0.30076(19)
H9G H 0.5766 0.8719 0.3277
C3G C 0.80762(19) 0.9313(4) 0.3870(2)
H10G H 0.7802 0.9591 0.4244
H11G H 0.8064 0.8382 0.3851
C4G C 0.90086(17) 0.9299(4) 0.4698(2)
C5G C 0.6678(2) 0.9233(4) 0.3305(2)
H12G H 0.6679 0.9483 0.3769
C6G C 0.66403(19) 0.8481(5) 0.1977(2)
H13G H 0.6636 0.8199 0.1519
C7G C 0.7838(3) 0.9848(6) 0.3198(3)
H14G H 0.7791 1.0769 0.3253
H15G H 0.8162 0.9710 0.2849
C8G C 0.72269(19) 0.9326(4) 0.2919(2)
C9G C 0.7191(2) 0.8960(5) 0.2238(3)
H16G H 0.7543 0.9038 0.1952
C10G C 0.9183(2) 1.0130(4) 0.5217(2)
H17G H 0.9142 1.1011 0.5149
C11G C 0.9323(3) 0.7620(4) 0.5461(2)
H18G H 0.9374 0.6743 0.5535
C12G C 0.8749(2) 0.9753(5) 0.4016(2)
H19G H 0.8760 1.0685 0.4008
H20G H 0.9022 0.9445 0.3647
C13G C 0.9102(3) 0.8023(4) 0.4833(2)
H21G H 0.9013 0.7420 0.4490
O7B O 1.07706(13) 1.0659(2) 0.82536(14)
O7G O 0.57706(13) 0.5659(2) 0.17464(14)
O8B O 1.05122(13) 0.7220(2) 0.65520(14)
O8E O 0.44878(13) 0.7220(2) 0.15520(14)
O9B O 1.02499(11) 0.9668(2) 0.74073(13)
O9E O 0.47501(11) 0.9668(2) 0.24073(13)
O10B O 1.00507(12) 0.7025(2) 0.78087(13)
O10E O 0.49493(12) 0.7025(2) 0.28087(13)
O11B O 1.15187(14) 0.7252(3) 0.69004(17)
C14B C 1.07230(16) 0.7209(3) 0.7769(2)
H22B H 1.0927 0.6472 0.7993
C15B C 1.09429(16) 0.7251(3) 0.7016(2)
C16B C 1.06182(16) 0.9675(3) 0.79305(18)
C17B C 1.08933(18) 0.8412(3) 0.8183(2)
H23B H 1.0758 0.8282 0.8659
H24B H 1.1350 0.8492 0.8187
H28B H 0.995(3) 0.6257(15) 0.779(3)
H28E H 0.505(3) 0.6257(15) 0.279(3)
loop_
_geom_bond_atom_site_label_1
_geom_bond_atom_site_label_2
_geom_bond_site_symmetry_1
_geom_bond_site_symmetry_2
H1 O4 1_555 1_555
H2 O1 1_555 1_555
O1 H2A 1_555 1_555
O2 H25 1_555 1_555
H3 O3 1_555 1_555
O3 H27 1_555 1_555
O4 H1A 1_555 1_555
H4 O5 1_555 1_555
H5 O5 1_555 1_555
H6 O6 1_555 1_555
H7 O6 1_555 1_555
Cu1 N1 1_555 1_555
N1 C2 1_555 1_555
N2 C1 1_555 1_555
C1 H8 1_555 1_555
C2 H9 1_555 1_555
C3 H10 1_555 1_555
H11 C3 1_555 1_555
C4 C10 1_555 1_555
C5 C2 1_555 1_555
H12 C5 1_555 1_555
C6 N1 1_555 1_555
H13 C6 1_555 1_555
C7 C3 1_555 1_555
H14 C7 1_555 1_555
H15 C7 1_555 1_555
C8 C5 1_555 1_555
C9 C6 1_555 1_555
H16 C9 1_555 1_555
C10 C1 1_555 1_555
H17 C10 1_555 1_555
C11 N2 1_555 1_555
H18 C11 1_555 1_555
C12 C3 1_555 1_555
H19 C12 1_555 1_555
H20 C12 1_555 1_555
C13 C4 1_555 1_555
H21 C13 1_555 1_555
O7 Cu1 1_555 1_555
O8 C15 1_555 1_555
O9 C16 1_555 1_555
O10 C14 1_555 1_555
O11 C15 1_555 1_555
C14 H22 1_555 1_555
C15 C14 1_555 1_555
C16 O7 1_555 1_555
C17 C14 1_555 1_555
H23 C17 1_555 1_555
H24 C17 1_555 1_555
H26 O2 1_555 1_555
H28 O10 1_555 1_555
Cu1G N1G 1_555 1_555
Cu1G_2 N2 1_555 1_555
Cu1B O8 1_555 1_555
Cu1B_2 O7B 1_555 1_555
N1G C2G 1_555 1_555
N2G Cu1 1_555 1_555
N2_2 Cu1G 1_555 1_555
C1G N2G 1_555 1_555
H8G C1G 1_555 1_555
C2G H9G 1_555 1_555
C3G H10G 1_555 1_555
H11G C3G 1_555 1_555
C4G C10G 1_555 1_555
C5G C2G 1_555 1_555
H12G C5G 1_555 1_555
C6G N1G 1_555 1_555
H13G C6G 1_555 1_555
C7G C3G 1_555 1_555
H14G C7G 1_555 1_555
H15G C7G 1_555 1_555
C8G C5G 1_555 1_555
C9G C6G 1_555 1_555
H16G C9G 1_555 1_555
C10G C1G 1_555 1_555
H17G C10G 1_555 1_555
C11G N2G 1_555 1_555
H18G C11G 1_555 1_555
C12G C3G 1_555 1_555
H19G C12G 1_555 1_555
H20G C12G 1_555 1_555
C13G C4G 1_555 1_555
H21G C13G 1_555 1_555
O7B C16B 1_555 1_555
O7G Cu1G 1_555 1_555
O8B Cu1 1_555 1_555
O8E Cu1G 1_555 1_555
O9B Cu1 1_555 1_555
O9E Cu1G 1_555 1_555
O10B Cu1 1_555 1_555
O10E Cu1G 1_555 1_555
O11B C15B 1_555 1_555
C14B O10B 1_555 1_555
H22B C14B 1_555 1_555
C15B O8B 1_555 1_555
C16B O9B 1_555 1_555
C17B C14B 1_555 1_555
H23B C17B 1_555 1_555
H24B C17B 1_555 1_555
H28B O10B 1_555 1_555
H28E O10E 1_555 1_555
C4 C12 1_555 1_555
C7 C8 1_555 1_555
C8 C9 1_555 1_555
C11 C13 1_555 1_555
O9 Cu1B 1_555 1_555
O10 Cu1B 1_555 1_555
C16 C17 1_555 1_555
C4G C12G 1_555 1_555
C7G C8G 1_555 1_555
C8G C9G 1_555 1_555
C11G C13G 1_555 1_555
C14B C15B 1_555 1_555
C16B C17B 1_555 1_555

#END
