
#######################################################################
#
#                 Cambridge Crystallographic Data Centre
#                                CCDC 
#
#######################################################################
#
# If this CIF has been generated from an entry in the Cambridge 
# Structural Database, then it will include bibliographic, chemical, 
# crystal, experimental, refinement or atomic coordinate data resulting 
# from the CCDC's data processing and validation procedures.
#
#######################################################################

data_LIKBIR
_symmetry_cell_setting           rhombohedral
_symmetry_space_group_name_H-M   'R -3 c'
_symmetry_Int_Tables_number      167
_space_group_name_Hall           '-R 3 2"c'
loop_
_symmetry_equiv_pos_site_id
_symmetry_equiv_pos_as_xyz
1 x,y,z
2 -y,x-y,z
3 -x+y,-x,z
4 y,x,1/2-z
5 2/3+x,1/3+y,1/3+z
6 2/3-y,1/3+x-y,1/3+z
7 2/3-x+y,1/3-x,1/3+z
8 2/3+y,1/3+x,5/6-z
9 1/3+x,2/3+y,2/3+z
10 1/3+y,2/3+x,1/6-z
11 x-y,-y,1/2-z
12 -x,-x+y,1/2-z
13 1/3-y,2/3+x-y,2/3+z
14 1/3-x+y,2/3-x,2/3+z
15 1/3+x-y,2/3-y,1/6-z
16 1/3-x,2/3-x+y,1/6-z
17 2/3+x-y,1/3-y,5/6-z
18 2/3-x,1/3-x+y,5/6-z
19 -x,-y,-z
20 y,-x+y,-z
21 x-y,x,-z
22 -y,-x,1/2+z
23 1/3-x,2/3-y,2/3-z
24 1/3+y,2/3-x+y,2/3-z
25 1/3+x-y,2/3+x,2/3-z
26 1/3-y,2/3-x,1/6+z
27 2/3-x,1/3-y,1/3-z
28 2/3-y,1/3-x,5/6+z
29 -x+y,y,1/2+z
30 x,x-y,1/2+z
31 2/3+y,1/3-x+y,1/3-z
32 2/3+x-y,1/3+x,1/3-z
33 2/3-x+y,1/3+y,5/6+z
34 2/3+x,1/3+x-y,5/6+z
35 1/3-x+y,2/3+y,1/6+z
36 1/3+x,2/3+x-y,1/6+z
_cell_length_a                   13.4909(8)
_cell_length_b                   13.4909(8)
_cell_length_c                   40.646(5)
_cell_angle_alpha                90
_cell_angle_beta                 90
_cell_angle_gamma                120.00
_cell_volume                     6406.64
loop_
_atom_site_label
_atom_site_type_symbol
_atom_site_fract_x
_atom_site_fract_y
_atom_site_fract_z
I1 I 0.3333 0.6667 0.1667
I2 I 0.3333 0.6667 -0.0833
W1 W 0.3333 0.6667 0.058377(15)
Cu1 Cu 0.33160(11) 0.80676(11) 0.10363(4)
S1 S 0.1756(2) 0.6650(2) 0.07850(7)
O1 O 0.3333 0.6667 0.0172(3)
N1 N 0.3336(7) 0.9331(6) 0.1274(2)
C1 C 0.2511(9) 0.9189(9) 0.1471(3)
H1 H 0.1898 0.8431 0.1505
C2 C 0.2468(9) 1.0063(8) 0.1634(3)
H2 H 0.1845 0.9901 0.1776
C3 C 0.3341(7) 1.1182(7) 0.1588(2)
C4 C 0.4216(10) 1.1333(8) 0.1380(3)
H3 H 0.4843 1.2078 0.1339
C5 C 0.4168(10) 1.0393(8) 0.1230(3)
H4 H 0.4776 1.0518 0.1087
W1DA W -0.6666 -0.3333 0.274956(15)
Cu1A Cu 0.19324(11) 0.52484(16) 0.10363(4)
Cu1B Cu 0.47516(16) 0.66840(11) 0.10363(4)
Cu1Z Cu 0.33507(11) 1.52657(11) 0.22970(4)
Cu1DA Cu -0.52657(11) -0.19151(16) 0.22970(4)
Cu1EA Cu 1.19151(16) 0.66493(11) 0.22970(4)
Cu1EA_2 Cu -0.80849(16) -0.33507(11) 0.22970(4)
Cu1Z_2 Cu -0.66493(11) -0.47343(11) 0.22970(4)
S1A S 0.3350(2) 0.5106(3) 0.07850(7)
S1B S 0.4894(3) 0.8244(2) 0.07850(7)
S1DA S -0.6683(2) -0.1773(3) 0.25483(7)
S1Z S -0.5089(2) -0.3317(2) 0.25483(7)
S1EA S -0.8227(3) -0.4911(2) 0.25483(7)
O1DA O -0.6666 -0.3333 0.3161(3)
N1Z N 0.3331(7) 1.4002(6) 0.2059(2)
N1A N 0.0669(6) 0.4005(9) 0.1274(2)
N1DA N -0.4002(6) -0.0672(9) 0.2059(2)
N1B N 0.5995(9) 0.6664(7) 0.1274(2)
N1EA N 1.0672(9) 0.6669(7) 0.2059(2)
N1EA_2 N -0.9328(9) -0.3331(7) 0.2059(2)
N1Z_2 N -0.6669(7) -0.5998(6) 0.2059(2)
C1Z C 0.4156(9) 1.4144(9) 0.1862(3)
C1A C 0.0811(9) 0.3322(13) 0.1471(3)
C1DA C -0.4144(9) 0.0011(13) 0.1862(3)
C1B C 0.6678(13) 0.7489(9) 0.1471(3)
C1EA C 0.9989(13) 0.5844(9) 0.1862(3)
H1Z H 0.4769 1.4902 0.1828
H1A H 0.1569 0.3467 0.1505
H1DA H -0.4902 -0.0134 0.1828
H1B H 0.6533 0.8102 0.1505
H1EA H 1.0134 0.5231 0.1828
C2Z C 0.4199(9) 1.3270(8) 0.1699(3)
C2A C -0.0063(8) 0.2405(12) 0.1634(3)
C2DA C -0.3270(8) 0.0928(12) 0.1699(3)
C2B C 0.7595(12) 0.7532(9) 0.1634(3)
C2EA C 0.9072(12) 0.5801(9) 0.1699(3)
H2Z H 0.4822 1.3432 0.1557
H2A H 0.0099 0.1944 0.1776
H2DA H -0.3432 0.1389 0.1557
H2B H 0.8056 0.8155 0.1776
H2EA H 0.8611 0.5178 0.1557
C3Z C 0.3326(7) 1.2151(7) 0.1745(2)
C3A C -0.1182(7) 0.2159(10) 0.1588(2)
C3DA C -0.2151(7) 0.1174(10) 0.1745(2)
C3B C 0.7841(10) 0.6659(7) 0.1588(2)
C3EA C 0.8826(10) 0.6674(7) 0.1745(2)
C4Z C 0.2451(10) 1.2000(8) 0.1953(3)
C4A C -0.1333(8) 0.2883(13) 0.1380(3)
C4DA C -0.2000(8) 0.0450(13) 0.1953(3)
C4B C 0.7117(13) 0.5784(10) 0.1380(3)
C4EA C 0.9550(13) 0.7549(10) 0.1953(3)
H3Z H 0.1824 1.1255 0.1994
H3A H -0.2078 0.2765 0.1339
H3DA H -0.1255 0.0568 0.1994
H3B H 0.7235 0.5157 0.1339
H3EA H 0.9432 0.8176 0.1994
C5Z C 0.2499(10) 1.2940(8) 0.2103(3)
C5A C -0.0393(8) 0.3775(13) 0.1230(3)
C5DA C -0.2940(8) -0.0442(13) 0.2103(3)
C5B C 0.6225(13) 0.5832(10) 0.1230(3)
C5EA C 1.0442(13) 0.7501(10) 0.2103(3)
H4Z H 0.1891 1.2815 0.2246
H4A H -0.0518 0.4258 0.1087
H4DA H -0.2815 -0.0925 0.2246
H4B H 0.5742 0.5224 0.1087
H4EA H 1.0925 0.8109 0.2246
loop_
_geom_bond_atom_site_label_1
_geom_bond_atom_site_label_2
_geom_bond_site_symmetry_1
_geom_bond_site_symmetry_2
W1 Cu1 1_555 1_555
Cu1 S1 1_555 1_555
S1 W1 1_555 1_555
O1 W1 1_555 1_555
N1 Cu1 1_555 1_555
C1 N1 1_555 1_555
H1 C1 1_555 1_555
C2 C1 1_555 1_555
H2 C2 1_555 1_555
C3 C2 1_555 1_555
C4 C3 1_555 1_555
H3 C4 1_555 1_555
C5 N1 1_555 1_555
H4 C5 1_555 1_555
W1DA Cu1DA 1_555 1_555
Cu1A W1 1_555 1_555
Cu1B W1 1_555 1_555
Cu1Z N1Z 1_555 1_555
Cu1DA S1DA 1_555 1_555
Cu1EA N1EA 1_555 1_555
Cu1EA_2 W1DA 1_555 1_555
Cu1Z_2 W1DA 1_555 1_555
S1A W1 1_555 1_555
S1B W1 1_555 1_555
S1DA W1DA 1_555 1_555
S1Z W1DA 1_555 1_555
S1EA W1DA 1_555 1_555
O1DA W1DA 1_555 1_555
N1Z C1Z 1_555 1_555
N1A Cu1A 1_555 1_555
N1DA Cu1DA 1_555 1_555
N1B Cu1B 1_555 1_555
N1EA C1EA 1_555 1_555
N1EA_2 Cu1EA_2 1_555 1_555
N1Z_2 Cu1Z_2 1_555 1_555
C1Z H1Z 1_555 1_555
C1A N1A 1_555 1_555
C1DA N1DA 1_555 1_555
C1B N1B 1_555 1_555
C1EA H1EA 1_555 1_555
H1A C1A 1_555 1_555
H1DA C1DA 1_555 1_555
H1B C1B 1_555 1_555
C2Z C1Z 1_555 1_555
C2A C1A 1_555 1_555
C2DA C1DA 1_555 1_555
C2B C1B 1_555 1_555
C2EA C1EA 1_555 1_555
H2Z C2Z 1_555 1_555
H2A C2A 1_555 1_555
H2DA C2DA 1_555 1_555
H2B C2B 1_555 1_555
H2EA C2EA 1_555 1_555
C3Z C3 1_555 1_555
C3A C2A 1_555 1_555
C3DA C2DA 1_555 1_555
C3B C2B 1_555 1_555
C3EA C2EA 1_555 1_555
C4Z C3Z 1_555 1_555
C4A C3A 1_555 1_555
C4DA C3DA 1_555 1_555
C4B C3B 1_555 1_555
C4EA C3EA 1_555 1_555
H3Z C4Z 1_555 1_555
H3A C4A 1_555 1_555
H3DA C4DA 1_555 1_555
H3B C4B 1_555 1_555
H3EA C4EA 1_555 1_555
C5Z N1Z 1_555 1_555
C5A N1A 1_555 1_555
C5DA N1DA 1_555 1_555
C5B N1B 1_555 1_555
C5EA N1EA 1_555 1_555
H4Z C5Z 1_555 1_555
H4A C5A 1_555 1_555
H4DA C5DA 1_555 1_555
H4B C5B 1_555 1_555
H4EA C5EA 1_555 1_555
Cu1 S1B 1_555 1_555
S1 Cu1A 1_555 1_555
C4 C5 1_555 1_555
Cu1A S1A 1_555 1_555
Cu1B S1A 1_555 1_555
Cu1B S1B 1_555 1_555
Cu1DA S1Z 1_555 1_555
Cu1EA_2 S1DA 1_555 1_555
Cu1EA_2 S1EA 1_555 1_555
Cu1Z_2 S1Z 1_555 1_555
Cu1Z_2 S1EA 1_555 1_555
C2Z C3Z 1_555 1_555
C3A C3DA 1_555 1_555
C3B C3EA 1_555 1_555
C4Z C5Z 1_555 1_555
C4A C5A 1_555 1_555
C4DA C5DA 1_555 1_555
C4B C5B 1_555 1_555
C4EA C5EA 1_555 1_555

#END
