
#######################################################################
#
#                 Cambridge Crystallographic Data Centre
#                                CCDC 
#
#######################################################################
#
# If this CIF has been generated from an entry in the Cambridge 
# Structural Database, then it will include bibliographic, chemical, 
# crystal, experimental, refinement or atomic coordinate data resulting 
# from the CCDC's data processing and validation procedures.
#
#######################################################################

data_LIKBUD
_symmetry_cell_setting           monoclinic
_symmetry_space_group_name_H-M   'P 21/c'
_symmetry_Int_Tables_number      14
_space_group_name_Hall           '-P 2ybc'
loop_
_symmetry_equiv_pos_site_id
_symmetry_equiv_pos_as_xyz
1 x,y,z
2 -x,1/2+y,1/2-z
3 -x,-y,-z
4 x,1/2-y,1/2+z
_cell_length_a                   11.560(2)
_cell_length_b                   13.428(2)
_cell_length_c                   10.4109(19)
_cell_angle_alpha                90.00
_cell_angle_beta                 100.130(3)
_cell_angle_gamma                90.00
_cell_volume                     1590.87
loop_
_atom_site_label
_atom_site_type_symbol
_atom_site_fract_x
_atom_site_fract_y
_atom_site_fract_z
N1 N 0.3508(2) 0.0718(2) -0.1361(2)
C1 C 0.2436(3) 0.0943(2) -0.1090(3)
H1 H 0.2193 0.0740 -0.0325
N2 N 0.1765(2) 0.1467(2) -0.1988(3)
C2 C 0.3472(3) 0.1137(3) -0.2512(3)
H2 H 0.4082 0.1120 -0.2987
N3 N 0.2456(2) 0.1584(2) -0.2899(2)
C3 C 0.2029(3) 0.2147(3) -0.4083(3)
H3 H 0.1789 0.2804 -0.3844
H4 H 0.2668 0.2232 -0.4566
Mn1 Mn 0.5000 0.0000 0.0000
C4 C -0.3408(3) 0.3693(3) -0.6718(3)
H5 H -0.3593 0.4131 -0.7416
C5 C -0.3254(3) 0.3091(3) -0.4862(3)
H6 H -0.3293 0.2981 -0.3989
C6 C -0.2290(3) 0.1473(2) -0.5296(3)
H7 H -0.2286 0.1329 -0.4382
H8 H -0.2799 0.0992 -0.5811
C7 C -0.1063(3) 0.1363(2) -0.5576(3)
C8 C -0.0125(3) 0.1725(2) -0.4688(3)
C9 C 0.1015(2) 0.1658(2) -0.4953(3)
C10 C 0.1195(3) 0.1181(2) -0.6077(3)
H9 H 0.1951 0.1121 -0.6258
C11 C 0.0264(3) 0.0798(2) -0.6925(3)
C12 C -0.0866(3) 0.0903(2) -0.6698(3)
H10 H -0.1494 0.0664 -0.7301
C13 C 0.4569(3) 0.1136(2) 0.2653(4)
Cl1 Cl 0.05168(9) 0.02173(8) -0.83458(10)
N4 N -0.3682(2) 0.3882(2) -0.5531(2)
N5 N -0.2863(2) 0.2847(2) -0.6814(2)
N6 N -0.27633(19) 0.24757(19) -0.5594(2)
N7 N 0.4656(3) 0.0916(2) 0.1625(3)
O1 O -0.03666(19) 0.21705(19) -0.3593(2)
H11 H 0.0134 0.2013 -0.2966
S1 S 0.44507(9) 0.14624(13) 0.41099(11)
N1B N 0.6492(2) -0.0718(2) 0.1361(2)
C1B C 0.7564(3) -0.0943(2) 0.1090(3)
H1B H 0.7807 -0.0740 0.0325
N2B N 0.8235(2) -0.1467(2) 0.1988(3)
C2B C 0.6528(3) -0.1137(3) 0.2512(3)
H2B H 0.5918 -0.1120 0.2987
N3B N 0.7544(2) -0.1584(2) 0.2899(2)
C3B C 0.7971(3) -0.2147(3) 0.4083(3)
H3B H 0.8211 -0.2804 0.3844
H4B H 0.7332 -0.2232 0.4566
Mn1C Mn -0.5000 0.5000 -0.5000
Mn1C_2 Mn 1.5000 -0.5000 0.5000
C4B C 1.3408(3) -0.3693(3) 0.6718(3)
H5B H 1.3593 -0.4131 0.7416
C5B C 1.3254(3) -0.3091(3) 0.4862(3)
H6B H 1.3293 -0.2981 0.3989
C6B C 1.2290(3) -0.1473(2) 0.5296(3)
H7B H 1.2286 -0.1329 0.4382
H8B H 1.2799 -0.0992 0.5811
C7B C 1.1063(3) -0.1363(2) 0.5576(3)
C8B C 1.0125(3) -0.1725(2) 0.4688(3)
C9B C 0.8985(2) -0.1658(2) 0.4953(3)
C10B C 0.8805(3) -0.1181(2) 0.6077(3)
H9B H 0.8049 -0.1121 0.6258
C11B C 0.9736(3) -0.0798(2) 0.6925(3)
C12B C 1.0866(3) -0.0903(2) 0.6698(3)
H10B H 1.1494 -0.0664 0.7301
C13B C 0.5431(3) -0.1136(2) -0.2653(4)
Cl1B Cl 0.94832(9) -0.02173(8) 0.83458(10)
N4B N 1.3682(2) -0.3882(2) 0.5531(2)
N4C N 0.6318(2) 0.1118(2) -0.0531(2)
N4A N 0.3682(2) -0.1118(2) 0.0531(2)
N5B N 1.2863(2) -0.2847(2) 0.6814(2)
N6B N 1.27633(19) -0.24757(19) 0.5594(2)
N7B N 0.5344(3) -0.0916(2) -0.1625(3)
O1B O 1.03666(19) -0.21705(19) 0.3593(2)
H11B H 0.9866 -0.2013 0.2966
S1B S 0.55493(9) -0.14624(13) -0.41099(11)
loop_
_geom_bond_atom_site_label_1
_geom_bond_atom_site_label_2
_geom_bond_site_symmetry_1
_geom_bond_site_symmetry_2
N1 C1 1_555 1_555
C1 H1 1_555 1_555
N2 C1 1_555 1_555
C2 N1 1_555 1_555
H2 C2 1_555 1_555
N3 N2 1_555 1_555
C3 N3 1_555 1_555
H3 C3 1_555 1_555
H4 C3 1_555 1_555
Mn1 N1 1_555 1_555
C4 H5 1_555 1_555
C5 H6 1_555 1_555
C6 H7 1_555 1_555
H8 C6 1_555 1_555
C7 C6 1_555 1_555
C8 C7 1_555 1_555
C9 C3 1_555 1_555
C10 C9 1_555 1_555
H9 C10 1_555 1_555
C11 C10 1_555 1_555
C12 C7 1_555 1_555
H10 C12 1_555 1_555
C13 N7 1_555 1_555
Cl1 C11 1_555 1_555
N4 C4 1_555 1_555
N5 C4 1_555 1_555
N6 C5 1_555 1_555
N7 Mn1 1_555 1_555
O1 C8 1_555 1_555
H11 O1 1_555 1_555
S1 C13 1_555 1_555
N1B Mn1 1_555 1_555
C1B N1B 1_555 1_555
H1B C1B 1_555 1_555
N2B C1B 1_555 1_555
C2B N1B 1_555 1_555
H2B C2B 1_555 1_555
N3B N2B 1_555 1_555
C3B N3B 1_555 1_555
H3B C3B 1_555 1_555
H4B C3B 1_555 1_555
Mn1C N4 1_555 1_555
Mn1C_2 N4B 1_555 1_555
C4B H5B 1_555 1_555
C5B H6B 1_555 1_555
C6B H7B 1_555 1_555
H8B C6B 1_555 1_555
C7B C6B 1_555 1_555
C8B C7B 1_555 1_555
C9B C3B 1_555 1_555
C10B C9B 1_555 1_555
H9B C10B 1_555 1_555
C11B C10B 1_555 1_555
C12B C7B 1_555 1_555
H10B C12B 1_555 1_555
C13B N7B 1_555 1_555
Cl1B C11B 1_555 1_555
N4B C4B 1_555 1_555
N4C Mn1 1_555 1_555
N4A Mn1 1_555 1_555
N5B C4B 1_555 1_555
N6B C5B 1_555 1_555
N7B Mn1 1_555 1_555
O1B C8B 1_555 1_555
H11B O1B 1_555 1_555
S1B C13B 1_555 1_555
C2 N3 1_555 1_555
C5 N4 1_555 1_555
C6 N6 1_555 1_555
C8 C9 1_555 1_555
C11 C12 1_555 1_555
N5 N6 1_555 1_555
C2B N3B 1_555 1_555
C5B N4B 1_555 1_555
C6B N6B 1_555 1_555
C8B C9B 1_555 1_555
C11B C12B 1_555 1_555
N5B N6B 1_555 1_555

#END
