
#######################################################################
#
#                 Cambridge Crystallographic Data Centre
#                                CCDC 
#
#######################################################################
#
# If this CIF has been generated from an entry in the Cambridge 
# Structural Database, then it will include bibliographic, chemical, 
# crystal, experimental, refinement or atomic coordinate data resulting 
# from the CCDC's data processing and validation procedures.
#
#######################################################################

data_LIKCOY
_symmetry_cell_setting           monoclinic
_symmetry_space_group_name_H-M   'C 2/c'
_symmetry_Int_Tables_number      15
_space_group_name_Hall           '-C 2yn'
loop_
_symmetry_equiv_pos_site_id
_symmetry_equiv_pos_as_xyz
1 x,y,z
2 1/2+x,1/2+y,z
3 -x,y,1/2-z
4 1/2-x,1/2+y,1/2-z
5 -x,-y,-z
6 1/2-x,1/2-y,-z
7 x,-y,1/2+z
8 1/2+x,1/2-y,1/2+z
_cell_length_a                   17.927(4)
_cell_length_b                   24.839(5)
_cell_length_c                   16.881(3)
_cell_angle_alpha                90.00
_cell_angle_beta                 103.615(3)
_cell_angle_gamma                90.00
_cell_volume                     7305.69
loop_
_atom_site_label
_atom_site_type_symbol
_atom_site_fract_x
_atom_site_fract_y
_atom_site_fract_z
C1 C 1.0497(5) 0.7660(4) 0.3562(6)
H1 H 1.0221 0.7926 0.3231
C2 C 1.1226(5) 0.7623(4) 0.3602(5)
H2 H 1.1467 0.7886 0.3360
C3 C 1.1651(4) 0.7193(3) 0.4002(5)
C4 C 1.1246(5) 0.6874(4) 0.4416(5)
H3 H 1.1490 0.6611 0.4776
C5 C 1.0475(5) 0.6954(4) 0.4286(5)
H4 H 1.0188 0.6688 0.4463
C6 C 0.8643(5) 0.6577(3) 0.2955(5)
H5 H 0.9142 0.6617 0.2895
C7 C 0.8200(5) 0.6163(3) 0.2533(5)
H6 H 0.8398 0.5944 0.2185
C8 C 0.7485(5) 0.6079(3) 0.2626(5)
C9 C 0.7239(5) 0.6439(3) 0.3117(5)
H7 H 0.6740 0.6409 0.3184
C10 C 0.7668(5) 0.6822(3) 0.3494(5)
H8 H 0.7463 0.7048 0.3827
C11 C 1.3690(5) 0.6658(4) 0.4487(5)
H9 H 1.3947 0.6365 0.4766
C12 C 1.2930(5) 0.6747(3) 0.4497(6)
H10 H 1.2713 0.6536 0.4840
C13 C 1.2495(4) 0.7116(3) 0.4043(4)
C14 C 1.2880(4) 0.7497(3) 0.3690(5)
H11 H 1.2629 0.7805 0.3448
C15 C 1.3629(5) 0.7413(3) 0.3704(5)
H12 H 1.3880 0.7657 0.3439
C16 C 0.5861(5) 0.5149(3) 0.1786(5)
H13 H 0.5340 0.5142 0.1774
C17 C 0.6262(5) 0.5580(4) 0.2164(6)
H14 H 0.6009 0.5848 0.2381
C18 C 0.7010(6) 0.5620(3) 0.2226(5)
C19 C 0.7353(5) 0.5174(4) 0.1926(5)
H15 H 0.7884 0.5164 0.2008
C20 C 0.6909(5) 0.4736(3) 0.1501(5)
H16 H 0.7138 0.4458 0.1276
Cu1 Cu 0.90017(5) 0.75436(4) 0.39985(6)
Cu2 Cu 0.55252(6) 0.40646(4) 0.09588(6)
Cu3 Cu 1.51671(5) 0.68255(4) 0.40853(6)
I1 I 0.42532(3) 0.41939(2) 0.13706(3)
I2 I 1.5000 0.69209(3) 0.2500
N1 N 1.0132(4) 0.7350(3) 0.3952(4)
N2 N 1.4045(4) 0.6972(3) 0.4104(4)
N3 N 0.6123(4) 0.4746(3) 0.1442(5)
N4 N 0.8393(4) 0.6915(3) 0.3435(4)
O1 O 0.7668(3) 0.8601(2) 0.4736(3)
S1 S 0.55502(13) 0.40099(8) -0.03967(12)
S2 S 0.86902(12) 0.83724(8) 0.34271(12)
S3 S 0.88716(12) 0.76015(8) 0.53005(12)
W1 W 0.858910(17) 0.841630(12) 0.472560(18)
C1E C 1.4503(5) 0.7340(4) 0.6438(6)
H1E H 1.4779 0.7074 0.6769
C2E C 1.3774(5) 0.7377(4) 0.6398(5)
H2E H 1.3533 0.7114 0.6640
C3E C 1.3349(4) 0.7807(3) 0.5998(5)
C4E C 1.3754(5) 0.8126(4) 0.5584(5)
H3E H 1.3510 0.8389 0.5224
C5E C 1.4525(5) 0.8046(4) 0.5714(5)
H4E H 1.4812 0.8312 0.5537
C6C C 0.6357(5) 1.1577(3) 0.2045(5)
H5C H 0.5858 1.1617 0.2105
C7C C 0.6800(5) 1.1163(3) 0.2467(5)
H6C H 0.6602 1.0944 0.2815
C8C C 0.7515(5) 1.1079(3) 0.2374(5)
C9C C 0.7761(5) 1.1439(3) 0.1883(5)
H7C H 0.8260 1.1409 0.1816
C10C C 0.7332(5) 1.1822(3) 0.1506(5)
H8C H 0.7537 1.2048 0.1173
C11E C 1.1310(5) 0.8342(4) 0.5513(5)
H9E H 1.1053 0.8635 0.5234
C12E C 1.2070(5) 0.8253(3) 0.5503(6)
H10E H 1.2287 0.8464 0.5160
C13E C 1.2505(4) 0.7884(3) 0.5957(4)
C14E C 1.2120(4) 0.7503(3) 0.6310(5)
H11E H 1.2371 0.7195 0.6552
C15E C 1.1371(5) 0.7587(3) 0.6296(5)
H12E H 1.1120 0.7343 0.6561
C16C C 0.9139(5) 1.0149(3) 0.3214(5)
H13C H 0.9660 1.0142 0.3226
C17C C 0.8738(5) 1.0580(4) 0.2836(6)
H14C H 0.8991 1.0848 0.2619
C18C C 0.7990(6) 1.0620(3) 0.2774(5)
C19C C 0.7647(5) 1.0174(4) 0.3074(5)
H15C H 0.7116 1.0164 0.2992
C20C C 0.8091(5) 0.9736(3) 0.3499(5)
H16C H 0.7862 0.9458 0.3724
Cu1E Cu 1.59983(5) 0.74564(4) 0.60015(6)
Cu1C Cu 0.59983(5) 0.25436(4) 0.10015(6)
Cu1C_2 Cu 0.59983(5) 1.25436(4) 0.10015(6)
Cu2C Cu 0.94748(6) 0.90646(4) 0.40412(6)
Cu2F Cu 1.55252(6) 0.59354(4) 0.59588(6)
Cu3E Cu 0.98329(5) 0.81745(4) 0.59147(6)
Cu3B Cu 1.48329(5) 0.68255(4) 0.09147(6)
Cu3F Cu 0.51671(5) 0.31745(4) -0.09147(6)
I1C I 1.07468(3) 0.91939(2) 0.36294(3)
I2G I 1.0000 0.80791(3) 0.7500
N1E N 1.4868(4) 0.7650(3) 0.6048(4)
N2E N 1.0955(4) 0.8028(3) 0.5896(4)
N3C N 0.8877(4) 0.9746(3) 0.3558(5)
N4C N 0.6607(4) 1.1915(3) 0.1565(4)
N4E N 1.6607(4) 0.8085(3) 0.6565(4)
O1C O 0.7332(3) 0.3601(2) 0.0264(3)
S1F S 1.55502(13) 0.59901(8) 0.46033(12)
S1C S 0.94498(13) 0.90099(8) 0.53967(12)
S2C S 0.63098(12) 0.33724(8) 0.15729(12)
S2E S 1.63098(12) 0.66276(8) 0.65729(12)
S3E S 1.61284(12) 0.73985(8) 0.46995(12)
S3C S 0.61284(12) 0.26015(8) -0.03005(12)
W1C W 0.641090(17) 0.341630(12) 0.027440(18)
W1E W 1.641090(17) 0.658370(12) 0.527440(18)
N5 N 0.5000 0.8500(3) 0.2500
H17 H 0.5479 0.8474 0.2815
H20 H 0.4839 0.8174 0.2300
H17B H 0.4521 0.8474 0.2185
H20B H 0.5161 0.8174 0.2700
O2 O 0.8978(8) 0.5587(6) 0.4306(9)
H21 H 0.9152 0.5559 0.3881
H22 H 0.9326 0.5503 0.4723
O3 O 0.2860(10) 0.9709(7) 0.4067(10)
H23 H 0.3208 0.9475 0.4080
H24 H 0.2882 0.9945 0.3708
O4 O 0.4208(7) 0.9891(5) 0.6439(7)
H25 H 0.4019 1.0136 0.6684
H26 H 0.4218 0.9595 0.6695
O5 O 0.6431(4) 0.8422(2) 0.3440(4)
H27 H 0.6904 0.8411 0.3437
H28 H 0.6383 0.8425 0.3929
O6 O 0.5520(9) 0.0851(6) 0.6001(9)
H29 H 0.5728 0.0797 0.6502
H30 H 0.5048 0.0765 0.5906
H18? H 0.4683 0.8625 0.2800
H19? H 0.4998 0.8729 0.2085
loop_
_geom_bond_atom_site_label_1
_geom_bond_atom_site_label_2
_geom_bond_site_symmetry_1
_geom_bond_site_symmetry_2
C1 H1 1_555 1_555
C2 C1 1_555 1_555
H2 C2 1_555 1_555
C3 C2 1_555 1_555
C4 C3 1_555 1_555
H3 C4 1_555 1_555
C5 C4 1_555 1_555
H4 C5 1_555 1_555
C6 H5 1_555 1_555
C7 C6 1_555 1_555
H6 C7 1_555 1_555
C8 C7 1_555 1_555
C9 C8 1_555 1_555
H7 C9 1_555 1_555
C10 C9 1_555 1_555
H8 C10 1_555 1_555
C11 H9 1_555 1_555
C12 C11 1_555 1_555
H10 C12 1_555 1_555
C13 C3 1_555 1_555
C14 C13 1_555 1_555
H11 C14 1_555 1_555
C15 C14 1_555 1_555
H12 C15 1_555 1_555
C16 H13 1_555 1_555
C17 C16 1_555 1_555
H14 C17 1_555 1_555
C18 C8 1_555 1_555
C19 C18 1_555 1_555
H15 C19 1_555 1_555
C20 C19 1_555 1_555
H16 C20 1_555 1_555
Cu1 N1 1_555 1_555
Cu2 I1 1_555 1_555
Cu3 I2 1_555 1_555
I2 Cu3B 1_555 1_555
N1 C1 1_555 1_555
N2 C11 1_555 1_555
N3 C16 1_555 1_555
N4 C6 1_555 1_555
N5 H17 1_555 1_555
H20 N5 1_555 1_555
O1 W1 1_555 1_555
O2 H21 1_555 1_555
H22 O2 1_555 1_555
O3 H23 1_555 1_555
H24 O3 1_555 1_555
O4 H25 1_555 1_555
H26 O4 1_555 1_555
O5 H27 1_555 1_555
H28 O5 1_555 1_555
O6 H29 1_555 1_555
H30 O6 1_555 1_555
S1 Cu2 1_555 1_555
S2 Cu1 1_555 1_555
S3 Cu1 1_555 1_555
W1 Cu1 1_555 1_555
C1E H1E 1_555 1_555
C2E C1E 1_555 1_555
H2E C2E 1_555 1_555
C3E C2E 1_555 1_555
C4E C3E 1_555 1_555
H3E C4E 1_555 1_555
C5E C4E 1_555 1_555
H4E C5E 1_555 1_555
C6C H5C 1_555 1_555
C7C C6C 1_555 1_555
H6C C7C 1_555 1_555
C8C C7C 1_555 1_555
C9C C8C 1_555 1_555
H7C C9C 1_555 1_555
C10C C9C 1_555 1_555
H8C C10C 1_555 1_555
C11E H9E 1_555 1_555
C12E C11E 1_555 1_555
H10E C12E 1_555 1_555
C13E C3E 1_555 1_555
C14E C13E 1_555 1_555
H11E C14E 1_555 1_555
C15E C14E 1_555 1_555
H12E C15E 1_555 1_555
C16C H13C 1_555 1_555
C17C C16C 1_555 1_555
H14C C17C 1_555 1_555
C18C C8C 1_555 1_555
C19C C18C 1_555 1_555
H15C C19C 1_555 1_555
C20C C19C 1_555 1_555
H16C C20C 1_555 1_555
Cu1E N1E 1_555 1_555
Cu1C S2C 1_555 1_555
Cu1C_2 N4C 1_555 1_555
Cu2C S2 1_555 1_555
Cu2F S1F 1_555 1_555
Cu3E S3 1_555 1_555
Cu3F S1 1_555 1_555
I1C Cu2C 1_555 1_555
I2G Cu3E 1_555 1_555
N1E C1E 1_555 1_555
N2E C11E 1_555 1_555
N3C C16C 1_555 1_555
N4C C6C 1_555 1_555
N4E Cu1E 1_555 1_555
H17B N5 1_555 1_555
H20B N5 1_555 1_555
O1C W1C 1_555 1_555
S1F Cu3 1_555 1_555
S1C W1 1_555 1_555
S2C Cu2 1_555 1_555
S2E Cu1E 1_555 1_555
S3E Cu3 1_555 1_555
S3C Cu1C 1_555 1_555
W1C Cu2 1_555 1_555
W1E Cu3 1_555 1_555
C5 N1 1_555 1_555
C10 N4 1_555 1_555
C12 C13 1_555 1_555
C15 N2 1_555 1_555
C17 C18 1_555 1_555
C20 N3 1_555 1_555
Cu1 N4 1_555 1_555
Cu2 N3 1_555 1_555
Cu3 N2 1_555 1_555
S1 W1C 1_555 1_555
S2 W1 1_555 1_555
S3 W1 1_555 1_555
W1 Cu2C 1_555 1_555
W1 Cu3E 1_555 1_555
C5E N1E 1_555 1_555
C10C N4C 1_555 1_555
C12E C13E 1_555 1_555
C15E N2E 1_555 1_555
C17C C18C 1_555 1_555
C20C N3C 1_555 1_555
Cu1E S3E 1_555 1_555
Cu1E W1E 1_555 1_555
Cu1C W1C 1_555 1_555
Cu2C N3C 1_555 1_555
Cu2C S1C 1_555 1_555
Cu2F S2E 1_555 1_555
Cu2F W1E 1_555 1_555
Cu3E N2E 1_555 1_555
Cu3E S1C 1_555 1_555
Cu3F S3C 1_555 1_555
Cu3F W1C 1_555 1_555
S1F W1E 1_555 1_555
S2C W1C 1_555 1_555
S2E W1E 1_555 1_555
S3E W1E 1_555 1_555
S3C W1C 1_555 1_555

#END
