
#######################################################################
#
#                 Cambridge Crystallographic Data Centre
#                                CCDC 
#
#######################################################################
#
# If this CIF has been generated from an entry in the Cambridge 
# Structural Database, then it will include bibliographic, chemical, 
# crystal, experimental, refinement or atomic coordinate data resulting 
# from the CCDC's data processing and validation procedures.
#
#######################################################################

data_LIKFOB
_symmetry_cell_setting           triclinic
_symmetry_space_group_name_H-M   'P -1'
_symmetry_Int_Tables_number      2
_space_group_name_Hall           '-P 1'
loop_
_symmetry_equiv_pos_site_id
_symmetry_equiv_pos_as_xyz
1 x,y,z
2 -x,-y,-z
_cell_length_a                   6.9235(13)
_cell_length_b                   7.4268(14)
_cell_length_c                   8.2517(15)
_cell_angle_alpha                90.118(2)
_cell_angle_beta                 109.774(2)
_cell_angle_gamma                93.329(2)
_cell_volume                     398.499
loop_
_atom_site_label
_atom_site_type_symbol
_atom_site_fract_x
_atom_site_fract_y
_atom_site_fract_z
Zn1 Zn 0.5000 1.0000 0.5000
Zn2 Zn 0.0000 0.5000 0.5000
O1 O 0.48948(18) 0.85848(17) 0.71109(15)
O2 O 0.17237(18) 0.72976(16) 0.60569(16)
O3 O 0.55238(17) 0.23399(16) 0.64993(15)
O4 O 0.25462(18) 0.36136(17) 0.53783(15)
C1 C 0.4579(2) 0.6770(2) 1.0218(2)
H1 H 0.4294 0.7955 1.0370
C2 C 0.4187(2) 0.6082(2) 0.8562(2)
C3 C 0.4597(2) 0.4301(2) 0.8326(2)
C4 C 0.4191(2) 0.3380(2) 0.6603(2)
C5 C 0.3526(2) 0.7397(2) 0.7119(2)
O5 O 0.04217(19) 0.5816(2) 0.26867(16)
H2 H 0.1486 0.6435 0.2841
H3 H 0.0181 0.5126 0.1855
O6 O 0.18418(18) 1.01311(17) 0.39415(16)
H4 H 0.1483 1.1146 0.4030
H5 H 0.1421 0.9456 0.4621
Zn1_2 Zn 0.5000 0.0000 0.5000
Zn1_3 Zn 0.5000 0.0000 1.5000
Zn1_4 Zn 0.5000 1.0000 1.5000
Zn2_2 Zn 1.0000 0.5000 1.5000
O1A O 0.51052(18) 0.14152(17) 1.28891(15)
O1A_2 O 0.51052(18) 1.14152(17) 0.28891(15)
O2A O 0.82763(18) 0.27024(16) 1.39431(16)
O2A_2 O -0.17237(18) 0.27024(16) 0.39431(16)
O3A O 0.44762(17) 0.76601(16) 1.35007(15)
O3_2 O 0.55238(17) 1.23399(16) 0.64993(15)
O3A_2 O 0.44762(17) 0.76601(16) 0.35007(15)
O4A O 0.74538(18) 0.63864(17) 1.46217(15)
O4A_2 O -0.25462(18) 0.63864(17) 0.46217(15)
C1A C 0.5421(2) 0.3230(2) 0.9782(2)
H1A H 0.5706 0.2045 0.9630
C2A C 0.5813(2) 0.3918(2) 1.1438(2)
C3A C 0.5403(2) 0.5699(2) 1.1674(2)
C4A C 0.5809(2) 0.6620(2) 1.3397(2)
C5A C 0.6474(2) 0.2603(2) 1.2881(2)
O5A O -0.04217(19) 0.4184(2) 0.73133(16)
H2A H -0.1486 0.3565 0.7159
H3A H -0.0181 0.4874 0.8145
O6A O 0.81582(18) 0.98689(17) 0.60585(16)
H4A H 0.8517 0.8854 0.5970
H5A H 0.8579 1.0544 0.5379
O7 O 0.0969(4) 0.2767(4) 0.0788(3)
H6 H 0.0540 0.2257 0.1568
H7 H 0.2312 0.2940 0.1436
O8 O 0.1390(6) 1.0464(6) 0.9766(5)
H8 H 0.1421 1.0939 1.0687
H9 H 0.0663 0.9473 0.9595
loop_
_geom_bond_atom_site_label_1
_geom_bond_atom_site_label_2
_geom_bond_site_symmetry_1
_geom_bond_site_symmetry_2
Zn1 O1 1_555 1_555
Zn2 O2 1_555 1_555
O1 C5 1_555 1_555
O2 C5 1_555 1_555
O3 C4 1_555 1_555
O4 Zn2 1_555 1_555
C1 H1 1_555 1_555
C2 C1 1_555 1_555
C3 C2 1_555 1_555
C4 O4 1_555 1_555
C5 C2 1_555 1_555
O5 Zn2 1_555 1_555
H2 O5 1_555 1_555
H3 O5 1_555 1_555
O6 Zn1 1_555 1_555
H4 O6 1_555 1_555
H5 O6 1_555 1_555
O7 H6 1_555 1_555
H7 O7 1_555 1_555
O8 H8 1_555 1_555
H9 O8 1_555 1_555
Zn1_2 O3 1_555 1_555
Zn1_3 O1A 1_555 1_555
Zn1_4 O3A 1_555 1_555
Zn2_2 O2A 1_555 1_555
O1A C5A 1_555 1_555
O1A_2 Zn1 1_555 1_555
O2A C5A 1_555 1_555
O2A_2 Zn2 1_555 1_555
O3A C4A 1_555 1_555
O3_2 Zn1 1_555 1_555
O3A_2 Zn1 1_555 1_555
O4A Zn2_2 1_555 1_555
O4A_2 Zn2 1_555 1_555
C1A C3 1_555 1_555
H1A C1A 1_555 1_555
C2A C1A 1_555 1_555
C3A C1 1_555 1_555
C4A O4A 1_555 1_555
C5A C2A 1_555 1_555
O5A Zn2 1_555 1_555
H2A O5A 1_555 1_555
H3A O5A 1_555 1_555
O6A Zn1 1_555 1_555
H4A O6A 1_555 1_555
H5A O6A 1_555 1_555
C3 C4 1_555 1_555
C2A C3A 1_555 1_555
C3A C4A 1_555 1_555

#END
