
#######################################################################
#
#                 Cambridge Crystallographic Data Centre
#                                CCDC 
#
#######################################################################
#
# If this CIF has been generated from an entry in the Cambridge 
# Structural Database, then it will include bibliographic, chemical, 
# crystal, experimental, refinement or atomic coordinate data resulting 
# from the CCDC's data processing and validation procedures.
#
#######################################################################

data_LIKFAN
_symmetry_cell_setting           triclinic
_symmetry_space_group_name_H-M   'P -1'
_symmetry_Int_Tables_number      2
_space_group_name_Hall           '-P 1'
loop_
_symmetry_equiv_pos_site_id
_symmetry_equiv_pos_as_xyz
1 x,y,z
2 -x,-y,-z
_cell_length_a                   9.7413(4)
_cell_length_b                   11.7000(4)
_cell_length_c                   12.4184(5)
_cell_angle_alpha                65.2070(10)
_cell_angle_beta                 70.1080(10)
_cell_angle_gamma                65.546(2)
_cell_volume                     1145.61
loop_
_atom_site_label
_atom_site_type_symbol
_atom_site_fract_x
_atom_site_fract_y
_atom_site_fract_z
Pb1 Pb 0.866377(18) 0.139315(15) 0.073115(14)
S1 S 0.42118(14) 0.50846(11) 0.22707(11)
S2 S 0.23169(14) 0.67506(11) 0.22500(11)
O1 O 0.6563(4) 0.2964(3) 0.1908(4)
O2 O 0.6506(4) 0.0951(4) 0.2410(4)
O3 O 0.0102(4) 1.0796(3) 0.2266(3)
O4 O 0.0158(4) 0.9102(3) 0.1883(3)
O5 O 0.9232(5) 0.3737(4) -0.0395(4)
O6 O 0.8146(5) -0.0666(4) 0.0427(3)
N1 N 0.8446(7) 0.5985(5) -0.1020(5)
N2 N 0.6653(6) -0.1797(5) 0.1962(4)
C1 C 0.5911(5) 0.2095(5) 0.2490(4)
C2 C 0.4374(5) 0.2438(4) 0.3314(4)
C3 C 0.3499(5) 0.3735(4) 0.3316(4)
C4 C 0.2106(6) 0.3949(5) 0.4120(5)
H1 H 0.1512 0.4810 0.4117
C5 C 0.1585(6) 0.2906(6) 0.4925(6)
H2 H 0.0657 0.3065 0.5474
C6 C 0.2427(6) 0.1627(5) 0.4924(5)
H3 H 0.2068 0.0924 0.5463
C7 C 0.3799(6) 0.1403(5) 0.4120(5)
H4 H 0.4361 0.0541 0.4110
C8 C 0.2311(5) 0.7288(4) 0.3404(4)
C9 C 0.3046(5) 0.6419(5) 0.4377(4)
H5 H 0.3553 0.5532 0.4433
C10 C 0.3030(6) 0.6857(5) 0.5250(5)
H6 H 0.3503 0.6261 0.5900
C11 C 0.2319(6) 0.8170(6) 0.5171(5)
H7 H 0.2329 0.8465 0.5756
C12 C 0.1589(6) 0.9049(5) 0.4220(4)
H8 H 0.1132 0.9940 0.4160
C13 C 0.1523(5) 0.8625(4) 0.3342(4)
C14 C 0.0555(5) 0.9573(4) 0.2430(4)
C15 C 0.8295(8) 0.4800(6) -0.0315(6)
H9 H 0.7407 0.4780 0.0283
C16 C 0.9770(11) 0.6115(8) -0.1974(7)
H10 H 1.0522 0.5254 -0.1921
H11 H 1.0206 0.6671 -0.1896
H12 H 0.9468 0.6507 -0.2743
C17 C 0.7280(11) 0.7200(7) -0.0835(8)
H13 H 0.6392 0.6995 -0.0264
H14 H 0.6992 0.7810 -0.1592
H15 H 0.7688 0.7596 -0.0528
C18 C 0.7969(7) -0.1619(6) 0.1357(5)
H16 H 0.8846 -0.2253 0.1639
C19 C 0.6601(11) -0.2988(10) 0.3001(7)
H17 H 0.7629 -0.3532 0.3115
H18 H 0.6127 -0.3474 0.2862
H19 H 0.6013 -0.2742 0.3712
C20 C 0.5221(8) -0.0850(9) 0.1645(9)
H20 H 0.5400 -0.0057 0.1033
H21 H 0.4528 -0.0640 0.2349
H22 H 0.4776 -0.1219 0.1340
Pb1_2 Pb -0.133623(18) 1.139315(15) 0.073115(14)
Pb1A Pb 1.133623(18) -0.139315(15) -0.073115(14)
O3_2 O 1.0102(4) 0.0796(3) 0.2266(3)
O4_2 O 1.0158(4) -0.0898(3) 0.1883(3)
O6A O 1.1854(5) 0.0666(4) -0.0427(3)
loop_
_geom_bond_atom_site_label_1
_geom_bond_atom_site_label_2
_geom_bond_site_symmetry_1
_geom_bond_site_symmetry_2
Pb1 O1 1_555 1_555
S1 S2 1_555 1_555
S2 C8 1_555 1_555
O1 C1 1_555 1_555
O2 Pb1 1_555 1_555
O3 C14 1_555 1_555
O4 C14 1_555 1_555
O5 Pb1 1_555 1_555
O6 Pb1 1_555 1_555
N1 C15 1_555 1_555
N2 C18 1_555 1_555
C1 O2 1_555 1_555
C2 C1 1_555 1_555
C3 S1 1_555 1_555
C4 C3 1_555 1_555
H1 C4 1_555 1_555
C5 C4 1_555 1_555
H2 C5 1_555 1_555
C6 C5 1_555 1_555
H3 C6 1_555 1_555
C7 C2 1_555 1_555
H4 C7 1_555 1_555
C8 C9 1_555 1_555
C9 H5 1_555 1_555
C10 C9 1_555 1_555
H6 C10 1_555 1_555
C11 C10 1_555 1_555
H7 C11 1_555 1_555
C12 C11 1_555 1_555
H8 C12 1_555 1_555
C13 C8 1_555 1_555
C14 C13 1_555 1_555
C15 O5 1_555 1_555
H9 C15 1_555 1_555
C16 N1 1_555 1_555
H10 C16 1_555 1_555
H11 C16 1_555 1_555
H12 C16 1_555 1_555
C17 N1 1_555 1_555
H13 C17 1_555 1_555
H14 C17 1_555 1_555
H15 C17 1_555 1_555
C18 O6 1_555 1_555
H16 C18 1_555 1_555
C19 N2 1_555 1_555
H17 C19 1_555 1_555
H18 C19 1_555 1_555
H19 C19 1_555 1_555
C20 N2 1_555 1_555
H20 C20 1_555 1_555
H21 C20 1_555 1_555
H22 C20 1_555 1_555
Pb1_2 O3 1_555 1_555
Pb1A O6 1_555 1_555
O3_2 Pb1 1_555 1_555
O4_2 Pb1 1_555 1_555
O6A Pb1 1_555 1_555
O4 Pb1_2 1_555 1_555
C2 C3 1_555 1_555
C6 C7 1_555 1_555
C12 C13 1_555 1_555
Pb1A O6A 1_555 1_555

#END
