
#######################################################################
#
#                 Cambridge Crystallographic Data Centre
#                                CCDC 
#
#######################################################################
#
# If this CIF has been generated from an entry in the Cambridge 
# Structural Database, then it will include bibliographic, chemical, 
# crystal, experimental, refinement or atomic coordinate data resulting 
# from the CCDC's data processing and validation procedures.
#
#######################################################################

data_LIKGES
_symmetry_cell_setting           orthorhombic
_symmetry_space_group_name_H-M   'P c a 21'
_symmetry_Int_Tables_number      29
_space_group_name_Hall           'P 2c -2ac'
loop_
_symmetry_equiv_pos_site_id
_symmetry_equiv_pos_as_xyz
1 x,y,z
2 -x,-y,1/2+z
3 1/2+x,-y,z
4 1/2-x,y,1/2+z
_cell_length_a                   18.712(4)
_cell_length_b                   16.926(3)
_cell_length_c                   24.627(5)
_cell_angle_alpha                90
_cell_angle_beta                 90
_cell_angle_gamma                90
_cell_volume                     7799.85
loop_
_atom_site_label
_atom_site_type_symbol
_atom_site_fract_x
_atom_site_fract_y
_atom_site_fract_z
Ag1 Ag 0.37350(4) 0.48258(5) -0.06989(3)
Ag2 Ag 0.38016(4) 0.47737(5) 0.42591(4)
N1 N 0.2949(4) 0.4920(5) -0.0072(4)
N2 N 0.3013(4) 0.4930(5) 0.3641(3)
N3 N 0.4546(4) 0.4931(5) -0.5111(3)
N4 N 0.4514(4) 0.4981(5) -0.1330(3)
C1 C 0.2646(7) 0.4283(6) 0.0155(5)
H1 H 0.2763 0.3786 0.0019
C2 C 0.2169(6) 0.4334(5) 0.0579(5)
H2 H 0.1976 0.3875 0.0727
C3 C 0.1979(4) 0.5053(5) 0.0784(4)
C4 C 0.2290(6) 0.5719(6) 0.0545(5)
H3 H 0.2180 0.6223 0.0669
C5 C 0.2747(6) 0.5619(5) 0.0137(5)
H4 H 0.2944 0.6071 -0.0017
C6 C 0.1516(4) 0.5135(5) 0.1272(4)
H5 H 0.1183 0.4696 0.1285
H6 H 0.1241 0.5619 0.1245
C7 C 0.1961(4) 0.5149(5) 0.1794(4)
H7 H 0.2244 0.4669 0.1810
H8 H 0.2292 0.5590 0.1774
C8 C 0.1540(4) 0.5219(5) 0.2316(4)
H9 H 0.1311 0.5733 0.2332
H10 H 0.1170 0.4818 0.2324
C9 C 0.2021(4) 0.5121(5) 0.2795(4)
C10 C 0.2120(5) 0.4408(5) 0.3065(5)
H11 H 0.1843 0.3976 0.2963
C11 C 0.2612(5) 0.4313(6) 0.3478(5)
H12 H 0.2667 0.3823 0.3643
C12 C 0.2923(4) 0.5623(5) 0.3391(5)
H13 H 0.3203 0.6048 0.3503
C13 C 0.2446(5) 0.5744(5) 0.2982(5)
H14 H 0.2402 0.6242 0.2827
C14 C 0.4831(6) 0.4329(7) -0.4864(6)
H15 H 0.4714 0.3832 -0.4999
C15 C 0.5293(6) 0.4345(6) -0.4419(5)
H16 H 0.5461 0.3887 -0.4254
C16 C 0.5484(4) 0.5094(6) -0.4240(4)
C17 C 0.5210(6) 0.5738(6) -0.4506(5)
H17 H 0.5335 0.6241 -0.4387
C18 C 0.4767(5) 0.5665(6) -0.4931(5)
H18 H 0.4607 0.6117 -0.5109
C19 C 0.5941(5) 0.5180(6) -0.3740(4)
H19 H 0.6185 0.5685 -0.3751
H20 H 0.6301 0.4768 -0.3737
C20 C 0.5501(4) 0.5129(5) -0.3226(5)
H21 H 0.5144 0.5545 -0.3232
H22 H 0.5250 0.4627 -0.3224
C21 C 0.5928(4) 0.5199(5) -0.2708(4)
H23 H 0.6287 0.4786 -0.2699
H24 H 0.6172 0.5704 -0.2703
C22 C 0.5466(4) 0.5133(4) -0.2222(4)
C23 C 0.5201(4) 0.5803(5) -0.1947(5)
H25 H 0.5338 0.6310 -0.2047
C24 C 0.4726(5) 0.5677(5) -0.1520(5)
H26 H 0.4540 0.6124 -0.1351
C25 C 0.4747(6) 0.4328(6) -0.1602(5)
H27 H 0.4578 0.3831 -0.1503
C26 C 0.5229(5) 0.4398(5) -0.2019(5)
H28 H 0.5407 0.3939 -0.2177
Ag2_2 Ag 0.38016(4) 0.47737(5) -0.57409(4)
N3_2 N 0.4546(4) 0.4931(5) 0.4889(3)
Ag3 Ag 0.25253(4) -0.03082(5) 0.27929(4)
N5 N 0.1696(4) -0.0136(5) 0.2188(4)
N6 N 0.1711(4) -0.0122(5) -0.1569(4)
C27 C 0.1548(5) 0.0575(6) 0.1995(5)
H29 H 0.1767 0.1009 0.2158
C28 C 0.1091(5) 0.0711(6) 0.1570(5)
H30 H 0.1015 0.1223 0.1446
C29 C 0.0744(4) 0.0087(6) 0.1325(4)
C30 C 0.0889(5) -0.0677(6) 0.1525(6)
H31 H 0.0668 -0.1114 0.1370
C31 C 0.1362(6) -0.0779(7) 0.1952(6)
H32 H 0.1455 -0.1284 0.2081
C32 C 0.0294(5) 0.0198(8) 0.0833(5)
H33 H 0.0076 0.0718 0.0843
H34 H -0.0086 -0.0191 0.0831
C33 C 0.0735(4) 0.0117(6) 0.0315(4)
H35 H 0.0964 -0.0397 0.0315
H36 H 0.1108 0.0515 0.0318
C34 C 0.0299(4) 0.0205(7) -0.0209(5)
H37 H -0.0085 -0.0180 -0.0213
H38 H 0.0087 0.0728 -0.0223
C35 C 0.0771(4) 0.0085(5) -0.0696(4)
C36 C 0.0909(5) -0.0657(5) -0.0914(4)
H39 H 0.0695 -0.1104 -0.0766
C37 C 0.1351(5) -0.0724(5) -0.1339(5)
H40 H 0.1416 -0.1225 -0.1486
C38 C 0.1580(6) 0.0600(6) -0.1371(6)
H41 H 0.1807 0.1035 -0.1525
C39 C 0.1117(6) 0.0711(6) -0.0946(5)
H42 H 0.1033 0.1222 -0.0822
Ag3C Ag 0.24747(4) -0.03082(5) -0.22071(4)
N6C N 0.3289(4) -0.0122(5) 0.3431(4)
Ag4 Ag 0.51977(4) 0.00450(7) 0.29807(4)
N7 N 0.5970(4) -0.0065(5) 0.3603(4)
N8 N 0.5575(3) 0.0006(5) 0.7342(3)
C40 C 0.6389(4) 0.0571(5) 0.3750(4)
H43 H 0.6374 0.1029 0.3541
C41 C 0.6819(4) 0.0547(4) 0.4186(4)
H44 H 0.7094 0.0987 0.4272
C42 C 0.6862(4) -0.0116(4) 0.4509(4)
C43 C 0.6462(5) -0.0780(4) 0.4333(5)
H45 H 0.6495 -0.1256 0.4520
C44 C 0.6039(5) -0.0720(5) 0.3897(5)
H46 H 0.5777 -0.1162 0.3793
C45 C 0.7270(4) -0.0129(5) 0.5034(4)
H47 H 0.7602 0.0310 0.5045
H48 H 0.7542 -0.0616 0.5061
C46 C 0.6749(5) -0.0070(5) 0.5510(4)
H49 H 0.6452 -0.0539 0.5518
H50 H 0.6439 0.0382 0.5455
C47 C 0.7132(4) 0.0015(7) 0.6059(4)
H51 H 0.7469 -0.0415 0.6103
H52 H 0.7398 0.0507 0.6064
C48 C 0.6605(4) 0.0007(6) 0.6526(4)
C49 C 0.6368(5) -0.0674(6) 0.6758(6)
H53 H 0.6565 -0.1151 0.6646
C50 C 0.5865(5) -0.0684(6) 0.7141(5)
H54 H 0.5706 -0.1167 0.7275
C51 C 0.5809(5) 0.0673(6) 0.7127(5)
H55 H 0.5631 0.1147 0.7261
C52 C 0.6310(5) 0.0700(5) 0.6708(5)
H56 H 0.6442 0.1181 0.6555
Ag4A Ag 0.48023(4) -0.00450(7) 0.79807(4)
N8A N 0.4425(3) -0.0006(5) 0.2342(3)
C53 C 0.6357(4) 0.2566(5) 0.9538(5)
C54 C 0.7168(3) 0.2482(4) 0.9598(4)
C55 C 0.7477(4) 0.2195(4) 1.0069(4)
H57 H 0.7187 0.2016 1.0351
C56 C 0.8217(4) 0.2172(4) 1.0128(4)
H58 H 0.8411 0.2006 1.0456
C57 C 0.8669(3) 0.2387(4) 0.9712(4)
C58 C 0.8372(3) 0.2631(4) 0.9227(4)
H59 H 0.8665 0.2760 0.8935
C59 C 0.7626(4) 0.2685(4) 0.9175(4)
H60 H 0.7433 0.2862 0.8849
C60 C 0.9469(4) 0.2369(5) 0.9787(4)
O1 O 0.6006(3) 0.2402(4) 0.9949(3)
O2 O 0.6127(3) 0.2796(4) 0.9093(4)
O3 O 0.9857(3) 0.2442(4) 0.9367(4)
O4 O 0.9695(3) 0.2278(5) 1.0260(3)
C61 C 0.0486(4) 0.2569(5) 0.2319(5)
C62 C 0.1290(3) 0.2612(4) 0.2387(4)
C63 C 0.1601(3) 0.2311(4) 0.2871(4)
H61 H 0.1315 0.2110 0.3147
C64 C 0.2352(3) 0.2321(4) 0.2926(4)
H62 H 0.2559 0.2147 0.3247
C65 C 0.2783(4) 0.2585(4) 0.2509(3)
C66 C 0.2472(4) 0.2894(4) 0.2047(4)
H63 H 0.2755 0.3097 0.1770
C67 C 0.1732(3) 0.2899(5) 0.1999(4)
H64 H 0.1530 0.3109 0.1686
C68 C 0.3601(4) 0.2564(4) 0.2559(4)
O5 O 0.0110(3) 0.2343(4) 0.2714(4)
O6 O 0.0257(3) 0.2784(6) 0.1854(4)
O7 O 0.3950(3) 0.2651(4) 0.2144(3)
O8 O 0.3852(3) 0.2436(4) 0.3024(3)
O9 O 1.0910(3) 0.2549(5) 1.0833(4)
O10 O 1.1138(3) 0.3082(4) 0.9085(3)
O11 O 0.4552(4) 0.2213(6) 1.0163(4)
O12 O 0.4767(3) 0.2429(3) 0.8807(3)
O13 O 0.7585(4) -0.2399(5) 0.4460(4)
O14 O 0.5386(4) 0.2936(7) 0.1927(4)
O15 O 0.5146(3) 0.1806(4) 0.3311(3)
O16 O 0.1230(4) 0.7383(5) 0.2814(4)
O17 O -0.1302(3) 0.2608(4) 0.2992(4)
O18 O 0.3623(4) 0.2515(6) 0.1015(4)
O19 O 0.3702(4) 0.3223(4) -0.0673(4)
O20 O 0.2547(5) -0.2450(7) 0.1533(5)
O21 O 0.6208(4) 0.2679(6) 0.1055(5)
O22 O 0.2302(4) 0.2010(5) 0.0562(5)
O23 O -0.0993(3) 0.2702(5) 0.1292(4)
O24 O 0.2519(3) -0.1839(3) 0.2627(4)
loop_
_geom_bond_atom_site_label_1
_geom_bond_atom_site_label_2
_geom_bond_site_symmetry_1
_geom_bond_site_symmetry_2
Ag1 N1 1_555 1_555
Ag2 N2 1_555 1_555
N1 C1 1_555 1_555
N2 C11 1_555 1_555
N3 C14 1_555 1_555
N4 Ag1 1_555 1_555
C1 H1 1_555 1_555
C2 C1 1_555 1_555
H2 C2 1_555 1_555
C3 C2 1_555 1_555
C4 C3 1_555 1_555
H3 C4 1_555 1_555
C5 N1 1_555 1_555
H4 C5 1_555 1_555
C6 C3 1_555 1_555
H5 C6 1_555 1_555
H6 C6 1_555 1_555
C7 C6 1_555 1_555
H7 C7 1_555 1_555
H8 C7 1_555 1_555
C8 C7 1_555 1_555
H9 C8 1_555 1_555
H10 C8 1_555 1_555
C9 C8 1_555 1_555
C10 C9 1_555 1_555
H11 C10 1_555 1_555
C11 C10 1_555 1_555
H12 C11 1_555 1_555
C12 N2 1_555 1_555
H13 C12 1_555 1_555
C13 C9 1_555 1_555
H14 C13 1_555 1_555
C14 H15 1_555 1_555
C15 C14 1_555 1_555
H16 C15 1_555 1_555
C16 C15 1_555 1_555
C17 C16 1_555 1_555
H17 C17 1_555 1_555
C18 N3 1_555 1_555
H18 C18 1_555 1_555
C19 C16 1_555 1_555
H19 C19 1_555 1_555
H20 C19 1_555 1_555
C20 C19 1_555 1_555
H21 C20 1_555 1_555
H22 C20 1_555 1_555
C21 C20 1_555 1_555
H23 C21 1_555 1_555
H24 C21 1_555 1_555
C22 C21 1_555 1_555
C23 C22 1_555 1_555
H25 C23 1_555 1_555
C24 N4 1_555 1_555
H26 C24 1_555 1_555
C25 N4 1_555 1_555
H27 C25 1_555 1_555
C26 C22 1_555 1_555
H28 C26 1_555 1_555
Ag3 N5 1_555 1_555
N5 C27 1_555 1_555
N6 C37 1_555 1_555
C27 H29 1_555 1_555
C28 C27 1_555 1_555
H30 C28 1_555 1_555
C29 C28 1_555 1_555
C30 C29 1_555 1_555
H31 C30 1_555 1_555
C31 N5 1_555 1_555
H32 C31 1_555 1_555
C32 C29 1_555 1_555
H33 C32 1_555 1_555
H34 C32 1_555 1_555
C33 C32 1_555 1_555
H35 C33 1_555 1_555
H36 C33 1_555 1_555
C34 C33 1_555 1_555
H37 C34 1_555 1_555
H38 C34 1_555 1_555
C35 C34 1_555 1_555
C36 C35 1_555 1_555
H39 C36 1_555 1_555
C37 C36 1_555 1_555
H40 C37 1_555 1_555
C38 N6 1_555 1_555
H41 C38 1_555 1_555
C39 C35 1_555 1_555
H42 C39 1_555 1_555
Ag4 N7 1_555 1_555
N7 C40 1_555 1_555
N8 C50 1_555 1_555
C40 H43 1_555 1_555
C41 C40 1_555 1_555
H44 C41 1_555 1_555
C42 C41 1_555 1_555
C43 C42 1_555 1_555
H45 C43 1_555 1_555
C44 N7 1_555 1_555
H46 C44 1_555 1_555
C45 C42 1_555 1_555
H47 C45 1_555 1_555
H48 C45 1_555 1_555
C46 C45 1_555 1_555
H49 C46 1_555 1_555
H50 C46 1_555 1_555
C47 C46 1_555 1_555
H51 C47 1_555 1_555
H52 C47 1_555 1_555
C48 C47 1_555 1_555
C49 C48 1_555 1_555
H53 C49 1_555 1_555
C50 C49 1_555 1_555
H54 C50 1_555 1_555
C51 N8 1_555 1_555
H55 C51 1_555 1_555
C52 C48 1_555 1_555
H56 C52 1_555 1_555
C53 C54 1_555 1_555
C54 C55 1_555 1_555
C55 H57 1_555 1_555
C56 C55 1_555 1_555
H58 C56 1_555 1_555
C57 C56 1_555 1_555
C58 C57 1_555 1_555
H59 C58 1_555 1_555
C59 C54 1_555 1_555
H60 C59 1_555 1_555
C60 C57 1_555 1_555
O1 C53 1_555 1_555
O2 C53 1_555 1_555
O3 C60 1_555 1_555
O4 C60 1_555 1_555
C61 C62 1_555 1_555
C62 C63 1_555 1_555
C63 H61 1_555 1_555
C64 C63 1_555 1_555
H62 C64 1_555 1_555
C65 C64 1_555 1_555
C66 C65 1_555 1_555
H63 C66 1_555 1_555
C67 C62 1_555 1_555
H64 C67 1_555 1_555
C68 C65 1_555 1_555
O5 C61 1_555 1_555
O6 C61 1_555 1_555
O7 C68 1_555 1_555
O8 C68 1_555 1_555
Ag2_2 N3 1_555 1_555
N3_2 Ag2 1_555 1_555
Ag3C N6 1_555 1_555
N6C Ag3 1_555 1_555
Ag4A N8 1_555 1_555
N8A Ag4 1_555 1_555
C4 C5 1_555 1_555
C12 C13 1_555 1_555
C17 C18 1_555 1_555
C23 C24 1_555 1_555
C25 C26 1_555 1_555
C30 C31 1_555 1_555
C38 C39 1_555 1_555
C43 C44 1_555 1_555
C51 C52 1_555 1_555
C58 C59 1_555 1_555
C66 C67 1_555 1_555

#END
