
#######################################################################
#
#                 Cambridge Crystallographic Data Centre
#                                CCDC 
#
#######################################################################
#
# If this CIF has been generated from an entry in the Cambridge 
# Structural Database, then it will include bibliographic, chemical, 
# crystal, experimental, refinement or atomic coordinate data resulting 
# from the CCDC's data processing and validation procedures.
#
#######################################################################

data_LIKKAT
_symmetry_cell_setting           triclinic
_symmetry_space_group_name_H-M   'P -1'
_symmetry_Int_Tables_number      2
_space_group_name_Hall           '-P 1'
loop_
_symmetry_equiv_pos_site_id
_symmetry_equiv_pos_as_xyz
1 x,y,z
2 -x,-y,-z
_cell_length_a                   7.2121(6)
_cell_length_b                   7.6842(6)
_cell_length_c                   7.8868(6)
_cell_angle_alpha                85.874(7)
_cell_angle_beta                 84.457(7)
_cell_angle_gamma                86.231(7)
_cell_volume                     433.148
loop_
_atom_site_label
_atom_site_type_symbol
_atom_site_fract_x
_atom_site_fract_y
_atom_site_fract_z
N1 N 0.6264(2) 0.33677(18) 0.21026(18)
N2 N 0.8451(2) -0.17635(17) 0.00756(17)
N3 N 0.71791(17) 0.09799(16) 0.10407(16)
N4 N 0.77538(19) -0.13802(17) -0.25545(17)
N5 N 0.71062(19) 0.00918(16) -0.18026(17)
N6 N 0.6850(2) 0.22653(19) 0.34037(18)
C1 C 0.7572(2) -0.02237(18) -0.02276(19)
C2 C 0.7408(2) 0.0799(2) 0.2713(2)
N7 N 0.8540(2) -0.24732(17) -0.14460(18)
N8 N 0.6453(2) 0.26227(17) 0.06758(18)
K1 K 0.60973(5) 0.35551(4) 0.68388(4)
O1 O 0.96989(16) 0.40737(17) 0.74918(16)
O2 O 0.29060(18) 0.34635(17) 0.53144(16)
H1 H 0.197(3) 0.377(3) 0.583(3)
H2 H 0.952(3) 0.510(3) 0.791(3)
H3 H 0.788(3) -0.028(3) 0.330(3)
H4 H 0.272(3) 0.273(3) 0.463(3)
H5 H 1.015(3) 0.349(3) 0.829(3)
N1A N 0.3736(2) 0.66323(18) 0.78974(18)
N5_2 N 0.71062(19) 0.00918(16) 0.81974(17)
N8_2 N 0.6453(2) 0.26227(17) 1.06758(18)
K1_2 K 0.60973(5) 0.35551(4) -0.31612(4)
K1A K 0.39027(5) 0.64449(4) 0.31612(4)
O2A O 0.70940(18) 0.65365(17) 0.46856(16)
loop_
_geom_bond_atom_site_label_1
_geom_bond_atom_site_label_2
_geom_bond_site_symmetry_1
_geom_bond_site_symmetry_2
N1 N6 1_555 1_555
N2 C1 1_555 1_555
N3 C1 1_555 1_555
N4 N5 1_555 1_555
N5 C1 1_555 1_555
N6 C2 1_555 1_555
C2 N3 1_555 1_555
N7 N2 1_555 1_555
N8 N1 1_555 1_555
K1 N6 1_555 1_555
O1 K1 1_555 1_555
O2 K1 1_555 1_555
H1 O2 1_555 1_555
H2 O1 1_555 1_555
H3 C2 1_555 1_555
H4 O2 1_555 1_555
H5 O1 1_555 1_555
N1A K1 1_555 1_555
N5_2 K1 1_555 1_555
N8_2 K1 1_555 1_555
K1_2 N5 1_555 1_555
K1A N1 1_555 1_555
O2A K1 1_555 1_555
N3 N8 1_555 1_555
N4 N7 1_555 1_555
N8 K1_2 1_555 1_555
O2 K1A 1_555 1_555
K1A O2A 1_555 1_555

#END
