
#######################################################################
#
#                 Cambridge Crystallographic Data Centre
#                                CCDC 
#
#######################################################################
#
# If this CIF has been generated from an entry in the Cambridge 
# Structural Database, then it will include bibliographic, chemical, 
# crystal, experimental, refinement or atomic coordinate data resulting 
# from the CCDC's data processing and validation procedures.
#
#######################################################################

data_LIKKEX
_symmetry_cell_setting           orthorhombic
_symmetry_space_group_name_H-M   'P n a 21'
_symmetry_Int_Tables_number      33
_space_group_name_Hall           'P 2c -2n'
loop_
_symmetry_equiv_pos_site_id
_symmetry_equiv_pos_as_xyz
1 x,y,z
2 -x,-y,1/2+z
3 1/2-x,1/2+y,1/2+z
4 1/2+x,1/2-y,z
_cell_length_a                   6.89060(10)
_cell_length_b                   10.5373(2)
_cell_length_c                   21.1159(4)
_cell_angle_alpha                90
_cell_angle_beta                 90
_cell_angle_gamma                90
_cell_volume                     1533.19
loop_
_atom_site_label
_atom_site_type_symbol
_atom_site_fract_x
_atom_site_fract_y
_atom_site_fract_z
Cu1 Cu 0.85454(4) -0.36996(3) 1.17460(2)
Cl1 Cl 0.73410(9) -0.16897(6) 1.15957(3)
Cl2 Cl 0.80318(11) -0.57858(6) 1.19168(3)
N1 N 0.8924(4) -0.2328(2) 1.35595(14)
N2 N 0.7792(3) -0.4333(2) 0.86853(12)
N3 N 0.7933(4) -0.3949(2) 0.98032(13)
N4 N 0.6574(4) -0.4925(2) 1.43819(12)
N5 N 0.6762(4) -0.3818(2) 1.52193(15)
N6 N 0.6853(4) -0.3685(2) 0.82407(14)
N7 N 0.8735(3) -0.3431(2) 1.26925(14)
N8 N 0.8216(4) -0.3502(2) 1.36887(13)
N9 N 0.8422(3) -0.3997(2) 1.08043(14)
N10 N 0.6097(4) -0.4904(2) 1.49909(15)
N11 N 0.9196(4) -0.5060(2) 1.05257(13)
C1 C 0.7509(4) -0.3829(3) 1.4291(2)
N12 N 0.5886(3) -0.2687(2) 0.84587(14)
N13 N 0.6173(3) -0.2654(2) 0.90758(13)
N14 N 0.9237(4) -0.2294(2) 1.29644(12)
N15 N 0.7675(3) -0.3103(2) 1.47978(12)
C2 C 0.7663(4) -0.3331(3) 1.03451(15)
C3 C 0.6554(5) -0.3473(3) 1.58834(18)
H1 H 0.5447 -0.3928 1.6066
H2 H 0.6335 -0.2556 1.5918
H3 H 0.7739 -0.3701 1.6113
C4 C 0.8122(4) -0.4156(3) 1.31493(15)
C5 C 0.6950(5) -0.4004(3) 0.75715(15)
H4 H 0.5997 -0.3498 0.7337
H5 H 0.6664 -0.4908 0.7515
H6 H 0.8255 -0.3821 0.7411
C6 C 0.7316(4) -0.3648(3) 0.9190(2)
N16 N 0.8896(4) -0.5043(2) 0.99281(15)
H7 H 0.768(5) -0.492(3) 1.3128(17)
H8 H 0.716(5) -0.253(3) 1.0349(18)
Cu1C Cu 0.35454(4) -0.13004(3) 1.17460(2)
Cl1C Cl 1.23410(9) -0.33103(6) 1.15957(3)
loop_
_geom_bond_atom_site_label_1
_geom_bond_atom_site_label_2
_geom_bond_site_symmetry_1
_geom_bond_site_symmetry_2
Cu1 Cl1 1_555 1_555
Cl1 Cu1C 1_555 1_555
Cl2 Cu1 1_555 1_555
N1 N8 1_555 1_555
N2 N6 1_555 1_555
N3 C2 1_555 1_555
N4 N10 1_555 1_555
N5 N10 1_555 1_555
N6 N12 1_555 1_555
N7 Cu1 1_555 1_555
N8 C1 1_555 1_555
N9 Cu1 1_555 1_555
N11 N9 1_555 1_555
C1 N4 1_555 1_555
N12 N13 1_555 1_555
N13 C6 1_555 1_555
N14 N1 1_555 1_555
N15 N5 1_555 1_555
C2 N9 1_555 1_555
C3 N5 1_555 1_555
H1 C3 1_555 1_555
H2 C3 1_555 1_555
H3 C3 1_555 1_555
C4 N7 1_555 1_555
C5 N6 1_555 1_555
H4 C5 1_555 1_555
H5 C5 1_555 1_555
H6 C5 1_555 1_555
C6 N2 1_555 1_555
N16 N3 1_555 1_555
H7 C4 1_555 1_555
H8 C2 1_555 1_555
Cl1C Cu1 1_555 1_555
N3 C6 1_555 1_555
N7 N14 1_555 1_555
N8 C4 1_555 1_555
N11 N16 1_555 1_555
C1 N15 1_555 1_555

#END
