
#######################################################################
#
#                 Cambridge Crystallographic Data Centre
#                                CCDC 
#
#######################################################################
#
# If this CIF has been generated from an entry in the Cambridge 
# Structural Database, then it will include bibliographic, chemical, 
# crystal, experimental, refinement or atomic coordinate data resulting 
# from the CCDC's data processing and validation procedures.
#
#######################################################################

data_LIKNIE
_symmetry_cell_setting           monoclinic
_symmetry_space_group_name_H-M   'P 21/c'
_symmetry_Int_Tables_number      14
_space_group_name_Hall           '-P 2ybc'
loop_
_symmetry_equiv_pos_site_id
_symmetry_equiv_pos_as_xyz
1 x,y,z
2 -x,1/2+y,1/2-z
3 -x,-y,-z
4 x,1/2-y,1/2+z
_cell_length_a                   7.6330(9)
_cell_length_b                   22.831(3)
_cell_length_c                   12.5639(12)
_cell_angle_alpha                90
_cell_angle_beta                 124.061(5)
_cell_angle_gamma                90
_cell_volume                     1813.87
loop_
_atom_site_label
_atom_site_type_symbol
_atom_site_fract_x
_atom_site_fract_y
_atom_site_fract_z
Cd1 Cd 0.36956(3) 0.843899(8) -0.193155(17)
O1 O 0.6153(3) 0.91537(8) -0.05618(16)
O2 O 0.6185(3) 0.83260(8) 0.03348(18)
O3 O 0.8671(3) 1.12550(10) 0.07663(19)
O4 O 0.9262(3) 1.10201(9) 0.26378(18)
O5 O 1.2531(3) 1.02772(8) 0.31654(17)
O6 O 1.2991(3) 0.87236(9) 0.61330(17)
O7 O 1.2302(4) 0.79265(9) 0.49319(19)
O8 O 0.6287(3) 0.78677(10) -0.1826(2)
H1 H 0.7470 0.7896 -0.1106
H2 H 0.6502 0.7850 -0.2412
O9 O 0.1932(3) 0.75913(9) -0.21460(19)
H3 H 0.2130 0.7417 -0.1493
H4 H 0.1661 0.7351 -0.2721
C1 C 0.6947(4) 0.88223(12) 0.0408(2)
C2 C 0.8871(4) 0.90230(11) 0.1675(2)
C3 C 0.9758(4) 0.95718(12) 0.1765(2)
H5 H 0.9183 0.9813 0.1048
C4 C 1.1515(4) 0.97515(11) 0.2944(2)
C5 C 1.2364(4) 0.93926(11) 0.4014(2)
H6 H 1.3537 0.9516 0.4799
C6 C 1.1471(4) 0.88507(11) 0.3917(2)
C7 C 0.9731(4) 0.86674(12) 0.2740(2)
H7 H 0.9142 0.8301 0.2669
C8 C 1.1710(4) 1.06869(12) 0.2145(3)
H8 H 1.1400 1.0482 0.1381
H9 H 1.2799 1.0974 0.2363
C9 C 0.9724(4) 1.10100(12) 0.1823(3)
C10 C 1.2332(4) 0.84704(12) 0.5091(2)
Cd1_2 Cd 1.36956(3) 0.843899(8) 0.806845(17)
Cd1B Cd 0.63044(3) 1.156101(8) 0.193155(17)
O4B O 0.0738(3) 0.89799(9) -0.26378(18)
O6_2 O 0.2991(3) 0.87236(9) -0.38670(17)
N1 N 0.4151(4) 0.96021(12) 0.1141(2)
N2 N 0.7572(4) 0.88886(13) 0.4708(2)
H10 H 0.8301 0.8740 0.5472
C11 C 0.5282(5) 0.93762(13) 0.2305(3)
C12 C 0.6807(5) 0.97067(14) 0.3373(3)
H11 H 0.7047 1.0097 0.3280
C13 C 0.7910(5) 0.94476(16) 0.4533(3)
H12 H 0.8943 0.9663 0.5239
C14 C 0.6161(5) 0.85641(15) 0.3724(3)
H13 H 0.5953 0.8177 0.3861
C15 C 0.5020(5) 0.87861(14) 0.2528(3)
H14 H 0.4052 0.8550 0.1843
H15 H 0.4385 0.9966 0.1044
H16 H 0.3354 0.9367 0.0551
O10 O 0.0457(3) 0.79048(10) 0.0480(2)
H17 H 0.1122 0.7646 0.0348
H18 H 0.0620 0.8229 0.0205
O11 O 0.7361(4) 0.71615(10) 0.1371(2)
H19 H 0.6707 0.7475 0.0991
H20 H 0.8680 0.7224 0.1752
loop_
_geom_bond_atom_site_label_1
_geom_bond_atom_site_label_2
_geom_bond_site_symmetry_1
_geom_bond_site_symmetry_2
Cd1 O1 1_555 1_555
O1 C1 1_555 1_555
O2 Cd1 1_555 1_555
O3 C9 1_555 1_555
O4 C9 1_555 1_555
O5 C4 1_555 1_555
O6 C10 1_555 1_555
O7 C10 1_555 1_555
O8 Cd1 1_555 1_555
H1 O8 1_555 1_555
H2 O8 1_555 1_555
O9 Cd1 1_555 1_555
H3 O9 1_555 1_555
H4 O9 1_555 1_555
C1 O2 1_555 1_555
C2 C1 1_555 1_555
C3 C2 1_555 1_555
H5 C3 1_555 1_555
C4 C3 1_555 1_555
C5 C4 1_555 1_555
H6 C5 1_555 1_555
C6 C5 1_555 1_555
C7 C2 1_555 1_555
H7 C7 1_555 1_555
C8 O5 1_555 1_555
H8 C8 1_555 1_555
H9 C8 1_555 1_555
C9 C8 1_555 1_555
C10 C6 1_555 1_555
N1 C11 1_555 1_555
N2 H10 1_555 1_555
C11 C12 1_555 1_555
C12 H11 1_555 1_555
C13 N2 1_555 1_555
H12 C13 1_555 1_555
C14 N2 1_555 1_555
H13 C14 1_555 1_555
C15 C11 1_555 1_555
H14 C15 1_555 1_555
H15 N1 1_555 1_555
H16 N1 1_555 1_555
O10 H17 1_555 1_555
H18 O10 1_555 1_555
O11 H19 1_555 1_555
H20 O11 1_555 1_555
Cd1_2 O6 1_555 1_555
Cd1B O4 1_555 1_555
O4B Cd1 1_555 1_555
O6_2 Cd1 1_555 1_555
C6 C7 1_555 1_555
C12 C13 1_555 1_555
C14 C15 1_555 1_555

#END
