
#######################################################################
#
#                 Cambridge Crystallographic Data Centre
#                                CCDC 
#
#######################################################################
#
# If this CIF has been generated from an entry in the Cambridge 
# Structural Database, then it will include bibliographic, chemical, 
# crystal, experimental, refinement or atomic coordinate data resulting 
# from the CCDC's data processing and validation procedures.
#
#######################################################################

data_LIKNOK
_symmetry_cell_setting           triclinic
_symmetry_space_group_name_H-M   'P -1'
_symmetry_Int_Tables_number      2
_space_group_name_Hall           '-P 1'
loop_
_symmetry_equiv_pos_site_id
_symmetry_equiv_pos_as_xyz
1 x,y,z
2 -x,-y,-z
_cell_length_a                   7.2610(15)
_cell_length_b                   7.5835(15)
_cell_length_c                   8.5751(17)
_cell_angle_alpha                68.38(3)
_cell_angle_beta                 89.07(3)
_cell_angle_gamma                63.66(3)
_cell_volume                     387.192
loop_
_atom_site_label
_atom_site_type_symbol
_atom_site_fract_x
_atom_site_fract_y
_atom_site_fract_z
O1 O 0.31476(15) 0.19235(16) 0.41828(13)
O2 O -0.04302(15) 1.06450(16) -0.29666(13)
H1 H -0.0066 1.1326 -0.3779
N1 N -0.12574(16) 0.83399(17) -0.01238(13)
O3 O 0.30113(16) 0.84618(17) -0.21398(14)
O4 O -0.02499(16) 0.33302(17) 0.43139(13)
N2 N -0.11472(16) 0.68180(16) 0.13403(13)
C1 C 0.08191(17) 0.51952(18) 0.19965(15)
C2 C 0.20777(18) 0.56837(19) 0.08850(15)
H2 H 0.3512 0.4884 0.0977
C3 C 0.07157(18) 0.76495(18) -0.04109(14)
C4 C 0.12037(19) 0.8962(2) -0.19328(15)
C5 C 0.12709(19) 0.33371(19) 0.36231(15)
Li1 Li 0.4462(4) -0.0115(4) 0.6522(3)
O5 O 0.50246(15) 0.15574(18) 0.75835(14)
H3 H -0.225(4) 0.700(4) 0.173(3)
H4 H 0.531(5) 0.254(4) 0.683(4)
H5 H 0.630(5) 0.063(5) 0.832(4)
O1A O 0.68524(15) -0.19235(16) 0.58172(13)
O3_2 O 0.30113(16) -0.15382(17) 0.78602(14)
Li1_2 Li 0.4462(4) 0.9885(4) -0.3478(3)
Li1A Li 0.5538(4) 0.0115(4) 0.3478(3)
O6 O 0.4576(4) 0.5520(4) 0.5472(4)
H6 H 0.328(4) 0.602(6) 0.559(9)
H7 H 0.508(15) 0.57(3) 0.624(19)
loop_
_geom_bond_atom_site_label_1
_geom_bond_atom_site_label_2
_geom_bond_site_symmetry_1
_geom_bond_site_symmetry_2
O1 C5 1_555 1_555
O2 H1 1_555 1_555
N1 N2 1_555 1_555
O3 C4 1_555 1_555
O4 C5 1_555 1_555
N2 C1 1_555 1_555
C1 C2 1_555 1_555
C2 H2 1_555 1_555
C3 N1 1_555 1_555
C4 O2 1_555 1_555
C5 C1 1_555 1_555
Li1 O1 1_555 1_555
O5 Li1 1_555 1_555
H3 N2 1_555 1_555
H4 O5 1_555 1_555
H5 O5 1_555 1_555
O6 H6 1_555 1_555
H7 O6 1_555 1_555
O1A Li1 1_555 1_555
O3_2 Li1 1_555 1_555
Li1_2 O3 1_555 1_555
Li1A O1 1_555 1_555
C2 C3 1_555 1_555
C3 C4 1_555 1_555
O1A Li1A 1_555 1_555

#END
