
#######################################################################
#
#                 Cambridge Crystallographic Data Centre
#                                CCDC 
#
#######################################################################
#
# If this CIF has been generated from an entry in the Cambridge 
# Structural Database, then it will include bibliographic, chemical, 
# crystal, experimental, refinement or atomic coordinate data resulting 
# from the CCDC's data processing and validation procedures.
#
#######################################################################

data_LIKQUS
_symmetry_cell_setting           orthorhombic
_symmetry_space_group_name_H-M   'F d d 2'
_symmetry_Int_Tables_number      43
_space_group_name_Hall           'F 2 -2d'
loop_
_symmetry_equiv_pos_site_id
_symmetry_equiv_pos_as_xyz
1 x,y,z
2 -x,-y,z
3 1/4-x,1/4+y,1/4+z
4 1/4+x,1/4-y,1/4+z
5 x,1/2+y,1/2+z
6 -x,1/2-y,1/2+z
7 1/4-x,3/4+y,3/4+z
8 1/4+x,3/4-y,3/4+z
9 1/2+x,y,1/2+z
10 1/2-x,-y,1/2+z
11 3/4-x,1/4+y,3/4+z
12 3/4+x,1/4-y,3/4+z
13 1/2+x,1/2+y,z
14 1/2-x,1/2-y,z
15 3/4-x,3/4+y,1/4+z
16 3/4+x,3/4-y,1/4+z
_cell_length_a                   38.937(3)
_cell_length_b                   48.000(4)
_cell_length_c                   9.5196(7)
_cell_angle_alpha                90
_cell_angle_beta                 90
_cell_angle_gamma                90
_cell_volume                     17791.9
loop_
_atom_site_label
_atom_site_type_symbol
_atom_site_fract_x
_atom_site_fract_y
_atom_site_fract_z
C1 C 0.84985(14) 0.05401(11) 0.3158(5)
C2 C 0.82037(14) 0.04907(11) 0.3944(6)
H1 H 0.7991 0.0532 0.355
C3 C 0.83761(15) 0.10036(12) -0.2480(7)
H2 H 0.8165 0.1051 -0.2871
C4 C 0.82157(15) 0.03843(12) 0.5270(6)
H3 H 0.8012 0.035 0.575
C5 C 0.83856(14) 0.08999(11) -0.1161(6)
H4 H 0.8183 0.0879 -0.0656
C6 C 0.85325(15) 0.03259(11) 0.5928(6)
C7 C 0.86975(14) 0.08233(11) -0.0553(6)
C8 C 0.88344(15) 0.03864(12) 0.5143(6)
H5 H 0.9049 0.0354 0.5544
C9 C 0.89933(13) 0.08603(11) -0.1386(7)
H6 H 0.9207 0.0812 -0.1027
C10 C 0.88151(14) 0.04904(11) 0.3820(6)
H7 H 0.9017 0.053 0.3338
C11 C 0.89700(15) 0.09665(12) -0.2710(6)
H8 H 0.9168 0.0988 -0.3248
C12 C 0.87340(15) 0.07096(12) 0.0846(6)
H9 H 0.8955 0.0672 0.1164
C13 C 0.84691(14) 0.06531(11) 0.1729(6)
H10 H 0.8249 0.0689 0.1399
C42 C 0.82411(17) 0.01413(16) 0.7998(7)
H32 H 0.8122 0.0309 0.825
H33 H 0.8298 0.0039 0.8834
H34 H 0.8096 0.0029 0.7409
C43 C 0.88748(15) 0.01599(14) 0.7945(6)
H35 H 0.9052 0.0136 0.7254
H36 H 0.8857 -0.0005 0.8508
H37 H 0.8931 0.0316 0.8536
C44 C 0.86425(17) 0.11520(13) -0.4711(6)
H38 H 0.8569 0.1007 -0.5336
H39 H 0.8864 0.1219 -0.4999
H40 H 0.848 0.1302 -0.4737
N1 N 0.86654(13) 0.10397(10) -0.3245(5)
N2 N 0.85515(13) 0.02107(11) 0.7252(5)
C14 C 0.88566(15) -0.07006(11) 0.9335(6)
C15 C 0.85392(14) -0.07728(12) 0.9902(6)
H11 H 0.8343 -0.0753 0.9352
C16 C 0.85202(16) -0.02622(12) 0.3359(6)
H12 H 0.8339 -0.0238 0.2734
C17 C 0.85068(14) -0.08725(12) 1.1258(6)
H13 H 0.829 -0.0911 1.1616
C18 C 0.84546(16) -0.03714(12) 0.4659(6)
H14 H 0.8231 -0.0416 0.4923
C19 C 0.87994(15) -0.09158(12) 1.2104(6)
C20 C 0.87292(15) -0.04158(12) 0.5593(6)
C21 C 0.91204(14) -0.08476(11) 1.1528(6)
H15 H 0.9318 -0.0874 1.2058
C22 C 0.90539(15) -0.03336(12) 0.5139(6)
H16 H 0.9241 -0.0355 0.5738
C23 C 0.91450(14) -0.07423(11) 1.0191(6)
H17 H 0.9361 -0.0697 0.9841
C24 C 0.91043(15) -0.02224(12) 0.3835(7)
H18 H 0.9324 -0.017 0.3554
C25 C 0.89085(16) -0.05891(12) 0.7918(7)
H19 H 0.9133 -0.0548 0.7658
C26 C 0.86633(16) -0.05400(12) 0.6960(6)
H20 H 0.8438 -0.0588 0.7182
C45 C 0.84383(16) -0.10949(15) 1.4028(7)
H41 H 0.8296 -0.0932 1.4057
H42 H 0.847 -0.1165 1.4963
H43 H 0.833 -0.1235 1.3461
C46 C 0.90774(16) -0.10788(13) 1.4273(6)
H44 H 0.9223 -0.1208 1.3787
H45 H 0.9011 -0.1156 1.5163
H46 H 0.9199 -0.0908 1.4422
C47 C 0.88908(18) -0.00728(14) 0.1530(6)
H47 H 0.8889 0.0127 0.1574
H48 H 0.871 -0.0135 0.0921
H49 H 0.9108 -0.0135 0.1171
N3 N 0.88374(13) -0.01888(10) 0.2961(5)
N4 N 0.87685(12) -0.10244(11) 1.3427(5)
C27 C 0.99678(16) 0.12275(13) 0.3449(7)
C28 C 0.96379(15) 0.11878(13) 0.4295(6)
C29 C 1.00578(14) 0.04839(12) 0.6283(7)
C30 C 0.97555(15) 0.02889(13) 0.5796(7)
C31 C 1.01077(15) 0.03439(12) 1.1391(7)
C32 C 0.97519(15) 0.04529(12) 1.0892(7)
O1 O 0.94798(11) 0.13918(9) 0.4728(5)
O2 O 1.00951(12) 0.14625(9) 0.3310(5)
O3 O 1.00971(11) 0.10030(9) 0.2904(5)
O4 O 0.95403(10) 0.09323(9) 0.4490(4)
O5 O 0.96496(10) 0.03248(8) 0.4541(5)
O6 O 1.01485(10) 0.06697(8) 0.5415(5)
O7 O 1.01840(11) 0.04431(9) 0.7442(4)
O8 O 0.96482(10) 0.01149(8) 0.6634(4)
O9 O 0.96015(10) 0.06172(9) 1.1808(5)
O10 O 1.02023(10) 0.04051(9) 1.2625(5)
O11 O 0.96358(11) 0.03812(9) 0.9771(5)
O12 O 1.02806(10) 0.02066(8) 1.0527(4)
Rh1 Rh 0.987068(11) 0.065861(9) 0.36170(5)
Mn1 Mn 1.00000 0.00000 0.85973(17)
C27A C 1.00322(16) -0.12275(13) 0.3449(7)
C28A C 1.03621(15) -0.11878(13) 0.4295(6)
C29A C 0.99422(14) -0.04839(12) 0.6283(7)
C30A C 1.02445(15) -0.02889(13) 0.5796(7)
C31A C 0.98923(15) -0.03439(12) 1.1391(7)
C32A C 1.02481(15) -0.04529(12) 1.0892(7)
O1A O 1.05202(11) -0.13918(9) 0.4728(5)
O2A O 0.99049(12) -0.14625(9) 0.3310(5)
O3A O 0.99029(11) -0.10030(9) 0.2904(5)
O4A O 1.04597(10) -0.09323(9) 0.4490(4)
O5A O 1.03504(10) -0.03248(8) 0.4541(5)
O6A O 0.98515(10) -0.06697(8) 0.5415(5)
O7A O 0.98160(11) -0.04431(9) 0.7442(4)
O8A O 1.03518(10) -0.01149(8) 0.6634(4)
O9A O 1.03985(10) -0.06172(9) 1.1808(5)
O9_2 O 0.96015(10) 0.06172(9) 0.1808(5)
O9A_2 O 1.03985(10) -0.06172(9) 0.1808(5)
O10A O 0.97977(10) -0.04051(9) 1.2625(5)
O10_2 O 1.02023(10) 0.04051(9) 0.2625(5)
O10A_2 O 0.97977(10) -0.04051(9) 0.2625(5)
O11A O 1.03642(11) -0.03812(9) 0.9771(5)
O12A O 0.97194(10) -0.02066(8) 1.0527(4)
Rh1A Rh 1.012932(11) -0.065861(9) 0.36170(5)
Rh1_2 Rh 0.987068(11) 0.065861(9) 1.36170(5)
Rh1A_2 Rh 1.012932(11) -0.065861(9) 1.36170(5)
C33 C 0.77227(18) -0.00102(17) 0.1779(9)
H21 H 0.7719 0.0057 0.2696
C34 C 0.76747(16) -0.03042(15) 0.1593(7)
C35 C 0.76865(16) -0.04350(14) 0.0270(8)
H22 H 0.7742 -0.0329 -0.0515
C36 C 0.76202(16) -0.07100(16) 0.0097(7)
H23 H 0.7628 -0.0788 -0.0797
C37 C 0.75387(15) -0.08831(15) 0.1285(8)
C38 C 0.75450(17) -0.07573(15) 0.2630(7)
H24 H 0.7506 -0.0865 0.3428
C39 C 0.76096(16) -0.04733(16) 0.2760(7)
H25 H 0.7609 -0.0394 0.365
C40 C 0.7476(2) -0.13436(17) 0.2331(9)
H26 H 0.7701 -0.1326 0.2738
H27 H 0.7441 -0.1532 0.203
H28 H 0.7306 -0.1295 0.3017
C41 C 0.7426(3) -0.1283(2) -0.0231(9)
H29 H 0.7314 -0.1157 -0.0869
H30 H 0.7296 -0.1452 -0.0166
H31 H 0.7653 -0.1324 -0.0568
N5 N 0.74480(15) -0.11568(11) 0.1123(7)
O14 O 0.77676(15) 0.01590(10) 0.0850(6)
O13 O 0.72331(13) 0.05318(10) 0.1665(5)
loop_
_geom_bond_atom_site_label_1
_geom_bond_atom_site_label_2
_geom_bond_site_symmetry_1
_geom_bond_site_symmetry_2
C1 C2 1_555 1_555
C2 H1 1_555 1_555
C3 H2 1_555 1_555
C4 C2 1_555 1_555
H3 C4 1_555 1_555
C5 C3 1_555 1_555
H4 C5 1_555 1_555
C6 C4 1_555 1_555
C7 C5 1_555 1_555
C8 C6 1_555 1_555
H5 C8 1_555 1_555
C9 C7 1_555 1_555
H6 C9 1_555 1_555
C10 C1 1_555 1_555
H7 C10 1_555 1_555
C11 C9 1_555 1_555
H8 C11 1_555 1_555
C12 C7 1_555 1_555
H9 C12 1_555 1_555
C13 C1 1_555 1_555
H10 C13 1_555 1_555
C14 C15 1_555 1_555
C15 H11 1_555 1_555
C16 H12 1_555 1_555
C17 C15 1_555 1_555
H13 C17 1_555 1_555
C18 C16 1_555 1_555
H14 C18 1_555 1_555
C19 C17 1_555 1_555
C20 C18 1_555 1_555
C21 C19 1_555 1_555
H15 C21 1_555 1_555
C22 C20 1_555 1_555
H16 C22 1_555 1_555
C23 C14 1_555 1_555
H17 C23 1_555 1_555
C24 C22 1_555 1_555
H18 C24 1_555 1_555
C25 C14 1_555 1_555
H19 C25 1_555 1_555
C26 C20 1_555 1_555
H20 C26 1_555 1_555
C27 C28 1_555 1_555
C28 O1 1_555 1_555
C29 C30 1_555 1_555
C30 O5 1_555 1_555
C31 C32 1_555 1_555
C32 O9 1_555 1_555
C33 H21 1_555 1_555
C34 C33 1_555 1_555
C35 C34 1_555 1_555
H22 C35 1_555 1_555
C36 C35 1_555 1_555
H23 C36 1_555 1_555
C37 C36 1_555 1_555
C38 C37 1_555 1_555
H24 C38 1_555 1_555
C39 C34 1_555 1_555
H25 C39 1_555 1_555
C40 H26 1_555 1_555
H27 C40 1_555 1_555
H28 C40 1_555 1_555
C41 H29 1_555 1_555
H30 C41 1_555 1_555
H31 C41 1_555 1_555
C42 H32 1_555 1_555
H33 C42 1_555 1_555
H34 C42 1_555 1_555
C43 H35 1_555 1_555
H36 C43 1_555 1_555
H37 C43 1_555 1_555
C44 H38 1_555 1_555
H39 C44 1_555 1_555
H40 C44 1_555 1_555
C45 H41 1_555 1_555
H42 C45 1_555 1_555
H43 C45 1_555 1_555
C46 H44 1_555 1_555
H45 C46 1_555 1_555
H46 C46 1_555 1_555
C47 H47 1_555 1_555
H48 C47 1_555 1_555
H49 C47 1_555 1_555
N1 C3 1_555 1_555
N2 C6 1_555 1_555
N3 C16 1_555 1_555
N4 C19 1_555 1_555
N5 C37 1_555 1_555
O2 C27 1_555 1_555
O3 C27 1_555 1_555
O4 C28 1_555 1_555
O5 Rh1 1_555 1_555
O6 C29 1_555 1_555
O7 C29 1_555 1_555
O8 C30 1_555 1_555
O9 Rh1_2 1_555 1_555
O10 C31 1_555 1_555
O11 C32 1_555 1_555
O12 C31 1_555 1_555
Rh1 O3 1_555 1_555
Mn1 O7 1_555 1_555
O14 C33 1_555 1_555
C27A C28A 1_555 1_555
C28A O1A 1_555 1_555
C29A C30A 1_555 1_555
C30A O5A 1_555 1_555
C31A C32A 1_555 1_555
C32A O9A 1_555 1_555
O2A C27A 1_555 1_555
O3A C27A 1_555 1_555
O4A C28A 1_555 1_555
O5A Rh1A 1_555 1_555
O6A C29A 1_555 1_555
O7A Mn1 1_555 1_555
O8A Mn1 1_555 1_555
O9A Rh1A_2 1_555 1_555
O9_2 Rh1 1_555 1_555
O9A_2 Rh1A 1_555 1_555
O10A C31A 1_555 1_555
O10_2 Rh1 1_555 1_555
O10A_2 Rh1A 1_555 1_555
O11A C32A 1_555 1_555
O12A Mn1 1_555 1_555
Rh1A O3A 1_555 1_555
Rh1_2 O10 1_555 1_555
Rh1A_2 O10A 1_555 1_555
C8 C10 1_555 1_555
C11 N1 1_555 1_555
C12 C13 1_555 1_555
C21 C23 1_555 1_555
C24 N3 1_555 1_555
C25 C26 1_555 1_555
C38 C39 1_555 1_555
C40 N5 1_555 1_555
C41 N5 1_555 1_555
C42 N2 1_555 1_555
C43 N2 1_555 1_555
C44 N1 1_555 1_555
C45 N4 1_555 1_555
C46 N4 1_555 1_555
C47 N3 1_555 1_555
O4 Rh1 1_555 1_555
O6 Rh1 1_555 1_555
O8 Mn1 1_555 1_555
O12 Mn1 1_555 1_555
C29A O7A 1_555 1_555
C30A O8A 1_555 1_555
C31A O12A 1_555 1_555
O4A Rh1A 1_555 1_555
O6A Rh1A 1_555 1_555

#END
