
#######################################################################
#
#                 Cambridge Crystallographic Data Centre
#                                CCDC 
#
#######################################################################
#
# If this CIF has been generated from an entry in the Cambridge 
# Structural Database, then it will include bibliographic, chemical, 
# crystal, experimental, refinement or atomic coordinate data resulting 
# from the CCDC's data processing and validation procedures.
#
#######################################################################

data_LIKRED
_symmetry_cell_setting           orthorhombic
_symmetry_space_group_name_H-M   'F d d 2'
_symmetry_Int_Tables_number      43
_space_group_name_Hall           'F 2 -2d'
loop_
_symmetry_equiv_pos_site_id
_symmetry_equiv_pos_as_xyz
1 x,y,z
2 -x,-y,z
3 1/4-x,1/4+y,1/4+z
4 1/4+x,1/4-y,1/4+z
5 x,1/2+y,1/2+z
6 -x,1/2-y,1/2+z
7 1/4-x,3/4+y,3/4+z
8 1/4+x,3/4-y,3/4+z
9 1/2+x,y,1/2+z
10 1/2-x,-y,1/2+z
11 3/4-x,1/4+y,3/4+z
12 3/4+x,1/4-y,3/4+z
13 1/2+x,1/2+y,z
14 1/2-x,1/2-y,z
15 3/4-x,3/4+y,1/4+z
16 3/4+x,3/4-y,1/4+z
_cell_length_a                   39.299(2)
_cell_length_b                   48.612(3)
_cell_length_c                   9.4962(6)
_cell_angle_alpha                90
_cell_angle_beta                 90
_cell_angle_gamma                90
_cell_volume                     18141.6
loop_
_atom_site_label
_atom_site_type_symbol
_atom_site_fract_x
_atom_site_fract_y
_atom_site_fract_z
C1 C 0.8493(2) 0.05376(15) 0.3102(9)
C2 C 0.82013(19) 0.04823(15) 0.3896(10)
H1 H 0.7989 0.052 0.3507
C3 C 0.8378(2) 0.09957(17) -0.2539(10)
H2 H 0.8169 0.1043 -0.2932
C4 C 0.8217(2) 0.03748(17) 0.5213(9)
H3 H 0.8016 0.0336 0.5693
C5 C 0.8385(2) 0.08958(17) -0.1220(10)
H4 H 0.8183 0.0878 -0.0719
C6 C 0.8533(2) 0.03201(16) 0.5871(9)
C7 C 0.8690(2) 0.08187(15) -0.0593(9)
C8 C 0.8822(2) 0.03803(16) 0.5121(10)
H5 H 0.9033 0.0351 0.5534
C9 C 0.8983(2) 0.08562(16) -0.1431(10)
H6 H 0.9196 0.0808 -0.1076
C10 C 0.88067(18) 0.04843(16) 0.3762(9)
H7 H 0.9008 0.0519 0.3278
C11 C 0.8958(2) 0.09633(17) -0.2758(9)
H8 H 0.9154 0.099 -0.3287
C12 C 0.8727(2) 0.07060(17) 0.0794(9)
H9 H 0.8946 0.067 0.1113
C13 C 0.8464(2) 0.06491(15) 0.1668(9)
H10 H 0.8246 0.0684 0.1332
C42 C 0.8242(2) 0.0122(2) 0.7935(10)
H32 H 0.8136 0.028 0.8353
H33 H 0.8305 -0.0006 0.8661
H34 H 0.8085 0.0035 0.73
C43 C 0.8861(2) 0.01468(19) 0.7860(9)
H35 H 0.9047 0.0181 0.7226
H36 H 0.8864 -0.0043 0.8143
H37 H 0.8884 0.0262 0.8675
C44 C 0.8636(3) 0.11447(19) -0.4753(10)
H38 H 0.8476 0.1039 -0.5295
H39 H 0.8856 0.1136 -0.5194
H40 H 0.8562 0.1333 -0.4706
N1 N 0.86586(19) 0.10292(13) -0.3304(8)
N2 N 0.85449(17) 0.02068(15) 0.7163(8)
C14 C 0.8863(2) -0.07045(15) 0.9300(9)
C15 C 0.8549(2) -0.07785(17) 0.9834(10)
H11 H 0.8356 -0.0759 0.9275
C16 C 0.8539(2) -0.02694(19) 0.3315(10)
H12 H 0.836 -0.0247 0.2687
C17 C 0.85185(19) -0.08794(17) 1.1170(10)
H13 H 0.8303 -0.092 1.1518
C18 C 0.8478(2) -0.03783(17) 0.4619(10)
H14 H 0.8256 -0.0422 0.488
C19 C 0.8804(2) -0.09227(17) 1.2033(9)
C20 C 0.87420(19) -0.04231(15) 0.5551(8)
C21 C 0.91266(19) -0.08487(15) 1.1494(9)
H15 H 0.9322 -0.0867 1.2037
C22 C 0.9066(2) -0.03477(17) 0.5091(9)
H16 H 0.9253 -0.0375 0.5678
C23 C 0.9142(2) -0.07489(15) 1.0143(10)
H17 H 0.9355 -0.0709 0.9774
C24 C 0.9113(2) -0.02339(18) 0.3785(11)
H18 H 0.933 -0.0183 0.3494
C25 C 0.8909(2) -0.05973(16) 0.7896(10)
H19 H 0.9133 -0.0559 0.7648
C26 C 0.8676(2) -0.05438(17) 0.6885(9)
H20 H 0.8452 -0.059 0.7083
C45 C 0.8449(3) -0.1091(2) 1.3936(11)
H41 H 0.8303 -0.0934 1.3851
H42 H 0.8471 -0.114 1.4911
H43 H 0.8352 -0.1243 1.3428
C46 C 0.9069(2) -0.10780(19) 1.4225(10)
H44 H 0.9227 -0.1192 1.3719
H45 H 0.9003 -0.1169 1.508
H46 H 0.9177 -0.0906 1.4449
C47 C 0.8907(3) -0.0084(2) 0.1497(10)
H47 H 0.8764 0.0074 0.1354
H48 H 0.8853 -0.0222 0.0811
H49 H 0.9141 -0.0031 0.1398
N3 N 0.88501(19) -0.01956(13) 0.2933(7)
N4 N 0.87745(18) -0.10286(16) 1.3372(8)
C27 C 0.9967(2) 0.1220(2) 0.3500(11)
C28 C 0.9625(2) 0.1179(2) 0.4271(10)
C29 C 1.0064(2) 0.0481(2) 0.6366(19)
C30 C 0.9762(3) 0.0290(2) 0.5987(15)
C31 C 1.0099(3) 0.0347(2) 1.1355(18)
C32 C 0.9742(2) 0.0443(2) 1.0869(15)
O1 O 0.94623(17) 0.13772(14) 0.4675(8)
O2 O 1.00931(17) 0.14472(13) 0.3347(7)
O3 O 1.00968(16) 0.09910(14) 0.3030(8)
O4 O 0.95464(14) 0.09271(14) 0.4458(8)
O5 O 0.96522(16) 0.03412(13) 0.4633(10)
O6 O 1.01453(14) 0.06547(12) 0.5392(9)
O7 O 1.0200(2) 0.04387(15) 0.7485(10)
O8 O 0.96502(16) 0.01155(14) 0.6709(10)
O9 O 0.96027(15) 0.06019(14) 1.1895(9)
O10 O 1.01860(15) 0.04176(12) 1.2598(10)
O11 O 0.96130(18) 0.03787(16) 0.9830(10)
O12 O 1.02650(17) 0.02100(14) 1.0527(9)
Cr1 Cr 0.98670(4) 0.06583(3) 0.3664(2)
Mn1 Mn 1.00000 0.00000 0.8624(3)
C27A C 1.0033(2) -0.1220(2) 0.3500(11)
C28A C 1.0375(2) -0.1179(2) 0.4271(10)
C29A C 0.9936(2) -0.0481(2) 0.6366(19)
C30A C 1.0238(3) -0.0290(2) 0.5987(15)
C31A C 0.9901(3) -0.0347(2) 1.1355(18)
C32A C 1.0258(2) -0.0443(2) 1.0869(15)
O1A O 1.05377(17) -0.13772(14) 0.4675(8)
O2A O 0.99069(17) -0.14472(13) 0.3347(7)
O3A O 0.99032(16) -0.09910(14) 0.3030(8)
O4A O 1.04536(14) -0.09271(14) 0.4458(8)
O5A O 1.03478(16) -0.03412(13) 0.4633(10)
O6A O 0.98547(14) -0.06547(12) 0.5392(9)
O7A O 0.9800(2) -0.04387(15) 0.7485(10)
O8A O 1.03498(16) -0.01155(14) 0.6709(10)
O9A O 1.03973(15) -0.06019(14) 1.1895(9)
O9_2 O 0.96027(15) 0.06019(14) 0.1895(9)
O9A_2 O 1.03973(15) -0.06019(14) 0.1895(9)
O10A O 0.98140(15) -0.04176(12) 1.2598(10)
O10_2 O 1.01860(15) 0.04176(12) 0.2598(10)
O10A_2 O 0.98140(15) -0.04176(12) 0.2598(10)
O11A O 1.03870(18) -0.03787(16) 0.9830(10)
O12A O 0.97350(17) -0.02100(14) 1.0527(9)
Cr1A Cr 1.01330(4) -0.06583(3) 0.3664(2)
Cr1_2 Cr 0.98670(4) 0.06583(3) 1.3664(2)
Cr1A_2 Cr 1.01330(4) -0.06583(3) 1.3664(2)
C33 C 0.7714(2) -0.0026(3) 0.1804(13)
H21 H 0.7705 0.004 0.2722
C34 C 0.7678(2) -0.03242(19) 0.1581(10)
C35 C 0.7684(2) -0.0451(2) 0.0293(11)
H22 H 0.773 -0.0344 -0.0498
C36 C 0.7627(2) -0.0715(2) 0.0122(11)
H23 H 0.7636 -0.0791 -0.0777
C37 C 0.7552(2) -0.08893(18) 0.1315(11)
C38 C 0.7559(2) -0.0764(2) 0.2602(10)
H24 H 0.7521 -0.0868 0.3407
C39 C 0.7622(2) -0.0487(2) 0.2735(11)
H25 H 0.7626 -0.0408 0.3628
C40 C 0.7487(3) -0.1339(2) 0.2392(13)
H26 H 0.7704 -0.1315 0.2846
H27 H 0.7462 -0.1528 0.2107
H28 H 0.7308 -0.1292 0.3036
C41 C 0.7436(4) -0.1285(3) -0.0162(16)
H29 H 0.7318 -0.1164 -0.0795
H30 H 0.7309 -0.1453 -0.0062
H31 H 0.7657 -0.1325 -0.0533
N5 N 0.7468(2) -0.11593(18) 0.1141(11)
O14 O 0.7756(2) 0.01403(16) 0.0848(10)
O13 O 0.72201(18) 0.05467(13) 0.1579(8)
loop_
_geom_bond_atom_site_label_1
_geom_bond_atom_site_label_2
_geom_bond_site_symmetry_1
_geom_bond_site_symmetry_2
C1 C2 1_555 1_555
C2 H1 1_555 1_555
C3 H2 1_555 1_555
C4 C2 1_555 1_555
H3 C4 1_555 1_555
C5 C3 1_555 1_555
H4 C5 1_555 1_555
C6 C4 1_555 1_555
C7 C5 1_555 1_555
C8 C6 1_555 1_555
H5 C8 1_555 1_555
C9 C7 1_555 1_555
H6 C9 1_555 1_555
C10 C1 1_555 1_555
H7 C10 1_555 1_555
C11 C9 1_555 1_555
H8 C11 1_555 1_555
C12 C7 1_555 1_555
H9 C12 1_555 1_555
C13 C1 1_555 1_555
H10 C13 1_555 1_555
C14 C15 1_555 1_555
C15 H11 1_555 1_555
C16 H12 1_555 1_555
C17 C15 1_555 1_555
H13 C17 1_555 1_555
C18 C16 1_555 1_555
H14 C18 1_555 1_555
C19 C17 1_555 1_555
C20 C18 1_555 1_555
C21 C19 1_555 1_555
H15 C21 1_555 1_555
C22 C20 1_555 1_555
H16 C22 1_555 1_555
C23 C14 1_555 1_555
H17 C23 1_555 1_555
C24 C22 1_555 1_555
H18 C24 1_555 1_555
C25 C14 1_555 1_555
H19 C25 1_555 1_555
C26 C20 1_555 1_555
H20 C26 1_555 1_555
C27 C28 1_555 1_555
C28 O1 1_555 1_555
C29 C30 1_555 1_555
C30 O5 1_555 1_555
C31 C32 1_555 1_555
C32 O9 1_555 1_555
C33 H21 1_555 1_555
C34 C33 1_555 1_555
C35 C34 1_555 1_555
H22 C35 1_555 1_555
C36 C35 1_555 1_555
H23 C36 1_555 1_555
C37 C36 1_555 1_555
C38 C37 1_555 1_555
H24 C38 1_555 1_555
C39 C34 1_555 1_555
H25 C39 1_555 1_555
C40 H26 1_555 1_555
H27 C40 1_555 1_555
H28 C40 1_555 1_555
C41 H29 1_555 1_555
H30 C41 1_555 1_555
H31 C41 1_555 1_555
C42 H32 1_555 1_555
H33 C42 1_555 1_555
H34 C42 1_555 1_555
C43 H35 1_555 1_555
H36 C43 1_555 1_555
H37 C43 1_555 1_555
C44 H38 1_555 1_555
H39 C44 1_555 1_555
H40 C44 1_555 1_555
C45 H41 1_555 1_555
H42 C45 1_555 1_555
H43 C45 1_555 1_555
C46 H44 1_555 1_555
H45 C46 1_555 1_555
H46 C46 1_555 1_555
C47 H47 1_555 1_555
H48 C47 1_555 1_555
H49 C47 1_555 1_555
N1 C3 1_555 1_555
N2 C6 1_555 1_555
N3 C16 1_555 1_555
N4 C19 1_555 1_555
N5 C37 1_555 1_555
O2 C27 1_555 1_555
O3 C27 1_555 1_555
O4 C28 1_555 1_555
O5 Cr1 1_555 1_555
O6 C29 1_555 1_555
O7 C29 1_555 1_555
O8 C30 1_555 1_555
O9 Cr1_2 1_555 1_555
O10 C31 1_555 1_555
O11 C32 1_555 1_555
O12 C31 1_555 1_555
Cr1 O3 1_555 1_555
Mn1 O7 1_555 1_555
O14 C33 1_555 1_555
C27A C28A 1_555 1_555
C28A O1A 1_555 1_555
C29A C30A 1_555 1_555
C30A O5A 1_555 1_555
C31A C32A 1_555 1_555
C32A O9A 1_555 1_555
O2A C27A 1_555 1_555
O3A C27A 1_555 1_555
O4A C28A 1_555 1_555
O5A Cr1A 1_555 1_555
O6A C29A 1_555 1_555
O7A Mn1 1_555 1_555
O8A Mn1 1_555 1_555
O9A Cr1A_2 1_555 1_555
O9_2 Cr1 1_555 1_555
O9A_2 Cr1A 1_555 1_555
O10A C31A 1_555 1_555
O10_2 Cr1 1_555 1_555
O10A_2 Cr1A 1_555 1_555
O11A C32A 1_555 1_555
O12A Mn1 1_555 1_555
Cr1A O3A 1_555 1_555
Cr1_2 O10 1_555 1_555
Cr1A_2 O10A 1_555 1_555
C8 C10 1_555 1_555
C11 N1 1_555 1_555
C12 C13 1_555 1_555
C21 C23 1_555 1_555
C24 N3 1_555 1_555
C25 C26 1_555 1_555
C38 C39 1_555 1_555
C40 N5 1_555 1_555
C41 N5 1_555 1_555
C42 N2 1_555 1_555
C43 N2 1_555 1_555
C44 N1 1_555 1_555
C45 N4 1_555 1_555
C46 N4 1_555 1_555
C47 N3 1_555 1_555
O4 Cr1 1_555 1_555
O6 Cr1 1_555 1_555
O8 Mn1 1_555 1_555
O12 Mn1 1_555 1_555
C29A O7A 1_555 1_555
C30A O8A 1_555 1_555
C31A O12A 1_555 1_555
O4A Cr1A 1_555 1_555
O6A Cr1A 1_555 1_555

#END
