
#######################################################################
#
#                 Cambridge Crystallographic Data Centre
#                                CCDC 
#
#######################################################################
#
# If this CIF has been generated from an entry in the Cambridge 
# Structural Database, then it will include bibliographic, chemical, 
# crystal, experimental, refinement or atomic coordinate data resulting 
# from the CCDC's data processing and validation procedures.
#
#######################################################################

data_LIKRAZ
_symmetry_cell_setting           orthorhombic
_symmetry_space_group_name_H-M   'F d d 2'
_symmetry_Int_Tables_number      43
_space_group_name_Hall           'F 2 -2d'
loop_
_symmetry_equiv_pos_site_id
_symmetry_equiv_pos_as_xyz
1 x,y,z
2 -x,-y,z
3 1/4-x,1/4+y,1/4+z
4 1/4+x,1/4-y,1/4+z
5 x,1/2+y,1/2+z
6 -x,1/2-y,1/2+z
7 1/4-x,3/4+y,3/4+z
8 1/4+x,3/4-y,3/4+z
9 1/2+x,y,1/2+z
10 1/2-x,-y,1/2+z
11 3/4-x,1/4+y,3/4+z
12 3/4+x,1/4-y,3/4+z
13 1/2+x,1/2+y,z
14 1/2-x,1/2-y,z
15 3/4-x,3/4+y,1/4+z
16 3/4+x,3/4-y,1/4+z
_cell_length_a                   39.406(3)
_cell_length_b                   48.573(4)
_cell_length_c                   9.4673(8)
_cell_angle_alpha                90
_cell_angle_beta                 90
_cell_angle_gamma                90
_cell_volume                     18121.1
loop_
_atom_site_label
_atom_site_type_symbol
_atom_site_fract_x
_atom_site_fract_y
_atom_site_fract_z
C1 C 0.84965(9) 0.05355(7) 0.3082(4)
C2 C 0.82031(9) 0.04831(8) 0.3875(4)
H1 H 0.7993 0.0523 0.3481
C3 C 0.83777(10) 0.09982(8) -0.2548(4)
H2 H 0.817 0.1049 -0.2937
C4 C 0.82156(9) 0.03750(9) 0.5215(4)
H3 H 0.8015 0.0339 0.5697
C5 C 0.83857(10) 0.08952(8) -0.1219(5)
H4 H 0.8185 0.0878 -0.0708
C6 C 0.85279(9) 0.03173(8) 0.5869(4)
C7 C 0.86934(9) 0.08148(7) -0.0610(4)
C8 C 0.88242(9) 0.03794(8) 0.5093(4)
H5 H 0.9036 0.035 0.5501
C9 C 0.89848(10) 0.08483(8) -0.1454(5)
H6 H 0.9196 0.0797 -0.11
C10 C 0.88052(8) 0.04829(7) 0.3747(4)
H7 H 0.9005 0.0519 0.3262
C11 C 0.89617(11) 0.09545(9) -0.2779(4)
H8 H 0.9157 0.0976 -0.3318
C12 C 0.87271(10) 0.07013(8) 0.0786(4)
H9 H 0.8945 0.0663 0.1104
C13 C 0.84675(10) 0.06457(7) 0.1672(4)
H10 H 0.825 0.0682 0.1343
C42 C 0.82395(12) 0.01321(12) 0.7956(5)
H32 H 0.8118 0.0296 0.8215
H33 H 0.8301 0.0032 0.8794
H34 H 0.8098 0.0019 0.7371
C43 C 0.88641(11) 0.01500(10) 0.7876(5)
H35 H 0.9039 0.0126 0.718
H36 H 0.8843 -0.0015 0.8427
H37 H 0.8922 0.0301 0.8484
C44 C 0.86411(14) 0.11414(10) -0.4770(4)
H38 H 0.8568 0.0999 -0.5407
H39 H 0.886 0.1207 -0.5053
H40 H 0.8481 0.129 -0.4789
N1 N 0.86618(9) 0.10285(6) -0.3320(3)
N2 N 0.85457(8) 0.02070(8) 0.7181(4)
C14 C 0.88589(9) -0.07060(7) 0.9276(4)
C15 C 0.85445(9) -0.07778(8) 0.9836(4)
H11 H 0.8351 -0.0755 0.9284
C16 C 0.85366(11) -0.02645(9) 0.3291(5)
H12 H 0.8357 -0.0237 0.267
C17 C 0.85122(9) -0.08799(8) 1.1165(5)
H13 H 0.8297 -0.0923 1.1505
C18 C 0.84735(10) -0.03749(9) 0.4587(5)
H14 H 0.8252 -0.0418 0.4842
C19 C 0.87984(9) -0.09230(7) 1.2048(4)
C20 C 0.87375(9) -0.04233(8) 0.5533(4)
C21 C 0.91168(9) -0.08497(7) 1.1482(4)
H15 H 0.9312 -0.0874 1.202
C22 C 0.90624(10) -0.03447(9) 0.5076(5)
H16 H 0.9247 -0.037 0.5671
C23 C 0.91403(9) -0.07439(7) 1.0151(4)
H17 H 0.9353 -0.0695 0.9811
C24 C 0.91108(10) -0.02312(9) 0.3766(5)
H18 H 0.9328 -0.0179 0.3486
C25 C 0.89095(10) -0.05942(8) 0.7868(4)
H19 H 0.9132 -0.0552 0.7617
C26 C 0.86702(10) -0.05450(8) 0.6890(4)
H20 H 0.8447 -0.0592 0.7102
C45 C 0.84439(11) -0.11046(11) 1.3944(5)
H41 H 0.8302 -0.0944 1.3976
H42 H 0.8474 -0.1175 1.4882
H43 H 0.8339 -0.1242 1.3363
C46 C 0.90677(12) -0.10835(10) 1.4222(5)
H44 H 0.9214 -0.1212 1.3748
H45 H 0.8999 -0.1159 1.5116
H46 H 0.9187 -0.0914 1.4373
C47 C 0.89119(14) -0.00774(10) 0.1472(5)
H47 H 0.8909 0.012 0.1526
H48 H 0.8738 -0.0138 0.0836
H49 H 0.9129 -0.0138 0.1132
N3 N 0.88501(9) -0.01942(7) 0.2888(3)
N4 N 0.87692(8) -0.10323(8) 1.3359(4)
C27 C 0.99764(11) 0.12256(8) 0.3550(4)
C28 C 0.96300(10) 0.11879(9) 0.4268(4)
C29 C 1.00726(10) 0.04663(8) 0.6350(5)
C30 C 0.97600(10) 0.02942(9) 0.5949(5)
C31 C 1.00975(10) 0.03459(8) 1.1308(5)
C32 C 0.97328(10) 0.04372(8) 1.0892(5)
O1 O 0.94656(8) 0.13876(7) 0.4658(4)
O2 O 1.01080(9) 0.14553(6) 0.3431(4)
O3 O 1.01097(7) 0.09982(6) 0.3101(3)
O4 O 0.95369(7) 0.09336(6) 0.4383(3)
O5 O 0.96421(7) 0.03456(6) 0.4716(4)
O6 O 1.01655(7) 0.06392(5) 0.5409(3)
O7 O 1.02008(8) 0.04307(6) 0.7509(3)
O8 O 0.96518(7) 0.01188(6) 0.6776(3)
O9 O 0.95926(7) 0.05854(6) 1.1885(3)
O10 O 1.01970(7) 0.04248(6) 1.2518(3)
O11 O 0.96141(8) 0.03674(7) 0.9790(4)
O12 O 1.02626(7) 0.02087(6) 1.0461(3)
Fe1 Fe 0.986897(14) 0.065558(12) 0.36476(7)
Mn1 Mn 1.00000 0.00000 0.86217(9)
C27A C 1.00236(11) -0.12256(8) 0.3550(4)
C28A C 1.03700(10) -0.11879(9) 0.4268(4)
C29A C 0.99274(10) -0.04663(8) 0.6350(5)
C30A C 1.02400(10) -0.02942(9) 0.5949(5)
C31A C 0.99025(10) -0.03459(8) 1.1308(5)
C32A C 1.02672(10) -0.04372(8) 1.0892(5)
O1A O 1.05344(8) -0.13876(7) 0.4658(4)
O2A O 0.98920(9) -0.14553(6) 0.3431(4)
O3A O 0.98903(7) -0.09982(6) 0.3101(3)
O4A O 1.04631(7) -0.09336(6) 0.4383(3)
O5A O 1.03579(7) -0.03456(6) 0.4716(4)
O6A O 0.98345(7) -0.06392(5) 0.5409(3)
O7A O 0.97992(8) -0.04307(6) 0.7509(3)
O8A O 1.03482(7) -0.01188(6) 0.6776(3)
O9A O 1.04074(7) -0.05854(6) 1.1885(3)
O9_2 O 0.95926(7) 0.05854(6) 0.1885(3)
O9A_2 O 1.04074(7) -0.05854(6) 0.1885(3)
O10A O 0.98030(7) -0.04248(6) 1.2518(3)
O10_2 O 1.01970(7) 0.04248(6) 0.2518(3)
O10A_2 O 0.98030(7) -0.04248(6) 0.2518(3)
O11A O 1.03859(8) -0.03674(7) 0.9790(4)
O12A O 0.97374(7) -0.02087(6) 1.0461(3)
Fe1A Fe 1.013103(14) -0.065558(12) 0.36476(7)
Fe1_2 Fe 0.986897(14) 0.065558(12) 1.36476(7)
Fe1A_2 Fe 1.013103(14) -0.065558(12) 1.36476(7)
C33 C 0.77128(13) -0.00309(12) 0.1760(7)
H21 H 0.7701 0.0039 0.2673
C34 C 0.76744(10) -0.03297(9) 0.1594(5)
C35 C 0.76794(9) -0.04596(10) 0.0272(5)
H22 H 0.7727 -0.0355 -0.0525
C36 C 0.76178(10) -0.07319(10) 0.0109(4)
H23 H 0.7622 -0.0811 -0.0785
C37 C 0.75463(10) -0.08962(9) 0.1321(5)
C38 C 0.75543(10) -0.07698(11) 0.2646(5)
H24 H 0.752 -0.0874 0.3457
C39 C 0.76125(10) -0.04929(10) 0.2755(5)
H25 H 0.761 -0.0412 0.3646
C40 C 0.74879(16) -0.13503(11) 0.2390(7)
H26 H 0.771 -0.1334 0.2796
H27 H 0.745 -0.1538 0.2107
H28 H 0.7321 -0.1298 0.3075
C41 C 0.7431(2) -0.12970(14) -0.0192(8)
H29 H 0.732 -0.1172 -0.0826
H30 H 0.73 -0.1463 -0.0113
H31 H 0.7653 -0.134 -0.055
N5 N 0.74626(11) -0.11718(8) 0.1168(5)
O14 O 0.77583(12) 0.01324(8) 0.0823(5)
O13 O 0.72275(10) 0.05342(7) 0.1593(4)
loop_
_geom_bond_atom_site_label_1
_geom_bond_atom_site_label_2
_geom_bond_site_symmetry_1
_geom_bond_site_symmetry_2
C1 C2 1_555 1_555
C2 H1 1_555 1_555
C3 H2 1_555 1_555
C4 C2 1_555 1_555
H3 C4 1_555 1_555
C5 C3 1_555 1_555
H4 C5 1_555 1_555
C6 C4 1_555 1_555
C7 C5 1_555 1_555
C8 C6 1_555 1_555
H5 C8 1_555 1_555
C9 C7 1_555 1_555
H6 C9 1_555 1_555
C10 C1 1_555 1_555
H7 C10 1_555 1_555
C11 C9 1_555 1_555
H8 C11 1_555 1_555
C12 C7 1_555 1_555
H9 C12 1_555 1_555
C13 C1 1_555 1_555
H10 C13 1_555 1_555
C14 C15 1_555 1_555
C15 H11 1_555 1_555
C16 H12 1_555 1_555
C17 C15 1_555 1_555
H13 C17 1_555 1_555
C18 C16 1_555 1_555
H14 C18 1_555 1_555
C19 C17 1_555 1_555
C20 C18 1_555 1_555
C21 C19 1_555 1_555
H15 C21 1_555 1_555
C22 C20 1_555 1_555
H16 C22 1_555 1_555
C23 C14 1_555 1_555
H17 C23 1_555 1_555
C24 C22 1_555 1_555
H18 C24 1_555 1_555
C25 C14 1_555 1_555
H19 C25 1_555 1_555
C26 C20 1_555 1_555
H20 C26 1_555 1_555
C27 C28 1_555 1_555
C28 O1 1_555 1_555
C29 C30 1_555 1_555
C30 O5 1_555 1_555
C31 C32 1_555 1_555
C32 O9 1_555 1_555
C33 H21 1_555 1_555
C34 C33 1_555 1_555
C35 C34 1_555 1_555
H22 C35 1_555 1_555
C36 C35 1_555 1_555
H23 C36 1_555 1_555
C37 C36 1_555 1_555
C38 C37 1_555 1_555
H24 C38 1_555 1_555
C39 C34 1_555 1_555
H25 C39 1_555 1_555
C40 H26 1_555 1_555
H27 C40 1_555 1_555
H28 C40 1_555 1_555
C41 H29 1_555 1_555
H30 C41 1_555 1_555
H31 C41 1_555 1_555
C42 H32 1_555 1_555
H33 C42 1_555 1_555
H34 C42 1_555 1_555
C43 H35 1_555 1_555
H36 C43 1_555 1_555
H37 C43 1_555 1_555
C44 H38 1_555 1_555
H39 C44 1_555 1_555
H40 C44 1_555 1_555
C45 H41 1_555 1_555
H42 C45 1_555 1_555
H43 C45 1_555 1_555
C46 H44 1_555 1_555
H45 C46 1_555 1_555
H46 C46 1_555 1_555
C47 H47 1_555 1_555
H48 C47 1_555 1_555
H49 C47 1_555 1_555
N1 C3 1_555 1_555
N2 C6 1_555 1_555
N3 C16 1_555 1_555
N4 C19 1_555 1_555
N5 C37 1_555 1_555
O2 C27 1_555 1_555
O3 C27 1_555 1_555
O4 C28 1_555 1_555
O5 Fe1 1_555 1_555
O6 C29 1_555 1_555
O7 C29 1_555 1_555
O8 C30 1_555 1_555
O9 Fe1_2 1_555 1_555
O10 C31 1_555 1_555
O11 C32 1_555 1_555
O12 C31 1_555 1_555
Fe1 O3 1_555 1_555
Mn1 O7 1_555 1_555
O14 C33 1_555 1_555
C27A C28A 1_555 1_555
C28A O1A 1_555 1_555
C29A C30A 1_555 1_555
C30A O5A 1_555 1_555
C31A C32A 1_555 1_555
C32A O9A 1_555 1_555
O2A C27A 1_555 1_555
O3A C27A 1_555 1_555
O4A C28A 1_555 1_555
O5A Fe1A 1_555 1_555
O6A C29A 1_555 1_555
O7A Mn1 1_555 1_555
O8A Mn1 1_555 1_555
O9A Fe1A_2 1_555 1_555
O9_2 Fe1 1_555 1_555
O9A_2 Fe1A 1_555 1_555
O10A C31A 1_555 1_555
O10_2 Fe1 1_555 1_555
O10A_2 Fe1A 1_555 1_555
O11A C32A 1_555 1_555
O12A Mn1 1_555 1_555
Fe1A O3A 1_555 1_555
Fe1_2 O10 1_555 1_555
Fe1A_2 O10A 1_555 1_555
C8 C10 1_555 1_555
C11 N1 1_555 1_555
C12 C13 1_555 1_555
C21 C23 1_555 1_555
C24 N3 1_555 1_555
C25 C26 1_555 1_555
C38 C39 1_555 1_555
C40 N5 1_555 1_555
C41 N5 1_555 1_555
C42 N2 1_555 1_555
C43 N2 1_555 1_555
C44 N1 1_555 1_555
C45 N4 1_555 1_555
C46 N4 1_555 1_555
C47 N3 1_555 1_555
O4 Fe1 1_555 1_555
O6 Fe1 1_555 1_555
O8 Mn1 1_555 1_555
O12 Mn1 1_555 1_555
C29A O7A 1_555 1_555
C30A O8A 1_555 1_555
C31A O12A 1_555 1_555
O4A Fe1A 1_555 1_555
O6A Fe1A 1_555 1_555

#END
