
#######################################################################
#
#                 Cambridge Crystallographic Data Centre
#                                CCDC 
#
#######################################################################
#
# If this CIF has been generated from an entry in the Cambridge 
# Structural Database, then it will include bibliographic, chemical, 
# crystal, experimental, refinement or atomic coordinate data resulting 
# from the CCDC's data processing and validation procedures.
#
#######################################################################

data_LIKREE
_symmetry_cell_setting           monoclinic
_symmetry_space_group_name_H-M   'C 2'
_symmetry_Int_Tables_number      5
_space_group_name_Hall           'C 2y'
loop_
_symmetry_equiv_pos_site_id
_symmetry_equiv_pos_as_xyz
1 x,y,z
2 -x,y,-z
3 1/2+x,1/2+y,z
4 1/2-x,1/2+y,-z
_cell_length_a                   24.9063(8)
_cell_length_b                   4.7226(1)
_cell_length_c                   8.3180(3)
_cell_angle_alpha                90
_cell_angle_beta                 105.432(1)
_cell_angle_gamma                90
_cell_volume                     943.11
loop_
_atom_site_label
_atom_site_type_symbol
_atom_site_fract_x
_atom_site_fract_y
_atom_site_fract_z
C1 C 0.31466(7) 0.2871(5) 0.4170(3)
C2 C 0.26202(8) 0.1922(6) 0.3475(3)
H1 H 0.2451 0.0343 0.3795
C3 C 0.27774(8) 0.5757(17) 0.2181(3)
H2 H 0.2722 0.7264 0.1436
C4 C 0.35756(8) 0.1666(6) 0.5623(3)
H3 H 0.3439 -0.0118 0.5935
H4 H 0.3623 0.2948 0.6561
C5 C 0.41435(6) 0.1163(13) 0.5298(2)
H5 H 0.4297 0.3001 0.5099
C6 C 0.45415(7) -0.0175(5) 0.6835(2)
N1 N 0.23922(7) 0.3754(6) 0.2217(3)
H6 H 0.2062 0.3656 0.1559
N2 N 0.32423(7) 0.5272(4) 0.3354(3)
N3 N 0.40970(7) -0.0632(4) 0.3806(2)
H7 H 0.3830 -0.1914 0.3737
H8 H 0.4420 -0.1508 0.3889
H9 H 0.4014 0.0447 0.2896
N4 N 0.37614(8) -0.6072(6) 1.0220(3)
O1 O 0.47815(7) -0.2417(4) 0.6626(2)
O2 O 0.45918(6) 0.1055(13) 0.81973(19)
O3 O 0.41918(7) -0.6466(7) 1.1390(3)
O4 O 0.33641(9) -0.7646(8) 1.0069(4)
O5 O 0.37673(8) -0.4073(15) 0.9258(3)
Ba1 Ba 0.5000 -0.4123 1.0000
C1A C 0.68534(7) 0.2871(5) 1.5830(3)
C2A C 0.73798(8) 0.1922(6) 1.6525(3)
H1A H 0.7549 0.0343 1.6205
C3A C 0.72226(8) 0.5757(17) 1.7819(3)
H2A H 0.7278 0.7264 1.8564
C4A C 0.64244(8) 0.1666(6) 1.4377(3)
H3A H 0.6561 -0.0118 1.4065
H4A H 0.6377 0.2948 1.3439
C5A C 0.58565(6) 0.1163(13) 1.4702(2)
H5A H 0.5703 0.3001 1.4901
C6A C 0.54585(7) -0.0175(5) 1.3165(2)
N1A N 0.76078(7) 0.3754(6) 1.7783(3)
H6A H 0.7938 0.3656 1.8441
N2A N 0.67577(7) 0.5272(4) 1.6646(3)
N3A N 0.59030(7) -0.0632(4) 1.6194(2)
H7A H 0.6170 -0.1914 1.6263
H8A H 0.5580 -0.1508 1.6111
H9A H 0.5986 0.0447 1.7104
N4A N 0.62386(8) -0.6072(6) 0.9780(3)
O1A O 0.52185(7) -0.2417(4) 1.3374(2)
O2A O 0.54082(6) 0.1055(13) 1.18027(19)
O3A O 0.58082(7) -0.6466(7) 0.8610(3)
O4A O 0.66359(9) -0.7646(8) 0.9931(4)
O5A O 0.62327(8) -0.4073(15) 1.0742(3)
O2_2 O 0.45918(6) -0.8945(13) 0.81973(19)
O2A_2 O 0.54082(6) -0.8945(13) 1.18027(19)
Ba1_2 Ba 0.5000 0.5877 1.0000
loop_
_geom_bond_atom_site_label_1
_geom_bond_atom_site_label_2
_geom_bond_site_symmetry_1
_geom_bond_site_symmetry_2
C1 C2 1_555 1_555
C2 H1 1_555 1_555
C3 H2 1_555 1_555
C4 C1 1_555 1_555
H3 C4 1_555 1_555
H4 C4 1_555 1_555
C5 C4 1_555 1_555
H5 C5 1_555 1_555
C6 C5 1_555 1_555
N1 C2 1_555 1_555
H6 N1 1_555 1_555
N2 C1 1_555 1_555
N3 C5 1_555 1_555
H7 N3 1_555 1_555
H8 N3 1_555 1_555
H9 N3 1_555 1_555
N4 O3 1_555 1_555
O1 C6 1_555 1_555
O2 C6 1_555 1_555
O3 Ba1 1_555 1_555
O4 N4 1_555 1_555
O5 N4 1_555 1_555
Ba1 O1 1_555 1_555
C1A C2A 1_555 1_555
C2A H1A 1_555 1_555
C3A H2A 1_555 1_555
C4A C1A 1_555 1_555
H3A C4A 1_555 1_555
H4A C4A 1_555 1_555
C5A C4A 1_555 1_555
H5A C5A 1_555 1_555
C6A C5A 1_555 1_555
N1A C2A 1_555 1_555
H6A N1A 1_555 1_555
N2A C1A 1_555 1_555
N3A C5A 1_555 1_555
H7A N3A 1_555 1_555
H8A N3A 1_555 1_555
H9A N3A 1_555 1_555
N4A O3A 1_555 1_555
O1A Ba1 1_555 1_555
O2A Ba1 1_555 1_555
O3A Ba1 1_555 1_555
O4A N4A 1_555 1_555
O5A Ba1 1_555 1_555
O2_2 Ba1 1_555 1_555
O2A_2 Ba1 1_555 1_555
Ba1_2 O2 1_555 1_555
C3 N1 1_555 1_555
C3 N2 1_555 1_555
O2 Ba1 1_555 1_555
O5 Ba1 1_555 1_555
C3A N1A 1_555 1_555
C3A N2A 1_555 1_555
C6A O1A 1_555 1_555
C6A O2A 1_555 1_555
N4A O5A 1_555 1_555
O2A Ba1_2 1_555 1_555

#END
