
#######################################################################
#
#                 Cambridge Crystallographic Data Centre
#                                CCDC 
#
#######################################################################
#
# If this CIF has been generated from an entry in the Cambridge 
# Structural Database, then it will include bibliographic, chemical, 
# crystal, experimental, refinement or atomic coordinate data resulting 
# from the CCDC's data processing and validation procedures.
#
#######################################################################

data_LIKZAI
_symmetry_cell_setting           monoclinic
_symmetry_space_group_name_H-M   'P 21/c'
_symmetry_Int_Tables_number      14
_space_group_name_Hall           '-P 2ybc'
loop_
_symmetry_equiv_pos_site_id
_symmetry_equiv_pos_as_xyz
1 x,y,z
2 -x,1/2+y,1/2-z
3 -x,-y,-z
4 x,1/2-y,1/2+z
_cell_length_a                   15.619(3)
_cell_length_b                   4.9535(10)
_cell_length_c                   9.5484(18)
_cell_angle_alpha                90
_cell_angle_beta                 102.763(3)
_cell_angle_gamma                90
_cell_volume                     720.495
loop_
_atom_site_label
_atom_site_type_symbol
_atom_site_fract_x
_atom_site_fract_y
_atom_site_fract_z
Cu1 Cu 0.5000 0.5000 0.5000
O1 O 0.40378(11) 0.2689(3) 0.38664(17)
O2 O 0.46182(11) 0.7529(3) 0.34413(17)
O3 O 0.39362(12) 0.7690(4) 0.11246(18)
C1 C 0.40946(14) 0.6552(5) 0.2304(2)
C2 C 0.36294(15) 0.3871(5) 0.2467(2)
H1 H 0.3710 0.2633 0.1705
C3 C 0.26551(17) 0.4316(6) 0.2343(3)
C4 C 0.2052(2) 0.2860(7) 0.1347(4)
H2 H 0.2245 0.1600 0.0763
C5 C 0.1154(2) 0.3283(9) 0.1218(4)
H3 H 0.0752 0.2294 0.0550
C6 C 0.0860(2) 0.5137(7) 0.2064(5)
H4 H 0.0261 0.5413 0.1967
C7 C 0.1459(2) 0.6603(8) 0.3067(4)
H5 H 0.1260 0.7846 0.3652
C8 C 0.23519(18) 0.6222(6) 0.3200(3)
H6 H 0.2751 0.7236 0.3860
O1B O 0.59622(11) 0.7311(3) 0.61336(17)
O2B O 0.53818(11) 0.2471(3) 0.65587(17)
O3B O 0.60638(12) 0.2310(4) 0.88754(18)
C1B C 0.59054(14) 0.3448(5) 0.7696(2)
C2B C 0.63706(15) 0.6129(5) 0.7533(2)
H1B H 0.6290 0.7367 0.8295
C3B C 0.73449(17) 0.5684(6) 0.7657(3)
C4B C 0.7948(2) 0.7140(7) 0.8653(4)
H2B H 0.7755 0.8400 0.9237
C5B C 0.8846(2) 0.6717(9) 0.8782(4)
H3B H 0.9248 0.7706 0.9450
C6B C 0.9140(2) 0.4863(7) 0.7936(5)
H4B H 0.9739 0.4587 0.8033
C7B C 0.8541(2) 0.3397(8) 0.6933(4)
H5B H 0.8740 0.2154 0.6348
C8B C 0.76481(18) 0.3778(6) 0.6800(3)
H6B H 0.7249 0.2764 0.6140
Cu1A Cu 0.5000 0.0000 1.0000
Cu1A_2 Cu 0.5000 1.0000 0.0000
O3A O 0.60638(12) 0.2690(4) 0.38754(18)
O3C O 0.39362(12) 0.7310(4) 0.61246(18)
loop_
_geom_bond_atom_site_label_1
_geom_bond_atom_site_label_2
_geom_bond_site_symmetry_1
_geom_bond_site_symmetry_2
Cu1 O1 1_555 1_555
O1 C2 1_555 1_555
O2 Cu1 1_555 1_555
O3 C1 1_555 1_555
C1 O2 1_555 1_555
C2 C1 1_555 1_555
H1 C2 1_555 1_555
C3 C2 1_555 1_555
C4 C3 1_555 1_555
H2 C4 1_555 1_555
C5 C4 1_555 1_555
H3 C5 1_555 1_555
C6 C5 1_555 1_555
H4 C6 1_555 1_555
C7 C6 1_555 1_555
H5 C7 1_555 1_555
C8 C3 1_555 1_555
H6 C8 1_555 1_555
O1B Cu1 1_555 1_555
O2B Cu1 1_555 1_555
O3B C1B 1_555 1_555
C1B O2B 1_555 1_555
C2B O1B 1_555 1_555
H1B C2B 1_555 1_555
C3B C2B 1_555 1_555
C4B C3B 1_555 1_555
H2B C4B 1_555 1_555
C5B C4B 1_555 1_555
H3B C5B 1_555 1_555
C6B C5B 1_555 1_555
H4B C6B 1_555 1_555
C7B C6B 1_555 1_555
H5B C7B 1_555 1_555
C8B C3B 1_555 1_555
H6B C8B 1_555 1_555
Cu1A O3B 1_555 1_555
Cu1A_2 O3 1_555 1_555
O3A Cu1 1_555 1_555
O3C Cu1 1_555 1_555
C7 C8 1_555 1_555
C1B C2B 1_555 1_555
C7B C8B 1_555 1_555

#END
