
#######################################################################
#
#                 Cambridge Crystallographic Data Centre
#                                CCDC 
#
#######################################################################
#
# If this CIF has been generated from an entry in the Cambridge 
# Structural Database, then it will include bibliographic, chemical, 
# crystal, experimental, refinement or atomic coordinate data resulting 
# from the CCDC's data processing and validation procedures.
#
#######################################################################

data_LILLIB
_symmetry_cell_setting           monoclinic
_symmetry_space_group_name_H-M   'P 21/n'
_symmetry_Int_Tables_number      14
_space_group_name_Hall           '-P 2yn'
loop_
_symmetry_equiv_pos_site_id
_symmetry_equiv_pos_as_xyz
1 x,y,z
2 1/2-x,1/2+y,1/2-z
3 -x,-y,-z
4 1/2+x,1/2-y,1/2+z
_cell_length_a                   10.844
_cell_length_b                   12.911
_cell_length_c                   12.233
_cell_angle_alpha                90
_cell_angle_beta                 105.38
_cell_angle_gamma                90
_cell_volume                     1651.37
loop_
_atom_site_label
_atom_site_type_symbol
_atom_site_fract_x
_atom_site_fract_y
_atom_site_fract_z
Cu1 Cu 0.98370(4) 0.18685(4) 0.73681(3)
O1 O 0.8619(2) 0.1014(2) 0.6240(2)
O2 O 1.0367(2) 0.2478(2) 0.6072(2)
O3 O 0.7357(3) -0.0356(2) 0.5657(2)
O4 O 1.1338(2) 0.3670(2) 0.5258(2)
N1 N 0.9089(2) 0.1447(2) 0.8582(2)
N2 N 1.1448(2) 0.2248(2) 0.8441(2)
N3 N 0.6283(3) -0.1417(3) 0.7721(3)
N4 N 1.3935(3) 0.4703(3) 0.7147(3)
C1 C 0.8289(3) 0.0701(3) 0.8500(3)
C2 C 0.7763(3) 0.0092(3) 0.7537(3)
C3 C 0.7970(3) 0.0297(3) 0.6465(3)
C4 C 1.2282(3) 0.2858(3) 0.8207(3)
C5 C 1.2204(3) 0.3350(3) 0.7156(3)
C6 C 1.1243(3) 0.3124(3) 0.6164(3)
C7 C 0.9405(3) 0.2067(3) 0.9620(3)
C8 C 1.0771(4) 0.2136(4) 1.0201(3)
C9 C 1.1722(3) 0.1813(3) 0.9580(3)
C10 C 0.7519(6) -0.0256(4) 0.4536(4)
C11 C 0.6508(7) -0.0728(5) 0.3714(4)
C12 C 1.0374(4) 0.3525(4) 0.4200(3)
C13 C 1.0644(4) 0.2642(4) 0.3563(4)
C14 C 0.6943(3) -0.0745(3) 0.7635(3)
C15 C 1.3150(3) 0.4097(3) 0.7126(3)
H1 H 0.804(3) 0.057(3) 0.9130(3)
H2 H 1.303(3) 0.299(3) 0.885(3)
H3 H 0.895(3) 0.180(3) 1.014(3)
H4 H 0.921(3) 0.269(3) 0.942(3)
H5 H 1.092(3) 0.171(3) 1.092(3)
H6 H 1.097(3) 0.263(3) 1.055(3)
H7 H 1.260(3) 0.195(3) 1.004(3)
H8 H 1.171(3) 0.113(3) 0.950(3)
H9 H 0.760(3) 0.041(3) 0.447(3)
H10 H 0.819(3) -0.017(3) 0.461(3)
H11 H 0.648(3) -0.060(3) 0.299(3)
H12 H 0.600(3) -0.002(3) 0.380(3)
H13 H 0.668(3) -0.137(3) 0.392(3)
H14 H 0.955(3) 0.351(3) 0.428(3)
H15 H 1.039(3) 0.411(3) 0.376(3)
H16 H 1.142(3) 0.271(3) 0.342(3)
H17 H 0.997(3) 0.264(3) 0.274(3)
H18 H 1.057(3) 0.208(3) 0.391(3)
N3A N 0.8717(3) 0.3583(3) 0.7279(3)
Cu1A Cu 0.51630(4) -0.31315(4) 0.76319(3)
loop_
_geom_bond_atom_site_label_1
_geom_bond_atom_site_label_2
_geom_bond_site_symmetry_1
_geom_bond_site_symmetry_2
Cu1 O1 1_555 1_555
O1 C3 1_555 1_555
O2 Cu1 1_555 1_555
O3 C3 1_555 1_555
O4 C6 1_555 1_555
N1 Cu1 1_555 1_555
N2 Cu1 1_555 1_555
N3 C14 1_555 1_555
N4 C15 1_555 1_555
C1 N1 1_555 1_555
C2 C1 1_555 1_555
C3 C2 1_555 1_555
C4 N2 1_555 1_555
C5 C4 1_555 1_555
C6 O2 1_555 1_555
C7 N1 1_555 1_555
C8 C7 1_555 1_555
C9 N2 1_555 1_555
C10 O3 1_555 1_555
C11 C10 1_555 1_555
C12 O4 1_555 1_555
C13 C12 1_555 1_555
C14 C2 1_555 1_555
C15 C5 1_555 1_555
H1 C1 1_555 1_555
H2 C4 1_555 1_555
H3 C7 1_555 1_555
H4 C7 1_555 1_555
H5 C8 1_555 1_555
H6 C8 1_555 1_555
H7 C9 1_555 1_555
H8 C9 1_555 1_555
H9 C10 1_555 1_555
H10 C10 1_555 1_555
H11 C11 1_555 1_555
H12 C11 1_555 1_555
H13 C11 1_555 1_555
H14 C12 1_555 1_555
H15 C12 1_555 1_555
H16 C13 1_555 1_555
H17 C13 1_555 1_555
H18 C13 1_555 1_555
N3A Cu1 1_555 1_555
Cu1A N3 1_555 1_555
C5 C6 1_555 1_555
C8 C9 1_555 1_555

#END
