
#######################################################################
#
#                 Cambridge Crystallographic Data Centre
#                                CCDC 
#
#######################################################################
#
# If this CIF has been generated from an entry in the Cambridge 
# Structural Database, then it will include bibliographic, chemical, 
# crystal, experimental, refinement or atomic coordinate data resulting 
# from the CCDC's data processing and validation procedures.
#
#######################################################################

data_LILQUT
_symmetry_cell_setting           monoclinic
_symmetry_space_group_name_H-M   'P 21'
_symmetry_Int_Tables_number      4
_space_group_name_Hall           'P 2yb'
loop_
_symmetry_equiv_pos_site_id
_symmetry_equiv_pos_as_xyz
1 x,y,z
2 -x,1/2+y,-z
_cell_length_a                   8.6787(13)
_cell_length_b                   9.2804(15)
_cell_length_c                   17.420(3)
_cell_angle_alpha                90
_cell_angle_beta                 96.723(4)
_cell_angle_gamma                90
_cell_volume                     1393.39
loop_
_atom_site_label
_atom_site_type_symbol
_atom_site_fract_x
_atom_site_fract_y
_atom_site_fract_z
Ag1 Ag 0.59243(5) 0.49065(9) 0.27707(2)
N1 N 0.7310(6) 0.2676(6) 0.2707(3)
N2 N 0.6498(6) 0.0997(5) 0.5291(3)
N3 N 0.5258(6) 0.0754(6) 0.6319(3)
N4 N 0.7279(5) 0.5126(7) 0.1772(2)
N5 N 0.8561(7) 0.5486(6) 0.0763(3)
H1 H 0.8891 0.5913 0.0362
C1 C 0.7371(8) 0.1419(7) 0.3217(3)
H3 H 0.8410 0.0967 0.3245
H4 H 0.6592 0.0700 0.3004
C2 C 0.7052(8) 0.1850(7) 0.4010(3)
H5 H 0.6007 0.2290 0.3976
H6 H 0.7816 0.2592 0.4210
C3 C 0.7130(8) 0.0609(7) 0.4572(3)
H7 H 0.6538 -0.0215 0.4328
H8 H 0.8224 0.0303 0.4696
C4 C 0.8161(7) 0.2711(7) 0.2164(3)
H9 H 0.8812 0.1913 0.2088
C5 C 0.5769(7) 0.0070(10) 0.5733(3)
H10 H 0.5644 -0.0932 0.5634
C6 C 0.5712(8) 0.2167(8) 0.6259(4)
H11 H 0.5523 0.2918 0.6607
C7 C 0.6473(8) 0.2321(7) 0.5625(4)
H12 H 0.6903 0.3185 0.5449
C8 C 0.8158(7) 0.3947(7) 0.1657(3)
C9 C 0.8956(8) 0.4146(7) 0.1030(4)
H13 H 0.9640 0.3487 0.0826
C10 C 0.7558(8) 0.6049(7) 0.1230(4)
H14 H 0.7118 0.6985 0.1172
Ag1A Ag 0.40757(5) -0.00935(9) 0.72293(2)
N3A N 0.4742(6) 0.5754(6) 0.3681(3)
Ag2 Ag 0.77849(6) -0.01385(8) 0.78438(4)
N6 N 0.8340(6) 0.2284(6) 0.8170(3)
N7 N 0.5832(7) 0.5788(6) 0.8345(3)
N8 N 0.6699(6) 0.8004(6) 0.8239(3)
N9 N 0.9329(6) 0.0660(6) 0.6967(3)
N10 N 1.0747(7) 0.1363(8) 0.6071(4)
H2 H 1.1253 0.1331 0.5662
C11 C 0.7909(7) 0.3113(8) 0.8836(4)
H15 H 0.8371 0.4088 0.8836
H16 H 0.8317 0.2626 0.9323
C12 C 0.6157(9) 0.3232(8) 0.8787(4)
H17 H 0.5873 0.3554 0.9294
H18 H 0.5696 0.2267 0.8680
C13 C 0.5473(10) 0.4274(7) 0.8166(5)
H19 H 0.5871 0.4025 0.7673
H20 H 0.4332 0.4152 0.8091
C14 C 0.9237(8) 0.2872(7) 0.7735(4)
H21 H 0.9575 0.3834 0.7835
C15 C 0.6596(8) 0.6694(7) 0.7924(4)
H22 H 0.7010 0.6435 0.7462
C16 C 0.5940(8) 0.7893(8) 0.8888(4)
H23 H 0.5809 0.8657 0.9238
C17 C 0.5420(8) 0.6557(8) 0.8951(4)
H24 H 0.4861 0.6204 0.9349
C18 C 0.9755(8) 0.2097(7) 0.7086(4)
C19 C 1.0631(9) 0.2516(9) 0.6533(4)
H25 H 1.1076 0.3441 0.6480
C20 C 0.9940(8) 0.0256(9) 0.6350(4)
H26 H 0.9837 -0.0678 0.6127
Ag2_2 Ag 0.77849(6) 0.98615(8) 0.78438(4)
N8_2 N 0.6699(6) -0.1996(6) 0.8239(3)
F1 F 0.7937(4) 0.9711(6) 0.12414(17)
F2 F 0.7154(5) 1.0483(4) 0.0020(2)
F3 F 0.9648(5) 1.0807(4) 0.0540(2)
F4 F 0.8771(5) 0.8549(4) 0.0228(2)
B1 B 0.8358(7) 0.9879(12) 0.0508(3)
F5 F 0.7784(9) 0.7332(6) 0.5327(4)
F6 F 0.8884(7) 0.6606(9) 0.6468(3)
F7 F 0.6606(5) 0.5742(6) 0.6024(3)
F8 F 0.8691(5) 0.5133(6) 0.5430(3)
B2 B 0.7962(11) 0.6193(9) 0.5816(5)
loop_
_geom_bond_atom_site_label_1
_geom_bond_atom_site_label_2
_geom_bond_site_symmetry_1
_geom_bond_site_symmetry_2
Ag1 N1 1_555 1_555
Ag2 N6 1_555 1_555
F1 B1 1_555 1_555
F2 B1 1_555 1_555
F3 B1 1_555 1_555
F4 B1 1_555 1_555
F5 B2 1_555 1_555
F6 B2 1_555 1_555
F7 B2 1_555 1_555
F8 B2 1_555 1_555
N1 C1 1_555 1_555
N2 C3 1_555 1_555
N3 C5 1_555 1_555
N4 Ag1 1_555 1_555
N5 H1 1_555 1_555
N6 C11 1_555 1_555
N7 C13 1_555 1_555
N8 C15 1_555 1_555
N9 Ag2 1_555 1_555
N10 H2 1_555 1_555
C1 H3 1_555 1_555
H4 C1 1_555 1_555
C2 C1 1_555 1_555
H5 C2 1_555 1_555
H6 C2 1_555 1_555
C3 C2 1_555 1_555
H7 C3 1_555 1_555
H8 C3 1_555 1_555
C4 N1 1_555 1_555
H9 C4 1_555 1_555
C5 N2 1_555 1_555
H10 C5 1_555 1_555
C6 N3 1_555 1_555
H11 C6 1_555 1_555
C7 N2 1_555 1_555
H12 C7 1_555 1_555
C8 N4 1_555 1_555
C9 N5 1_555 1_555
H13 C9 1_555 1_555
C10 N4 1_555 1_555
H14 C10 1_555 1_555
C11 H15 1_555 1_555
H16 C11 1_555 1_555
C12 C11 1_555 1_555
H17 C12 1_555 1_555
H18 C12 1_555 1_555
C13 C12 1_555 1_555
H19 C13 1_555 1_555
H20 C13 1_555 1_555
C14 N6 1_555 1_555
H21 C14 1_555 1_555
C15 N7 1_555 1_555
H22 C15 1_555 1_555
C16 N8 1_555 1_555
H23 C16 1_555 1_555
C17 N7 1_555 1_555
H24 C17 1_555 1_555
C18 N9 1_555 1_555
C19 N10 1_555 1_555
H25 C19 1_555 1_555
C20 N9 1_555 1_555
H26 C20 1_555 1_555
Ag1A N3 1_555 1_555
Ag2_2 N8 1_555 1_555
N3A Ag1 1_555 1_555
N8_2 Ag2 1_555 1_555
N5 C10 1_555 1_555
N10 C20 1_555 1_555
C4 C8 1_555 1_555
C6 C7 1_555 1_555
C8 C9 1_555 1_555
C14 C18 1_555 1_555
C16 C17 1_555 1_555
C18 C19 1_555 1_555

#END
