
#######################################################################
#
#                 Cambridge Crystallographic Data Centre
#                                CCDC 
#
#######################################################################
#
# If this CIF has been generated from an entry in the Cambridge 
# Structural Database, then it will include bibliographic, chemical, 
# crystal, experimental, refinement or atomic coordinate data resulting 
# from the CCDC's data processing and validation procedures.
#
#######################################################################

data_LILQON
_symmetry_cell_setting           monoclinic
_symmetry_space_group_name_H-M   'C 2/c'
_symmetry_Int_Tables_number      15
_space_group_name_Hall           '-C 2yn'
loop_
_symmetry_equiv_pos_site_id
_symmetry_equiv_pos_as_xyz
1 x,y,z
2 1/2+x,1/2+y,z
3 -x,y,1/2-z
4 1/2-x,1/2+y,1/2-z
5 -x,-y,-z
6 1/2-x,1/2-y,-z
7 x,-y,1/2+z
8 1/2+x,1/2-y,1/2+z
_cell_length_a                   23.940(3)
_cell_length_b                   8.8461(13)
_cell_length_c                   17.408(3)
_cell_angle_alpha                90
_cell_angle_beta                 130.402(2)
_cell_angle_gamma                90
_cell_volume                     2807.4
loop_
_atom_site_label
_atom_site_type_symbol
_atom_site_fract_x
_atom_site_fract_y
_atom_site_fract_z
Ag1 Ag 0.5000 0.21284(6) 0.7500
Ag2 Ag 0.5000 0.39035(6) 0.2500
N1 N 0.60716(14) 0.4315(3) 0.40127(19)
N2 N 0.71169(14) 0.5014(3) 0.5463(2)
H1 H 0.7528 0.5474 0.5890
N3 N 0.50468(14) 0.2252(3) 0.3685(2)
N4 N 0.38431(16) 0.2389(3) 0.4356(2)
N5 N 0.43377(18) 0.1931(4) 0.5923(2)
C1 C 0.66517(17) 0.5187(4) 0.4459(2)
H2 H 0.6730 0.5843 0.4119
C2 C 0.68209(18) 0.3983(4) 0.5684(2)
H3 H 0.7019 0.3646 0.6322
C3 C 0.61755(16) 0.3537(4) 0.4786(2)
C4 C 0.56329(16) 0.2476(3) 0.4582(2)
H4 H 0.5715 0.1957 0.5111
C5 C 0.45111(18) 0.1161(4) 0.3484(3)
H5 H 0.4666 0.0770 0.4117
H6 H 0.4482 0.0320 0.3102
C6 C 0.37623(18) 0.1890(4) 0.2895(3)
H7 H 0.3635 0.2365 0.2297
H8 H 0.3402 0.1107 0.2674
C7 C 0.3717(2) 0.3061(4) 0.3486(3)
H9 H 0.4080 0.3842 0.3717
H10 H 0.3237 0.3532 0.3048
C8 C 0.4387(2) 0.2712(4) 0.5325(3)
H11 H 0.4757 0.3407 0.5552
C9 C 0.3722(2) 0.1055(4) 0.5290(3)
H12 H 0.3543 0.0381 0.5496
C10 C 0.3412(2) 0.1321(4) 0.4319(3)
H13 H 0.2992 0.0871 0.3745
Ag2_2 Ag 0.5000 0.39035(6) 1.2500
N1B N 0.39284(14) 0.4315(3) 1.09873(19)
N1B_2 N 0.39284(14) 0.4315(3) 0.09873(19)
N2B N 0.28831(14) 0.5014(3) 0.9537(2)
H1B H 0.2472 0.5474 0.9110
N3B N 0.49532(14) 0.2252(3) 1.1315(2)
N3B_2 N 0.49532(14) 0.2252(3) 0.1315(2)
N4B N 0.61569(16) 0.2389(3) 1.0644(2)
N5B N 0.56623(18) 0.1931(4) 0.9077(2)
C1B C 0.33483(17) 0.5187(4) 1.0541(2)
H2B H 0.3270 0.5843 1.0881
C2B C 0.31791(18) 0.3983(4) 0.9316(2)
H3B H 0.2981 0.3646 0.8678
C3B C 0.38245(16) 0.3537(4) 1.0214(2)
C4B C 0.43671(16) 0.2476(3) 1.0418(2)
H4B H 0.4285 0.1957 0.9889
C5B C 0.54889(18) 0.1161(4) 1.1516(3)
H5B H 0.5334 0.0770 1.0883
H6B H 0.5518 0.0320 1.1898
C6B C 0.62377(18) 0.1890(4) 1.2105(3)
H7B H 0.6365 0.2365 1.2703
H8B H 0.6598 0.1107 1.2326
C7B C 0.6283(2) 0.3061(4) 1.1514(3)
H9B H 0.5920 0.3842 1.1283
H10B H 0.6763 0.3532 1.1952
C8B C 0.5613(2) 0.2712(4) 0.9675(3)
H11B H 0.5243 0.3407 0.9448
C9B C 0.6278(2) 0.1055(4) 0.9710(3)
H12B H 0.6457 0.0381 0.9504
C10B C 0.6588(2) 0.1321(4) 1.0681(3)
H13B H 0.7008 0.0871 1.1255
O1 O 0.33943(14) 0.1796(3) 0.67650(19)
O2 O 0.3851(2) 0.3422(5) 0.7945(3)
O3 O 0.31045(17) 0.1726(4) 0.7700(2)
N6 N 0.34499(16) 0.2329(3) 0.7476(2)
loop_
_geom_bond_atom_site_label_1
_geom_bond_atom_site_label_2
_geom_bond_site_symmetry_1
_geom_bond_site_symmetry_2
Ag1 N5 1_555 1_555
Ag2 N1 1_555 1_555
O1 N6 1_555 1_555
O2 N6 1_555 1_555
O3 N6 1_555 1_555
N1 C1 1_555 1_555
N2 H1 1_555 1_555
N3 Ag2 1_555 1_555
N4 C7 1_555 1_555
N5 C8 1_555 1_555
C1 N2 1_555 1_555
H2 C1 1_555 1_555
C2 N2 1_555 1_555
H3 C2 1_555 1_555
C3 N1 1_555 1_555
C4 N3 1_555 1_555
H4 C4 1_555 1_555
C5 N3 1_555 1_555
H5 C5 1_555 1_555
H6 C5 1_555 1_555
C6 C5 1_555 1_555
H7 C6 1_555 1_555
H8 C6 1_555 1_555
C7 C6 1_555 1_555
H9 C7 1_555 1_555
H10 C7 1_555 1_555
C8 N4 1_555 1_555
H11 C8 1_555 1_555
C9 N5 1_555 1_555
H12 C9 1_555 1_555
C10 N4 1_555 1_555
H13 C10 1_555 1_555
Ag2_2 N1B 1_555 1_555
N1B C1B 1_555 1_555
N1B_2 Ag2 1_555 1_555
N2B H1B 1_555 1_555
N3B Ag2_2 1_555 1_555
N3B_2 Ag2 1_555 1_555
N4B C7B 1_555 1_555
N5B Ag1 1_555 1_555
C1B N2B 1_555 1_555
H2B C1B 1_555 1_555
C2B N2B 1_555 1_555
H3B C2B 1_555 1_555
C3B N1B 1_555 1_555
C4B N3B 1_555 1_555
H4B C4B 1_555 1_555
C5B N3B 1_555 1_555
H5B C5B 1_555 1_555
H6B C5B 1_555 1_555
C6B C5B 1_555 1_555
H7B C6B 1_555 1_555
H8B C6B 1_555 1_555
C7B C6B 1_555 1_555
H9B C7B 1_555 1_555
H10B C7B 1_555 1_555
C8B N4B 1_555 1_555
H11B C8B 1_555 1_555
C9B N5B 1_555 1_555
H12B C9B 1_555 1_555
C10B N4B 1_555 1_555
H13B C10B 1_555 1_555
C2 C3 1_555 1_555
C3 C4 1_555 1_555
C9 C10 1_555 1_555
N5B C8B 1_555 1_555
C2B C3B 1_555 1_555
C3B C4B 1_555 1_555
C9B C10B 1_555 1_555

#END
