
#######################################################################
#
#                 Cambridge Crystallographic Data Centre
#                                CCDC 
#
#######################################################################
#
# If this CIF has been generated from an entry in the Cambridge 
# Structural Database, then it will include bibliographic, chemical, 
# crystal, experimental, refinement or atomic coordinate data resulting 
# from the CCDC's data processing and validation procedures.
#
#######################################################################

data_LILQII01
_symmetry_cell_setting           monoclinic
_symmetry_space_group_name_H-M   'P 21/n'
_symmetry_Int_Tables_number      14
_space_group_name_Hall           '-P 2yn'
loop_
_symmetry_equiv_pos_site_id
_symmetry_equiv_pos_as_xyz
1 x,y,z
2 1/2-x,1/2+y,1/2-z
3 -x,-y,-z
4 1/2+x,1/2-y,1/2+z
_cell_length_a                   13.625(3)
_cell_length_b                   13.429(3)
_cell_length_c                   5.806(2)
_cell_angle_alpha                90
_cell_angle_beta                 90.0(1)
_cell_angle_gamma                90
_cell_volume                     1062.32
loop_
_atom_site_label
_atom_site_type_symbol
_atom_site_fract_x
_atom_site_fract_y
_atom_site_fract_z
C1 C 0.3663 -0.0515 -0.2723
C2 C 0.2646 -0.0352 -0.1693
C3 C 0.4116 -0.1535 -0.2324
C4 C 0.5072 -0.1625 -0.3626
N1 N 0.5426 -0.2664 -0.3532
O1 O 0.2626 -0.0518 0.0747
P1 P 0.1668 -0.1135 -0.2952
O2 O 0.1975 -0.0978 -0.5469
O3 O 0.1894 -0.22 -0.2295
O4 O 0.0767 -0.0821 -0.1562
P2 P 0.2198 0.0869 -0.2677
O5 O 0.3097 0.1468 -0.2191
O6 O 0.1372 0.1179 -0.1117
O7 O 0.1967 0.0839 -0.5181
Ca1 Ca 0.1073 0.0219 0.2066
O2_2 O 0.1975 -0.0978 0.4531
O4B O -0.0767 0.0821 0.1562
O7_2 O 0.1967 0.0839 0.4819
Ca1_2 Ca 0.1073 0.0219 -0.7934
Ca1B Ca -0.1073 -0.0219 -0.2066
O8 O 0.1920 0.2760 0.2570
loop_
_geom_bond_atom_site_label_1
_geom_bond_atom_site_label_2
_geom_bond_site_symmetry_1
_geom_bond_site_symmetry_2
C1 C2 1_555 1_555
C2 O1 1_555 1_555
C3 C1 1_555 1_555
C4 C3 1_555 1_555
N1 C4 1_555 1_555
O1 Ca1 1_555 1_555
P1 C2 1_555 1_555
O2 P1 1_555 1_555
O3 P1 1_555 1_555
O4 P1 1_555 1_555
P2 C2 1_555 1_555
O5 P2 1_555 1_555
O6 P2 1_555 1_555
O7 P2 1_555 1_555
Ca1 O4 1_555 1_555
O2_2 Ca1 1_555 1_555
O4B Ca1 1_555 1_555
O7_2 Ca1 1_555 1_555
Ca1_2 O2 1_555 1_555
Ca1B O4 1_555 1_555
O6 Ca1 1_555 1_555
O7 Ca1_2 1_555 1_555
O4B Ca1B 1_555 1_555

#END
