
#######################################################################
#
#                 Cambridge Crystallographic Data Centre
#                                CCDC 
#
#######################################################################
#
# If this CIF has been generated from an entry in the Cambridge 
# Structural Database, then it will include bibliographic, chemical, 
# crystal, experimental, refinement or atomic coordinate data resulting 
# from the CCDC's data processing and validation procedures.
#
#######################################################################

data_LILQII
_symmetry_cell_setting           orthorhombic
_symmetry_space_group_name_H-M   'P 21 21 21'
_symmetry_Int_Tables_number      19
_space_group_name_Hall           'P 2ac 2ab'
loop_
_symmetry_equiv_pos_site_id
_symmetry_equiv_pos_as_xyz
1 x,y,z
2 1/2-x,-y,1/2+z
3 -x,1/2+y,1/2-z
4 1/2+x,1/2-y,-z
_cell_length_a                   5.8320(10)
_cell_length_b                   13.649(2)
_cell_length_c                   13.790(2)
_cell_angle_alpha                90
_cell_angle_beta                 90
_cell_angle_gamma                90
_cell_volume                     1097.7
loop_
_atom_site_label
_atom_site_type_symbol
_atom_site_fract_x
_atom_site_fract_y
_atom_site_fract_z
Ca1 Ca 0.2386(3) 0.85085(10) 0.51514(9)
P1 P 0.7155(3) 0.97746(13) 0.57050(12)
O1 O 0.9549(12) 0.9471(5) 0.5863(4)
O2 O 0.5397(11) 0.9101(5) 0.6147(4)
O3 O 0.6780(13) 1.0847(4) 0.6078(4)
P2 P 0.7197(4) 0.86661(13) 0.37683(12)
O4 O 0.5606(11) 0.7923(4) 0.4265(4)
O5 O 0.9655(12) 0.8419(5) 0.3910(5)
O6 O 0.6492(11) 0.8781(5) 0.2715(4)
H1 H 0.7641 0.8824 0.2375
O7 O 0.4023(10) 0.9946(4) 0.4328(4)
H2 H 0.336(16) 1.004(8) 0.381(4)
C1 C 0.6575(13) 0.9851(6) 0.4382(5)
C2 C 0.7806(16) 1.0690(5) 0.3867(5)
H3 H 0.7711 1.0572 0.3175
H4 H 0.9414 1.0659 0.4044
C3 C 0.696(2) 1.1740(6) 0.4059(7)
H5 H 0.5347 1.1777 0.3899
H6 H 0.7120 1.1879 0.4745
C4 C 0.821(3) 1.2509(8) 0.3501(9)
H7 H 0.7923 1.3143 0.3796
H8 H 0.9845 1.2383 0.3537
N1 N 0.7514(19) 1.2544(6) 0.2476(6)
H9 H 0.7727 1.1958 0.2207
H10 H 0.8355 1.2988 0.2164
H11 H 0.6040 1.2707 0.2436
Ca1_2 Ca 1.2386(3) 0.85085(10) 0.51514(9)
Ca1C Ca 0.7386(3) 0.64915(10) 0.48486(9)
O1_2 O -0.0451(12) 0.9471(5) 0.5863(4)
O4C O 0.0606(11) 0.7077(4) 0.5735(4)
O5_2 O -0.0345(12) 0.8419(5) 0.3910(5)
O9 O 0.217(3) 0.940(3) 0.7562(8)
O8? O 0.254(7) 1.001(5) 0.7465(19)
loop_
_geom_bond_atom_site_label_1
_geom_bond_atom_site_label_2
_geom_bond_site_symmetry_1
_geom_bond_site_symmetry_2
Ca1 O2 1_555 1_555
P1 O1 1_555 1_555
O1 Ca1_2 1_555 1_555
O2 P1 1_555 1_555
O3 P1 1_555 1_555
P2 O4 1_555 1_555
O4 Ca1 1_555 1_555
O5 P2 1_555 1_555
O6 P2 1_555 1_555
H1 O6 1_555 1_555
O7 Ca1 1_555 1_555
H2 O7 1_555 1_555
C1 P1 1_555 1_555
C2 C1 1_555 1_555
H3 C2 1_555 1_555
H4 C2 1_555 1_555
C3 C2 1_555 1_555
H5 C3 1_555 1_555
H6 C3 1_555 1_555
C4 C3 1_555 1_555
H7 C4 1_555 1_555
H8 C4 1_555 1_555
N1 C4 1_555 1_555
H9 N1 1_555 1_555
H10 N1 1_555 1_555
H11 N1 1_555 1_555
Ca1_2 O5 1_555 1_555
Ca1C O4 1_555 1_555
O1_2 Ca1 1_555 1_555
O4C Ca1 1_555 1_555
O5_2 Ca1 1_555 1_555
P2 C1 1_555 1_555
O7 C1 1_555 1_555

#END
