
#######################################################################
#
#                 Cambridge Crystallographic Data Centre
#                                CCDC 
#
#######################################################################
#
# If this CIF has been generated from an entry in the Cambridge 
# Structural Database, then it will include bibliographic, chemical, 
# crystal, experimental, refinement or atomic coordinate data resulting 
# from the CCDC's data processing and validation procedures.
#
#######################################################################

data_LILRII
_symmetry_cell_setting           monoclinic
_symmetry_space_group_name_H-M   'P 21/c'
_symmetry_Int_Tables_number      14
_space_group_name_Hall           '-P 2ybc'
loop_
_symmetry_equiv_pos_site_id
_symmetry_equiv_pos_as_xyz
1 x,y,z
2 -x,1/2+y,1/2-z
3 -x,-y,-z
4 x,1/2-y,1/2+z
_cell_length_a                   9.1513(16)
_cell_length_b                   20.352(4)
_cell_length_c                   11.330(2)
_cell_angle_alpha                90.00
_cell_angle_beta                 99.997(2)
_cell_angle_gamma                90.00
_cell_volume                     2078.14
loop_
_atom_site_label
_atom_site_type_symbol
_atom_site_fract_x
_atom_site_fract_y
_atom_site_fract_z
Cu1 Cu 0.45841(5) 0.43364(2) 0.93916(4)
Ni1 Ni 0.5000 0.5000 0.5000
N1 N 0.2501(3) 0.39789(15) 0.9045(3)
N2 N 0.1401(3) 0.43936(15) 0.8519(3)
N3 N 0.4256(3) 0.64962(15) 1.0430(3)
N4 N 0.3263(3) 0.66306(15) 0.9407(3)
N5 N 0.4936(3) 0.45291(16) 0.7508(3)
N6 N 0.2405(4) 0.58482(18) 0.5309(3)
O1 O 0.3756(3) 0.51908(12) 0.9689(2)
C1 C 0.1809(4) 0.3454(2) 0.9400(3)
C2 C 0.0277(4) 0.3535(2) 0.9080(4)
H4 H -0.0450 0.3240 0.9218
C3 C 0.0054(4) 0.4126(2) 0.8532(3)
C4 C -0.1359(4) 0.4464(3) 0.8002(4)
H5 H -0.1420 0.4878 0.8394
H6 H -0.2187 0.4194 0.8110
H7 H -0.1378 0.4535 0.7162
C5 C 0.4999(4) 0.46955(19) 0.6557(4)
C6 C 0.3389(5) 0.5535(2) 0.5176(3)
C7 C 0.2601(5) 0.2889(2) 1.0051(4)
H8 H 0.2805 0.2566 0.9485
H9 H 0.1993 0.2698 1.0571
H10 H 0.3517 0.3038 1.0519
C8 C 0.1551(4) 0.7517(2) 0.8472(4)
H11 H 0.0648 0.7269 0.8400
H12 H 0.1361 0.7966 0.8653
H13 H 0.1922 0.7496 0.7730
C9 C 0.2682(4) 0.72334(19) 0.9460(3)
C10 C 0.3315(4) 0.7503(2) 1.0535(4)
H14 H 0.3137 0.7919 1.0819
C11 C 0.4274(4) 0.70315(19) 1.1115(3)
C12 C 0.5237(5) 0.7074(2) 1.2327(3)
H15 H 0.6228 0.6941 1.2270
H16 H 0.5248 0.7519 1.2612
H17 H 0.4849 0.6790 1.2875
C13 C 0.2869(4) 0.61292(19) 0.8492(3)
H18 H 0.2032 0.6280 0.7910
H19 H 0.3698 0.6060 0.8076
C14 C 0.1752(4) 0.50240(19) 0.8041(3)
H20 H 0.0849 0.5224 0.7616
H21 H 0.2419 0.4958 0.7473
C15 C 0.2471(4) 0.54833(18) 0.9027(3)
H22 H 0.1766 0.5570 0.9568
Cu1B Cu 0.54159(5) 0.56636(2) 0.06084(4)
Cu1B_2 Cu 0.54159(5) 0.56636(2) 1.06084(4)
N1B N 0.7499(3) 0.60211(15) 1.0955(3)
N2B N 0.8599(3) 0.56064(15) 1.1481(3)
N3B N 0.5744(3) 0.35038(15) 0.9570(3)
N4B N 0.6737(3) 0.33694(15) 1.0593(3)
N5B N 0.5064(3) 0.54709(16) 0.2492(3)
N5B_2 N 0.5064(3) 0.54709(16) 1.2492(3)
N6B N 0.7595(4) 0.41518(18) 0.4691(3)
O1B O 0.6244(3) 0.48092(12) 1.0311(2)
C1B C 0.8191(4) 0.6546(2) 1.0600(3)
C2B C 0.9723(4) 0.6465(2) 1.0920(4)
H4B H 1.0450 0.6760 1.0782
C3B C 0.9946(4) 0.5874(2) 1.1468(3)
C4B C 1.1359(4) 0.5536(3) 1.1998(4)
H5B H 1.1420 0.5122 1.1606
H6B H 1.2187 0.5806 1.1890
H7B H 1.1378 0.5465 1.2838
C5B C 0.5001(4) 0.53045(19) 0.3443(4)
C6B C 0.6611(5) 0.4465(2) 0.4824(3)
C7B C 0.7399(5) 0.7111(2) 0.9949(4)
H8B H 0.7195 0.7434 1.0515
H9B H 0.8007 0.7302 0.9429
H10B H 0.6483 0.6962 0.9481
C8B C 0.8449(4) 0.2483(2) 1.1528(4)
H11B H 0.9352 0.2731 1.1600
H12B H 0.8639 0.2034 1.1347
H13B H 0.8078 0.2504 1.2270
C9B C 0.7318(4) 0.27666(19) 1.0540(3)
C10B C 0.6685(4) 0.2497(2) 0.9465(4)
H14B H 0.6863 0.2081 0.9181
C11B C 0.5726(4) 0.29685(19) 0.8885(3)
C12B C 0.4763(5) 0.2926(2) 0.7673(3)
H15B H 0.3772 0.3059 0.7730
H16B H 0.4752 0.2481 0.7388
H17B H 0.5151 0.3210 0.7125
C13B C 0.7131(4) 0.38708(19) 1.1508(3)
H18B H 0.7968 0.3720 1.2090
H19B H 0.6302 0.3940 1.1924
C14B C 0.8248(4) 0.49760(19) 1.1959(3)
H20B H 0.9151 0.4776 1.2384
H21B H 0.7581 0.5042 1.2527
C15B C 0.7529(4) 0.45167(18) 1.0973(3)
H22B H 0.8234 0.4430 1.0432
O2 O 0.1222(12) 0.1258(9) 0.7437(15)
H1 H 0.0893 0.1330 0.8053
C16 C 0.2803(7) 0.1141(3) 0.7733(6)
H23 H 0.3298 0.1540 0.8022
H24 H 0.3164 0.0996 0.7030
H25 H 0.2996 0.0809 0.8342
O4 O 0.0312(3) 0.14333(19) -0.0428(3)
H3 H -0.0511 0.1268 -0.0464
C17 C 0.1301(6) 0.1154(3) 0.0533(5)
H29 H 0.2302 0.1258 0.0453
H30 H 0.1175 0.0686 0.0526
H31 H 0.1100 0.1328 0.1276
O3? O 0.1607(18) 0.1604(8) 0.7609(18)
H2? H 0.1079 0.1524 0.8107
H26? H 0.3698 0.1349 0.8124
H27? H 0.2926 0.0998 0.6948
H28? H 0.2592 0.0768 0.8195
loop_
_geom_bond_atom_site_label_1
_geom_bond_atom_site_label_2
_geom_bond_site_symmetry_1
_geom_bond_site_symmetry_2
Cu1 N1 1_555 1_555
Ni1 C5 1_555 1_555
N1 N2 1_555 1_555
N2 C3 1_555 1_555
N3 N4 1_555 1_555
N4 C9 1_555 1_555
N5 Cu1 1_555 1_555
N6 C6 1_555 1_555
O1 Cu1 1_555 1_555
O2 H1 1_555 1_555
O4 H3 1_555 1_555
C1 N1 1_555 1_555
C2 C1 1_555 1_555
H4 C2 1_555 1_555
C3 C2 1_555 1_555
C4 C3 1_555 1_555
H5 C4 1_555 1_555
H6 C4 1_555 1_555
H7 C4 1_555 1_555
C5 N5 1_555 1_555
C6 Ni1 1_555 1_555
C7 C1 1_555 1_555
H8 C7 1_555 1_555
H9 C7 1_555 1_555
H10 C7 1_555 1_555
C8 H11 1_555 1_555
H12 C8 1_555 1_555
H13 C8 1_555 1_555
C9 C8 1_555 1_555
C10 C9 1_555 1_555
H14 C10 1_555 1_555
C11 N3 1_555 1_555
C12 C11 1_555 1_555
H15 C12 1_555 1_555
H16 C12 1_555 1_555
H17 C12 1_555 1_555
C13 N4 1_555 1_555
H18 C13 1_555 1_555
H19 C13 1_555 1_555
C14 N2 1_555 1_555
H20 C14 1_555 1_555
H21 C14 1_555 1_555
C15 O1 1_555 1_555
H22 C15 1_555 1_555
C16 O2 1_555 1_555
H23 C16 1_555 1_555
H24 C16 1_555 1_555
H25 C16 1_555 1_555
C17 O4 1_555 1_555
H29 C17 1_555 1_555
H30 C17 1_555 1_555
H31 C17 1_555 1_555
Cu1B N5B 1_555 1_555
Cu1B_2 N3 1_555 1_555
N1B Cu1B_2 1_555 1_555
N2B N1B 1_555 1_555
N3B Cu1 1_555 1_555
N4B N3B 1_555 1_555
N5B C5B 1_555 1_555
N5B_2 Cu1B_2 1_555 1_555
N6B C6B 1_555 1_555
O1B Cu1 1_555 1_555
C1B N1B 1_555 1_555
C2B C1B 1_555 1_555
H4B C2B 1_555 1_555
C3B N2B 1_555 1_555
C4B C3B 1_555 1_555
H5B C4B 1_555 1_555
H6B C4B 1_555 1_555
H7B C4B 1_555 1_555
C5B Ni1 1_555 1_555
C6B Ni1 1_555 1_555
C7B C1B 1_555 1_555
H8B C7B 1_555 1_555
H9B C7B 1_555 1_555
H10B C7B 1_555 1_555
C8B H11B 1_555 1_555
H12B C8B 1_555 1_555
H13B C8B 1_555 1_555
C9B N4B 1_555 1_555
C10B C9B 1_555 1_555
H14B C10B 1_555 1_555
C11B N3B 1_555 1_555
C12B C11B 1_555 1_555
H15B C12B 1_555 1_555
H16B C12B 1_555 1_555
H17B C12B 1_555 1_555
C13B N4B 1_555 1_555
H18B C13B 1_555 1_555
H19B C13B 1_555 1_555
C14B N2B 1_555 1_555
H20B C14B 1_555 1_555
H21B C14B 1_555 1_555
C15B O1B 1_555 1_555
H22B C15B 1_555 1_555
O1 Cu1B_2 1_555 1_555
C10 C11 1_555 1_555
C13 C15 1_555 1_555
C14 C15 1_555 1_555
Cu1B_2 O1B 1_555 1_555
C2B C3B 1_555 1_555
C8B C9B 1_555 1_555
C10B C11B 1_555 1_555
C13B C15B 1_555 1_555
C14B C15B 1_555 1_555

#END
