
#######################################################################
#
#                 Cambridge Crystallographic Data Centre
#                                CCDC 
#
#######################################################################
#
# If this CIF has been generated from an entry in the Cambridge 
# Structural Database, then it will include bibliographic, chemical, 
# crystal, experimental, refinement or atomic coordinate data resulting 
# from the CCDC's data processing and validation procedures.
#
#######################################################################

data_LILROO
_symmetry_cell_setting           triclinic
_symmetry_space_group_name_H-M   'P -1'
_symmetry_Int_Tables_number      2
_space_group_name_Hall           '-P 1'
loop_
_symmetry_equiv_pos_site_id
_symmetry_equiv_pos_as_xyz
1 x,y,z
2 -x,-y,-z
_cell_length_a                   9.218(2)
_cell_length_b                   10.358(3)
_cell_length_c                   13.715(4)
_cell_angle_alpha                107.447(4)
_cell_angle_beta                 93.765(4)
_cell_angle_gamma                110.489(3)
_cell_volume                     1148.71
loop_
_atom_site_label
_atom_site_type_symbol
_atom_site_fract_x
_atom_site_fract_y
_atom_site_fract_z
Cu1 Cu 0.95239(7) 0.13198(6) 0.02433(5)
Ni1 Ni 1.5000 0.5000 0.0000
N1 N 0.8070(5) 0.1582(4) -0.0776(3)
N2 N 0.8366(5) 0.1403(5) -0.1759(3)
N3 N 1.0864(5) -0.2448(4) -0.1583(3)
N4 N 1.1259(6) -0.1845(5) -0.2342(3)
N5 N 1.1919(5) 0.3128(5) 0.0376(4)
N6 N 1.6533(7) 0.6461(8) 0.2253(5)
O1 O 0.9730(4) -0.0206(4) -0.0912(3)
C1 C 0.5897(8) 0.1907(8) 0.0132(6)
H7 H 0.6559 0.1941 0.0718
H8 H 0.4898 0.1101 -0.0017
H9 H 0.5737 0.2809 0.0292
C2 C 0.6672(6) 0.1702(6) -0.0795(5)
C3 C 0.6105(8) 0.1608(7) -0.1787(5)
H10 H 0.5162 0.1670 -0.2003
C4 C 0.7177(7) 0.1411(6) -0.2380(5)
C5 C 0.7228(10) 0.1302(10) -0.3494(5)
H11 H 0.8168 0.1167 -0.3672
H12 H 0.7230 0.2189 -0.3581
H13 H 0.6320 0.0482 -0.3941
C6 C 1.0366(8) -0.4836(7) -0.1353(5)
H14 H 1.0200 -0.4335 -0.0685
H15 H 0.9420 -0.5675 -0.1725
H16 H 1.1212 -0.5152 -0.1261
C7 C 1.0782(7) -0.3817(6) -0.1960(5)
C8 C 1.1115(8) -0.4087(7) -0.2957(5)
H17 H 1.1135 -0.4962 -0.3390
C9 C 1.1407(8) -0.2840(8) -0.3187(5)
C10 C 1.1838(12) -0.2490(10) -0.4132(6)
H18 H 1.1959 -0.1498 -0.4034
H19 H 1.2813 -0.2596 -0.4247
H20 H 1.1020 -0.3150 -0.4724
C11 C 0.9809(6) 0.1208(6) -0.2013(4)
H21 H 1.0716 0.2033 -0.1546
H22 H 0.9883 0.1190 -0.2718
C12 C 0.9838(6) -0.0205(5) -0.1917(4)
H23 H 0.8933 -0.1035 -0.2403
C13 C 1.1338(7) -0.0365(6) -0.2203(4)
H24 H 1.2228 0.0346 -0.1658
H25 H 1.1499 -0.0163 -0.2843
C14 C 1.3092(7) 0.3868(6) 0.0267(4)
C15 C 1.5918(7) 0.5867(7) 0.1403(6)
Cu1A Cu 2.04761(7) 0.86802(6) -0.02433(5)
Cu1A_2 Cu 1.04761(7) -0.13198(6) -0.02433(5)
N1A N 1.1930(5) -0.1582(4) 0.0776(3)
N2A N 1.1634(5) -0.1403(5) 0.1759(3)
N3A N 0.9136(5) 0.2448(4) 0.1583(3)
N4A N 0.8741(6) 0.1845(5) 0.2342(3)
N5A N 1.8081(5) 0.6872(5) -0.0376(4)
N5A_2 N 0.8081(5) -0.3128(5) -0.0376(4)
N6A N 1.3467(7) 0.3539(8) -0.2253(5)
O1A O 1.0270(4) 0.0206(4) 0.0912(3)
C1A C 1.4103(8) -0.1907(8) -0.0132(6)
H7A H 1.3441 -0.1941 -0.0718
H8A H 1.5102 -0.1101 0.0017
H9A H 1.4263 -0.2809 -0.0292
C2A C 1.3328(6) -0.1702(6) 0.0795(5)
C3A C 1.3895(8) -0.1608(7) 0.1787(5)
H10A H 1.4838 -0.1670 0.2003
C4A C 1.2823(7) -0.1411(6) 0.2380(5)
C5A C 1.2772(10) -0.1302(10) 0.3494(5)
H11A H 1.1832 -0.1167 0.3672
H12A H 1.2770 -0.2189 0.3581
H13A H 1.3680 -0.0482 0.3941
C6A C 0.9634(8) 0.4836(7) 0.1353(5)
H14A H 0.9800 0.4335 0.0685
H15A H 1.0580 0.5675 0.1725
H16A H 0.8788 0.5152 0.1261
C7A C 0.9218(7) 0.3817(6) 0.1960(5)
C8A C 0.8885(8) 0.4087(7) 0.2957(5)
H17A H 0.8865 0.4962 0.3390
C9A C 0.8593(8) 0.2840(8) 0.3187(5)
C10A C 0.8162(12) 0.2490(10) 0.4132(6)
H18A H 0.8041 0.1498 0.4034
H19A H 0.7187 0.2596 0.4247
H20A H 0.8980 0.3150 0.4724
C11A C 1.0191(6) -0.1208(6) 0.2013(4)
H21A H 0.9284 -0.2033 0.1546
H22A H 1.0117 -0.1190 0.2718
C12A C 1.0162(6) 0.0205(5) 0.1917(4)
H23A H 1.1067 0.1035 0.2403
C13A C 0.8662(7) 0.0365(6) 0.2203(4)
H24A H 0.7772 -0.0346 0.1658
H25A H 0.8501 0.0163 0.2843
C14A C 1.6908(7) 0.6132(6) -0.0267(4)
C15A C 1.4082(7) 0.4133(7) -0.1403(6)
N7 N 0.3718(9) 0.3656(9) 0.3442(5)
O2 O 0.4079(16) 0.2474(14) 0.4431(9)
C16 C 0.3378(19) 0.3290(16) 0.4308(10)
H26 H 0.2733 0.3593 0.4738
C17 C 0.4453(12) 0.2949(13) 0.2659(8)
H27 H 0.4592 0.3405 0.2138
H28 H 0.3790 0.1926 0.2340
H29 H 0.5461 0.3051 0.2983
C18 C 0.3263(13) 0.4758(14) 0.3233(8)
H30 H 0.3601 0.4897 0.2611
H31 H 0.3749 0.5667 0.3808
H32 H 0.2137 0.4445 0.3141
O3 O 0.6955(16) 0.8775(13) 0.4053(8)
H1 H 0.7197 0.8416 0.4491
H2 H 0.6650 0.8078 0.3470
O4? O 0.863(3) 0.800(3) 0.4153(15)
H3? H 0.8310 0.7092 0.3800
H4? H 0.7961 0.8232 0.3859
O5? O 0.983(3) 0.926(3) 0.498(2)
H5? H 0.9525 0.9961 0.5228
H6? H 1.0813 0.9735 0.5203
loop_
_geom_bond_atom_site_label_1
_geom_bond_atom_site_label_2
_geom_bond_site_symmetry_1
_geom_bond_site_symmetry_2
Cu1 N1 1_555 1_555
Ni1 C14 1_555 1_555
N1 N2 1_555 1_555
N2 C4 1_555 1_555
N3 N4 1_555 1_555
N4 C9 1_555 1_555
N5 Cu1 1_555 1_555
N6 C15 1_555 1_555
N7 C16 1_555 1_555
O1 Cu1 1_555 1_555
O2 C16 1_555 1_555
O3 H1 1_555 1_555
H2 O3 1_555 1_555
C1 H7 1_555 1_555
H8 C1 1_555 1_555
H9 C1 1_555 1_555
C2 N1 1_555 1_555
C3 C2 1_555 1_555
H10 C3 1_555 1_555
C4 C3 1_555 1_555
C5 C4 1_555 1_555
H11 C5 1_555 1_555
H12 C5 1_555 1_555
H13 C5 1_555 1_555
C6 H14 1_555 1_555
H15 C6 1_555 1_555
H16 C6 1_555 1_555
C7 N3 1_555 1_555
C8 C7 1_555 1_555
H17 C8 1_555 1_555
C9 C8 1_555 1_555
C10 C9 1_555 1_555
H18 C10 1_555 1_555
H19 C10 1_555 1_555
H20 C10 1_555 1_555
C11 N2 1_555 1_555
H21 C11 1_555 1_555
H22 C11 1_555 1_555
C12 O1 1_555 1_555
H23 C12 1_555 1_555
C13 N4 1_555 1_555
H24 C13 1_555 1_555
H25 C13 1_555 1_555
C14 N5 1_555 1_555
C15 Ni1 1_555 1_555
C16 H26 1_555 1_555
C17 N7 1_555 1_555
H27 C17 1_555 1_555
H28 C17 1_555 1_555
H29 C17 1_555 1_555
C18 N7 1_555 1_555
H30 C18 1_555 1_555
H31 C18 1_555 1_555
H32 C18 1_555 1_555
Cu1A N5A 1_555 1_555
Cu1A_2 N3 1_555 1_555
N1A Cu1A_2 1_555 1_555
N2A N1A 1_555 1_555
N3A Cu1 1_555 1_555
N4A N3A 1_555 1_555
N5A C14A 1_555 1_555
N5A_2 Cu1A_2 1_555 1_555
N6A C15A 1_555 1_555
O1A Cu1 1_555 1_555
C1A H7A 1_555 1_555
H8A C1A 1_555 1_555
H9A C1A 1_555 1_555
C2A N1A 1_555 1_555
C3A C2A 1_555 1_555
H10A C3A 1_555 1_555
C4A N2A 1_555 1_555
C5A C4A 1_555 1_555
H11A C5A 1_555 1_555
H12A C5A 1_555 1_555
H13A C5A 1_555 1_555
C6A H14A 1_555 1_555
H15A C6A 1_555 1_555
H16A C6A 1_555 1_555
C7A N3A 1_555 1_555
C8A C7A 1_555 1_555
H17A C8A 1_555 1_555
C9A N4A 1_555 1_555
C10A C9A 1_555 1_555
H18A C10A 1_555 1_555
H19A C10A 1_555 1_555
H20A C10A 1_555 1_555
C11A N2A 1_555 1_555
H21A C11A 1_555 1_555
H22A C11A 1_555 1_555
C12A O1A 1_555 1_555
H23A C12A 1_555 1_555
C13A N4A 1_555 1_555
H24A C13A 1_555 1_555
H25A C13A 1_555 1_555
C14A Ni1 1_555 1_555
C15A Ni1 1_555 1_555
O1 Cu1A_2 1_555 1_555
C1 C2 1_555 1_555
C6 C7 1_555 1_555
C11 C12 1_555 1_555
C12 C13 1_555 1_555
Cu1A_2 O1A 1_555 1_555
C1A C2A 1_555 1_555
C3A C4A 1_555 1_555
C6A C7A 1_555 1_555
C8A C9A 1_555 1_555
C11A C12A 1_555 1_555
C12A C13A 1_555 1_555

#END
