
#######################################################################
#
#                 Cambridge Crystallographic Data Centre
#                                CCDC 
#
#######################################################################
#
# If this CIF has been generated from an entry in the Cambridge 
# Structural Database, then it will include bibliographic, chemical, 
# crystal, experimental, refinement or atomic coordinate data resulting 
# from the CCDC's data processing and validation procedures.
#
#######################################################################

data_LILYIP
_symmetry_cell_setting           monoclinic
_symmetry_space_group_name_H-M   'C 2/c'
_symmetry_Int_Tables_number      15
_space_group_name_Hall           '-C 2yn'
loop_
_symmetry_equiv_pos_site_id
_symmetry_equiv_pos_as_xyz
1 x,y,z
2 1/2+x,1/2+y,z
3 -x,y,1/2-z
4 1/2-x,1/2+y,1/2-z
5 -x,-y,-z
6 1/2-x,1/2-y,-z
7 x,-y,1/2+z
8 1/2+x,1/2-y,1/2+z
_cell_length_a                   40.580(7)
_cell_length_b                   11.021(2)
_cell_length_c                   22.269(4)
_cell_angle_alpha                90
_cell_angle_beta                 95.430(4)
_cell_angle_gamma                90
_cell_volume                     9914.72
loop_
_atom_site_label
_atom_site_type_symbol
_atom_site_fract_x
_atom_site_fract_y
_atom_site_fract_z
Co1 Co 0.0000 0.67754(5) 0.2500
Co2 Co -0.022962(10) 0.54463(3) 0.107947(17)
Co3 Co 0.0000 0.40235(5) 0.2500
Co4 Co 0.063819(11) 0.81164(3) 0.204863(17)
Co5 Co 0.080738(11) 0.68835(3) 0.344463(18)
O1 O 0.12392(6) 0.6262(2) 0.31066(12)
O2 O 0.01470(6) 0.6105(2) 0.05572(11)
O3 O 0.00517(6) 0.54075(17) 0.18776(9)
O4 O 0.05300(5) 0.68369(17) 0.26394(9)
O8 O -0.09818(6) 0.6615(2) 0.06819(10)
O9 O -0.05529(6) 0.56393(19) 0.03270(9)
O10 O -0.06689(6) 0.3312(2) -0.14366(10)
O11 O -0.11454(6) 0.2814(2) -0.19239(10)
O12 O -0.09434(6) -0.13395(18) 0.15459(10)
O13 O -0.06645(6) -0.04991(19) 0.23597(10)
O14 O -0.05351(6) 0.40823(19) 0.23875(10)
O15 O -0.06698(6) 0.49752(18) 0.14924(9)
O16 O 0.01353(6) 1.36574(18) 0.40989(10)
O17 O 0.00014(6) 1.27814(19) 0.31922(10)
O18 O -0.00809(5) 0.81576(17) 0.31240(9)
O19 O 0.03174(5) 0.73226(17) 0.37519(9)
N1 N -0.19626(8) 0.5431(3) -0.07753(17)
N2 N -0.21469(11) 0.5532(4) -0.1314(2)
N3 N -0.24513(10) 0.5780(5) -0.1185(3)
N4 N -0.15181(8) 0.2217(3) 0.04447(14)
N5 N -0.17638(9) 0.2999(3) 0.05521(17)
N6 N -0.19790(9) 0.2985(4) 0.00825(18)
N7 N 0.05825(7) 1.0191(2) 0.54164(11)
N8 N 0.05470(7) 1.1055(2) 0.58258(11)
N9 N 0.07186(7) 1.0701(2) 0.63280(11)
C1 C -0.10778(8) 0.5494(3) -0.02168(14)
C2 C -0.09441(8) 0.4812(3) -0.06582(14)
H1 H -0.0716 0.4713 -0.0641
C3 C -0.11431(9) 0.4277(3) -0.11219(14)
C4 C -0.14831(9) 0.4473(3) -0.11733(16)
H2 H -0.1620 0.4135 -0.1489
C5 C -0.16134(9) 0.5192(3) -0.07370(18)
C6 C -0.14165(9) 0.5677(3) -0.02548(16)
H3 H -0.1511 0.6121 0.0040
C7 C -0.08529(8) 0.5965(3) 0.03065(13)
C8 C -0.09816(9) 0.3425(3) -0.15299(14)
C9 C -0.21515(10) 0.5613(4) -0.0314(2)
H4 H -0.2083 0.5590 0.0096
C10 C -0.24624(11) 0.5836(4) -0.0576(3)
C11 C -0.27665(12) 0.6054(4) -0.0266(4)
C12 C -0.30630(12) 0.6340(5) -0.0623(4)
H5 H -0.3066 0.6383 -0.1040
C13 C -0.33513(14) 0.6558(5) -0.0342(5)
H6 H -0.3550 0.6735 -0.0568
C14 C -0.33326(16) 0.6501(6) 0.0296(6)
H7 H -0.3522 0.6658 0.0488
C15 C -0.30439(15) 0.6223(6) 0.0642(5)
H8 H -0.3039 0.6178 0.1060
C16 C -0.27558(15) 0.6007(5) 0.0352(4)
H9 H -0.2557 0.5832 0.0580
C17 C -0.08506(8) 0.2973(3) 0.16212(14)
C18 C -0.07734(8) 0.1829(3) 0.18700(13)
H10 H -0.0624 0.1760 0.2211
C19 C -0.09217(8) 0.0796(3) 0.16055(14)
C20 C -0.11598(9) 0.0902(3) 0.11175(15)
H11 H -0.1260 0.0214 0.0941
C21 C -0.12461(9) 0.2053(3) 0.08970(16)
C22 C -0.10869(9) 0.3084(3) 0.11308(15)
H12 H -0.1137 0.3841 0.0962
C23 C -0.06745(8) 0.4089(3) 0.18630(14)
C24 C -0.08343(8) -0.0443(3) 0.18618(13)
C25 C -0.15824(11) 0.1718(4) -0.01050(18)
H13 H -0.1455 0.1147 -0.0287
C26 C -0.18731(11) 0.2222(4) -0.03405(19)
C27 C -0.20668(12) 0.2081(4) -0.0932(2)
C28 C -0.19275(16) 0.1596(5) -0.1417(2)
H14 H -0.1709 0.1329 -0.1368
C29 C -0.21053(19) 0.1495(7) -0.1980(3)
H15 H -0.2006 0.1177 -0.2306
C30 C -0.2432(2) 0.1875(7) -0.2049(3)
H16 H -0.2557 0.1781 -0.2418
C31 C -0.25728(16) 0.2395(8) -0.1569(3)
H17 H -0.2789 0.2685 -0.1620
C32 C -0.23898(13) 0.2483(6) -0.1008(3)
H18 H -0.2486 0.2815 -0.0683
C33 C 0.01827(7) 0.9348(2) 0.39229(12)
C34 C 0.00833(8) 1.0468(2) 0.36835(13)
H19 H -0.0032 1.0520 0.3303
C35 C 0.01595(8) 1.1515(3) 0.40223(13)
C36 C 0.03251(8) 1.1435(3) 0.45956(13)
H20 H 0.0376 1.2132 0.4821
C37 C 0.04147(8) 1.0297(3) 0.48295(13)
C38 C 0.03470(8) 0.9257(3) 0.44965(13)
H21 H 0.0411 0.8503 0.4655
C39 C 0.01316(8) 0.8199(2) 0.35725(13)
C40 C 0.00880(8) 1.2760(3) 0.37454(13)
C41 C 0.07763(9) 0.9271(3) 0.56557(14)
H22 H 0.0835 0.8567 0.5462
C42 C 0.08656(8) 0.9599(3) 0.62383(14)
C43 C 0.10897(9) 0.8956(3) 0.66920(15)
C44 C 0.13194(9) 0.9589(4) 0.70729(16)
H23 H 0.1326 1.0432 0.7060
C45 C 0.15398(10) 0.8958(4) 0.74743(19)
H24 H 0.1691 0.9382 0.7735
C46 C 0.15351(11) 0.7707(4) 0.74882(19)
H25 H 0.1687 0.7291 0.7752
C47 C 0.13060(11) 0.7070(4) 0.71121(19)
H26 H 0.1303 0.6227 0.7125
C48 C 0.10815(11) 0.7687(3) 0.67158(17)
H27 H 0.0926 0.7260 0.6466
Co2B Co 0.022962(10) 0.54463(3) 0.392053(17)
Co2B_2 Co 0.022962(10) 1.54463(3) 0.392053(17)
Co2_2 Co -0.022962(10) 1.54463(3) 0.107947(17)
Co2D Co 0.022962(10) 0.45537(3) -0.107947(17)
Co3_2 Co 0.0000 1.40235(5) 0.2500
Co4B Co -0.063819(11) 0.81164(3) 0.295137(17)
Co4D Co -0.063819(11) 0.18836(3) -0.204863(17)
Co4B_2 Co -0.063819(11) -0.18836(3) 0.295137(17)
Co4F Co 0.063819(11) 1.18836(3) 0.704863(17)
Co4D_2 Co -0.063819(11) 1.18836(3) -0.204863(17)
Co4_2 Co 0.063819(11) -0.18836(3) 0.204863(17)
Co5B Co -0.080738(11) 0.68835(3) 0.155537(18)
Co5B_2 Co -0.080738(11) -0.31165(3) 0.155537(18)
Co5_2 Co 0.080738(11) -0.31165(3) 0.344463(18)
Co5F Co 0.080738(11) 0.31165(3) -0.155537(18)
O1B O -0.12392(6) 0.6262(2) 0.18934(12)
O2B O -0.01470(6) 0.6105(2) 0.44428(11)
O3B O -0.00517(6) 0.54075(17) 0.31224(9)
O4B O -0.05300(5) 0.68369(17) 0.23606(9)
O8D O 0.09818(6) 0.3385(2) -0.06819(10)
O8B O 0.09818(6) 0.6615(2) 0.43181(10)
O9D O 0.05529(6) 0.43607(19) -0.03270(9)
O9B O 0.05529(6) 0.56393(19) 0.46730(9)
O10D O 0.06689(6) 0.6688(2) 0.14366(10)
O10F O -0.06689(6) 0.6688(2) 0.35634(10)
O11D O 0.11454(6) 0.7186(2) 0.19239(10)
O11F O -0.11454(6) 0.7186(2) 0.30761(10)
O12B O 0.09434(6) -0.13395(18) 0.34541(10)
O12B_2 O 0.09434(6) 0.86605(18) 0.34541(10)
O12_2 O -0.09434(6) 0.86605(18) 0.15459(10)
O13B O 0.06645(6) -0.04991(19) 0.26403(10)
O13B_2 O 0.06645(6) 0.95009(19) 0.26403(10)
O13_2 O -0.06645(6) 0.95009(19) 0.23597(10)
O14B O 0.05351(6) 0.40823(19) 0.26125(10)
O15B O 0.06698(6) 0.49752(18) 0.35076(9)
O16B O -0.01353(6) 1.36574(18) 0.09011(10)
O16B_2 O -0.01353(6) 0.36574(18) 0.09011(10)
O16_2 O 0.01353(6) 0.36574(18) 0.40989(10)
O17B O -0.00014(6) 1.27814(19) 0.18078(10)
O17_2 O 0.00014(6) 0.27814(19) 0.31922(10)
O17B_2 O -0.00014(6) 0.27814(19) 0.18078(10)
O18B O 0.00809(5) 0.81576(17) 0.18760(9)
O19B O -0.03174(5) 0.73226(17) 0.12481(9)
N1D N 0.19626(8) 0.4569(3) 0.07753(17)
N2D N 0.21469(11) 0.4468(4) 0.1314(2)
N3D N 0.24513(10) 0.4220(5) 0.1185(3)
N4B N 0.15181(8) 0.2217(3) 0.45553(14)
N5B N 0.17638(9) 0.2999(3) 0.44479(17)
N6B N 0.19790(9) 0.2985(4) 0.49175(18)
N7B N -0.05825(7) 1.0191(2) -0.04164(11)
N8B N -0.05470(7) 1.1055(2) -0.08258(11)
N9B N -0.07186(7) 1.0701(2) -0.13280(11)
N9F N 0.07186(7) 0.9299(2) 0.13280(11)
N9D N -0.07186(7) 0.9299(2) 0.36720(11)
C1D C 0.10778(8) 0.4506(3) 0.02168(14)
C2D C 0.09441(8) 0.5188(3) 0.06582(14)
H1D H 0.0716 0.5287 0.0641
C3D C 0.11431(9) 0.5723(3) 0.11219(14)
C4D C 0.14831(9) 0.5527(3) 0.11733(16)
H2D H 0.1620 0.5865 0.1489
C5D C 0.16134(9) 0.4808(3) 0.07370(18)
C6D C 0.14165(9) 0.4323(3) 0.02548(16)
H3D H 0.1511 0.3879 -0.0040
C7D C 0.08529(8) 0.4035(3) -0.03065(13)
C8D C 0.09816(9) 0.6575(3) 0.15299(14)
C9D C 0.21515(10) 0.4387(4) 0.0314(2)
H4D H 0.2083 0.4410 -0.0096
C10D C 0.24624(11) 0.4164(4) 0.0576(3)
C11D C 0.27665(12) 0.3946(4) 0.0266(4)
C12D C 0.30630(12) 0.3660(5) 0.0623(4)
H5D H 0.3066 0.3617 0.1040
C13D C 0.33513(14) 0.3442(5) 0.0342(5)
H6D H 0.3550 0.3265 0.0568
C14D C 0.33326(16) 0.3499(6) -0.0296(6)
H7D H 0.3522 0.3342 -0.0488
C15D C 0.30439(15) 0.3777(6) -0.0642(5)
H8D H 0.3039 0.3822 -0.1060
C16D C 0.27558(15) 0.3993(5) -0.0352(4)
H9D H 0.2557 0.4168 -0.0580
C17B C 0.08506(8) 0.2973(3) 0.33788(14)
C18B C 0.07734(8) 0.1829(3) 0.31300(13)
H10B H 0.0624 0.1760 0.2789
C19B C 0.09217(8) 0.0796(3) 0.33945(14)
C20B C 0.11598(9) 0.0902(3) 0.38825(15)
H11B H 0.1260 0.0214 0.4059
C21B C 0.12461(9) 0.2053(3) 0.41030(16)
C22B C 0.10869(9) 0.3084(3) 0.38692(15)
H12B H 0.1137 0.3841 0.4038
C23B C 0.06745(8) 0.4089(3) 0.31370(14)
C24B C 0.08343(8) -0.0443(3) 0.31382(13)
C25B C 0.15824(11) 0.1718(4) 0.51050(18)
H13B H 0.1455 0.1147 0.5287
C26B C 0.18731(11) 0.2222(4) 0.53405(19)
C27B C 0.20668(12) 0.2081(4) 0.5932(2)
C28B C 0.19275(16) 0.1596(5) 0.6417(2)
H14B H 0.1709 0.1329 0.6368
C29B C 0.21053(19) 0.1495(7) 0.6980(3)
H15B H 0.2006 0.1177 0.7306
C30B C 0.2432(2) 0.1875(7) 0.7049(3)
H16B H 0.2557 0.1781 0.7418
C31B C 0.25728(16) 0.2395(8) 0.6569(3)
H17B H 0.2789 0.2685 0.6620
C32B C 0.23898(13) 0.2483(6) 0.6008(3)
H18B H 0.2486 0.2815 0.5683
C33B C -0.01827(7) 0.9348(2) 0.10771(12)
C34B C -0.00833(8) 1.0468(2) 0.13165(13)
H19B H 0.0032 1.0520 0.1697
C35B C -0.01595(8) 1.1515(3) 0.09777(13)
C36B C -0.03251(8) 1.1435(3) 0.04044(13)
H20B H -0.0376 1.2132 0.0179
C37B C -0.04147(8) 1.0297(3) 0.01705(13)
C38B C -0.03470(8) 0.9257(3) 0.05035(13)
H21B H -0.0411 0.8503 0.0345
C39B C -0.01316(8) 0.8199(2) 0.14275(13)
C40B C -0.00880(8) 1.2760(3) 0.12546(13)
C41B C -0.07763(9) 0.9271(3) -0.06557(14)
H22B H -0.0835 0.8567 -0.0462
C42B C -0.08656(8) 0.9599(3) -0.12383(14)
C43B C -0.10897(9) 0.8956(3) -0.16920(15)
C44B C -0.13194(9) 0.9589(4) -0.20729(16)
H23B H -0.1326 1.0432 -0.2060
C45B C -0.15398(10) 0.8958(4) -0.24743(19)
H24B H -0.1691 0.9382 -0.2735
C46B C -0.15351(11) 0.7707(4) -0.24882(19)
H25B H -0.1687 0.7291 -0.2752
C47B C -0.13060(11) 0.7070(4) -0.21121(19)
H26B H -0.1303 0.6227 -0.2125
C48B C -0.10815(11) 0.7687(3) -0.17158(17)
H27B H -0.0926 0.7260 -0.1466
O5 O 0.20287(15) 0.5513(6) 0.2526(3)
O6 O 0.17862(10) 0.5220(4) 0.3704(2)
O7 O 0.2308(6) 0.665(2) 0.3376(10)
loop_
_geom_bond_atom_site_label_1
_geom_bond_atom_site_label_2
_geom_bond_site_symmetry_1
_geom_bond_site_symmetry_2
Co1 O3 1_555 1_555
Co2 O2 1_555 1_555
Co3 O3 1_555 1_555
Co4 O4 1_555 1_555
Co5 O1 1_555 1_555
O3 Co2 1_555 1_555
O4 Co1 1_555 1_555
O8 C7 1_555 1_555
O9 Co2 1_555 1_555
O10 C8 1_555 1_555
O11 C8 1_555 1_555
O12 C24 1_555 1_555
O13 C24 1_555 1_555
O14 Co3 1_555 1_555
O15 Co2 1_555 1_555
O16 C40 1_555 1_555
O17 C40 1_555 1_555
O18 Co1 1_555 1_555
O19 Co5 1_555 1_555
N1 N2 1_555 1_555
N2 N3 1_555 1_555
N3 C10 1_555 1_555
N4 N5 1_555 1_555
N5 N6 1_555 1_555
N6 C26 1_555 1_555
N7 N8 1_555 1_555
N8 N9 1_555 1_555
N9 C42 1_555 1_555
C1 C2 1_555 1_555
C2 H1 1_555 1_555
C3 C2 1_555 1_555
C4 C3 1_555 1_555
H2 C4 1_555 1_555
C5 N1 1_555 1_555
C6 C1 1_555 1_555
H3 C6 1_555 1_555
C7 O9 1_555 1_555
C8 C3 1_555 1_555
C9 N1 1_555 1_555
H4 C9 1_555 1_555
C10 C9 1_555 1_555
C11 C10 1_555 1_555
C12 C11 1_555 1_555
H5 C12 1_555 1_555
C13 C12 1_555 1_555
H6 C13 1_555 1_555
C14 C13 1_555 1_555
H7 C14 1_555 1_555
C15 C14 1_555 1_555
H8 C15 1_555 1_555
C16 C11 1_555 1_555
H9 C16 1_555 1_555
C17 C18 1_555 1_555
C18 H10 1_555 1_555
C19 C18 1_555 1_555
C20 C19 1_555 1_555
H11 C20 1_555 1_555
C21 N4 1_555 1_555
C22 C17 1_555 1_555
H12 C22 1_555 1_555
C23 O14 1_555 1_555
C24 C19 1_555 1_555
C25 N4 1_555 1_555
H13 C25 1_555 1_555
C26 C25 1_555 1_555
C27 C26 1_555 1_555
C28 C27 1_555 1_555
H14 C28 1_555 1_555
C29 C28 1_555 1_555
H15 C29 1_555 1_555
C30 C29 1_555 1_555
H16 C30 1_555 1_555
C31 C30 1_555 1_555
H17 C31 1_555 1_555
C32 C27 1_555 1_555
H18 C32 1_555 1_555
C33 C34 1_555 1_555
C34 H19 1_555 1_555
C35 C34 1_555 1_555
C36 C35 1_555 1_555
H20 C36 1_555 1_555
C37 N7 1_555 1_555
C38 C33 1_555 1_555
H21 C38 1_555 1_555
C39 O18 1_555 1_555
C40 C35 1_555 1_555
C41 N7 1_555 1_555
H22 C41 1_555 1_555
C42 C41 1_555 1_555
C43 C42 1_555 1_555
C44 C43 1_555 1_555
H23 C44 1_555 1_555
C45 C44 1_555 1_555
H24 C45 1_555 1_555
C46 C45 1_555 1_555
H25 C46 1_555 1_555
C47 C46 1_555 1_555
H26 C47 1_555 1_555
C48 C43 1_555 1_555
H27 C48 1_555 1_555
Co2B O19 1_555 1_555
Co2B_2 O16 1_555 1_555
Co2_2 O16B 1_555 1_555
Co2D O9D 1_555 1_555
Co3_2 O17 1_555 1_555
Co4B O18 1_555 1_555
Co4D O10 1_555 1_555
Co4B_2 O13 1_555 1_555
Co4F N9 1_555 1_555
Co4D_2 N9B 1_555 1_555
Co4_2 O13B 1_555 1_555
Co5B O8 1_555 1_555
Co5B_2 O12 1_555 1_555
Co5_2 O12B 1_555 1_555
Co5F O8D 1_555 1_555
O1B Co5B 1_555 1_555
O2B Co2B 1_555 1_555
O3B Co1 1_555 1_555
O4B Co1 1_555 1_555
O8D C7D 1_555 1_555
O8B Co5 1_555 1_555
O9D C7D 1_555 1_555
O9B Co2B 1_555 1_555
O10D Co4 1_555 1_555
O10F Co4B 1_555 1_555
O11D Co4 1_555 1_555
O11F Co4B 1_555 1_555
O12B C24B 1_555 1_555
O12B_2 Co5 1_555 1_555
O12_2 Co5B 1_555 1_555
O13B C24B 1_555 1_555
O13B_2 Co4 1_555 1_555
O13_2 Co4B 1_555 1_555
O14B Co3 1_555 1_555
O15B Co5 1_555 1_555
O16B C40B 1_555 1_555
O16B_2 Co2 1_555 1_555
O16_2 Co2B 1_555 1_555
O17B Co3_2 1_555 1_555
O17_2 Co3 1_555 1_555
O17B_2 Co3 1_555 1_555
O18B Co1 1_555 1_555
O19B Co2 1_555 1_555
N1D N2D 1_555 1_555
N2D N3D 1_555 1_555
N3D C10D 1_555 1_555
N4B N5B 1_555 1_555
N5B N6B 1_555 1_555
N6B C26B 1_555 1_555
N7B N8B 1_555 1_555
N8B N9B 1_555 1_555
N9B C42B 1_555 1_555
N9F Co4 1_555 1_555
N9D Co4B 1_555 1_555
C1D C2D 1_555 1_555
C2D H1D 1_555 1_555
C3D C2D 1_555 1_555
C4D C3D 1_555 1_555
H2D C4D 1_555 1_555
C5D N1D 1_555 1_555
C6D C1D 1_555 1_555
H3D C6D 1_555 1_555
C7D C1D 1_555 1_555
C8D O10D 1_555 1_555
C9D N1D 1_555 1_555
H4D C9D 1_555 1_555
C10D C9D 1_555 1_555
C11D C10D 1_555 1_555
C12D C11D 1_555 1_555
H5D C12D 1_555 1_555
C13D C12D 1_555 1_555
H6D C13D 1_555 1_555
C14D C13D 1_555 1_555
H7D C14D 1_555 1_555
C15D C14D 1_555 1_555
H8D C15D 1_555 1_555
C16D C11D 1_555 1_555
H9D C16D 1_555 1_555
C17B C18B 1_555 1_555
C18B H10B 1_555 1_555
C19B C18B 1_555 1_555
C20B C19B 1_555 1_555
H11B C20B 1_555 1_555
C21B N4B 1_555 1_555
C22B C17B 1_555 1_555
H12B C22B 1_555 1_555
C23B O14B 1_555 1_555
C24B C19B 1_555 1_555
C25B N4B 1_555 1_555
H13B C25B 1_555 1_555
C26B C25B 1_555 1_555
C27B C26B 1_555 1_555
C28B C27B 1_555 1_555
H14B C28B 1_555 1_555
C29B C28B 1_555 1_555
H15B C29B 1_555 1_555
C30B C29B 1_555 1_555
H16B C30B 1_555 1_555
C31B C30B 1_555 1_555
H17B C31B 1_555 1_555
C32B C27B 1_555 1_555
H18B C32B 1_555 1_555
C33B C34B 1_555 1_555
C34B H19B 1_555 1_555
C35B C34B 1_555 1_555
C36B C35B 1_555 1_555
H20B C36B 1_555 1_555
C37B N7B 1_555 1_555
C38B C33B 1_555 1_555
H21B C38B 1_555 1_555
C39B O18B 1_555 1_555
C40B O17B 1_555 1_555
C41B N7B 1_555 1_555
H22B C41B 1_555 1_555
C42B C41B 1_555 1_555
C43B C42B 1_555 1_555
C44B C43B 1_555 1_555
H23B C44B 1_555 1_555
C45B C44B 1_555 1_555
H24B C45B 1_555 1_555
C46B C45B 1_555 1_555
H25B C46B 1_555 1_555
C47B C46B 1_555 1_555
H26B C47B 1_555 1_555
C48B C43B 1_555 1_555
H27B C48B 1_555 1_555
Co3 O3B 1_555 1_555
Co4 O18B 1_555 1_555
Co5 O4 1_555 1_555
O11 Co4D 1_555 1_555
O15 C23 1_555 1_555
O15 Co5B 1_555 1_555
O19 C39 1_555 1_555
C1 C7 1_555 1_555
C4 C5 1_555 1_555
C5 C6 1_555 1_555
C15 C16 1_555 1_555
C17 C23 1_555 1_555
C20 C21 1_555 1_555
C21 C22 1_555 1_555
C31 C32 1_555 1_555
C33 C39 1_555 1_555
C36 C37 1_555 1_555
C37 C38 1_555 1_555
C47 C48 1_555 1_555
Co2B O3B 1_555 1_555
Co2B O15B 1_555 1_555
Co4B O4B 1_555 1_555
Co5B O4B 1_555 1_555
Co5B O19B 1_555 1_555
O11D C8D 1_555 1_555
O15B C23B 1_555 1_555
O19B C39B 1_555 1_555
C3D C8D 1_555 1_555
C4D C5D 1_555 1_555
C5D C6D 1_555 1_555
C15D C16D 1_555 1_555
C17B C23B 1_555 1_555
C20B C21B 1_555 1_555
C21B C22B 1_555 1_555
C31B C32B 1_555 1_555
C33B C39B 1_555 1_555
C35B C40B 1_555 1_555
C36B C37B 1_555 1_555
C37B C38B 1_555 1_555
C47B C48B 1_555 1_555

#END
