
#######################################################################
#
#                 Cambridge Crystallographic Data Centre
#                                CCDC 
#
#######################################################################
#
# If this CIF has been generated from an entry in the Cambridge 
# Structural Database, then it will include bibliographic, chemical, 
# crystal, experimental, refinement or atomic coordinate data resulting 
# from the CCDC's data processing and validation procedures.
#
#######################################################################

data_LIMCUG
_symmetry_cell_setting           monoclinic
_symmetry_space_group_name_H-M   'P 21/c'
_symmetry_Int_Tables_number      14
_space_group_name_Hall           '-P 2ybc'
loop_
_symmetry_equiv_pos_site_id
_symmetry_equiv_pos_as_xyz
1 x,y,z
2 -x,1/2+y,1/2-z
3 -x,-y,-z
4 x,1/2-y,1/2+z
_cell_length_a                   12.024(3)
_cell_length_b                   16.623(5)
_cell_length_c                   18.556(5)
_cell_angle_alpha                90
_cell_angle_beta                 99.425(5)
_cell_angle_gamma                90
_cell_volume                     3658.81
loop_
_atom_site_label
_atom_site_type_symbol
_atom_site_fract_x
_atom_site_fract_y
_atom_site_fract_z
Cr1 Cr 0.39981(10) 0.03196(7) 0.20623(7)
Na1 Na 0.6185(3) 0.18744(19) 0.23962(19)
N1 N 0.2328(5) 0.0408(4) 0.2044(3)
N2 N 0.3491(6) -0.0772(4) 0.1775(3)
N3 N 0.5449(6) -0.0239(5) 0.1950(4)
N4 N 0.4522(6) 0.1386(4) 0.2326(4)
H1 H 0.4013 0.1718 0.2431
C1 C 0.0470(7) -0.0314(5) 0.1798(5)
H2 H 0.0193 0.0206 0.1927
H3 H 0.0288 -0.0718 0.2137
H4 H 0.0119 -0.0455 0.1306
C2 C 0.1710(7) -0.0275(5) 0.1835(4)
C3 C 0.2356(7) -0.0935(5) 0.1677(4)
C4 C 0.1977(7) -0.1721(5) 0.1435(4)
H5 H 0.1209 -0.1855 0.1387
C5 C 0.2750(8) -0.2280(5) 0.1272(5)
H6 H 0.2500 -0.2789 0.1096
C6 C 0.3900(7) -0.2096(5) 0.1367(4)
H7 H 0.4423 -0.2479 0.1256
C7 C 0.4261(7) -0.1331(5) 0.1629(4)
C8 C 0.5394(7) -0.1031(4) 0.1734(4)
C9 C 0.6373(7) -0.1509(5) 0.1648(5)
H8 H 0.7046 -0.1180 0.1756
H9 H 0.6295 -0.1703 0.1149
H10 H 0.6434 -0.1963 0.1980
C10 C 0.1687(6) 0.1385(5) 0.2868(5)
C11 C 0.1219(7) 0.2138(6) 0.2972(5)
H11 H 0.1196 0.2313 0.3451
C12 C 0.0795(7) 0.2629(5) 0.2400(6)
H12 H 0.0473 0.3129 0.2485
C13 C 0.0847(7) 0.2379(5) 0.1706(6)
H13 H 0.0556 0.2714 0.1312
C14 C 0.1324(6) 0.1635(5) 0.1564(5)
C15 C 0.1748(6) 0.1135(5) 0.2161(5)
C16 C 0.2121(6) 0.0856(5) 0.3534(4)
H14 H 0.2378 0.0342 0.3347
C17 C 0.1193(8) 0.0652(6) 0.3978(5)
H15 H 0.0562 0.0406 0.3661
H16 H 0.0942 0.1141 0.4188
H17 H 0.1484 0.0280 0.4366
C18 C 0.3132(8) 0.1233(6) 0.4013(5)
H18 H 0.3713 0.1344 0.3721
H19 H 0.3423 0.0864 0.4404
H20 H 0.2904 0.1730 0.4220
C19 C 0.1439(7) 0.1404(5) 0.0786(5)
H21 H 0.1715 0.0842 0.0795
C20 C 0.0332(10) 0.1438(8) 0.0267(6)
H22 H -0.0212 0.1091 0.0445
H23 H 0.0445 0.1258 -0.0214
H24 H 0.0053 0.1986 0.0235
C21 C 0.2338(9) 0.1946(7) 0.0520(6)
H25 H 0.3039 0.1910 0.0862
H26 H 0.2077 0.2499 0.0491
H27 H 0.2461 0.1768 0.0042
C22 C 0.7139(7) 0.0259(5) 0.2773(4)
C23 C 0.8097(7) 0.0737(5) 0.2873(5)
H28 H 0.8513 0.0791 0.3346
C24 C 0.8456(7) 0.1134(5) 0.2309(6)
H29 H 0.9087 0.1476 0.2396
C25 C 0.7876(7) 0.1025(5) 0.1609(5)
H30 H 0.8148 0.1267 0.1214
C26 C 0.6893(7) 0.0561(5) 0.1474(5)
C27 C 0.6542(6) 0.0181(4) 0.2070(5)
C28 C 0.6775(8) -0.0178(5) 0.3413(5)
H31 H 0.6134 -0.0528 0.3210
C29 C 0.6358(10) 0.0378(6) 0.3937(6)
H32 H 0.5765 0.0714 0.3678
H33 H 0.6973 0.0714 0.4169
H34 H 0.6063 0.0067 0.4307
C30 C 0.7692(11) -0.0728(7) 0.3814(6)
H35 H 0.7412 -0.0996 0.4213
H36 H 0.8351 -0.0410 0.4006
H37 H 0.7896 -0.1127 0.3477
C31 C 0.6264(7) 0.0468(5) 0.0681(4)
H38 H 0.5722 0.0019 0.0681
C32 C 0.5580(8) 0.1221(5) 0.0453(5)
H39 H 0.5094 0.1338 0.0808
H40 H 0.5124 0.1136 -0.0023
H41 H 0.6087 0.1671 0.0427
C33 C 0.7031(8) 0.0255(6) 0.0143(5)
H42 H 0.6589 0.0201 -0.0341
H43 H 0.7409 -0.0250 0.0285
H44 H 0.7588 0.0677 0.0139
O1 O 0.6530(6) 0.2905(4) 0.1690(4)
C34 C 0.7560(10) 0.3226(6) 0.1502(6)
H45 H 0.8145 0.2811 0.1535
H46 H 0.7841 0.3677 0.1821
C35 C 0.7213(14) 0.3500(9) 0.0731(7)
H47 H 0.7656 0.3969 0.0629
H48 H 0.7322 0.3069 0.0389
C36 C 0.6043(16) 0.3704(10) 0.0667(9)
H49 H 0.5611 0.3448 0.0234
H50 H 0.5943 0.4288 0.0620
C37 C 0.5638(10) 0.3408(7) 0.1349(6)
H51 H 0.5515 0.3858 0.1668
H52 H 0.4935 0.3103 0.1227
Na1A Na 0.3815(3) -0.31256(19) 0.26038(19)
C5A C 0.7250(8) 0.2720(5) 0.3728(5)
H6A H 0.7500 0.2211 0.3904
C6A C 0.6100(7) 0.2904(5) 0.3633(4)
H7A H 0.5577 0.2521 0.3744
loop_
_geom_bond_atom_site_label_1
_geom_bond_atom_site_label_2
_geom_bond_site_symmetry_1
_geom_bond_site_symmetry_2
Cr1 N1 1_555 1_555
Na1 N4 1_555 1_555
N1 C2 1_555 1_555
N2 Cr1 1_555 1_555
N3 Cr1 1_555 1_555
N4 Cr1 1_555 1_555
H1 N4 1_555 1_555
C1 H2 1_555 1_555
H3 C1 1_555 1_555
H4 C1 1_555 1_555
C2 C1 1_555 1_555
C3 N2 1_555 1_555
C4 C3 1_555 1_555
H5 C4 1_555 1_555
C5 C4 1_555 1_555
H6 C5 1_555 1_555
C6 C5 1_555 1_555
H7 C6 1_555 1_555
C7 N2 1_555 1_555
C8 N3 1_555 1_555
C9 C8 1_555 1_555
H8 C9 1_555 1_555
H9 C9 1_555 1_555
H10 C9 1_555 1_555
C10 C11 1_555 1_555
C11 H11 1_555 1_555
C12 C11 1_555 1_555
H12 C12 1_555 1_555
C13 C12 1_555 1_555
H13 C13 1_555 1_555
C14 C13 1_555 1_555
C15 N1 1_555 1_555
C16 C10 1_555 1_555
H14 C16 1_555 1_555
C17 C16 1_555 1_555
H15 C17 1_555 1_555
H16 C17 1_555 1_555
H17 C17 1_555 1_555
C18 C16 1_555 1_555
H18 C18 1_555 1_555
H19 C18 1_555 1_555
H20 C18 1_555 1_555
C19 C14 1_555 1_555
H21 C19 1_555 1_555
C20 C19 1_555 1_555
H22 C20 1_555 1_555
H23 C20 1_555 1_555
H24 C20 1_555 1_555
C21 C19 1_555 1_555
H25 C21 1_555 1_555
H26 C21 1_555 1_555
H27 C21 1_555 1_555
C22 Na1 1_555 1_555
C23 Na1 1_555 1_555
H28 C23 1_555 1_555
C24 Na1 1_555 1_555
H29 C24 1_555 1_555
C25 Na1 1_555 1_555
H30 C25 1_555 1_555
C26 Na1 1_555 1_555
C27 Na1 1_555 1_555
C28 C22 1_555 1_555
H31 C28 1_555 1_555
C29 C28 1_555 1_555
H32 C29 1_555 1_555
H33 C29 1_555 1_555
H34 C29 1_555 1_555
C30 C28 1_555 1_555
H35 C30 1_555 1_555
H36 C30 1_555 1_555
H37 C30 1_555 1_555
C31 C26 1_555 1_555
H38 C31 1_555 1_555
C32 C31 1_555 1_555
H39 C32 1_555 1_555
H40 C32 1_555 1_555
H41 C32 1_555 1_555
C33 C31 1_555 1_555
H42 C33 1_555 1_555
H43 C33 1_555 1_555
H44 C33 1_555 1_555
O1 Na1 1_555 1_555
C34 O1 1_555 1_555
H45 C34 1_555 1_555
H46 C34 1_555 1_555
C35 C34 1_555 1_555
H47 C35 1_555 1_555
H48 C35 1_555 1_555
C36 C35 1_555 1_555
H49 C36 1_555 1_555
H50 C36 1_555 1_555
C37 O1 1_555 1_555
H51 C37 1_555 1_555
H52 C37 1_555 1_555
Na1A C5 1_555 1_555
C5A Na1 1_555 1_555
H6A C5A 1_555 1_555
C6A Na1 1_555 1_555
H7A C6A 1_555 1_555
N3 C27 1_555 1_555
C2 C3 1_555 1_555
C6 C7 1_555 1_555
C6 Na1A 1_555 1_555
C7 C8 1_555 1_555
C10 C15 1_555 1_555
C14 C15 1_555 1_555
C22 C23 1_555 1_555
C22 C27 1_555 1_555
C23 C24 1_555 1_555
C24 C25 1_555 1_555
C25 C26 1_555 1_555
C26 C27 1_555 1_555
C36 C37 1_555 1_555
C5A C6A 1_555 1_555

#END
