
#######################################################################
#
#                 Cambridge Crystallographic Data Centre
#                                CCDC 
#
#######################################################################
#
# If this CIF has been generated from an entry in the Cambridge 
# Structural Database, then it will include bibliographic, chemical, 
# crystal, experimental, refinement or atomic coordinate data resulting 
# from the CCDC's data processing and validation procedures.
#
#######################################################################

data_LIMKIC
_symmetry_cell_setting           monoclinic
_symmetry_space_group_name_H-M   'P 21/c'
_symmetry_Int_Tables_number      14
_space_group_name_Hall           '-P 2ybc'
loop_
_symmetry_equiv_pos_site_id
_symmetry_equiv_pos_as_xyz
1 x,y,z
2 -x,1/2+y,1/2-z
3 -x,-y,-z
4 x,1/2-y,1/2+z
_cell_length_a                   9.1389(11)
_cell_length_b                   7.5329(9)
_cell_length_c                   9.8597(12)
_cell_angle_alpha                90
_cell_angle_beta                 99.527(5)
_cell_angle_gamma                90
_cell_volume                     669.404
loop_
_atom_site_label
_atom_site_type_symbol
_atom_site_fract_x
_atom_site_fract_y
_atom_site_fract_z
Sr1 Sr 0.542671(14) 0.038813(15) 0.304060(11)
S1 S 0.87514(4) 0.01191(5) 0.19219(4)
O1 O 0.56755(12) -0.16085(14) 0.10031(10)
O2 O 0.61265(12) -0.21684(13) -0.11155(10)
O3 O 0.68803(11) 0.31711(13) 0.25317(9)
O4 O 0.67098(13) 0.45280(13) 0.05113(11)
C1 C 0.65283(16) -0.17425(17) 0.01276(13)
C2 C 0.81943(16) -0.1485(2) 0.05769(15)
H1 H 0.8626 -0.1126 -0.0238
H2 H 0.8634 -0.2645 0.0889
C3 C 0.72552(15) 0.33616(18) 0.13655(13)
C4 C 0.84506(16) 0.21723(19) 0.09445(14)
H3 H 0.9395 0.2842 0.1057
H4 H 0.8172 0.1876 -0.0043
Sr1A Sr 0.457329(14) -0.461187(15) 0.195940(11)
Sr1C Sr 0.542671(14) -0.538813(15) -0.195940(11)
Sr1B Sr 0.457329(14) -0.038813(15) -0.304060(11)
Sr1A_2 Sr 0.457329(14) 0.538813(15) 0.195940(11)
Sr1C_2 Sr 0.542671(14) 0.461187(15) -0.195940(11)
O1A O 0.43245(12) 0.33915(14) 0.39969(10)
O2C O 0.61265(12) -0.28316(13) 0.38845(10)
O2B O 0.38735(12) 0.21684(13) 0.11155(10)
O3A O 0.31197(11) -0.18289(13) 0.24683(9)
O4C O 0.67098(13) 0.04720(13) 0.55113(11)
O4A O 0.32902(13) -0.04720(13) 0.44887(11)
loop_
_geom_bond_atom_site_label_1
_geom_bond_atom_site_label_2
_geom_bond_site_symmetry_1
_geom_bond_site_symmetry_2
Sr1 S1 1_555 1_555
S1 C2 1_555 1_555
O1 Sr1 1_555 1_555
O2 C1 1_555 1_555
O3 Sr1 1_555 1_555
O4 C3 1_555 1_555
C1 O1 1_555 1_555
C2 C1 1_555 1_555
H1 C2 1_555 1_555
H2 C2 1_555 1_555
C3 O3 1_555 1_555
C4 S1 1_555 1_555
H3 C4 1_555 1_555
H4 C4 1_555 1_555
Sr1A O1 1_555 1_555
Sr1C O2 1_555 1_555
Sr1B O2 1_555 1_555
Sr1A_2 O3 1_555 1_555
Sr1C_2 O4 1_555 1_555
O1A Sr1 1_555 1_555
O2C Sr1 1_555 1_555
O2B Sr1 1_555 1_555
O3A Sr1 1_555 1_555
O4C Sr1 1_555 1_555
O4A Sr1 1_555 1_555
O4 Sr1A_2 1_555 1_555
C3 C4 1_555 1_555
Sr1A O2C 1_555 1_555
Sr1A O3A 1_555 1_555
Sr1A_2 O1A 1_555 1_555
Sr1A_2 O2B 1_555 1_555

#END
