
#######################################################################
#
#                 Cambridge Crystallographic Data Centre
#                                CCDC 
#
#######################################################################
#
# If this CIF has been generated from an entry in the Cambridge 
# Structural Database, then it will include bibliographic, chemical, 
# crystal, experimental, refinement or atomic coordinate data resulting 
# from the CCDC's data processing and validation procedures.
#
#######################################################################

data_LIMLUP
_symmetry_cell_setting           monoclinic
_symmetry_space_group_name_H-M   'P 21/c'
_symmetry_Int_Tables_number      14
_space_group_name_Hall           '-P 2ybc'
loop_
_symmetry_equiv_pos_site_id
_symmetry_equiv_pos_as_xyz
1 x,y,z
2 -x,1/2+y,1/2-z
3 -x,-y,-z
4 x,1/2-y,1/2+z
_cell_length_a                   14.813(3)
_cell_length_b                   5.6055(12)
_cell_length_c                   27.413(6)
_cell_angle_alpha                90
_cell_angle_beta                 95.250(3)
_cell_angle_gamma                90
_cell_volume                     2266.67
loop_
_atom_site_label
_atom_site_type_symbol
_atom_site_fract_x
_atom_site_fract_y
_atom_site_fract_z
Ag1 Ag 0.46107(3) 0.70826(8) 0.019319(14)
O1 O 0.4213(2) 0.4684(6) 0.07568(12)
O2 O 0.4681(2) 0.1377(6) 0.03997(12)
C1 C 0.4215(3) 0.2493(9) 0.06909(17)
C2 C 0.3628(3) 0.0933(9) 0.09775(17)
C3 C 0.3054(3) -0.0726(9) 0.07196(17)
C4 C 0.2917(3) -0.0808(9) 0.01920(17)
H1 H 0.3184 0.0385 0.0005
C5 C 0.2418(3) -0.2547(9) -0.00418(18)
H2 H 0.2341 -0.2554 -0.0390
C6 C 0.2005(3) -0.4364(10) 0.02208(18)
H3 H 0.1691 -0.5638 0.0051
C7 C 0.2063(3) -0.4263(10) 0.07164(18)
H4 H 0.1752 -0.5418 0.0891
C8 C 0.2578(3) -0.2475(9) 0.09794(17)
C9 C 0.2666(3) -0.2418(9) 0.14904(18)
H5 H 0.2364 -0.3591 0.1666
C10 C 0.3179(3) -0.0703(9) 0.17480(17)
C11 C 0.3229(4) -0.0618(11) 0.22735(18)
H6 H 0.2928 -0.1802 0.2446
C12 C 0.3694(4) 0.1106(11) 0.25230(19)
H7 H 0.3699 0.1164 0.2870
C13 C 0.4184(4) 0.2861(10) 0.2276(2)
H8 H 0.4516 0.4064 0.2459
C14 C 0.4172(3) 0.2807(10) 0.17784(18)
H9 H 0.4505 0.3972 0.1618
C15 C 0.3674(3) 0.1043(9) 0.14935(17)
Ag1B Ag 0.53893(3) 0.29174(8) -0.019319(14)
Ag1_2 Ag 0.46107(3) -0.29174(8) 0.019319(14)
O2_2 O 0.4681(2) 1.1377(6) 0.03997(12)
O2B O 0.5319(2) 0.8623(6) -0.03997(12)
Ag2 Ag 0.02196(3) 0.78868(7) 0.474207(14)
O3 O 0.0605(2) 1.0405(6) 0.41865(12)
O4 O 0.0334(2) 1.3714(6) 0.45972(12)
C16 C 0.0604(3) 1.2600(9) 0.42400(17)
C17 C 0.1001(3) 1.4151(9) 0.38550(17)
C18 C 0.0452(3) 1.5730(9) 0.35758(17)
C19 C -0.0507(4) 1.5753(9) 0.35675(18)
H10 H -0.0795 1.4659 0.3768
C20 C -0.1024(4) 1.7285(10) 0.32824(19)
H11 H -0.1666 1.7229 0.3279
C21 C -0.0615(4) 1.8972(10) 0.29879(19)
H12 H -0.0984 2.0060 0.2793
C22 C 0.0289(4) 1.9049(10) 0.29816(18)
H13 H 0.0552 2.0196 0.2783
C23 C 0.0859(4) 1.7441(9) 0.32678(17)
C24 C 0.1795(4) 1.7450(9) 0.32657(18)
H14 H 0.2067 1.8646 0.3082
C25 C 0.2353(4) 1.5795(10) 0.35194(17)
C26 C 0.3308(4) 1.5728(11) 0.34975(19)
H15 H 0.3585 1.6897 0.3309
C27 C 0.3827(4) 1.4065(11) 0.37344(19)
H16 H 0.4465 1.4088 0.3718
C28 C 0.3431(4) 1.2270(11) 0.40103(19)
H17 H 0.3801 1.1055 0.4166
C29 C 0.2522(4) 1.2277(10) 0.40539(18)
H18 H 0.2269 1.1092 0.4248
C30 C 0.1943(3) 1.4025(9) 0.38138(16)
Ag2B Ag -0.02196(3) 1.21132(7) 0.525793(14)
Ag2_2 Ag 0.02196(3) 1.78868(7) 0.474207(14)
O4_2 O 0.0334(2) 0.3714(6) 0.45972(12)
O4B O -0.0334(2) 0.6286(6) 0.54028(12)
loop_
_geom_bond_atom_site_label_1
_geom_bond_atom_site_label_2
_geom_bond_site_symmetry_1
_geom_bond_site_symmetry_2
Ag1 O1 1_555 1_555
O1 C1 1_555 1_555
O2 C1 1_555 1_555
C1 C2 1_555 1_555
C2 C3 1_555 1_555
C3 C4 1_555 1_555
C4 H1 1_555 1_555
C5 C4 1_555 1_555
H2 C5 1_555 1_555
C6 C5 1_555 1_555
H3 C6 1_555 1_555
C7 C6 1_555 1_555
H4 C7 1_555 1_555
C8 C3 1_555 1_555
C9 C8 1_555 1_555
H5 C9 1_555 1_555
C10 C9 1_555 1_555
C11 C10 1_555 1_555
H6 C11 1_555 1_555
C12 C11 1_555 1_555
H7 C12 1_555 1_555
C13 C12 1_555 1_555
H8 C13 1_555 1_555
C14 C13 1_555 1_555
H9 C14 1_555 1_555
C15 C2 1_555 1_555
Ag2 O3 1_555 1_555
O3 C16 1_555 1_555
O4 C16 1_555 1_555
C16 C17 1_555 1_555
C17 C18 1_555 1_555
C18 C19 1_555 1_555
C19 H10 1_555 1_555
C20 C19 1_555 1_555
H11 C20 1_555 1_555
C21 C20 1_555 1_555
H12 C21 1_555 1_555
C22 C21 1_555 1_555
H13 C22 1_555 1_555
C23 C18 1_555 1_555
C24 C23 1_555 1_555
H14 C24 1_555 1_555
C25 C24 1_555 1_555
C26 C25 1_555 1_555
H15 C26 1_555 1_555
C27 C26 1_555 1_555
H16 C27 1_555 1_555
C28 C27 1_555 1_555
H17 C28 1_555 1_555
C29 C28 1_555 1_555
H18 C29 1_555 1_555
C30 C17 1_555 1_555
Ag1B Ag1 1_555 1_555
Ag1_2 O2 1_555 1_555
O2_2 Ag1 1_555 1_555
O2B Ag1 1_555 1_555
Ag2B Ag2 1_555 1_555
Ag2_2 O4 1_555 1_555
O4_2 Ag2 1_555 1_555
O4B Ag2 1_555 1_555
O2 Ag1B 1_555 1_555
C7 C8 1_555 1_555
C10 C15 1_555 1_555
C14 C15 1_555 1_555
O4 Ag2B 1_555 1_555
C22 C23 1_555 1_555
C25 C30 1_555 1_555
C29 C30 1_555 1_555

#END
