
#######################################################################
#
#                 Cambridge Crystallographic Data Centre
#                                CCDC 
#
#######################################################################
#
# If this CIF has been generated from an entry in the Cambridge 
# Structural Database, then it will include bibliographic, chemical, 
# crystal, experimental, refinement or atomic coordinate data resulting 
# from the CCDC's data processing and validation procedures.
#
#######################################################################

data_LIMMIE
_symmetry_cell_setting           tetragonal
_symmetry_space_group_name_H-M   'P 42'
_symmetry_Int_Tables_number      77
_space_group_name_Hall           'P 4c'
loop_
_symmetry_equiv_pos_site_id
_symmetry_equiv_pos_as_xyz
1 x,y,z
2 -x,-y,z
3 -y,x,1/2+z
4 y,-x,1/2+z
_cell_length_a                   12.7023(13)
_cell_length_b                   12.7023(13)
_cell_length_c                   13.3621(19)
_cell_angle_alpha                90
_cell_angle_beta                 90
_cell_angle_gamma                90
_cell_volume                     2155.95
loop_
_atom_site_label
_atom_site_type_symbol
_atom_site_fract_x
_atom_site_fract_y
_atom_site_fract_z
W1 W 0.5000 1.0000 0.38324(6)
I1 I 0.25926(5) 1.29596(5) 0.30093(7)
Cu1 Cu 0.33169(10) 1.13204(10) 0.39071(11)
Cu2 Cu 0.62335(11) 1.17047(11) 0.36829(10)
N1 N 0.2229(10) 1.0995(9) 0.5086(9)
N2 N 0.7525(8) 1.2372(8) 0.4156(8)
N3 N 0.5983(9) 1.2772(9) 0.2472(8)
S1 S 0.4895(2) 1.1446(2) 0.4774(2)
S2 S 0.3569(2) 0.9888(2) 0.2874(2)
C1 C 0.2447(10) 1.0219(10) 0.5728(10)
H1 H 0.3039 0.9801 0.5624
C2 C 0.1774(8) 1.0020(9) 0.6585(8)
H2 H 0.1920 0.9475 0.7029
C3 C 0.0940(8) 1.0644(9) 0.6716(8)
C4 C 0.0747(10) 1.1458(9) 0.6043(9)
H3 H 0.0178 1.1905 0.6150
C5 C 0.1379(8) 1.1614(8) 0.5225(8)
H4 H 0.1223 1.2144 0.4768
C6 C 0.0340(9) 1.0489(9) 0.7629(8)
H5 H -0.0106 1.1098 0.7735
H6 H 0.0826 1.0448 0.8188
C7 C 0.5573(9) 1.2409(9) 0.1580(10)
H7 H 0.5346 1.1714 0.1549
C8 C 0.5480(9) 1.3026(9) 0.0729(9)
H8 H 0.5233 1.2733 0.0136
C9 C 0.5769(9) 1.4127(8) 0.0765(9)
C10 C 0.6176(8) 1.4519(9) 0.1680(8)
H9 H 0.6408 1.5212 0.1723
C11 C 0.6231(9) 1.3845(9) 0.2537(9)
H10 H 0.6435 1.4126 0.3150
C12 C 0.5564(9) 1.4816(8) -0.0114(8)
H11 H 0.5707 1.4431 -0.0726
H12 H 0.6030 1.5421 -0.0092
C13 C 0.8198(9) 1.2665(9) 0.3385(10)
H13 H 0.8067 1.2446 0.2733
C14 C 0.9052(9) 1.3277(8) 0.3593(9)
H14 H 0.9512 1.3458 0.3079
C15 C 0.9249(8) 1.3637(7) 0.4556(9)
H15 H 0.9829 1.4063 0.4688
C16 C 0.8570(8) 1.3351(8) 0.5315(9)
H16 H 0.8688 1.3582 0.5966
C17 C 0.7715(9) 1.2720(8) 0.5101(8)
H17 H 0.7259 1.2529 0.5614
I1A I 0.74074(5) 0.70404(5) 0.30093(7)
Cu1A Cu 0.66831(10) 0.86796(10) 0.39071(11)
Cu1A_2 Cu -0.33169(10) 0.86796(10) 0.39071(11)
Cu2A Cu 0.37665(11) 0.82953(11) 0.36829(10)
Cu2A_2 Cu 0.37665(11) 1.82953(11) 0.36829(10)
N1A N -0.2229(10) 0.9005(9) 0.5086(9)
N1A_2 N 0.7771(10) 0.9005(9) 0.5086(9)
N2A N 0.2475(8) 0.7628(8) 0.4156(8)
N3A N 0.4017(9) 1.7228(9) 0.2472(8)
N3A_2 N 0.4017(9) 0.7228(9) 0.2472(8)
S1A S 0.5105(2) 0.8554(2) 0.4774(2)
S2A S 0.6431(2) 1.0112(2) 0.2874(2)
C1A C -0.2447(10) 0.9781(10) 0.5728(10)
H1A H -0.3039 1.0199 0.5624
C2A C -0.1774(8) 0.9980(9) 0.6585(8)
H2A H -0.1920 1.0525 0.7029
C3A C -0.0940(8) 0.9356(9) 0.6716(8)
C4A C -0.0747(10) 0.8542(9) 0.6043(9)
H3A H -0.0178 0.8095 0.6150
C5A C -0.1379(8) 0.8386(8) 0.5225(8)
H4A H -0.1223 0.7856 0.4768
C6A C -0.0340(9) 0.9511(9) 0.7629(8)
H5A H 0.0106 0.8902 0.7735
H6A H -0.0826 0.9552 0.8188
C7A C 0.4427(9) 1.7591(9) 0.1580(10)
H7A H 0.4654 1.8286 0.1549
C8A C 0.4520(9) 1.6974(9) 0.0729(9)
H8A H 0.4767 1.7267 0.0136
C9A C 0.4231(9) 1.5873(8) 0.0765(9)
C10A C 0.3824(8) 1.5481(9) 0.1680(8)
H9A H 0.3592 1.4788 0.1723
C11A C 0.3769(9) 1.6155(9) 0.2537(9)
H10A H 0.3565 1.5874 0.3150
C12A C 0.4436(9) 1.5184(8) -0.0114(8)
H11A H 0.4293 1.5569 -0.0726
H12A H 0.3970 1.4579 -0.0092
C13A C 0.1802(9) 0.7335(9) 0.3385(10)
H13A H 0.1933 0.7554 0.2733
C14A C 0.0948(9) 0.6723(8) 0.3593(9)
H14A H 0.0488 0.6542 0.3079
C15A C 0.0751(8) 0.6363(7) 0.4556(9)
H15A H 0.0171 0.5937 0.4688
C16A C 0.1430(8) 0.6649(8) 0.5315(9)
H16A H 0.1312 0.6418 0.5966
C17A C 0.2285(9) 0.7280(8) 0.5101(8)
H17A H 0.2741 0.7471 0.5614
O1 O 0.0000 0.5000 0.213(2)
H19 H -0.0443 0.5117 0.1665
H19A H 0.0443 0.4883 0.1665
H18? H 0.0617 0.5130 0.1917
loop_
_geom_bond_atom_site_label_1
_geom_bond_atom_site_label_2
_geom_bond_site_symmetry_1
_geom_bond_site_symmetry_2
W1 Cu1 1_555 1_555
I1 Cu1 1_555 1_555
Cu1 N1 1_555 1_555
Cu2 W1 1_555 1_555
N1 C1 1_555 1_555
N2 Cu2 1_555 1_555
N3 Cu2 1_555 1_555
S1 W1 1_555 1_555
S2 W1 1_555 1_555
C1 H1 1_555 1_555
C2 C1 1_555 1_555
H2 C2 1_555 1_555
C3 C2 1_555 1_555
C4 C3 1_555 1_555
H3 C4 1_555 1_555
C5 N1 1_555 1_555
H4 C5 1_555 1_555
C6 C3 1_555 1_555
H5 C6 1_555 1_555
H6 C6 1_555 1_555
C7 N3 1_555 1_555
H7 C7 1_555 1_555
C8 C7 1_555 1_555
H8 C8 1_555 1_555
C9 C8 1_555 1_555
C10 C9 1_555 1_555
H9 C10 1_555 1_555
C11 N3 1_555 1_555
H10 C11 1_555 1_555
C12 C9 1_555 1_555
H11 C12 1_555 1_555
H12 C12 1_555 1_555
C13 N2 1_555 1_555
H13 C13 1_555 1_555
C14 C13 1_555 1_555
H14 C14 1_555 1_555
C15 C14 1_555 1_555
H15 C15 1_555 1_555
C16 C15 1_555 1_555
H16 C16 1_555 1_555
C17 N2 1_555 1_555
H17 C17 1_555 1_555
O1 H19 1_555 1_555
I1A Cu1A 1_555 1_555
Cu1A W1 1_555 1_555
Cu1A_2 N1A 1_555 1_555
Cu2A W1 1_555 1_555
Cu2A_2 N3A 1_555 1_555
N1A C1A 1_555 1_555
N1A_2 Cu1A 1_555 1_555
N2A Cu2A 1_555 1_555
N3A C7A 1_555 1_555
N3A_2 Cu2A 1_555 1_555
S1A W1 1_555 1_555
S2A W1 1_555 1_555
C1A H1A 1_555 1_555
C2A C1A 1_555 1_555
H2A C2A 1_555 1_555
C3A C2A 1_555 1_555
C4A C3A 1_555 1_555
H3A C4A 1_555 1_555
C5A N1A 1_555 1_555
H4A C5A 1_555 1_555
C6A C6 1_555 1_555
H5A C6A 1_555 1_555
H6A C6A 1_555 1_555
C7A H7A 1_555 1_555
C8A C7A 1_555 1_555
H8A C8A 1_555 1_555
C9A C8A 1_555 1_555
C10A C9A 1_555 1_555
H9A C10A 1_555 1_555
C11A N3A 1_555 1_555
H10A C11A 1_555 1_555
C12A C12 1_555 1_555
H11A C12A 1_555 1_555
H12A C12A 1_555 1_555
C13A N2A 1_555 1_555
H13A C13A 1_555 1_555
C14A C13A 1_555 1_555
H14A C14A 1_555 1_555
C15A C14A 1_555 1_555
H15A C15A 1_555 1_555
C16A C15A 1_555 1_555
H16A C16A 1_555 1_555
C17A N2A 1_555 1_555
H17A C17A 1_555 1_555
H19A O1 1_555 1_555
Cu1 S1 1_555 1_555
Cu1 S2 1_555 1_555
Cu2 S1 1_555 1_555
Cu2 S2A 1_555 1_555
S2 Cu2A 1_555 1_555
C4 C5 1_555 1_555
C10 C11 1_555 1_555
C16 C17 1_555 1_555
Cu1A S1A 1_555 1_555
Cu1A S2A 1_555 1_555
Cu2A S1A 1_555 1_555
C3A C6A 1_555 1_555
C4A C5A 1_555 1_555
C9A C12A 1_555 1_555
C10A C11A 1_555 1_555
C16A C17A 1_555 1_555

#END
