
#######################################################################
#
#                 Cambridge Crystallographic Data Centre
#                                CCDC 
#
#######################################################################
#
# If this CIF has been generated from an entry in the Cambridge 
# Structural Database, then it will include bibliographic, chemical, 
# crystal, experimental, refinement or atomic coordinate data resulting 
# from the CCDC's data processing and validation procedures.
#
#######################################################################

data_LIMNUR
_symmetry_cell_setting           monoclinic
_symmetry_space_group_name_H-M   'C 2/c'
_symmetry_Int_Tables_number      15
_space_group_name_Hall           '-C 2yn'
loop_
_symmetry_equiv_pos_site_id
_symmetry_equiv_pos_as_xyz
1 x,y,z
2 1/2+x,1/2+y,z
3 -x,y,1/2-z
4 1/2-x,1/2+y,1/2-z
5 -x,-y,-z
6 1/2-x,1/2-y,-z
7 x,-y,1/2+z
8 1/2+x,1/2-y,1/2+z
_cell_length_a                   11.071(1)
_cell_length_b                   14.068(2)
_cell_length_c                   6.7041(7)
_cell_angle_alpha                90
_cell_angle_beta                 110.106(2)
_cell_angle_gamma                90
_cell_volume                     980.51
loop_
_atom_site_label
_atom_site_type_symbol
_atom_site_fract_x
_atom_site_fract_y
_atom_site_fract_z
Zn1 Zn 0.5000 0.44514(4) 0.7500
O1 O 0.4232(3) 0.3565(2) 0.5225(4)
O2 O 0.3692(3) 0.4693(2) 0.2781(4)
C1 C 0.3097(3) 0.3108(3) 0.1669(5)
C2 C 0.3155(4) 0.2133(3) 0.2082(5)
C3 C 0.2454(4) 0.3453(3) -0.0370(5)
H1 H 0.2432 0.4113 -0.0594
C4 C 0.3719(3) 0.3828(3) 0.3334(5)
C5 C 0.3825(4) 0.1668(3) 0.4198(6)
H2 H 0.3716 0.0984 0.4054
H3 H 0.3456 0.1897 0.5227
H4 H 0.4734 0.1822 0.4677
Zn1F Zn 0.5000 0.55486(4) 0.2500
Zn1G Zn 0.0000 0.05486(4) -0.7500
Zn1A Zn 0.0000 -0.05486(4) -0.2500
O1E O 0.0768(3) 0.1435(2) -0.5225(4)
O1B O 0.5768(3) 0.3565(2) 0.9775(4)
O2E O 0.1308(3) 0.0307(2) -0.2781(4)
O2F O 0.3692(3) 0.5307(2) 0.7781(4)
O2D O 0.6308(3) 0.5307(2) 0.7219(4)
C1E C 0.1903(3) 0.1892(3) -0.1669(5)
C2E C 0.1845(4) 0.2867(3) -0.2082(5)
C3E C 0.2546(4) 0.1547(3) 0.0370(5)
H1E H 0.2568 0.0887 0.0594
C4E C 0.1281(3) 0.1172(3) -0.3334(5)
C5E C 0.1175(4) 0.3332(3) -0.4198(6)
H2E H 0.1284 0.4016 -0.4054
H3E H 0.1544 0.3103 -0.5227
H4E H 0.0266 0.3178 -0.4677
loop_
_geom_bond_atom_site_label_1
_geom_bond_atom_site_label_2
_geom_bond_site_symmetry_1
_geom_bond_site_symmetry_2
Zn1 O1 1_555 1_555
O1 C4 1_555 1_555
O2 C4 1_555 1_555
C1 C2 1_555 1_555
C2 C5 1_555 1_555
C3 C1 1_555 1_555
H1 C3 1_555 1_555
C4 C1 1_555 1_555
C5 H2 1_555 1_555
H3 C5 1_555 1_555
H4 C5 1_555 1_555
Zn1F O2 1_555 1_555
Zn1G O1E 1_555 1_555
Zn1A O2E 1_555 1_555
O1E C4E 1_555 1_555
O1B Zn1 1_555 1_555
O2E C4E 1_555 1_555
O2F Zn1 1_555 1_555
O2D Zn1 1_555 1_555
C1E C2E 1_555 1_555
C2E C3 1_555 1_555
C3E C2 1_555 1_555
H1E C3E 1_555 1_555
C4E C1E 1_555 1_555
C5E C2E 1_555 1_555
H2E C5E 1_555 1_555
H3E C5E 1_555 1_555
H4E C5E 1_555 1_555
C1E C3E 1_555 1_555

#END
