
#######################################################################
#
#                 Cambridge Crystallographic Data Centre
#                                CCDC 
#
#######################################################################
#
# If this CIF has been generated from an entry in the Cambridge 
# Structural Database, then it will include bibliographic, chemical, 
# crystal, experimental, refinement or atomic coordinate data resulting 
# from the CCDC's data processing and validation procedures.
#
#######################################################################

data_LIMPAZ
_symmetry_cell_setting           monoclinic
_symmetry_space_group_name_H-M   'P 21/c'
_symmetry_Int_Tables_number      14
_space_group_name_Hall           '-P 2ybc'
loop_
_symmetry_equiv_pos_site_id
_symmetry_equiv_pos_as_xyz
1 x,y,z
2 -x,1/2+y,1/2-z
3 -x,-y,-z
4 x,1/2-y,1/2+z
_cell_length_a                   6.3061(3)
_cell_length_b                   13.6926(6)
_cell_length_c                   19.3122(9)
_cell_angle_alpha                90
_cell_angle_beta                 91.491(1)
_cell_angle_gamma                90
_cell_volume                     1666.98
loop_
_atom_site_label
_atom_site_type_symbol
_atom_site_fract_x
_atom_site_fract_y
_atom_site_fract_z
Zn1 Zn -0.49906(3) 0.397520(14) 0.544260(10)
Zn2 Zn 0.0000 0.5000 0.5000
Zn3 Zn -1.00586(3) 0.813900(16) 0.918190(12)
O1 O -0.4381(2) 0.54859(9) 0.55995(6)
O2 O -0.1014(2) 0.58021(10) 0.58830(7)
O3 O -0.5563(2) 0.86144(12) 0.85354(8)
O4 O -0.8621(2) 0.78492(13) 0.83391(8)
O5 O -0.8527(3) 0.19353(11) 0.56094(10)
O6 O -0.5768(2) 0.25984(10) 0.50973(8)
O7 O 0.1941(2) 0.42716(9) 0.57126(7)
O8 O -0.1952(2) 0.37515(10) 0.51484(7)
C1 C -0.3742(3) 0.64441(14) 0.65908(9)
C2 C -0.2922(3) 0.73399(15) 0.68052(10)
C3 C -0.3955(3) 0.78091(15) 0.73396(10)
C4 C -0.5711(3) 0.74182(15) 0.76612(10)
C5 C -0.6453(3) 0.64923(16) 0.74683(11)
C6 C -0.5443(3) 0.60343(15) 0.69329(11)
C7 C -0.2941(3) 0.58787(13) 0.59859(9)
C8 C -0.1040(4) 0.78249(19) 0.64857(13)
C9 C -0.6695(3) 0.80036(14) 0.82255(10)
C10 C -0.8233(5) 0.59632(19) 0.78155(15)
C11 C -0.5896(3) 0.08907(14) 0.51710(12)
C12 C -0.6225(4) 0.00902(16) 0.56033(13)
C13 C -0.4681(4) 0.07882(16) 0.45880(13)
C14 C -0.6782(3) 0.18852(14) 0.53059(11)
C15 C -0.7458(6) 0.0132(2) 0.62628(17)
H1 H -0.346(4) 0.8414(19) 0.7482(13)
H2 H -0.586(4) 0.546(2) 0.6807(13)
H3 H 0.202(4) 0.4636(17) 0.6040(11)
H4 H -0.205(4) 0.3437(19) 0.4792(11)
H5 H -0.116(5) 0.783(2) 0.5996(18)
H6 H -0.096(6) 0.847(3) 0.658(2)
H7 H 0.014(6) 0.748(3) 0.6619(19)
H8 H -0.449(4) 0.131(2) 0.4291(15)
H9 H -0.825(5) 0.528(3) 0.7656(18)
H10 H -0.792(5) 0.592(2) 0.8293(17)
H11 H -0.959(6) 0.628(3) 0.7707(18)
H12 H -0.709(5) 0.077(3) 0.6572(17)
H13 H -0.726(5) -0.052(3) 0.6549(18)
H14 H -0.896(7) 0.016(3) 0.607(2)
Zn1B Zn 0.49906(3) 0.602480(14) 0.455740(10)
Zn1B_2 Zn -0.50094(3) 0.602480(14) 0.455740(10)
Zn1A Zn -0.50094(3) 0.897520(14) 0.955740(10)
Zn1_2 Zn 0.50094(3) 0.397520(14) 0.544260(10)
Zn1B_3 Zn -0.50094(3) -0.397520(14) 0.455740(10)
Zn1C Zn 0.50094(3) 0.102480(14) 0.044260(10)
Zn3B Zn 1.00586(3) 0.186100(16) 0.081810(12)
Zn3A Zn -0.99414(3) 0.313900(16) 0.581810(12)
Zn3A_2 Zn 0.00586(3) 0.313900(16) 0.581810(12)
Zn3C Zn -0.00586(3) -0.313900(16) 0.418190(12)
Zn3C_2 Zn -0.00586(3) 0.686100(16) 0.418190(12)
O1B O 0.4381(2) 0.45141(9) 0.44005(6)
O1B_2 O -0.5619(2) 0.45141(9) 0.44005(6)
O1_2 O 0.5619(2) 0.54859(9) 0.55995(6)
O2B O 0.1014(2) 0.41979(10) 0.41170(7)
O3B O 0.5563(2) 0.13856(12) 0.14646(8)
O3A O -0.4437(2) 0.36144(12) 0.64646(8)
O3C O 0.4437(2) 0.63856(12) 0.35354(8)
O4B O 0.8621(2) 0.21508(13) 0.16609(8)
O5B O -0.1473(3) -0.19353(11) 0.43906(10)
O5A O -1.1473(3) 0.69353(11) 0.93906(10)
O5C O 1.1473(3) 0.30647(11) 0.06094(10)
O6B O -0.4232(2) -0.25984(10) 0.49027(8)
O6B_2 O 0.5768(2) 0.74016(10) 0.49027(8)
O7B O -0.1941(2) 0.57284(9) 0.42874(7)
O7_2 O -0.8059(2) 0.42716(9) 0.57126(7)
O7A O -1.1941(2) 0.92716(9) 0.92874(7)
O7B_2 O 0.8059(2) 0.57284(9) 0.42874(7)
O7C O 1.1941(2) 0.07284(9) 0.07126(7)
O8B O 0.1952(2) 0.62485(10) 0.48516(7)
O8A O -0.8048(2) 0.87515(10) 0.98516(7)
O8C O 0.8048(2) 0.12485(10) 0.01484(7)
C1B C 0.3742(3) 0.35559(14) 0.34092(9)
C2B C 0.2922(3) 0.26601(15) 0.31948(10)
C3B C 0.3955(3) 0.21909(15) 0.26604(10)
C4B C 0.5711(3) 0.25818(15) 0.23388(10)
C5B C 0.6453(3) 0.35077(16) 0.25317(11)
C6B C 0.5443(3) 0.39657(15) 0.30671(11)
C7B C 0.2941(3) 0.41213(13) 0.40141(9)
C8B C 0.1040(4) 0.21751(19) 0.35143(13)
C9B C 0.6695(3) 0.19964(14) 0.17745(10)
C10B C 0.8233(5) 0.40368(19) 0.21845(15)
C11B C -0.4104(3) -0.08907(14) 0.48290(12)
C12B C -0.3775(4) -0.00902(16) 0.43967(13)
C13B C -0.5319(4) -0.07882(16) 0.54120(13)
C14B C -0.3218(3) -0.18852(14) 0.46941(11)
C15B C -0.2542(6) -0.0132(2) 0.37372(17)
H1B H 0.346(4) 0.1586(19) 0.2518(13)
H2B H 0.586(4) 0.454(2) 0.3193(13)
H3B H -0.202(4) 0.5364(17) 0.3960(11)
H3_2 H -0.798(4) 0.4636(17) 0.6040(11)
H3A H -1.202(4) 0.9636(17) 0.8960(11)
H3B_2 H 0.798(4) 0.5364(17) 0.3960(11)
H3C H 1.202(4) 0.0364(17) 0.1040(11)
H4B H 0.205(4) 0.6563(19) 0.5208(11)
H4A H -0.795(4) 0.8437(19) 1.0208(11)
H4C H 0.795(4) 0.1563(19) -0.0208(11)
H5B H 0.116(5) 0.217(2) 0.4004(18)
H6B H 0.096(6) 0.153(3) 0.342(2)
H7B H -0.014(6) 0.252(3) 0.3381(19)
H8B H -0.551(4) -0.131(2) 0.5709(15)
H9B H 0.825(5) 0.472(3) 0.2344(18)
H10B H 0.792(5) 0.408(2) 0.1707(17)
H11B H 0.959(6) 0.372(3) 0.2293(18)
H12B H -0.291(5) -0.077(3) 0.3428(17)
H13B H -0.274(5) 0.052(3) 0.3451(18)
H14B H -0.104(7) -0.016(3) 0.393(2)
loop_
_geom_bond_atom_site_label_1
_geom_bond_atom_site_label_2
_geom_bond_site_symmetry_1
_geom_bond_site_symmetry_2
Zn1 O1 1_555 1_555
Zn2 O2 1_555 1_555
Zn3 O4 1_555 1_555
O1 C7 1_555 1_555
O2 C7 1_555 1_555
O3 C9 1_555 1_555
O4 C9 1_555 1_555
O5 C14 1_555 1_555
O6 Zn1 1_555 1_555
O7 Zn2 1_555 1_555
O8 Zn1 1_555 1_555
C1 C2 1_555 1_555
C2 C3 1_555 1_555
C3 C4 1_555 1_555
C4 C5 1_555 1_555
C5 C6 1_555 1_555
C6 C1 1_555 1_555
C7 C1 1_555 1_555
C8 C2 1_555 1_555
C9 C4 1_555 1_555
C10 C5 1_555 1_555
C11 C12 1_555 1_555
C12 C15 1_555 1_555
C13 C11 1_555 1_555
C14 O6 1_555 1_555
C15 H12 1_555 1_555
H1 C3 1_555 1_555
H2 C6 1_555 1_555
H3 O7 1_555 1_555
H4 O8 1_555 1_555
H5 C8 1_555 1_555
H6 C8 1_555 1_555
H7 C8 1_555 1_555
H8 C13 1_555 1_555
H9 C10 1_555 1_555
H10 C10 1_555 1_555
H11 C10 1_555 1_555
H13 C15 1_555 1_555
H14 C15 1_555 1_555
Zn1B O1B 1_555 1_555
Zn1B_2 O1 1_555 1_555
Zn1A O3 1_555 1_555
Zn1_2 O7 1_555 1_555
Zn1B_3 O6B 1_555 1_555
Zn1C O3B 1_555 1_555
Zn3B O4B 1_555 1_555
Zn3A O5 1_555 1_555
Zn3A_2 O7 1_555 1_555
Zn3C O5B 1_555 1_555
Zn3C_2 O7B 1_555 1_555
O1B Zn1_2 1_555 1_555
O1B_2 Zn1 1_555 1_555
O1_2 Zn1B 1_555 1_555
O2B Zn2 1_555 1_555
O3B C9B 1_555 1_555
O3A Zn1 1_555 1_555
O3C Zn1B 1_555 1_555
O4B C9B 1_555 1_555
O5B C14B 1_555 1_555
O5A Zn3 1_555 1_555
O5C Zn3B 1_555 1_555
O6B C14B 1_555 1_555
O6B_2 Zn1B 1_555 1_555
O7B Zn2 1_555 1_555
O7_2 Zn1 1_555 1_555
O7A Zn3 1_555 1_555
O7B_2 Zn1B 1_555 1_555
O7C Zn3B 1_555 1_555
O8B Zn2 1_555 1_555
O8A Zn3 1_555 1_555
O8C Zn1C 1_555 1_555
C1B C2B 1_555 1_555
C2B C3B 1_555 1_555
C3B C4B 1_555 1_555
C4B C5B 1_555 1_555
C5B C6B 1_555 1_555
C6B C1B 1_555 1_555
C7B O1B 1_555 1_555
C8B C2B 1_555 1_555
C9B C4B 1_555 1_555
C10B C5B 1_555 1_555
C11B C12B 1_555 1_555
C12B C13 1_555 1_555
C13B C12 1_555 1_555
C14B C11B 1_555 1_555
C15B C12B 1_555 1_555
H1B C3B 1_555 1_555
H2B C6B 1_555 1_555
H3B O7B 1_555 1_555
H3_2 O7_2 1_555 1_555
H3A O7A 1_555 1_555
H3B_2 O7B_2 1_555 1_555
H3C O7C 1_555 1_555
H4B O8B 1_555 1_555
H4A O8A 1_555 1_555
H4C O8C 1_555 1_555
H5B C8B 1_555 1_555
H6B C8B 1_555 1_555
H7B C8B 1_555 1_555
H8B C13B 1_555 1_555
H9B C10B 1_555 1_555
H10B C10B 1_555 1_555
H11B C10B 1_555 1_555
H12B C15B 1_555 1_555
H13B C15B 1_555 1_555
H14B C15B 1_555 1_555
Zn2 O8 1_555 1_555
O8 Zn3A_2 1_555 1_555
C11 C14 1_555 1_555
Zn1B O8B 1_555 1_555
Zn1B_2 O1B_2 1_555 1_555
Zn1B_2 O7B 1_555 1_555
Zn1A O8A 1_555 1_555
Zn1_2 O1_2 1_555 1_555
Zn3B O8C 1_555 1_555
Zn3A O7_2 1_555 1_555
Zn3C_2 O8B 1_555 1_555
O2B C7B 1_555 1_555
C1B C7B 1_555 1_555
C11B C13B 1_555 1_555

#END
