
#######################################################################
#
#                 Cambridge Crystallographic Data Centre
#                                CCDC 
#
#######################################################################
#
# If this CIF has been generated from an entry in the Cambridge 
# Structural Database, then it will include bibliographic, chemical, 
# crystal, experimental, refinement or atomic coordinate data resulting 
# from the CCDC's data processing and validation procedures.
#
#######################################################################

data_LIMQOP
_symmetry_cell_setting           triclinic
_symmetry_space_group_name_H-M   'P -1'
_symmetry_Int_Tables_number      2
_space_group_name_Hall           '-P 1'
loop_
_symmetry_equiv_pos_site_id
_symmetry_equiv_pos_as_xyz
1 x,y,z
2 -x,-y,-z
_cell_length_a                   10.6584(3)
_cell_length_b                   10.8702(2)
_cell_length_c                   10.9832(3)
_cell_angle_alpha                84.351(2)
_cell_angle_beta                 88.7160(10)
_cell_angle_gamma                76.4820(10)
_cell_volume                     1231.24
loop_
_atom_site_label
_atom_site_type_symbol
_atom_site_fract_x
_atom_site_fract_y
_atom_site_fract_z
Sb1 Sb 0.16445(3) 0.04320(3) 0.23073(3)
F1 F 0.2487(3) 0.1376(3) 0.3250(3)
F2 F 0.0650(4) 0.0043(4) 0.3669(4)
F3 F 0.0421(3) 0.1933(3) 0.1784(3)
F4 F 0.0895(4) -0.0449(4) 0.1242(4)
F5 F 0.2715(4) 0.0832(4) 0.1005(3)
F6 F 0.2950(3) -0.1035(3) 0.2758(4)
S1 S 0.51179(13) -0.43655(11) 0.16971(11)
Ag1 Ag 0.58361(5) -0.63760(4) 0.03981(4)
O1 O 0.7701(4) -1.3841(3) 0.1075(3)
P1 P 0.64124(13) -1.33232(11) 0.17955(11)
C1 C 0.7990(5) -1.0859(5) 0.2347(6)
N1 N 0.8099(5) -0.9676(4) 0.2843(5)
C2 C 0.5554(5) -1.0284(5) 0.3471(4)
H1 H 0.5806 -1.0979 0.4108
C3 C 0.6872(6) -1.5235(5) 0.4614(5)
H2 H 0.6017 -1.4851 0.4772
C4 C 0.7470(7) -1.6406(6) 0.5230(5)
H3 H 0.4622 -1.0086 0.3392
C5 C 0.8455(6) -1.5848(5) 0.0304(5)
C6 C 0.8728(6) -1.6599(5) -0.0662(6)
C7 C 0.5580(5) -0.8067(4) 0.2902(4)
N2 N 0.6264(4) -0.8225(4) 0.1689(4)
C8 C 0.7853(6) -1.4770(6) -0.2053(5)
C9 C 0.7583(5) -1.4015(5) -0.1095(5)
O2 O 0.6967(4) -1.3464(3) 0.3162(3)
C10 C 0.8416(6) -1.6042(6) -0.1848(5)
P2 P 0.62974(12) -1.07407(11) 0.20406(11)
N3 N 0.5896(4) -1.1864(4) 0.1444(4)
C11 C 0.7676(5) -0.8563(5) 0.1946(5)
H4 H 0.8136 -0.8728 0.1185
C12 C 0.7584(5) -1.4662(4) 0.3762(5)
C13 C 0.8855(6) -1.5175(5) 0.3531(5)
H5 H 0.7650 -1.4410 -0.2849
C14 C 0.8731(7) -1.6954(5) 0.5002(6)
C15 C 0.7354(6) -0.9450(5) 0.3981(5)
N4 N 0.5974(5) -0.9164(4) 0.3798(4)
H6 H 0.9113 -1.7461 -0.0521
C16 C 0.5881(5) -0.9263(4) 0.1082(4)
H7 H 0.7207 -1.3151 -0.1236
H8 H 0.7577 -0.8748 0.4338
C17 C 0.9435(7) -1.6353(6) 0.4165(6)
H9 H 1.0296 -1.6729 0.4020
H10 H 0.7007 -1.6813 0.5799
H11 H 0.8320 -1.1584 0.2934
H12 H 0.5747 -0.7326 0.3233
H13 H 0.9119 -1.7736 0.5411
H14 H 0.8487 -1.0970 0.1599
C18 C 0.7887(5) -1.4578(4) 0.0079(4)
H15 H 0.4658 -0.7913 0.2768
H16 H 0.9322 -1.4758 0.2973
H17 H 0.8656 -1.6204 0.1101
H18 H 0.6319 -0.9359 0.0302
H19 H 0.8591 -1.6536 -0.2504
H20 H 0.4958 -0.9036 0.0930
H21 H 0.7600 -1.0199 0.4559
H22 H 0.7913 -0.7838 0.2245
Ag1A Ag 0.41639(5) -0.36240(4) -0.03981(4)
S1_2 S 0.51179(13) -1.43655(11) 0.16971(11)
Ag1A_2 Ag 0.41639(5) -1.36240(4) -0.03981(4)
Ag1_2 Ag 0.58361(5) -1.63760(4) 0.03981(4)
S1A S 0.48821(13) -0.56345(11) -0.16971(11)
loop_
_geom_bond_atom_site_label_1
_geom_bond_atom_site_label_2
_geom_bond_site_symmetry_1
_geom_bond_site_symmetry_2
Sb1 F1 1_555 1_555
F2 Sb1 1_555 1_555
F3 Sb1 1_555 1_555
F4 Sb1 1_555 1_555
F5 Sb1 1_555 1_555
F6 Sb1 1_555 1_555
S1 Ag1 1_555 1_555
Ag1 N2 1_555 1_555
O1 P1 1_555 1_555
P1 O2 1_555 1_555
C1 N1 1_555 1_555
N1 C11 1_555 1_555
C2 H1 1_555 1_555
C3 H2 1_555 1_555
C4 C3 1_555 1_555
H3 C2 1_555 1_555
C5 C6 1_555 1_555
C6 C10 1_555 1_555
C7 N2 1_555 1_555
N2 C11 1_555 1_555
C8 C9 1_555 1_555
C9 H7 1_555 1_555
O2 C12 1_555 1_555
C10 C8 1_555 1_555
P2 C1 1_555 1_555
N3 P1 1_555 1_555
C11 H4 1_555 1_555
C12 C3 1_555 1_555
C13 C12 1_555 1_555
H5 C8 1_555 1_555
C14 C4 1_555 1_555
C15 N1 1_555 1_555
N4 C2 1_555 1_555
H6 C6 1_555 1_555
C16 N2 1_555 1_555
H8 C15 1_555 1_555
C17 C13 1_555 1_555
H9 C17 1_555 1_555
H10 C4 1_555 1_555
H11 C1 1_555 1_555
H12 C7 1_555 1_555
H13 C14 1_555 1_555
H14 C1 1_555 1_555
C18 O1 1_555 1_555
H15 C7 1_555 1_555
H16 C13 1_555 1_555
H17 C5 1_555 1_555
H18 C16 1_555 1_555
H19 C10 1_555 1_555
H20 C16 1_555 1_555
H21 C15 1_555 1_555
H22 C11 1_555 1_555
Ag1A S1 1_555 1_555
S1_2 P1 1_555 1_555
Ag1A_2 S1_2 1_555 1_555
Ag1_2 S1_2 1_555 1_555
S1A Ag1 1_555 1_555
C2 P2 1_555 1_555
C5 C18 1_555 1_555
C7 N4 1_555 1_555
C9 C18 1_555 1_555
P2 N3 1_555 1_555
P2 C16 1_555 1_555
C14 C17 1_555 1_555
C15 N4 1_555 1_555
Ag1A S1A 1_555 1_555

#END
