
#######################################################################
#
#                 Cambridge Crystallographic Data Centre
#                                CCDC 
#
#######################################################################
#
# If this CIF has been generated from an entry in the Cambridge 
# Structural Database, then it will include bibliographic, chemical, 
# crystal, experimental, refinement or atomic coordinate data resulting 
# from the CCDC's data processing and validation procedures.
#
#######################################################################

data_LIMRAC
_symmetry_cell_setting           triclinic
_symmetry_space_group_name_H-M   'P -1'
_symmetry_Int_Tables_number      2
_space_group_name_Hall           '-P 1'
loop_
_symmetry_equiv_pos_site_id
_symmetry_equiv_pos_as_xyz
1 x,y,z
2 -x,-y,-z
_cell_length_a                   13.3063(5)
_cell_length_b                   14.7998(5)
_cell_length_c                   25.4223(8)
_cell_angle_alpha                92.271(3)
_cell_angle_beta                 91.468(3)
_cell_angle_gamma                93.049(3)
_cell_volume                     4993.49
loop_
_atom_site_label
_atom_site_type_symbol
_atom_site_fract_x
_atom_site_fract_y
_atom_site_fract_z
C1 C 0.6896(8) 0.5586(8) 0.2709(4)
H1 H 0.6986 0.6183 0.2568
H2 H 0.6559 0.5647 0.3041
C2 C 0.6768(9) 0.4777(8) 0.1639(4)
H3 H 0.6362 0.4394 0.1388
H4 H 0.6856 0.5373 0.1497
C3 C 0.6242(9) 0.3753(8) 0.2514(5)
H5 H 0.5962 0.3722 0.2861
H6 H 0.5903 0.3289 0.2283
C4 C 0.7846(10) 0.4249(8) 0.2930(4)
H7 H 0.8529 0.4065 0.2982
H8 H 0.7507 0.4186 0.3261
C5 C 0.7800(10) 0.3570(8) 0.2023(4)
H9 H 0.7470 0.3064 0.1821
H10 H 0.8502 0.3439 0.2074
C6 C 0.8485(10) 0.4738(9) 0.1402(4)
C7 C 0.9502(12) 0.4304(11) 0.1417(6)
H11 H 0.9417 0.3686 0.1287
H12 H 0.9765 0.4323 0.1772
H13 H 0.9963 0.4630 0.1199
C8 C 0.8734(9) 0.5713(7) 0.2693(4)
C9 C 0.3248(14) 0.4140(11) 0.3174(8)
H14 H 0.3089 0.4704 0.3352
H15 H 0.2633 0.3871 0.3008
C10 C 0.361(2) 0.355(2) 0.3545(10)
H16 H 0.3737 0.2983 0.3373
H17 H 0.3114 0.3457 0.3809
H18 H 0.4220 0.3813 0.3708
C11 C 0.2894(16) 0.4824(15) 0.1695(9)
H19 H 0.2721 0.5194 0.1403
H20 H 0.3466 0.4480 0.1600
C12 C 0.209(2) 0.425(2) 0.1809(14)
H21 H 0.2299 0.3826 0.2060
H22 H 0.1841 0.3930 0.1493
H23 H 0.1564 0.4597 0.1955
C13 C 0.9754(9) 0.5355(8) 0.2775(5)
H24 H 1.0239 0.5707 0.2585
H25 H 0.9743 0.4735 0.2649
H26 H 0.9934 0.5394 0.3143
C14 C 1.1466(12) 0.8934(10) 0.0608(6)
H27 H 1.0910 0.9316 0.0676
H28 H 1.1318 0.8578 0.0284
C15 C 1.2429(11) 0.9498(11) 0.0569(6)
H29 H 1.2572 0.9833 0.0895
H30 H 1.2363 0.9910 0.0290
H31 H 1.2969 0.9110 0.0496
C16 C 1.1631(11) 0.6532(11) 0.0432(6)
H32 H 1.1934 0.6967 0.0200
H33 H 1.2123 0.6416 0.0706
C17 C 1.1343(15) 0.5704(11) 0.0139(7)
H34 H 1.1183 0.5236 0.0379
H35 H 1.1889 0.5530 -0.0076
H36 H 1.0764 0.5794 -0.0082
C18 C 0.8289(9) 0.8908(8) 0.0760(5)
H37 H 0.8304 0.9320 0.1067
H38 H 0.8746 0.9159 0.0506
C19 C 0.6536(10) 0.9266(9) 0.0764(5)
C20 C 0.5498(9) 0.9204(10) 0.0535(5)
H39 H 0.5233 0.8588 0.0536
H40 H 0.5509 0.9399 0.0179
H41 H 0.5081 0.9584 0.0740
C21 C 0.7128(9) 0.8133(8) 0.0096(4)
H42 H 0.6430 0.8109 -0.0026
H43 H 0.7536 0.8331 -0.0193
C22 C 0.8472(9) 0.7147(8) 0.0343(4)
H44 H 0.8881 0.7383 0.0064
H45 H 0.8623 0.6522 0.0393
C23 C 0.6749(9) 0.6730(8) 0.0570(4)
H46 H 0.6947 0.6109 0.0572
H47 H 0.6062 0.6721 0.0432
C24 C 0.7765(8) 0.7347(8) 0.1376(4)
H48 H 0.8023 0.6810 0.1524
H49 H 0.7670 0.7780 0.1664
C25 C 0.5964(8) 0.7046(7) 0.1430(4)
C26 C 0.6139(9) 0.8023(7) 0.3574(4)
C27 C 0.7896(8) 0.7722(7) 0.3643(4)
H50 H 0.8229 0.8266 0.3516
H51 H 0.7733 0.7314 0.3341
C28 C 1.1524(10) 0.6266(10) 0.4523(5)
H52 H 1.1388 0.6674 0.4818
H53 H 1.0963 0.5821 0.4476
C29 C 1.2462(10) 0.5813(11) 0.4626(6)
H54 H 1.2578 0.5398 0.4337
H55 H 1.2406 0.5488 0.4944
H56 H 1.3013 0.6258 0.4663
C30 C 1.1784(11) 0.8692(11) 0.4536(6)
H57 H 1.2231 0.8264 0.4682
H58 H 1.2122 0.8985 0.4250
C31 C 1.1557(17) 0.9351(15) 0.4931(10)
H59 H 1.1135 0.9785 0.4781
H60 H 1.2170 0.9653 0.5068
H61 H 1.1213 0.9059 0.5210
C32 C 0.8183(8) 0.6127(8) 0.4244(4)
H62 H 0.8098 0.5736 0.3929
H63 H 0.8620 0.5839 0.4491
C33 C 0.6371(9) 0.5766(9) 0.4256(4)
C34 C 0.5378(10) 0.5907(11) 0.4495(6)
H64 H 0.4862 0.5552 0.4298
H65 H 0.5238 0.6536 0.4488
H66 H 0.5395 0.5723 0.4853
C35 C 0.7192(9) 0.6914(8) 0.4919(4)
H67 H 0.6503 0.6965 0.5029
H68 H 0.7575 0.6699 0.5214
C36 C 0.8682(9) 0.7875(8) 0.4679(4)
H69 H 0.9084 0.7640 0.4961
H70 H 0.8911 0.8498 0.4626
C37 C 0.7010(9) 0.8342(8) 0.4445(4)
H71 H 0.7309 0.8955 0.4447
H72 H 0.6335 0.8373 0.4578
C38 C 0.5180(9) 0.8363(9) 0.3814(5)
H73 H 0.4678 0.8415 0.3541
H74 H 0.5326 0.8945 0.3988
H75 H 0.4934 0.7943 0.4065
C39 C 0.4959(9) 0.6747(9) 0.1188(5)
H76 H 0.4947 0.6112 0.1095
H77 H 0.4840 0.7080 0.0878
H78 H 0.4443 0.6859 0.1436
C40 C 0.3360(13) 1.0181(12) 0.3385(7)
H79 H 0.3073 0.9773 0.3637
H80 H 0.4020 1.0401 0.3520
C41 C 0.274(2) 1.0920(17) 0.3338(10)
H81 H 0.3070 1.1366 0.3128
H82 H 0.2632 1.1181 0.3682
H83 H 0.2111 1.0715 0.3174
C42 C 0.3586(12) 1.0990(10) 0.1891(6)
H84 H 0.2942 1.0691 0.1967
H85 H 0.3783 1.0781 0.1545
C43 C 0.3510(13) 1.2008(10) 0.1913(7)
H86 H 0.3299 1.2203 0.2255
H87 H 0.3027 1.2171 0.1651
H88 H 0.4155 1.2295 0.1845
C44 C 0.7198(9) 1.0316(9) 0.3409(4)
H89 H 0.6852 1.0693 0.3658
H90 H 0.7229 0.9719 0.3550
C45 C 0.8971(9) 1.0313(9) 0.3633(5)
C46 C 1.0028(11) 1.0715(10) 0.3608(6)
H91 H 1.0142 1.1178 0.3882
H92 H 1.0123 1.0975 0.3272
H93 H 1.0495 1.0250 0.3654
C47 C 0.8312(11) 1.1513(8) 0.3043(5)
H94 H 0.8030 1.2005 0.3243
H95 H 0.9023 1.1672 0.3005
C48 C 0.6737(10) 1.1330(8) 0.2543(5)
H96 H 0.6435 1.1363 0.2194
H97 H 0.6464 1.1790 0.2773
C49 C 0.8275(10) 1.0860(8) 0.2147(5)
H98 H 0.8980 1.1050 0.2115
H99 H 0.7946 1.0930 0.1807
C50 C 0.7163(9) 0.9503(7) 0.2354(4)
H100 H 0.7195 0.8910 0.2501
H101 H 0.6797 0.9432 0.2019
C51 C 0.8986(8) 0.9372(8) 0.2343(4)
C52 C 1.0035(9) 0.9743(8) 0.2255(5)
H102 H 1.0503 0.9426 0.2463
H103 H 1.0089 1.0376 0.2356
H104 H 1.0185 0.9665 0.1889
Ag1 Ag 0.47708(6) 0.75595(6) 0.25015(3)
Ag2 Ag 0.27557(7) 0.70831(7) 0.30575(4)
Ag3 Ag 1.00728(7) 0.75133(6) 0.24909(3)
Ag4 Ag 0.27919(7) 0.79854(7) 0.19893(4)
N1 N 0.7885(7) 0.5214(6) 0.2799(3)
N2 N 0.7745(7) 0.4400(6) 0.1712(4)
N3 N 0.7340(7) 0.3643(6) 0.2537(4)
N4 N 0.5046(7) 0.5201(7) 0.2137(4)
N5 N 0.9744(7) 0.7938(7) 0.1242(4)
N6 N 0.7259(7) 0.8813(7) 0.0528(3)
N7 N 0.7390(7) 0.7225(7) 0.0221(3)
N8 N 0.6776(7) 0.7103(6) 0.1115(3)
N9 N 0.6945(7) 0.7964(7) 0.3896(3)
N10 N 0.9792(7) 0.7028(7) 0.3808(4)
N11 N 0.7199(7) 0.6238(6) 0.4480(3)
N12 N 0.7603(7) 0.7810(7) 0.4798(3)
N13 N 0.5391(7) 0.9866(7) 0.2896(3)
N14 N 0.8221(8) 1.0701(7) 0.3349(4)
N15 N 0.7839(7) 1.1456(6) 0.2527(4)
N16 N 0.8207(7) 0.9880(6) 0.2268(4)
O1 O 0.3992(7) 0.4328(6) 0.2767(4)
O2 O 0.3134(7) 0.5391(7) 0.2165(4)
O3 O 0.8339(7) 0.5355(6) 0.1116(3)
O4 O 0.8666(6) 0.6498(5) 0.2541(3)
O5 O 1.1624(6) 0.8335(6) 0.1052(3)
O6 O 1.0735(6) 0.6899(6) 0.0669(3)
O7 O 0.6725(7) 0.9740(7) 0.1178(3)
O8 O 0.6076(6) 0.7231(6) 0.1910(3)
O9 O 0.6188(6) 0.7836(6) 0.3096(3)
O10 O 1.1655(6) 0.6781(6) 0.4036(3)
O11 O 1.0865(6) 0.8220(6) 0.4339(3)
O12 O 0.6443(7) 0.5259(6) 0.3870(4)
O13 O 0.3474(7) 0.9676(6) 0.2880(4)
O14 O 0.4354(6) 1.0790(5) 0.2292(4)
O15 O 0.8771(7) 0.9663(6) 0.3898(3)
O16 O 0.8839(6) 0.8581(5) 0.2467(3)
P1 P 0.4108(2) 0.5254(2) 0.25022(15)
P2 P 0.6121(2) 0.48611(19) 0.22547(11)
P3 P 1.0808(2) 0.7568(2) 0.11597(10)
P4 P 0.8685(2) 0.7823(2) 0.09473(10)
P5 P 0.8752(2) 0.71889(19) 0.40806(10)
P6 P 1.0870(2) 0.7482(2) 0.38795(10)
P7 P 0.4410(2) 0.9841(2) 0.25338(13)
P8 P 0.6500(2) 1.0229(2) 0.27945(11)
S1 S 0.4243(3) 0.6269(2) 0.30656(13)
S2 S 1.1403(2) 0.8046(2) 0.32246(11)
S3 S 1.1346(2) 0.6968(2) 0.18004(11)
S4 S 0.4336(2) 0.8876(2) 0.19476(12)
Ag2_2 Ag 1.27557(7) 0.70831(7) 0.30575(4)
Ag4_2 Ag 1.27919(7) 0.79854(7) 0.19893(4)
S2_2 S 0.1403(2) 0.8046(2) 0.32246(11)
S3_2 S 0.1346(2) 0.6968(2) 0.18004(11)
F1 F 0.0603(9) 0.1133(7) 0.0377(3)
F2 F -0.0590(11) 0.2293(8) 0.0686(5)
F3 F -0.0538(8) 0.0673(6) 0.1129(4)
F4 F 0.1346(9) 0.1010(8) 0.1357(5)
F5 F 0.1268(9) 0.2610(8) 0.0947(4)
F6 F 0.0039(8) 0.2156(6) 0.1684(3)
Sb1 Sb 0.03400(7) 0.16533(6) 0.10349(3)
F7 F 0.9945(6) 0.3188(5) 0.3263(3)
F8 F 0.9361(7) 0.2689(6) 0.4201(4)
F9 F 0.9284(6) 0.4408(5) 0.3928(3)
F10 F 1.0591(7) 0.3968(6) 0.4654(3)
F11 F 1.1192(6) 0.4441(6) 0.3711(3)
F12 F 1.1271(6) 0.2752(6) 0.3988(3)
Sb2 Sb 1.02725(6) 0.35655(6) 0.39567(3)
F13 F 0.5766(9) 0.0758(8) 0.4367(5)
F14 F 0.7034(8) 0.2148(9) 0.4299(5)
F15 F 0.5800(12) 0.2106(10) 0.5096(4)
F16 F 0.5503(12) 0.3283(8) 0.4371(5)
F17 F 0.4262(9) 0.1836(10) 0.4426(5)
F18 F 0.5491(9) 0.1946(9) 0.3628(4)
Sb3 Sb 0.56518(10) 0.20297(10) 0.43611(4)
F19 F 0.5177(9) 0.3225(8) 0.1095(6)
F20 F 0.6350(10) 0.2014(9) 0.1377(4)
F21 F 0.6964(7) 0.3266(7) 0.0712(3)
F22 F 0.6601(11) 0.1554(9) 0.0362(6)
F23 F 0.5380(11) 0.2801(8) 0.0100(4)
F24 F 0.4797(8) 0.1542(7) 0.0739(4)
Sb4 Sb 0.58985(8) 0.23949(7) 0.07190(3)
loop_
_geom_bond_atom_site_label_1
_geom_bond_atom_site_label_2
_geom_bond_site_symmetry_1
_geom_bond_site_symmetry_2
C1 H1 1_555 1_555
H2 C1 1_555 1_555
C2 H3 1_555 1_555
H4 C2 1_555 1_555
C3 H5 1_555 1_555
H6 C3 1_555 1_555
C4 H7 1_555 1_555
H8 C4 1_555 1_555
C5 H9 1_555 1_555
H10 C5 1_555 1_555
C6 C7 1_555 1_555
C7 H11 1_555 1_555
H12 C7 1_555 1_555
H13 C7 1_555 1_555
C8 C13 1_555 1_555
C9 H14 1_555 1_555
H15 C9 1_555 1_555
C10 C9 1_555 1_555
H16 C10 1_555 1_555
H17 C10 1_555 1_555
H18 C10 1_555 1_555
C11 H19 1_555 1_555
H20 C11 1_555 1_555
C12 C11 1_555 1_555
H21 C12 1_555 1_555
H22 C12 1_555 1_555
H23 C12 1_555 1_555
C13 H24 1_555 1_555
H25 C13 1_555 1_555
H26 C13 1_555 1_555
C14 H27 1_555 1_555
H28 C14 1_555 1_555
C15 C14 1_555 1_555
H29 C15 1_555 1_555
H30 C15 1_555 1_555
H31 C15 1_555 1_555
C16 H32 1_555 1_555
H33 C16 1_555 1_555
C17 C16 1_555 1_555
H34 C17 1_555 1_555
H35 C17 1_555 1_555
H36 C17 1_555 1_555
C18 H37 1_555 1_555
H38 C18 1_555 1_555
C19 C20 1_555 1_555
C20 H39 1_555 1_555
H40 C20 1_555 1_555
H41 C20 1_555 1_555
C21 H42 1_555 1_555
H43 C21 1_555 1_555
C22 H44 1_555 1_555
H45 C22 1_555 1_555
C23 H46 1_555 1_555
H47 C23 1_555 1_555
C24 H48 1_555 1_555
H49 C24 1_555 1_555
C25 C39 1_555 1_555
C26 C38 1_555 1_555
C27 H50 1_555 1_555
H51 C27 1_555 1_555
C28 H52 1_555 1_555
H53 C28 1_555 1_555
C29 C28 1_555 1_555
H54 C29 1_555 1_555
H55 C29 1_555 1_555
H56 C29 1_555 1_555
C30 H57 1_555 1_555
H58 C30 1_555 1_555
C31 C30 1_555 1_555
H59 C31 1_555 1_555
H60 C31 1_555 1_555
H61 C31 1_555 1_555
C32 H62 1_555 1_555
H63 C32 1_555 1_555
C33 C34 1_555 1_555
C34 H64 1_555 1_555
H65 C34 1_555 1_555
H66 C34 1_555 1_555
C35 H67 1_555 1_555
H68 C35 1_555 1_555
C36 H69 1_555 1_555
H70 C36 1_555 1_555
C37 H71 1_555 1_555
H72 C37 1_555 1_555
C38 H73 1_555 1_555
H74 C38 1_555 1_555
H75 C38 1_555 1_555
C39 H76 1_555 1_555
H77 C39 1_555 1_555
H78 C39 1_555 1_555
C40 H79 1_555 1_555
H80 C40 1_555 1_555
C41 C40 1_555 1_555
H81 C41 1_555 1_555
H82 C41 1_555 1_555
H83 C41 1_555 1_555
C42 H84 1_555 1_555
H85 C42 1_555 1_555
C43 C42 1_555 1_555
H86 C43 1_555 1_555
H87 C43 1_555 1_555
H88 C43 1_555 1_555
C44 H89 1_555 1_555
H90 C44 1_555 1_555
C45 C46 1_555 1_555
C46 H91 1_555 1_555
H92 C46 1_555 1_555
H93 C46 1_555 1_555
C47 H94 1_555 1_555
H95 C47 1_555 1_555
C48 H96 1_555 1_555
H97 C48 1_555 1_555
C49 H98 1_555 1_555
H99 C49 1_555 1_555
C50 H100 1_555 1_555
H101 C50 1_555 1_555
C51 C52 1_555 1_555
C52 H102 1_555 1_555
H103 C52 1_555 1_555
H104 C52 1_555 1_555
Ag1 O8 1_555 1_555
Ag2 S1 1_555 1_555
Ag3 O4 1_555 1_555
Ag4 S4 1_555 1_555
N1 C1 1_555 1_555
N2 C2 1_555 1_555
N3 C3 1_555 1_555
N4 P1 1_555 1_555
N5 P3 1_555 1_555
N6 C18 1_555 1_555
N7 C21 1_555 1_555
N8 C23 1_555 1_555
N9 C26 1_555 1_555
N10 P5 1_555 1_555
N11 C32 1_555 1_555
N12 C35 1_555 1_555
N13 P7 1_555 1_555
N14 C44 1_555 1_555
N15 C47 1_555 1_555
N16 C49 1_555 1_555
O1 C9 1_555 1_555
O2 C11 1_555 1_555
O3 C6 1_555 1_555
O4 C8 1_555 1_555
O5 C14 1_555 1_555
O6 C16 1_555 1_555
O7 C19 1_555 1_555
O8 C25 1_555 1_555
O9 C26 1_555 1_555
O10 C28 1_555 1_555
O11 C30 1_555 1_555
O12 C33 1_555 1_555
O13 C40 1_555 1_555
O14 C42 1_555 1_555
O15 C45 1_555 1_555
O16 C51 1_555 1_555
P1 O1 1_555 1_555
P2 C1 1_555 1_555
P3 O5 1_555 1_555
P4 C18 1_555 1_555
P5 C27 1_555 1_555
P6 N10 1_555 1_555
P7 O13 1_555 1_555
P8 C44 1_555 1_555
S1 Ag1 1_555 1_555
S2 Ag3 1_555 1_555
S3 Ag3 1_555 1_555
S4 Ag1 1_555 1_555
F1 Sb1 1_555 1_555
F2 Sb1 1_555 1_555
F3 Sb1 1_555 1_555
F4 Sb1 1_555 1_555
F5 Sb1 1_555 1_555
F6 Sb1 1_555 1_555
F7 Sb2 1_555 1_555
F8 Sb2 1_555 1_555
F9 Sb2 1_555 1_555
F10 Sb2 1_555 1_555
F11 Sb2 1_555 1_555
F12 Sb2 1_555 1_555
F13 Sb3 1_555 1_555
F14 Sb3 1_555 1_555
F15 Sb3 1_555 1_555
F16 Sb3 1_555 1_555
F17 Sb3 1_555 1_555
F18 Sb3 1_555 1_555
F19 Sb4 1_555 1_555
F20 Sb4 1_555 1_555
F21 Sb4 1_555 1_555
F22 Sb4 1_555 1_555
F23 Sb4 1_555 1_555
F24 Sb4 1_555 1_555
Ag2_2 S2 1_555 1_555
Ag4_2 S3 1_555 1_555
S2_2 Ag2 1_555 1_555
S3_2 Ag4 1_555 1_555
C2 P2 1_555 1_555
C3 P2 1_555 1_555
C4 N1 1_555 1_555
C4 N3 1_555 1_555
C5 N2 1_555 1_555
C5 N3 1_555 1_555
C6 N2 1_555 1_555
C8 N1 1_555 1_555
C19 N6 1_555 1_555
C21 N6 1_555 1_555
C22 N7 1_555 1_555
C22 P4 1_555 1_555
C23 N7 1_555 1_555
C24 N8 1_555 1_555
C24 P4 1_555 1_555
C25 N8 1_555 1_555
C27 N9 1_555 1_555
C32 P5 1_555 1_555
C33 N11 1_555 1_555
C35 N11 1_555 1_555
C36 N12 1_555 1_555
C36 P5 1_555 1_555
C37 N9 1_555 1_555
C37 N12 1_555 1_555
C45 N14 1_555 1_555
C47 N14 1_555 1_555
C48 N15 1_555 1_555
C48 P8 1_555 1_555
C49 N15 1_555 1_555
C50 N16 1_555 1_555
C50 P8 1_555 1_555
C51 N16 1_555 1_555
Ag1 O9 1_555 1_555
Ag3 O16 1_555 1_555
N4 P2 1_555 1_555
N5 P4 1_555 1_555
N13 P8 1_555 1_555
O2 P1 1_555 1_555
O6 P3 1_555 1_555
O10 P6 1_555 1_555
O11 P6 1_555 1_555
O14 P7 1_555 1_555
P1 S1 1_555 1_555
P3 S3 1_555 1_555
P6 S2 1_555 1_555
P7 S4 1_555 1_555

#END
