
#######################################################################
#
#                 Cambridge Crystallographic Data Centre
#                                CCDC 
#
#######################################################################
#
# If this CIF has been generated from an entry in the Cambridge 
# Structural Database, then it will include bibliographic, chemical, 
# crystal, experimental, refinement or atomic coordinate data resulting 
# from the CCDC's data processing and validation procedures.
#
#######################################################################

data_LIMSEG
_symmetry_cell_setting           triclinic
_symmetry_space_group_name_H-M   'P -1'
_symmetry_Int_Tables_number      2
_space_group_name_Hall           '-P 1'
loop_
_symmetry_equiv_pos_site_id
_symmetry_equiv_pos_as_xyz
1 x,y,z
2 -x,-y,-z
_cell_length_a                   13.8982(11)
_cell_length_b                   14.1768(11)
_cell_length_c                   15.0948(11)
_cell_angle_alpha                94.089(2)
_cell_angle_beta                 101.607(2)
_cell_angle_gamma                112.116(2)
_cell_volume                     2663.31
loop_
_atom_site_label
_atom_site_type_symbol
_atom_site_fract_x
_atom_site_fract_y
_atom_site_fract_z
Co1 Co 1.0000 0.5000 0.5000
Co2 Co 0.0000 0.0000 0.0000
N1 N 0.89332(17) 0.39697(17) 0.37306(14)
C1 C 0.7871(2) 0.3688(2) 0.35867(18)
H1 H 0.7604 0.3899 0.4062
N2 N 0.71952(16) 0.20666(17) 0.04874(14)
C2 C 0.7142(2) 0.3103(2) 0.27785(18)
H2 H 0.6395 0.2915 0.2707
C3 C 0.75275(19) 0.2795(2) 0.20739(16)
C4 C 0.8627(2) 0.3084(2) 0.22142(18)
H3 H 0.8917 0.2883 0.1751
C5 C 0.9293(2) 0.3671(2) 0.30458(18)
H4 H 1.0044 0.3872 0.3135
C6 C 0.67750(19) 0.22013(19) 0.11875(16)
N3 N 0.57297(16) 0.18682(17) 0.11472(14)
C7 C 0.50822(18) 0.13621(19) 0.03241(16)
C8 C 0.39138(18) 0.10167(19) 0.02410(17)
C9 C 0.3542(2) 0.1194(2) 0.10008(18)
H5 H 0.4029 0.1529 0.1577
C10 C 0.2449(2) 0.0871(2) 0.08984(18)
H6 H 0.2200 0.0993 0.1419
N4 N 0.17187(16) 0.03922(16) 0.01005(14)
C11 C 0.2087(2) 0.0225(2) -0.06249(17)
H7 H 0.1583 -0.0111 -0.1193
C12 C 0.3172(2) 0.0519(2) -0.05886(17)
H8 H 0.3400 0.0382 -0.1118
N5 N 0.54109(16) 0.11654(17) -0.04134(14)
C13 C 0.64714(19) 0.15343(19) -0.02966(16)
C14 C 0.6887(2) 0.1341(2) -0.10932(17)
C15 C 0.6191(2) 0.0837(2) -0.19418(18)
H9 H 0.5438 0.0618 -0.2030
C16 C 0.6625(2) 0.0663(3) -0.2655(2)
H10 H 0.6147 0.0333 -0.3236
N6 N 0.7679(2) 0.0933(2) -0.25772(16)
C17 C 0.8331(2) 0.1397(3) -0.17518(19)
H11 H 0.9077 0.1577 -0.1676
C18 C 0.7980(2) 0.1632(2) -0.09979(18)
H12 H 0.8477 0.1984 -0.0430
O1 O 1.04241(15) 0.39083(15) 0.55424(12)
C19 C 1.0168(2) 0.3526(2) 0.62409(16)
C20 C 0.9325(2) 0.3564(2) 0.66085(18)
H13 H 0.9191 0.3221 0.7117
C21 C 0.8668(2) 0.4077(2) 0.62693(17)
O2 O 0.87569(14) 0.45707(15) 0.56007(12)
C22 C 0.7802(2) 0.4097(2) 0.67178(18)
C23 C 0.7472(3) 0.4913(3) 0.6623(2)
H14 H 0.7790 0.5424 0.6275
C24 C 0.6684(3) 0.4984(3) 0.7033(3)
H15 H 0.6485 0.5554 0.6981
C25 C 0.6193(3) 0.4231(3) 0.7514(3)
H16 H 0.5646 0.4273 0.7784
C26 C 0.6496(3) 0.3413(3) 0.7603(3)
H17 H 0.6151 0.2891 0.7931
C27 C 0.7303(3) 0.3346(3) 0.7215(2)
H18 H 0.7514 0.2786 0.7290
C28 C 1.0857(2) 0.3010(2) 0.66957(17)
C29 C 1.0429(3) 0.2084(2) 0.70211(19)
H19 H 0.9679 0.1760 0.6963
C30 C 1.1103(3) 0.1630(3) 0.7433(2)
H20 H 1.0810 0.0991 0.7644
C31 C 1.2193(3) 0.2111(3) 0.7533(2)
H21 H 1.2652 0.1811 0.7827
C32 C 1.2622(3) 0.3026(3) 0.7208(2)
H22 H 1.3374 0.3349 0.7277
C33 C 1.1957(2) 0.3480(3) 0.6779(2)
H23 H 1.2252 0.4103 0.6545
O3 O 0.03139(13) 0.04108(14) 0.13960(11)
C34 C 0.06718(19) 0.1315(2) 0.18512(16)
C35 C 0.0865(2) 0.2228(2) 0.14744(17)
H24 H 0.1148 0.2859 0.1889
C36 C 0.06717(19) 0.22829(19) 0.05279(16)
O4 O 0.03020(14) 0.15167(14) -0.01101(11)
C37 C 0.0924(2) 0.1391(2) 0.28739(17)
C38 C 0.0927(3) 0.2200(3) 0.3450(2)
H25 H 0.0772 0.2734 0.3192
C39 C 0.1150(4) 0.2248(3) 0.4393(2)
H26 H 0.1155 0.2815 0.4772
C40 C 0.1364(4) 0.1482(3) 0.4782(2)
H27 H 0.1470 0.1488 0.5424
C41 C 0.1421(4) 0.0700(3) 0.4223(3)
H28 H 0.1617 0.0190 0.4488
C42 C 0.1197(3) 0.0650(3) 0.3274(2)
H29 H 0.1233 0.0102 0.2900
C43 C 0.0928(2) 0.3325(2) 0.02426(17)
C44 C 0.1088(2) 0.3441(2) -0.06388(18)
H30 H 0.1023 0.2861 -0.1040
C45 C 0.1341(3) 0.4391(2) -0.0933(2)
H31 H 0.1452 0.4458 -0.1530
C46 C 0.1431(3) 0.5245(2) -0.0356(2)
H32 H 0.1607 0.5896 -0.0555
C47 C 0.1264(3) 0.5139(2) 0.0513(2)
H33 H 0.1316 0.5719 0.0907
C48 C 0.1019(2) 0.4191(2) 0.08118(19)
H34 H 0.0913 0.4131 0.1411
Co2_2 Co 2.0000 1.0000 1.0000
N1A N 1.10668(17) 0.60303(17) 0.62694(14)
C1A C 1.2129(2) 0.6312(2) 0.64133(18)
H1A H 1.2396 0.6101 0.5938
N2A N 1.28048(16) 0.79334(17) 0.95126(14)
C2A C 1.2858(2) 0.6897(2) 0.72215(18)
H2A H 1.3605 0.7085 0.7293
C3A C 1.24725(19) 0.7205(2) 0.79261(16)
C4A C 1.1373(2) 0.6916(2) 0.77858(18)
H3A H 1.1083 0.7117 0.8249
C5A C 1.0707(2) 0.6329(2) 0.69542(18)
H4A H 0.9956 0.6128 0.6865
C6A C 1.32250(19) 0.77987(19) 0.88125(16)
N3A N 1.42703(16) 0.81318(17) 0.88528(14)
C7A C 1.49178(18) 0.86379(19) 0.96759(16)
C8A C 1.60862(18) 0.89833(19) 0.97590(17)
C9A C 1.6458(2) 0.8806(2) 0.89992(18)
H5A H 1.5971 0.8471 0.8423
C10A C 1.7551(2) 0.9129(2) 0.91016(18)
H6A H 1.7800 0.9007 0.8581
N4A N 1.82813(16) 0.96078(16) 0.98995(14)
N4A_2 N -0.17187(16) -0.03922(16) -0.01005(14)
C11A C 1.7913(2) 0.9775(2) 1.06249(17)
H7A H 1.8417 1.0111 1.1193
C12A C 1.6828(2) 0.9481(2) 1.05886(17)
H8A H 1.6600 0.9618 1.1118
N5A N 1.45891(16) 0.88346(17) 1.04134(14)
C13A C 1.35286(19) 0.84657(19) 1.02966(16)
C14A C 1.3113(2) 0.8659(2) 1.10932(17)
C15A C 1.3809(2) 0.9163(2) 1.19418(18)
H9A H 1.4562 0.9382 1.2030
C16A C 1.3375(2) 0.9337(3) 1.2655(2)
H10A H 1.3853 0.9667 1.3236
N6A N 1.2321(2) 0.9067(2) 1.25772(16)
C17A C 1.1669(2) 0.8603(3) 1.17518(19)
H11A H 1.0923 0.8423 1.1676
C18A C 1.2020(2) 0.8368(2) 1.09979(18)
H12A H 1.1523 0.8016 1.0430
O1A O 0.95759(15) 0.60917(15) 0.44576(12)
C19A C 0.9832(2) 0.6474(2) 0.37591(16)
C20A C 1.0675(2) 0.6436(2) 0.33915(18)
H13A H 1.0809 0.6779 0.2883
C21A C 1.1332(2) 0.5923(2) 0.37307(17)
O2A O 1.12431(14) 0.54293(15) 0.43993(12)
C22A C 1.2198(2) 0.5903(2) 0.32822(18)
C23A C 1.2528(3) 0.5087(3) 0.3377(2)
H14A H 1.2210 0.4576 0.3725
C24A C 1.3316(3) 0.5016(3) 0.2967(3)
H15A H 1.3515 0.4446 0.3019
C25A C 1.3807(3) 0.5769(3) 0.2486(3)
H16A H 1.4354 0.5727 0.2216
C26A C 1.3504(3) 0.6587(3) 0.2397(3)
H17A H 1.3849 0.7109 0.2069
C27A C 1.2697(3) 0.6654(3) 0.2785(2)
H18A H 1.2486 0.7214 0.2710
C28A C 0.9143(2) 0.6990(2) 0.33043(17)
C29A C 0.9571(3) 0.7916(2) 0.29789(19)
H19A H 1.0321 0.8240 0.3037
C30A C 0.8897(3) 0.8370(3) 0.2567(2)
H20A H 0.9190 0.9009 0.2356
C31A C 0.7807(3) 0.7889(3) 0.2467(2)
H21A H 0.7348 0.8189 0.2173
C32A C 0.7378(3) 0.6974(3) 0.2792(2)
H22A H 0.6626 0.6651 0.2723
C33A C 0.8043(2) 0.6520(3) 0.3221(2)
H23A H 0.7748 0.5897 0.3455
O3A O -0.03139(13) -0.04108(14) -0.13960(11)
C34A C -0.06718(19) -0.1315(2) -0.18512(16)
C35A C -0.0865(2) -0.2228(2) -0.14744(17)
H24A H -0.1148 -0.2859 -0.1889
C36A C -0.06717(19) -0.22829(19) -0.05279(16)
O4A O -0.03020(14) -0.15167(14) 0.01101(11)
C37A C -0.0924(2) -0.1391(2) -0.28739(17)
C38A C -0.0927(3) -0.2200(3) -0.3450(2)
H25A H -0.0772 -0.2734 -0.3192
C39A C -0.1150(4) -0.2248(3) -0.4393(2)
H26A H -0.1155 -0.2815 -0.4772
C40A C -0.1364(4) -0.1482(3) -0.4782(2)
H27A H -0.1470 -0.1488 -0.5424
C41A C -0.1421(4) -0.0700(3) -0.4223(3)
H28A H -0.1617 -0.0190 -0.4488
C42A C -0.1197(3) -0.0650(3) -0.3274(2)
H29A H -0.1233 -0.0102 -0.2900
C43A C -0.0928(2) -0.3325(2) -0.02426(17)
C44A C -0.1088(2) -0.3441(2) 0.06388(18)
H30A H -0.1023 -0.2861 0.1040
C45A C -0.1341(3) -0.4391(2) 0.0933(2)
H31A H -0.1452 -0.4458 0.1530
C46A C -0.1431(3) -0.5245(2) 0.0356(2)
H32A H -0.1607 -0.5896 0.0555
C47A C -0.1264(3) -0.5139(2) -0.0513(2)
H33A H -0.1316 -0.5719 -0.0907
C48A C -0.1019(2) -0.4191(2) -0.08118(19)
H34A H -0.0913 -0.4131 -0.1411
O5 O 0.4734(4) 0.3163(5) 0.8972(4)
C49 C 0.5197(5) 0.3573(4) 0.9693(4)
H35 H 0.5955 0.3805 0.9825
N7 N 0.4747(3) 0.3779(3) 1.0434(2)
C50 C 0.5491(4) 0.4252(5) 1.1282(4)
H36 H 0.6230 0.4636 1.1324
C51 C 0.3640(4) 0.3579(4) 1.0302(5)
O8 O 0.4362(12) 0.2844(12) 0.2983(9)
C55 C 0.4394(10) 0.2247(13) 0.3590(10)
H38 H 0.4367 0.1590 0.3371
N9 N 0.4462(8) 0.2449(10) 0.4529(8)
C56 C 0.451(2) 0.3352(17) 0.5053(19)
C57 C 0.4487(16) 0.1665(16) 0.5091(14)
O10 O 0.6630(9) 0.0253(8) 0.2622(7)
C61 C 0.6492(11) 0.0454(8) 0.3398(8)
H40 H 0.5786 0.0327 0.3451
N11 N 0.7304(4) 0.0842(3) 0.4162(3)
C62 C 0.726(2) 0.1114(12) 0.5071(11)
C63 C 0.8399(11) 0.1030(15) 0.4019(13)
O6? O 0.5118(11) 0.4137(11) 1.1985(10)
O7? O 0.5648(13) 0.4241(12) 0.3584(11)
C52? C 0.5573(13) 0.3820(12) 0.4318(13)
H37? H 0.6116 0.4169 0.4863
N8? N 0.4744(10) 0.2885(10) 0.4367(9)
C53? C 0.3935(12) 0.2381(13) 0.3521(10)
C54? C 0.4665(18) 0.2424(17) 0.5177(13)
O9? O 0.4621(18) 0.2657(17) 0.3035(14)
C58? C 0.414(2) 0.256(2) 0.3673(16)
H39? H 0.3544 0.1946 0.3674
N10? N 0.4545(18) 0.3428(19) 0.4396(14)
C59? C 0.543(2) 0.435(2) 0.442(2)
C60? C 0.399(3) 0.332(3) 0.5129(19)
O11? O 0.5828(12) 0.0409(12) 0.4825(11)
C64? C 0.6815(13) 0.1034(12) 0.4878(10)
H41? H 0.7199 0.1595 0.5369
N12? N 0.7304(4) 0.0842(3) 0.4162(3)
C65? C 0.6604(13) -0.0042(12) 0.3486(11)
C66? C 0.8371(10) 0.1490(11) 0.4214(11)
O12? O 0.6732(13) -0.0169(12) 0.2779(11)
C67? C 0.7543(14) 0.0649(13) 0.3314(10)
H42? H 0.8185 0.1044 0.3150
N13? N 0.7304(4) 0.0842(3) 0.4162(3)
C68? C 0.7899(11) 0.1602(9) 0.4914(8)
C69? C 0.6241(14) 0.0064(17) 0.415(2)
loop_
_geom_bond_atom_site_label_1
_geom_bond_atom_site_label_2
_geom_bond_site_symmetry_1
_geom_bond_site_symmetry_2
Co1 N1 1_555 1_555
Co2 N4 1_555 1_555
N1 C1 1_555 1_555
C1 H1 1_555 1_555
N2 C6 1_555 1_555
C2 C1 1_555 1_555
H2 C2 1_555 1_555
C3 C2 1_555 1_555
C4 C3 1_555 1_555
H3 C4 1_555 1_555
C5 N1 1_555 1_555
H4 C5 1_555 1_555
C6 C3 1_555 1_555
N3 C6 1_555 1_555
C7 N3 1_555 1_555
C8 C7 1_555 1_555
C9 C8 1_555 1_555
H5 C9 1_555 1_555
C10 C9 1_555 1_555
H6 C10 1_555 1_555
N4 C10 1_555 1_555
C11 N4 1_555 1_555
H7 C11 1_555 1_555
C12 C8 1_555 1_555
H8 C12 1_555 1_555
N5 C7 1_555 1_555
C13 N2 1_555 1_555
C14 C13 1_555 1_555
C15 C14 1_555 1_555
H9 C15 1_555 1_555
C16 C15 1_555 1_555
H10 C16 1_555 1_555
N6 C16 1_555 1_555
C17 N6 1_555 1_555
H11 C17 1_555 1_555
C18 C14 1_555 1_555
H12 C18 1_555 1_555
O1 Co1 1_555 1_555
C19 O1 1_555 1_555
C20 C19 1_555 1_555
H13 C20 1_555 1_555
C21 C20 1_555 1_555
O2 Co1 1_555 1_555
C22 C21 1_555 1_555
C23 C22 1_555 1_555
H14 C23 1_555 1_555
C24 C23 1_555 1_555
H15 C24 1_555 1_555
C25 C24 1_555 1_555
H16 C25 1_555 1_555
C26 C25 1_555 1_555
H17 C26 1_555 1_555
C27 C22 1_555 1_555
H18 C27 1_555 1_555
C28 C19 1_555 1_555
C29 C28 1_555 1_555
H19 C29 1_555 1_555
C30 C29 1_555 1_555
H20 C30 1_555 1_555
C31 C30 1_555 1_555
H21 C31 1_555 1_555
C32 C31 1_555 1_555
H22 C32 1_555 1_555
C33 C28 1_555 1_555
H23 C33 1_555 1_555
O3 Co2 1_555 1_555
C34 O3 1_555 1_555
C35 C34 1_555 1_555
H24 C35 1_555 1_555
C36 C35 1_555 1_555
O4 Co2 1_555 1_555
C37 C34 1_555 1_555
C38 C37 1_555 1_555
H25 C38 1_555 1_555
C39 C38 1_555 1_555
H26 C39 1_555 1_555
C40 C39 1_555 1_555
H27 C40 1_555 1_555
C41 C40 1_555 1_555
H28 C41 1_555 1_555
C42 C37 1_555 1_555
H29 C42 1_555 1_555
C43 C36 1_555 1_555
C44 C43 1_555 1_555
H30 C44 1_555 1_555
C45 C44 1_555 1_555
H31 C45 1_555 1_555
C46 C45 1_555 1_555
H32 C46 1_555 1_555
C47 C46 1_555 1_555
H33 C47 1_555 1_555
C48 C43 1_555 1_555
H34 C48 1_555 1_555
O5 C49 1_555 1_555
C49 H35 1_555 1_555
N7 C49 1_555 1_555
C50 N7 1_555 1_555
H36 C50 1_555 1_555
C51 N7 1_555 1_555
O8 C55 1_555 1_555
C55 H38 1_555 1_555
N9 C55 1_555 1_555
C56 N9 1_555 1_555
C57 N9 1_555 1_555
O10 C61 1_555 1_555
C61 H40 1_555 1_555
N11 C61 1_555 1_555
C62 N11 1_555 1_555
C63 N11 1_555 1_555
Co2_2 N4A 1_555 1_555
N1A Co1 1_555 1_555
C1A N1A 1_555 1_555
H1A C1A 1_555 1_555
N2A C6A 1_555 1_555
C2A C1A 1_555 1_555
H2A C2A 1_555 1_555
C3A C2A 1_555 1_555
C4A C3A 1_555 1_555
H3A C4A 1_555 1_555
C5A N1A 1_555 1_555
H4A C5A 1_555 1_555
C6A C3A 1_555 1_555
N3A C6A 1_555 1_555
C7A N3A 1_555 1_555
C8A C7A 1_555 1_555
C9A C8A 1_555 1_555
H5A C9A 1_555 1_555
C10A C9A 1_555 1_555
H6A C10A 1_555 1_555
N4A C10A 1_555 1_555
N4A_2 Co2 1_555 1_555
C11A N4A 1_555 1_555
H7A C11A 1_555 1_555
C12A C8A 1_555 1_555
H8A C12A 1_555 1_555
N5A C7A 1_555 1_555
C13A N2A 1_555 1_555
C14A C13A 1_555 1_555
C15A C14A 1_555 1_555
H9A C15A 1_555 1_555
C16A C15A 1_555 1_555
H10A C16A 1_555 1_555
N6A C16A 1_555 1_555
C17A N6A 1_555 1_555
H11A C17A 1_555 1_555
C18A C14A 1_555 1_555
H12A C18A 1_555 1_555
O1A Co1 1_555 1_555
C19A O1A 1_555 1_555
C20A C19A 1_555 1_555
H13A C20A 1_555 1_555
C21A C20A 1_555 1_555
O2A Co1 1_555 1_555
C22A C21A 1_555 1_555
C23A C22A 1_555 1_555
H14A C23A 1_555 1_555
C24A C23A 1_555 1_555
H15A C24A 1_555 1_555
C25A C24A 1_555 1_555
H16A C25A 1_555 1_555
C26A C25A 1_555 1_555
H17A C26A 1_555 1_555
C27A C22A 1_555 1_555
H18A C27A 1_555 1_555
C28A C19A 1_555 1_555
C29A C28A 1_555 1_555
H19A C29A 1_555 1_555
C30A C29A 1_555 1_555
H20A C30A 1_555 1_555
C31A C30A 1_555 1_555
H21A C31A 1_555 1_555
C32A C31A 1_555 1_555
H22A C32A 1_555 1_555
C33A C28A 1_555 1_555
H23A C33A 1_555 1_555
O3A Co2 1_555 1_555
C34A O3A 1_555 1_555
C35A C34A 1_555 1_555
H24A C35A 1_555 1_555
C36A C35A 1_555 1_555
O4A Co2 1_555 1_555
C37A C34A 1_555 1_555
C38A C37A 1_555 1_555
H25A C38A 1_555 1_555
C39A C38A 1_555 1_555
H26A C39A 1_555 1_555
C40A C39A 1_555 1_555
H27A C40A 1_555 1_555
C41A C40A 1_555 1_555
H28A C41A 1_555 1_555
C42A C37A 1_555 1_555
H29A C42A 1_555 1_555
C43A C36A 1_555 1_555
C44A C43A 1_555 1_555
H30A C44A 1_555 1_555
C45A C44A 1_555 1_555
H31A C45A 1_555 1_555
C46A C45A 1_555 1_555
H32A C46A 1_555 1_555
C47A C46A 1_555 1_555
H33A C47A 1_555 1_555
C48A C43A 1_555 1_555
H34A C48A 1_555 1_555
C4 C5 1_555 1_555
C11 C12 1_555 1_555
N5 C13 1_555 1_555
C17 C18 1_555 1_555
C21 O2 1_555 1_555
C26 C27 1_555 1_555
C32 C33 1_555 1_555
C36 O4 1_555 1_555
C41 C42 1_555 1_555
C47 C48 1_555 1_555
C4A C5A 1_555 1_555
C11A C12A 1_555 1_555
N5A C13A 1_555 1_555
C17A C18A 1_555 1_555
C21A O2A 1_555 1_555
C26A C27A 1_555 1_555
C32A C33A 1_555 1_555
C36A O4A 1_555 1_555
C41A C42A 1_555 1_555
C47A C48A 1_555 1_555

#END
