
#######################################################################
#
#                 Cambridge Crystallographic Data Centre
#                                CCDC 
#
#######################################################################
#
# If this CIF has been generated from an entry in the Cambridge 
# Structural Database, then it will include bibliographic, chemical, 
# crystal, experimental, refinement or atomic coordinate data resulting 
# from the CCDC's data processing and validation procedures.
#
#######################################################################

data_LIMYAH
_symmetry_cell_setting           monoclinic
_symmetry_space_group_name_H-M   'C 2/c'
_symmetry_Int_Tables_number      15
_space_group_name_Hall           '-C 2yn'
loop_
_symmetry_equiv_pos_site_id
_symmetry_equiv_pos_as_xyz
1 x,y,z
2 -x,y,1/2-z
3 1/2+x,1/2+y,z
4 1/2-x,1/2+y,1/2-z
5 -x,-y,-z
6 x,-y,1/2+z
7 1/2-x,1/2-y,-z
8 1/2+x,1/2-y,1/2+z
_cell_length_a                   17.171(2)
_cell_length_b                   13.309(2)
_cell_length_c                   21.372(3)
_cell_angle_alpha                90
_cell_angle_beta                 112.45(1)
_cell_angle_gamma                90
_cell_volume                     4513.97
loop_
_atom_site_label
_atom_site_type_symbol
_atom_site_fract_x
_atom_site_fract_y
_atom_site_fract_z
Cu1 Cu 0.61231(7) 0.29982(9) 0.28748(6)
O1 O 0.5513(4) 0.1888(6) 0.3336(3)
O2 O 0.4133(4) 0.2266(5) 0.2966(3)
O3 O 0.50000 0.3771(7) 0.25000
O4 O 0.6480(4) 0.3775(5) 0.3703(3)
O5 O 0.5389(4) 0.4735(6) 0.3615(4)
N1 N 0.7295(4) 0.2395(6) 0.3213(3)
Cl1 Cl 0.5644(2) 0.0827(3) 0.4535(2)
Cl2 Cl 0.3955(3) 0.0410(3) 0.3670(2)
Cl3 Cl 0.4359(3) 0.2236(3) 0.4413(2)
Cl4 Cl 0.7162(2) 0.3818(3) 0.5179(2)
Cl5 Cl 0.6003(2) 0.5411(3) 0.5000(2)
Cl6 Cl 0.7390(2) 0.5607(3) 0.4555(2)
C1 C 0.4822(6) 0.1892(8) 0.3359(4)
C2 C 0.4709(6) 0.1345(8) 0.3972(5)
C3 C 0.6096(7) 0.4385(8) 0.3912(5)
C4 C 0.6617(6) 0.4788(8) 0.4644(5)
C5 C 0.7421(6) 0.1491(7) 0.2984(5)
C6 C 0.8214(6) 0.1099(7) 0.3154(5)
C7 C 0.8919(8) 0.1602(9) 0.3587(6)
C8 C 0.8789(7) 0.254(1) 0.3800(6)
C9 C 0.7969(6) 0.2895(9) 0.3609(5)
C10 C 0.8308(6) 0.0131(9) 0.2871(5)
N2 N 0.8369(6) -0.0594(8) 0.2621(5)
H1 H 0.506(8) 0.408(8) 0.286(5)
H2 H 0.684(5) 0.113(6) 0.261(4)
H3 H 0.945(7) 0.132(9) 0.367(5)
H4 H 0.924(5) 0.285(6) 0.411(4)
H5 H 0.775(6) 0.351(7) 0.365(5)
H1A H 0.494(8) 0.408(8) 0.214(5)
O1A O 0.4487(4) 0.1888(6) 0.1664(3)
O2A O 0.5867(4) 0.2266(5) 0.2034(3)
Cl1A Cl 0.4356(2) 0.0827(3) 0.0465(2)
Cl2A Cl 0.6045(3) 0.0410(3) 0.1330(2)
Cl3A Cl 0.5641(3) 0.2236(3) 0.0587(2)
C1A C 0.5178(6) 0.1892(8) 0.1641(4)
C2A C 0.5291(6) 0.1345(8) 0.1028(5)
N1C N 0.7705(4) 0.7395(6) 0.1787(3)
C5C C 0.7579(6) 0.6491(7) 0.2016(5)
C6C C 0.6786(6) 0.6099(7) 0.1846(5)
C7C C 0.6081(8) 0.6602(9) 0.1413(6)
C8C C 0.6211(7) 0.754(1) 0.1200(6)
C9C C 0.7031(6) 0.7895(9) 0.1391(5)
C10C C 0.6692(6) 0.5131(9) 0.2129(5)
N2C N 0.6631(6) 0.4406(8) 0.2379(5)
H2C H 0.816(5) 0.613(6) 0.239(4)
H3C H 0.555(7) 0.632(9) 0.133(5)
H4C H 0.576(5) 0.785(6) 0.089(4)
H5C H 0.725(6) 0.851(7) 0.135(5)
Cu1A Cu 0.38769(7) 0.29982(9) 0.21252(6)
O4A O 0.3520(4) 0.3775(5) 0.1297(3)
O5A O 0.4611(4) 0.4735(6) 0.1385(4)
Cl4A Cl 0.2838(2) 0.3818(3) -0.0179(2)
Cl5A Cl 0.3997(2) 0.5411(3) 0.0000(2)
Cl6A Cl 0.2610(2) 0.5607(3) 0.0445(2)
C3A C 0.3904(7) 0.4385(8) 0.1088(5)
C4A C 0.3383(6) 0.4788(8) 0.0356(5)
Cu1C Cu 0.88769(7) -0.20018(9) 0.21252(6)
Cu1C_2 Cu 0.88769(7) 0.79982(9) 0.21252(6)
N1A N 0.2705(4) 0.2395(6) 0.1787(3)
N2B N 0.3369(6) 0.4406(8) 0.2621(5)
C11 C 0.877(3) 0.347(4) 0.184(2)
Cl7 Cl 0.9025(5) 0.3063(7) 0.1114(4)
Cl8 Cl 0.7828(5) 0.3053(7) 0.1677(4)
Cl10 Cl 0.914(1) 0.442(2) 0.221(1)
Cl9? Cl 0.9258(8) 0.199(1) 0.1991(6)
Cl11? Cl 0.880(1) 0.449(2) 0.169(1)
loop_
_geom_bond_atom_site_label_1
_geom_bond_atom_site_label_2
_geom_bond_site_symmetry_1
_geom_bond_site_symmetry_2
Cu1 O1 1_555 1_555
O1 C1 1_555 1_555
O2 C1 1_555 1_555
O3 Cu1 1_555 1_555
O4 Cu1 1_555 1_555
O5 C3 1_555 1_555
N1 Cu1 1_555 1_555
Cl1 C2 1_555 1_555
Cl2 C2 1_555 1_555
Cl3 C2 1_555 1_555
Cl4 C4 1_555 1_555
Cl5 C4 1_555 1_555
Cl6 C4 1_555 1_555
C1 C2 1_555 1_555
C3 O4 1_555 1_555
C4 C3 1_555 1_555
C5 N1 1_555 1_555
C6 C5 1_555 1_555
C7 C6 1_555 1_555
C8 C7 1_555 1_555
C9 N1 1_555 1_555
C10 C6 1_555 1_555
N2 C10 1_555 1_555
C11 Cl7 1_555 1_555
Cl8 C11 1_555 1_555
Cl10 C11 1_555 1_555
H1 O3 1_555 1_555
H2 C5 1_555 1_555
H3 C7 1_555 1_555
H4 C8 1_555 1_555
H5 C9 1_555 1_555
H1A O3 1_555 1_555
O1A C1A 1_555 1_555
O2A Cu1 1_555 1_555
Cl1A C2A 1_555 1_555
Cl2A C2A 1_555 1_555
Cl3A C2A 1_555 1_555
C1A O2A 1_555 1_555
C2A C1A 1_555 1_555
N1C C5C 1_555 1_555
C5C C6C 1_555 1_555
C6C C7C 1_555 1_555
C7C C8C 1_555 1_555
C8C C9C 1_555 1_555
C9C N1C 1_555 1_555
C10C C6C 1_555 1_555
N2C Cu1 1_555 1_555
H2C C5C 1_555 1_555
H3C C7C 1_555 1_555
H4C C8C 1_555 1_555
H5C C9C 1_555 1_555
Cu1A O2 1_555 1_555
O4A Cu1A 1_555 1_555
O5A C3A 1_555 1_555
Cl4A C4A 1_555 1_555
Cl5A C4A 1_555 1_555
Cl6A C4A 1_555 1_555
C3A O4A 1_555 1_555
C4A C3A 1_555 1_555
Cu1C N2 1_555 1_555
Cu1C_2 N1C 1_555 1_555
N1A Cu1A 1_555 1_555
N2B Cu1A 1_555 1_555
O3 Cu1A 1_555 1_555
C8 C9 1_555 1_555
O1A Cu1A 1_555 1_555
C10C N2C 1_555 1_555

#END
