
#######################################################################
#
#                 Cambridge Crystallographic Data Centre
#                                CCDC 
#
#######################################################################
#
# If this CIF has been generated from an entry in the Cambridge 
# Structural Database, then it will include bibliographic, chemical, 
# crystal, experimental, refinement or atomic coordinate data resulting 
# from the CCDC's data processing and validation procedures.
#
#######################################################################

data_LIMZIQ
_symmetry_cell_setting           monoclinic
_symmetry_space_group_name_H-M   'P 21/n'
_symmetry_Int_Tables_number      14
_space_group_name_Hall           '-P 2yn'
loop_
_symmetry_equiv_pos_site_id
_symmetry_equiv_pos_as_xyz
1 x,y,z
2 1/2-x,1/2+y,1/2-z
3 -x,-y,-z
4 1/2+x,1/2-y,1/2+z
_cell_length_a                   7.5632(5)
_cell_length_b                   18.5427(6)
_cell_length_c                   8.6251(3)
_cell_angle_alpha                90
_cell_angle_beta                 112.115(7)
_cell_angle_gamma                90
_cell_volume                     1120.61
loop_
_atom_site_label
_atom_site_type_symbol
_atom_site_fract_x
_atom_site_fract_y
_atom_site_fract_z
Mn1 Mn 0.5000 0.0000 0.5000
Cl1 Cl 0.6958(1) 0.0392(1) 0.3260(1)
N1 N 0.3497(4) 0.1084(2) 0.4530(4)
C1 C 0.1710(5) 0.1226(2) 0.4315(4)
N2 N 0.1228(4) 0.1911(2) 0.3839(4)
C2 C 0.2805(6) 0.2236(2) 0.3732(6)
C3 C 0.4180(6) 0.1719(2) 0.4170(6)
C4 C -0.0673(6) 0.2225(2) 0.3389(6)
C5 C -0.0734(5) 0.2884(2) 0.4372(5)
C6 C -0.2713(5) 0.3211(2) 0.3783(5)
C7 C -0.2885(6) 0.3903(2) 0.4552(6)
N3 N -0.4880(4) 0.4140(2) 0.3993(4)
C8 C -0.5936(5) 0.4381(2) 0.2456(5)
N4 N -0.7689(4) 0.4550(2) 0.2293(4)
C9 C 0.7251(5) 0.0583(2) 0.8835(5)
C10 C -0.6032(6) 0.4160(2) 0.4896(5)
H1 H 0.0872(5) 0.0887(2) 0.4476(4)
H2 H 0.2914(6) 0.2715(2) 0.3423(6)
H3 H 0.5431(6) 0.1788(2) 0.4218(6)
H4 H -0.1524(6) 0.1860(2) 0.3551(6)
H5 H -0.1165(6) 0.2350(2) 0.2197(6)
H6 H 0.0165(5) 0.3242(2) 0.4264(5)
H7 H -0.0328(5) 0.2755(2) 0.5558(5)
H8 H -0.3163(5) 0.3281(2) 0.2569(5)
H9 H -0.3570(5) 0.2863(2) 0.3996(5)
H10 H -0.2363(6) 0.3852(2) 0.5773(6)
H11 H -0.2134(6) 0.4271(2) 0.4257(6)
H12 H -0.5475(5) 0.4426(2) 0.1589(5)
H13 H 0.6182(5) 0.0508(2) 0.9120(5)
H14 H -0.5703(6) 0.4024(2) 0.6019(5)
Cl1B Cl 0.3042(1) -0.0392(1) 0.6740(1)
N4A N 0.2689(4) -0.0450(2) 0.2707(4)
Mn1A Mn -1.0000 0.5000 0.0000
Mn1C Mn 2.0000 0.5000 1.0000
N1C N 1.8497(4) 0.3916(2) 0.9530(4)
C1C C 1.6710(5) 0.3774(2) 0.9315(4)
N2C N 1.6228(4) 0.3089(2) 0.8839(4)
C2C C 1.7805(6) 0.2764(2) 0.8732(6)
C3C C 1.9180(6) 0.3281(2) 0.9170(6)
H3C H 2.0431(6) 0.3212(2) 0.9218(6)
H2C H 1.7914(6) 0.2285(2) 0.8423(6)
C4C C 1.4327(6) 0.2775(2) 0.8389(6)
C5C C 1.4266(5) 0.2116(2) 0.9372(5)
C6C C 1.2287(5) 0.1789(2) 0.8783(5)
C7C C 1.2115(6) 0.1097(2) 0.9552(6)
N3C N 1.0120(4) 0.0860(2) 0.8993(4)
C8C C 0.9064(5) 0.0619(2) 0.7456(5)
N4C N 0.7311(4) 0.0450(2) 0.7293(4)
N1B N 0.6503(4) -0.1084(2) 0.5470(4)
C10C C 0.8968(6) 0.0840(2) 0.9896(5)
H14C H 0.9297(6) 0.0976(2) 1.1019(5)
H12C H 0.9525(5) 0.0574(2) 0.6589(5)
H10C H 1.2637(6) 0.1148(2) 1.0773(6)
H11C H 1.2866(6) 0.0729(2) 0.9257(6)
H8C H 1.1837(5) 0.1719(2) 0.7569(5)
H9C H 1.1430(5) 0.2137(2) 0.8996(5)
H6C H 1.5165(5) 0.1758(2) 0.9264(5)
H7C H 1.4672(5) 0.2245(2) 1.0558(5)
H4C H 1.3476(6) 0.3140(2) 0.8551(6)
H5C H 1.3835(6) 0.2650(2) 0.7197(6)
H1C H 1.5872(5) 0.4113(2) 0.9476(4)
C9C C -0.7749(5) 0.4417(2) 0.3835(5)
H13C H -0.8818(5) 0.4492(2) 0.4120(5)
loop_
_geom_bond_atom_site_label_1
_geom_bond_atom_site_label_2
_geom_bond_site_symmetry_1
_geom_bond_site_symmetry_2
Mn1 Cl1 1_555 1_555
N1 Mn1 1_555 1_555
C1 N1 1_555 1_555
N2 C1 1_555 1_555
C2 N2 1_555 1_555
C3 N1 1_555 1_555
C4 N2 1_555 1_555
C5 C4 1_555 1_555
C6 C5 1_555 1_555
C7 C6 1_555 1_555
N3 C7 1_555 1_555
C8 N3 1_555 1_555
N4 C8 1_555 1_555
C9 H13 1_555 1_555
C10 N3 1_555 1_555
H1 C1 1_555 1_555
H2 C2 1_555 1_555
H3 C3 1_555 1_555
H4 C4 1_555 1_555
H5 C4 1_555 1_555
H6 C5 1_555 1_555
H7 C5 1_555 1_555
H8 C6 1_555 1_555
H9 C6 1_555 1_555
H10 C7 1_555 1_555
H11 C7 1_555 1_555
H12 C8 1_555 1_555
H14 C10 1_555 1_555
Cl1B Mn1 1_555 1_555
N4A Mn1 1_555 1_555
Mn1A N4 1_555 1_555
Mn1C N1C 1_555 1_555
N1C C1C 1_555 1_555
C1C N2C 1_555 1_555
N2C C2C 1_555 1_555
C2C C3C 1_555 1_555
C3C N1C 1_555 1_555
H3C C3C 1_555 1_555
H2C C2C 1_555 1_555
C4C N2C 1_555 1_555
C5C C4C 1_555 1_555
C6C C5C 1_555 1_555
C7C C6C 1_555 1_555
N3C C7C 1_555 1_555
C8C N3C 1_555 1_555
N4C Mn1 1_555 1_555
N1B Mn1 1_555 1_555
C10C C9 1_555 1_555
H14C C10C 1_555 1_555
H12C C8C 1_555 1_555
H10C C7C 1_555 1_555
H11C C7C 1_555 1_555
H8C C6C 1_555 1_555
H9C C6C 1_555 1_555
H6C C5C 1_555 1_555
H7C C5C 1_555 1_555
H4C C4C 1_555 1_555
H5C C4C 1_555 1_555
H1C C1C 1_555 1_555
C9C N4 1_555 1_555
H13C C9C 1_555 1_555
C2 C3 1_555 1_555
C9 N4C 1_555 1_555
C10 C9C 1_555 1_555
N3C C10C 1_555 1_555
C8C N4C 1_555 1_555

#END
