
#######################################################################
#
#                 Cambridge Crystallographic Data Centre
#                                CCDC 
#
#######################################################################
#
# If this CIF has been generated from an entry in the Cambridge 
# Structural Database, then it will include bibliographic, chemical, 
# crystal, experimental, refinement or atomic coordinate data resulting 
# from the CCDC's data processing and validation procedures.
#
#######################################################################

data_LINGAQ
_symmetry_cell_setting           rhombohedral
_symmetry_space_group_name_H-M   'R 3'
_symmetry_Int_Tables_number      146
_space_group_name_Hall           'R 3'
loop_
_symmetry_equiv_pos_site_id
_symmetry_equiv_pos_as_xyz
1 x,y,z
2 -y,x-y,z
3 -x+y,-x,z
4 1/3+x,2/3+y,2/3+z
5 1/3-y,2/3+x-y,2/3+z
6 1/3-x+y,2/3-x,2/3+z
7 2/3+x,1/3+y,1/3+z
8 2/3-y,1/3+x-y,1/3+z
9 2/3-x+y,1/3-x,1/3+z
_cell_length_a                   13.9182(8)
_cell_length_b                   13.9182(8)
_cell_length_c                   17.733(2)
_cell_angle_alpha                90
_cell_angle_beta                 90
_cell_angle_gamma                120
_cell_volume                     2974.95
loop_
_atom_site_label
_atom_site_type_symbol
_atom_site_fract_x
_atom_site_fract_y
_atom_site_fract_z
Mn1 Mn 0.3333 0.6667 1.2442(4)
N1 N 0.2871(11) 0.5167(10) 1.1680(7)
C1 C 0.3161(14) 0.5104(16) 1.0999(10)
N2 N 0.2664(12) 0.4106(13) 1.0738(7)
C2 C 0.1945(17) 0.3394(15) 1.1312(10)
C3 C 0.2167(12) 0.4069(14) 1.1885(9)
C4 C 0.2694(18) 0.3784(19) 0.9939(9)
C5 C 0.1684(16) 0.3471(17) 0.9532(11)
C6 C 0.1737(15) 0.3181(15) 0.8708(10)
C7 C 0.0638(13) 0.2877(16) 0.8294(9)
N3 N 0.0679(11) 0.2565(10) 0.7523(8)
C8 C 0.0141(13) 0.1508(12) 0.7234(8)
N4 N 0.3746(12) 0.8175(12) 1.3152(7)
C9 C 0.4545(15) 0.9273(12) 1.2992(9)
C10 C 0.1267(16) 0.3213(14) 0.6973(10)
H1 H 0.3675(14) 0.5716(16) 1.0725(10)
H2 H 0.1443(17) 0.2636(15) 1.1286(10)
H3 H 0.1888(12) 0.3841(14) 1.2369(9)
H4 H 0.3306(18) 0.4403(19) 0.9682(9)
H5 H 0.2834(18) 0.3168(19) 0.9933(9)
H6 H 0.1530(16) 0.4077(17) 0.9552(11)
H7 H 0.1076(16) 0.2835(17) 0.9778(11)
H8 H 0.1867(15) 0.2558(15) 0.8684(10)
H9 H 0.2351(15) 0.3808(15) 0.8460(10)
H10 H 0.0020(13) 0.2266(16) 0.8553(9)
H11 H 0.0521(13) 0.3508(16) 0.8302(9)
H12 H -0.0342(13) 0.0877(12) 0.7506(8)
H13 H 0.4954(15) 0.9545(12) 1.2551(9)
H14 H 0.1673(16) 0.3983(14) 0.7005(10)
N1A N 0.4833(10) 0.7704(15) 1.1680(7)
N1B N 0.2296(15) 0.7129(11) 1.1680(7)
N4A N 0.1825(12) 0.5571(17) 1.3152(7)
N4B N 0.4429(17) 0.6254(12) 1.3152(7)
N4F N 0.0413(12) 0.1508(12) 0.6485(7)
C8C C 0.3474(13) 0.8175(12) 1.3901(8)
C10C C 0.4600(16) 0.9880(14) 1.3640(10)
C9F C 0.1212(15) 0.2606(12) 0.6325(9)
C1A C 0.4896(16) 0.8057(21) 1.0999(10)
C3A C 0.5931(14) 0.8098(18) 1.1885(9)
Mn1F Mn -0.0000 0.0000 0.5775(4)
N3C N 0.4012(11) 0.9232(10) 1.4190(8)
H12C H 0.2991(13) 0.7544(12) 1.4173(8)
H14C H 0.5006(16) 1.0650(14) 1.3672(10)
H13F H 0.1621(15) 0.2878(12) 0.5884(9)
N2A N 0.5894(13) 0.8558(18) 1.0738(7)
H1A H 0.4284(16) 0.7959(21) 1.0725(10)
C2A C 0.6606(15) 0.8551(23) 1.1312(10)
H3A H 0.6159(14) 0.8047(18) 1.2369(9)
C7C C 0.3971(13) 0.9544(16) 1.4961(9)
C4A C 0.6216(19) 0.8910(26) 0.9939(9)
H2A H 0.7364(15) 0.8807(23) 1.1286(10)
C6C C 0.5070(15) 0.9848(15) 1.5375(10)
H10C H 0.3353(13) 0.8933(16) 1.5220(9)
H11C H 0.3854(13) 1.0175(16) 1.4969(9)
C5A C 0.6529(17) 0.8213(23) 0.9532(11)
H4A H 0.5597(19) 0.8903(26) 0.9682(9)
H5A H 0.6832(19) 0.9666(26) 0.9933(9)
C5C C 0.5017(16) 1.0138(17) 1.6199(11)
H8C H 0.5200(15) 0.9225(15) 1.5351(10)
H9C H 0.5684(15) 1.0475(15) 1.5127(10)
C6A C 0.6819(15) 0.8556(21) 0.8708(10)
H6A H 0.5923(17) 0.7453(23) 0.9552(11)
H7A H 0.7165(17) 0.8241(23) 0.9778(11)
C4C C 0.6027(18) 1.0451(19) 1.6606(9)
H6C H 0.4863(16) 1.0744(17) 1.6219(11)
H7C H 0.4409(16) 0.9502(17) 1.6445(11)
C7A C 0.7123(16) 0.7761(21) 0.8294(9)
H8A H 0.7442(15) 0.9309(21) 0.8684(10)
H9A H 0.6192(15) 0.8543(21) 0.8460(10)
N2C N 0.5997(12) 1.0773(13) 1.7405(7)
H4C H 0.6639(18) 1.1070(19) 1.6349(9)
H5C H 0.6167(18) 0.9835(19) 1.6600(9)
N3A N 0.7435(10) 0.8114(15) 0.7523(8)
H10A H 0.7734(16) 0.7754(21) 0.8553(9)
H11A H 0.6492(16) 0.7013(21) 0.8302(9)
C1C C 0.6494(14) 1.1771(16) 1.7666(10)
C2C C 0.5278(17) 1.0061(15) 1.7979(10)
C8A C 0.8492(12) 0.8633(18) 0.7234(8)
C10A C 0.6787(14) 0.8054(21) 0.6973(10)
N1C N 0.6204(11) 1.1834(10) 1.8347(7)
H1C H 0.7008(14) 1.2383(16) 1.7392(10)
C3C C 0.5500(12) 1.0736(14) 1.8552(9)
H2C H 0.4776(17) 0.9303(15) 1.7953(10)
N4G N 0.8492(12) 0.8904(17) 0.6485(7)
H12A H 0.9123(12) 0.8781(18) 0.7506(8)
C9G C 0.7394(12) 0.8605(19) 0.6325(9)
H14A H 0.6017(14) 0.7690(21) 0.7005(10)
Mn1C Mn 0.6666 1.3334 1.9109(4)
H3C H 0.5221(12) 1.0508(14) 1.9036(9)
Mn1F_2 Mn 1.0000 1.0000 0.5775(4)
H13G H 0.7122(12) 0.8742(19) 0.5884(9)
Cl1 Cl 0.0000 0.0000 0.9431(1)
O1 O 0.0000 0.0000 0.8641(1)
O2 O 0.1091(2) 0.0631(19) 0.9695(1)
O2A O -0.0631(19) 0.0460(19) 0.9695(1)
O2B O -0.0460(19) -0.1091(2) 0.9695(1)
Cl2 Cl 0.3333 0.6667 0.8811(2)
O5 O 0.3333 0.6667 0.9601(2)
O6 O 0.3561(17) 0.7709(5) 0.8548(2)
O6A O 0.2291(5) 0.5852(18) 0.8548(2)
O6B O 0.4148(18) 0.6439(17) 0.8548(2)
O3? O 0.0000 0.0000 1.0221(1)
O4? O -0.0633(7) 0.0458(7) 0.9168(1)
loop_
_geom_bond_atom_site_label_1
_geom_bond_atom_site_label_2
_geom_bond_site_symmetry_1
_geom_bond_site_symmetry_2
Mn1 N1 1_555 1_555
N1 C1 1_555 1_555
C1 N2 1_555 1_555
N2 C2 1_555 1_555
C2 C3 1_555 1_555
C3 N1 1_555 1_555
C4 N2 1_555 1_555
C5 C4 1_555 1_555
C6 C5 1_555 1_555
C7 C6 1_555 1_555
N3 C7 1_555 1_555
C8 N3 1_555 1_555
N4 Mn1 1_555 1_555
C9 N4 1_555 1_555
C10 N3 1_555 1_555
Cl1 O1 1_555 1_555
O2 Cl1 1_555 1_555
Cl2 O5 1_555 1_555
O6 Cl2 1_555 1_555
H1 C1 1_555 1_555
H2 C2 1_555 1_555
H3 C3 1_555 1_555
H4 C4 1_555 1_555
H5 C4 1_555 1_555
H6 C5 1_555 1_555
H7 C5 1_555 1_555
H8 C6 1_555 1_555
H9 C6 1_555 1_555
H10 C7 1_555 1_555
H11 C7 1_555 1_555
H12 C8 1_555 1_555
H13 C9 1_555 1_555
H14 C10 1_555 1_555
N1A Mn1 1_555 1_555
N1B Mn1 1_555 1_555
N4A Mn1 1_555 1_555
N4B Mn1 1_555 1_555
N4F C8 1_555 1_555
C8C N4 1_555 1_555
C10C C9 1_555 1_555
C9F C10 1_555 1_555
O2A Cl1 1_555 1_555
O2B Cl1 1_555 1_555
O6A Cl2 1_555 1_555
O6B Cl2 1_555 1_555
C1A N1A 1_555 1_555
C3A N1A 1_555 1_555
Mn1F N4F 1_555 1_555
N3C C8C 1_555 1_555
H12C C8C 1_555 1_555
H14C C10C 1_555 1_555
H13F C9F 1_555 1_555
N2A C1A 1_555 1_555
H1A C1A 1_555 1_555
C2A C3A 1_555 1_555
H3A C3A 1_555 1_555
C7C N3C 1_555 1_555
C4A N2A 1_555 1_555
H2A C2A 1_555 1_555
C6C C7C 1_555 1_555
H10C C7C 1_555 1_555
H11C C7C 1_555 1_555
C5A C4A 1_555 1_555
H4A C4A 1_555 1_555
H5A C4A 1_555 1_555
C5C C6C 1_555 1_555
H8C C6C 1_555 1_555
H9C C6C 1_555 1_555
C6A C5A 1_555 1_555
H6A C5A 1_555 1_555
H7A C5A 1_555 1_555
C4C C5C 1_555 1_555
H6C C5C 1_555 1_555
H7C C5C 1_555 1_555
C7A C6A 1_555 1_555
H8A C6A 1_555 1_555
H9A C6A 1_555 1_555
N2C C4C 1_555 1_555
H4C C4C 1_555 1_555
H5C C4C 1_555 1_555
N3A C7A 1_555 1_555
H10A C7A 1_555 1_555
H11A C7A 1_555 1_555
C1C N2C 1_555 1_555
C2C N2C 1_555 1_555
C8A N3A 1_555 1_555
C10A N3A 1_555 1_555
N1C C1C 1_555 1_555
H1C C1C 1_555 1_555
C3C C2C 1_555 1_555
H2C C2C 1_555 1_555
N4G C8A 1_555 1_555
H12A C8A 1_555 1_555
C9G C10A 1_555 1_555
H14A C10A 1_555 1_555
Mn1C N1C 1_555 1_555
H3C C3C 1_555 1_555
Mn1F_2 N4G 1_555 1_555
H13G C9G 1_555 1_555
N4F C9F 1_555 1_555
C10C N3C 1_555 1_555
N2A C2A 1_555 1_555
N1C C3C 1_555 1_555
N4G C9G 1_555 1_555

#END
