
#######################################################################
#
#                 Cambridge Crystallographic Data Centre
#                                CCDC 
#
#######################################################################
#
# If this CIF has been generated from an entry in the Cambridge 
# Structural Database, then it will include bibliographic, chemical, 
# crystal, experimental, refinement or atomic coordinate data resulting 
# from the CCDC's data processing and validation procedures.
#
#######################################################################

data_LINJOH
_symmetry_cell_setting           rhombohedral
_symmetry_space_group_name_H-M   'R 3'
_symmetry_Int_Tables_number      146
_space_group_name_Hall           'R 3'
loop_
_symmetry_equiv_pos_site_id
_symmetry_equiv_pos_as_xyz
1 x,y,z
2 -y,x-y,z
3 -x+y,-x,z
4 1/3+x,2/3+y,2/3+z
5 1/3-y,2/3+x-y,2/3+z
6 1/3-x+y,2/3-x,2/3+z
7 2/3+x,1/3+y,1/3+z
8 2/3-y,1/3+x-y,1/3+z
9 2/3-x+y,1/3-x,1/3+z
_cell_length_a                   14.0599(12)
_cell_length_b                   14.0599(12)
_cell_length_c                   17.6808(13)
_cell_angle_alpha                90
_cell_angle_beta                 90
_cell_angle_gamma                120
_cell_volume                     3026.89
loop_
_atom_site_label
_atom_site_type_symbol
_atom_site_fract_x
_atom_site_fract_y
_atom_site_fract_z
Mn1 Mn 0.3333 0.6667 0.8212(8)
N1 N 0.2866(25) 0.5174(25) 0.7471(17)
C1 C 0.3133(27) 0.5099(28) 0.6772(17)
N2 N 0.2628(24) 0.4117(28) 0.6520(17)
C2 C 0.2008(38) 0.3460(31) 0.7064(22)
C3 C 0.2152(34) 0.4070(31) 0.7667(24)
C4 C 0.2705(43) 0.3839(40) 0.5701(22)
C5 C 0.1704(36) 0.3561(42) 0.5296(26)
C6 C 0.1744(31) 0.3214(33) 0.4490(25)
C7 C 0.0706(37) 0.2995(34) 0.4007(22)
N3 N 0.0729(27) 0.2617(25) 0.3272(18)
C8 C 0.0210(35) 0.1540(31) 0.2990(20)
N4 N 0.3835(26) 0.8194(25) 0.8946(16)
C9 C 0.4558(29) 0.9220(30) 0.8758(20)
C10 C 0.1386(35) 0.3277(33) 0.2672(23)
H1 H 0.3638(27) 0.5698(28) 0.6489(17)
H2 H 0.1551(38) 0.2703(31) 0.7029(22)
H3 H 0.1837(34) 0.3814(31) 0.8140(24)
H4 H 0.3321(43) 0.4462(40) 0.5460(22)
H5 H 0.2835(43) 0.3223(40) 0.5682(22)
H6 H 0.1599(36) 0.4192(42) 0.5290(26)
H7 H 0.1084(36) 0.2968(42) 0.5557(26)
H8 H 0.1794(31) 0.2551(33) 0.4500(25)
H9 H 0.2401(31) 0.3784(33) 0.4246(25)
H10 H 0.0045(37) 0.2454(34) 0.4263(22)
H11 H 0.0679(37) 0.3669(34) 0.3971(22)
H12 H -0.0274(35) 0.0920(31) 0.3264(20)
H13 H 0.4913(29) 0.9427(30) 0.8293(20)
H14 H 0.1832(35) 0.4037(33) 0.2668(23)
N1A N 0.4826(25) 0.7692(35) 0.7471(17)
N1B N 0.2308(35) 0.7134(25) 0.7471(17)
N4A N 0.1806(25) 0.5641(36) 0.8946(16)
N4B N 0.4359(36) 0.6165(26) 0.8946(16)
N4F N 0.0502(26) 0.1527(25) 0.2279(16)
C8C C 0.3543(35) 0.8207(31) 0.9657(20)
C10C C 0.4719(35) 0.9944(33) 0.9339(23)
C9F C 0.1225(29) 0.2553(30) 0.2091(20)
C1A C 0.4901(28) 0.8034(39) 0.6772(17)
C3A C 0.5930(31) 0.8082(46) 0.7667(24)
Mn1F Mn -0.0000 0.0000 0.1545(8)
N3C N 0.4062(27) 0.9284(25) 0.9939(18)
H12C H 0.3059(35) 0.7587(31) 0.9931(20)
H14C H 0.5165(35) 1.0704(33) 0.9335(23)
H13F H 0.1580(29) 0.2760(30) 0.1626(20)
N2A N 0.5883(28) 0.8511(37) 0.6520(17)
H1A H 0.4302(28) 0.7940(39) 0.6489(17)
C2A C 0.6540(31) 0.8548(49) 0.7064(22)
H3A H 0.6186(31) 0.8023(46) 0.8140(24)
C7C C 0.4039(37) 0.9662(34) 1.0674(22)
C4A C 0.6161(40) 0.8866(59) 0.5701(22)
H2A H 0.7297(31) 0.8848(49) 0.7029(22)
C6C C 0.5077(31) 0.9881(33) 1.1157(25)
H10C H 0.3378(37) 0.9121(34) 1.0930(22)
H11C H 0.4012(37) 1.0336(34) 1.0638(22)
C5A C 0.6439(42) 0.8143(55) 0.5296(26)
H4A H 0.5538(40) 0.8859(59) 0.5460(22)
H5A H 0.6777(40) 0.9612(59) 0.5682(22)
C5C C 0.5037(36) 1.0228(42) 1.1963(26)
H8C H 0.5127(31) 0.9218(33) 1.1167(25)
H9C H 0.5734(31) 1.0451(33) 1.0913(25)
C6A C 0.6786(33) 0.8530(45) 0.4490(25)
H6A H 0.5808(42) 0.7407(55) 0.5290(26)
H7A H 0.7032(42) 0.8116(55) 0.5557(26)
C4C C 0.6038(43) 1.0506(40) 1.2368(22)
H6C H 0.4932(36) 1.0859(42) 1.1957(26)
H7C H 0.4417(36) 0.9635(42) 1.2224(26)
C7A C 0.7005(34) 0.7711(50) 0.4007(22)
H8A H 0.7449(33) 0.9243(45) 0.4500(25)
H9A H 0.6216(33) 0.8617(45) 0.4246(25)
N2C N 0.5961(24) 1.0784(28) 1.3187(17)
H4C H 0.6654(43) 1.1129(40) 1.2127(22)
H5C H 0.6168(43) 0.9890(40) 1.2349(22)
N3A N 0.7383(25) 0.8112(37) 0.3272(18)
H10A H 0.7546(34) 0.7591(50) 0.4263(22)
H11A H 0.6331(34) 0.7010(50) 0.3971(22)
C1C C 0.6466(27) 1.1766(28) 1.3439(17)
C2C C 0.5341(38) 1.0127(31) 1.3731(22)
C8A C 0.8460(31) 0.8670(47) 0.2990(20)
C10A C 0.6723(33) 0.8109(48) 0.2672(23)
N1C N 0.6199(25) 1.1841(25) 1.4138(17)
H1C H 0.6971(27) 1.2365(28) 1.3156(17)
C3C C 0.5485(34) 1.0737(31) 1.4334(24)
H2C H 0.4884(38) 0.9370(31) 1.3696(22)
N4G N 0.8473(25) 0.8974(36) 0.2279(16)
H12A H 0.9080(31) 0.8806(47) 0.3264(20)
C9G C 0.7447(30) 0.8671(42) 0.2091(20)
H14A H 0.5963(33) 0.7795(48) 0.2668(23)
Mn1C Mn 0.6666 1.3334 1.4879(8)
H3C H 0.5170(34) 1.0481(31) 1.4807(24)
Mn1F_2 Mn 1.0000 1.0000 0.1545(8)
H13G H 0.7240(30) 0.8819(42) 0.1626(20)
P1 P 0.0000 0.0000 0.5223(7)
F1 F 0.0546(45) 0.1034(14) 0.5739(12)
F2 F -0.0519(33) 0.0527(32) 0.4718(14)
F1A F -0.1034(14) -0.0488(47) 0.5739(12)
F1B F 0.0488(47) -0.0546(45) 0.5739(12)
F2A F -0.0527(32) -0.1046(46) 0.4718(14)
F2B F 0.1046(46) 0.0519(33) 0.4718(14)
Cl1 Cl 0.3333 0.6667 0.4586(9)
O1 O 0.3333 0.6667 0.5378(9)
O2 O 0.3770(30) 0.7750(10) 0.4334(16)
O2A O 0.2250(10) 0.6020(32) 0.4334(16)
O2B O 0.3980(32) 0.6230(30) 0.4334(16)
P2? P 0.3333 0.6667 0.4515(14)
F3? F 0.2856(25) 0.7233(23) 0.4008(15)
F4? F 0.3889(34) 0.7704(14) 0.5028(16)
loop_
_geom_bond_atom_site_label_1
_geom_bond_atom_site_label_2
_geom_bond_site_symmetry_1
_geom_bond_site_symmetry_2
Mn1 N1 1_555 1_555
N1 C1 1_555 1_555
C1 N2 1_555 1_555
N2 C2 1_555 1_555
C2 C3 1_555 1_555
C3 N1 1_555 1_555
C4 N2 1_555 1_555
C5 C4 1_555 1_555
C6 C5 1_555 1_555
C7 C6 1_555 1_555
N3 C7 1_555 1_555
C8 N3 1_555 1_555
N4 Mn1 1_555 1_555
C9 N4 1_555 1_555
C10 N3 1_555 1_555
P1 F1 1_555 1_555
F2 P1 1_555 1_555
Cl1 O1 1_555 1_555
O2 Cl1 1_555 1_555
H1 C1 1_555 1_555
H2 C2 1_555 1_555
H3 C3 1_555 1_555
H4 C4 1_555 1_555
H5 C4 1_555 1_555
H6 C5 1_555 1_555
H7 C5 1_555 1_555
H8 C6 1_555 1_555
H9 C6 1_555 1_555
H10 C7 1_555 1_555
H11 C7 1_555 1_555
H12 C8 1_555 1_555
H13 C9 1_555 1_555
H14 C10 1_555 1_555
N1A Mn1 1_555 1_555
N1B Mn1 1_555 1_555
N4A Mn1 1_555 1_555
N4B Mn1 1_555 1_555
N4F C8 1_555 1_555
C8C N4 1_555 1_555
C10C C9 1_555 1_555
C9F C10 1_555 1_555
F1A P1 1_555 1_555
F1B P1 1_555 1_555
F2A P1 1_555 1_555
F2B P1 1_555 1_555
O2A Cl1 1_555 1_555
O2B Cl1 1_555 1_555
C1A N1A 1_555 1_555
C3A N1A 1_555 1_555
Mn1F N4F 1_555 1_555
N3C C8C 1_555 1_555
H12C C8C 1_555 1_555
H14C C10C 1_555 1_555
H13F C9F 1_555 1_555
N2A C1A 1_555 1_555
H1A C1A 1_555 1_555
C2A C3A 1_555 1_555
H3A C3A 1_555 1_555
C7C N3C 1_555 1_555
C4A N2A 1_555 1_555
H2A C2A 1_555 1_555
C6C C7C 1_555 1_555
H10C C7C 1_555 1_555
H11C C7C 1_555 1_555
C5A C4A 1_555 1_555
H4A C4A 1_555 1_555
H5A C4A 1_555 1_555
C5C C6C 1_555 1_555
H8C C6C 1_555 1_555
H9C C6C 1_555 1_555
C6A C5A 1_555 1_555
H6A C5A 1_555 1_555
H7A C5A 1_555 1_555
C4C C5C 1_555 1_555
H6C C5C 1_555 1_555
H7C C5C 1_555 1_555
C7A C6A 1_555 1_555
H8A C6A 1_555 1_555
H9A C6A 1_555 1_555
N2C C4C 1_555 1_555
H4C C4C 1_555 1_555
H5C C4C 1_555 1_555
N3A C7A 1_555 1_555
H10A C7A 1_555 1_555
H11A C7A 1_555 1_555
C1C N2C 1_555 1_555
C2C N2C 1_555 1_555
C8A N3A 1_555 1_555
C10A N3A 1_555 1_555
N1C C1C 1_555 1_555
H1C C1C 1_555 1_555
C3C C2C 1_555 1_555
H2C C2C 1_555 1_555
N4G C8A 1_555 1_555
H12A C8A 1_555 1_555
C9G C10A 1_555 1_555
H14A C10A 1_555 1_555
Mn1C N1C 1_555 1_555
H3C C3C 1_555 1_555
Mn1F_2 N4G 1_555 1_555
H13G C9G 1_555 1_555
N4F C9F 1_555 1_555
C10C N3C 1_555 1_555
N2A C2A 1_555 1_555
N1C C3C 1_555 1_555
N4G C9G 1_555 1_555

#END
