
#######################################################################
#
#                 Cambridge Crystallographic Data Centre
#                                CCDC 
#
#######################################################################
#
# If this CIF has been generated from an entry in the Cambridge 
# Structural Database, then it will include bibliographic, chemical, 
# crystal, experimental, refinement or atomic coordinate data resulting 
# from the CCDC's data processing and validation procedures.
#
#######################################################################

data_LINNUS
_symmetry_cell_setting           orthorhombic
_symmetry_space_group_name_H-M   'P b c a'
_symmetry_Int_Tables_number      61
_space_group_name_Hall           '-P 2ac 2ab'
loop_
_symmetry_equiv_pos_site_id
_symmetry_equiv_pos_as_xyz
1 x,y,z
2 1/2-x,-y,1/2+z
3 -x,1/2+y,1/2-z
4 1/2+x,1/2-y,-z
5 -x,-y,-z
6 1/2+x,y,1/2-z
7 x,1/2-y,1/2+z
8 1/2-x,1/2+y,z
_cell_length_a                   13.271(3)
_cell_length_b                   14.427(3)
_cell_length_c                   14.477(3)
_cell_angle_alpha                90
_cell_angle_beta                 90
_cell_angle_gamma                90
_cell_volume                     2771.78
loop_
_atom_site_label
_atom_site_type_symbol
_atom_site_fract_x
_atom_site_fract_y
_atom_site_fract_z
Ag1 Ag 0.02814(3) 0.72700(2) 0.212576(17)
C1 C 0.2629(2) 0.6107(2) -0.0816(2)
C2 C 0.2355(3) 0.5416(2) -0.0194(2)
H1 H 0.2268 0.4811 -0.0401
C3 C 0.2212(3) 0.5623(2) 0.0720(2)
H2 H 0.2023 0.5157 0.1128
C4 C 0.2345(2) 0.6521(2) 0.1044(2)
C5 C 0.2611(2) 0.7211(2) 0.0420(2)
H3 H 0.2697 0.7817 0.0624
C6 C 0.2747(2) 0.7003(2) -0.0501(2)
H4 H 0.2919 0.7471 -0.0913
C7 C 0.0512(3) 0.5952(3) 0.5757(2)
H5 H 0.0464 0.6129 0.6395
H6 H 0.1177 0.5720 0.5634
H7 H 0.0025 0.5478 0.5627
C8 C 0.0333(2) 0.6714(2) 0.4206(2)
H8 H 0.0469 0.6143 0.3933
C9 C 0.0313(2) 0.6771(2) 0.5164(2)
C10 C -0.0010(3) 0.8244(3) 0.4086(2)
H9 H -0.0124 0.8771 0.3731
C11 C -0.0028(3) 0.8313(2) 0.5030(2)
H10 H -0.0154 0.8887 0.5298
N1 N 0.2150(3) 0.6745(2) 0.1962(2)
H11 H 0.241(4) 0.723(2) 0.214(3)
H12 H 0.210(3) 0.628(2) 0.231(3)
N2 N 0.0166(2) 0.7438(2) 0.3666(2)
N3 N 0.0132(2) 0.75809(19) 0.55797(19)
O1 O 0.3420(3) 0.4999(2) -0.19826(17)
O2 O 0.1828(2) 0.5694(3) -0.2375(2)
O3 O 0.3338(3) 0.6599(2) -0.2403(2)
O4 O -0.0167(3) 0.5497(2) 0.2008(2)
H13 H -0.073(2) 0.523(4) 0.209(4)
H14 H 0.031(3) 0.525(4) 0.235(4)
S1 S 0.28079(7) 0.58233(6) -0.19847(5)
Ag1F Ag 0.02814(3) 0.77300(2) 0.712576(17)
N3F N 0.0132(2) 0.74191(19) 0.05797(19)
loop_
_geom_bond_atom_site_label_1
_geom_bond_atom_site_label_2
_geom_bond_site_symmetry_1
_geom_bond_site_symmetry_2
Ag1 N1 1_555 1_555
C1 C2 1_555 1_555
C2 H1 1_555 1_555
C3 C2 1_555 1_555
H2 C3 1_555 1_555
C4 C3 1_555 1_555
C5 C4 1_555 1_555
H3 C5 1_555 1_555
C6 C1 1_555 1_555
H4 C6 1_555 1_555
C7 H5 1_555 1_555
H6 C7 1_555 1_555
H7 C7 1_555 1_555
C8 H8 1_555 1_555
C9 C7 1_555 1_555
C10 H9 1_555 1_555
C11 C10 1_555 1_555
H10 C11 1_555 1_555
N1 C4 1_555 1_555
H11 N1 1_555 1_555
H12 N1 1_555 1_555
N2 Ag1 1_555 1_555
N3 C9 1_555 1_555
O1 S1 1_555 1_555
O2 S1 1_555 1_555
O3 S1 1_555 1_555
O4 Ag1 1_555 1_555
H13 O4 1_555 1_555
H14 O4 1_555 1_555
S1 C1 1_555 1_555
Ag1F N3 1_555 1_555
N3F Ag1 1_555 1_555
C5 C6 1_555 1_555
C8 C9 1_555 1_555
C8 N2 1_555 1_555
C10 N2 1_555 1_555
C11 N3 1_555 1_555

#END
