
#######################################################################
#
#                 Cambridge Crystallographic Data Centre
#                                CCDC 
#
#######################################################################
#
# If this CIF has been generated from an entry in the Cambridge 
# Structural Database, then it will include bibliographic, chemical, 
# crystal, experimental, refinement or atomic coordinate data resulting 
# from the CCDC's data processing and validation procedures.
#
#######################################################################

data_LINPII
_symmetry_cell_setting           monoclinic
_symmetry_space_group_name_H-M   'C 2/c'
_symmetry_Int_Tables_number      15
_space_group_name_Hall           '-C 2yn'
loop_
_symmetry_equiv_pos_site_id
_symmetry_equiv_pos_as_xyz
1 x,y,z
2 1/2+x,1/2+y,z
3 -x,y,1/2-z
4 1/2-x,1/2+y,1/2-z
5 -x,-y,-z
6 1/2-x,1/2-y,-z
7 x,-y,1/2+z
8 1/2+x,1/2-y,1/2+z
_cell_length_a                   13.482(3)
_cell_length_b                   14.254(3)
_cell_length_c                   16.552(3)
_cell_angle_alpha                90
_cell_angle_beta                 107.99(3)
_cell_angle_gamma                90
_cell_volume                     3025.33
loop_
_atom_site_label
_atom_site_type_symbol
_atom_site_fract_x
_atom_site_fract_y
_atom_site_fract_z
Ag1 Ag 0.5000 0.110759(18) 0.2500
Ag2 Ag 0.5000 -0.389601(19) 0.2500
C1 C 0.5428(2) -0.03785(18) 0.40497(14)
H1 H 0.5401 0.0284 0.3940
H2 H 0.6111 -0.0545 0.4411
H3 H 0.4920 -0.0539 0.4325
C2 C 0.50746(15) 0.31138(15) 0.32145(13)
C3 C 0.5110(2) 0.25806(18) 0.40000(15)
H4 H 0.5088 0.1920 0.3883
H5 H 0.4522 0.2751 0.4180
H6 H 0.5743 0.2728 0.4442
C4 C 0.50935(17) 0.40822(17) 0.32075(15)
H7 H 0.5174 0.4404 0.3712
C11 C 0.51874(18) -0.18675(16) 0.32178(14)
H18 H 0.5316 -0.2189 0.3729
C12 C 0.51966(16) -0.09007(16) 0.32287(14)
N2 N 0.5000 -0.04129(17) 0.2500
N3 N 0.5000 -0.23591(19) 0.2500
N4 N 0.5000 0.45726(19) 0.2500
N5 N 0.5000 0.26305(17) 0.2500
Ag2_2 Ag 0.5000 0.610399(19) 0.2500
C1B C 0.4572(2) -0.03785(18) 0.09503(14)
H1B H 0.4599 0.0284 0.1060
H2B H 0.3889 -0.0545 0.0589
H3B H 0.5080 -0.0539 0.0675
C2B C 0.49254(15) 0.31138(15) 0.17855(13)
C3B C 0.4890(2) 0.25806(18) 0.10000(15)
H4B H 0.4912 0.1920 0.1117
H5B H 0.5478 0.2751 0.0820
H6B H 0.4257 0.2728 0.0558
C4B C 0.49065(17) 0.40822(17) 0.17925(15)
H7B H 0.4826 0.4404 0.1288
C11B C 0.48126(18) -0.18675(16) 0.17822(14)
H18B H 0.4684 -0.2189 0.1271
C12B C 0.48034(16) -0.09007(16) 0.17713(14)
N4_2 N 0.5000 -0.54274(19) 0.2500
C5 C 0.76930(15) 0.01822(16) 0.29342(13)
C6 C 0.76171(16) -0.07743(16) 0.29860(14)
H8 H 0.7709 -0.1054 0.3511
C7 C 0.75440(18) 0.06040(17) 0.21448(15)
H9 H 0.7581 0.1253 0.2104
C8 C 0.74051(17) -0.13294(17) 0.22619(16)
H10 H 0.7352 -0.1977 0.2304
C9 C 0.72708(18) -0.09117(17) 0.14652(14)
C10 C 0.73413(19) 0.00568(18) 0.14248(14)
H11 H 0.7250 0.0343 0.0902
N1 N 0.7041(2) -0.1450(2) 0.07485(16)
H12 H 0.713(2) -0.202(3) 0.083(2)
H13 H 0.719(3) -0.120(2) 0.030(2)
O1 O 0.88948(17) 0.14582(18) 0.38084(15)
O2 O 0.8219(2) 0.03010(16) 0.45684(12)
O3 O 0.71153(17) 0.14927(17) 0.37616(15)
S1 S 0.80106(5) 0.09037(4) 0.38387(4)
O4 O 0.8989(2) -0.12715(17) 0.5508(2)
H14 H 0.878(2) -0.0834(19) 0.5151(18)
H15 H 0.9641(8) -0.124(2) 0.560(2)
O5 O 0.2793(7) 0.2278(6) 0.4458(6)
H16 H 0.223(5) 0.225(8) 0.459(7)
H17 H 0.310(8) 0.272(7) 0.479(8)
loop_
_geom_bond_atom_site_label_1
_geom_bond_atom_site_label_2
_geom_bond_site_symmetry_1
_geom_bond_site_symmetry_2
Ag1 N2 1_555 1_555
Ag2 N3 1_555 1_555
C1 H1 1_555 1_555
H2 C1 1_555 1_555
H3 C1 1_555 1_555
C2 C3 1_555 1_555
C3 H4 1_555 1_555
H5 C3 1_555 1_555
H6 C3 1_555 1_555
C4 C2 1_555 1_555
H7 C4 1_555 1_555
C5 C6 1_555 1_555
C6 H8 1_555 1_555
C7 C5 1_555 1_555
H9 C7 1_555 1_555
C8 C6 1_555 1_555
H10 C8 1_555 1_555
C9 C8 1_555 1_555
C10 C7 1_555 1_555
H11 C10 1_555 1_555
N1 C9 1_555 1_555
H12 N1 1_555 1_555
H13 N1 1_555 1_555
O1 S1 1_555 1_555
O2 S1 1_555 1_555
O3 S1 1_555 1_555
O4 H14 1_555 1_555
H15 O4 1_555 1_555
O5 H16 1_555 1_555
H17 O5 1_555 1_555
C11 H18 1_555 1_555
C12 C1 1_555 1_555
N2 C12 1_555 1_555
N3 C11 1_555 1_555
N4 C4 1_555 1_555
N5 Ag1 1_555 1_555
S1 C5 1_555 1_555
Ag2_2 N4 1_555 1_555
C1B H1B 1_555 1_555
H2B C1B 1_555 1_555
H3B C1B 1_555 1_555
C2B N5 1_555 1_555
C3B C2B 1_555 1_555
H4B C3B 1_555 1_555
H5B C3B 1_555 1_555
H6B C3B 1_555 1_555
C4B N4 1_555 1_555
H7B C4B 1_555 1_555
C11B N3 1_555 1_555
H18B C11B 1_555 1_555
C12B N2 1_555 1_555
N4_2 Ag2 1_555 1_555
C2 N5 1_555 1_555
C9 C10 1_555 1_555
C11 C12 1_555 1_555
C1B C12B 1_555 1_555
C2B C4B 1_555 1_555
C11B C12B 1_555 1_555

#END
