
#######################################################################
#
#                 Cambridge Crystallographic Data Centre
#                                CCDC 
#
#######################################################################
#
# If this CIF has been generated from an entry in the Cambridge 
# Structural Database, then it will include bibliographic, chemical, 
# crystal, experimental, refinement or atomic coordinate data resulting 
# from the CCDC's data processing and validation procedures.
#
#######################################################################

data_LINPOO
_symmetry_cell_setting           monoclinic
_symmetry_space_group_name_H-M   'P n'
_symmetry_Int_Tables_number      7
_space_group_name_Hall           'P -2yac'
loop_
_symmetry_equiv_pos_site_id
_symmetry_equiv_pos_as_xyz
1 x,y,z
2 1/2+x,-y,1/2+z
_cell_length_a                   8.6401(17)
_cell_length_b                   7.4461(15)
_cell_length_c                   10.576(2)
_cell_angle_alpha                90
_cell_angle_beta                 95.90(3)
_cell_angle_gamma                90
_cell_volume                     676.803
loop_
_atom_site_label
_atom_site_type_symbol
_atom_site_fract_x
_atom_site_fract_y
_atom_site_fract_z
Ag1 Ag 0.795218(16) 0.05222(2) 0.098642(15)
S1 S 0.54133(7) 0.36709(7) -0.07638(6)
O1 O 0.5092(3) 0.5555(2) -0.1040(2)
O2 O 0.6813(2) 0.3434(3) 0.0112(2)
O3 O 0.5414(3) 0.2565(3) -0.1895(2)
N1 N 0.9134(3) 0.0044(4) -0.0779(2)
C1 C 1.0686(3) 0.1428(3) -0.2255(2)
N2 N 1.1303(3) -0.0150(4) -0.2542(2)
C2 C 1.1211(4) 0.3083(4) -0.2901(3)
H1 H 1.1962 0.2758 -0.3470
H2 H 1.0332 0.3643 -0.3373
H3 H 1.1674 0.3906 -0.2273
C3 C 0.3611(3) 0.1082(3) 0.0246(2)
H4 H 0.4197 0.0238 -0.0145
C4 C 1.0833(3) -0.1605(3) -0.1939(3)
H5 H 1.1249 -0.2715 -0.2125
N3 N 0.0422(3) 0.1212(3) 0.2320(2)
H6 H 0.061(4) 0.007(5) 0.269(4)
H7 H 0.033(5) 0.185(6) 0.277(5)
C5 C 0.2954(3) 0.4152(3) 0.0632(3)
H8 H 0.3097 0.5372 0.0496
C6 C 0.2494(3) 0.0525(3) 0.0999(3)
H9 H 0.2336 -0.0697 0.1114
C7 C 0.3866(3) 0.2911(3) 0.0070(2)
C8 C 0.9266(4) -0.3174(4) -0.0388(3)
H10 H 0.8526 -0.2839 0.0188
H11 H 0.8795 -0.4013 -0.1000
H12 H 1.0155 -0.3720 0.0080
C9 C 0.9767(3) -0.1541(3) -0.1058(3)
C10 C 0.1832(3) 0.3596(3) 0.1391(3)
H13 H 0.1233 0.4441 0.1769
C11 C 0.1598(3) 0.1761(3) 0.1590(2)
C12 C 0.9587(3) 0.1506(3) -0.1386(2)
H14 H 0.9149 0.2611 -0.1218
Ag1A Ag 1.295218(16) -0.05222(2) -0.401358(15)
Ag1_2 Ag -0.204782(16) 0.05222(2) 0.098642(15)
N2A N 0.6303(3) 0.0150(4) 0.2458(2)
N3_2 N 1.0422(3) 0.1212(3) 0.2320(2)
H6_2 H 1.061(4) 0.007(5) 0.269(4)
H7_2 H 1.033(5) 0.185(6) 0.277(5)
loop_
_geom_bond_atom_site_label_1
_geom_bond_atom_site_label_2
_geom_bond_site_symmetry_1
_geom_bond_site_symmetry_2
Ag1 O2 1_555 1_555
S1 O1 1_555 1_555
O2 S1 1_555 1_555
O3 S1 1_555 1_555
N1 Ag1 1_555 1_555
C1 N2 1_555 1_555
N2 C4 1_555 1_555
C2 C1 1_555 1_555
H1 C2 1_555 1_555
H2 C2 1_555 1_555
H3 C2 1_555 1_555
C3 H4 1_555 1_555
C4 H5 1_555 1_555
N3 H6 1_555 1_555
H7 N3 1_555 1_555
C5 H8 1_555 1_555
C6 C3 1_555 1_555
H9 C6 1_555 1_555
C7 S1 1_555 1_555
C8 H10 1_555 1_555
H11 C8 1_555 1_555
H12 C8 1_555 1_555
C9 N1 1_555 1_555
C10 C5 1_555 1_555
H13 C10 1_555 1_555
C11 N3 1_555 1_555
C12 N1 1_555 1_555
H14 C12 1_555 1_555
Ag1A N2 1_555 1_555
Ag1_2 N3 1_555 1_555
N2A Ag1 1_555 1_555
N3_2 Ag1 1_555 1_555
H6_2 N3_2 1_555 1_555
H7_2 N3_2 1_555 1_555
C1 C12 1_555 1_555
C3 C7 1_555 1_555
C4 C9 1_555 1_555
C5 C7 1_555 1_555
C6 C11 1_555 1_555
C8 C9 1_555 1_555
C10 C11 1_555 1_555

#END
