
#######################################################################
#
#                 Cambridge Crystallographic Data Centre
#                                CCDC 
#
#######################################################################
#
# If this CIF has been generated from an entry in the Cambridge 
# Structural Database, then it will include bibliographic, chemical, 
# crystal, experimental, refinement or atomic coordinate data resulting 
# from the CCDC's data processing and validation procedures.
#
#######################################################################

data_LINQAB
_symmetry_cell_setting           rhombohedral
_symmetry_space_group_name_H-M   'R 3 c'
_symmetry_Int_Tables_number      161
_space_group_name_Hall           'R 3 -2"c'
loop_
_symmetry_equiv_pos_site_id
_symmetry_equiv_pos_as_xyz
1 x,y,z
2 -y,x-y,z
3 -x+y,-x,z
4 -x+y,y,1/2+z
5 x,x-y,1/2+z
6 -y,-x,1/2+z
7 2/3+x,1/3+y,1/3+z
8 2/3-y,1/3+x-y,1/3+z
9 2/3-x+y,1/3-x,1/3+z
10 2/3-x+y,1/3+y,5/6+z
11 2/3+x,1/3+x-y,5/6+z
12 2/3-y,1/3-x,5/6+z
13 1/3+x,2/3+y,2/3+z
14 1/3-y,2/3+x-y,2/3+z
15 1/3-x+y,2/3-x,2/3+z
16 1/3-x+y,2/3+y,1/6+z
17 1/3+x,2/3+x-y,1/6+z
18 1/3-y,2/3-x,1/6+z
_cell_length_a                   21.949(7)
_cell_length_b                   21.949(7)
_cell_length_c                   20.220(5)
_cell_angle_alpha                90
_cell_angle_beta                 90
_cell_angle_gamma                120.00
_cell_volume                     8436.09
loop_
_atom_site_label
_atom_site_type_symbol
_atom_site_fract_x
_atom_site_fract_y
_atom_site_fract_z
Ag1 Ag -0.086359(17) 0.605722(17) 0.703277(10)
C1 C 0.1641(2) 0.6344(2) 0.4846(2)
C2 C 0.2337(2) 0.6647(3) 0.5024(2)
H1 H 0.2637 0.6547 0.4782
C3 C 0.2599(2) 0.7105(3) 0.5567(3)
H2 H 0.3071 0.7309 0.5683
C4 C 0.2169(2) 0.7249(2) 0.5919(2)
H3 H 0.2345 0.7532 0.6292
C5 C 0.1022(2) 0.7174(2) 0.6090(2)
H4 H 0.1211 0.7488 0.6441
C6 C 0.0332(2) 0.69110(19) 0.59300(18)
C7 C 0.0058(2) 0.6446(2) 0.5387(2)
H5 H -0.0410 0.6271 0.5268
C8 C 0.0453(2) 0.6248(2) 0.50334(19)
H6 H 0.0252 0.5939 0.4680
C9 C 0.11736(18) 0.65067(17) 0.51956(17)
C10 C 0.14578(18) 0.69840(19) 0.57411(17)
C11 C 0.0184(2) 0.5463(2) 0.68560(18)
C12 C 0.04891(19) 0.51275(19) 0.65135(17)
C13 C -0.0494(2) 0.45727(19) 0.58625(19)
H7 H -0.0745 0.4261 0.5524
C14 C -0.0791(2) 0.4909(2) 0.6199(2)
H8 H -0.1238 0.4819 0.6082
C15 C 0.0550(3) 0.5950(3) 0.7422(2)
H9 H 0.0259 0.6128 0.7590
H10 H 0.0989 0.6336 0.7273
H11 H 0.0635 0.5700 0.7766
C16 C 0.1205(3) 0.5252(3) 0.6690(3)
H12 H 0.1324 0.4977 0.6405
H13 H 0.1205 0.5116 0.7141
H14 H 0.1544 0.5742 0.6637
N1 N -0.0110(2) 0.7064(2) 0.6302(2)
H15 H -0.043(3) 0.705(3) 0.608(3)
H16 H 0.014(3) 0.735(3) 0.656(3)
N2 N -0.04493(17) 0.53581(16) 0.66838(15)
N3 N 0.01509(16) 0.46881(15) 0.60170(15)
O1 O 0.1108(3) 0.6045(3) 0.3678(2)
O2 O 0.1955(3) 0.5700(3) 0.3962(3)
O3 O 0.0792(3) 0.50963(19) 0.4408(2)
S1 S 0.13446(6) 0.57537(6) 0.41617(5)
Ag1K Ag 0.060945(17) 0.419692(17) 0.536610(10)
N3Q N -0.13548(15) 0.65158(16) 0.76837(15)
O3Q O -0.17630(19) 0.5875(3) 0.6075(2)
O4 O -0.0652(3) 0.4490(3) 0.3975(3)
O5 O 0.2619(6) 0.5237(6) 0.3048(5)
loop_
_geom_bond_atom_site_label_1
_geom_bond_atom_site_label_2
_geom_bond_site_symmetry_1
_geom_bond_site_symmetry_2
Ag1 N1 1_555 1_555
C1 C2 1_555 1_555
C2 H1 1_555 1_555
C3 C2 1_555 1_555
H2 C3 1_555 1_555
C4 C3 1_555 1_555
H3 C4 1_555 1_555
C5 H4 1_555 1_555
C6 C5 1_555 1_555
C7 C6 1_555 1_555
H5 C7 1_555 1_555
C8 C7 1_555 1_555
H6 C8 1_555 1_555
C9 C1 1_555 1_555
C10 C4 1_555 1_555
C11 C12 1_555 1_555
C12 C16 1_555 1_555
C13 H7 1_555 1_555
C14 C13 1_555 1_555
H8 C14 1_555 1_555
C15 C11 1_555 1_555
H9 C15 1_555 1_555
H10 C15 1_555 1_555
H11 C15 1_555 1_555
C16 H12 1_555 1_555
H13 C16 1_555 1_555
H14 C16 1_555 1_555
N1 C6 1_555 1_555
H15 N1 1_555 1_555
H16 N1 1_555 1_555
N2 Ag1 1_555 1_555
N3 C12 1_555 1_555
O1 S1 1_555 1_555
O2 S1 1_555 1_555
O3 S1 1_555 1_555
S1 C1 1_555 1_555
Ag1K N3 1_555 1_555
N3Q Ag1 1_555 1_555
O3Q Ag1 1_555 1_555
C5 C10 1_555 1_555
C8 C9 1_555 1_555
C9 C10 1_555 1_555
C11 N2 1_555 1_555
C13 N3 1_555 1_555
C14 N2 1_555 1_555
O3 Ag1K 1_555 1_555

#END
