
#######################################################################
#
#                 Cambridge Crystallographic Data Centre
#                                CCDC 
#
#######################################################################
#
# If this CIF has been generated from an entry in the Cambridge 
# Structural Database, then it will include bibliographic, chemical, 
# crystal, experimental, refinement or atomic coordinate data resulting 
# from the CCDC's data processing and validation procedures.
#
#######################################################################

data_LINXUD
_symmetry_cell_setting           monoclinic
_symmetry_space_group_name_H-M   'P 21/n'
_symmetry_Int_Tables_number      14
_space_group_name_Hall           '-P 2yn'
loop_
_symmetry_equiv_pos_site_id
_symmetry_equiv_pos_as_xyz
1 x,y,z
2 1/2-x,1/2+y,1/2-z
3 -x,-y,-z
4 1/2+x,1/2-y,1/2+z
_cell_length_a                   14.578(3)
_cell_length_b                   8.8123(16)
_cell_length_c                   16.385(3)
_cell_angle_alpha                90
_cell_angle_beta                 108.323(6)
_cell_angle_gamma                90
_cell_volume                     1998.19
loop_
_atom_site_label
_atom_site_type_symbol
_atom_site_fract_x
_atom_site_fract_y
_atom_site_fract_z
Hg1 Hg 0.26040(3) 0.03133(4) 0.12954(2)
Cl1 Cl 0.37579(19) -0.0734(3) 0.25567(15)
Cl2 Cl 0.2918(2) -0.0088(3) -0.00655(16)
N1 N 0.3151(5) 0.2969(8) 0.1462(4)
C1 C 0.3220(6) 0.3713(10) 0.0768(5)
H1 H 0.2959 0.3257 0.0233
C2 C 0.3655(7) 0.5110(9) 0.0801(6)
C3 C 0.4015(6) 0.5799(10) 0.1612(5)
H2 H 0.4279 0.6768 0.1659
C4 C 0.3980(6) 0.5049(10) 0.2337(6)
C5 C 0.3528(6) 0.3624(10) 0.2225(5)
H3 H 0.3489 0.3111 0.2710
N2 N 0.3041(6) 0.5418(9) -0.0752(5)
N3 N 0.4361(5) 0.6847(8) -0.0077(5)
C6 C 0.3693(7) 0.5815(11) -0.0004(5)
C7 C 0.4128(7) 0.7183(10) -0.0946(6)
C8 C 0.3314(6) 0.6296(11) -0.1348(6)
C9 C 0.2894(8) 0.6409(14) -0.2256(6)
H4 H 0.2357 0.5838 -0.2554
C10 C 0.3330(10) 0.7422(17) -0.2675(8)
H5 H 0.3074 0.7519 -0.3269
C11 C 0.4120(11) 0.8280(15) -0.2248(8)
H6 H 0.4370 0.8948 -0.2563
C12 C 0.4556(8) 0.8197(12) -0.1377(7)
H7 H 0.5096 0.8772 -0.1092
C13 C 0.5205(10) 0.7490(16) 0.0607(8)
H8 H 0.5540 0.8197 0.0355
H9 H 0.5636 0.6685 0.0880
H10 H 0.4983 0.8004 0.1027
N4 N 0.3903(5) 0.5819(9) 0.3778(4)
N5 N 0.5220(5) 0.6446(9) 0.3464(4)
C14 C 0.4362(7) 0.5743(10) 0.3188(5)
C15 C 0.4501(6) 0.6659(10) 0.4455(5)
C16 C 0.5307(6) 0.7060(9) 0.4260(5)
C17 C 0.6044(7) 0.7961(11) 0.4806(6)
H11 H 0.6601 0.8211 0.4675
C18 C 0.5883(7) 0.8449(12) 0.5549(6)
H12 H 0.6338 0.9076 0.5924
C19 C 0.5061(8) 0.8032(12) 0.5757(6)
H13 H 0.4989 0.8365 0.6272
C20 C 0.4359(7) 0.7142(11) 0.5218(5)
H14 H 0.3808 0.6870 0.5355
C21 C 0.5951(8) 0.6585(14) 0.3028(7)
H15 H 0.6494 0.7147 0.3385
H16 H 0.5680 0.7108 0.2492
H17 H 0.6159 0.5593 0.2921
Hg1A Hg 0.23960(3) 0.53133(4) 0.37046(2)
N4A N 0.1097(5) 0.0819(9) 0.1222(4)
loop_
_geom_bond_atom_site_label_1
_geom_bond_atom_site_label_2
_geom_bond_site_symmetry_1
_geom_bond_site_symmetry_2
Hg1 Cl1 1_555 1_555
Cl2 Hg1 1_555 1_555
N1 Hg1 1_555 1_555
C1 N1 1_555 1_555
H1 C1 1_555 1_555
C2 C1 1_555 1_555
C3 C2 1_555 1_555
H2 C3 1_555 1_555
C4 C3 1_555 1_555
C5 N1 1_555 1_555
H3 C5 1_555 1_555
N2 C6 1_555 1_555
N3 C6 1_555 1_555
C6 C2 1_555 1_555
C7 N3 1_555 1_555
C8 N2 1_555 1_555
C9 C8 1_555 1_555
H4 C9 1_555 1_555
C10 C9 1_555 1_555
H5 C10 1_555 1_555
C11 C10 1_555 1_555
H6 C11 1_555 1_555
C12 C7 1_555 1_555
H7 C12 1_555 1_555
C13 N3 1_555 1_555
H8 C13 1_555 1_555
H9 C13 1_555 1_555
H10 C13 1_555 1_555
N4 C14 1_555 1_555
N5 C14 1_555 1_555
C14 C4 1_555 1_555
C15 N4 1_555 1_555
C16 N5 1_555 1_555
C17 C16 1_555 1_555
H11 C17 1_555 1_555
C18 C17 1_555 1_555
H12 C18 1_555 1_555
C19 C18 1_555 1_555
H13 C19 1_555 1_555
C20 C15 1_555 1_555
H14 C20 1_555 1_555
C21 N5 1_555 1_555
H15 C21 1_555 1_555
H16 C21 1_555 1_555
H17 C21 1_555 1_555
Hg1A N4 1_555 1_555
N4A Hg1 1_555 1_555
C4 C5 1_555 1_555
C7 C8 1_555 1_555
C11 C12 1_555 1_555
C15 C16 1_555 1_555
C19 C20 1_555 1_555

#END
