
#######################################################################
#
#                 Cambridge Crystallographic Data Centre
#                                CCDC 
#
#######################################################################
#
# If this CIF has been generated from an entry in the Cambridge 
# Structural Database, then it will include bibliographic, chemical, 
# crystal, experimental, refinement or atomic coordinate data resulting 
# from the CCDC's data processing and validation procedures.
#
#######################################################################

data_LINYAK
_symmetry_cell_setting           monoclinic
_symmetry_space_group_name_H-M   'P 21/n'
_symmetry_Int_Tables_number      14
_space_group_name_Hall           '-P 2yn'
loop_
_symmetry_equiv_pos_site_id
_symmetry_equiv_pos_as_xyz
1 x,y,z
2 1/2-x,1/2+y,1/2-z
3 -x,-y,-z
4 1/2+x,1/2-y,1/2+z
_cell_length_a                   14.706(2)
_cell_length_b                   9.0229(14)
_cell_length_c                   16.359(3)
_cell_angle_alpha                90
_cell_angle_beta                 107.064(4)
_cell_angle_gamma                90
_cell_volume                     2075.13
loop_
_atom_site_label
_atom_site_type_symbol
_atom_site_fract_x
_atom_site_fract_y
_atom_site_fract_z
Hg1 Hg 0.263932(12) 0.03181(2) 0.128768(11)
Br1 Br 0.38074(4) -0.06952(6) 0.26138(3)
Br2 Br 0.29817(4) -0.00855(6) -0.01308(3)
N1 N 0.3135(3) 0.2950(4) 0.1445(2)
C1 C 0.3190(3) 0.3685(5) 0.0752(3)
H1 H 0.2949 0.3231 0.0222
C2 C 0.3589(3) 0.5092(5) 0.0776(3)
C3 C 0.3941(3) 0.5761(5) 0.1579(3)
H2 H 0.4192 0.6714 0.1625
C4 C 0.3914(3) 0.4982(5) 0.2311(3)
C5 C 0.3507(3) 0.3568(5) 0.2210(3)
H3 H 0.3495 0.3039 0.2695
N2 N 0.2977(3) 0.5452(4) -0.0767(2)
N3 N 0.4304(2) 0.6729(4) -0.0114(2)
C6 C 0.3614(3) 0.5778(5) -0.0033(3)
C7 C 0.4064(3) 0.7086(5) -0.0972(3)
C8 C 0.3242(3) 0.6275(5) -0.1369(3)
C9 C 0.2807(4) 0.6410(6) -0.2246(3)
H4 H 0.2269 0.5860 -0.2519
C10 C 0.3203(4) 0.7385(7) -0.2694(3)
H5 H 0.2917 0.7511 -0.3277
C11 C 0.4027(4) 0.8191(7) -0.2288(3)
H6 H 0.4279 0.8833 -0.2610
C12 C 0.4471(4) 0.8057(6) -0.1428(3)
H7 H 0.5019 0.8591 -0.1162
C13 C 0.5122(3) 0.7326(6) 0.0539(3)
H8 H 0.5450 0.8023 0.0283
H9 H 0.5546 0.6532 0.0794
H10 H 0.4910 0.7815 0.0971
N4 N 0.3856(2) 0.5745(4) 0.3755(2)
N5 N 0.5171(2) 0.6320(4) 0.3412(2)
C14 C 0.4305(3) 0.5641(5) 0.3155(3)
C15 C 0.4455(3) 0.6559(5) 0.4420(2)
C16 C 0.5271(3) 0.6927(5) 0.4200(3)
C17 C 0.5986(3) 0.7821(6) 0.4722(3)
H11 H 0.6526 0.8074 0.4567
C18 C 0.5851(4) 0.8312(7) 0.5482(3)
H12 H 0.6312 0.8903 0.5848
C19 C 0.5034(4) 0.7933(7) 0.5705(3)
H13 H 0.4968 0.8282 0.6220
C20 C 0.4323(3) 0.7062(6) 0.5192(3)
H14 H 0.3782 0.6819 0.5348
C21 C 0.5883(3) 0.6442(7) 0.2958(3)
H15 H 0.6420 0.6989 0.3301
H16 H 0.5615 0.6949 0.2426
H17 H 0.6084 0.5469 0.2849
Hg1A Hg 0.236068(12) 0.53181(2) 0.371232(11)
N4A N 0.1144(2) 0.0745(4) 0.1245(2)
loop_
_geom_bond_atom_site_label_1
_geom_bond_atom_site_label_2
_geom_bond_site_symmetry_1
_geom_bond_site_symmetry_2
Hg1 Br1 1_555 1_555
Br2 Hg1 1_555 1_555
N1 Hg1 1_555 1_555
C1 N1 1_555 1_555
H1 C1 1_555 1_555
C2 C1 1_555 1_555
C3 C2 1_555 1_555
H2 C3 1_555 1_555
C4 C3 1_555 1_555
C5 N1 1_555 1_555
H3 C5 1_555 1_555
N2 C6 1_555 1_555
N3 C6 1_555 1_555
C6 C2 1_555 1_555
C7 N3 1_555 1_555
C8 N2 1_555 1_555
C9 C8 1_555 1_555
H4 C9 1_555 1_555
C10 C9 1_555 1_555
H5 C10 1_555 1_555
C11 C10 1_555 1_555
H6 C11 1_555 1_555
C12 C7 1_555 1_555
H7 C12 1_555 1_555
C13 N3 1_555 1_555
H8 C13 1_555 1_555
H9 C13 1_555 1_555
H10 C13 1_555 1_555
N4 C14 1_555 1_555
N5 C14 1_555 1_555
C14 C4 1_555 1_555
C15 N4 1_555 1_555
C16 N5 1_555 1_555
C17 C16 1_555 1_555
H11 C17 1_555 1_555
C18 C17 1_555 1_555
H12 C18 1_555 1_555
C19 C18 1_555 1_555
H13 C19 1_555 1_555
C20 C15 1_555 1_555
H14 C20 1_555 1_555
C21 N5 1_555 1_555
H15 C21 1_555 1_555
H16 C21 1_555 1_555
H17 C21 1_555 1_555
Hg1A N4 1_555 1_555
N4A Hg1 1_555 1_555
C4 C5 1_555 1_555
C7 C8 1_555 1_555
C11 C12 1_555 1_555
C15 C16 1_555 1_555
C19 C20 1_555 1_555

#END
