
#######################################################################
#
#                 Cambridge Crystallographic Data Centre
#                                CCDC 
#
#######################################################################
#
# If this CIF has been generated from an entry in the Cambridge 
# Structural Database, then it will include bibliographic, chemical, 
# crystal, experimental, refinement or atomic coordinate data resulting 
# from the CCDC's data processing and validation procedures.
#
#######################################################################

data_LINYOY
_symmetry_cell_setting           monoclinic
_symmetry_space_group_name_H-M   'P 21/n'
_symmetry_Int_Tables_number      14
_space_group_name_Hall           '-P 2yn'
loop_
_symmetry_equiv_pos_site_id
_symmetry_equiv_pos_as_xyz
1 x,y,z
2 1/2-x,1/2+y,1/2-z
3 -x,-y,-z
4 1/2+x,1/2-y,1/2+z
_cell_length_a                   14.449(3)
_cell_length_b                   8.2156(14)
_cell_length_c                   20.383(4)
_cell_angle_alpha                90
_cell_angle_beta                 109.156(5)
_cell_angle_gamma                90
_cell_volume                     2285.63
loop_
_atom_site_label
_atom_site_type_symbol
_atom_site_fract_x
_atom_site_fract_y
_atom_site_fract_z
Cu1 Cu 0.76925(8) -0.32066(14) 0.12883(6)
Cu2 Cu 1.0000 0.0000 0.0000
Cl1 Cl 0.73101(19) -0.3868(3) 0.22264(13)
Cl2 Cl 0.7497(2) -0.3965(3) 0.01951(14)
Cl3 Cl 1.1401(2) 0.0284(5) 0.08935(17)
N1 N 0.9233(5) 0.0985(9) 0.0601(4)
C1 C 0.9596(6) 0.2333(12) 0.0968(5)
H1 H 1.0188 0.2756 0.0956
C2 C 0.9112(6) 0.3105(11) 0.1361(5)
C3 C 0.8246(6) 0.2459(11) 0.1404(5)
H2 H 0.7924 0.2944 0.1681
C4 C 0.7873(6) 0.1064(11) 0.1021(5)
C5 C 0.8391(7) 0.0360(12) 0.0631(5)
H3 H 0.8146 -0.0581 0.0380
N2 N 1.0485(5) 0.4733(9) 0.2165(4)
N3 N 0.9067(5) 0.5974(10) 0.1736(4)
C6 C 0.9555(6) 0.4620(11) 0.1757(5)
C7 C 0.9721(7) 0.7048(11) 0.2179(5)
C8 C 1.0615(7) 0.6288(12) 0.2438(5)
C9 C 1.1421(8) 0.7046(15) 0.2898(5)
H4 H 1.2021 0.6516 0.3074
C10 C 1.1297(8) 0.8621(15) 0.3083(6)
H5 H 1.1823 0.9186 0.3384
C11 C 1.0371(8) 0.9383(13) 0.2817(5)
H6 H 1.0303 1.0446 0.2950
C12 C 0.9582(8) 0.8627(11) 0.2377(5)
H7 H 0.8974 0.9136 0.2213
C13 C 1.1261(8) 0.3471(13) 0.2361(6)
H8 H 1.1858 0.3941 0.2662
H9 H 1.1365 0.3057 0.1951
H10 H 1.1062 0.2599 0.2599
N4 N 0.6130(5) 0.1191(9) 0.0954(4)
N5 N 0.6777(5) -0.1284(9) 0.1032(4)
C14 C 0.6944(6) 0.0305(11) 0.1018(5)
C15 C 0.5790(6) -0.1447(12) 0.0947(5)
C16 C 0.5382(7) 0.0094(12) 0.0913(5)
C17 C 0.4396(7) 0.0334(13) 0.0826(5)
H11 H 0.4130 0.1372 0.0801
C18 C 0.3836(7) -0.1032(15) 0.0781(5)
H12 H 0.3174 -0.0916 0.0726
C19 C 0.4226(7) -0.2579(14) 0.0814(5)
H13 H 0.3819 -0.3477 0.0773
C20 C 0.5220(7) -0.2822(13) 0.0909(5)
H14 H 0.5486 -0.3862 0.0944
C21 C 0.6025(8) 0.2976(12) 0.0934(5)
H15 H 0.5360 0.3258 0.0885
H16 H 0.6189 0.3400 0.0548
H17 H 0.6457 0.3432 0.1358
O1 O 0.9894(14) -0.284(2) 0.0380(10)
Cu1B Cu 1.23075(8) 0.32066(14) -0.12883(6)
Cl1B Cl 1.26899(19) 0.3868(3) -0.22264(13)
Cl2B Cl 1.2503(2) 0.3965(3) -0.01951(14)
Cl3B Cl 0.8599(2) -0.0284(5) -0.08935(17)
N1B N 1.0767(5) -0.0985(9) -0.0601(4)
C1B C 1.0404(6) -0.2333(12) -0.0968(5)
H1B H 0.9812 -0.2756 -0.0956
C2B C 1.0888(6) -0.3105(11) -0.1361(5)
C3B C 1.1754(6) -0.2459(11) -0.1404(5)
H2B H 1.2076 -0.2944 -0.1681
C4B C 1.2127(6) -0.1064(11) -0.1021(5)
C5B C 1.1609(7) -0.0360(12) -0.0631(5)
H3B H 1.1854 0.0581 -0.0380
N2B N 0.9515(5) -0.4733(9) -0.2165(4)
N3B N 1.0933(5) -0.5974(10) -0.1736(4)
C6B C 1.0445(6) -0.4620(11) -0.1757(5)
C7B C 1.0279(7) -0.7048(11) -0.2179(5)
C8B C 0.9385(7) -0.6288(12) -0.2438(5)
C9B C 0.8579(8) -0.7046(15) -0.2898(5)
H4B H 0.7979 -0.6516 -0.3074
C10B C 0.8703(8) -0.8621(15) -0.3083(6)
H5B H 0.8177 -0.9186 -0.3384
C11B C 0.9629(8) -0.9383(13) -0.2817(5)
H6B H 0.9697 -1.0446 -0.2950
C12B C 1.0418(8) -0.8627(11) -0.2377(5)
H7B H 1.1026 -0.9136 -0.2213
C13B C 0.8739(8) -0.3471(13) -0.2361(6)
H8B H 0.8142 -0.3941 -0.2662
H9B H 0.8635 -0.3057 -0.1951
H10B H 0.8938 -0.2599 -0.2599
N4B N 1.3870(5) -0.1191(9) -0.0954(4)
N5B N 1.3223(5) 0.1284(9) -0.1032(4)
C14B C 1.3056(6) -0.0305(11) -0.1018(5)
C15B C 1.4210(6) 0.1447(12) -0.0947(5)
C16B C 1.4618(7) -0.0094(12) -0.0913(5)
C17B C 1.5604(7) -0.0334(13) -0.0826(5)
H11B H 1.5870 -0.1372 -0.0801
C18B C 1.6164(7) 0.1032(15) -0.0781(5)
H12B H 1.6826 0.0916 -0.0726
C19B C 1.5774(7) 0.2579(14) -0.0814(5)
H13B H 1.6181 0.3477 -0.0773
C20B C 1.4780(7) 0.2822(13) -0.0909(5)
H14B H 1.4514 0.3862 -0.0944
C21B C 1.3975(8) -0.2976(12) -0.0934(5)
H15B H 1.4640 -0.3258 -0.0885
H16B H 1.3811 -0.3400 -0.0548
H17B H 1.3543 -0.3432 -0.1358
O1B O 1.0106(14) 0.284(2) -0.0380(10)
Cu1_2 Cu 0.76925(8) 0.67934(14) 0.12883(6)
Cu1B_2 Cu 1.23075(8) -0.67934(14) -0.12883(6)
N3_2 N 0.9067(5) -0.4026(10) 0.1736(4)
N3B_2 N 1.0933(5) 0.4026(10) -0.1736(4)
O2 O 1.1235(15) -0.413(3) 0.0817(11)
loop_
_geom_bond_atom_site_label_1
_geom_bond_atom_site_label_2
_geom_bond_site_symmetry_1
_geom_bond_site_symmetry_2
Cu1 Cl1 1_555 1_555
Cu2 Cl3 1_555 1_555
Cl2 Cu1 1_555 1_555
N1 Cu2 1_555 1_555
C1 N1 1_555 1_555
H1 C1 1_555 1_555
C2 C1 1_555 1_555
C3 C2 1_555 1_555
H2 C3 1_555 1_555
C4 C3 1_555 1_555
C5 N1 1_555 1_555
H3 C5 1_555 1_555
N2 C6 1_555 1_555
N3 C6 1_555 1_555
C6 C2 1_555 1_555
C7 N3 1_555 1_555
C8 N2 1_555 1_555
C9 C8 1_555 1_555
H4 C9 1_555 1_555
C10 C9 1_555 1_555
H5 C10 1_555 1_555
C11 C10 1_555 1_555
H6 C11 1_555 1_555
C12 C7 1_555 1_555
H7 C12 1_555 1_555
C13 N2 1_555 1_555
H8 C13 1_555 1_555
H9 C13 1_555 1_555
H10 C13 1_555 1_555
N4 C14 1_555 1_555
N5 Cu1 1_555 1_555
C14 C4 1_555 1_555
C15 N5 1_555 1_555
C16 N4 1_555 1_555
C17 C16 1_555 1_555
H11 C17 1_555 1_555
C18 C17 1_555 1_555
H12 C18 1_555 1_555
C19 C18 1_555 1_555
H13 C19 1_555 1_555
C20 C15 1_555 1_555
H14 C20 1_555 1_555
C21 N4 1_555 1_555
H15 C21 1_555 1_555
H16 C21 1_555 1_555
H17 C21 1_555 1_555
O1 Cu2 1_555 1_555
Cu1B Cl1B 1_555 1_555
Cl2B Cu1B 1_555 1_555
Cl3B Cu2 1_555 1_555
N1B Cu2 1_555 1_555
C1B N1B 1_555 1_555
H1B C1B 1_555 1_555
C2B C1B 1_555 1_555
C3B C2B 1_555 1_555
H2B C3B 1_555 1_555
C4B C3B 1_555 1_555
C5B N1B 1_555 1_555
H3B C5B 1_555 1_555
N2B C6B 1_555 1_555
N3B C6B 1_555 1_555
C6B C2B 1_555 1_555
C7B N3B 1_555 1_555
C8B N2B 1_555 1_555
C9B C8B 1_555 1_555
H4B C9B 1_555 1_555
C10B C9B 1_555 1_555
H5B C10B 1_555 1_555
C11B C10B 1_555 1_555
H6B C11B 1_555 1_555
C12B C7B 1_555 1_555
H7B C12B 1_555 1_555
C13B N2B 1_555 1_555
H8B C13B 1_555 1_555
H9B C13B 1_555 1_555
H10B C13B 1_555 1_555
N4B C14B 1_555 1_555
N5B Cu1B 1_555 1_555
C14B C4B 1_555 1_555
C15B N5B 1_555 1_555
C16B N4B 1_555 1_555
C17B C16B 1_555 1_555
H11B C17B 1_555 1_555
C18B C17B 1_555 1_555
H12B C18B 1_555 1_555
C19B C18B 1_555 1_555
H13B C19B 1_555 1_555
C20B C15B 1_555 1_555
H14B C20B 1_555 1_555
C21B N4B 1_555 1_555
H15B C21B 1_555 1_555
H16B C21B 1_555 1_555
H17B C21B 1_555 1_555
O1B Cu2 1_555 1_555
Cu1_2 N3 1_555 1_555
Cu1B_2 N3B 1_555 1_555
N3_2 Cu1 1_555 1_555
N3B_2 Cu1B 1_555 1_555
C4 C5 1_555 1_555
C7 C8 1_555 1_555
C11 C12 1_555 1_555
N5 C14 1_555 1_555
C15 C16 1_555 1_555
C19 C20 1_555 1_555
C4B C5B 1_555 1_555
C7B C8B 1_555 1_555
C11B C12B 1_555 1_555
N5B C14B 1_555 1_555
C15B C16B 1_555 1_555
C19B C20B 1_555 1_555

#END
