
#######################################################################
#
#                 Cambridge Crystallographic Data Centre
#                                CCDC 
#
#######################################################################
#
# If this CIF has been generated from an entry in the Cambridge 
# Structural Database, then it will include bibliographic, chemical, 
# crystal, experimental, refinement or atomic coordinate data resulting 
# from the CCDC's data processing and validation procedures.
#
#######################################################################

data_LIPJIE
_symmetry_cell_setting           monoclinic
_symmetry_space_group_name_H-M   'C 2/c'
_symmetry_Int_Tables_number      15
_space_group_name_Hall           '-C 2yn'
loop_
_symmetry_equiv_pos_site_id
_symmetry_equiv_pos_as_xyz
1 x,y,z
2 1/2+x,1/2+y,z
3 -x,y,1/2-z
4 1/2-x,1/2+y,1/2-z
5 -x,-y,-z
6 1/2-x,1/2-y,-z
7 x,-y,1/2+z
8 1/2+x,1/2-y,1/2+z
_cell_length_a                   16.5935(18)
_cell_length_b                   9.9693(11)
_cell_length_c                   19.166(2)
_cell_angle_alpha                90
_cell_angle_beta                 95.781(2)
_cell_angle_gamma                90
_cell_volume                     3154.42
loop_
_atom_site_label
_atom_site_type_symbol
_atom_site_fract_x
_atom_site_fract_y
_atom_site_fract_z
Co1 Co 0.17216(2) 0.20307(4) 0.06812(2)
N1 N 0.08720(14) 0.2711(2) -0.01847(13)
N2 N -0.07900(16) 0.4506(2) -0.17058(14)
H1 H -0.082(2) 0.5361(19) -0.1640(17)
N3 N 0.25897(14) 0.1547(2) 0.15578(12)
O1 O 0.08939(12) 0.2833(2) 0.13724(11)
O2 O 0.07427(14) 0.0736(2) 0.10838(12)
C1 C 0.0858(2) 0.4025(3) -0.03451(19)
H2 H 0.1230 0.4582 -0.0091
C2 C 0.03342(19) 0.4595(3) -0.08567(18)
H3 H 0.0374 0.5505 -0.0954
C3 C -0.02564(17) 0.3824(3) -0.12323(15)
C4 C -0.02642(19) 0.2463(3) -0.10596(15)
H4 H -0.0649 0.1894 -0.1288
C5 C 0.03072(17) 0.1967(3) -0.05448(15)
H5 H 0.0295 0.1055 -0.0445
C6 C 0.26210(18) 0.0317(3) 0.18469(15)
H6 H 0.2267 -0.0333 0.1648
C7 C 0.31448(18) -0.0037(3) 0.24188(15)
H7 H 0.3141 -0.0906 0.2595
C8 C -0.13165(17) 0.4089(3) -0.22644(15)
C9 C -0.13380(19) 0.2817(3) -0.25579(16)
H8 H -0.0991 0.2148 -0.2369
C10 C 0.31158(19) 0.2440(3) 0.18635(16)
H9 H 0.3114 0.3297 0.1672
O3 O 0.26550(13) 0.1228(2) -0.06515(12)
O4 O 0.20011(13) 0.0318(2) 0.01826(11)
C11 C 0.23514(17) 0.0249(3) -0.03604(15)
C12 C 0.21831(18) -0.2323(3) -0.03024(15)
H10 H 0.3330 -0.2848 0.0117
H11 H 0.2891 -0.1915 0.0617
C13 C -0.0336(2) 0.0533(3) 0.21979(17)
H12 H -0.0304 -0.0289 0.1931
H13 H -0.0856 0.0545 0.2387
C14 C 0.24136(18) -0.1101(3) -0.07162(15)
H14 H 0.2930 -0.3919 0.1156
H15 H 0.2033 -0.3784 0.0827
C15 C -0.02873(19) 0.1720(4) 0.17104(18)
H16 H -0.0345 0.2541 0.1972
H17 H -0.0734 0.1675 0.1343
C16 C 0.05053(18) 0.1768(3) 0.13764(14)
Co1G Co -0.32784(2) 0.29693(4) -0.43188(2)
Co1E Co 0.32784(2) 0.29693(4) -0.06812(2)
Co1_2 Co 0.17216(2) -0.79693(4) 0.06812(2)
Co1E_2 Co 0.32784(2) -0.70307(4) -0.06812(2)
Co1B Co -0.17216(2) 0.20307(4) 0.43188(2)
Co1G_2 Co 0.67216(2) 0.29693(4) 0.56812(2)
N1G N -0.41280(14) 0.2289(2) -0.51847(13)
N1G_2 N 0.58720(14) 0.2289(2) 0.48153(13)
N2G N 0.42100(16) 0.0494(2) 0.32942(14)
H1G H 0.418(2) -0.0361(19) 0.3360(17)
N3G N -0.24103(14) 0.3453(2) -0.34422(12)
O1G O -0.41061(12) 0.2167(2) -0.36276(11)
O1B O -0.08939(12) 0.2833(2) 0.36276(11)
O2G O -0.42573(14) 0.4264(2) -0.39162(12)
O2B O -0.07427(14) 0.0736(2) 0.39162(12)
C1G C 0.5858(2) 0.0975(3) 0.46549(19)
H2G H 0.6230 0.0418 0.4909
C2G C 0.53342(19) 0.0405(3) 0.41433(18)
H3G H 0.5374 -0.0505 0.4046
C3G C 0.47436(17) 0.1176(3) 0.37677(15)
C4G C 0.47358(19) 0.2537(3) 0.39404(15)
H4G H 0.4351 0.3106 0.3712
C5G C 0.53072(17) 0.3033(3) 0.44552(15)
H5G H 0.5295 0.3945 0.4555
C6G C -0.23790(18) 0.4683(3) -0.31531(15)
H6G H -0.2733 0.5333 -0.3352
C7G C -0.18552(18) 0.5037(3) -0.25812(15)
H7G H -0.1859 0.5906 -0.2405
C8G C 0.36835(17) 0.0911(3) 0.27356(15)
C9G C 0.36620(19) 0.2183(3) 0.24421(16)
H8G H 0.4009 0.2852 0.2631
C10G C -0.18842(19) 0.2560(3) -0.31365(16)
H9G H -0.1886 0.1703 -0.3328
O3E O 0.23450(13) 0.3772(2) 0.06515(12)
O3E_2 O 0.23450(13) -0.6228(2) 0.06515(12)
O3B O -0.26550(13) 0.1228(2) -0.43485(12)
O4E O 0.29989(13) -0.5318(2) -0.01826(11)
O4G O -0.29989(13) 0.4682(2) -0.48174(11)
C11E C 0.26486(17) -0.5249(3) 0.03604(15)
C12E C 0.28169(18) -0.2677(3) 0.03024(15)
H10E H 0.1670 -0.2152 -0.0117
H11E H 0.2109 -0.3085 -0.0617
C13B C 0.0336(2) 0.0533(3) 0.28021(17)
H12B H 0.0304 -0.0289 0.3069
H13B H 0.0856 0.0545 0.2613
C14E C 0.25864(18) -0.3899(3) 0.07162(15)
H14E H 0.2070 -0.1081 -0.1156
H15E H 0.2967 -0.1216 -0.0827
C15B C 0.02873(19) 0.1720(4) 0.32896(18)
H16B H 0.0345 0.2541 0.3028
H17B H 0.0734 0.1675 0.3657
C16B C -0.05053(18) 0.1768(3) 0.36236(14)
loop_
_geom_bond_atom_site_label_1
_geom_bond_atom_site_label_2
_geom_bond_site_symmetry_1
_geom_bond_site_symmetry_2
Co1 N1 1_555 1_555
N1 C1 1_555 1_555
N2 H1 1_555 1_555
N3 Co1 1_555 1_555
O1 Co1 1_555 1_555
O2 Co1 1_555 1_555
C1 H2 1_555 1_555
C2 C1 1_555 1_555
H3 C2 1_555 1_555
C3 N2 1_555 1_555
C4 C3 1_555 1_555
H4 C4 1_555 1_555
C5 N1 1_555 1_555
H5 C5 1_555 1_555
C6 N3 1_555 1_555
H6 C6 1_555 1_555
C7 C6 1_555 1_555
H7 C7 1_555 1_555
C8 N2 1_555 1_555
C9 C8 1_555 1_555
H8 C9 1_555 1_555
C10 N3 1_555 1_555
H9 C10 1_555 1_555
O3 C11 1_555 1_555
O4 Co1 1_555 1_555
C11 O4 1_555 1_555
C12 C14 1_555 1_555
H10 C12E 1_555 1_555
H11 C12E 1_555 1_555
C13 H12 1_555 1_555
H13 C13 1_555 1_555
C14 C11 1_555 1_555
H14 C14E 1_555 1_555
H15 C14E 1_555 1_555
C15 C13 1_555 1_555
H16 C15 1_555 1_555
H17 C15 1_555 1_555
C16 O1 1_555 1_555
Co1G N1G 1_555 1_555
Co1E O3 1_555 1_555
Co1_2 O3E_2 1_555 1_555
Co1E_2 O4E 1_555 1_555
Co1B O1B 1_555 1_555
Co1G_2 N1G_2 1_555 1_555
N1G_2 C1G 1_555 1_555
N2G H1G 1_555 1_555
N3G Co1G 1_555 1_555
O1G Co1G 1_555 1_555
O1B C16B 1_555 1_555
O2G Co1G 1_555 1_555
O2B Co1B 1_555 1_555
C1G H2G 1_555 1_555
C2G C1G 1_555 1_555
H3G C2G 1_555 1_555
C3G N2G 1_555 1_555
C4G C3G 1_555 1_555
H4G C4G 1_555 1_555
C5G N1G_2 1_555 1_555
H5G C5G 1_555 1_555
C6G N3G 1_555 1_555
H6G C6G 1_555 1_555
C7G C8 1_555 1_555
H7G C7G 1_555 1_555
C8G C7 1_555 1_555
C9G C10 1_555 1_555
H8G C9G 1_555 1_555
C10G C9 1_555 1_555
H9G C10G 1_555 1_555
O3E Co1 1_555 1_555
O3E_2 C11E 1_555 1_555
O3B Co1G 1_555 1_555
O4E C11E 1_555 1_555
O4G Co1G 1_555 1_555
C11E C14E 1_555 1_555
C12E C12 1_555 1_555
H10E C12 1_555 1_555
H11E C12 1_555 1_555
C13B C13 1_555 1_555
H12B C13B 1_555 1_555
H13B C13B 1_555 1_555
C14E C12E 1_555 1_555
H14E C14 1_555 1_555
H15E C14 1_555 1_555
C15B C13B 1_555 1_555
H16B C15B 1_555 1_555
H17B C15B 1_555 1_555
C16B O2B 1_555 1_555
O2 C16 1_555 1_555
C2 C3 1_555 1_555
C4 C5 1_555 1_555
C15 C16 1_555 1_555
N2G C8G 1_555 1_555
N3G C10G 1_555 1_555
C2G C3G 1_555 1_555
C4G C5G 1_555 1_555
C6G C7G 1_555 1_555
C8G C9G 1_555 1_555
C15B C16B 1_555 1_555

#END
