
#######################################################################
#
#                 Cambridge Crystallographic Data Centre
#                                CCDC 
#
#######################################################################
#
# If this CIF has been generated from an entry in the Cambridge 
# Structural Database, then it will include bibliographic, chemical, 
# crystal, experimental, refinement or atomic coordinate data resulting 
# from the CCDC's data processing and validation procedures.
#
#######################################################################

data_LIPJOK
_symmetry_cell_setting           monoclinic
_symmetry_space_group_name_H-M   'C 2/c'
_symmetry_Int_Tables_number      15
_space_group_name_Hall           '-C 2yn'
loop_
_symmetry_equiv_pos_site_id
_symmetry_equiv_pos_as_xyz
1 x,y,z
2 -x,y,1/2-z
3 1/2+x,1/2+y,z
4 1/2-x,1/2+y,1/2-z
5 -x,-y,-z
6 x,-y,1/2+z
7 1/2-x,1/2-y,-z
8 1/2+x,1/2-y,1/2+z
_cell_length_a                   23.157(3)
_cell_length_b                   9.3556(13)
_cell_length_c                   17.074(2)
_cell_angle_alpha                90
_cell_angle_beta                 119.455(2)
_cell_angle_gamma                90
_cell_volume                     3220.91
loop_
_atom_site_label
_atom_site_type_symbol
_atom_site_fract_x
_atom_site_fract_y
_atom_site_fract_z
Ni1 Ni 0.0000 -1.54846(4) 0.7500
Ni2 Ni -0.2500 -2.2500 0.5000
O1 O -0.27530(7) -2.09469(15) 0.56158(9)
O2 O -0.20733(8) -2.13783(17) 0.70757(10)
O3 O -0.10161(7) -1.57931(15) 0.67878(9)
O4 O -0.04349(7) -1.71487(15) 0.79572(9)
O5 O -0.30416(8) -2.14408(18) 0.38046(10)
H1 H -0.3081(13) -2.194(2) 0.3381(14)
H2 H -0.3311(11) -2.077(2) 0.3657(16)
N1 N 0.16688(8) -0.87014(18) 0.48271(11)
N2 N 0.02706(9) -1.16778(19) 0.47271(12)
H3 H 0.0027(11) -1.199(3) 0.4199(12)
N3 N 0.00022(8) -1.40561(18) 0.66055(11)
C1 C 0.15878(11) -0.8926(2) 0.55418(14)
H4 H 0.1856 -0.8411 0.6062
C2 C 0.11387(11) -0.9858(2) 0.55647(14)
H5 H 0.1105 -0.9954 0.6083
C3 C 0.07329(10) -1.0662(2) 0.47978(13)
C4 C 0.07853(10) -1.0377(2) 0.40311(14)
H6 H 0.0507 -1.0836 0.3492
C5 C 0.12504(10) -0.9415(2) 0.40772(14)
H7 H 0.1277 -0.9249 0.3559
C6 C 0.05043(10) -1.3132(2) 0.68719(14)
H8 H 0.0789 -1.3039 0.7487
C7 C 0.06323(10) -1.2309(2) 0.63076(14)
H9 H 0.0997 -1.1700 0.6538
C8 C 0.02037(10) -1.2404(2) 0.53794(14)
C9 C -0.03347(11) -1.3343(2) 0.50983(14)
H10 H -0.0638 -1.3431 0.4489
C10 C -0.04175(11) -1.4130(2) 0.57121(14)
H11 H -0.0780 -1.4743 0.5503
C11 C -0.25188(10) -2.0672(2) 0.64418(14)
C12 C -0.28102(11) -1.9383(2) 0.66624(15)
H12 H -0.2547 -1.9183 0.7301
H13 H -0.3256 -1.9615 0.6538
C13 C 0.28384(10) -1.8036(2) 0.88631(15)
H14 H 0.3005 -1.7254 0.8658
H15 H 0.3153 -1.8194 0.9494
C14 C 0.21725(10) -1.7588(2) 0.87760(14)
H16 H 0.2037 -1.8299 0.9067
H17 H 0.2229 -1.6688 0.9087
C15 C 0.16252(10) -1.7422(2) 0.77966(14)
H18 H 0.1791 -1.6832 0.7483
H19 H 0.1524 -1.8357 0.7514
C16 C -0.09936(10) -1.6769(2) 0.73179(13)
Ni2B Ni 0.2500 -0.7500 0.5000
Ni2A Ni 0.2500 -2.2500 1.0000
Ni2C Ni -0.2500 -0.7500 1.0000
O1F O -0.22470(7) -2.40531(15) 0.43842(9)
O1A O 0.27530(7) -2.09469(15) 0.93842(9)
O2A O 0.20733(8) -2.13783(17) 0.79243(10)
O3A O 0.10161(7) -1.57931(15) 0.82122(9)
O4A O 0.04349(7) -1.71487(15) 0.70428(9)
O5F O -0.19584(8) -2.35592(18) 0.61954(10)
H1F H -0.1919(13) -2.306(2) 0.6619(14)
H2F H -0.1689(11) -2.423(2) 0.6343(16)
N1D N -0.16688(8) -2.12986(18) 0.51729(11)
N1B N -0.33312(8) -2.37014(18) 0.48271(11)
N1A N -0.16688(8) -0.87014(18) 1.01729(11)
N2A N -0.02706(9) -1.16778(19) 1.02729(12)
H3A H -0.0027(11) -1.199(3) 1.0801(12)
N3A N -0.00022(8) -1.40561(18) 0.83945(11)
C1A C -0.15878(11) -0.8926(2) 0.94582(14)
H4A H -0.1856 -0.8411 0.8938
C2A C -0.11387(11) -0.9858(2) 0.94353(14)
H5A H -0.1105 -0.9954 0.8917
C3A C -0.07329(10) -1.0662(2) 1.02022(13)
C4A C -0.07853(10) -1.0377(2) 1.09689(14)
H6A H -0.0507 -1.0836 1.1508
C5A C -0.12504(10) -0.9415(2) 1.09228(14)
H7A H -0.1277 -0.9249 1.1441
C6A C -0.05043(10) -1.3132(2) 0.81281(14)
H8A H -0.0789 -1.3039 0.7513
C7A C -0.06323(10) -1.2309(2) 0.86924(14)
H9A H -0.0997 -1.1700 0.8462
C8A C -0.02037(10) -1.2404(2) 0.96206(14)
C9A C 0.03347(11) -1.3343(2) 0.99017(14)
H10A H 0.0638 -1.3431 1.0511
C10A C 0.04175(11) -1.4130(2) 0.92879(14)
H11A H 0.0780 -1.4743 0.9497
C11A C 0.25188(10) -2.0672(2) 0.85582(14)
C12A C 0.28102(11) -1.9383(2) 0.83376(15)
H12A H 0.2547 -1.9183 0.7699
H13A H 0.3256 -1.9615 0.8462
C13A C -0.28384(10) -1.8036(2) 0.61369(15)
H14A H -0.3005 -1.7254 0.6342
H15A H -0.3153 -1.8194 0.5506
C14A C -0.21725(10) -1.7588(2) 0.62240(14)
H16A H -0.2037 -1.8299 0.5933
H17A H -0.2229 -1.6688 0.5913
C15A C -0.16252(10) -1.7422(2) 0.72034(14)
H18A H -0.1791 -1.6832 0.7517
H19A H -0.1524 -1.8357 0.7486
C16A C 0.09936(10) -1.6769(2) 0.76821(13)
loop_
_geom_bond_atom_site_label_1
_geom_bond_atom_site_label_2
_geom_bond_site_symmetry_1
_geom_bond_site_symmetry_2
Ni1 O3 1_555 1_555
Ni2 O1 1_555 1_555
O1 C11 1_555 1_555
O2 C11 1_555 1_555
O3 C16 1_555 1_555
O4 Ni1 1_555 1_555
O5 Ni2 1_555 1_555
H1 O5 1_555 1_555
H2 O5 1_555 1_555
N1 C1 1_555 1_555
N2 H3 1_555 1_555
N3 Ni1 1_555 1_555
C1 H4 1_555 1_555
C2 C1 1_555 1_555
H5 C2 1_555 1_555
C3 N2 1_555 1_555
C4 C3 1_555 1_555
H6 C4 1_555 1_555
C5 N1 1_555 1_555
H7 C5 1_555 1_555
C6 N3 1_555 1_555
H8 C6 1_555 1_555
C7 C6 1_555 1_555
H9 C7 1_555 1_555
C8 N2 1_555 1_555
C9 C8 1_555 1_555
H10 C9 1_555 1_555
C10 N3 1_555 1_555
H11 C10 1_555 1_555
C11 C12 1_555 1_555
C12 H12 1_555 1_555
H13 C12 1_555 1_555
C13 H14 1_555 1_555
H15 C13 1_555 1_555
C14 C13 1_555 1_555
H16 C14 1_555 1_555
H17 C14 1_555 1_555
C15 C14 1_555 1_555
H18 C15 1_555 1_555
H19 C15 1_555 1_555
C16 O4 1_555 1_555
Ni2B N1 1_555 1_555
Ni2A O1A 1_555 1_555
Ni2C N1A 1_555 1_555
O1F Ni2 1_555 1_555
O1A C11A 1_555 1_555
O2A C11A 1_555 1_555
O3A Ni1 1_555 1_555
O4A Ni1 1_555 1_555
O5F Ni2 1_555 1_555
H1F O5F 1_555 1_555
H2F O5F 1_555 1_555
N1D Ni2 1_555 1_555
N1B Ni2 1_555 1_555
N1A C1A 1_555 1_555
N2A H3A 1_555 1_555
N3A Ni1 1_555 1_555
C1A H4A 1_555 1_555
C2A C1A 1_555 1_555
H5A C2A 1_555 1_555
C3A N2A 1_555 1_555
C4A C3A 1_555 1_555
H6A C4A 1_555 1_555
C5A N1A 1_555 1_555
H7A C5A 1_555 1_555
C6A N3A 1_555 1_555
H8A C6A 1_555 1_555
C7A C6A 1_555 1_555
H9A C7A 1_555 1_555
C8A N2A 1_555 1_555
C9A C8A 1_555 1_555
H10A C9A 1_555 1_555
C10A N3A 1_555 1_555
H11A C10A 1_555 1_555
C11A C12A 1_555 1_555
C12A C13 1_555 1_555
H12A C12A 1_555 1_555
H13A C12A 1_555 1_555
C13A C12 1_555 1_555
H14A C13A 1_555 1_555
H15A C13A 1_555 1_555
C14A C13A 1_555 1_555
H16A C14A 1_555 1_555
H17A C14A 1_555 1_555
C15A C16 1_555 1_555
H18A C15A 1_555 1_555
H19A C15A 1_555 1_555
C16A C15 1_555 1_555
C2 C3 1_555 1_555
C4 C5 1_555 1_555
C7 C8 1_555 1_555
C9 C10 1_555 1_555
O3A C16A 1_555 1_555
O4A C16A 1_555 1_555
C2A C3A 1_555 1_555
C4A C5A 1_555 1_555
C7A C8A 1_555 1_555
C9A C10A 1_555 1_555
C14A C15A 1_555 1_555

#END
