
#######################################################################
#
#                 Cambridge Crystallographic Data Centre
#                                CCDC 
#
#######################################################################
#
# If this CIF has been generated from an entry in the Cambridge 
# Structural Database, then it will include bibliographic, chemical, 
# crystal, experimental, refinement or atomic coordinate data resulting 
# from the CCDC's data processing and validation procedures.
#
#######################################################################

data_LIPREI
_symmetry_cell_setting           monoclinic
_symmetry_space_group_name_H-M   'P 21/c'
_symmetry_Int_Tables_number      14
_space_group_name_Hall           '-P 2ybc'
loop_
_symmetry_equiv_pos_site_id
_symmetry_equiv_pos_as_xyz
1 x,y,z
2 -x,1/2+y,1/2-z
3 -x,-y,-z
4 x,1/2-y,1/2+z
_cell_length_a                   9.0254(18)
_cell_length_b                   17.703(4)
_cell_length_c                   8.4972(17)
_cell_angle_alpha                90
_cell_angle_beta                 92.22(3)
_cell_angle_gamma                90
_cell_volume                     1356.64
loop_
_atom_site_label
_atom_site_type_symbol
_atom_site_fract_x
_atom_site_fract_y
_atom_site_fract_z
Bi1 Bi 0.239010(17) -0.377600(9) -0.98607(2)
O1 O 0.3797(4) -0.18221(18) -1.2885(4)
O2 O 0.1220(4) -0.2367(2) -1.4201(5)
O3 O 0.3807(4) -0.2261(2) -0.6129(5)
O4 O 0.1393(4) -0.33660(19) -1.2624(5)
O5 O 0.3884(4) -0.4764(2) -0.8433(4)
O6 O 0.1259(4) -0.0887(2) -0.2486(5)
O7 O 0.5570(5) -0.5660(2) -0.8572(5)
O8 O -0.0246(4) -0.0892(2) -0.5247(5)
O9 O -0.0793(5) -0.0653(4) -0.1272(6)
O10 O -0.2365(6) -0.0882(5) -0.3984(7)
C1 C 0.1832(5) -0.2744(3) -1.3112(6)
C2 C 0.3257(5) -0.2587(2) -0.7304(6)
C3 C 0.4841(5) -0.5126(3) -0.9153(6)
C4 C -0.0115(5) -0.0792(3) -0.2438(6)
C5 C -0.0998(6) -0.0845(4) -0.4022(7)
Bi1C Bi 0.239010(17) -0.122400(9) -1.48607(2)
Bi1C_2 Bi 0.239010(17) -0.122400(9) -0.48607(2)
Bi1B Bi 0.760990(17) -0.622400(9) -1.01393(2)
O1C O 0.3797(4) -0.31779(18) -0.7885(4)
O1_2 O 0.3797(4) -0.18221(18) -0.2885(4)
O2C O 0.1220(4) -0.2633(2) -0.9201(5)
O2_2 O 0.1220(4) -0.2367(2) -0.4201(5)
O3C O 0.3807(4) -0.2739(2) -1.1129(5)
O4C O 0.1393(4) -0.16340(19) -0.7624(5)
O5C O 0.3884(4) -0.0236(2) -0.3433(4)
O5B O 0.6116(4) -0.5236(2) -1.1567(4)
O6C O 0.1259(4) -0.4113(2) -0.7486(5)
O7A O 0.4430(5) -0.0660(2) -0.6428(5)
O7B O 0.4430(5) -0.4340(2) -1.1428(5)
O8C O -0.0246(4) -0.4108(2) -1.0247(5)
O9C O -0.0793(5) -0.4347(4) -0.6272(6)
O10C O -0.2365(6) -0.4118(5) -0.8984(7)
C1C C 0.1832(5) -0.2256(3) -0.8112(6)
C2C C 0.3257(5) -0.2413(2) -1.2304(6)
C3B C 0.5159(5) -0.4874(3) -1.0847(6)
C4C C -0.0115(5) -0.4208(3) -0.7438(6)
C5C C -0.0998(6) -0.4155(4) -0.9022(7)
C6 C 0.2366(7) 0.1569(3) -0.1231(8)
H1 H 0.1676 0.1780 -0.0485
C7 C 0.3811(7) 0.1460(4) -0.0381(8)
H2 H 0.4514 0.1288 -0.1138
H3 H 0.4149 0.1951 -0.0007
C8 C 0.2477(8) 0.2118(4) -0.2570(10)
H4 H 0.3071 0.1902 -0.3369
H5 H 0.2929 0.2577 -0.2190
H6 H 0.1503 0.2225 -0.3006
N1 N 0.3890(5) 0.0937(3) 0.0966(6)
H7 H 0.3269 0.1089 0.1689
H8 H 0.4811 0.0930 0.1381
H9 H 0.3640 0.0475 0.0641
N2 N 0.1736(5) 0.0842(2) -0.1820(6)
H10 H 0.2468 0.0539 -0.2097
H11 H 0.1131 0.0929 -0.2652
H12 H 0.1233 0.0623 -0.1064
O11 O 0.6892(5) 0.4412(2) -0.5111(5)
H13 H 0.7397 0.4231 -0.6201
H14 H 0.7635 0.4214 -0.4285
loop_
_geom_bond_atom_site_label_1
_geom_bond_atom_site_label_2
_geom_bond_site_symmetry_1
_geom_bond_site_symmetry_2
Bi1 O4 1_555 1_555
O1 Bi1C 1_555 1_555
O2 C1 1_555 1_555
O3 C2 1_555 1_555
O4 C1 1_555 1_555
O5 Bi1 1_555 1_555
O6 C4 1_555 1_555
O7 C3 1_555 1_555
O8 C5 1_555 1_555
O9 C4 1_555 1_555
O10 C5 1_555 1_555
C1 C2C 1_555 1_555
C2 O1C 1_555 1_555
C3 O5 1_555 1_555
C4 C5 1_555 1_555
C6 H1 1_555 1_555
C7 C6 1_555 1_555
H2 C7 1_555 1_555
H3 C7 1_555 1_555
C8 C6 1_555 1_555
H4 C8 1_555 1_555
H5 C8 1_555 1_555
H6 C8 1_555 1_555
N1 C7 1_555 1_555
H7 N1 1_555 1_555
H8 N1 1_555 1_555
H9 N1 1_555 1_555
N2 C6 1_555 1_555
H10 N2 1_555 1_555
H11 N2 1_555 1_555
H12 N2 1_555 1_555
O11 H13 1_555 1_555
H14 O11 1_555 1_555
Bi1C O2 1_555 1_555
Bi1C_2 O3 1_555 1_555
Bi1B O7 1_555 1_555
O1C Bi1 1_555 1_555
O1_2 Bi1C_2 1_555 1_555
O2C Bi1 1_555 1_555
O2_2 Bi1C_2 1_555 1_555
O3C Bi1 1_555 1_555
O4C Bi1C_2 1_555 1_555
O5C Bi1C_2 1_555 1_555
O5B Bi1B 1_555 1_555
O6C Bi1 1_555 1_555
O7A Bi1C_2 1_555 1_555
O7B Bi1 1_555 1_555
O8C Bi1 1_555 1_555
O9C C4C 1_555 1_555
O10C C5C 1_555 1_555
C1C C2 1_555 1_555
C2C O1 1_555 1_555
C3B C3 1_555 1_555
C4C O6C 1_555 1_555
C5C O8C 1_555 1_555
O6 Bi1C_2 1_555 1_555
O8 Bi1C_2 1_555 1_555
O2C C1C 1_555 1_555
O3C C2C 1_555 1_555
O4C C1C 1_555 1_555
O5B C3B 1_555 1_555
O7B C3B 1_555 1_555
C4C C5C 1_555 1_555

#END
