
#######################################################################
#
#                 Cambridge Crystallographic Data Centre
#                                CCDC 
#
#######################################################################
#
# If this CIF has been generated from an entry in the Cambridge 
# Structural Database, then it will include bibliographic, chemical, 
# crystal, experimental, refinement or atomic coordinate data resulting 
# from the CCDC's data processing and validation procedures.
#
#######################################################################

data_LIPZER
_symmetry_cell_setting           monoclinic
_symmetry_space_group_name_H-M   'P 21/c'
_symmetry_Int_Tables_number      14
_space_group_name_Hall           '-P 2ybc'
loop_
_symmetry_equiv_pos_site_id
_symmetry_equiv_pos_as_xyz
1 x,y,z
2 -x,1/2+y,1/2-z
3 -x,-y,-z
4 x,1/2-y,1/2+z
_cell_length_a                   5.0096(14)
_cell_length_b                   10.8260(3)
_cell_length_c                   7.288(7)
_cell_angle_alpha                90
_cell_angle_beta                 95.9430(10)
_cell_angle_gamma                90
_cell_volume                     393.133
loop_
_atom_site_label
_atom_site_type_symbol
_atom_site_fract_x
_atom_site_fract_y
_atom_site_fract_z
H1 H 0.439(6) 0.187(3) 0.362(4)
H2 H 0.778(6) -0.140(3) 0.378(4)
V1 V 0.77782(10) 0.06583(4) 0.08918(7)
F1 F 1.0852(3) -0.04258(13) 0.1536(2)
N1 N 0.6225(5) 0.0279(2) 0.3432(3)
F2 F 0.5774(3) -0.10779(13) 0.0210(2)
O1 O 0.8886(4) 0.19806(17) 0.1522(3)
C1 C 0.4607(6) 0.1091(3) 0.4159(4)
C2 C 0.6622(6) -0.0816(3) 0.4294(4)
H1B H 0.561(6) -0.187(3) 0.638(4)
H2B H 0.222(6) 0.140(3) 0.622(4)
N1B N 0.3775(5) -0.0279(2) 0.6568(3)
C1B C 0.5393(6) -0.1091(3) 0.5841(4)
C2B C 0.3378(6) 0.0816(3) 0.5706(4)
V1B V 0.22218(10) -0.06583(4) -0.08918(7)
F1B F -0.0852(3) 0.04258(13) -0.1536(2)
F2B F 0.4226(3) 0.10779(13) -0.0210(2)
O1B O 0.1114(4) -0.19806(17) -0.1522(3)
V1_2 V -0.22218(10) 0.06583(4) 0.08918(7)
V1B_2 V 0.22218(10) -0.06583(4) 0.91082(7)
V1B_3 V 1.22218(10) -0.06583(4) -0.08918(7)
F1_2 F 0.0852(3) -0.04258(13) 0.1536(2)
F1B_2 F 0.9148(3) 0.04258(13) -0.1536(2)
N1B_2 N 0.3775(5) -0.0279(2) -0.3432(3)
loop_
_geom_bond_atom_site_label_1
_geom_bond_atom_site_label_2
_geom_bond_site_symmetry_1
_geom_bond_site_symmetry_2
H1 C1 1_555 1_555
H2 C2 1_555 1_555
V1 F1 1_555 1_555
F1 V1B_3 1_555 1_555
N1 V1 1_555 1_555
F2 V1 1_555 1_555
O1 V1 1_555 1_555
C1 N1 1_555 1_555
C2 N1 1_555 1_555
H1B C1B 1_555 1_555
H2B C2B 1_555 1_555
N1B C1B 1_555 1_555
C1B C2 1_555 1_555
C2B C1 1_555 1_555
V1B F2 1_555 1_555
F1B V1B 1_555 1_555
F2B V1 1_555 1_555
O1B V1B 1_555 1_555
V1_2 F1B 1_555 1_555
V1B_2 N1B 1_555 1_555
V1B_3 F1B_2 1_555 1_555
F1_2 V1B 1_555 1_555
F1B_2 V1 1_555 1_555
N1B_2 V1B 1_555 1_555
N1B C2B 1_555 1_555
V1B F2B 1_555 1_555
V1_2 F1_2 1_555 1_555

#END
