
#######################################################################
#
#                 Cambridge Crystallographic Data Centre
#                                CCDC 
#
#######################################################################
#
# If this CIF has been generated from an entry in the Cambridge 
# Structural Database, then it will include bibliographic, chemical, 
# crystal, experimental, refinement or atomic coordinate data resulting 
# from the CCDC's data processing and validation procedures.
#
#######################################################################

data_LIQBUK
_symmetry_cell_setting           triclinic
_symmetry_space_group_name_H-M   'P -1'
_symmetry_Int_Tables_number      2
_space_group_name_Hall           '-P 1'
loop_
_symmetry_equiv_pos_site_id
_symmetry_equiv_pos_as_xyz
1 x,y,z
2 -x,-y,-z
_cell_length_a                   10.8762(2)
_cell_length_b                   10.9064(2)
_cell_length_c                   12.2510(2)
_cell_angle_alpha                75.9520(10)
_cell_angle_beta                 76.2750(10)
_cell_angle_gamma                78.3780(10)
_cell_volume                     1353.45
loop_
_atom_site_label
_atom_site_type_symbol
_atom_site_fract_x
_atom_site_fract_y
_atom_site_fract_z
Au1 Au 0.888680(17) 0.193881(14) 0.181256(14)
Eu1 Eu 0.794388(17) 0.694161(15) 0.250729(14)
O1 O 0.8776(4) 0.7384(3) 0.0392(3)
O2 O 0.6783(3) 0.8027(4) 0.0973(3)
O3 O 0.7598(5) 0.8410(5) -0.0837(3)
O4 O 0.7301(3) 0.5176(3) 0.4141(2)
O5 O 0.6118(3) 0.5744(3) 0.2870(3)
O6 O 0.5791(4) 0.4105(3) 0.4249(4)
N1 N 1.0206(3) 0.6336(3) 0.2772(3)
N2 N 1.1729(3) 0.5937(3) 0.3806(3)
N3 N 0.8352(3) 0.7259(3) 0.4405(2)
N4 N 0.6050(3) 0.8045(3) 0.3744(3)
N5 N 0.5025(3) 0.8445(3) 0.5457(3)
N6 N 0.8700(4) 0.4810(3) 0.1890(3)
N7 N 0.8637(4) 0.9083(3) 0.2051(3)
N8 N 0.7721(4) 0.7944(4) 0.0139(3)
N9 N 0.6370(3) 0.4978(3) 0.3773(3)
C1 C 1.1348(4) 0.5815(4) 0.2140(3)
C2 C 1.1615(4) 0.5526(4) 0.1051(4)
C3 C 1.2836(5) 0.4979(5) 0.0660(4)
C4 C 1.3795(5) 0.4724(5) 0.1308(5)
C5 C 1.3549(4) 0.5007(5) 0.2382(4)
C6 C 1.2318(4) 0.5562(4) 0.2784(3)
C7 C 1.0494(4) 0.6388(3) 0.3762(3)
C8 C 0.9516(4) 0.6881(3) 0.4666(3)
C9 C 0.9756(4) 0.6933(4) 0.5725(3)
C10 C 0.8745(5) 0.7391(4) 0.6513(3)
C11 C 0.7545(4) 0.7788(4) 0.6249(3)
C12 C 0.7387(4) 0.7701(3) 0.5178(3)
C13 C 0.6157(4) 0.8072(3) 0.4800(3)
C14 C 0.4103(4) 0.8658(3) 0.4809(3)
C15 C 0.2772(4) 0.9014(4) 0.5053(4)
C16 C 0.2140(4) 0.9112(4) 0.4186(4)
C17 C 0.2780(5) 0.8876(5) 0.3116(4)
C18 C 0.4087(4) 0.8527(5) 0.2869(4)
C19 C 0.4763(4) 0.8416(4) 0.3733(3)
C20 C 0.8815(4) 0.3757(4) 0.1820(3)
C21 C 0.8808(4) 1.0115(4) 0.1919(4)
H1 H 1.0978 0.5701 0.0620
H2 H 1.3046 0.4770 -0.0062
H3 H 1.4621 0.4349 0.1020
H4 H 1.4182 0.4843 0.2819
H5 H 1.0570 0.6660 0.5883
H6 H 0.8877 0.7431 0.7224
H7 H 0.6855 0.8101 0.6773
H8 H 0.2351 0.9175 0.5768
H9 H 0.1250 0.9340 0.4319
H10 H 0.2303 0.8971 0.2551
H11 H 0.4514 0.8363 0.2149
H12 H 0.4888 0.8544 0.6228
H13 H 1.2128 0.5889 0.4429
Au1_2 Au 0.888680(17) 1.193881(14) 0.181256(14)
C21_2 C 0.8808(4) 0.0115(4) 0.1919(4)
N10 N 0.5534(5) 0.1488(6) 0.2126(4)
C22 C 0.6337(12) 0.1498(8) -0.0016(5)
C23 C 0.5871(5) 0.1490(5) 0.1198(4)
H14 H 0.6022 0.0827 -0.0203
H15 H 0.7258 0.1350 -0.0179
H16 H 0.6026 0.2307 -0.0449
loop_
_geom_bond_atom_site_label_1
_geom_bond_atom_site_label_2
_geom_bond_site_symmetry_1
_geom_bond_site_symmetry_2
Au1 C20 1_555 1_555
Eu1 O1 1_555 1_555
O1 N8 1_555 1_555
O2 Eu1 1_555 1_555
O3 N8 1_555 1_555
O4 Eu1 1_555 1_555
O5 Eu1 1_555 1_555
O6 N9 1_555 1_555
N1 Eu1 1_555 1_555
N2 C6 1_555 1_555
N3 Eu1 1_555 1_555
N4 Eu1 1_555 1_555
N5 C13 1_555 1_555
N6 Eu1 1_555 1_555
N7 Eu1 1_555 1_555
N8 O2 1_555 1_555
N9 O4 1_555 1_555
C1 N1 1_555 1_555
C2 C1 1_555 1_555
C3 C2 1_555 1_555
C4 C3 1_555 1_555
C5 C4 1_555 1_555
C6 C1 1_555 1_555
C7 N1 1_555 1_555
C8 N3 1_555 1_555
C9 C8 1_555 1_555
C10 C9 1_555 1_555
C11 C10 1_555 1_555
C12 N3 1_555 1_555
C13 N4 1_555 1_555
C14 N5 1_555 1_555
C15 C14 1_555 1_555
C16 C15 1_555 1_555
C17 C16 1_555 1_555
C18 C17 1_555 1_555
C19 N4 1_555 1_555
C20 N6 1_555 1_555
C21 N7 1_555 1_555
H1 C2 1_555 1_555
H2 C3 1_555 1_555
H3 C4 1_555 1_555
H4 C5 1_555 1_555
H5 C9 1_555 1_555
H6 C10 1_555 1_555
H7 C11 1_555 1_555
H8 C15 1_555 1_555
H9 C16 1_555 1_555
H10 C17 1_555 1_555
H11 C18 1_555 1_555
H12 N5 1_555 1_555
H13 N2 1_555 1_555
N10 C23 1_555 1_555
C22 C23 1_555 1_555
H14 C22 1_555 1_555
H15 C22 1_555 1_555
H16 C22 1_555 1_555
Au1_2 C21 1_555 1_555
C21_2 Au1 1_555 1_555
O5 N9 1_555 1_555
N2 C7 1_555 1_555
C5 C6 1_555 1_555
C7 C8 1_555 1_555
C11 C12 1_555 1_555
C12 C13 1_555 1_555
C14 C19 1_555 1_555
C18 C19 1_555 1_555

#END
