
#######################################################################
#
#                 Cambridge Crystallographic Data Centre
#                                CCDC 
#
#######################################################################
#
# If this CIF has been generated from an entry in the Cambridge 
# Structural Database, then it will include bibliographic, chemical, 
# crystal, experimental, refinement or atomic coordinate data resulting 
# from the CCDC's data processing and validation procedures.
#
#######################################################################

data_LIQBAP
_symmetry_cell_setting           monoclinic
_symmetry_space_group_name_H-M   'C 2'
_symmetry_Int_Tables_number      5
_space_group_name_Hall           'C 2y'
loop_
_symmetry_equiv_pos_site_id
_symmetry_equiv_pos_as_xyz
1 x,y,z
2 -x,y,-z
3 1/2+x,1/2+y,z
4 1/2-x,1/2+y,-z
_cell_length_a                   20.5035(5)
_cell_length_b                   9.7943(2)
_cell_length_c                   11.7814(4)
_cell_angle_alpha                90
_cell_angle_beta                 96.578(1)
_cell_angle_gamma                90
_cell_volume                     2350.34
loop_
_atom_site_label
_atom_site_type_symbol
_atom_site_fract_x
_atom_site_fract_y
_atom_site_fract_z
C1 C 0.5141(2) 0.4085(6) 0.3431(4)
C2 C 0.4755(3) 0.2975(6) 0.3429(5)
H1 H 0.4944 0.2092 0.3394
C3 C 0.4076(3) 0.3106(6) 0.3478(5)
H2 H 0.3817 0.2302 0.3468
N1 N 0.37834(19) 0.4303(5) 0.3537(3)
C4 C 0.4157(3) 0.5460(6) 0.3544(5)
C5 C 0.3850(2) 0.6753(6) 0.3610(5)
H3 H 0.3391 0.6793 0.3654
C6 C 0.4193(3) 0.7917(6) 0.3611(5)
H4 H 0.3977 0.8771 0.3653
C7 C 0.4886(2) 0.7870(5) 0.3551(5)
C8 C 0.5202(2) 0.6650(6) 0.3506(5)
H5 H 0.5664 0.6627 0.3486
C9 C 0.4845(2) 0.5435(5) 0.3491(5)
O1 O 0.51739(15) 0.9142(5) 0.3558(4)
C10 C 0.5871(2) 0.9135(7) 0.3417(6)
H6 H 0.6114 0.8645 0.4056
H7 H 0.6031 1.0077 0.3402
H8 H 0.5936 0.8680 0.2698
C11 C 0.5875(2) 0.3936(5) 0.3383(4)
H9 H 0.6113 0.4564 0.3958
O2 O 0.60625(17) 0.2580(4) 0.3662(3)
H10 H 0.6374 0.2583 0.4190
C12 C 0.6045(2) 0.4324(6) 0.2192(4)
H11 H 0.5835 0.5225 0.1986
C13 C 0.5805(3) 0.3295(7) 0.1235(5)
H12 H 0.5755 0.2377 0.1565
H13 H 0.5374 0.3586 0.0845
C14 C 0.6318(4) 0.3250(9) 0.0373(7)
H14 H 0.6140 0.2743 -0.0332
C15 C 0.6521(4) 0.4703(9) 0.0070(6)
H15 H 0.6843 0.4614 -0.0502
C16 C 0.6884(3) 0.5359(8) 0.1135(6)
H16 H 0.7359 0.5421 0.1056
H17 H 0.6715 0.6294 0.1232
N2 N 0.6778(2) 0.4488(5) 0.2170(4)
H18 H 0.6953 0.4940 0.2830
C17 C 0.7136(4) 0.3182(9) 0.2078(7)
H19 H 0.7615 0.3355 0.2168
H20 H 0.7038 0.2554 0.2694
C18 C 0.6937(5) 0.2544(10) 0.0951(9)
H21 H 0.6849 0.1561 0.1052
H22 H 0.7297 0.2631 0.0462
C19 C 0.5947(5) 0.5580(15) -0.0485(7)
H23 H 0.5656 0.5138 -0.1056
C20 C 0.5811(8) 0.6803(19) -0.0286(15)
H24 H 0.6081 0.7306 0.0275
H25 H 0.5438 0.7223 -0.0695
Zn1 Zn 0.27874(2) 0.41696(5) 0.35800(5)
Cl1 Cl 0.22678(7) 0.38188(15) 0.18610(13)
O3 O 0.28370(18) 0.2672(4) 0.4718(3)
S1 S 0.25873(6) 0.12352(14) 0.45627(12)
O4 O 0.2998(2) 0.0489(5) 0.3856(4)
O5 O 0.26498(18) 0.0685(4) 0.5745(3)
O6 O 0.19041(17) 0.1254(4) 0.4076(3)
Zn1C Zn 0.22126(2) -0.08304(5) 0.64200(5)
O5C O 0.23502(18) 0.5685(4) 0.4255(3)
loop_
_geom_bond_atom_site_label_1
_geom_bond_atom_site_label_2
_geom_bond_site_symmetry_1
_geom_bond_site_symmetry_2
C1 C2 1_555 1_555
C2 H1 1_555 1_555
C3 C2 1_555 1_555
H2 C3 1_555 1_555
N1 C3 1_555 1_555
C4 N1 1_555 1_555
C5 C4 1_555 1_555
H3 C5 1_555 1_555
C6 C5 1_555 1_555
H4 C6 1_555 1_555
C7 C6 1_555 1_555
C8 C7 1_555 1_555
H5 C8 1_555 1_555
C9 C1 1_555 1_555
O1 C7 1_555 1_555
C10 O1 1_555 1_555
H6 C10 1_555 1_555
H7 C10 1_555 1_555
H8 C10 1_555 1_555
C11 C1 1_555 1_555
H9 C11 1_555 1_555
O2 C11 1_555 1_555
H10 O2 1_555 1_555
C12 C11 1_555 1_555
H11 C12 1_555 1_555
C13 C12 1_555 1_555
H12 C13 1_555 1_555
H13 C13 1_555 1_555
C14 C13 1_555 1_555
H14 C14 1_555 1_555
C15 C14 1_555 1_555
H15 C15 1_555 1_555
C16 C15 1_555 1_555
H16 C16 1_555 1_555
H17 C16 1_555 1_555
N2 C12 1_555 1_555
H18 N2 1_555 1_555
C17 N2 1_555 1_555
H19 C17 1_555 1_555
H20 C17 1_555 1_555
C18 C14 1_555 1_555
H21 C18 1_555 1_555
H22 C18 1_555 1_555
C19 C15 1_555 1_555
H23 C19 1_555 1_555
C20 C19 1_555 1_555
H24 C20 1_555 1_555
H25 C20 1_555 1_555
Zn1 N1 1_555 1_555
Cl1 Zn1 1_555 1_555
O3 Zn1 1_555 1_555
S1 O3 1_555 1_555
O4 S1 1_555 1_555
O5 S1 1_555 1_555
O6 S1 1_555 1_555
Zn1C O5 1_555 1_555
O5C Zn1 1_555 1_555
C4 C9 1_555 1_555
C8 C9 1_555 1_555
C16 N2 1_555 1_555
C17 C18 1_555 1_555

#END
