
#######################################################################
#
#                 Cambridge Crystallographic Data Centre
#                                CCDC 
#
#######################################################################
#
# If this CIF has been generated from an entry in the Cambridge 
# Structural Database, then it will include bibliographic, chemical, 
# crystal, experimental, refinement or atomic coordinate data resulting 
# from the CCDC's data processing and validation procedures.
#
#######################################################################

data_LIQCEV
_symmetry_cell_setting           triclinic
_symmetry_space_group_name_H-M   'P -1'
_symmetry_Int_Tables_number      2
_space_group_name_Hall           '-P 1'
loop_
_symmetry_equiv_pos_site_id
_symmetry_equiv_pos_as_xyz
1 x,y,z
2 -x,-y,-z
_cell_length_a                   10.847(2)
_cell_length_b                   10.8781(19)
_cell_length_c                   12.255(2)
_cell_angle_alpha                75.675(10)
_cell_angle_beta                 76.336(9)
_cell_angle_gamma                78.430(10)
_cell_volume                     1345.81
loop_
_atom_site_label
_atom_site_type_symbol
_atom_site_fract_x
_atom_site_fract_y
_atom_site_fract_z
Au1 Au 0.112710(14) 1.305735(12) 0.317710(12)
Gd1 Gd 0.204934(15) 0.806462(13) 0.249017(12)
O1 O 0.2696(2) 0.9821(2) 0.0855(2)
O2 O 0.3884(2) 0.9259(2) 0.2127(2)
O3 O 0.4232(3) 1.0888(3) 0.0745(3)
O4 O 0.3197(3) 0.6989(3) 0.4027(2)
O5 O 0.1204(3) 0.7610(3) 0.4594(2)
O6 O 0.2364(4) 0.6587(4) 0.5831(3)
N1 N -0.0213(3) 0.8666(2) 0.2235(2)
N2 N -0.1742(3) 0.9069(3) 0.1209(2)
N3 N 0.1637(3) 0.7750(2) 0.0606(2)
N4 N 0.3930(3) 0.6970(3) 0.1270(2)
N5 N 0.4961(3) 0.6559(3) -0.0445(2)
N6 N 0.1372(3) 0.5914(3) 0.2938(3)
N7 N 0.1312(3) 1.0185(3) 0.3108(3)
N8 N 0.3635(3) 1.0018(3) 0.1233(3)
N9 N 0.2249(4) 0.7055(3) 0.4857(3)
C1 C -0.1349(3) 0.9184(3) 0.2870(3)
C2 C -0.1611(4) 0.9488(4) 0.3954(3)
C3 C -0.2836(4) 1.0023(4) 0.4353(4)
C4 C -0.3794(4) 1.0283(4) 0.3698(4)
C5 C -0.3554(4) 0.9993(4) 0.2628(4)
C6 C -0.2314(3) 0.9448(3) 0.2229(3)
C7 C -0.0503(3) 0.8616(3) 0.1243(3)
C8 C 0.0467(3) 0.8129(3) 0.0341(3)
C9 C 0.0233(4) 0.8065(3) -0.0712(3)
C10 C 0.1223(4) 0.7612(4) -0.1496(3)
C11 C 0.2440(4) 0.7213(3) -0.1227(3)
C12 C 0.2597(3) 0.7304(3) -0.0165(3)
C13 C 0.3832(3) 0.6933(3) 0.0210(3)
C14 C 0.5883(3) 0.6354(3) 0.0218(3)
C15 C 0.7206(4) 0.5982(4) -0.0030(3)
C16 C 0.7853(4) 0.5889(4) 0.0834(4)
C17 C 0.7214(4) 0.6126(4) 0.1908(4)
C18 C 0.5908(4) 0.6492(4) 0.2151(3)
C19 C 0.5234(3) 0.6602(3) 0.1280(3)
C20 C 0.1207(4) 0.4890(3) 0.3071(3)
C21 C 0.1207(3) 1.1229(3) 0.3167(3)
H1 H -0.0980 0.9317 0.4381
H2 H -0.2150 0.9118 0.0590
H3 H -0.3038 1.0219 0.5080
H4 H -0.4626 1.0655 0.3993
H5 H -0.4191 1.0150 0.2193
H6 H 0.5097 0.6457 -0.1215
H7 H -0.0593 0.8331 -0.0867
H8 H 0.1092 0.7576 -0.2202
H9 H 0.3135 0.6884 -0.1747
H10 H 0.7635 0.5816 -0.0744
H11 H 0.8749 0.5657 0.0697
H12 H 0.7690 0.6023 0.2472
H13 H 0.5487 0.6661 0.2869
Au1_2 Au 0.112710(14) 0.305735(12) 0.317710(12)
C20_2 C 0.1207(4) 1.4890(3) 0.3071(3)
N10 N 0.4489(4) 0.3520(5) 0.2850(4)
C22 C 0.3704(9) 0.3506(7) 0.4987(5)
C23 C 0.4154(5) 0.3528(4) 0.3774(4)
H14 H 0.3903 0.2652 0.5403
H15 H 0.4134 0.4084 0.5186
H16 H 0.2792 0.3786 0.5114
loop_
_geom_bond_atom_site_label_1
_geom_bond_atom_site_label_2
_geom_bond_site_symmetry_1
_geom_bond_site_symmetry_2
Au1 C21 1_555 1_555
Gd1 O1 1_555 1_555
O1 N8 1_555 1_555
O2 Gd1 1_555 1_555
O3 N8 1_555 1_555
O4 Gd1 1_555 1_555
O5 Gd1 1_555 1_555
O6 N9 1_555 1_555
N1 Gd1 1_555 1_555
N2 C6 1_555 1_555
N3 Gd1 1_555 1_555
N4 Gd1 1_555 1_555
N5 C13 1_555 1_555
N6 Gd1 1_555 1_555
N7 Gd1 1_555 1_555
N8 O2 1_555 1_555
N9 O4 1_555 1_555
C1 N1 1_555 1_555
C2 C1 1_555 1_555
C3 C2 1_555 1_555
C4 C3 1_555 1_555
C5 C4 1_555 1_555
C6 C1 1_555 1_555
C7 N1 1_555 1_555
C8 N3 1_555 1_555
C9 C8 1_555 1_555
C10 C9 1_555 1_555
C11 C10 1_555 1_555
C12 N3 1_555 1_555
C13 N4 1_555 1_555
C14 N5 1_555 1_555
C15 C14 1_555 1_555
C16 C15 1_555 1_555
C17 C16 1_555 1_555
C18 C17 1_555 1_555
C19 N4 1_555 1_555
C20 N6 1_555 1_555
C21 N7 1_555 1_555
H1 C2 1_555 1_555
H2 N2 1_555 1_555
H3 C3 1_555 1_555
H4 C4 1_555 1_555
H5 C5 1_555 1_555
H6 N5 1_555 1_555
H7 C9 1_555 1_555
H8 C10 1_555 1_555
H9 C11 1_555 1_555
H10 C15 1_555 1_555
H11 C16 1_555 1_555
H12 C17 1_555 1_555
H13 C18 1_555 1_555
N10 C23 1_555 1_555
C22 C23 1_555 1_555
H14 C22 1_555 1_555
H15 C22 1_555 1_555
H16 C22 1_555 1_555
Au1_2 C20 1_555 1_555
C20_2 Au1 1_555 1_555
O5 N9 1_555 1_555
N2 C7 1_555 1_555
C5 C6 1_555 1_555
C7 C8 1_555 1_555
C11 C12 1_555 1_555
C12 C13 1_555 1_555
C14 C19 1_555 1_555
C18 C19 1_555 1_555

#END
