
#######################################################################
#
#                 Cambridge Crystallographic Data Centre
#                                CCDC 
#
#######################################################################
#
# If this CIF has been generated from an entry in the Cambridge 
# Structural Database, then it will include bibliographic, chemical, 
# crystal, experimental, refinement or atomic coordinate data resulting 
# from the CCDC's data processing and validation procedures.
#
#######################################################################

data_LIQCUK
_symmetry_cell_setting           rhombohedral
_symmetry_space_group_name_H-M   'R -3'
_symmetry_Int_Tables_number      148
_space_group_name_Hall           '-R 3'
loop_
_symmetry_equiv_pos_site_id
_symmetry_equiv_pos_as_xyz
1 x,y,z
2 -y,x-y,z
3 -x+y,-x,z
4 2/3+x,1/3+y,1/3+z
5 2/3-y,1/3+x-y,1/3+z
6 2/3-x+y,1/3-x,1/3+z
7 1/3+x,2/3+y,2/3+z
8 1/3-y,2/3+x-y,2/3+z
9 1/3-x+y,2/3-x,2/3+z
10 -x,-y,-z
11 y,-x+y,-z
12 x-y,x,-z
13 1/3-x,2/3-y,2/3-z
14 1/3+y,2/3-x+y,2/3-z
15 1/3+x-y,2/3+x,2/3-z
16 2/3-x,1/3-y,1/3-z
17 2/3+y,1/3-x+y,1/3-z
18 2/3+x-y,1/3+x,1/3-z
_cell_length_a                   30.1781(6)
_cell_length_b                   30.1781(6)
_cell_length_c                   9.8743(4)
_cell_angle_alpha                90
_cell_angle_beta                 90
_cell_angle_gamma                120.00
_cell_volume                     7787.91
loop_
_atom_site_label
_atom_site_type_symbol
_atom_site_fract_x
_atom_site_fract_y
_atom_site_fract_z
Ag1 Ag 0.302495(7) 0.030159(7) 0.066882(18)
S1 S 0.38736(2) 0.06810(2) 0.17669(5)
O1 O 0.46926(6) 0.04831(7) 0.26826(15)
O2 O 0.24429(7) -0.00846(8) 0.24670(18)
O3 O 0.24185(9) -0.03222(9) 0.4549(2)
O4 O 0.30156(7) 0.04267(8) 0.3898(2)
N1 N 0.49992(8) 0.04095(8) 0.06724(19)
N2 N 0.26287(9) 0.00095(9) 0.3651(2)
C1 C 0.46433(10) 0.16216(10) 0.2733(3)
H1 H 0.4897 0.1597 0.2148
H2 H 0.4619 0.1443 0.3595
C2 C 0.48214(13) 0.21863(11) 0.3019(3)
H3 H 0.4587 0.2209 0.3680
H4 H 0.5168 0.2353 0.3424
C3 C 0.48321(15) 0.24641(12) 0.1736(3)
H5 H 0.5090 0.2469 0.1107
H6 H 0.4933 0.2823 0.1954
C4 C 0.43102(14) 0.22050(11) 0.1049(3)
H7 H 0.4331 0.2386 0.0194
H8 H 0.4059 0.2228 0.1645
C5 C 0.41279(12) 0.16432(10) 0.0744(2)
H9 H 0.3779 0.1478 0.0356
H10 H 0.4358 0.1619 0.0069
C6 C 0.41255(9) 0.13668(9) 0.2036(2)
H11 H 0.3884 0.1396 0.2673
C7 C 0.43380(9) 0.06491(9) 0.0671(2)
H12 H 0.4155 0.0393 -0.0048
H13 H 0.4549 0.0985 0.0228
C8 C 0.46879(8) 0.05066(9) 0.1433(2)
C9 C 0.49939(10) 0.03903(10) -0.0813(2)
H14 H 0.5349 0.0579 -0.1160
H15 H 0.4807 0.0557 -0.1172
C10 C 0.52639(9) 0.01613(10) 0.1292(2)
H16 H 0.5245 0.0173 0.2291
H17 H 0.5629 0.0343 0.1022
Ag1I Ag 0.697505(7) -0.030159(7) -0.066882(18)
Ag1E Ag 0.394331(10) 0.030838(7) 0.400215(18)
Ag1N Ag 0.605669(10) -0.030838(7) -0.400215(18)
S1I S 0.61264(2) -0.06810(2) -0.17669(5)
S1G S 0.26523(2) -0.01407(3) -0.15664(5)
S1P S 0.73477(2) 0.01407(3) 0.15664(5)
O1I O 0.53074(6) -0.04831(7) -0.26826(15)
O1G O 0.28502(7) 0.08762(9) -0.06507(15)
O1P O 0.71498(7) -0.08762(9) 0.06507(15)
O2I O 0.75571(7) 0.00846(8) -0.24670(18)
O3I O 0.75815(9) 0.03222(9) -0.4549(2)
O4I O 0.69844(7) -0.04267(8) -0.3898(2)
N1I N 0.50008(8) -0.04095(8) -0.06724(19)
N2I N 0.73713(9) -0.00095(9) -0.3651(2)
C1I C 0.53567(10) -0.16216(10) -0.2733(3)
H1I H 0.5103 -0.1597 -0.2148
H2I H 0.5381 -0.1443 -0.3595
C2I C 0.51786(13) -0.21863(11) -0.3019(3)
H3I H 0.5413 -0.2209 -0.3680
H4I H 0.4832 -0.2353 -0.3424
C3I C 0.51679(15) -0.24641(12) -0.1736(3)
H5I H 0.4910 -0.2469 -0.1107
H6I H 0.5067 -0.2823 -0.1954
C4I C 0.56898(14) -0.22050(11) -0.1049(3)
H7I H 0.5669 -0.2386 -0.0194
H8I H 0.5941 -0.2228 -0.1645
C5I C 0.58721(12) -0.16432(10) -0.0744(2)
H9I H 0.6221 -0.1478 -0.0356
H10I H 0.5642 -0.1619 -0.0069
C6I C 0.58745(9) -0.13668(9) -0.2036(2)
H11I H 0.6116 -0.1396 -0.2673
C7I C 0.56620(9) -0.06491(9) -0.0671(2)
H12I H 0.5845 -0.0393 0.0048
H13I H 0.5451 -0.0985 -0.0228
C8I C 0.53121(8) -0.05066(9) -0.1433(2)
C9I C 0.50061(10) -0.03903(10) 0.0813(2)
H14I H 0.4651 -0.0579 0.1160
H15I H 0.5193 -0.0557 0.1172
C10I C 0.47361(9) -0.01613(10) -0.1292(2)
H16I H 0.4755 -0.0173 -0.2291
H17I H 0.4371 -0.0343 -0.1022
loop_
_geom_bond_atom_site_label_1
_geom_bond_atom_site_label_2
_geom_bond_site_symmetry_1
_geom_bond_site_symmetry_2
Ag1 S1 1_555 1_555
S1 C6 1_555 1_555
O1 C8 1_555 1_555
O2 Ag1 1_555 1_555
O3 N2 1_555 1_555
O4 N2 1_555 1_555
N1 C8 1_555 1_555
N2 O2 1_555 1_555
C1 H1 1_555 1_555
H2 C1 1_555 1_555
C2 C1 1_555 1_555
H3 C2 1_555 1_555
H4 C2 1_555 1_555
C3 C2 1_555 1_555
H5 C3 1_555 1_555
H6 C3 1_555 1_555
C4 C3 1_555 1_555
H7 C4 1_555 1_555
H8 C4 1_555 1_555
C5 C4 1_555 1_555
H9 C5 1_555 1_555
H10 C5 1_555 1_555
C6 C1 1_555 1_555
H11 C6 1_555 1_555
C7 S1 1_555 1_555
H12 C7 1_555 1_555
H13 C7 1_555 1_555
C8 C7 1_555 1_555
C9 N1 1_555 1_555
H14 C9 1_555 1_555
H15 C9 1_555 1_555
C10 N1 1_555 1_555
H16 C10 1_555 1_555
H17 C10 1_555 1_555
Ag1I S1I 1_555 1_555
Ag1E S1 1_555 1_555
Ag1N S1I 1_555 1_555
S1I C6I 1_555 1_555
S1G Ag1 1_555 1_555
S1P Ag1I 1_555 1_555
O1I Ag1N 1_555 1_555
O1G Ag1 1_555 1_555
O1P Ag1I 1_555 1_555
O2I Ag1I 1_555 1_555
O3I N2I 1_555 1_555
O4I N2I 1_555 1_555
N1I C8I 1_555 1_555
N2I O2I 1_555 1_555
C1I H1I 1_555 1_555
H2I C1I 1_555 1_555
C2I C1I 1_555 1_555
H3I C2I 1_555 1_555
H4I C2I 1_555 1_555
C3I C2I 1_555 1_555
H5I C3I 1_555 1_555
H6I C3I 1_555 1_555
C4I C3I 1_555 1_555
H7I C4I 1_555 1_555
H8I C4I 1_555 1_555
C5I C4I 1_555 1_555
H9I C5I 1_555 1_555
H10I C5I 1_555 1_555
C6I C1I 1_555 1_555
H11I C6I 1_555 1_555
C7I S1I 1_555 1_555
H12I C7I 1_555 1_555
H13I C7I 1_555 1_555
C8I O1I 1_555 1_555
C9I C10 1_555 1_555
H14I C9I 1_555 1_555
H15I C9I 1_555 1_555
C10I C9 1_555 1_555
H16I C10I 1_555 1_555
H17I C10I 1_555 1_555
O1 Ag1E 1_555 1_555
C5 C6 1_555 1_555
N1I C9I 1_555 1_555
N1I C10I 1_555 1_555
C5I C6I 1_555 1_555
C7I C8I 1_555 1_555

#END
