
#######################################################################
#
#                 Cambridge Crystallographic Data Centre
#                                CCDC 
#
#######################################################################
#
# If this CIF has been generated from an entry in the Cambridge 
# Structural Database, then it will include bibliographic, chemical, 
# crystal, experimental, refinement or atomic coordinate data resulting 
# from the CCDC's data processing and validation procedures.
#
#######################################################################

data_LIQJEC
_symmetry_cell_setting           monoclinic
_symmetry_space_group_name_H-M   'C c'
_symmetry_Int_Tables_number      9
_space_group_name_Hall           'C -2yc'
loop_
_symmetry_equiv_pos_site_id
_symmetry_equiv_pos_as_xyz
1 x,y,z
2 x,-y,1/2+z
3 1/2+x,1/2+y,z
4 1/2+x,1/2-y,1/2+z
_cell_length_a                   35.209(5)
_cell_length_b                   14.870(2)
_cell_length_c                   30.659(5)
_cell_angle_alpha                90
_cell_angle_beta                 101.402(2)
_cell_angle_gamma                90
_cell_volume                     15735
loop_
_atom_site_label
_atom_site_type_symbol
_atom_site_fract_x
_atom_site_fract_y
_atom_site_fract_z
I1 I 0.34282(13) -0.6641(2) 0.75273(13)
Zn1 Zn 0.38896(19) -0.6426(3) 0.8273(2)
I2 I 0.44986(12) -0.7327(2) 0.85063(13)
N1 N 0.3990(8) -0.5030(16) 0.8326(9)
C1 C 0.4279(9) -0.4686(15) 0.8635(10)
H1 H 0.4414 -0.5069 0.8861
C2 C 0.4385(8) -0.3792(15) 0.8632(11)
H2 H 0.4628 -0.3584 0.8792
C3 C 0.4122(8) -0.3221(13) 0.8388(10)
C4 C 0.3815(9) -0.3550(15) 0.8073(10)
H3 H 0.3643 -0.3158 0.7884
C5 C 0.3771(8) -0.4464(15) 0.8045(10)
H4 H 0.3575 -0.4707 0.7817
C6 C 0.4190(9) -0.2236(13) 0.8351(10)
N2 N 0.4495(9) -0.1868(14) 0.8636(9)
C7 C 0.4541(10) -0.0993(14) 0.8589(10)
N3 N 0.4368(8) -0.0489(16) 0.8250(8)
C8 C 0.4040(10) -0.0895(14) 0.8044(11)
N4 N 0.3944(7) -0.1763(14) 0.8046(8)
N5 N 0.5472(8) 0.0317(16) 0.9475(10)
C9 C 0.5255(9) 0.0756(19) 0.9112(14)
H5 H 0.5336 0.1313 0.9009
C10 C 0.4918(9) 0.0350(16) 0.8908(13)
H6 H 0.4713 0.0716 0.8758
C11 C 0.4864(10) -0.0569(16) 0.8912(12)
C12 C 0.5151(10) -0.104(2) 0.9218(12)
H7 H 0.5147 -0.1681 0.9225
C13 C 0.5434(10) -0.0584(18) 0.9504(12)
H8 H 0.5607 -0.0906 0.9727
N6 N 0.3371(7) 0.0545(15) 0.6984(9)
C14 C 0.3295(9) -0.0283(16) 0.7108(10)
H9 H 0.3074 -0.0563 0.6933
C15 C 0.3492(8) -0.0783(18) 0.7451(10)
H10 H 0.3420 -0.1373 0.7520
C16 C 0.3807(8) -0.0336(14) 0.7686(9)
C17 C 0.3878(9) 0.0527(15) 0.7562(9)
H11 H 0.4088 0.0844 0.7740
C18 C 0.3668(9) 0.0958(19) 0.7200(9)
H12 H 0.3739 0.1537 0.7113
I3 I 0.56809(14) 0.0945(4) 1.06387(15)
Zn2 Zn 0.59098(17) 0.0985(3) 0.9918(2)
I4 I 0.60839(16) 0.2389(2) 0.9549(2)
I5 I 0.23778(10) 0.1547(2) 0.68856(11)
Zn3 Zn 0.29451(14) 0.1264(3) 0.65153(14)
I6 I 0.33106(11) 0.23973(18) 0.61435(10)
N7 N 0.2789(7) 0.0217(18) 0.6027(9)
C19 C 0.3085(9) -0.0071(19) 0.5854(10)
H13 H 0.3321 0.0259 0.5902
C20 C 0.3049(11) -0.0844(19) 0.5607(11)
H14 H 0.3263 -0.1057 0.5491
C21 C 0.2704(11) -0.1317(18) 0.5524(12)
C22 C 0.2431(11) -0.112(2) 0.5795(12)
H15 H 0.2215 -0.1499 0.5801
C23 C 0.2496(8) -0.0356(17) 0.6048(11)
H16 H 0.2328 -0.0223 0.6247
C24 C 0.2659(8) -0.2152(17) 0.5254(10)
N8 N 0.2886(8) -0.2187(17) 0.4957(9)
C25 C 0.2835(9) -0.294(2) 0.4699(11)
N9 N 0.2550(8) -0.3513(18) 0.4711(10)
C26 C 0.2309(8) -0.336(2) 0.4985(11)
N10 N 0.2355(7) -0.2665(16) 0.5288(8)
N11 N 0.3571(10) -0.333(2) 0.3751(10)
C27 C 0.3236(10) -0.374(3) 0.3755(12)
H17 H 0.3182 -0.4251 0.3563
C28 C 0.2954(9) -0.354(2) 0.3997(11)
H18 H 0.2691 -0.3718 0.3912
C29 C 0.3095(9) -0.305(2) 0.4377(10)
C30 C 0.3435(10) -0.258(2) 0.4415(12)
H19 H 0.3509 -0.2114 0.4628
C31 C 0.3661(10) -0.284(3) 0.4119(11)
H20 H 0.3922 -0.2638 0.4187
N12 N 0.1378(8) -0.5110(16) 0.4924(8)
C32 C 0.1521(9) -0.4706(18) 0.5312(8)
H21 H 0.1418 -0.4849 0.5568
C33 C 0.1818(9) -0.4086(18) 0.5346(9)
H22 H 0.1904 -0.3753 0.5611
C34 C 0.1976(9) -0.3975(19) 0.4992(10)
C35 C 0.1832(9) -0.436(2) 0.4583(8)
H23 H 0.1945 -0.4247 0.4331
C36 C 0.1518(9) -0.492(2) 0.4558(9)
H24 H 0.1399 -0.5170 0.4280
Zn1A Zn 0.38896(19) -0.3574(3) 0.3273(2)
Zn2C Zn 0.09098(17) -0.5985(3) 0.4918(2)
N11A N 0.3571(10) -0.667(2) 0.8751(10)
N12C N 0.6378(8) 0.0110(16) 0.9924(8)
I7 I -0.01973(14) 0.7316(2) 0.25520(16)
Zn4 Zn 0.04280(19) 0.6442(3) 0.2798(2)
I8 I 0.08795(14) 0.6656(2) 0.35522(12)
N13 N 0.0306(8) 0.5079(15) 0.2721(10)
C37 C 0.0566(9) 0.4521(15) 0.2949(12)
H25 H 0.0806 0.4749 0.3109
C38 C 0.0492(9) 0.3617(15) 0.2956(12)
H26 H 0.0679 0.3243 0.3136
C39 C 0.0165(9) 0.3220(14) 0.2719(11)
C40 C -0.0054(9) 0.3801(18) 0.2431(12)
H27 H -0.0237 0.3566 0.2188
C41 C -0.0017(9) 0.4738(17) 0.2482(11)
H28 H -0.0222 0.5123 0.2346
C42 C 0.0096(9) 0.2227(14) 0.2696(10)
N14 N 0.0335(7) 0.1786(14) 0.3010(8)
C43 C 0.0263(9) 0.0928(14) 0.3063(9)
N15 N -0.0031(7) 0.0506(15) 0.2796(8)
C44 C -0.0253(8) 0.1000(16) 0.2485(10)
N16 N -0.0193(8) 0.1887(16) 0.2396(9)
N17 N 0.1002(7) -0.0591(13) 0.4088(7)
C45 C 0.0684(7) -0.0923(18) 0.3833(8)
H29 H 0.0627 -0.1537 0.3875
C46 C 0.0428(8) -0.0462(15) 0.3512(9)
H30 H 0.0207 -0.0753 0.3342
C47 C 0.0500(8) 0.0431(14) 0.3447(8)
C48 C 0.0839(10) 0.076(2) 0.3715(11)
H31 H 0.0904 0.1366 0.3675
C49 C 0.1085(9) 0.0274(15) 0.4028(10)
H32 H 0.1310 0.0546 0.4199
N18 N -0.1195(9) -0.0359(18) 0.1647(9)
C50 C -0.1067(9) 0.0451(18) 0.1550(10)
H33 H -0.1176 0.0703 0.1268
C51 C -0.0788(9) 0.0946(17) 0.1827(10)
H34 H -0.0743 0.1560 0.1768
C52 C -0.0581(9) 0.0520(16) 0.2189(10)
C53 C -0.0665(9) -0.0356(16) 0.2270(8)
H35 H -0.0532 -0.0666 0.2526
C54 C -0.0949(9) -0.0766(17) 0.1965(10)
H36 H -0.0971 -0.1401 0.1985
I9 I -0.17939(15) -0.2398(2) 0.15932(14)
Zn5 Zn -0.15947(18) -0.1012(3) 0.11956(19)
I10 I -0.13773(14) -0.1012(3) 0.04650(15)
I11 I 0.10167(10) -0.23946(18) 0.49500(10)
Zn6 Zn 0.13820(14) -0.1254(3) 0.45737(14)
I12 I 0.19496(10) -0.1526(2) 0.41946(10)
N19 N 0.1495(7) -0.0188(18) 0.4998(7)
C55 C 0.1820(9) 0.029(2) 0.5030(10)
H37 H 0.2018 0.0112 0.4878
C56 C 0.1862(10) 0.109(2) 0.5299(11)
H38 H 0.2071 0.1486 0.5284
C57 C 0.1626(9) 0.1297(18) 0.5562(10)
C58 C 0.1355(9) 0.0666(16) 0.5611(9)
H39 H 0.1188 0.0757 0.5816
C59 C 0.1328(9) -0.0099(18) 0.5358(8)
H40 H 0.1186 -0.0593 0.5439
C60 C 0.1663(9) 0.2102(17) 0.5859(9)
N20 N 0.1936(7) 0.2702(17) 0.5824(8)
C61 C 0.1981(8) 0.339(2) 0.6086(12)
N21 N 0.1775(9) 0.3529(19) 0.6401(10)
C62 C 0.1484(8) 0.298(2) 0.6399(9)
N22 N 0.1413(8) 0.2231(17) 0.6147(8)
N23 N 0.2957(7) 0.5133(16) 0.6081(8)
C63 C 0.2790(7) 0.5073(16) 0.6428(9)
H41 H 0.2892 0.5428 0.6682
C64 C 0.2480(7) 0.4536(18) 0.6445(9)
H42 H 0.2374 0.4533 0.6707
C65 C 0.2319(8) 0.4000(18) 0.6093(9)
C66 C 0.2482(9) 0.4084(19) 0.5726(9)
H43 H 0.2371 0.3777 0.5459
C67 C 0.2811(8) 0.4622(18) 0.5739(8)
H44 H 0.2934 0.4616 0.5490
N24 N 0.0753(7) 0.3395(19) 0.7307(9)
C68 C 0.0639(9) 0.282(2) 0.6974(9)
H45 H 0.0410 0.2470 0.6955
C69 C 0.0867(9) 0.274(2) 0.6657(9)
H46 H 0.0773 0.2419 0.6389
C70 C 0.1230(8) 0.312(2) 0.6728(9)
C71 C 0.1318(9) 0.373(2) 0.7067(10)
H47 H 0.1518 0.4163 0.7068
C72 C 0.1114(9) 0.372(3) 0.7408(9)
H48 H 0.1224 0.3925 0.7699
Zn4A Zn 0.04280(19) 0.3558(3) 0.7798(2)
Zn5C Zn 0.34053(18) 0.6012(3) 0.61956(19)
N23C N -0.2043(7) -0.0133(16) 0.1081(8)
N24A N 0.0753(7) 0.6605(19) 0.2307(9)
C73 C 0.2745(10) 0.281(2) 0.4578(11)
O1 O 0.2574(9) 0.279(2) 0.4109(11)
O2 O 0.2774(10) 0.377(2) 0.4683(11)
O3 O 0.3142(10) 0.252(2) 0.4610(11)
C74 C 0.3385(12) 0.298(3) 0.4343(14)
H49 H 0.3652 0.2721 0.4391
C75 C 0.3384(12) 0.394(3) 0.4528(18)
H50 H 0.3480 0.3924 0.4854
H51 H 0.3563 0.4317 0.4395
C76 C 0.2984(12) 0.435(3) 0.4428(15)
H52 H 0.2988 0.4988 0.4531
C77 C 0.2739(17) 0.424(3) 0.3959(14)
H53 H 0.2835 0.4654 0.3753
H54 H 0.2467 0.4396 0.3962
C78 C 0.2757(13) 0.327(3) 0.3792(11)
C79 C 0.3155(13) 0.279(4) 0.3872(13)
H55 H 0.3117 0.2139 0.3830
H56 H 0.3305 0.3011 0.3651
C80 C 0.2460(12) 0.323(4) 0.3347(17)
H57 H 0.2541 0.3654 0.3129
C81 C 0.2044(13) 0.343(3) 0.338(2)
H58 H 0.2022 0.3677 0.3682
C82 C 0.1823(13) 0.257(3) 0.328(2)
C83 C 0.2118(15) 0.182(3) 0.330(2)
H59 H 0.2018 0.1340 0.3084
H60 H 0.2181 0.1564 0.3600
C84 C 0.2477(16) 0.226(4) 0.318(3)
H61 H 0.2464 0.2251 0.2851
H62 H 0.2717 0.1955 0.3327
O4 O 0.1497(12) 0.245(4) 0.335(2)
C85 C 0.1815(14) 0.398(3) 0.2995(18)
H63 H 0.1854 0.3683 0.2714
O5 O 0.1418(13) 0.390(5) 0.301(2)
H64 H 0.1386 0.3986 0.3268
C86 C 0.1980(12) 0.492(3) 0.2997(14)
C87 C 0.2247(13) 0.519(3) 0.2746(14)
H65 H 0.2330 0.4741 0.2566
C88 C 0.2408(14) 0.604(3) 0.2725(15)
H66 H 0.2591 0.6178 0.2546
C89 C 0.2271(14) 0.666(3) 0.2995(15)
H67 H 0.2372 0.7253 0.2994
C90 C 0.2002(15) 0.651(3) 0.3265(16)
H68 H 0.1912 0.6971 0.3436
C91 C 0.1880(14) 0.562(3) 0.3259(16)
H69 H 0.1711 0.5470 0.3454
C92 C 0.2512(16) 0.228(4) 0.4863(17)
H70 H 0.2251 0.2534 0.4829
H71 H 0.2643 0.2308 0.5176
H72 H 0.2493 0.1649 0.4765
loop_
_geom_bond_atom_site_label_1
_geom_bond_atom_site_label_2
_geom_bond_site_symmetry_1
_geom_bond_site_symmetry_2
I1 Zn1 1_555 1_555
Zn1 I2 1_555 1_555
N1 Zn1 1_555 1_555
C1 N1 1_555 1_555
H1 C1 1_555 1_555
C2 C1 1_555 1_555
H2 C2 1_555 1_555
C3 C2 1_555 1_555
C4 C3 1_555 1_555
H3 C4 1_555 1_555
C5 N1 1_555 1_555
H4 C5 1_555 1_555
C6 C3 1_555 1_555
N2 C6 1_555 1_555
C7 N2 1_555 1_555
N3 C7 1_555 1_555
C8 N3 1_555 1_555
N4 C6 1_555 1_555
N5 C9 1_555 1_555
C9 H5 1_555 1_555
C10 C9 1_555 1_555
H6 C10 1_555 1_555
C11 C7 1_555 1_555
C12 C11 1_555 1_555
H7 C12 1_555 1_555
C13 N5 1_555 1_555
H8 C13 1_555 1_555
N6 C14 1_555 1_555
C14 H9 1_555 1_555
C15 C14 1_555 1_555
H10 C15 1_555 1_555
C16 C8 1_555 1_555
C17 C16 1_555 1_555
H11 C17 1_555 1_555
C18 N6 1_555 1_555
H12 C18 1_555 1_555
I3 Zn2 1_555 1_555
Zn2 N5 1_555 1_555
I4 Zn2 1_555 1_555
I5 Zn3 1_555 1_555
Zn3 N6 1_555 1_555
I6 Zn3 1_555 1_555
N7 Zn3 1_555 1_555
C19 N7 1_555 1_555
H13 C19 1_555 1_555
C20 C19 1_555 1_555
H14 C20 1_555 1_555
C21 C20 1_555 1_555
C22 C21 1_555 1_555
H15 C22 1_555 1_555
C23 N7 1_555 1_555
H16 C23 1_555 1_555
C24 C21 1_555 1_555
N8 C24 1_555 1_555
C25 N8 1_555 1_555
N9 C25 1_555 1_555
C26 N9 1_555 1_555
N10 C24 1_555 1_555
N11 C27 1_555 1_555
C27 H17 1_555 1_555
C28 C27 1_555 1_555
H18 C28 1_555 1_555
C29 C25 1_555 1_555
C30 C29 1_555 1_555
H19 C30 1_555 1_555
C31 N11 1_555 1_555
H20 C31 1_555 1_555
N12 C32 1_555 1_555
C32 H21 1_555 1_555
C33 C32 1_555 1_555
H22 C33 1_555 1_555
C34 C26 1_555 1_555
C35 C34 1_555 1_555
H23 C35 1_555 1_555
C36 N12 1_555 1_555
H24 C36 1_555 1_555
I7 Zn4 1_555 1_555
Zn4 I8 1_555 1_555
N13 Zn4 1_555 1_555
C37 N13 1_555 1_555
H25 C37 1_555 1_555
C38 C37 1_555 1_555
H26 C38 1_555 1_555
C39 C38 1_555 1_555
C40 C39 1_555 1_555
H27 C40 1_555 1_555
C41 N13 1_555 1_555
H28 C41 1_555 1_555
C42 C39 1_555 1_555
N14 C42 1_555 1_555
C43 N14 1_555 1_555
N15 C43 1_555 1_555
C44 N15 1_555 1_555
N16 C42 1_555 1_555
N17 C45 1_555 1_555
C45 H29 1_555 1_555
C46 C45 1_555 1_555
H30 C46 1_555 1_555
C47 C43 1_555 1_555
C48 C47 1_555 1_555
H31 C48 1_555 1_555
C49 N17 1_555 1_555
H32 C49 1_555 1_555
N18 C50 1_555 1_555
C50 H33 1_555 1_555
C51 C50 1_555 1_555
H34 C51 1_555 1_555
C52 C44 1_555 1_555
C53 C52 1_555 1_555
H35 C53 1_555 1_555
C54 N18 1_555 1_555
H36 C54 1_555 1_555
I9 Zn5 1_555 1_555
Zn5 N18 1_555 1_555
I10 Zn5 1_555 1_555
I11 Zn6 1_555 1_555
Zn6 N17 1_555 1_555
I12 Zn6 1_555 1_555
N19 Zn6 1_555 1_555
C55 N19 1_555 1_555
H37 C55 1_555 1_555
C56 C55 1_555 1_555
H38 C56 1_555 1_555
C57 C56 1_555 1_555
C58 C57 1_555 1_555
H39 C58 1_555 1_555
C59 N19 1_555 1_555
H40 C59 1_555 1_555
C60 C57 1_555 1_555
N20 C60 1_555 1_555
C61 N20 1_555 1_555
N21 C61 1_555 1_555
C62 N21 1_555 1_555
N22 C60 1_555 1_555
N23 C63 1_555 1_555
C63 H41 1_555 1_555
C64 C63 1_555 1_555
H42 C64 1_555 1_555
C65 C61 1_555 1_555
C66 C65 1_555 1_555
H43 C66 1_555 1_555
C67 N23 1_555 1_555
H44 C67 1_555 1_555
N24 C68 1_555 1_555
C68 H45 1_555 1_555
C69 C68 1_555 1_555
H46 C69 1_555 1_555
C70 C62 1_555 1_555
C71 C70 1_555 1_555
H47 C71 1_555 1_555
C72 N24 1_555 1_555
H48 C72 1_555 1_555
C73 O1 1_555 1_555
O1 C78 1_555 1_555
O2 C73 1_555 1_555
O3 C73 1_555 1_555
C74 O3 1_555 1_555
H49 C74 1_555 1_555
C75 C74 1_555 1_555
H50 C75 1_555 1_555
H51 C75 1_555 1_555
C76 O2 1_555 1_555
H52 C76 1_555 1_555
C77 C76 1_555 1_555
H53 C77 1_555 1_555
H54 C77 1_555 1_555
C78 C77 1_555 1_555
C79 C74 1_555 1_555
H55 C79 1_555 1_555
H56 C79 1_555 1_555
C80 C78 1_555 1_555
H57 C80 1_555 1_555
C81 C80 1_555 1_555
H58 C81 1_555 1_555
C82 C81 1_555 1_555
C83 C82 1_555 1_555
H59 C83 1_555 1_555
H60 C83 1_555 1_555
C84 C80 1_555 1_555
H61 C84 1_555 1_555
H62 C84 1_555 1_555
O4 C82 1_555 1_555
C85 C81 1_555 1_555
H63 C85 1_555 1_555
O5 C85 1_555 1_555
H64 O5 1_555 1_555
C86 C85 1_555 1_555
C87 C86 1_555 1_555
H65 C87 1_555 1_555
C88 C87 1_555 1_555
H66 C88 1_555 1_555
C89 C88 1_555 1_555
H67 C89 1_555 1_555
C90 C89 1_555 1_555
H68 C90 1_555 1_555
C91 C86 1_555 1_555
H69 C91 1_555 1_555
C92 C73 1_555 1_555
H70 C92 1_555 1_555
H71 C92 1_555 1_555
H72 C92 1_555 1_555
Zn1A N11 1_555 1_555
Zn2C N12 1_555 1_555
N11A Zn1 1_555 1_555
N12C Zn2 1_555 1_555
Zn4A N24 1_555 1_555
Zn5C N23 1_555 1_555
N23C Zn5 1_555 1_555
N24A Zn4 1_555 1_555
C4 C5 1_555 1_555
C8 N4 1_555 1_555
C10 C11 1_555 1_555
C12 C13 1_555 1_555
C15 C16 1_555 1_555
C17 C18 1_555 1_555
C22 C23 1_555 1_555
C26 N10 1_555 1_555
C28 C29 1_555 1_555
C30 C31 1_555 1_555
C33 C34 1_555 1_555
C35 C36 1_555 1_555
C40 C41 1_555 1_555
C44 N16 1_555 1_555
C46 C47 1_555 1_555
C48 C49 1_555 1_555
C51 C52 1_555 1_555
C53 C54 1_555 1_555
C58 C59 1_555 1_555
C62 N22 1_555 1_555
C64 C65 1_555 1_555
C66 C67 1_555 1_555
C69 C70 1_555 1_555
C71 C72 1_555 1_555
C75 C76 1_555 1_555
C78 C79 1_555 1_555
C83 C84 1_555 1_555
C90 C91 1_555 1_555

#END
