
#######################################################################
#
#                 Cambridge Crystallographic Data Centre
#                                CCDC 
#
#######################################################################
#
# If this CIF has been generated from an entry in the Cambridge 
# Structural Database, then it will include bibliographic, chemical, 
# crystal, experimental, refinement or atomic coordinate data resulting 
# from the CCDC's data processing and validation procedures.
#
#######################################################################

data_LIQJAW
_symmetry_cell_setting           orthorhombic
_symmetry_space_group_name_H-M   'P 21 21 21'
_symmetry_Int_Tables_number      19
_space_group_name_Hall           'P 2ac 2ab'
loop_
_symmetry_equiv_pos_site_id
_symmetry_equiv_pos_as_xyz
1 x,y,z
2 1/2-x,-y,1/2+z
3 1/2+x,1/2-y,-z
4 -x,1/2+y,1/2-z
_cell_length_a                   23.072(4)
_cell_length_b                   9.739(2)
_cell_length_c                   7.413(2)
_cell_angle_alpha                90
_cell_angle_beta                 90
_cell_angle_gamma                90
_cell_volume                     1665.69
loop_
_atom_site_label
_atom_site_type_symbol
_atom_site_fract_x
_atom_site_fract_y
_atom_site_fract_z
Zn1 Zn -0.9261(1) -0.3805(2) -0.0805(2)
S1 S -0.8299(1) 0.0294(3) 0.3185(4)
O1 O -0.7769(3) -0.0283(8) 0.3891(13)
O2 O -0.8848(4) -0.0206(9) 0.3852(12)
O3 O -0.8806(3) -0.2160(8) -0.0408(12)
O4 O -0.9603(4) -0.1007(10) -0.1087(16)
O5 O -0.8687(3) 0.4744(9) -0.1018(15)
O6 O -0.9390(3) 0.3191(8) -0.1190(12)
N1 N -0.8288(4) 0.0056(9) 0.1041(14)
C1 C -0.9098(5) -0.1040(11) -0.0603(17)
C2 C -0.8789(4) 0.0305(11) -0.0087(16)
C3 C -0.8601(4) 0.1011(11) -0.1859(15)
C4 C -0.8400(5) 0.2479(11) -0.1540(17)
C5 C -0.8871(5) 0.3514(12) -0.1258(17)
C6 C -0.8306(5) 0.2071(12) 0.3563(14)
C7 C -0.8804(5) 0.2748(13) 0.3883(19)
C8 C -0.8799(5) 0.4162(12) 0.4162(21)
C9 C -0.8273(6) 0.4865(13) 0.4102(21)
C10 C -0.7770(6) 0.4191(13) 0.3814(21)
C11 C -0.7770(5) 0.2771(13) 0.3546(19)
C12 C -0.8264(8) 0.6442(14) 0.4370(33)
O7 O -0.9825(3) -0.3826(10) -0.2794(13)
O8 O -0.9741(4) -0.3934(11) 0.1456(13)
O5_2 O -0.8687(3) -0.5256(9) -0.1018(15)
Zn1_2 Zn -0.9261(1) 0.6195(2) -0.0805(2)
O9 O -0.9854(4) -0.1651(9) 0.3381(14)
loop_
_geom_bond_atom_site_label_1
_geom_bond_atom_site_label_2
_geom_bond_site_symmetry_1
_geom_bond_site_symmetry_2
Zn1 O3 1_555 1_555
S1 O1 1_555 1_555
O2 S1 1_555 1_555
O3 C1 1_555 1_555
O4 C1 1_555 1_555
O5 C5 1_555 1_555
O6 C5 1_555 1_555
N1 S1 1_555 1_555
C1 C2 1_555 1_555
C2 N1 1_555 1_555
C3 C2 1_555 1_555
C4 C3 1_555 1_555
C5 C4 1_555 1_555
C6 S1 1_555 1_555
C7 C6 1_555 1_555
C8 C7 1_555 1_555
C9 C8 1_555 1_555
C10 C9 1_555 1_555
C11 C6 1_555 1_555
C12 C9 1_555 1_555
O7 Zn1 1_555 1_555
O8 Zn1 1_555 1_555
O5_2 Zn1 1_555 1_555
Zn1_2 O5 1_555 1_555
C10 C11 1_555 1_555

#END
