
#######################################################################
#
#                 Cambridge Crystallographic Data Centre
#                                CCDC 
#
#######################################################################
#
# If this CIF has been generated from an entry in the Cambridge 
# Structural Database, then it will include bibliographic, chemical, 
# crystal, experimental, refinement or atomic coordinate data resulting 
# from the CCDC's data processing and validation procedures.
#
#######################################################################

data_LIQJEA
_symmetry_cell_setting           monoclinic
_symmetry_space_group_name_H-M   'P 21'
_symmetry_Int_Tables_number      4
_space_group_name_Hall           'P 2yb'
loop_
_symmetry_equiv_pos_site_id
_symmetry_equiv_pos_as_xyz
1 x,y,z
2 -x,1/2+y,-z
_cell_length_a                   7.408(2)
_cell_length_b                   13.916(3)
_cell_length_c                   15.263(3)
_cell_angle_alpha                90
_cell_angle_beta                 99.9(1)
_cell_angle_gamma                90
_cell_volume                     1550.03
loop_
_atom_site_label
_atom_site_type_symbol
_atom_site_fract_x
_atom_site_fract_y
_atom_site_fract_z
Cd1 Cd -0.2473(1) -0.4986 0.4057
S1 S 0.0776(3) -0.3328(2) 0.7586(2)
O1 O 0.1425(9) -0.4253(6) 0.7443(4)
O2 O 0.2014(10) -0.2519(5) 0.7599(5)
O3 O -0.1998(9) -0.4023(5) 0.5280(4)
O4 O -0.4686(9) -0.4459(5) 0.5624(5)
O5 O -0.4629(9) -0.0448(5) 0.6205(5)
O6 O -0.2196(10) -0.1203(5) 0.6945(5)
N1 N -0.0944(11) -0.3051(7) 0.6812(6)
C1 C -0.3153(14) -0.4062(8) 0.5804(6)
C2 C -0.2650(12) -0.3621(7) 0.6726(7)
C3 C -0.4207(14) -0.3008(7) 0.6984(7)
C4 C -0.4849(15) -0.2135(8) 0.6374(8)
C5 C -0.3773(13) -0.1217(7) 0.6534(7)
C6 C -0.0018(13) -0.3327(8) 0.8624(7)
C7 C -0.0220(14) -0.4174(10) 0.9048(7)
C8 C -0.0806(17) -0.4147(13) 0.9874(8)
C9 C -0.1301(17) -0.3298(12) 1.0231(8)
C10 C -0.1126(19) -0.2468(12) 0.9756(10)
C11 C -0.0463(18) -0.2458(10) 0.8956(8)
C12 C -0.2015(22) -0.3236(17) 1.1089(9)
Cd2 Cd -0.6861(1) -0.4221(1) 0.4360
S2 S -0.6881(4) -0.1570(2) 0.2083(2)
O7 O -0.7228(12) -0.2578(7) 0.1919(6)
O8 O -0.8368(11) -0.0978(8) 0.2257(6)
O9 O -0.2697(10) -0.3605(5) 0.3265(5)
O10 O -0.5129(10) -0.3091(6) 0.3842(6)
O11 O -0.9240(8) -0.5126(5) 0.4584(4)
O12 O 0.1050(9) -0.1265(5) 0.5129(5)
N2 N -0.5239(12) -0.1396(7) 0.2901(7)
C13 C -0.3850(14) -0.2972(7) 0.3406(7)
C14 C -0.3582(14) -0.1996(8) 0.2990(7)
C15 C -0.1962(14) -0.1484(8) 0.3547(7)
C16 C -0.2122(13) -0.1442(8) 0.4551(7)
C17 C -0.0521(14) -0.0926(7) 0.5054(7)
C18 C -0.6035(16) -0.1143(9) 0.1142(8)
C19 C -0.6326(18) -0.1655(10) 0.0368(8)
C20 C -0.5748(18) -0.1291(12) -0.0406(9)
C21 C -0.4797(17) -0.0431(11) -0.0366(10)
C22 C -0.4494(16) 0.0054(12) 0.0433(9)
C23 C -0.5105(16) -0.0273(9) 0.1185(8)
C24 C -0.4088(20) -0.0067(15) -0.1171(9)
O13 O -0.1532(10) -0.5566(5) 0.2762(5)
O14 O -0.8473(11) -0.3206(5) 0.5124(6)
O15 O -0.8870(10) -0.3788(6) 0.3056(5)
O11_2 O 0.0760(8) -0.5126(5) 0.4584(4)
O5A O -0.5371(9) -0.5448(5) 0.3795(5)
Cd1_2 Cd -1.2473(1) -0.4986 0.4057
C17A C -0.9479(14) -0.5926(7) 0.4946(7)
O11A O -0.0760(8) -0.0126(5) 0.5416(4)
O12A O -0.1050(9) -0.6265(5) 0.4871(5)
Cd1A Cd -0.7527(1) 0.0014 0.5943
Cd2A Cd -0.3139(1) 0.0779(1) 0.5640
O12A_2 O -1.1050(9) -0.6265(5) 0.4871(5)
C16A C -0.7878(13) -0.6442(8) 0.5449(7)
Cd1A_2 Cd 0.2473(1) 0.0014 0.5943
C15A C -0.8038(14) -0.6484(8) 0.6453(7)
O3A O -0.8002(9) -0.9023(5) 0.4720(4)
O4A O -0.5314(9) -0.9459(5) 0.4376(5)
C14A C -0.6418(14) -0.6996(8) 0.7010(7)
Cd1A_3 Cd -0.7527(1) -0.9986 0.5943
Cd2A_2 Cd -0.3139(1) -0.9221(1) 0.5640
N2A N -0.4761(12) -0.6396(7) 0.7099(7)
C13A C -0.6150(14) -0.7972(7) 0.6594(7)
S2A S -0.3119(4) -0.6570(2) 0.7917(2)
O9A O -0.7303(10) -0.8605(5) 0.6735(5)
O10A O -0.4871(10) -0.8091(6) 0.6158(6)
O7A O -0.2772(12) -0.7578(7) 0.8081(6)
O8A O -0.1632(11) -0.5978(8) 0.7743(6)
C18A C -0.3965(16) -0.6143(9) 0.8858(8)
C19A C -0.3674(18) -0.6655(10) 0.9632(8)
C23A C -0.4895(16) -0.5273(9) 0.8815(8)
C20A C -0.4252(18) -0.6291(12) 1.0406(9)
C22A C -0.5506(16) -0.4946(12) 0.9567(9)
C21A C -0.5203(17) -0.5431(11) 1.0366(10)
C24A C -0.5912(20) -0.5067(15) 1.1171(9)
O5_2 O -0.4629(9) -1.0448(5) 0.6205(5)
O11A_2 O -1.0760(8) -1.0126(5) 0.5416(4)
O12_2 O -0.8950(9) -1.1265(5) 0.5129(5)
O13A O -0.8468(10) -1.0566(5) 0.7238(5)
O11A_3 O -0.0760(8) -1.0126(5) 0.5416(4)
Cd2A_3 Cd -1.3139(1) -0.9221(1) 0.5640
C17_2 C -1.0521(14) -1.0926(7) 0.5054(7)
O4A_2 O -1.5314(9) -0.9459(5) 0.4376(5)
O5_3 O -1.4629(9) -1.0448(5) 0.6205(5)
O10A_2 O -1.4871(10) -0.8091(6) 0.6158(6)
O14A O -1.1527(11) -0.8206(5) 0.4876(6)
O15A O -1.1130(10) -0.8788(6) 0.6944(5)
C16_2 C -1.2122(13) -1.1442(8) 0.4551(7)
C15_2 C -1.1962(14) -1.1484(8) 0.3547(7)
C14_2 C -1.3582(14) -1.1996(8) 0.2990(7)
N2_2 N -1.5239(12) -1.1396(7) 0.2901(7)
C13_2 C -1.3850(14) -1.2972(7) 0.3406(7)
S2_2 S -1.6881(4) -1.1570(2) 0.2083(2)
O9_2 O -1.2697(10) -1.3605(5) 0.3265(5)
O10_2 O -1.5129(10) -1.3091(6) 0.3842(6)
O7_2 O -1.7228(12) -1.2578(7) 0.1919(6)
O8_2 O -1.8368(11) -1.0978(8) 0.2257(6)
C18_2 C -1.6035(16) -1.1143(9) 0.1142(8)
Cd1_3 Cd -1.2473(1) -1.4986 0.4057
Cd2_2 Cd -1.6861(1) -1.4221(1) 0.4360
C19_2 C -1.6326(18) -1.1655(10) 0.0368(8)
C23_2 C -1.5105(16) -1.0273(9) 0.1185(8)
C20_2 C -1.5748(18) -1.1291(12) -0.0406(9)
C22_2 C -1.4494(16) -0.9946(12) 0.0433(9)
C21_2 C -1.4797(17) -1.0431(11) -0.0366(10)
C24_2 C -1.4088(20) -1.0067(15) -0.1171(9)
loop_
_geom_bond_atom_site_label_1
_geom_bond_atom_site_label_2
_geom_bond_site_symmetry_1
_geom_bond_site_symmetry_2
Cd1 O3 1_555 1_555
S1 O1 1_555 1_555
O2 S1 1_555 1_555
O3 C1 1_555 1_555
O4 C1 1_555 1_555
O5 C5 1_555 1_555
O6 C5 1_555 1_555
N1 S1 1_555 1_555
C1 C2 1_555 1_555
C2 N1 1_555 1_555
C3 C2 1_555 1_555
C4 C3 1_555 1_555
C5 C4 1_555 1_555
C6 S1 1_555 1_555
C7 C6 1_555 1_555
C8 C7 1_555 1_555
C9 C8 1_555 1_555
C10 C9 1_555 1_555
C11 C6 1_555 1_555
C12 C9 1_555 1_555
Cd2 O4 1_555 1_555
S2 O7 1_555 1_555
O8 S2 1_555 1_555
O9 Cd1 1_555 1_555
O10 Cd2 1_555 1_555
O11 Cd2 1_555 1_555
O12 C17 1_555 1_555
N2 S2 1_555 1_555
C13 O9 1_555 1_555
C14 N2 1_555 1_555
C15 C14 1_555 1_555
C16 C15 1_555 1_555
C17 C16 1_555 1_555
C18 S2 1_555 1_555
C19 C18 1_555 1_555
C20 C19 1_555 1_555
C21 C20 1_555 1_555
C22 C21 1_555 1_555
C23 C18 1_555 1_555
C24 C21 1_555 1_555
O13 Cd1 1_555 1_555
O14 Cd2 1_555 1_555
O15 Cd2 1_555 1_555
O11_2 Cd1 1_555 1_555
O5A Cd1 1_555 1_555
Cd1_2 O11 1_555 1_555
C17A O11 1_555 1_555
O11A C17 1_555 1_555
O12A Cd1 1_555 1_555
Cd1A O5 1_555 1_555
Cd2A O5 1_555 1_555
O12A_2 Cd1_2 1_555 1_555
C16A C17A 1_555 1_555
Cd1A_2 O12 1_555 1_555
C15A C16A 1_555 1_555
O3A Cd1A_3 1_555 1_555
O4A Cd2A_2 1_555 1_555
C14A C15A 1_555 1_555
Cd1A_3 O9A 1_555 1_555
Cd2A_2 O10A 1_555 1_555
N2A C14A 1_555 1_555
C13A C14A 1_555 1_555
S2A N2A 1_555 1_555
O9A C13A 1_555 1_555
O10A C13A 1_555 1_555
O7A S2A 1_555 1_555
O8A S2A 1_555 1_555
C18A S2A 1_555 1_555
C19A C18A 1_555 1_555
C23A C18A 1_555 1_555
C20A C19A 1_555 1_555
C22A C23A 1_555 1_555
C21A C20A 1_555 1_555
C24A C21A 1_555 1_555
O5_2 Cd1A_3 1_555 1_555
O11A_2 Cd1A_3 1_555 1_555
O12_2 Cd1A_3 1_555 1_555
O13A Cd1A_3 1_555 1_555
O11A_3 Cd2A_2 1_555 1_555
Cd2A_3 O11A_2 1_555 1_555
C17_2 O11A_2 1_555 1_555
O4A_2 Cd2A_3 1_555 1_555
O5_3 Cd2A_3 1_555 1_555
O10A_2 Cd2A_3 1_555 1_555
O14A Cd2A_3 1_555 1_555
O15A Cd2A_3 1_555 1_555
C16_2 C17_2 1_555 1_555
C15_2 C16_2 1_555 1_555
C14_2 C15_2 1_555 1_555
N2_2 C14_2 1_555 1_555
C13_2 C14_2 1_555 1_555
S2_2 N2_2 1_555 1_555
O9_2 C13_2 1_555 1_555
O10_2 C13_2 1_555 1_555
O7_2 S2_2 1_555 1_555
O8_2 S2_2 1_555 1_555
C18_2 S2_2 1_555 1_555
Cd1_3 O9_2 1_555 1_555
Cd2_2 O10_2 1_555 1_555
C19_2 C18_2 1_555 1_555
C23_2 C18_2 1_555 1_555
C20_2 C19_2 1_555 1_555
C22_2 C23_2 1_555 1_555
C21_2 C20_2 1_555 1_555
C24_2 C21_2 1_555 1_555
C10 C11 1_555 1_555
Cd2 O5A 1_555 1_555
O10 C13 1_555 1_555
C13 C14 1_555 1_555
C22 C23 1_555 1_555
C17A O12A_2 1_555 1_555
O11A Cd1A_2 1_555 1_555
O11A Cd2A 1_555 1_555
Cd2A_2 O5_2 1_555 1_555
C22A C21A 1_555 1_555
O12_2 C17_2 1_555 1_555
C22_2 C21_2 1_555 1_555

#END
