
#######################################################################
#
#                 Cambridge Crystallographic Data Centre
#                                CCDC 
#
#######################################################################
#
# If this CIF has been generated from an entry in the Cambridge 
# Structural Database, then it will include bibliographic, chemical, 
# crystal, experimental, refinement or atomic coordinate data resulting 
# from the CCDC's data processing and validation procedures.
#
#######################################################################

data_LIQJIE
_symmetry_cell_setting           monoclinic
_symmetry_space_group_name_H-M   'C 2'
_symmetry_Int_Tables_number      5
_space_group_name_Hall           'C 2y'
loop_
_symmetry_equiv_pos_site_id
_symmetry_equiv_pos_as_xyz
1 x,y,z
2 -x,y,-z
3 1/2+x,1/2+y,z
4 1/2-x,1/2+y,-z
_cell_length_a                   24.386(3)
_cell_length_b                   5.042(1)
_cell_length_c                   18.349(2)
_cell_angle_alpha                90
_cell_angle_beta                 93.2(1)
_cell_angle_gamma                90
_cell_volume                     2252.57
loop_
_atom_site_label
_atom_site_type_symbol
_atom_site_fract_x
_atom_site_fract_y
_atom_site_fract_z
Cd1 Cd 0.1242 -0.0067 0.3497
S1 S 0.3045 -0.6791(3) 0.2074(1)
O1 O 0.3480(2) -0.5480(11) 0.1722(2)
O2 O 0.3111(2) -0.9507(8) 0.2310(3)
O3 O 0.1964(2) -0.2205(9) 0.2976(2)
O4 O 0.1537(2) -0.5897(10) 0.3230(3)
O5 O 0.3903(3) -0.6868(18) 0.5341(3)
O6 O 0.3151(3) -0.4796(23) 0.5510(3)
N1 N 0.2924(2) -0.5073(15) 0.2785(2)
C1 C 0.1965(2) -0.4643(11) 0.3148(3)
C2 C 0.2522(2) -0.5991(11) 0.3303(2)
C3 C 0.2718(2) -0.5251(15) 0.4081(2)
C4 C 0.3251(2) -0.6684(15) 0.4317(3)
C5 C 0.3456(2) -0.6032(13) 0.5104(3)
C6 C 0.2470(2) -0.6712(13) 0.1444(3)
C7 C 0.2448(3) -0.4732(17) 0.0900(3)
C8 C 0.2024(4) -0.4777(27) 0.0369(3)
C9 C 0.1596(3) -0.6746(21) 0.0387(3)
C10 C 0.1622(3) -0.8602(19) 0.0939(4)
C11 C 0.2058(3) -0.8591(16) 0.1486(3)
C12 C 0.1136(4) -0.6911(38) -0.0213(4)
N2 N 0.0658(2) -0.1552(14) 0.2489(3)
N3 N 0.0382(2) 0.2043(12) 0.3503(3)
C13 C 0.0813(3) -0.3327(21) 0.2004(3)
C14 C 0.0473(4) -0.4224(29) 0.1440(5)
C15 C -0.0045(4) -0.3270(50) 0.1396(8)
C16 C -0.0214(3) -0.1338(37) 0.1871(7)
C17 C 0.0150(2) -0.0521(20) 0.2429(4)
C18 C -0.0007(2) 0.1382(18) 0.2977(4)
C19 C -0.0527(3) 0.2446(33) 0.2971(6)
C20 C -0.0640(5) 0.4326(39) 0.3492(7)
C21 C -0.0243(4) 0.5087(33) 0.4023(4)
C22 C 0.0261(3) 0.3848(18) 0.3998(4)
H1 H 0.314 -0.318 0.288
H2 H 0.257 -0.786 0.330
H3 H 0.241 -0.580 0.445
H4 H 0.279 -0.314 0.412
H5 H 0.365 -0.577 0.433
H6 H 0.327 -0.843 0.466
H7 H 0.277 -0.326 0.089
H8 H 0.200 -0.327 -0.006
H9 H 0.129 -1.008 0.096
H10 H 0.207 -1.004 0.193
H11 H 0.119 -0.528 -0.061
H12 H 0.075 -0.666 0.002
H13 H 0.116 -0.875 -0.050
H14 H 0.121 -0.386 0.204
H15 H 0.062 -0.569 0.105
H16 H -0.032 -0.379 0.092
H17 H -0.062 -0.047 0.181
H18 H -0.084 0.192 0.254
H19 H -0.106 0.515 0.349
H20 H -0.038 0.593 0.449
H21 H 0.059 0.434 0.440
O4_2 O 0.1537(2) 0.4103(10) 0.3230(3)
Cd1_2 Cd 0.1242 -1.0067 0.3497
O5C O 0.1097(3) -0.1868(18) 0.4659(3)
O6C O 0.1849(3) 0.0204(23) 0.4490(3)
Cd1C Cd 0.3758 -0.5067 0.6503
loop_
_geom_bond_atom_site_label_1
_geom_bond_atom_site_label_2
_geom_bond_site_symmetry_1
_geom_bond_site_symmetry_2
Cd1 O3 1_555 1_555
S1 O1 1_555 1_555
O2 S1 1_555 1_555
O3 C1 1_555 1_555
O4 C1 1_555 1_555
O5 C5 1_555 1_555
O6 C5 1_555 1_555
N1 S1 1_555 1_555
C1 C2 1_555 1_555
C2 N1 1_555 1_555
C3 C2 1_555 1_555
C4 C3 1_555 1_555
C5 C4 1_555 1_555
C6 S1 1_555 1_555
C7 C6 1_555 1_555
C8 C7 1_555 1_555
C9 C8 1_555 1_555
C10 C9 1_555 1_555
C11 C6 1_555 1_555
C12 C9 1_555 1_555
N2 Cd1 1_555 1_555
N3 Cd1 1_555 1_555
C13 N2 1_555 1_555
C14 C13 1_555 1_555
C15 C14 1_555 1_555
C16 C15 1_555 1_555
C17 N2 1_555 1_555
C18 N3 1_555 1_555
C19 C18 1_555 1_555
C20 C19 1_555 1_555
C21 C20 1_555 1_555
C22 N3 1_555 1_555
H1 N1 1_555 1_555
H2 C2 1_555 1_555
H3 C3 1_555 1_555
H4 C3 1_555 1_555
H5 C4 1_555 1_555
H6 C4 1_555 1_555
H7 C7 1_555 1_555
H8 C8 1_555 1_555
H9 C10 1_555 1_555
H10 C11 1_555 1_555
H11 C12 1_555 1_555
H12 C12 1_555 1_555
H13 C12 1_555 1_555
H14 C13 1_555 1_555
H15 C14 1_555 1_555
H16 C15 1_555 1_555
H17 C16 1_555 1_555
H18 C19 1_555 1_555
H19 C20 1_555 1_555
H20 C21 1_555 1_555
H21 C22 1_555 1_555
O4_2 Cd1 1_555 1_555
Cd1_2 O4 1_555 1_555
O5C Cd1 1_555 1_555
O6C Cd1 1_555 1_555
Cd1C O5 1_555 1_555
O6 Cd1C 1_555 1_555
C10 C11 1_555 1_555
C16 C17 1_555 1_555
C17 C18 1_555 1_555
C21 C22 1_555 1_555

#END
