
#######################################################################
#
#                 Cambridge Crystallographic Data Centre
#                                CCDC 
#
#######################################################################
#
# If this CIF has been generated from an entry in the Cambridge 
# Structural Database, then it will include bibliographic, chemical, 
# crystal, experimental, refinement or atomic coordinate data resulting 
# from the CCDC's data processing and validation procedures.
#
#######################################################################

data_LIQLIH05
_symmetry_cell_setting           monoclinic
_symmetry_space_group_name_H-M   'P 21/c'
_symmetry_Int_Tables_number      14
_space_group_name_Hall           '-P 2ybc'
loop_
_symmetry_equiv_pos_site_id
_symmetry_equiv_pos_as_xyz
1 x,y,z
2 -x,1/2+y,1/2-z
3 -x,-y,-z
4 x,1/2-y,1/2+z
_cell_length_a                   7.6240(10)
_cell_length_b                   7.551(2)
_cell_length_c                   6.8560(10)
_cell_angle_alpha                90
_cell_angle_beta                 112.370(11)
_cell_angle_gamma                90
_cell_volume                     364.989
loop_
_atom_site_label
_atom_site_type_symbol
_atom_site_fract_x
_atom_site_fract_y
_atom_site_fract_z
Cu1 Cu 0.0000 0.0000 0.0000
F1 F -0.0275(2) -0.2529(3) -0.0154(2)
O1 O -0.1151(2) 0.0100(2) -0.3133(2)
N1 N -0.31604(15) 0.01418(15) 0.00297(14)
C1 C -0.3696(2) 0.1029(2) 0.1410(2)
C2 C -0.4470(2) -0.0882(2) -0.1378(2)
D1 D -0.0931(3) -0.0981(3) -0.3820(3)
D2 D -0.0631(3) 0.1074(3) -0.3710(3)
D3 D -0.2643(3) 0.1863(3) 0.2559(3)
D4 D -0.4034(3) -0.1605(3) -0.2493(3)
Cu1_2 Cu -1.0000 0.0000 0.0000
F1B F 0.0275(2) 0.2529(3) 0.0154(2)
O1B O 0.1151(2) -0.0100(2) 0.3133(2)
N1B N -0.68396(15) -0.01418(15) -0.00297(14)
N1B_2 N 0.31604(15) -0.01418(15) -0.00297(14)
C1B C -0.6304(2) -0.1029(2) -0.1410(2)
C2B C -0.5530(2) 0.0882(2) 0.1378(2)
D1B D 0.0931(3) 0.0981(3) 0.3820(3)
D2B D 0.0631(3) -0.1074(3) 0.3710(3)
D3B D -0.7357(3) -0.1863(3) -0.2559(3)
D4B D -0.5966(3) 0.1605(3) 0.2493(3)
loop_
_geom_bond_atom_site_label_1
_geom_bond_atom_site_label_2
_geom_bond_site_symmetry_1
_geom_bond_site_symmetry_2
Cu1 F1 1_555 1_555
O1 Cu1 1_555 1_555
N1 Cu1 1_555 1_555
C1 N1 1_555 1_555
C2 N1 1_555 1_555
D1 O1 1_555 1_555
D2 O1 1_555 1_555
D3 C1 1_555 1_555
D4 C2 1_555 1_555
Cu1_2 N1B 1_555 1_555
F1B Cu1 1_555 1_555
O1B Cu1 1_555 1_555
N1B C1B 1_555 1_555
N1B_2 Cu1 1_555 1_555
C1B C2 1_555 1_555
C2B C1 1_555 1_555
D1B O1B 1_555 1_555
D2B O1B 1_555 1_555
D3B C1B 1_555 1_555
D4B C2B 1_555 1_555
N1B C2B 1_555 1_555

#END
