
#######################################################################
#
#                 Cambridge Crystallographic Data Centre
#                                CCDC 
#
#######################################################################
#
# If this CIF has been generated from an entry in the Cambridge 
# Structural Database, then it will include bibliographic, chemical, 
# crystal, experimental, refinement or atomic coordinate data resulting 
# from the CCDC's data processing and validation procedures.
#
#######################################################################

data_LIQLIH07
_symmetry_cell_setting           monoclinic
_symmetry_space_group_name_H-M   'P 21/c'
_symmetry_Int_Tables_number      14
_space_group_name_Hall           '-P 2ybc'
loop_
_symmetry_equiv_pos_site_id
_symmetry_equiv_pos_as_xyz
1 x,y,z
2 -x,1/2+y,1/2-z
3 -x,-y,-z
4 x,1/2-y,1/2+z
_cell_length_a                   7.7004(2)
_cell_length_b                   7.5648(3)
_cell_length_c                   6.9033(2)
_cell_angle_alpha                90
_cell_angle_beta                 111.062(2)
_cell_angle_gamma                90
_cell_volume                     375.265
loop_
_atom_site_label
_atom_site_type_symbol
_atom_site_fract_x
_atom_site_fract_y
_atom_site_fract_z
Cu1 Cu 1.0000 0.5000 0.5000
F1 F 1.0185(3) 0.7515(5) 0.5098(2)
O1 O 1.1097(7) 0.4930(2) 0.8076(6)
N1 N 0.6832(8) 0.5110(4) 0.5050(8)
C1 C 0.6254(4) 0.6017(4) 0.6357(5)
C2 C 0.5552(4) 0.4096(4) 0.3691(5)
H1 H 0.709(3) 0.6747(19) 0.733(2)
H2 H 0.591(3) 0.3427(19) 0.272(2)
H3 H 1.078(6) 0.578(5) 0.863(2)
H4 H 1.062(6) 0.419(6) 0.857(2)
Cu1_2 Cu 0.0000 0.5000 0.5000
F1B F 0.9815(3) 0.2485(5) 0.4902(2)
O1B O 0.8903(7) 0.5070(2) 0.1924(6)
N1B N 0.3168(8) 0.4890(4) 0.4950(8)
N1B_2 N 1.3168(8) 0.4890(4) 0.4950(8)
C1B C 0.3746(4) 0.3983(4) 0.3643(5)
C2B C 0.4448(4) 0.5904(4) 0.6309(5)
H1B H 0.291(3) 0.3253(19) 0.267(2)
H2B H 0.409(3) 0.6573(19) 0.728(2)
H3B H 0.922(6) 0.422(5) 0.137(2)
H4B H 0.938(6) 0.581(6) 0.143(2)
loop_
_geom_bond_atom_site_label_1
_geom_bond_atom_site_label_2
_geom_bond_site_symmetry_1
_geom_bond_site_symmetry_2
Cu1 F1 1_555 1_555
O1 Cu1 1_555 1_555
N1 Cu1 1_555 1_555
C1 N1 1_555 1_555
C2 N1 1_555 1_555
H1 C1 1_555 1_555
H2 C2 1_555 1_555
H3 O1 1_555 1_555
H4 O1 1_555 1_555
Cu1_2 N1B 1_555 1_555
F1B Cu1 1_555 1_555
O1B Cu1 1_555 1_555
N1B C1B 1_555 1_555
N1B_2 Cu1 1_555 1_555
C1B C2 1_555 1_555
C2B C1 1_555 1_555
H1B C1B 1_555 1_555
H2B C2B 1_555 1_555
H3B O1B 1_555 1_555
H4B O1B 1_555 1_555
N1B C2B 1_555 1_555

#END
