
#######################################################################
#
#                 Cambridge Crystallographic Data Centre
#                                CCDC 
#
#######################################################################
#
# If this CIF has been generated from an entry in the Cambridge 
# Structural Database, then it will include bibliographic, chemical, 
# crystal, experimental, refinement or atomic coordinate data resulting 
# from the CCDC's data processing and validation procedures.
#
#######################################################################

data_LIQLIH02
_symmetry_cell_setting           monoclinic
_symmetry_space_group_name_H-M   'P 21/c'
_symmetry_Int_Tables_number      14
_space_group_name_Hall           '-P 2ybc'
loop_
_symmetry_equiv_pos_site_id
_symmetry_equiv_pos_as_xyz
1 x,y,z
2 -x,1/2+y,1/2-z
3 -x,-y,-z
4 x,1/2-y,1/2+z
_cell_length_a                   7.6617(12)
_cell_length_b                   7.5402(13)
_cell_length_c                   6.8674(11)
_cell_angle_alpha                90
_cell_angle_beta                 111.966(6)
_cell_angle_gamma                90
_cell_volume                     367.934
loop_
_atom_site_label
_atom_site_type_symbol
_atom_site_fract_x
_atom_site_fract_y
_atom_site_fract_z
Cu1 Cu 0.0000 0.0000 0.0000
F1 F -0.02403(15) -0.25241(18) -0.01314(13)
O1 O -0.1126(3) 0.00884(13) -0.3105(3)
H1 H -0.091(4) -0.079(3) -0.361(4)
H2 H -0.069(4) 0.088(3) -0.352(4)
N1 N -0.3165(3) 0.01325(18) 0.0042(3)
C1 C -0.3717(2) 0.1025(2) 0.1390(3)
H3 H -0.2842 0.1771 0.2405
C2 C -0.4459(2) -0.0891(2) -0.1345(3)
H4 H -0.4124 -0.1549 -0.2333
Cu1_2 Cu -1.0000 0.0000 0.0000
F1B F 0.02403(15) 0.25241(18) 0.01314(13)
O1B O 0.1126(3) -0.00884(13) 0.3105(3)
H1B H 0.091(4) 0.079(3) 0.361(4)
H2B H 0.069(4) -0.088(3) 0.352(4)
N1B N -0.6835(3) -0.01325(18) -0.0042(3)
N1B_2 N 0.3165(3) -0.01325(18) -0.0042(3)
C1B C -0.6283(2) -0.1025(2) -0.1390(3)
H3B H -0.7158 -0.1771 -0.2405
C2B C -0.5541(2) 0.0891(2) 0.1345(3)
H4B H -0.5876 0.1549 0.2333
loop_
_geom_bond_atom_site_label_1
_geom_bond_atom_site_label_2
_geom_bond_site_symmetry_1
_geom_bond_site_symmetry_2
Cu1 F1 1_555 1_555
O1 Cu1 1_555 1_555
H1 O1 1_555 1_555
H2 O1 1_555 1_555
N1 Cu1 1_555 1_555
C1 N1 1_555 1_555
H3 C1 1_555 1_555
C2 N1 1_555 1_555
H4 C2 1_555 1_555
Cu1_2 N1B 1_555 1_555
F1B Cu1 1_555 1_555
O1B Cu1 1_555 1_555
H1B O1B 1_555 1_555
H2B O1B 1_555 1_555
N1B C1B 1_555 1_555
N1B_2 Cu1 1_555 1_555
C1B C2 1_555 1_555
H3B C1B 1_555 1_555
C2B C1 1_555 1_555
H4B C2B 1_555 1_555
N1B C2B 1_555 1_555

#END
